# Generated by pormake.
# Topology pyr, (3,6)-cn, num edge types: 1
# Building blocks:
#     Node 0, Type 0, BuildingBlock: WUSLED_clean_sbu_0, # of connection points: 3
#     Node 1, Type 0, BuildingBlock: WUSLED_clean_sbu_0, # of connection points: 3
#     Node 2, Type 0, BuildingBlock: WUSLED_clean_sbu_0, # of connection points: 3
#     Node 3, Type 0, BuildingBlock: WUSLED_clean_sbu_0, # of connection points: 3
#     Node 4, Type 0, BuildingBlock: WUSLED_clean_sbu_0, # of connection points: 3
#     Node 5, Type 0, BuildingBlock: WUSLED_clean_sbu_0, # of connection points: 3
#     Node 6, Type 0, BuildingBlock: WUSLED_clean_sbu_0, # of connection points: 3
#     Node 7, Type 0, BuildingBlock: WUSLED_clean_sbu_0, # of connection points: 3
#     Node 8, Type 1, BuildingBlock: CIFDUS_clean_sbu_1, # of connection points: 6
#     Node 9, Type 1, BuildingBlock: CIFDUS_clean_sbu_1, # of connection points: 6
#     Node 10, Type 1, BuildingBlock: CIFDUS_clean_sbu_1, # of connection points: 6
#     Node 11, Type 1, BuildingBlock: CIFDUS_clean_sbu_1, # of connection points: 6
#     Edge 12, Type (0, 1), BuildingBlock: MIFKUJ_clean_linker_0, # of connection points: 2
#     Edge 13, Type (0, 1), BuildingBlock: MIFKUJ_clean_linker_0, # of connection points: 2
#     Edge 14, Type (0, 1), BuildingBlock: MIFKUJ_clean_linker_0, # of connection points: 2
#     Edge 15, Type (0, 1), BuildingBlock: MIFKUJ_clean_linker_0, # of connection points: 2
#     Edge 16, Type (0, 1), BuildingBlock: MIFKUJ_clean_linker_0, # of connection points: 2
#     Edge 17, Type (0, 1), BuildingBlock: MIFKUJ_clean_linker_0, # of connection points: 2
#     Edge 18, Type (0, 1), BuildingBlock: MIFKUJ_clean_linker_0, # of connection points: 2
#     Edge 19, Type (0, 1), BuildingBlock: MIFKUJ_clean_linker_0, # of connection points: 2
#     Edge 20, Type (0, 1), BuildingBlock: MIFKUJ_clean_linker_0, # of connection points: 2
#     Edge 21, Type (0, 1), BuildingBlock: MIFKUJ_clean_linker_0, # of connection points: 2
#     Edge 22, Type (0, 1), BuildingBlock: MIFKUJ_clean_linker_0, # of connection points: 2
#     Edge 23, Type (0, 1), BuildingBlock: MIFKUJ_clean_linker_0, # of connection points: 2
#     Edge 24, Type (0, 1), BuildingBlock: MIFKUJ_clean_linker_0, # of connection points: 2
#     Edge 25, Type (0, 1), BuildingBlock: MIFKUJ_clean_linker_0, # of connection points: 2
#     Edge 26, Type (0, 1), BuildingBlock: MIFKUJ_clean_linker_0, # of connection points: 2
#     Edge 27, Type (0, 1), BuildingBlock: MIFKUJ_clean_linker_0, # of connection points: 2
#     Edge 28, Type (0, 1), BuildingBlock: MIFKUJ_clean_linker_0, # of connection points: 2
#     Edge 29, Type (0, 1), BuildingBlock: MIFKUJ_clean_linker_0, # of connection points: 2
#     Edge 30, Type (0, 1), BuildingBlock: MIFKUJ_clean_linker_0, # of connection points: 2
#     Edge 31, Type (0, 1), BuildingBlock: MIFKUJ_clean_linker_0, # of connection points: 2
#     Edge 32, Type (0, 1), BuildingBlock: MIFKUJ_clean_linker_0, # of connection points: 2
#     Edge 33, Type (0, 1), BuildingBlock: MIFKUJ_clean_linker_0, # of connection points: 2
#     Edge 34, Type (0, 1), BuildingBlock: MIFKUJ_clean_linker_0, # of connection points: 2
#     Edge 35, Type (0, 1), BuildingBlock: MIFKUJ_clean_linker_0, # of connection points: 2
# Relax obj value: 0.035
# Max RMSD: 0.110
# Mean RMSD: 0.045
data_MOF--net-pry--node1-WUSLED_clean_sbu_0--node2-CIFDUS_clean_sbu_1--edge1-MIFKUJ_clean_linker_0
_symmetry_space_group_name_H-M    P1
_symmetry_Int_Tables_number       1
_symmetry_cell_setting            triclinic
loop_
_symmetry_equiv_pos_as_xyz
'x, y, z'
_cell_length_a     59.291791
_cell_length_b     57.372236
_cell_length_c     57.163916
_cell_angle_alpha  91.994384
_cell_angle_beta   90.84449
_cell_angle_gamma 93.734472
loop_
_atom_site_label
_atom_site_type_symbol
_atom_site_fract_x
_atom_site_fract_y
_atom_site_fract_z
_atom_type_partial_charge
C0 C 0.13459 0.21229 0.10585 0.0
C1 C 0.11311 0.21635 0.11472 0.0
C2 C 0.11213 0.25285 0.09335 0.0
C3 C 0.10197 0.23638 0.10847 0.0
C4 C 0.13347 0.24832 0.08435 0.0
C5 C 0.14445 0.22844 0.09051 0.0
U6 U 0.15146 0.15696 0.14063 0.0
O7 O 0.16594 0.12528 0.12543 0.0
O8 O 0.18605 0.14824 0.15038 0.0
C9 C 0.18535 0.12925 0.1368 0.0
C10 C 0.14749 0.19171 0.11182 0.0
C11 C 0.2067 0.12316 0.12513 0.0
C12 C 0.23087 0.11812 0.09111 0.0
C13 C 0.21058 0.12526 0.10103 0.0
C14 C 0.24345 0.10651 0.12909 0.0
C15 C 0.24773 0.10871 0.10506 0.0
C16 C 0.22337 0.11365 0.13889 0.0
C17 C 0.11737 0.13599 0.19577 0.0
C18 C 0.1285 0.11922 0.23269 0.0
C19 C 0.0889 0.11959 0.22225 0.0
C20 C 0.09467 0.13033 0.20124 0.0
C21 C 0.10569 0.11424 0.23859 0.0
C22 C 0.13426 0.12993 0.21158 0.0
C23 C 0.12254 0.15043 0.17501 0.0
O24 O 0.15995 0.19345 0.13108 0.0
O25 O 0.13773 0.17065 0.10798 0.0
O26 O 0.11955 0.14041 0.15404 0.0
O27 O 0.14056 0.16503 0.1765 0.0
H28 H 0.10504 0.20418 0.12655 0.0
H29 H 0.08563 0.2392 0.11589 0.0
H30 H 0.14174 0.26012 0.0723 0.0
H31 H 0.16087 0.22568 0.08321 0.0
H32 H 0.23344 0.12025 0.07258 0.0
H33 H 0.19799 0.13235 0.08988 0.0
H34 H 0.25551 0.09888 0.14046 0.0
H35 H 0.22074 0.11143 0.15743 0.0
H36 H 0.14196 0.11506 0.24453 0.0
H37 H 0.07117 0.11634 0.2261 0.0
H38 H 0.08126 0.13498 0.18956 0.0
H39 H 0.15193 0.13401 0.20793 0.0
C40 C 0.31849 0.90014 0.59887 0.0
C41 C 0.30539 0.91139 0.61559 0.0
C42 C 0.27749 0.91947 0.58534 0.0
C43 C 0.28514 0.92103 0.60888 0.0
C44 C 0.29111 0.90882 0.56865 0.0
C45 C 0.3113 0.89932 0.57534 0.0
U46 U 0.37214 0.88775 0.6363 0.0
O47 O 0.38324 0.85353 0.64651 0.0
O48 O 0.4044 0.87542 0.62369 0.0
C49 C 0.40179 0.85545 0.63424 0.0
C50 C 0.33867 0.88755 0.60534 0.0
C51 C 0.40812 0.83424 0.62114 0.0
C52 C 0.40559 0.80697 0.58736 0.0
C53 C 0.39869 0.8272 0.59913 0.0
C54 C 0.43128 0.80074 0.6195 0.0
C55 C 0.42208 0.79349 0.59738 0.0
C56 C 0.42441 0.82083 0.63115 0.0
C57 C 0.39208 0.92579 0.69087 0.0
C58 C 0.41354 0.91471 0.72505 0.0
C59 C 0.41003 0.9556 0.71772 0.0
C60 C 0.39712 0.94937 0.69746 0.0
C61 C 0.41811 0.93837 0.73201 0.0
C62 C 0.40076 0.90848 0.70464 0.0
C63 C 0.37679 0.91983 0.67043 0.0
O64 O 0.35861 0.89831 0.60228 0.0
O65 O 0.33761 0.87581 0.62469 0.0
O66 O 0.36359 0.9006 0.67156 0.0
O67 O 0.38549 0.92266 0.64962 0.0
H68 H 0.31053 0.91224 0.63388 0.0
H69 H 0.2751 0.92899 0.62226 0.0
H70 H 0.28608 0.90766 0.55034 0.0
H71 H 0.3211 0.89078 0.5621 0.0
H72 H 0.39822 0.80208 0.57031 0.0
H73 H 0.3861 0.83734 0.59106 0.0
H74 H 0.44361 0.79068 0.62808 0.0
H75 H 0.43186 0.8259 0.64814 0.0
H76 H 0.41968 0.901 0.73551 0.0
H77 H 0.41297 0.97396 0.72266 0.0
H78 H 0.39058 0.96304 0.6872 0.0
H79 H 0.39728 0.89014 0.69989 0.0
C80 C 0.60108 0.40953 0.82629 0.0
C81 C 0.61368 0.43019 0.8209 0.0
C82 C 0.59323 0.43136 0.78359 0.0
C83 C 0.60968 0.44112 0.79975 0.0
C84 C 0.58022 0.41111 0.78953 0.0
C85 C 0.5841 0.40036 0.81065 0.0
U86 U 0.6374 0.39729 0.8805 0.0
O87 O 0.62697 0.38321 0.91442 0.0
O88 O 0.64915 0.36379 0.89163 0.0
C89 C 0.6376 0.36399 0.91104 0.0
C90 C 0.60625 0.39626 0.84715 0.0
C91 C 0.62529 0.34167 0.91647 0.0
C92 C 0.59525 0.31116 0.90892 0.0
C93 C 0.60538 0.33337 0.90443 0.0
C94 C 0.62461 0.30564 0.93771 0.0
C95 C 0.60503 0.29685 0.92532 0.0
C96 C 0.63458 0.32778 0.93334 0.0
C97 C 0.69078 0.43701 0.89607 0.0
C98 C 0.71925 0.42779 0.92482 0.0
C99 C 0.72417 0.46333 0.9033 0.0
C100 C 0.70358 0.45771 0.89151 0.0
C101 C 0.73244 0.44833 0.91992 0.0
C102 C 0.69862 0.42217 0.91297 0.0
C103 C 0.67 0.43074 0.88216 0.0
O104 O 0.62454 0.38458 0.8458 0.0
O105 O 0.60408 0.40689 0.86767 0.0
O106 O 0.65077 0.43237 0.89308 0.0
O107 O 0.67042 0.4117 0.86879 0.0
H108 H 0.62695 0.4375 0.83274 0.0
H109 H 0.62002 0.45665 0.79563 0.0
H110 H 0.5672 0.40337 0.77765 0.0
H111 H 0.57416 0.38447 0.81452 0.0
H112 H 0.58024 0.30486 0.89901 0.0
H113 H 0.59799 0.34381 0.89126 0.0
H114 H 0.63238 0.29529 0.9507 0.0
H115 H 0.6499 0.33389 0.94286 0.0
H116 H 0.72518 0.41572 0.93733 0.0
H117 H 0.73365 0.47944 0.89932 0.0
H118 H 0.69779 0.4694 0.87854 0.0
H119 H 0.68901 0.40604 0.91666 0.0
C120 C 0.8269 0.58499 0.41736 0.0
C121 C 0.82323 0.59488 0.43973 0.0
C122 C 0.78541 0.5749 0.44039 0.0
C123 C 0.8027 0.58977 0.45119 0.0
C124 C 0.7895 0.56471 0.41824 0.0
C125 C 0.80996 0.56967 0.40693 0.0
U126 U 0.88216 0.62203 0.40215 0.0
O127 O 0.91382 0.60958 0.38763 0.0
O128 O 0.89341 0.63239 0.36727 0.0
C129 C 0.91137 0.62016 0.36779 0.0
C130 C 0.84767 0.59065 0.40394 0.0
C131 C 0.91667 0.60739 0.34571 0.0
C132 C 0.90792 0.57804 0.3143 0.0
C133 C 0.90327 0.588 0.33649 0.0
C134 C 0.93956 0.6064 0.31065 0.0
C135 C 0.92583 0.58752 0.30085 0.0
C136 C 0.93506 0.61613 0.33275 0.0
C137 C 0.89965 0.67864 0.44077 0.0
C138 C 0.92745 0.71068 0.43305 0.0
C139 C 0.905 0.7123 0.46798 0.0
C140 C 0.89429 0.69047 0.46163 0.0
C141 C 0.92147 0.72297 0.45363 0.0
C142 C 0.91654 0.68876 0.42661 0.0
C143 C 0.88614 0.65671 0.43387 0.0
O144 O 0.84757 0.60936 0.39134 0.0
O145 O 0.86727 0.5884 0.41442 0.0
O146 O 0.89567 0.63684 0.43619 0.0
O147 O 0.87375 0.65709 0.41466 0.0
H148 H 0.83604 0.60678 0.44813 0.0
H149 H 0.8001 0.59802 0.46818 0.0
H150 H 0.77679 0.55291 0.40953 0.0
H151 H 0.81243 0.56172 0.38977 0.0
H152 H 0.89698 0.56353 0.30728 0.0
H153 H 0.88895 0.58096 0.34615 0.0
H154 H 0.95368 0.61393 0.30102 0.0
H155 H 0.94569 0.631 0.3395 0.0
H156 H 0.93998 0.71835 0.42153 0.0
H157 H 0.9002 0.72094 0.48412 0.0
H158 H 0.88136 0.68302 0.47288 0.0
H159 H 0.92094 0.67999 0.41038 0.0
C160 C 0.89373 0.83219 0.92185 0.0
C161 C 0.90117 0.81654 0.90454 0.0
C162 C 0.91734 0.79243 0.93448 0.0
C163 C 0.9128 0.79694 0.91078 0.0
C164 C 0.91037 0.80856 0.95163 0.0
C165 C 0.89874 0.82806 0.9454 0.0
U166 U 0.87357 0.88429 0.88549 0.0
O167 O 0.83852 0.89301 0.87794 0.0
O168 O 0.8611 0.91782 0.8986 0.0
C169 C 0.84068 0.9132 0.88963 0.0
C170 C 0.8792 0.85169 0.91631 0.0
C171 C 0.82105 0.9206 0.90351 0.0
C172 C 0.78783 0.91271 0.92767 0.0
C173 C 0.80735 0.90513 0.9166 0.0
C174 C 0.79554 0.95132 0.91296 0.0
C175 C 0.78143 0.93594 0.92585 0.0
C176 C 0.81498 0.94377 0.90207 0.0
C177 C 0.90807 0.89977 0.82839 0.0
C178 C 0.9055 0.93116 0.80077 0.0
C179 C 0.93154 0.9011 0.79366 0.0
C180 C 0.9246 0.89038 0.81423 0.0
C181 C 0.92219 0.92171 0.7865 0.0
C182 C 0.89855 0.92034 0.82153 0.0
C183 C 0.90166 0.88748 0.85005 0.0
O184 O 0.88835 0.87315 0.9188 0.0
O185 O 0.86568 0.84874 0.89785 0.0
O186 O 0.88284 0.87404 0.84944 0.0
O187 O 0.90525 0.89888 0.87024 0.0
H188 H 0.89764 0.8192 0.88622 0.0
H189 H 0.91812 0.78521 0.89698 0.0
H190 H 0.91314 0.80571 0.97004 0.0
H191 H 0.89307 0.83966 0.95915 0.0
H192 H 0.77776 0.90029 0.93763 0.0
H193 H 0.81153 0.88713 0.91801 0.0
H194 H 0.79125 0.96914 0.91057 0.0
H195 H 0.82505 0.95605 0.8919 0.0
H196 H 0.89799 0.94709 0.79607 0.0
H197 H 0.94403 0.89288 0.78313 0.0
H198 H 0.9322 0.87452 0.81908 0.0
H199 H 0.88581 0.92801 0.83218 0.0
C200 C 0.618 0.13805 0.33736 0.0
C201 C 0.63349 0.12484 0.32517 0.0
C202 C 0.60461 0.11266 0.29531 0.0
C203 C 0.62684 0.11222 0.30437 0.0
C204 C 0.58912 0.12552 0.308 0.0
C205 C 0.59576 0.13803 0.3287 0.0
U206 U 0.65551 0.15753 0.3922 0.0
O207 O 0.66559 0.19345 0.40507 0.0
O208 O 0.64434 0.1704 0.42664 0.0
C209 C 0.65387 0.19151 0.42431 0.0
C210 C 0.62455 0.15283 0.35846 0.0
C211 C 0.64018 0.21139 0.43084 0.0
C212 C 0.60628 0.23312 0.42775 0.0
C213 C 0.61874 0.21405 0.42087 0.0
C214 C 0.63655 0.24706 0.45452 0.0
C215 C 0.61499 0.24992 0.44476 0.0
C216 C 0.64891 0.22806 0.44767 0.0
C217 C 0.70852 0.12264 0.40649 0.0
C218 C 0.73834 0.1316 0.43595 0.0
C219 C 0.73869 0.0963 0.4116 0.0
C220 C 0.71883 0.10207 0.40027 0.0
C221 C 0.74884 0.11094 0.42962 0.0
C222 C 0.71836 0.13739 0.4245 0.0
C223 C 0.68801 0.12824 0.39325 0.0
O224 O 0.62218 0.14305 0.3788 0.0
O225 O 0.64322 0.16638 0.35728 0.0
O226 O 0.68928 0.14763 0.38163 0.0
O227 O 0.66847 0.12442 0.40349 0.0
H228 H 0.65078 0.12458 0.33151 0.0
H229 H 0.63929 0.10267 0.29506 0.0
H230 H 0.57178 0.12597 0.30193 0.0
H231 H 0.58349 0.14802 0.33783 0.0
H232 H 0.58969 0.23451 0.41994 0.0
H233 H 0.61164 0.20138 0.40784 0.0
H234 H 0.64414 0.25974 0.46725 0.0
H235 H 0.66545 0.22643 0.45555 0.0
H236 H 0.74546 0.14324 0.44985 0.0
H237 H 0.74635 0.08052 0.40582 0.0
H238 H 0.71164 0.09049 0.38632 0.0
H239 H 0.71069 0.15338 0.42961 0.0
C240 C 0.31545 0.62618 0.14689 0.0
C241 C 0.30448 0.64322 0.1348 0.0
C242 C 0.27523 0.61384 0.12074 0.0
C243 C 0.28454 0.63711 0.12188 0.0
C244 C 0.28661 0.59684 0.1326 0.0
C245 C 0.30644 0.60298 0.14555 0.0
U246 U 0.36981 0.66418 0.16339 0.0
O247 O 0.38324 0.67607 0.19811 0.0
O248 O 0.40268 0.653 0.17595 0.0
C249 C 0.40084 0.66331 0.19666 0.0
C250 C 0.33595 0.63216 0.16142 0.0
C251 C 0.40534 0.6491 0.21712 0.0
C252 C 0.39239 0.62789 0.25111 0.0
C253 C 0.38766 0.63952 0.23062 0.0
C254 C 0.4325 0.63422 0.24431 0.0
C255 C 0.41487 0.62539 0.25837 0.0
C256 C 0.42776 0.64605 0.22396 0.0
C257 C 0.38647 0.71816 0.12709 0.0
C258 C 0.40952 0.75319 0.13957 0.0
C259 C 0.39945 0.74639 0.09858 0.0
C260 C 0.3876 0.72538 0.10391 0.0
C261 C 0.41018 0.76072 0.11642 0.0
C262 C 0.3979 0.732 0.14485 0.0
C263 C 0.37208 0.69707 0.13241 0.0
O264 O 0.35535 0.6294 0.15121 0.0
O265 O 0.33596 0.6515 0.17445 0.0
O266 O 0.36033 0.69832 0.15168 0.0
O267 O 0.38102 0.67686 0.12914 0.0
H268 H 0.31117 0.66126 0.13557 0.0
H269 H 0.27619 0.65073 0.1132 0.0
H270 H 0.28029 0.57869 0.13179 0.0
H271 H 0.31471 0.58955 0.15467 0.0
H272 H 0.37845 0.62101 0.2614 0.0
H273 H 0.37021 0.64143 0.22561 0.0
H274 H 0.44997 0.63272 0.2495 0.0
H275 H 0.44165 0.6533 0.21381 0.0
H276 H 0.41779 0.76384 0.15362 0.0
H277 H 0.3995 0.75187 0.08063 0.0
H278 H 0.3788 0.71503 0.08996 0.0
H279 H 0.39738 0.72673 0.16286 0.0
C280 C 0.08885 0.34853 0.61172 0.0
C281 C 0.10512 0.33505 0.60111 0.0
C282 C 0.07585 0.30474 0.58897 0.0
C283 C 0.09868 0.31341 0.58979 0.0
C284 C 0.0596 0.31884 0.59882 0.0
C285 C 0.06604 0.3404 0.61004 0.0
U286 U 0.12602 0.40513 0.63037 0.0
O287 O 0.11475 0.43863 0.64486 0.0
O288 O 0.13632 0.41761 0.66599 0.0
C289 C 0.12474 0.43634 0.66526 0.0
C290 C 0.0951 0.36997 0.62631 0.0
C291 C 0.11202 0.44229 0.68657 0.0
C292 C 0.08879 0.43128 0.71986 0.0
C293 C 0.09812 0.42565 0.69803 0.0
C294 C 0.10642 0.47043 0.71853 0.0
C295 C 0.09339 0.45358 0.73071 0.0
C296 C 0.11559 0.46484 0.69677 0.0
C297 C 0.18015 0.42283 0.59501 0.0
C298 C 0.21625 0.44269 0.60736 0.0
C299 C 0.2076 0.43597 0.5661 0.0
C300 C 0.18648 0.42532 0.57162 0.0
C301 C 0.22302 0.44435 0.58389 0.0
C302 C 0.19504 0.43208 0.61286 0.0
C303 C 0.15913 0.4085 0.60011 0.0
O304 O 0.11346 0.36972 0.63945 0.0
O305 O 0.09288 0.39019 0.61667 0.0
O306 O 0.13979 0.41807 0.59708 0.0
O307 O 0.15957 0.39582 0.6188 0.0
H308 H 0.12286 0.34092 0.60214 0.0
H309 H 0.11169 0.30306 0.58253 0.0
H310 H 0.04184 0.31307 0.59816 0.0
H311 H 0.05316 0.35047 0.61803 0.0
H312 H 0.07888 0.41786 0.72872 0.0
H313 H 0.09511 0.40811 0.69049 0.0
H314 H 0.10998 0.48788 0.7261 0.0
H315 H 0.12617 0.478 0.68824 0.0
H316 H 0.2275 0.44925 0.62152 0.0
H317 H 0.21222 0.43668 0.54787 0.0
H318 H 0.17538 0.41821 0.55753 0.0
H319 H 0.19057 0.43051 0.63107 0.0
O320 O 0.97895 0.02894 0.50428 0.0
Mn321 Mn 0.01093 0.01518 0.51131 0.0
O322 O 0.96194 1.00536 0.47667 0.0
Mn323 Mn 0.98783 0.99046 0.471 0.0
O324 O 0.04397 1.00229 0.51892 0.0
O325 O 0.02129 0.04835 0.5254 0.0
Mn326 Mn 0.03465 0.03833 0.55133 0.0
O327 O 0.99666 1.0025 0.54275 0.0
O328 O 0.06203 0.03049 0.54143 0.0
O329 O 0.02452 0.02775 0.47879 0.0
O330 O 1.00758 1.00456 0.45091 0.0
O331 O 0.02618 0.0666 0.56003 0.0
O332 O 0.02095 0.01639 0.57019 0.0
C333 C 0.99402 0.96069 0.48808 0.0
C334 C 0.96159 0.02248 0.4912 0.0
C335 C 0.06238 0.01173 0.52907 0.0
C336 C 0.01702 0.06625 0.53931 0.0
C337 C 1.00378 1.00347 0.56406 0.0
C338 C 0.02156 0.02133 0.45695 0.0
O339 O 1.00065 0.98157 0.49739 0.0
O340 O 0.98433 0.95958 0.46756 0.0
O341 O 0.50164 0.01982 0.97875 0.0
Mn342 Mn 0.51418 0.02322 0.01381 0.0
O343 O 0.50508 0.98302 0.96672 0.0
Mn344 Mn 0.5158 0.97355 0.99473 0.0
O345 O 0.5264 0.02774 0.04957 0.0
O346 O 0.52084 0.05828 1.00571 0.0
Mn347 Mn 0.51049 0.07161 0.03162 0.0
O348 O 0.4802 0.02886 0.02433 0.0
O349 O 0.52783 0.06618 0.05698 0.0
O350 O 0.54822 0.01531 1.00321 0.0
O351 O 0.54656 0.97603 0.99771 0.0
O352 O 0.51959 0.09646 0.01585 0.0
O353 O 0.47991 0.06652 0.03542 0.0
C354 C 0.49329 0.971 0.02372 0.0
C355 C 0.49952 1.00335 0.96296 0.0
C356 C 0.53122 0.04583 0.06334 0.0
C357 C 0.52499 0.08047 1.00073 0.0
C358 C 0.46975 0.04659 0.03204 0.0
C359 C 0.55793 0.99572 0.99916 0.0
O360 O 0.50812 0.98848 0.021 0.0
O361 O 0.49453 0.9544 1.00799 0.0
O362 O 0.53984 0.52969 0.5161 0.0
Mn363 Mn 0.50536 0.51718 0.51699 0.0
O364 O 0.5522 0.51762 0.48144 0.0
Mn365 Mn 0.52459 0.50647 0.46938 0.0
O366 O 0.47055 0.50498 0.51896 0.0
O367 O 0.51039 0.51516 0.55256 0.0
Mn368 Mn 0.48674 0.52807 0.56498 0.0
O369 O 0.4965 0.55243 0.52026 0.0
O370 O 0.46092 0.5102 0.55656 0.0
O371 O 0.51415 0.48143 0.5124 0.0
O372 O 0.518 0.47535 0.47347 0.0
O373 O 0.50275 0.52003 0.59019 0.0
O374 O 0.48745 0.55911 0.55776 0.0
C375 C 0.49999 0.5314 0.46303 0.0
C376 C 0.55569 0.52774 0.50122 0.0
C377 C 0.45628 0.50273 0.53578 0.0
C378 C 0.51631 0.51258 0.57443 0.0
C379 C 0.49091 0.56614 0.53725 0.0
C380 C 0.51637 0.46768 0.49408 0.0
O381 O 0.50021 0.51862 0.48145 0.0
O382 O 0.5148 0.52596 0.4477 0.0
O383 O 0.97317 0.50914 0.01109 0.0
Mn384 Mn 1.00839 0.52028 0.01515 0.0
O385 O 0.96914 0.49967 0.97356 0.0
Mn386 Mn 0.99146 0.52187 0.9686 0.0
O387 O 0.04346 0.53181 0.01819 0.0
O388 O 0.99917 0.52551 0.05101 0.0
Mn389 Mn 0.02766 0.52056 0.05983 0.0
O390 O 0.01615 0.4852 0.02116 0.0
O391 O 0.0478 0.54493 0.05433 0.0
O392 O 1.00057 0.55578 0.00928 0.0
O393 O 0.98465 0.55226 0.97383 0.0
O394 O 0.01547 0.52366 0.08732 0.0
O395 O 0.03712 0.49082 0.05364 0.0
C396 C 0.02071 0.51147 0.95675 0.0
C397 C 0.96109 0.50018 0.99373 0.0
C398 C 0.05517 0.54379 0.03397 0.0
C399 C 0.99802 0.52719 0.07432 0.0
C400 C 0.02928 0.47751 0.03689 0.0
C401 C 0.99027 0.56465 0.99195 0.0
O402 O 0.01784 0.51383 0.97978 0.0
O403 O 1.00528 0.51737 0.94219 0.0
H404 H 0.07127 0.08147 0.24864 0.0
H405 H 0.05959 0.0677 0.28688 0.0
H406 H 0.11354 0.11137 0.3202 0.0
H407 H 0.12551 0.12496 0.28194 0.0
H408 H 0.10981 0.07169 0.34186 0.0
H409 H 0.05563 0.12603 0.31812 0.0
H410 H 0.02725 0.1415 0.29186 0.0
H411 H 0.9858 0.07755 0.29553 0.0
H412 H 0.01409 0.06157 0.32152 0.0
H413 H 0.05818 0.05544 0.45682 0.0
H414 H 0.07523 0.07379 0.42206 0.0
H415 H 0.02744 0.03295 0.37729 0.0
H416 H 0.01064 0.01518 0.41081 0.0
H417 H 0.02957 0.07574 0.3638 0.0
H418 H 0.08306 0.01968 0.38365 0.0
H419 H 0.11081 1.0018 0.40883 0.0
H420 H 0.15247 0.06595 0.4116 0.0
H421 H 0.12478 0.08433 0.38671 0.0
C422 C 0.08067 0.08824 0.26407 0.0
C423 C 0.0993 0.10457 0.26198 0.0
C424 C 0.07391 0.08034 0.28607 0.0
C425 C 0.08528 0.08881 0.30679 0.0
C426 C 0.10432 0.10453 0.30469 0.0
C427 C 0.11122 0.11228 0.28265 0.0
C428 C 0.07708 0.0817 0.33055 0.0
C429 C 0.09231 0.07296 0.34674 0.0
C430 C 0.05417 0.08284 0.33713 0.0
C431 C 0.03708 0.09255 0.32163 0.0
C432 C 0.04053 0.11522 0.31322 0.0
C433 C 0.02445 0.12408 0.29838 0.0
C434 C 1.00476 0.1105 0.29199 0.0
C435 C 1.00107 0.08805 0.30047 0.0
C436 C 0.01712 0.07909 0.31526 0.0
C437 C 0.05136 0.05045 0.43956 0.0
C438 C 0.03299 0.03362 0.43698 0.0
C439 C 0.06117 0.06088 0.41963 0.0
C440 C 0.05268 0.0548 0.3968 0.0
C441 C 0.03437 0.03819 0.39447 0.0
C442 C 0.02479 0.02785 0.414 0.0
C443 C 0.06216 0.06534 0.37493 0.0
C444 C 0.04714 0.07476 0.35905 0.0
C445 C 0.08512 0.06447 0.36856 0.0
C446 C 0.1017 0.05349 0.3836 0.0
C447 C 0.09802 0.03005 0.38983 0.0
C448 C 0.11376 0.01981 0.40401 0.0
C449 C 0.13335 0.03275 0.41188 0.0
C450 C 0.13726 0.05596 0.40554 0.0
C451 C 0.12155 0.0663 0.39141 0.0
H452 H 0.14554 0.02478 0.4228 0.0
H453 H 0.99234 0.11739 0.28051 0.0
H454 H 0.45138 0.97339 0.74114 0.0
H455 H 0.46744 0.98709 0.7794 0.0
H456 H 0.42723 0.93285 0.81272 0.0
H457 H 0.41124 0.91901 0.77464 0.0
H458 H 0.42199 0.97845 0.83134 0.0
H459 H 0.48115 0.9285 0.81173 0.0
H460 H 0.51174 0.91317 0.78816 0.0
H461 H 0.54842 0.98024 0.79331 0.0
H462 H 0.51787 0.99609 0.81666 0.0
H463 H 0.46076 0.98139 0.9477 0.0
H464 H 0.44868 0.97383 0.90723 0.0
H465 H 0.50234 0.02194 0.88468 0.0
H466 H 0.51519 0.02866 0.92575 0.0
H467 H 0.50198 0.98342 0.85868 0.0
H468 H 0.44312 0.03298 0.87995 0.0
H469 H 0.41291 0.04728 0.90479 0.0
H470 H 0.37568 0.98069 0.89654 0.0
H471 H 0.40577 0.9659 0.87186 0.0
C472 C 0.44615 0.96422 0.7566 0.0
C473 C 0.4299 0.94516 0.75479 0.0
C474 C 0.45545 0.97199 0.77844 0.0
C475 C 0.44852 0.96104 0.79897 0.0
C476 C 0.43285 0.94159 0.79714 0.0
C477 C 0.42379 0.93361 0.77531 0.0
C478 C 0.45597 0.97101 0.8225 0.0
C479 C 0.43947 0.97937 0.83738 0.0
C480 C 0.47887 0.97294 0.83012 0.0
C481 C 0.49704 0.96359 0.81566 0.0
C482 C 0.49558 0.94008 0.80757 0.0
C483 C 0.51296 0.93127 0.79432 0.0
C484 C 0.53197 0.94575 0.78915 0.0
C485 C 0.53365 0.96906 0.79727 0.0
C486 C 0.51632 0.97797 0.81052 0.0
C487 C 0.46941 0.99113 0.9342 0.0
C488 C 0.48849 1.00613 0.93996 0.0
C489 C 0.46254 0.98672 0.91093 0.0
C490 C 0.47428 0.99754 0.89263 0.0
C491 C 0.49285 0.01345 0.89839 0.0
C492 C 0.49994 0.01768 0.92189 0.0
C493 C 0.46791 0.99071 0.86772 0.0
C494 C 0.48455 0.9829 0.85254 0.0
C495 C 0.44509 0.98932 0.85969 0.0
C496 C 0.42675 0.99832 0.87413 0.0
C497 C 0.42852 0.02137 0.8835 0.0
C498 C 0.41142 0.02956 0.89755 0.0
C499 C 0.3924 0.0149 0.90226 0.0
C500 C 0.39041 0.99203 0.89286 0.0
C501 C 0.40746 0.98376 0.87879 0.0
H502 H 0.3792 0.02126 0.91318 0.0
H503 H 0.54542 0.93888 0.77893 0.0
H504 H 0.5903 0.40776 0.74139 0.0
H505 H 0.58436 0.42327 0.70269 0.0
H506 H 0.58356 0.49288 0.7335 0.0
H507 H 0.58957 0.47734 0.77254 0.0
H508 H 0.54798 0.48222 0.70168 0.0
H509 H 0.6276 0.4808 0.70294 0.0
H510 H 0.66458 0.46457 0.70935 0.0
H511 H 0.64804 0.41068 0.65673 0.0
H512 H 0.61079 0.42642 0.65022 0.0
H513 H 0.55196 0.53725 0.59404 0.0
H514 H 0.57267 0.52336 0.62748 0.0
H515 H 0.54692 0.45284 0.61019 0.0
H516 H 0.52549 0.4669 0.57704 0.0
H517 H 0.59869 0.46711 0.6352 0.0
H518 H 0.51525 0.46697 0.64074 0.0
H519 H 0.4794 0.48569 0.63488 0.0
H520 H 0.50542 0.54585 0.67595 0.0
H521 H 0.54163 0.52762 0.68161 0.0
C522 C 0.58884 0.42638 0.73997 0.0
C523 C 0.59029 0.4413 0.76006 0.0
C524 C 0.58562 0.43525 0.71779 0.0
C525 C 0.58365 0.45926 0.71512 0.0
C526 C 0.58509 0.47429 0.73513 0.0
C527 C 0.58862 0.46543 0.75739 0.0
C528 C 0.57935 0.46824 0.69141 0.0
C529 C 0.55925 0.47915 0.68727 0.0
C530 C 0.59395 0.46421 0.67248 0.0
C531 C 0.61632 0.45467 0.67623 0.0
C532 C 0.63176 0.46537 0.69287 0.0
C533 C 0.65279 0.45629 0.69649 0.0
C534 C 0.65863 0.43658 0.68349 0.0
C535 C 0.64348 0.42594 0.6668 0.0
C536 C 0.62241 0.43496 0.66311 0.0
C537 C 0.55193 0.51858 0.59639 0.0
C538 C 0.53729 0.50312 0.58278 0.0
C539 C 0.56353 0.51071 0.61576 0.0
C540 C 0.56106 0.48715 0.6215 0.0
C541 C 0.54907 0.47111 0.60601 0.0
C542 C 0.5371 0.47909 0.5868 0.0
C543 C 0.5671 0.48036 0.64553 0.0
C544 C 0.58752 0.47009 0.6497 0.0
C545 C 0.55294 0.48516 0.6646 0.0
C546 C 0.53123 0.49612 0.66125 0.0
C547 C 0.51342 0.48432 0.64824 0.0
C548 C 0.49302 0.49481 0.64502 0.0
C549 C 0.49017 0.51699 0.65495 0.0
C550 C 0.50769 0.52871 0.66819 0.0
C551 C 0.52815 0.51831 0.67139 0.0
H552 H 0.47435 0.52507 0.65247 0.0
H553 H 0.67492 0.42957 0.68632 0.0
H554 H 0.93297 0.61374 0.26243 0.0
H555 H 0.93977 0.60066 0.22218 0.0
H556 H 0.93436 0.52897 0.2427 0.0
H557 H 0.92733 0.54206 0.28333 0.0
H558 H 0.97209 0.54016 0.21279 0.0
H559 H 0.89243 0.54576 0.21309 0.0
H560 H 0.85706 0.56439 0.22184 0.0
H561 H 0.87717 0.62127 0.1782 0.0
H562 H 0.91285 0.60311 0.16944 0.0
H563 H 0.97173 0.49546 0.09659 0.0
H564 H 0.95424 0.5037 0.13419 0.0
H565 H 0.9631 0.57753 0.12285 0.0
H566 H 0.98125 0.56925 0.0854 0.0
H567 H 0.92151 0.56223 0.14834 0.0
H568 H 1.00229 0.55707 0.15007 0.0
H569 H 0.038 0.53866 0.14246 0.0
H570 H 0.01582 0.48038 0.18336 0.0
H571 H 0.97973 0.49825 0.19082 0.0
C572 C 0.93329 0.59517 0.25847 0.0
C573 C 0.92962 0.57898 0.27621 0.0
C574 C 0.93709 0.58769 0.23536 0.0
C575 C 0.93751 0.5638 0.22925 0.0
C576 C 0.93411 0.5475 0.24692 0.0
C577 C 0.92994 0.55499 0.27011 0.0
C578 C 0.94135 0.55623 0.20433 0.0
C579 C 0.96078 0.54457 0.19876 0.0
C580 C 0.92691 0.56233 0.18585 0.0
C581 C 0.90537 0.57316 0.19074 0.0
C582 C 0.88937 0.56232 0.20547 0.0
C583 C 0.86927 0.57278 0.21042 0.0
C584 C 0.86489 0.59402 0.20061 0.0
C585 C 0.88059 0.60481 0.18578 0.0
C586 C 0.90075 0.59443 0.18079 0.0
C587 C 0.96866 0.51341 0.10138 0.0
C588 C 0.97742 0.53167 0.08762 0.0
C589 C 0.95905 0.51813 0.12318 0.0
C590 C 0.95766 0.54125 0.13163 0.0
C591 C 0.96397 0.55952 0.11676 0.0
C592 C 0.97396 0.55478 0.09506 0.0
C593 C 0.9523 0.54627 0.15678 0.0
C594 C 0.93267 0.55755 0.16238 0.0
C595 C 0.96654 0.53971 0.1753 0.0
C596 C 0.98814 0.52883 0.17069 0.0
C597 C 1.00488 0.54018 0.15718 0.0
C598 C 0.02522 0.52988 0.15295 0.0
C599 C 0.02914 0.50832 0.16234 0.0
C600 C 0.01273 0.49705 0.17603 0.0
C601 C 0.99232 0.50725 0.18025 0.0
H602 H 0.04492 0.5004 0.15909 0.0
H603 H 0.84932 0.60211 0.20448 0.0
H604 H 0.25575 0.08728 0.06183 0.0
H605 H 0.2916 0.07422 0.04686 0.0
H606 H 0.32548 0.09947 0.11091 0.0
H607 H 0.29019 0.11327 0.1255 0.0
H608 H 0.35103 0.11088 0.07642 0.0
H609 H 0.31007 0.03933 0.09668 0.0
H610 H 0.27857 0.00903 0.095 0.0
H611 H 0.28908 0.997 0.02152 0.0
H612 H 0.32044 0.0275 0.02269 0.0
H613 H 0.45334 0.05804 0.07429 0.0
H614 H 0.41451 0.06559 0.0841 0.0
H615 H 0.39222 0.04136 0.01482 0.0
H616 H 0.43147 0.03326 1.00509 0.0
H617 H 0.35996 0.02956 0.04745 0.0
H618 H 0.40244 0.09976 0.02799 0.0
H619 H 0.43454 0.12937 0.03027 0.0
H620 H 0.42116 0.14377 0.10278 0.0
H621 H 0.38921 0.11397 0.10105 0.0
C622 C 0.27086 0.09028 0.07267 0.0
C623 C 0.26975 0.10125 0.09508 0.0
C624 C 0.29141 0.0825 0.06416 0.0
C625 C 0.31148 0.08542 0.0778 0.0
C626 C 0.31043 0.09677 0.09993 0.0
C627 C 0.29 0.10453 0.1084 0.0
C628 C 0.33372 0.07719 0.06924 0.0
C629 C 0.3529 0.093 0.07033 0.0
C630 C 0.33641 0.05404 0.06049 0.0
C631 C 0.3174 0.03592 0.05971 0.0
C632 C 0.30551 0.0304 0.08011 0.0
C633 C 0.28771 0.01315 0.07926 0.0
C634 C 0.28177 1.00116 0.05815 0.0
C635 C 0.29365 1.00635 0.03785 0.0
C636 C 0.31144 0.02362 0.0386 0.0
C637 C 0.44008 0.05361 0.06134 0.0
C638 C 0.44553 0.0448 0.03898 0.0
C639 C 0.41783 0.05823 0.06688 0.0
C640 C 0.40028 0.0547 0.05008 0.0
C641 C 0.40537 0.04443 0.02813 0.0
C642 C 0.4278 0.03958 0.0226 0.0
C643 C 0.37722 0.06313 0.05523 0.0
C644 C 0.35797 0.04745 0.05342 0.0
C645 C 0.37439 0.08642 0.06337 0.0
C646 C 0.39352 0.10448 0.06443 0.0
C647 C 0.40643 0.10912 0.04447 0.0
C648 C 0.4246 0.12596 0.04566 0.0
C649 C 0.42991 0.13841 0.06667 0.0
C650 C 0.41704 0.1341 0.08652 0.0
C651 C 0.39889 0.11725 0.08544 0.0
H652 H 0.44398 0.15144 0.06755 0.0
H653 H 0.26801 0.98778 0.05753 0.0
H654 H 0.25819 0.95985 0.6 0.0
H655 H 0.22149 0.9734 0.58832 0.0
H656 H 0.20917 0.91209 0.54301 0.0
H657 H 0.24587 0.89862 0.55438 0.0
H658 H 0.19556 0.94885 0.52141 0.0
H659 H 0.18436 0.91853 0.5985 0.0
H660 H 0.19293 0.91571 0.64063 0.0
H661 H 0.18082 0.98818 0.65198 0.0
H662 H 0.1725 0.99152 0.60986 0.0
H663 H 0.07282 0.96675 0.51355 0.0
H664 H 0.10876 0.94821 0.52064 0.0
H665 H 0.13685 0.0119 0.55478 0.0
H666 H 0.10236 0.03056 0.5471 0.0
H667 H 0.14054 0.97039 0.58166 0.0
H668 H 0.15566 1.00286 0.50699 0.0
H669 H 0.1481 0.00886 0.46521 0.0
H670 H 0.15388 0.93573 0.44974 0.0
H671 H 0.16103 0.92922 0.49161 0.0
C672 C 0.24763 0.94917 0.58764 0.0
C673 C 0.2551 0.92808 0.57821 0.0
C674 C 0.22657 0.95695 0.58095 0.0
C675 C 0.21222 0.94364 0.56496 0.0
C676 C 0.2198 0.92275 0.55531 0.0
C677 C 0.24089 0.91507 0.56185 0.0
C678 C 0.18927 0.95129 0.55846 0.0
C679 C 0.18341 0.9531 0.53463 0.0
C680 C 0.17339 0.95742 0.57557 0.0
C681 C 0.17796 0.9553 0.60099 0.0
C682 C 0.18362 0.93388 0.60996 0.0
C683 C 0.18844 0.9322 0.63384 0.0
C684 C 0.18746 0.95176 0.64896 0.0
C685 C 0.18159 0.97304 0.64025 0.0
C686 C 0.1768 0.97483 0.61638 0.0
C687 C 0.08681 0.97687 0.52215 0.0
C688 C 0.08435 1.00015 0.52985 0.0
C689 C 0.10728 0.96623 0.52636 0.0
C690 C 0.12541 0.9786 0.53862 0.0
C691 C 0.1231 1.00187 0.54562 0.0
C692 C 0.10315 0.01254 0.54105 0.0
C693 C 0.14691 0.96781 0.54473 0.0
C694 C 0.15255 0.9656 0.56848 0.0
C695 C 0.16266 0.96166 0.52762 0.0
C696 C 0.15849 0.96547 0.50247 0.0
C697 C 0.15503 0.988 0.49473 0.0
C698 C 0.15088 0.99151 0.47102 0.0
C699 C 0.15041 0.97268 0.45483 0.0
C700 C 0.15417 0.9503 0.46232 0.0
C701 C 0.15826 0.94667 0.48604 0.0
H702 H 0.1472 0.97544 0.43648 0.0
H703 H 0.19122 0.95042 0.66743 0.0
H704 H 0.77138 0.46589 0.89996 0.0
H705 H 0.80854 0.47424 0.91842 0.0
H706 H 0.78238 0.45087 0.98419 0.0
H707 H 0.74483 0.44301 0.96593 0.0
H708 H 0.81074 0.49195 0.98921 0.0
H709 H 0.81315 0.41521 0.95088 0.0
H710 H 0.80875 0.38715 0.91718 0.0
H711 H 0.85708 0.42903 0.87885 0.0
H712 H 0.86155 0.45749 0.9122 0.0
H713 H 0.93272 0.47762 0.02588 0.0
H714 H 0.89147 0.46829 0.02025 0.0
H715 H 0.8928 0.50614 0.95642 0.0
H716 H 0.93282 0.51603 0.96216 0.0
H717 H 0.87621 0.45348 0.95588 0.0
H718 H 0.86934 0.5322 0.98639 0.0
H719 H 0.8748 0.56409 0.01632 0.0
H720 H 0.83579 0.52334 0.06481 0.0
H721 H 0.83065 0.49087 0.0353 0.0
C722 C 0.77339 0.46277 0.91842 0.0
C723 C 0.75504 0.45373 0.93143 0.0
C724 C 0.79474 0.46737 0.92892 0.0
C725 C 0.79835 0.46291 0.95265 0.0
C726 C 0.78002 0.45435 0.96584 0.0
C727 C 0.75861 0.44968 0.95532 0.0
C728 C 0.82138 0.46681 0.96341 0.0
C729 C 0.82496 0.48311 0.98227 0.0
C730 C 0.84011 0.4558 0.95399 0.0
C731 C 0.83759 0.43853 0.93402 0.0
C732 C 0.82275 0.41849 0.93522 0.0
C733 C 0.82025 0.40251 0.91618 0.0
C734 C 0.83261 0.40632 0.89588 0.0
C735 C 0.84752 0.42609 0.89459 0.0
C736 C 0.85007 0.44213 0.91357 0.0
C737 C 0.92398 0.48437 0.01106 0.0
C738 C 0.93608 0.49716 0.99426 0.0
C739 C 0.90053 0.47898 1.00778 0.0
C740 C 0.88923 0.4864 0.98776 0.0
C741 C 0.90118 0.50015 0.97187 0.0
C742 C 0.92414 0.50569 0.97521 0.0
C743 C 0.86551 0.47852 0.9816 0.0
C744 C 0.86184 0.46166 0.96334 0.0
C745 C 0.84689 0.48954 0.99105 0.0
C746 C 0.85005 0.50891 1.00884 0.0
C747 C 0.86227 0.52986 1.00357 0.0
C748 C 0.86522 0.54809 0.02041 0.0
C749 C 0.85573 0.54571 0.04249 0.0
C750 C 0.84322 0.52511 0.04774 0.0
C751 C 0.84033 0.50676 0.03098 0.0
H752 H 0.85798 0.55987 0.0555 0.0
H753 H 0.83064 0.39393 0.88116 0.0
H754 H 0.74368 0.57501 0.41942 0.0
H755 H 0.70656 0.56838 0.43693 0.0
H756 H 0.73825 0.55854 0.50385 0.0
H757 H 0.77573 0.56529 0.48637 0.0
H758 H 0.69907 0.52359 0.48799 0.0
H759 H 0.71825 0.60716 0.49974 0.0
H760 H 0.73134 0.64579 0.4856 0.0
H761 H 0.67658 0.64234 0.43533 0.0
H762 H 0.66335 0.60356 0.44897 0.0
H763 H 0.5877 0.51938 0.53513 0.0
H764 H 0.62866 0.52948 0.53262 0.0
H765 H 0.61659 0.5685 0.47091 0.0
H766 H 0.57625 0.55938 0.47415 0.0
H767 H 0.64905 0.58959 0.49122 0.0
H768 H 0.63207 0.50821 0.4712 0.0
H769 H 0.61815 0.46751 0.47763 0.0
H770 H 0.66629 0.46368 0.534 0.0
H771 H 0.6803 0.5045 0.52809 0.0
C772 C 0.74285 0.57125 0.43783 0.0
C773 C 0.76279 0.57069 0.45144 0.0
C774 C 0.72156 0.56751 0.44784 0.0
C775 C 0.71955 0.56294 0.47171 0.0
C776 C 0.73936 0.56197 0.48538 0.0
C777 C 0.76077 0.56603 0.4754 0.0
C778 C 0.69665 0.5602 0.48227 0.0
C779 C 0.68823 0.5381 0.48922 0.0
C780 C 0.68223 0.57889 0.48311 0.0
C781 C 0.68988 0.60244 0.47533 0.0
C782 C 0.70907 0.61461 0.48561 0.0
C783 C 0.7165 0.63653 0.47769 0.0
C784 C 0.70481 0.64651 0.45957 0.0
C785 C 0.68561 0.63461 0.44937 0.0
C786 C 0.67812 0.61268 0.45722 0.0
C787 C 0.59385 0.53096 0.52173 0.0
C788 C 0.57877 0.53889 0.50502 0.0
C789 C 0.61732 0.53635 0.51995 0.0
C790 C 0.62604 0.54939 0.5012 0.0
C791 C 0.61064 0.55848 0.48557 0.0
C792 C 0.58743 0.55334 0.48749 0.0
C793 C 0.65094 0.55273 0.49656 0.0
C794 C 0.65985 0.57504 0.49059 0.0
C795 C 0.66546 0.53396 0.49574 0.0
C796 C 0.65699 0.5095 0.49944 0.0
C797 C 0.63955 0.49875 0.4851 0.0
C798 C 0.63166 0.47566 0.48862 0.0
C799 C 0.64127 0.46305 0.50627 0.0
C800 C 0.65882 0.4735 0.52039 0.0
C801 C 0.66673 0.49661 0.51697 0.0
H802 H 0.63516 0.44517 0.50896 0.0
H803 H 0.71061 0.66346 0.45344 0.0
H804 H 0.13231 0.29694 0.08873 0.0
H805 H 0.11532 0.33249 0.07736 0.0
H806 H 0.04978 0.29535 0.07274 0.0
H807 H 0.06688 0.25924 0.08373 0.0
H808 H 0.05653 0.32512 0.03537 0.0
H809 H 0.06272 0.33245 0.11902 0.0
H810 H 0.08203 0.33193 0.15749 0.0
H811 H 0.12999 0.3865 0.13708 0.0
H812 H 0.11112 0.38715 0.09837 0.0
H813 H 1.00322 0.43596 0.02788 0.0
H814 H 0.01399 0.39619 0.03593 0.0
H815 H 0.08163 0.42381 0.05416 0.0
H816 H 0.07071 0.46315 0.047 0.0
H817 H 0.06932 0.39674 0.08612 0.0
H818 H 0.06567 0.38796 1.0019 0.0
H819 H 0.04748 0.38862 0.96287 0.0
H820 H 0.99606 0.33752 0.98338 0.0
H821 H 0.01384 0.33676 0.02264 0.0
C822 C 0.11429 0.29611 0.08515 0.0
C823 C 0.1011 0.27492 0.08715 0.0
C824 C 0.10451 0.31666 0.07878 0.0
C825 C 0.08114 0.3169 0.07426 0.0
C826 C 0.06784 0.2958 0.07609 0.0
C827 C 0.07764 0.27514 0.08262 0.0
C828 C 0.0709 0.33933 0.06804 0.0
C829 C 0.05903 0.3407 0.04665 0.0
C830 C 0.07432 0.35995 0.08241 0.0
C831 C 0.08559 0.35973 0.10574 0.0
C832 C 0.07747 0.34424 0.12268 0.0
C833 C 0.08832 0.34394 0.14454 0.0
C834 C 0.10725 0.35914 0.14971 0.0
C835 C 0.11533 0.37472 0.13305 0.0
C836 C 0.10454 0.37509 0.11116 0.0
C837 C 0.0205 0.4334 0.03305 0.0
C838 C 0.03609 0.45281 0.0367 0.0
C839 C 0.0267 0.41059 0.03775 0.0
C840 C 0.04875 0.40665 0.04582 0.0
C841 C 0.06447 0.42605 0.04829 0.0
C842 C 0.05823 0.44866 0.04397 0.0
C843 C 0.05552 0.3829 0.05302 0.0
C844 C 0.06669 0.38123 0.07476 0.0
C845 C 0.05157 0.36215 0.03886 0.0
C846 C 0.04094 0.36249 0.01527 0.0
C847 C 0.0504 0.37699 0.99813 0.0
C848 C 0.04018 0.37736 0.97596 0.0
C849 C 0.02059 0.36317 0.97067 0.0
C850 C 0.01122 0.34853 0.98752 0.0
C851 C 0.02137 0.3481 0.00972 0.0
H852 H 0.01269 0.36349 0.9535 0.0
H853 H 0.11564 0.35887 0.16663 0.0
H854 H 0.62835 0.25756 0.92828 0.0
H855 H 0.61361 0.21762 0.93484 0.0
H856 H 0.54583 0.24056 0.93693 0.0
H857 H 0.56059 0.28086 0.93047 0.0
H858 H 0.5547 0.21076 0.97281 0.0
H859 H 0.56073 0.21072 0.8901 0.0
H860 H 0.57918 0.21828 0.8525 0.0
H861 H 0.63039 0.17172 0.86942 0.0
H862 H 0.61241 0.16413 0.90731 0.0
H863 H 0.50101 0.09795 0.9662 0.0
H864 H 0.5148 0.13322 0.94679 0.0
H865 H 0.58295 0.12112 0.96785 0.0
H866 H 0.569 0.08623 0.98821 0.0
H867 H 0.57174 0.14521 0.91822 0.0
H868 H 0.5666 0.14963 1.00364 0.0
H869 H 0.54711 0.14298 0.04085 0.0
H870 H 0.49244 0.18249 0.01771 0.0
H871 H 0.51143 0.18894 0.9801 0.0
C872 C 0.6103 0.25418 0.93023 0.0
C873 C 0.59566 0.27245 0.9289 0.0
C874 C 0.60187 0.23126 0.93381 0.0
C875 C 0.57859 0.22598 0.9362 0.0
C876 C 0.56387 0.24418 0.93507 0.0
C877 C 0.57229 0.26717 0.93124 0.0
C878 C 0.56989 0.20144 0.9401 0.0
C879 C 0.55816 0.19652 0.96068 0.0
C880 C 0.57456 0.1827 0.92445 0.0
C881 C 0.58533 0.187 0.90162 0.0
C882 C 0.57602 0.20222 0.88588 0.0
C883 C 0.58637 0.20649 0.8645 0.0
C884 C 0.60597 0.19553 0.8586 0.0
C885 C 0.61521 0.18021 0.87403 0.0
C886 C 0.60493 0.17589 0.89545 0.0
C887 C 0.51911 0.10185 0.96533 0.0
C888 C 0.53393 0.08914 0.97857 0.0
C889 C 0.52692 0.12233 0.95458 0.0
C890 C 0.54984 0.13002 0.95626 0.0
C891 C 0.56518 0.11549 0.96639 0.0
C892 C 0.55724 0.09524 0.97764 0.0
C893 C 0.55695 0.15463 0.95104 0.0
C894 C 0.56826 0.15953 0.93024 0.0
C895 C 0.55177 0.1734 0.9664 0.0
C896 C 0.54022 0.16935 0.98888 0.0
C897 C 0.55025 0.15656 1.00632 0.0
C898 C 0.53934 0.15292 0.02753 0.0
C899 C 0.51849 0.1622 0.0316 0.0
C900 C 0.50854 0.17522 0.01449 0.0
C901 C 0.51936 0.17885 0.99321 0.0
H902 H 0.51009 0.1594 0.04804 0.0
H903 H 0.61397 0.19886 0.84204 0.0
H904 H 0.89953 0.76058 0.4701 0.0
H905 H 0.91524 0.79998 0.48067 0.0
H906 H 0.98165 0.7803 0.46168 0.0
H907 H 0.96596 0.74047 0.45123 0.0
H908 H 0.98254 0.80764 0.50351 0.0
H909 H 0.95432 0.81235 0.42554 0.0
H910 H 0.92639 0.80613 0.39319 0.0
H911 H 0.88068 0.84851 0.43035 0.0
H912 H 0.90825 0.85472 0.46311 0.0
H913 H 0.02569 0.92847 0.48599 0.0
H914 H 0.0158 0.88623 0.48518 0.0
H915 H 0.94979 0.89909 0.51121 0.0
H916 H 0.95994 0.94115 0.51274 0.0
H917 H 0.9504 0.87482 0.46552 0.0
H918 H 0.97922 0.86946 0.5438 0.0
H919 H 1.00789 0.87586 0.57544 0.0
H920 H 0.05361 0.83525 0.53622 0.0
H921 H 0.02527 0.82886 0.50418 0.0
C922 C 0.91753 0.76448 0.46833 0.0
C923 C 0.93144 0.74719 0.45983 0.0
C924 C 0.9265 0.78715 0.47428 0.0
C925 C 0.94967 0.79331 0.47192 0.0
C926 C 0.96373 0.77606 0.46371 0.0
C927 C 0.9547 0.75332 0.45753 0.0
C928 C 0.95881 0.81792 0.47752 0.0
C929 C 0.97573 0.82229 0.49494 0.0
C930 C 0.94981 0.83722 0.46666 0.0
C931 C 0.93328 0.83384 0.44688 0.0
C932 C 0.93825 0.82022 0.42689 0.0
C933 C 0.9225 0.81671 0.40847 0.0
C934 C 0.90175 0.82687 0.40974 0.0
C935 C 0.89675 0.84063 0.42941 0.0
C936 C 0.91245 0.84418 0.4479 0.0
C937 C 0.00969 0.92221 0.49314 0.0
C938 C 0.99386 0.93825 0.50005 0.0
C939 C 1.00382 0.89802 0.49218 0.0
C940 C 0.98188 0.8894 0.49777 0.0
C941 C 0.96678 0.90523 0.50671 0.0
C942 C 0.97282 0.92932 0.50811 0.0
C943 C 0.97387 0.86456 0.49175 0.0
C944 C 0.95721 0.86017 0.47409 0.0
C945 C 0.98324 0.84532 0.50224 0.0
C946 C 1.00022 0.84888 0.52151 0.0
C947 C 0.99546 0.86205 0.54184 0.0
C948 C 0.01163 0.86564 0.55986 0.0
C949 C 0.03259 0.85602 0.55781 0.0
C950 C 0.03738 0.84271 0.53777 0.0
C951 C 0.02126 0.83907 0.51969 0.0
H952 H 0.04509 0.85884 0.57178 0.0
H953 H 0.88956 0.82412 0.39547 0.0
H954 H 0.39643 0.7599 0.57123 0.0
H955 H 0.40834 0.72306 0.55423 0.0
H956 H 0.47633 0.74031 0.58 0.0
H957 H 0.46483 0.77761 0.59595 0.0
H958 H 0.47897 0.71916 0.53969 0.0
H959 H 0.43824 0.70306 0.60889 0.0
H960 H 0.40639 0.70353 0.6361 0.0
H961 H 0.36342 0.66513 0.58512 0.0
H962 H 0.39498 0.66475 0.55744 0.0
H963 H 0.51497 0.60367 0.55666 0.0
H964 H 0.50326 0.64382 0.56001 0.0
H965 H 0.44496 0.62432 0.51594 0.0
H966 H 0.45706 0.58409 0.51212 0.0
H967 H 0.43596 0.64631 0.56161 0.0
H968 H 0.48331 0.65899 0.49494 0.0
H969 H 0.51902 0.65638 0.47385 0.0
H970 H 0.55386 0.70017 0.527 0.0
H971 H 0.51847 0.70248 0.54886 0.0
C972 C 0.41401 0.7561 0.57292 0.0
C973 C 0.42955 0.77173 0.58531 0.0
C974 C 0.42078 0.73483 0.56338 0.0
C975 C 0.44319 0.72852 0.56619 0.0
C976 C 0.45892 0.74455 0.57766 0.0
C977 C 0.45221 0.76585 0.58705 0.0
C978 C 0.45008 0.70491 0.55817 0.0
C979 C 0.46955 0.70327 0.54457 0.0
C980 C 0.43792 0.68399 0.56442 0.0
C981 C 0.41888 0.68415 0.58098 0.0
C982 C 0.42195 0.6949 0.6034 0.0
C983 C 0.40396 0.69512 0.61892 0.0
C984 C 0.38287 0.68444 0.61231 0.0
C985 C 0.37976 0.67345 0.59019 0.0
C986 C 0.39768 0.67323 0.57457 0.0
C987 C 0.50017 0.60822 0.54692 0.0
C988 C 0.48722 0.59099 0.53365 0.0
C989 C 0.49336 0.63109 0.54901 0.0
C990 C 0.47321 0.63711 0.53826 0.0
C991 C 0.4606 0.62009 0.52433 0.0
C992 C 0.46767 0.59723 0.52188 0.0
C993 C 0.46467 0.66066 0.5431 0.0
C994 C 0.44503 0.66225 0.55632 0.0
C995 C 0.4771 0.68146 0.53717 0.0
C996 C 0.49823 0.68079 0.52362 0.0
C997 C 0.4986 0.66796 0.50222 0.0
C998 C 0.51879 0.66654 0.49011 0.0
C999 C 0.53869 0.67813 0.49903 0.0
C1000 C 0.53843 0.69121 0.5201 0.0
C1001 C 0.5183 0.69257 0.53236 0.0
H1002 H 0.55431 0.67698 0.48963 0.0
H1003 H 0.36897 0.68462 0.62436 0.0
H1004 H 0.96492 0.92502 0.76793 0.0
H1005 H 0.97649 0.93931 0.73002 0.0
H1006 H 0.90869 0.95875 0.71614 0.0
H1007 H 0.89669 0.94339 0.75375 0.0
H1008 H 0.92312 0.93808 0.67864 0.0
H1009 H 0.95574 1.00008 0.72917 0.0
H1010 H 0.97871 0.01872 0.76184 0.0
H1011 H 0.03832 0.99076 0.73341 0.0
H1012 H 0.01568 0.9717 0.70073 0.0
H1013 H 0.95837 1.00008 0.57501 0.0
H1014 H 0.94221 0.98682 0.61209 0.0
H1015 H 1.00742 0.96506 0.63359 0.0
H1016 H 0.02351 0.97885 0.59716 0.0
H1017 H 0.9921 0.98971 0.66738 0.0
H1018 H 0.95946 0.92573 0.61848 0.0
H1019 H 0.9369 0.9074 0.58536 0.0
H1020 H 0.87792 0.93926 0.61056 0.0
H1021 H 0.90022 0.95801 0.64368 0.0
C1022 C 0.95234 0.93222 0.75686 0.0
C1023 C 0.92971 0.93273 0.76408 0.0
C1024 C 0.95912 0.94075 0.73515 0.0
C1025 C 0.9436 0.95042 0.72 0.0
C1026 C 0.9211 0.95143 0.72735 0.0
C1027 C 0.91427 0.9428 0.74907 0.0
C1028 C 0.95063 0.95835 0.69617 0.0
C1029 C 0.93802 0.9497 0.67629 0.0
C1030 C 0.97035 0.97315 0.6927 0.0
C1031 C 0.98394 0.98426 0.7126 0.0
C1032 C 0.9737 0.99771 0.73 0.0
C1033 C 0.98668 1.0084 0.7485 0.0
C1034 C 0.00995 1.00588 0.74973 0.0
C1035 C 0.0203 0.99267 0.73246 0.0
C1036 C 1.0074 0.98194 0.71393 0.0
C1037 C 0.96902 0.99178 0.58736 0.0
C1038 C 0.99219 0.99033 0.58302 0.0
C1039 C 0.95981 0.9843 0.60869 0.0
C1040 C 0.97354 0.97493 0.62597 0.0
C1041 C 0.99639 0.97239 0.62089 0.0
C1042 C 1.00556 0.98006 0.59986 0.0
C1043 C 0.96487 0.96904 0.64986 0.0
C1044 C 0.97715 0.97815 0.66976 0.0
C1045 C 0.94493 0.95464 0.65332 0.0
C1046 C 0.93156 0.94347 0.63339 0.0
C1047 C 0.94173 0.92898 0.61684 0.0
C1048 C 0.92898 0.91848 0.5981 0.0
C1049 C 0.90601 0.92222 0.59582 0.0
C1050 C 0.89572 0.93642 0.61232 0.0
C1051 C 0.9084 0.94697 0.63109 0.0
H1052 H 0.89616 0.91406 0.5813 0.0
H1053 H 0.01997 0.01419 0.76404 0.0
H1054 H 0.61573 0.06939 0.27796 0.0
H1055 H 0.6034 0.04954 0.2408 0.0
H1056 H 0.56529 0.10836 0.22382 0.0
H1057 H 0.57752 0.12819 0.26066 0.0
H1058 H 0.5406 0.06948 0.21409 0.0
H1059 H 0.61703 0.09797 0.19865 0.0
H1060 H 0.65835 0.10204 0.20505 0.0
H1061 H 0.66184 0.02788 0.19458 0.0
H1062 H 0.62047 0.02336 0.18841 0.0
H1063 H 0.52954 0.08018 0.09662 0.0
H1064 H 0.54169 0.08138 0.13674 0.0
H1065 H 0.56182 0.01069 0.12948 0.0
H1066 H 0.54966 0.00926 0.08765 0.0
H1067 H 0.59436 0.04387 0.15421 0.0
H1068 H 0.51587 0.0196 0.16052 0.0
H1069 H 0.47525 0.02048 0.15094 0.0
H1070 H 0.47611 0.09186 0.17629 0.0
H1071 H 0.51677 0.09155 0.18572 0.0
C1072 C 0.60487 0.07818 0.26623 0.0
C1073 C 0.59757 0.10041 0.27249 0.0
C1074 C 0.59778 0.06676 0.24496 0.0
C1075 C 0.58338 0.07738 0.22933 0.0
C1076 C 0.57619 0.09959 0.23556 0.0
C1077 C 0.58319 0.11094 0.25675 0.0
C1078 C 0.57564 0.06571 0.20648 0.0
C1079 C 0.5524 0.06382 0.20106 0.0
C1080 C 0.59086 0.05763 0.18955 0.0
C1081 C 0.61565 0.06029 0.19341 0.0
C1082 C 0.62659 0.08251 0.19794 0.0
C1083 C 0.65002 0.08491 0.20148 0.0
C1084 C 0.6627 0.06522 0.20031 0.0
C1085 C 0.65199 0.04311 0.19555 0.0
C1086 C 0.62856 0.04062 0.19202 0.0
C1087 C 0.5366 0.06464 0.10308 0.0
C1088 C 0.53871 0.04457 0.08841 0.0
C1089 C 0.5434 0.06541 0.12641 0.0
C1090 C 0.55236 0.04609 0.13642 0.0
C1091 C 0.55476 0.02582 0.12215 0.0
C1092 C 0.54776 0.02497 0.09829 0.0
C1093 C 0.55942 0.04834 0.16166 0.0
C1094 C 0.58252 0.04867 0.16756 0.0
C1095 C 0.5441 0.05545 0.17895 0.0
C1096 C 0.51943 0.05551 0.17386 0.0
C1097 C 0.50742 0.0355 0.16401 0.0
C1098 C 0.48437 0.03591 0.15859 0.0
C1099 C 0.4731 0.05621 0.16302 0.0
C1100 C 0.48484 0.07613 0.17292 0.0
C1101 C 0.50788 0.07582 0.17836 0.0
H1102 H 0.45528 0.0565 0.15876 0.0
H1103 H 0.68084 0.06711 0.20303 0.0
H1104 H 0.4454 0.59269 0.26762 0.0
H1105 H 0.45419 0.57633 0.30565 0.0
H1106 H 0.40501 0.61821 0.33854 0.0
H1107 H 0.39594 0.63437 0.30068 0.0
H1108 H 0.45416 0.61856 0.35938 0.0
H1109 H 0.3889 0.56609 0.33003 0.0
H1110 H 0.37225 0.538 0.29988 0.0
H1111 H 0.42808 0.49478 0.30827 0.0
H1112 H 0.44518 0.52276 0.33822 0.0
H1113 H 0.4803 0.5738 0.46835 0.0
H1114 H 0.45722 0.59009 0.43772 0.0
H1115 H 0.45599 0.52366 0.39917 0.0
H1116 H 0.4741 0.50685 0.4316 0.0
H1117 H 0.42795 0.53852 0.38061 0.0
H1118 H 0.49915 0.58367 0.39653 0.0
H1119 H 0.52776 0.60994 0.41774 0.0
H1120 H 0.47942 0.66207 0.42595 0.0
H1121 H 0.45051 0.63605 0.40491 0.0
C1122 C 0.43644 0.59836 0.28297 0.0
C1123 C 0.4199 0.61476 0.28113 0.0
C1124 C 0.44144 0.58897 0.30463 0.0
C1125 C 0.43022 0.59607 0.32487 0.0
C1126 C 0.41382 0.61249 0.32311 0.0
C1127 C 0.40856 0.62158 0.30145 0.0
C1128 C 0.43571 0.58669 0.34803 0.0
C1129 C 0.44848 0.60106 0.36427 0.0
C1130 C 0.42917 0.56358 0.35382 0.0
C1131 C 0.41834 0.54657 0.3363 0.0
C1132 C 0.39766 0.55066 0.32537 0.0
C1133 C 0.38814 0.53474 0.30832 0.0
C1134 C 0.3991 0.51463 0.30215 0.0
C1135 C 0.41958 0.51035 0.31307 0.0
C1136 C 0.42917 0.5262 0.3301 0.0
C1137 C 0.4736 0.56248 0.45399 0.0
C1138 C 0.479 0.53904 0.45236 0.0
C1139 C 0.46122 0.57203 0.43581 0.0
C1140 C 0.4559 0.55889 0.41477 0.0
C1141 C 0.45952 0.53484 0.41458 0.0
C1142 C 0.47003 0.52498 0.43344 0.0
C1143 C 0.44815 0.56974 0.39248 0.0
C1144 C 0.43439 0.55589 0.37623 0.0
C1145 C 0.45566 0.59267 0.38583 0.0
C1146 C 0.47263 0.60781 0.39947 0.0
C1147 C 0.4946 0.60064 0.40308 0.0
C1148 C 0.51086 0.6155 0.41501 0.0
C1149 C 0.5054 0.63764 0.42319 0.0
C1150 C 0.48361 0.64491 0.41963 0.0
C1151 C 0.46729 0.63012 0.40772 0.0
H1152 H 0.51811 0.64922 0.43211 0.0
H1153 H 0.39172 0.50236 0.28892 0.0
H1154 H 0.05229 0.44256 0.75131 0.0
H1155 H 0.04176 0.45033 0.79218 0.0
H1156 H 0.10784 0.48413 0.80646 0.0
H1157 H 0.11844 0.47634 0.76601 0.0
H1158 H 0.0964 0.45312 0.83965 0.0
H1159 H 0.06172 0.51552 0.80103 0.0
H1160 H 0.03638 0.53325 0.77312 0.0
H1161 H 0.9789 0.49663 0.80298 0.0
H1162 H 1.00393 0.47839 0.83087 0.0
H1163 H 0.05802 0.53308 0.93847 0.0
H1164 H 0.07284 0.51973 0.90088 0.0
H1165 H 0.03686 0.45274 0.90776 0.0
H1166 H 0.02276 0.46577 0.94565 0.0
H1167 H 0.03198 0.49849 0.86454 0.0
H1168 H 0.0684 0.42984 0.8969 0.0
H1169 H 0.09374 0.41365 0.92593 0.0
H1170 H 0.1472 0.4636 0.90782 0.0
H1171 H 0.12194 0.48034 0.87899 0.0
C1172 C 0.06455 0.45167 0.76317 0.0
C1173 C 0.08621 0.45887 0.75527 0.0
C1174 C 0.05846 0.45624 0.78652 0.0
C1175 C 0.07399 0.46789 0.80251 0.0
C1176 C 0.09554 0.47512 0.79457 0.0
C1177 C 0.10152 0.47079 0.7713 0.0
C1178 C 0.06835 0.47197 0.8277 0.0
C1179 C 0.08227 0.46305 0.84496 0.0
C1180 C 0.04978 0.48469 0.83491 0.0
C1181 C 0.03475 0.49532 0.81784 0.0
C1182 C 0.04371 0.51101 0.80147 0.0
C1183 C 0.02939 0.52121 0.78569 0.0
C1184 C 1.00605 0.516 0.78622 0.0
C1185 C 0.99698 0.5006 0.80255 0.0
C1186 C 0.01123 0.49032 0.81834 0.0
C1187 C 0.05474 0.51491 0.93288 0.0
C1188 C 0.03962 0.50033 0.94541 0.0
C1189 C 0.06275 0.50747 0.91104 0.0
C1190 C 0.05586 0.48527 0.90137 0.0
C1191 C 0.0427 0.46983 0.91493 0.0
C1192 C 0.035 0.47717 0.93691 0.0
C1193 C 0.05995 0.4795 0.87618 0.0
C1194 C 0.04586 0.48828 0.85903 0.0
C1195 C 0.07812 0.46647 0.86896 0.0
C1196 C 0.09324 0.45654 0.88618 0.0
C1197 C 0.08547 0.43755 0.89938 0.0
C1198 C 0.09982 0.42823 0.91572 0.0
C1199 C 0.12204 0.43766 0.9188 0.0
C1200 C 0.12996 0.45638 0.90549 0.0
C1201 C 0.11564 0.4658 0.88917 0.0
H1202 H 0.13315 0.4304 0.93144 0.0
H1203 H 0.99499 0.52396 0.77402 0.0
H1204 H 0.74046 0.91078 0.93129 0.0
H1205 H 0.70507 0.92459 0.94591 0.0
H1206 H 0.73708 0.99362 0.95815 0.0
H1207 H 0.77293 0.97966 0.94473 0.0
H1208 H 0.70782 0.98485 0.99233 0.0
H1209 H 0.70302 0.97865 0.90834 0.0
H1210 H 0.7056 0.95857 0.8697 0.0
H1211 H 0.65428 0.90676 0.88886 0.0
H1212 H 0.65162 0.92635 0.92774 0.0
H1213 H 0.59333 0.03124 0.99722 0.0
H1214 H 0.63319 0.02602 0.98668 0.0
H1215 H 0.61828 0.95164 0.97926 0.0
H1216 H 0.57981 0.95628 0.98992 0.0
H1217 H 0.64017 0.96901 0.94081 0.0
H1218 H 0.64687 0.97248 0.02501 0.0
H1219 H 0.64452 0.99079 0.06448 0.0
H1220 H 0.69172 0.04662 0.04545 0.0
H1221 H 0.69408 0.02879 1.0057 0.0
C1222 C 0.74025 0.92881 0.93746 0.0
C1223 C 0.75985 0.94403 0.9364 0.0
C1224 C 0.71975 0.93683 0.94561 0.0
C1225 C 0.71798 0.96042 0.9527 0.0
C1226 C 0.7377 0.97543 0.95262 0.0
C1227 C 0.75827 0.96739 0.94461 0.0
C1228 C 0.69548 0.96948 0.95925 0.0
C1229 C 0.69314 0.98171 0.98083 0.0
C1230 C 0.67602 0.96541 0.94454 0.0
C1231 C 0.67722 0.9539 0.92099 0.0
C1232 C 0.69235 0.96293 0.90433 0.0
C1233 C 0.69383 0.95163 0.8824 0.0
C1234 C 0.68014 0.93138 0.87684 0.0
C1235 C 0.66488 0.92244 0.89319 0.0
C1236 C 0.66336 0.93365 0.91517 0.0
C1237 C 0.59863 0.01381 0.99354 0.0
C1238 C 0.58286 0.99435 0.99438 0.0
C1239 C 0.62146 0.0108 0.98748 0.0
C1240 C 0.62884 0.98834 0.98188 0.0
C1241 C 0.6132 0.96914 0.98318 0.0
C1242 C 0.59089 0.97201 0.98943 0.0
C1243 C 0.65239 0.98397 0.97402 0.0
C1244 C 0.65493 0.97254 0.95213 0.0
C1245 C 0.67189 0.98869 0.98849 0.0
C1246 C 0.67037 0.99951 0.01228 0.0
C1247 C 0.65653 0.98881 0.02915 0.0
C1248 C 0.65525 0.99907 0.05159 0.0
C1249 C 0.66789 0.01992 0.05744 0.0
C1250 C 0.68188 0.03051 0.04087 0.0
C1251 C 0.6832 0.02034 0.01838 0.0
H1252 H 0.66689 0.02782 0.07483 0.0
H1253 H 0.68133 0.92264 0.85986 0.0
H1254 H 0.7855 0.14018 0.4445 0.0
H1255 H 0.82158 0.12938 0.46089 0.0
H1256 H 0.79779 0.0567 0.45649 0.0
H1257 H 0.76142 0.06741 0.44119 0.0
H1258 H 0.82136 0.06428 0.49512 0.0
H1259 H 0.83338 0.08238 0.41479 0.0
H1260 H 0.83264 0.10699 0.3803 0.0
H1261 H 0.87737 0.15903 0.41575 0.0
H1262 H 0.87813 0.13483 0.4506 0.0
H1263 H 0.91936 1.0033 0.48238 0.0
H1264 H 0.88448 0.02274 0.47766 0.0
H1265 H 0.91969 0.08912 0.49602 0.0
H1266 H 0.95527 0.06945 0.50077 0.0
H1267 H 0.89189 0.08976 0.45493 0.0
H1268 H 0.88312 0.0657 0.53395 0.0
H1269 H 0.88402 0.03754 0.56552 0.0
H1270 H 0.83295 0.99293 0.52934 0.0
H1271 H 0.83196 0.02066 0.49738 0.0
C1272 C 0.78775 0.12192 0.44738 0.0
C1273 C 0.77046 0.10469 0.44118 0.0
C1274 C 0.80857 0.11572 0.45655 0.0
C1275 C 0.81274 0.09212 0.45959 0.0
C1276 C 0.7952 0.07501 0.45425 0.0
C1277 C 0.7744 0.08118 0.4452 0.0
C1278 C 0.83547 0.08504 0.46756 0.0
C1279 C 0.83673 0.06986 0.48626 0.0
C1280 C 0.85577 0.09249 0.45638 0.0
C1281 C 0.8556 0.10693 0.43538 0.0
C1282 C 0.84294 0.09914 0.41528 0.0
C1283 C 0.84253 0.113 0.39566 0.0
C1284 C 0.85489 0.13459 0.39586 0.0
C1285 C 0.86777 0.14232 0.41565 0.0
C1286 C 0.8682 0.12854 0.43533 0.0
C1287 C 0.91977 0.02202 0.48576 0.0
C1288 C 0.9402 0.03479 0.49201 0.0
C1289 C 0.89969 0.03314 0.48308 0.0
C1290 C 0.89928 0.05742 0.48658 0.0
C1291 C 0.91954 0.07034 0.49327 0.0
C1292 C 0.93981 0.05908 0.4962 0.0
C1293 C 0.87767 0.06885 0.48228 0.0
C1294 C 0.87658 0.08468 0.46416 0.0
C1295 C 0.85745 0.06165 0.4937 0.0
C1296 C 0.85752 0.04525 0.51322 0.0
C1297 C 0.87213 0.04985 0.53269 0.0
C1298 C 0.87266 0.03396 0.55065 0.0
C1299 C 0.85856 0.01345 0.54943 0.0
C1300 C 0.84384 0.00883 0.53027 0.0
C1301 C 0.84326 0.02466 0.51225 0.0
H1302 H 0.85904 1.00115 0.56333 0.0
H1303 H 0.85454 0.14531 0.38066 0.0
H1304 H 0.24071 0.58257 0.1328 0.0
H1305 H 0.20599 0.5709 0.11081 0.0
H1306 H 0.22537 0.61885 0.05716 0.0
H1307 H 0.26057 0.63029 0.07878 0.0
H1308 H 0.17952 0.62055 0.07126 0.0
H1309 H 0.23078 0.56231 0.04657 0.0
H1310 H 0.25791 0.53245 0.05389 0.0
H1311 H 0.20745 0.49236 0.09126 0.0
H1312 H 0.18011 0.52212 0.08443 0.0
H1313 H 0.0796 0.5772 0.00914 0.0
H1314 H 0.11999 0.58925 0.01554 0.0
H1315 H 0.12548 0.53367 0.06399 0.0
H1316 H 0.08616 0.52102 0.05642 0.0
H1317 H 0.16233 0.53782 0.04541 0.0
H1318 H 0.11475 0.59479 0.0797 0.0
H1319 H 0.08628 0.6243 0.07965 0.0
H1320 H 0.1269 0.6657 0.03299 0.0
H1321 H 0.1555 0.63628 0.03258 0.0
C1322 C 0.23782 0.59047 0.11618 0.0
C1323 C 0.25367 0.60725 0.10752 0.0
C1324 C 0.21786 0.58383 0.10367 0.0
C1325 C 0.21318 0.59379 0.08219 0.0
C1326 C 0.22864 0.61091 0.07368 0.0
C1327 C 0.24873 0.6175 0.08614 0.0
C1328 C 0.1921 0.58624 0.06877 0.0
C1329 C 0.17587 0.60255 0.06517 0.0
C1330 C 0.18712 0.56265 0.06142 0.0
C1331 C 0.20343 0.5445 0.06505 0.0
C1332 C 0.2255 0.54717 0.05642 0.0
C1333 C 0.24091 0.53026 0.06048 0.0
C1334 C 0.23441 0.51053 0.07305 0.0
C1335 C 0.21246 0.50764 0.08152 0.0
C1336 C 0.19699 0.5245 0.07752 0.0
C1337 C 0.08981 0.56713 0.02038 0.0
C1338 C 0.07989 0.54813 0.03219 0.0
C1339 C 0.11277 0.57422 0.0244 0.0
C1340 C 0.12586 0.56279 0.04078 0.0
C1341 C 0.11605 0.54291 0.05129 0.0
C1342 C 0.09348 0.53563 0.04695 0.0
C1343 C 0.14912 0.57193 0.04855 0.0
C1344 C 0.16594 0.55594 0.05106 0.0
C1345 C 0.15429 0.59563 0.05578 0.0
C1346 C 0.13707 0.61321 0.05584 0.0
C1347 C 0.1175 0.6101 0.06929 0.0
C1348 C 0.10137 0.62682 0.06937 0.0
C1349 C 0.10474 0.64682 0.05625 0.0
C1350 C 0.12428 0.65017 0.04308 0.0
C1351 C 0.14045 0.63349 0.04291 0.0
H1352 H 0.09223 0.65975 0.05635 0.0
H1353 H 0.24637 0.49748 0.0762 0.0
H1354 H 0.23663 0.47274 0.54803 0.0
H1355 H 0.27527 0.48443 0.53667 0.0
H1356 H 0.30137 0.44735 0.59446 0.0
H1357 H 0.26288 0.43597 0.60608 0.0
H1358 H 0.32601 0.48601 0.59059 0.0
H1359 H 0.29803 0.42493 0.53529 0.0
H1360 H 0.27124 0.40688 0.50548 0.0
H1361 H 0.28495 0.46482 0.46111 0.0
H1362 H 0.3116 0.48338 0.49083 0.0
H1363 H 0.43622 0.46771 0.55971 0.0
H1364 H 0.39567 0.45917 0.56411 0.0
H1365 H 0.38219 0.50721 0.51008 0.0
H1366 H 0.42317 0.51573 0.50552 0.0
H1367 H 0.35055 0.46737 0.50982 0.0
H1368 H 0.38138 0.52652 0.56434 0.0
H1369 H 0.40813 0.54401 0.59446 0.0
H1370 H 0.38889 0.48913 0.64081 0.0
H1371 H 0.36232 0.47105 0.6108 0.0
C1372 C 0.2506 0.4671 0.55836 0.0
C1373 C 0.24652 0.45324 0.57793 0.0
C1374 C 0.27276 0.47377 0.55179 0.0
C1375 C 0.29146 0.46641 0.56435 0.0
C1376 C 0.28738 0.45327 0.58435 0.0
C1377 C 0.26526 0.4468 0.59106 0.0
C1378 C 0.31525 0.47184 0.55658 0.0
C1379 C 0.33133 0.48169 0.57298 0.0
C1380 C 0.32233 0.46695 0.53338 0.0
C1381 C 0.30663 0.45563 0.51536 0.0
C1382 C 0.29524 0.43387 0.51922 0.0
C1383 C 0.28008 0.42355 0.50235 0.0
C1384 C 0.27635 0.43472 0.48144 0.0
C1385 C 0.28783 0.4562 0.47733 0.0
C1386 C 0.30297 0.46663 0.49417 0.0
C1387 C 0.42465 0.47576 0.54808 0.0
C1388 C 0.43292 0.49217 0.53205 0.0
C1389 C 0.40142 0.47108 0.55083 0.0
C1390 C 0.38577 0.48291 0.53783 0.0
C1391 C 0.3939 0.49792 0.5204 0.0
C1392 C 0.41734 0.50258 0.51758 0.0
C1393 C 0.36128 0.48089 0.54404 0.0
C1394 C 0.34513 0.47179 0.52737 0.0
C1395 C 0.3541 0.48639 0.56704 0.0
C1396 C 0.37 0.4973 0.58521 0.0
C1397 C 0.38299 0.51806 0.58087 0.0
C1398 C 0.3981 0.5281 0.59794 0.0
C1399 C 0.40025 0.51766 0.61951 0.0
C1400 C 0.38724 0.49718 0.62408 0.0
C1401 C 0.37214 0.48704 0.60704 0.0
H1402 H 0.41196 0.52545 0.6327 0.0
H1403 H 0.2646 0.42671 0.4684 0.0
H1404 H 0.94808 0.78681 0.97051 0.0
H1405 H 0.9629 0.75053 0.98374 0.0
H1406 H 0.92634 0.71195 0.92761 0.0
H1407 H 0.9111 0.74796 0.9146 0.0
H1408 H 0.91913 0.69127 0.96802 0.0
H1409 H 0.98467 0.72182 0.92806 0.0
H1410 H 0.01603 0.75031 0.91915 0.0
H1411 H 0.04193 0.74734 0.98945 0.0
H1412 H 0.01053 0.71905 0.99888 0.0
H1413 H 0.96201 0.58265 0.96069 0.0
H1414 H 0.95289 0.62232 0.95565 0.0
H1415 H 0.99391 0.64479 0.01614 0.0
H1416 H 1.00422 0.604 0.021 0.0
H1417 H 0.99972 0.6757 0.97998 0.0
H1418 H 0.93496 0.64177 0.0183 0.0
H1419 H 0.90396 0.61218 0.02538 0.0
H1420 H 0.8766 0.62117 0.95657 0.0
H1421 H 0.90758 0.65055 0.94893 0.0
C1422 C 0.94317 0.77063 0.96091 0.0
C1423 C 0.92818 0.77054 0.94146 0.0
C1424 C 0.95189 0.74984 0.96841 0.0
C1425 C 0.94587 0.72828 0.95673 0.0
C1426 C 0.93132 0.72823 0.93703 0.0
C1427 C 0.92271 0.74899 0.92945 0.0
C1428 C 0.9534 0.7056 0.96571 0.0
C1429 C 0.93679 0.68789 0.97044 0.0
C1430 C 0.97642 0.70122 0.96979 0.0
C1431 C 0.99505 0.71857 0.96428 0.0
C1432 C 0.99689 0.72746 0.94171 0.0
C1433 C 0.01472 0.74352 0.93654 0.0
C1434 C 0.03091 0.7507 0.95375 0.0
C1435 C 0.02933 0.74181 0.97616 0.0
C1436 C 0.01153 0.72576 0.98142 0.0
C1437 C 0.96931 0.59574 0.97319 0.0
C1438 C 0.98403 0.58969 0.99137 0.0
C1439 C 0.9638 0.6187 0.97027 0.0
C1440 C 0.97222 0.6368 0.98568 0.0
C1441 C 0.98698 0.63116 1.00402 0.0
C1442 C 0.99276 0.60779 1.00692 0.0
C1443 C 0.9654 0.66125 0.98179 0.0
C1444 C 0.98207 0.67926 0.97796 0.0
C1445 C 0.94237 0.666 0.97843 0.0
C1446 C 0.92366 0.64834 0.98303 0.0
C1447 C 0.9224 0.63735 1.00463 0.0
C1448 C 0.90483 0.62061 1.00874 0.0
C1449 C 0.88833 0.61481 0.99143 0.0
C1450 C 0.88938 0.62571 0.96997 0.0
C1451 C 0.90692 0.64243 0.96576 0.0
H1452 H 0.87471 0.6019 0.99465 0.0
H1453 H 0.04472 0.7631 0.9497 0.0
H1454 H 0.44161 0.77155 0.0831 0.0
H1455 H 0.45744 0.81065 0.07322 0.0
H1456 H 0.41757 0.84162 0.127 0.0
H1457 H 0.40215 0.80266 0.13729 0.0
H1458 H 0.4162 0.85902 0.07529 0.0
H1459 H 0.46792 0.8402 0.14049 0.0
H1460 H 0.49574 0.81447 0.15639 0.0
H1461 H 0.53678 0.82435 0.09581 0.0
H1462 H 0.50907 0.84988 0.07943 0.0
H1463 H 0.45374 0.97198 0.04847 0.0
H1464 H 0.44047 0.93998 0.0731 0.0
H1465 H 0.50645 0.91213 0.06876 0.0
H1466 H 0.52036 0.94635 0.04915 0.0
H1467 H 0.49313 0.89145 0.09808 0.0
H1468 H 0.44951 0.89932 0.02729 0.0
H1469 H 0.42411 0.91674 0.99912 0.0
H1470 H 0.37243 0.91847 0.05089 0.0
H1471 H 0.39759 0.90123 0.07939 0.0
C1472 C 0.43639 0.78672 0.0929 0.0
C1473 C 0.42074 0.7841 0.11103 0.0
C1474 C 0.44544 0.80899 0.08727 0.0
C1475 C 0.43866 0.82899 0.09941 0.0
C1476 C 0.42305 0.82639 0.11748 0.0
C1477 C 0.41436 0.80415 0.12342 0.0
C1478 C 0.44727 0.85275 0.09292 0.0
C1479 C 0.43298 0.86638 0.0803 0.0
C1480 C 0.46952 0.86166 0.09834 0.0
C1481 C 0.48638 0.84687 0.10872 0.0
C1482 C 0.48282 0.8368 0.13053 0.0
C1483 C 0.49859 0.82226 0.13963 0.0
C1484 C 0.518 0.81777 0.12711 0.0
C1485 C 0.52175 0.82786 0.1055 0.0
C1486 C 0.50605 0.84239 0.09633 0.0
C1487 C 0.46568 0.95988 0.05444 0.0
C1488 C 0.4881 0.9617 0.04688 0.0
C1489 C 0.45786 0.94081 0.06763 0.0
C1490 C 0.47172 0.9221 0.07151 0.0
C1491 C 0.49481 0.92561 0.06619 0.0
C1492 C 0.50301 0.94558 0.05497 0.0
C1493 C 0.46237 0.89848 0.0793 0.0
C1494 C 0.4764 0.88462 0.09248 0.0
C1495 C 0.44047 0.8885 0.07247 0.0
C1496 C 0.42553 0.89934 0.05555 0.0
C1497 C 0.43278 0.90359 0.03269 0.0
C1498 C 0.41843 0.9134 0.01667 0.0
C1499 C 0.39671 0.9188 0.02325 0.0
C1500 C 0.38928 0.91436 0.04584 0.0
C1501 C 0.40357 0.90457 0.06193 0.0
H1502 H 0.38561 0.92637 0.01081 0.0
H1503 H 0.53016 0.80648 0.13417 0.0
H1504 H 0.04486 0.27263 0.60636 0.0
H1505 H 0.0339 0.23322 0.59129 0.0
H1506 H 0.08061 0.24194 0.53471 0.0
H1507 H 0.09136 0.28195 0.54946 0.0
H1508 H 0.041 0.21855 0.51908 0.0
H1509 H 0.09463 0.21021 0.57942 0.0
H1510 H 0.11302 0.21671 0.61825 0.0
H1511 H 0.05404 0.18578 0.65072 0.0
H1512 H 0.03513 0.17942 0.61208 0.0
H1513 H 0.04087 0.0895 0.5056 0.0
H1514 H 0.04975 0.13199 0.50768 0.0
H1515 H 0.99828 0.13947 0.55932 0.0
H1516 H 0.98917 0.09731 0.55697 0.0
H1517 H 0.04433 0.15421 0.57455 0.0
H1518 H 0.99107 0.16462 0.51105 0.0
H1519 H 0.97603 0.15679 0.4709 0.0
H1520 H 0.03958 0.18175 0.44293 0.0
H1521 H 0.0551 0.18947 0.48296 0.0
C1522 C 0.05263 0.26641 0.5905 0.0
C1523 C 0.06901 0.28066 0.57916 0.0
C1524 C 0.04646 0.24368 0.58199 0.0
C1525 C 0.05654 0.23437 0.56194 0.0
C1526 C 0.07258 0.24863 0.55022 0.0
C1527 C 0.07886 0.27146 0.55881 0.0
C1528 C 0.05064 0.20952 0.55396 0.0
C1529 C 0.04204 0.20446 0.53113 0.0
C1530 C 0.05206 0.19093 0.5695 0.0
C1531 C 0.06337 0.19452 0.59284 0.0
C1532 C 0.0855 0.20495 0.59485 0.0
C1533 C 0.09604 0.20859 0.61682 0.0
C1534 C 0.08469 0.20171 0.63695 0.0
C1535 C 0.0628 0.19112 0.63511 0.0
C1536 C 0.05217 0.18747 0.61317 0.0
C1537 C 0.03045 0.10037 0.51621 0.0
C1538 C 0.01409 0.09002 0.53091 0.0
C1539 C 0.03584 0.12466 0.51775 0.0
C1540 C 0.02497 0.13891 0.53401 0.0
C1541 C 1.00703 0.12887 0.54678 0.0
C1542 C 1.00152 0.10476 0.54508 0.0
C1543 C 0.03392 0.16341 0.54002 0.0
C1544 C 0.04332 0.16832 0.56251 0.0
C1545 C 0.03372 0.18164 0.52399 0.0
C1546 C 0.0243 0.17742 0.49997 0.0
C1547 C 1.00189 0.16829 0.49633 0.0
C1548 C 0.99326 0.16391 0.4736 0.0
C1549 C 1.00686 0.16872 0.45437 0.0
C1550 C 0.02908 0.17802 0.45784 0.0
C1551 C 0.03778 0.18243 0.48055 0.0
H1552 H 1.00016 0.16528 0.43679 0.0
H1553 H 0.09287 0.20455 0.65395 0.0
H1554 H 0.58762 0.27583 0.41777 0.0
H1555 H 0.56817 0.31048 0.42959 0.0
H1556 H 0.59411 0.30628 0.50007 0.0
H1557 H 0.61263 0.27093 0.4887 0.0
H1558 H 0.55294 0.31949 0.5024 0.0
H1559 H 0.6181 0.34516 0.45993 0.0
H1560 H 0.64438 0.34664 0.42691 0.0
H1561 H 0.59165 0.36812 0.38177 0.0
H1562 H 0.56494 0.36643 0.41446 0.0
H1563 H 0.53967 0.44514 0.52808 0.0
H1564 H 0.55408 0.40584 0.52349 0.0
H1565 H 0.51699 0.39465 0.45823 0.0
H1566 H 0.5023 0.43317 0.46292 0.0
H1567 H 0.56523 0.3901 0.45539 0.0
H1568 H 0.50008 0.36305 0.49917 0.0
H1569 H 0.47541 0.36362 0.53351 0.0
H1570 H 0.5309 0.34724 0.5778 0.0
H1571 H 0.55599 0.34686 0.54372 0.0
C1572 C 0.58894 0.28198 0.43589 0.0
C1573 C 0.60202 0.27053 0.45215 0.0
C1574 C 0.57797 0.30206 0.4426 0.0
C1575 C 0.57999 0.31148 0.46568 0.0
C1576 C 0.59236 0.29962 0.48213 0.0
C1577 C 0.6032 0.27946 0.47548 0.0
C1578 C 0.56979 0.33396 0.47247 0.0
C1579 C 0.55591 0.33496 0.49223 0.0
C1580 C 0.57344 0.35435 0.45931 0.0
C1581 C 0.58946 0.35543 0.4396 0.0
C1582 C 0.61206 0.35003 0.44292 0.0
C1583 C 0.62704 0.35093 0.42427 0.0
C1584 C 0.61967 0.35741 0.40224 0.0
C1585 C 0.59732 0.36306 0.39884 0.0
C1586 C 0.58225 0.36215 0.41743 0.0
C1587 C 0.53391 0.4339 0.51328 0.0
C1588 C 0.51989 0.44234 0.49584 0.0
C1589 C 0.54234 0.41156 0.51051 0.0
C1590 C 0.5369 0.39745 0.49027 0.0
C1591 C 0.52165 0.40527 0.47382 0.0
C1592 C 0.51314 0.42728 0.47665 0.0
C1593 C 0.54824 0.37542 0.48499 0.0
C1594 C 0.56239 0.37458 0.46553 0.0
C1595 C 0.54506 0.35538 0.49857 0.0
C1596 C 0.52995 0.35514 0.51896 0.0
C1597 C 0.50706 0.35972 0.51626 0.0
C1598 C 0.49299 0.35998 0.53567 0.0
C1599 C 0.5016 0.35553 0.55784 0.0
C1600 C 0.52427 0.35071 0.56062 0.0
C1601 C 0.53841 0.35044 0.54126 0.0
H1602 H 0.49069 0.35577 0.57285 0.0
H1603 H 0.6313 0.35811 0.38783 0.0
loop_
_geom_bond_atom_site_label_1
_geom_bond_atom_site_label_2
_geom_bond_distance
_geom_bond_site_symmetry_2
_ccdc_geom_bond_type
C0 C1 1.264 . S
C0 C5 1.479 . S
C0 C10 1.465 . S
C1 C0 1.264 . S
C1 C3 1.339 . S
C1 H28 0.931 . S
C2 C3 1.395 . S
C2 C4 1.320 . S
C3 C1 1.339 . S
C3 C2 1.395 . S
C3 H29 0.929 . S
C4 C2 1.320 . S
C4 C5 1.405 . S
C4 H30 0.930 . S
C5 C0 1.479 . S
C5 C4 1.405 . S
C5 H31 0.931 . S
U6 O7 2.454 . S
U6 O8 2.458 . S
U6 C9 2.984 . S
U6 C10 2.847 . S
U6 C23 2.882 . S
U6 O24 2.441 . S
U6 O25 2.420 . S
U6 O26 2.455 . S
U6 O27 2.449 . S
O7 U6 2.454 . S
O7 C9 1.353 . S
O8 U6 2.458 . S
O8 C9 1.286 . S
C9 U6 2.984 . S
C9 O7 1.353 . S
C9 O8 1.286 . S
C9 C11 1.363 . S
C10 C0 1.465 . S
C10 U6 2.847 . S
C10 O24 1.249 . S
C10 O25 1.202 . S
C11 C9 1.363 . S
C11 C13 1.408 . S
C11 C16 1.342 . S
C12 C13 1.310 . S
C12 C15 1.461 . S
C12 H32 0.932 . S
C13 C11 1.408 . S
C13 C12 1.310 . S
C13 H33 0.930 . S
C14 C15 1.474 . S
C14 C16 1.285 . S
C14 H34 0.929 . S
C15 C12 1.461 . S
C15 C14 1.474 . S
C16 C11 1.342 . S
C16 C14 1.285 . S
C16 H35 0.930 . S
C17 C20 1.424 . S
C17 C22 1.245 . S
C17 C23 1.428 . S
C18 C21 1.260 . S
C18 C22 1.477 . S
C18 H36 0.932 . S
C19 C20 1.384 . S
C19 C21 1.479 . S
C19 H37 0.929 . S
C20 C17 1.424 . S
C20 C19 1.384 . S
C20 H38 0.928 . S
C21 C18 1.260 . S
C21 C19 1.479 . S
C22 C17 1.245 . S
C22 C18 1.477 . S
C22 H39 0.932 . S
C23 U6 2.882 . S
C23 C17 1.428 . S
C23 O26 1.301 . S
C23 O27 1.282 . S
O24 U6 2.441 . S
O24 C10 1.249 . S
O25 U6 2.420 . S
O25 C10 1.202 . S
O26 U6 2.455 . S
O26 C23 1.301 . S
O27 U6 2.449 . S
O27 C23 1.282 . S
H28 C1 0.931 . S
H29 C3 0.929 . S
H30 C4 0.930 . S
H31 C5 0.931 . S
H32 C12 0.932 . S
H33 C13 0.930 . S
H34 C14 0.929 . S
H35 C16 0.930 . S
H36 C18 0.932 . S
H37 C19 0.929 . S
H38 C20 0.928 . S
H39 C22 0.932 . S
C40 C41 1.264 . S
C40 C45 1.479 . S
C40 C50 1.465 . S
C41 C40 1.264 . S
C41 C43 1.339 . S
C41 H68 0.931 . S
C42 C43 1.395 . S
C42 C44 1.320 . S
C43 C41 1.339 . S
C43 C42 1.395 . S
C43 H69 0.929 . S
C44 C42 1.320 . S
C44 C45 1.405 . S
C44 H70 0.930 . S
C45 C40 1.479 . S
C45 C44 1.405 . S
C45 H71 0.931 . S
U46 O47 2.454 . S
U46 O48 2.458 . S
U46 C49 2.984 . S
U46 C50 2.847 . S
U46 C63 2.882 . S
U46 O64 2.441 . S
U46 O65 2.420 . S
U46 O66 2.455 . S
U46 O67 2.449 . S
O47 U46 2.454 . S
O47 C49 1.353 . S
O48 U46 2.458 . S
O48 C49 1.286 . S
C49 U46 2.984 . S
C49 O47 1.353 . S
C49 O48 1.286 . S
C49 C51 1.363 . S
C50 C40 1.465 . S
C50 U46 2.847 . S
C50 O64 1.249 . S
C50 O65 1.202 . S
C51 C49 1.363 . S
C51 C53 1.408 . S
C51 C56 1.342 . S
C52 C53 1.310 . S
C52 C55 1.461 . S
C52 H72 0.932 . S
C53 C51 1.408 . S
C53 C52 1.310 . S
C53 H73 0.930 . S
C54 C55 1.474 . S
C54 C56 1.285 . S
C54 H74 0.929 . S
C55 C52 1.461 . S
C55 C54 1.474 . S
C56 C51 1.342 . S
C56 C54 1.285 . S
C56 H75 0.930 . S
C57 C60 1.424 . S
C57 C62 1.245 . S
C57 C63 1.428 . S
C58 C61 1.260 . S
C58 C62 1.477 . S
C58 H76 0.932 . S
C59 C60 1.384 . S
C59 C61 1.479 . S
C59 H77 0.929 . S
C60 C57 1.424 . S
C60 C59 1.384 . S
C60 H78 0.928 . S
C61 C58 1.260 . S
C61 C59 1.479 . S
C62 C57 1.245 . S
C62 C58 1.477 . S
C62 H79 0.932 . S
C63 U46 2.882 . S
C63 C57 1.428 . S
C63 O66 1.301 . S
C63 O67 1.282 . S
O64 U46 2.441 . S
O64 C50 1.249 . S
O65 U46 2.420 . S
O65 C50 1.202 . S
O66 U46 2.455 . S
O66 C63 1.301 . S
O67 U46 2.449 . S
O67 C63 1.282 . S
H68 C41 0.931 . S
H69 C43 0.929 . S
H70 C44 0.930 . S
H71 C45 0.931 . S
H72 C52 0.932 . S
H73 C53 0.930 . S
H74 C54 0.929 . S
H75 C56 0.930 . S
H76 C58 0.932 . S
H77 C59 0.929 . S
H78 C60 0.928 . S
H79 C62 0.932 . S
C80 C81 1.264 . S
C80 C85 1.479 . S
C80 C90 1.465 . S
C81 C80 1.264 . S
C81 C83 1.339 . S
C81 H108 0.931 . S
C82 C83 1.395 . S
C82 C84 1.320 . S
C83 C81 1.339 . S
C83 C82 1.395 . S
C83 H109 0.929 . S
C84 C82 1.320 . S
C84 C85 1.405 . S
C84 H110 0.930 . S
C85 C80 1.479 . S
C85 C84 1.405 . S
C85 H111 0.931 . S
U86 O87 2.454 . S
U86 O88 2.458 . S
U86 C89 2.984 . S
U86 C90 2.847 . S
U86 C103 2.882 . S
U86 O104 2.441 . S
U86 O105 2.420 . S
U86 O106 2.455 . S
U86 O107 2.449 . S
O87 U86 2.454 . S
O87 C89 1.353 . S
O88 U86 2.458 . S
O88 C89 1.286 . S
C89 U86 2.984 . S
C89 O87 1.353 . S
C89 O88 1.286 . S
C89 C91 1.363 . S
C90 C80 1.465 . S
C90 U86 2.847 . S
C90 O104 1.249 . S
C90 O105 1.202 . S
C91 C89 1.363 . S
C91 C93 1.408 . S
C91 C96 1.342 . S
C92 C93 1.310 . S
C92 C95 1.461 . S
C92 H112 0.932 . S
C93 C91 1.408 . S
C93 C92 1.310 . S
C93 H113 0.930 . S
C94 C95 1.474 . S
C94 C96 1.285 . S
C94 H114 0.929 . S
C95 C92 1.461 . S
C95 C94 1.474 . S
C96 C91 1.342 . S
C96 C94 1.285 . S
C96 H115 0.930 . S
C97 C100 1.424 . S
C97 C102 1.245 . S
C97 C103 1.428 . S
C98 C101 1.260 . S
C98 C102 1.477 . S
C98 H116 0.932 . S
C99 C100 1.384 . S
C99 C101 1.479 . S
C99 H117 0.929 . S
C100 C97 1.424 . S
C100 C99 1.384 . S
C100 H118 0.928 . S
C101 C98 1.260 . S
C101 C99 1.479 . S
C102 C97 1.245 . S
C102 C98 1.477 . S
C102 H119 0.932 . S
C103 U86 2.882 . S
C103 C97 1.428 . S
C103 O106 1.301 . S
C103 O107 1.282 . S
O104 U86 2.441 . S
O104 C90 1.249 . S
O105 U86 2.420 . S
O105 C90 1.202 . S
O106 U86 2.455 . S
O106 C103 1.301 . S
O107 U86 2.449 . S
O107 C103 1.282 . S
H108 C81 0.931 . S
H109 C83 0.929 . S
H110 C84 0.930 . S
H111 C85 0.931 . S
H112 C92 0.932 . S
H113 C93 0.930 . S
H114 C94 0.929 . S
H115 C96 0.930 . S
H116 C98 0.932 . S
H117 C99 0.929 . S
H118 C100 0.928 . S
H119 C102 0.932 . S
C120 C121 1.264 . S
C120 C125 1.479 . S
C120 C130 1.465 . S
C121 C120 1.264 . S
C121 C123 1.339 . S
C121 H148 0.931 . S
C122 C123 1.395 . S
C122 C124 1.320 . S
C123 C121 1.339 . S
C123 C122 1.395 . S
C123 H149 0.929 . S
C124 C122 1.320 . S
C124 C125 1.405 . S
C124 H150 0.930 . S
C125 C120 1.479 . S
C125 C124 1.405 . S
C125 H151 0.931 . S
U126 O127 2.454 . S
U126 O128 2.458 . S
U126 C129 2.984 . S
U126 C130 2.847 . S
U126 C143 2.882 . S
U126 O144 2.441 . S
U126 O145 2.420 . S
U126 O146 2.455 . S
U126 O147 2.449 . S
O127 U126 2.454 . S
O127 C129 1.353 . S
O128 U126 2.458 . S
O128 C129 1.286 . S
C129 U126 2.984 . S
C129 O127 1.353 . S
C129 O128 1.286 . S
C129 C131 1.363 . S
C130 C120 1.465 . S
C130 U126 2.847 . S
C130 O144 1.249 . S
C130 O145 1.202 . S
C131 C129 1.363 . S
C131 C133 1.408 . S
C131 C136 1.342 . S
C132 C133 1.310 . S
C132 C135 1.461 . S
C132 H152 0.932 . S
C133 C131 1.408 . S
C133 C132 1.310 . S
C133 H153 0.930 . S
C134 C135 1.474 . S
C134 C136 1.285 . S
C134 H154 0.929 . S
C135 C132 1.461 . S
C135 C134 1.474 . S
C136 C131 1.342 . S
C136 C134 1.285 . S
C136 H155 0.930 . S
C137 C140 1.424 . S
C137 C142 1.245 . S
C137 C143 1.428 . S
C138 C141 1.260 . S
C138 C142 1.477 . S
C138 H156 0.932 . S
C139 C140 1.384 . S
C139 C141 1.479 . S
C139 H157 0.929 . S
C140 C137 1.424 . S
C140 C139 1.384 . S
C140 H158 0.928 . S
C141 C138 1.260 . S
C141 C139 1.479 . S
C142 C137 1.245 . S
C142 C138 1.477 . S
C142 H159 0.932 . S
C143 U126 2.882 . S
C143 C137 1.428 . S
C143 O146 1.301 . S
C143 O147 1.282 . S
O144 U126 2.441 . S
O144 C130 1.249 . S
O145 U126 2.420 . S
O145 C130 1.202 . S
O146 U126 2.455 . S
O146 C143 1.301 . S
O147 U126 2.449 . S
O147 C143 1.282 . S
H148 C121 0.931 . S
H149 C123 0.929 . S
H150 C124 0.930 . S
H151 C125 0.931 . S
H152 C132 0.932 . S
H153 C133 0.930 . S
H154 C134 0.929 . S
H155 C136 0.930 . S
H156 C138 0.932 . S
H157 C139 0.929 . S
H158 C140 0.928 . S
H159 C142 0.932 . S
C160 C161 1.264 . S
C160 C165 1.479 . S
C160 C170 1.465 . S
C161 C160 1.264 . S
C161 C163 1.339 . S
C161 H188 0.931 . S
C162 C163 1.395 . S
C162 C164 1.320 . S
C163 C161 1.339 . S
C163 C162 1.395 . S
C163 H189 0.929 . S
C164 C162 1.320 . S
C164 C165 1.405 . S
C164 H190 0.930 . S
C165 C160 1.479 . S
C165 C164 1.405 . S
C165 H191 0.931 . S
U166 O167 2.454 . S
U166 O168 2.458 . S
U166 C169 2.984 . S
U166 C170 2.847 . S
U166 C183 2.882 . S
U166 O184 2.441 . S
U166 O185 2.420 . S
U166 O186 2.455 . S
U166 O187 2.449 . S
O167 U166 2.454 . S
O167 C169 1.353 . S
O168 U166 2.458 . S
O168 C169 1.286 . S
C169 U166 2.984 . S
C169 O167 1.353 . S
C169 O168 1.286 . S
C169 C171 1.363 . S
C170 C160 1.465 . S
C170 U166 2.847 . S
C170 O184 1.249 . S
C170 O185 1.202 . S
C171 C169 1.363 . S
C171 C173 1.408 . S
C171 C176 1.342 . S
C172 C173 1.310 . S
C172 C175 1.461 . S
C172 H192 0.932 . S
C173 C171 1.408 . S
C173 C172 1.310 . S
C173 H193 0.930 . S
C174 C175 1.474 . S
C174 C176 1.285 . S
C174 H194 0.929 . S
C175 C172 1.461 . S
C175 C174 1.474 . S
C176 C171 1.342 . S
C176 C174 1.285 . S
C176 H195 0.930 . S
C177 C180 1.424 . S
C177 C182 1.245 . S
C177 C183 1.428 . S
C178 C181 1.260 . S
C178 C182 1.477 . S
C178 H196 0.932 . S
C179 C180 1.384 . S
C179 C181 1.479 . S
C179 H197 0.929 . S
C180 C177 1.424 . S
C180 C179 1.384 . S
C180 H198 0.928 . S
C181 C178 1.260 . S
C181 C179 1.479 . S
C182 C177 1.245 . S
C182 C178 1.477 . S
C182 H199 0.932 . S
C183 U166 2.882 . S
C183 C177 1.428 . S
C183 O186 1.301 . S
C183 O187 1.282 . S
O184 U166 2.441 . S
O184 C170 1.249 . S
O185 U166 2.420 . S
O185 C170 1.202 . S
O186 U166 2.455 . S
O186 C183 1.301 . S
O187 U166 2.449 . S
O187 C183 1.282 . S
H188 C161 0.931 . S
H189 C163 0.929 . S
H190 C164 0.930 . S
H191 C165 0.931 . S
H192 C172 0.932 . S
H193 C173 0.930 . S
H194 C174 0.929 . S
H195 C176 0.930 . S
H196 C178 0.932 . S
H197 C179 0.929 . S
H198 C180 0.928 . S
H199 C182 0.932 . S
C200 C201 1.264 . S
C200 C205 1.479 . S
C200 C210 1.465 . S
C201 C200 1.264 . S
C201 C203 1.339 . S
C201 H228 0.931 . S
C202 C203 1.395 . S
C202 C204 1.320 . S
C203 C201 1.339 . S
C203 C202 1.395 . S
C203 H229 0.929 . S
C204 C202 1.320 . S
C204 C205 1.405 . S
C204 H230 0.930 . S
C205 C200 1.479 . S
C205 C204 1.405 . S
C205 H231 0.931 . S
U206 O207 2.454 . S
U206 O208 2.458 . S
U206 C209 2.984 . S
U206 C210 2.847 . S
U206 C223 2.882 . S
U206 O224 2.441 . S
U206 O225 2.420 . S
U206 O226 2.455 . S
U206 O227 2.449 . S
O207 U206 2.454 . S
O207 C209 1.353 . S
O208 U206 2.458 . S
O208 C209 1.286 . S
C209 U206 2.984 . S
C209 O207 1.353 . S
C209 O208 1.286 . S
C209 C211 1.363 . S
C210 C200 1.465 . S
C210 U206 2.847 . S
C210 O224 1.249 . S
C210 O225 1.202 . S
C211 C209 1.363 . S
C211 C213 1.408 . S
C211 C216 1.342 . S
C212 C213 1.310 . S
C212 C215 1.461 . S
C212 H232 0.932 . S
C213 C211 1.408 . S
C213 C212 1.310 . S
C213 H233 0.930 . S
C214 C215 1.474 . S
C214 C216 1.285 . S
C214 H234 0.929 . S
C215 C212 1.461 . S
C215 C214 1.474 . S
C216 C211 1.342 . S
C216 C214 1.285 . S
C216 H235 0.930 . S
C217 C220 1.424 . S
C217 C222 1.245 . S
C217 C223 1.428 . S
C218 C221 1.260 . S
C218 C222 1.477 . S
C218 H236 0.932 . S
C219 C220 1.384 . S
C219 C221 1.479 . S
C219 H237 0.929 . S
C220 C217 1.424 . S
C220 C219 1.384 . S
C220 H238 0.928 . S
C221 C218 1.260 . S
C221 C219 1.479 . S
C222 C217 1.245 . S
C222 C218 1.477 . S
C222 H239 0.932 . S
C223 U206 2.882 . S
C223 C217 1.428 . S
C223 O226 1.301 . S
C223 O227 1.282 . S
O224 U206 2.441 . S
O224 C210 1.249 . S
O225 U206 2.420 . S
O225 C210 1.202 . S
O226 U206 2.455 . S
O226 C223 1.301 . S
O227 U206 2.449 . S
O227 C223 1.282 . S
H228 C201 0.931 . S
H229 C203 0.929 . S
H230 C204 0.930 . S
H231 C205 0.931 . S
H232 C212 0.932 . S
H233 C213 0.930 . S
H234 C214 0.929 . S
H235 C216 0.930 . S
H236 C218 0.932 . S
H237 C219 0.929 . S
H238 C220 0.928 . S
H239 C222 0.932 . S
C240 C241 1.264 . S
C240 C245 1.479 . S
C240 C250 1.465 . S
C241 C240 1.264 . S
C241 C243 1.339 . S
C241 H268 0.931 . S
C242 C243 1.395 . S
C242 C244 1.320 . S
C243 C241 1.339 . S
C243 C242 1.395 . S
C243 H269 0.929 . S
C244 C242 1.320 . S
C244 C245 1.405 . S
C244 H270 0.930 . S
C245 C240 1.479 . S
C245 C244 1.405 . S
C245 H271 0.931 . S
U246 O247 2.454 . S
U246 O248 2.458 . S
U246 C249 2.984 . S
U246 C250 2.847 . S
U246 C263 2.882 . S
U246 O264 2.441 . S
U246 O265 2.420 . S
U246 O266 2.455 . S
U246 O267 2.449 . S
O247 U246 2.454 . S
O247 C249 1.353 . S
O248 U246 2.458 . S
O248 C249 1.286 . S
C249 U246 2.984 . S
C249 O247 1.353 . S
C249 O248 1.286 . S
C249 C251 1.363 . S
C250 C240 1.465 . S
C250 U246 2.847 . S
C250 O264 1.249 . S
C250 O265 1.202 . S
C251 C249 1.363 . S
C251 C253 1.408 . S
C251 C256 1.342 . S
C252 C253 1.310 . S
C252 C255 1.461 . S
C252 H272 0.932 . S
C253 C251 1.408 . S
C253 C252 1.310 . S
C253 H273 0.930 . S
C254 C255 1.474 . S
C254 C256 1.285 . S
C254 H274 0.929 . S
C255 C252 1.461 . S
C255 C254 1.474 . S
C256 C251 1.342 . S
C256 C254 1.285 . S
C256 H275 0.930 . S
C257 C260 1.424 . S
C257 C262 1.245 . S
C257 C263 1.428 . S
C258 C261 1.260 . S
C258 C262 1.477 . S
C258 H276 0.932 . S
C259 C260 1.384 . S
C259 C261 1.479 . S
C259 H277 0.929 . S
C260 C257 1.424 . S
C260 C259 1.384 . S
C260 H278 0.928 . S
C261 C258 1.260 . S
C261 C259 1.479 . S
C262 C257 1.245 . S
C262 C258 1.477 . S
C262 H279 0.932 . S
C263 U246 2.882 . S
C263 C257 1.428 . S
C263 O266 1.301 . S
C263 O267 1.282 . S
O264 U246 2.441 . S
O264 C250 1.249 . S
O265 U246 2.420 . S
O265 C250 1.202 . S
O266 U246 2.455 . S
O266 C263 1.301 . S
O267 U246 2.449 . S
O267 C263 1.282 . S
H268 C241 0.931 . S
H269 C243 0.929 . S
H270 C244 0.930 . S
H271 C245 0.931 . S
H272 C252 0.932 . S
H273 C253 0.930 . S
H274 C254 0.929 . S
H275 C256 0.930 . S
H276 C258 0.932 . S
H277 C259 0.929 . S
H278 C260 0.928 . S
H279 C262 0.932 . S
C280 C281 1.264 . S
C280 C285 1.479 . S
C280 C290 1.465 . S
C281 C280 1.264 . S
C281 C283 1.339 . S
C281 H308 0.931 . S
C282 C283 1.395 . S
C282 C284 1.320 . S
C283 C281 1.339 . S
C283 C282 1.395 . S
C283 H309 0.929 . S
C284 C282 1.320 . S
C284 C285 1.405 . S
C284 H310 0.930 . S
C285 C280 1.479 . S
C285 C284 1.405 . S
C285 H311 0.931 . S
U286 O287 2.454 . S
U286 O288 2.458 . S
U286 C289 2.984 . S
U286 C290 2.847 . S
U286 C303 2.882 . S
U286 O304 2.441 . S
U286 O305 2.420 . S
U286 O306 2.455 . S
U286 O307 2.449 . S
O287 U286 2.454 . S
O287 C289 1.353 . S
O288 U286 2.458 . S
O288 C289 1.286 . S
C289 U286 2.984 . S
C289 O287 1.353 . S
C289 O288 1.286 . S
C289 C291 1.363 . S
C290 C280 1.465 . S
C290 U286 2.847 . S
C290 O304 1.249 . S
C290 O305 1.202 . S
C291 C289 1.363 . S
C291 C293 1.408 . S
C291 C296 1.342 . S
C292 C293 1.310 . S
C292 C295 1.461 . S
C292 H312 0.932 . S
C293 C291 1.408 . S
C293 C292 1.310 . S
C293 H313 0.930 . S
C294 C295 1.474 . S
C294 C296 1.285 . S
C294 H314 0.929 . S
C295 C292 1.461 . S
C295 C294 1.474 . S
C296 C291 1.342 . S
C296 C294 1.285 . S
C296 H315 0.930 . S
C297 C300 1.424 . S
C297 C302 1.245 . S
C297 C303 1.428 . S
C298 C301 1.260 . S
C298 C302 1.477 . S
C298 H316 0.932 . S
C299 C300 1.384 . S
C299 C301 1.479 . S
C299 H317 0.929 . S
C300 C297 1.424 . S
C300 C299 1.384 . S
C300 H318 0.928 . S
C301 C298 1.260 . S
C301 C299 1.479 . S
C302 C297 1.245 . S
C302 C298 1.477 . S
C302 H319 0.932 . S
C303 U286 2.882 . S
C303 C297 1.428 . S
C303 O306 1.301 . S
C303 O307 1.282 . S
O304 U286 2.441 . S
O304 C290 1.249 . S
O305 U286 2.420 . S
O305 C290 1.202 . S
O306 U286 2.455 . S
O306 C303 1.301 . S
O307 U286 2.449 . S
O307 C303 1.282 . S
H308 C281 0.931 . S
H309 C283 0.929 . S
H310 C284 0.930 . S
H311 C285 0.931 . S
H312 C292 0.932 . S
H313 C293 0.930 . S
H314 C294 0.929 . S
H315 C296 0.930 . S
H316 C298 0.932 . S
H317 C299 0.929 . S
H318 C300 0.928 . S
H319 C302 0.932 . S
O320 Mn321 2.163 1_655 S
O320 C334 1.244 . S
Mn321 O320 2.163 1_455 S
Mn321 O324 2.160 1_545 S
Mn321 O325 2.221 . S
Mn321 O327 2.163 1_445 S
Mn321 O329 2.160 . S
Mn321 O339 2.221 1_445 S
O322 Mn323 2.087 1_545 S
O322 C334 1.256 . S
Mn323 O322 2.087 1_565 S
Mn323 O330 2.089 1_565 S
Mn323 O339 2.290 . S
Mn323 O340 2.251 . S
O324 Mn321 2.160 1_565 S
O324 C335 1.239 . S
O325 Mn321 2.221 . S
O325 Mn326 2.290 . S
O325 C336 1.278 . S
Mn326 O325 2.290 . S
Mn326 O328 2.083 1_545 S
Mn326 O331 2.251 . S
Mn326 O332 2.087 . S
O327 Mn321 2.163 1_665 S
O327 C337 1.244 . S
O328 Mn326 2.083 1_565 S
O328 C335 1.259 . S
O329 Mn321 2.160 . S
O329 C338 1.239 . S
O330 Mn323 2.089 1_545 S
O330 C338 1.256 1_655 S
O331 Mn326 2.251 . S
O331 C336 1.241 . S
O332 Mn326 2.087 . S
O332 C337 1.256 1_445 S
C333 O339 1.278 . S
C333 O340 1.241 . S
C334 O320 1.244 . S
C334 O322 1.256 . S
C335 O324 1.239 . S
C335 O328 1.259 . S
C336 O325 1.278 . S
C336 O331 1.241 . S
C337 O327 1.244 . S
C337 O332 1.256 1_665 S
C338 O329 1.239 . S
C338 O330 1.256 1_455 S
O339 Mn321 2.221 1_665 S
O339 Mn323 2.290 . S
O339 C333 1.278 . S
O340 Mn323 2.251 . S
O340 C333 1.241 . S
O341 Mn342 2.163 1_556 S
O341 C355 1.244 1_545 S
Mn342 O341 2.163 1_554 S
Mn342 O345 2.160 . S
Mn342 O346 2.221 . S
Mn342 O348 2.163 . S
Mn342 O350 2.160 1_554 S
Mn342 O360 2.221 1_545 S
O343 Mn344 2.087 . S
O343 C355 1.256 . S
Mn344 O343 2.087 . S
Mn344 O351 2.089 . S
Mn344 O360 2.290 1_556 S
Mn344 O361 2.251 1_556 S
O345 Mn342 2.160 . S
O345 C356 1.239 . S
O346 Mn342 2.221 . S
O346 Mn347 2.290 . S
O346 C357 1.278 1_554 S
Mn347 O346 2.290 . S
Mn347 O349 2.089 . S
Mn347 O352 2.251 1_554 S
Mn347 O353 2.087 . S
O348 Mn342 2.163 . S
O348 C358 1.244 . S
O349 Mn347 2.089 . S
O349 C356 1.256 . S
O350 Mn342 2.160 1_556 S
O350 C359 1.239 1_545 S
O351 Mn344 2.089 . S
O351 C359 1.256 . S
O352 Mn347 2.251 1_556 S
O352 C357 1.241 . S
O353 Mn347 2.087 . S
O353 C358 1.256 . S
C354 O360 1.278 . S
C354 O361 1.241 . S
C355 O341 1.244 1_565 S
C355 O343 1.256 . S
C356 O345 1.239 . S
C356 O349 1.256 . S
C357 O346 1.278 1_556 S
C357 O352 1.241 . S
C358 O348 1.244 . S
C358 O353 1.256 . S
C359 O350 1.239 1_565 S
C359 O351 1.256 . S
O360 Mn342 2.221 1_565 S
O360 Mn344 2.290 1_554 S
O360 C354 1.278 . S
O361 Mn344 2.251 1_554 S
O361 C354 1.241 . S
O362 Mn363 2.163 . S
O362 C376 1.244 . S
Mn363 O362 2.163 . S
Mn363 O366 2.160 . S
Mn363 O367 2.221 . S
Mn363 O369 2.163 . S
Mn363 O371 2.160 . S
Mn363 O381 2.221 . S
O364 Mn365 2.087 . S
O364 C376 1.256 . S
Mn365 O364 2.087 . S
Mn365 O372 2.089 . S
Mn365 O381 2.290 . S
Mn365 O382 2.251 . S
O366 Mn363 2.160 . S
O366 C377 1.239 . S
O367 Mn363 2.221 . S
O367 Mn368 2.290 . S
O367 C378 1.278 . S
Mn368 O367 2.290 . S
Mn368 O370 2.089 . S
Mn368 O373 2.251 . S
Mn368 O374 2.087 . S
O369 Mn363 2.163 . S
O369 C379 1.244 . S
O370 Mn368 2.089 . S
O370 C377 1.256 . S
O371 Mn363 2.160 . S
O371 C380 1.239 . S
O372 Mn365 2.089 . S
O372 C380 1.256 . S
O373 Mn368 2.251 . S
O373 C378 1.241 . S
O374 Mn368 2.087 . S
O374 C379 1.256 . S
C375 O381 1.278 . S
C375 O382 1.241 . S
C376 O362 1.244 . S
C376 O364 1.256 . S
C377 O366 1.239 . S
C377 O370 1.256 . S
C378 O367 1.278 . S
C378 O373 1.241 . S
C379 O369 1.244 . S
C379 O374 1.256 . S
C380 O371 1.239 . S
C380 O372 1.256 . S
O381 Mn363 2.221 . S
O381 Mn365 2.290 . S
O381 C375 1.278 . S
O382 Mn365 2.251 . S
O382 C375 1.241 . S
O383 Mn384 2.163 1_655 S
O383 C397 1.244 1_554 S
Mn384 O383 2.163 1_455 S
Mn384 O387 2.160 . S
Mn384 O388 2.221 1_455 S
Mn384 O390 2.163 . S
Mn384 O392 2.150 1_454 S
Mn384 O402 2.221 1_554 S
O385 Mn386 2.087 . S
O385 C397 1.256 . S
Mn386 O385 2.087 . S
Mn386 O393 2.089 . S
Mn386 O402 2.290 1_655 S
Mn386 O403 2.251 . S
O387 Mn384 2.160 . S
O387 C398 1.239 . S
O388 Mn384 2.221 1_655 S
O388 Mn389 2.290 1_655 S
O388 C399 1.278 . S
Mn389 O388 2.290 1_455 S
Mn389 O391 2.089 . S
Mn389 O394 2.251 1_455 S
Mn389 O395 2.087 . S
O390 Mn384 2.163 . S
O390 C400 1.244 . S
O391 Mn389 2.089 . S
O391 C398 1.256 . S
O392 Mn384 2.150 1_656 S
O392 C401 1.270 . S
O393 Mn386 2.089 . S
O393 C401 1.256 . S
O394 Mn389 2.251 1_655 S
O394 C399 1.241 . S
O395 Mn389 2.087 . S
O395 C400 1.256 . S
C396 O402 1.278 . S
C396 O403 1.241 1_455 S
C397 O383 1.244 1_556 S
C397 O385 1.256 . S
C398 O387 1.239 . S
C398 O391 1.256 . S
C399 O388 1.278 . S
C399 O394 1.241 . S
C400 O390 1.244 . S
C400 O395 1.256 . S
C401 O392 1.270 . S
C401 O393 1.256 . S
O402 Mn384 2.221 1_556 S
O402 Mn386 2.290 1_455 S
O402 C396 1.278 . S
O403 Mn386 2.251 . S
O403 C396 1.241 1_655 S
H404 C422 0.951 . S
H405 C424 0.951 . S
H406 C426 0.950 . S
H407 C427 0.950 . S
H408 C429 0.950 . S
H409 C432 0.950 . S
H410 C433 0.950 . S
H411 C435 0.950 . S
H412 C436 0.948 1_655 S
H413 C437 0.951 . S
H414 C439 0.951 . S
H415 C441 0.950 . S
H416 C442 0.950 . S
H417 C444 0.950 . S
H418 C447 0.950 . S
H419 C448 0.950 1_565 S
H420 C450 0.950 . S
H421 C451 0.950 . S
C422 H404 0.951 . S
C422 C423 1.366 . S
C422 C424 1.388 . S
C423 C422 1.366 . S
C423 C427 1.385 . S
C424 H405 0.951 . S
C424 C422 1.388 . S
C424 C425 1.366 . S
C425 C424 1.366 . S
C425 C426 1.414 . S
C425 C428 1.499 . S
C426 H406 0.950 . S
C426 C425 1.414 . S
C426 C427 1.374 . S
C427 H407 0.950 . S
C427 C423 1.385 . S
C427 C426 1.374 . S
C428 C425 1.499 . S
C428 C429 1.373 . S
C428 C430 1.389 . S
C429 H408 0.950 . S
C429 C428 1.373 . S
C429 C445 1.377 . S
C430 C428 1.389 . S
C430 C431 1.524 . S
C430 C444 1.377 . S
C431 C430 1.524 . S
C431 C432 1.397 . S
C431 C436 1.363 . S
C432 H409 0.950 . S
C432 C431 1.397 . S
C432 C433 1.334 . S
C433 H410 0.950 . S
C433 C432 1.334 . S
C433 C434 1.287 1_455 S
C434 C433 1.287 1_655 S
C434 C435 1.524 . S
C434 H453 0.913 . S
C435 H411 0.950 . S
C435 C434 1.524 . S
C435 C436 1.415 1_655 S
C436 H412 0.948 1_455 S
C436 C431 1.363 . S
C436 C435 1.415 1_455 S
C437 H413 0.951 . S
C437 C438 1.366 . S
C437 C439 1.388 . S
C438 C437 1.366 . S
C438 C442 1.385 . S
C439 H414 0.951 . S
C439 C437 1.388 . S
C439 C440 1.366 . S
C440 C439 1.366 . S
C440 C441 1.414 . S
C440 C443 1.499 . S
C441 H415 0.950 . S
C441 C440 1.414 . S
C441 C442 1.374 . S
C442 H416 0.950 . S
C442 C438 1.385 . S
C442 C441 1.374 . S
C443 C440 1.499 . S
C443 C444 1.373 . S
C443 C445 1.389 . S
C444 H417 0.950 . S
C444 C430 1.377 . S
C444 C443 1.373 . S
C445 C429 1.377 . S
C445 C443 1.389 . S
C445 C446 1.524 . S
C446 C445 1.524 . S
C446 C447 1.397 . S
C446 C451 1.363 . S
C447 H418 0.950 . S
C447 C446 1.397 . S
C447 C448 1.334 . S
C448 H419 0.950 1_545 S
C448 C447 1.334 . S
C448 C449 1.287 . S
C449 C448 1.287 . S
C449 C450 1.524 . S
C449 H452 0.999 . S
C450 H420 0.950 . S
C450 C449 1.524 . S
C450 C451 1.415 . S
C451 H421 0.950 . S
C451 C446 1.363 . S
C451 C450 1.415 . S
H452 C449 0.999 . S
H453 C434 0.913 . S
H454 C472 0.951 . S
H455 C474 0.951 . S
H456 C476 0.950 . S
H457 C477 0.950 . S
H458 C479 0.950 . S
H459 C482 0.950 . S
H460 C483 0.950 . S
H461 C485 0.950 . S
H462 C486 0.950 . S
H463 C487 0.951 . S
H464 C489 0.951 . S
H465 C491 0.950 1_545 S
H466 C492 0.950 . S
H467 C494 0.950 . S
H468 C497 0.950 . S
H469 C498 0.950 . S
H470 C500 0.950 . S
H471 C501 0.950 . S
C472 H454 0.951 . S
C472 C473 1.366 . S
C472 C474 1.388 . S
C473 C472 1.366 . S
C473 C477 1.385 . S
C474 H455 0.951 . S
C474 C472 1.388 . S
C474 C475 1.366 . S
C475 C474 1.366 . S
C475 C476 1.414 . S
C475 C478 1.499 . S
C476 H456 0.950 . S
C476 C475 1.414 . S
C476 C477 1.374 . S
C477 H457 0.950 . S
C477 C473 1.385 . S
C477 C476 1.374 . S
C478 C475 1.499 . S
C478 C479 1.373 . S
C478 C480 1.389 . S
C479 H458 0.950 . S
C479 C478 1.373 . S
C479 C495 1.377 . S
C480 C478 1.389 . S
C480 C481 1.524 . S
C480 C494 1.377 . S
C481 C480 1.524 . S
C481 C482 1.397 . S
C481 C486 1.363 . S
C482 H459 0.950 . S
C482 C481 1.397 . S
C482 C483 1.334 . S
C483 H460 0.950 . S
C483 C482 1.334 . S
C483 C484 1.287 . S
C484 C483 1.287 . S
C484 C485 1.524 . S
C484 H503 0.913 . S
C485 H461 0.950 . S
C485 C484 1.524 . S
C485 C486 1.415 . S
C486 H462 0.950 . S
C486 C481 1.363 . S
C486 C485 1.415 . S
C487 H463 0.951 . S
C487 C488 1.366 . S
C487 C489 1.388 . S
C488 C487 1.366 . S
C488 C492 1.385 1_565 S
C489 H464 0.951 . S
C489 C487 1.388 . S
C489 C490 1.366 . S
C490 C489 1.366 . S
C490 C491 1.414 . S
C490 C493 1.499 . S
C491 H465 0.950 1_565 S
C491 C490 1.414 . S
C491 C492 1.374 1_565 S
C492 H466 0.950 . S
C492 C488 1.385 1_545 S
C492 C491 1.374 1_545 S
C493 C490 1.499 . S
C493 C494 1.373 . S
C493 C495 1.389 . S
C494 H467 0.950 . S
C494 C480 1.377 . S
C494 C493 1.373 . S
C495 C479 1.377 . S
C495 C493 1.389 . S
C495 C496 1.524 . S
C496 C495 1.524 . S
C496 C497 1.397 1_565 S
C496 C501 1.363 . S
C497 H468 0.950 . S
C497 C496 1.397 1_545 S
C497 C498 1.334 . S
C498 H469 0.950 . S
C498 C497 1.334 . S
C498 C499 1.301 . S
C499 C498 1.301 . S
C499 C500 1.497 1_545 S
C499 H502 1.010 . S
C500 H470 0.950 . S
C500 C499 1.497 1_565 S
C500 C501 1.415 . S
C501 H471 0.950 . S
C501 C496 1.363 . S
C501 C500 1.415 . S
H502 C499 1.010 . S
H503 C484 0.913 . S
H504 C522 0.951 . S
H505 C524 0.951 . S
H506 C526 0.950 . S
H507 C527 0.950 . S
H508 C529 0.950 . S
H509 C532 0.950 . S
H510 C533 0.950 . S
H511 C535 0.950 . S
H512 C536 0.950 . S
H513 C537 0.951 . S
H514 C539 0.951 . S
H515 C541 0.950 . S
H516 C542 0.950 . S
H517 C544 0.950 . S
H518 C547 0.950 . S
H519 C548 0.950 . S
H520 C550 0.950 . S
H521 C551 0.950 . S
C522 H504 0.951 . S
C522 C523 1.366 . S
C522 C524 1.388 . S
C523 C522 1.366 . S
C523 C527 1.385 . S
C524 H505 0.951 . S
C524 C522 1.388 . S
C524 C525 1.366 . S
C525 C524 1.366 . S
C525 C526 1.414 . S
C525 C528 1.499 . S
C526 H506 0.950 . S
C526 C525 1.414 . S
C526 C527 1.374 . S
C527 H507 0.950 . S
C527 C523 1.385 . S
C527 C526 1.374 . S
C528 C525 1.499 . S
C528 C529 1.373 . S
C528 C530 1.389 . S
C529 H508 0.950 . S
C529 C528 1.373 . S
C529 C545 1.377 . S
C530 C528 1.389 . S
C530 C531 1.524 . S
C530 C544 1.377 . S
C531 C530 1.524 . S
C531 C532 1.397 . S
C531 C536 1.363 . S
C532 H509 0.950 . S
C532 C531 1.397 . S
C532 C533 1.334 . S
C533 H510 0.950 . S
C533 C532 1.334 . S
C533 C534 1.287 . S
C534 C533 1.287 . S
C534 C535 1.524 . S
C534 H553 0.913 . S
C535 H511 0.950 . S
C535 C534 1.524 . S
C535 C536 1.415 . S
C536 H512 0.950 . S
C536 C531 1.363 . S
C536 C535 1.415 . S
C537 H513 0.951 . S
C537 C538 1.366 . S
C537 C539 1.388 . S
C538 C537 1.366 . S
C538 C542 1.385 . S
C539 H514 0.951 . S
C539 C537 1.388 . S
C539 C540 1.366 . S
C540 C539 1.366 . S
C540 C541 1.414 . S
C540 C543 1.499 . S
C541 H515 0.950 . S
C541 C540 1.414 . S
C541 C542 1.374 . S
C542 H516 0.950 . S
C542 C538 1.385 . S
C542 C541 1.374 . S
C543 C540 1.499 . S
C543 C544 1.373 . S
C543 C545 1.389 . S
C544 H517 0.950 . S
C544 C530 1.377 . S
C544 C543 1.373 . S
C545 C529 1.377 . S
C545 C543 1.389 . S
C545 C546 1.524 . S
C546 C545 1.524 . S
C546 C547 1.397 . S
C546 C551 1.363 . S
C547 H518 0.950 . S
C547 C546 1.397 . S
C547 C548 1.334 . S
C548 H519 0.950 . S
C548 C547 1.334 . S
C548 C549 1.287 . S
C549 C548 1.287 . S
C549 C550 1.524 . S
C549 H552 0.999 . S
C550 H520 0.950 . S
C550 C549 1.524 . S
C550 C551 1.415 . S
C551 H521 0.950 . S
C551 C546 1.363 . S
C551 C550 1.415 . S
H552 C549 0.999 . S
H553 C534 0.913 . S
H554 C572 0.951 . S
H555 C574 0.951 . S
H556 C576 0.950 . S
H557 C577 0.950 . S
H558 C579 0.950 . S
H559 C582 0.950 . S
H560 C583 0.950 . S
H561 C585 0.950 . S
H562 C586 0.950 . S
H563 C587 0.951 . S
H564 C589 0.951 . S
H565 C591 0.950 . S
H566 C592 0.950 . S
H567 C594 0.950 . S
H568 C597 0.963 . S
H569 C598 0.950 . S
H570 C600 0.950 . S
H571 C601 0.950 . S
C572 H554 0.951 . S
C572 C573 1.366 . S
C572 C574 1.388 . S
C573 C572 1.366 . S
C573 C577 1.385 . S
C574 H555 0.951 . S
C574 C572 1.388 . S
C574 C575 1.366 . S
C575 C574 1.366 . S
C575 C576 1.414 . S
C575 C578 1.499 . S
C576 H556 0.950 . S
C576 C575 1.414 . S
C576 C577 1.374 . S
C577 H557 0.950 . S
C577 C573 1.385 . S
C577 C576 1.374 . S
C578 C575 1.499 . S
C578 C579 1.373 . S
C578 C580 1.389 . S
C579 H558 0.950 . S
C579 C578 1.373 . S
C579 C595 1.377 . S
C580 C578 1.389 . S
C580 C581 1.524 . S
C580 C594 1.377 . S
C581 C580 1.524 . S
C581 C582 1.397 . S
C581 C586 1.363 . S
C582 H559 0.950 . S
C582 C581 1.397 . S
C582 C583 1.334 . S
C583 H560 0.950 . S
C583 C582 1.334 . S
C583 C584 1.287 . S
C584 C583 1.287 . S
C584 C585 1.524 . S
C584 H603 0.913 . S
C585 H561 0.950 . S
C585 C584 1.524 . S
C585 C586 1.415 . S
C586 H562 0.950 . S
C586 C581 1.363 . S
C586 C585 1.415 . S
C587 H563 0.951 . S
C587 C588 1.366 . S
C587 C589 1.388 . S
C588 C587 1.366 . S
C588 C592 1.385 . S
C589 H564 0.951 . S
C589 C587 1.388 . S
C589 C590 1.366 . S
C590 C589 1.366 . S
C590 C591 1.414 . S
C590 C593 1.499 . S
C591 H565 0.950 . S
C591 C590 1.414 . S
C591 C592 1.374 . S
C592 H566 0.950 . S
C592 C588 1.385 . S
C592 C591 1.374 . S
C593 C590 1.499 . S
C593 C594 1.373 . S
C593 C595 1.389 . S
C594 H567 0.950 . S
C594 C580 1.377 . S
C594 C593 1.373 . S
C595 C579 1.377 . S
C595 C593 1.389 . S
C595 C596 1.524 . S
C596 C595 1.524 . S
C596 C597 1.397 1_655 S
C596 C601 1.363 . S
C597 H568 0.963 . S
C597 C596 1.397 1_455 S
C597 C598 1.334 . S
C598 H569 0.950 . S
C598 C597 1.334 . S
C598 C599 1.287 . S
C599 C598 1.287 . S
C599 C600 1.524 . S
C599 H602 0.999 . S
C600 H570 0.950 . S
C600 C599 1.524 . S
C600 C601 1.415 1_455 S
C601 H571 0.950 . S
C601 C596 1.363 . S
C601 C600 1.415 1_655 S
H602 C599 0.999 . S
H603 C584 0.913 . S
H604 C622 0.951 . S
H605 C624 0.951 . S
H606 C626 0.950 . S
H607 C627 0.950 . S
H608 C629 0.950 . S
H609 C632 0.950 . S
H610 C633 0.950 . S
H611 C635 0.950 . S
H612 C636 0.950 . S
H613 C637 0.951 . S
H614 C639 0.951 . S
H615 C641 0.950 . S
H616 C642 0.950 . S
H617 C644 0.950 . S
H618 C647 0.950 . S
H619 C648 0.950 . S
H620 C650 0.950 . S
H621 C651 0.950 . S
C622 H604 0.951 . S
C622 C623 1.366 . S
C622 C624 1.388 . S
C623 C622 1.366 . S
C623 C627 1.385 . S
C624 H605 0.951 . S
C624 C622 1.388 . S
C624 C625 1.366 . S
C625 C624 1.366 . S
C625 C626 1.414 . S
C625 C628 1.499 . S
C626 H606 0.950 . S
C626 C625 1.414 . S
C626 C627 1.374 . S
C627 H607 0.950 . S
C627 C623 1.385 . S
C627 C626 1.374 . S
C628 C625 1.499 . S
C628 C629 1.373 . S
C628 C630 1.389 . S
C629 H608 0.950 . S
C629 C628 1.373 . S
C629 C645 1.377 . S
C630 C628 1.389 . S
C630 C631 1.524 . S
C630 C644 1.377 . S
C631 C630 1.524 . S
C631 C632 1.397 . S
C631 C636 1.363 . S
C632 H609 0.950 . S
C632 C631 1.397 . S
C632 C633 1.334 . S
C633 H610 0.950 . S
C633 C632 1.334 . S
C633 C634 1.287 1_545 S
C634 C633 1.287 1_565 S
C634 C635 1.524 . S
C634 H653 0.913 . S
C635 H611 0.950 . S
C635 C634 1.524 . S
C635 C636 1.415 1_565 S
C636 H612 0.950 . S
C636 C631 1.363 . S
C636 C635 1.415 1_545 S
C637 H613 0.951 . S
C637 C638 1.366 . S
C637 C639 1.388 . S
C638 C637 1.366 . S
C638 C642 1.385 . S
C639 H614 0.951 . S
C639 C637 1.388 . S
C639 C640 1.366 . S
C640 C639 1.366 . S
C640 C641 1.414 . S
C640 C643 1.499 . S
C641 H615 0.950 . S
C641 C640 1.414 . S
C641 C642 1.374 . S
C642 H616 0.950 . S
C642 C638 1.385 . S
C642 C641 1.374 . S
C643 C640 1.499 . S
C643 C644 1.373 . S
C643 C645 1.389 . S
C644 H617 0.950 . S
C644 C630 1.377 . S
C644 C643 1.373 . S
C645 C629 1.377 . S
C645 C643 1.389 . S
C645 C646 1.524 . S
C646 C645 1.524 . S
C646 C647 1.397 . S
C646 C651 1.363 . S
C647 H618 0.950 . S
C647 C646 1.397 . S
C647 C648 1.334 . S
C648 H619 0.950 . S
C648 C647 1.334 . S
C648 C649 1.287 . S
C649 C648 1.287 . S
C649 C650 1.524 . S
C649 H652 0.999 . S
C650 H620 0.950 . S
C650 C649 1.524 . S
C650 C651 1.415 . S
C651 H621 0.950 . S
C651 C646 1.363 . S
C651 C650 1.415 . S
H652 C649 0.999 . S
H653 C634 0.913 . S
H654 C672 0.951 . S
H655 C674 0.951 . S
H656 C676 0.950 . S
H657 C677 0.950 . S
H658 C679 0.950 . S
H659 C682 0.950 . S
H660 C683 0.950 . S
H661 C685 0.950 . S
H662 C686 0.950 . S
H663 C687 0.951 . S
H664 C689 0.951 . S
H665 C691 0.950 . S
H666 C692 0.950 1_545 S
H667 C694 0.950 . S
H668 C697 0.950 . S
H669 C698 0.979 . S
H670 C700 0.950 . S
H671 C701 0.950 . S
C672 H654 0.951 . S
C672 C673 1.366 . S
C672 C674 1.388 . S
C673 C672 1.366 . S
C673 C677 1.385 . S
C674 H655 0.951 . S
C674 C672 1.388 . S
C674 C675 1.366 . S
C675 C674 1.366 . S
C675 C676 1.414 . S
C675 C678 1.499 . S
C676 H656 0.950 . S
C676 C675 1.414 . S
C676 C677 1.374 . S
C677 H657 0.950 . S
C677 C673 1.385 . S
C677 C676 1.374 . S
C678 C675 1.499 . S
C678 C679 1.373 . S
C678 C680 1.389 . S
C679 H658 0.950 . S
C679 C678 1.373 . S
C679 C695 1.377 . S
C680 C678 1.389 . S
C680 C681 1.524 . S
C680 C694 1.377 . S
C681 C680 1.524 . S
C681 C682 1.397 . S
C681 C686 1.363 . S
C682 H659 0.950 . S
C682 C681 1.397 . S
C682 C683 1.334 . S
C683 H660 0.950 . S
C683 C682 1.334 . S
C683 C684 1.287 . S
C684 C683 1.287 . S
C684 C685 1.524 . S
C684 H703 0.913 . S
C685 H661 0.950 . S
C685 C684 1.524 . S
C685 C686 1.415 . S
C686 H662 0.950 . S
C686 C681 1.363 . S
C686 C685 1.415 . S
C687 H663 0.951 . S
C687 C688 1.366 . S
C687 C689 1.388 . S
C688 C687 1.366 . S
C688 C692 1.385 . S
C689 H664 0.951 . S
C689 C687 1.388 . S
C689 C690 1.366 . S
C690 C689 1.366 . S
C690 C691 1.414 . S
C690 C693 1.499 . S
C691 H665 0.950 . S
C691 C690 1.414 . S
C691 C692 1.374 . S
C692 H666 0.950 1_565 S
C692 C688 1.385 . S
C692 C691 1.374 . S
C693 C690 1.499 . S
C693 C694 1.373 . S
C693 C695 1.389 . S
C694 H667 0.950 . S
C694 C680 1.377 . S
C694 C693 1.373 . S
C695 C679 1.377 . S
C695 C693 1.389 . S
C695 C696 1.524 . S
C696 C695 1.524 . S
C696 C697 1.397 . S
C696 C701 1.363 . S
C697 H668 0.950 . S
C697 C696 1.397 . S
C697 C698 1.334 . S
C698 H669 0.979 . S
C698 C697 1.334 . S
C698 C699 1.287 . S
C699 C698 1.287 . S
C699 C700 1.524 . S
C699 H702 0.999 . S
C700 H670 0.950 . S
C700 C699 1.524 . S
C700 C701 1.415 . S
C701 H671 0.950 . S
C701 C696 1.363 . S
C701 C700 1.415 . S
H702 C699 0.999 . S
H703 C684 0.913 . S
H704 C722 0.951 . S
H705 C724 0.951 . S
H706 C726 0.950 . S
H707 C727 0.950 . S
H708 C729 0.950 . S
H709 C732 0.950 . S
H710 C733 0.950 . S
H711 C735 0.950 . S
H712 C736 0.950 . S
H713 C737 0.951 . S
H714 C739 0.951 1_554 S
H715 C741 0.950 . S
H716 C742 0.950 . S
H717 C744 0.950 . S
H718 C747 0.950 . S
H719 C748 0.950 . S
H720 C750 0.950 . S
H721 C751 0.950 . S
C722 H704 0.951 . S
C722 C723 1.366 . S
C722 C724 1.388 . S
C723 C722 1.366 . S
C723 C727 1.385 . S
C724 H705 0.951 . S
C724 C722 1.388 . S
C724 C725 1.366 . S
C725 C724 1.366 . S
C725 C726 1.414 . S
C725 C728 1.499 . S
C726 H706 0.950 . S
C726 C725 1.414 . S
C726 C727 1.374 . S
C727 H707 0.950 . S
C727 C723 1.385 . S
C727 C726 1.374 . S
C728 C725 1.499 . S
C728 C729 1.373 . S
C728 C730 1.389 . S
C729 H708 0.950 . S
C729 C728 1.373 . S
C729 C745 1.377 . S
C730 C728 1.389 . S
C730 C731 1.524 . S
C730 C744 1.377 . S
C731 C730 1.524 . S
C731 C732 1.397 . S
C731 C736 1.363 . S
C732 H709 0.950 . S
C732 C731 1.397 . S
C732 C733 1.334 . S
C733 H710 0.950 . S
C733 C732 1.334 . S
C733 C734 1.287 . S
C734 C733 1.287 . S
C734 C735 1.524 . S
C734 H753 0.913 . S
C735 H711 0.950 . S
C735 C734 1.524 . S
C735 C736 1.415 . S
C736 H712 0.950 . S
C736 C731 1.363 . S
C736 C735 1.415 . S
C737 H713 0.951 . S
C737 C738 1.366 1_554 S
C737 C739 1.388 1_554 S
C738 C737 1.366 1_556 S
C738 C742 1.385 . S
C739 H714 0.951 1_556 S
C739 C737 1.388 1_556 S
C739 C740 1.366 . S
C740 C739 1.366 . S
C740 C741 1.414 . S
C740 C743 1.499 . S
C741 H715 0.950 . S
C741 C740 1.414 . S
C741 C742 1.374 . S
C742 H716 0.950 . S
C742 C738 1.385 . S
C742 C741 1.374 . S
C743 C740 1.499 . S
C743 C744 1.373 . S
C743 C745 1.389 . S
C744 H717 0.950 . S
C744 C730 1.377 . S
C744 C743 1.373 . S
C745 C729 1.377 . S
C745 C743 1.389 . S
C745 C746 1.524 . S
C746 C745 1.524 . S
C746 C747 1.397 . S
C746 C751 1.363 1_556 S
C747 H718 0.950 . S
C747 C746 1.397 . S
C747 C748 1.334 1_556 S
C748 H719 0.950 . S
C748 C747 1.334 1_554 S
C748 C749 1.287 . S
C749 C748 1.287 . S
C749 C750 1.524 . S
C749 H752 0.999 . S
C750 H720 0.950 . S
C750 C749 1.524 . S
C750 C751 1.415 . S
C751 H721 0.950 . S
C751 C746 1.363 1_554 S
C751 C750 1.415 . S
H752 C749 0.999 . S
H753 C734 0.913 . S
H754 C772 0.951 . S
H755 C774 0.951 . S
H756 C776 0.950 . S
H757 C777 0.950 . S
H758 C779 0.950 . S
H759 C782 0.950 . S
H760 C783 0.950 . S
H761 C785 0.950 . S
H762 C786 0.950 . S
H763 C787 0.951 . S
H764 C789 0.951 . S
H765 C791 0.950 . S
H766 C792 0.950 . S
H767 C794 0.950 . S
H768 C797 0.950 . S
H769 C798 0.950 . S
H770 C800 0.950 . S
H771 C801 0.950 . S
C772 H754 0.951 . S
C772 C773 1.366 . S
C772 C774 1.388 . S
C773 C772 1.366 . S
C773 C777 1.385 . S
C774 H755 0.951 . S
C774 C772 1.388 . S
C774 C775 1.366 . S
C775 C774 1.366 . S
C775 C776 1.414 . S
C775 C778 1.499 . S
C776 H756 0.950 . S
C776 C775 1.414 . S
C776 C777 1.374 . S
C777 H757 0.950 . S
C777 C773 1.385 . S
C777 C776 1.374 . S
C778 C775 1.499 . S
C778 C779 1.373 . S
C778 C780 1.389 . S
C779 H758 0.950 . S
C779 C778 1.373 . S
C779 C795 1.377 . S
C780 C778 1.389 . S
C780 C781 1.524 . S
C780 C794 1.377 . S
C781 C780 1.524 . S
C781 C782 1.397 . S
C781 C786 1.363 . S
C782 H759 0.950 . S
C782 C781 1.397 . S
C782 C783 1.334 . S
C783 H760 0.950 . S
C783 C782 1.334 . S
C783 C784 1.287 . S
C784 C783 1.287 . S
C784 C785 1.524 . S
C784 H803 0.913 . S
C785 H761 0.950 . S
C785 C784 1.524 . S
C785 C786 1.415 . S
C786 H762 0.950 . S
C786 C781 1.363 . S
C786 C785 1.415 . S
C787 H763 0.951 . S
C787 C788 1.366 . S
C787 C789 1.388 . S
C788 C787 1.366 . S
C788 C792 1.385 . S
C789 H764 0.951 . S
C789 C787 1.388 . S
C789 C790 1.366 . S
C790 C789 1.366 . S
C790 C791 1.414 . S
C790 C793 1.499 . S
C791 H765 0.950 . S
C791 C790 1.414 . S
C791 C792 1.374 . S
C792 H766 0.950 . S
C792 C788 1.385 . S
C792 C791 1.374 . S
C793 C790 1.499 . S
C793 C794 1.373 . S
C793 C795 1.389 . S
C794 H767 0.950 . S
C794 C780 1.377 . S
C794 C793 1.373 . S
C795 C779 1.377 . S
C795 C793 1.389 . S
C795 C796 1.524 . S
C796 C795 1.524 . S
C796 C797 1.397 . S
C796 C801 1.363 . S
C797 H768 0.950 . S
C797 C796 1.397 . S
C797 C798 1.334 . S
C798 H769 0.950 . S
C798 C797 1.334 . S
C798 C799 1.287 . S
C799 C798 1.287 . S
C799 C800 1.524 . S
C799 H802 0.999 . S
C800 H770 0.950 . S
C800 C799 1.524 . S
C800 C801 1.415 . S
C801 H771 0.950 . S
C801 C796 1.363 . S
C801 C800 1.415 . S
H802 C799 0.999 . S
H803 C784 0.913 . S
H804 C822 0.951 . S
H805 C824 0.951 . S
H806 C826 0.950 . S
H807 C827 0.950 . S
H808 C829 0.950 . S
H809 C832 0.950 . S
H810 C833 0.950 . S
H811 C835 0.950 . S
H812 C836 0.950 . S
H813 C837 0.951 1_655 S
H814 C839 0.951 . S
H815 C841 0.950 . S
H816 C842 0.950 . S
H817 C844 0.950 . S
H818 C847 0.950 . S
H819 C848 0.950 . S
H820 C850 0.950 1_655 S
H821 C851 0.950 . S
C822 H804 0.951 . S
C822 C823 1.366 . S
C822 C824 1.388 . S
C823 C822 1.366 . S
C823 C827 1.385 . S
C824 H805 0.951 . S
C824 C822 1.388 . S
C824 C825 1.366 . S
C825 C824 1.366 . S
C825 C826 1.414 . S
C825 C828 1.499 . S
C826 H806 0.950 . S
C826 C825 1.414 . S
C826 C827 1.374 . S
C827 H807 0.950 . S
C827 C823 1.385 . S
C827 C826 1.374 . S
C828 C825 1.499 . S
C828 C829 1.373 . S
C828 C830 1.389 . S
C829 H808 0.950 . S
C829 C828 1.373 . S
C829 C845 1.377 . S
C830 C828 1.389 . S
C830 C831 1.524 . S
C830 C844 1.377 . S
C831 C830 1.524 . S
C831 C832 1.397 . S
C831 C836 1.363 . S
C832 H809 0.950 . S
C832 C831 1.397 . S
C832 C833 1.334 . S
C833 H810 0.950 . S
C833 C832 1.334 . S
C833 C834 1.287 . S
C834 C833 1.287 . S
C834 C835 1.524 . S
C834 H853 0.913 . S
C835 H811 0.950 . S
C835 C834 1.524 . S
C835 C836 1.415 . S
C836 H812 0.950 . S
C836 C831 1.363 . S
C836 C835 1.415 . S
C837 H813 0.951 1_455 S
C837 C838 1.366 . S
C837 C839 1.388 . S
C838 C837 1.366 . S
C838 C842 1.385 . S
C839 H814 0.951 . S
C839 C837 1.388 . S
C839 C840 1.366 . S
C840 C839 1.366 . S
C840 C841 1.414 . S
C840 C843 1.499 . S
C841 H815 0.950 . S
C841 C840 1.414 . S
C841 C842 1.374 . S
C842 H816 0.950 . S
C842 C838 1.385 . S
C842 C841 1.374 . S
C843 C840 1.499 . S
C843 C844 1.373 . S
C843 C845 1.389 . S
C844 H817 0.950 . S
C844 C830 1.377 . S
C844 C843 1.373 . S
C845 C829 1.377 . S
C845 C843 1.389 . S
C845 C846 1.524 . S
C846 C845 1.524 . S
C846 C847 1.397 1_554 S
C846 C851 1.363 . S
C847 H818 0.950 . S
C847 C846 1.397 1_556 S
C847 C848 1.334 . S
C848 H819 0.950 . S
C848 C847 1.334 . S
C848 C849 1.287 . S
C849 C848 1.287 . S
C849 C850 1.524 . S
C849 H852 0.999 . S
C850 H820 0.950 1_455 S
C850 C849 1.524 . S
C850 C851 1.415 1_556 S
C851 H821 0.950 . S
C851 C846 1.363 . S
C851 C850 1.415 1_554 S
H852 C849 0.999 . S
H853 C834 0.913 . S
H854 C872 0.951 . S
H855 C874 0.951 . S
H856 C876 0.950 . S
H857 C877 0.950 . S
H858 C879 0.950 . S
H859 C882 0.950 . S
H860 C883 0.950 . S
H861 C885 0.950 . S
H862 C886 0.950 . S
H863 C887 0.951 . S
H864 C889 0.951 . S
H865 C891 0.950 . S
H866 C892 0.950 . S
H867 C894 0.950 . S
H868 C897 0.950 . S
H869 C898 0.950 . S
H870 C900 0.950 . S
H871 C901 0.950 . S
C872 H854 0.951 . S
C872 C873 1.366 . S
C872 C874 1.388 . S
C873 C872 1.366 . S
C873 C877 1.385 . S
C874 H855 0.951 . S
C874 C872 1.388 . S
C874 C875 1.366 . S
C875 C874 1.366 . S
C875 C876 1.414 . S
C875 C878 1.499 . S
C876 H856 0.950 . S
C876 C875 1.414 . S
C876 C877 1.374 . S
C877 H857 0.950 . S
C877 C873 1.385 . S
C877 C876 1.374 . S
C878 C875 1.499 . S
C878 C879 1.373 . S
C878 C880 1.389 . S
C879 H858 0.950 . S
C879 C878 1.373 . S
C879 C895 1.377 . S
C880 C878 1.389 . S
C880 C881 1.524 . S
C880 C894 1.377 . S
C881 C880 1.524 . S
C881 C882 1.397 . S
C881 C886 1.363 . S
C882 H859 0.950 . S
C882 C881 1.397 . S
C882 C883 1.334 . S
C883 H860 0.950 . S
C883 C882 1.334 . S
C883 C884 1.287 . S
C884 C883 1.287 . S
C884 C885 1.524 . S
C884 H903 0.913 . S
C885 H861 0.950 . S
C885 C884 1.524 . S
C885 C886 1.415 . S
C886 H862 0.950 . S
C886 C881 1.363 . S
C886 C885 1.415 . S
C887 H863 0.951 . S
C887 C888 1.366 . S
C887 C889 1.388 . S
C888 C887 1.366 . S
C888 C892 1.385 . S
C889 H864 0.951 . S
C889 C887 1.388 . S
C889 C890 1.366 . S
C890 C889 1.366 . S
C890 C891 1.414 . S
C890 C893 1.499 . S
C891 H865 0.950 . S
C891 C890 1.414 . S
C891 C892 1.374 . S
C892 H866 0.950 . S
C892 C888 1.385 . S
C892 C891 1.374 . S
C893 C890 1.499 . S
C893 C894 1.373 . S
C893 C895 1.389 . S
C894 H867 0.950 . S
C894 C880 1.377 . S
C894 C893 1.373 . S
C895 C879 1.377 . S
C895 C893 1.389 . S
C895 C896 1.524 . S
C896 C895 1.524 . S
C896 C897 1.397 1_556 S
C896 C901 1.363 . S
C897 H868 0.950 . S
C897 C896 1.397 1_554 S
C897 C898 1.334 . S
C898 H869 0.950 . S
C898 C897 1.334 . S
C898 C899 1.287 . S
C899 C898 1.287 . S
C899 C900 1.524 . S
C899 H902 0.999 . S
C900 H870 0.950 . S
C900 C899 1.524 . S
C900 C901 1.415 1_554 S
C901 H871 0.950 . S
C901 C896 1.363 . S
C901 C900 1.415 1_556 S
H902 C899 0.999 . S
H903 C884 0.913 . S
H904 C922 0.951 . S
H905 C924 0.951 . S
H906 C926 0.950 . S
H907 C927 0.950 . S
H908 C929 0.950 . S
H909 C932 0.950 . S
H910 C933 0.950 . S
H911 C935 0.950 . S
H912 C936 0.950 . S
H913 C937 0.951 1_455 S
H914 C939 0.951 . S
H915 C941 0.950 . S
H916 C942 0.950 . S
H917 C944 0.950 . S
H918 C947 0.950 . S
H919 C948 0.950 . S
H920 C950 0.950 . S
H921 C951 0.950 . S
C922 H904 0.951 . S
C922 C923 1.366 . S
C922 C924 1.388 . S
C923 C922 1.366 . S
C923 C927 1.385 . S
C924 H905 0.951 . S
C924 C922 1.388 . S
C924 C925 1.366 . S
C925 C924 1.366 . S
C925 C926 1.414 . S
C925 C928 1.499 . S
C926 H906 0.950 . S
C926 C925 1.414 . S
C926 C927 1.374 . S
C927 H907 0.950 . S
C927 C923 1.385 . S
C927 C926 1.374 . S
C928 C925 1.499 . S
C928 C929 1.373 . S
C928 C930 1.389 . S
C929 H908 0.950 . S
C929 C928 1.373 . S
C929 C945 1.377 . S
C930 C928 1.389 . S
C930 C931 1.524 . S
C930 C944 1.377 . S
C931 C930 1.524 . S
C931 C932 1.397 . S
C931 C936 1.363 . S
C932 H909 0.950 . S
C932 C931 1.397 . S
C932 C933 1.334 . S
C933 H910 0.950 . S
C933 C932 1.334 . S
C933 C934 1.287 . S
C934 C933 1.287 . S
C934 C935 1.524 . S
C934 H953 0.913 . S
C935 H911 0.950 . S
C935 C934 1.524 . S
C935 C936 1.415 . S
C936 H912 0.950 . S
C936 C931 1.363 . S
C936 C935 1.415 . S
C937 H913 0.951 1_655 S
C937 C938 1.366 . S
C937 C939 1.388 . S
C938 C937 1.366 . S
C938 C942 1.385 . S
C939 H914 0.951 . S
C939 C937 1.388 . S
C939 C940 1.366 . S
C940 C939 1.366 . S
C940 C941 1.414 . S
C940 C943 1.499 . S
C941 H915 0.950 . S
C941 C940 1.414 . S
C941 C942 1.374 . S
C942 H916 0.950 . S
C942 C938 1.385 . S
C942 C941 1.374 . S
C943 C940 1.499 . S
C943 C944 1.373 . S
C943 C945 1.389 . S
C944 H917 0.950 . S
C944 C930 1.377 . S
C944 C943 1.373 . S
C945 C929 1.377 . S
C945 C943 1.389 . S
C945 C946 1.524 . S
C946 C945 1.524 . S
C946 C947 1.397 . S
C946 C951 1.363 1_655 S
C947 H918 0.950 . S
C947 C946 1.397 . S
C947 C948 1.334 . S
C948 H919 0.950 . S
C948 C947 1.334 . S
C948 C949 1.287 1_655 S
C949 C948 1.287 1_455 S
C949 C950 1.524 . S
C949 H952 0.999 . S
C950 H920 0.950 . S
C950 C949 1.524 . S
C950 C951 1.415 . S
C951 H921 0.950 . S
C951 C946 1.363 1_455 S
C951 C950 1.415 . S
H952 C949 0.999 . S
H953 C934 0.913 . S
H954 C972 0.951 . S
H955 C974 0.951 . S
H956 C976 0.950 . S
H957 C977 0.950 . S
H958 C979 0.950 . S
H959 C982 0.950 . S
H960 C983 0.950 . S
H961 C985 0.950 . S
H962 C986 0.950 . S
H963 C987 0.951 . S
H964 C989 0.951 . S
H965 C991 0.950 . S
H966 C992 0.950 . S
H967 C994 0.950 . S
H968 C997 0.950 . S
H969 C998 0.950 . S
H970 C1000 0.950 . S
H971 C1001 0.950 . S
C972 H954 0.951 . S
C972 C973 1.366 . S
C972 C974 1.388 . S
C973 C972 1.366 . S
C973 C977 1.385 . S
C974 H955 0.951 . S
C974 C972 1.388 . S
C974 C975 1.366 . S
C975 C974 1.366 . S
C975 C976 1.414 . S
C975 C978 1.499 . S
C976 H956 0.950 . S
C976 C975 1.414 . S
C976 C977 1.374 . S
C977 H957 0.950 . S
C977 C973 1.385 . S
C977 C976 1.374 . S
C978 C975 1.499 . S
C978 C979 1.373 . S
C978 C980 1.389 . S
C979 H958 0.950 . S
C979 C978 1.373 . S
C979 C995 1.377 . S
C980 C978 1.389 . S
C980 C981 1.524 . S
C980 C994 1.377 . S
C981 C980 1.524 . S
C981 C982 1.397 . S
C981 C986 1.363 . S
C982 H959 0.950 . S
C982 C981 1.397 . S
C982 C983 1.334 . S
C983 H960 0.950 . S
C983 C982 1.334 . S
C983 C984 1.287 . S
C984 C983 1.287 . S
C984 C985 1.524 . S
C984 H1003 0.913 . S
C985 H961 0.950 . S
C985 C984 1.524 . S
C985 C986 1.415 . S
C986 H962 0.950 . S
C986 C981 1.363 . S
C986 C985 1.415 . S
C987 H963 0.951 . S
C987 C988 1.366 . S
C987 C989 1.388 . S
C988 C987 1.366 . S
C988 C992 1.385 . S
C989 H964 0.951 . S
C989 C987 1.388 . S
C989 C990 1.366 . S
C990 C989 1.366 . S
C990 C991 1.414 . S
C990 C993 1.499 . S
C991 H965 0.950 . S
C991 C990 1.414 . S
C991 C992 1.374 . S
C992 H966 0.950 . S
C992 C988 1.385 . S
C992 C991 1.374 . S
C993 C990 1.499 . S
C993 C994 1.373 . S
C993 C995 1.389 . S
C994 H967 0.950 . S
C994 C980 1.377 . S
C994 C993 1.373 . S
C995 C979 1.377 . S
C995 C993 1.389 . S
C995 C996 1.524 . S
C996 C995 1.524 . S
C996 C997 1.397 . S
C996 C1001 1.363 . S
C997 H968 0.950 . S
C997 C996 1.397 . S
C997 C998 1.334 . S
C998 H969 0.950 . S
C998 C997 1.334 . S
C998 C999 1.287 . S
C999 C998 1.287 . S
C999 C1000 1.524 . S
C999 H1002 0.999 . S
C1000 H970 0.950 . S
C1000 C999 1.524 . S
C1000 C1001 1.415 . S
C1001 H971 0.950 . S
C1001 C996 1.363 . S
C1001 C1000 1.415 . S
H1002 C999 0.999 . S
H1003 C984 0.913 . S
H1004 C1022 0.951 . S
H1005 C1024 0.951 . S
H1006 C1026 0.950 . S
H1007 C1027 0.950 . S
H1008 C1029 0.950 . S
H1009 C1032 0.950 . S
H1010 C1033 0.950 . S
H1011 C1035 0.950 . S
H1012 C1036 0.950 . S
H1013 C1037 0.951 . S
H1014 C1039 0.951 . S
H1015 C1041 0.926 1_455 S
H1016 C1042 0.950 1_455 S
H1017 C1044 0.950 . S
H1018 C1047 0.950 . S
H1019 C1048 0.950 . S
H1020 C1050 0.950 . S
H1021 C1051 0.950 . S
C1022 H1004 0.951 . S
C1022 C1023 1.366 . S
C1022 C1024 1.388 . S
C1023 C1022 1.366 . S
C1023 C1027 1.385 . S
C1024 H1005 0.951 . S
C1024 C1022 1.388 . S
C1024 C1025 1.366 . S
C1025 C1024 1.366 . S
C1025 C1026 1.414 . S
C1025 C1028 1.499 . S
C1026 H1006 0.950 . S
C1026 C1025 1.414 . S
C1026 C1027 1.374 . S
C1027 H1007 0.950 . S
C1027 C1023 1.385 . S
C1027 C1026 1.374 . S
C1028 C1025 1.499 . S
C1028 C1029 1.373 . S
C1028 C1030 1.389 . S
C1029 H1008 0.950 . S
C1029 C1028 1.373 . S
C1029 C1045 1.377 . S
C1030 C1028 1.389 . S
C1030 C1031 1.524 . S
C1030 C1044 1.377 . S
C1031 C1030 1.524 . S
C1031 C1032 1.397 . S
C1031 C1036 1.363 1_655 S
C1032 H1009 0.950 . S
C1032 C1031 1.397 . S
C1032 C1033 1.334 1_565 S
C1033 H1010 0.950 . S
C1033 C1032 1.334 1_545 S
C1033 C1034 1.287 1_655 S
C1034 C1033 1.287 1_455 S
C1034 C1035 1.524 1_545 S
C1034 H1053 0.913 . S
C1035 H1011 0.950 . S
C1035 C1034 1.524 1_565 S
C1035 C1036 1.415 . S
C1036 H1012 0.950 . S
C1036 C1031 1.363 1_455 S
C1036 C1035 1.415 . S
C1037 H1013 0.951 . S
C1037 C1038 1.366 . S
C1037 C1039 1.388 . S
C1038 C1037 1.366 . S
C1038 C1042 1.385 . S
C1039 H1014 0.951 . S
C1039 C1037 1.388 . S
C1039 C1040 1.366 . S
C1040 C1039 1.366 . S
C1040 C1041 1.414 . S
C1040 C1043 1.499 . S
C1041 H1015 0.926 1_655 S
C1041 C1040 1.414 . S
C1041 C1042 1.374 . S
C1042 H1016 0.950 1_655 S
C1042 C1038 1.385 . S
C1042 C1041 1.374 . S
C1043 C1040 1.499 . S
C1043 C1044 1.373 . S
C1043 C1045 1.389 . S
C1044 H1017 0.950 . S
C1044 C1030 1.377 . S
C1044 C1043 1.373 . S
C1045 C1029 1.377 . S
C1045 C1043 1.389 . S
C1045 C1046 1.524 . S
C1046 C1045 1.524 . S
C1046 C1047 1.397 . S
C1046 C1051 1.363 . S
C1047 H1018 0.950 . S
C1047 C1046 1.397 . S
C1047 C1048 1.334 . S
C1048 H1019 0.950 . S
C1048 C1047 1.334 . S
C1048 C1049 1.287 . S
C1049 C1048 1.287 . S
C1049 C1050 1.524 . S
C1049 H1052 0.999 . S
C1050 H1020 0.950 . S
C1050 C1049 1.524 . S
C1050 C1051 1.415 . S
C1051 H1021 0.950 . S
C1051 C1046 1.363 . S
C1051 C1050 1.415 . S
H1052 C1049 0.999 . S
H1053 C1034 0.913 . S
H1054 C1072 0.951 . S
H1055 C1074 0.951 . S
H1056 C1076 0.950 . S
H1057 C1077 0.950 . S
H1058 C1079 0.950 . S
H1059 C1082 0.950 . S
H1060 C1083 0.950 . S
H1061 C1085 0.950 . S
H1062 C1086 0.950 . S
H1063 C1087 0.951 . S
H1064 C1089 0.951 . S
H1065 C1091 0.950 . S
H1066 C1092 0.950 . S
H1067 C1094 0.950 . S
H1068 C1097 0.950 . S
H1069 C1098 0.950 . S
H1070 C1100 0.950 . S
H1071 C1101 0.950 . S
C1072 H1054 0.951 . S
C1072 C1073 1.366 . S
C1072 C1074 1.388 . S
C1073 C1072 1.366 . S
C1073 C1077 1.385 . S
C1074 H1055 0.951 . S
C1074 C1072 1.388 . S
C1074 C1075 1.366 . S
C1075 C1074 1.366 . S
C1075 C1076 1.414 . S
C1075 C1078 1.499 . S
C1076 H1056 0.950 . S
C1076 C1075 1.414 . S
C1076 C1077 1.374 . S
C1077 H1057 0.950 . S
C1077 C1073 1.385 . S
C1077 C1076 1.374 . S
C1078 C1075 1.499 . S
C1078 C1079 1.373 . S
C1078 C1080 1.389 . S
C1079 H1058 0.950 . S
C1079 C1078 1.373 . S
C1079 C1095 1.377 . S
C1080 C1078 1.389 . S
C1080 C1081 1.524 . S
C1080 C1094 1.377 . S
C1081 C1080 1.524 . S
C1081 C1082 1.397 . S
C1081 C1086 1.363 . S
C1082 H1059 0.950 . S
C1082 C1081 1.397 . S
C1082 C1083 1.334 . S
C1083 H1060 0.950 . S
C1083 C1082 1.334 . S
C1083 C1084 1.287 . S
C1084 C1083 1.287 . S
C1084 C1085 1.524 . S
C1084 H1103 0.913 . S
C1085 H1061 0.950 . S
C1085 C1084 1.524 . S
C1085 C1086 1.415 . S
C1086 H1062 0.950 . S
C1086 C1081 1.363 . S
C1086 C1085 1.415 . S
C1087 H1063 0.951 . S
C1087 C1088 1.366 . S
C1087 C1089 1.388 . S
C1088 C1087 1.366 . S
C1088 C1092 1.385 . S
C1089 H1064 0.951 . S
C1089 C1087 1.388 . S
C1089 C1090 1.366 . S
C1090 C1089 1.366 . S
C1090 C1091 1.414 . S
C1090 C1093 1.499 . S
C1091 H1065 0.950 . S
C1091 C1090 1.414 . S
C1091 C1092 1.374 . S
C1092 H1066 0.950 . S
C1092 C1088 1.385 . S
C1092 C1091 1.374 . S
C1093 C1090 1.499 . S
C1093 C1094 1.373 . S
C1093 C1095 1.389 . S
C1094 H1067 0.950 . S
C1094 C1080 1.377 . S
C1094 C1093 1.373 . S
C1095 C1079 1.377 . S
C1095 C1093 1.389 . S
C1095 C1096 1.524 . S
C1096 C1095 1.524 . S
C1096 C1097 1.397 . S
C1096 C1101 1.363 . S
C1097 H1068 0.950 . S
C1097 C1096 1.397 . S
C1097 C1098 1.334 . S
C1098 H1069 0.950 . S
C1098 C1097 1.334 . S
C1098 C1099 1.287 . S
C1099 C1098 1.287 . S
C1099 C1100 1.524 . S
C1099 H1102 0.999 . S
C1100 H1070 0.950 . S
C1100 C1099 1.524 . S
C1100 C1101 1.415 . S
C1101 H1071 0.950 . S
C1101 C1096 1.363 . S
C1101 C1100 1.415 . S
H1102 C1099 0.999 . S
H1103 C1084 0.913 . S
H1104 C1122 0.951 . S
H1105 C1124 0.951 . S
H1106 C1126 0.950 . S
H1107 C1127 0.950 . S
H1108 C1129 0.950 . S
H1109 C1132 0.950 . S
H1110 C1133 0.950 . S
H1111 C1135 0.950 . S
H1112 C1136 0.950 . S
H1113 C1137 0.951 . S
H1114 C1139 0.951 . S
H1115 C1141 0.950 . S
H1116 C1142 0.950 . S
H1117 C1144 0.950 . S
H1118 C1147 0.950 . S
H1119 C1148 0.950 . S
H1120 C1150 0.950 . S
H1121 C1151 0.950 . S
C1122 H1104 0.951 . S
C1122 C1123 1.366 . S
C1122 C1124 1.388 . S
C1123 C1122 1.366 . S
C1123 C1127 1.385 . S
C1124 H1105 0.951 . S
C1124 C1122 1.388 . S
C1124 C1125 1.366 . S
C1125 C1124 1.366 . S
C1125 C1126 1.414 . S
C1125 C1128 1.499 . S
C1126 H1106 0.950 . S
C1126 C1125 1.414 . S
C1126 C1127 1.374 . S
C1127 H1107 0.950 . S
C1127 C1123 1.385 . S
C1127 C1126 1.374 . S
C1128 C1125 1.499 . S
C1128 C1129 1.373 . S
C1128 C1130 1.389 . S
C1129 H1108 0.950 . S
C1129 C1128 1.373 . S
C1129 C1145 1.377 . S
C1130 C1128 1.389 . S
C1130 C1131 1.524 . S
C1130 C1144 1.377 . S
C1131 C1130 1.524 . S
C1131 C1132 1.397 . S
C1131 C1136 1.363 . S
C1132 H1109 0.950 . S
C1132 C1131 1.397 . S
C1132 C1133 1.334 . S
C1133 H1110 0.950 . S
C1133 C1132 1.334 . S
C1133 C1134 1.287 . S
C1134 C1133 1.287 . S
C1134 C1135 1.524 . S
C1134 H1153 0.913 . S
C1135 H1111 0.950 . S
C1135 C1134 1.524 . S
C1135 C1136 1.415 . S
C1136 H1112 0.950 . S
C1136 C1131 1.363 . S
C1136 C1135 1.415 . S
C1137 H1113 0.951 . S
C1137 C1138 1.366 . S
C1137 C1139 1.388 . S
C1138 C1137 1.366 . S
C1138 C1142 1.385 . S
C1139 H1114 0.951 . S
C1139 C1137 1.388 . S
C1139 C1140 1.366 . S
C1140 C1139 1.366 . S
C1140 C1141 1.414 . S
C1140 C1143 1.499 . S
C1141 H1115 0.950 . S
C1141 C1140 1.414 . S
C1141 C1142 1.374 . S
C1142 H1116 0.950 . S
C1142 C1138 1.385 . S
C1142 C1141 1.374 . S
C1143 C1140 1.499 . S
C1143 C1144 1.373 . S
C1143 C1145 1.389 . S
C1144 H1117 0.950 . S
C1144 C1130 1.377 . S
C1144 C1143 1.373 . S
C1145 C1129 1.377 . S
C1145 C1143 1.389 . S
C1145 C1146 1.524 . S
C1146 C1145 1.524 . S
C1146 C1147 1.397 . S
C1146 C1151 1.363 . S
C1147 H1118 0.950 . S
C1147 C1146 1.397 . S
C1147 C1148 1.334 . S
C1148 H1119 0.950 . S
C1148 C1147 1.334 . S
C1148 C1149 1.287 . S
C1149 C1148 1.287 . S
C1149 C1150 1.524 . S
C1149 H1152 0.999 . S
C1150 H1120 0.950 . S
C1150 C1149 1.524 . S
C1150 C1151 1.415 . S
C1151 H1121 0.950 . S
C1151 C1146 1.363 . S
C1151 C1150 1.415 . S
H1152 C1149 0.999 . S
H1153 C1134 0.913 . S
H1154 C1172 0.951 . S
H1155 C1174 0.951 . S
H1156 C1176 0.950 . S
H1157 C1177 0.950 . S
H1158 C1179 0.950 . S
H1159 C1182 0.950 . S
H1160 C1183 0.950 . S
H1161 C1185 0.950 . S
H1162 C1186 0.950 . S
H1163 C1187 0.951 . S
H1164 C1189 0.951 . S
H1165 C1191 0.950 . S
H1166 C1192 0.950 1_655 S
H1167 C1194 0.950 . S
H1168 C1197 0.950 . S
H1169 C1198 0.950 . S
H1170 C1200 0.950 . S
H1171 C1201 0.950 . S
C1172 H1154 0.951 . S
C1172 C1173 1.366 . S
C1172 C1174 1.388 . S
C1173 C1172 1.366 . S
C1173 C1177 1.385 . S
C1174 H1155 0.951 . S
C1174 C1172 1.388 . S
C1174 C1175 1.366 . S
C1175 C1174 1.366 . S
C1175 C1176 1.414 . S
C1175 C1178 1.499 . S
C1176 H1156 0.950 . S
C1176 C1175 1.414 . S
C1176 C1177 1.374 . S
C1177 H1157 0.950 . S
C1177 C1173 1.385 . S
C1177 C1176 1.374 . S
C1178 C1175 1.499 . S
C1178 C1179 1.373 . S
C1178 C1180 1.389 . S
C1179 H1158 0.950 . S
C1179 C1178 1.373 . S
C1179 C1195 1.377 . S
C1180 C1178 1.389 . S
C1180 C1181 1.524 . S
C1180 C1194 1.377 . S
C1181 C1180 1.524 . S
C1181 C1182 1.397 . S
C1181 C1186 1.363 1_455 S
C1182 H1159 0.950 . S
C1182 C1181 1.397 . S
C1182 C1183 1.334 . S
C1183 H1160 0.950 . S
C1183 C1182 1.334 . S
C1183 C1184 1.287 1_455 S
C1184 C1183 1.287 1_655 S
C1184 C1185 1.524 . S
C1184 H1203 0.913 . S
C1185 H1161 0.950 . S
C1185 C1184 1.524 . S
C1185 C1186 1.415 . S
C1186 H1162 0.950 . S
C1186 C1181 1.363 1_655 S
C1186 C1185 1.415 . S
C1187 H1163 0.951 . S
C1187 C1188 1.366 . S
C1187 C1189 1.388 . S
C1188 C1187 1.366 . S
C1188 C1192 1.385 . S
C1189 H1164 0.951 . S
C1189 C1187 1.388 . S
C1189 C1190 1.366 . S
C1190 C1189 1.366 . S
C1190 C1191 1.414 . S
C1190 C1193 1.499 . S
C1191 H1165 0.950 . S
C1191 C1190 1.414 . S
C1191 C1192 1.374 . S
C1192 H1166 0.950 1_455 S
C1192 C1188 1.385 . S
C1192 C1191 1.374 . S
C1193 C1190 1.499 . S
C1193 C1194 1.373 . S
C1193 C1195 1.389 . S
C1194 H1167 0.950 . S
C1194 C1180 1.377 . S
C1194 C1193 1.373 . S
C1195 C1179 1.377 . S
C1195 C1193 1.389 . S
C1195 C1196 1.524 . S
C1196 C1195 1.524 . S
C1196 C1197 1.397 . S
C1196 C1201 1.363 . S
C1197 H1168 0.950 . S
C1197 C1196 1.397 . S
C1197 C1198 1.334 . S
C1198 H1169 0.950 . S
C1198 C1197 1.334 . S
C1198 C1199 1.287 . S
C1199 C1198 1.287 . S
C1199 C1200 1.524 . S
C1199 H1202 0.999 . S
C1200 H1170 0.950 . S
C1200 C1199 1.524 . S
C1200 C1201 1.415 . S
C1201 H1171 0.950 . S
C1201 C1196 1.363 . S
C1201 C1200 1.415 . S
H1202 C1199 0.999 . S
H1203 C1184 0.913 . S
H1204 C1222 0.951 . S
H1205 C1224 0.951 . S
H1206 C1226 0.950 . S
H1207 C1227 0.950 . S
H1208 C1229 0.950 . S
H1209 C1232 0.950 . S
H1210 C1233 0.950 . S
H1211 C1235 0.950 . S
H1212 C1236 0.950 . S
H1213 C1237 0.951 . S
H1214 C1239 0.951 1_545 S
H1215 C1241 0.950 . S
H1216 C1242 0.950 . S
H1217 C1244 0.950 . S
H1218 C1247 0.950 . S
H1219 C1248 0.950 . S
H1220 C1250 0.950 . S
H1221 C1251 0.950 1_556 S
C1222 H1204 0.951 . S
C1222 C1223 1.366 . S
C1222 C1224 1.388 . S
C1223 C1222 1.366 . S
C1223 C1227 1.385 . S
C1224 H1205 0.951 . S
C1224 C1222 1.388 . S
C1224 C1225 1.366 . S
C1225 C1224 1.366 . S
C1225 C1226 1.414 . S
C1225 C1228 1.499 . S
C1226 H1206 0.950 . S
C1226 C1225 1.414 . S
C1226 C1227 1.374 . S
C1227 H1207 0.950 . S
C1227 C1223 1.385 . S
C1227 C1226 1.374 . S
C1228 C1225 1.499 . S
C1228 C1229 1.373 . S
C1228 C1230 1.389 . S
C1229 H1208 0.950 . S
C1229 C1228 1.373 . S
C1229 C1245 1.377 . S
C1230 C1228 1.389 . S
C1230 C1231 1.524 . S
C1230 C1244 1.377 . S
C1231 C1230 1.524 . S
C1231 C1232 1.397 . S
C1231 C1236 1.363 . S
C1232 H1209 0.950 . S
C1232 C1231 1.397 . S
C1232 C1233 1.334 . S
C1233 H1210 0.950 . S
C1233 C1232 1.334 . S
C1233 C1234 1.287 . S
C1234 C1233 1.287 . S
C1234 C1235 1.524 . S
C1234 H1253 0.913 . S
C1235 H1211 0.950 . S
C1235 C1234 1.524 . S
C1235 C1236 1.415 . S
C1236 H1212 0.950 . S
C1236 C1231 1.363 . S
C1236 C1235 1.415 . S
C1237 H1213 0.951 . S
C1237 C1238 1.366 1_545 S
C1237 C1239 1.388 1_545 S
C1238 C1237 1.366 1_565 S
C1238 C1242 1.385 . S
C1239 H1214 0.951 1_565 S
C1239 C1237 1.388 1_565 S
C1239 C1240 1.366 . S
C1240 C1239 1.366 . S
C1240 C1241 1.414 . S
C1240 C1243 1.499 . S
C1241 H1215 0.950 . S
C1241 C1240 1.414 . S
C1241 C1242 1.374 . S
C1242 H1216 0.950 . S
C1242 C1238 1.385 . S
C1242 C1241 1.374 . S
C1243 C1240 1.499 . S
C1243 C1244 1.373 . S
C1243 C1245 1.389 . S
C1244 H1217 0.950 . S
C1244 C1230 1.377 . S
C1244 C1243 1.373 . S
C1245 C1229 1.377 . S
C1245 C1243 1.389 . S
C1245 C1246 1.524 1_556 S
C1246 C1245 1.524 1_554 S
C1246 C1247 1.397 . S
C1246 C1251 1.363 1_565 S
C1247 H1218 0.950 . S
C1247 C1246 1.397 . S
C1247 C1248 1.334 . S
C1248 H1219 0.950 . S
C1248 C1247 1.334 . S
C1248 C1249 1.287 1_565 S
C1249 C1248 1.287 1_545 S
C1249 C1250 1.524 . S
C1249 H1252 0.999 . S
C1250 H1220 0.950 . S
C1250 C1249 1.524 . S
C1250 C1251 1.415 . S
C1251 H1221 0.950 1_554 S
C1251 C1246 1.363 1_545 S
C1251 C1250 1.415 . S
H1252 C1249 0.999 . S
H1253 C1234 0.913 . S
H1254 C1272 0.951 . S
H1255 C1274 0.951 . S
H1256 C1276 0.950 . S
H1257 C1277 0.950 . S
H1258 C1279 0.950 . S
H1259 C1282 0.950 . S
H1260 C1283 0.950 . S
H1261 C1285 0.950 . S
H1262 C1286 0.950 . S
H1263 C1287 0.951 . S
H1264 C1289 0.951 . S
H1265 C1291 0.950 . S
H1266 C1292 0.950 . S
H1267 C1294 0.950 . S
H1268 C1297 0.950 . S
H1269 C1298 0.950 . S
H1270 C1300 0.950 . S
H1271 C1301 0.950 . S
C1272 H1254 0.951 . S
C1272 C1273 1.366 . S
C1272 C1274 1.388 . S
C1273 C1272 1.366 . S
C1273 C1277 1.385 . S
C1274 H1255 0.951 . S
C1274 C1272 1.388 . S
C1274 C1275 1.366 . S
C1275 C1274 1.366 . S
C1275 C1276 1.414 . S
C1275 C1278 1.499 . S
C1276 H1256 0.950 . S
C1276 C1275 1.414 . S
C1276 C1277 1.374 . S
C1277 H1257 0.950 . S
C1277 C1273 1.385 . S
C1277 C1276 1.374 . S
C1278 C1275 1.499 . S
C1278 C1279 1.373 . S
C1278 C1280 1.389 . S
C1279 H1258 0.950 . S
C1279 C1278 1.373 . S
C1279 C1295 1.377 . S
C1280 C1278 1.389 . S
C1280 C1281 1.524 . S
C1280 C1294 1.377 . S
C1281 C1280 1.524 . S
C1281 C1282 1.397 . S
C1281 C1286 1.363 . S
C1282 H1259 0.950 . S
C1282 C1281 1.397 . S
C1282 C1283 1.334 . S
C1283 H1260 0.950 . S
C1283 C1282 1.334 . S
C1283 C1284 1.287 . S
C1284 C1283 1.287 . S
C1284 C1285 1.524 . S
C1284 H1303 0.913 . S
C1285 H1261 0.950 . S
C1285 C1284 1.524 . S
C1285 C1286 1.415 . S
C1286 H1262 0.950 . S
C1286 C1281 1.363 . S
C1286 C1285 1.415 . S
C1287 H1263 0.951 . S
C1287 C1288 1.366 . S
C1287 C1289 1.388 . S
C1288 C1287 1.366 . S
C1288 C1292 1.385 . S
C1289 H1264 0.951 . S
C1289 C1287 1.388 . S
C1289 C1290 1.366 . S
C1290 C1289 1.366 . S
C1290 C1291 1.414 . S
C1290 C1293 1.499 . S
C1291 H1265 0.950 . S
C1291 C1290 1.414 . S
C1291 C1292 1.374 . S
C1292 H1266 0.950 . S
C1292 C1288 1.385 . S
C1292 C1291 1.374 . S
C1293 C1290 1.499 . S
C1293 C1294 1.373 . S
C1293 C1295 1.389 . S
C1294 H1267 0.950 . S
C1294 C1280 1.377 . S
C1294 C1293 1.373 . S
C1295 C1279 1.377 . S
C1295 C1293 1.389 . S
C1295 C1296 1.524 . S
C1296 C1295 1.524 . S
C1296 C1297 1.397 . S
C1296 C1301 1.363 . S
C1297 H1268 0.950 . S
C1297 C1296 1.397 . S
C1297 C1298 1.334 . S
C1298 H1269 0.950 . S
C1298 C1297 1.334 . S
C1298 C1299 1.287 . S
C1299 C1298 1.287 . S
C1299 C1300 1.524 1_545 S
C1299 H1302 0.999 1_545 S
C1300 H1270 0.950 . S
C1300 C1299 1.524 1_565 S
C1300 C1301 1.415 1_565 S
C1301 H1271 0.950 . S
C1301 C1296 1.363 . S
C1301 C1300 1.415 1_545 S
H1302 C1299 0.999 1_565 S
H1303 C1284 0.913 . S
H1304 C1322 0.951 . S
H1305 C1324 0.951 . S
H1306 C1326 0.950 . S
H1307 C1327 0.950 . S
H1308 C1329 0.950 . S
H1309 C1332 0.950 . S
H1310 C1333 0.950 . S
H1311 C1335 0.950 . S
H1312 C1336 0.950 . S
H1313 C1337 0.981 . S
H1314 C1339 0.951 . S
H1315 C1341 0.950 . S
H1316 C1342 0.950 . S
H1317 C1344 0.950 . S
H1318 C1347 0.950 . S
H1319 C1348 0.950 . S
H1320 C1350 0.950 . S
H1321 C1351 0.950 . S
C1322 H1304 0.951 . S
C1322 C1323 1.366 . S
C1322 C1324 1.388 . S
C1323 C1322 1.366 . S
C1323 C1327 1.385 . S
C1324 H1305 0.951 . S
C1324 C1322 1.388 . S
C1324 C1325 1.366 . S
C1325 C1324 1.366 . S
C1325 C1326 1.414 . S
C1325 C1328 1.499 . S
C1326 H1306 0.950 . S
C1326 C1325 1.414 . S
C1326 C1327 1.374 . S
C1327 H1307 0.950 . S
C1327 C1323 1.385 . S
C1327 C1326 1.374 . S
C1328 C1325 1.499 . S
C1328 C1329 1.373 . S
C1328 C1330 1.389 . S
C1329 H1308 0.950 . S
C1329 C1328 1.373 . S
C1329 C1345 1.377 . S
C1330 C1328 1.389 . S
C1330 C1331 1.524 . S
C1330 C1344 1.377 . S
C1331 C1330 1.524 . S
C1331 C1332 1.397 . S
C1331 C1336 1.363 . S
C1332 H1309 0.950 . S
C1332 C1331 1.397 . S
C1332 C1333 1.334 . S
C1333 H1310 0.950 . S
C1333 C1332 1.334 . S
C1333 C1334 1.287 . S
C1334 C1333 1.287 . S
C1334 C1335 1.524 . S
C1334 H1353 0.913 . S
C1335 H1311 0.950 . S
C1335 C1334 1.524 . S
C1335 C1336 1.415 . S
C1336 H1312 0.950 . S
C1336 C1331 1.363 . S
C1336 C1335 1.415 . S
C1337 H1313 0.981 . S
C1337 C1338 1.366 . S
C1337 C1339 1.388 . S
C1338 C1337 1.366 . S
C1338 C1342 1.385 . S
C1339 H1314 0.951 . S
C1339 C1337 1.388 . S
C1339 C1340 1.366 . S
C1340 C1339 1.366 . S
C1340 C1341 1.414 . S
C1340 C1343 1.499 . S
C1341 H1315 0.950 . S
C1341 C1340 1.414 . S
C1341 C1342 1.374 . S
C1342 H1316 0.950 . S
C1342 C1338 1.385 . S
C1342 C1341 1.374 . S
C1343 C1340 1.499 . S
C1343 C1344 1.373 . S
C1343 C1345 1.389 . S
C1344 H1317 0.950 . S
C1344 C1330 1.377 . S
C1344 C1343 1.373 . S
C1345 C1329 1.377 . S
C1345 C1343 1.389 . S
C1345 C1346 1.524 . S
C1346 C1345 1.524 . S
C1346 C1347 1.397 . S
C1346 C1351 1.363 . S
C1347 H1318 0.950 . S
C1347 C1346 1.397 . S
C1347 C1348 1.334 . S
C1348 H1319 0.950 . S
C1348 C1347 1.334 . S
C1348 C1349 1.287 . S
C1349 C1348 1.287 . S
C1349 C1350 1.524 . S
C1349 H1352 0.999 . S
C1350 H1320 0.950 . S
C1350 C1349 1.524 . S
C1350 C1351 1.415 . S
C1351 H1321 0.950 . S
C1351 C1346 1.363 . S
C1351 C1350 1.415 . S
H1352 C1349 0.999 . S
H1353 C1334 0.913 . S
H1354 C1372 0.951 . S
H1355 C1374 0.951 . S
H1356 C1376 0.950 . S
H1357 C1377 0.950 . S
H1358 C1379 0.950 . S
H1359 C1382 0.950 . S
H1360 C1383 0.950 . S
H1361 C1385 0.950 . S
H1362 C1386 0.950 . S
H1363 C1387 0.951 . S
H1364 C1389 0.951 . S
H1365 C1391 0.950 . S
H1366 C1392 0.950 . S
H1367 C1394 0.950 . S
H1368 C1397 0.950 . S
H1369 C1398 0.950 . S
H1370 C1400 0.950 . S
H1371 C1401 0.950 . S
C1372 H1354 0.951 . S
C1372 C1373 1.366 . S
C1372 C1374 1.388 . S
C1373 C1372 1.366 . S
C1373 C1377 1.385 . S
C1374 H1355 0.951 . S
C1374 C1372 1.388 . S
C1374 C1375 1.366 . S
C1375 C1374 1.366 . S
C1375 C1376 1.414 . S
C1375 C1378 1.499 . S
C1376 H1356 0.950 . S
C1376 C1375 1.414 . S
C1376 C1377 1.374 . S
C1377 H1357 0.950 . S
C1377 C1373 1.385 . S
C1377 C1376 1.374 . S
C1378 C1375 1.499 . S
C1378 C1379 1.373 . S
C1378 C1380 1.389 . S
C1379 H1358 0.950 . S
C1379 C1378 1.373 . S
C1379 C1395 1.377 . S
C1380 C1378 1.389 . S
C1380 C1381 1.524 . S
C1380 C1394 1.377 . S
C1381 C1380 1.524 . S
C1381 C1382 1.397 . S
C1381 C1386 1.363 . S
C1382 H1359 0.950 . S
C1382 C1381 1.397 . S
C1382 C1383 1.334 . S
C1383 H1360 0.950 . S
C1383 C1382 1.334 . S
C1383 C1384 1.287 . S
C1384 C1383 1.287 . S
C1384 C1385 1.524 . S
C1384 H1403 0.913 . S
C1385 H1361 0.950 . S
C1385 C1384 1.524 . S
C1385 C1386 1.415 . S
C1386 H1362 0.950 . S
C1386 C1381 1.363 . S
C1386 C1385 1.415 . S
C1387 H1363 0.951 . S
C1387 C1388 1.366 . S
C1387 C1389 1.388 . S
C1388 C1387 1.366 . S
C1388 C1392 1.385 . S
C1389 H1364 0.951 . S
C1389 C1387 1.388 . S
C1389 C1390 1.366 . S
C1390 C1389 1.366 . S
C1390 C1391 1.414 . S
C1390 C1393 1.499 . S
C1391 H1365 0.950 . S
C1391 C1390 1.414 . S
C1391 C1392 1.374 . S
C1392 H1366 0.950 . S
C1392 C1388 1.385 . S
C1392 C1391 1.374 . S
C1393 C1390 1.499 . S
C1393 C1394 1.373 . S
C1393 C1395 1.389 . S
C1394 H1367 0.950 . S
C1394 C1380 1.377 . S
C1394 C1393 1.373 . S
C1395 C1379 1.377 . S
C1395 C1393 1.389 . S
C1395 C1396 1.524 . S
C1396 C1395 1.524 . S
C1396 C1397 1.397 . S
C1396 C1401 1.363 . S
C1397 H1368 0.950 . S
C1397 C1396 1.397 . S
C1397 C1398 1.334 . S
C1398 H1369 0.950 . S
C1398 C1397 1.334 . S
C1398 C1399 1.287 . S
C1399 C1398 1.287 . S
C1399 C1400 1.524 . S
C1399 H1402 0.999 . S
C1400 H1370 0.950 . S
C1400 C1399 1.524 . S
C1400 C1401 1.415 . S
C1401 H1371 0.950 . S
C1401 C1396 1.363 . S
C1401 C1400 1.415 . S
H1402 C1399 0.999 . S
H1403 C1384 0.913 . S
H1404 C1422 0.951 . S
H1405 C1424 0.951 . S
H1406 C1426 0.950 . S
H1407 C1427 0.950 . S
H1408 C1429 0.950 . S
H1409 C1432 0.950 . S
H1410 C1433 0.950 . S
H1411 C1435 0.950 . S
H1412 C1436 0.950 . S
H1413 C1437 0.951 . S
H1414 C1439 0.951 . S
H1415 C1441 0.940 1_554 S
H1416 C1442 0.950 1_554 S
H1417 C1444 0.950 . S
H1418 C1447 0.965 . S
H1419 C1448 0.950 1_554 S
H1420 C1450 0.950 . S
H1421 C1451 0.950 . S
C1422 H1404 0.951 . S
C1422 C1423 1.366 . S
C1422 C1424 1.388 . S
C1423 C1422 1.366 . S
C1423 C1427 1.385 . S
C1424 H1405 0.951 . S
C1424 C1422 1.388 . S
C1424 C1425 1.366 . S
C1425 C1424 1.366 . S
C1425 C1426 1.414 . S
C1425 C1428 1.499 . S
C1426 H1406 0.950 . S
C1426 C1425 1.414 . S
C1426 C1427 1.374 . S
C1427 H1407 0.950 . S
C1427 C1423 1.385 . S
C1427 C1426 1.374 . S
C1428 C1425 1.499 . S
C1428 C1429 1.373 . S
C1428 C1430 1.389 . S
C1429 H1408 0.950 . S
C1429 C1428 1.373 . S
C1429 C1445 1.377 . S
C1430 C1428 1.389 . S
C1430 C1431 1.524 . S
C1430 C1444 1.377 . S
C1431 C1430 1.524 . S
C1431 C1432 1.397 . S
C1431 C1436 1.363 1_655 S
C1432 H1409 0.950 . S
C1432 C1431 1.397 . S
C1432 C1433 1.334 1_655 S
C1433 H1410 0.950 . S
C1433 C1432 1.334 1_455 S
C1433 C1434 1.287 . S
C1434 C1433 1.287 . S
C1434 C1435 1.524 . S
C1434 H1453 0.913 . S
C1435 H1411 0.950 . S
C1435 C1434 1.524 . S
C1435 C1436 1.415 . S
C1436 H1412 0.950 . S
C1436 C1431 1.363 1_455 S
C1436 C1435 1.415 . S
C1437 H1413 0.951 . S
C1437 C1438 1.366 . S
C1437 C1439 1.388 . S
C1438 C1437 1.366 . S
C1438 C1442 1.385 . S
C1439 H1414 0.951 . S
C1439 C1437 1.388 . S
C1439 C1440 1.366 . S
C1440 C1439 1.366 . S
C1440 C1441 1.414 . S
C1440 C1443 1.499 . S
C1441 H1415 0.940 1_556 S
C1441 C1440 1.414 . S
C1441 C1442 1.374 . S
C1442 H1416 0.950 1_556 S
C1442 C1438 1.385 . S
C1442 C1441 1.374 . S
C1443 C1440 1.499 . S
C1443 C1444 1.373 . S
C1443 C1445 1.389 . S
C1444 H1417 0.950 . S
C1444 C1430 1.377 . S
C1444 C1443 1.373 . S
C1445 C1429 1.377 . S
C1445 C1443 1.389 . S
C1445 C1446 1.524 . S
C1446 C1445 1.524 . S
C1446 C1447 1.397 . S
C1446 C1451 1.363 . S
C1447 H1418 0.965 . S
C1447 C1446 1.397 . S
C1447 C1448 1.334 . S
C1448 H1419 0.950 1_556 S
C1448 C1447 1.334 . S
C1448 C1449 1.287 . S
C1449 C1448 1.287 . S
C1449 C1450 1.524 . S
C1449 H1452 0.999 . S
C1450 H1420 0.950 . S
C1450 C1449 1.524 . S
C1450 C1451 1.415 . S
C1451 H1421 0.950 . S
C1451 C1446 1.363 . S
C1451 C1450 1.415 . S
H1452 C1449 0.999 . S
H1453 C1434 0.913 . S
H1454 C1472 0.951 . S
H1455 C1474 0.951 . S
H1456 C1476 0.950 . S
H1457 C1477 0.950 . S
H1458 C1479 0.950 . S
H1459 C1482 0.950 . S
H1460 C1483 0.950 . S
H1461 C1485 0.950 . S
H1462 C1486 0.950 . S
H1463 C1487 0.951 . S
H1464 C1489 0.951 . S
H1465 C1491 0.950 . S
H1466 C1492 0.950 . S
H1467 C1494 0.950 . S
H1468 C1497 0.950 . S
H1469 C1498 0.950 1_556 S
H1470 C1500 0.950 . S
H1471 C1501 0.950 . S
C1472 H1454 0.951 . S
C1472 C1473 1.366 . S
C1472 C1474 1.388 . S
C1473 C1472 1.366 . S
C1473 C1477 1.385 . S
C1474 H1455 0.951 . S
C1474 C1472 1.388 . S
C1474 C1475 1.366 . S
C1475 C1474 1.366 . S
C1475 C1476 1.414 . S
C1475 C1478 1.499 . S
C1476 H1456 0.950 . S
C1476 C1475 1.414 . S
C1476 C1477 1.374 . S
C1477 H1457 0.950 . S
C1477 C1473 1.385 . S
C1477 C1476 1.374 . S
C1478 C1475 1.499 . S
C1478 C1479 1.373 . S
C1478 C1480 1.389 . S
C1479 H1458 0.950 . S
C1479 C1478 1.373 . S
C1479 C1495 1.377 . S
C1480 C1478 1.389 . S
C1480 C1481 1.524 . S
C1480 C1494 1.377 . S
C1481 C1480 1.524 . S
C1481 C1482 1.397 . S
C1481 C1486 1.363 . S
C1482 H1459 0.950 . S
C1482 C1481 1.397 . S
C1482 C1483 1.334 . S
C1483 H1460 0.950 . S
C1483 C1482 1.334 . S
C1483 C1484 1.287 . S
C1484 C1483 1.287 . S
C1484 C1485 1.524 . S
C1484 H1503 0.913 . S
C1485 H1461 0.950 . S
C1485 C1484 1.524 . S
C1485 C1486 1.415 . S
C1486 H1462 0.950 . S
C1486 C1481 1.363 . S
C1486 C1485 1.415 . S
C1487 H1463 0.951 . S
C1487 C1488 1.366 . S
C1487 C1489 1.388 . S
C1488 C1487 1.366 . S
C1488 C1492 1.385 . S
C1489 H1464 0.951 . S
C1489 C1487 1.388 . S
C1489 C1490 1.366 . S
C1490 C1489 1.366 . S
C1490 C1491 1.414 . S
C1490 C1493 1.499 . S
C1491 H1465 0.950 . S
C1491 C1490 1.414 . S
C1491 C1492 1.374 . S
C1492 H1466 0.950 . S
C1492 C1488 1.385 . S
C1492 C1491 1.374 . S
C1493 C1490 1.499 . S
C1493 C1494 1.373 . S
C1493 C1495 1.389 . S
C1494 H1467 0.950 . S
C1494 C1480 1.377 . S
C1494 C1493 1.373 . S
C1495 C1479 1.377 . S
C1495 C1493 1.389 . S
C1495 C1496 1.524 . S
C1496 C1495 1.524 . S
C1496 C1497 1.397 . S
C1496 C1501 1.363 . S
C1497 H1468 0.950 . S
C1497 C1496 1.397 . S
C1497 C1498 1.334 . S
C1498 H1469 0.950 1_554 S
C1498 C1497 1.334 . S
C1498 C1499 1.287 . S
C1499 C1498 1.287 . S
C1499 C1500 1.524 . S
C1499 H1502 0.999 . S
C1500 H1470 0.950 . S
C1500 C1499 1.524 . S
C1500 C1501 1.415 . S
C1501 H1471 0.950 . S
C1501 C1496 1.363 . S
C1501 C1500 1.415 . S
H1502 C1499 0.999 . S
H1503 C1484 0.913 . S
H1504 C1522 0.951 . S
H1505 C1524 0.951 . S
H1506 C1526 0.950 . S
H1507 C1527 0.950 . S
H1508 C1529 0.950 . S
H1509 C1532 0.950 . S
H1510 C1533 0.950 . S
H1511 C1535 0.950 . S
H1512 C1536 0.950 . S
H1513 C1537 0.951 . S
H1514 C1539 0.951 . S
H1515 C1541 0.950 . S
H1516 C1542 0.950 1_655 S
H1517 C1544 0.950 . S
H1518 C1547 0.950 . S
H1519 C1548 0.950 . S
H1520 C1550 0.950 . S
H1521 C1551 0.950 . S
C1522 H1504 0.951 . S
C1522 C1523 1.366 . S
C1522 C1524 1.388 . S
C1523 C1522 1.366 . S
C1523 C1527 1.385 . S
C1524 H1505 0.951 . S
C1524 C1522 1.388 . S
C1524 C1525 1.366 . S
C1525 C1524 1.366 . S
C1525 C1526 1.414 . S
C1525 C1528 1.499 . S
C1526 H1506 0.950 . S
C1526 C1525 1.414 . S
C1526 C1527 1.374 . S
C1527 H1507 0.950 . S
C1527 C1523 1.385 . S
C1527 C1526 1.374 . S
C1528 C1525 1.499 . S
C1528 C1529 1.373 . S
C1528 C1530 1.389 . S
C1529 H1508 0.950 . S
C1529 C1528 1.373 . S
C1529 C1545 1.377 . S
C1530 C1528 1.389 . S
C1530 C1531 1.524 . S
C1530 C1544 1.377 . S
C1531 C1530 1.524 . S
C1531 C1532 1.397 . S
C1531 C1536 1.363 . S
C1532 H1509 0.950 . S
C1532 C1531 1.397 . S
C1532 C1533 1.334 . S
C1533 H1510 0.950 . S
C1533 C1532 1.334 . S
C1533 C1534 1.287 . S
C1534 C1533 1.287 . S
C1534 C1535 1.524 . S
C1534 H1553 0.913 . S
C1535 H1511 0.950 . S
C1535 C1534 1.524 . S
C1535 C1536 1.415 . S
C1536 H1512 0.950 . S
C1536 C1531 1.363 . S
C1536 C1535 1.415 . S
C1537 H1513 0.951 . S
C1537 C1538 1.366 . S
C1537 C1539 1.388 . S
C1538 C1537 1.366 . S
C1538 C1542 1.385 . S
C1539 H1514 0.951 . S
C1539 C1537 1.388 . S
C1539 C1540 1.366 . S
C1540 C1539 1.366 . S
C1540 C1541 1.414 . S
C1540 C1543 1.499 . S
C1541 H1515 0.950 . S
C1541 C1540 1.414 . S
C1541 C1542 1.374 . S
C1542 H1516 0.950 1_455 S
C1542 C1538 1.385 . S
C1542 C1541 1.374 . S
C1543 C1540 1.499 . S
C1543 C1544 1.373 . S
C1543 C1545 1.389 . S
C1544 H1517 0.950 . S
C1544 C1530 1.377 . S
C1544 C1543 1.373 . S
C1545 C1529 1.377 . S
C1545 C1543 1.389 . S
C1545 C1546 1.524 . S
C1546 C1545 1.524 . S
C1546 C1547 1.397 1_455 S
C1546 C1551 1.363 . S
C1547 H1518 0.950 . S
C1547 C1546 1.397 1_655 S
C1547 C1548 1.334 . S
C1548 H1519 0.950 . S
C1548 C1547 1.334 . S
C1548 C1549 1.287 . S
C1549 C1548 1.287 . S
C1549 C1550 1.524 1_655 S
C1549 H1552 0.999 . S
C1550 H1520 0.950 . S
C1550 C1549 1.524 1_455 S
C1550 C1551 1.415 . S
C1551 H1521 0.950 . S
C1551 C1546 1.363 . S
C1551 C1550 1.415 . S
H1552 C1549 0.999 . S
H1553 C1534 0.913 . S
H1554 C1572 0.951 . S
H1555 C1574 0.951 . S
H1556 C1576 0.950 . S
H1557 C1577 0.950 . S
H1558 C1579 0.950 . S
H1559 C1582 0.950 . S
H1560 C1583 0.950 . S
H1561 C1585 0.950 . S
H1562 C1586 0.950 . S
H1563 C1587 0.951 . S
H1564 C1589 0.951 . S
H1565 C1591 0.950 . S
H1566 C1592 0.950 . S
H1567 C1594 0.950 . S
H1568 C1597 0.950 . S
H1569 C1598 0.950 . S
H1570 C1600 0.950 . S
H1571 C1601 0.950 . S
C1572 H1554 0.951 . S
C1572 C1573 1.366 . S
C1572 C1574 1.388 . S
C1573 C1572 1.366 . S
C1573 C1577 1.385 . S
C1574 H1555 0.951 . S
C1574 C1572 1.388 . S
C1574 C1575 1.366 . S
C1575 C1574 1.366 . S
C1575 C1576 1.414 . S
C1575 C1578 1.499 . S
C1576 H1556 0.950 . S
C1576 C1575 1.414 . S
C1576 C1577 1.374 . S
C1577 H1557 0.950 . S
C1577 C1573 1.385 . S
C1577 C1576 1.374 . S
C1578 C1575 1.499 . S
C1578 C1579 1.373 . S
C1578 C1580 1.389 . S
C1579 H1558 0.950 . S
C1579 C1578 1.373 . S
C1579 C1595 1.377 . S
C1580 C1578 1.389 . S
C1580 C1581 1.524 . S
C1580 C1594 1.377 . S
C1581 C1580 1.524 . S
C1581 C1582 1.397 . S
C1581 C1586 1.363 . S
C1582 H1559 0.950 . S
C1582 C1581 1.397 . S
C1582 C1583 1.334 . S
C1583 H1560 0.950 . S
C1583 C1582 1.334 . S
C1583 C1584 1.287 . S
C1584 C1583 1.287 . S
C1584 C1585 1.524 . S
C1584 H1603 0.913 . S
C1585 H1561 0.950 . S
C1585 C1584 1.524 . S
C1585 C1586 1.415 . S
C1586 H1562 0.950 . S
C1586 C1581 1.363 . S
C1586 C1585 1.415 . S
C1587 H1563 0.951 . S
C1587 C1588 1.366 . S
C1587 C1589 1.388 . S
C1588 C1587 1.366 . S
C1588 C1592 1.385 . S
C1589 H1564 0.951 . S
C1589 C1587 1.388 . S
C1589 C1590 1.366 . S
C1590 C1589 1.366 . S
C1590 C1591 1.414 . S
C1590 C1593 1.499 . S
C1591 H1565 0.950 . S
C1591 C1590 1.414 . S
C1591 C1592 1.374 . S
C1592 H1566 0.950 . S
C1592 C1588 1.385 . S
C1592 C1591 1.374 . S
C1593 C1590 1.499 . S
C1593 C1594 1.373 . S
C1593 C1595 1.389 . S
C1594 H1567 0.950 . S
C1594 C1580 1.377 . S
C1594 C1593 1.373 . S
C1595 C1579 1.377 . S
C1595 C1593 1.389 . S
C1595 C1596 1.524 . S
C1596 C1595 1.524 . S
C1596 C1597 1.397 . S
C1596 C1601 1.363 . S
C1597 H1568 0.950 . S
C1597 C1596 1.397 . S
C1597 C1598 1.334 . S
C1598 H1569 0.950 . S
C1598 C1597 1.334 . S
C1598 C1599 1.287 . S
C1599 C1598 1.287 . S
C1599 C1600 1.524 . S
C1599 H1602 0.999 . S
C1600 H1570 0.950 . S
C1600 C1599 1.524 . S
C1600 C1601 1.415 . S
C1601 H1571 0.950 . S
C1601 C1596 1.363 . S
C1601 C1600 1.415 . S
H1602 C1599 0.999 . S
H1603 C1584 0.913 . S
C423 C21 1.707 . S
C438 C338 1.654 . S
C473 C61 1.518 . S
C488 C355 1.509 . S
C538 C378 1.120 . S
C523 C82 1.343 . S
C573 C135 1.908 . S
C588 C399 1.572 . S
C638 C358 1.846 . S
C623 C15 1.894 . S
C688 C335 1.757 . S
C673 C42 1.765 . S
C738 C397 1.262 . S
C723 C101 1.320 . S
C788 C376 1.406 . S
C773 C122 1.456 . S
C823 C2 1.889 . S
C838 C400 1.836 . S
C888 C357 1.299 . S
C873 C95 1.586 . S
C923 C141 1.788 . S
C938 C333 1.595 . S
C973 C55 1.526 . S
C988 C379 1.516 . S
C1038 C337 1.683 . S
C1023 C181 1.709 . S
C1073 C202 1.255 . S
C1088 C356 1.251 . S
C1123 C255 1.468 . S
C1138 C375 1.239 . S
C1173 C295 1.776 . S
C1188 C396 1.452 . S
C1223 C175 1.848 . S
C1238 C359 1.820 . S
C1288 C334 1.870 . S
C1273 C221 1.885 . S
C1338 C398 1.063 . S
C1323 C242 1.085 . S
C1388 C377 1.614 . S
C1373 C301 1.675 . S
C1423 C162 1.564 . S
C1438 C401 1.566 . S
C1488 C354 1.225 . S
C1473 C261 1.434 . S
C1538 C336 1.307 . S
C1523 C282 1.470 . S
C1573 C215 1.512 . S
C1588 C380 1.496 . S
