# Generated by pormake.
# Topology ocu, (6,8)-cn, num edge types: 1
# Building blocks:
#     Node 0, Type 0, BuildingBlock: BETDEL_clean_sbu_0, # of connection points: 6
#     Node 1, Type 0, BuildingBlock: BETDEL_clean_sbu_0, # of connection points: 6
#     Node 2, Type 0, BuildingBlock: BETDEL_clean_sbu_0, # of connection points: 6
#     Node 3, Type 0, BuildingBlock: BETDEL_clean_sbu_0, # of connection points: 6
#     Node 4, Type 0, BuildingBlock: BETDEL_clean_sbu_0, # of connection points: 6
#     Node 5, Type 0, BuildingBlock: BETDEL_clean_sbu_0, # of connection points: 6
#     Node 6, Type 0, BuildingBlock: BETDEL_clean_sbu_0, # of connection points: 6
#     Node 7, Type 0, BuildingBlock: BETDEL_clean_sbu_0, # of connection points: 6
#     Node 8, Type 1, BuildingBlock: TAGTUT_clean_sbu_1, # of connection points: 8
#     Node 9, Type 1, BuildingBlock: TAGTUT_clean_sbu_1, # of connection points: 8
#     Node 10, Type 1, BuildingBlock: TAGTUT_clean_sbu_1, # of connection points: 8
#     Node 11, Type 1, BuildingBlock: TAGTUT_clean_sbu_1, # of connection points: 8
#     Node 12, Type 1, BuildingBlock: TAGTUT_clean_sbu_1, # of connection points: 8
#     Node 13, Type 1, BuildingBlock: TAGTUT_clean_sbu_1, # of connection points: 8
#     Edge 14, Type (0, 1), BuildingBlock: ZUJKAS_clean_linker_0, # of connection points: 2
#     Edge 15, Type (0, 1), BuildingBlock: ZUJKAS_clean_linker_0, # of connection points: 2
#     Edge 16, Type (0, 1), BuildingBlock: ZUJKAS_clean_linker_0, # of connection points: 2
#     Edge 17, Type (0, 1), BuildingBlock: ZUJKAS_clean_linker_0, # of connection points: 2
#     Edge 18, Type (0, 1), BuildingBlock: ZUJKAS_clean_linker_0, # of connection points: 2
#     Edge 19, Type (0, 1), BuildingBlock: ZUJKAS_clean_linker_0, # of connection points: 2
#     Edge 20, Type (0, 1), BuildingBlock: ZUJKAS_clean_linker_0, # of connection points: 2
#     Edge 21, Type (0, 1), BuildingBlock: ZUJKAS_clean_linker_0, # of connection points: 2
#     Edge 22, Type (0, 1), BuildingBlock: ZUJKAS_clean_linker_0, # of connection points: 2
#     Edge 23, Type (0, 1), BuildingBlock: ZUJKAS_clean_linker_0, # of connection points: 2
#     Edge 24, Type (0, 1), BuildingBlock: ZUJKAS_clean_linker_0, # of connection points: 2
#     Edge 25, Type (0, 1), BuildingBlock: ZUJKAS_clean_linker_0, # of connection points: 2
#     Edge 26, Type (0, 1), BuildingBlock: ZUJKAS_clean_linker_0, # of connection points: 2
#     Edge 27, Type (0, 1), BuildingBlock: ZUJKAS_clean_linker_0, # of connection points: 2
#     Edge 28, Type (0, 1), BuildingBlock: ZUJKAS_clean_linker_0, # of connection points: 2
#     Edge 29, Type (0, 1), BuildingBlock: ZUJKAS_clean_linker_0, # of connection points: 2
#     Edge 30, Type (0, 1), BuildingBlock: ZUJKAS_clean_linker_0, # of connection points: 2
#     Edge 31, Type (0, 1), BuildingBlock: ZUJKAS_clean_linker_0, # of connection points: 2
#     Edge 32, Type (0, 1), BuildingBlock: ZUJKAS_clean_linker_0, # of connection points: 2
#     Edge 33, Type (0, 1), BuildingBlock: ZUJKAS_clean_linker_0, # of connection points: 2
#     Edge 34, Type (0, 1), BuildingBlock: ZUJKAS_clean_linker_0, # of connection points: 2
#     Edge 35, Type (0, 1), BuildingBlock: ZUJKAS_clean_linker_0, # of connection points: 2
#     Edge 36, Type (0, 1), BuildingBlock: ZUJKAS_clean_linker_0, # of connection points: 2
#     Edge 37, Type (0, 1), BuildingBlock: ZUJKAS_clean_linker_0, # of connection points: 2
#     Edge 38, Type (0, 1), BuildingBlock: ZUJKAS_clean_linker_0, # of connection points: 2
#     Edge 39, Type (0, 1), BuildingBlock: ZUJKAS_clean_linker_0, # of connection points: 2
#     Edge 40, Type (0, 1), BuildingBlock: ZUJKAS_clean_linker_0, # of connection points: 2
#     Edge 41, Type (0, 1), BuildingBlock: ZUJKAS_clean_linker_0, # of connection points: 2
#     Edge 42, Type (0, 1), BuildingBlock: ZUJKAS_clean_linker_0, # of connection points: 2
#     Edge 43, Type (0, 1), BuildingBlock: ZUJKAS_clean_linker_0, # of connection points: 2
#     Edge 44, Type (0, 1), BuildingBlock: ZUJKAS_clean_linker_0, # of connection points: 2
#     Edge 45, Type (0, 1), BuildingBlock: ZUJKAS_clean_linker_0, # of connection points: 2
#     Edge 46, Type (0, 1), BuildingBlock: ZUJKAS_clean_linker_0, # of connection points: 2
#     Edge 47, Type (0, 1), BuildingBlock: ZUJKAS_clean_linker_0, # of connection points: 2
#     Edge 48, Type (0, 1), BuildingBlock: ZUJKAS_clean_linker_0, # of connection points: 2
#     Edge 49, Type (0, 1), BuildingBlock: ZUJKAS_clean_linker_0, # of connection points: 2
#     Edge 50, Type (0, 1), BuildingBlock: ZUJKAS_clean_linker_0, # of connection points: 2
#     Edge 51, Type (0, 1), BuildingBlock: ZUJKAS_clean_linker_0, # of connection points: 2
#     Edge 52, Type (0, 1), BuildingBlock: ZUJKAS_clean_linker_0, # of connection points: 2
#     Edge 53, Type (0, 1), BuildingBlock: ZUJKAS_clean_linker_0, # of connection points: 2
#     Edge 54, Type (0, 1), BuildingBlock: ZUJKAS_clean_linker_0, # of connection points: 2
#     Edge 55, Type (0, 1), BuildingBlock: ZUJKAS_clean_linker_0, # of connection points: 2
#     Edge 56, Type (0, 1), BuildingBlock: ZUJKAS_clean_linker_0, # of connection points: 2
#     Edge 57, Type (0, 1), BuildingBlock: ZUJKAS_clean_linker_0, # of connection points: 2
#     Edge 58, Type (0, 1), BuildingBlock: ZUJKAS_clean_linker_0, # of connection points: 2
#     Edge 59, Type (0, 1), BuildingBlock: ZUJKAS_clean_linker_0, # of connection points: 2
#     Edge 60, Type (0, 1), BuildingBlock: ZUJKAS_clean_linker_0, # of connection points: 2
#     Edge 61, Type (0, 1), BuildingBlock: ZUJKAS_clean_linker_0, # of connection points: 2
# Relax obj value: 0.092
# Max RMSD: 0.255
# Mean RMSD: 0.153
data_MOF--net-ocu--node1-BETDEL_clean_sbu_0--node2-TAGTUT_clean_sbu_1--edge1-ZUJKAS_clean_linker_0
_symmetry_space_group_name_H-M    P1
_symmetry_Int_Tables_number       1
_symmetry_cell_setting            triclinic
loop_
_symmetry_equiv_pos_as_xyz
'x, y, z'
_cell_length_a     48.127092
_cell_length_b     46.792872
_cell_length_c     49.006051
_cell_angle_alpha  91.756214
_cell_angle_beta   93.770248
_cell_angle_gamma 104.96624
loop_
_atom_site_label
_atom_site_type_symbol
_atom_site_fract_x
_atom_site_fract_y
_atom_site_fract_z
_atom_type_partial_charge
Dy0 Dy 0.2764 0.24001 0.26812 0.0
C1 C 0.20721 0.27748 0.18644 0.0
C2 C 0.30329 0.21109 0.30429 0.0
Dy3 Dy 0.23578 0.24952 0.22206 0.0
O4 O 0.31324 0.23854 0.29829 0.0
O5 O 0.27832 0.19989 0.29121 0.0
O6 O 0.30625 0.28498 0.26361 0.0
O7 O 0.28243 0.26097 0.22915 0.0
C8 C 0.29936 0.28543 0.23753 0.0
C9 C 0.21285 0.20442 0.25326 0.0
O10 O 0.25945 0.22355 0.19708 0.0
O11 O 0.28179 0.20741 0.23468 0.0
O12 O 0.19851 0.24975 0.19198 0.0
O13 O 0.23201 0.28948 0.19955 0.0
O14 O 0.20604 0.20449 0.22713 0.0
O15 O 0.2298 0.22898 0.26117 0.0
O16 O 0.25318 0.26665 0.2929 0.0
O17 O 0.23097 0.28267 0.25516 0.0
C18 C 0.27527 0.20662 0.20779 0.0
C19 C 0.23756 0.2837 0.28204 0.0
Dy20 Dy 0.78246 0.23471 0.25446 0.0
C21 C 0.69173 0.28049 0.20491 0.0
C22 C 0.82513 0.21732 0.28325 0.0
Dy23 Dy 0.73223 0.25906 0.23277 0.0
O24 O 0.82422 0.22176 0.25728 0.0
O25 O 0.80251 0.22217 0.29367 0.0
O26 O 0.78783 0.21868 0.21172 0.0
O27 O 0.7472 0.22036 0.22298 0.0
C28 C 0.76118 0.21604 0.20326 0.0
C29 C 0.75219 0.2757 0.28459 0.0
O30 O 0.70678 0.21713 0.24876 0.0
O31 O 0.74486 0.20561 0.27406 0.0
O32 O 0.7095 0.29449 0.22489 0.0
O33 O 0.69627 0.25473 0.19975 0.0
O34 O 0.72533 0.27158 0.27584 0.0
O35 O 0.76709 0.27306 0.26495 0.0
O36 O 0.80568 0.27951 0.24252 0.0
O37 O 0.76983 0.28386 0.21039 0.0
C38 C 0.71686 0.20128 0.26702 0.0
C39 C 0.79706 0.29182 0.22072 0.0
Dy40 Dy 0.73599 0.747 0.26627 0.0
C41 C 0.7971 0.73659 0.17165 0.0
C42 C 0.71438 0.75813 0.31411 0.0
Dy43 Dy 0.77509 0.74745 0.21939 0.0
O44 O 0.70024 0.73972 0.29453 0.0
O45 O 0.74035 0.77032 0.30759 0.0
O46 O 0.7018 0.71015 0.2441 0.0
O47 O 0.74564 0.71341 0.23982 0.0
C48 C 0.72032 0.6998 0.23148 0.0
C49 C 0.79078 0.79431 0.25464 0.0
O50 O 0.73876 0.76401 0.19849 0.0
O51 O 0.71719 0.77495 0.23709 0.0
O52 O 0.80955 0.75761 0.18977 0.0
O53 O 0.77258 0.7216 0.17957 0.0
O54 O 0.80935 0.78373 0.24229 0.0
O55 O 0.76551 0.78097 0.24592 0.0
O56 O 0.77211 0.73009 0.28713 0.0
O57 O 0.7948 0.72042 0.24879 0.0
C58 C 0.71971 0.77575 0.21019 0.0
C59 C 0.79177 0.71912 0.27559 0.0
Dy60 Dy 0.28206 0.72789 0.25887 0.0
C61 C 0.22183 0.82078 0.26029 0.0
C62 C 0.30871 0.68458 0.24703 0.0
Dy63 Dy 0.25103 0.77898 0.2511 0.0
O64 O 0.32174 0.71104 0.25705 0.0
O65 O 0.2811 0.68154 0.24469 0.0
O66 O 0.28889 0.73777 0.30459 0.0
O67 O 0.28592 0.7711 0.27769 0.0
C68 C 0.28665 0.76481 0.30243 0.0
C69 C 0.24687 0.74169 0.20772 0.0
O70 O 0.29467 0.80204 0.23955 0.0
O71 O 0.30863 0.75882 0.23028 0.0
O72 O 0.21057 0.79466 0.2487 0.0
O73 O 0.24927 0.82438 0.26587 0.0
O74 O 0.24564 0.769 0.20534 0.0
O75 O 0.24705 0.73561 0.2325 0.0
O76 O 0.23884 0.70563 0.2724 0.0
O77 O 0.22443 0.74886 0.2799 0.0
C78 C 0.31252 0.78793 0.22934 0.0
C79 C 0.2208 0.71994 0.28201 0.0
Dy80 Dy 0.28171 0.73495 0.75476 0.0
C81 C 0.19696 0.78566 0.70052 0.0
C82 C 0.32054 0.7136 0.78519 0.0
Dy83 Dy 0.23504 0.76254 0.73012 0.0
O84 O 0.3013 0.69818 0.76696 0.0
O85 O 0.31824 0.7406 0.78722 0.0
O86 O 0.29009 0.7204 0.71272 0.0
O87 O 0.24849 0.72261 0.72103 0.0
C88 C 0.26401 0.71817 0.70247 0.0
C89 C 0.25301 0.77921 0.78245 0.0
O90 O 0.20693 0.72233 0.7464 0.0
O91 O 0.24252 0.71201 0.77592 0.0
O92 O 0.21597 0.80001 0.71945 0.0
O93 O 0.19904 0.75865 0.69729 0.0
O94 O 0.22684 0.77677 0.77238 0.0
O95 O 0.26832 0.77489 0.7637 0.0
O96 O 0.30953 0.7756 0.73895 0.0
O97 O 0.27422 0.78527 0.70872 0.0
C98 C 0.21504 0.70777 0.76687 0.0
C99 C 0.30157 0.78992 0.71826 0.0
Dy100 Dy 0.23883 0.25081 0.7688 0.0
C101 C 0.30896 0.243 0.67927 0.0
C102 C 0.213 0.26578 0.81267 0.0
Dy103 Dy 0.27859 0.25468 0.72112 0.0
O104 O 0.19952 0.24856 0.79196 0.0
O105 O 0.24036 0.27457 0.80935 0.0
O106 O 0.22271 0.20144 0.76096 0.0
O107 O 0.23566 0.2293 0.72867 0.0
C108 C 0.22801 0.20279 0.73523 0.0
C109 C 0.28779 0.30317 0.75363 0.0
O110 O 0.24393 0.27238 0.70014 0.0
O111 O 0.22164 0.28038 0.73941 0.0
O112 O 0.31923 0.26246 0.6993 0.0
O113 O 0.28206 0.22998 0.68205 0.0
O114 O 0.29405 0.30415 0.72822 0.0
O115 O 0.28116 0.27686 0.76086 0.0
O116 O 0.2721 0.23066 0.78902 0.0
O117 O 0.29582 0.22493 0.75016 0.0
C118 C 0.22509 0.28352 0.71273 0.0
C119 C 0.29148 0.22039 0.77648 0.0
Dy120 Dy 0.77437 0.22849 0.75071 0.0
C121 C 0.7143 0.32139 0.75372 0.0
C122 C 0.80034 0.18498 0.73801 0.0
Dy123 Dy 0.74293 0.2794 0.74345 0.0
O124 O 0.81355 0.2108 0.74936 0.0
O125 O 0.77289 0.18266 0.73478 0.0
O126 O 0.78275 0.2394 0.79622 0.0
O127 O 0.7788 0.27204 0.76888 0.0
C128 C 0.78051 0.26642 0.79373 0.0
C129 C 0.73774 0.24147 0.7005 0.0
O130 O 0.78612 0.30243 0.73063 0.0
O131 O 0.80036 0.25927 0.72164 0.0
O132 O 0.70304 0.29606 0.7406 0.0
O133 O 0.74144 0.32411 0.76023 0.0
O134 O 0.73669 0.26881 0.69778 0.0
O135 O 0.73849 0.23579 0.72538 0.0
O136 O 0.73236 0.20644 0.76659 0.0
O137 O 0.71703 0.24937 0.7729 0.0
C138 C 0.80398 0.28832 0.72039 0.0
C139 C 0.71429 0.22073 0.77615 0.0
Dy140 Dy 0.78221 0.74392 0.77091 0.0
C141 C 0.70955 0.77618 0.68949 0.0
C142 C 0.81382 0.71954 0.80697 0.0
Dy143 Dy 0.73954 0.75041 0.72583 0.0
O144 O 0.82097 0.74692 0.8001 0.0
O145 O 0.78887 0.70587 0.79494 0.0
O146 O 0.81025 0.78923 0.76427 0.0
O147 O 0.78635 0.76308 0.73098 0.0
C148 C 0.80278 0.78817 0.73821 0.0
C149 C 0.71877 0.70654 0.75916 0.0
O150 O 0.76218 0.72347 0.70092 0.0
O151 O 0.7867 0.70982 0.73846 0.0
O152 O 0.70019 0.74968 0.69812 0.0
O153 O 0.73558 0.78806 0.70002 0.0
O154 O 0.71128 0.70518 0.73305 0.0
O155 O 0.73543 0.73161 0.7659 0.0
O156 O 0.7582 0.76972 0.79571 0.0
O157 O 0.73589 0.78524 0.75783 0.0
C158 C 0.77891 0.70752 0.71174 0.0
C159 C 0.74257 0.78666 0.78469 0.0
C160 C 0.94467 0.07028 0.53411 0.0
C161 C 0.9775 0.07144 0.45294 0.0
C162 C 0.95097 0.95371 0.45769 0.0
Mg163 Mg 1.00319 0.06865 0.51148 0.0
O164 O 0.98476 0.02799 0.51071 0.0
Mg165 Mg 0.94596 0.01359 0.49008 0.0
Mg166 Mg 1.00385 0.99922 0.49474 0.0
O167 O 0.02306 0.97045 0.47888 0.0
Mg168 Mg 1.00504 0.92974 0.47808 0.0
Mg169 Mg 0.06167 0.98482 0.49977 0.0
C170 C 0.05662 0.04419 0.53257 0.0
C171 C 0.05413 0.03418 0.45664 0.0
O172 O 0.93208 0.0473 0.51856 0.0
O173 O 0.97198 0.08194 0.53504 0.0
O174 O 0.95769 0.04851 0.45785 0.0
O175 O 0.99887 0.08249 0.47026 0.0
O176 O 0.04548 0.06625 0.52964 0.0
O177 O 0.04316 0.01777 0.52395 0.0
C178 C 0.95379 0.96409 0.5329 0.0
O179 O 0.97988 0.96738 0.52642 0.0
O180 O 0.93749 0.97896 0.52189 0.0
O181 O 0.07593 0.95118 0.47142 0.0
O182 O 0.03617 0.9167 0.4544 0.0
O183 O 0.04972 0.95009 0.53203 0.0
C184 C 0.06349 0.92834 0.45563 0.0
O185 O 0.00927 0.9153 0.51902 0.0
O186 O 0.96277 0.93211 0.46056 0.0
C187 C 0.03015 0.92686 0.53666 0.0
O188 O 0.96423 0.98043 0.46573 0.0
O189 O 0.028 0.03104 0.46298 0.0
O190 O 0.07029 0.01932 0.46792 0.0
C191 C 0.4376 0.0614 0.03428 0.0
C192 C 0.45297 0.05989 0.94923 0.0
C193 C 0.45591 0.94211 0.96663 0.0
Mg194 Mg 0.49327 0.06576 0.00306 0.0
O195 O 0.48323 0.02466 0.00674 0.0
Mg196 Mg 0.44294 0.00257 0.99308 0.0
Mg197 Mg 0.50651 0.99782 0.99225 0.0
O198 O 0.52962 0.97083 0.97769 0.0
Mg199 Mg 0.51936 0.92973 0.98109 0.0
Mg200 Mg 0.56983 0.99272 0.99123 0.0
C201 C 0.55695 0.05362 0.01628 0.0
C202 C 0.54514 0.03147 0.94536 0.0
O203 O 0.42648 0.036 0.02155 0.0
O204 O 0.46379 0.07603 0.03163 0.0
O205 O 0.43979 0.03413 0.95671 0.0
O206 O 0.4758 0.07526 0.96292 0.0
O207 O 0.54024 0.07104 0.01248 0.0
O208 O 0.54781 0.02517 0.01476 0.0
C209 C 0.46734 0.96274 0.03798 0.0
O210 O 0.49245 0.9694 0.02883 0.0
O211 O 0.44664 0.97272 0.02795 0.0
O212 O 0.58641 0.95903 0.96334 0.0
O213 O 0.54928 0.91884 0.95345 0.0
O214 O 0.57256 0.96142 0.02807 0.0
C215 C 0.57549 0.93344 0.95096 0.0
O216 O 0.53628 0.92047 0.0215 0.0
O217 O 0.47264 0.92465 0.97016 0.0
C218 C 0.55909 0.93566 0.0354 0.0
O219 O 0.46522 0.97052 0.96952 0.0
O220 O 0.52066 0.02622 0.95575 0.0
O221 O 0.5658 0.02124 0.95513 0.0
C222 C 0.9551 0.58738 0.01444 0.0
C223 C 0.98017 0.55898 0.9388 0.0
C224 C 0.95715 0.45078 0.97891 0.0
Mg225 Mg 0.01142 0.57544 0.99566 0.0
O226 O 0.9941 0.538 0.00796 0.0
Mg227 Mg 0.9541 0.51815 0.9918 0.0
Mg228 Mg 0.01242 0.50536 0.00016 0.0
O229 O 0.03087 0.47296 0.99214 0.0
Mg230 Mg 0.01411 0.43485 0.00302 0.0
Mg231 Mg 0.07124 0.49272 0.00722 0.0
C232 C 0.06798 0.55979 0.02138 0.0
C233 C 0.05644 0.5252 0.95257 0.0
O234 O 0.94196 0.56022 0.00773 0.0
O235 O 0.98225 0.59793 0.01248 0.0
O236 O 0.96129 0.53953 0.95019 0.0
O237 O 1.00321 0.57401 0.95215 0.0
O238 O 0.05539 0.57922 0.01253 0.0
O239 O 0.05459 0.53226 0.02197 0.0
C240 C 0.96768 0.48623 0.04731 0.0
O241 O 0.9927 0.48623 0.03952 0.0
O242 O 0.95005 0.4972 0.03296 0.0
O243 O 0.0832 0.45115 0.98946 0.0
O244 O 0.04278 0.41363 0.98374 0.0
O245 O 0.06517 0.47017 0.0484 0.0
C246 C 0.06986 0.42434 0.98157 0.0
O247 O 0.02388 0.4347 0.04617 0.0
O248 O 0.96982 0.43124 0.98729 0.0
C249 C 0.0469 0.44984 0.0595 0.0
O250 O 0.97061 0.47829 0.9784 0.0
O251 O 0.03146 0.5244 0.96073 0.0
O252 O 0.07467 0.51466 0.96649 0.0
C253 C 0.44482 0.56824 0.03791 0.0
C254 C 0.47586 0.56988 0.95563 0.0
C255 C 0.4488 0.45188 0.95948 0.0
Mg256 Mg 0.50239 0.56651 0.01367 0.0
O257 O 0.48423 0.52592 0.01246 0.0
Mg258 Mg 0.44492 0.51187 0.99278 0.0
Mg259 Mg 0.50278 0.49696 0.99589 0.0
O260 O 0.5211 0.46765 0.97953 0.0
Mg261 Mg 0.50266 0.42706 0.97902 0.0
Mg262 Mg 0.56024 0.48157 -0.00063 0.0
C263 C 0.55675 0.54211 0.03196 0.0
C264 C 0.55186 0.53014 0.95576 0.0
O265 O 0.43181 0.54557 0.02214 0.0
O266 O 0.47213 0.57968 0.03845 0.0
O267 O 0.45608 0.54685 0.96038 0.0
O268 O 0.49719 0.58086 0.97298 0.0
O269 O 0.54501 0.56382 0.02987 0.0
O270 O 0.54316 0.5155 0.02392 0.0
C271 C 0.45356 0.46234 0.03525 0.0
O272 O 0.47945 0.46545 0.02823 0.0
O273 O 0.43714 0.47728 0.02457 0.0
O274 O 0.57316 0.44723 0.97089 0.0
O275 O 0.53279 0.41327 0.95451 0.0
O276 O 0.54888 0.44735 0.03223 0.0
C277 C 0.56014 0.42448 0.95526 0.0
O278 O 0.50796 0.41285 0.01996 0.0
O279 O 0.46035 0.43007 0.96207 0.0
C280 C 0.52928 0.42428 0.03722 0.0
O281 O 0.46234 0.47845 0.96774 0.0
O282 O 0.5264 0.52849 0.9634 0.0
O283 O 0.56791 0.51491 0.9666 0.0
C284 C 0.93863 0.56183 0.53631 0.0
C285 C 0.95467 0.56217 0.45133 0.0
C286 C 0.95733 0.44342 0.46758 0.0
Mg287 Mg 0.9945 0.56692 0.50551 0.0
O288 O 0.98443 0.5257 0.50781 0.0
Mg289 Mg 0.94418 0.50385 0.49402 0.0
Mg290 Mg 1.00775 0.499 0.4932 0.0
O291 O 0.03091 0.47206 0.47866 0.0
Mg292 Mg 0.0208 0.43101 0.48217 0.0
Mg293 Mg 0.07114 0.49395 0.49208 0.0
C294 C 0.05819 0.55473 0.51911 0.0
C295 C 0.04637 0.53252 0.4462 0.0
O296 O 0.92748 0.53683 0.52291 0.0
O297 O 0.96492 0.57639 0.53417 0.0
O298 O 0.94156 0.53602 0.45799 0.0
O299 O 0.97715 0.57739 0.46566 0.0
O300 O 0.04123 0.57203 0.51611 0.0
O301 O 0.04911 0.52633 0.51571 0.0
C302 C 0.96825 0.46364 0.53874 0.0
O303 O 0.99347 0.47037 0.52976 0.0
O304 O 0.94766 0.47372 0.52861 0.0
O305 O 0.08774 0.46007 0.46426 0.0
O306 O 0.0503 0.42027 0.45402 0.0
O307 O 0.07391 0.46316 0.52905 0.0
C308 C 0.07659 0.43465 0.4516 0.0
O309 O 0.03796 0.42193 0.52264 0.0
O310 O 0.97417 0.42609 0.47126 0.0
C311 C 0.0606 0.43746 0.53656 0.0
O312 O 0.96649 0.47186 0.47036 0.0
O313 O 0.02192 0.52743 0.45667 0.0
O314 O 0.06698 0.52225 0.456 0.0
C315 C 0.46254 0.08486 0.52416 0.0
C316 C 0.47255 0.05199 0.44407 0.0
C317 C 0.45694 0.94649 0.48615 0.0
Mg318 Mg 0.5134 0.07103 0.49548 0.0
O319 O 0.49867 0.03449 0.51098 0.0
Mg320 Mg 0.45685 0.01454 0.50154 0.0
Mg321 Mg 0.51486 0.00115 0.50003 0.0
O322 O 0.5311 0.96787 0.48895 0.0
Mg323 Mg 0.51603 0.93074 0.50299 0.0
Mg324 Mg 0.57273 0.98778 0.49956 0.0
C325 C 0.57258 0.05574 0.51308 0.0
C326 C 0.55026 0.01781 0.44649 0.0
O327 O 0.44846 0.05754 0.51989 0.0
O328 O 0.48833 0.09495 0.5171 0.0
O329 O 0.45631 0.03378 0.45889 0.0
O330 O 0.49747 0.06741 0.45331 0.0
O331 O 0.55915 0.07506 0.50574 0.0
O332 O 0.55928 0.02849 0.51566 0.0
C333 C 0.47979 0.984 0.55388 0.0
O334 O 0.50225 0.98295 0.5416 0.0
O335 O 0.46023 0.99532 0.54335 0.0
O336 O 0.58198 0.94508 0.48199 0.0
O337 O 0.54205 0.90725 0.48198 0.0
O338 O 0.57196 0.96827 0.5424 0.0
C339 C 0.56839 0.91778 0.47669 0.0
O340 O 0.53048 0.93406 0.54535 0.0
O341 O 0.47043 0.92688 0.4924 0.0
C342 C 0.55477 0.9495 0.55606 0.0
O343 O 0.47024 0.97392 0.48463 0.0
O344 O 0.52762 0.01905 0.45843 0.0
O345 O 0.56983 0.00676 0.4575 0.0
H346 H 0.16502 0.15841 0.24017 0.0
H347 H 0.13211 0.13022 0.27184 0.0
H348 H 0.18646 0.17881 0.34039 0.0
H349 H 0.21914 0.2072 0.30894 0.0
H350 H 0.14137 0.09428 0.31284 0.0
H351 H 0.10755 0.18938 0.35646 0.0
H352 H 0.12637 0.1914 0.32559 0.0
H353 H 0.14602 0.19547 0.35863 0.0
C354 C 0.17 0.16294 0.262 0.0
C355 C 0.19454 0.18513 0.27208 0.0
C356 C 0.15112 0.14692 0.28006 0.0
C357 C 0.1564 0.15295 0.30847 0.0
C358 C 0.18147 0.17438 0.31855 0.0
H359 H 0.11022 0.05139 0.44484 0.0
H360 H 0.13062 0.08011 0.40715 0.0
C361 C 0.2003 0.19036 0.30055 0.0
C362 C 0.1363 0.13627 0.32773 0.0
H363 H 0.09754 0.14519 0.38197 0.0
C364 C 0.13146 0.10539 0.32766 0.0
C365 C 0.12288 0.15066 0.34681 0.0
C366 C 0.1257 0.18352 0.34675 0.0
C367 C 0.115 0.08876 0.34715 0.0
C368 C 0.10332 0.10341 0.36742 0.0
C369 C 0.10672 0.13404 0.36656 0.0
C370 C 0.09031 0.08762 0.39116 0.0
C371 C 0.11082 0.05565 0.34634 0.0
C372 C 0.06091 0.08324 0.39534 0.0
C373 C 0.04895 0.06659 0.41712 0.0
C374 C 0.06634 0.05435 0.43506 0.0
C375 C 0.096 0.06006 0.43131 0.0
C376 C 0.10778 0.07647 0.40968 0.0
H377 H 0.11387 0.04696 0.32571 0.0
H378 H 0.12695 0.05025 0.36115 0.0
H379 H 0.08897 0.04412 0.35216 0.0
H380 H 0.04711 0.09195 0.38137 0.0
H381 H 0.02607 0.0626 0.4194 0.0
H382 H 0.82623 0.19915 0.33549 0.0
H383 H 0.8637 0.1804 0.3593 0.0
H384 H 0.91391 0.19563 0.28883 0.0
H385 H 0.87599 0.21344 0.26463 0.0
H386 H 0.91107 0.14252 0.30622 0.0
H387 H 0.9413 0.22205 0.39531 0.0
H388 H 0.90314 0.2058 0.39247 0.0
H389 H 0.91967 0.22833 0.36572 0.0
C390 C 0.8454 0.19875 0.32524 0.0
C391 C 0.8483 0.20769 0.2983 0.0
C392 C 0.86692 0.18831 0.33891 0.0
C393 C 0.89192 0.1872 0.32605 0.0
C394 C 0.89493 0.1965 0.29921 0.0
H395 H 0.01068 0.12468 0.43742 0.0
H396 H 0.99775 0.15473 0.40109 0.0
C397 C 0.87327 0.20663 0.28543 0.0
C398 C 0.9137 0.17414 0.3399 0.0
H399 H 0.95087 0.17404 0.40149 0.0
C400 C 0.92028 0.14981 0.32685 0.0
C401 C 0.92646 0.18412 0.36647 0.0
C402 C 0.92252 0.21173 0.38063 0.0
C403 C 0.93735 0.13376 0.34053 0.0
C404 C 0.94741 0.14179 0.36817 0.0
C405 C 0.94284 0.16756 0.38041 0.0
C406 C 0.95888 0.12178 0.38595 0.0
C407 C 0.94376 0.10789 0.32543 0.0
C408 C 0.94185 0.09296 0.3889 0.0
C409 C 0.94921 0.07575 0.40945 0.0
C410 C 0.97352 0.0872 0.42786 0.0
C411 C 0.99169 0.11529 0.42373 0.0
C412 C 0.98433 0.1325 0.40299 0.0
H413 H 0.9454 0.11196 0.3033 0.0
H414 H 0.96413 0.10346 0.33389 0.0
H415 H 0.9258 0.08782 0.32713 0.0
H416 H 0.92177 0.08439 0.37647 0.0
H417 H 0.93481 0.05413 0.41188 0.0
H418 H 0.84342 0.82025 0.27989 0.0
H419 H 0.85564 0.86041 0.31511 0.0
H420 H 0.76717 0.86552 0.31011 0.0
H421 H 0.75466 0.82455 0.27524 0.0
H422 H 0.85063 0.91778 0.31374 0.0
H423 H 0.78218 0.85565 0.39129 0.0
H424 H 0.78961 0.83717 0.36086 0.0
H425 H 0.76529 0.86051 0.35856 0.0
C426 C 0.82661 0.82997 0.28626 0.0
C427 C 0.79813 0.81926 0.27507 0.0
C428 C 0.83358 0.85297 0.30629 0.0
C429 C 0.81226 0.86582 0.31537 0.0
C430 C 0.78384 0.85563 0.30373 0.0
H431 H 0.9217 0.99292 0.43734 0.0
H432 H 0.87783 0.98049 0.40613 0.0
C433 C 0.77678 0.83234 0.28379 0.0
C434 C 0.82042 0.88906 0.33775 0.0
H435 H 0.81888 0.89712 0.40694 0.0
C436 C 0.84324 0.91387 0.33407 0.0
C437 C 0.81017 0.88412 0.36404 0.0
C438 C 0.78553 0.85793 0.36916 0.0
C439 C 0.85879 0.93146 0.3565 0.0
C440 C 0.85062 0.92439 0.38323 0.0
C441 C 0.82519 0.90226 0.38643 0.0
C442 C 0.87194 0.93307 0.4072 0.0
C443 C 0.88571 0.95511 0.3515 0.0
C444 C 0.88178 0.91061 0.41978 0.0
C445 C 0.90634 0.91757 0.43779 0.0
C446 C 0.92181 0.9472 0.44351 0.0
C447 C 0.91046 0.96985 0.43301 0.0
C448 C 0.88551 0.9628 0.41505 0.0
H449 H 0.88996 0.95614 0.3295 0.0
H450 H 0.88342 0.97707 0.35859 0.0
H451 H 0.90476 0.95096 0.36312 0.0
H452 H 0.87164 0.88749 0.4142 0.0
H453 H 0.9141 0.89955 0.44594 0.0
H454 H 0.16346 0.81072 0.25765 0.0
H455 H 0.13588 0.83347 0.28794 0.0
H456 H 0.21475 0.89372 0.32281 0.0
H457 H 0.24244 0.87119 0.2925 0.0
H458 H 0.1476 0.83075 0.34533 0.0
H459 H 0.15772 0.94638 0.31535 0.0
H460 H 0.16325 0.91794 0.29213 0.0
H461 H 0.19085 0.93531 0.31829 0.0
C462 C 0.17481 0.8295 0.27109 0.0
C463 C 0.20504 0.83917 0.27285 0.0
C464 C 0.15905 0.84238 0.28843 0.0
C465 C 0.1733 0.86526 0.30754 0.0
C466 C 0.20333 0.87639 0.30792 0.0
H467 H 0.12151 0.94822 0.4497 0.0
H468 H 0.14876 0.93208 0.41457 0.0
C469 C 0.21911 0.86348 0.29061 0.0
C470 C 0.15741 0.87441 0.32956 0.0
H471 H 0.13846 0.93342 0.35804 0.0
C472 C 0.14538 0.85314 0.34801 0.0
C473 C 0.15504 0.90371 0.33318 0.0
C474 C 0.16719 0.92717 0.3136 0.0
C475 C 0.13119 0.86045 0.37021 0.0
C476 C 0.12846 0.88968 0.37368 0.0
C477 C 0.14063 0.91103 0.3553 0.0
C478 C 0.11235 0.89832 0.39582 0.0
C479 C 0.11983 0.83697 0.39007 0.0
C480 C 0.08294 0.88451 0.39699 0.0
C481 C 0.06735 0.89348 0.41711 0.0
C482 C 0.08082 0.91671 0.43632 0.0
C483 C 0.11046 0.9302 0.43533 0.0
C484 C 0.12605 0.92112 0.4152 0.0
H485 H 0.13081 0.81882 0.38916 0.0
H486 H 0.12261 0.84652 0.41141 0.0
H487 H 0.09646 0.82713 0.38474 0.0
H488 H 0.07184 0.86723 0.38191 0.0
H489 H 0.04454 0.8827 0.41709 0.0
H490 H 0.15403 0.75774 0.66209 0.0
H491 H 0.11816 0.77919 0.63829 0.0
H492 H 0.15516 0.86248 0.68331 0.0
H493 H 0.19097 0.84138 0.70695 0.0
H494 H 0.07703 0.81099 0.66242 0.0
H495 H 0.15895 0.87895 0.59938 0.0
H496 H 0.1643 0.84691 0.61644 0.0
H497 H 0.16881 0.88138 0.63556 0.0
C498 C 0.15442 0.78061 0.66685 0.0
C499 C 0.17534 0.79805 0.6861 0.0
C500 C 0.13388 0.79271 0.65344 0.0
C501 C 0.1342 0.82236 0.65908 0.0
C502 C 0.15475 0.83958 0.67866 0.0
H503 H 0.0603 0.95035 0.58453 0.0
H504 H 0.08001 0.92311 0.61917 0.0
C505 C 0.1752 0.82754 0.69204 0.0
C506 C 0.11422 0.8361 0.64354 0.0
H507 H 0.11326 0.88888 0.59749 0.0
C508 C 0.08478 0.82794 0.64811 0.0
C509 C 0.12457 0.85806 0.62491 0.0
C510 C 0.15583 0.86676 0.61852 0.0
C511 C 0.06543 0.84197 0.63493 0.0
C512 C 0.07598 0.86435 0.61669 0.0
C513 C 0.10534 0.87202 0.61186 0.0
C514 C 0.05726 0.87983 0.60137 0.0
C515 C 0.03413 0.83326 0.64096 0.0
C516 C 0.03661 0.86444 0.58089 0.0
C517 C 0.02508 0.88 0.56115 0.0
C518 C 0.03458 0.91106 0.56146 0.0
C519 C 0.05293 0.92639 0.58361 0.0
C520 C 0.06415 0.91087 0.60344 0.0
H521 H 0.03087 0.82117 0.66014 0.0
H522 H 0.02555 0.85306 0.64271 0.0
H523 H 0.0214 0.8185 0.62388 0.0
H524 H 0.0313 0.8405 0.57873 0.0
H525 H 0.01096 0.86763 0.54429 0.0
H526 H 0.22189 0.20485 0.68012 0.0
H527 H 0.20436 0.16346 0.64675 0.0
H528 H 0.20081 0.10203 0.71119 0.0
H529 H 0.21734 0.14385 0.74508 0.0
H530 H 0.22088 0.11565 0.62966 0.0
H531 H 0.11832 0.08024 0.68119 0.0
H532 H 0.1449 0.11436 0.69124 0.0
H533 H 0.15087 0.07954 0.70093 0.0
C534 C 0.21766 0.18253 0.68719 0.0
C535 C 0.22048 0.17746 0.71517 0.0
C536 C 0.20777 0.15885 0.66807 0.0
C537 C 0.20075 0.12963 0.6765 0.0
C538 C 0.20539 0.12442 0.70431 0.0
H539 H 0.07728 0.00481 0.5625 0.0
H540 H 0.11912 0.01665 0.59612 0.0
C541 C 0.21488 0.14825 0.7236 0.0
C542 C 0.18596 0.10549 0.65617 0.0
H543 H 0.11903 0.06064 0.63728 0.0
C544 C 0.19883 0.10303 0.63157 0.0
C545 C 0.15724 0.08878 0.65873 0.0
C546 C 0.14185 0.09086 0.68432 0.0
C547 C 0.18291 0.08652 0.6087 0.0
C548 C 0.15356 0.07205 0.61063 0.0
C549 C 0.14161 0.07186 0.63597 0.0
C550 C 0.13335 0.06258 0.58608 0.0
C551 C 0.19706 0.08616 0.5822 0.0
C552 C 0.12798 0.08433 0.56892 0.0
C553 C 0.10391 0.0778 0.55013 0.0
C554 C 0.08494 0.04934 0.54804 0.0
C555 C 0.09163 0.02692 0.56363 0.0
C556 C 0.11552 0.03361 0.5828 0.0
H557 H 0.22069 0.08927 0.58598 0.0
H558 H 0.18766 0.06507 0.57 0.0
H559 H 0.1936 0.10466 0.56992 0.0
H560 H 0.14115 0.10696 0.5715 0.0
H561 H 0.09936 0.09544 0.53825 0.0
H562 H 0.85793 0.19314 0.73354 0.0
H563 H 0.88018 0.16815 0.69991 0.0
H564 H 0.79716 0.10868 0.67497 0.0
H565 H 0.77469 0.13391 0.70821 0.0
H566 H 0.88213 0.1094 0.68826 0.0
H567 H 0.82123 0.1514 0.60503 0.0
H568 H 0.82316 0.16442 0.64031 0.0
H569 H 0.79951 0.1291 0.62892 0.0
C570 C 0.84456 0.17425 0.72138 0.0
C571 C 0.8146 0.16559 0.72326 0.0
C572 C 0.85726 0.16008 0.70212 0.0
C573 C 0.84015 0.1371 0.68453 0.0
C574 C 0.81059 0.12682 0.68796 0.0
H575 H 0.8868 0.05019 0.54074 0.0
H576 H 0.86026 0.06537 0.57702 0.0
C577 C 0.79786 0.14105 0.70714 0.0
C578 C 0.853 0.12553 0.66142 0.0
H579 H 0.85216 0.12268 0.59162 0.0
C580 C 0.87552 0.11216 0.66713 0.0
C581 C 0.84427 0.12927 0.63387 0.0
C582 C 0.8209 0.14453 0.62654 0.0
C583 C 0.88969 0.10249 0.64599 0.0
C584 C 0.88138 0.10679 0.61852 0.0
C585 C 0.85844 0.11953 0.61275 0.0
C586 C 0.89689 0.09896 0.59557 0.0
C587 C 0.91339 0.08768 0.6532 0.0
C588 C 0.92596 0.11362 0.5935 0.0
C589 C 0.94117 0.10516 0.57278 0.0
C590 C 0.92755 0.08186 0.55369 0.0
C591 C 0.89801 0.06814 0.55513 0.0
C592 C 0.8828 0.0767 0.57587 0.0
H593 H 0.91221 0.0794 0.67421 0.0
H594 H 0.91235 0.06885 0.63847 0.0
H595 H 0.93462 0.10394 0.65226 0.0
H596 H 0.937 0.13131 0.60822 0.0
H597 H 0.96382 0.11636 0.57224 0.0
H598 H 0.84793 0.83712 0.74993 0.0
H599 H 0.87817 0.86711 0.71739 0.0
H600 H 0.826 0.81357 0.65013 0.0
H601 H 0.79593 0.78337 0.68251 0.0
H602 H 0.88632 0.82311 0.64623 0.0
H603 H 0.85612 0.92818 0.66751 0.0
H604 H 0.86892 0.91178 0.69684 0.0
H605 H 0.83547 0.89294 0.67823 0.0
C606 C 0.84276 0.83195 0.7282 0.0
C607 C 0.81954 0.80797 0.71875 0.0
C608 C 0.86004 0.84909 0.70964 0.0
C609 C 0.85427 0.84264 0.68133 0.0
C610 C 0.83089 0.81888 0.67188 0.0
H611 H 0.89743 0.94386 0.54291 0.0
H612 H 0.87701 0.91382 0.57985 0.0
C613 C 0.81363 0.80176 0.6904 0.0
C614 C 0.87253 0.86048 0.66141 0.0
H615 H 0.89088 0.92925 0.63569 0.0
C616 C 0.88752 0.84639 0.64401 0.0
C617 C 0.87399 0.8908 0.65857 0.0
C618 C 0.85763 0.90687 0.67609 0.0
C619 C 0.90346 0.86167 0.62342 0.0
C620 C 0.90455 0.89187 0.62035 0.0
C621 C 0.89014 0.90611 0.63821 0.0
C622 C 0.91777 0.90842 0.59703 0.0
C623 C 0.91802 0.84517 0.60443 0.0
C624 C 0.94761 0.91502 0.59407 0.0
C625 C 0.95953 0.93233 0.57268 0.0
C626 C 0.94177 0.94341 0.55413 0.0
C627 C 0.91186 0.93599 0.5569 0.0
C628 C 0.90007 0.91878 0.57807 0.0
H629 H 0.9113 0.82086 0.60678 0.0
H630 H 0.91308 0.8497 0.58278 0.0
H631 H 0.94174 0.85288 0.60894 0.0
H632 H 0.96173 0.9075 0.60866 0.0
H633 H 0.98264 0.93781 0.57124 0.0
H634 H 0.26886 0.19945 0.15139 0.0
H635 H 0.29348 0.17259 0.12151 0.0
H636 H 0.33819 0.14769 0.19227 0.0
H637 H 0.31324 0.17373 0.22218 0.0
H638 H 0.34912 0.18129 0.11359 0.0
H639 H 0.31106 0.06889 0.15155 0.0
H640 H 0.29529 0.09858 0.16064 0.0
H641 H 0.32824 0.09557 0.17854 0.0
C642 C 0.28361 0.1879 0.16066 0.0
C643 C 0.28875 0.18869 0.18935 0.0
C644 C 0.29782 0.17259 0.14348 0.0
C645 C 0.3175 0.15752 0.15445 0.0
C646 C 0.32262 0.1583 0.1831 0.0
H647 H 0.45461 0.11208 0.06777 0.0
H648 H 0.42527 0.13455 0.09608 0.0
C649 C 0.30836 0.17346 0.20027 0.0
C650 C 0.3336 0.14223 0.13603 0.0
H651 H 0.35117 0.07674 0.1238 0.0
C652 C 0.34936 0.15836 0.11577 0.0
C653 C 0.33379 0.11211 0.13835 0.0
C654 C 0.31595 0.09269 0.15825 0.0
C655 C 0.36568 0.14562 0.09843 0.0
C656 C 0.367 0.11594 0.10165 0.0
C657 C 0.35064 0.09956 0.12141 0.0
C658 C 0.38516 0.10157 0.08477 0.0
C659 C 0.38093 0.16406 0.07645 0.0
C660 C 0.37292 0.07471 0.06958 0.0
C661 C 0.38985 0.06148 0.0535 0.0
C662 C 0.41956 0.07469 0.0522 0.0
C663 C 0.43183 0.10127 0.0679 0.0
C664 C 0.41494 0.11437 0.08404 0.0
H665 H 0.37075 0.18213 0.07109 0.0
H666 H 0.40364 0.17445 0.08406 0.0
H667 H 0.3809 0.1503 0.05758 0.0
H668 H 0.3501 0.06413 0.06984 0.0
H669 H 0.37952 0.04104 0.04183 0.0
H670 H 0.85275 0.31811 0.23975 0.0
H671 H 0.88912 0.35383 0.21681 0.0
H672 H 0.82678 0.35246 0.14914 0.0
H673 H 0.79015 0.31674 0.17184 0.0
H674 H 0.88533 0.342 0.13791 0.0
H675 H 0.88893 0.44375 0.20186 0.0
H676 H 0.88929 0.40998 0.21847 0.0
H677 H 0.85745 0.41253 0.19867 0.0
C678 C 0.84667 0.32552 0.22005 0.0
C679 C 0.81854 0.31459 0.20758 0.0
C680 C 0.86748 0.34595 0.20707 0.0
C681 C 0.86048 0.35571 0.18144 0.0
C682 C 0.83244 0.34511 0.16901 0.0
H683 H 0.91659 0.483 0.06949 0.0
H684 H 0.89658 0.45281 0.10654 0.0
C685 C 0.81156 0.32481 0.18203 0.0
C686 C 0.88254 0.37632 0.167 0.0
H687 H 0.91694 0.44949 0.16382 0.0
C688 C 0.89269 0.36544 0.14374 0.0
C689 C 0.89197 0.40674 0.17492 0.0
C690 C 0.88139 0.4192 0.19978 0.0
C691 C 0.9112 0.38454 0.12737 0.0
C692 C 0.91974 0.4152 0.13465 0.0
C693 C 0.9105 0.4259 0.15855 0.0
C694 C 0.9343 0.43671 0.1154 0.0
C695 C 0.92015 0.37211 0.10157 0.0
C696 C 0.96259 0.43841 0.10883 0.0
C697 C 0.97423 0.45582 0.08755 0.0
C698 C 0.95761 0.47142 0.07244 0.0
C699 C 0.92993 0.47098 0.08037 0.0
C700 C 0.91844 0.45382 0.10166 0.0
H701 H 0.90919 0.34824 0.09747 0.0
H702 H 0.91522 0.38447 0.08369 0.0
H703 H 0.94379 0.3747 0.10347 0.0
H704 H 0.97525 0.42557 0.11952 0.0
H705 H 0.9958 0.45625 0.08242 0.0
H706 H 0.7134 0.77758 0.15384 0.0
H707 H 0.68543 0.80474 0.12633 0.0
H708 H 0.65862 0.83895 0.19996 0.0
H709 H 0.68574 0.81105 0.22751 0.0
H710 H 0.6145 0.82536 0.16395 0.0
H711 H 0.70584 0.88988 0.11026 0.0
H712 H 0.7008 0.85081 0.10448 0.0
H713 H 0.71096 0.86753 0.13852 0.0
C714 C 0.7016 0.79089 0.16426 0.0
C715 C 0.70214 0.79204 0.19309 0.0
C716 C 0.68571 0.80676 0.1484 0.0
C717 C 0.6702 0.82478 0.16081 0.0
C718 C 0.67036 0.82553 0.18959 0.0
H719 H 0.60826 0.9594 0.06974 0.0
H720 H 0.63373 0.93353 0.10139 0.0
C721 C 0.68601 0.80946 0.20544 0.0
C722 C 0.65351 0.84238 0.14398 0.0
H723 H 0.65895 0.89156 0.09277 0.0
C724 C 0.62438 0.83991 0.14848 0.0
C725 C 0.66612 0.86206 0.12398 0.0
C726 C 0.69771 0.86801 0.1192 0.0
C727 C 0.60762 0.85578 0.13347 0.0
C728 C 0.61985 0.87432 0.11255 0.0
C729 C 0.64914 0.87725 0.10843 0.0
C730 C 0.60284 0.89073 0.09467 0.0
C731 C 0.57712 0.85298 0.14084 0.0
C732 C 0.57655 0.87581 0.08021 0.0
C733 C 0.56163 0.89075 0.06234 0.0
C734 C 0.57267 0.92111 0.05785 0.0
C735 C 0.59876 0.93616 0.07265 0.0
C736 C 0.61357 0.92123 0.09072 0.0
H737 H 0.57439 0.84681 0.1624 0.0
H738 H 0.57077 0.87394 0.13803 0.0
H739 H 0.56217 0.83521 0.12752 0.0
H740 H 0.5679 0.85224 0.08198 0.0
H741 H 0.54192 0.87808 0.05117 0.0
H742 H 0.24081 0.68302 0.21204 0.0
H743 H 0.22809 0.64427 0.17591 0.0
H744 H 0.22503 0.70978 0.11646 0.0
H745 H 0.24052 0.74912 0.15266 0.0
H746 H 0.1775 0.6342 0.15134 0.0
H747 H 0.25502 0.65258 0.07147 0.0
H748 H 0.26391 0.67015 0.1054 0.0
H749 H 0.24452 0.68572 0.07964 0.0
C750 C 0.23909 0.68937 0.19114 0.0
C751 C 0.24215 0.7191 0.18513 0.0
C752 C 0.23152 0.66713 0.17047 0.0
C753 C 0.22588 0.67405 0.14338 0.0
C754 C 0.23005 0.70391 0.13706 0.0
H755 H 0.10468 0.61416 0.01668 0.0
H756 H 0.14999 0.63526 0.04363 0.0
C757 C 0.23844 0.72635 0.1578 0.0
C758 C 0.21012 0.65009 0.12334 0.0
H759 H 0.20552 0.62552 0.0565 0.0
C760 C 0.18409 0.63169 0.13084 0.0
C761 C 0.21869 0.64689 0.09662 0.0
C762 C 0.24724 0.66472 0.08792 0.0
C763 C 0.16532 0.61177 0.11187 0.0
C764 C 0.173 0.60985 0.08463 0.0
C765 C 0.19981 0.62695 0.07745 0.0
C766 C 0.15115 0.59452 0.06282 0.0
C767 C 0.13639 0.59473 0.12068 0.0
C768 C 0.13772 0.56414 0.06345 0.0
C769 C 0.11138 0.55201 0.04836 0.0
C770 C 0.09841 0.57017 0.03233 0.0
C771 C 0.11373 0.59972 0.02935 0.0
C772 C 0.13986 0.61179 0.0445 0.0
H773 H 0.1324 0.60198 0.14153 0.0
H774 H 0.11866 0.59746 0.10616 0.0
H775 H 0.13552 0.57082 0.1208 0.0
H776 H 0.14643 0.55038 0.07721 0.0
H777 H 0.10033 0.52906 0.05079 0.0
H778 H 0.22439 0.80012 0.82168 0.0
H779 H 0.24621 0.83225 0.86231 0.0
H780 H 0.33043 0.82563 0.84264 0.0
H781 H 0.30902 0.79401 0.80217 0.0
H782 H 0.28877 0.82379 0.90907 0.0
H783 H 0.32991 0.91666 0.84267 0.0
H784 H 0.29994 0.88538 0.83177 0.0
H785 H 0.33639 0.88243 0.83078 0.0
C786 C 0.24751 0.80522 0.82633 0.0
C787 C 0.26511 0.79484 0.80875 0.0
C788 C 0.25986 0.8235 0.84946 0.0
C789 C 0.28986 0.83151 0.85506 0.0
C790 C 0.30722 0.81985 0.83835 0.0
H791 H 0.42796 0.88337 0.96266 0.0
H792 H 0.37974 0.8607 0.94234 0.0
C793 C 0.29497 0.80171 0.81534 0.0
C794 C 0.30388 0.8534 0.87728 0.0
H795 H 0.35599 0.91828 0.88656 0.0
C796 C 0.30293 0.84488 0.90443 0.0
C797 C 0.32154 0.88122 0.8712 0.0
C798 C 0.32184 0.89216 0.84254 0.0
C799 C 0.32166 0.86226 0.92531 0.0
C800 C 0.34211 0.88821 0.9185 0.0
C801 C 0.34063 0.89822 0.89186 0.0
C802 C 0.36834 0.9021 0.93656 0.0
C803 C 0.32021 0.85194 0.95414 0.0
C804 C 0.37821 0.93305 0.94021 0.0
C805 C 0.40631 0.94623 0.95124 0.0
C806 C 0.42497 0.92863 0.95883 0.0
C807 C 0.41431 0.89765 0.95687 0.0
C808 C 0.38641 0.88455 0.94565 0.0
H809 H 0.29754 0.84138 0.95834 0.0
H810 H 0.33246 0.83495 0.95657 0.0
H811 H 0.32936 0.87047 0.96952 0.0
H812 H 0.36474 0.94704 0.93311 0.0
H813 H 0.41379 0.97015 0.95246 0.0
H814 H 0.15546 0.25531 0.81936 0.0
H815 H 0.13308 0.27923 0.85394 0.0
H816 H 0.21733 0.32491 0.89086 0.0
H817 H 0.23975 0.30106 0.8565 0.0
H818 H 0.14222 0.28362 0.91622 0.0
H819 H 0.1761 0.38995 0.86416 0.0
H820 H 0.17441 0.35462 0.8473 0.0
H821 H 0.20347 0.37102 0.8724 0.0
C822 C 0.16912 0.27007 0.83515 0.0
C823 C 0.19927 0.27672 0.8352 0.0
C824 C 0.15636 0.28364 0.85483 0.0
C825 C 0.17366 0.30397 0.87462 0.0
C826 C 0.20373 0.30943 0.87553 0.0
H827 H 0.1284 0.435 0.98016 0.0
H828 H 0.15494 0.40427 0.95746 0.0
C829 C 0.21646 0.29587 0.85593 0.0
C830 C 0.16036 0.32127 0.89291 0.0
H831 H 0.15096 0.39034 0.9036 0.0
C832 C 0.14415 0.30698 0.91363 0.0
C833 C 0.16319 0.35171 0.8894 0.0
C834 C 0.18006 0.36784 0.86704 0.0
C835 C 0.13055 0.3225 0.93109 0.0
C836 C 0.13273 0.35281 0.92711 0.0
C837 C 0.14938 0.36712 0.90662 0.0
C838 C 0.11686 0.36992 0.94297 0.0
C839 C 0.11428 0.30637 0.95375 0.0
C840 C 0.08668 0.36077 0.94229 0.0
C841 C 0.07146 0.37815 0.95535 0.0
C842 C 0.08615 0.40528 0.96896 0.0
C843 C 0.11643 0.41429 0.96978 0.0
C844 C 0.13164 0.39673 0.95689 0.0
H845 H 0.12238 0.28705 0.95959 0.0
H846 H 0.11598 0.32126 0.97221 0.0
H847 H 0.09116 0.29796 0.94657 0.0
H848 H 0.07479 0.34058 0.931 0.0
H849 H 0.04814 0.37065 0.95415 0.0
H850 H 0.66949 0.24038 0.79429 0.0
H851 H 0.62841 0.21223 0.81752 0.0
H852 H 0.6622 0.13545 0.81396 0.0
H853 H 0.70302 0.1631 0.79038 0.0
H854 H 0.60227 0.12357 0.79848 0.0
H855 H 0.63313 0.18949 0.89769 0.0
H856 H 0.62899 0.20929 0.86747 0.0
H857 H 0.65796 0.19173 0.87133 0.0
C858 C 0.66825 0.21752 0.79851 0.0
C859 C 0.68967 0.20403 0.79063 0.0
C860 C 0.64475 0.20152 0.8118 0.0
C861 C 0.64245 0.1719 0.81761 0.0
C862 C 0.66361 0.15832 0.80957 0.0
H863 H 0.58184 0.02941 0.90631 0.0
H864 H 0.59639 0.06481 0.87123 0.0
C865 C 0.687 0.17421 0.79621 0.0
C866 C 0.61853 0.15481 0.83267 0.0
H867 H 0.59548 0.14628 0.89697 0.0
C868 C 0.60034 0.12883 0.81987 0.0
C869 C 0.61584 0.16198 0.86045 0.0
C870 C 0.63505 0.18952 0.87522 0.0
C871 C 0.58093 0.10872 0.83469 0.0
C872 C 0.57998 0.11471 0.86298 0.0
C873 C 0.59632 0.14185 0.87522 0.0
C874 C 0.56709 0.0911 0.88113 0.0
C875 C 0.56267 0.08051 0.82033 0.0
C876 C 0.54563 0.0941 0.89823 0.0
C877 C 0.53713 0.07367 0.91834 0.0
C878 C 0.55054 0.05054 0.9219 0.0
C879 C 0.57125 0.04712 0.90409 0.0
C880 C 0.57938 0.06716 0.88387 0.0
H881 H 0.55842 0.08354 0.79818 0.0
H882 H 0.57434 0.06298 0.82213 0.0
H883 H 0.54175 0.07277 0.82962 0.0
H884 H 0.5362 0.1127 0.89659 0.0
H885 H 0.52125 0.07688 0.93195 0.0
H886 H 0.80209 0.66208 0.82077 0.0
H887 H 0.83688 0.63511 0.83685 0.0
H888 H 0.90552 0.71553 0.83798 0.0
H889 H 0.87072 0.74273 0.82257 0.0
H890 H 0.88376 0.62812 0.8099 0.0
H891 H 0.91887 0.68429 0.91268 0.0
H892 H 0.88706 0.6879 0.89298 0.0
H893 H 0.92222 0.70882 0.88493 0.0
C894 C 0.82451 0.6741 0.82505 0.0
C895 C 0.83376 0.70448 0.82065 0.0
C896 C 0.84436 0.65865 0.83399 0.0
C897 C 0.87373 0.67335 0.83866 0.0
C898 C 0.88289 0.70387 0.83491 0.0
H899 H 0.01072 0.60514 0.91081 0.0
H900 H 0.9893 0.63258 0.87761 0.0
C901 C 0.863 0.71938 0.82615 0.0
C902 C 0.89478 0.65645 0.84667 0.0
H903 H 0.94311 0.64946 0.89835 0.0
C904 C 0.89689 0.63285 0.82918 0.0
C905 C 0.91199 0.66285 0.8717 0.0
C906 C 0.90983 0.68716 0.8918 0.0
C907 C 0.91537 0.61504 0.83638 0.0
C908 C 0.93197 0.62097 0.86172 0.0
C909 C 0.93061 0.64521 0.87872 0.0
C910 C 0.94781 0.60033 0.87312 0.0
C911 C 0.91668 0.58981 0.81705 0.0
C912 C 0.93221 0.57213 0.87999 0.0
C913 C 0.94434 0.55639 0.89903 0.0
C914 C 0.97209 0.5689 0.91173 0.0
C915 C 0.98906 0.59516 0.90185 0.0
C916 C 0.97687 0.61091 0.88283 0.0
H917 H 0.91052 0.59395 0.79557 0.0
H918 H 0.93861 0.58612 0.81815 0.0
H919 H 0.90126 0.56923 0.82279 0.0
H920 H 0.90969 0.56363 0.87291 0.0
H921 H 0.93082 0.53598 0.90583 0.0
H922 H 0.22186 0.33617 0.17698 0.0
H923 H 0.18933 0.36607 0.16206 0.0
H924 H 0.11831 0.2875 0.15261 0.0
H925 H 0.15088 0.25736 0.16713 0.0
H926 H 0.11965 0.32467 0.10995 0.0
H927 H 0.13024 0.38774 0.20937 0.0
H928 H 0.16421 0.38944 0.19552 0.0
H929 H 0.14241 0.35453 0.20545 0.0
C930 C 0.19939 0.32524 0.17134 0.0
C931 C 0.18879 0.29452 0.17325 0.0
C932 C 0.18079 0.34237 0.1632 0.0
C933 C 0.1513 0.32907 0.15708 0.0
C934 C 0.14095 0.29819 0.15766 0.0
H935 H 0.0165 0.40384 0.08782 0.0
H936 H 0.03833 0.37454 0.11887 0.0
C937 C 0.15958 0.28101 0.16574 0.0
C938 C 0.1314 0.34737 0.1495 0.0
H939 H 0.10786 0.40653 0.17124 0.0
C940 C 0.11669 0.34226 0.12347 0.0
C941 C 0.1276 0.37023 0.16732 0.0
C942 C 0.14173 0.37567 0.19608 0.0
C943 C 0.09927 0.3603 0.11422 0.0
C944 C 0.09611 0.38373 0.13172 0.0
C945 C 0.1102 0.3884 0.15804 0.0
C946 C 0.08069 0.4052 0.12153 0.0
C947 C 0.08546 0.35503 0.08528 0.0
C948 C 0.09671 0.43331 0.11498 0.0
C949 C 0.08433 0.45021 0.09732 0.0
C950 C 0.05586 0.43895 0.08582 0.0
C951 C 0.03869 0.41284 0.09579 0.0
C952 C 0.05111 0.396 0.11352 0.0
H953 H 0.09386 0.33912 0.07309 0.0
H954 H 0.06182 0.34587 0.08582 0.0
H955 H 0.08921 0.37615 0.07463 0.0
H956 H 0.11952 0.4409 0.12129 0.0
H957 H 0.09803 0.47052 0.09051 0.0
H958 H 0.22286 0.66925 0.80559 0.0
H959 H 0.18578 0.63396 0.82788 0.0
H960 H 0.11943 0.66178 0.78071 0.0
H961 H 0.15641 0.69737 0.75824 0.0
H962 H 0.11297 0.65978 0.83792 0.0
H963 H 0.13072 0.55562 0.79541 0.0
H964 H 0.1637 0.58136 0.80868 0.0
H965 H 0.14319 0.59073 0.77986 0.0
C966 C 0.20042 0.66782 0.7998 0.0
C967 C 0.19262 0.68609 0.7801 0.0
C968 C 0.17925 0.64747 0.81241 0.0
C969 C 0.14993 0.64496 0.80553 0.0
C970 C 0.14198 0.66323 0.78602 0.0
H971 H 0.02234 0.5404 0.91122 0.0
H972 H 0.03842 0.56763 0.87063 0.0
C973 C 0.16316 0.68352 0.77326 0.0
C974 C 0.12791 0.62437 0.82012 0.0
H975 H 0.10868 0.55273 0.83856 0.0
C976 C 0.11134 0.63621 0.83762 0.0
C977 C 0.12565 0.59365 0.81928 0.0
C978 C 0.14155 0.57952 0.79957 0.0
C979 C 0.0946 0.6185 0.85626 0.0
C980 C 0.09443 0.58828 0.85707 0.0
C981 C 0.10907 0.57599 0.83797 0.0
C982 C 0.08362 0.57053 0.88034 0.0
C983 C 0.07904 0.63261 0.87635 0.0
C984 C 0.10364 0.56278 0.89877 0.0
C985 C 0.09461 0.54759 0.9219 0.0
C986 C 0.0653 0.5398 0.92709 0.0
C987 C 0.0451 0.54681 0.90813 0.0
C988 C 0.05421 0.56217 0.8849 0.0
H989 H 0.08348 0.65695 0.8745 0.0
H990 H 0.05544 0.62282 0.8727 0.0
H991 H 0.08552 0.62816 0.89764 0.0
H992 H 0.12644 0.56911 0.89556 0.0
H993 H 0.11078 0.54255 0.93602 0.0
H994 H 0.33583 0.19773 0.76005 0.0
H995 H 0.36424 0.17024 0.78668 0.0
H996 H 0.31515 0.17587 0.85615 0.0
H997 H 0.28714 0.20388 0.82991 0.0
H998 H 0.37047 0.18685 0.87289 0.0
H999 H 0.34372 0.08498 0.80541 0.0
H1000 H 0.35978 0.1176 0.78795 0.0
H1001 H 0.32509 0.11361 0.8013 0.0
C1002 C 0.33092 0.19306 0.78096 0.0
C1003 C 0.3089 0.20314 0.7926 0.0
C1004 C 0.34716 0.17702 0.79621 0.0
C1005 C 0.34174 0.17023 0.82352 0.0
C1006 C 0.31992 0.18051 0.8352 0.0
H1007 H 0.39928 0.03903 0.92148 0.0
H1008 H 0.37372 0.0656 0.89071 0.0
C1009 C 0.30377 0.1966 0.82003 0.0
C1010 C 0.35909 0.1532 0.8402 0.0
H1011 H 0.38041 0.08858 0.84124 0.0
C1012 C 0.37257 0.16536 0.86586 0.0
C1013 C 0.36177 0.12482 0.83157 0.0
C1014 C 0.3466 0.1093 0.80519 0.0
C1015 C 0.3886 0.15037 0.88275 0.0
C1016 C 0.39206 0.12242 0.87374 0.0
C1017 C 0.37831 0.11008 0.84822 0.0
C1018 C 0.40886 0.10528 0.89093 0.0
C1019 C 0.40092 0.16437 0.91057 0.0
C1020 C 0.43776 0.1179 0.90078 0.0
C1021 C 0.45254 0.10268 0.91853 0.0
C1022 C 0.43903 0.07411 0.9268 0.0
C1023 C 0.41062 0.06088 0.9157 0.0
C1024 C 0.39582 0.07619 0.89805 0.0
H1025 H 0.38968 0.18095 0.9175 0.0
H1026 H 0.39935 0.14741 0.92616 0.0
H1027 H 0.42401 0.17598 0.90946 0.0
H1028 H 0.44887 0.13985 0.89511 0.0
H1029 H 0.47438 0.11369 0.92635 0.0
H1030 H 0.78785 0.25985 0.84883 0.0
H1031 H 0.80289 0.29969 0.88462 0.0
H1032 H 0.79853 0.36412 0.82442 0.0
H1033 H 0.7861 0.32491 0.78867 0.0
H1034 H 0.84919 0.37545 0.84943 0.0
H1035 H 0.77076 0.35613 0.92851 0.0
H1036 H 0.78215 0.3234 0.92079 0.0
H1037 H 0.76252 0.33823 0.89466 0.0
C1038 C 0.78959 0.28248 0.84344 0.0
C1039 C 0.7855 0.28931 0.81605 0.0
C1040 C 0.79772 0.30519 0.86393 0.0
C1041 C 0.80128 0.33489 0.85728 0.0
C1042 C 0.79551 0.34138 0.8301 0.0
H1043 H 0.92485 0.48145 0.94938 0.0
H1044 H 0.87877 0.45994 0.923 0.0
C1045 C 0.78813 0.31888 0.80966 0.0
C1046 C 0.81642 0.35923 0.87718 0.0
H1047 H 0.81977 0.38436 0.94372 0.0
C1048 C 0.8423 0.378 0.86979 0.0
C1049 C 0.80743 0.36247 0.90372 0.0
C1050 C 0.77902 0.34415 0.91227 0.0
C1051 C 0.86058 0.39835 0.88876 0.0
C1052 C 0.8525 0.40035 0.91586 0.0
C1053 C 0.82577 0.38289 0.92288 0.0
C1054 C 0.87399 0.41597 0.93783 0.0
C1055 C 0.88949 0.4157 0.88015 0.0
C1056 C 0.88514 0.39892 0.95647 0.0
C1057 C 0.91122 0.41111 0.97164 0.0
C1058 C 0.92663 0.44055 0.96831 0.0
C1059 C 0.91372 0.45858 0.95207 0.0
C1060 C 0.88739 0.44634 0.93699 0.0
H1061 H 0.89384 0.40838 0.85945 0.0
H1062 H 0.89 0.43952 0.87976 0.0
H1063 H 0.90719 0.41338 0.89493 0.0
H1064 H 0.875 0.37547 0.95754 0.0
H1065 H 0.92023 0.3968 0.98451 0.0
H1066 H 0.73669 0.78373 0.84016 0.0
H1067 H 0.70975 0.8098 0.86822 0.0
H1068 H 0.69112 0.85727 0.79826 0.0
H1069 H 0.71715 0.83064 0.76996 0.0
H1070 H 0.71419 0.86582 0.88365 0.0
H1071 H 0.61122 0.82438 0.82031 0.0
H1072 H 0.64216 0.81031 0.8155 0.0
H1073 H 0.63956 0.84447 0.80088 0.0
C1074 C 0.72704 0.79987 0.83076 0.0
C1075 C 0.72901 0.80485 0.80266 0.0
C1076 C 0.71152 0.81478 0.84687 0.0
C1077 C 0.69761 0.8351 0.83536 0.0
C1078 C 0.70072 0.84107 0.80759 0.0
H1079 H 0.62913 0.95948 0.9333 0.0
H1080 H 0.6589 0.93668 0.90554 0.0
C1081 C 0.71592 0.82596 0.79143 0.0
C1082 C 0.67972 0.8498 0.85225 0.0
H1083 H 0.6128 0.86236 0.85412 0.0
C1084 C 0.69199 0.86497 0.87718 0.0
C1085 C 0.65049 0.84841 0.84428 0.0
C1086 C 0.63497 0.83076 0.81894 0.0
C1087 C 0.67616 0.87896 0.89401 0.0
C1088 C 0.64729 0.87858 0.88547 0.0
C1089 C 0.63496 0.86312 0.86069 0.0
C1090 C 0.6291 0.89303 0.90225 0.0
C1091 C 0.69038 0.89323 0.92117 0.0
C1092 C 0.60175 0.87669 0.909 0.0
C1093 C 0.58441 0.88986 0.92447 0.0
C1094 C 0.59387 0.91984 0.93378 0.0
C1095 C 0.62114 0.93631 0.92679 0.0
C1096 C 0.63838 0.92316 0.91104 0.0
H1097 H 0.70853 0.884 0.92826 0.0
H1098 H 0.69927 0.91732 0.91893 0.0
H1099 H 0.67471 0.89016 0.93718 0.0
H1100 H 0.59384 0.85349 0.90251 0.0
H1101 H 0.56364 0.87633 0.92939 0.0
H1102 H 0.77746 0.68749 0.13775 0.0
H1103 H 0.80451 0.66874 0.10393 0.0
H1104 H 0.87461 0.74767 0.11842 0.0
H1105 H 0.84788 0.76625 0.15267 0.0
H1106 H 0.83228 0.6904 0.05582 0.0
H1107 H 0.9093 0.67973 0.14236 0.0
H1108 H 0.87494 0.68693 0.14761 0.0
H1109 H 0.90458 0.71627 0.1385 0.0
C1110 C 0.79839 0.70107 0.13328 0.0
C1111 C 0.81086 0.72805 0.14799 0.0
C1112 C 0.81377 0.69039 0.11397 0.0
C1113 C 0.84171 0.70663 0.10915 0.0
C1114 C 0.85324 0.73465 0.12228 0.0
H1115 H 0.97501 0.64573 0.03175 0.0
H1116 H 0.94759 0.67759 0.05117 0.0
C1117 C 0.83797 0.74524 0.14173 0.0
C1118 C 0.85981 0.6928 0.09274 0.0
H1119 H 0.91855 0.66477 0.09849 0.0
C1120 C 0.85128 0.68497 0.06502 0.0
C1121 C 0.88444 0.68564 0.10498 0.0
C1122 C 0.89381 0.69231 0.13504 0.0
C1123 C 0.8668 0.66997 0.04915 0.0
C1124 C 0.89111 0.66239 0.06154 0.0
C1125 C 0.89996 0.67081 0.08908 0.0
C1126 C 0.90684 0.64417 0.04699 0.0
C1127 C 0.85709 0.66231 0.01932 0.0
C1128 C 0.89291 0.61485 0.03831 0.0
C1129 C 0.90849 0.5965 0.02732 0.0
C1130 C 0.93833 0.60715 0.025 0.0
C1131 C 0.95208 0.63676 0.03329 0.0
C1132 C 0.93647 0.65506 0.0443 0.0
H1133 H 0.84354 0.67657 0.01122 0.0
H1134 H 0.87586 0.66461 0.00676 0.0
H1135 H 0.84398 0.63896 0.01699 0.0
H1136 H 0.87017 0.60586 0.04082 0.0
H1137 H 0.89721 0.57383 0.02114 0.0
H1138 H 0.34448 0.84372 0.24398 0.0
H1139 H 0.38341 0.87427 0.21963 0.0
H1140 H 0.37465 0.80214 0.15991 0.0
H1141 H 0.33692 0.77095 0.18519 0.0
H1142 H 0.4304 0.83386 0.16864 0.0
H1143 H 0.3592 0.90939 0.15174 0.0
H1144 H 0.36969 0.90599 0.18701 0.0
H1145 H 0.34714 0.87442 0.16727 0.0
C1146 C 0.35117 0.83435 0.22582 0.0
C1147 C 0.33744 0.80529 0.21603 0.0
C1148 C 0.37336 0.85177 0.21196 0.0
C1149 C 0.38134 0.84074 0.18755 0.0
C1150 C 0.36874 0.81112 0.17866 0.0
H1151 H 0.41811 0.92056 0.0416 0.0
H1152 H 0.40349 0.89053 0.08042 0.0
C1153 C 0.34709 0.7934 0.19296 0.0
C1154 C 0.40021 0.86074 0.16961 0.0
H1155 H 0.40269 0.9206 0.13102 0.0
C1156 C 0.4246 0.85304 0.1606 0.0
C1157 C 0.39243 0.88569 0.15908 0.0
C1158 C 0.36558 0.89428 0.16654 0.0
C1159 C 0.44064 0.8689 0.1404 0.0
C1160 C 0.43223 0.89318 0.12944 0.0
C1161 C 0.40898 0.9019 0.13962 0.0
C1162 C 0.444 0.90741 0.10472 0.0
C1163 C 0.46538 0.85872 0.12979 0.0
C1164 C 0.47211 0.92598 0.10517 0.0
C1165 C 0.48071 0.943 0.08265 0.0
C1166 C 0.46097 0.94194 0.05995 0.0
C1167 C 0.43352 0.92211 0.05909 0.0
C1168 C 0.4252 0.90489 0.08118 0.0
H1169 H 0.46753 0.83782 0.13879 0.0
H1170 H 0.46237 0.85529 0.10716 0.0
H1171 H 0.48581 0.8761 0.13483 0.0
H1172 H 0.4868 0.92838 0.1233 0.0
H1173 H 0.50202 0.95816 0.08362 0.0
H1174 H 0.70409 0.19613 0.18896 0.0
H1175 H 0.68088 0.17173 0.14578 0.0
H1176 H 0.76407 0.18268 0.11338 0.0
H1177 H 0.78766 0.20644 0.15738 0.0
H1178 H 0.68148 0.19156 0.095 0.0
H1179 H 0.72852 0.09462 0.09906 0.0
H1180 H 0.73182 0.12022 0.1281 0.0
H1181 H 0.75329 0.13074 0.09963 0.0
C1182 C 0.71748 0.19344 0.17264 0.0
C1183 C 0.74763 0.20296 0.17646 0.0
C1184 C 0.7042 0.17952 0.14795 0.0
C1185 C 0.72076 0.17508 0.12646 0.0
C1186 C 0.75094 0.18534 0.12989 0.0
H1187 H 0.59197 0.09901 0.99167 0.0
H1188 H 0.63979 0.12854 0.00988 0.0
C1189 C 0.76434 0.19903 0.15489 0.0
C1190 C 0.70563 0.15923 0.10094 0.0
H1191 H 0.6909 0.09237 0.06566 0.0
C1192 C 0.68379 0.17007 0.08815 0.0
C1193 C 0.70895 0.13132 0.09212 0.0
C1194 C 0.73176 0.11832 0.10545 0.0
C1195 C 0.66326 0.15261 0.06876 0.0
C1196 C 0.66564 0.12398 0.06084 0.0
C1197 C 0.68915 0.11428 0.07177 0.0
C1198 C 0.6415 0.10218 0.04522 0.0
C1199 C 0.63787 0.1641 0.05908 0.0
C1200 C 0.62809 0.07586 0.05743 0.0
C1201 C 0.60144 0.05835 0.04642 0.0
C1202 C 0.58764 0.06734 0.02345 0.0
C1203 C 0.60216 0.09209 0.00977 0.0
C1204 C 0.62929 0.10903 0.02025 0.0
H1205 H 0.6366 0.18392 0.07152 0.0
H1206 H 0.64002 0.17057 0.03757 0.0
H1207 H 0.61727 0.14684 0.06001 0.0
H1208 H 0.63718 0.06994 0.07659 0.0
H1209 H 0.59059 0.03924 0.05718 0.0
H1210 H 0.67657 0.65464 0.74897 0.0
H1211 H 0.64512 0.62664 0.7818 0.0
H1212 H 0.68858 0.6901 0.84661 0.0
H1213 H 0.72062 0.71733 0.81423 0.0
H1214 H 0.68115 0.63691 0.86355 0.0
H1215 H 0.57687 0.64486 0.81411 0.0
H1216 H 0.59661 0.62808 0.7915 0.0
H1217 H 0.61108 0.66608 0.80366 0.0
C1218 C 0.67946 0.66245 0.77026 0.0
C1219 C 0.701 0.6882 0.779 0.0
C1220 C 0.66123 0.64668 0.78896 0.0
C1221 C 0.66389 0.65665 0.81662 0.0
C1222 C 0.68585 0.68204 0.82538 0.0
H1223 H 0.54229 0.58358 0.94058 0.0
H1224 H 0.56783 0.6163 0.90656 0.0
C1225 C 0.70425 0.69757 0.80683 0.0
C1226 C 0.64482 0.64005 0.83681 0.0
H1227 H 0.57435 0.6101 0.84946 0.0
C1228 C 0.65781 0.63133 0.8605 0.0
C1229 C 0.61428 0.63321 0.83327 0.0
C1230 C 0.59888 0.64382 0.80941 0.0
C1231 C 0.64129 0.61521 0.88018 0.0
C1232 C 0.61083 0.6067 0.87577 0.0
C1233 C 0.59769 0.61629 0.85264 0.0
C1234 C 0.59276 0.58629 0.89419 0.0
C1235 C 0.65673 0.60747 0.9056 0.0
C1236 C 0.59735 0.55821 0.89762 0.0
C1237 C 0.58315 0.53986 0.91699 0.0
C1238 C 0.56354 0.54885 0.93316 0.0
C1239 C 0.55733 0.57614 0.92849 0.0
C1240 C 0.57195 0.59482 0.90913 0.0
H1241 H 0.67833 0.62317 0.91006 0.0
H1242 H 0.64406 0.60757 0.92373 0.0
H1243 H 0.65992 0.58498 0.90243 0.0
H1244 H 0.61262 0.55077 0.88578 0.0
H1245 H 0.58797 0.5187 0.91966 0.0
H1246 H 0.36646 0.74532 0.8184 0.0
H1247 H 0.40452 0.72678 0.84168 0.0
H1248 H 0.36264 0.63848 0.80853 0.0
H1249 H 0.32515 0.65702 0.7847 0.0
H1250 H 0.39878 0.68734 0.88013 0.0
H1251 H 0.44468 0.64433 0.79229 0.0
H1252 H 0.42115 0.66862 0.78829 0.0
H1253 H 0.40635 0.62936 0.79091 0.0
C1254 C 0.36556 0.722 0.816 0.0
C1255 C 0.34299 0.70254 0.7998 0.0
C1256 C 0.38734 0.71149 0.82915 0.0
C1257 C 0.38681 0.6814 0.82626 0.0
C1258 C 0.36404 0.66195 0.81029 0.0
H1259 H 0.43622 0.55106 0.9121 0.0
H1260 H 0.42202 0.58178 0.87731 0.0
C1261 C 0.34243 0.67248 0.79699 0.0
C1262 C 0.40846 0.66967 0.84186 0.0
H1263 H 0.45223 0.62318 0.836 0.0
C1264 C 0.41105 0.67393 0.87046 0.0
C1265 C 0.42454 0.65231 0.82915 0.0
C1266 C 0.42427 0.64866 0.79844 0.0
C1267 C 0.42768 0.65959 0.88682 0.0
C1268 C 0.44225 0.64073 0.87416 0.0
C1269 C 0.44096 0.63767 0.84554 0.0
C1270 C 0.45552 0.62118 0.8906 0.0
C1271 C 0.42808 0.6632 0.91759 0.0
C1272 C 0.48 0.63291 0.90857 0.0
C1273 C 0.48821 0.61542 0.92857 0.0
C1274 C 0.47184 0.58607 0.93089 0.0
C1275 C 0.449 0.57372 0.91114 0.0
C1276 C 0.44092 0.59117 0.89114 0.0
H1277 H 0.41303 0.6761 0.92407 0.0
H1278 H 0.42217 0.64119 0.92667 0.0
H1279 H 0.45018 0.67491 0.92607 0.0
H1280 H 0.49162 0.65603 0.9082 0.0
H1281 H 0.50612 0.6255 0.94328 0.0
H1282 H 0.34052 0.33657 0.77153 0.0
H1283 H 0.3523 0.37543 0.80805 0.0
H1284 H 0.2615 0.36727 0.8146 0.0
H1285 H 0.24985 0.32694 0.779 0.0
H1286 H 0.34342 0.42809 0.81601 0.0
H1287 H 0.28329 0.35352 0.89129 0.0
H1288 H 0.28825 0.33968 0.85778 0.0
H1289 H 0.26295 0.36159 0.86188 0.0
C1290 C 0.32319 0.34333 0.7807 0.0
C1291 C 0.29442 0.32884 0.77296 0.0
C1292 C 0.32983 0.36557 0.80145 0.0
C1293 C 0.30778 0.37401 0.8145 0.0
C1294 C 0.27888 0.36064 0.80547 0.0
H1295 H 0.41835 0.4918 0.94311 0.0
H1296 H 0.37426 0.48109 0.91233 0.0
C1297 C 0.27224 0.33781 0.78507 0.0
C1298 C 0.3159 0.39509 0.83874 0.0
H1299 H 0.31782 0.39561 0.90845 0.0
C1300 C 0.33741 0.42143 0.83627 0.0
C1301 C 0.30738 0.38673 0.8651 0.0
C1302 C 0.28431 0.35883 0.86937 0.0
C1303 C 0.35367 0.4371 0.85936 0.0
C1304 C 0.34733 0.42669 0.88567 0.0
C1305 C 0.32284 0.40318 0.88821 0.0
C1306 C 0.36961 0.4338 0.90901 0.0
C1307 C 0.37944 0.46247 0.85509 0.0
C1308 C 0.38037 0.41065 0.91899 0.0
C1309 C 0.40498 0.41658 0.93689 0.0
C1310 C 0.41973 0.44589 0.94507 0.0
C1311 C 0.40771 0.46899 0.93691 0.0
C1312 C 0.38263 0.46294 0.91913 0.0
H1313 H 0.38261 0.46593 0.83306 0.0
H1314 H 0.37645 0.48322 0.8645 0.0
H1315 H 0.39939 0.45837 0.86498 0.0
H1316 H 0.37072 0.38794 0.91162 0.0
H1317 H 0.41327 0.39814 0.94308 0.0
H1318 H 0.65589 0.31111 0.75135 0.0
H1319 H 0.62839 0.33278 0.78262 0.0
H1320 H 0.70726 0.39264 0.81796 0.0
H1321 H 0.73487 0.37113 0.78675 0.0
H1322 H 0.64137 0.32869 0.84016 0.0
H1323 H 0.64915 0.44467 0.81248 0.0
H1324 H 0.65419 0.41676 0.78837 0.0
H1325 H 0.68246 0.4339 0.81401 0.0
C1326 C 0.66724 0.32961 0.76511 0.0
C1327 C 0.69747 0.33941 0.76677 0.0
C1328 C 0.65153 0.34186 0.78301 0.0
C1329 C 0.66583 0.36429 0.80252 0.0
C1330 C 0.69582 0.37564 0.80278 0.0
H1331 H 0.61783 0.44417 0.94791 0.0
H1332 H 0.64383 0.42841 0.91155 0.0
C1333 C 0.71155 0.36331 0.78496 0.0
C1334 C 0.65012 0.37264 0.82507 0.0
H1335 H 0.63117 0.43065 0.85545 0.0
C1336 C 0.63888 0.35091 0.8434 0.0
C1337 C 0.64741 0.40173 0.82938 0.0
C1338 C 0.65873 0.42563 0.80995 0.0
C1339 C 0.62524 0.3576 0.86624 0.0
C1340 C 0.62225 0.38663 0.87047 0.0
C1341 C 0.63354 0.4084 0.85213 0.0
C1342 C 0.60695 0.39474 0.89349 0.0
C1343 C 0.6148 0.3337 0.88598 0.0
C1344 C 0.5777 0.38077 0.89551 0.0
C1345 C 0.5628 0.38954 0.91634 0.0
C1346 C 0.57682 0.4127 0.93541 0.0
C1347 C 0.60635 0.4262 0.93366 0.0
C1348 C 0.62124 0.41735 0.91282 0.0
H1349 H 0.62581 0.31566 0.88415 0.0
H1350 H 0.61837 0.34289 0.90746 0.0
H1351 H 0.59132 0.32383 0.88139 0.0
H1352 H 0.56617 0.36361 0.88051 0.0
H1353 H 0.54006 0.37876 0.91693 0.0
H1354 H 0.68281 0.33477 0.21336 0.0
H1355 H 0.64719 0.35559 0.18898 0.0
H1356 H 0.61498 0.27402 0.14018 0.0
H1357 H 0.65084 0.25294 0.1645 0.0
H1358 H 0.64443 0.35461 0.1252 0.0
H1359 H 0.54247 0.3021 0.17241 0.0
H1360 H 0.57729 0.30848 0.19123 0.0
H1361 H 0.56694 0.28015 0.16435 0.0
C1362 C 0.668 0.32118 0.19758 0.0
C1363 C 0.66959 0.29233 0.19066 0.0
C1364 C 0.64763 0.33304 0.18382 0.0
C1365 C 0.62837 0.31616 0.16312 0.0
C1366 C 0.6295 0.28714 0.15642 0.0
H1367 H 0.50982 0.36507 0.04486 0.0
H1368 H 0.53027 0.33757 0.07899 0.0
C1369 C 0.65004 0.27526 0.17014 0.0
C1370 C 0.60917 0.33017 0.14684 0.0
H1371 H 0.53985 0.33581 0.13794 0.0
C1372 C 0.62157 0.35053 0.12792 0.0
C1373 C 0.5794 0.32444 0.15044 0.0
C1374 C 0.56551 0.30267 0.17073 0.0
C1375 C 0.60494 0.36554 0.11241 0.0
C1376 C 0.57526 0.36063 0.11657 0.0
C1377 C 0.56268 0.33978 0.13515 0.0
C1378 C 0.55728 0.37673 0.10104 0.0
C1379 C 0.61926 0.38622 0.09138 0.0
C1380 C 0.56427 0.40775 0.1034 0.0
C1381 C 0.55297 0.42348 0.08378 0.0
C1382 C 0.53416 0.40835 0.06182 0.0
C1383 C 0.5244 0.3773 0.06149 0.0
C1384 C 0.53607 0.36154 0.08095 0.0
H1385 H 0.63988 0.38179 0.08601 0.0
H1386 H 0.60488 0.3842 0.07235 0.0
H1387 H 0.62413 0.40941 0.09982 0.0
H1388 H 0.58018 0.4198 0.11917 0.0
H1389 H 0.56048 0.44744 0.08477 0.0
H1390 H 0.75637 0.66937 0.211 0.0
H1391 H 0.74372 0.62823 0.17627 0.0
H1392 H 0.65516 0.63303 0.17185 0.0
H1393 H 0.66754 0.67343 0.20682 0.0
H1394 H 0.66072 0.57555 0.1733 0.0
H1395 H 0.74499 0.63298 0.1274 0.0
H1396 H 0.72099 0.65666 0.12596 0.0
H1397 H 0.72761 0.63836 0.09507 0.0
C1398 C 0.7342 0.66148 0.2026 0.0
C1399 C 0.71288 0.67459 0.21134 0.0
C1400 C 0.72706 0.63808 0.18277 0.0
C1401 C 0.69858 0.62777 0.17134 0.0
C1402 C 0.67727 0.64057 0.18052 0.0
H1403 H 0.59405 0.59604 0.04379 0.0
H1404 H 0.63744 0.60739 0.07432 0.0
C1405 C 0.68433 0.6637 0.20041 0.0
C1406 C 0.69031 0.60455 0.14897 0.0
H1407 H 0.69032 0.59727 0.07958 0.0
C1408 C 0.66767 0.57965 0.15284 0.0
C1409 C 0.70003 0.60975 0.12251 0.0
C1410 C 0.72467 0.63588 0.11725 0.0
C1411 C 0.65166 0.5623 0.1305 0.0
C1412 C 0.65915 0.56976 0.10366 0.0
C1413 C 0.6845 0.59188 0.10017 0.0
C1414 C 0.6372 0.5616 0.08015 0.0
C1415 C 0.62492 0.53854 0.13578 0.0
C1416 C 0.62332 0.53203 0.07204 0.0
C1417 C 0.59784 0.52539 0.0548 0.0
C1418 C 0.58627 0.5483 0.0453 0.0
C1419 C 0.60198 0.57782 0.05121 0.0
C1420 C 0.62707 0.58437 0.0685 0.0
H1421 H 0.62132 0.53708 0.15792 0.0
H1422 H 0.6056 0.54296 0.1249 0.0
H1423 H 0.62694 0.5167 0.12805 0.0
H1424 H 0.63118 0.51412 0.08024 0.0
H1425 H 0.58643 0.5024 0.05031 0.0
H1426 H 0.2831 0.63235 0.21905 0.0
H1427 H 0.30513 0.60629 0.18613 0.0
H1428 H 0.38795 0.66764 0.20791 0.0
H1429 H 0.36614 0.69345 0.24116 0.0
H1430 H 0.3297 0.63431 0.14222 0.0
H1431 H 0.40937 0.58944 0.20169 0.0
H1432 H 0.38072 0.60081 0.21731 0.0
H1433 H 0.41309 0.62791 0.21011 0.0
C1434 C 0.3062 0.63962 0.21751 0.0
C1435 C 0.32297 0.66489 0.23263 0.0
C1436 C 0.3187 0.62481 0.19859 0.0
C1437 C 0.34818 0.63494 0.19464 0.0
C1438 C 0.36528 0.65908 0.21098 0.0
H1439 H 0.46444 0.6158 0.07437 0.0
H1440 H 0.43906 0.631 0.11141 0.0
C1441 C 0.35279 0.67387 0.22995 0.0
C1442 C 0.36025 0.62287 0.1712 0.0
H1443 H 0.41528 0.59407 0.15367 0.0
C1444 C 0.34816 0.6251 0.14472 0.0
C1445 C 0.38441 0.61105 0.17453 0.0
C1446 C 0.39749 0.60687 0.20246 0.0
C1447 C 0.36021 0.6168 0.12141 0.0
C1448 C 0.38478 0.60565 0.12475 0.0
C1449 C 0.39652 0.60282 0.15122 0.0
C1450 C 0.39915 0.59745 0.10105 0.0
C1451 C 0.34721 0.62101 0.09343 0.0
C1452 C 0.38492 0.5738 0.08272 0.0
C1453 C 0.39933 0.56507 0.06139 0.0
C1454 C 0.42831 0.57974 0.05816 0.0
C1455 C 0.44217 0.60396 0.07619 0.0
C1456 C 0.42775 0.61264 0.09747 0.0
H1457 H 0.33242 0.63568 0.09442 0.0
H1458 H 0.36434 0.63058 0.07971 0.0
H1459 H 0.33466 0.59917 0.08418 0.0
H1460 H 0.36295 0.56155 0.08537 0.0
H1461 H 0.38803 0.54622 0.04803 0.0
H1462 H 0.34632 0.33217 0.25125 0.0
H1463 H 0.37807 0.36254 0.21997 0.0
H1464 H 0.32447 0.31437 0.15082 0.0
H1465 H 0.29289 0.28383 0.18188 0.0
H1466 H 0.38437 0.32076 0.14702 0.0
H1467 H 0.36037 0.42807 0.17303 0.0
H1468 H 0.37179 0.40922 0.20135 0.0
H1469 H 0.3379 0.39303 0.18229 0.0
C1470 C 0.34117 0.3283 0.22938 0.0
C1471 C 0.31711 0.30568 0.219 0.0
C1472 C 0.35932 0.34565 0.21154 0.0
C1473 C 0.35359 0.34077 0.18306 0.0
C1474 C 0.32935 0.31844 0.17272 0.0
H1475 H 0.39753 0.44317 0.04663 0.0
H1476 H 0.37763 0.41332 0.08384 0.0
C1477 C 0.31124 0.30112 0.19049 0.0
C1478 C 0.37273 0.35874 0.16383 0.0
H1479 H 0.39393 0.42833 0.14022 0.0
C1480 C 0.38674 0.34435 0.14567 0.0
C1481 C 0.37571 0.38949 0.16213 0.0
C1482 C 0.36053 0.40595 0.18055 0.0
C1483 C 0.403 0.35975 0.12534 0.0
C1484 C 0.40542 0.39035 0.12328 0.0
C1485 C 0.39217 0.40489 0.14199 0.0
C1486 C 0.41841 0.40699 0.09993 0.0
C1487 C 0.41635 0.34301 0.10542 0.0
C1488 C 0.44808 0.41302 0.09627 0.0
C1489 C 0.45972 0.43027 0.07472 0.0
C1490 C 0.44184 0.4418 0.05669 0.0
C1491 C 0.41208 0.43495 0.06019 0.0
C1492 C 0.40057 0.41785 0.08152 0.0
H1493 H 0.40933 0.31869 0.10761 0.0
H1494 H 0.41062 0.34786 0.08405 0.0
H1495 H 0.44019 0.35028 0.10903 0.0
H1496 H 0.46228 0.40504 0.11041 0.0
H1497 H 0.48273 0.43529 0.07272 0.0
H1498 H 0.77032 0.69819 0.65563 0.0
H1499 H 0.79425 0.67083 0.62559 0.0
H1500 H 0.84199 0.64886 0.69582 0.0
H1501 H 0.81777 0.67552 0.72596 0.0
H1502 H 0.84993 0.68057 0.61646 0.0
H1503 H 0.8146 0.56886 0.65667 0.0
H1504 H 0.79848 0.59834 0.6656 0.0
H1505 H 0.83206 0.59636 0.68293 0.0
C1506 C 0.78558 0.68718 0.66478 0.0
C1507 C 0.79184 0.68902 0.69338 0.0
C1508 C 0.79939 0.67157 0.6475 0.0
C1509 C 0.81975 0.65723 0.65828 0.0
C1510 C 0.82591 0.65894 0.68684 0.0
H1511 H 0.95558 0.61228 0.57 0.0
H1512 H 0.92635 0.63438 0.59871 0.0
C1513 C 0.81206 0.67444 0.70413 0.0
C1514 C 0.83555 0.64186 0.63965 0.0
H1515 H 0.8536 0.57659 0.62757 0.0
C1516 C 0.85053 0.65776 0.61884 0.0
C1517 C 0.83619 0.6119 0.64227 0.0
C1518 C 0.81923 0.59276 0.66288 0.0
C1519 C 0.86654 0.64497 0.60123 0.0
C1520 C 0.8683 0.61547 0.60469 0.0
C1521 C 0.85269 0.59928 0.62499 0.0
C1522 C 0.88633 0.60121 0.5876 0.0
C1523 C 0.88106 0.66316 0.57876 0.0
C1524 C 0.87408 0.5744 0.57235 0.0
C1525 C 0.89093 0.5614 0.55596 0.0
C1526 C 0.92058 0.5748 0.55448 0.0
C1527 C 0.93285 0.60131 0.57028 0.0
C1528 C 0.91604 0.61419 0.58666 0.0
H1529 H 0.87064 0.68109 0.57353 0.0
H1530 H 0.90391 0.67371 0.58579 0.0
H1531 H 0.8806 0.64917 0.55994 0.0
H1532 H 0.85129 0.5637 0.57278 0.0
H1533 H 0.88062 0.54099 0.54423 0.0
H1534 H 0.35522 0.81818 0.741 0.0
H1535 H 0.39228 0.85577 0.72081 0.0
H1536 H 0.33642 0.84836 0.6469 0.0
H1537 H 0.29885 0.81162 0.66738 0.0
H1538 H 0.42183 0.85448 0.67774 0.0
H1539 H 0.35791 0.93585 0.66247 0.0
H1540 H 0.34614 0.9039 0.68257 0.0
H1541 H 0.33931 0.90089 0.64583 0.0
C1542 C 0.3508 0.82466 0.72047 0.0
C1543 C 0.32405 0.81219 0.70581 0.0
C1544 C 0.372 0.84613 0.70898 0.0
C1545 C 0.36689 0.85534 0.68259 0.0
C1546 C 0.34048 0.84229 0.66764 0.0
H1547 H 0.47734 0.9267 0.56167 0.0
H1548 H 0.45575 0.89777 0.59898 0.0
C1549 C 0.31909 0.82117 0.67928 0.0
C1550 C 0.38932 0.87816 0.67038 0.0
H1551 H 0.39859 0.94107 0.63519 0.0
C1552 C 0.41696 0.87372 0.66881 0.0
C1553 C 0.38332 0.90377 0.65955 0.0
C1554 C 0.35515 0.91156 0.66299 0.0
C1555 C 0.43817 0.89326 0.65516 0.0
C1556 C 0.43114 0.91724 0.64197 0.0
C1557 C 0.40405 0.92257 0.64501 0.0
C1558 C 0.45004 0.93544 0.62275 0.0
C1559 C 0.46773 0.88784 0.655 0.0
C1560 C 0.45431 0.96635 0.62358 0.0
C1561 C 0.46588 0.98274 0.60177 0.0
C1562 C 0.4741 0.96857 0.57925 0.0
C1563 C 0.47193 0.93814 0.57929 0.0
C1564 C 0.45965 0.92161 0.60072 0.0
H1565 H 0.47324 0.8779 0.67426 0.0
H1566 H 0.46784 0.87183 0.63785 0.0
H1567 H 0.48469 0.90857 0.65255 0.0
H1568 H 0.44704 0.97754 0.6403 0.0
H1569 H 0.46717 0.00621 0.6019 0.0
H1570 H 0.21913 0.28697 0.65674 0.0
H1571 H 0.19042 0.31369 0.62983 0.0
H1572 H 0.16203 0.34502 0.70395 0.0
H1573 H 0.19009 0.31746 0.73104 0.0
H1574 H 0.11798 0.33045 0.66698 0.0
H1575 H 0.2089 0.39945 0.61588 0.0
H1576 H 0.20562 0.36077 0.60942 0.0
H1577 H 0.21436 0.37683 0.64382 0.0
C1578 C 0.2069 0.2996 0.66745 0.0
C1579 C 0.20727 0.30004 0.69627 0.0
C1580 C 0.19054 0.31519 0.65192 0.0
C1581 C 0.17436 0.33225 0.66462 0.0
C1582 C 0.17434 0.33234 0.6934 0.0
H1583 H 0.10813 0.46307 0.57217 0.0
H1584 H 0.13405 0.43867 0.60477 0.0
C1585 C 0.19051 0.31651 0.70897 0.0
C1586 C 0.15717 0.34942 0.64794 0.0
H1587 H 0.16173 0.39877 0.59699 0.0
C1588 C 0.12769 0.3455 0.65181 0.0
C1589 C 0.16956 0.36972 0.62833 0.0
C1590 C 0.2014 0.37722 0.6243 0.0
C1591 C 0.11037 0.36047 0.63639 0.0
C1592 C 0.12243 0.37954 0.61576 0.0
C1593 C 0.15207 0.38401 0.6124 0.0
C1594 C 0.10492 0.39496 0.59739 0.0
C1595 C 0.07941 0.35608 0.64296 0.0
C1596 C 0.07943 0.37899 0.58225 0.0
C1597 C 0.06423 0.39308 0.5638 0.0
C1598 C 0.07423 0.42358 0.55944 0.0
C1599 C 0.09948 0.43966 0.57494 0.0
C1600 C 0.11453 0.42559 0.59358 0.0
H1601 H 0.07638 0.34968 0.66443 0.0
H1602 H 0.07205 0.37645 0.63989 0.0
H1603 H 0.06547 0.33789 0.62934 0.0
H1604 H 0.0717 0.3553 0.58392 0.0
H1605 H 0.04522 0.37968 0.55209 0.0
H1606 H 0.72928 0.18261 0.70546 0.0
H1607 H 0.72014 0.14396 0.66934 0.0
H1608 H 0.72436 0.2097 0.60877 0.0
H1609 H 0.73645 0.24898 0.64524 0.0
H1610 H 0.67223 0.13445 0.63991 0.0
H1611 H 0.75911 0.15205 0.56915 0.0
H1612 H 0.76432 0.16943 0.6032 0.0
H1613 H 0.74802 0.18528 0.57538 0.0
C1614 C 0.72995 0.18903 0.68448 0.0
C1615 C 0.7342 0.21881 0.67815 0.0
C1616 C 0.72441 0.16685 0.66379 0.0
C1617 C 0.72192 0.17387 0.63629 0.0
C1618 C 0.72702 0.20376 0.62979 0.0
H1619 H 0.6088 0.10956 0.50479 0.0
H1620 H 0.654 0.13235 0.53142 0.0
C1621 C 0.73341 0.22615 0.65062 0.0
C1622 C 0.70822 0.14996 0.61544 0.0
H1623 H 0.71128 0.12439 0.54998 0.0
C1624 C 0.68121 0.13167 0.62057 0.0
C1625 C 0.71988 0.14645 0.59019 0.0
C1626 C 0.74958 0.16417 0.58427 0.0
C1627 C 0.66465 0.11133 0.6006 0.0
C1628 C 0.67554 0.10892 0.57475 0.0
C1629 C 0.70315 0.12616 0.56992 0.0
C1630 C 0.65615 0.09249 0.55169 0.0
C1631 C 0.63468 0.09419 0.60674 0.0
C1632 C 0.64371 0.06195 0.55269 0.0
C1633 C 0.61748 0.04887 0.53778 0.0
C1634 C 0.60368 0.06627 0.52166 0.0
C1635 C 0.61851 0.09575 0.51763 0.0
C1636 C 0.64457 0.10878 0.5326 0.0
H1637 H 0.62827 0.10167 0.62655 0.0
H1638 H 0.61852 0.09651 0.59029 0.0
H1639 H 0.63388 0.07034 0.60775 0.0
H1640 H 0.65261 0.04899 0.56715 0.0
H1641 H 0.60686 0.02598 0.54097 0.0
H1642 H 0.80775 0.28673 0.30497 0.0
H1643 H 0.83046 0.31855 0.34503 0.0
H1644 H 0.74806 0.33191 0.36309 0.0
H1645 H 0.72498 0.29956 0.32306 0.0
H1646 H 0.82456 0.38 0.34797 0.0
H1647 H 0.78854 0.31523 0.4387 0.0
H1648 H 0.78959 0.29692 0.40593 0.0
H1649 H 0.76282 0.31669 0.41062 0.0
C1650 C 0.79438 0.29596 0.31777 0.0
C1651 C 0.76473 0.29099 0.31089 0.0
C1652 C 0.80734 0.3141 0.34059 0.0
C1653 C 0.79087 0.32754 0.35684 0.0
C1654 C 0.76099 0.32149 0.35084 0.0
H1655 H 0.91452 0.47093 0.454 0.0
H1656 H 0.86598 0.44733 0.43338 0.0
C1657 C 0.74792 0.30312 0.32801 0.0
C1658 C 0.80595 0.35002 0.3782 0.0
H1659 H 0.82606 0.35889 0.44652 0.0
C1660 C 0.82451 0.37589 0.36965 0.0
C1661 C 0.80538 0.34442 0.40629 0.0
C1662 C 0.78559 0.31683 0.41617 0.0
C1663 C 0.84463 0.39509 0.3882 0.0
C1664 C 0.84556 0.38848 0.41621 0.0
C1665 C 0.82516 0.36392 0.42507 0.0
C1666 C 0.87105 0.40275 0.43495 0.0
C1667 C 0.86638 0.42062 0.37715 0.0
C1668 C 0.88904 0.38536 0.44447 0.0
C1669 C 0.91646 0.39866 0.45664 0.0
C1670 C 0.92655 0.42968 0.45934 0.0
C1671 C 0.90757 0.44701 0.45194 0.0
C1672 C 0.87985 0.43357 0.44004 0.0
H1673 H 0.86493 0.41997 0.35441 0.0
H1674 H 0.86254 0.44184 0.38447 0.0
H1675 H 0.88866 0.42044 0.38448 0.0
H1676 H 0.88264 0.36152 0.44086 0.0
H1677 H 0.93025 0.38454 0.46255 0.0
H1678 H 0.65906 0.73785 0.32776 0.0
H1679 H 0.63537 0.76061 0.36193 0.0
H1680 H 0.71656 0.82297 0.38757 0.0
H1681 H 0.74037 0.8003 0.35347 0.0
H1682 H 0.64973 0.77841 0.4237 0.0
H1683 H 0.6587 0.86956 0.35157 0.0
H1684 H 0.66187 0.8333 0.34103 0.0
H1685 H 0.69117 0.85868 0.36078 0.0
C1686 C 0.67195 0.75592 0.34117 0.0
C1687 C 0.70141 0.76768 0.33787 0.0
C1688 C 0.65844 0.7688 0.36067 0.0
C1689 C 0.67426 0.79352 0.37694 0.0
C1690 C 0.70409 0.8039 0.37504 0.0
H1691 H 0.6255 0.93062 0.46756 0.0
H1692 H 0.65112 0.8986 0.44579 0.0
C1693 C 0.7176 0.79101 0.3556 0.0
C1694 C 0.65904 0.81083 0.39309 0.0
H1695 H 0.63819 0.87508 0.39298 0.0
C1696 C 0.64717 0.79957 0.41714 0.0
C1697 C 0.6557 0.83824 0.38414 0.0
C1698 C 0.66731 0.85071 0.35788 0.0
C1699 C 0.6324 0.81552 0.43292 0.0
C1700 C 0.62912 0.843 0.42396 0.0
C1701 C 0.64088 0.85405 0.39979 0.0
C1702 C 0.61378 0.86104 0.43927 0.0
C1703 C 0.62096 0.80321 0.45925 0.0
C1704 C 0.58426 0.85044 0.44277 0.0
C1705 C 0.56946 0.8687 0.45526 0.0
C1706 C 0.58395 0.89795 0.46417 0.0
C1707 C 0.61361 0.90829 0.46083 0.0
C1708 C 0.62835 0.89001 0.44848 0.0
H1709 H 0.63137 0.78595 0.46657 0.0
H1710 H 0.62441 0.82105 0.47556 0.0
H1711 H 0.59743 0.79295 0.45578 0.0
H1712 H 0.57252 0.82833 0.43523 0.0
H1713 H 0.54661 0.86008 0.45747 0.0
H1714 H 0.20551 0.66076 0.29115 0.0
H1715 H 0.16272 0.63304 0.312 0.0
H1716 H 0.13459 0.71281 0.32229 0.0
H1717 H 0.1776 0.74095 0.30182 0.0
H1718 H 0.13286 0.68258 0.36863 0.0
H1719 H 0.07898 0.60558 0.28224 0.0
H1720 H 0.11607 0.60524 0.28787 0.0
H1721 H 0.10718 0.63869 0.27771 0.0
C1722 C 0.1902 0.67244 0.2977 0.0
C1723 C 0.19503 0.70308 0.29484 0.0
C1724 C 0.16555 0.65649 0.30931 0.0
C1725 C 0.14514 0.67076 0.31803 0.0
C1726 C 0.14991 0.70134 0.31533 0.0
H1727 H 0.01993 0.5755 0.43031 0.0
H1728 H 0.03504 0.61151 0.39511 0.0
C1729 C 0.17459 0.71737 0.30375 0.0
C1730 C 0.1203 0.65399 0.3322 0.0
H1731 H 0.06881 0.58818 0.32795 0.0
C1732 C 0.11819 0.6624 0.35955 0.0
C1733 C 0.10095 0.62795 0.32013 0.0
C1734 C 0.1007 0.61904 0.29026 0.0
C1735 C 0.09926 0.64382 0.37598 0.0
C1736 C 0.08199 0.61635 0.36458 0.0
C1737 C 0.08219 0.60924 0.3366 0.0
C1738 C 0.06891 0.59251 0.3824 0.0
C1739 C 0.09975 0.65239 0.40599 0.0
C1740 C 0.08231 0.56952 0.38605 0.0
C1741 C 0.07395 0.54927 0.40603 0.0
C1742 C 0.05186 0.5515 0.42266 0.0
C1743 C 0.03708 0.57337 0.41781 0.0
C1744 C 0.04569 0.59393 0.39782 0.0
H1745 H 0.11546 0.67399 0.41184 0.0
H1746 H 0.078 0.65397 0.4109 0.0
H1747 H 0.10539 0.63513 0.41867 0.0
H1748 H 0.10028 0.56812 0.37432 0.0
H1749 H 0.08548 0.53241 0.40904 0.0
H1750 H 0.35981 0.2286 0.32347 0.0
H1751 H 0.38936 0.19696 0.34172 0.0
H1752 H 0.31456 0.12209 0.33531 0.0
H1753 H 0.2849 0.15355 0.31707 0.0
H1754 H 0.35042 0.13032 0.38622 0.0
H1755 H 0.41245 0.13188 0.29426 0.0
H1756 H 0.41116 0.16748 0.30819 0.0
H1757 H 0.37862 0.14197 0.29361 0.0
C1758 C 0.34964 0.20548 0.32631 0.0
C1759 C 0.32015 0.19343 0.31887 0.0
C1760 C 0.36656 0.18742 0.33642 0.0
C1761 C 0.35417 0.15715 0.33923 0.0
C1762 C 0.32449 0.14537 0.33295 0.0
H1763 H 0.422 0.02212 0.41572 0.0
H1764 H 0.39309 0.04408 0.38397 0.0
C1765 C 0.3076 0.16336 0.32271 0.0
C1766 C 0.37211 0.13778 0.3491 0.0
H1767 H 0.42805 0.10948 0.33323 0.0
C1768 C 0.36722 0.12549 0.37458 0.0
C1769 C 0.39395 0.13169 0.33374 0.0
C1770 C 0.39932 0.14371 0.30581 0.0
C1771 C 0.3843 0.10794 0.38564 0.0
C1772 C 0.40631 0.1019 0.37037 0.0
C1773 C 0.41096 0.11391 0.34468 0.0
C1774 C 0.42604 0.08519 0.38208 0.0
C1775 C 0.37936 0.09705 0.41408 0.0
C1776 C 0.45499 0.09995 0.38924 0.0
C1777 C 0.47175 0.08732 0.40708 0.0
C1778 C 0.45955 0.05993 0.41818 0.0
C1779 C 0.43181 0.04355 0.40798 0.0
C1780 C 0.41519 0.05609 0.38994 0.0
H1781 H 0.36593 0.10893 0.42518 0.0
H1782 H 0.36798 0.07313 0.4126 0.0
H1783 H 0.40018 0.09985 0.4264 0.0
H1784 H 0.46385 0.1223 0.38302 0.0
H1785 H 0.4932 0.10035 0.41419 0.0
H1786 H 0.65134 0.75927 0.6782 0.0
H1787 H 0.6206 0.79053 0.66198 0.0
H1788 H 0.69616 0.86215 0.65343 0.0
H1789 H 0.72693 0.83125 0.67032 0.0
H1790 H 0.65535 0.87958 0.68189 0.0
H1791 H 0.60542 0.81614 0.58546 0.0
H1792 H 0.60132 0.79468 0.61536 0.0
H1793 H 0.63668 0.80959 0.60394 0.0
C1794 C 0.66136 0.78148 0.6723 0.0
C1795 C 0.69144 0.79288 0.67534 0.0
C1796 C 0.64381 0.7993 0.66308 0.0
C1797 C 0.65614 0.82858 0.6564 0.0
C1798 C 0.68625 0.83963 0.65857 0.0
H1799 H 0.60906 0.9692 0.58145 0.0
H1800 H 0.63101 0.94179 0.61408 0.0
C1801 C 0.70378 0.82191 0.66799 0.0
C1802 C 0.63774 0.84815 0.64806 0.0
H1803 H 0.58767 0.85654 0.59865 0.0
C1804 C 0.64044 0.87453 0.66374 0.0
C1805 C 0.61827 0.84139 0.62448 0.0
C1806 C 0.61536 0.81406 0.60617 0.0
C1807 C 0.62442 0.89457 0.65619 0.0
C1808 C 0.60536 0.88801 0.63238 0.0
C1809 C 0.60207 0.86127 0.61716 0.0
C1810 C 0.59102 0.9097 0.62071 0.0
C1811 C 0.62818 0.92269 0.67352 0.0
C1812 C 0.56103 0.90174 0.61489 0.0
C1813 C 0.54837 0.91732 0.59611 0.0
C1814 C 0.56568 0.94076 0.58258 0.0
C1815 C 0.59516 0.95102 0.5912 0.0
C1816 C 0.60777 0.93543 0.61002 0.0
H1817 H 0.63668 0.92049 0.69477 0.0
H1818 H 0.64384 0.94097 0.66447 0.0
H1819 H 0.60744 0.92887 0.67422 0.0
H1820 H 0.54776 0.88199 0.62307 0.0
H1821 H 0.52549 0.90916 0.59032 0.0
H1822 H 0.72377 0.17846 0.31666 0.0
H1823 H 0.6881 0.14171 0.33912 0.0
H1824 H 0.62738 0.13396 0.26868 0.0
H1825 H 0.6626 0.17181 0.24663 0.0
H1826 H 0.60115 0.13659 0.31282 0.0
H1827 H 0.66395 0.05435 0.32702 0.0
H1828 H 0.68435 0.08939 0.34221 0.0
H1829 H 0.67517 0.08541 0.30574 0.0
C1830 C 0.70293 0.16868 0.30586 0.0
C1831 C 0.69597 0.17784 0.27988 0.0
C1832 C 0.68261 0.14753 0.31862 0.0
C1833 C 0.65528 0.13452 0.30531 0.0
C1834 C 0.64837 0.14355 0.27926 0.0
H1835 H 0.56067 0.99194 0.39947 0.0
H1836 H 0.57847 0.01705 0.3585 0.0
C1837 C 0.66851 0.16514 0.2667 0.0
C1838 C 0.63358 0.11263 0.3193 0.0
H1839 H 0.62655 0.05254 0.35817 0.0
C1840 C 0.60644 0.11783 0.32231 0.0
C1841 C 0.64001 0.08758 0.33091 0.0
C1842 C 0.66734 0.07869 0.32599 0.0
C1843 C 0.58637 0.09981 0.33819 0.0
C1844 C 0.59416 0.07675 0.35231 0.0
C1845 C 0.62054 0.07044 0.34776 0.0
C1846 C 0.57689 0.06056 0.37372 0.0
C1847 C 0.55718 0.10587 0.3397 0.0
C1848 C 0.56883 0.07633 0.39542 0.0
C1849 C 0.55772 0.06176 0.41832 0.0
C1850 C 0.55541 0.03145 0.42022 0.0
C1851 C 0.56223 0.01538 0.39821 0.0
C1852 C 0.57246 0.02974 0.37492 0.0
H1853 H 0.55027 0.11423 0.32009 0.0
H1854 H 0.54044 0.08576 0.34434 0.0
H1855 H 0.55859 0.12337 0.35592 0.0
H1856 H 0.5729 0.10019 0.39558 0.0
H1857 H 0.55311 0.07459 0.43542 0.0
H1858 H 0.82734 0.68535 0.25866 0.0
H1859 H 0.85499 0.65816 0.28648 0.0
H1860 H 0.82562 0.69032 0.35971 0.0
H1861 H 0.79716 0.71675 0.33193 0.0
H1862 H 0.89846 0.67266 0.32336 0.0
H1863 H 0.80705 0.60492 0.37487 0.0
H1864 H 0.80184 0.62732 0.34668 0.0
H1865 H 0.8109 0.64377 0.38092 0.0
C1866 C 0.82661 0.68663 0.28069 0.0
C1867 C 0.80962 0.70324 0.29285 0.0
C1868 C 0.84257 0.67098 0.2967 0.0
C1869 C 0.84218 0.67136 0.32544 0.0
C1870 C 0.8258 0.68859 0.33765 0.0
H1871 H 0.97077 0.6203 0.43678 0.0
H1872 H 0.94453 0.64591 0.40594 0.0
C1873 C 0.80962 0.70404 0.32164 0.0
C1874 C 0.85917 0.65419 0.34244 0.0
H1875 H 0.85402 0.60442 0.39312 0.0
C1876 C 0.88859 0.65766 0.33851 0.0
C1877 C 0.8466 0.63397 0.36204 0.0
C1878 C 0.81481 0.62699 0.36621 0.0
C1879 C 0.90563 0.64223 0.35371 0.0
C1880 C 0.89338 0.62309 0.37423 0.0
C1881 C 0.86383 0.61919 0.37778 0.0
C1882 C 0.91058 0.60694 0.39219 0.0
C1883 C 0.93648 0.64612 0.34697 0.0
C1884 C 0.90049 0.57625 0.39555 0.0
C1885 C 0.91542 0.56146 0.41362 0.0
C1886 C 0.94102 0.57683 0.42902 0.0
C1887 C 0.95145 0.6074 0.42514 0.0
C1888 C 0.93639 0.62221 0.40726 0.0
H1889 H 0.93957 0.6528 0.32559 0.0
H1890 H 0.95075 0.66391 0.36076 0.0
H1891 H 0.94339 0.62543 0.34965 0.0
H1892 H 0.88072 0.56368 0.3844 0.0
H1893 H 0.90641 0.53803 0.41603 0.0
H1894 H 0.29317 0.75694 0.35739 0.0
H1895 H 0.30527 0.79581 0.39413 0.0
H1896 H 0.29799 0.86087 0.33538 0.0
H1897 H 0.28902 0.82282 0.29874 0.0
H1898 H 0.34749 0.87526 0.36055 0.0
H1899 H 0.26997 0.84731 0.43968 0.0
H1900 H 0.28387 0.81632 0.43155 0.0
H1901 H 0.26279 0.82983 0.40564 0.0
C1902 C 0.29366 0.77947 0.35251 0.0
C1903 C 0.28982 0.78688 0.32525 0.0
C1904 C 0.30006 0.80161 0.37355 0.0
C1905 C 0.30198 0.83126 0.36763 0.0
C1906 C 0.29626 0.83815 0.34054 0.0
H1907 H 0.42156 0.97778 0.46209 0.0
H1908 H 0.37434 0.95632 0.4378 0.0
C1909 C 0.29081 0.8163 0.31956 0.0
C1910 C 0.31571 0.85554 0.38817 0.0
H1911 H 0.31852 0.87711 0.45566 0.0
C1912 C 0.34058 0.87627 0.3811 0.0
C1913 C 0.30673 0.85685 0.41497 0.0
C1914 C 0.27918 0.83653 0.42328 0.0
C1915 C 0.35809 0.89661 0.40056 0.0
C1916 C 0.35028 0.89653 0.42792 0.0
C1917 C 0.32435 0.87721 0.43465 0.0
C1918 C 0.37172 0.91174 0.45011 0.0
C1919 C 0.38613 0.91612 0.39208 0.0
C1920 C 0.38436 0.89429 0.4671 0.0
C1921 C 0.41112 0.90647 0.48114 0.0
C1922 C 0.42569 0.93627 0.47825 0.0
C1923 C 0.41116 0.95462 0.46427 0.0
C1924 C 0.38414 0.9424 0.4504 0.0
H1925 H 0.39045 0.91057 0.37084 0.0
H1926 H 0.38529 0.9396 0.39314 0.0
H1927 H 0.40453 0.91402 0.40607 0.0
H1928 H 0.37498 0.87061 0.46736 0.0
H1929 H 0.42136 0.89188 0.49238 0.0
H1930 H 0.24352 0.29102 0.33846 0.0
H1931 H 0.21891 0.3183 0.36792 0.0
H1932 H 0.17599 0.34434 0.2966 0.0
H1933 H 0.20097 0.31785 0.26709 0.0
H1934 H 0.1931 0.3899 0.33343 0.0
H1935 H 0.13631 0.29111 0.38633 0.0
H1936 H 0.17482 0.29774 0.38973 0.0
H1937 H 0.1557 0.28839 0.35651 0.0
C1938 C 0.229 0.30269 0.32899 0.0
C1939 C 0.22427 0.30199 0.30027 0.0
C1940 C 0.21466 0.31812 0.34594 0.0
C1941 C 0.19495 0.33298 0.33466 0.0
C1942 C 0.19088 0.333 0.30598 0.0
H1943 H 0.05929 0.38419 0.41793 0.0
H1944 H 0.08854 0.36118 0.38999 0.0
C1945 C 0.20526 0.31774 0.28905 0.0
C1946 C 0.17844 0.34839 0.35249 0.0
H1947 H 0.13171 0.33749 0.40332 0.0
C1948 C 0.17971 0.37839 0.34873 0.0
C1949 C 0.16047 0.33346 0.37225 0.0
C1950 C 0.15644 0.30084 0.37632 0.0
C1951 C 0.16383 0.39377 0.36409 0.0
C1952 C 0.1465 0.37907 0.38439 0.0
C1953 C 0.14513 0.34903 0.38805 0.0
C1954 C 0.12877 0.39394 0.40133 0.0
C1955 C 0.16511 0.42541 0.35773 0.0
C1956 C 0.14138 0.42016 0.41737 0.0
C1957 C 0.12454 0.43363 0.43332 0.0
C1958 C 0.09464 0.42105 0.43398 0.0
C1959 C 0.08216 0.39469 0.41805 0.0
C1960 C 0.09895 0.38138 0.40202 0.0
H1961 H 0.1723 0.43054 0.33693 0.0
H1962 H 0.14375 0.43008 0.35912 0.0
H1963 H 0.18083 0.44052 0.37271 0.0
H1964 H 0.16439 0.43005 0.4179 0.0
H1965 H 0.13508 0.4537 0.44545 0.0
H1966 H 0.36656 0.26427 0.67494 0.0
H1967 H 0.39625 0.2452 0.64396 0.0
H1968 H 0.32 0.18304 0.60623 0.0
H1969 H 0.29021 0.20201 0.63709 0.0
H1970 H 0.39727 0.18504 0.64409 0.0
H1971 H 0.36594 0.21646 0.54051 0.0
H1972 H 0.35995 0.23517 0.57154 0.0
H1973 H 0.33598 0.20006 0.55995 0.0
C1974 C 0.35611 0.24697 0.65963 0.0
C1975 C 0.32619 0.23447 0.65837 0.0
C1976 C 0.37305 0.23616 0.64199 0.0
C1977 C 0.36023 0.21298 0.6227 0.0
C1978 C 0.33019 0.20134 0.62066 0.0
H1979 H 0.41227 0.07084 0.54958 0.0
H1980 H 0.38959 0.10479 0.57292 0.0
C1981 C 0.31325 0.21204 0.63837 0.0
C1982 C 0.37837 0.1984 0.60714 0.0
H1983 H 0.39037 0.1778 0.54249 0.0
C1984 C 0.39614 0.18384 0.62188 0.0
C1985 C 0.37679 0.19698 0.57822 0.0
C1986 C 0.35884 0.21322 0.56157 0.0
C1987 C 0.41147 0.16676 0.60838 0.0
C1988 C 0.40884 0.16425 0.57952 0.0
C1989 C 0.39206 0.17975 0.56469 0.0
C1990 C 0.42222 0.14423 0.56458 0.0
C1991 C 0.42982 0.15083 0.62493 0.0
C1992 C 0.4479 0.15546 0.55215 0.0
C1993 C 0.46107 0.13616 0.53894 0.0
C1994 C 0.44853 0.10539 0.53783 0.0
C1995 C 0.42248 0.09438 0.55003 0.0
C1996 C 0.40949 0.11368 0.56336 0.0
H1997 H 0.4329 0.15844 0.64688 0.0
H1998 H 0.41927 0.12669 0.62346 0.0
H1999 H 0.45128 0.15421 0.61662 0.0
H2000 H 0.45791 0.17907 0.55299 0.0
H2001 H 0.48103 0.14536 0.52963 0.0
H2002 H 0.82884 0.27269 0.67599 0.0
H2003 H 0.86963 0.30316 0.65403 0.0
H2004 H 0.87888 0.37266 0.7167 0.0
H2005 H 0.83677 0.34296 0.73746 0.0
H2006 H 0.87891 0.39538 0.67181 0.0
H2007 H 0.95415 0.32535 0.66478 0.0
H2008 H 0.91962 0.30477 0.64976 0.0
H2009 H 0.92389 0.31605 0.68571 0.0
C2010 C 0.83982 0.29438 0.68512 0.0
C2011 C 0.82959 0.30575 0.7081 0.0
C2012 C 0.86345 0.31162 0.67286 0.0
C2013 C 0.87789 0.34005 0.68401 0.0
C2014 C 0.86824 0.35081 0.70772 0.0
H2015 H 1.00378 0.45646 0.58299 0.0
H2016 H 0.98859 0.427 0.62295 0.0
C2017 C 0.84409 0.33395 0.71946 0.0
C2018 C 0.90006 0.36004 0.66874 0.0
H2019 H 0.95523 0.36075 0.62805 0.0
C2020 C 0.89617 0.38804 0.66306 0.0
C2021 C 0.92305 0.351 0.65753 0.0
C2022 C 0.93057 0.32277 0.6651 0.0
C2023 C 0.91281 0.40596 0.64467 0.0
C2024 C 0.93326 0.39525 0.63095 0.0
C2025 C 0.9391 0.36857 0.6383 0.0
C2026 C 0.94459 0.40917 0.60601 0.0
C2027 C 0.90707 0.43546 0.63869 0.0
C2028 C 0.92514 0.40775 0.58317 0.0
C2029 C 0.93351 0.42461 0.56087 0.0
C2030 C 0.96164 0.44293 0.56081 0.0
C2031 C 0.98191 0.44261 0.58274 0.0
C2032 C 0.97332 0.42586 0.60544 0.0
H2033 H 0.89768 0.44433 0.65615 0.0
H2034 H 0.92716 0.45195 0.63415 0.0
H2035 H 0.89137 0.4326 0.62053 0.0
H2036 H 0.90299 0.39463 0.58317 0.0
H2037 H 0.91764 0.42398 0.54396 0.0
H2038 H 0.29205 0.69419 0.6647 0.0
H2039 H 0.26979 0.66242 0.62398 0.0
H2040 H 0.18704 0.67595 0.64033 0.0
H2041 H 0.20882 0.70701 0.681 0.0
H2042 H 0.19543 0.61306 0.63684 0.0
H2043 H 0.22769 0.68245 0.54803 0.0
H2044 H 0.25311 0.68219 0.57679 0.0
H2045 H 0.22455 0.69973 0.58073 0.0
C2046 C 0.26921 0.69076 0.65925 0.0
C2047 C 0.25205 0.70288 0.67599 0.0
C2048 C 0.25662 0.67272 0.63604 0.0
C2049 C 0.22688 0.66697 0.62934 0.0
C2050 C 0.21008 0.68026 0.64528 0.0
H2051 H 0.08478 0.61354 0.52743 0.0
H2052 H 0.13278 0.63584 0.54863 0.0
C2053 C 0.22254 0.69804 0.66843 0.0
C2054 C 0.21212 0.64498 0.60747 0.0
H2055 H 0.18883 0.63972 0.53993 0.0
C2056 C 0.19446 0.6183 0.61544 0.0
C2057 C 0.21129 0.65215 0.57977 0.0
C2058 C 0.23015 0.68065 0.57056 0.0
C2059 C 0.17371 0.59982 0.59688 0.0
C2060 C 0.17121 0.60808 0.56943 0.0
C2061 C 0.19087 0.63343 0.56094 0.0
C2062 C 0.14497 0.59454 0.55134 0.0
C2063 C 0.1529 0.5733 0.60756 0.0
C2064 C 0.13624 0.56398 0.54473 0.0
C2065 C 0.10831 0.55092 0.53314 0.0
C2066 C 0.08899 0.56838 0.52747 0.0
C2067 C 0.09885 0.59929 0.53187 0.0
C2068 C 0.12649 0.61219 0.54378 0.0
H2069 H 0.15549 0.57263 0.63021 0.0
H2070 H 0.13027 0.57344 0.60162 0.0
H2071 H 0.15667 0.55268 0.59863 0.0
H2072 H 0.15044 0.55005 0.54984 0.0
H2073 H 0.10157 0.5271 0.52983 0.0
loop_
_geom_bond_atom_site_label_1
_geom_bond_atom_site_label_2
_geom_bond_distance
_geom_bond_site_symmetry_2
_ccdc_geom_bond_type
Dy0 O4 2.398 . S
Dy0 O5 2.491 . S
Dy0 O6 2.403 . S
Dy0 O7 2.664 . S
Dy0 O11 2.326 . S
Dy0 O15 2.310 . S
Dy0 O16 2.351 . S
C1 O12 1.185 . S
C1 O13 1.355 . S
C2 O4 1.185 . S
C2 O5 1.355 . S
Dy3 O7 2.310 . S
Dy3 O10 2.351 . S
Dy3 O12 2.398 . S
Dy3 O13 2.491 . S
Dy3 O14 2.403 . S
Dy3 O15 2.664 . S
Dy3 O17 2.326 . S
O4 Dy0 2.398 . S
O4 C2 1.185 . S
O5 Dy0 2.491 . S
O5 C2 1.355 . S
O6 Dy0 2.403 . S
O6 C8 1.254 . S
O7 Dy0 2.664 . S
O7 Dy3 2.310 . S
O7 C8 1.268 . S
C8 O6 1.254 . S
C8 O7 1.268 . S
C9 O14 1.254 . S
C9 O15 1.268 . S
O10 Dy3 2.351 . S
O10 C18 1.249 . S
O11 Dy0 2.326 . S
O11 C18 1.267 . S
O12 C1 1.185 . S
O12 Dy3 2.398 . S
O13 C1 1.355 . S
O13 Dy3 2.491 . S
O14 Dy3 2.403 . S
O14 C9 1.254 . S
O15 Dy0 2.310 . S
O15 Dy3 2.664 . S
O15 C9 1.268 . S
O16 Dy0 2.351 . S
O16 C19 1.249 . S
O17 Dy3 2.326 . S
O17 C19 1.267 . S
C18 O10 1.249 . S
C18 O11 1.267 . S
C19 O16 1.249 . S
C19 O17 1.267 . S
Dy20 O24 2.398 . S
Dy20 O25 2.491 . S
Dy20 O26 2.403 . S
Dy20 O27 2.664 . S
Dy20 O31 2.326 . S
Dy20 O35 2.310 . S
Dy20 O36 2.351 . S
C21 O32 1.185 . S
C21 O33 1.355 . S
C22 O24 1.185 . S
C22 O25 1.355 . S
Dy23 O27 2.310 . S
Dy23 O30 2.351 . S
Dy23 O32 2.398 . S
Dy23 O33 2.491 . S
Dy23 O34 2.403 . S
Dy23 O35 2.664 . S
Dy23 O37 2.326 . S
O24 Dy20 2.398 . S
O24 C22 1.185 . S
O25 Dy20 2.491 . S
O25 C22 1.355 . S
O26 Dy20 2.403 . S
O26 C28 1.254 . S
O27 Dy20 2.664 . S
O27 Dy23 2.310 . S
O27 C28 1.268 . S
C28 O26 1.254 . S
C28 O27 1.268 . S
C29 O34 1.254 . S
C29 O35 1.268 . S
O30 Dy23 2.351 . S
O30 C38 1.249 . S
O31 Dy20 2.326 . S
O31 C38 1.267 . S
O32 C21 1.185 . S
O32 Dy23 2.398 . S
O33 C21 1.355 . S
O33 Dy23 2.491 . S
O34 Dy23 2.403 . S
O34 C29 1.254 . S
O35 Dy20 2.310 . S
O35 Dy23 2.664 . S
O35 C29 1.268 . S
O36 Dy20 2.351 . S
O36 C39 1.249 . S
O37 Dy23 2.326 . S
O37 C39 1.267 . S
C38 O30 1.249 . S
C38 O31 1.267 . S
C39 O36 1.249 . S
C39 O37 1.267 . S
Dy40 O44 2.398 . S
Dy40 O45 2.491 . S
Dy40 O46 2.403 . S
Dy40 O47 2.664 . S
Dy40 O51 2.326 . S
Dy40 O55 2.310 . S
Dy40 O56 2.351 . S
C41 O52 1.185 . S
C41 O53 1.355 . S
C42 O44 1.185 . S
C42 O45 1.355 . S
Dy43 O47 2.310 . S
Dy43 O50 2.351 . S
Dy43 O52 2.398 . S
Dy43 O53 2.491 . S
Dy43 O54 2.403 . S
Dy43 O55 2.664 . S
Dy43 O57 2.326 . S
O44 Dy40 2.398 . S
O44 C42 1.185 . S
O45 Dy40 2.491 . S
O45 C42 1.355 . S
O46 Dy40 2.403 . S
O46 C48 1.254 . S
O47 Dy40 2.664 . S
O47 Dy43 2.310 . S
O47 C48 1.268 . S
C48 O46 1.254 . S
C48 O47 1.268 . S
C49 O54 1.254 . S
C49 O55 1.268 . S
O50 Dy43 2.351 . S
O50 C58 1.249 . S
O51 Dy40 2.326 . S
O51 C58 1.267 . S
O52 C41 1.185 . S
O52 Dy43 2.398 . S
O53 C41 1.355 . S
O53 Dy43 2.491 . S
O54 Dy43 2.403 . S
O54 C49 1.254 . S
O55 Dy40 2.310 . S
O55 Dy43 2.664 . S
O55 C49 1.268 . S
O56 Dy40 2.351 . S
O56 C59 1.249 . S
O57 Dy43 2.326 . S
O57 C59 1.267 . S
C58 O50 1.249 . S
C58 O51 1.267 . S
C59 O56 1.249 . S
C59 O57 1.267 . S
Dy60 O64 2.398 . S
Dy60 O65 2.491 . S
Dy60 O66 2.403 . S
Dy60 O67 2.664 . S
Dy60 O71 2.326 . S
Dy60 O75 2.310 . S
Dy60 O76 2.351 . S
C61 O72 1.185 . S
C61 O73 1.355 . S
C62 O64 1.185 . S
C62 O65 1.355 . S
Dy63 O67 2.310 . S
Dy63 O70 2.351 . S
Dy63 O72 2.398 . S
Dy63 O73 2.491 . S
Dy63 O74 2.403 . S
Dy63 O75 2.664 . S
Dy63 O77 2.326 . S
O64 Dy60 2.398 . S
O64 C62 1.185 . S
O65 Dy60 2.491 . S
O65 C62 1.355 . S
O66 Dy60 2.403 . S
O66 C68 1.254 . S
O67 Dy60 2.664 . S
O67 Dy63 2.310 . S
O67 C68 1.268 . S
C68 O66 1.254 . S
C68 O67 1.268 . S
C69 O74 1.254 . S
C69 O75 1.268 . S
O70 Dy63 2.351 . S
O70 C78 1.249 . S
O71 Dy60 2.326 . S
O71 C78 1.267 . S
O72 C61 1.185 . S
O72 Dy63 2.398 . S
O73 C61 1.355 . S
O73 Dy63 2.491 . S
O74 Dy63 2.403 . S
O74 C69 1.254 . S
O75 Dy60 2.310 . S
O75 Dy63 2.664 . S
O75 C69 1.268 . S
O76 Dy60 2.351 . S
O76 C79 1.249 . S
O77 Dy63 2.326 . S
O77 C79 1.267 . S
C78 O70 1.249 . S
C78 O71 1.267 . S
C79 O76 1.249 . S
C79 O77 1.267 . S
Dy80 O84 2.398 . S
Dy80 O85 2.491 . S
Dy80 O86 2.403 . S
Dy80 O87 2.664 . S
Dy80 O91 2.326 . S
Dy80 O95 2.310 . S
Dy80 O96 2.351 . S
C81 O92 1.185 . S
C81 O93 1.355 . S
C82 O84 1.185 . S
C82 O85 1.355 . S
Dy83 O87 2.310 . S
Dy83 O90 2.351 . S
Dy83 O92 2.398 . S
Dy83 O93 2.491 . S
Dy83 O94 2.403 . S
Dy83 O95 2.664 . S
Dy83 O97 2.326 . S
O84 Dy80 2.398 . S
O84 C82 1.185 . S
O85 Dy80 2.491 . S
O85 C82 1.355 . S
O86 Dy80 2.403 . S
O86 C88 1.254 . S
O87 Dy80 2.664 . S
O87 Dy83 2.310 . S
O87 C88 1.268 . S
C88 O86 1.254 . S
C88 O87 1.268 . S
C89 O94 1.254 . S
C89 O95 1.268 . S
O90 Dy83 2.351 . S
O90 C98 1.249 . S
O91 Dy80 2.326 . S
O91 C98 1.267 . S
O92 C81 1.185 . S
O92 Dy83 2.398 . S
O93 C81 1.355 . S
O93 Dy83 2.491 . S
O94 Dy83 2.403 . S
O94 C89 1.254 . S
O95 Dy80 2.310 . S
O95 Dy83 2.664 . S
O95 C89 1.268 . S
O96 Dy80 2.351 . S
O96 C99 1.249 . S
O97 Dy83 2.326 . S
O97 C99 1.267 . S
C98 O90 1.249 . S
C98 O91 1.267 . S
C99 O96 1.249 . S
C99 O97 1.267 . S
Dy100 O104 2.398 . S
Dy100 O105 2.491 . S
Dy100 O106 2.403 . S
Dy100 O107 2.664 . S
Dy100 O111 2.326 . S
Dy100 O115 2.310 . S
Dy100 O116 2.351 . S
C101 O112 1.185 . S
C101 O113 1.355 . S
C102 O104 1.185 . S
C102 O105 1.355 . S
Dy103 O107 2.310 . S
Dy103 O110 2.351 . S
Dy103 O112 2.398 . S
Dy103 O113 2.491 . S
Dy103 O114 2.403 . S
Dy103 O115 2.664 . S
Dy103 O117 2.326 . S
O104 Dy100 2.398 . S
O104 C102 1.185 . S
O105 Dy100 2.491 . S
O105 C102 1.355 . S
O106 Dy100 2.403 . S
O106 C108 1.254 . S
O107 Dy100 2.664 . S
O107 Dy103 2.310 . S
O107 C108 1.268 . S
C108 O106 1.254 . S
C108 O107 1.268 . S
C109 O114 1.254 . S
C109 O115 1.268 . S
O110 Dy103 2.351 . S
O110 C118 1.249 . S
O111 Dy100 2.326 . S
O111 C118 1.267 . S
O112 C101 1.185 . S
O112 Dy103 2.398 . S
O113 C101 1.355 . S
O113 Dy103 2.491 . S
O114 Dy103 2.403 . S
O114 C109 1.254 . S
O115 Dy100 2.310 . S
O115 Dy103 2.664 . S
O115 C109 1.268 . S
O116 Dy100 2.351 . S
O116 C119 1.249 . S
O117 Dy103 2.326 . S
O117 C119 1.267 . S
C118 O110 1.249 . S
C118 O111 1.267 . S
C119 O116 1.249 . S
C119 O117 1.267 . S
Dy120 O124 2.398 . S
Dy120 O125 2.491 . S
Dy120 O126 2.403 . S
Dy120 O127 2.664 . S
Dy120 O131 2.326 . S
Dy120 O135 2.310 . S
Dy120 O136 2.351 . S
C121 O132 1.185 . S
C121 O133 1.355 . S
C122 O124 1.185 . S
C122 O125 1.355 . S
Dy123 O127 2.310 . S
Dy123 O130 2.351 . S
Dy123 O132 2.398 . S
Dy123 O133 2.491 . S
Dy123 O134 2.403 . S
Dy123 O135 2.664 . S
Dy123 O137 2.326 . S
O124 Dy120 2.398 . S
O124 C122 1.185 . S
O125 Dy120 2.491 . S
O125 C122 1.355 . S
O126 Dy120 2.403 . S
O126 C128 1.254 . S
O127 Dy120 2.664 . S
O127 Dy123 2.310 . S
O127 C128 1.268 . S
C128 O126 1.254 . S
C128 O127 1.268 . S
C129 O134 1.254 . S
C129 O135 1.268 . S
O130 Dy123 2.351 . S
O130 C138 1.249 . S
O131 Dy120 2.326 . S
O131 C138 1.267 . S
O132 C121 1.185 . S
O132 Dy123 2.398 . S
O133 C121 1.355 . S
O133 Dy123 2.491 . S
O134 Dy123 2.403 . S
O134 C129 1.254 . S
O135 Dy120 2.310 . S
O135 Dy123 2.664 . S
O135 C129 1.268 . S
O136 Dy120 2.351 . S
O136 C139 1.249 . S
O137 Dy123 2.326 . S
O137 C139 1.267 . S
C138 O130 1.249 . S
C138 O131 1.267 . S
C139 O136 1.249 . S
C139 O137 1.267 . S
Dy140 O144 2.398 . S
Dy140 O145 2.491 . S
Dy140 O146 2.403 . S
Dy140 O147 2.664 . S
Dy140 O151 2.326 . S
Dy140 O155 2.310 . S
Dy140 O156 2.351 . S
C141 O152 1.185 . S
C141 O153 1.355 . S
C142 O144 1.185 . S
C142 O145 1.355 . S
Dy143 O147 2.310 . S
Dy143 O150 2.351 . S
Dy143 O152 2.398 . S
Dy143 O153 2.491 . S
Dy143 O154 2.403 . S
Dy143 O155 2.664 . S
Dy143 O157 2.326 . S
O144 Dy140 2.398 . S
O144 C142 1.185 . S
O145 Dy140 2.491 . S
O145 C142 1.355 . S
O146 Dy140 2.403 . S
O146 C148 1.254 . S
O147 Dy140 2.664 . S
O147 Dy143 2.310 . S
O147 C148 1.268 . S
C148 O146 1.254 . S
C148 O147 1.268 . S
C149 O154 1.254 . S
C149 O155 1.268 . S
O150 Dy143 2.351 . S
O150 C158 1.249 . S
O151 Dy140 2.326 . S
O151 C158 1.267 . S
O152 C141 1.185 . S
O152 Dy143 2.398 . S
O153 C141 1.355 . S
O153 Dy143 2.491 . S
O154 Dy143 2.403 . S
O154 C149 1.254 . S
O155 Dy140 2.310 . S
O155 Dy143 2.664 . S
O155 C149 1.268 . S
O156 Dy140 2.351 . S
O156 C159 1.249 . S
O157 Dy143 2.326 . S
O157 C159 1.267 . S
C158 O150 1.249 . S
C158 O151 1.267 . S
C159 O156 1.249 . S
C159 O157 1.267 . S
C160 O172 1.241 . S
C160 O173 1.280 . S
C161 O174 1.277 . S
C161 O175 1.245 . S
C162 O186 1.247 . S
C162 O188 1.289 . S
Mg163 O164 1.926 . S
Mg163 O173 1.984 . S
Mg163 O175 1.988 . S
Mg163 O176 2.061 1_655 S
O164 Mg163 1.926 . S
O164 Mg165 1.986 . S
O164 Mg166 1.917 1_655 S
Mg165 O164 1.986 . S
Mg165 O172 2.042 . S
Mg165 O174 2.041 . S
Mg165 O180 2.038 1_545 S
Mg165 O188 2.238 1_545 S
Mg166 O164 1.917 1_455 S
Mg166 O167 1.917 1_545 S
Mg166 O177 2.106 . S
Mg166 O179 2.079 1_445 S
Mg166 O188 2.106 1_445 S
Mg166 O189 2.079 . S
O167 Mg166 1.917 1_565 S
O167 Mg168 1.926 . S
O167 Mg169 1.986 . S
Mg168 O167 1.926 . S
Mg168 O182 1.984 . S
Mg168 O185 1.988 . S
Mg168 O186 2.061 1_455 S
Mg169 O167 1.986 . S
Mg169 O177 2.238 1_565 S
Mg169 O181 2.042 . S
Mg169 O183 2.041 . S
Mg169 O190 2.038 1_565 S
C170 O176 1.247 . S
C170 O177 1.289 . S
C171 O189 1.245 . S
C171 O190 1.274 . S
O172 C160 1.241 . S
O172 Mg165 2.042 . S
O173 C160 1.280 . S
O173 Mg163 1.984 . S
O174 C161 1.277 . S
O174 Mg165 2.041 . S
O175 C161 1.245 . S
O175 Mg163 1.988 . S
O176 Mg163 2.061 1_455 S
O176 C170 1.247 . S
O177 Mg166 2.106 . S
O177 Mg169 2.238 1_545 S
O177 C170 1.289 . S
C178 O179 1.245 . S
C178 O180 1.274 . S
O179 Mg166 2.079 1_665 S
O179 C178 1.245 . S
O180 Mg165 2.038 1_565 S
O180 C178 1.274 . S
O181 Mg169 2.042 . S
O181 C184 1.241 . S
O182 Mg168 1.984 . S
O182 C184 1.280 . S
O183 Mg169 2.041 . S
O183 C187 1.277 . S
C184 O181 1.241 . S
C184 O182 1.280 . S
O185 Mg168 1.988 . S
O185 C187 1.245 . S
O186 C162 1.247 . S
O186 Mg168 2.061 1_655 S
C187 O183 1.277 . S
C187 O185 1.245 . S
O188 C162 1.289 . S
O188 Mg165 2.238 1_565 S
O188 Mg166 2.106 1_665 S
O189 Mg166 2.079 . S
O189 C171 1.245 . S
O190 Mg169 2.038 1_545 S
O190 C171 1.274 . S
C191 O203 1.241 . S
C191 O204 1.280 . S
C192 O205 1.277 . S
C192 O206 1.245 . S
C193 O217 1.247 . S
C193 O219 1.289 . S
Mg194 O195 1.926 . S
Mg194 O204 1.984 . S
Mg194 O206 1.988 1_554 S
Mg194 O207 2.061 . S
O195 Mg194 1.926 . S
O195 Mg196 1.980 1_554 S
O195 Mg197 1.917 . S
Mg196 O195 1.980 1_556 S
Mg196 O203 2.017 1_556 S
Mg196 O205 2.071 . S
Mg196 O211 2.010 1_546 S
Mg196 O219 2.259 1_545 S
Mg197 O195 1.917 . S
Mg197 O198 1.917 1_544 S
Mg197 O208 2.106 . S
Mg197 O210 2.079 1_545 S
Mg197 O219 2.106 1_544 S
Mg197 O220 2.079 1_554 S
O198 Mg197 1.917 1_566 S
O198 Mg199 1.926 . S
O198 Mg200 1.986 1_556 S
Mg199 O198 1.926 . S
Mg199 O213 1.984 . S
Mg199 O216 1.988 1_556 S
Mg199 O217 2.061 . S
Mg200 O198 1.986 1_554 S
Mg200 O208 2.238 1_565 S
Mg200 O212 2.042 1_554 S
Mg200 O214 2.041 . S
Mg200 O221 2.038 1_564 S
C201 O207 1.247 . S
C201 O208 1.289 . S
C202 O220 1.245 . S
C202 O221 1.274 . S
O203 C191 1.241 . S
O203 Mg196 2.017 1_554 S
O204 C191 1.280 . S
O204 Mg194 1.984 . S
O205 C192 1.277 . S
O205 Mg196 2.071 . S
O206 C192 1.245 . S
O206 Mg194 1.988 1_556 S
O207 Mg194 2.061 . S
O207 C201 1.247 . S
O208 Mg197 2.106 . S
O208 Mg200 2.238 1_545 S
O208 C201 1.289 . S
C209 O210 1.245 . S
C209 O211 1.274 . S
O210 Mg197 2.079 1_565 S
O210 C209 1.245 . S
O211 Mg196 2.010 1_564 S
O211 C209 1.274 . S
O212 Mg200 2.042 1_556 S
O212 C215 1.241 . S
O213 Mg199 1.984 . S
O213 C215 1.280 . S
O214 Mg200 2.041 . S
O214 C218 1.277 . S
C215 O212 1.241 . S
C215 O213 1.280 . S
O216 Mg199 1.988 1_554 S
O216 C218 1.245 . S
O217 C193 1.247 . S
O217 Mg199 2.061 . S
C218 O214 1.277 . S
C218 O216 1.245 . S
O219 C193 1.289 . S
O219 Mg196 2.259 1_565 S
O219 Mg197 2.106 1_566 S
O220 Mg197 2.079 1_556 S
O220 C202 1.245 . S
O221 Mg200 2.038 1_546 S
O221 C202 1.274 . S
C222 O234 1.241 . S
C222 O235 1.280 . S
C223 O236 1.277 . S
C223 O237 1.245 . S
C224 O248 1.247 . S
C224 O250 1.289 . S
Mg225 O226 1.926 . S
Mg225 O235 1.984 . S
Mg225 O237 1.988 1_554 S
Mg225 O238 2.061 1_655 S
O226 Mg225 1.926 . S
O226 Mg227 1.980 1_554 S
O226 Mg228 1.917 1_655 S
Mg227 O226 1.980 1_556 S
Mg227 O234 2.017 1_556 S
Mg227 O236 2.071 . S
Mg227 O242 2.010 1_556 S
Mg227 O250 2.259 . S
Mg228 O226 1.917 1_455 S
Mg228 O229 1.917 1_554 S
Mg228 O239 2.106 . S
Mg228 O241 2.079 1_455 S
Mg228 O250 2.106 1_454 S
Mg228 O251 2.079 1_554 S
O229 Mg228 1.917 1_556 S
O229 Mg230 1.926 . S
O229 Mg231 1.986 1_556 S
Mg230 O229 1.926 . S
Mg230 O244 1.984 . S
Mg230 O247 1.988 1_556 S
Mg230 O248 2.061 1_455 S
Mg231 O229 1.986 1_554 S
Mg231 O239 2.238 . S
Mg231 O243 2.042 1_554 S
Mg231 O245 2.041 . S
Mg231 O252 2.038 1_554 S
C232 O238 1.247 . S
C232 O239 1.289 . S
C233 O251 1.245 . S
C233 O252 1.274 . S
O234 C222 1.241 . S
O234 Mg227 2.017 1_554 S
O235 C222 1.280 . S
O235 Mg225 1.984 . S
O236 C223 1.277 . S
O236 Mg227 2.071 . S
O237 C223 1.245 . S
O237 Mg225 1.988 1_556 S
O238 Mg225 2.061 1_455 S
O238 C232 1.247 . S
O239 Mg228 2.106 . S
O239 Mg231 2.238 . S
O239 C232 1.289 . S
C240 O241 1.245 . S
C240 O242 1.274 . S
O241 Mg228 2.079 1_655 S
O241 C240 1.245 . S
O242 Mg227 2.010 1_554 S
O242 C240 1.274 . S
O243 Mg231 2.042 1_556 S
O243 C246 1.241 . S
O244 Mg230 1.984 . S
O244 C246 1.280 . S
O245 Mg231 2.041 . S
O245 C249 1.277 . S
C246 O243 1.241 . S
C246 O244 1.280 . S
O247 Mg230 1.988 1_554 S
O247 C249 1.245 . S
O248 C224 1.247 . S
O248 Mg230 2.061 1_655 S
C249 O245 1.277 . S
C249 O247 1.245 . S
O250 C224 1.289 . S
O250 Mg227 2.259 . S
O250 Mg228 2.106 1_656 S
O251 Mg228 2.079 1_556 S
O251 C233 1.245 . S
O252 Mg231 2.038 1_556 S
O252 C233 1.274 . S
C253 O265 1.241 . S
C253 O266 1.280 . S
C254 O267 1.277 . S
C254 O268 1.245 . S
C255 O279 1.247 . S
C255 O281 1.289 . S
Mg256 O257 1.926 . S
Mg256 O266 1.984 . S
Mg256 O268 1.988 1_554 S
Mg256 O269 2.061 . S
O257 Mg256 1.926 . S
O257 Mg258 1.980 1_554 S
O257 Mg259 1.917 . S
Mg258 O257 1.980 1_556 S
Mg258 O265 2.017 1_556 S
Mg258 O267 2.071 . S
Mg258 O273 2.010 1_556 S
Mg258 O281 2.259 . S
Mg259 O257 1.917 . S
Mg259 O260 1.917 1_554 S
Mg259 O270 2.106 . S
Mg259 O272 2.079 . S
Mg259 O281 2.106 1_554 S
Mg259 O282 2.079 1_554 S
O260 Mg259 1.917 1_556 S
O260 Mg261 1.926 . S
O260 Mg262 1.986 1_556 S
Mg261 O260 1.926 . S
Mg261 O275 1.984 . S
Mg261 O278 1.988 1_556 S
Mg261 O279 2.061 . S
Mg262 O260 1.986 1_554 S
Mg262 O270 2.238 . S
Mg262 O274 2.042 1_554 S
Mg262 O276 2.041 . S
Mg262 O283 2.038 1_554 S
C263 O269 1.247 . S
C263 O270 1.289 . S
C264 O282 1.245 . S
C264 O283 1.274 . S
O265 C253 1.241 . S
O265 Mg258 2.017 1_554 S
O266 C253 1.280 . S
O266 Mg256 1.984 . S
O267 C254 1.277 . S
O267 Mg258 2.071 . S
O268 C254 1.245 . S
O268 Mg256 1.988 1_556 S
O269 Mg256 2.061 . S
O269 C263 1.247 . S
O270 Mg259 2.106 . S
O270 Mg262 2.238 . S
O270 C263 1.289 . S
C271 O272 1.245 . S
C271 O273 1.274 . S
O272 Mg259 2.079 . S
O272 C271 1.245 . S
O273 Mg258 2.010 1_554 S
O273 C271 1.274 . S
O274 Mg262 2.042 1_556 S
O274 C277 1.241 . S
O275 Mg261 1.984 . S
O275 C277 1.280 . S
O276 Mg262 2.041 . S
O276 C280 1.277 . S
C277 O274 1.241 . S
C277 O275 1.280 . S
O278 Mg261 1.988 1_554 S
O278 C280 1.245 . S
O279 C255 1.247 . S
O279 Mg261 2.061 . S
C280 O276 1.277 . S
C280 O278 1.245 . S
O281 C255 1.289 . S
O281 Mg258 2.259 . S
O281 Mg259 2.106 1_556 S
O282 Mg259 2.079 1_556 S
O282 C264 1.245 . S
O283 Mg262 2.038 1_556 S
O283 C264 1.274 . S
C284 O296 1.241 . S
C284 O297 1.280 . S
C285 O298 1.277 . S
C285 O299 1.245 . S
C286 O310 1.247 . S
C286 O312 1.289 . S
Mg287 O288 1.926 . S
Mg287 O297 1.984 . S
Mg287 O299 1.988 . S
Mg287 O300 2.061 1_655 S
O288 Mg287 1.926 . S
O288 Mg289 1.986 . S
O288 Mg290 1.917 1_655 S
Mg289 O288 1.986 . S
Mg289 O296 2.042 . S
Mg289 O298 2.041 . S
Mg289 O304 2.038 . S
Mg289 O312 2.238 . S
Mg290 O288 1.917 1_455 S
Mg290 O291 1.917 . S
Mg290 O301 2.106 . S
Mg290 O303 2.079 1_455 S
Mg290 O312 2.106 1_455 S
Mg290 O313 2.079 . S
O291 Mg290 1.917 . S
O291 Mg292 1.926 . S
O291 Mg293 1.986 . S
Mg292 O291 1.926 . S
Mg292 O306 1.984 . S
Mg292 O309 1.988 . S
Mg292 O310 2.061 1_455 S
Mg293 O291 1.986 . S
Mg293 O301 2.238 . S
Mg293 O305 2.042 . S
Mg293 O307 2.041 . S
Mg293 O314 2.038 . S
C294 O300 1.247 . S
C294 O301 1.289 . S
C295 O313 1.245 . S
C295 O314 1.274 . S
O296 C284 1.241 . S
O296 Mg289 2.042 . S
O297 C284 1.280 . S
O297 Mg287 1.984 . S
O298 C285 1.277 . S
O298 Mg289 2.041 . S
O299 C285 1.245 . S
O299 Mg287 1.988 . S
O300 Mg287 2.061 1_455 S
O300 C294 1.247 . S
O301 Mg290 2.106 . S
O301 Mg293 2.238 . S
O301 C294 1.289 . S
C302 O303 1.245 . S
C302 O304 1.274 . S
O303 Mg290 2.079 1_655 S
O303 C302 1.245 . S
O304 Mg289 2.038 . S
O304 C302 1.274 . S
O305 Mg293 2.042 . S
O305 C308 1.241 . S
O306 Mg292 1.984 . S
O306 C308 1.280 . S
O307 Mg293 2.041 . S
O307 C311 1.277 . S
C308 O305 1.241 . S
C308 O306 1.280 . S
O309 Mg292 1.988 . S
O309 C311 1.245 . S
O310 C286 1.247 . S
O310 Mg292 2.061 1_655 S
C311 O307 1.277 . S
C311 O309 1.245 . S
O312 C286 1.289 . S
O312 Mg289 2.238 . S
O312 Mg290 2.106 1_655 S
O313 Mg290 2.079 . S
O313 C295 1.245 . S
O314 Mg293 2.038 . S
O314 C295 1.274 . S
C315 O327 1.241 . S
C315 O328 1.280 . S
C316 O329 1.277 . S
C316 O330 1.245 . S
C317 O341 1.247 . S
C317 O343 1.289 . S
Mg318 O319 1.926 . S
Mg318 O328 1.984 . S
Mg318 O330 1.988 . S
Mg318 O331 2.061 . S
O319 Mg318 1.926 . S
O319 Mg320 1.986 . S
O319 Mg321 1.917 . S
Mg320 O319 1.986 . S
Mg320 O327 2.042 . S
Mg320 O329 2.041 . S
Mg320 O335 2.038 1_545 S
Mg320 O343 2.238 1_545 S
Mg321 O319 1.917 . S
Mg321 O322 1.917 1_545 S
Mg321 O332 2.106 . S
Mg321 O334 2.079 1_545 S
Mg321 O343 2.106 1_545 S
Mg321 O344 2.079 . S
O322 Mg321 1.917 1_565 S
O322 Mg323 1.926 . S
O322 Mg324 1.986 . S
Mg323 O322 1.926 . S
Mg323 O337 1.984 . S
Mg323 O340 1.988 . S
Mg323 O341 2.061 . S
Mg324 O322 1.986 . S
Mg324 O332 2.238 1_565 S
Mg324 O336 2.042 . S
Mg324 O338 2.041 . S
Mg324 O345 2.038 1_565 S
C325 O331 1.247 . S
C325 O332 1.289 . S
C326 O344 1.245 . S
C326 O345 1.274 . S
O327 C315 1.241 . S
O327 Mg320 2.042 . S
O328 C315 1.280 . S
O328 Mg318 1.984 . S
O329 C316 1.277 . S
O329 Mg320 2.041 . S
O330 C316 1.245 . S
O330 Mg318 1.988 . S
O331 Mg318 2.061 . S
O331 C325 1.247 . S
O332 Mg321 2.106 . S
O332 Mg324 2.238 1_545 S
O332 C325 1.289 . S
C333 O334 1.245 . S
C333 O335 1.274 . S
O334 Mg321 2.079 1_565 S
O334 C333 1.245 . S
O335 Mg320 2.038 1_565 S
O335 C333 1.274 . S
O336 Mg324 2.042 . S
O336 C339 1.241 . S
O337 Mg323 1.984 . S
O337 C339 1.280 . S
O338 Mg324 2.041 . S
O338 C342 1.277 . S
C339 O336 1.241 . S
C339 O337 1.280 . S
O340 Mg323 1.988 . S
O340 C342 1.245 . S
O341 C317 1.247 . S
O341 Mg323 2.061 . S
C342 O338 1.277 . S
C342 O340 1.245 . S
O343 C317 1.289 . S
O343 Mg320 2.238 1_565 S
O343 Mg321 2.106 1_565 S
O344 Mg321 2.079 . S
O344 C326 1.245 . S
O345 Mg324 2.038 1_545 S
O345 C326 1.274 . S
H346 C354 0.929 . S
H347 C356 0.930 . S
H348 C358 0.930 . S
H349 C361 0.929 . S
H350 C364 0.930 . S
H351 C366 0.960 . S
H352 C366 0.960 . S
H353 C366 0.960 . S
C354 H346 0.929 . S
C354 C355 1.377 . S
C354 C356 1.384 . S
C355 C354 1.377 . S
C355 C361 1.390 . S
C356 H347 0.930 . S
C356 C354 1.384 . S
C356 C357 1.372 . S
C357 C356 1.372 . S
C357 C358 1.400 . S
C357 C362 1.490 . S
C358 H348 0.930 . S
C358 C357 1.400 . S
C358 C361 1.386 . S
H359 C375 0.930 . S
H360 C376 0.931 . S
C361 H349 0.929 . S
C361 C355 1.390 . S
C361 C358 1.386 . S
C362 C357 1.490 . S
C362 C364 1.395 . S
C362 C365 1.403 . S
H363 C369 0.930 . S
C364 H350 0.930 . S
C364 C362 1.395 . S
C364 C367 1.403 . S
C365 C362 1.403 . S
C365 C366 1.524 . S
C365 C369 1.400 . S
C366 H351 0.960 . S
C366 H352 0.960 . S
C366 H353 0.960 . S
C366 C365 1.524 . S
C367 C364 1.403 . S
C367 C368 1.392 . S
C367 C371 1.495 . S
C368 C367 1.392 . S
C368 C369 1.385 . S
C368 C370 1.478 . S
C369 H363 0.930 . S
C369 C365 1.400 . S
C369 C368 1.385 . S
C370 C368 1.478 . S
C370 C372 1.381 . S
C370 C376 1.383 . S
C371 C367 1.495 . S
C371 H377 0.959 . S
C371 H378 0.961 . S
C371 H379 0.960 . S
C372 C370 1.381 . S
C372 C373 1.394 . S
C372 H380 0.930 . S
C373 C372 1.394 . S
C373 C374 1.383 . S
C373 H381 0.929 . S
C374 C373 1.383 . S
C374 C375 1.377 . S
C375 H359 0.930 . S
C375 C374 1.377 . S
C375 C376 1.379 . S
C376 H360 0.931 . S
C376 C370 1.383 . S
C376 C375 1.379 . S
H377 C371 0.959 . S
H378 C371 0.961 . S
H379 C371 0.960 . S
H380 C372 0.930 . S
H381 C373 0.929 . S
H382 C390 0.929 . S
H383 C392 0.930 . S
H384 C394 0.930 . S
H385 C397 0.929 . S
H386 C400 0.930 . S
H387 C402 0.960 . S
H388 C402 0.960 . S
H389 C402 0.960 . S
C390 H382 0.929 . S
C390 C391 1.377 . S
C390 C392 1.384 . S
C391 C390 1.377 . S
C391 C397 1.390 . S
C392 H383 0.930 . S
C392 C390 1.384 . S
C392 C393 1.372 . S
C393 C392 1.372 . S
C393 C394 1.400 . S
C393 C398 1.490 . S
C394 H384 0.930 . S
C394 C393 1.400 . S
C394 C397 1.386 . S
H395 C411 0.930 . S
H396 C412 0.931 . S
C397 H385 0.929 . S
C397 C391 1.390 . S
C397 C394 1.386 . S
C398 C393 1.490 . S
C398 C400 1.395 . S
C398 C401 1.403 . S
H399 C405 0.930 . S
C400 H386 0.930 . S
C400 C398 1.395 . S
C400 C403 1.403 . S
C401 C398 1.403 . S
C401 C402 1.524 . S
C401 C405 1.400 . S
C402 H387 0.960 . S
C402 H388 0.960 . S
C402 H389 0.960 . S
C402 C401 1.524 . S
C403 C400 1.403 . S
C403 C404 1.392 . S
C403 C407 1.495 . S
C404 C403 1.392 . S
C404 C405 1.385 . S
C404 C406 1.478 . S
C405 H399 0.930 . S
C405 C401 1.400 . S
C405 C404 1.385 . S
C406 C404 1.478 . S
C406 C408 1.381 . S
C406 C412 1.383 . S
C407 C403 1.495 . S
C407 H413 0.959 . S
C407 H414 0.961 . S
C407 H415 0.960 . S
C408 C406 1.381 . S
C408 C409 1.394 . S
C408 H416 0.930 . S
C409 C408 1.394 . S
C409 C410 1.383 . S
C409 H417 0.929 . S
C410 C409 1.383 . S
C410 C411 1.377 . S
C411 H395 0.930 . S
C411 C410 1.377 . S
C411 C412 1.379 . S
C412 H396 0.931 . S
C412 C406 1.383 . S
C412 C411 1.379 . S
H413 C407 0.959 . S
H414 C407 0.961 . S
H415 C407 0.960 . S
H416 C408 0.930 . S
H417 C409 0.929 . S
H418 C426 0.929 . S
H419 C428 0.930 . S
H420 C430 0.930 . S
H421 C433 0.929 . S
H422 C436 0.930 . S
H423 C438 0.960 . S
H424 C438 0.960 . S
H425 C438 0.960 . S
C426 H418 0.929 . S
C426 C427 1.377 . S
C426 C428 1.384 . S
C427 C426 1.377 . S
C427 C433 1.390 . S
C428 H419 0.930 . S
C428 C426 1.384 . S
C428 C429 1.372 . S
C429 C428 1.372 . S
C429 C430 1.400 . S
C429 C434 1.490 . S
C430 H420 0.930 . S
C430 C429 1.400 . S
C430 C433 1.386 . S
H431 C447 0.930 . S
H432 C448 0.931 . S
C433 H421 0.929 . S
C433 C427 1.390 . S
C433 C430 1.386 . S
C434 C429 1.490 . S
C434 C436 1.395 . S
C434 C437 1.403 . S
H435 C441 0.930 . S
C436 H422 0.930 . S
C436 C434 1.395 . S
C436 C439 1.403 . S
C437 C434 1.403 . S
C437 C438 1.524 . S
C437 C441 1.400 . S
C438 H423 0.960 . S
C438 H424 0.960 . S
C438 H425 0.960 . S
C438 C437 1.524 . S
C439 C436 1.403 . S
C439 C440 1.392 . S
C439 C443 1.495 . S
C440 C439 1.392 . S
C440 C441 1.385 . S
C440 C442 1.478 . S
C441 H435 0.930 . S
C441 C437 1.400 . S
C441 C440 1.385 . S
C442 C440 1.478 . S
C442 C444 1.381 . S
C442 C448 1.383 . S
C443 C439 1.495 . S
C443 H449 0.959 . S
C443 H450 0.961 . S
C443 H451 0.960 . S
C444 C442 1.381 . S
C444 C445 1.394 . S
C444 H452 0.930 . S
C445 C444 1.394 . S
C445 C446 1.383 . S
C445 H453 0.929 . S
C446 C445 1.383 . S
C446 C447 1.377 . S
C447 H431 0.930 . S
C447 C446 1.377 . S
C447 C448 1.379 . S
C448 H432 0.931 . S
C448 C442 1.383 . S
C448 C447 1.379 . S
H449 C443 0.959 . S
H450 C443 0.961 . S
H451 C443 0.960 . S
H452 C444 0.930 . S
H453 C445 0.929 . S
H454 C462 0.929 . S
H455 C464 0.930 . S
H456 C466 0.930 . S
H457 C469 0.929 . S
H458 C472 0.930 . S
H459 C474 0.960 . S
H460 C474 0.960 . S
H461 C474 0.960 . S
C462 H454 0.929 . S
C462 C463 1.377 . S
C462 C464 1.384 . S
C463 C462 1.377 . S
C463 C469 1.390 . S
C464 H455 0.930 . S
C464 C462 1.384 . S
C464 C465 1.372 . S
C465 C464 1.372 . S
C465 C466 1.400 . S
C465 C470 1.490 . S
C466 H456 0.930 . S
C466 C465 1.400 . S
C466 C469 1.386 . S
H467 C483 0.930 . S
H468 C484 0.931 . S
C469 H457 0.929 . S
C469 C463 1.390 . S
C469 C466 1.386 . S
C470 C465 1.490 . S
C470 C472 1.395 . S
C470 C473 1.403 . S
H471 C477 0.930 . S
C472 H458 0.930 . S
C472 C470 1.395 . S
C472 C475 1.403 . S
C473 C470 1.403 . S
C473 C474 1.524 . S
C473 C477 1.400 . S
C474 H459 0.960 . S
C474 H460 0.960 . S
C474 H461 0.960 . S
C474 C473 1.524 . S
C475 C472 1.403 . S
C475 C476 1.392 . S
C475 C479 1.495 . S
C476 C475 1.392 . S
C476 C477 1.385 . S
C476 C478 1.478 . S
C477 H471 0.930 . S
C477 C473 1.400 . S
C477 C476 1.385 . S
C478 C476 1.478 . S
C478 C480 1.381 . S
C478 C484 1.383 . S
C479 C475 1.495 . S
C479 H485 0.959 . S
C479 H486 0.961 . S
C479 H487 0.960 . S
C480 C478 1.381 . S
C480 C481 1.394 . S
C480 H488 0.930 . S
C481 C480 1.394 . S
C481 C482 1.383 . S
C481 H489 0.929 . S
C482 C481 1.383 . S
C482 C483 1.377 . S
C483 H467 0.930 . S
C483 C482 1.377 . S
C483 C484 1.379 . S
C484 H468 0.931 . S
C484 C478 1.383 . S
C484 C483 1.379 . S
H485 C479 0.959 . S
H486 C479 0.961 . S
H487 C479 0.960 . S
H488 C480 0.930 . S
H489 C481 0.929 . S
H490 C498 0.929 . S
H491 C500 0.930 . S
H492 C502 0.930 . S
H493 C505 0.929 . S
H494 C508 0.930 . S
H495 C510 0.960 . S
H496 C510 0.960 . S
H497 C510 0.960 . S
C498 H490 0.929 . S
C498 C499 1.377 . S
C498 C500 1.384 . S
C499 C498 1.377 . S
C499 C505 1.390 . S
C500 H491 0.930 . S
C500 C498 1.384 . S
C500 C501 1.372 . S
C501 C500 1.372 . S
C501 C502 1.400 . S
C501 C506 1.490 . S
C502 H492 0.930 . S
C502 C501 1.400 . S
C502 C505 1.386 . S
H503 C519 0.930 . S
H504 C520 0.931 . S
C505 H493 0.929 . S
C505 C499 1.390 . S
C505 C502 1.386 . S
C506 C501 1.490 . S
C506 C508 1.395 . S
C506 C509 1.403 . S
H507 C513 0.930 . S
C508 H494 0.930 . S
C508 C506 1.395 . S
C508 C511 1.403 . S
C509 C506 1.403 . S
C509 C510 1.524 . S
C509 C513 1.400 . S
C510 H495 0.960 . S
C510 H496 0.960 . S
C510 H497 0.960 . S
C510 C509 1.524 . S
C511 C508 1.403 . S
C511 C512 1.392 . S
C511 C515 1.495 . S
C512 C511 1.392 . S
C512 C513 1.385 . S
C512 C514 1.478 . S
C513 H507 0.930 . S
C513 C509 1.400 . S
C513 C512 1.385 . S
C514 C512 1.478 . S
C514 C516 1.381 . S
C514 C520 1.383 . S
C515 C511 1.495 . S
C515 H521 0.959 . S
C515 H522 0.961 . S
C515 H523 0.960 . S
C516 C514 1.381 . S
C516 C517 1.394 . S
C516 H524 0.930 . S
C517 C516 1.394 . S
C517 C518 1.383 . S
C517 H525 0.929 . S
C518 C517 1.383 . S
C518 C519 1.377 . S
C519 H503 0.930 . S
C519 C518 1.377 . S
C519 C520 1.379 . S
C520 H504 0.931 . S
C520 C514 1.383 . S
C520 C519 1.379 . S
H521 C515 0.959 . S
H522 C515 0.961 . S
H523 C515 0.960 . S
H524 C516 0.930 . S
H525 C517 0.929 . S
H526 C534 0.929 . S
H527 C536 0.930 . S
H528 C538 0.930 . S
H529 C541 0.929 . S
H530 C544 0.930 . S
H531 C546 0.960 . S
H532 C546 0.960 . S
H533 C546 0.960 . S
C534 H526 0.929 . S
C534 C535 1.377 . S
C534 C536 1.384 . S
C535 C534 1.377 . S
C535 C541 1.390 . S
C536 H527 0.930 . S
C536 C534 1.384 . S
C536 C537 1.372 . S
C537 C536 1.372 . S
C537 C538 1.400 . S
C537 C542 1.490 . S
C538 H528 0.930 . S
C538 C537 1.400 . S
C538 C541 1.386 . S
H539 C555 0.930 . S
H540 C556 0.931 . S
C541 H529 0.929 . S
C541 C535 1.390 . S
C541 C538 1.386 . S
C542 C537 1.490 . S
C542 C544 1.395 . S
C542 C545 1.403 . S
H543 C549 0.930 . S
C544 H530 0.930 . S
C544 C542 1.395 . S
C544 C547 1.403 . S
C545 C542 1.403 . S
C545 C546 1.524 . S
C545 C549 1.400 . S
C546 H531 0.960 . S
C546 H532 0.960 . S
C546 H533 0.960 . S
C546 C545 1.524 . S
C547 C544 1.403 . S
C547 C548 1.392 . S
C547 C551 1.495 . S
C548 C547 1.392 . S
C548 C549 1.385 . S
C548 C550 1.478 . S
C549 H543 0.930 . S
C549 C545 1.400 . S
C549 C548 1.385 . S
C550 C548 1.478 . S
C550 C552 1.381 . S
C550 C556 1.383 . S
C551 C547 1.495 . S
C551 H557 0.959 . S
C551 H558 0.961 . S
C551 H559 0.960 . S
C552 C550 1.381 . S
C552 C553 1.394 . S
C552 H560 0.930 . S
C553 C552 1.394 . S
C553 C554 1.383 . S
C553 H561 0.929 . S
C554 C553 1.383 . S
C554 C555 1.377 . S
C555 H539 0.930 . S
C555 C554 1.377 . S
C555 C556 1.379 . S
C556 H540 0.931 . S
C556 C550 1.383 . S
C556 C555 1.379 . S
H557 C551 0.959 . S
H558 C551 0.961 . S
H559 C551 0.960 . S
H560 C552 0.930 . S
H561 C553 0.929 . S
H562 C570 0.929 . S
H563 C572 0.930 . S
H564 C574 0.930 . S
H565 C577 0.929 . S
H566 C580 0.930 . S
H567 C582 0.960 . S
H568 C582 0.960 . S
H569 C582 0.960 . S
C570 H562 0.929 . S
C570 C571 1.377 . S
C570 C572 1.384 . S
C571 C570 1.377 . S
C571 C577 1.390 . S
C572 H563 0.930 . S
C572 C570 1.384 . S
C572 C573 1.372 . S
C573 C572 1.372 . S
C573 C574 1.400 . S
C573 C578 1.490 . S
C574 H564 0.930 . S
C574 C573 1.400 . S
C574 C577 1.386 . S
H575 C591 0.930 . S
H576 C592 0.931 . S
C577 H565 0.929 . S
C577 C571 1.390 . S
C577 C574 1.386 . S
C578 C573 1.490 . S
C578 C580 1.395 . S
C578 C581 1.403 . S
H579 C585 0.930 . S
C580 H566 0.930 . S
C580 C578 1.395 . S
C580 C583 1.403 . S
C581 C578 1.403 . S
C581 C582 1.524 . S
C581 C585 1.400 . S
C582 H567 0.960 . S
C582 H568 0.960 . S
C582 H569 0.960 . S
C582 C581 1.524 . S
C583 C580 1.403 . S
C583 C584 1.392 . S
C583 C587 1.495 . S
C584 C583 1.392 . S
C584 C585 1.385 . S
C584 C586 1.478 . S
C585 H579 0.930 . S
C585 C581 1.400 . S
C585 C584 1.385 . S
C586 C584 1.478 . S
C586 C588 1.381 . S
C586 C592 1.383 . S
C587 C583 1.495 . S
C587 H593 0.959 . S
C587 H594 0.961 . S
C587 H595 0.960 . S
C588 C586 1.381 . S
C588 C589 1.394 . S
C588 H596 0.930 . S
C589 C588 1.394 . S
C589 C590 1.383 . S
C589 H597 0.929 . S
C590 C589 1.383 . S
C590 C591 1.377 . S
C591 H575 0.930 . S
C591 C590 1.377 . S
C591 C592 1.379 . S
C592 H576 0.931 . S
C592 C586 1.383 . S
C592 C591 1.379 . S
H593 C587 0.959 . S
H594 C587 0.961 . S
H595 C587 0.960 . S
H596 C588 0.930 . S
H597 C589 0.929 . S
H598 C606 0.929 . S
H599 C608 0.930 . S
H600 C610 0.930 . S
H601 C613 0.929 . S
H602 C616 0.930 . S
H603 C618 0.960 . S
H604 C618 0.960 . S
H605 C618 0.960 . S
C606 H598 0.929 . S
C606 C607 1.377 . S
C606 C608 1.384 . S
C607 C606 1.377 . S
C607 C613 1.390 . S
C608 H599 0.930 . S
C608 C606 1.384 . S
C608 C609 1.372 . S
C609 C608 1.372 . S
C609 C610 1.400 . S
C609 C614 1.490 . S
C610 H600 0.930 . S
C610 C609 1.400 . S
C610 C613 1.386 . S
H611 C627 0.930 . S
H612 C628 0.931 . S
C613 H601 0.929 . S
C613 C607 1.390 . S
C613 C610 1.386 . S
C614 C609 1.490 . S
C614 C616 1.395 . S
C614 C617 1.403 . S
H615 C621 0.930 . S
C616 H602 0.930 . S
C616 C614 1.395 . S
C616 C619 1.403 . S
C617 C614 1.403 . S
C617 C618 1.524 . S
C617 C621 1.400 . S
C618 H603 0.960 . S
C618 H604 0.960 . S
C618 H605 0.960 . S
C618 C617 1.524 . S
C619 C616 1.403 . S
C619 C620 1.392 . S
C619 C623 1.495 . S
C620 C619 1.392 . S
C620 C621 1.385 . S
C620 C622 1.478 . S
C621 H615 0.930 . S
C621 C617 1.400 . S
C621 C620 1.385 . S
C622 C620 1.478 . S
C622 C624 1.381 . S
C622 C628 1.383 . S
C623 C619 1.495 . S
C623 H629 0.959 . S
C623 H630 0.961 . S
C623 H631 0.960 . S
C624 C622 1.381 . S
C624 C625 1.394 . S
C624 H632 0.930 . S
C625 C624 1.394 . S
C625 C626 1.383 . S
C625 H633 0.929 . S
C626 C625 1.383 . S
C626 C627 1.377 . S
C627 H611 0.930 . S
C627 C626 1.377 . S
C627 C628 1.379 . S
C628 H612 0.931 . S
C628 C622 1.383 . S
C628 C627 1.379 . S
H629 C623 0.959 . S
H630 C623 0.961 . S
H631 C623 0.960 . S
H632 C624 0.930 . S
H633 C625 0.929 . S
H634 C642 0.929 . S
H635 C644 0.930 . S
H636 C646 0.930 . S
H637 C649 0.929 . S
H638 C652 0.930 . S
H639 C654 0.960 . S
H640 C654 0.960 . S
H641 C654 0.960 . S
C642 H634 0.929 . S
C642 C643 1.377 . S
C642 C644 1.384 . S
C643 C642 1.377 . S
C643 C649 1.390 . S
C644 H635 0.930 . S
C644 C642 1.384 . S
C644 C645 1.372 . S
C645 C644 1.372 . S
C645 C646 1.400 . S
C645 C650 1.490 . S
C646 H636 0.930 . S
C646 C645 1.400 . S
C646 C649 1.386 . S
H647 C663 0.930 . S
H648 C664 0.931 . S
C649 H637 0.929 . S
C649 C643 1.390 . S
C649 C646 1.386 . S
C650 C645 1.490 . S
C650 C652 1.395 . S
C650 C653 1.403 . S
H651 C657 0.930 . S
C652 H638 0.930 . S
C652 C650 1.395 . S
C652 C655 1.403 . S
C653 C650 1.403 . S
C653 C654 1.524 . S
C653 C657 1.400 . S
C654 H639 0.960 . S
C654 H640 0.960 . S
C654 H641 0.960 . S
C654 C653 1.524 . S
C655 C652 1.403 . S
C655 C656 1.392 . S
C655 C659 1.495 . S
C656 C655 1.392 . S
C656 C657 1.385 . S
C656 C658 1.478 . S
C657 H651 0.930 . S
C657 C653 1.400 . S
C657 C656 1.385 . S
C658 C656 1.478 . S
C658 C660 1.381 . S
C658 C664 1.383 . S
C659 C655 1.495 . S
C659 H665 0.959 . S
C659 H666 0.961 . S
C659 H667 0.960 . S
C660 C658 1.381 . S
C660 C661 1.394 . S
C660 H668 0.930 . S
C661 C660 1.394 . S
C661 C662 1.383 . S
C661 H669 0.929 . S
C662 C661 1.383 . S
C662 C663 1.377 . S
C663 H647 0.930 . S
C663 C662 1.377 . S
C663 C664 1.379 . S
C664 H648 0.931 . S
C664 C658 1.383 . S
C664 C663 1.379 . S
H665 C659 0.959 . S
H666 C659 0.961 . S
H667 C659 0.960 . S
H668 C660 0.930 . S
H669 C661 0.929 . S
H670 C678 0.929 . S
H671 C680 0.930 . S
H672 C682 0.930 . S
H673 C685 0.929 . S
H674 C688 0.930 . S
H675 C690 0.960 . S
H676 C690 0.960 . S
H677 C690 0.960 . S
C678 H670 0.929 . S
C678 C679 1.377 . S
C678 C680 1.384 . S
C679 C678 1.377 . S
C679 C685 1.390 . S
C680 H671 0.930 . S
C680 C678 1.384 . S
C680 C681 1.372 . S
C681 C680 1.372 . S
C681 C682 1.400 . S
C681 C686 1.490 . S
C682 H672 0.930 . S
C682 C681 1.400 . S
C682 C685 1.386 . S
H683 C699 0.930 . S
H684 C700 0.931 . S
C685 H673 0.929 . S
C685 C679 1.390 . S
C685 C682 1.386 . S
C686 C681 1.490 . S
C686 C688 1.395 . S
C686 C689 1.403 . S
H687 C693 0.930 . S
C688 H674 0.930 . S
C688 C686 1.395 . S
C688 C691 1.403 . S
C689 C686 1.403 . S
C689 C690 1.524 . S
C689 C693 1.400 . S
C690 H675 0.960 . S
C690 H676 0.960 . S
C690 H677 0.960 . S
C690 C689 1.524 . S
C691 C688 1.403 . S
C691 C692 1.392 . S
C691 C695 1.495 . S
C692 C691 1.392 . S
C692 C693 1.385 . S
C692 C694 1.478 . S
C693 H687 0.930 . S
C693 C689 1.400 . S
C693 C692 1.385 . S
C694 C692 1.478 . S
C694 C696 1.381 . S
C694 C700 1.383 . S
C695 C691 1.495 . S
C695 H701 0.959 . S
C695 H702 0.961 . S
C695 H703 0.960 . S
C696 C694 1.381 . S
C696 C697 1.394 . S
C696 H704 0.930 . S
C697 C696 1.394 . S
C697 C698 1.383 . S
C697 H705 0.929 . S
C698 C697 1.383 . S
C698 C699 1.377 . S
C699 H683 0.930 . S
C699 C698 1.377 . S
C699 C700 1.379 . S
C700 H684 0.931 . S
C700 C694 1.383 . S
C700 C699 1.379 . S
H701 C695 0.959 . S
H702 C695 0.961 . S
H703 C695 0.960 . S
H704 C696 0.930 . S
H705 C697 0.929 . S
H706 C714 0.929 . S
H707 C716 0.930 . S
H708 C718 0.930 . S
H709 C721 0.929 . S
H710 C724 0.930 . S
H711 C726 0.960 . S
H712 C726 0.960 . S
H713 C726 0.960 . S
C714 H706 0.929 . S
C714 C715 1.377 . S
C714 C716 1.384 . S
C715 C714 1.377 . S
C715 C721 1.390 . S
C716 H707 0.930 . S
C716 C714 1.384 . S
C716 C717 1.372 . S
C717 C716 1.372 . S
C717 C718 1.400 . S
C717 C722 1.490 . S
C718 H708 0.930 . S
C718 C717 1.400 . S
C718 C721 1.386 . S
H719 C735 0.930 . S
H720 C736 0.931 . S
C721 H709 0.929 . S
C721 C715 1.390 . S
C721 C718 1.386 . S
C722 C717 1.490 . S
C722 C724 1.395 . S
C722 C725 1.403 . S
H723 C729 0.930 . S
C724 H710 0.930 . S
C724 C722 1.395 . S
C724 C727 1.403 . S
C725 C722 1.403 . S
C725 C726 1.524 . S
C725 C729 1.400 . S
C726 H711 0.960 . S
C726 H712 0.960 . S
C726 H713 0.960 . S
C726 C725 1.524 . S
C727 C724 1.403 . S
C727 C728 1.392 . S
C727 C731 1.495 . S
C728 C727 1.392 . S
C728 C729 1.385 . S
C728 C730 1.478 . S
C729 H723 0.930 . S
C729 C725 1.400 . S
C729 C728 1.385 . S
C730 C728 1.478 . S
C730 C732 1.381 . S
C730 C736 1.383 . S
C731 C727 1.495 . S
C731 H737 0.959 . S
C731 H738 0.961 . S
C731 H739 0.960 . S
C732 C730 1.381 . S
C732 C733 1.394 . S
C732 H740 0.930 . S
C733 C732 1.394 . S
C733 C734 1.383 . S
C733 H741 0.929 . S
C734 C733 1.383 . S
C734 C735 1.377 . S
C735 H719 0.930 . S
C735 C734 1.377 . S
C735 C736 1.379 . S
C736 H720 0.931 . S
C736 C730 1.383 . S
C736 C735 1.379 . S
H737 C731 0.959 . S
H738 C731 0.961 . S
H739 C731 0.960 . S
H740 C732 0.930 . S
H741 C733 0.929 . S
H742 C750 0.929 . S
H743 C752 0.930 . S
H744 C754 0.930 . S
H745 C757 0.929 . S
H746 C760 0.930 . S
H747 C762 0.960 . S
H748 C762 0.960 . S
H749 C762 0.960 . S
C750 H742 0.929 . S
C750 C751 1.377 . S
C750 C752 1.384 . S
C751 C750 1.377 . S
C751 C757 1.390 . S
C752 H743 0.930 . S
C752 C750 1.384 . S
C752 C753 1.372 . S
C753 C752 1.372 . S
C753 C754 1.400 . S
C753 C758 1.490 . S
C754 H744 0.930 . S
C754 C753 1.400 . S
C754 C757 1.386 . S
H755 C771 0.930 . S
H756 C772 0.931 . S
C757 H745 0.929 . S
C757 C751 1.390 . S
C757 C754 1.386 . S
C758 C753 1.490 . S
C758 C760 1.395 . S
C758 C761 1.403 . S
H759 C765 0.930 . S
C760 H746 0.930 . S
C760 C758 1.395 . S
C760 C763 1.403 . S
C761 C758 1.403 . S
C761 C762 1.524 . S
C761 C765 1.400 . S
C762 H747 0.960 . S
C762 H748 0.960 . S
C762 H749 0.960 . S
C762 C761 1.524 . S
C763 C760 1.403 . S
C763 C764 1.392 . S
C763 C767 1.495 . S
C764 C763 1.392 . S
C764 C765 1.385 . S
C764 C766 1.478 . S
C765 H759 0.930 . S
C765 C761 1.400 . S
C765 C764 1.385 . S
C766 C764 1.478 . S
C766 C768 1.381 . S
C766 C772 1.383 . S
C767 C763 1.495 . S
C767 H773 0.959 . S
C767 H774 0.961 . S
C767 H775 0.960 . S
C768 C766 1.381 . S
C768 C769 1.394 . S
C768 H776 0.930 . S
C769 C768 1.394 . S
C769 C770 1.383 . S
C769 H777 0.929 . S
C770 C769 1.383 . S
C770 C771 1.377 . S
C771 H755 0.930 . S
C771 C770 1.377 . S
C771 C772 1.379 . S
C772 H756 0.931 . S
C772 C766 1.383 . S
C772 C771 1.379 . S
H773 C767 0.959 . S
H774 C767 0.961 . S
H775 C767 0.960 . S
H776 C768 0.930 . S
H777 C769 0.929 . S
H778 C786 0.929 . S
H779 C788 0.930 . S
H780 C790 0.930 . S
H781 C793 0.929 . S
H782 C796 0.930 . S
H783 C798 0.960 . S
H784 C798 0.960 . S
H785 C798 0.960 . S
C786 H778 0.929 . S
C786 C787 1.377 . S
C786 C788 1.384 . S
C787 C786 1.377 . S
C787 C793 1.390 . S
C788 H779 0.930 . S
C788 C786 1.384 . S
C788 C789 1.372 . S
C789 C788 1.372 . S
C789 C790 1.400 . S
C789 C794 1.490 . S
C790 H780 0.930 . S
C790 C789 1.400 . S
C790 C793 1.386 . S
H791 C807 0.930 . S
H792 C808 0.931 . S
C793 H781 0.929 . S
C793 C787 1.390 . S
C793 C790 1.386 . S
C794 C789 1.490 . S
C794 C796 1.395 . S
C794 C797 1.403 . S
H795 C801 0.930 . S
C796 H782 0.930 . S
C796 C794 1.395 . S
C796 C799 1.403 . S
C797 C794 1.403 . S
C797 C798 1.524 . S
C797 C801 1.400 . S
C798 H783 0.960 . S
C798 H784 0.960 . S
C798 H785 0.960 . S
C798 C797 1.524 . S
C799 C796 1.403 . S
C799 C800 1.392 . S
C799 C803 1.495 . S
C800 C799 1.392 . S
C800 C801 1.385 . S
C800 C802 1.478 . S
C801 H795 0.930 . S
C801 C797 1.400 . S
C801 C800 1.385 . S
C802 C800 1.478 . S
C802 C804 1.381 . S
C802 C808 1.383 . S
C803 C799 1.495 . S
C803 H809 0.959 . S
C803 H810 0.961 . S
C803 H811 0.960 . S
C804 C802 1.381 . S
C804 C805 1.394 . S
C804 H812 0.930 . S
C805 C804 1.394 . S
C805 C806 1.383 . S
C805 H813 0.929 . S
C806 C805 1.383 . S
C806 C807 1.377 . S
C807 H791 0.930 . S
C807 C806 1.377 . S
C807 C808 1.379 . S
C808 H792 0.931 . S
C808 C802 1.383 . S
C808 C807 1.379 . S
H809 C803 0.959 . S
H810 C803 0.961 . S
H811 C803 0.960 . S
H812 C804 0.930 . S
H813 C805 0.929 . S
H814 C822 0.929 . S
H815 C824 0.930 . S
H816 C826 0.930 . S
H817 C829 0.929 . S
H818 C832 0.930 . S
H819 C834 0.960 . S
H820 C834 0.960 . S
H821 C834 0.960 . S
C822 H814 0.929 . S
C822 C823 1.377 . S
C822 C824 1.384 . S
C823 C822 1.377 . S
C823 C829 1.390 . S
C824 H815 0.930 . S
C824 C822 1.384 . S
C824 C825 1.372 . S
C825 C824 1.372 . S
C825 C826 1.400 . S
C825 C830 1.490 . S
C826 H816 0.930 . S
C826 C825 1.400 . S
C826 C829 1.386 . S
H827 C843 0.930 . S
H828 C844 0.931 . S
C829 H817 0.929 . S
C829 C823 1.390 . S
C829 C826 1.386 . S
C830 C825 1.490 . S
C830 C832 1.395 . S
C830 C833 1.403 . S
H831 C837 0.930 . S
C832 H818 0.930 . S
C832 C830 1.395 . S
C832 C835 1.403 . S
C833 C830 1.403 . S
C833 C834 1.524 . S
C833 C837 1.400 . S
C834 H819 0.960 . S
C834 H820 0.960 . S
C834 H821 0.960 . S
C834 C833 1.524 . S
C835 C832 1.403 . S
C835 C836 1.392 . S
C835 C839 1.495 . S
C836 C835 1.392 . S
C836 C837 1.385 . S
C836 C838 1.478 . S
C837 H831 0.930 . S
C837 C833 1.400 . S
C837 C836 1.385 . S
C838 C836 1.478 . S
C838 C840 1.381 . S
C838 C844 1.383 . S
C839 C835 1.495 . S
C839 H845 0.959 . S
C839 H846 0.961 . S
C839 H847 0.960 . S
C840 C838 1.381 . S
C840 C841 1.394 . S
C840 H848 0.930 . S
C841 C840 1.394 . S
C841 C842 1.383 . S
C841 H849 0.929 . S
C842 C841 1.383 . S
C842 C843 1.377 . S
C843 H827 0.930 . S
C843 C842 1.377 . S
C843 C844 1.379 . S
C844 H828 0.931 . S
C844 C838 1.383 . S
C844 C843 1.379 . S
H845 C839 0.959 . S
H846 C839 0.961 . S
H847 C839 0.960 . S
H848 C840 0.930 . S
H849 C841 0.929 . S
H850 C858 0.929 . S
H851 C860 0.930 . S
H852 C862 0.930 . S
H853 C865 0.929 . S
H854 C868 0.930 . S
H855 C870 0.960 . S
H856 C870 0.960 . S
H857 C870 0.960 . S
C858 H850 0.929 . S
C858 C859 1.377 . S
C858 C860 1.384 . S
C859 C858 1.377 . S
C859 C865 1.390 . S
C860 H851 0.930 . S
C860 C858 1.384 . S
C860 C861 1.372 . S
C861 C860 1.372 . S
C861 C862 1.400 . S
C861 C866 1.490 . S
C862 H852 0.930 . S
C862 C861 1.400 . S
C862 C865 1.386 . S
H863 C879 0.930 . S
H864 C880 0.931 . S
C865 H853 0.929 . S
C865 C859 1.390 . S
C865 C862 1.386 . S
C866 C861 1.490 . S
C866 C868 1.395 . S
C866 C869 1.403 . S
H867 C873 0.930 . S
C868 H854 0.930 . S
C868 C866 1.395 . S
C868 C871 1.403 . S
C869 C866 1.403 . S
C869 C870 1.524 . S
C869 C873 1.400 . S
C870 H855 0.960 . S
C870 H856 0.960 . S
C870 H857 0.960 . S
C870 C869 1.524 . S
C871 C868 1.403 . S
C871 C872 1.392 . S
C871 C875 1.495 . S
C872 C871 1.392 . S
C872 C873 1.385 . S
C872 C874 1.478 . S
C873 H867 0.930 . S
C873 C869 1.400 . S
C873 C872 1.385 . S
C874 C872 1.478 . S
C874 C876 1.381 . S
C874 C880 1.383 . S
C875 C871 1.495 . S
C875 H881 0.959 . S
C875 H882 0.961 . S
C875 H883 0.960 . S
C876 C874 1.381 . S
C876 C877 1.394 . S
C876 H884 0.930 . S
C877 C876 1.394 . S
C877 C878 1.383 . S
C877 H885 0.929 . S
C878 C877 1.383 . S
C878 C879 1.377 . S
C879 H863 0.930 . S
C879 C878 1.377 . S
C879 C880 1.379 . S
C880 H864 0.931 . S
C880 C874 1.383 . S
C880 C879 1.379 . S
H881 C875 0.959 . S
H882 C875 0.961 . S
H883 C875 0.960 . S
H884 C876 0.930 . S
H885 C877 0.929 . S
H886 C894 0.929 . S
H887 C896 0.930 . S
H888 C898 0.930 . S
H889 C901 0.929 . S
H890 C904 0.930 . S
H891 C906 0.960 . S
H892 C906 0.960 . S
H893 C906 0.960 . S
C894 H886 0.929 . S
C894 C895 1.377 . S
C894 C896 1.384 . S
C895 C894 1.377 . S
C895 C901 1.390 . S
C896 H887 0.930 . S
C896 C894 1.384 . S
C896 C897 1.372 . S
C897 C896 1.372 . S
C897 C898 1.400 . S
C897 C902 1.490 . S
C898 H888 0.930 . S
C898 C897 1.400 . S
C898 C901 1.386 . S
H899 C915 0.930 . S
H900 C916 0.931 . S
C901 H889 0.929 . S
C901 C895 1.390 . S
C901 C898 1.386 . S
C902 C897 1.490 . S
C902 C904 1.395 . S
C902 C905 1.403 . S
H903 C909 0.930 . S
C904 H890 0.930 . S
C904 C902 1.395 . S
C904 C907 1.403 . S
C905 C902 1.403 . S
C905 C906 1.524 . S
C905 C909 1.400 . S
C906 H891 0.960 . S
C906 H892 0.960 . S
C906 H893 0.960 . S
C906 C905 1.524 . S
C907 C904 1.403 . S
C907 C908 1.392 . S
C907 C911 1.495 . S
C908 C907 1.392 . S
C908 C909 1.385 . S
C908 C910 1.478 . S
C909 H903 0.930 . S
C909 C905 1.400 . S
C909 C908 1.385 . S
C910 C908 1.478 . S
C910 C912 1.381 . S
C910 C916 1.383 . S
C911 C907 1.495 . S
C911 H917 0.959 . S
C911 H918 0.961 . S
C911 H919 0.960 . S
C912 C910 1.381 . S
C912 C913 1.394 . S
C912 H920 0.930 . S
C913 C912 1.394 . S
C913 C914 1.383 . S
C913 H921 0.929 . S
C914 C913 1.383 . S
C914 C915 1.377 . S
C915 H899 0.930 . S
C915 C914 1.377 . S
C915 C916 1.379 . S
C916 H900 0.931 . S
C916 C910 1.383 . S
C916 C915 1.379 . S
H917 C911 0.959 . S
H918 C911 0.961 . S
H919 C911 0.960 . S
H920 C912 0.930 . S
H921 C913 0.929 . S
H922 C930 0.929 . S
H923 C932 0.930 . S
H924 C934 0.930 . S
H925 C937 0.929 . S
H926 C940 0.930 . S
H927 C942 0.960 . S
H928 C942 0.960 . S
H929 C942 0.960 . S
C930 H922 0.929 . S
C930 C931 1.377 . S
C930 C932 1.384 . S
C931 C930 1.377 . S
C931 C937 1.390 . S
C932 H923 0.930 . S
C932 C930 1.384 . S
C932 C933 1.372 . S
C933 C932 1.372 . S
C933 C934 1.400 . S
C933 C938 1.490 . S
C934 H924 0.930 . S
C934 C933 1.400 . S
C934 C937 1.386 . S
H935 C951 0.930 . S
H936 C952 0.931 . S
C937 H925 0.929 . S
C937 C931 1.390 . S
C937 C934 1.386 . S
C938 C933 1.490 . S
C938 C940 1.395 . S
C938 C941 1.403 . S
H939 C945 0.930 . S
C940 H926 0.930 . S
C940 C938 1.395 . S
C940 C943 1.403 . S
C941 C938 1.403 . S
C941 C942 1.524 . S
C941 C945 1.400 . S
C942 H927 0.960 . S
C942 H928 0.960 . S
C942 H929 0.960 . S
C942 C941 1.524 . S
C943 C940 1.403 . S
C943 C944 1.392 . S
C943 C947 1.495 . S
C944 C943 1.392 . S
C944 C945 1.385 . S
C944 C946 1.478 . S
C945 H939 0.930 . S
C945 C941 1.400 . S
C945 C944 1.385 . S
C946 C944 1.478 . S
C946 C948 1.381 . S
C946 C952 1.383 . S
C947 C943 1.495 . S
C947 H953 0.959 . S
C947 H954 0.961 . S
C947 H955 0.960 . S
C948 C946 1.381 . S
C948 C949 1.394 . S
C948 H956 0.930 . S
C949 C948 1.394 . S
C949 C950 1.383 . S
C949 H957 0.929 . S
C950 C949 1.383 . S
C950 C951 1.377 . S
C951 H935 0.930 . S
C951 C950 1.377 . S
C951 C952 1.379 . S
C952 H936 0.931 . S
C952 C946 1.383 . S
C952 C951 1.379 . S
H953 C947 0.959 . S
H954 C947 0.961 . S
H955 C947 0.960 . S
H956 C948 0.930 . S
H957 C949 0.929 . S
H958 C966 0.929 . S
H959 C968 0.930 . S
H960 C970 0.930 . S
H961 C973 0.929 . S
H962 C976 0.930 . S
H963 C978 0.960 . S
H964 C978 0.960 . S
H965 C978 0.960 . S
C966 H958 0.929 . S
C966 C967 1.377 . S
C966 C968 1.384 . S
C967 C966 1.377 . S
C967 C973 1.390 . S
C968 H959 0.930 . S
C968 C966 1.384 . S
C968 C969 1.372 . S
C969 C968 1.372 . S
C969 C970 1.400 . S
C969 C974 1.490 . S
C970 H960 0.930 . S
C970 C969 1.400 . S
C970 C973 1.386 . S
H971 C987 0.930 . S
H972 C988 0.931 . S
C973 H961 0.929 . S
C973 C967 1.390 . S
C973 C970 1.386 . S
C974 C969 1.490 . S
C974 C976 1.395 . S
C974 C977 1.403 . S
H975 C981 0.930 . S
C976 H962 0.930 . S
C976 C974 1.395 . S
C976 C979 1.403 . S
C977 C974 1.403 . S
C977 C978 1.524 . S
C977 C981 1.400 . S
C978 H963 0.960 . S
C978 H964 0.960 . S
C978 H965 0.960 . S
C978 C977 1.524 . S
C979 C976 1.403 . S
C979 C980 1.392 . S
C979 C983 1.495 . S
C980 C979 1.392 . S
C980 C981 1.385 . S
C980 C982 1.478 . S
C981 H975 0.930 . S
C981 C977 1.400 . S
C981 C980 1.385 . S
C982 C980 1.478 . S
C982 C984 1.381 . S
C982 C988 1.383 . S
C983 C979 1.495 . S
C983 H989 0.959 . S
C983 H990 0.961 . S
C983 H991 0.960 . S
C984 C982 1.381 . S
C984 C985 1.394 . S
C984 H992 0.930 . S
C985 C984 1.394 . S
C985 C986 1.383 . S
C985 H993 0.929 . S
C986 C985 1.383 . S
C986 C987 1.377 . S
C987 H971 0.930 . S
C987 C986 1.377 . S
C987 C988 1.379 . S
C988 H972 0.931 . S
C988 C982 1.383 . S
C988 C987 1.379 . S
H989 C983 0.959 . S
H990 C983 0.961 . S
H991 C983 0.960 . S
H992 C984 0.930 . S
H993 C985 0.929 . S
H994 C1002 0.929 . S
H995 C1004 0.930 . S
H996 C1006 0.930 . S
H997 C1009 0.929 . S
H998 C1012 0.930 . S
H999 C1014 0.960 . S
H1000 C1014 0.960 . S
H1001 C1014 0.960 . S
C1002 H994 0.929 . S
C1002 C1003 1.377 . S
C1002 C1004 1.384 . S
C1003 C1002 1.377 . S
C1003 C1009 1.390 . S
C1004 H995 0.930 . S
C1004 C1002 1.384 . S
C1004 C1005 1.372 . S
C1005 C1004 1.372 . S
C1005 C1006 1.400 . S
C1005 C1010 1.490 . S
C1006 H996 0.930 . S
C1006 C1005 1.400 . S
C1006 C1009 1.386 . S
H1007 C1023 0.930 . S
H1008 C1024 0.931 . S
C1009 H997 0.929 . S
C1009 C1003 1.390 . S
C1009 C1006 1.386 . S
C1010 C1005 1.490 . S
C1010 C1012 1.395 . S
C1010 C1013 1.403 . S
H1011 C1017 0.930 . S
C1012 H998 0.930 . S
C1012 C1010 1.395 . S
C1012 C1015 1.403 . S
C1013 C1010 1.403 . S
C1013 C1014 1.524 . S
C1013 C1017 1.400 . S
C1014 H999 0.960 . S
C1014 H1000 0.960 . S
C1014 H1001 0.960 . S
C1014 C1013 1.524 . S
C1015 C1012 1.403 . S
C1015 C1016 1.392 . S
C1015 C1019 1.495 . S
C1016 C1015 1.392 . S
C1016 C1017 1.385 . S
C1016 C1018 1.478 . S
C1017 H1011 0.930 . S
C1017 C1013 1.400 . S
C1017 C1016 1.385 . S
C1018 C1016 1.478 . S
C1018 C1020 1.381 . S
C1018 C1024 1.383 . S
C1019 C1015 1.495 . S
C1019 H1025 0.959 . S
C1019 H1026 0.961 . S
C1019 H1027 0.960 . S
C1020 C1018 1.381 . S
C1020 C1021 1.394 . S
C1020 H1028 0.930 . S
C1021 C1020 1.394 . S
C1021 C1022 1.383 . S
C1021 H1029 0.929 . S
C1022 C1021 1.383 . S
C1022 C1023 1.377 . S
C1023 H1007 0.930 . S
C1023 C1022 1.377 . S
C1023 C1024 1.379 . S
C1024 H1008 0.931 . S
C1024 C1018 1.383 . S
C1024 C1023 1.379 . S
H1025 C1019 0.959 . S
H1026 C1019 0.961 . S
H1027 C1019 0.960 . S
H1028 C1020 0.930 . S
H1029 C1021 0.929 . S
H1030 C1038 0.929 . S
H1031 C1040 0.930 . S
H1032 C1042 0.930 . S
H1033 C1045 0.929 . S
H1034 C1048 0.930 . S
H1035 C1050 0.960 . S
H1036 C1050 0.960 . S
H1037 C1050 0.960 . S
C1038 H1030 0.929 . S
C1038 C1039 1.377 . S
C1038 C1040 1.384 . S
C1039 C1038 1.377 . S
C1039 C1045 1.390 . S
C1040 H1031 0.930 . S
C1040 C1038 1.384 . S
C1040 C1041 1.372 . S
C1041 C1040 1.372 . S
C1041 C1042 1.400 . S
C1041 C1046 1.490 . S
C1042 H1032 0.930 . S
C1042 C1041 1.400 . S
C1042 C1045 1.386 . S
H1043 C1059 0.930 . S
H1044 C1060 0.931 . S
C1045 H1033 0.929 . S
C1045 C1039 1.390 . S
C1045 C1042 1.386 . S
C1046 C1041 1.490 . S
C1046 C1048 1.395 . S
C1046 C1049 1.403 . S
H1047 C1053 0.930 . S
C1048 H1034 0.930 . S
C1048 C1046 1.395 . S
C1048 C1051 1.403 . S
C1049 C1046 1.403 . S
C1049 C1050 1.524 . S
C1049 C1053 1.400 . S
C1050 H1035 0.960 . S
C1050 H1036 0.960 . S
C1050 H1037 0.960 . S
C1050 C1049 1.524 . S
C1051 C1048 1.403 . S
C1051 C1052 1.392 . S
C1051 C1055 1.495 . S
C1052 C1051 1.392 . S
C1052 C1053 1.385 . S
C1052 C1054 1.478 . S
C1053 H1047 0.930 . S
C1053 C1049 1.400 . S
C1053 C1052 1.385 . S
C1054 C1052 1.478 . S
C1054 C1056 1.381 . S
C1054 C1060 1.383 . S
C1055 C1051 1.495 . S
C1055 H1061 0.959 . S
C1055 H1062 0.961 . S
C1055 H1063 0.960 . S
C1056 C1054 1.381 . S
C1056 C1057 1.394 . S
C1056 H1064 0.930 . S
C1057 C1056 1.394 . S
C1057 C1058 1.383 . S
C1057 H1065 0.929 . S
C1058 C1057 1.383 . S
C1058 C1059 1.377 . S
C1059 H1043 0.930 . S
C1059 C1058 1.377 . S
C1059 C1060 1.379 . S
C1060 H1044 0.931 . S
C1060 C1054 1.383 . S
C1060 C1059 1.379 . S
H1061 C1055 0.959 . S
H1062 C1055 0.961 . S
H1063 C1055 0.960 . S
H1064 C1056 0.930 . S
H1065 C1057 0.929 . S
H1066 C1074 0.929 . S
H1067 C1076 0.930 . S
H1068 C1078 0.930 . S
H1069 C1081 0.929 . S
H1070 C1084 0.930 . S
H1071 C1086 0.960 . S
H1072 C1086 0.960 . S
H1073 C1086 0.960 . S
C1074 H1066 0.929 . S
C1074 C1075 1.377 . S
C1074 C1076 1.384 . S
C1075 C1074 1.377 . S
C1075 C1081 1.390 . S
C1076 H1067 0.930 . S
C1076 C1074 1.384 . S
C1076 C1077 1.372 . S
C1077 C1076 1.372 . S
C1077 C1078 1.400 . S
C1077 C1082 1.490 . S
C1078 H1068 0.930 . S
C1078 C1077 1.400 . S
C1078 C1081 1.386 . S
H1079 C1095 0.930 . S
H1080 C1096 0.931 . S
C1081 H1069 0.929 . S
C1081 C1075 1.390 . S
C1081 C1078 1.386 . S
C1082 C1077 1.490 . S
C1082 C1084 1.395 . S
C1082 C1085 1.403 . S
H1083 C1089 0.930 . S
C1084 H1070 0.930 . S
C1084 C1082 1.395 . S
C1084 C1087 1.403 . S
C1085 C1082 1.403 . S
C1085 C1086 1.524 . S
C1085 C1089 1.400 . S
C1086 H1071 0.960 . S
C1086 H1072 0.960 . S
C1086 H1073 0.960 . S
C1086 C1085 1.524 . S
C1087 C1084 1.403 . S
C1087 C1088 1.392 . S
C1087 C1091 1.495 . S
C1088 C1087 1.392 . S
C1088 C1089 1.385 . S
C1088 C1090 1.478 . S
C1089 H1083 0.930 . S
C1089 C1085 1.400 . S
C1089 C1088 1.385 . S
C1090 C1088 1.478 . S
C1090 C1092 1.381 . S
C1090 C1096 1.383 . S
C1091 C1087 1.495 . S
C1091 H1097 0.959 . S
C1091 H1098 0.961 . S
C1091 H1099 0.960 . S
C1092 C1090 1.381 . S
C1092 C1093 1.394 . S
C1092 H1100 0.930 . S
C1093 C1092 1.394 . S
C1093 C1094 1.383 . S
C1093 H1101 0.929 . S
C1094 C1093 1.383 . S
C1094 C1095 1.377 . S
C1095 H1079 0.930 . S
C1095 C1094 1.377 . S
C1095 C1096 1.379 . S
C1096 H1080 0.931 . S
C1096 C1090 1.383 . S
C1096 C1095 1.379 . S
H1097 C1091 0.959 . S
H1098 C1091 0.961 . S
H1099 C1091 0.960 . S
H1100 C1092 0.930 . S
H1101 C1093 0.929 . S
H1102 C1110 0.929 . S
H1103 C1112 0.930 . S
H1104 C1114 0.930 . S
H1105 C1117 0.929 . S
H1106 C1120 0.930 . S
H1107 C1122 0.960 . S
H1108 C1122 0.960 . S
H1109 C1122 0.960 . S
C1110 H1102 0.929 . S
C1110 C1111 1.377 . S
C1110 C1112 1.384 . S
C1111 C1110 1.377 . S
C1111 C1117 1.390 . S
C1112 H1103 0.930 . S
C1112 C1110 1.384 . S
C1112 C1113 1.372 . S
C1113 C1112 1.372 . S
C1113 C1114 1.400 . S
C1113 C1118 1.490 . S
C1114 H1104 0.930 . S
C1114 C1113 1.400 . S
C1114 C1117 1.386 . S
H1115 C1131 0.930 . S
H1116 C1132 0.931 . S
C1117 H1105 0.929 . S
C1117 C1111 1.390 . S
C1117 C1114 1.386 . S
C1118 C1113 1.490 . S
C1118 C1120 1.395 . S
C1118 C1121 1.403 . S
H1119 C1125 0.930 . S
C1120 H1106 0.930 . S
C1120 C1118 1.395 . S
C1120 C1123 1.403 . S
C1121 C1118 1.403 . S
C1121 C1122 1.524 . S
C1121 C1125 1.400 . S
C1122 H1107 0.960 . S
C1122 H1108 0.960 . S
C1122 H1109 0.960 . S
C1122 C1121 1.524 . S
C1123 C1120 1.403 . S
C1123 C1124 1.392 . S
C1123 C1127 1.495 . S
C1124 C1123 1.392 . S
C1124 C1125 1.385 . S
C1124 C1126 1.478 . S
C1125 H1119 0.930 . S
C1125 C1121 1.400 . S
C1125 C1124 1.385 . S
C1126 C1124 1.478 . S
C1126 C1128 1.381 . S
C1126 C1132 1.383 . S
C1127 C1123 1.495 . S
C1127 H1133 0.959 . S
C1127 H1134 0.961 . S
C1127 H1135 0.960 . S
C1128 C1126 1.381 . S
C1128 C1129 1.394 . S
C1128 H1136 0.930 . S
C1129 C1128 1.394 . S
C1129 C1130 1.383 . S
C1129 H1137 0.929 . S
C1130 C1129 1.383 . S
C1130 C1131 1.377 . S
C1131 H1115 0.930 . S
C1131 C1130 1.377 . S
C1131 C1132 1.379 . S
C1132 H1116 0.931 . S
C1132 C1126 1.383 . S
C1132 C1131 1.379 . S
H1133 C1127 0.959 . S
H1134 C1127 0.961 . S
H1135 C1127 0.960 . S
H1136 C1128 0.930 . S
H1137 C1129 0.929 . S
H1138 C1146 0.929 . S
H1139 C1148 0.930 . S
H1140 C1150 0.930 . S
H1141 C1153 0.929 . S
H1142 C1156 0.930 . S
H1143 C1158 0.960 . S
H1144 C1158 0.960 . S
H1145 C1158 0.960 . S
C1146 H1138 0.929 . S
C1146 C1147 1.377 . S
C1146 C1148 1.384 . S
C1147 C1146 1.377 . S
C1147 C1153 1.390 . S
C1148 H1139 0.930 . S
C1148 C1146 1.384 . S
C1148 C1149 1.372 . S
C1149 C1148 1.372 . S
C1149 C1150 1.400 . S
C1149 C1154 1.490 . S
C1150 H1140 0.930 . S
C1150 C1149 1.400 . S
C1150 C1153 1.386 . S
H1151 C1167 0.930 . S
H1152 C1168 0.931 . S
C1153 H1141 0.929 . S
C1153 C1147 1.390 . S
C1153 C1150 1.386 . S
C1154 C1149 1.490 . S
C1154 C1156 1.395 . S
C1154 C1157 1.403 . S
H1155 C1161 0.930 . S
C1156 H1142 0.930 . S
C1156 C1154 1.395 . S
C1156 C1159 1.403 . S
C1157 C1154 1.403 . S
C1157 C1158 1.524 . S
C1157 C1161 1.400 . S
C1158 H1143 0.960 . S
C1158 H1144 0.960 . S
C1158 H1145 0.960 . S
C1158 C1157 1.524 . S
C1159 C1156 1.403 . S
C1159 C1160 1.392 . S
C1159 C1163 1.495 . S
C1160 C1159 1.392 . S
C1160 C1161 1.385 . S
C1160 C1162 1.478 . S
C1161 H1155 0.930 . S
C1161 C1157 1.400 . S
C1161 C1160 1.385 . S
C1162 C1160 1.478 . S
C1162 C1164 1.381 . S
C1162 C1168 1.383 . S
C1163 C1159 1.495 . S
C1163 H1169 0.959 . S
C1163 H1170 0.961 . S
C1163 H1171 0.960 . S
C1164 C1162 1.381 . S
C1164 C1165 1.394 . S
C1164 H1172 0.930 . S
C1165 C1164 1.394 . S
C1165 C1166 1.383 . S
C1165 H1173 0.929 . S
C1166 C1165 1.383 . S
C1166 C1167 1.377 . S
C1167 H1151 0.930 . S
C1167 C1166 1.377 . S
C1167 C1168 1.379 . S
C1168 H1152 0.931 . S
C1168 C1162 1.383 . S
C1168 C1167 1.379 . S
H1169 C1163 0.959 . S
H1170 C1163 0.961 . S
H1171 C1163 0.960 . S
H1172 C1164 0.930 . S
H1173 C1165 0.929 . S
H1174 C1182 0.929 . S
H1175 C1184 0.930 . S
H1176 C1186 0.930 . S
H1177 C1189 0.929 . S
H1178 C1192 0.930 . S
H1179 C1194 0.960 . S
H1180 C1194 0.960 . S
H1181 C1194 0.960 . S
C1182 H1174 0.929 . S
C1182 C1183 1.377 . S
C1182 C1184 1.384 . S
C1183 C1182 1.377 . S
C1183 C1189 1.390 . S
C1184 H1175 0.930 . S
C1184 C1182 1.384 . S
C1184 C1185 1.372 . S
C1185 C1184 1.372 . S
C1185 C1186 1.400 . S
C1185 C1190 1.490 . S
C1186 H1176 0.930 . S
C1186 C1185 1.400 . S
C1186 C1189 1.386 . S
H1187 C1203 0.930 . S
H1188 C1204 0.931 . S
C1189 H1177 0.929 . S
C1189 C1183 1.390 . S
C1189 C1186 1.386 . S
C1190 C1185 1.490 . S
C1190 C1192 1.395 . S
C1190 C1193 1.403 . S
H1191 C1197 0.930 . S
C1192 H1178 0.930 . S
C1192 C1190 1.395 . S
C1192 C1195 1.403 . S
C1193 C1190 1.403 . S
C1193 C1194 1.524 . S
C1193 C1197 1.400 . S
C1194 H1179 0.960 . S
C1194 H1180 0.960 . S
C1194 H1181 0.960 . S
C1194 C1193 1.524 . S
C1195 C1192 1.403 . S
C1195 C1196 1.392 . S
C1195 C1199 1.495 . S
C1196 C1195 1.392 . S
C1196 C1197 1.385 . S
C1196 C1198 1.478 . S
C1197 H1191 0.930 . S
C1197 C1193 1.400 . S
C1197 C1196 1.385 . S
C1198 C1196 1.478 . S
C1198 C1200 1.381 . S
C1198 C1204 1.383 . S
C1199 C1195 1.495 . S
C1199 H1205 0.959 . S
C1199 H1206 0.961 . S
C1199 H1207 0.960 . S
C1200 C1198 1.381 . S
C1200 C1201 1.394 . S
C1200 H1208 0.930 . S
C1201 C1200 1.394 . S
C1201 C1202 1.383 . S
C1201 H1209 0.929 . S
C1202 C1201 1.383 . S
C1202 C1203 1.377 . S
C1203 H1187 0.930 . S
C1203 C1202 1.377 . S
C1203 C1204 1.379 . S
C1204 H1188 0.931 . S
C1204 C1198 1.383 . S
C1204 C1203 1.379 . S
H1205 C1199 0.959 . S
H1206 C1199 0.961 . S
H1207 C1199 0.960 . S
H1208 C1200 0.930 . S
H1209 C1201 0.929 . S
H1210 C1218 0.929 . S
H1211 C1220 0.930 . S
H1212 C1222 0.930 . S
H1213 C1225 0.929 . S
H1214 C1228 0.930 . S
H1215 C1230 0.960 . S
H1216 C1230 0.960 . S
H1217 C1230 0.960 . S
C1218 H1210 0.929 . S
C1218 C1219 1.377 . S
C1218 C1220 1.384 . S
C1219 C1218 1.377 . S
C1219 C1225 1.390 . S
C1220 H1211 0.930 . S
C1220 C1218 1.384 . S
C1220 C1221 1.372 . S
C1221 C1220 1.372 . S
C1221 C1222 1.400 . S
C1221 C1226 1.490 . S
C1222 H1212 0.930 . S
C1222 C1221 1.400 . S
C1222 C1225 1.386 . S
H1223 C1239 0.930 . S
H1224 C1240 0.931 . S
C1225 H1213 0.929 . S
C1225 C1219 1.390 . S
C1225 C1222 1.386 . S
C1226 C1221 1.490 . S
C1226 C1228 1.395 . S
C1226 C1229 1.403 . S
H1227 C1233 0.930 . S
C1228 H1214 0.930 . S
C1228 C1226 1.395 . S
C1228 C1231 1.403 . S
C1229 C1226 1.403 . S
C1229 C1230 1.524 . S
C1229 C1233 1.400 . S
C1230 H1215 0.960 . S
C1230 H1216 0.960 . S
C1230 H1217 0.960 . S
C1230 C1229 1.524 . S
C1231 C1228 1.403 . S
C1231 C1232 1.392 . S
C1231 C1235 1.495 . S
C1232 C1231 1.392 . S
C1232 C1233 1.385 . S
C1232 C1234 1.478 . S
C1233 H1227 0.930 . S
C1233 C1229 1.400 . S
C1233 C1232 1.385 . S
C1234 C1232 1.478 . S
C1234 C1236 1.381 . S
C1234 C1240 1.383 . S
C1235 C1231 1.495 . S
C1235 H1241 0.959 . S
C1235 H1242 0.961 . S
C1235 H1243 0.960 . S
C1236 C1234 1.381 . S
C1236 C1237 1.394 . S
C1236 H1244 0.930 . S
C1237 C1236 1.394 . S
C1237 C1238 1.383 . S
C1237 H1245 0.929 . S
C1238 C1237 1.383 . S
C1238 C1239 1.377 . S
C1239 H1223 0.930 . S
C1239 C1238 1.377 . S
C1239 C1240 1.379 . S
C1240 H1224 0.931 . S
C1240 C1234 1.383 . S
C1240 C1239 1.379 . S
H1241 C1235 0.959 . S
H1242 C1235 0.961 . S
H1243 C1235 0.960 . S
H1244 C1236 0.930 . S
H1245 C1237 0.929 . S
H1246 C1254 0.929 . S
H1247 C1256 0.930 . S
H1248 C1258 0.930 . S
H1249 C1261 0.929 . S
H1250 C1264 0.930 . S
H1251 C1266 0.960 . S
H1252 C1266 0.960 . S
H1253 C1266 0.960 . S
C1254 H1246 0.929 . S
C1254 C1255 1.377 . S
C1254 C1256 1.384 . S
C1255 C1254 1.377 . S
C1255 C1261 1.390 . S
C1256 H1247 0.930 . S
C1256 C1254 1.384 . S
C1256 C1257 1.372 . S
C1257 C1256 1.372 . S
C1257 C1258 1.400 . S
C1257 C1262 1.490 . S
C1258 H1248 0.930 . S
C1258 C1257 1.400 . S
C1258 C1261 1.386 . S
H1259 C1275 0.930 . S
H1260 C1276 0.931 . S
C1261 H1249 0.929 . S
C1261 C1255 1.390 . S
C1261 C1258 1.386 . S
C1262 C1257 1.490 . S
C1262 C1264 1.395 . S
C1262 C1265 1.403 . S
H1263 C1269 0.930 . S
C1264 H1250 0.930 . S
C1264 C1262 1.395 . S
C1264 C1267 1.403 . S
C1265 C1262 1.403 . S
C1265 C1266 1.524 . S
C1265 C1269 1.400 . S
C1266 H1251 0.960 . S
C1266 H1252 0.960 . S
C1266 H1253 0.960 . S
C1266 C1265 1.524 . S
C1267 C1264 1.403 . S
C1267 C1268 1.392 . S
C1267 C1271 1.495 . S
C1268 C1267 1.392 . S
C1268 C1269 1.385 . S
C1268 C1270 1.478 . S
C1269 H1263 0.930 . S
C1269 C1265 1.400 . S
C1269 C1268 1.385 . S
C1270 C1268 1.478 . S
C1270 C1272 1.381 . S
C1270 C1276 1.383 . S
C1271 C1267 1.495 . S
C1271 H1277 0.959 . S
C1271 H1278 0.961 . S
C1271 H1279 0.960 . S
C1272 C1270 1.381 . S
C1272 C1273 1.394 . S
C1272 H1280 0.930 . S
C1273 C1272 1.394 . S
C1273 C1274 1.383 . S
C1273 H1281 0.929 . S
C1274 C1273 1.383 . S
C1274 C1275 1.377 . S
C1275 H1259 0.930 . S
C1275 C1274 1.377 . S
C1275 C1276 1.379 . S
C1276 H1260 0.931 . S
C1276 C1270 1.383 . S
C1276 C1275 1.379 . S
H1277 C1271 0.959 . S
H1278 C1271 0.961 . S
H1279 C1271 0.960 . S
H1280 C1272 0.930 . S
H1281 C1273 0.929 . S
H1282 C1290 0.929 . S
H1283 C1292 0.930 . S
H1284 C1294 0.930 . S
H1285 C1297 0.929 . S
H1286 C1300 0.930 . S
H1287 C1302 0.960 . S
H1288 C1302 0.960 . S
H1289 C1302 0.960 . S
C1290 H1282 0.929 . S
C1290 C1291 1.377 . S
C1290 C1292 1.384 . S
C1291 C1290 1.377 . S
C1291 C1297 1.390 . S
C1292 H1283 0.930 . S
C1292 C1290 1.384 . S
C1292 C1293 1.372 . S
C1293 C1292 1.372 . S
C1293 C1294 1.400 . S
C1293 C1298 1.490 . S
C1294 H1284 0.930 . S
C1294 C1293 1.400 . S
C1294 C1297 1.386 . S
H1295 C1311 0.930 . S
H1296 C1312 0.931 . S
C1297 H1285 0.929 . S
C1297 C1291 1.390 . S
C1297 C1294 1.386 . S
C1298 C1293 1.490 . S
C1298 C1300 1.395 . S
C1298 C1301 1.403 . S
H1299 C1305 0.930 . S
C1300 H1286 0.930 . S
C1300 C1298 1.395 . S
C1300 C1303 1.403 . S
C1301 C1298 1.403 . S
C1301 C1302 1.524 . S
C1301 C1305 1.400 . S
C1302 H1287 0.960 . S
C1302 H1288 0.960 . S
C1302 H1289 0.960 . S
C1302 C1301 1.524 . S
C1303 C1300 1.403 . S
C1303 C1304 1.392 . S
C1303 C1307 1.495 . S
C1304 C1303 1.392 . S
C1304 C1305 1.385 . S
C1304 C1306 1.478 . S
C1305 H1299 0.930 . S
C1305 C1301 1.400 . S
C1305 C1304 1.385 . S
C1306 C1304 1.478 . S
C1306 C1308 1.381 . S
C1306 C1312 1.383 . S
C1307 C1303 1.495 . S
C1307 H1313 0.959 . S
C1307 H1314 0.961 . S
C1307 H1315 0.960 . S
C1308 C1306 1.381 . S
C1308 C1309 1.394 . S
C1308 H1316 0.930 . S
C1309 C1308 1.394 . S
C1309 C1310 1.383 . S
C1309 H1317 0.929 . S
C1310 C1309 1.383 . S
C1310 C1311 1.377 . S
C1311 H1295 0.930 . S
C1311 C1310 1.377 . S
C1311 C1312 1.379 . S
C1312 H1296 0.931 . S
C1312 C1306 1.383 . S
C1312 C1311 1.379 . S
H1313 C1307 0.959 . S
H1314 C1307 0.961 . S
H1315 C1307 0.960 . S
H1316 C1308 0.930 . S
H1317 C1309 0.929 . S
H1318 C1326 0.929 . S
H1319 C1328 0.930 . S
H1320 C1330 0.930 . S
H1321 C1333 0.929 . S
H1322 C1336 0.930 . S
H1323 C1338 0.960 . S
H1324 C1338 0.960 . S
H1325 C1338 0.960 . S
C1326 H1318 0.929 . S
C1326 C1327 1.377 . S
C1326 C1328 1.384 . S
C1327 C1326 1.377 . S
C1327 C1333 1.390 . S
C1328 H1319 0.930 . S
C1328 C1326 1.384 . S
C1328 C1329 1.372 . S
C1329 C1328 1.372 . S
C1329 C1330 1.400 . S
C1329 C1334 1.490 . S
C1330 H1320 0.930 . S
C1330 C1329 1.400 . S
C1330 C1333 1.386 . S
H1331 C1347 0.930 . S
H1332 C1348 0.931 . S
C1333 H1321 0.929 . S
C1333 C1327 1.390 . S
C1333 C1330 1.386 . S
C1334 C1329 1.490 . S
C1334 C1336 1.395 . S
C1334 C1337 1.403 . S
H1335 C1341 0.930 . S
C1336 H1322 0.930 . S
C1336 C1334 1.395 . S
C1336 C1339 1.403 . S
C1337 C1334 1.403 . S
C1337 C1338 1.524 . S
C1337 C1341 1.400 . S
C1338 H1323 0.960 . S
C1338 H1324 0.960 . S
C1338 H1325 0.960 . S
C1338 C1337 1.524 . S
C1339 C1336 1.403 . S
C1339 C1340 1.392 . S
C1339 C1343 1.495 . S
C1340 C1339 1.392 . S
C1340 C1341 1.385 . S
C1340 C1342 1.478 . S
C1341 H1335 0.930 . S
C1341 C1337 1.400 . S
C1341 C1340 1.385 . S
C1342 C1340 1.478 . S
C1342 C1344 1.381 . S
C1342 C1348 1.383 . S
C1343 C1339 1.495 . S
C1343 H1349 0.959 . S
C1343 H1350 0.961 . S
C1343 H1351 0.960 . S
C1344 C1342 1.381 . S
C1344 C1345 1.394 . S
C1344 H1352 0.930 . S
C1345 C1344 1.394 . S
C1345 C1346 1.383 . S
C1345 H1353 0.929 . S
C1346 C1345 1.383 . S
C1346 C1347 1.377 . S
C1347 H1331 0.930 . S
C1347 C1346 1.377 . S
C1347 C1348 1.379 . S
C1348 H1332 0.931 . S
C1348 C1342 1.383 . S
C1348 C1347 1.379 . S
H1349 C1343 0.959 . S
H1350 C1343 0.961 . S
H1351 C1343 0.960 . S
H1352 C1344 0.930 . S
H1353 C1345 0.929 . S
H1354 C1362 0.929 . S
H1355 C1364 0.930 . S
H1356 C1366 0.930 . S
H1357 C1369 0.929 . S
H1358 C1372 0.930 . S
H1359 C1374 0.960 . S
H1360 C1374 0.960 . S
H1361 C1374 0.960 . S
C1362 H1354 0.929 . S
C1362 C1363 1.377 . S
C1362 C1364 1.384 . S
C1363 C1362 1.377 . S
C1363 C1369 1.390 . S
C1364 H1355 0.930 . S
C1364 C1362 1.384 . S
C1364 C1365 1.372 . S
C1365 C1364 1.372 . S
C1365 C1366 1.400 . S
C1365 C1370 1.490 . S
C1366 H1356 0.930 . S
C1366 C1365 1.400 . S
C1366 C1369 1.386 . S
H1367 C1383 0.930 . S
H1368 C1384 0.931 . S
C1369 H1357 0.929 . S
C1369 C1363 1.390 . S
C1369 C1366 1.386 . S
C1370 C1365 1.490 . S
C1370 C1372 1.395 . S
C1370 C1373 1.403 . S
H1371 C1377 0.930 . S
C1372 H1358 0.930 . S
C1372 C1370 1.395 . S
C1372 C1375 1.403 . S
C1373 C1370 1.403 . S
C1373 C1374 1.524 . S
C1373 C1377 1.400 . S
C1374 H1359 0.960 . S
C1374 H1360 0.960 . S
C1374 H1361 0.960 . S
C1374 C1373 1.524 . S
C1375 C1372 1.403 . S
C1375 C1376 1.392 . S
C1375 C1379 1.495 . S
C1376 C1375 1.392 . S
C1376 C1377 1.385 . S
C1376 C1378 1.478 . S
C1377 H1371 0.930 . S
C1377 C1373 1.400 . S
C1377 C1376 1.385 . S
C1378 C1376 1.478 . S
C1378 C1380 1.381 . S
C1378 C1384 1.383 . S
C1379 C1375 1.495 . S
C1379 H1385 0.959 . S
C1379 H1386 0.961 . S
C1379 H1387 0.960 . S
C1380 C1378 1.381 . S
C1380 C1381 1.394 . S
C1380 H1388 0.930 . S
C1381 C1380 1.394 . S
C1381 C1382 1.383 . S
C1381 H1389 0.929 . S
C1382 C1381 1.383 . S
C1382 C1383 1.377 . S
C1383 H1367 0.930 . S
C1383 C1382 1.377 . S
C1383 C1384 1.379 . S
C1384 H1368 0.931 . S
C1384 C1378 1.383 . S
C1384 C1383 1.379 . S
H1385 C1379 0.959 . S
H1386 C1379 0.961 . S
H1387 C1379 0.960 . S
H1388 C1380 0.930 . S
H1389 C1381 0.929 . S
H1390 C1398 0.929 . S
H1391 C1400 0.930 . S
H1392 C1402 0.930 . S
H1393 C1405 0.929 . S
H1394 C1408 0.930 . S
H1395 C1410 0.960 . S
H1396 C1410 0.960 . S
H1397 C1410 0.960 . S
C1398 H1390 0.929 . S
C1398 C1399 1.377 . S
C1398 C1400 1.384 . S
C1399 C1398 1.377 . S
C1399 C1405 1.390 . S
C1400 H1391 0.930 . S
C1400 C1398 1.384 . S
C1400 C1401 1.372 . S
C1401 C1400 1.372 . S
C1401 C1402 1.400 . S
C1401 C1406 1.490 . S
C1402 H1392 0.930 . S
C1402 C1401 1.400 . S
C1402 C1405 1.386 . S
H1403 C1419 0.930 . S
H1404 C1420 0.931 . S
C1405 H1393 0.929 . S
C1405 C1399 1.390 . S
C1405 C1402 1.386 . S
C1406 C1401 1.490 . S
C1406 C1408 1.395 . S
C1406 C1409 1.403 . S
H1407 C1413 0.930 . S
C1408 H1394 0.930 . S
C1408 C1406 1.395 . S
C1408 C1411 1.403 . S
C1409 C1406 1.403 . S
C1409 C1410 1.524 . S
C1409 C1413 1.400 . S
C1410 H1395 0.960 . S
C1410 H1396 0.960 . S
C1410 H1397 0.960 . S
C1410 C1409 1.524 . S
C1411 C1408 1.403 . S
C1411 C1412 1.392 . S
C1411 C1415 1.495 . S
C1412 C1411 1.392 . S
C1412 C1413 1.385 . S
C1412 C1414 1.478 . S
C1413 H1407 0.930 . S
C1413 C1409 1.400 . S
C1413 C1412 1.385 . S
C1414 C1412 1.478 . S
C1414 C1416 1.381 . S
C1414 C1420 1.383 . S
C1415 C1411 1.495 . S
C1415 H1421 0.959 . S
C1415 H1422 0.961 . S
C1415 H1423 0.960 . S
C1416 C1414 1.381 . S
C1416 C1417 1.394 . S
C1416 H1424 0.930 . S
C1417 C1416 1.394 . S
C1417 C1418 1.383 . S
C1417 H1425 0.929 . S
C1418 C1417 1.383 . S
C1418 C1419 1.377 . S
C1419 H1403 0.930 . S
C1419 C1418 1.377 . S
C1419 C1420 1.379 . S
C1420 H1404 0.931 . S
C1420 C1414 1.383 . S
C1420 C1419 1.379 . S
H1421 C1415 0.959 . S
H1422 C1415 0.961 . S
H1423 C1415 0.960 . S
H1424 C1416 0.930 . S
H1425 C1417 0.929 . S
H1426 C1434 0.929 . S
H1427 C1436 0.930 . S
H1428 C1438 0.930 . S
H1429 C1441 0.929 . S
H1430 C1444 0.930 . S
H1431 C1446 0.960 . S
H1432 C1446 0.960 . S
H1433 C1446 0.960 . S
C1434 H1426 0.929 . S
C1434 C1435 1.377 . S
C1434 C1436 1.384 . S
C1435 C1434 1.377 . S
C1435 C1441 1.390 . S
C1436 H1427 0.930 . S
C1436 C1434 1.384 . S
C1436 C1437 1.372 . S
C1437 C1436 1.372 . S
C1437 C1438 1.400 . S
C1437 C1442 1.490 . S
C1438 H1428 0.930 . S
C1438 C1437 1.400 . S
C1438 C1441 1.386 . S
H1439 C1455 0.930 . S
H1440 C1456 0.931 . S
C1441 H1429 0.929 . S
C1441 C1435 1.390 . S
C1441 C1438 1.386 . S
C1442 C1437 1.490 . S
C1442 C1444 1.395 . S
C1442 C1445 1.403 . S
H1443 C1449 0.930 . S
C1444 H1430 0.930 . S
C1444 C1442 1.395 . S
C1444 C1447 1.403 . S
C1445 C1442 1.403 . S
C1445 C1446 1.524 . S
C1445 C1449 1.400 . S
C1446 H1431 0.960 . S
C1446 H1432 0.960 . S
C1446 H1433 0.960 . S
C1446 C1445 1.524 . S
C1447 C1444 1.403 . S
C1447 C1448 1.392 . S
C1447 C1451 1.495 . S
C1448 C1447 1.392 . S
C1448 C1449 1.385 . S
C1448 C1450 1.478 . S
C1449 H1443 0.930 . S
C1449 C1445 1.400 . S
C1449 C1448 1.385 . S
C1450 C1448 1.478 . S
C1450 C1452 1.381 . S
C1450 C1456 1.383 . S
C1451 C1447 1.495 . S
C1451 H1457 0.959 . S
C1451 H1458 0.961 . S
C1451 H1459 0.960 . S
C1452 C1450 1.381 . S
C1452 C1453 1.394 . S
C1452 H1460 0.930 . S
C1453 C1452 1.394 . S
C1453 C1454 1.383 . S
C1453 H1461 0.929 . S
C1454 C1453 1.383 . S
C1454 C1455 1.377 . S
C1455 H1439 0.930 . S
C1455 C1454 1.377 . S
C1455 C1456 1.379 . S
C1456 H1440 0.931 . S
C1456 C1450 1.383 . S
C1456 C1455 1.379 . S
H1457 C1451 0.959 . S
H1458 C1451 0.961 . S
H1459 C1451 0.960 . S
H1460 C1452 0.930 . S
H1461 C1453 0.929 . S
H1462 C1470 0.929 . S
H1463 C1472 0.930 . S
H1464 C1474 0.930 . S
H1465 C1477 0.929 . S
H1466 C1480 0.930 . S
H1467 C1482 0.960 . S
H1468 C1482 0.960 . S
H1469 C1482 0.960 . S
C1470 H1462 0.929 . S
C1470 C1471 1.377 . S
C1470 C1472 1.384 . S
C1471 C1470 1.377 . S
C1471 C1477 1.390 . S
C1472 H1463 0.930 . S
C1472 C1470 1.384 . S
C1472 C1473 1.372 . S
C1473 C1472 1.372 . S
C1473 C1474 1.400 . S
C1473 C1478 1.490 . S
C1474 H1464 0.930 . S
C1474 C1473 1.400 . S
C1474 C1477 1.386 . S
H1475 C1491 0.930 . S
H1476 C1492 0.931 . S
C1477 H1465 0.929 . S
C1477 C1471 1.390 . S
C1477 C1474 1.386 . S
C1478 C1473 1.490 . S
C1478 C1480 1.395 . S
C1478 C1481 1.403 . S
H1479 C1485 0.930 . S
C1480 H1466 0.930 . S
C1480 C1478 1.395 . S
C1480 C1483 1.403 . S
C1481 C1478 1.403 . S
C1481 C1482 1.524 . S
C1481 C1485 1.400 . S
C1482 H1467 0.960 . S
C1482 H1468 0.960 . S
C1482 H1469 0.960 . S
C1482 C1481 1.524 . S
C1483 C1480 1.403 . S
C1483 C1484 1.392 . S
C1483 C1487 1.495 . S
C1484 C1483 1.392 . S
C1484 C1485 1.385 . S
C1484 C1486 1.478 . S
C1485 H1479 0.930 . S
C1485 C1481 1.400 . S
C1485 C1484 1.385 . S
C1486 C1484 1.478 . S
C1486 C1488 1.381 . S
C1486 C1492 1.383 . S
C1487 C1483 1.495 . S
C1487 H1493 0.959 . S
C1487 H1494 0.961 . S
C1487 H1495 0.960 . S
C1488 C1486 1.381 . S
C1488 C1489 1.394 . S
C1488 H1496 0.930 . S
C1489 C1488 1.394 . S
C1489 C1490 1.383 . S
C1489 H1497 0.929 . S
C1490 C1489 1.383 . S
C1490 C1491 1.377 . S
C1491 H1475 0.930 . S
C1491 C1490 1.377 . S
C1491 C1492 1.379 . S
C1492 H1476 0.931 . S
C1492 C1486 1.383 . S
C1492 C1491 1.379 . S
H1493 C1487 0.959 . S
H1494 C1487 0.961 . S
H1495 C1487 0.960 . S
H1496 C1488 0.930 . S
H1497 C1489 0.929 . S
H1498 C1506 0.929 . S
H1499 C1508 0.930 . S
H1500 C1510 0.930 . S
H1501 C1513 0.929 . S
H1502 C1516 0.930 . S
H1503 C1518 0.960 . S
H1504 C1518 0.960 . S
H1505 C1518 0.960 . S
C1506 H1498 0.929 . S
C1506 C1507 1.377 . S
C1506 C1508 1.384 . S
C1507 C1506 1.377 . S
C1507 C1513 1.390 . S
C1508 H1499 0.930 . S
C1508 C1506 1.384 . S
C1508 C1509 1.372 . S
C1509 C1508 1.372 . S
C1509 C1510 1.400 . S
C1509 C1514 1.490 . S
C1510 H1500 0.930 . S
C1510 C1509 1.400 . S
C1510 C1513 1.386 . S
H1511 C1527 0.930 . S
H1512 C1528 0.931 . S
C1513 H1501 0.929 . S
C1513 C1507 1.390 . S
C1513 C1510 1.386 . S
C1514 C1509 1.490 . S
C1514 C1516 1.395 . S
C1514 C1517 1.403 . S
H1515 C1521 0.930 . S
C1516 H1502 0.930 . S
C1516 C1514 1.395 . S
C1516 C1519 1.403 . S
C1517 C1514 1.403 . S
C1517 C1518 1.524 . S
C1517 C1521 1.400 . S
C1518 H1503 0.960 . S
C1518 H1504 0.960 . S
C1518 H1505 0.960 . S
C1518 C1517 1.524 . S
C1519 C1516 1.403 . S
C1519 C1520 1.392 . S
C1519 C1523 1.495 . S
C1520 C1519 1.392 . S
C1520 C1521 1.385 . S
C1520 C1522 1.478 . S
C1521 H1515 0.930 . S
C1521 C1517 1.400 . S
C1521 C1520 1.385 . S
C1522 C1520 1.478 . S
C1522 C1524 1.381 . S
C1522 C1528 1.383 . S
C1523 C1519 1.495 . S
C1523 H1529 0.959 . S
C1523 H1530 0.961 . S
C1523 H1531 0.960 . S
C1524 C1522 1.381 . S
C1524 C1525 1.394 . S
C1524 H1532 0.930 . S
C1525 C1524 1.394 . S
C1525 C1526 1.383 . S
C1525 H1533 0.929 . S
C1526 C1525 1.383 . S
C1526 C1527 1.377 . S
C1527 H1511 0.930 . S
C1527 C1526 1.377 . S
C1527 C1528 1.379 . S
C1528 H1512 0.931 . S
C1528 C1522 1.383 . S
C1528 C1527 1.379 . S
H1529 C1523 0.959 . S
H1530 C1523 0.961 . S
H1531 C1523 0.960 . S
H1532 C1524 0.930 . S
H1533 C1525 0.929 . S
H1534 C1542 0.929 . S
H1535 C1544 0.930 . S
H1536 C1546 0.930 . S
H1537 C1549 0.929 . S
H1538 C1552 0.930 . S
H1539 C1554 0.960 . S
H1540 C1554 0.960 . S
H1541 C1554 0.960 . S
C1542 H1534 0.929 . S
C1542 C1543 1.377 . S
C1542 C1544 1.384 . S
C1543 C1542 1.377 . S
C1543 C1549 1.390 . S
C1544 H1535 0.930 . S
C1544 C1542 1.384 . S
C1544 C1545 1.372 . S
C1545 C1544 1.372 . S
C1545 C1546 1.400 . S
C1545 C1550 1.490 . S
C1546 H1536 0.930 . S
C1546 C1545 1.400 . S
C1546 C1549 1.386 . S
H1547 C1563 0.930 . S
H1548 C1564 0.931 . S
C1549 H1537 0.929 . S
C1549 C1543 1.390 . S
C1549 C1546 1.386 . S
C1550 C1545 1.490 . S
C1550 C1552 1.395 . S
C1550 C1553 1.403 . S
H1551 C1557 0.930 . S
C1552 H1538 0.930 . S
C1552 C1550 1.395 . S
C1552 C1555 1.403 . S
C1553 C1550 1.403 . S
C1553 C1554 1.524 . S
C1553 C1557 1.400 . S
C1554 H1539 0.960 . S
C1554 H1540 0.960 . S
C1554 H1541 0.960 . S
C1554 C1553 1.524 . S
C1555 C1552 1.403 . S
C1555 C1556 1.392 . S
C1555 C1559 1.495 . S
C1556 C1555 1.392 . S
C1556 C1557 1.385 . S
C1556 C1558 1.478 . S
C1557 H1551 0.930 . S
C1557 C1553 1.400 . S
C1557 C1556 1.385 . S
C1558 C1556 1.478 . S
C1558 C1560 1.381 . S
C1558 C1564 1.383 . S
C1559 C1555 1.495 . S
C1559 H1565 0.959 . S
C1559 H1566 0.961 . S
C1559 H1567 0.960 . S
C1560 C1558 1.381 . S
C1560 C1561 1.394 . S
C1560 H1568 0.930 . S
C1561 C1560 1.394 . S
C1561 C1562 1.383 . S
C1561 H1569 0.929 . S
C1562 C1561 1.383 . S
C1562 C1563 1.377 . S
C1563 H1547 0.930 . S
C1563 C1562 1.377 . S
C1563 C1564 1.379 . S
C1564 H1548 0.931 . S
C1564 C1558 1.383 . S
C1564 C1563 1.379 . S
H1565 C1559 0.959 . S
H1566 C1559 0.961 . S
H1567 C1559 0.960 . S
H1568 C1560 0.930 . S
H1569 C1561 0.929 . S
H1570 C1578 0.929 . S
H1571 C1580 0.930 . S
H1572 C1582 0.930 . S
H1573 C1585 0.929 . S
H1574 C1588 0.930 . S
H1575 C1590 0.960 . S
H1576 C1590 0.960 . S
H1577 C1590 0.960 . S
C1578 H1570 0.929 . S
C1578 C1579 1.377 . S
C1578 C1580 1.384 . S
C1579 C1578 1.377 . S
C1579 C1585 1.390 . S
C1580 H1571 0.930 . S
C1580 C1578 1.384 . S
C1580 C1581 1.372 . S
C1581 C1580 1.372 . S
C1581 C1582 1.400 . S
C1581 C1586 1.490 . S
C1582 H1572 0.930 . S
C1582 C1581 1.400 . S
C1582 C1585 1.386 . S
H1583 C1599 0.930 . S
H1584 C1600 0.931 . S
C1585 H1573 0.929 . S
C1585 C1579 1.390 . S
C1585 C1582 1.386 . S
C1586 C1581 1.490 . S
C1586 C1588 1.395 . S
C1586 C1589 1.403 . S
H1587 C1593 0.930 . S
C1588 H1574 0.930 . S
C1588 C1586 1.395 . S
C1588 C1591 1.403 . S
C1589 C1586 1.403 . S
C1589 C1590 1.524 . S
C1589 C1593 1.400 . S
C1590 H1575 0.960 . S
C1590 H1576 0.960 . S
C1590 H1577 0.960 . S
C1590 C1589 1.524 . S
C1591 C1588 1.403 . S
C1591 C1592 1.392 . S
C1591 C1595 1.495 . S
C1592 C1591 1.392 . S
C1592 C1593 1.385 . S
C1592 C1594 1.478 . S
C1593 H1587 0.930 . S
C1593 C1589 1.400 . S
C1593 C1592 1.385 . S
C1594 C1592 1.478 . S
C1594 C1596 1.381 . S
C1594 C1600 1.383 . S
C1595 C1591 1.495 . S
C1595 H1601 0.959 . S
C1595 H1602 0.961 . S
C1595 H1603 0.960 . S
C1596 C1594 1.381 . S
C1596 C1597 1.394 . S
C1596 H1604 0.930 . S
C1597 C1596 1.394 . S
C1597 C1598 1.383 . S
C1597 H1605 0.929 . S
C1598 C1597 1.383 . S
C1598 C1599 1.377 . S
C1599 H1583 0.930 . S
C1599 C1598 1.377 . S
C1599 C1600 1.379 . S
C1600 H1584 0.931 . S
C1600 C1594 1.383 . S
C1600 C1599 1.379 . S
H1601 C1595 0.959 . S
H1602 C1595 0.961 . S
H1603 C1595 0.960 . S
H1604 C1596 0.930 . S
H1605 C1597 0.929 . S
H1606 C1614 0.929 . S
H1607 C1616 0.930 . S
H1608 C1618 0.930 . S
H1609 C1621 0.929 . S
H1610 C1624 0.930 . S
H1611 C1626 0.960 . S
H1612 C1626 0.960 . S
H1613 C1626 0.960 . S
C1614 H1606 0.929 . S
C1614 C1615 1.377 . S
C1614 C1616 1.384 . S
C1615 C1614 1.377 . S
C1615 C1621 1.390 . S
C1616 H1607 0.930 . S
C1616 C1614 1.384 . S
C1616 C1617 1.372 . S
C1617 C1616 1.372 . S
C1617 C1618 1.400 . S
C1617 C1622 1.490 . S
C1618 H1608 0.930 . S
C1618 C1617 1.400 . S
C1618 C1621 1.386 . S
H1619 C1635 0.930 . S
H1620 C1636 0.931 . S
C1621 H1609 0.929 . S
C1621 C1615 1.390 . S
C1621 C1618 1.386 . S
C1622 C1617 1.490 . S
C1622 C1624 1.395 . S
C1622 C1625 1.403 . S
H1623 C1629 0.930 . S
C1624 H1610 0.930 . S
C1624 C1622 1.395 . S
C1624 C1627 1.403 . S
C1625 C1622 1.403 . S
C1625 C1626 1.524 . S
C1625 C1629 1.400 . S
C1626 H1611 0.960 . S
C1626 H1612 0.960 . S
C1626 H1613 0.960 . S
C1626 C1625 1.524 . S
C1627 C1624 1.403 . S
C1627 C1628 1.392 . S
C1627 C1631 1.495 . S
C1628 C1627 1.392 . S
C1628 C1629 1.385 . S
C1628 C1630 1.478 . S
C1629 H1623 0.930 . S
C1629 C1625 1.400 . S
C1629 C1628 1.385 . S
C1630 C1628 1.478 . S
C1630 C1632 1.381 . S
C1630 C1636 1.383 . S
C1631 C1627 1.495 . S
C1631 H1637 0.959 . S
C1631 H1638 0.961 . S
C1631 H1639 0.960 . S
C1632 C1630 1.381 . S
C1632 C1633 1.394 . S
C1632 H1640 0.930 . S
C1633 C1632 1.394 . S
C1633 C1634 1.383 . S
C1633 H1641 0.929 . S
C1634 C1633 1.383 . S
C1634 C1635 1.377 . S
C1635 H1619 0.930 . S
C1635 C1634 1.377 . S
C1635 C1636 1.379 . S
C1636 H1620 0.931 . S
C1636 C1630 1.383 . S
C1636 C1635 1.379 . S
H1637 C1631 0.959 . S
H1638 C1631 0.961 . S
H1639 C1631 0.960 . S
H1640 C1632 0.930 . S
H1641 C1633 0.929 . S
H1642 C1650 0.929 . S
H1643 C1652 0.930 . S
H1644 C1654 0.930 . S
H1645 C1657 0.929 . S
H1646 C1660 0.930 . S
H1647 C1662 0.960 . S
H1648 C1662 0.960 . S
H1649 C1662 0.960 . S
C1650 H1642 0.929 . S
C1650 C1651 1.377 . S
C1650 C1652 1.384 . S
C1651 C1650 1.377 . S
C1651 C1657 1.390 . S
C1652 H1643 0.930 . S
C1652 C1650 1.384 . S
C1652 C1653 1.372 . S
C1653 C1652 1.372 . S
C1653 C1654 1.400 . S
C1653 C1658 1.490 . S
C1654 H1644 0.930 . S
C1654 C1653 1.400 . S
C1654 C1657 1.386 . S
H1655 C1671 0.930 . S
H1656 C1672 0.931 . S
C1657 H1645 0.929 . S
C1657 C1651 1.390 . S
C1657 C1654 1.386 . S
C1658 C1653 1.490 . S
C1658 C1660 1.395 . S
C1658 C1661 1.403 . S
H1659 C1665 0.930 . S
C1660 H1646 0.930 . S
C1660 C1658 1.395 . S
C1660 C1663 1.403 . S
C1661 C1658 1.403 . S
C1661 C1662 1.524 . S
C1661 C1665 1.400 . S
C1662 H1647 0.960 . S
C1662 H1648 0.960 . S
C1662 H1649 0.960 . S
C1662 C1661 1.524 . S
C1663 C1660 1.403 . S
C1663 C1664 1.392 . S
C1663 C1667 1.495 . S
C1664 C1663 1.392 . S
C1664 C1665 1.385 . S
C1664 C1666 1.478 . S
C1665 H1659 0.930 . S
C1665 C1661 1.400 . S
C1665 C1664 1.385 . S
C1666 C1664 1.478 . S
C1666 C1668 1.381 . S
C1666 C1672 1.383 . S
C1667 C1663 1.495 . S
C1667 H1673 0.959 . S
C1667 H1674 0.961 . S
C1667 H1675 0.960 . S
C1668 C1666 1.381 . S
C1668 C1669 1.394 . S
C1668 H1676 0.930 . S
C1669 C1668 1.394 . S
C1669 C1670 1.383 . S
C1669 H1677 0.929 . S
C1670 C1669 1.383 . S
C1670 C1671 1.377 . S
C1671 H1655 0.930 . S
C1671 C1670 1.377 . S
C1671 C1672 1.379 . S
C1672 H1656 0.931 . S
C1672 C1666 1.383 . S
C1672 C1671 1.379 . S
H1673 C1667 0.959 . S
H1674 C1667 0.961 . S
H1675 C1667 0.960 . S
H1676 C1668 0.930 . S
H1677 C1669 0.929 . S
H1678 C1686 0.929 . S
H1679 C1688 0.930 . S
H1680 C1690 0.930 . S
H1681 C1693 0.929 . S
H1682 C1696 0.930 . S
H1683 C1698 0.960 . S
H1684 C1698 0.960 . S
H1685 C1698 0.960 . S
C1686 H1678 0.929 . S
C1686 C1687 1.377 . S
C1686 C1688 1.384 . S
C1687 C1686 1.377 . S
C1687 C1693 1.390 . S
C1688 H1679 0.930 . S
C1688 C1686 1.384 . S
C1688 C1689 1.372 . S
C1689 C1688 1.372 . S
C1689 C1690 1.400 . S
C1689 C1694 1.490 . S
C1690 H1680 0.930 . S
C1690 C1689 1.400 . S
C1690 C1693 1.386 . S
H1691 C1707 0.930 . S
H1692 C1708 0.931 . S
C1693 H1681 0.929 . S
C1693 C1687 1.390 . S
C1693 C1690 1.386 . S
C1694 C1689 1.490 . S
C1694 C1696 1.395 . S
C1694 C1697 1.403 . S
H1695 C1701 0.930 . S
C1696 H1682 0.930 . S
C1696 C1694 1.395 . S
C1696 C1699 1.403 . S
C1697 C1694 1.403 . S
C1697 C1698 1.524 . S
C1697 C1701 1.400 . S
C1698 H1683 0.960 . S
C1698 H1684 0.960 . S
C1698 H1685 0.960 . S
C1698 C1697 1.524 . S
C1699 C1696 1.403 . S
C1699 C1700 1.392 . S
C1699 C1703 1.495 . S
C1700 C1699 1.392 . S
C1700 C1701 1.385 . S
C1700 C1702 1.478 . S
C1701 H1695 0.930 . S
C1701 C1697 1.400 . S
C1701 C1700 1.385 . S
C1702 C1700 1.478 . S
C1702 C1704 1.381 . S
C1702 C1708 1.383 . S
C1703 C1699 1.495 . S
C1703 H1709 0.959 . S
C1703 H1710 0.961 . S
C1703 H1711 0.960 . S
C1704 C1702 1.381 . S
C1704 C1705 1.394 . S
C1704 H1712 0.930 . S
C1705 C1704 1.394 . S
C1705 C1706 1.383 . S
C1705 H1713 0.929 . S
C1706 C1705 1.383 . S
C1706 C1707 1.377 . S
C1707 H1691 0.930 . S
C1707 C1706 1.377 . S
C1707 C1708 1.379 . S
C1708 H1692 0.931 . S
C1708 C1702 1.383 . S
C1708 C1707 1.379 . S
H1709 C1703 0.959 . S
H1710 C1703 0.961 . S
H1711 C1703 0.960 . S
H1712 C1704 0.930 . S
H1713 C1705 0.929 . S
H1714 C1722 0.929 . S
H1715 C1724 0.930 . S
H1716 C1726 0.930 . S
H1717 C1729 0.929 . S
H1718 C1732 0.930 . S
H1719 C1734 0.960 . S
H1720 C1734 0.960 . S
H1721 C1734 0.960 . S
C1722 H1714 0.929 . S
C1722 C1723 1.377 . S
C1722 C1724 1.384 . S
C1723 C1722 1.377 . S
C1723 C1729 1.390 . S
C1724 H1715 0.930 . S
C1724 C1722 1.384 . S
C1724 C1725 1.372 . S
C1725 C1724 1.372 . S
C1725 C1726 1.400 . S
C1725 C1730 1.490 . S
C1726 H1716 0.930 . S
C1726 C1725 1.400 . S
C1726 C1729 1.386 . S
H1727 C1743 0.930 . S
H1728 C1744 0.931 . S
C1729 H1717 0.929 . S
C1729 C1723 1.390 . S
C1729 C1726 1.386 . S
C1730 C1725 1.490 . S
C1730 C1732 1.395 . S
C1730 C1733 1.403 . S
H1731 C1737 0.930 . S
C1732 H1718 0.930 . S
C1732 C1730 1.395 . S
C1732 C1735 1.403 . S
C1733 C1730 1.403 . S
C1733 C1734 1.524 . S
C1733 C1737 1.400 . S
C1734 H1719 0.960 . S
C1734 H1720 0.960 . S
C1734 H1721 0.960 . S
C1734 C1733 1.524 . S
C1735 C1732 1.403 . S
C1735 C1736 1.392 . S
C1735 C1739 1.495 . S
C1736 C1735 1.392 . S
C1736 C1737 1.385 . S
C1736 C1738 1.478 . S
C1737 H1731 0.930 . S
C1737 C1733 1.400 . S
C1737 C1736 1.385 . S
C1738 C1736 1.478 . S
C1738 C1740 1.381 . S
C1738 C1744 1.383 . S
C1739 C1735 1.495 . S
C1739 H1745 0.959 . S
C1739 H1746 0.961 . S
C1739 H1747 0.960 . S
C1740 C1738 1.381 . S
C1740 C1741 1.394 . S
C1740 H1748 0.930 . S
C1741 C1740 1.394 . S
C1741 C1742 1.383 . S
C1741 H1749 0.929 . S
C1742 C1741 1.383 . S
C1742 C1743 1.377 . S
C1743 H1727 0.930 . S
C1743 C1742 1.377 . S
C1743 C1744 1.379 . S
C1744 H1728 0.931 . S
C1744 C1738 1.383 . S
C1744 C1743 1.379 . S
H1745 C1739 0.959 . S
H1746 C1739 0.961 . S
H1747 C1739 0.960 . S
H1748 C1740 0.930 . S
H1749 C1741 0.929 . S
H1750 C1758 0.929 . S
H1751 C1760 0.930 . S
H1752 C1762 0.930 . S
H1753 C1765 0.929 . S
H1754 C1768 0.930 . S
H1755 C1770 0.960 . S
H1756 C1770 0.960 . S
H1757 C1770 0.960 . S
C1758 H1750 0.929 . S
C1758 C1759 1.377 . S
C1758 C1760 1.384 . S
C1759 C1758 1.377 . S
C1759 C1765 1.390 . S
C1760 H1751 0.930 . S
C1760 C1758 1.384 . S
C1760 C1761 1.372 . S
C1761 C1760 1.372 . S
C1761 C1762 1.400 . S
C1761 C1766 1.490 . S
C1762 H1752 0.930 . S
C1762 C1761 1.400 . S
C1762 C1765 1.386 . S
H1763 C1779 0.930 . S
H1764 C1780 0.931 . S
C1765 H1753 0.929 . S
C1765 C1759 1.390 . S
C1765 C1762 1.386 . S
C1766 C1761 1.490 . S
C1766 C1768 1.395 . S
C1766 C1769 1.403 . S
H1767 C1773 0.930 . S
C1768 H1754 0.930 . S
C1768 C1766 1.395 . S
C1768 C1771 1.403 . S
C1769 C1766 1.403 . S
C1769 C1770 1.524 . S
C1769 C1773 1.400 . S
C1770 H1755 0.960 . S
C1770 H1756 0.960 . S
C1770 H1757 0.960 . S
C1770 C1769 1.524 . S
C1771 C1768 1.403 . S
C1771 C1772 1.392 . S
C1771 C1775 1.495 . S
C1772 C1771 1.392 . S
C1772 C1773 1.385 . S
C1772 C1774 1.478 . S
C1773 H1767 0.930 . S
C1773 C1769 1.400 . S
C1773 C1772 1.385 . S
C1774 C1772 1.478 . S
C1774 C1776 1.381 . S
C1774 C1780 1.383 . S
C1775 C1771 1.495 . S
C1775 H1781 0.959 . S
C1775 H1782 0.961 . S
C1775 H1783 0.960 . S
C1776 C1774 1.381 . S
C1776 C1777 1.394 . S
C1776 H1784 0.930 . S
C1777 C1776 1.394 . S
C1777 C1778 1.383 . S
C1777 H1785 0.929 . S
C1778 C1777 1.383 . S
C1778 C1779 1.377 . S
C1779 H1763 0.930 . S
C1779 C1778 1.377 . S
C1779 C1780 1.379 . S
C1780 H1764 0.931 . S
C1780 C1774 1.383 . S
C1780 C1779 1.379 . S
H1781 C1775 0.959 . S
H1782 C1775 0.961 . S
H1783 C1775 0.960 . S
H1784 C1776 0.930 . S
H1785 C1777 0.929 . S
H1786 C1794 0.929 . S
H1787 C1796 0.930 . S
H1788 C1798 0.930 . S
H1789 C1801 0.929 . S
H1790 C1804 0.930 . S
H1791 C1806 0.960 . S
H1792 C1806 0.960 . S
H1793 C1806 0.960 . S
C1794 H1786 0.929 . S
C1794 C1795 1.377 . S
C1794 C1796 1.384 . S
C1795 C1794 1.377 . S
C1795 C1801 1.390 . S
C1796 H1787 0.930 . S
C1796 C1794 1.384 . S
C1796 C1797 1.372 . S
C1797 C1796 1.372 . S
C1797 C1798 1.400 . S
C1797 C1802 1.490 . S
C1798 H1788 0.930 . S
C1798 C1797 1.400 . S
C1798 C1801 1.386 . S
H1799 C1815 0.930 . S
H1800 C1816 0.931 . S
C1801 H1789 0.929 . S
C1801 C1795 1.390 . S
C1801 C1798 1.386 . S
C1802 C1797 1.490 . S
C1802 C1804 1.395 . S
C1802 C1805 1.403 . S
H1803 C1809 0.930 . S
C1804 H1790 0.930 . S
C1804 C1802 1.395 . S
C1804 C1807 1.403 . S
C1805 C1802 1.403 . S
C1805 C1806 1.524 . S
C1805 C1809 1.400 . S
C1806 H1791 0.960 . S
C1806 H1792 0.960 . S
C1806 H1793 0.960 . S
C1806 C1805 1.524 . S
C1807 C1804 1.403 . S
C1807 C1808 1.392 . S
C1807 C1811 1.495 . S
C1808 C1807 1.392 . S
C1808 C1809 1.385 . S
C1808 C1810 1.478 . S
C1809 H1803 0.930 . S
C1809 C1805 1.400 . S
C1809 C1808 1.385 . S
C1810 C1808 1.478 . S
C1810 C1812 1.381 . S
C1810 C1816 1.383 . S
C1811 C1807 1.495 . S
C1811 H1817 0.959 . S
C1811 H1818 0.961 . S
C1811 H1819 0.960 . S
C1812 C1810 1.381 . S
C1812 C1813 1.394 . S
C1812 H1820 0.930 . S
C1813 C1812 1.394 . S
C1813 C1814 1.383 . S
C1813 H1821 0.929 . S
C1814 C1813 1.383 . S
C1814 C1815 1.377 . S
C1815 H1799 0.930 . S
C1815 C1814 1.377 . S
C1815 C1816 1.379 . S
C1816 H1800 0.931 . S
C1816 C1810 1.383 . S
C1816 C1815 1.379 . S
H1817 C1811 0.959 . S
H1818 C1811 0.961 . S
H1819 C1811 0.960 . S
H1820 C1812 0.930 . S
H1821 C1813 0.929 . S
H1822 C1830 0.929 . S
H1823 C1832 0.930 . S
H1824 C1834 0.930 . S
H1825 C1837 0.929 . S
H1826 C1840 0.930 . S
H1827 C1842 0.960 . S
H1828 C1842 0.960 . S
H1829 C1842 0.960 . S
C1830 H1822 0.929 . S
C1830 C1831 1.377 . S
C1830 C1832 1.384 . S
C1831 C1830 1.377 . S
C1831 C1837 1.390 . S
C1832 H1823 0.930 . S
C1832 C1830 1.384 . S
C1832 C1833 1.372 . S
C1833 C1832 1.372 . S
C1833 C1834 1.400 . S
C1833 C1838 1.490 . S
C1834 H1824 0.930 . S
C1834 C1833 1.400 . S
C1834 C1837 1.386 . S
H1835 C1851 0.930 . S
H1836 C1852 0.931 . S
C1837 H1825 0.929 . S
C1837 C1831 1.390 . S
C1837 C1834 1.386 . S
C1838 C1833 1.490 . S
C1838 C1840 1.395 . S
C1838 C1841 1.403 . S
H1839 C1845 0.930 . S
C1840 H1826 0.930 . S
C1840 C1838 1.395 . S
C1840 C1843 1.403 . S
C1841 C1838 1.403 . S
C1841 C1842 1.524 . S
C1841 C1845 1.400 . S
C1842 H1827 0.960 . S
C1842 H1828 0.960 . S
C1842 H1829 0.960 . S
C1842 C1841 1.524 . S
C1843 C1840 1.403 . S
C1843 C1844 1.392 . S
C1843 C1847 1.495 . S
C1844 C1843 1.392 . S
C1844 C1845 1.385 . S
C1844 C1846 1.478 . S
C1845 H1839 0.930 . S
C1845 C1841 1.400 . S
C1845 C1844 1.385 . S
C1846 C1844 1.478 . S
C1846 C1848 1.381 . S
C1846 C1852 1.383 . S
C1847 C1843 1.495 . S
C1847 H1853 0.959 . S
C1847 H1854 0.961 . S
C1847 H1855 0.960 . S
C1848 C1846 1.381 . S
C1848 C1849 1.394 . S
C1848 H1856 0.930 . S
C1849 C1848 1.394 . S
C1849 C1850 1.383 . S
C1849 H1857 0.929 . S
C1850 C1849 1.383 . S
C1850 C1851 1.377 . S
C1851 H1835 0.930 . S
C1851 C1850 1.377 . S
C1851 C1852 1.379 . S
C1852 H1836 0.931 . S
C1852 C1846 1.383 . S
C1852 C1851 1.379 . S
H1853 C1847 0.959 . S
H1854 C1847 0.961 . S
H1855 C1847 0.960 . S
H1856 C1848 0.930 . S
H1857 C1849 0.929 . S
H1858 C1866 0.929 . S
H1859 C1868 0.930 . S
H1860 C1870 0.930 . S
H1861 C1873 0.929 . S
H1862 C1876 0.930 . S
H1863 C1878 0.960 . S
H1864 C1878 0.960 . S
H1865 C1878 0.960 . S
C1866 H1858 0.929 . S
C1866 C1867 1.377 . S
C1866 C1868 1.384 . S
C1867 C1866 1.377 . S
C1867 C1873 1.390 . S
C1868 H1859 0.930 . S
C1868 C1866 1.384 . S
C1868 C1869 1.372 . S
C1869 C1868 1.372 . S
C1869 C1870 1.400 . S
C1869 C1874 1.490 . S
C1870 H1860 0.930 . S
C1870 C1869 1.400 . S
C1870 C1873 1.386 . S
H1871 C1887 0.930 . S
H1872 C1888 0.931 . S
C1873 H1861 0.929 . S
C1873 C1867 1.390 . S
C1873 C1870 1.386 . S
C1874 C1869 1.490 . S
C1874 C1876 1.395 . S
C1874 C1877 1.403 . S
H1875 C1881 0.930 . S
C1876 H1862 0.930 . S
C1876 C1874 1.395 . S
C1876 C1879 1.403 . S
C1877 C1874 1.403 . S
C1877 C1878 1.524 . S
C1877 C1881 1.400 . S
C1878 H1863 0.960 . S
C1878 H1864 0.960 . S
C1878 H1865 0.960 . S
C1878 C1877 1.524 . S
C1879 C1876 1.403 . S
C1879 C1880 1.392 . S
C1879 C1883 1.495 . S
C1880 C1879 1.392 . S
C1880 C1881 1.385 . S
C1880 C1882 1.478 . S
C1881 H1875 0.930 . S
C1881 C1877 1.400 . S
C1881 C1880 1.385 . S
C1882 C1880 1.478 . S
C1882 C1884 1.381 . S
C1882 C1888 1.383 . S
C1883 C1879 1.495 . S
C1883 H1889 0.959 . S
C1883 H1890 0.961 . S
C1883 H1891 0.960 . S
C1884 C1882 1.381 . S
C1884 C1885 1.394 . S
C1884 H1892 0.930 . S
C1885 C1884 1.394 . S
C1885 C1886 1.383 . S
C1885 H1893 0.929 . S
C1886 C1885 1.383 . S
C1886 C1887 1.377 . S
C1887 H1871 0.930 . S
C1887 C1886 1.377 . S
C1887 C1888 1.379 . S
C1888 H1872 0.931 . S
C1888 C1882 1.383 . S
C1888 C1887 1.379 . S
H1889 C1883 0.959 . S
H1890 C1883 0.961 . S
H1891 C1883 0.960 . S
H1892 C1884 0.930 . S
H1893 C1885 0.929 . S
H1894 C1902 0.929 . S
H1895 C1904 0.930 . S
H1896 C1906 0.930 . S
H1897 C1909 0.929 . S
H1898 C1912 0.930 . S
H1899 C1914 0.960 . S
H1900 C1914 0.960 . S
H1901 C1914 0.960 . S
C1902 H1894 0.929 . S
C1902 C1903 1.377 . S
C1902 C1904 1.384 . S
C1903 C1902 1.377 . S
C1903 C1909 1.390 . S
C1904 H1895 0.930 . S
C1904 C1902 1.384 . S
C1904 C1905 1.372 . S
C1905 C1904 1.372 . S
C1905 C1906 1.400 . S
C1905 C1910 1.490 . S
C1906 H1896 0.930 . S
C1906 C1905 1.400 . S
C1906 C1909 1.386 . S
H1907 C1923 0.930 . S
H1908 C1924 0.931 . S
C1909 H1897 0.929 . S
C1909 C1903 1.390 . S
C1909 C1906 1.386 . S
C1910 C1905 1.490 . S
C1910 C1912 1.395 . S
C1910 C1913 1.403 . S
H1911 C1917 0.930 . S
C1912 H1898 0.930 . S
C1912 C1910 1.395 . S
C1912 C1915 1.403 . S
C1913 C1910 1.403 . S
C1913 C1914 1.524 . S
C1913 C1917 1.400 . S
C1914 H1899 0.960 . S
C1914 H1900 0.960 . S
C1914 H1901 0.960 . S
C1914 C1913 1.524 . S
C1915 C1912 1.403 . S
C1915 C1916 1.392 . S
C1915 C1919 1.495 . S
C1916 C1915 1.392 . S
C1916 C1917 1.385 . S
C1916 C1918 1.478 . S
C1917 H1911 0.930 . S
C1917 C1913 1.400 . S
C1917 C1916 1.385 . S
C1918 C1916 1.478 . S
C1918 C1920 1.381 . S
C1918 C1924 1.383 . S
C1919 C1915 1.495 . S
C1919 H1925 0.959 . S
C1919 H1926 0.961 . S
C1919 H1927 0.960 . S
C1920 C1918 1.381 . S
C1920 C1921 1.394 . S
C1920 H1928 0.930 . S
C1921 C1920 1.394 . S
C1921 C1922 1.383 . S
C1921 H1929 0.929 . S
C1922 C1921 1.383 . S
C1922 C1923 1.377 . S
C1923 H1907 0.930 . S
C1923 C1922 1.377 . S
C1923 C1924 1.379 . S
C1924 H1908 0.931 . S
C1924 C1918 1.383 . S
C1924 C1923 1.379 . S
H1925 C1919 0.959 . S
H1926 C1919 0.961 . S
H1927 C1919 0.960 . S
H1928 C1920 0.930 . S
H1929 C1921 0.929 . S
H1930 C1938 0.929 . S
H1931 C1940 0.930 . S
H1932 C1942 0.930 . S
H1933 C1945 0.929 . S
H1934 C1948 0.930 . S
H1935 C1950 0.960 . S
H1936 C1950 0.960 . S
H1937 C1950 0.960 . S
C1938 H1930 0.929 . S
C1938 C1939 1.377 . S
C1938 C1940 1.384 . S
C1939 C1938 1.377 . S
C1939 C1945 1.390 . S
C1940 H1931 0.930 . S
C1940 C1938 1.384 . S
C1940 C1941 1.372 . S
C1941 C1940 1.372 . S
C1941 C1942 1.400 . S
C1941 C1946 1.490 . S
C1942 H1932 0.930 . S
C1942 C1941 1.400 . S
C1942 C1945 1.386 . S
H1943 C1959 0.930 . S
H1944 C1960 0.931 . S
C1945 H1933 0.929 . S
C1945 C1939 1.390 . S
C1945 C1942 1.386 . S
C1946 C1941 1.490 . S
C1946 C1948 1.395 . S
C1946 C1949 1.403 . S
H1947 C1953 0.930 . S
C1948 H1934 0.930 . S
C1948 C1946 1.395 . S
C1948 C1951 1.403 . S
C1949 C1946 1.403 . S
C1949 C1950 1.524 . S
C1949 C1953 1.400 . S
C1950 H1935 0.960 . S
C1950 H1936 0.960 . S
C1950 H1937 0.960 . S
C1950 C1949 1.524 . S
C1951 C1948 1.403 . S
C1951 C1952 1.392 . S
C1951 C1955 1.495 . S
C1952 C1951 1.392 . S
C1952 C1953 1.385 . S
C1952 C1954 1.478 . S
C1953 H1947 0.930 . S
C1953 C1949 1.400 . S
C1953 C1952 1.385 . S
C1954 C1952 1.478 . S
C1954 C1956 1.381 . S
C1954 C1960 1.383 . S
C1955 C1951 1.495 . S
C1955 H1961 0.959 . S
C1955 H1962 0.961 . S
C1955 H1963 0.960 . S
C1956 C1954 1.381 . S
C1956 C1957 1.394 . S
C1956 H1964 0.930 . S
C1957 C1956 1.394 . S
C1957 C1958 1.383 . S
C1957 H1965 0.929 . S
C1958 C1957 1.383 . S
C1958 C1959 1.377 . S
C1959 H1943 0.930 . S
C1959 C1958 1.377 . S
C1959 C1960 1.379 . S
C1960 H1944 0.931 . S
C1960 C1954 1.383 . S
C1960 C1959 1.379 . S
H1961 C1955 0.959 . S
H1962 C1955 0.961 . S
H1963 C1955 0.960 . S
H1964 C1956 0.930 . S
H1965 C1957 0.929 . S
H1966 C1974 0.929 . S
H1967 C1976 0.930 . S
H1968 C1978 0.930 . S
H1969 C1981 0.929 . S
H1970 C1984 0.930 . S
H1971 C1986 0.960 . S
H1972 C1986 0.960 . S
H1973 C1986 0.960 . S
C1974 H1966 0.929 . S
C1974 C1975 1.377 . S
C1974 C1976 1.384 . S
C1975 C1974 1.377 . S
C1975 C1981 1.390 . S
C1976 H1967 0.930 . S
C1976 C1974 1.384 . S
C1976 C1977 1.372 . S
C1977 C1976 1.372 . S
C1977 C1978 1.400 . S
C1977 C1982 1.490 . S
C1978 H1968 0.930 . S
C1978 C1977 1.400 . S
C1978 C1981 1.386 . S
H1979 C1995 0.930 . S
H1980 C1996 0.931 . S
C1981 H1969 0.929 . S
C1981 C1975 1.390 . S
C1981 C1978 1.386 . S
C1982 C1977 1.490 . S
C1982 C1984 1.395 . S
C1982 C1985 1.403 . S
H1983 C1989 0.930 . S
C1984 H1970 0.930 . S
C1984 C1982 1.395 . S
C1984 C1987 1.403 . S
C1985 C1982 1.403 . S
C1985 C1986 1.524 . S
C1985 C1989 1.400 . S
C1986 H1971 0.960 . S
C1986 H1972 0.960 . S
C1986 H1973 0.960 . S
C1986 C1985 1.524 . S
C1987 C1984 1.403 . S
C1987 C1988 1.392 . S
C1987 C1991 1.495 . S
C1988 C1987 1.392 . S
C1988 C1989 1.385 . S
C1988 C1990 1.478 . S
C1989 H1983 0.930 . S
C1989 C1985 1.400 . S
C1989 C1988 1.385 . S
C1990 C1988 1.478 . S
C1990 C1992 1.381 . S
C1990 C1996 1.383 . S
C1991 C1987 1.495 . S
C1991 H1997 0.959 . S
C1991 H1998 0.961 . S
C1991 H1999 0.960 . S
C1992 C1990 1.381 . S
C1992 C1993 1.394 . S
C1992 H2000 0.930 . S
C1993 C1992 1.394 . S
C1993 C1994 1.383 . S
C1993 H2001 0.929 . S
C1994 C1993 1.383 . S
C1994 C1995 1.377 . S
C1995 H1979 0.930 . S
C1995 C1994 1.377 . S
C1995 C1996 1.379 . S
C1996 H1980 0.931 . S
C1996 C1990 1.383 . S
C1996 C1995 1.379 . S
H1997 C1991 0.959 . S
H1998 C1991 0.961 . S
H1999 C1991 0.960 . S
H2000 C1992 0.930 . S
H2001 C1993 0.929 . S
H2002 C2010 0.929 . S
H2003 C2012 0.930 . S
H2004 C2014 0.930 . S
H2005 C2017 0.929 . S
H2006 C2020 0.930 . S
H2007 C2022 0.960 . S
H2008 C2022 0.960 . S
H2009 C2022 0.960 . S
C2010 H2002 0.929 . S
C2010 C2011 1.377 . S
C2010 C2012 1.384 . S
C2011 C2010 1.377 . S
C2011 C2017 1.390 . S
C2012 H2003 0.930 . S
C2012 C2010 1.384 . S
C2012 C2013 1.372 . S
C2013 C2012 1.372 . S
C2013 C2014 1.400 . S
C2013 C2018 1.490 . S
C2014 H2004 0.930 . S
C2014 C2013 1.400 . S
C2014 C2017 1.386 . S
H2015 C2031 0.930 . S
H2016 C2032 0.931 . S
C2017 H2005 0.929 . S
C2017 C2011 1.390 . S
C2017 C2014 1.386 . S
C2018 C2013 1.490 . S
C2018 C2020 1.395 . S
C2018 C2021 1.403 . S
H2019 C2025 0.930 . S
C2020 H2006 0.930 . S
C2020 C2018 1.395 . S
C2020 C2023 1.403 . S
C2021 C2018 1.403 . S
C2021 C2022 1.524 . S
C2021 C2025 1.400 . S
C2022 H2007 0.960 . S
C2022 H2008 0.960 . S
C2022 H2009 0.960 . S
C2022 C2021 1.524 . S
C2023 C2020 1.403 . S
C2023 C2024 1.392 . S
C2023 C2027 1.495 . S
C2024 C2023 1.392 . S
C2024 C2025 1.385 . S
C2024 C2026 1.478 . S
C2025 H2019 0.930 . S
C2025 C2021 1.400 . S
C2025 C2024 1.385 . S
C2026 C2024 1.478 . S
C2026 C2028 1.381 . S
C2026 C2032 1.383 . S
C2027 C2023 1.495 . S
C2027 H2033 0.959 . S
C2027 H2034 0.961 . S
C2027 H2035 0.960 . S
C2028 C2026 1.381 . S
C2028 C2029 1.394 . S
C2028 H2036 0.930 . S
C2029 C2028 1.394 . S
C2029 C2030 1.383 . S
C2029 H2037 0.929 . S
C2030 C2029 1.383 . S
C2030 C2031 1.377 . S
C2031 H2015 0.930 . S
C2031 C2030 1.377 . S
C2031 C2032 1.379 . S
C2032 H2016 0.931 . S
C2032 C2026 1.383 . S
C2032 C2031 1.379 . S
H2033 C2027 0.959 . S
H2034 C2027 0.961 . S
H2035 C2027 0.960 . S
H2036 C2028 0.930 . S
H2037 C2029 0.929 . S
H2038 C2046 0.929 . S
H2039 C2048 0.930 . S
H2040 C2050 0.930 . S
H2041 C2053 0.929 . S
H2042 C2056 0.930 . S
H2043 C2058 0.960 . S
H2044 C2058 0.960 . S
H2045 C2058 0.960 . S
C2046 H2038 0.929 . S
C2046 C2047 1.377 . S
C2046 C2048 1.384 . S
C2047 C2046 1.377 . S
C2047 C2053 1.390 . S
C2048 H2039 0.930 . S
C2048 C2046 1.384 . S
C2048 C2049 1.372 . S
C2049 C2048 1.372 . S
C2049 C2050 1.400 . S
C2049 C2054 1.490 . S
C2050 H2040 0.930 . S
C2050 C2049 1.400 . S
C2050 C2053 1.386 . S
H2051 C2067 0.930 . S
H2052 C2068 0.931 . S
C2053 H2041 0.929 . S
C2053 C2047 1.390 . S
C2053 C2050 1.386 . S
C2054 C2049 1.490 . S
C2054 C2056 1.395 . S
C2054 C2057 1.403 . S
H2055 C2061 0.930 . S
C2056 H2042 0.930 . S
C2056 C2054 1.395 . S
C2056 C2059 1.403 . S
C2057 C2054 1.403 . S
C2057 C2058 1.524 . S
C2057 C2061 1.400 . S
C2058 H2043 0.960 . S
C2058 H2044 0.960 . S
C2058 H2045 0.960 . S
C2058 C2057 1.524 . S
C2059 C2056 1.403 . S
C2059 C2060 1.392 . S
C2059 C2063 1.495 . S
C2060 C2059 1.392 . S
C2060 C2061 1.385 . S
C2060 C2062 1.478 . S
C2061 H2055 0.930 . S
C2061 C2057 1.400 . S
C2061 C2060 1.385 . S
C2062 C2060 1.478 . S
C2062 C2064 1.381 . S
C2062 C2068 1.383 . S
C2063 C2059 1.495 . S
C2063 H2069 0.959 . S
C2063 H2070 0.961 . S
C2063 H2071 0.960 . S
C2064 C2062 1.381 . S
C2064 C2065 1.394 . S
C2064 H2072 0.930 . S
C2065 C2064 1.394 . S
C2065 C2066 1.383 . S
C2065 H2073 0.929 . S
C2066 C2065 1.383 . S
C2066 C2067 1.377 . S
C2067 H2051 0.930 . S
C2067 C2066 1.377 . S
C2067 C2068 1.379 . S
C2068 H2052 0.931 . S
C2068 C2062 1.383 . S
C2068 C2067 1.379 . S
H2069 C2063 0.959 . S
H2070 C2063 0.961 . S
H2071 C2063 0.960 . S
H2072 C2064 0.930 . S
H2073 C2065 0.929 . S
C374 C171 1.467 . S
C355 C9 1.504 . S
C410 C161 1.402 . S
C391 C22 1.413 . S
C446 C162 0.601 . S
C427 C49 0.657 . S
C463 C61 1.335 . S
C482 C184 1.297 . S
C499 C81 1.413 . S
C518 C187 1.419 . S
C554 C170 0.684 . S
C535 C108 0.644 . S
C571 C122 1.341 . S
C590 C160 1.316 . S
C607 C148 1.507 . S
C626 C178 1.468 . S
C662 C191 2.183 . S
C643 C18 2.195 . S
C679 C39 1.372 . S
C698 C240 1.326 . S
C734 C218 2.283 . S
C715 C58 2.268 . S
C770 C232 0.590 . S
C751 C69 0.629 . S
C787 C89 0.624 . S
C806 C193 0.628 . S
C842 C246 1.315 . S
C823 C102 1.366 . S
C859 C139 1.377 . S
C878 C202 1.368 . S
C895 C142 1.429 . S
C914 C223 1.433 . S
C931 C1 1.429 . S
C950 C249 1.383 . S
C967 C98 1.375 . S
C986 C233 1.321 . S
C1022 C192 2.264 . S
C1003 C119 2.267 . S
C1058 C224 0.676 . S
C1039 C128 0.628 . S
C1075 C159 2.194 . S
C1094 C215 2.186 . S
C1111 C41 1.367 . S
C1130 C222 1.320 . S
C1166 C209 1.357 . S
C1147 C78 1.369 . S
C1183 C28 0.623 . S
C1202 C201 0.623 . S
C1219 C149 1.510 . S
C1238 C264 1.452 . S
C1255 C82 1.407 . S
C1274 C254 1.374 . S
C1310 C255 0.697 . S
C1291 C109 0.646 . S
C1346 C277 1.284 . S
C1327 C121 1.342 . S
C1363 C21 1.411 . S
C1382 C280 1.375 . S
C1418 C263 0.708 . S
C1399 C48 0.653 . S
C1435 C62 1.336 . S
C1454 C253 1.307 . S
C1471 C8 1.510 . S
C1490 C271 1.491 . S
C1507 C158 2.198 . S
C1526 C284 2.190 . S
C1562 C333 1.372 . S
C1543 C99 1.375 . S
C1579 C118 2.268 . S
C1598 C311 2.279 . S
C1615 C129 0.635 . S
C1634 C325 0.619 . S
C1670 C286 0.685 . S
C1651 C29 0.638 . S
C1687 C42 1.368 . S
C1706 C339 1.300 . S
C1742 C295 1.320 . S
C1723 C79 1.371 . S
C1778 C316 1.390 . S
C1759 C2 1.428 . S
C1814 C342 1.421 . S
C1795 C141 1.435 . S
C1831 C38 1.381 . S
C1850 C326 1.367 . S
C1867 C59 2.271 . S
C1886 C285 2.291 . S
C1922 C317 0.614 . S
C1903 C68 0.636 . S
C1939 C19 2.193 . S
C1958 C308 2.210 . S
C1975 C101 1.365 . S
C1994 C315 1.358 . S
C2030 C302 1.338 . S
C2011 C138 1.381 . S
C2066 C294 0.696 . S
C2047 C88 0.630 . S
