# Generated by pormake.
# Topology zzz, (3,6)-cn, num edge types: 1
# Building blocks:
#     Node 0, Type 0, BuildingBlock: OLANEW_clean_sbu_2, # of connection points: 3
#     Node 1, Type 0, BuildingBlock: OLANEW_clean_sbu_2, # of connection points: 3
#     Node 2, Type 0, BuildingBlock: OLANEW_clean_sbu_2, # of connection points: 3
#     Node 3, Type 0, BuildingBlock: OLANEW_clean_sbu_2, # of connection points: 3
#     Node 4, Type 0, BuildingBlock: OLANEW_clean_sbu_2, # of connection points: 3
#     Node 5, Type 0, BuildingBlock: OLANEW_clean_sbu_2, # of connection points: 3
#     Node 6, Type 0, BuildingBlock: OLANEW_clean_sbu_2, # of connection points: 3
#     Node 7, Type 0, BuildingBlock: OLANEW_clean_sbu_2, # of connection points: 3
#     Node 8, Type 1, BuildingBlock: BETFAJ_clean_sbu_0, # of connection points: 6
#     Node 9, Type 1, BuildingBlock: BETFAJ_clean_sbu_0, # of connection points: 6
#     Node 10, Type 1, BuildingBlock: BETFAJ_clean_sbu_0, # of connection points: 6
#     Node 11, Type 1, BuildingBlock: BETFAJ_clean_sbu_0, # of connection points: 6
#     Edge 12, Type (0, 1), BuildingBlock: CIFDUS_clean_linker_0, # of connection points: 2
#     Edge 13, Type (0, 1), BuildingBlock: CIFDUS_clean_linker_0, # of connection points: 2
#     Edge 14, Type (0, 1), BuildingBlock: CIFDUS_clean_linker_0, # of connection points: 2
#     Edge 15, Type (0, 1), BuildingBlock: CIFDUS_clean_linker_0, # of connection points: 2
#     Edge 16, Type (0, 1), BuildingBlock: CIFDUS_clean_linker_0, # of connection points: 2
#     Edge 17, Type (0, 1), BuildingBlock: CIFDUS_clean_linker_0, # of connection points: 2
#     Edge 18, Type (0, 1), BuildingBlock: CIFDUS_clean_linker_0, # of connection points: 2
#     Edge 19, Type (0, 1), BuildingBlock: CIFDUS_clean_linker_0, # of connection points: 2
#     Edge 20, Type (0, 1), BuildingBlock: CIFDUS_clean_linker_0, # of connection points: 2
#     Edge 21, Type (0, 1), BuildingBlock: CIFDUS_clean_linker_0, # of connection points: 2
#     Edge 22, Type (0, 1), BuildingBlock: CIFDUS_clean_linker_0, # of connection points: 2
#     Edge 23, Type (0, 1), BuildingBlock: CIFDUS_clean_linker_0, # of connection points: 2
#     Edge 24, Type (0, 1), BuildingBlock: CIFDUS_clean_linker_0, # of connection points: 2
#     Edge 25, Type (0, 1), BuildingBlock: CIFDUS_clean_linker_0, # of connection points: 2
#     Edge 26, Type (0, 1), BuildingBlock: CIFDUS_clean_linker_0, # of connection points: 2
#     Edge 27, Type (0, 1), BuildingBlock: CIFDUS_clean_linker_0, # of connection points: 2
#     Edge 28, Type (0, 1), BuildingBlock: CIFDUS_clean_linker_0, # of connection points: 2
#     Edge 29, Type (0, 1), BuildingBlock: CIFDUS_clean_linker_0, # of connection points: 2
#     Edge 30, Type (0, 1), BuildingBlock: CIFDUS_clean_linker_0, # of connection points: 2
#     Edge 31, Type (0, 1), BuildingBlock: CIFDUS_clean_linker_0, # of connection points: 2
#     Edge 32, Type (0, 1), BuildingBlock: CIFDUS_clean_linker_0, # of connection points: 2
#     Edge 33, Type (0, 1), BuildingBlock: CIFDUS_clean_linker_0, # of connection points: 2
#     Edge 34, Type (0, 1), BuildingBlock: CIFDUS_clean_linker_0, # of connection points: 2
#     Edge 35, Type (0, 1), BuildingBlock: CIFDUS_clean_linker_0, # of connection points: 2
# Relax obj value: 0.273
# Max RMSD: 0.198
# Mean RMSD: 0.174
data_MOF--net-zzz--node1-OLANEW_clean_sbu_2--node2-BETFAJ_clean_sbu_0--edge1-CIFDUS_clean_linker_0
_symmetry_space_group_name_H-M    P1
_symmetry_Int_Tables_number       1
_symmetry_cell_setting            triclinic
loop_
_symmetry_equiv_pos_as_xyz
'x, y, z'
_cell_length_a     50.162468
_cell_length_b     50.273965
_cell_length_c     13.462007
_cell_angle_alpha  89.63226
_cell_angle_beta   89.666078
_cell_angle_gamma 90.021711
loop_
_atom_site_label
_atom_site_type_symbol
_atom_site_fract_x
_atom_site_fract_y
_atom_site_fract_z
_atom_type_partial_charge
O0 O 0.72289 0.53721 0.30503 0.0
Cd1 Cd 0.67738 0.54427 0.36479 0.0
O2 O 0.72057 0.49556 0.35284 0.0
Cd3 Cd 0.7401 0.45868 0.39534 0.0
O4 O 0.78017 0.45609 0.45264 0.0
C5 C 0.78405 0.4661 0.53767 0.0
O6 O 0.76351 0.47438 0.58997 0.0
C7 C 0.73384 0.51456 0.31378 0.0
C8 C 0.64162 0.53768 0.21011 0.0
O9 O 0.65355 0.5599 0.22375 0.0
O10 O 0.64624 0.51854 0.27092 0.0
O11 O 0.9913 0.71853 0.25583 0.0
Cd12 Cd 0.9789 0.67609 0.33229 0.0
O13 O 0.00999 0.72544 0.39907 0.0
Cd14 Cd 0.02497 0.75082 0.51546 0.0
O15 O 0.02204 0.79066 0.57246 0.0
C16 C 0.01101 0.79572 0.65521 0.0
O17 O 0.00299 0.77606 0.71279 0.0
C18 C 0.00386 0.73401 0.31301 0.0
C19 C 0.98465 0.63419 0.2013 0.0
O20 O 0.96355 0.64856 0.2019 0.0
O21 O 0.00312 0.63955 0.26346 0.0
O22 O 0.75323 0.98478 0.29837 0.0
Cd23 Cd 0.79712 0.97105 0.35927 0.0
O24 O 0.74093 0.99101 0.45226 0.0
Cd25 Cd 0.71883 0.003 0.58543 0.0
O26 O 0.72689 0.01521 0.74622 0.0
C27 C 0.71169 0.01273 0.82257 0.0
O28 O 0.72778 0.01562 0.74693 0.0
C29 C 0.73518 0.99127 0.36035 0.0
C30 C 0.83914 0.98383 0.23045 0.0
O31 O 0.82543 0.96255 0.21922 0.0
O32 O 0.83285 -0.00072 0.30224 0.0
O33 O 0.5261 0.76171 0.28341 0.0
Cd34 Cd 0.54463 0.80405 0.3379 0.0
O35 O 0.5232 0.74769 0.43729 0.0
Cd36 Cd 0.51044 0.72282 0.56265 0.0
O37 O 0.49585 0.72655 0.72317 0.0
C38 C 0.49881 0.71014 0.79547 0.0
O39 O 0.49536 0.72738 0.72404 0.0
C40 C 0.51966 0.74361 0.34527 0.0
C41 C 0.53948 0.84188 0.18708 0.0
O42 O 0.56 0.82676 0.19199 0.0
O43 O 0.52151 0.83938 0.25461 0.0
O44 O 0.2671 0.53512 0.12609 0.0
Cd45 Cd 0.31176 0.53297 0.05518 0.0
O46 O 0.26599 0.49434 0.07091 0.0
Cd47 Cd 0.24341 0.45937 0.02825 0.0
O48 O 0.20449 0.45238 0.96483 0.0
C49 C 0.1998 0.46444 0.88361 0.0
O50 O 0.21909 0.47807 0.84067 0.0
C51 C 0.25459 0.51336 0.11637 0.0
C52 C 0.34706 0.51999 0.2057 0.0
O53 O 0.34453 0.54408 0.17546 0.0
O54 O 0.3333 0.50189 0.16334 0.0
O55 O 0.98402 0.27268 0.0655 0.0
Cd56 Cd 0.9992 0.31619 0.00809 0.0
O57 O 0.02354 0.27029 0.13391 0.0
Cd58 Cd 0.05425 0.24484 0.19853 0.0
O59 O 0.05731 0.20234 0.17177 0.0
C60 C 0.0518 0.19645 0.08259 0.0
O61 O 0.04807 0.21588 0.01836 0.0
C62 C 0.00086 0.25992 0.11722 0.0
C63 C 0.99504 0.35262 0.16183 0.0
O64 O 0.9769 0.35096 0.09548 0.0
O65 O 0.01535 0.33728 0.15476 0.0
O66 O 0.23962 0.99478 0.20241 0.0
Cd67 Cd 0.1943 0.00886 0.15965 0.0
O68 O 0.24962 0.01721 0.06823 0.0
Cd69 Cd 0.27311 0.03794 0.95472 0.0
O70 O 0.27619 0.06356 0.82377 0.0
C71 C 0.29566 0.06535 0.76331 0.0
O72 O 0.29305 0.08039 0.68379 0.0
C73 C 0.25726 0.00328 0.14187 0.0
C74 C 0.15546 0.00208 0.3068 0.0
O75 O 0.15903 0.98451 0.23943 0.0
O76 O 0.1707 0.02256 0.30604 0.0
O77 O 0.54486 0.23191 0.18987 0.0
Cd78 Cd 0.54611 0.18699 0.12206 0.0
O79 O 0.51119 0.2345 0.08857 0.0
Cd80 Cd 0.48149 0.25523 0.00029 0.0
O81 O 0.4679 0.28903 0.91424 0.0
C82 C 0.47773 0.29348 0.82853 0.0
O83 O 0.4942 0.276 0.78987 0.0
C84 C 0.52613 0.24557 0.1523 0.0
C85 C 0.53832 0.14765 0.26522 0.0
O86 O 0.56181 0.15373 0.23475 0.0
O87 O 0.51847 0.16029 0.22848 0.0
Sm88 Sm 0.00776 0.99551 0.88 0.0
Sm89 Sm 0.98969 0.0145 0.67504 0.0
C90 C 0.01263 0.96882 0.04911 0.0
C91 C 0.00968 0.94044 0.07852 0.0
C92 C 0.98434 0.92903 0.09318 0.0
C93 C 0.98173 0.90199 0.11642 0.0
C94 C 0.00436 0.88563 0.12553 0.0
C95 C 0.02971 0.89717 0.11243 0.0
C96 C 0.03233 0.92425 0.08964 0.0
C97 C 0.04819 0.00546 0.74656 0.0
C98 C 0.99206 0.95172 0.70834 0.0
C99 C 0.98325 0.03839 0.50066 0.0
C100 C 0.98685 0.0653 0.45838 0.0
C101 C 0.0094 0.08063 0.48081 0.0
C102 C 0.01201 0.10645 0.44293 0.0
C103 C 0.99196 0.11766 0.38295 0.0
C104 C 0.96958 0.10206 0.35966 0.0
C105 C 0.9671 0.07612 0.39691 0.0
C106 C 0.94929 0.00221 0.80523 0.0
C107 C 0.00875 0.05793 0.84643 0.0
O108 O 0.99091 0.98166 0.02432 0.0
O109 O 0.03289 0.97468 0.9914 0.0
O110 O 0.0266 0.99386 0.72775 0.0
O111 O 0.04969 0.01163 0.83999 0.0
O112 O 0.99268 0.95748 0.80381 0.0
O113 O 0.99396 0.9704 0.63944 0.0
O114 O 0.00486 0.02534 0.52507 0.0
O115 O 0.96401 0.03562 0.56585 0.0
O116 O 0.97009 0.01502 0.82669 0.0
O117 O 0.94879 0.99615 0.71162 0.0
O118 O 0.00629 0.05234 0.75084 0.0
O119 O 0.00633 0.03949 0.91591 0.0
H120 H 0.96643 0.9409 0.08605 0.0
H121 H 0.96191 0.89396 0.12786 0.0
H122 H 0.04758 0.88518 0.11783 0.0
H123 H 0.05214 0.93244 0.07929 0.0
H124 H 0.02493 0.07278 0.52829 0.0
H125 H 0.02976 0.11764 0.46096 0.0
H126 H 0.9536 0.1101 0.31481 0.0
H127 H 0.94951 0.06464 0.37898 0.0
Sm128 Sm 0.4998 0.00828 0.84544 0.0
Sm129 Sm 0.499 0.98765 0.62904 0.0
C130 C 0.5105 0.01343 0.03712 0.0
C131 C 0.53468 0.00911 0.09664 0.0
C132 C 0.55528 0.99303 0.05971 0.0
C133 C 0.57929 0.99078 0.11081 0.0
C134 C 0.583 0.0042 0.20078 0.0
C135 C 0.56197 0.01938 0.24026 0.0
C136 C 0.538 0.02201 0.18793 0.0
C137 C 0.49956 0.04678 0.70066 0.0
C138 C 0.55639 0.9954 0.72203 0.0
C139 C 0.48599 0.98023 0.44169 0.0
C140 C 0.45937 0.9769 0.39723 0.0
C141 C 0.45158 0.99315 0.31736 0.0
C142 C 0.42491 0.9938 0.28717 0.0
C143 C 0.40557 0.97817 0.33643 0.0
C144 C 0.41381 0.96081 0.41259 0.0
C145 C 0.44033 0.96031 0.44311 0.0
C146 C 0.50079 0.94939 0.77432 0.0
C147 C 0.44251 0.00613 0.74332 0.0
O148 O 0.49972 0.99209 0.99925 0.0
O149 O 0.51162 0.03325 0.97378 0.0
O150 O 0.51267 0.02549 0.69891 0.0
O151 O 0.48665 0.04938 0.78421 0.0
O152 O 0.54359 0.99569 0.80863 0.0
O153 O 0.54346 0.99598 0.63699 0.0
O154 O 0.49056 0.00382 0.47849 0.0
O155 O 0.49435 0.96093 0.49949 0.0
O156 O 0.48665 0.97009 0.77635 0.0
O157 O 0.51378 0.94748 0.69081 0.0
O158 O 0.45578 0.00104 0.66046 0.0
O159 O 0.45444 0.00727 0.83035 0.0
H160 H 0.55294 0.98246 0.99061 0.0
H161 H 0.59505 0.97861 0.07985 0.0
H162 H 0.56441 0.02982 0.30974 0.0
H163 H 0.52229 0.03445 0.2178 0.0
H164 H 0.46587 0.0063 0.28158 0.0
H165 H 0.41924 0.00754 0.22873 0.0
H166 H 0.39957 0.94813 0.45087 0.0
H167 H 0.44564 0.94774 0.50557 0.0
Sm168 Sm 0.48268 0.50892 0.81397 0.0
Sm169 Sm 0.51039 0.4963 0.61429 0.0
C170 C 0.47042 0.52631 0.99399 0.0
C171 C 0.47504 0.55096 0.04928 0.0
C172 C 0.48096 0.57467 0.99841 0.0
C173 C 0.48627 0.59788 0.05091 0.0
C174 C 0.48582 0.59787 0.15545 0.0
C175 C 0.47978 0.57403 0.20624 0.0
C176 C 0.4744 0.55075 0.15342 0.0
C177 C 0.45092 0.51087 0.64867 0.0
C178 C 0.51212 0.55677 0.68601 0.0
C179 C 0.52235 0.47742 0.43639 0.0
C180 C 0.52431 0.45035 0.39481 0.0
C181 C 0.50637 0.43028 0.42437 0.0
C182 C 0.50932 0.4043 0.38951 0.0
C183 C 0.53029 0.39778 0.32428 0.0
C184 C 0.54801 0.41801 0.2937 0.0
C185 C 0.54503 0.44404 0.32866 0.0
C186 C 0.54307 0.49674 0.77582 0.0
C187 C 0.47931 0.44857 0.7454 0.0
O188 O 0.49166 0.51209 0.97495 0.0
O189 O 0.45431 0.52813 0.91813 0.0
O190 O 0.4742 0.5197 0.6551 0.0
O191 O 0.44271 0.50106 0.73306 0.0
O192 O 0.50697 0.54666 0.77501 0.0
O193 O 0.51081 0.54199 0.60519 0.0
O194 O 0.49843 0.48558 0.46128 0.0
O195 O 0.54047 0.48374 0.50173 0.0
O196 O 0.52002 0.48672 0.7738 0.0
O197 O 0.55024 0.50579 0.689 0.0
O198 O 0.48941 0.45669 0.65928 0.0
O199 O 0.47706 0.46443 0.82229 0.0
H200 H 0.48166 0.57521 0.91802 0.0
H201 H 0.49118 0.61575 0.00947 0.0
H202 H 0.47905 0.57341 0.28665 0.0
H203 H 0.46988 0.53258 0.19385 0.0
H204 H 0.49024 0.43455 0.47559 0.0
H205 H 0.49554 0.38918 0.41569 0.0
H206 H 0.5642 0.41373 0.24269 0.0
H207 H 0.5591 0.45919 0.3049 0.0
Sm208 Sm 0.98096 0.47446 0.80369 0.0
Sm209 Sm 0.00129 0.4978 0.60306 0.0
C210 C 0.95642 0.46634 0.97627 0.0
C211 C 0.92964 0.46994 0.02007 0.0
C212 C 0.91377 0.492 0.99516 0.0
C213 C 0.88839 0.495 0.03742 0.0
C214 C 0.87831 0.47586 0.10442 0.0
C215 C 0.89426 0.45382 0.12911 0.0
C216 C 0.91973 0.45096 0.08758 0.0
C217 C 0.99152 0.4382 0.65732 0.0
C218 C 0.938 0.49288 0.63175 0.0
C219 C 0.02492 0.50764 0.42999 0.0
C220 C 0.05209 0.51168 0.391 0.0
C221 C 0.07416 0.50065 0.43963 0.0
C222 C 0.09986 0.50436 0.40127 0.0
C223 C 0.10395 0.51912 0.31328 0.0
C224 C 0.08173 0.53035 0.26531 0.0
C225 C 0.05603 0.52665 0.30395 0.0
C226 C 0.98954 0.5342 0.74668 0.0
C227 C 0.04437 0.47594 0.77329 0.0
O228 O 0.96989 0.48797 0.9548 0.0
O229 O 0.95882 0.44793 0.90852 0.0
O230 O 0.98028 0.4603 0.64629 0.0
O231 O 0.99679 0.43353 0.75036 0.0
O232 O 0.94294 0.49092 0.72806 0.0
O233 O 0.95739 0.49236 0.5651 0.0
O234 O 0.01913 0.48366 0.46198 0.0
O235 O 0.01548 0.52635 0.48737 0.0
O236 O 0.00158 0.51254 0.76046 0.0
O237 O 0.98419 0.53803 0.65337 0.0
O238 O 0.03984 0.48257 0.67938 0.0
O239 O 0.02507 0.47407 0.83988 0.0
H240 H 0.92091 0.50683 0.94264 0.0
H241 H 0.87642 0.512 0.01604 0.0
H242 H 0.88707 0.43885 0.18097 0.0
H243 H 0.93167 0.43384 0.10791 0.0
H244 H 0.07151 0.48907 0.50697 0.0
H245 H 0.11654 0.49578 0.44093 0.0
H246 H 0.08415 0.54159 0.19696 0.0
H247 H 0.03919 0.53531 0.26543 0.0
H248 H 0.14963 0.0289 0.48057 0.0
H249 H 0.11252 0.96895 0.2995 0.0
H250 H 0.07567 0.96539 0.41815 0.0
H251 H 0.05385 0.97941 0.57279 0.0
H252 H 0.09186 0.03748 0.75906 0.0
H253 H 0.12848 0.04182 0.63871 0.0
C254 C 0.13349 0.01503 0.46722 0.0
C255 C 0.13379 -0.00074 0.38122 0.0
C256 C 0.11252 0.01282 0.53647 0.0
C257 C 0.11284 0.98124 0.36529 0.0
C258 C 0.0917 0.97925 0.43291 0.0
C259 C 0.07015 0.99305 0.58686 0.0
C260 C 0.07021 0.0082 0.67423 0.0
C261 C 0.09131 0.99498 0.51855 0.0
C262 C 0.09149 0.02561 0.69222 0.0
C263 C 0.11238 0.02808 0.62349 0.0
H264 H 0.49705 0.14251 0.39543 0.0
H265 H 0.57068 0.10554 0.30308 0.0
H266 H 0.56442 0.07046 0.42741 0.0
H267 H 0.53852 0.05075 0.56334 0.0
H268 H 0.46658 0.089 0.66561 0.0
H269 H 0.47156 0.12322 0.53593 0.0
C270 C 0.51163 0.12669 0.40245 0.0
C271 C 0.53426 0.12652 0.34028 0.0
C272 C 0.5082 0.10692 0.47565 0.0
C273 C 0.55318 0.10613 0.35055 0.0
C274 C 0.54958 0.08604 0.4213 0.0
C275 C 0.52388 0.06655 0.55707 0.0
C276 C 0.50218 0.06745 0.62338 0.0
C277 C 0.52725 0.08632 0.4844 0.0
C278 C 0.48349 0.08807 0.61529 0.0
C279 C 0.48632 0.10755 0.54123 0.0
H280 H 0.39192 0.54583 0.25841 0.0
H281 H 0.34163 0.47954 0.3399 0.0
H282 H 0.3691 0.47086 0.48635 0.0
H283 H 0.40681 0.48324 0.59427 0.0
H284 H 0.45864 0.54761 0.50401 0.0
H285 H 0.43127 0.55593 0.35804 0.0
C286 C 0.38706 0.52945 0.30819 0.0
C287 C 0.36473 0.51351 0.28939 0.0
C288 C 0.40316 0.52432 0.39081 0.0
C289 C 0.35881 0.49206 0.35318 0.0
C290 C 0.37442 0.48717 0.43703 0.0
C291 C 0.41197 0.49906 0.54247 0.0
C292 C 0.43438 0.51501 0.56016 0.0
C293 C 0.39649 0.50336 0.45719 0.0
C294 C 0.44133 0.53515 0.49193 0.0
C295 C 0.42572 0.53995 0.40851 0.0
H296 H 0.0194 0.35012 0.34143 0.0
H297 H 0.96444 0.39718 0.16848 0.0
H298 H 0.95917 0.42812 0.3063 0.0
H299 H 0.96962 0.44135 0.47593 0.0
H300 H 0.02252 0.39343 0.65403 0.0
H301 H 0.02921 0.36307 0.51399 0.0
C302 C 0.00639 0.36723 0.33392 0.0
C303 C 0.99239 0.37146 0.24491 0.0
C304 C 0.00304 0.38462 0.41427 0.0
C305 C 0.97535 0.3935 0.23639 0.0
C306 C 0.97236 0.41119 0.31505 0.0
C307 C 0.98266 0.42428 0.48411 0.0
C308 C 0.99564 0.41956 0.57475 0.0
C309 C 0.98601 0.40686 0.40432 0.0
C310 C 0.0123 0.39733 0.58478 0.0
C311 C 0.01614 0.38006 0.50481 0.0
H312 H 0.85001 0.96169 0.05159 0.0
H313 H 0.87876 0.02042 0.25732 0.0
H314 H 0.91613 0.03062 0.1459 0.0
H315 H 0.9404 0.02315 0.98838 0.0
H316 H 0.91001 0.96599 0.77997 0.0
H317 H 0.87364 0.95477 0.89413 0.0
C318 C 0.86448 0.97669 0.07219 0.0
C319 C 0.86163 0.99023 0.16267 0.0
C320 C 0.88565 0.98272 0.00722 0.0
C321 C 0.88044 0.00976 0.18789 0.0
C322 C 0.90185 0.01557 0.12433 0.0
C323 C 0.92582 0.0082 0.96837 0.0
C324 C 0.9278 0.9954 0.87612 0.0
C325 C 0.90463 0.00221 0.03365 0.0
C326 C 0.90878 0.97618 0.85053 0.0
C327 C 0.888 0.96974 0.91575 0.0
H328 H 0.50077 0.87939 0.16472 0.0
H329 H 0.57117 0.84748 0.02305 0.0
H330 H 0.5652 0.87778 0.88272 0.0
H331 H 0.53965 0.91281 0.79866 0.0
H332 H 0.46982 0.94548 0.94067 0.0
H333 H 0.47588 0.91543 0.08258 0.0
C334 C 0.51484 0.8791 0.10326 0.0
C335 C 0.53632 0.8611 0.10428 0.0
C336 C 0.51134 0.89665 0.02275 0.0
C337 C 0.55445 0.86111 0.02425 0.0
C338 C 0.55103 0.87839 0.94378 0.0
C339 C 0.52572 0.91324 0.86058 0.0
C340 C 0.50426 0.93114 0.85932 0.0
C341 C 0.52947 0.8961 0.94194 0.0
C342 C 0.48649 0.93179 0.94026 0.0
C343 C 0.48995 0.91463 0.02126 0.0
H344 H 0.60273 0.50038 0.18688 0.0
H345 H 0.64095 0.56695 0.04022 0.0
H346 H 0.61387 0.55989 0.89294 0.0
H347 H 0.58035 0.5342 0.80396 0.0
H348 H 0.53975 0.46938 0.95144 0.0
H349 H 0.56667 0.47632 0.10076 0.0
C350 C 0.60504 0.51334 0.12267 0.0
C351 C 0.62395 0.53402 0.12402 0.0
C352 C 0.58909 0.50942 0.03854 0.0
C353 C 0.62652 0.55091 0.04099 0.0
C354 C 0.61112 0.54684 0.95661 0.0
C355 C 0.57749 0.52156 0.86877 0.0
C356 C 0.55852 0.50108 0.86677 0.0
C357 C 0.59255 0.52604 0.95427 0.0
C358 C 0.55446 0.48517 0.95158 0.0
C359 C 0.56982 0.48913 0.03667 0.0
H360 H 0.95814 0.62835 0.02888 0.0
H361 H 0.01846 0.59167 0.21136 0.0
H362 H 0.02423 0.5564 0.08864 0.0
H363 H 0.01296 0.53684 0.92697 0.0
H364 H 0.9549 0.5755 0.74025 0.0
H365 H 0.94723 0.60916 0.86756 0.0
C366 C 0.97242 0.61253 0.04208 0.0
C367 C 0.98779 0.61252 0.12894 0.0
C368 C 0.97604 0.59276 0.97046 0.0
C369 C 0.00645 0.59211 0.14472 0.0
C370 C 0.00973 0.57195 0.07476 0.0
C371 C 0.99854 0.55259 0.91466 0.0
C372 C 0.98447 0.55382 0.82487 0.0
C373 C 0.99476 0.57219 0.98704 0.0
C374 C 0.966 0.57432 0.80895 0.0
C375 C 0.96161 0.59351 0.88159 0.0
H376 H 0.01126 0.24003 0.29895 0.0
H377 H 0.97675 0.21942 0.01752 0.0
H378 H 0.97057 0.17336 0.07484 0.0
H379 H 0.97729 0.13862 0.20267 0.0
H380 H 0.01113 0.16025 0.48531 0.0
H381 H 0.01592 0.20606 0.42877 0.0
C382 C 0.00236 0.2254 0.25036 0.0
C383 C 0.99486 0.23284 0.15387 0.0
C384 C 0.99903 0.19912 0.28364 0.0
C385 C 0.98273 0.21401 0.09216 0.0
C386 C 0.97932 0.18771 0.12476 0.0
C387 C 0.98535 0.1534 0.25251 0.0
C388 C 0.99409 0.14577 0.34791 0.0
C389 C 0.98771 0.17996 0.22008 0.0
C390 C 0.00483 0.16527 0.41071 0.0
C391 C 0.00735 0.1916 0.37886 0.0
H392 H 0.28077 0.99428 0.31894 0.0
H393 H 0.29782 -0.00052 0.00509 0.0
H394 H 0.34512 0.99188 0.037 0.0
H395 H 0.38186 0.98444 0.15487 0.0
H396 H 0.36425 0.97943 0.46885 0.0
H397 H 0.31708 0.986 0.43587 0.0
C398 C 0.29484 0.99374 0.25748 0.0
C399 C 0.28585 0.99803 0.16003 0.0
C400 C 0.32198 0.98936 0.27637 0.0
C401 C 0.3043 0.99715 0.08112 0.0
C402 C 0.33135 0.99258 0.09925 0.0
C403 C 0.36771 0.98489 0.21607 0.0
C404 C 0.3767 0.98135 0.31418 0.0
C405 C 0.34047 0.98891 0.19672 0.0
C406 C 0.35797 0.98169 0.39245 0.0
C407 C 0.33094 0.98563 0.3738 0.0
H408 H 0.5644 0.28082 0.20579 0.0
H409 H 0.47955 0.2735 0.16458 0.0
H410 H 0.47345 0.32005 0.21 0.0
H411 H 0.49213 0.36275 0.26436 0.0
H412 H 0.57693 0.36989 0.30928 0.0
H413 H 0.58314 0.32368 0.25924 0.0
C414 C 0.54459 0.28946 0.20667 0.0
C415 C 0.52252 0.27385 0.17974 0.0
C416 C 0.54121 0.31624 0.23372 0.0
C417 C 0.49697 0.28528 0.1816 0.0
C418 C 0.49343 0.31184 0.20876 0.0
C419 C 0.51196 0.35417 0.26364 0.0
C420 C 0.53402 0.36983 0.29063 0.0
C421 C 0.5154 0.32751 0.23511 0.0
C422 C 0.55962 0.35845 0.28778 0.0
C423 C 0.56319 0.33194 0.25979 0.0
H424 H 0.21576 0.55106 0.12593 0.0
H425 H 0.23235 0.46912 0.19893 0.0
H426 H 0.18709 0.46343 0.26275 0.0
H427 H 0.14291 0.48174 0.29928 0.0
H428 H 0.12632 0.56411 0.23235 0.0
H429 H 0.17131 0.56961 0.16435 0.0
C430 C 0.20938 0.53199 0.15575 0.0
C431 C 0.22712 0.51034 0.15529 0.0
C432 C 0.18334 0.52895 0.19356 0.0
C433 C 0.21875 0.4858 0.19497 0.0
C434 C 0.19296 0.48261 0.23258 0.0
C435 C 0.14919 0.50097 0.27068 0.0
C436 C 0.13126 0.52248 0.27131 0.0
C437 C 0.17509 0.50404 0.23226 0.0
C438 C 0.13961 0.54713 0.23201 0.0
C439 C 0.16539 0.55035 0.19359 0.0
H440 H 0.97469 0.76411 0.18597 0.0
H441 H 0.04499 0.76662 0.36843 0.0
H442 H 0.05081 0.81379 0.32968 0.0
H443 H 0.03536 0.85462 0.24645 0.0
H444 H 0.96686 0.85119 0.05414 0.0
H445 H 0.96103 0.80417 0.09387 0.0
C446 C 0.99138 0.77494 0.21681 0.0
C447 C 0.00878 0.76206 0.28315 0.0
C448 C 0.99494 0.80195 0.19235 0.0
C449 C 0.03051 0.77632 0.32131 0.0
C450 C 0.03407 0.80324 0.29796 0.0
C451 C 0.01934 0.84356 0.21216 0.0
C452 C 0.00145 0.85665 0.14795 0.0
C453 C 0.01626 0.81634 0.23432 0.0
C454 C 0.98063 0.8419 0.10537 0.0
C455 C 0.97737 0.8149 0.12747 0.0
H456 H 0.68703 0.98462 0.45403 0.0
H457 H 0.72324 0.01353 0.18252 0.0
H458 H 0.67932 0.02142 0.11154 0.0
H459 H 0.63071 0.01723 0.12154 0.0
H460 H 0.59382 0.98773 0.39019 0.0
H461 H 0.63787 0.98186 0.4658 0.0
C462 C 0.68526 0.99307 0.38008 0.0
C463 C 0.70838 0.9986 0.32382 0.0
C464 C 0.65983 0.99697 0.33849 0.0
C465 C 0.70576 0.00907 0.22727 0.0
C466 C 0.68066 0.0135 0.18641 0.0
C467 C 0.63237 0.00989 0.19725 0.0
C468 C 0.60922 0.0029 0.25045 0.0
C469 C 0.65759 0.00708 0.24056 0.0
C470 C 0.61146 0.99344 0.34839 0.0
C471 C 0.63659 0.99019 0.39163 0.0
H472 H 0.52885 0.69341 0.41327 0.0
H473 H 0.48539 0.73798 0.19257 0.0
H474 H 0.4695 0.69671 0.11868 0.0
H475 H 0.46985 0.64817 0.1113 0.0
H476 H 0.51636 0.60321 0.32239 0.0
H477 H 0.52939 0.64436 0.40478 0.0
C478 C 0.51553 0.69398 0.3501 0.0
C479 C 0.50807 0.71859 0.30876 0.0
C480 C 0.50722 0.67013 0.30579 0.0
C481 C 0.4913 0.71919 0.2256 0.0
C482 C 0.48226 0.69564 0.18328 0.0
C483 C 0.48279 0.64733 0.17551 0.0
C484 C 0.49213 0.62262 0.21037 0.0
C485 C 0.49044 0.67102 0.22176 0.0
C486 C 0.50859 0.62191 0.2946 0.0
C487 C 0.51612 0.64545 0.34165 0.0
H488 H 0.75739 0.47026 0.23678 0.0
H489 H 0.77343 0.55155 0.31725 0.0
H490 H 0.81967 0.54676 0.26174 0.0
H491 H 0.85544 0.51959 0.18758 0.0
H492 H 0.83968 0.43778 0.11355 0.0
H493 H 0.79377 0.44229 0.17301 0.0
C494 C 0.77118 0.48668 0.2451 0.0
C495 C 0.76208 0.51104 0.28325 0.0
C496 C 0.79783 0.48367 0.21418 0.0
C497 C 0.77994 0.53253 0.28857 0.0
C498 C 0.80641 0.52979 0.25707 0.0
C499 C 0.84191 0.50278 0.18454 0.0
C500 C 0.85088 0.47844 0.14568 0.0
C501 C 0.81554 0.5055 0.21915 0.0
C502 C 0.83329 0.45669 0.14359 0.0
C503 C 0.80699 0.4593 0.17706 0.0
H504 H 0.03902 0.17862 0.8997 0.0
H505 H 0.05065 0.15216 0.20211 0.0
H506 H 0.03745 0.10711 0.15626 0.0
H507 H 0.02244 0.07539 0.0303 0.0
H508 H 0.01123 0.10211 0.72768 0.0
H509 H 0.02438 0.14701 0.77406 0.0
C510 C 0.03891 0.16298 0.95555 0.0
C511 C 0.04598 0.16872 0.05403 0.0
C512 C 0.03123 0.13721 0.92878 0.0
C513 C 0.04559 0.14822 0.12548 0.0
C514 C 0.03789 0.12248 0.09945 0.0
C515 C 0.02275 0.09103 0.97446 0.0
C516 C 0.01579 0.08535 0.87566 0.0
C517 C 0.03059 0.11679 0.00135 0.0
C518 C 0.01648 0.10587 0.80427 0.0
C519 C 0.02404 0.13157 0.83064 0.0
H520 H 0.32779 0.04468 0.62339 0.0
H521 H 0.32021 0.05426 0.94021 0.0
H522 H 0.3646 0.035 0.96368 0.0
H523 H 0.40696 0.01848 0.89198 0.0
H524 H 0.41332 0.00885 0.57373 0.0
H525 H 0.36809 0.02491 0.55355 0.0
C526 C 0.33576 0.04226 0.69768 0.0
C527 C 0.32085 0.05087 0.77985 0.0
C528 C 0.36116 0.0312 0.71043 0.0
C529 C 0.33122 0.04745 0.87582 0.0
C530 C 0.35667 0.03661 0.88918 0.0
C531 C 0.39834 0.01957 0.81839 0.0
C532 C 0.4138 0.01276 0.73465 0.0
C533 C 0.37203 0.02882 0.80677 0.0
C534 C 0.40214 0.0141 0.63981 0.0
C535 C 0.37617 0.02331 0.62785 0.0
H536 H 0.44931 0.33489 0.90044 0.0
H537 H 0.50026 0.31221 0.65571 0.0
H538 H 0.50259 0.35855 0.60015 0.0
H539 H 0.4952 0.40603 0.6355 0.0
H540 H 0.44618 0.42812 0.88649 0.0
H541 H 0.43811 0.38144 0.92513 0.0
C542 C 0.4606 0.33995 0.83398 0.0
C543 C 0.47495 0.32019 0.78336 0.0
C544 C 0.46252 0.36661 0.8044 0.0
C545 C 0.48922 0.32709 0.6967 0.0
C546 C 0.49068 0.35361 0.66514 0.0
C547 C 0.48234 0.40061 0.69739 0.0
C548 C 0.47162 0.42047 0.75885 0.0
C549 C 0.4782 0.37364 0.72062 0.0
C550 C 0.45503 0.41318 0.83898 0.0
C551 C 0.45034 0.38649 0.8611 0.0
H552 H 0.15408 0.44981 0.97755 0.0
H553 H 0.1841 0.4829 0.70212 0.0
H554 H 0.13858 0.48868 0.64223 0.0
H555 H 0.09033 0.48611 0.67131 0.0
H556 H 0.06051 0.4541 0.94893 0.0
H557 H 0.10595 0.44631 0.00489 0.0
C558 C 0.15069 0.45799 0.90394 0.0
C559 C 0.17243 0.46584 0.84427 0.0
C560 C 0.12452 0.46169 0.87071 0.0
C561 C 0.16769 0.47669 0.74952 0.0
C562 C 0.14168 0.48006 0.71529 0.0
C563 C 0.09373 0.47721 0.74362 0.0
C564 C 0.072 0.47071 0.80559 0.0
C565 C 0.11994 0.47291 0.77574 0.0
C566 C 0.07684 0.45944 0.89969 0.0
C567 C 0.10283 0.45489 0.93181 0.0
H568 H 0.00987 0.83795 0.53053 0.0
H569 H 0.99899 0.81571 0.8385 0.0
H570 H 0.99014 0.86217 0.88075 0.0
H571 H 0.98724 0.90893 0.83079 0.0
H572 H 0.99804 0.93099 0.5223 0.0
H573 H 0.00459 0.88435 0.47922 0.0
C574 C 0.00562 0.84325 0.60702 0.0
C575 C 0.00541 0.82355 0.68162 0.0
C576 C 0.00027 0.86979 0.63036 0.0
C577 C 0.99939 0.8306 0.77997 0.0
C578 C 0.99428 0.85709 0.80406 0.0
C579 C 0.99077 0.90358 0.75388 0.0
C580 C 0.99234 0.92344 0.67991 0.0
C581 C 0.99486 0.87684 0.72988 0.0
C582 C 0.99673 0.9161 0.58065 0.0
C583 C 0.00065 0.88947 0.55604 0.0
H584 H 0.6785 0.02054 0.6629 0.0
H585 H 0.68121 0.99036 0.96309 0.0
H586 H 0.6334 0.9809 0.95852 0.0
H587 H 0.59062 0.98268 0.87072 0.0
H588 H 0.58798 0.01372 0.57127 0.0
H589 H 0.63597 0.0216 0.57441 0.0
C590 C 0.66877 0.01127 0.72629 0.0
C591 C 0.68337 0.00558 0.81267 0.0
C592 C 0.64126 0.00621 0.72346 0.0
C593 C 0.67028 0.99465 0.89568 0.0
C594 C 0.64299 0.98927 0.89311 0.0
C595 C 0.60059 0.99086 0.80576 0.0
C596 C 0.58576 0.9975 0.72091 0.0
C597 C 0.62824 0.99516 0.80761 0.0
C598 C 0.59897 0.00808 0.63716 0.0
C599 C 0.62642 0.01263 0.63881 0.0
H600 H 0.49429 0.67932 0.62724 0.0
H601 H 0.52213 0.67905 0.92976 0.0
H602 H 0.53299 0.63181 0.9176 0.0
H603 H 0.52974 0.58986 0.82809 0.0
H604 H 0.49932 0.58907 0.52907 0.0
H605 H 0.49398 0.63745 0.53322 0.0
C606 C 0.5034 0.66908 0.68941 0.0
C607 C 0.50787 0.68266 0.77897 0.0
C608 C 0.50882 0.64169 0.68288 0.0
C609 C 0.5188 0.66895 0.86001 0.0
C610 C 0.52491 0.64197 0.85321 0.0
C611 C 0.52263 0.60036 0.76273 0.0
C612 C 0.51492 0.58595 0.67851 0.0
C613 C 0.51937 0.62802 0.76594 0.0
C614 C 0.50572 0.59976 0.59438 0.0
C615 C 0.50257 0.62741 0.5968 0.0
H616 H 0.82815 0.47207 0.42337 0.0
H617 H 0.80076 0.47317 0.7278 0.0
H618 H 0.84589 0.48357 0.78365 0.0
H619 H 0.89314 0.49106 0.74595 0.0
H620 H 0.9202 0.49076 0.44057 0.0
H621 H 0.87493 0.48191 0.38497 0.0
C622 C 0.83212 0.47438 0.50201 0.0
C623 C 0.81135 0.47146 0.57168 0.0
C624 C 0.8579 0.48083 0.53322 0.0
C625 C 0.81656 0.47513 0.67303 0.0
C626 C 0.84229 0.48116 0.70489 0.0
C627 C 0.88914 0.48935 0.66714 0.0
C628 C 0.9101 0.49141 0.5977 0.0
C629 C 0.86311 0.48397 0.63561 0.0
C630 C 0.90448 0.48925 0.4958 0.0
C631 C 0.87861 0.48401 0.46383 0.0
loop_
_geom_bond_atom_site_label_1
_geom_bond_atom_site_label_2
_geom_bond_distance
_geom_bond_site_symmetry_2
_ccdc_geom_bond_type
O0 Cd1 2.300 . S
O0 C7 1.275 . S
Cd1 O0 2.300 . S
Cd1 O9 2.381 . S
Cd1 O10 2.378 . S
O2 Cd3 2.385 . S
O2 C7 1.255 . S
Cd3 O2 2.385 . S
Cd3 O4 2.317 . S
O4 Cd3 2.317 . S
O4 C5 1.232 . S
C5 O4 1.232 . S
C5 O6 1.218 . S
O6 C5 1.218 . S
C7 O0 1.275 . S
C7 O2 1.255 . S
C8 O9 1.258 . S
C8 O10 1.256 . S
O9 Cd1 2.381 . S
O9 C8 1.258 . S
O10 Cd1 2.378 . S
O10 C8 1.256 . S
O11 Cd12 2.300 1_655 S
O11 C18 1.275 1_655 S
Cd12 O11 2.300 1_455 S
Cd12 O20 2.381 1_455 S
Cd12 O21 2.378 . S
O13 Cd14 2.385 . S
O13 C18 1.255 . S
Cd14 O13 2.385 . S
Cd14 O15 2.317 . S
O15 Cd14 2.317 . S
O15 C16 1.232 . S
C16 O15 1.232 . S
C16 O17 1.218 . S
O17 C16 1.218 . S
C18 O11 1.275 1_455 S
C18 O13 1.255 . S
C19 O20 1.258 1_455 S
C19 O21 1.256 . S
O20 Cd12 2.381 1_655 S
O20 C19 1.258 1_655 S
O21 Cd12 2.378 . S
O21 C19 1.256 . S
O22 Cd23 2.300 1_565 S
O22 C29 1.275 1_565 S
Cd23 O22 2.300 1_545 S
Cd23 O31 2.381 1_545 S
Cd23 O32 2.378 . S
O24 Cd25 2.385 . S
O24 C29 1.255 . S
Cd25 O24 2.385 . S
Cd25 O26 2.317 . S
O26 Cd25 2.317 . S
O26 C27 1.232 . S
C27 O26 1.232 . S
C27 O28 1.218 . S
O28 C27 1.218 . S
C29 O22 1.275 1_545 S
C29 O24 1.255 . S
C30 O31 1.258 1_545 S
C30 O32 1.256 . S
O31 Cd23 2.381 1_565 S
O31 C30 1.258 1_565 S
O32 Cd23 2.378 . S
O32 C30 1.256 . S
O33 Cd34 2.300 . S
O33 C40 1.275 . S
Cd34 O33 2.300 . S
Cd34 O42 2.381 . S
Cd34 O43 2.378 . S
O35 Cd36 2.385 . S
O35 C40 1.255 . S
Cd36 O35 2.385 . S
Cd36 O37 2.317 . S
O37 Cd36 2.317 . S
O37 C38 1.232 . S
C38 O37 1.232 . S
C38 O39 1.218 . S
O39 C38 1.218 . S
C40 O33 1.275 . S
C40 O35 1.255 . S
C41 O42 1.258 . S
C41 O43 1.256 . S
O42 Cd34 2.381 . S
O42 C41 1.258 . S
O43 Cd34 2.378 . S
O43 C41 1.256 . S
O44 Cd45 2.300 . S
O44 C51 1.275 . S
Cd45 O44 2.300 . S
Cd45 O53 2.381 . S
Cd45 O54 2.378 . S
O46 Cd47 2.385 1_554 S
O46 C51 1.255 . S
Cd47 O46 2.385 1_556 S
Cd47 O48 2.317 . S
O48 Cd47 2.317 . S
O48 C49 1.232 . S
C49 O48 1.232 . S
C49 O50 1.218 . S
O50 C49 1.218 . S
C51 O44 1.275 . S
C51 O46 1.255 . S
C52 O53 1.258 . S
C52 O54 1.256 . S
O53 Cd45 2.381 . S
O53 C52 1.258 . S
O54 Cd45 2.378 . S
O54 C52 1.256 . S
O55 Cd56 2.300 1_655 S
O55 C62 1.275 1_655 S
Cd56 O55 2.300 1_455 S
Cd56 O64 2.381 1_455 S
Cd56 O65 2.378 . S
O57 Cd58 2.385 1_554 S
O57 C62 1.255 . S
Cd58 O57 2.385 1_556 S
Cd58 O59 2.317 . S
O59 Cd58 2.317 . S
O59 C60 1.232 . S
C60 O59 1.232 . S
C60 O61 1.218 . S
O61 C60 1.218 . S
C62 O55 1.275 1_455 S
C62 O57 1.255 . S
C63 O64 1.258 1_455 S
C63 O65 1.256 . S
O64 Cd56 2.381 1_655 S
O64 C63 1.258 1_655 S
O65 Cd56 2.378 . S
O65 C63 1.256 . S
O66 Cd67 2.300 1_565 S
O66 C73 1.275 1_565 S
Cd67 O66 2.300 1_545 S
Cd67 O75 2.381 1_545 S
Cd67 O76 2.378 . S
O68 Cd69 2.385 1_554 S
O68 C73 1.255 . S
Cd69 O68 2.385 1_556 S
Cd69 O70 2.317 . S
O70 Cd69 2.317 . S
O70 C71 1.232 . S
C71 O70 1.232 . S
C71 O72 1.218 . S
O72 C71 1.218 . S
C73 O66 1.275 1_545 S
C73 O68 1.255 . S
C74 O75 1.258 1_545 S
C74 O76 1.256 . S
O75 Cd67 2.381 1_565 S
O75 C74 1.258 1_565 S
O76 Cd67 2.378 . S
O76 C74 1.256 . S
O77 Cd78 2.300 . S
O77 C84 1.275 . S
Cd78 O77 2.300 . S
Cd78 O86 2.381 . S
Cd78 O87 2.378 . S
O79 Cd80 2.385 1_554 S
O79 C84 1.255 . S
Cd80 O79 2.385 1_556 S
Cd80 O81 2.317 . S
O81 Cd80 2.317 . S
O81 C82 1.232 . S
C82 O81 1.232 . S
C82 O83 1.218 . S
O83 C82 1.218 . S
C84 O77 1.275 . S
C84 O79 1.255 . S
C85 O86 1.258 . S
C85 O87 1.256 . S
O86 Cd78 2.381 . S
O86 C85 1.258 . S
O87 Cd78 2.378 . S
O87 C85 1.256 . S
Sm88 C90 2.846 . S
Sm88 O108 2.543 . S
Sm88 O109 2.450 . S
Sm88 O110 2.681 1_565 S
Sm88 O111 2.464 . S
Sm88 O112 2.396 . S
Sm88 O116 2.386 1_455 S
Sm88 O119 2.408 1_565 S
Sm89 C99 2.846 . S
Sm89 O110 2.386 1_655 S
Sm89 O113 2.408 1_545 S
Sm89 O114 2.543 . S
Sm89 O115 2.450 . S
Sm89 O116 2.681 1_545 S
Sm89 O117 2.464 . S
Sm89 O118 2.396 . S
C90 Sm88 2.846 . S
C90 C91 1.506 . S
C90 O108 1.261 . S
C90 O109 1.242 . S
C91 C90 1.506 . S
C91 C92 1.358 1_556 S
C91 C96 1.382 1_556 S
C92 C91 1.358 1_554 S
C92 C93 1.385 . S
C92 H120 0.930 1_455 S
C93 C92 1.385 . S
C93 C94 1.395 . S
C93 H121 0.929 1_455 S
C94 C93 1.395 . S
C94 C95 1.335 . S
C95 C94 1.335 . S
C95 C96 1.398 . S
C95 H122 0.930 . S
C96 C91 1.382 1_554 S
C96 C95 1.398 . S
C96 H123 0.929 1_554 S
C97 O110 1.271 1_565 S
C97 O111 1.251 . S
C98 O112 1.252 1_655 S
C98 O113 1.272 . S
C99 Sm89 2.846 . S
C99 C100 1.506 . S
C99 O114 1.261 . S
C99 O115 1.242 . S
C100 C99 1.506 . S
C100 C101 1.358 . S
C100 C105 1.382 . S
C101 C100 1.358 . S
C101 C102 1.385 . S
C101 H124 0.930 1_655 S
C102 C101 1.385 . S
C102 C103 1.395 . S
C102 H125 0.929 1_655 S
C103 C102 1.395 . S
C103 C104 1.335 . S
C104 C103 1.335 . S
C104 C105 1.398 . S
C104 H126 0.930 . S
C105 C100 1.382 . S
C105 C104 1.398 . S
C105 H127 0.929 . S
C106 O116 1.271 1_545 S
C106 O117 1.251 . S
C107 O118 1.252 1_455 S
C107 O119 1.272 . S
O108 Sm88 2.543 . S
O108 C90 1.261 . S
O109 Sm88 2.450 . S
O109 C90 1.242 . S
O110 Sm88 2.681 1_545 S
O110 Sm89 2.386 1_455 S
O110 C97 1.271 1_545 S
O111 Sm88 2.464 . S
O111 C97 1.251 . S
O112 Sm88 2.396 . S
O112 C98 1.252 1_455 S
O113 Sm89 2.408 1_565 S
O113 C98 1.272 . S
O114 Sm89 2.543 . S
O114 C99 1.261 . S
O115 Sm89 2.450 . S
O115 C99 1.242 . S
O116 Sm88 2.386 1_655 S
O116 Sm89 2.681 1_565 S
O116 C106 1.271 1_565 S
O117 Sm89 2.464 . S
O117 C106 1.251 . S
O118 Sm89 2.396 . S
O118 C107 1.252 1_655 S
O119 Sm88 2.408 1_545 S
O119 C107 1.272 . S
H120 C92 0.930 1_655 S
H121 C93 0.929 1_655 S
H122 C95 0.930 . S
H123 C96 0.929 1_556 S
H124 C101 0.930 1_455 S
H125 C102 0.929 1_455 S
H126 C104 0.930 . S
H127 C105 0.929 . S
Sm128 C130 2.846 . S
Sm128 O148 2.543 . S
Sm128 O149 2.450 . S
Sm128 O150 2.681 . S
Sm128 O151 2.464 . S
Sm128 O152 2.396 . S
Sm128 O156 2.386 1_545 S
Sm128 O159 2.408 . S
Sm129 C139 2.846 . S
Sm129 O150 2.386 1_565 S
Sm129 O153 2.408 . S
Sm129 O154 2.543 . S
Sm129 O155 2.450 . S
Sm129 O156 2.681 . S
Sm129 O157 2.464 . S
Sm129 O158 2.396 . S
C130 Sm128 2.846 . S
C130 C131 1.506 . S
C130 O148 1.261 . S
C130 O149 1.242 . S
C131 C130 1.506 . S
C131 C132 1.358 1_556 S
C131 C136 1.382 1_556 S
C132 C131 1.358 1_554 S
C132 C133 1.385 . S
C132 H160 0.930 1_545 S
C133 C132 1.385 . S
C133 C134 1.395 . S
C133 H161 0.929 1_545 S
C134 C133 1.395 . S
C134 C135 1.335 . S
C135 C134 1.335 . S
C135 C136 1.398 . S
C135 H162 0.930 . S
C136 C131 1.382 1_554 S
C136 C135 1.398 . S
C136 H163 0.929 1_554 S
C137 O150 1.271 . S
C137 O151 1.251 . S
C138 O152 1.252 1_565 S
C138 O153 1.272 . S
C139 Sm129 2.846 . S
C139 C140 1.506 . S
C139 O154 1.261 . S
C139 O155 1.242 . S
C140 C139 1.506 . S
C140 C141 1.358 . S
C140 C145 1.382 . S
C141 C140 1.358 . S
C141 C142 1.385 . S
C141 H164 0.930 1_565 S
C142 C141 1.385 . S
C142 C143 1.395 . S
C142 H165 0.929 1_565 S
C143 C142 1.395 . S
C143 C144 1.335 . S
C144 C143 1.335 . S
C144 C145 1.398 . S
C144 H166 0.930 . S
C145 C140 1.382 . S
C145 C144 1.398 . S
C145 H167 0.929 . S
C146 O156 1.271 . S
C146 O157 1.251 . S
C147 O158 1.252 1_545 S
C147 O159 1.272 . S
O148 Sm128 2.543 . S
O148 C130 1.261 . S
O149 Sm128 2.450 . S
O149 C130 1.242 . S
O150 Sm128 2.681 . S
O150 Sm129 2.386 1_545 S
O150 C137 1.271 . S
O151 Sm128 2.464 . S
O151 C137 1.251 . S
O152 Sm128 2.396 . S
O152 C138 1.252 1_545 S
O153 Sm129 2.408 . S
O153 C138 1.272 . S
O154 Sm129 2.543 . S
O154 C139 1.261 . S
O155 Sm129 2.450 . S
O155 C139 1.242 . S
O156 Sm128 2.386 1_565 S
O156 Sm129 2.681 . S
O156 C146 1.271 . S
O157 Sm129 2.464 . S
O157 C146 1.251 . S
O158 Sm129 2.396 . S
O158 C147 1.252 1_565 S
O159 Sm128 2.408 . S
O159 C147 1.272 . S
H160 C132 0.930 1_565 S
H161 C133 0.929 1_565 S
H162 C135 0.930 . S
H163 C136 0.929 1_556 S
H164 C141 0.930 1_545 S
H165 C142 0.929 1_545 S
H166 C144 0.930 . S
H167 C145 0.929 . S
Sm168 C170 2.846 . S
Sm168 O188 2.543 . S
Sm168 O189 2.450 . S
Sm168 O190 2.681 . S
Sm168 O191 2.464 . S
Sm168 O192 2.396 . S
Sm168 O196 2.386 . S
Sm168 O199 2.408 . S
Sm169 C179 2.846 . S
Sm169 O190 2.386 . S
Sm169 O193 2.408 . S
Sm169 O194 2.543 . S
Sm169 O195 2.450 . S
Sm169 O196 2.681 . S
Sm169 O197 2.464 . S
Sm169 O198 2.396 . S
C170 Sm168 2.846 . S
C170 C171 1.506 . S
C170 O188 1.261 . S
C170 O189 1.242 . S
C171 C170 1.506 . S
C171 C172 1.358 1_556 S
C171 C176 1.382 1_556 S
C172 C171 1.358 1_554 S
C172 C173 1.385 . S
C172 H200 0.930 . S
C173 C172 1.385 . S
C173 C174 1.395 . S
C173 H201 0.929 . S
C174 C173 1.395 . S
C174 C175 1.335 . S
C175 C174 1.335 . S
C175 C176 1.398 . S
C175 H202 0.930 . S
C176 C171 1.382 1_554 S
C176 C175 1.398 . S
C176 H203 0.929 1_554 S
C177 O190 1.271 . S
C177 O191 1.251 . S
C178 O192 1.252 . S
C178 O193 1.272 . S
C179 Sm169 2.846 . S
C179 C180 1.506 . S
C179 O194 1.261 . S
C179 O195 1.242 . S
C180 C179 1.506 . S
C180 C181 1.358 . S
C180 C185 1.382 . S
C181 C180 1.358 . S
C181 C182 1.385 . S
C181 H204 0.930 . S
C182 C181 1.385 . S
C182 C183 1.395 . S
C182 H205 0.929 . S
C183 C182 1.395 . S
C183 C184 1.335 . S
C184 C183 1.335 . S
C184 C185 1.398 . S
C184 H206 0.930 . S
C185 C180 1.382 . S
C185 C184 1.398 . S
C185 H207 0.929 . S
C186 O196 1.271 . S
C186 O197 1.251 . S
C187 O198 1.252 . S
C187 O199 1.272 . S
O188 Sm168 2.543 . S
O188 C170 1.261 . S
O189 Sm168 2.450 . S
O189 C170 1.242 . S
O190 Sm168 2.681 . S
O190 Sm169 2.386 . S
O190 C177 1.271 . S
O191 Sm168 2.464 . S
O191 C177 1.251 . S
O192 Sm168 2.396 . S
O192 C178 1.252 . S
O193 Sm169 2.408 . S
O193 C178 1.272 . S
O194 Sm169 2.543 . S
O194 C179 1.261 . S
O195 Sm169 2.450 . S
O195 C179 1.242 . S
O196 Sm168 2.386 . S
O196 Sm169 2.681 . S
O196 C186 1.271 . S
O197 Sm169 2.464 . S
O197 C186 1.251 . S
O198 Sm169 2.396 . S
O198 C187 1.252 . S
O199 Sm168 2.408 . S
O199 C187 1.272 . S
H200 C172 0.930 . S
H201 C173 0.929 . S
H202 C175 0.930 . S
H203 C176 0.929 1_556 S
H204 C181 0.930 . S
H205 C182 0.929 . S
H206 C184 0.930 . S
H207 C185 0.929 . S
Sm208 C210 2.846 . S
Sm208 O228 2.543 . S
Sm208 O229 2.450 . S
Sm208 O230 2.681 1_655 S
Sm208 O231 2.464 . S
Sm208 O232 2.396 . S
Sm208 O236 2.386 . S
Sm208 O239 2.408 1_655 S
Sm209 C219 2.846 . S
Sm209 O230 2.386 . S
Sm209 O233 2.408 1_455 S
Sm209 O234 2.543 . S
Sm209 O235 2.450 . S
Sm209 O236 2.681 1_455 S
Sm209 O237 2.464 . S
Sm209 O238 2.396 . S
C210 Sm208 2.846 . S
C210 C211 1.506 . S
C210 O228 1.261 . S
C210 O229 1.242 . S
C211 C210 1.506 . S
C211 C212 1.358 1_556 S
C211 C216 1.382 1_556 S
C212 C211 1.358 1_554 S
C212 C213 1.385 . S
C212 H240 0.930 . S
C213 C212 1.385 . S
C213 C214 1.395 . S
C213 H241 0.929 . S
C214 C213 1.395 . S
C214 C215 1.335 . S
C215 C214 1.335 . S
C215 C216 1.398 . S
C215 H242 0.930 . S
C216 C211 1.382 1_554 S
C216 C215 1.398 . S
C216 H243 0.929 1_554 S
C217 O230 1.261 1_655 S
C217 O231 1.270 . S
C218 O232 1.252 . S
C218 O233 1.272 . S
C219 Sm209 2.846 . S
C219 C220 1.506 . S
C219 O234 1.261 . S
C219 O235 1.242 . S
C220 C219 1.506 . S
C220 C221 1.358 . S
C220 C225 1.382 . S
C221 C220 1.358 . S
C221 C222 1.385 . S
C221 H244 0.930 . S
C222 C221 1.385 . S
C222 C223 1.395 . S
C222 H245 0.929 . S
C223 C222 1.395 . S
C223 C224 1.335 . S
C224 C223 1.335 . S
C224 C225 1.398 . S
C224 H246 0.930 . S
C225 C220 1.382 . S
C225 C224 1.398 . S
C225 H247 0.929 . S
C226 O236 1.271 1_455 S
C226 O237 1.251 . S
C227 O238 1.252 . S
C227 O239 1.272 . S
O228 Sm208 2.543 . S
O228 C210 1.261 . S
O229 Sm208 2.450 . S
O229 C210 1.242 . S
O230 Sm208 2.681 1_455 S
O230 Sm209 2.386 . S
O230 C217 1.261 1_455 S
O231 Sm208 2.464 . S
O231 C217 1.270 . S
O232 Sm208 2.396 . S
O232 C218 1.252 . S
O233 Sm209 2.408 1_655 S
O233 C218 1.272 . S
O234 Sm209 2.543 . S
O234 C219 1.261 . S
O235 Sm209 2.450 . S
O235 C219 1.242 . S
O236 Sm208 2.386 . S
O236 Sm209 2.681 1_655 S
O236 C226 1.271 1_655 S
O237 Sm209 2.464 . S
O237 C226 1.251 . S
O238 Sm209 2.396 . S
O238 C227 1.252 . S
O239 Sm208 2.408 1_455 S
O239 C227 1.272 . S
H240 C212 0.930 . S
H241 C213 0.929 . S
H242 C215 0.930 . S
H243 C216 0.929 1_556 S
H244 C221 0.930 . S
H245 C222 0.929 . S
H246 C224 0.930 . S
H247 C225 0.929 . S
H248 C254 0.930 . S
H249 C257 0.930 . S
H250 C258 0.930 . S
H251 C259 0.930 . S
H252 C262 0.930 . S
H253 C263 0.930 . S
C254 H248 0.930 . S
C254 C255 1.355 1_545 S
C254 C256 1.415 . S
C255 C254 1.355 1_565 S
C255 C257 1.419 . S
C256 C254 1.415 . S
C256 C261 1.425 1_545 S
C256 C263 1.409 . S
C257 H249 0.930 . S
C257 C255 1.419 . S
C257 C258 1.362 . S
C258 H250 0.930 . S
C258 C257 1.362 . S
C258 C261 1.409 . S
C259 H251 0.930 . S
C259 C260 1.355 1_565 S
C259 C261 1.415 . S
C260 C259 1.355 1_545 S
C260 C262 1.419 . S
C261 C256 1.425 1_565 S
C261 C258 1.409 . S
C261 C259 1.415 . S
C262 H252 0.930 . S
C262 C260 1.419 . S
C262 C263 1.362 . S
C263 H253 0.930 . S
C263 C256 1.409 . S
C263 C262 1.362 . S
H264 C270 0.930 . S
H265 C273 0.930 . S
H266 C274 0.930 . S
H267 C275 0.930 . S
H268 C278 0.930 . S
H269 C279 0.930 . S
C270 H264 0.930 . S
C270 C271 1.355 . S
C270 C272 1.415 . S
C271 C270 1.355 . S
C271 C273 1.419 . S
C272 C270 1.415 . S
C272 C277 1.425 . S
C272 C279 1.409 . S
C273 H265 0.930 . S
C273 C271 1.419 . S
C273 C274 1.362 . S
C274 H266 0.930 . S
C274 C273 1.362 . S
C274 C277 1.409 . S
C275 H267 0.930 . S
C275 C276 1.355 . S
C275 C277 1.415 . S
C276 C275 1.355 . S
C276 C278 1.419 . S
C277 C272 1.425 . S
C277 C274 1.409 . S
C277 C275 1.415 . S
C278 H268 0.930 . S
C278 C276 1.419 . S
C278 C279 1.362 . S
C279 H269 0.930 . S
C279 C272 1.409 . S
C279 C278 1.362 . S
H280 C286 0.930 . S
H281 C289 0.930 . S
H282 C290 0.930 . S
H283 C291 0.930 . S
H284 C294 0.930 . S
H285 C295 0.930 . S
C286 H280 0.930 . S
C286 C287 1.355 . S
C286 C288 1.415 . S
C287 C286 1.355 . S
C287 C289 1.419 . S
C288 C286 1.415 . S
C288 C293 1.425 . S
C288 C295 1.409 . S
C289 H281 0.930 . S
C289 C287 1.419 . S
C289 C290 1.362 . S
C290 H282 0.930 . S
C290 C289 1.362 . S
C290 C293 1.409 . S
C291 H283 0.930 . S
C291 C292 1.355 . S
C291 C293 1.415 . S
C292 C291 1.355 . S
C292 C294 1.419 . S
C293 C288 1.425 . S
C293 C290 1.409 . S
C293 C291 1.415 . S
C294 H284 0.930 . S
C294 C292 1.419 . S
C294 C295 1.362 . S
C295 H285 0.930 . S
C295 C288 1.409 . S
C295 C294 1.362 . S
H296 C302 0.930 . S
H297 C305 0.930 . S
H298 C306 0.930 . S
H299 C307 0.930 . S
H300 C310 0.930 . S
H301 C311 0.930 . S
C302 H296 0.930 . S
C302 C303 1.355 1_455 S
C302 C304 1.415 . S
C303 C302 1.355 1_655 S
C303 C305 1.419 . S
C304 C302 1.415 . S
C304 C309 1.425 1_455 S
C304 C311 1.409 . S
C305 H297 0.930 . S
C305 C303 1.419 . S
C305 C306 1.362 . S
C306 H298 0.930 . S
C306 C305 1.362 . S
C306 C309 1.409 . S
C307 H299 0.930 . S
C307 C308 1.355 1_655 S
C307 C309 1.415 . S
C308 C307 1.355 1_455 S
C308 C310 1.419 . S
C309 C304 1.425 1_655 S
C309 C306 1.409 . S
C309 C307 1.415 . S
C310 H300 0.930 . S
C310 C308 1.419 . S
C310 C311 1.362 . S
C311 H301 0.930 . S
C311 C304 1.409 . S
C311 C310 1.362 . S
H312 C318 0.930 . S
H313 C321 0.930 . S
H314 C322 0.930 . S
H315 C323 0.930 . S
H316 C326 0.930 . S
H317 C327 0.930 . S
C318 H312 0.930 . S
C318 C319 1.355 1_545 S
C318 C320 1.415 . S
C319 C318 1.355 1_565 S
C319 C321 1.419 . S
C320 C318 1.415 . S
C320 C325 1.425 1_545 S
C320 C327 1.409 1_554 S
C321 H313 0.930 . S
C321 C319 1.419 . S
C321 C322 1.362 . S
C322 H314 0.930 . S
C322 C321 1.362 . S
C322 C325 1.409 . S
C323 H315 0.930 . S
C323 C324 1.352 1_564 S
C323 C325 1.415 . S
C324 C323 1.352 1_546 S
C324 C326 1.423 . S
C325 C320 1.425 1_565 S
C325 C322 1.409 . S
C325 C323 1.415 . S
C326 H316 0.930 . S
C326 C324 1.423 . S
C326 C327 1.362 . S
C327 H317 0.930 . S
C327 C320 1.409 1_556 S
C327 C326 1.362 . S
H328 C334 0.930 . S
H329 C337 0.930 . S
H330 C338 0.930 . S
H331 C339 0.930 . S
H332 C342 0.930 . S
H333 C343 0.930 . S
C334 H328 0.930 . S
C334 C335 1.355 . S
C334 C336 1.415 . S
C335 C334 1.355 . S
C335 C337 1.419 . S
C336 C334 1.415 . S
C336 C341 1.425 . S
C336 C343 1.409 . S
C337 H329 0.930 . S
C337 C335 1.419 . S
C337 C338 1.362 . S
C338 H330 0.930 . S
C338 C337 1.362 . S
C338 C341 1.409 . S
C339 H331 0.930 . S
C339 C340 1.355 . S
C339 C341 1.415 1_556 S
C340 C339 1.355 . S
C340 C342 1.419 . S
C341 C336 1.425 . S
C341 C338 1.409 . S
C341 C339 1.415 1_554 S
C342 H332 0.930 . S
C342 C340 1.419 . S
C342 C343 1.362 1_556 S
C343 H333 0.930 . S
C343 C336 1.409 . S
C343 C342 1.362 1_554 S
H344 C350 0.930 . S
H345 C353 0.930 . S
H346 C354 0.930 . S
H347 C355 0.930 . S
H348 C358 0.930 . S
H349 C359 0.930 . S
C350 H344 0.930 . S
C350 C351 1.355 . S
C350 C352 1.415 . S
C351 C350 1.355 . S
C351 C353 1.419 . S
C352 C350 1.415 . S
C352 C357 1.425 . S
C352 C359 1.409 . S
C353 H345 0.930 . S
C353 C351 1.419 . S
C353 C354 1.362 . S
C354 H346 0.930 . S
C354 C353 1.362 . S
C354 C357 1.409 . S
C355 H347 0.930 . S
C355 C356 1.355 . S
C355 C357 1.415 1_556 S
C356 C355 1.355 . S
C356 C358 1.419 1_556 S
C357 C352 1.425 . S
C357 C354 1.409 . S
C357 C355 1.415 1_554 S
C358 H348 0.930 . S
C358 C356 1.419 1_554 S
C358 C359 1.362 . S
C359 H349 0.930 . S
C359 C352 1.409 . S
C359 C358 1.362 . S
H360 C366 0.929 . S
H361 C369 0.930 . S
H362 C370 0.930 . S
H363 C371 0.930 . S
H364 C374 0.930 . S
H365 C375 0.930 . S
C366 H360 0.929 . S
C366 C367 1.355 1_455 S
C366 C368 1.415 . S
C367 C366 1.355 1_655 S
C367 C369 1.419 . S
C368 C366 1.415 . S
C368 C373 1.425 1_455 S
C368 C375 1.409 1_554 S
C369 H361 0.930 . S
C369 C367 1.419 . S
C369 C370 1.362 . S
C370 H362 0.930 . S
C370 C369 1.362 . S
C370 C373 1.409 . S
C371 H363 0.930 . S
C371 C372 1.356 1_554 S
C371 C373 1.415 . S
C372 C371 1.356 1_556 S
C372 C374 1.417 1_655 S
C373 C368 1.425 1_655 S
C373 C370 1.409 . S
C373 C371 1.415 . S
C374 H364 0.930 . S
C374 C372 1.417 1_455 S
C374 C375 1.362 . S
C375 H365 0.930 . S
C375 C368 1.409 1_556 S
C375 C374 1.362 . S
H376 C382 0.930 . S
H377 C385 0.930 . S
H378 C386 0.930 . S
H379 C387 0.930 . S
H380 C390 0.930 . S
H381 C391 0.930 . S
C382 H376 0.930 . S
C382 C383 1.342 1_455 S
C382 C384 1.415 1_455 S
C383 C382 1.342 1_655 S
C383 C385 1.455 . S
C384 C382 1.415 1_655 S
C384 C389 1.425 . S
C384 C391 1.409 1_655 S
C385 H377 0.930 . S
C385 C383 1.455 . S
C385 C386 1.362 . S
C386 H378 0.930 . S
C386 C385 1.362 . S
C386 C389 1.409 . S
C387 H379 0.930 . S
C387 C388 1.355 . S
C387 C389 1.415 . S
C388 C387 1.355 . S
C388 C390 1.419 . S
C389 C384 1.425 . S
C389 C386 1.409 . S
C389 C387 1.415 . S
C390 H380 0.930 . S
C390 C388 1.419 . S
C390 C391 1.362 1_655 S
C391 H381 0.930 . S
C391 C384 1.409 1_455 S
C391 C390 1.362 1_455 S
H392 C398 0.930 . S
H393 C401 0.930 . S
H394 C402 0.940 . S
H395 C403 0.930 . S
H396 C406 0.930 . S
H397 C407 0.930 . S
C398 H392 0.930 . S
C398 C399 1.355 1_565 S
C398 C400 1.415 . S
C399 C398 1.355 1_545 S
C399 C401 1.419 . S
C400 C398 1.415 . S
C400 C405 1.425 . S
C400 C407 1.409 . S
C401 H393 0.930 . S
C401 C399 1.419 . S
C401 C402 1.373 . S
C402 H394 0.940 . S
C402 C401 1.373 . S
C402 C405 1.389 1_545 S
C403 H395 0.930 . S
C403 C404 1.355 . S
C403 C405 1.415 . S
C404 C403 1.355 . S
C404 C406 1.419 . S
C405 C400 1.425 . S
C405 C402 1.389 1_565 S
C405 C403 1.415 . S
C406 H396 0.930 . S
C406 C404 1.419 . S
C406 C407 1.362 . S
C407 H397 0.930 . S
C407 C400 1.409 . S
C407 C406 1.362 . S
H408 C414 0.930 . S
H409 C417 0.930 . S
H410 C418 0.930 . S
H411 C419 0.930 . S
H412 C422 0.930 . S
H413 C423 0.930 . S
C414 H408 0.930 . S
C414 C415 1.355 . S
C414 C416 1.415 . S
C415 C414 1.355 . S
C415 C417 1.419 . S
C416 C414 1.415 . S
C416 C421 1.425 . S
C416 C423 1.409 . S
C417 H409 0.930 . S
C417 C415 1.419 . S
C417 C418 1.362 . S
C418 H410 0.930 . S
C418 C417 1.362 . S
C418 C421 1.409 . S
C419 H411 0.930 . S
C419 C420 1.355 . S
C419 C421 1.415 . S
C420 C419 1.355 . S
C420 C422 1.419 . S
C421 C416 1.425 . S
C421 C418 1.409 . S
C421 C419 1.415 . S
C422 H412 0.930 . S
C422 C420 1.419 . S
C422 C423 1.362 . S
C423 H413 0.930 . S
C423 C416 1.409 . S
C423 C422 1.362 . S
H424 C430 0.930 . S
H425 C433 0.930 . S
H426 C434 0.930 . S
H427 C435 0.930 . S
H428 C438 0.930 . S
H429 C439 0.930 . S
C430 H424 0.930 . S
C430 C431 1.355 . S
C430 C432 1.415 . S
C431 C430 1.355 . S
C431 C433 1.419 . S
C432 C430 1.415 . S
C432 C437 1.425 . S
C432 C439 1.409 . S
C433 H425 0.930 . S
C433 C431 1.419 . S
C433 C434 1.362 . S
C434 H426 0.930 . S
C434 C433 1.362 . S
C434 C437 1.409 . S
C435 H427 0.930 . S
C435 C436 1.355 . S
C435 C437 1.415 . S
C436 C435 1.355 . S
C436 C438 1.419 . S
C437 C432 1.425 . S
C437 C434 1.409 . S
C437 C435 1.415 . S
C438 H428 0.930 . S
C438 C436 1.419 . S
C438 C439 1.362 . S
C439 H429 0.930 . S
C439 C432 1.409 . S
C439 C438 1.362 . S
H440 C446 0.913 1_655 S
H441 C449 0.930 . S
H442 C450 0.930 . S
H443 C451 0.930 . S
H444 C454 0.930 1_556 S
H445 C455 0.930 . S
C446 H440 0.913 1_455 S
C446 C447 1.356 . S
C446 C448 1.431 . S
C447 C446 1.356 . S
C447 C449 1.419 . S
C448 C446 1.431 . S
C448 C453 1.425 . S
C448 C455 1.409 . S
C449 H441 0.930 . S
C449 C447 1.419 . S
C449 C450 1.362 . S
C450 H442 0.930 . S
C450 C449 1.362 . S
C450 C453 1.409 . S
C451 H443 0.930 . S
C451 C452 1.355 . S
C451 C453 1.415 . S
C452 C451 1.355 . S
C452 C454 1.419 . S
C453 C448 1.425 . S
C453 C450 1.409 . S
C453 C451 1.415 . S
C454 H444 0.930 1_554 S
C454 C452 1.419 . S
C454 C455 1.362 . S
C455 H445 0.930 . S
C455 C448 1.409 . S
C455 C454 1.362 . S
H456 C462 0.930 . S
H457 C465 0.930 . S
H458 C466 0.930 . S
H459 C467 0.930 . S
H460 C470 0.930 . S
H461 C471 0.930 1_565 S
C462 H456 0.930 . S
C462 C463 1.353 1_565 S
C462 C464 1.415 1_565 S
C463 C462 1.353 1_545 S
C463 C465 1.425 . S
C464 C462 1.415 1_545 S
C464 C469 1.425 . S
C464 C471 1.409 . S
C465 H457 0.930 . S
C465 C463 1.425 . S
C465 C466 1.362 . S
C466 H458 0.930 . S
C466 C465 1.362 . S
C466 C469 1.409 . S
C467 H459 0.930 . S
C467 C468 1.355 . S
C467 C469 1.415 . S
C468 C467 1.355 . S
C468 C470 1.419 . S
C469 C464 1.425 . S
C469 C466 1.409 . S
C469 C467 1.415 . S
C470 H460 0.930 . S
C470 C468 1.419 . S
C470 C471 1.362 . S
C471 H461 0.930 1_545 S
C471 C464 1.409 . S
C471 C470 1.362 . S
H472 C478 0.930 . S
H473 C481 0.930 . S
H474 C482 0.930 . S
H475 C483 0.930 . S
H476 C486 0.930 . S
H477 C487 0.930 . S
C478 H472 0.930 . S
C478 C479 1.355 . S
C478 C480 1.415 . S
C479 C478 1.355 . S
C479 C481 1.419 . S
C480 C478 1.415 . S
C480 C485 1.425 . S
C480 C487 1.409 . S
C481 H473 0.930 . S
C481 C479 1.419 . S
C481 C482 1.362 . S
C482 H474 0.930 . S
C482 C481 1.362 . S
C482 C485 1.409 . S
C483 H475 0.930 . S
C483 C484 1.355 . S
C483 C485 1.415 . S
C484 C483 1.355 . S
C484 C486 1.419 . S
C485 C480 1.425 . S
C485 C482 1.409 . S
C485 C483 1.415 . S
C486 H476 0.930 . S
C486 C484 1.419 . S
C486 C487 1.362 . S
C487 H477 0.930 . S
C487 C480 1.409 . S
C487 C486 1.362 . S
H488 C494 0.930 . S
H489 C497 0.930 . S
H490 C498 0.930 . S
H491 C499 0.930 . S
H492 C502 0.930 . S
H493 C503 0.930 . S
C494 H488 0.930 . S
C494 C495 1.355 . S
C494 C496 1.415 . S
C495 C494 1.355 . S
C495 C497 1.419 . S
C496 C494 1.415 . S
C496 C501 1.425 . S
C496 C503 1.409 . S
C497 H489 0.930 . S
C497 C495 1.419 . S
C497 C498 1.362 . S
C498 H490 0.930 . S
C498 C497 1.362 . S
C498 C501 1.409 . S
C499 H491 0.930 . S
C499 C500 1.355 . S
C499 C501 1.415 . S
C500 C499 1.355 . S
C500 C502 1.419 . S
C501 C496 1.425 . S
C501 C498 1.409 . S
C501 C499 1.415 . S
C502 H492 0.930 . S
C502 C500 1.419 . S
C502 C503 1.362 . S
C503 H493 0.930 . S
C503 C496 1.409 . S
C503 C502 1.362 . S
H504 C510 0.930 . S
H505 C513 0.930 . S
H506 C514 0.930 . S
H507 C515 0.930 . S
H508 C518 0.930 . S
H509 C519 0.930 . S
C510 H504 0.930 . S
C510 C511 1.355 . S
C510 C512 1.415 . S
C511 C510 1.355 . S
C511 C513 1.419 1_455 S
C512 C510 1.415 . S
C512 C517 1.425 . S
C512 C519 1.409 . S
C513 H505 0.930 . S
C513 C511 1.419 1_655 S
C513 C514 1.362 . S
C514 H506 0.930 . S
C514 C513 1.362 . S
C514 C517 1.409 1_655 S
C515 H507 0.930 . S
C515 C516 1.355 . S
C515 C517 1.415 . S
C516 C515 1.355 . S
C516 C518 1.419 . S
C517 C512 1.425 . S
C517 C514 1.409 1_455 S
C517 C515 1.415 . S
C518 H508 0.930 . S
C518 C516 1.419 . S
C518 C519 1.362 . S
C519 H509 0.930 . S
C519 C512 1.409 . S
C519 C518 1.362 . S
H520 C526 0.930 . S
H521 C529 0.930 . S
H522 C530 0.930 . S
H523 C531 0.930 . S
H524 C534 0.930 . S
H525 C535 0.930 . S
C526 H520 0.930 . S
C526 C527 1.355 1_565 S
C526 C528 1.415 . S
C527 C526 1.355 1_545 S
C527 C529 1.419 . S
C528 C526 1.415 . S
C528 C533 1.425 1_565 S
C528 C535 1.409 . S
C529 H521 0.930 . S
C529 C527 1.419 . S
C529 C530 1.362 . S
C530 H522 0.930 . S
C530 C529 1.362 . S
C530 C533 1.409 . S
C531 H523 0.930 . S
C531 C532 1.355 . S
C531 C533 1.415 . S
C532 C531 1.355 . S
C532 C534 1.419 1_545 S
C533 C528 1.425 1_545 S
C533 C530 1.409 . S
C533 C531 1.415 . S
C534 H524 0.930 . S
C534 C532 1.419 1_565 S
C534 C535 1.362 . S
C535 H525 0.930 . S
C535 C528 1.409 . S
C535 C534 1.362 . S
H536 C542 0.930 . S
H537 C545 0.930 . S
H538 C546 0.930 . S
H539 C547 0.930 . S
H540 C550 0.930 . S
H541 C551 0.930 . S
C542 H536 0.930 . S
C542 C543 1.355 . S
C542 C544 1.415 . S
C543 C542 1.355 . S
C543 C545 1.419 . S
C544 C542 1.415 . S
C544 C549 1.425 . S
C544 C551 1.409 . S
C545 H537 0.930 . S
C545 C543 1.419 . S
C545 C546 1.362 . S
C546 H538 0.930 . S
C546 C545 1.362 . S
C546 C549 1.409 . S
C547 H539 0.930 . S
C547 C548 1.355 . S
C547 C549 1.415 . S
C548 C547 1.355 . S
C548 C550 1.419 . S
C549 C544 1.425 . S
C549 C546 1.409 . S
C549 C547 1.415 . S
C550 H540 0.930 . S
C550 C548 1.419 . S
C550 C551 1.362 . S
C551 H541 0.930 . S
C551 C544 1.409 . S
C551 C550 1.362 . S
H552 C558 0.930 . S
H553 C561 0.930 . S
H554 C562 0.930 . S
H555 C563 0.930 . S
H556 C566 0.930 . S
H557 C567 0.930 . S
C558 H552 0.930 . S
C558 C559 1.355 . S
C558 C560 1.415 . S
C559 C558 1.355 . S
C559 C561 1.419 . S
C560 C558 1.415 . S
C560 C565 1.425 . S
C560 C567 1.409 . S
C561 H553 0.930 . S
C561 C559 1.419 . S
C561 C562 1.362 . S
C562 H554 0.930 . S
C562 C561 1.362 . S
C562 C565 1.409 . S
C563 H555 0.930 . S
C563 C564 1.355 . S
C563 C565 1.415 . S
C564 C563 1.355 . S
C564 C566 1.419 . S
C565 C560 1.425 . S
C565 C562 1.409 . S
C565 C563 1.415 . S
C566 H556 0.930 . S
C566 C564 1.419 . S
C566 C567 1.362 . S
C567 H557 0.930 . S
C567 C560 1.409 . S
C567 C566 1.362 . S
H568 C574 0.930 . S
H569 C577 0.930 . S
H570 C578 0.930 . S
H571 C579 0.930 . S
H572 C582 0.926 1_455 S
H573 C583 0.930 . S
C574 H568 0.930 . S
C574 C575 1.355 1_455 S
C574 C576 1.415 1_455 S
C575 C574 1.355 1_655 S
C575 C577 1.419 . S
C576 C574 1.415 1_655 S
C576 C581 1.425 . S
C576 C583 1.409 1_655 S
C577 H569 0.930 . S
C577 C575 1.419 . S
C577 C578 1.362 . S
C578 H570 0.930 . S
C578 C577 1.362 . S
C578 C581 1.409 . S
C579 H571 0.930 . S
C579 C580 1.355 . S
C579 C581 1.415 . S
C580 C579 1.355 . S
C580 C582 1.419 . S
C581 C576 1.425 . S
C581 C578 1.409 . S
C581 C579 1.415 . S
C582 H572 0.926 1_655 S
C582 C580 1.419 . S
C582 C583 1.362 1_655 S
C583 H573 0.930 . S
C583 C576 1.409 1_455 S
C583 C582 1.362 1_455 S
H584 C590 0.930 . S
H585 C593 0.930 . S
H586 C594 0.930 . S
H587 C595 0.930 . S
H588 C598 0.930 . S
H589 C599 0.930 . S
C590 H584 0.930 . S
C590 C591 1.355 1_545 S
C590 C592 1.415 . S
C591 C590 1.355 1_565 S
C591 C593 1.419 . S
C592 C590 1.415 . S
C592 C597 1.425 1_545 S
C592 C599 1.409 . S
C593 H585 0.930 . S
C593 C591 1.419 . S
C593 C594 1.362 . S
C594 H586 0.930 . S
C594 C593 1.362 . S
C594 C597 1.409 . S
C595 H587 0.930 . S
C595 C596 1.355 . S
C595 C597 1.415 . S
C596 C595 1.355 . S
C596 C598 1.419 1_565 S
C597 C592 1.425 1_565 S
C597 C594 1.409 . S
C597 C595 1.415 . S
C598 H588 0.930 . S
C598 C596 1.419 1_545 S
C598 C599 1.362 . S
C599 H589 0.930 . S
C599 C592 1.409 . S
C599 C598 1.362 . S
H600 C606 0.930 . S
H601 C609 0.930 . S
H602 C610 0.930 . S
H603 C611 0.930 . S
H604 C614 0.930 . S
H605 C615 0.930 . S
C606 H600 0.930 . S
C606 C607 1.355 . S
C606 C608 1.415 . S
C607 C606 1.355 . S
C607 C609 1.419 . S
C608 C606 1.415 . S
C608 C613 1.425 . S
C608 C615 1.409 . S
C609 H601 0.930 . S
C609 C607 1.419 . S
C609 C610 1.362 . S
C610 H602 0.930 . S
C610 C609 1.362 . S
C610 C613 1.409 . S
C611 H603 0.930 . S
C611 C612 1.355 . S
C611 C613 1.415 . S
C612 C611 1.355 . S
C612 C614 1.419 . S
C613 C608 1.425 . S
C613 C610 1.409 . S
C613 C611 1.415 . S
C614 H604 0.930 . S
C614 C612 1.419 . S
C614 C615 1.362 . S
C615 H605 0.930 . S
C615 C608 1.409 . S
C615 C614 1.362 . S
H616 C622 0.930 . S
H617 C625 0.930 . S
H618 C626 0.930 . S
H619 C627 0.930 . S
H620 C630 0.930 . S
H621 C631 0.930 . S
C622 H616 0.930 . S
C622 C623 1.355 . S
C622 C624 1.415 . S
C623 C622 1.355 . S
C623 C625 1.419 . S
C624 C622 1.415 . S
C624 C629 1.425 . S
C624 C631 1.409 . S
C625 H617 0.930 . S
C625 C623 1.419 . S
C625 C626 1.362 . S
C626 H618 0.930 . S
C626 C625 1.362 . S
C626 C629 1.409 . S
C627 H619 0.930 . S
C627 C628 1.355 . S
C627 C629 1.415 . S
C628 C627 1.355 . S
C628 C630 1.419 . S
C629 C624 1.425 . S
C629 C626 1.409 . S
C629 C627 1.415 . S
C630 H620 0.930 . S
C630 C628 1.419 . S
C630 C631 1.362 . S
C631 H621 0.930 . S
C631 C624 1.409 . S
C631 C630 1.362 . S
C255 C74 1.845 1_565 S
C260 C97 1.968 1_545 S
C276 C137 1.979 . S
C271 C85 1.822 . S
C292 C177 1.972 . S
C287 C52 1.801 . S
C308 C217 1.969 1_455 S
C303 C63 1.864 1_655 S
C324 C106 1.958 . S
C319 C30 1.872 1_565 S
C335 C41 1.831 . S
C340 C146 1.961 . S
C351 C8 1.808 . S
C356 C186 1.975 . S
C367 C19 1.875 1_655 S
C372 C226 1.961 1_655 S
C388 C103 0.661 . S
C383 C62 0.691 1_655 S
C404 C143 0.765 . S
C399 C73 0.728 . S
C420 C183 0.781 . S
C415 C84 0.718 . S
C431 C51 0.718 . S
C436 C223 0.767 . S
C447 C18 0.668 . S
C452 C94 0.660 . S
C468 C134 0.695 . S
C463 C29 0.675 . S
C484 C174 0.718 . S
C479 C40 0.703 . S
C495 C7 0.777 . S
C500 C214 0.747 . S
C511 C60 1.795 . S
C516 C107 2.371 . S
C527 C71 1.728 . S
C532 C147 2.340 . S
C548 C187 2.364 . S
C543 C82 1.817 . S
C564 C227 2.379 . S
C559 C49 1.810 . S
C575 C16 1.920 1_655 S
C580 C98 2.380 . S
C596 C138 2.338 . S
C591 C27 1.923 1_565 S
C612 C178 2.337 . S
C607 C38 1.930 . S
C623 C5 1.912 . S
C628 C218 2.376 . S
