# Generated by pormake.
# Topology gar, (4,6)-cn, num edge types: 1
# Building blocks:
#     Node 0, Type 0, BuildingBlock: GALJAG_clean_sbu_0, # of connection points: 4
#     Node 1, Type 0, BuildingBlock: GALJAG_clean_sbu_0, # of connection points: 4
#     Node 2, Type 0, BuildingBlock: GALJAG_clean_sbu_0, # of connection points: 4
#     Node 3, Type 0, BuildingBlock: GALJAG_clean_sbu_0, # of connection points: 4
#     Node 4, Type 0, BuildingBlock: GALJAG_clean_sbu_0, # of connection points: 4
#     Node 5, Type 0, BuildingBlock: GALJAG_clean_sbu_0, # of connection points: 4
#     Node 6, Type 0, BuildingBlock: GALJAG_clean_sbu_0, # of connection points: 4
#     Node 7, Type 0, BuildingBlock: GALJAG_clean_sbu_0, # of connection points: 4
#     Node 8, Type 0, BuildingBlock: GALJAG_clean_sbu_0, # of connection points: 4
#     Node 9, Type 0, BuildingBlock: GALJAG_clean_sbu_0, # of connection points: 4
#     Node 10, Type 0, BuildingBlock: GALJAG_clean_sbu_0, # of connection points: 4
#     Node 11, Type 0, BuildingBlock: GALJAG_clean_sbu_0, # of connection points: 4
#     Node 12, Type 0, BuildingBlock: GALJAG_clean_sbu_0, # of connection points: 4
#     Node 13, Type 0, BuildingBlock: GALJAG_clean_sbu_0, # of connection points: 4
#     Node 14, Type 0, BuildingBlock: GALJAG_clean_sbu_0, # of connection points: 4
#     Node 15, Type 0, BuildingBlock: GALJAG_clean_sbu_0, # of connection points: 4
#     Node 16, Type 0, BuildingBlock: GALJAG_clean_sbu_0, # of connection points: 4
#     Node 17, Type 0, BuildingBlock: GALJAG_clean_sbu_0, # of connection points: 4
#     Node 18, Type 0, BuildingBlock: GALJAG_clean_sbu_0, # of connection points: 4
#     Node 19, Type 0, BuildingBlock: GALJAG_clean_sbu_0, # of connection points: 4
#     Node 20, Type 0, BuildingBlock: GALJAG_clean_sbu_0, # of connection points: 4
#     Node 21, Type 0, BuildingBlock: GALJAG_clean_sbu_0, # of connection points: 4
#     Node 22, Type 0, BuildingBlock: GALJAG_clean_sbu_0, # of connection points: 4
#     Node 23, Type 0, BuildingBlock: GALJAG_clean_sbu_0, # of connection points: 4
#     Node 24, Type 1, BuildingBlock: BETDEL_clean_sbu_0, # of connection points: 6
#     Node 25, Type 1, BuildingBlock: BETDEL_clean_sbu_0, # of connection points: 6
#     Node 26, Type 1, BuildingBlock: BETDEL_clean_sbu_0, # of connection points: 6
#     Node 27, Type 1, BuildingBlock: BETDEL_clean_sbu_0, # of connection points: 6
#     Node 28, Type 1, BuildingBlock: BETDEL_clean_sbu_0, # of connection points: 6
#     Node 29, Type 1, BuildingBlock: BETDEL_clean_sbu_0, # of connection points: 6
#     Node 30, Type 1, BuildingBlock: BETDEL_clean_sbu_0, # of connection points: 6
#     Node 31, Type 1, BuildingBlock: BETDEL_clean_sbu_0, # of connection points: 6
#     Node 32, Type 1, BuildingBlock: BETDEL_clean_sbu_0, # of connection points: 6
#     Node 33, Type 1, BuildingBlock: BETDEL_clean_sbu_0, # of connection points: 6
#     Node 34, Type 1, BuildingBlock: BETDEL_clean_sbu_0, # of connection points: 6
#     Node 35, Type 1, BuildingBlock: BETDEL_clean_sbu_0, # of connection points: 6
#     Node 36, Type 1, BuildingBlock: BETDEL_clean_sbu_0, # of connection points: 6
#     Node 37, Type 1, BuildingBlock: BETDEL_clean_sbu_0, # of connection points: 6
#     Node 38, Type 1, BuildingBlock: BETDEL_clean_sbu_0, # of connection points: 6
#     Node 39, Type 1, BuildingBlock: BETDEL_clean_sbu_0, # of connection points: 6
#     Edge 40, Type (0, 1), BuildingBlock: TEMPAE_clean_linker_10, # of connection points: 2
#     Edge 41, Type (0, 1), BuildingBlock: TEMPAE_clean_linker_10, # of connection points: 2
#     Edge 42, Type (0, 1), BuildingBlock: TEMPAE_clean_linker_10, # of connection points: 2
#     Edge 43, Type (0, 1), BuildingBlock: TEMPAE_clean_linker_10, # of connection points: 2
#     Edge 44, Type (0, 1), BuildingBlock: TEMPAE_clean_linker_10, # of connection points: 2
#     Edge 45, Type (0, 1), BuildingBlock: TEMPAE_clean_linker_10, # of connection points: 2
#     Edge 46, Type (0, 1), BuildingBlock: TEMPAE_clean_linker_10, # of connection points: 2
#     Edge 47, Type (0, 1), BuildingBlock: TEMPAE_clean_linker_10, # of connection points: 2
#     Edge 48, Type (0, 1), BuildingBlock: TEMPAE_clean_linker_10, # of connection points: 2
#     Edge 49, Type (0, 1), BuildingBlock: TEMPAE_clean_linker_10, # of connection points: 2
#     Edge 50, Type (0, 1), BuildingBlock: TEMPAE_clean_linker_10, # of connection points: 2
#     Edge 51, Type (0, 1), BuildingBlock: TEMPAE_clean_linker_10, # of connection points: 2
#     Edge 52, Type (0, 1), BuildingBlock: TEMPAE_clean_linker_10, # of connection points: 2
#     Edge 53, Type (0, 1), BuildingBlock: TEMPAE_clean_linker_10, # of connection points: 2
#     Edge 54, Type (0, 1), BuildingBlock: TEMPAE_clean_linker_10, # of connection points: 2
#     Edge 55, Type (0, 1), BuildingBlock: TEMPAE_clean_linker_10, # of connection points: 2
#     Edge 56, Type (0, 1), BuildingBlock: TEMPAE_clean_linker_10, # of connection points: 2
#     Edge 57, Type (0, 1), BuildingBlock: TEMPAE_clean_linker_10, # of connection points: 2
#     Edge 58, Type (0, 1), BuildingBlock: TEMPAE_clean_linker_10, # of connection points: 2
#     Edge 59, Type (0, 1), BuildingBlock: TEMPAE_clean_linker_10, # of connection points: 2
#     Edge 60, Type (0, 1), BuildingBlock: TEMPAE_clean_linker_10, # of connection points: 2
#     Edge 61, Type (0, 1), BuildingBlock: TEMPAE_clean_linker_10, # of connection points: 2
#     Edge 62, Type (0, 1), BuildingBlock: TEMPAE_clean_linker_10, # of connection points: 2
#     Edge 63, Type (0, 1), BuildingBlock: TEMPAE_clean_linker_10, # of connection points: 2
#     Edge 64, Type (0, 1), BuildingBlock: TEMPAE_clean_linker_10, # of connection points: 2
#     Edge 65, Type (0, 1), BuildingBlock: TEMPAE_clean_linker_10, # of connection points: 2
#     Edge 66, Type (0, 1), BuildingBlock: TEMPAE_clean_linker_10, # of connection points: 2
#     Edge 67, Type (0, 1), BuildingBlock: TEMPAE_clean_linker_10, # of connection points: 2
#     Edge 68, Type (0, 1), BuildingBlock: TEMPAE_clean_linker_10, # of connection points: 2
#     Edge 69, Type (0, 1), BuildingBlock: TEMPAE_clean_linker_10, # of connection points: 2
#     Edge 70, Type (0, 1), BuildingBlock: TEMPAE_clean_linker_10, # of connection points: 2
#     Edge 71, Type (0, 1), BuildingBlock: TEMPAE_clean_linker_10, # of connection points: 2
#     Edge 72, Type (0, 1), BuildingBlock: TEMPAE_clean_linker_10, # of connection points: 2
#     Edge 73, Type (0, 1), BuildingBlock: TEMPAE_clean_linker_10, # of connection points: 2
#     Edge 74, Type (0, 1), BuildingBlock: TEMPAE_clean_linker_10, # of connection points: 2
#     Edge 75, Type (0, 1), BuildingBlock: TEMPAE_clean_linker_10, # of connection points: 2
#     Edge 76, Type (0, 1), BuildingBlock: TEMPAE_clean_linker_10, # of connection points: 2
#     Edge 77, Type (0, 1), BuildingBlock: TEMPAE_clean_linker_10, # of connection points: 2
#     Edge 78, Type (0, 1), BuildingBlock: TEMPAE_clean_linker_10, # of connection points: 2
#     Edge 79, Type (0, 1), BuildingBlock: TEMPAE_clean_linker_10, # of connection points: 2
#     Edge 80, Type (0, 1), BuildingBlock: TEMPAE_clean_linker_10, # of connection points: 2
#     Edge 81, Type (0, 1), BuildingBlock: TEMPAE_clean_linker_10, # of connection points: 2
#     Edge 82, Type (0, 1), BuildingBlock: TEMPAE_clean_linker_10, # of connection points: 2
#     Edge 83, Type (0, 1), BuildingBlock: TEMPAE_clean_linker_10, # of connection points: 2
#     Edge 84, Type (0, 1), BuildingBlock: TEMPAE_clean_linker_10, # of connection points: 2
#     Edge 85, Type (0, 1), BuildingBlock: TEMPAE_clean_linker_10, # of connection points: 2
#     Edge 86, Type (0, 1), BuildingBlock: TEMPAE_clean_linker_10, # of connection points: 2
#     Edge 87, Type (0, 1), BuildingBlock: TEMPAE_clean_linker_10, # of connection points: 2
#     Edge 88, Type (0, 1), BuildingBlock: TEMPAE_clean_linker_10, # of connection points: 2
#     Edge 89, Type (0, 1), BuildingBlock: TEMPAE_clean_linker_10, # of connection points: 2
#     Edge 90, Type (0, 1), BuildingBlock: TEMPAE_clean_linker_10, # of connection points: 2
#     Edge 91, Type (0, 1), BuildingBlock: TEMPAE_clean_linker_10, # of connection points: 2
#     Edge 92, Type (0, 1), BuildingBlock: TEMPAE_clean_linker_10, # of connection points: 2
#     Edge 93, Type (0, 1), BuildingBlock: TEMPAE_clean_linker_10, # of connection points: 2
#     Edge 94, Type (0, 1), BuildingBlock: TEMPAE_clean_linker_10, # of connection points: 2
#     Edge 95, Type (0, 1), BuildingBlock: TEMPAE_clean_linker_10, # of connection points: 2
#     Edge 96, Type (0, 1), BuildingBlock: TEMPAE_clean_linker_10, # of connection points: 2
#     Edge 97, Type (0, 1), BuildingBlock: TEMPAE_clean_linker_10, # of connection points: 2
#     Edge 98, Type (0, 1), BuildingBlock: TEMPAE_clean_linker_10, # of connection points: 2
#     Edge 99, Type (0, 1), BuildingBlock: TEMPAE_clean_linker_10, # of connection points: 2
#     Edge 100, Type (0, 1), BuildingBlock: TEMPAE_clean_linker_10, # of connection points: 2
#     Edge 101, Type (0, 1), BuildingBlock: TEMPAE_clean_linker_10, # of connection points: 2
#     Edge 102, Type (0, 1), BuildingBlock: TEMPAE_clean_linker_10, # of connection points: 2
#     Edge 103, Type (0, 1), BuildingBlock: TEMPAE_clean_linker_10, # of connection points: 2
#     Edge 104, Type (0, 1), BuildingBlock: TEMPAE_clean_linker_10, # of connection points: 2
#     Edge 105, Type (0, 1), BuildingBlock: TEMPAE_clean_linker_10, # of connection points: 2
#     Edge 106, Type (0, 1), BuildingBlock: TEMPAE_clean_linker_10, # of connection points: 2
#     Edge 107, Type (0, 1), BuildingBlock: TEMPAE_clean_linker_10, # of connection points: 2
#     Edge 108, Type (0, 1), BuildingBlock: TEMPAE_clean_linker_10, # of connection points: 2
#     Edge 109, Type (0, 1), BuildingBlock: TEMPAE_clean_linker_10, # of connection points: 2
#     Edge 110, Type (0, 1), BuildingBlock: TEMPAE_clean_linker_10, # of connection points: 2
#     Edge 111, Type (0, 1), BuildingBlock: TEMPAE_clean_linker_10, # of connection points: 2
#     Edge 112, Type (0, 1), BuildingBlock: TEMPAE_clean_linker_10, # of connection points: 2
#     Edge 113, Type (0, 1), BuildingBlock: TEMPAE_clean_linker_10, # of connection points: 2
#     Edge 114, Type (0, 1), BuildingBlock: TEMPAE_clean_linker_10, # of connection points: 2
#     Edge 115, Type (0, 1), BuildingBlock: TEMPAE_clean_linker_10, # of connection points: 2
#     Edge 116, Type (0, 1), BuildingBlock: TEMPAE_clean_linker_10, # of connection points: 2
#     Edge 117, Type (0, 1), BuildingBlock: TEMPAE_clean_linker_10, # of connection points: 2
#     Edge 118, Type (0, 1), BuildingBlock: TEMPAE_clean_linker_10, # of connection points: 2
#     Edge 119, Type (0, 1), BuildingBlock: TEMPAE_clean_linker_10, # of connection points: 2
#     Edge 120, Type (0, 1), BuildingBlock: TEMPAE_clean_linker_10, # of connection points: 2
#     Edge 121, Type (0, 1), BuildingBlock: TEMPAE_clean_linker_10, # of connection points: 2
#     Edge 122, Type (0, 1), BuildingBlock: TEMPAE_clean_linker_10, # of connection points: 2
#     Edge 123, Type (0, 1), BuildingBlock: TEMPAE_clean_linker_10, # of connection points: 2
#     Edge 124, Type (0, 1), BuildingBlock: TEMPAE_clean_linker_10, # of connection points: 2
#     Edge 125, Type (0, 1), BuildingBlock: TEMPAE_clean_linker_10, # of connection points: 2
#     Edge 126, Type (0, 1), BuildingBlock: TEMPAE_clean_linker_10, # of connection points: 2
#     Edge 127, Type (0, 1), BuildingBlock: TEMPAE_clean_linker_10, # of connection points: 2
#     Edge 128, Type (0, 1), BuildingBlock: TEMPAE_clean_linker_10, # of connection points: 2
#     Edge 129, Type (0, 1), BuildingBlock: TEMPAE_clean_linker_10, # of connection points: 2
#     Edge 130, Type (0, 1), BuildingBlock: TEMPAE_clean_linker_10, # of connection points: 2
#     Edge 131, Type (0, 1), BuildingBlock: TEMPAE_clean_linker_10, # of connection points: 2
#     Edge 132, Type (0, 1), BuildingBlock: TEMPAE_clean_linker_10, # of connection points: 2
#     Edge 133, Type (0, 1), BuildingBlock: TEMPAE_clean_linker_10, # of connection points: 2
#     Edge 134, Type (0, 1), BuildingBlock: TEMPAE_clean_linker_10, # of connection points: 2
#     Edge 135, Type (0, 1), BuildingBlock: TEMPAE_clean_linker_10, # of connection points: 2
# Relax obj value: 0.162
# Max RMSD: 0.265
# Mean RMSD: 0.166
data_MOF--net-gar--node1-GALJAG_clean_sbu_0--node2-BETDEL_clean_sbu_0--edge1-TEMPAE_clean_linker_10
_symmetry_space_group_name_H-M    P1
_symmetry_Int_Tables_number       1
_symmetry_cell_setting            triclinic
loop_
_symmetry_equiv_pos_as_xyz
'x, y, z'
_cell_length_a     56.664832
_cell_length_b     53.846661
_cell_length_c     55.313545
_cell_angle_alpha  95.26864
_cell_angle_beta   92.472116
_cell_angle_gamma 100.36244
loop_
_atom_site_label
_atom_site_type_symbol
_atom_site_fract_x
_atom_site_fract_y
_atom_site_fract_z
_atom_type_partial_charge
In0 In 0.04027 0.28118 0.40776 0.0
O1 O 0.05274 0.27059 0.36996 0.0
O2 O 0.07943 0.28582 0.39819 0.0
C3 C 0.00073 0.28534 0.38057 0.0
C4 C 0.03677 0.24082 0.43428 0.0
C5 C 0.0466 0.32345 0.43948 0.0
O6 O 0.01637 0.30423 0.38897 0.0
O7 O 0.0054 0.26413 0.38519 0.0
O8 O 0.03205 0.30348 0.44243 0.0
O9 O 0.05865 0.32184 0.42097 0.0
C10 C 0.07484 0.27739 0.37612 0.0
O11 O 0.05628 0.25102 0.42629 0.0
O12 O 0.01908 0.25085 0.42882 0.0
In13 In 0.9957 0.76992 0.63237 0.0
O14 O 0.01008 0.79378 0.6022 0.0
O15 O 0.9884 0.80971 0.62733 0.0
C16 C 0.98027 0.72811 0.60108 0.0
C17 C 0.03925 0.76535 0.65223 0.0
C18 C 0.96062 0.76995 0.6639 0.0
O19 O 0.98939 0.74924 0.59421 0.0
O20 O 0.97831 0.72824 0.62372 0.0
O21 O 0.98245 0.77201 0.67095 0.0
O22 O 0.95668 0.76814 0.64112 0.0
C23 C 0.00023 0.81231 0.60865 0.0
O24 O 0.02543 0.74762 0.63951 0.0
O25 O 0.03105 0.78562 0.65543 0.0
In26 In 0.53607 0.77104 0.90296 0.0
O27 O 0.5491 0.76183 0.86505 0.0
O28 O 0.57532 0.77632 0.89392 0.0
C29 C 0.49655 0.77881 0.87753 0.0
C30 C 0.53115 0.72918 0.92755 0.0
C31 C 0.54589 0.8112 0.93715 0.0
O32 O 0.51168 0.79651 0.88886 0.0
O33 O 0.50159 0.75698 0.87841 0.0
O34 O 0.5319 0.79088 0.94022 0.0
O35 O 0.55551 0.81107 0.91701 0.0
C36 C 0.57113 0.76853 0.87166 0.0
O37 O 0.54989 0.73723 0.91705 0.0
O38 O 0.5147 0.74186 0.92523 0.0
In39 In 0.49683 0.26349 0.13123 0.0
O40 O 0.48204 0.23244 0.10054 0.0
O41 O 0.49985 0.22213 0.1317 0.0
C42 C 0.49731 0.30487 0.10659 0.0
C43 C 0.45969 0.26064 0.16065 0.0
C44 C 0.54362 0.26807 0.14589 0.0
O45 O 0.49736 0.28305 0.0962 0.0
O46 O 0.49691 0.30588 0.12944 0.0
O47 O 0.52793 0.27241 0.16048 0.0
O48 O 0.53582 0.26259 0.12402 0.0
C49 C 0.4896 0.21517 0.11088 0.0
O50 O 0.48136 0.26557 0.16879 0.0
O51 O 0.45684 0.25741 0.13775 0.0
In52 In 0.03787 0.79128 0.1503 0.0
O53 O 0.05106 0.76466 0.1215 0.0
O54 O 0.02803 0.748 0.14722 0.0
C55 C 0.0349 0.82606 0.11866 0.0
C56 C 0.99801 0.79525 0.17451 0.0
C57 C 0.07874 0.79944 0.17918 0.0
O58 O 0.04299 0.83196 0.14042 0.0
O59 O 0.02829 0.80256 0.11279 0.0
O60 O 0.05944 0.78602 0.18453 0.0
O61 O 0.07749 0.80877 0.15917 0.0
C62 C 0.04013 0.74455 0.12899 0.0
O63 O 0.01871 0.80671 0.18224 0.0
O64 O 0.99737 0.78172 0.15453 0.0
In65 In 0.50171 0.75632 0.37919 0.0
O66 O 0.52048 0.74102 0.34684 0.0
O67 O 0.54203 0.76582 0.37458 0.0
C68 C 0.46058 0.75039 0.35099 0.0
C69 C 0.50484 0.72108 0.41026 0.0
C70 C 0.50111 0.80279 0.40181 0.0
O71 O 0.48027 0.76286 0.34541 0.0
O72 O 0.46159 0.74067 0.37081 0.0
O73 O 0.4893 0.78274 0.4086 0.0
O74 O 0.51315 0.79941 0.38352 0.0
C75 C 0.54123 0.75249 0.35448 0.0
O76 O 0.51123 0.74454 0.41638 0.0
O77 O 0.49676 0.71535 0.38846 0.0
In78 In 0.54128 0.29445 0.65104 0.0
O79 O 0.53006 0.25137 0.64445 0.0
O80 O 0.55644 0.2694 0.62246 0.0
C81 C 0.53924 0.33058 0.62079 0.0
C82 C 0.50128 0.297 0.67536 0.0
C83 C 0.58178 0.30134 0.68014 0.0
O84 O 0.53379 0.30723 0.61371 0.0
O85 O 0.54553 0.33565 0.6431 0.0
O86 O 0.56301 0.28598 0.68381 0.0
O87 O 0.58013 0.31332 0.66179 0.0
C88 C 0.54396 0.2489 0.62753 0.0
O89 O 0.52206 0.30715 0.68408 0.0
O90 O 0.50065 0.2855 0.65435 0.0
In91 In 0.00365 0.25439 0.87785 0.0
O92 O 0.01021 0.24089 0.91503 0.0
O93 O 0.99772 0.21289 0.88551 0.0
C94 C 0.00234 0.2989 0.90386 0.0
C95 C 0.04326 0.25127 0.85293 0.0
C96 C 0.96384 0.25116 0.8483 0.0
O97 O 0.98847 0.27851 0.90714 0.0
O98 O 0.01686 0.29681 0.88742 0.0
O99 O 0.98182 0.26879 0.84847 0.0
O100 O 0.96591 0.23503 0.86304 0.0
C101 C 0.00409 0.21763 0.90783 0.0
O102 O 0.02228 0.24248 0.84401 0.0
O103 O 0.0443 0.26173 0.87438 0.0
In104 In 0.41111 0.05746 0.29377 0.0
O105 O 0.4441 0.05354 0.27279 0.0
O106 O 0.42005 0.07557 0.25889 0.0
C107 C 0.43544 0.06914 0.3375 0.0
C108 C 0.37352 0.08123 0.298 0.0
C109 C 0.39194 0.00854 0.27995 0.0
O110 O 0.44119 0.08104 0.31943 0.0
O111 O 0.41713 0.05183 0.33363 0.0
O112 O 0.38499 0.02675 0.27077 0.0
O113 O 0.40936 0.0149 0.29564 0.0
C114 C 0.43908 0.0668 0.25633 0.0
O115 O 0.37236 0.05827 0.3014 0.0
O116 O 0.3941 0.09275 0.29363 0.0
In117 In 0.27115 0.14603 0.49795 0.0
O118 O 0.27642 0.18244 0.52443 0.0
O119 O 0.2699 0.14709 0.53922 0.0
C120 C 0.27457 0.1722 0.45817 0.0
C121 C 0.31073 0.12449 0.49561 0.0
C122 C 0.22681 0.11612 0.49514 0.0
O123 O 0.26762 0.18089 0.47807 0.0
O124 O 0.27964 0.15035 0.45832 0.0
O125 O 0.24527 0.10962 0.50414 0.0
O126 O 0.23068 0.13753 0.4871 0.0
C127 C 0.2736 0.17092 0.54326 0.0
O128 O 0.29043 0.11365 0.48607 0.0
O129 O 0.31115 0.14636 0.50626 0.0
In130 In 0.15518 0.01666 0.79201 0.0
O131 O 0.14718 0.04055 0.762 0.0
O132 O 0.12925 0.00219 0.75821 0.0
C133 C 0.12438 0.00831 0.82783 0.0
C134 C 0.17951 0.97757 0.7847 0.0
C135 C 0.18523 0.06141 0.80531 0.0
O136 O 0.1173 0.00943 0.80604 0.0
O137 O 0.14691 0.01128 0.83148 0.0
O138 O 0.1631 0.05792 0.80881 0.0
O139 O 0.19246 0.04192 0.79638 0.0
C140 C 0.13288 0.02323 0.74926 0.0
O141 O 0.18048 0.99501 0.77087 0.0
O142 O 0.16606 0.97962 0.80205 0.0
In143 In 0.24586 0.88781 -0.00011 0.0
O144 O 0.22749 0.85445 0.01876 0.0
O145 O 0.24693 0.88672 0.04076 0.0
C146 C 0.24111 0.85502 0.95958 0.0
C147 C 0.21752 0.92296 0.00191 0.0
C148 C 0.29301 0.90712 -0.0003 0.0
O149 O 0.23183 0.87468 0.96067 0.0
O150 O 0.25257 0.85201 0.97876 0.0
O151 O 0.27763 0.91314 0.98524 0.0
O152 O 0.28454 0.89163 0.01426 0.0
C153 C 0.23473 0.86458 0.03986 0.0
O154 O 0.24007 0.92866 0.00525 0.0
O155 O 0.20929 0.89954 0.99735 0.0
In156 In 0.26566 0.38559 0.03446 0.0
O157 O 0.25662 0.34818 0.05186 0.0
O158 O 0.26391 0.38239 0.0754 0.0
C159 C 0.26376 0.36285 0.98825 0.0
C160 C 0.22885 0.41116 0.0384 0.0
C161 C 0.3112 0.4126 0.0366 0.0
O162 O 0.2704 0.3528 0.00647 0.0
O163 O 0.25744 0.38387 0.99341 0.0
O164 O 0.29308 0.42117 0.02968 0.0
O165 O 0.30642 0.39046 0.04298 0.0
C166 C 0.25844 0.3585 0.07346 0.0
O167 O 0.25042 0.42125 0.04437 0.0
O168 O 0.22567 0.3879 0.03063 0.0
In169 In 0.78261 0.14586 0.03268 0.0
O170 O 0.79173 0.10668 0.03517 0.0
O171 O 0.81999 0.13657 0.02859 0.0
C172 C 0.73661 0.12317 0.0362 0.0
C173 C 0.79953 0.17976 0.07108 0.0
C174 C 0.77935 0.16815 0.99128 0.0
O175 O 0.75039 0.11436 0.02178 0.0
O176 O 0.74601 0.1434 0.04899 0.0
O177 O 0.77006 0.17496 0.01046 0.0
O178 O 0.79007 0.14972 0.99277 0.0
C179 C 0.81358 0.11333 0.0312 0.0
O180 O 0.80014 0.1852 0.04943 0.0
O181 O 0.79108 0.15681 0.07344 0.0
In182 In 0.13951 0.5007 0.24594 0.0
O183 O 0.17752 0.49477 0.25406 0.0
O184 O 0.15084 0.46199 0.24396 0.0
C185 C 0.16243 0.54913 0.25061 0.0
C186 C 0.1153 0.49001 0.20203 0.0
C187 C 0.1106 0.49703 0.28325 0.0
O188 O 0.16878 0.5321 0.23646 0.0
O189 O 0.14397 0.54188 0.26195 0.0
O190 O 0.13193 0.49332 0.28493 0.0
O191 O 0.10386 0.50259 0.26274 0.0
C192 C 0.17261 0.471 0.25007 0.0
O193 O 0.11346 0.47451 0.21787 0.0
O194 O 0.12966 0.51056 0.20817 0.0
In195 In 0.76796 0.88633 0.53677 0.0
O196 O 0.76162 0.84886 0.55456 0.0
O197 O 0.76519 0.8831 0.5777 0.0
C198 C 0.76503 0.8645 0.4901 0.0
C199 C 0.73061 0.91118 0.54062 0.0
C200 C 0.81346 0.91355 0.53844 0.0
O201 O 0.769 0.85272 0.5081 0.0
O202 O 0.76195 0.88685 0.4957 0.0
O203 O 0.79506 0.92251 0.53332 0.0
O204 O 0.80904 0.89083 0.54331 0.0
C205 C 0.76187 0.8592 0.57602 0.0
O206 O 0.75179 0.9209 0.5485 0.0
O207 O 0.72802 0.88851 0.53111 0.0
In208 In 0.88704 0.03397 0.23839 0.0
O209 O 0.92277 0.03344 0.22076 0.0
O210 O 0.89374 0.04101 0.19882 0.0
C211 C 0.90657 0.02963 0.28347 0.0
C212 C 0.86376 0.07406 0.24233 0.0
C213 C 0.85839 0.98846 0.22561 0.0
O214 O 0.91369 0.04841 0.27189 0.0
O215 O 0.88977 0.01364 0.27253 0.0
O216 O 0.85051 0.00774 0.23413 0.0
O217 O 0.88065 0.99241 0.22252 0.0
C218 C 0.91541 0.0383 0.20016 0.0
O219 O 0.85342 0.0515 0.24354 0.0
O220 O 0.886 0.07659 0.23947 0.0
In221 In 0.29077 0.6516 0.52232 0.0
O222 O 0.30038 0.61328 0.52796 0.0
O223 O 0.3273 0.6411 0.51546 0.0
C224 C 0.24328 0.6324 0.51926 0.0
C225 C 0.30377 0.67961 0.5651 0.0
C226 C 0.29367 0.6792 0.48406 0.0
O227 O 0.25849 0.62073 0.50979 0.0
O228 O 0.25195 0.65394 0.53009 0.0
O229 O 0.29322 0.68861 0.50565 0.0
O230 O 0.29242 0.65545 0.48147 0.0
C231 C 0.32146 0.6188 0.52124 0.0
O232 O 0.31007 0.68699 0.54502 0.0
O233 O 0.29161 0.6574 0.56387 0.0
In234 In 0.38777 0.5348 0.73912 0.0
O235 O 0.35368 0.55193 0.74083 0.0
O236 O 0.38697 0.57742 0.74132 0.0
C237 C 0.35671 0.49003 0.73104 0.0
C238 C 0.41733 0.54193 0.7021 0.0
C239 C 0.41064 0.52893 0.7819 0.0
O240 O 0.35458 0.50706 0.74761 0.0
O241 O 0.37404 0.49594 0.71781 0.0
O242 O 0.40765 0.51261 0.76372 0.0
O243 O 0.40271 0.54884 0.77844 0.0
C244 C 0.36439 0.57468 0.7417 0.0
O245 O 0.42485 0.53992 0.7235 0.0
O246 O 0.39488 0.54049 0.69932 0.0
In247 In 0.62608 0.99344 0.74828 0.0
O248 O 0.66382 0.98882 0.75971 0.0
O249 O 0.63887 0.95553 0.74637 0.0
C250 C 0.64854 0.04076 0.74261 0.0
C251 C 0.5961 0.98451 0.70809 0.0
C252 C 0.60231 0.98657 0.78896 0.0
O253 O 0.65376 0.02133 0.7311 0.0
O254 O 0.63148 0.03634 0.75648 0.0
O255 O 0.59655 0.97221 0.76951 0.0
O256 O 0.62012 0.00412 0.78789 0.0
C257 C 0.65999 0.96514 0.75456 0.0
O258 O 0.59259 0.99835 0.72673 0.0
O259 O 0.61486 0.97506 0.70967 0.0
In260 In 0.76827 0.64377 0.00036 0.0
O261 O 0.78721 0.61137 0.98785 0.0
O262 O 0.80755 0.64238 0.01075 0.0
C263 C 0.72482 0.61216 0.99663 0.0
C264 C 0.77025 0.66956 0.04528 0.0
C265 C 0.77171 0.67055 0.9609 0.0
O266 O 0.7434 0.60681 0.00656 0.0
O267 O 0.72809 0.6334 0.9882 0.0
O268 O 0.76144 0.6771 0.97963 0.0
O269 O 0.78016 0.65054 0.96207 0.0
C270 C 0.80707 0.62097 0.9991 0.0
O271 O 0.77591 0.68052 0.02659 0.0
O272 O 0.76386 0.64585 0.04129 0.0
In273 In 0.91299 0.54331 0.78726 0.0
O274 O 0.87556 0.54973 0.79584 0.0
O275 O 0.89853 0.57903 0.78038 0.0
C276 C 0.89115 0.49432 0.78511 0.0
C277 C 0.93634 0.55093 0.74628 0.0
C278 C 0.94231 0.55417 0.82806 0.0
O279 O 0.88255 0.51071 0.77443 0.0
O280 O 0.9112 0.50246 0.7966 0.0
O281 O 0.94791 0.5429 0.80878 0.0
O282 O 0.92174 0.56001 0.82688 0.0
C283 C 0.87807 0.57116 0.78785 0.0
O284 O 0.93834 0.56767 0.76408 0.0
O285 O 0.92258 0.53041 0.74915 0.0
In286 In 0.75309 0.39541 0.50089 0.0
O287 O 0.7325 0.36479 0.522 0.0
O288 O 0.76192 0.39082 0.54028 0.0
C289 C 0.74679 0.36502 0.45866 0.0
C290 C 0.72446 0.43004 0.50752 0.0
C291 C 0.7997 0.4161 0.49888 0.0
O292 O 0.75447 0.3583 0.47826 0.0
O293 O 0.74197 0.38705 0.46036 0.0
O294 O 0.78306 0.42484 0.48866 0.0
O295 O 0.7928 0.3967 0.50968 0.0
C296 C 0.74564 0.37169 0.54131 0.0
O297 O 0.74695 0.43546 0.51143 0.0
O298 O 0.71632 0.40705 0.50032 0.0
In299 In 0.65732 0.51631 0.2922 0.0
O300 O 0.69129 0.49909 0.28988 0.0
O301 O 0.658 0.47353 0.28789 0.0
C302 C 0.6833 0.56341 0.3038 0.0
C303 C 0.63831 0.51905 0.24663 0.0
C304 C 0.63003 0.51165 0.3312 0.0
O305 O 0.69274 0.54431 0.29825 0.0
O306 O 0.66071 0.55861 0.30442 0.0
O307 O 0.62217 0.51652 0.31082 0.0
O308 O 0.65173 0.50901 0.33198 0.0
C309 C 0.68058 0.47632 0.28781 0.0
O310 O 0.62789 0.50436 0.26097 0.0
O311 O 0.65828 0.53165 0.25504 0.0
Dy312 Dy 0.98968 0.01225 0.00594 0.0
C313 C 0.0927 0.02907 0.0165 0.0
C314 C 0.94174 0.01158 0.00919 0.0
Dy315 Dy 0.04457 0.02793 0.01792 0.0
O316 O 0.9523 0.00936 0.98888 0.0
O317 O 0.95731 0.01351 0.02744 0.0
O318 O 0.99661 0.99006 0.9711 0.0
O319 O 0.02084 0.02296 0.98541 0.0
C320 C 0.01735 0.0046 0.96908 0.0
C321 C 0.01691 0.03594 0.05468 0.0
O322 O 0.03832 0.06401 0.00462 0.0
O323 O 0.99664 0.0549 0.00559 0.0
O324 O 0.08132 0.03124 0.03627 0.0
O325 O 0.07782 0.02693 0.99761 0.0
O326 O 0.03763 0.05041 0.05249 0.0
O327 O 0.01343 0.0174 0.0385 0.0
O328 O 0.99602 0.97604 0.01891 0.0
O329 O 0.03768 0.98526 0.01788 0.0
C330 C 0.01701 0.0708 0.00291 0.0
C331 C 0.01735 0.96931 0.02056 0.0
Dy332 Dy 0.27029 0.77836 0.23676 0.0
C333 C 0.28298 0.77661 0.34039 0.0
C334 C 0.2556 0.78414 0.19069 0.0
Dy335 Dy 0.27261 0.78378 0.29344 0.0
O336 O 0.27453 0.77482 0.19638 0.0
O337 O 0.24518 0.79057 0.21007 0.0
O338 O 0.30017 0.75577 0.23691 0.0
O339 O 0.29815 0.78385 0.26548 0.0
C340 C 0.30895 0.76632 0.25836 0.0
C341 C 0.23363 0.79499 0.27151 0.0
O342 O 0.29223 0.82247 0.28836 0.0
O343 O 0.2849 0.8201 0.2462 0.0
O344 O 0.26241 0.78068 0.33196 0.0
O345 O 0.29795 0.77702 0.3233 0.0
O346 O 0.24254 0.80616 0.29268 0.0
O347 O 0.24476 0.77764 0.26473 0.0
O348 O 0.24975 0.74051 0.24246 0.0
O349 O 0.26173 0.74144 0.28336 0.0
C350 C 0.29337 0.83284 0.26748 0.0
C351 C 0.25127 0.7292 0.26258 0.0
Dy352 Dy 0.55464 0.02619 0.51702 0.0
C353 C 0.45627 0.04129 0.50232 0.0
C354 C 0.59684 0.01081 0.52831 0.0
Dy355 Dy 0.49938 0.02723 0.51211 0.0
O356 O 0.59246 0.02185 0.50909 0.0
O357 O 0.57841 0.00885 0.54163 0.0
O358 O 0.56086 0.05287 0.48792 0.0
O359 O 0.52825 0.0266 0.48777 0.0
C360 C 0.53921 0.04513 0.478 0.0
C361 C 0.51535 0.00929 0.55183 0.0
O362 O 0.49885 0.99039 0.49003 0.0
O363 O 0.53717 0.9858 0.50374 0.0
O364 O 0.46086 0.02806 0.51986 0.0
O365 O 0.47509 0.04629 0.48974 0.0
O366 O 0.49371 0.00125 0.54203 0.0
O367 O 0.52588 0.02737 0.54125 0.0
O368 O 0.5553 0.06369 0.53822 0.0
O369 O 0.51654 0.06769 0.52514 0.0
C370 C 0.51588 0.97659 0.49213 0.0
C371 C 0.53801 0.07724 0.53621 0.0
Dy372 Dy 0.24449 0.27041 0.76119 0.0
C373 C 0.34719 0.29057 0.75908 0.0
C374 C 0.19673 0.25744 0.76849 0.0
Dy375 Dy 0.29955 0.27717 0.76673 0.0
O376 O 0.20673 0.2779 0.75945 0.0
O377 O 0.21277 0.24378 0.77304 0.0
O378 O 0.24791 0.3026 0.73767 0.0
O379 O 0.2741 0.30269 0.76581 0.0
C380 C 0.26857 0.31394 0.74799 0.0
C381 C 0.2755 0.23402 0.78049 0.0
O382 O 0.29387 0.29701 0.80275 0.0
O383 O 0.25281 0.2812 0.80146 0.0
O384 O 0.33775 0.27103 0.76984 0.0
O385 O 0.33067 0.30307 0.75301 0.0
O386 O 0.2962 0.24542 0.79072 0.0
O387 O 0.27003 0.24494 0.76242 0.0
O388 O 0.24977 0.25073 0.7251 0.0
O389 O 0.29116 0.26472 0.7266 0.0
C390 C 0.27316 0.29303 0.81343 0.0
C391 C 0.27058 0.25351 0.71462 0.0
Dy392 Dy 0.00832 0.01293 0.48991 0.0
C393 C 0.05885 0.0455 0.58554 0.0
C394 C 0.98116 0.00587 0.44692 0.0
Dy395 Dy 0.02888 0.03487 0.54465 0.0
O396 O 0.00177 0.99882 0.45008 0.0
O397 O 0.97507 0.01587 0.46746 0.0
O398 O 0.04533 0.00622 0.48128 0.0
O399 O 0.04139 0.03507 0.50792 0.0
C400 C 0.05636 0.02327 0.49822 0.0
C401 C 0.98104 0.01656 0.54192 0.0
O402 O 0.02828 0.07168 0.52865 0.0
O403 O 0.00896 0.05491 0.49076 0.0
O404 O 0.03953 0.055 0.58201 0.0
O405 O 0.06224 0.03109 0.56628 0.0
O406 O 0.9929 0.02685 0.56208 0.0
O407 O 0.9956 0.01802 0.52551 0.0
O408 O 0.00351 0.97733 0.50849 0.0
O409 O 0.03157 0.99352 0.54085 0.0
C410 C 0.0183 0.0744 0.507 0.0
C411 C 0.01722 0.97427 0.52773 0.0
Dy412 Dy 0.29763 0.78922 0.7687 0.0
C413 C 0.20406 0.75257 0.71996 0.0
C414 C 0.33962 0.79994 0.79702 0.0
Dy415 Dy 0.24696 0.76386 0.74673 0.0
O416 O 0.33685 0.80658 0.77525 0.0
O417 O 0.31922 0.78817 0.80363 0.0
O418 O 0.30811 0.80209 0.73261 0.0
O419 O 0.28302 0.76883 0.73397 0.0
C420 C 0.29289 0.78414 0.71998 0.0
C421 C 0.25252 0.76883 0.79533 0.0
O422 O 0.26513 0.73016 0.74202 0.0
O423 O 0.297 0.74722 0.77002 0.0
O424 O 0.20828 0.74434 0.74078 0.0
O425 O 0.22356 0.76623 0.71337 0.0
O426 O 0.23749 0.75044 0.78309 0.0
O427 O 0.26164 0.78428 0.78117 0.0
O428 O 0.28011 0.82352 0.77207 0.0
O429 O 0.24708 0.8057 0.74575 0.0
C430 C 0.28402 0.72767 0.75606 0.0
C431 C 0.2605 0.82559 0.75887 0.0
Dy432 Dy 0.51383 0.0144 0.05095 0.0
C433 C 0.52371 0.99325 0.94559 0.0
C434 C 0.50457 0.0309 0.09661 0.0
Dy435 Dy 0.51752 0.01071 0.99193 0.0
O436 O 0.51699 0.04498 0.08197 0.0
O437 O 0.4976 0.00784 0.08639 0.0
O438 O 0.52851 0.97794 0.05571 0.0
O439 O 0.5248 0.99136 0.02242 0.0
C440 C 0.53088 0.97352 0.03246 0.0
C441 C 0.50749 0.05346 0.01405 0.0
O442 O 0.48167 0.98633 0.99581 0.0
O443 O 0.47598 0.9988 0.03661 0.0
O444 O 0.50908 0.00858 0.95164 0.0
O445 O 0.5349 0.98772 0.96479 0.0
O446 O 0.518 0.05286 0.99352 0.0
O447 O 0.50114 0.03136 0.01987 0.0
O448 O 0.54987 0.03823 0.04683 0.0
O449 O 0.55523 0.02725 0.00555 0.0
C450 C 0.46817 0.98664 0.01489 0.0
C451 C 0.56307 0.03864 0.02751 0.0
Dy452 Dy 0.27095 0.29197 0.27034 0.0
C453 C 0.2546 0.18375 0.26226 0.0
C454 C 0.27311 0.34241 0.26763 0.0
Dy455 Dy 0.25671 0.23411 0.2584 0.0
O456 O 0.27499 0.33198 0.28774 0.0
O457 O 0.27039 0.32528 0.24915 0.0
O458 O 0.29167 0.28668 0.30457 0.0
O459 O 0.26089 0.26016 0.29128 0.0
C460 C 0.27815 0.26489 0.30717 0.0
C461 C 0.24989 0.26156 0.2217 0.0
O462 O 0.22179 0.24118 0.27158 0.0
O463 O 0.23054 0.28517 0.27243 0.0
O464 O 0.25641 0.19419 0.24196 0.0
O465 O 0.25345 0.20081 0.28004 0.0
O466 O 0.23609 0.23985 0.22408 0.0
O467 O 0.26706 0.26587 0.23762 0.0
O468 O 0.30559 0.28491 0.25661 0.0
O469 O 0.29733 0.24111 0.25743 0.0
C470 C 0.21536 0.26368 0.27462 0.0
C471 C 0.31235 0.26255 0.25458 0.0
Dy472 Dy 0.50828 0.50652 0.98898 0.0
C473 C 0.55979 0.53723 0.08377 0.0
C474 C 0.48665 0.50107 0.94318 0.0
Dy475 Dy 0.52836 0.52798 0.04394 0.0
O476 O 0.50934 0.50921 0.94883 0.0
O477 O 0.47565 0.49502 0.96259 0.0
O478 O 0.54507 0.49761 0.98258 0.0
O479 O 0.54131 0.52807 0.00755 0.0
C480 C 0.55612 0.51545 0.9988 0.0
C481 C 0.48036 0.51175 0.04078 0.0
O482 O 0.52823 0.56461 0.02752 0.0
O483 O 0.5037 0.54721 0.99274 0.0
O484 O 0.56121 0.52167 0.0647 0.0
O485 O 0.54152 0.54857 0.08072 0.0
O486 O 0.49227 0.52157 0.0611 0.0
O487 O 0.495 0.5126 0.02439 0.0
O488 O 0.50304 0.47026 0.00616 0.0
O489 O 0.52899 0.48596 0.04046 0.0
C490 C 0.51529 0.56699 0.00744 0.0
C491 C 0.51533 0.46699 0.02626 0.0
Dy492 Dy 0.79924 0.28833 0.27072 0.0
C493 C 0.70844 0.25593 0.21234 0.0
C494 C 0.84318 0.29699 0.29535 0.0
Dy495 Dy 0.74662 0.26385 0.24539 0.0
O496 O 0.83929 0.29202 0.27199 0.0
O497 O 0.82297 0.29769 0.30546 0.0
O498 O 0.80825 0.30559 0.23593 0.0
O499 O 0.78358 0.27172 0.23499 0.0
C500 C 0.79312 0.28844 0.2222 0.0
C501 C 0.74654 0.27025 0.29427 0.0
O502 O 0.7647 0.22993 0.24214 0.0
O503 O 0.79673 0.24611 0.27086 0.0
O504 O 0.71224 0.24006 0.22793 0.0
O505 O 0.72593 0.27539 0.21438 0.0
O506 O 0.72726 0.26054 0.28056 0.0
O507 O 0.76357 0.27421 0.28064 0.0
O508 O 0.7806 0.32122 0.27755 0.0
O509 O 0.74907 0.30631 0.24812 0.0
C510 C 0.78356 0.22716 0.25622 0.0
C511 C 0.76152 0.32437 0.26416 0.0
Dy512 Dy 0.01967 0.5365 0.5419 0.0
C513 C 0.02634 0.52117 0.43547 0.0
C514 C 0.01117 0.55539 0.58716 0.0
Dy515 Dy 0.01809 0.53083 0.48303 0.0
O516 O 0.0292 0.54426 0.58203 0.0
O517 O 0.99796 0.55621 0.56755 0.0
O518 O 0.02951 0.49796 0.54691 0.0
O519 O 0.02413 0.50962 0.51284 0.0
C520 C 0.0293 0.49165 0.52356 0.0
C521 C 0.00158 0.5698 0.50541 0.0
O522 O 0.98388 0.50563 0.48921 0.0
O523 O 0.98112 0.51937 0.53027 0.0
O524 O 0.02882 0.5437 0.44707 0.0
O525 O 0.01915 0.50391 0.44983 0.0
O526 O 0.99312 0.55922 0.4839 0.0
O527 O 0.01908 0.56038 0.51243 0.0
O528 O 0.05622 0.55733 0.53552 0.0
O529 O 0.05731 0.54345 0.49417 0.0
C530 C 0.97191 0.50646 0.50927 0.0
C531 C 0.06774 0.55506 0.51523 0.0
Dy532 Dy 0.74209 0.77312 0.2618 0.0
C533 C 0.8449 0.79295 0.25944 0.0
C534 C 0.69447 0.75959 0.26944 0.0
Dy535 Dy 0.79735 0.77964 0.26753 0.0
O536 O 0.70408 0.77997 0.25999 0.0
O537 O 0.71082 0.74637 0.27419 0.0
O538 O 0.74586 0.80478 0.23763 0.0
O539 O 0.77189 0.80511 0.26606 0.0
C540 C 0.76658 0.81602 0.24794 0.0
C541 C 0.77279 0.7368 0.28138 0.0
O542 O 0.79177 0.79971 0.30344 0.0
O543 O 0.75052 0.78479 0.30201 0.0
O544 O 0.83558 0.7736 0.27054 0.0
O545 O 0.8283 0.80537 0.25334 0.0
O546 O 0.79354 0.74794 0.29171 0.0
O547 O 0.76762 0.74777 0.26328 0.0
O548 O 0.7474 0.75306 0.22589 0.0
O549 O 0.78891 0.76649 0.22749 0.0
C550 C 0.77099 0.79628 0.31402 0.0
C551 C 0.76826 0.75544 0.2155 0.0
Dy552 Dy 0.77019 0.26851 0.73318 0.0
C553 C 0.76987 0.2522 0.8375 0.0
C554 C 0.75544 0.28224 0.69006 0.0
Dy555 Dy 0.76854 0.26605 0.79157 0.0
O556 O 0.76571 0.26267 0.69236 0.0
O557 O 0.75367 0.29427 0.71117 0.0
O558 O 0.80741 0.25831 0.72971 0.0
O559 O 0.79169 0.26077 0.76275 0.0
C560 C 0.81034 0.25661 0.75303 0.0
C561 C 0.73419 0.2852 0.76905 0.0
O562 O 0.79394 0.30269 0.79046 0.0
O563 O 0.78724 0.30782 0.74916 0.0
O564 O 0.75081 0.24822 0.82276 0.0
O565 O 0.78821 0.26415 0.82731 0.0
O566 O 0.74126 0.29204 0.79178 0.0
O567 O 0.74423 0.26749 0.76096 0.0
O568 O 0.74838 0.23005 0.73477 0.0
O569 O 0.75835 0.22528 0.77542 0.0
C570 C 0.79686 0.31613 0.77146 0.0
C571 C 0.74844 0.21611 0.75337 0.0
Dy572 Dy 0.77051 0.79298 0.7743 0.0
C573 C 0.7633 0.68585 0.7663 0.0
C574 C 0.76847 0.84278 0.7723 0.0
Dy575 Dy 0.76034 0.7351 0.76173 0.0
O576 O 0.77093 0.83221 0.79224 0.0
O577 O 0.76764 0.8262 0.75359 0.0
O578 O 0.78966 0.78851 0.80975 0.0
O579 O 0.76075 0.76054 0.79453 0.0
C580 C 0.77695 0.76609 0.8115 0.0
C581 C 0.75396 0.76221 0.7246 0.0
O582 O 0.72402 0.73903 0.77348 0.0
O583 O 0.72992 0.7829 0.77347 0.0
O584 O 0.75975 0.69491 0.74569 0.0
O585 O 0.76468 0.70358 0.78405 0.0
O586 O 0.74118 0.73975 0.7262 0.0
O587 O 0.77015 0.76752 0.74156 0.0
O588 O 0.80688 0.78926 0.76275 0.0
O589 O 0.80091 0.74528 0.76165 0.0
C590 C 0.71584 0.76065 0.77538 0.0
C591 C 0.81504 0.76765 0.76034 0.0
Dy592 Dy 0.49855 0.51997 0.51153 0.0
C593 C 0.60131 0.53827 0.52475 0.0
C594 C 0.45029 0.51776 0.5128 0.0
Dy595 Dy 0.55303 0.53673 0.52492 0.0
O596 O 0.46157 0.51471 0.49306 0.0
O597 O 0.46537 0.52146 0.53165 0.0
O598 O 0.50657 0.49776 0.47726 0.0
O599 O 0.53017 0.53106 0.49173 0.0
C600 C 0.52727 0.5125 0.47562 0.0
C601 C 0.52416 0.54402 0.56077 0.0
O602 O 0.54649 0.5726 0.51124 0.0
O603 O 0.50474 0.56249 0.51089 0.0
O604 O 0.58931 0.53954 0.54419 0.0
O605 O 0.58697 0.53698 0.50558 0.0
O606 O 0.54472 0.559 0.55908 0.0
O607 O 0.52146 0.52547 0.54467 0.0
O608 O 0.50508 0.48416 0.52497 0.0
O609 O 0.54674 0.49401 0.52451 0.0
C610 C 0.52497 0.57881 0.50876 0.0
C611 C 0.52652 0.47773 0.5268 0.0
Dy612 Dy 0.04752 0.51898 0.02234 0.0
C613 C 0.9487 0.5322 0.00948 0.0
C614 C 0.09165 0.50641 0.03005 0.0
Dy615 Dy 0.99159 0.51822 0.02026 0.0
O616 O 0.08302 0.5118 0.00943 0.0
O617 O 0.07639 0.50856 0.04665 0.0
O618 O 0.05061 0.54531 0.99259 0.0
O619 O 0.01933 0.5181 0.99469 0.0
C620 C 0.02869 0.53648 0.98379 0.0
C621 C 0.0094 0.49932 0.05814 0.0
O622 O 0.99172 0.48144 0.99821 0.0
O623 O 0.03058 0.47796 0.01135 0.0
O624 O 0.95251 0.51799 0.02651 0.0
O625 O 0.96816 0.53824 0.99811 0.0
O626 O 0.98693 0.49258 0.0504 0.0
O627 O 0.01953 0.51786 0.04781 0.0
O628 O 0.04828 0.55665 0.04323 0.0
O629 O 0.00798 0.55859 0.03433 0.0
C630 C 0.00919 0.46814 0.00021 0.0
C631 C 0.03002 0.56906 0.04347 0.0
C632 C 0.00059 0.17201 0.91461 0.0
C633 C 0.00483 0.19753 0.92414 0.0
C634 C 0.00217 0.15275 0.92967 0.0
C635 C 0.00795 0.15919 0.9549 0.0
C636 C 0.01173 0.18489 0.96473 0.0
C637 C 0.01022 0.2038 0.94919 0.0
C638 C 0.99815 0.12554 0.91849 0.0
C639 C 0.01771 0.1924 0.99157 0.0
C640 C 0.99334 0.1039 0.99284 0.0
C641 C 0.01549 0.09577 0.99442 0.0
C642 C 0.99086 0.1254 0.98113 0.0
C643 C 0.01098 0.13895 0.97065 0.0
C644 C 0.03367 0.13171 0.97342 0.0
C645 C 0.03568 0.11027 0.98537 0.0
C646 C 0.96644 0.13277 0.97884 0.0
C647 C 0.05555 0.14567 0.96246 0.0
H648 H 0.99641 0.16709 0.89526 0.0
H649 H 0.01341 0.22353 0.95664 0.0
H650 H 0.01469 0.11759 0.92139 0.0
H651 H 0.98359 0.11383 0.92747 0.0
H652 H 0.99328 0.12369 0.89865 0.0
H653 H 0.01883 0.21306 0.99652 0.0
H654 H 0.00392 0.18183 0.00233 0.0
H655 H 0.03519 0.1873 0.99691 0.0
H656 H 0.97768 0.09295 -4e-05 0.0
H657 H 0.05288 0.1042 0.98652 0.0
H658 H 0.95923 0.1287 0.95963 0.0
H659 H 0.96784 0.15342 0.98392 0.0
H660 H 0.95339 0.12224 0.99041 0.0
H661 H 0.05304 0.14276 0.94233 0.0
H662 H 0.07224 0.13904 0.96805 0.0
H663 H 0.05792 0.16636 0.96786 0.0
C664 C 0.12245 0.81753 0.18771 0.0
C665 C 0.10121 0.80301 0.19468 0.0
C666 C 0.14429 0.81927 0.20132 0.0
C667 C 0.14478 0.80621 0.22236 0.0
C668 C 0.12317 0.79249 0.23006 0.0
C669 C 0.10164 0.79105 0.21611 0.0
C670 C 0.16692 0.83446 0.19283 0.0
C671 C 0.12298 0.77828 0.25239 0.0
C672 C 0.20091 0.78134 0.23924 0.0
C673 C 0.21126 0.79868 0.25892 0.0
C674 C 0.17964 0.78407 0.22685 0.0
C675 C 0.1681 0.80434 0.23469 0.0
C676 C 0.17842 0.82195 0.2546 0.0
C677 C 0.20001 0.81893 0.26651 0.0
C678 C 0.16943 0.76508 0.20547 0.0
C679 C 0.16652 0.84373 0.26345 0.0
H680 H 0.12214 0.82704 0.17129 0.0
H681 H 0.08523 0.77995 0.22168 0.0
H682 H 0.17411 0.85062 0.20663 0.0
H683 H 0.18098 0.82261 0.19088 0.0
H684 H 0.16377 0.84204 0.17519 0.0
H685 H 0.10444 0.77068 0.25727 0.0
H686 H 0.13259 0.76218 0.24907 0.0
H687 H 0.13256 0.79085 0.26814 0.0
H688 H 0.20937 0.76543 0.23354 0.0
H689 H 0.208 0.8323 0.28178 0.0
H690 H 0.16708 0.77506 0.1891 0.0
H691 H 0.15145 0.75477 0.20939 0.0
H692 H 0.18114 0.75097 0.20118 0.0
H693 H 0.16414 0.8555 0.24842 0.0
H694 H 0.17709 0.85602 0.27888 0.0
H695 H 0.14837 0.8363 0.26937 0.0
C696 C 0.48958 0.83057 0.43631 0.0
C697 C 0.50137 0.82813 0.41468 0.0
C698 C 0.49055 0.85442 0.44929 0.0
C699 C 0.50352 0.87632 0.44032 0.0
C700 C 0.51503 0.87402 0.41822 0.0
C701 C 0.51387 0.84992 0.4057 0.0
C702 C 0.47814 0.85613 0.47284 0.0
C703 C 0.52892 0.89696 0.40802 0.0
C704 C 0.49204 0.94154 0.46322 0.0
C705 C 0.51182 0.95042 0.47986 0.0
C706 C 0.48891 0.91731 0.45042 0.0
C707 C 0.50587 0.90155 0.45449 0.0
C708 C 0.52554 0.91016 0.47168 0.0
C709 C 0.52831 0.93449 0.4841 0.0
C710 C 0.46776 0.90878 0.43216 0.0
C711 C 0.54392 0.89383 0.47665 0.0
H712 H 0.47989 0.81376 0.44333 0.0
H713 H 0.52294 0.84813 0.38894 0.0
H714 H 0.49163 0.86367 0.4881 0.0
H715 H 0.46544 0.86953 0.47211 0.0
H716 H 0.46809 0.83742 0.47686 0.0
H717 H 0.53597 0.89206 0.39012 0.0
H718 H 0.51728 0.91122 0.40588 0.0
H719 H 0.54428 0.90603 0.42087 0.0
H720 H 0.47924 0.95372 0.45977 0.0
H721 H 0.54356 0.94109 0.49704 0.0
H722 H 0.45711 0.89052 0.43648 0.0
H723 H 0.47427 0.90548 0.41372 0.0
H724 H 0.45574 0.92294 0.43172 0.0
H725 H 0.5349 0.87532 0.48212 0.0
H726 H 0.55769 0.90298 0.4912 0.0
H727 H 0.55314 0.88981 0.45984 0.0
C728 C 0.45692 0.28572 0.6787 0.0
C729 C 0.47949 0.29823 0.68883 0.0
C730 C 0.43615 0.28623 0.6915 0.0
C731 C 0.43801 0.29962 0.71498 0.0
C732 C 0.46071 0.31258 0.72518 0.0
C733 C 0.48122 0.31169 0.71199 0.0
C734 C 0.41223 0.27215 0.68002 0.0
C735 C 0.46337 0.32712 0.75011 0.0
C736 C 0.37947 0.31536 0.73716 0.0
C737 C 0.37187 0.29513 0.75091 0.0
C738 C 0.40153 0.31774 0.72618 0.0
C739 C 0.41619 0.29937 0.729 0.0
C740 C 0.40909 0.27962 0.74388 0.0
C741 C 0.38699 0.27777 0.75471 0.0
C742 C 0.40858 0.3392 0.71064 0.0
C743 C 0.42425 0.2597 0.74737 0.0
H744 H 0.45549 0.27532 0.6608 0.0
H745 H 0.49863 0.32145 0.71988 0.0
H746 H 0.40447 0.25723 0.69148 0.0
H747 H 0.39938 0.28536 0.67891 0.0
H748 H 0.4138 0.26305 0.66144 0.0
H749 H 0.48217 0.33688 0.75511 0.0
H750 H 0.45157 0.3415 0.75086 0.0
H751 H 0.45756 0.31401 0.76396 0.0
H752 H 0.36779 0.32884 0.73426 0.0
H753 H 0.38112 0.2621 0.76535 0.0
H754 H 0.40809 0.33144 0.69129 0.0
H755 H 0.42723 0.34918 0.71584 0.0
H756 H 0.39638 0.3532 0.7122 0.0
H757 H 0.42483 0.24816 0.7298 0.0
H758 H 0.41712 0.2468 0.76098 0.0
H759 H 0.443 0.2688 0.75332 0.0
C760 C 0.01453 0.83629 0.57378 0.0
C761 C 0.00209 0.83502 0.59515 0.0
C762 C 0.0166 0.85778 0.56087 0.0
C763 C 0.00606 0.87853 0.56961 0.0
C764 C 0.99318 0.8772 0.59098 0.0
C765 C 0.99133 0.85544 0.60348 0.0
C766 C 0.03039 0.85846 0.53812 0.0
C767 C 0.98176 0.89897 0.60093 0.0
C768 C 0.03239 0.94462 0.55412 0.0
C769 C 0.01546 0.94878 0.53638 0.0
C770 C 0.02978 0.92165 0.56465 0.0
C771 C 0.00973 0.90227 0.55729 0.0
C772 C 0.99291 0.906 0.53888 0.0
C773 C 0.99599 0.92923 0.5286 0.0
C774 C 0.04813 0.91846 0.58421 0.0
C775 C 0.97127 0.88578 0.53059 0.0
H776 H 0.02277 0.8205 0.56717 0.0
H777 H 0.98161 0.85452 0.61993 0.0
H778 H 0.01908 0.86268 0.5227 0.0
H779 H 0.04642 0.87387 0.54087 0.0
H780 H 0.03643 0.84026 0.53304 0.0
H781 H 0.97153 0.89453 0.61717 0.0
H782 H 0.99587 0.91603 0.60605 0.0
H783 H 0.96941 0.90389 0.58678 0.0
H784 H 0.04757 0.95954 0.5602 0.0
H785 H 0.98272 0.93234 0.51506 0.0
H786 H 0.05569 0.90118 0.57928 0.0
H787 H 0.03936 0.91593 0.6016 0.0
H788 H 0.06315 0.93501 0.58724 0.0
H789 H 0.97694 0.86747 0.52528 0.0
H790 H 0.9608 0.89092 0.51496 0.0
H791 H 0.95928 0.88278 0.54581 0.0
C792 C 0.46781 0.8074 0.86863 0.0
C793 C 0.47421 0.78339 0.86527 0.0
C794 C 0.44617 0.81191 0.85812 0.0
C795 C 0.43069 0.79199 0.84367 0.0
C796 C 0.43724 0.76779 0.83991 0.0
C797 C 0.45887 0.76374 0.85088 0.0
C798 C 0.43973 0.83788 0.86276 0.0
C799 C 0.42133 0.74615 0.82438 0.0
C800 C 0.36414 0.79326 0.83362 0.0
C801 C 0.36308 0.80099 0.81016 0.0
C802 C 0.38616 0.79104 0.84508 0.0
C803 C 0.40753 0.79634 0.83261 0.0
C804 C 0.40661 0.8049 0.80919 0.0
C805 C 0.38438 0.80729 0.79831 0.0
C806 C 0.38645 0.78229 0.87024 0.0
C807 C 0.42895 0.81057 0.79524 0.0
H808 H 0.47954 0.82265 0.87983 0.0
H809 H 0.46376 0.74516 0.84822 0.0
H810 H 0.43705 0.84586 0.84528 0.0
H811 H 0.42252 0.83638 0.87185 0.0
H812 H 0.45379 0.85136 0.87434 0.0
H813 H 0.4293 0.72871 0.82273 0.0
H814 H 0.4036 0.74164 0.83231 0.0
H815 H 0.41808 0.75173 0.80589 0.0
H816 H 0.34766 0.78839 0.8428 0.0
H817 H 0.38359 0.81313 0.7801 0.0
H818 H 0.39982 0.79569 0.88261 0.0
H819 H 0.39195 0.76349 0.8695 0.0
H820 H 0.3686 0.78068 0.87811 0.0
H821 H 0.44299 0.82456 0.80626 0.0
H822 H 0.42536 0.81813 0.77769 0.0
H823 H 0.43636 0.79298 0.79142 0.0
C824 C 0.50514 0.17475 0.10693 0.0
C825 C 0.48916 0.18961 0.09858 0.0
C826 C 0.50729 0.15179 0.09386 0.0
C827 C 0.49273 0.14328 0.07222 0.0
C828 C 0.4757 0.15759 0.06437 0.0
C829 C 0.47432 0.1808 0.07751 0.0
C830 C 0.52597 0.13733 0.10259 0.0
C831 C 0.4594 0.1487 0.04174 0.0
C832 C 0.51575 0.10036 0.02405 0.0
C833 C 0.50356 0.07644 0.02862 0.0
C834 C 0.51244 0.1223 0.03823 0.0
C835 C 0.49628 0.12016 0.0571 0.0
C836 C 0.48381 0.09598 0.06166 0.0
C837 C 0.48768 0.07437 0.04738 0.0
C838 C 0.52648 0.14773 0.03322 0.0
C839 C 0.46643 0.09294 0.0816 0.0
H840 H 0.51677 0.1816 0.12314 0.0
H841 H 0.46188 0.19223 0.07111 0.0
H842 H 0.51792 0.11711 0.10334 0.0
H843 H 0.54035 0.13797 0.08954 0.0
H844 H 0.5343 0.14528 0.12087 0.0
H845 H 0.4458 0.1609 0.03926 0.0
H846 H 0.47026 0.1488 0.02552 0.0
H847 H 0.44995 0.1289 0.04256 0.0
H848 H 0.52813 0.10189 0.00962 0.0
H849 H 0.47817 0.05581 0.05083 0.0
H850 H 0.5374 0.15699 0.04983 0.0
H851 H 0.51396 0.16039 0.0284 0.0
H852 H 0.53865 0.14605 0.01817 0.0
H853 H 0.47597 0.10009 0.09951 0.0
H854 H 0.4577 0.07284 0.08231 0.0
H855 H 0.45228 0.10439 0.07882 0.0
C856 C 0.11809 0.28029 0.36759 0.0
C857 C 0.09394 0.27569 0.35893 0.0
C858 C 0.13648 0.2785 0.3517 0.0
C859 C 0.13062 0.27222 0.32646 0.0
C860 C 0.10627 0.26792 0.31754 0.0
C861 C 0.08818 0.26956 0.33392 0.0
C862 C 0.1622 0.28298 0.36199 0.0
C863 C 0.09935 0.26143 0.29074 0.0
C864 C 0.18354 0.28837 0.2872 0.0
C865 C 0.19149 0.26511 0.28412 0.0
C866 C 0.16289 0.29068 0.29977 0.0
C867 C 0.15005 0.2693 0.30972 0.0
C868 C 0.15723 0.2455 0.30552 0.0
C869 C 0.17775 0.24366 0.29266 0.0
C870 C 0.15557 0.3163 0.3035 0.0
C871 C 0.14414 0.22226 0.31592 0.0
H872 H 0.12265 0.28502 0.3869 0.0
H873 H 0.06953 0.26611 0.32712 0.0
H874 H 0.16998 0.26569 0.35781 0.0
H875 H 0.1732 0.29857 0.35339 0.0
H876 H 0.16375 0.28794 0.38201 0.0
H877 H 0.07973 0.25971 0.28661 0.0
H878 H 0.10908 0.27622 0.28023 0.0
H879 H 0.10469 0.24323 0.28432 0.0
H880 H 0.1939 0.30502 0.28052 0.0
H881 H 0.18367 0.22558 0.29041 0.0
H882 H 0.15918 0.32396 0.32288 0.0
H883 H 0.13601 0.31455 0.29912 0.0
H884 H 0.16552 0.33017 0.29214 0.0
H885 H 0.14673 0.22489 0.33605 0.0
H886 H 0.15065 0.20476 0.30922 0.0
H887 H 0.12455 0.21953 0.31123 0.0
C888 C 0.92304 0.04898 0.15771 0.0
C889 C 0.93076 0.03996 0.17912 0.0
C890 C 0.93712 0.04989 0.13738 0.0
C891 C 0.95934 0.04137 0.13842 0.0
C892 C 0.96734 0.03253 0.16011 0.0
C893 C 0.95302 0.03207 0.18023 0.0
C894 C 0.92821 0.05995 0.11478 0.0
C895 C 0.99078 0.023 0.16188 0.0
C896 C 0.98369 0.01748 0.07949 0.0
C897 C 0.00185 0.03789 0.0757 0.0
C898 C 0.96953 0.01855 0.09962 0.0
C899 C 0.97372 0.04053 0.1165 0.0
C900 C 0.99192 0.06132 0.11264 0.0
C901 C 0.00583 0.05972 0.09228 0.0
C902 C 0.95021 0.99605 0.10291 0.0
C903 C 0.99679 0.08514 0.13011 0.0
H904 H 0.90595 0.05531 0.15681 0.0
H905 H 0.95907 0.02504 0.19672 0.0
H906 H 0.94024 0.07793 0.11183 0.0
H907 H 0.92869 0.04636 0.09856 0.0
H908 H 0.90962 0.06364 0.11608 0.0
H909 H 0.99481 0.01751 0.18027 0.0
H910 H 0.99008 0.00625 0.1484 0.0
H911 H 0.00579 0.03782 0.15745 0.0
H912 H 0.98072 0.00044 0.06686 0.0
H913 H 0.01986 0.07552 0.08937 0.0
H914 H 0.93244 0.00197 0.10331 0.0
H915 H 0.95361 0.98869 0.12057 0.0
H916 H 0.94926 0.9804 0.08814 0.0
H917 H 0.98016 0.09317 0.13184 0.0
H918 H 0.01115 0.09985 0.12421 0.0
H919 H 0.00225 0.08058 0.14844 0.0
C920 C 0.29092 0.68384 0.43962 0.0
C921 C 0.29515 0.695 0.46365 0.0
C922 C 0.2908 0.69893 0.42028 0.0
C923 C 0.29528 0.7257 0.4252 0.0
C924 C 0.30045 0.73703 0.44936 0.0
C925 C 0.30018 0.72151 0.46834 0.0
C926 C 0.28515 0.68624 0.39467 0.0
C927 C 0.30576 0.76551 0.45519 0.0
C928 C 0.30975 0.76235 0.37085 0.0
C929 C 0.28713 0.76745 0.36409 0.0
C930 C 0.31301 0.74972 0.39144 0.0
C931 C 0.29304 0.74174 0.40519 0.0
C932 C 0.27043 0.74792 0.39904 0.0
C933 C 0.2678 0.7609 0.37859 0.0
C934 C 0.33749 0.74386 0.39767 0.0
C935 C 0.24873 0.73966 0.41328 0.0
H936 H 0.28708 0.66334 0.43599 0.0
H937 H 0.3037 0.73019 0.48693 0.0
H938 H 0.26837 0.69118 0.38701 0.0
H939 H 0.29974 0.69321 0.38287 0.0
H940 H 0.28286 0.66524 0.39386 0.0
H941 H 0.31107 0.77129 0.47475 0.0
H942 H 0.32042 0.7741 0.44418 0.0
H943 H 0.28963 0.77347 0.45036 0.0
H944 H 0.32472 0.76745 0.35958 0.0
H945 H 0.25029 0.76481 0.37328 0.0
H946 H 0.33751 0.72357 0.39192 0.0
H947 H 0.34192 0.74709 0.41758 0.0
H948 H 0.35184 0.75556 0.38837 0.0
H949 H 0.24413 0.71863 0.41161 0.0
H950 H 0.23277 0.74711 0.40684 0.0
H951 H 0.25276 0.7462 0.43288 0.0
C952 C 0.56071 0.99371 0.68479 0.0
C953 C 0.58047 0.9814 0.68562 0.0
C954 C 0.54768 0.99416 0.66281 0.0
C955 C 0.55459 0.98194 0.64122 0.0
C956 C 0.57339 0.9679 0.64224 0.0
C957 C 0.58618 0.9678 0.66451 0.0
C958 C 0.5278 0.00945 0.66244 0.0
C959 C 0.58095 0.95436 0.61956 0.0
C960 C 0.51406 0.97958 0.58417 0.0
C961 C 0.52543 0.00117 0.57406 0.0
C962 C 0.52367 0.97247 0.60579 0.0
C963 C 0.54492 0.98751 0.61741 0.0
C964 C 0.5566 0.00908 0.60695 0.0
C965 C 0.54665 0.01566 0.58546 0.0
C966 C 0.51091 0.94927 0.61642 0.0
C967 C 0.57935 0.02561 0.61872 0.0
H968 H 0.55609 0.00403 0.70114 0.0
H969 H 0.60128 0.958 0.66517 0.0
H970 H 0.53389 0.02701 0.65364 0.0
H971 H 0.51168 0.99861 0.65164 0.0
H972 H 0.52258 0.01495 0.68103 0.0
H973 H 0.59506 0.94318 0.62361 0.0
H974 H 0.56521 0.94144 0.60994 0.0
H975 H 0.58796 0.96839 0.60692 0.0
H976 H 0.49766 0.96836 0.57526 0.0
H977 H 0.55538 0.03249 0.57776 0.0
H978 H 0.50385 0.955 0.63407 0.0
H979 H 0.52366 0.93647 0.62009 0.0
H980 H 0.49569 0.93854 0.60418 0.0
H981 H 0.57587 0.03384 0.63707 0.0
H982 H 0.58641 0.04139 0.60787 0.0
H983 H 0.59348 0.01405 0.62106 0.0
C984 C 0.25862 0.36484 0.94337 0.0
C985 C 0.26453 0.35168 0.96284 0.0
C986 C 0.26028 0.35516 0.91917 0.0
C987 C 0.26797 0.33169 0.91426 0.0
C988 C 0.27376 0.3182 0.93383 0.0
C989 C 0.27201 0.32838 0.95789 0.0
C990 C 0.25394 0.37015 0.89884 0.0
C991 C 0.28188 0.29305 0.92935 0.0
C992 C 0.25093 0.2964 0.85143 0.0
C993 C 0.27224 0.30251 0.83941 0.0
C994 C 0.24942 0.30549 0.87582 0.0
C995 C 0.26966 0.32119 0.88861 0.0
C996 C 0.2913 0.32727 0.87671 0.0
C997 C 0.29236 0.31782 0.85228 0.0
C998 C 0.22603 0.29846 0.88783 0.0
C999 C 0.31326 0.34404 0.8897 0.0
H1000 H 0.25289 0.3829 0.94704 0.0
H1001 H 0.27665 0.31814 0.97285 0.0
H1002 H 0.26961 0.37474 0.88761 0.0
H1003 H 0.23908 0.35861 0.88671 0.0
H1004 H 0.24837 0.38813 0.9057 0.0
H1005 H 0.2856 0.28487 0.94653 0.0
H1006 H 0.26789 0.2793 0.91801 0.0
H1007 H 0.29842 0.29543 0.91912 0.0
H1008 H 0.23529 0.28448 0.84177 0.0
H1009 H 0.30889 0.32268 0.8432 0.0
H1010 H 0.21899 0.31585 0.89369 0.0
H1011 H 0.22907 0.289 0.90438 0.0
H1012 H 0.21211 0.28561 0.87554 0.0
H1013 H 0.30912 0.36297 0.89558 0.0
H1014 H 0.32883 0.34661 0.87806 0.0
H1015 H 0.31847 0.33577 0.90633 0.0
C1016 C 0.93572 0.04418 0.31969 0.0
C1017 C 0.91713 0.02598 0.3076 0.0
C1018 C 0.94589 0.04043 0.34243 0.0
C1019 C 0.93732 0.01791 0.35326 0.0
C1020 C 0.91854 -0.00049 0.3411 0.0
C1021 C 0.90868 0.00379 0.31848 0.0
C1022 C 0.96583 0.06055 0.35488 0.0
C1023 C 0.9089 0.97525 0.35196 0.0
C1024 C 0.97812 0.99801 0.40153 0.0
C1025 C 0.9687 0.00672 0.42305 0.0
C1026 C 0.96792 0.00126 0.37868 0.0
C1027 C 0.94789 0.01361 0.37735 0.0
C1028 C 0.938 0.02191 0.39906 0.0
C1029 C 0.9485 0.01832 0.42164 0.0
C1030 C 0.97886 0.99194 0.35596 0.0
C1031 C 0.91664 0.0351 0.39845 0.0
H1032 H 0.94233 0.06135 0.31138 0.0
H1033 H 0.89433 0.98959 0.30924 0.0
H1034 H 0.96049 0.06744 0.37299 0.0
H1035 H 0.9822 0.05235 0.35791 0.0
H1036 H 0.97039 0.07701 0.34413 0.0
H1037 H 0.8943 0.96282 0.34015 0.0
H1038 H 0.9236 0.96456 0.35499 0.0
H1039 H 0.90187 0.9797 0.36995 0.0
H1040 H 0.9938 0.98912 0.40256 0.0
H1041 H 0.94122 0.02519 0.43825 0.0
H1042 H 0.98565 0.00818 0.3456 0.0
H1043 H 0.965 0.97871 0.34397 0.0
H1044 H 0.99395 0.98207 0.36007 0.0
H1045 H 0.92121 0.05285 0.38956 0.0
H1046 H 0.91077 0.0399 0.41693 0.0
H1047 H 0.90132 0.02286 0.38749 0.0
C1048 C 0.30999 0.72322 0.58594 0.0
C1049 C 0.30728 0.69704 0.58754 0.0
C1050 C 0.30961 0.74008 0.60668 0.0
C1051 C 0.30719 0.73051 0.62957 0.0
C1052 C 0.30605 0.70426 0.63149 0.0
C1053 C 0.30568 0.68771 0.61031 0.0
C1054 C 0.31027 0.76783 0.60387 0.0
C1055 C 0.30422 0.69352 0.65577 0.0
C1056 C 0.31994 0.77496 0.68768 0.0
C1057 C 0.29659 0.77512 0.69493 0.0
C1058 C 0.32378 0.76096 0.66602 0.0
C1059 C 0.30373 0.74749 0.6512 0.0
C1060 C 0.28013 0.74908 0.65775 0.0
C1061 C 0.27687 0.76255 0.67982 0.0
C1062 C 0.34917 0.75918 0.65991 0.0
C1063 C 0.2583 0.73557 0.64204 0.0
H1064 H 0.31103 0.73043 0.56826 0.0
H1065 H 0.30373 0.66746 0.6115 0.0
H1066 H 0.29264 0.77281 0.6082 0.0
H1067 H 0.32406 0.7799 0.61682 0.0
H1068 H 0.31414 0.77253 0.58513 0.0
H1069 H 0.30649 0.67338 0.65444 0.0
H1070 H 0.31802 0.70477 0.66925 0.0
H1071 H 0.28637 0.69464 0.66283 0.0
H1072 H 0.33519 0.78429 0.69972 0.0
H1073 H 0.25888 0.7626 0.68565 0.0
H1074 H 0.3521 0.76297 0.6408 0.0
H1075 H 0.35221 0.73963 0.66174 0.0
H1076 H 0.36274 0.77267 0.67205 0.0
H1077 H 0.26014 0.73989 0.62291 0.0
H1078 H 0.24142 0.741 0.64843 0.0
H1079 H 0.25673 0.71476 0.64223 0.0
C1080 C 0.5681 0.96509 0.81109 0.0
C1081 C 0.58887 0.98372 0.81107 0.0
C1082 C 0.55473 0.96306 0.83184 0.0
C1083 C 0.56241 0.98006 0.85289 0.0
C1084 C 0.58357 0.99863 0.85303 0.0
C1085 C 0.59653 0.00023 0.83209 0.0
C1086 C 0.53228 0.94301 0.83115 0.0
C1087 C 0.5924 0.01705 0.87521 0.0
C1088 C 0.52187 0.99813 0.9013 0.0
C1089 C 0.52961 0.98598 0.92065 0.0
C1090 C 0.53112 0.99487 0.87836 0.0
C1091 C 0.54836 0.97902 0.87488 0.0
C1092 C 0.55462 0.96504 0.89386 0.0
C1093 C 0.54518 0.96877 0.91661 0.0
C1094 C 0.5239 0.00994 0.85849 0.0
C1095 C 0.5727 0.94771 0.89078 0.0
H1096 H 0.56214 0.95229 0.79482 0.0
H1097 H 0.61261 0.01462 0.83215 0.0
H1098 H 0.53342 0.93097 0.84624 0.0
H1099 H 0.51642 0.95216 0.83379 0.0
H1100 H 0.52928 0.93063 0.81367 0.0
H1101 H 0.60937 0.03012 0.87238 0.0
H1102 H 0.57856 0.02856 0.87995 0.0
H1103 H 0.59549 0.00651 0.89102 0.0
H1104 H 0.50968 0.01132 0.90444 0.0
H1105 H 0.5509 0.95909 0.93155 0.0
H1106 H 0.51982 0.99778 0.84098 0.0
H1107 H 0.53905 0.02546 0.85587 0.0
H1108 H 0.50797 0.01849 0.86292 0.0
H1109 H 0.56912 0.93569 0.87315 0.0
H1110 H 0.57258 0.9352 0.90569 0.0
H1111 H 0.59098 0.95932 0.89074 0.0
C1112 C 0.25014 0.35558 0.1173 0.0
C1113 C 0.25495 0.34381 0.09483 0.0
C1114 C 0.24746 0.34208 0.13791 0.0
C1115 C 0.25028 0.31637 0.13616 0.0
C1116 C 0.25496 0.30436 0.11344 0.0
C1117 C 0.25693 0.31814 0.09298 0.0
C1118 C 0.24191 0.3554 0.16163 0.0
C1119 C 0.25868 0.2772 0.1109 0.0
C1120 C 0.27061 0.29133 0.19412 0.0
C1121 C 0.24947 0.27582 0.20011 0.0
C1122 C 0.27111 0.3044 0.17329 0.0
C1123 C 0.24979 0.30252 0.15838 0.0
C1124 C 0.22823 0.2873 0.16465 0.0
C1125 C 0.22841 0.27382 0.18529 0.0
C1126 C 0.2946 0.31994 0.16707 0.0
C1127 C 0.20499 0.28536 0.14961 0.0
H1128 H 0.24838 0.37537 0.11877 0.0
H1129 H 0.26074 0.309 0.07567 0.0
H1130 H 0.22563 0.34449 0.16877 0.0
H1131 H 0.25695 0.35641 0.17541 0.0
H1132 H 0.23894 0.37498 0.15966 0.0
H1133 H 0.2616 0.27043 0.09187 0.0
H1134 H 0.27452 0.27542 0.1227 0.0
H1135 H 0.2429 0.26455 0.11706 0.0
H1136 H 0.28698 0.29283 0.20548 0.0
H1137 H 0.21204 0.26196 0.19 0.0
H1138 H 0.29294 0.34015 0.16704 0.0
H1139 H 0.29909 0.31334 0.14852 0.0
H1140 H 0.30973 0.31872 0.1801 0.0
H1141 H 0.20084 0.30458 0.14826 0.0
H1142 H 0.18962 0.27352 0.15742 0.0
H1143 H 0.2068 0.27702 0.13084 0.0
C1144 C 0.21197 0.96807 0.00795 0.0
C1145 C 0.20194 0.94215 0.00381 0.0
C1146 C 0.19724 0.9864 0.01033 0.0
C1147 C 0.17199 0.97851 0.00866 0.0
C1148 C 0.1618 0.95236 0.00434 0.0
C1149 C 0.17692 0.9345 0.0019 0.0
C1150 C 0.20865 0.01413 0.01464 0.0
C1151 C 0.13489 0.94321 0.00246 0.0
C1152 C 0.128 0.01605 0.03641 0.0
C1153 C 0.11676 0.02256 0.01548 0.0
C1154 C 0.14745 0.00331 0.03471 0.0
C1155 C 0.15589 0.99731 0.01157 0.0
C1156 C 0.1462 0.00627 0.99075 0.0
C1157 C 0.12654 0.01865 0.99293 0.0
C1158 C 0.1574 0.99419 0.05736 0.0
C1159 C 0.155 0.00077 0.9658 0.0
H1160 H 0.23134 0.97404 0.00937 0.0
H1161 H 0.16911 0.91448 0.99873 0.0
H1162 H 0.20227 0.02457 3e-05 0.0
H1163 H 0.20315 0.02255 0.03209 0.0
H1164 H 0.22859 0.01714 0.0152 0.0
H1165 H 0.12989 0.92221 0.99919 0.0
H1166 H 0.12703 0.94954 0.01947 0.0
H1167 H 0.12662 0.95158 0.98736 0.0
H1168 H 0.12047 0.01915 0.05389 0.0
H1169 H 0.11794 0.02385 0.97673 0.0
H1170 H 0.17733 0.99765 0.05808 0.0
H1171 H 0.15105 0.97342 0.05704 0.0
H1172 H 0.15156 0.00362 0.07419 0.0
H1173 H 0.17471 0.00152 0.96659 0.0
H1174 H 0.15056 0.01443 0.95322 0.0
H1175 H 0.1462 0.98138 0.95814 0.0
C1176 C 0.68114 0.60117 0.98322 0.0
C1177 C 0.701 0.59539 0.99604 0.0
C1178 C 0.65822 0.58609 0.98357 0.0
C1179 C 0.65505 0.56487 0.99726 0.0
C1180 C 0.67513 0.55869 0.00989 0.0
C1181 C 0.69788 0.57396 0.00903 0.0
C1182 C 0.63729 0.59319 0.96969 0.0
C1183 C 0.67244 0.5364 0.02489 0.0
C1184 C 0.59191 0.54575 0.0177 0.0
C1185 C 0.58224 0.52542 0.00037 0.0
C1186 C 0.61591 0.55802 0.01753 0.0
C1187 C 0.6305 0.55003 0.99932 0.0
C1188 C 0.6211 0.52884 0.98234 0.0
C1189 C 0.59707 0.51665 0.98317 0.0
C1190 C 0.62531 0.58024 0.03624 0.0
C1191 C 0.63607 0.51983 0.96259 0.0
H1192 H 0.68347 0.61766 0.97308 0.0
H1193 H 0.71317 0.56942 0.01902 0.0
H1194 H 0.62787 0.5767 0.95727 0.0
H1195 H 0.62412 0.59849 0.98258 0.0
H1196 H 0.64298 0.60935 0.95882 0.0
H1197 H 0.68999 0.53339 0.03265 0.0
H1198 H 0.66077 0.53955 0.04005 0.0
H1199 H 0.66356 0.51882 0.01363 0.0
H1200 H 0.58048 0.55264 0.03098 0.0
H1201 H 0.5896 0.501 0.96968 0.0
H1202 H 0.62886 0.59796 0.02716 0.0
H1203 H 0.64257 0.57786 0.04516 0.0
H1204 H 0.61241 0.58252 0.05049 0.0
H1205 H 0.64018 0.53466 0.94993 0.0
H1206 H 0.62676 0.50198 0.95199 0.0
H1207 H 0.65347 0.51669 0.97054 0.0
C1208 C 0.68204 0.43023 0.28898 0.0
C1209 C 0.69358 0.45478 0.28537 0.0
C1210 C 0.69425 0.40968 0.28662 0.0
C1211 C 0.71842 0.41371 0.27999 0.0
C1212 C 0.73018 0.43851 0.27642 0.0
C1213 C 0.71769 0.45877 0.27939 0.0
C1214 C 0.68123 0.38361 0.29102 0.0
C1215 C 0.7558 0.44354 0.26902 0.0
C1216 C 0.7557 0.36294 0.29051 0.0
C1217 C 0.75263 0.34858 0.26776 0.0
C1218 C 0.74491 0.3844 0.29474 0.0
C1219 C 0.73101 0.39179 0.27567 0.0
C1220 C 0.72858 0.37782 0.25245 0.0
C1221 C 0.73923 0.35628 0.24885 0.0
C1222 C 0.7476 0.39851 0.31987 0.0
C1223 C 0.71434 0.38532 0.23149 0.0
H1224 H 0.66347 0.42709 0.2938 0.0
H1225 H 0.72669 0.47772 0.27654 0.0
H1226 H 0.67964 0.37063 0.27402 0.0
H1227 H 0.69164 0.37562 0.30486 0.0
H1228 H 0.66292 0.38389 0.29733 0.0
H1229 H 0.76252 0.46398 0.26741 0.0
H1230 H 0.76776 0.43699 0.2825 0.0
H1231 H 0.75711 0.43265 0.25125 0.0
H1232 H 0.76571 0.35683 0.3053 0.0
H1233 H 0.73687 0.34529 0.2312 0.0
H1234 H 0.73008 0.39521 0.32837 0.0
H1235 H 0.75283 0.41924 0.31889 0.0
H1236 H 0.76121 0.39229 0.33183 0.0
H1237 H 0.69521 0.38369 0.23576 0.0
H1238 H 0.71529 0.37328 0.21426 0.0
H1239 H 0.7211 0.40542 0.22863 0.0
C1240 C 0.83177 0.45117 0.48892 0.0
C1241 C 0.82517 0.42837 0.49934 0.0
C1242 C 0.85578 0.46374 0.49042 0.0
C1243 C 0.87351 0.45315 0.50254 0.0
C1244 C 0.867 0.42994 0.51277 0.0
C1245 C 0.84285 0.41782 0.51107 0.0
C1246 C 0.86212 0.4885 0.4793 0.0
C1247 C 0.88549 0.41804 0.52571 0.0
C1248 C 0.93826 0.47452 0.48806 0.0
C1249 C 0.9469 0.49242 0.50796 0.0
C1250 C 0.91445 0.46141 0.48619 0.0
C1251 C 0.8989 0.46645 0.50459 0.0
C1252 C 0.90751 0.48433 0.52482 0.0
C1253 C 0.93147 0.49706 0.52632 0.0
C1254 C 0.90591 0.44228 0.46447 0.0
C1255 C 0.89134 0.49021 0.54474 0.0
H1256 H 0.81812 0.4594 0.47988 0.0
H1257 H 0.8378 0.40018 0.51915 0.0
H1258 H 0.87025 0.50386 0.49356 0.0
H1259 H 0.8757 0.48698 0.46564 0.0
H1260 H 0.84621 0.49405 0.47032 0.0
H1261 H 0.87752 0.39966 0.53225 0.0
H1262 H 0.89979 0.41481 0.51334 0.0
H1263 H 0.89423 0.43111 0.54153 0.0
H1264 H 0.95012 0.47065 0.47389 0.0
H1265 H 0.93799 0.51092 0.5417 0.0
H1266 H 0.89093 0.44808 0.45414 0.0
H1267 H 0.89888 0.42346 0.4706 0.0
H1268 H 0.92044 0.44024 0.45198 0.0
H1269 H 0.87588 0.49757 0.53699 0.0
H1270 H 0.90089 0.50445 0.55936 0.0
H1271 H 0.88392 0.47263 0.55294 0.0
C1272 C 0.32911 0.07683 0.29252 0.0
C1273 C 0.35185 0.09255 0.29592 0.0
C1274 C 0.30854 0.08684 0.28711 0.0
C1275 C 0.31088 0.11317 0.28535 0.0
C1276 C 0.33368 0.12927 0.2899 0.0
C1277 C 0.35395 0.11869 0.29495 0.0
C1278 C 0.28467 0.06903 0.28199 0.0
C1279 C 0.3368 0.1576 0.28872 0.0
C1280 C 0.27192 0.14633 0.24776 0.0
C1281 C 0.26144 0.15935 0.26621 0.0
C1282 C 0.28621 0.12871 0.25341 0.0
C1283 C 0.28994 0.12428 0.278 0.0
C1284 C 0.27671 0.1348 0.29609 0.0
C1285 C 0.2625 0.15228 0.28994 0.0
C1286 C 0.29946 0.11713 0.23351 0.0
C1287 C 0.2797 0.12984 0.32235 0.0
H1288 H 0.32748 0.05652 0.29303 0.0
H1289 H 0.37152 0.13082 0.29764 0.0
H1290 H 0.26989 0.07731 0.29006 0.0
H1291 H 0.28055 0.06567 0.26204 0.0
H1292 H 0.28491 0.05041 0.28905 0.0
H1293 H 0.35551 0.16752 0.29394 0.0
H1294 H 0.33206 0.16159 0.26997 0.0
H1295 H 0.32452 0.16572 0.301 0.0
H1296 H 0.27085 0.15159 0.22934 0.0
H1297 H 0.25404 0.16211 0.30418 0.0
H1298 H 0.29955 0.09687 0.23566 0.0
H1299 H 0.31843 0.12721 0.23466 0.0
H1300 H 0.29136 0.1186 0.21516 0.0
H1301 H 0.27816 0.10922 0.32386 0.0
H1302 H 0.26618 0.1371 0.33364 0.0
H1303 H 0.29793 0.13921 0.32986 0.0
C1304 C 0.33094 0.08864 0.4813 0.0
C1305 C 0.33214 0.1123 0.4947 0.0
C1306 C 0.35086 0.07644 0.48088 0.0
C1307 C 0.37244 0.08809 0.49435 0.0
C1308 C 0.37387 0.11214 0.50764 0.0
C1309 C 0.35372 0.12399 0.5076 0.0
C1310 C 0.34872 0.05093 0.46629 0.0
C1311 C 0.39654 0.12514 0.5223 0.0
C1312 C 0.41575 0.04692 0.51516 0.0
C1313 C 0.43406 0.05165 0.49904 0.0
C1314 C 0.39544 0.05839 0.5136 0.0
C1315 C 0.39328 0.07475 0.4953 0.0
C1316 C 0.41142 0.07898 0.47852 0.0
C1317 C 0.43173 0.06759 0.48079 0.0
C1318 C 0.37659 0.05353 0.53195 0.0
C1319 C 0.4097 0.09601 0.45856 0.0
H1320 H 0.31434 0.07955 0.4712 0.0
H1321 H 0.35476 0.14228 0.51798 0.0
H1322 H 0.36317 0.05154 0.45332 0.0
H1323 H 0.35106 0.0363 0.47861 0.0
H1324 H 0.33106 0.04497 0.45593 0.0
H1325 H 0.39491 0.14406 0.53119 0.0
H1326 H 0.40087 0.11318 0.53656 0.0
H1327 H 0.41189 0.12757 0.51041 0.0
H1328 H 0.41758 0.03471 0.52939 0.0
H1329 H 0.44602 0.07159 0.46857 0.0
H1330 H 0.35871 0.04606 0.52249 0.0
H1331 H 0.37531 0.07161 0.54274 0.0
H1332 H 0.38063 0.0398 0.54464 0.0
H1333 H 0.39194 0.09063 0.44837 0.0
H1334 H 0.42399 0.09518 0.44552 0.0
H1335 H 0.41132 0.11592 0.46665 0.0
C1336 C 0.68649 0.61025 0.31365 0.0
C1337 C 0.69724 0.58958 0.30604 0.0
C1338 C 0.69858 0.63529 0.31267 0.0
C1339 C 0.72173 0.63962 0.30343 0.0
C1340 C 0.733 0.61881 0.29665 0.0
C1341 C 0.7207 0.59405 0.29827 0.0
C1342 C 0.68622 0.65703 0.32056 0.0
C1343 C 0.7575 0.62261 0.28634 0.0
C1344 C 0.74126 0.6983 0.27108 0.0
C1345 C 0.75875 0.71281 0.28783 0.0
C1346 C 0.7287 0.67467 0.27619 0.0
C1347 C 0.73341 0.66562 0.29882 0.0
C1348 C 0.75036 0.68072 0.31622 0.0
C1349 C 0.76307 0.70408 0.31038 0.0
C1350 C 0.71102 0.659 0.257 0.0
C1351 C 0.75539 0.67199 0.34077 0.0
H1352 H 0.66838 0.60685 0.31978 0.0
H1353 H 0.72906 0.57814 0.29229 0.0
H1354 H 0.6985 0.67158 0.33295 0.0
H1355 H 0.68138 0.66634 0.30445 0.0
H1356 H 0.66957 0.65066 0.32993 0.0
H1357 H 0.76429 0.60454 0.28313 0.0
H1358 H 0.75659 0.631 0.26881 0.0
H1359 H 0.77067 0.63607 0.29884 0.0
H1360 H 0.7379 0.70508 0.25362 0.0
H1361 H 0.77643 0.71548 0.32344 0.0
H1362 H 0.69311 0.65407 0.26445 0.0
H1363 H 0.71705 0.64093 0.25144 0.0
H1364 H 0.70905 0.66905 0.24057 0.0
H1365 H 0.73832 0.6663 0.34963 0.0
H1366 H 0.76737 0.68696 0.35305 0.0
H1367 H 0.76402 0.65507 0.33849 0.0
C1368 C 0.89023 0.44869 0.79113 0.0
C1369 C 0.87825 0.46791 0.78459 0.0
C1370 C 0.87801 0.42346 0.79016 0.0
C1371 C 0.85319 0.41756 0.78295 0.0
C1372 C 0.84093 0.43705 0.77689 0.0
C1373 C 0.85368 0.46195 0.77755 0.0
C1374 C 0.89173 0.40307 0.7963 0.0
C1375 C 0.81439 0.43157 0.76948 0.0
C1376 C 0.82377 0.35177 0.75525 0.0
C1377 C 0.81208 0.34163 0.77494 0.0
C1378 C 0.83796 0.37612 0.75789 0.0
C1379 C 0.84009 0.39088 0.78066 0.0
C1380 C 0.82859 0.38064 0.80073 0.0
C1381 C 0.8149 0.35597 0.79768 0.0
C1382 C 0.85033 0.38619 0.73618 0.0
C1383 C 0.83014 0.39602 0.82516 0.0
H1384 H 0.90925 0.4533 0.79655 0.0
H1385 H 0.84432 0.47684 0.7727 0.0
H1386 H 0.88323 0.39271 0.81106 0.0
H1387 H 0.89113 0.38901 0.7802 0.0
H1388 H 0.91084 0.41089 0.80213 0.0
H1389 H 0.80729 0.4491 0.7667 0.0
H1390 H 0.81099 0.41875 0.75232 0.0
H1391 H 0.80416 0.4217 0.78358 0.0
H1392 H 0.82194 0.34059 0.73771 0.0
H1393 H 0.80584 0.34818 0.81293 0.0
H1394 H 0.86978 0.39304 0.74096 0.0
H1395 H 0.84273 0.4026 0.73077 0.0
H1396 H 0.84827 0.37162 0.72028 0.0
H1397 H 0.8492 0.40302 0.83156 0.0
H1398 H 0.82099 0.38493 0.83917 0.0
H1399 H 0.82173 0.41292 0.82344 0.0
C1400 C 0.03754 0.87107 0.11008 0.0
C1401 C 0.03294 0.84524 0.10159 0.0
C1402 C 0.03504 0.88956 0.09438 0.0
C1403 C 0.02798 0.88204 0.06953 0.0
C1404 C 0.02376 0.85601 0.06072 0.0
C1405 C 0.02617 0.83787 0.07692 0.0
C1406 C 0.03953 0.91714 0.10452 0.0
C1407 C 0.01647 0.84734 0.0343 0.0
C1408 C 0.99919 0.93021 0.03902 0.0
C1409 C 0.01899 0.94433 0.029 0.0
C1410 C 0.00157 0.909 0.05119 0.0
C1411 C 0.02425 0.90156 0.05316 0.0
C1412 C 0.04387 0.9146 0.04157 0.0
C1413 C 0.04104 0.93592 0.02971 0.0
C1414 C 0.98022 0.89564 0.06337 0.0
C1415 C 0.06824 0.907 0.04293 0.0
H1416 H 0.04277 0.87686 0.12913 0.0
H1417 H 0.0227 0.8179 0.07027 0.0
H1418 H 0.05369 0.92826 0.09458 0.0
H1419 H 0.02294 0.92508 0.10191 0.0
H1420 H 0.0452 0.91983 0.12421 0.0
H1421 H 0.01501 0.82652 0.03011 0.0
H1422 H 0.99885 0.85243 0.02949 0.0
H1423 H 0.02973 0.85718 0.02253 0.0
H1424 H 0.98207 0.93651 0.03856 0.0
H1425 H 0.05639 0.94655 0.02181 0.0
H1426 H 0.9835 0.8994 0.08341 0.0
H1427 H 0.97769 0.87481 0.05874 0.0
H1428 H 0.96334 0.90208 0.05809 0.0
H1429 H 0.07647 0.91186 0.06173 0.0
H1430 H 0.08064 0.91679 0.03031 0.0
H1431 H 0.0665 0.8862 0.03859 0.0
C1432 C 0.92387 0.2282 0.83008 0.0
C1433 C 0.94189 0.24998 0.83258 0.0
C1434 C 0.90255 0.22731 0.81587 0.0
C1435 C 0.89911 0.24885 0.80425 0.0
C1436 C 0.91743 0.27074 0.80642 0.0
C1437 C 0.93869 0.27096 0.82043 0.0
C1438 C 0.8835 0.20356 0.81373 0.0
C1439 C 0.91427 0.29421 0.79458 0.0
C1440 C 0.85081 0.24441 0.75338 0.0
C1441 C 0.83253 0.25312 0.76602 0.0
C1442 C 0.87244 0.24221 0.76568 0.0
C1443 C 0.8758 0.2492 0.79109 0.0
C1444 C 0.85721 0.25774 0.8039 0.0
C1445 C 0.83583 0.25959 0.79115 0.0
C1446 C 0.89182 0.23283 0.75149 0.0
C1447 C 0.86013 0.26563 0.83095 0.0
H1448 H 0.92638 0.21189 0.83934 0.0
H1449 H 0.95257 0.28785 0.82236 0.0
H1450 H 0.8672 0.20765 0.82254 0.0
H1451 H 0.87817 0.19713 0.79431 0.0
H1452 H 0.88968 0.18784 0.82237 0.0
H1453 H 0.9306 0.3093 0.79728 0.0
H1454 H 0.90988 0.2894 0.77478 0.0
H1455 H 0.89899 0.30192 0.80229 0.0
H1456 H 0.84825 0.23946 0.73388 0.0
H1457 H 0.82197 0.26691 0.80074 0.0
H1458 H 0.89738 0.21662 0.75977 0.0
H1459 H 0.90792 0.24809 0.75222 0.0
H1460 H 0.88584 0.22674 0.73212 0.0
H1461 H 0.86472 0.24993 0.8408 0.0
H1462 H 0.84361 0.27105 0.83827 0.0
H1463 H 0.87517 0.28202 0.83492 0.0
C1464 C 0.55968 0.22261 0.59453 0.0
C1465 C 0.54527 0.22405 0.61442 0.0
C1466 C 0.56043 0.19922 0.58139 0.0
C1467 C 0.54651 0.17677 0.58839 0.0
C1468 C 0.53233 0.17806 0.60877 0.0
C1469 C 0.53183 0.20171 0.62151 0.0
C1470 C 0.57569 0.1986 0.5597 0.0
C1471 C 0.51731 0.1545 0.61685 0.0
C1472 C 0.52614 0.11971 0.54205 0.0
C1473 C 0.54179 0.1035 0.54816 0.0
C1474 C 0.52797 0.14388 0.55455 0.0
C1475 C 0.54579 0.15203 0.57375 0.0
C1476 C 0.56211 0.13609 0.57955 0.0
C1477 C 0.55998 0.11201 0.5666 0.0
C1478 C 0.51037 0.16042 0.54763 0.0
C1479 C 0.5813 0.14413 0.59996 0.0
H1480 H 0.57014 0.23984 0.589 0.0
H1481 H 0.52074 0.20271 0.63693 0.0
H1482 H 0.58825 0.18521 0.56169 0.0
H1483 H 0.56404 0.19162 0.54294 0.0
H1484 H 0.58628 0.21758 0.5573 0.0
H1485 H 0.50818 0.15861 0.63374 0.0
H1486 H 0.50344 0.14575 0.60229 0.0
H1487 H 0.52874 0.14029 0.62008 0.0
H1488 H 0.51219 0.11338 0.52764 0.0
H1489 H 0.57208 0.09956 0.57148 0.0
H1490 H 0.52016 0.17928 0.54382 0.0
H1491 H 0.49898 0.16357 0.56303 0.0
H1492 H 0.49847 0.15185 0.53139 0.0
H1493 H 0.59226 0.16284 0.59734 0.0
H1494 H 0.59343 0.13018 0.60128 0.0
H1495 H 0.57276 0.14634 0.61752 0.0
C1496 C 0.58548 0.76364 0.3505 0.0
C1497 C 0.56283 0.75087 0.34079 0.0
C1498 C 0.60608 0.76298 0.33746 0.0
C1499 C 0.60396 0.74928 0.31412 0.0
C1500 C 0.58119 0.73604 0.30435 0.0
C1501 C 0.56086 0.73698 0.31783 0.0
C1502 C 0.63008 0.77729 0.34854 0.0
C1503 C 0.57826 0.72124 0.27953 0.0
C1504 C 0.65442 0.77174 0.27398 0.0
C1505 C 0.66982 0.75463 0.27765 0.0
C1506 C 0.63232 0.76948 0.28485 0.0
C1507 C 0.62557 0.74966 0.29974 0.0
C1508 C 0.64053 0.73153 0.30243 0.0
C1509 C 0.66252 0.73424 0.2913 0.0
C1510 C 0.6168 0.78909 0.28141 0.0
C1511 C 0.63393 0.71008 0.31808 0.0
H1512 H 0.58711 0.77434 0.36826 0.0
H1513 H 0.54338 0.72705 0.31026 0.0
H1514 H 0.64311 0.76424 0.34939 0.0
H1515 H 0.63746 0.79224 0.33696 0.0
H1516 H 0.62876 0.78637 0.36718 0.0
H1517 H 0.55948 0.71117 0.27495 0.0
H1518 H 0.58355 0.73427 0.26548 0.0
H1519 H 0.59031 0.70711 0.27864 0.0
H1520 H 0.66004 0.78749 0.26338 0.0
H1521 H 0.67443 0.72095 0.29413 0.0
H1522 H 0.61638 0.8008 0.29892 0.0
H1523 H 0.59804 0.77972 0.27581 0.0
H1524 H 0.62353 0.80188 0.26756 0.0
H1525 H 0.63477 0.71788 0.33744 0.0
H1526 H 0.64619 0.69616 0.31624 0.0
H1527 H 0.61523 0.7 0.31325 0.0
C1528 C 0.01311 0.20983 0.45914 0.0
C1529 C 0.03459 0.21851 0.44833 0.0
C1530 C 0.01027 0.18784 0.47134 0.0
C1531 C 0.02925 0.17403 0.47246 0.0
C1532 C 0.05125 0.18315 0.46222 0.0
C1533 C 0.05369 0.20538 0.45039 0.0
C1534 C 0.98664 0.17888 0.48225 0.0
C1535 C 0.07183 0.16883 0.4628 0.0
C1536 C 0.02868 0.12207 0.51496 0.0
C1537 C 0.01963 0.10023 0.49911 0.0
C1538 C 0.03145 0.14636 0.50675 0.0
C1539 C 0.0253 0.14877 0.48208 0.0
C1540 C 0.01579 0.12684 0.46615 0.0
C1541 C 0.01293 0.10295 0.47487 0.0
C1542 C 0.04129 0.16938 0.52433 0.0
C1543 C 0.00917 0.12852 0.43966 0.0
H1544 H 0.99836 0.22005 0.45778 0.0
H1545 H 0.07035 0.21204 0.4421 0.0
H1546 H 0.9772 0.16103 0.4718 0.0
H1547 H 0.98977 0.17469 0.50126 0.0
H1548 H 0.97468 0.19312 0.48211 0.0
H1549 H 0.08829 0.17938 0.45562 0.0
H1550 H 0.07616 0.16491 0.48167 0.0
H1551 H 0.06652 0.15024 0.45171 0.0
H1552 H 0.03385 0.12021 0.5337 0.0
H1553 H 0.00594 0.0863 0.46235 0.0
H1554 H 0.02894 0.18321 0.5243 0.0
H1555 H 0.05881 0.17899 0.51852 0.0
H1556 H 0.04389 0.16444 0.5432 0.0
H1557 H 0.99566 0.14094 0.43804 0.0
H1558 H 0.00174 0.10966 0.42973 0.0
H1559 H 0.02528 0.13718 0.43058 0.0
C1560 C 0.57737 0.27519 0.1779 0.0
C1561 C 0.56861 0.26697 0.1539 0.0
C1562 C 0.60059 0.27268 0.18599 0.0
C1563 C 0.61521 0.26137 0.16974 0.0
C1564 C 0.60647 0.25316 0.14545 0.0
C1565 C 0.58333 0.25622 0.13778 0.0
C1566 C 0.60943 0.28201 0.21195 0.0
C1567 C 0.62142 0.24081 0.12768 0.0
C1568 C 0.68229 0.2761 0.18609 0.0
C1569 C 0.68552 0.25519 0.19835 0.0
C1570 C 0.6596 0.27804 0.17611 0.0
C1571 C 0.63974 0.25842 0.1782 0.0
C1572 C 0.64318 0.23659 0.18941 0.0
C1573 C 0.66606 0.23529 0.1995 0.0
C1574 C 0.65669 0.30165 0.16439 0.0
C1575 C 0.62249 0.21509 0.19161 0.0
H1576 H 0.56604 0.28347 0.19042 0.0
H1577 H 0.57656 0.24963 0.11924 0.0
H1578 H 0.61363 0.266 0.22157 0.0
H1579 H 0.62629 0.29622 0.21226 0.0
H1580 H 0.59603 0.29078 0.22212 0.0
H1581 H 0.61196 0.23543 0.10942 0.0
H1582 H 0.63857 0.25389 0.12569 0.0
H1583 H 0.62603 0.22352 0.13469 0.0
H1584 H 0.6973 0.29155 0.18519 0.0
H1585 H 0.66854 0.21912 0.209 0.0
H1586 H 0.64498 0.31221 0.17524 0.0
H1587 H 0.64779 0.29651 0.1459 0.0
H1588 H 0.67417 0.31448 0.16298 0.0
H1589 H 0.60942 0.22177 0.20385 0.0
H1590 H 0.62851 0.1986 0.19896 0.0
H1591 H 0.61287 0.20871 0.17359 0.0
C1592 C 0.56508 0.85604 0.95106 0.0
C1593 C 0.54837 0.83422 0.95441 0.0
C1594 C 0.56528 0.879 0.96538 0.0
C1595 C 0.54808 0.88015 0.98308 0.0
C1596 C 0.53191 0.85789 0.98724 0.0
C1597 C 0.53242 0.83512 0.97299 0.0
C1598 C 0.58306 0.90228 0.96074 0.0
C1599 C 0.51302 0.85843 0.00564 0.0
C1600 C 0.55166 0.93637 0.03083 0.0
C1601 C 0.53637 0.95028 0.01978 0.0
C1602 C 0.55645 0.91387 0.01871 0.0
C1603 C 0.54515 0.90499 0.99539 0.0
C1604 C 0.52974 0.91916 0.98424 0.0
C1605 C 0.52559 0.94166 0.9966 0.0
C1606 C 0.57337 0.89951 0.03089 0.0
C1607 C 0.51704 0.9102 0.95955 0.0
H1608 H 0.57754 0.85536 0.93679 0.0
H1609 H 0.51945 0.8183 0.97561 0.0
H1610 H 0.57354 0.91559 0.9518 0.0
H1611 H 0.59173 0.91238 0.97815 0.0
H1612 H 0.59726 0.89751 0.94885 0.0
H1613 H 0.503 0.83915 0.00792 0.0
H1614 H 0.52135 0.86735 0.02358 0.0
H1615 H 0.49999 0.8701 -0.00031 0.0
H1616 H 0.55995 0.94316 0.04881 0.0
H1617 H 0.51319 0.95209 0.98846 0.0
H1618 H 0.5876 0.89597 0.01854 0.0
H1619 H 0.56343 0.88075 0.03478 0.0
H1620 H 0.58202 0.9099 0.04821 0.0
H1621 H 0.53032 0.9075 0.94586 0.0
H1622 H 0.50606 0.92379 0.95327 0.0
H1623 H 0.50509 0.89157 0.96026 0.0
C1624 C 0.91722 0.76705 0.67153 0.0
C1625 C 0.94103 0.76944 0.68079 0.0
C1626 C 0.89829 0.7665 0.68707 0.0
C1627 C 0.90324 0.76838 0.71255 0.0
C1628 C 0.92722 0.77066 0.72206 0.0
C1629 C 0.94588 0.77118 0.70604 0.0
C1630 C 0.87295 0.76406 0.67618 0.0
C1631 C 0.93316 0.77271 0.74912 0.0
C1632 C 0.85411 0.79118 0.7479 0.0
C1633 C 0.83979 0.76815 0.75243 0.0
C1634 C 0.87566 0.79164 0.73625 0.0
C1635 C 0.88315 0.76852 0.729 0.0
C1636 C 0.86972 0.74536 0.7351 0.0
C1637 C 0.84819 0.74545 0.74674 0.0
C1638 C 0.88954 0.81675 0.73023 0.0
C1639 C 0.8772 0.72031 0.7279 0.0
H1640 H 0.91335 0.76565 0.65204 0.0
H1641 H 0.96425 0.77298 0.71329 0.0
H1642 H 0.86135 0.74708 0.68205 0.0
H1643 H 0.86532 0.78084 0.6828 0.0
H1644 H 0.87212 0.76244 0.65598 0.0
H1645 H 0.95265 0.77382 0.75358 0.0
H1646 H 0.9276 0.78986 0.75807 0.0
H1647 H 0.92298 0.75607 0.75698 0.0
H1648 H 0.84794 0.80887 0.75237 0.0
H1649 H 0.83741 0.72755 0.75033 0.0
H1650 H 0.88762 0.81791 0.71034 0.0
H1651 H 0.90897 0.81842 0.73524 0.0
H1652 H 0.88306 0.83312 0.7397 0.0
H1653 H 0.87418 0.71565 0.70791 0.0
H1654 H 0.86687 0.70457 0.73691 0.0
H1655 H 0.89664 0.72148 0.73252 0.0
C1656 C 0.08407 0.00866 0.8446 0.0
C1657 C 0.10776 0.00471 0.84772 0.0
C1658 C 0.06866 0.00705 0.86388 0.0
C1659 C 0.07698 0.00084 0.88669 0.0
C1660 C 0.10059 0.99587 0.88962 0.0
C1661 C 0.11577 0.99812 0.87019 0.0
C1662 C 0.04378 0.01294 0.86011 0.0
C1663 C 0.10997 0.98868 0.91346 0.0
C1664 C 0.0492 0.02456 0.94362 0.0
C1665 C 0.03259 0.0031 0.94814 0.0
C1666 C 0.06357 0.02407 0.92362 0.0
C1667 C 0.06165 0.00138 0.90794 0.0
C1668 C 0.04514 0.9795 0.91262 0.0
C1669 C 0.03058 0.9807 0.93256 0.0
C1670 C 0.08068 0.04794 0.91919 0.0
C1671 C 0.04295 0.95482 0.89665 0.0
H1672 H 0.0778 0.01382 0.82729 0.0
H1673 H 0.134 0.99482 0.87263 0.0
H1674 H 0.03007 0.99712 0.86512 0.0
H1675 H 0.04217 0.03013 0.87216 0.0
H1676 H 0.03962 0.01629 0.841 0.0
H1677 H 0.12836 0.98432 0.91247 0.0
H1678 H 0.11033 0.0044 0.92799 0.0
H1679 H 0.0978 0.97185 0.91892 0.0
H1680 H 0.05072 0.04199 0.95555 0.0
H1681 H 0.01783 0.96406 0.93611 0.0
H1682 H 0.07685 0.05318 0.90068 0.0
H1683 H 0.09943 0.0446 0.92015 0.0
H1684 H 0.0794 0.06423 0.93263 0.0
H1685 H 0.0374 0.95744 0.87772 0.0
H1686 H 0.02969 0.93938 0.90307 0.0
H1687 H 0.06067 0.94881 0.89618 0.0
C1688 C 0.72416 0.33755 0.56443 0.0
C1689 C 0.74351 0.35751 0.56289 0.0
C1690 C 0.72291 0.32319 0.58445 0.0
C1691 C 0.74161 0.32883 0.60301 0.0
C1692 C 0.76105 0.3491 0.60157 0.0
C1693 C 0.76167 0.3633 0.5816 0.0
C1694 C 0.70175 0.30195 0.58568 0.0
C1695 C 0.78133 0.35572 0.62106 0.0
C1696 C 0.7355 0.31095 0.66713 0.0
C1697 C 0.74856 0.29119 0.66695 0.0
C1698 C 0.73174 0.32243 0.64595 0.0
C1699 C 0.74119 0.31376 0.62414 0.0
C1700 C 0.75302 0.29269 0.62355 0.0
C1701 C 0.75653 0.28156 0.64506 0.0
C1702 C 0.71869 0.3446 0.64717 0.0
C1703 C 0.76345 0.28304 0.60064 0.0
H1704 H 0.71008 0.33308 0.54997 0.0
H1705 H 0.7767 0.37866 0.58042 0.0
H1706 H 0.70807 0.28367 0.58633 0.0
H1707 H 0.69245 0.30524 0.6026 0.0
H1708 H 0.68858 0.30018 0.56986 0.0
H1709 H 0.79526 0.37187 0.617 0.0
H1710 H 0.77415 0.36076 0.63884 0.0
H1711 H 0.79001 0.33905 0.62301 0.0
H1712 H 0.72894 0.31806 0.68406 0.0
H1713 H 0.76652 0.26617 0.64496 0.0
H1714 H 0.70179 0.33949 0.63549 0.0
H1715 H 0.72977 0.36126 0.64019 0.0
H1716 H 0.71424 0.35031 0.66598 0.0
H1717 H 0.75002 0.28038 0.58499 0.0
H1718 H 0.76958 0.26479 0.60246 0.0
H1719 H 0.77905 0.29728 0.59638 0.0
C1720 C 0.4429 0.05922 0.37986 0.0
C1721 C 0.45054 0.07285 0.36038 0.0
C1722 C 0.45852 0.05892 0.40008 0.0
C1723 C 0.48243 0.07256 0.40073 0.0
C1724 C 0.48975 0.08773 0.38184 0.0
C1725 C 0.47364 0.08777 0.36186 0.0
C1726 C 0.44963 0.04218 0.41951 0.0
C1727 C 0.51513 0.1023 0.38177 0.0
C1728 C 0.51887 0.077 0.46062 0.0
C1729 C 0.52888 0.05512 0.4572 0.0
C1730 C 0.50432 0.08365 0.44198 0.0
C1731 C 0.50036 0.06828 0.41946 0.0
C1732 C 0.51166 0.04693 0.41567 0.0
C1733 C 0.52555 0.04041 0.43479 0.0
C1734 C 0.49201 0.10608 0.44685 0.0
C1735 C 0.50785 0.03004 0.39195 0.0
H1736 H 0.42499 0.04777 0.37888 0.0
H1737 H 0.4796 0.09837 0.34682 0.0
H1738 H 0.44972 0.02213 0.41282 0.0
H1739 H 0.46079 0.04679 0.43682 0.0
H1740 H 0.43078 0.04365 0.42321 0.0
H1741 H 0.51707 0.11568 0.36754 0.0
H1742 H 0.52087 0.11312 0.39973 0.0
H1743 H 0.52752 0.08875 0.37833 0.0
H1744 H 0.52122 0.08798 0.47828 0.0
H1745 H 0.53311 0.02326 0.43252 0.0
H1746 H 0.47225 0.09992 0.44376 0.0
H1747 H 0.49773 0.1203 0.43398 0.0
H1748 H 0.49607 0.11534 0.46573 0.0
H1749 H 0.48903 0.0195 0.38994 0.0
H1750 H 0.52009 0.01605 0.39099 0.0
H1751 H 0.51073 0.04159 0.37636 0.0
C1752 C 0.76773 0.66945 0.09026 0.0
C1753 C 0.77073 0.68317 0.0699 0.0
C1754 C 0.7677 0.68184 0.11373 0.0
C1755 C 0.77044 0.70862 0.11695 0.0
C1756 C 0.77349 0.7226 0.09645 0.0
C1757 C 0.77375 0.70972 0.07317 0.0
C1758 C 0.76471 0.66622 0.1351 0.0
C1759 C 0.77621 0.75114 0.0991 0.0
C1760 C 0.74754 0.73645 0.17525 0.0
C1761 C 0.76886 0.74439 0.18996 0.0
C1762 C 0.74787 0.72539 0.15126 0.0
C1763 C 0.77 0.72186 0.1418 0.0
C1764 C 0.7916 0.73006 0.15646 0.0
C1765 C 0.79079 0.74135 0.18027 0.0
C1766 C 0.72447 0.71719 0.13612 0.0
C1767 C 0.81555 0.72639 0.14719 0.0
H1768 H 0.76547 0.64894 0.08787 0.0
H1769 H 0.77599 0.72041 0.05749 0.0
H1770 H 0.78019 0.67253 0.14859 0.0
H1771 H 0.74829 0.66909 0.14435 0.0
H1772 H 0.76334 0.64562 0.12959 0.0
H1773 H 0.77836 0.75923 0.08138 0.0
H1774 H 0.76021 0.75676 0.10736 0.0
H1775 H 0.79206 0.7597 0.1115 0.0
H1776 H 0.73053 0.73887 0.18247 0.0
H1777 H 0.80738 0.74733 0.19146 0.0
H1778 H 0.721 0.69631 0.13153 0.0
H1779 H 0.72559 0.72596 0.11872 0.0
H1780 H 0.70896 0.72246 0.14567 0.0
H1781 H 0.81553 0.70584 0.14296 0.0
H1782 H 0.83078 0.73451 0.16058 0.0
H1783 H 0.81861 0.7354 0.13007 0.0
C1784 C 0.10441 0.00885 0.71254 0.0
C1785 C 0.12207 0.02747 0.72547 0.0
C1786 C 0.09445 0.01289 0.68981 0.0
C1787 C 0.10255 0.03596 0.67971 0.0
C1788 C 0.12039 0.05478 0.6927 0.0
C1789 C 0.12983 0.05036 0.71545 0.0
C1790 C 0.07527 0.99246 0.67659 0.0
C1791 C 0.1297 0.0795 0.68248 0.0
C1792 C 0.09235 0.03518 0.6112 0.0
C1793 C 0.07181 0.04616 0.60941 0.0
C1794 C 0.10292 0.03233 0.63398 0.0
C1795 C 0.09247 0.04036 0.65546 0.0
C1796 C 0.07213 0.05217 0.65372 0.0
C1797 C 0.06213 0.05508 0.63069 0.0
C1798 C 0.12485 0.02008 0.63505 0.0
C1799 C 0.0604 0.06088 0.67617 0.0
H1800 H 0.09834 0.99116 0.72021 0.0
H1801 H 0.14355 0.06482 0.7253 0.0
H1802 H 0.05878 0.00024 0.67286 0.0
H1803 H 0.08148 0.98589 0.65878 0.0
H1804 H 0.07058 0.97585 0.68713 0.0
H1805 H 0.14367 0.09216 0.69487 0.0
H1806 H 0.13748 0.07568 0.66475 0.0
H1807 H 0.1147 0.08968 0.67908 0.0
H1808 H 0.09985 0.02823 0.59475 0.0
H1809 H 0.04613 0.0634 0.62936 0.0
H1810 H 0.12048 0.00185 0.64319 0.0
H1811 H 0.13947 0.03244 0.64685 0.0
H1812 H 0.13162 0.01628 0.61677 0.0
H1813 H 0.05356 0.04433 0.68612 0.0
H1814 H 0.04519 0.07047 0.67175 0.0
H1815 H 0.07375 0.07415 0.68865 0.0
C1816 C 0.75114 0.32478 0.43465 0.0
C1817 C 0.7448 0.34883 0.43541 0.0
C1818 C 0.75087 0.30981 0.4125 0.0
C1819 C 0.74412 0.31919 0.39067 0.0
C1820 C 0.73715 0.3432 0.39139 0.0
C1821 C 0.73753 0.35774 0.4138 0.0
C1822 C 0.75842 0.2843 0.41237 0.0
C1823 C 0.72978 0.35374 0.36841 0.0
C1824 C 0.7672 0.29646 0.33103 0.0
C1825 C 0.74683 0.28018 0.31996 0.0
C1826 C 0.76681 0.30869 0.35441 0.0
C1827 C 0.74542 0.30449 0.36693 0.0
C1828 C 0.72499 0.28733 0.35617 0.0
C1829 C 0.72594 0.27537 0.33271 0.0
C1830 C 0.78895 0.32695 0.36523 0.0
C1831 C 0.70191 0.28233 0.36904 0.0
H1832 H 0.75674 0.31781 0.45134 0.0
H1833 H 0.73256 0.3763 0.41435 0.0
H1834 H 0.74432 0.26929 0.40265 0.0
H1835 H 0.77504 0.28451 0.40243 0.0
H1836 H 0.76186 0.27916 0.43102 0.0
H1837 H 0.72526 0.37291 0.37207 0.0
H1838 H 0.7445 0.35488 0.35575 0.0
H1839 H 0.71392 0.34083 0.35899 0.0
H1840 H 0.78315 0.30046 0.32104 0.0
H1841 H 0.71012 0.2628 0.32407 0.0
H1842 H 0.79378 0.32244 0.38376 0.0
H1843 H 0.7852 0.34655 0.36694 0.0
H1844 H 0.80465 0.32652 0.35394 0.0
H1845 H 0.70547 0.27697 0.38756 0.0
H1846 H 0.68831 0.26701 0.35898 0.0
H1847 H 0.69421 0.29989 0.37116 0.0
C1848 C 0.47514 0.06151 0.23362 0.0
C1849 C 0.45294 0.06944 0.23449 0.0
C1850 C 0.48655 0.05974 0.21172 0.0
C1851 C 0.47521 0.06563 0.19023 0.0
C1852 C 0.45378 0.07559 0.19143 0.0
C1853 C 0.44293 0.07753 0.21365 0.0
C1854 C 0.50975 0.04968 0.21123 0.0
C1855 C 0.44114 0.08204 0.16889 0.0
C1856 C 0.50688 0.06477 0.13105 0.0
C1857 C 0.49786 0.03996 0.12074 0.0
C1858 C 0.49989 0.07355 0.15385 0.0
C1859 C 0.48332 0.05711 0.16626 0.0
C1860 C 0.4742 0.03203 0.1558 0.0
C1861 C 0.4817 0.02374 0.13321 0.0
C1862 C 0.51 0.10039 0.16445 0.0
C1863 C 0.45634 0.01395 0.16836 0.0
H1864 H 0.48311 0.05563 0.24982 0.0
H1865 H 0.42584 0.08386 0.21433 0.0
H1866 H 0.50614 0.02981 0.20265 0.0
H1867 H 0.52274 0.06098 0.20019 0.0
H1868 H 0.51816 0.04996 0.2298 0.0
H1869 H 0.42682 0.09304 0.17337 0.0
H1870 H 0.4541 0.09312 0.15767 0.0
H1871 H 0.43279 0.06424 0.15763 0.0
H1872 H 0.5194 0.07727 0.12132 0.0
H1873 H 0.47463 0.00457 0.12515 0.0
H1874 H 0.51631 0.10079 0.18378 0.0
H1875 H 0.49571 0.11199 0.16391 0.0
H1876 H 0.52517 0.10939 0.15425 0.0
H1877 H 0.4643 0.01083 0.18626 0.0
H1878 H 0.45071 0.99524 0.1575 0.0
H1879 H 0.44009 0.02225 0.17179 0.0
C1880 C 0.76285 0.70644 0.9383 0.0
C1881 C 0.77353 0.68496 0.93922 0.0
C1882 C 0.7641 0.71998 0.91769 0.0
C1883 C 0.77638 0.71189 0.89749 0.0
C1884 C 0.78737 0.69033 0.8984 0.0
C1885 C 0.78584 0.67715 0.91924 0.0
C1886 C 0.75203 0.74277 0.91739 0.0
C1887 C 0.80077 0.68118 0.87735 0.0
C1888 C 0.75894 0.73134 0.83576 0.0
C1889 C 0.77743 0.75188 0.83316 0.0
C1890 C 0.75857 0.718 0.85643 0.0
C1891 C 0.77704 0.72551 0.87513 0.0
C1892 C 0.79585 0.74617 0.87254 0.0
C1893 C 0.79582 0.75912 0.85156 0.0
C1894 C 0.73833 0.69594 0.85829 0.0
C1895 C 0.81589 0.7547 0.89202 0.0
H1896 H 0.75332 0.71259 0.95365 0.0
H1897 H 0.79425 0.66064 0.91985 0.0
H1898 H 0.76528 0.75971 0.91393 0.0
H1899 H 0.73784 0.73944 0.90238 0.0
H1900 H 0.74373 0.747 0.93477 0.0
H1901 H 0.80616 0.6627 0.87983 0.0
H1902 H 0.78956 0.6792 0.86009 0.0
H1903 H 0.81719 0.6954 0.87541 0.0
H1904 H 0.74451 0.72583 0.82173 0.0
H1905 H 0.81012 0.77501 0.84963 0.0
H1906 H 0.72842 0.69956 0.87473 0.0
H1907 H 0.74572 0.67844 0.86026 0.0
H1908 H 0.72542 0.69245 0.84211 0.0
H1909 H 0.80838 0.76048 0.9094 0.0
H1910 H 0.82934 0.77087 0.88713 0.0
H1911 H 0.8252 0.73874 0.89522 0.0
C1912 C 0.85476 0.10381 0.02741 0.0
C1913 C 0.83007 0.09508 0.02857 0.0
C1914 C 0.87057 0.08673 0.02402 0.0
C1915 C 0.86137 0.06029 0.02143 0.0
C1916 C 0.83645 0.05135 0.02262 0.0
C1917 C 0.82107 0.06889 0.02634 0.0
C1918 C 0.89713 0.097 0.02321 0.0
C1919 C 0.82607 0.02331 0.01984 0.0
C1920 C 0.90485 0.02353 0.99121 0.0
C1921 C 0.91772 0.01795 0.01156 0.0
C1922 C 0.88506 0.03567 0.99403 0.0
C1923 C 0.87816 0.04227 0.01773 0.0
C1924 C 0.88972 0.03444 0.03812 0.0
C1925 C 0.90947 0.02242 0.03479 0.0
C1926 C 0.87286 0.04328 0.9718 0.0
C1927 C 0.88276 0.04076 0.06368 0.0
H1928 H 0.86176 0.12404 0.02917 0.0
H1929 H 0.80194 0.06208 0.02711 0.0
H1930 H 0.90732 0.08958 0.03764 0.0
H1931 H 0.90359 0.09051 0.00549 0.0
H1932 H 0.90136 0.11807 0.02576 0.0
H1933 H 0.80625 0.01947 0.02107 0.0
H1934 H 0.83039 0.01455 0.00201 0.0
H1935 H 0.8343 0.01384 0.03413 0.0
H1936 H 0.91117 0.01998 0.97322 0.0
H1937 H 0.91934 0.01796 0.05057 0.0
H1938 H 0.8783 0.06403 0.97104 0.0
H1939 H 0.85304 0.03911 0.97273 0.0
H1940 H 0.87771 0.03338 0.95473 0.0
H1941 H 0.89123 0.06064 0.07005 0.0
H1942 H 0.88891 0.02811 0.07642 0.0
H1943 H 0.86303 0.0392 0.06447 0.0
C1944 C 0.35577 0.41653 0.04341 0.0
C1945 C 0.33597 0.42718 0.03656 0.0
C1946 C 0.37933 0.4302 0.04314 0.0
C1947 C 0.38312 0.45511 0.03592 0.0
C1948 C 0.3632 0.46585 0.02881 0.0
C1949 C 0.33987 0.45176 0.02921 0.0
C1950 C 0.40016 0.4181 0.05082 0.0
C1951 C 0.36652 0.49234 0.02097 0.0
C1952 C 0.44113 0.49957 0.05894 0.0
C1953 C 0.45509 0.49852 0.03872 0.0
C1954 C 0.41763 0.48566 0.0582 0.0
C1955 C 0.40788 0.47031 0.03667 0.0
C1956 C 0.42182 0.46944 0.01606 0.0
C1957 C 0.44532 0.48356 0.01737 0.0
C1958 C 0.40336 0.48712 0.08056 0.0
C1959 C 0.41207 0.45329 0.99279 0.0
H1960 H 0.35286 0.39749 0.04899 0.0
H1961 H 0.32464 0.46006 0.0238 0.0
H1962 H 0.41294 0.41807 0.03618 0.0
H1963 H 0.41013 0.42932 0.06712 0.0
H1964 H 0.39423 0.39827 0.05512 0.0
H1965 H 0.34919 0.49766 0.01533 0.0
H1966 H 0.3754 0.50626 0.03612 0.0
H1967 H 0.37841 0.49388 0.00555 0.0
H1968 H 0.44871 0.51105 0.07554 0.0
H1969 H 0.45622 0.48242 0.00188 0.0
H1970 H 0.39853 0.468 0.08689 0.0
H1971 H 0.38632 0.49361 0.07612 0.0
H1972 H 0.41344 0.50026 0.09572 0.0
H1973 H 0.40831 0.433 0.99616 0.0
H1974 H 0.4248 0.45563 0.97807 0.0
H1975 H 0.39483 0.45823 0.9864 0.0
C1976 C 0.36287 0.62033 0.73783 0.0
C1977 C 0.35146 0.59631 0.74317 0.0
C1978 C 0.35077 0.64099 0.73918 0.0
C1979 C 0.32686 0.63767 0.74657 0.0
C1980 C 0.31527 0.61342 0.75199 0.0
C1981 C 0.32763 0.59298 0.74998 0.0
C1982 C 0.36361 0.66641 0.73279 0.0
C1983 C 0.28996 0.60919 0.76032 0.0
C1984 C 0.30683 0.69737 0.77371 0.0
C1985 C 0.29289 0.70337 0.75429 0.0
C1986 C 0.31737 0.67565 0.77166 0.0
C1987 C 0.31433 0.65978 0.74944 0.0
C1988 C 0.29993 0.66551 0.72987 0.0
C1989 C 0.2892 0.68715 0.73259 0.0
C1990 C 0.33216 0.66997 0.79314 0.0
C1991 C 0.29662 0.6494 0.70572 0.0
H1992 H 0.38123 0.62295 0.73237 0.0
H1993 H 0.31875 0.57445 0.7542 0.0
H1994 H 0.35283 0.67333 0.71849 0.0
H1995 H 0.36564 0.68057 0.74897 0.0
H1996 H 0.38172 0.66555 0.72619 0.0
H1997 H 0.28341 0.58914 0.76363 0.0
H1998 H 0.28919 0.62152 0.77737 0.0
H1999 H 0.27755 0.61453 0.74648 0.0
H2000 H 0.30967 0.70983 0.79054 0.0
H2001 H 0.27876 0.69192 0.71738 0.0
H2002 H 0.35118 0.67128 0.78854 0.0
H2003 H 0.32565 0.65031 0.79756 0.0
H2004 H 0.33151 0.68327 0.80958 0.0
H2005 H 0.314 0.65145 0.69692 0.0
H2006 H 0.28303 0.6549 0.69321 0.0
H2007 H 0.29104 0.62906 0.70836 0.0
C2008 C 0.20972 0.59528 0.51202 0.0
C2009 C 0.21749 0.62137 0.5183 0.0
C2010 C 0.18533 0.58431 0.51171 0.0
C2011 C 0.16833 0.59994 0.51737 0.0
C2012 C 0.17605 0.62637 0.52341 0.0
C2013 C 0.20063 0.63675 0.52404 0.0
C2014 C 0.17777 0.55599 0.50559 0.0
C2015 C 0.15835 0.64365 0.52909 0.0
C2016 C 0.10374 0.57438 0.4946 0.0
C2017 C 0.09342 0.56656 0.51586 0.0
C2018 C 0.12806 0.58564 0.49491 0.0
C2019 C 0.14245 0.5886 0.51691 0.0
C2020 C 0.13217 0.58052 0.53839 0.0
C2021 C 0.10766 0.56984 0.53767 0.0
C2022 C 0.13832 0.59449 0.47176 0.0
C2023 C 0.14712 0.5829 0.56204 0.0
H2024 H 0.22278 0.58334 0.50773 0.0
H2025 H 0.20664 0.65695 0.52882 0.0
H2026 H 0.1681 0.54754 0.52076 0.0
H2027 H 0.16515 0.55192 0.48922 0.0
H2028 H 0.19331 0.54647 0.50211 0.0
H2029 H 0.16725 0.66386 0.53288 0.0
H2030 H 0.14488 0.64194 0.51358 0.0
H2031 H 0.14844 0.63791 0.54514 0.0
H2032 H 0.0927 0.57208 0.47776 0.0
H2033 H 0.09973 0.56362 0.55409 0.0
H2034 H 0.15295 0.58424 0.46659 0.0
H2035 H 0.14629 0.61501 0.47469 0.0
H2036 H 0.12453 0.59142 0.45636 0.0
H2037 H 0.16221 0.57249 0.55963 0.0
H2038 H 0.13645 0.57534 0.57701 0.0
H2039 H 0.15511 0.6031 0.56754 0.0
C2040 C 0.67298 0.92351 0.75586 0.0
C2041 C 0.67889 0.95001 0.75767 0.0
C2042 C 0.6908 0.90891 0.75888 0.0
C2043 C 0.71509 0.92118 0.76348 0.0
C2044 C 0.72119 0.94793 0.76513 0.0
C2045 C 0.70295 0.96209 0.76236 0.0
C2046 C 0.6836 0.88035 0.75721 0.0
C2047 C 0.74696 0.96153 0.7696 0.0
C2048 C 0.75288 0.87935 0.79184 0.0
C2049 C 0.76072 0.86722 0.77105 0.0
C2050 C 0.73932 0.89848 0.78987 0.0
C2051 C 0.7339 0.9057 0.7666 0.0
C2052 C 0.74395 0.89531 0.74589 0.0
C2053 C 0.75716 0.87598 0.74835 0.0
C2054 C 0.72892 0.90917 0.81237 0.0
C2055 C 0.739 0.90284 0.7208 0.0
H2056 H 0.65439 0.91418 0.7523 0.0
H2057 H 0.70756 0.98261 0.76362 0.0
H2058 H 0.69264 0.87155 0.74217 0.0
H2059 H 0.68949 0.8733 0.77428 0.0
H2060 H 0.66388 0.87386 0.75398 0.0
H2061 H 0.74868 0.98247 0.77033 0.0
H2062 H 0.75467 0.95678 0.78699 0.0
H2063 H 0.75791 0.9551 0.75495 0.0
H2064 H 0.75569 0.87257 0.80941 0.0
H2065 H 0.76339 0.86665 0.73227 0.0
H2066 H 0.7094 0.90126 0.81191 0.0
H2067 H 0.73096 0.93009 0.813 0.0
H2068 H 0.73757 0.90438 0.82931 0.0
H2069 H 0.72102 0.89254 0.71344 0.0
H2070 H 0.75252 0.89798 0.70809 0.0
H2071 H 0.73894 0.92347 0.72133 0.0
C2072 C 0.71524 0.95122 0.55153 0.0
C2073 C 0.71083 0.92584 0.54136 0.0
C2074 C 0.6972 0.96599 0.55105 0.0
C2075 C 0.67417 0.95514 0.54011 0.0
C2076 C 0.66942 0.92935 0.53035 0.0
C2077 C 0.68782 0.915 0.53108 0.0
C2078 C 0.70289 0.99332 0.56189 0.0
C2079 C 0.64503 0.91705 0.51871 0.0
C2080 C 0.62025 0.98628 0.5534 0.0
C2081 C 0.61792 0.99878 0.53252 0.0
C2082 C 0.63885 0.97254 0.55647 0.0
C2083 C 0.6553 0.97102 0.53805 0.0
C2084 C 0.65338 0.98422 0.51725 0.0
C2085 C 0.63474 0.99801 0.51478 0.0
C2086 C 0.6403 0.95893 0.57901 0.0
C2087 C 0.67062 0.98321 0.49726 0.0
H2088 H 0.73296 0.95972 0.55958 0.0
H2089 H 0.68428 0.8954 0.52324 0.0
H2090 H 0.70094 0.00602 0.54752 0.0
H2091 H 0.68996 0.99674 0.57577 0.0
H2092 H 0.72141 0.99863 0.57051 0.0
H2093 H 0.64403 0.89663 0.51259 0.0
H2094 H 0.63096 0.91883 0.53177 0.0
H2095 H 0.64083 0.92694 0.50277 0.0
H2096 H 0.60722 0.98679 0.56715 0.0
H2097 H 0.63294 0.0076 0.49858 0.0
H2098 H 0.65917 0.96105 0.58632 0.0
H2099 H 0.63328 0.93837 0.57433 0.0
H2100 H 0.62957 0.96607 0.59354 0.0
H2101 H 0.6894 0.98959 0.50487 0.0
H2102 H 0.6672 0.99523 0.48268 0.0
H2103 H 0.66903 0.96336 0.48902 0.0
C2104 C 0.34829 0.4442 0.71471 0.0
C2105 C 0.34174 0.46435 0.72918 0.0
C2106 C 0.33609 0.41915 0.71539 0.0
C2107 C 0.31679 0.41424 0.73076 0.0
C2108 C 0.30941 0.43468 0.74452 0.0
C2109 C 0.32203 0.45947 0.74363 0.0
C2110 C 0.34455 0.39784 0.70054 0.0
C2111 C 0.28881 0.43027 0.76099 0.0
C2112 C 0.27317 0.35112 0.72354 0.0
C2113 C 0.28164 0.33887 0.74251 0.0
C2114 C 0.28476 0.37546 0.71906 0.0
C2115 C 0.30534 0.3877 0.73386 0.0
C2116 C 0.31432 0.37505 0.7526 0.0
C2117 C 0.30227 0.35086 0.75679 0.0
C2118 C 0.27465 0.38835 0.69894 0.0
C2119 C 0.33633 0.38733 0.76866 0.0
H2120 H 0.36357 0.44786 0.70357 0.0
H2121 H 0.31684 0.47499 0.75479 0.0
H2122 H 0.35235 0.38589 0.71287 0.0
H2123 H 0.32919 0.38545 0.68978 0.0
H2124 H 0.35836 0.40497 0.68793 0.0
H2125 H 0.28418 0.44832 0.76907 0.0
H2126 H 0.27262 0.41879 0.75077 0.0
H2127 H 0.29362 0.4194 0.77598 0.0
H2128 H 0.25723 0.34186 0.71245 0.0
H2129 H 0.3088 0.34149 0.77155 0.0
H2130 H 0.28884 0.39462 0.68644 0.0
H2131 H 0.26839 0.40556 0.70678 0.0
H2132 H 0.25935 0.37574 0.68822 0.0
H2133 H 0.35162 0.39342 0.75737 0.0
H2134 H 0.34177 0.37438 0.78148 0.0
H2135 H 0.33272 0.40457 0.77936 0.0
C2136 C 0.16695 0.59443 0.26748 0.0
C2137 C 0.1761 0.5753 0.2541 0.0
C2138 C 0.17973 0.61946 0.27058 0.0
C2139 C 0.20223 0.62529 0.26023 0.0
C2140 C 0.21184 0.60589 0.2473 0.0
C2141 C 0.19857 0.58112 0.24426 0.0
C2142 C 0.16886 0.63976 0.28429 0.0
C2143 C 0.23588 0.6114 0.23619 0.0
C2144 C 0.22253 0.69167 0.24286 0.0
C2145 C 0.23918 0.70249 0.26213 0.0
C2146 C 0.21022 0.66665 0.24224 0.0
C2147 C 0.21486 0.65198 0.26122 0.0
C2148 C 0.23171 0.66268 0.2807 0.0
C2149 C 0.24362 0.68794 0.281 0.0
C2150 C 0.19218 0.65595 0.22128 0.0
C2151 C 0.23723 0.64741 0.3011 0.0
H2152 H 0.14961 0.58993 0.2752 0.0
H2153 H 0.2058 0.56629 0.23413 0.0
H2154 H 0.18174 0.65023 0.29902 0.0
H2155 H 0.16505 0.65373 0.27179 0.0
H2156 H 0.15188 0.63184 0.29241 0.0
H2157 H 0.2416 0.59386 0.2283 0.0
H2158 H 0.2349 0.62406 0.2216 0.0
H2159 H 0.24988 0.62146 0.2501 0.0
H2160 H 0.21879 0.70287 0.22833 0.0
H2161 H 0.25649 0.69621 0.29592 0.0
H2162 H 0.17431 0.64924 0.22824 0.0
H2163 H 0.19772 0.63934 0.21127 0.0
H2164 H 0.19027 0.67011 0.20827 0.0
H2165 H 0.22056 0.64046 0.31014 0.0
H2166 H 0.25069 0.6586 0.315 0.0
H2167 H 0.2442 0.63048 0.29366 0.0
C2168 C 0.51409 0.70922 0.45178 0.0
C2169 C 0.50717 0.70184 0.42714 0.0
C2170 C 0.51699 0.69114 0.46786 0.0
C2171 C 0.5131 0.66515 0.45897 0.0
C2172 C 0.5059 0.65761 0.43414 0.0
C2173 C 0.50291 0.67605 0.41855 0.0
C2174 C 0.52444 0.69982 0.49426 0.0
C2175 C 0.50172 0.63006 0.42395 0.0
C2176 C 0.54266 0.61766 0.48971 0.0
C2177 C 0.52305 0.60353 0.49998 0.0
C2178 C 0.53994 0.63861 0.47726 0.0
C2179 C 0.51712 0.64572 0.4753 0.0
C2180 C 0.49767 0.63264 0.48708 0.0
C2181 C 0.50084 0.61161 0.49921 0.0
C2182 C 0.5611 0.65207 0.46489 0.0
C2183 C 0.47315 0.6399 0.4857 0.0
H2184 H 0.51731 0.72917 0.45851 0.0
H2185 H 0.49759 0.67028 0.39951 0.0
H2186 H 0.51132 0.6899 0.5061 0.0
H2187 H 0.54213 0.69485 0.49892 0.0
H2188 H 0.52579 0.72062 0.49848 0.0
H2189 H 0.49597 0.62735 0.40428 0.0
H2190 H 0.51847 0.62238 0.42646 0.0
H2191 H 0.48774 0.61873 0.43393 0.0
H2192 H 0.55988 0.61156 0.49018 0.0
H2193 H 0.48564 0.60095 0.50732 0.0
H2194 H 0.56349 0.67289 0.46945 0.0
H2195 H 0.5577 0.6482 0.44487 0.0
H2196 H 0.5781 0.64581 0.47009 0.0
H2197 H 0.47467 0.66066 0.49017 0.0
H2198 H 0.4608 0.62988 0.49821 0.0
H2199 H 0.46501 0.6351 0.46686 0.0
C2200 C 0.62503 0.32053 0.69001 0.0
C2201 C 0.60428 0.30397 0.69536 0.0
C2202 C 0.64706 0.3213 0.70291 0.0
C2203 C 0.64826 0.3051 0.72149 0.0
C2204 C 0.62713 0.28921 0.72768 0.0
C2205 C 0.60537 0.28888 0.71455 0.0
C2206 C 0.66925 0.33851 0.69592 0.0
C2207 C 0.62773 0.27152 0.74728 0.0
C2208 C 0.70474 0.27918 0.73366 0.0
C2209 C 0.71367 0.2925 0.75609 0.0
C2210 C 0.68406 0.28399 0.7217 0.0
C2211 C 0.67186 0.30245 0.73258 0.0
C2212 C 0.68128 0.31669 0.7548 0.0
C2213 C 0.70216 0.31148 0.76639 0.0
C2214 C 0.67473 0.26849 0.69793 0.0
C2215 C 0.66886 0.33672 0.76673 0.0
H2216 H 0.62422 0.33236 0.67527 0.0
H2217 H 0.58933 0.27615 0.71883 0.0
H2218 H 0.67849 0.35043 0.71222 0.0
H2219 H 0.68203 0.32689 0.68841 0.0
H2220 H 0.66506 0.35109 0.68213 0.0
H2221 H 0.60945 0.26195 0.75122 0.0
H2222 H 0.63826 0.25675 0.74147 0.0
H2223 H 0.63677 0.28207 0.76433 0.0
H2224 H 0.71352 0.26436 0.72571 0.0
H2225 H 0.70913 0.32182 0.78372 0.0
H2226 H 0.67185 0.28113 0.68377 0.0
H2227 H 0.6571 0.25641 0.70032 0.0
H2228 H 0.68722 0.25606 0.69121 0.0
H2229 H 0.66492 0.34987 0.75343 0.0
H2230 H 0.6798 0.34791 0.78253 0.0
H2231 H 0.65141 0.32757 0.7731 0.0
C2232 C 0.98757 0.32399 0.9384 0.0
C2233 C 0.0018 0.32324 0.91832 0.0
C2234 C 0.98734 0.34692 0.9526 0.0
C2235 C 0.00152 0.36961 0.94641 0.0
C2236 C 0.01567 0.36899 0.92595 0.0
C2237 C 0.01572 0.34578 0.91221 0.0
C2238 C 0.9722 0.34682 0.97441 0.0
C2239 C 0.03089 0.39284 0.91867 0.0
C2240 C 0.98754 0.4337 0.96946 0.0
C2241 C 0.00569 0.44204 0.98797 0.0
C2242 C 0.98562 0.40988 0.95609 0.0
C2243 C 0.00207 0.39398 0.96159 0.0
C2244 C 0.01983 0.40191 0.98088 0.0
C2245 C 0.0215 0.42589 0.99376 0.0
C2246 C 0.96654 0.40214 0.93553 0.0
C2247 C 0.03752 0.38536 0.98748 0.0
H2248 H 0.97681 0.30658 0.94321 0.0
H2249 H 0.02668 0.3453 0.89665 0.0
H2250 H 0.98387 0.35371 0.99119 0.0
H2251 H 0.95936 0.35997 0.97276 0.0
H2252 H 0.96191 0.32762 0.97655 0.0
H2253 H 0.04028 0.38924 0.90184 0.0
H2254 H 0.01952 0.40717 0.91568 0.0
H2255 H 0.04455 0.40121 0.93355 0.0
H2256 H 0.97534 0.44612 0.9648 0.0
H2257 H 0.03544 0.43212 0.0082 0.0
H2258 H 0.95561 0.38332 0.93781 0.0
H2259 H 0.9752 0.4003 0.918 0.0
H2260 H 0.95437 0.41608 0.93441 0.0
H2261 H 0.02782 0.36627 0.99075 0.0
H2262 H 0.04922 0.39361 0.00394 0.0
H2263 H 0.0491 0.38275 0.97212 0.0
C2264 C 0.95375 0.78388 0.17866 0.0
C2265 C 0.97632 0.79725 0.18796 0.0
C2266 C 0.9331 0.78511 0.1915 0.0
C2267 C 0.93509 0.80008 0.21419 0.0
C2268 C 0.95779 0.8139 0.22352 0.0
C2269 C 0.97816 0.81231 0.21029 0.0
C2270 C 0.90918 0.77011 0.18092 0.0
C2271 C 0.96059 0.83008 0.24762 0.0
C2272 C 0.87656 0.81648 0.23586 0.0
C2273 C 0.86945 0.79725 0.2509 0.0
C2274 C 0.89842 0.81834 0.22454 0.0
C2275 C 0.91343 0.80051 0.22839 0.0
C2276 C 0.90686 0.78187 0.24456 0.0
C2277 C 0.8849 0.78047 0.25564 0.0
C2278 C 0.90486 0.83858 0.20754 0.0
C2279 C 0.92243 0.76261 0.24926 0.0
H2280 H 0.95222 0.77226 0.16139 0.0
H2281 H 0.99557 0.82274 0.21754 0.0
H2282 H 0.90185 0.75601 0.19337 0.0
H2283 H 0.89606 0.78294 0.17908 0.0
H2284 H 0.9106 0.75992 0.1628 0.0
H2285 H 0.97934 0.84035 0.25194 0.0
H2286 H 0.94852 0.84416 0.2475 0.0
H2287 H 0.95526 0.818 0.2624 0.0
H2288 H 0.86461 0.82951 0.23219 0.0
H2289 H 0.87943 0.76559 0.26728 0.0
H2290 H 0.9041 0.82958 0.18859 0.0
H2291 H 0.9235 0.84901 0.212 0.0
H2292 H 0.89248 0.85243 0.20835 0.0
H2293 H 0.92292 0.74999 0.23233 0.0
H2294 H 0.91573 0.7507 0.26378 0.0
H2295 H 0.94117 0.77226 0.25458 0.0
C2296 C 0.49362 0.35024 0.10463 0.0
C2297 C 0.49831 0.32751 0.09311 0.0
C2298 C 0.49526 0.37208 0.09227 0.0
C2299 C 0.50221 0.37128 0.06795 0.0
C2300 C 0.50668 0.34828 0.05614 0.0
C2301 C 0.50448 0.3266 0.0688 0.0
C2302 C 0.48996 0.39614 0.10539 0.0
C2303 C 0.51444 0.34675 0.03035 0.0
C2304 C 0.49069 0.42443 0.03067 0.0
C2305 C 0.51271 0.44136 0.03448 0.0
C2306 C 0.48703 0.40135 0.04119 0.0
C2307 C 0.50603 0.39489 0.0554 0.0
C2308 C 0.52859 0.41153 0.05845 0.0
C2309 C 0.53155 0.43469 0.0482 0.0
C2310 C 0.46256 0.38443 0.03798 0.0
C2311 C 0.54944 0.40517 0.07307 0.0
H2312 H 0.48868 0.35098 0.12337 0.0
H2313 H 0.50818 0.30907 0.05983 0.0
H2314 H 0.50651 0.41091 0.1076 0.0
H2315 H 0.47638 0.40359 0.09451 0.0
H2316 H 0.48321 0.39316 0.12366 0.0
H2317 H 0.51643 0.32723 0.02348 0.0
H2318 H 0.50118 0.35305 0.01808 0.0
H2319 H 0.5319 0.35971 0.02942 0.0
H2320 H 0.47596 0.42975 0.0204 0.0
H2321 H 0.5486 0.44775 0.05114 0.0
H2322 H 0.45439 0.38353 0.05582 0.0
H2323 H 0.46418 0.36481 0.03121 0.0
H2324 H 0.45019 0.39136 0.02514 0.0
H2325 H 0.54503 0.40441 0.09237 0.0
H2326 H 0.56622 0.41932 0.07233 0.0
H2327 H 0.55282 0.38617 0.06626 0.0
C2328 C 0.97374 0.31223 0.36365 0.0
C2329 C 0.97816 0.28806 0.36752 0.0
C2330 C 0.95196 0.31528 0.35229 0.0
C2331 C 0.9342 0.29361 0.34465 0.0
C2332 C 0.93862 0.26914 0.34839 0.0
C2333 C 0.96058 0.26666 0.35978 0.0
C2334 C 0.94793 0.34166 0.34851 0.0
C2335 C 0.92013 0.24558 0.34042 0.0
C2336 C 0.86896 0.30005 0.33371 0.0
C2337 C 0.86676 0.29851 0.30829 0.0
C2338 C 0.89099 0.29901 0.34589 0.0
C2339 C 0.91117 0.29643 0.33225 0.0
C2340 C 0.90914 0.29566 0.30659 0.0
C2341 C 0.88694 0.29669 0.29493 0.0
C2342 C 0.89251 0.29996 0.37329 0.0
C2343 C 0.93026 0.29304 0.29141 0.0
H2344 H 0.98725 0.32886 0.36966 0.0
H2345 H 0.96388 0.24794 0.36281 0.0
H2346 H 0.94459 0.3432 0.32884 0.0
H2347 H 0.93174 0.34546 0.3577 0.0
H2348 H 0.96351 0.35654 0.35564 0.0
H2349 H 0.92626 0.22798 0.34487 0.0
H2350 H 0.90313 0.2467 0.34935 0.0
H2351 H 0.91601 0.24422 0.3205 0.0
H2352 H 0.85333 0.30142 0.34404 0.0
H2353 H 0.88527 0.29552 0.27524 0.0
H2354 H 0.90737 0.31529 0.38112 0.0
H2355 H 0.89658 0.28182 0.37881 0.0
H2356 H 0.87553 0.30324 0.38127 0.0
H2357 H 0.94581 0.30829 0.29762 0.0
H2358 H 0.92599 0.29393 0.27175 0.0
H2359 H 0.93589 0.27466 0.29371 0.0
C2360 C 0.98444 0.70433 0.56124 0.0
C2361 C 0.97563 0.70445 0.58452 0.0
C2362 C 0.98467 0.68144 0.54707 0.0
C2363 C 0.97547 0.65818 0.55628 0.0
C2364 C 0.96459 0.65828 0.57884 0.0
C2365 C 0.96499 0.68147 0.59284 0.0
C2366 C 0.99673 0.68216 0.52325 0.0
C2367 C 0.95417 0.6339 0.58908 0.0
C2368 C 0.97213 0.59885 0.51238 0.0
C2369 C 0.99374 0.59137 0.51897 0.0
C2370 C 0.96531 0.62005 0.52501 0.0
C2371 C 0.98077 0.6342 0.54421 0.0
C2372 C 0.00237 0.6263 0.55117 0.0
C2373 C 0.00849 0.60489 0.53854 0.0
C2374 C 0.94182 0.62754 0.51765 0.0
C2375 C 0.01944 0.64088 0.57147 0.0
H2376 H 0.99261 0.72206 0.5547 0.0
H2377 H 0.95794 0.6815 0.61075 0.0
H2378 H 0.014 0.67535 0.52525 0.0
H2379 H 0.9854 0.66937 0.5087 0.0
H2380 H 0.0005 0.7016 0.51739 0.0
H2381 H 0.94191 0.63713 0.60372 0.0
H2382 H 0.94419 0.61979 0.57463 0.0
H2383 H 0.96897 0.62557 0.59689 0.0
H2384 H 0.96063 0.58818 0.49736 0.0
H2385 H 0.02521 0.59908 0.54368 0.0
H2386 H 0.94533 0.64613 0.51007 0.0
H2387 H 0.93114 0.62979 0.5338 0.0
H2388 H 0.93092 0.61334 0.5038 0.0
H2389 H 0.02564 0.66062 0.56711 0.0
H2390 H 0.03545 0.63207 0.57462 0.0
H2391 H 0.0101 0.64193 0.58864 0.0
C2392 C 0.61465 0.77269 0.864 0.0
C2393 C 0.59063 0.76723 0.85487 0.0
C2394 C 0.63348 0.77131 0.84858 0.0
C2395 C 0.6282 0.7645 0.82332 0.0
C2396 C 0.60398 0.75923 0.81391 0.0
C2397 C 0.58544 0.76056 0.82984 0.0
C2398 C 0.65905 0.77693 0.85939 0.0
C2399 C 0.59767 0.75208 0.78709 0.0
C2400 C 0.6818 0.78298 0.78561 0.0
C2401 C 0.69118 0.76051 0.78346 0.0
C2402 C 0.66041 0.78416 0.79724 0.0
C2403 C 0.6482 0.76241 0.80709 0.0
C2404 C 0.65675 0.73928 0.80362 0.0
C2405 C 0.67806 0.73857 0.79176 0.0
C2406 C 0.65172 0.80912 0.80025 0.0
C2407 C 0.6443 0.71565 0.81386 0.0
H2408 H 0.61879 0.77784 0.88333 0.0
H2409 H 0.56689 0.7564 0.82268 0.0
H2410 H 0.6676 0.7601 0.85563 0.0
H2411 H 0.66969 0.79278 0.85082 0.0
H2412 H 0.66011 0.78208 0.87937 0.0
H2413 H 0.57802 0.74926 0.78256 0.0
H2414 H 0.60693 0.76708 0.77651 0.0
H2415 H 0.60403 0.73431 0.78112 0.0
H2416 H 0.69165 0.79999 0.77909 0.0
H2417 H 0.68507 0.72108 0.79018 0.0
H2418 H 0.65467 0.81714 0.81958 0.0
H2419 H 0.63215 0.80627 0.79542 0.0
H2420 H 0.66129 0.8232 0.78887 0.0
H2421 H 0.64659 0.71835 0.83401 0.0
H2422 H 0.65163 0.6986 0.80734 0.0
H2423 H 0.62473 0.71209 0.80887 0.0
C2424 C 0.42558 0.55242 0.65971 0.0
C2425 C 0.43346 0.54479 0.68176 0.0
C2426 C 0.44045 0.55425 0.64 0.0
C2427 C 0.46358 0.54787 0.64228 0.0
C2428 C 0.47172 0.54048 0.66463 0.0
C2429 C 0.45665 0.53926 0.68416 0.0
C2430 C 0.43137 0.5628 0.61668 0.0
C2431 C 0.49607 0.5331 0.66768 0.0
C2432 C 0.49093 0.52449 0.58496 0.0
C2433 C 0.50834 0.54559 0.58121 0.0
C2434 C 0.47616 0.5251 0.60463 0.0
C2435 C 0.47871 0.54745 0.62089 0.0
C2436 C 0.49601 0.56899 0.61695 0.0
C2437 C 0.51076 0.56774 0.59721 0.0
C2438 C 0.45802 0.50168 0.60816 0.0
C2439 C 0.49902 0.59327 0.63367 0.0
H2440 H 0.40774 0.55694 0.65785 0.0
H2441 H 0.4628 0.53329 0.70114 0.0
H2442 H 0.44318 0.58057 0.61277 0.0
H2443 H 0.43207 0.54835 0.60122 0.0
H2444 H 0.41266 0.56624 0.61753 0.0
H2445 H 0.50006 0.52862 0.68646 0.0
H2446 H 0.49688 0.51622 0.65484 0.0
H2447 H 0.51035 0.54868 0.66321 0.0
H2448 H 0.48911 0.50725 0.57272 0.0
H2449 H 0.52416 0.5841 0.59428 0.0
H2450 H 0.43964 0.50614 0.6077 0.0
H2451 H 0.46155 0.49529 0.62626 0.0
H2452 H 0.45844 0.48578 0.59398 0.0
H2453 H 0.48162 0.5999 0.63467 0.0
H2454 H 0.51262 0.60861 0.62759 0.0
H2455 H 0.50459 0.5898 0.65235 0.0
C2456 C 0.76994 0.2043 0.97006 0.0
C2457 C 0.77819 0.18122 0.96915 0.0
C2458 C 0.76893 0.21719 0.94928 0.0
C2459 C 0.77605 0.20653 0.92706 0.0
C2460 C 0.7844 0.18322 0.92602 0.0
C2461 C 0.78552 0.17089 0.94718 0.0
C2462 C 0.76019 0.24216 0.95108 0.0
C2463 C 0.79188 0.17117 0.90252 0.0
C2464 C 0.75118 0.22545 0.86829 0.0
C2465 C 0.77102 0.24208 0.8612 0.0
C2466 C 0.75253 0.21389 0.88985 0.0
C2467 C 0.77415 0.21939 0.9047 0.0
C2468 C 0.79404 0.23674 0.89793 0.0
C2469 C 0.79228 0.24779 0.87609 0.0
C2470 C 0.73103 0.19532 0.8964 0.0
C2471 C 0.81727 0.24327 0.91352 0.0
H2472 H 0.76442 0.21241 0.98709 0.0
H2473 H 0.79189 0.15304 0.94646 0.0
H2474 H 0.77398 0.25717 0.94481 0.0
H2475 H 0.74372 0.24054 0.93901 0.0
H2476 H 0.7561 0.24826 0.96993 0.0
H2477 H 0.7981 0.15307 0.90486 0.0
H2478 H 0.77654 0.16735 0.88871 0.0
H2479 H 0.80657 0.18438 0.89523 0.0
H2480 H 0.73477 0.22096 0.85668 0.0
H2481 H 0.80761 0.26067 0.87055 0.0
H2482 H 0.72547 0.20143 0.91465 0.0
H2483 H 0.73589 0.17634 0.89729 0.0
H2484 H 0.71544 0.19346 0.88305 0.0
H2485 H 0.81376 0.2503 0.93228 0.0
H2486 H 0.83066 0.25794 0.90618 0.0
H2487 H 0.82521 0.22602 0.9148 0.0
C2488 C 0.08129 0.46477 0.17494 0.0
C2489 C 0.10026 0.48562 0.1791 0.0
C2490 C 0.06503 0.4623 0.1546 0.0
C2491 C 0.06798 0.48112 0.13819 0.0
C2492 C 0.08788 0.50145 0.14165 0.0
C2493 C 0.10375 0.50348 0.16211 0.0
C2494 C 0.04419 0.44024 0.15125 0.0
C2495 C 0.09184 0.52169 0.12428 0.0
C2496 C 0.03786 0.47471 0.07508 0.0
C2497 C 0.02063 0.49002 0.07888 0.0
C2498 C 0.05245 0.46996 0.0946 0.0
C2499 C 0.04955 0.48094 0.1183 0.0
C2500 C 0.03091 0.49493 0.12231 0.0
C2501 C 0.01662 0.49935 0.10243 0.0
C2502 C 0.07153 0.45416 0.08971 0.0
C2503 C 0.02722 0.50687 0.14732 0.0
H2504 H 0.07861 0.45087 0.18802 0.0
H2505 H 0.11853 0.51951 0.16517 0.0
H2506 H 0.0271 0.44729 0.15346 0.0
H2507 H 0.04328 0.43048 0.13259 0.0
H2508 H 0.04551 0.42621 0.16454 0.0
H2509 H 0.10931 0.53489 0.12835 0.0
H2510 H 0.09127 0.51288 0.10529 0.0
H2511 H 0.07721 0.53288 0.1254 0.0
H2512 H 0.04061 0.46734 0.05673 0.0
H2513 H 0.00325 0.51129 0.10511 0.0
H2514 H 0.06637 0.43568 0.09721 0.0
H2515 H 0.08907 0.46358 0.09888 0.0
H2516 H 0.07389 0.45042 0.06995 0.0
H2517 H 0.02692 0.49286 0.16085 0.0
H2518 H 0.01025 0.51445 0.14781 0.0
H2519 H 0.04244 0.52271 0.15296 0.0
C2520 C 0.77022 0.82928 0.45889 0.0
C2521 C 0.76508 0.85361 0.46446 0.0
C2522 C 0.77131 0.81933 0.43462 0.0
C2523 C 0.76715 0.83406 0.41545 0.0
C2524 C 0.76173 0.85854 0.42099 0.0
C2525 C 0.76077 0.86801 0.44539 0.0
C2526 C 0.77709 0.79313 0.42948 0.0
C2527 C 0.75709 0.87484 0.40113 0.0
C2528 C 0.79098 0.8193 0.35334 0.0
C2529 C 0.77024 0.80578 0.34006 0.0
C2530 C 0.79029 0.82841 0.37792 0.0
C2531 C 0.76835 0.8239 0.38957 0.0
C2532 C 0.7474 0.81013 0.37632 0.0
C2533 C 0.74859 0.80127 0.35179 0.0
C2534 C 0.81301 0.84306 0.3914 0.0
C2535 C 0.72365 0.80488 0.38802 0.0
H2536 H 0.77362 0.81808 0.47353 0.0
H2537 H 0.75681 0.88684 0.44953 0.0
H2538 H 0.76238 0.78082 0.41776 0.0
H2539 H 0.79369 0.79421 0.41939 0.0
H2540 H 0.77969 0.78403 0.44638 0.0
H2541 H 0.75298 0.89339 0.40845 0.0
H2542 H 0.77304 0.87839 0.39012 0.0
H2543 H 0.74178 0.86478 0.38869 0.0
H2544 H 0.80779 0.8229 0.34452 0.0
H2545 H 0.73244 0.79079 0.34182 0.0
H2546 H 0.81715 0.83371 0.40772 0.0
H2547 H 0.81044 0.86248 0.39782 0.0
H2548 H 0.8287 0.84459 0.3799 0.0
H2549 H 0.72549 0.79448 0.40421 0.0
H2550 H 0.70911 0.79353 0.37535 0.0
H2551 H 0.71819 0.82303 0.3944 0.0
C2552 C 0.4251 0.54307 0.82534 0.0
C2553 C 0.42162 0.52436 0.8055 0.0
C2554 C 0.43507 0.53854 0.84788 0.0
C2555 C 0.44159 0.5147 0.85065 0.0
C2556 C 0.43796 0.49572 0.8307 0.0
C2557 C 0.42809 0.50079 0.80838 0.0
C2558 C 0.4388 0.55933 0.86869 0.0
C2559 C 0.44464 0.47006 0.8329 0.0
C2560 C 0.48901 0.51192 0.9005 0.0
C2561 C 0.47499 0.50242 0.91904 0.0
C2562 C 0.47836 0.51581 0.87813 0.0
C2563 C 0.45304 0.50994 0.87413 0.0
C2564 C 0.4388 0.49976 0.89261 0.0
C2565 C 0.44997 0.49616 0.91491 0.0
C2566 C 0.4942 0.52669 0.85894 0.0
C2567 C 0.41177 0.49311 0.88896 0.0
H2568 H 0.42007 0.56128 0.82324 0.0
H2569 H 0.42533 0.48618 0.79316 0.0
H2570 H 0.42916 0.55249 0.88454 0.0
H2571 H 0.45818 0.56457 0.87456 0.0
H2572 H 0.43239 0.57662 0.86373 0.0
H2573 H 0.44002 0.4571 0.81588 0.0
H2574 H 0.46423 0.47234 0.83743 0.0
H2575 H 0.43526 0.46101 0.84793 0.0
H2576 H 0.50837 0.51688 0.90365 0.0
H2577 H 0.43909 0.48891 0.92927 0.0
H2578 H 0.48964 0.54509 0.85475 0.0
H2579 H 0.49101 0.51375 0.84185 0.0
H2580 H 0.51361 0.52979 0.86475 0.0
H2581 H 0.4044 0.51041 0.886 0.0
H2582 H 0.40334 0.48461 0.90478 0.0
H2583 H 0.40653 0.47952 0.87248 0.0
C2584 C 0.80688 0.22506 0.08813 0.0
C2585 C 0.80514 0.19941 0.09191 0.0
C2586 C 0.8079 0.24369 0.10779 0.0
C2587 C 0.80756 0.23644 0.13171 0.0
C2588 C 0.8077 0.21083 0.13569 0.0
C2589 C 0.80624 0.19254 0.11567 0.0
C2590 C 0.80749 0.27072 0.10282 0.0
C2591 C 0.80786 0.20245 0.16102 0.0
C2592 C 0.81979 0.28307 0.18841 0.0
C2593 C 0.79653 0.28153 0.1965 0.0
C2594 C 0.82375 0.26952 0.16649 0.0
C2595 C 0.80389 0.25467 0.15235 0.0
C2596 C 0.78025 0.25506 0.15944 0.0
C2597 C 0.77692 0.2682 0.18166 0.0
C2598 C 0.84922 0.2693 0.15969 0.0
C2599 C 0.75851 0.24002 0.14456 0.0
H2600 H 0.80604 0.23045 0.06975 0.0
H2601 H 0.80511 0.17274 0.11863 0.0
H2602 H 0.78948 0.27513 0.10632 0.0
H2603 H 0.82079 0.28422 0.11517 0.0
H2604 H 0.8113 0.27395 0.08371 0.0
H2605 H 0.81142 0.18283 0.16114 0.0
H2606 H 0.82169 0.21546 0.17323 0.0
H2607 H 0.79016 0.20305 0.16867 0.0
H2608 H 0.83503 0.29304 0.20015 0.0
H2609 H 0.75902 0.26683 0.18805 0.0
H2610 H 0.85095 0.27091 0.13998 0.0
H2611 H 0.85418 0.25099 0.1636 0.0
H2612 H 0.86222 0.28493 0.17012 0.0
H2613 H 0.7597 0.24329 0.1251 0.0
H2614 H 0.74146 0.24502 0.15094 0.0
H2615 H 0.75782 0.21946 0.14584 0.0
C2616 C 0.07107 0.49868 0.30086 0.0
C2617 C 0.09528 0.49659 0.30409 0.0
C2618 C 0.05689 0.50044 0.32088 0.0
C2619 C 0.06735 0.50047 0.34456 0.0
C2620 C 0.09156 0.49745 0.34781 0.0
C2621 C 0.10521 0.49539 0.32748 0.0
C2622 C 0.03102 0.50321 0.31676 0.0
C2623 C 0.10338 0.49757 0.37285 0.0
C2624 C 0.04516 0.53593 0.39846 0.0
C2625 C 0.03379 0.51594 0.41072 0.0
C2626 C 0.05532 0.53115 0.3763 0.0
C2627 C 0.05381 0.50575 0.36615 0.0
C2628 C 0.04114 0.48555 0.37781 0.0
C2629 C 0.03136 0.4909 0.40013 0.0
C2630 C 0.06882 0.55319 0.36444 0.0
C2631 C 0.03888 0.45828 0.36731 0.0
H2632 H 0.06332 0.4994 0.28274 0.0
H2633 H 0.12392 0.49373 0.33 0.0
H2634 H 0.01911 0.48959 0.3268 0.0
H2635 H 0.02888 0.52257 0.32388 0.0
H2636 H 0.02491 0.50006 0.29718 0.0
H2637 H 0.12195 0.49368 0.37214 0.0
H2638 H 0.10413 0.51635 0.38327 0.0
H2639 H 0.09266 0.48315 0.38304 0.0
H2640 H 0.04699 0.55531 0.40667 0.0
H2641 H 0.02246 0.47544 0.40963 0.0
H2642 H 0.06224 0.55232 0.34515 0.0
H2643 H 0.08819 0.55207 0.36462 0.0
H2644 H 0.06698 0.57181 0.37385 0.0
H2645 H 0.03277 0.45609 0.34777 0.0
H2646 H 0.0261 0.44514 0.37705 0.0
H2647 H 0.05671 0.45257 0.36855 0.0
C2648 C 0.76312 0.81964 0.59626 0.0
C2649 C 0.75897 0.84461 0.59754 0.0
C2650 C 0.76152 0.80601 0.61684 0.0
C2651 C 0.755 0.81737 0.6391 0.0
C2652 C 0.75013 0.84235 0.6403 0.0
C2653 C 0.75247 0.85577 0.6196 0.0
C2654 C 0.76747 0.77969 0.61491 0.0
C2655 C 0.7426 0.85496 0.66349 0.0
C2656 C 0.73328 0.77317 0.68705 0.0
C2657 C 0.7537 0.77662 0.70307 0.0
C2658 C 0.73322 0.78671 0.66644 0.0
C2659 C 0.75432 0.80353 0.66139 0.0
C2660 C 0.77501 0.80693 0.67753 0.0
C2661 C 0.77432 0.79373 0.69831 0.0
C2662 C 0.7106 0.78308 0.65009 0.0
C2663 C 0.79804 0.8242 0.67264 0.0
H2664 H 0.76826 0.81097 0.5793 0.0
H2665 H 0.74907 0.875 0.62065 0.0
H2666 H 0.78294 0.77924 0.62777 0.0
H2667 H 0.75204 0.76583 0.62009 0.0
H2668 H 0.77203 0.77346 0.59626 0.0
H2669 H 0.73818 0.8739 0.66109 0.0
H2670 H 0.72666 0.84282 0.67 0.0
H2671 H 0.75724 0.85731 0.67796 0.0
H2672 H 0.71728 0.76007 0.69079 0.0
H2673 H 0.79021 0.79638 0.71059 0.0
H2674 H 0.71392 0.77508 0.63162 0.0
H2675 H 0.70523 0.80168 0.64824 0.0
H2676 H 0.69542 0.7702 0.65709 0.0
H2677 H 0.80405 0.81817 0.65456 0.0
H2678 H 0.81273 0.82419 0.68661 0.0
H2679 H 0.79496 0.84392 0.67221 0.0
C2680 C 0.71918 0.47499 0.51597 0.0
C2681 C 0.70897 0.44919 0.51096 0.0
C2682 C 0.70462 0.49342 0.51897 0.0
C2683 C 0.67935 0.48575 0.51711 0.0
C2684 C 0.66897 0.45969 0.51223 0.0
C2685 C 0.68394 0.44172 0.5091 0.0
C2686 C 0.71623 0.52105 0.52389 0.0
C2687 C 0.64203 0.45077 0.51026 0.0
C2688 C 0.63587 0.52406 0.54486 0.0
C2689 C 0.62518 0.53125 0.52396 0.0
C2690 C 0.65492 0.51072 0.54318 0.0
C2691 C 0.66346 0.50475 0.52007 0.0
C2692 C 0.65427 0.51423 0.4993 0.0
C2693 C 0.6351 0.52731 0.50148 0.0
C2694 C 0.66433 0.50103 0.56576 0.0
C2695 C 0.66311 0.50864 0.47437 0.0
H2696 H 0.73856 0.48082 0.51734 0.0
H2697 H 0.67601 0.42179 0.50529 0.0
H2698 H 0.71046 0.53179 0.50922 0.0
H2699 H 0.7103 0.52933 0.54119 0.0
H2700 H 0.73617 0.52384 0.52504 0.0
H2701 H 0.63688 0.42978 0.5069 0.0
H2702 H 0.63417 0.45711 0.52726 0.0
H2703 H 0.63391 0.4593 0.49519 0.0
H2704 H 0.62821 0.52714 0.56227 0.0
H2705 H 0.62688 0.53298 0.4853 0.0
H2706 H 0.68425 0.50405 0.5667 0.0
H2707 H 0.65756 0.48031 0.56514 0.0
H2708 H 0.65849 0.51042 0.58262 0.0
H2709 H 0.68289 0.50986 0.47523 0.0
H2710 H 0.65833 0.5219 0.46154 0.0
H2711 H 0.65473 0.48904 0.46695 0.0
C2712 C 0.1987 0.07905 0.50816 0.0
C2713 C 0.2025 0.10044 0.49512 0.0
C2714 C 0.17554 0.06476 0.50941 0.0
C2715 C 0.15575 0.07186 0.49709 0.0
C2716 C 0.15957 0.09314 0.48349 0.0
C2717 C 0.18288 0.10725 0.48279 0.0
C2718 C 0.17217 0.0424 0.52432 0.0
C2719 C 0.13896 0.10119 0.46992 0.0
C2720 C 0.09719 0.02475 0.48236 0.0
C2721 C 0.08245 0.03347 0.49969 0.0
C2722 C 0.12131 0.03667 0.48166 0.0
C2723 C 0.13093 0.05754 0.49889 0.0
C2724 C 0.11638 0.06559 0.51714 0.0
C2725 C 0.09226 0.05359 0.51719 0.0
C2726 C 0.13619 0.02761 0.46184 0.0
C2727 C 0.12603 0.08749 0.53609 0.0
H2728 H 0.2138 0.07376 0.51782 0.0
H2729 H 0.18572 0.12373 0.47265 0.0
H2730 H 0.16033 0.04571 0.53929 0.0
H2731 H 0.16318 0.02498 0.51289 0.0
H2732 H 0.18948 0.03898 0.53232 0.0
H2733 H 0.14507 0.11753 0.4594 0.0
H2734 H 0.12921 0.08512 0.45721 0.0
H2735 H 0.12596 0.10659 0.48295 0.0
H2736 H 0.08963 0.00924 0.46876 0.0
H2737 H 0.0809 0.06043 0.53057 0.0
H2738 H 0.15326 0.02363 0.46982 0.0
H2739 H 0.14097 0.04274 0.44963 0.0
H2740 H 0.12653 0.01021 0.45076 0.0
H2741 H 0.14309 0.08463 0.54505 0.0
H2742 H 0.11309 0.08989 0.55028 0.0
H2743 H 0.13003 0.10533 0.52724 0.0
C2744 C 0.20909 0.95619 0.7623 0.0
C2745 C 0.19312 0.95658 0.78097 0.0
C2746 C 0.22189 0.93625 0.75838 0.0
C2747 C 0.21854 0.91611 0.77339 0.0
C2748 C 0.20267 0.91659 0.79247 0.0
C2749 C 0.19022 0.93684 0.79607 0.0
C2750 C 0.23873 0.93654 0.73794 0.0
C2751 C 0.19846 0.89542 0.80879 0.0
C2752 C 0.22936 0.8512 0.74866 0.0
C2753 C 0.25127 0.84983 0.76092 0.0
C2754 C 0.21881 0.8728 0.75224 0.0
C2755 C 0.23049 0.8938 0.76831 0.0
C2756 C 0.25301 0.89298 0.7801 0.0
C2757 C 0.2631 0.87097 0.77634 0.0
C2758 C 0.19473 0.87279 0.73939 0.0
C2759 C 0.26614 0.9151 0.79717 0.0
H2760 H 0.21152 0.97146 0.75064 0.0
H2761 H 0.17796 0.93704 0.81057 0.0
H2762 H 0.25685 0.93452 0.74498 0.0
H2763 H 0.23213 0.92016 0.72417 0.0
H2764 H 0.24039 0.95426 0.72882 0.0
H2765 H 0.18624 0.89906 0.82335 0.0
H2766 H 0.19051 0.87731 0.79782 0.0
H2767 H 0.21578 0.89284 0.8174 0.0
H2768 H 0.22 0.83507 0.73667 0.0
H2769 H 0.28 0.87016 0.78591 0.0
H2770 H 0.19583 0.88941 0.72876 0.0
H2771 H 0.18112 0.87444 0.75299 0.0
H2772 H 0.18836 0.85527 0.72689 0.0
H2773 H 0.26823 0.93281 0.78805 0.0
H2774 H 0.2842 0.91221 0.8036 0.0
H2775 H 0.25548 0.91788 0.81324 0.0
C2776 C 0.32719 0.9383 0.98703 0.0
C2777 C 0.3189 0.91754 -0.00011 0.0
C2778 C 0.3517 0.94909 0.98813 0.0
C2779 C 0.36821 0.93861 0.00217 0.0
C2780 C 0.35999 0.91715 0.01456 0.0
C2781 C 0.33538 0.90697 0.0134 0.0
C2782 C 0.35983 0.97216 0.9749 0.0
C2783 C 0.37713 0.9053 0.02947 0.0
C2784 C 0.43471 0.95567 0.99193 0.0
C2785 C 0.44269 0.97413 0.01154 0.0
C2786 C 0.41046 0.94386 0.98862 0.0
C2787 C 0.39387 0.95097 0.00512 0.0
C2788 C 0.40181 0.96973 0.02482 0.0
C2789 C 0.42616 0.98095 0.02788 0.0
C2790 C 0.40262 0.92365 0.96762 0.0
C2791 C 0.38457 0.97799 0.04264 0.0
H2792 H 0.31445 0.94649 0.97658 0.0
H2793 H 0.32902 0.89077 0.02321 0.0
H2794 H 0.36755 0.98859 0.98825 0.0
H2795 H 0.37421 0.96876 0.9627 0.0
H2796 H 0.34488 0.97728 0.96391 0.0
H2797 H 0.36805 0.88765 0.03661 0.0
H2798 H 0.39192 0.90078 0.01835 0.0
H2799 H 0.38541 0.91895 0.04509 0.0
H2800 H 0.44745 0.95024 0.97932 0.0
H2801 H 0.43216 0.99538 0.04294 0.0
H2802 H 0.38855 0.92918 0.95577 0.0
H2803 H 0.39458 0.90553 0.97458 0.0
H2804 H 0.41778 0.92032 0.95642 0.0
H2805 H 0.39357 0.99329 0.05662 0.0
H2806 H 0.37609 0.9616 0.052 0.0
H2807 H 0.36994 0.98492 0.03281 0.0
C2808 C 0.86272 0.61085 0.7823 0.0
C2809 C 0.85809 0.58506 0.78576 0.0
C2810 C 0.84383 0.62406 0.77921 0.0
C2811 C 0.81977 0.61095 0.77904 0.0
C2812 C 0.81499 0.58487 0.78247 0.0
C2813 C 0.83426 0.57225 0.78606 0.0
C2814 C 0.84964 0.65208 0.7762 0.0
C2815 C 0.78956 0.57035 0.78226 0.0
C2816 C 0.77725 0.656 0.79259 0.0
C2817 C 0.77154 0.66186 0.76914 0.0
C2818 C 0.79137 0.63768 0.79613 0.0
C2819 C 0.79984 0.62499 0.77567 0.0
C2820 C 0.79186 0.62885 0.75191 0.0
C2821 C 0.77778 0.64741 0.7489 0.0
C2822 C 0.7991 0.63408 0.82184 0.0
C2823 C 0.79992 0.61505 0.72967 0.0
H2824 H 0.88114 0.62074 0.78212 0.0
H2825 H 0.83068 0.55221 0.78854 0.0
H2826 H 0.84194 0.6557 0.75836 0.0
H2827 H 0.84139 0.6629 0.79053 0.0
H2828 H 0.8693 0.65951 0.77727 0.0
H2829 H 0.78891 0.54996 0.78456 0.0
H2830 H 0.77999 0.57875 0.7971 0.0
H2831 H 0.77965 0.57183 0.76486 0.0
H2832 H 0.77221 0.66702 0.80831 0.0
H2833 H 0.7732 0.65183 0.73075 0.0
H2834 H 0.81582 0.64795 0.82763 0.0
H2835 H 0.8028 0.61477 0.8235 0.0
H2836 H 0.78515 0.63759 0.83456 0.0
H2837 H 0.81896 0.62317 0.72703 0.0
H2838 H 0.78894 0.61676 0.71298 0.0
H2839 H 0.79887 0.59464 0.732 0.0
C2840 C 0.84877 0.61796 0.01371 0.0
C2841 C 0.82782 0.60775 0.99912 0.0
C2842 C 0.8682 0.60508 0.01459 0.0
C2843 C 0.86666 0.58147 0.00045 0.0
C2844 C 0.84568 0.57124 0.98542 0.0
C2845 C 0.82648 0.58447 0.98499 0.0
C2846 C 0.89031 0.61663 0.0308 0.0
C2847 C 0.84343 0.54621 0.96998 0.0
C2848 C 0.9255 0.5596 0.98792 0.0
C2849 C 0.92675 0.54287 0.00572 0.0
C2850 C 0.90585 0.572 0.98573 0.0
C2851 C 0.88696 0.5674 0.00162 0.0
C2852 C 0.88784 0.54995 0.01916 0.0
C2853 C 0.90776 0.53789 0.02101 0.0
C2854 C 0.9055 0.59034 0.96669 0.0
C2855 C 0.86806 0.54457 0.03644 0.0
H2856 H 0.84989 0.63593 0.02469 0.0
H2857 H 0.81034 0.57649 0.97364 0.0
H2858 H 0.89342 0.60357 0.04451 0.0
H2859 H 0.90635 0.61934 0.01985 0.0
H2860 H 0.88876 0.63523 0.04047 0.0
H2861 H 0.82608 0.54107 0.95896 0.0
H2862 H 0.85832 0.54702 0.95753 0.0
H2863 H 0.84493 0.53089 0.98175 0.0
H2864 H 0.94017 0.56345 0.97604 0.0
H2865 H 0.90873 0.525 0.03481 0.0
H2866 H 0.90288 0.60905 0.97518 0.0
H2867 H 0.89018 0.58314 0.9532 0.0
H2868 H 0.92235 0.59316 0.95695 0.0
H2869 H 0.86696 0.56221 0.04807 0.0
H2870 H 0.87099 0.52977 0.04839 0.0
H2871 H 0.85046 0.53827 0.0261 0.0
C2872 C 0.19124 0.10821 0.81692 0.0
C2873 C 0.20037 0.08703 0.80747 0.0
C2874 C 0.20371 0.13296 0.81525 0.0
C2875 C 0.22566 0.13654 0.80361 0.0
C2876 C 0.2355 0.11521 0.7951 0.0
C2877 C 0.2228 0.0907 0.79729 0.0
C2878 C 0.19283 0.15524 0.8249 0.0
C2879 C 0.25876 0.11821 0.7824 0.0
C2880 C 0.24327 0.19577 0.77135 0.0
C2881 C 0.26193 0.20982 0.78709 0.0
C2882 C 0.23104 0.17208 0.77675 0.0
C2883 C 0.23745 0.16239 0.79858 0.0
C2884 C 0.25578 0.17691 0.81492 0.0
C2885 C 0.26795 0.20042 0.80888 0.0
C2886 C 0.21169 0.15711 0.75876 0.0
C2887 C 0.26278 0.16744 0.83857 0.0
H2888 H 0.17391 0.10548 0.82485 0.0
H2889 H 0.22991 0.07441 0.78988 0.0
H2890 H 0.20644 0.16937 0.83631 0.0
H2891 H 0.18677 0.16486 0.8095 0.0
H2892 H 0.17717 0.14938 0.83585 0.0
H2893 H 0.26476 0.09983 0.77825 0.0
H2894 H 0.25639 0.12664 0.76508 0.0
H2895 H 0.27318 0.13136 0.79376 0.0
H2896 H 0.23859 0.20304 0.75449 0.0
H2897 H 0.28226 0.2114 0.82117 0.0
H2898 H 0.19454 0.15253 0.76775 0.0
H2899 H 0.21681 0.13885 0.75211 0.0
H2900 H 0.20857 0.16755 0.74286 0.0
H2901 H 0.24667 0.16234 0.84908 0.0
H2902 H 0.27625 0.18175 0.85 0.0
H2903 H 0.2704 0.15 0.83479 0.0
C2904 C 0.35522 0.9778 0.2642 0.0
C2905 C 0.37872 0.98228 0.27478 0.0
C2906 C 0.34112 0.95343 0.26175 0.0
C2907 C 0.35098 0.93298 0.26958 0.0
C2908 C 0.37509 0.93718 0.27924 0.0
C2909 C 0.38862 0.96191 0.28201 0.0
C2910 C 0.31535 0.94977 0.25176 0.0
C2911 C 0.38636 0.91567 0.28722 0.0
C2912 C 0.30894 0.876 0.28853 0.0
C2913 C 0.30688 0.85892 0.26755 0.0
C2914 C 0.32297 0.90035 0.28928 0.0
C2915 C 0.33567 0.90747 0.26875 0.0
C2916 C 0.33362 0.89029 0.2475 0.0
C2917 C 0.31899 0.86629 0.24705 0.0
C2918 C 0.32427 0.91842 0.31207 0.0
C2919 C 0.34729 0.89706 0.22545 0.0
H2920 H 0.34745 0.99357 0.25874 0.0
H2921 H 0.40683 0.96536 0.29011 0.0
H2922 H 0.31195 0.93484 0.23618 0.0
H2923 H 0.30309 0.9433 0.26597 0.0
H2924 H 0.31071 0.96749 0.24567 0.0
H2925 H 0.40586 0.92174 0.29238 0.0
H2926 H 0.37728 0.90811 0.30308 0.0
H2927 H 0.38398 0.89989 0.27242 0.0
H2928 H 0.29951 0.87035 0.30436 0.0
H2929 H 0.31769 0.85298 0.23089 0.0
H2930 H 0.31878 0.93632 0.30759 0.0
H2931 H 0.34304 0.9234 0.31996 0.0
H2932 H 0.31258 0.91027 0.32608 0.0
H2933 H 0.3423 0.91431 0.21872 0.0
H2934 H 0.34379 0.88149 0.21039 0.0
H2935 H 0.36687 0.90149 0.23049 0.0
C2936 C 0.53379 0.34416 0.57921 0.0
C2937 C 0.53825 0.35049 0.60436 0.0
C2938 C 0.5325 0.36301 0.56354 0.0
C2939 C 0.53549 0.38866 0.57336 0.0
C2940 C 0.54025 0.39514 0.59871 0.0
C2941 C 0.54168 0.37597 0.61389 0.0
C2942 C 0.52765 0.35549 0.53657 0.0
C2943 C 0.54337 0.4223 0.60989 0.0
C2944 C 0.55055 0.44491 0.53682 0.0
C2945 C 0.52822 0.45257 0.5347 0.0
C2946 C 0.55297 0.4231 0.54804 0.0
C2947 C 0.53261 0.40881 0.5575 0.0
C2948 C 0.50977 0.41554 0.55402 0.0
C2949 C 0.50783 0.43727 0.54255 0.0
C2950 C 0.57756 0.41628 0.55108 0.0
C2951 C 0.48763 0.40079 0.56389 0.0
H2952 H 0.53127 0.32446 0.57178 0.0
H2953 H 0.54515 0.38094 0.63332 0.0
H2954 H 0.51021 0.36019 0.53047 0.0
H2955 H 0.54174 0.36638 0.52637 0.0
H2956 H 0.52706 0.3349 0.5317 0.0
H2957 H 0.54742 0.42418 0.62988 0.0
H2958 H 0.55817 0.43434 0.60153 0.0
H2959 H 0.52673 0.42985 0.60623 0.0
H2960 H 0.56636 0.45647 0.53057 0.0
H2961 H 0.49047 0.44293 0.54091 0.0
H2962 H 0.57664 0.39567 0.54621 0.0
H2963 H 0.5843 0.42065 0.57041 0.0
H2964 H 0.59073 0.42698 0.53973 0.0
H2965 H 0.48598 0.38019 0.55841 0.0
H2966 H 0.47092 0.40692 0.55754 0.0
H2967 H 0.48921 0.40354 0.58407 0.0
C2968 C 0.43825 0.75986 0.31419 0.0
C2969 C 0.43799 0.74854 0.33602 0.0
C2970 C 0.41684 0.76021 0.30067 0.0
C2971 C 0.39464 0.74896 0.30922 0.0
C2972 C 0.39429 0.73668 0.33079 0.0
C2973 C 0.41603 0.73657 0.34395 0.0
C2974 C 0.41794 0.77365 0.27783 0.0
C2975 C 0.37092 0.7244 0.34037 0.0
C2976 C 0.34153 0.77825 0.29097 0.0
C2977 C 0.33041 0.7611 0.27148 0.0
C2978 C 0.36203 0.77409 0.30379 0.0
C2979 C 0.37183 0.75232 0.29679 0.0
C2980 C 0.36054 0.73473 0.27726 0.0
C2981 C 0.33991 0.73938 0.26474 0.0
C2982 C 0.37346 0.79327 0.32457 0.0
C2983 C 0.37045 0.71125 0.26942 0.0
H2984 H 0.45519 0.76904 0.30792 0.0
H2985 H 0.41576 0.72768 0.36077 0.0
H2986 H 0.40765 0.76111 0.26245 0.0
H2987 H 0.40953 0.7907 0.28062 0.0
H2988 H 0.43668 0.77972 0.27267 0.0
H2989 H 0.37372 0.71559 0.3574 0.0
H2990 H 0.35931 0.7387 0.34397 0.0
H2991 H 0.361 0.70959 0.32648 0.0
H2992 H 0.33437 0.79524 0.29603 0.0
H2993 H 0.33124 0.72608 0.24969 0.0
H2994 H 0.39198 0.80177 0.32043 0.0
H2995 H 0.37481 0.78381 0.34144 0.0
H2996 H 0.36313 0.80878 0.32814 0.0
H2997 H 0.38867 0.71677 0.26279 0.0
H2998 H 0.35887 0.69881 0.25475 0.0
H2999 H 0.37229 0.70021 0.28515 0.0
C3000 C 0.03004 0.69725 0.1272 0.0
C3001 C 0.041 0.71903 0.11704 0.0
C3002 C 0.02992 0.67293 0.11557 0.0
C3003 C 0.04084 0.67034 0.09315 0.0
C3004 C 0.05235 0.69225 0.08306 0.0
C3005 C 0.05237 0.71634 0.09518 0.0
C3006 C 0.0176 0.65002 0.127 0.0
C3007 C 0.06406 0.69027 0.05912 0.0
C3008 C 0.05399 0.60544 0.07096 0.0
C3009 C 0.03372 0.59544 0.05527 0.0
C3010 C 0.05673 0.62993 0.08326 0.0
C3011 C 0.03889 0.64479 0.07959 0.0
C3012 C 0.01871 0.63501 0.06333 0.0
C3013 C 0.01633 0.61047 0.05146 0.0
C3014 C 0.07843 0.63968 0.10057 0.0
C3015 C -0.00061 0.65033 0.05872 0.0
H3016 H 0.02135 0.69921 0.14416 0.0
H3017 H 0.06089 0.73312 0.08726 0.0
H3018 H 0.00189 0.63999 0.11506 0.0
H3019 H 0.03002 0.63648 0.12891 0.0
H3020 H 0.01128 0.65518 0.1452 0.0
H3021 H 0.07333 0.70902 0.05437 0.0
H3022 H 0.07731 0.67745 0.05977 0.0
H3023 H 0.05025 0.6819 0.04437 0.0
H3024 H 0.06747 0.59394 0.07408 0.0
H3025 H 0.00069 0.60302 0.03921 0.0
H3026 H 0.07259 0.64325 0.11926 0.0
H3027 H 0.0882 0.65803 0.09545 0.0
H3028 H 0.09106 0.62613 0.10082 0.0
H3029 H 0.99075 0.65449 0.07587 0.0
H3030 H 0.98526 0.64031 0.04488 0.0
H3031 H 0.00745 0.6688 0.05245 0.0
C3032 C 0.06272 0.2374 0.81557 0.0
C3033 C 0.06487 0.2497 0.83925 0.0
C3034 C 0.08309 0.23632 0.80221 0.0
C3035 C 0.10607 0.24789 0.81279 0.0
C3036 C 0.10835 0.26002 0.83682 0.0
C3037 C 0.08771 0.26074 0.84978 0.0
C3038 C 0.07999 0.22313 0.77667 0.0
C3039 C 0.13257 0.27264 0.84872 0.0
C3040 C 0.16389 0.23176 0.78903 0.0
C3041 C 0.17203 0.25286 0.77656 0.0
C3042 C 0.14183 0.22923 0.80002 0.0
C3043 C 0.12775 0.24833 0.79853 0.0
C3044 C 0.13539 0.269 0.78489 0.0
C3045 C 0.15746 0.27099 0.77402 0.0
C3046 C 0.13419 0.20679 0.81422 0.0
C3047 C 0.12087 0.28974 0.78284 0.0
H3048 H 0.04509 0.22875 0.80739 0.0
H3049 H 0.08947 0.27022 0.8681 0.0
H3050 H 0.08602 0.23701 0.76355 0.0
H3051 H 0.09137 0.20839 0.77489 0.0
H3052 H 0.06103 0.21406 0.77151 0.0
H3053 H 0.13132 0.28065 0.86776 0.0
H3054 H 0.14488 0.25878 0.84875 0.0
H3055 H 0.14079 0.28819 0.83817 0.0
H3056 H 0.17516 0.2177 0.79097 0.0
H3057 H 0.16374 0.28732 0.76435 0.0
H3058 H 0.11534 0.19763 0.80877 0.0
H3059 H 0.13493 0.21336 0.8339 0.0
H3060 H 0.14588 0.19239 0.81158 0.0
H3061 H 0.10198 0.28146 0.77665 0.0
H3062 H 0.12834 0.30341 0.77001 0.0
H3063 H 0.12059 0.30031 0.80099 0.0
C3064 C 0.50955 0.70157 0.95668 0.0
C3065 C 0.52882 0.70696 0.94174 0.0
C3066 C 0.50699 0.68037 0.97003 0.0
C3067 C 0.52391 0.66398 0.96809 0.0
C3068 C 0.54363 0.6696 0.95335 0.0
C3069 C 0.54593 0.69113 0.94049 0.0
C3070 C 0.48591 0.6752 0.98578 0.0
C3071 C 0.56187 0.65241 0.9505 0.0
C3072 C 0.5284 0.61458 0.01241 0.0
C3073 C 0.5154 0.59251 0.99918 0.0
C3074 C 0.53064 0.63825 0.00296 0.0
C3075 C 0.5199 0.63977 0.97964 0.0
C3076 C 0.50614 0.61772 0.9666 0.0
C3077 C 0.50391 0.5945 0.97658 0.0
C3078 C 0.54509 0.66148 0.01757 0.0
C3079 C 0.49455 0.6184 0.94159 0.0
H3080 H 0.4964 0.71391 0.95791 0.0
H3081 H 0.5609 0.69526 0.92902 0.0
H3082 H 0.47355 0.65757 0.97816 0.0
H3083 H 0.49217 0.67215 0.00438 0.0
H3084 H 0.47565 0.69097 0.9871 0.0
H3085 H 0.57678 0.66011 0.93932 0.0
H3086 H 0.56958 0.64955 0.96859 0.0
H3087 H 0.55294 0.6335 0.94173 0.0
H3088 H 0.53731 0.61331 0.02986 0.0
H3089 H 0.49373 0.57769 0.96611 0.0
H3090 H 0.53466 0.67708 0.01883 0.0
H3091 H 0.56165 0.66826 0.00828 0.0
H3092 H 0.55034 0.65763 0.03625 0.0
H3093 H 0.48261 0.63262 0.94218 0.0
H3094 H 0.48383 0.5997 0.93416 0.0
H3095 H 0.50863 0.62424 0.92884 0.0
C3096 C 0.07215 0.74034 0.65514 0.0
C3097 C 0.06328 0.76252 0.66192 0.0
C3098 C 0.09506 0.73735 0.66366 0.0
C3099 C 0.10939 0.75693 0.67953 0.0
C3100 C 0.10048 0.77932 0.68656 0.0
C3101 C 0.07755 0.7819 0.67758 0.0
C3102 C 0.10397 0.71329 0.65558 0.0
C3103 C 0.11517 0.80053 0.70362 0.0
C3104 C 0.15944 0.74124 0.72007 0.0
C3105 C 0.17989 0.75096 0.70815 0.0
C3106 C 0.13634 0.74271 0.71076 0.0
C3107 C 0.13366 0.75395 0.68888 0.0
C3108 C 0.15424 0.7629 0.67628 0.0
C3109 C 0.17715 0.76142 0.68615 0.0
C3110 C 0.11487 0.73305 0.72479 0.0
C3111 C 0.15211 0.77467 0.65272 0.0
H3112 H 0.06123 0.72531 0.64295 0.0
H3113 H 0.07078 0.79906 0.68288 0.0
H3114 H 0.12095 0.71795 0.64631 0.0
H3115 H 0.10798 0.70348 0.67162 0.0
H3116 H 0.09069 0.69998 0.64298 0.0
H3117 H 0.10559 0.81659 0.70751 0.0
H3118 H 0.11966 0.79329 0.72107 0.0
H3119 H 0.1324 0.80777 0.69565 0.0
H3120 H 0.16152 0.73327 0.73716 0.0
H3121 H 0.19296 0.76898 0.67692 0.0
H3122 H 0.10158 0.719 0.71294 0.0
H3123 H 0.10584 0.749 0.73083 0.0
H3124 H 0.11993 0.72402 0.74104 0.0
H3125 H 0.1394 0.76157 0.63945 0.0
H3126 H 0.16969 0.77933 0.64447 0.0
H3127 H 0.14474 0.79234 0.65602 0.0
C3128 C 0.06476 0.36889 0.45187 0.0
C3129 C 0.04723 0.34757 0.4547 0.0
C3130 C 0.06379 0.39265 0.46416 0.0
C3131 C 0.04463 0.39512 0.47925 0.0
C3132 C 0.02732 0.37348 0.48275 0.0
C3133 C 0.02896 0.34991 0.47057 0.0
C3134 C 0.08279 0.41524 0.46033 0.0
C3135 C 0.00645 0.37543 0.49847 0.0
C3136 C 0.04729 0.45289 0.52483 0.0
C3137 C 0.03405 0.46752 0.51197 0.0
C3138 C 0.05149 0.42953 0.51417 0.0
C3139 C 0.04179 0.42053 0.4903 0.0
C3140 C 0.02844 0.43536 0.47725 0.0
C3141 C 0.02478 0.45874 0.48829 0.0
C3142 C 0.06606 0.41438 0.52849 0.0
C3143 C 0.01752 0.42629 0.45188 0.0
H3144 H 0.07895 0.36711 0.43965 0.0
H3145 H 0.0153 0.33349 0.47272 0.0
H3146 H 0.07458 0.42881 0.45032 0.0
H3147 H 0.09042 0.42538 0.47811 0.0
H3148 H 0.09765 0.40972 0.44986 0.0
H3149 H 0.99516 0.35661 0.50017 0.0
H3150 H 0.01307 0.38443 0.51694 0.0
H3151 H 0.99498 0.38767 0.49055 0.0
H3152 H 0.05444 0.45976 0.54321 0.0
H3153 H 0.01399 0.46976 0.47869 0.0
H3154 H 0.08121 0.40982 0.51792 0.0
H3155 H 0.05472 0.3961 0.53177 0.0
H3156 H 0.07341 0.42468 0.54631 0.0
H3157 H 0.0317 0.42238 0.43964 0.0
H3158 H 0.00803 0.44036 0.4441 0.0
H3159 H 0.00453 0.40825 0.45216 0.0
C3160 C 0.44307 0.26108 0.20193 0.0
C3161 C 0.43922 0.25899 0.17654 0.0
C3162 C 0.42372 0.26018 0.21711 0.0
C3163 C 0.40002 0.25734 0.20662 0.0
C3164 C 0.39604 0.25476 0.18098 0.0
C3165 C 0.41566 0.25553 0.16627 0.0
C3166 C 0.42865 0.2628 0.24434 0.0
C3167 C 0.37106 0.25185 0.16906 0.0
C3168 C 0.34393 0.23793 0.24086 0.0
C3169 C 0.33657 0.26131 0.24587 0.0
C3170 C 0.36527 0.23642 0.22919 0.0
C3171 C 0.37945 0.25878 0.22224 0.0
C3172 C 0.37278 0.28254 0.22843 0.0
C3173 C 0.35152 0.28352 0.24024 0.0
C3174 C 0.37196 0.21075 0.22321 0.0
C3175 C 0.38738 0.30686 0.22137 0.0
H3176 H 0.46123 0.2636 0.20997 0.0
H3177 H 0.41256 0.25384 0.14666 0.0
H3178 H 0.42379 0.28069 0.25243 0.0
H3179 H 0.41738 0.24696 0.25238 0.0
H3180 H 0.44784 0.26298 0.24958 0.0
H3181 H 0.37092 0.24906 0.1489 0.0
H3182 H 0.35907 0.23542 0.17544 0.0
H3183 H 0.36341 0.269 0.17431 0.0
H3184 H 0.33262 0.22066 0.24524 0.0
H3185 H 0.34616 0.30174 0.24412 0.0
H3186 H 0.39121 0.21141 0.22836 0.0
H3187 H 0.36927 0.20535 0.2033 0.0
H3188 H 0.36093 0.19576 0.23259 0.0
H3189 H 0.40655 0.30854 0.22748 0.0
H3190 H 0.38083 0.32393 0.22923 0.0
H3191 H 0.38645 0.30662 0.20127 0.0
C3192 C 0.62359 0.50181 0.37416 0.0
C3193 C 0.61512 0.5099 0.35256 0.0
C3194 C 0.60973 0.50073 0.39466 0.0
C3195 C 0.58697 0.5081 0.39357 0.0
C3196 C 0.57829 0.51611 0.37174 0.0
C3197 C 0.59241 0.51678 0.35149 0.0
C3198 C 0.61946 0.49179 0.41752 0.0
C3199 C 0.55429 0.5245 0.36993 0.0
C3200 C 0.54022 0.48861 0.43907 0.0
C3201 C 0.54314 0.51066 0.45528 0.0
C3202 C 0.55483 0.4872 0.41925 0.0
C3203 C 0.57254 0.50846 0.41546 0.0
C3204 C 0.57574 0.53062 0.43204 0.0
C3205 C 0.56104 0.53142 0.45175 0.0
C3206 C 0.55109 0.46313 0.40215 0.0
C3207 C 0.59433 0.55373 0.42866 0.0
H3208 H 0.64108 0.49634 0.37505 0.0
H3209 H 0.58578 0.52312 0.33488 0.0
H3210 H 0.61976 0.50629 0.43319 0.0
H3211 H 0.60747 0.47427 0.42177 0.0
H3212 H 0.6379 0.48777 0.41579 0.0
H3213 H 0.54995 0.52978 0.35153 0.0
H3214 H 0.53979 0.50911 0.37433 0.0
H3215 H 0.55432 0.54111 0.3834 0.0
H3216 H 0.52646 0.47251 0.44184 0.0
H3217 H 0.56325 0.54859 0.46416 0.0
H3218 H 0.5683 0.45622 0.40042 0.0
H3219 H 0.54505 0.46701 0.38376 0.0
H3220 H 0.53753 0.44784 0.40837 0.0
H3221 H 0.61242 0.54862 0.42807 0.0
H3222 H 0.59485 0.56927 0.44347 0.0
H3223 H 0.5904 0.56094 0.41105 0.0
C3224 C 0.22214 0.82455 0.05907 0.0
C3225 C 0.23174 0.8506 0.06149 0.0
C3226 C 0.2226 0.81032 0.07901 0.0
C3227 C 0.23291 0.82253 0.10172 0.0
C3228 C 0.24134 0.84908 0.10454 0.0
C3229 C 0.24066 0.86281 0.08434 0.0
C3230 C 0.21297 0.78212 0.0756 0.0
C3231 C 0.25206 0.86283 0.12866 0.0
C3232 C 0.22557 0.79594 0.16217 0.0
C3233 C 0.24811 0.78934 0.16627 0.0
C3234 C 0.21943 0.80481 0.1402 0.0
C3235 C 0.23652 0.80764 0.12229 0.0
C3236 C 0.25863 0.79926 0.12571 0.0
C3237 C 0.26412 0.79001 0.14772 0.0
C3238 C 0.1954 0.81288 0.13708 0.0
C3239 C 0.27724 0.80186 0.10692 0.0
H3240 H 0.21512 0.81509 0.0414 0.0
H3241 H 0.24791 0.883 0.08629 0.0
H3242 H 0.228 0.77166 0.07754 0.0
H3243 H 0.20039 0.77666 0.08986 0.0
H3244 H 0.20348 0.77597 0.05746 0.0
H3245 H 0.25683 0.88368 0.12801 0.0
H3246 H 0.23919 0.859 0.14301 0.0
H3247 H 0.26853 0.85574 0.13406 0.0
H3248 H 0.21304 0.79505 0.17649 0.0
H3249 H 0.28149 0.78473 0.15093 0.0
H3250 H 0.18848 0.81015 0.11777 0.0
H3251 H 0.19742 0.83333 0.14349 0.0
H3252 H 0.18184 0.8021 0.14797 0.0
H3253 H 0.26893 0.79418 0.08861 0.0
H3254 H 0.29224 0.7919 0.11113 0.0
H3255 H 0.28479 0.82225 0.10615 0.0
C3256 C 0.95104 0.57077 0.87184 0.0
C3257 C 0.95791 0.55831 0.85065 0.0
C3258 C 0.96428 0.57189 0.89408 0.0
C3259 C 0.9846 0.56001 0.89505 0.0
C3260 C 0.99243 0.54883 0.8734 0.0
C3261 C 0.97903 0.54823 0.85142 0.0
C3262 C 0.95558 0.58425 0.91676 0.0
C3263 C 0.01385 0.53571 0.87371 0.0
C3264 C 0.02675 0.56594 0.95153 0.0
C3265 C 0.01719 0.54382 0.96188 0.0
C3266 C 0.01584 0.57213 0.93013 0.0
C3267 C 0.99526 0.55553 0.91885 0.0
C3268 C 0.9854 0.53342 0.92957 0.0
C3269 C 0.99643 0.52793 0.95098 0.0
C3270 C 0.02649 0.59611 0.91938 0.0
C3271 C 0.96359 0.51507 0.91806 0.0
H3272 H 0.93485 0.57884 0.87125 0.0
H3273 H 0.98451 0.53875 0.83503 0.0
H3274 H 0.94713 0.56936 0.9279 0.0
H3275 H 0.97085 0.59623 0.92801 0.0
H3276 H 0.94214 0.59613 0.91245 0.0
H3277 H 0.01922 0.53057 0.85509 0.0
H3278 H 0.02945 0.54797 0.8842 0.0
H3279 H 0.0094 0.51808 0.88284 0.0
H3280 H 0.04274 0.57829 0.96009 0.0
H3281 H 0.98902 0.51076 0.95893 0.0
H3282 H 0.01237 0.60743 0.91594 0.0
H3283 H 0.03374 0.59123 0.90161 0.0
H3284 H 0.04121 0.60804 0.93144 0.0
H3285 H 0.94824 0.52503 0.91586 0.0
H3286 H 0.95802 0.49894 0.929 0.0
H3287 H 0.96747 0.50734 0.89967 0.0
C3288 C 0.27486 0.21033 0.57165 0.0
C3289 C 0.274 0.18405 0.56808 0.0
C3290 C 0.27439 0.2227 0.59511 0.0
C3291 C 0.27326 0.20847 0.61549 0.0
C3292 C 0.27268 0.18198 0.61197 0.0
C3293 C 0.27295 0.17009 0.58833 0.0
C3294 C 0.27488 0.25094 0.59809 0.0
C3295 C 0.27169 0.16615 0.6332 0.0
C3296 C 0.29327 0.24175 0.67865 0.0
C3297 C 0.2712 0.24285 0.68894 0.0
C3298 C 0.29421 0.23094 0.65469 0.0
C3299 C 0.27256 0.22116 0.64052 0.0
C3300 C 0.25024 0.22267 0.6506 0.0
C3301 C 0.24982 0.23338 0.6747 0.0
C3302 C 0.31837 0.22952 0.64471 0.0
C3303 C 0.22677 0.21266 0.63602 0.0
H3304 H 0.27559 0.2212 0.55606 0.0
H3305 H 0.27233 0.14978 0.58572 0.0
H3306 H 0.25851 0.25492 0.60684 0.0
H3307 H 0.29058 0.26062 0.61022 0.0
H3308 H 0.27584 0.25928 0.58044 0.0
H3309 H 0.27178 0.14585 0.62744 0.0
H3310 H 0.28727 0.17357 0.64633 0.0
H3311 H 0.25519 0.16741 0.64298 0.0
H3312 H 0.30992 0.24896 0.68945 0.0
H3313 H 0.23268 0.23426 0.68238 0.0
H3314 H 0.32016 0.23885 0.62764 0.0
H3315 H 0.31987 0.20938 0.64017 0.0
H3316 H 0.33355 0.23868 0.65779 0.0
H3317 H 0.22656 0.22159 0.61873 0.0
H3318 H 0.21099 0.21628 0.64609 0.0
H3319 H 0.22488 0.19191 0.6312 0.0
C3320 C 0.63948 0.54085 0.2086 0.0
C3321 C 0.62774 0.52227 0.2224 0.0
C3322 C 0.62949 0.54485 0.18593 0.0
C3323 C 0.60727 0.52981 0.17672 0.0
C3324 C 0.59539 0.51091 0.1905 0.0
C3325 C 0.60574 0.50742 0.21322 0.0
C3326 C 0.64268 0.56524 0.17186 0.0
C3327 C 0.57175 0.49435 0.18123 0.0
C3328 C 0.56902 0.55235 0.1279 0.0
C3329 C 0.57397 0.53793 0.10697 0.0
C3330 C 0.5802 0.5504 0.15067 0.0
C3331 C 0.59659 0.53354 0.1525 0.0
C3332 C 0.60225 0.51962 0.13124 0.0
C3333 C 0.59091 0.52205 0.10873 0.0
C3334 C 0.5739 0.56578 0.17288 0.0
C3335 C 0.61962 0.50147 0.13237 0.0
H3336 H 0.65645 0.55249 0.21562 0.0
H3337 H 0.59658 0.49306 0.22381 0.0
H3338 H 0.64698 0.55672 0.15393 0.0
H3339 H 0.63105 0.57919 0.16831 0.0
H3340 H 0.65966 0.57549 0.18167 0.0
H3341 H 0.56482 0.48052 0.19412 0.0
H3342 H 0.55812 0.50632 0.17804 0.0
H3343 H 0.57389 0.48374 0.16353 0.0
H3344 H 0.55588 0.5646 0.1266 0.0
H3345 H 0.59477 0.51082 0.09259 0.0
H3346 H 0.59048 0.57681 0.18279 0.0
H3347 H 0.56472 0.55286 0.18549 0.0
H3348 H 0.56196 0.57911 0.1682 0.0
H3349 H 0.63707 0.5114 0.1414 0.0
H3350 H 0.6229 0.49294 0.11405 0.0
H3351 H 0.61243 0.48596 0.14343 0.0
C3352 C 0.22737 0.84181 0.91617 0.0
C3353 C 0.24008 0.83767 0.93724 0.0
C3354 C 0.22839 0.82706 0.89417 0.0
C3355 C 0.24255 0.80787 0.89332 0.0
C3356 C 0.25443 0.80278 0.9148 0.0
C3357 C 0.25302 0.81775 0.93657 0.0
C3358 C 0.21534 0.8329 0.87158 0.0
C3359 C 0.26976 0.78254 0.91452 0.0
C3360 C 0.23441 0.7633 0.83523 0.0
C3361 C 0.25214 0.77593 0.82154 0.0
C3362 C 0.2316 0.77286 0.8592 0.0
C3363 C 0.24707 0.79531 0.86949 0.0
C3364 C 0.26596 0.80712 0.85619 0.0
C3365 C 0.26817 0.79734 0.8323 0.0
C3366 C 0.21131 0.7598 0.87294 0.0
C3367 C 0.28304 0.83092 0.86666 0.0
H3368 H 0.21721 0.85708 0.9167 0.0
H3369 H 0.26278 0.81442 0.95289 0.0
H3370 H 0.22862 0.84109 0.85894 0.0
H3371 H 0.20457 0.81525 0.86193 0.0
H3372 H 0.20322 0.8466 0.87578 0.0
H3373 H 0.27532 0.77884 0.93316 0.0
H3374 H 0.25996 0.76453 0.90463 0.0
H3375 H 0.28618 0.78863 0.90474 0.0
H3376 H 0.222 0.74673 0.82687 0.0
H3377 H 0.2819 0.80711 0.82169 0.0
H3378 H 0.1974 0.77185 0.87481 0.0
H3379 H 0.21785 0.7572 0.89157 0.0
H3380 H 0.20276 0.741 0.86356 0.0
H3381 H 0.27313 0.84689 0.86907 0.0
H3382 H 0.29804 0.83633 0.85476 0.0
H3383 H 0.29074 0.82832 0.88484 0.0
C3384 C 0.96423 0.57809 0.72142 0.0
C3385 C 0.94903 0.55495 0.72384 0.0
C3386 C 0.97634 0.58198 0.70008 0.0
C3387 C 0.97307 0.56224 0.68085 0.0
C3388 C 0.95773 0.53885 0.68324 0.0
C3389 C 0.9459 0.5355 0.70473 0.0
C3390 C 0.9926 0.60711 0.69812 0.0
C3391 C 0.95377 0.51734 0.66308 0.0
C3392 C 0.98322 0.57199 0.6151 0.0
C3393 C 0.00419 0.56204 0.61187 0.0
C3394 C 0.97369 0.57389 0.638 0.0
C3395 C 0.98552 0.56568 0.65802 0.0
C3396 C 0.00774 0.55754 0.65519 0.0
C3397 C 0.01684 0.5558 0.63205 0.0
C3398 C 0.95007 0.5829 0.64038 0.0
C3399 C 0.02097 0.54883 0.67616 0.0
H3400 H 0.96669 0.59317 0.73621 0.0
H3401 H 0.93416 0.51759 0.70653 0.0
H3402 H 0.01112 0.6041 0.69494 0.0
H3403 H 0.98638 0.61601 0.6823 0.0
H3404 H 0.99319 0.62051 0.71474 0.0
H3405 H 0.94125 0.50038 0.66787 0.0
H3406 H 0.94632 0.52362 0.64628 0.0
H3407 H 0.97116 0.51171 0.65887 0.0
H3408 H 0.97357 0.57706 0.59948 0.0
H3409 H 0.03317 0.54827 0.62955 0.0
H3410 H 0.95141 0.59766 0.65599 0.0
H3411 H 0.93589 0.56681 0.64397 0.0
H3412 H 0.94434 0.59077 0.62368 0.0
H3413 H 0.02204 0.56248 0.69263 0.0
H3414 H 0.03947 0.54654 0.67184 0.0
H3415 H 0.011 0.53029 0.68064 0.0
C3416 C 0.28707 0.17709 0.41573 0.0
C3417 C 0.27645 0.18631 0.43632 0.0
C3418 C 0.28858 0.18996 0.3947 0.0
C3419 C 0.27915 0.21255 0.39418 0.0
C3420 C 0.26862 0.22209 0.41501 0.0
C3421 C 0.26748 0.20891 0.43585 0.0
C3422 C 0.30035 0.1794 0.37308 0.0
C3423 C 0.2582 0.246 0.41513 0.0
C3424 C 0.29853 0.25748 0.34628 0.0
C3425 C 0.27902 0.25106 0.32902 0.0
C3426 C 0.29894 0.245 0.36753 0.0
C3427 C 0.27939 0.22566 0.37153 0.0
C3428 C 0.25982 0.21893 0.35395 0.0
C3429 C 0.2598 0.23182 0.33303 0.0
C3430 C 0.32018 0.25264 0.38578 0.0
C3431 C 0.23881 0.19814 0.35727 0.0
H3432 H 0.29424 0.15976 0.41603 0.0
H3433 H 0.25925 0.21614 0.4517 0.0
H3434 H 0.28899 0.17878 0.35613 0.0
H3435 H 0.31772 0.19202 0.3709 0.0
H3436 H 0.30385 0.16003 0.37514 0.0
H3437 H 0.25132 0.25136 0.43301 0.0
H3438 H 0.27204 0.26197 0.4106 0.0
H3439 H 0.24322 0.24334 0.40099 0.0
H3440 H 0.3134 0.27237 0.34325 0.0
H3441 H 0.24447 0.22707 0.31997 0.0
H3442 H 0.3286 0.23598 0.3886 0.0
H3443 H 0.31409 0.25938 0.4036 0.0
H3444 H 0.33401 0.2679 0.3799 0.0
H3445 H 0.24522 0.18003 0.35893 0.0
H3446 H 0.22502 0.19518 0.34188 0.0
H3447 H 0.23022 0.20282 0.37434 0.0
C3448 C 0.32873 0.57443 0.52016 0.0
C3449 C 0.33777 0.6004 0.51975 0.0
C3450 C 0.34402 0.55666 0.51834 0.0
C3451 C 0.36891 0.5652 0.51653 0.0
C3452 C 0.37814 0.59144 0.51629 0.0
C3453 C 0.36238 0.60871 0.51765 0.0
C3454 C 0.33366 0.52883 0.51862 0.0
C3455 C 0.40471 0.60131 0.51489 0.0
C3456 C 0.4171 0.53006 0.53605 0.0
C3457 C 0.42588 0.52333 0.51356 0.0
C3458 C 0.39705 0.54186 0.5373 0.0
C3459 C 0.38569 0.54703 0.51552 0.0
C3460 C 0.39298 0.53784 0.49276 0.0
C3461 C 0.41313 0.52608 0.49204 0.0
C3462 C 0.38975 0.55089 0.56204 0.0
C3463 C 0.38083 0.54237 0.46916 0.0
H3464 H 0.30964 0.56798 0.52166 0.0
H3465 H 0.36938 0.6288 0.51742 0.0
H3466 H 0.33871 0.51783 0.50231 0.0
H3467 H 0.34128 0.52158 0.5348 0.0
H3468 H 0.31376 0.5252 0.51904 0.0
H3469 H 0.40894 0.62228 0.51501 0.0
H3470 H 0.41485 0.59583 0.53054 0.0
H3471 H 0.41122 0.59268 0.49806 0.0
H3472 H 0.42685 0.52771 0.55275 0.0
H3473 H 0.41982 0.52067 0.47464 0.0
H3474 H 0.37045 0.55219 0.56199 0.0
H3475 H 0.40045 0.57004 0.56789 0.0
H3476 H 0.39345 0.53799 0.57572 0.0
H3477 H 0.361 0.53835 0.47003 0.0
H3478 H 0.38585 0.53046 0.45342 0.0
H3479 H 0.3862 0.5626 0.46596 0.0
C3480 C 0.85822 0.91781 0.54375 0.0
C3481 C 0.83808 0.92844 0.5381 0.0
C3482 C 0.88161 0.9319 0.54333 0.0
C3483 C 0.88487 0.95719 0.5371 0.0
C3484 C 0.86459 0.96789 0.53112 0.0
C3485 C 0.84146 0.9534 0.53172 0.0
C3486 C 0.90283 0.91985 0.54984 0.0
C3487 C 0.86731 0.99476 0.52436 0.0
C3488 C 0.94245 0.00219 0.5605 0.0
C3489 C 0.95605 0.0025 0.53994 0.0
C3490 C 0.91926 0.98756 0.55977 0.0
C3491 C 0.90942 0.97289 0.53792 0.0
C3492 C 0.923 0.97336 0.51698 0.0
C3493 C 0.94622 0.98817 0.51827 0.0
C3494 C 0.90538 0.98761 0.58248 0.0
C3495 C 0.91313 0.958 0.49335 0.0
H3496 H 0.85572 0.89849 0.5486 0.0
H3497 H 0.82596 0.9617 0.52722 0.0
H3498 H 0.9153 0.92068 0.53489 0.0
H3499 H 0.913 0.93057 0.56628 0.0
H3500 H 0.89729 0.89973 0.55343 0.0
H3501 H 0.84977 -5e-05 0.51934 0.0
H3502 H 0.8762 0.00821 0.53986 0.0
H3503 H 0.87897 0.99722 0.50882 0.0
H3504 H 0.95008 0.01317 0.57733 0.0
H3505 H 0.95681 0.98816 0.50244 0.0
H3506 H 0.90098 0.96807 0.58795 0.0
H3507 H 0.88811 0.99397 0.57884 0.0
H3508 H 0.91554 0.0002 0.59795 0.0
H3509 H 0.90961 0.9375 0.49596 0.0
H3510 H 0.92565 0.9611 0.47854 0.0
H3511 H 0.89574 0.96298 0.48752 0.0
C3512 C 0.86192 0.11961 0.2381 0.0
C3513 C 0.85073 0.09564 0.24379 0.0
C3514 C 0.84966 0.14015 0.23926 0.0
C3515 C 0.82574 0.13673 0.24663 0.0
C3516 C 0.81433 0.11252 0.2523 0.0
C3517 C 0.8269 0.09224 0.25067 0.0
C3518 C 0.86239 0.16559 0.2328 0.0
C3519 C 0.78898 0.10815 0.26051 0.0
C3520 C 0.80558 0.19626 0.27392 0.0
C3521 C 0.79191 0.20254 0.25442 0.0
C3522 C 0.81606 0.1745 0.27182 0.0
C3523 C 0.81314 0.15879 0.24952 0.0
C3524 C 0.7989 0.16472 0.22991 0.0
C3525 C 0.78828 0.18644 0.23265 0.0
C3526 C 0.83079 0.16872 0.2933 0.0
C3527 C 0.79563 0.14868 0.20573 0.0
H3528 H 0.88026 0.12231 0.2326 0.0
H3529 H 0.81814 0.07374 0.25509 0.0
H3530 H 0.85157 0.17242 0.21848 0.0
H3531 H 0.86435 0.17978 0.24896 0.0
H3532 H 0.88052 0.16481 0.22623 0.0
H3533 H 0.78244 0.08806 0.26367 0.0
H3534 H 0.78811 0.12034 0.27763 0.0
H3535 H 0.7766 0.11358 0.24669 0.0
H3536 H 0.80838 0.20859 0.29083 0.0
H3537 H 0.77802 0.1914 0.21741 0.0
H3538 H 0.84981 0.17002 0.28873 0.0
H3539 H 0.82424 0.14904 0.29765 0.0
H3540 H 0.83013 0.18197 0.30978 0.0
H3541 H 0.81322 0.14984 0.1974 0.0
H3542 H 0.7828 0.15487 0.19283 0.0
H3543 H 0.78907 0.12847 0.2083 0.0
C3544 C 0.69451 0.12528 0.04622 0.0
C3545 C 0.7113 0.11106 0.03741 0.0
C3546 C 0.67006 0.11434 0.04591 0.0
C3547 C 0.66247 0.08846 0.03715 0.0
C3548 C 0.67954 0.07382 0.02905 0.0
C3549 C 0.70374 0.08542 0.02898 0.0
C3550 C 0.65228 0.13066 0.05418 0.0
C3551 C 0.67218 0.04603 0.02007 0.0
C3552 C 0.6015 0.05364 0.05263 0.0
C3553 C 0.58809 0.05242 0.03053 0.0
C3554 C 0.62577 0.06549 0.05516 0.0
C3555 C 0.63656 0.0769 0.0353 0.0
C3556 C 0.62282 0.07645 0.01323 0.0
C3557 C 0.59881 0.06391 0.01101 0.0
C3558 C 0.64003 0.06513 0.07878 0.0
C3559 C 0.63355 0.08895 0.99185 0.0
H3560 H 0.70036 0.14517 0.05262 0.0
H3561 H 0.71678 0.07438 0.02233 0.0
H3562 H 0.63946 0.13175 0.03874 0.0
H3563 H 0.64163 0.12206 0.06866 0.0
H3564 H 0.66121 0.15024 0.06119 0.0
H3565 H 0.68789 0.03693 0.01613 0.0
H3566 H 0.66176 0.03575 0.03382 0.0
H3567 H 0.66034 0.0438 0.00322 0.0
H3568 H 0.59323 0.04461 0.06768 0.0
H3569 H 0.58835 0.06322 0.994 0.0
H3570 H 0.64826 0.08474 0.08627 0.0
H3571 H 0.65493 0.05464 0.07543 0.0
H3572 H 0.6288 0.05602 0.09266 0.0
H3573 H 0.64176 0.10905 0.99756 0.0
H3574 H 0.61998 0.08835 0.97659 0.0
H3575 H 0.64806 0.07929 0.98509 0.0
C3576 C 0.21535 0.4664 0.25609 0.0
C3577 C 0.19096 0.45515 0.2527 0.0
C3578 C 0.23303 0.45157 0.25886 0.0
C3579 C 0.22602 0.42499 0.25848 0.0
C3580 C 0.2014 0.41355 0.25509 0.0
C3581 C 0.18415 0.4288 0.25211 0.0
C3582 C 0.25916 0.46424 0.26199 0.0
C3583 C 0.19326 0.38519 0.25467 0.0
C3584 C 0.26443 0.37634 0.24325 0.0
C3585 C 0.2678 0.36789 0.26611 0.0
C3586 C 0.25281 0.39686 0.2407 0.0
C3587 C 0.24418 0.40878 0.26151 0.0
C3588 C 0.24985 0.402 0.2849 0.0
C3589 C 0.26178 0.3816 0.28694 0.0
C3590 C 0.24766 0.40387 0.21546 0.0
C3591 C 0.24113 0.41446 0.30754 0.0
H3592 H 0.22064 0.48681 0.25643 0.0
H3593 H 0.16529 0.42012 0.24956 0.0
H3594 H 0.26735 0.45978 0.27927 0.0
H3595 H 0.26917 0.45676 0.24701 0.0
H3596 H 0.26158 0.48519 0.26208 0.0
H3597 H 0.1734 0.3794 0.25229 0.0
H3598 H 0.20138 0.37528 0.2396 0.0
H3599 H 0.19945 0.37864 0.27189 0.0
H3600 H 0.26934 0.36585 0.22713 0.0
H3601 H 0.26454 0.3751 0.30465 0.0
H3602 H 0.24739 0.42442 0.21548 0.0
H3603 H 0.22975 0.3932 0.20826 0.0
H3604 H 0.26123 0.39888 0.20288 0.0
H3605 H 0.24397 0.43534 0.30723 0.0
H3606 H 0.25035 0.41009 0.32434 0.0
H3607 H 0.22154 0.4075 0.3083 0.0
C3608 C 0.21427 0.45226 0.04523 0.0
C3609 C 0.2091 0.42583 0.03957 0.0
C3610 C 0.19596 0.4667 0.04515 0.0
C3611 C 0.17185 0.4544 0.03945 0.0
C3612 C 0.16643 0.42765 0.03437 0.0
C3613 C 0.18514 0.41369 0.03437 0.0
C3614 C 0.20247 0.49517 0.05061 0.0
C3615 C 0.14091 0.41381 0.02846 0.0
C3616 C 0.1204 0.48836 0.05572 0.0
C3617 C 0.11365 0.49561 0.03313 0.0
C3618 C 0.1396 0.47533 0.05823 0.0
C3619 C 0.15241 0.46959 0.03763 0.0
C3620 C 0.14621 0.47778 0.01498 0.0
C3621 C 0.12686 0.49065 0.013 0.0
C3622 C 0.14556 0.46694 0.0827 0.0
C3623 C 0.15958 0.47232 0.99265 0.0
H3624 H 0.23275 0.46177 0.04927 0.0
H3625 H 0.18102 0.39326 0.03009 0.0
H3626 H 0.19767 0.50443 0.03444 0.0
H3627 H 0.19206 0.50166 0.06571 0.0
H3628 H 0.22193 0.50173 0.05565 0.0
H3629 H 0.13956 0.39288 0.02615 0.0
H3630 H 0.1293 0.41873 0.04313 0.0
H3631 H 0.13371 0.41986 0.01143 0.0
H3632 H 0.1103 0.49235 0.07132 0.0
H3633 H 0.1217 0.49626 0.99549 0.0
H3634 H 0.16517 0.47197 0.08745 0.0
H3635 H 0.14041 0.44599 0.08194 0.0
H3636 H 0.13596 0.47557 0.09743 0.0
H3637 H 0.17913 0.47954 0.99639 0.0
H3638 H 0.15331 0.48106 0.97671 0.0
H3639 H 0.15714 0.45152 0.98784 0.0
C3640 C 0.82056 0.95884 0.23209 0.0
C3641 C 0.84351 0.96271 0.22301 0.0
C3642 C 0.8077 0.93428 0.2336 0.0
C3643 C 0.81789 0.91307 0.2255 0.0
C3644 C 0.84041 0.91684 0.21491 0.0
C3645 C 0.85305 0.94166 0.21394 0.0
C3646 C 0.78384 0.93109 0.24523 0.0
C3647 C 0.85165 0.89468 0.20567 0.0
C3648 C 0.79889 0.85402 0.25753 0.0
C3649 C 0.78055 0.84003 0.24138 0.0
C3650 C 0.81153 0.87758 0.2523 0.0
C3651 C 0.80591 0.88718 0.23018 0.0
C3652 C 0.78798 0.87267 0.21339 0.0
C3653 C 0.77531 0.84931 0.21931 0.0
C3654 C 0.83035 0.89256 0.27081 0.0
C3655 C 0.78188 0.88203 0.18941 0.0
H3656 H 0.8131 0.97503 0.23915 0.0
H3657 H 0.87075 0.94455 0.20682 0.0
H3658 H 0.76987 0.91801 0.23327 0.0
H3659 H 0.78545 0.92251 0.26258 0.0
H3660 H 0.77768 0.94942 0.24912 0.0
H3661 H 0.86771 0.9007 0.19532 0.0
H3662 H 0.85719 0.88498 0.22124 0.0
H3663 H 0.83842 0.88057 0.1938 0.0
H3664 H 0.80298 0.84683 0.27461 0.0
H3665 H 0.76126 0.83836 0.20671 0.0
H3666 H 0.82506 0.91082 0.27716 0.0
H3667 H 0.84783 0.89713 0.26242 0.0
H3668 H 0.83292 0.88214 0.28687 0.0
H3669 H 0.77396 0.89934 0.19268 0.0
H3670 H 0.76892 0.86758 0.17754 0.0
H3671 H 0.79843 0.88729 0.17959 0.0
C3672 C 0.65504 0.08762 0.75309 0.0
C3673 C 0.66261 0.06643 0.7415 0.0
C3674 C 0.66922 0.1119 0.75384 0.0
C3675 C 0.6916 0.11493 0.74298 0.0
C3676 C 0.69912 0.09366 0.73085 0.0
C3677 C 0.68445 0.06965 0.73014 0.0
C3678 C 0.66048 0.13422 0.76666 0.0
C3679 C 0.72295 0.09617 0.71922 0.0
C3680 C 0.71951 0.18117 0.72932 0.0
C3681 C 0.73537 0.18956 0.74983 0.0
C3682 C 0.70538 0.15677 0.72667 0.0
C3683 C 0.70735 0.14029 0.74484 0.0
C3684 C 0.72384 0.14833 0.76522 0.0
C3685 C 0.73758 0.17293 0.76753 0.0
C3686 C 0.68784 0.14891 0.7048 0.0
C3687 C 0.7266 0.13113 0.78483 0.0
H3688 H 0.63814 0.08519 0.76184 0.0
H3689 H 0.69041 0.05327 0.72126 0.0
H3690 H 0.67299 0.14256 0.78249 0.0
H3691 H 0.66022 0.14923 0.75424 0.0
H3692 H 0.64217 0.12882 0.77319 0.0
H3693 H 0.72583 0.07789 0.70989 0.0
H3694 H 0.72405 0.11036 0.70579 0.0
H3695 H 0.7378 0.10311 0.7333 0.0
H3696 H 0.71756 0.19391 0.7156 0.0
H3697 H 0.74986 0.17922 0.78337 0.0
H3698 H 0.66921 0.14516 0.71083 0.0
H3699 H 0.69109 0.13103 0.69502 0.0
H3700 H 0.68911 0.16365 0.69188 0.0
H3701 H 0.70946 0.12666 0.79386 0.0
H3702 H 0.74106 0.13981 0.79888 0.0
H3703 H 0.73073 0.1129 0.77669 0.0
loop_
_geom_bond_atom_site_label_1
_geom_bond_atom_site_label_2
_geom_bond_distance
_geom_bond_site_symmetry_2
_ccdc_geom_bond_type
In0 O1 2.294 . S
In0 O2 2.326 . S
In0 O6 2.298 . S
In0 O7 2.326 1_455 S
In0 O8 2.266 . S
In0 O9 2.326 . S
In0 O11 2.294 . S
In0 O12 2.326 . S
O1 In0 2.294 . S
O1 C10 1.240 . S
O2 In0 2.326 . S
O2 C10 1.252 . S
C3 O6 1.212 1_655 S
C3 O7 1.260 . S
C4 O11 1.240 . S
C4 O12 1.252 . S
C5 O8 1.252 . S
C5 O9 1.260 . S
O6 In0 2.298 . S
O6 C3 1.212 1_455 S
O7 In0 2.326 1_655 S
O7 C3 1.260 . S
O8 In0 2.266 . S
O8 C5 1.252 . S
O9 In0 2.326 . S
O9 C5 1.260 . S
C10 O1 1.240 . S
C10 O2 1.252 . S
O11 In0 2.294 . S
O11 C4 1.240 . S
O12 In0 2.326 . S
O12 C4 1.252 . S
In13 O14 2.294 . S
In13 O15 2.326 . S
In13 O19 2.266 . S
In13 O20 2.326 . S
In13 O21 2.266 1_455 S
In13 O22 2.326 1_455 S
In13 O24 2.294 . S
In13 O25 2.326 . S
O14 In13 2.294 . S
O14 C23 1.240 . S
O15 In13 2.326 . S
O15 C23 1.252 . S
C16 O19 1.252 . S
C16 O20 1.260 . S
C17 O24 1.240 . S
C17 O25 1.252 . S
C18 O21 1.252 . S
C18 O22 1.260 . S
O19 In13 2.266 . S
O19 C16 1.252 . S
O20 In13 2.326 . S
O20 C16 1.260 . S
O21 In13 2.266 1_655 S
O21 C18 1.252 . S
O22 In13 2.326 1_655 S
O22 C18 1.260 . S
C23 O14 1.240 . S
C23 O15 1.252 . S
O24 In13 2.294 . S
O24 C17 1.240 . S
O25 In13 2.326 . S
O25 C17 1.252 . S
In26 O27 2.294 . S
In26 O28 2.326 . S
In26 O32 2.266 . S
In26 O33 2.326 . S
In26 O34 2.266 . S
In26 O35 2.326 . S
In26 O37 2.294 . S
In26 O38 2.326 . S
O27 In26 2.294 . S
O27 C36 1.240 . S
O28 In26 2.326 . S
O28 C36 1.252 . S
C29 O32 1.252 . S
C29 O33 1.260 . S
C30 O37 1.240 . S
C30 O38 1.252 . S
C31 O34 1.252 . S
C31 O35 1.260 . S
O32 In26 2.266 . S
O32 C29 1.252 . S
O33 In26 2.326 . S
O33 C29 1.260 . S
O34 In26 2.266 . S
O34 C31 1.252 . S
O35 In26 2.326 . S
O35 C31 1.260 . S
C36 O27 1.240 . S
C36 O28 1.252 . S
O37 In26 2.294 . S
O37 C30 1.240 . S
O38 In26 2.326 . S
O38 C30 1.252 . S
In39 O40 2.294 . S
In39 O41 2.326 . S
In39 O45 2.266 . S
In39 O46 2.326 . S
In39 O47 2.266 . S
In39 O48 2.326 . S
In39 O50 2.294 . S
In39 O51 2.326 . S
O40 In39 2.294 . S
O40 C49 1.240 . S
O41 In39 2.326 . S
O41 C49 1.252 . S
C42 O45 1.252 . S
C42 O46 1.260 . S
C43 O50 1.240 . S
C43 O51 1.252 . S
C44 O47 1.252 . S
C44 O48 1.260 . S
O45 In39 2.266 . S
O45 C42 1.252 . S
O46 In39 2.326 . S
O46 C42 1.260 . S
O47 In39 2.266 . S
O47 C44 1.252 . S
O48 In39 2.326 . S
O48 C44 1.260 . S
C49 O40 1.240 . S
C49 O41 1.252 . S
O50 In39 2.294 . S
O50 C43 1.240 . S
O51 In39 2.326 . S
O51 C43 1.252 . S
In52 O53 2.294 . S
In52 O54 2.326 . S
In52 O58 2.266 . S
In52 O59 2.326 . S
In52 O60 2.266 . S
In52 O61 2.326 . S
In52 O63 2.294 . S
In52 O64 2.326 1_455 S
O53 In52 2.294 . S
O53 C62 1.240 . S
O54 In52 2.326 . S
O54 C62 1.252 . S
C55 O58 1.252 . S
C55 O59 1.260 . S
C56 O63 1.240 1_655 S
C56 O64 1.252 . S
C57 O60 1.252 . S
C57 O61 1.260 . S
O58 In52 2.266 . S
O58 C55 1.252 . S
O59 In52 2.326 . S
O59 C55 1.260 . S
O60 In52 2.266 . S
O60 C57 1.252 . S
O61 In52 2.326 . S
O61 C57 1.260 . S
C62 O53 1.240 . S
C62 O54 1.252 . S
O63 In52 2.294 . S
O63 C56 1.240 1_455 S
O64 In52 2.326 1_655 S
O64 C56 1.252 . S
In65 O66 2.294 . S
In65 O67 2.326 . S
In65 O71 2.266 . S
In65 O72 2.326 . S
In65 O73 2.266 . S
In65 O74 2.326 . S
In65 O76 2.294 . S
In65 O77 2.326 . S
O66 In65 2.294 . S
O66 C75 1.240 . S
O67 In65 2.326 . S
O67 C75 1.252 . S
C68 O71 1.252 . S
C68 O72 1.260 . S
C69 O76 1.240 . S
C69 O77 1.252 . S
C70 O73 1.252 . S
C70 O74 1.260 . S
O71 In65 2.266 . S
O71 C68 1.252 . S
O72 In65 2.326 . S
O72 C68 1.260 . S
O73 In65 2.266 . S
O73 C70 1.252 . S
O74 In65 2.326 . S
O74 C70 1.260 . S
C75 O66 1.240 . S
C75 O67 1.252 . S
O76 In65 2.294 . S
O76 C69 1.240 . S
O77 In65 2.326 . S
O77 C69 1.252 . S
In78 O79 2.294 . S
In78 O80 2.326 . S
In78 O84 2.266 . S
In78 O85 2.326 . S
In78 O86 2.266 . S
In78 O87 2.326 . S
In78 O89 2.294 . S
In78 O90 2.326 . S
O79 In78 2.294 . S
O79 C88 1.240 . S
O80 In78 2.326 . S
O80 C88 1.252 . S
C81 O84 1.252 . S
C81 O85 1.260 . S
C82 O89 1.240 . S
C82 O90 1.252 . S
C83 O86 1.252 . S
C83 O87 1.260 . S
O84 In78 2.266 . S
O84 C81 1.252 . S
O85 In78 2.326 . S
O85 C81 1.260 . S
O86 In78 2.266 . S
O86 C83 1.252 . S
O87 In78 2.326 . S
O87 C83 1.260 . S
C88 O79 1.240 . S
C88 O80 1.252 . S
O89 In78 2.294 . S
O89 C82 1.240 . S
O90 In78 2.326 . S
O90 C82 1.252 . S
In91 O92 2.294 . S
In91 O93 2.326 . S
In91 O97 2.266 . S
In91 O98 2.326 . S
In91 O99 2.266 1_455 S
In91 O100 2.326 1_455 S
In91 O102 2.294 . S
In91 O103 2.326 . S
O92 In91 2.294 . S
O92 C101 1.240 . S
O93 In91 2.326 . S
O93 C101 1.252 . S
C94 O97 1.252 . S
C94 O98 1.260 . S
C95 O102 1.240 . S
C95 O103 1.252 . S
C96 O99 1.252 . S
C96 O100 1.260 . S
O97 In91 2.266 . S
O97 C94 1.252 . S
O98 In91 2.326 . S
O98 C94 1.260 . S
O99 In91 2.266 1_655 S
O99 C96 1.252 . S
O100 In91 2.326 1_655 S
O100 C96 1.260 . S
C101 O92 1.240 . S
C101 O93 1.252 . S
O102 In91 2.294 . S
O102 C95 1.240 . S
O103 In91 2.326 . S
O103 C95 1.252 . S
In104 O105 2.294 . S
In104 O106 2.326 . S
In104 O110 2.266 . S
In104 O111 2.326 . S
In104 O112 2.266 1_545 S
In104 O113 2.326 1_545 S
In104 O115 2.294 . S
In104 O116 2.326 . S
O105 In104 2.294 . S
O105 C114 1.240 . S
O106 In104 2.326 . S
O106 C114 1.252 . S
C107 O110 1.252 . S
C107 O111 1.260 . S
C108 O115 1.240 . S
C108 O116 1.252 . S
C109 O112 1.252 . S
C109 O113 1.260 . S
O110 In104 2.266 . S
O110 C107 1.252 . S
O111 In104 2.326 . S
O111 C107 1.260 . S
O112 In104 2.266 1_565 S
O112 C109 1.252 . S
O113 In104 2.326 1_565 S
O113 C109 1.260 . S
C114 O105 1.240 . S
C114 O106 1.252 . S
O115 In104 2.294 . S
O115 C108 1.240 . S
O116 In104 2.326 . S
O116 C108 1.252 . S
In117 O118 2.294 . S
In117 O119 2.326 . S
In117 O123 2.266 . S
In117 O124 2.326 . S
In117 O125 2.266 . S
In117 O126 2.326 . S
In117 O128 2.294 . S
In117 O129 2.326 . S
O118 In117 2.294 . S
O118 C127 1.240 . S
O119 In117 2.326 . S
O119 C127 1.252 . S
C120 O123 1.252 . S
C120 O124 1.260 . S
C121 O128 1.240 . S
C121 O129 1.252 . S
C122 O125 1.252 . S
C122 O126 1.260 . S
O123 In117 2.266 . S
O123 C120 1.252 . S
O124 In117 2.326 . S
O124 C120 1.260 . S
O125 In117 2.266 . S
O125 C122 1.252 . S
O126 In117 2.326 . S
O126 C122 1.260 . S
C127 O118 1.240 . S
C127 O119 1.252 . S
O128 In117 2.294 . S
O128 C121 1.240 . S
O129 In117 2.326 . S
O129 C121 1.252 . S
In130 O131 2.294 1_545 S
In130 O132 2.326 1_545 S
In130 O136 2.266 . S
In130 O137 2.326 . S
In130 O138 2.264 . S
In130 O139 2.322 . S
In130 O141 2.296 1_545 S
In130 O142 2.330 1_545 S
O131 In130 2.294 1_565 S
O131 C140 1.240 . S
O132 In130 2.326 1_565 S
O132 C140 1.252 . S
C133 O136 1.252 . S
C133 O137 1.260 . S
C134 O141 1.240 . S
C134 O142 1.252 . S
C135 O138 1.252 . S
C135 O139 1.260 . S
O136 In130 2.266 . S
O136 C133 1.252 . S
O137 In130 2.326 . S
O137 C133 1.260 . S
O138 In130 2.264 . S
O138 C135 1.252 . S
O139 In130 2.322 . S
O139 C135 1.260 . S
C140 O131 1.240 . S
C140 O132 1.252 . S
O141 In130 2.296 1_565 S
O141 C134 1.240 . S
O142 In130 2.330 1_565 S
O142 C134 1.252 . S
In143 O144 2.294 . S
In143 O145 2.326 . S
In143 O149 2.266 1_554 S
In143 O150 2.326 1_554 S
In143 O151 2.266 . S
In143 O152 2.326 . S
In143 O154 2.294 . S
In143 O155 2.326 . S
O144 In143 2.294 . S
O144 C153 1.240 . S
O145 In143 2.326 . S
O145 C153 1.252 . S
C146 O149 1.252 . S
C146 O150 1.260 . S
C147 O154 1.240 . S
C147 O155 1.252 . S
C148 O151 1.252 . S
C148 O152 1.260 . S
O149 In143 2.266 1_556 S
O149 C146 1.252 . S
O150 In143 2.326 1_556 S
O150 C146 1.260 . S
O151 In143 2.266 . S
O151 C148 1.252 . S
O152 In143 2.326 . S
O152 C148 1.260 . S
C153 O144 1.240 . S
C153 O145 1.252 . S
O154 In143 2.294 . S
O154 C147 1.240 . S
O155 In143 2.326 . S
O155 C147 1.252 . S
In156 O157 2.294 . S
In156 O158 2.326 . S
In156 O162 2.266 1_554 S
In156 O163 2.326 1_554 S
In156 O164 2.266 . S
In156 O165 2.326 . S
In156 O167 2.294 . S
In156 O168 2.326 . S
O157 In156 2.294 . S
O157 C166 1.240 . S
O158 In156 2.326 . S
O158 C166 1.252 . S
C159 O162 1.252 . S
C159 O163 1.260 . S
C160 O167 1.240 . S
C160 O168 1.252 . S
C161 O164 1.252 . S
C161 O165 1.260 . S
O162 In156 2.266 1_556 S
O162 C159 1.252 . S
O163 In156 2.326 1_556 S
O163 C159 1.260 . S
O164 In156 2.266 . S
O164 C161 1.252 . S
O165 In156 2.326 . S
O165 C161 1.260 . S
C166 O157 1.240 . S
C166 O158 1.252 . S
O167 In156 2.294 . S
O167 C160 1.240 . S
O168 In156 2.326 . S
O168 C160 1.252 . S
In169 O170 2.294 . S
In169 O171 2.326 . S
In169 O175 2.266 1_554 S
In169 O176 2.326 . S
In169 O177 2.266 1_554 S
In169 O178 2.326 1_554 S
In169 O180 2.294 . S
In169 O181 2.326 . S
O170 In169 2.294 . S
O170 C179 1.240 . S
O171 In169 2.326 . S
O171 C179 1.252 . S
C172 O175 1.252 . S
C172 O176 1.260 1_556 S
C173 O180 1.240 . S
C173 O181 1.252 . S
C174 O177 1.252 . S
C174 O178 1.260 . S
O175 In169 2.266 1_556 S
O175 C172 1.252 . S
O176 In169 2.326 . S
O176 C172 1.260 1_554 S
O177 In169 2.266 1_556 S
O177 C174 1.252 . S
O178 In169 2.326 1_556 S
O178 C174 1.260 . S
C179 O170 1.240 . S
C179 O171 1.252 . S
O180 In169 2.294 . S
O180 C173 1.240 . S
O181 In169 2.326 . S
O181 C173 1.252 . S
In182 O183 2.294 . S
In182 O184 2.326 . S
In182 O188 2.266 . S
In182 O189 2.326 . S
In182 O190 2.266 . S
In182 O191 2.326 . S
In182 O193 2.294 . S
In182 O194 2.326 . S
O183 In182 2.294 . S
O183 C192 1.240 . S
O184 In182 2.326 . S
O184 C192 1.252 . S
C185 O188 1.252 . S
C185 O189 1.260 . S
C186 O193 1.240 . S
C186 O194 1.252 . S
C187 O190 1.252 . S
C187 O191 1.260 . S
O188 In182 2.266 . S
O188 C185 1.252 . S
O189 In182 2.326 . S
O189 C185 1.260 . S
O190 In182 2.266 . S
O190 C187 1.252 . S
O191 In182 2.326 . S
O191 C187 1.260 . S
C192 O183 1.240 . S
C192 O184 1.252 . S
O193 In182 2.294 . S
O193 C186 1.240 . S
O194 In182 2.326 . S
O194 C186 1.252 . S
In195 O196 2.294 . S
In195 O197 2.326 . S
In195 O201 2.266 . S
In195 O202 2.326 . S
In195 O203 2.266 . S
In195 O204 2.326 . S
In195 O206 2.294 . S
In195 O207 2.326 . S
O196 In195 2.294 . S
O196 C205 1.240 . S
O197 In195 2.326 . S
O197 C205 1.252 . S
C198 O201 1.252 . S
C198 O202 1.260 . S
C199 O206 1.240 . S
C199 O207 1.252 . S
C200 O203 1.252 . S
C200 O204 1.260 . S
O201 In195 2.266 . S
O201 C198 1.252 . S
O202 In195 2.326 . S
O202 C198 1.260 . S
O203 In195 2.266 . S
O203 C200 1.252 . S
O204 In195 2.326 . S
O204 C200 1.260 . S
C205 O196 1.240 . S
C205 O197 1.252 . S
O206 In195 2.294 . S
O206 C199 1.240 . S
O207 In195 2.326 . S
O207 C199 1.252 . S
In208 O209 2.294 . S
In208 O210 2.326 . S
In208 O214 2.266 . S
In208 O215 2.326 . S
In208 O216 2.266 . S
In208 O217 2.326 . S
In208 O219 2.294 . S
In208 O220 2.326 . S
O209 In208 2.294 . S
O209 C218 1.240 . S
O210 In208 2.326 . S
O210 C218 1.252 . S
C211 O214 1.252 . S
C211 O215 1.260 . S
C212 O219 1.240 . S
C212 O220 1.252 . S
C213 O216 1.252 1_565 S
C213 O217 1.260 1_565 S
O214 In208 2.266 . S
O214 C211 1.252 . S
O215 In208 2.326 . S
O215 C211 1.260 . S
O216 In208 2.266 . S
O216 C213 1.252 1_545 S
O217 In208 2.326 . S
O217 C213 1.260 1_545 S
C218 O209 1.240 . S
C218 O210 1.252 . S
O219 In208 2.294 . S
O219 C212 1.240 . S
O220 In208 2.326 . S
O220 C212 1.252 . S
In221 O222 2.294 . S
In221 O223 2.326 . S
In221 O227 2.266 . S
In221 O228 2.326 . S
In221 O229 2.266 . S
In221 O230 2.326 . S
In221 O232 2.294 . S
In221 O233 2.326 . S
O222 In221 2.294 . S
O222 C231 1.240 . S
O223 In221 2.326 . S
O223 C231 1.252 . S
C224 O227 1.252 . S
C224 O228 1.260 . S
C225 O232 1.240 . S
C225 O233 1.252 . S
C226 O229 1.252 . S
C226 O230 1.260 . S
O227 In221 2.266 . S
O227 C224 1.252 . S
O228 In221 2.326 . S
O228 C224 1.260 . S
O229 In221 2.266 . S
O229 C226 1.252 . S
O230 In221 2.326 . S
O230 C226 1.260 . S
C231 O222 1.240 . S
C231 O223 1.252 . S
O232 In221 2.294 . S
O232 C225 1.240 . S
O233 In221 2.326 . S
O233 C225 1.252 . S
In234 O235 2.294 . S
In234 O236 2.326 . S
In234 O240 2.266 . S
In234 O241 2.326 . S
In234 O242 2.266 . S
In234 O243 2.326 . S
In234 O245 2.294 . S
In234 O246 2.326 . S
O235 In234 2.294 . S
O235 C244 1.240 . S
O236 In234 2.326 . S
O236 C244 1.252 . S
C237 O240 1.252 . S
C237 O241 1.260 . S
C238 O245 1.240 . S
C238 O246 1.252 . S
C239 O242 1.252 . S
C239 O243 1.260 . S
O240 In234 2.266 . S
O240 C237 1.252 . S
O241 In234 2.326 . S
O241 C237 1.260 . S
O242 In234 2.266 . S
O242 C239 1.252 . S
O243 In234 2.326 . S
O243 C239 1.260 . S
C244 O235 1.240 . S
C244 O236 1.252 . S
O245 In234 2.294 . S
O245 C238 1.240 . S
O246 In234 2.326 . S
O246 C238 1.252 . S
In247 O248 2.294 . S
In247 O249 2.326 1_545 S
In247 O253 2.266 . S
In247 O254 2.326 . S
In247 O255 2.266 . S
In247 O256 2.326 . S
In247 O258 2.294 . S
In247 O259 2.326 . S
O248 In247 2.294 . S
O248 C257 1.240 1_545 S
O249 In247 2.326 1_565 S
O249 C257 1.252 . S
C250 O253 1.252 . S
C250 O254 1.260 . S
C251 O258 1.240 . S
C251 O259 1.252 . S
C252 O255 1.252 . S
C252 O256 1.260 . S
O253 In247 2.266 . S
O253 C250 1.252 . S
O254 In247 2.326 . S
O254 C250 1.260 . S
O255 In247 2.266 . S
O255 C252 1.252 . S
O256 In247 2.326 . S
O256 C252 1.260 . S
C257 O248 1.240 1_565 S
C257 O249 1.252 . S
O258 In247 2.294 . S
O258 C251 1.240 . S
O259 In247 2.326 . S
O259 C251 1.252 . S
In260 O261 2.294 . S
In260 O262 2.326 . S
In260 O266 2.266 . S
In260 O267 2.326 . S
In260 O268 2.266 1_554 S
In260 O269 2.326 1_554 S
In260 O271 2.294 . S
In260 O272 2.326 . S
O261 In260 2.294 . S
O261 C270 1.240 . S
O262 In260 2.326 . S
O262 C270 1.252 . S
C263 O266 1.252 . S
C263 O267 1.260 . S
C264 O271 1.240 . S
C264 O272 1.252 . S
C265 O268 1.252 . S
C265 O269 1.260 . S
O266 In260 2.266 . S
O266 C263 1.252 . S
O267 In260 2.326 . S
O267 C263 1.260 . S
O268 In260 2.266 1_556 S
O268 C265 1.252 . S
O269 In260 2.326 1_556 S
O269 C265 1.260 . S
C270 O261 1.240 . S
C270 O262 1.252 . S
O271 In260 2.294 . S
O271 C264 1.240 . S
O272 In260 2.326 . S
O272 C264 1.252 . S
In273 O274 2.294 . S
In273 O275 2.326 . S
In273 O279 2.266 . S
In273 O280 2.326 . S
In273 O281 2.266 . S
In273 O282 2.326 . S
In273 O284 2.294 . S
In273 O285 2.326 . S
O274 In273 2.294 . S
O274 C283 1.240 . S
O275 In273 2.326 . S
O275 C283 1.252 . S
C276 O279 1.252 . S
C276 O280 1.260 . S
C277 O284 1.240 . S
C277 O285 1.252 . S
C278 O281 1.252 . S
C278 O282 1.260 . S
O279 In273 2.266 . S
O279 C276 1.252 . S
O280 In273 2.326 . S
O280 C276 1.260 . S
O281 In273 2.266 . S
O281 C278 1.252 . S
O282 In273 2.326 . S
O282 C278 1.260 . S
C283 O274 1.240 . S
C283 O275 1.252 . S
O284 In273 2.294 . S
O284 C277 1.240 . S
O285 In273 2.326 . S
O285 C277 1.252 . S
In286 O287 2.294 . S
In286 O288 2.326 . S
In286 O292 2.266 . S
In286 O293 2.326 . S
In286 O294 2.266 . S
In286 O295 2.326 . S
In286 O297 2.294 . S
In286 O298 2.326 . S
O287 In286 2.294 . S
O287 C296 1.240 . S
O288 In286 2.326 . S
O288 C296 1.252 . S
C289 O292 1.252 . S
C289 O293 1.260 . S
C290 O297 1.240 . S
C290 O298 1.252 . S
C291 O294 1.252 . S
C291 O295 1.260 . S
O292 In286 2.266 . S
O292 C289 1.252 . S
O293 In286 2.326 . S
O293 C289 1.260 . S
O294 In286 2.266 . S
O294 C291 1.252 . S
O295 In286 2.326 . S
O295 C291 1.260 . S
C296 O287 1.240 . S
C296 O288 1.252 . S
O297 In286 2.294 . S
O297 C290 1.240 . S
O298 In286 2.326 . S
O298 C290 1.252 . S
In299 O300 2.294 . S
In299 O301 2.326 . S
In299 O305 2.266 . S
In299 O306 2.326 . S
In299 O307 2.266 . S
In299 O308 2.326 . S
In299 O310 2.294 . S
In299 O311 2.326 . S
O300 In299 2.294 . S
O300 C309 1.240 . S
O301 In299 2.326 . S
O301 C309 1.252 . S
C302 O305 1.252 . S
C302 O306 1.260 . S
C303 O310 1.240 . S
C303 O311 1.252 . S
C304 O307 1.252 . S
C304 O308 1.260 . S
O305 In299 2.266 . S
O305 C302 1.252 . S
O306 In299 2.326 . S
O306 C302 1.260 . S
O307 In299 2.266 . S
O307 C304 1.252 . S
O308 In299 2.326 . S
O308 C304 1.260 . S
C309 O300 1.240 . S
C309 O301 1.252 . S
O310 In299 2.294 . S
O310 C303 1.240 . S
O311 In299 2.326 . S
O311 C303 1.252 . S
Dy312 O316 2.398 1_554 S
Dy312 O317 2.491 . S
Dy312 O318 2.403 1_654 S
Dy312 O319 2.664 1_655 S
Dy312 O323 2.326 1_655 S
Dy312 O327 2.310 1_655 S
Dy312 O328 2.351 1_645 S
C313 O324 1.185 . S
C313 O325 1.355 . S
C314 O316 1.185 1_554 S
C314 O317 1.355 . S
Dy315 O319 2.310 . S
Dy315 O322 2.351 . S
Dy315 O324 2.398 . S
Dy315 O325 2.491 . S
Dy315 O326 2.403 . S
Dy315 O327 2.664 . S
Dy315 O329 2.326 . S
O316 Dy312 2.398 1_556 S
O316 C314 1.185 1_556 S
O317 Dy312 2.491 . S
O317 C314 1.355 . S
O318 Dy312 2.403 1_456 S
O318 C320 1.254 . S
O319 Dy312 2.664 1_455 S
O319 Dy315 2.310 . S
O319 C320 1.268 1_554 S
C320 O318 1.254 . S
C320 O319 1.268 1_556 S
C321 O326 1.254 . S
C321 O327 1.268 . S
O322 Dy315 2.351 . S
O322 C330 1.249 . S
O323 Dy312 2.326 1_455 S
O323 C330 1.267 . S
O324 C313 1.185 . S
O324 Dy315 2.398 . S
O325 C313 1.355 . S
O325 Dy315 2.491 . S
O326 Dy315 2.403 . S
O326 C321 1.254 . S
O327 Dy312 2.310 1_455 S
O327 Dy315 2.664 . S
O327 C321 1.268 . S
O328 Dy312 2.351 1_465 S
O328 C331 1.249 . S
O329 Dy315 2.326 . S
O329 C331 1.267 1_545 S
C330 O322 1.249 . S
C330 O323 1.267 . S
C331 O328 1.249 . S
C331 O329 1.267 1_565 S
Dy332 O336 2.398 . S
Dy332 O337 2.491 . S
Dy332 O338 2.403 . S
Dy332 O339 2.664 . S
Dy332 O343 2.326 . S
Dy332 O347 2.310 . S
Dy332 O348 2.351 . S
C333 O344 1.185 . S
C333 O345 1.355 . S
C334 O336 1.185 . S
C334 O337 1.355 . S
Dy335 O339 2.310 . S
Dy335 O342 2.351 . S
Dy335 O344 2.398 . S
Dy335 O345 2.491 . S
Dy335 O346 2.403 . S
Dy335 O347 2.664 . S
Dy335 O349 2.326 . S
O336 Dy332 2.398 . S
O336 C334 1.185 . S
O337 Dy332 2.491 . S
O337 C334 1.355 . S
O338 Dy332 2.403 . S
O338 C340 1.254 . S
O339 Dy332 2.664 . S
O339 Dy335 2.310 . S
O339 C340 1.268 . S
C340 O338 1.254 . S
C340 O339 1.268 . S
C341 O346 1.254 . S
C341 O347 1.268 . S
O342 Dy335 2.351 . S
O342 C350 1.249 . S
O343 Dy332 2.326 . S
O343 C350 1.267 . S
O344 C333 1.185 . S
O344 Dy335 2.398 . S
O345 C333 1.355 . S
O345 Dy335 2.491 . S
O346 Dy335 2.403 . S
O346 C341 1.254 . S
O347 Dy332 2.310 . S
O347 Dy335 2.664 . S
O347 C341 1.268 . S
O348 Dy332 2.351 . S
O348 C351 1.249 . S
O349 Dy335 2.326 . S
O349 C351 1.267 . S
C350 O342 1.249 . S
C350 O343 1.267 . S
C351 O348 1.249 . S
C351 O349 1.267 . S
Dy352 O356 2.398 1_545 S
Dy352 O357 2.491 1_545 S
Dy352 O358 2.403 . S
Dy352 O359 2.664 . S
Dy352 O363 2.326 1_545 S
Dy352 O367 2.310 . S
Dy352 O368 2.351 . S
C353 O364 1.185 . S
C353 O365 1.355 . S
C354 O356 1.185 . S
C354 O357 1.355 . S
Dy355 O359 2.310 . S
Dy355 O362 2.351 1_545 S
Dy355 O364 2.398 . S
Dy355 O365 2.491 . S
Dy355 O366 2.403 . S
Dy355 O367 2.664 . S
Dy355 O369 2.326 . S
O356 Dy352 2.398 1_565 S
O356 C354 1.185 . S
O357 Dy352 2.491 1_565 S
O357 C354 1.355 . S
O358 Dy352 2.403 . S
O358 C360 1.254 . S
O359 Dy352 2.664 . S
O359 Dy355 2.310 . S
O359 C360 1.268 . S
C360 O358 1.254 . S
C360 O359 1.268 . S
C361 O366 1.254 . S
C361 O367 1.268 . S
O362 Dy355 2.351 1_565 S
O362 C370 1.249 . S
O363 Dy352 2.326 1_565 S
O363 C370 1.267 . S
O364 C353 1.185 . S
O364 Dy355 2.398 . S
O365 C353 1.355 . S
O365 Dy355 2.491 . S
O366 Dy355 2.403 . S
O366 C361 1.254 . S
O367 Dy352 2.310 . S
O367 Dy355 2.664 . S
O367 C361 1.268 . S
O368 Dy352 2.351 . S
O368 C371 1.249 . S
O369 Dy355 2.326 . S
O369 C371 1.267 . S
C370 O362 1.249 . S
C370 O363 1.267 . S
C371 O368 1.249 . S
C371 O369 1.267 . S
Dy372 O376 2.398 . S
Dy372 O377 2.491 . S
Dy372 O378 2.403 . S
Dy372 O379 2.664 . S
Dy372 O383 2.326 . S
Dy372 O387 2.310 . S
Dy372 O388 2.351 . S
C373 O384 1.185 . S
C373 O385 1.355 . S
C374 O376 1.185 . S
C374 O377 1.355 . S
Dy375 O379 2.310 . S
Dy375 O382 2.351 . S
Dy375 O384 2.398 . S
Dy375 O385 2.491 . S
Dy375 O386 2.403 . S
Dy375 O387 2.664 . S
Dy375 O389 2.326 . S
O376 Dy372 2.398 . S
O376 C374 1.185 . S
O377 Dy372 2.491 . S
O377 C374 1.355 . S
O378 Dy372 2.403 . S
O378 C380 1.254 . S
O379 Dy372 2.664 . S
O379 Dy375 2.310 . S
O379 C380 1.268 . S
C380 O378 1.254 . S
C380 O379 1.268 . S
C381 O386 1.254 . S
C381 O387 1.268 . S
O382 Dy375 2.351 . S
O382 C390 1.249 . S
O383 Dy372 2.326 . S
O383 C390 1.267 . S
O384 C373 1.185 . S
O384 Dy375 2.398 . S
O385 C373 1.355 . S
O385 Dy375 2.491 . S
O386 Dy375 2.403 . S
O386 C381 1.254 . S
O387 Dy372 2.310 . S
O387 Dy375 2.664 . S
O387 C381 1.268 . S
O388 Dy372 2.351 . S
O388 C391 1.249 . S
O389 Dy375 2.326 . S
O389 C391 1.267 . S
C390 O382 1.249 . S
C390 O383 1.267 . S
C391 O388 1.249 . S
C391 O389 1.267 . S
Dy392 O396 2.398 1_565 S
Dy392 O397 2.491 1_465 S
Dy392 O398 2.403 1_565 S
Dy392 O399 2.664 1_565 S
Dy392 O403 2.326 1_565 S
Dy392 O407 2.310 1_565 S
Dy392 O408 2.351 . S
C393 O404 1.185 . S
C393 O405 1.355 . S
C394 O396 1.185 . S
C394 O397 1.355 1_455 S
Dy395 O399 2.310 . S
Dy395 O402 2.351 . S
Dy395 O404 2.398 . S
Dy395 O405 2.491 . S
Dy395 O406 2.403 1_455 S
Dy395 O407 2.664 . S
Dy395 O409 2.326 1_545 S
O396 Dy392 2.398 1_545 S
O396 C394 1.185 . S
O397 Dy392 2.491 1_645 S
O397 C394 1.355 1_655 S
O398 Dy392 2.403 1_545 S
O398 C400 1.254 . S
O399 Dy392 2.664 1_545 S
O399 Dy395 2.310 . S
O399 C400 1.268 . S
C400 O398 1.254 . S
C400 O399 1.268 . S
C401 O406 1.257 . S
C401 O407 1.269 1_655 S
O402 Dy395 2.351 . S
O402 C410 1.249 . S
O403 Dy392 2.326 1_545 S
O403 C410 1.267 . S
O404 C393 1.185 . S
O404 Dy395 2.398 . S
O405 C393 1.355 . S
O405 Dy395 2.491 . S
O406 Dy395 2.403 1_655 S
O406 C401 1.257 . S
O407 Dy392 2.310 1_545 S
O407 Dy395 2.664 . S
O407 C401 1.269 1_455 S
O408 Dy392 2.351 . S
O408 C411 1.249 . S
O409 Dy395 2.326 1_565 S
O409 C411 1.267 . S
C410 O402 1.249 . S
C410 O403 1.267 . S
C411 O408 1.249 . S
C411 O409 1.267 . S
Dy412 O416 2.398 . S
Dy412 O417 2.491 . S
Dy412 O418 2.403 . S
Dy412 O419 2.664 . S
Dy412 O423 2.326 . S
Dy412 O427 2.310 . S
Dy412 O428 2.351 . S
C413 O424 1.185 . S
C413 O425 1.355 . S
C414 O416 1.185 . S
C414 O417 1.355 . S
Dy415 O419 2.310 . S
Dy415 O422 2.351 . S
Dy415 O424 2.398 . S
Dy415 O425 2.491 . S
Dy415 O426 2.403 . S
Dy415 O427 2.664 . S
Dy415 O429 2.326 . S
O416 Dy412 2.398 . S
O416 C414 1.185 . S
O417 Dy412 2.491 . S
O417 C414 1.355 . S
O418 Dy412 2.403 . S
O418 C420 1.254 . S
O419 Dy412 2.664 . S
O419 Dy415 2.310 . S
O419 C420 1.268 . S
C420 O418 1.254 . S
C420 O419 1.268 . S
C421 O426 1.254 . S
C421 O427 1.268 . S
O422 Dy415 2.351 . S
O422 C430 1.249 . S
O423 Dy412 2.326 . S
O423 C430 1.267 . S
O424 C413 1.185 . S
O424 Dy415 2.398 . S
O425 C413 1.355 . S
O425 Dy415 2.491 . S
O426 Dy415 2.403 . S
O426 C421 1.254 . S
O427 Dy412 2.310 . S
O427 Dy415 2.664 . S
O427 C421 1.268 . S
O428 Dy412 2.351 . S
O428 C431 1.249 . S
O429 Dy415 2.326 . S
O429 C431 1.267 . S
C430 O422 1.249 . S
C430 O423 1.267 . S
C431 O428 1.249 . S
C431 O429 1.267 . S
Dy432 O436 2.398 1_545 S
Dy432 O437 2.491 . S
Dy432 O438 2.403 1_545 S
Dy432 O439 2.664 1_554 S
Dy432 O443 2.326 . S
Dy432 O447 2.310 . S
Dy432 O448 2.351 . S
C433 O444 1.185 . S
C433 O445 1.355 . S
C434 O436 1.185 1_545 S
C434 O437 1.355 . S
Dy435 O439 2.310 . S
Dy435 O442 2.351 . S
Dy435 O444 2.398 . S
Dy435 O445 2.491 . S
Dy435 O446 2.403 . S
Dy435 O447 2.664 1_556 S
Dy435 O449 2.326 . S
O436 Dy432 2.398 1_565 S
O436 C434 1.185 1_565 S
O437 Dy432 2.491 . S
O437 C434 1.355 . S
O438 Dy432 2.403 1_565 S
O438 C440 1.254 1_554 S
O439 Dy432 2.664 1_556 S
O439 Dy435 2.310 . S
O439 C440 1.268 1_545 S
C440 O438 1.254 1_556 S
C440 O439 1.268 1_565 S
C441 O446 1.254 1_554 S
C441 O447 1.268 . S
O442 Dy435 2.351 . S
O442 C450 1.249 1_556 S
O443 Dy432 2.326 . S
O443 C450 1.267 . S
O444 C433 1.185 . S
O444 Dy435 2.398 . S
O445 C433 1.355 . S
O445 Dy435 2.491 . S
O446 Dy435 2.403 . S
O446 C441 1.254 1_556 S
O447 Dy432 2.310 . S
O447 Dy435 2.664 1_554 S
O447 C441 1.268 . S
O448 Dy432 2.351 . S
O448 C451 1.249 . S
O449 Dy435 2.326 . S
O449 C451 1.267 1_556 S
C450 O442 1.249 1_554 S
C450 O443 1.267 . S
C451 O448 1.249 . S
C451 O449 1.267 1_554 S
Dy452 O456 2.398 . S
Dy452 O457 2.491 . S
Dy452 O458 2.403 . S
Dy452 O459 2.664 . S
Dy452 O463 2.326 . S
Dy452 O467 2.310 . S
Dy452 O468 2.351 . S
C453 O464 1.185 . S
C453 O465 1.355 . S
C454 O456 1.185 . S
C454 O457 1.355 . S
Dy455 O459 2.310 . S
Dy455 O462 2.351 . S
Dy455 O464 2.398 . S
Dy455 O465 2.491 . S
Dy455 O466 2.403 . S
Dy455 O467 2.664 . S
Dy455 O469 2.326 . S
O456 Dy452 2.398 . S
O456 C454 1.185 . S
O457 Dy452 2.491 . S
O457 C454 1.355 . S
O458 Dy452 2.403 . S
O458 C460 1.254 . S
O459 Dy452 2.664 . S
O459 Dy455 2.310 . S
O459 C460 1.268 . S
C460 O458 1.254 . S
C460 O459 1.268 . S
C461 O466 1.254 . S
C461 O467 1.268 . S
O462 Dy455 2.351 . S
O462 C470 1.249 . S
O463 Dy452 2.326 . S
O463 C470 1.267 . S
O464 C453 1.185 . S
O464 Dy455 2.398 . S
O465 C453 1.355 . S
O465 Dy455 2.491 . S
O466 Dy455 2.403 . S
O466 C461 1.254 . S
O467 Dy452 2.310 . S
O467 Dy455 2.664 . S
O467 C461 1.268 . S
O468 Dy452 2.351 . S
O468 C471 1.249 . S
O469 Dy455 2.326 . S
O469 C471 1.267 . S
C470 O462 1.249 . S
C470 O463 1.267 . S
C471 O468 1.249 . S
C471 O469 1.267 . S
Dy472 O476 2.398 . S
Dy472 O477 2.491 . S
Dy472 O478 2.403 . S
Dy472 O479 2.664 1_556 S
Dy472 O483 2.326 . S
Dy472 O487 2.309 . S
Dy472 O488 2.351 . S
C473 O484 1.185 . S
C473 O485 1.355 . S
C474 O476 1.185 . S
C474 O477 1.355 . S
Dy475 O479 2.310 . S
Dy475 O482 2.351 . S
Dy475 O484 2.398 . S
Dy475 O485 2.491 . S
Dy475 O486 2.403 . S
Dy475 O487 2.664 1_554 S
Dy475 O489 2.326 . S
O476 Dy472 2.398 . S
O476 C474 1.185 . S
O477 Dy472 2.491 . S
O477 C474 1.355 . S
O478 Dy472 2.403 . S
O478 C480 1.254 . S
O479 Dy472 2.664 1_554 S
O479 Dy475 2.310 . S
O479 C480 1.268 1_554 S
C480 O478 1.254 . S
C480 O479 1.268 1_556 S
C481 O486 1.254 . S
C481 O487 1.268 1_554 S
O482 Dy475 2.351 . S
O482 C490 1.249 1_554 S
O483 Dy472 2.326 . S
O483 C490 1.267 . S
O484 C473 1.185 . S
O484 Dy475 2.398 . S
O485 C473 1.355 . S
O485 Dy475 2.491 . S
O486 Dy475 2.403 . S
O486 C481 1.254 . S
O487 Dy472 2.309 . S
O487 Dy475 2.664 1_556 S
O487 C481 1.268 1_556 S
O488 Dy472 2.351 . S
O488 C491 1.249 1_556 S
O489 Dy475 2.326 . S
O489 C491 1.267 . S
C490 O482 1.249 1_556 S
C490 O483 1.267 . S
C491 O488 1.249 1_554 S
C491 O489 1.267 . S
Dy492 O496 2.398 . S
Dy492 O497 2.491 . S
Dy492 O498 2.403 . S
Dy492 O499 2.664 . S
Dy492 O503 2.326 . S
Dy492 O507 2.310 . S
Dy492 O508 2.351 . S
C493 O504 1.185 . S
C493 O505 1.355 . S
C494 O496 1.185 . S
C494 O497 1.355 . S
Dy495 O499 2.310 . S
Dy495 O502 2.351 . S
Dy495 O504 2.398 . S
Dy495 O505 2.491 . S
Dy495 O506 2.403 . S
Dy495 O507 2.664 . S
Dy495 O509 2.326 . S
O496 Dy492 2.398 . S
O496 C494 1.185 . S
O497 Dy492 2.491 . S
O497 C494 1.355 . S
O498 Dy492 2.403 . S
O498 C500 1.254 . S
O499 Dy492 2.664 . S
O499 Dy495 2.310 . S
O499 C500 1.268 . S
C500 O498 1.254 . S
C500 O499 1.268 . S
C501 O506 1.254 . S
C501 O507 1.268 . S
O502 Dy495 2.351 . S
O502 C510 1.249 . S
O503 Dy492 2.326 . S
O503 C510 1.267 . S
O504 C493 1.185 . S
O504 Dy495 2.398 . S
O505 C493 1.355 . S
O505 Dy495 2.491 . S
O506 Dy495 2.403 . S
O506 C501 1.254 . S
O507 Dy492 2.310 . S
O507 Dy495 2.664 . S
O507 C501 1.268 . S
O508 Dy492 2.351 . S
O508 C511 1.249 . S
O509 Dy495 2.326 . S
O509 C511 1.267 . S
C510 O502 1.249 . S
C510 O503 1.267 . S
C511 O508 1.249 . S
C511 O509 1.267 . S
Dy512 O516 2.398 1_455 S
Dy512 O517 2.491 1_455 S
Dy512 O518 2.403 . S
Dy512 O519 2.664 . S
Dy512 O523 2.326 1_455 S
Dy512 O527 2.310 . S
Dy512 O528 2.351 . S
C513 O524 1.185 . S
C513 O525 1.355 . S
C514 O516 1.185 . S
C514 O517 1.355 . S
Dy515 O519 2.310 . S
Dy515 O522 2.351 1_455 S
Dy515 O524 2.398 . S
Dy515 O525 2.491 . S
Dy515 O526 2.403 . S
Dy515 O527 2.664 . S
Dy515 O529 2.326 . S
O516 Dy512 2.398 1_655 S
O516 C514 1.185 . S
O517 Dy512 2.491 1_655 S
O517 C514 1.355 . S
O518 Dy512 2.403 . S
O518 C520 1.254 . S
O519 Dy512 2.664 . S
O519 Dy515 2.310 . S
O519 C520 1.268 . S
C520 O518 1.254 . S
C520 O519 1.268 . S
C521 O526 1.254 . S
C521 O527 1.268 . S
O522 Dy515 2.351 1_655 S
O522 C530 1.249 . S
O523 Dy512 2.326 1_655 S
O523 C530 1.267 . S
O524 C513 1.185 . S
O524 Dy515 2.398 . S
O525 C513 1.355 . S
O525 Dy515 2.491 . S
O526 Dy515 2.403 . S
O526 C521 1.254 . S
O527 Dy512 2.310 . S
O527 Dy515 2.664 . S
O527 C521 1.268 . S
O528 Dy512 2.351 . S
O528 C531 1.249 . S
O529 Dy515 2.326 . S
O529 C531 1.267 . S
C530 O522 1.249 . S
C530 O523 1.267 . S
C531 O528 1.249 . S
C531 O529 1.267 . S
Dy532 O536 2.398 . S
Dy532 O537 2.491 . S
Dy532 O538 2.403 . S
Dy532 O539 2.664 . S
Dy532 O543 2.326 . S
Dy532 O547 2.310 . S
Dy532 O548 2.351 . S
C533 O544 1.185 . S
C533 O545 1.355 . S
C534 O536 1.185 . S
C534 O537 1.355 . S
Dy535 O539 2.310 . S
Dy535 O542 2.351 . S
Dy535 O544 2.398 . S
Dy535 O545 2.491 . S
Dy535 O546 2.403 . S
Dy535 O547 2.664 . S
Dy535 O549 2.326 . S
O536 Dy532 2.398 . S
O536 C534 1.185 . S
O537 Dy532 2.491 . S
O537 C534 1.355 . S
O538 Dy532 2.403 . S
O538 C540 1.254 . S
O539 Dy532 2.664 . S
O539 Dy535 2.310 . S
O539 C540 1.268 . S
C540 O538 1.254 . S
C540 O539 1.268 . S
C541 O546 1.254 . S
C541 O547 1.268 . S
O542 Dy535 2.351 . S
O542 C550 1.249 . S
O543 Dy532 2.326 . S
O543 C550 1.267 . S
O544 C533 1.185 . S
O544 Dy535 2.398 . S
O545 C533 1.355 . S
O545 Dy535 2.491 . S
O546 Dy535 2.403 . S
O546 C541 1.254 . S
O547 Dy532 2.310 . S
O547 Dy535 2.664 . S
O547 C541 1.268 . S
O548 Dy532 2.351 . S
O548 C551 1.249 . S
O549 Dy535 2.326 . S
O549 C551 1.267 . S
C550 O542 1.249 . S
C550 O543 1.267 . S
C551 O548 1.249 . S
C551 O549 1.267 . S
Dy552 O556 2.398 . S
Dy552 O557 2.491 . S
Dy552 O558 2.403 . S
Dy552 O559 2.664 . S
Dy552 O563 2.326 . S
Dy552 O567 2.310 . S
Dy552 O568 2.351 . S
C553 O564 1.185 . S
C553 O565 1.355 . S
C554 O556 1.185 . S
C554 O557 1.355 . S
Dy555 O559 2.310 . S
Dy555 O562 2.351 . S
Dy555 O564 2.398 . S
Dy555 O565 2.491 . S
Dy555 O566 2.403 . S
Dy555 O567 2.664 . S
Dy555 O569 2.326 . S
O556 Dy552 2.398 . S
O556 C554 1.185 . S
O557 Dy552 2.491 . S
O557 C554 1.355 . S
O558 Dy552 2.403 . S
O558 C560 1.254 . S
O559 Dy552 2.664 . S
O559 Dy555 2.310 . S
O559 C560 1.268 . S
C560 O558 1.254 . S
C560 O559 1.268 . S
C561 O566 1.254 . S
C561 O567 1.268 . S
O562 Dy555 2.351 . S
O562 C570 1.249 . S
O563 Dy552 2.326 . S
O563 C570 1.267 . S
O564 C553 1.185 . S
O564 Dy555 2.398 . S
O565 C553 1.355 . S
O565 Dy555 2.491 . S
O566 Dy555 2.403 . S
O566 C561 1.254 . S
O567 Dy552 2.310 . S
O567 Dy555 2.664 . S
O567 C561 1.268 . S
O568 Dy552 2.351 . S
O568 C571 1.249 . S
O569 Dy555 2.326 . S
O569 C571 1.267 . S
C570 O562 1.249 . S
C570 O563 1.267 . S
C571 O568 1.249 . S
C571 O569 1.267 . S
Dy572 O576 2.398 . S
Dy572 O577 2.491 . S
Dy572 O578 2.403 . S
Dy572 O579 2.664 . S
Dy572 O583 2.326 . S
Dy572 O587 2.310 . S
Dy572 O588 2.351 . S
C573 O584 1.185 . S
C573 O585 1.355 . S
C574 O576 1.185 . S
C574 O577 1.355 . S
Dy575 O579 2.310 . S
Dy575 O582 2.351 . S
Dy575 O584 2.398 . S
Dy575 O585 2.491 . S
Dy575 O586 2.403 . S
Dy575 O587 2.664 . S
Dy575 O589 2.326 . S
O576 Dy572 2.398 . S
O576 C574 1.185 . S
O577 Dy572 2.491 . S
O577 C574 1.355 . S
O578 Dy572 2.403 . S
O578 C580 1.254 . S
O579 Dy572 2.664 . S
O579 Dy575 2.310 . S
O579 C580 1.268 . S
C580 O578 1.254 . S
C580 O579 1.268 . S
C581 O586 1.254 . S
C581 O587 1.268 . S
O582 Dy575 2.351 . S
O582 C590 1.249 . S
O583 Dy572 2.326 . S
O583 C590 1.267 . S
O584 C573 1.185 . S
O584 Dy575 2.398 . S
O585 C573 1.355 . S
O585 Dy575 2.491 . S
O586 Dy575 2.403 . S
O586 C581 1.254 . S
O587 Dy572 2.310 . S
O587 Dy575 2.664 . S
O587 C581 1.268 . S
O588 Dy572 2.351 . S
O588 C591 1.249 . S
O589 Dy575 2.326 . S
O589 C591 1.267 . S
C590 O582 1.249 . S
C590 O583 1.267 . S
C591 O588 1.249 . S
C591 O589 1.267 . S
Dy592 O596 2.398 . S
Dy592 O597 2.491 . S
Dy592 O598 2.403 . S
Dy592 O599 2.664 . S
Dy592 O603 2.326 . S
Dy592 O607 2.310 . S
Dy592 O608 2.351 . S
C593 O604 1.185 . S
C593 O605 1.355 . S
C594 O596 1.185 . S
C594 O597 1.355 . S
Dy595 O599 2.310 . S
Dy595 O602 2.351 . S
Dy595 O604 2.398 . S
Dy595 O605 2.491 . S
Dy595 O606 2.403 . S
Dy595 O607 2.664 . S
Dy595 O609 2.326 . S
O596 Dy592 2.398 . S
O596 C594 1.185 . S
O597 Dy592 2.491 . S
O597 C594 1.355 . S
O598 Dy592 2.403 . S
O598 C600 1.254 . S
O599 Dy592 2.664 . S
O599 Dy595 2.310 . S
O599 C600 1.268 . S
C600 O598 1.254 . S
C600 O599 1.268 . S
C601 O606 1.254 . S
C601 O607 1.268 . S
O602 Dy595 2.351 . S
O602 C610 1.249 . S
O603 Dy592 2.326 . S
O603 C610 1.267 . S
O604 C593 1.185 . S
O604 Dy595 2.398 . S
O605 C593 1.355 . S
O605 Dy595 2.491 . S
O606 Dy595 2.403 . S
O606 C601 1.254 . S
O607 Dy592 2.310 . S
O607 Dy595 2.664 . S
O607 C601 1.268 . S
O608 Dy592 2.351 . S
O608 C611 1.249 . S
O609 Dy595 2.326 . S
O609 C611 1.267 . S
C610 O602 1.249 . S
C610 O603 1.267 . S
C611 O608 1.249 . S
C611 O609 1.267 . S
Dy612 O616 2.398 1_554 S
Dy612 O617 2.491 . S
Dy612 O618 2.403 1_554 S
Dy612 O619 2.664 1_455 S
Dy612 O623 2.326 . S
Dy612 O627 2.310 . S
Dy612 O628 2.351 . S
C613 O624 1.185 . S
C613 O625 1.355 . S
C614 O616 1.185 1_554 S
C614 O617 1.355 . S
Dy615 O619 2.310 . S
Dy615 O622 2.351 . S
Dy615 O624 2.398 . S
Dy615 O625 2.491 . S
Dy615 O626 2.403 . S
Dy615 O627 2.664 1_655 S
Dy615 O629 2.326 . S
O616 Dy612 2.398 1_556 S
O616 C614 1.185 1_556 S
O617 Dy612 2.491 . S
O617 C614 1.355 . S
O618 Dy612 2.403 1_556 S
O618 C620 1.254 . S
O619 Dy612 2.664 1_655 S
O619 Dy615 2.310 . S
O619 C620 1.268 1_654 S
C620 O618 1.254 . S
C620 O619 1.268 1_456 S
C621 O626 1.254 1_455 S
C621 O627 1.268 . S
O622 Dy615 2.351 . S
O622 C630 1.249 1_655 S
O623 Dy612 2.326 . S
O623 C630 1.267 . S
O624 C613 1.185 . S
O624 Dy615 2.398 . S
O625 C613 1.355 . S
O625 Dy615 2.491 . S
O626 Dy615 2.403 . S
O626 C621 1.254 1_655 S
O627 Dy612 2.310 . S
O627 Dy615 2.664 1_455 S
O627 C621 1.268 . S
O628 Dy612 2.351 . S
O628 C631 1.249 . S
O629 Dy615 2.326 . S
O629 C631 1.267 1_655 S
C630 O622 1.249 1_455 S
C630 O623 1.267 . S
C631 O628 1.249 . S
C631 O629 1.267 1_455 S
C632 C633 1.404 . S
C632 C634 1.405 . S
C632 H648 0.908 1_455 S
C633 C632 1.404 . S
C633 C637 1.376 . S
C634 C632 1.405 . S
C634 C635 1.369 . S
C634 C638 1.531 1_455 S
C635 C634 1.369 . S
C635 C636 1.410 . S
C635 C643 1.503 . S
C636 C635 1.410 . S
C636 C637 1.392 . S
C636 C639 1.511 . S
C637 C633 1.376 . S
C637 C636 1.392 . S
C637 H649 0.929 . S
C638 C634 1.531 1_655 S
C638 H650 0.953 1_655 S
C638 H651 0.962 . S
C638 H652 0.960 . S
C639 C636 1.511 . S
C639 H653 0.961 . S
C639 H654 0.990 . S
C639 H655 0.961 . S
C640 C641 1.370 . S
C640 C642 1.363 1_554 S
C640 H656 0.931 . S
C641 C640 1.370 . S
C641 C645 1.408 1_554 S
C642 C640 1.363 1_556 S
C642 C643 1.370 . S
C642 C646 1.524 1_456 S
C643 C635 1.503 . S
C643 C642 1.370 . S
C643 C644 1.403 . S
C644 C643 1.403 . S
C644 C645 1.404 . S
C644 C647 1.539 . S
C645 C641 1.408 1_556 S
C645 C644 1.404 . S
C645 H657 0.930 . S
C646 C642 1.524 1_654 S
C646 H658 0.956 1_554 S
C646 H659 0.961 1_655 S
C646 H660 0.961 . S
C647 C644 1.539 . S
C647 H661 0.958 . S
C647 H662 0.961 . S
C647 H663 0.960 . S
H648 C632 0.908 1_655 S
H649 C637 0.929 . S
H650 C638 0.953 1_455 S
H651 C638 0.962 . S
H652 C638 0.960 . S
H653 C639 0.961 . S
H654 C639 0.990 . S
H655 C639 0.961 . S
H656 C640 0.931 . S
H657 C645 0.930 . S
H658 C646 0.956 1_556 S
H659 C646 0.961 1_455 S
H660 C646 0.961 . S
H661 C647 0.958 . S
H662 C647 0.961 . S
H663 C647 0.960 . S
C664 C665 1.391 . S
C664 C666 1.394 . S
C664 H680 0.931 . S
C665 C664 1.391 . S
C665 C669 1.376 . S
C666 C664 1.394 . S
C666 C667 1.369 . S
C666 C670 1.531 . S
C667 C666 1.369 . S
C667 C668 1.410 . S
C667 C675 1.503 . S
C668 C667 1.410 . S
C668 C669 1.392 . S
C668 C671 1.511 . S
C669 C665 1.376 . S
C669 C668 1.392 . S
C669 H681 0.929 . S
C670 C666 1.531 . S
C670 H682 0.960 . S
C670 H683 0.962 . S
C670 H684 0.960 . S
C671 C668 1.511 . S
C671 H685 0.961 . S
C671 H686 0.961 . S
C671 H687 0.961 . S
C672 C673 1.370 . S
C672 C674 1.363 . S
C672 H688 0.931 . S
C673 C672 1.370 . S
C673 C677 1.408 . S
C674 C672 1.363 . S
C674 C675 1.370 . S
C674 C678 1.524 . S
C675 C667 1.503 . S
C675 C674 1.370 . S
C675 C676 1.403 . S
C676 C675 1.403 . S
C676 C677 1.404 . S
C676 C679 1.539 . S
C677 C673 1.408 . S
C677 C676 1.404 . S
C677 H689 0.930 . S
C678 C674 1.524 . S
C678 H690 0.956 . S
C678 H691 0.961 . S
C678 H692 0.961 . S
C679 C676 1.539 . S
C679 H693 0.958 . S
C679 H694 0.961 . S
C679 H695 0.960 . S
H680 C664 0.931 . S
H681 C669 0.929 . S
H682 C670 0.960 . S
H683 C670 0.962 . S
H684 C670 0.960 . S
H685 C671 0.961 . S
H686 C671 0.961 . S
H687 C671 0.961 . S
H688 C672 0.931 . S
H689 C677 0.930 . S
H690 C678 0.956 . S
H691 C678 0.961 . S
H692 C678 0.961 . S
H693 C679 0.958 . S
H694 C679 0.961 . S
H695 C679 0.960 . S
C696 C697 1.391 . S
C696 C698 1.394 . S
C696 H712 0.931 . S
C697 C696 1.391 . S
C697 C701 1.376 . S
C698 C696 1.394 . S
C698 C699 1.369 . S
C698 C702 1.531 . S
C699 C698 1.369 . S
C699 C700 1.410 . S
C699 C707 1.503 . S
C700 C699 1.410 . S
C700 C701 1.392 . S
C700 C703 1.511 . S
C701 C697 1.376 . S
C701 C700 1.392 . S
C701 H713 0.929 . S
C702 C698 1.531 . S
C702 H714 0.960 . S
C702 H715 0.962 . S
C702 H716 0.960 . S
C703 C700 1.511 . S
C703 H717 0.961 . S
C703 H718 0.961 . S
C703 H719 0.961 . S
C704 C705 1.370 . S
C704 C706 1.363 . S
C704 H720 0.931 . S
C705 C704 1.370 . S
C705 C709 1.408 . S
C706 C704 1.363 . S
C706 C707 1.370 . S
C706 C710 1.524 . S
C707 C699 1.503 . S
C707 C706 1.370 . S
C707 C708 1.403 . S
C708 C707 1.403 . S
C708 C709 1.404 . S
C708 C711 1.539 . S
C709 C705 1.408 . S
C709 C708 1.404 . S
C709 H721 0.930 . S
C710 C706 1.524 . S
C710 H722 0.956 . S
C710 H723 0.961 . S
C710 H724 0.961 . S
C711 C708 1.539 . S
C711 H725 0.958 . S
C711 H726 0.961 . S
C711 H727 0.960 . S
H712 C696 0.931 . S
H713 C701 0.929 . S
H714 C702 0.960 . S
H715 C702 0.962 . S
H716 C702 0.960 . S
H717 C703 0.961 . S
H718 C703 0.961 . S
H719 C703 0.961 . S
H720 C704 0.931 . S
H721 C709 0.930 . S
H722 C710 0.956 . S
H723 C710 0.961 . S
H724 C710 0.961 . S
H725 C711 0.958 . S
H726 C711 0.961 . S
H727 C711 0.960 . S
C728 C729 1.391 . S
C728 C730 1.394 . S
C728 H744 0.931 . S
C729 C728 1.391 . S
C729 C733 1.376 . S
C730 C728 1.394 . S
C730 C731 1.369 . S
C730 C734 1.531 . S
C731 C730 1.369 . S
C731 C732 1.410 . S
C731 C739 1.503 . S
C732 C731 1.410 . S
C732 C733 1.392 . S
C732 C735 1.511 . S
C733 C729 1.376 . S
C733 C732 1.392 . S
C733 H745 0.929 . S
C734 C730 1.531 . S
C734 H746 0.960 . S
C734 H747 0.962 . S
C734 H748 0.960 . S
C735 C732 1.511 . S
C735 H749 0.961 . S
C735 H750 0.961 . S
C735 H751 0.961 . S
C736 C737 1.370 . S
C736 C738 1.363 . S
C736 H752 0.931 . S
C737 C736 1.370 . S
C737 C741 1.408 . S
C738 C736 1.363 . S
C738 C739 1.370 . S
C738 C742 1.524 . S
C739 C731 1.503 . S
C739 C738 1.370 . S
C739 C740 1.403 . S
C740 C739 1.403 . S
C740 C741 1.404 . S
C740 C743 1.539 . S
C741 C737 1.408 . S
C741 C740 1.404 . S
C741 H753 0.930 . S
C742 C738 1.524 . S
C742 H754 0.956 . S
C742 H755 0.961 . S
C742 H756 0.961 . S
C743 C740 1.539 . S
C743 H757 0.958 . S
C743 H758 0.961 . S
C743 H759 0.960 . S
H744 C728 0.931 . S
H745 C733 0.929 . S
H746 C734 0.960 . S
H747 C734 0.962 . S
H748 C734 0.960 . S
H749 C735 0.961 . S
H750 C735 0.961 . S
H751 C735 0.961 . S
H752 C736 0.931 . S
H753 C741 0.930 . S
H754 C742 0.956 . S
H755 C742 0.961 . S
H756 C742 0.961 . S
H757 C743 0.958 . S
H758 C743 0.961 . S
H759 C743 0.960 . S
C760 C761 1.391 . S
C760 C762 1.394 . S
C760 H776 0.931 . S
C761 C760 1.391 . S
C761 C765 1.376 . S
C762 C760 1.394 . S
C762 C763 1.369 . S
C762 C766 1.531 . S
C763 C762 1.369 . S
C763 C764 1.410 . S
C763 C771 1.503 . S
C764 C763 1.410 . S
C764 C765 1.392 . S
C764 C767 1.511 1_455 S
C765 C761 1.376 . S
C765 C764 1.392 . S
C765 H777 0.929 1_455 S
C766 C762 1.531 . S
C766 H778 0.960 . S
C766 H779 0.962 . S
C766 H780 0.960 . S
C767 C764 1.511 1_655 S
C767 H781 0.961 . S
C767 H782 0.961 . S
C767 H783 0.961 . S
C768 C769 1.370 . S
C768 C770 1.363 . S
C768 H784 0.931 . S
C769 C768 1.370 . S
C769 C773 1.408 . S
C770 C768 1.363 . S
C770 C771 1.370 . S
C770 C774 1.524 . S
C771 C763 1.503 . S
C771 C770 1.370 . S
C771 C772 1.403 . S
C772 C771 1.403 . S
C772 C773 1.404 . S
C772 C775 1.539 . S
C773 C769 1.408 . S
C773 C772 1.404 . S
C773 H785 0.930 . S
C774 C770 1.524 . S
C774 H786 0.956 . S
C774 H787 0.961 . S
C774 H788 0.961 . S
C775 C772 1.539 . S
C775 H789 0.958 . S
C775 H790 0.961 . S
C775 H791 0.960 . S
H776 C760 0.931 . S
H777 C765 0.929 1_655 S
H778 C766 0.960 . S
H779 C766 0.962 . S
H780 C766 0.960 . S
H781 C767 0.961 . S
H782 C767 0.961 . S
H783 C767 0.961 . S
H784 C768 0.931 . S
H785 C773 0.930 . S
H786 C774 0.956 . S
H787 C774 0.961 . S
H788 C774 0.961 . S
H789 C775 0.958 . S
H790 C775 0.961 . S
H791 C775 0.960 . S
C792 C793 1.391 . S
C792 C794 1.394 . S
C792 H808 0.931 . S
C793 C792 1.391 . S
C793 C797 1.376 . S
C794 C792 1.394 . S
C794 C795 1.369 . S
C794 C798 1.531 . S
C795 C794 1.369 . S
C795 C796 1.410 . S
C795 C803 1.503 . S
C796 C795 1.410 . S
C796 C797 1.392 . S
C796 C799 1.511 . S
C797 C793 1.376 . S
C797 C796 1.392 . S
C797 H809 0.929 . S
C798 C794 1.531 . S
C798 H810 0.960 . S
C798 H811 0.962 . S
C798 H812 0.960 . S
C799 C796 1.511 . S
C799 H813 0.961 . S
C799 H814 0.961 . S
C799 H815 0.961 . S
C800 C801 1.370 . S
C800 C802 1.363 . S
C800 H816 0.931 . S
C801 C800 1.370 . S
C801 C805 1.408 . S
C802 C800 1.363 . S
C802 C803 1.370 . S
C802 C806 1.524 . S
C803 C795 1.503 . S
C803 C802 1.370 . S
C803 C804 1.403 . S
C804 C803 1.403 . S
C804 C805 1.404 . S
C804 C807 1.539 . S
C805 C801 1.408 . S
C805 C804 1.404 . S
C805 H817 0.930 . S
C806 C802 1.524 . S
C806 H818 0.956 . S
C806 H819 0.961 . S
C806 H820 0.961 . S
C807 C804 1.539 . S
C807 H821 0.958 . S
C807 H822 0.961 . S
C807 H823 0.960 . S
H808 C792 0.931 . S
H809 C797 0.929 . S
H810 C798 0.960 . S
H811 C798 0.962 . S
H812 C798 0.960 . S
H813 C799 0.961 . S
H814 C799 0.961 . S
H815 C799 0.961 . S
H816 C800 0.931 . S
H817 C805 0.930 . S
H818 C806 0.956 . S
H819 C806 0.961 . S
H820 C806 0.961 . S
H821 C807 0.958 . S
H822 C807 0.961 . S
H823 C807 0.960 . S
C824 C825 1.391 . S
C824 C826 1.394 . S
C824 H840 0.931 . S
C825 C824 1.391 . S
C825 C829 1.376 . S
C826 C824 1.394 . S
C826 C827 1.369 . S
C826 C830 1.531 . S
C827 C826 1.369 . S
C827 C828 1.410 . S
C827 C835 1.503 . S
C828 C827 1.410 . S
C828 C829 1.392 . S
C828 C831 1.511 . S
C829 C825 1.376 . S
C829 C828 1.392 . S
C829 H841 0.929 . S
C830 C826 1.531 . S
C830 H842 0.960 . S
C830 H843 0.962 . S
C830 H844 0.960 . S
C831 C828 1.511 . S
C831 H845 0.961 . S
C831 H846 0.961 . S
C831 H847 0.961 . S
C832 C833 1.370 . S
C832 C834 1.363 . S
C832 H848 0.931 . S
C833 C832 1.370 . S
C833 C837 1.408 . S
C834 C832 1.363 . S
C834 C835 1.370 . S
C834 C838 1.524 . S
C835 C827 1.503 . S
C835 C834 1.370 . S
C835 C836 1.403 . S
C836 C835 1.403 . S
C836 C837 1.404 . S
C836 C839 1.539 . S
C837 C833 1.408 . S
C837 C836 1.404 . S
C837 H849 0.930 . S
C838 C834 1.524 . S
C838 H850 0.956 . S
C838 H851 0.961 . S
C838 H852 0.961 . S
C839 C836 1.539 . S
C839 H853 0.958 . S
C839 H854 0.961 . S
C839 H855 0.960 . S
H840 C824 0.931 . S
H841 C829 0.929 . S
H842 C830 0.960 . S
H843 C830 0.962 . S
H844 C830 0.960 . S
H845 C831 0.961 . S
H846 C831 0.961 . S
H847 C831 0.961 . S
H848 C832 0.931 . S
H849 C837 0.930 . S
H850 C838 0.956 . S
H851 C838 0.961 . S
H852 C838 0.961 . S
H853 C839 0.958 . S
H854 C839 0.961 . S
H855 C839 0.960 . S
C856 C857 1.391 . S
C856 C858 1.394 . S
C856 H872 0.931 . S
C857 C856 1.391 . S
C857 C861 1.376 . S
C858 C856 1.394 . S
C858 C859 1.369 . S
C858 C862 1.531 . S
C859 C858 1.369 . S
C859 C860 1.410 . S
C859 C867 1.503 . S
C860 C859 1.410 . S
C860 C861 1.392 . S
C860 C863 1.511 . S
C861 C857 1.376 . S
C861 C860 1.392 . S
C861 H873 0.929 . S
C862 C858 1.531 . S
C862 H874 0.960 . S
C862 H875 0.962 . S
C862 H876 0.960 . S
C863 C860 1.511 . S
C863 H877 0.961 . S
C863 H878 0.961 . S
C863 H879 0.961 . S
C864 C865 1.370 . S
C864 C866 1.363 . S
C864 H880 0.931 . S
C865 C864 1.370 . S
C865 C869 1.408 . S
C866 C864 1.363 . S
C866 C867 1.370 . S
C866 C870 1.524 . S
C867 C859 1.503 . S
C867 C866 1.370 . S
C867 C868 1.403 . S
C868 C867 1.403 . S
C868 C869 1.404 . S
C868 C871 1.539 . S
C869 C865 1.408 . S
C869 C868 1.404 . S
C869 H881 0.930 . S
C870 C866 1.524 . S
C870 H882 0.956 . S
C870 H883 0.961 . S
C870 H884 0.961 . S
C871 C868 1.539 . S
C871 H885 0.958 . S
C871 H886 0.961 . S
C871 H887 0.960 . S
H872 C856 0.931 . S
H873 C861 0.929 . S
H874 C862 0.960 . S
H875 C862 0.962 . S
H876 C862 0.960 . S
H877 C863 0.961 . S
H878 C863 0.961 . S
H879 C863 0.961 . S
H880 C864 0.931 . S
H881 C869 0.930 . S
H882 C870 0.956 . S
H883 C870 0.961 . S
H884 C870 0.961 . S
H885 C871 0.958 . S
H886 C871 0.961 . S
H887 C871 0.960 . S
C888 C889 1.391 . S
C888 C890 1.394 . S
C888 H904 0.931 . S
C889 C888 1.391 . S
C889 C893 1.376 . S
C890 C888 1.394 . S
C890 C891 1.369 . S
C890 C894 1.531 . S
C891 C890 1.369 . S
C891 C892 1.410 . S
C891 C899 1.503 . S
C892 C891 1.410 . S
C892 C893 1.392 . S
C892 C895 1.511 . S
C893 C889 1.376 . S
C893 C892 1.392 . S
C893 H905 0.929 . S
C894 C890 1.531 . S
C894 H906 0.960 . S
C894 H907 0.962 . S
C894 H908 0.960 . S
C895 C892 1.511 . S
C895 H909 0.961 1_655 S
C895 H910 0.961 1_655 S
C895 H911 0.961 . S
C896 C897 1.370 . S
C896 C898 1.363 1_455 S
C896 H912 0.931 . S
C897 C896 1.370 . S
C897 C901 1.408 1_455 S
C898 C896 1.363 1_655 S
C898 C899 1.370 . S
C898 C902 1.524 . S
C899 C891 1.503 . S
C899 C898 1.370 . S
C899 C900 1.403 . S
C900 C899 1.403 . S
C900 C901 1.404 . S
C900 C903 1.539 . S
C901 C897 1.408 1_655 S
C901 C900 1.404 . S
C901 H913 0.930 1_655 S
C902 C898 1.524 . S
C902 H914 0.956 . S
C902 H915 0.961 . S
C902 H916 0.961 . S
C903 C900 1.539 . S
C903 H917 0.958 . S
C903 H918 0.961 . S
C903 H919 0.960 . S
H904 C888 0.931 . S
H905 C893 0.929 . S
H906 C894 0.960 . S
H907 C894 0.962 . S
H908 C894 0.960 . S
H909 C895 0.961 1_455 S
H910 C895 0.961 1_455 S
H911 C895 0.961 . S
H912 C896 0.931 . S
H913 C901 0.930 1_455 S
H914 C902 0.956 . S
H915 C902 0.961 . S
H916 C902 0.961 . S
H917 C903 0.958 . S
H918 C903 0.961 . S
H919 C903 0.960 . S
C920 C921 1.391 . S
C920 C922 1.394 . S
C920 H936 0.931 . S
C921 C920 1.391 . S
C921 C925 1.376 . S
C922 C920 1.394 . S
C922 C923 1.369 . S
C922 C926 1.531 . S
C923 C922 1.369 . S
C923 C924 1.410 . S
C923 C931 1.503 . S
C924 C923 1.410 . S
C924 C925 1.392 . S
C924 C927 1.511 . S
C925 C921 1.376 . S
C925 C924 1.392 . S
C925 H937 0.929 . S
C926 C922 1.531 . S
C926 H938 0.960 . S
C926 H939 0.962 . S
C926 H940 0.960 . S
C927 C924 1.511 . S
C927 H941 0.961 . S
C927 H942 0.961 . S
C927 H943 0.961 . S
C928 C929 1.370 . S
C928 C930 1.363 . S
C928 H944 0.931 . S
C929 C928 1.370 . S
C929 C933 1.408 . S
C930 C928 1.363 . S
C930 C931 1.370 . S
C930 C934 1.524 . S
C931 C923 1.503 . S
C931 C930 1.370 . S
C931 C932 1.403 . S
C932 C931 1.403 . S
C932 C933 1.404 . S
C932 C935 1.539 . S
C933 C929 1.408 . S
C933 C932 1.404 . S
C933 H945 0.930 . S
C934 C930 1.524 . S
C934 H946 0.956 . S
C934 H947 0.961 . S
C934 H948 0.961 . S
C935 C932 1.539 . S
C935 H949 0.958 . S
C935 H950 0.961 . S
C935 H951 0.960 . S
H936 C920 0.931 . S
H937 C925 0.929 . S
H938 C926 0.960 . S
H939 C926 0.962 . S
H940 C926 0.960 . S
H941 C927 0.961 . S
H942 C927 0.961 . S
H943 C927 0.961 . S
H944 C928 0.931 . S
H945 C933 0.930 . S
H946 C934 0.956 . S
H947 C934 0.961 . S
H948 C934 0.961 . S
H949 C935 0.958 . S
H950 C935 0.961 . S
H951 C935 0.960 . S
C952 C953 1.391 . S
C952 C954 1.394 . S
C952 H968 0.931 . S
C953 C952 1.391 . S
C953 C957 1.376 . S
C954 C952 1.394 . S
C954 C955 1.369 . S
C954 C958 1.531 . S
C955 C954 1.369 . S
C955 C956 1.410 . S
C955 C963 1.503 . S
C956 C955 1.410 . S
C956 C957 1.392 . S
C956 C959 1.511 . S
C957 C953 1.376 . S
C957 C956 1.392 . S
C957 H969 0.929 . S
C958 C954 1.531 . S
C958 H970 0.960 . S
C958 H971 0.962 . S
C958 H972 0.960 . S
C959 C956 1.511 . S
C959 H973 0.961 1_545 S
C959 H974 0.961 1_545 S
C959 H975 0.961 . S
C960 C961 1.370 1_565 S
C960 C962 1.363 . S
C960 H976 0.931 . S
C961 C960 1.370 1_545 S
C961 C965 1.408 . S
C962 C960 1.363 . S
C962 C963 1.370 1_565 S
C962 C966 1.524 . S
C963 C955 1.503 . S
C963 C962 1.370 1_545 S
C963 C964 1.403 . S
C964 C963 1.403 . S
C964 C965 1.404 . S
C964 C967 1.539 . S
C965 C961 1.408 . S
C965 C964 1.404 . S
C965 H977 0.930 . S
C966 C962 1.524 . S
C966 H978 0.956 . S
C966 H979 0.961 . S
C966 H980 0.961 . S
C967 C964 1.539 . S
C967 H981 0.958 . S
C967 H982 0.961 . S
C967 H983 0.960 . S
H968 C952 0.931 . S
H969 C957 0.929 . S
H970 C958 0.960 . S
H971 C958 0.962 . S
H972 C958 0.960 . S
H973 C959 0.961 1_565 S
H974 C959 0.961 1_565 S
H975 C959 0.961 . S
H976 C960 0.931 . S
H977 C965 0.930 . S
H978 C966 0.956 . S
H979 C966 0.961 . S
H980 C966 0.961 . S
H981 C967 0.958 . S
H982 C967 0.961 . S
H983 C967 0.960 . S
C984 C985 1.391 . S
C984 C986 1.394 . S
C984 H1000 0.931 . S
C985 C984 1.391 . S
C985 C989 1.376 . S
C986 C984 1.394 . S
C986 C987 1.369 . S
C986 C990 1.531 . S
C987 C986 1.369 . S
C987 C988 1.410 . S
C987 C995 1.503 . S
C988 C987 1.410 . S
C988 C989 1.392 . S
C988 C991 1.511 . S
C989 C985 1.376 . S
C989 C988 1.392 . S
C989 H1001 0.929 . S
C990 C986 1.531 . S
C990 H1002 0.960 . S
C990 H1003 0.962 . S
C990 H1004 0.960 . S
C991 C988 1.511 . S
C991 H1005 0.961 . S
C991 H1006 0.961 . S
C991 H1007 0.961 . S
C992 C993 1.370 . S
C992 C994 1.363 . S
C992 H1008 0.931 . S
C993 C992 1.370 . S
C993 C997 1.408 . S
C994 C992 1.363 . S
C994 C995 1.370 . S
C994 C998 1.524 . S
C995 C987 1.503 . S
C995 C994 1.370 . S
C995 C996 1.403 . S
C996 C995 1.403 . S
C996 C997 1.404 . S
C996 C999 1.539 . S
C997 C993 1.408 . S
C997 C996 1.404 . S
C997 H1009 0.930 . S
C998 C994 1.524 . S
C998 H1010 0.956 . S
C998 H1011 0.961 . S
C998 H1012 0.961 . S
C999 C996 1.539 . S
C999 H1013 0.958 . S
C999 H1014 0.961 . S
C999 H1015 0.960 . S
H1000 C984 0.931 . S
H1001 C989 0.929 . S
H1002 C990 0.960 . S
H1003 C990 0.962 . S
H1004 C990 0.960 . S
H1005 C991 0.961 . S
H1006 C991 0.961 . S
H1007 C991 0.961 . S
H1008 C992 0.931 . S
H1009 C997 0.930 . S
H1010 C998 0.956 . S
H1011 C998 0.961 . S
H1012 C998 0.961 . S
H1013 C999 0.958 . S
H1014 C999 0.961 . S
H1015 C999 0.960 . S
C1016 C1017 1.391 . S
C1016 C1018 1.394 . S
C1016 H1032 0.931 . S
C1017 C1016 1.391 . S
C1017 C1021 1.376 . S
C1018 C1016 1.394 . S
C1018 C1019 1.369 . S
C1018 C1022 1.531 . S
C1019 C1018 1.369 . S
C1019 C1020 1.410 . S
C1019 C1027 1.503 . S
C1020 C1019 1.410 . S
C1020 C1021 1.392 . S
C1020 C1023 1.511 . S
C1021 C1017 1.376 . S
C1021 C1020 1.392 . S
C1021 H1033 0.929 . S
C1022 C1018 1.531 . S
C1022 H1034 0.960 . S
C1022 H1035 0.962 1_655 S
C1022 H1036 0.960 . S
C1023 C1020 1.511 . S
C1023 H1037 0.961 1_545 S
C1023 H1038 0.961 1_545 S
C1023 H1039 0.961 . S
C1024 C1025 1.370 1_655 S
C1024 C1026 1.378 . S
C1024 H1040 0.916 1_645 S
C1025 C1024 1.370 1_455 S
C1025 C1029 1.408 1_455 S
C1026 C1024 1.378 . S
C1026 C1027 1.370 . S
C1026 C1030 1.524 1_545 S
C1027 C1019 1.503 . S
C1027 C1026 1.370 . S
C1027 C1028 1.403 . S
C1028 C1027 1.403 . S
C1028 C1029 1.404 . S
C1028 C1031 1.539 . S
C1029 C1025 1.408 1_655 S
C1029 C1028 1.404 . S
C1029 H1041 0.930 . S
C1030 C1026 1.524 1_565 S
C1030 H1042 0.956 1_565 S
C1030 H1043 0.961 . S
C1030 H1044 0.961 . S
C1031 C1028 1.539 . S
C1031 H1045 0.958 . S
C1031 H1046 0.961 . S
C1031 H1047 0.960 . S
H1032 C1016 0.931 . S
H1033 C1021 0.929 . S
H1034 C1022 0.960 . S
H1035 C1022 0.962 1_455 S
H1036 C1022 0.960 . S
H1037 C1023 0.961 1_565 S
H1038 C1023 0.961 1_565 S
H1039 C1023 0.961 . S
H1040 C1024 0.916 1_465 S
H1041 C1029 0.930 . S
H1042 C1030 0.956 1_545 S
H1043 C1030 0.961 . S
H1044 C1030 0.961 . S
H1045 C1031 0.958 . S
H1046 C1031 0.961 . S
H1047 C1031 0.960 . S
C1048 C1049 1.391 . S
C1048 C1050 1.394 . S
C1048 H1064 0.931 . S
C1049 C1048 1.391 . S
C1049 C1053 1.376 . S
C1050 C1048 1.394 . S
C1050 C1051 1.369 . S
C1050 C1054 1.531 . S
C1051 C1050 1.369 . S
C1051 C1052 1.410 . S
C1051 C1059 1.503 . S
C1052 C1051 1.410 . S
C1052 C1053 1.392 . S
C1052 C1055 1.511 . S
C1053 C1049 1.376 . S
C1053 C1052 1.392 . S
C1053 H1065 0.929 . S
C1054 C1050 1.531 . S
C1054 H1066 0.960 . S
C1054 H1067 0.962 . S
C1054 H1068 0.960 . S
C1055 C1052 1.511 . S
C1055 H1069 0.961 . S
C1055 H1070 0.961 . S
C1055 H1071 0.961 . S
C1056 C1057 1.370 . S
C1056 C1058 1.363 . S
C1056 H1072 0.931 . S
C1057 C1056 1.370 . S
C1057 C1061 1.408 . S
C1058 C1056 1.363 . S
C1058 C1059 1.370 . S
C1058 C1062 1.524 . S
C1059 C1051 1.503 . S
C1059 C1058 1.370 . S
C1059 C1060 1.403 . S
C1060 C1059 1.403 . S
C1060 C1061 1.404 . S
C1060 C1063 1.539 . S
C1061 C1057 1.408 . S
C1061 C1060 1.404 . S
C1061 H1073 0.930 . S
C1062 C1058 1.524 . S
C1062 H1074 0.956 . S
C1062 H1075 0.961 . S
C1062 H1076 0.961 . S
C1063 C1060 1.539 . S
C1063 H1077 0.958 . S
C1063 H1078 0.961 . S
C1063 H1079 0.960 . S
H1064 C1048 0.931 . S
H1065 C1053 0.929 . S
H1066 C1054 0.960 . S
H1067 C1054 0.962 . S
H1068 C1054 0.960 . S
H1069 C1055 0.961 . S
H1070 C1055 0.961 . S
H1071 C1055 0.961 . S
H1072 C1056 0.931 . S
H1073 C1061 0.930 . S
H1074 C1062 0.956 . S
H1075 C1062 0.961 . S
H1076 C1062 0.961 . S
H1077 C1063 0.958 . S
H1078 C1063 0.961 . S
H1079 C1063 0.960 . S
C1080 C1081 1.391 . S
C1080 C1082 1.394 . S
C1080 H1096 0.931 1_545 S
C1081 C1080 1.391 . S
C1081 C1085 1.376 . S
C1082 C1080 1.394 . S
C1082 C1083 1.369 . S
C1082 C1086 1.531 1_545 S
C1083 C1082 1.369 . S
C1083 C1084 1.410 . S
C1083 C1091 1.503 . S
C1084 C1083 1.410 . S
C1084 C1085 1.392 . S
C1084 C1087 1.511 . S
C1085 C1081 1.376 . S
C1085 C1084 1.392 . S
C1085 H1097 0.929 . S
C1086 C1082 1.531 1_565 S
C1086 H1098 0.960 . S
C1086 H1099 0.962 . S
C1086 H1100 0.960 . S
C1087 C1084 1.511 . S
C1087 H1101 0.961 . S
C1087 H1102 0.961 . S
C1087 H1103 0.961 . S
C1088 C1089 1.370 . S
C1088 C1090 1.363 . S
C1088 H1104 0.931 . S
C1089 C1088 1.370 . S
C1089 C1093 1.408 . S
C1090 C1088 1.363 . S
C1090 C1091 1.370 . S
C1090 C1094 1.524 . S
C1091 C1083 1.503 . S
C1091 C1090 1.370 . S
C1091 C1092 1.403 . S
C1092 C1091 1.403 . S
C1092 C1093 1.404 . S
C1092 C1095 1.539 . S
C1093 C1089 1.408 . S
C1093 C1092 1.404 . S
C1093 H1105 0.930 . S
C1094 C1090 1.524 . S
C1094 H1106 0.956 . S
C1094 H1107 0.961 . S
C1094 H1108 0.961 . S
C1095 C1092 1.539 . S
C1095 H1109 0.958 . S
C1095 H1110 0.961 . S
C1095 H1111 0.960 . S
H1096 C1080 0.931 1_565 S
H1097 C1085 0.929 . S
H1098 C1086 0.960 . S
H1099 C1086 0.962 . S
H1100 C1086 0.960 . S
H1101 C1087 0.961 . S
H1102 C1087 0.961 . S
H1103 C1087 0.961 . S
H1104 C1088 0.931 . S
H1105 C1093 0.930 . S
H1106 C1094 0.956 . S
H1107 C1094 0.961 . S
H1108 C1094 0.961 . S
H1109 C1095 0.958 . S
H1110 C1095 0.961 . S
H1111 C1095 0.960 . S
C1112 C1113 1.391 . S
C1112 C1114 1.394 . S
C1112 H1128 0.931 . S
C1113 C1112 1.391 . S
C1113 C1117 1.376 . S
C1114 C1112 1.394 . S
C1114 C1115 1.369 . S
C1114 C1118 1.531 . S
C1115 C1114 1.369 . S
C1115 C1116 1.410 . S
C1115 C1123 1.503 . S
C1116 C1115 1.410 . S
C1116 C1117 1.392 . S
C1116 C1119 1.511 . S
C1117 C1113 1.376 . S
C1117 C1116 1.392 . S
C1117 H1129 0.929 . S
C1118 C1114 1.531 . S
C1118 H1130 0.960 . S
C1118 H1131 0.962 . S
C1118 H1132 0.960 . S
C1119 C1116 1.511 . S
C1119 H1133 0.961 . S
C1119 H1134 0.961 . S
C1119 H1135 0.961 . S
C1120 C1121 1.370 . S
C1120 C1122 1.363 . S
C1120 H1136 0.931 . S
C1121 C1120 1.370 . S
C1121 C1125 1.408 . S
C1122 C1120 1.363 . S
C1122 C1123 1.370 . S
C1122 C1126 1.524 . S
C1123 C1115 1.503 . S
C1123 C1122 1.370 . S
C1123 C1124 1.403 . S
C1124 C1123 1.403 . S
C1124 C1125 1.404 . S
C1124 C1127 1.539 . S
C1125 C1121 1.408 . S
C1125 C1124 1.404 . S
C1125 H1137 0.930 . S
C1126 C1122 1.524 . S
C1126 H1138 0.956 . S
C1126 H1139 0.961 . S
C1126 H1140 0.961 . S
C1127 C1124 1.539 . S
C1127 H1141 0.958 . S
C1127 H1142 0.961 . S
C1127 H1143 0.960 . S
H1128 C1112 0.931 . S
H1129 C1117 0.929 . S
H1130 C1118 0.960 . S
H1131 C1118 0.962 . S
H1132 C1118 0.960 . S
H1133 C1119 0.961 . S
H1134 C1119 0.961 . S
H1135 C1119 0.961 . S
H1136 C1120 0.931 . S
H1137 C1125 0.930 . S
H1138 C1126 0.956 . S
H1139 C1126 0.961 . S
H1140 C1126 0.961 . S
H1141 C1127 0.958 . S
H1142 C1127 0.961 . S
H1143 C1127 0.960 . S
C1144 C1145 1.391 . S
C1144 C1146 1.394 . S
C1144 H1160 0.931 . S
C1145 C1144 1.391 . S
C1145 C1149 1.376 . S
C1146 C1144 1.394 . S
C1146 C1147 1.369 . S
C1146 C1150 1.531 . S
C1147 C1146 1.369 . S
C1147 C1148 1.410 . S
C1147 C1155 1.503 . S
C1148 C1147 1.410 . S
C1148 C1149 1.392 . S
C1148 C1151 1.511 . S
C1149 C1145 1.376 . S
C1149 C1148 1.392 . S
C1149 H1161 0.929 . S
C1150 C1146 1.531 . S
C1150 H1162 0.960 1_565 S
C1150 H1163 0.962 . S
C1150 H1164 0.966 . S
C1151 C1148 1.511 . S
C1151 H1165 0.961 1_554 S
C1151 H1166 0.961 . S
C1151 H1167 0.961 1_554 S
C1152 C1153 1.370 1_565 S
C1152 C1154 1.363 . S
C1152 H1168 0.931 . S
C1153 C1152 1.370 1_545 S
C1153 C1157 1.408 . S
C1154 C1152 1.363 . S
C1154 C1155 1.370 . S
C1154 C1158 1.524 . S
C1155 C1147 1.503 . S
C1155 C1154 1.370 . S
C1155 C1156 1.401 . S
C1156 C1155 1.401 . S
C1156 C1157 1.405 1_565 S
C1156 C1159 1.540 1_565 S
C1157 C1153 1.408 . S
C1157 C1156 1.405 1_545 S
C1157 H1169 0.930 . S
C1158 C1154 1.524 . S
C1158 H1170 0.956 . S
C1158 H1171 0.961 . S
C1158 H1172 0.961 . S
C1159 C1156 1.540 1_545 S
C1159 H1173 0.958 . S
C1159 H1174 0.961 1_554 S
C1159 H1175 0.960 1_545 S
H1160 C1144 0.931 . S
H1161 C1149 0.929 . S
H1162 C1150 0.960 1_545 S
H1163 C1150 0.962 . S
H1164 C1150 0.966 . S
H1165 C1151 0.961 1_556 S
H1166 C1151 0.961 . S
H1167 C1151 0.961 1_556 S
H1168 C1152 0.931 . S
H1169 C1157 0.930 . S
H1170 C1158 0.956 . S
H1171 C1158 0.961 . S
H1172 C1158 0.961 . S
H1173 C1159 0.958 . S
H1174 C1159 0.961 1_556 S
H1175 C1159 0.960 1_565 S
C1176 C1177 1.391 1_556 S
C1176 C1178 1.394 . S
C1176 H1192 0.931 . S
C1177 C1176 1.391 1_554 S
C1177 C1181 1.376 . S
C1178 C1176 1.394 . S
C1178 C1179 1.373 . S
C1178 C1182 1.531 . S
C1179 C1178 1.373 . S
C1179 C1180 1.406 1_556 S
C1179 C1187 1.504 . S
C1180 C1179 1.406 1_554 S
C1180 C1181 1.392 . S
C1180 C1183 1.511 . S
C1181 C1177 1.376 . S
C1181 C1180 1.392 . S
C1181 H1193 0.929 . S
C1182 C1178 1.531 . S
C1182 H1194 0.960 . S
C1182 H1195 0.962 . S
C1182 H1196 0.960 . S
C1183 C1180 1.511 . S
C1183 H1197 0.961 . S
C1183 H1198 0.961 . S
C1183 H1199 0.961 . S
C1184 C1185 1.368 1_554 S
C1184 C1186 1.363 . S
C1184 H1200 0.931 . S
C1185 C1184 1.368 1_556 S
C1185 C1189 1.413 . S
C1186 C1184 1.363 . S
C1186 C1187 1.368 1_554 S
C1186 C1190 1.524 . S
C1187 C1179 1.504 . S
C1187 C1186 1.368 1_556 S
C1187 C1188 1.404 . S
C1188 C1187 1.404 . S
C1188 C1189 1.404 . S
C1188 C1191 1.539 . S
C1189 C1185 1.413 . S
C1189 C1188 1.404 . S
C1189 H1201 0.930 . S
C1190 C1186 1.524 . S
C1190 H1202 0.921 1_554 S
C1190 H1203 0.961 . S
C1190 H1204 0.961 . S
C1191 C1188 1.539 . S
C1191 H1205 0.958 . S
C1191 H1206 0.961 . S
C1191 H1207 0.960 . S
H1192 C1176 0.931 . S
H1193 C1181 0.929 . S
H1194 C1182 0.960 . S
H1195 C1182 0.962 . S
H1196 C1182 0.960 . S
H1197 C1183 0.961 . S
H1198 C1183 0.961 . S
H1199 C1183 0.961 . S
H1200 C1184 0.931 . S
H1201 C1189 0.930 . S
H1202 C1190 0.921 1_556 S
H1203 C1190 0.961 . S
H1204 C1190 0.961 . S
H1205 C1191 0.958 . S
H1206 C1191 0.961 . S
H1207 C1191 0.960 . S
C1208 C1209 1.391 . S
C1208 C1210 1.394 . S
C1208 H1224 0.931 . S
C1209 C1208 1.391 . S
C1209 C1213 1.376 . S
C1210 C1208 1.394 . S
C1210 C1211 1.369 . S
C1210 C1214 1.531 . S
C1211 C1210 1.369 . S
C1211 C1212 1.410 . S
C1211 C1219 1.503 . S
C1212 C1211 1.410 . S
C1212 C1213 1.392 . S
C1212 C1215 1.511 . S
C1213 C1209 1.376 . S
C1213 C1212 1.392 . S
C1213 H1225 0.929 . S
C1214 C1210 1.531 . S
C1214 H1226 0.960 . S
C1214 H1227 0.962 . S
C1214 H1228 0.960 . S
C1215 C1212 1.511 . S
C1215 H1229 0.961 . S
C1215 H1230 0.961 . S
C1215 H1231 0.961 . S
C1216 C1217 1.370 . S
C1216 C1218 1.363 . S
C1216 H1232 0.931 . S
C1217 C1216 1.370 . S
C1217 C1221 1.408 . S
C1218 C1216 1.363 . S
C1218 C1219 1.370 . S
C1218 C1222 1.524 . S
C1219 C1211 1.503 . S
C1219 C1218 1.370 . S
C1219 C1220 1.403 . S
C1220 C1219 1.403 . S
C1220 C1221 1.404 . S
C1220 C1223 1.539 . S
C1221 C1217 1.408 . S
C1221 C1220 1.404 . S
C1221 H1233 0.930 . S
C1222 C1218 1.524 . S
C1222 H1234 0.956 . S
C1222 H1235 0.961 . S
C1222 H1236 0.961 . S
C1223 C1220 1.539 . S
C1223 H1237 0.958 . S
C1223 H1238 0.961 . S
C1223 H1239 0.960 . S
H1224 C1208 0.931 . S
H1225 C1213 0.929 . S
H1226 C1214 0.960 . S
H1227 C1214 0.962 . S
H1228 C1214 0.960 . S
H1229 C1215 0.961 . S
H1230 C1215 0.961 . S
H1231 C1215 0.961 . S
H1232 C1216 0.931 . S
H1233 C1221 0.930 . S
H1234 C1222 0.956 . S
H1235 C1222 0.961 . S
H1236 C1222 0.961 . S
H1237 C1223 0.958 . S
H1238 C1223 0.961 . S
H1239 C1223 0.960 . S
C1240 C1241 1.391 . S
C1240 C1242 1.394 . S
C1240 H1256 0.931 . S
C1241 C1240 1.391 . S
C1241 C1245 1.376 . S
C1242 C1240 1.394 . S
C1242 C1243 1.369 . S
C1242 C1246 1.531 . S
C1243 C1242 1.369 . S
C1243 C1244 1.410 . S
C1243 C1251 1.503 . S
C1244 C1243 1.410 . S
C1244 C1245 1.392 . S
C1244 C1247 1.511 . S
C1245 C1241 1.376 . S
C1245 C1244 1.392 . S
C1245 H1257 0.929 . S
C1246 C1242 1.531 . S
C1246 H1258 0.960 . S
C1246 H1259 0.962 . S
C1246 H1260 0.960 . S
C1247 C1244 1.511 . S
C1247 H1261 0.961 . S
C1247 H1262 0.961 . S
C1247 H1263 0.961 . S
C1248 C1249 1.370 . S
C1248 C1250 1.363 . S
C1248 H1264 0.931 . S
C1249 C1248 1.370 . S
C1249 C1253 1.408 . S
C1250 C1248 1.363 . S
C1250 C1251 1.370 . S
C1250 C1254 1.524 . S
C1251 C1243 1.503 . S
C1251 C1250 1.370 . S
C1251 C1252 1.403 . S
C1252 C1251 1.403 . S
C1252 C1253 1.404 . S
C1252 C1255 1.539 . S
C1253 C1249 1.408 . S
C1253 C1252 1.404 . S
C1253 H1265 0.930 . S
C1254 C1250 1.524 . S
C1254 H1266 0.956 . S
C1254 H1267 0.961 . S
C1254 H1268 0.961 . S
C1255 C1252 1.539 . S
C1255 H1269 0.958 . S
C1255 H1270 0.961 . S
C1255 H1271 0.960 . S
H1256 C1240 0.931 . S
H1257 C1245 0.929 . S
H1258 C1246 0.960 . S
H1259 C1246 0.962 . S
H1260 C1246 0.960 . S
H1261 C1247 0.961 . S
H1262 C1247 0.961 . S
H1263 C1247 0.961 . S
H1264 C1248 0.931 . S
H1265 C1253 0.930 . S
H1266 C1254 0.956 . S
H1267 C1254 0.961 . S
H1268 C1254 0.961 . S
H1269 C1255 0.958 . S
H1270 C1255 0.961 . S
H1271 C1255 0.960 . S
C1272 C1273 1.391 . S
C1272 C1274 1.394 . S
C1272 H1288 0.931 . S
C1273 C1272 1.391 . S
C1273 C1277 1.376 . S
C1274 C1272 1.394 . S
C1274 C1275 1.369 . S
C1274 C1278 1.531 . S
C1275 C1274 1.369 . S
C1275 C1276 1.410 . S
C1275 C1283 1.503 . S
C1276 C1275 1.410 . S
C1276 C1277 1.392 . S
C1276 C1279 1.511 . S
C1277 C1273 1.376 . S
C1277 C1276 1.392 . S
C1277 H1289 0.929 . S
C1278 C1274 1.531 . S
C1278 H1290 0.960 . S
C1278 H1291 0.962 . S
C1278 H1292 0.960 . S
C1279 C1276 1.511 . S
C1279 H1293 0.961 . S
C1279 H1294 0.961 . S
C1279 H1295 0.961 . S
C1280 C1281 1.370 . S
C1280 C1282 1.363 . S
C1280 H1296 0.931 . S
C1281 C1280 1.370 . S
C1281 C1285 1.408 . S
C1282 C1280 1.363 . S
C1282 C1283 1.370 . S
C1282 C1286 1.524 . S
C1283 C1275 1.503 . S
C1283 C1282 1.370 . S
C1283 C1284 1.403 . S
C1284 C1283 1.403 . S
C1284 C1285 1.404 . S
C1284 C1287 1.539 . S
C1285 C1281 1.408 . S
C1285 C1284 1.404 . S
C1285 H1297 0.930 . S
C1286 C1282 1.524 . S
C1286 H1298 0.956 . S
C1286 H1299 0.961 . S
C1286 H1300 0.961 . S
C1287 C1284 1.539 . S
C1287 H1301 0.958 . S
C1287 H1302 0.961 . S
C1287 H1303 0.960 . S
H1288 C1272 0.931 . S
H1289 C1277 0.929 . S
H1290 C1278 0.960 . S
H1291 C1278 0.962 . S
H1292 C1278 0.960 . S
H1293 C1279 0.961 . S
H1294 C1279 0.961 . S
H1295 C1279 0.961 . S
H1296 C1280 0.931 . S
H1297 C1285 0.930 . S
H1298 C1286 0.956 . S
H1299 C1286 0.961 . S
H1300 C1286 0.961 . S
H1301 C1287 0.958 . S
H1302 C1287 0.961 . S
H1303 C1287 0.960 . S
C1304 C1305 1.391 . S
C1304 C1306 1.394 . S
C1304 H1320 0.931 . S
C1305 C1304 1.391 . S
C1305 C1309 1.376 . S
C1306 C1304 1.394 . S
C1306 C1307 1.369 . S
C1306 C1310 1.531 . S
C1307 C1306 1.369 . S
C1307 C1308 1.410 . S
C1307 C1315 1.503 . S
C1308 C1307 1.410 . S
C1308 C1309 1.392 . S
C1308 C1311 1.511 . S
C1309 C1305 1.376 . S
C1309 C1308 1.392 . S
C1309 H1321 0.929 . S
C1310 C1306 1.531 . S
C1310 H1322 0.960 . S
C1310 H1323 0.962 . S
C1310 H1324 0.960 . S
C1311 C1308 1.511 . S
C1311 H1325 0.961 . S
C1311 H1326 0.961 . S
C1311 H1327 0.961 . S
C1312 C1313 1.370 . S
C1312 C1314 1.363 . S
C1312 H1328 0.931 . S
C1313 C1312 1.370 . S
C1313 C1317 1.408 . S
C1314 C1312 1.363 . S
C1314 C1315 1.370 . S
C1314 C1318 1.524 . S
C1315 C1307 1.503 . S
C1315 C1314 1.370 . S
C1315 C1316 1.403 . S
C1316 C1315 1.403 . S
C1316 C1317 1.404 . S
C1316 C1319 1.539 . S
C1317 C1313 1.408 . S
C1317 C1316 1.404 . S
C1317 H1329 0.930 . S
C1318 C1314 1.524 . S
C1318 H1330 0.956 . S
C1318 H1331 0.961 . S
C1318 H1332 0.961 . S
C1319 C1316 1.539 . S
C1319 H1333 0.958 . S
C1319 H1334 0.961 . S
C1319 H1335 0.960 . S
H1320 C1304 0.931 . S
H1321 C1309 0.929 . S
H1322 C1310 0.960 . S
H1323 C1310 0.962 . S
H1324 C1310 0.960 . S
H1325 C1311 0.961 . S
H1326 C1311 0.961 . S
H1327 C1311 0.961 . S
H1328 C1312 0.931 . S
H1329 C1317 0.930 . S
H1330 C1318 0.956 . S
H1331 C1318 0.961 . S
H1332 C1318 0.961 . S
H1333 C1319 0.958 . S
H1334 C1319 0.961 . S
H1335 C1319 0.960 . S
C1336 C1337 1.391 . S
C1336 C1338 1.394 . S
C1336 H1352 0.931 . S
C1337 C1336 1.391 . S
C1337 C1341 1.376 . S
C1338 C1336 1.394 . S
C1338 C1339 1.369 . S
C1338 C1342 1.531 . S
C1339 C1338 1.369 . S
C1339 C1340 1.410 . S
C1339 C1347 1.503 . S
C1340 C1339 1.410 . S
C1340 C1341 1.392 . S
C1340 C1343 1.511 . S
C1341 C1337 1.376 . S
C1341 C1340 1.392 . S
C1341 H1353 0.929 . S
C1342 C1338 1.531 . S
C1342 H1354 0.960 . S
C1342 H1355 0.962 . S
C1342 H1356 0.960 . S
C1343 C1340 1.511 . S
C1343 H1357 0.961 . S
C1343 H1358 0.961 . S
C1343 H1359 0.961 . S
C1344 C1345 1.370 . S
C1344 C1346 1.363 . S
C1344 H1360 0.931 . S
C1345 C1344 1.370 . S
C1345 C1349 1.408 . S
C1346 C1344 1.363 . S
C1346 C1347 1.370 . S
C1346 C1350 1.524 . S
C1347 C1339 1.503 . S
C1347 C1346 1.370 . S
C1347 C1348 1.403 . S
C1348 C1347 1.403 . S
C1348 C1349 1.404 . S
C1348 C1351 1.539 . S
C1349 C1345 1.408 . S
C1349 C1348 1.404 . S
C1349 H1361 0.930 . S
C1350 C1346 1.524 . S
C1350 H1362 0.956 . S
C1350 H1363 0.961 . S
C1350 H1364 0.961 . S
C1351 C1348 1.539 . S
C1351 H1365 0.958 . S
C1351 H1366 0.961 . S
C1351 H1367 0.960 . S
H1352 C1336 0.931 . S
H1353 C1341 0.929 . S
H1354 C1342 0.960 . S
H1355 C1342 0.962 . S
H1356 C1342 0.960 . S
H1357 C1343 0.961 . S
H1358 C1343 0.961 . S
H1359 C1343 0.961 . S
H1360 C1344 0.931 . S
H1361 C1349 0.930 . S
H1362 C1350 0.956 . S
H1363 C1350 0.961 . S
H1364 C1350 0.961 . S
H1365 C1351 0.958 . S
H1366 C1351 0.961 . S
H1367 C1351 0.960 . S
C1368 C1369 1.391 . S
C1368 C1370 1.394 . S
C1368 H1384 0.931 . S
C1369 C1368 1.391 . S
C1369 C1373 1.376 . S
C1370 C1368 1.394 . S
C1370 C1371 1.369 . S
C1370 C1374 1.531 . S
C1371 C1370 1.369 . S
C1371 C1372 1.410 . S
C1371 C1379 1.503 . S
C1372 C1371 1.410 . S
C1372 C1373 1.392 . S
C1372 C1375 1.511 . S
C1373 C1369 1.376 . S
C1373 C1372 1.392 . S
C1373 H1385 0.929 . S
C1374 C1370 1.531 . S
C1374 H1386 0.960 . S
C1374 H1387 0.962 . S
C1374 H1388 0.960 . S
C1375 C1372 1.511 . S
C1375 H1389 0.961 . S
C1375 H1390 0.961 . S
C1375 H1391 0.961 . S
C1376 C1377 1.370 . S
C1376 C1378 1.363 . S
C1376 H1392 0.931 . S
C1377 C1376 1.370 . S
C1377 C1381 1.408 . S
C1378 C1376 1.363 . S
C1378 C1379 1.370 . S
C1378 C1382 1.524 . S
C1379 C1371 1.503 . S
C1379 C1378 1.370 . S
C1379 C1380 1.403 . S
C1380 C1379 1.403 . S
C1380 C1381 1.404 . S
C1380 C1383 1.539 . S
C1381 C1377 1.408 . S
C1381 C1380 1.404 . S
C1381 H1393 0.930 . S
C1382 C1378 1.524 . S
C1382 H1394 0.956 . S
C1382 H1395 0.961 . S
C1382 H1396 0.961 . S
C1383 C1380 1.539 . S
C1383 H1397 0.958 . S
C1383 H1398 0.961 . S
C1383 H1399 0.960 . S
H1384 C1368 0.931 . S
H1385 C1373 0.929 . S
H1386 C1374 0.960 . S
H1387 C1374 0.962 . S
H1388 C1374 0.960 . S
H1389 C1375 0.961 . S
H1390 C1375 0.961 . S
H1391 C1375 0.961 . S
H1392 C1376 0.931 . S
H1393 C1381 0.930 . S
H1394 C1382 0.956 . S
H1395 C1382 0.961 . S
H1396 C1382 0.961 . S
H1397 C1383 0.958 . S
H1398 C1383 0.961 . S
H1399 C1383 0.960 . S
C1400 C1401 1.391 . S
C1400 C1402 1.394 . S
C1400 H1416 0.931 . S
C1401 C1400 1.391 . S
C1401 C1405 1.376 . S
C1402 C1400 1.394 . S
C1402 C1403 1.369 . S
C1402 C1406 1.531 . S
C1403 C1402 1.369 . S
C1403 C1404 1.410 . S
C1403 C1411 1.503 . S
C1404 C1403 1.410 . S
C1404 C1405 1.392 . S
C1404 C1407 1.511 1_455 S
C1405 C1401 1.376 . S
C1405 C1404 1.392 . S
C1405 H1417 0.929 . S
C1406 C1402 1.531 . S
C1406 H1418 0.960 . S
C1406 H1419 0.962 . S
C1406 H1420 0.960 . S
C1407 C1404 1.511 1_655 S
C1407 H1421 0.961 . S
C1407 H1422 0.961 . S
C1407 H1423 0.961 . S
C1408 C1409 1.370 . S
C1408 C1410 1.363 . S
C1408 H1424 0.931 . S
C1409 C1408 1.370 . S
C1409 C1413 1.408 . S
C1410 C1408 1.363 . S
C1410 C1411 1.370 . S
C1410 C1414 1.524 . S
C1411 C1403 1.503 . S
C1411 C1410 1.370 . S
C1411 C1412 1.403 . S
C1412 C1411 1.403 . S
C1412 C1413 1.404 . S
C1412 C1415 1.539 . S
C1413 C1409 1.408 . S
C1413 C1412 1.404 . S
C1413 H1425 0.930 . S
C1414 C1410 1.524 . S
C1414 H1426 0.956 . S
C1414 H1427 0.961 . S
C1414 H1428 0.961 . S
C1415 C1412 1.539 . S
C1415 H1429 0.958 . S
C1415 H1430 0.961 . S
C1415 H1431 0.960 . S
H1416 C1400 0.931 . S
H1417 C1405 0.929 . S
H1418 C1406 0.960 . S
H1419 C1406 0.962 . S
H1420 C1406 0.960 . S
H1421 C1407 0.961 . S
H1422 C1407 0.961 . S
H1423 C1407 0.961 . S
H1424 C1408 0.931 . S
H1425 C1413 0.930 . S
H1426 C1414 0.956 . S
H1427 C1414 0.961 . S
H1428 C1414 0.961 . S
H1429 C1415 0.958 . S
H1430 C1415 0.961 . S
H1431 C1415 0.960 . S
C1432 C1433 1.391 . S
C1432 C1434 1.394 . S
C1432 H1448 0.931 . S
C1433 C1432 1.391 . S
C1433 C1437 1.376 . S
C1434 C1432 1.394 . S
C1434 C1435 1.369 . S
C1434 C1438 1.531 . S
C1435 C1434 1.369 . S
C1435 C1436 1.410 . S
C1435 C1443 1.503 . S
C1436 C1435 1.410 . S
C1436 C1437 1.392 . S
C1436 C1439 1.511 . S
C1437 C1433 1.376 . S
C1437 C1436 1.392 . S
C1437 H1449 0.929 . S
C1438 C1434 1.531 . S
C1438 H1450 0.960 . S
C1438 H1451 0.962 . S
C1438 H1452 0.960 . S
C1439 C1436 1.511 . S
C1439 H1453 0.961 . S
C1439 H1454 0.961 . S
C1439 H1455 0.961 . S
C1440 C1441 1.370 . S
C1440 C1442 1.363 . S
C1440 H1456 0.931 . S
C1441 C1440 1.370 . S
C1441 C1445 1.408 . S
C1442 C1440 1.363 . S
C1442 C1443 1.370 . S
C1442 C1446 1.524 . S
C1443 C1435 1.503 . S
C1443 C1442 1.370 . S
C1443 C1444 1.403 . S
C1444 C1443 1.403 . S
C1444 C1445 1.404 . S
C1444 C1447 1.539 . S
C1445 C1441 1.408 . S
C1445 C1444 1.404 . S
C1445 H1457 0.930 . S
C1446 C1442 1.524 . S
C1446 H1458 0.956 . S
C1446 H1459 0.961 . S
C1446 H1460 0.961 . S
C1447 C1444 1.539 . S
C1447 H1461 0.958 . S
C1447 H1462 0.961 . S
C1447 H1463 0.960 . S
H1448 C1432 0.931 . S
H1449 C1437 0.929 . S
H1450 C1438 0.960 . S
H1451 C1438 0.962 . S
H1452 C1438 0.960 . S
H1453 C1439 0.961 . S
H1454 C1439 0.961 . S
H1455 C1439 0.961 . S
H1456 C1440 0.931 . S
H1457 C1445 0.930 . S
H1458 C1446 0.956 . S
H1459 C1446 0.961 . S
H1460 C1446 0.961 . S
H1461 C1447 0.958 . S
H1462 C1447 0.961 . S
H1463 C1447 0.960 . S
C1464 C1465 1.391 . S
C1464 C1466 1.394 . S
C1464 H1480 0.931 . S
C1465 C1464 1.391 . S
C1465 C1469 1.376 . S
C1466 C1464 1.394 . S
C1466 C1467 1.369 . S
C1466 C1470 1.531 . S
C1467 C1466 1.369 . S
C1467 C1468 1.410 . S
C1467 C1475 1.503 . S
C1468 C1467 1.410 . S
C1468 C1469 1.392 . S
C1468 C1471 1.511 . S
C1469 C1465 1.376 . S
C1469 C1468 1.392 . S
C1469 H1481 0.929 . S
C1470 C1466 1.531 . S
C1470 H1482 0.960 . S
C1470 H1483 0.962 . S
C1470 H1484 0.960 . S
C1471 C1468 1.511 . S
C1471 H1485 0.961 . S
C1471 H1486 0.961 . S
C1471 H1487 0.961 . S
C1472 C1473 1.370 . S
C1472 C1474 1.363 . S
C1472 H1488 0.931 . S
C1473 C1472 1.370 . S
C1473 C1477 1.408 . S
C1474 C1472 1.363 . S
C1474 C1475 1.370 . S
C1474 C1478 1.524 . S
C1475 C1467 1.503 . S
C1475 C1474 1.370 . S
C1475 C1476 1.403 . S
C1476 C1475 1.403 . S
C1476 C1477 1.404 . S
C1476 C1479 1.539 . S
C1477 C1473 1.408 . S
C1477 C1476 1.404 . S
C1477 H1489 0.930 . S
C1478 C1474 1.524 . S
C1478 H1490 0.956 . S
C1478 H1491 0.961 . S
C1478 H1492 0.961 . S
C1479 C1476 1.539 . S
C1479 H1493 0.958 . S
C1479 H1494 0.961 . S
C1479 H1495 0.960 . S
H1480 C1464 0.931 . S
H1481 C1469 0.929 . S
H1482 C1470 0.960 . S
H1483 C1470 0.962 . S
H1484 C1470 0.960 . S
H1485 C1471 0.961 . S
H1486 C1471 0.961 . S
H1487 C1471 0.961 . S
H1488 C1472 0.931 . S
H1489 C1477 0.930 . S
H1490 C1478 0.956 . S
H1491 C1478 0.961 . S
H1492 C1478 0.961 . S
H1493 C1479 0.958 . S
H1494 C1479 0.961 . S
H1495 C1479 0.960 . S
C1496 C1497 1.391 . S
C1496 C1498 1.394 . S
C1496 H1512 0.931 . S
C1497 C1496 1.391 . S
C1497 C1501 1.376 . S
C1498 C1496 1.394 . S
C1498 C1499 1.369 . S
C1498 C1502 1.531 . S
C1499 C1498 1.369 . S
C1499 C1500 1.410 . S
C1499 C1507 1.503 . S
C1500 C1499 1.410 . S
C1500 C1501 1.392 . S
C1500 C1503 1.511 . S
C1501 C1497 1.376 . S
C1501 C1500 1.392 . S
C1501 H1513 0.929 . S
C1502 C1498 1.531 . S
C1502 H1514 0.960 . S
C1502 H1515 0.962 . S
C1502 H1516 0.960 . S
C1503 C1500 1.511 . S
C1503 H1517 0.961 . S
C1503 H1518 0.961 . S
C1503 H1519 0.961 . S
C1504 C1505 1.370 . S
C1504 C1506 1.363 . S
C1504 H1520 0.931 . S
C1505 C1504 1.370 . S
C1505 C1509 1.408 . S
C1506 C1504 1.363 . S
C1506 C1507 1.370 . S
C1506 C1510 1.524 . S
C1507 C1499 1.503 . S
C1507 C1506 1.370 . S
C1507 C1508 1.403 . S
C1508 C1507 1.403 . S
C1508 C1509 1.404 . S
C1508 C1511 1.539 . S
C1509 C1505 1.408 . S
C1509 C1508 1.404 . S
C1509 H1521 0.930 . S
C1510 C1506 1.524 . S
C1510 H1522 0.956 . S
C1510 H1523 0.961 . S
C1510 H1524 0.961 . S
C1511 C1508 1.539 . S
C1511 H1525 0.958 . S
C1511 H1526 0.961 . S
C1511 H1527 0.960 . S
H1512 C1496 0.931 . S
H1513 C1501 0.929 . S
H1514 C1502 0.960 . S
H1515 C1502 0.962 . S
H1516 C1502 0.960 . S
H1517 C1503 0.961 . S
H1518 C1503 0.961 . S
H1519 C1503 0.961 . S
H1520 C1504 0.931 . S
H1521 C1509 0.930 . S
H1522 C1510 0.956 . S
H1523 C1510 0.961 . S
H1524 C1510 0.961 . S
H1525 C1511 0.958 . S
H1526 C1511 0.961 . S
H1527 C1511 0.960 . S
C1528 C1529 1.391 . S
C1528 C1530 1.394 . S
C1528 H1544 0.928 1_455 S
C1529 C1528 1.391 . S
C1529 C1533 1.376 . S
C1530 C1528 1.394 . S
C1530 C1531 1.369 . S
C1530 C1534 1.531 1_455 S
C1531 C1530 1.369 . S
C1531 C1532 1.410 . S
C1531 C1539 1.503 . S
C1532 C1531 1.410 . S
C1532 C1533 1.392 . S
C1532 C1535 1.511 . S
C1533 C1529 1.376 . S
C1533 C1532 1.392 . S
C1533 H1545 0.929 . S
C1534 C1530 1.531 1_655 S
C1534 H1546 0.960 . S
C1534 H1547 0.962 . S
C1534 H1548 0.960 . S
C1535 C1532 1.511 . S
C1535 H1549 0.961 . S
C1535 H1550 0.961 . S
C1535 H1551 0.961 . S
C1536 C1537 1.370 . S
C1536 C1538 1.363 . S
C1536 H1552 0.931 1_455 S
C1537 C1536 1.370 . S
C1537 C1541 1.408 . S
C1538 C1536 1.363 . S
C1538 C1539 1.370 . S
C1538 C1542 1.524 1_455 S
C1539 C1531 1.503 . S
C1539 C1538 1.370 . S
C1539 C1540 1.403 . S
C1540 C1539 1.403 . S
C1540 C1541 1.404 . S
C1540 C1543 1.539 . S
C1541 C1537 1.408 . S
C1541 C1540 1.404 . S
C1541 H1553 0.930 . S
C1542 C1538 1.524 1_655 S
C1542 H1554 0.956 . S
C1542 H1555 0.961 1_655 S
C1542 H1556 0.961 . S
C1543 C1540 1.539 . S
C1543 H1557 0.958 . S
C1543 H1558 0.961 . S
C1543 H1559 0.960 . S
H1544 C1528 0.928 1_655 S
H1545 C1533 0.929 . S
H1546 C1534 0.960 . S
H1547 C1534 0.962 . S
H1548 C1534 0.960 . S
H1549 C1535 0.961 . S
H1550 C1535 0.961 . S
H1551 C1535 0.961 . S
H1552 C1536 0.931 1_655 S
H1553 C1541 0.930 . S
H1554 C1542 0.956 . S
H1555 C1542 0.961 1_455 S
H1556 C1542 0.961 . S
H1557 C1543 0.958 . S
H1558 C1543 0.961 . S
H1559 C1543 0.960 . S
C1560 C1561 1.391 . S
C1560 C1562 1.394 . S
C1560 H1576 0.931 . S
C1561 C1560 1.391 . S
C1561 C1565 1.376 . S
C1562 C1560 1.394 . S
C1562 C1563 1.369 . S
C1562 C1566 1.531 . S
C1563 C1562 1.369 . S
C1563 C1564 1.410 . S
C1563 C1571 1.503 . S
C1564 C1563 1.410 . S
C1564 C1565 1.392 . S
C1564 C1567 1.511 . S
C1565 C1561 1.376 . S
C1565 C1564 1.392 . S
C1565 H1577 0.929 . S
C1566 C1562 1.531 . S
C1566 H1578 0.960 . S
C1566 H1579 0.962 . S
C1566 H1580 0.960 . S
C1567 C1564 1.511 . S
C1567 H1581 0.961 . S
C1567 H1582 0.961 . S
C1567 H1583 0.961 . S
C1568 C1569 1.370 . S
C1568 C1570 1.363 . S
C1568 H1584 0.931 . S
C1569 C1568 1.370 . S
C1569 C1573 1.408 . S
C1570 C1568 1.363 . S
C1570 C1571 1.370 . S
C1570 C1574 1.524 . S
C1571 C1563 1.503 . S
C1571 C1570 1.370 . S
C1571 C1572 1.403 . S
C1572 C1571 1.403 . S
C1572 C1573 1.404 . S
C1572 C1575 1.539 . S
C1573 C1569 1.408 . S
C1573 C1572 1.404 . S
C1573 H1585 0.930 . S
C1574 C1570 1.524 . S
C1574 H1586 0.956 . S
C1574 H1587 0.961 . S
C1574 H1588 0.961 . S
C1575 C1572 1.539 . S
C1575 H1589 0.958 . S
C1575 H1590 0.961 . S
C1575 H1591 0.960 . S
H1576 C1560 0.931 . S
H1577 C1565 0.929 . S
H1578 C1566 0.960 . S
H1579 C1566 0.962 . S
H1580 C1566 0.960 . S
H1581 C1567 0.961 . S
H1582 C1567 0.961 . S
H1583 C1567 0.961 . S
H1584 C1568 0.931 . S
H1585 C1573 0.930 . S
H1586 C1574 0.956 . S
H1587 C1574 0.961 . S
H1588 C1574 0.961 . S
H1589 C1575 0.958 . S
H1590 C1575 0.961 . S
H1591 C1575 0.960 . S
C1592 C1593 1.391 . S
C1592 C1594 1.394 . S
C1592 H1608 0.931 . S
C1593 C1592 1.391 . S
C1593 C1597 1.376 . S
C1594 C1592 1.394 . S
C1594 C1595 1.369 . S
C1594 C1598 1.531 . S
C1595 C1594 1.369 . S
C1595 C1596 1.410 . S
C1595 C1603 1.503 . S
C1596 C1595 1.410 . S
C1596 C1597 1.392 . S
C1596 C1599 1.511 . S
C1597 C1593 1.376 . S
C1597 C1596 1.392 . S
C1597 H1609 0.929 . S
C1598 C1594 1.531 . S
C1598 H1610 0.960 . S
C1598 H1611 0.962 . S
C1598 H1612 0.960 . S
C1599 C1596 1.511 . S
C1599 H1613 0.961 . S
C1599 H1614 0.961 . S
C1599 H1615 0.961 . S
C1600 C1601 1.370 . S
C1600 C1602 1.363 . S
C1600 H1616 0.931 1_556 S
C1601 C1600 1.370 . S
C1601 C1605 1.408 . S
C1602 C1600 1.363 . S
C1602 C1603 1.370 . S
C1602 C1606 1.524 . S
C1603 C1595 1.503 . S
C1603 C1602 1.370 . S
C1603 C1604 1.403 . S
C1604 C1603 1.403 . S
C1604 C1605 1.404 . S
C1604 C1607 1.539 . S
C1605 C1601 1.408 . S
C1605 C1604 1.404 . S
C1605 H1617 0.930 . S
C1606 C1602 1.524 . S
C1606 H1618 0.956 . S
C1606 H1619 0.961 . S
C1606 H1620 0.961 1_556 S
C1607 C1604 1.539 . S
C1607 H1621 0.958 . S
C1607 H1622 0.961 . S
C1607 H1623 0.960 . S
H1608 C1592 0.931 . S
H1609 C1597 0.929 . S
H1610 C1598 0.960 . S
H1611 C1598 0.962 . S
H1612 C1598 0.960 . S
H1613 C1599 0.961 . S
H1614 C1599 0.961 . S
H1615 C1599 0.961 . S
H1616 C1600 0.931 1_554 S
H1617 C1605 0.930 . S
H1618 C1606 0.956 . S
H1619 C1606 0.961 . S
H1620 C1606 0.961 1_554 S
H1621 C1607 0.958 . S
H1622 C1607 0.961 . S
H1623 C1607 0.960 . S
C1624 C1625 1.391 . S
C1624 C1626 1.394 . S
C1624 H1640 0.931 . S
C1625 C1624 1.391 . S
C1625 C1629 1.376 . S
C1626 C1624 1.394 . S
C1626 C1627 1.369 . S
C1626 C1630 1.531 . S
C1627 C1626 1.369 . S
C1627 C1628 1.410 . S
C1627 C1635 1.503 . S
C1628 C1627 1.410 . S
C1628 C1629 1.392 . S
C1628 C1631 1.511 . S
C1629 C1625 1.376 . S
C1629 C1628 1.392 . S
C1629 H1641 0.929 . S
C1630 C1626 1.531 . S
C1630 H1642 0.960 . S
C1630 H1643 0.962 . S
C1630 H1644 0.960 . S
C1631 C1628 1.511 . S
C1631 H1645 0.961 . S
C1631 H1646 0.961 . S
C1631 H1647 0.961 . S
C1632 C1633 1.370 . S
C1632 C1634 1.363 . S
C1632 H1648 0.931 . S
C1633 C1632 1.370 . S
C1633 C1637 1.408 . S
C1634 C1632 1.363 . S
C1634 C1635 1.370 . S
C1634 C1638 1.524 . S
C1635 C1627 1.503 . S
C1635 C1634 1.370 . S
C1635 C1636 1.403 . S
C1636 C1635 1.403 . S
C1636 C1637 1.404 . S
C1636 C1639 1.539 . S
C1637 C1633 1.408 . S
C1637 C1636 1.404 . S
C1637 H1649 0.930 . S
C1638 C1634 1.524 . S
C1638 H1650 0.956 . S
C1638 H1651 0.961 . S
C1638 H1652 0.961 . S
C1639 C1636 1.539 . S
C1639 H1653 0.958 . S
C1639 H1654 0.961 . S
C1639 H1655 0.960 . S
H1640 C1624 0.931 . S
H1641 C1629 0.929 . S
H1642 C1630 0.960 . S
H1643 C1630 0.962 . S
H1644 C1630 0.960 . S
H1645 C1631 0.961 . S
H1646 C1631 0.961 . S
H1647 C1631 0.961 . S
H1648 C1632 0.931 . S
H1649 C1637 0.930 . S
H1650 C1638 0.956 . S
H1651 C1638 0.961 . S
H1652 C1638 0.961 . S
H1653 C1639 0.958 . S
H1654 C1639 0.961 . S
H1655 C1639 0.960 . S
C1656 C1657 1.391 1_565 S
C1656 C1658 1.394 . S
C1656 H1672 0.931 . S
C1657 C1656 1.391 1_545 S
C1657 C1661 1.376 . S
C1658 C1656 1.394 . S
C1658 C1659 1.369 1_565 S
C1658 C1662 1.531 . S
C1659 C1658 1.369 1_545 S
C1659 C1660 1.410 . S
C1659 C1667 1.503 . S
C1660 C1659 1.410 . S
C1660 C1661 1.392 . S
C1660 C1663 1.511 . S
C1661 C1657 1.376 . S
C1661 C1660 1.392 . S
C1661 H1673 0.929 . S
C1662 C1658 1.531 . S
C1662 H1674 0.960 . S
C1662 H1675 0.962 . S
C1662 H1676 0.960 . S
C1663 C1660 1.511 . S
C1663 H1677 0.961 . S
C1663 H1678 0.961 . S
C1663 H1679 0.961 . S
C1664 C1665 1.370 . S
C1664 C1666 1.363 . S
C1664 H1680 0.931 . S
C1665 C1664 1.370 . S
C1665 C1669 1.408 . S
C1666 C1664 1.363 . S
C1666 C1667 1.370 . S
C1666 C1670 1.524 . S
C1667 C1659 1.503 . S
C1667 C1666 1.370 . S
C1667 C1668 1.403 . S
C1668 C1667 1.403 . S
C1668 C1669 1.404 . S
C1668 C1671 1.539 1_545 S
C1669 C1665 1.408 . S
C1669 C1668 1.404 . S
C1669 H1681 0.930 . S
C1670 C1666 1.524 . S
C1670 H1682 0.956 . S
C1670 H1683 0.961 . S
C1670 H1684 0.961 . S
C1671 C1668 1.539 1_565 S
C1671 H1685 0.958 . S
C1671 H1686 0.961 . S
C1671 H1687 0.960 . S
H1672 C1656 0.931 . S
H1673 C1661 0.929 . S
H1674 C1662 0.960 . S
H1675 C1662 0.962 . S
H1676 C1662 0.960 . S
H1677 C1663 0.961 . S
H1678 C1663 0.961 . S
H1679 C1663 0.961 . S
H1680 C1664 0.931 . S
H1681 C1669 0.930 . S
H1682 C1670 0.956 . S
H1683 C1670 0.961 . S
H1684 C1670 0.961 . S
H1685 C1671 0.958 . S
H1686 C1671 0.961 . S
H1687 C1671 0.960 . S
C1688 C1689 1.391 . S
C1688 C1690 1.394 . S
C1688 H1704 0.931 . S
C1689 C1688 1.391 . S
C1689 C1693 1.376 . S
C1690 C1688 1.394 . S
C1690 C1691 1.369 . S
C1690 C1694 1.531 . S
C1691 C1690 1.369 . S
C1691 C1692 1.410 . S
C1691 C1699 1.503 . S
C1692 C1691 1.410 . S
C1692 C1693 1.392 . S
C1692 C1695 1.511 . S
C1693 C1689 1.376 . S
C1693 C1692 1.392 . S
C1693 H1705 0.929 . S
C1694 C1690 1.531 . S
C1694 H1706 0.960 . S
C1694 H1707 0.962 . S
C1694 H1708 0.960 . S
C1695 C1692 1.511 . S
C1695 H1709 0.961 . S
C1695 H1710 0.961 . S
C1695 H1711 0.961 . S
C1696 C1697 1.370 . S
C1696 C1698 1.363 . S
C1696 H1712 0.931 . S
C1697 C1696 1.370 . S
C1697 C1701 1.408 . S
C1698 C1696 1.363 . S
C1698 C1699 1.370 . S
C1698 C1702 1.524 . S
C1699 C1691 1.503 . S
C1699 C1698 1.370 . S
C1699 C1700 1.403 . S
C1700 C1699 1.403 . S
C1700 C1701 1.404 . S
C1700 C1703 1.539 . S
C1701 C1697 1.408 . S
C1701 C1700 1.404 . S
C1701 H1713 0.930 . S
C1702 C1698 1.524 . S
C1702 H1714 0.956 . S
C1702 H1715 0.961 . S
C1702 H1716 0.961 . S
C1703 C1700 1.539 . S
C1703 H1717 0.958 . S
C1703 H1718 0.961 . S
C1703 H1719 0.960 . S
H1704 C1688 0.931 . S
H1705 C1693 0.929 . S
H1706 C1694 0.960 . S
H1707 C1694 0.962 . S
H1708 C1694 0.960 . S
H1709 C1695 0.961 . S
H1710 C1695 0.961 . S
H1711 C1695 0.961 . S
H1712 C1696 0.931 . S
H1713 C1701 0.930 . S
H1714 C1702 0.956 . S
H1715 C1702 0.961 . S
H1716 C1702 0.961 . S
H1717 C1703 0.958 . S
H1718 C1703 0.961 . S
H1719 C1703 0.960 . S
C1720 C1721 1.403 . S
C1720 C1722 1.384 1_545 S
C1720 H1736 0.923 1_545 S
C1721 C1720 1.403 . S
C1721 C1725 1.376 . S
C1722 C1720 1.384 1_565 S
C1722 C1723 1.356 1_565 S
C1722 C1726 1.551 . S
C1723 C1722 1.356 1_545 S
C1723 C1724 1.410 . S
C1723 C1731 1.503 . S
C1724 C1723 1.410 . S
C1724 C1725 1.392 . S
C1724 C1727 1.511 . S
C1725 C1721 1.376 . S
C1725 C1724 1.392 . S
C1725 H1737 0.929 . S
C1726 C1722 1.551 . S
C1726 H1738 0.960 . S
C1726 H1739 0.962 . S
C1726 H1740 0.960 . S
C1727 C1724 1.511 . S
C1727 H1741 0.961 . S
C1727 H1742 0.961 . S
C1727 H1743 0.961 . S
C1728 C1729 1.370 . S
C1728 C1730 1.363 . S
C1728 H1744 0.931 . S
C1729 C1728 1.370 . S
C1729 C1733 1.420 . S
C1730 C1728 1.363 . S
C1730 C1731 1.370 . S
C1730 C1734 1.524 . S
C1731 C1723 1.503 . S
C1731 C1730 1.370 . S
C1731 C1732 1.376 1_545 S
C1732 C1731 1.376 1_565 S
C1732 C1733 1.411 1_565 S
C1732 C1735 1.561 . S
C1733 C1729 1.420 . S
C1733 C1732 1.411 1_545 S
C1733 H1745 0.917 1_545 S
C1734 C1730 1.524 . S
C1734 H1746 0.956 . S
C1734 H1747 0.961 . S
C1734 H1748 0.961 . S
C1735 C1732 1.561 . S
C1735 H1749 0.958 . S
C1735 H1750 0.961 . S
C1735 H1751 0.960 . S
H1736 C1720 0.923 1_565 S
H1737 C1725 0.929 . S
H1738 C1726 0.960 . S
H1739 C1726 0.962 . S
H1740 C1726 0.960 . S
H1741 C1727 0.961 . S
H1742 C1727 0.961 . S
H1743 C1727 0.961 . S
H1744 C1728 0.931 . S
H1745 C1733 0.917 1_565 S
H1746 C1734 0.956 . S
H1747 C1734 0.961 . S
H1748 C1734 0.961 . S
H1749 C1735 0.958 . S
H1750 C1735 0.961 . S
H1751 C1735 0.960 . S
C1752 C1753 1.391 . S
C1752 C1754 1.394 . S
C1752 H1768 0.931 . S
C1753 C1752 1.391 . S
C1753 C1757 1.376 . S
C1754 C1752 1.394 . S
C1754 C1755 1.369 . S
C1754 C1758 1.531 . S
C1755 C1754 1.369 . S
C1755 C1756 1.410 . S
C1755 C1763 1.503 . S
C1756 C1755 1.410 . S
C1756 C1757 1.392 . S
C1756 C1759 1.511 . S
C1757 C1753 1.376 . S
C1757 C1756 1.392 . S
C1757 H1769 0.929 . S
C1758 C1754 1.531 . S
C1758 H1770 0.960 . S
C1758 H1771 0.962 . S
C1758 H1772 0.960 . S
C1759 C1756 1.511 . S
C1759 H1773 0.961 . S
C1759 H1774 0.961 . S
C1759 H1775 0.961 . S
C1760 C1761 1.370 . S
C1760 C1762 1.363 . S
C1760 H1776 0.931 . S
C1761 C1760 1.370 . S
C1761 C1765 1.408 . S
C1762 C1760 1.363 . S
C1762 C1763 1.370 . S
C1762 C1766 1.524 . S
C1763 C1755 1.503 . S
C1763 C1762 1.370 . S
C1763 C1764 1.403 . S
C1764 C1763 1.403 . S
C1764 C1765 1.404 . S
C1764 C1767 1.539 . S
C1765 C1761 1.408 . S
C1765 C1764 1.404 . S
C1765 H1777 0.930 . S
C1766 C1762 1.524 . S
C1766 H1778 0.956 . S
C1766 H1779 0.961 . S
C1766 H1780 0.961 . S
C1767 C1764 1.539 . S
C1767 H1781 0.958 . S
C1767 H1782 0.961 . S
C1767 H1783 0.960 . S
H1768 C1752 0.931 . S
H1769 C1757 0.929 . S
H1770 C1758 0.960 . S
H1771 C1758 0.962 . S
H1772 C1758 0.960 . S
H1773 C1759 0.961 . S
H1774 C1759 0.961 . S
H1775 C1759 0.961 . S
H1776 C1760 0.931 . S
H1777 C1765 0.930 . S
H1778 C1766 0.956 . S
H1779 C1766 0.961 . S
H1780 C1766 0.961 . S
H1781 C1767 0.958 . S
H1782 C1767 0.961 . S
H1783 C1767 0.960 . S
C1784 C1785 1.391 . S
C1784 C1786 1.394 . S
C1784 H1800 0.931 . S
C1785 C1784 1.391 . S
C1785 C1789 1.376 1_565 S
C1786 C1784 1.394 . S
C1786 C1787 1.369 . S
C1786 C1790 1.531 . S
C1787 C1786 1.369 . S
C1787 C1788 1.410 1_565 S
C1787 C1795 1.503 . S
C1788 C1787 1.410 1_545 S
C1788 C1789 1.392 . S
C1788 C1791 1.511 . S
C1789 C1785 1.376 1_545 S
C1789 C1788 1.392 . S
C1789 H1801 0.929 . S
C1790 C1786 1.531 . S
C1790 H1802 0.960 . S
C1790 H1803 0.962 . S
C1790 H1804 0.960 . S
C1791 C1788 1.511 . S
C1791 H1805 0.961 . S
C1791 H1806 0.961 . S
C1791 H1807 0.961 . S
C1792 C1793 1.370 . S
C1792 C1794 1.363 . S
C1792 H1808 0.931 . S
C1793 C1792 1.370 . S
C1793 C1797 1.408 1_545 S
C1794 C1792 1.363 . S
C1794 C1795 1.370 1_545 S
C1794 C1798 1.524 . S
C1795 C1787 1.503 . S
C1795 C1794 1.370 1_565 S
C1795 C1796 1.403 . S
C1796 C1795 1.403 . S
C1796 C1797 1.404 . S
C1796 C1799 1.539 . S
C1797 C1793 1.408 1_565 S
C1797 C1796 1.404 . S
C1797 H1809 0.930 . S
C1798 C1794 1.524 . S
C1798 H1810 0.956 . S
C1798 H1811 0.961 . S
C1798 H1812 0.961 . S
C1799 C1796 1.539 . S
C1799 H1813 0.958 . S
C1799 H1814 0.961 . S
C1799 H1815 0.960 . S
H1800 C1784 0.931 . S
H1801 C1789 0.929 . S
H1802 C1790 0.960 . S
H1803 C1790 0.962 . S
H1804 C1790 0.960 . S
H1805 C1791 0.961 . S
H1806 C1791 0.961 . S
H1807 C1791 0.961 . S
H1808 C1792 0.931 . S
H1809 C1797 0.930 . S
H1810 C1798 0.956 . S
H1811 C1798 0.961 . S
H1812 C1798 0.961 . S
H1813 C1799 0.958 . S
H1814 C1799 0.961 . S
H1815 C1799 0.960 . S
C1816 C1817 1.391 . S
C1816 C1818 1.394 . S
C1816 H1832 0.931 . S
C1817 C1816 1.391 . S
C1817 C1821 1.376 . S
C1818 C1816 1.394 . S
C1818 C1819 1.369 . S
C1818 C1822 1.531 . S
C1819 C1818 1.369 . S
C1819 C1820 1.410 . S
C1819 C1827 1.503 . S
C1820 C1819 1.410 . S
C1820 C1821 1.392 . S
C1820 C1823 1.511 . S
C1821 C1817 1.376 . S
C1821 C1820 1.392 . S
C1821 H1833 0.929 . S
C1822 C1818 1.531 . S
C1822 H1834 0.960 . S
C1822 H1835 0.962 . S
C1822 H1836 0.960 . S
C1823 C1820 1.511 . S
C1823 H1837 0.961 . S
C1823 H1838 0.961 . S
C1823 H1839 0.961 . S
C1824 C1825 1.370 . S
C1824 C1826 1.363 . S
C1824 H1840 0.931 . S
C1825 C1824 1.370 . S
C1825 C1829 1.408 . S
C1826 C1824 1.363 . S
C1826 C1827 1.370 . S
C1826 C1830 1.524 . S
C1827 C1819 1.503 . S
C1827 C1826 1.370 . S
C1827 C1828 1.403 . S
C1828 C1827 1.403 . S
C1828 C1829 1.404 . S
C1828 C1831 1.539 . S
C1829 C1825 1.408 . S
C1829 C1828 1.404 . S
C1829 H1841 0.930 . S
C1830 C1826 1.524 . S
C1830 H1842 0.956 . S
C1830 H1843 0.961 . S
C1830 H1844 0.961 . S
C1831 C1828 1.539 . S
C1831 H1845 0.958 . S
C1831 H1846 0.961 . S
C1831 H1847 0.960 . S
H1832 C1816 0.931 . S
H1833 C1821 0.929 . S
H1834 C1822 0.960 . S
H1835 C1822 0.962 . S
H1836 C1822 0.960 . S
H1837 C1823 0.961 . S
H1838 C1823 0.961 . S
H1839 C1823 0.961 . S
H1840 C1824 0.931 . S
H1841 C1829 0.930 . S
H1842 C1830 0.956 . S
H1843 C1830 0.961 . S
H1844 C1830 0.961 . S
H1845 C1831 0.958 . S
H1846 C1831 0.961 . S
H1847 C1831 0.960 . S
C1848 C1849 1.391 . S
C1848 C1850 1.396 . S
C1848 H1864 0.931 1_545 S
C1849 C1848 1.391 . S
C1849 C1853 1.376 . S
C1850 C1848 1.396 . S
C1850 C1851 1.380 . S
C1850 C1854 1.517 1_545 S
C1851 C1850 1.380 . S
C1851 C1852 1.410 . S
C1851 C1859 1.503 . S
C1852 C1851 1.410 . S
C1852 C1853 1.392 . S
C1852 C1855 1.511 . S
C1853 C1849 1.376 . S
C1853 C1852 1.392 . S
C1853 H1865 0.929 . S
C1854 C1850 1.517 1_565 S
C1854 H1866 0.960 . S
C1854 H1867 0.962 . S
C1854 H1868 0.960 . S
C1855 C1852 1.511 . S
C1855 H1869 0.961 . S
C1855 H1870 0.961 . S
C1855 H1871 0.961 . S
C1856 C1857 1.370 . S
C1856 C1858 1.363 . S
C1856 H1872 0.931 . S
C1857 C1856 1.370 . S
C1857 C1861 1.408 1_545 S
C1858 C1856 1.363 . S
C1858 C1859 1.370 . S
C1858 C1862 1.524 . S
C1859 C1851 1.503 . S
C1859 C1858 1.370 . S
C1859 C1860 1.403 1_545 S
C1860 C1859 1.403 1_565 S
C1860 C1861 1.404 . S
C1860 C1863 1.539 . S
C1861 C1857 1.408 1_565 S
C1861 C1860 1.404 . S
C1861 H1873 0.930 . S
C1862 C1858 1.524 . S
C1862 H1874 0.956 . S
C1862 H1875 0.961 . S
C1862 H1876 0.961 . S
C1863 C1860 1.539 . S
C1863 H1877 0.958 . S
C1863 H1878 0.961 . S
C1863 H1879 0.960 . S
H1864 C1848 0.931 1_565 S
H1865 C1853 0.929 . S
H1866 C1854 0.960 . S
H1867 C1854 0.962 . S
H1868 C1854 0.960 . S
H1869 C1855 0.961 . S
H1870 C1855 0.961 . S
H1871 C1855 0.961 . S
H1872 C1856 0.931 . S
H1873 C1861 0.930 . S
H1874 C1862 0.956 . S
H1875 C1862 0.961 . S
H1876 C1862 0.961 . S
H1877 C1863 0.958 . S
H1878 C1863 0.961 . S
H1879 C1863 0.960 . S
C1880 C1881 1.391 . S
C1880 C1882 1.394 . S
C1880 H1896 0.931 . S
C1881 C1880 1.391 . S
C1881 C1885 1.376 . S
C1882 C1880 1.394 . S
C1882 C1883 1.369 . S
C1882 C1886 1.531 . S
C1883 C1882 1.369 . S
C1883 C1884 1.410 . S
C1883 C1891 1.503 . S
C1884 C1883 1.410 . S
C1884 C1885 1.392 . S
C1884 C1887 1.511 . S
C1885 C1881 1.376 . S
C1885 C1884 1.392 . S
C1885 H1897 0.929 . S
C1886 C1882 1.531 . S
C1886 H1898 0.960 . S
C1886 H1899 0.962 . S
C1886 H1900 0.960 . S
C1887 C1884 1.511 . S
C1887 H1901 0.961 . S
C1887 H1902 0.961 . S
C1887 H1903 0.961 . S
C1888 C1889 1.370 . S
C1888 C1890 1.363 . S
C1888 H1904 0.931 . S
C1889 C1888 1.370 . S
C1889 C1893 1.408 . S
C1890 C1888 1.363 . S
C1890 C1891 1.370 . S
C1890 C1894 1.524 . S
C1891 C1883 1.503 . S
C1891 C1890 1.370 . S
C1891 C1892 1.403 . S
C1892 C1891 1.403 . S
C1892 C1893 1.404 . S
C1892 C1895 1.539 . S
C1893 C1889 1.408 . S
C1893 C1892 1.404 . S
C1893 H1905 0.930 . S
C1894 C1890 1.524 . S
C1894 H1906 0.956 . S
C1894 H1907 0.961 . S
C1894 H1908 0.961 . S
C1895 C1892 1.539 . S
C1895 H1909 0.958 . S
C1895 H1910 0.961 . S
C1895 H1911 0.960 . S
H1896 C1880 0.931 . S
H1897 C1885 0.929 . S
H1898 C1886 0.960 . S
H1899 C1886 0.962 . S
H1900 C1886 0.960 . S
H1901 C1887 0.961 . S
H1902 C1887 0.961 . S
H1903 C1887 0.961 . S
H1904 C1888 0.931 . S
H1905 C1893 0.930 . S
H1906 C1894 0.956 . S
H1907 C1894 0.961 . S
H1908 C1894 0.961 . S
H1909 C1895 0.958 . S
H1910 C1895 0.961 . S
H1911 C1895 0.960 . S
C1912 C1913 1.391 . S
C1912 C1914 1.394 . S
C1912 H1928 0.931 . S
C1913 C1912 1.391 . S
C1913 C1917 1.376 1_554 S
C1914 C1912 1.394 . S
C1914 C1915 1.369 . S
C1914 C1918 1.531 . S
C1915 C1914 1.369 . S
C1915 C1916 1.410 1_554 S
C1915 C1923 1.503 . S
C1916 C1915 1.410 1_556 S
C1916 C1917 1.392 . S
C1916 C1919 1.511 . S
C1917 C1913 1.376 1_556 S
C1917 C1916 1.392 . S
C1917 H1929 0.929 . S
C1918 C1914 1.531 . S
C1918 H1930 0.960 . S
C1918 H1931 0.962 . S
C1918 H1932 0.960 . S
C1919 C1916 1.511 . S
C1919 H1933 0.961 . S
C1919 H1934 0.961 . S
C1919 H1935 0.961 . S
C1920 C1921 1.370 1_556 S
C1920 C1922 1.363 . S
C1920 H1936 0.931 . S
C1921 C1920 1.370 1_554 S
C1921 C1925 1.408 . S
C1922 C1920 1.363 . S
C1922 C1923 1.370 1_556 S
C1922 C1926 1.524 . S
C1923 C1915 1.503 . S
C1923 C1922 1.370 1_554 S
C1923 C1924 1.403 . S
C1924 C1923 1.403 . S
C1924 C1925 1.404 . S
C1924 C1927 1.539 . S
C1925 C1921 1.408 . S
C1925 C1924 1.404 . S
C1925 H1937 0.930 . S
C1926 C1922 1.524 . S
C1926 H1938 0.956 . S
C1926 H1939 0.961 . S
C1926 H1940 0.961 . S
C1927 C1924 1.539 . S
C1927 H1941 0.958 . S
C1927 H1942 0.961 . S
C1927 H1943 0.960 . S
H1928 C1912 0.931 . S
H1929 C1917 0.929 . S
H1930 C1918 0.960 . S
H1931 C1918 0.962 . S
H1932 C1918 0.960 . S
H1933 C1919 0.961 . S
H1934 C1919 0.961 . S
H1935 C1919 0.961 . S
H1936 C1920 0.931 . S
H1937 C1925 0.930 . S
H1938 C1926 0.956 . S
H1939 C1926 0.961 . S
H1940 C1926 0.961 . S
H1941 C1927 0.958 . S
H1942 C1927 0.961 . S
H1943 C1927 0.960 . S
C1944 C1945 1.391 . S
C1944 C1946 1.394 1_554 S
C1944 H1960 0.931 1_554 S
C1945 C1944 1.391 . S
C1945 C1949 1.376 . S
C1946 C1944 1.394 1_556 S
C1946 C1947 1.370 1_556 S
C1946 C1950 1.529 . S
C1947 C1946 1.370 1_554 S
C1947 C1948 1.410 . S
C1947 C1955 1.503 . S
C1948 C1947 1.410 . S
C1948 C1949 1.392 . S
C1948 C1951 1.511 . S
C1949 C1945 1.376 . S
C1949 C1948 1.392 . S
C1949 H1961 0.929 . S
C1950 C1946 1.529 . S
C1950 H1962 0.960 . S
C1950 H1963 0.962 1_556 S
C1950 H1964 0.960 . S
C1951 C1948 1.511 . S
C1951 H1965 0.961 . S
C1951 H1966 0.961 . S
C1951 H1967 0.961 . S
C1952 C1953 1.370 . S
C1952 C1954 1.363 . S
C1952 H1968 0.931 . S
C1953 C1952 1.370 . S
C1953 C1957 1.408 1_554 S
C1954 C1952 1.363 . S
C1954 C1955 1.370 . S
C1954 C1958 1.524 . S
C1955 C1947 1.503 . S
C1955 C1954 1.370 . S
C1955 C1956 1.403 1_554 S
C1956 C1955 1.403 1_556 S
C1956 C1957 1.404 . S
C1956 C1959 1.539 . S
C1957 C1953 1.408 1_556 S
C1957 C1956 1.404 . S
C1957 H1969 0.930 . S
C1958 C1954 1.524 . S
C1958 H1970 0.956 . S
C1958 H1971 0.961 . S
C1958 H1972 0.961 . S
C1959 C1956 1.539 . S
C1959 H1973 0.958 . S
C1959 H1974 0.961 . S
C1959 H1975 0.960 . S
H1960 C1944 0.931 1_556 S
H1961 C1949 0.929 . S
H1962 C1950 0.960 . S
H1963 C1950 0.962 1_554 S
H1964 C1950 0.960 . S
H1965 C1951 0.961 . S
H1966 C1951 0.961 . S
H1967 C1951 0.961 . S
H1968 C1952 0.931 . S
H1969 C1957 0.930 . S
H1970 C1958 0.956 . S
H1971 C1958 0.961 . S
H1972 C1958 0.961 . S
H1973 C1959 0.958 . S
H1974 C1959 0.961 . S
H1975 C1959 0.960 . S
C1976 C1977 1.391 . S
C1976 C1978 1.394 . S
C1976 H1992 0.931 . S
C1977 C1976 1.391 . S
C1977 C1981 1.376 . S
C1978 C1976 1.394 . S
C1978 C1979 1.369 . S
C1978 C1982 1.531 . S
C1979 C1978 1.369 . S
C1979 C1980 1.410 . S
C1979 C1987 1.503 . S
C1980 C1979 1.410 . S
C1980 C1981 1.392 . S
C1980 C1983 1.511 . S
C1981 C1977 1.376 . S
C1981 C1980 1.392 . S
C1981 H1993 0.929 . S
C1982 C1978 1.531 . S
C1982 H1994 0.960 . S
C1982 H1995 0.962 . S
C1982 H1996 0.960 . S
C1983 C1980 1.511 . S
C1983 H1997 0.961 . S
C1983 H1998 0.961 . S
C1983 H1999 0.961 . S
C1984 C1985 1.370 . S
C1984 C1986 1.363 . S
C1984 H2000 0.931 . S
C1985 C1984 1.370 . S
C1985 C1989 1.408 . S
C1986 C1984 1.363 . S
C1986 C1987 1.370 . S
C1986 C1990 1.524 . S
C1987 C1979 1.503 . S
C1987 C1986 1.370 . S
C1987 C1988 1.403 . S
C1988 C1987 1.403 . S
C1988 C1989 1.404 . S
C1988 C1991 1.539 . S
C1989 C1985 1.408 . S
C1989 C1988 1.404 . S
C1989 H2001 0.930 . S
C1990 C1986 1.524 . S
C1990 H2002 0.956 . S
C1990 H2003 0.961 . S
C1990 H2004 0.961 . S
C1991 C1988 1.539 . S
C1991 H2005 0.958 . S
C1991 H2006 0.961 . S
C1991 H2007 0.960 . S
H1992 C1976 0.931 . S
H1993 C1981 0.929 . S
H1994 C1982 0.960 . S
H1995 C1982 0.962 . S
H1996 C1982 0.960 . S
H1997 C1983 0.961 . S
H1998 C1983 0.961 . S
H1999 C1983 0.961 . S
H2000 C1984 0.931 . S
H2001 C1989 0.930 . S
H2002 C1990 0.956 . S
H2003 C1990 0.961 . S
H2004 C1990 0.961 . S
H2005 C1991 0.958 . S
H2006 C1991 0.961 . S
H2007 C1991 0.960 . S
C2008 C2009 1.391 . S
C2008 C2010 1.394 . S
C2008 H2024 0.931 . S
C2009 C2008 1.391 . S
C2009 C2013 1.376 . S
C2010 C2008 1.394 . S
C2010 C2011 1.369 . S
C2010 C2014 1.531 . S
C2011 C2010 1.369 . S
C2011 C2012 1.410 . S
C2011 C2019 1.503 . S
C2012 C2011 1.410 . S
C2012 C2013 1.392 . S
C2012 C2015 1.511 . S
C2013 C2009 1.376 . S
C2013 C2012 1.392 . S
C2013 H2025 0.929 . S
C2014 C2010 1.531 . S
C2014 H2026 0.960 . S
C2014 H2027 0.962 . S
C2014 H2028 0.960 . S
C2015 C2012 1.511 . S
C2015 H2029 0.961 . S
C2015 H2030 0.961 . S
C2015 H2031 0.961 . S
C2016 C2017 1.370 . S
C2016 C2018 1.363 . S
C2016 H2032 0.931 . S
C2017 C2016 1.370 . S
C2017 C2021 1.408 . S
C2018 C2016 1.363 . S
C2018 C2019 1.370 . S
C2018 C2022 1.524 . S
C2019 C2011 1.503 . S
C2019 C2018 1.370 . S
C2019 C2020 1.403 . S
C2020 C2019 1.403 . S
C2020 C2021 1.404 . S
C2020 C2023 1.539 . S
C2021 C2017 1.408 . S
C2021 C2020 1.404 . S
C2021 H2033 0.930 . S
C2022 C2018 1.524 . S
C2022 H2034 0.956 . S
C2022 H2035 0.961 . S
C2022 H2036 0.961 . S
C2023 C2020 1.539 . S
C2023 H2037 0.958 . S
C2023 H2038 0.961 . S
C2023 H2039 0.960 . S
H2024 C2008 0.931 . S
H2025 C2013 0.929 . S
H2026 C2014 0.960 . S
H2027 C2014 0.962 . S
H2028 C2014 0.960 . S
H2029 C2015 0.961 . S
H2030 C2015 0.961 . S
H2031 C2015 0.961 . S
H2032 C2016 0.931 . S
H2033 C2021 0.930 . S
H2034 C2022 0.956 . S
H2035 C2022 0.961 . S
H2036 C2022 0.961 . S
H2037 C2023 0.958 . S
H2038 C2023 0.961 . S
H2039 C2023 0.960 . S
C2040 C2041 1.391 . S
C2040 C2042 1.394 . S
C2040 H2056 0.931 . S
C2041 C2040 1.391 . S
C2041 C2045 1.376 . S
C2042 C2040 1.394 . S
C2042 C2043 1.369 . S
C2042 C2046 1.531 . S
C2043 C2042 1.369 . S
C2043 C2044 1.410 . S
C2043 C2051 1.503 . S
C2044 C2043 1.410 . S
C2044 C2045 1.392 . S
C2044 C2047 1.511 . S
C2045 C2041 1.376 . S
C2045 C2044 1.392 . S
C2045 H2057 0.929 . S
C2046 C2042 1.531 . S
C2046 H2058 0.960 . S
C2046 H2059 0.962 . S
C2046 H2060 0.960 . S
C2047 C2044 1.511 . S
C2047 H2061 0.961 . S
C2047 H2062 0.961 . S
C2047 H2063 0.961 . S
C2048 C2049 1.370 . S
C2048 C2050 1.363 . S
C2048 H2064 0.931 . S
C2049 C2048 1.370 . S
C2049 C2053 1.408 . S
C2050 C2048 1.363 . S
C2050 C2051 1.370 . S
C2050 C2054 1.524 . S
C2051 C2043 1.503 . S
C2051 C2050 1.370 . S
C2051 C2052 1.403 . S
C2052 C2051 1.403 . S
C2052 C2053 1.404 . S
C2052 C2055 1.539 . S
C2053 C2049 1.408 . S
C2053 C2052 1.404 . S
C2053 H2065 0.930 . S
C2054 C2050 1.524 . S
C2054 H2066 0.956 . S
C2054 H2067 0.961 . S
C2054 H2068 0.961 . S
C2055 C2052 1.539 . S
C2055 H2069 0.958 . S
C2055 H2070 0.961 . S
C2055 H2071 0.960 . S
H2056 C2040 0.931 . S
H2057 C2045 0.929 . S
H2058 C2046 0.960 . S
H2059 C2046 0.962 . S
H2060 C2046 0.960 . S
H2061 C2047 0.961 . S
H2062 C2047 0.961 . S
H2063 C2047 0.961 . S
H2064 C2048 0.931 . S
H2065 C2053 0.930 . S
H2066 C2054 0.956 . S
H2067 C2054 0.961 . S
H2068 C2054 0.961 . S
H2069 C2055 0.958 . S
H2070 C2055 0.961 . S
H2071 C2055 0.960 . S
C2072 C2073 1.391 . S
C2072 C2074 1.394 . S
C2072 H2088 0.931 . S
C2073 C2072 1.391 . S
C2073 C2077 1.376 . S
C2074 C2072 1.394 . S
C2074 C2075 1.369 . S
C2074 C2078 1.531 . S
C2075 C2074 1.369 . S
C2075 C2076 1.410 . S
C2075 C2083 1.503 . S
C2076 C2075 1.410 . S
C2076 C2077 1.392 . S
C2076 C2079 1.511 . S
C2077 C2073 1.376 . S
C2077 C2076 1.392 . S
C2077 H2089 0.929 . S
C2078 C2074 1.531 . S
C2078 H2090 0.960 . S
C2078 H2091 0.962 . S
C2078 H2092 0.960 . S
C2079 C2076 1.511 . S
C2079 H2093 0.961 . S
C2079 H2094 0.961 . S
C2079 H2095 0.961 . S
C2080 C2081 1.370 . S
C2080 C2082 1.363 . S
C2080 H2096 0.931 . S
C2081 C2080 1.370 . S
C2081 C2085 1.408 . S
C2082 C2080 1.363 . S
C2082 C2083 1.370 . S
C2082 C2086 1.524 . S
C2083 C2075 1.503 . S
C2083 C2082 1.370 . S
C2083 C2084 1.403 . S
C2084 C2083 1.403 . S
C2084 C2085 1.404 . S
C2084 C2087 1.539 . S
C2085 C2081 1.408 . S
C2085 C2084 1.404 . S
C2085 H2097 0.930 . S
C2086 C2082 1.524 . S
C2086 H2098 0.956 . S
C2086 H2099 0.961 . S
C2086 H2100 0.961 . S
C2087 C2084 1.539 . S
C2087 H2101 0.958 . S
C2087 H2102 0.961 . S
C2087 H2103 0.960 . S
H2088 C2072 0.931 . S
H2089 C2077 0.929 . S
H2090 C2078 0.960 . S
H2091 C2078 0.962 . S
H2092 C2078 0.960 . S
H2093 C2079 0.961 . S
H2094 C2079 0.961 . S
H2095 C2079 0.961 . S
H2096 C2080 0.931 . S
H2097 C2085 0.930 . S
H2098 C2086 0.956 . S
H2099 C2086 0.961 . S
H2100 C2086 0.961 . S
H2101 C2087 0.958 . S
H2102 C2087 0.961 . S
H2103 C2087 0.960 . S
C2104 C2105 1.391 . S
C2104 C2106 1.394 . S
C2104 H2120 0.931 . S
C2105 C2104 1.391 . S
C2105 C2109 1.376 . S
C2106 C2104 1.394 . S
C2106 C2107 1.369 . S
C2106 C2110 1.531 . S
C2107 C2106 1.369 . S
C2107 C2108 1.410 . S
C2107 C2115 1.503 . S
C2108 C2107 1.410 . S
C2108 C2109 1.392 . S
C2108 C2111 1.511 . S
C2109 C2105 1.376 . S
C2109 C2108 1.392 . S
C2109 H2121 0.929 . S
C2110 C2106 1.531 . S
C2110 H2122 0.960 . S
C2110 H2123 0.962 . S
C2110 H2124 0.960 . S
C2111 C2108 1.511 . S
C2111 H2125 0.961 . S
C2111 H2126 0.961 . S
C2111 H2127 0.961 . S
C2112 C2113 1.370 . S
C2112 C2114 1.363 . S
C2112 H2128 0.931 . S
C2113 C2112 1.370 . S
C2113 C2117 1.408 . S
C2114 C2112 1.363 . S
C2114 C2115 1.370 . S
C2114 C2118 1.524 . S
C2115 C2107 1.503 . S
C2115 C2114 1.370 . S
C2115 C2116 1.403 . S
C2116 C2115 1.403 . S
C2116 C2117 1.404 . S
C2116 C2119 1.539 . S
C2117 C2113 1.408 . S
C2117 C2116 1.404 . S
C2117 H2129 0.930 . S
C2118 C2114 1.524 . S
C2118 H2130 0.956 . S
C2118 H2131 0.961 . S
C2118 H2132 0.961 . S
C2119 C2116 1.539 . S
C2119 H2133 0.958 . S
C2119 H2134 0.961 . S
C2119 H2135 0.960 . S
H2120 C2104 0.931 . S
H2121 C2109 0.929 . S
H2122 C2110 0.960 . S
H2123 C2110 0.962 . S
H2124 C2110 0.960 . S
H2125 C2111 0.961 . S
H2126 C2111 0.961 . S
H2127 C2111 0.961 . S
H2128 C2112 0.931 . S
H2129 C2117 0.930 . S
H2130 C2118 0.956 . S
H2131 C2118 0.961 . S
H2132 C2118 0.961 . S
H2133 C2119 0.958 . S
H2134 C2119 0.961 . S
H2135 C2119 0.960 . S
C2136 C2137 1.391 . S
C2136 C2138 1.394 . S
C2136 H2152 0.931 . S
C2137 C2136 1.391 . S
C2137 C2141 1.376 . S
C2138 C2136 1.394 . S
C2138 C2139 1.369 . S
C2138 C2142 1.531 . S
C2139 C2138 1.369 . S
C2139 C2140 1.410 . S
C2139 C2147 1.503 . S
C2140 C2139 1.410 . S
C2140 C2141 1.392 . S
C2140 C2143 1.511 . S
C2141 C2137 1.376 . S
C2141 C2140 1.392 . S
C2141 H2153 0.929 . S
C2142 C2138 1.531 . S
C2142 H2154 0.960 . S
C2142 H2155 0.962 . S
C2142 H2156 0.960 . S
C2143 C2140 1.511 . S
C2143 H2157 0.961 . S
C2143 H2158 0.961 . S
C2143 H2159 0.961 . S
C2144 C2145 1.370 . S
C2144 C2146 1.363 . S
C2144 H2160 0.931 . S
C2145 C2144 1.370 . S
C2145 C2149 1.408 . S
C2146 C2144 1.363 . S
C2146 C2147 1.370 . S
C2146 C2150 1.524 . S
C2147 C2139 1.503 . S
C2147 C2146 1.370 . S
C2147 C2148 1.403 . S
C2148 C2147 1.403 . S
C2148 C2149 1.404 . S
C2148 C2151 1.539 . S
C2149 C2145 1.408 . S
C2149 C2148 1.404 . S
C2149 H2161 0.930 . S
C2150 C2146 1.524 . S
C2150 H2162 0.956 . S
C2150 H2163 0.961 . S
C2150 H2164 0.961 . S
C2151 C2148 1.539 . S
C2151 H2165 0.958 . S
C2151 H2166 0.961 . S
C2151 H2167 0.960 . S
H2152 C2136 0.931 . S
H2153 C2141 0.929 . S
H2154 C2142 0.960 . S
H2155 C2142 0.962 . S
H2156 C2142 0.960 . S
H2157 C2143 0.961 . S
H2158 C2143 0.961 . S
H2159 C2143 0.961 . S
H2160 C2144 0.931 . S
H2161 C2149 0.930 . S
H2162 C2150 0.956 . S
H2163 C2150 0.961 . S
H2164 C2150 0.961 . S
H2165 C2151 0.958 . S
H2166 C2151 0.961 . S
H2167 C2151 0.960 . S
C2168 C2169 1.391 . S
C2168 C2170 1.394 . S
C2168 H2184 0.931 . S
C2169 C2168 1.391 . S
C2169 C2173 1.376 . S
C2170 C2168 1.394 . S
C2170 C2171 1.369 . S
C2170 C2174 1.531 . S
C2171 C2170 1.369 . S
C2171 C2172 1.410 . S
C2171 C2179 1.503 . S
C2172 C2171 1.410 . S
C2172 C2173 1.392 . S
C2172 C2175 1.511 . S
C2173 C2169 1.376 . S
C2173 C2172 1.392 . S
C2173 H2185 0.929 . S
C2174 C2170 1.531 . S
C2174 H2186 0.960 . S
C2174 H2187 0.962 . S
C2174 H2188 0.960 . S
C2175 C2172 1.511 . S
C2175 H2189 0.961 . S
C2175 H2190 0.961 . S
C2175 H2191 0.961 . S
C2176 C2177 1.370 . S
C2176 C2178 1.363 . S
C2176 H2192 0.931 . S
C2177 C2176 1.370 . S
C2177 C2181 1.408 . S
C2178 C2176 1.363 . S
C2178 C2179 1.370 . S
C2178 C2182 1.524 . S
C2179 C2171 1.503 . S
C2179 C2178 1.370 . S
C2179 C2180 1.403 . S
C2180 C2179 1.403 . S
C2180 C2181 1.404 . S
C2180 C2183 1.539 . S
C2181 C2177 1.408 . S
C2181 C2180 1.404 . S
C2181 H2193 0.930 . S
C2182 C2178 1.524 . S
C2182 H2194 0.956 . S
C2182 H2195 0.961 . S
C2182 H2196 0.961 . S
C2183 C2180 1.539 . S
C2183 H2197 0.958 . S
C2183 H2198 0.961 . S
C2183 H2199 0.960 . S
H2184 C2168 0.931 . S
H2185 C2173 0.929 . S
H2186 C2174 0.960 . S
H2187 C2174 0.962 . S
H2188 C2174 0.960 . S
H2189 C2175 0.961 . S
H2190 C2175 0.961 . S
H2191 C2175 0.961 . S
H2192 C2176 0.931 . S
H2193 C2181 0.930 . S
H2194 C2182 0.956 . S
H2195 C2182 0.961 . S
H2196 C2182 0.961 . S
H2197 C2183 0.958 . S
H2198 C2183 0.961 . S
H2199 C2183 0.960 . S
C2200 C2201 1.391 . S
C2200 C2202 1.394 . S
C2200 H2216 0.931 . S
C2201 C2200 1.391 . S
C2201 C2205 1.376 . S
C2202 C2200 1.394 . S
C2202 C2203 1.369 . S
C2202 C2206 1.531 . S
C2203 C2202 1.369 . S
C2203 C2204 1.410 . S
C2203 C2211 1.503 . S
C2204 C2203 1.410 . S
C2204 C2205 1.392 . S
C2204 C2207 1.511 . S
C2205 C2201 1.376 . S
C2205 C2204 1.392 . S
C2205 H2217 0.929 . S
C2206 C2202 1.531 . S
C2206 H2218 0.960 . S
C2206 H2219 0.962 . S
C2206 H2220 0.960 . S
C2207 C2204 1.511 . S
C2207 H2221 0.961 . S
C2207 H2222 0.961 . S
C2207 H2223 0.961 . S
C2208 C2209 1.370 . S
C2208 C2210 1.363 . S
C2208 H2224 0.931 . S
C2209 C2208 1.370 . S
C2209 C2213 1.408 . S
C2210 C2208 1.363 . S
C2210 C2211 1.370 . S
C2210 C2214 1.524 . S
C2211 C2203 1.503 . S
C2211 C2210 1.370 . S
C2211 C2212 1.403 . S
C2212 C2211 1.403 . S
C2212 C2213 1.404 . S
C2212 C2215 1.539 . S
C2213 C2209 1.408 . S
C2213 C2212 1.404 . S
C2213 H2225 0.930 . S
C2214 C2210 1.524 . S
C2214 H2226 0.956 . S
C2214 H2227 0.961 . S
C2214 H2228 0.961 . S
C2215 C2212 1.539 . S
C2215 H2229 0.958 . S
C2215 H2230 0.961 . S
C2215 H2231 0.960 . S
H2216 C2200 0.931 . S
H2217 C2205 0.929 . S
H2218 C2206 0.960 . S
H2219 C2206 0.962 . S
H2220 C2206 0.960 . S
H2221 C2207 0.961 . S
H2222 C2207 0.961 . S
H2223 C2207 0.961 . S
H2224 C2208 0.931 . S
H2225 C2213 0.930 . S
H2226 C2214 0.956 . S
H2227 C2214 0.961 . S
H2228 C2214 0.961 . S
H2229 C2215 0.958 . S
H2230 C2215 0.961 . S
H2231 C2215 0.960 . S
C2232 C2233 1.391 1_655 S
C2232 C2234 1.394 . S
C2232 H2248 0.931 . S
C2233 C2232 1.391 1_455 S
C2233 C2237 1.376 . S
C2234 C2232 1.394 . S
C2234 C2235 1.369 1_655 S
C2234 C2238 1.531 . S
C2235 C2234 1.369 1_455 S
C2235 C2236 1.410 . S
C2235 C2243 1.503 . S
C2236 C2235 1.410 . S
C2236 C2237 1.392 . S
C2236 C2239 1.511 . S
C2237 C2233 1.376 . S
C2237 C2236 1.392 . S
C2237 H2249 0.929 . S
C2238 C2234 1.531 . S
C2238 H2250 0.960 . S
C2238 H2251 0.962 . S
C2238 H2252 0.960 . S
C2239 C2236 1.511 . S
C2239 H2253 0.961 . S
C2239 H2254 0.961 . S
C2239 H2255 0.961 . S
C2240 C2241 1.370 1_556 S
C2240 C2242 1.363 . S
C2240 H2256 0.931 . S
C2241 C2240 1.370 1_554 S
C2241 C2245 1.408 . S
C2242 C2240 1.363 . S
C2242 C2243 1.370 . S
C2242 C2246 1.524 . S
C2243 C2235 1.503 . S
C2243 C2242 1.370 . S
C2243 C2244 1.403 1_556 S
C2244 C2243 1.403 1_554 S
C2244 C2245 1.404 . S
C2244 C2247 1.539 . S
C2245 C2241 1.408 . S
C2245 C2244 1.404 . S
C2245 H2257 0.930 . S
C2246 C2242 1.524 . S
C2246 H2258 0.956 1_455 S
C2246 H2259 0.961 . S
C2246 H2260 0.961 . S
C2247 C2244 1.539 . S
C2247 H2261 0.958 1_455 S
C2247 H2262 0.961 . S
C2247 H2263 0.960 . S
H2248 C2232 0.931 . S
H2249 C2237 0.929 . S
H2250 C2238 0.960 . S
H2251 C2238 0.962 . S
H2252 C2238 0.960 . S
H2253 C2239 0.961 . S
H2254 C2239 0.961 . S
H2255 C2239 0.961 . S
H2256 C2240 0.931 . S
H2257 C2245 0.930 . S
H2258 C2246 0.956 1_655 S
H2259 C2246 0.961 . S
H2260 C2246 0.961 . S
H2261 C2247 0.958 1_655 S
H2262 C2247 0.961 . S
H2263 C2247 0.960 . S
C2264 C2265 1.391 . S
C2264 C2266 1.394 . S
C2264 H2280 0.931 . S
C2265 C2264 1.391 . S
C2265 C2269 1.376 . S
C2266 C2264 1.394 . S
C2266 C2267 1.369 . S
C2266 C2270 1.531 . S
C2267 C2266 1.369 . S
C2267 C2268 1.410 . S
C2267 C2275 1.503 . S
C2268 C2267 1.410 . S
C2268 C2269 1.392 . S
C2268 C2271 1.511 . S
C2269 C2265 1.376 . S
C2269 C2268 1.392 . S
C2269 H2281 0.929 . S
C2270 C2266 1.531 . S
C2270 H2282 0.960 . S
C2270 H2283 0.962 . S
C2270 H2284 0.960 . S
C2271 C2268 1.511 . S
C2271 H2285 0.961 . S
C2271 H2286 0.961 . S
C2271 H2287 0.961 . S
C2272 C2273 1.370 . S
C2272 C2274 1.363 . S
C2272 H2288 0.931 . S
C2273 C2272 1.370 . S
C2273 C2277 1.408 . S
C2274 C2272 1.363 . S
C2274 C2275 1.370 . S
C2274 C2278 1.524 . S
C2275 C2267 1.503 . S
C2275 C2274 1.370 . S
C2275 C2276 1.403 . S
C2276 C2275 1.403 . S
C2276 C2277 1.404 . S
C2276 C2279 1.539 . S
C2277 C2273 1.408 . S
C2277 C2276 1.404 . S
C2277 H2289 0.930 . S
C2278 C2274 1.524 . S
C2278 H2290 0.956 . S
C2278 H2291 0.961 . S
C2278 H2292 0.961 . S
C2279 C2276 1.539 . S
C2279 H2293 0.958 . S
C2279 H2294 0.961 . S
C2279 H2295 0.960 . S
H2280 C2264 0.931 . S
H2281 C2269 0.929 . S
H2282 C2270 0.960 . S
H2283 C2270 0.962 . S
H2284 C2270 0.960 . S
H2285 C2271 0.961 . S
H2286 C2271 0.961 . S
H2287 C2271 0.961 . S
H2288 C2272 0.931 . S
H2289 C2277 0.930 . S
H2290 C2278 0.956 . S
H2291 C2278 0.961 . S
H2292 C2278 0.961 . S
H2293 C2279 0.958 . S
H2294 C2279 0.961 . S
H2295 C2279 0.960 . S
C2296 C2297 1.391 . S
C2296 C2298 1.394 . S
C2296 H2312 0.931 . S
C2297 C2296 1.391 . S
C2297 C2301 1.376 . S
C2298 C2296 1.394 . S
C2298 C2299 1.369 . S
C2298 C2302 1.531 . S
C2299 C2298 1.369 . S
C2299 C2300 1.410 . S
C2299 C2307 1.503 . S
C2300 C2299 1.410 . S
C2300 C2301 1.392 . S
C2300 C2303 1.511 . S
C2301 C2297 1.376 . S
C2301 C2300 1.392 . S
C2301 H2313 0.929 . S
C2302 C2298 1.531 . S
C2302 H2314 0.960 . S
C2302 H2315 0.962 . S
C2302 H2316 0.960 . S
C2303 C2300 1.511 . S
C2303 H2317 0.961 . S
C2303 H2318 0.961 . S
C2303 H2319 0.961 . S
C2304 C2305 1.370 . S
C2304 C2306 1.363 . S
C2304 H2320 0.931 . S
C2305 C2304 1.370 . S
C2305 C2309 1.408 . S
C2306 C2304 1.363 . S
C2306 C2307 1.370 . S
C2306 C2310 1.524 . S
C2307 C2299 1.503 . S
C2307 C2306 1.370 . S
C2307 C2308 1.403 . S
C2308 C2307 1.403 . S
C2308 C2309 1.404 . S
C2308 C2311 1.539 . S
C2309 C2305 1.408 . S
C2309 C2308 1.404 . S
C2309 H2321 0.930 . S
C2310 C2306 1.524 . S
C2310 H2322 0.956 . S
C2310 H2323 0.961 . S
C2310 H2324 0.961 . S
C2311 C2308 1.539 . S
C2311 H2325 0.958 . S
C2311 H2326 0.961 . S
C2311 H2327 0.960 . S
H2312 C2296 0.931 . S
H2313 C2301 0.929 . S
H2314 C2302 0.960 . S
H2315 C2302 0.962 . S
H2316 C2302 0.960 . S
H2317 C2303 0.961 . S
H2318 C2303 0.961 . S
H2319 C2303 0.961 . S
H2320 C2304 0.931 . S
H2321 C2309 0.930 . S
H2322 C2310 0.956 . S
H2323 C2310 0.961 . S
H2324 C2310 0.961 . S
H2325 C2311 0.958 . S
H2326 C2311 0.961 . S
H2327 C2311 0.960 . S
C2328 C2329 1.391 . S
C2328 C2330 1.394 . S
C2328 H2344 0.931 . S
C2329 C2328 1.391 . S
C2329 C2333 1.376 . S
C2330 C2328 1.394 . S
C2330 C2331 1.369 . S
C2330 C2334 1.531 . S
C2331 C2330 1.369 . S
C2331 C2332 1.410 . S
C2331 C2339 1.503 . S
C2332 C2331 1.410 . S
C2332 C2333 1.392 . S
C2332 C2335 1.511 . S
C2333 C2329 1.376 . S
C2333 C2332 1.392 . S
C2333 H2345 0.929 . S
C2334 C2330 1.531 . S
C2334 H2346 0.960 . S
C2334 H2347 0.962 . S
C2334 H2348 0.960 . S
C2335 C2332 1.511 . S
C2335 H2349 0.961 . S
C2335 H2350 0.961 . S
C2335 H2351 0.961 . S
C2336 C2337 1.370 . S
C2336 C2338 1.363 . S
C2336 H2352 0.931 . S
C2337 C2336 1.370 . S
C2337 C2341 1.408 . S
C2338 C2336 1.363 . S
C2338 C2339 1.370 . S
C2338 C2342 1.524 . S
C2339 C2331 1.503 . S
C2339 C2338 1.370 . S
C2339 C2340 1.403 . S
C2340 C2339 1.403 . S
C2340 C2341 1.404 . S
C2340 C2343 1.539 . S
C2341 C2337 1.408 . S
C2341 C2340 1.404 . S
C2341 H2353 0.930 . S
C2342 C2338 1.524 . S
C2342 H2354 0.956 . S
C2342 H2355 0.961 . S
C2342 H2356 0.961 . S
C2343 C2340 1.539 . S
C2343 H2357 0.958 . S
C2343 H2358 0.961 . S
C2343 H2359 0.960 . S
H2344 C2328 0.931 . S
H2345 C2333 0.929 . S
H2346 C2334 0.960 . S
H2347 C2334 0.962 . S
H2348 C2334 0.960 . S
H2349 C2335 0.961 . S
H2350 C2335 0.961 . S
H2351 C2335 0.961 . S
H2352 C2336 0.931 . S
H2353 C2341 0.930 . S
H2354 C2342 0.956 . S
H2355 C2342 0.961 . S
H2356 C2342 0.961 . S
H2357 C2343 0.958 . S
H2358 C2343 0.961 . S
H2359 C2343 0.960 . S
C2360 C2361 1.391 1_655 S
C2360 C2362 1.394 1_655 S
C2360 H2376 0.931 . S
C2361 C2360 1.391 1_455 S
C2361 C2365 1.376 . S
C2362 C2360 1.394 1_455 S
C2362 C2363 1.369 . S
C2362 C2366 1.531 1_455 S
C2363 C2362 1.369 . S
C2363 C2364 1.410 . S
C2363 C2371 1.503 . S
C2364 C2363 1.410 . S
C2364 C2365 1.392 . S
C2364 C2367 1.511 . S
C2365 C2361 1.376 . S
C2365 C2364 1.392 . S
C2365 H2377 0.929 . S
C2366 C2362 1.531 1_655 S
C2366 H2378 0.960 1_655 S
C2366 H2379 0.962 . S
C2366 H2380 0.960 1_655 S
C2367 C2364 1.511 . S
C2367 H2381 0.961 . S
C2367 H2382 0.961 . S
C2367 H2383 0.961 . S
C2368 C2369 1.370 1_655 S
C2368 C2370 1.363 . S
C2368 H2384 0.931 . S
C2369 C2368 1.370 1_455 S
C2369 C2373 1.408 . S
C2370 C2368 1.363 . S
C2370 C2371 1.370 1_655 S
C2370 C2374 1.524 . S
C2371 C2363 1.503 . S
C2371 C2370 1.370 1_455 S
C2371 C2372 1.403 . S
C2372 C2371 1.403 . S
C2372 C2373 1.404 . S
C2372 C2375 1.539 . S
C2373 C2369 1.408 . S
C2373 C2372 1.404 . S
C2373 H2385 0.930 . S
C2374 C2370 1.524 . S
C2374 H2386 0.956 . S
C2374 H2387 0.961 . S
C2374 H2388 0.961 . S
C2375 C2372 1.539 . S
C2375 H2389 0.958 . S
C2375 H2390 0.961 . S
C2375 H2391 0.960 . S
H2376 C2360 0.931 . S
H2377 C2365 0.929 . S
H2378 C2366 0.960 1_455 S
H2379 C2366 0.962 . S
H2380 C2366 0.960 1_455 S
H2381 C2367 0.961 . S
H2382 C2367 0.961 . S
H2383 C2367 0.961 . S
H2384 C2368 0.931 . S
H2385 C2373 0.930 . S
H2386 C2374 0.956 . S
H2387 C2374 0.961 . S
H2388 C2374 0.961 . S
H2389 C2375 0.958 . S
H2390 C2375 0.961 . S
H2391 C2375 0.960 . S
C2392 C2393 1.391 . S
C2392 C2394 1.394 . S
C2392 H2408 0.931 . S
C2393 C2392 1.391 . S
C2393 C2397 1.376 . S
C2394 C2392 1.394 . S
C2394 C2395 1.369 . S
C2394 C2398 1.531 . S
C2395 C2394 1.369 . S
C2395 C2396 1.410 . S
C2395 C2403 1.503 . S
C2396 C2395 1.410 . S
C2396 C2397 1.392 . S
C2396 C2399 1.511 . S
C2397 C2393 1.376 . S
C2397 C2396 1.392 . S
C2397 H2409 0.929 . S
C2398 C2394 1.531 . S
C2398 H2410 0.960 . S
C2398 H2411 0.962 . S
C2398 H2412 0.960 . S
C2399 C2396 1.511 . S
C2399 H2413 0.961 . S
C2399 H2414 0.961 . S
C2399 H2415 0.961 . S
C2400 C2401 1.370 . S
C2400 C2402 1.363 . S
C2400 H2416 0.931 . S
C2401 C2400 1.370 . S
C2401 C2405 1.408 . S
C2402 C2400 1.363 . S
C2402 C2403 1.370 . S
C2402 C2406 1.524 . S
C2403 C2395 1.503 . S
C2403 C2402 1.370 . S
C2403 C2404 1.403 . S
C2404 C2403 1.403 . S
C2404 C2405 1.404 . S
C2404 C2407 1.539 . S
C2405 C2401 1.408 . S
C2405 C2404 1.404 . S
C2405 H2417 0.930 . S
C2406 C2402 1.524 . S
C2406 H2418 0.956 . S
C2406 H2419 0.961 . S
C2406 H2420 0.961 . S
C2407 C2404 1.539 . S
C2407 H2421 0.958 . S
C2407 H2422 0.961 . S
C2407 H2423 0.960 . S
H2408 C2392 0.931 . S
H2409 C2397 0.929 . S
H2410 C2398 0.960 . S
H2411 C2398 0.962 . S
H2412 C2398 0.960 . S
H2413 C2399 0.961 . S
H2414 C2399 0.961 . S
H2415 C2399 0.961 . S
H2416 C2400 0.931 . S
H2417 C2405 0.930 . S
H2418 C2406 0.956 . S
H2419 C2406 0.961 . S
H2420 C2406 0.961 . S
H2421 C2407 0.958 . S
H2422 C2407 0.961 . S
H2423 C2407 0.960 . S
C2424 C2425 1.391 . S
C2424 C2426 1.394 . S
C2424 H2440 0.931 . S
C2425 C2424 1.391 . S
C2425 C2429 1.376 . S
C2426 C2424 1.394 . S
C2426 C2427 1.369 . S
C2426 C2430 1.531 . S
C2427 C2426 1.369 . S
C2427 C2428 1.410 . S
C2427 C2435 1.503 . S
C2428 C2427 1.410 . S
C2428 C2429 1.392 . S
C2428 C2431 1.511 . S
C2429 C2425 1.376 . S
C2429 C2428 1.392 . S
C2429 H2441 0.929 . S
C2430 C2426 1.531 . S
C2430 H2442 0.960 . S
C2430 H2443 0.962 . S
C2430 H2444 0.960 . S
C2431 C2428 1.511 . S
C2431 H2445 0.961 . S
C2431 H2446 0.961 . S
C2431 H2447 0.961 . S
C2432 C2433 1.370 . S
C2432 C2434 1.363 . S
C2432 H2448 0.931 . S
C2433 C2432 1.370 . S
C2433 C2437 1.408 . S
C2434 C2432 1.363 . S
C2434 C2435 1.370 . S
C2434 C2438 1.524 . S
C2435 C2427 1.503 . S
C2435 C2434 1.370 . S
C2435 C2436 1.403 . S
C2436 C2435 1.403 . S
C2436 C2437 1.404 . S
C2436 C2439 1.539 . S
C2437 C2433 1.408 . S
C2437 C2436 1.404 . S
C2437 H2449 0.930 . S
C2438 C2434 1.524 . S
C2438 H2450 0.956 . S
C2438 H2451 0.961 . S
C2438 H2452 0.961 . S
C2439 C2436 1.539 . S
C2439 H2453 0.958 . S
C2439 H2454 0.961 . S
C2439 H2455 0.960 . S
H2440 C2424 0.931 . S
H2441 C2429 0.929 . S
H2442 C2430 0.960 . S
H2443 C2430 0.962 . S
H2444 C2430 0.960 . S
H2445 C2431 0.961 . S
H2446 C2431 0.961 . S
H2447 C2431 0.961 . S
H2448 C2432 0.931 . S
H2449 C2437 0.930 . S
H2450 C2438 0.956 . S
H2451 C2438 0.961 . S
H2452 C2438 0.961 . S
H2453 C2439 0.958 . S
H2454 C2439 0.961 . S
H2455 C2439 0.960 . S
C2456 C2457 1.391 . S
C2456 C2458 1.394 . S
C2456 H2472 0.931 . S
C2457 C2456 1.391 . S
C2457 C2461 1.376 . S
C2458 C2456 1.394 . S
C2458 C2459 1.369 . S
C2458 C2462 1.531 . S
C2459 C2458 1.369 . S
C2459 C2460 1.410 . S
C2459 C2467 1.503 . S
C2460 C2459 1.410 . S
C2460 C2461 1.392 . S
C2460 C2463 1.511 . S
C2461 C2457 1.376 . S
C2461 C2460 1.392 . S
C2461 H2473 0.929 . S
C2462 C2458 1.531 . S
C2462 H2474 0.960 . S
C2462 H2475 0.962 . S
C2462 H2476 0.960 . S
C2463 C2460 1.511 . S
C2463 H2477 0.961 . S
C2463 H2478 0.961 . S
C2463 H2479 0.961 . S
C2464 C2465 1.370 . S
C2464 C2466 1.363 . S
C2464 H2480 0.931 . S
C2465 C2464 1.370 . S
C2465 C2469 1.408 . S
C2466 C2464 1.363 . S
C2466 C2467 1.370 . S
C2466 C2470 1.524 . S
C2467 C2459 1.503 . S
C2467 C2466 1.370 . S
C2467 C2468 1.403 . S
C2468 C2467 1.403 . S
C2468 C2469 1.404 . S
C2468 C2471 1.539 . S
C2469 C2465 1.408 . S
C2469 C2468 1.404 . S
C2469 H2481 0.930 . S
C2470 C2466 1.524 . S
C2470 H2482 0.956 . S
C2470 H2483 0.961 . S
C2470 H2484 0.961 . S
C2471 C2468 1.539 . S
C2471 H2485 0.958 . S
C2471 H2486 0.961 . S
C2471 H2487 0.960 . S
H2472 C2456 0.931 . S
H2473 C2461 0.929 . S
H2474 C2462 0.960 . S
H2475 C2462 0.962 . S
H2476 C2462 0.960 . S
H2477 C2463 0.961 . S
H2478 C2463 0.961 . S
H2479 C2463 0.961 . S
H2480 C2464 0.931 . S
H2481 C2469 0.930 . S
H2482 C2470 0.956 . S
H2483 C2470 0.961 . S
H2484 C2470 0.961 . S
H2485 C2471 0.958 . S
H2486 C2471 0.961 . S
H2487 C2471 0.960 . S
C2488 C2489 1.391 . S
C2488 C2490 1.394 . S
C2488 H2504 0.931 . S
C2489 C2488 1.391 . S
C2489 C2493 1.376 . S
C2490 C2488 1.394 . S
C2490 C2491 1.369 . S
C2490 C2494 1.531 . S
C2491 C2490 1.369 . S
C2491 C2492 1.410 . S
C2491 C2499 1.503 . S
C2492 C2491 1.410 . S
C2492 C2493 1.392 . S
C2492 C2495 1.511 . S
C2493 C2489 1.376 . S
C2493 C2492 1.392 . S
C2493 H2505 0.929 . S
C2494 C2490 1.531 . S
C2494 H2506 0.960 . S
C2494 H2507 0.962 . S
C2494 H2508 0.960 . S
C2495 C2492 1.511 . S
C2495 H2509 0.961 . S
C2495 H2510 0.961 . S
C2495 H2511 0.961 . S
C2496 C2497 1.370 . S
C2496 C2498 1.363 . S
C2496 H2512 0.931 . S
C2497 C2496 1.370 . S
C2497 C2501 1.408 . S
C2498 C2496 1.363 . S
C2498 C2499 1.370 . S
C2498 C2502 1.524 . S
C2499 C2491 1.503 . S
C2499 C2498 1.370 . S
C2499 C2500 1.403 . S
C2500 C2499 1.403 . S
C2500 C2501 1.404 . S
C2500 C2503 1.539 . S
C2501 C2497 1.408 . S
C2501 C2500 1.404 . S
C2501 H2513 0.930 . S
C2502 C2498 1.524 . S
C2502 H2514 0.956 . S
C2502 H2515 0.961 . S
C2502 H2516 0.961 . S
C2503 C2500 1.539 . S
C2503 H2517 0.958 . S
C2503 H2518 0.961 . S
C2503 H2519 0.960 . S
H2504 C2488 0.931 . S
H2505 C2493 0.929 . S
H2506 C2494 0.960 . S
H2507 C2494 0.962 . S
H2508 C2494 0.960 . S
H2509 C2495 0.961 . S
H2510 C2495 0.961 . S
H2511 C2495 0.961 . S
H2512 C2496 0.931 . S
H2513 C2501 0.930 . S
H2514 C2502 0.956 . S
H2515 C2502 0.961 . S
H2516 C2502 0.961 . S
H2517 C2503 0.958 . S
H2518 C2503 0.961 . S
H2519 C2503 0.960 . S
C2520 C2521 1.391 . S
C2520 C2522 1.394 . S
C2520 H2536 0.931 . S
C2521 C2520 1.391 . S
C2521 C2525 1.376 . S
C2522 C2520 1.394 . S
C2522 C2523 1.369 . S
C2522 C2526 1.531 . S
C2523 C2522 1.369 . S
C2523 C2524 1.410 . S
C2523 C2531 1.503 . S
C2524 C2523 1.410 . S
C2524 C2525 1.392 . S
C2524 C2527 1.511 . S
C2525 C2521 1.376 . S
C2525 C2524 1.392 . S
C2525 H2537 0.929 . S
C2526 C2522 1.531 . S
C2526 H2538 0.960 . S
C2526 H2539 0.962 . S
C2526 H2540 0.960 . S
C2527 C2524 1.511 . S
C2527 H2541 0.961 . S
C2527 H2542 0.961 . S
C2527 H2543 0.961 . S
C2528 C2529 1.370 . S
C2528 C2530 1.363 . S
C2528 H2544 0.931 . S
C2529 C2528 1.370 . S
C2529 C2533 1.408 . S
C2530 C2528 1.363 . S
C2530 C2531 1.370 . S
C2530 C2534 1.524 . S
C2531 C2523 1.503 . S
C2531 C2530 1.370 . S
C2531 C2532 1.403 . S
C2532 C2531 1.403 . S
C2532 C2533 1.404 . S
C2532 C2535 1.539 . S
C2533 C2529 1.408 . S
C2533 C2532 1.404 . S
C2533 H2545 0.930 . S
C2534 C2530 1.524 . S
C2534 H2546 0.956 . S
C2534 H2547 0.961 . S
C2534 H2548 0.961 . S
C2535 C2532 1.539 . S
C2535 H2549 0.958 . S
C2535 H2550 0.961 . S
C2535 H2551 0.960 . S
H2536 C2520 0.931 . S
H2537 C2525 0.929 . S
H2538 C2526 0.960 . S
H2539 C2526 0.962 . S
H2540 C2526 0.960 . S
H2541 C2527 0.961 . S
H2542 C2527 0.961 . S
H2543 C2527 0.961 . S
H2544 C2528 0.931 . S
H2545 C2533 0.930 . S
H2546 C2534 0.956 . S
H2547 C2534 0.961 . S
H2548 C2534 0.961 . S
H2549 C2535 0.958 . S
H2550 C2535 0.961 . S
H2551 C2535 0.960 . S
C2552 C2553 1.391 . S
C2552 C2554 1.394 . S
C2552 H2568 0.931 . S
C2553 C2552 1.391 . S
C2553 C2557 1.376 . S
C2554 C2552 1.394 . S
C2554 C2555 1.369 . S
C2554 C2558 1.531 . S
C2555 C2554 1.369 . S
C2555 C2556 1.410 . S
C2555 C2563 1.503 . S
C2556 C2555 1.410 . S
C2556 C2557 1.392 . S
C2556 C2559 1.511 . S
C2557 C2553 1.376 . S
C2557 C2556 1.392 . S
C2557 H2569 0.929 . S
C2558 C2554 1.531 . S
C2558 H2570 0.960 . S
C2558 H2571 0.962 . S
C2558 H2572 0.960 . S
C2559 C2556 1.511 . S
C2559 H2573 0.961 . S
C2559 H2574 0.961 . S
C2559 H2575 0.961 . S
C2560 C2561 1.370 . S
C2560 C2562 1.363 . S
C2560 H2576 0.931 . S
C2561 C2560 1.370 . S
C2561 C2565 1.408 . S
C2562 C2560 1.363 . S
C2562 C2563 1.370 . S
C2562 C2566 1.524 . S
C2563 C2555 1.503 . S
C2563 C2562 1.370 . S
C2563 C2564 1.403 . S
C2564 C2563 1.403 . S
C2564 C2565 1.404 . S
C2564 C2567 1.539 . S
C2565 C2561 1.408 . S
C2565 C2564 1.404 . S
C2565 H2577 0.930 . S
C2566 C2562 1.524 . S
C2566 H2578 0.956 . S
C2566 H2579 0.961 . S
C2566 H2580 0.961 . S
C2567 C2564 1.539 . S
C2567 H2581 0.958 . S
C2567 H2582 0.961 . S
C2567 H2583 0.960 . S
H2568 C2552 0.931 . S
H2569 C2557 0.929 . S
H2570 C2558 0.960 . S
H2571 C2558 0.962 . S
H2572 C2558 0.960 . S
H2573 C2559 0.961 . S
H2574 C2559 0.961 . S
H2575 C2559 0.961 . S
H2576 C2560 0.931 . S
H2577 C2565 0.930 . S
H2578 C2566 0.956 . S
H2579 C2566 0.961 . S
H2580 C2566 0.961 . S
H2581 C2567 0.958 . S
H2582 C2567 0.961 . S
H2583 C2567 0.960 . S
C2584 C2585 1.391 . S
C2584 C2586 1.394 . S
C2584 H2600 0.931 . S
C2585 C2584 1.391 . S
C2585 C2589 1.376 . S
C2586 C2584 1.394 . S
C2586 C2587 1.369 . S
C2586 C2590 1.531 . S
C2587 C2586 1.369 . S
C2587 C2588 1.410 . S
C2587 C2595 1.503 . S
C2588 C2587 1.410 . S
C2588 C2589 1.392 . S
C2588 C2591 1.511 . S
C2589 C2585 1.376 . S
C2589 C2588 1.392 . S
C2589 H2601 0.929 . S
C2590 C2586 1.531 . S
C2590 H2602 0.960 . S
C2590 H2603 0.962 . S
C2590 H2604 0.960 . S
C2591 C2588 1.511 . S
C2591 H2605 0.961 . S
C2591 H2606 0.961 . S
C2591 H2607 0.961 . S
C2592 C2593 1.370 . S
C2592 C2594 1.363 . S
C2592 H2608 0.931 . S
C2593 C2592 1.370 . S
C2593 C2597 1.408 . S
C2594 C2592 1.363 . S
C2594 C2595 1.370 . S
C2594 C2598 1.524 . S
C2595 C2587 1.503 . S
C2595 C2594 1.370 . S
C2595 C2596 1.403 . S
C2596 C2595 1.403 . S
C2596 C2597 1.404 . S
C2596 C2599 1.539 . S
C2597 C2593 1.408 . S
C2597 C2596 1.404 . S
C2597 H2609 0.930 . S
C2598 C2594 1.524 . S
C2598 H2610 0.956 . S
C2598 H2611 0.961 . S
C2598 H2612 0.961 . S
C2599 C2596 1.539 . S
C2599 H2613 0.958 . S
C2599 H2614 0.961 . S
C2599 H2615 0.960 . S
H2600 C2584 0.931 . S
H2601 C2589 0.929 . S
H2602 C2590 0.960 . S
H2603 C2590 0.962 . S
H2604 C2590 0.960 . S
H2605 C2591 0.961 . S
H2606 C2591 0.961 . S
H2607 C2591 0.961 . S
H2608 C2592 0.931 . S
H2609 C2597 0.930 . S
H2610 C2598 0.956 . S
H2611 C2598 0.961 . S
H2612 C2598 0.961 . S
H2613 C2599 0.958 . S
H2614 C2599 0.961 . S
H2615 C2599 0.960 . S
C2616 C2617 1.391 . S
C2616 C2618 1.394 . S
C2616 H2632 0.931 . S
C2617 C2616 1.391 . S
C2617 C2621 1.376 . S
C2618 C2616 1.394 . S
C2618 C2619 1.369 . S
C2618 C2622 1.531 . S
C2619 C2618 1.369 . S
C2619 C2620 1.410 . S
C2619 C2627 1.503 . S
C2620 C2619 1.410 . S
C2620 C2621 1.392 . S
C2620 C2623 1.511 . S
C2621 C2617 1.376 . S
C2621 C2620 1.392 . S
C2621 H2633 0.929 . S
C2622 C2618 1.531 . S
C2622 H2634 0.960 . S
C2622 H2635 0.962 . S
C2622 H2636 0.960 . S
C2623 C2620 1.511 . S
C2623 H2637 0.961 . S
C2623 H2638 0.961 . S
C2623 H2639 0.961 . S
C2624 C2625 1.370 . S
C2624 C2626 1.363 . S
C2624 H2640 0.931 . S
C2625 C2624 1.370 . S
C2625 C2629 1.408 . S
C2626 C2624 1.363 . S
C2626 C2627 1.370 . S
C2626 C2630 1.524 . S
C2627 C2619 1.503 . S
C2627 C2626 1.370 . S
C2627 C2628 1.403 . S
C2628 C2627 1.403 . S
C2628 C2629 1.404 . S
C2628 C2631 1.539 . S
C2629 C2625 1.408 . S
C2629 C2628 1.404 . S
C2629 H2641 0.930 . S
C2630 C2626 1.524 . S
C2630 H2642 0.956 . S
C2630 H2643 0.961 . S
C2630 H2644 0.961 . S
C2631 C2628 1.539 . S
C2631 H2645 0.958 . S
C2631 H2646 0.961 . S
C2631 H2647 0.960 . S
H2632 C2616 0.931 . S
H2633 C2621 0.929 . S
H2634 C2622 0.960 . S
H2635 C2622 0.962 . S
H2636 C2622 0.960 . S
H2637 C2623 0.961 . S
H2638 C2623 0.961 . S
H2639 C2623 0.961 . S
H2640 C2624 0.931 . S
H2641 C2629 0.930 . S
H2642 C2630 0.956 . S
H2643 C2630 0.961 . S
H2644 C2630 0.961 . S
H2645 C2631 0.958 . S
H2646 C2631 0.961 . S
H2647 C2631 0.960 . S
C2648 C2649 1.391 . S
C2648 C2650 1.394 . S
C2648 H2664 0.931 . S
C2649 C2648 1.391 . S
C2649 C2653 1.376 . S
C2650 C2648 1.394 . S
C2650 C2651 1.369 . S
C2650 C2654 1.531 . S
C2651 C2650 1.369 . S
C2651 C2652 1.410 . S
C2651 C2659 1.503 . S
C2652 C2651 1.410 . S
C2652 C2653 1.392 . S
C2652 C2655 1.511 . S
C2653 C2649 1.376 . S
C2653 C2652 1.392 . S
C2653 H2665 0.929 . S
C2654 C2650 1.531 . S
C2654 H2666 0.960 . S
C2654 H2667 0.962 . S
C2654 H2668 0.960 . S
C2655 C2652 1.511 . S
C2655 H2669 0.961 . S
C2655 H2670 0.961 . S
C2655 H2671 0.961 . S
C2656 C2657 1.370 . S
C2656 C2658 1.363 . S
C2656 H2672 0.931 . S
C2657 C2656 1.370 . S
C2657 C2661 1.408 . S
C2658 C2656 1.363 . S
C2658 C2659 1.370 . S
C2658 C2662 1.524 . S
C2659 C2651 1.503 . S
C2659 C2658 1.370 . S
C2659 C2660 1.403 . S
C2660 C2659 1.403 . S
C2660 C2661 1.404 . S
C2660 C2663 1.539 . S
C2661 C2657 1.408 . S
C2661 C2660 1.404 . S
C2661 H2673 0.930 . S
C2662 C2658 1.524 . S
C2662 H2674 0.956 . S
C2662 H2675 0.961 . S
C2662 H2676 0.961 . S
C2663 C2660 1.539 . S
C2663 H2677 0.958 . S
C2663 H2678 0.961 . S
C2663 H2679 0.960 . S
H2664 C2648 0.931 . S
H2665 C2653 0.929 . S
H2666 C2654 0.960 . S
H2667 C2654 0.962 . S
H2668 C2654 0.960 . S
H2669 C2655 0.961 . S
H2670 C2655 0.961 . S
H2671 C2655 0.961 . S
H2672 C2656 0.931 . S
H2673 C2661 0.930 . S
H2674 C2662 0.956 . S
H2675 C2662 0.961 . S
H2676 C2662 0.961 . S
H2677 C2663 0.958 . S
H2678 C2663 0.961 . S
H2679 C2663 0.960 . S
C2680 C2681 1.391 . S
C2680 C2682 1.394 . S
C2680 H2696 0.931 . S
C2681 C2680 1.391 . S
C2681 C2685 1.376 . S
C2682 C2680 1.394 . S
C2682 C2683 1.369 . S
C2682 C2686 1.531 . S
C2683 C2682 1.369 . S
C2683 C2684 1.410 . S
C2683 C2691 1.503 . S
C2684 C2683 1.410 . S
C2684 C2685 1.392 . S
C2684 C2687 1.511 . S
C2685 C2681 1.376 . S
C2685 C2684 1.392 . S
C2685 H2697 0.929 . S
C2686 C2682 1.531 . S
C2686 H2698 0.960 . S
C2686 H2699 0.962 . S
C2686 H2700 0.960 . S
C2687 C2684 1.511 . S
C2687 H2701 0.961 . S
C2687 H2702 0.961 . S
C2687 H2703 0.961 . S
C2688 C2689 1.370 . S
C2688 C2690 1.363 . S
C2688 H2704 0.931 . S
C2689 C2688 1.370 . S
C2689 C2693 1.408 . S
C2690 C2688 1.363 . S
C2690 C2691 1.370 . S
C2690 C2694 1.524 . S
C2691 C2683 1.503 . S
C2691 C2690 1.370 . S
C2691 C2692 1.403 . S
C2692 C2691 1.403 . S
C2692 C2693 1.404 . S
C2692 C2695 1.539 . S
C2693 C2689 1.408 . S
C2693 C2692 1.404 . S
C2693 H2705 0.930 . S
C2694 C2690 1.524 . S
C2694 H2706 0.956 . S
C2694 H2707 0.961 . S
C2694 H2708 0.961 . S
C2695 C2692 1.539 . S
C2695 H2709 0.958 . S
C2695 H2710 0.961 . S
C2695 H2711 0.960 . S
H2696 C2680 0.931 . S
H2697 C2685 0.929 . S
H2698 C2686 0.960 . S
H2699 C2686 0.962 . S
H2700 C2686 0.960 . S
H2701 C2687 0.961 . S
H2702 C2687 0.961 . S
H2703 C2687 0.961 . S
H2704 C2688 0.931 . S
H2705 C2693 0.930 . S
H2706 C2694 0.956 . S
H2707 C2694 0.961 . S
H2708 C2694 0.961 . S
H2709 C2695 0.958 . S
H2710 C2695 0.961 . S
H2711 C2695 0.960 . S
C2712 C2713 1.391 . S
C2712 C2714 1.394 . S
C2712 H2728 0.931 . S
C2713 C2712 1.391 . S
C2713 C2717 1.376 . S
C2714 C2712 1.394 . S
C2714 C2715 1.369 . S
C2714 C2718 1.531 . S
C2715 C2714 1.369 . S
C2715 C2716 1.410 . S
C2715 C2723 1.503 . S
C2716 C2715 1.410 . S
C2716 C2717 1.392 . S
C2716 C2719 1.511 . S
C2717 C2713 1.376 . S
C2717 C2716 1.392 . S
C2717 H2729 0.929 . S
C2718 C2714 1.531 . S
C2718 H2730 0.960 . S
C2718 H2731 0.962 . S
C2718 H2732 0.960 . S
C2719 C2716 1.511 . S
C2719 H2733 0.961 . S
C2719 H2734 0.961 . S
C2719 H2735 0.961 . S
C2720 C2721 1.370 . S
C2720 C2722 1.363 . S
C2720 H2736 0.931 . S
C2721 C2720 1.370 . S
C2721 C2725 1.408 . S
C2722 C2720 1.363 . S
C2722 C2723 1.370 . S
C2722 C2726 1.524 . S
C2723 C2715 1.503 . S
C2723 C2722 1.370 . S
C2723 C2724 1.403 . S
C2724 C2723 1.403 . S
C2724 C2725 1.404 . S
C2724 C2727 1.539 . S
C2725 C2721 1.408 . S
C2725 C2724 1.404 . S
C2725 H2737 0.930 . S
C2726 C2722 1.524 . S
C2726 H2738 0.956 . S
C2726 H2739 0.961 . S
C2726 H2740 0.961 . S
C2727 C2724 1.539 . S
C2727 H2741 0.958 . S
C2727 H2742 0.961 . S
C2727 H2743 0.960 . S
H2728 C2712 0.931 . S
H2729 C2717 0.929 . S
H2730 C2718 0.960 . S
H2731 C2718 0.962 . S
H2732 C2718 0.960 . S
H2733 C2719 0.961 . S
H2734 C2719 0.961 . S
H2735 C2719 0.961 . S
H2736 C2720 0.931 . S
H2737 C2725 0.930 . S
H2738 C2726 0.956 . S
H2739 C2726 0.961 . S
H2740 C2726 0.961 . S
H2741 C2727 0.958 . S
H2742 C2727 0.961 . S
H2743 C2727 0.960 . S
C2744 C2745 1.391 . S
C2744 C2746 1.394 . S
C2744 H2760 0.931 . S
C2745 C2744 1.391 . S
C2745 C2749 1.376 . S
C2746 C2744 1.394 . S
C2746 C2747 1.369 . S
C2746 C2750 1.531 . S
C2747 C2746 1.369 . S
C2747 C2748 1.410 . S
C2747 C2755 1.503 . S
C2748 C2747 1.410 . S
C2748 C2749 1.392 . S
C2748 C2751 1.511 . S
C2749 C2745 1.376 . S
C2749 C2748 1.392 . S
C2749 H2761 0.929 . S
C2750 C2746 1.531 . S
C2750 H2762 0.960 . S
C2750 H2763 0.962 . S
C2750 H2764 0.960 . S
C2751 C2748 1.511 . S
C2751 H2765 0.961 . S
C2751 H2766 0.961 . S
C2751 H2767 0.961 . S
C2752 C2753 1.370 . S
C2752 C2754 1.363 . S
C2752 H2768 0.931 . S
C2753 C2752 1.370 . S
C2753 C2757 1.408 . S
C2754 C2752 1.363 . S
C2754 C2755 1.370 . S
C2754 C2758 1.524 . S
C2755 C2747 1.503 . S
C2755 C2754 1.370 . S
C2755 C2756 1.403 . S
C2756 C2755 1.403 . S
C2756 C2757 1.404 . S
C2756 C2759 1.539 . S
C2757 C2753 1.408 . S
C2757 C2756 1.404 . S
C2757 H2769 0.930 . S
C2758 C2754 1.524 . S
C2758 H2770 0.956 . S
C2758 H2771 0.961 . S
C2758 H2772 0.961 . S
C2759 C2756 1.539 . S
C2759 H2773 0.958 . S
C2759 H2774 0.961 . S
C2759 H2775 0.960 . S
H2760 C2744 0.931 . S
H2761 C2749 0.929 . S
H2762 C2750 0.960 . S
H2763 C2750 0.962 . S
H2764 C2750 0.960 . S
H2765 C2751 0.961 . S
H2766 C2751 0.961 . S
H2767 C2751 0.961 . S
H2768 C2752 0.931 . S
H2769 C2757 0.930 . S
H2770 C2758 0.956 . S
H2771 C2758 0.961 . S
H2772 C2758 0.961 . S
H2773 C2759 0.958 . S
H2774 C2759 0.961 . S
H2775 C2759 0.960 . S
C2776 C2777 1.391 . S
C2776 C2778 1.394 . S
C2776 H2792 0.931 . S
C2777 C2776 1.391 . S
C2777 C2781 1.376 . S
C2778 C2776 1.394 . S
C2778 C2779 1.369 . S
C2778 C2782 1.494 1_565 S
C2779 C2778 1.369 . S
C2779 C2780 1.410 . S
C2779 C2787 1.503 . S
C2780 C2779 1.410 . S
C2780 C2781 1.392 . S
C2780 C2783 1.511 . S
C2781 C2777 1.376 . S
C2781 C2780 1.392 . S
C2781 H2793 0.929 . S
C2782 C2778 1.494 1_545 S
C2782 H2794 0.967 . S
C2782 H2795 0.986 . S
C2782 H2796 0.968 . S
C2783 C2780 1.511 . S
C2783 H2797 0.961 1_554 S
C2783 H2798 0.961 1_554 S
C2783 H2799 0.961 . S
C2784 C2785 1.370 1_556 S
C2784 C2786 1.363 1_545 S
C2784 H2800 0.931 . S
C2785 C2784 1.370 1_554 S
C2785 C2789 1.408 . S
C2786 C2784 1.363 1_565 S
C2786 C2787 1.370 1_556 S
C2786 C2790 1.524 . S
C2787 C2779 1.503 . S
C2787 C2786 1.370 1_554 S
C2787 C2788 1.403 . S
C2788 C2787 1.403 . S
C2788 C2789 1.404 1_565 S
C2788 C2791 1.539 . S
C2789 C2785 1.408 . S
C2789 C2788 1.404 1_545 S
C2789 H2801 0.930 . S
C2790 C2786 1.524 . S
C2790 H2802 0.956 . S
C2790 H2803 0.961 . S
C2790 H2804 0.961 . S
C2791 C2788 1.539 . S
C2791 H2805 0.958 . S
C2791 H2806 0.961 . S
C2791 H2807 0.960 . S
H2792 C2776 0.931 . S
H2793 C2781 0.929 . S
H2794 C2782 0.967 . S
H2795 C2782 0.986 . S
H2796 C2782 0.968 . S
H2797 C2783 0.961 1_556 S
H2798 C2783 0.961 1_556 S
H2799 C2783 0.961 . S
H2800 C2784 0.931 . S
H2801 C2789 0.930 . S
H2802 C2790 0.956 . S
H2803 C2790 0.961 . S
H2804 C2790 0.961 . S
H2805 C2791 0.958 . S
H2806 C2791 0.961 . S
H2807 C2791 0.960 . S
C2808 C2809 1.391 . S
C2808 C2810 1.394 . S
C2808 H2824 0.931 . S
C2809 C2808 1.391 . S
C2809 C2813 1.376 . S
C2810 C2808 1.394 . S
C2810 C2811 1.369 . S
C2810 C2814 1.531 . S
C2811 C2810 1.369 . S
C2811 C2812 1.410 . S
C2811 C2819 1.503 . S
C2812 C2811 1.410 . S
C2812 C2813 1.392 . S
C2812 C2815 1.511 . S
C2813 C2809 1.376 . S
C2813 C2812 1.392 . S
C2813 H2825 0.929 . S
C2814 C2810 1.531 . S
C2814 H2826 0.960 . S
C2814 H2827 0.962 . S
C2814 H2828 0.960 . S
C2815 C2812 1.511 . S
C2815 H2829 0.961 . S
C2815 H2830 0.961 . S
C2815 H2831 0.961 . S
C2816 C2817 1.370 . S
C2816 C2818 1.363 . S
C2816 H2832 0.931 . S
C2817 C2816 1.370 . S
C2817 C2821 1.408 . S
C2818 C2816 1.363 . S
C2818 C2819 1.370 . S
C2818 C2822 1.524 . S
C2819 C2811 1.503 . S
C2819 C2818 1.370 . S
C2819 C2820 1.403 . S
C2820 C2819 1.403 . S
C2820 C2821 1.404 . S
C2820 C2823 1.539 . S
C2821 C2817 1.408 . S
C2821 C2820 1.404 . S
C2821 H2833 0.930 . S
C2822 C2818 1.524 . S
C2822 H2834 0.956 . S
C2822 H2835 0.961 . S
C2822 H2836 0.961 . S
C2823 C2820 1.539 . S
C2823 H2837 0.958 . S
C2823 H2838 0.961 . S
C2823 H2839 0.960 . S
H2824 C2808 0.931 . S
H2825 C2813 0.929 . S
H2826 C2814 0.960 . S
H2827 C2814 0.962 . S
H2828 C2814 0.960 . S
H2829 C2815 0.961 . S
H2830 C2815 0.961 . S
H2831 C2815 0.961 . S
H2832 C2816 0.931 . S
H2833 C2821 0.930 . S
H2834 C2822 0.956 . S
H2835 C2822 0.961 . S
H2836 C2822 0.961 . S
H2837 C2823 0.958 . S
H2838 C2823 0.961 . S
H2839 C2823 0.960 . S
C2840 C2841 1.391 . S
C2840 C2842 1.394 . S
C2840 H2856 0.931 . S
C2841 C2840 1.391 . S
C2841 C2845 1.376 . S
C2842 C2840 1.394 . S
C2842 C2843 1.369 . S
C2842 C2846 1.531 . S
C2843 C2842 1.369 . S
C2843 C2844 1.410 . S
C2843 C2851 1.503 . S
C2844 C2843 1.410 . S
C2844 C2845 1.392 . S
C2844 C2847 1.511 . S
C2845 C2841 1.376 . S
C2845 C2844 1.392 . S
C2845 H2857 0.929 . S
C2846 C2842 1.531 . S
C2846 H2858 0.960 . S
C2846 H2859 0.962 . S
C2846 H2860 0.960 . S
C2847 C2844 1.511 . S
C2847 H2861 0.961 . S
C2847 H2862 0.961 . S
C2847 H2863 0.961 . S
C2848 C2849 1.370 . S
C2848 C2850 1.363 . S
C2848 H2864 0.931 . S
C2849 C2848 1.370 . S
C2849 C2853 1.408 . S
C2850 C2848 1.363 . S
C2850 C2851 1.370 . S
C2850 C2854 1.524 1_554 S
C2851 C2843 1.503 . S
C2851 C2850 1.370 . S
C2851 C2852 1.403 . S
C2852 C2851 1.403 . S
C2852 C2853 1.404 . S
C2852 C2855 1.539 . S
C2853 C2849 1.408 . S
C2853 C2852 1.404 . S
C2853 H2865 0.930 . S
C2854 C2850 1.524 1_556 S
C2854 H2866 0.956 . S
C2854 H2867 0.961 . S
C2854 H2868 0.961 . S
C2855 C2852 1.539 . S
C2855 H2869 0.958 . S
C2855 H2870 0.961 . S
C2855 H2871 0.960 . S
H2856 C2840 0.931 . S
H2857 C2845 0.929 . S
H2858 C2846 0.960 . S
H2859 C2846 0.962 . S
H2860 C2846 0.960 . S
H2861 C2847 0.961 . S
H2862 C2847 0.961 . S
H2863 C2847 0.961 . S
H2864 C2848 0.931 . S
H2865 C2853 0.930 . S
H2866 C2854 0.956 . S
H2867 C2854 0.961 . S
H2868 C2854 0.961 . S
H2869 C2855 0.958 . S
H2870 C2855 0.961 . S
H2871 C2855 0.960 . S
C2872 C2873 1.391 . S
C2872 C2874 1.394 . S
C2872 H2888 0.931 . S
C2873 C2872 1.391 . S
C2873 C2877 1.376 . S
C2874 C2872 1.394 . S
C2874 C2875 1.369 . S
C2874 C2878 1.531 . S
C2875 C2874 1.369 . S
C2875 C2876 1.410 . S
C2875 C2883 1.503 . S
C2876 C2875 1.410 . S
C2876 C2877 1.392 . S
C2876 C2879 1.511 . S
C2877 C2873 1.376 . S
C2877 C2876 1.392 . S
C2877 H2889 0.929 . S
C2878 C2874 1.531 . S
C2878 H2890 0.960 . S
C2878 H2891 0.962 . S
C2878 H2892 0.960 . S
C2879 C2876 1.511 . S
C2879 H2893 0.961 . S
C2879 H2894 0.961 . S
C2879 H2895 0.961 . S
C2880 C2881 1.370 . S
C2880 C2882 1.363 . S
C2880 H2896 0.931 . S
C2881 C2880 1.370 . S
C2881 C2885 1.408 . S
C2882 C2880 1.363 . S
C2882 C2883 1.370 . S
C2882 C2886 1.524 . S
C2883 C2875 1.503 . S
C2883 C2882 1.370 . S
C2883 C2884 1.403 . S
C2884 C2883 1.403 . S
C2884 C2885 1.404 . S
C2884 C2887 1.539 . S
C2885 C2881 1.408 . S
C2885 C2884 1.404 . S
C2885 H2897 0.930 . S
C2886 C2882 1.524 . S
C2886 H2898 0.956 . S
C2886 H2899 0.961 . S
C2886 H2900 0.961 . S
C2887 C2884 1.539 . S
C2887 H2901 0.958 . S
C2887 H2902 0.961 . S
C2887 H2903 0.960 . S
H2888 C2872 0.931 . S
H2889 C2877 0.929 . S
H2890 C2878 0.960 . S
H2891 C2878 0.962 . S
H2892 C2878 0.960 . S
H2893 C2879 0.961 . S
H2894 C2879 0.961 . S
H2895 C2879 0.961 . S
H2896 C2880 0.931 . S
H2897 C2885 0.930 . S
H2898 C2886 0.956 . S
H2899 C2886 0.961 . S
H2900 C2886 0.961 . S
H2901 C2887 0.958 . S
H2902 C2887 0.961 . S
H2903 C2887 0.960 . S
C2904 C2905 1.391 . S
C2904 C2906 1.394 . S
C2904 H2920 0.931 . S
C2905 C2904 1.391 . S
C2905 C2909 1.376 . S
C2906 C2904 1.394 . S
C2906 C2907 1.369 . S
C2906 C2910 1.531 . S
C2907 C2906 1.369 . S
C2907 C2908 1.410 . S
C2907 C2915 1.503 . S
C2908 C2907 1.410 . S
C2908 C2909 1.392 . S
C2908 C2911 1.511 . S
C2909 C2905 1.376 . S
C2909 C2908 1.392 . S
C2909 H2921 0.929 . S
C2910 C2906 1.531 . S
C2910 H2922 0.960 . S
C2910 H2923 0.962 . S
C2910 H2924 0.960 . S
C2911 C2908 1.511 . S
C2911 H2925 0.961 . S
C2911 H2926 0.961 . S
C2911 H2927 0.961 . S
C2912 C2913 1.370 . S
C2912 C2914 1.363 . S
C2912 H2928 0.931 . S
C2913 C2912 1.370 . S
C2913 C2917 1.408 . S
C2914 C2912 1.363 . S
C2914 C2915 1.370 . S
C2914 C2918 1.524 . S
C2915 C2907 1.503 . S
C2915 C2914 1.370 . S
C2915 C2916 1.403 . S
C2916 C2915 1.403 . S
C2916 C2917 1.404 . S
C2916 C2919 1.539 . S
C2917 C2913 1.408 . S
C2917 C2916 1.404 . S
C2917 H2929 0.930 . S
C2918 C2914 1.524 . S
C2918 H2930 0.956 . S
C2918 H2931 0.961 . S
C2918 H2932 0.961 . S
C2919 C2916 1.539 . S
C2919 H2933 0.958 . S
C2919 H2934 0.961 . S
C2919 H2935 0.960 . S
H2920 C2904 0.931 . S
H2921 C2909 0.929 . S
H2922 C2910 0.960 . S
H2923 C2910 0.962 . S
H2924 C2910 0.960 . S
H2925 C2911 0.961 . S
H2926 C2911 0.961 . S
H2927 C2911 0.961 . S
H2928 C2912 0.931 . S
H2929 C2917 0.930 . S
H2930 C2918 0.956 . S
H2931 C2918 0.961 . S
H2932 C2918 0.961 . S
H2933 C2919 0.958 . S
H2934 C2919 0.961 . S
H2935 C2919 0.960 . S
C2936 C2937 1.391 . S
C2936 C2938 1.394 . S
C2936 H2952 0.931 . S
C2937 C2936 1.391 . S
C2937 C2941 1.376 . S
C2938 C2936 1.394 . S
C2938 C2939 1.369 . S
C2938 C2942 1.531 . S
C2939 C2938 1.369 . S
C2939 C2940 1.410 . S
C2939 C2947 1.503 . S
C2940 C2939 1.410 . S
C2940 C2941 1.392 . S
C2940 C2943 1.511 . S
C2941 C2937 1.376 . S
C2941 C2940 1.392 . S
C2941 H2953 0.929 . S
C2942 C2938 1.531 . S
C2942 H2954 0.960 . S
C2942 H2955 0.962 . S
C2942 H2956 0.960 . S
C2943 C2940 1.511 . S
C2943 H2957 0.961 . S
C2943 H2958 0.961 . S
C2943 H2959 0.961 . S
C2944 C2945 1.370 . S
C2944 C2946 1.363 . S
C2944 H2960 0.931 . S
C2945 C2944 1.370 . S
C2945 C2949 1.408 . S
C2946 C2944 1.363 . S
C2946 C2947 1.370 . S
C2946 C2950 1.524 . S
C2947 C2939 1.503 . S
C2947 C2946 1.370 . S
C2947 C2948 1.403 . S
C2948 C2947 1.403 . S
C2948 C2949 1.404 . S
C2948 C2951 1.539 . S
C2949 C2945 1.408 . S
C2949 C2948 1.404 . S
C2949 H2961 0.930 . S
C2950 C2946 1.524 . S
C2950 H2962 0.956 . S
C2950 H2963 0.961 . S
C2950 H2964 0.961 . S
C2951 C2948 1.539 . S
C2951 H2965 0.958 . S
C2951 H2966 0.961 . S
C2951 H2967 0.960 . S
H2952 C2936 0.931 . S
H2953 C2941 0.929 . S
H2954 C2942 0.960 . S
H2955 C2942 0.962 . S
H2956 C2942 0.960 . S
H2957 C2943 0.961 . S
H2958 C2943 0.961 . S
H2959 C2943 0.961 . S
H2960 C2944 0.931 . S
H2961 C2949 0.930 . S
H2962 C2950 0.956 . S
H2963 C2950 0.961 . S
H2964 C2950 0.961 . S
H2965 C2951 0.958 . S
H2966 C2951 0.961 . S
H2967 C2951 0.960 . S
C2968 C2969 1.391 . S
C2968 C2970 1.394 . S
C2968 H2984 0.931 . S
C2969 C2968 1.391 . S
C2969 C2973 1.376 . S
C2970 C2968 1.394 . S
C2970 C2971 1.369 . S
C2970 C2974 1.531 . S
C2971 C2970 1.369 . S
C2971 C2972 1.410 . S
C2971 C2979 1.503 . S
C2972 C2971 1.410 . S
C2972 C2973 1.392 . S
C2972 C2975 1.511 . S
C2973 C2969 1.376 . S
C2973 C2972 1.392 . S
C2973 H2985 0.929 . S
C2974 C2970 1.531 . S
C2974 H2986 0.960 . S
C2974 H2987 0.962 . S
C2974 H2988 0.960 . S
C2975 C2972 1.511 . S
C2975 H2989 0.961 . S
C2975 H2990 0.961 . S
C2975 H2991 0.961 . S
C2976 C2977 1.370 . S
C2976 C2978 1.363 . S
C2976 H2992 0.931 . S
C2977 C2976 1.370 . S
C2977 C2981 1.408 . S
C2978 C2976 1.363 . S
C2978 C2979 1.370 . S
C2978 C2982 1.524 . S
C2979 C2971 1.503 . S
C2979 C2978 1.370 . S
C2979 C2980 1.403 . S
C2980 C2979 1.403 . S
C2980 C2981 1.404 . S
C2980 C2983 1.539 . S
C2981 C2977 1.408 . S
C2981 C2980 1.404 . S
C2981 H2993 0.930 . S
C2982 C2978 1.524 . S
C2982 H2994 0.956 . S
C2982 H2995 0.961 . S
C2982 H2996 0.961 . S
C2983 C2980 1.539 . S
C2983 H2997 0.958 . S
C2983 H2998 0.961 . S
C2983 H2999 0.960 . S
H2984 C2968 0.931 . S
H2985 C2973 0.929 . S
H2986 C2974 0.960 . S
H2987 C2974 0.962 . S
H2988 C2974 0.960 . S
H2989 C2975 0.961 . S
H2990 C2975 0.961 . S
H2991 C2975 0.961 . S
H2992 C2976 0.931 . S
H2993 C2981 0.930 . S
H2994 C2982 0.956 . S
H2995 C2982 0.961 . S
H2996 C2982 0.961 . S
H2997 C2983 0.958 . S
H2998 C2983 0.961 . S
H2999 C2983 0.960 . S
C3000 C3001 1.391 . S
C3000 C3002 1.394 . S
C3000 H3016 0.931 . S
C3001 C3000 1.391 . S
C3001 C3005 1.376 . S
C3002 C3000 1.394 . S
C3002 C3003 1.369 . S
C3002 C3006 1.531 1_455 S
C3003 C3002 1.369 . S
C3003 C3004 1.410 . S
C3003 C3011 1.503 . S
C3004 C3003 1.410 . S
C3004 C3005 1.392 . S
C3004 C3007 1.511 . S
C3005 C3001 1.376 . S
C3005 C3004 1.392 . S
C3005 H3017 0.929 . S
C3006 C3002 1.531 1_655 S
C3006 H3018 0.960 . S
C3006 H3019 0.962 1_655 S
C3006 H3020 0.960 . S
C3007 C3004 1.511 . S
C3007 H3021 0.961 . S
C3007 H3022 0.961 . S
C3007 H3023 0.961 . S
C3008 C3009 1.370 . S
C3008 C3010 1.363 . S
C3008 H3024 0.931 . S
C3009 C3008 1.370 . S
C3009 C3013 1.408 1_455 S
C3010 C3008 1.363 . S
C3010 C3011 1.370 . S
C3010 C3014 1.524 . S
C3011 C3003 1.503 . S
C3011 C3010 1.370 . S
C3011 C3012 1.403 1_455 S
C3012 C3011 1.403 1_655 S
C3012 C3013 1.404 . S
C3012 C3015 1.539 . S
C3013 C3009 1.408 1_655 S
C3013 C3012 1.404 . S
C3013 H3025 0.930 . S
C3014 C3010 1.524 . S
C3014 H3026 0.956 . S
C3014 H3027 0.961 . S
C3014 H3028 0.961 . S
C3015 C3012 1.539 . S
C3015 H3029 0.958 . S
C3015 H3030 0.961 . S
C3015 H3031 0.960 . S
H3016 C3000 0.931 . S
H3017 C3005 0.929 . S
H3018 C3006 0.960 . S
H3019 C3006 0.962 1_455 S
H3020 C3006 0.960 . S
H3021 C3007 0.961 . S
H3022 C3007 0.961 . S
H3023 C3007 0.961 . S
H3024 C3008 0.931 . S
H3025 C3013 0.930 . S
H3026 C3014 0.956 . S
H3027 C3014 0.961 . S
H3028 C3014 0.961 . S
H3029 C3015 0.958 . S
H3030 C3015 0.961 . S
H3031 C3015 0.960 . S
C3032 C3033 1.391 . S
C3032 C3034 1.394 . S
C3032 H3048 0.931 . S
C3033 C3032 1.391 . S
C3033 C3037 1.376 . S
C3034 C3032 1.394 . S
C3034 C3035 1.369 . S
C3034 C3038 1.531 . S
C3035 C3034 1.369 . S
C3035 C3036 1.410 . S
C3035 C3043 1.503 . S
C3036 C3035 1.410 . S
C3036 C3037 1.392 . S
C3036 C3039 1.511 . S
C3037 C3033 1.376 . S
C3037 C3036 1.392 . S
C3037 H3049 0.929 . S
C3038 C3034 1.531 . S
C3038 H3050 0.960 . S
C3038 H3051 0.962 . S
C3038 H3052 0.960 . S
C3039 C3036 1.511 . S
C3039 H3053 0.961 . S
C3039 H3054 0.961 . S
C3039 H3055 0.961 . S
C3040 C3041 1.370 . S
C3040 C3042 1.363 . S
C3040 H3056 0.931 . S
C3041 C3040 1.370 . S
C3041 C3045 1.408 . S
C3042 C3040 1.363 . S
C3042 C3043 1.370 . S
C3042 C3046 1.524 . S
C3043 C3035 1.503 . S
C3043 C3042 1.370 . S
C3043 C3044 1.403 . S
C3044 C3043 1.403 . S
C3044 C3045 1.404 . S
C3044 C3047 1.539 . S
C3045 C3041 1.408 . S
C3045 C3044 1.404 . S
C3045 H3057 0.930 . S
C3046 C3042 1.524 . S
C3046 H3058 0.956 . S
C3046 H3059 0.961 . S
C3046 H3060 0.961 . S
C3047 C3044 1.539 . S
C3047 H3061 0.958 . S
C3047 H3062 0.961 . S
C3047 H3063 0.960 . S
H3048 C3032 0.931 . S
H3049 C3037 0.929 . S
H3050 C3038 0.960 . S
H3051 C3038 0.962 . S
H3052 C3038 0.960 . S
H3053 C3039 0.961 . S
H3054 C3039 0.961 . S
H3055 C3039 0.961 . S
H3056 C3040 0.931 . S
H3057 C3045 0.930 . S
H3058 C3046 0.956 . S
H3059 C3046 0.961 . S
H3060 C3046 0.961 . S
H3061 C3047 0.958 . S
H3062 C3047 0.961 . S
H3063 C3047 0.960 . S
C3064 C3065 1.391 . S
C3064 C3066 1.394 . S
C3064 H3080 0.931 . S
C3065 C3064 1.391 . S
C3065 C3069 1.376 . S
C3066 C3064 1.394 . S
C3066 C3067 1.369 . S
C3066 C3070 1.531 . S
C3067 C3066 1.369 . S
C3067 C3068 1.410 . S
C3067 C3075 1.503 . S
C3068 C3067 1.410 . S
C3068 C3069 1.392 . S
C3068 C3071 1.511 . S
C3069 C3065 1.376 . S
C3069 C3068 1.392 . S
C3069 H3081 0.929 . S
C3070 C3066 1.531 . S
C3070 H3082 0.960 . S
C3070 H3083 0.962 . S
C3070 H3084 0.960 . S
C3071 C3068 1.511 . S
C3071 H3085 0.961 . S
C3071 H3086 0.961 . S
C3071 H3087 0.961 . S
C3072 C3073 1.370 . S
C3072 C3074 1.363 . S
C3072 H3088 0.931 . S
C3073 C3072 1.370 . S
C3073 C3077 1.408 . S
C3074 C3072 1.363 . S
C3074 C3075 1.370 . S
C3074 C3078 1.524 . S
C3075 C3067 1.503 . S
C3075 C3074 1.370 . S
C3075 C3076 1.403 . S
C3076 C3075 1.403 . S
C3076 C3077 1.404 . S
C3076 C3079 1.539 . S
C3077 C3073 1.408 . S
C3077 C3076 1.404 . S
C3077 H3089 0.930 . S
C3078 C3074 1.524 . S
C3078 H3090 0.956 . S
C3078 H3091 0.961 . S
C3078 H3092 0.961 . S
C3079 C3076 1.539 . S
C3079 H3093 0.958 . S
C3079 H3094 0.961 . S
C3079 H3095 0.960 . S
H3080 C3064 0.931 . S
H3081 C3069 0.929 . S
H3082 C3070 0.960 . S
H3083 C3070 0.962 . S
H3084 C3070 0.960 . S
H3085 C3071 0.961 . S
H3086 C3071 0.961 . S
H3087 C3071 0.961 . S
H3088 C3072 0.931 . S
H3089 C3077 0.930 . S
H3090 C3078 0.956 . S
H3091 C3078 0.961 . S
H3092 C3078 0.961 . S
H3093 C3079 0.958 . S
H3094 C3079 0.961 . S
H3095 C3079 0.960 . S
C3096 C3097 1.391 . S
C3096 C3098 1.394 . S
C3096 H3112 0.931 . S
C3097 C3096 1.391 . S
C3097 C3101 1.376 . S
C3098 C3096 1.394 . S
C3098 C3099 1.369 . S
C3098 C3102 1.531 . S
C3099 C3098 1.369 . S
C3099 C3100 1.410 . S
C3099 C3107 1.503 . S
C3100 C3099 1.410 . S
C3100 C3101 1.392 . S
C3100 C3103 1.511 . S
C3101 C3097 1.376 . S
C3101 C3100 1.392 . S
C3101 H3113 0.929 . S
C3102 C3098 1.531 . S
C3102 H3114 0.960 . S
C3102 H3115 0.962 . S
C3102 H3116 0.960 . S
C3103 C3100 1.511 . S
C3103 H3117 0.961 . S
C3103 H3118 0.961 . S
C3103 H3119 0.961 . S
C3104 C3105 1.370 . S
C3104 C3106 1.363 . S
C3104 H3120 0.931 . S
C3105 C3104 1.370 . S
C3105 C3109 1.408 . S
C3106 C3104 1.363 . S
C3106 C3107 1.370 . S
C3106 C3110 1.524 . S
C3107 C3099 1.503 . S
C3107 C3106 1.370 . S
C3107 C3108 1.403 . S
C3108 C3107 1.403 . S
C3108 C3109 1.404 . S
C3108 C3111 1.539 . S
C3109 C3105 1.408 . S
C3109 C3108 1.404 . S
C3109 H3121 0.930 . S
C3110 C3106 1.524 . S
C3110 H3122 0.956 . S
C3110 H3123 0.961 . S
C3110 H3124 0.961 . S
C3111 C3108 1.539 . S
C3111 H3125 0.958 . S
C3111 H3126 0.961 . S
C3111 H3127 0.960 . S
H3112 C3096 0.931 . S
H3113 C3101 0.929 . S
H3114 C3102 0.960 . S
H3115 C3102 0.962 . S
H3116 C3102 0.960 . S
H3117 C3103 0.961 . S
H3118 C3103 0.961 . S
H3119 C3103 0.961 . S
H3120 C3104 0.931 . S
H3121 C3109 0.930 . S
H3122 C3110 0.956 . S
H3123 C3110 0.961 . S
H3124 C3110 0.961 . S
H3125 C3111 0.958 . S
H3126 C3111 0.961 . S
H3127 C3111 0.960 . S
C3128 C3129 1.391 . S
C3128 C3130 1.394 . S
C3128 H3144 0.931 . S
C3129 C3128 1.391 . S
C3129 C3133 1.376 . S
C3130 C3128 1.394 . S
C3130 C3131 1.369 . S
C3130 C3134 1.531 . S
C3131 C3130 1.369 . S
C3131 C3132 1.410 . S
C3131 C3139 1.503 . S
C3132 C3131 1.410 . S
C3132 C3133 1.392 . S
C3132 C3135 1.511 1_455 S
C3133 C3129 1.376 . S
C3133 C3132 1.392 . S
C3133 H3145 0.929 1_455 S
C3134 C3130 1.531 . S
C3134 H3146 0.960 . S
C3134 H3147 0.962 . S
C3134 H3148 0.960 . S
C3135 C3132 1.511 1_655 S
C3135 H3149 0.961 . S
C3135 H3150 0.961 . S
C3135 H3151 0.961 . S
C3136 C3137 1.370 . S
C3136 C3138 1.363 . S
C3136 H3152 0.931 . S
C3137 C3136 1.370 . S
C3137 C3141 1.408 . S
C3138 C3136 1.363 . S
C3138 C3139 1.370 . S
C3138 C3142 1.524 . S
C3139 C3131 1.503 . S
C3139 C3138 1.370 . S
C3139 C3140 1.403 . S
C3140 C3139 1.403 . S
C3140 C3141 1.404 . S
C3140 C3143 1.539 . S
C3141 C3137 1.408 . S
C3141 C3140 1.404 . S
C3141 H3153 0.930 . S
C3142 C3138 1.524 . S
C3142 H3154 0.956 . S
C3142 H3155 0.961 . S
C3142 H3156 0.961 . S
C3143 C3140 1.539 . S
C3143 H3157 0.958 . S
C3143 H3158 0.961 1_455 S
C3143 H3159 0.954 1_455 S
H3144 C3128 0.931 . S
H3145 C3133 0.929 1_655 S
H3146 C3134 0.960 . S
H3147 C3134 0.962 . S
H3148 C3134 0.960 . S
H3149 C3135 0.961 . S
H3150 C3135 0.961 . S
H3151 C3135 0.961 . S
H3152 C3136 0.931 . S
H3153 C3141 0.930 . S
H3154 C3142 0.956 . S
H3155 C3142 0.961 . S
H3156 C3142 0.961 . S
H3157 C3143 0.958 . S
H3158 C3143 0.961 1_655 S
H3159 C3143 0.954 1_655 S
C3160 C3161 1.391 . S
C3160 C3162 1.394 . S
C3160 H3176 0.931 . S
C3161 C3160 1.391 . S
C3161 C3165 1.376 . S
C3162 C3160 1.394 . S
C3162 C3163 1.369 . S
C3162 C3166 1.531 . S
C3163 C3162 1.369 . S
C3163 C3164 1.410 . S
C3163 C3171 1.503 . S
C3164 C3163 1.410 . S
C3164 C3165 1.392 . S
C3164 C3167 1.511 . S
C3165 C3161 1.376 . S
C3165 C3164 1.392 . S
C3165 H3177 0.929 . S
C3166 C3162 1.531 . S
C3166 H3178 0.960 . S
C3166 H3179 0.962 . S
C3166 H3180 0.960 . S
C3167 C3164 1.511 . S
C3167 H3181 0.961 . S
C3167 H3182 0.961 . S
C3167 H3183 0.961 . S
C3168 C3169 1.370 . S
C3168 C3170 1.363 . S
C3168 H3184 0.931 . S
C3169 C3168 1.370 . S
C3169 C3173 1.408 . S
C3170 C3168 1.363 . S
C3170 C3171 1.370 . S
C3170 C3174 1.524 . S
C3171 C3163 1.503 . S
C3171 C3170 1.370 . S
C3171 C3172 1.403 . S
C3172 C3171 1.403 . S
C3172 C3173 1.404 . S
C3172 C3175 1.539 . S
C3173 C3169 1.408 . S
C3173 C3172 1.404 . S
C3173 H3185 0.930 . S
C3174 C3170 1.524 . S
C3174 H3186 0.956 . S
C3174 H3187 0.961 . S
C3174 H3188 0.961 . S
C3175 C3172 1.539 . S
C3175 H3189 0.958 . S
C3175 H3190 0.961 . S
C3175 H3191 0.960 . S
H3176 C3160 0.931 . S
H3177 C3165 0.929 . S
H3178 C3166 0.960 . S
H3179 C3166 0.962 . S
H3180 C3166 0.960 . S
H3181 C3167 0.961 . S
H3182 C3167 0.961 . S
H3183 C3167 0.961 . S
H3184 C3168 0.931 . S
H3185 C3173 0.930 . S
H3186 C3174 0.956 . S
H3187 C3174 0.961 . S
H3188 C3174 0.961 . S
H3189 C3175 0.958 . S
H3190 C3175 0.961 . S
H3191 C3175 0.960 . S
C3192 C3193 1.391 . S
C3192 C3194 1.394 . S
C3192 H3208 0.931 . S
C3193 C3192 1.391 . S
C3193 C3197 1.376 . S
C3194 C3192 1.394 . S
C3194 C3195 1.369 . S
C3194 C3198 1.531 . S
C3195 C3194 1.369 . S
C3195 C3196 1.410 . S
C3195 C3203 1.503 . S
C3196 C3195 1.410 . S
C3196 C3197 1.392 . S
C3196 C3199 1.511 . S
C3197 C3193 1.376 . S
C3197 C3196 1.392 . S
C3197 H3209 0.929 . S
C3198 C3194 1.531 . S
C3198 H3210 0.960 . S
C3198 H3211 0.962 . S
C3198 H3212 0.960 . S
C3199 C3196 1.511 . S
C3199 H3213 0.961 . S
C3199 H3214 0.961 . S
C3199 H3215 0.961 . S
C3200 C3201 1.370 . S
C3200 C3202 1.363 . S
C3200 H3216 0.931 . S
C3201 C3200 1.370 . S
C3201 C3205 1.408 . S
C3202 C3200 1.363 . S
C3202 C3203 1.370 . S
C3202 C3206 1.524 . S
C3203 C3195 1.503 . S
C3203 C3202 1.370 . S
C3203 C3204 1.403 . S
C3204 C3203 1.403 . S
C3204 C3205 1.404 . S
C3204 C3207 1.539 . S
C3205 C3201 1.408 . S
C3205 C3204 1.404 . S
C3205 H3217 0.930 . S
C3206 C3202 1.524 . S
C3206 H3218 0.956 . S
C3206 H3219 0.961 . S
C3206 H3220 0.961 . S
C3207 C3204 1.539 . S
C3207 H3221 0.958 . S
C3207 H3222 0.961 . S
C3207 H3223 0.960 . S
H3208 C3192 0.931 . S
H3209 C3197 0.929 . S
H3210 C3198 0.960 . S
H3211 C3198 0.962 . S
H3212 C3198 0.960 . S
H3213 C3199 0.961 . S
H3214 C3199 0.961 . S
H3215 C3199 0.961 . S
H3216 C3200 0.931 . S
H3217 C3205 0.930 . S
H3218 C3206 0.956 . S
H3219 C3206 0.961 . S
H3220 C3206 0.961 . S
H3221 C3207 0.958 . S
H3222 C3207 0.961 . S
H3223 C3207 0.960 . S
C3224 C3225 1.391 . S
C3224 C3226 1.394 . S
C3224 H3240 0.931 . S
C3225 C3224 1.391 . S
C3225 C3229 1.376 . S
C3226 C3224 1.394 . S
C3226 C3227 1.369 . S
C3226 C3230 1.531 . S
C3227 C3226 1.369 . S
C3227 C3228 1.410 . S
C3227 C3235 1.503 . S
C3228 C3227 1.410 . S
C3228 C3229 1.392 . S
C3228 C3231 1.511 . S
C3229 C3225 1.376 . S
C3229 C3228 1.392 . S
C3229 H3241 0.929 . S
C3230 C3226 1.531 . S
C3230 H3242 0.960 . S
C3230 H3243 0.962 . S
C3230 H3244 0.960 . S
C3231 C3228 1.511 . S
C3231 H3245 0.961 . S
C3231 H3246 0.961 . S
C3231 H3247 0.961 . S
C3232 C3233 1.370 . S
C3232 C3234 1.363 . S
C3232 H3248 0.931 . S
C3233 C3232 1.370 . S
C3233 C3237 1.408 . S
C3234 C3232 1.363 . S
C3234 C3235 1.370 . S
C3234 C3238 1.524 . S
C3235 C3227 1.503 . S
C3235 C3234 1.370 . S
C3235 C3236 1.403 . S
C3236 C3235 1.403 . S
C3236 C3237 1.404 . S
C3236 C3239 1.539 . S
C3237 C3233 1.408 . S
C3237 C3236 1.404 . S
C3237 H3249 0.930 . S
C3238 C3234 1.524 . S
C3238 H3250 0.956 . S
C3238 H3251 0.961 . S
C3238 H3252 0.961 . S
C3239 C3236 1.539 . S
C3239 H3253 0.958 . S
C3239 H3254 0.961 . S
C3239 H3255 0.960 . S
H3240 C3224 0.931 . S
H3241 C3229 0.929 . S
H3242 C3230 0.960 . S
H3243 C3230 0.962 . S
H3244 C3230 0.960 . S
H3245 C3231 0.961 . S
H3246 C3231 0.961 . S
H3247 C3231 0.961 . S
H3248 C3232 0.931 . S
H3249 C3237 0.930 . S
H3250 C3238 0.956 . S
H3251 C3238 0.961 . S
H3252 C3238 0.961 . S
H3253 C3239 0.958 . S
H3254 C3239 0.961 . S
H3255 C3239 0.960 . S
C3256 C3257 1.391 . S
C3256 C3258 1.394 . S
C3256 H3272 0.931 . S
C3257 C3256 1.391 . S
C3257 C3261 1.376 . S
C3258 C3256 1.394 . S
C3258 C3259 1.369 . S
C3258 C3262 1.531 . S
C3259 C3258 1.369 . S
C3259 C3260 1.410 . S
C3259 C3267 1.503 . S
C3260 C3259 1.410 . S
C3260 C3261 1.392 . S
C3260 C3263 1.511 . S
C3261 C3257 1.376 . S
C3261 C3260 1.392 . S
C3261 H3273 0.929 . S
C3262 C3258 1.531 . S
C3262 H3274 0.960 . S
C3262 H3275 0.962 . S
C3262 H3276 0.960 . S
C3263 C3260 1.511 . S
C3263 H3277 0.961 . S
C3263 H3278 0.961 . S
C3263 H3279 0.961 1_655 S
C3264 C3265 1.370 . S
C3264 C3266 1.363 . S
C3264 H3280 0.931 . S
C3265 C3264 1.370 . S
C3265 C3269 1.408 . S
C3266 C3264 1.363 . S
C3266 C3267 1.370 . S
C3266 C3270 1.524 . S
C3267 C3259 1.503 . S
C3267 C3266 1.370 . S
C3267 C3268 1.403 . S
C3268 C3267 1.403 . S
C3268 C3269 1.404 . S
C3268 C3271 1.539 . S
C3269 C3265 1.408 . S
C3269 C3268 1.404 . S
C3269 H3281 0.930 1_655 S
C3270 C3266 1.524 . S
C3270 H3282 0.956 . S
C3270 H3283 0.961 . S
C3270 H3284 0.961 . S
C3271 C3268 1.539 . S
C3271 H3285 0.958 . S
C3271 H3286 0.961 1_655 S
C3271 H3287 0.960 . S
H3272 C3256 0.931 . S
H3273 C3261 0.929 . S
H3274 C3262 0.960 . S
H3275 C3262 0.962 . S
H3276 C3262 0.960 . S
H3277 C3263 0.961 . S
H3278 C3263 0.961 . S
H3279 C3263 0.961 1_455 S
H3280 C3264 0.931 . S
H3281 C3269 0.930 1_455 S
H3282 C3270 0.956 . S
H3283 C3270 0.961 . S
H3284 C3270 0.961 . S
H3285 C3271 0.958 . S
H3286 C3271 0.961 1_455 S
H3287 C3271 0.960 . S
C3288 C3289 1.391 . S
C3288 C3290 1.394 . S
C3288 H3304 0.931 . S
C3289 C3288 1.391 . S
C3289 C3293 1.376 . S
C3290 C3288 1.394 . S
C3290 C3291 1.369 . S
C3290 C3294 1.531 . S
C3291 C3290 1.369 . S
C3291 C3292 1.410 . S
C3291 C3299 1.503 . S
C3292 C3291 1.410 . S
C3292 C3293 1.392 . S
C3292 C3295 1.511 . S
C3293 C3289 1.376 . S
C3293 C3292 1.392 . S
C3293 H3305 0.929 . S
C3294 C3290 1.531 . S
C3294 H3306 0.960 . S
C3294 H3307 0.962 . S
C3294 H3308 0.960 . S
C3295 C3292 1.511 . S
C3295 H3309 0.961 . S
C3295 H3310 0.961 . S
C3295 H3311 0.961 . S
C3296 C3297 1.370 . S
C3296 C3298 1.363 . S
C3296 H3312 0.931 . S
C3297 C3296 1.370 . S
C3297 C3301 1.408 . S
C3298 C3296 1.363 . S
C3298 C3299 1.370 . S
C3298 C3302 1.524 . S
C3299 C3291 1.503 . S
C3299 C3298 1.370 . S
C3299 C3300 1.403 . S
C3300 C3299 1.403 . S
C3300 C3301 1.404 . S
C3300 C3303 1.539 . S
C3301 C3297 1.408 . S
C3301 C3300 1.404 . S
C3301 H3313 0.930 . S
C3302 C3298 1.524 . S
C3302 H3314 0.956 . S
C3302 H3315 0.961 . S
C3302 H3316 0.961 . S
C3303 C3300 1.539 . S
C3303 H3317 0.958 . S
C3303 H3318 0.961 . S
C3303 H3319 0.960 . S
H3304 C3288 0.931 . S
H3305 C3293 0.929 . S
H3306 C3294 0.960 . S
H3307 C3294 0.962 . S
H3308 C3294 0.960 . S
H3309 C3295 0.961 . S
H3310 C3295 0.961 . S
H3311 C3295 0.961 . S
H3312 C3296 0.931 . S
H3313 C3301 0.930 . S
H3314 C3302 0.956 . S
H3315 C3302 0.961 . S
H3316 C3302 0.961 . S
H3317 C3303 0.958 . S
H3318 C3303 0.961 . S
H3319 C3303 0.960 . S
C3320 C3321 1.391 . S
C3320 C3322 1.394 . S
C3320 H3336 0.931 . S
C3321 C3320 1.391 . S
C3321 C3325 1.376 . S
C3322 C3320 1.394 . S
C3322 C3323 1.369 . S
C3322 C3326 1.531 . S
C3323 C3322 1.369 . S
C3323 C3324 1.410 . S
C3323 C3331 1.503 . S
C3324 C3323 1.410 . S
C3324 C3325 1.392 . S
C3324 C3327 1.511 . S
C3325 C3321 1.376 . S
C3325 C3324 1.392 . S
C3325 H3337 0.929 . S
C3326 C3322 1.531 . S
C3326 H3338 0.960 . S
C3326 H3339 0.962 . S
C3326 H3340 0.960 . S
C3327 C3324 1.511 . S
C3327 H3341 0.961 . S
C3327 H3342 0.961 . S
C3327 H3343 0.961 . S
C3328 C3329 1.370 . S
C3328 C3330 1.363 . S
C3328 H3344 0.931 . S
C3329 C3328 1.370 . S
C3329 C3333 1.408 . S
C3330 C3328 1.363 . S
C3330 C3331 1.370 . S
C3330 C3334 1.524 . S
C3331 C3323 1.503 . S
C3331 C3330 1.370 . S
C3331 C3332 1.403 . S
C3332 C3331 1.403 . S
C3332 C3333 1.404 . S
C3332 C3335 1.539 . S
C3333 C3329 1.408 . S
C3333 C3332 1.404 . S
C3333 H3345 0.930 . S
C3334 C3330 1.524 . S
C3334 H3346 0.956 . S
C3334 H3347 0.961 . S
C3334 H3348 0.961 . S
C3335 C3332 1.539 . S
C3335 H3349 0.958 . S
C3335 H3350 0.961 . S
C3335 H3351 0.960 . S
H3336 C3320 0.931 . S
H3337 C3325 0.929 . S
H3338 C3326 0.960 . S
H3339 C3326 0.962 . S
H3340 C3326 0.960 . S
H3341 C3327 0.961 . S
H3342 C3327 0.961 . S
H3343 C3327 0.961 . S
H3344 C3328 0.931 . S
H3345 C3333 0.930 . S
H3346 C3334 0.956 . S
H3347 C3334 0.961 . S
H3348 C3334 0.961 . S
H3349 C3335 0.958 . S
H3350 C3335 0.961 . S
H3351 C3335 0.960 . S
C3352 C3353 1.391 . S
C3352 C3354 1.394 . S
C3352 H3368 0.931 . S
C3353 C3352 1.391 . S
C3353 C3357 1.376 . S
C3354 C3352 1.394 . S
C3354 C3355 1.369 . S
C3354 C3358 1.531 . S
C3355 C3354 1.369 . S
C3355 C3356 1.410 . S
C3355 C3363 1.503 . S
C3356 C3355 1.410 . S
C3356 C3357 1.392 . S
C3356 C3359 1.511 . S
C3357 C3353 1.376 . S
C3357 C3356 1.392 . S
C3357 H3369 0.929 . S
C3358 C3354 1.531 . S
C3358 H3370 0.960 . S
C3358 H3371 0.962 . S
C3358 H3372 0.960 . S
C3359 C3356 1.511 . S
C3359 H3373 0.961 . S
C3359 H3374 0.961 . S
C3359 H3375 0.961 . S
C3360 C3361 1.370 . S
C3360 C3362 1.363 . S
C3360 H3376 0.931 . S
C3361 C3360 1.370 . S
C3361 C3365 1.408 . S
C3362 C3360 1.363 . S
C3362 C3363 1.370 . S
C3362 C3366 1.524 . S
C3363 C3355 1.503 . S
C3363 C3362 1.370 . S
C3363 C3364 1.403 . S
C3364 C3363 1.403 . S
C3364 C3365 1.404 . S
C3364 C3367 1.539 . S
C3365 C3361 1.408 . S
C3365 C3364 1.404 . S
C3365 H3377 0.930 . S
C3366 C3362 1.524 . S
C3366 H3378 0.956 . S
C3366 H3379 0.961 . S
C3366 H3380 0.961 . S
C3367 C3364 1.539 . S
C3367 H3381 0.958 . S
C3367 H3382 0.961 . S
C3367 H3383 0.960 . S
H3368 C3352 0.931 . S
H3369 C3357 0.929 . S
H3370 C3358 0.960 . S
H3371 C3358 0.962 . S
H3372 C3358 0.960 . S
H3373 C3359 0.961 . S
H3374 C3359 0.961 . S
H3375 C3359 0.961 . S
H3376 C3360 0.931 . S
H3377 C3365 0.930 . S
H3378 C3366 0.956 . S
H3379 C3366 0.961 . S
H3380 C3366 0.961 . S
H3381 C3367 0.958 . S
H3382 C3367 0.961 . S
H3383 C3367 0.960 . S
C3384 C3385 1.391 . S
C3384 C3386 1.394 . S
C3384 H3400 0.931 . S
C3385 C3384 1.391 . S
C3385 C3389 1.376 . S
C3386 C3384 1.394 . S
C3386 C3387 1.369 . S
C3386 C3390 1.531 . S
C3387 C3386 1.369 . S
C3387 C3388 1.410 . S
C3387 C3395 1.503 . S
C3388 C3387 1.410 . S
C3388 C3389 1.392 . S
C3388 C3391 1.511 . S
C3389 C3385 1.376 . S
C3389 C3388 1.392 . S
C3389 H3401 0.929 . S
C3390 C3386 1.531 . S
C3390 H3402 0.960 . S
C3390 H3403 0.962 . S
C3390 H3404 0.960 . S
C3391 C3388 1.511 . S
C3391 H3405 0.961 . S
C3391 H3406 0.961 . S
C3391 H3407 0.961 . S
C3392 C3393 1.370 . S
C3392 C3394 1.363 . S
C3392 H3408 0.931 . S
C3393 C3392 1.370 . S
C3393 C3397 1.408 . S
C3394 C3392 1.363 . S
C3394 C3395 1.370 . S
C3394 C3398 1.524 . S
C3395 C3387 1.503 . S
C3395 C3394 1.370 . S
C3395 C3396 1.403 . S
C3396 C3395 1.403 . S
C3396 C3397 1.404 . S
C3396 C3399 1.539 . S
C3397 C3393 1.408 . S
C3397 C3396 1.404 . S
C3397 H3409 0.930 . S
C3398 C3394 1.524 . S
C3398 H3410 0.956 . S
C3398 H3411 0.961 . S
C3398 H3412 0.961 . S
C3399 C3396 1.539 . S
C3399 H3413 0.958 . S
C3399 H3414 0.961 . S
C3399 H3415 0.960 . S
H3400 C3384 0.931 . S
H3401 C3389 0.929 . S
H3402 C3390 0.960 . S
H3403 C3390 0.962 . S
H3404 C3390 0.960 . S
H3405 C3391 0.961 . S
H3406 C3391 0.961 . S
H3407 C3391 0.961 . S
H3408 C3392 0.931 . S
H3409 C3397 0.930 . S
H3410 C3398 0.956 . S
H3411 C3398 0.961 . S
H3412 C3398 0.961 . S
H3413 C3399 0.958 . S
H3414 C3399 0.961 . S
H3415 C3399 0.960 . S
C3416 C3417 1.391 . S
C3416 C3418 1.394 . S
C3416 H3432 0.931 . S
C3417 C3416 1.391 . S
C3417 C3421 1.376 . S
C3418 C3416 1.394 . S
C3418 C3419 1.369 . S
C3418 C3422 1.531 . S
C3419 C3418 1.369 . S
C3419 C3420 1.410 . S
C3419 C3427 1.503 . S
C3420 C3419 1.410 . S
C3420 C3421 1.392 . S
C3420 C3423 1.511 . S
C3421 C3417 1.376 . S
C3421 C3420 1.392 . S
C3421 H3433 0.929 . S
C3422 C3418 1.531 . S
C3422 H3434 0.960 . S
C3422 H3435 0.962 . S
C3422 H3436 0.960 . S
C3423 C3420 1.511 . S
C3423 H3437 0.961 . S
C3423 H3438 0.961 . S
C3423 H3439 0.961 . S
C3424 C3425 1.370 . S
C3424 C3426 1.363 . S
C3424 H3440 0.931 . S
C3425 C3424 1.370 . S
C3425 C3429 1.408 . S
C3426 C3424 1.363 . S
C3426 C3427 1.370 . S
C3426 C3430 1.524 . S
C3427 C3419 1.503 . S
C3427 C3426 1.370 . S
C3427 C3428 1.403 . S
C3428 C3427 1.403 . S
C3428 C3429 1.404 . S
C3428 C3431 1.539 . S
C3429 C3425 1.408 . S
C3429 C3428 1.404 . S
C3429 H3441 0.930 . S
C3430 C3426 1.524 . S
C3430 H3442 0.956 . S
C3430 H3443 0.961 . S
C3430 H3444 0.961 . S
C3431 C3428 1.539 . S
C3431 H3445 0.958 . S
C3431 H3446 0.961 . S
C3431 H3447 0.960 . S
H3432 C3416 0.931 . S
H3433 C3421 0.929 . S
H3434 C3422 0.960 . S
H3435 C3422 0.962 . S
H3436 C3422 0.960 . S
H3437 C3423 0.961 . S
H3438 C3423 0.961 . S
H3439 C3423 0.961 . S
H3440 C3424 0.931 . S
H3441 C3429 0.930 . S
H3442 C3430 0.956 . S
H3443 C3430 0.961 . S
H3444 C3430 0.961 . S
H3445 C3431 0.958 . S
H3446 C3431 0.961 . S
H3447 C3431 0.960 . S
C3448 C3449 1.391 . S
C3448 C3450 1.394 . S
C3448 H3464 0.931 . S
C3449 C3448 1.391 . S
C3449 C3453 1.376 . S
C3450 C3448 1.394 . S
C3450 C3451 1.369 . S
C3450 C3454 1.531 . S
C3451 C3450 1.369 . S
C3451 C3452 1.410 . S
C3451 C3459 1.503 . S
C3452 C3451 1.410 . S
C3452 C3453 1.392 . S
C3452 C3455 1.511 . S
C3453 C3449 1.376 . S
C3453 C3452 1.392 . S
C3453 H3465 0.929 . S
C3454 C3450 1.531 . S
C3454 H3466 0.960 . S
C3454 H3467 0.962 . S
C3454 H3468 0.960 . S
C3455 C3452 1.511 . S
C3455 H3469 0.961 . S
C3455 H3470 0.961 . S
C3455 H3471 0.961 . S
C3456 C3457 1.370 . S
C3456 C3458 1.363 . S
C3456 H3472 0.931 . S
C3457 C3456 1.370 . S
C3457 C3461 1.408 . S
C3458 C3456 1.363 . S
C3458 C3459 1.370 . S
C3458 C3462 1.524 . S
C3459 C3451 1.503 . S
C3459 C3458 1.370 . S
C3459 C3460 1.403 . S
C3460 C3459 1.403 . S
C3460 C3461 1.404 . S
C3460 C3463 1.539 . S
C3461 C3457 1.408 . S
C3461 C3460 1.404 . S
C3461 H3473 0.930 . S
C3462 C3458 1.524 . S
C3462 H3474 0.956 . S
C3462 H3475 0.961 . S
C3462 H3476 0.961 . S
C3463 C3460 1.539 . S
C3463 H3477 0.958 . S
C3463 H3478 0.961 . S
C3463 H3479 0.960 . S
H3464 C3448 0.931 . S
H3465 C3453 0.929 . S
H3466 C3454 0.960 . S
H3467 C3454 0.962 . S
H3468 C3454 0.960 . S
H3469 C3455 0.961 . S
H3470 C3455 0.961 . S
H3471 C3455 0.961 . S
H3472 C3456 0.931 . S
H3473 C3461 0.930 . S
H3474 C3462 0.956 . S
H3475 C3462 0.961 . S
H3476 C3462 0.961 . S
H3477 C3463 0.958 . S
H3478 C3463 0.961 . S
H3479 C3463 0.960 . S
C3480 C3481 1.391 . S
C3480 C3482 1.394 . S
C3480 H3496 0.931 . S
C3481 C3480 1.391 . S
C3481 C3485 1.376 . S
C3482 C3480 1.394 . S
C3482 C3483 1.369 . S
C3482 C3486 1.531 . S
C3483 C3482 1.369 . S
C3483 C3484 1.410 . S
C3483 C3491 1.503 . S
C3484 C3483 1.410 . S
C3484 C3485 1.392 . S
C3484 C3487 1.511 . S
C3485 C3481 1.376 . S
C3485 C3484 1.392 . S
C3485 H3497 0.929 . S
C3486 C3482 1.531 . S
C3486 H3498 0.960 . S
C3486 H3499 0.962 . S
C3486 H3500 0.960 . S
C3487 C3484 1.511 . S
C3487 H3501 0.961 . S
C3487 H3502 0.961 . S
C3487 H3503 0.961 . S
C3488 C3489 1.370 . S
C3488 C3490 1.363 . S
C3488 H3504 0.931 . S
C3489 C3488 1.370 . S
C3489 C3493 1.408 . S
C3490 C3488 1.363 . S
C3490 C3491 1.370 . S
C3490 C3494 1.524 . S
C3491 C3483 1.503 . S
C3491 C3490 1.370 . S
C3491 C3492 1.403 . S
C3492 C3491 1.403 . S
C3492 C3493 1.404 . S
C3492 C3495 1.539 . S
C3493 C3489 1.408 . S
C3493 C3492 1.404 . S
C3493 H3505 0.930 . S
C3494 C3490 1.524 . S
C3494 H3506 0.956 . S
C3494 H3507 0.961 . S
C3494 H3508 0.961 . S
C3495 C3492 1.539 . S
C3495 H3509 0.958 . S
C3495 H3510 0.961 . S
C3495 H3511 0.960 . S
H3496 C3480 0.931 . S
H3497 C3485 0.929 . S
H3498 C3486 0.960 . S
H3499 C3486 0.962 . S
H3500 C3486 0.960 . S
H3501 C3487 0.961 . S
H3502 C3487 0.961 . S
H3503 C3487 0.961 . S
H3504 C3488 0.931 . S
H3505 C3493 0.930 . S
H3506 C3494 0.956 . S
H3507 C3494 0.961 . S
H3508 C3494 0.961 . S
H3509 C3495 0.958 . S
H3510 C3495 0.961 . S
H3511 C3495 0.960 . S
C3512 C3513 1.391 . S
C3512 C3514 1.394 . S
C3512 H3528 0.931 . S
C3513 C3512 1.391 . S
C3513 C3517 1.376 . S
C3514 C3512 1.394 . S
C3514 C3515 1.369 . S
C3514 C3518 1.531 . S
C3515 C3514 1.369 . S
C3515 C3516 1.410 . S
C3515 C3523 1.503 . S
C3516 C3515 1.410 . S
C3516 C3517 1.392 . S
C3516 C3519 1.511 . S
C3517 C3513 1.376 . S
C3517 C3516 1.392 . S
C3517 H3529 0.929 . S
C3518 C3514 1.531 . S
C3518 H3530 0.960 . S
C3518 H3531 0.962 . S
C3518 H3532 0.960 . S
C3519 C3516 1.511 . S
C3519 H3533 0.961 . S
C3519 H3534 0.961 . S
C3519 H3535 0.961 . S
C3520 C3521 1.370 . S
C3520 C3522 1.363 . S
C3520 H3536 0.931 . S
C3521 C3520 1.370 . S
C3521 C3525 1.408 . S
C3522 C3520 1.363 . S
C3522 C3523 1.370 . S
C3522 C3526 1.524 . S
C3523 C3515 1.503 . S
C3523 C3522 1.370 . S
C3523 C3524 1.403 . S
C3524 C3523 1.403 . S
C3524 C3525 1.404 . S
C3524 C3527 1.539 . S
C3525 C3521 1.408 . S
C3525 C3524 1.404 . S
C3525 H3537 0.930 . S
C3526 C3522 1.524 . S
C3526 H3538 0.956 . S
C3526 H3539 0.961 . S
C3526 H3540 0.961 . S
C3527 C3524 1.539 . S
C3527 H3541 0.958 . S
C3527 H3542 0.961 . S
C3527 H3543 0.960 . S
H3528 C3512 0.931 . S
H3529 C3517 0.929 . S
H3530 C3518 0.960 . S
H3531 C3518 0.962 . S
H3532 C3518 0.960 . S
H3533 C3519 0.961 . S
H3534 C3519 0.961 . S
H3535 C3519 0.961 . S
H3536 C3520 0.931 . S
H3537 C3525 0.930 . S
H3538 C3526 0.956 . S
H3539 C3526 0.961 . S
H3540 C3526 0.961 . S
H3541 C3527 0.958 . S
H3542 C3527 0.961 . S
H3543 C3527 0.960 . S
C3544 C3545 1.391 1_554 S
C3544 C3546 1.394 . S
C3544 H3560 0.931 . S
C3545 C3544 1.391 1_556 S
C3545 C3549 1.376 . S
C3546 C3544 1.394 . S
C3546 C3547 1.369 1_554 S
C3546 C3550 1.531 . S
C3547 C3546 1.369 1_556 S
C3547 C3548 1.410 . S
C3547 C3555 1.503 . S
C3548 C3547 1.410 . S
C3548 C3549 1.392 . S
C3548 C3551 1.511 . S
C3549 C3545 1.376 . S
C3549 C3548 1.392 . S
C3549 H3561 0.929 . S
C3550 C3546 1.531 . S
C3550 H3562 0.960 . S
C3550 H3563 0.962 . S
C3550 H3564 0.960 . S
C3551 C3548 1.511 . S
C3551 H3565 0.961 . S
C3551 H3566 0.961 . S
C3551 H3567 0.961 . S
C3552 C3553 1.377 . S
C3552 C3554 1.363 . S
C3552 H3568 0.931 . S
C3553 C3552 1.377 . S
C3553 C3557 1.400 1_554 S
C3554 C3552 1.363 . S
C3554 C3555 1.370 1_554 S
C3554 C3558 1.524 . S
C3555 C3547 1.503 . S
C3555 C3554 1.370 1_556 S
C3555 C3556 1.403 . S
C3556 C3555 1.403 . S
C3556 C3557 1.404 . S
C3556 C3559 1.539 . S
C3557 C3553 1.400 1_556 S
C3557 C3556 1.404 . S
C3557 H3569 0.930 . S
C3558 C3554 1.524 . S
C3558 H3570 0.956 . S
C3558 H3571 0.961 . S
C3558 H3572 0.961 . S
C3559 C3556 1.539 . S
C3559 H3573 0.958 . S
C3559 H3574 0.961 . S
C3559 H3575 0.960 . S
H3560 C3544 0.931 . S
H3561 C3549 0.929 . S
H3562 C3550 0.960 . S
H3563 C3550 0.962 . S
H3564 C3550 0.960 . S
H3565 C3551 0.961 . S
H3566 C3551 0.961 . S
H3567 C3551 0.961 . S
H3568 C3552 0.931 . S
H3569 C3557 0.930 . S
H3570 C3558 0.956 . S
H3571 C3558 0.961 . S
H3572 C3558 0.961 . S
H3573 C3559 0.958 . S
H3574 C3559 0.961 . S
H3575 C3559 0.960 . S
C3576 C3577 1.391 . S
C3576 C3578 1.394 . S
C3576 H3592 0.931 . S
C3577 C3576 1.391 . S
C3577 C3581 1.376 . S
C3578 C3576 1.394 . S
C3578 C3579 1.369 . S
C3578 C3582 1.531 . S
C3579 C3578 1.369 . S
C3579 C3580 1.410 . S
C3579 C3587 1.503 . S
C3580 C3579 1.410 . S
C3580 C3581 1.392 . S
C3580 C3583 1.511 . S
C3581 C3577 1.376 . S
C3581 C3580 1.392 . S
C3581 H3593 0.929 . S
C3582 C3578 1.531 . S
C3582 H3594 0.960 . S
C3582 H3595 0.962 . S
C3582 H3596 0.960 . S
C3583 C3580 1.511 . S
C3583 H3597 0.961 . S
C3583 H3598 0.961 . S
C3583 H3599 0.961 . S
C3584 C3585 1.370 . S
C3584 C3586 1.363 . S
C3584 H3600 0.931 . S
C3585 C3584 1.370 . S
C3585 C3589 1.408 . S
C3586 C3584 1.363 . S
C3586 C3587 1.370 . S
C3586 C3590 1.524 . S
C3587 C3579 1.503 . S
C3587 C3586 1.370 . S
C3587 C3588 1.403 . S
C3588 C3587 1.403 . S
C3588 C3589 1.404 . S
C3588 C3591 1.539 . S
C3589 C3585 1.408 . S
C3589 C3588 1.404 . S
C3589 H3601 0.930 . S
C3590 C3586 1.524 . S
C3590 H3602 0.956 . S
C3590 H3603 0.961 . S
C3590 H3604 0.961 . S
C3591 C3588 1.539 . S
C3591 H3605 0.958 . S
C3591 H3606 0.961 . S
C3591 H3607 0.960 . S
H3592 C3576 0.931 . S
H3593 C3581 0.929 . S
H3594 C3582 0.960 . S
H3595 C3582 0.962 . S
H3596 C3582 0.960 . S
H3597 C3583 0.961 . S
H3598 C3583 0.961 . S
H3599 C3583 0.961 . S
H3600 C3584 0.931 . S
H3601 C3589 0.930 . S
H3602 C3590 0.956 . S
H3603 C3590 0.961 . S
H3604 C3590 0.961 . S
H3605 C3591 0.958 . S
H3606 C3591 0.961 . S
H3607 C3591 0.960 . S
C3608 C3609 1.391 . S
C3608 C3610 1.394 . S
C3608 H3624 0.931 . S
C3609 C3608 1.391 . S
C3609 C3613 1.376 . S
C3610 C3608 1.394 . S
C3610 C3611 1.369 . S
C3610 C3614 1.531 1_554 S
C3611 C3610 1.369 . S
C3611 C3612 1.410 . S
C3611 C3619 1.503 . S
C3612 C3611 1.410 . S
C3612 C3613 1.392 . S
C3612 C3615 1.511 . S
C3613 C3609 1.376 . S
C3613 C3612 1.392 . S
C3613 H3625 0.929 . S
C3614 C3610 1.531 1_556 S
C3614 H3626 0.960 . S
C3614 H3627 0.962 1_556 S
C3614 H3628 0.960 . S
C3615 C3612 1.511 . S
C3615 H3629 0.961 . S
C3615 H3630 0.961 . S
C3615 H3631 0.961 . S
C3616 C3617 1.370 . S
C3616 C3618 1.363 . S
C3616 H3632 0.931 . S
C3617 C3616 1.370 . S
C3617 C3621 1.408 1_554 S
C3618 C3616 1.363 . S
C3618 C3619 1.370 . S
C3618 C3622 1.524 . S
C3619 C3611 1.503 . S
C3619 C3618 1.370 . S
C3619 C3620 1.403 1_554 S
C3620 C3619 1.403 1_556 S
C3620 C3621 1.404 . S
C3620 C3623 1.539 . S
C3621 C3617 1.408 1_556 S
C3621 C3620 1.404 . S
C3621 H3633 0.930 . S
C3622 C3618 1.524 . S
C3622 H3634 0.956 . S
C3622 H3635 0.961 . S
C3622 H3636 0.961 . S
C3623 C3620 1.539 . S
C3623 H3637 0.958 . S
C3623 H3638 0.961 . S
C3623 H3639 0.960 . S
H3624 C3608 0.931 . S
H3625 C3613 0.929 . S
H3626 C3614 0.960 . S
H3627 C3614 0.962 1_554 S
H3628 C3614 0.960 . S
H3629 C3615 0.961 . S
H3630 C3615 0.961 . S
H3631 C3615 0.961 . S
H3632 C3616 0.931 . S
H3633 C3621 0.930 . S
H3634 C3622 0.956 . S
H3635 C3622 0.961 . S
H3636 C3622 0.961 . S
H3637 C3623 0.958 . S
H3638 C3623 0.961 . S
H3639 C3623 0.960 . S
C3640 C3641 1.391 . S
C3640 C3642 1.394 . S
C3640 H3656 0.931 . S
C3641 C3640 1.391 . S
C3641 C3645 1.376 . S
C3642 C3640 1.394 . S
C3642 C3643 1.369 . S
C3642 C3646 1.531 . S
C3643 C3642 1.369 . S
C3643 C3644 1.410 . S
C3643 C3651 1.503 . S
C3644 C3643 1.410 . S
C3644 C3645 1.392 . S
C3644 C3647 1.511 . S
C3645 C3641 1.376 . S
C3645 C3644 1.392 . S
C3645 H3657 0.929 . S
C3646 C3642 1.531 . S
C3646 H3658 0.960 . S
C3646 H3659 0.962 . S
C3646 H3660 0.960 . S
C3647 C3644 1.511 . S
C3647 H3661 0.961 . S
C3647 H3662 0.961 . S
C3647 H3663 0.961 . S
C3648 C3649 1.370 . S
C3648 C3650 1.363 . S
C3648 H3664 0.931 . S
C3649 C3648 1.370 . S
C3649 C3653 1.408 . S
C3650 C3648 1.363 . S
C3650 C3651 1.370 . S
C3650 C3654 1.524 . S
C3651 C3643 1.503 . S
C3651 C3650 1.370 . S
C3651 C3652 1.403 . S
C3652 C3651 1.403 . S
C3652 C3653 1.404 . S
C3652 C3655 1.539 . S
C3653 C3649 1.408 . S
C3653 C3652 1.404 . S
C3653 H3665 0.930 . S
C3654 C3650 1.524 . S
C3654 H3666 0.956 . S
C3654 H3667 0.961 . S
C3654 H3668 0.961 . S
C3655 C3652 1.539 . S
C3655 H3669 0.958 . S
C3655 H3670 0.961 . S
C3655 H3671 0.960 . S
H3656 C3640 0.931 . S
H3657 C3645 0.929 . S
H3658 C3646 0.960 . S
H3659 C3646 0.962 . S
H3660 C3646 0.960 . S
H3661 C3647 0.961 . S
H3662 C3647 0.961 . S
H3663 C3647 0.961 . S
H3664 C3648 0.931 . S
H3665 C3653 0.930 . S
H3666 C3654 0.956 . S
H3667 C3654 0.961 . S
H3668 C3654 0.961 . S
H3669 C3655 0.958 . S
H3670 C3655 0.961 . S
H3671 C3655 0.960 . S
C3672 C3673 1.391 . S
C3672 C3674 1.394 . S
C3672 H3688 0.931 . S
C3673 C3672 1.391 . S
C3673 C3677 1.376 . S
C3674 C3672 1.394 . S
C3674 C3675 1.369 . S
C3674 C3678 1.531 . S
C3675 C3674 1.369 . S
C3675 C3676 1.410 . S
C3675 C3683 1.503 . S
C3676 C3675 1.410 . S
C3676 C3677 1.392 . S
C3676 C3679 1.511 . S
C3677 C3673 1.376 . S
C3677 C3676 1.392 . S
C3677 H3689 0.929 . S
C3678 C3674 1.531 . S
C3678 H3690 0.960 . S
C3678 H3691 0.962 . S
C3678 H3692 0.960 . S
C3679 C3676 1.511 . S
C3679 H3693 0.961 . S
C3679 H3694 0.961 . S
C3679 H3695 0.961 . S
C3680 C3681 1.370 . S
C3680 C3682 1.363 . S
C3680 H3696 0.931 . S
C3681 C3680 1.370 . S
C3681 C3685 1.408 . S
C3682 C3680 1.363 . S
C3682 C3683 1.370 . S
C3682 C3686 1.524 . S
C3683 C3675 1.503 . S
C3683 C3682 1.370 . S
C3683 C3684 1.403 . S
C3684 C3683 1.403 . S
C3684 C3685 1.404 . S
C3684 C3687 1.539 . S
C3685 C3681 1.408 . S
C3685 C3684 1.404 . S
C3685 H3697 0.930 . S
C3686 C3682 1.524 . S
C3686 H3698 0.956 . S
C3686 H3699 0.961 . S
C3686 H3700 0.961 . S
C3687 C3684 1.539 . S
C3687 H3701 0.958 . S
C3687 H3702 0.961 . S
C3687 H3703 0.960 . S
H3688 C3672 0.931 . S
H3689 C3677 0.929 . S
H3690 C3678 0.960 . S
H3691 C3678 0.962 . S
H3692 C3678 0.960 . S
H3693 C3679 0.961 . S
H3694 C3679 0.961 . S
H3695 C3679 0.961 . S
H3696 C3680 0.931 . S
H3697 C3685 0.930 . S
H3698 C3686 0.956 . S
H3699 C3686 0.961 . S
H3700 C3686 0.961 . S
H3701 C3687 0.958 . S
H3702 C3687 0.961 . S
H3703 C3687 0.960 . S
C633 C101 1.508 . S
C641 C330 1.440 . S
C665 C57 1.599 . S
C673 C341 1.626 . S
C697 C70 0.892 . S
C705 C370 0.912 . S
C737 C373 1.452 . S
C729 C82 1.448 . S
C761 C23 1.592 . S
C769 C411 1.549 . S
C801 C414 0.942 . S
C793 C29 0.944 . S
C833 C441 1.424 . S
C825 C49 1.421 . S
C857 C10 1.644 . S
C865 C470 1.551 . S
C897 C321 1.535 . S
C889 C218 1.525 . S
C921 C226 0.898 . S
C929 C333 0.907 . S
C961 C361 1.564 . S
C953 C251 1.555 . S
C993 C390 0.970 . S
C985 C159 1.008 . S
C1017 C211 1.018 . S
C1025 C394 0.987 . S
C1057 C420 1.598 . S
C1049 C225 1.618 . S
C1089 C433 0.738 . S
C1081 C252 0.772 . S
C1121 C461 1.561 . S
C1113 C166 1.564 . S
C1153 C313 1.511 . S
C1145 C147 1.525 . S
C1177 C263 1.690 . S
C1185 C480 1.695 . S
C1217 C511 1.549 . S
C1209 C309 1.625 . S
C1249 C530 0.853 . S
C1241 C291 0.820 . S
C1273 C108 1.405 . S
C1281 C453 1.382 . S
C1305 C121 1.503 . S
C1313 C353 1.502 . S
C1337 C302 1.522 . S
C1345 C541 1.527 . S
C1377 C570 0.881 . S
C1369 C276 0.839 . S
C1409 C331 1.691 . S
C1401 C55 1.714 . S
C1441 C560 1.784 . S
C1433 C96 1.786 . S
C1465 C88 1.211 . S
C1473 C371 1.171 . S
C1497 C75 1.620 . S
C1505 C534 1.606 . S
C1537 C410 1.726 . S
C1529 C4 1.794 . S
C1561 C44 1.119 . S
C1569 C493 1.138 . S
C1601 C440 1.657 . S
C1593 C31 1.660 . S
C1633 C591 1.751 . S
C1625 C18 1.811 . S
C1665 C320 1.701 . S
C1657 C133 1.706 . S
C1697 C554 1.050 . S
C1689 C296 1.053 . S
C1721 C107 1.736 . S
C1729 C360 1.720 . S
C1753 C264 1.352 . S
C1761 C551 1.332 . S
C1785 C140 1.188 . S
C1793 C393 1.200 . S
C1825 C501 1.735 . S
C1817 C289 1.764 . S
C1849 C114 0.961 . S
C1857 C434 0.972 . S
C1881 C265 1.776 . S
C1889 C580 1.757 . S
C1913 C179 1.646 . S
C1921 C314 1.615 . S
C1945 C161 1.867 . S
C1953 C481 1.850 . S
C1977 C244 1.758 . S
C1985 C430 1.688 . S
C2009 C224 1.173 . S
C2017 C531 1.167 . S
C2049 C574 1.469 . S
C2041 C257 1.488 . S
C2073 C199 1.616 . S
C2081 C354 1.622 . S
C2113 C380 1.730 . S
C2105 C237 1.745 . S
C2145 C351 1.121 . S
C2137 C185 1.131 . S
C2169 C69 1.492 . S
C2177 C610 1.465 . S
C2209 C561 1.625 . S
C2201 C83 1.593 . S
C2233 C94 0.892 . S
C2241 C630 0.914 . S
C2265 C56 1.433 . S
C2273 C533 1.449 . S
C2297 C42 1.630 . S
C2305 C491 1.564 . S
C2337 C494 0.946 . S
C2329 C3 0.940 . S
C2369 C521 1.431 . S
C2361 C16 1.397 . S
C2401 C590 1.558 . S
C2393 C36 1.638 . S
C2433 C601 1.532 . S
C2425 C238 1.501 . S
C2457 C174 0.884 . S
C2465 C553 0.876 . S
C2497 C621 1.562 . S
C2489 C186 1.541 . S
C2529 C550 1.003 . S
C2521 C198 0.999 . S
C2561 C474 0.988 . S
C2553 C239 0.995 . S
C2585 C173 1.599 . S
C2593 C500 1.608 . S
C2625 C513 0.740 . S
C2617 C187 0.711 . S
C2649 C205 1.549 . S
C2657 C581 1.552 . S
C2689 C593 1.517 . S
C2681 C290 1.540 . S
C2713 C122 1.710 . S
C2721 C400 1.689 . S
C2753 C431 1.544 . S
C2745 C134 1.608 . S
C2785 C450 0.820 . S
C2777 C148 0.855 . S
C2817 C573 1.392 . S
C2809 C283 1.364 . S
C2841 C270 1.494 . S
C2849 C613 1.516 . S
C2881 C381 1.524 . S
C2873 C135 1.508 . S
C2913 C350 0.830 . S
C2905 C109 0.906 . S
C2937 C81 1.705 . S
C2945 C611 1.684 . S
C2977 C340 1.779 . S
C2969 C68 1.784 . S
C3001 C62 1.210 . S
C3009 C631 1.190 . S
C3033 C95 1.613 . S
C3041 C374 1.610 . S
C3065 C30 1.795 . S
C3073 C490 1.729 . S
C3105 C413 1.120 . S
C3097 C17 1.114 . S
C3129 C5 1.660 . S
C3137 C520 1.657 . S
C3161 C43 1.797 . S
C3169 C471 1.734 . S
C3201 C600 1.692 . S
C3193 C304 1.698 . S
C3225 C153 1.047 . S
C3233 C334 1.060 . S
C3265 C620 1.721 1_655 S
C3257 C278 1.736 . S
C3289 C127 1.347 . S
C3297 C391 1.344 . S
C3321 C303 1.197 . S
C3329 C473 1.198 . S
C3361 C421 1.740 . S
C3353 C146 1.764 . S
C3385 C277 0.951 . S
C3393 C514 0.963 . S
C3425 C460 1.760 . S
C3417 C120 1.774 . S
C3457 C594 1.631 . S
C3449 C231 1.639 . S
C3489 C401 1.843 1_565 S
C3481 C200 1.866 . S
C3513 C212 1.759 . S
C3521 C510 1.691 . S
C3553 C451 1.168 . S
C3545 C172 1.191 . S
C3577 C192 1.476 . S
C3585 C454 1.481 . S
C3609 C160 1.616 . S
C3617 C614 1.622 . S
C3649 C540 1.729 . S
C3641 C213 1.750 . S
C3681 C571 1.112 . S
C3673 C250 1.142 . S
