# Generated by pormake.
# Topology gar, (4,6)-cn, num edge types: 1
# Building blocks:
#     Node 0, Type 0, BuildingBlock: TATPOV_clean_sbu_0, # of connection points: 4
#     Node 1, Type 0, BuildingBlock: TATPOV_clean_sbu_0, # of connection points: 4
#     Node 2, Type 0, BuildingBlock: TATPOV_clean_sbu_0, # of connection points: 4
#     Node 3, Type 0, BuildingBlock: TATPOV_clean_sbu_0, # of connection points: 4
#     Node 4, Type 0, BuildingBlock: TATPOV_clean_sbu_0, # of connection points: 4
#     Node 5, Type 0, BuildingBlock: TATPOV_clean_sbu_0, # of connection points: 4
#     Node 6, Type 0, BuildingBlock: TATPOV_clean_sbu_0, # of connection points: 4
#     Node 7, Type 0, BuildingBlock: TATPOV_clean_sbu_0, # of connection points: 4
#     Node 8, Type 0, BuildingBlock: TATPOV_clean_sbu_0, # of connection points: 4
#     Node 9, Type 0, BuildingBlock: TATPOV_clean_sbu_0, # of connection points: 4
#     Node 10, Type 0, BuildingBlock: TATPOV_clean_sbu_0, # of connection points: 4
#     Node 11, Type 0, BuildingBlock: TATPOV_clean_sbu_0, # of connection points: 4
#     Node 12, Type 0, BuildingBlock: TATPOV_clean_sbu_0, # of connection points: 4
#     Node 13, Type 0, BuildingBlock: TATPOV_clean_sbu_0, # of connection points: 4
#     Node 14, Type 0, BuildingBlock: TATPOV_clean_sbu_0, # of connection points: 4
#     Node 15, Type 0, BuildingBlock: TATPOV_clean_sbu_0, # of connection points: 4
#     Node 16, Type 0, BuildingBlock: TATPOV_clean_sbu_0, # of connection points: 4
#     Node 17, Type 0, BuildingBlock: TATPOV_clean_sbu_0, # of connection points: 4
#     Node 18, Type 0, BuildingBlock: TATPOV_clean_sbu_0, # of connection points: 4
#     Node 19, Type 0, BuildingBlock: TATPOV_clean_sbu_0, # of connection points: 4
#     Node 20, Type 0, BuildingBlock: TATPOV_clean_sbu_0, # of connection points: 4
#     Node 21, Type 0, BuildingBlock: TATPOV_clean_sbu_0, # of connection points: 4
#     Node 22, Type 0, BuildingBlock: TATPOV_clean_sbu_0, # of connection points: 4
#     Node 23, Type 0, BuildingBlock: TATPOV_clean_sbu_0, # of connection points: 4
#     Node 24, Type 1, BuildingBlock: PAMTOO_clean_sbu_0, # of connection points: 6
#     Node 25, Type 1, BuildingBlock: PAMTOO_clean_sbu_0, # of connection points: 6
#     Node 26, Type 1, BuildingBlock: PAMTOO_clean_sbu_0, # of connection points: 6
#     Node 27, Type 1, BuildingBlock: PAMTOO_clean_sbu_0, # of connection points: 6
#     Node 28, Type 1, BuildingBlock: PAMTOO_clean_sbu_0, # of connection points: 6
#     Node 29, Type 1, BuildingBlock: PAMTOO_clean_sbu_0, # of connection points: 6
#     Node 30, Type 1, BuildingBlock: PAMTOO_clean_sbu_0, # of connection points: 6
#     Node 31, Type 1, BuildingBlock: PAMTOO_clean_sbu_0, # of connection points: 6
#     Node 32, Type 1, BuildingBlock: PAMTOO_clean_sbu_0, # of connection points: 6
#     Node 33, Type 1, BuildingBlock: PAMTOO_clean_sbu_0, # of connection points: 6
#     Node 34, Type 1, BuildingBlock: PAMTOO_clean_sbu_0, # of connection points: 6
#     Node 35, Type 1, BuildingBlock: PAMTOO_clean_sbu_0, # of connection points: 6
#     Node 36, Type 1, BuildingBlock: PAMTOO_clean_sbu_0, # of connection points: 6
#     Node 37, Type 1, BuildingBlock: PAMTOO_clean_sbu_0, # of connection points: 6
#     Node 38, Type 1, BuildingBlock: PAMTOO_clean_sbu_0, # of connection points: 6
#     Node 39, Type 1, BuildingBlock: PAMTOO_clean_sbu_0, # of connection points: 6
#     Edge 40, Type (0, 1), BuildingBlock: KIFKEQ_clean_linker_1, # of connection points: 2
#     Edge 41, Type (0, 1), BuildingBlock: KIFKEQ_clean_linker_1, # of connection points: 2
#     Edge 42, Type (0, 1), BuildingBlock: KIFKEQ_clean_linker_1, # of connection points: 2
#     Edge 43, Type (0, 1), BuildingBlock: KIFKEQ_clean_linker_1, # of connection points: 2
#     Edge 44, Type (0, 1), BuildingBlock: KIFKEQ_clean_linker_1, # of connection points: 2
#     Edge 45, Type (0, 1), BuildingBlock: KIFKEQ_clean_linker_1, # of connection points: 2
#     Edge 46, Type (0, 1), BuildingBlock: KIFKEQ_clean_linker_1, # of connection points: 2
#     Edge 47, Type (0, 1), BuildingBlock: KIFKEQ_clean_linker_1, # of connection points: 2
#     Edge 48, Type (0, 1), BuildingBlock: KIFKEQ_clean_linker_1, # of connection points: 2
#     Edge 49, Type (0, 1), BuildingBlock: KIFKEQ_clean_linker_1, # of connection points: 2
#     Edge 50, Type (0, 1), BuildingBlock: KIFKEQ_clean_linker_1, # of connection points: 2
#     Edge 51, Type (0, 1), BuildingBlock: KIFKEQ_clean_linker_1, # of connection points: 2
#     Edge 52, Type (0, 1), BuildingBlock: KIFKEQ_clean_linker_1, # of connection points: 2
#     Edge 53, Type (0, 1), BuildingBlock: KIFKEQ_clean_linker_1, # of connection points: 2
#     Edge 54, Type (0, 1), BuildingBlock: KIFKEQ_clean_linker_1, # of connection points: 2
#     Edge 55, Type (0, 1), BuildingBlock: KIFKEQ_clean_linker_1, # of connection points: 2
#     Edge 56, Type (0, 1), BuildingBlock: KIFKEQ_clean_linker_1, # of connection points: 2
#     Edge 57, Type (0, 1), BuildingBlock: KIFKEQ_clean_linker_1, # of connection points: 2
#     Edge 58, Type (0, 1), BuildingBlock: KIFKEQ_clean_linker_1, # of connection points: 2
#     Edge 59, Type (0, 1), BuildingBlock: KIFKEQ_clean_linker_1, # of connection points: 2
#     Edge 60, Type (0, 1), BuildingBlock: KIFKEQ_clean_linker_1, # of connection points: 2
#     Edge 61, Type (0, 1), BuildingBlock: KIFKEQ_clean_linker_1, # of connection points: 2
#     Edge 62, Type (0, 1), BuildingBlock: KIFKEQ_clean_linker_1, # of connection points: 2
#     Edge 63, Type (0, 1), BuildingBlock: KIFKEQ_clean_linker_1, # of connection points: 2
#     Edge 64, Type (0, 1), BuildingBlock: KIFKEQ_clean_linker_1, # of connection points: 2
#     Edge 65, Type (0, 1), BuildingBlock: KIFKEQ_clean_linker_1, # of connection points: 2
#     Edge 66, Type (0, 1), BuildingBlock: KIFKEQ_clean_linker_1, # of connection points: 2
#     Edge 67, Type (0, 1), BuildingBlock: KIFKEQ_clean_linker_1, # of connection points: 2
#     Edge 68, Type (0, 1), BuildingBlock: KIFKEQ_clean_linker_1, # of connection points: 2
#     Edge 69, Type (0, 1), BuildingBlock: KIFKEQ_clean_linker_1, # of connection points: 2
#     Edge 70, Type (0, 1), BuildingBlock: KIFKEQ_clean_linker_1, # of connection points: 2
#     Edge 71, Type (0, 1), BuildingBlock: KIFKEQ_clean_linker_1, # of connection points: 2
#     Edge 72, Type (0, 1), BuildingBlock: KIFKEQ_clean_linker_1, # of connection points: 2
#     Edge 73, Type (0, 1), BuildingBlock: KIFKEQ_clean_linker_1, # of connection points: 2
#     Edge 74, Type (0, 1), BuildingBlock: KIFKEQ_clean_linker_1, # of connection points: 2
#     Edge 75, Type (0, 1), BuildingBlock: KIFKEQ_clean_linker_1, # of connection points: 2
#     Edge 76, Type (0, 1), BuildingBlock: KIFKEQ_clean_linker_1, # of connection points: 2
#     Edge 77, Type (0, 1), BuildingBlock: KIFKEQ_clean_linker_1, # of connection points: 2
#     Edge 78, Type (0, 1), BuildingBlock: KIFKEQ_clean_linker_1, # of connection points: 2
#     Edge 79, Type (0, 1), BuildingBlock: KIFKEQ_clean_linker_1, # of connection points: 2
#     Edge 80, Type (0, 1), BuildingBlock: KIFKEQ_clean_linker_1, # of connection points: 2
#     Edge 81, Type (0, 1), BuildingBlock: KIFKEQ_clean_linker_1, # of connection points: 2
#     Edge 82, Type (0, 1), BuildingBlock: KIFKEQ_clean_linker_1, # of connection points: 2
#     Edge 83, Type (0, 1), BuildingBlock: KIFKEQ_clean_linker_1, # of connection points: 2
#     Edge 84, Type (0, 1), BuildingBlock: KIFKEQ_clean_linker_1, # of connection points: 2
#     Edge 85, Type (0, 1), BuildingBlock: KIFKEQ_clean_linker_1, # of connection points: 2
#     Edge 86, Type (0, 1), BuildingBlock: KIFKEQ_clean_linker_1, # of connection points: 2
#     Edge 87, Type (0, 1), BuildingBlock: KIFKEQ_clean_linker_1, # of connection points: 2
#     Edge 88, Type (0, 1), BuildingBlock: KIFKEQ_clean_linker_1, # of connection points: 2
#     Edge 89, Type (0, 1), BuildingBlock: KIFKEQ_clean_linker_1, # of connection points: 2
#     Edge 90, Type (0, 1), BuildingBlock: KIFKEQ_clean_linker_1, # of connection points: 2
#     Edge 91, Type (0, 1), BuildingBlock: KIFKEQ_clean_linker_1, # of connection points: 2
#     Edge 92, Type (0, 1), BuildingBlock: KIFKEQ_clean_linker_1, # of connection points: 2
#     Edge 93, Type (0, 1), BuildingBlock: KIFKEQ_clean_linker_1, # of connection points: 2
#     Edge 94, Type (0, 1), BuildingBlock: KIFKEQ_clean_linker_1, # of connection points: 2
#     Edge 95, Type (0, 1), BuildingBlock: KIFKEQ_clean_linker_1, # of connection points: 2
#     Edge 96, Type (0, 1), BuildingBlock: KIFKEQ_clean_linker_1, # of connection points: 2
#     Edge 97, Type (0, 1), BuildingBlock: KIFKEQ_clean_linker_1, # of connection points: 2
#     Edge 98, Type (0, 1), BuildingBlock: KIFKEQ_clean_linker_1, # of connection points: 2
#     Edge 99, Type (0, 1), BuildingBlock: KIFKEQ_clean_linker_1, # of connection points: 2
#     Edge 100, Type (0, 1), BuildingBlock: KIFKEQ_clean_linker_1, # of connection points: 2
#     Edge 101, Type (0, 1), BuildingBlock: KIFKEQ_clean_linker_1, # of connection points: 2
#     Edge 102, Type (0, 1), BuildingBlock: KIFKEQ_clean_linker_1, # of connection points: 2
#     Edge 103, Type (0, 1), BuildingBlock: KIFKEQ_clean_linker_1, # of connection points: 2
#     Edge 104, Type (0, 1), BuildingBlock: KIFKEQ_clean_linker_1, # of connection points: 2
#     Edge 105, Type (0, 1), BuildingBlock: KIFKEQ_clean_linker_1, # of connection points: 2
#     Edge 106, Type (0, 1), BuildingBlock: KIFKEQ_clean_linker_1, # of connection points: 2
#     Edge 107, Type (0, 1), BuildingBlock: KIFKEQ_clean_linker_1, # of connection points: 2
#     Edge 108, Type (0, 1), BuildingBlock: KIFKEQ_clean_linker_1, # of connection points: 2
#     Edge 109, Type (0, 1), BuildingBlock: KIFKEQ_clean_linker_1, # of connection points: 2
#     Edge 110, Type (0, 1), BuildingBlock: KIFKEQ_clean_linker_1, # of connection points: 2
#     Edge 111, Type (0, 1), BuildingBlock: KIFKEQ_clean_linker_1, # of connection points: 2
#     Edge 112, Type (0, 1), BuildingBlock: KIFKEQ_clean_linker_1, # of connection points: 2
#     Edge 113, Type (0, 1), BuildingBlock: KIFKEQ_clean_linker_1, # of connection points: 2
#     Edge 114, Type (0, 1), BuildingBlock: KIFKEQ_clean_linker_1, # of connection points: 2
#     Edge 115, Type (0, 1), BuildingBlock: KIFKEQ_clean_linker_1, # of connection points: 2
#     Edge 116, Type (0, 1), BuildingBlock: KIFKEQ_clean_linker_1, # of connection points: 2
#     Edge 117, Type (0, 1), BuildingBlock: KIFKEQ_clean_linker_1, # of connection points: 2
#     Edge 118, Type (0, 1), BuildingBlock: KIFKEQ_clean_linker_1, # of connection points: 2
#     Edge 119, Type (0, 1), BuildingBlock: KIFKEQ_clean_linker_1, # of connection points: 2
#     Edge 120, Type (0, 1), BuildingBlock: KIFKEQ_clean_linker_1, # of connection points: 2
#     Edge 121, Type (0, 1), BuildingBlock: KIFKEQ_clean_linker_1, # of connection points: 2
#     Edge 122, Type (0, 1), BuildingBlock: KIFKEQ_clean_linker_1, # of connection points: 2
#     Edge 123, Type (0, 1), BuildingBlock: KIFKEQ_clean_linker_1, # of connection points: 2
#     Edge 124, Type (0, 1), BuildingBlock: KIFKEQ_clean_linker_1, # of connection points: 2
#     Edge 125, Type (0, 1), BuildingBlock: KIFKEQ_clean_linker_1, # of connection points: 2
#     Edge 126, Type (0, 1), BuildingBlock: KIFKEQ_clean_linker_1, # of connection points: 2
#     Edge 127, Type (0, 1), BuildingBlock: KIFKEQ_clean_linker_1, # of connection points: 2
#     Edge 128, Type (0, 1), BuildingBlock: KIFKEQ_clean_linker_1, # of connection points: 2
#     Edge 129, Type (0, 1), BuildingBlock: KIFKEQ_clean_linker_1, # of connection points: 2
#     Edge 130, Type (0, 1), BuildingBlock: KIFKEQ_clean_linker_1, # of connection points: 2
#     Edge 131, Type (0, 1), BuildingBlock: KIFKEQ_clean_linker_1, # of connection points: 2
#     Edge 132, Type (0, 1), BuildingBlock: KIFKEQ_clean_linker_1, # of connection points: 2
#     Edge 133, Type (0, 1), BuildingBlock: KIFKEQ_clean_linker_1, # of connection points: 2
#     Edge 134, Type (0, 1), BuildingBlock: KIFKEQ_clean_linker_1, # of connection points: 2
#     Edge 135, Type (0, 1), BuildingBlock: KIFKEQ_clean_linker_1, # of connection points: 2
# Relax obj value: 0.160
# Max RMSD: 0.270
# Mean RMSD: 0.175
data_MOF--net-gar--node1-TATPOV_clean_sbu_0--node2-PAMTOO_clean_sbu_0--edge1-KIFKEQ_clean_linker_1
_symmetry_space_group_name_H-M    P1
_symmetry_Int_Tables_number       1
_symmetry_cell_setting            triclinic
loop_
_symmetry_equiv_pos_as_xyz
'x, y, z'
_cell_length_a     60.458385
_cell_length_b     60.966622
_cell_length_c     59.512643
_cell_angle_alpha  96.879205
_cell_angle_beta   96.950713
_cell_angle_gamma 105.35665
loop_
_atom_site_label
_atom_site_type_symbol
_atom_site_fract_x
_atom_site_fract_y
_atom_site_fract_z
_atom_type_partial_charge
Zn0 Zn 0.02517 0.3184 0.38787 0.0
Zn1 Zn 0.05417 0.31923 0.36 0.0
O2 O 0.06257 0.35358 0.37972 0.0
O3 O 0.03887 0.34946 0.40529 0.0
O4 O 0.08418 0.31959 0.34324 0.0
O5 O 0.02899 0.29255 0.40285 0.0
O6 O 0.05395 0.29137 0.37898 0.0
C7 C 0.05496 0.36208 0.39705 0.0
C8 C 1.0011 0.31229 0.34241 0.0
O9 O 0.02139 0.31338 0.33695 0.0
O10 O 0.99852 0.31393 0.36323 0.0
C11 C 0.08773 0.3028 0.33028 0.0
O12 O 0.07073 0.28361 0.32442 0.0
C13 C 0.04343 0.28338 0.39501 0.0
Zn14 Zn 0.01048 0.72168 0.71093 0.0
Zn15 Zn 0.01682 0.75314 0.68466 0.0
O16 O 0.98733 0.75676 0.70083 0.0
O17 O 0.98285 0.73014 0.72298 0.0
O18 O 0.02267 0.77904 0.66507 0.0
O19 O 0.04439 0.73331 0.7271 0.0
O20 O 0.05019 0.75921 0.70417 0.0
C21 C 0.97608 0.74615 0.71521 0.0
C22 C 0.00732 0.70199 0.66349 0.0
O23 O 0.01131 0.72312 0.66077 0.0
O24 O 0.005 0.69671 0.68321 0.0
C25 C 0.00702 0.78756 0.65668 0.0
O26 O 0.98566 0.77945 0.66052 0.0
C27 C 0.0583 0.74929 0.71968 0.0
Zn28 Zn 0.51797 0.81419 0.88069 0.0
Zn29 Zn 0.54932 0.81504 0.85769 0.0
O30 O 0.55696 0.85029 0.87586 0.0
O31 O 0.52744 0.84624 0.89495 0.0
O32 O 0.57892 0.81115 0.84171 0.0
O33 O 0.52065 0.7914 0.89991 0.0
O34 O 0.5472 0.78808 0.87872 0.0
C35 C 0.54542 0.85901 0.88958 0.0
C36 C 0.49635 0.80509 0.83565 0.0
O37 O 0.5177 0.80855 0.83241 0.0
O38 O 0.49162 0.80548 0.8557 0.0
C39 C 0.59472 0.82525 0.83364 0.0
O40 O 0.59329 0.84634 0.83333 0.0
C41 C 0.53531 0.7813 0.89437 0.0
Zn42 Zn 0.51258 0.22105 0.21066 0.0
Zn43 Zn 0.51799 0.25194 0.18364 0.0
O44 O 0.48827 0.25519 0.1995 0.0
O45 O 0.48467 0.22928 0.22243 0.0
O46 O 0.52357 0.27782 0.16411 0.0
O47 O 0.54641 0.23371 0.22708 0.0
O48 O 0.55136 0.25879 0.20327 0.0
C49 C 0.47737 0.24481 0.21421 0.0
C50 C 0.50951 0.20088 0.1631 0.0
O51 O 0.51292 0.22186 0.16002 0.0
O52 O 0.5076 0.1959 0.18301 0.0
C53 C 0.50745 0.28436 0.15356 0.0
O54 O 0.48576 0.27401 0.15495 0.0
C55 C 0.5599 0.24968 0.21925 0.0
Zn56 Zn 0.09699 0.80392 0.08261 0.0
Zn57 Zn 0.06435 0.79712 0.10791 0.0
O58 O 0.06148 0.82723 0.09235 0.0
O59 O 0.0881 0.83138 0.07 0.0
O60 O 0.03787 0.79155 0.12727 0.0
O61 O 0.08592 0.76958 0.06713 0.0
O62 O 0.05792 0.76382 0.08792 0.0
C63 C 0.07223 0.83846 0.07799 0.0
C64 C 0.11596 0.80705 0.1304 0.0
O65 O 0.09439 0.80205 0.1323 0.0
O66 O 0.12189 0.81029 0.11105 0.0
C67 C 0.03062 0.80756 0.13691 0.0
O68 O 0.0404 0.82893 0.13448 0.0
C69 C 0.06896 0.75573 0.07341 0.0
Zn70 Zn 0.4715 0.7597 0.46762 0.0
Zn71 Zn 0.5027 0.76624 0.44065 0.0
O72 O 0.51086 0.7996 0.4606 0.0
O73 O 0.48449 0.79415 0.48328 0.0
O74 O 0.52849 0.76901 0.42039 0.0
O75 O 0.47993 0.73141 0.47921 0.0
O76 O 0.50556 0.73588 0.45587 0.0
C77 C 0.50089 0.80786 0.47604 0.0
C78 C 0.4505 0.75895 0.42093 0.0
O79 O 0.4718 0.76345 0.41795 0.0
O80 O 0.44535 0.75469 0.44031 0.0
C81 C 0.53663 0.78641 0.41084 0.0
O82 O 0.52796 0.804 0.41343 0.0
C83 C 0.49545 0.72441 0.47041 0.0
Zn84 Zn 0.59729 0.30394 0.58395 0.0
Zn85 Zn 0.5649 0.29663 0.60946 0.0
O86 O 0.56259 0.32749 0.59498 0.0
O87 O 0.58704 0.33064 0.5704 0.0
O88 O 0.53775 0.29129 0.62791 0.0
O89 O 0.58654 0.26933 0.56882 0.0
O90 O 0.55819 0.26349 0.58915 0.0
C91 C 0.57205 0.33819 0.57963 0.0
C92 C 0.61632 0.30589 0.63188 0.0
O93 O 0.5947 0.30016 0.63359 0.0
O94 O 0.62239 0.31064 0.61292 0.0
C95 C 0.53771 0.30462 0.64611 0.0
O96 O 0.55588 0.32251 0.65364 0.0
C97 C 0.56945 0.25542 0.57488 0.0
Zn98 Zn 0.9735 0.25986 0.9684 0.0
Zn99 Zn 1.00317 0.26582 0.94012 0.0
O100 O 0.01095 0.29959 0.95955 0.0
O101 O 0.98549 0.29435 0.98317 0.0
O102 O 0.02898 0.26882 0.92011 0.0
O103 O 0.98354 0.23277 0.98121 0.0
O104 O 0.00595 0.23532 0.95481 0.0
C105 C 1.00125 0.30802 0.97514 0.0
C106 C 0.95131 0.25766 0.92123 0.0
O107 O 0.97236 0.26211 0.91757 0.0
O108 O 0.94691 0.254 0.94102 0.0
C109 C 0.03346 0.28337 0.90642 0.0
O110 O 0.02069 0.29764 0.90431 0.0
C111 C 0.9976 0.22487 0.97078 0.0
Zn112 Zn 0.40032 0.98675 0.28905 0.0
Zn113 Zn 0.39284 0.02507 0.29206 0.0
O114 O 0.41238 0.02678 0.32284 0.0
O115 O 0.40987 0.99016 0.32268 0.0
O116 O 0.38616 0.055 0.29367 0.0
O117 O 0.42458 -0.00453 0.26976 0.0
O118 O 0.40902 0.02353 0.26408 0.0
C119 C 0.41624 0.01068 0.33305 0.0
C120 C 0.35315 0.98282 0.27711 0.0
O121 O 0.36 0.00353 0.28704 0.0
O122 O 0.36764 0.97166 0.27379 0.0
C123 C 0.37071 0.05728 0.30565 0.0
O124 O 0.36299 0.04161 0.31836 0.0
C125 C 0.42249 0.01155 0.25892 0.0
Zn126 Zn 0.25312 0.22129 0.51134 0.0
Zn127 Zn 0.28039 0.19499 0.51522 0.0
O128 O 0.28738 0.21064 0.48549 0.0
O129 O 0.26632 0.235 0.48498 0.0
O130 O 0.30413 0.17695 0.51969 0.0
O131 O 0.26295 0.23774 0.5442 0.0
O132 O 0.28439 0.21403 0.54827 0.0
C133 C 0.28054 0.22609 0.47611 0.0
C134 C 0.22859 0.1723 0.50549 0.0
O135 O 0.24897 0.17002 0.50965 0.0
O136 O 0.22585 0.1921 0.50455 0.0
C137 C 0.31034 0.16602 0.50315 0.0
O138 O 0.30139 0.16651 0.48203 0.0
C139 C 0.2763 0.2299 0.55699 0.0
Zn140 Zn 0.09876 0.06507 0.78475 0.0
Zn141 Zn 0.12439 0.03742 0.78044 0.0
O142 O 0.1087 0.03085 0.81026 0.0
O143 O 0.08454 0.05215 0.81095 0.0
O144 O 0.14079 0.01245 0.77578 0.0
O145 O 0.08188 0.05592 0.75198 0.0
O146 O 0.10514 0.03402 0.74755 0.0
C147 C 0.09328 0.03783 0.8197 0.0
C148 C 0.14859 0.08839 0.79059 0.0
O149 O 0.15049 0.06807 0.78598 0.0
O150 O 0.12879 0.09144 0.79179 0.0
C151 C 0.15986 0.01335 0.78803 0.0
O152 O 0.1693 0.03091 0.80454 0.0
C153 C 0.08935 0.04244 0.73904 0.0
Zn154 Zn 0.32593 0.89703 0.0075 0.0
Zn155 Zn 0.28899 0.91034 0.00414 0.0
O156 O 0.28669 0.89555 0.97145 0.0
O157 O 0.32151 0.89043 0.97329 0.0
O158 O 0.26254 0.92363 0.00404 0.0
O159 O 0.31162 0.8721 0.02404 0.0
O160 O 0.2822 0.88676 0.0257 0.0
C161 C 0.30217 0.88942 0.96174 0.0
C162 C 0.33749 0.94334 0.02332 0.0
O163 O 0.31634 0.93938 0.0146 0.0
O164 O 0.34638 0.92691 0.02469 0.0
C165 C 0.26511 0.9427 -0.00328 0.0
O166 O 0.28353 0.95117 0.98744 0.0
C167 C 0.29253 0.87192 0.03071 0.0
Zn168 Zn 0.3161 0.34625 0.03875 0.0
Zn169 Zn 0.28965 0.37291 0.03515 0.0
O170 O 0.2844 0.35316 0.00198 0.0
O171 O 0.30637 0.32995 0.00611 0.0
O172 O 0.2653 0.39056 0.03295 0.0
O173 O 0.30336 0.33211 0.06509 0.0
O174 O 0.28411 0.35806 0.06541 0.0
C175 C 0.29264 0.33734 -0.00671 0.0
C176 C 0.3414 0.39507 0.04385 0.0
O177 O 0.32119 0.39781 0.03974 0.0
O178 O 0.34357 0.3751 0.04514 0.0
C179 C 0.26183 0.40115 0.01628 0.0
O180 O 0.27442 0.40082 -0.0002 0.0
C181 C 0.29026 0.34215 0.0745 0.0
Zn182 Zn 0.76677 0.17934 0.07658 0.0
Zn183 Zn 0.79399 0.15607 0.05995 0.0
O184 O 0.7967 0.1805 0.03967 0.0
O185 O 0.77424 0.20024 0.05325 0.0
O186 O 0.81377 0.13799 0.04851 0.0
O187 O 0.78696 0.18635 0.10678 0.0
O188 O 0.81016 0.16747 0.09311 0.0
C189 C 0.78764 0.19703 0.0392 0.0
C190 C 0.74248 0.13292 0.05843 0.0
O191 O 0.76217 0.13234 0.05344 0.0
O192 O 0.73979 0.15101 0.06908 0.0
C193 C 0.80859 0.12533 0.02906 0.0
O194 O 0.78957 0.12454 0.01534 0.0
C195 C 0.80484 0.17935 0.1095 0.0
Zn196 Zn 0.16918 0.57644 0.23133 0.0
Zn197 Zn 0.17931 0.54226 0.24812 0.0
O198 O 0.16172 0.55202 0.27217 0.0
O199 O 0.15623 0.58326 0.26018 0.0
O200 O 0.18902 0.51647 0.25872 0.0
O201 O 0.14854 0.55587 0.20448 0.0
O202 O 0.15905 0.52704 0.21719 0.0
C203 C 0.15441 0.56972 0.27485 0.0
C204 C 0.21719 0.58405 0.24123 0.0
O205 O 0.21066 0.56613 0.25034 0.0
O206 O 0.20243 0.59125 0.22963 0.0
C207 C 0.20211 0.51961 0.27782 0.0
O208 O 0.20781 0.53974 0.29108 0.0
C209 C 0.14764 0.5348 0.20228 0.0
Zn210 Zn 0.81607 0.84395 0.53523 0.0
Zn211 Zn 0.78908 0.8694 0.53385 0.0
O212 O 0.78348 0.84978 0.50061 0.0
O213 O 0.80282 0.82428 0.50453 0.0
O214 O 0.76441 0.88665 0.53199 0.0
O215 O 0.80904 0.83346 0.56489 0.0
O216 O 0.78396 0.85373 0.56379 0.0
C217 C 0.78994 0.8327 0.49187 0.0
C218 C 0.84043 0.89212 0.5369 0.0
O219 O 0.82043 0.89511 0.53783 0.0
O220 O 0.84278 0.87199 0.53553 0.0
C221 C 0.76392 0.90066 0.51783 0.0
O222 O 0.77958 0.90381 0.50413 0.0
C223 C 0.79384 0.8406 0.57393 0.0
Zn224 Zn 0.97256 -0.00271 0.25874 0.0
Zn225 Zn 0.94839 0.02549 0.26101 0.0
O226 O 0.96851 0.03104 0.29424 0.0
O227 O 0.99155 0.00894 0.28995 0.0
O228 O 0.93177 0.05038 0.26239 0.0
O229 O 0.98452 0.00532 0.22987 0.0
O230 O 0.96358 0.02972 0.23076 0.0
C231 C 0.98458 0.02292 0.30279 0.0
C232 C 0.92368 0.97493 0.25705 0.0
O233 O 0.92169 -0.00474 0.25737 0.0
O234 O 0.94345 0.97145 0.25742 0.0
C235 C 0.91943 0.05323 0.27775 0.0
O236 O 0.91767 0.0399 0.29362 0.0
C237 C 0.97714 0.02029 0.22079 0.0
Zn238 Zn 0.2657 0.69492 0.56353 0.0
Zn239 Zn 0.28986 0.65367 0.55194 0.0
O240 O 0.29027 0.65947 0.51884 0.0
O241 O 0.27585 0.68382 0.53634 0.0
O242 O 0.3059 0.62993 0.5542 0.0
O243 O 0.29537 0.70956 0.58416 0.0
O244 O 0.30998 0.68013 0.57624 0.0
C245 C 0.28247 0.67662 0.51858 0.0
C246 C 0.24251 0.64767 0.56944 0.0
O247 O 0.25789 0.64071 0.56012 0.0
O248 O 0.24359 0.66889 0.57366 0.0
C249 C 0.29719 0.60941 0.54406 0.0
O250 O 0.27602 0.60314 0.53244 0.0
C251 C 0.31164 0.70009 0.58685 0.0
Zn252 Zn 0.4671 0.49462 0.75635 0.0
Zn253 Zn 0.445 0.5254 0.76183 0.0
O254 O 0.46578 0.53034 0.79428 0.0
O255 O 0.48322 0.50315 0.78928 0.0
O256 O 0.42841 0.55057 0.76391 0.0
O257 O 0.48237 0.5068 0.73042 0.0
O258 O 0.46036 0.53024 0.73174 0.0
C259 C 0.47931 0.51919 0.80238 0.0
C260 C 0.41803 0.47421 0.75265 0.0
O261 O 0.41828 0.49514 0.75833 0.0
O262 O 0.43658 0.46937 0.74922 0.0
C263 C 0.41795 0.55468 0.78055 0.0
O264 O 0.41814 0.54257 0.79738 0.0
C265 C 0.47486 0.52203 0.722 0.0
Zn266 Zn 0.6833 0.09183 0.74677 0.0
Zn267 Zn 0.68659 0.0526 0.7534 0.0
O268 O 0.67051 0.05971 0.77965 0.0
O269 O 0.67519 0.09658 0.77846 0.0
O270 O 0.6925 0.02297 0.7572 0.0
O271 O 0.65788 0.07868 0.7207 0.0
O272 O 0.66517 0.04544 0.72246 0.0
C273 C 0.66876 0.07915 0.78824 0.0
C274 C 0.72893 0.09176 0.75048 0.0
O275 O 0.72004 0.07342 0.7581 0.0
O276 O 0.71594 0.10239 0.74117 0.0
C277 C 0.70625 0.01795 0.74433 0.0
O278 O 0.7129 0.0311 0.72902 0.0
C279 C 0.65402 0.05764 0.71272 0.0
Zn280 Zn 0.75042 0.7179 0.00901 0.0
Zn281 Zn 0.78086 0.69589 0.01482 0.0
O282 O 0.78651 0.71063 0.98436 0.0
O283 O 0.76136 0.73084 0.98177 0.0
O284 O 0.80623 0.67954 0.01939 0.0
O285 O 0.7588 0.73534 0.04122 0.0
O286 O 0.78494 0.71668 0.04699 0.0
C287 C 0.77707 0.72375 0.97368 0.0
C288 C 0.72898 0.66974 0.00528 0.0
O289 O 0.74997 0.66941 0.01053 0.0
O290 O 0.72452 0.68851 0.00279 0.0
C291 C 0.80276 0.65867 0.01029 0.0
O292 O 0.78271 0.64781 -0.00261 0.0
C293 C 0.77424 0.73078 0.0547 0.0
Zn294 Zn 0.89222 0.47462 0.7889 0.0
Zn295 Zn 0.88833 0.51678 0.78691 0.0
O296 O 0.91122 0.52304 0.81643 0.0
O297 O 0.91489 0.48816 0.81783 0.0
O298 O 0.8835 0.54678 0.78272 0.0
O299 O 0.90249 0.47281 0.75832 0.0
O300 O 0.90177 0.5088 0.75856 0.0
C301 C 0.92009 0.50928 0.8263 0.0
C302 C 0.84636 0.47748 0.79033 0.0
O303 O 0.85498 0.49846 0.78859 0.0
O304 O 0.85877 0.46377 0.79082 0.0
C305 C 0.87549 0.55704 0.79818 0.0
O306 O 0.87301 0.54864 0.81735 0.0
C307 C 0.9059 0.4908 0.74914 0.0
Zn308 Zn 0.8082 0.38221 0.48428 0.0
Zn309 Zn 0.78094 0.40945 0.48968 0.0
O310 O 0.76708 0.39256 0.45757 0.0
O311 O 0.79377 0.37487 0.45134 0.0
O312 O 0.76117 0.42995 0.49627 0.0
O313 O 0.79397 0.36341 0.50674 0.0
O314 O 0.77677 0.39025 0.51524 0.0
C315 C 0.77563 0.38027 0.44436 0.0
C316 C 0.83337 0.429 0.49617 0.0
O317 O 0.81313 0.43144 0.49264 0.0
O318 O 0.83629 0.40916 0.49537 0.0
C319 C 0.76853 0.45177 0.49909 0.0
O320 O 0.78989 0.46188 0.49649 0.0
C321 C 0.78188 0.37201 0.51917 0.0
Zn322 Zn 0.5976 0.56989 0.28754 0.0
Zn323 Zn 0.6195 0.53943 0.28217 0.0
O324 O 0.6041 0.53381 0.31215 0.0
O325 O 0.58258 0.55772 0.31355 0.0
O326 O 0.63607 0.51446 0.27856 0.0
O327 O 0.58254 0.56276 0.25424 0.0
O328 O 0.5991 0.53483 0.24968 0.0
C329 C 0.59002 0.54249 0.32211 0.0
C330 C 0.64629 0.59072 0.2929 0.0
O331 O 0.6463 0.56996 0.28666 0.0
O332 O 0.6275 0.59522 0.29586 0.0
C333 C 0.6566 0.5178 0.28906 0.0
O334 O 0.66683 0.53747 0.3026 0.0
C335 C 0.5864 0.5466 0.2413 0.0
Dy336 Dy 0.06245 0.04491 0.03196 0.0
Dy337 Dy 0.01 0.0172 0.00929 0.0
C338 C 0.05006 0.0232 0.97792 0.0
O339 O 0.04561 0.07378 0.02821 0.0
O340 O 0.01399 0.05363 0.00156 0.0
O341 O 0.09561 0.06815 0.02952 0.0
O342 O 0.09026 0.05442 0.06081 0.0
O343 O 0.00646 0.03309 0.04444 0.0
O344 O 0.04389 0.03962 0.06186 0.0
O345 O 0.02299 0.98993 0.02473 0.0
O346 O 0.06212 0.00723 0.03052 0.0
O347 O 0.97808 0.99135 0.01015 0.0
O348 O 0.98137 0.01006 0.98149 0.0
C349 C 0.02801 0.07348 0.01257 0.0
O350 O 0.06364 0.03915 -0.00576 0.0
O351 O 0.03027 0.0099 0.98152 0.0
C352 C 0.12494 0.05535 0.04763 0.0
C353 C 0.16116 0.03538 0.04471 0.0
C354 C 0.1385 0.02289 0.03467 0.0
C355 C 0.12058 0.03292 0.0359 0.0
C356 C 0.14759 0.06797 0.05774 0.0
C357 C 0.1658 0.05804 0.05606 0.0
C358 C 0.10542 0.06491 0.04905 0.0
C359 C 0.02195 0.0373 0.06312 0.0
C360 C 0.04441 0.98899 0.03036 0.0
C361 C 0.94649 0.00359 -0.00433 0.0
C362 C 0.91178 0.02543 3e-05 0.0
C363 C 0.92854 0.02689 0.01901 0.0
C364 C 0.94585 0.01613 0.01683 0.0
C365 C 0.92894 0.00092 0.97704 0.0
C366 C 0.91152 0.01176 0.97924 0.0
C367 C 0.96724 -0.0034 0.99221 0.0
H368 H 0.13478 0.00554 0.02542 0.0
H369 H 0.10333 0.0232 0.02749 0.0
H370 H 0.15114 0.08536 0.06674 0.0
H371 H 0.18337 0.06787 0.06365 0.0
H372 H 0.92883 0.03718 0.03528 0.0
H373 H 0.95936 0.0186 0.03138 0.0
H374 H 0.92943 0.99153 0.96055 0.0
H375 H 0.89872 0.0106 0.9644 0.0
Dy376 Dy 0.29762 0.78703 0.26086 0.0
Dy377 Dy 0.26651 0.78867 0.3009 0.0
C378 C 0.29095 0.83365 0.28337 0.0
O379 O 0.31815 0.77796 0.2903 0.0
O380 O 0.30331 0.79426 0.3195 0.0
O381 O 0.3243 0.80318 0.24229 0.0
O382 O 0.30739 0.76659 0.23376 0.0
O383 O 0.27162 0.75385 0.2963 0.0
O384 O 0.27132 0.75333 0.25827 0.0
O385 O 0.24115 0.78263 0.26808 0.0
O386 O 0.26632 0.79477 0.24317 0.0
O387 O 0.23502 0.77512 0.31411 0.0
O388 O 0.26114 0.80607 0.33249 0.0
C389 C 0.31921 0.7851 0.3122 0.0
O390 O 0.30656 0.82366 0.27751 0.0
O391 O 0.27183 0.82205 0.28925 0.0
C392 C 0.31287 0.78768 0.20325 0.0
C393 C 0.29269 0.79648 0.16159 0.0
C394 C 0.3106 0.81375 0.176 0.0
C395 C 0.32066 0.80937 0.19662 0.0
C396 C 0.29585 0.77 0.18819 0.0
C397 C 0.28583 0.77439 0.1675 0.0
C398 C 0.31988 0.78475 0.22697 0.0
C399 C 0.26985 0.74248 0.27588 0.0
C400 C 0.24518 0.78931 0.24831 0.0
C401 C 0.24425 0.77885 0.35376 0.0
C402 C 0.25786 0.76263 0.39328 0.0
C403 C 0.25603 0.74954 0.37181 0.0
C404 C 0.24941 0.75765 0.35215 0.0
C405 C 0.24504 0.79151 0.37521 0.0
C406 C 0.25178 0.78335 0.39503 0.0
C407 C 0.2426 0.78948 0.33337 0.0
H408 H 0.31668 0.83077 0.17146 0.0
H409 H 0.33383 0.82326 0.2078 0.0
H410 H 0.28952 0.75304 0.19277 0.0
H411 H 0.27218 0.76077 0.15654 0.0
H412 H 0.26017 0.73323 0.37021 0.0
H413 H 0.24935 0.74779 0.33573 0.0
H414 H 0.24156 0.80812 0.37659 0.0
H415 H 0.25308 0.79356 0.4116 0.0
Dy416 Dy 0.50957 0.02902 0.53228 0.0
Dy417 Dy 0.56151 0.03443 0.5172 0.0
C418 C 0.51911 0.03705 0.48331 0.0
O419 O 0.50911 0.99251 0.51737 0.0
O420 O 0.54824 -0.00332 0.51869 0.0
O421 O 0.47258 0.01694 0.52083 0.0
O422 O 0.48613 0.03598 0.55515 0.0
O423 O 0.56565 0.03108 0.55397 0.0
O424 O 0.52812 0.01847 0.56157 0.0
O425 O 0.55811 0.07097 0.52248 0.0
O426 O 0.53006 0.066 0.54576 0.0
O427 O 0.59894 0.04782 0.52431 0.0
O428 O 0.58211 0.02676 0.49171 0.0
C429 C 0.52667 0.98349 0.51584 0.0
O430 O 0.512 0.04558 0.50126 0.0
O431 O 0.5355 0.02686 0.4856 0.0
C432 C 0.45248 0.04267 0.53571 0.0
C433 C 0.4222 0.07052 0.52962 0.0
C434 C 0.43078 0.06132 0.51083 0.0
C435 C 0.4458 0.0476 0.51383 0.0
C436 C 0.44415 0.05206 0.55451 0.0
C437 C 0.42921 0.06588 0.55153 0.0
C438 C 0.46792 0.02772 0.5392 0.0
C439 C 0.55063 0.02245 0.56703 0.0
C440 C 0.54623 0.07967 0.53671 0.0
C441 C 0.61777 0.02214 0.50764 0.0
C442 C 0.6485 -0.00551 0.51097 0.0
C443 C 0.62992 0.99147 0.52358 0.0
C444 C 0.61466 0.00514 0.52188 0.0
C445 C 0.63605 0.02507 0.49492 0.0
C446 C 0.65123 0.01138 0.49651 0.0
C447 C 0.60173 0.03645 0.50536 0.0
H448 H 0.42602 0.06486 0.49378 0.0
H449 H 0.45208 0.04084 0.49897 0.0
H450 H 0.44906 0.04854 0.57154 0.0
H451 H 0.42278 0.07253 0.56634 0.0
H452 H 0.62737 0.97879 0.53502 0.0
H453 H 0.60047 0.0025 0.53171 0.0
H454 H 0.63853 0.03791 0.48364 0.0
H455 H 0.66497 0.01389 0.48616 0.0
Dy456 Dy 0.3079 0.27735 0.77702 0.0
Dy457 Dy 0.25761 0.28965 0.77095 0.0
C458 C 0.30467 0.32747 0.76964 0.0
O459 O 0.29994 0.28111 0.81314 0.0
O460 O 0.27393 0.30233 0.80768 0.0
O461 O 0.34482 0.28562 0.78968 0.0
O462 O 0.32744 0.25421 0.7661 0.0
O463 O 0.252 0.25817 0.78712 0.0
O464 O 0.28011 0.24373 0.77403 0.0
O465 O 0.26006 0.27122 0.73648 0.0
O466 O 0.29969 0.28205 0.74053 0.0
O467 O 0.22045 0.27857 0.75988 0.0
O468 O 0.23734 0.31363 0.77667 0.0
C469 C 0.28746 0.2941 0.82131 0.0
O470 O 0.31565 0.31566 0.78155 0.0
O471 O 0.28295 0.31861 0.75968 0.0
C472 C 0.36637 0.27221 0.76296 0.0
C473 C 0.40275 0.27849 0.73628 0.0
C474 C 0.38285 0.28567 0.72996 0.0
C475 C 0.36484 0.28257 0.74318 0.0
C476 C 0.38608 0.26503 0.76928 0.0
C477 C 0.40404 0.26809 0.75613 0.0
C478 C 0.34731 0.26789 0.77671 0.0
C479 C 0.26034 0.24082 0.78196 0.0
C480 C 0.27929 0.27407 0.72749 0.0
C481 C 0.1997 0.29615 0.78432 0.0
C482 C 0.16446 0.29275 0.81225 0.0
C483 C 0.181 0.28038 0.81528 0.0
C484 C 0.19848 0.2821 0.80149 0.0
C485 C 0.18355 0.30874 0.78149 0.0
C486 C 0.16618 0.30712 0.79528 0.0
C487 C 0.2176 0.29792 0.76922 0.0
H488 H 0.3813 0.29396 0.71497 0.0
H489 H 0.34971 0.28818 0.73792 0.0
H490 H 0.3875 0.2568 0.78434 0.0
H491 H 0.41881 0.26196 0.76137 0.0
H492 H 0.1802 0.26901 0.82799 0.0
H493 H 0.21089 0.27232 0.8041 0.0
H494 H 0.18433 0.31984 0.76851 0.0
H495 H 0.15419 0.31733 0.7927 0.0
Dy496 Dy 0.04299 0.00925 0.52002 0.0
Dy497 Dy 0.02623 0.05683 0.52358 0.0
C498 C 0.99084 0.00895 0.52762 0.0
O499 O 0.03957 0.01721 0.4839 0.0
O500 O 0.01325 0.03792 0.4878 0.0
O501 O 0.03826 0.97352 0.5063 0.0
O502 O 0.06732 0.9916 0.53291 0.0
O503 O 0.05881 0.06382 0.50857 0.0
O504 O 0.0755 0.0386 0.5244 0.0
O505 O 0.04373 0.0561 0.55918 0.0
O506 O 0.0372 0.01705 0.5561 0.0
O507 O 0.03527 0.09357 0.53457 0.0
O508 O 1.0016 0.07567 0.51443 0.0
C509 C 0.02401 0.02661 0.47484 0.0
O510 O 0.00442 -0.00157 0.51781 0.0
O511 O 0.99706 0.03136 0.5345 0.0
C512 C 0.05004 0.95242 0.5344 0.0
C513 C 0.04137 0.91636 0.56097 0.0
C514 C 0.02384 0.92657 0.55409 0.0
C515 C 0.02816 0.94444 0.54101 0.0
C516 C 0.06757 0.94238 0.54129 0.0
C517 C 0.06332 0.92455 0.55441 0.0
C518 C 0.0552 0.97171 0.52115 0.0
C519 C 0.07726 0.05754 0.51547 0.0
C520 C 0.04273 0.03747 0.56865 0.0
C521 C 0.0198 0.11304 0.50727 0.0
C522 C 0.0266 0.14793 0.47922 0.0
C523 C 0.04174 0.13396 0.48086 0.0
C524 C 0.03829 0.11661 0.49463 0.0
C525 C 0.00435 0.12647 0.50523 0.0
C526 C 0.00762 0.14363 0.49131 0.0
C527 C 0.01648 0.09561 0.52275 0.0
H528 H 0.00685 0.921 0.55911 0.0
H529 H 0.01445 0.95211 0.53615 0.0
H530 H 0.08464 0.94838 0.53653 0.0
H531 H 0.07718 0.917 0.55917 0.0
H532 H 0.05663 0.13677 0.472 0.0
H533 H 0.05024 0.1062 0.49564 0.0
H534 H 0.9898 0.12379 0.51457 0.0
H535 H 0.99521 0.15355 0.49008 0.0
Dy536 Dy 0.28377 0.80464 0.76006 0.0
Dy537 Dy 0.27831 0.75252 0.7737 0.0
C538 C 0.27466 0.79395 0.8083 0.0
O539 O 0.3198 0.80519 0.77713 0.0
O540 O 0.316 0.76631 0.77157 0.0
O541 O 0.29496 0.84134 0.77124 0.0
O542 O 0.27774 0.82735 0.73627 0.0
O543 O 0.27951 0.74987 0.73635 0.0
O544 O 0.29843 0.78726 0.73347 0.0
O545 O 0.2419 0.75633 0.76938 0.0
O546 O 0.24729 0.78324 0.74514 0.0
O547 O 0.26626 0.71533 0.76567 0.0
O548 O 0.28595 0.73184 0.79903 0.0
C549 C 0.32908 0.78779 0.77646 0.0
O550 O 0.26661 0.80189 0.79067 0.0
O551 O 0.28513 0.77783 0.80565 0.0
C552 C 0.27101 0.86125 0.75373 0.0
C553 C 0.24445 0.89268 0.7587 0.0
C554 C 0.23857 0.87194 0.76771 0.0
C555 C 0.25175 0.85633 0.76523 0.0
C556 C 0.27662 0.88159 0.74433 0.0
C557 C 0.26346 0.89715 0.74672 0.0
C558 C 0.28576 0.84571 0.75187 0.0
C559 C 0.2923 0.76514 0.72595 0.0
C560 C 0.2334 0.76781 0.75471 0.0
C561 C 0.29232 0.69709 0.7835 0.0
C562 C 0.32138 0.66757 0.78199 0.0
C563 C 0.31988 0.68149 0.76493 0.0
C564 C 0.30556 0.69617 0.76575 0.0
C565 C 0.29405 0.68355 0.80067 0.0
C566 C 0.30844 0.66902 0.79999 0.0
C567 C 0.27724 0.71254 0.78491 0.0
H568 H 0.2242 0.86805 0.77721 0.0
H569 H 0.24717 0.84062 0.77259 0.0
H570 H 0.29136 0.88556 0.73529 0.0
H571 H 0.26822 0.91272 0.7392 0.0
H572 H 0.32942 0.68078 0.75072 0.0
H573 H 0.30472 0.7067 0.75249 0.0
H574 H 0.28429 0.68429 0.81472 0.0
H575 H 0.30955 0.65905 0.81376 0.0
Dy576 Dy 0.52894 0.05341 -0.00717 0.0
Dy577 Dy 0.53309 0.02298 0.03286 0.0
C578 C 0.53442 0.00318 0.98152 0.0
O579 O 0.493 0.03223 -0.00609 0.0
O580 O 0.49885 0.02964 0.03189 0.0
O581 O 0.51689 0.05488 0.95759 0.0
O582 O 0.53409 0.08633 0.98152 0.0
O583 O 0.53846 0.05881 0.05199 0.0
O584 O 0.52165 0.07401 0.02333 0.0
O585 O 0.56805 0.03175 0.02302 0.0
O586 O 0.56638 0.06439 0.00838 0.0
O587 O 0.54999 0.01569 0.06392 0.0
O588 O 0.51854 0.99106 0.0446 0.0
C589 C 0.48512 0.02974 0.01325 0.0
O590 O 0.54192 0.02445 0.97776 0.0
O591 O 0.52414 -0.00101 -0.00064 0.0
C592 C 0.54393 0.08344 0.94496 0.0
C593 C 0.57551 0.08914 0.91413 0.0
C594 C 0.58263 0.08628 0.93663 0.0
C595 C 0.56688 0.08325 0.95187 0.0
C596 C 0.53696 0.08732 0.92289 0.0
C597 C 0.55274 0.0902 0.90748 0.0
C598 C 0.52699 0.07697 0.96008 0.0
C599 C 0.52961 0.07492 0.04507 0.0
C600 C 0.57824 0.05108 0.01643 0.0
C601 C 0.52142 -0.00277 0.08402 0.0
C602 C 0.49362 -0.00377 0.11834 0.0
C603 C 0.5035 0.01707 0.11081 0.0
C604 C 0.5171 0.01752 0.09363 0.0
C605 C 0.51193 0.97644 0.09162 0.0
C606 C 0.49806 0.97592 0.10874 0.0
C607 C 0.53291 -0.0027 0.06393 0.0
H608 H 0.60017 0.08569 0.94223 0.0
H609 H 0.57241 0.07996 0.9688 0.0
H610 H 0.51918 0.08719 0.91734 0.0
H611 H 0.54682 0.09213 0.8901 0.0
H612 H 0.5008 0.03309 0.11823 0.0
H613 H 0.52387 0.03367 0.08756 0.0
H614 H 0.5147 0.96057 0.08388 0.0
H615 H 0.49049 0.95961 0.11414 0.0
Dy616 Dy 0.27262 0.25586 0.26309 0.0
Dy617 Dy 0.30015 0.30797 0.28559 0.0
C618 C 0.29402 0.26818 0.31729 0.0
O619 O 0.24352 0.27179 0.26846 0.0
O620 O 0.26368 0.30479 0.29314 0.0
O621 O 0.25122 0.22193 0.26514 0.0
O622 O 0.25991 0.23042 0.2325 0.0
O623 O 0.28202 0.31064 0.25109 0.0
O624 O 0.28126 0.27505 0.23409 0.0
O625 O 0.32699 0.29446 0.26962 0.0
O626 O 0.31025 0.25557 0.26568 0.0
O627 O 0.32515 0.33978 0.28302 0.0
O628 O 0.30916 0.33638 0.31355 0.0
C629 C 0.24383 0.28981 0.28326 0.0
O630 O 0.2786 0.25418 0.30071 0.0
O631 O 0.30686 0.28819 0.31391 0.0
C632 C 0.26007 0.19397 0.2409 0.0
C633 C 0.27912 0.15746 0.24559 0.0
C634 C 0.29325 0.17883 0.24248 0.0
C635 C 0.28378 0.19699 0.24018 0.0
C636 C 0.24565 0.17231 0.24257 0.0
C637 C 0.25513 0.15407 0.24485 0.0
C638 C 0.2514 0.21407 0.24389 0.0
C639 C 0.28065 0.2961 0.23248 0.0
C640 C 0.32826 0.2732 0.26498 0.0
C641 C 0.3134 0.37079 0.29931 0.0
C642 C 0.2913 0.40547 0.29736 0.0
C643 C 0.28764 0.38824 0.27835 0.0
C644 C 0.29852 0.37094 0.27936 0.0
C645 C 0.31796 0.38856 0.31794 0.0
C646 C 0.30699 0.40594 0.31695 0.0
C647 C 0.32124 0.35045 0.30179 0.0
H648 H 0.31187 0.18199 0.24339 0.0
H649 H 0.29523 0.2137 0.23917 0.0
H650 H 0.22737 0.16987 0.24339 0.0
H651 H 0.24396 0.13765 0.24714 0.0
H652 H 0.27584 0.38777 0.26295 0.0
H653 H 0.29455 0.35722 0.26486 0.0
H654 H 0.32913 0.3884 0.33356 0.0
H655 H 0.30989 0.41906 0.33183 0.0
Dy656 Dy 0.54348 0.50737 0.01872 0.0
Dy657 Dy 0.52694 0.55508 0.023 0.0
C658 C 0.49159 0.50731 0.02684 0.0
O659 O 0.54027 0.51609 0.98288 0.0
O660 O 0.51351 0.53612 0.98733 0.0
O661 O 0.53727 0.47146 0.00466 0.0
O662 O 0.56766 0.48888 0.02998 0.0
O663 O 0.56005 0.56233 0.00878 0.0
O664 O 0.57628 0.53612 0.02323 0.0
O665 O 0.54229 0.55386 0.05912 0.0
O666 O 0.54018 0.51536 0.05555 0.0
O667 O 0.53624 0.59184 0.03391 0.0
O668 O 0.50242 0.57405 0.01396 0.0
C669 C 0.52442 0.52527 0.97407 0.0
O670 O 0.50491 0.49705 0.0163 0.0
O671 O 0.49818 0.52959 0.03439 0.0
C672 C 0.54948 0.45006 0.03234 0.0
C673 C 0.54106 0.41422 0.0592 0.0
C674 C 0.52263 0.42177 0.04918 0.0
C675 C 0.5268 0.43955 0.03598 0.0
C676 C 0.56788 0.44268 0.04243 0.0
C677 C 0.56375 0.425 0.05572 0.0
C678 C 0.5545 0.46914 0.01878 0.0
C679 C 0.5783 0.55547 0.01507 0.0
C680 C 0.54353 0.53547 0.06824 0.0
C681 C 0.52069 0.61139 0.00681 0.0
C682 C 0.52658 0.64535 0.97777 0.0
C683 C 0.5411 0.63073 0.97854 0.0
C684 C 0.53809 0.61381 -0.00717 0.0
C685 C 0.50621 0.62587 0.00606 0.0
C686 C 0.50911 0.64266 0.99174 0.0
C687 C 0.51739 0.59395 0.02226 0.0
H688 H 0.50499 0.41414 0.0518 0.0
H689 H 0.51227 0.44512 0.02874 0.0
H690 H 0.58553 0.45063 0.04001 0.0
H691 H 0.57833 0.41954 0.06299 0.0
H692 H 0.55454 0.63214 0.96787 0.0
H693 H 0.54932 0.60262 -0.00705 0.0
H694 H 0.49269 0.62428 0.01667 0.0
H695 H 0.49781 0.6538 0.99188 0.0
Dy696 Dy 0.78849 0.31274 0.2648 0.0
Dy697 Dy 0.77928 0.2518 0.27162 0.0
C698 C 0.77552 0.28316 0.30794 0.0
O699 O 0.82439 0.30997 0.27677 0.0
O700 O 0.81794 0.27081 0.28054 0.0
O701 O 0.79414 0.34502 0.28714 0.0
O702 O 0.78906 0.34311 0.24971 0.0
O703 O 0.77364 0.26697 0.24002 0.0
O704 O 0.80016 0.29797 0.23421 0.0
O705 O 0.74321 0.25709 0.26423 0.0
O706 O 0.74962 0.29515 0.25612 0.0
O707 O 0.78138 0.223 0.24823 0.0
O708 O 0.77154 0.21781 0.28143 0.0
C709 C 0.83183 0.29204 0.28139 0.0
O710 O 0.78177 0.28935 0.28914 0.0
O711 O 0.77382 0.2616 0.30774 0.0
C712 C 0.77546 0.37079 0.27067 0.0
C713 C 0.74697 0.40074 0.27208 0.0
C714 C 0.74531 0.38411 0.28674 0.0
C715 C 0.75938 0.36924 0.28598 0.0
C716 C 0.77686 0.38711 0.2558 0.0
C717 C 0.76275 0.40187 0.25643 0.0
C718 C 0.79099 0.3558 0.26968 0.0
C719 C 0.79055 0.27583 0.22919 0.0
C720 C 0.73568 0.27467 0.25819 0.0
C721 C 0.79432 0.19493 0.26606 0.0
C722 C 0.82404 0.16636 0.27056 0.0
C723 C 0.82433 0.17932 0.25253 0.0
C724 C 0.80965 0.19344 0.2503 0.0
C725 C 0.79425 0.18223 0.28425 0.0
C726 C 0.80901 0.16818 0.28653 0.0
C727 C 0.77777 0.20882 0.26301 0.0
H728 H 0.73353 0.38289 0.29918 0.0
H729 H 0.75781 0.35677 0.29749 0.0
H730 H 0.789 0.3885 0.2437 0.0
H731 H 0.76419 0.41416 0.24458 0.0
H732 H 0.83543 0.1781 0.23973 0.0
H733 H 0.81008 0.20286 0.23597 0.0
H734 H 0.7826 0.18296 0.29662 0.0
H735 H 0.80859 0.1587 0.30082 0.0
Dy736 Dy 0.03477 0.55678 0.49553 0.0
Dy737 Dy 0.03685 0.52596 0.53579 0.0
C738 C 0.04136 0.5068 0.48517 0.0
O739 O 0.99861 0.53491 0.49417 0.0
O740 O 1.00142 0.52985 0.53169 0.0
O741 O 0.02235 0.55961 0.46085 0.0
O742 O 0.04486 0.58957 0.48388 0.0
O743 O 0.03927 0.5613 0.55411 0.0
O744 O 0.02327 0.57586 0.52436 0.0
O745 O 0.07246 0.53668 0.52801 0.0
O746 O 0.06959 0.57038 0.51705 0.0
O747 O 0.05223 0.52057 0.56852 0.0
O748 O 0.02435 0.49335 0.547 0.0
C749 C 0.98902 0.53014 0.51224 0.0
O750 O 0.04897 0.52817 0.4816 0.0
O751 O 0.03025 0.50236 0.50244 0.0
C752 C 0.05035 0.58524 0.44584 0.0
C753 C 0.07862 0.59193 0.41198 0.0
C754 C 0.081 0.57646 0.42717 0.0
C755 C 0.06702 0.57322 0.44407 0.0
C756 C 0.04826 0.60111 0.4312 0.0
C757 C 0.06238 0.6045 0.41434 0.0
C758 C 0.03506 0.58089 0.46284 0.0
C759 C 0.03005 0.57685 0.54642 0.0
C760 C 0.08203 0.55793 0.52573 0.0
C761 C 0.02363 0.49851 0.58598 0.0
C762 C 0.99572 0.49306 0.62007 0.0
C763 C 0.99427 0.50915 0.6054 0.0
C764 C 0.00823 0.51192 0.58848 0.0
C765 C 0.02524 0.48251 0.60061 0.0
C766 C 0.01138 0.47987 0.61775 0.0
C767 C 0.03696 0.50062 0.56725 0.0
H768 H 0.09307 0.56624 0.42553 0.0
H769 H 0.06885 0.56097 0.45544 0.0
H770 H 0.03554 0.61061 0.43262 0.0
H771 H 0.0604 0.61671 0.40298 0.0
H772 H 0.98253 0.51972 0.60717 0.0
H773 H 0.00688 0.52437 0.57721 0.0
H774 H 0.037 0.47199 0.59865 0.0
H775 H 0.01263 0.46735 0.62896 0.0
Dy776 Dy 0.80814 0.77471 0.27628 0.0
Dy777 Dy 0.75894 0.79121 0.27129 0.0
C778 C 0.80736 0.82588 0.26698 0.0
O779 O 0.79935 0.77833 0.31211 0.0
O780 O 0.7774 0.80346 0.30724 0.0
O781 O 0.84474 0.78222 0.28969 0.0
O782 O 0.82737 0.75092 0.26594 0.0
O783 O 0.75087 0.75752 0.28399 0.0
O784 O 0.77986 0.74213 0.27413 0.0
O785 O 0.76089 0.77759 0.23492 0.0
O786 O 0.79844 0.77449 0.23889 0.0
O787 O 0.72175 0.78247 0.26098 0.0
O788 O 0.74042 0.8161 0.28028 0.0
C789 C 0.78858 0.79289 0.32057 0.0
O790 O 0.81795 0.81268 0.27723 0.0
O791 O 0.78478 0.81978 0.2602 0.0
C792 C 0.86617 0.76928 0.26223 0.0
C793 C 0.90172 0.77687 0.23448 0.0
C794 C 0.89289 0.79495 0.24273 0.0
C795 C 0.8753 0.79118 0.25637 0.0
C796 C 0.87483 0.7512 0.25394 0.0
C797 C 0.89236 0.75492 0.24024 0.0
C798 C 0.84727 0.76472 0.27634 0.0
C799 C 0.75938 0.73996 0.28031 0.0
C800 C 0.7788 0.77368 0.22623 0.0
C801 C 0.70234 0.79945 0.2876 0.0
C802 C 0.66712 0.79564 0.3157 0.0
C803 C 0.68 0.77945 0.31437 0.0
C804 C 0.69746 0.78137 0.30052 0.0
C805 C 0.6899 0.81581 0.28922 0.0
C806 C 0.67258 0.81399 0.3031 0.0
C807 C 0.72011 0.80157 0.27225 0.0
H808 H 0.89935 0.81199 0.23838 0.0
H809 H 0.8688 0.8054 0.26225 0.0
H810 H 0.86801 0.73413 0.25809 0.0
H811 H 0.89882 0.74062 0.23444 0.0
H812 H 0.67629 0.76499 0.32362 0.0
H813 H 0.70696 0.7686 0.29973 0.0
H814 H 0.69351 0.83002 0.27961 0.0
H815 H 0.66354 0.82713 0.30401 0.0
Dy816 Dy 0.79771 0.28891 0.76196 0.0
Dy817 Dy 0.76441 0.28273 0.80126 0.0
C818 C 0.78664 0.33189 0.78941 0.0
O819 O 0.82306 0.29355 0.79445 0.0
O820 O 0.79822 0.27972 0.81931 0.0
O821 O 0.82559 0.30945 0.74748 0.0
O822 O 0.80653 0.27474 0.73059 0.0
O823 O 0.76382 0.24739 0.78566 0.0
O824 O 0.79839 0.25569 0.77214 0.0
O825 O 0.7437 0.29186 0.77174 0.0
O826 O 0.76066 0.27792 0.74323 0.0
O827 O 0.73325 0.26321 0.81203 0.0
O828 O 0.75506 0.29489 0.83308 0.0
C829 C 0.81933 0.28624 0.81406 0.0
O830 O 0.79056 0.32253 0.76992 0.0
O831 O 0.78081 0.32021 0.80579 0.0
C832 C 0.81529 0.30312 0.70784 0.0
C833 C 0.80293 0.31858 0.66723 0.0
C834 C 0.78723 0.31449 0.68276 0.0
C835 C 0.79346 0.30697 0.70305 0.0
C836 C 0.83112 0.30737 0.69251 0.0
C837 C 0.825 0.31522 0.67225 0.0
C838 C 0.82096 0.29437 0.72878 0.0
C839 C 0.78165 0.24133 0.77925 0.0
C840 C 0.74367 0.28553 0.74988 0.0
C841 C 0.73973 0.26502 0.85197 0.0
C842 C 0.75245 0.25139 0.89365 0.0
C843 C 0.75927 0.24251 0.87359 0.0
C844 C 0.75306 0.2494 0.85287 0.0
C845 C 0.73196 0.27305 0.87166 0.0
C846 C 0.73828 0.26628 0.89243 0.0
C847 C 0.73798 0.27637 0.83199 0.0
H848 H 0.77025 0.31727 0.67926 0.0
H849 H 0.78117 0.30401 0.71494 0.0
H850 H 0.84803 0.30448 0.69614 0.0
H851 H 0.83726 0.31828 0.66033 0.0
H852 H 0.76993 0.23076 0.87403 0.0
H853 H 0.7596 0.24343 0.83782 0.0
H854 H 0.72214 0.28555 0.87124 0.0
H855 H 0.73304 0.27361 0.90769 0.0
Dy856 Dy 0.76987 0.75706 0.76172 0.0
Dy857 Dy 0.7991 0.80861 0.78681 0.0
C858 C 0.79211 0.76648 0.81607 0.0
O859 O 0.74201 0.76985 0.77603 0.0
O860 O 0.76119 0.80833 0.78517 0.0
O861 O 0.74273 0.72536 0.75951 0.0
O862 O 0.76474 0.7296 0.73337 0.0
O863 O 0.79492 0.81042 0.74922 0.0
O864 O 0.76389 0.77899 0.73518 0.0
O865 O 0.82835 0.79396 0.77944 0.0
O866 O 0.80723 0.75966 0.75712 0.0
O867 O 0.82608 0.84032 0.7886 0.0
O868 O 0.80317 0.83686 0.814 0.0
C869 C 0.74209 0.7911 0.78325 0.0
O870 O 0.78106 0.75178 0.79756 0.0
O871 O 0.80061 0.78854 0.81565 0.0
C872 C 0.75743 0.69466 0.74735 0.0
C873 C 0.78121 0.66248 0.75748 0.0
C874 C 0.77347 0.67457 0.77499 0.0
C875 C 0.76181 0.69063 0.77002 0.0
C876 C 0.76382 0.68151 0.72963 0.0
C877 C 0.77568 0.66551 0.73466 0.0
C878 C 0.75023 0.71507 0.74281 0.0
C879 C 0.77861 0.79821 0.7324 0.0
C880 C 0.82732 0.77501 0.76569 0.0
C881 C 0.81066 0.87057 0.79847 0.0
C882 C 0.79122 0.90541 0.78744 0.0
C883 C 0.78722 0.88526 0.77162 0.0
C884 C 0.79684 0.86799 0.77711 0.0
C885 C 0.81483 0.89062 0.81437 0.0
C886 C 0.80516 0.90807 0.80885 0.0
C887 C 0.81813 0.85099 0.80466 0.0
H888 H 0.77712 0.6722 0.79267 0.0
H889 H 0.75729 0.70063 0.78413 0.0
H890 H 0.76085 0.68458 0.71211 0.0
H891 H 0.7816 0.65648 0.72086 0.0
H892 H 0.77607 0.8825 0.75525 0.0
H893 H 0.79291 0.85232 0.76486 0.0
H894 H 0.82508 0.89254 0.83109 0.0
H895 H 0.80844 0.92351 0.8213 0.0
Dy896 Dy 0.56139 0.54572 0.53608 0.0
Dy897 Dy 0.50989 0.5167 0.51116 0.0
C898 C 0.55127 0.52473 0.48114 0.0
O899 O 0.54834 0.57458 0.52445 0.0
O900 O 0.5106 0.55431 0.50976 0.0
O901 O 0.59561 0.56781 0.5354 0.0
O902 O 0.58728 0.55491 0.56651 0.0
O903 O 0.50772 0.52212 0.54878 0.0
O904 O 0.53942 0.55304 0.56196 0.0
O905 O 0.52586 0.48777 0.51679 0.0
O906 O 0.55761 0.50881 0.54286 0.0
O907 O 0.47746 0.49144 0.5118 0.0
O908 O 0.48153 0.51026 0.48326 0.0
C909 C 0.52744 0.57396 0.51457 0.0
O910 O 0.56582 0.53693 0.49935 0.0
O911 O 0.52958 0.51428 0.48211 0.0
C912 C 0.62344 0.55551 0.55656 0.0
C913 C 0.66074 0.53701 0.55343 0.0
C914 C 0.63789 0.52257 0.54838 0.0
C915 C 0.61939 0.53178 0.54986 0.0
C916 C 0.64618 0.57 0.56202 0.0
C917 C 0.66484 0.56077 0.56043 0.0
C918 C 0.6037 0.56495 0.55577 0.0
C919 C 0.52006 0.53878 0.56515 0.0
C920 C 0.54362 0.48867 0.53243 0.0
C921 C 0.44794 0.50671 0.49903 0.0
C922 C 0.41275 0.52646 0.50833 0.0
C923 C 0.43553 0.53669 0.51969 0.0
C924 C 0.45299 0.52686 0.51508 0.0
C925 C 0.42525 0.49629 0.48768 0.0
C926 C 0.40761 0.50613 0.4924 0.0
C927 C 0.46698 0.49753 0.49418 0.0
H928 H 0.63426 0.50428 0.5424 0.0
H929 H 0.60191 0.52043 0.54511 0.0
H930 H 0.64946 0.5884 0.56693 0.0
H931 H 0.68239 0.57215 0.56431 0.0
H932 H 0.43981 0.55218 0.5323 0.0
H933 H 0.47049 0.53502 0.52404 0.0
H934 H 0.42127 0.48077 0.47519 0.0
H935 H 0.39008 0.4981 0.48342 0.0
Dy936 Dy 0.0067 0.52839 0.03086 0.0
Dy937 Dy 0.05745 0.53389 0.01248 0.0
C938 C 0.01411 0.53852 0.97979 0.0
O939 O 0.00981 0.49185 0.02489 0.0
O940 O 0.03633 0.49686 -9e-05 0.0
O941 O 0.9693 0.51453 0.02514 0.0
O942 O 0.98686 0.53769 0.0564 0.0
O943 O 0.05812 0.51675 0.04319 0.0
O944 O 0.03177 0.52944 0.06171 0.0
O945 O 0.05926 0.57041 0.02815 0.0
O946 O 0.02085 0.56646 0.03122 0.0
O947 O 0.09477 0.54557 0.02122 0.0
O948 O 0.07869 0.52684 0.98726 0.0
C949 C 0.02103 0.48321 0.00992 0.0
O950 O 1.00052 0.5286 -0.00654 0.0
O951 O 0.03682 0.54473 0.98476 0.0
C952 C 0.95081 0.54128 0.04034 0.0
C953 C 0.92022 0.56893 0.03548 0.0
C954 C 0.93739 0.56966 0.02134 0.0
C955 C 0.9526 0.55601 0.0238 0.0
C956 C 0.93392 0.54065 0.05458 0.0
C957 C 0.9188 0.55434 0.05222 0.0
C958 C 0.96697 0.52718 0.0435 0.0
C959 C 0.04892 0.52015 0.06158 0.0
C960 C 0.04224 0.57948 0.03218 0.0
C961 C 0.11322 0.51983 0.00384 0.0
C962 C 0.14329 0.49148 0.00715 0.0
C963 C 0.12871 0.49307 0.02364 0.0
C964 C 0.11375 0.50704 0.02196 0.0
C965 C 0.12755 0.51812 0.98729 0.0
C966 C 0.14244 0.50412 0.98891 0.0
C967 C 0.0979 0.53499 0.00195 0.0
H968 H 0.93887 0.58049 0.00812 0.0
H969 H 0.96572 0.55691 0.01277 0.0
H970 H 0.93251 0.52963 0.06764 0.0
H971 H 0.90613 0.55364 0.06371 0.0
H972 H 0.12868 0.48334 0.03773 0.0
H973 H 0.10266 0.5079 0.03484 0.0
H974 H 0.12735 0.52779 0.97317 0.0
H975 H 0.15361 0.50355 0.97607 0.0
H976 H 0.01232 0.19226 0.9441 0.0
H977 H 0.99603 0.20765 0.01165 0.0
H978 H 0.01958 0.15643 0.9539 0.0
H979 H 0.00397 0.17235 0.02165 0.0
H980 H 0.04315 0.11746 0.0384 0.0
H981 H 0.03652 0.15348 0.02859 0.0
H982 H 0.99797 0.11724 0.96299 0.0
H983 H 0.00398 0.08118 0.97305 0.0
C984 C 0.01051 0.18824 0.96114 0.0
C985 C 1.00357 0.20327 0.977 0.0
C986 C 0.01456 0.16747 0.96677 0.0
C987 C 0.01247 0.16111 0.98871 0.0
C988 C 0.006 0.17641 0.00466 0.0
C989 C 1.00135 0.19681 -0.00116 0.0
C990 C 0.03317 0.11706 0.02189 0.0
C991 C 0.02406 0.096 0.00668 0.0
C992 C 0.02928 0.13786 0.01624 0.0
C993 C 0.01668 0.13868 -0.00514 0.0
C994 C 0.00789 0.11767 0.97953 0.0
C995 C 0.01125 0.09678 0.98542 0.0
H996 H 0.16294 0.82605 0.13503 0.0
H997 H 0.11061 0.78711 0.16946 0.0
H998 H 0.19323 0.82254 0.16388 0.0
H999 H 0.14101 0.78243 0.19792 0.0
H1000 H 0.20139 0.79051 0.25584 0.0
H1001 H 0.17035 0.79641 0.22912 0.0
H1002 H 0.21326 0.79819 0.17588 0.0
H1003 H 0.24447 0.79353 0.2029 0.0
C1004 C 0.15785 0.81673 0.14884 0.0
C1005 C 0.1342 0.80691 0.14981 0.0
C1006 C 0.17536 0.81441 0.16537 0.0
C1007 C 0.16994 0.80177 0.18332 0.0
C1008 C 0.14618 0.79248 0.18465 0.0
C1009 C 0.1286 0.79513 0.16823 0.0
C1010 C 0.20416 0.79213 0.2384 0.0
C1011 C 0.22556 0.79157 0.23164 0.0
C1012 C 0.18622 0.79543 0.22293 0.0
C1013 C 0.189 0.79801 0.20008 0.0
C1014 C 0.21035 0.79697 0.19333 0.0
C1015 C 0.22835 0.79401 0.20886 0.0
H1016 H 0.47996 0.83117 0.50568 0.0
H1017 H 0.5332 0.84365 0.46284 0.0
H1018 H 0.48573 0.87253 0.51527 0.0
H1019 H 0.53879 0.8851 0.47216 0.0
H1020 H 0.55861 0.95982 0.50822 0.0
H1021 H 0.55311 0.91859 0.49972 0.0
H1022 H 0.47987 0.90628 0.50237 0.0
H1023 H 0.48554 0.9479 0.51131 0.0
C1024 C 0.4931 0.84269 0.4984 0.0
C1025 C 0.50624 0.83366 0.48357 0.0
C1026 C 0.49624 0.86664 0.50374 0.0
C1027 C 0.51272 0.88269 0.49456 0.0
C1028 C 0.52611 0.87366 0.47997 0.0
C1029 C 0.52289 0.84967 0.47454 0.0
C1030 C 0.54125 0.94845 0.50704 0.0
C1031 C 0.52256 0.95762 0.51054 0.0
C1032 C 0.53803 0.92453 0.50194 0.0
C1033 C 0.51598 0.90855 0.50015 0.0
C1034 C 0.49724 0.9177 0.50377 0.0
C1035 C 0.50045 0.94176 0.5088 0.0
H1036 H 0.53382 0.32854 0.68658 0.0
H1037 H 0.49571 0.27095 0.63439 0.0
H1038 H 0.50115 0.32209 0.70747 0.0
H1039 H 0.46294 0.26419 0.65565 0.0
H1040 H 0.40026 0.27402 0.68926 0.0
H1041 H 0.4323 0.28002 0.66715 0.0
H1042 H 0.48137 0.29578 0.72999 0.0
H1043 H 0.44959 0.2908 0.75201 0.0
C1044 C 0.51849 0.31441 0.67956 0.0
C1045 C 0.51752 0.30026 0.65877 0.0
C1046 C 0.49973 0.3106 0.69167 0.0
C1047 C 0.47934 0.29252 0.68339 0.0
C1048 C 0.47825 0.27841 0.66248 0.0
C1049 C 0.49712 0.2822 0.65036 0.0
C1050 C 0.4179 0.279 0.69838 0.0
C1051 C 0.42223 0.28195 0.72251 0.0
C1052 C 0.4363 0.28217 0.68566 0.0
C1053 C 0.45953 0.28846 0.69672 0.0
C1054 C 0.46379 0.29126 0.72082 0.0
C1055 C 0.44546 0.28811 0.73349 0.0
H1056 H 0.97794 0.81064 0.63849 0.0
H1057 H 0.04883 0.80741 0.64327 0.0
H1058 H 0.98665 0.84155 0.61585 0.0
H1059 H 0.05744 0.83802 0.61991 0.0
H1060 H 0.0703 0.90916 0.59693 0.0
H1061 H 0.06259 0.87821 0.61983 0.0
H1062 H 0.99442 0.84909 0.57918 0.0
H1063 H 1.00207 0.88011 0.55649 0.0
C1064 C 0.99539 0.81642 0.6346 0.0
C1065 C 0.01265 0.80644 0.64273 0.0
C1066 C 1.00037 0.83411 0.62142 0.0
C1067 C 0.02274 0.84231 0.61583 0.0
C1068 C 0.04008 0.83239 0.62404 0.0
C1069 C 0.0351 0.8147 0.63734 0.0
C1070 C 0.05373 0.89605 0.59275 0.0
C1071 C 0.03679 0.89725 0.57487 0.0
C1072 C 0.0493 0.87823 0.6059 0.0
C1073 C 0.02781 0.86108 0.60152 0.0
C1074 C 0.01099 0.86219 0.58345 0.0
C1075 C 0.01539 0.88003 0.57038 0.0
H1076 H 0.48263 0.83792 0.81482 0.0
H1077 H 0.46264 0.76552 0.81879 0.0
H1078 H 0.44282 0.83495 0.79759 0.0
H1079 H 0.42295 0.76237 0.80236 0.0
H1080 H 0.35325 0.75748 0.76442 0.0
H1081 H 0.39453 0.76188 0.77283 0.0
H1082 H 0.40555 0.83125 0.80751 0.0
H1083 H 0.36386 0.82701 0.7981 0.0
C1084 C 0.46999 0.82111 0.81093 0.0
C1085 C 0.47616 0.80175 0.81729 0.0
C1086 C 0.44689 0.81947 0.80161 0.0
C1087 C 0.42918 0.79842 0.79856 0.0
C1088 C 0.4358 0.77886 0.80387 0.0
C1089 C 0.45881 0.78055 0.81313 0.0
C1090 C 0.3644 0.77378 0.77379 0.0
C1091 C 0.35495 0.79178 0.7808 0.0
C1092 C 0.3883 0.77629 0.77877 0.0
C1093 C 0.40381 0.79683 0.79126 0.0
C1094 C 0.39446 0.81518 0.79769 0.0
C1095 C 0.37041 0.81273 0.79242 0.0
H1096 H 0.50046 0.15463 0.1641 0.0
H1097 H 0.52072 0.20512 0.11981 0.0
H1098 H 0.50542 0.12484 0.13571 0.0
H1099 H 0.52582 0.1751 0.0913 0.0
H1100 H 0.54259 0.08309 0.09209 0.0
H1101 H 0.53702 0.11353 0.11964 0.0
H1102 H 0.50438 0.1397 0.06433 0.0
H1103 H 0.51013 0.10956 0.03682 0.0
C1104 C 0.50582 0.15942 0.14822 0.0
C1105 C 0.51013 0.18243 0.14435 0.0
C1106 C 0.50888 0.14228 0.13198 0.0
C1107 C 0.51627 0.1475 0.11124 0.0
C1108 C 0.51997 0.17037 0.10701 0.0
C1109 C 0.51701 0.18762 0.12336 0.0
C1110 C 0.53432 0.09538 0.08576 0.0
C1111 C 0.52694 0.0938 0.06212 0.0
C1112 C 0.53097 0.11279 0.10161 0.0
C1113 C 0.5202 0.12916 0.09428 0.0
C1114 C 0.51299 0.12765 0.07064 0.0
C1115 C 0.51624 0.11023 0.05483 0.0
H1116 H 0.096 0.27697 0.29306 0.0
H1117 H 0.13254 0.32997 0.34985 0.0
H1118 H 0.13246 0.27514 0.28124 0.0
H1119 H 0.16963 0.32733 0.33892 0.0
H1120 H 0.23563 0.32783 0.30761 0.0
H1121 H 0.19917 0.33254 0.31802 0.0
H1122 H 0.16399 0.26278 0.28482 0.0
H1123 H 0.2001 0.25879 0.2735 0.0
C1124 C 0.11191 0.28828 0.30318 0.0
C1125 C 0.11095 0.30366 0.32248 0.0
C1126 C 0.1332 0.28702 0.29652 0.0
C1127 C 0.1548 0.30072 0.30913 0.0
C1128 C 0.15381 0.31649 0.32832 0.0
C1129 C 0.13233 0.31805 0.33475 0.0
C1130 C 0.22005 0.31354 0.30234 0.0
C1131 C 0.22111 0.29297 0.28944 0.0
C1132 C 0.19889 0.31616 0.30855 0.0
C1133 C 0.17784 0.29818 0.30238 0.0
C1134 C 0.17916 0.27752 0.28961 0.0
C1135 C 0.2002 0.27506 0.28315 0.0
H1136 H 0.00996 0.00718 0.19939 0.0
H1137 H 0.95911 0.04487 0.19048 0.0
H1138 H 0.01973 0.01296 0.16185 0.0
H1139 H 0.96927 0.05097 0.15245 0.0
H1140 H 0.97793 0.0315 0.07478 0.0
H1141 H 0.96686 0.02949 0.113 0.0
H1142 H 0.03896 0.0431 0.14231 0.0
H1143 H 0.04992 0.04485 0.10458 0.0
C1144 C 1.00095 0.01693 0.18951 0.0
C1145 C 0.98377 0.02563 0.19818 0.0
C1146 C 0.00668 0.02035 0.16789 0.0
C1147 C 0.99545 0.03258 0.15401 0.0
C1148 C 0.97822 0.04137 0.16258 0.0
C1149 C 0.97253 0.03804 0.18447 0.0
C1150 C 0.99142 0.03427 0.08942 0.0
C1151 C 0.01482 0.03817 0.08639 0.0
C1152 C 0.98508 0.03321 0.11138 0.0
C1153 C 1.00196 0.03586 0.13082 0.0
C1154 C 0.02538 0.04053 0.12778 0.0
C1155 C 0.03169 0.04167 0.106 0.0
H1156 H 0.28537 0.66427 0.47327 0.0
H1157 H 0.28292 0.72082 0.52358 0.0
H1158 H 0.28321 0.68842 0.44322 0.0
H1159 H 0.28107 0.74436 0.49416 0.0
H1160 H 0.23791 0.75892 0.43137 0.0
H1161 H 0.24779 0.73899 0.46252 0.0
H1162 H 0.30554 0.72698 0.43157 0.0
H1163 H 0.29573 0.74713 0.40038 0.0
C1164 C 0.28475 0.68181 0.47786 0.0
C1165 C 0.28382 0.69058 0.50043 0.0
C1166 C 0.28364 0.69556 0.46089 0.0
C1167 C 0.28175 0.71797 0.46668 0.0
C1168 C 0.28218 0.727 0.48941 0.0
C1169 C 0.28316 0.71342 0.50614 0.0
C1170 C 0.25301 0.75251 0.43159 0.0
C1171 C 0.26597 0.7542 0.41363 0.0
C1172 C 0.2586 0.74108 0.44922 0.0
C1173 C 0.27723 0.73139 0.449 0.0
C1174 C 0.29089 0.73407 0.43166 0.0
C1175 C 0.28536 0.74559 0.41406 0.0
H1176 H 0.62426 0.07824 0.69236 0.0
H1177 H 0.64241 0.01396 0.68821 0.0
H1178 H 0.59447 0.06236 0.65917 0.0
H1179 H 0.61214 -0.00202 0.65452 0.0
H1180 H 0.58836 0.00759 0.57668 0.0
H1181 H 0.60997 0.01 0.61459 0.0
H1182 H 0.55623 0.03103 0.64552 0.0
H1183 H 0.53454 0.02865 0.60738 0.0
C1184 C 0.62177 0.06062 0.68447 0.0
C1185 C 0.6358 0.04739 0.69277 0.0
C1186 C 0.60444 0.05143 0.66565 0.0
C1187 C 0.60082 0.02885 0.65463 0.0
C1188 C 0.61457 0.01539 0.66298 0.0
C1189 C 0.6319 0.02456 0.68208 0.0
C1190 C 0.58088 0.01207 0.59163 0.0
C1191 C 0.56014 0.01839 0.58935 0.0
C1192 C 0.5931 0.01321 0.61326 0.0
C1193 C 0.5848 0.02093 0.63282 0.0
C1194 C 0.56294 0.02515 0.63055 0.0
C1195 C 0.55056 0.02375 0.60885 0.0
H1196 H 0.30218 0.29989 0.97088 0.0
H1197 H 0.27512 0.35681 0.95819 0.0
H1198 H 0.30047 0.28891 0.92993 0.0
H1199 H 0.27414 0.34634 0.9171 0.0
H1200 H 0.25701 0.31163 0.84282 0.0
H1201 H 0.2566 0.32065 0.88352 0.0
H1202 H 0.31843 0.29871 0.89836 0.0
H1203 H 0.31826 0.28879 0.85726 0.0
C1204 C 0.29571 0.31004 0.95932 0.0
C1205 C 0.28869 0.32923 0.96798 0.0
C1206 C 0.295 0.30387 0.93571 0.0
C1207 C 0.28741 0.31677 0.91988 0.0
C1208 C 0.27984 0.33569 0.92853 0.0
C1209 C 0.28038 0.34176 0.95221 0.0
C1210 C 0.27062 0.30873 0.8547 0.0
C1211 C 0.28778 0.29955 0.84658 0.0
C1212 C 0.27044 0.31408 0.87822 0.0
C1213 C 0.28754 0.31064 0.89459 0.0
C1214 C 0.30471 0.30135 0.88646 0.0
C1215 C 0.30475 0.29577 0.86281 0.0
H1216 H 0.97303 0.05006 0.33774 0.0
H1217 H 0.01472 0.00362 0.32541 0.0
H1218 H 0.98374 0.05202 0.37903 0.0
H1219 H 0.02421 0.00437 0.36613 0.0
H1220 H 0.05139 0.02019 0.4423 0.0
H1221 H 0.04399 0.0222 0.4015 0.0
H1222 H 0.97696 0.03225 0.40925 0.0
H1223 H 0.98508 0.03153 0.45006 0.0
C1224 C 0.9846 0.04041 0.34378 0.0
C1225 C 0.99301 0.02676 0.32806 0.0
C1226 C 0.99053 0.04123 0.36756 0.0
C1227 C 0.00477 0.02816 0.37632 0.0
C1228 C 0.01357 0.01503 0.36046 0.0
C1229 C 0.00795 0.0145 0.33685 0.0
C1230 C 0.03503 0.02268 0.43521 0.0
C1231 C 0.01885 0.02564 0.44952 0.0
C1232 C 0.03068 0.02381 0.41169 0.0
C1233 C 0.0098 0.0275 0.40166 0.0
C1234 C 0.99349 0.02999 0.41608 0.0
C1235 C 0.99803 0.02928 0.43961 0.0
H1236 H 0.31645 0.67687 0.62112 0.0
H1237 H 0.34145 0.74313 0.60027 0.0
H1238 H 0.31996 0.69494 0.65977 0.0
H1239 H 0.34827 0.7617 0.64003 0.0
H1240 H 0.30238 0.78469 0.68847 0.0
H1241 H 0.32039 0.77037 0.65789 0.0
H1242 H 0.32897 0.715 0.69458 0.0
H1243 H 0.3086 0.72822 0.72351 0.0
C1244 C 0.32467 0.69528 0.62527 0.0
C1245 C 0.32806 0.70877 0.6079 0.0
C1246 C 0.3266 0.70588 0.64767 0.0
C1247 C 0.3332 0.7301 0.653 0.0
C1248 C 0.34173 0.74311 0.63627 0.0
C1249 C 0.33855 0.73252 0.61359 0.0
C1250 C 0.30794 0.7693 0.68963 0.0
C1251 C 0.30336 0.7569 0.70763 0.0
C1252 C 0.31883 0.7613 0.67242 0.0
C1253 C 0.32614 0.74122 0.67343 0.0
C1254 C 0.32296 0.72997 0.69258 0.0
C1255 C 0.31121 0.73745 0.7092 0.0
H1256 H 0.66916 0.11853 0.81529 0.0
H1257 H 0.64351 0.04424 0.80708 0.0
H1258 H 0.64834 0.12185 0.84751 0.0
H1259 H 0.62215 0.04761 0.83875 0.0
H1260 H 0.60263 0.06059 0.90832 0.0
H1261 H 0.62789 0.05929 0.87971 0.0
H1262 H 0.60777 0.11494 0.85219 0.0
H1263 H 0.58338 0.11706 0.8817 0.0
C1264 C 0.65913 0.10294 0.82043 0.0
C1265 C 0.65784 0.08114 0.80872 0.0
C1266 C 0.64715 0.10485 0.83874 0.0
C1267 C 0.6336 0.085 0.84546 0.0
C1268 C 0.63275 0.06319 0.83409 0.0
C1269 C 0.6449 0.06126 0.81592 0.0
C1270 C 0.604 0.07287 0.89646 0.0
C1271 C 0.59125 0.08905 0.89723 0.0
C1272 C 0.6182 0.07192 0.87994 0.0
C1273 C 0.61969 0.08698 0.86378 0.0
C1274 C 0.60713 0.10333 0.86467 0.0
C1275 C 0.593 0.10438 0.88133 0.0
H1276 H 0.27416 0.29937 0.0852 0.0
H1277 H 0.29297 0.37117 0.11443 0.0
H1278 H 0.26892 0.28861 0.12258 0.0
H1279 H 0.28971 0.3607 0.15255 0.0
H1280 H 0.27199 0.33553 0.2194 0.0
H1281 H 0.27088 0.34675 0.18127 0.0
H1282 H 0.28841 0.28504 0.15569 0.0
H1283 H 0.28795 0.27343 0.19299 0.0
C1284 C 0.27708 0.31289 0.09974 0.0
C1285 C 0.2838 0.33608 0.09681 0.0
C1286 C 0.27449 0.30676 0.12143 0.0
C1287 C 0.27944 0.32366 0.1412 0.0
C1288 C 0.28547 0.347 0.13803 0.0
C1289 C 0.28738 0.35311 0.11609 0.0
C1290 C 0.27536 0.3243 0.20549 0.0
C1291 C 0.27984 0.30345 0.20936 0.0
C1292 C 0.27492 0.33081 0.18352 0.0
C1293 C 0.27931 0.31682 0.16482 0.0
C1294 C 0.28412 0.29613 0.16903 0.0
C1295 C 0.28411 0.28948 0.19075 0.0
H1296 H 0.2767 0.98928 0.00434 0.0
H1297 H 0.2203 0.92828 0.00356 0.0
H1298 H 0.25374 0.01323 0.01909 0.0
H1299 H 0.19658 0.95222 0.01685 0.0
H1300 H 0.1662 -0.00302 0.06032 0.0
H1301 H 0.19276 0.97516 0.04951 0.0
H1302 H 0.22225 0.02705 0.0093 0.0
H1303 H 0.19659 0.04933 0.02147 0.0
C1304 C 0.25913 0.98107 0.00679 0.0
C1305 C 0.25012 0.95703 0.00274 0.0
C1306 C 0.24596 -0.00523 0.01524 0.0
C1307 C 0.22338 0.98466 0.0193 0.0
C1308 C 0.21415 0.96055 0.01451 0.0
C1309 C 0.22755 0.94684 0.00659 0.0
C1310 C 0.17893 0.00388 0.04974 0.0
C1311 C 0.17977 0.02474 0.04182 0.0
C1312 C 0.19383 0.99129 0.04322 0.0
C1313 C 0.20936 -0.00083 0.02822 0.0
C1314 C 0.21072 0.02061 0.0211 0.0
C1315 C 0.19612 0.03341 0.02803 0.0
H1316 H 0.7246 0.63447 0.03059 0.0
H1317 H 0.6887 0.65844 0.97574 0.0
H1318 H 0.68866 0.60471 0.03207 0.0
H1319 H 0.65336 0.6283 0.9763 0.0
H1320 H 0.58879 0.59909 0.00539 0.0
H1321 H 0.62612 0.62379 0.00155 0.0
H1322 H 0.6581 0.57008 0.01482 0.0
H1323 H 0.62028 0.54528 0.01946 0.0
C1324 C 0.70921 0.63289 0.0184 0.0
C1325 C 0.70929 0.64886 0.00323 0.0
C1326 C 0.68862 0.61587 0.01922 0.0
C1327 C 0.66792 0.61442 0.00466 0.0
C1328 C 0.66871 0.62934 0.9883 0.0
C1329 C 0.68903 0.6465 0.98779 0.0
C1330 C 0.60366 0.59236 0.00737 0.0
C1331 C 0.60144 0.57008 0.01254 0.0
C1332 C 0.62517 0.60655 0.005 0.0
C1333 C 0.64517 0.59884 0.00745 0.0
C1334 C 0.64308 0.5766 0.01286 0.0
C1335 C 0.62141 0.56235 0.01542 0.0
H1336 H 0.63978 0.47345 0.26585 0.0
H1337 H 0.70186 0.52205 0.30525 0.0
H1338 H 0.66104 0.44466 0.26081 0.0
H1339 H 0.72282 0.49334 0.30059 0.0
H1340 H 0.76063 0.44651 0.26872 0.0
H1341 H 0.73801 0.47393 0.27125 0.0
H1342 H 0.67916 0.42054 0.28253 0.0
H1343 H 0.70152 0.39267 0.27884 0.0
C1344 C 0.65791 0.47798 0.27346 0.0
C1345 C 0.66912 0.50006 0.28594 0.0
C1346 C 0.67005 0.46145 0.27069 0.0
C1347 C 0.69365 0.46674 0.28022 0.0
C1348 C 0.70476 0.4888 0.29271 0.0
C1349 C 0.69267 0.50523 0.29554 0.0
C1350 C 0.74276 0.44046 0.27137 0.0
C1351 C 0.7329 0.41734 0.27353 0.0
C1352 C 0.72986 0.45629 0.27312 0.0
C1353 C 0.70682 0.44948 0.27726 0.0
C1354 C 0.69682 0.42631 0.27917 0.0
C1355 C 0.70973 0.41041 0.27734 0.0
H1356 H 0.83864 0.46914 0.47892 0.0
H1357 H 0.87324 0.43418 0.52456 0.0
H1358 H 0.87439 0.5012 0.4843 0.0
H1359 H 0.90846 0.46617 0.53031 0.0
H1360 H 0.96477 0.52866 0.54769 0.0
H1361 H 0.92352 0.51027 0.5458 0.0
H1362 H 0.91491 0.4989 0.47184 0.0
H1363 H 0.95634 0.51738 0.47358 0.0
C1364 C 0.85374 0.4686 0.49043 0.0
C1365 C 0.85354 0.44925 0.50114 0.0
C1366 C 0.87401 0.48683 0.49349 0.0
C1367 C 0.89389 0.48606 0.50781 0.0
C1368 C 0.89317 0.46724 0.51944 0.0
C1369 C 0.87319 0.44887 0.51597 0.0
C1370 C 0.954 0.52271 0.53099 0.0
C1371 C 0.96374 0.52374 0.51075 0.0
C1372 C 0.93043 0.51241 0.52997 0.0
C1373 C 0.91634 0.50305 0.50872 0.0
C1374 C 0.92555 0.50619 0.48841 0.0
C1375 C 0.94923 0.51654 0.48942 0.0
H1376 H 0.32511 0.05197 0.30747 0.0
H1377 H 0.38635 0.0979 0.29041 0.0
H1378 H 0.30141 0.07458 0.29144 0.0
H1379 H 0.36286 0.12139 0.27548 0.0
H1380 H 0.31279 0.14286 0.22712 0.0
H1381 H 0.33483 0.11852 0.24287 0.0
H1382 H 0.29288 0.11012 0.29695 0.0
H1383 H 0.27059 0.13385 0.28083 0.0
C1384 C 0.33358 0.06736 0.30095 0.0
C1385 C 0.3575 0.07336 0.30022 0.0
C1386 C 0.32001 0.08026 0.29171 0.0
C1387 C 0.33025 0.0996 0.28198 0.0
C1388 C 0.3544 0.10622 0.28232 0.0
C1389 C 0.36789 0.09303 0.29116 0.0
C1390 C 0.30814 0.13545 0.24215 0.0
C1391 C 0.29003 0.14008 0.25275 0.0
C1392 C 0.32086 0.12176 0.25131 0.0
C1393 C 0.31577 0.11271 0.27133 0.0
C1394 C 0.29706 0.11666 0.28138 0.0
C1395 C 0.28423 0.13017 0.27211 0.0
H1396 H 0.32928 0.14343 0.47168 0.0
H1397 H 0.32945 0.15803 0.54457 0.0
H1398 H 0.35646 0.121 0.47851 0.0
H1399 H 0.3561 0.13483 0.55141 0.0
H1400 H 0.42155 0.11002 0.55663 0.0
H1401 H 0.39486 0.13332 0.55072 0.0
H1402 H 0.35859 0.08573 0.48941 0.0
H1403 H 0.38548 0.06277 0.49516 0.0
C1404 C 0.33502 0.14176 0.48918 0.0
C1405 C 0.32713 0.15253 0.50755 0.0
C1406 C 0.35052 0.12871 0.49311 0.0
C1407 C 0.35842 0.1259 0.51552 0.0
C1408 C 0.35064 0.13681 0.53394 0.0
C1409 C 0.33522 0.15002 0.53001 0.0
C1410 C 0.40778 0.10449 0.54197 0.0
C1411 C 0.40575 0.08461 0.52628 0.0
C1412 C 0.39242 0.11783 0.53859 0.0
C1413 C 0.37458 0.11154 0.5195 0.0
C1414 C 0.37241 0.09145 0.50402 0.0
C1415 C 0.38783 0.07822 0.50733 0.0
H1416 H 0.65802 0.6305 0.32275 0.0
H1417 H 0.68177 0.59503 0.26754 0.0
H1418 H 0.68821 0.66565 0.32188 0.0
H1419 H 0.7116 0.63072 0.26586 0.0
H1420 H 0.77076 0.69891 0.27749 0.0
H1421 H 0.74659 0.66147 0.28321 0.0
H1422 H 0.69151 0.6921 0.29561 0.0
H1423 H 0.71553 0.72913 0.2906 0.0
C1424 C 0.66995 0.6302 0.3106 0.0
C1425 C 0.66745 0.61015 0.29508 0.0
C1426 C 0.68713 0.65039 0.30993 0.0
C1427 C 0.70195 0.65121 0.29338 0.0
C1428 C 0.70049 0.6307 0.27884 0.0
C1429 C 0.68344 0.61026 0.27978 0.0
C1430 C 0.75353 0.6976 0.28158 0.0
C1431 C 0.74519 0.7171 0.28374 0.0
C1432 C 0.73966 0.67614 0.28476 0.0
C1433 C 0.71721 0.6738 0.29019 0.0
C1434 C 0.70892 0.69331 0.29209 0.0
C1435 C 0.72271 0.71462 0.28902 0.0
H1436 H 0.82817 0.47203 0.82892 0.0
H1437 H 0.8111 0.45965 0.75525 0.0
H1438 H 0.8004 0.43545 0.83059 0.0
H1439 H 0.78312 0.42322 0.75694 0.0
H1440 H 0.75349 0.35123 0.80193 0.0
H1441 H 0.75439 0.39213 0.80324 0.0
H1442 H 0.82303 0.40688 0.78453 0.0
H1443 H 0.82193 0.36639 0.78277 0.0
C1444 C 0.81693 0.4625 0.81326 0.0
C1445 C 0.82194 0.46818 0.79194 0.0
C1446 C 0.801 0.44154 0.81424 0.0
C1447 C 0.79021 0.42653 0.79385 0.0
C1448 C 0.79131 0.4347 0.77284 0.0
C1449 C 0.80734 0.45559 0.77187 0.0
C1450 C 0.76877 0.36346 0.79838 0.0
C1451 C 0.78772 0.35613 0.79232 0.0
C1452 C 0.76916 0.38655 0.79896 0.0
C1453 C 0.78857 0.40217 0.79362 0.0
C1454 C 0.80771 0.39481 0.78826 0.0
C1455 C 0.80719 0.37187 0.78738 0.0
H1456 H 0.03763 0.85911 0.08838 0.0
H1457 H 0.09588 0.86815 0.05176 0.0
H1458 H 0.03103 0.89469 0.07735 0.0
H1459 H 0.08927 0.90328 0.04063 0.0
H1460 H 0.08589 0.9777 0.0398 0.0
H1461 H 0.09212 0.9424 0.05147 0.0
H1462 H 0.0182 0.91403 0.04814 0.0
H1463 H 0.01208 0.94941 0.03672 0.0
C1464 C 0.04902 0.86853 0.07791 0.0
C1465 C 0.0673 0.86027 0.07105 0.0
C1466 C 0.04518 0.88909 0.07141 0.0
C1467 C 0.05959 0.90246 0.05796 0.0
C1468 C 0.07785 0.89411 0.0512 0.0
C1469 C 0.08155 0.87356 0.05752 0.0
C1470 C 0.0709 0.96397 0.04148 0.0
C1471 C 0.04843 0.9668 0.0371 0.0
C1472 C 0.07446 0.94342 0.04813 0.0
C1473 C 0.05573 0.92477 0.05092 0.0
C1474 C 0.03327 0.92773 0.04661 0.0
C1475 C 0.0297 0.94819 0.03978 0.0
H1476 H 0.95489 0.27981 0.88352 0.0
H1477 H 0.90419 0.24063 0.91939 0.0
H1478 H 0.92394 0.28751 0.8583 0.0
H1479 H 0.87307 0.24699 0.89346 0.0
H1480 H 0.8211 0.27858 0.85882 0.0
H1481 H 0.85263 0.27144 0.88355 0.0
H1482 H 0.8938 0.27724 0.8288 0.0
H1483 H 0.86268 0.28574 0.80469 0.0
C1484 C 0.93707 0.27232 0.88568 0.0
C1485 C 0.93219 0.25951 0.90356 0.0
C1486 C 0.91911 0.27672 0.87109 0.0
C1487 C 0.89555 0.26814 0.87361 0.0
C1488 C 0.89077 0.2546 0.89106 0.0
C1489 C 0.90873 0.25059 0.90587 0.0
C1490 C 0.837 0.27861 0.85213 0.0
C1491 C 0.83927 0.28303 0.82972 0.0
C1492 C 0.85517 0.27416 0.86631 0.0
C1493 C 0.87618 0.27348 0.85846 0.0
C1494 C 0.87835 0.27795 0.83596 0.0
C1495 C 0.86031 0.2828 0.82194 0.0
H1496 H 0.59613 0.23248 0.55262 0.0
H1497 H 0.53235 0.21932 0.58076 0.0
H1498 H 0.59123 0.19144 0.54394 0.0
H1499 H 0.5265 0.17798 0.57086 0.0
H1500 H 0.52905 0.10389 0.56913 0.0
H1501 H 0.53416 0.14501 0.57756 0.0
H1502 H 0.57618 0.15577 0.52384 0.0
H1503 H 0.57194 0.11456 0.51638 0.0
C1504 C 0.5807 0.22082 0.55658 0.0
C1505 C 0.56463 0.22965 0.56739 0.0
C1506 C 0.57777 0.1969 0.55143 0.0
C1507 C 0.5584 0.18052 0.55656 0.0
C1508 C 0.54201 0.18946 0.56693 0.0
C1509 C 0.54517 0.21346 0.57241 0.0
C1510 C 0.53955 0.11499 0.55916 0.0
C1511 C 0.55013 0.1055 0.54208 0.0
C1512 C 0.54231 0.13891 0.56386 0.0
C1513 C 0.55555 0.15456 0.55147 0.0
C1514 C 0.56615 0.14494 0.5343 0.0
C1515 C 0.56361 0.12098 0.52982 0.0
H1516 H 0.56152 0.75485 0.4044 0.0
H1517 H 0.55554 0.81974 0.38617 0.0
H1518 H 0.5929 0.75641 0.38168 0.0
H1519 H 0.58693 0.82143 0.36384 0.0
H1520 H 0.62557 0.80548 0.3058 0.0
H1521 H 0.59463 0.80284 0.32874 0.0
H1522 H 0.63331 0.7774 0.38037 0.0
H1523 H 0.66461 0.78035 0.35749 0.0
C1524 C 0.56687 0.76945 0.39558 0.0
C1525 C 0.55584 0.78711 0.39709 0.0
C1526 C 0.585 0.77042 0.38266 0.0
C1527 C 0.59246 0.789 0.37077 0.0
C1528 C 0.58146 0.80666 0.37241 0.0
C1529 C 0.56348 0.80575 0.38538 0.0
C1530 C 0.62773 0.79959 0.32216 0.0
C1531 C 0.64786 0.79335 0.32976 0.0
C1532 C 0.60987 0.79801 0.33535 0.0
C1533 C 0.61143 0.79003 0.35655 0.0
C1534 C 0.63135 0.7834 0.36404 0.0
C1535 C 0.64933 0.78508 0.35086 0.0
H1536 H 0.05733 0.28384 0.43964 0.0
H1537 H 0.03755 0.23901 0.37442 0.0
H1538 H 0.05569 0.25091 0.45934 0.0
H1539 H 0.03472 0.20547 0.39417 0.0
H1540 H 0.04395 0.15023 0.43833 0.0
H1541 H 0.05198 0.18283 0.41739 0.0
H1542 H 0.02576 0.22185 0.46798 0.0
H1543 H 0.0193 0.19019 0.48952 0.0
C1544 C 0.05312 0.26685 0.42951 0.0
C1545 C 0.04787 0.26395 0.40554 0.0
C1546 C 0.05175 0.24788 0.4408 0.0
C1547 C 0.04448 0.22535 0.42846 0.0
C1548 C 0.04046 0.22252 0.40428 0.0
C1549 C 0.0422 0.2417 0.39291 0.0
C1550 C 0.0402 0.16589 0.44515 0.0
C1551 C 0.03094 0.16744 0.46573 0.0
C1552 C 0.04456 0.18452 0.43296 0.0
C1553 C 0.03978 0.20517 0.44102 0.0
C1554 C 0.03023 0.20651 0.4614 0.0
C1555 C 0.02607 0.18806 0.47363 0.0
H1556 H 0.59527 0.27991 0.20351 0.0
H1557 H 0.58355 0.23203 0.25161 0.0
H1558 H 0.63709 0.28578 0.21282 0.0
H1559 H 0.62525 0.23824 0.26132 0.0
H1560 H 0.69959 0.23524 0.25686 0.0
H1561 H 0.65788 0.23017 0.24816 0.0
H1562 H 0.67129 0.30162 0.23965 0.0
H1563 H 0.71282 0.3065 0.24773 0.0
C1564 C 0.60157 0.2709 0.21637 0.0
C1565 C 0.58576 0.25554 0.22681 0.0
C1566 C 0.62571 0.27429 0.22178 0.0
C1567 C 0.63494 0.26242 0.23782 0.0
C1568 C 0.61909 0.24744 0.24859 0.0
C1569 C 0.595 0.24406 0.24318 0.0
C1570 C 0.6937 0.2499 0.25311 0.0
C1571 C 0.70989 0.27129 0.25297 0.0
C1572 C 0.66961 0.24703 0.24824 0.0
C1573 C 0.66081 0.26546 0.24313 0.0
C1574 C 0.67707 0.28683 0.24308 0.0
C1575 C 0.70111 0.28968 0.24789 0.0
H1576 H 0.51478 0.88275 0.88191 0.0
H1577 H 0.58404 0.89097 0.91662 0.0
H1578 H 0.51425 0.91901 0.90367 0.0
H1579 H 0.58374 0.92821 0.93816 0.0
H1580 H 0.56527 0.00493 0.95079 0.0
H1581 H 0.57209 0.97241 0.92661 0.0
H1582 H 0.51927 0.92504 0.95354 0.0
H1583 H 0.51277 0.95717 0.978 0.0
C1584 C 0.53034 0.89285 0.89352 0.0
C1585 C 0.5496 0.8841 0.89724 0.0
C1586 C 0.52991 0.91353 0.90613 0.0
C1587 C 0.54887 0.92637 0.92265 0.0
C1588 C 0.56893 0.91866 0.92537 0.0
C1589 C 0.56923 0.89752 0.91287 0.0
C1590 C 0.55512 0.98757 0.95156 0.0
C1591 C 0.53833 0.98371 0.96627 0.0
C1592 C 0.55921 0.96899 0.93787 0.0
C1593 C 0.5463 0.94623 0.93831 0.0
C1594 C 0.52954 0.94241 0.95294 0.0
C1595 C 0.52577 0.96085 0.96689 0.0
H1596 H 0.95844 0.78341 0.709 0.0
H1597 H 0.94433 0.72063 0.73812 0.0
H1598 H 0.92326 0.7908 0.72123 0.0
H1599 H 0.90948 0.72785 0.75005 0.0
H1600 H 0.83505 0.73445 0.7473 0.0
H1601 H 0.87039 0.72829 0.73503 0.0
H1602 H 0.9055 0.80071 0.75542 0.0
H1603 H 0.87012 0.80683 0.76793 0.0
C1604 C 0.94794 0.77117 0.71798 0.0
C1605 C 0.95457 0.75141 0.7225 0.0
C1606 C 0.92771 0.77545 0.72512 0.0
C1607 C 0.91315 0.75991 0.73666 0.0
C1608 C 0.91983 0.74017 0.74102 0.0
C1609 C 0.9401 0.73609 0.73424 0.0
C1610 C 0.85029 0.7491 0.74931 0.0
C1611 C 0.84949 0.77113 0.75886 0.0
C1612 C 0.87074 0.74555 0.74228 0.0
C1613 C 0.89115 0.76396 0.7441 0.0
C1614 C 0.89028 0.78606 0.75347 0.0
C1615 C 0.86992 0.78954 0.76089 0.0
H1616 H 0.05298 0.03798 0.83569 0.0
H1617 H 0.11796 0.0228 0.85401 0.0
H1618 H 0.04287 0.03174 0.87324 0.0
H1619 H 0.10782 0.0166 0.89199 0.0
H1620 H 0.09293 0.04047 0.96576 0.0
H1621 H 0.10316 0.0407 0.92728 0.0
H1622 H 0.03256 0.00245 0.89822 0.0
H1623 H 0.02232 0.00217 0.93672 0.0
C1624 C 0.06502 0.03298 0.84764 0.0
C1625 C 0.08629 0.03085 0.84168 0.0
C1626 C 0.05915 0.0293 0.86924 0.0
C1627 C 0.07449 0.02368 0.88581 0.0
C1628 C 0.09562 0.02105 0.87975 0.0
C1629 C 0.10136 0.02439 0.85789 0.0
C1630 C 0.07961 0.03186 0.95119 0.0
C1631 C 0.05675 0.02132 0.95448 0.0
C1632 C 0.08554 0.03189 0.92907 0.0
C1633 C 0.06871 0.02166 0.9095 0.0
C1634 C 0.04596 0.01068 0.91282 0.0
C1635 C 0.04011 0.01038 0.93496 0.0
H1636 H 0.77714 0.39545 0.55917 0.0
H1637 H 0.77624 0.32793 0.52633 0.0
H1638 H 0.77828 0.3821 0.59631 0.0
H1639 H 0.77692 0.31458 0.56343 0.0
H1640 H 0.76411 0.29857 0.63595 0.0
H1641 H 0.75303 0.31117 0.59969 0.0
H1642 H 0.81527 0.36853 0.6146 0.0
H1643 H 0.82649 0.35582 0.65065 0.0
C1644 C 0.77634 0.37757 0.5598 0.0
C1645 C 0.7768 0.36268 0.54006 0.0
C1646 C 0.77711 0.37005 0.58098 0.0
C1647 C 0.77781 0.34748 0.58244 0.0
C1648 C 0.77626 0.33204 0.5625 0.0
C1649 C 0.77595 0.33967 0.5414 0.0
C1650 C 0.77525 0.31395 0.63144 0.0
C1651 C 0.79613 0.32628 0.64579 0.0
C1652 C 0.76893 0.32109 0.61089 0.0
C1653 C 0.78322 0.34085 0.60479 0.0
C1654 C 0.80388 0.35341 0.61931 0.0
C1655 C 0.8104 0.34606 0.63967 0.0
H1656 H 0.43577 0.05301 0.35939 0.0
H1657 H 0.42837 0.98028 0.35836 0.0
H1658 H 0.46258 0.06168 0.39557 0.0
H1659 H 0.4549 0.98903 0.39435 0.0
H1660 H 0.52275 0.01362 0.4426 0.0
H1661 H 0.49772 0.00885 0.40597 0.0
H1662 H 0.46171 0.05435 0.43642 0.0
H1663 H 0.48683 0.05945 0.47295 0.0
C1664 C 0.43964 0.03891 0.36699 0.0
C1665 C 0.43013 0.01599 0.35601 0.0
C1666 C 0.45497 0.04388 0.3876 0.0
C1667 C 0.461 0.02601 0.39736 0.0
C1668 C 0.45087 0.00311 0.38681 0.0
C1669 C 0.43553 -0.00187 0.36634 0.0
C1670 C 0.50978 0.02293 0.44136 0.0
C1671 C 0.50656 0.03673 0.4606 0.0
C1672 C 0.49539 0.02006 0.4205 0.0
C1673 C 0.47771 0.03104 0.41862 0.0
C1674 C 0.4753 0.04579 0.43751 0.0
C1675 C 0.48961 0.0486 0.45838 0.0
H1676 H 0.74861 0.75481 0.07631 0.0
H1677 H 0.80621 0.72645 0.09013 0.0
H1678 H 0.74929 0.76496 0.11687 0.0
H1679 H 0.8081 0.73813 0.13114 0.0
H1680 H 0.7922 0.7394 0.2036 0.0
H1681 H 0.79198 0.7301 0.16271 0.0
H1682 H 0.76417 0.7871 0.15128 0.0
H1683 H 0.76275 0.79493 0.1922 0.0
C1684 C 0.76186 0.75118 0.08803 0.0
C1685 C 0.77733 0.7397 0.07975 0.0
C1686 C 0.76235 0.7572 0.11157 0.0
C1687 C 0.77865 0.75239 0.12783 0.0
C1688 C 0.7948 0.74169 0.11947 0.0
C1689 C 0.79399 0.73524 0.0958 0.0
C1690 C 0.7858 0.74973 0.19222 0.0
C1691 C 0.77729 0.76774 0.20105 0.0
C1692 C 0.78596 0.74464 0.16867 0.0
C1693 C 0.77828 0.75787 0.15318 0.0
C1694 C 0.76982 0.77605 0.16224 0.0
C1695 C 0.76903 0.78069 0.18581 0.0
H1696 H 0.11488 0.03823 0.70453 0.0
H1697 H 0.04636 0.03992 0.71659 0.0
H1698 H 0.10329 0.03812 0.66344 0.0
H1699 H 0.0346 0.03887 0.67544 0.0
H1700 H 0.02402 0.00578 0.59473 0.0
H1701 H 0.03481 0.00616 0.63582 0.0
H1702 H 0.08552 0.07201 0.64092 0.0
H1703 H 0.07414 0.07211 0.59977 0.0
C1704 C 0.09722 0.03805 0.69835 0.0
C1705 C 0.08148 0.0389 0.71382 0.0
C1706 C 0.09069 0.03825 0.6749 0.0
C1707 C 0.0681 0.03865 0.66632 0.0
C1708 C 0.05213 0.03862 0.68161 0.0
C1709 C 0.05884 0.03911 0.70512 0.0
C1710 C 0.0373 0.02049 0.60464 0.0
C1711 C 0.04816 0.03897 0.59398 0.0
C1712 C 0.04347 0.02065 0.62815 0.0
C1713 C 0.06112 0.039 0.64149 0.0
C1714 C 0.07195 0.05759 0.63096 0.0
C1715 C 0.06531 0.05772 0.60749 0.0
H1716 H 0.73876 0.343 0.43131 0.0
H1717 H 0.78859 0.39503 0.40599 0.0
H1718 H 0.73044 0.31836 0.39391 0.0
H1719 H 0.78027 0.37068 0.36862 0.0
H1720 H 0.76063 0.32058 0.30298 0.0
H1721 H 0.75136 0.34626 0.33334 0.0
H1722 H 0.7624 0.30117 0.38155 0.0
H1723 H 0.7722 0.27617 0.35151 0.0
C1724 C 0.74687 0.34962 0.41728 0.0
C1725 C 0.76411 0.37075 0.4211 0.0
C1726 C 0.74229 0.33553 0.39606 0.0
C1727 C 0.75491 0.34262 0.37863 0.0
C1728 C 0.77016 0.36495 0.38175 0.0
C1729 C 0.7749 0.3789 0.40303 0.0
C1730 C 0.76138 0.31659 0.3202 0.0
C1731 C 0.76809 0.29726 0.32539 0.0
C1732 C 0.75566 0.33085 0.33727 0.0
C1733 C 0.7562 0.3256 0.35957 0.0
C1734 C 0.76152 0.30539 0.36435 0.0
C1735 C 0.7674 0.29128 0.34732 0.0
H1736 H 0.40213 0.01565 0.21726 0.0
H1737 H 0.46601 0.01078 0.2546 0.0
H1738 H 0.41673 0.00966 0.18121 0.0
H1739 H 0.48135 0.00629 0.21893 0.0
H1740 H 0.49396 0.97264 0.15438 0.0
H1741 H 0.47479 0.97668 0.18752 0.0
H1742 H 0.4439 0.02525 0.15796 0.0
H1743 H 0.46144 0.01959 0.12391 0.0
C1744 C 0.41964 0.01415 0.21769 0.0
C1745 C 0.43312 0.0137 0.2384 0.0
C1746 C 0.42795 0.0106 0.19714 0.0
C1747 C 0.44999 0.00703 0.19724 0.0
C1748 C 0.46398 0.0082 0.21825 0.0
C1749 C 0.45546 0.01118 0.23866 0.0
C1750 C 0.48253 0.98363 0.15466 0.0
C1751 C 0.47954 -0.00384 0.13682 0.0
C1752 C 0.47189 0.98629 0.17381 0.0
C1753 C 0.45848 0.00187 0.17563 0.0
C1754 C 0.45426 0.01323 0.15713 0.0
C1755 C 0.46454 0.01022 0.13777 0.0
H1756 H 0.74668 0.73005 0.93961 0.0
H1757 H 0.81795 0.72884 0.9551 0.0
H1758 H 0.7528 0.73863 0.9016 0.0
H1759 H 0.82426 0.7383 0.91668 0.0
H1760 H 0.82141 0.78766 0.85647 0.0
H1761 H 0.82028 0.77584 0.89442 0.0
H1762 H 0.7639 0.71547 0.86513 0.0
H1763 H 0.7653 0.72682 0.8272 0.0
C1764 C 0.76377 0.73176 0.93496 0.0
C1765 C 0.78187 0.72886 0.95054 0.0
C1766 C 0.76719 0.73656 0.91306 0.0
C1767 C 0.78896 0.73911 0.90612 0.0
C1768 C 0.80728 0.73644 0.92162 0.0
C1769 C 0.80367 0.73097 0.94354 0.0
C1770 C 0.80907 0.77162 0.85802 0.0
C1771 C 0.79346 0.75818 0.83867 0.0
C1772 C 0.80852 0.76483 0.87977 0.0
C1773 C 0.79204 0.74472 0.88274 0.0
C1774 C 0.77684 0.73103 0.86335 0.0
C1775 C 0.7777 0.73753 0.84159 0.0
H1776 H 0.80347 0.09561 0.98917 0.0
H1777 H 0.84713 0.12215 0.05523 0.0
H1778 H 0.82845 0.07124 0.97985 0.0
H1779 H 0.87131 0.09757 0.04622 0.0
H1780 H 0.92419 0.07096 0.01572 0.0
H1781 H 0.89883 0.09552 0.02043 0.0
H1782 H 0.83902 0.03751 0.99243 0.0
H1783 H 0.86474 0.01289 0.98726 0.0
C1784 C 0.81833 0.09624 0.00164 0.0
C1785 C 0.82345 0.11084 0.02284 0.0
C1786 C 0.83247 0.08223 -0.00363 0.0
C1787 C 0.85182 0.08274 0.01226 0.0
C1788 C 0.85676 0.09722 0.03347 0.0
C1789 C 0.8428 0.11121 0.03866 0.0
C1790 C 0.90562 0.0635 0.01059 0.0
C1791 C 0.89621 0.04008 0.00154 0.0
C1792 C 0.89115 0.0775 0.01325 0.0
C1793 C 0.86701 0.06827 0.00707 0.0
C1794 C 0.85762 0.045 -0.0028 0.0
C1795 C 0.87221 0.03096 -0.00565 0.0
H1796 H 0.34535 0.43777 0.03099 0.0
H1797 H 0.38577 0.39614 0.05983 0.0
H1798 H 0.38139 0.46685 0.02826 0.0
H1799 H 0.42136 0.42507 0.05739 0.0
H1800 H 0.47558 0.46058 0.01774 0.0
H1801 H 0.43905 0.43596 0.02395 0.0
H1802 H 0.41878 0.49562 0.05026 0.0
H1803 H 0.45581 0.52075 0.04381 0.0
C1804 C 0.36186 0.43503 0.03716 0.0
C1805 C 0.36267 0.41448 0.04535 0.0
C1806 C 0.38248 0.45169 0.03562 0.0
C1807 C 0.4042 0.44805 0.04224 0.0
C1808 C 0.4049 0.42815 0.05166 0.0
C1809 C 0.38445 0.41159 0.05315 0.0
C1810 C 0.46344 0.46864 0.02481 0.0
C1811 C 0.46875 0.49274 0.03034 0.0
C1812 C 0.44248 0.45443 0.02853 0.0
C1813 C 0.42612 0.4638 0.03788 0.0
C1814 C 0.43107 0.48791 0.04302 0.0
C1815 C 0.45229 0.50227 0.03942 0.0
H1816 H 0.39384 0.5671 0.81345 0.0
H1817 H 0.41267 0.58219 0.74803 0.0
H1818 H 0.37151 0.5949 0.81347 0.0
H1819 H 0.38983 0.60983 0.74787 0.0
H1820 H 0.36403 0.67367 0.76764 0.0
H1821 H 0.38796 0.64708 0.76688 0.0
H1822 H 0.33583 0.59818 0.79335 0.0
H1823 H 0.31186 0.62439 0.7938 0.0
C1824 C 0.39322 0.57633 0.79903 0.0
C1825 C 0.405 0.57228 0.78069 0.0
C1826 C 0.38026 0.5922 0.79898 0.0
C1827 C 0.37867 0.60447 0.78057 0.0
C1828 C 0.39081 0.6008 0.7624 0.0
C1829 C 0.40381 0.58486 0.76244 0.0
C1830 C 0.35755 0.65715 0.77307 0.0
C1831 C 0.33603 0.65134 0.78099 0.0
C1832 C 0.37131 0.64191 0.77266 0.0
C1833 C 0.36394 0.62057 0.78027 0.0
C1834 C 0.34231 0.61467 0.78785 0.0
C1835 C 0.32855 0.62979 0.78815 0.0
H1836 H 0.22858 0.60142 0.55378 0.0
H1837 H 0.20861 0.65588 0.59244 0.0
H1838 H 0.18895 0.57668 0.54917 0.0
H1839 H 0.16912 0.631 0.58789 0.0
H1840 H 0.10578 0.60297 0.52913 0.0
H1841 H 0.14526 0.62181 0.54798 0.0
H1842 H 0.15259 0.55695 0.56518 0.0
H1843 H 0.11278 0.53779 0.54613 0.0
C1844 C 0.21597 0.60781 0.562 0.0
C1845 C 0.22136 0.6308 0.57273 0.0
C1846 C 0.19335 0.59359 0.55948 0.0
C1847 C 0.17608 0.6023 0.5677 0.0
C1848 C 0.1822 0.62419 0.58106 0.0
C1849 C 0.20475 0.63839 0.58357 0.0
C1850 C 0.11573 0.59267 0.5369 0.0
C1851 C 0.1063 0.5689 0.53601 0.0
C1852 C 0.13819 0.60352 0.54802 0.0
C1853 C 0.15164 0.5908 0.55838 0.0
C1854 C 0.14235 0.56703 0.55746 0.0
C1855 C 0.11973 0.55614 0.54643 0.0
H1856 H 0.69282 0.98408 0.76998 0.0
H1857 H 0.74564 0.01249 0.73015 0.0
H1858 H 0.71373 0.95676 0.78053 0.0
H1859 H 0.76703 0.98611 0.74153 0.0
H1860 H 0.7874 0.92102 0.74675 0.0
H1861 H 0.76526 0.94682 0.73546 0.0
H1862 H 0.74862 0.95635 0.80402 0.0
H1863 H 0.76946 0.92906 0.81482 0.0
C1864 C 0.70885 0.9844 0.76345 0.0
C1865 C 0.71758 0.00022 0.74914 0.0
C1866 C 0.72093 0.96898 0.76968 0.0
C1867 C 0.74205 0.96941 0.76193 0.0
C1868 C 0.7506 0.98511 0.74744 0.0
C1869 C 0.73836 0.00025 0.74095 0.0
C1870 C 0.77889 0.92853 0.75936 0.0
C1871 C 0.78002 0.92304 0.78161 0.0
C1872 C 0.76643 0.94349 0.75298 0.0
C1873 C 0.75522 0.95358 0.76887 0.0
C1874 C 0.75682 0.94853 0.79133 0.0
C1875 C 0.76906 0.93327 0.79763 0.0
H1876 H 0.75987 0.93305 0.49094 0.0
H1877 H 0.72799 0.89769 0.54268 0.0
H1878 H 0.73159 0.95491 0.48959 0.0
H1879 H 0.6998 0.91999 0.5416 0.0
H1880 H 0.63932 0.94855 0.51508 0.0
H1881 H 0.66666 0.92544 0.51718 0.0
H1882 H 0.72259 0.98527 0.51323 0.0
H1883 H 0.69549 0.00835 0.51141 0.0
C1884 C 0.74685 0.92995 0.50208 0.0
C1885 C 0.74629 0.91364 0.51697 0.0
C1886 C 0.73069 0.94262 0.50141 0.0
C1887 C 0.71351 0.93935 0.51561 0.0
C1888 C 0.7127 0.92282 0.53031 0.0
C1889 C 0.72895 0.91013 0.53102 0.0
C1890 C 0.65749 0.95684 0.51493 0.0
C1891 C 0.66511 0.98032 0.51289 0.0
C1892 C 0.67317 0.94357 0.5161 0.0
C1893 C 0.6968 0.95344 0.51517 0.0
C1894 C 0.70444 0.97697 0.5135 0.0
C1895 C 0.68884 0.99022 0.51241 0.0
H1896 H 0.40351 0.43326 0.72387 0.0
H1897 H 0.38578 0.47168 0.78134 0.0
H1898 H 0.37248 0.39917 0.72718 0.0
H1899 H 0.35524 0.43721 0.78515 0.0
H1900 H 0.3397 0.35792 0.79998 0.0
H1901 H 0.36355 0.39551 0.79444 0.0
H1902 H 0.32389 0.38704 0.72709 0.0
H1903 H 0.2994 0.3496 0.73288 0.0
C1904 C 0.39267 0.43451 0.73691 0.0
C1905 C 0.39692 0.45511 0.75226 0.0
C1906 C 0.37494 0.41505 0.73877 0.0
C1907 C 0.36156 0.41567 0.75639 0.0
C1908 C 0.36531 0.43642 0.77136 0.0
C1909 C 0.38265 0.45611 0.76909 0.0
C1910 C 0.33583 0.36424 0.78414 0.0
C1911 C 0.31768 0.35091 0.76687 0.0
C1912 C 0.34939 0.38575 0.78104 0.0
C1913 C 0.34541 0.39412 0.76041 0.0
C1914 C 0.32714 0.38095 0.74319 0.0
C1915 C 0.31314 0.35964 0.74654 0.0
H1916 H 0.23405 0.60223 0.28514 0.0
H1917 H 0.24961 0.60417 0.21649 0.0
H1918 H 0.25601 0.64224 0.29629 0.0
H1919 H 0.27387 0.64374 0.22811 0.0
H1920 H 0.2828 0.71832 0.30829 0.0
H1921 H 0.28313 0.6781 0.30243 0.0
H1922 H 0.25526 0.67223 0.23066 0.0
H1923 H 0.25621 0.71228 0.2364 0.0
C1924 C 0.24373 0.61078 0.27291 0.0
C1925 C 0.2398 0.60055 0.24986 0.0
C1926 C 0.25634 0.63387 0.27928 0.0
C1927 C 0.26567 0.64657 0.2627 0.0
C1928 C 0.26583 0.63469 0.24095 0.0
C1929 C 0.25238 0.61191 0.23434 0.0
C1930 C 0.27685 0.70828 0.29129 0.0
C1931 C 0.26916 0.71816 0.27282 0.0
C1932 C 0.2772 0.68534 0.28789 0.0
C1933 C 0.26952 0.67186 0.26602 0.0
C1934 C 0.26211 0.68209 0.24761 0.0
C1935 C 0.26215 0.705 0.25093 0.0
H1936 H 0.53255 0.70664 0.46217 0.0
H1937 H 0.47053 0.69173 0.49316 0.0
H1938 H 0.54033 0.67127 0.47262 0.0
H1939 H 0.47813 0.65659 0.50344 0.0
H1940 H 0.48541 0.58272 0.50072 0.0
H1941 H 0.47826 0.61807 0.49003 0.0
H1942 H 0.55197 0.65156 0.50311 0.0
H1943 H 0.55906 0.6162 0.51384 0.0
C1944 C 0.52051 0.69592 0.47119 0.0
C1945 C 0.50085 0.70253 0.47672 0.0
C1946 C 0.52504 0.67549 0.47736 0.0
C1947 C 0.50991 0.66049 0.48898 0.0
C1948 C 0.49022 0.66712 0.49432 0.0
C1949 C 0.4859 0.68763 0.48849 0.0
C1950 C 0.50017 0.59758 0.50141 0.0
C1951 C 0.52287 0.59617 0.50834 0.0
C1952 C 0.49605 0.61813 0.49531 0.0
C1953 C 0.51445 0.63823 0.49553 0.0
C1954 C 0.53718 0.63672 0.50235 0.0
C1955 C 0.54127 0.61627 0.50874 0.0
H1956 H 0.66153 0.33289 0.64423 0.0
H1957 H 0.61235 0.27464 0.66181 0.0
H1958 H 0.69206 0.32788 0.67281 0.0
H1959 H 0.64312 0.26926 0.68984 0.0
H1960 H 0.72869 0.26402 0.70482 0.0
H1961 H 0.69751 0.26927 0.67709 0.0
H1962 H 0.68511 0.31931 0.72782 0.0
H1963 H 0.71573 0.31384 0.75568 0.0
C1964 C 0.65717 0.31913 0.65429 0.0
C1965 C 0.63434 0.30438 0.65089 0.0
C1966 C 0.6747 0.3162 0.67056 0.0
C1967 C 0.67001 0.29809 0.68346 0.0
C1968 C 0.64723 0.28338 0.68018 0.0
C1969 C 0.62957 0.28661 0.66426 0.0
C1970 C 0.71928 0.27608 0.71011 0.0
C1971 C 0.72469 0.28832 0.73265 0.0
C1972 C 0.70142 0.27906 0.69422 0.0
C1973 C 0.68882 0.29465 0.70032 0.0
C1974 C 0.69439 0.30709 0.72267 0.0
C1975 C 0.71193 0.30385 0.73864 0.0
H1976 H 0.03475 0.34408 0.96349 0.0
H1977 H 0.97764 0.33105 0.00161 0.0
H1978 H 0.03981 0.38539 0.97236 0.0
H1979 H 0.98157 0.37192 0.00934 0.0
H1980 H 1.00055 0.44915 0.03402 0.0
H1981 H 0.9974 0.40819 0.02721 0.0
H1982 H 0.02967 0.41742 0.96668 0.0
H1983 H 0.03392 0.45845 0.97447 0.0
C1984 C 0.02327 0.34996 0.97385 0.0
C1985 C 0.00593 0.33384 0.98196 0.0
C1986 C 0.02592 0.37392 0.97875 0.0
C1987 C 0.01107 0.38282 0.99163 0.0
C1988 C 0.99385 0.36651 -0.00019 0.0
C1989 C 0.99147 0.34268 -0.00478 0.0
C1990 C 0.0069 0.44243 0.01919 0.0
C1991 C 0.01747 0.45745 0.00484 0.0
C1992 C 0.00501 0.41861 0.01511 0.0
C1993 C 0.01325 0.40865 -0.00377 0.0
C1994 C 0.02348 0.42383 0.98172 0.0
C1995 C 0.02572 0.44766 0.98605 0.0
H1996 H 0.00788 0.7658 0.14825 0.0
H1997 H 0.00985 0.83767 0.1572 0.0
H1998 H 0.97714 0.75804 0.17185 0.0
H1999 H 0.97882 0.82988 0.18007 0.0
H2000 H 0.94 0.81435 0.23947 0.0
H2001 H 0.97082 0.82107 0.2162 0.0
H2002 H 0.93731 0.75533 0.17336 0.0
H2003 H 0.90657 0.74852 0.19688 0.0
C2004 C 1.00169 0.77993 0.15513 0.0
C2005 C 0.01149 0.8024 0.15086 0.0
C2006 C 0.98392 0.77546 0.16858 0.0
C2007 C 0.97542 0.79333 0.17808 0.0
C2008 C 0.98512 0.81571 0.17353 0.0
C2009 C 1.0029 0.82018 0.16021 0.0
C2010 C 0.93906 0.80138 0.22498 0.0
C2011 C 0.92066 0.78091 0.22009 0.0
C2012 C 0.9568 0.80525 0.21155 0.0
C2013 C 0.95665 0.78883 0.1927 0.0
C2014 C 0.9383 0.76827 0.18788 0.0
C2015 C 0.92059 0.76437 0.20139 0.0
H2016 H 0.477 0.30273 0.12996 0.0
H2017 H 0.55032 0.30947 0.14622 0.0
H2018 H 0.48549 0.33403 0.10776 0.0
H2019 H 0.55884 0.3405 0.12335 0.0
H2020 H 0.56677 0.41077 0.0993 0.0
H2021 H 0.55923 0.37964 0.12204 0.0
H2022 H 0.49793 0.34308 0.07298 0.0
H2023 H 0.50535 0.37427 0.05047 0.0
C2024 C 0.49496 0.3108 0.12871 0.0
C2025 C 0.51294 0.30349 0.13989 0.0
C2026 C 0.49985 0.32872 0.11579 0.0
C2027 C 0.52287 0.33982 0.11356 0.0
C2028 C 0.54091 0.33258 0.12484 0.0
C2029 C 0.53601 0.31465 0.13785 0.0
C2030 C 0.55177 0.396 0.09329 0.0
C2031 C 0.53661 0.39512 0.07307 0.0
C2032 C 0.54745 0.37809 0.10633 0.0
C2033 C 0.52788 0.35878 0.09948 0.0
C2034 C 0.51289 0.35784 0.07912 0.0
C2035 C 0.51716 0.37576 0.06615 0.0
H2036 H 0.97955 0.34544 0.34001 0.0
H2037 H 0.97343 0.27582 0.31017 0.0
H2038 H 0.93945 0.34094 0.32385 0.0
H2039 H 0.93316 0.27126 0.29296 0.0
H2040 H 0.86795 0.33186 0.28439 0.0
H2041 H 0.90957 0.33724 0.29415 0.0
H2042 H 0.89616 0.26586 0.30303 0.0
H2043 H 0.85475 0.26036 0.29253 0.0
C2044 C 0.96989 0.32945 0.32899 0.0
C2045 C 0.98007 0.31127 0.32584 0.0
C2046 C 0.94665 0.32675 0.31975 0.0
C2047 C 0.93252 0.30563 0.30704 0.0
C2048 C 0.94311 0.28772 0.3029 0.0
C2049 C 0.96649 0.29046 0.31229 0.0
C2050 C 0.87382 0.31726 0.28837 0.0
C2051 C 0.85762 0.29567 0.28771 0.0
C2052 C 0.89789 0.32037 0.29412 0.0
C2053 C 0.90673 0.30204 0.29952 0.0
C2054 C 0.89046 0.28042 0.29866 0.0
C2055 C 0.86644 0.2773 0.29284 0.0
H2056 H 0.01896 0.70661 0.62038 0.0
H2057 H 0.9978 0.65568 0.66401 0.0
H2058 H 0.02448 0.67684 0.59193 0.0
H2059 H 1.00284 0.62609 0.63562 0.0
H2060 H 0.03902 0.58336 0.59351 0.0
H2061 H 0.0328 0.61359 0.62054 0.0
H2062 H 0.00616 0.6428 0.56418 0.0
H2063 H 0.0129 0.61283 0.53711 0.0
C2064 C 0.0151 0.68904 0.62378 0.0
C2065 C 0.00793 0.68368 0.6446 0.0
C2066 C 0.01827 0.67191 0.60742 0.0
C2067 C 0.01438 0.64895 0.61146 0.0
C2068 C 0.00654 0.64356 0.63199 0.0
C2069 C 1.00339 0.66061 0.64826 0.0
C2070 C 0.0319 0.59624 0.58682 0.0
C2071 C 0.02648 0.59553 0.56304 0.0
C2072 C 0.02814 0.61356 0.60239 0.0
C2073 C 0.01879 0.63072 0.59468 0.0
C2074 C 0.01357 0.63011 0.57086 0.0
C2075 C 0.01732 0.61276 0.55529 0.0
H2076 H 0.60951 0.78574 0.83705 0.0
H2077 H 0.62752 0.85021 0.81125 0.0
H2078 H 0.64426 0.77731 0.82513 0.0
H2079 H 0.66149 0.84166 0.79881 0.0
H2080 H 0.73381 0.83276 0.79722 0.0
H2081 H 0.69892 0.83999 0.80922 0.0
H2082 H 0.66466 0.7669 0.79625 0.0
H2083 H 0.69987 0.75973 0.78477 0.0
C2084 C 0.62067 0.79806 0.82866 0.0
C2085 C 0.61537 0.81877 0.82532 0.0
C2086 C 0.64075 0.79319 0.82167 0.0
C2087 C 0.65634 0.80881 0.811 0.0
C2088 C 0.65066 0.82926 0.80737 0.0
C2089 C 0.63077 0.83413 0.81441 0.0
C2090 C 0.71886 0.81817 0.79683 0.0
C2091 C 0.72 0.79563 0.78981 0.0
C2092 C 0.69853 0.82232 0.80364 0.0
C2093 C 0.67835 0.80412 0.80379 0.0
C2094 C 0.67957 0.78154 0.79678 0.0
C2095 C 0.69992 0.7774 0.78992 0.0
H2096 H 0.45194 0.53974 0.68875 0.0
H2097 H 0.51403 0.51883 0.70524 0.0
H2098 H 0.46241 0.54621 0.65092 0.0
H2099 H 0.52453 0.5255 0.66788 0.0
H2100 H 0.54732 0.55868 0.60662 0.0
H2101 H 0.53655 0.55749 0.64485 0.0
H2102 H 0.46591 0.52063 0.61464 0.0
H2103 H 0.47672 0.52155 0.57632 0.0
C2104 C 0.46799 0.53692 0.6845 0.0
C2105 C 0.48215 0.52881 0.70011 0.0
C2106 C 0.4739 0.54043 0.66276 0.0
C2107 C 0.49434 0.53639 0.65632 0.0
C2108 C 0.5088 0.52902 0.67227 0.0
C2109 C 0.50272 0.52512 0.69372 0.0
C2110 C 0.5294 0.5506 0.60807 0.0
C2111 C 0.5129 0.5402 0.58832 0.0
C2112 C 0.52326 0.54979 0.63003 0.0
C2113 C 0.50036 0.53893 0.63288 0.0
C2114 C 0.48365 0.52929 0.61311 0.0
C2115 C 0.48989 0.52973 0.59113 0.0
H2116 H 0.80581 0.18847 0.00037 0.0
H2117 H 0.77486 0.23612 0.03568 0.0
H2118 H 0.80109 0.20552 0.96575 0.0
H2119 H 0.77046 0.25326 0.00114 0.0
H2120 H 0.79619 0.24962 0.9093 0.0
H2121 H 0.81023 0.24101 0.94656 0.0
H2122 H 0.74216 0.23336 0.96557 0.0
H2123 H 0.72801 0.24147 0.92839 0.0
C2124 C 0.79867 0.20303 0.00095 0.0
C2125 C 0.79019 0.21066 0.0205 0.0
C2126 C 0.79606 0.2128 0.98118 0.0
C2127 C 0.78502 0.23034 0.98082 0.0
C2128 C 0.77862 0.23942 0.00099 0.0
C2129 C 0.78118 0.22965 0.02071 0.0
C2130 C 0.78422 0.2459 0.92141 0.0
C2131 C 0.76098 0.24608 0.91599 0.0
C2132 C 0.79231 0.2412 0.94271 0.0
C2133 C 0.77734 0.23687 0.9589 0.0
C2134 C 0.75419 0.23721 0.95353 0.0
C2135 C 0.74607 0.24174 0.93224 0.0
H2136 H 0.15783 0.52586 0.1601 0.0
H2137 H 0.10272 0.51206 0.20066 0.0
H2138 H 0.12937 0.51348 0.12515 0.0
H2139 H 0.07394 0.49935 0.16564 0.0
H2140 H 0.04314 0.53284 0.1056 0.0
H2141 H 0.06452 0.52617 0.14031 0.0
H2142 H 0.09733 0.48459 0.09923 0.0
H2143 H 0.07625 0.49147 0.0646 0.0
C2144 C 0.13964 0.51894 0.16138 0.0
C2145 C 0.13224 0.51957 0.18273 0.0
C2146 C 0.12332 0.51189 0.14145 0.0
C2147 C 0.09944 0.50566 0.14277 0.0
C2148 C 0.09224 0.50422 0.16423 0.0
C2149 C 0.10862 0.51121 0.18417 0.0
C2150 C 0.05452 0.52188 0.10404 0.0
C2151 C 0.05854 0.5132 0.0825 0.0
C2152 C 0.0666 0.51785 0.12388 0.0
C2153 C 0.08269 0.50498 0.12237 0.0
C2154 C 0.08522 0.49478 0.10081 0.0
C2155 C 0.07325 0.49886 0.08104 0.0
H2156 H 0.79536 0.79321 0.46907 0.0
H2157 H 0.77623 0.85471 0.45726 0.0
H2158 H 0.79439 0.78279 0.42812 0.0
H2159 H 0.77609 0.84482 0.41632 0.0
H2160 H 0.75975 0.81312 0.34155 0.0
H2161 H 0.75791 0.82099 0.382 0.0
H2162 H 0.81476 0.79188 0.39771 0.0
H2163 H 0.81592 0.7831 0.35671 0.0
C2164 C 0.79071 0.80444 0.45769 0.0
C2165 C 0.78573 0.82477 0.46657 0.0
C2166 C 0.79047 0.7986 0.43412 0.0
C2167 C 0.78542 0.813 0.41862 0.0
C2168 C 0.77977 0.83302 0.42748 0.0
C2169 C 0.77981 0.83875 0.45107 0.0
C2170 C 0.77198 0.80841 0.35356 0.0
C2171 C 0.78816 0.79761 0.34572 0.0
C2172 C 0.77098 0.81308 0.37695 0.0
C2173 C 0.78628 0.80734 0.39347 0.0
C2174 C 0.80243 0.79636 0.38563 0.0
C2175 C 0.80326 0.79144 0.36207 0.0
H2176 H 0.47312 0.54988 0.83767 0.0
H2177 H 0.50636 0.49619 0.82416 0.0
H2178 H 0.48548 0.55241 0.87879 0.0
H2179 H 0.51765 0.49786 0.86489 0.0
H2180 H 0.54946 0.51542 0.94031 0.0
H2181 H 0.54085 0.51646 0.89934 0.0
H2182 H 0.47731 0.53329 0.90962 0.0
H2183 H 0.48649 0.53323 0.95042 0.0
C2184 C 0.48318 0.53872 0.84341 0.0
C2185 C 0.48868 0.52285 0.82743 0.0
C2186 C 0.49006 0.53994 0.86709 0.0
C2187 C 0.50246 0.52517 0.87551 0.0
C2188 C 0.50846 0.50979 0.85938 0.0
C2189 C 0.5018 0.50874 0.83582 0.0
C2190 C 0.53363 0.51925 0.93377 0.0
C2191 C 0.51871 0.52422 0.94876 0.0
C2192 C 0.52859 0.51982 0.91017 0.0
C2193 C 0.50834 0.5251 0.90084 0.0
C2194 C 0.49334 0.52972 0.91595 0.0
C2195 C 0.49851 0.52943 0.93948 0.0
H2196 H 0.83997 0.21812 0.12123 0.0
H2197 H 0.80144 0.15904 0.14724 0.0
H2198 H 0.84558 0.24156 0.15854 0.0
H2199 H 0.80795 0.18214 0.18505 0.0
H2200 H 0.76725 0.2347 0.20483 0.0
H2201 H 0.78258 0.20768 0.18313 0.0
H2202 H 0.85159 0.25527 0.20058 0.0
H2203 H 0.83585 0.28265 0.22277 0.0
C2204 C 0.83437 0.20975 0.13547 0.0
C2205 C 0.81996 0.18706 0.13153 0.0
C2206 C 0.83753 0.22319 0.15689 0.0
C2207 C 0.82631 0.2138 0.17432 0.0
C2208 C 0.81624 0.18985 0.1716 0.0
C2209 C 0.81272 0.17654 0.15006 0.0
C2210 C 0.78573 0.2393 0.20421 0.0
C2211 C 0.8004 0.26062 0.21528 0.0
C2212 C 0.79464 0.22367 0.19215 0.0
C2213 C 0.81847 0.22909 0.19072 0.0
C2214 C 0.83325 0.25056 0.20177 0.0
C2215 C 0.82424 0.26628 0.21407 0.0
H2216 H 0.13325 0.60332 0.28376 0.0
H2217 H 0.15298 0.5479 0.31228 0.0
H2218 H 0.11683 0.61218 0.31797 0.0
H2219 H 0.13634 0.55675 0.34637 0.0
H2220 H 0.12412 0.59295 0.41264 0.0
H2221 H 0.14392 0.58952 0.37956 0.0
H2222 H 0.08259 0.59092 0.33487 0.0
H2223 H 0.0626 0.59382 0.36772 0.0
C2224 C 0.13409 0.59305 0.29732 0.0
C2225 C 0.14431 0.57487 0.29535 0.0
C2226 C 0.12469 0.59813 0.31682 0.0
C2227 C 0.12552 0.58522 0.3347 0.0
C2228 C 0.13586 0.56715 0.33287 0.0
C2229 C 0.14514 0.56197 0.3133 0.0
C2230 C 0.11495 0.59266 0.39576 0.0
C2231 C 0.09178 0.59346 0.39269 0.0
C2232 C 0.12626 0.59073 0.37692 0.0
C2233 C 0.11463 0.5898 0.35481 0.0
C2234 C 0.09194 0.59182 0.35184 0.0
C2235 C 0.08056 0.59356 0.37064 0.0
H2236 H 0.82204 0.82669 0.60466 0.0
H2237 H 0.75564 0.84119 0.59565 0.0
H2238 H 0.81633 0.81738 0.64247 0.0
H2239 H 0.74972 0.8312 0.63391 0.0
H2240 H 0.74492 0.78188 0.69369 0.0
H2241 H 0.74651 0.79296 0.65536 0.0
H2242 H 0.81338 0.84199 0.68052 0.0
H2243 H 0.81175 0.83146 0.71857 0.0
C2244 C 0.80607 0.82774 0.61065 0.0
C2245 C 0.78928 0.83469 0.59694 0.0
C2246 C 0.80288 0.82248 0.63246 0.0
C2247 C 0.78261 0.82357 0.64125 0.0
C2248 C 0.7655 0.83012 0.62755 0.0
C2249 C 0.76893 0.83592 0.6057 0.0
C2250 C 0.75982 0.79524 0.69111 0.0
C2251 C 0.77821 0.80573 0.70935 0.0
C2252 C 0.76066 0.80164 0.66917 0.0
C2253 C 0.78009 0.81832 0.66489 0.0
C2254 C 0.7982 0.82903 0.68321 0.0
C2255 C 0.7972 0.82298 0.7051 0.0
H2256 H 0.78104 0.49795 0.51446 0.0
H2257 H 0.72269 0.43652 0.50226 0.0
H2258 H 0.75696 0.52018 0.53049 0.0
H2259 H 0.69856 0.45885 0.51763 0.0
H2260 H 0.6677 0.49803 0.56682 0.0
H2261 H 0.69537 0.47827 0.55462 0.0
H2262 H 0.72378 0.53377 0.5181 0.0
H2263 H 0.69623 0.55362 0.53054 0.0
C2264 C 0.76303 0.48927 0.51498 0.0
C2265 C 0.75371 0.46553 0.5072 0.0
C2266 C 0.74929 0.50198 0.52412 0.0
C2267 C 0.72605 0.49114 0.5255 0.0
C2268 C 0.71662 0.46751 0.51725 0.0
C2269 C 0.73036 0.45479 0.50826 0.0
C2270 C 0.68013 0.50611 0.55647 0.0
C2271 C 0.67987 0.52721 0.54947 0.0
C2272 C 0.69581 0.49479 0.5494 0.0
C2273 C 0.71141 0.50439 0.53516 0.0
C2274 C 0.71201 0.5261 0.52921 0.0
C2275 C 0.69633 0.53747 0.53636 0.0
H2276 H 0.18611 0.16606 0.48063 0.0
H2277 H 0.22404 0.1339 0.52622 0.0
H2278 H 0.15043 0.1363 0.48108 0.0
H2279 H 0.18795 0.10464 0.52787 0.0
H2280 H 0.11887 0.04688 0.51554 0.0
H2281 H 0.15622 0.07236 0.5106 0.0
H2282 H 0.12464 0.12798 0.50669 0.0
H2283 H 0.08774 0.10256 0.51065 0.0
C2284 C 0.18679 0.15251 0.4907 0.0
C2285 C 0.20781 0.15238 0.50349 0.0
C2286 C 0.16627 0.13553 0.49118 0.0
C2287 C 0.16606 0.11828 0.50498 0.0
C2288 C 0.18736 0.11753 0.51696 0.0
C2289 C 0.20807 0.13433 0.51607 0.0
C2290 C 0.12002 0.06455 0.5135 0.0
C2291 C 0.10025 0.07259 0.51314 0.0
C2292 C 0.14143 0.0792 0.51076 0.0
C2293 C 0.14351 0.10224 0.50784 0.0
C2294 C 0.12373 0.11023 0.50806 0.0
C2295 C 0.10245 0.09561 0.51049 0.0
H2296 H 0.14492 0.97407 0.75586 0.0
H2297 H 0.20132 0.01122 0.81013 0.0
H2298 H 0.1649 0.94465 0.74823 0.0
H2299 H 0.22093 0.98169 0.80286 0.0
H2300 H 0.26204 0.93948 0.76862 0.0
H2301 H 0.24109 0.96804 0.77459 0.0
H2302 H 0.17643 0.91382 0.76434 0.0
H2303 H 0.19738 0.88515 0.75721 0.0
C2304 C 0.16151 0.97593 0.76623 0.0
C2305 C 0.17155 -0.00492 0.78357 0.0
C2306 C 0.17289 0.95898 0.76194 0.0
C2307 C 0.19457 0.96085 0.77486 0.0
C2308 C 0.20445 0.97989 0.79231 0.0
C2309 C 0.1931 -0.00322 0.79659 0.0
C2310 C 0.24332 0.93361 0.76729 0.0
C2311 C 0.2314 0.90999 0.76236 0.0
C2312 C 0.23132 0.95 0.77104 0.0
C2313 C 0.20708 0.94324 0.77012 0.0
C2314 C 0.19508 0.91963 0.76501 0.0
C2315 C 0.20712 0.90318 0.76119 0.0
H2316 H 0.37328 0.96172 0.05796 0.0
H2317 H 0.33709 0.97681 -0.00273 0.0
H2318 H 0.40675 0.99366 0.05678 0.0
H2319 H 0.3709 0.00891 -0.0042 0.0
H2320 H 0.44764 0.01182 0.97944 0.0
H2321 H 0.40702 0.0013 0.98484 0.0
H2322 H 0.42741 0.03375 0.05576 0.0
H2323 H 0.46796 0.04362 0.05048 0.0
C2324 C 0.37218 0.97263 0.04501 0.0
C2325 C 0.35296 0.96679 0.02756 0.0
C2326 C 0.39128 0.99102 0.04432 0.0
C2327 C 0.39152 0.00352 0.02592 0.0
C2328 C 0.37116 -0.00062 0.01002 0.0
C2329 C 0.35182 0.98116 0.01096 0.0
C2330 C 0.44329 0.01721 -0.00405 0.0
C2331 C 0.46074 0.02774 0.01474 0.0
C2332 C 0.42006 0.01147 -0.00098 0.0
C2333 C 0.41416 0.01647 0.02086 0.0
C2334 C 0.43156 0.02943 0.03888 0.0
C2335 C 0.45471 0.03486 0.03589 0.0
H2336 H 0.86862 0.57095 0.75674 0.0
H2337 H 0.85859 0.58414 0.82733 0.0
H2338 H 0.84695 0.59772 0.74669 0.0
H2339 H 0.83674 0.61084 0.81712 0.0
H2340 H 0.81711 0.67237 0.79279 0.0
H2341 H 0.84212 0.64846 0.8028 0.0
H2342 H 0.80502 0.59644 0.74499 0.0
H2343 H 0.7797 0.62023 0.73508 0.0
C2344 C 0.86209 0.57981 0.77018 0.0
C2345 C 0.8652 0.57544 0.79284 0.0
C2346 C 0.84954 0.59495 0.76435 0.0
C2347 C 0.84008 0.60607 0.78111 0.0
C2348 C 0.84401 0.60249 0.80393 0.0
C2349 C 0.85644 0.58721 0.80976 0.0
C2350 C 0.81412 0.6557 0.78237 0.0
C2351 C 0.79632 0.64797 0.7633 0.0
C2352 C 0.82848 0.64214 0.78805 0.0
C2353 C 0.8254 0.62072 0.77466 0.0
C2354 C 0.80786 0.61308 0.7554 0.0
C2355 C 0.79339 0.62662 0.74977 0.0
H2356 H 0.84776 0.67614 0.033 0.0
H2357 H 0.79828 0.6132 -0.00307 0.0
H2358 H 0.87665 0.65513 0.03988 0.0
H2359 H 0.82704 0.59248 0.0034 0.0
H2360 H 0.87389 0.55643 0.03855 0.0
H2361 H 0.84651 0.57899 0.03394 0.0
H2362 H 0.90087 0.63543 0.0201 0.0
H2363 H 0.92869 0.61319 0.02587 0.0
C2364 C 0.84306 0.65787 0.0265 0.0
C2365 C 0.82067 0.64637 0.01443 0.0
C2366 C 0.85965 0.64586 0.03032 0.0
C2367 C 0.85414 0.62208 0.02229 0.0
C2368 C 0.83179 0.61069 0.01017 0.0
C2369 C 0.81531 0.62266 0.00629 0.0
C2370 C 0.88016 0.57377 0.03487 0.0
C2371 C 0.90356 0.58294 0.0326 0.0
C2372 C 0.86435 0.58663 0.03192 0.0
C2373 C 0.87142 0.60898 0.02646 0.0
C2374 C 0.89487 0.61833 0.02445 0.0
C2375 C 0.91075 0.60545 0.02746 0.0
H2376 H 0.18596 0.09425 0.76766 0.0
H2377 H 0.1567 0.12887 0.81884 0.0
H2378 H 0.21515 0.1306 0.76683 0.0
H2379 H 0.18642 0.16467 0.81917 0.0
H2380 H 0.2161 0.22896 0.7908 0.0
H2381 H 0.19208 0.19161 0.79455 0.0
H2382 H 0.24834 0.1621 0.78392 0.0
H2383 H 0.27247 0.20001 0.77914 0.0
C2384 C 0.18623 0.1095 0.77921 0.0
C2385 C 0.16892 0.10886 0.79311 0.0
C2386 C 0.20297 0.13035 0.77878 0.0
C2387 C 0.2029 0.15081 0.79254 0.0
C2388 C 0.18659 0.14954 0.80771 0.0
C2389 C 0.16965 0.12894 0.80773 0.0
C2390 C 0.22357 0.21463 0.78937 0.0
C2391 C 0.24636 0.2176 0.78482 0.0
C2392 C 0.20974 0.19308 0.79174 0.0
C2393 C 0.21829 0.17372 0.79 0.0
C2394 C 0.24111 0.17657 0.78533 0.0
C2395 C 0.255 0.19831 0.7827 0.0
H2396 H 0.32664 0.96065 0.23694 0.0
H2397 H 0.32621 0.97466 0.3096 0.0
H2398 H 0.299 0.92302 0.23484 0.0
H2399 H 0.29958 0.9367 0.30786 0.0
H2400 H 0.2663 0.86095 0.30099 0.0
H2401 H 0.26786 0.90001 0.29439 0.0
H2402 H 0.3215 0.89875 0.25272 0.0
H2403 H 0.31971 0.85977 0.25897 0.0
C2404 C 0.31935 0.95625 0.25213 0.0
C2405 C 0.32878 0.96993 0.27351 0.0
C2406 C 0.30372 0.93469 0.25099 0.0
C2407 C 0.29824 0.92671 0.27136 0.0
C2408 C 0.30383 0.94236 0.29194 0.0
C2409 C 0.31906 0.96417 0.29296 0.0
C2410 C 0.27833 0.86905 0.2903 0.0
C2411 C 0.29312 0.85756 0.28065 0.0
C2412 C 0.27898 0.89123 0.28638 0.0
C2413 C 0.29429 0.9021 0.27259 0.0
C2414 C 0.30893 0.89047 0.26282 0.0
C2415 C 0.30836 0.86838 0.26683 0.0
H2416 H 0.55755 0.3718 0.60519 0.0
H2417 H 0.57404 0.35419 0.53819 0.0
H2418 H 0.55102 0.40755 0.59421 0.0
H2419 H 0.56669 0.38933 0.52698 0.0
H2420 H 0.52756 0.44399 0.5083 0.0
H2421 H 0.53374 0.40828 0.51944 0.0
H2422 H 0.57403 0.44638 0.58364 0.0
H2423 H 0.56853 0.48219 0.57219 0.0
C2424 C 0.55951 0.37529 0.58801 0.0
C2425 C 0.5663 0.35966 0.57267 0.0
C2426 C 0.5559 0.39602 0.58171 0.0
C2427 C 0.55823 0.40171 0.55956 0.0
C2428 C 0.56451 0.3858 0.54411 0.0
C2429 C 0.56879 0.36549 0.55062 0.0
C2430 C 0.53787 0.44489 0.52477 0.0
C2431 C 0.54759 0.4664 0.53916 0.0
C2432 C 0.54147 0.42425 0.5312 0.0
C2433 C 0.55439 0.42403 0.55261 0.0
C2434 C 0.56384 0.4455 0.56712 0.0
C2435 C 0.56077 0.46623 0.56043 0.0
H2436 H 0.45375 0.79027 0.39095 0.0
H2437 H 0.40461 0.73389 0.41144 0.0
H2438 H 0.42192 0.79741 0.3656 0.0
H2439 H 0.37306 0.74056 0.38547 0.0
H2440 H 0.34105 0.75153 0.30651 0.0
H2441 H 0.37269 0.745 0.33214 0.0
H2442 H 0.37308 0.80362 0.38056 0.0
H2443 H 0.3407 0.80992 0.3551 0.0
C2444 C 0.43628 0.77907 0.38968 0.0
C2445 C 0.43185 0.76129 0.40307 0.0
C2446 C 0.41803 0.78335 0.37535 0.0
C2447 C 0.39496 0.76965 0.37368 0.0
C2448 C 0.39061 0.75148 0.38651 0.0
C2449 C 0.40873 0.74758 0.40126 0.0
C2450 C 0.3478 0.76311 0.32261 0.0
C2451 C 0.33826 0.78135 0.32862 0.0
C2452 C 0.36595 0.7593 0.33729 0.0
C2453 C 0.37551 0.77388 0.35826 0.0
C2454 C 0.36612 0.79216 0.36442 0.0
C2455 C 0.34752 0.79571 0.34989 0.0
H2456 H 0.09756 0.73252 0.05534 0.0
H2457 H 0.02964 0.72009 0.07496 0.0
H2458 H 0.09217 0.69165 0.04633 0.0
H2459 H 0.02306 0.67895 0.06431 0.0
H2460 H 0.01743 0.60298 0.05615 0.0
H2461 H 0.02349 0.64388 0.06586 0.0
H2462 H 0.08258 0.65616 0.02973 0.0
H2463 H 0.07714 0.61492 0.02171 0.0
C2464 C 0.08112 0.72099 0.05729 0.0
C2465 C 0.06405 0.73001 0.06586 0.0
C2466 C 0.07785 0.69704 0.05193 0.0
C2467 C 0.05703 0.68074 0.05433 0.0
C2468 C 0.0397 0.69002 0.06246 0.0
C2469 C 0.04328 0.71403 0.06841 0.0
C2470 C 0.03185 0.61444 0.05038 0.0
C2471 C 0.04678 0.6053 0.03814 0.0
C2472 C 0.03531 0.63839 0.0558 0.0
C2473 C 0.05358 0.65458 0.04869 0.0
C2474 C 0.06848 0.64518 0.03622 0.0
C2475 C 0.06532 0.62113 0.03135 0.0
H2476 H 0.06561 0.25872 0.90857 0.0
H2477 H 0.04559 0.31045 0.87386 0.0
H2478 H 0.09725 0.26046 0.88621 0.0
H2479 H 0.07727 0.3124 0.85185 0.0
H2480 H 0.11924 0.29207 0.79858 0.0
H2481 H 0.08825 0.28962 0.82143 0.0
H2482 H 0.13466 0.28546 0.88087 0.0
H2483 H 0.16595 0.28822 0.85801 0.0
C2484 C 0.06794 0.27048 0.89621 0.0
C2485 C 0.05292 0.28437 0.89299 0.0
C2486 C 0.0862 0.27159 0.88349 0.0
C2487 C 0.08982 0.2865 0.8671 0.0
C2488 C 0.07484 0.30044 0.86402 0.0
C2489 C 0.0567 0.29941 0.87678 0.0
C2490 C 0.12303 0.29092 0.81658 0.0
C2491 C 0.14531 0.29057 0.82638 0.0
C2492 C 0.10516 0.28946 0.82972 0.0
C2493 C 0.10891 0.28748 0.85309 0.0
C2494 C 0.13104 0.28673 0.86288 0.0
C2495 C 0.14901 0.2883 0.84972 0.0
H2496 H 0.51016 0.76438 0.92626 0.0
H2497 H 0.56359 0.75224 0.88832 0.0
H2498 H 0.50961 0.73079 0.94384 0.0
H2499 H 0.56292 0.71775 0.90648 0.0
H2500 H 0.56711 0.67413 0.96891 0.0
H2501 H 0.57106 0.706 0.94674 0.0
H2502 H 0.49639 0.68893 0.93012 0.0
H2503 H 0.49241 0.65725 0.95194 0.0
C2504 C 0.52193 0.75458 0.92161 0.0
C2505 C 0.53688 0.76111 0.90564 0.0
C2506 C 0.52144 0.73509 0.93168 0.0
C2507 C 0.53589 0.72134 0.92629 0.0
C2508 C 0.55149 0.72802 0.91089 0.0
C2509 C 0.55187 0.74771 0.9005 0.0
C2510 C 0.55156 0.67695 0.96019 0.0
C2511 C 0.52941 0.66336 0.96258 0.0
C2512 C 0.55386 0.69518 0.94745 0.0
C2513 C 0.53406 0.70016 0.93693 0.0
C2514 C 0.512 0.68582 0.9384 0.0
C2515 C 0.50971 0.6677 0.95102 0.0
H2516 H 0.08091 0.72546 0.74601 0.0
H2517 H 0.09454 0.78312 0.70915 0.0
H2518 H 0.12209 0.72931 0.75399 0.0
H2519 H 0.13616 0.78805 0.71831 0.0
H2520 H 0.20871 0.7798 0.71868 0.0
H2521 H 0.16737 0.77602 0.71108 0.0
H2522 H 0.1584 0.74633 0.77299 0.0
H2523 H 0.19959 0.74891 0.77964 0.0
C2524 C 0.09274 0.73938 0.73999 0.0
C2525 C 0.08409 0.75401 0.72694 0.0
C2526 C 0.11668 0.7417 0.74472 0.0
C2527 C 0.13311 0.75901 0.73687 0.0
C2528 C 0.12443 0.7741 0.72434 0.0
C2529 C 0.10037 0.77152 0.7193 0.0
C2530 C 0.19787 0.77227 0.73058 0.0
C2531 C 0.20766 0.76452 0.74971 0.0
C2532 C 0.17397 0.77032 0.72637 0.0
C2533 C 0.15891 0.76095 0.74138 0.0
C2534 C 0.16887 0.75323 0.76059 0.0
C2535 C 0.19274 0.7548 0.76455 0.0
H2536 H 0.05113 0.3994 0.37695 0.0
H2537 H 0.07347 0.37973 0.44112 0.0
H2538 H 0.05013 0.4365 0.39747 0.0
H2539 H 0.07313 0.41669 0.46154 0.0
H2540 H 0.0325 0.46213 0.49202 0.0
H2541 H 0.04059 0.43013 0.46967 0.0
H2542 H 0.06938 0.47453 0.42277 0.0
H2543 H 0.061 0.50705 0.44537 0.0
C2544 C 0.057 0.40349 0.39529 0.0
C2545 C 0.0628 0.3868 0.40738 0.0
C2546 C 0.05618 0.42467 0.40712 0.0
C2547 C 0.06105 0.42947 0.43128 0.0
C2548 C 0.06873 0.41346 0.44302 0.0
C2549 C 0.06938 0.3924 0.43128 0.0
C2550 C 0.04053 0.46525 0.47695 0.0
C2551 C 0.04607 0.48732 0.47059 0.0
C2552 C 0.04542 0.44682 0.46418 0.0
C2553 C 0.05601 0.44968 0.44452 0.0
C2554 C 0.06124 0.47166 0.43781 0.0
C2555 C 0.05648 0.49031 0.4508 0.0
H2556 H 0.44887 0.22232 0.2419 0.0
H2557 H 0.45631 0.27867 0.20333 0.0
H2558 H 0.41406 0.22932 0.25394 0.0
H2559 H 0.42092 0.2856 0.21522 0.0
H2560 H 0.36763 0.3053 0.2578 0.0
H2561 H 0.40292 0.29912 0.24555 0.0
H2562 H 0.3745 0.22587 0.243 0.0
H2563 H 0.33942 0.23215 0.25564 0.0
C2564 C 0.44313 0.23628 0.23588 0.0
C2565 C 0.4558 0.2499 0.22154 0.0
C2566 C 0.4228 0.2402 0.24271 0.0
C2567 C 0.41412 0.258 0.23562 0.0
C2568 C 0.42688 0.27182 0.22137 0.0
C2569 C 0.44727 0.26778 0.21438 0.0
C2570 C 0.36887 0.28783 0.25476 0.0
C2571 C 0.35037 0.26926 0.25794 0.0
C2572 C 0.38921 0.28424 0.24746 0.0
C2573 C 0.39203 0.26194 0.24313 0.0
C2574 C 0.3735 0.24339 0.24638 0.0
C2575 C 0.35312 0.24698 0.25358 0.0
H2576 H 0.59262 0.50474 0.34325 0.0
H2577 H 0.57452 0.56878 0.35322 0.0
H2578 H 0.58401 0.49818 0.38181 0.0
H2579 H 0.56681 0.56253 0.39146 0.0
H2580 H 0.58647 0.5565 0.46803 0.0
H2581 H 0.59607 0.55884 0.42946 0.0
H2582 H 0.54322 0.49487 0.40342 0.0
H2583 H 0.533 0.49276 0.442 0.0
C2584 C 0.58678 0.51734 0.35354 0.0
C2585 C 0.58414 0.53721 0.34496 0.0
C2586 C 0.58186 0.51358 0.37558 0.0
C2587 C 0.57487 0.52994 0.38968 0.0
C2588 C 0.57228 0.5497 0.38108 0.0
C2589 C 0.5766 0.55317 0.35903 0.0
C2590 C 0.57713 0.54269 0.45422 0.0
C2591 C 0.55901 0.52439 0.45822 0.0
C2592 C 0.58258 0.5441 0.43209 0.0
C2593 C 0.57047 0.52698 0.41344 0.0
C2594 C 0.55299 0.50818 0.4175 0.0
C2595 C 0.54712 0.50704 0.43959 0.0
H2596 H 0.30723 0.835 0.03871 0.0
H2597 H 0.25655 0.87043 0.055 0.0
H2598 H 0.2972 0.81105 0.06739 0.0
H2599 H 0.24578 0.84556 0.08357 0.0
H2600 H 0.2781 0.83423 0.15619 0.0
H2601 H 0.26841 0.8471 0.12024 0.0
H2602 H 0.27097 0.78257 0.08304 0.0
H2603 H 0.28211 0.77031 0.11917 0.0
C2604 C 0.2935 0.83729 0.04808 0.0
C2605 C 0.28311 0.85497 0.04511 0.0
C2606 C 0.28744 0.82324 0.06431 0.0
C2607 C 0.27075 0.8265 0.07783 0.0
C2608 C 0.25889 0.84289 0.07351 0.0
C2609 C 0.26505 0.85709 0.05721 0.0
C2610 C 0.27626 0.8227 0.1403 0.0
C2611 C 0.2816 0.80167 0.1403 0.0
C2612 C 0.27027 0.82986 0.11971 0.0
C2613 C 0.26932 0.81596 0.09882 0.0
C2614 C 0.272 0.79377 0.09894 0.0
C2615 C 0.27828 0.78672 0.11957 0.0
H2616 H 0.95086 0.55188 0.84185 0.0
H2617 H 0.92363 0.48465 0.86045 0.0
H2618 H 0.9765 0.56432 0.87932 0.0
H2619 H 0.94858 0.49723 0.8976 0.0
H2620 H 0.96973 0.53954 0.96896 0.0
H2621 H 0.94849 0.53678 0.93087 0.0
H2622 H 0.01121 0.54087 0.90189 0.0
H2623 H 0.03285 0.54343 0.94029 0.0
C2624 C 0.95036 0.53989 0.85394 0.0
C2625 C 0.93546 0.51733 0.8484 0.0
C2626 C 0.965 0.54693 0.87513 0.0
C2627 C 0.96429 0.53161 0.89097 0.0
C2628 C 0.94931 0.5092 0.88545 0.0
C2629 C 0.93514 0.50205 0.86426 0.0
C2630 C 0.97917 0.54027 0.95458 0.0
C2631 C 1.00283 0.54124 0.95745 0.0
C2632 C 0.96703 0.53889 0.93289 0.0
C2633 C 0.97837 0.53864 0.91377 0.0
C2634 C 1.00235 0.54131 0.91663 0.0
C2635 C 0.01461 0.54267 0.93848 0.0
H2636 H 0.27751 0.27191 0.57999 0.0
H2637 H 0.28191 0.20447 0.59122 0.0
H2638 H 0.27839 0.28282 0.62119 0.0
H2639 H 0.28189 0.21519 0.63238 0.0
H2640 H 0.24651 0.24068 0.69633 0.0
H2641 H 0.24741 0.22991 0.65531 0.0
H2642 H 0.311 0.28429 0.66062 0.0
H2643 H 0.31065 0.29452 0.70164 0.0
C2644 C 0.27892 0.2595 0.59128 0.0
C2645 C 0.2799 0.2374 0.5823 0.0
C2646 C 0.27931 0.26573 0.61484 0.0
C2647 C 0.27999 0.2498 0.62995 0.0
C2648 C 0.28121 0.22777 0.62109 0.0
C2649 C 0.28148 0.22173 0.59758 0.0
C2650 C 0.2606 0.25039 0.68871 0.0
C2651 C 0.27849 0.26847 0.70226 0.0
C2652 C 0.26121 0.24412 0.66529 0.0
C2653 C 0.27935 0.25621 0.65482 0.0
C2654 C 0.29685 0.27466 0.66823 0.0
C2655 C 0.29661 0.28049 0.69171 0.0
H2656 H 0.58246 0.58029 0.21667 0.0
H2657 H 0.57363 0.50713 0.20883 0.0
H2658 H 0.5725 0.57778 0.17569 0.0
H2659 H 0.56155 0.50396 0.16761 0.0
H2660 H 0.56121 0.50659 0.09179 0.0
H2661 H 0.57107 0.50884 0.13282 0.0
H2662 H 0.54647 0.56923 0.14356 0.0
H2663 H 0.53827 0.56773 0.10226 0.0
C2664 C 0.57781 0.56347 0.20613 0.0
C2665 C 0.5787 0.54388 0.21611 0.0
C2666 C 0.57186 0.56195 0.18241 0.0
C2667 C 0.56589 0.54062 0.16774 0.0
C2668 C 0.56643 0.52087 0.1779 0.0
C2669 C 0.57313 0.52256 0.20169 0.0
C2670 C 0.55796 0.52041 0.10293 0.0
C2671 C 0.54899 0.53703 0.09362 0.0
C2672 C 0.56344 0.52161 0.1267 0.0
C2673 C 0.55967 0.5392 0.14211 0.0
C2674 C 0.5503 0.55566 0.13265 0.0
C2675 C 0.54534 0.55476 0.10879 0.0
H2676 H 0.25965 0.87376 0.9345 0.0
H2677 H 0.33265 0.87969 0.935 0.0
H2678 H 0.25043 0.84912 0.89713 0.0
H2679 H 0.32339 0.85536 0.89777 0.0
H2680 H 0.29769 0.78901 0.84877 0.0
H2681 H 0.3027 0.81322 0.88574 0.0
H2682 H 0.25743 0.85011 0.85627 0.0
H2683 H 0.25203 0.82574 0.81939 0.0
C2684 C 0.27372 0.8702 0.92644 0.0
C2685 C 0.29683 0.87835 0.93772 0.0
C2686 C 0.26843 0.85607 0.90517 0.0
C2687 C 0.28619 0.85002 0.89502 0.0
C2688 C 0.30937 0.85933 0.90565 0.0
C2689 C 0.31465 0.87339 0.92682 0.0
C2690 C 0.28846 0.80198 0.85029 0.0
C2691 C 0.27472 0.80573 0.83122 0.0
C2692 C 0.29149 0.81593 0.87134 0.0
C2693 C 0.28077 0.83371 0.87356 0.0
C2694 C 0.26588 0.83651 0.85488 0.0
C2695 C 0.26289 0.82262 0.83382 0.0
H2696 H 0.89602 0.45713 0.71234 0.0
H2697 H 0.94004 0.52566 0.74018 0.0
H2698 H 0.9169 0.45678 0.67947 0.0
H2699 H 0.96136 0.52495 0.70776 0.0
H2700 H 0.00993 0.49433 0.66525 0.0
H2701 H 0.98628 0.49369 0.69591 0.0
H2702 H 0.92549 0.48584 0.64603 0.0
H2703 H 0.94914 0.48668 0.61528 0.0
C2704 C 0.91003 0.4721 0.71124 0.0
C2705 C 0.91656 0.49142 0.7285 0.0
C2706 C 0.92186 0.47191 0.69259 0.0
C2707 C 0.94064 0.49077 0.6915 0.0
C2708 C 0.94689 0.51025 0.70853 0.0
C2709 C 0.93468 0.5107 0.72684 0.0
C2710 C 0.99147 0.49219 0.66089 0.0
C2711 C 0.98122 0.49061 0.63811 0.0
C2712 C 0.97809 0.492 0.67831 0.0
C2713 C 0.95433 0.48988 0.67304 0.0
C2714 C 0.94387 0.48749 0.65024 0.0
C2715 C 0.95731 0.48803 0.63283 0.0
H2716 H 0.29483 0.20113 0.44151 0.0
H2717 H 0.28091 0.26619 0.46015 0.0
H2718 H 0.30069 0.21098 0.40337 0.0
H2719 H 0.28677 0.27599 0.42245 0.0
H2720 H 0.31553 0.29575 0.35838 0.0
H2721 H 0.31557 0.28574 0.39694 0.0
H2722 H 0.2765 0.21579 0.3683 0.0
H2723 H 0.27646 0.22576 0.32974 0.0
C2724 C 0.29345 0.21769 0.43767 0.0
C2725 C 0.28744 0.23287 0.45402 0.0
C2726 C 0.29658 0.22326 0.41571 0.0
C2727 C 0.29418 0.24431 0.40968 0.0
C2728 C 0.28903 0.25975 0.4264 0.0
C2729 C 0.28557 0.25407 0.44809 0.0
C2730 C 0.30719 0.27815 0.36023 0.0
C2731 C 0.29596 0.26161 0.34079 0.0
C2732 C 0.30707 0.27243 0.38242 0.0
C2733 C 0.29597 0.24993 0.38589 0.0
C2734 C 0.28542 0.23322 0.36641 0.0
C2735 C 0.28529 0.239 0.34422 0.0
H2736 H 0.34204 0.619 0.56451 0.0
H2737 H 0.28697 0.56618 0.51942 0.0
H2738 H 0.36934 0.59734 0.55679 0.0
H2739 H 0.31462 0.54459 0.5115 0.0
H2740 H 0.37004 0.50535 0.5176 0.0
H2741 H 0.34087 0.52383 0.52879 0.0
H2742 H 0.38578 0.59 0.52174 0.0
H2743 H 0.41482 0.5716 0.51072 0.0
C2744 C 0.33567 0.6026 0.55319 0.0
C2745 C 0.31243 0.59437 0.54228 0.0
C2746 C 0.35136 0.59031 0.54869 0.0
C2747 C 0.34407 0.56959 0.53327 0.0
C2748 C 0.32057 0.56058 0.52348 0.0
C2749 C 0.30481 0.57293 0.52796 0.0
C2750 C 0.37344 0.52379 0.51822 0.0
C2751 C 0.39454 0.53715 0.51343 0.0
C2752 C 0.35688 0.53432 0.52467 0.0
C2753 C 0.36129 0.55827 0.52634 0.0
C2754 C 0.38223 0.57153 0.52106 0.0
C2755 C 0.39874 0.56104 0.51466 0.0
H2756 H 0.87706 0.88897 0.51647 0.0
H2757 H 0.85014 0.93867 0.55382 0.0
H2758 H 0.91195 0.91877 0.51492 0.0
H2759 H 0.88622 0.96896 0.5532 0.0
H2760 H 0.94895 0.01921 0.52741 0.0
H2761 H 0.91124 0.99244 0.53005 0.0
H2762 H 0.9453 0.93966 0.5408 0.0
H2763 H 0.98204 0.96574 0.53715 0.0
C2764 C 0.87873 0.90633 0.52463 0.0
C2765 C 0.861 0.91135 0.53566 0.0
C2766 C 0.89889 0.92348 0.52385 0.0
C2767 C 0.9023 0.94624 0.53451 0.0
C2768 C 0.88421 0.9516 0.54489 0.0
C2769 C 0.86362 0.93428 0.54533 0.0
C2770 C 0.94821 0.00188 0.53045 0.0
C2771 C 0.96831 -0.00565 0.53158 0.0
C2772 C 0.92668 0.98658 0.53203 0.0
C2773 C 0.92507 0.96366 0.53506 0.0
C2774 C 0.94559 0.95684 0.5376 0.0
C2775 C 0.96678 0.97186 0.53562 0.0
H2776 H 0.91798 0.08272 0.24658 0.0
H2777 H 0.89168 0.06356 0.30796 0.0
H2778 H 0.89544 0.11045 0.24517 0.0
H2779 H 0.86966 0.09163 0.30686 0.0
H2780 H 0.81253 0.12328 0.28244 0.0
H2781 H 0.83622 0.09682 0.28458 0.0
H2782 H 0.8926 0.14659 0.26432 0.0
H2783 H 0.86887 0.1732 0.26225 0.0
C2784 C 0.90754 0.08453 0.25987 0.0
C2785 C 0.90656 0.07082 0.27733 0.0
C2786 C 0.89472 0.10054 0.25913 0.0
C2787 C 0.88066 0.1032 0.27585 0.0
C2788 C 0.88 0.08974 0.29349 0.0
C2789 C 0.89276 0.07374 0.29421 0.0
C2790 C 0.83009 0.12875 0.27874 0.0
C2791 C 0.8388 0.15043 0.27226 0.0
C2792 C 0.84368 0.11354 0.27995 0.0
C2793 C 0.86635 0.11959 0.27469 0.0
C2794 C 0.8751 0.14126 0.2682 0.0
C2795 C 0.86149 0.15652 0.26702 0.0
H2796 H 0.72535 0.11347 0.01433 0.0
H2797 H 0.71332 0.10998 0.08398 0.0
H2798 H 0.68593 0.08809 0.00015 0.0
H2799 H 0.67437 0.0842 0.06998 0.0
H2800 H 0.60829 0.03122 0.03814 0.0
H2801 H 0.65057 0.04496 0.04505 0.0
H2802 H 0.648 0.10014 0.00651 0.0
H2803 H 0.60568 0.08666 -0.00031 0.0
C2804 C 0.71456 0.10644 0.02651 0.0
C2805 C 0.72204 0.1134 0.05015 0.0
C2806 C 0.69211 0.09213 0.01845 0.0
C2807 C 0.6773 0.08432 0.03403 0.0
C2808 C 0.68561 0.08983 0.05767 0.0
C2809 C 0.70777 0.10454 0.06568 0.0
C2810 C 0.61671 0.04608 0.03082 0.0
C2811 C 0.60369 0.05808 0.01861 0.0
C2812 C 0.64087 0.05382 0.03472 0.0
C2813 C 0.65236 0.07346 0.02622 0.0
C2814 C 0.63944 0.08472 0.01294 0.0
C2815 C 0.61525 0.07716 0.00926 0.0
H2816 H 0.19725 0.47862 0.25138 0.0
H2817 H 0.23218 0.52053 0.31633 0.0
H2818 H 0.21855 0.45095 0.25808 0.0
H2819 H 0.25304 0.49216 0.32342 0.0
H2820 H 0.30667 0.452 0.3103 0.0
H2821 H 0.28365 0.4793 0.30777 0.0
H2822 H 0.22187 0.42273 0.28199 0.0
H2823 H 0.24492 0.39568 0.28413 0.0
C2824 C 0.20918 0.48172 0.2673 0.0
C2825 C 0.21313 0.50177 0.28333 0.0
C2826 C 0.2213 0.46579 0.27118 0.0
C2827 C 0.2374 0.46945 0.29128 0.0
C2828 C 0.24089 0.48913 0.30766 0.0
C2829 C 0.22885 0.50523 0.30369 0.0
C2830 C 0.28814 0.44553 0.3043 0.0
C2831 C 0.27753 0.42193 0.2971 0.0
C2832 C 0.27497 0.46106 0.30296 0.0
C2833 C 0.25103 0.45307 0.29456 0.0
C2834 C 0.24037 0.42936 0.28811 0.0
C2835 C 0.25352 0.41392 0.28931 0.0
H2836 H 0.23218 0.4052 0.04712 0.0
H2837 H 0.25079 0.42573 0.98334 0.0
H2838 H 0.20261 0.42581 0.04513 0.0
H2839 H 0.22185 0.44679 0.98169 0.0
H2840 H 0.15352 0.46383 0.97257 0.0
H2841 H 0.18122 0.44135 0.9751 0.0
H2842 H 0.1977 0.46371 0.04839 0.0
H2843 H 0.16978 0.48609 0.04583 0.0
C2844 C 0.23003 0.41416 0.03272 0.0
C2845 C 0.24387 0.41375 0.01536 0.0
C2846 C 0.21316 0.42611 0.03165 0.0
C2847 C 0.20974 0.43795 0.01321 0.0
C2848 C 0.22365 0.43755 -0.00407 0.0
C2849 C 0.24042 0.42558 -0.00303 0.0
C2850 C 0.16312 0.46405 0.98922 0.0
C2851 C 0.15951 0.47692 0.00896 0.0
C2852 C 0.17906 0.45116 0.99068 0.0
C2853 C 0.19191 0.45082 0.01193 0.0
C2854 C 0.18796 0.46332 0.03177 0.0
C2855 C 0.17194 0.47619 0.0303 0.0
H2856 H 0.92443 0.94424 0.28545 0.0
H2857 H 0.8786 0.96194 0.23379 0.0
H2858 H 0.89427 0.90973 0.28769 0.0
H2859 H 0.8482 0.92621 0.2351 0.0
H2860 H 0.79476 0.86527 0.25992 0.0
H2861 H 0.82102 0.90315 0.25762 0.0
H2862 H 0.87906 0.87418 0.26268 0.0
H2863 H 0.85343 0.83734 0.2658 0.0
C2864 C 0.90779 0.94061 0.27448 0.0
C2865 C 0.90392 0.95546 0.25917 0.0
C2866 C 0.89052 0.92075 0.27565 0.0
C2867 C 0.86901 0.91481 0.26108 0.0
C2868 C 0.86461 0.93027 0.24649 0.0
C2869 C 0.88196 0.95062 0.24566 0.0
C2870 C 0.81314 0.86713 0.26044 0.0
C2871 C 0.82208 0.84842 0.26346 0.0
C2872 C 0.82815 0.88876 0.25907 0.0
C2873 C 0.85224 0.89185 0.26053 0.0
C2874 C 0.86076 0.87271 0.2623 0.0
C2875 C 0.84598 0.85144 0.26395 0.0
H2876 H 0.75974 0.11242 0.72482 0.0
H2877 H 0.75157 0.10145 0.79394 0.0
H2878 H 0.78615 0.1503 0.73927 0.0
H2879 H 0.77775 0.1397 0.80857 0.0
H2880 H 0.75406 0.2079 0.79829 0.0
H2881 H 0.75595 0.16857 0.79795 0.0
H2882 H 0.81655 0.18342 0.76438 0.0
H2883 H 0.81462 0.22278 0.76452 0.0
C2884 C 0.76499 0.11749 0.74319 0.0
C2885 C 0.75324 0.10457 0.75827 0.0
C2886 C 0.7801 0.13926 0.75156 0.0
C2887 C 0.78311 0.14816 0.77497 0.0
C2888 C 0.77526 0.13326 0.79039 0.0
C2889 C 0.76042 0.11129 0.782 0.0
C2890 C 0.76795 0.20286 0.79112 0.0
C2891 C 0.78371 0.21813 0.78081 0.0
C2892 C 0.76939 0.18049 0.79138 0.0
C2893 C 0.78657 0.17305 0.78125 0.0
C2894 C 0.80328 0.18882 0.77239 0.0
C2895 C 0.80191 0.21121 0.77221 0.0
loop_
_geom_bond_atom_site_label_1
_geom_bond_atom_site_label_2
_geom_bond_distance
_geom_bond_site_symmetry_2
_ccdc_geom_bond_type
Zn0 O3 2.031 . S
Zn0 O5 2.049 . S
Zn0 O10 2.067 1_455 S
Zn1 O2 1.962 . S
Zn1 O4 1.986 . S
Zn1 O6 1.996 . S
Zn1 O9 1.943 . S
O2 Zn1 1.962 . S
O2 C7 1.254 . S
O3 Zn0 2.031 . S
O3 C7 1.269 . S
O4 Zn1 1.986 . S
O4 C11 1.262 . S
O5 Zn0 2.049 . S
O5 C13 1.260 . S
O6 Zn1 1.996 . S
O6 C13 1.257 . S
C7 O2 1.254 . S
C7 O3 1.269 . S
C8 O9 1.228 1_655 S
C8 O10 1.279 . S
O9 Zn1 1.943 . S
O9 C8 1.228 1_455 S
O10 Zn0 2.067 1_655 S
O10 C8 1.279 . S
C11 O4 1.262 . S
C11 O12 1.232 . S
O12 C11 1.232 . S
C13 O5 1.260 . S
C13 O6 1.257 . S
Zn14 O17 2.031 1_455 S
Zn14 O19 2.049 . S
Zn14 O24 2.067 . S
Zn15 O16 1.962 . S
Zn15 O18 1.986 . S
Zn15 O20 1.996 . S
Zn15 O23 1.943 . S
O16 Zn15 1.962 . S
O16 C21 1.254 1_455 S
O17 Zn14 2.031 1_655 S
O17 C21 1.269 . S
O18 Zn15 1.986 . S
O18 C25 1.262 . S
O19 Zn14 2.049 . S
O19 C27 1.260 . S
O20 Zn15 1.996 . S
O20 C27 1.257 . S
C21 O16 1.254 1_655 S
C21 O17 1.269 . S
C22 O23 1.249 . S
C22 O24 1.270 . S
O23 Zn15 1.943 . S
O23 C22 1.249 . S
O24 Zn14 2.067 . S
O24 C22 1.270 . S
C25 O18 1.262 . S
C25 O26 1.232 . S
O26 C25 1.232 . S
C27 O19 1.260 . S
C27 O20 1.257 . S
Zn28 O31 2.031 . S
Zn28 O33 2.049 . S
Zn28 O38 2.067 . S
Zn29 O30 1.962 . S
Zn29 O32 1.986 . S
Zn29 O34 1.996 . S
Zn29 O37 1.943 . S
O30 Zn29 1.962 . S
O30 C35 1.254 . S
O31 Zn28 2.031 . S
O31 C35 1.269 . S
O32 Zn29 1.986 . S
O32 C39 1.262 . S
O33 Zn28 2.049 . S
O33 C41 1.260 . S
O34 Zn29 1.996 . S
O34 C41 1.257 . S
C35 O30 1.254 . S
C35 O31 1.269 . S
C36 O37 1.249 . S
C36 O38 1.270 . S
O37 Zn29 1.943 . S
O37 C36 1.249 . S
O38 Zn28 2.067 . S
O38 C36 1.270 . S
C39 O32 1.262 . S
C39 O40 1.232 . S
O40 C39 1.232 . S
C41 O33 1.260 . S
C41 O34 1.257 . S
Zn42 O45 2.031 . S
Zn42 O47 2.049 . S
Zn42 O52 2.067 . S
Zn43 O44 1.962 . S
Zn43 O46 1.986 . S
Zn43 O48 1.996 . S
Zn43 O51 1.943 . S
O44 Zn43 1.962 . S
O44 C49 1.254 . S
O45 Zn42 2.031 . S
O45 C49 1.269 . S
O46 Zn43 1.986 . S
O46 C53 1.262 . S
O47 Zn42 2.049 . S
O47 C55 1.260 . S
O48 Zn43 1.996 . S
O48 C55 1.257 . S
C49 O44 1.254 . S
C49 O45 1.269 . S
C50 O51 1.249 . S
C50 O52 1.270 . S
O51 Zn43 1.943 . S
O51 C50 1.249 . S
O52 Zn42 2.067 . S
O52 C50 1.270 . S
C53 O46 1.262 . S
C53 O54 1.232 . S
O54 C53 1.232 . S
C55 O47 1.260 . S
C55 O48 1.257 . S
Zn56 O59 2.031 . S
Zn56 O61 2.049 . S
Zn56 O66 2.067 . S
Zn57 O58 1.962 . S
Zn57 O60 1.986 . S
Zn57 O62 1.996 . S
Zn57 O65 1.943 . S
O58 Zn57 1.962 . S
O58 C63 1.254 . S
O59 Zn56 2.031 . S
O59 C63 1.269 . S
O60 Zn57 1.986 . S
O60 C67 1.262 . S
O61 Zn56 2.049 . S
O61 C69 1.260 . S
O62 Zn57 1.996 . S
O62 C69 1.257 . S
C63 O58 1.254 . S
C63 O59 1.269 . S
C64 O65 1.249 . S
C64 O66 1.270 . S
O65 Zn57 1.943 . S
O65 C64 1.249 . S
O66 Zn56 2.067 . S
O66 C64 1.270 . S
C67 O60 1.262 . S
C67 O68 1.232 . S
O68 C67 1.232 . S
C69 O61 1.260 . S
C69 O62 1.257 . S
Zn70 O73 2.031 . S
Zn70 O75 2.049 . S
Zn70 O80 2.067 . S
Zn71 O72 1.962 . S
Zn71 O74 1.986 . S
Zn71 O76 1.996 . S
Zn71 O79 1.943 . S
O72 Zn71 1.962 . S
O72 C77 1.254 . S
O73 Zn70 2.031 . S
O73 C77 1.269 . S
O74 Zn71 1.986 . S
O74 C81 1.262 . S
O75 Zn70 2.049 . S
O75 C83 1.260 . S
O76 Zn71 1.996 . S
O76 C83 1.257 . S
C77 O72 1.254 . S
C77 O73 1.269 . S
C78 O79 1.249 . S
C78 O80 1.270 . S
O79 Zn71 1.943 . S
O79 C78 1.249 . S
O80 Zn70 2.067 . S
O80 C78 1.270 . S
C81 O74 1.262 . S
C81 O82 1.232 . S
O82 C81 1.232 . S
C83 O75 1.260 . S
C83 O76 1.257 . S
Zn84 O87 2.031 . S
Zn84 O89 2.049 . S
Zn84 O94 2.067 . S
Zn85 O86 1.962 . S
Zn85 O88 1.986 . S
Zn85 O90 1.996 . S
Zn85 O93 1.943 . S
O86 Zn85 1.962 . S
O86 C91 1.254 . S
O87 Zn84 2.031 . S
O87 C91 1.269 . S
O88 Zn85 1.986 . S
O88 C95 1.262 . S
O89 Zn84 2.049 . S
O89 C97 1.260 . S
O90 Zn85 1.996 . S
O90 C97 1.257 . S
C91 O86 1.254 . S
C91 O87 1.269 . S
C92 O93 1.249 . S
C92 O94 1.270 . S
O93 Zn85 1.943 . S
O93 C92 1.249 . S
O94 Zn84 2.067 . S
O94 C92 1.270 . S
C95 O88 1.262 . S
C95 O96 1.232 . S
O96 C95 1.232 . S
C97 O89 1.260 . S
C97 O90 1.257 . S
Zn98 O101 2.031 . S
Zn98 O103 2.049 . S
Zn98 O108 2.067 . S
Zn99 O100 1.962 . S
Zn99 O102 1.986 . S
Zn99 O104 1.996 . S
Zn99 O107 1.943 1_455 S
O100 Zn99 1.962 . S
O100 C105 1.254 . S
O101 Zn98 2.031 . S
O101 C105 1.269 1_655 S
O102 Zn99 1.986 . S
O102 C109 1.262 . S
O103 Zn98 2.049 . S
O103 C111 1.260 . S
O104 Zn99 1.996 . S
O104 C111 1.257 1_455 S
C105 O100 1.254 . S
C105 O101 1.269 1_455 S
C106 O107 1.249 . S
C106 O108 1.270 . S
O107 Zn99 1.943 1_655 S
O107 C106 1.249 . S
O108 Zn98 2.067 . S
O108 C106 1.270 . S
C109 O102 1.262 . S
C109 O110 1.232 . S
O110 C109 1.232 . S
C111 O103 1.260 . S
C111 O104 1.257 1_655 S
Zn112 O115 2.031 . S
Zn112 O117 2.049 . S
Zn112 O122 2.067 . S
Zn113 O114 1.962 . S
Zn113 O116 1.986 . S
Zn113 O118 1.996 . S
Zn113 O121 1.943 1_545 S
O114 Zn113 1.962 . S
O114 C119 1.254 . S
O115 Zn112 2.031 . S
O115 C119 1.269 1_565 S
O116 Zn113 1.986 . S
O116 C123 1.262 . S
O117 Zn112 2.049 . S
O117 C125 1.260 . S
O118 Zn113 1.996 . S
O118 C125 1.257 1_545 S
C119 O114 1.254 . S
C119 O115 1.269 1_545 S
C120 O121 1.249 . S
C120 O122 1.270 . S
O121 Zn113 1.943 1_565 S
O121 C120 1.249 . S
O122 Zn112 2.067 . S
O122 C120 1.270 . S
C123 O116 1.262 . S
C123 O124 1.232 . S
O124 C123 1.232 . S
C125 O117 1.260 . S
C125 O118 1.257 1_565 S
Zn126 O129 2.031 . S
Zn126 O131 2.049 . S
Zn126 O136 2.067 . S
Zn127 O128 1.962 . S
Zn127 O130 1.986 . S
Zn127 O132 1.996 . S
Zn127 O135 1.943 . S
O128 Zn127 1.962 . S
O128 C133 1.254 . S
O129 Zn126 2.031 . S
O129 C133 1.269 . S
O130 Zn127 1.986 . S
O130 C137 1.262 . S
O131 Zn126 2.049 . S
O131 C139 1.260 . S
O132 Zn127 1.996 . S
O132 C139 1.257 . S
C133 O128 1.254 . S
C133 O129 1.269 . S
C134 O135 1.249 . S
C134 O136 1.270 . S
O135 Zn127 1.943 . S
O135 C134 1.249 . S
O136 Zn126 2.067 . S
O136 C134 1.270 . S
C137 O130 1.262 . S
C137 O138 1.232 . S
O138 C137 1.232 . S
C139 O131 1.260 . S
C139 O132 1.257 . S
Zn140 O143 2.031 . S
Zn140 O145 2.049 . S
Zn140 O150 2.067 . S
Zn141 O142 1.962 . S
Zn141 O144 1.986 . S
Zn141 O146 1.996 . S
Zn141 O149 1.943 . S
O142 Zn141 1.962 . S
O142 C147 1.254 . S
O143 Zn140 2.031 . S
O143 C147 1.269 . S
O144 Zn141 1.986 . S
O144 C151 1.262 . S
O145 Zn140 2.049 . S
O145 C153 1.260 . S
O146 Zn141 1.996 . S
O146 C153 1.257 . S
C147 O142 1.254 . S
C147 O143 1.269 . S
C148 O149 1.249 . S
C148 O150 1.270 . S
O149 Zn141 1.943 . S
O149 C148 1.249 . S
O150 Zn140 2.067 . S
O150 C148 1.270 . S
C151 O144 1.262 . S
C151 O152 1.232 . S
O152 C151 1.232 . S
C153 O145 1.260 . S
C153 O146 1.257 . S
Zn154 O157 2.031 1_554 S
Zn154 O159 2.049 . S
Zn154 O164 2.067 . S
Zn155 O156 1.962 . S
Zn155 O158 1.986 1_556 S
Zn155 O160 1.996 1_556 S
Zn155 O163 1.943 1_556 S
O156 Zn155 1.962 . S
O156 C161 1.254 . S
O157 Zn154 2.031 1_556 S
O157 C161 1.269 . S
O158 Zn155 1.986 1_554 S
O158 C165 1.262 1_554 S
O159 Zn154 2.049 . S
O159 C167 1.260 . S
O160 Zn155 1.996 1_554 S
O160 C167 1.257 . S
C161 O156 1.254 . S
C161 O157 1.269 . S
C162 O163 1.249 . S
C162 O164 1.270 . S
O163 Zn155 1.943 1_554 S
O163 C162 1.249 . S
O164 Zn154 2.067 . S
O164 C162 1.270 . S
C165 O158 1.262 1_556 S
C165 O166 1.232 . S
O166 C165 1.232 . S
C167 O159 1.260 . S
C167 O160 1.257 . S
Zn168 O171 2.031 . S
Zn168 O173 2.049 . S
Zn168 O178 2.067 . S
Zn169 O170 1.962 . S
Zn169 O172 1.986 . S
Zn169 O174 1.996 . S
Zn169 O177 1.943 . S
O170 Zn169 1.962 . S
O170 C175 1.254 1_554 S
O171 Zn168 2.031 . S
O171 C175 1.269 1_554 S
O172 Zn169 1.986 . S
O172 C179 1.262 . S
O173 Zn168 2.049 . S
O173 C181 1.260 . S
O174 Zn169 1.996 . S
O174 C181 1.257 . S
C175 O170 1.254 1_556 S
C175 O171 1.269 1_556 S
C176 O177 1.249 . S
C176 O178 1.270 . S
O177 Zn169 1.943 . S
O177 C176 1.249 . S
O178 Zn168 2.067 . S
O178 C176 1.270 . S
C179 O172 1.262 . S
C179 O180 1.232 . S
O180 C179 1.232 . S
C181 O173 1.260 . S
C181 O174 1.257 . S
Zn182 O185 2.031 . S
Zn182 O187 2.049 . S
Zn182 O192 2.067 . S
Zn183 O184 1.962 . S
Zn183 O186 1.986 . S
Zn183 O188 1.996 . S
Zn183 O191 1.943 . S
O184 Zn183 1.962 . S
O184 C189 1.254 . S
O185 Zn182 2.031 . S
O185 C189 1.269 . S
O186 Zn183 1.986 . S
O186 C193 1.262 . S
O187 Zn182 2.049 . S
O187 C195 1.260 . S
O188 Zn183 1.996 . S
O188 C195 1.257 . S
C189 O184 1.254 . S
C189 O185 1.269 . S
C190 O191 1.249 . S
C190 O192 1.270 . S
O191 Zn183 1.943 . S
O191 C190 1.249 . S
O192 Zn182 2.067 . S
O192 C190 1.270 . S
C193 O186 1.262 . S
C193 O194 1.232 . S
O194 C193 1.232 . S
C195 O187 1.260 . S
C195 O188 1.257 . S
Zn196 O199 2.031 . S
Zn196 O201 2.049 . S
Zn196 O206 2.067 . S
Zn197 O198 1.962 . S
Zn197 O200 1.986 . S
Zn197 O202 1.996 . S
Zn197 O205 1.943 . S
O198 Zn197 1.962 . S
O198 C203 1.254 . S
O199 Zn196 2.031 . S
O199 C203 1.269 . S
O200 Zn197 1.986 . S
O200 C207 1.262 . S
O201 Zn196 2.049 . S
O201 C209 1.260 . S
O202 Zn197 1.996 . S
O202 C209 1.257 . S
C203 O198 1.254 . S
C203 O199 1.269 . S
C204 O205 1.249 . S
C204 O206 1.270 . S
O205 Zn197 1.943 . S
O205 C204 1.249 . S
O206 Zn196 2.067 . S
O206 C204 1.270 . S
C207 O200 1.262 . S
C207 O208 1.232 . S
O208 C207 1.232 . S
C209 O201 1.260 . S
C209 O202 1.257 . S
Zn210 O213 2.031 . S
Zn210 O215 2.049 . S
Zn210 O220 2.067 . S
Zn211 O212 1.962 . S
Zn211 O214 1.986 . S
Zn211 O216 1.996 . S
Zn211 O219 1.943 . S
O212 Zn211 1.962 . S
O212 C217 1.254 . S
O213 Zn210 2.031 . S
O213 C217 1.269 . S
O214 Zn211 1.986 . S
O214 C221 1.262 . S
O215 Zn210 2.049 . S
O215 C223 1.260 . S
O216 Zn211 1.996 . S
O216 C223 1.257 . S
C217 O212 1.254 . S
C217 O213 1.269 . S
C218 O219 1.249 . S
C218 O220 1.270 . S
O219 Zn211 1.943 . S
O219 C218 1.249 . S
O220 Zn210 2.067 . S
O220 C218 1.270 . S
C221 O214 1.262 . S
C221 O222 1.232 . S
O222 C221 1.232 . S
C223 O215 1.260 . S
C223 O216 1.257 . S
Zn224 O227 2.031 . S
Zn224 O229 2.049 . S
Zn224 O234 2.067 1_545 S
Zn225 O226 1.962 . S
Zn225 O228 1.986 . S
Zn225 O230 1.996 . S
Zn225 O233 1.943 . S
O226 Zn225 1.962 . S
O226 C231 1.254 . S
O227 Zn224 2.031 . S
O227 C231 1.269 . S
O228 Zn225 1.986 . S
O228 C235 1.262 . S
O229 Zn224 2.049 . S
O229 C237 1.260 . S
O230 Zn225 1.996 . S
O230 C237 1.257 . S
C231 O226 1.254 . S
C231 O227 1.269 . S
C232 O233 1.249 1_565 S
C232 O234 1.270 . S
O233 Zn225 1.943 . S
O233 C232 1.249 1_545 S
O234 Zn224 2.067 1_565 S
O234 C232 1.270 . S
C235 O228 1.262 . S
C235 O236 1.232 . S
O236 C235 1.232 . S
C237 O229 1.260 . S
C237 O230 1.257 . S
Zn238 O241 2.031 . S
Zn238 O243 2.049 . S
Zn238 O248 2.067 . S
Zn239 O240 1.962 . S
Zn239 O242 1.986 . S
Zn239 O244 1.996 . S
Zn239 O247 1.943 . S
O240 Zn239 1.962 . S
O240 C245 1.254 . S
O241 Zn238 2.031 . S
O241 C245 1.269 . S
O242 Zn239 1.986 . S
O242 C249 1.262 . S
O243 Zn238 2.049 . S
O243 C251 1.260 . S
O244 Zn239 1.996 . S
O244 C251 1.257 . S
C245 O240 1.254 . S
C245 O241 1.269 . S
C246 O247 1.249 . S
C246 O248 1.270 . S
O247 Zn239 1.943 . S
O247 C246 1.249 . S
O248 Zn238 2.067 . S
O248 C246 1.270 . S
C249 O242 1.262 . S
C249 O250 1.232 . S
O250 C249 1.232 . S
C251 O243 1.260 . S
C251 O244 1.257 . S
Zn252 O255 2.031 . S
Zn252 O257 2.049 . S
Zn252 O262 2.067 . S
Zn253 O254 1.962 . S
Zn253 O256 1.986 . S
Zn253 O258 1.996 . S
Zn253 O261 1.943 . S
O254 Zn253 1.962 . S
O254 C259 1.254 . S
O255 Zn252 2.031 . S
O255 C259 1.269 . S
O256 Zn253 1.986 . S
O256 C263 1.262 . S
O257 Zn252 2.049 . S
O257 C265 1.260 . S
O258 Zn253 1.996 . S
O258 C265 1.257 . S
C259 O254 1.254 . S
C259 O255 1.269 . S
C260 O261 1.249 . S
C260 O262 1.270 . S
O261 Zn253 1.943 . S
O261 C260 1.249 . S
O262 Zn252 2.067 . S
O262 C260 1.270 . S
C263 O256 1.262 . S
C263 O264 1.232 . S
O264 C263 1.232 . S
C265 O257 1.260 . S
C265 O258 1.257 . S
Zn266 O269 2.031 . S
Zn266 O271 2.049 . S
Zn266 O276 2.067 . S
Zn267 O268 1.962 . S
Zn267 O270 1.986 . S
Zn267 O272 1.996 . S
Zn267 O275 1.943 . S
O268 Zn267 1.962 . S
O268 C273 1.254 . S
O269 Zn266 2.031 . S
O269 C273 1.269 . S
O270 Zn267 1.986 . S
O270 C277 1.262 . S
O271 Zn266 2.049 . S
O271 C279 1.260 . S
O272 Zn267 1.996 . S
O272 C279 1.257 . S
C273 O268 1.254 . S
C273 O269 1.269 . S
C274 O275 1.249 . S
C274 O276 1.270 . S
O275 Zn267 1.943 . S
O275 C274 1.249 . S
O276 Zn266 2.067 . S
O276 C274 1.270 . S
C277 O270 1.262 . S
C277 O278 1.232 . S
O278 C277 1.232 . S
C279 O271 1.260 . S
C279 O272 1.257 . S
Zn280 O283 2.031 1_554 S
Zn280 O285 2.049 . S
Zn280 O290 2.067 . S
Zn281 O282 1.992 . S
Zn281 O284 1.986 . S
Zn281 O286 1.996 . S
Zn281 O289 1.943 . S
O282 Zn281 1.992 . S
O282 C287 1.241 1_554 S
O283 Zn280 2.031 1_556 S
O283 C287 1.269 . S
O284 Zn281 1.986 . S
O284 C291 1.262 . S
O285 Zn280 2.049 . S
O285 C293 1.260 . S
O286 Zn281 1.996 . S
O286 C293 1.257 . S
C287 O282 1.241 1_556 S
C287 O283 1.269 . S
C288 O289 1.249 . S
C288 O290 1.270 . S
O289 Zn281 1.943 . S
O289 C288 1.249 . S
O290 Zn280 2.067 . S
O290 C288 1.270 . S
C291 O284 1.262 . S
C291 O292 1.232 . S
O292 C291 1.232 . S
C293 O285 1.260 . S
C293 O286 1.257 . S
Zn294 O297 2.031 . S
Zn294 O299 2.049 . S
Zn294 O304 2.067 . S
Zn295 O296 1.962 . S
Zn295 O298 1.986 . S
Zn295 O300 1.996 . S
Zn295 O303 1.943 . S
O296 Zn295 1.962 . S
O296 C301 1.254 . S
O297 Zn294 2.031 . S
O297 C301 1.269 . S
O298 Zn295 1.986 . S
O298 C305 1.262 . S
O299 Zn294 2.049 . S
O299 C307 1.260 . S
O300 Zn295 1.996 . S
O300 C307 1.257 . S
C301 O296 1.254 . S
C301 O297 1.269 . S
C302 O303 1.249 . S
C302 O304 1.270 . S
O303 Zn295 1.943 . S
O303 C302 1.249 . S
O304 Zn294 2.067 . S
O304 C302 1.270 . S
C305 O298 1.262 . S
C305 O306 1.232 . S
O306 C305 1.232 . S
C307 O299 1.260 . S
C307 O300 1.257 . S
Zn308 O311 2.031 . S
Zn308 O313 2.049 . S
Zn308 O318 2.067 . S
Zn309 O310 1.962 . S
Zn309 O312 1.986 . S
Zn309 O314 1.996 . S
Zn309 O317 1.943 . S
O310 Zn309 1.962 . S
O310 C315 1.254 . S
O311 Zn308 2.031 . S
O311 C315 1.269 . S
O312 Zn309 1.986 . S
O312 C319 1.262 . S
O313 Zn308 2.049 . S
O313 C321 1.260 . S
O314 Zn309 1.996 . S
O314 C321 1.257 . S
C315 O310 1.254 . S
C315 O311 1.269 . S
C316 O317 1.249 . S
C316 O318 1.270 . S
O317 Zn309 1.943 . S
O317 C316 1.249 . S
O318 Zn308 2.067 . S
O318 C316 1.270 . S
C319 O312 1.262 . S
C319 O320 1.232 . S
O320 C319 1.232 . S
C321 O313 1.260 . S
C321 O314 1.257 . S
Zn322 O325 2.031 . S
Zn322 O327 2.049 . S
Zn322 O332 2.067 . S
Zn323 O324 1.962 . S
Zn323 O326 1.986 . S
Zn323 O328 1.996 . S
Zn323 O331 1.943 . S
O324 Zn323 1.962 . S
O324 C329 1.254 . S
O325 Zn322 2.031 . S
O325 C329 1.269 . S
O326 Zn323 1.986 . S
O326 C333 1.262 . S
O327 Zn322 2.049 . S
O327 C335 1.260 . S
O328 Zn323 1.996 . S
O328 C335 1.257 . S
C329 O324 1.254 . S
C329 O325 1.269 . S
C330 O331 1.249 . S
C330 O332 1.270 . S
O331 Zn323 1.943 . S
O331 C330 1.249 . S
O332 Zn322 2.067 . S
O332 C330 1.270 . S
C333 O326 1.262 . S
C333 O334 1.232 . S
O334 C333 1.232 . S
C335 O327 1.260 . S
C335 O328 1.257 . S
Dy336 O339 2.307 . S
Dy336 O341 2.395 . S
Dy336 O342 2.379 . S
Dy336 O344 2.339 . S
Dy336 O346 2.298 . S
Dy336 O350 2.275 . S
Dy336 C358 2.738 . S
Dy337 O340 2.294 1_655 S
Dy337 O343 2.265 1_655 S
Dy337 O345 2.302 1_655 S
Dy337 O347 2.417 . S
Dy337 O348 2.400 1_554 S
Dy337 O351 2.327 1_654 S
Dy337 C367 2.762 . S
C338 O350 1.254 1_556 S
C338 O351 1.257 . S
O339 Dy336 2.307 . S
O339 C349 1.266 . S
O340 Dy337 2.294 1_455 S
O340 C349 1.236 . S
O341 Dy336 2.395 . S
O341 C358 1.255 . S
O342 Dy336 2.379 . S
O342 C358 1.249 . S
O343 Dy337 2.265 1_455 S
O343 C359 1.254 . S
O344 Dy336 2.339 . S
O344 C359 1.257 . S
O345 Dy337 2.302 1_455 S
O345 C360 1.261 1_545 S
O346 Dy336 2.298 . S
O346 C360 1.236 1_545 S
O347 Dy337 2.417 . S
O347 C367 1.255 . S
O348 Dy337 2.400 1_556 S
O348 C367 1.249 1_556 S
C349 O339 1.266 . S
C349 O340 1.236 . S
O350 Dy336 2.275 . S
O350 C338 1.254 1_554 S
O351 Dy337 2.327 1_456 S
O351 C338 1.257 . S
C352 C355 1.344 . S
C352 C356 1.328 . S
C352 C358 1.516 . S
C353 C354 1.304 . S
C353 C357 1.323 . S
C354 C353 1.304 . S
C354 C355 1.371 . S
C354 H368 0.921 1_545 S
C355 C352 1.344 . S
C355 C354 1.371 . S
C355 H369 0.931 . S
C356 C352 1.328 . S
C356 C357 1.433 . S
C356 H370 0.931 . S
C357 C353 1.323 . S
C357 C356 1.433 . S
C357 H371 0.933 . S
C358 Dy336 2.738 . S
C358 O341 1.255 . S
C358 O342 1.249 . S
C358 C352 1.516 . S
C359 O343 1.254 . S
C359 O344 1.257 . S
C360 O345 1.261 1_565 S
C360 O346 1.236 1_565 S
C361 C364 1.344 . S
C361 C365 1.328 1_554 S
C361 C367 1.516 . S
C362 C363 1.304 . S
C362 C366 1.323 1_554 S
C363 C362 1.304 . S
C363 C364 1.371 . S
C363 H372 0.930 . S
C364 C361 1.344 . S
C364 C363 1.371 . S
C364 H373 0.931 . S
C365 C361 1.328 1_556 S
C365 C366 1.433 . S
C365 H374 0.931 . S
C366 C362 1.323 1_556 S
C366 C365 1.433 . S
C366 H375 0.933 . S
C367 Dy337 2.762 . S
C367 O347 1.255 . S
C367 O348 1.249 1_554 S
C367 C361 1.516 . S
H368 C354 0.921 1_565 S
H369 C355 0.931 . S
H370 C356 0.931 . S
H371 C357 0.933 . S
H372 C363 0.930 . S
H373 C364 0.931 . S
H374 C365 0.931 . S
H375 C366 0.933 . S
Dy376 O379 2.307 . S
Dy376 O381 2.395 . S
Dy376 O382 2.379 . S
Dy376 O384 2.339 . S
Dy376 O386 2.298 . S
Dy376 O390 2.275 . S
Dy376 C398 2.738 . S
Dy377 O380 2.298 . S
Dy377 O383 2.275 . S
Dy377 O385 2.307 . S
Dy377 O387 2.395 . S
Dy377 O388 2.379 . S
Dy377 O391 2.339 . S
Dy377 C407 2.738 . S
C378 O390 1.254 . S
C378 O391 1.257 . S
O379 Dy376 2.307 . S
O379 C389 1.266 . S
O380 Dy377 2.298 . S
O380 C389 1.236 . S
O381 Dy376 2.395 . S
O381 C398 1.255 . S
O382 Dy376 2.379 . S
O382 C398 1.249 . S
O383 Dy377 2.275 . S
O383 C399 1.254 . S
O384 Dy376 2.339 . S
O384 C399 1.257 . S
O385 Dy377 2.307 . S
O385 C400 1.266 . S
O386 Dy376 2.298 . S
O386 C400 1.236 . S
O387 Dy377 2.395 . S
O387 C407 1.255 . S
O388 Dy377 2.379 . S
O388 C407 1.249 . S
C389 O379 1.266 . S
C389 O380 1.236 . S
O390 Dy376 2.275 . S
O390 C378 1.254 . S
O391 Dy377 2.339 . S
O391 C378 1.257 . S
C392 C395 1.344 . S
C392 C396 1.328 . S
C392 C398 1.516 . S
C393 C394 1.304 . S
C393 C397 1.323 . S
C394 C393 1.304 . S
C394 C395 1.371 . S
C394 H408 0.930 . S
C395 C392 1.344 . S
C395 C394 1.371 . S
C395 H409 0.931 . S
C396 C392 1.328 . S
C396 C397 1.433 . S
C396 H410 0.931 . S
C397 C393 1.323 . S
C397 C396 1.433 . S
C397 H411 0.933 . S
C398 Dy376 2.738 . S
C398 O381 1.255 . S
C398 O382 1.249 . S
C398 C392 1.516 . S
C399 O383 1.254 . S
C399 O384 1.257 . S
C400 O385 1.266 . S
C400 O386 1.236 . S
C401 C404 1.344 . S
C401 C405 1.328 . S
C401 C407 1.516 . S
C402 C403 1.304 . S
C402 C406 1.323 . S
C403 C402 1.304 . S
C403 C404 1.371 . S
C403 H412 0.930 . S
C404 C401 1.344 . S
C404 C403 1.371 . S
C404 H413 0.931 . S
C405 C401 1.328 . S
C405 C406 1.433 . S
C405 H414 0.931 . S
C406 C402 1.323 . S
C406 C405 1.433 . S
C406 H415 0.933 . S
C407 Dy377 2.738 . S
C407 O387 1.255 . S
C407 O388 1.249 . S
C407 C401 1.516 . S
H408 C394 0.930 . S
H409 C395 0.931 . S
H410 C396 0.931 . S
H411 C397 0.933 . S
H412 C403 0.930 . S
H413 C404 0.931 . S
H414 C405 0.931 . S
H415 C406 0.933 . S
Dy416 O419 2.307 1_545 S
Dy416 O421 2.395 . S
Dy416 O422 2.379 . S
Dy416 O424 2.339 . S
Dy416 O426 2.298 . S
Dy416 O430 2.275 . S
Dy416 C438 2.738 . S
Dy417 O420 2.328 . S
Dy417 O423 2.275 . S
Dy417 O425 2.307 . S
Dy417 O427 2.395 . S
Dy417 O428 2.379 . S
Dy417 O431 2.339 . S
Dy417 C447 2.738 . S
C418 O430 1.254 . S
C418 O431 1.257 . S
O419 Dy416 2.307 1_565 S
O419 C429 1.266 . S
O420 Dy417 2.328 . S
O420 C429 1.223 1_545 S
O421 Dy416 2.395 . S
O421 C438 1.255 . S
O422 Dy416 2.379 . S
O422 C438 1.249 . S
O423 Dy417 2.275 . S
O423 C439 1.254 . S
O424 Dy416 2.339 . S
O424 C439 1.257 . S
O425 Dy417 2.307 . S
O425 C440 1.266 . S
O426 Dy416 2.298 . S
O426 C440 1.236 . S
O427 Dy417 2.395 . S
O427 C447 1.255 . S
O428 Dy417 2.379 . S
O428 C447 1.249 . S
C429 O419 1.266 . S
C429 O420 1.223 1_565 S
O430 Dy416 2.275 . S
O430 C418 1.254 . S
O431 Dy417 2.339 . S
O431 C418 1.257 . S
C432 C435 1.344 . S
C432 C436 1.328 . S
C432 C438 1.516 . S
C433 C434 1.304 . S
C433 C437 1.323 . S
C434 C433 1.304 . S
C434 C435 1.371 . S
C434 H448 0.930 . S
C435 C432 1.344 . S
C435 C434 1.371 . S
C435 H449 0.931 . S
C436 C432 1.328 . S
C436 C437 1.433 . S
C436 H450 0.931 . S
C437 C433 1.323 . S
C437 C436 1.433 . S
C437 H451 0.933 . S
C438 Dy416 2.738 . S
C438 O421 1.255 . S
C438 O422 1.249 . S
C438 C432 1.516 . S
C439 O423 1.254 . S
C439 O424 1.257 . S
C440 O425 1.266 . S
C440 O426 1.236 . S
C441 C444 1.344 1_545 S
C441 C445 1.330 . S
C441 C447 1.516 . S
C442 C443 1.304 . S
C442 C446 1.323 . S
C443 C442 1.304 . S
C443 C444 1.371 . S
C443 H452 0.930 . S
C444 C441 1.344 1_565 S
C444 C443 1.371 . S
C444 H453 0.931 . S
C445 C441 1.330 . S
C445 C446 1.416 1_545 S
C445 H454 0.946 . S
C446 C442 1.323 . S
C446 C445 1.416 1_565 S
C446 H455 0.933 . S
C447 Dy417 2.738 . S
C447 O427 1.255 . S
C447 O428 1.249 . S
C447 C441 1.516 . S
H448 C434 0.930 . S
H449 C435 0.931 . S
H450 C436 0.931 . S
H451 C437 0.933 . S
H452 C443 0.930 . S
H453 C444 0.931 . S
H454 C445 0.946 . S
H455 C446 0.933 . S
Dy456 O459 2.307 . S
Dy456 O461 2.395 . S
Dy456 O462 2.379 . S
Dy456 O464 2.339 . S
Dy456 O466 2.298 . S
Dy456 O470 2.275 . S
Dy456 C478 2.738 . S
Dy457 O460 2.298 . S
Dy457 O463 2.275 . S
Dy457 O465 2.307 . S
Dy457 O467 2.395 . S
Dy457 O468 2.379 . S
Dy457 O471 2.339 . S
Dy457 C487 2.738 . S
C458 O470 1.254 . S
C458 O471 1.257 . S
O459 Dy456 2.307 . S
O459 C469 1.266 . S
O460 Dy457 2.298 . S
O460 C469 1.236 . S
O461 Dy456 2.395 . S
O461 C478 1.255 . S
O462 Dy456 2.379 . S
O462 C478 1.249 . S
O463 Dy457 2.275 . S
O463 C479 1.254 . S
O464 Dy456 2.339 . S
O464 C479 1.257 . S
O465 Dy457 2.307 . S
O465 C480 1.266 . S
O466 Dy456 2.298 . S
O466 C480 1.236 . S
O467 Dy457 2.395 . S
O467 C487 1.255 . S
O468 Dy457 2.379 . S
O468 C487 1.249 . S
C469 O459 1.266 . S
C469 O460 1.236 . S
O470 Dy456 2.275 . S
O470 C458 1.254 . S
O471 Dy457 2.339 . S
O471 C458 1.257 . S
C472 C475 1.344 . S
C472 C476 1.328 . S
C472 C478 1.516 . S
C473 C474 1.304 . S
C473 C477 1.323 . S
C474 C473 1.304 . S
C474 C475 1.371 . S
C474 H488 0.930 . S
C475 C472 1.344 . S
C475 C474 1.371 . S
C475 H489 0.931 . S
C476 C472 1.328 . S
C476 C477 1.433 . S
C476 H490 0.931 . S
C477 C473 1.323 . S
C477 C476 1.433 . S
C477 H491 0.933 . S
C478 Dy456 2.738 . S
C478 O461 1.255 . S
C478 O462 1.249 . S
C478 C472 1.516 . S
C479 O463 1.254 . S
C479 O464 1.257 . S
C480 O465 1.266 . S
C480 O466 1.236 . S
C481 C484 1.344 . S
C481 C485 1.328 . S
C481 C487 1.516 . S
C482 C483 1.304 . S
C482 C486 1.323 . S
C483 C482 1.304 . S
C483 C484 1.371 . S
C483 H492 0.930 . S
C484 C481 1.344 . S
C484 C483 1.371 . S
C484 H493 0.931 . S
C485 C481 1.328 . S
C485 C486 1.433 . S
C485 H494 0.931 . S
C486 C482 1.323 . S
C486 C485 1.433 . S
C486 H495 0.933 . S
C487 Dy457 2.738 . S
C487 O467 1.255 . S
C487 O468 1.249 . S
C487 C481 1.516 . S
H488 C474 0.930 . S
H489 C475 0.931 . S
H490 C476 0.931 . S
H491 C477 0.933 . S
H492 C483 0.930 . S
H493 C484 0.931 . S
H494 C485 0.931 . S
H495 C486 0.933 . S
Dy496 O499 2.307 . S
Dy496 O501 2.395 1_545 S
Dy496 O502 2.379 1_545 S
Dy496 O504 2.339 . S
Dy496 O506 2.298 . S
Dy496 O510 2.275 . S
Dy496 C518 2.738 1_545 S
Dy497 O500 2.298 . S
Dy497 O503 2.275 . S
Dy497 O505 2.307 . S
Dy497 O507 2.395 . S
Dy497 O508 2.389 . S
Dy497 O511 2.339 1_455 S
Dy497 C527 2.738 . S
C498 O510 1.254 1_655 S
C498 O511 1.257 . S
O499 Dy496 2.307 . S
O499 C509 1.266 . S
O500 Dy497 2.298 . S
O500 C509 1.236 . S
O501 Dy496 2.395 1_565 S
O501 C518 1.255 . S
O502 Dy496 2.379 1_565 S
O502 C518 1.249 . S
O503 Dy497 2.275 . S
O503 C519 1.254 . S
O504 Dy496 2.339 . S
O504 C519 1.257 . S
O505 Dy497 2.307 . S
O505 C520 1.266 . S
O506 Dy496 2.298 . S
O506 C520 1.236 . S
O507 Dy497 2.395 . S
O507 C527 1.255 . S
O508 Dy497 2.389 . S
O508 C527 1.259 . S
C509 O499 1.266 . S
C509 O500 1.236 . S
O510 Dy496 2.275 . S
O510 C498 1.254 1_455 S
O511 Dy497 2.339 1_655 S
O511 C498 1.257 . S
C512 C515 1.344 . S
C512 C516 1.328 . S
C512 C518 1.516 . S
C513 C514 1.304 . S
C513 C517 1.323 . S
C514 C513 1.304 . S
C514 C515 1.371 . S
C514 H528 0.930 . S
C515 C512 1.344 . S
C515 C514 1.371 . S
C515 H529 0.931 . S
C516 C512 1.328 . S
C516 C517 1.433 . S
C516 H530 0.931 . S
C517 C513 1.323 . S
C517 C516 1.433 . S
C517 H531 0.933 . S
C518 Dy496 2.738 1_565 S
C518 O501 1.255 . S
C518 O502 1.249 . S
C518 C512 1.516 . S
C519 O503 1.254 . S
C519 O504 1.257 . S
C520 O505 1.266 . S
C520 O506 1.236 . S
C521 C524 1.344 . S
C521 C525 1.328 1_455 S
C521 C527 1.516 . S
C522 C523 1.304 . S
C522 C526 1.323 1_455 S
C523 C522 1.304 . S
C523 C524 1.371 . S
C523 H532 0.930 . S
C524 C521 1.344 . S
C524 C523 1.371 . S
C524 H533 0.931 . S
C525 C521 1.328 1_655 S
C525 C526 1.433 . S
C525 H534 0.931 . S
C526 C522 1.323 1_655 S
C526 C525 1.433 . S
C526 H535 0.933 . S
C527 Dy497 2.738 . S
C527 O507 1.255 . S
C527 O508 1.259 . S
C527 C521 1.516 . S
H528 C514 0.930 . S
H529 C515 0.931 . S
H530 C516 0.931 . S
H531 C517 0.933 . S
H532 C523 0.930 . S
H533 C524 0.931 . S
H534 C525 0.931 . S
H535 C526 0.933 . S
Dy536 O539 2.307 . S
Dy536 O541 2.395 . S
Dy536 O542 2.379 . S
Dy536 O544 2.339 . S
Dy536 O546 2.298 . S
Dy536 O550 2.275 . S
Dy536 C558 2.738 . S
Dy537 O540 2.298 . S
Dy537 O543 2.275 . S
Dy537 O545 2.307 . S
Dy537 O547 2.395 . S
Dy537 O548 2.379 . S
Dy537 O551 2.339 . S
Dy537 C567 2.738 . S
C538 O550 1.254 . S
C538 O551 1.257 . S
O539 Dy536 2.307 . S
O539 C549 1.266 . S
O540 Dy537 2.298 . S
O540 C549 1.236 . S
O541 Dy536 2.395 . S
O541 C558 1.255 . S
O542 Dy536 2.379 . S
O542 C558 1.249 . S
O543 Dy537 2.275 . S
O543 C559 1.254 . S
O544 Dy536 2.339 . S
O544 C559 1.257 . S
O545 Dy537 2.307 . S
O545 C560 1.266 . S
O546 Dy536 2.298 . S
O546 C560 1.236 . S
O547 Dy537 2.395 . S
O547 C567 1.255 . S
O548 Dy537 2.379 . S
O548 C567 1.249 . S
C549 O539 1.266 . S
C549 O540 1.236 . S
O550 Dy536 2.275 . S
O550 C538 1.254 . S
O551 Dy537 2.339 . S
O551 C538 1.257 . S
C552 C555 1.344 . S
C552 C556 1.328 . S
C552 C558 1.516 . S
C553 C554 1.304 . S
C553 C557 1.323 . S
C554 C553 1.304 . S
C554 C555 1.371 . S
C554 H568 0.930 . S
C555 C552 1.344 . S
C555 C554 1.371 . S
C555 H569 0.931 . S
C556 C552 1.328 . S
C556 C557 1.433 . S
C556 H570 0.931 . S
C557 C553 1.323 . S
C557 C556 1.433 . S
C557 H571 0.933 . S
C558 Dy536 2.738 . S
C558 O541 1.255 . S
C558 O542 1.249 . S
C558 C552 1.516 . S
C559 O543 1.254 . S
C559 O544 1.257 . S
C560 O545 1.266 . S
C560 O546 1.236 . S
C561 C564 1.344 . S
C561 C565 1.328 . S
C561 C567 1.516 . S
C562 C563 1.304 . S
C562 C566 1.323 . S
C563 C562 1.304 . S
C563 C564 1.371 . S
C563 H572 0.930 . S
C564 C561 1.344 . S
C564 C563 1.371 . S
C564 H573 0.931 . S
C565 C561 1.328 . S
C565 C566 1.433 . S
C565 H574 0.931 . S
C566 C562 1.323 . S
C566 C565 1.433 . S
C566 H575 0.933 . S
C567 Dy537 2.738 . S
C567 O547 1.255 . S
C567 O548 1.249 . S
C567 C561 1.516 . S
H568 C554 0.930 . S
H569 C555 0.931 . S
H570 C556 0.931 . S
H571 C557 0.933 . S
H572 C563 0.930 . S
H573 C564 0.931 . S
H574 C565 0.931 . S
H575 C566 0.933 . S
Dy576 O579 2.307 1_556 S
Dy576 O581 2.395 . S
Dy576 O582 2.379 . S
Dy576 O584 2.339 1_556 S
Dy576 O586 2.298 1_556 S
Dy576 O590 2.275 1_556 S
Dy576 C598 2.738 . S
Dy577 O580 2.298 . S
Dy577 O583 2.275 . S
Dy577 O585 2.307 . S
Dy577 O587 2.395 . S
Dy577 O588 2.379 . S
Dy577 O591 2.373 . S
Dy577 C607 2.738 . S
C578 O590 1.254 . S
C578 O591 1.273 . S
O579 Dy576 2.307 1_554 S
O579 C589 1.266 . S
O580 Dy577 2.298 . S
O580 C589 1.236 . S
O581 Dy576 2.395 . S
O581 C598 1.255 . S
O582 Dy576 2.379 . S
O582 C598 1.249 . S
O583 Dy577 2.275 . S
O583 C599 1.254 . S
O584 Dy576 2.339 1_554 S
O584 C599 1.257 . S
O585 Dy577 2.307 . S
O585 C600 1.266 . S
O586 Dy576 2.298 1_554 S
O586 C600 1.236 . S
O587 Dy577 2.395 . S
O587 C607 1.255 . S
O588 Dy577 2.379 . S
O588 C607 1.249 . S
C589 O579 1.266 . S
C589 O580 1.236 . S
O590 Dy576 2.275 1_554 S
O590 C578 1.254 . S
O591 Dy577 2.373 . S
O591 C578 1.273 . S
C592 C595 1.344 . S
C592 C596 1.328 . S
C592 C598 1.516 . S
C593 C594 1.304 . S
C593 C597 1.323 . S
C594 C593 1.304 . S
C594 C595 1.371 . S
C594 H608 0.930 . S
C595 C592 1.344 . S
C595 C594 1.371 . S
C595 H609 0.931 . S
C596 C592 1.328 . S
C596 C597 1.433 . S
C596 H610 0.931 . S
C597 C593 1.323 . S
C597 C596 1.433 . S
C597 H611 0.933 . S
C598 Dy576 2.738 . S
C598 O581 1.255 . S
C598 O582 1.249 . S
C598 C592 1.516 . S
C599 O583 1.254 . S
C599 O584 1.257 . S
C600 O585 1.266 . S
C600 O586 1.236 . S
C601 C604 1.344 . S
C601 C605 1.328 1_545 S
C601 C607 1.516 . S
C602 C603 1.304 1_565 S
C602 C606 1.323 . S
C603 C602 1.304 1_545 S
C603 C604 1.371 . S
C603 H612 0.930 . S
C604 C601 1.344 . S
C604 C603 1.371 . S
C604 H613 0.931 . S
C605 C601 1.328 1_565 S
C605 C606 1.433 . S
C605 H614 0.931 . S
C606 C602 1.323 . S
C606 C605 1.433 . S
C606 H615 0.933 . S
C607 Dy577 2.738 . S
C607 O587 1.255 . S
C607 O588 1.249 . S
C607 C601 1.516 . S
H608 C594 0.930 . S
H609 C595 0.931 . S
H610 C596 0.931 . S
H611 C597 0.933 . S
H612 C603 0.930 . S
H613 C604 0.931 . S
H614 C605 0.931 . S
H615 C606 0.933 . S
Dy616 O619 2.307 . S
Dy616 O621 2.395 . S
Dy616 O622 2.379 . S
Dy616 O624 2.339 . S
Dy616 O626 2.298 . S
Dy616 O630 2.275 . S
Dy616 C638 2.738 . S
Dy617 O620 2.298 . S
Dy617 O623 2.275 . S
Dy617 O625 2.307 . S
Dy617 O627 2.395 . S
Dy617 O628 2.379 . S
Dy617 O631 2.339 . S
Dy617 C647 2.738 . S
C618 O630 1.254 . S
C618 O631 1.257 . S
O619 Dy616 2.307 . S
O619 C629 1.266 . S
O620 Dy617 2.298 . S
O620 C629 1.236 . S
O621 Dy616 2.395 . S
O621 C638 1.255 . S
O622 Dy616 2.379 . S
O622 C638 1.249 . S
O623 Dy617 2.275 . S
O623 C639 1.254 . S
O624 Dy616 2.339 . S
O624 C639 1.257 . S
O625 Dy617 2.307 . S
O625 C640 1.266 . S
O626 Dy616 2.298 . S
O626 C640 1.236 . S
O627 Dy617 2.395 . S
O627 C647 1.255 . S
O628 Dy617 2.379 . S
O628 C647 1.249 . S
C629 O619 1.266 . S
C629 O620 1.236 . S
O630 Dy616 2.275 . S
O630 C618 1.254 . S
O631 Dy617 2.339 . S
O631 C618 1.257 . S
C632 C635 1.344 . S
C632 C636 1.328 . S
C632 C638 1.516 . S
C633 C634 1.304 . S
C633 C637 1.323 . S
C634 C633 1.304 . S
C634 C635 1.371 . S
C634 H648 0.930 . S
C635 C632 1.344 . S
C635 C634 1.371 . S
C635 H649 0.931 . S
C636 C632 1.328 . S
C636 C637 1.433 . S
C636 H650 0.931 . S
C637 C633 1.323 . S
C637 C636 1.433 . S
C637 H651 0.933 . S
C638 Dy616 2.738 . S
C638 O621 1.255 . S
C638 O622 1.249 . S
C638 C632 1.516 . S
C639 O623 1.254 . S
C639 O624 1.257 . S
C640 O625 1.266 . S
C640 O626 1.236 . S
C641 C644 1.344 . S
C641 C645 1.328 . S
C641 C647 1.516 . S
C642 C643 1.304 . S
C642 C646 1.323 . S
C643 C642 1.304 . S
C643 C644 1.371 . S
C643 H652 0.930 . S
C644 C641 1.344 . S
C644 C643 1.371 . S
C644 H653 0.931 . S
C645 C641 1.328 . S
C645 C646 1.433 . S
C645 H654 0.931 . S
C646 C642 1.323 . S
C646 C645 1.433 . S
C646 H655 0.933 . S
C647 Dy617 2.738 . S
C647 O627 1.255 . S
C647 O628 1.249 . S
C647 C641 1.516 . S
H648 C634 0.930 . S
H649 C635 0.931 . S
H650 C636 0.931 . S
H651 C637 0.933 . S
H652 C643 0.930 . S
H653 C644 0.931 . S
H654 C645 0.931 . S
H655 C646 0.933 . S
Dy656 O659 2.307 1_554 S
Dy656 O661 2.395 . S
Dy656 O662 2.379 . S
Dy656 O664 2.339 . S
Dy656 O666 2.298 . S
Dy656 O670 2.275 . S
Dy656 C678 2.738 . S
Dy657 O660 2.298 1_554 S
Dy657 O663 2.275 . S
Dy657 O665 2.307 . S
Dy657 O667 2.395 . S
Dy657 O668 2.379 . S
Dy657 O671 2.339 . S
Dy657 C687 2.738 . S
C658 O670 1.254 . S
C658 O671 1.257 . S
O659 Dy656 2.307 1_556 S
O659 C669 1.266 . S
O660 Dy657 2.298 1_556 S
O660 C669 1.236 . S
O661 Dy656 2.395 . S
O661 C678 1.255 . S
O662 Dy656 2.379 . S
O662 C678 1.249 . S
O663 Dy657 2.275 . S
O663 C679 1.254 . S
O664 Dy656 2.339 . S
O664 C679 1.257 . S
O665 Dy657 2.307 . S
O665 C680 1.266 . S
O666 Dy656 2.298 . S
O666 C680 1.236 . S
O667 Dy657 2.395 . S
O667 C687 1.255 . S
O668 Dy657 2.379 . S
O668 C687 1.249 . S
C669 O659 1.266 . S
C669 O660 1.236 . S
O670 Dy656 2.275 . S
O670 C658 1.254 . S
O671 Dy657 2.339 . S
O671 C658 1.257 . S
C672 C675 1.344 . S
C672 C676 1.328 . S
C672 C678 1.516 . S
C673 C674 1.304 . S
C673 C677 1.323 . S
C674 C673 1.304 . S
C674 C675 1.371 . S
C674 H688 0.930 . S
C675 C672 1.344 . S
C675 C674 1.371 . S
C675 H689 0.931 . S
C676 C672 1.328 . S
C676 C677 1.433 . S
C676 H690 0.931 . S
C677 C673 1.323 . S
C677 C676 1.433 . S
C677 H691 0.933 . S
C678 Dy656 2.738 . S
C678 O661 1.255 . S
C678 O662 1.249 . S
C678 C672 1.516 . S
C679 O663 1.254 . S
C679 O664 1.257 . S
C680 O665 1.266 . S
C680 O666 1.236 . S
C681 C684 1.344 . S
C681 C685 1.328 . S
C681 C687 1.516 1_556 S
C682 C683 1.304 . S
C682 C686 1.323 . S
C683 C682 1.304 . S
C683 C684 1.371 . S
C683 H692 0.930 . S
C684 C681 1.344 . S
C684 C683 1.371 . S
C684 H693 0.931 . S
C685 C681 1.328 . S
C685 C686 1.433 . S
C685 H694 0.910 1_556 S
C686 C682 1.323 . S
C686 C685 1.433 . S
C686 H695 0.933 . S
C687 Dy657 2.738 . S
C687 O667 1.255 . S
C687 O668 1.249 . S
C687 C681 1.516 1_554 S
H688 C674 0.930 . S
H689 C675 0.931 . S
H690 C676 0.931 . S
H691 C677 0.933 . S
H692 C683 0.930 . S
H693 C684 0.931 . S
H694 C685 0.910 1_554 S
H695 C686 0.933 . S
Dy696 O699 2.307 . S
Dy696 O701 2.395 . S
Dy696 O702 2.379 . S
Dy696 O704 2.339 . S
Dy696 O706 2.298 . S
Dy696 O710 2.275 . S
Dy696 C718 2.738 . S
Dy697 O700 2.298 . S
Dy697 O703 2.275 . S
Dy697 O705 2.307 . S
Dy697 O707 2.395 . S
Dy697 O708 2.379 . S
Dy697 O711 2.339 . S
Dy697 C727 2.738 . S
C698 O710 1.254 . S
C698 O711 1.257 . S
O699 Dy696 2.307 . S
O699 C709 1.266 . S
O700 Dy697 2.298 . S
O700 C709 1.236 . S
O701 Dy696 2.395 . S
O701 C718 1.255 . S
O702 Dy696 2.379 . S
O702 C718 1.249 . S
O703 Dy697 2.275 . S
O703 C719 1.254 . S
O704 Dy696 2.339 . S
O704 C719 1.257 . S
O705 Dy697 2.307 . S
O705 C720 1.266 . S
O706 Dy696 2.298 . S
O706 C720 1.236 . S
O707 Dy697 2.395 . S
O707 C727 1.255 . S
O708 Dy697 2.379 . S
O708 C727 1.249 . S
C709 O699 1.266 . S
C709 O700 1.236 . S
O710 Dy696 2.275 . S
O710 C698 1.254 . S
O711 Dy697 2.339 . S
O711 C698 1.257 . S
C712 C715 1.344 . S
C712 C716 1.328 . S
C712 C718 1.516 . S
C713 C714 1.304 . S
C713 C717 1.323 . S
C714 C713 1.304 . S
C714 C715 1.371 . S
C714 H728 0.930 . S
C715 C712 1.344 . S
C715 C714 1.371 . S
C715 H729 0.931 . S
C716 C712 1.328 . S
C716 C717 1.433 . S
C716 H730 0.931 . S
C717 C713 1.323 . S
C717 C716 1.433 . S
C717 H731 0.933 . S
C718 Dy696 2.738 . S
C718 O701 1.255 . S
C718 O702 1.249 . S
C718 C712 1.516 . S
C719 O703 1.254 . S
C719 O704 1.257 . S
C720 O705 1.266 . S
C720 O706 1.236 . S
C721 C724 1.344 . S
C721 C725 1.328 . S
C721 C727 1.516 . S
C722 C723 1.304 . S
C722 C726 1.323 . S
C723 C722 1.304 . S
C723 C724 1.371 . S
C723 H732 0.930 . S
C724 C721 1.344 . S
C724 C723 1.371 . S
C724 H733 0.931 . S
C725 C721 1.328 . S
C725 C726 1.433 . S
C725 H734 0.931 . S
C726 C722 1.323 . S
C726 C725 1.433 . S
C726 H735 0.933 . S
C727 Dy697 2.738 . S
C727 O707 1.255 . S
C727 O708 1.249 . S
C727 C721 1.516 . S
H728 C714 0.930 . S
H729 C715 0.931 . S
H730 C716 0.931 . S
H731 C717 0.933 . S
H732 C723 0.930 . S
H733 C724 0.931 . S
H734 C725 0.931 . S
H735 C726 0.933 . S
Dy736 O739 2.307 1_455 S
Dy736 O741 2.395 . S
Dy736 O742 2.379 . S
Dy736 O744 2.339 . S
Dy736 O746 2.298 . S
Dy736 O750 2.275 . S
Dy736 C758 2.738 . S
Dy737 O740 2.298 1_455 S
Dy737 O743 2.275 . S
Dy737 O745 2.307 . S
Dy737 O747 2.395 . S
Dy737 O748 2.379 . S
Dy737 O751 2.339 . S
Dy737 C767 2.738 . S
C738 O750 1.254 . S
C738 O751 1.257 . S
O739 Dy736 2.307 1_655 S
O739 C749 1.266 . S
O740 Dy737 2.298 1_655 S
O740 C749 1.236 . S
O741 Dy736 2.395 . S
O741 C758 1.255 . S
O742 Dy736 2.379 . S
O742 C758 1.249 . S
O743 Dy737 2.275 . S
O743 C759 1.254 . S
O744 Dy736 2.339 . S
O744 C759 1.257 . S
O745 Dy737 2.307 . S
O745 C760 1.266 . S
O746 Dy736 2.298 . S
O746 C760 1.236 . S
O747 Dy737 2.395 . S
O747 C767 1.255 . S
O748 Dy737 2.379 . S
O748 C767 1.249 . S
C749 O739 1.266 . S
C749 O740 1.236 . S
O750 Dy736 2.275 . S
O750 C738 1.254 . S
O751 Dy737 2.339 . S
O751 C738 1.257 . S
C752 C755 1.344 . S
C752 C756 1.328 . S
C752 C758 1.516 . S
C753 C754 1.304 . S
C753 C757 1.323 . S
C754 C753 1.304 . S
C754 C755 1.371 . S
C754 H768 0.930 . S
C755 C752 1.344 . S
C755 C754 1.371 . S
C755 H769 0.931 . S
C756 C752 1.328 . S
C756 C757 1.433 . S
C756 H770 0.931 . S
C757 C753 1.323 . S
C757 C756 1.433 . S
C757 H771 0.933 . S
C758 Dy736 2.738 . S
C758 O741 1.255 . S
C758 O742 1.249 . S
C758 C752 1.516 . S
C759 O743 1.254 . S
C759 O744 1.257 . S
C760 O745 1.266 . S
C760 O746 1.236 . S
C761 C764 1.344 . S
C761 C765 1.328 . S
C761 C767 1.516 1_655 S
C762 C763 1.304 . S
C762 C766 1.323 . S
C763 C762 1.304 . S
C763 C764 1.371 . S
C763 H772 0.930 . S
C764 C761 1.344 . S
C764 C763 1.371 . S
C764 H773 0.931 . S
C765 C761 1.328 . S
C765 C766 1.433 . S
C765 H774 0.931 . S
C766 C762 1.323 . S
C766 C765 1.433 . S
C766 H775 0.933 . S
C767 Dy737 2.738 . S
C767 O747 1.255 . S
C767 O748 1.249 . S
C767 C761 1.516 1_455 S
H768 C754 0.930 . S
H769 C755 0.931 . S
H770 C756 0.931 . S
H771 C757 0.933 . S
H772 C763 0.930 . S
H773 C764 0.931 . S
H774 C765 0.931 . S
H775 C766 0.933 . S
Dy776 O779 2.307 . S
Dy776 O781 2.395 . S
Dy776 O782 2.379 . S
Dy776 O784 2.339 . S
Dy776 O786 2.298 . S
Dy776 O790 2.275 . S
Dy776 C798 2.738 . S
Dy777 O780 2.298 . S
Dy777 O783 2.275 . S
Dy777 O785 2.307 . S
Dy777 O787 2.395 . S
Dy777 O788 2.379 . S
Dy777 O791 2.339 . S
Dy777 C807 2.738 . S
C778 O790 1.254 . S
C778 O791 1.257 . S
O779 Dy776 2.307 . S
O779 C789 1.266 . S
O780 Dy777 2.298 . S
O780 C789 1.236 . S
O781 Dy776 2.395 . S
O781 C798 1.255 . S
O782 Dy776 2.379 . S
O782 C798 1.249 . S
O783 Dy777 2.275 . S
O783 C799 1.254 . S
O784 Dy776 2.339 . S
O784 C799 1.257 . S
O785 Dy777 2.307 . S
O785 C800 1.266 . S
O786 Dy776 2.298 . S
O786 C800 1.236 . S
O787 Dy777 2.395 . S
O787 C807 1.255 . S
O788 Dy777 2.379 . S
O788 C807 1.249 . S
C789 O779 1.266 . S
C789 O780 1.236 . S
O790 Dy776 2.275 . S
O790 C778 1.254 . S
O791 Dy777 2.339 . S
O791 C778 1.257 . S
C792 C795 1.344 . S
C792 C796 1.328 . S
C792 C798 1.516 . S
C793 C794 1.304 . S
C793 C797 1.323 . S
C794 C793 1.304 . S
C794 C795 1.371 . S
C794 H808 0.930 . S
C795 C792 1.344 . S
C795 C794 1.371 . S
C795 H809 0.931 . S
C796 C792 1.328 . S
C796 C797 1.433 . S
C796 H810 0.931 . S
C797 C793 1.323 . S
C797 C796 1.433 . S
C797 H811 0.933 . S
C798 Dy776 2.738 . S
C798 O781 1.255 . S
C798 O782 1.249 . S
C798 C792 1.516 . S
C799 O783 1.254 . S
C799 O784 1.257 . S
C800 O785 1.266 . S
C800 O786 1.236 . S
C801 C804 1.344 . S
C801 C805 1.328 . S
C801 C807 1.516 . S
C802 C803 1.304 . S
C802 C806 1.323 . S
C803 C802 1.304 . S
C803 C804 1.371 . S
C803 H812 0.930 . S
C804 C801 1.344 . S
C804 C803 1.371 . S
C804 H813 0.931 . S
C805 C801 1.328 . S
C805 C806 1.433 . S
C805 H814 0.931 . S
C806 C802 1.323 . S
C806 C805 1.433 . S
C806 H815 0.933 . S
C807 Dy777 2.738 . S
C807 O787 1.255 . S
C807 O788 1.249 . S
C807 C801 1.516 . S
H808 C794 0.930 . S
H809 C795 0.931 . S
H810 C796 0.931 . S
H811 C797 0.933 . S
H812 C803 0.930 . S
H813 C804 0.931 . S
H814 C805 0.931 . S
H815 C806 0.933 . S
Dy816 O819 2.307 . S
Dy816 O821 2.395 . S
Dy816 O822 2.379 . S
Dy816 O824 2.339 . S
Dy816 O826 2.298 . S
Dy816 O830 2.275 . S
Dy816 C838 2.738 . S
Dy817 O820 2.298 . S
Dy817 O823 2.275 . S
Dy817 O825 2.307 . S
Dy817 O827 2.395 . S
Dy817 O828 2.379 . S
Dy817 O831 2.339 . S
Dy817 C847 2.738 . S
C818 O830 1.254 . S
C818 O831 1.257 . S
O819 Dy816 2.307 . S
O819 C829 1.266 . S
O820 Dy817 2.298 . S
O820 C829 1.236 . S
O821 Dy816 2.395 . S
O821 C838 1.255 . S
O822 Dy816 2.379 . S
O822 C838 1.249 . S
O823 Dy817 2.275 . S
O823 C839 1.254 . S
O824 Dy816 2.339 . S
O824 C839 1.257 . S
O825 Dy817 2.307 . S
O825 C840 1.266 . S
O826 Dy816 2.298 . S
O826 C840 1.236 . S
O827 Dy817 2.395 . S
O827 C847 1.255 . S
O828 Dy817 2.379 . S
O828 C847 1.249 . S
C829 O819 1.266 . S
C829 O820 1.236 . S
O830 Dy816 2.275 . S
O830 C818 1.254 . S
O831 Dy817 2.339 . S
O831 C818 1.257 . S
C832 C835 1.344 . S
C832 C836 1.328 . S
C832 C838 1.516 . S
C833 C834 1.304 . S
C833 C837 1.323 . S
C834 C833 1.304 . S
C834 C835 1.371 . S
C834 H848 0.930 . S
C835 C832 1.344 . S
C835 C834 1.371 . S
C835 H849 0.931 . S
C836 C832 1.328 . S
C836 C837 1.433 . S
C836 H850 0.931 . S
C837 C833 1.323 . S
C837 C836 1.433 . S
C837 H851 0.933 . S
C838 Dy816 2.738 . S
C838 O821 1.255 . S
C838 O822 1.249 . S
C838 C832 1.516 . S
C839 O823 1.254 . S
C839 O824 1.257 . S
C840 O825 1.266 . S
C840 O826 1.236 . S
C841 C844 1.344 . S
C841 C845 1.328 . S
C841 C847 1.516 . S
C842 C843 1.304 . S
C842 C846 1.323 . S
C843 C842 1.304 . S
C843 C844 1.371 . S
C843 H852 0.930 . S
C844 C841 1.344 . S
C844 C843 1.371 . S
C844 H853 0.931 . S
C845 C841 1.328 . S
C845 C846 1.433 . S
C845 H854 0.931 . S
C846 C842 1.323 . S
C846 C845 1.433 . S
C846 H855 0.933 . S
C847 Dy817 2.738 . S
C847 O827 1.255 . S
C847 O828 1.249 . S
C847 C841 1.516 . S
H848 C834 0.930 . S
H849 C835 0.931 . S
H850 C836 0.931 . S
H851 C837 0.933 . S
H852 C843 0.930 . S
H853 C844 0.931 . S
H854 C845 0.931 . S
H855 C846 0.933 . S
Dy856 O859 2.307 . S
Dy856 O861 2.395 . S
Dy856 O862 2.379 . S
Dy856 O864 2.339 . S
Dy856 O866 2.298 . S
Dy856 O870 2.275 . S
Dy856 C878 2.738 . S
Dy857 O860 2.298 . S
Dy857 O863 2.275 . S
Dy857 O865 2.307 . S
Dy857 O867 2.395 . S
Dy857 O868 2.379 . S
Dy857 O871 2.339 . S
Dy857 C887 2.738 . S
C858 O870 1.254 . S
C858 O871 1.257 . S
O859 Dy856 2.307 . S
O859 C869 1.266 . S
O860 Dy857 2.298 . S
O860 C869 1.236 . S
O861 Dy856 2.395 . S
O861 C878 1.255 . S
O862 Dy856 2.379 . S
O862 C878 1.249 . S
O863 Dy857 2.275 . S
O863 C879 1.254 . S
O864 Dy856 2.339 . S
O864 C879 1.257 . S
O865 Dy857 2.307 . S
O865 C880 1.266 . S
O866 Dy856 2.298 . S
O866 C880 1.236 . S
O867 Dy857 2.395 . S
O867 C887 1.255 . S
O868 Dy857 2.379 . S
O868 C887 1.249 . S
C869 O859 1.266 . S
C869 O860 1.236 . S
O870 Dy856 2.275 . S
O870 C858 1.254 . S
O871 Dy857 2.339 . S
O871 C858 1.257 . S
C872 C875 1.344 . S
C872 C876 1.328 . S
C872 C878 1.516 . S
C873 C874 1.304 . S
C873 C877 1.323 . S
C874 C873 1.304 . S
C874 C875 1.371 . S
C874 H888 0.930 . S
C875 C872 1.344 . S
C875 C874 1.371 . S
C875 H889 0.931 . S
C876 C872 1.328 . S
C876 C877 1.433 . S
C876 H890 0.931 . S
C877 C873 1.323 . S
C877 C876 1.433 . S
C877 H891 0.933 . S
C878 Dy856 2.738 . S
C878 O861 1.255 . S
C878 O862 1.249 . S
C878 C872 1.516 . S
C879 O863 1.254 . S
C879 O864 1.257 . S
C880 O865 1.266 . S
C880 O866 1.236 . S
C881 C884 1.344 . S
C881 C885 1.328 . S
C881 C887 1.516 . S
C882 C883 1.304 . S
C882 C886 1.323 . S
C883 C882 1.304 . S
C883 C884 1.371 . S
C883 H892 0.930 . S
C884 C881 1.344 . S
C884 C883 1.371 . S
C884 H893 0.931 . S
C885 C881 1.328 . S
C885 C886 1.433 . S
C885 H894 0.931 . S
C886 C882 1.323 . S
C886 C885 1.433 . S
C886 H895 0.933 . S
C887 Dy857 2.738 . S
C887 O867 1.255 . S
C887 O868 1.249 . S
C887 C881 1.516 . S
H888 C874 0.930 . S
H889 C875 0.931 . S
H890 C876 0.931 . S
H891 C877 0.933 . S
H892 C883 0.930 . S
H893 C884 0.931 . S
H894 C885 0.931 . S
H895 C886 0.933 . S
Dy896 O899 2.307 . S
Dy896 O901 2.395 . S
Dy896 O902 2.379 . S
Dy896 O904 2.339 . S
Dy896 O906 2.298 . S
Dy896 O910 2.275 . S
Dy896 C918 2.738 . S
Dy897 O900 2.298 . S
Dy897 O903 2.275 . S
Dy897 O905 2.307 . S
Dy897 O907 2.395 . S
Dy897 O908 2.379 . S
Dy897 O911 2.339 . S
Dy897 C927 2.738 . S
C898 O910 1.254 . S
C898 O911 1.257 . S
O899 Dy896 2.307 . S
O899 C909 1.266 . S
O900 Dy897 2.298 . S
O900 C909 1.236 . S
O901 Dy896 2.395 . S
O901 C918 1.255 . S
O902 Dy896 2.379 . S
O902 C918 1.249 . S
O903 Dy897 2.275 . S
O903 C919 1.254 . S
O904 Dy896 2.339 . S
O904 C919 1.257 . S
O905 Dy897 2.307 . S
O905 C920 1.266 . S
O906 Dy896 2.298 . S
O906 C920 1.236 . S
O907 Dy897 2.395 . S
O907 C927 1.255 . S
O908 Dy897 2.379 . S
O908 C927 1.249 . S
C909 O899 1.266 . S
C909 O900 1.236 . S
O910 Dy896 2.275 . S
O910 C898 1.254 . S
O911 Dy897 2.339 . S
O911 C898 1.257 . S
C912 C915 1.344 . S
C912 C916 1.328 . S
C912 C918 1.516 . S
C913 C914 1.304 . S
C913 C917 1.323 . S
C914 C913 1.304 . S
C914 C915 1.371 . S
C914 H928 0.930 . S
C915 C912 1.344 . S
C915 C914 1.371 . S
C915 H929 0.931 . S
C916 C912 1.328 . S
C916 C917 1.433 . S
C916 H930 0.931 . S
C917 C913 1.323 . S
C917 C916 1.433 . S
C917 H931 0.933 . S
C918 Dy896 2.738 . S
C918 O901 1.255 . S
C918 O902 1.249 . S
C918 C912 1.516 . S
C919 O903 1.254 . S
C919 O904 1.257 . S
C920 O905 1.266 . S
C920 O906 1.236 . S
C921 C924 1.344 . S
C921 C925 1.328 . S
C921 C927 1.516 . S
C922 C923 1.304 . S
C922 C926 1.323 . S
C923 C922 1.304 . S
C923 C924 1.371 . S
C923 H932 0.930 . S
C924 C921 1.344 . S
C924 C923 1.371 . S
C924 H933 0.931 . S
C925 C921 1.328 . S
C925 C926 1.433 . S
C925 H934 0.931 . S
C926 C922 1.323 . S
C926 C925 1.433 . S
C926 H935 0.933 . S
C927 Dy897 2.738 . S
C927 O907 1.255 . S
C927 O908 1.249 . S
C927 C921 1.516 . S
H928 C914 0.930 . S
H929 C915 0.931 . S
H930 C916 0.931 . S
H931 C917 0.933 . S
H932 C923 0.930 . S
H933 C924 0.931 . S
H934 C925 0.931 . S
H935 C926 0.933 . S
Dy936 O939 2.307 1_655 S
Dy936 O941 2.395 . S
Dy936 O942 2.379 . S
Dy936 O944 2.339 1_655 S
Dy936 O946 2.298 1_655 S
Dy936 O950 2.275 1_655 S
Dy936 C958 2.738 . S
Dy937 O940 2.298 . S
Dy937 O943 2.275 . S
Dy937 O945 2.307 . S
Dy937 O947 2.395 . S
Dy937 O948 2.379 1_554 S
Dy937 O951 2.339 1_554 S
Dy937 C967 2.738 . S
C938 O950 1.254 1_556 S
C938 O951 1.257 . S
O939 Dy936 2.307 1_455 S
O939 C949 1.266 . S
O940 Dy937 2.298 . S
O940 C949 1.236 . S
O941 Dy936 2.395 . S
O941 C958 1.255 . S
O942 Dy936 2.379 . S
O942 C958 1.249 . S
O943 Dy937 2.275 . S
O943 C959 1.254 . S
O944 Dy936 2.339 1_455 S
O944 C959 1.257 . S
O945 Dy937 2.307 . S
O945 C960 1.266 . S
O946 Dy936 2.298 1_455 S
O946 C960 1.236 . S
O947 Dy937 2.395 . S
O947 C967 1.255 . S
O948 Dy937 2.379 1_556 S
O948 C967 1.249 1_556 S
C949 O939 1.266 . S
C949 O940 1.236 . S
O950 Dy936 2.275 1_455 S
O950 C938 1.254 1_554 S
O951 Dy937 2.339 1_556 S
O951 C938 1.257 . S
C952 C955 1.344 . S
C952 C956 1.328 . S
C952 C958 1.516 . S
C953 C954 1.304 . S
C953 C957 1.323 . S
C954 C953 1.304 . S
C954 C955 1.371 . S
C954 H968 0.930 . S
C955 C952 1.344 . S
C955 C954 1.371 . S
C955 H969 0.931 . S
C956 C952 1.328 . S
C956 C957 1.433 . S
C956 H970 0.931 . S
C957 C953 1.323 . S
C957 C956 1.433 . S
C957 H971 0.933 . S
C958 Dy936 2.738 . S
C958 O941 1.255 . S
C958 O942 1.249 . S
C958 C952 1.516 . S
C959 O943 1.254 . S
C959 O944 1.257 . S
C960 O945 1.266 . S
C960 O946 1.236 . S
C961 C964 1.344 . S
C961 C965 1.328 1_554 S
C961 C967 1.516 . S
C962 C963 1.304 . S
C962 C966 1.323 1_554 S
C963 C962 1.304 . S
C963 C964 1.371 . S
C963 H972 0.930 . S
C964 C961 1.344 . S
C964 C963 1.371 . S
C964 H973 0.931 . S
C965 C961 1.328 1_556 S
C965 C966 1.433 . S
C965 H974 0.931 . S
C966 C962 1.323 1_556 S
C966 C965 1.433 . S
C966 H975 0.933 . S
C967 Dy937 2.738 . S
C967 O947 1.255 . S
C967 O948 1.249 1_554 S
C967 C961 1.516 . S
H968 C954 0.930 . S
H969 C955 0.931 . S
H970 C956 0.931 . S
H971 C957 0.933 . S
H972 C963 0.930 . S
H973 C964 0.931 . S
H974 C965 0.931 . S
H975 C966 0.933 . S
H976 C984 0.950 . S
H977 C989 0.950 . S
H978 C986 0.950 . S
H979 C988 0.950 . S
H980 C990 0.950 . S
H981 C992 0.950 . S
H982 C994 0.962 1_655 S
H983 C995 0.950 1_556 S
C984 H976 0.950 . S
C984 C985 1.385 . S
C984 C986 1.391 . S
C985 C984 1.385 . S
C985 C989 1.388 1_656 S
C986 H978 0.950 . S
C986 C984 1.391 . S
C986 C987 1.400 1_656 S
C987 C986 1.400 1_454 S
C987 C988 1.398 . S
C987 C993 1.491 . S
C988 H979 0.950 . S
C988 C987 1.398 . S
C988 C989 1.391 . S
C989 H977 0.950 . S
C989 C985 1.388 1_454 S
C989 C988 1.391 . S
C990 H980 0.950 . S
C990 C991 1.386 . S
C990 C992 1.391 . S
C991 C990 1.386 . S
C991 C995 1.393 . S
C992 H981 0.950 . S
C992 C990 1.391 . S
C992 C993 1.400 . S
C993 C987 1.491 . S
C993 C992 1.400 . S
C993 C994 1.388 1_554 S
C994 H982 0.962 1_455 S
C994 C993 1.388 1_556 S
C994 C995 1.384 1_556 S
C995 H983 0.950 1_554 S
C995 C991 1.393 . S
C995 C994 1.384 1_554 S
H996 C1004 0.950 . S
H997 C1009 0.950 . S
H998 C1006 0.950 . S
H999 C1008 0.950 . S
H1000 C1010 0.950 . S
H1001 C1012 0.950 . S
H1002 C1014 0.950 . S
H1003 C1015 0.950 . S
C1004 H996 0.950 . S
C1004 C1005 1.386 . S
C1004 C1006 1.391 . S
C1005 C1004 1.386 . S
C1005 C1009 1.393 . S
C1006 H998 0.950 . S
C1006 C1004 1.391 . S
C1006 C1007 1.400 . S
C1007 C1006 1.400 . S
C1007 C1008 1.398 . S
C1007 C1013 1.491 . S
C1008 H999 0.950 . S
C1008 C1007 1.398 . S
C1008 C1009 1.391 . S
C1009 H997 0.950 . S
C1009 C1005 1.393 . S
C1009 C1008 1.391 . S
C1010 H1000 0.950 . S
C1010 C1011 1.386 . S
C1010 C1012 1.391 . S
C1011 C1010 1.386 . S
C1011 C1015 1.393 . S
C1012 H1001 0.950 . S
C1012 C1010 1.391 . S
C1012 C1013 1.400 . S
C1013 C1007 1.491 . S
C1013 C1012 1.400 . S
C1013 C1014 1.398 . S
C1014 H1002 0.950 . S
C1014 C1013 1.398 . S
C1014 C1015 1.391 . S
C1015 H1003 0.950 . S
C1015 C1011 1.393 . S
C1015 C1014 1.391 . S
H1016 C1024 0.950 . S
H1017 C1029 0.950 . S
H1018 C1026 0.950 . S
H1019 C1028 0.950 . S
H1020 C1030 0.950 . S
H1021 C1032 0.950 . S
H1022 C1034 0.950 . S
H1023 C1035 0.950 . S
C1024 H1016 0.950 . S
C1024 C1025 1.386 . S
C1024 C1026 1.391 . S
C1025 C1024 1.386 . S
C1025 C1029 1.393 . S
C1026 H1018 0.950 . S
C1026 C1024 1.391 . S
C1026 C1027 1.400 . S
C1027 C1026 1.400 . S
C1027 C1028 1.398 . S
C1027 C1033 1.491 . S
C1028 H1019 0.950 . S
C1028 C1027 1.398 . S
C1028 C1029 1.391 . S
C1029 H1017 0.950 . S
C1029 C1025 1.393 . S
C1029 C1028 1.391 . S
C1030 H1020 0.950 . S
C1030 C1031 1.386 . S
C1030 C1032 1.391 . S
C1031 C1030 1.386 . S
C1031 C1035 1.393 . S
C1032 H1021 0.950 . S
C1032 C1030 1.391 . S
C1032 C1033 1.400 . S
C1033 C1027 1.491 . S
C1033 C1032 1.400 . S
C1033 C1034 1.398 . S
C1034 H1022 0.950 . S
C1034 C1033 1.398 . S
C1034 C1035 1.391 . S
C1035 H1023 0.950 . S
C1035 C1031 1.393 . S
C1035 C1034 1.391 . S
H1036 C1044 0.950 . S
H1037 C1049 0.950 . S
H1038 C1046 0.950 . S
H1039 C1048 0.950 . S
H1040 C1050 0.950 . S
H1041 C1052 0.950 . S
H1042 C1054 0.950 . S
H1043 C1055 0.950 . S
C1044 H1036 0.950 . S
C1044 C1045 1.386 . S
C1044 C1046 1.391 . S
C1045 C1044 1.386 . S
C1045 C1049 1.393 . S
C1046 H1038 0.950 . S
C1046 C1044 1.391 . S
C1046 C1047 1.400 . S
C1047 C1046 1.400 . S
C1047 C1048 1.398 . S
C1047 C1053 1.491 . S
C1048 H1039 0.950 . S
C1048 C1047 1.398 . S
C1048 C1049 1.391 . S
C1049 H1037 0.950 . S
C1049 C1045 1.393 . S
C1049 C1048 1.391 . S
C1050 H1040 0.950 . S
C1050 C1051 1.386 . S
C1050 C1052 1.391 . S
C1051 C1050 1.386 . S
C1051 C1055 1.393 . S
C1052 H1041 0.950 . S
C1052 C1050 1.391 . S
C1052 C1053 1.400 . S
C1053 C1047 1.491 . S
C1053 C1052 1.400 . S
C1053 C1054 1.398 . S
C1054 H1042 0.950 . S
C1054 C1053 1.398 . S
C1054 C1055 1.391 . S
C1055 H1043 0.950 . S
C1055 C1051 1.393 . S
C1055 C1054 1.391 . S
H1056 C1064 0.907 1_655 S
H1057 C1069 0.950 . S
H1058 C1066 0.950 . S
H1059 C1068 0.950 . S
H1060 C1070 0.950 . S
H1061 C1072 0.950 . S
H1062 C1074 0.950 . S
H1063 C1075 0.950 . S
C1064 H1056 0.907 1_455 S
C1064 C1065 1.386 . S
C1064 C1066 1.391 . S
C1065 C1064 1.386 . S
C1065 C1069 1.393 . S
C1066 H1058 0.950 . S
C1066 C1064 1.391 . S
C1066 C1067 1.400 . S
C1067 C1066 1.400 . S
C1067 C1068 1.398 . S
C1067 C1073 1.491 . S
C1068 H1059 0.950 . S
C1068 C1067 1.398 . S
C1068 C1069 1.391 . S
C1069 H1057 0.950 . S
C1069 C1065 1.393 . S
C1069 C1068 1.391 . S
C1070 H1060 0.950 . S
C1070 C1071 1.386 . S
C1070 C1072 1.391 . S
C1071 C1070 1.386 . S
C1071 C1075 1.393 . S
C1072 H1061 0.950 . S
C1072 C1070 1.391 . S
C1072 C1073 1.400 . S
C1073 C1067 1.491 . S
C1073 C1072 1.400 . S
C1073 C1074 1.398 . S
C1074 H1062 0.950 . S
C1074 C1073 1.398 . S
C1074 C1075 1.391 . S
C1075 H1063 0.950 . S
C1075 C1071 1.393 . S
C1075 C1074 1.391 . S
H1076 C1084 0.950 . S
H1077 C1089 0.950 . S
H1078 C1086 0.950 . S
H1079 C1088 0.950 . S
H1080 C1090 0.950 . S
H1081 C1092 0.950 . S
H1082 C1094 0.950 . S
H1083 C1095 0.950 . S
C1084 H1076 0.950 . S
C1084 C1085 1.386 . S
C1084 C1086 1.391 . S
C1085 C1084 1.386 . S
C1085 C1089 1.393 . S
C1086 H1078 0.950 . S
C1086 C1084 1.391 . S
C1086 C1087 1.400 . S
C1087 C1086 1.400 . S
C1087 C1088 1.398 . S
C1087 C1093 1.491 . S
C1088 H1079 0.950 . S
C1088 C1087 1.398 . S
C1088 C1089 1.391 . S
C1089 H1077 0.950 . S
C1089 C1085 1.393 . S
C1089 C1088 1.391 . S
C1090 H1080 0.950 . S
C1090 C1091 1.386 . S
C1090 C1092 1.391 . S
C1091 C1090 1.386 . S
C1091 C1095 1.393 . S
C1092 H1081 0.950 . S
C1092 C1090 1.391 . S
C1092 C1093 1.400 . S
C1093 C1087 1.491 . S
C1093 C1092 1.400 . S
C1093 C1094 1.398 . S
C1094 H1082 0.950 . S
C1094 C1093 1.398 . S
C1094 C1095 1.391 . S
C1095 H1083 0.950 . S
C1095 C1091 1.393 . S
C1095 C1094 1.391 . S
H1096 C1104 0.950 . S
H1097 C1109 0.950 . S
H1098 C1106 0.950 . S
H1099 C1108 0.950 . S
H1100 C1110 0.950 . S
H1101 C1112 0.950 . S
H1102 C1114 0.950 . S
H1103 C1115 0.950 . S
C1104 H1096 0.950 . S
C1104 C1105 1.386 . S
C1104 C1106 1.391 . S
C1105 C1104 1.386 . S
C1105 C1109 1.393 . S
C1106 H1098 0.950 . S
C1106 C1104 1.391 . S
C1106 C1107 1.400 . S
C1107 C1106 1.400 . S
C1107 C1108 1.398 . S
C1107 C1113 1.491 . S
C1108 H1099 0.950 . S
C1108 C1107 1.398 . S
C1108 C1109 1.391 . S
C1109 H1097 0.950 . S
C1109 C1105 1.393 . S
C1109 C1108 1.391 . S
C1110 H1100 0.950 . S
C1110 C1111 1.386 . S
C1110 C1112 1.391 . S
C1111 C1110 1.386 . S
C1111 C1115 1.393 . S
C1112 H1101 0.950 . S
C1112 C1110 1.391 . S
C1112 C1113 1.400 . S
C1113 C1107 1.491 . S
C1113 C1112 1.400 . S
C1113 C1114 1.398 . S
C1114 H1102 0.950 . S
C1114 C1113 1.398 . S
C1114 C1115 1.391 . S
C1115 H1103 0.950 . S
C1115 C1111 1.393 . S
C1115 C1114 1.391 . S
H1116 C1124 0.950 . S
H1117 C1129 0.950 . S
H1118 C1126 0.950 . S
H1119 C1128 0.950 . S
H1120 C1130 0.950 . S
H1121 C1132 0.950 . S
H1122 C1134 0.950 . S
H1123 C1135 0.950 . S
C1124 H1116 0.950 . S
C1124 C1125 1.386 . S
C1124 C1126 1.391 . S
C1125 C1124 1.386 . S
C1125 C1129 1.393 . S
C1126 H1118 0.950 . S
C1126 C1124 1.391 . S
C1126 C1127 1.400 . S
C1127 C1126 1.400 . S
C1127 C1128 1.398 . S
C1127 C1133 1.491 . S
C1128 H1119 0.950 . S
C1128 C1127 1.398 . S
C1128 C1129 1.391 . S
C1129 H1117 0.950 . S
C1129 C1125 1.393 . S
C1129 C1128 1.391 . S
C1130 H1120 0.950 . S
C1130 C1131 1.386 . S
C1130 C1132 1.391 . S
C1131 C1130 1.386 . S
C1131 C1135 1.393 . S
C1132 H1121 0.950 . S
C1132 C1130 1.391 . S
C1132 C1133 1.400 . S
C1133 C1127 1.491 . S
C1133 C1132 1.400 . S
C1133 C1134 1.398 . S
C1134 H1122 0.950 . S
C1134 C1133 1.398 . S
C1134 C1135 1.391 . S
C1135 H1123 0.950 . S
C1135 C1131 1.393 . S
C1135 C1134 1.391 . S
H1136 C1144 0.950 . S
H1137 C1149 0.950 . S
H1138 C1146 0.950 1_455 S
H1139 C1148 0.950 . S
H1140 C1150 0.950 . S
H1141 C1152 0.944 1_655 S
H1142 C1154 0.950 . S
H1143 C1155 0.950 . S
C1144 H1136 0.950 . S
C1144 C1145 1.386 . S
C1144 C1146 1.391 . S
C1145 C1144 1.386 . S
C1145 C1149 1.393 . S
C1146 H1138 0.950 1_655 S
C1146 C1144 1.391 . S
C1146 C1147 1.400 . S
C1147 C1146 1.400 . S
C1147 C1148 1.398 . S
C1147 C1153 1.491 1_655 S
C1148 H1139 0.950 . S
C1148 C1147 1.398 . S
C1148 C1149 1.391 . S
C1149 H1137 0.950 . S
C1149 C1145 1.393 . S
C1149 C1148 1.391 . S
C1150 H1140 0.950 . S
C1150 C1151 1.386 . S
C1150 C1152 1.394 . S
C1151 C1150 1.386 . S
C1151 C1155 1.393 . S
C1152 H1141 0.944 1_455 S
C1152 C1150 1.394 . S
C1152 C1153 1.403 . S
C1153 C1147 1.491 1_455 S
C1153 C1152 1.403 . S
C1153 C1154 1.398 . S
C1154 H1142 0.950 . S
C1154 C1153 1.398 . S
C1154 C1155 1.391 . S
C1155 H1143 0.950 . S
C1155 C1151 1.393 . S
C1155 C1154 1.391 . S
H1156 C1164 0.950 . S
H1157 C1169 0.950 . S
H1158 C1166 0.950 . S
H1159 C1168 0.950 . S
H1160 C1170 0.950 . S
H1161 C1172 0.950 . S
H1162 C1174 0.950 . S
H1163 C1175 0.950 . S
C1164 H1156 0.950 . S
C1164 C1165 1.386 . S
C1164 C1166 1.391 . S
C1165 C1164 1.386 . S
C1165 C1169 1.393 . S
C1166 H1158 0.950 . S
C1166 C1164 1.391 . S
C1166 C1167 1.400 . S
C1167 C1166 1.400 . S
C1167 C1168 1.398 . S
C1167 C1173 1.491 . S
C1168 H1159 0.950 . S
C1168 C1167 1.398 . S
C1168 C1169 1.391 . S
C1169 H1157 0.950 . S
C1169 C1165 1.393 . S
C1169 C1168 1.391 . S
C1170 H1160 0.950 . S
C1170 C1171 1.386 . S
C1170 C1172 1.391 . S
C1171 C1170 1.386 . S
C1171 C1175 1.393 . S
C1172 H1161 0.950 . S
C1172 C1170 1.391 . S
C1172 C1173 1.400 . S
C1173 C1167 1.491 . S
C1173 C1172 1.400 . S
C1173 C1174 1.398 . S
C1174 H1162 0.950 . S
C1174 C1173 1.398 . S
C1174 C1175 1.391 . S
C1175 H1163 0.950 . S
C1175 C1171 1.393 . S
C1175 C1174 1.391 . S
H1176 C1184 0.950 . S
H1177 C1189 0.950 . S
H1178 C1186 0.950 . S
H1179 C1188 0.950 . S
H1180 C1190 0.950 . S
H1181 C1192 0.950 . S
H1182 C1194 0.950 . S
H1183 C1195 0.950 . S
C1184 H1176 0.950 . S
C1184 C1185 1.386 . S
C1184 C1186 1.391 . S
C1185 C1184 1.386 . S
C1185 C1189 1.393 . S
C1186 H1178 0.950 . S
C1186 C1184 1.391 . S
C1186 C1187 1.400 . S
C1187 C1186 1.400 . S
C1187 C1188 1.398 . S
C1187 C1193 1.491 . S
C1188 H1179 0.950 . S
C1188 C1187 1.398 . S
C1188 C1189 1.391 . S
C1189 H1177 0.950 . S
C1189 C1185 1.393 . S
C1189 C1188 1.391 . S
C1190 H1180 0.950 . S
C1190 C1191 1.386 . S
C1190 C1192 1.391 . S
C1191 C1190 1.386 . S
C1191 C1195 1.393 . S
C1192 H1181 0.950 . S
C1192 C1190 1.391 . S
C1192 C1193 1.400 . S
C1193 C1187 1.491 . S
C1193 C1192 1.400 . S
C1193 C1194 1.398 . S
C1194 H1182 0.950 . S
C1194 C1193 1.398 . S
C1194 C1195 1.391 . S
C1195 H1183 0.950 . S
C1195 C1191 1.393 . S
C1195 C1194 1.391 . S
H1196 C1204 0.950 . S
H1197 C1209 0.950 . S
H1198 C1206 0.950 . S
H1199 C1208 0.950 . S
H1200 C1210 0.950 . S
H1201 C1212 0.950 . S
H1202 C1214 0.950 . S
H1203 C1215 0.950 . S
C1204 H1196 0.950 . S
C1204 C1205 1.386 . S
C1204 C1206 1.391 . S
C1205 C1204 1.386 . S
C1205 C1209 1.393 . S
C1206 H1198 0.950 . S
C1206 C1204 1.391 . S
C1206 C1207 1.400 . S
C1207 C1206 1.400 . S
C1207 C1208 1.398 . S
C1207 C1213 1.491 . S
C1208 H1199 0.950 . S
C1208 C1207 1.398 . S
C1208 C1209 1.391 . S
C1209 H1197 0.950 . S
C1209 C1205 1.393 . S
C1209 C1208 1.391 . S
C1210 H1200 0.950 . S
C1210 C1211 1.386 . S
C1210 C1212 1.391 . S
C1211 C1210 1.386 . S
C1211 C1215 1.393 . S
C1212 H1201 0.950 . S
C1212 C1210 1.391 . S
C1212 C1213 1.400 . S
C1213 C1207 1.491 . S
C1213 C1212 1.400 . S
C1213 C1214 1.398 . S
C1214 H1202 0.950 . S
C1214 C1213 1.398 . S
C1214 C1215 1.391 . S
C1215 H1203 0.950 . S
C1215 C1211 1.393 . S
C1215 C1214 1.391 . S
H1216 C1224 0.950 . S
H1217 C1229 0.950 . S
H1218 C1226 0.950 . S
H1219 C1228 0.950 . S
H1220 C1230 0.950 . S
H1221 C1232 0.950 . S
H1222 C1234 0.950 . S
H1223 C1235 0.950 . S
C1224 H1216 0.950 . S
C1224 C1225 1.386 . S
C1224 C1226 1.391 . S
C1225 C1224 1.386 . S
C1225 C1229 1.393 1_655 S
C1226 H1218 0.950 . S
C1226 C1224 1.391 . S
C1226 C1227 1.400 . S
C1227 C1226 1.400 . S
C1227 C1228 1.398 1_655 S
C1227 C1233 1.491 1_655 S
C1228 H1219 0.950 . S
C1228 C1227 1.398 1_455 S
C1228 C1229 1.391 . S
C1229 H1217 0.950 . S
C1229 C1225 1.393 1_455 S
C1229 C1228 1.391 . S
C1230 H1220 0.950 . S
C1230 C1231 1.386 . S
C1230 C1232 1.391 . S
C1231 C1230 1.386 . S
C1231 C1235 1.393 1_455 S
C1232 H1221 0.950 . S
C1232 C1230 1.391 . S
C1232 C1233 1.400 . S
C1233 C1227 1.491 1_455 S
C1233 C1232 1.400 . S
C1233 C1234 1.398 1_455 S
C1234 H1222 0.950 . S
C1234 C1233 1.398 1_655 S
C1234 C1235 1.391 . S
C1235 H1223 0.950 . S
C1235 C1231 1.393 1_655 S
C1235 C1234 1.391 . S
H1236 C1244 0.950 . S
H1237 C1249 0.950 . S
H1238 C1246 0.950 . S
H1239 C1248 0.950 . S
H1240 C1250 0.950 . S
H1241 C1252 0.950 . S
H1242 C1254 0.950 . S
H1243 C1255 0.950 . S
C1244 H1236 0.950 . S
C1244 C1245 1.386 . S
C1244 C1246 1.391 . S
C1245 C1244 1.386 . S
C1245 C1249 1.393 . S
C1246 H1238 0.950 . S
C1246 C1244 1.391 . S
C1246 C1247 1.400 . S
C1247 C1246 1.400 . S
C1247 C1248 1.398 . S
C1247 C1253 1.491 . S
C1248 H1239 0.950 . S
C1248 C1247 1.398 . S
C1248 C1249 1.391 . S
C1249 H1237 0.950 . S
C1249 C1245 1.393 . S
C1249 C1248 1.391 . S
C1250 H1240 0.950 . S
C1250 C1251 1.386 . S
C1250 C1252 1.391 . S
C1251 C1250 1.386 . S
C1251 C1255 1.393 . S
C1252 H1241 0.950 . S
C1252 C1250 1.391 . S
C1252 C1253 1.400 . S
C1253 C1247 1.491 . S
C1253 C1252 1.400 . S
C1253 C1254 1.398 . S
C1254 H1242 0.950 . S
C1254 C1253 1.398 . S
C1254 C1255 1.391 . S
C1255 H1243 0.950 . S
C1255 C1251 1.393 . S
C1255 C1254 1.391 . S
H1256 C1264 0.950 . S
H1257 C1269 0.950 . S
H1258 C1266 0.950 . S
H1259 C1268 0.950 . S
H1260 C1270 0.950 . S
H1261 C1272 0.950 . S
H1262 C1274 0.950 . S
H1263 C1275 0.950 . S
C1264 H1256 0.950 . S
C1264 C1265 1.386 . S
C1264 C1266 1.391 . S
C1265 C1264 1.386 . S
C1265 C1269 1.393 . S
C1266 H1258 0.950 . S
C1266 C1264 1.391 . S
C1266 C1267 1.400 . S
C1267 C1266 1.400 . S
C1267 C1268 1.398 . S
C1267 C1273 1.491 . S
C1268 H1259 0.950 . S
C1268 C1267 1.398 . S
C1268 C1269 1.391 . S
C1269 H1257 0.950 . S
C1269 C1265 1.393 . S
C1269 C1268 1.391 . S
C1270 H1260 0.950 . S
C1270 C1271 1.386 . S
C1270 C1272 1.391 . S
C1271 C1270 1.386 . S
C1271 C1275 1.393 . S
C1272 H1261 0.950 . S
C1272 C1270 1.391 . S
C1272 C1273 1.400 . S
C1273 C1267 1.491 . S
C1273 C1272 1.400 . S
C1273 C1274 1.398 . S
C1274 H1262 0.950 . S
C1274 C1273 1.398 . S
C1274 C1275 1.391 . S
C1275 H1263 0.950 . S
C1275 C1271 1.393 . S
C1275 C1274 1.391 . S
H1276 C1284 0.950 . S
H1277 C1289 0.950 . S
H1278 C1286 0.950 . S
H1279 C1288 0.950 . S
H1280 C1290 0.950 . S
H1281 C1292 0.950 . S
H1282 C1294 0.950 . S
H1283 C1295 0.950 . S
C1284 H1276 0.950 . S
C1284 C1285 1.386 . S
C1284 C1286 1.391 . S
C1285 C1284 1.386 . S
C1285 C1289 1.393 . S
C1286 H1278 0.950 . S
C1286 C1284 1.391 . S
C1286 C1287 1.400 . S
C1287 C1286 1.400 . S
C1287 C1288 1.398 . S
C1287 C1293 1.491 . S
C1288 H1279 0.950 . S
C1288 C1287 1.398 . S
C1288 C1289 1.391 . S
C1289 H1277 0.950 . S
C1289 C1285 1.393 . S
C1289 C1288 1.391 . S
C1290 H1280 0.950 . S
C1290 C1291 1.386 . S
C1290 C1292 1.391 . S
C1291 C1290 1.386 . S
C1291 C1295 1.393 . S
C1292 H1281 0.950 . S
C1292 C1290 1.391 . S
C1292 C1293 1.400 . S
C1293 C1287 1.491 . S
C1293 C1292 1.400 . S
C1293 C1294 1.398 . S
C1294 H1282 0.950 . S
C1294 C1293 1.398 . S
C1294 C1295 1.391 . S
C1295 H1283 0.950 . S
C1295 C1291 1.393 . S
C1295 C1294 1.391 . S
H1296 C1304 0.950 . S
H1297 C1309 0.950 1_556 S
H1298 C1306 0.950 . S
H1299 C1308 0.950 . S
H1300 C1310 0.950 . S
H1301 C1312 0.950 . S
H1302 C1314 0.950 . S
H1303 C1315 0.950 . S
C1304 H1296 0.950 . S
C1304 C1305 1.386 . S
C1304 C1306 1.391 . S
C1305 C1304 1.386 . S
C1305 C1309 1.393 . S
C1306 H1298 0.950 . S
C1306 C1304 1.391 . S
C1306 C1307 1.400 . S
C1307 C1306 1.400 . S
C1307 C1308 1.398 . S
C1307 C1313 1.491 . S
C1308 H1299 0.950 . S
C1308 C1307 1.398 . S
C1308 C1309 1.391 . S
C1309 H1297 0.950 1_554 S
C1309 C1305 1.393 . S
C1309 C1308 1.391 . S
C1310 H1300 0.950 . S
C1310 C1311 1.386 1_565 S
C1310 C1312 1.391 . S
C1311 C1310 1.386 1_545 S
C1311 C1315 1.393 . S
C1312 H1301 0.950 . S
C1312 C1310 1.391 . S
C1312 C1313 1.400 . S
C1313 C1307 1.491 . S
C1313 C1312 1.400 . S
C1313 C1314 1.398 1_565 S
C1314 H1302 0.950 . S
C1314 C1313 1.398 1_545 S
C1314 C1315 1.391 . S
C1315 H1303 0.950 . S
C1315 C1311 1.393 . S
C1315 C1314 1.391 . S
H1316 C1324 0.950 . S
H1317 C1329 0.950 1_556 S
H1318 C1326 0.950 . S
H1319 C1328 0.927 1_556 S
H1320 C1330 0.950 1_556 S
H1321 C1332 0.915 1_556 S
H1322 C1334 0.950 . S
H1323 C1335 0.950 . S
C1324 H1316 0.950 . S
C1324 C1325 1.386 . S
C1324 C1326 1.391 . S
C1325 C1324 1.386 . S
C1325 C1329 1.392 . S
C1326 H1318 0.950 . S
C1326 C1324 1.391 . S
C1326 C1327 1.400 . S
C1327 C1326 1.400 . S
C1327 C1328 1.429 . S
C1327 C1333 1.491 . S
C1328 H1319 0.927 1_554 S
C1328 C1327 1.429 . S
C1328 C1329 1.383 . S
C1329 H1317 0.950 1_554 S
C1329 C1325 1.392 . S
C1329 C1328 1.383 . S
C1330 H1320 0.950 1_554 S
C1330 C1331 1.386 . S
C1330 C1332 1.401 . S
C1331 C1330 1.386 . S
C1331 C1335 1.393 . S
C1332 H1321 0.915 1_554 S
C1332 C1330 1.401 . S
C1332 C1333 1.427 . S
C1333 C1327 1.491 . S
C1333 C1332 1.427 . S
C1333 C1334 1.398 . S
C1334 H1322 0.950 . S
C1334 C1333 1.398 . S
C1334 C1335 1.391 . S
C1335 H1323 0.950 . S
C1335 C1331 1.393 . S
C1335 C1334 1.391 . S
H1336 C1344 0.950 . S
H1337 C1349 0.950 . S
H1338 C1346 0.950 . S
H1339 C1348 0.950 . S
H1340 C1350 0.950 . S
H1341 C1352 0.950 . S
H1342 C1354 0.950 . S
H1343 C1355 0.950 . S
C1344 H1336 0.950 . S
C1344 C1345 1.386 . S
C1344 C1346 1.391 . S
C1345 C1344 1.386 . S
C1345 C1349 1.393 . S
C1346 H1338 0.950 . S
C1346 C1344 1.391 . S
C1346 C1347 1.400 . S
C1347 C1346 1.400 . S
C1347 C1348 1.398 . S
C1347 C1353 1.491 . S
C1348 H1339 0.950 . S
C1348 C1347 1.398 . S
C1348 C1349 1.391 . S
C1349 H1337 0.950 . S
C1349 C1345 1.393 . S
C1349 C1348 1.391 . S
C1350 H1340 0.950 . S
C1350 C1351 1.386 . S
C1350 C1352 1.391 . S
C1351 C1350 1.386 . S
C1351 C1355 1.393 . S
C1352 H1341 0.950 . S
C1352 C1350 1.391 . S
C1352 C1353 1.400 . S
C1353 C1347 1.491 . S
C1353 C1352 1.400 . S
C1353 C1354 1.398 . S
C1354 H1342 0.950 . S
C1354 C1353 1.398 . S
C1354 C1355 1.391 . S
C1355 H1343 0.950 . S
C1355 C1351 1.393 . S
C1355 C1354 1.391 . S
H1356 C1364 0.950 . S
H1357 C1369 0.950 . S
H1358 C1366 0.950 . S
H1359 C1368 0.950 . S
H1360 C1370 0.950 . S
H1361 C1372 0.950 . S
H1362 C1374 0.950 . S
H1363 C1375 0.950 . S
C1364 H1356 0.950 . S
C1364 C1365 1.386 . S
C1364 C1366 1.391 . S
C1365 C1364 1.386 . S
C1365 C1369 1.393 . S
C1366 H1358 0.950 . S
C1366 C1364 1.391 . S
C1366 C1367 1.400 . S
C1367 C1366 1.400 . S
C1367 C1368 1.398 . S
C1367 C1373 1.491 . S
C1368 H1359 0.950 . S
C1368 C1367 1.398 . S
C1368 C1369 1.391 . S
C1369 H1357 0.950 . S
C1369 C1365 1.393 . S
C1369 C1368 1.391 . S
C1370 H1360 0.950 . S
C1370 C1371 1.386 . S
C1370 C1372 1.391 . S
C1371 C1370 1.386 . S
C1371 C1375 1.393 . S
C1372 H1361 0.950 . S
C1372 C1370 1.391 . S
C1372 C1373 1.400 . S
C1373 C1367 1.491 . S
C1373 C1372 1.400 . S
C1373 C1374 1.398 . S
C1374 H1362 0.950 . S
C1374 C1373 1.398 . S
C1374 C1375 1.391 . S
C1375 H1363 0.950 . S
C1375 C1371 1.393 . S
C1375 C1374 1.391 . S
H1376 C1384 0.950 . S
H1377 C1389 0.950 . S
H1378 C1386 0.950 . S
H1379 C1388 0.950 . S
H1380 C1390 0.950 . S
H1381 C1392 0.950 . S
H1382 C1394 0.950 . S
H1383 C1395 0.950 . S
C1384 H1376 0.950 . S
C1384 C1385 1.386 . S
C1384 C1386 1.391 . S
C1385 C1384 1.386 . S
C1385 C1389 1.393 . S
C1386 H1378 0.950 . S
C1386 C1384 1.391 . S
C1386 C1387 1.400 . S
C1387 C1386 1.400 . S
C1387 C1388 1.398 . S
C1387 C1393 1.491 . S
C1388 H1379 0.950 . S
C1388 C1387 1.398 . S
C1388 C1389 1.391 . S
C1389 H1377 0.950 . S
C1389 C1385 1.393 . S
C1389 C1388 1.391 . S
C1390 H1380 0.950 . S
C1390 C1391 1.386 . S
C1390 C1392 1.391 . S
C1391 C1390 1.386 . S
C1391 C1395 1.393 . S
C1392 H1381 0.950 . S
C1392 C1390 1.391 . S
C1392 C1393 1.400 . S
C1393 C1387 1.491 . S
C1393 C1392 1.400 . S
C1393 C1394 1.398 . S
C1394 H1382 0.950 . S
C1394 C1393 1.398 . S
C1394 C1395 1.391 . S
C1395 H1383 0.950 . S
C1395 C1391 1.393 . S
C1395 C1394 1.391 . S
H1396 C1404 0.950 . S
H1397 C1409 0.950 . S
H1398 C1406 0.950 . S
H1399 C1408 0.950 . S
H1400 C1410 0.950 . S
H1401 C1412 0.950 . S
H1402 C1414 0.950 . S
H1403 C1415 0.950 . S
C1404 H1396 0.950 . S
C1404 C1405 1.386 . S
C1404 C1406 1.391 . S
C1405 C1404 1.386 . S
C1405 C1409 1.393 . S
C1406 H1398 0.950 . S
C1406 C1404 1.391 . S
C1406 C1407 1.400 . S
C1407 C1406 1.400 . S
C1407 C1408 1.398 . S
C1407 C1413 1.491 . S
C1408 H1399 0.950 . S
C1408 C1407 1.398 . S
C1408 C1409 1.391 . S
C1409 H1397 0.950 . S
C1409 C1405 1.393 . S
C1409 C1408 1.391 . S
C1410 H1400 0.950 . S
C1410 C1411 1.386 . S
C1410 C1412 1.391 . S
C1411 C1410 1.386 . S
C1411 C1415 1.393 . S
C1412 H1401 0.950 . S
C1412 C1410 1.391 . S
C1412 C1413 1.400 . S
C1413 C1407 1.491 . S
C1413 C1412 1.400 . S
C1413 C1414 1.398 . S
C1414 H1402 0.950 . S
C1414 C1413 1.398 . S
C1414 C1415 1.391 . S
C1415 H1403 0.950 . S
C1415 C1411 1.393 . S
C1415 C1414 1.391 . S
H1416 C1424 0.950 . S
H1417 C1429 0.950 . S
H1418 C1426 0.950 . S
H1419 C1428 0.950 . S
H1420 C1430 0.950 . S
H1421 C1432 0.950 . S
H1422 C1434 0.950 . S
H1423 C1435 0.950 . S
C1424 H1416 0.950 . S
C1424 C1425 1.386 . S
C1424 C1426 1.391 . S
C1425 C1424 1.386 . S
C1425 C1429 1.393 . S
C1426 H1418 0.950 . S
C1426 C1424 1.391 . S
C1426 C1427 1.400 . S
C1427 C1426 1.400 . S
C1427 C1428 1.398 . S
C1427 C1433 1.491 . S
C1428 H1419 0.950 . S
C1428 C1427 1.398 . S
C1428 C1429 1.391 . S
C1429 H1417 0.950 . S
C1429 C1425 1.393 . S
C1429 C1428 1.391 . S
C1430 H1420 0.950 . S
C1430 C1431 1.386 . S
C1430 C1432 1.391 . S
C1431 C1430 1.386 . S
C1431 C1435 1.393 . S
C1432 H1421 0.950 . S
C1432 C1430 1.391 . S
C1432 C1433 1.400 . S
C1433 C1427 1.491 . S
C1433 C1432 1.400 . S
C1433 C1434 1.398 . S
C1434 H1422 0.950 . S
C1434 C1433 1.398 . S
C1434 C1435 1.391 . S
C1435 H1423 0.950 . S
C1435 C1431 1.393 . S
C1435 C1434 1.391 . S
H1436 C1444 0.950 . S
H1437 C1449 0.950 . S
H1438 C1446 0.950 . S
H1439 C1448 0.950 . S
H1440 C1450 0.950 . S
H1441 C1452 0.950 . S
H1442 C1454 0.950 . S
H1443 C1455 0.950 . S
C1444 H1436 0.950 . S
C1444 C1445 1.386 . S
C1444 C1446 1.391 . S
C1445 C1444 1.386 . S
C1445 C1449 1.393 . S
C1446 H1438 0.950 . S
C1446 C1444 1.391 . S
C1446 C1447 1.400 . S
C1447 C1446 1.400 . S
C1447 C1448 1.398 . S
C1447 C1453 1.491 . S
C1448 H1439 0.950 . S
C1448 C1447 1.398 . S
C1448 C1449 1.391 . S
C1449 H1437 0.950 . S
C1449 C1445 1.393 . S
C1449 C1448 1.391 . S
C1450 H1440 0.950 . S
C1450 C1451 1.386 . S
C1450 C1452 1.391 . S
C1451 C1450 1.386 . S
C1451 C1455 1.393 . S
C1452 H1441 0.950 . S
C1452 C1450 1.391 . S
C1452 C1453 1.400 . S
C1453 C1447 1.491 . S
C1453 C1452 1.400 . S
C1453 C1454 1.398 . S
C1454 H1442 0.950 . S
C1454 C1453 1.398 . S
C1454 C1455 1.391 . S
C1455 H1443 0.950 . S
C1455 C1451 1.393 . S
C1455 C1454 1.391 . S
H1456 C1464 0.950 . S
H1457 C1469 0.950 . S
H1458 C1466 0.950 . S
H1459 C1468 0.950 . S
H1460 C1470 0.950 . S
H1461 C1472 0.950 . S
H1462 C1474 0.950 . S
H1463 C1475 0.950 . S
C1464 H1456 0.950 . S
C1464 C1465 1.386 . S
C1464 C1466 1.391 . S
C1465 C1464 1.386 . S
C1465 C1469 1.393 . S
C1466 H1458 0.950 . S
C1466 C1464 1.391 . S
C1466 C1467 1.400 . S
C1467 C1466 1.400 . S
C1467 C1468 1.398 . S
C1467 C1473 1.491 . S
C1468 H1459 0.950 . S
C1468 C1467 1.398 . S
C1468 C1469 1.391 . S
C1469 H1457 0.950 . S
C1469 C1465 1.393 . S
C1469 C1468 1.391 . S
C1470 H1460 0.950 . S
C1470 C1471 1.386 . S
C1470 C1472 1.391 . S
C1471 C1470 1.386 . S
C1471 C1475 1.393 . S
C1472 H1461 0.950 . S
C1472 C1470 1.391 . S
C1472 C1473 1.400 . S
C1473 C1467 1.491 . S
C1473 C1472 1.400 . S
C1473 C1474 1.398 . S
C1474 H1462 0.950 . S
C1474 C1473 1.398 . S
C1474 C1475 1.391 . S
C1475 H1463 0.950 . S
C1475 C1471 1.393 . S
C1475 C1474 1.391 . S
H1476 C1484 0.950 . S
H1477 C1489 0.950 . S
H1478 C1486 0.950 . S
H1479 C1488 0.950 . S
H1480 C1490 0.950 . S
H1481 C1492 0.950 . S
H1482 C1494 0.950 . S
H1483 C1495 0.950 . S
C1484 H1476 0.950 . S
C1484 C1485 1.386 . S
C1484 C1486 1.391 . S
C1485 C1484 1.386 . S
C1485 C1489 1.393 . S
C1486 H1478 0.950 . S
C1486 C1484 1.391 . S
C1486 C1487 1.400 . S
C1487 C1486 1.400 . S
C1487 C1488 1.398 . S
C1487 C1493 1.491 . S
C1488 H1479 0.950 . S
C1488 C1487 1.398 . S
C1488 C1489 1.391 . S
C1489 H1477 0.950 . S
C1489 C1485 1.393 . S
C1489 C1488 1.391 . S
C1490 H1480 0.950 . S
C1490 C1491 1.386 . S
C1490 C1492 1.391 . S
C1491 C1490 1.386 . S
C1491 C1495 1.393 . S
C1492 H1481 0.950 . S
C1492 C1490 1.391 . S
C1492 C1493 1.400 . S
C1493 C1487 1.491 . S
C1493 C1492 1.400 . S
C1493 C1494 1.398 . S
C1494 H1482 0.950 . S
C1494 C1493 1.398 . S
C1494 C1495 1.391 . S
C1495 H1483 0.950 . S
C1495 C1491 1.393 . S
C1495 C1494 1.391 . S
H1496 C1504 0.950 . S
H1497 C1509 0.950 . S
H1498 C1506 0.950 . S
H1499 C1508 0.950 . S
H1500 C1510 0.950 . S
H1501 C1512 0.950 . S
H1502 C1514 0.950 . S
H1503 C1515 0.950 . S
C1504 H1496 0.950 . S
C1504 C1505 1.386 . S
C1504 C1506 1.391 . S
C1505 C1504 1.386 . S
C1505 C1509 1.393 . S
C1506 H1498 0.950 . S
C1506 C1504 1.391 . S
C1506 C1507 1.400 . S
C1507 C1506 1.400 . S
C1507 C1508 1.398 . S
C1507 C1513 1.491 . S
C1508 H1499 0.950 . S
C1508 C1507 1.398 . S
C1508 C1509 1.391 . S
C1509 H1497 0.950 . S
C1509 C1505 1.393 . S
C1509 C1508 1.391 . S
C1510 H1500 0.950 . S
C1510 C1511 1.386 . S
C1510 C1512 1.391 . S
C1511 C1510 1.386 . S
C1511 C1515 1.393 . S
C1512 H1501 0.950 . S
C1512 C1510 1.391 . S
C1512 C1513 1.400 . S
C1513 C1507 1.491 . S
C1513 C1512 1.400 . S
C1513 C1514 1.398 . S
C1514 H1502 0.950 . S
C1514 C1513 1.398 . S
C1514 C1515 1.391 . S
C1515 H1503 0.950 . S
C1515 C1511 1.393 . S
C1515 C1514 1.391 . S
H1516 C1524 0.950 . S
H1517 C1529 0.950 . S
H1518 C1526 0.950 . S
H1519 C1528 0.950 . S
H1520 C1530 0.950 . S
H1521 C1532 0.950 . S
H1522 C1534 0.950 . S
H1523 C1535 0.950 . S
C1524 H1516 0.950 . S
C1524 C1525 1.386 . S
C1524 C1526 1.391 . S
C1525 C1524 1.386 . S
C1525 C1529 1.393 . S
C1526 H1518 0.950 . S
C1526 C1524 1.391 . S
C1526 C1527 1.400 . S
C1527 C1526 1.400 . S
C1527 C1528 1.398 . S
C1527 C1533 1.491 . S
C1528 H1519 0.950 . S
C1528 C1527 1.398 . S
C1528 C1529 1.391 . S
C1529 H1517 0.950 . S
C1529 C1525 1.393 . S
C1529 C1528 1.391 . S
C1530 H1520 0.950 . S
C1530 C1531 1.386 . S
C1530 C1532 1.391 . S
C1531 C1530 1.386 . S
C1531 C1535 1.393 . S
C1532 H1521 0.950 . S
C1532 C1530 1.391 . S
C1532 C1533 1.400 . S
C1533 C1527 1.491 . S
C1533 C1532 1.400 . S
C1533 C1534 1.398 . S
C1534 H1522 0.950 . S
C1534 C1533 1.398 . S
C1534 C1535 1.391 . S
C1535 H1523 0.950 . S
C1535 C1531 1.393 . S
C1535 C1534 1.391 . S
H1536 C1544 0.950 . S
H1537 C1549 0.950 . S
H1538 C1546 0.950 . S
H1539 C1548 0.950 . S
H1540 C1550 0.950 . S
H1541 C1552 0.950 . S
H1542 C1554 0.950 . S
H1543 C1555 0.950 . S
C1544 H1536 0.950 . S
C1544 C1545 1.386 . S
C1544 C1546 1.391 . S
C1545 C1544 1.386 . S
C1545 C1549 1.393 . S
C1546 H1538 0.950 . S
C1546 C1544 1.391 . S
C1546 C1547 1.400 . S
C1547 C1546 1.400 . S
C1547 C1548 1.398 . S
C1547 C1553 1.491 . S
C1548 H1539 0.950 . S
C1548 C1547 1.398 . S
C1548 C1549 1.391 . S
C1549 H1537 0.950 . S
C1549 C1545 1.393 . S
C1549 C1548 1.391 . S
C1550 H1540 0.950 . S
C1550 C1551 1.386 . S
C1550 C1552 1.391 . S
C1551 C1550 1.386 . S
C1551 C1555 1.393 . S
C1552 H1541 0.950 . S
C1552 C1550 1.391 . S
C1552 C1553 1.400 . S
C1553 C1547 1.491 . S
C1553 C1552 1.400 . S
C1553 C1554 1.398 . S
C1554 H1542 0.950 . S
C1554 C1553 1.398 . S
C1554 C1555 1.391 . S
C1555 H1543 0.950 . S
C1555 C1551 1.393 . S
C1555 C1554 1.391 . S
H1556 C1564 0.950 . S
H1557 C1569 0.950 . S
H1558 C1566 0.950 . S
H1559 C1568 0.950 . S
H1560 C1570 0.950 . S
H1561 C1572 0.950 . S
H1562 C1574 0.950 . S
H1563 C1575 0.950 . S
C1564 H1556 0.950 . S
C1564 C1565 1.386 . S
C1564 C1566 1.391 . S
C1565 C1564 1.386 . S
C1565 C1569 1.393 . S
C1566 H1558 0.950 . S
C1566 C1564 1.391 . S
C1566 C1567 1.400 . S
C1567 C1566 1.400 . S
C1567 C1568 1.398 . S
C1567 C1573 1.491 . S
C1568 H1559 0.950 . S
C1568 C1567 1.398 . S
C1568 C1569 1.391 . S
C1569 H1557 0.950 . S
C1569 C1565 1.393 . S
C1569 C1568 1.391 . S
C1570 H1560 0.950 . S
C1570 C1571 1.386 . S
C1570 C1572 1.391 . S
C1571 C1570 1.386 . S
C1571 C1575 1.393 . S
C1572 H1561 0.950 . S
C1572 C1570 1.391 . S
C1572 C1573 1.400 . S
C1573 C1567 1.491 . S
C1573 C1572 1.400 . S
C1573 C1574 1.398 . S
C1574 H1562 0.950 . S
C1574 C1573 1.398 . S
C1574 C1575 1.391 . S
C1575 H1563 0.950 . S
C1575 C1571 1.393 . S
C1575 C1574 1.391 . S
H1576 C1584 0.950 . S
H1577 C1589 0.950 . S
H1578 C1586 0.950 . S
H1579 C1588 0.950 . S
H1580 C1590 0.955 . S
H1581 C1592 0.950 . S
H1582 C1594 0.950 . S
H1583 C1595 0.950 . S
C1584 H1576 0.950 . S
C1584 C1585 1.386 . S
C1584 C1586 1.391 . S
C1585 C1584 1.386 . S
C1585 C1589 1.393 . S
C1586 H1578 0.950 . S
C1586 C1584 1.391 . S
C1586 C1587 1.400 . S
C1587 C1586 1.400 . S
C1587 C1588 1.398 . S
C1587 C1593 1.491 . S
C1588 H1579 0.950 . S
C1588 C1587 1.398 . S
C1588 C1589 1.391 . S
C1589 H1577 0.950 . S
C1589 C1585 1.393 . S
C1589 C1588 1.391 . S
C1590 H1580 0.955 . S
C1590 C1591 1.386 . S
C1590 C1592 1.391 . S
C1591 C1590 1.386 . S
C1591 C1595 1.393 . S
C1592 H1581 0.950 . S
C1592 C1590 1.391 . S
C1592 C1593 1.400 . S
C1593 C1587 1.491 . S
C1593 C1592 1.400 . S
C1593 C1594 1.398 . S
C1594 H1582 0.950 . S
C1594 C1593 1.398 . S
C1594 C1595 1.391 . S
C1595 H1583 0.950 . S
C1595 C1591 1.393 . S
C1595 C1594 1.391 . S
H1596 C1604 0.950 . S
H1597 C1609 0.950 . S
H1598 C1606 0.950 . S
H1599 C1608 0.950 . S
H1600 C1610 0.950 . S
H1601 C1612 0.950 . S
H1602 C1614 0.950 . S
H1603 C1615 0.950 . S
C1604 H1596 0.950 . S
C1604 C1605 1.386 . S
C1604 C1606 1.391 . S
C1605 C1604 1.386 . S
C1605 C1609 1.393 . S
C1606 H1598 0.950 . S
C1606 C1604 1.391 . S
C1606 C1607 1.400 . S
C1607 C1606 1.400 . S
C1607 C1608 1.398 . S
C1607 C1613 1.491 . S
C1608 H1599 0.950 . S
C1608 C1607 1.398 . S
C1608 C1609 1.391 . S
C1609 H1597 0.950 . S
C1609 C1605 1.393 . S
C1609 C1608 1.391 . S
C1610 H1600 0.950 . S
C1610 C1611 1.386 . S
C1610 C1612 1.391 . S
C1611 C1610 1.386 . S
C1611 C1615 1.393 . S
C1612 H1601 0.950 . S
C1612 C1610 1.391 . S
C1612 C1613 1.400 . S
C1613 C1607 1.491 . S
C1613 C1612 1.400 . S
C1613 C1614 1.398 . S
C1614 H1602 0.950 . S
C1614 C1613 1.398 . S
C1614 C1615 1.391 . S
C1615 H1603 0.950 . S
C1615 C1611 1.393 . S
C1615 C1614 1.391 . S
H1616 C1624 0.950 . S
H1617 C1629 0.950 . S
H1618 C1626 0.950 . S
H1619 C1628 0.950 . S
H1620 C1630 0.950 . S
H1621 C1632 0.950 . S
H1622 C1634 0.950 . S
H1623 C1635 0.950 . S
C1624 H1616 0.950 . S
C1624 C1625 1.386 . S
C1624 C1626 1.391 . S
C1625 C1624 1.386 . S
C1625 C1629 1.393 . S
C1626 H1618 0.950 . S
C1626 C1624 1.391 . S
C1626 C1627 1.400 . S
C1627 C1626 1.400 . S
C1627 C1628 1.398 . S
C1627 C1633 1.491 . S
C1628 H1619 0.950 . S
C1628 C1627 1.398 . S
C1628 C1629 1.391 . S
C1629 H1617 0.950 . S
C1629 C1625 1.393 . S
C1629 C1628 1.391 . S
C1630 H1620 0.950 . S
C1630 C1631 1.386 . S
C1630 C1632 1.391 . S
C1631 C1630 1.386 . S
C1631 C1635 1.393 . S
C1632 H1621 0.950 . S
C1632 C1630 1.391 . S
C1632 C1633 1.400 . S
C1633 C1627 1.491 . S
C1633 C1632 1.400 . S
C1633 C1634 1.398 . S
C1634 H1622 0.950 . S
C1634 C1633 1.398 . S
C1634 C1635 1.391 . S
C1635 H1623 0.950 . S
C1635 C1631 1.393 . S
C1635 C1634 1.391 . S
H1636 C1644 0.950 . S
H1637 C1649 0.950 . S
H1638 C1646 0.950 . S
H1639 C1648 0.950 . S
H1640 C1650 0.950 . S
H1641 C1652 0.950 . S
H1642 C1654 0.950 . S
H1643 C1655 0.950 . S
C1644 H1636 0.950 . S
C1644 C1645 1.386 . S
C1644 C1646 1.391 . S
C1645 C1644 1.386 . S
C1645 C1649 1.393 . S
C1646 H1638 0.950 . S
C1646 C1644 1.391 . S
C1646 C1647 1.400 . S
C1647 C1646 1.400 . S
C1647 C1648 1.398 . S
C1647 C1653 1.491 . S
C1648 H1639 0.950 . S
C1648 C1647 1.398 . S
C1648 C1649 1.391 . S
C1649 H1637 0.950 . S
C1649 C1645 1.393 . S
C1649 C1648 1.391 . S
C1650 H1640 0.950 . S
C1650 C1651 1.386 . S
C1650 C1652 1.391 . S
C1651 C1650 1.386 . S
C1651 C1655 1.393 . S
C1652 H1641 0.950 . S
C1652 C1650 1.391 . S
C1652 C1653 1.400 . S
C1653 C1647 1.491 . S
C1653 C1652 1.400 . S
C1653 C1654 1.398 . S
C1654 H1642 0.950 . S
C1654 C1653 1.398 . S
C1654 C1655 1.391 . S
C1655 H1643 0.950 . S
C1655 C1651 1.393 . S
C1655 C1654 1.391 . S
H1656 C1664 0.950 . S
H1657 C1669 0.950 . S
H1658 C1666 0.950 . S
H1659 C1668 0.950 . S
H1660 C1670 0.919 1_565 S
H1661 C1672 0.950 1_565 S
H1662 C1674 0.950 . S
H1663 C1675 0.950 . S
C1664 H1656 0.950 . S
C1664 C1665 1.386 . S
C1664 C1666 1.391 . S
C1665 C1664 1.386 . S
C1665 C1669 1.393 1_545 S
C1666 H1658 0.950 . S
C1666 C1664 1.391 . S
C1666 C1667 1.400 . S
C1667 C1666 1.400 . S
C1667 C1668 1.398 1_545 S
C1667 C1673 1.491 . S
C1668 H1659 0.950 . S
C1668 C1667 1.398 1_565 S
C1668 C1669 1.391 . S
C1669 H1657 0.950 . S
C1669 C1665 1.393 1_565 S
C1669 C1668 1.391 . S
C1670 H1660 0.919 1_545 S
C1670 C1671 1.386 . S
C1670 C1672 1.391 . S
C1671 C1670 1.386 . S
C1671 C1675 1.393 . S
C1672 H1661 0.950 1_545 S
C1672 C1670 1.391 . S
C1672 C1673 1.400 . S
C1673 C1667 1.491 . S
C1673 C1672 1.400 . S
C1673 C1674 1.398 . S
C1674 H1662 0.950 . S
C1674 C1673 1.398 . S
C1674 C1675 1.391 . S
C1675 H1663 0.950 . S
C1675 C1671 1.393 . S
C1675 C1674 1.391 . S
H1676 C1684 0.950 . S
H1677 C1689 0.950 . S
H1678 C1686 0.950 . S
H1679 C1688 0.950 . S
H1680 C1690 0.950 . S
H1681 C1692 0.950 . S
H1682 C1694 0.950 . S
H1683 C1695 0.950 . S
C1684 H1676 0.950 . S
C1684 C1685 1.386 . S
C1684 C1686 1.391 . S
C1685 C1684 1.386 . S
C1685 C1689 1.393 . S
C1686 H1678 0.950 . S
C1686 C1684 1.391 . S
C1686 C1687 1.400 . S
C1687 C1686 1.400 . S
C1687 C1688 1.398 . S
C1687 C1693 1.491 . S
C1688 H1679 0.950 . S
C1688 C1687 1.398 . S
C1688 C1689 1.391 . S
C1689 H1677 0.950 . S
C1689 C1685 1.393 . S
C1689 C1688 1.391 . S
C1690 H1680 0.950 . S
C1690 C1691 1.386 . S
C1690 C1692 1.391 . S
C1691 C1690 1.386 . S
C1691 C1695 1.393 . S
C1692 H1681 0.950 . S
C1692 C1690 1.391 . S
C1692 C1693 1.400 . S
C1693 C1687 1.491 . S
C1693 C1692 1.400 . S
C1693 C1694 1.398 . S
C1694 H1682 0.950 . S
C1694 C1693 1.398 . S
C1694 C1695 1.391 . S
C1695 H1683 0.950 . S
C1695 C1691 1.393 . S
C1695 C1694 1.391 . S
H1696 C1704 0.950 . S
H1697 C1709 0.950 . S
H1698 C1706 0.950 . S
H1699 C1708 0.950 . S
H1700 C1710 0.950 . S
H1701 C1712 0.950 . S
H1702 C1714 0.950 . S
H1703 C1715 0.950 . S
C1704 H1696 0.950 . S
C1704 C1705 1.386 . S
C1704 C1706 1.391 . S
C1705 C1704 1.386 . S
C1705 C1709 1.393 . S
C1706 H1698 0.950 . S
C1706 C1704 1.391 . S
C1706 C1707 1.400 . S
C1707 C1706 1.400 . S
C1707 C1708 1.398 . S
C1707 C1713 1.491 . S
C1708 H1699 0.950 . S
C1708 C1707 1.398 . S
C1708 C1709 1.391 . S
C1709 H1697 0.950 . S
C1709 C1705 1.393 . S
C1709 C1708 1.391 . S
C1710 H1700 0.950 . S
C1710 C1711 1.386 . S
C1710 C1712 1.391 . S
C1711 C1710 1.386 . S
C1711 C1715 1.393 . S
C1712 H1701 0.950 . S
C1712 C1710 1.391 . S
C1712 C1713 1.400 . S
C1713 C1707 1.491 . S
C1713 C1712 1.400 . S
C1713 C1714 1.398 . S
C1714 H1702 0.950 . S
C1714 C1713 1.398 . S
C1714 C1715 1.391 . S
C1715 H1703 0.950 . S
C1715 C1711 1.393 . S
C1715 C1714 1.391 . S
H1716 C1724 0.950 . S
H1717 C1729 0.950 . S
H1718 C1726 0.950 . S
H1719 C1728 0.950 . S
H1720 C1730 0.950 . S
H1721 C1732 0.950 . S
H1722 C1734 0.950 . S
H1723 C1735 0.950 . S
C1724 H1716 0.950 . S
C1724 C1725 1.386 . S
C1724 C1726 1.391 . S
C1725 C1724 1.386 . S
C1725 C1729 1.393 . S
C1726 H1718 0.950 . S
C1726 C1724 1.391 . S
C1726 C1727 1.400 . S
C1727 C1726 1.400 . S
C1727 C1728 1.398 . S
C1727 C1733 1.491 . S
C1728 H1719 0.950 . S
C1728 C1727 1.398 . S
C1728 C1729 1.391 . S
C1729 H1717 0.950 . S
C1729 C1725 1.393 . S
C1729 C1728 1.391 . S
C1730 H1720 0.950 . S
C1730 C1731 1.386 . S
C1730 C1732 1.391 . S
C1731 C1730 1.386 . S
C1731 C1735 1.393 . S
C1732 H1721 0.950 . S
C1732 C1730 1.391 . S
C1732 C1733 1.400 . S
C1733 C1727 1.491 . S
C1733 C1732 1.400 . S
C1733 C1734 1.398 . S
C1734 H1722 0.950 . S
C1734 C1733 1.398 . S
C1734 C1735 1.391 . S
C1735 H1723 0.950 . S
C1735 C1731 1.393 . S
C1735 C1734 1.391 . S
H1736 C1744 0.953 . S
H1737 C1749 0.950 . S
H1738 C1746 0.950 . S
H1739 C1748 0.950 . S
H1740 C1750 0.950 . S
H1741 C1752 0.950 . S
H1742 C1754 0.950 . S
H1743 C1755 0.950 . S
C1744 H1736 0.953 . S
C1744 C1745 1.391 1_565 S
C1744 C1746 1.394 . S
C1745 C1744 1.391 1_545 S
C1745 C1749 1.393 . S
C1746 H1738 0.950 . S
C1746 C1744 1.394 . S
C1746 C1747 1.400 . S
C1747 C1746 1.400 . S
C1747 C1748 1.398 1_565 S
C1747 C1753 1.491 . S
C1748 H1739 0.950 . S
C1748 C1747 1.398 1_545 S
C1748 C1749 1.391 . S
C1749 H1737 0.950 . S
C1749 C1745 1.393 . S
C1749 C1748 1.391 . S
C1750 H1740 0.950 . S
C1750 C1751 1.386 . S
C1750 C1752 1.391 . S
C1751 C1750 1.386 . S
C1751 C1755 1.393 . S
C1752 H1741 0.950 . S
C1752 C1750 1.391 . S
C1752 C1753 1.400 . S
C1753 C1747 1.491 . S
C1753 C1752 1.400 . S
C1753 C1754 1.398 . S
C1754 H1742 0.950 . S
C1754 C1753 1.398 . S
C1754 C1755 1.391 . S
C1755 H1743 0.950 . S
C1755 C1751 1.393 . S
C1755 C1754 1.391 . S
H1756 C1764 0.950 . S
H1757 C1769 0.950 . S
H1758 C1766 0.950 . S
H1759 C1768 0.950 . S
H1760 C1770 0.950 . S
H1761 C1772 0.950 . S
H1762 C1774 0.950 . S
H1763 C1775 0.950 . S
C1764 H1756 0.950 . S
C1764 C1765 1.386 . S
C1764 C1766 1.391 . S
C1765 C1764 1.386 . S
C1765 C1769 1.393 . S
C1766 H1758 0.950 . S
C1766 C1764 1.391 . S
C1766 C1767 1.400 . S
C1767 C1766 1.400 . S
C1767 C1768 1.398 . S
C1767 C1773 1.491 . S
C1768 H1759 0.950 . S
C1768 C1767 1.398 . S
C1768 C1769 1.391 . S
C1769 H1757 0.950 . S
C1769 C1765 1.393 . S
C1769 C1768 1.391 . S
C1770 H1760 0.950 . S
C1770 C1771 1.386 . S
C1770 C1772 1.391 . S
C1771 C1770 1.386 . S
C1771 C1775 1.393 . S
C1772 H1761 0.950 . S
C1772 C1770 1.391 . S
C1772 C1773 1.400 . S
C1773 C1767 1.491 . S
C1773 C1772 1.400 . S
C1773 C1774 1.398 . S
C1774 H1762 0.950 . S
C1774 C1773 1.398 . S
C1774 C1775 1.391 . S
C1775 H1763 0.950 . S
C1775 C1771 1.393 . S
C1775 C1774 1.391 . S
H1776 C1784 0.950 . S
H1777 C1789 0.950 . S
H1778 C1786 0.950 . S
H1779 C1788 0.950 . S
H1780 C1790 0.950 . S
H1781 C1792 0.950 . S
H1782 C1794 0.964 . S
H1783 C1795 0.991 . S
C1784 H1776 0.950 . S
C1784 C1785 1.386 . S
C1784 C1786 1.391 . S
C1785 C1784 1.386 . S
C1785 C1789 1.393 . S
C1786 H1778 0.950 . S
C1786 C1784 1.391 . S
C1786 C1787 1.400 . S
C1787 C1786 1.400 . S
C1787 C1788 1.398 . S
C1787 C1793 1.491 . S
C1788 H1779 0.950 . S
C1788 C1787 1.398 . S
C1788 C1789 1.391 . S
C1789 H1777 0.950 . S
C1789 C1785 1.393 . S
C1789 C1788 1.391 . S
C1790 H1780 0.950 . S
C1790 C1791 1.386 . S
C1790 C1792 1.391 . S
C1791 C1790 1.386 . S
C1791 C1795 1.374 1_554 S
C1792 H1781 0.950 . S
C1792 C1790 1.391 . S
C1792 C1793 1.400 . S
C1793 C1787 1.491 . S
C1793 C1792 1.400 . S
C1793 C1794 1.398 . S
C1794 H1782 0.964 . S
C1794 C1793 1.398 . S
C1794 C1795 1.370 1_554 S
C1795 H1783 0.991 . S
C1795 C1791 1.374 1_556 S
C1795 C1794 1.370 1_556 S
H1796 C1804 0.950 . S
H1797 C1809 0.950 . S
H1798 C1806 0.950 . S
H1799 C1808 0.950 . S
H1800 C1810 0.950 . S
H1801 C1812 0.950 . S
H1802 C1814 0.950 . S
H1803 C1815 0.950 . S
C1804 H1796 0.950 . S
C1804 C1805 1.386 . S
C1804 C1806 1.391 . S
C1805 C1804 1.386 . S
C1805 C1809 1.393 . S
C1806 H1798 0.950 . S
C1806 C1804 1.391 . S
C1806 C1807 1.400 . S
C1807 C1806 1.400 . S
C1807 C1808 1.398 . S
C1807 C1813 1.491 . S
C1808 H1799 0.950 . S
C1808 C1807 1.398 . S
C1808 C1809 1.391 . S
C1809 H1797 0.950 . S
C1809 C1805 1.393 . S
C1809 C1808 1.391 . S
C1810 H1800 0.950 . S
C1810 C1811 1.386 . S
C1810 C1812 1.391 . S
C1811 C1810 1.386 . S
C1811 C1815 1.393 . S
C1812 H1801 0.950 . S
C1812 C1810 1.391 . S
C1812 C1813 1.400 . S
C1813 C1807 1.491 . S
C1813 C1812 1.400 . S
C1813 C1814 1.398 . S
C1814 H1802 0.950 . S
C1814 C1813 1.398 . S
C1814 C1815 1.391 . S
C1815 H1803 0.950 . S
C1815 C1811 1.393 . S
C1815 C1814 1.391 . S
H1816 C1824 0.950 . S
H1817 C1829 0.950 . S
H1818 C1826 0.950 . S
H1819 C1828 0.950 . S
H1820 C1830 0.950 . S
H1821 C1832 0.950 . S
H1822 C1834 0.950 . S
H1823 C1835 0.950 . S
C1824 H1816 0.950 . S
C1824 C1825 1.386 . S
C1824 C1826 1.391 . S
C1825 C1824 1.386 . S
C1825 C1829 1.393 . S
C1826 H1818 0.950 . S
C1826 C1824 1.391 . S
C1826 C1827 1.400 . S
C1827 C1826 1.400 . S
C1827 C1828 1.398 . S
C1827 C1833 1.491 . S
C1828 H1819 0.950 . S
C1828 C1827 1.398 . S
C1828 C1829 1.391 . S
C1829 H1817 0.950 . S
C1829 C1825 1.393 . S
C1829 C1828 1.391 . S
C1830 H1820 0.950 . S
C1830 C1831 1.386 . S
C1830 C1832 1.391 . S
C1831 C1830 1.386 . S
C1831 C1835 1.393 . S
C1832 H1821 0.950 . S
C1832 C1830 1.391 . S
C1832 C1833 1.400 . S
C1833 C1827 1.491 . S
C1833 C1832 1.400 . S
C1833 C1834 1.398 . S
C1834 H1822 0.950 . S
C1834 C1833 1.398 . S
C1834 C1835 1.391 . S
C1835 H1823 0.950 . S
C1835 C1831 1.393 . S
C1835 C1834 1.391 . S
H1836 C1844 0.950 . S
H1837 C1849 0.950 . S
H1838 C1846 0.950 . S
H1839 C1848 0.950 . S
H1840 C1850 0.950 . S
H1841 C1852 0.950 . S
H1842 C1854 0.950 . S
H1843 C1855 0.950 . S
C1844 H1836 0.950 . S
C1844 C1845 1.386 . S
C1844 C1846 1.391 . S
C1845 C1844 1.386 . S
C1845 C1849 1.393 . S
C1846 H1838 0.950 . S
C1846 C1844 1.391 . S
C1846 C1847 1.400 . S
C1847 C1846 1.400 . S
C1847 C1848 1.398 . S
C1847 C1853 1.491 . S
C1848 H1839 0.950 . S
C1848 C1847 1.398 . S
C1848 C1849 1.391 . S
C1849 H1837 0.950 . S
C1849 C1845 1.393 . S
C1849 C1848 1.391 . S
C1850 H1840 0.950 . S
C1850 C1851 1.386 . S
C1850 C1852 1.391 . S
C1851 C1850 1.386 . S
C1851 C1855 1.393 . S
C1852 H1841 0.950 . S
C1852 C1850 1.391 . S
C1852 C1853 1.400 . S
C1853 C1847 1.491 . S
C1853 C1852 1.400 . S
C1853 C1854 1.398 . S
C1854 H1842 0.950 . S
C1854 C1853 1.398 . S
C1854 C1855 1.391 . S
C1855 H1843 0.950 . S
C1855 C1851 1.393 . S
C1855 C1854 1.391 . S
H1856 C1864 0.950 . S
H1857 C1869 0.950 . S
H1858 C1866 0.950 . S
H1859 C1868 0.950 . S
H1860 C1870 0.950 . S
H1861 C1872 0.950 . S
H1862 C1874 0.950 . S
H1863 C1875 0.950 . S
C1864 H1856 0.950 . S
C1864 C1865 1.386 . S
C1864 C1866 1.391 1_545 S
C1865 C1864 1.386 . S
C1865 C1869 1.393 . S
C1866 H1858 0.950 . S
C1866 C1864 1.391 1_565 S
C1866 C1867 1.400 . S
C1867 C1866 1.400 . S
C1867 C1868 1.398 1_565 S
C1867 C1873 1.491 . S
C1868 H1859 0.950 . S
C1868 C1867 1.398 1_545 S
C1868 C1869 1.391 . S
C1869 H1857 0.950 . S
C1869 C1865 1.393 . S
C1869 C1868 1.391 . S
C1870 H1860 0.950 . S
C1870 C1871 1.386 . S
C1870 C1872 1.391 . S
C1871 C1870 1.386 . S
C1871 C1875 1.393 . S
C1872 H1861 0.950 . S
C1872 C1870 1.391 . S
C1872 C1873 1.400 . S
C1873 C1867 1.491 . S
C1873 C1872 1.400 . S
C1873 C1874 1.398 . S
C1874 H1862 0.950 . S
C1874 C1873 1.398 . S
C1874 C1875 1.391 . S
C1875 H1863 0.950 . S
C1875 C1871 1.393 . S
C1875 C1874 1.391 . S
H1876 C1884 0.950 . S
H1877 C1889 0.950 . S
H1878 C1886 0.950 . S
H1879 C1888 0.950 . S
H1880 C1890 0.950 . S
H1881 C1892 0.950 . S
H1882 C1894 0.950 . S
H1883 C1895 0.978 . S
C1884 H1876 0.950 . S
C1884 C1885 1.386 . S
C1884 C1886 1.391 . S
C1885 C1884 1.386 . S
C1885 C1889 1.393 . S
C1886 H1878 0.950 . S
C1886 C1884 1.391 . S
C1886 C1887 1.400 . S
C1887 C1886 1.400 . S
C1887 C1888 1.398 . S
C1887 C1893 1.491 . S
C1888 H1879 0.950 . S
C1888 C1887 1.398 . S
C1888 C1889 1.391 . S
C1889 H1877 0.950 . S
C1889 C1885 1.393 . S
C1889 C1888 1.391 . S
C1890 H1880 0.950 . S
C1890 C1891 1.386 . S
C1890 C1892 1.391 . S
C1891 C1890 1.386 . S
C1891 C1895 1.393 . S
C1892 H1881 0.950 . S
C1892 C1890 1.391 . S
C1892 C1893 1.400 . S
C1893 C1887 1.491 . S
C1893 C1892 1.400 . S
C1893 C1894 1.398 . S
C1894 H1882 0.950 . S
C1894 C1893 1.398 . S
C1894 C1895 1.391 . S
C1895 H1883 0.978 . S
C1895 C1891 1.393 . S
C1895 C1894 1.391 . S
H1896 C1904 0.950 . S
H1897 C1909 0.950 . S
H1898 C1906 0.950 . S
H1899 C1908 0.950 . S
H1900 C1910 0.950 . S
H1901 C1912 0.950 . S
H1902 C1914 0.950 . S
H1903 C1915 0.950 . S
C1904 H1896 0.950 . S
C1904 C1905 1.386 . S
C1904 C1906 1.391 . S
C1905 C1904 1.386 . S
C1905 C1909 1.393 . S
C1906 H1898 0.950 . S
C1906 C1904 1.391 . S
C1906 C1907 1.400 . S
C1907 C1906 1.400 . S
C1907 C1908 1.398 . S
C1907 C1913 1.491 . S
C1908 H1899 0.950 . S
C1908 C1907 1.398 . S
C1908 C1909 1.391 . S
C1909 H1897 0.950 . S
C1909 C1905 1.393 . S
C1909 C1908 1.391 . S
C1910 H1900 0.950 . S
C1910 C1911 1.386 . S
C1910 C1912 1.391 . S
C1911 C1910 1.386 . S
C1911 C1915 1.393 . S
C1912 H1901 0.950 . S
C1912 C1910 1.391 . S
C1912 C1913 1.400 . S
C1913 C1907 1.491 . S
C1913 C1912 1.400 . S
C1913 C1914 1.398 . S
C1914 H1902 0.950 . S
C1914 C1913 1.398 . S
C1914 C1915 1.391 . S
C1915 H1903 0.950 . S
C1915 C1911 1.393 . S
C1915 C1914 1.391 . S
H1916 C1924 0.950 . S
H1917 C1929 0.950 . S
H1918 C1926 0.950 . S
H1919 C1928 0.950 . S
H1920 C1930 0.950 . S
H1921 C1932 0.950 . S
H1922 C1934 0.950 . S
H1923 C1935 0.950 . S
C1924 H1916 0.950 . S
C1924 C1925 1.386 . S
C1924 C1926 1.391 . S
C1925 C1924 1.386 . S
C1925 C1929 1.393 . S
C1926 H1918 0.950 . S
C1926 C1924 1.391 . S
C1926 C1927 1.400 . S
C1927 C1926 1.400 . S
C1927 C1928 1.398 . S
C1927 C1933 1.491 . S
C1928 H1919 0.950 . S
C1928 C1927 1.398 . S
C1928 C1929 1.391 . S
C1929 H1917 0.950 . S
C1929 C1925 1.393 . S
C1929 C1928 1.391 . S
C1930 H1920 0.950 . S
C1930 C1931 1.386 . S
C1930 C1932 1.391 . S
C1931 C1930 1.386 . S
C1931 C1935 1.393 . S
C1932 H1921 0.950 . S
C1932 C1930 1.391 . S
C1932 C1933 1.400 . S
C1933 C1927 1.491 . S
C1933 C1932 1.400 . S
C1933 C1934 1.398 . S
C1934 H1922 0.950 . S
C1934 C1933 1.398 . S
C1934 C1935 1.391 . S
C1935 H1923 0.950 . S
C1935 C1931 1.393 . S
C1935 C1934 1.391 . S
H1936 C1944 0.950 . S
H1937 C1949 0.950 . S
H1938 C1946 0.950 . S
H1939 C1948 0.950 . S
H1940 C1950 0.950 . S
H1941 C1952 0.950 . S
H1942 C1954 0.950 . S
H1943 C1955 0.950 . S
C1944 H1936 0.950 . S
C1944 C1945 1.386 . S
C1944 C1946 1.391 . S
C1945 C1944 1.386 . S
C1945 C1949 1.393 . S
C1946 H1938 0.950 . S
C1946 C1944 1.391 . S
C1946 C1947 1.400 . S
C1947 C1946 1.400 . S
C1947 C1948 1.398 . S
C1947 C1953 1.491 . S
C1948 H1939 0.950 . S
C1948 C1947 1.398 . S
C1948 C1949 1.391 . S
C1949 H1937 0.950 . S
C1949 C1945 1.393 . S
C1949 C1948 1.391 . S
C1950 H1940 0.950 . S
C1950 C1951 1.386 . S
C1950 C1952 1.391 . S
C1951 C1950 1.386 . S
C1951 C1955 1.393 . S
C1952 H1941 0.950 . S
C1952 C1950 1.391 . S
C1952 C1953 1.400 . S
C1953 C1947 1.491 . S
C1953 C1952 1.400 . S
C1953 C1954 1.398 . S
C1954 H1942 0.950 . S
C1954 C1953 1.398 . S
C1954 C1955 1.391 . S
C1955 H1943 0.950 . S
C1955 C1951 1.393 . S
C1955 C1954 1.391 . S
H1956 C1964 0.950 . S
H1957 C1969 0.950 . S
H1958 C1966 0.950 . S
H1959 C1968 0.950 . S
H1960 C1970 0.950 . S
H1961 C1972 0.950 . S
H1962 C1974 0.950 . S
H1963 C1975 0.950 . S
C1964 H1956 0.950 . S
C1964 C1965 1.386 . S
C1964 C1966 1.391 . S
C1965 C1964 1.386 . S
C1965 C1969 1.393 . S
C1966 H1958 0.950 . S
C1966 C1964 1.391 . S
C1966 C1967 1.400 . S
C1967 C1966 1.400 . S
C1967 C1968 1.398 . S
C1967 C1973 1.491 . S
C1968 H1959 0.950 . S
C1968 C1967 1.398 . S
C1968 C1969 1.391 . S
C1969 H1957 0.950 . S
C1969 C1965 1.393 . S
C1969 C1968 1.391 . S
C1970 H1960 0.950 . S
C1970 C1971 1.386 . S
C1970 C1972 1.391 . S
C1971 C1970 1.386 . S
C1971 C1975 1.393 . S
C1972 H1961 0.950 . S
C1972 C1970 1.391 . S
C1972 C1973 1.400 . S
C1973 C1967 1.491 . S
C1973 C1972 1.400 . S
C1973 C1974 1.398 . S
C1974 H1962 0.950 . S
C1974 C1973 1.398 . S
C1974 C1975 1.391 . S
C1975 H1963 0.950 . S
C1975 C1971 1.393 . S
C1975 C1974 1.391 . S
H1976 C1984 0.950 1_655 S
H1977 C1989 0.950 . S
H1978 C1986 0.950 . S
H1979 C1988 0.950 . S
H1980 C1990 0.950 . S
H1981 C1992 0.950 . S
H1982 C1994 0.950 . S
H1983 C1995 0.950 1_556 S
C1984 H1976 0.950 1_455 S
C1984 C1985 1.386 . S
C1984 C1986 1.391 . S
C1985 C1984 1.386 . S
C1985 C1989 1.393 1_556 S
C1986 H1978 0.950 . S
C1986 C1984 1.391 . S
C1986 C1987 1.400 1_556 S
C1987 C1986 1.400 1_554 S
C1987 C1988 1.398 . S
C1987 C1993 1.491 . S
C1988 H1979 0.950 . S
C1988 C1987 1.398 . S
C1988 C1989 1.391 . S
C1989 H1977 0.950 . S
C1989 C1985 1.393 1_554 S
C1989 C1988 1.391 . S
C1990 H1980 0.950 . S
C1990 C1991 1.386 . S
C1990 C1992 1.391 . S
C1991 C1990 1.386 . S
C1991 C1995 1.393 . S
C1992 H1981 0.950 . S
C1992 C1990 1.391 . S
C1992 C1993 1.400 . S
C1993 C1987 1.491 . S
C1993 C1992 1.400 . S
C1993 C1994 1.398 1_554 S
C1994 H1982 0.950 . S
C1994 C1993 1.398 1_556 S
C1994 C1995 1.391 1_556 S
C1995 H1983 0.950 1_554 S
C1995 C1991 1.393 . S
C1995 C1994 1.391 1_554 S
H1996 C2004 0.950 . S
H1997 C2009 0.950 . S
H1998 C2006 0.950 . S
H1999 C2008 0.950 . S
H2000 C2010 0.950 . S
H2001 C2012 0.950 . S
H2002 C2014 0.950 . S
H2003 C2015 0.950 . S
C2004 H1996 0.950 . S
C2004 C2005 1.386 1_655 S
C2004 C2006 1.391 . S
C2005 C2004 1.386 1_455 S
C2005 C2009 1.393 . S
C2006 H1998 0.950 . S
C2006 C2004 1.391 . S
C2006 C2007 1.400 . S
C2007 C2006 1.400 . S
C2007 C2008 1.398 . S
C2007 C2013 1.491 . S
C2008 H1999 0.950 . S
C2008 C2007 1.398 . S
C2008 C2009 1.391 1_655 S
C2009 H1997 0.950 . S
C2009 C2005 1.393 . S
C2009 C2008 1.391 1_455 S
C2010 H2000 0.950 . S
C2010 C2011 1.386 . S
C2010 C2012 1.391 . S
C2011 C2010 1.386 . S
C2011 C2015 1.393 . S
C2012 H2001 0.950 . S
C2012 C2010 1.391 . S
C2012 C2013 1.400 . S
C2013 C2007 1.491 . S
C2013 C2012 1.400 . S
C2013 C2014 1.398 . S
C2014 H2002 0.950 . S
C2014 C2013 1.398 . S
C2014 C2015 1.391 . S
C2015 H2003 0.950 . S
C2015 C2011 1.393 . S
C2015 C2014 1.391 . S
H2016 C2024 0.950 . S
H2017 C2029 0.950 . S
H2018 C2026 0.950 . S
H2019 C2028 0.950 . S
H2020 C2030 0.950 . S
H2021 C2032 0.950 . S
H2022 C2034 0.950 . S
H2023 C2035 0.950 . S
C2024 H2016 0.950 . S
C2024 C2025 1.386 . S
C2024 C2026 1.391 . S
C2025 C2024 1.386 . S
C2025 C2029 1.393 . S
C2026 H2018 0.950 . S
C2026 C2024 1.391 . S
C2026 C2027 1.400 . S
C2027 C2026 1.400 . S
C2027 C2028 1.398 . S
C2027 C2033 1.491 . S
C2028 H2019 0.950 . S
C2028 C2027 1.398 . S
C2028 C2029 1.391 . S
C2029 H2017 0.950 . S
C2029 C2025 1.393 . S
C2029 C2028 1.391 . S
C2030 H2020 0.950 . S
C2030 C2031 1.386 . S
C2030 C2032 1.391 . S
C2031 C2030 1.386 . S
C2031 C2035 1.393 . S
C2032 H2021 0.950 . S
C2032 C2030 1.391 . S
C2032 C2033 1.400 . S
C2033 C2027 1.491 . S
C2033 C2032 1.400 . S
C2033 C2034 1.398 . S
C2034 H2022 0.950 . S
C2034 C2033 1.398 . S
C2034 C2035 1.391 . S
C2035 H2023 0.950 . S
C2035 C2031 1.393 . S
C2035 C2034 1.391 . S
H2036 C2044 0.950 . S
H2037 C2049 0.950 . S
H2038 C2046 0.950 . S
H2039 C2048 0.950 . S
H2040 C2050 0.950 . S
H2041 C2052 0.950 . S
H2042 C2054 0.950 . S
H2043 C2055 0.950 . S
C2044 H2036 0.950 . S
C2044 C2045 1.386 . S
C2044 C2046 1.391 . S
C2045 C2044 1.386 . S
C2045 C2049 1.393 . S
C2046 H2038 0.950 . S
C2046 C2044 1.391 . S
C2046 C2047 1.400 . S
C2047 C2046 1.400 . S
C2047 C2048 1.398 . S
C2047 C2053 1.491 . S
C2048 H2039 0.950 . S
C2048 C2047 1.398 . S
C2048 C2049 1.391 . S
C2049 H2037 0.950 . S
C2049 C2045 1.393 . S
C2049 C2048 1.391 . S
C2050 H2040 0.950 . S
C2050 C2051 1.386 . S
C2050 C2052 1.391 . S
C2051 C2050 1.386 . S
C2051 C2055 1.393 . S
C2052 H2041 0.950 . S
C2052 C2050 1.391 . S
C2052 C2053 1.400 . S
C2053 C2047 1.491 . S
C2053 C2052 1.400 . S
C2053 C2054 1.398 . S
C2054 H2042 0.950 . S
C2054 C2053 1.398 . S
C2054 C2055 1.391 . S
C2055 H2043 0.950 . S
C2055 C2051 1.393 . S
C2055 C2054 1.391 . S
H2056 C2064 0.950 . S
H2057 C2069 0.950 . S
H2058 C2066 0.950 . S
H2059 C2068 0.950 . S
H2060 C2070 0.950 . S
H2061 C2072 0.950 . S
H2062 C2074 0.950 . S
H2063 C2075 0.950 . S
C2064 H2056 0.950 . S
C2064 C2065 1.386 . S
C2064 C2066 1.391 . S
C2065 C2064 1.386 . S
C2065 C2069 1.393 . S
C2066 H2058 0.950 . S
C2066 C2064 1.391 . S
C2066 C2067 1.400 . S
C2067 C2066 1.400 . S
C2067 C2068 1.398 . S
C2067 C2073 1.491 . S
C2068 H2059 0.950 . S
C2068 C2067 1.398 . S
C2068 C2069 1.391 . S
C2069 H2057 0.950 . S
C2069 C2065 1.393 . S
C2069 C2068 1.391 . S
C2070 H2060 0.950 . S
C2070 C2071 1.386 . S
C2070 C2072 1.391 . S
C2071 C2070 1.386 . S
C2071 C2075 1.393 . S
C2072 H2061 0.950 . S
C2072 C2070 1.391 . S
C2072 C2073 1.400 . S
C2073 C2067 1.491 . S
C2073 C2072 1.400 . S
C2073 C2074 1.398 . S
C2074 H2062 0.950 . S
C2074 C2073 1.398 . S
C2074 C2075 1.391 . S
C2075 H2063 0.950 . S
C2075 C2071 1.393 . S
C2075 C2074 1.391 . S
H2076 C2084 0.950 . S
H2077 C2089 0.950 . S
H2078 C2086 0.950 . S
H2079 C2088 0.950 . S
H2080 C2090 0.950 . S
H2081 C2092 0.950 . S
H2082 C2094 0.950 . S
H2083 C2095 0.950 . S
C2084 H2076 0.950 . S
C2084 C2085 1.386 . S
C2084 C2086 1.391 . S
C2085 C2084 1.386 . S
C2085 C2089 1.393 . S
C2086 H2078 0.950 . S
C2086 C2084 1.391 . S
C2086 C2087 1.400 . S
C2087 C2086 1.400 . S
C2087 C2088 1.398 . S
C2087 C2093 1.491 . S
C2088 H2079 0.950 . S
C2088 C2087 1.398 . S
C2088 C2089 1.391 . S
C2089 H2077 0.950 . S
C2089 C2085 1.393 . S
C2089 C2088 1.391 . S
C2090 H2080 0.950 . S
C2090 C2091 1.386 . S
C2090 C2092 1.391 . S
C2091 C2090 1.386 . S
C2091 C2095 1.393 . S
C2092 H2081 0.950 . S
C2092 C2090 1.391 . S
C2092 C2093 1.400 . S
C2093 C2087 1.491 . S
C2093 C2092 1.400 . S
C2093 C2094 1.398 . S
C2094 H2082 0.950 . S
C2094 C2093 1.398 . S
C2094 C2095 1.391 . S
C2095 H2083 0.950 . S
C2095 C2091 1.393 . S
C2095 C2094 1.391 . S
H2096 C2104 0.950 . S
H2097 C2109 0.950 . S
H2098 C2106 0.950 . S
H2099 C2108 0.950 . S
H2100 C2110 0.950 . S
H2101 C2112 0.950 . S
H2102 C2114 0.950 . S
H2103 C2115 0.950 . S
C2104 H2096 0.950 . S
C2104 C2105 1.386 . S
C2104 C2106 1.391 . S
C2105 C2104 1.386 . S
C2105 C2109 1.393 . S
C2106 H2098 0.950 . S
C2106 C2104 1.391 . S
C2106 C2107 1.400 . S
C2107 C2106 1.400 . S
C2107 C2108 1.398 . S
C2107 C2113 1.491 . S
C2108 H2099 0.950 . S
C2108 C2107 1.398 . S
C2108 C2109 1.391 . S
C2109 H2097 0.950 . S
C2109 C2105 1.393 . S
C2109 C2108 1.391 . S
C2110 H2100 0.950 . S
C2110 C2111 1.386 . S
C2110 C2112 1.391 . S
C2111 C2110 1.386 . S
C2111 C2115 1.393 . S
C2112 H2101 0.950 . S
C2112 C2110 1.391 . S
C2112 C2113 1.400 . S
C2113 C2107 1.491 . S
C2113 C2112 1.400 . S
C2113 C2114 1.398 . S
C2114 H2102 0.950 . S
C2114 C2113 1.398 . S
C2114 C2115 1.391 . S
C2115 H2103 0.950 . S
C2115 C2111 1.393 . S
C2115 C2114 1.391 . S
H2116 C2124 0.950 . S
H2117 C2129 0.950 . S
H2118 C2126 0.950 . S
H2119 C2128 0.950 . S
H2120 C2130 0.950 . S
H2121 C2132 0.950 . S
H2122 C2134 0.950 . S
H2123 C2135 0.950 . S
C2124 H2116 0.950 . S
C2124 C2125 1.386 1_556 S
C2124 C2126 1.391 . S
C2125 C2124 1.386 1_554 S
C2125 C2129 1.393 . S
C2126 H2118 0.950 . S
C2126 C2124 1.391 . S
C2126 C2127 1.400 . S
C2127 C2126 1.400 . S
C2127 C2128 1.398 1_556 S
C2127 C2133 1.491 . S
C2128 H2119 0.950 . S
C2128 C2127 1.398 1_554 S
C2128 C2129 1.391 . S
C2129 H2117 0.950 . S
C2129 C2125 1.393 . S
C2129 C2128 1.391 . S
C2130 H2120 0.950 . S
C2130 C2131 1.386 . S
C2130 C2132 1.391 . S
C2131 C2130 1.386 . S
C2131 C2135 1.393 . S
C2132 H2121 0.950 . S
C2132 C2130 1.391 . S
C2132 C2133 1.400 . S
C2133 C2127 1.491 . S
C2133 C2132 1.400 . S
C2133 C2134 1.398 . S
C2134 H2122 0.950 . S
C2134 C2133 1.398 . S
C2134 C2135 1.391 . S
C2135 H2123 0.950 . S
C2135 C2131 1.393 . S
C2135 C2134 1.391 . S
H2136 C2144 0.950 . S
H2137 C2149 0.950 . S
H2138 C2146 0.950 . S
H2139 C2148 0.950 . S
H2140 C2150 0.950 . S
H2141 C2152 0.950 . S
H2142 C2154 0.950 . S
H2143 C2155 0.950 . S
C2144 H2136 0.950 . S
C2144 C2145 1.386 . S
C2144 C2146 1.391 . S
C2145 C2144 1.386 . S
C2145 C2149 1.393 . S
C2146 H2138 0.950 . S
C2146 C2144 1.391 . S
C2146 C2147 1.400 . S
C2147 C2146 1.400 . S
C2147 C2148 1.398 . S
C2147 C2153 1.491 . S
C2148 H2139 0.950 . S
C2148 C2147 1.398 . S
C2148 C2149 1.391 . S
C2149 H2137 0.950 . S
C2149 C2145 1.393 . S
C2149 C2148 1.391 . S
C2150 H2140 0.950 . S
C2150 C2151 1.386 . S
C2150 C2152 1.391 . S
C2151 C2150 1.386 . S
C2151 C2155 1.393 . S
C2152 H2141 0.950 . S
C2152 C2150 1.391 . S
C2152 C2153 1.400 . S
C2153 C2147 1.491 . S
C2153 C2152 1.400 . S
C2153 C2154 1.398 . S
C2154 H2142 0.950 . S
C2154 C2153 1.398 . S
C2154 C2155 1.391 . S
C2155 H2143 0.950 . S
C2155 C2151 1.393 . S
C2155 C2154 1.391 . S
H2156 C2164 0.950 . S
H2157 C2169 0.950 . S
H2158 C2166 0.950 . S
H2159 C2168 0.950 . S
H2160 C2170 0.950 . S
H2161 C2172 0.950 . S
H2162 C2174 0.950 . S
H2163 C2175 0.950 . S
C2164 H2156 0.950 . S
C2164 C2165 1.386 . S
C2164 C2166 1.391 . S
C2165 C2164 1.386 . S
C2165 C2169 1.393 . S
C2166 H2158 0.950 . S
C2166 C2164 1.391 . S
C2166 C2167 1.400 . S
C2167 C2166 1.400 . S
C2167 C2168 1.398 . S
C2167 C2173 1.491 . S
C2168 H2159 0.950 . S
C2168 C2167 1.398 . S
C2168 C2169 1.391 . S
C2169 H2157 0.950 . S
C2169 C2165 1.393 . S
C2169 C2168 1.391 . S
C2170 H2160 0.950 . S
C2170 C2171 1.386 . S
C2170 C2172 1.391 . S
C2171 C2170 1.386 . S
C2171 C2175 1.393 . S
C2172 H2161 0.950 . S
C2172 C2170 1.391 . S
C2172 C2173 1.400 . S
C2173 C2167 1.491 . S
C2173 C2172 1.400 . S
C2173 C2174 1.398 . S
C2174 H2162 0.950 . S
C2174 C2173 1.398 . S
C2174 C2175 1.391 . S
C2175 H2163 0.950 . S
C2175 C2171 1.393 . S
C2175 C2174 1.391 . S
H2176 C2184 0.950 . S
H2177 C2189 0.950 . S
H2178 C2186 0.950 . S
H2179 C2188 0.950 . S
H2180 C2190 0.950 . S
H2181 C2192 0.950 . S
H2182 C2194 0.950 . S
H2183 C2195 0.950 . S
C2184 H2176 0.950 . S
C2184 C2185 1.386 . S
C2184 C2186 1.391 . S
C2185 C2184 1.386 . S
C2185 C2189 1.393 . S
C2186 H2178 0.950 . S
C2186 C2184 1.391 . S
C2186 C2187 1.400 . S
C2187 C2186 1.400 . S
C2187 C2188 1.398 . S
C2187 C2193 1.491 . S
C2188 H2179 0.950 . S
C2188 C2187 1.398 . S
C2188 C2189 1.391 . S
C2189 H2177 0.950 . S
C2189 C2185 1.393 . S
C2189 C2188 1.391 . S
C2190 H2180 0.950 . S
C2190 C2191 1.386 . S
C2190 C2192 1.391 . S
C2191 C2190 1.386 . S
C2191 C2195 1.393 . S
C2192 H2181 0.950 . S
C2192 C2190 1.391 . S
C2192 C2193 1.400 . S
C2193 C2187 1.491 . S
C2193 C2192 1.400 . S
C2193 C2194 1.398 . S
C2194 H2182 0.950 . S
C2194 C2193 1.398 . S
C2194 C2195 1.391 . S
C2195 H2183 0.950 . S
C2195 C2191 1.393 . S
C2195 C2194 1.391 . S
H2196 C2204 0.950 . S
H2197 C2209 0.950 . S
H2198 C2206 0.950 . S
H2199 C2208 0.950 . S
H2200 C2210 0.950 . S
H2201 C2212 0.950 . S
H2202 C2214 0.950 . S
H2203 C2215 0.950 . S
C2204 H2196 0.950 . S
C2204 C2205 1.386 . S
C2204 C2206 1.391 . S
C2205 C2204 1.386 . S
C2205 C2209 1.393 . S
C2206 H2198 0.950 . S
C2206 C2204 1.391 . S
C2206 C2207 1.400 . S
C2207 C2206 1.400 . S
C2207 C2208 1.398 . S
C2207 C2213 1.491 . S
C2208 H2199 0.950 . S
C2208 C2207 1.398 . S
C2208 C2209 1.391 . S
C2209 H2197 0.950 . S
C2209 C2205 1.393 . S
C2209 C2208 1.391 . S
C2210 H2200 0.950 . S
C2210 C2211 1.386 . S
C2210 C2212 1.391 . S
C2211 C2210 1.386 . S
C2211 C2215 1.393 . S
C2212 H2201 0.950 . S
C2212 C2210 1.391 . S
C2212 C2213 1.400 . S
C2213 C2207 1.491 . S
C2213 C2212 1.400 . S
C2213 C2214 1.398 . S
C2214 H2202 0.950 . S
C2214 C2213 1.398 . S
C2214 C2215 1.391 . S
C2215 H2203 0.950 . S
C2215 C2211 1.393 . S
C2215 C2214 1.391 . S
H2216 C2224 0.950 . S
H2217 C2229 0.950 . S
H2218 C2226 0.950 . S
H2219 C2228 0.950 . S
H2220 C2230 0.950 . S
H2221 C2232 0.950 . S
H2222 C2234 0.950 . S
H2223 C2235 0.950 . S
C2224 H2216 0.950 . S
C2224 C2225 1.386 . S
C2224 C2226 1.391 . S
C2225 C2224 1.386 . S
C2225 C2229 1.393 . S
C2226 H2218 0.950 . S
C2226 C2224 1.391 . S
C2226 C2227 1.400 . S
C2227 C2226 1.400 . S
C2227 C2228 1.398 . S
C2227 C2233 1.491 . S
C2228 H2219 0.950 . S
C2228 C2227 1.398 . S
C2228 C2229 1.391 . S
C2229 H2217 0.950 . S
C2229 C2225 1.393 . S
C2229 C2228 1.391 . S
C2230 H2220 0.950 . S
C2230 C2231 1.386 . S
C2230 C2232 1.391 . S
C2231 C2230 1.386 . S
C2231 C2235 1.393 . S
C2232 H2221 0.950 . S
C2232 C2230 1.391 . S
C2232 C2233 1.400 . S
C2233 C2227 1.491 . S
C2233 C2232 1.400 . S
C2233 C2234 1.398 . S
C2234 H2222 0.950 . S
C2234 C2233 1.398 . S
C2234 C2235 1.391 . S
C2235 H2223 0.950 . S
C2235 C2231 1.393 . S
C2235 C2234 1.391 . S
H2236 C2244 0.950 . S
H2237 C2249 0.950 . S
H2238 C2246 0.950 . S
H2239 C2248 0.950 . S
H2240 C2250 0.950 . S
H2241 C2252 0.950 . S
H2242 C2254 0.950 . S
H2243 C2255 0.950 . S
C2244 H2236 0.950 . S
C2244 C2245 1.386 . S
C2244 C2246 1.391 . S
C2245 C2244 1.386 . S
C2245 C2249 1.393 . S
C2246 H2238 0.950 . S
C2246 C2244 1.391 . S
C2246 C2247 1.400 . S
C2247 C2246 1.400 . S
C2247 C2248 1.398 . S
C2247 C2253 1.491 . S
C2248 H2239 0.950 . S
C2248 C2247 1.398 . S
C2248 C2249 1.391 . S
C2249 H2237 0.950 . S
C2249 C2245 1.393 . S
C2249 C2248 1.391 . S
C2250 H2240 0.950 . S
C2250 C2251 1.386 . S
C2250 C2252 1.391 . S
C2251 C2250 1.386 . S
C2251 C2255 1.393 . S
C2252 H2241 0.950 . S
C2252 C2250 1.391 . S
C2252 C2253 1.400 . S
C2253 C2247 1.491 . S
C2253 C2252 1.400 . S
C2253 C2254 1.398 . S
C2254 H2242 0.950 . S
C2254 C2253 1.398 . S
C2254 C2255 1.391 . S
C2255 H2243 0.950 . S
C2255 C2251 1.393 . S
C2255 C2254 1.391 . S
H2256 C2264 0.950 . S
H2257 C2269 0.950 . S
H2258 C2266 0.950 . S
H2259 C2268 0.950 . S
H2260 C2270 0.950 . S
H2261 C2272 0.950 . S
H2262 C2274 0.950 . S
H2263 C2275 0.950 . S
C2264 H2256 0.950 . S
C2264 C2265 1.386 . S
C2264 C2266 1.391 . S
C2265 C2264 1.386 . S
C2265 C2269 1.393 . S
C2266 H2258 0.950 . S
C2266 C2264 1.391 . S
C2266 C2267 1.400 . S
C2267 C2266 1.400 . S
C2267 C2268 1.398 . S
C2267 C2273 1.491 . S
C2268 H2259 0.950 . S
C2268 C2267 1.398 . S
C2268 C2269 1.391 . S
C2269 H2257 0.950 . S
C2269 C2265 1.393 . S
C2269 C2268 1.391 . S
C2270 H2260 0.950 . S
C2270 C2271 1.386 . S
C2270 C2272 1.391 . S
C2271 C2270 1.386 . S
C2271 C2275 1.393 . S
C2272 H2261 0.950 . S
C2272 C2270 1.391 . S
C2272 C2273 1.400 . S
C2273 C2267 1.491 . S
C2273 C2272 1.400 . S
C2273 C2274 1.398 . S
C2274 H2262 0.950 . S
C2274 C2273 1.398 . S
C2274 C2275 1.391 . S
C2275 H2263 0.950 . S
C2275 C2271 1.393 . S
C2275 C2274 1.391 . S
H2276 C2284 0.950 . S
H2277 C2289 0.950 . S
H2278 C2286 0.950 . S
H2279 C2288 0.950 . S
H2280 C2290 0.950 . S
H2281 C2292 0.950 . S
H2282 C2294 0.950 . S
H2283 C2295 0.950 . S
C2284 H2276 0.950 . S
C2284 C2285 1.386 . S
C2284 C2286 1.391 . S
C2285 C2284 1.386 . S
C2285 C2289 1.393 . S
C2286 H2278 0.950 . S
C2286 C2284 1.391 . S
C2286 C2287 1.400 . S
C2287 C2286 1.400 . S
C2287 C2288 1.398 . S
C2287 C2293 1.491 . S
C2288 H2279 0.950 . S
C2288 C2287 1.398 . S
C2288 C2289 1.391 . S
C2289 H2277 0.950 . S
C2289 C2285 1.393 . S
C2289 C2288 1.391 . S
C2290 H2280 0.950 . S
C2290 C2291 1.386 . S
C2290 C2292 1.391 . S
C2291 C2290 1.386 . S
C2291 C2295 1.393 . S
C2292 H2281 0.950 . S
C2292 C2290 1.391 . S
C2292 C2293 1.400 . S
C2293 C2287 1.491 . S
C2293 C2292 1.400 . S
C2293 C2294 1.398 . S
C2294 H2282 0.950 . S
C2294 C2293 1.398 . S
C2294 C2295 1.391 . S
C2295 H2283 0.950 . S
C2295 C2291 1.393 . S
C2295 C2294 1.391 . S
H2296 C2304 0.950 . S
H2297 C2309 0.947 . S
H2298 C2306 0.950 . S
H2299 C2308 0.950 . S
H2300 C2310 0.950 . S
H2301 C2312 0.950 . S
H2302 C2314 0.950 . S
H2303 C2315 0.950 . S
C2304 H2296 0.950 . S
C2304 C2305 1.386 . S
C2304 C2306 1.391 . S
C2305 C2304 1.386 . S
C2305 C2309 1.392 1_565 S
C2306 H2298 0.950 . S
C2306 C2304 1.391 . S
C2306 C2307 1.400 . S
C2307 C2306 1.400 . S
C2307 C2308 1.398 . S
C2307 C2313 1.491 . S
C2308 H2299 0.950 . S
C2308 C2307 1.398 . S
C2308 C2309 1.394 1_565 S
C2309 H2297 0.947 . S
C2309 C2305 1.392 1_545 S
C2309 C2308 1.394 1_545 S
C2310 H2300 0.950 . S
C2310 C2311 1.386 . S
C2310 C2312 1.391 . S
C2311 C2310 1.386 . S
C2311 C2315 1.393 . S
C2312 H2301 0.950 . S
C2312 C2310 1.391 . S
C2312 C2313 1.400 . S
C2313 C2307 1.491 . S
C2313 C2312 1.400 . S
C2313 C2314 1.398 . S
C2314 H2302 0.950 . S
C2314 C2313 1.398 . S
C2314 C2315 1.391 . S
C2315 H2303 0.950 . S
C2315 C2311 1.393 . S
C2315 C2314 1.391 . S
H2316 C2324 0.950 . S
H2317 C2329 0.950 . S
H2318 C2326 0.966 . S
H2319 C2328 0.950 . S
H2320 C2330 0.948 1_565 S
H2321 C2332 0.950 1_556 S
H2322 C2334 0.950 . S
H2323 C2335 0.950 . S
C2324 H2316 0.950 . S
C2324 C2325 1.386 . S
C2324 C2326 1.391 . S
C2325 C2324 1.386 . S
C2325 C2329 1.393 1_554 S
C2326 H2318 0.966 . S
C2326 C2324 1.391 . S
C2326 C2327 1.400 . S
C2327 C2326 1.400 . S
C2327 C2328 1.398 1_554 S
C2327 C2333 1.491 . S
C2328 H2319 0.950 . S
C2328 C2327 1.398 1_556 S
C2328 C2329 1.391 . S
C2329 H2317 0.950 . S
C2329 C2325 1.393 1_556 S
C2329 C2328 1.391 . S
C2330 H2320 0.948 1_545 S
C2330 C2331 1.386 . S
C2330 C2332 1.391 1_545 S
C2331 C2330 1.386 . S
C2331 C2335 1.393 . S
C2332 H2321 0.950 1_554 S
C2332 C2330 1.391 1_565 S
C2332 C2333 1.400 . S
C2333 C2327 1.491 . S
C2333 C2332 1.400 . S
C2333 C2334 1.398 1_565 S
C2334 H2322 0.950 . S
C2334 C2333 1.398 1_545 S
C2334 C2335 1.391 . S
C2335 H2323 0.950 . S
C2335 C2331 1.393 . S
C2335 C2334 1.391 . S
H2336 C2344 0.950 . S
H2337 C2349 0.950 . S
H2338 C2346 0.950 . S
H2339 C2348 0.950 . S
H2340 C2350 0.950 . S
H2341 C2352 0.950 . S
H2342 C2354 0.950 . S
H2343 C2355 0.950 . S
C2344 H2336 0.950 . S
C2344 C2345 1.386 . S
C2344 C2346 1.391 . S
C2345 C2344 1.386 . S
C2345 C2349 1.393 . S
C2346 H2338 0.950 . S
C2346 C2344 1.391 . S
C2346 C2347 1.400 . S
C2347 C2346 1.400 . S
C2347 C2348 1.398 . S
C2347 C2353 1.491 . S
C2348 H2339 0.950 . S
C2348 C2347 1.398 . S
C2348 C2349 1.391 . S
C2349 H2337 0.950 . S
C2349 C2345 1.393 . S
C2349 C2348 1.391 . S
C2350 H2340 0.950 . S
C2350 C2351 1.386 . S
C2350 C2352 1.391 . S
C2351 C2350 1.386 . S
C2351 C2355 1.393 . S
C2352 H2341 0.950 . S
C2352 C2350 1.391 . S
C2352 C2353 1.400 . S
C2353 C2347 1.491 . S
C2353 C2352 1.400 . S
C2353 C2354 1.398 . S
C2354 H2342 0.950 . S
C2354 C2353 1.398 . S
C2354 C2355 1.391 . S
C2355 H2343 0.950 . S
C2355 C2351 1.393 . S
C2355 C2354 1.391 . S
H2356 C2364 0.950 . S
H2357 C2369 0.950 . S
H2358 C2366 0.950 . S
H2359 C2368 0.950 . S
H2360 C2370 0.950 . S
H2361 C2372 0.950 . S
H2362 C2374 0.950 . S
H2363 C2375 0.950 . S
C2364 H2356 0.950 . S
C2364 C2365 1.386 . S
C2364 C2366 1.391 . S
C2365 C2364 1.386 . S
C2365 C2369 1.393 . S
C2366 H2358 0.950 . S
C2366 C2364 1.391 . S
C2366 C2367 1.400 . S
C2367 C2366 1.400 . S
C2367 C2368 1.398 . S
C2367 C2373 1.491 . S
C2368 H2359 0.950 . S
C2368 C2367 1.398 . S
C2368 C2369 1.391 . S
C2369 H2357 0.950 . S
C2369 C2365 1.393 . S
C2369 C2368 1.391 . S
C2370 H2360 0.950 . S
C2370 C2371 1.386 . S
C2370 C2372 1.391 . S
C2371 C2370 1.386 . S
C2371 C2375 1.393 . S
C2372 H2361 0.950 . S
C2372 C2370 1.391 . S
C2372 C2373 1.400 . S
C2373 C2367 1.491 . S
C2373 C2372 1.400 . S
C2373 C2374 1.398 . S
C2374 H2362 0.950 . S
C2374 C2373 1.398 . S
C2374 C2375 1.391 . S
C2375 H2363 0.950 . S
C2375 C2371 1.393 . S
C2375 C2374 1.391 . S
H2376 C2384 0.950 . S
H2377 C2389 0.950 . S
H2378 C2386 0.950 . S
H2379 C2388 0.950 . S
H2380 C2390 0.950 . S
H2381 C2392 0.950 . S
H2382 C2394 0.950 . S
H2383 C2395 0.950 . S
C2384 H2376 0.950 . S
C2384 C2385 1.386 . S
C2384 C2386 1.391 . S
C2385 C2384 1.386 . S
C2385 C2389 1.393 . S
C2386 H2378 0.950 . S
C2386 C2384 1.391 . S
C2386 C2387 1.400 . S
C2387 C2386 1.400 . S
C2387 C2388 1.398 . S
C2387 C2393 1.491 . S
C2388 H2379 0.950 . S
C2388 C2387 1.398 . S
C2388 C2389 1.391 . S
C2389 H2377 0.950 . S
C2389 C2385 1.393 . S
C2389 C2388 1.391 . S
C2390 H2380 0.950 . S
C2390 C2391 1.386 . S
C2390 C2392 1.391 . S
C2391 C2390 1.386 . S
C2391 C2395 1.393 . S
C2392 H2381 0.950 . S
C2392 C2390 1.391 . S
C2392 C2393 1.400 . S
C2393 C2387 1.491 . S
C2393 C2392 1.400 . S
C2393 C2394 1.398 . S
C2394 H2382 0.950 . S
C2394 C2393 1.398 . S
C2394 C2395 1.391 . S
C2395 H2383 0.950 . S
C2395 C2391 1.393 . S
C2395 C2394 1.391 . S
H2396 C2404 0.950 . S
H2397 C2409 0.950 . S
H2398 C2406 0.950 . S
H2399 C2408 0.950 . S
H2400 C2410 0.950 . S
H2401 C2412 0.950 . S
H2402 C2414 0.950 . S
H2403 C2415 0.950 . S
C2404 H2396 0.950 . S
C2404 C2405 1.386 . S
C2404 C2406 1.391 . S
C2405 C2404 1.386 . S
C2405 C2409 1.393 . S
C2406 H2398 0.950 . S
C2406 C2404 1.391 . S
C2406 C2407 1.400 . S
C2407 C2406 1.400 . S
C2407 C2408 1.398 . S
C2407 C2413 1.491 . S
C2408 H2399 0.950 . S
C2408 C2407 1.398 . S
C2408 C2409 1.391 . S
C2409 H2397 0.950 . S
C2409 C2405 1.393 . S
C2409 C2408 1.391 . S
C2410 H2400 0.950 . S
C2410 C2411 1.386 . S
C2410 C2412 1.391 . S
C2411 C2410 1.386 . S
C2411 C2415 1.393 . S
C2412 H2401 0.950 . S
C2412 C2410 1.391 . S
C2412 C2413 1.400 . S
C2413 C2407 1.491 . S
C2413 C2412 1.400 . S
C2413 C2414 1.398 . S
C2414 H2402 0.950 . S
C2414 C2413 1.398 . S
C2414 C2415 1.391 . S
C2415 H2403 0.950 . S
C2415 C2411 1.393 . S
C2415 C2414 1.391 . S
H2416 C2424 0.950 . S
H2417 C2429 0.950 . S
H2418 C2426 0.950 . S
H2419 C2428 0.950 . S
H2420 C2430 0.950 . S
H2421 C2432 0.950 . S
H2422 C2434 0.950 . S
H2423 C2435 0.950 . S
C2424 H2416 0.950 . S
C2424 C2425 1.386 . S
C2424 C2426 1.391 . S
C2425 C2424 1.386 . S
C2425 C2429 1.393 . S
C2426 H2418 0.950 . S
C2426 C2424 1.391 . S
C2426 C2427 1.400 . S
C2427 C2426 1.400 . S
C2427 C2428 1.398 . S
C2427 C2433 1.491 . S
C2428 H2419 0.950 . S
C2428 C2427 1.398 . S
C2428 C2429 1.391 . S
C2429 H2417 0.950 . S
C2429 C2425 1.393 . S
C2429 C2428 1.391 . S
C2430 H2420 0.950 . S
C2430 C2431 1.386 . S
C2430 C2432 1.391 . S
C2431 C2430 1.386 . S
C2431 C2435 1.393 . S
C2432 H2421 0.950 . S
C2432 C2430 1.391 . S
C2432 C2433 1.400 . S
C2433 C2427 1.491 . S
C2433 C2432 1.400 . S
C2433 C2434 1.398 . S
C2434 H2422 0.950 . S
C2434 C2433 1.398 . S
C2434 C2435 1.391 . S
C2435 H2423 0.950 . S
C2435 C2431 1.393 . S
C2435 C2434 1.391 . S
H2436 C2444 0.950 . S
H2437 C2449 0.950 . S
H2438 C2446 0.950 . S
H2439 C2448 0.950 . S
H2440 C2450 0.950 . S
H2441 C2452 0.950 . S
H2442 C2454 0.950 . S
H2443 C2455 0.950 . S
C2444 H2436 0.950 . S
C2444 C2445 1.386 . S
C2444 C2446 1.391 . S
C2445 C2444 1.386 . S
C2445 C2449 1.393 . S
C2446 H2438 0.950 . S
C2446 C2444 1.391 . S
C2446 C2447 1.400 . S
C2447 C2446 1.400 . S
C2447 C2448 1.398 . S
C2447 C2453 1.491 . S
C2448 H2439 0.950 . S
C2448 C2447 1.398 . S
C2448 C2449 1.391 . S
C2449 H2437 0.950 . S
C2449 C2445 1.393 . S
C2449 C2448 1.391 . S
C2450 H2440 0.950 . S
C2450 C2451 1.386 . S
C2450 C2452 1.391 . S
C2451 C2450 1.386 . S
C2451 C2455 1.393 . S
C2452 H2441 0.950 . S
C2452 C2450 1.391 . S
C2452 C2453 1.400 . S
C2453 C2447 1.491 . S
C2453 C2452 1.400 . S
C2453 C2454 1.398 . S
C2454 H2442 0.950 . S
C2454 C2453 1.398 . S
C2454 C2455 1.391 . S
C2455 H2443 0.950 . S
C2455 C2451 1.393 . S
C2455 C2454 1.391 . S
H2456 C2464 0.950 . S
H2457 C2469 0.950 . S
H2458 C2466 0.950 . S
H2459 C2468 0.950 . S
H2460 C2470 0.950 . S
H2461 C2472 0.950 . S
H2462 C2474 0.950 . S
H2463 C2475 0.950 . S
C2464 H2456 0.950 . S
C2464 C2465 1.386 . S
C2464 C2466 1.391 . S
C2465 C2464 1.386 . S
C2465 C2469 1.393 . S
C2466 H2458 0.950 . S
C2466 C2464 1.391 . S
C2466 C2467 1.400 . S
C2467 C2466 1.400 . S
C2467 C2468 1.398 . S
C2467 C2473 1.491 . S
C2468 H2459 0.950 . S
C2468 C2467 1.398 . S
C2468 C2469 1.391 . S
C2469 H2457 0.950 . S
C2469 C2465 1.393 . S
C2469 C2468 1.391 . S
C2470 H2460 0.950 . S
C2470 C2471 1.386 . S
C2470 C2472 1.391 . S
C2471 C2470 1.386 . S
C2471 C2475 1.393 . S
C2472 H2461 0.950 . S
C2472 C2470 1.391 . S
C2472 C2473 1.400 . S
C2473 C2467 1.491 . S
C2473 C2472 1.400 . S
C2473 C2474 1.398 . S
C2474 H2462 0.950 . S
C2474 C2473 1.398 . S
C2474 C2475 1.391 . S
C2475 H2463 0.950 . S
C2475 C2471 1.393 . S
C2475 C2474 1.391 . S
H2476 C2484 0.950 . S
H2477 C2489 0.950 . S
H2478 C2486 0.950 . S
H2479 C2488 0.950 . S
H2480 C2490 0.950 . S
H2481 C2492 0.950 . S
H2482 C2494 0.950 . S
H2483 C2495 0.950 . S
C2484 H2476 0.950 . S
C2484 C2485 1.386 . S
C2484 C2486 1.391 . S
C2485 C2484 1.386 . S
C2485 C2489 1.393 . S
C2486 H2478 0.950 . S
C2486 C2484 1.391 . S
C2486 C2487 1.400 . S
C2487 C2486 1.400 . S
C2487 C2488 1.398 . S
C2487 C2493 1.491 . S
C2488 H2479 0.950 . S
C2488 C2487 1.398 . S
C2488 C2489 1.391 . S
C2489 H2477 0.950 . S
C2489 C2485 1.393 . S
C2489 C2488 1.391 . S
C2490 H2480 0.950 . S
C2490 C2491 1.386 . S
C2490 C2492 1.391 . S
C2491 C2490 1.386 . S
C2491 C2495 1.393 . S
C2492 H2481 0.950 . S
C2492 C2490 1.391 . S
C2492 C2493 1.400 . S
C2493 C2487 1.491 . S
C2493 C2492 1.400 . S
C2493 C2494 1.398 . S
C2494 H2482 0.950 . S
C2494 C2493 1.398 . S
C2494 C2495 1.391 . S
C2495 H2483 0.950 . S
C2495 C2491 1.393 . S
C2495 C2494 1.391 . S
H2496 C2504 0.950 . S
H2497 C2509 0.950 . S
H2498 C2506 0.950 . S
H2499 C2508 0.950 . S
H2500 C2510 0.950 . S
H2501 C2512 0.950 . S
H2502 C2514 0.950 . S
H2503 C2515 0.950 . S
C2504 H2496 0.950 . S
C2504 C2505 1.386 . S
C2504 C2506 1.391 . S
C2505 C2504 1.386 . S
C2505 C2509 1.393 . S
C2506 H2498 0.950 . S
C2506 C2504 1.391 . S
C2506 C2507 1.400 . S
C2507 C2506 1.400 . S
C2507 C2508 1.398 . S
C2507 C2513 1.491 . S
C2508 H2499 0.950 . S
C2508 C2507 1.398 . S
C2508 C2509 1.391 . S
C2509 H2497 0.950 . S
C2509 C2505 1.393 . S
C2509 C2508 1.391 . S
C2510 H2500 0.950 . S
C2510 C2511 1.386 . S
C2510 C2512 1.391 . S
C2511 C2510 1.386 . S
C2511 C2515 1.393 . S
C2512 H2501 0.950 . S
C2512 C2510 1.391 . S
C2512 C2513 1.400 . S
C2513 C2507 1.491 . S
C2513 C2512 1.400 . S
C2513 C2514 1.398 . S
C2514 H2502 0.950 . S
C2514 C2513 1.398 . S
C2514 C2515 1.391 . S
C2515 H2503 0.950 . S
C2515 C2511 1.393 . S
C2515 C2514 1.391 . S
H2516 C2524 0.950 . S
H2517 C2529 0.950 . S
H2518 C2526 0.950 . S
H2519 C2528 0.950 . S
H2520 C2530 0.950 . S
H2521 C2532 0.950 . S
H2522 C2534 0.950 . S
H2523 C2535 0.950 . S
C2524 H2516 0.950 . S
C2524 C2525 1.386 . S
C2524 C2526 1.391 . S
C2525 C2524 1.386 . S
C2525 C2529 1.393 . S
C2526 H2518 0.950 . S
C2526 C2524 1.391 . S
C2526 C2527 1.400 . S
C2527 C2526 1.400 . S
C2527 C2528 1.398 . S
C2527 C2533 1.491 . S
C2528 H2519 0.950 . S
C2528 C2527 1.398 . S
C2528 C2529 1.391 . S
C2529 H2517 0.950 . S
C2529 C2525 1.393 . S
C2529 C2528 1.391 . S
C2530 H2520 0.950 . S
C2530 C2531 1.386 . S
C2530 C2532 1.391 . S
C2531 C2530 1.386 . S
C2531 C2535 1.393 . S
C2532 H2521 0.950 . S
C2532 C2530 1.391 . S
C2532 C2533 1.400 . S
C2533 C2527 1.491 . S
C2533 C2532 1.400 . S
C2533 C2534 1.398 . S
C2534 H2522 0.950 . S
C2534 C2533 1.398 . S
C2534 C2535 1.391 . S
C2535 H2523 0.950 . S
C2535 C2531 1.393 . S
C2535 C2534 1.391 . S
H2536 C2544 0.950 . S
H2537 C2549 0.950 . S
H2538 C2546 0.950 . S
H2539 C2548 0.950 . S
H2540 C2550 0.950 . S
H2541 C2552 0.950 . S
H2542 C2554 0.950 . S
H2543 C2555 0.950 . S
C2544 H2536 0.950 . S
C2544 C2545 1.386 . S
C2544 C2546 1.391 . S
C2545 C2544 1.386 . S
C2545 C2549 1.393 . S
C2546 H2538 0.950 . S
C2546 C2544 1.391 . S
C2546 C2547 1.400 . S
C2547 C2546 1.400 . S
C2547 C2548 1.398 . S
C2547 C2553 1.491 . S
C2548 H2539 0.950 . S
C2548 C2547 1.398 . S
C2548 C2549 1.391 . S
C2549 H2537 0.950 . S
C2549 C2545 1.393 . S
C2549 C2548 1.391 . S
C2550 H2540 0.950 . S
C2550 C2551 1.386 . S
C2550 C2552 1.391 . S
C2551 C2550 1.386 . S
C2551 C2555 1.393 . S
C2552 H2541 0.950 . S
C2552 C2550 1.391 . S
C2552 C2553 1.400 . S
C2553 C2547 1.491 . S
C2553 C2552 1.400 . S
C2553 C2554 1.398 . S
C2554 H2542 0.950 . S
C2554 C2553 1.398 . S
C2554 C2555 1.391 . S
C2555 H2543 0.950 . S
C2555 C2551 1.393 . S
C2555 C2554 1.391 . S
H2556 C2564 0.950 . S
H2557 C2569 0.950 . S
H2558 C2566 0.950 . S
H2559 C2568 0.950 . S
H2560 C2570 0.950 . S
H2561 C2572 0.950 . S
H2562 C2574 0.950 . S
H2563 C2575 0.950 . S
C2564 H2556 0.950 . S
C2564 C2565 1.386 . S
C2564 C2566 1.391 . S
C2565 C2564 1.386 . S
C2565 C2569 1.393 . S
C2566 H2558 0.950 . S
C2566 C2564 1.391 . S
C2566 C2567 1.400 . S
C2567 C2566 1.400 . S
C2567 C2568 1.398 . S
C2567 C2573 1.491 . S
C2568 H2559 0.950 . S
C2568 C2567 1.398 . S
C2568 C2569 1.391 . S
C2569 H2557 0.950 . S
C2569 C2565 1.393 . S
C2569 C2568 1.391 . S
C2570 H2560 0.950 . S
C2570 C2571 1.386 . S
C2570 C2572 1.391 . S
C2571 C2570 1.386 . S
C2571 C2575 1.393 . S
C2572 H2561 0.950 . S
C2572 C2570 1.391 . S
C2572 C2573 1.400 . S
C2573 C2567 1.491 . S
C2573 C2572 1.400 . S
C2573 C2574 1.398 . S
C2574 H2562 0.950 . S
C2574 C2573 1.398 . S
C2574 C2575 1.391 . S
C2575 H2563 0.950 . S
C2575 C2571 1.393 . S
C2575 C2574 1.391 . S
H2576 C2584 0.950 . S
H2577 C2589 0.950 . S
H2578 C2586 0.950 . S
H2579 C2588 0.950 . S
H2580 C2590 0.950 . S
H2581 C2592 0.950 . S
H2582 C2594 0.950 . S
H2583 C2595 0.950 . S
C2584 H2576 0.950 . S
C2584 C2585 1.386 . S
C2584 C2586 1.391 . S
C2585 C2584 1.386 . S
C2585 C2589 1.393 . S
C2586 H2578 0.950 . S
C2586 C2584 1.391 . S
C2586 C2587 1.400 . S
C2587 C2586 1.400 . S
C2587 C2588 1.398 . S
C2587 C2593 1.491 . S
C2588 H2579 0.950 . S
C2588 C2587 1.398 . S
C2588 C2589 1.391 . S
C2589 H2577 0.950 . S
C2589 C2585 1.393 . S
C2589 C2588 1.391 . S
C2590 H2580 0.950 . S
C2590 C2591 1.386 . S
C2590 C2592 1.391 . S
C2591 C2590 1.386 . S
C2591 C2595 1.393 . S
C2592 H2581 0.950 . S
C2592 C2590 1.391 . S
C2592 C2593 1.400 . S
C2593 C2587 1.491 . S
C2593 C2592 1.400 . S
C2593 C2594 1.398 . S
C2594 H2582 0.950 . S
C2594 C2593 1.398 . S
C2594 C2595 1.391 . S
C2595 H2583 0.950 . S
C2595 C2591 1.393 . S
C2595 C2594 1.391 . S
H2596 C2604 0.950 . S
H2597 C2609 0.950 . S
H2598 C2606 0.950 . S
H2599 C2608 0.950 . S
H2600 C2610 0.950 . S
H2601 C2612 0.950 . S
H2602 C2614 0.950 . S
H2603 C2615 0.950 . S
C2604 H2596 0.950 . S
C2604 C2605 1.386 . S
C2604 C2606 1.391 . S
C2605 C2604 1.386 . S
C2605 C2609 1.393 . S
C2606 H2598 0.950 . S
C2606 C2604 1.391 . S
C2606 C2607 1.400 . S
C2607 C2606 1.400 . S
C2607 C2608 1.398 . S
C2607 C2613 1.491 . S
C2608 H2599 0.950 . S
C2608 C2607 1.398 . S
C2608 C2609 1.391 . S
C2609 H2597 0.950 . S
C2609 C2605 1.393 . S
C2609 C2608 1.391 . S
C2610 H2600 0.950 . S
C2610 C2611 1.386 . S
C2610 C2612 1.391 . S
C2611 C2610 1.386 . S
C2611 C2615 1.393 . S
C2612 H2601 0.950 . S
C2612 C2610 1.391 . S
C2612 C2613 1.400 . S
C2613 C2607 1.491 . S
C2613 C2612 1.400 . S
C2613 C2614 1.398 . S
C2614 H2602 0.950 . S
C2614 C2613 1.398 . S
C2614 C2615 1.391 . S
C2615 H2603 0.950 . S
C2615 C2611 1.393 . S
C2615 C2614 1.391 . S
H2616 C2624 0.950 . S
H2617 C2629 0.950 . S
H2618 C2626 0.950 . S
H2619 C2628 0.950 . S
H2620 C2630 0.950 . S
H2621 C2632 0.950 . S
H2622 C2634 0.950 . S
H2623 C2635 0.950 . S
C2624 H2616 0.950 . S
C2624 C2625 1.386 . S
C2624 C2626 1.391 . S
C2625 C2624 1.386 . S
C2625 C2629 1.393 . S
C2626 H2618 0.950 . S
C2626 C2624 1.391 . S
C2626 C2627 1.400 . S
C2627 C2626 1.400 . S
C2627 C2628 1.398 . S
C2627 C2633 1.491 . S
C2628 H2619 0.950 . S
C2628 C2627 1.398 . S
C2628 C2629 1.391 . S
C2629 H2617 0.950 . S
C2629 C2625 1.393 . S
C2629 C2628 1.391 . S
C2630 H2620 0.950 . S
C2630 C2631 1.386 . S
C2630 C2632 1.391 . S
C2631 C2630 1.386 . S
C2631 C2635 1.393 1_655 S
C2632 H2621 0.950 . S
C2632 C2630 1.391 . S
C2632 C2633 1.400 . S
C2633 C2627 1.491 . S
C2633 C2632 1.400 . S
C2633 C2634 1.398 . S
C2634 H2622 0.950 . S
C2634 C2633 1.398 . S
C2634 C2635 1.391 1_655 S
C2635 H2623 0.950 . S
C2635 C2631 1.393 1_455 S
C2635 C2634 1.391 1_455 S
H2636 C2644 0.950 . S
H2637 C2649 0.950 . S
H2638 C2646 0.950 . S
H2639 C2648 0.950 . S
H2640 C2650 0.950 . S
H2641 C2652 0.950 . S
H2642 C2654 0.950 . S
H2643 C2655 0.950 . S
C2644 H2636 0.950 . S
C2644 C2645 1.386 . S
C2644 C2646 1.391 . S
C2645 C2644 1.386 . S
C2645 C2649 1.393 . S
C2646 H2638 0.950 . S
C2646 C2644 1.391 . S
C2646 C2647 1.400 . S
C2647 C2646 1.400 . S
C2647 C2648 1.398 . S
C2647 C2653 1.491 . S
C2648 H2639 0.950 . S
C2648 C2647 1.398 . S
C2648 C2649 1.391 . S
C2649 H2637 0.950 . S
C2649 C2645 1.393 . S
C2649 C2648 1.391 . S
C2650 H2640 0.950 . S
C2650 C2651 1.386 . S
C2650 C2652 1.391 . S
C2651 C2650 1.386 . S
C2651 C2655 1.393 . S
C2652 H2641 0.950 . S
C2652 C2650 1.391 . S
C2652 C2653 1.400 . S
C2653 C2647 1.491 . S
C2653 C2652 1.400 . S
C2653 C2654 1.398 . S
C2654 H2642 0.950 . S
C2654 C2653 1.398 . S
C2654 C2655 1.391 . S
C2655 H2643 0.950 . S
C2655 C2651 1.393 . S
C2655 C2654 1.391 . S
H2656 C2664 0.950 . S
H2657 C2669 0.950 . S
H2658 C2666 0.950 . S
H2659 C2668 0.950 . S
H2660 C2670 0.950 . S
H2661 C2672 0.950 . S
H2662 C2674 0.950 . S
H2663 C2675 0.950 . S
C2664 H2656 0.950 . S
C2664 C2665 1.386 . S
C2664 C2666 1.391 . S
C2665 C2664 1.386 . S
C2665 C2669 1.393 . S
C2666 H2658 0.950 . S
C2666 C2664 1.391 . S
C2666 C2667 1.400 . S
C2667 C2666 1.400 . S
C2667 C2668 1.398 . S
C2667 C2673 1.491 . S
C2668 H2659 0.950 . S
C2668 C2667 1.398 . S
C2668 C2669 1.391 . S
C2669 H2657 0.950 . S
C2669 C2665 1.393 . S
C2669 C2668 1.391 . S
C2670 H2660 0.950 . S
C2670 C2671 1.386 . S
C2670 C2672 1.391 . S
C2671 C2670 1.386 . S
C2671 C2675 1.393 . S
C2672 H2661 0.950 . S
C2672 C2670 1.391 . S
C2672 C2673 1.400 . S
C2673 C2667 1.491 . S
C2673 C2672 1.400 . S
C2673 C2674 1.398 . S
C2674 H2662 0.950 . S
C2674 C2673 1.398 . S
C2674 C2675 1.391 . S
C2675 H2663 0.950 . S
C2675 C2671 1.393 . S
C2675 C2674 1.391 . S
H2676 C2684 0.950 . S
H2677 C2689 0.950 . S
H2678 C2686 0.950 . S
H2679 C2688 0.950 . S
H2680 C2690 0.950 . S
H2681 C2692 0.950 . S
H2682 C2694 0.950 . S
H2683 C2695 0.950 . S
C2684 H2676 0.950 . S
C2684 C2685 1.386 . S
C2684 C2686 1.391 . S
C2685 C2684 1.386 . S
C2685 C2689 1.393 . S
C2686 H2678 0.950 . S
C2686 C2684 1.391 . S
C2686 C2687 1.400 . S
C2687 C2686 1.400 . S
C2687 C2688 1.398 . S
C2687 C2693 1.491 . S
C2688 H2679 0.950 . S
C2688 C2687 1.398 . S
C2688 C2689 1.391 . S
C2689 H2677 0.950 . S
C2689 C2685 1.393 . S
C2689 C2688 1.391 . S
C2690 H2680 0.950 . S
C2690 C2691 1.386 . S
C2690 C2692 1.391 . S
C2691 C2690 1.386 . S
C2691 C2695 1.393 . S
C2692 H2681 0.950 . S
C2692 C2690 1.391 . S
C2692 C2693 1.400 . S
C2693 C2687 1.491 . S
C2693 C2692 1.400 . S
C2693 C2694 1.398 . S
C2694 H2682 0.950 . S
C2694 C2693 1.398 . S
C2694 C2695 1.391 . S
C2695 H2683 0.950 . S
C2695 C2691 1.393 . S
C2695 C2694 1.391 . S
H2696 C2704 0.950 . S
H2697 C2709 0.950 . S
H2698 C2706 0.950 . S
H2699 C2708 0.950 . S
H2700 C2710 0.950 . S
H2701 C2712 0.950 . S
H2702 C2714 0.950 . S
H2703 C2715 0.950 . S
C2704 H2696 0.950 . S
C2704 C2705 1.386 . S
C2704 C2706 1.391 . S
C2705 C2704 1.386 . S
C2705 C2709 1.393 . S
C2706 H2698 0.950 . S
C2706 C2704 1.391 . S
C2706 C2707 1.400 . S
C2707 C2706 1.400 . S
C2707 C2708 1.398 . S
C2707 C2713 1.491 . S
C2708 H2699 0.950 . S
C2708 C2707 1.398 . S
C2708 C2709 1.391 . S
C2709 H2697 0.950 . S
C2709 C2705 1.393 . S
C2709 C2708 1.391 . S
C2710 H2700 0.950 . S
C2710 C2711 1.386 . S
C2710 C2712 1.391 . S
C2711 C2710 1.386 . S
C2711 C2715 1.393 . S
C2712 H2701 0.950 . S
C2712 C2710 1.391 . S
C2712 C2713 1.400 . S
C2713 C2707 1.491 . S
C2713 C2712 1.400 . S
C2713 C2714 1.398 . S
C2714 H2702 0.950 . S
C2714 C2713 1.398 . S
C2714 C2715 1.391 . S
C2715 H2703 0.950 . S
C2715 C2711 1.393 . S
C2715 C2714 1.391 . S
H2716 C2724 0.950 . S
H2717 C2729 0.950 . S
H2718 C2726 0.950 . S
H2719 C2728 0.950 . S
H2720 C2730 0.950 . S
H2721 C2732 0.950 . S
H2722 C2734 0.950 . S
H2723 C2735 0.950 . S
C2724 H2716 0.950 . S
C2724 C2725 1.386 . S
C2724 C2726 1.391 . S
C2725 C2724 1.386 . S
C2725 C2729 1.393 . S
C2726 H2718 0.950 . S
C2726 C2724 1.391 . S
C2726 C2727 1.400 . S
C2727 C2726 1.400 . S
C2727 C2728 1.398 . S
C2727 C2733 1.491 . S
C2728 H2719 0.950 . S
C2728 C2727 1.398 . S
C2728 C2729 1.391 . S
C2729 H2717 0.950 . S
C2729 C2725 1.393 . S
C2729 C2728 1.391 . S
C2730 H2720 0.950 . S
C2730 C2731 1.386 . S
C2730 C2732 1.391 . S
C2731 C2730 1.386 . S
C2731 C2735 1.393 . S
C2732 H2721 0.950 . S
C2732 C2730 1.391 . S
C2732 C2733 1.400 . S
C2733 C2727 1.491 . S
C2733 C2732 1.400 . S
C2733 C2734 1.398 . S
C2734 H2722 0.950 . S
C2734 C2733 1.398 . S
C2734 C2735 1.391 . S
C2735 H2723 0.950 . S
C2735 C2731 1.393 . S
C2735 C2734 1.391 . S
H2736 C2744 0.950 . S
H2737 C2749 0.950 . S
H2738 C2746 0.950 . S
H2739 C2748 0.950 . S
H2740 C2750 0.950 . S
H2741 C2752 0.950 . S
H2742 C2754 0.950 . S
H2743 C2755 0.950 . S
C2744 H2736 0.950 . S
C2744 C2745 1.386 . S
C2744 C2746 1.391 . S
C2745 C2744 1.386 . S
C2745 C2749 1.393 . S
C2746 H2738 0.950 . S
C2746 C2744 1.391 . S
C2746 C2747 1.400 . S
C2747 C2746 1.400 . S
C2747 C2748 1.398 . S
C2747 C2753 1.491 . S
C2748 H2739 0.950 . S
C2748 C2747 1.398 . S
C2748 C2749 1.391 . S
C2749 H2737 0.950 . S
C2749 C2745 1.393 . S
C2749 C2748 1.391 . S
C2750 H2740 0.950 . S
C2750 C2751 1.386 . S
C2750 C2752 1.391 . S
C2751 C2750 1.386 . S
C2751 C2755 1.393 . S
C2752 H2741 0.950 . S
C2752 C2750 1.391 . S
C2752 C2753 1.400 . S
C2753 C2747 1.491 . S
C2753 C2752 1.400 . S
C2753 C2754 1.398 . S
C2754 H2742 0.950 . S
C2754 C2753 1.398 . S
C2754 C2755 1.391 . S
C2755 H2743 0.950 . S
C2755 C2751 1.393 . S
C2755 C2754 1.391 . S
H2756 C2764 0.950 . S
H2757 C2769 0.950 . S
H2758 C2766 0.950 . S
H2759 C2768 0.950 . S
H2760 C2770 0.950 . S
H2761 C2772 0.950 . S
H2762 C2774 0.950 . S
H2763 C2775 0.950 . S
C2764 H2756 0.950 . S
C2764 C2765 1.386 . S
C2764 C2766 1.391 . S
C2765 C2764 1.386 . S
C2765 C2769 1.393 . S
C2766 H2758 0.950 . S
C2766 C2764 1.391 . S
C2766 C2767 1.400 . S
C2767 C2766 1.400 . S
C2767 C2768 1.398 . S
C2767 C2773 1.491 . S
C2768 H2759 0.950 . S
C2768 C2767 1.398 . S
C2768 C2769 1.391 . S
C2769 H2757 0.950 . S
C2769 C2765 1.393 . S
C2769 C2768 1.391 . S
C2770 H2760 0.950 . S
C2770 C2771 1.387 . S
C2770 C2772 1.391 1_545 S
C2771 C2770 1.387 . S
C2771 C2775 1.391 1_545 S
C2772 H2761 0.950 . S
C2772 C2770 1.391 1_565 S
C2772 C2773 1.400 . S
C2773 C2767 1.491 . S
C2773 C2772 1.400 . S
C2773 C2774 1.398 . S
C2774 H2762 0.950 . S
C2774 C2773 1.398 . S
C2774 C2775 1.391 . S
C2775 H2763 0.950 . S
C2775 C2771 1.391 1_565 S
C2775 C2774 1.391 . S
H2776 C2784 0.950 . S
H2777 C2789 0.950 . S
H2778 C2786 0.950 . S
H2779 C2788 0.950 . S
H2780 C2790 0.950 . S
H2781 C2792 0.950 . S
H2782 C2794 0.950 . S
H2783 C2795 0.950 . S
C2784 H2776 0.950 . S
C2784 C2785 1.386 . S
C2784 C2786 1.391 . S
C2785 C2784 1.386 . S
C2785 C2789 1.393 . S
C2786 H2778 0.950 . S
C2786 C2784 1.391 . S
C2786 C2787 1.400 . S
C2787 C2786 1.400 . S
C2787 C2788 1.398 . S
C2787 C2793 1.491 . S
C2788 H2779 0.950 . S
C2788 C2787 1.398 . S
C2788 C2789 1.391 . S
C2789 H2777 0.950 . S
C2789 C2785 1.393 . S
C2789 C2788 1.391 . S
C2790 H2780 0.950 . S
C2790 C2791 1.386 . S
C2790 C2792 1.391 . S
C2791 C2790 1.386 . S
C2791 C2795 1.393 . S
C2792 H2781 0.950 . S
C2792 C2790 1.391 . S
C2792 C2793 1.400 . S
C2793 C2787 1.491 . S
C2793 C2792 1.400 . S
C2793 C2794 1.398 . S
C2794 H2782 0.950 . S
C2794 C2793 1.398 . S
C2794 C2795 1.391 . S
C2795 H2783 0.950 . S
C2795 C2791 1.393 . S
C2795 C2794 1.391 . S
H2796 C2804 0.950 . S
H2797 C2809 0.950 . S
H2798 C2806 0.950 . S
H2799 C2808 0.950 . S
H2800 C2810 0.950 . S
H2801 C2812 0.950 . S
H2802 C2814 0.950 . S
H2803 C2815 0.950 . S
C2804 H2796 0.950 . S
C2804 C2805 1.386 . S
C2804 C2806 1.391 . S
C2805 C2804 1.386 . S
C2805 C2809 1.393 . S
C2806 H2798 0.950 . S
C2806 C2804 1.391 . S
C2806 C2807 1.400 . S
C2807 C2806 1.400 . S
C2807 C2808 1.398 . S
C2807 C2813 1.491 . S
C2808 H2799 0.950 . S
C2808 C2807 1.398 . S
C2808 C2809 1.391 . S
C2809 H2797 0.950 . S
C2809 C2805 1.393 . S
C2809 C2808 1.391 . S
C2810 H2800 0.950 . S
C2810 C2811 1.386 . S
C2810 C2812 1.391 . S
C2811 C2810 1.386 . S
C2811 C2815 1.393 . S
C2812 H2801 0.950 . S
C2812 C2810 1.391 . S
C2812 C2813 1.400 . S
C2813 C2807 1.491 . S
C2813 C2812 1.400 . S
C2813 C2814 1.398 . S
C2814 H2802 0.950 . S
C2814 C2813 1.398 . S
C2814 C2815 1.391 . S
C2815 H2803 0.950 . S
C2815 C2811 1.393 . S
C2815 C2814 1.391 . S
H2816 C2824 0.950 . S
H2817 C2829 0.950 . S
H2818 C2826 0.950 . S
H2819 C2828 0.950 . S
H2820 C2830 0.950 . S
H2821 C2832 0.950 . S
H2822 C2834 0.950 . S
H2823 C2835 0.950 . S
C2824 H2816 0.950 . S
C2824 C2825 1.386 . S
C2824 C2826 1.391 . S
C2825 C2824 1.386 . S
C2825 C2829 1.393 . S
C2826 H2818 0.950 . S
C2826 C2824 1.391 . S
C2826 C2827 1.400 . S
C2827 C2826 1.400 . S
C2827 C2828 1.398 . S
C2827 C2833 1.491 . S
C2828 H2819 0.950 . S
C2828 C2827 1.398 . S
C2828 C2829 1.391 . S
C2829 H2817 0.950 . S
C2829 C2825 1.393 . S
C2829 C2828 1.391 . S
C2830 H2820 0.950 . S
C2830 C2831 1.386 . S
C2830 C2832 1.391 . S
C2831 C2830 1.386 . S
C2831 C2835 1.393 . S
C2832 H2821 0.950 . S
C2832 C2830 1.391 . S
C2832 C2833 1.400 . S
C2833 C2827 1.491 . S
C2833 C2832 1.400 . S
C2833 C2834 1.398 . S
C2834 H2822 0.950 . S
C2834 C2833 1.398 . S
C2834 C2835 1.391 . S
C2835 H2823 0.950 . S
C2835 C2831 1.393 . S
C2835 C2834 1.391 . S
H2836 C2844 0.950 . S
H2837 C2849 0.950 1_556 S
H2838 C2846 0.950 . S
H2839 C2848 0.950 1_556 S
H2840 C2850 0.950 . S
H2841 C2852 0.950 . S
H2842 C2854 0.950 . S
H2843 C2855 0.950 . S
C2844 H2836 0.950 . S
C2844 C2845 1.386 . S
C2844 C2846 1.391 . S
C2845 C2844 1.386 . S
C2845 C2849 1.393 . S
C2846 H2838 0.950 . S
C2846 C2844 1.391 . S
C2846 C2847 1.400 . S
C2847 C2846 1.400 . S
C2847 C2848 1.398 . S
C2847 C2853 1.491 . S
C2848 H2839 0.950 1_554 S
C2848 C2847 1.398 . S
C2848 C2849 1.391 . S
C2849 H2837 0.950 1_554 S
C2849 C2845 1.393 . S
C2849 C2848 1.391 . S
C2850 H2840 0.950 . S
C2850 C2851 1.386 1_556 S
C2850 C2852 1.391 . S
C2851 C2850 1.386 1_554 S
C2851 C2855 1.393 . S
C2852 H2841 0.950 . S
C2852 C2850 1.391 . S
C2852 C2853 1.400 1_556 S
C2853 C2847 1.491 . S
C2853 C2852 1.400 1_554 S
C2853 C2854 1.398 . S
C2854 H2842 0.950 . S
C2854 C2853 1.398 . S
C2854 C2855 1.391 . S
C2855 H2843 0.950 . S
C2855 C2851 1.393 . S
C2855 C2854 1.391 . S
H2856 C2864 0.950 . S
H2857 C2869 0.950 . S
H2858 C2866 0.950 . S
H2859 C2868 0.950 . S
H2860 C2870 0.950 . S
H2861 C2872 0.950 . S
H2862 C2874 0.950 . S
H2863 C2875 0.950 . S
C2864 H2856 0.950 . S
C2864 C2865 1.386 . S
C2864 C2866 1.391 . S
C2865 C2864 1.386 . S
C2865 C2869 1.393 . S
C2866 H2858 0.950 . S
C2866 C2864 1.391 . S
C2866 C2867 1.400 . S
C2867 C2866 1.400 . S
C2867 C2868 1.398 . S
C2867 C2873 1.491 . S
C2868 H2859 0.950 . S
C2868 C2867 1.398 . S
C2868 C2869 1.391 . S
C2869 H2857 0.950 . S
C2869 C2865 1.393 . S
C2869 C2868 1.391 . S
C2870 H2860 0.950 . S
C2870 C2871 1.386 . S
C2870 C2872 1.391 . S
C2871 C2870 1.386 . S
C2871 C2875 1.393 . S
C2872 H2861 0.950 . S
C2872 C2870 1.391 . S
C2872 C2873 1.400 . S
C2873 C2867 1.491 . S
C2873 C2872 1.400 . S
C2873 C2874 1.398 . S
C2874 H2862 0.950 . S
C2874 C2873 1.398 . S
C2874 C2875 1.391 . S
C2875 H2863 0.950 . S
C2875 C2871 1.393 . S
C2875 C2874 1.391 . S
H2876 C2884 0.950 . S
H2877 C2889 0.950 . S
H2878 C2886 0.950 . S
H2879 C2888 0.950 . S
H2880 C2890 0.950 . S
H2881 C2892 0.950 . S
H2882 C2894 0.950 . S
H2883 C2895 0.950 . S
C2884 H2876 0.950 . S
C2884 C2885 1.386 . S
C2884 C2886 1.391 . S
C2885 C2884 1.386 . S
C2885 C2889 1.393 . S
C2886 H2878 0.950 . S
C2886 C2884 1.391 . S
C2886 C2887 1.400 . S
C2887 C2886 1.400 . S
C2887 C2888 1.398 . S
C2887 C2893 1.491 . S
C2888 H2879 0.950 . S
C2888 C2887 1.398 . S
C2888 C2889 1.391 . S
C2889 H2877 0.950 . S
C2889 C2885 1.393 . S
C2889 C2888 1.391 . S
C2890 H2880 0.950 . S
C2890 C2891 1.386 . S
C2890 C2892 1.391 . S
C2891 C2890 1.386 . S
C2891 C2895 1.393 . S
C2892 H2881 0.950 . S
C2892 C2890 1.391 . S
C2892 C2893 1.400 . S
C2893 C2887 1.491 . S
C2893 C2892 1.400 . S
C2893 C2894 1.398 . S
C2894 H2882 0.950 . S
C2894 C2893 1.398 . S
C2894 C2895 1.391 . S
C2895 H2883 0.950 . S
C2895 C2891 1.393 . S
C2895 C2894 1.391 . S
C985 C111 2.180 . S
C991 C349 2.145 . S
C1005 C64 2.052 . S
C1011 C400 2.088 . S
C1025 C77 1.511 . S
C1031 C429 1.493 . S
C1051 C473 1.275 . S
C1045 C95 1.306 . S
C1065 C25 1.194 . S
C1071 C513 1.167 . S
C1091 C549 1.592 . S
C1085 C36 1.539 . S
C1111 C599 1.871 . S
C1105 C50 1.806 . S
C1125 C11 2.226 . S
C1131 C629 2.202 . S
C1151 C359 1.847 . S
C1145 C237 1.830 . S
C1165 C245 0.533 . S
C1171 C402 0.567 . S
C1191 C439 1.121 . S
C1185 C279 1.076 . S
C1211 C469 1.324 . S
C1205 C175 1.338 . S
C1225 C231 1.336 . S
C1231 C509 1.334 . S
C1251 C559 0.769 . S
C1245 C251 0.807 . S
C1271 C593 0.829 . S
C1265 C273 0.833 . S
C1291 C639 1.859 . S
C1285 C181 1.819 . S
C1311 C353 1.074 . S
C1305 C165 1.120 1_554 S
C1325 C288 1.641 . S
C1331 C679 1.687 . S
C1351 C713 1.353 . S
C1345 C333 1.426 . S
C1371 C749 0.817 . S
C1365 C316 0.847 . S
C1385 C123 1.319 . S
C1391 C633 1.270 . S
C1405 C137 1.470 . S
C1411 C433 1.405 . S
C1425 C330 1.579 . S
C1431 C799 1.610 . S
C1451 C818 0.242 . S
C1445 C302 0.418 . S
C1471 C360 2.275 . S
C1465 C63 2.289 . S
C1491 C829 2.142 . S
C1485 C106 2.154 . S
C1505 C97 1.559 . S
C1511 C440 1.612 . S
C1525 C81 1.341 . S
C1531 C802 1.310 . S
C1551 C522 1.249 . S
C1545 C13 1.187 . S
C1565 C55 1.551 . S
C1571 C720 1.603 . S
C1591 C578 1.830 1_566 S
C1585 C35 1.792 . S
C1611 C880 2.397 . S
C1605 C21 2.417 . S
C1631 C338 1.967 . S
C1625 C147 2.009 . S
C1651 C833 0.546 . S
C1645 C321 0.621 . S
C1665 C119 1.189 . S
C1671 C418 1.174 . S
C1685 C293 1.377 . S
C1691 C800 1.463 . S
C1705 C153 1.451 . S
C1711 C520 1.516 . S
C1731 C698 0.834 . S
C1725 C315 0.852 . S
C1745 C125 0.793 1_545 S
C1751 C602 0.798 . S
C1765 C287 2.000 . S
C1771 C858 1.967 . S
C1785 C193 1.092 . S
C1791 C362 1.084 . S
C1805 C176 1.707 . S
C1811 C658 1.714 . S
C1825 C263 1.367 . S
C1831 C562 1.342 . S
C1845 C246 0.951 . S
C1851 C760 0.967 . S
C1871 C882 1.324 . S
C1865 C277 1.327 . S
C1885 C221 1.417 . S
C1891 C442 1.382 . S
C1911 C458 1.651 . S
C1905 C260 1.643 . S
C1931 C399 0.331 . S
C1925 C204 0.492 . S
C1945 C83 2.166 . S
C1951 C909 2.140 . S
C1971 C840 2.092 . S
C1965 C92 2.041 . S
C1985 C105 1.504 . S
C1991 C949 1.497 . S
C2005 C67 1.305 . S
C2011 C793 1.247 . S
C2025 C53 1.193 . S
C2031 C673 1.171 . S
C2051 C709 1.595 . S
C2045 C8 1.551 . S
C2071 C759 1.872 . S
C2065 C22 1.796 . S
C2091 C869 2.197 . S
C2085 C39 2.225 . S
C2111 C919 1.853 . S
C2105 C265 1.823 . S
C2125 C189 0.515 . S
C2131 C842 0.539 . S
C2151 C959 1.116 . S
C2145 C209 1.066 . S
C2171 C789 1.327 . S
C2165 C217 1.338 . S
C2191 C669 1.334 . S
C2185 C259 1.336 . S
C2205 C195 0.746 . S
C2211 C719 0.792 . S
C2231 C753 0.845 . S
C2225 C203 0.842 . S
C2245 C223 1.837 . S
C2251 C879 1.845 . S
C2271 C913 1.074 . S
C2265 C319 1.120 . S
C2285 C134 1.658 . S
C2291 C519 1.692 . S
C2311 C553 1.352 . S
C2305 C151 1.425 1_565 S
C2331 C589 0.838 . S
C2325 C162 0.806 . S
C2351 C873 1.257 . S
C2345 C305 1.320 . S
C2365 C291 1.465 . S
C2371 C953 1.380 . S
C2391 C479 1.608 . S
C2385 C148 1.558 . S
C2411 C378 0.207 . S
C2405 C120 0.326 . S
C2425 C91 2.291 . S
C2431 C920 2.268 . S
C2451 C389 2.145 . S
C2445 C78 2.156 . S
C2465 C69 1.556 . S
C2471 C960 1.612 . S
C2485 C109 1.344 . S
C2491 C482 1.317 . S
C2505 C41 1.215 . S
C2511 C682 1.267 . S
C2531 C560 1.605 . S
C2525 C27 1.533 . S
C2545 C7 1.788 . S
C2551 C738 1.831 . S
C2565 C49 2.415 . S
C2571 C640 2.388 . S
C2591 C898 1.967 . S
C2585 C329 2.010 . S
C2605 C167 0.604 . S
C2611 C393 0.556 . S
C2631 C938 1.169 1_655 S
C2625 C301 1.181 . S
C2645 C139 1.376 . S
C2651 C480 1.462 . S
C2665 C335 1.449 . S
C2671 C680 1.517 . S
C2691 C538 0.838 . S
C2685 C161 0.850 . S
C2705 C307 0.799 . S
C2711 C762 0.800 . S
C2731 C618 1.967 . S
C2725 C133 2.001 . S
C2751 C922 1.098 . S
C2745 C249 1.119 . S
C2771 C498 1.721 . S
C2765 C218 1.714 . S
C2785 C235 1.379 . S
C2791 C722 1.348 . S
C2811 C600 0.956 . S
C2805 C190 0.969 . S
C2825 C207 1.328 . S
C2831 C642 1.310 . S
C2845 C179 1.427 . S
C2851 C962 1.389 . S
C2871 C778 1.661 . S
C2865 C232 1.655 . S
C2891 C839 0.385 . S
C2885 C274 0.436 . S
