# Generated by pormake.
# Topology zzz, (3,6)-cn, num edge types: 1
# Building blocks:
#     Node 0, Type 0, BuildingBlock: WUSLED_clean_sbu_0, # of connection points: 3
#     Node 1, Type 0, BuildingBlock: WUSLED_clean_sbu_0, # of connection points: 3
#     Node 2, Type 0, BuildingBlock: WUSLED_clean_sbu_0, # of connection points: 3
#     Node 3, Type 0, BuildingBlock: WUSLED_clean_sbu_0, # of connection points: 3
#     Node 4, Type 0, BuildingBlock: WUSLED_clean_sbu_0, # of connection points: 3
#     Node 5, Type 0, BuildingBlock: WUSLED_clean_sbu_0, # of connection points: 3
#     Node 6, Type 0, BuildingBlock: WUSLED_clean_sbu_0, # of connection points: 3
#     Node 7, Type 0, BuildingBlock: WUSLED_clean_sbu_0, # of connection points: 3
#     Node 8, Type 1, BuildingBlock: KUMBUR_clean_sbu_0, # of connection points: 6
#     Node 9, Type 1, BuildingBlock: KUMBUR_clean_sbu_0, # of connection points: 6
#     Node 10, Type 1, BuildingBlock: KUMBUR_clean_sbu_0, # of connection points: 6
#     Node 11, Type 1, BuildingBlock: KUMBUR_clean_sbu_0, # of connection points: 6
#     Edge 12, Type (0, 1), BuildingBlock: MIFKUJ_clean_linker_0, # of connection points: 2
#     Edge 13, Type (0, 1), BuildingBlock: MIFKUJ_clean_linker_0, # of connection points: 2
#     Edge 14, Type (0, 1), BuildingBlock: MIFKUJ_clean_linker_0, # of connection points: 2
#     Edge 15, Type (0, 1), BuildingBlock: MIFKUJ_clean_linker_0, # of connection points: 2
#     Edge 16, Type (0, 1), BuildingBlock: MIFKUJ_clean_linker_0, # of connection points: 2
#     Edge 17, Type (0, 1), BuildingBlock: MIFKUJ_clean_linker_0, # of connection points: 2
#     Edge 18, Type (0, 1), BuildingBlock: MIFKUJ_clean_linker_0, # of connection points: 2
#     Edge 19, Type (0, 1), BuildingBlock: MIFKUJ_clean_linker_0, # of connection points: 2
#     Edge 20, Type (0, 1), BuildingBlock: MIFKUJ_clean_linker_0, # of connection points: 2
#     Edge 21, Type (0, 1), BuildingBlock: MIFKUJ_clean_linker_0, # of connection points: 2
#     Edge 22, Type (0, 1), BuildingBlock: MIFKUJ_clean_linker_0, # of connection points: 2
#     Edge 23, Type (0, 1), BuildingBlock: MIFKUJ_clean_linker_0, # of connection points: 2
#     Edge 24, Type (0, 1), BuildingBlock: MIFKUJ_clean_linker_0, # of connection points: 2
#     Edge 25, Type (0, 1), BuildingBlock: MIFKUJ_clean_linker_0, # of connection points: 2
#     Edge 26, Type (0, 1), BuildingBlock: MIFKUJ_clean_linker_0, # of connection points: 2
#     Edge 27, Type (0, 1), BuildingBlock: MIFKUJ_clean_linker_0, # of connection points: 2
#     Edge 28, Type (0, 1), BuildingBlock: MIFKUJ_clean_linker_0, # of connection points: 2
#     Edge 29, Type (0, 1), BuildingBlock: MIFKUJ_clean_linker_0, # of connection points: 2
#     Edge 30, Type (0, 1), BuildingBlock: MIFKUJ_clean_linker_0, # of connection points: 2
#     Edge 31, Type (0, 1), BuildingBlock: MIFKUJ_clean_linker_0, # of connection points: 2
#     Edge 32, Type (0, 1), BuildingBlock: MIFKUJ_clean_linker_0, # of connection points: 2
#     Edge 33, Type (0, 1), BuildingBlock: MIFKUJ_clean_linker_0, # of connection points: 2
#     Edge 34, Type (0, 1), BuildingBlock: MIFKUJ_clean_linker_0, # of connection points: 2
#     Edge 35, Type (0, 1), BuildingBlock: MIFKUJ_clean_linker_0, # of connection points: 2
# Relax obj value: 0.256
# Max RMSD: 0.219
# Mean RMSD: 0.204
data_MOF--net-zzz--node1-WUSLED_clean_sbu_0--node2-KUMBUR_clean_sbu_0--edge1-MIFKUJ_clean_linker_0
_symmetry_space_group_name_H-M    P1
_symmetry_Int_Tables_number       1
_symmetry_cell_setting            triclinic
loop_
_symmetry_equiv_pos_as_xyz
'x, y, z'
_cell_length_a     76.2392
_cell_length_b     76.210329
_cell_length_c     26.439443
_cell_angle_alpha  90.144619
_cell_angle_beta   90.124101
_cell_angle_gamma 89.971387
loop_
_atom_site_label
_atom_site_type_symbol
_atom_site_fract_x
_atom_site_fract_y
_atom_site_fract_z
_atom_type_partial_charge
C0 C 0.77295 0.53039 0.24221 0.0
C1 C 0.78808 0.5314 0.21212 0.0
C2 C 0.80675 0.53162 0.28756 0.0
C3 C 0.80479 0.53199 0.23451 0.0
C4 C 0.79146 0.53087 0.31741 0.0
C5 C 0.77479 0.53024 0.29497 0.0
U6 U 0.74244 0.53457 0.12803 0.0
O7 O 0.72153 0.51688 0.10156 0.0
O8 O 0.71514 0.54408 0.12177 0.0
C9 C 0.70945 0.52921 0.10246 0.0
C10 C 0.75527 0.52909 0.21914 0.0
C11 C 0.69775 0.53049 0.05767 0.0
C12 C 0.66862 0.53659 0.0237 0.0
C13 C 0.68048 0.53643 0.06427 0.0
C14 C 0.6912 0.52516 0.96856 0.0
C15 C 0.67373 0.53079 0.97531 0.0
C16 C 0.70307 0.525 0.00926 0.0
C17 C 0.76557 0.5498 0.00492 0.0
C18 C 0.76038 0.54216 0.91691 0.0
C19 C 0.78339 0.5627 0.93923 0.0
C20 C 0.77875 0.56139 0.98996 0.0
C21 C 0.77485 0.55244 0.9022 0.0
C22 C 0.75584 0.54075 0.96804 0.0
C23 C 0.76434 0.54552 0.05883 0.0
O24 O 0.74797 0.54398 0.2055 0.0
O25 O 0.75334 0.51664 0.18512 0.0
O26 O 0.762 0.52887 0.06979 0.0
O27 O 0.75532 0.55631 0.08762 0.0
H28 H 0.78699 0.53154 0.17126 0.0
H29 H 0.81618 0.53237 0.21015 0.0
H30 H 0.79234 0.53088 0.35829 0.0
H31 H 0.7633 0.52954 0.31892 0.0
H32 H 0.65527 0.54078 0.03074 0.0
H33 H 0.67601 0.54061 0.10127 0.0
H34 H 0.69572 0.52081 0.93181 0.0
H35 H 0.7163 0.52033 1.00302 0.0
H36 H 0.75327 0.53436 0.88942 0.0
H37 H 0.79473 0.57061 0.93008 0.0
H38 H 0.78639 0.56847 0.01798 0.0
H39 H 0.7455 0.53181 0.97896 0.0
C40 C 0.99628 0.79197 0.22425 0.0
C41 C 1.00209 0.80764 0.20167 0.0
C42 C 0.99504 0.82442 0.27812 0.0
C43 C 1.00152 0.82361 0.22828 0.0
C44 C 0.98878 0.8088 0.30006 0.0
C45 C 0.98947 0.7928 0.27356 0.0
U46 U 0.99046 0.76022 0.11063 0.0
O47 O 0.01004 0.74217 0.07769 0.0
O48 O 0.98534 0.73175 0.10763 0.0
C49 C 1.00009 0.72826 0.08383 0.0
C50 C 0.99837 0.77459 0.19866 0.0
C51 C 0.99943 0.71548 0.04123 0.0
C52 C 0.01328 0.69093 0.99743 0.0
C53 C 0.01371 0.70412 0.03439 0.0
C54 C 0.98431 0.70039 0.972 0.0
C55 C 0.99849 0.68863 0.9661 0.0
C56 C 0.98475 0.71365 0.00926 0.0
C57 C 0.96665 0.77954 0.99341 0.0
C58 C 0.97118 0.77324 0.90432 0.0
C59 C 0.95032 0.79553 0.92986 0.0
C60 C 0.95381 0.79184 0.98046 0.0
C61 C 0.95964 0.78695 0.89105 0.0
C62 C 0.97474 0.76962 0.95524 0.0
C63 C 0.97318 0.77958 0.04563 0.0
O64 O 0.98408 0.76527 0.19112 0.0
O65 O 0.00918 0.77402 0.16004 0.0
O66 O 0.99033 0.78002 0.05082 0.0
O67 O 0.96534 0.76916 0.07801 0.0
H68 H 0.00737 0.80756 0.16368 0.0
H69 H 0.00622 0.83535 0.20975 0.0
H70 H 0.98385 0.80882 0.33845 0.0
H71 H 0.98501 0.78096 0.29211 0.0
H72 H 0.02462 0.68247 0.99351 0.0
H73 H 0.0252 0.70526 0.05837 0.0
H74 H 0.97267 0.69905 0.9488 0.0
H75 H 0.97354 0.72225 0.01362 0.0
H76 H 0.97833 0.76611 0.87548 0.0
H77 H 0.94148 0.80629 0.92166 0.0
H78 H 0.94743 0.7996 0.00951 0.0
H79 H 0.98461 0.75992 0.96469 0.0
C80 C 0.73176 1.00239 0.2724 0.0
C81 C 0.71611 1.00076 0.24472 0.0
C82 C 0.69882 1.00347 0.32219 0.0
C83 C 0.69984 1.00135 0.26927 0.0
C84 C 0.71461 0.00486 0.34975 0.0
C85 C 0.73088 0.00434 0.32509 0.0
U86 U 0.7599 0.9919 0.15713 0.0
O87 O 0.78013 0.00788 0.11995 0.0
O88 O 0.78711 0.98215 0.15141 0.0
C89 C 0.79242 0.99592 0.12573 0.0
C90 C 0.74898 1.00239 0.24663 0.0
C91 C 0.80459 0.99276 0.08279 0.0
C92 C 0.83358 0.98322 0.05529 0.0
C93 C 0.82053 0.98416 0.09237 0.0
C94 C 0.8148 0.99892 0.99713 0.0
C95 C 0.83109 0.99094 0.00751 0.0
C96 C 0.8017 0.99988 0.03439 0.0
C97 C 0.73247 0.96997 0.04845 0.0
C98 C 0.73694 0.96904 0.95758 0.0
C99 C 0.71042 0.95701 0.99398 0.0
C100 C 0.71656 0.96114 0.04217 0.0
C101 C 0.72019 0.96149 0.95071 0.0
C102 C 0.74298 0.97341 0.00616 0.0
C103 C 0.7362 0.97739 0.09851 0.0
O104 O 0.75606 0.9869 0.23861 0.0
O105 O 0.75019 0.01282 0.2073 0.0
O106 O 0.73909 0.99438 0.10031 0.0
O107 O 0.74622 0.96826 0.12923 0.0
H108 H 0.71646 0.99923 0.20398 0.0
H109 H 0.68805 1.00049 0.24651 0.0
H110 H 0.71444 0.00622 0.39052 0.0
H111 H 0.7428 0.00555 0.34722 0.0
H112 H 0.84579 0.97667 0.06446 0.0
H113 H 0.82317 0.97864 0.12935 0.0
H114 H 0.81242 0.0051 0.96092 0.0
H115 H 0.78959 0.00669 0.0258 0.0
H116 H 0.74503 0.97236 0.92541 0.0
H117 H 0.69738 0.95153 0.99098 0.0
H118 H 0.70826 0.95846 0.07448 0.0
H119 H 0.75538 0.98019 0.01049 0.0
C120 C 0.53878 0.74446 0.23562 0.0
C121 C 0.5326 0.72984 0.20831 0.0
C122 C 0.53875 0.71055 0.28009 0.0
C123 C 0.53262 0.71307 0.23027 0.0
C124 C 0.54544 0.72516 0.30651 0.0
C125 C 0.5454 0.74186 0.28461 0.0
U126 U 0.54509 0.78227 0.13781 0.0
O127 O 0.52598 0.803 0.11975 0.0
O128 O 0.55154 0.81004 0.15197 0.0
C129 C 0.53687 0.81572 0.1315 0.0
C130 C 0.53709 0.76268 0.21635 0.0
C131 C 0.53852 0.82972 0.09326 0.0
C132 C 0.5288 0.85793 0.06077 0.0
C133 C 0.52792 0.84468 0.0972 0.0
C134 C 0.55101 0.84149 0.01567 0.0
C135 C 0.54037 0.85658 0.01946 0.0
C136 C 0.55007 0.82818 0.05218 0.0
C137 C 0.56669 0.74953 0.04795 0.0
C138 C 0.57674 0.7294 0.98318 0.0
C139 C 0.56566 0.71814 0.06265 0.0
C140 C 0.56297 0.73531 0.07973 0.0
C141 C 0.57201 0.71504 0.01351 0.0
C142 C 0.57407 0.74653 1.0003 0.0
C143 C 0.56115 0.76733 0.06142 0.0
O144 O 0.55158 0.77199 0.21359 0.0
O145 O 0.52641 0.76531 0.17797 0.0
O146 O 0.54407 0.76951 0.0635 0.0
O147 O 0.56957 0.77478 0.0992 0.0
H148 H 0.52736 0.73139 0.17048 0.0
H149 H 0.52728 0.70219 0.20879 0.0
H150 H 0.5506 0.72374 0.34446 0.0
H151 H 0.5502 0.75289 0.30657 0.0
H152 H 0.52013 0.86911 0.06457 0.0
H153 H 0.51879 0.84604 0.12832 0.0
H154 H 0.56019 0.84002 0.98474 0.0
H155 H 0.55831 0.81667 0.04826 0.0
H156 H 0.58182 0.72738 0.94538 0.0
H157 H 0.56175 0.70734 0.08665 0.0
H158 H 0.55721 0.73747 0.11665 0.0
H159 H 0.57701 0.7574 0.9754 0.0
C160 C 0.23867 0.49502 0.91942 0.0
C161 C 0.22426 0.50302 0.94347 0.0
C162 C 0.20462 0.49365 0.87528 0.0
C163 C 0.20746 0.50233 0.92169 0.0
C164 C 0.21898 0.48532 0.85195 0.0
C165 C 0.23577 0.48606 0.87365 0.0
U166 U 0.27579 0.48854 0.01878 0.0
O167 O 0.29597 0.50764 0.04107 0.0
O168 O 0.30391 0.4824 0.00837 0.0
C169 C 0.30902 0.49688 0.03124 0.0
C170 C 0.25693 0.49703 0.93887 0.0
C171 C 0.32275 0.49509 0.0711 0.0
C172 C 0.35204 0.48537 0.09602 0.0
C173 C 0.33838 0.48603 0.06042 0.0
C174 C 0.3347 0.50271 0.15406 0.0
C175 C 0.35048 0.49391 0.14307 0.0
C176 C 0.32101 0.50327 0.11865 0.0
C177 C 0.24126 0.46567 0.09734 0.0
C178 C 0.21964 0.44987 0.14648 0.0
C179 C 0.21032 0.4687 0.07768 0.0
C180 C 0.22781 0.47265 0.06723 0.0
C181 C 0.206 0.45759 0.11826 0.0
C182 C 0.23714 0.45394 0.13618 0.0
C183 C 0.25943 0.47141 0.09036 0.0
O184 O 0.25928 0.50752 0.97789 0.0
O185 O 0.26656 0.48273 0.94126 0.0
O186 O 0.26165 0.48852 0.09092 0.0
O187 O 0.26807 0.46352 0.05385 0.0
H188 H 0.22596 0.51008 0.97874 0.0
H189 H 0.1967 0.5087 0.94114 0.0
H190 H 0.21739 0.47871 0.81593 0.0
H191 H 0.24661 0.47995 0.85389 0.0
H192 H 0.36405 0.47861 0.08603 0.0
H193 H 0.34018 0.47974 0.02401 0.0
H194 H 0.33294 0.50924 0.19013 0.0
H195 H 0.30917 0.51037 0.12837 0.0
H196 H 0.21677 0.44106 0.17745 0.0
H197 H 0.20019 0.47507 0.05558 0.0
H198 H 0.23083 0.48168 0.03692 0.0
H199 H 0.24742 0.44835 0.15948 0.0
C200 C 0.00911 0.23935 0.94178 0.0
C201 C 0.02526 0.23118 0.93121 0.0
C202 C 0.01028 0.2053 0.8962 0.0
C203 C 0.02583 0.21434 0.90923 0.0
C204 C 0.99418 0.2137 0.90646 0.0
C205 C 0.99363 0.23037 0.92904 0.0
U206 U 0.01908 0.27597 0.04158 0.0
O207 O 0.0234 0.30451 0.03222 0.0
O208 O 1.00032 0.295 0.07305 0.0
C209 C 0.00979 0.30869 0.06029 0.0
C210 C 0.00783 0.25745 0.9634 0.0
C211 C 0.01255 0.32225 0.10021 0.0
C212 C 0.01524 0.35319 0.12319 0.0
C213 C 0.01404 0.33995 0.08633 0.0
C214 C 0.01374 0.33127 0.18896 0.0
C215 C 0.0149 0.34909 0.17514 0.0
C216 C 0.01262 0.31801 0.152 0.0
C217 C 0.04614 0.24141 0.10724 0.0
C218 C 0.05263 0.21571 0.15758 0.0
C219 C 0.05018 0.21312 0.06641 0.0
C220 C 0.04697 0.23112 0.06322 0.0
C221 C 0.05253 0.20513 0.11381 0.0
C222 C 0.04945 0.23371 0.15425 0.0
C223 C 0.03966 0.2595 0.10513 0.0
O224 O 0.99903 0.25906 0.00586 0.0
O225 O 0.0219 0.26743 0.9621 0.0
O226 O 0.04563 0.26912 0.06769 0.0
O227 O 0.02265 0.26097 0.11168 0.0
H228 H 0.03747 0.23781 0.93955 0.0
H229 H 0.03853 0.20841 0.90273 0.0
H230 H 0.98187 0.20759 0.89612 0.0
H231 H 0.98098 0.23642 0.93586 0.0
H232 H 0.0159 0.36671 0.11087 0.0
H233 H 0.01391 0.34361 0.04675 0.0
H234 H 0.01368 0.32753 0.22844 0.0
H235 H 0.01154 0.30448 0.16398 0.0
H236 H 0.05401 0.20996 0.19479 0.0
H237 H 0.0501 0.20535 0.03205 0.0
H238 H 0.04437 0.2369 0.02668 0.0
H239 H 0.04867 0.24143 0.18863 0.0
C240 C 0.28262 0.02065 0.94562 0.0
C241 C 0.2979 0.01522 0.97116 0.0
C242 C 0.3162 0.02412 0.89976 0.0
C243 C 0.31445 0.01705 0.94871 0.0
C244 C 0.30088 0.0296 0.87442 0.0
C245 C 0.28434 0.02788 0.89706 0.0
U246 U 0.24673 0.0287 0.04678 0.0
O247 O 0.21815 0.03241 0.0392 0.0
O248 O 0.22847 0.00924 0.07837 0.0
C249 C 0.21448 0.01834 0.06597 0.0
C250 C 0.2648 0.01807 0.96753 0.0
C251 C 0.20096 0.02004 0.10585 0.0
C252 C 0.17642 0.00697 0.15092 0.0
C253 C 0.18948 0.00597 0.11393 0.0
C254 C 0.1861 0.03624 0.17298 0.0
C255 C 0.17441 0.02215 0.18083 0.0
C256 C 0.19925 0.03519 0.13588 0.0
C257 C 0.28194 0.05538 0.10886 0.0
C258 C 0.30648 0.06897 0.15215 0.0
C259 C 0.31154 0.05104 0.07776 0.0
C260 C 0.2935 0.04852 0.07279 0.0
C261 C 0.31834 0.06074 0.11871 0.0
C262 C 0.28841 0.06612 0.14757 0.0
C263 C 0.26364 0.04947 0.10911 0.0
O264 O 0.26379 0.00918 0.00998 0.0
O265 O 0.25418 0.03168 0.96654 0.0
O266 O 0.25378 0.05538 0.07202 0.0
O267 O 0.2619 0.03251 0.11651 0.0
H268 H 0.29713 0.00953 0.00858 0.0
H269 H 0.3259 0.01294 0.96989 0.0
H270 H 0.30157 0.03484 0.83645 0.0
H271 H 0.27282 0.03197 0.87612 0.0
H272 H 0.16799 0.9957 0.15636 0.0
H273 H 0.19063 0.9941 0.09151 0.0
H274 H 0.18492 0.04819 0.19492 0.0
H275 H 0.20801 0.04621 0.13054 0.0
H276 H 0.31118 0.07693 0.18332 0.0
H277 H 0.32009 0.04434 0.05141 0.0
H278 H 0.2886 0.04032 0.04253 0.0
H279 H 0.27961 0.07164 0.17552 0.0
C280 C 0.48431 0.27833 0.89071 0.0
C281 C 0.47818 0.29394 0.91277 0.0
C282 C 0.48499 0.31018 0.83554 0.0
C283 C 0.4785 0.3097 0.88545 0.0
C284 C 0.49113 0.29444 0.81383 0.0
C285 C 0.49078 0.27872 0.84113 0.0
U286 U 0.4789 0.25114 0.01227 0.0
O287 O 0.4669 0.22502 0.02148 0.0
O288 O 0.49483 0.22886 0.03867 0.0
C289 C 0.48148 0.21794 0.03849 0.0
C290 C 0.48426 0.26158 0.91868 0.0
C291 C 0.47988 0.20607 0.08229 0.0
C292 C 0.47733 0.17613 0.11289 0.0
C293 C 0.47786 0.18809 0.07296 0.0
C294 C 0.48039 0.20002 0.17278 0.0
C295 C 0.47883 0.18186 0.16334 0.0
C296 C 0.48096 0.21204 0.13254 0.0
C297 C 0.46739 0.27648 0.13568 0.0
C298 C 0.47697 0.27487 0.22335 0.0
C299 C 0.45162 0.29239 0.20097 0.0
C300 C 0.45345 0.2873 0.15052 0.0
C301 C 0.46378 0.28681 0.23766 0.0
C302 C 0.47877 0.26973 0.17274 0.0
C303 C 0.47103 0.27462 0.0812 0.0
O304 O 0.49691 0.25958 0.95197 0.0
O305 O 0.46895 0.25624 0.9354 0.0
O306 O 0.45909 0.26661 0.05361 0.0
O307 O 0.48722 0.27066 0.06841 0.0
H308 H 0.47314 0.29392 0.95105 0.0
H309 H 0.47348 0.32148 0.90327 0.0
H310 H 0.49648 0.29428 0.77594 0.0
H311 H 0.49566 0.26683 0.82352 0.0
H312 H 0.47575 0.16233 0.10413 0.0
H313 H 0.47692 0.18322 0.0345 0.0
H314 H 0.48164 0.20489 0.21114 0.0
H315 H 0.48251 0.2259 0.14056 0.0
H316 H 0.48641 0.27018 0.25084 0.0
H317 H 0.44144 0.30176 0.21034 0.0
H318 H 0.44456 0.2927 0.12254 0.0
H319 H 0.48957 0.26123 0.16232 0.0
Tb320 Tb 0.02027 0.00487 0.65462 0.0
C321 C 0.9536 0.99992 0.52489 0.0
C322 C 0.95866 0.97793 0.46067 0.0
C323 C 0.92906 0.98324 0.49095 0.0
C324 C 0.96501 0.99068 0.49488 0.0
C325 C 0.93541 0.99664 0.52262 0.0
C326 C 0.94068 0.97389 0.45995 0.0
C327 C 0.93111 0.02114 0.57928 0.0
N328 N 0.9603 0.0129 0.55418 0.0
C329 C 0.94925 0.02389 0.58011 0.0
C330 C 0.92416 0.00731 0.55093 0.0
Tb331 Tb 0.99027 0.01636 0.55407 0.0
N332 N 0.98218 0.99522 0.49636 0.0
C333 C 0.99339 0.9887 0.46062 0.0
C334 C 0.97043 0.97025 0.42671 0.0
C335 C 0.98781 0.97594 0.42602 0.0
H336 H 0.95438 0.03449 0.60279 0.0
H337 H 0.99695 0.97046 0.39898 0.0
H338 H 0.93558 0.96398 0.43439 0.0
H339 H 0.92251 0.02964 0.60076 0.0
H340 H 0.00686 0.99289 0.45934 0.0
H341 H 0.01057 0.04798 0.81476 0.0
H342 H 0.96611 0.96041 0.3998 0.0
H343 H 0.05822 0.98745 0.61117 0.0
H344 H 1.00203 0.02556 0.75387 0.0
H345 H 0.08941 0.99515 0.61327 0.0
H346 H 0.91515 0.98038 0.48901 0.0
H347 H 0.04058 0.06051 0.81297 0.0
H348 H 0.07073 0.06012 0.77632 0.0
H349 H 0.9101 0.00523 0.55026 0.0
H350 H 0.09226 0.04571 0.72097 0.0
N351 N 0.02635 0.02589 0.71396 0.0
C352 C 0.01499 0.03096 0.75119 0.0
C353 C 0.03673 0.05078 0.78526 0.0
C354 C 0.04878 0.0445 0.74988 0.0
C355 C 0.01987 0.04371 0.78654 0.0
C356 C 0.04326 0.03161 0.7149 0.0
H357 H 0.09942 0.02121 0.66101 0.0
N358 N 0.05005 0.00958 0.65524 0.0
C359 C 0.07999 1.00326 0.6331 0.0
C360 C 0.05548 0.02327 0.68438 0.0
C361 C 0.06218 0.99894 0.63209 0.0
C362 C 0.08558 0.01801 0.65992 0.0
C363 C 0.07337 0.02794 0.68716 0.0
O364 O 0.03153 0.99372 0.71982 0.0
O365 O 0.00447 0.99562 0.59224 0.0
O366 O 0.97592 1.00239 0.61363 0.0
O367 O 0.99341 0.00971 0.68294 0.0
O368 O 0.02773 0.9829 0.60517 0.0
O369 O 0.00919 0.98181 0.68466 0.0
O370 O 0.98066 0.0401 0.52478 0.0
O371 O 0.0064 0.02549 0.61652 0.0
O372 O 0.03556 0.01728 0.5939 0.0
O373 O 0.0171 0.01301 0.52461 0.0
O374 O 0.98538 0.04043 0.59863 0.0
O375 O 1.00052 0.02524 0.48506 0.0
C376 C 0.01397 0.98302 0.57697 0.0
C377 C 0.03057 0.96265 0.71723 0.0
C378 C 0.02852 0.93073 0.71331 0.0
C379 C 0.02046 0.94729 0.71427 0.0
C380 C 0.0469 0.92963 0.71544 0.0
C381 C 0.04897 0.9613 0.71901 0.0
C382 C 0.05704 0.94485 0.71805 0.0
C383 C 0.97824 0.0044 0.66312 0.0
C384 C 0.02169 0.97985 0.71744 0.0
C385 C 0.07862 0.04179 0.71884 0.0
C386 C 0.06635 0.05001 0.75031 0.0
C387 C 0.99857 0.03952 0.6285 0.0
C388 C 0.98184 0.0428 0.43566 0.0
C389 C 0.99136 0.05261 0.40062 0.0
C390 C 0.98353 0.05864 0.35567 0.0
C391 C 0.96613 0.05357 0.34504 0.0
C392 C 0.96457 0.03778 0.42456 0.0
C393 C 0.95684 0.04303 0.37905 0.0
C394 C 0.0327 0.01656 0.54451 0.0
C395 C 0.99025 0.03886 0.48418 0.0
H396 H 0.00626 0.94823 0.71341 0.0
H397 H 0.05342 0.917 0.7146 0.0
H398 H 0.05715 0.9729 0.72104 0.0
H399 H 0.0712 0.9439 0.71937 0.0
H400 H 0.00489 0.0558 0.40925 0.0
H401 H 0.95949 0.05808 0.31127 0.0
H402 H 0.95706 0.03006 0.45113 0.0
H403 H 0.94345 0.03928 0.37064 0.0
Tb404 Tb 0.50995 0.03632 0.63825 0.0
C405 C 0.51891 0.96695 0.5206 0.0
C406 C 0.53739 0.97318 0.44882 0.0
C407 C 0.5368 0.94377 0.48404 0.0
C408 C 0.52546 0.97874 0.48625 0.0
C409 C 0.52421 0.94922 0.51948 0.0
C410 C 0.54335 0.95573 0.44864 0.0
C411 C 0.50307 0.94335 0.5851 0.0
N412 N 0.50653 0.9727 0.55338 0.0
C413 C 0.49818 0.96104 0.58451 0.0
C414 C 0.51629 0.93744 0.55284 0.0
Tb415 Tb 0.49916 1.0019 0.54905 0.0
N416 N 0.51921 0.99539 0.48738 0.0
C417 C 0.52336 0.00678 0.44941 0.0
C418 C 0.54238 0.98511 0.41151 0.0
C419 C 0.53518 1.00194 0.41153 0.0
H420 H 0.48802 0.96539 0.60997 0.0
H421 H 0.53857 0.01122 0.3823 0.0
H422 H 0.55265 0.95125 0.42047 0.0
H423 H 0.49666 0.9343 0.61056 0.0
H424 H 0.51791 0.01979 0.44847 0.0
H425 H 0.47601 0.02058 0.81326 0.0
H426 H 0.55127 0.98122 0.38169 0.0
H427 H 0.51556 0.07483 0.58204 0.0
H428 H 0.49636 0.01535 0.74433 0.0
H429 H 0.50272 0.10449 0.58563 0.0
H430 H 0.54115 0.93024 0.48276 0.0
H431 H 0.45945 0.04839 0.81809 0.0
H432 H 0.45372 0.07839 0.78292 0.0
H433 H 0.52 0.92371 0.55321 0.0
H434 H 0.46095 0.10128 0.72086 0.0
N435 N 0.49177 0.03989 0.70747 0.0
C436 C 0.48963 0.02767 0.74491 0.0
C437 C 0.46857 0.04624 0.78731 0.0
C438 C 0.47146 0.05912 0.75083 0.0
C439 C 0.47791 0.03056 0.78474 0.0
C440 C 0.4834 0.05557 0.7113 0.0
H441 H 0.4794 0.11123 0.64765 0.0
N442 N 0.49945 0.0646 0.64086 0.0
C443 C 0.49821 0.09445 0.61137 0.0
C444 C 0.48734 0.06837 0.67661 0.0
C445 C 0.5055 0.07761 0.60962 0.0
C446 C 0.48502 0.09818 0.64628 0.0
C447 C 0.47963 0.08516 0.68006 0.0
O448 O 0.52948 0.05444 0.65853 0.0
O449 O 0.51926 0.01901 0.5789 0.0
O450 O 0.51731 0.99083 0.60502 0.0
O451 O 0.51207 0.00991 0.67247 0.0
O452 O 0.52779 0.04425 0.57722 0.0
O453 O 0.52952 0.02866 0.69057 0.0
O454 O 0.47662 0.98771 0.52757 0.0
O455 O 0.49014 0.0194 0.60776 0.0
O456 O 0.49179 0.04685 0.58119 0.0
O457 O 0.49756 0.02814 0.51371 0.0
O458 O 0.47855 0.99551 0.60443 0.0
O459 O 0.48638 0.00904 0.48196 0.0
C460 C 0.52947 0.02923 0.55588 0.0
C461 C 0.55693 0.04013 0.66361 0.0
C462 C 0.58398 0.02287 0.66069 0.0
C463 C 0.5672 0.02603 0.68112 0.0
C464 C 0.59024 0.03383 0.622 0.0
C465 C 0.56383 0.05123 0.62601 0.0
C466 C 0.58024 0.04791 0.60501 0.0
C467 C 0.51781 0.99469 0.65397 0.0
C468 C 0.53873 0.04272 0.68212 0.0
C469 C 0.46717 0.08854 0.71789 0.0
C470 C 0.46307 0.07552 0.75322 0.0
C471 C 0.47869 0.01005 0.62869 0.0
C472 C 0.47227 0.98631 0.43855 0.0
C473 C 0.46166 0.99376 0.40115 0.0
C474 C 0.4589 0.98519 0.35471 0.0
C475 C 0.46728 0.96906 0.34572 0.0
C476 C 0.48044 0.97012 0.42941 0.0
C477 C 0.47797 0.96157 0.38303 0.0
C478 C 0.49208 0.04341 0.53209 0.0
C479 C 0.47506 0.99635 0.48531 0.0
H480 H 0.56212 0.0175 0.71037 0.0
H481 H 0.60319 0.03192 0.60608 0.0
H482 H 0.55644 0.06232 0.61189 0.0
H483 H 0.58528 0.05639 0.57565 0.0
H484 H 0.45574 0.00649 0.4081 0.0
H485 H 0.46536 0.96213 0.31031 0.0
H486 H 0.48874 0.96414 0.45777 0.0
H487 H 0.48432 0.9491 0.37602 0.0
Tb488 Tb 0.52991 0.49918 0.50548 0.0
C489 C 0.46035 0.51058 0.57833 0.0
C490 C 0.44874 0.53333 0.5241 0.0
C491 C 0.42982 0.50963 0.55104 0.0
C492 C 0.46292 0.52563 0.5506 0.0
C493 C 0.44351 0.50287 0.58069 0.0
C494 C 0.43248 0.52477 0.52237 0.0
C495 C 0.45359 0.48542 0.65068 0.0
N496 N 0.47359 0.50513 0.6088 0.0
C497 C 0.46981 0.49389 0.64797 0.0
C498 C 0.44052 0.48956 0.61587 0.0
Tb499 Tb 0.50067 0.51845 0.59654 0.0
N500 N 0.47871 0.53381 0.55446 0.0
C501 C 0.48 0.55099 0.53919 0.0
C502 C 0.45096 0.54994 0.50292 0.0
C503 C 0.4665 0.55901 0.51184 0.0
H504 H 0.47947 0.49111 0.6769 0.0
H505 H 0.46796 0.57237 0.49869 0.0
H506 H 0.42156 0.53034 0.50153 0.0
H507 H 0.45109 0.47597 0.68028 0.0
H508 H 0.49109 0.55906 0.54883 0.0
H509 H 0.56456 0.45589 0.63455 0.0
H510 H 0.44042 0.55628 0.48236 0.0
H511 H 0.54502 0.52081 0.40641 0.0
H512 H 0.53889 0.46821 0.59294 0.0
H513 H 0.57348 0.5312 0.37395 0.0
H514 H 0.41683 0.50391 0.55241 0.0
H515 H 0.5942 0.46659 0.61308 0.0
H516 H 0.61296 0.48471 0.55645 0.0
H517 H 0.4278 0.48331 0.61881 0.0
H518 H 0.61554 0.50617 0.48751 0.0
N519 N 0.55317 0.48679 0.54869 0.0
C520 C 0.55147 0.47336 0.58277 0.0
C521 C 0.58282 0.47231 0.59481 0.0
C522 C 0.58465 0.48524 0.55785 0.0
C523 C 0.56615 0.4662 0.60684 0.0
C524 C 0.56942 0.49234 0.5354 0.0
H525 H 0.60087 0.52369 0.41935 0.0
N526 N 0.5559 0.5092 0.4726 0.0
C527 C 0.57295 0.52375 0.40871 0.0
C528 C 0.57083 0.50405 0.49608 0.0
C529 C 0.55684 0.51796 0.42748 0.0
C530 C 0.58835 0.51953 0.4345 0.0
C531 C 0.58747 0.50908 0.47781 0.0
O532 O 0.5281 0.49355 0.4279 0.0
O533 O 0.50292 0.50594 0.52358 0.0
O534 O 0.50082 0.49037 0.61181 0.0
O535 O 0.51512 0.47792 0.54273 0.0
O536 O 0.51215 0.51273 0.45375 0.0
O537 O 0.53236 0.47291 0.48181 0.0
O538 O 0.48765 0.52713 0.66186 0.0
O539 O 0.52754 0.51171 0.57876 0.0
O540 O 0.53637 0.52719 0.50426 0.0
O541 O 0.51295 0.53903 0.5499 0.0
O542 O 0.51873 0.50601 0.65 0.0
O543 O 0.51102 0.54008 0.63679 0.0
C544 C 0.49841 0.51264 0.48187 0.0
C545 C 0.51329 0.46686 0.41301 0.0
C546 C 0.49366 0.44162 0.4143 0.0
C547 C 0.50884 0.45018 0.43156 0.0
C548 C 0.48323 0.44955 0.37696 0.0
C549 C 0.50295 0.47437 0.37454 0.0
C550 C 0.48805 0.46571 0.35664 0.0
C551 C 0.50572 0.47675 0.58462 0.0
C552 C 0.52815 0.4767 0.43526 0.0
C553 C 0.60265 0.5026 0.50127 0.0
C554 C 0.60122 0.49054 0.54085 0.0
C555 C 0.53243 0.50604 0.62149 0.0
C556 C 0.50724 0.53705 0.72488 0.0
C557 C 0.51566 0.55166 0.74606 0.0
C558 C 0.5223 0.55114 0.79584 0.0
C559 C 0.52078 0.53544 0.8235 0.0
C560 C 0.50593 0.52151 0.75315 0.0
C561 C 0.51277 0.52073 0.80203 0.0
C562 C 0.52674 0.54063 0.51978 0.0
C563 C 0.49985 0.5383 0.67344 0.0
H564 H 0.51694 0.44397 0.46013 0.0
H565 H 0.4716 0.44304 0.36263 0.0
H566 H 0.50614 0.4871 0.35893 0.0
H567 H 0.48005 0.47167 0.32748 0.0
H568 H 0.51699 0.56343 0.72349 0.0
H569 H 0.52539 0.53458 0.86216 0.0
H570 H 0.49958 0.50998 0.73762 0.0
H571 H 0.51164 0.50875 0.82368 0.0
Tb572 Tb 0.01815 0.5346 0.52798 0.0
C573 C 0.01252 0.46384 0.63109 0.0
C574 C 0.99634 0.44508 0.5738 0.0
C575 C 0.01799 0.43241 0.63054 0.0
C576 C 1.00024 0.46191 0.59319 0.0
C577 C 0.02129 0.4491 0.65106 0.0
C578 C 0.00553 0.4304 0.59194 0.0
C579 C 0.03475 0.46822 0.71291 0.0
N580 N 0.01528 0.48014 0.64997 0.0
C581 C 0.02565 0.48239 0.69201 0.0
C582 C 0.03275 0.45152 0.6919 0.0
Tb583 Tb 1.00013 0.50271 0.61232 0.0
N584 N 0.99178 0.47645 0.57634 0.0
C585 C 0.97819 0.47474 0.54268 0.0
C586 C 0.98313 0.44347 0.53736 0.0
C587 C 0.97388 0.45834 0.52223 0.0
H588 H 0.02735 0.4953 0.70834 0.0
H589 H 0.96344 0.45722 0.49459 0.0
H590 H 1.00284 0.41741 0.5771 0.0
H591 H 0.04331 0.4702 0.74512 0.0
H592 H 0.97081 0.48589 0.52987 0.0
H593 H 0.04607 0.5849 0.6497 0.0
H594 H 0.97978 0.4308 0.52133 0.0
H595 H 1.00087 0.53954 0.41169 0.0
H596 H 0.04302 0.55524 0.61579 0.0
H597 H 0.98665 0.56294 0.36323 0.0
H598 H 0.02472 0.42093 0.645 0.0
H599 H 0.02827 0.60912 0.6148 0.0
H600 H 0.00711 0.61958 0.54875 0.0
H601 H 0.03977 0.44053 0.70824 0.0
H602 H 0.99073 0.61355 0.47043 0.0
N603 N 0.02274 0.56181 0.56327 0.0
C604 C 0.03496 0.56537 0.59993 0.0
C605 C 0.02674 0.59598 0.5997 0.0
C606 C 0.01542 0.59262 0.55917 0.0
C607 C 0.03684 0.58235 0.61939 0.0
C608 C 0.01389 0.57524 0.54099 0.0
H609 H 0.98351 0.5926 0.40013 0.0
N610 N 0.00497 0.5553 0.47774 0.0
C611 C 0.99143 0.56558 0.40107 0.0
C612 C 0.00467 0.57187 0.49682 0.0
C613 C 0.99942 0.55224 0.42912 0.0
C614 C 0.98964 0.58229 0.42208 0.0
C615 C 0.99673 0.58575 0.4699 0.0
O616 O 0.0381 0.52095 0.48866 0.0
O617 O 0.01204 0.5072 0.53991 0.0
O618 O 0.02856 0.49856 0.60349 0.0
O619 O 0.03712 0.52709 0.58701 0.0
O620 O 0.00766 0.51715 0.46921 0.0
O621 O 0.03824 0.54893 0.49243 0.0
O622 O 0.9922 0.49883 0.68716 0.0
O623 O 0.00506 0.53047 0.59995 0.0
O624 O 0.98964 0.5378 0.51972 0.0
O625 O 0.97923 0.51294 0.56217 0.0
O626 O 0.00962 0.52086 0.67058 0.0
O627 O 0.97298 0.50247 0.62826 0.0
C628 C 0.00676 0.50309 0.49599 0.0
C629 C 0.04737 0.5358 0.41537 0.0
C630 C 0.05805 0.52195 0.33763 0.0
C631 C 0.05553 0.52167 0.39043 0.0
C632 C 0.05198 0.53653 0.31007 0.0
C633 C 0.04163 0.55028 0.38696 0.0
C634 C 0.04381 0.55053 0.33463 0.0
C635 C 0.04054 0.51114 0.60421 0.0
C636 C 0.04492 0.53518 0.4708 0.0
C637 C 0.997 0.60279 0.49017 0.0
C638 C 0.00634 0.60622 0.53476 0.0
C639 C 0.00933 0.53497 0.64439 0.0
C640 C 0.96635 0.51407 0.70974 0.0
C641 C 0.94807 0.51597 0.70521 0.0
C642 C 0.93865 0.52676 0.73904 0.0
C643 C 0.94794 0.53573 0.77728 0.0
C644 C 0.97529 0.5235 0.74766 0.0
C645 C 0.96612 0.53431 0.78091 0.0
C646 C 0.97684 0.52691 0.53282 0.0
C647 C 0.97573 0.50145 0.67687 0.0
H648 H 0.05991 0.51046 0.41226 0.0
H649 H 0.05399 0.53739 0.26962 0.0
H650 H 0.03546 0.56145 0.40501 0.0
H651 H 0.03935 0.56174 0.31306 0.0
H652 H 0.94125 0.50893 0.67543 0.0
H653 H 0.94119 0.54376 0.80489 0.0
H654 H 0.98935 0.52234 0.75244 0.0
H655 H 0.9731 0.54138 0.81026 0.0
H656 H 0.17546 0.0372 0.2759 0.0
H657 H 0.15215 0.03812 0.33938 0.0
H658 H 0.1179 0.00974 0.2382 0.0
H659 H 0.14077 0.00948 0.17393 0.0
H660 H 0.09999 0.03443 0.2819 0.0
H661 H 0.13957 0.98994 0.34085 0.0
H662 H 0.16798 0.9776 0.36783 0.0
H663 H 0.17074 0.01501 0.4893 0.0
H664 H 0.14243 0.02774 0.4626 0.0
H665 H 0.03542 0.00388 0.44827 0.0
H666 H 0.06006 0.00611 0.39052 0.0
H667 H 0.08916 0.03543 0.50239 0.0
H668 H 0.0645 0.0327 0.56151 0.0
H669 H 0.1102 0.01257 0.4561 0.0
H670 H 0.0695 0.0567 0.39454 0.0
H671 H 0.04011 0.06677 0.36815 0.0
H672 H 0.03868 0.02717 0.25242 0.0
H673 H 0.06818 0.01706 0.2776 0.0
C674 C 0.16291 0.03133 0.26686 0.0
C675 C 0.16013 0.02315 0.21967 0.0
C676 C 0.14962 0.03169 0.30353 0.0
C677 C 0.13326 0.02375 0.29413 0.0
C678 C 0.13037 0.01589 0.24672 0.0
C679 C 0.14359 0.0156 0.21004 0.0
C680 C 0.1191 0.02359 0.33328 0.0
C681 C 0.10227 0.02953 0.31985 0.0
C682 C 0.12196 0.01752 0.38331 0.0
C683 C 0.13899 0.00993 0.39935 0.0
C684 C 0.14631 0.99564 0.37304 0.0
C685 C 0.16238 0.98855 0.38834 0.0
C686 C 0.17119 0.99555 0.43015 0.0
C687 C 0.16392 0.00963 0.45685 0.0
C688 C 0.14786 0.01678 0.44167 0.0
C689 C 0.04697 0.01092 0.46071 0.0
C690 C 0.04785 0.01827 0.50949 0.0
C691 C 0.0611 0.01225 0.42739 0.0
C692 C 0.0764 0.02135 0.44133 0.0
C693 C 0.07749 0.02846 0.49042 0.0
C694 C 0.06337 0.02691 0.5242 0.0
C695 C 0.09115 0.02328 0.4045 0.0
C696 C 0.10805 0.01768 0.41834 0.0
C697 C 0.08835 0.02952 0.35466 0.0
C698 C 0.07101 0.03614 0.33795 0.0
C699 C 0.06294 0.05022 0.36328 0.0
C700 C 0.04628 0.05595 0.34846 0.0
C701 C 0.03757 0.04765 0.30848 0.0
C702 C 0.04551 0.03366 0.28314 0.0
C703 C 0.06224 0.02801 0.2974 0.0
H704 H 0.02468 0.05202 0.29703 0.0
H705 H 0.18363 0.99004 0.44195 0.0
H706 H 0.46247 0.18356 0.25621 0.0
H707 H 0.46218 0.16114 0.32268 0.0
H708 H 0.49564 0.12815 0.23169 0.0
H709 H 0.49599 0.15038 0.16555 0.0
H710 H 0.46937 0.10948 0.26863 0.0
H711 H 0.51087 0.15146 0.33629 0.0
H712 H 0.52051 0.18064 0.3658 0.0
H713 H 0.48013 0.18066 0.47879 0.0
H714 H 0.47011 0.15156 0.44949 0.0
H715 H 0.50349 0.04681 0.43501 0.0
H716 H 0.49885 0.07118 0.37738 0.0
H717 H 0.46682 0.09722 0.48905 0.0
H718 H 0.47185 0.07282 0.54784 0.0
H719 H 0.48819 0.12025 0.44572 0.0
H720 H 0.44843 0.0767 0.38203 0.0
H721 H 0.44064 0.04666 0.35505 0.0
H722 H 0.47829 0.04945 0.23486 0.0
H723 H 0.48648 0.07939 0.26144 0.0
C724 C 0.46991 0.1716 0.25064 0.0
C725 C 0.47915 0.16875 0.20529 0.0
C726 C 0.46971 0.15877 0.28867 0.0
C727 C 0.4789 0.1429 0.28236 0.0
C728 C 0.48831 0.14018 0.23741 0.0
C729 C 0.48846 0.15292 0.19949 0.0
C730 C 0.47863 0.12888 0.32173 0.0
C731 C 0.47358 0.11186 0.30727 0.0
C732 C 0.48359 0.13197 0.37267 0.0
C733 C 0.48961 0.14944 0.3903 0.0
C734 C 0.50396 0.15775 0.36714 0.0
C735 C 0.50951 0.17426 0.38389 0.0
C736 C 0.5009 0.18252 0.42403 0.0
C737 C 0.48676 0.17426 0.44763 0.0
C738 C 0.48115 0.15776 0.43099 0.0
C739 C 0.49528 0.05757 0.44728 0.0
C740 C 0.48799 0.05778 0.49606 0.0
C741 C 0.4926 0.07156 0.41411 0.0
C742 C 0.4822 0.08599 0.42829 0.0
C743 C 0.47485 0.08625 0.47703 0.0
C744 C 0.4777 0.07227 0.51056 0.0
C745 C 0.47936 0.10079 0.39221 0.0
C746 C 0.48373 0.11794 0.40728 0.0
C747 C 0.47377 0.09785 0.34174 0.0
C748 C 0.46815 0.08024 0.32397 0.0
C749 C 0.45505 0.0709 0.34986 0.0
C750 C 0.45059 0.05389 0.33471 0.0
C751 C 0.45906 0.04616 0.29352 0.0
C752 C 0.4718 0.05547 0.26686 0.0
C753 C 0.47632 0.07247 0.28188 0.0
H754 H 0.45581 0.03294 0.2823 0.0
H755 H 0.50522 0.1953 0.43695 0.0
H756 H 0.36249 0.52171 0.19915 0.0
H757 H 0.38726 0.52249 0.25797 0.0
H758 H 0.39745 0.46775 0.22874 0.0
H759 H 0.37246 0.46681 0.17011 0.0
H760 H 0.40018 0.47546 0.32988 0.0
H761 H 0.42298 0.49759 0.17556 0.0
H762 H 0.42407 0.51634 0.09978 0.0
H763 H 0.42782 0.56224 0.19372 0.0
H764 H 0.42649 0.54377 0.27011 0.0
H765 H 0.48008 0.48216 0.47486 0.0
H766 H 0.45619 0.47581 0.41732 0.0
H767 H 0.45296 0.53097 0.37922 0.0
H768 H 0.47935 0.53622 0.42871 0.0
H769 H 0.44772 0.51863 0.30297 0.0
H770 H 0.41664 0.49385 0.45935 0.0
H771 H 0.41579 0.4728 0.53071 0.0
H772 H 0.42865 0.43062 0.42959 0.0
H773 H 0.42947 0.45134 0.358 0.0
C774 C 0.36987 0.50977 0.20554 0.0
C775 C 0.36544 0.4942 0.17978 0.0
C776 C 0.38414 0.51027 0.23895 0.0
C777 C 0.39436 0.49522 0.24756 0.0
C778 C 0.3898 0.47955 0.22269 0.0
C779 C 0.37558 0.47907 0.18889 0.0
C780 C 0.40988 0.49602 0.28206 0.0
C781 C 0.41058 0.48499 0.32435 0.0
C782 C 0.42362 0.50816 0.27448 0.0
C783 C 0.42446 0.5193 0.22857 0.0
C784 C 0.42388 0.51169 0.18007 0.0
C785 C 0.42457 0.52227 0.137 0.0
C786 C 0.42597 0.54047 0.14193 0.0
C787 C 0.42672 0.54814 0.18995 0.0
C788 C 0.42601 0.53762 0.23315 0.0
C789 C 0.47399 0.49291 0.45462 0.0
C790 C 0.48124 0.50979 0.45722 0.0
C791 C 0.4599 0.48935 0.42192 0.0
C792 C 0.45187 0.50283 0.39344 0.0
C793 C 0.45875 0.51996 0.39895 0.0
C794 C 0.47368 0.52319 0.42842 0.0
C795 C 0.4374 0.49939 0.35519 0.0
C796 C 0.43711 0.50958 0.31061 0.0
C797 C 0.42402 0.48645 0.36083 0.0
C798 C 0.42332 0.47414 0.4038 0.0
C799 C 0.41938 0.4801 0.45269 0.0
C800 C 0.41888 0.46825 0.49302 0.0
C801 C 0.42231 0.45045 0.48473 0.0
C802 C 0.42604 0.44441 0.436 0.0
C803 C 0.42644 0.45617 0.39555 0.0
H804 H 0.42199 0.44134 0.51603 0.0
H805 H 0.42651 0.54864 0.10854 0.0
H806 H 0.99623 0.35113 0.26408 0.0
H807 H 0.99565 0.37509 0.32578 0.0
H808 H 0.03325 0.40377 0.23685 0.0
H809 H 0.03426 0.37965 0.17563 0.0
H810 H 0.04052 0.40766 0.33592 0.0
H811 H 0.98918 0.41297 0.23072 0.0
H812 H 0.96169 0.40301 0.1906 0.0
H813 H 0.93894 0.39436 0.33686 0.0
H814 H 0.96641 0.40406 0.37786 0.0
H815 H 0.98972 0.49357 0.41095 0.0
H816 H 0.99194 0.46616 0.36365 0.0
H817 H 0.02627 0.44525 0.47892 0.0
H818 H 0.02568 0.47359 0.52282 0.0
H819 H 0.98311 0.43551 0.37238 0.0
H820 H 0.04995 0.41318 0.44082 0.0
H821 H 0.07716 0.42573 0.47653 0.0
H822 H 0.06919 0.47281 0.3908 0.0
H823 H 0.04209 0.46047 0.35407 0.0
C824 C 0.0046 0.3624 0.2579 0.0
C825 C 0.01522 0.3634 0.21442 0.0
C826 C 0.00414 0.3762 0.29315 0.0
C827 C 0.01424 0.39144 0.28591 0.0
C828 C 0.02528 0.39224 0.24344 0.0
C829 C 0.02571 0.37846 0.20809 0.0
C830 C 0.01275 0.40683 0.32116 0.0
C831 C 0.02797 0.41378 0.3437 0.0
C832 C 0.99641 0.41491 0.33184 0.0
C833 C 0.97991 0.40904 0.30732 0.0
C834 C 0.97837 0.4088 0.25431 0.0
C835 C 0.96279 0.40323 0.23142 0.0
C836 C 0.9486 0.398 0.26116 0.0
C837 C 0.94996 0.39838 0.31387 0.0
C838 C 0.96552 0.40392 0.33696 0.0
C839 C 0.99779 0.4831 0.42606 0.0
C840 C 0.00713 0.48556 0.47135 0.0
C841 C 0.99898 0.46732 0.39912 0.0
C842 C 0.00944 0.45341 0.41686 0.0
C843 C 0.01852 0.45577 0.46298 0.0
C844 C 0.01784 0.47187 0.48898 0.0
C845 C 0.01098 0.43683 0.38602 0.0
C846 C 0.99572 0.4295 0.36459 0.0
C847 C 0.02733 0.42872 0.37524 0.0
C848 C 0.04403 0.43591 0.39486 0.0
C849 C 0.05411 0.42615 0.42932 0.0
C850 C 0.06948 0.43326 0.44982 0.0
C851 C 0.07492 0.45006 0.43583 0.0
C852 C 0.06502 0.45978 0.4013 0.0
C853 C 0.04966 0.45275 0.38066 0.0
H854 H 0.08682 0.45555 0.45171 0.0
H855 H 0.93654 0.3937 0.24337 0.0
H856 H 0.86598 0.99688 0.02586 0.0
H857 H 0.89005 0.99809 0.96534 0.0
H858 H 0.85386 0.98795 0.84321 0.0
H859 H 0.82963 0.98628 0.904 0.0
H860 H 0.88419 0.96905 0.83192 0.0
H861 H 0.86897 0.02897 0.86361 0.0
H862 H 0.86275 0.05514 0.91557 0.0
H863 H 0.91482 0.05318 0.97753 0.0
H864 H 0.92128 0.02682 0.92647 0.0
H865 H 0.94534 0.99209 0.63888 0.0
H866 H 0.91979 0.98978 0.69369 0.0
H867 H 0.9513 0.00584 0.82139 0.0
H868 H 0.97653 0.0094 0.76605 0.0
H869 H 0.92198 0.02196 0.82668 0.0
H870 H 0.9372 0.96156 0.79312 0.0
H871 H 0.94311 0.93604 0.73808 0.0
H872 H 0.89077 0.93876 0.67872 0.0
H873 H 0.88468 0.96465 0.73202 0.0
C874 C 0.8631 0.99467 0.98623 0.0
C875 C 0.84578 0.99143 0.97 0.0
C876 C 0.8769 0.99555 0.95151 0.0
C877 C 0.87381 0.9933 0.8995 0.0
C878 C 0.85661 0.98978 0.88309 0.0
C879 C 0.84273 0.98896 0.91789 0.0
C880 C 0.88854 0.99487 0.86255 0.0
C881 C 0.89234 0.9807 0.83029 0.0
C882 C 0.89938 0.00995 0.86084 0.0
C883 C 0.89555 0.02581 0.89157 0.0
C884 C 0.87905 0.03403 0.88863 0.0
C885 C 0.87549 0.04891 0.91787 0.0
C886 C 0.88837 0.05579 0.94993 0.0
C887 C 0.90485 0.04782 0.95273 0.0
C888 C 0.90847 0.03292 0.92362 0.0
C889 C 0.9468 0.99545 0.67842 0.0
C890 C 0.96299 1.00148 0.69745 0.0
C891 C 0.93217 0.99381 0.71008 0.0
C892 C 0.9335 0.99747 0.76213 0.0
C893 C 0.94979 1.00302 0.78143 0.0
C894 C 0.96431 0.00502 0.74958 0.0
C895 C 0.91795 0.99599 0.79644 0.0
C896 C 0.91392 0.01025 0.82823 0.0
C897 C 0.90693 0.98097 0.7976 0.0
C898 C 0.91053 0.96517 0.7663 0.0
C899 C 0.92698 0.9568 0.76812 0.0
C900 C 0.93036 0.94226 0.73726 0.0
C901 C 0.91732 0.93577 0.7051 0.0
C902 C 0.90086 0.94381 0.70366 0.0
C903 C 0.89745 0.95844 0.7341 0.0
H904 H 0.91998 0.9245 0.6813 0.0
H905 H 0.88559 0.06732 0.97252 0.0
H906 H 0.53807 0.8922 0.03398 0.0
H907 H 0.53686 0.91521 0.97003 0.0
H908 H 0.54343 0.87652 0.85243 0.0
H909 H 0.54426 0.85326 0.91619 0.0
H910 H 0.56326 0.90746 0.83586 0.0
H911 H 0.50381 0.89117 0.87457 0.0
H912 H 0.47875 0.88535 0.93085 0.0
H913 H 0.48066 0.93844 0.98533 0.0
H914 H 0.50593 0.94451 0.92988 0.0
H915 H 0.53199 0.96216 0.63326 0.0
H916 H 0.53822 0.93856 0.69316 0.0
H917 H 0.5255 0.97315 0.81714 0.0
H918 H 0.51881 0.99649 0.75771 0.0
H919 H 0.50893 0.94322 0.82834 0.0
H920 H 0.56762 0.96029 0.78989 0.0
H921 H 0.59304 0.96668 0.73575 0.0
H922 H 0.59358 0.91335 0.68331 0.0
H923 H 0.56782 0.90669 0.73624 0.0
C924 C 0.53917 0.8885 0.99455 0.0
C925 C 0.54104 0.87076 0.98043 0.0
C926 C 0.53859 0.90172 0.95799 0.0
C927 C 0.53987 0.8976 0.90635 0.0
C928 C 0.54244 0.88003 0.89205 0.0
C929 C 0.54295 0.86673 0.92866 0.0
C930 C 0.53759 0.91155 0.86748 0.0
C931 C 0.55131 0.91515 0.83364 0.0
C932 C 0.52214 0.92183 0.86532 0.0
C933 C 0.50687 0.91824 0.89842 0.0
C934 C 0.49898 0.90157 0.89883 0.0
C935 C 0.48472 0.89823 0.93054 0.0
C936 C 0.47814 0.9115 0.96174 0.0
C937 C 0.48579 0.92816 0.96119 0.0
C938 C 0.50006 0.93156 0.9296 0.0
C939 C 0.5303 0.9647 0.6732 0.0
C940 C 0.524 0.98105 0.69025 0.0
C941 C 0.53413 0.95123 0.70756 0.0
C942 C 0.53216 0.95396 0.75986 0.0
C943 C 0.52685 0.97058 0.77701 0.0
C944 C 0.52294 0.98396 0.74273 0.0
C945 C 0.5347 0.93939 0.7968 0.0
C946 C 0.52094 0.93559 0.83029 0.0
C947 C 0.55017 0.92907 0.79873 0.0
C948 C 0.56563 0.93304 0.76667 0.0
C949 C 0.57302 0.94995 0.76644 0.0
C950 C 0.58753 0.95362 0.73603 0.0
C951 C 0.59494 0.94045 0.70611 0.0
C952 C 0.58782 0.92356 0.70648 0.0
C953 C 0.57325 0.91983 0.73665 0.0
H954 H 0.60621 0.94333 0.68271 0.0
H955 H 0.4671 0.90889 0.98626 0.0
H956 H 0.64759 0.55444 0.95206 0.0
H957 H 0.62534 0.55226 0.88555 0.0
H958 H 0.64795 0.50338 0.8354 0.0
H959 H 0.67015 0.50538 0.90196 0.0
H960 H 0.63922 0.5233 0.75571 0.0
H961 H 0.60978 0.50391 0.90823 0.0
H962 H 0.59989 0.50713 0.99659 0.0
H963 H 0.57209 0.5542 0.95752 0.0
H964 H 0.58209 0.55139 0.86898 0.0
H965 H 0.54524 0.48765 0.70003 0.0
H966 H 0.57162 0.49346 0.74974 0.0
H967 H 0.58464 0.53623 0.65011 0.0
H968 H 0.55876 0.52956 0.59822 0.0
H969 H 0.57622 0.52296 0.80145 0.0
H970 H 0.61465 0.54443 0.65138 0.0
H971 H 0.62938 0.54059 0.56906 0.0
H972 H 0.64311 0.48775 0.60902 0.0
H973 H 0.62752 0.49101 0.69026 0.0
C974 C 0.64781 0.54317 0.92708 0.0
C975 C 0.6607 0.53004 0.9328 0.0
C976 C 0.63506 0.54196 0.8889 0.0
C977 C 0.63478 0.52754 0.85563 0.0
C978 C 0.64787 0.51466 0.86042 0.0
C979 C 0.66063 0.51586 0.89852 0.0
C980 C 0.62068 0.52561 0.81655 0.0
C981 C 0.62543 0.52324 0.76575 0.0
C982 C 0.60265 0.52573 0.82915 0.0
C983 C 0.59667 0.52746 0.88217 0.0
C984 C 0.60162 0.51498 0.91859 0.0
C985 C 0.59601 0.51674 0.96865 0.0
C986 C 0.58537 0.53087 0.98263 0.0
C987 C 0.58031 0.54327 0.94656 0.0
C988 C 0.58592 0.54159 0.89646 0.0
C989 C 0.5541 0.49789 0.68771 0.0
C990 C 0.5501 0.50793 0.64478 0.0
C991 C 0.56918 0.50128 0.71628 0.0
C992 C 0.5805 0.51515 0.70367 0.0
C993 C 0.57672 0.52501 0.65992 0.0
C994 C 0.56176 0.5213 0.63038 0.0
C995 C 0.59471 0.52022 0.74024 0.0
C996 C 0.58998 0.52321 0.79104 0.0
C997 C 0.61276 0.52064 0.72758 0.0
C998 C 0.61931 0.51772 0.6758 0.0
C999 C 0.62018 0.53177 0.64164 0.0
C1000 C 0.6288 0.52975 0.59537 0.0
C1001 C 0.63712 0.51391 0.58372 0.0
C1002 C 0.63658 0.49998 0.61798 0.0
C1003 C 0.62758 0.5018 0.66367 0.0
H1004 H 0.644 0.51243 0.5482 0.0
H1005 H 0.58103 0.53221 0.0214 0.0
H1006 H 0.01049 0.65495 0.97826 0.0
H1007 H 0.0111 0.63112 0.91666 0.0
H1008 H 0.98556 0.66423 0.80698 0.0
H1009 H 0.98498 0.68835 0.86876 0.0
H1010 H 0.97243 0.63112 0.80241 0.0
H1011 H 0.02952 0.65649 0.79937 0.0
H1012 H 0.05724 0.66775 0.83508 0.0
H1013 H 0.0689 0.61685 0.89578 0.0
H1014 H 0.04112 0.60533 0.86106 0.0
H1015 H 0.98946 0.56383 0.61532 0.0
H1016 H 0.98729 0.5922 0.65926 0.0
H1017 H 0.01999 0.57203 0.77949 0.0
H1018 H 0.02377 0.54479 0.73275 0.0
H1019 H 0.02948 0.6024 0.76736 0.0
H1020 H 0.97025 0.57744 0.77002 0.0
H1021 H 0.94377 0.56708 0.72562 0.0
H1022 H 0.93563 0.61829 0.66321 0.0
H1023 H 0.96276 0.62876 0.70432 0.0
C1024 C 0.00512 0.65731 0.94095 0.0
C1025 C 0.99793 0.67379 0.92852 0.0
C1026 C 0.00543 0.64357 0.90565 0.0
C1027 C 0.99867 0.64586 0.85658 0.0
C1028 C 0.99093 0.66208 0.84442 0.0
C1029 C 0.99058 0.67589 0.87991 0.0
C1030 C 1.00012 0.63137 0.81823 0.0
C1031 C 0.98492 0.62491 0.79439 0.0
C1032 C 0.01639 0.62323 0.80726 0.0
C1033 C 0.03317 0.63009 0.82792 0.0
C1034 C 0.03794 0.64772 0.82062 0.0
C1035 C 0.05367 0.65415 0.84065 0.0
C1036 C 0.0648 0.64303 0.86777 0.0
C1037 C 0.06025 0.62545 0.8748 0.0
C1038 C 0.04453 0.61896 0.85491 0.0
C1039 C 0.99652 0.56573 0.65047 0.0
C1040 C 0.00735 0.55234 0.66957 0.0
C1041 C 0.99498 0.58184 0.67635 0.0
C1042 C 1.00329 0.58448 0.72359 0.0
C1043 C 0.01358 0.57072 0.74309 0.0
C1044 C 0.01566 0.555 0.71641 0.0
C1045 C 1.00162 0.60128 0.7535 0.0
C1046 C 0.01689 0.60841 0.77544 0.0
C1047 C 0.9854 0.61 0.76246 0.0
C1048 C 0.96866 0.60384 0.73992 0.0
C1049 C 0.96286 0.58649 0.74674 0.0
C1050 C 0.94774 0.58058 0.72206 0.0
C1051 C 0.9379 0.59202 0.69215 0.0
C1052 C 0.94325 0.60943 0.68645 0.0
C1053 C 0.95858 0.61533 0.71008 0.0
H1054 H 0.92616 0.58738 0.6733 0.0
H1055 H 0.07697 0.64803 0.88325 0.0
H1056 H 0.03154 0.18188 0.0634 0.0
H1057 H 0.02469 0.15205 0.08991 0.0
H1058 H 0.06513 0.15487 0.20382 0.0
H1059 H 0.07238 0.18465 0.17687 0.0
H1060 H 0.04229 0.11765 0.1201 0.0
H1061 H 0.04209 0.15072 0.31259 0.0
H1062 H 0.04189 0.1806 0.34892 0.0
H1063 H 0.01163 0.19906 0.22261 0.0
H1064 H 0.01134 0.16923 0.1862 0.0
H1065 H 0.00762 0.08357 0.38351 0.0
H1066 H 0.0241 0.10313 0.33026 0.0
H1067 H 0.99654 0.08363 0.19885 0.0
H1068 H 0.98148 0.06216 0.25157 0.0
H1069 H 0.01331 0.12876 0.28499 0.0
H1070 H 0.01617 0.0946 0.09126 0.0
H1071 H 0.01963 0.0652 0.05325 0.0
H1072 H 0.04824 0.04804 0.18403 0.0
H1073 H 0.04463 0.07723 0.22339 0.0
C1074 C 0.03959 0.17589 0.09241 0.0
C1075 C 0.05223 0.18577 0.11894 0.0
C1076 C 0.03566 0.15879 0.10741 0.0
C1077 C 0.04422 0.15146 0.14924 0.0
C1078 C 0.05832 0.16043 0.17158 0.0
C1079 C 0.06232 0.17749 0.1565 0.0
C1080 C 0.03585 0.13689 0.17669 0.0
C1081 C 0.03589 0.11994 0.15613 0.0
C1082 C 0.02762 0.14002 0.22363 0.0
C1083 C 0.02686 0.15781 0.24648 0.0
C1084 C 0.03528 0.16114 0.29283 0.0
C1085 C 0.03526 0.17806 0.31341 0.0
C1086 C 0.0268 0.19173 0.288 0.0
C1087 C 0.01821 0.18848 0.2422 0.0
C1088 C 0.01813 0.17157 0.22159 0.0
C1089 C 0.00542 0.08282 0.34312 0.0
C1090 C 0.99328 0.07094 0.3221 0.0
C1091 C 0.01476 0.09431 0.31258 0.0
C1092 C 0.01173 0.0949 0.26026 0.0
C1093 C 0.9995 0.08322 0.23888 0.0
C1094 C 0.99056 0.07118 0.26938 0.0
C1095 C 0.02022 0.10892 0.22988 0.0
C1096 C 0.0199 0.12609 0.24945 0.0
C1097 C 0.02836 0.10582 0.18248 0.0
C1098 C 0.02997 0.08802 0.16039 0.0
C1099 C 0.02308 0.0845 0.11206 0.0
C1100 C 0.02501 0.06786 0.0904 0.0
C1101 C 0.034 0.0547 0.11652 0.0
C1102 C 0.04104 0.05816 0.16435 0.0
C1103 C 0.03898 0.07472 0.18645 0.0
H1104 H 0.0356 0.04186 0.09956 0.0
H1105 H 0.02687 0.20484 0.30386 0.0
H1106 H 0.3338 0.05923 0.21193 0.0
H1107 H 0.36402 0.05243 0.23157 0.0
H1108 H 0.37678 0.05222 0.07281 0.0
H1109 H 0.34636 0.05984 0.05233 0.0
H1110 H 0.38603 0.02178 0.11831 0.0
H1111 H 0.3972 0.08132 0.14777 0.0
H1112 H 0.39278 0.11166 0.17759 0.0
H1113 H 0.39391 0.09406 0.33167 0.0
H1114 H 0.398 0.06357 0.30294 0.0
H1115 H 0.46389 0.98807 0.25189 0.0
H1116 H 0.44569 0.00468 0.19176 0.0
H1117 H 0.40966 0.01742 0.312 0.0
H1118 H 0.42738 1.00074 0.37142 0.0
H1119 H 0.42097 0.04666 0.25958 0.0
H1120 H 0.39864 0.98682 0.22117 0.0
H1121 H 0.40302 0.95648 0.19069 0.0
H1122 H 0.42456 0.97604 0.05184 0.0
H1123 H 0.42051 0.00647 0.08196 0.0
C1124 C 0.34304 0.05854 0.18097 0.0
C1125 C 0.33746 0.06004 0.13041 0.0
C1126 C 0.36042 0.05455 0.19238 0.0
C1127 C 0.37269 0.05189 0.15365 0.0
C1128 C 0.3675 0.05425 0.10322 0.0
C1129 C 0.35007 0.05848 0.09168 0.0
C1130 C 0.39001 0.0443 0.16664 0.0
C1131 C 0.39404 0.02749 0.14806 0.0
C1132 C 0.40053 0.05174 0.20524 0.0
C1133 C 0.39788 0.07008 0.22305 0.0
C1134 C 0.39637 0.08387 0.18802 0.0
C1135 C 0.39394 0.10112 0.20475 0.0
C1136 C 0.39306 0.10478 0.25648 0.0
C1137 C 0.39461 0.0912 0.2916 0.0
C1138 C 0.39702 0.07393 0.27509 0.0
C1139 C 0.4519 0.99415 0.26511 0.0
C1140 C 0.44719 0.99335 0.31653 0.0
C1141 C 0.44158 1.00367 0.23082 0.0
C1142 C 0.42649 0.01247 0.24769 0.0
C1143 C 0.42143 0.01098 0.29843 0.0
C1144 C 0.4316 1.00147 0.33238 0.0
C1145 C 0.41594 0.02379 0.21396 0.0
C1146 C 0.41337 0.04132 0.22846 0.0
C1147 C 0.40685 0.01709 0.17157 0.0
C1148 C 0.40934 0.99885 0.15379 0.0
C1149 C 0.40438 0.98461 0.18426 0.0
C1150 C 0.40681 0.96742 0.16707 0.0
C1151 C 0.41408 0.96434 0.11937 0.0
C1152 C 0.41892 0.97844 0.08876 0.0
C1153 C 0.41655 0.99566 0.10583 0.0
H1154 H 0.41594 0.95102 0.10612 0.0
H1155 H 0.39119 0.11814 0.26935 0.0
H1156 H 0.49255 0.29875 0.2885 0.0
H1157 H 0.49303 0.31998 0.35696 0.0
H1158 H 0.43665 0.31715 0.36822 0.0
H1159 H 0.43608 0.2957 0.29916 0.0
H1160 H 0.44623 0.34899 0.34877 0.0
H1161 H 0.46346 0.30837 0.47247 0.0
H1162 H 0.47945 0.28379 0.51167 0.0
H1163 H 0.52781 0.31226 0.49899 0.0
H1164 H 0.51221 0.33691 0.45893 0.0
H1165 H 0.46288 0.43053 0.45571 0.0
H1166 H 0.45358 0.39996 0.46674 0.0
H1167 H 0.50503 0.38242 0.42121 0.0
H1168 H 0.51451 0.41285 0.41266 0.0
H1169 H 0.48997 0.35884 0.48503 0.0
H1170 H 0.4732 0.39218 0.33249 0.0
H1171 H 0.45824 0.41717 0.29167 0.0
H1172 H 0.40946 0.40161 0.3589 0.0
H1173 H 0.42422 0.37666 0.40066 0.0
C1174 C 0.48028 0.30199 0.3069 0.0
C1175 C 0.46424 0.29569 0.28782 0.0
C1176 C 0.48058 0.31419 0.34636 0.0
C1177 C 0.46487 0.32024 0.3679 0.0
C1178 C 0.44894 0.31272 0.35213 0.0
C1179 C 0.44863 0.30053 0.3125 0.0
C1180 C 0.46503 0.33664 0.39842 0.0
C1181 C 0.45534 0.35094 0.37987 0.0
C1182 C 0.47706 0.33935 0.4386 0.0
C1183 C 0.48662 0.32451 0.46246 0.0
C1184 C 0.47753 0.30936 0.47764 0.0
C1185 C 0.48653 0.2954 0.5001 0.0
C1186 C 0.50463 0.29646 0.50778 0.0
C1187 C 0.51378 0.31147 0.49305 0.0
C1188 C 0.50485 0.32546 0.47054 0.0
C1189 C 0.47229 0.42008 0.44976 0.0
C1190 C 0.48925 0.42387 0.4323 0.0
C1191 C 0.46703 0.40267 0.45625 0.0
C1192 C 0.47851 0.38891 0.44376 0.0
C1193 C 0.49596 0.39281 0.43123 0.0
C1194 C 0.50134 0.41019 0.42592 0.0
C1195 C 0.47183 0.37099 0.43352 0.0
C1196 C 0.48031 0.35656 0.45559 0.0
C1197 C 0.45878 0.36806 0.39628 0.0
C1198 C 0.44981 0.38269 0.36995 0.0
C1199 C 0.45929 0.39412 0.33854 0.0
C1200 C 0.45086 0.40827 0.31533 0.0
C1201 C 0.43291 0.41097 0.32272 0.0
C1202 C 0.42336 0.39949 0.35323 0.0
C1203 C 0.43174 0.38535 0.3767 0.0
H1204 H 0.42641 0.42195 0.30475 0.0
H1205 H 0.51157 0.28564 0.52519 0.0
H1206 H 0.17663 0.4541 0.05845 0.0
H1207 H 0.14601 0.45662 0.0855 0.0
H1208 H 0.16285 0.4595 0.24112 0.0
H1209 H 0.19331 0.45732 0.21465 0.0
H1210 H 0.13149 0.44079 0.22875 0.0
H1211 H 0.15807 0.49642 0.17319 0.0
H1212 H 0.17236 0.51475 0.10843 0.0
H1213 H 0.12849 0.50702 0.00867 0.0
H1214 H 0.11407 0.48845 0.07268 0.0
H1215 H 0.08694 0.50421 0.37202 0.0
H1216 H 0.10538 0.48376 0.32525 0.0
H1217 H 0.07099 0.48778 0.19618 0.0
H1218 H 0.0518 0.50757 0.24377 0.0
H1219 H 0.1056 0.49777 0.17722 0.0
H1220 H 0.07592 0.44834 0.23424 0.0
H1221 H 0.06136 0.42593 0.28616 0.0
H1222 H 0.10829 0.4195 0.37426 0.0
H1223 H 0.12321 0.44189 0.32263 0.0
C1224 C 0.17378 0.45503 0.09847 0.0
C1225 C 0.18744 0.45573 0.13433 0.0
C1226 C 0.1563 0.45636 0.11384 0.0
C1227 C 0.15223 0.45845 0.16524 0.0
C1228 C 0.16572 0.45782 0.20128 0.0
C1229 C 0.18316 0.45654 0.18601 0.0
C1230 C 0.1344 0.46356 0.18163 0.0
C1231 C 0.12578 0.45325 0.21768 0.0
C1232 C 0.12661 0.47941 0.16523 0.0
C1233 C 0.13509 0.49092 0.12742 0.0
C1234 C 0.15152 0.49858 0.13735 0.0
C1235 C 0.15964 0.509 0.1008 0.0
C1236 C 0.15136 0.51201 0.0544 0.0
C1237 C 0.1349 0.50466 0.04457 0.0
C1238 C 0.12675 0.49419 0.08096 0.0
C1239 C 0.08288 0.5003 0.33437 0.0
C1240 C 0.06793 0.5077 0.31158 0.0
C1241 C 0.09347 0.48856 0.30766 0.0
C1242 C 0.08952 0.48423 0.25732 0.0
C1243 C 0.07421 0.49092 0.23509 0.0
C1244 C 0.0634 0.50239 0.26218 0.0
C1245 C 0.10298 0.47534 0.22619 0.0
C1246 C 0.11094 0.48506 0.18754 0.0
C1247 C 0.10999 0.45884 0.23973 0.0
C1248 C 0.10066 0.44685 0.27461 0.0
C1249 C 0.08307 0.44236 0.26519 0.0
C1250 C 0.0748 0.42953 0.29428 0.0
C1251 C 0.08395 0.42117 0.33318 0.0
C1252 C 0.10128 0.42589 0.34379 0.0
C1253 C 0.10966 0.43862 0.31455 0.0
H1254 H 0.07761 0.41105 0.35515 0.0
H1255 H 0.15767 0.52006 0.02612 0.0
H1256 H 0.93244 0.80217 0.83778 0.0
H1257 H 0.93603 0.8248 0.77328 0.0
H1258 H 0.99104 0.81228 0.76254 0.0
H1259 H 0.98784 0.7904 0.82799 0.0
H1260 H 0.95754 0.85103 0.80708 0.0
H1261 H 0.00776 0.82783 0.65334 0.0
H1262 H 0.01148 0.80293 0.59471 0.0
H1263 H 0.95619 0.79252 0.60038 0.0
H1264 H 0.95205 0.81753 0.65841 0.0
H1265 H 0.03167 0.90195 0.77301 0.0
H1266 H 0.01269 0.87611 0.77467 0.0
H1267 H 0.98196 0.89723 0.65196 0.0
H1268 H 1.0009 0.92336 0.65037 0.0
H1269 H 0.9932 0.8572 0.65142 0.0
H1270 H 0.96259 0.90236 0.7451 0.0
H1271 H 0.9612 0.9265 0.80743 0.0
H1272 H 0.97804 0.89153 0.92479 0.0
H1273 H 0.98005 0.8673 0.86315 0.0
C1274 C 0.9452 0.80386 0.82059 0.0
C1275 C 0.95996 0.79488 0.83957 0.0
C1276 C 0.94717 0.81669 0.78333 0.0
C1277 C 0.96384 0.82038 0.76361 0.0
C1278 C 0.97802 0.8096 0.77695 0.0
C1279 C 0.97613 0.79698 0.81468 0.0
C1280 C 0.96757 0.83775 0.74109 0.0
C1281 C 0.96489 0.85245 0.77223 0.0
C1282 C 0.97719 0.83959 0.69571 0.0
C1283 C 0.9796 0.82459 0.66043 0.0
C1284 C 0.99635 0.82034 0.64182 0.0
C1285 C 0.99855 0.80617 0.60874 0.0
C1286 C 0.98409 0.79614 0.59387 0.0
C1287 C 0.96739 0.80027 0.61202 0.0
C1288 C 0.96512 0.81443 0.6451 0.0
C1289 C 0.02102 0.90099 0.74595 0.0
C1290 C 0.01768 0.91465 0.71177 0.0
C1291 C 0.0102 0.88628 0.74697 0.0
C1292 C 0.99596 0.88488 0.71353 0.0
C1293 C 0.99292 0.89815 0.67799 0.0
C1294 C 1.00362 0.91305 0.67743 0.0
C1295 C 0.98382 0.86994 0.71881 0.0
C1296 C 0.98513 0.85582 0.68491 0.0
C1297 C 0.97307 0.86848 0.76202 0.0
C1298 C 0.97152 0.88301 0.79937 0.0
C1299 C 0.96612 0.89983 0.78411 0.0
C1300 C 0.96521 0.91353 0.81931 0.0
C1301 C 0.96948 0.91054 0.86995 0.0
C1302 C 0.97471 0.89383 0.88555 0.0
C1303 C 0.97574 0.88011 0.8505 0.0
H1304 H 0.96875 0.92116 0.89711 0.0
H1305 H 0.98582 0.78518 0.56826 0.0
H1306 H 0.69584 0.93766 0.91471 0.0
H1307 H 0.6748 0.94311 0.84754 0.0
H1308 H 0.70466 0.98826 0.80032 0.0
H1309 H 0.72458 0.98412 0.87079 0.0
H1310 H 0.67488 0.99869 0.81849 0.0
H1311 H 0.69472 0.95065 0.72109 0.0
H1312 H 0.70421 0.9205 0.70112 0.0
H1313 H 0.65347 0.90089 0.7427 0.0
H1314 H 0.64374 0.93088 0.76366 0.0
H1315 H 0.60538 0.99984 0.6103 0.0
H1316 H 0.63026 0.98383 0.646 0.0
H1317 H 0.61366 0.99858 0.7961 0.0
H1318 H 0.58938 0.01537 0.76043 0.0
H1319 H 0.63903 0.95873 0.71206 0.0
H1320 H 0.64792 0.01423 0.8611 0.0
H1321 H 0.64004 0.04542 0.87174 0.0
H1322 H 0.6377 0.05165 0.71049 0.0
H1323 H 0.64582 0.0206 0.69895 0.0
C1324 C 0.69806 0.9487 0.88986 0.0
C1325 C 0.71155 0.96087 0.89995 0.0
C1326 C 0.68614 0.9516 0.85055 0.0
C1327 C 0.68789 0.96631 0.81911 0.0
C1328 C 0.7028 0.97699 0.82462 0.0
C1329 C 0.71439 0.97445 0.8649 0.0
C1330 C 0.67278 0.97245 0.78803 0.0
C1331 C 0.66727 0.98989 0.79477 0.0
C1332 C 0.66274 0.96116 0.75657 0.0
C1333 C 0.66855 0.94304 0.74436 0.0
C1334 C 0.68563 0.9399 0.72643 0.0
C1335 C 0.69104 0.92283 0.71484 0.0
C1336 C 0.67946 0.90878 0.72074 0.0
C1337 C 0.66243 0.91178 0.73818 0.0
C1338 C 0.65696 0.92882 0.74986 0.0
C1339 C 0.60697 0.99953 0.65088 0.0
C1340 C 0.59579 0.00936 0.68239 0.0
C1341 C 0.62107 0.99021 0.67127 0.0
C1342 C 0.62411 0.99051 0.72355 0.0
C1343 C 0.61177 0.99857 0.75547 0.0
C1344 C 0.59779 0.00804 0.73506 0.0
C1345 C 0.6412 0.98461 0.74418 0.0
C1346 C 0.64695 0.96737 0.73541 0.0
C1347 C 0.65187 0.9962 0.77255 0.0
C1348 C 0.64738 0.01504 0.77918 0.0
C1349 C 0.64584 0.02229 0.82792 0.0
C1350 C 0.64131 0.03994 0.83412 0.0
C1351 C 0.63834 0.05051 0.79183 0.0
C1352 C 0.63998 0.04346 0.74324 0.0
C1353 C 0.64456 0.02583 0.73685 0.0
H1354 H 0.63479 0.06416 0.79672 0.0
H1355 H 0.68368 0.89558 0.71172 0.0
H1356 H 0.58316 0.68408 0.05607 0.0
H1357 H 0.57848 0.65428 0.0225 0.0
H1358 H 0.55424 0.67608 0.88925 0.0
H1359 H 0.55888 0.70564 0.92204 0.0
H1360 H 0.53381 0.65053 0.95207 0.0
H1361 H 0.59039 0.66017 0.87055 0.0
H1362 H 0.62218 0.66609 0.87115 0.0
H1363 H 0.63092 0.62021 0.96175 0.0
H1364 H 0.59912 0.61417 0.96234 0.0
H1365 H 0.51275 0.58546 0.781 0.0
H1366 H 0.52484 0.61147 0.82076 0.0
H1367 H 0.5605 0.57945 0.90748 0.0
H1368 H 0.54941 0.55322 0.86459 0.0
H1369 H 0.57658 0.608 0.8813 0.0
H1370 H 0.52198 0.59623 0.95995 0.0
H1371 H 0.49044 0.58935 0.96526 0.0
H1372 H 0.47796 0.63784 0.89105 0.0
H1373 H 0.50944 0.64491 0.88464 0.0
C1374 C 0.5771 0.68246 0.01928 0.0
C1375 C 0.57143 0.69715 0.99158 0.0
C1376 C 0.57451 0.6655 1.00015 0.0
C1377 C 0.56606 0.66311 0.95348 0.0
C1378 C 0.56087 0.67774 0.92523 0.0
C1379 C 0.56364 0.69461 0.94391 0.0
C1380 C 0.56097 0.64548 0.93573 0.0
C1381 C 0.54311 0.64123 0.93631 0.0
C1382 C 0.57327 0.63317 0.91739 0.0
C1383 C 0.59235 0.63687 0.91712 0.0
C1384 C 0.59906 0.65146 0.89114 0.0
C1385 C 0.61709 0.65481 0.89112 0.0
C1386 C 0.62856 0.64357 0.91664 0.0
C1387 C 0.62202 0.62893 0.94211 0.0
C1388 C 0.604 0.62554 0.94228 0.0
C1389 C 0.52345 0.58384 0.80756 0.0
C1390 C 0.53006 0.56711 0.81948 0.0
C1391 C 0.53016 0.59878 0.831 0.0
C1392 C 0.54324 0.59737 0.8682 0.0
C1393 C 0.55025 0.58081 0.87933 0.0
C1394 C 0.54376 0.56582 0.85512 0.0
C1395 C 0.54923 0.61325 0.89579 0.0
C1396 C 0.56724 0.61715 0.89754 0.0
C1397 C 0.53708 0.62516 0.91742 0.0
C1398 C 0.5181 0.62104 0.92156 0.0
C1399 C 0.51252 0.60538 0.94451 0.0
C1400 C 0.49465 0.60145 0.94773 0.0
C1401 C 0.48221 0.61313 0.92843 0.0
C1402 C 0.48761 0.6288 0.90597 0.0
C1403 C 0.50547 0.63279 0.90261 0.0
H1404 H 0.46838 0.61006 0.93095 0.0
H1405 H 0.64251 0.64617 0.91655 0.0
H1406 H 0.79244 0.57688 0.8449 0.0
H1407 H 0.81576 0.57003 0.78601 0.0
H1408 H 0.79912 0.5159 0.78228 0.0
H1409 H 0.77696 0.5223 0.84535 0.0
H1410 H 0.82967 0.51613 0.81329 0.0
H1411 H 0.80464 0.54312 0.67073 0.0
H1412 H 0.7891 0.56515 0.61932 0.0
H1413 H 0.82973 0.60273 0.64982 0.0
H1414 H 0.84539 0.58105 0.70209 0.0
H1415 H 0.91466 0.50141 0.71163 0.0
H1416 H 0.88273 0.50379 0.71072 0.0
H1417 H 0.8864 0.55754 0.76066 0.0
H1418 H 0.91817 0.55565 0.75964 0.0
H1419 H 0.86052 0.55258 0.68666 0.0
H1420 H 0.88009 0.52634 0.84523 0.0
H1421 H 0.89542 0.5039 0.89584 0.0
H1422 H 0.8636 0.4636 0.82856 0.0
H1423 H 0.84823 0.48582 0.77706 0.0
C1424 C 0.79349 0.56356 0.83086 0.0
C1425 C 0.78332 0.55003 0.8519 0.0
C1426 C 0.80671 0.55969 0.79616 0.0
C1427 C 0.80952 0.54231 0.78019 0.0
C1428 C 0.79745 0.52935 0.79473 0.0
C1429 C 0.78458 0.53311 0.83065 0.0
C1430 C 0.82686 0.53717 0.75911 0.0
C1431 C 0.83609 0.52372 0.78403 0.0
C1432 C 0.83558 0.5472 0.72179 0.0
C1433 C 0.82618 0.56042 0.69058 0.0
C1434 C 0.81021 0.55612 0.66684 0.0
C1435 C 0.80139 0.56855 0.63746 0.0
C1436 C 0.80842 0.58533 0.63134 0.0
C1437 C 0.8243 0.58972 0.65456 0.0
C1438 C 0.83318 0.57734 0.684 0.0
C1439 C 0.90877 0.5139 0.72119 0.0
C1440 C 0.91918 0.52834 0.73565 0.0
C1441 C 0.89048 0.51516 0.72104 0.0
C1442 C 0.88225 0.53083 0.73574 0.0
C1443 C 0.89252 0.54535 0.74901 0.0
C1444 C 0.91076 0.54416 0.7488 0.0
C1445 C 0.86298 0.53184 0.74128 0.0
C1446 C 0.85363 0.54456 0.71397 0.0
C1447 C 0.85399 0.521 0.7758 0.0
C1448 C 0.86319 0.50769 0.80687 0.0
C1449 C 0.87647 0.51268 0.84095 0.0
C1450 C 0.88515 0.5 0.86984 0.0
C1451 C 0.88053 0.48233 0.86529 0.0
C1452 C 0.86719 0.47729 0.83195 0.0
C1453 C 0.85849 0.48991 0.80292 0.0
H1454 H 0.88726 0.47253 0.88769 0.0
H1455 H 0.80156 0.59493 0.60857 0.0
H1456 H 0.03497 0.19146 0.83013 0.0
H1457 H 0.03533 0.16258 0.79016 0.0
H1458 H 0.98647 0.14976 0.86306 0.0
H1459 H 0.98668 0.178 0.90611 0.0
H1460 H 0.0052 0.12255 0.86597 0.0
H1461 H 0.99135 0.1621 0.73015 0.0
H1462 H 0.99586 0.18741 0.67371 0.0
H1463 H 0.04465 0.16541 0.62315 0.0
H1464 H 0.04053 0.14006 0.67978 0.0
H1465 H 0.97623 0.0543 0.69476 0.0
H1466 H 0.98024 0.08104 0.74437 0.0
H1467 H 0.03368 0.0847 0.69287 0.0
H1468 H 0.02938 0.05806 0.64109 0.0
H1469 H 0.01472 0.11566 0.68157 0.0
H1470 H 0.03086 0.08767 0.85995 0.0
H1471 H 0.02599 0.06444 0.9234 0.0
H1472 H 0.97073 0.06545 0.89168 0.0
H1473 H 0.97531 0.08902 0.82921 0.0
C1474 C 0.02439 0.18247 0.83846 0.0
C1475 C 0.01072 0.1874 0.87151 0.0
C1476 C 0.02447 0.16593 0.81469 0.0
C1477 C 0.01072 0.15389 0.82237 0.0
C1478 C 0.99722 0.15868 0.85588 0.0
C1479 C 0.99725 0.17508 0.88018 0.0
C1480 C 0.01039 0.13626 0.79642 0.0
C1481 C 0.00709 0.12119 0.82548 0.0
C1482 C 0.01324 0.13408 0.74369 0.0
C1483 C 0.01572 0.14929 0.70959 0.0
C1484 C 1.0031 0.16273 0.70726 0.0
C1485 C 0.00557 0.17707 0.67519 0.0
C1486 C 0.02055 0.17805 0.64497 0.0
C1487 C 0.03307 0.16465 0.64665 0.0
C1488 C 0.03067 0.15029 0.67869 0.0
C1489 C 0.98903 0.06049 0.6953 0.0
C1490 C 1.00272 0.05361 0.6657 0.0
C1491 C 0.99139 0.07574 0.72431 0.0
C1492 C 0.00751 0.08468 0.72459 0.0
C1493 C 0.02122 0.0779 0.69454 0.0
C1494 C 0.01884 0.06257 0.66527 0.0
C1495 C 0.00921 0.1021 0.75105 0.0
C1496 C 0.01286 0.11711 0.72204 0.0
C1497 C 0.00636 0.10433 0.80367 0.0
C1498 C 1.00355 0.08939 0.83815 0.0
C1499 C 0.01773 0.08268 0.86597 0.0
C1500 C 0.015 0.06963 0.90221 0.0
C1501 C 0.99809 0.0633 0.91111 0.0
C1502 C 0.98386 0.07017 0.88422 0.0
C1503 C 0.98653 0.08335 0.84834 0.0
H1504 H 0.99599 0.05318 0.9391 0.0
H1505 H 0.02245 0.18916 0.62017 0.0
H1506 H 0.34362 1.00072 0.905 0.0
H1507 H 0.37205 1.0023 0.86316 0.0
H1508 H 0.35728 0.05139 0.7945 0.0
H1509 H 0.32882 0.05008 0.837 0.0
H1510 H 0.37246 0.03026 0.72601 0.0
H1511 H 0.38707 0.0509 0.88987 0.0
H1512 H 0.38763 0.05093 0.98301 0.0
H1513 H 0.41586 1.00215 0.98239 0.0
H1514 H 0.4153 1.00174 0.88907 0.0
H1515 H 0.4595 0.04064 0.62826 0.0
H1516 H 0.43307 0.04702 0.67836 0.0
H1517 H 0.43808 0.9969 0.75246 0.0
H1518 H 0.46442 0.99061 0.70275 0.0
H1519 H 0.42846 0.02297 0.81969 0.0
H1520 H 0.41069 1.00184 0.65373 0.0
H1521 H 0.41001 1.00292 0.56052 0.0
H1522 H 0.38771 0.05464 0.5663 0.0
H1523 H 0.38849 0.05395 0.65963 0.0
C1524 C 0.34645 0.01203 0.88173 0.0
C1525 C 0.33381 0.02531 0.87477 0.0
C1526 C 0.36277 0.01289 0.8576 0.0
C1527 C 0.36697 0.02706 0.82594 0.0
C1528 C 0.35439 0.0403 0.81865 0.0
C1529 C 0.33806 0.03949 0.84291 0.0
C1530 C 0.38432 0.02773 0.79967 0.0
C1531 C 0.3847 0.02899 0.74667 0.0
C1532 C 0.40038 0.02597 0.82632 0.0
C1533 C 0.40101 0.02622 0.88244 0.0
C1534 C 0.3933 0.04012 0.90958 0.0
C1535 C 0.39363 0.04021 0.96242 0.0
C1536 C 0.40172 0.02652 0.98865 0.0
C1537 C 0.40958 0.01274 0.96204 0.0
C1538 C 0.40929 0.01259 0.90913 0.0
C1539 C 0.45515 0.03121 0.65611 0.0
C1540 C 0.46421 0.01532 0.66264 0.0
C1541 C 0.43997 0.03478 0.6844 0.0
C1542 C 0.43351 0.02241 0.71922 0.0
C1543 C 0.44282 0.0067 0.72624 0.0
C1544 C 0.45784 1.0031 0.69777 0.0
C1545 C 0.41651 0.02512 0.7461 0.0
C1546 C 0.4162 0.02446 0.79921 0.0
C1547 C 0.40053 0.0276 0.71961 0.0
C1548 C 0.39983 0.02792 0.66359 0.0
C1549 C 0.40575 0.01348 0.6351 0.0
C1550 C 0.40533 0.01402 0.58227 0.0
C1551 C 0.39887 0.02886 0.5575 0.0
C1552 C 0.39274 0.04317 0.58554 0.0
C1553 C 0.39316 0.04271 0.63839 0.0
H1554 H 0.39856 0.02926 0.51659 0.0
H1555 H 0.40193 0.02663 0.02956 0.0
H1556 H 0.49326 0.34319 0.87025 0.0
H1557 H 0.49451 0.37052 0.82239 0.0
H1558 H 0.47966 0.34276 0.68662 0.0
H1559 H 0.47819 0.31534 0.73435 0.0
H1560 H 0.5061 0.36514 0.66773 0.0
H1561 H 0.45021 0.36882 0.7479 0.0
H1562 H 0.42927 0.3679 0.81879 0.0
H1563 H 0.4563 0.41052 0.89131 0.0
H1564 H 0.47756 0.41154 0.82119 0.0
H1565 H 0.49681 0.44661 0.53337 0.0
H1566 H 0.4908 0.41756 0.56948 0.0
H1567 H 0.50024 0.43838 0.71916 0.0
H1568 H 0.50561 0.4673 0.68323 0.0
H1569 H 0.47367 0.41812 0.72373 0.0
H1570 H 0.53067 0.41325 0.64416 0.0
H1571 H 0.55127 0.41392 0.57243 0.0
H1572 H 0.5223 0.37288 0.49855 0.0
H1573 H 0.50112 0.37244 0.5689 0.0
C1574 C 0.49002 0.34288 0.83036 0.0
C1575 C 0.48555 0.32698 0.80637 0.0
C1576 C 0.49079 0.35856 0.80293 0.0
C1577 C 0.48701 0.35879 0.75087 0.0
C1578 C 0.48267 0.34295 0.72668 0.0
C1579 C 0.48189 0.32725 0.75409 0.0
C1580 C 0.48775 0.37556 0.72182 0.0
C1581 C 0.49881 0.37667 0.6795 0.0
C1582 C 0.47837 0.39068 0.73728 0.0
C1583 C 0.46557 0.39015 0.77946 0.0
C1584 C 0.45177 0.37791 0.77914 0.0
C1585 C 0.43983 0.37738 0.81916 0.0
C1586 C 0.44147 0.38912 0.85958 0.0
C1587 C 0.45505 0.40143 0.86 0.0
C1588 C 0.46704 0.402 0.8201 0.0
C1589 C 0.49769 0.44487 0.57386 0.0
C1590 C 0.50181 0.45915 0.6054 0.0
C1591 C 0.49424 0.42828 0.59459 0.0
C1592 C 0.49531 0.4256 0.64724 0.0
C1593 C 0.49926 0.44 0.67855 0.0
C1594 C 0.50236 0.45656 0.65795 0.0
C1595 C 0.49249 0.40794 0.67048 0.0
C1596 C 0.48093 0.40661 0.71166 0.0
C1597 C 0.50143 0.39264 0.65387 0.0
C1598 C 0.51416 0.39298 0.61151 0.0
C1599 C 0.52856 0.40452 0.61232 0.0
C1600 C 0.54032 0.40489 0.57184 0.0
C1601 C 0.53801 0.39355 0.53075 0.0
C1602 C 0.52397 0.38178 0.53014 0.0
C1603 C 0.51205 0.38151 0.57022 0.0
H1604 H 0.54716 0.39382 0.49951 0.0
H1605 H 0.43222 0.38869 0.89053 0.0
H1606 H 0.18788 0.46678 0.82492 0.0
H1607 H 0.15975 0.46769 0.78025 0.0
H1608 H 0.15327 0.52191 0.82343 0.0
H1609 H 0.18128 0.52103 0.86848 0.0
H1610 H 0.12297 0.50586 0.83134 0.0
H1611 H 0.16722 0.50892 0.70245 0.0
H1612 H 0.19335 0.4992 0.65519 0.0
H1613 H 0.16752 0.45089 0.6169 0.0
H1614 H 0.14131 0.46023 0.66454 0.0
H1615 H 0.06255 0.53513 0.64773 0.0
H1616 H 0.08975 0.5298 0.69371 0.0
H1617 H 0.0849 0.47433 0.66484 0.0
H1618 H 0.05741 0.47961 0.61842 0.0
H1619 H 0.11996 0.48852 0.65047 0.0
H1620 H 0.07453 0.48725 0.77474 0.0
H1621 H 0.04816 0.49861 0.8175 0.0
H1622 H 0.07631 0.54495 0.86197 0.0
H1623 H 0.10278 0.53404 0.8185 0.0
C1624 C 0.1805 0.47892 0.82484 0.0
C1625 C 0.18697 0.49386 0.85019 0.0
C1626 C 0.16437 0.47943 0.79919 0.0
C1627 C 0.1544 0.49496 0.79758 0.0
C1628 C 0.16063 0.50975 0.82395 0.0
C1629 C 0.17669 0.50922 0.84989 0.0
C1630 C 0.13767 0.49595 0.76785 0.0
C1631 C 0.12241 0.50219 0.79171 0.0
C1632 C 0.13667 0.49083 0.71624 0.0
C1633 C 0.15239 0.48519 0.68754 0.0
C1634 C 0.16717 0.49617 0.68428 0.0
C1635 C 0.18198 0.49073 0.65738 0.0
C1636 C 0.18211 0.47441 0.63319 0.0
C1637 C 0.16741 0.46351 0.63574 0.0
C1638 C 0.15257 0.46887 0.66267 0.0
C1639 C 0.06728 0.5218 0.6505 0.0
C1640 C 0.0577 0.50781 0.6294 0.0
C1641 C 0.08285 0.51876 0.67715 0.0
C1642 C 0.08934 0.50166 0.68311 0.0
C1643 C 0.08014 0.48764 0.66079 0.0
C1644 C 0.06439 0.49068 0.63449 0.0
C1645 C 0.10546 0.49858 0.71391 0.0
C1646 C 0.12055 0.49199 0.69025 0.0
C1647 C 0.10636 0.50349 0.76555 0.0
C1648 C 0.09061 0.50988 0.793 0.0
C1649 C 0.07508 0.49992 0.79336 0.0
C1650 C 0.06011 0.50627 0.81773 0.0
C1651 C 0.06055 0.52251 0.84237 0.0
C1652 C 0.07599 0.53238 0.84283 0.0
C1653 C 0.09099 0.52611 0.81834 0.0
H1654 H 0.04894 0.52742 0.86119 0.0
H1655 H 0.19359 0.47023 0.61236 0.0
H1656 H 0.96996 0.8379 0.34263 0.0
H1657 H 0.97126 0.86502 0.39265 0.0
H1658 H 0.02223 0.87638 0.33057 0.0
H1659 H 0.02113 0.84924 0.28118 0.0
H1660 H 0.02215 0.88095 0.43145 0.0
H1661 H 0.98547 0.89872 0.29281 0.0
H1662 H 0.95998 0.89724 0.23545 0.0
H1663 H 0.92516 0.904 0.36145 0.0
H1664 H 0.95046 0.90526 0.41971 0.0
H1665 H 0.03524 0.96802 0.50839 0.0
H1666 H 0.03018 0.94155 0.45812 0.0
H1667 H 0.97846 0.93666 0.52256 0.0
H1668 H 0.98341 0.96373 0.57196 0.0
H1669 H 0.97735 0.92812 0.42449 0.0
H1670 H 0.01351 0.90976 0.56323 0.0
H1671 H 0.03881 0.91071 0.62148 0.0
H1672 H 0.07412 0.9049 0.49648 0.0
H1673 H 0.04905 0.90384 0.43735 0.0
C1674 C 0.98146 0.84615 0.33963 0.0
C1675 C 0.99542 0.8413 0.30759 0.0
C1676 C 0.98213 0.86177 0.36801 0.0
C1677 C 0.99679 0.87293 0.36528 0.0
C1678 C 0.01073 0.8681 0.33338 0.0
C1679 C 0.01002 0.85258 0.30476 0.0
C1680 C 0.998 0.8893 0.39678 0.0
C1681 C 0.01243 0.89133 0.42938 0.0
C1682 C 0.98507 0.9027 0.39563 0.0
C1683 C 0.96985 0.90185 0.3607 0.0
C1684 C 0.97237 0.8997 0.30837 0.0
C1685 C 0.95796 0.89895 0.27567 0.0
C1686 C 0.94096 0.90046 0.29481 0.0
C1687 C 0.93834 0.90278 0.34669 0.0
C1688 C 0.95271 0.90352 0.37956 0.0
C1689 C 0.0227 0.96141 0.51129 0.0
C1690 C 0.00959 0.96812 0.54316 0.0
C1691 C 0.01986 0.94615 0.4829 0.0
C1692 C 0.00404 0.93677 0.48698 0.0
C1693 C 0.9908 0.94356 0.51864 0.0
C1694 C 0.99358 0.95906 0.5467 0.0
C1695 C 1.00164 0.91985 0.4586 0.0
C1696 C 0.987 0.91769 0.42671 0.0
C1697 C 0.01432 0.90622 0.4605 0.0
C1698 C 0.02942 0.90687 0.49589 0.0
C1699 C 0.02668 0.9088 0.54817 0.0
C1700 C 0.04096 0.90934 0.58134 0.0
C1701 C 0.05804 0.90799 0.56274 0.0
C1702 C 0.06088 0.90598 0.51086 0.0
C1703 C 0.04664 0.90534 0.4775 0.0
H1704 H 0.06907 0.90845 0.58855 0.0
H1705 H 0.92981 0.89988 0.26943 0.0
H1706 H 0.68924 0.02417 0.40324 0.0
H1707 H 0.66049 0.0265 0.44345 0.0
H1708 H 0.63989 0.98781 0.34003 0.0
H1709 H 0.66865 0.9851 0.30031 0.0
H1710 H 0.61856 0.01531 0.3448 0.0
H1711 H 0.64715 0.97811 0.46473 0.0
H1712 H 0.66948 0.96844 0.52626 0.0
H1713 H 0.65924 0.01381 0.61806 0.0
H1714 H 0.63685 0.02379 0.55709 0.0
H1715 H 0.54891 0.99875 0.55956 0.0
H1716 H 0.57676 0.99278 0.51628 0.0
H1717 H 0.57535 0.04453 0.45086 0.0
H1718 H 0.54713 0.05004 0.49129 0.0
H1719 H 0.60719 0.00915 0.52826 0.0
H1720 H 0.58868 0.04838 0.36712 0.0
H1721 H 0.56613 0.05391 0.30179 0.0
H1722 H 0.55717 0.99848 0.28738 0.0
H1723 H 0.57944 0.99277 0.35346 0.0
C1724 C 0.67871 0.0159 0.38951 0.0
C1725 C 0.68139 0.00447 0.34822 0.0
C1726 C 0.66222 0.01729 0.41259 0.0
C1727 C 0.64797 0.00728 0.39501 0.0
C1728 C 0.65062 0.99573 0.35422 0.0
C1729 C 0.66711 0.99428 0.33129 0.0
C1730 C 0.6301 0.00945 0.4173 0.0
C1731 C 0.61615 0.0139 0.38502 0.0
C1732 C 0.62675 0.00756 0.46971 0.0
C1733 C 0.6405 1.00183 0.50588 0.0
C1734 C 0.64979 0.98613 0.49774 0.0
C1735 C 0.66239 0.98055 0.53269 0.0
C1736 C 0.66577 0.99051 0.57605 0.0
C1737 C 0.65657 0.0061 0.58453 0.0
C1738 C 0.64391 0.01171 0.54981 0.0
C1739 C 0.55427 0.00857 0.53444 0.0
C1740 C 0.54553 0.02462 0.52727 0.0
C1741 C 0.57026 0.00523 0.50998 0.0
C1742 C 0.57798 0.01795 0.47849 0.0
C1743 C 0.56936 0.0341 0.47241 0.0
C1744 C 0.55331 0.03735 0.49623 0.0
C1745 C 0.59572 0.01498 0.45598 0.0
C1746 C 0.60968 0.01049 0.48821 0.0
C1747 C 0.59912 0.01665 0.40358 0.0
C1748 C 0.58511 0.0202 0.36641 0.0
C1749 C 0.58161 0.03743 0.35068 0.0
C1750 C 0.56895 0.04059 0.31344 0.0
C1751 C 0.56008 0.02656 0.29081 0.0
C1752 C 0.56392 0.00935 0.30525 0.0
C1753 C 0.5764 0.00616 0.34295 0.0
H1754 H 0.55034 0.02902 0.26183 0.0
H1755 H 0.6755 0.98615 0.60312 0.0
H1756 H 0.52998 0.7033 0.37846 0.0
H1757 H 0.5287 0.67483 0.42023 0.0
H1758 H 0.54335 0.64927 0.28092 0.0
H1759 H 0.54483 0.67783 0.23875 0.0
H1760 H 0.51712 0.63162 0.32748 0.0
H1761 H 0.57312 0.65494 0.3765 0.0
H1762 H 0.59346 0.67703 0.41142 0.0
H1763 H 0.56701 0.67482 0.55448 0.0
H1764 H 0.54635 0.65289 0.52018 0.0
H1765 H 0.53969 0.54917 0.42663 0.0
H1766 H 0.54265 0.57811 0.38918 0.0
H1767 H 0.52399 0.60172 0.52727 0.0
H1768 H 0.52136 0.5725 0.56555 0.0
H1769 H 0.55197 0.62042 0.48291 0.0
H1770 H 0.49641 0.59651 0.43469 0.0
H1771 H 0.47676 0.57364 0.40073 0.0
H1772 H 0.50244 0.57668 0.25667 0.0
H1773 H 0.52252 0.59933 0.29006 0.0
C1774 C 0.53315 0.69168 0.35667 0.0
C1775 C 0.53771 0.69298 0.3052 0.0
C1776 C 0.53234 0.67535 0.38068 0.0
C1777 C 0.53615 0.65985 0.35403 0.0
C1778 C 0.54036 0.66102 0.30239 0.0
C1779 C 0.54117 0.67739 0.27827 0.0
C1780 C 0.5358 0.64248 0.38017 0.0
C1781 C 0.52492 0.62912 0.36106 0.0
C1782 C 0.54563 0.63926 0.42483 0.0
C1783 C 0.55808 0.6524 0.44561 0.0
C1784 C 0.57156 0.65927 0.41529 0.0
C1785 C 0.58316 0.67174 0.43499 0.0
C1786 C 0.5815 0.67736 0.4851 0.0
C1787 C 0.56826 0.67048 0.51565 0.0
C1788 C 0.55661 0.65801 0.49611 0.0
C1789 C 0.53675 0.56042 0.44974 0.0
C1790 C 0.53049 0.5584 0.49933 0.0
C1791 C 0.5382 0.57705 0.42794 0.0
C1792 C 0.53337 0.59212 0.45515 0.0
C1793 C 0.52777 0.59028 0.50546 0.0
C1794 C 0.52622 0.57357 0.52722 0.0
C1795 C 0.53339 0.60961 0.43003 0.0
C1796 C 0.54416 0.62296 0.44936 0.0
C1797 C 0.52345 0.61283 0.38565 0.0
C1798 C 0.51109 0.59953 0.36503 0.0
C1799 C 0.49796 0.59223 0.39585 0.0
C1800 C 0.48674 0.5793 0.37672 0.0
C1801 C 0.48838 0.57369 0.32662 0.0
C1802 C 0.50121 0.58103 0.2955 0.0
C1803 C 0.51251 0.59392 0.31451 0.0
H1804 H 0.47969 0.56367 0.31189 0.0
H1805 H 0.5905 0.68702 0.50028 0.0
H1806 H 0.83619 0.55 0.25832 0.0
H1807 H 0.86518 0.55022 0.29816 0.0
H1808 H 0.84684 0.51414 0.41167 0.0
H1809 H 0.81793 0.51365 0.37178 0.0
H1810 H 0.86518 0.54017 0.45457 0.0
H1811 H 0.87376 0.50084 0.31417 0.0
H1812 H 0.87343 0.49185 0.22452 0.0
H1813 H 0.90909 0.53355 0.18832 0.0
H1814 H 0.90944 0.54294 0.2777 0.0
H1815 H 0.94687 0.50771 0.54979 0.0
H1816 H 0.91852 0.51024 0.50719 0.0
H1817 H 0.93776 0.55401 0.42085 0.0
H1818 H 0.96588 0.55215 0.46508 0.0
H1819 H 0.91982 0.52557 0.36188 0.0
H1820 H 0.91122 0.56515 0.49996 0.0
H1821 H 0.91151 0.57485 0.58897 0.0
H1822 H 0.87629 0.53302 0.62771 0.0
H1823 H 0.87595 0.52302 0.53923 0.0
C1824 C 0.83834 0.54193 0.29141 0.0
C1825 C 0.82458 0.53181 0.31168 0.0
C1826 C 0.85497 0.5421 0.31426 0.0
C1827 C 0.85833 0.53209 0.35783 0.0
C1828 C 0.84463 0.52204 0.37824 0.0
C1829 C 0.82802 0.52184 0.35541 0.0
C1830 C 0.87597 0.53227 0.38277 0.0
C1831 C 0.87706 0.53676 0.43427 0.0
C1832 C 0.89166 0.52834 0.35626 0.0
C1833 C 0.89146 0.52271 0.30253 0.0
C1834 C 0.88141 0.50819 0.28702 0.0
C1835 C 0.88124 0.503 0.23627 0.0
C1836 C 0.89119 0.51216 0.20072 0.0
C1837 C 0.90137 0.52649 0.21588 0.0
C1838 C 0.90156 0.53174 0.26658 0.0
C1839 C 0.94516 0.51795 0.52192 0.0
C1840 C 0.95904 0.52943 0.50999 0.0
C1841 C 0.92888 0.51935 0.4975 0.0
C1842 C 0.92609 0.53213 0.46018 0.0
C1843 C 0.9397 0.54385 0.44886 0.0
C1844 C 0.95587 0.54269 0.47409 0.0
C1845 C 0.90887 0.53326 0.43351 0.0
C1846 C 0.90789 0.52901 0.38188 0.0
C1847 C 0.89328 0.53747 0.45967 0.0
C1848 C 0.89366 0.54326 0.51312 0.0
C1849 C 0.90369 0.55792 0.52764 0.0
C1850 C 0.90382 0.56352 0.578 0.0
C1851 C 0.89391 0.5546 0.61406 0.0
C1852 C 0.88394 0.53999 0.59992 0.0
C1853 C 0.88375 0.53436 0.54963 0.0
H1854 H 0.8939 0.55913 0.65279 0.0
H1855 H 0.89106 0.50812 0.16144 0.0
loop_
_geom_bond_atom_site_label_1
_geom_bond_atom_site_label_2
_geom_bond_distance
_geom_bond_site_symmetry_2
_ccdc_geom_bond_type
C0 C1 1.264 . S
C0 C5 1.479 . S
C0 C10 1.465 . S
C1 C0 1.264 . S
C1 C3 1.339 . S
C1 H28 0.931 . S
C2 C3 1.395 . S
C2 C4 1.320 . S
C3 C1 1.339 . S
C3 C2 1.395 . S
C3 H29 0.929 . S
C4 C2 1.320 . S
C4 C5 1.405 . S
C4 H30 0.930 . S
C5 C0 1.479 . S
C5 C4 1.405 . S
C5 H31 0.931 . S
U6 O7 2.454 . S
U6 O8 2.458 . S
U6 C9 2.984 . S
U6 C10 2.847 . S
U6 C23 2.882 . S
U6 O24 2.441 . S
U6 O25 2.420 . S
U6 O26 2.455 . S
U6 O27 2.449 . S
O7 U6 2.454 . S
O7 C9 1.353 . S
O8 U6 2.458 . S
O8 C9 1.286 . S
C9 U6 2.984 . S
C9 O7 1.353 . S
C9 O8 1.286 . S
C9 C11 1.363 . S
C10 C0 1.465 . S
C10 U6 2.847 . S
C10 O24 1.249 . S
C10 O25 1.202 . S
C11 C9 1.363 . S
C11 C13 1.408 . S
C11 C16 1.342 . S
C12 C13 1.310 . S
C12 C15 1.461 . S
C12 H32 0.932 . S
C13 C11 1.408 . S
C13 C12 1.310 . S
C13 H33 0.930 . S
C14 C15 1.474 . S
C14 C16 1.285 . S
C14 H34 0.929 1_554 S
C15 C12 1.461 . S
C15 C14 1.474 . S
C16 C11 1.342 . S
C16 C14 1.285 . S
C16 H35 0.930 . S
C17 C20 1.418 1_556 S
C17 C22 1.265 . S
C17 C23 1.413 1_556 S
C18 C21 1.260 . S
C18 C22 1.477 . S
C18 H36 0.932 . S
C19 C20 1.384 1_556 S
C19 C21 1.479 . S
C19 H37 0.929 . S
C20 C17 1.418 1_554 S
C20 C19 1.384 1_554 S
C20 H38 0.928 . S
C21 C18 1.260 . S
C21 C19 1.479 . S
C22 C17 1.265 . S
C22 C18 1.477 . S
C22 H39 0.932 . S
C23 U6 2.882 . S
C23 C17 1.413 1_554 S
C23 O26 1.301 . S
C23 O27 1.282 . S
O24 U6 2.441 . S
O24 C10 1.249 . S
O25 U6 2.420 . S
O25 C10 1.202 . S
O26 U6 2.455 . S
O26 C23 1.301 . S
O27 U6 2.449 . S
O27 C23 1.282 . S
H28 C1 0.931 . S
H29 C3 0.929 . S
H30 C4 0.930 . S
H31 C5 0.931 . S
H32 C12 0.932 . S
H33 C13 0.930 . S
H34 C14 0.929 1_556 S
H35 C16 0.930 . S
H36 C18 0.932 . S
H37 C19 0.929 . S
H38 C20 0.928 . S
H39 C22 0.932 . S
C40 C41 1.264 . S
C40 C45 1.479 . S
C40 C50 1.465 . S
C41 C40 1.264 . S
C41 C43 1.339 . S
C41 H68 0.931 . S
C42 C43 1.395 . S
C42 C44 1.320 . S
C43 C41 1.339 . S
C43 C42 1.395 . S
C43 H69 0.929 . S
C44 C42 1.320 . S
C44 C45 1.405 . S
C44 H70 0.930 . S
C45 C40 1.479 . S
C45 C44 1.405 . S
C45 H71 0.931 . S
U46 O47 2.454 . S
U46 O48 2.458 . S
U46 C49 2.984 . S
U46 C50 2.847 . S
U46 C63 2.882 . S
U46 O64 2.441 . S
U46 O65 2.420 . S
U46 O66 2.455 . S
U46 O67 2.449 . S
O47 U46 2.454 . S
O47 C49 1.353 . S
O48 U46 2.458 . S
O48 C49 1.286 . S
C49 U46 2.984 . S
C49 O47 1.353 . S
C49 O48 1.286 . S
C49 C51 1.363 . S
C50 C40 1.465 . S
C50 U46 2.847 . S
C50 O64 1.249 . S
C50 O65 1.202 . S
C51 C49 1.363 . S
C51 C53 1.408 . S
C51 C56 1.342 . S
C52 C53 1.310 . S
C52 C55 1.461 . S
C52 H72 0.932 . S
C53 C51 1.408 . S
C53 C52 1.310 . S
C53 H73 0.930 . S
C54 C55 1.474 . S
C54 C56 1.285 . S
C54 H74 0.929 1_554 S
C55 C52 1.461 . S
C55 C54 1.474 . S
C56 C51 1.342 . S
C56 C54 1.285 . S
C56 H75 0.930 . S
C57 C60 1.424 . S
C57 C62 1.245 1_554 S
C57 C63 1.428 . S
C58 C61 1.260 . S
C58 C62 1.477 . S
C58 H76 0.932 . S
C59 C60 1.384 1_556 S
C59 C61 1.479 . S
C59 H77 0.929 . S
C60 C57 1.424 . S
C60 C59 1.384 1_554 S
C60 H78 0.928 . S
C61 C58 1.260 . S
C61 C59 1.479 . S
C62 C57 1.245 1_556 S
C62 C58 1.477 . S
C62 H79 0.932 . S
C63 U46 2.882 . S
C63 C57 1.428 . S
C63 O66 1.301 . S
C63 O67 1.282 . S
O64 U46 2.441 . S
O64 C50 1.249 . S
O65 U46 2.420 . S
O65 C50 1.202 . S
O66 U46 2.455 . S
O66 C63 1.301 . S
O67 U46 2.449 . S
O67 C63 1.282 . S
H68 C41 0.931 . S
H69 C43 0.929 . S
H70 C44 0.930 . S
H71 C45 0.931 . S
H72 C52 0.932 . S
H73 C53 0.930 . S
H74 C54 0.929 1_556 S
H75 C56 0.930 . S
H76 C58 0.932 . S
H77 C59 0.929 . S
H78 C60 0.928 . S
H79 C62 0.932 . S
C80 C81 1.264 . S
C80 C85 1.479 . S
C80 C90 1.465 . S
C81 C80 1.264 . S
C81 C83 1.339 . S
C81 H108 0.931 . S
C82 C83 1.395 . S
C82 C84 1.320 . S
C83 C81 1.339 . S
C83 C82 1.395 . S
C83 H109 0.929 . S
C84 C82 1.320 . S
C84 C85 1.405 . S
C84 H110 0.930 . S
C85 C80 1.479 . S
C85 C84 1.405 . S
C85 H111 0.931 . S
U86 O87 2.454 . S
U86 O88 2.458 . S
U86 C89 2.984 . S
U86 C90 2.847 . S
U86 C103 2.882 . S
U86 O104 2.441 . S
U86 O105 2.420 . S
U86 O106 2.455 . S
U86 O107 2.449 . S
O87 U86 2.454 . S
O87 C89 1.353 . S
O88 U86 2.458 . S
O88 C89 1.286 . S
C89 U86 2.984 . S
C89 O87 1.353 . S
C89 O88 1.286 . S
C89 C91 1.363 . S
C90 C80 1.465 . S
C90 U86 2.847 . S
C90 O104 1.249 . S
C90 O105 1.202 . S
C91 C89 1.363 . S
C91 C93 1.408 . S
C91 C96 1.342 . S
C92 C93 1.310 . S
C92 C95 1.461 . S
C92 H112 0.932 . S
C93 C91 1.408 . S
C93 C92 1.310 . S
C93 H113 0.930 . S
C94 C95 1.474 . S
C94 C96 1.285 . S
C94 H114 0.929 1_554 S
C95 C92 1.461 . S
C95 C94 1.474 . S
C96 C91 1.342 . S
C96 C94 1.285 . S
C96 H115 0.930 . S
C97 C100 1.424 . S
C97 C102 1.245 1_554 S
C97 C103 1.428 . S
C98 C101 1.260 . S
C98 C102 1.477 . S
C98 H116 0.932 . S
C99 C100 1.384 1_556 S
C99 C101 1.479 . S
C99 H117 0.929 . S
C100 C97 1.424 . S
C100 C99 1.384 1_554 S
C100 H118 0.928 . S
C101 C98 1.260 . S
C101 C99 1.479 . S
C102 C97 1.245 1_556 S
C102 C98 1.477 . S
C102 H119 0.932 . S
C103 U86 2.882 . S
C103 C97 1.428 . S
C103 O106 1.301 . S
C103 O107 1.282 . S
O104 U86 2.441 . S
O104 C90 1.249 . S
O105 U86 2.420 . S
O105 C90 1.202 . S
O106 U86 2.455 . S
O106 C103 1.301 . S
O107 U86 2.449 . S
O107 C103 1.282 . S
H108 C81 0.931 . S
H109 C83 0.929 . S
H110 C84 0.930 . S
H111 C85 0.931 . S
H112 C92 0.932 . S
H113 C93 0.930 . S
H114 C94 0.929 1_556 S
H115 C96 0.930 . S
H116 C98 0.932 . S
H117 C99 0.929 . S
H118 C100 0.928 . S
H119 C102 0.932 . S
C120 C121 1.264 . S
C120 C125 1.479 . S
C120 C130 1.465 . S
C121 C120 1.264 . S
C121 C123 1.339 . S
C121 H148 0.931 . S
C122 C123 1.395 . S
C122 C124 1.320 . S
C123 C121 1.339 . S
C123 C122 1.395 . S
C123 H149 0.929 . S
C124 C122 1.320 . S
C124 C125 1.405 . S
C124 H150 0.930 . S
C125 C120 1.479 . S
C125 C124 1.405 . S
C125 H151 0.931 . S
U126 O127 2.454 . S
U126 O128 2.458 . S
U126 C129 2.984 . S
U126 C130 2.847 . S
U126 C143 2.882 . S
U126 O144 2.441 . S
U126 O145 2.420 . S
U126 O146 2.455 . S
U126 O147 2.449 . S
O127 U126 2.454 . S
O127 C129 1.353 . S
O128 U126 2.458 . S
O128 C129 1.286 . S
C129 U126 2.984 . S
C129 O127 1.353 . S
C129 O128 1.286 . S
C129 C131 1.363 . S
C130 C120 1.465 . S
C130 U126 2.847 . S
C130 O144 1.249 . S
C130 O145 1.202 . S
C131 C129 1.363 . S
C131 C133 1.408 . S
C131 C136 1.342 . S
C132 C133 1.310 . S
C132 C135 1.461 . S
C132 H152 0.932 . S
C133 C131 1.408 . S
C133 C132 1.310 . S
C133 H153 0.930 . S
C134 C135 1.474 . S
C134 C136 1.285 . S
C134 H154 0.929 1_554 S
C135 C132 1.461 . S
C135 C134 1.474 . S
C136 C131 1.342 . S
C136 C134 1.285 . S
C136 H155 0.930 . S
C137 C140 1.424 1_556 S
C137 C142 1.245 . S
C137 C143 1.428 1_556 S
C138 C141 1.260 . S
C138 C142 1.477 . S
C138 H156 0.932 . S
C139 C140 1.384 1_556 S
C139 C141 1.479 . S
C139 H157 0.929 . S
C140 C137 1.424 1_554 S
C140 C139 1.384 1_554 S
C140 H158 0.928 . S
C141 C138 1.260 . S
C141 C139 1.479 . S
C142 C137 1.245 . S
C142 C138 1.477 . S
C142 H159 0.932 . S
C143 U126 2.882 . S
C143 C137 1.428 1_554 S
C143 O146 1.301 . S
C143 O147 1.282 . S
O144 U126 2.441 . S
O144 C130 1.249 . S
O145 U126 2.420 . S
O145 C130 1.202 . S
O146 U126 2.455 . S
O146 C143 1.301 . S
O147 U126 2.449 . S
O147 C143 1.282 . S
H148 C121 0.931 . S
H149 C123 0.929 . S
H150 C124 0.930 . S
H151 C125 0.931 . S
H152 C132 0.932 . S
H153 C133 0.930 . S
H154 C134 0.929 1_556 S
H155 C136 0.930 . S
H156 C138 0.932 . S
H157 C139 0.929 . S
H158 C140 0.928 . S
H159 C142 0.932 . S
C160 C161 1.264 . S
C160 C165 1.479 . S
C160 C170 1.465 . S
C161 C160 1.264 . S
C161 C163 1.339 . S
C161 H188 0.931 . S
C162 C163 1.395 . S
C162 C164 1.320 . S
C163 C161 1.339 . S
C163 C162 1.395 . S
C163 H189 0.929 . S
C164 C162 1.320 . S
C164 C165 1.405 . S
C164 H190 0.930 . S
C165 C160 1.479 . S
C165 C164 1.405 . S
C165 H191 0.931 . S
U166 O167 2.454 1_554 S
U166 O168 2.458 . S
U166 C169 2.984 . S
U166 C170 2.847 1_554 S
U166 C183 2.882 . S
U166 O184 2.441 1_554 S
U166 O185 2.420 1_554 S
U166 O186 2.455 . S
U166 O187 2.449 . S
O167 U166 2.454 1_556 S
O167 C169 1.353 1_556 S
O168 U166 2.458 . S
O168 C169 1.286 . S
C169 U166 2.984 . S
C169 O167 1.353 1_554 S
C169 O168 1.286 . S
C169 C171 1.363 . S
C170 C160 1.465 . S
C170 U166 2.847 1_556 S
C170 O184 1.249 . S
C170 O185 1.202 . S
C171 C169 1.363 . S
C171 C173 1.408 . S
C171 C176 1.342 . S
C172 C173 1.310 . S
C172 C175 1.461 . S
C172 H192 0.932 1_554 S
C173 C171 1.408 . S
C173 C172 1.310 . S
C173 H193 0.930 1_554 S
C174 C175 1.474 . S
C174 C176 1.285 . S
C174 H194 0.929 . S
C175 C172 1.461 . S
C175 C174 1.474 . S
C176 C171 1.342 . S
C176 C174 1.285 . S
C176 H195 0.930 . S
C177 C180 1.424 . S
C177 C182 1.245 . S
C177 C183 1.428 . S
C178 C181 1.260 . S
C178 C182 1.477 . S
C178 H196 0.932 . S
C179 C180 1.384 . S
C179 C181 1.479 . S
C179 H197 0.929 . S
C180 C177 1.424 . S
C180 C179 1.384 . S
C180 H198 0.928 . S
C181 C178 1.260 . S
C181 C179 1.479 . S
C182 C177 1.245 . S
C182 C178 1.477 . S
C182 H199 0.932 . S
C183 U166 2.882 . S
C183 C177 1.428 . S
C183 O186 1.301 . S
C183 O187 1.282 . S
O184 U166 2.441 1_556 S
O184 C170 1.249 . S
O185 U166 2.420 1_556 S
O185 C170 1.202 . S
O186 U166 2.455 . S
O186 C183 1.301 . S
O187 U166 2.449 . S
O187 C183 1.282 . S
H188 C161 0.931 . S
H189 C163 0.929 . S
H190 C164 0.930 . S
H191 C165 0.931 . S
H192 C172 0.932 1_556 S
H193 C173 0.930 1_556 S
H194 C174 0.929 . S
H195 C176 0.930 . S
H196 C178 0.932 . S
H197 C179 0.929 . S
H198 C180 0.928 . S
H199 C182 0.932 . S
C200 C201 1.264 . S
C200 C205 1.479 . S
C200 C210 1.465 . S
C201 C200 1.264 . S
C201 C203 1.339 . S
C201 H228 0.931 . S
C202 C203 1.395 . S
C202 C204 1.320 . S
C203 C201 1.339 . S
C203 C202 1.395 . S
C203 H229 0.929 . S
C204 C202 1.320 . S
C204 C205 1.405 . S
C204 H230 0.930 . S
C205 C200 1.479 . S
C205 C204 1.405 . S
C205 H231 0.931 . S
U206 O207 2.452 1_554 S
U206 O208 2.464 . S
U206 C209 2.987 . S
U206 C210 2.838 1_554 S
U206 C223 2.889 . S
U206 O224 2.431 1_554 S
U206 O225 2.413 1_554 S
U206 O226 2.464 . S
U206 O227 2.452 . S
O207 U206 2.452 1_556 S
O207 C209 1.353 1_556 S
O208 U206 2.464 . S
O208 C209 1.286 . S
C209 U206 2.987 . S
C209 O207 1.353 1_554 S
C209 O208 1.286 . S
C209 C211 1.363 . S
C210 C200 1.465 . S
C210 U206 2.838 1_556 S
C210 O224 1.249 . S
C210 O225 1.202 . S
C211 C209 1.363 . S
C211 C213 1.408 . S
C211 C216 1.342 . S
C212 C213 1.310 . S
C212 C215 1.461 . S
C212 H232 0.932 1_554 S
C213 C211 1.408 . S
C213 C212 1.310 . S
C213 H233 0.930 1_554 S
C214 C215 1.474 . S
C214 C216 1.285 . S
C214 H234 0.929 . S
C215 C212 1.461 . S
C215 C214 1.474 . S
C216 C211 1.342 . S
C216 C214 1.285 . S
C216 H235 0.930 . S
C217 C220 1.424 . S
C217 C222 1.245 . S
C217 C223 1.428 . S
C218 C221 1.260 . S
C218 C222 1.477 . S
C218 H236 0.932 . S
C219 C220 1.384 . S
C219 C221 1.479 . S
C219 H237 0.929 . S
C220 C217 1.424 . S
C220 C219 1.384 . S
C220 H238 0.928 . S
C221 C218 1.260 . S
C221 C219 1.479 . S
C222 C217 1.245 . S
C222 C218 1.477 . S
C222 H239 0.932 . S
C223 U206 2.889 . S
C223 C217 1.428 . S
C223 O226 1.301 . S
C223 O227 1.282 . S
O224 U206 2.431 1_556 S
O224 C210 1.249 . S
O225 U206 2.413 1_556 S
O225 C210 1.202 . S
O226 U206 2.464 . S
O226 C223 1.301 . S
O227 U206 2.452 . S
O227 C223 1.282 . S
H228 C201 0.931 . S
H229 C203 0.929 . S
H230 C204 0.930 . S
H231 C205 0.931 . S
H232 C212 0.932 1_556 S
H233 C213 0.930 1_556 S
H234 C214 0.929 . S
H235 C216 0.930 . S
H236 C218 0.932 . S
H237 C219 0.929 . S
H238 C220 0.928 . S
H239 C222 0.932 . S
C240 C241 1.264 . S
C240 C245 1.479 . S
C240 C250 1.465 . S
C241 C240 1.264 . S
C241 C243 1.339 . S
C241 H268 0.931 . S
C242 C243 1.395 . S
C242 C244 1.320 . S
C243 C241 1.339 . S
C243 C242 1.395 . S
C243 H269 0.929 . S
C244 C242 1.320 . S
C244 C245 1.405 . S
C244 H270 0.930 . S
C245 C240 1.479 . S
C245 C244 1.405 . S
C245 H271 0.931 . S
U246 O247 2.458 . S
U246 O248 2.446 1_556 S
U246 C249 2.980 1_556 S
U246 C250 2.865 . S
U246 C263 2.869 1_556 S
U246 O264 2.459 . S
U246 O265 2.435 . S
U246 O266 2.437 1_556 S
U246 O267 2.442 1_556 S
O247 U246 2.458 . S
O247 C249 1.353 1_556 S
O248 U246 2.446 1_554 S
O248 C249 1.286 . S
C249 U246 2.980 1_554 S
C249 O247 1.353 1_554 S
C249 O248 1.286 . S
C249 C251 1.363 . S
C250 C240 1.465 . S
C250 U246 2.865 . S
C250 O264 1.249 . S
C250 O265 1.202 . S
C251 C249 1.363 . S
C251 C253 1.408 . S
C251 C256 1.342 . S
C252 C253 1.310 . S
C252 C255 1.461 . S
C252 H272 0.932 1_554 S
C253 C251 1.408 . S
C253 C252 1.310 . S
C253 H273 0.930 1_554 S
C254 C255 1.474 . S
C254 C256 1.285 . S
C254 H274 0.929 . S
C255 C252 1.461 . S
C255 C254 1.474 . S
C256 C251 1.342 . S
C256 C254 1.285 . S
C256 H275 0.930 . S
C257 C260 1.424 . S
C257 C262 1.245 . S
C257 C263 1.428 . S
C258 C261 1.260 . S
C258 C262 1.477 . S
C258 H276 0.932 . S
C259 C260 1.384 . S
C259 C261 1.479 . S
C259 H277 0.929 . S
C260 C257 1.424 . S
C260 C259 1.384 . S
C260 H278 0.928 . S
C261 C258 1.260 . S
C261 C259 1.479 . S
C262 C257 1.245 . S
C262 C258 1.477 . S
C262 H279 0.932 . S
C263 U246 2.869 1_554 S
C263 C257 1.428 . S
C263 O266 1.301 . S
C263 O267 1.282 . S
O264 U246 2.459 . S
O264 C250 1.249 . S
O265 U246 2.435 . S
O265 C250 1.202 . S
O266 U246 2.437 1_554 S
O266 C263 1.301 . S
O267 U246 2.442 1_554 S
O267 C263 1.282 . S
H268 C241 0.931 . S
H269 C243 0.929 . S
H270 C244 0.930 . S
H271 C245 0.931 . S
H272 C252 0.932 1_556 S
H273 C253 0.930 1_556 S
H274 C254 0.929 . S
H275 C256 0.930 . S
H276 C258 0.932 . S
H277 C259 0.929 . S
H278 C260 0.928 . S
H279 C262 0.932 . S
C280 C281 1.264 . S
C280 C285 1.479 . S
C280 C290 1.465 . S
C281 C280 1.264 . S
C281 C283 1.339 . S
C281 H308 0.931 . S
C282 C283 1.395 . S
C282 C284 1.320 . S
C283 C281 1.339 . S
C283 C282 1.395 . S
C283 H309 0.929 . S
C284 C282 1.320 . S
C284 C285 1.405 . S
C284 H310 0.930 . S
C285 C280 1.479 . S
C285 C284 1.405 . S
C285 H311 0.931 . S
U286 O287 2.454 1_554 S
U286 O288 2.458 . S
U286 C289 2.984 . S
U286 C290 2.847 1_554 S
U286 C303 2.882 . S
U286 O304 2.441 1_554 S
U286 O305 2.420 1_554 S
U286 O306 2.455 . S
U286 O307 2.449 . S
O287 U286 2.454 1_556 S
O287 C289 1.353 1_556 S
O288 U286 2.458 . S
O288 C289 1.286 . S
C289 U286 2.984 . S
C289 O287 1.353 1_554 S
C289 O288 1.286 . S
C289 C291 1.363 . S
C290 C280 1.465 . S
C290 U286 2.847 1_556 S
C290 O304 1.249 . S
C290 O305 1.202 . S
C291 C289 1.363 . S
C291 C293 1.408 . S
C291 C296 1.342 . S
C292 C293 1.310 . S
C292 C295 1.461 . S
C292 H312 0.932 1_554 S
C293 C291 1.408 . S
C293 C292 1.310 . S
C293 H313 0.930 1_554 S
C294 C295 1.474 . S
C294 C296 1.285 . S
C294 H314 0.929 . S
C295 C292 1.461 . S
C295 C294 1.474 . S
C296 C291 1.342 . S
C296 C294 1.285 . S
C296 H315 0.930 . S
C297 C300 1.424 . S
C297 C302 1.245 . S
C297 C303 1.428 . S
C298 C301 1.260 . S
C298 C302 1.477 . S
C298 H316 0.932 . S
C299 C300 1.384 . S
C299 C301 1.479 . S
C299 H317 0.929 . S
C300 C297 1.424 . S
C300 C299 1.384 . S
C300 H318 0.928 . S
C301 C298 1.260 . S
C301 C299 1.479 . S
C302 C297 1.245 . S
C302 C298 1.477 . S
C302 H319 0.932 . S
C303 U286 2.882 . S
C303 C297 1.428 . S
C303 O306 1.301 . S
C303 O307 1.282 . S
O304 U286 2.441 1_556 S
O304 C290 1.249 . S
O305 U286 2.420 1_556 S
O305 C290 1.202 . S
O306 U286 2.455 . S
O306 C303 1.301 . S
O307 U286 2.449 . S
O307 C303 1.282 . S
H308 C281 0.931 . S
H309 C283 0.929 . S
H310 C284 0.930 . S
H311 C285 0.931 . S
H312 C292 0.932 1_556 S
H313 C293 0.930 1_556 S
H314 C294 0.929 . S
H315 C296 0.930 . S
H316 C298 0.932 . S
H317 C299 0.929 . S
H318 C300 0.928 . S
H319 C302 0.932 . S
Tb320 N351 2.660 1_565 S
Tb320 N358 2.600 . S
Tb320 O364 2.546 . S
Tb320 O365 2.610 1_455 S
Tb320 O367 2.320 1_455 S
Tb320 O368 2.552 . S
Tb320 O369 2.413 . S
Tb320 O371 2.362 1_565 S
Tb320 O372 2.421 . S
Tb320 C384 2.833 . S
C321 C324 1.432 . S
C321 C325 1.414 . S
C321 N328 1.359 . S
C322 C324 1.417 1_565 S
C322 C326 1.432 . S
C322 C334 1.410 . S
C323 C325 1.444 1_565 S
C323 C326 1.317 . S
C323 H346 0.929 . S
C324 C321 1.432 . S
C324 C322 1.417 1_545 S
C324 N332 1.360 . S
C325 C321 1.414 . S
C325 C323 1.444 1_545 S
C325 C330 1.385 . S
C326 C322 1.432 . S
C326 C323 1.317 . S
C326 H338 0.930 . S
C327 C329 1.392 . S
C327 C330 1.370 . S
C327 H339 0.931 . S
N328 C321 1.359 . S
N328 C329 1.327 . S
N328 Tb331 2.600 . S
C329 C327 1.392 . S
C329 N328 1.327 . S
C329 H336 0.930 . S
C330 C325 1.385 . S
C330 C327 1.370 . S
C330 H349 0.930 . S
Tb331 N328 2.600 . S
Tb331 N332 2.660 . S
Tb331 O365 2.362 1_545 S
Tb331 O366 2.421 . S
Tb331 O370 2.546 . S
Tb331 O371 2.610 1_655 S
Tb331 O373 2.320 1_655 S
Tb331 O374 2.552 1_655 S
Tb331 O375 2.413 . S
Tb331 C395 2.833 . S
N332 C324 1.360 . S
N332 Tb331 2.660 . S
N332 C333 1.305 1_645 S
C333 N332 1.305 1_465 S
C333 C335 1.407 . S
C333 H340 0.930 . S
C334 C322 1.410 . S
C334 C335 1.345 1_655 S
C334 H342 0.930 . S
C335 C333 1.407 . S
C335 C334 1.345 1_455 S
C335 H337 0.930 . S
H336 C329 0.930 . S
H337 C335 0.930 . S
H338 C326 0.930 . S
H339 C327 0.931 . S
H340 C333 0.930 . S
H341 C355 0.930 1_655 S
H342 C334 0.930 . S
H343 C361 0.930 . S
H344 C352 0.930 1_655 S
H345 C359 0.931 . S
H346 C323 0.929 . S
H347 C353 0.930 . S
H348 C386 0.930 . S
H349 C330 0.930 . S
H350 C385 0.929 . S
N351 Tb320 2.660 1_545 S
N351 C352 1.305 . S
N351 C356 1.360 . S
C352 H344 0.930 1_455 S
C352 N351 1.305 . S
C352 C355 1.407 . S
C353 H347 0.930 . S
C353 C354 1.410 . S
C353 C355 1.345 . S
C354 C353 1.410 . S
C354 C356 1.417 . S
C354 C386 1.432 . S
C355 H341 0.930 1_455 S
C355 C352 1.407 . S
C355 C353 1.345 . S
C356 N351 1.360 . S
C356 C354 1.417 . S
C356 C360 1.432 . S
H357 C362 0.930 . S
N358 Tb320 2.600 . S
N358 C360 1.359 1_565 S
N358 C361 1.327 . S
C359 H345 0.931 . S
C359 C361 1.392 . S
C359 C362 1.370 . S
C360 C356 1.432 . S
C360 N358 1.359 1_545 S
C360 C363 1.414 . S
C361 H343 0.930 . S
C361 N358 1.327 . S
C361 C359 1.392 . S
C362 H357 0.930 . S
C362 C359 1.370 . S
C362 C363 1.385 1_565 S
C363 C360 1.414 . S
C363 C362 1.385 1_545 S
C363 C385 1.444 . S
O364 Tb320 2.546 . S
O364 C384 1.251 . S
O365 Tb320 2.610 1_655 S
O365 Tb331 2.362 1_565 S
O365 C376 1.283 . S
O366 Tb331 2.421 . S
O366 C383 1.262 . S
O367 Tb320 2.320 1_655 S
O367 C383 1.260 1_565 S
O368 Tb320 2.552 . S
O368 C376 1.243 1_455 S
O369 Tb320 2.413 . S
O369 C384 1.256 . S
O370 Tb331 2.546 . S
O370 C395 1.251 . S
O371 Tb320 2.362 1_545 S
O371 Tb331 2.610 1_455 S
O371 C387 1.283 . S
O372 Tb320 2.421 . S
O372 C394 1.262 1_565 S
O373 Tb331 2.320 1_455 S
O373 C394 1.260 . S
O374 Tb331 2.552 1_455 S
O374 C387 1.243 . S
O375 Tb331 2.413 . S
O375 C395 1.256 . S
C376 O365 1.283 . S
C376 O368 1.243 1_655 S
C377 C379 1.382 . S
C377 C381 1.393 . S
C377 C384 1.500 . S
C378 C379 1.400 . S
C378 C380 1.384 . S
C379 C377 1.382 . S
C379 C378 1.400 . S
C379 H396 0.930 1_455 S
C380 C378 1.384 . S
C380 C382 1.392 . S
C380 H397 0.931 . S
C381 C377 1.393 . S
C381 C382 1.401 . S
C381 H398 0.930 . S
C382 C380 1.392 . S
C382 C381 1.401 . S
C382 H399 0.930 . S
C383 O366 1.262 . S
C383 O367 1.260 1_545 S
C384 Tb320 2.833 . S
C384 O364 1.251 . S
C384 O369 1.256 . S
C384 C377 1.500 . S
C385 H350 0.929 . S
C385 C363 1.444 . S
C385 C386 1.317 . S
C386 H348 0.930 . S
C386 C354 1.432 . S
C386 C385 1.317 . S
C387 O371 1.283 . S
C387 O374 1.243 . S
C388 C389 1.380 1_655 S
C388 C392 1.393 . S
C388 C395 1.500 . S
C389 C388 1.380 1_455 S
C389 C390 1.399 1_455 S
C389 H400 0.932 . S
C390 C389 1.399 1_655 S
C390 C391 1.417 . S
C391 C390 1.417 . S
C391 C393 1.392 . S
C391 H401 0.931 . S
C392 C388 1.393 . S
C392 C393 1.401 . S
C392 H402 0.930 . S
C393 C391 1.392 . S
C393 C392 1.401 . S
C393 H403 0.930 . S
C394 O372 1.262 1_545 S
C394 O373 1.260 . S
C395 Tb331 2.833 . S
C395 O370 1.251 . S
C395 O375 1.256 . S
C395 C388 1.500 . S
H396 C379 0.930 1_655 S
H397 C380 0.931 . S
H398 C381 0.930 . S
H399 C382 0.930 . S
H400 C389 0.932 . S
H401 C391 0.931 . S
H402 C392 0.930 . S
H403 C393 0.930 . S
Tb404 N435 2.660 . S
Tb404 N442 2.600 . S
Tb404 O448 2.546 . S
Tb404 O449 2.610 1_545 S
Tb404 O451 2.320 1_545 S
Tb404 O452 2.552 . S
Tb404 O453 2.413 . S
Tb404 O455 2.362 . S
Tb404 O456 2.421 . S
Tb404 C468 2.833 . S
C405 C408 1.432 . S
C405 C409 1.414 . S
C405 N412 1.359 . S
C406 C408 1.417 . S
C406 C410 1.432 . S
C406 C418 1.410 . S
C407 C409 1.444 . S
C407 C410 1.317 . S
C407 H430 0.929 . S
C408 C405 1.432 . S
C408 C406 1.417 . S
C408 N416 1.360 . S
C409 C405 1.414 . S
C409 C407 1.444 . S
C409 C414 1.385 . S
C410 C406 1.432 . S
C410 C407 1.317 . S
C410 H422 0.930 . S
C411 C413 1.392 . S
C411 C414 1.370 . S
C411 H423 0.931 . S
N412 C405 1.359 . S
N412 C413 1.327 . S
N412 Tb415 2.600 . S
C413 C411 1.392 . S
C413 N412 1.327 . S
C413 H420 0.930 . S
C414 C409 1.385 . S
C414 C411 1.370 . S
C414 H433 0.930 . S
Tb415 N412 2.600 . S
Tb415 N416 2.660 . S
Tb415 O449 2.362 . S
Tb415 O450 2.421 . S
Tb415 O454 2.546 . S
Tb415 O455 2.610 1_565 S
Tb415 O457 2.320 1_565 S
Tb415 O458 2.552 1_565 S
Tb415 O459 2.406 1_565 S
Tb415 C479 2.833 . S
N416 C408 1.360 . S
N416 Tb415 2.660 . S
N416 C417 1.305 1_565 S
C417 N416 1.305 1_545 S
C417 C419 1.407 . S
C417 H424 0.930 . S
C418 C406 1.410 . S
C418 C419 1.345 1_565 S
C418 H426 0.930 . S
C419 C417 1.407 . S
C419 C418 1.345 1_545 S
C419 H421 0.930 . S
H420 C413 0.930 . S
H421 C419 0.930 . S
H422 C410 0.930 . S
H423 C411 0.931 . S
H424 C417 0.930 . S
H425 C439 0.930 1_565 S
H426 C418 0.930 . S
H427 C445 0.930 . S
H428 C436 0.930 1_565 S
H429 C443 0.931 . S
H430 C407 0.929 . S
H431 C437 0.930 . S
H432 C470 0.930 . S
H433 C414 0.930 . S
H434 C469 0.929 . S
N435 Tb404 2.660 . S
N435 C436 1.305 . S
N435 C440 1.360 . S
C436 H428 0.930 1_545 S
C436 N435 1.305 . S
C436 C439 1.407 . S
C437 H431 0.930 . S
C437 C438 1.410 . S
C437 C439 1.345 . S
C438 C437 1.410 . S
C438 C440 1.417 . S
C438 C470 1.432 . S
C439 H425 0.930 1_545 S
C439 C436 1.407 . S
C439 C437 1.345 . S
C440 N435 1.360 . S
C440 C438 1.417 . S
C440 C444 1.432 . S
H441 C446 0.930 . S
N442 Tb404 2.600 . S
N442 C444 1.359 . S
N442 C445 1.327 . S
C443 H429 0.931 . S
C443 C445 1.392 . S
C443 C446 1.370 . S
C444 C440 1.432 . S
C444 N442 1.359 . S
C444 C447 1.414 . S
C445 H427 0.930 . S
C445 N442 1.327 . S
C445 C443 1.392 . S
C446 H441 0.930 . S
C446 C443 1.370 . S
C446 C447 1.385 . S
C447 C444 1.414 . S
C447 C446 1.385 . S
C447 C469 1.444 . S
O448 Tb404 2.546 . S
O448 C468 1.251 . S
O449 Tb404 2.610 1_565 S
O449 Tb415 2.362 . S
O449 C460 1.283 . S
O450 Tb415 2.421 . S
O450 C467 1.262 . S
O451 Tb404 2.320 1_565 S
O451 C467 1.260 . S
O452 Tb404 2.552 . S
O452 C460 1.243 1_545 S
O453 Tb404 2.413 . S
O453 C468 1.256 . S
O454 Tb415 2.546 . S
O454 C479 1.251 . S
O455 Tb404 2.362 . S
O455 Tb415 2.610 1_545 S
O455 C471 1.283 . S
O456 Tb404 2.421 . S
O456 C478 1.262 . S
O457 Tb415 2.320 1_545 S
O457 C478 1.260 . S
O458 Tb415 2.552 1_545 S
O458 C471 1.243 . S
O459 Tb415 2.406 1_545 S
O459 C479 1.228 1_545 S
C460 O449 1.283 . S
C460 O452 1.243 1_565 S
C461 C463 1.382 . S
C461 C465 1.393 . S
C461 C468 1.500 . S
C462 C463 1.400 . S
C462 C464 1.384 . S
C463 C461 1.382 . S
C463 C462 1.400 . S
C463 H480 0.951 . S
C464 C462 1.384 . S
C464 C466 1.392 . S
C464 H481 0.931 . S
C465 C461 1.393 . S
C465 C466 1.401 . S
C465 H482 0.930 . S
C466 C464 1.392 . S
C466 C465 1.401 . S
C466 H483 0.930 . S
C467 O450 1.262 . S
C467 O451 1.260 . S
C468 Tb404 2.833 . S
C468 O448 1.251 . S
C468 O453 1.256 . S
C468 C461 1.500 . S
C469 H434 0.929 . S
C469 C447 1.444 . S
C469 C470 1.317 . S
C470 H432 0.930 . S
C470 C438 1.432 . S
C470 C469 1.317 . S
C471 O455 1.283 . S
C471 O458 1.243 . S
C472 C473 1.382 1_565 S
C472 C476 1.393 . S
C472 C479 1.500 . S
C473 C472 1.382 1_545 S
C473 C474 1.401 . S
C473 H484 0.930 . S
C474 C473 1.401 . S
C474 C475 1.369 1_545 S
C475 C474 1.369 1_565 S
C475 C477 1.392 . S
C475 H485 0.931 . S
C476 C472 1.393 . S
C476 C477 1.401 . S
C476 H486 0.930 . S
C477 C475 1.392 . S
C477 C476 1.401 . S
C477 H487 0.930 . S
C478 O456 1.262 . S
C478 O457 1.260 . S
C479 Tb415 2.833 . S
C479 O454 1.251 . S
C479 O459 1.228 1_565 S
C479 C472 1.500 . S
H480 C463 0.951 . S
H481 C464 0.931 . S
H482 C465 0.930 . S
H483 C466 0.930 . S
H484 C473 0.930 . S
H485 C475 0.931 . S
H486 C476 0.930 . S
H487 C477 0.930 . S
Tb488 N519 2.660 . S
Tb488 N526 2.600 . S
Tb488 O532 2.546 . S
Tb488 O533 2.610 . S
Tb488 O535 2.320 . S
Tb488 O536 2.552 . S
Tb488 O537 2.413 . S
Tb488 O539 2.362 . S
Tb488 O540 2.421 . S
Tb488 C552 2.833 . S
C489 C492 1.432 . S
C489 C493 1.414 . S
C489 N496 1.359 . S
C490 C492 1.417 . S
C490 C494 1.432 . S
C490 C502 1.410 . S
C491 C493 1.444 . S
C491 C494 1.317 . S
C491 H514 0.929 . S
C492 C489 1.432 . S
C492 C490 1.417 . S
C492 N500 1.360 . S
C493 C489 1.414 . S
C493 C491 1.444 . S
C493 C498 1.385 . S
C494 C490 1.432 . S
C494 C491 1.317 . S
C494 H506 0.930 . S
C495 C497 1.392 . S
C495 C498 1.370 . S
C495 H507 0.931 . S
N496 C489 1.359 . S
N496 C497 1.327 . S
N496 Tb499 2.600 . S
C497 C495 1.392 . S
C497 N496 1.327 . S
C497 H504 0.930 . S
C498 C493 1.385 . S
C498 C495 1.370 . S
C498 H517 0.930 . S
Tb499 N496 2.600 . S
Tb499 N500 2.660 . S
Tb499 O533 2.362 . S
Tb499 O534 2.421 . S
Tb499 O538 2.546 . S
Tb499 O539 2.610 . S
Tb499 O541 2.320 . S
Tb499 O542 2.552 . S
Tb499 O543 2.413 . S
Tb499 C563 2.833 . S
N500 C492 1.360 . S
N500 Tb499 2.660 . S
N500 C501 1.305 . S
C501 N500 1.305 . S
C501 C503 1.407 . S
C501 H508 0.930 . S
C502 C490 1.410 . S
C502 C503 1.345 . S
C502 H510 0.930 . S
C503 C501 1.407 . S
C503 C502 1.345 . S
C503 H505 0.930 . S
H504 C497 0.930 . S
H505 C503 0.930 . S
H506 C494 0.930 . S
H507 C495 0.931 . S
H508 C501 0.930 . S
H509 C523 0.930 . S
H510 C502 0.930 . S
H511 C529 0.930 . S
H512 C520 0.930 . S
H513 C527 0.931 . S
H514 C491 0.929 . S
H515 C521 0.930 . S
H516 C554 0.930 . S
H517 C498 0.930 . S
H518 C553 0.929 . S
N519 Tb488 2.660 . S
N519 C520 1.305 . S
N519 C524 1.360 . S
C520 H512 0.930 . S
C520 N519 1.305 . S
C520 C523 1.407 . S
C521 H515 0.930 . S
C521 C522 1.410 . S
C521 C523 1.345 . S
C522 C521 1.410 . S
C522 C524 1.417 . S
C522 C554 1.432 . S
C523 H509 0.930 . S
C523 C520 1.407 . S
C523 C521 1.345 . S
C524 N519 1.360 . S
C524 C522 1.417 . S
C524 C528 1.432 . S
H525 C530 0.930 . S
N526 Tb488 2.600 . S
N526 C528 1.359 . S
N526 C529 1.327 . S
C527 H513 0.931 . S
C527 C529 1.392 . S
C527 C530 1.370 . S
C528 C524 1.432 . S
C528 N526 1.359 . S
C528 C531 1.414 . S
C529 H511 0.930 . S
C529 N526 1.327 . S
C529 C527 1.392 . S
C530 H525 0.930 . S
C530 C527 1.370 . S
C530 C531 1.385 . S
C531 C528 1.414 . S
C531 C530 1.385 . S
C531 C553 1.444 . S
O532 Tb488 2.546 . S
O532 C552 1.251 . S
O533 Tb488 2.610 . S
O533 Tb499 2.362 . S
O533 C544 1.283 . S
O534 Tb499 2.421 . S
O534 C551 1.262 . S
O535 Tb488 2.320 . S
O535 C551 1.260 . S
O536 Tb488 2.552 . S
O536 C544 1.243 . S
O537 Tb488 2.413 . S
O537 C552 1.256 . S
O538 Tb499 2.546 . S
O538 C563 1.251 . S
O539 Tb488 2.362 . S
O539 Tb499 2.610 . S
O539 C555 1.283 . S
O540 Tb488 2.421 . S
O540 C562 1.262 . S
O541 Tb499 2.320 . S
O541 C562 1.260 . S
O542 Tb499 2.552 . S
O542 C555 1.243 . S
O543 Tb499 2.413 . S
O543 C563 1.256 . S
C544 O533 1.283 . S
C544 O536 1.243 . S
C545 C547 1.382 . S
C545 C549 1.393 . S
C545 C552 1.500 . S
C546 C547 1.400 . S
C546 C548 1.384 . S
C547 C545 1.382 . S
C547 C546 1.400 . S
C547 H564 0.930 . S
C548 C546 1.384 . S
C548 C550 1.392 . S
C548 H565 0.931 . S
C549 C545 1.393 . S
C549 C550 1.401 . S
C549 H566 0.930 . S
C550 C548 1.392 . S
C550 C549 1.401 . S
C550 H567 0.930 . S
C551 O534 1.262 . S
C551 O535 1.260 . S
C552 Tb488 2.833 . S
C552 O532 1.251 . S
C552 O537 1.256 . S
C552 C545 1.500 . S
C553 H518 0.929 . S
C553 C531 1.444 . S
C553 C554 1.317 . S
C554 H516 0.930 . S
C554 C522 1.432 . S
C554 C553 1.317 . S
C555 O539 1.283 . S
C555 O542 1.243 . S
C556 C557 1.382 . S
C556 C560 1.393 . S
C556 C563 1.500 . S
C557 C556 1.382 . S
C557 C558 1.400 . S
C557 H568 0.930 . S
C558 C557 1.400 . S
C558 C559 1.384 . S
C559 C558 1.384 . S
C559 C561 1.392 . S
C559 H569 0.931 . S
C560 C556 1.393 . S
C560 C561 1.401 . S
C560 H570 0.930 . S
C561 C559 1.392 . S
C561 C560 1.401 . S
C561 H571 0.930 . S
C562 O540 1.262 . S
C562 O541 1.260 . S
C563 Tb499 2.833 . S
C563 O538 1.251 . S
C563 O543 1.256 . S
C563 C556 1.500 . S
H564 C547 0.930 . S
H565 C548 0.931 . S
H566 C549 0.930 . S
H567 C550 0.930 . S
H568 C557 0.930 . S
H569 C559 0.931 . S
H570 C560 0.930 . S
H571 C561 0.930 . S
Tb572 N603 2.660 . S
Tb572 N610 2.600 . S
Tb572 O616 2.546 . S
Tb572 O617 2.610 . S
Tb572 O619 2.320 . S
Tb572 O620 2.552 . S
Tb572 O621 2.413 . S
Tb572 O623 2.362 . S
Tb572 O624 2.421 1_455 S
Tb572 C636 2.833 . S
C573 C576 1.432 . S
C573 C577 1.414 . S
C573 N580 1.359 . S
C574 C576 1.417 . S
C574 C578 1.432 . S
C574 C586 1.410 . S
C575 C577 1.444 . S
C575 C578 1.317 . S
C575 H598 0.929 . S
C576 C573 1.432 . S
C576 C574 1.417 . S
C576 N584 1.360 . S
C577 C573 1.414 . S
C577 C575 1.444 . S
C577 C582 1.385 . S
C578 C574 1.432 . S
C578 C575 1.317 . S
C578 H590 0.930 . S
C579 C581 1.392 . S
C579 C582 1.370 1_455 S
C579 H591 0.931 . S
N580 C573 1.359 . S
N580 C581 1.327 1_655 S
N580 Tb583 2.600 . S
C581 C579 1.392 . S
C581 N580 1.327 1_455 S
C581 H588 0.930 . S
C582 C577 1.385 . S
C582 C579 1.370 1_655 S
C582 H601 0.930 . S
Tb583 N580 2.600 . S
Tb583 N584 2.660 . S
Tb583 O617 2.362 1_655 S
Tb583 O618 2.421 1_655 S
Tb583 O622 2.546 . S
Tb583 O623 2.610 1_655 S
Tb583 O625 2.320 . S
Tb583 O626 2.552 . S
Tb583 O627 2.413 . S
Tb583 C647 2.833 . S
N584 C576 1.360 . S
N584 Tb583 2.660 . S
N584 C585 1.305 . S
C585 N584 1.305 . S
C585 C587 1.407 . S
C585 H592 0.930 . S
C586 C574 1.410 . S
C586 C587 1.345 . S
C586 H594 0.930 . S
C587 C585 1.407 . S
C587 C586 1.345 . S
C587 H589 0.930 . S
H588 C581 0.930 . S
H589 C587 0.930 . S
H590 C578 0.930 . S
H591 C579 0.931 . S
H592 C585 0.930 . S
H593 C607 0.930 . S
H594 C586 0.930 . S
H595 C613 0.923 1_655 S
H596 C604 0.930 . S
H597 C611 0.931 1_655 S
H598 C575 0.929 . S
H599 C605 0.930 . S
H600 C638 0.930 . S
H601 C582 0.930 . S
H602 C637 0.929 . S
N603 Tb572 2.660 . S
N603 C604 1.305 . S
N603 C608 1.360 . S
C604 H596 0.930 . S
C604 N603 1.305 . S
C604 C607 1.407 . S
C605 H599 0.930 . S
C605 C606 1.410 . S
C605 C607 1.345 . S
C606 C605 1.410 . S
C606 C608 1.417 . S
C606 C638 1.432 . S
C607 H593 0.930 . S
C607 C604 1.407 . S
C607 C605 1.345 . S
C608 N603 1.360 . S
C608 C606 1.417 . S
C608 C612 1.432 . S
H609 C614 0.930 . S
N610 Tb572 2.600 . S
N610 C612 1.359 . S
N610 C613 1.327 . S
C611 H597 0.931 1_455 S
C611 C613 1.392 . S
C611 C614 1.370 . S
C612 C608 1.432 . S
C612 N610 1.359 . S
C612 C615 1.414 . S
C613 H595 0.923 1_455 S
C613 N610 1.327 . S
C613 C611 1.392 . S
C614 H609 0.930 . S
C614 C611 1.370 . S
C614 C615 1.385 . S
C615 C612 1.414 . S
C615 C614 1.385 . S
C615 C637 1.444 . S
O616 Tb572 2.546 . S
O616 C636 1.251 . S
O617 Tb572 2.610 . S
O617 Tb583 2.362 1_455 S
O617 C628 1.283 . S
O618 Tb583 2.421 1_455 S
O618 C635 1.262 . S
O619 Tb572 2.320 . S
O619 C635 1.260 . S
O620 Tb572 2.552 . S
O620 C628 1.243 . S
O621 Tb572 2.413 . S
O621 C636 1.256 . S
O622 Tb583 2.546 . S
O622 C647 1.251 . S
O623 Tb572 2.362 . S
O623 Tb583 2.610 1_455 S
O623 C639 1.283 1_455 S
O624 Tb572 2.421 1_655 S
O624 C646 1.262 . S
O625 Tb583 2.320 . S
O625 C646 1.260 . S
O626 Tb583 2.552 . S
O626 C639 1.243 . S
O627 Tb583 2.413 . S
O627 C647 1.256 . S
C628 O617 1.283 . S
C628 O620 1.243 . S
C629 C631 1.382 . S
C629 C633 1.393 . S
C629 C636 1.500 . S
C630 C631 1.400 . S
C630 C632 1.384 . S
C631 C629 1.382 . S
C631 C630 1.400 . S
C631 H648 0.930 . S
C632 C630 1.384 . S
C632 C634 1.392 . S
C632 H649 0.931 . S
C633 C629 1.393 . S
C633 C634 1.401 . S
C633 H650 0.930 . S
C634 C632 1.392 . S
C634 C633 1.401 . S
C634 H651 0.930 . S
C635 O618 1.262 . S
C635 O619 1.260 . S
C636 Tb572 2.833 . S
C636 O616 1.251 . S
C636 O621 1.256 . S
C636 C629 1.500 . S
C637 H602 0.929 . S
C637 C615 1.444 . S
C637 C638 1.317 . S
C638 H600 0.930 . S
C638 C606 1.432 . S
C638 C637 1.317 . S
C639 O623 1.283 1_655 S
C639 O626 1.243 . S
C640 C641 1.382 . S
C640 C644 1.393 . S
C640 C647 1.500 . S
C641 C640 1.382 . S
C641 C642 1.400 . S
C641 H652 0.930 . S
C642 C641 1.400 . S
C642 C643 1.384 . S
C643 C642 1.384 . S
C643 C645 1.392 . S
C643 H653 0.931 . S
C644 C640 1.393 . S
C644 C645 1.401 . S
C644 H654 0.930 . S
C645 C643 1.392 . S
C645 C644 1.401 . S
C645 H655 0.930 . S
C646 O624 1.262 . S
C646 O625 1.260 . S
C647 Tb583 2.833 . S
C647 O622 1.251 . S
C647 O627 1.256 . S
C647 C640 1.500 . S
H648 C631 0.930 . S
H649 C632 0.931 . S
H650 C633 0.930 . S
H651 C634 0.930 . S
H652 C641 0.930 . S
H653 C643 0.931 . S
H654 C644 0.930 . S
H655 C645 0.930 . S
H656 C674 0.951 . S
H657 C676 0.951 . S
H658 C678 0.950 . S
H659 C679 0.950 . S
H660 C681 0.950 . S
H661 C684 0.950 . S
H662 C685 0.950 . S
H663 C687 0.950 . S
H664 C688 0.950 . S
H665 C689 0.951 . S
H666 C691 0.951 . S
H667 C693 0.950 . S
H668 C694 0.950 . S
H669 C696 0.950 . S
H670 C699 0.950 . S
H671 C700 0.950 . S
H672 C702 0.950 . S
H673 C703 0.950 . S
C674 H656 0.951 . S
C674 C675 1.366 . S
C674 C676 1.388 . S
C675 C674 1.366 . S
C675 C679 1.385 . S
C676 H657 0.951 . S
C676 C674 1.388 . S
C676 C677 1.366 . S
C677 C676 1.366 . S
C677 C678 1.414 . S
C677 C680 1.499 . S
C678 H658 0.950 . S
C678 C677 1.414 . S
C678 C679 1.374 . S
C679 H659 0.950 . S
C679 C675 1.385 . S
C679 C678 1.374 . S
C680 C677 1.499 . S
C680 C681 1.373 . S
C680 C682 1.389 . S
C681 H660 0.950 . S
C681 C680 1.373 . S
C681 C697 1.377 . S
C682 C680 1.389 . S
C682 C683 1.524 . S
C682 C696 1.377 . S
C683 C682 1.524 . S
C683 C684 1.397 . S
C683 C688 1.363 . S
C684 H661 0.950 . S
C684 C683 1.397 . S
C684 C685 1.334 . S
C685 H662 0.950 . S
C685 C684 1.334 . S
C685 C686 1.287 . S
C686 C685 1.287 . S
C686 C687 1.524 . S
C686 H705 0.913 1_545 S
C687 H663 0.950 . S
C687 C686 1.524 . S
C687 C688 1.415 . S
C688 H664 0.950 . S
C688 C683 1.363 . S
C688 C687 1.415 . S
C689 H665 0.951 . S
C689 C690 1.366 . S
C689 C691 1.388 . S
C690 C689 1.366 . S
C690 C694 1.385 . S
C691 H666 0.951 . S
C691 C689 1.388 . S
C691 C692 1.366 . S
C692 C691 1.366 . S
C692 C693 1.414 . S
C692 C695 1.499 . S
C693 H667 0.950 . S
C693 C692 1.414 . S
C693 C694 1.374 . S
C694 H668 0.950 . S
C694 C690 1.385 . S
C694 C693 1.374 . S
C695 C692 1.499 . S
C695 C696 1.373 . S
C695 C697 1.389 . S
C696 H669 0.950 . S
C696 C682 1.377 . S
C696 C695 1.373 . S
C697 C681 1.377 . S
C697 C695 1.389 . S
C697 C698 1.524 . S
C698 C697 1.524 . S
C698 C699 1.397 . S
C698 C703 1.363 . S
C699 H670 0.950 . S
C699 C698 1.397 . S
C699 C700 1.334 . S
C700 H671 0.950 . S
C700 C699 1.334 . S
C700 C701 1.287 . S
C701 C700 1.287 . S
C701 C702 1.524 . S
C701 H704 0.999 . S
C702 H672 0.950 . S
C702 C701 1.524 . S
C702 C703 1.415 . S
C703 H673 0.950 . S
C703 C698 1.363 . S
C703 C702 1.415 . S
H704 C701 0.999 . S
H705 C686 0.913 1_565 S
H706 C724 0.951 . S
H707 C726 0.951 . S
H708 C728 0.950 . S
H709 C729 0.950 . S
H710 C731 0.950 . S
H711 C734 0.950 . S
H712 C735 0.950 . S
H713 C737 0.950 . S
H714 C738 0.950 . S
H715 C739 0.951 . S
H716 C741 0.951 . S
H717 C743 0.950 . S
H718 C744 0.950 . S
H719 C746 0.950 . S
H720 C749 0.950 . S
H721 C750 0.950 . S
H722 C752 0.950 . S
H723 C753 0.950 . S
C724 H706 0.951 . S
C724 C725 1.366 . S
C724 C726 1.388 . S
C725 C724 1.366 . S
C725 C729 1.385 . S
C726 H707 0.951 . S
C726 C724 1.388 . S
C726 C727 1.366 . S
C727 C726 1.366 . S
C727 C728 1.414 . S
C727 C730 1.499 . S
C728 H708 0.950 . S
C728 C727 1.414 . S
C728 C729 1.374 . S
C729 H709 0.950 . S
C729 C725 1.385 . S
C729 C728 1.374 . S
C730 C727 1.499 . S
C730 C731 1.373 . S
C730 C732 1.389 . S
C731 H710 0.950 . S
C731 C730 1.373 . S
C731 C747 1.377 . S
C732 C730 1.389 . S
C732 C733 1.524 . S
C732 C746 1.377 . S
C733 C732 1.524 . S
C733 C734 1.397 . S
C733 C738 1.363 . S
C734 H711 0.950 . S
C734 C733 1.397 . S
C734 C735 1.334 . S
C735 H712 0.950 . S
C735 C734 1.334 . S
C735 C736 1.287 . S
C736 C735 1.287 . S
C736 C737 1.524 . S
C736 H755 0.913 . S
C737 H713 0.950 . S
C737 C736 1.524 . S
C737 C738 1.415 . S
C738 H714 0.950 . S
C738 C733 1.363 . S
C738 C737 1.415 . S
C739 H715 0.951 . S
C739 C740 1.366 . S
C739 C741 1.388 . S
C740 C739 1.366 . S
C740 C744 1.385 . S
C741 H716 0.951 . S
C741 C739 1.388 . S
C741 C742 1.366 . S
C742 C741 1.366 . S
C742 C743 1.414 . S
C742 C745 1.499 . S
C743 H717 0.950 . S
C743 C742 1.414 . S
C743 C744 1.374 . S
C744 H718 0.950 . S
C744 C740 1.385 . S
C744 C743 1.374 . S
C745 C742 1.499 . S
C745 C746 1.373 . S
C745 C747 1.389 . S
C746 H719 0.950 . S
C746 C732 1.377 . S
C746 C745 1.373 . S
C747 C731 1.377 . S
C747 C745 1.389 . S
C747 C748 1.524 . S
C748 C747 1.524 . S
C748 C749 1.397 . S
C748 C753 1.363 . S
C749 H720 0.950 . S
C749 C748 1.397 . S
C749 C750 1.334 . S
C750 H721 0.950 . S
C750 C749 1.334 . S
C750 C751 1.287 . S
C751 C750 1.287 . S
C751 C752 1.524 . S
C751 H754 0.999 . S
C752 H722 0.950 . S
C752 C751 1.524 . S
C752 C753 1.415 . S
C753 H723 0.950 . S
C753 C748 1.363 . S
C753 C752 1.415 . S
H754 C751 0.999 . S
H755 C736 0.913 . S
H756 C774 0.951 . S
H757 C776 0.951 . S
H758 C778 0.950 . S
H759 C779 0.950 . S
H760 C781 0.950 . S
H761 C784 0.950 . S
H762 C785 0.950 . S
H763 C787 0.950 . S
H764 C788 0.950 . S
H765 C789 0.951 . S
H766 C791 0.951 . S
H767 C793 0.950 . S
H768 C794 0.950 . S
H769 C796 0.950 . S
H770 C799 0.950 . S
H771 C800 0.950 . S
H772 C802 0.950 . S
H773 C803 0.950 . S
C774 H756 0.951 . S
C774 C775 1.366 . S
C774 C776 1.388 . S
C775 C774 1.366 . S
C775 C779 1.385 . S
C776 H757 0.951 . S
C776 C774 1.388 . S
C776 C777 1.366 . S
C777 C776 1.366 . S
C777 C778 1.414 . S
C777 C780 1.499 . S
C778 H758 0.950 . S
C778 C777 1.414 . S
C778 C779 1.374 . S
C779 H759 0.950 . S
C779 C775 1.385 . S
C779 C778 1.374 . S
C780 C777 1.499 . S
C780 C781 1.373 . S
C780 C782 1.389 . S
C781 H760 0.950 . S
C781 C780 1.373 . S
C781 C797 1.377 . S
C782 C780 1.389 . S
C782 C783 1.524 . S
C782 C796 1.377 . S
C783 C782 1.524 . S
C783 C784 1.397 . S
C783 C788 1.363 . S
C784 H761 0.950 . S
C784 C783 1.397 . S
C784 C785 1.334 . S
C785 H762 0.950 . S
C785 C784 1.334 . S
C785 C786 1.287 . S
C786 C785 1.287 . S
C786 C787 1.524 . S
C786 H805 0.913 . S
C787 H763 0.950 . S
C787 C786 1.524 . S
C787 C788 1.415 . S
C788 H764 0.950 . S
C788 C783 1.363 . S
C788 C787 1.415 . S
C789 H765 0.951 . S
C789 C790 1.366 . S
C789 C791 1.388 . S
C790 C789 1.366 . S
C790 C794 1.385 . S
C791 H766 0.951 . S
C791 C789 1.388 . S
C791 C792 1.366 . S
C792 C791 1.366 . S
C792 C793 1.414 . S
C792 C795 1.499 . S
C793 H767 0.950 . S
C793 C792 1.414 . S
C793 C794 1.374 . S
C794 H768 0.950 . S
C794 C790 1.385 . S
C794 C793 1.374 . S
C795 C792 1.499 . S
C795 C796 1.373 . S
C795 C797 1.389 . S
C796 H769 0.950 . S
C796 C782 1.377 . S
C796 C795 1.373 . S
C797 C781 1.377 . S
C797 C795 1.389 . S
C797 C798 1.524 . S
C798 C797 1.524 . S
C798 C799 1.397 . S
C798 C803 1.363 . S
C799 H770 0.950 . S
C799 C798 1.397 . S
C799 C800 1.334 . S
C800 H771 0.950 . S
C800 C799 1.334 . S
C800 C801 1.287 . S
C801 C800 1.287 . S
C801 C802 1.524 . S
C801 H804 0.999 . S
C802 H772 0.950 . S
C802 C801 1.524 . S
C802 C803 1.415 . S
C803 H773 0.950 . S
C803 C798 1.363 . S
C803 C802 1.415 . S
H804 C801 0.999 . S
H805 C786 0.913 . S
H806 C824 0.951 . S
H807 C826 0.951 . S
H808 C828 0.950 . S
H809 C829 0.950 . S
H810 C831 0.950 . S
H811 C834 0.950 . S
H812 C835 0.950 . S
H813 C837 0.950 . S
H814 C838 0.950 . S
H815 C839 0.951 . S
H816 C841 0.951 . S
H817 C843 0.950 . S
H818 C844 0.950 . S
H819 C846 0.950 . S
H820 C849 0.950 . S
H821 C850 0.950 . S
H822 C852 0.950 . S
H823 C853 0.950 . S
C824 H806 0.951 . S
C824 C825 1.366 . S
C824 C826 1.388 . S
C825 C824 1.366 . S
C825 C829 1.385 . S
C826 H807 0.951 . S
C826 C824 1.388 . S
C826 C827 1.366 . S
C827 C826 1.366 . S
C827 C828 1.414 . S
C827 C830 1.499 . S
C828 H808 0.950 . S
C828 C827 1.414 . S
C828 C829 1.374 . S
C829 H809 0.950 . S
C829 C825 1.385 . S
C829 C828 1.374 . S
C830 C827 1.499 . S
C830 C831 1.373 . S
C830 C832 1.389 . S
C831 H810 0.950 . S
C831 C830 1.373 . S
C831 C847 1.377 . S
C832 C830 1.389 . S
C832 C833 1.524 . S
C832 C846 1.377 . S
C833 C832 1.524 . S
C833 C834 1.397 . S
C833 C838 1.363 . S
C834 H811 0.950 . S
C834 C833 1.397 . S
C834 C835 1.334 . S
C835 H812 0.950 . S
C835 C834 1.334 . S
C835 C836 1.287 1_455 S
C836 C835 1.287 1_655 S
C836 C837 1.524 . S
C836 H855 0.913 . S
C837 H813 0.950 . S
C837 C836 1.524 . S
C837 C838 1.415 1_655 S
C838 H814 0.950 . S
C838 C833 1.363 . S
C838 C837 1.415 1_455 S
C839 H815 0.951 . S
C839 C840 1.366 . S
C839 C841 1.388 . S
C840 C839 1.366 . S
C840 C844 1.385 . S
C841 H816 0.951 . S
C841 C839 1.388 . S
C841 C842 1.366 . S
C842 C841 1.366 . S
C842 C843 1.414 . S
C842 C845 1.499 . S
C843 H817 0.950 . S
C843 C842 1.414 . S
C843 C844 1.374 . S
C844 H818 0.950 . S
C844 C840 1.385 . S
C844 C843 1.374 . S
C845 C842 1.499 . S
C845 C846 1.373 . S
C845 C847 1.389 . S
C846 H819 0.950 . S
C846 C832 1.377 . S
C846 C845 1.373 . S
C847 C831 1.377 . S
C847 C845 1.389 . S
C847 C848 1.524 . S
C848 C847 1.524 . S
C848 C849 1.397 . S
C848 C853 1.363 . S
C849 H820 0.950 . S
C849 C848 1.397 . S
C849 C850 1.334 . S
C850 H821 0.950 . S
C850 C849 1.334 . S
C850 C851 1.287 . S
C851 C850 1.287 . S
C851 C852 1.524 . S
C851 H854 0.999 . S
C852 H822 0.950 . S
C852 C851 1.524 . S
C852 C853 1.415 . S
C853 H823 0.950 . S
C853 C848 1.363 . S
C853 C852 1.415 . S
H854 C851 0.999 . S
H855 C836 0.913 . S
H856 C874 0.951 . S
H857 C876 0.951 . S
H858 C878 0.950 . S
H859 C879 0.950 . S
H860 C881 0.950 . S
H861 C884 0.950 . S
H862 C885 0.950 . S
H863 C887 0.950 . S
H864 C888 0.950 . S
H865 C889 0.951 . S
H866 C891 0.951 . S
H867 C893 0.950 . S
H868 C894 0.905 1_545 S
H869 C896 0.950 . S
H870 C899 0.950 . S
H871 C900 0.950 . S
H872 C902 0.950 . S
H873 C903 0.950 . S
C874 H856 0.951 . S
C874 C875 1.366 . S
C874 C876 1.388 1_554 S
C875 C874 1.366 . S
C875 C879 1.385 1_554 S
C876 H857 0.951 . S
C876 C874 1.388 1_556 S
C876 C877 1.366 . S
C877 C876 1.366 . S
C877 C878 1.414 . S
C877 C880 1.499 . S
C878 H858 0.950 . S
C878 C877 1.414 . S
C878 C879 1.374 . S
C879 H859 0.950 . S
C879 C875 1.385 1_556 S
C879 C878 1.374 . S
C880 C877 1.499 . S
C880 C881 1.373 . S
C880 C882 1.389 . S
C881 H860 0.950 . S
C881 C880 1.373 . S
C881 C897 1.377 . S
C882 C880 1.389 . S
C882 C883 1.524 . S
C882 C896 1.377 . S
C883 C882 1.524 . S
C883 C884 1.397 . S
C883 C888 1.363 1_565 S
C884 H861 0.950 . S
C884 C883 1.397 . S
C884 C885 1.334 1_565 S
C885 H862 0.950 . S
C885 C884 1.334 1_545 S
C885 C886 1.287 . S
C886 C885 1.287 . S
C886 C887 1.524 . S
C886 H905 0.913 . S
C887 H863 0.950 . S
C887 C886 1.524 . S
C887 C888 1.415 . S
C888 H864 0.950 . S
C888 C883 1.363 1_545 S
C888 C887 1.415 . S
C889 H865 0.951 . S
C889 C890 1.366 . S
C889 C891 1.388 . S
C890 C889 1.366 . S
C890 C894 1.411 . S
C891 H866 0.951 . S
C891 C889 1.388 . S
C891 C892 1.366 . S
C892 C891 1.366 . S
C892 C893 1.414 . S
C892 C895 1.499 . S
C893 H867 0.950 . S
C893 C892 1.414 . S
C893 C894 1.395 . S
C894 H868 0.905 1_565 S
C894 C890 1.411 . S
C894 C893 1.395 . S
C895 C892 1.499 . S
C895 C896 1.373 . S
C895 C897 1.389 . S
C896 H869 0.950 . S
C896 C882 1.377 . S
C896 C895 1.373 . S
C897 C881 1.377 . S
C897 C895 1.389 . S
C897 C898 1.524 . S
C898 C897 1.524 . S
C898 C899 1.397 . S
C898 C903 1.363 . S
C899 H870 0.950 . S
C899 C898 1.397 . S
C899 C900 1.334 . S
C900 H871 0.950 . S
C900 C899 1.334 . S
C900 C901 1.287 . S
C901 C900 1.287 . S
C901 C902 1.524 . S
C901 H904 0.999 . S
C902 H872 0.950 . S
C902 C901 1.524 . S
C902 C903 1.415 . S
C903 H873 0.950 . S
C903 C898 1.363 . S
C903 C902 1.415 . S
H904 C901 0.999 . S
H905 C886 0.913 . S
H906 C924 0.951 1_554 S
H907 C926 0.951 . S
H908 C928 0.950 . S
H909 C929 0.950 . S
H910 C931 0.950 . S
H911 C934 0.950 . S
H912 C935 0.950 . S
H913 C937 0.950 1_554 S
H914 C938 0.950 . S
H915 C939 0.951 . S
H916 C941 0.951 . S
H917 C943 0.950 . S
H918 C944 0.950 . S
H919 C946 0.950 . S
H920 C949 0.950 . S
H921 C950 0.950 . S
H922 C952 0.950 . S
H923 C953 0.950 . S
C924 H906 0.951 1_556 S
C924 C925 1.366 . S
C924 C926 1.388 . S
C925 C924 1.366 . S
C925 C929 1.385 . S
C926 H907 0.951 . S
C926 C924 1.388 . S
C926 C927 1.366 . S
C927 C926 1.366 . S
C927 C928 1.414 . S
C927 C930 1.499 . S
C928 H908 0.950 . S
C928 C927 1.414 . S
C928 C929 1.374 . S
C929 H909 0.950 . S
C929 C925 1.385 . S
C929 C928 1.374 . S
C930 C927 1.499 . S
C930 C931 1.373 . S
C930 C932 1.389 . S
C931 H910 0.950 . S
C931 C930 1.373 . S
C931 C947 1.377 . S
C932 C930 1.389 . S
C932 C933 1.524 . S
C932 C946 1.377 . S
C933 C932 1.524 . S
C933 C934 1.397 . S
C933 C938 1.363 . S
C934 H911 0.950 . S
C934 C933 1.397 . S
C934 C935 1.334 1_556 S
C935 H912 0.950 . S
C935 C934 1.334 1_554 S
C935 C936 1.287 . S
C936 C935 1.287 . S
C936 C937 1.524 1_554 S
C936 H955 0.913 . S
C937 H913 0.950 1_556 S
C937 C936 1.524 1_556 S
C937 C938 1.415 . S
C938 H914 0.950 . S
C938 C933 1.363 . S
C938 C937 1.415 . S
C939 H915 0.951 . S
C939 C940 1.366 . S
C939 C941 1.388 . S
C940 C939 1.366 . S
C940 C944 1.385 . S
C941 H916 0.951 . S
C941 C939 1.388 . S
C941 C942 1.366 . S
C942 C941 1.366 . S
C942 C943 1.414 . S
C942 C945 1.499 . S
C943 H917 0.950 . S
C943 C942 1.414 . S
C943 C944 1.374 . S
C944 H918 0.950 . S
C944 C940 1.385 . S
C944 C943 1.374 . S
C945 C942 1.499 . S
C945 C946 1.373 . S
C945 C947 1.389 . S
C946 H919 0.950 . S
C946 C932 1.377 . S
C946 C945 1.373 . S
C947 C931 1.377 . S
C947 C945 1.389 . S
C947 C948 1.524 . S
C948 C947 1.524 . S
C948 C949 1.397 . S
C948 C953 1.363 . S
C949 H920 0.950 . S
C949 C948 1.397 . S
C949 C950 1.334 . S
C950 H921 0.950 . S
C950 C949 1.334 . S
C950 C951 1.287 . S
C951 C950 1.287 . S
C951 C952 1.524 . S
C951 H954 0.999 . S
C952 H922 0.950 . S
C952 C951 1.524 . S
C952 C953 1.415 . S
C953 H923 0.950 . S
C953 C948 1.363 . S
C953 C952 1.415 . S
H954 C951 0.999 . S
H955 C936 0.913 . S
H956 C974 0.951 . S
H957 C976 0.951 . S
H958 C978 0.950 . S
H959 C979 0.950 . S
H960 C981 0.950 . S
H961 C984 0.950 . S
H962 C985 0.950 . S
H963 C987 0.950 . S
H964 C988 0.950 . S
H965 C989 0.951 . S
H966 C991 0.951 . S
H967 C993 0.950 . S
H968 C994 0.950 . S
H969 C996 0.950 . S
H970 C999 0.950 . S
H971 C1000 0.950 . S
H972 C1002 0.950 . S
H973 C1003 0.950 . S
C974 H956 0.951 . S
C974 C975 1.366 . S
C974 C976 1.388 . S
C975 C974 1.366 . S
C975 C979 1.385 . S
C976 H957 0.951 . S
C976 C974 1.388 . S
C976 C977 1.366 . S
C977 C976 1.366 . S
C977 C978 1.414 . S
C977 C980 1.499 . S
C978 H958 0.950 . S
C978 C977 1.414 . S
C978 C979 1.374 . S
C979 H959 0.950 . S
C979 C975 1.385 . S
C979 C978 1.374 . S
C980 C977 1.499 . S
C980 C981 1.373 . S
C980 C982 1.389 . S
C981 H960 0.950 . S
C981 C980 1.373 . S
C981 C997 1.377 . S
C982 C980 1.389 . S
C982 C983 1.524 . S
C982 C996 1.377 . S
C983 C982 1.524 . S
C983 C984 1.397 . S
C983 C988 1.363 . S
C984 H961 0.950 . S
C984 C983 1.397 . S
C984 C985 1.334 1_556 S
C985 H962 0.950 . S
C985 C984 1.334 1_554 S
C985 C986 1.287 . S
C986 C985 1.287 . S
C986 C987 1.524 1_554 S
C986 H1005 0.913 . S
C987 H963 0.950 . S
C987 C986 1.524 1_556 S
C987 C988 1.415 . S
C988 H964 0.950 . S
C988 C983 1.363 . S
C988 C987 1.415 . S
C989 H965 0.951 . S
C989 C990 1.366 . S
C989 C991 1.388 . S
C990 C989 1.366 . S
C990 C994 1.385 . S
C991 H966 0.951 . S
C991 C989 1.388 . S
C991 C992 1.366 . S
C992 C991 1.366 . S
C992 C993 1.414 . S
C992 C995 1.499 . S
C993 H967 0.950 . S
C993 C992 1.414 . S
C993 C994 1.374 . S
C994 H968 0.950 . S
C994 C990 1.385 . S
C994 C993 1.374 . S
C995 C992 1.499 . S
C995 C996 1.373 . S
C995 C997 1.389 . S
C996 H969 0.950 . S
C996 C982 1.377 . S
C996 C995 1.373 . S
C997 C981 1.377 . S
C997 C995 1.389 . S
C997 C998 1.524 . S
C998 C997 1.524 . S
C998 C999 1.397 . S
C998 C1003 1.363 . S
C999 H970 0.950 . S
C999 C998 1.397 . S
C999 C1000 1.334 . S
C1000 H971 0.950 . S
C1000 C999 1.334 . S
C1000 C1001 1.287 . S
C1001 C1000 1.287 . S
C1001 C1002 1.524 . S
C1001 H1004 0.999 . S
C1002 H972 0.950 . S
C1002 C1001 1.524 . S
C1002 C1003 1.415 . S
C1003 H973 0.950 . S
C1003 C998 1.363 . S
C1003 C1002 1.415 . S
H1004 C1001 0.999 . S
H1005 C986 0.913 . S
H1006 C1024 0.951 . S
H1007 C1026 0.951 . S
H1008 C1028 0.950 . S
H1009 C1029 0.950 . S
H1010 C1031 0.950 . S
H1011 C1034 0.950 . S
H1012 C1035 0.951 1_554 S
H1013 C1037 0.950 1_554 S
H1014 C1038 0.950 . S
H1015 C1039 0.951 . S
H1016 C1041 0.951 . S
H1017 C1043 0.950 . S
H1018 C1044 0.950 . S
H1019 C1046 0.950 . S
H1020 C1049 0.950 . S
H1021 C1050 0.950 . S
H1022 C1052 0.950 . S
H1023 C1053 0.950 . S
C1024 H1006 0.951 . S
C1024 C1025 1.366 . S
C1024 C1026 1.388 1_554 S
C1025 C1024 1.366 . S
C1025 C1029 1.378 1_554 S
C1026 H1007 0.951 . S
C1026 C1024 1.388 1_556 S
C1026 C1027 1.366 . S
C1027 C1026 1.366 . S
C1027 C1028 1.414 . S
C1027 C1030 1.499 . S
C1028 H1008 0.950 . S
C1028 C1027 1.414 . S
C1028 C1029 1.374 . S
C1029 H1009 0.950 . S
C1029 C1025 1.378 1_556 S
C1029 C1028 1.374 . S
C1030 C1027 1.499 . S
C1030 C1031 1.373 . S
C1030 C1032 1.389 . S
C1031 H1010 0.950 . S
C1031 C1030 1.373 . S
C1031 C1047 1.377 . S
C1032 C1030 1.389 . S
C1032 C1033 1.524 . S
C1032 C1046 1.377 . S
C1033 C1032 1.524 . S
C1033 C1034 1.397 . S
C1033 C1038 1.363 . S
C1034 H1011 0.950 . S
C1034 C1033 1.397 . S
C1034 C1035 1.355 . S
C1035 H1012 0.951 1_556 S
C1035 C1034 1.355 . S
C1035 C1036 1.279 1_556 S
C1036 C1035 1.279 1_554 S
C1036 C1037 1.524 1_554 S
C1036 H1055 0.914 1_655 S
C1037 H1013 0.950 1_556 S
C1037 C1036 1.524 1_556 S
C1037 C1038 1.415 . S
C1038 H1014 0.950 . S
C1038 C1033 1.363 . S
C1038 C1037 1.415 . S
C1039 H1015 0.951 . S
C1039 C1040 1.366 . S
C1039 C1041 1.388 . S
C1040 C1039 1.366 . S
C1040 C1044 1.385 . S
C1041 H1016 0.951 . S
C1041 C1039 1.388 . S
C1041 C1042 1.366 . S
C1042 C1041 1.366 . S
C1042 C1043 1.414 . S
C1042 C1045 1.499 . S
C1043 H1017 0.950 . S
C1043 C1042 1.414 . S
C1043 C1044 1.374 . S
C1044 H1018 0.950 . S
C1044 C1040 1.385 . S
C1044 C1043 1.374 . S
C1045 C1042 1.499 . S
C1045 C1046 1.373 . S
C1045 C1047 1.389 . S
C1046 H1019 0.950 . S
C1046 C1032 1.377 . S
C1046 C1045 1.373 . S
C1047 C1031 1.377 . S
C1047 C1045 1.389 . S
C1047 C1048 1.524 . S
C1048 C1047 1.524 . S
C1048 C1049 1.397 . S
C1048 C1053 1.363 . S
C1049 H1020 0.950 . S
C1049 C1048 1.397 . S
C1049 C1050 1.334 . S
C1050 H1021 0.950 . S
C1050 C1049 1.334 . S
C1050 C1051 1.287 . S
C1051 C1050 1.287 . S
C1051 C1052 1.524 . S
C1051 H1054 0.999 . S
C1052 H1022 0.950 . S
C1052 C1051 1.524 . S
C1052 C1053 1.415 . S
C1053 H1023 0.950 . S
C1053 C1048 1.363 . S
C1053 C1052 1.415 . S
H1054 C1051 0.999 . S
H1055 C1036 0.914 1_455 S
H1056 C1074 0.951 . S
H1057 C1076 0.951 . S
H1058 C1078 0.950 . S
H1059 C1079 0.950 . S
H1060 C1081 0.950 . S
H1061 C1084 0.950 . S
H1062 C1085 0.950 . S
H1063 C1087 0.950 . S
H1064 C1088 0.950 . S
H1065 C1089 0.951 . S
H1066 C1091 0.951 . S
H1067 C1093 0.950 . S
H1068 C1094 0.950 . S
H1069 C1096 0.950 . S
H1070 C1099 0.950 . S
H1071 C1100 0.950 . S
H1072 C1102 0.950 . S
H1073 C1103 0.950 . S
C1074 H1056 0.951 . S
C1074 C1075 1.366 . S
C1074 C1076 1.388 . S
C1075 C1074 1.366 . S
C1075 C1079 1.385 . S
C1076 H1057 0.951 . S
C1076 C1074 1.388 . S
C1076 C1077 1.366 . S
C1077 C1076 1.366 . S
C1077 C1078 1.414 . S
C1077 C1080 1.499 . S
C1078 H1058 0.950 . S
C1078 C1077 1.414 . S
C1078 C1079 1.374 . S
C1079 H1059 0.950 . S
C1079 C1075 1.385 . S
C1079 C1078 1.374 . S
C1080 C1077 1.499 . S
C1080 C1081 1.373 . S
C1080 C1082 1.389 . S
C1081 H1060 0.950 . S
C1081 C1080 1.373 . S
C1081 C1097 1.377 . S
C1082 C1080 1.389 . S
C1082 C1083 1.524 . S
C1082 C1096 1.377 . S
C1083 C1082 1.524 . S
C1083 C1084 1.397 . S
C1083 C1088 1.363 . S
C1084 H1061 0.950 . S
C1084 C1083 1.397 . S
C1084 C1085 1.334 . S
C1085 H1062 0.950 . S
C1085 C1084 1.334 . S
C1085 C1086 1.287 . S
C1086 C1085 1.287 . S
C1086 C1087 1.524 . S
C1086 H1105 0.913 . S
C1087 H1063 0.950 . S
C1087 C1086 1.524 . S
C1087 C1088 1.415 . S
C1088 H1064 0.950 . S
C1088 C1083 1.363 . S
C1088 C1087 1.415 . S
C1089 H1065 0.951 . S
C1089 C1090 1.366 . S
C1089 C1091 1.388 . S
C1090 C1089 1.366 . S
C1090 C1094 1.385 1_455 S
C1091 H1066 0.951 . S
C1091 C1089 1.388 . S
C1091 C1092 1.366 . S
C1092 C1091 1.366 . S
C1092 C1093 1.414 . S
C1092 C1095 1.499 . S
C1093 H1067 0.950 . S
C1093 C1092 1.414 . S
C1093 C1094 1.374 1_455 S
C1094 H1068 0.950 . S
C1094 C1090 1.385 1_655 S
C1094 C1093 1.374 1_655 S
C1095 C1092 1.499 . S
C1095 C1096 1.373 . S
C1095 C1097 1.389 . S
C1096 H1069 0.950 . S
C1096 C1082 1.377 . S
C1096 C1095 1.373 . S
C1097 C1081 1.377 . S
C1097 C1095 1.389 . S
C1097 C1098 1.524 . S
C1098 C1097 1.524 . S
C1098 C1099 1.397 . S
C1098 C1103 1.363 . S
C1099 H1070 0.950 . S
C1099 C1098 1.397 . S
C1099 C1100 1.334 . S
C1100 H1071 0.950 . S
C1100 C1099 1.334 . S
C1100 C1101 1.287 . S
C1101 C1100 1.287 . S
C1101 C1102 1.524 . S
C1101 H1104 0.999 . S
C1102 H1072 0.950 . S
C1102 C1101 1.524 . S
C1102 C1103 1.415 . S
C1103 H1073 0.950 . S
C1103 C1098 1.363 . S
C1103 C1102 1.415 . S
H1104 C1101 0.999 . S
H1105 C1086 0.913 . S
H1106 C1124 0.951 . S
H1107 C1126 0.951 . S
H1108 C1128 0.950 . S
H1109 C1129 0.950 . S
H1110 C1131 0.950 . S
H1111 C1134 0.950 . S
H1112 C1135 0.950 . S
H1113 C1137 0.950 . S
H1114 C1138 0.950 . S
H1115 C1139 0.951 . S
H1116 C1141 0.951 . S
H1117 C1143 0.950 . S
H1118 C1144 0.905 1_565 S
H1119 C1146 0.950 . S
H1120 C1149 0.950 . S
H1121 C1150 0.950 1_565 S
H1122 C1152 0.950 . S
H1123 C1153 0.950 . S
C1124 H1106 0.951 . S
C1124 C1125 1.366 . S
C1124 C1126 1.388 . S
C1125 C1124 1.366 . S
C1125 C1129 1.385 . S
C1126 H1107 0.951 . S
C1126 C1124 1.388 . S
C1126 C1127 1.366 . S
C1127 C1126 1.366 . S
C1127 C1128 1.414 . S
C1127 C1130 1.499 . S
C1128 H1108 0.950 . S
C1128 C1127 1.414 . S
C1128 C1129 1.374 . S
C1129 H1109 0.950 . S
C1129 C1125 1.385 . S
C1129 C1128 1.374 . S
C1130 C1127 1.499 . S
C1130 C1131 1.373 . S
C1130 C1132 1.389 . S
C1131 H1110 0.950 . S
C1131 C1130 1.373 . S
C1131 C1147 1.377 . S
C1132 C1130 1.389 . S
C1132 C1133 1.524 . S
C1132 C1146 1.377 . S
C1133 C1132 1.524 . S
C1133 C1134 1.397 . S
C1133 C1138 1.363 . S
C1134 H1111 0.950 . S
C1134 C1133 1.397 . S
C1134 C1135 1.334 . S
C1135 H1112 0.950 . S
C1135 C1134 1.334 . S
C1135 C1136 1.287 . S
C1136 C1135 1.287 . S
C1136 C1137 1.524 . S
C1136 H1155 0.913 . S
C1137 H1113 0.950 . S
C1137 C1136 1.524 . S
C1137 C1138 1.415 . S
C1138 H1114 0.950 . S
C1138 C1133 1.363 . S
C1138 C1137 1.415 . S
C1139 H1115 0.951 . S
C1139 C1140 1.366 . S
C1139 C1141 1.388 . S
C1140 C1139 1.366 . S
C1140 C1144 1.402 . S
C1141 H1116 0.951 . S
C1141 C1139 1.388 . S
C1141 C1142 1.366 . S
C1142 C1141 1.366 . S
C1142 C1143 1.414 . S
C1142 C1145 1.499 . S
C1143 H1117 0.950 . S
C1143 C1142 1.414 . S
C1143 C1144 1.404 . S
C1144 H1118 0.905 1_545 S
C1144 C1140 1.402 . S
C1144 C1143 1.404 . S
C1145 C1142 1.499 . S
C1145 C1146 1.373 . S
C1145 C1147 1.389 . S
C1146 H1119 0.950 . S
C1146 C1132 1.377 . S
C1146 C1145 1.373 . S
C1147 C1131 1.377 . S
C1147 C1145 1.389 . S
C1147 C1148 1.524 . S
C1148 C1147 1.524 . S
C1148 C1149 1.397 . S
C1148 C1153 1.363 . S
C1149 H1120 0.950 . S
C1149 C1148 1.397 . S
C1149 C1150 1.334 . S
C1150 H1121 0.950 1_545 S
C1150 C1149 1.334 . S
C1150 C1151 1.287 . S
C1151 C1150 1.287 . S
C1151 C1152 1.524 . S
C1151 H1154 0.999 . S
C1152 H1122 0.950 . S
C1152 C1151 1.524 . S
C1152 C1153 1.415 . S
C1153 H1123 0.950 . S
C1153 C1148 1.363 . S
C1153 C1152 1.415 . S
H1154 C1151 0.999 . S
H1155 C1136 0.913 . S
H1156 C1174 0.951 . S
H1157 C1176 0.951 . S
H1158 C1178 0.950 . S
H1159 C1179 0.950 . S
H1160 C1181 0.950 . S
H1161 C1184 0.950 . S
H1162 C1185 0.950 . S
H1163 C1187 0.950 . S
H1164 C1188 0.950 . S
H1165 C1189 0.951 . S
H1166 C1191 0.951 . S
H1167 C1193 0.950 . S
H1168 C1194 0.950 . S
H1169 C1196 0.950 . S
H1170 C1199 0.950 . S
H1171 C1200 0.950 . S
H1172 C1202 0.950 . S
H1173 C1203 0.950 . S
C1174 H1156 0.951 . S
C1174 C1175 1.366 . S
C1174 C1176 1.388 . S
C1175 C1174 1.366 . S
C1175 C1179 1.385 . S
C1176 H1157 0.951 . S
C1176 C1174 1.388 . S
C1176 C1177 1.366 . S
C1177 C1176 1.366 . S
C1177 C1178 1.414 . S
C1177 C1180 1.499 . S
C1178 H1158 0.950 . S
C1178 C1177 1.414 . S
C1178 C1179 1.374 . S
C1179 H1159 0.950 . S
C1179 C1175 1.385 . S
C1179 C1178 1.374 . S
C1180 C1177 1.499 . S
C1180 C1181 1.373 . S
C1180 C1182 1.389 . S
C1181 H1160 0.950 . S
C1181 C1180 1.373 . S
C1181 C1197 1.377 . S
C1182 C1180 1.389 . S
C1182 C1183 1.524 . S
C1182 C1196 1.377 . S
C1183 C1182 1.524 . S
C1183 C1184 1.397 . S
C1183 C1188 1.363 . S
C1184 H1161 0.950 . S
C1184 C1183 1.397 . S
C1184 C1185 1.334 . S
C1185 H1162 0.950 . S
C1185 C1184 1.334 . S
C1185 C1186 1.287 . S
C1186 C1185 1.287 . S
C1186 C1187 1.524 . S
C1186 H1205 0.913 . S
C1187 H1163 0.950 . S
C1187 C1186 1.524 . S
C1187 C1188 1.415 . S
C1188 H1164 0.950 . S
C1188 C1183 1.363 . S
C1188 C1187 1.415 . S
C1189 H1165 0.951 . S
C1189 C1190 1.366 . S
C1189 C1191 1.388 . S
C1190 C1189 1.366 . S
C1190 C1194 1.385 . S
C1191 H1166 0.951 . S
C1191 C1189 1.388 . S
C1191 C1192 1.366 . S
C1192 C1191 1.366 . S
C1192 C1193 1.414 . S
C1192 C1195 1.499 . S
C1193 H1167 0.950 . S
C1193 C1192 1.414 . S
C1193 C1194 1.374 . S
C1194 H1168 0.950 . S
C1194 C1190 1.385 . S
C1194 C1193 1.374 . S
C1195 C1192 1.499 . S
C1195 C1196 1.373 . S
C1195 C1197 1.389 . S
C1196 H1169 0.950 . S
C1196 C1182 1.377 . S
C1196 C1195 1.373 . S
C1197 C1181 1.377 . S
C1197 C1195 1.389 . S
C1197 C1198 1.524 . S
C1198 C1197 1.524 . S
C1198 C1199 1.397 . S
C1198 C1203 1.363 . S
C1199 H1170 0.950 . S
C1199 C1198 1.397 . S
C1199 C1200 1.334 . S
C1200 H1171 0.950 . S
C1200 C1199 1.334 . S
C1200 C1201 1.287 . S
C1201 C1200 1.287 . S
C1201 C1202 1.524 . S
C1201 H1204 0.999 . S
C1202 H1172 0.950 . S
C1202 C1201 1.524 . S
C1202 C1203 1.415 . S
C1203 H1173 0.950 . S
C1203 C1198 1.363 . S
C1203 C1202 1.415 . S
H1204 C1201 0.999 . S
H1205 C1186 0.913 . S
H1206 C1224 0.951 . S
H1207 C1226 0.951 . S
H1208 C1228 0.950 . S
H1209 C1229 0.950 . S
H1210 C1231 0.950 . S
H1211 C1234 0.950 . S
H1212 C1235 0.950 . S
H1213 C1237 0.950 . S
H1214 C1238 0.950 . S
H1215 C1239 0.951 . S
H1216 C1241 0.951 . S
H1217 C1243 0.950 . S
H1218 C1244 0.950 . S
H1219 C1246 0.950 . S
H1220 C1249 0.950 . S
H1221 C1250 0.950 . S
H1222 C1252 0.950 . S
H1223 C1253 0.950 . S
C1224 H1206 0.951 . S
C1224 C1225 1.366 . S
C1224 C1226 1.388 . S
C1225 C1224 1.366 . S
C1225 C1229 1.385 . S
C1226 H1207 0.951 . S
C1226 C1224 1.388 . S
C1226 C1227 1.366 . S
C1227 C1226 1.366 . S
C1227 C1228 1.414 . S
C1227 C1230 1.499 . S
C1228 H1208 0.950 . S
C1228 C1227 1.414 . S
C1228 C1229 1.374 . S
C1229 H1209 0.950 . S
C1229 C1225 1.385 . S
C1229 C1228 1.374 . S
C1230 C1227 1.499 . S
C1230 C1231 1.373 . S
C1230 C1232 1.389 . S
C1231 H1210 0.950 . S
C1231 C1230 1.373 . S
C1231 C1247 1.377 . S
C1232 C1230 1.389 . S
C1232 C1233 1.524 . S
C1232 C1246 1.377 . S
C1233 C1232 1.524 . S
C1233 C1234 1.397 . S
C1233 C1238 1.363 . S
C1234 H1211 0.950 . S
C1234 C1233 1.397 . S
C1234 C1235 1.334 . S
C1235 H1212 0.950 . S
C1235 C1234 1.334 . S
C1235 C1236 1.287 . S
C1236 C1235 1.287 . S
C1236 C1237 1.524 . S
C1236 H1255 0.913 . S
C1237 H1213 0.950 . S
C1237 C1236 1.524 . S
C1237 C1238 1.415 . S
C1238 H1214 0.950 . S
C1238 C1233 1.363 . S
C1238 C1237 1.415 . S
C1239 H1215 0.951 . S
C1239 C1240 1.366 . S
C1239 C1241 1.388 . S
C1240 C1239 1.366 . S
C1240 C1244 1.385 . S
C1241 H1216 0.951 . S
C1241 C1239 1.388 . S
C1241 C1242 1.366 . S
C1242 C1241 1.366 . S
C1242 C1243 1.414 . S
C1242 C1245 1.499 . S
C1243 H1217 0.950 . S
C1243 C1242 1.414 . S
C1243 C1244 1.374 . S
C1244 H1218 0.950 . S
C1244 C1240 1.385 . S
C1244 C1243 1.374 . S
C1245 C1242 1.499 . S
C1245 C1246 1.373 . S
C1245 C1247 1.389 . S
C1246 H1219 0.950 . S
C1246 C1232 1.377 . S
C1246 C1245 1.373 . S
C1247 C1231 1.377 . S
C1247 C1245 1.389 . S
C1247 C1248 1.524 . S
C1248 C1247 1.524 . S
C1248 C1249 1.397 . S
C1248 C1253 1.363 . S
C1249 H1220 0.950 . S
C1249 C1248 1.397 . S
C1249 C1250 1.334 . S
C1250 H1221 0.950 . S
C1250 C1249 1.334 . S
C1250 C1251 1.287 . S
C1251 C1250 1.287 . S
C1251 C1252 1.524 . S
C1251 H1254 0.999 . S
C1252 H1222 0.950 . S
C1252 C1251 1.524 . S
C1252 C1253 1.415 . S
C1253 H1223 0.950 . S
C1253 C1248 1.363 . S
C1253 C1252 1.415 . S
H1254 C1251 0.999 . S
H1255 C1236 0.913 . S
H1256 C1274 0.951 . S
H1257 C1276 0.951 . S
H1258 C1278 0.950 . S
H1259 C1279 0.950 . S
H1260 C1281 0.950 . S
H1261 C1284 0.950 . S
H1262 C1285 0.950 . S
H1263 C1287 0.950 . S
H1264 C1288 0.950 . S
H1265 C1289 0.951 . S
H1266 C1291 0.964 . S
H1267 C1293 0.950 . S
H1268 C1294 0.950 . S
H1269 C1296 0.950 . S
H1270 C1299 0.950 . S
H1271 C1300 0.950 . S
H1272 C1302 0.913 1_455 S
H1273 C1303 0.950 . S
C1274 H1256 0.951 . S
C1274 C1275 1.366 . S
C1274 C1276 1.388 . S
C1275 C1274 1.366 . S
C1275 C1279 1.385 . S
C1276 H1257 0.951 . S
C1276 C1274 1.388 . S
C1276 C1277 1.366 . S
C1277 C1276 1.366 . S
C1277 C1278 1.414 . S
C1277 C1280 1.499 . S
C1278 H1258 0.950 . S
C1278 C1277 1.414 . S
C1278 C1279 1.374 . S
C1279 H1259 0.950 . S
C1279 C1275 1.385 . S
C1279 C1278 1.374 . S
C1280 C1277 1.499 . S
C1280 C1281 1.373 . S
C1280 C1282 1.389 . S
C1281 H1260 0.950 . S
C1281 C1280 1.373 . S
C1281 C1297 1.377 . S
C1282 C1280 1.389 . S
C1282 C1283 1.524 . S
C1282 C1296 1.377 . S
C1283 C1282 1.524 . S
C1283 C1284 1.397 . S
C1283 C1288 1.363 . S
C1284 H1261 0.950 . S
C1284 C1283 1.397 . S
C1284 C1285 1.334 . S
C1285 H1262 0.950 . S
C1285 C1284 1.334 . S
C1285 C1286 1.287 . S
C1286 C1285 1.287 . S
C1286 C1287 1.524 . S
C1286 H1305 0.913 . S
C1287 H1263 0.950 . S
C1287 C1286 1.524 . S
C1287 C1288 1.415 . S
C1288 H1264 0.950 . S
C1288 C1283 1.363 . S
C1288 C1287 1.415 . S
C1289 H1265 0.951 . S
C1289 C1290 1.366 . S
C1289 C1291 1.405 . S
C1290 C1289 1.366 . S
C1290 C1294 1.385 1_455 S
C1291 H1266 0.964 . S
C1291 C1289 1.405 . S
C1291 C1292 1.336 1_455 S
C1292 C1291 1.336 1_655 S
C1292 C1293 1.414 . S
C1292 C1295 1.499 . S
C1293 H1267 0.950 . S
C1293 C1292 1.414 . S
C1293 C1294 1.374 . S
C1294 H1268 0.950 . S
C1294 C1290 1.385 1_655 S
C1294 C1293 1.374 . S
C1295 C1292 1.499 . S
C1295 C1296 1.373 . S
C1295 C1297 1.389 . S
C1296 H1269 0.950 . S
C1296 C1282 1.377 . S
C1296 C1295 1.373 . S
C1297 C1281 1.377 . S
C1297 C1295 1.389 . S
C1297 C1298 1.524 . S
C1298 C1297 1.524 . S
C1298 C1299 1.397 . S
C1298 C1303 1.363 . S
C1299 H1270 0.950 . S
C1299 C1298 1.397 . S
C1299 C1300 1.334 . S
C1300 H1271 0.950 . S
C1300 C1299 1.334 . S
C1300 C1301 1.287 . S
C1301 C1300 1.287 . S
C1301 C1302 1.524 . S
C1301 H1304 0.999 . S
C1302 H1272 0.913 1_655 S
C1302 C1301 1.524 . S
C1302 C1303 1.415 . S
C1303 H1273 0.950 . S
C1303 C1298 1.363 . S
C1303 C1302 1.415 . S
H1304 C1301 0.999 . S
H1305 C1286 0.913 . S
H1306 C1324 0.951 . S
H1307 C1326 0.951 . S
H1308 C1328 0.950 . S
H1309 C1329 0.950 . S
H1310 C1331 0.950 . S
H1311 C1334 0.950 . S
H1312 C1335 0.950 . S
H1313 C1337 0.950 . S
H1314 C1338 0.950 . S
H1315 C1339 0.951 . S
H1316 C1341 0.951 . S
H1317 C1343 0.950 . S
H1318 C1344 0.950 . S
H1319 C1346 0.950 . S
H1320 C1349 0.905 1_565 S
H1321 C1350 0.950 . S
H1322 C1352 0.950 . S
H1323 C1353 0.950 . S
C1324 H1306 0.951 . S
C1324 C1325 1.366 . S
C1324 C1326 1.388 . S
C1325 C1324 1.366 . S
C1325 C1329 1.385 . S
C1326 H1307 0.951 . S
C1326 C1324 1.388 . S
C1326 C1327 1.366 . S
C1327 C1326 1.366 . S
C1327 C1328 1.414 . S
C1327 C1330 1.499 . S
C1328 H1308 0.950 . S
C1328 C1327 1.414 . S
C1328 C1329 1.374 . S
C1329 H1309 0.950 . S
C1329 C1325 1.385 . S
C1329 C1328 1.374 . S
C1330 C1327 1.499 . S
C1330 C1331 1.373 . S
C1330 C1332 1.389 . S
C1331 H1310 0.950 . S
C1331 C1330 1.373 . S
C1331 C1347 1.377 . S
C1332 C1330 1.389 . S
C1332 C1333 1.524 . S
C1332 C1346 1.377 . S
C1333 C1332 1.524 . S
C1333 C1334 1.397 . S
C1333 C1338 1.363 . S
C1334 H1311 0.950 . S
C1334 C1333 1.397 . S
C1334 C1335 1.334 . S
C1335 H1312 0.950 . S
C1335 C1334 1.334 . S
C1335 C1336 1.287 . S
C1336 C1335 1.287 . S
C1336 C1337 1.524 . S
C1336 H1355 0.913 . S
C1337 H1313 0.950 . S
C1337 C1336 1.524 . S
C1337 C1338 1.415 . S
C1338 H1314 0.950 . S
C1338 C1333 1.363 . S
C1338 C1337 1.415 . S
C1339 H1315 0.951 . S
C1339 C1340 1.366 . S
C1339 C1341 1.388 . S
C1340 C1339 1.366 . S
C1340 C1344 1.385 1_545 S
C1341 H1316 0.951 . S
C1341 C1339 1.388 . S
C1341 C1342 1.366 1_545 S
C1342 C1341 1.366 1_565 S
C1342 C1343 1.414 . S
C1342 C1345 1.499 . S
C1343 H1317 0.950 . S
C1343 C1342 1.414 . S
C1343 C1344 1.374 . S
C1344 H1318 0.950 . S
C1344 C1340 1.385 1_565 S
C1344 C1343 1.374 . S
C1345 C1342 1.499 . S
C1345 C1346 1.373 . S
C1345 C1347 1.389 . S
C1346 H1319 0.950 . S
C1346 C1332 1.377 . S
C1346 C1345 1.373 . S
C1347 C1331 1.377 . S
C1347 C1345 1.389 . S
C1347 C1348 1.524 1_565 S
C1348 C1347 1.524 1_545 S
C1348 C1349 1.399 . S
C1348 C1353 1.363 . S
C1349 H1320 0.905 1_545 S
C1349 C1348 1.399 . S
C1349 C1350 1.378 . S
C1350 H1321 0.950 . S
C1350 C1349 1.378 . S
C1350 C1351 1.287 . S
C1351 C1350 1.287 . S
C1351 C1352 1.524 . S
C1351 H1354 0.999 . S
C1352 H1322 0.950 . S
C1352 C1351 1.524 . S
C1352 C1353 1.415 . S
C1353 H1323 0.950 . S
C1353 C1348 1.363 . S
C1353 C1352 1.415 . S
H1354 C1351 0.999 . S
H1355 C1336 0.913 . S
H1356 C1374 0.951 . S
H1357 C1376 0.951 . S
H1358 C1378 0.950 . S
H1359 C1379 0.950 . S
H1360 C1381 0.950 . S
H1361 C1384 0.950 . S
H1362 C1385 0.950 . S
H1363 C1387 0.950 . S
H1364 C1388 0.950 . S
H1365 C1389 0.951 . S
H1366 C1391 0.951 . S
H1367 C1393 0.950 . S
H1368 C1394 0.950 . S
H1369 C1396 0.950 . S
H1370 C1399 0.950 . S
H1371 C1400 0.950 . S
H1372 C1402 0.950 . S
H1373 C1403 0.950 . S
C1374 H1356 0.951 . S
C1374 C1375 1.366 . S
C1374 C1376 1.388 . S
C1375 C1374 1.366 . S
C1375 C1379 1.385 . S
C1376 H1357 0.951 . S
C1376 C1374 1.388 . S
C1376 C1377 1.366 . S
C1377 C1376 1.366 . S
C1377 C1378 1.414 . S
C1377 C1380 1.499 . S
C1378 H1358 0.950 . S
C1378 C1377 1.414 . S
C1378 C1379 1.374 . S
C1379 H1359 0.950 . S
C1379 C1375 1.385 . S
C1379 C1378 1.374 . S
C1380 C1377 1.499 . S
C1380 C1381 1.373 . S
C1380 C1382 1.389 . S
C1381 H1360 0.950 . S
C1381 C1380 1.373 . S
C1381 C1397 1.377 . S
C1382 C1380 1.389 . S
C1382 C1383 1.524 . S
C1382 C1396 1.377 . S
C1383 C1382 1.524 . S
C1383 C1384 1.397 . S
C1383 C1388 1.363 . S
C1384 H1361 0.950 . S
C1384 C1383 1.397 . S
C1384 C1385 1.334 . S
C1385 H1362 0.950 . S
C1385 C1384 1.334 . S
C1385 C1386 1.287 . S
C1386 C1385 1.287 . S
C1386 C1387 1.524 . S
C1386 H1405 0.913 . S
C1387 H1363 0.950 . S
C1387 C1386 1.524 . S
C1387 C1388 1.415 . S
C1388 H1364 0.950 . S
C1388 C1383 1.363 . S
C1388 C1387 1.415 . S
C1389 H1365 0.951 . S
C1389 C1390 1.366 . S
C1389 C1391 1.388 . S
C1390 C1389 1.366 . S
C1390 C1394 1.385 . S
C1391 H1366 0.951 . S
C1391 C1389 1.388 . S
C1391 C1392 1.366 . S
C1392 C1391 1.366 . S
C1392 C1393 1.414 . S
C1392 C1395 1.499 . S
C1393 H1367 0.950 . S
C1393 C1392 1.414 . S
C1393 C1394 1.374 . S
C1394 H1368 0.950 . S
C1394 C1390 1.385 . S
C1394 C1393 1.374 . S
C1395 C1392 1.499 . S
C1395 C1396 1.373 . S
C1395 C1397 1.389 . S
C1396 H1369 0.950 . S
C1396 C1382 1.377 . S
C1396 C1395 1.373 . S
C1397 C1381 1.377 . S
C1397 C1395 1.389 . S
C1397 C1398 1.524 . S
C1398 C1397 1.524 . S
C1398 C1399 1.397 . S
C1398 C1403 1.363 . S
C1399 H1370 0.950 . S
C1399 C1398 1.397 . S
C1399 C1400 1.334 . S
C1400 H1371 0.950 . S
C1400 C1399 1.334 . S
C1400 C1401 1.287 . S
C1401 C1400 1.287 . S
C1401 C1402 1.524 . S
C1401 H1404 0.999 . S
C1402 H1372 0.950 . S
C1402 C1401 1.524 . S
C1402 C1403 1.415 . S
C1403 H1373 0.950 . S
C1403 C1398 1.363 . S
C1403 C1402 1.415 . S
H1404 C1401 0.999 . S
H1405 C1386 0.913 . S
H1406 C1424 0.951 . S
H1407 C1426 0.951 . S
H1408 C1428 0.950 . S
H1409 C1429 0.950 . S
H1410 C1431 0.950 . S
H1411 C1434 0.950 . S
H1412 C1435 0.950 . S
H1413 C1437 0.950 . S
H1414 C1438 0.950 . S
H1415 C1439 0.951 . S
H1416 C1441 0.951 . S
H1417 C1443 0.950 . S
H1418 C1444 0.950 . S
H1419 C1446 0.950 . S
H1420 C1449 0.950 . S
H1421 C1450 0.950 . S
H1422 C1452 0.950 . S
H1423 C1453 0.950 . S
C1424 H1406 0.951 . S
C1424 C1425 1.366 . S
C1424 C1426 1.388 . S
C1425 C1424 1.366 . S
C1425 C1429 1.385 . S
C1426 H1407 0.951 . S
C1426 C1424 1.388 . S
C1426 C1427 1.366 . S
C1427 C1426 1.366 . S
C1427 C1428 1.414 . S
C1427 C1430 1.499 . S
C1428 H1408 0.950 . S
C1428 C1427 1.414 . S
C1428 C1429 1.374 . S
C1429 H1409 0.950 . S
C1429 C1425 1.385 . S
C1429 C1428 1.374 . S
C1430 C1427 1.499 . S
C1430 C1431 1.373 . S
C1430 C1432 1.389 . S
C1431 H1410 0.950 . S
C1431 C1430 1.373 . S
C1431 C1447 1.377 . S
C1432 C1430 1.389 . S
C1432 C1433 1.524 . S
C1432 C1446 1.377 . S
C1433 C1432 1.524 . S
C1433 C1434 1.397 . S
C1433 C1438 1.363 . S
C1434 H1411 0.950 . S
C1434 C1433 1.397 . S
C1434 C1435 1.334 . S
C1435 H1412 0.950 . S
C1435 C1434 1.334 . S
C1435 C1436 1.287 . S
C1436 C1435 1.287 . S
C1436 C1437 1.524 . S
C1436 H1455 0.913 . S
C1437 H1413 0.950 . S
C1437 C1436 1.524 . S
C1437 C1438 1.415 . S
C1438 H1414 0.950 . S
C1438 C1433 1.363 . S
C1438 C1437 1.415 . S
C1439 H1415 0.951 . S
C1439 C1440 1.366 . S
C1439 C1441 1.388 . S
C1440 C1439 1.366 . S
C1440 C1444 1.385 . S
C1441 H1416 0.951 . S
C1441 C1439 1.388 . S
C1441 C1442 1.366 . S
C1442 C1441 1.366 . S
C1442 C1443 1.414 . S
C1442 C1445 1.499 . S
C1443 H1417 0.950 . S
C1443 C1442 1.414 . S
C1443 C1444 1.374 . S
C1444 H1418 0.950 . S
C1444 C1440 1.385 . S
C1444 C1443 1.374 . S
C1445 C1442 1.499 . S
C1445 C1446 1.373 . S
C1445 C1447 1.389 . S
C1446 H1419 0.950 . S
C1446 C1432 1.377 . S
C1446 C1445 1.373 . S
C1447 C1431 1.377 . S
C1447 C1445 1.389 . S
C1447 C1448 1.524 . S
C1448 C1447 1.524 . S
C1448 C1449 1.397 . S
C1448 C1453 1.363 . S
C1449 H1420 0.950 . S
C1449 C1448 1.397 . S
C1449 C1450 1.334 . S
C1450 H1421 0.950 . S
C1450 C1449 1.334 . S
C1450 C1451 1.287 . S
C1451 C1450 1.287 . S
C1451 C1452 1.524 . S
C1451 H1454 0.999 . S
C1452 H1422 0.950 . S
C1452 C1451 1.524 . S
C1452 C1453 1.415 . S
C1453 H1423 0.950 . S
C1453 C1448 1.363 . S
C1453 C1452 1.415 . S
H1454 C1451 0.999 . S
H1455 C1436 0.913 . S
H1456 C1474 0.951 . S
H1457 C1476 0.951 . S
H1458 C1478 0.950 . S
H1459 C1479 0.950 . S
H1460 C1481 0.950 . S
H1461 C1484 0.950 . S
H1462 C1485 0.950 . S
H1463 C1487 0.950 . S
H1464 C1488 0.950 . S
H1465 C1489 0.951 . S
H1466 C1491 0.951 . S
H1467 C1493 0.950 . S
H1468 C1494 0.950 . S
H1469 C1496 0.950 . S
H1470 C1499 0.950 . S
H1471 C1500 0.950 . S
H1472 C1502 0.950 . S
H1473 C1503 0.950 . S
C1474 H1456 0.951 . S
C1474 C1475 1.366 . S
C1474 C1476 1.388 . S
C1475 C1474 1.366 . S
C1475 C1479 1.385 . S
C1476 H1457 0.951 . S
C1476 C1474 1.388 . S
C1476 C1477 1.366 . S
C1477 C1476 1.366 . S
C1477 C1478 1.414 . S
C1477 C1480 1.499 . S
C1478 H1458 0.950 . S
C1478 C1477 1.414 . S
C1478 C1479 1.374 . S
C1479 H1459 0.950 . S
C1479 C1475 1.385 . S
C1479 C1478 1.374 . S
C1480 C1477 1.499 . S
C1480 C1481 1.373 . S
C1480 C1482 1.389 . S
C1481 H1460 0.950 . S
C1481 C1480 1.373 . S
C1481 C1497 1.377 . S
C1482 C1480 1.389 . S
C1482 C1483 1.524 . S
C1482 C1496 1.377 . S
C1483 C1482 1.524 . S
C1483 C1484 1.397 . S
C1483 C1488 1.363 . S
C1484 H1461 0.950 . S
C1484 C1483 1.397 . S
C1484 C1485 1.334 . S
C1485 H1462 0.950 . S
C1485 C1484 1.334 . S
C1485 C1486 1.287 . S
C1486 C1485 1.287 . S
C1486 C1487 1.524 . S
C1486 H1505 0.913 . S
C1487 H1463 0.950 . S
C1487 C1486 1.524 . S
C1487 C1488 1.415 . S
C1488 H1464 0.950 . S
C1488 C1483 1.363 . S
C1488 C1487 1.415 . S
C1489 H1465 0.951 . S
C1489 C1490 1.366 . S
C1489 C1491 1.388 . S
C1490 C1489 1.366 . S
C1490 C1494 1.385 . S
C1491 H1466 0.951 . S
C1491 C1489 1.388 . S
C1491 C1492 1.366 . S
C1492 C1491 1.366 . S
C1492 C1493 1.414 . S
C1492 C1495 1.499 . S
C1493 H1467 0.950 . S
C1493 C1492 1.414 . S
C1493 C1494 1.374 . S
C1494 H1468 0.950 . S
C1494 C1490 1.385 . S
C1494 C1493 1.374 . S
C1495 C1492 1.499 . S
C1495 C1496 1.373 . S
C1495 C1497 1.389 . S
C1496 H1469 0.950 . S
C1496 C1482 1.377 . S
C1496 C1495 1.373 . S
C1497 C1481 1.377 . S
C1497 C1495 1.389 . S
C1497 C1498 1.524 . S
C1498 C1497 1.524 . S
C1498 C1499 1.397 . S
C1498 C1503 1.363 . S
C1499 H1470 0.950 . S
C1499 C1498 1.397 . S
C1499 C1500 1.334 . S
C1500 H1471 0.950 . S
C1500 C1499 1.334 . S
C1500 C1501 1.287 . S
C1501 C1500 1.287 . S
C1501 C1502 1.524 1_455 S
C1501 H1504 0.999 1_455 S
C1502 H1472 0.950 . S
C1502 C1501 1.524 1_655 S
C1502 C1503 1.415 1_655 S
C1503 H1473 0.950 . S
C1503 C1498 1.363 . S
C1503 C1502 1.415 1_455 S
H1504 C1501 0.999 1_655 S
H1505 C1486 0.913 . S
H1506 C1524 0.951 . S
H1507 C1526 0.951 . S
H1508 C1528 0.950 . S
H1509 C1529 0.950 . S
H1510 C1531 0.950 . S
H1511 C1534 0.950 . S
H1512 C1535 0.950 . S
H1513 C1537 0.950 . S
H1514 C1538 0.950 . S
H1515 C1539 0.951 . S
H1516 C1541 0.951 . S
H1517 C1543 0.950 . S
H1518 C1544 0.950 . S
H1519 C1546 0.950 . S
H1520 C1549 0.950 . S
H1521 C1550 0.950 . S
H1522 C1552 0.950 . S
H1523 C1553 0.950 . S
C1524 H1506 0.951 . S
C1524 C1525 1.366 . S
C1524 C1526 1.388 . S
C1525 C1524 1.366 . S
C1525 C1529 1.385 . S
C1526 H1507 0.951 . S
C1526 C1524 1.388 . S
C1526 C1527 1.366 . S
C1527 C1526 1.366 . S
C1527 C1528 1.414 . S
C1527 C1530 1.499 . S
C1528 H1508 0.950 . S
C1528 C1527 1.414 . S
C1528 C1529 1.374 . S
C1529 H1509 0.950 . S
C1529 C1525 1.385 . S
C1529 C1528 1.374 . S
C1530 C1527 1.499 . S
C1530 C1531 1.373 . S
C1530 C1532 1.389 . S
C1531 H1510 0.950 . S
C1531 C1530 1.373 . S
C1531 C1547 1.377 . S
C1532 C1530 1.389 . S
C1532 C1533 1.524 . S
C1532 C1546 1.377 . S
C1533 C1532 1.524 . S
C1533 C1534 1.397 . S
C1533 C1538 1.363 . S
C1534 H1511 0.950 . S
C1534 C1533 1.397 . S
C1534 C1535 1.334 . S
C1535 H1512 0.950 . S
C1535 C1534 1.334 . S
C1535 C1536 1.287 . S
C1536 C1535 1.287 . S
C1536 C1537 1.524 . S
C1536 H1555 0.913 . S
C1537 H1513 0.950 . S
C1537 C1536 1.524 . S
C1537 C1538 1.415 . S
C1538 H1514 0.950 . S
C1538 C1533 1.363 . S
C1538 C1537 1.415 . S
C1539 H1515 0.951 . S
C1539 C1540 1.366 . S
C1539 C1541 1.388 . S
C1540 C1539 1.366 . S
C1540 C1544 1.385 . S
C1541 H1516 0.951 . S
C1541 C1539 1.388 . S
C1541 C1542 1.366 . S
C1542 C1541 1.366 . S
C1542 C1543 1.414 . S
C1542 C1545 1.499 . S
C1543 H1517 0.950 . S
C1543 C1542 1.414 . S
C1543 C1544 1.374 . S
C1544 H1518 0.950 . S
C1544 C1540 1.385 . S
C1544 C1543 1.374 . S
C1545 C1542 1.499 . S
C1545 C1546 1.373 . S
C1545 C1547 1.389 . S
C1546 H1519 0.950 . S
C1546 C1532 1.377 . S
C1546 C1545 1.373 . S
C1547 C1531 1.377 . S
C1547 C1545 1.389 . S
C1547 C1548 1.524 . S
C1548 C1547 1.524 . S
C1548 C1549 1.397 . S
C1548 C1553 1.363 . S
C1549 H1520 0.950 . S
C1549 C1548 1.397 . S
C1549 C1550 1.334 . S
C1550 H1521 0.950 . S
C1550 C1549 1.334 . S
C1550 C1551 1.287 . S
C1551 C1550 1.287 . S
C1551 C1552 1.524 . S
C1551 H1554 0.999 . S
C1552 H1522 0.950 . S
C1552 C1551 1.524 . S
C1552 C1553 1.415 . S
C1553 H1523 0.950 . S
C1553 C1548 1.363 . S
C1553 C1552 1.415 . S
H1554 C1551 0.999 . S
H1555 C1536 0.913 . S
H1556 C1574 0.951 . S
H1557 C1576 0.951 . S
H1558 C1578 0.950 . S
H1559 C1579 0.950 . S
H1560 C1581 0.950 . S
H1561 C1584 0.950 . S
H1562 C1585 0.950 . S
H1563 C1587 0.950 . S
H1564 C1588 0.950 . S
H1565 C1589 0.951 . S
H1566 C1591 0.951 . S
H1567 C1593 0.950 . S
H1568 C1594 0.950 . S
H1569 C1596 0.950 . S
H1570 C1599 0.950 . S
H1571 C1600 0.950 . S
H1572 C1602 0.950 . S
H1573 C1603 0.950 . S
C1574 H1556 0.951 . S
C1574 C1575 1.366 . S
C1574 C1576 1.388 . S
C1575 C1574 1.366 . S
C1575 C1579 1.385 . S
C1576 H1557 0.951 . S
C1576 C1574 1.388 . S
C1576 C1577 1.366 . S
C1577 C1576 1.366 . S
C1577 C1578 1.414 . S
C1577 C1580 1.499 . S
C1578 H1558 0.950 . S
C1578 C1577 1.414 . S
C1578 C1579 1.374 . S
C1579 H1559 0.950 . S
C1579 C1575 1.385 . S
C1579 C1578 1.374 . S
C1580 C1577 1.499 . S
C1580 C1581 1.373 . S
C1580 C1582 1.389 . S
C1581 H1560 0.950 . S
C1581 C1580 1.373 . S
C1581 C1597 1.377 . S
C1582 C1580 1.389 . S
C1582 C1583 1.524 . S
C1582 C1596 1.377 . S
C1583 C1582 1.524 . S
C1583 C1584 1.397 . S
C1583 C1588 1.363 . S
C1584 H1561 0.950 . S
C1584 C1583 1.397 . S
C1584 C1585 1.334 . S
C1585 H1562 0.950 . S
C1585 C1584 1.334 . S
C1585 C1586 1.287 . S
C1586 C1585 1.287 . S
C1586 C1587 1.524 . S
C1586 H1605 0.913 . S
C1587 H1563 0.950 . S
C1587 C1586 1.524 . S
C1587 C1588 1.415 . S
C1588 H1564 0.950 . S
C1588 C1583 1.363 . S
C1588 C1587 1.415 . S
C1589 H1565 0.951 . S
C1589 C1590 1.366 . S
C1589 C1591 1.388 . S
C1590 C1589 1.366 . S
C1590 C1594 1.385 . S
C1591 H1566 0.951 . S
C1591 C1589 1.388 . S
C1591 C1592 1.366 . S
C1592 C1591 1.366 . S
C1592 C1593 1.414 . S
C1592 C1595 1.499 . S
C1593 H1567 0.950 . S
C1593 C1592 1.414 . S
C1593 C1594 1.374 . S
C1594 H1568 0.950 . S
C1594 C1590 1.385 . S
C1594 C1593 1.374 . S
C1595 C1592 1.499 . S
C1595 C1596 1.373 . S
C1595 C1597 1.389 . S
C1596 H1569 0.950 . S
C1596 C1582 1.377 . S
C1596 C1595 1.373 . S
C1597 C1581 1.377 . S
C1597 C1595 1.389 . S
C1597 C1598 1.524 . S
C1598 C1597 1.524 . S
C1598 C1599 1.397 . S
C1598 C1603 1.363 . S
C1599 H1570 0.950 . S
C1599 C1598 1.397 . S
C1599 C1600 1.334 . S
C1600 H1571 0.950 . S
C1600 C1599 1.334 . S
C1600 C1601 1.287 . S
C1601 C1600 1.287 . S
C1601 C1602 1.524 . S
C1601 H1604 0.999 . S
C1602 H1572 0.950 . S
C1602 C1601 1.524 . S
C1602 C1603 1.415 . S
C1603 H1573 0.950 . S
C1603 C1598 1.363 . S
C1603 C1602 1.415 . S
H1604 C1601 0.999 . S
H1605 C1586 0.913 . S
H1606 C1624 0.951 . S
H1607 C1626 0.951 . S
H1608 C1628 0.950 . S
H1609 C1629 0.950 . S
H1610 C1631 0.950 . S
H1611 C1634 0.950 . S
H1612 C1635 0.950 . S
H1613 C1637 0.950 . S
H1614 C1638 0.950 . S
H1615 C1639 0.951 . S
H1616 C1641 0.951 . S
H1617 C1643 0.950 . S
H1618 C1644 0.950 . S
H1619 C1646 0.950 . S
H1620 C1649 0.950 . S
H1621 C1650 0.950 . S
H1622 C1652 0.950 . S
H1623 C1653 0.950 . S
C1624 H1606 0.951 . S
C1624 C1625 1.366 . S
C1624 C1626 1.388 . S
C1625 C1624 1.366 . S
C1625 C1629 1.385 . S
C1626 H1607 0.951 . S
C1626 C1624 1.388 . S
C1626 C1627 1.366 . S
C1627 C1626 1.366 . S
C1627 C1628 1.414 . S
C1627 C1630 1.499 . S
C1628 H1608 0.950 . S
C1628 C1627 1.414 . S
C1628 C1629 1.374 . S
C1629 H1609 0.950 . S
C1629 C1625 1.385 . S
C1629 C1628 1.374 . S
C1630 C1627 1.499 . S
C1630 C1631 1.373 . S
C1630 C1632 1.389 . S
C1631 H1610 0.950 . S
C1631 C1630 1.373 . S
C1631 C1647 1.377 . S
C1632 C1630 1.389 . S
C1632 C1633 1.524 . S
C1632 C1646 1.377 . S
C1633 C1632 1.524 . S
C1633 C1634 1.397 . S
C1633 C1638 1.363 . S
C1634 H1611 0.950 . S
C1634 C1633 1.397 . S
C1634 C1635 1.334 . S
C1635 H1612 0.950 . S
C1635 C1634 1.334 . S
C1635 C1636 1.287 . S
C1636 C1635 1.287 . S
C1636 C1637 1.524 . S
C1636 H1655 0.913 . S
C1637 H1613 0.950 . S
C1637 C1636 1.524 . S
C1637 C1638 1.415 . S
C1638 H1614 0.950 . S
C1638 C1633 1.363 . S
C1638 C1637 1.415 . S
C1639 H1615 0.951 . S
C1639 C1640 1.366 . S
C1639 C1641 1.388 . S
C1640 C1639 1.366 . S
C1640 C1644 1.385 . S
C1641 H1616 0.951 . S
C1641 C1639 1.388 . S
C1641 C1642 1.366 . S
C1642 C1641 1.366 . S
C1642 C1643 1.414 . S
C1642 C1645 1.499 . S
C1643 H1617 0.950 . S
C1643 C1642 1.414 . S
C1643 C1644 1.374 . S
C1644 H1618 0.950 . S
C1644 C1640 1.385 . S
C1644 C1643 1.374 . S
C1645 C1642 1.499 . S
C1645 C1646 1.373 . S
C1645 C1647 1.389 . S
C1646 H1619 0.950 . S
C1646 C1632 1.377 . S
C1646 C1645 1.373 . S
C1647 C1631 1.377 . S
C1647 C1645 1.389 . S
C1647 C1648 1.524 . S
C1648 C1647 1.524 . S
C1648 C1649 1.397 . S
C1648 C1653 1.363 . S
C1649 H1620 0.950 . S
C1649 C1648 1.397 . S
C1649 C1650 1.334 . S
C1650 H1621 0.950 . S
C1650 C1649 1.334 . S
C1650 C1651 1.287 . S
C1651 C1650 1.287 . S
C1651 C1652 1.524 . S
C1651 H1654 0.999 . S
C1652 H1622 0.950 . S
C1652 C1651 1.524 . S
C1652 C1653 1.415 . S
C1653 H1623 0.950 . S
C1653 C1648 1.363 . S
C1653 C1652 1.415 . S
H1654 C1651 0.999 . S
H1655 C1636 0.913 . S
H1656 C1674 0.951 . S
H1657 C1676 0.951 . S
H1658 C1678 0.950 . S
H1659 C1679 0.950 . S
H1660 C1681 0.950 . S
H1661 C1684 0.950 . S
H1662 C1685 0.950 . S
H1663 C1687 0.950 . S
H1664 C1688 0.950 . S
H1665 C1689 0.951 1_455 S
H1666 C1691 0.951 . S
H1667 C1693 0.950 . S
H1668 C1694 0.950 . S
H1669 C1696 0.950 . S
H1670 C1699 0.950 . S
H1671 C1700 0.950 . S
H1672 C1702 0.950 . S
H1673 C1703 0.950 . S
C1674 H1656 0.951 . S
C1674 C1675 1.366 . S
C1674 C1676 1.388 . S
C1675 C1674 1.366 . S
C1675 C1679 1.385 . S
C1676 H1657 0.951 . S
C1676 C1674 1.388 . S
C1676 C1677 1.366 . S
C1677 C1676 1.366 . S
C1677 C1678 1.414 . S
C1677 C1680 1.499 . S
C1678 H1658 0.950 . S
C1678 C1677 1.414 . S
C1678 C1679 1.374 . S
C1679 H1659 0.950 . S
C1679 C1675 1.385 . S
C1679 C1678 1.374 . S
C1680 C1677 1.499 . S
C1680 C1681 1.373 . S
C1680 C1682 1.389 . S
C1681 H1660 0.950 . S
C1681 C1680 1.373 . S
C1681 C1697 1.377 . S
C1682 C1680 1.389 . S
C1682 C1683 1.524 . S
C1682 C1696 1.377 . S
C1683 C1682 1.524 . S
C1683 C1684 1.397 . S
C1683 C1688 1.363 . S
C1684 H1661 0.950 . S
C1684 C1683 1.397 . S
C1684 C1685 1.334 . S
C1685 H1662 0.950 . S
C1685 C1684 1.334 . S
C1685 C1686 1.287 . S
C1686 C1685 1.287 . S
C1686 C1687 1.524 . S
C1686 H1705 0.913 . S
C1687 H1663 0.950 . S
C1687 C1686 1.524 . S
C1687 C1688 1.415 . S
C1688 H1664 0.950 . S
C1688 C1683 1.363 . S
C1688 C1687 1.415 . S
C1689 H1665 0.951 1_655 S
C1689 C1690 1.366 . S
C1689 C1691 1.388 . S
C1690 C1689 1.366 . S
C1690 C1694 1.385 . S
C1691 H1666 0.951 . S
C1691 C1689 1.388 . S
C1691 C1692 1.366 . S
C1692 C1691 1.366 . S
C1692 C1693 1.414 . S
C1692 C1695 1.499 . S
C1693 H1667 0.950 . S
C1693 C1692 1.414 . S
C1693 C1694 1.374 . S
C1694 H1668 0.950 . S
C1694 C1690 1.385 . S
C1694 C1693 1.374 . S
C1695 C1692 1.499 . S
C1695 C1696 1.373 . S
C1695 C1697 1.389 . S
C1696 H1669 0.950 . S
C1696 C1682 1.377 . S
C1696 C1695 1.373 . S
C1697 C1681 1.377 . S
C1697 C1695 1.389 . S
C1697 C1698 1.524 . S
C1698 C1697 1.524 . S
C1698 C1699 1.397 . S
C1698 C1703 1.363 1_655 S
C1699 H1670 0.950 . S
C1699 C1698 1.397 . S
C1699 C1700 1.334 . S
C1700 H1671 0.950 . S
C1700 C1699 1.334 . S
C1700 C1701 1.287 1_655 S
C1701 C1700 1.287 1_455 S
C1701 C1702 1.524 . S
C1701 H1704 0.999 . S
C1702 H1672 0.950 . S
C1702 C1701 1.524 . S
C1702 C1703 1.415 . S
C1703 H1673 0.950 . S
C1703 C1698 1.363 1_455 S
C1703 C1702 1.415 . S
H1704 C1701 0.999 . S
H1705 C1686 0.913 . S
H1706 C1724 0.951 . S
H1707 C1726 0.951 . S
H1708 C1728 0.950 . S
H1709 C1729 0.950 . S
H1710 C1731 0.950 . S
H1711 C1734 0.950 . S
H1712 C1735 0.950 . S
H1713 C1737 0.950 . S
H1714 C1738 0.950 . S
H1715 C1739 0.951 . S
H1716 C1741 0.951 . S
H1717 C1743 0.950 . S
H1718 C1744 0.950 1_545 S
H1719 C1746 0.950 . S
H1720 C1749 0.950 . S
H1721 C1750 1.011 . S
H1722 C1752 0.950 . S
H1723 C1753 0.950 . S
C1724 H1706 0.951 . S
C1724 C1725 1.366 . S
C1724 C1726 1.388 . S
C1725 C1724 1.366 . S
C1725 C1729 1.385 . S
C1726 H1707 0.951 . S
C1726 C1724 1.388 . S
C1726 C1727 1.366 . S
C1727 C1726 1.366 . S
C1727 C1728 1.414 . S
C1727 C1730 1.499 . S
C1728 H1708 0.950 . S
C1728 C1727 1.414 . S
C1728 C1729 1.374 . S
C1729 H1709 0.950 . S
C1729 C1725 1.385 . S
C1729 C1728 1.374 . S
C1730 C1727 1.499 . S
C1730 C1731 1.373 . S
C1730 C1732 1.389 . S
C1731 H1710 0.950 . S
C1731 C1730 1.373 . S
C1731 C1747 1.377 . S
C1732 C1730 1.389 . S
C1732 C1733 1.524 . S
C1732 C1746 1.377 . S
C1733 C1732 1.524 . S
C1733 C1734 1.397 . S
C1733 C1738 1.363 . S
C1734 H1711 0.950 . S
C1734 C1733 1.397 . S
C1734 C1735 1.334 . S
C1735 H1712 0.950 . S
C1735 C1734 1.334 . S
C1735 C1736 1.287 . S
C1736 C1735 1.287 . S
C1736 C1737 1.524 . S
C1736 H1755 0.913 . S
C1737 H1713 0.950 . S
C1737 C1736 1.524 . S
C1737 C1738 1.415 . S
C1738 H1714 0.950 . S
C1738 C1733 1.363 . S
C1738 C1737 1.415 . S
C1739 H1715 0.951 . S
C1739 C1740 1.366 . S
C1739 C1741 1.388 . S
C1740 C1739 1.366 . S
C1740 C1744 1.385 . S
C1741 H1716 0.951 . S
C1741 C1739 1.388 . S
C1741 C1742 1.366 . S
C1742 C1741 1.366 . S
C1742 C1743 1.414 . S
C1742 C1745 1.499 . S
C1743 H1717 0.950 . S
C1743 C1742 1.414 . S
C1743 C1744 1.374 . S
C1744 H1718 0.950 1_565 S
C1744 C1740 1.385 . S
C1744 C1743 1.374 . S
C1745 C1742 1.499 . S
C1745 C1746 1.373 . S
C1745 C1747 1.389 . S
C1746 H1719 0.950 . S
C1746 C1732 1.377 . S
C1746 C1745 1.373 . S
C1747 C1731 1.377 . S
C1747 C1745 1.389 . S
C1747 C1748 1.524 . S
C1748 C1747 1.524 . S
C1748 C1749 1.397 . S
C1748 C1753 1.363 . S
C1749 H1720 0.950 . S
C1749 C1748 1.397 . S
C1749 C1750 1.334 . S
C1750 H1721 1.011 . S
C1750 C1749 1.334 . S
C1750 C1751 1.287 . S
C1751 C1750 1.287 . S
C1751 C1752 1.524 . S
C1751 H1754 0.999 . S
C1752 H1722 0.950 . S
C1752 C1751 1.524 . S
C1752 C1753 1.415 . S
C1753 H1723 0.950 . S
C1753 C1748 1.363 . S
C1753 C1752 1.415 . S
H1754 C1751 0.999 . S
H1755 C1736 0.913 . S
H1756 C1774 0.951 . S
H1757 C1776 0.951 . S
H1758 C1778 0.950 . S
H1759 C1779 0.950 . S
H1760 C1781 0.950 . S
H1761 C1784 0.950 . S
H1762 C1785 0.950 . S
H1763 C1787 0.950 . S
H1764 C1788 0.950 . S
H1765 C1789 0.951 . S
H1766 C1791 0.951 . S
H1767 C1793 0.950 . S
H1768 C1794 0.950 . S
H1769 C1796 0.950 . S
H1770 C1799 0.950 . S
H1771 C1800 0.950 . S
H1772 C1802 0.950 . S
H1773 C1803 0.950 . S
C1774 H1756 0.951 . S
C1774 C1775 1.366 . S
C1774 C1776 1.388 . S
C1775 C1774 1.366 . S
C1775 C1779 1.385 . S
C1776 H1757 0.951 . S
C1776 C1774 1.388 . S
C1776 C1777 1.366 . S
C1777 C1776 1.366 . S
C1777 C1778 1.414 . S
C1777 C1780 1.499 . S
C1778 H1758 0.950 . S
C1778 C1777 1.414 . S
C1778 C1779 1.374 . S
C1779 H1759 0.950 . S
C1779 C1775 1.385 . S
C1779 C1778 1.374 . S
C1780 C1777 1.499 . S
C1780 C1781 1.373 . S
C1780 C1782 1.389 . S
C1781 H1760 0.950 . S
C1781 C1780 1.373 . S
C1781 C1797 1.377 . S
C1782 C1780 1.389 . S
C1782 C1783 1.524 . S
C1782 C1796 1.377 . S
C1783 C1782 1.524 . S
C1783 C1784 1.397 . S
C1783 C1788 1.363 . S
C1784 H1761 0.950 . S
C1784 C1783 1.397 . S
C1784 C1785 1.334 . S
C1785 H1762 0.950 . S
C1785 C1784 1.334 . S
C1785 C1786 1.287 . S
C1786 C1785 1.287 . S
C1786 C1787 1.524 . S
C1786 H1805 0.913 . S
C1787 H1763 0.950 . S
C1787 C1786 1.524 . S
C1787 C1788 1.415 . S
C1788 H1764 0.950 . S
C1788 C1783 1.363 . S
C1788 C1787 1.415 . S
C1789 H1765 0.951 . S
C1789 C1790 1.366 . S
C1789 C1791 1.388 . S
C1790 C1789 1.366 . S
C1790 C1794 1.385 . S
C1791 H1766 0.951 . S
C1791 C1789 1.388 . S
C1791 C1792 1.366 . S
C1792 C1791 1.366 . S
C1792 C1793 1.414 . S
C1792 C1795 1.499 . S
C1793 H1767 0.950 . S
C1793 C1792 1.414 . S
C1793 C1794 1.374 . S
C1794 H1768 0.950 . S
C1794 C1790 1.385 . S
C1794 C1793 1.374 . S
C1795 C1792 1.499 . S
C1795 C1796 1.373 . S
C1795 C1797 1.389 . S
C1796 H1769 0.950 . S
C1796 C1782 1.377 . S
C1796 C1795 1.373 . S
C1797 C1781 1.377 . S
C1797 C1795 1.389 . S
C1797 C1798 1.524 . S
C1798 C1797 1.524 . S
C1798 C1799 1.397 . S
C1798 C1803 1.363 . S
C1799 H1770 0.950 . S
C1799 C1798 1.397 . S
C1799 C1800 1.334 . S
C1800 H1771 0.950 . S
C1800 C1799 1.334 . S
C1800 C1801 1.287 . S
C1801 C1800 1.287 . S
C1801 C1802 1.524 . S
C1801 H1804 0.999 . S
C1802 H1772 0.950 . S
C1802 C1801 1.524 . S
C1802 C1803 1.415 . S
C1803 H1773 0.950 . S
C1803 C1798 1.363 . S
C1803 C1802 1.415 . S
H1804 C1801 0.999 . S
H1805 C1786 0.913 . S
H1806 C1824 0.951 . S
H1807 C1826 0.951 . S
H1808 C1828 0.950 . S
H1809 C1829 0.950 . S
H1810 C1831 0.950 . S
H1811 C1834 0.950 . S
H1812 C1835 0.950 . S
H1813 C1837 0.950 . S
H1814 C1838 0.950 . S
H1815 C1839 0.951 . S
H1816 C1841 0.951 . S
H1817 C1843 0.950 . S
H1818 C1844 0.950 . S
H1819 C1846 0.950 . S
H1820 C1849 0.950 . S
H1821 C1850 0.950 . S
H1822 C1852 0.950 . S
H1823 C1853 0.950 . S
C1824 H1806 0.951 . S
C1824 C1825 1.366 . S
C1824 C1826 1.388 . S
C1825 C1824 1.366 . S
C1825 C1829 1.385 . S
C1826 H1807 0.951 . S
C1826 C1824 1.388 . S
C1826 C1827 1.366 . S
C1827 C1826 1.366 . S
C1827 C1828 1.414 . S
C1827 C1830 1.499 . S
C1828 H1808 0.950 . S
C1828 C1827 1.414 . S
C1828 C1829 1.374 . S
C1829 H1809 0.950 . S
C1829 C1825 1.385 . S
C1829 C1828 1.374 . S
C1830 C1827 1.499 . S
C1830 C1831 1.373 . S
C1830 C1832 1.389 . S
C1831 H1810 0.950 . S
C1831 C1830 1.373 . S
C1831 C1847 1.377 . S
C1832 C1830 1.389 . S
C1832 C1833 1.524 . S
C1832 C1846 1.377 . S
C1833 C1832 1.524 . S
C1833 C1834 1.397 . S
C1833 C1838 1.363 . S
C1834 H1811 0.950 . S
C1834 C1833 1.397 . S
C1834 C1835 1.334 . S
C1835 H1812 0.950 . S
C1835 C1834 1.334 . S
C1835 C1836 1.287 . S
C1836 C1835 1.287 . S
C1836 C1837 1.524 . S
C1836 H1855 0.913 . S
C1837 H1813 0.950 . S
C1837 C1836 1.524 . S
C1837 C1838 1.415 . S
C1838 H1814 0.950 . S
C1838 C1833 1.363 . S
C1838 C1837 1.415 . S
C1839 H1815 0.951 . S
C1839 C1840 1.366 . S
C1839 C1841 1.388 . S
C1840 C1839 1.366 . S
C1840 C1844 1.385 . S
C1841 H1816 0.951 . S
C1841 C1839 1.388 . S
C1841 C1842 1.366 . S
C1842 C1841 1.366 . S
C1842 C1843 1.414 . S
C1842 C1845 1.499 . S
C1843 H1817 0.950 . S
C1843 C1842 1.414 . S
C1843 C1844 1.374 . S
C1844 H1818 0.950 . S
C1844 C1840 1.385 . S
C1844 C1843 1.374 . S
C1845 C1842 1.499 . S
C1845 C1846 1.373 . S
C1845 C1847 1.389 . S
C1846 H1819 0.950 . S
C1846 C1832 1.377 . S
C1846 C1845 1.373 . S
C1847 C1831 1.377 . S
C1847 C1845 1.389 . S
C1847 C1848 1.524 . S
C1848 C1847 1.524 . S
C1848 C1849 1.397 . S
C1848 C1853 1.363 . S
C1849 H1820 0.950 . S
C1849 C1848 1.397 . S
C1849 C1850 1.334 . S
C1850 H1821 0.950 . S
C1850 C1849 1.334 . S
C1850 C1851 1.287 . S
C1851 C1850 1.287 . S
C1851 C1852 1.524 . S
C1851 H1854 0.999 . S
C1852 H1822 0.950 . S
C1852 C1851 1.524 . S
C1852 C1853 1.415 . S
C1853 H1823 0.950 . S
C1853 C1848 1.363 . S
C1853 C1852 1.415 . S
H1854 C1851 0.999 . S
H1855 C1836 0.913 . S
C675 C255 2.158 . S
C690 C394 2.210 . S
C740 C478 2.252 . S
C725 C295 2.196 . S
C790 C544 2.216 . S
C775 C175 2.342 . S
C840 C628 2.189 . S
C825 C215 2.315 . S
C890 C383 2.210 1_565 S
C875 C95 2.151 . S
C925 C135 2.187 1_556 S
C940 C467 2.251 . S
C975 C15 2.333 1_556 S
C990 C555 2.216 . S
C1025 C55 2.313 . S
C1040 C639 2.189 . S
C1090 C390 0.415 1_455 S
C1075 C221 0.431 . S
C1140 C474 0.431 . S
C1125 C261 0.372 . S
C1190 C546 0.443 . S
C1175 C301 0.361 . S
C1225 C181 0.407 . S
C1240 C630 0.459 . S
C1275 C61 0.572 . S
C1290 C378 0.451 . S
C1340 C462 0.414 . S
C1325 C101 0.547 . S
C1390 C558 0.443 . S
C1375 C141 0.563 . S
C1425 C21 0.574 . S
C1440 C642 0.462 . S
C1475 C202 2.904 . S
C1490 C387 2.931 . S
C1525 C242 2.846 . S
C1540 C471 2.874 . S
C1590 C551 2.889 . S
C1575 C282 2.711 . S
C1640 C635 2.937 . S
C1625 C162 2.758 . S
C1675 C42 2.825 . S
C1690 C376 2.932 . S
C1740 C460 2.874 . S
C1725 C82 2.772 . S
C1790 C562 2.889 . S
C1775 C122 2.630 . S
C1825 C2 2.675 . S
C1840 C646 2.937 . S
