# Generated by pormake.
# Topology zzz, (3,6)-cn, num edge types: 1
# Building blocks:
#     Node 0, Type 0, BuildingBlock: OLANEW_clean_sbu_2, # of connection points: 3
#     Node 1, Type 0, BuildingBlock: OLANEW_clean_sbu_2, # of connection points: 3
#     Node 2, Type 0, BuildingBlock: OLANEW_clean_sbu_2, # of connection points: 3
#     Node 3, Type 0, BuildingBlock: OLANEW_clean_sbu_2, # of connection points: 3
#     Node 4, Type 0, BuildingBlock: OLANEW_clean_sbu_2, # of connection points: 3
#     Node 5, Type 0, BuildingBlock: OLANEW_clean_sbu_2, # of connection points: 3
#     Node 6, Type 0, BuildingBlock: OLANEW_clean_sbu_2, # of connection points: 3
#     Node 7, Type 0, BuildingBlock: OLANEW_clean_sbu_2, # of connection points: 3
#     Node 8, Type 1, BuildingBlock: GEDQOX_clean_sbu_0, # of connection points: 6
#     Node 9, Type 1, BuildingBlock: GEDQOX_clean_sbu_0, # of connection points: 6
#     Node 10, Type 1, BuildingBlock: GEDQOX_clean_sbu_0, # of connection points: 6
#     Node 11, Type 1, BuildingBlock: GEDQOX_clean_sbu_0, # of connection points: 6
#     Edge 12, Type (0, 1), BuildingBlock: EZIPEK_clean_linker_0, # of connection points: 2
#     Edge 13, Type (0, 1), BuildingBlock: EZIPEK_clean_linker_0, # of connection points: 2
#     Edge 14, Type (0, 1), BuildingBlock: EZIPEK_clean_linker_0, # of connection points: 2
#     Edge 15, Type (0, 1), BuildingBlock: EZIPEK_clean_linker_0, # of connection points: 2
#     Edge 16, Type (0, 1), BuildingBlock: EZIPEK_clean_linker_0, # of connection points: 2
#     Edge 17, Type (0, 1), BuildingBlock: EZIPEK_clean_linker_0, # of connection points: 2
#     Edge 18, Type (0, 1), BuildingBlock: EZIPEK_clean_linker_0, # of connection points: 2
#     Edge 19, Type (0, 1), BuildingBlock: EZIPEK_clean_linker_0, # of connection points: 2
#     Edge 20, Type (0, 1), BuildingBlock: EZIPEK_clean_linker_0, # of connection points: 2
#     Edge 21, Type (0, 1), BuildingBlock: EZIPEK_clean_linker_0, # of connection points: 2
#     Edge 22, Type (0, 1), BuildingBlock: EZIPEK_clean_linker_0, # of connection points: 2
#     Edge 23, Type (0, 1), BuildingBlock: EZIPEK_clean_linker_0, # of connection points: 2
#     Edge 24, Type (0, 1), BuildingBlock: EZIPEK_clean_linker_0, # of connection points: 2
#     Edge 25, Type (0, 1), BuildingBlock: EZIPEK_clean_linker_0, # of connection points: 2
#     Edge 26, Type (0, 1), BuildingBlock: EZIPEK_clean_linker_0, # of connection points: 2
#     Edge 27, Type (0, 1), BuildingBlock: EZIPEK_clean_linker_0, # of connection points: 2
#     Edge 28, Type (0, 1), BuildingBlock: EZIPEK_clean_linker_0, # of connection points: 2
#     Edge 29, Type (0, 1), BuildingBlock: EZIPEK_clean_linker_0, # of connection points: 2
#     Edge 30, Type (0, 1), BuildingBlock: EZIPEK_clean_linker_0, # of connection points: 2
#     Edge 31, Type (0, 1), BuildingBlock: EZIPEK_clean_linker_0, # of connection points: 2
#     Edge 32, Type (0, 1), BuildingBlock: EZIPEK_clean_linker_0, # of connection points: 2
#     Edge 33, Type (0, 1), BuildingBlock: EZIPEK_clean_linker_0, # of connection points: 2
#     Edge 34, Type (0, 1), BuildingBlock: EZIPEK_clean_linker_0, # of connection points: 2
#     Edge 35, Type (0, 1), BuildingBlock: EZIPEK_clean_linker_0, # of connection points: 2
# Relax obj value: 0.153
# Max RMSD: 0.253
# Mean RMSD: 0.090
data_MOF--net-zzz--node1-OLANEW_clean_sbu_2--node2-GEDQOX_clean_sbu_0--edge1-EZIPEK_clean_linker_0
_symmetry_space_group_name_H-M    P1
_symmetry_Int_Tables_number       1
_symmetry_cell_setting            triclinic
loop_
_symmetry_equiv_pos_as_xyz
'x, y, z'
_cell_length_a     43.462463
_cell_length_b     42.609042
_cell_length_c     15.47025
_cell_angle_alpha  78.063843
_cell_angle_beta   89.69777
_cell_angle_gamma 103.40009
loop_
_atom_site_label
_atom_site_type_symbol
_atom_site_fract_x
_atom_site_fract_y
_atom_site_fract_z
_atom_type_partial_charge
O0 O 0.8433 0.54331 0.93326 0.0
Cd1 Cd 0.80411 0.55924 0.02278 0.0
O2 O 0.82252 0.49035 0.97977 0.0
Cd3 Cd 0.80254 0.50306 0.09352 0.0
O4 O 0.82884 0.52936 0.18814 0.0
C5 C 0.85848 0.53126 0.18321 0.0
O6 O 0.86988 0.5179 0.12482 0.0
C7 C 0.84318 0.51348 0.93149 0.0
C8 C 0.73931 0.55206 0.98917 0.0
O9 O 0.75119 0.52686 0.01086 0.0
O10 O 0.75843 0.58065 0.97666 0.0
O11 O 0.009 0.80053 0.96762 0.0
Cd12 Cd 0.00896 0.74653 0.06151 0.0
O13 O 0.04897 0.81545 0.04769 0.0
Cd14 Cd 0.07842 0.85423 0.10319 0.0
O15 O 0.08486 0.89393 0.18305 0.0
C16 C 0.05851 0.89917 0.20504 0.0
O17 O 0.08638 0.89508 0.18483 0.0
C18 C 0.02931 0.82328 0.99168 0.0
C19 C 0.01877 0.69344 0.99587 0.0
O20 O 0.99067 0.69723 0.00655 0.0
O21 O 0.04226 0.71589 0.01033 0.0
O22 O 0.7427 0.02106 0.88889 0.0
Cd23 Cd 0.78667 0.02083 0.98666 0.0
O24 O 0.72327 0.01336 0.0243 0.0
Cd25 Cd 0.6831 0.00594 0.11719 0.0
O26 O 0.64298 0.99505 0.21215 0.0
C27 C 0.61823 0.0055 0.19323 0.0
O28 O 0.61641 0.02327 0.11411 0.0
C29 C 0.71906 0.01714 0.94199 0.0
C30 C 0.84748 0.02119 0.93199 0.0
O31 O 0.82707 0.99377 0.95972 0.0
O32 O 0.83845 0.04822 0.92349 0.0
O33 O 0.48604 0.77492 0.42807 0.0
Cd34 Cd 0.47699 0.81843 0.49617 0.0
O35 O 0.45441 0.73478 0.52352 0.0
Cd36 Cd 0.45946 0.76305 0.62705 0.0
O37 O 0.48192 0.73058 0.72061 0.0
C38 C 0.51129 0.73185 0.7109 0.0
O39 O 0.52914 0.75584 0.65169 0.0
C40 C 0.47145 0.74485 0.45187 0.0
C41 C 0.48721 0.87304 0.35787 0.0
O42 O 0.50974 0.86673 0.40629 0.0
O43 O 0.45939 0.85418 0.37648 0.0
O44 O 0.25067 0.54404 0.9016 0.0
Cd45 Cd 0.28958 0.51254 0.87099 0.0
O46 O 0.22999 0.5182 0.8 0.0
Cd47 Cd 0.19228 0.50473 0.71324 0.0
O48 O 0.15939 0.49471 0.6118 0.0
C49 C 0.16251 0.47348 0.56782 0.0
O50 O 0.18517 0.45777 0.58529 0.0
C51 C 0.22769 0.53685 0.85276 0.0
C52 C 0.35454 0.52374 0.89947 0.0
O53 O 0.34424 0.54065 0.83218 0.0
O54 O 0.33412 0.5036 0.95731 0.0
O55 O 0.07627 0.25664 0.9085 0.0
Cd56 Cd 0.10359 0.31298 0.91429 0.0
O57 O 0.10155 0.26374 0.77995 0.0
Cd58 Cd 0.11494 0.24219 0.67349 0.0
O59 O 0.11838 0.21234 0.57677 0.0
C60 C 0.09482 0.20558 0.52996 0.0
O61 O 0.0702 0.21791 0.53835 0.0
C62 C 0.08335 0.245 0.84386 0.0
C63 C 0.07721 0.36542 0.84279 0.0
O64 O 0.07204 0.35142 0.92494 0.0
O65 O 0.09325 0.3535 0.79349 0.0
O66 O 0.32738 0.07902 0.98561 0.0
Cd67 Cd 0.28789 0.11162 0.97946 0.0
O68 O 0.35093 0.11129 0.86202 0.0
Cd69 Cd 0.38857 0.1254 0.75561 0.0
O70 O 0.42085 0.1265 0.64456 0.0
C71 C 0.4175 0.14131 0.56614 0.0
O72 O 0.39507 0.15746 0.55136 0.0
C73 C 0.35012 0.08727 0.92721 0.0
C74 C 0.22765 0.08085 0.93934 0.0
O75 O 0.24839 0.09787 0.87795 0.0
O76 O 0.23554 0.0775 0.01983 0.0
O77 O 0.5738 0.30191 0.48313 0.0
Cd78 Cd 0.56826 0.25586 0.41026 0.0
O79 O 0.52648 0.30898 0.44768 0.0
Cd80 Cd 0.52148 0.28061 0.34417 0.0
O81 O 0.52735 0.31997 0.22557 0.0
C82 C 0.51115 0.34088 0.23065 0.0
O83 O 0.49104 0.33518 0.29896 0.0
C84 C 0.55167 0.31651 0.48785 0.0
C85 C 0.56042 0.19764 0.53673 0.0
O86 O 0.53645 0.20872 0.50886 0.0
O87 O 0.58813 0.21396 0.50475 0.0
Nd88 Nd 0.03937 0.03562 0.79743 0.0
Nd89 Nd 0.03791 0.02928 0.99411 0.0
C90 C 0.03049 0.04172 0.62672 0.0
C91 C 0.03694 0.02356 0.56069 0.0
C92 C 0.02017 0.02474 0.48351 0.0
C93 C 0.0248 0.00574 0.42323 0.0
C94 C 0.04637 0.98558 0.43943 0.0
C95 C 0.06341 0.98465 0.5162 0.0
C96 C 0.05871 0.00354 0.5766 0.0
C97 C 0.09678 0.03268 0.86966 0.0
C98 C 0.03326 0.96313 0.92198 0.0
C99 C 0.04598 0.03492 0.15991 0.0
C100 C 0.05675 0.06163 0.2084 0.0
C101 C 0.08899 0.07759 0.20822 0.0
C102 C 0.09851 0.10221 0.25666 0.0
C103 C 0.07597 0.11094 0.30631 0.0
C104 C 0.04387 0.09535 0.30588 0.0
C105 C 0.03434 0.07106 0.25699 0.0
C106 C 0.9789 0.01611 0.92547 0.0
C107 C 0.04899 0.10363 0.8701 0.0
O108 O 0.0084 0.02538 0.6881 0.0
O109 O 0.05541 0.05837 0.65829 0.0
O110 O 0.08606 0.01846 0.80591 0.0
O111 O 0.07772 0.04837 0.89048 0.0
O112 O 0.02334 0.97925 0.84931 0.0
O113 O 0.0454 0.97856 0.98414 0.0
O114 O 0.0671 0.02781 0.1113 0.0
O115 O 0.01905 0.03427 0.12235 0.0
O116 O 0.98687 0.99869 0.99693 0.0
O117 O 1.00206 0.03947 0.89259 0.0
O118 O 0.04716 0.08546 0.95087 0.0
O119 O 0.04558 0.09051 0.79951 0.0
H120 H 1.00309 0.03984 0.47077 0.0
H121 H 0.01101 0.006 0.36513 0.0
H122 H 0.0799 0.96891 0.52991 0.0
H123 H 0.07165 0.00212 0.63636 0.0
H124 H 0.10685 0.07097 0.17127 0.0
H125 H 0.12339 0.11417 0.25628 0.0
H126 H 0.02621 0.10191 0.34381 0.0
H127 H 0.00936 0.05928 0.25822 0.0
Nd128 Nd 0.51636 0.00826 0.86474 0.0
Nd129 Nd 0.53661 0.05116 0.99229 0.0
C130 C 0.49557 0.96752 0.75985 0.0
C131 C 0.50951 0.96634 0.67439 0.0
C132 C 0.54234 0.97814 0.65613 0.0
C133 C 0.55536 0.9823 0.57088 0.0
C134 C 0.53577 0.97495 0.50261 0.0
C135 C 0.50305 0.9626 0.52081 0.0
C136 C 0.48994 0.95834 0.60646 0.0
C137 C 0.54546 0.07287 0.78524 0.0
C138 C 0.5896 0.02333 0.91053 0.0
C139 C 0.54732 0.09441 0.09621 0.0
C140 C 0.52843 0.11023 0.14471 0.0
C141 C 0.49522 0.10202 0.14464 0.0
C142 C 0.47712 0.11099 0.20616 0.0
C143 C 0.49203 0.12811 0.26882 0.0
C144 C 0.52525 0.13838 0.26428 0.0
C145 C 0.54332 0.12932 0.20295 0.0
C146 C 0.52437 0.98457 0.06636 0.0
C147 C 0.46224 0.03662 0.94366 0.0
O148 O 0.51147 0.95952 0.82957 0.0
O149 O 0.48555 0.99421 0.75896 0.0
O150 O 0.55019 0.04733 0.75944 0.0
O151 O 0.5255 0.06378 0.84974 0.0
O152 O 0.56573 0.99981 0.89627 0.0
O153 O 0.58462 0.05005 0.93294 0.0
O154 O 0.5498 0.10324 0.00986 0.0
O155 O 0.54227 0.06259 0.12446 0.0
O156 O 0.5489 0.00618 0.08091 0.0
O157 O 0.50733 0.99816 0.01239 0.0
O158 O 0.485 0.05476 0.98043 0.0
O159 O 0.46746 0.01368 0.90416 0.0
H160 H 0.5578 0.98523 0.70709 0.0
H161 H 0.58067 0.99192 0.55765 0.0
H162 H 0.4877 0.95723 0.46849 0.0
H163 H 0.4645 0.94995 0.61896 0.0
H164 H 0.48329 0.08713 0.10062 0.0
H165 H 0.45154 0.10293 0.20834 0.0
H166 H 0.53735 0.15211 0.31046 0.0
H167 H 0.56892 0.13568 0.20429 0.0
Nd168 Nd 0.54339 0.55223 0.04094 0.0
Nd169 Nd 0.55125 0.53575 0.86727 0.0
C170 C 0.53187 0.57276 0.18472 0.0
C171 C 0.51721 0.59724 0.21156 0.0
C172 C 0.49965 0.58878 0.29273 0.0
C173 C 0.48881 0.61277 0.32497 0.0
C174 C 0.49562 0.64544 0.27641 0.0
C175 C 0.51179 0.65363 0.19318 0.0
C176 C 0.52241 0.62958 0.16057 0.0
C177 C 0.60392 0.54617 0.00278 0.0
C178 C 0.54684 0.61086 0.86574 0.0
C179 C 0.56964 0.52344 0.71761 0.0
C180 C 0.56711 0.49245 0.68773 0.0
C181 C 0.56673 0.46303 0.7494 0.0
C182 C 0.56425 0.43352 0.7213 0.0
C183 C 0.56177 0.43298 0.63133 0.0
C184 C 0.56176 0.46226 0.56971 0.0
C185 C 0.56444 0.49188 0.59783 0.0
C186 C 0.48821 0.52295 0.92462 0.0
C187 C 0.53706 0.47652 0.03833 0.0
O188 O 0.51294 0.54774 0.16084 0.0
O189 O 0.55828 0.58427 0.13556 0.0
O190 O 0.58874 0.53474 0.07895 0.0
O191 O 0.58715 0.56057 0.94982 0.0
O192 O 0.53978 0.60112 0.95147 0.0
O193 O 0.55478 0.59121 0.81838 0.0
O194 O 0.58837 0.52761 0.78232 0.0
O195 O 0.54298 0.53181 0.72791 0.0
O196 O 0.50033 0.50338 0.88832 0.0
O197 O 0.50941 0.54806 0.93132 0.0
O198 O 0.55496 0.48824 0.96446 0.0
O199 O 0.52399 0.4961 0.07416 0.0
H200 H 0.49539 0.56394 0.33272 0.0
H201 H 0.47652 0.60626 0.38965 0.0
H202 H 0.5173 0.67885 0.15537 0.0
H203 H 0.53571 0.63657 0.09733 0.0
H204 H 0.56853 0.46289 0.81926 0.0
H205 H 0.56434 0.41114 0.76954 0.0
H206 H 0.5599 0.46216 0.49994 0.0
H207 H 0.56447 0.51429 0.54956 0.0
Nd208 Nd 0.03697 0.55369 0.72742 0.0
Nd209 Nd 0.02861 0.503 0.91769 0.0
C210 C 0.02859 0.59697 0.58681 0.0
C211 C 0.00528 0.59237 0.51898 0.0
C212 C 0.99138 0.61809 0.47958 0.0
C213 C 0.96681 0.61233 0.42221 0.0
C214 C 0.95597 0.58079 0.40385 0.0
C215 C 0.97012 0.55527 0.44256 0.0
C216 C 0.99447 0.56095 0.49984 0.0
C217 C 0.04407 0.49116 0.72926 0.0
C218 C 0.96473 0.51002 0.81063 0.0
C219 C 0.03065 0.45203 0.04439 0.0
C220 C 0.0495 0.44874 0.12329 0.0
C221 C 0.03413 0.43913 0.20799 0.0
C222 C 0.05166 0.4406 0.28314 0.0
C223 C 0.08477 0.45137 0.2744 0.0
C224 C 0.10028 0.45951 0.19026 0.0
C225 C 0.08281 0.45835 0.11517 0.0
C226 C 0.03143 0.56676 0.93795 0.0
C227 C 0.09916 0.54872 0.83762 0.0
O228 O 0.0165 0.59554 0.66562 0.0
O229 O 0.05065 0.58045 0.58893 0.0
O230 O 0.05824 0.51687 0.66993 0.0
O231 O 0.02447 0.49874 0.77659 0.0
O232 O 0.98266 0.53329 0.74856 0.0
O233 O 0.9771 0.49386 0.87896 0.0
O234 O 0.04621 0.4583 0.96738 0.0
O235 O 0.00942 0.46942 0.04532 0.0
O236 O 0.02804 0.54169 0.00425 0.0
O237 O 0.03361 0.55677 0.86789 0.0
O238 O 0.08234 0.52003 0.88381 0.0
O239 O 0.08569 0.56986 0.78484 0.0
H240 H 0.99903 0.64231 0.49476 0.0
H241 H 0.95592 0.63221 0.39332 0.0
H242 H 0.96187 0.53075 0.42964 0.0
H243 H 0.00431 0.54052 0.53095 0.0
H244 H 0.00851 0.43176 0.21576 0.0
H245 H 0.03939 0.43435 0.34779 0.0
H246 H 0.12585 0.46797 0.1826 0.0
H247 H 0.09541 0.46615 0.05085 0.0
C248 C 0.18072 0.03314 0.94093 0.0
C249 C 0.19463 0.06762 0.91804 0.0
C250 C 0.14657 0.07718 0.84683 0.0
C251 C 0.13115 0.0436 0.88017 0.0
N252 N 0.13251 0.98929 0.96115 0.0
N253 N 0.18874 0.12322 0.86356 0.0
C254 C 0.14798 0.02138 0.92755 0.0
C255 C 0.17706 0.08987 0.87451 0.0
N256 N 0.19905 0.01166 0.97257 0.0
N257 N 0.13246 0.09677 0.78632 0.0
H258 H 0.21066 0.13378 0.88501 0.0
H259 H 0.17533 0.14034 0.8412 0.0
H260 H 0.11045 0.08806 0.76242 0.0
H261 H 0.14393 0.12054 0.75319 0.0
H262 H 0.19118 0.98611 0.98239 0.0
H263 H 0.22311 0.01945 0.98234 0.0
H264 H 0.14235 0.97269 0.00472 0.0
H265 H 0.10897 0.97968 0.94914 0.0
C266 C 0.53789 0.13665 0.58094 0.0
C267 C 0.5561 0.16599 0.60194 0.0
C268 C 0.56926 0.13389 0.74152 0.0
C269 C 0.54907 0.10503 0.72303 0.0
N270 N 0.50838 0.08043 0.63482 0.0
N271 N 0.58457 0.19378 0.70871 0.0
C272 C 0.53174 0.1068 0.6455 0.0
C273 C 0.57062 0.16499 0.68408 0.0
N274 N 0.52765 0.13683 0.49772 0.0
N275 N 0.58771 0.1315 0.81266 0.0
H276 H 0.58556 0.217 0.66889 0.0
H277 H 0.59263 0.19481 0.77156 0.0
H278 H 0.5868 0.10926 0.857 0.0
H279 H 0.60554 0.15097 0.82406 0.0
H280 H 0.519 0.11524 0.47512 0.0
H281 H 0.53074 0.15832 0.44893 0.0
H282 H 0.49266 0.0818 0.5843 0.0
H283 H 0.50255 0.05812 0.68102 0.0
C284 C 0.40643 0.52033 0.83284 0.0
C285 C 0.38906 0.52487 0.90558 0.0
C286 C 0.43587 0.52443 0.99394 0.0
C287 C 0.45408 0.52372 0.91821 0.0
N288 N 0.45785 0.52971 0.75921 0.0
N289 N 0.38935 0.53768 0.05037 0.0
C290 C 0.43974 0.52425 0.83574 0.0
C291 C 0.40439 0.52879 0.98483 0.0
N292 N 0.39107 0.51042 0.76264 0.0
N293 N 0.44809 0.51949 0.07533 0.0
H294 H 0.36667 0.5419 0.04511 0.0
H295 H 0.40053 0.54405 0.10582 0.0
H296 H 0.47041 0.51473 0.08442 0.0
H297 H 0.43495 0.51665 0.13412 0.0
H298 H 0.40241 0.5035 0.71261 0.0
H299 H 0.36654 0.5054 0.75905 0.0
H300 H 0.44875 0.5338 0.69675 0.0
H301 H 0.48244 0.53394 0.75703 0.0
C302 C 0.03645 0.39843 0.79995 0.0
C303 C 0.06864 0.39721 0.80843 0.0
C304 C 0.08534 0.45753 0.76083 0.0
C305 C 0.05312 0.45883 0.74887 0.0
N306 N 0.99876 0.43028 0.74064 0.0
N307 N 0.12421 0.42468 0.7909 0.0
C308 C 0.02886 0.42916 0.76416 0.0
C309 C 0.09318 0.42647 0.78652 0.0
N310 N 0.01313 0.37023 0.82695 0.0
N311 N 0.10846 0.48593 0.75323 0.0
H312 H 0.13132 0.40307 0.81703 0.0
H313 H 0.14322 0.44427 0.76439 0.0
H314 H 0.10525 0.50918 0.72602 0.0
H315 H 0.13072 0.48676 0.77846 0.0
H316 H 0.98919 0.36994 0.8329 0.0
H317 H 0.01785 0.34705 0.84879 0.0
H318 H 0.98057 0.40941 0.74199 0.0
H319 H 0.99254 0.45214 0.71161 0.0
C320 C 0.90253 0.03755 0.98041 0.0
C321 C 0.88158 0.02182 0.92371 0.0
C322 C 0.92483 0.00226 0.8664 0.0
C323 C 0.946 0.01988 0.91891 0.0
N324 N 0.95661 0.0602 0.01104 0.0
N325 N 0.87331 0.99367 0.80279 0.0
C326 C 0.93537 0.03951 0.97084 0.0
C327 C 0.89288 0.0054 0.86371 0.0
N328 N 0.89089 0.04866 0.04776 0.0
N329 N 0.93512 0.98204 0.82076 0.0
H330 H 0.84991 0.99584 0.79897 0.0
H331 H 0.88088 0.98428 0.75165 0.0
H332 H 0.9586 0.9801 0.81918 0.0
H333 H 0.92013 0.96574 0.78895 0.0
H334 H 0.90473 0.0567 0.09733 0.0
H335 H 0.86687 0.04676 0.06012 0.0
H336 H 0.95045 0.07789 0.04071 0.0
H337 H 0.9809 0.06195 0.00812 0.0
C338 C 0.51175 0.89799 0.20511 0.0
C339 C 0.49373 0.90044 0.27924 0.0
C340 C 0.49384 0.95757 0.21065 0.0
C341 C 0.51115 0.95485 0.13554 0.0
N342 N 0.52979 0.92075 0.05134 0.0
N343 N 0.46113 0.92929 0.34372 0.0
C344 C 0.51808 0.92449 0.12975 0.0
C345 C 0.48264 0.92919 0.27911 0.0
N346 N 0.52303 0.87046 0.207 0.0
N347 N 0.48909 0.98753 0.21826 0.0
H348 H 0.45338 0.90952 0.39729 0.0
H349 H 0.44934 0.94812 0.34106 0.0
H350 H 0.49559 0.00867 0.16804 0.0
H351 H 0.48053 0.99192 0.27655 0.0
H352 H 0.53958 0.86897 0.16004 0.0
H353 H 0.51721 0.84959 0.25839 0.0
H354 H 0.5327 0.89833 0.04011 0.0
H355 H 0.5338 0.93955 0.99453 0.0
C356 C 0.69194 0.57051 0.9197 0.0
C357 C 0.70423 0.54847 0.98451 0.0
C358 C 0.64971 0.51989 0.03794 0.0
C359 C 0.63804 0.54608 0.98736 0.0
N360 N 0.65105 0.60043 0.88897 0.0
N361 N 0.69331 0.50663 0.12099 0.0
C362 C 0.65985 0.5725 0.92993 0.0
C363 C 0.68275 0.5242 0.04779 0.0
N364 N 0.71051 0.58901 0.84706 0.0
N365 N 0.62946 0.49047 0.07548 0.0
H366 H 0.71693 0.51083 0.137 0.0
H367 H 0.67794 0.4908 0.17192 0.0
H368 H 0.60536 0.48526 0.06468 0.0
H369 H 0.63736 0.46995 0.10733 0.0
H370 H 0.70172 0.60326 0.79428 0.0
H371 H 0.73348 0.58694 0.83463 0.0
H372 H 0.66727 0.62129 0.85394 0.0
H373 H 0.62871 0.6046 0.8973 0.0
C374 C 0.04101 0.64325 0.03417 0.0
C375 C 0.02375 0.66229 0.97608 0.0
C376 C 0.00973 0.61781 0.8947 0.0
C377 C 0.03013 0.60063 0.94614 0.0
N378 N 0.07065 0.60117 0.05249 0.0
N379 N 0.99693 0.67053 0.84012 0.0
C380 C 0.04745 0.61466 0.01204 0.0
C381 C 0.00976 0.65047 0.90281 0.0
N382 N 0.04963 0.65113 0.11336 0.0
N383 N 0.98862 0.60231 0.84299 0.0
H384 H 0.99696 0.69477 0.84322 0.0
H385 H 0.98919 0.66422 0.78096 0.0
H386 H 0.98622 0.57773 0.83989 0.0
H387 H 0.97112 0.61265 0.8111 0.0
H388 H 0.05912 0.63584 0.16203 0.0
H389 H 0.04418 0.67091 0.13492 0.0
H390 H 0.08614 0.61245 0.09433 0.0
H391 H 0.07661 0.58061 0.0371 0.0
C392 C 0.09147 0.18855 0.90236 0.0
C393 C 0.07426 0.20896 0.84888 0.0
C394 C 0.03938 0.1602 0.81074 0.0
C395 C 0.05804 0.14007 0.85921 0.0
N396 N 0.10644 0.13632 0.93278 0.0
N397 N 0.03544 0.21551 0.74027 0.0
C398 C 0.08534 0.15457 0.90012 0.0
C399 C 0.0494 0.19518 0.79898 0.0
N400 N 0.11368 0.20155 0.95578 0.0
N401 N 0.01126 0.14592 0.78016 0.0
H402 H 0.04144 0.24114 0.73244 0.0
H403 H 0.01967 0.20719 0.69485 0.0
H404 H 1.00265 0.12042 0.78963 0.0
H405 H 0.99508 0.15916 0.75239 0.0
H406 H 0.12392 0.18708 0.00454 0.0
H407 H 0.12029 0.22666 0.95618 0.0
H408 H 0.12843 0.14648 0.95441 0.0
H409 H 0.10364 0.11161 0.92991 0.0
C410 C 0.38562 0.05839 0.86232 0.0
C411 C 0.37594 0.06955 0.93582 0.0
C412 C 0.41708 0.04871 0.02098 0.0
C413 C 0.43058 0.04407 0.94238 0.0
N414 N 0.43013 0.05064 0.78279 0.0
N415 N 0.38599 0.0797 0.08281 0.0
C416 C 0.41539 0.05017 0.86148 0.0
C417 C 0.39238 0.06561 0.01512 0.0
N418 N 0.36631 0.05535 0.79363 0.0
N419 N 0.42757 0.03662 0.10128 0.0
H420 H 0.36923 0.09376 0.08044 0.0
H421 H 0.39964 0.08022 0.13789 0.0
H422 H 0.44491 0.0231 0.1079 0.0
H423 H 0.41671 0.03693 0.16123 0.0
H424 H 0.37118 0.04459 0.74202 0.0
H425 H 0.34395 0.06044 0.79311 0.0
H426 H 0.42108 0.0582 0.7218 0.0
H427 H 0.45285 0.04703 0.7771 0.0
C428 C 0.58298 0.3717 0.50939 0.0
C429 C 0.55607 0.34464 0.53277 0.0
C430 C 0.53236 0.37592 0.61958 0.0
C431 C 0.56017 0.40188 0.60103 0.0
N432 N 0.61491 0.42103 0.54733 0.0
N433 N 0.50886 0.31798 0.62675 0.0
C434 C 0.58645 0.39863 0.55208 0.0
C435 C 0.53184 0.34585 0.59299 0.0
N436 N 0.60416 0.37298 0.44229 0.0
N437 N 0.50606 0.38041 0.65959 0.0
H438 H 0.50835 0.29525 0.61082 0.0
H439 H 0.49233 0.31658 0.67725 0.0
H440 H 0.50546 0.40215 0.67983 0.0
H441 H 0.48408 0.36368 0.66597 0.0
H442 H 0.62204 0.39388 0.41652 0.0
H443 H 0.60203 0.35484 0.40531 0.0
H444 H 0.63573 0.41787 0.52041 0.0
H445 H 0.61842 0.44109 0.57805 0.0
C446 C 0.17747 0.53902 0.93257 0.0
C447 C 0.19821 0.54901 0.85569 0.0
C448 C 0.15555 0.5653 0.76663 0.0
C449 C 0.1345 0.55518 0.84368 0.0
N450 N 0.12896 0.54261 0.00332 0.0
N451 N 0.21012 0.58143 0.7076 0.0
C452 C 0.14675 0.54552 0.92776 0.0
C453 C 0.18823 0.56562 0.77564 0.0
N454 N 0.18614 0.52143 0.00887 0.0
N455 N 0.14439 0.57189 0.68403 0.0
H456 H 0.2342 0.58211 0.71277 0.0
H457 H 0.20495 0.59664 0.65041 0.0
H458 H 0.1208 0.57126 0.67187 0.0
H459 H 0.15823 0.57504 0.62628 0.0
H460 H 0.17043 0.50981 0.06331 0.0
H461 H 0.20846 0.51643 0.01591 0.0
H462 H 0.1376 0.53862 0.06635 0.0
H463 H 0.10659 0.54755 0.00227 0.0
C464 C 0.04034 0.87856 0.88635 0.0
C465 C 0.02685 0.85814 0.96812 0.0
C466 C 0.01286 0.9054 0.01254 0.0
C467 C 0.02989 0.92674 0.93554 0.0
N468 N 0.06256 0.93405 0.80251 0.0
N469 N 1.00075 0.85127 0.11095 0.0
C470 C 0.04404 0.9134 0.87268 0.0
C471 C 0.01317 0.87135 0.03164 0.0
N472 N 0.04954 0.86458 0.82167 0.0
N473 N 0.99528 0.91743 0.06563 0.0
H474 H 0.99869 0.82583 0.12539 0.0
H475 H 0.99378 0.85984 0.16437 0.0
H476 H 0.99403 0.942 0.05354 0.0
H477 H 0.97968 0.90275 0.11735 0.0
H478 H 0.05635 0.87747 0.75703 0.0
H479 H 0.04783 0.83927 0.83065 0.0
H480 H 0.07648 0.92621 0.76033 0.0
H481 H 0.06609 0.95959 0.78988 0.0
C482 C 0.67885 0.0455 0.86526 0.0
C483 C 0.6867 0.01632 0.91174 0.0
C484 C 0.63075 0.9904 0.95136 0.0
C485 C 0.62259 0.01944 0.90413 0.0
N486 N 0.63807 0.07039 0.79456 0.0
N487 N 0.67028 0.95808 0.97393 0.0
C488 C 0.64643 0.04569 0.8541 0.0
C489 C 0.66257 0.98771 0.94565 0.0
N490 N 0.70214 0.07351 0.83587 0.0
N491 N 0.60894 0.96661 0.00772 0.0
H492 H 0.69356 0.95558 0.97017 0.0
H493 H 0.65345 0.93572 0.99199 0.0
H494 H 0.58612 0.96879 0.0205 0.0
H495 H 0.61452 0.94644 0.04954 0.0
H496 H 0.69753 0.09656 0.81147 0.0
H497 H 0.72617 0.07415 0.84089 0.0
H498 H 0.65432 0.08858 0.75063 0.0
H499 H 0.61455 0.0707 0.78258 0.0
C500 C 0.50787 0.7127 0.40814 0.0
C501 C 0.47783 0.7206 0.40281 0.0
C502 C 0.46047 0.68151 0.30666 0.0
C503 C 0.48952 0.67182 0.31799 0.0
N504 N 0.53958 0.67482 0.38651 0.0
N505 N 0.42459 0.71159 0.35365 0.0
C506 C 0.51293 0.68658 0.37039 0.0
C507 C 0.45381 0.70471 0.35393 0.0
N508 N 0.53166 0.73025 0.44905 0.0
N509 N 0.43964 0.66894 0.24943 0.0
H510 H 0.41945 0.72967 0.38383 0.0
H511 H 0.40494 0.69837 0.32769 0.0
H512 H 0.44358 0.65134 0.2155 0.0
H513 H 0.41951 0.67736 0.23085 0.0
H514 H 0.55513 0.72858 0.44536 0.0
H515 H 0.5286 0.74821 0.48264 0.0
H516 H 0.55545 0.68134 0.43355 0.0
H517 H 0.54493 0.65664 0.35721 0.0
C518 C 0.88214 0.52726 0.79989 0.0
C519 C 0.86963 0.5062 0.88245 0.0
C520 C 0.91139 0.47675 0.87421 0.0
C521 C 0.92911 0.5039 0.81139 0.0
N522 N 0.92722 0.55102 0.69491 0.0
N523 N 0.87587 0.46123 0.00289 0.0
C524 C 0.91318 0.52788 0.7674 0.0
C525 C 0.88465 0.48044 0.9202 0.0
N526 N 0.86382 0.54562 0.75105 0.0
N527 N 0.92036 0.44753 0.89043 0.0
H528 H 0.85843 0.46387 0.045 0.0
H529 H 0.8887 0.44466 0.03416 0.0
H530 H 0.93904 0.44403 0.85366 0.0
H531 H 0.90687 0.42613 0.93153 0.0
H532 H 0.87038 0.55938 0.68707 0.0
H533 H 0.84046 0.54418 0.77097 0.0
H534 H 0.91974 0.57259 0.67119 0.0
H535 H 0.94546 0.54788 0.65614 0.0
C536 C 0.09024 0.19302 0.37872 0.0
C537 C 0.09403 0.18235 0.47033 0.0
C538 C 0.09359 0.12682 0.4484 0.0
C539 C 0.08553 0.1364 0.35975 0.0
N540 N 0.07495 0.17779 0.23953 0.0
N541 N 0.09657 0.13863 0.59524 0.0
C542 C 0.0837 0.16936 0.32441 0.0
C543 C 0.09545 0.14923 0.50587 0.0
N544 N 0.09393 0.22594 0.3433 0.0
N545 N 0.09924 0.0962 0.47757 0.0
H546 H 0.09675 0.15371 0.64046 0.0
H547 H 0.09494 0.11419 0.62592 0.0
H548 H 0.0968 0.07869 0.43832 0.0
H549 H 0.10876 0.08899 0.53797 0.0
H550 H 0.09459 0.23579 0.2757 0.0
H551 H 0.09921 0.24395 0.38108 0.0
H552 H 0.06936 0.20018 0.21314 0.0
H553 H 0.07161 0.16158 0.19639 0.0
C554 C 0.45527 0.16686 0.43267 0.0
C555 C 0.43705 0.13815 0.49072 0.0
C556 C 0.4578 0.10333 0.40883 0.0
C557 C 0.47304 0.13188 0.34486 0.0
N558 N 0.48265 0.19064 0.28863 0.0
N559 N 0.41594 0.07903 0.52304 0.0
C560 C 0.47076 0.16365 0.35471 0.0
C561 C 0.43695 0.10635 0.47589 0.0
N562 N 0.4588 0.19706 0.45375 0.0
N563 N 0.46435 0.07348 0.40815 0.0
H564 H 0.39944 0.08011 0.57084 0.0
H565 H 0.41267 0.05572 0.50844 0.0
H566 H 0.48021 0.07022 0.36187 0.0
H567 H 0.45665 0.05272 0.459 0.0
H568 H 0.47448 0.21837 0.41904 0.0
H569 H 0.44829 0.20031 0.51099 0.0
H570 H 0.4789 0.21396 0.28797 0.0
H571 H 0.49398 0.18916 0.23052 0.0
C572 C 0.53824 0.40007 0.21569 0.0
C573 C 0.52086 0.37478 0.17618 0.0
C574 C 0.51864 0.41557 0.04037 0.0
C575 C 0.53266 0.44135 0.08403 0.0
N576 N 0.55431 0.45822 0.21577 0.0
N577 N 0.49289 0.35749 0.05408 0.0
C578 C 0.54201 0.4336 0.17242 0.0
C579 C 0.51093 0.3822 0.08892 0.0
N580 N 0.55219 0.39188 0.29353 0.0
N581 N 0.51238 0.42289 0.95295 0.0
H582 H 0.48769 0.33274 0.08706 0.0
H583 H 0.48151 0.3615 0.9952 0.0
H584 H 0.51519 0.44687 0.9164 0.0
H585 H 0.50607 0.40521 0.91471 0.0
H586 H 0.56808 0.40885 0.32123 0.0
H587 H 0.55033 0.36752 0.32646 0.0
H588 H 0.55704 0.45415 0.28371 0.0
H589 H 0.56033 0.48312 0.18532 0.0
C590 C 0.12434 0.43521 0.49296 0.0
C591 C 0.14173 0.4677 0.49451 0.0
C592 C 0.11733 0.48949 0.36017 0.0
C593 C 0.10326 0.45673 0.35242 0.0
N594 N 0.09665 0.39802 0.40435 0.0
N595 N 0.15946 0.5251 0.4203 0.0
C596 C 0.10759 0.42942 0.41698 0.0
C597 C 0.13942 0.49474 0.4258 0.0
N598 N 0.12281 0.41014 0.56523 0.0
N599 N 0.10904 0.51559 0.30609 0.0
H600 H 0.17691 0.5299 0.46496 0.0
H601 H 0.16098 0.5447 0.36628 0.0
H602 H 0.09265 0.51276 0.25757 0.0
H603 H 0.11604 0.53974 0.31507 0.0
H604 H 0.1077 0.38682 0.5715 0.0
H605 H 0.13444 0.41343 0.62261 0.0
H606 H 0.10215 0.37742 0.44435 0.0
H607 H 0.08421 0.3928 0.34953 0.0
C608 C 0.03147 0.91143 0.33149 0.0
C609 C 0.05555 0.92231 0.26226 0.0
C610 C 0.07487 0.97396 0.31252 0.0
C611 C 0.04968 0.96384 0.37842 0.0
N612 N 1.00151 0.92528 0.44477 0.0
N613 N 0.09476 0.96704 0.17275 0.0
C614 C 0.02716 0.9333 0.3859 0.0
C615 C 0.07595 0.95442 0.24889 0.0
N616 N 0.01367 0.87957 0.34796 0.0
N617 N 0.09767 0.00227 0.31071 0.0
H618 H 0.09368 0.95482 0.12066 0.0
H619 H 0.10888 0.99098 0.1566 0.0
H620 H 0.09685 0.01799 0.35372 0.0
H621 H 0.11846 0.0091 0.27058 0.0
H622 H 0.99841 0.86888 0.40375 0.0
H623 H 0.01582 0.86272 0.30943 0.0
H624 H 0.98219 0.9055 0.44554 0.0
H625 H 0.99843 0.93963 0.48969 0.0
C626 C 0.57986 0.96348 0.30372 0.0
C627 C 0.59164 0.99703 0.26068 0.0
C628 C 0.55669 0.01331 0.35896 0.0
C629 C 0.55018 0.98095 0.41206 0.0
N630 N 0.55667 0.92519 0.43884 0.0
N631 N 0.59332 0.05476 0.25224 0.0
C632 C 0.56172 0.95586 0.38496 0.0
C633 C 0.58016 0.02223 0.28829 0.0
N634 N 0.58561 0.93893 0.26611 0.0
N635 N 0.54078 0.03556 0.37706 0.0
H636 H 0.61112 0.06265 0.20184 0.0
H637 H 0.58828 0.07407 0.27701 0.0
H638 H 0.52374 0.02972 0.42932 0.0
H639 H 0.54223 0.05851 0.33542 0.0
H640 H 0.57534 0.91398 0.29071 0.0
H641 H 0.59804 0.94374 0.20512 0.0
H642 H 0.56817 0.90731 0.42811 0.0
H643 H 0.54239 0.91828 0.49728 0.0
C644 C 0.5107 0.67302 0.71348 0.0
C645 C 0.52278 0.70187 0.74644 0.0
C646 C 0.55576 0.67246 0.84513 0.0
C647 C 0.54043 0.64266 0.82022 0.0
N648 N 0.4984 0.61355 0.74359 0.0
N649 N 0.55518 0.72921 0.84743 0.0
C650 C 0.51673 0.64265 0.7574 0.0
C651 C 0.54506 0.70174 0.81306 0.0
N652 N 0.49401 0.6747 0.63871 0.0
N653 N 0.58098 0.67285 0.89764 0.0
H654 H 0.5482 0.75114 0.82405 0.0
H655 H 0.5687 0.72964 0.9027 0.0
H656 H 0.58953 0.65189 0.92123 0.0
H657 H 0.59508 0.69433 0.91167 0.0
H658 H 0.48783 0.65525 0.60605 0.0
H659 H 0.48917 0.69655 0.60416 0.0
H660 H 0.47844 0.61222 0.70623 0.0
H661 H 0.50098 0.59048 0.77642 0.0
C662 C 0.90783 0.57286 0.20083 0.0
C663 C 0.88056 0.5485 0.24072 0.0
C664 C 0.89937 0.55375 0.38731 0.0
C665 C 0.92887 0.57344 0.34716 0.0
N666 N 0.96246 0.6002 0.21541 0.0
N667 N 0.85179 0.51294 0.37283 0.0
C668 C 0.9334 0.5829 0.25372 0.0
C669 C 0.8764 0.53849 0.33433 0.0
N670 N 0.90894 0.5869 0.11266 0.0
N671 N 0.89336 0.54975 0.47621 0.0
H672 H 0.8347 0.50049 0.33696 0.0
H673 H 0.84979 0.50217 0.44012 0.0
H674 H 0.90971 0.56083 0.51649 0.0
H675 H 0.87122 0.53831 0.50815 0.0
H676 H 0.92691 0.60686 0.0814 0.0
H677 H 0.89021 0.58082 0.07256 0.0
H678 H 0.96823 0.60439 0.14789 0.0
H679 H 0.98162 0.60847 0.25191 0.0
loop_
_geom_bond_atom_site_label_1
_geom_bond_atom_site_label_2
_geom_bond_distance
_geom_bond_site_symmetry_2
_ccdc_geom_bond_type
O0 Cd1 2.300 . S
O0 C7 1.275 . S
Cd1 O0 2.300 . S
Cd1 O9 2.381 . S
Cd1 O10 2.378 . S
O2 Cd3 2.385 1_556 S
O2 C7 1.255 . S
Cd3 O2 2.385 1_554 S
Cd3 O4 2.317 . S
O4 Cd3 2.317 . S
O4 C5 1.232 . S
C5 O4 1.232 . S
C5 O6 1.218 . S
O6 C5 1.218 . S
C7 O0 1.275 . S
C7 O2 1.255 . S
C8 O9 1.258 . S
C8 O10 1.256 . S
O9 Cd1 2.381 . S
O9 C8 1.258 . S
O10 Cd1 2.378 . S
O10 C8 1.256 . S
O11 Cd12 2.300 1_556 S
O11 C18 1.275 . S
Cd12 O11 2.300 1_554 S
Cd12 O20 2.381 1_554 S
Cd12 O21 2.378 . S
O13 Cd14 2.366 1_655 S
O13 C18 1.277 1_554 S
Cd14 O13 2.366 1_455 S
Cd14 O15 2.317 1_455 S
O15 Cd14 2.317 1_655 S
O15 C16 1.232 . S
C16 O15 1.232 . S
C16 O17 1.222 . S
O17 C16 1.222 . S
C18 O11 1.275 . S
C18 O13 1.277 1_556 S
C19 O20 1.258 1_554 S
C19 O21 1.256 . S
O20 Cd12 2.381 1_556 S
O20 C19 1.258 1_556 S
O21 Cd12 2.378 . S
O21 C19 1.256 . S
O22 Cd23 2.300 . S
O22 C29 1.275 . S
Cd23 O22 2.300 . S
Cd23 O31 2.381 . S
Cd23 O32 2.378 . S
O24 Cd25 2.392 1_556 S
O24 C29 1.248 1_545 S
Cd25 O24 2.392 1_554 S
Cd25 O26 2.317 1_545 S
O26 Cd25 2.317 1_565 S
O26 C27 1.232 . S
C27 O26 1.232 . S
C27 O28 1.204 1_565 S
O28 C27 1.204 1_545 S
C29 O22 1.275 . S
C29 O24 1.248 1_565 S
C30 O31 1.258 . S
C30 O32 1.256 . S
O31 Cd23 2.381 . S
O31 C30 1.258 . S
O32 Cd23 2.378 . S
O32 C30 1.256 . S
O33 Cd34 2.300 . S
O33 C40 1.275 . S
Cd34 O33 2.300 . S
Cd34 O42 2.381 . S
Cd34 O43 2.378 . S
O35 Cd36 2.385 . S
O35 C40 1.255 . S
Cd36 O35 2.385 . S
Cd36 O37 2.317 . S
O37 Cd36 2.317 . S
O37 C38 1.232 . S
C38 O37 1.232 . S
C38 O39 1.218 . S
O39 C38 1.218 . S
C40 O33 1.275 . S
C40 O35 1.255 . S
C41 O42 1.258 . S
C41 O43 1.256 . S
O42 Cd34 2.381 . S
O42 C41 1.258 . S
O43 Cd34 2.378 . S
O43 C41 1.256 . S
O44 Cd45 2.300 . S
O44 C51 1.275 . S
Cd45 O44 2.300 . S
Cd45 O53 2.381 . S
Cd45 O54 2.378 . S
O46 Cd47 2.385 . S
O46 C51 1.255 . S
Cd47 O46 2.385 . S
Cd47 O48 2.317 . S
O48 Cd47 2.317 . S
O48 C49 1.232 . S
C49 O48 1.232 . S
C49 O50 1.218 . S
O50 C49 1.218 . S
C51 O44 1.275 . S
C51 O46 1.255 . S
C52 O53 1.258 . S
C52 O54 1.256 . S
O53 Cd45 2.381 . S
O53 C52 1.258 . S
O54 Cd45 2.378 . S
O54 C52 1.256 . S
O55 Cd56 2.300 . S
O55 C62 1.275 . S
Cd56 O55 2.300 . S
Cd56 O64 2.381 . S
Cd56 O65 2.378 . S
O57 Cd58 2.385 . S
O57 C62 1.255 . S
Cd58 O57 2.385 . S
Cd58 O59 2.317 . S
O59 Cd58 2.317 . S
O59 C60 1.232 . S
C60 O59 1.232 . S
C60 O61 1.218 . S
O61 C60 1.218 . S
C62 O55 1.275 . S
C62 O57 1.255 . S
C63 O64 1.258 . S
C63 O65 1.256 . S
O64 Cd56 2.381 . S
O64 C63 1.258 . S
O65 Cd56 2.378 . S
O65 C63 1.256 . S
O66 Cd67 2.300 . S
O66 C73 1.275 . S
Cd67 O66 2.300 . S
Cd67 O75 2.381 . S
Cd67 O76 2.378 . S
O68 Cd69 2.385 . S
O68 C73 1.255 . S
Cd69 O68 2.385 . S
Cd69 O70 2.317 . S
O70 Cd69 2.317 . S
O70 C71 1.232 . S
C71 O70 1.232 . S
C71 O72 1.218 . S
O72 C71 1.218 . S
C73 O66 1.275 . S
C73 O68 1.255 . S
C74 O75 1.258 . S
C74 O76 1.256 . S
O75 Cd67 2.381 . S
O75 C74 1.258 . S
O76 Cd67 2.378 . S
O76 C74 1.256 . S
O77 Cd78 2.300 . S
O77 C84 1.275 . S
Cd78 O77 2.300 . S
Cd78 O86 2.381 . S
Cd78 O87 2.378 . S
O79 Cd80 2.385 . S
O79 C84 1.255 . S
Cd80 O79 2.385 . S
Cd80 O81 2.317 . S
O81 Cd80 2.317 . S
O81 C82 1.232 . S
C82 O81 1.232 . S
C82 O83 1.218 . S
O83 C82 1.218 . S
C84 O77 1.275 . S
C84 O79 1.255 . S
C85 O86 1.258 . S
C85 O87 1.256 . S
O86 Cd78 2.381 . S
O86 C85 1.258 . S
O87 Cd78 2.378 . S
O87 C85 1.256 . S
Nd88 C90 2.836 1_545 S
Nd88 O108 2.500 1_445 S
Nd88 O109 2.495 . S
Nd88 O110 2.487 . S
Nd88 O111 2.682 . S
Nd88 O112 2.410 1_545 S
Nd88 O117 2.414 1_455 S
Nd88 O119 2.424 . S
Nd89 C99 2.836 . S
Nd89 O111 2.414 1_554 S
Nd89 O113 2.424 1_545 S
Nd89 O114 2.500 . S
Nd89 O115 2.492 . S
Nd89 O116 2.487 1_455 S
Nd89 O117 2.682 1_454 S
Nd89 O118 2.410 1_554 S
C90 Nd88 2.836 1_565 S
C90 C91 1.498 . S
C90 O108 1.258 1_455 S
C90 O109 1.237 1_565 S
C91 C90 1.498 . S
C91 C92 1.366 1_455 S
C91 C96 1.407 . S
C92 C91 1.366 1_655 S
C92 C93 1.392 . S
C92 H120 0.930 . S
C93 C92 1.392 . S
C93 C94 1.398 . S
C93 H121 0.929 . S
C94 C93 1.398 . S
C94 C95 1.352 1_655 S
C95 C94 1.352 1_455 S
C95 C96 1.384 . S
C95 H122 0.930 . S
C96 C91 1.407 . S
C96 C95 1.384 . S
C96 H123 0.929 . S
C97 O110 1.241 . S
C97 O111 1.273 . S
C98 O112 1.251 . S
C98 O113 1.268 1_556 S
C99 Nd89 2.836 . S
C99 C100 1.498 . S
C99 O114 1.258 . S
C99 O115 1.239 . S
C100 C99 1.498 . S
C100 C101 1.366 . S
C100 C105 1.407 . S
C101 C100 1.366 . S
C101 C102 1.392 . S
C101 H124 0.930 . S
C102 C101 1.392 . S
C102 C103 1.398 . S
C102 H125 0.929 . S
C103 C102 1.398 . S
C103 C104 1.352 . S
C104 C103 1.352 . S
C104 C105 1.384 . S
C104 H126 0.930 . S
C105 C100 1.407 . S
C105 C104 1.384 . S
C105 H127 0.929 . S
C106 O116 1.241 1_556 S
C106 O117 1.273 . S
C107 O118 1.251 . S
C107 O119 1.268 . S
O108 Nd88 2.500 1_665 S
O108 C90 1.258 1_655 S
O109 Nd88 2.495 . S
O109 C90 1.237 1_545 S
O110 Nd88 2.487 . S
O110 C97 1.241 . S
O111 Nd88 2.682 . S
O111 Nd89 2.414 1_556 S
O111 C97 1.273 . S
O112 Nd88 2.410 1_565 S
O112 C98 1.251 . S
O113 Nd89 2.424 1_565 S
O113 C98 1.268 1_554 S
O114 Nd89 2.500 . S
O114 C99 1.258 . S
O115 Nd89 2.492 . S
O115 C99 1.239 . S
O116 Nd89 2.487 1_655 S
O116 C106 1.241 1_554 S
O117 Nd88 2.414 1_655 S
O117 Nd89 2.682 1_656 S
O117 C106 1.273 . S
O118 Nd89 2.410 1_556 S
O118 C107 1.251 . S
O119 Nd88 2.424 . S
O119 C107 1.268 . S
H120 C92 0.930 . S
H121 C93 0.929 . S
H122 C95 0.930 . S
H123 C96 0.929 . S
H124 C101 0.930 . S
H125 C102 0.929 . S
H126 C104 0.930 . S
H127 C105 0.929 . S
Nd128 C130 2.836 1_545 S
Nd128 O148 2.500 1_545 S
Nd128 O149 2.492 . S
Nd128 O150 2.487 . S
Nd128 O151 2.682 . S
Nd128 O152 2.410 . S
Nd128 O157 2.414 1_545 S
Nd128 O159 2.424 . S
Nd129 C139 2.836 . S
Nd129 O151 2.414 1_554 S
Nd129 O153 2.424 1_554 S
Nd129 O154 2.500 . S
Nd129 O155 2.492 . S
Nd129 O156 2.487 1_545 S
Nd129 O157 2.682 1_544 S
Nd129 O158 2.410 1_554 S
C130 Nd128 2.836 1_565 S
C130 C131 1.498 . S
C130 O148 1.258 . S
C130 O149 1.239 1_565 S
C131 C130 1.498 . S
C131 C132 1.366 . S
C131 C136 1.401 1_565 S
C132 C131 1.366 . S
C132 C133 1.392 . S
C132 H160 0.930 . S
C133 C132 1.392 . S
C133 C134 1.398 . S
C133 H161 0.929 . S
C134 C133 1.398 . S
C134 C135 1.352 . S
C135 C134 1.352 . S
C135 C136 1.366 1_565 S
C135 H162 0.934 . S
C136 C131 1.401 1_545 S
C136 C135 1.366 1_545 S
C136 H163 0.953 . S
C137 O150 1.241 . S
C137 O151 1.273 . S
C138 O152 1.251 . S
C138 O153 1.268 . S
C139 Nd129 2.836 . S
C139 C140 1.498 . S
C139 O154 1.258 . S
C139 O155 1.239 . S
C140 C139 1.498 . S
C140 C141 1.366 . S
C140 C145 1.407 . S
C141 C140 1.366 . S
C141 C142 1.392 . S
C141 H164 0.930 . S
C142 C141 1.392 . S
C142 C143 1.398 . S
C142 H165 0.929 . S
C143 C142 1.398 . S
C143 C144 1.352 . S
C144 C143 1.352 . S
C144 C145 1.384 . S
C144 H166 0.930 . S
C145 C140 1.407 . S
C145 C144 1.384 . S
C145 H167 0.929 . S
C146 O156 1.241 . S
C146 O157 1.273 1_554 S
C147 O158 1.251 . S
C147 O159 1.268 . S
O148 Nd128 2.500 1_565 S
O148 C130 1.258 . S
O149 Nd128 2.492 . S
O149 C130 1.239 1_545 S
O150 Nd128 2.487 . S
O150 C137 1.241 . S
O151 Nd128 2.682 . S
O151 Nd129 2.414 1_556 S
O151 C137 1.273 . S
O152 Nd128 2.410 . S
O152 C138 1.251 . S
O153 Nd129 2.424 1_556 S
O153 C138 1.268 . S
O154 Nd129 2.500 . S
O154 C139 1.258 . S
O155 Nd129 2.492 . S
O155 C139 1.239 . S
O156 Nd129 2.487 1_565 S
O156 C146 1.241 . S
O157 Nd128 2.414 1_565 S
O157 Nd129 2.682 1_566 S
O157 C146 1.273 1_556 S
O158 Nd129 2.410 1_556 S
O158 C147 1.251 . S
O159 Nd128 2.424 . S
O159 C147 1.268 . S
H160 C132 0.930 . S
H161 C133 0.929 . S
H162 C135 0.934 . S
H163 C136 0.953 . S
H164 C141 0.930 . S
H165 C142 0.929 . S
H166 C144 0.930 . S
H167 C145 0.929 . S
Nd168 C170 2.836 . S
Nd168 O188 2.500 . S
Nd168 O189 2.492 . S
Nd168 O190 2.487 . S
Nd168 O191 2.682 1_554 S
Nd168 O192 2.410 1_554 S
Nd168 O197 2.414 1_554 S
Nd168 O199 2.424 . S
Nd169 C179 2.836 . S
Nd169 O191 2.414 . S
Nd169 O193 2.424 . S
Nd169 O194 2.500 . S
Nd169 O195 2.492 . S
Nd169 O196 2.487 . S
Nd169 O197 2.682 . S
Nd169 O198 2.410 . S
C170 Nd168 2.836 . S
C170 C171 1.498 . S
C170 O188 1.258 . S
C170 O189 1.239 . S
C171 C170 1.498 . S
C171 C172 1.366 . S
C171 C176 1.407 . S
C172 C171 1.366 . S
C172 C173 1.392 . S
C172 H200 0.930 . S
C173 C172 1.392 . S
C173 C174 1.398 . S
C173 H201 0.929 . S
C174 C173 1.398 . S
C174 C175 1.352 . S
C175 C174 1.352 . S
C175 C176 1.384 . S
C175 H202 0.930 . S
C176 C171 1.407 . S
C176 C175 1.384 . S
C176 H203 0.929 . S
C177 O190 1.241 1_556 S
C177 O191 1.273 . S
C178 O192 1.251 . S
C178 O193 1.268 . S
C179 Nd169 2.836 . S
C179 C180 1.498 . S
C179 O194 1.258 . S
C179 O195 1.239 . S
C180 C179 1.498 . S
C180 C181 1.366 . S
C180 C185 1.407 . S
C181 C180 1.366 . S
C181 C182 1.392 . S
C181 H204 0.930 . S
C182 C181 1.392 . S
C182 C183 1.398 . S
C182 H205 0.929 . S
C183 C182 1.398 . S
C183 C184 1.352 . S
C184 C183 1.352 . S
C184 C185 1.384 . S
C184 H206 0.930 . S
C185 C180 1.407 . S
C185 C184 1.384 . S
C185 H207 0.929 . S
C186 O196 1.241 . S
C186 O197 1.273 . S
C187 O198 1.251 1_554 S
C187 O199 1.268 . S
O188 Nd168 2.500 . S
O188 C170 1.258 . S
O189 Nd168 2.492 . S
O189 C170 1.239 . S
O190 Nd168 2.487 . S
O190 C177 1.241 1_554 S
O191 Nd168 2.682 1_556 S
O191 Nd169 2.414 . S
O191 C177 1.273 . S
O192 Nd168 2.410 1_556 S
O192 C178 1.251 . S
O193 Nd169 2.424 . S
O193 C178 1.268 . S
O194 Nd169 2.500 . S
O194 C179 1.258 . S
O195 Nd169 2.492 . S
O195 C179 1.239 . S
O196 Nd169 2.487 . S
O196 C186 1.241 . S
O197 Nd168 2.414 1_556 S
O197 Nd169 2.682 . S
O197 C186 1.273 . S
O198 Nd169 2.410 . S
O198 C187 1.251 1_556 S
O199 Nd168 2.424 . S
O199 C187 1.268 . S
H200 C172 0.930 . S
H201 C173 0.929 . S
H202 C175 0.930 . S
H203 C176 0.929 . S
H204 C181 0.930 . S
H205 C182 0.929 . S
H206 C184 0.930 . S
H207 C185 0.929 . S
Nd208 C210 2.836 1_455 S
Nd208 O228 2.500 1_455 S
Nd208 O229 2.492 1_455 S
Nd208 O230 2.487 . S
Nd208 O231 2.682 . S
Nd208 O232 2.410 1_455 S
Nd208 O237 2.414 . S
Nd208 O239 2.424 . S
Nd209 C219 2.836 . S
Nd209 O231 2.414 1_554 S
Nd209 O233 2.424 1_455 S
Nd209 O234 2.500 . S
Nd209 O235 2.492 . S
Nd209 O236 2.487 . S
Nd209 O237 2.682 1_554 S
Nd209 O238 2.410 1_554 S
C210 Nd208 2.836 1_655 S
C210 C211 1.498 . S
C210 O228 1.258 . S
C210 O229 1.239 . S
C211 C210 1.498 . S
C211 C212 1.366 . S
C211 C216 1.407 . S
C212 C211 1.366 . S
C212 C213 1.392 . S
C212 H240 0.930 . S
C213 C212 1.392 . S
C213 C214 1.398 . S
C213 H241 0.929 . S
C214 C213 1.398 . S
C214 C215 1.352 . S
C215 C214 1.352 . S
C215 C216 1.384 . S
C215 H242 0.930 . S
C216 C211 1.407 . S
C216 C215 1.384 . S
C216 H243 0.929 . S
C217 O230 1.241 . S
C217 O231 1.273 . S
C218 O232 1.251 . S
C218 O233 1.268 1_556 S
C219 Nd209 2.836 . S
C219 C220 1.498 . S
C219 O234 1.258 . S
C219 O235 1.239 . S
C220 C219 1.498 . S
C220 C221 1.366 . S
C220 C225 1.407 . S
C221 C220 1.366 . S
C221 C222 1.392 . S
C221 H244 0.930 . S
C222 C221 1.392 . S
C222 C223 1.398 . S
C222 H245 0.929 . S
C223 C222 1.398 . S
C223 C224 1.352 . S
C224 C223 1.352 . S
C224 C225 1.384 . S
C224 H246 0.930 . S
C225 C220 1.407 . S
C225 C224 1.384 . S
C225 H247 0.929 . S
C226 O236 1.241 1_556 S
C226 O237 1.273 . S
C227 O238 1.251 . S
C227 O239 1.268 . S
O228 Nd208 2.500 1_655 S
O228 C210 1.258 . S
O229 Nd208 2.492 1_655 S
O229 C210 1.239 . S
O230 Nd208 2.487 . S
O230 C217 1.241 . S
O231 Nd208 2.682 . S
O231 Nd209 2.414 1_556 S
O231 C217 1.273 . S
O232 Nd208 2.410 1_655 S
O232 C218 1.251 . S
O233 Nd209 2.424 1_655 S
O233 C218 1.268 1_554 S
O234 Nd209 2.500 . S
O234 C219 1.258 . S
O235 Nd209 2.492 . S
O235 C219 1.239 . S
O236 Nd209 2.487 . S
O236 C226 1.241 1_554 S
O237 Nd208 2.414 . S
O237 Nd209 2.682 1_556 S
O237 C226 1.273 . S
O238 Nd209 2.410 1_556 S
O238 C227 1.251 . S
O239 Nd208 2.424 . S
O239 C227 1.268 . S
H240 C212 0.930 . S
H241 C213 0.929 . S
H242 C215 0.930 . S
H243 C216 0.929 . S
H244 C221 0.930 . S
H245 C222 0.929 . S
H246 C224 0.930 . S
H247 C225 0.929 . S
C248 C249 1.363 . S
C248 C254 1.379 . S
C248 N256 1.356 . S
C249 C248 1.363 . S
C249 C255 1.363 . S
C250 C251 1.363 . S
C250 C255 1.379 . S
C250 N257 1.356 . S
C251 C250 1.363 . S
C251 C254 1.363 . S
N252 C254 1.356 1_554 S
N252 H264 0.984 . S
N252 H265 0.985 1_554 S
N253 C255 1.356 . S
N253 H258 0.984 . S
N253 H259 0.985 . S
C254 C248 1.379 . S
C254 C251 1.363 . S
C254 N252 1.356 1_556 S
C255 C249 1.363 . S
C255 C250 1.379 . S
C255 N253 1.356 . S
N256 C248 1.356 . S
N256 H262 0.985 1_556 S
N256 H263 0.984 . S
N257 C250 1.356 . S
N257 H260 0.984 . S
N257 H261 0.985 . S
H258 N253 0.984 . S
H259 N253 0.985 . S
H260 N257 0.984 . S
H261 N257 0.985 . S
H262 N256 0.985 1_554 S
H263 N256 0.984 . S
H264 N252 0.984 . S
H265 N252 0.985 1_556 S
C266 C267 1.363 . S
C266 C272 1.379 . S
C266 N274 1.356 . S
C267 C266 1.363 . S
C267 C273 1.363 . S
C268 C269 1.363 . S
C268 C273 1.379 . S
C268 N275 1.356 . S
C269 C268 1.363 . S
C269 C272 1.363 . S
N270 C272 1.356 . S
N270 H282 0.984 . S
N270 H283 0.985 . S
N271 C273 1.356 . S
N271 H276 0.984 . S
N271 H277 0.985 . S
C272 C266 1.379 . S
C272 C269 1.363 . S
C272 N270 1.356 . S
C273 C267 1.363 . S
C273 C268 1.379 . S
C273 N271 1.356 . S
N274 C266 1.356 . S
N274 H280 0.984 . S
N274 H281 0.984 . S
N275 C268 1.356 . S
N275 H278 0.984 . S
N275 H279 0.985 . S
H276 N271 0.984 . S
H277 N271 0.985 . S
H278 N275 0.984 . S
H279 N275 0.985 . S
H280 N274 0.984 . S
H281 N274 0.984 . S
H282 N270 0.984 . S
H283 N270 0.985 . S
C284 C285 1.363 . S
C284 C290 1.379 . S
C284 N292 1.356 . S
C285 C284 1.363 . S
C285 C291 1.363 . S
C286 C287 1.363 . S
C286 C291 1.379 . S
C286 N293 1.356 1_556 S
C287 C286 1.363 . S
C287 C290 1.363 . S
N288 C290 1.356 . S
N288 H300 0.984 . S
N288 H301 0.985 . S
N289 C291 1.356 1_554 S
N289 H294 0.984 . S
N289 H295 0.985 . S
C290 C284 1.379 . S
C290 C287 1.363 . S
C290 N288 1.356 . S
C291 C285 1.363 . S
C291 C286 1.379 . S
C291 N289 1.356 1_556 S
N292 C284 1.356 . S
N292 H298 0.984 . S
N292 H299 0.984 . S
N293 C286 1.356 1_554 S
N293 H296 0.984 1_554 S
N293 H297 0.985 . S
H294 N289 0.984 . S
H295 N289 0.985 . S
H296 N293 0.984 1_556 S
H297 N293 0.985 . S
H298 N292 0.984 . S
H299 N292 0.984 . S
H300 N288 0.984 . S
H301 N288 0.985 . S
C302 C303 1.363 . S
C302 C308 1.379 . S
C302 N310 1.356 . S
C303 C302 1.363 . S
C303 C309 1.363 . S
C304 C305 1.363 . S
C304 C309 1.379 . S
C304 N311 1.356 . S
C305 C304 1.363 . S
C305 C308 1.363 . S
N306 C308 1.356 . S
N306 H318 0.975 1_455 S
N306 H319 0.985 . S
N307 C309 1.356 . S
N307 H312 0.984 . S
N307 H313 0.985 . S
C308 C302 1.379 . S
C308 C305 1.363 . S
C308 N306 1.356 . S
C309 C303 1.363 . S
C309 C304 1.379 . S
C309 N307 1.356 . S
N310 C302 1.356 . S
N310 H316 0.984 . S
N310 H317 0.984 . S
N311 C304 1.356 . S
N311 H314 0.984 . S
N311 H315 0.985 . S
H312 N307 0.984 . S
H313 N307 0.985 . S
H314 N311 0.984 . S
H315 N311 0.985 . S
H316 N310 0.984 . S
H317 N310 0.984 . S
H318 N306 0.975 1_655 S
H319 N306 0.985 . S
C320 C321 1.363 1_545 S
C320 C326 1.379 . S
C320 N328 1.356 1_546 S
C321 C320 1.363 1_565 S
C321 C327 1.363 . S
C322 C323 1.363 1_565 S
C322 C327 1.379 . S
C322 N329 1.356 . S
C323 C322 1.363 1_545 S
C323 C326 1.363 . S
N324 C326 1.356 1_554 S
N324 H336 0.984 . S
N324 H337 0.985 . S
N325 C327 1.356 . S
N325 H330 0.984 . S
N325 H331 0.985 . S
C326 C320 1.379 . S
C326 C323 1.363 . S
C326 N324 1.356 1_556 S
C327 C321 1.363 . S
C327 C322 1.379 . S
C327 N325 1.356 . S
N328 C320 1.356 1_564 S
N328 H334 0.984 1_565 S
N328 H335 0.984 . S
N329 C322 1.356 . S
N329 H332 0.984 1_565 S
N329 H333 0.985 . S
H330 N325 0.984 . S
H331 N325 0.985 . S
H332 N329 0.984 1_545 S
H333 N329 0.985 . S
H334 N328 0.984 1_545 S
H335 N328 0.984 . S
H336 N324 0.984 . S
H337 N324 0.985 . S
C338 C339 1.363 . S
C338 C344 1.379 . S
C338 N346 1.356 . S
C339 C338 1.363 . S
C339 C345 1.363 . S
C340 C341 1.363 . S
C340 C345 1.379 . S
C340 N347 1.356 . S
C341 C340 1.363 . S
C341 C344 1.363 . S
N342 C344 1.356 . S
N342 H354 0.984 1_554 S
N342 H355 0.985 1_554 S
N343 C345 1.356 . S
N343 H348 0.984 . S
N343 H349 0.985 . S
C344 C338 1.379 . S
C344 C341 1.363 . S
C344 N342 1.356 . S
C345 C339 1.363 . S
C345 C340 1.379 . S
C345 N343 1.356 . S
N346 C338 1.356 . S
N346 H352 0.984 . S
N346 H353 0.984 . S
N347 C340 1.356 . S
N347 H350 0.984 . S
N347 H351 0.985 . S
H348 N343 0.984 . S
H349 N343 0.985 . S
H350 N347 0.984 . S
H351 N347 0.985 . S
H352 N346 0.984 . S
H353 N346 0.984 . S
H354 N342 0.984 1_556 S
H355 N342 0.985 1_556 S
C356 C357 1.363 . S
C356 C362 1.379 . S
C356 N364 1.356 . S
C357 C356 1.363 . S
C357 C363 1.363 . S
C358 C359 1.363 . S
C358 C363 1.379 . S
C358 N365 1.356 1_556 S
C359 C358 1.363 . S
C359 C362 1.363 . S
N360 C362 1.356 . S
N360 H372 0.984 . S
N360 H373 0.985 . S
N361 C363 1.359 . S
N361 H366 0.987 . S
N361 H367 0.980 1_556 S
C362 C356 1.379 . S
C362 C359 1.363 . S
C362 N360 1.356 . S
C363 C357 1.363 . S
C363 C358 1.379 . S
C363 N361 1.359 . S
N364 C356 1.356 . S
N364 H370 0.984 . S
N364 H371 0.984 . S
N365 C358 1.356 1_554 S
N365 H368 0.984 . S
N365 H369 0.985 . S
H366 N361 0.987 . S
H367 N361 0.980 1_554 S
H368 N365 0.984 . S
H369 N365 0.985 . S
H370 N364 0.984 . S
H371 N364 0.984 . S
H372 N360 0.984 . S
H373 N360 0.985 . S
C374 C375 1.363 1_454 S
C374 C380 1.379 . S
C374 N382 1.356 . S
C375 C374 1.363 1_656 S
C375 C381 1.363 . S
C376 C377 1.363 1_655 S
C376 C381 1.379 . S
C376 N383 1.356 . S
C377 C376 1.363 1_455 S
C377 C380 1.363 1_556 S
N378 C380 1.356 . S
N378 H390 0.984 . S
N378 H391 0.985 . S
N379 C381 1.356 . S
N379 H384 0.984 . S
N379 H385 0.985 . S
C380 C374 1.379 . S
C380 C377 1.363 1_554 S
C380 N378 1.356 . S
C381 C375 1.363 . S
C381 C376 1.379 . S
C381 N379 1.356 . S
N382 C374 1.356 . S
N382 H388 0.984 . S
N382 H389 1.000 . S
N383 C376 1.356 . S
N383 H386 0.984 . S
N383 H387 0.985 . S
H384 N379 0.984 . S
H385 N379 0.985 . S
H386 N383 0.984 . S
H387 N383 0.985 . S
H388 N382 0.984 . S
H389 N382 1.000 . S
H390 N378 0.984 . S
H391 N378 0.985 . S
C392 C393 1.363 . S
C392 C398 1.379 . S
C392 N400 1.356 . S
C393 C392 1.363 . S
C393 C399 1.363 . S
C394 C395 1.363 . S
C394 C399 1.379 . S
C394 N401 1.356 . S
C395 C394 1.363 . S
C395 C398 1.363 . S
N396 C398 1.356 . S
N396 H408 0.984 1_556 S
N396 H409 0.985 . S
N397 C399 1.356 . S
N397 H402 0.984 . S
N397 H403 0.985 . S
C398 C392 1.379 . S
C398 C395 1.363 . S
C398 N396 1.356 . S
C399 C393 1.363 . S
C399 C394 1.379 . S
C399 N397 1.356 . S
N400 C392 1.356 . S
N400 H406 0.984 1_556 S
N400 H407 0.984 . S
N401 C394 1.356 . S
N401 H404 0.984 . S
N401 H405 0.985 . S
H402 N397 0.984 . S
H403 N397 0.985 . S
H404 N401 0.984 . S
H405 N401 0.985 . S
H406 N400 0.984 1_554 S
H407 N400 0.984 . S
H408 N396 0.984 1_554 S
H409 N396 0.985 . S
C410 C411 1.363 . S
C410 C416 1.379 . S
C410 N418 1.356 . S
C411 C410 1.363 . S
C411 C417 1.363 . S
C412 C413 1.363 . S
C412 C417 1.379 . S
C412 N419 1.356 1_556 S
C413 C412 1.363 . S
C413 C416 1.363 . S
N414 C416 1.356 . S
N414 H426 0.984 . S
N414 H427 0.985 . S
N415 C417 1.356 1_554 S
N415 H420 0.984 1_554 S
N415 H421 0.985 . S
C416 C410 1.379 . S
C416 C413 1.363 . S
C416 N414 1.356 . S
C417 C411 1.363 . S
C417 C412 1.379 . S
C417 N415 1.356 1_556 S
N418 C410 1.356 . S
N418 H424 0.984 . S
N418 H425 0.984 . S
N419 C412 1.356 1_554 S
N419 H422 0.984 . S
N419 H423 0.985 . S
H420 N415 0.984 1_556 S
H421 N415 0.985 . S
H422 N419 0.984 . S
H423 N419 0.985 . S
H424 N418 0.984 . S
H425 N418 0.984 . S
H426 N414 0.984 . S
H427 N414 0.985 . S
C428 C429 1.363 . S
C428 C434 1.379 . S
C428 N436 1.356 . S
C429 C428 1.363 . S
C429 C435 1.363 . S
C430 C431 1.363 . S
C430 C435 1.379 . S
C430 N437 1.356 . S
C431 C430 1.363 . S
C431 C434 1.363 . S
N432 C434 1.356 . S
N432 H444 0.984 . S
N432 H445 0.985 . S
N433 C435 1.356 . S
N433 H438 0.984 . S
N433 H439 0.985 . S
C434 C428 1.379 . S
C434 C431 1.363 . S
C434 N432 1.356 . S
C435 C429 1.363 . S
C435 C430 1.379 . S
C435 N433 1.356 . S
N436 C428 1.356 . S
N436 H442 0.984 . S
N436 H443 0.984 . S
N437 C430 1.356 . S
N437 H440 0.984 . S
N437 H441 0.985 . S
H438 N433 0.984 . S
H439 N433 0.985 . S
H440 N437 0.984 . S
H441 N437 0.985 . S
H442 N436 0.984 . S
H443 N436 0.984 . S
H444 N432 0.984 . S
H445 N432 0.985 . S
C446 C447 1.363 . S
C446 C452 1.379 . S
C446 N454 1.356 1_556 S
C447 C446 1.363 . S
C447 C453 1.363 . S
C448 C449 1.363 . S
C448 C453 1.379 . S
C448 N455 1.356 . S
C449 C448 1.363 . S
C449 C452 1.363 . S
N450 C452 1.356 1_554 S
N450 H462 0.984 . S
N450 H463 0.988 . S
N451 C453 1.356 . S
N451 H456 0.984 . S
N451 H457 0.985 . S
C452 C446 1.379 . S
C452 C449 1.363 . S
C452 N450 1.356 1_556 S
C453 C447 1.363 . S
C453 C448 1.379 . S
C453 N451 1.356 . S
N454 C446 1.356 1_554 S
N454 H460 0.984 . S
N454 H461 0.984 . S
N455 C448 1.356 . S
N455 H458 0.984 . S
N455 H459 0.985 . S
H456 N451 0.984 . S
H457 N451 0.985 . S
H458 N455 0.984 . S
H459 N455 0.985 . S
H460 N454 0.984 . S
H461 N454 0.984 . S
H462 N450 0.984 . S
H463 N450 0.988 . S
C464 C465 1.363 1_455 S
C464 C470 1.379 . S
C464 N472 1.356 . S
C465 C464 1.363 1_655 S
C465 C471 1.363 1_556 S
C466 C467 1.363 1_654 S
C466 C471 1.379 . S
C466 N473 1.356 . S
C467 C466 1.363 1_456 S
C467 C470 1.363 . S
N468 C470 1.356 . S
N468 H480 0.984 . S
N468 H481 0.985 . S
N469 C471 1.356 . S
N469 H474 0.984 . S
N469 H475 0.985 . S
C470 C464 1.379 . S
C470 C467 1.363 . S
C470 N468 1.356 . S
C471 C465 1.363 1_554 S
C471 C466 1.379 . S
C471 N469 1.356 . S
N472 C464 1.356 . S
N472 H478 0.984 . S
N472 H479 0.984 1_455 S
N473 C466 1.356 . S
N473 H476 0.984 . S
N473 H477 0.985 . S
H474 N469 0.984 . S
H475 N469 0.985 . S
H476 N473 0.984 . S
H477 N473 0.985 . S
H478 N472 0.984 . S
H479 N472 0.984 1_655 S
H480 N468 0.984 . S
H481 N468 0.985 . S
C482 C483 1.363 1_545 S
C482 C488 1.379 . S
C482 N490 1.356 . S
C483 C482 1.363 1_565 S
C483 C489 1.363 . S
C484 C485 1.363 1_565 S
C484 C489 1.379 . S
C484 N491 1.356 1_556 S
C485 C484 1.363 1_545 S
C485 C488 1.363 . S
N486 C488 1.356 . S
N486 H498 0.984 . S
N486 H499 0.985 . S
N487 C489 1.356 1_554 S
N487 H492 0.984 . S
N487 H493 0.985 . S
C488 C482 1.379 . S
C488 C485 1.363 . S
C488 N486 1.356 . S
C489 C483 1.363 . S
C489 C484 1.379 . S
C489 N487 1.356 1_556 S
N490 C482 1.356 . S
N490 H496 0.984 . S
N490 H497 0.984 1_545 S
N491 C484 1.356 1_554 S
N491 H494 0.984 1_565 S
N491 H495 0.985 . S
H492 N487 0.984 . S
H493 N487 0.985 . S
H494 N491 0.984 1_545 S
H495 N491 0.985 . S
H496 N490 0.984 . S
H497 N490 0.984 1_565 S
H498 N486 0.984 . S
H499 N486 0.985 . S
C500 C501 1.363 . S
C500 C506 1.379 . S
C500 N508 1.356 . S
C501 C500 1.363 . S
C501 C507 1.363 . S
C502 C503 1.363 . S
C502 C507 1.379 . S
C502 N509 1.356 . S
C503 C502 1.363 . S
C503 C506 1.363 . S
N504 C506 1.356 . S
N504 H516 0.984 . S
N504 H517 0.985 . S
N505 C507 1.356 . S
N505 H510 0.984 . S
N505 H511 0.985 . S
C506 C500 1.379 . S
C506 C503 1.363 . S
C506 N504 1.356 . S
C507 C501 1.363 . S
C507 C502 1.379 . S
C507 N505 1.356 . S
N508 C500 1.356 . S
N508 H514 0.984 . S
N508 H515 0.984 . S
N509 C502 1.356 . S
N509 H512 0.984 . S
N509 H513 0.985 . S
H510 N505 0.984 . S
H511 N505 0.985 . S
H512 N509 0.984 . S
H513 N509 0.985 . S
H514 N508 0.984 . S
H515 N508 0.984 . S
H516 N504 0.984 . S
H517 N504 0.985 . S
C518 C519 1.363 . S
C518 C524 1.379 . S
C518 N526 1.356 . S
C519 C518 1.363 . S
C519 C525 1.363 . S
C520 C521 1.363 . S
C520 C525 1.379 . S
C520 N527 1.356 1_556 S
C521 C520 1.363 . S
C521 C524 1.363 . S
N522 C524 1.356 . S
N522 H534 0.984 . S
N522 H535 0.985 . S
N523 C525 1.356 1_554 S
N523 H528 0.984 1_554 S
N523 H529 0.985 . S
C524 C518 1.379 . S
C524 C521 1.363 . S
C524 N522 1.356 . S
C525 C519 1.363 . S
C525 C520 1.379 . S
C525 N523 1.356 1_556 S
N526 C518 1.356 . S
N526 H532 0.984 . S
N526 H533 0.984 . S
N527 C520 1.356 1_554 S
N527 H530 0.984 . S
N527 H531 0.985 . S
H528 N523 0.984 1_556 S
H529 N523 0.985 . S
H530 N527 0.984 . S
H531 N527 0.985 . S
H532 N526 0.984 . S
H533 N526 0.984 . S
H534 N522 0.984 . S
H535 N522 0.985 . S
C536 C537 1.363 . S
C536 C542 1.379 . S
C536 N544 1.356 . S
C537 C536 1.363 . S
C537 C543 1.363 . S
C538 C539 1.363 . S
C538 C543 1.379 . S
C538 N545 1.356 . S
C539 C538 1.363 . S
C539 C542 1.363 . S
N540 C542 1.356 . S
N540 H552 0.984 . S
N540 H553 0.985 . S
N541 C543 1.356 . S
N541 H546 0.984 . S
N541 H547 0.985 . S
C542 C536 1.379 . S
C542 C539 1.363 . S
C542 N540 1.356 . S
C543 C537 1.363 . S
C543 C538 1.379 . S
C543 N541 1.356 . S
N544 C536 1.356 . S
N544 H550 0.984 . S
N544 H551 0.984 . S
N545 C538 1.356 . S
N545 H548 0.984 . S
N545 H549 0.985 . S
H546 N541 0.984 . S
H547 N541 0.985 . S
H548 N545 0.984 . S
H549 N545 0.985 . S
H550 N544 0.984 . S
H551 N544 0.984 . S
H552 N540 0.984 . S
H553 N540 0.985 . S
C554 C555 1.363 . S
C554 C560 1.379 . S
C554 N562 1.356 . S
C555 C554 1.363 . S
C555 C561 1.363 . S
C556 C557 1.363 . S
C556 C561 1.379 . S
C556 N563 1.356 . S
C557 C556 1.363 . S
C557 C560 1.363 . S
N558 C560 1.356 . S
N558 H570 0.984 . S
N558 H571 0.985 . S
N559 C561 1.356 . S
N559 H564 0.984 . S
N559 H565 0.985 . S
C560 C554 1.379 . S
C560 C557 1.363 . S
C560 N558 1.356 . S
C561 C555 1.363 . S
C561 C556 1.379 . S
C561 N559 1.356 . S
N562 C554 1.356 . S
N562 H568 0.984 . S
N562 H569 0.984 . S
N563 C556 1.356 . S
N563 H566 0.984 . S
N563 H567 0.985 . S
H564 N559 0.984 . S
H565 N559 0.985 . S
H566 N563 0.984 . S
H567 N563 0.985 . S
H568 N562 0.984 . S
H569 N562 0.984 . S
H570 N558 0.984 . S
H571 N558 0.985 . S
C572 C573 1.363 . S
C572 C578 1.379 . S
C572 N580 1.356 . S
C573 C572 1.363 . S
C573 C579 1.363 . S
C574 C575 1.363 . S
C574 C579 1.379 . S
C574 N581 1.356 1_554 S
C575 C574 1.363 . S
C575 C578 1.363 . S
N576 C578 1.356 . S
N576 H588 0.984 . S
N576 H589 0.985 . S
N577 C579 1.356 . S
N577 H582 0.984 . S
N577 H583 0.985 . S
C578 C572 1.379 . S
C578 C575 1.363 . S
C578 N576 1.356 . S
C579 C573 1.363 . S
C579 C574 1.379 . S
C579 N577 1.356 . S
N580 C572 1.356 . S
N580 H586 0.984 . S
N580 H587 0.984 . S
N581 C574 1.356 1_556 S
N581 H584 0.984 . S
N581 H585 0.985 . S
H582 N577 0.984 . S
H583 N577 0.985 . S
H584 N581 0.984 . S
H585 N581 0.985 . S
H586 N580 0.984 . S
H587 N580 0.984 . S
H588 N576 0.984 . S
H589 N576 0.985 . S
C590 C591 1.363 . S
C590 C596 1.379 . S
C590 N598 1.356 . S
C591 C590 1.363 . S
C591 C597 1.363 . S
C592 C593 1.363 . S
C592 C597 1.379 . S
C592 N599 1.356 . S
C593 C592 1.363 . S
C593 C596 1.363 . S
N594 C596 1.356 . S
N594 H606 0.984 . S
N594 H607 0.985 . S
N595 C597 1.356 . S
N595 H600 0.984 . S
N595 H601 0.985 . S
C596 C590 1.379 . S
C596 C593 1.363 . S
C596 N594 1.356 . S
C597 C591 1.363 . S
C597 C592 1.379 . S
C597 N595 1.356 . S
N598 C590 1.356 . S
N598 H604 0.984 . S
N598 H605 0.984 . S
N599 C592 1.356 . S
N599 H602 0.984 . S
N599 H603 0.985 . S
H600 N595 0.984 . S
H601 N595 0.985 . S
H602 N599 0.984 . S
H603 N599 0.985 . S
H604 N598 0.984 . S
H605 N598 0.984 . S
H606 N594 0.984 . S
H607 N594 0.985 . S
C608 C609 1.363 . S
C608 C614 1.379 . S
C608 N616 1.356 . S
C609 C608 1.363 . S
C609 C615 1.363 . S
C610 C611 1.363 . S
C610 C615 1.379 . S
C610 N617 1.356 1_655 S
C611 C610 1.363 . S
C611 C614 1.363 . S
N612 C614 1.356 . S
N612 H624 0.984 . S
N612 H625 0.985 . S
N613 C615 1.356 1_455 S
N613 H618 0.984 1_455 S
N613 H619 0.985 . S
C614 C608 1.379 . S
C614 C611 1.363 . S
C614 N612 1.356 . S
C615 C609 1.363 . S
C615 C610 1.379 . S
C615 N613 1.356 1_655 S
N616 C608 1.356 . S
N616 H622 0.984 . S
N616 H623 0.984 . S
N617 C610 1.356 1_455 S
N617 H620 0.984 . S
N617 H621 0.985 . S
H618 N613 0.984 1_655 S
H619 N613 0.985 . S
H620 N617 0.984 . S
H621 N617 0.985 . S
H622 N616 0.984 . S
H623 N616 0.984 . S
H624 N612 0.984 . S
H625 N612 0.985 . S
C626 C627 1.363 . S
C626 C632 1.379 . S
C626 N634 1.356 . S
C627 C626 1.363 . S
C627 C633 1.363 . S
C628 C629 1.363 . S
C628 C633 1.379 . S
C628 N635 1.356 1_565 S
C629 C628 1.363 . S
C629 C632 1.363 . S
N630 C632 1.356 . S
N630 H642 0.984 . S
N630 H643 0.985 . S
N631 C633 1.356 1_545 S
N631 H636 0.984 . S
N631 H637 0.985 . S
C632 C626 1.379 . S
C632 C629 1.363 . S
C632 N630 1.356 . S
C633 C627 1.363 . S
C633 C628 1.379 . S
C633 N631 1.356 1_565 S
N634 C626 1.356 . S
N634 H640 0.984 . S
N634 H641 0.984 . S
N635 C628 1.356 1_545 S
N635 H638 0.984 1_545 S
N635 H639 0.985 . S
H636 N631 0.984 . S
H637 N631 0.985 . S
H638 N635 0.984 1_565 S
H639 N635 0.985 . S
H640 N634 0.984 . S
H641 N634 0.984 . S
H642 N630 0.984 . S
H643 N630 0.985 . S
C644 C645 1.363 . S
C644 C650 1.379 . S
C644 N652 1.356 . S
C645 C644 1.363 . S
C645 C651 1.363 . S
C646 C647 1.363 . S
C646 C651 1.379 . S
C646 N653 1.356 . S
C647 C646 1.363 . S
C647 C650 1.363 . S
N648 C650 1.356 . S
N648 H660 0.984 . S
N648 H661 0.985 . S
N649 C651 1.356 . S
N649 H654 0.984 . S
N649 H655 0.985 . S
C650 C644 1.379 . S
C650 C647 1.363 . S
C650 N648 1.356 . S
C651 C645 1.363 . S
C651 C646 1.379 . S
C651 N649 1.356 . S
N652 C644 1.356 . S
N652 H658 0.984 . S
N652 H659 0.984 . S
N653 C646 1.356 . S
N653 H656 0.984 . S
N653 H657 0.985 . S
H654 N649 0.984 . S
H655 N649 0.985 . S
H656 N653 0.984 . S
H657 N653 0.985 . S
H658 N652 0.984 . S
H659 N652 0.984 . S
H660 N648 0.984 . S
H661 N648 0.985 . S
C662 C663 1.363 . S
C662 C668 1.379 . S
C662 N670 1.356 . S
C663 C662 1.363 . S
C663 C669 1.363 . S
C664 C665 1.363 . S
C664 C669 1.379 . S
C664 N671 1.356 . S
C665 C664 1.363 . S
C665 C668 1.363 . S
N666 C668 1.356 . S
N666 H678 0.984 . S
N666 H679 0.985 . S
N667 C669 1.356 . S
N667 H672 0.984 . S
N667 H673 0.985 . S
C668 C662 1.379 . S
C668 C665 1.363 . S
C668 N666 1.356 . S
C669 C663 1.363 . S
C669 C664 1.379 . S
C669 N667 1.356 . S
N670 C662 1.356 . S
N670 H676 0.984 . S
N670 H677 0.984 . S
N671 C664 1.356 . S
N671 H674 0.984 . S
N671 H675 0.985 . S
H672 N667 0.984 . S
H673 N667 0.985 . S
H674 N671 0.984 . S
H675 N671 0.985 . S
H676 N670 0.984 . S
H677 N670 0.984 . S
H678 N666 0.984 . S
H679 N666 0.985 . S
C249 C74 1.720 . S
C251 C97 1.720 . S
C269 C137 1.386 . S
C267 C85 1.507 . S
C287 C186 1.472 . S
C285 C52 1.454 . S
C305 C217 1.826 . S
C303 C63 1.923 . S
C323 C106 1.720 . S
C321 C30 1.642 . S
C339 C41 1.443 . S
C341 C146 1.386 . S
C357 C8 1.464 . S
C359 C177 1.472 . S
C375 C19 1.837 1_556 S
C377 C226 1.826 . S
C395 C107 1.396 . S
C393 C62 1.364 . S
C413 C147 1.790 . S
C411 C73 1.775 . S
C431 C183 1.046 . S
C429 C84 1.041 . S
C447 C51 1.492 . S
C449 C227 1.540 . S
C465 C18 1.257 . S
C467 C98 1.396 . S
C485 C138 1.790 . S
C483 C29 1.612 . S
C503 C174 1.046 . S
C501 C40 1.010 . S
C519 C7 1.466 . S
C521 C218 1.540 . S
C537 C60 1.466 . S
C539 C103 1.659 . S
C555 C71 1.307 . S
C557 C143 1.496 . S
C575 C187 2.091 . S
C573 C82 1.702 . S
C593 C223 1.461 . S
C591 C49 1.205 . S
C609 C16 1.352 . S
C611 C94 1.659 . S
C629 C134 1.496 . S
C627 C27 1.399 . S
C647 C178 2.091 . S
C645 C38 1.573 . S
C663 C5 1.421 . S
C665 C214 1.460 . S
