# Generated by pormake.
# Topology anh, (6,3)-cn, num edge types: 1
# Building blocks:
#     Node 0, Type 0, BuildingBlock: HISSIN_clean_sbu_0, # of connection points: 6
#     Node 1, Type 0, BuildingBlock: HISSIN_clean_sbu_0, # of connection points: 6
#     Node 2, Type 0, BuildingBlock: HISSIN_clean_sbu_0, # of connection points: 6
#     Node 3, Type 1, BuildingBlock: OLANEW_clean_sbu_2, # of connection points: 3
#     Node 4, Type 1, BuildingBlock: OLANEW_clean_sbu_2, # of connection points: 3
#     Node 5, Type 1, BuildingBlock: OLANEW_clean_sbu_2, # of connection points: 3
#     Node 6, Type 1, BuildingBlock: OLANEW_clean_sbu_2, # of connection points: 3
#     Node 7, Type 1, BuildingBlock: OLANEW_clean_sbu_2, # of connection points: 3
#     Node 8, Type 1, BuildingBlock: OLANEW_clean_sbu_2, # of connection points: 3
#     Edge 9, Type (0, 1), BuildingBlock: UVAHIK_clean_linker_0, # of connection points: 2
#     Edge 10, Type (0, 1), BuildingBlock: UVAHIK_clean_linker_0, # of connection points: 2
#     Edge 11, Type (0, 1), BuildingBlock: UVAHIK_clean_linker_0, # of connection points: 2
#     Edge 12, Type (0, 1), BuildingBlock: UVAHIK_clean_linker_0, # of connection points: 2
#     Edge 13, Type (0, 1), BuildingBlock: UVAHIK_clean_linker_0, # of connection points: 2
#     Edge 14, Type (0, 1), BuildingBlock: UVAHIK_clean_linker_0, # of connection points: 2
#     Edge 15, Type (0, 1), BuildingBlock: UVAHIK_clean_linker_0, # of connection points: 2
#     Edge 16, Type (0, 1), BuildingBlock: UVAHIK_clean_linker_0, # of connection points: 2
#     Edge 17, Type (0, 1), BuildingBlock: UVAHIK_clean_linker_0, # of connection points: 2
#     Edge 18, Type (0, 1), BuildingBlock: UVAHIK_clean_linker_0, # of connection points: 2
#     Edge 19, Type (0, 1), BuildingBlock: UVAHIK_clean_linker_0, # of connection points: 2
#     Edge 20, Type (0, 1), BuildingBlock: UVAHIK_clean_linker_0, # of connection points: 2
#     Edge 21, Type (0, 1), BuildingBlock: UVAHIK_clean_linker_0, # of connection points: 2
#     Edge 22, Type (0, 1), BuildingBlock: UVAHIK_clean_linker_0, # of connection points: 2
#     Edge 23, Type (0, 1), BuildingBlock: UVAHIK_clean_linker_0, # of connection points: 2
#     Edge 24, Type (0, 1), BuildingBlock: UVAHIK_clean_linker_0, # of connection points: 2
#     Edge 25, Type (0, 1), BuildingBlock: UVAHIK_clean_linker_0, # of connection points: 2
#     Edge 26, Type (0, 1), BuildingBlock: UVAHIK_clean_linker_0, # of connection points: 2
# Relax obj value: 0.165
# Max RMSD: 0.126
# Mean RMSD: 0.108
data_MOF--net-anh--node1-HISSIN_clean_sbu_0--node2-OLANEW_clean_sbu_2--edge1-UVAHIK_clean_linker_0
_symmetry_space_group_name_H-M    P1
_symmetry_Int_Tables_number       1
_symmetry_cell_setting            triclinic
loop_
_symmetry_equiv_pos_as_xyz
'x, y, z'
_cell_length_a     45.380761
_cell_length_b     45.527407
_cell_length_c     64.91239
_cell_angle_alpha  93.113943
_cell_angle_beta   89.747412
_cell_angle_gamma 120.01028
loop_
_atom_site_label
_atom_site_type_symbol
_atom_site_fract_x
_atom_site_fract_y
_atom_site_fract_z
_atom_type_partial_charge
Eu0 Eu 1.00437 0.47851 0.17273 0.0
Eu1 Eu 0.04697 0.56104 0.18151 0.0
C2 C 0.02082 0.5127 0.21869 0.0
C3 C 0.93411 0.39008 0.15581 0.0
C4 C 0.90798 0.39769 0.15886 0.0
C5 C 0.89464 0.33826 0.13604 0.0
C6 C 0.87522 0.37537 0.15097 0.0
C7 C 0.92741 0.36053 0.14411 0.0
C8 C 0.86802 0.34517 0.13965 0.0
C9 C 0.96837 0.41298 0.16464 0.0
O10 O 0.08782 0.54625 0.18311 0.0
O11 O 0.05887 0.49162 0.16851 0.0
C12 C 0.08732 0.51878 0.17509 0.0
O13 O 1.00511 0.50263 0.14288 0.0
O14 O 0.08359 0.60669 0.19967 0.0
O15 O 0.05736 0.61084 0.17308 0.0
O16 O 0.05689 0.54963 0.14922 0.0
C17 C 0.03256 0.5288 0.13621 0.0
O18 O 0.96347 0.49227 0.17824 0.0
O19 O 0.99388 0.54886 0.17196 0.0
O20 O 0.02174 0.53912 0.21099 0.0
O21 O 0.9905 0.43378 0.15205 0.0
O22 O 0.96986 0.42782 0.1827 0.0
O23 O 0.02133 0.48894 0.2065 0.0
C24 C 0.11449 0.65246 0.17884 0.0
C25 C 0.12853 0.6439 0.16183 0.0
C26 C 0.16322 0.70941 0.18079 0.0
C27 C 0.1597 0.66805 0.15427 0.0
C28 C 0.1319 0.6853 0.18824 0.0
C29 C 0.17744 0.70097 0.16377 0.0
C30 C 0.08195 0.627 0.18686 0.0
C31 C 0.9647 0.52086 0.17427 0.0
H32 H 0.91274 0.4206 0.16767 0.0
H33 H 0.89012 0.31551 0.12714 0.0
H34 H 0.85534 0.38133 0.15437 0.0
H35 H 0.94744 0.35453 0.14139 0.0
H36 H 0.11545 0.61849 0.15449 0.0
H37 H 0.17626 0.73472 0.18828 0.0
H38 H 0.17027 0.66078 0.1413 0.0
H39 H 0.12135 0.69224 0.20138 0.0
Eu40 Eu 0.5737 0.03171 0.50816 0.0
Eu41 Eu 0.52773 0.06842 0.51329 0.0
C42 C 0.54934 0.04341 0.55286 0.0
C43 C 0.59949 0.96461 0.50489 0.0
C44 C 0.56564 0.93934 0.50758 0.0
C45 C 0.61597 0.92152 0.50203 0.0
C46 C 0.55689 0.90525 0.5072 0.0
C47 C 0.62466 0.95563 0.50231 0.0
C48 C 0.5819 0.89591 0.50422 0.0
C49 C 0.60808 0.99997 0.50347 0.0
O50 O 0.5799 0.10943 0.50392 0.0
O51 O 0.61161 0.08724 0.51584 0.0
C52 C 0.60954 0.11291 0.50912 0.0
O53 O 0.57675 0.05528 0.47803 0.0
O54 O 0.51994 0.10819 0.52787 0.0
O55 O 0.48319 0.0721 0.50505 0.0
O56 O 0.52574 0.05374 0.47945 0.0
C57 C 0.55136 0.05588 0.46892 0.0
O58 O 0.51939 0.99048 0.50026 0.0
O59 O 0.49104 0.01305 0.51822 0.0
O60 O 0.54525 0.06743 0.5455 0.0
O61 O 0.5927 1.00513 0.48838 0.0
O62 O 0.60809 0.01615 0.52069 0.0
O63 O 0.55411 0.02237 0.54058 0.0
C64 C 0.49544 0.12896 0.50547 0.0
C65 C 0.5074 0.13517 0.48528 0.0
C66 C 0.49429 0.18165 0.50736 0.0
C67 C 0.513 0.16464 0.47623 0.0
C68 C 0.48843 0.15207 0.5163 0.0
C69 C 0.50715 0.18859 0.48733 0.0
C70 C 0.49356 0.1005 0.51611 0.0
C71 C 0.49137 0.98713 0.50846 0.0
H72 H 0.54588 0.94594 0.5095 0.0
H73 H 0.6359 0.91521 0.50005 0.0
H74 H 0.53039 0.88619 0.50869 0.0
H75 H 0.6509 0.97493 0.50021 0.0
H76 H 0.5133 0.11773 0.47673 0.0
H77 H 0.49015 0.19976 0.51656 0.0
H78 H 0.52254 0.16896 0.46072 0.0
H79 H 0.47962 0.14786 0.53199 0.0
Eu80 Eu 0.47186 0.47411 0.83838 0.0
Eu81 Eu 0.55479 0.51754 0.84441 0.0
C82 C 0.50707 0.49435 0.88278 0.0
C83 C 0.38054 0.4531 0.83975 0.0
C84 C 0.38745 0.47773 0.85584 0.0
C85 C 0.32902 0.45375 0.83075 0.0
C86 C 0.36536 0.49036 0.85932 0.0
C87 C 0.35103 0.44092 0.82738 0.0
C88 C 0.3362 0.47889 0.84661 0.0
C89 C 0.40567 0.44276 0.83451 0.0
O90 O 0.54335 0.46414 0.83546 0.0
O91 O 0.48625 0.4336 0.8422 0.0
C92 C 0.51532 0.43504 0.83782 0.0
O93 O 0.49381 0.47064 0.80779 0.0
O94 O 0.60006 0.54959 0.86386 0.0
O95 O 0.60532 0.5358 0.83215 0.0
O96 O 0.5424 0.52213 0.81168 0.0
C97 C 0.51994 0.49641 0.79982 0.0
O98 O 0.48599 0.52823 0.83284 0.0
O99 O 0.53926 0.55762 0.84829 0.0
O100 O 0.53252 0.49301 0.8741 0.0
O101 O 0.42606 0.45918 0.81984 0.0
O102 O 0.42176 0.43927 0.84998 0.0
O103 O 0.4843 0.496 0.87132 0.0
C104 C 0.64529 0.53979 0.85637 0.0
C105 C 0.63422 0.50598 0.86062 0.0
C106 C 0.70367 0.55408 0.86262 0.0
C107 C 0.65783 0.4962 0.86571 0.0
C108 C 0.68004 0.56379 0.8575 0.0
C109 C 0.69285 0.52012 0.86667 0.0
C110 C 0.62082 0.54972 0.84985 0.0
C111 C 0.51244 0.55688 0.84003 0.0
H112 H 0.41045 0.48794 0.86533 0.0
H113 H 0.30663 0.44436 0.8208 0.0
H114 H 0.37183 0.51009 0.87144 0.0
H115 H 0.34552 0.42217 0.81476 0.0
H116 H 0.60736 0.48712 0.85976 0.0
H117 H 0.73049 0.573 0.86293 0.0
H118 H 0.64869 0.46997 0.86893 0.0
H119 H 0.68894 0.58993 0.85411 0.0
O120 O 0.51002 0.06894 0.24075 0.0
Cd121 Cd 0.48999 0.05877 0.20478 0.0
O122 O 0.53295 0.03621 0.2377 0.0
Cd123 Cd 0.51843 0.02041 0.2053 0.0
O124 O 0.49477 0.98763 0.17752 0.0
C125 C 0.47429 0.99097 0.16591 0.0
O126 O 0.46886 0.01644 0.16988 0.0
C127 C 0.52608 0.0559 0.2487 0.0
C128 C 0.54033 0.10207 0.17888 0.0
O129 O 0.53754 0.07372 0.18321 0.0
O130 O 0.51913 0.11005 0.18673 0.0
O131 O 0.5902 0.54817 0.57551 0.0
Cd132 Cd 0.60714 0.57105 0.54113 0.0
O133 O 0.54174 0.50046 0.56875 0.0
Cd134 Cd 0.53812 0.51463 0.53801 0.0
O135 O 0.53367 0.55011 0.51907 0.0
C136 C 0.51239 0.55887 0.52513 0.0
O137 O 0.49349 0.54423 0.54094 0.0
C138 C 0.56536 0.52069 0.58147 0.0
C139 C 0.61 0.52405 0.51298 0.0
O140 O 0.63336 0.54019 0.52692 0.0
O141 O 0.58599 0.53094 0.51189 0.0
O142 O 0.1199 0.68829 0.93341 0.0
Cd143 Cd 0.13928 0.70931 0.89934 0.0
O144 O 0.09554 0.63749 0.91787 0.0
Cd145 Cd 0.06499 0.58206 0.91547 0.0
O146 O 1.01393 0.53917 0.90959 0.0
C147 C 1.00179 0.53484 0.89137 0.0
O148 O 0.02179 0.55374 0.87705 0.0
C149 C 0.10196 0.65626 0.93438 0.0
C150 C 0.17077 0.67487 0.88261 0.0
O151 O 0.188 0.70361 0.89273 0.0
O152 O 0.13876 0.66298 0.87978 0.0
O153 O 0.08444 0.57406 0.44471 0.0
Cd154 Cd 0.11523 0.59965 0.47834 0.0
O155 O 0.03988 0.52653 0.45406 0.0
Cd156 Cd 0.98995 0.47791 0.45246 0.0
O157 O 0.94147 0.43281 0.46159 0.0
C158 C 0.92033 0.4093 0.44892 0.0
O159 O 0.92703 0.41131 0.42916 0.0
C160 C 0.05684 0.54632 0.43994 0.0
C161 C 0.1762 0.66376 0.47897 0.0
O162 O 0.1765 0.63596 0.47523 0.0
O163 O 0.14717 0.66152 0.48175 0.0
O164 O 0.52382 0.96172 0.7752 0.0
Cd165 Cd 0.51493 0.93444 0.80861 0.0
O166 O 0.52107 1.00727 0.78553 0.0
Cd167 Cd 0.52245 0.05718 0.78626 0.0
O168 O 0.52161 0.1049 0.79511 0.0
C169 C 0.52292 0.1255 0.78209 0.0
O170 O 0.52495 0.11855 0.7624 0.0
C171 C 0.5248 0.98933 0.77101 0.0
C172 C 0.51632 0.87284 0.8096 0.0
O173 O 0.48878 0.87285 0.80528 0.0
O174 O 0.54344 0.90179 0.81278 0.0
O175 O 0.56025 0.51867 0.10941 0.0
Cd176 Cd 0.58875 0.52807 0.14362 0.0
O177 O 0.5157 0.5236 0.11788 0.0
Cd178 Cd 0.46676 0.52422 0.11673 0.0
O179 O 0.42125 0.52939 0.12376 0.0
C180 C 0.39129 0.50369 0.12372 0.0
O181 O 0.38718 0.47343 0.11893 0.0
C182 C 0.53302 0.5184 0.10406 0.0
C183 C 0.64977 0.52521 0.1447 0.0
O184 O 0.62063 0.4985 0.14641 0.0
O185 O 0.65016 0.55308 0.14193 0.0
C186 C 0.11963 0.48859 0.1656 0.0
C187 C 0.11998 0.51872 0.17224 0.0
C188 C 0.14996 0.48852 0.16167 0.0
C189 C 0.2404 0.54474 0.14892 0.0
H190 H 0.24926 0.46801 0.16345 0.0
C191 C 0.36504 0.53903 0.13606 0.0
C192 C 0.36132 0.50732 0.12952 0.0
C193 C 0.33666 0.54183 0.14199 0.0
C194 C 0.24716 0.4895 0.15904 0.0
H195 H 0.15306 0.57253 0.18004 0.0
H196 H 0.20608 0.57235 0.17328 0.0
H197 H 0.19848 0.47035 0.17285 0.0
H198 H 0.32442 0.45379 0.12384 0.0
H199 H 0.2753 0.45869 0.1338 0.0
H200 H 0.28903 0.5637 0.1349 0.0
C201 C 0.18215 0.54875 0.17098 0.0
C202 C 0.21794 0.49087 0.16449 0.0
C203 C 0.15171 0.54879 0.17504 0.0
C204 C 0.32844 0.47862 0.12888 0.0
C205 C 0.30016 0.48141 0.13477 0.0
C206 C 0.26968 0.54334 0.14341 0.0
C207 C 0.1817 0.5186 0.16416 0.0
C208 C 0.2139 0.5183 0.15932 0.0
C209 C 0.30379 0.51298 0.14157 0.0
C210 C 0.27333 0.51548 0.14818 0.0
H211 H 0.09579 0.46492 0.16318 0.0
H212 H 0.14843 0.46489 0.15618 0.0
H213 H 0.23811 0.56612 0.14447 0.0
H214 H 0.38995 0.5617 0.13679 0.0
H215 H 0.34061 0.56654 0.14728 0.0
C216 C 0.64013 0.17266 0.49715 0.0
C217 C 0.64146 0.14542 0.50548 0.0
C218 C 0.67005 0.2022 0.49224 0.0
C219 C 0.76451 0.25008 0.5012 0.0
H220 H 0.7639 0.29153 0.45072 0.0
C221 C 0.8806 0.37702 0.47727 0.0
C222 C 0.88843 0.37988 0.4562 0.0
C223 C 0.85052 0.34925 0.48392 0.0
C224 C 0.76469 0.28022 0.46481 0.0
H225 H 0.6758 0.1285 0.51545 0.0
H226 H 0.72774 0.17968 0.50676 0.0
H227 H 0.7121 0.24198 0.4612 0.0
H228 H 0.87045 0.35532 0.42566 0.0
H229 H 0.81855 0.30706 0.4372 0.0
H230 H 0.8174 0.28787 0.50449 0.0
C231 C 0.70357 0.17845 0.50423 0.0
C232 C 0.73473 0.25194 0.47099 0.0
C233 C 0.67365 0.14891 0.50915 0.0
C234 C 0.86534 0.35418 0.442 0.0
C235 C 0.83532 0.32648 0.44863 0.0
C236 C 0.79451 0.27842 0.49502 0.0
C237 C 0.70225 0.20543 0.49548 0.0
C238 C 0.73416 0.2363 0.48924 0.0
C239 C 0.82736 0.32356 0.46968 0.0
C240 C 0.79513 0.29383 0.47665 0.0
H241 H 0.61589 0.17105 0.49413 0.0
H242 H 0.66787 0.22255 0.48586 0.0
H243 H 0.76513 0.23907 0.51545 0.0
H244 H 0.89768 0.39631 0.48867 0.0
H245 H 0.84521 0.34819 0.50022 0.0
C246 C 0.4834 0.58932 0.83033 0.0
C247 C 0.5125 0.58943 0.83789 0.0
C248 C 0.48385 0.61984 0.82741 0.0
C249 C 0.53238 0.71316 0.84172 0.0
H250 H 0.48389 0.7181 0.79422 0.0
C251 C 0.5462 0.84073 0.81819 0.0
C252 C 0.51651 0.84042 0.81167 0.0
C253 C 0.54595 0.81029 0.82115 0.0
C254 C 0.49731 0.71713 0.80769 0.0
H255 H 0.56489 0.62222 0.84844 0.0
H256 H 0.56583 0.67526 0.8431 0.0
H257 H 0.48287 0.6652 0.80014 0.0
H258 H 0.46328 0.80751 0.80293 0.0
H259 H 0.46282 0.75457 0.80807 0.0
H260 H 0.54698 0.76522 0.84917 0.0
C261 C 0.5424 0.65156 0.8397 0.0
C262 C 0.49668 0.68666 0.81113 0.0
C263 C 0.54192 0.62101 0.84269 0.0
C264 C 0.48667 0.80879 0.8079 0.0
C265 C 0.48645 0.77835 0.81077 0.0
C266 C 0.5331 0.74367 0.83824 0.0
C267 C 0.51344 0.65148 0.83189 0.0
C268 C 0.51415 0.68413 0.82823 0.0
C269 C 0.51602 0.77863 0.81759 0.0
C270 C 0.51554 0.74612 0.82118 0.0
H271 H 0.46017 0.56558 0.82656 0.0
H272 H 0.46081 0.61857 0.82174 0.0
H273 H 0.54571 0.71223 0.85524 0.0
H274 H 0.56967 0.86456 0.82125 0.0
H275 H 0.56934 0.8116 0.82613 0.0
C276 C 0.93254 0.55131 0.1671 0.0
C277 C 0.93223 0.52126 0.17161 0.0
C278 C 0.90206 0.55148 0.164 0.0
C279 C 0.80898 0.50241 0.17362 0.0
H280 H 0.80349 0.55637 0.13121 0.0
C281 C 0.68128 0.4937 0.15046 0.0
C282 C 0.68197 0.52414 0.14656 0.0
C283 C 0.7116 0.49301 0.15309 0.0
C284 C 0.80462 0.54142 0.14328 0.0
H285 H 0.89913 0.46775 0.17642 0.0
H286 H 0.84619 0.46796 0.17082 0.0
H287 H 0.85633 0.55592 0.13682 0.0
H288 H 0.7154 0.57772 0.14219 0.0
H289 H 0.76811 0.57658 0.14688 0.0
H290 H 0.75725 0.48791 0.18006 0.0
C291 C 0.87002 0.49159 0.16994 0.0
C292 C 0.83503 0.54119 0.14652 0.0
C293 C 0.90051 0.49143 0.17305 0.0
C294 C 0.71382 0.55378 0.1451 0.0
C295 C 0.74413 0.55308 0.1477 0.0
C296 C 0.77855 0.50263 0.17035 0.0
C297 C 0.87031 0.5216 0.1653 0.0
C298 C 0.83772 0.52173 0.16177 0.0
C299 C 0.7435 0.52273 0.15186 0.0
C300 C 0.77591 0.52218 0.15516 0.0
H301 H 0.95639 0.57483 0.1659 0.0
H302 H 0.90342 0.57521 0.16078 0.0
H303 H 0.81011 0.48752 0.18572 0.0
H304 H 0.65727 0.47035 0.15164 0.0
H305 H 0.70999 0.46905 0.15596 0.0
C306 C 0.45941 0.92456 0.49759 0.0
C307 C 0.4592 0.95359 0.50604 0.0
C308 C 0.42905 0.8933 0.4947 0.0
C309 C 0.33801 0.84684 0.51046 0.0
H310 H 0.32695 0.78753 0.46237 0.0
C311 C 0.20814 0.72707 0.4874 0.0
C312 C 0.20846 0.69725 0.48083 0.0
C313 C 0.23859 0.75825 0.4902 0.0
C314 C 0.32968 0.80361 0.47599 0.0
H315 H 0.42649 0.97216 0.51808 0.0
H316 H 0.37372 0.91809 0.5127 0.0
H317 H 0.37984 0.84151 0.46798 0.0
H318 H 0.24136 0.67723 0.47179 0.0
H319 H 0.29435 0.73154 0.47656 0.0
H320 H 0.28764 0.80901 0.51831 0.0
C321 C 0.3974 0.91918 0.50864 0.0
C322 C 0.36017 0.83466 0.47926 0.0
C323 C 0.42778 0.95038 0.51165 0.0
C324 C 0.24006 0.69962 0.47681 0.0
C325 C 0.27051 0.73086 0.47948 0.0
C326 C 0.30746 0.81589 0.50711 0.0
C327 C 0.39749 0.89011 0.50005 0.0
C328 C 0.36488 0.8568 0.49657 0.0
C329 C 0.27026 0.7606 0.48638 0.0
C330 C 0.30283 0.79379 0.48984 0.0
H331 H 0.48308 0.9259 0.49318 0.0
H332 H 0.43046 0.87153 0.48841 0.0
H333 H 0.34068 0.8627 0.52417 0.0
H334 H 0.18434 0.72629 0.49065 0.0
H335 H 0.23729 0.78063 0.49527 0.0
C336 C 0.48654 0.37091 0.83437 0.0
C337 C 0.51641 0.40287 0.83439 0.0
C338 C 0.48753 0.34088 0.82989 0.0
C339 C 0.54077 0.30957 0.80389 0.0
H340 H 0.48296 0.22704 0.83143 0.0
C341 C 0.52409 0.17966 0.77432 0.0
C342 C 0.5222 0.15702 0.78889 0.0
C343 C 0.52353 0.20936 0.7805 0.0
C344 C 0.4995 0.24991 0.82368 0.0
H345 H 0.57101 0.42791 0.83024 0.0
H346 H 0.57273 0.37585 0.82272 0.0
H347 H 0.4822 0.27911 0.84159 0.0
H348 H 0.51817 0.14818 0.82154 0.0
H349 H 0.51745 0.20012 0.83233 0.0
H350 H 0.55845 0.28064 0.78619 0.0
C351 C 0.54836 0.37391 0.82578 0.0
C352 C 0.49877 0.27975 0.82935 0.0
C353 C 0.54738 0.40388 0.83024 0.0
C354 C 0.51962 0.16493 0.80986 0.0
C355 C 0.51901 0.19469 0.81604 0.0
C356 C 0.54144 0.27977 0.79819 0.0
C357 C 0.51841 0.34194 0.82529 0.0
C358 C 0.51937 0.31005 0.81952 0.0
C359 C 0.52106 0.21742 0.80145 0.0
C360 C 0.52073 0.24941 0.80793 0.0
H361 H 0.46219 0.36903 0.83743 0.0
H362 H 0.46387 0.31685 0.82949 0.0
H363 H 0.55673 0.33217 0.79575 0.0
H364 H 0.52595 0.17446 0.75804 0.0
H365 H 0.52461 0.22583 0.76874 0.0
C366 C 0.54782 0.83672 0.51611 0.0
C367 C 0.57233 0.85955 0.50298 0.0
C368 C 0.53854 0.80245 0.51477 0.0
C369 C 0.57056 0.7457 0.49868 0.0
H370 H 0.47628 0.67502 0.50285 0.0
C371 C 0.53478 0.60601 0.50096 0.0
C372 C 0.5127 0.58857 0.51679 0.0
C373 C 0.53873 0.63691 0.49526 0.0
C374 C 0.50272 0.69447 0.50172 0.0
H375 H 0.6058 0.8641 0.47784 0.0
H376 H 0.58997 0.8043 0.47578 0.0
H377 H 0.49036 0.73408 0.50115 0.0
H378 H 0.47588 0.58875 0.53817 0.0
H379 H 0.48322 0.64276 0.52854 0.0
H380 H 0.58319 0.70651 0.50002 0.0
C381 C 0.57813 0.81306 0.48718 0.0
C382 C 0.51076 0.72824 0.50076 0.0
C383 C 0.5873 0.84731 0.48844 0.0
C384 C 0.49319 0.6016 0.52595 0.0
C385 C 0.49724 0.63253 0.52033 0.0
C386 C 0.56256 0.71199 0.49976 0.0
C387 C 0.55367 0.7903 0.50034 0.0
C388 C 0.5448 0.75423 0.49959 0.0
C389 C 0.52075 0.651 0.50533 0.0
C390 C 0.5286 0.68605 0.50165 0.0
H391 H 0.53617 0.84541 0.52767 0.0
H392 H 0.52004 0.78559 0.52535 0.0
H393 H 0.59705 0.76525 0.49801 0.0
H394 H 0.54995 0.59645 0.49347 0.0
H395 H 0.55657 0.65022 0.48337 0.0
C396 C 0.74658 0.53081 0.88431 0.0
C397 C 0.71819 0.50974 0.87137 0.0
C398 C 0.7717 0.52236 0.88766 0.0
C399 C 0.80894 0.47451 0.86307 0.0
H400 H 0.86002 0.50041 0.91498 0.0
C401 C 0.95042 0.51722 0.86892 0.0
C402 C 0.96455 0.51477 0.88751 0.0
C403 C 0.91549 0.50482 0.86687 0.0
C404 C 0.84572 0.49221 0.90047 0.0
H405 H 0.69346 0.46278 0.85218 0.0
H406 H 0.7372 0.4477 0.85831 0.0
H407 H 0.807 0.50111 0.91293 0.0
H408 H 0.9527 0.49396 0.91768 0.0
H409 H 0.89155 0.47153 0.91392 0.0
H410 H 0.84791 0.46596 0.85056 0.0
C411 C 0.74013 0.47096 0.8657 0.0
C412 C 0.81551 0.49313 0.89924 0.0
C413 C 0.71495 0.47944 0.86235 0.0
C414 C 0.94264 0.49673 0.90327 0.0
C415 C 0.90762 0.48405 0.90116 0.0
C416 C 0.83909 0.47337 0.86433 0.0
C417 C 0.76901 0.49256 0.87819 0.0
C418 C 0.79749 0.4856 0.88035 0.0
C419 C 0.89385 0.48937 0.88332 0.0
C420 C 0.85852 0.48346 0.88286 0.0
H421 H 0.7496 0.55411 0.8917 0.0
H422 H 0.79382 0.53986 0.89713 0.0
H423 H 0.7957 0.46856 0.84826 0.0
H424 H 0.96655 0.53076 0.8564 0.0
H425 H 0.90595 0.50961 0.85294 0.0
C426 C 0.2167 0.73123 0.13519 0.0
C427 C 0.21116 0.72621 0.15637 0.0
C428 C 0.24848 0.75585 0.12845 0.0
C429 C 0.33871 0.80856 0.1455 0.0
H430 H 0.34032 0.87619 0.11098 0.0
C431 C 0.41963 0.95827 0.14566 0.0
C432 C 0.45122 0.96227 0.15155 0.0
C433 C 0.39396 0.92706 0.13712 0.0
C434 C 0.34039 0.85737 0.12045 0.0
H435 H 0.23459 0.74203 0.18698 0.0
H436 H 0.28971 0.78506 0.17532 0.0
H437 H 0.28685 0.82357 0.11539 0.0
H438 H 0.48254 0.93866 0.15026 0.0
H439 H 0.43808 0.8845 0.13471 0.0
H440 H 0.39122 0.84306 0.1521 0.0
C441 C 0.26974 0.76994 0.16388 0.0
C442 C 0.30981 0.8271 0.12283 0.0
C443 C 0.23805 0.74563 0.1706 0.0
C444 C 0.45813 0.93601 0.14631 0.0
C445 C 0.4326 0.90494 0.13747 0.0
C446 C 0.36913 0.83876 0.14323 0.0
C447 C 0.27527 0.77546 0.14276 0.0
C448 C 0.30843 0.80323 0.13622 0.0
C449 C 0.39957 0.89941 0.13407 0.0
C450 C 0.37001 0.86429 0.1315 0.0
H451 H 0.19629 0.71664 0.12391 0.0
H452 H 0.25207 0.75964 0.11209 0.0
H453 H 0.33848 0.79025 0.15558 0.0
H454 H 0.41363 0.97816 0.14931 0.0
H455 H 0.3689 0.92389 0.13476 0.0
C456 C 0.54704 0.23941 0.46793 0.0
C457 C 0.51684 0.22186 0.47888 0.0
C458 C 0.55878 0.27281 0.46272 0.0
C459 C 0.53536 0.34113 0.46385 0.0
H460 H 0.63161 0.39988 0.47653 0.0
C461 C 0.58718 0.48264 0.48232 0.0
C462 C 0.60859 0.49574 0.49999 0.0
C463 C 0.58101 0.45213 0.4722 0.0
C464 C 0.60467 0.3839 0.47296 0.0
H465 H 0.47387 0.22473 0.49134 0.0
H466 H 0.49505 0.28316 0.48338 0.0
H467 H 0.60821 0.33893 0.47279 0.0
H468 H 0.64209 0.48855 0.52015 0.0
H469 H 0.63024 0.43484 0.50329 0.0
H470 H 0.53111 0.38569 0.46609 0.0
C471 C 0.50956 0.27121 0.4784 0.0
C472 C 0.59126 0.3488 0.47045 0.0
C473 C 0.49762 0.23774 0.48333 0.0
C474 C 0.62549 0.47906 0.50654 0.0
C475 C 0.61881 0.44824 0.4967 0.0
C476 C 0.54862 0.37614 0.46678 0.0
C477 C 0.54083 0.28957 0.46857 0.0
C478 C 0.55615 0.32684 0.46673 0.0
C479 C 0.59552 0.43372 0.47983 0.0
C480 C 0.58321 0.39788 0.47224 0.0
H481 H 0.56262 0.22807 0.46429 0.0
H482 H 0.58259 0.28586 0.45478 0.0
H483 H 0.50839 0.32512 0.46038 0.0
H484 H 0.57418 0.49528 0.47677 0.0
H485 H 0.56371 0.4423 0.45892 0.0
C486 C 0.3058 0.50121 0.86901 0.0
C487 C 0.31464 0.49471 0.84923 0.0
C488 C 0.28813 0.51888 0.87162 0.0
C489 C 0.23704 0.54805 0.84379 0.0
H490 H 0.26774 0.61591 0.88952 0.0
C491 C 0.22246 0.66935 0.87746 0.0
C492 C 0.18702 0.65505 0.87556 0.0
C493 C 0.23755 0.64967 0.87271 0.0
C494 C 0.25909 0.59734 0.87653 0.0
H495 H 0.31139 0.50104 0.81661 0.0
H496 H 0.28083 0.53223 0.82114 0.0
H497 H 0.29396 0.58092 0.88444 0.0
H498 H 0.13966 0.60919 0.8666 0.0
H499 H 0.16595 0.57467 0.85865 0.0
H500 H 0.20276 0.56524 0.8356 0.0
C501 C 0.28703 0.5232 0.83464 0.0
C502 C 0.27376 0.57687 0.87381 0.0
C503 C 0.30455 0.50534 0.83203 0.0
C504 C 0.16708 0.62097 0.86816 0.0
C505 C 0.18216 0.60121 0.86353 0.0
C506 C 0.2224 0.56864 0.84647 0.0
C507 C 0.27911 0.53066 0.8545 0.0
C508 C 0.26289 0.55193 0.85744 0.0
C509 C 0.21752 0.61518 0.86611 0.0
C510 C 0.2333 0.59356 0.86288 0.0
H511 H 0.31285 0.4929 0.88252 0.0
H512 H 0.28177 0.52357 0.88709 0.0
H513 H 0.22791 0.5289 0.83111 0.0
H514 H 0.23855 0.69561 0.88297 0.0
H515 H 0.26494 0.66141 0.87445 0.0
C516 C 0.80975 0.33065 0.12686 0.0
C517 C 0.83239 0.31997 0.13311 0.0
C518 C 0.77506 0.30729 0.12396 0.0
C519 C 0.71076 0.21571 0.11898 0.0
H520 H 0.65814 0.24125 0.15526 0.0
C521 C 0.57059 0.15586 0.16027 0.0
C522 C 0.5683 0.12549 0.166 0.0
C523 C 0.59887 0.17935 0.14976 0.0
C524 C 0.67199 0.23384 0.14459 0.0
H525 H 0.83642 0.27592 0.13996 0.0
H526 H 0.77619 0.2353 0.13452 0.0
H527 H 0.71594 0.28347 0.14737 0.0
H528 H 0.593 0.09515 0.16436 0.0
H529 H 0.64257 0.13632 0.14675 0.0
H530 H 0.66713 0.16577 0.11669 0.0
C531 C 0.7853 0.26172 0.13182 0.0
C532 C 0.70523 0.25811 0.14009 0.0
C533 C 0.81989 0.28508 0.13493 0.0
C534 C 0.59403 0.11837 0.16021 0.0
C535 C 0.62237 0.14191 0.14989 0.0
C536 C 0.67735 0.19147 0.1233 0.0
C537 C 0.7624 0.27275 0.12699 0.0
C538 C 0.72534 0.24896 0.1279 0.0
C539 C 0.62553 0.17303 0.14493 0.0
C540 C 0.65806 0.19993 0.13685 0.0
H541 H 0.81865 0.35724 0.12485 0.0
H542 H 0.75794 0.31638 0.12004 0.0
H543 H 0.72565 0.20815 0.10933 0.0
H544 H 0.55094 0.16187 0.16433 0.0
H545 H 0.60022 0.20282 0.14587 0.0
C546 C 1.00906 0.51843 0.09971 0.0
C547 C 0.03572 0.5372 0.1143 0.0
C548 C 1.01186 0.52883 0.07948 0.0
C549 C 0.0568 0.60599 0.05076 0.0
H550 H 0.03885 0.54596 1.00195 0.0
C551 C 0.11007 0.65743 0.97237 0.0
C552 C 0.08985 0.64144 0.9545 0.0
C553 C 0.09951 0.64334 0.99145 0.0
C554 C 0.04344 0.56293 0.01543 0.0
H555 H 0.08671 0.5808 0.1188 0.0
H556 H 0.09136 0.59861 0.08392 0.0
H557 H 0.02701 0.52263 0.0361 0.0
H558 H 0.04157 0.59947 0.9428 0.0
H559 H 0.02332 0.57439 0.97612 0.0
H560 H 0.07358 0.64633 0.03036 0.0
C561 C 0.06814 0.57625 0.08808 0.0
C562 C 0.03667 0.54956 0.03494 0.0
C563 C 0.06548 0.56584 0.10809 0.0
C564 C 0.05838 0.61153 0.95615 0.0
C565 C 0.04778 0.59736 0.97527 0.0
C566 C 0.06343 0.61928 0.03135 0.0
C567 C 0.04121 0.55828 0.07365 0.0
C568 C 0.04416 0.57116 0.05281 0.0
C569 C 0.0683 0.61308 0.99312 0.0
C570 C 0.05769 0.59809 0.01348 0.0
H571 H 0.98584 0.49623 0.10401 0.0
H572 H 0.99075 0.51448 0.06859 0.0
H573 H 0.06214 0.62313 0.06426 0.0
H574 H 0.13444 0.68053 0.97155 0.0
H575 H 0.11616 0.65588 0.00484 0.0
C576 C 0.58242 0.07195 0.43577 0.0
C577 C 0.5519 0.05973 0.44646 0.0
C578 C 0.58288 0.07574 0.41453 0.0
C579 C 0.53102 0.07888 0.37115 0.0
H580 H 0.58943 0.05735 0.33769 0.0
C581 C 0.54338 0.04023 0.28095 0.0
C582 C 0.53489 0.06177 0.27103 0.0
C583 C 0.54887 0.04369 0.3023 0.0
C584 C 0.57274 0.06322 0.34676 0.0
H585 H 0.49786 0.04167 0.44329 0.0
H586 H 0.49831 0.04691 0.40621 0.0
H587 H 0.59085 0.05485 0.37491 0.0
H588 H 0.527 0.10484 0.2756 0.0
H589 H 0.53783 0.11175 0.31281 0.0
H590 H 0.51139 0.08519 0.34293 0.0
C591 C 0.52218 0.05464 0.41423 0.0
C592 C 0.57394 0.0623 0.3682 0.0
C593 C 0.52184 0.05135 0.4355 0.0
C594 C 0.53321 0.08766 0.28283 0.0
C595 C 0.53919 0.09145 0.30419 0.0
C596 C 0.52947 0.07933 0.34969 0.0
C597 C 0.55271 0.06693 0.40344 0.0
C598 C 0.55282 0.06975 0.38068 0.0
C599 C 0.54651 0.06912 0.31426 0.0
C600 C 0.55004 0.07112 0.33718 0.0
H601 H 0.60609 0.07898 0.44385 0.0
H602 H 0.60698 0.08585 0.40686 0.0
H603 H 0.51485 0.08544 0.38023 0.0
H604 H 0.54466 0.01987 0.27233 0.0
H605 H 0.55382 0.02561 0.30946 0.0
C606 C 0.50082 0.4691 0.76416 0.0
C607 C 0.52464 0.49623 0.77727 0.0
C608 C 0.50559 0.46881 0.74288 0.0
C609 C 0.57166 0.50598 0.70372 0.0
H610 H 0.49524 0.48148 0.66645 0.0
C611 C 0.58746 0.53686 0.61804 0.0
C612 C 0.56286 0.51341 0.60357 0.0
C613 C 0.58349 0.53165 0.63911 0.0
C614 C 0.51674 0.48784 0.67662 0.0
H615 H 0.57217 0.54433 0.77828 0.0
H616 H 0.58026 0.54392 0.74119 0.0
H617 H 0.4866 0.47852 0.70352 0.0
H618 H 0.51549 0.46532 0.59988 0.0
H619 H 0.50882 0.45606 0.63665 0.0
H620 H 0.60188 0.51569 0.67682 0.0
C621 C 0.55812 0.52268 0.74739 0.0
C622 C 0.51178 0.4862 0.69786 0.0
C623 C 0.55333 0.52302 0.76864 0.0
C624 C 0.53483 0.48401 0.61061 0.0
C625 C 0.53088 0.47878 0.6317 0.0
C626 C 0.57661 0.50758 0.68246 0.0
C627 C 0.53432 0.49558 0.73427 0.0
C628 C 0.53926 0.49562 0.71166 0.0
C629 C 0.55487 0.50284 0.6462 0.0
C630 C 0.54928 0.49888 0.66868 0.0
H631 H 0.4785 0.448 0.77031 0.0
H632 H 0.48696 0.44743 0.73319 0.0
H633 H 0.59322 0.51286 0.71395 0.0
H634 H 0.60937 0.5598 0.61317 0.0
H635 H 0.60227 0.55085 0.64988 0.0
C636 C 0.53902 0.05951 0.5887 0.0
C637 C 0.54817 0.03993 0.57554 0.0
C638 C 0.53771 0.05623 0.61005 0.0
C639 C 0.57002 0.02762 0.65212 0.0
H640 H 0.49365 0.02234 0.68219 0.0
C641 C 0.54374 0.98473 0.73535 0.0
C642 C 0.53037 0.99953 0.7493 0.0
C643 C 0.54747 0.99219 0.71459 0.0
C644 C 0.51547 0.02434 0.67414 0.0
H645 H 0.56324 1.00156 0.57466 0.0
H646 H 0.56103 0.99592 0.61191 0.0
H647 H 0.4969 0.03005 0.64519 0.0
H648 H 0.50991 0.03354 0.75198 0.0
H649 H 0.51749 0.04754 0.71588 0.0
H650 H 0.58874 0.02208 0.68098 0.0
C651 C 0.55504 0.01397 0.60568 0.0
C652 C 0.51726 0.02865 0.65287 0.0
C653 C 0.55611 0.01707 0.5843 0.0
C654 C 0.52107 0.0223 0.74191 0.0
C655 C 0.5249 0.02988 0.72105 0.0
C656 C 0.56835 0.02353 0.67338 0.0
C657 C 0.54576 0.03347 0.61882 0.0
C658 C 0.54437 0.02998 0.64156 0.0
C659 C 0.53799 0.01475 0.70708 0.0
C660 C 0.54085 0.02142 0.68466 0.0
H661 H 0.53272 0.07738 0.58253 0.0
H662 H 0.53079 0.07186 0.61973 0.0
H663 H 0.59157 0.02917 0.64395 0.0
H664 H 0.55108 0.96695 0.74042 0.0
H665 H 0.55704 0.97952 0.70432 0.0
C666 C 0.48172 0.50252 0.91567 0.0
C667 C 0.50437 0.49427 0.90558 0.0
C668 C 0.47991 0.50309 0.93725 0.0
C669 C 0.49801 0.46907 0.98272 0.0
H670 H 0.50387 0.5473 0.01351 0.0
C671 C 0.5366 0.49679 0.06854 0.0
C672 C 0.52263 0.51181 0.08182 0.0
C673 C 0.52946 0.49231 0.04735 0.0
C674 C 0.50154 0.52494 0.00519 0.0
H675 H 0.54261 0.47982 0.91029 0.0
H676 H 0.53911 0.4804 0.94777 0.0
H677 H 0.50056 0.54394 0.97579 0.0
H678 H 0.49017 0.53413 0.08294 0.0
H679 H 0.47686 0.52547 0.04585 0.0
H680 H 0.499 0.44994 0.01189 0.0
C681 C 0.52274 0.48642 0.93902 0.0
C682 C 0.49976 0.52309 0.98355 0.0
C683 C 0.52488 0.48628 0.91753 0.0
C684 C 0.50083 0.52185 0.07331 0.0
C685 C 0.4936 0.51732 0.05196 0.0
C686 C 0.49947 0.47074 0.00428 0.0
C687 C 0.50032 0.4949 0.94916 0.0
C688 C 0.4988 0.4955 0.97208 0.0
C689 C 0.50801 0.50262 0.03869 0.0
C690 C 0.50215 0.4991 0.01583 0.0
H691 H 0.46562 0.50889 0.90693 0.0
H692 H 0.46229 0.50959 0.94462 0.0
H693 H 0.49661 0.44715 0.97432 0.0
H694 H 0.55359 0.4888 0.07447 0.0
H695 H 0.54164 0.48156 0.03769 0.0
C696 C 0.02769 0.54012 0.25409 0.0
C697 C 0.02085 0.51115 0.24151 0.0
C698 C 0.02923 0.53996 0.27553 0.0
C699 C 1.00168 0.48744 0.31982 0.0
H700 H 0.08107 0.56411 0.34674 0.0
C701 C 0.02949 0.50451 0.40925 0.0
C702 C 0.04572 0.53806 0.41791 0.0
C703 C 0.02404 0.49802 0.38777 0.0
C704 C 0.05846 0.54273 0.33958 0.0
H705 H 1.00933 0.45885 0.24179 0.0
H706 H 1.01157 0.45848 0.27965 0.0
H707 H 0.07625 0.55824 0.30932 0.0
H708 H 0.06683 0.59082 0.41109 0.0
H709 H 0.05627 0.57961 0.37411 0.0
H710 H 0.98347 0.47248 0.35025 0.0
C711 C 1.0159 0.48134 0.27266 0.0
C712 C 0.05586 0.53928 0.31808 0.0
C713 C 1.01479 0.48163 0.25103 0.0
C714 C 0.05465 0.56471 0.40486 0.0
C715 C 0.04887 0.55826 0.38359 0.0
C716 C 1.00412 0.49108 0.34149 0.0
C717 C 0.02366 0.51074 0.28509 0.0
C718 C 0.02723 0.51198 0.30793 0.0
C719 C 0.03455 0.52498 0.37462 0.0
C720 C 0.03227 0.51922 0.35164 0.0
H721 H 0.03247 0.56334 0.2474 0.0
H722 H 0.03489 0.56286 0.2847 0.0
H723 H 0.97929 0.46617 0.31238 0.0
H724 H 0.02264 0.48347 0.41891 0.0
H725 H 1.01298 0.47207 0.38144 0.0
loop_
_geom_bond_atom_site_label_1
_geom_bond_atom_site_label_2
_geom_bond_distance
_geom_bond_site_symmetry_2
_ccdc_geom_bond_type
Eu0 C9 2.828 . S
Eu0 O11 2.392 1_655 S
Eu0 O13 2.418 . S
Eu0 O18 2.373 . S
Eu0 O21 2.488 . S
Eu0 O22 2.471 . S
Eu0 O23 2.349 . S
Eu1 O10 2.373 . S
Eu1 O14 2.488 . S
Eu1 O15 2.471 . S
Eu1 O16 2.349 . S
Eu1 O19 2.392 1_455 S
Eu1 O20 2.418 . S
Eu1 C30 2.828 . S
C2 O20 1.244 . S
C2 O23 1.265 1_455 S
C3 C4 1.379 . S
C3 C7 1.373 . S
C3 C9 1.505 . S
C4 C3 1.379 . S
C4 C6 1.369 . S
C4 H32 0.930 . S
C5 C7 1.383 . S
C5 C8 1.382 . S
C5 H33 0.930 . S
C6 C4 1.369 . S
C6 C8 1.392 . S
C6 H34 0.930 . S
C7 C3 1.373 . S
C7 C5 1.383 . S
C7 H35 0.931 . S
C8 C5 1.382 . S
C8 C6 1.392 . S
C9 Eu0 2.828 . S
C9 C3 1.505 . S
C9 O21 1.249 . S
C9 O22 1.244 . S
O10 Eu1 2.373 . S
O10 C12 1.258 . S
O11 Eu0 2.392 1_455 S
O11 C12 1.242 . S
C12 O10 1.258 . S
C12 O11 1.242 . S
O13 Eu0 2.418 . S
O13 C17 1.244 . S
O14 Eu1 2.488 . S
O14 C30 1.249 . S
O15 Eu1 2.471 . S
O15 C30 1.244 . S
O16 Eu1 2.349 . S
O16 C17 1.265 1_455 S
C17 O13 1.244 . S
C17 O16 1.265 1_655 S
O18 Eu0 2.373 . S
O18 C31 1.258 . S
O19 Eu1 2.392 1_655 S
O19 C31 1.242 . S
O20 Eu1 2.418 . S
O20 C2 1.244 . S
O21 Eu0 2.488 . S
O21 C9 1.249 . S
O22 Eu0 2.471 . S
O22 C9 1.244 . S
O23 Eu0 2.349 . S
O23 C2 1.265 1_655 S
C24 C25 1.379 . S
C24 C28 1.373 . S
C24 C30 1.505 . S
C25 C24 1.379 . S
C25 C27 1.369 . S
C25 H36 0.930 . S
C26 C28 1.383 . S
C26 C29 1.382 . S
C26 H37 0.930 . S
C27 C25 1.369 . S
C27 C29 1.392 . S
C27 H38 0.930 . S
C28 C24 1.373 . S
C28 C26 1.383 . S
C28 H39 0.931 . S
C29 C26 1.382 . S
C29 C27 1.392 . S
C30 Eu1 2.828 . S
C30 O14 1.249 . S
C30 O15 1.244 . S
C30 C24 1.505 . S
C31 O18 1.258 . S
C31 O19 1.242 . S
H32 C4 0.930 . S
H33 C5 0.930 . S
H34 C6 0.930 . S
H35 C7 0.931 . S
H36 C25 0.930 . S
H37 C26 0.930 . S
H38 C27 0.930 . S
H39 C28 0.931 . S
Eu40 C49 2.828 . S
Eu40 O51 2.392 1_565 S
Eu40 O53 2.418 . S
Eu40 O58 2.373 . S
Eu40 O61 2.488 . S
Eu40 O62 2.471 . S
Eu40 O63 2.356 . S
Eu41 O50 2.373 . S
Eu41 O54 2.488 . S
Eu41 O55 2.471 . S
Eu41 O56 2.349 . S
Eu41 O59 2.392 1_545 S
Eu41 O60 2.418 . S
Eu41 C70 2.828 . S
C42 O60 1.244 . S
C42 O63 1.258 1_545 S
C43 C44 1.379 . S
C43 C47 1.373 . S
C43 C49 1.505 . S
C44 C43 1.379 . S
C44 C46 1.369 . S
C44 H72 0.930 . S
C45 C47 1.383 . S
C45 C48 1.382 . S
C45 H73 0.930 . S
C46 C44 1.369 . S
C46 C48 1.392 . S
C46 H74 0.930 . S
C47 C43 1.373 . S
C47 C45 1.383 . S
C47 H75 0.931 . S
C48 C45 1.382 . S
C48 C46 1.392 . S
C49 Eu40 2.828 . S
C49 C43 1.505 . S
C49 O61 1.249 . S
C49 O62 1.244 . S
O50 Eu41 2.373 . S
O50 C52 1.258 . S
O51 Eu40 2.392 1_545 S
O51 C52 1.242 . S
C52 O50 1.258 . S
C52 O51 1.242 . S
O53 Eu40 2.418 . S
O53 C57 1.244 1_565 S
O54 Eu41 2.488 . S
O54 C70 1.249 . S
O55 Eu41 2.471 . S
O55 C70 1.244 . S
O56 Eu41 2.349 . S
O56 C57 1.265 . S
C57 O53 1.244 1_545 S
C57 O56 1.265 . S
O58 Eu40 2.373 . S
O58 C71 1.258 . S
O59 Eu41 2.392 1_565 S
O59 C71 1.242 . S
O60 Eu41 2.418 . S
O60 C42 1.244 . S
O61 Eu40 2.488 . S
O61 C49 1.249 . S
O62 Eu40 2.471 . S
O62 C49 1.244 . S
O63 Eu40 2.356 . S
O63 C42 1.258 1_565 S
C64 C65 1.379 . S
C64 C68 1.373 . S
C64 C70 1.505 . S
C65 C64 1.379 . S
C65 C67 1.369 . S
C65 H76 0.930 . S
C66 C68 1.383 . S
C66 C69 1.382 . S
C66 H77 0.930 . S
C67 C65 1.369 . S
C67 C69 1.392 . S
C67 H78 0.930 . S
C68 C64 1.373 . S
C68 C66 1.383 . S
C68 H79 0.931 . S
C69 C66 1.382 . S
C69 C67 1.392 . S
C70 Eu41 2.828 . S
C70 O54 1.249 . S
C70 O55 1.244 . S
C70 C64 1.505 . S
C71 O58 1.258 . S
C71 O59 1.242 . S
H72 C44 0.930 . S
H73 C45 0.930 . S
H74 C46 0.930 . S
H75 C47 0.931 . S
H76 C65 0.930 . S
H77 C66 0.930 . S
H78 C67 0.930 . S
H79 C68 0.931 . S
Eu80 C89 2.828 . S
Eu80 O91 2.392 . S
Eu80 O93 2.418 . S
Eu80 O98 2.373 . S
Eu80 O101 2.488 . S
Eu80 O102 2.471 . S
Eu80 O103 2.349 . S
Eu81 O90 2.373 . S
Eu81 O94 2.488 . S
Eu81 O95 2.471 . S
Eu81 O96 2.349 . S
Eu81 O99 2.392 . S
Eu81 O100 2.418 . S
Eu81 C110 2.828 . S
C82 O100 1.244 . S
C82 O103 1.265 . S
C83 C84 1.379 . S
C83 C87 1.373 . S
C83 C89 1.505 . S
C84 C83 1.379 . S
C84 C86 1.369 . S
C84 H112 0.930 . S
C85 C87 1.383 . S
C85 C88 1.382 . S
C85 H113 0.930 . S
C86 C84 1.369 . S
C86 C88 1.392 . S
C86 H114 0.930 . S
C87 C83 1.373 . S
C87 C85 1.383 . S
C87 H115 0.931 . S
C88 C85 1.382 . S
C88 C86 1.392 . S
C89 Eu80 2.828 . S
C89 C83 1.505 . S
C89 O101 1.249 . S
C89 O102 1.244 . S
O90 Eu81 2.373 . S
O90 C92 1.258 . S
O91 Eu80 2.392 . S
O91 C92 1.242 . S
C92 O90 1.258 . S
C92 O91 1.242 . S
O93 Eu80 2.418 . S
O93 C97 1.244 . S
O94 Eu81 2.488 . S
O94 C110 1.249 . S
O95 Eu81 2.471 . S
O95 C110 1.244 . S
O96 Eu81 2.349 . S
O96 C97 1.265 . S
C97 O93 1.244 . S
C97 O96 1.265 . S
O98 Eu80 2.373 . S
O98 C111 1.258 . S
O99 Eu81 2.392 . S
O99 C111 1.242 . S
O100 Eu81 2.418 . S
O100 C82 1.244 . S
O101 Eu80 2.488 . S
O101 C89 1.249 . S
O102 Eu80 2.471 . S
O102 C89 1.244 . S
O103 Eu80 2.349 . S
O103 C82 1.265 . S
C104 C105 1.379 . S
C104 C108 1.373 . S
C104 C110 1.505 . S
C105 C104 1.379 . S
C105 C107 1.369 . S
C105 H116 0.930 . S
C106 C108 1.383 . S
C106 C109 1.382 . S
C106 H117 0.930 . S
C107 C105 1.369 . S
C107 C109 1.392 . S
C107 H118 0.930 . S
C108 C104 1.373 . S
C108 C106 1.383 . S
C108 H119 0.931 . S
C109 C106 1.382 . S
C109 C107 1.392 . S
C110 Eu81 2.828 . S
C110 O94 1.249 . S
C110 O95 1.244 . S
C110 C104 1.505 . S
C111 O98 1.258 . S
C111 O99 1.242 . S
H112 C84 0.930 . S
H113 C85 0.930 . S
H114 C86 0.930 . S
H115 C87 0.931 . S
H116 C105 0.930 . S
H117 C106 0.930 . S
H118 C107 0.930 . S
H119 C108 0.931 . S
O120 Cd121 2.300 . S
O120 C127 1.275 . S
Cd121 O120 2.300 . S
Cd121 O129 2.381 . S
Cd121 O130 2.378 . S
O122 Cd123 2.385 1_545 S
O122 C127 1.255 . S
Cd123 O122 2.385 1_565 S
Cd123 O124 2.317 . S
O124 Cd123 2.317 . S
O124 C125 1.232 . S
C125 O124 1.232 . S
C125 O126 1.218 . S
O126 C125 1.218 . S
C127 O120 1.275 . S
C127 O122 1.255 . S
C128 O129 1.258 . S
C128 O130 1.256 . S
O129 Cd121 2.381 . S
O129 C128 1.258 . S
O130 Cd121 2.378 . S
O130 C128 1.256 . S
O131 Cd132 2.300 . S
O131 C138 1.275 . S
Cd132 O131 2.300 . S
Cd132 O140 2.381 . S
Cd132 O141 2.378 . S
O133 Cd134 2.385 . S
O133 C138 1.255 . S
Cd134 O133 2.385 . S
Cd134 O135 2.317 . S
O135 Cd134 2.317 . S
O135 C136 1.232 . S
C136 O135 1.232 . S
C136 O137 1.218 . S
O137 C136 1.218 . S
C138 O131 1.275 . S
C138 O133 1.255 . S
C139 O140 1.258 . S
C139 O141 1.256 . S
O140 Cd132 2.381 . S
O140 C139 1.258 . S
O141 Cd132 2.378 . S
O141 C139 1.256 . S
O142 Cd143 2.300 . S
O142 C149 1.275 . S
Cd143 O142 2.300 . S
Cd143 O151 2.381 . S
Cd143 O152 2.378 . S
O144 Cd145 2.385 1_455 S
O144 C149 1.255 . S
Cd145 O144 2.385 1_655 S
Cd145 O146 2.317 . S
O146 Cd145 2.317 . S
O146 C147 1.232 . S
C147 O146 1.232 . S
C147 O148 1.218 . S
O148 C147 1.218 . S
C149 O142 1.275 . S
C149 O144 1.255 . S
C150 O151 1.258 . S
C150 O152 1.256 . S
O151 Cd143 2.381 . S
O151 C150 1.258 . S
O152 Cd143 2.378 . S
O152 C150 1.256 . S
O153 Cd154 2.300 . S
O153 C160 1.275 . S
Cd154 O153 2.300 . S
Cd154 O162 2.381 . S
Cd154 O163 2.378 . S
O155 Cd156 2.385 . S
O155 C160 1.255 1_655 S
Cd156 O155 2.385 . S
Cd156 O157 2.317 . S
O157 Cd156 2.317 . S
O157 C158 1.232 . S
C158 O157 1.232 . S
C158 O159 1.218 . S
O159 C158 1.218 . S
C160 O153 1.275 . S
C160 O155 1.255 1_455 S
C161 O162 1.258 . S
C161 O163 1.256 . S
O162 Cd154 2.381 . S
O162 C161 1.258 . S
O163 Cd154 2.378 . S
O163 C161 1.256 . S
O164 Cd165 2.300 . S
O164 C171 1.275 1_565 S
Cd165 O164 2.300 . S
Cd165 O173 2.381 . S
Cd165 O174 2.378 . S
O166 Cd167 2.385 . S
O166 C171 1.255 . S
Cd167 O166 2.385 . S
Cd167 O168 2.317 . S
O168 Cd167 2.317 . S
O168 C169 1.232 . S
C169 O168 1.232 . S
C169 O170 1.218 . S
O170 C169 1.218 . S
C171 O164 1.275 1_545 S
C171 O166 1.255 . S
C172 O173 1.258 . S
C172 O174 1.256 . S
O173 Cd165 2.381 . S
O173 C172 1.258 . S
O174 Cd165 2.378 . S
O174 C172 1.256 . S
O175 Cd176 2.300 . S
O175 C182 1.275 . S
Cd176 O175 2.300 . S
Cd176 O184 2.381 . S
Cd176 O185 2.378 . S
O177 Cd178 2.385 . S
O177 C182 1.255 . S
Cd178 O177 2.385 . S
Cd178 O179 2.317 . S
O179 Cd178 2.317 . S
O179 C180 1.232 . S
C180 O179 1.232 . S
C180 O181 1.218 . S
O181 C180 1.218 . S
C182 O175 1.275 . S
C182 O177 1.255 . S
C183 O184 1.258 . S
C183 O185 1.256 . S
O184 Cd176 2.381 . S
O184 C183 1.258 . S
O185 Cd176 2.378 . S
O185 C183 1.256 . S
C186 C187 1.349 . S
C186 C188 1.327 . S
C186 H211 0.950 . S
C187 C186 1.349 . S
C187 C203 1.349 . S
C188 C186 1.327 . S
C188 C207 1.429 . S
C188 H212 0.950 . S
C189 C206 1.574 . S
C189 C208 1.368 . S
C189 H213 0.949 . S
H190 C194 0.949 . S
C191 C192 1.349 . S
C191 C193 1.327 . S
C191 H214 0.950 . S
C192 C191 1.349 . S
C192 C204 1.349 . S
C193 C191 1.327 . S
C193 C209 1.429 . S
C193 H215 0.950 . S
C194 H190 0.949 . S
C194 C202 1.574 . S
C194 C210 1.368 . S
H195 C203 0.950 . S
H196 C201 0.950 . S
H197 C202 0.949 . S
H198 C204 0.950 . S
H199 C205 0.950 . S
H200 C206 0.949 . S
C201 H196 0.950 . S
C201 C203 1.327 . S
C201 C207 1.429 . S
C202 C194 1.574 . S
C202 H197 0.949 . S
C202 C208 1.368 . S
C203 C187 1.349 . S
C203 H195 0.950 . S
C203 C201 1.327 . S
C204 C192 1.349 . S
C204 H198 0.950 . S
C204 C205 1.327 . S
C205 H199 0.950 . S
C205 C204 1.327 . S
C205 C209 1.429 . S
C206 C189 1.574 . S
C206 H200 0.949 . S
C206 C210 1.368 . S
C207 C188 1.429 . S
C207 C201 1.429 . S
C207 C208 1.523 . S
C208 C189 1.368 . S
C208 C202 1.368 . S
C208 C207 1.523 . S
C209 C193 1.429 . S
C209 C205 1.429 . S
C209 C210 1.523 . S
C210 C194 1.368 . S
C210 C206 1.368 . S
C210 C209 1.523 . S
H211 C186 0.950 . S
H212 C188 0.950 . S
H213 C189 0.949 . S
H214 C191 0.950 . S
H215 C193 0.950 . S
C216 C217 1.349 . S
C216 C218 1.327 . S
C216 H241 0.950 . S
C217 C216 1.349 . S
C217 C233 1.349 . S
C218 C216 1.327 . S
C218 C237 1.429 . S
C218 H242 0.950 . S
C219 C236 1.574 . S
C219 C238 1.368 . S
C219 H243 0.949 . S
H220 C224 0.949 . S
C221 C222 1.349 . S
C221 C223 1.327 . S
C221 H244 0.950 . S
C222 C221 1.349 . S
C222 C234 1.349 . S
C223 C221 1.327 . S
C223 C239 1.429 . S
C223 H245 0.950 . S
C224 H220 0.949 . S
C224 C232 1.574 . S
C224 C240 1.368 . S
H225 C233 0.950 . S
H226 C231 0.950 . S
H227 C232 0.949 . S
H228 C234 0.950 . S
H229 C235 0.950 . S
H230 C236 0.949 . S
C231 H226 0.950 . S
C231 C233 1.327 . S
C231 C237 1.429 . S
C232 C224 1.574 . S
C232 H227 0.949 . S
C232 C238 1.368 . S
C233 C217 1.349 . S
C233 H225 0.950 . S
C233 C231 1.327 . S
C234 C222 1.349 . S
C234 H228 0.950 . S
C234 C235 1.327 . S
C235 H229 0.950 . S
C235 C234 1.327 . S
C235 C239 1.429 . S
C236 C219 1.574 . S
C236 H230 0.949 . S
C236 C240 1.368 . S
C237 C218 1.429 . S
C237 C231 1.429 . S
C237 C238 1.523 . S
C238 C219 1.368 . S
C238 C232 1.368 . S
C238 C237 1.523 . S
C239 C223 1.429 . S
C239 C235 1.429 . S
C239 C240 1.523 . S
C240 C224 1.368 . S
C240 C236 1.368 . S
C240 C239 1.523 . S
H241 C216 0.950 . S
H242 C218 0.950 . S
H243 C219 0.949 . S
H244 C221 0.950 . S
H245 C223 0.950 . S
C246 C247 1.349 . S
C246 C248 1.327 . S
C246 H271 0.950 . S
C247 C246 1.349 . S
C247 C263 1.349 . S
C248 C246 1.327 . S
C248 C267 1.429 . S
C248 H272 0.950 . S
C249 C266 1.574 . S
C249 C268 1.368 . S
C249 H273 0.949 . S
H250 C254 0.949 . S
C251 C252 1.349 . S
C251 C253 1.327 . S
C251 H274 0.950 . S
C252 C251 1.349 . S
C252 C264 1.349 . S
C253 C251 1.327 . S
C253 C269 1.429 . S
C253 H275 0.950 . S
C254 H250 0.949 . S
C254 C262 1.574 . S
C254 C270 1.368 . S
H255 C263 0.950 . S
H256 C261 0.950 . S
H257 C262 0.949 . S
H258 C264 0.950 . S
H259 C265 0.950 . S
H260 C266 0.949 . S
C261 H256 0.950 . S
C261 C263 1.327 . S
C261 C267 1.429 . S
C262 C254 1.574 . S
C262 H257 0.949 . S
C262 C268 1.368 . S
C263 C247 1.349 . S
C263 H255 0.950 . S
C263 C261 1.327 . S
C264 C252 1.349 . S
C264 H258 0.950 . S
C264 C265 1.327 . S
C265 H259 0.950 . S
C265 C264 1.327 . S
C265 C269 1.429 . S
C266 C249 1.574 . S
C266 H260 0.949 . S
C266 C270 1.368 . S
C267 C248 1.429 . S
C267 C261 1.429 . S
C267 C268 1.523 . S
C268 C249 1.368 . S
C268 C262 1.368 . S
C268 C267 1.523 . S
C269 C253 1.429 . S
C269 C265 1.429 . S
C269 C270 1.523 . S
C270 C254 1.368 . S
C270 C266 1.368 . S
C270 C269 1.523 . S
H271 C246 0.950 . S
H272 C248 0.950 . S
H273 C249 0.949 . S
H274 C251 0.950 . S
H275 C253 0.950 . S
C276 C277 1.349 . S
C276 C278 1.327 . S
C276 H301 0.950 . S
C277 C276 1.349 . S
C277 C293 1.349 . S
C278 C276 1.327 . S
C278 C297 1.429 . S
C278 H302 0.950 . S
C279 C296 1.574 . S
C279 C298 1.368 . S
C279 H303 0.949 . S
H280 C284 0.949 . S
C281 C282 1.349 . S
C281 C283 1.327 . S
C281 H304 0.950 . S
C282 C281 1.349 . S
C282 C294 1.349 . S
C283 C281 1.327 . S
C283 C299 1.429 . S
C283 H305 0.950 . S
C284 H280 0.949 . S
C284 C292 1.574 . S
C284 C300 1.368 . S
H285 C293 0.950 . S
H286 C291 0.950 . S
H287 C292 0.949 . S
H288 C294 0.950 . S
H289 C295 0.950 . S
H290 C296 0.949 . S
C291 H286 0.950 . S
C291 C293 1.327 . S
C291 C297 1.429 . S
C292 C284 1.574 . S
C292 H287 0.949 . S
C292 C298 1.368 . S
C293 C277 1.349 . S
C293 H285 0.950 . S
C293 C291 1.327 . S
C294 C282 1.349 . S
C294 H288 0.950 . S
C294 C295 1.327 . S
C295 H289 0.950 . S
C295 C294 1.327 . S
C295 C299 1.429 . S
C296 C279 1.574 . S
C296 H290 0.949 . S
C296 C300 1.368 . S
C297 C278 1.429 . S
C297 C291 1.429 . S
C297 C298 1.523 . S
C298 C279 1.368 . S
C298 C292 1.368 . S
C298 C297 1.523 . S
C299 C283 1.429 . S
C299 C295 1.429 . S
C299 C300 1.523 . S
C300 C284 1.368 . S
C300 C296 1.368 . S
C300 C299 1.523 . S
H301 C276 0.950 . S
H302 C278 0.950 . S
H303 C279 0.949 . S
H304 C281 0.950 . S
H305 C283 0.950 . S
C306 C307 1.349 . S
C306 C308 1.327 . S
C306 H331 0.950 . S
C307 C306 1.349 . S
C307 C323 1.349 . S
C308 C306 1.327 . S
C308 C327 1.429 . S
C308 H332 0.950 . S
C309 C326 1.574 . S
C309 C328 1.368 . S
C309 H333 0.949 . S
H310 C314 0.949 . S
C311 C312 1.349 . S
C311 C313 1.327 . S
C311 H334 0.950 . S
C312 C311 1.349 . S
C312 C324 1.349 . S
C313 C311 1.327 . S
C313 C329 1.429 . S
C313 H335 0.950 . S
C314 H310 0.949 . S
C314 C322 1.574 . S
C314 C330 1.368 . S
H315 C323 0.950 . S
H316 C321 0.950 . S
H317 C322 0.949 . S
H318 C324 0.950 . S
H319 C325 0.950 . S
H320 C326 0.949 . S
C321 H316 0.950 . S
C321 C323 1.327 . S
C321 C327 1.429 . S
C322 C314 1.574 . S
C322 H317 0.949 . S
C322 C328 1.368 . S
C323 C307 1.349 . S
C323 H315 0.950 . S
C323 C321 1.327 . S
C324 C312 1.349 . S
C324 H318 0.950 . S
C324 C325 1.327 . S
C325 H319 0.950 . S
C325 C324 1.327 . S
C325 C329 1.429 . S
C326 C309 1.574 . S
C326 H320 0.949 . S
C326 C330 1.368 . S
C327 C308 1.429 . S
C327 C321 1.429 . S
C327 C328 1.523 . S
C328 C309 1.368 . S
C328 C322 1.368 . S
C328 C327 1.523 . S
C329 C313 1.429 . S
C329 C325 1.429 . S
C329 C330 1.523 . S
C330 C314 1.368 . S
C330 C326 1.368 . S
C330 C329 1.523 . S
H331 C306 0.950 . S
H332 C308 0.950 . S
H333 C309 0.949 . S
H334 C311 0.950 . S
H335 C313 0.950 . S
C336 C337 1.349 . S
C336 C338 1.327 . S
C336 H361 0.950 . S
C337 C336 1.349 . S
C337 C353 1.349 . S
C338 C336 1.327 . S
C338 C357 1.429 . S
C338 H362 0.950 . S
C339 C356 1.574 . S
C339 C358 1.368 . S
C339 H363 0.949 . S
H340 C344 0.949 . S
C341 C342 1.349 . S
C341 C343 1.327 . S
C341 H364 0.950 . S
C342 C341 1.349 . S
C342 C354 1.349 . S
C343 C341 1.327 . S
C343 C359 1.429 . S
C343 H365 0.950 . S
C344 H340 0.949 . S
C344 C352 1.574 . S
C344 C360 1.368 . S
H345 C353 0.950 . S
H346 C351 0.950 . S
H347 C352 0.949 . S
H348 C354 0.950 . S
H349 C355 0.950 . S
H350 C356 0.949 . S
C351 H346 0.950 . S
C351 C353 1.327 . S
C351 C357 1.429 . S
C352 C344 1.574 . S
C352 H347 0.949 . S
C352 C358 1.368 . S
C353 C337 1.349 . S
C353 H345 0.950 . S
C353 C351 1.327 . S
C354 C342 1.349 . S
C354 H348 0.950 . S
C354 C355 1.327 . S
C355 H349 0.950 . S
C355 C354 1.327 . S
C355 C359 1.429 . S
C356 C339 1.574 . S
C356 H350 0.949 . S
C356 C360 1.368 . S
C357 C338 1.429 . S
C357 C351 1.429 . S
C357 C358 1.523 . S
C358 C339 1.368 . S
C358 C352 1.368 . S
C358 C357 1.523 . S
C359 C343 1.429 . S
C359 C355 1.429 . S
C359 C360 1.523 . S
C360 C344 1.368 . S
C360 C356 1.368 . S
C360 C359 1.523 . S
H361 C336 0.950 . S
H362 C338 0.950 . S
H363 C339 0.949 . S
H364 C341 0.950 . S
H365 C343 0.950 . S
C366 C367 1.349 . S
C366 C368 1.327 . S
C366 H391 0.950 . S
C367 C366 1.349 . S
C367 C383 1.349 . S
C368 C366 1.327 . S
C368 C387 1.429 . S
C368 H392 0.950 . S
C369 C386 1.574 . S
C369 C388 1.368 . S
C369 H393 0.949 . S
H370 C374 0.949 . S
C371 C372 1.349 . S
C371 C373 1.327 . S
C371 H394 0.950 . S
C372 C371 1.349 . S
C372 C384 1.349 . S
C373 C371 1.327 . S
C373 C389 1.429 . S
C373 H395 0.950 . S
C374 H370 0.949 . S
C374 C382 1.574 . S
C374 C390 1.368 . S
H375 C383 0.950 . S
H376 C381 0.950 . S
H377 C382 0.949 . S
H378 C384 0.950 . S
H379 C385 0.950 . S
H380 C386 0.949 . S
C381 H376 0.950 . S
C381 C383 1.327 . S
C381 C387 1.429 . S
C382 C374 1.574 . S
C382 H377 0.949 . S
C382 C388 1.368 . S
C383 C367 1.349 . S
C383 H375 0.950 . S
C383 C381 1.327 . S
C384 C372 1.349 . S
C384 H378 0.950 . S
C384 C385 1.327 . S
C385 H379 0.950 . S
C385 C384 1.327 . S
C385 C389 1.429 . S
C386 C369 1.574 . S
C386 H380 0.949 . S
C386 C390 1.368 . S
C387 C368 1.429 . S
C387 C381 1.429 . S
C387 C388 1.523 . S
C388 C369 1.368 . S
C388 C382 1.368 . S
C388 C387 1.523 . S
C389 C373 1.429 . S
C389 C385 1.429 . S
C389 C390 1.523 . S
C390 C374 1.368 . S
C390 C386 1.368 . S
C390 C389 1.523 . S
H391 C366 0.950 . S
H392 C368 0.950 . S
H393 C369 0.949 . S
H394 C371 0.950 . S
H395 C373 0.950 . S
C396 C397 1.349 . S
C396 C398 1.327 . S
C396 H421 0.950 . S
C397 C396 1.349 . S
C397 C413 1.349 . S
C398 C396 1.327 . S
C398 C417 1.429 . S
C398 H422 0.950 . S
C399 C416 1.574 . S
C399 C418 1.368 . S
C399 H423 0.949 . S
H400 C404 0.949 . S
C401 C402 1.349 . S
C401 C403 1.327 . S
C401 H424 0.950 . S
C402 C401 1.349 . S
C402 C414 1.349 . S
C403 C401 1.327 . S
C403 C419 1.429 . S
C403 H425 0.950 . S
C404 H400 0.949 . S
C404 C412 1.574 . S
C404 C420 1.368 . S
H405 C413 0.950 . S
H406 C411 0.950 . S
H407 C412 0.949 . S
H408 C414 0.950 . S
H409 C415 0.950 . S
H410 C416 0.949 . S
C411 H406 0.950 . S
C411 C413 1.327 . S
C411 C417 1.429 . S
C412 C404 1.574 . S
C412 H407 0.949 . S
C412 C418 1.368 . S
C413 C397 1.349 . S
C413 H405 0.950 . S
C413 C411 1.327 . S
C414 C402 1.349 . S
C414 H408 0.950 . S
C414 C415 1.327 . S
C415 H409 0.950 . S
C415 C414 1.327 . S
C415 C419 1.429 . S
C416 C399 1.574 . S
C416 H410 0.949 . S
C416 C420 1.368 . S
C417 C398 1.429 . S
C417 C411 1.429 . S
C417 C418 1.523 . S
C418 C399 1.368 . S
C418 C412 1.368 . S
C418 C417 1.523 . S
C419 C403 1.429 . S
C419 C415 1.429 . S
C419 C420 1.523 . S
C420 C404 1.368 . S
C420 C416 1.368 . S
C420 C419 1.523 . S
H421 C396 0.950 . S
H422 C398 0.950 . S
H423 C399 0.949 . S
H424 C401 0.950 . S
H425 C403 0.950 . S
C426 C427 1.349 . S
C426 C428 1.327 . S
C426 H451 0.950 . S
C427 C426 1.349 . S
C427 C443 1.349 . S
C428 C426 1.327 . S
C428 C447 1.429 . S
C428 H452 0.950 . S
C429 C446 1.574 . S
C429 C448 1.368 . S
C429 H453 0.949 . S
H430 C434 0.949 . S
C431 C432 1.349 . S
C431 C433 1.327 . S
C431 H454 0.950 . S
C432 C431 1.349 . S
C432 C444 1.349 . S
C433 C431 1.327 . S
C433 C449 1.429 . S
C433 H455 0.950 . S
C434 H430 0.949 . S
C434 C442 1.574 . S
C434 C450 1.368 . S
H435 C443 0.950 . S
H436 C441 0.950 . S
H437 C442 0.949 . S
H438 C444 0.950 . S
H439 C445 0.950 . S
H440 C446 0.949 . S
C441 H436 0.950 . S
C441 C443 1.327 . S
C441 C447 1.429 . S
C442 C434 1.574 . S
C442 H437 0.949 . S
C442 C448 1.368 . S
C443 C427 1.349 . S
C443 H435 0.950 . S
C443 C441 1.327 . S
C444 C432 1.349 . S
C444 H438 0.950 . S
C444 C445 1.327 . S
C445 H439 0.950 . S
C445 C444 1.327 . S
C445 C449 1.429 . S
C446 C429 1.574 . S
C446 H440 0.949 . S
C446 C450 1.368 . S
C447 C428 1.429 . S
C447 C441 1.429 . S
C447 C448 1.523 . S
C448 C429 1.368 . S
C448 C442 1.368 . S
C448 C447 1.523 . S
C449 C433 1.429 . S
C449 C445 1.429 . S
C449 C450 1.523 . S
C450 C434 1.368 . S
C450 C446 1.368 . S
C450 C449 1.523 . S
H451 C426 0.950 . S
H452 C428 0.950 . S
H453 C429 0.949 . S
H454 C431 0.950 . S
H455 C433 0.950 . S
C456 C457 1.349 . S
C456 C458 1.327 . S
C456 H481 0.950 . S
C457 C456 1.349 . S
C457 C473 1.349 . S
C458 C456 1.327 . S
C458 C477 1.429 . S
C458 H482 0.950 . S
C459 C476 1.574 . S
C459 C478 1.368 . S
C459 H483 0.949 . S
H460 C464 0.949 . S
C461 C462 1.349 . S
C461 C463 1.327 . S
C461 H484 0.950 . S
C462 C461 1.349 . S
C462 C474 1.349 . S
C463 C461 1.327 . S
C463 C479 1.429 . S
C463 H485 0.950 . S
C464 H460 0.949 . S
C464 C472 1.574 . S
C464 C480 1.368 . S
H465 C473 0.950 . S
H466 C471 0.950 . S
H467 C472 0.949 . S
H468 C474 0.950 . S
H469 C475 0.950 . S
H470 C476 0.949 . S
C471 H466 0.950 . S
C471 C473 1.327 . S
C471 C477 1.429 . S
C472 C464 1.574 . S
C472 H467 0.949 . S
C472 C478 1.368 . S
C473 C457 1.349 . S
C473 H465 0.950 . S
C473 C471 1.327 . S
C474 C462 1.349 . S
C474 H468 0.950 . S
C474 C475 1.327 . S
C475 H469 0.950 . S
C475 C474 1.327 . S
C475 C479 1.429 . S
C476 C459 1.574 . S
C476 H470 0.949 . S
C476 C480 1.368 . S
C477 C458 1.429 . S
C477 C471 1.429 . S
C477 C478 1.523 . S
C478 C459 1.368 . S
C478 C472 1.368 . S
C478 C477 1.523 . S
C479 C463 1.429 . S
C479 C475 1.429 . S
C479 C480 1.523 . S
C480 C464 1.368 . S
C480 C476 1.368 . S
C480 C479 1.523 . S
H481 C456 0.950 . S
H482 C458 0.950 . S
H483 C459 0.949 . S
H484 C461 0.950 . S
H485 C463 0.950 . S
C486 C487 1.349 . S
C486 C488 1.327 . S
C486 H511 0.950 . S
C487 C486 1.349 . S
C487 C503 1.349 . S
C488 C486 1.327 . S
C488 C507 1.429 . S
C488 H512 0.950 . S
C489 C506 1.574 . S
C489 C508 1.368 . S
C489 H513 0.949 . S
H490 C494 0.949 . S
C491 C492 1.349 . S
C491 C493 1.327 . S
C491 H514 0.950 . S
C492 C491 1.349 . S
C492 C504 1.349 . S
C493 C491 1.327 . S
C493 C509 1.429 . S
C493 H515 0.950 . S
C494 H490 0.949 . S
C494 C502 1.574 . S
C494 C510 1.368 . S
H495 C503 0.950 . S
H496 C501 0.950 . S
H497 C502 0.949 . S
H498 C504 0.950 . S
H499 C505 0.950 . S
H500 C506 0.949 . S
C501 H496 0.950 . S
C501 C503 1.327 . S
C501 C507 1.429 . S
C502 C494 1.574 . S
C502 H497 0.949 . S
C502 C508 1.368 . S
C503 C487 1.349 . S
C503 H495 0.950 . S
C503 C501 1.327 . S
C504 C492 1.349 . S
C504 H498 0.950 . S
C504 C505 1.327 . S
C505 H499 0.950 . S
C505 C504 1.327 . S
C505 C509 1.429 . S
C506 C489 1.574 . S
C506 H500 0.949 . S
C506 C510 1.368 . S
C507 C488 1.429 . S
C507 C501 1.429 . S
C507 C508 1.523 . S
C508 C489 1.368 . S
C508 C502 1.368 . S
C508 C507 1.523 . S
C509 C493 1.429 . S
C509 C505 1.429 . S
C509 C510 1.523 . S
C510 C494 1.368 . S
C510 C506 1.368 . S
C510 C509 1.523 . S
H511 C486 0.950 . S
H512 C488 0.950 . S
H513 C489 0.949 . S
H514 C491 0.950 . S
H515 C493 0.950 . S
C516 C517 1.349 . S
C516 C518 1.327 . S
C516 H541 0.950 . S
C517 C516 1.349 . S
C517 C533 1.349 . S
C518 C516 1.327 . S
C518 C537 1.429 . S
C518 H542 0.950 . S
C519 C536 1.574 . S
C519 C538 1.368 . S
C519 H543 0.949 . S
H520 C524 0.949 . S
C521 C522 1.349 . S
C521 C523 1.327 . S
C521 H544 0.950 . S
C522 C521 1.349 . S
C522 C534 1.349 . S
C523 C521 1.327 . S
C523 C539 1.429 . S
C523 H545 0.950 . S
C524 H520 0.949 . S
C524 C532 1.574 . S
C524 C540 1.368 . S
H525 C533 0.950 . S
H526 C531 0.950 . S
H527 C532 0.949 . S
H528 C534 0.950 . S
H529 C535 0.950 . S
H530 C536 0.949 . S
C531 H526 0.950 . S
C531 C533 1.327 . S
C531 C537 1.429 . S
C532 C524 1.574 . S
C532 H527 0.949 . S
C532 C538 1.368 . S
C533 C517 1.349 . S
C533 H525 0.950 . S
C533 C531 1.327 . S
C534 C522 1.349 . S
C534 H528 0.950 . S
C534 C535 1.327 . S
C535 H529 0.950 . S
C535 C534 1.327 . S
C535 C539 1.429 . S
C536 C519 1.574 . S
C536 H530 0.949 . S
C536 C540 1.368 . S
C537 C518 1.429 . S
C537 C531 1.429 . S
C537 C538 1.523 . S
C538 C519 1.368 . S
C538 C532 1.368 . S
C538 C537 1.523 . S
C539 C523 1.429 . S
C539 C535 1.429 . S
C539 C540 1.523 . S
C540 C524 1.368 . S
C540 C536 1.368 . S
C540 C539 1.523 . S
H541 C516 0.950 . S
H542 C518 0.950 . S
H543 C519 0.949 . S
H544 C521 0.950 . S
H545 C523 0.950 . S
C546 C547 1.349 1_655 S
C546 C548 1.327 . S
C546 H571 0.950 . S
C547 C546 1.349 1_455 S
C547 C563 1.349 . S
C548 C546 1.327 . S
C548 C567 1.429 1_655 S
C548 H572 0.950 . S
C549 C566 1.574 . S
C549 C568 1.368 . S
C549 H573 0.949 . S
H550 C554 0.949 1_556 S
C551 C552 1.349 . S
C551 C553 1.327 . S
C551 H574 0.950 . S
C552 C551 1.349 . S
C552 C564 1.349 1_455 S
C553 C551 1.327 . S
C553 C569 1.429 . S
C553 H575 0.950 . S
C554 H550 0.949 1_554 S
C554 C562 1.574 . S
C554 C570 1.368 1_654 S
H555 C563 0.950 . S
H556 C561 0.950 . S
H557 C562 0.949 . S
H558 C564 0.950 . S
H559 C565 0.950 . S
H560 C566 0.949 . S
C561 H556 0.950 . S
C561 C563 1.327 . S
C561 C567 1.429 . S
C562 C554 1.574 . S
C562 H557 0.949 . S
C562 C568 1.368 1_655 S
C563 C547 1.349 . S
C563 H555 0.950 . S
C563 C561 1.327 . S
C564 C552 1.349 1_655 S
C564 H558 0.950 . S
C564 C565 1.327 . S
C565 H559 0.950 . S
C565 C564 1.327 . S
C565 C569 1.429 1_655 S
C566 C549 1.574 . S
C566 H560 0.949 . S
C566 C570 1.368 1_554 S
C567 C548 1.429 1_455 S
C567 C561 1.429 . S
C567 C568 1.523 . S
C568 C549 1.368 . S
C568 C562 1.368 1_455 S
C568 C567 1.523 . S
C569 C553 1.429 . S
C569 C565 1.429 1_455 S
C569 C570 1.523 . S
C570 C554 1.368 1_456 S
C570 C566 1.368 1_556 S
C570 C569 1.523 . S
H571 C546 0.950 . S
H572 C548 0.950 . S
H573 C549 0.949 . S
H574 C551 0.950 . S
H575 C553 0.950 . S
C576 C577 1.349 . S
C576 C578 1.327 . S
C576 H601 0.950 . S
C577 C576 1.349 . S
C577 C593 1.349 1_545 S
C578 C576 1.327 . S
C578 C597 1.429 . S
C578 H602 0.950 . S
C579 C596 1.574 . S
C579 C598 1.368 1_565 S
C579 H603 0.949 . S
H580 C584 0.949 . S
C581 C582 1.349 1_565 S
C581 C583 1.327 . S
C581 H604 0.950 . S
C582 C581 1.349 1_545 S
C582 C594 1.349 . S
C583 C581 1.327 . S
C583 C599 1.429 1_565 S
C583 H605 0.950 . S
C584 H580 0.949 . S
C584 C592 1.574 . S
C584 C600 1.368 . S
H585 C593 0.950 . S
H586 C591 0.950 . S
H587 C592 0.949 . S
H588 C594 0.950 . S
H589 C595 0.950 . S
H590 C596 0.949 . S
C591 H586 0.950 . S
C591 C593 1.327 . S
C591 C597 1.429 1_565 S
C592 C584 1.574 . S
C592 H587 0.949 . S
C592 C598 1.368 . S
C593 C577 1.349 1_565 S
C593 H585 0.950 . S
C593 C591 1.327 . S
C594 C582 1.349 . S
C594 H588 0.950 . S
C594 C595 1.327 . S
C595 H589 0.950 . S
C595 C594 1.327 . S
C595 C599 1.429 . S
C596 C579 1.574 . S
C596 H590 0.949 . S
C596 C600 1.368 1_565 S
C597 C578 1.429 . S
C597 C591 1.429 1_545 S
C597 C598 1.523 . S
C598 C579 1.368 1_545 S
C598 C592 1.368 . S
C598 C597 1.523 . S
C599 C583 1.429 1_545 S
C599 C595 1.429 . S
C599 C600 1.523 . S
C600 C584 1.368 . S
C600 C596 1.368 1_545 S
C600 C599 1.523 . S
H601 C576 0.950 . S
H602 C578 0.950 . S
H603 C579 0.949 . S
H604 C581 0.950 . S
H605 C583 0.950 . S
C606 C607 1.349 . S
C606 C608 1.327 . S
C606 H631 0.950 . S
C607 C606 1.349 . S
C607 C623 1.349 . S
C608 C606 1.327 . S
C608 C627 1.429 . S
C608 H632 0.950 . S
C609 C626 1.574 . S
C609 C628 1.368 . S
C609 H633 0.949 . S
H610 C614 0.949 . S
C611 C612 1.349 . S
C611 C613 1.327 . S
C611 H634 0.950 . S
C612 C611 1.349 . S
C612 C624 1.349 . S
C613 C611 1.327 . S
C613 C629 1.429 . S
C613 H635 0.950 . S
C614 H610 0.949 . S
C614 C622 1.574 . S
C614 C630 1.368 . S
H615 C623 0.950 . S
H616 C621 0.950 . S
H617 C622 0.949 . S
H618 C624 0.950 . S
H619 C625 0.950 . S
H620 C626 0.949 . S
C621 H616 0.950 . S
C621 C623 1.327 . S
C621 C627 1.429 . S
C622 C614 1.574 . S
C622 H617 0.949 . S
C622 C628 1.368 . S
C623 C607 1.349 . S
C623 H615 0.950 . S
C623 C621 1.327 . S
C624 C612 1.349 . S
C624 H618 0.950 . S
C624 C625 1.327 . S
C625 H619 0.950 . S
C625 C624 1.327 . S
C625 C629 1.429 . S
C626 C609 1.574 . S
C626 H620 0.949 . S
C626 C630 1.368 . S
C627 C608 1.429 . S
C627 C621 1.429 . S
C627 C628 1.523 . S
C628 C609 1.368 . S
C628 C622 1.368 . S
C628 C627 1.523 . S
C629 C613 1.429 . S
C629 C625 1.429 . S
C629 C630 1.523 . S
C630 C614 1.368 . S
C630 C626 1.368 . S
C630 C629 1.523 . S
H631 C606 0.950 . S
H632 C608 0.950 . S
H633 C609 0.949 . S
H634 C611 0.950 . S
H635 C613 0.950 . S
C636 C637 1.349 . S
C636 C638 1.327 . S
C636 H661 0.950 . S
C637 C636 1.349 . S
C637 C653 1.349 1_545 S
C638 C636 1.327 . S
C638 C657 1.429 . S
C638 H662 0.950 . S
C639 C656 1.574 . S
C639 C658 1.368 1_565 S
C639 H663 0.949 . S
H640 C644 0.949 . S
C641 C642 1.349 1_565 S
C641 C643 1.327 . S
C641 H664 0.950 . S
C642 C641 1.349 1_545 S
C642 C654 1.349 . S
C643 C641 1.327 . S
C643 C659 1.429 1_565 S
C643 H665 0.950 . S
C644 H640 0.949 . S
C644 C652 1.574 . S
C644 C660 1.368 . S
H645 C653 0.950 . S
H646 C651 0.950 . S
H647 C652 0.949 . S
H648 C654 0.950 . S
H649 C655 0.950 . S
H650 C656 0.949 . S
C651 H646 0.950 . S
C651 C653 1.327 . S
C651 C657 1.429 1_565 S
C652 C644 1.574 . S
C652 H647 0.949 . S
C652 C658 1.368 . S
C653 C637 1.349 1_565 S
C653 H645 0.950 . S
C653 C651 1.327 . S
C654 C642 1.349 . S
C654 H648 0.950 . S
C654 C655 1.327 . S
C655 H649 0.950 . S
C655 C654 1.327 . S
C655 C659 1.429 . S
C656 C639 1.574 . S
C656 H650 0.949 . S
C656 C660 1.368 1_565 S
C657 C638 1.429 . S
C657 C651 1.429 1_545 S
C657 C658 1.523 . S
C658 C639 1.368 1_545 S
C658 C652 1.368 . S
C658 C657 1.523 . S
C659 C643 1.429 1_545 S
C659 C655 1.429 . S
C659 C660 1.523 . S
C660 C644 1.368 . S
C660 C656 1.368 1_545 S
C660 C659 1.523 . S
H661 C636 0.950 . S
H662 C638 0.950 . S
H663 C639 0.949 . S
H664 C641 0.950 . S
H665 C643 0.950 . S
C666 C667 1.349 . S
C666 C668 1.327 . S
C666 H691 0.950 . S
C667 C666 1.349 . S
C667 C683 1.349 . S
C668 C666 1.327 . S
C668 C687 1.429 . S
C668 H692 0.950 . S
C669 C686 1.574 . S
C669 C688 1.368 . S
C669 H693 0.949 . S
H670 C674 0.959 . S
C671 C672 1.349 . S
C671 C673 1.327 . S
C671 H694 0.950 . S
C672 C671 1.349 . S
C672 C684 1.349 . S
C673 C671 1.327 . S
C673 C689 1.429 . S
C673 H695 0.950 . S
C674 H670 0.959 . S
C674 C682 1.574 . S
C674 C690 1.368 . S
H675 C683 0.950 . S
H676 C681 0.950 . S
H677 C682 0.949 . S
H678 C684 0.950 . S
H679 C685 0.950 . S
H680 C686 0.949 . S
C681 H676 0.950 . S
C681 C683 1.327 . S
C681 C687 1.429 . S
C682 C674 1.574 . S
C682 H677 0.949 . S
C682 C688 1.368 . S
C683 C667 1.349 . S
C683 H675 0.950 . S
C683 C681 1.327 . S
C684 C672 1.349 . S
C684 H678 0.950 . S
C684 C685 1.327 . S
C685 H679 0.950 . S
C685 C684 1.327 . S
C685 C689 1.429 . S
C686 C669 1.574 . S
C686 H680 0.949 . S
C686 C690 1.368 . S
C687 C668 1.429 . S
C687 C681 1.429 . S
C687 C688 1.523 . S
C688 C669 1.368 . S
C688 C682 1.368 . S
C688 C687 1.523 . S
C689 C673 1.429 . S
C689 C685 1.429 . S
C689 C690 1.523 1_554 S
C690 C674 1.368 . S
C690 C686 1.368 . S
C690 C689 1.523 1_556 S
H691 C666 0.950 . S
H692 C668 0.950 . S
H693 C669 0.949 . S
H694 C671 0.950 . S
H695 C673 0.950 . S
C696 C697 1.359 . S
C696 C698 1.327 . S
C696 H721 0.950 . S
C697 C696 1.359 . S
C697 C713 1.338 1_655 S
C698 C696 1.327 . S
C698 C717 1.424 1_655 S
C698 H722 0.950 . S
C699 C716 1.574 . S
C699 C718 1.385 . S
C699 H723 0.949 . S
H700 C704 0.949 . S
C701 C702 1.349 . S
C701 C703 1.327 . S
C701 H724 0.950 . S
C702 C701 1.349 . S
C702 C714 1.346 1_455 S
C703 C701 1.327 . S
C703 C719 1.429 . S
C703 H725 0.950 . S
C704 H700 0.949 . S
C704 C712 1.574 . S
C704 C720 1.368 1_655 S
H705 C713 0.950 . S
H706 C711 0.950 . S
H707 C712 0.949 . S
H708 C714 0.952 . S
H709 C715 0.964 . S
H710 C716 0.949 . S
C711 H706 0.950 . S
C711 C713 1.327 . S
C711 C717 1.432 . S
C712 C704 1.574 . S
C712 H707 0.949 . S
C712 C718 1.353 1_655 S
C713 C697 1.338 1_455 S
C713 H705 0.950 . S
C713 C711 1.327 . S
C714 C702 1.346 1_655 S
C714 H708 0.952 . S
C714 C715 1.326 . S
C715 H709 0.964 . S
C715 C714 1.326 . S
C715 C719 1.416 1_655 S
C716 C699 1.574 . S
C716 H710 0.949 . S
C716 C720 1.368 . S
C717 C698 1.424 1_455 S
C717 C711 1.432 . S
C717 C718 1.522 . S
C718 C699 1.385 . S
C718 C712 1.353 1_455 S
C718 C717 1.522 . S
C719 C703 1.429 . S
C719 C715 1.416 1_455 S
C719 C720 1.523 . S
C720 C704 1.368 1_455 S
C720 C716 1.368 . S
C720 C719 1.523 . S
H721 C696 0.950 . S
H722 C698 0.950 . S
H723 C699 0.949 . S
H724 C701 0.950 . S
H725 C703 0.950 . S
C187 C12 3.124 . S
C192 C180 2.785 . S
C217 C52 3.127 . S
C222 C158 2.793 . S
C247 C111 2.794 . S
C252 C172 2.733 . S
C277 C31 2.932 . S
C282 C183 2.860 . S
C312 C161 2.858 . S
C307 C71 2.932 . S
C342 C169 2.897 . S
C337 C92 3.243 . S
C367 C48 0.531 . S
C372 C136 0.711 . S
C397 C109 0.477 . S
C402 C147 0.699 . S
C427 C29 0.464 . S
C432 C125 0.698 . S
C462 C139 0.333 . S
C457 C69 0.255 . S
C492 C150 0.315 . S
C487 C88 0.132 . S
C517 C8 0.146 . S
C522 C128 0.305 . S
C552 C149 1.207 . S
C547 C17 1.234 1_455 S
C577 C57 1.238 . S
C582 C127 1.207 . S
C607 C97 1.255 . S
C612 C138 1.217 . S
C642 C171 1.647 . S
C637 C42 1.656 . S
C672 C182 1.652 . S
C667 C82 1.692 . S
C697 C2 1.697 1_655 S
C702 C160 1.657 . S
