# Generated by pormake.
# Topology pyr, (3,6)-cn, num edge types: 1
# Building blocks:
#     Node 0, Type 0, BuildingBlock: WUSLED_clean_sbu_0, # of connection points: 3
#     Node 1, Type 0, BuildingBlock: WUSLED_clean_sbu_0, # of connection points: 3
#     Node 2, Type 0, BuildingBlock: WUSLED_clean_sbu_0, # of connection points: 3
#     Node 3, Type 0, BuildingBlock: WUSLED_clean_sbu_0, # of connection points: 3
#     Node 4, Type 0, BuildingBlock: WUSLED_clean_sbu_0, # of connection points: 3
#     Node 5, Type 0, BuildingBlock: WUSLED_clean_sbu_0, # of connection points: 3
#     Node 6, Type 0, BuildingBlock: WUSLED_clean_sbu_0, # of connection points: 3
#     Node 7, Type 0, BuildingBlock: WUSLED_clean_sbu_0, # of connection points: 3
#     Node 8, Type 1, BuildingBlock: PAMTUU_clean_sbu_0, # of connection points: 6
#     Node 9, Type 1, BuildingBlock: PAMTUU_clean_sbu_0, # of connection points: 6
#     Node 10, Type 1, BuildingBlock: PAMTUU_clean_sbu_0, # of connection points: 6
#     Node 11, Type 1, BuildingBlock: PAMTUU_clean_sbu_0, # of connection points: 6
#     Edge 12, Type (0, 1), BuildingBlock: ZUJKAS_clean_linker_0, # of connection points: 2
#     Edge 13, Type (0, 1), BuildingBlock: ZUJKAS_clean_linker_0, # of connection points: 2
#     Edge 14, Type (0, 1), BuildingBlock: ZUJKAS_clean_linker_0, # of connection points: 2
#     Edge 15, Type (0, 1), BuildingBlock: ZUJKAS_clean_linker_0, # of connection points: 2
#     Edge 16, Type (0, 1), BuildingBlock: ZUJKAS_clean_linker_0, # of connection points: 2
#     Edge 17, Type (0, 1), BuildingBlock: ZUJKAS_clean_linker_0, # of connection points: 2
#     Edge 18, Type (0, 1), BuildingBlock: ZUJKAS_clean_linker_0, # of connection points: 2
#     Edge 19, Type (0, 1), BuildingBlock: ZUJKAS_clean_linker_0, # of connection points: 2
#     Edge 20, Type (0, 1), BuildingBlock: ZUJKAS_clean_linker_0, # of connection points: 2
#     Edge 21, Type (0, 1), BuildingBlock: ZUJKAS_clean_linker_0, # of connection points: 2
#     Edge 22, Type (0, 1), BuildingBlock: ZUJKAS_clean_linker_0, # of connection points: 2
#     Edge 23, Type (0, 1), BuildingBlock: ZUJKAS_clean_linker_0, # of connection points: 2
#     Edge 24, Type (0, 1), BuildingBlock: ZUJKAS_clean_linker_0, # of connection points: 2
#     Edge 25, Type (0, 1), BuildingBlock: ZUJKAS_clean_linker_0, # of connection points: 2
#     Edge 26, Type (0, 1), BuildingBlock: ZUJKAS_clean_linker_0, # of connection points: 2
#     Edge 27, Type (0, 1), BuildingBlock: ZUJKAS_clean_linker_0, # of connection points: 2
#     Edge 28, Type (0, 1), BuildingBlock: ZUJKAS_clean_linker_0, # of connection points: 2
#     Edge 29, Type (0, 1), BuildingBlock: ZUJKAS_clean_linker_0, # of connection points: 2
#     Edge 30, Type (0, 1), BuildingBlock: ZUJKAS_clean_linker_0, # of connection points: 2
#     Edge 31, Type (0, 1), BuildingBlock: ZUJKAS_clean_linker_0, # of connection points: 2
#     Edge 32, Type (0, 1), BuildingBlock: ZUJKAS_clean_linker_0, # of connection points: 2
#     Edge 33, Type (0, 1), BuildingBlock: ZUJKAS_clean_linker_0, # of connection points: 2
#     Edge 34, Type (0, 1), BuildingBlock: ZUJKAS_clean_linker_0, # of connection points: 2
#     Edge 35, Type (0, 1), BuildingBlock: ZUJKAS_clean_linker_0, # of connection points: 2
# Relax obj value: 0.057
# Max RMSD: 0.110
# Mean RMSD: 0.044
data_MOF--net-pyr--node1-WUSLED_clean_sbu_0--node2-PAMTUU_clean_sbu_0--edge1-ZUJKAS_clean_linker_0
_symmetry_space_group_name_H-M    P1
_symmetry_Int_Tables_number       1
_symmetry_cell_setting            triclinic
loop_
_symmetry_equiv_pos_as_xyz
'x, y, z'
_cell_length_a     60.759461
_cell_length_b     61.256427
_cell_length_c     59.261681
_cell_angle_alpha  90.111816
_cell_angle_beta   89.730018
_cell_angle_gamma 98.691891
loop_
_atom_site_label
_atom_site_type_symbol
_atom_site_fract_x
_atom_site_fract_y
_atom_site_fract_z
_atom_type_partial_charge
C0 C 0.28791 0.29549 0.14809 0.0
C1 C 0.2757 0.30656 0.16332 0.0
C2 C 0.26215 0.32687 0.13241 0.0
C3 C 0.26301 0.32216 0.15557 0.0
C4 C 0.27506 0.3163 0.11728 0.0
C5 C 0.28784 0.30069 0.12509 0.0
U6 U 0.2896 0.25199 0.19177 0.0
O7 O 0.29001 0.21631 0.18899 0.0
O8 O 0.31668 0.23721 0.20728 0.0
C9 C 0.30923 0.21742 0.19932 0.0
C10 C 0.29829 0.27674 0.15592 0.0
C11 C 0.32561 0.206 0.1878 0.0
C12 C 0.35289 0.204 0.15809 0.0
C13 C 0.33821 0.21572 0.16954 0.0
C14 C 0.34245 0.17283 0.1831 0.0
C15 C 0.35497 0.18233 0.16463 0.0
C16 C 0.32791 0.18459 0.19458 0.0
C17 C 0.24836 0.25021 0.24012 0.0
C18 C 0.24771 0.22294 0.26987 0.0
C19 C 0.2164 0.24277 0.26511 0.0
C20 C 0.22735 0.25444 0.24705 0.0
C21 C 0.22636 0.22672 0.27653 0.0
C22 C 0.25858 0.23453 0.25172 0.0
C23 C 0.25865 0.26095 0.21977 0.0
O24 O 0.30984 0.28005 0.17468 0.0
O25 O 0.28485 0.2578 0.15566 0.0
O26 O 0.2543 0.24947 0.20117 0.0
O27 O 0.27969 0.26977 0.22154 0.0
H28 H 0.27523 0.30248 0.18112 0.0
H29 H 0.25299 0.32968 0.16763 0.0
H30 H 0.27487 0.31971 0.09936 0.0
H31 H 0.29701 0.29214 0.11309 0.0
H32 H 0.36219 0.21165 0.14381 0.0
H33 H 0.33646 0.23221 0.16399 0.0
H34 H 0.34392 0.15629 0.18869 0.0
H35 H 0.31825 0.17686 0.20863 0.0
H36 H 0.25567 0.21049 0.27818 0.0
H37 H 0.20005 0.24616 0.27001 0.0
H38 H 0.2192 0.26642 0.23817 0.0
H39 H 0.27472 0.23087 0.24638 0.0
C40 C 0.18427 0.81206 0.67357 0.0
C41 C 0.17737 0.82784 0.68812 0.0
C42 C 0.15517 0.84056 0.6581 0.0
C43 C 0.16293 0.84193 0.68048 0.0
C44 C 0.16182 0.82438 0.64373 0.0
C45 C 0.17627 0.81028 0.65141 0.0
U46 U 0.22508 0.79926 0.71758 0.0
O47 O 0.234 0.76782 0.72998 0.0
O48 O 0.25948 0.79273 0.71463 0.0
C49 C 0.25478 0.77276 0.72315 0.0
C50 C 0.20073 0.79839 0.68107 0.0
C51 C 0.2644 0.75536 0.7112 0.0
C52 C 0.27643 0.73905 0.67669 0.0
C53 C 0.26464 0.75406 0.68754 0.0
C54 C 0.28696 0.72594 0.71305 0.0
C55 C 0.28819 0.72522 0.68936 0.0
C56 C 0.2752 0.74088 0.72383 0.0
C57 C 0.23265 0.83454 0.77035 0.0
C58 C 0.26105 0.82911 0.7976 0.0
C59 C 0.24145 0.86061 0.80104 0.0
C60 C 0.22897 0.85363 0.78189 0.0
C61 C 0.25787 0.84861 0.80894 0.0
C62 C 0.24857 0.82216 0.77843 0.0
C63 C 0.22101 0.82855 0.74907 0.0
O64 O 0.22122 0.80889 0.68228 0.0
O65 O 0.1949 0.78582 0.69873 0.0
O66 O 0.20877 0.80893 0.74851 0.0
O67 O 0.23334 0.83296 0.73091 0.0
H68 H 0.18345 0.82947 0.70529 0.0
H69 H 0.15792 0.85397 0.69207 0.0
H70 H 0.15641 0.82305 0.62633 0.0
H71 H 0.18157 0.7983 0.63992 0.0
H72 H 0.27714 0.73896 0.65843 0.0
H73 H 0.25637 0.76513 0.6775 0.0
H74 H 0.2955 0.71524 0.72328 0.0
H75 H 0.27513 0.74161 0.74211 0.0
H76 H 0.27335 0.81934 0.80338 0.0
H77 H 0.23878 0.87586 0.80914 0.0
H78 H 0.21686 0.86345 0.77574 0.0
H79 H 0.25165 0.80739 0.76963 0.0
C80 C 0.64247 0.38854 0.79989 0.0
C81 C 0.63902 0.41074 0.80143 0.0
C82 C 0.62841 0.41118 0.76136 0.0
C83 C 0.63217 0.42188 0.78246 0.0
C84 C 0.63223 0.38906 0.75992 0.0
C85 C 0.6391 0.37799 0.77881 0.0
U86 U 0.67468 0.37202 0.85401 0.0
O87 O 0.66015 0.3577 0.88607 0.0
O88 O 0.67933 0.33841 0.86436 0.0
C89 C 0.66765 0.33885 0.88305 0.0
C90 C 0.64697 0.37518 0.82013 0.0
C91 C 0.65349 0.31803 0.89074 0.0
C92 C 0.63614 0.27962 0.88499 0.0
C93 C 0.6467 0.30001 0.87628 0.0
C94 C 0.63869 0.29492 0.92263 0.0
C95 C 0.6324 0.27662 0.9084 0.0
C96 C 0.64901 0.31524 0.91394 0.0
C97 C 0.73009 0.40975 0.87323 0.0
C98 C 0.75513 0.40512 0.90452 0.0
C99 C 0.7627 0.43736 0.88068 0.0
C100 C 0.74369 0.42971 0.86794 0.0
C101 C 0.76879 0.42529 0.89927 0.0
C102 C 0.73597 0.39746 0.89167 0.0
C103 C 0.71011 0.40259 0.85901 0.0
O104 O 0.66375 0.36394 0.81896 0.0
O105 O 0.64462 0.38349 0.84034 0.0
O106 O 0.69054 0.40405 0.86791 0.0
O107 O 0.70999 0.38474 0.84664 0.0
H108 H 0.64124 0.41944 0.81737 0.0
H109 H 0.62978 0.43894 0.78442 0.0
H110 H 0.62923 0.3799 0.74432 0.0
H111 H 0.64118 0.36081 0.77705 0.0
H112 H 0.63167 0.26596 0.87345 0.0
H113 H 0.65007 0.30146 0.85834 0.0
H114 H 0.63583 0.29351 0.94066 0.0
H115 H 0.65418 0.32869 0.92557 0.0
H116 H 0.75904 0.39537 0.91876 0.0
H117 H 0.77283 0.45267 0.87567 0.0
H118 H 0.73962 0.43948 0.85375 0.0
H119 H 0.72577 0.38201 0.89616 0.0
C120 C 0.80502 0.64984 0.37421 0.0
C121 C 0.80382 0.65639 0.3969 0.0
C122 C 0.76628 0.63517 0.4007 0.0
C123 C 0.78464 0.64918 0.40997 0.0
C124 C 0.76757 0.62906 0.37785 0.0
C125 C 0.78662 0.63627 0.36487 0.0
U126 U 0.86042 0.68642 0.35364 0.0
O127 O 0.89091 0.67491 0.3407 0.0
O128 O 0.87143 0.69295 0.31839 0.0
C129 C 0.88835 0.68195 0.32005 0.0
C130 C 0.82528 0.65584 0.35995 0.0
C131 C 0.89273 0.66731 0.30064 0.0
C132 C 0.89253 0.66013 0.25988 0.0
C133 C 0.88575 0.6716 0.27866 0.0
C134 C 0.91322 0.63937 0.28442 0.0
C135 C 0.90666 0.64403 0.26235 0.0
C136 C 0.90647 0.65088 0.30321 0.0
C137 C 0.8802 0.743 0.38639 0.0
C138 C 0.91169 0.76457 0.40604 0.0
C139 C 0.88142 0.78264 0.39308 0.0
C140 C 0.87079 0.76252 0.38421 0.0
C141 C 0.90184 0.78396 0.40455 0.0
C142 C 0.90097 0.74436 0.39722 0.0
C143 C 0.86645 0.72132 0.38057 0.0
O144 O 0.82547 0.67261 0.34612 0.0
O145 O 0.84473 0.65523 0.36936 0.0
O146 O 0.87453 0.70298 0.38465 0.0
O147 O 0.85441 0.7202 0.36211 0.0
H148 H 0.81777 0.66682 0.40458 0.0
H149 H 0.78443 0.65418 0.4275 0.0
H150 H 0.75376 0.61871 0.36986 0.0
H151 H 0.78707 0.631 0.34743 0.0
H152 H 0.88678 0.66408 0.24333 0.0
H153 H 0.87548 0.68431 0.27582 0.0
H154 H 0.92429 0.62736 0.28717 0.0
H155 H 0.91263 0.64736 0.31972 0.0
H156 H 0.92728 0.76478 0.41487 0.0
H157 H 0.8734 0.79715 0.39119 0.0
H158 H 0.85469 0.76209 0.3763 0.0
H159 H 0.90862 0.72968 0.39961 0.0
C160 C 0.74342 0.74982 0.8982 0.0
C161 C 0.76016 0.74324 0.88457 0.0
C162 C 0.77064 0.72016 0.91486 0.0
C163 C 0.77364 0.72857 0.8928 0.0
C164 C 0.75336 0.72632 0.92825 0.0
C165 C 0.73987 0.7411 0.91997 0.0
U166 U 0.73823 0.79253 0.85455 0.0
O167 O 0.70952 0.80452 0.83889 0.0
O168 O 0.73445 0.82749 0.85726 0.0
C169 C 0.71518 0.82463 0.84686 0.0
C170 C 0.73127 0.76724 0.89024 0.0
C171 C 0.69757 0.83428 0.8584 0.0
C172 C 0.6734 0.83646 0.89079 0.0
C173 C 0.68875 0.82581 0.87905 0.0
C174 C 0.67522 0.86379 0.86103 0.0
C175 C 0.6667 0.85577 0.88204 0.0
C176 C 0.69053 0.85312 0.84933 0.0
C177 C 0.78013 0.79854 0.80669 0.0
C178 C 0.78349 0.83047 0.78205 0.0
C179 C 0.8073 0.80253 0.77631 0.0
C180 C 0.79703 0.79053 0.79453 0.0
C181 C 0.80084 0.82279 0.77004 0.0
C182 C 0.77321 0.81842 0.80021 0.0
C183 C 0.77059 0.78677 0.8268 0.0
O184 O 0.74301 0.78709 0.89071 0.0
O185 O 0.72034 0.76292 0.87124 0.0
O186 O 0.75017 0.77629 0.82467 0.0
O187 O 0.77371 0.79817 0.84562 0.0
H188 H 0.7633 0.75004 0.86779 0.0
H189 H 0.78701 0.72458 0.88215 0.0
H190 H 0.7505 0.71999 0.94523 0.0
H191 H 0.72707 0.74613 0.93073 0.0
H192 H 0.66696 0.82974 0.9068 0.0
H193 H 0.6941 0.81125 0.88628 0.0
H194 H 0.67071 0.87879 0.85397 0.0
H195 H 0.69733 0.85993 0.83347 0.0
H196 H 0.77831 0.84612 0.77789 0.0
H197 H 0.82038 0.79601 0.76722 0.0
H198 H 0.80253 0.77518 0.79935 0.0
H199 H 0.7602 0.82486 0.80953 0.0
C200 C 0.77037 0.25866 0.29123 0.0
C201 C 0.78004 0.24094 0.28269 0.0
C202 C 0.753 0.23619 0.25215 0.0
C203 C 0.77145 0.22982 0.26326 0.0
C204 C 0.7439 0.25446 0.26045 0.0
C205 C 0.75253 0.26556 0.27983 0.0
U206 U 0.8047 0.26121 0.3452 0.0
O207 O 0.81968 0.28993 0.36524 0.0
O208 O 0.79374 0.26531 0.38015 0.0
C209 C 0.80562 0.285 0.38208 0.0
C210 C 0.77742 0.26886 0.31294 0.0
C211 C 0.79263 0.30238 0.38878 0.0
C212 C 0.76646 0.32715 0.37904 0.0
C213 C 0.78093 0.31257 0.3725 0.0
C214 C 0.77555 0.3219 0.41822 0.0
C215 C 0.76324 0.33167 0.40201 0.0
C216 C 0.79009 0.30734 0.41164 0.0
C217 C 0.84362 0.21755 0.35373 0.0
C218 C 0.87262 0.2173 0.38185 0.0
C219 C 0.85744 0.18343 0.36266 0.0
C220 C 0.84335 0.19488 0.35034 0.0
C221 C 0.87218 0.19446 0.37863 0.0
C222 C 0.85835 0.22876 0.36957 0.0
C223 C 0.82815 0.2288 0.34061 0.0
O224 O 0.77119 0.25653 0.33062 0.0
O225 O 0.79815 0.27877 0.3141 0.0
O226 O 0.83536 0.24918 0.33413 0.0
O227 O 0.80747 0.22593 0.34792 0.0
H228 H 0.79382 0.23536 0.29139 0.0
H229 H 0.77901 0.216 0.25716 0.0
H230 H 0.7295 0.25962 0.25256 0.0
H231 H 0.74478 0.27911 0.28633 0.0
H232 H 0.75754 0.33462 0.36609 0.0
H233 H 0.78253 0.3088 0.35475 0.0
H234 H 0.77329 0.32478 0.43606 0.0
H235 H 0.79879 0.29942 0.42444 0.0
H236 H 0.88368 0.2262 0.39416 0.0
H237 H 0.85691 0.16593 0.35956 0.0
H238 H 0.83214 0.18597 0.33815 0.0
H239 H 0.85873 0.24627 0.37252 0.0
C240 C 0.30553 0.6463 0.1839 0.0
C241 C 0.3054 0.64967 0.16041 0.0
C242 C 0.26612 0.63261 0.15815 0.0
C243 C 0.28596 0.64292 0.14771 0.0
C244 C 0.26642 0.62951 0.18171 0.0
C245 C 0.28577 0.63625 0.19432 0.0
U246 U 0.3612 0.68227 0.20425 0.0
O247 O 0.37277 0.68792 0.23937 0.0
O248 O 0.39231 0.67103 0.21572 0.0
C249 C 0.3903 0.67796 0.23653 0.0
C250 C 0.32603 0.65171 0.19793 0.0
C251 C 0.39666 0.66394 0.25539 0.0
C252 C 0.38796 0.63942 0.28795 0.0
C253 C 0.381 0.65072 0.2691 0.0
C254 C 0.42625 0.65421 0.27964 0.0
C255 C 0.41072 0.64128 0.29375 0.0
C256 C 0.41933 0.66528 0.26081 0.0
C257 C 0.37895 0.73922 0.171 0.0
C258 C 0.41352 0.76404 0.16251 0.0
C259 C 0.37814 0.77492 0.15287 0.0
C260 C 0.36708 0.75508 0.16189 0.0
C261 C 0.40155 0.77967 0.15273 0.0
C262 C 0.40235 0.74395 0.17138 0.0
C263 C 0.36614 0.71744 0.17776 0.0
O264 O 0.34543 0.65131 0.18811 0.0
O265 O 0.32645 0.66799 0.21247 0.0
O266 O 0.35484 0.7162 0.1968 0.0
O267 O 0.37464 0.69941 0.17323 0.0
H268 H 0.32035 0.65735 0.15182 0.0
H269 H 0.28649 0.6459 0.12971 0.0
H270 H 0.2518 0.62134 0.19048 0.0
H271 H 0.28539 0.6332 0.21233 0.0
H272 H 0.37543 0.62976 0.29838 0.0
H273 H 0.3634 0.64942 0.2655 0.0
H274 H 0.44389 0.65585 0.28314 0.0
H275 H 0.43181 0.67537 0.25066 0.0
H276 H 0.43154 0.76702 0.16266 0.0
H277 H 0.36827 0.78657 0.14589 0.0
H278 H 0.34905 0.75188 0.16123 0.0
H279 H 0.412 0.73199 0.17812 0.0
C280 C 0.13713 0.31358 0.68825 0.0
C281 C 0.15193 0.30502 0.67352 0.0
C282 C 0.12311 0.27393 0.66353 0.0
C283 C 0.14498 0.28545 0.66126 0.0
C284 C 0.10836 0.28289 0.67807 0.0
C285 C 0.11529 0.30238 0.69021 0.0
U286 U 0.17448 0.36905 0.70555 0.0
O287 O 0.16346 0.39935 0.71886 0.0
O288 O 0.18391 0.38108 0.73993 0.0
C289 C 0.17246 0.39763 0.73881 0.0
C290 C 0.14386 0.33359 0.70237 0.0
C291 C 0.15947 0.4025 0.75934 0.0
C292 C 0.12713 0.41512 0.77722 0.0
C293 C 0.13775 0.40783 0.75801 0.0
C294 C 0.15947 0.41162 0.79964 0.0
C295 C 0.13791 0.41741 0.79835 0.0
C296 C 0.17005 0.40436 0.78048 0.0
C297 C 0.2271 0.38864 0.66614 0.0
C298 C 0.25944 0.4175 0.66962 0.0
C299 C 0.25442 0.39546 0.63564 0.0
C300 C 0.23472 0.38378 0.6446 0.0
C301 C 0.26718 0.41257 0.64792 0.0
C302 C 0.23962 0.40565 0.67865 0.0
C303 C 0.20658 0.37485 0.67488 0.0
O304 O 0.16217 0.33433 0.71426 0.0
O305 O 0.14172 0.35275 0.69339 0.0
O306 O 0.18757 0.38237 0.67265 0.0
O307 O 0.20795 0.36412 0.69389 0.0
H308 H 0.1689 0.31331 0.6717 0.0
H309 H 0.15691 0.27909 0.65039 0.0
H310 H 0.09131 0.27491 0.68003 0.0
H311 H 0.10351 0.30864 0.70137 0.0
H312 H 0.11045 0.41905 0.77542 0.0
H313 H 0.12907 0.40682 0.74204 0.0
H314 H 0.16861 0.41342 0.81533 0.0
H315 H 0.18691 0.40082 0.78209 0.0
H316 H 0.26857 0.43063 0.6796 0.0
H317 H 0.25984 0.39066 0.61918 0.0
H318 H 0.22551 0.3706 0.63468 0.0
H319 H 0.23414 0.40969 0.69535 0.0
Tb320 Tb 0.03879 0.03104 0.51314 0.0
Tb321 Tb 0.99725 0.02707 0.549 0.0
C322 C 0.99945 0.99091 0.51102 0.0
C323 C 0.08238 0.05092 0.46988 0.0
C324 C 0.10526 0.08163 0.43938 0.0
C325 C 0.09658 0.0602 0.43218 0.0
C326 C 0.08533 0.04497 0.44733 0.0
C327 C 0.09078 0.07244 0.47708 0.0
C328 C 0.10223 0.08763 0.46196 0.0
C329 C 0.07088 0.03427 0.48552 0.0
O330 O 1.0127 0.04545 0.49619 0.0
O331 O 0.99313 0.05448 0.52714 0.0
O332 O 0.02327 0.05266 0.56202 0.0
O333 O 0.04191 0.06349 0.52926 0.0
O334 O 0.96293 0.02508 0.55534 0.0
O335 O 0.98652 0.02656 0.58266 0.0
O336 O 0.01556 1.00051 0.55772 0.0
O337 O 0.04944 1.01623 0.54379 0.0
O338 O 0.02102 0.99747 0.50913 0.0
O339 O 0.98672 1.00246 0.5227 0.0
C340 C 0.99807 0.0564 0.5056 0.0
O341 O 0.07314 0.03833 0.50706 0.0
O342 O 0.05048 0.02606 0.48037 0.0
C343 C 0.03696 0.06725 0.55041 0.0
C344 C 0.95112 1.00617 0.5888 0.0
C345 C 0.9242 0.97294 0.61335 0.0
C346 C 0.91914 0.99459 0.61287 0.0
C347 C 0.93252 1.01107 0.6007 0.0
C348 C 0.95606 0.98453 0.58881 0.0
C349 C 0.94272 0.96803 0.60106 0.0
C350 C 0.96556 0.02396 0.5771 0.0
C351 C 0.03727 1.00169 0.5567 0.0
H352 H 0.09887 0.05507 0.41493 0.0
H353 H 0.07904 0.02845 0.44146 0.0
H354 H 0.08861 0.07752 0.49436 0.0
H355 H 0.10858 0.10411 0.46787 0.0
H356 H 0.90517 0.99895 0.62238 0.0
H357 H 0.92855 0.02773 0.60087 0.0
H358 H 0.97036 0.98049 0.57959 0.0
H359 H 0.94689 0.95146 0.60092 0.0
Tb360 Tb 0.54002 0.02934 0.04807 0.0
Tb361 Tb 0.50276 0.02117 1.00783 0.0
C362 C 0.54691 1.00233 1.00534 0.0
C363 C 0.5831 0.05413 0.08964 0.0
C364 C 0.61101 0.08888 0.11107 0.0
C365 C 0.6068 0.0678 0.12097 0.0
C366 C 0.59299 0.05061 0.11033 0.0
C367 C 0.58707 0.07512 0.07966 0.0
C368 C 0.60101 0.09237 0.09027 0.0
C369 C 0.56901 0.03557 0.07873 0.0
O370 O 0.55125 0.05507 1.02299 0.0
O371 O 0.51922 0.05506 1.00223 0.0
O372 O 0.48679 0.03197 0.03791 0.0
O373 O 0.5174 0.05312 0.05282 0.0
O374 O 0.49303 1.00572 0.97722 0.0
O375 O 0.47287 0.02762 0.99303 0.0
O376 O 0.49788 0.99012 0.02673 0.0
O377 O 0.51544 1.00172 0.05997 0.0
O378 O 0.54731 1.00213 0.02739 0.0
O379 O 0.53453 1.01466 0.9947 0.0
C380 C 0.53947 0.06424 1.008 0.0
O381 O 0.54765 0.03398 0.08245 0.0
O382 O 0.57348 0.03193 0.05762 0.0
C383 C 0.49576 0.04843 0.05068 0.0
C384 C 0.45415 0.99752 0.97183 0.0
C385 C 0.41741 0.96731 0.95689 0.0
C386 C 0.41725 0.99019 0.95531 0.0
C387 C 0.43551 1.00514 0.96263 0.0
C388 C 0.45392 0.97467 0.97443 0.0
C389 C 0.43576 0.95971 0.9669 0.0
C390 C 0.47424 1.0135 0.97679 0.0
C391 C 0.50228 0.98686 0.04813 0.0
H392 H 0.61449 0.0645 0.13681 0.0
H393 H 0.59014 0.03447 0.11821 0.0
H394 H 0.57947 0.07812 0.06368 0.0
H395 H 0.60378 0.10847 0.08233 0.0
H396 H 0.40343 0.99653 0.94749 0.0
H397 H 0.43537 0.02268 0.96042 0.0
H398 H 0.46802 0.96833 0.98166 0.0
H399 H 0.43621 0.94217 0.96854 0.0
Tb400 Tb 0.51976 0.50524 0.51514 0.0
Tb401 Tb 0.51685 0.55064 0.5431 0.0
C402 C 0.49822 0.54358 0.49329 0.0
C403 C 0.54404 0.4608 0.4867 0.0
C404 C 0.58178 0.44212 0.47332 0.0
C405 C 0.56048 0.43361 0.46511 0.0
C406 C 0.54179 0.44288 0.47176 0.0
C407 C 0.5652 0.46943 0.49493 0.0
C408 C 0.5839 0.46016 0.48833 0.0
C409 C 0.52441 0.47077 0.49323 0.0
O410 O 0.54817 0.52889 0.50371 0.0
O411 O 0.55181 0.55423 0.53264 0.0
O412 O 0.5259 0.52672 0.56759 0.0
O413 O 0.54226 0.5045 0.54384 0.0
O414 O 0.51498 0.58465 0.54348 0.0
O415 O 0.51503 0.56648 0.57443 0.0
O416 O 0.48301 0.53256 0.54397 0.0
O417 O 0.49043 0.4975 0.53698 0.0
O418 O 0.49622 0.52208 0.49631 0.0
O419 O 0.50943 0.55722 0.50779 0.0
C420 C 0.55968 0.54565 0.51444 0.0
O421 O 0.52003 0.47097 0.51477 0.0
O422 O 0.52298 0.48973 0.48391 0.0
C423 C 0.53872 0.51151 0.56434 0.0
C424 C 0.49251 0.5946 0.57368 0.0
C425 C 0.45542 0.61229 0.59093 0.0
C426 C 0.47177 0.6064 0.60551 0.0
C427 C 0.49013 0.59777 0.59696 0.0
C428 C 0.47616 0.60032 0.55903 0.0
C429 C 0.45785 0.60913 0.56757 0.0
C430 C 0.51189 0.58498 0.56521 0.0
C431 C 0.47714 0.51099 0.5446 0.0
H432 H 0.55827 0.41997 0.45328 0.0
H433 H 0.52559 0.43614 0.46512 0.0
H434 H 0.56724 0.48335 0.50644 0.0
H435 H 0.59997 0.46697 0.49518 0.0
H436 H 0.4703 0.60822 0.62361 0.0
H437 H 0.50245 0.5934 0.60861 0.0
H438 H 0.47747 0.59802 0.54097 0.0
H439 H 0.44578 0.61373 0.5558 0.0
Tb440 Tb 0.01688 0.55097 1.01504 0.0
Tb441 Tb 0.01817 0.50541 0.04276 0.0
C442 C 0.03921 0.5119 0.99422 0.0
C443 C 0.99536 0.59841 0.98999 0.0
C444 C 0.9583 0.6195 0.98088 0.0
C445 C 0.97746 0.62339 0.96716 0.0
C446 C 0.99585 0.61291 0.97171 0.0
C447 C 0.97647 0.59477 1.00398 0.0
C448 C 0.95811 0.60532 0.99952 0.0
C449 C 1.01377 0.5858 0.99328 0.0
O450 O 0.98256 0.53381 1.0143 0.0
O451 O 0.98941 0.49854 1.02032 0.0
O452 O 0.9951 0.52245 0.06223 0.0
O453 O 1.00637 0.5577 0.04939 0.0
O454 O 0.0166 0.47093 0.0423 0.0
O455 O 0.02121 0.4891 0.07347 0.0
O456 O 0.04631 0.52863 0.05532 0.0
O457 O 0.0516 0.55329 1.02602 0.0
O458 O 0.02693 0.52745 0.99065 0.0
O459 O 0.04173 0.50459 1.01475 0.0
C460 C 0.97632 0.51231 1.01314 0.0
O461 O 0.02171 0.58566 1.01365 0.0
O462 O 1.01069 0.56612 0.98447 0.0
C463 C 0.99595 0.54398 0.06437 0.0
C464 C 0.04114 0.4596 0.06862 0.0
C465 C 0.07879 0.43955 0.07819 0.0
C466 C 0.05756 0.43013 0.08603 0.0
C467 C 0.03886 0.4401 0.08124 0.0
C468 C 0.06226 0.46911 0.06083 0.0
C469 C 0.08092 0.45916 0.06554 0.0
C470 C 0.02164 0.47017 0.06359 0.0
C471 C 0.05862 0.54497 0.04468 0.0
H472 H 0.97816 0.63441 0.95282 0.0
H473 H 1.01027 0.61577 0.96067 0.0
H474 H 0.97572 0.58337 1.01803 0.0
H475 H 0.94351 0.60181 1.01022 0.0
H476 H 0.05536 0.41491 0.09562 0.0
H477 H 0.02265 0.43257 0.08735 0.0
H478 H 0.0643 0.48427 0.05114 0.0
H479 H 0.09706 0.46698 0.05954 0.0
H480 H 0.183 0.20704 0.27611 0.0
H481 H 0.16303 0.18343 0.30518 0.0
H482 H 0.22198 0.19165 0.34641 0.0
H483 H 0.24209 0.2155 0.31746 0.0
H484 H 0.17866 0.14274 0.32315 0.0
H485 H 0.1691 0.2066 0.38801 0.0
H486 H 0.17362 0.2133 0.3585 0.0
H487 H 0.19622 0.20707 0.37546 0.0
C488 C 0.19162 0.20409 0.29151 0.0
C489 C 0.21408 0.21319 0.29458 0.0
C490 C 0.18024 0.19052 0.308 0.0
C491 C 0.19103 0.186 0.32792 0.0
C492 C 0.21336 0.19516 0.33119 0.0
H493 H 0.14495 0.10824 0.4463 0.0
H494 H 0.16625 0.13336 0.41923 0.0
C495 C 0.22483 0.20864 0.31462 0.0
C496 C 0.17907 0.17097 0.34488 0.0
H497 H 0.15597 0.16954 0.39752 0.0
C498 C 0.17366 0.14853 0.33942 0.0
C499 C 0.17282 0.17867 0.36608 0.0
C500 C 0.17807 0.20274 0.37247 0.0
C501 C 0.16219 0.13346 0.35475 0.0
C502 C 0.15543 0.14122 0.37581 0.0
C503 C 0.16109 0.16366 0.38133 0.0
C504 C 0.14232 0.12633 0.39226 0.0
C505 C 0.15783 0.10932 0.34838 0.0
C506 C 0.12161 0.11441 0.3862 0.0
C507 C 0.10951 0.09999 0.40156 0.0
C508 C 0.11774 0.09751 0.42337 0.0
C509 C 0.13817 0.10994 0.42963 0.0
C510 C 0.15036 0.12421 0.41419 0.0
H511 H 0.16962 0.10531 0.33515 0.0
H512 H 0.15921 0.09862 0.36325 0.0
H513 H 0.14073 0.10531 0.34152 0.0
H514 H 0.11479 0.11627 0.36959 0.0
H515 H 0.09363 0.09089 0.39642 0.0
H516 H 0.24607 0.86786 0.84816 0.0
H517 H 0.27084 0.88506 0.87781 0.0
H518 H 0.32727 0.86584 0.84284 0.0
H519 H 0.30278 0.84894 0.81297 0.0
H520 H 0.32601 0.85923 0.89214 0.0
H521 H 0.31407 0.94369 0.86525 0.0
H522 H 0.28925 0.92443 0.87077 0.0
H523 H 0.30687 0.91978 0.84741 0.0
C524 C 0.26375 0.86728 0.84678 0.0
C525 C 0.27245 0.85716 0.82808 0.0
C526 C 0.27785 0.87704 0.86376 0.0
C527 C 0.30087 0.8769 0.86234 0.0
C528 C 0.30952 0.86608 0.84423 0.0
H529 H 0.42152 0.93249 0.92933 0.0
H530 H 0.39207 0.90904 0.90896 0.0
C531 C 0.29547 0.85635 0.82722 0.0
C532 C 0.31616 0.88902 0.87903 0.0
H533 H 0.33766 0.94107 0.89606 0.0
C534 C 0.32851 0.87712 0.89315 0.0
C535 C 0.31927 0.91233 0.88028 0.0
C536 C 0.30683 0.92592 0.86506 0.0
C537 C 0.344 0.88797 0.90852 0.0
C538 C 0.34758 0.91135 0.90935 0.0
C539 C 0.33487 0.92317 0.89549 0.0
C540 C 0.36519 0.92406 0.92347 0.0
C541 C 0.3562 0.87425 0.92383 0.0
C542 C 0.35998 0.94057 0.93819 0.0
C543 C 0.37687 0.95423 0.94961 0.0
C544 C 0.39926 0.95157 0.94659 0.0
C545 C 0.40438 0.93466 0.93232 0.0
C546 C 0.38753 0.92117 0.92073 0.0
H547 H 0.34648 0.85759 0.92662 0.0
H548 H 0.37224 0.87199 0.91582 0.0
H549 H 0.35975 0.88238 0.94046 0.0
H550 H 0.34287 0.94318 0.94048 0.0
H551 H 0.37244 0.96706 0.96058 0.0
H552 H 0.63806 0.40635 0.716 0.0
H553 H 0.62339 0.42365 0.68335 0.0
H554 H 0.58514 0.45957 0.72747 0.0
H555 H 0.5994 0.44207 0.76027 0.0
H556 H 0.58012 0.42216 0.6684 0.0
H557 H 0.61572 0.50892 0.68734 0.0
H558 H 0.62474 0.48584 0.7016 0.0
H559 H 0.59924 0.49524 0.70985 0.0
C560 C 0.62644 0.41782 0.71893 0.0
C561 C 0.62008 0.42265 0.74114 0.0
C562 C 0.6181 0.42785 0.70008 0.0
C563 C 0.60329 0.44327 0.7027 0.0
C564 C 0.59691 0.44819 0.72479 0.0
H565 H 0.5332 0.52022 0.6095 0.0
H566 H 0.54858 0.50351 0.64218 0.0
C567 C 0.60518 0.4381 0.74367 0.0
C568 C 0.59414 0.45362 0.68234 0.0
H569 H 0.59001 0.50323 0.65714 0.0
C570 C 0.58241 0.43989 0.66593 0.0
C571 C 0.5969 0.4768 0.67891 0.0
C572 C 0.61 0.4926 0.69522 0.0
C573 C 0.57311 0.44857 0.64668 0.0
C574 C 0.57598 0.47177 0.64315 0.0
C575 C 0.58771 0.48549 0.65959 0.0
C576 C 0.56677 0.48211 0.62278 0.0
C577 C 0.55963 0.43271 0.63069 0.0
C578 C 0.57197 0.47614 0.60062 0.0
C579 C 0.56305 0.48567 0.58174 0.0
C580 C 0.54882 0.50168 0.5844 0.0
C581 C 0.54402 0.50796 0.60659 0.0
C582 C 0.55287 0.49838 0.62543 0.0
H583 H 0.55339 0.41672 0.639 0.0
H584 H 0.54518 0.43974 0.62398 0.0
H585 H 0.57033 0.42928 0.61628 0.0
H586 H 0.58309 0.46415 0.59783 0.0
H587 H 0.56735 0.48045 0.56503 0.0
H588 H 0.91894 0.66178 0.22054 0.0
H589 H 0.93287 0.64377 0.18769 0.0
H590 H 0.92857 0.58296 0.22497 0.0
H591 H 0.91404 0.60069 0.25776 0.0
H592 H 0.97096 0.62426 0.18299 0.0
H593 H 0.89657 0.56188 0.1668 0.0
H594 H 0.89578 0.58525 0.18523 0.0
H595 H 0.90725 0.5616 0.19498 0.0
C596 C 0.92056 0.64447 0.22175 0.0
C597 C 0.91508 0.63277 0.24201 0.0
C598 C 0.92875 0.63419 0.20289 0.0
C599 C 0.93155 0.61181 0.20352 0.0
C600 C 0.92622 0.60009 0.22372 0.0
H601 H 0.97929 0.52273 0.10337 0.0
H602 H 0.96419 0.53887 0.13693 0.0
C603 C 0.91811 0.61039 0.24265 0.0
C604 C 0.94062 0.60108 0.18329 0.0
H605 H 0.92873 0.55896 0.14495 0.0
C606 C 0.96165 0.61003 0.17466 0.0
C607 C 0.92869 0.58235 0.17233 0.0
C608 C 0.90574 0.57227 0.18013 0.0
C609 C 0.97114 0.60073 0.15579 0.0
C610 C 0.95908 0.58219 0.14456 0.0
C611 C 0.93809 0.57313 0.15332 0.0
C612 C 0.96784 0.57215 0.1237 0.0
C613 C 0.99435 0.61059 0.14851 0.0
C614 C 0.97454 0.58514 0.1046 0.0
C615 C 0.98335 0.57596 0.08542 0.0
C616 C 0.98543 0.55335 0.08451 0.0
C617 C 0.97803 0.54017 0.10334 0.0
C618 C 0.96936 0.54943 0.12263 0.0
H619 H 1.0038 0.61951 0.16261 0.0
H620 H 1.00384 0.59771 0.14213 0.0
H621 H 0.99327 0.62269 0.1348 0.0
H622 H 0.97296 0.60251 0.10446 0.0
H623 H 0.98856 0.58668 0.07125 0.0
H624 H 0.34569 0.13947 0.15072 0.0
H625 H 0.37037 0.11776 0.13078 0.0
H626 H 0.42217 0.17424 0.12982 0.0
H627 H 0.39762 0.19608 0.14998 0.0
H628 H 0.39422 0.1301 0.08656 0.0
H629 H 0.44924 0.12095 0.15979 0.0
H630 H 0.42128 0.12717 0.16326 0.0
H631 H 0.44309 0.14817 0.15366 0.0
C632 C 0.36238 0.14723 0.14639 0.0
C633 C 0.3698 0.16943 0.15204 0.0
C634 C 0.37638 0.13486 0.1349 0.0
C635 C 0.39807 0.1444 0.12905 0.0
C636 C 0.4055 0.1666 0.13439 0.0
H637 H 0.5084 0.0884 0.07089 0.0
H638 H 0.48457 0.11207 0.08898 0.0
C639 C 0.39144 0.17906 0.14575 0.0
C640 C 0.41291 0.13099 0.11738 0.0
H641 H 0.45822 0.1052 0.12534 0.0
C642 C 0.40825 0.12464 0.09496 0.0
C643 C 0.43118 0.12407 0.12845 0.0
C644 C 0.43656 0.13027 0.15267 0.0
C645 C 0.42159 0.11161 0.08316 0.0
C646 C 0.43964 0.10424 0.09438 0.0
C647 C 0.44435 0.11079 0.11679 0.0
C648 C 0.45392 0.08979 0.08321 0.0
C649 C 0.41648 0.10631 0.05869 0.0
C650 C 0.44465 0.06923 0.07422 0.0
C651 C 0.45821 0.05574 0.06365 0.0
C652 C 0.48135 0.06239 0.06225 0.0
C653 C 0.49064 0.08276 0.07171 0.0
C654 C 0.47704 0.09633 0.08205 0.0
H655 H 0.40687 0.11842 0.05097 0.0
H656 H 0.43197 0.10614 0.04872 0.0
H657 H 0.40624 0.08975 0.05747 0.0
H658 H 0.42692 0.06354 0.07549 0.0
H659 H 0.45058 0.04005 0.05671 0.0
H660 H 0.11901 0.83235 0.63006 0.0
H661 H 0.09709 0.85911 0.61442 0.0
H662 H 0.13713 0.91147 0.65107 0.0
H663 H 0.15924 0.88494 0.66662 0.0
H664 H 0.09079 0.91326 0.65295 0.0
H665 H 0.12082 0.90415 0.56519 0.0
H666 H 0.10865 0.87886 0.57857 0.0
H667 H 0.1341 0.89394 0.58934 0.0
C668 C 0.12322 0.84957 0.63472 0.0
C669 C 0.14098 0.8565 0.6495 0.0
C670 C 0.11065 0.86483 0.6258 0.0
C671 C 0.11568 0.88731 0.63136 0.0
C672 C 0.13297 0.89419 0.64656 0.0
H673 H 0.08184 0.99968 0.55932 0.0
H674 H 0.09994 0.9721 0.57864 0.0
C675 C 0.14554 0.87897 0.6555 0.0
C676 C 0.10335 0.9038 0.62093 0.0
H677 H 0.09326 0.92708 0.57046 0.0
C678 C 0.09126 0.91628 0.63491 0.0
C679 C 0.10425 0.90786 0.59743 0.0
C680 C 0.11779 0.89567 0.58172 0.0
C681 C 0.07994 0.93268 0.62598 0.0
C682 C 0.08057 0.93649 0.60243 0.0
C683 C 0.0927 0.92403 0.58849 0.0
C684 C 0.06938 0.95379 0.59186 0.0
C685 C 0.06789 0.94615 0.64186 0.0
C686 C 0.04615 0.9527 0.59293 0.0
C687 C 0.0357 0.96852 0.58192 0.0
C688 C 0.04831 0.98564 0.56951 0.0
C689 C 0.0716 0.98676 0.5687 0.0
C690 C 0.08199 0.97098 0.57972 0.0
H691 H 0.0734 0.94484 0.6596 0.0
H692 H 0.07058 0.96383 0.6369 0.0
H693 H 0.04976 0.94004 0.64116 0.0
H694 H 0.03605 0.93934 0.60186 0.0
H695 H 0.01773 0.96707 0.5828 0.0
H696 H 0.79936 0.40185 0.91876 0.0
H697 H 0.83328 0.41619 0.93956 0.0
H698 H 0.81949 0.48257 0.93055 0.0
H699 H 0.78526 0.4684 0.91058 0.0
H700 H 0.87037 0.44364 0.92593 0.0
H701 H 0.83239 0.48347 0.99707 0.0
H702 H 0.8161 0.4646 0.97799 0.0
H703 H 0.82461 0.49299 0.97008 0.0
C704 C 0.80327 0.41948 0.92152 0.0
C705 C 0.78931 0.43385 0.91284 0.0
C706 C 0.82286 0.42771 0.93333 0.0
C707 C 0.82901 0.45054 0.93704 0.0
C708 C 0.81509 0.46489 0.92845 0.0
H709 H 0.94436 0.53508 0.99563 0.0
H710 H 0.90912 0.51999 0.97747 0.0
C711 C 0.79554 0.4567 0.91667 0.0
C712 C 0.85032 0.45939 0.94906 0.0
H713 H 0.87177 0.49232 0.99303 0.0
C714 C 0.8706 0.45414 0.94071 0.0
C715 C 0.85089 0.47324 0.96836 0.0
C716 C 0.82982 0.47875 0.97906 0.0
C717 C 0.89122 0.46263 0.95067 0.0
C718 C 0.89179 0.47654 0.96991 0.0
C719 C 0.87152 0.48176 0.9783 0.0
C720 C 0.9132 0.48574 0.98154 0.0
C721 C 0.9123 0.4571 0.94002 0.0
C722 C 0.92727 0.47166 0.99043 0.0
C723 C 0.94747 0.48026 1.00087 0.0
C724 C 0.95423 0.50324 1.00289 0.0
C725 C 0.93988 0.51732 0.99442 0.0
C726 C 0.91963 0.50868 0.98399 0.0
H727 H 0.90964 0.45168 0.92221 0.0
H728 H 0.9258 0.4715 0.94049 0.0
H729 H 0.91793 0.44337 0.94952 0.0
H730 H 0.92261 0.45392 0.98934 0.0
H731 H 0.95788 0.4688 1.00724 0.0
H732 H 0.74092 0.59393 0.39965 0.0
H733 H 0.707 0.58049 0.42078 0.0
H734 H 0.71173 0.64297 0.45533 0.0
H735 H 0.74535 0.65688 0.43362 0.0
H736 H 0.69896 0.57455 0.46557 0.0
H737 H 0.64811 0.63564 0.43336 0.0
H738 H 0.6745 0.63213 0.42091 0.0
H739 H 0.67361 0.64777 0.44653 0.0
C740 C 0.73467 0.60501 0.41151 0.0
C741 C 0.74593 0.62669 0.41458 0.0
C742 C 0.71526 0.59718 0.42377 0.0
C743 C 0.70637 0.61076 0.43945 0.0
C744 C 0.71782 0.63224 0.44301 0.0
H745 H 0.58571 0.5853 0.5251 0.0
H746 H 0.62161 0.6013 0.50836 0.0
C747 C 0.7373 0.64011 0.43073 0.0
C748 C 0.68531 0.60222 0.4521 0.0
H749 H 0.63179 0.61141 0.46193 0.0
C750 C 0.68431 0.58266 0.46473 0.0
C751 C 0.66603 0.61269 0.45117 0.0
C752 C 0.66544 0.6331 0.43711 0.0
C753 C 0.66481 0.57341 0.47637 0.0
C754 C 0.64549 0.58373 0.47523 0.0
C755 C 0.64655 0.60347 0.46292 0.0
C756 C 0.62381 0.57383 0.48589 0.0
C757 C 0.66513 0.55271 0.49003 0.0
C758 C 0.61287 0.55309 0.47883 0.0
C759 C 0.5923 0.54396 0.48828 0.0
C760 C 0.58204 0.55527 0.50513 0.0
C761 C 0.59309 0.57601 0.5123 0.0
C762 C 0.61363 0.58523 0.50266 0.0
H763 H 0.68238 0.55024 0.49423 0.0
H764 H 0.65551 0.55321 0.50595 0.0
H765 H 0.65737 0.53822 0.48008 0.0
H766 H 0.62009 0.54405 0.46571 0.0
H767 H 0.58441 0.52799 0.48225 0.0
H768 H 0.25326 0.36583 0.15054 0.0
H769 H 0.22333 0.3864 0.13994 0.0
H770 H 0.20546 0.3412 0.08486 0.0
H771 H 0.23486 0.32016 0.09571 0.0
H772 H 0.21314 0.40704 0.09912 0.0
H773 H 0.14813 0.33709 0.12329 0.0
H774 H 0.17694 0.33844 0.13125 0.0
H775 H 0.16821 0.33023 0.10316 0.0
C776 C 0.24302 0.36033 0.13611 0.0
C777 C 0.2463 0.34123 0.1241 0.0
C778 C 0.22602 0.37216 0.13001 0.0
C779 C 0.21198 0.36506 0.11188 0.0
C780 C 0.21593 0.34672 0.09913 0.0
H781 H 0.11282 0.43365 0.04953 0.0
H782 H 0.14564 0.41639 0.05783 0.0
C783 C 0.2329 0.33487 0.10521 0.0
C784 C 0.19257 0.37621 0.10699 0.0
H785 H 0.13575 0.36774 0.10586 0.0
C786 C 0.19621 0.3985 0.10057 0.0
C787 C 0.17052 0.36507 0.10931 0.0
C788 C 0.16561 0.34145 0.11733 0.0
C789 C 0.17832 0.40988 0.09603 0.0
C790 C 0.15629 0.39853 0.09769 0.0
C791 C 0.15267 0.37633 0.10443 0.0
C792 C 0.13667 0.40938 0.09273 0.0
C793 C 0.18314 0.43404 0.08992 0.0
C794 C 0.1205 0.41069 0.10946 0.0
C795 C 0.10169 0.42045 0.10476 0.0
C796 C 0.09868 0.42902 0.08319 0.0
C797 C 0.11486 0.42754 0.06642 0.0
C798 C 0.13363 0.41773 0.07113 0.0
H799 H 0.20016 0.44157 0.09509 0.0
H800 H 0.18193 0.4358 0.07136 0.0
H801 H 0.1709 0.4434 0.09795 0.0
H802 H 0.12251 0.40426 0.12623 0.0
H803 H 0.08964 0.42154 0.11809 0.0
H804 H 0.59786 0.24592 0.89226 0.0
H805 H 0.58192 0.21037 0.90899 0.0
H806 H 0.62958 0.22108 0.96302 0.0
H807 H 0.64521 0.25665 0.94669 0.0
H808 H 0.59756 0.17315 0.91738 0.0
H809 H 0.57452 0.20587 0.99976 0.0
H810 H 0.58344 0.22368 0.97622 0.0
H811 H 0.60363 0.21332 0.99384 0.0
C812 C 0.60496 0.24073 0.90772 0.0
C813 C 0.62271 0.25449 0.9182 0.0
C814 C 0.59576 0.22033 0.91735 0.0
C815 C 0.60404 0.21301 0.93772 0.0
C816 C 0.62218 0.22646 0.94782 0.0
H817 H 0.57801 0.09206 1.0192 0.0
H818 H 0.59341 0.1275 1.00195 0.0
C819 C 0.63123 0.2469 0.93834 0.0
C820 C 0.59415 0.1912 0.94809 0.0
H821 H 0.57333 0.16683 0.99744 0.0
C822 C 0.59212 0.17189 0.93485 0.0
C823 C 0.58691 0.18921 0.97094 0.0
C824 C 0.58701 0.20915 0.98595 0.0
C825 C 0.58366 0.15089 0.94381 0.0
C826 C 0.57678 0.14891 0.96671 0.0
C827 C 0.57871 0.16817 0.97995 0.0
C828 C 0.56735 0.12709 0.97715 0.0
C829 C 0.58262 0.13087 0.92878 0.0
C830 C 0.54735 0.11493 0.96928 0.0
C831 C 0.53839 0.09466 0.97922 0.0
C832 C 0.5492 0.08585 0.99733 0.0
C833 C 0.56921 0.09811 1.00524 0.0
C834 C 0.57806 0.11849 0.99539 0.0
H835 H 0.59329 0.1343 0.91354 0.0
H836 H 0.58789 0.11681 0.93806 0.0
H837 H 0.56521 0.1258 0.92314 0.0
H838 H 0.53847 0.12125 0.95554 0.0
H839 H 0.52294 0.08589 0.97264 0.0
H840 H 0.94633 0.80211 0.40696 0.0
H841 H 0.96287 0.83662 0.42534 0.0
H842 H 0.89755 0.84886 0.44525 0.0
H843 H 0.88097 0.8143 0.42742 0.0
H844 H 0.95598 0.88035 0.41708 0.0
H845 H 0.93145 0.85638 0.50485 0.0
H846 H 0.9305 0.83649 0.48223 0.0
H847 H 0.9087 0.85314 0.4853 0.0
C848 C 0.93546 0.812 0.41543 0.0
C849 C 0.91222 0.80522 0.4156 0.0
C850 C 0.94497 0.83186 0.42586 0.0
C851 C 0.93157 0.84536 0.43704 0.0
C852 C 0.90838 0.83869 0.43714 0.0
H853 H 0.95545 0.97118 0.51067 0.0
H854 H 0.93937 0.93646 0.49247 0.0
C855 C 0.89887 0.81894 0.42663 0.0
C856 C 0.9417 0.86658 0.44816 0.0
H857 H 0.94632 0.89403 0.49879 0.0
C858 C 0.95396 0.88326 0.43498 0.0
C859 C 0.93906 0.8706 0.47152 0.0
C860 C 0.92689 0.85316 0.48689 0.0
C861 C 0.96318 0.90384 0.44431 0.0
C862 C 0.9606 0.90787 0.46771 0.0
C863 C 0.94835 0.89114 0.48089 0.0
C864 C 0.97055 0.92918 0.47883 0.0
C865 C 0.97504 0.92133 0.4288 0.0
C866 C 0.99357 0.93676 0.47768 0.0
C867 C 1.00285 0.95668 0.48802 0.0
C868 C 0.9894 0.96961 0.50005 0.0
C869 C 0.9664 0.96183 0.5015 0.0
C870 C 0.95712 0.94188 0.4911 0.0
H871 H 0.96989 0.91829 0.41097 0.0
H872 H 0.97178 0.93804 0.43376 0.0
H873 H 0.99324 0.9211 0.42972 0.0
H874 H 1.00451 0.92713 0.4689 0.0
H875 H 0.02061 0.96189 0.48663 0.0
H876 H 0.33019 0.71975 0.70153 0.0
H877 H 0.355 0.69749 0.68294 0.0
H878 H 0.30463 0.67657 0.63314 0.0
H879 H 0.27962 0.69907 0.65168 0.0
H880 H 0.34996 0.65294 0.67509 0.0
H881 H 0.35842 0.6993 0.59411 0.0
H882 H 0.34619 0.70964 0.61899 0.0
H883 H 0.3304 0.68837 0.60223 0.0
C884 C 0.32427 0.71027 0.68674 0.0
C885 C 0.3029 0.71115 0.6781 0.0
C886 C 0.33852 0.69762 0.67607 0.0
C887 C 0.33179 0.68557 0.6565 0.0
C888 C 0.31035 0.68611 0.64796 0.0
H889 H 0.41189 0.60498 0.57661 0.0
H890 H 0.38035 0.62109 0.59176 0.0
C891 C 0.29607 0.69892 0.65858 0.0
C892 C 0.34744 0.67251 0.64531 0.0
H893 H 0.37786 0.66892 0.59714 0.0
C894 C 0.35594 0.65635 0.65799 0.0
C895 C 0.3552 0.67693 0.62297 0.0
C896 C 0.34726 0.69461 0.60878 0.0
C897 C 0.37232 0.64484 0.64913 0.0
C898 C 0.38052 0.64972 0.62708 0.0
C899 C 0.37149 0.66526 0.61406 0.0
C900 C 0.39948 0.6399 0.61784 0.0
C901 C 0.38092 0.62768 0.66348 0.0
C902 C 0.4207 0.64544 0.62729 0.0
C903 C 0.4388 0.63655 0.61851 0.0
C904 C 0.43606 0.62185 0.60011 0.0
C905 C 0.41471 0.61643 0.5906 0.0
C906 C 0.39662 0.62549 0.59932 0.0
H907 H 0.3694 0.62213 0.67765 0.0
H908 H 0.38345 0.61308 0.65319 0.0
H909 H 0.39724 0.63485 0.67073 0.0
H910 H 0.42331 0.65686 0.64135 0.0
H911 H 0.45502 0.6415 0.62598 0.0
H912 H 0.78305 0.84658 0.73748 0.0
H913 H 0.80306 0.87058 0.70873 0.0
H914 H 0.86536 0.85369 0.7323 0.0
H915 H 0.84561 0.83 0.76132 0.0
H916 H 0.8371 0.90725 0.71742 0.0
H917 H 0.86741 0.84383 0.66322 0.0
H918 H 0.84482 0.83723 0.68317 0.0
H919 H 0.87315 0.8417 0.69279 0.0
C920 C 0.80101 0.84797 0.73655 0.0
C921 C 0.81272 0.83632 0.75168 0.0
C922 C 0.81238 0.86159 0.72005 0.0
C923 C 0.83562 0.86365 0.71825 0.0
C924 C 0.84737 0.85194 0.73314 0.0
H925 H 0.93894 0.94262 0.64102 0.0
H926 H 0.91667 0.91585 0.66574 0.0
C927 C 0.83603 0.83837 0.74968 0.0
C928 C 0.84775 0.87895 0.70157 0.0
H929 H 0.88248 0.88126 0.65594 0.0
C930 C 0.84688 0.9016 0.70384 0.0
C931 C 0.86055 0.87145 0.68402 0.0
C932 C 0.86146 0.84721 0.68045 0.0
C933 C 0.85897 0.91708 0.68931 0.0
C934 C 0.87185 0.9096 0.67177 0.0
C935 C 0.87257 0.88692 0.6694 0.0
C936 C 0.88508 0.92513 0.656 0.0
C937 C 0.85841 0.94133 0.69331 0.0
C938 C 0.87463 0.93884 0.64198 0.0
C939 C 0.8873 0.95413 0.62784 0.0
C940 C 0.91064 0.95582 0.62732 0.0
C941 C 0.92099 0.94158 0.64089 0.0
C942 C 0.90831 0.92635 0.65509 0.0
H943 H 0.85243 0.94452 0.71058 0.0
H944 H 0.87516 0.95116 0.69084 0.0
H945 H 0.84687 0.94725 0.68107 0.0
H946 H 0.85667 0.93779 0.64206 0.0
H947 H 0.87883 0.96463 0.61729 0.0
H948 H 0.74546 0.19123 0.24781 0.0
H949 H 0.72419 0.1694 0.21857 0.0
H950 H 0.71386 0.22908 0.18443 0.0
H951 H 0.73546 0.25116 0.21351 0.0
H952 H 0.67477 0.20023 0.19279 0.0
H953 H 0.73783 0.1561 0.15259 0.0
H954 H 0.73741 0.15397 0.1828 0.0
H955 H 0.74524 0.1805 0.16973 0.0
C956 C 0.73922 0.19976 0.23378 0.0
C957 C 0.74218 0.22298 0.23303 0.0
C958 C 0.72704 0.18722 0.21706 0.0
C959 C 0.71765 0.19762 0.19921 0.0
C960 C 0.72104 0.22075 0.19805 0.0
H961 H 0.6439 0.11888 0.0921 0.0
H962 H 0.6696 0.14756 0.11147 0.0
C963 C 0.73328 0.23333 0.21474 0.0
C964 C 0.70265 0.18432 0.18303 0.0
H965 H 0.69954 0.14085 0.14646 0.0
C966 C 0.68025 0.18746 0.1824 0.0
C967 C 0.70987 0.16783 0.16932 0.0
C968 C 0.73395 0.16451 0.16843 0.0
C969 C 0.66465 0.17385 0.16924 0.0
C970 C 0.67161 0.1565 0.1566 0.0
C971 C 0.69421 0.15403 0.15635 0.0
C972 C 0.65549 0.13997 0.14463 0.0
C973 C 0.64079 0.17797 0.16919 0.0
C974 C 0.63914 0.12621 0.15689 0.0
C975 C 0.62447 0.10992 0.14592 0.0
C976 C 0.62593 0.10698 0.12245 0.0
C977 C 0.64221 0.12092 0.11015 0.0
C978 C 0.65696 0.1372 0.12119 0.0
H979 H 0.63946 0.19521 0.1742 0.0
H980 H 0.63318 0.1747 0.15228 0.0
H981 H 0.63104 0.16673 0.1815 0.0
H982 H 0.63796 0.12785 0.17504 0.0
H983 H 0.61201 0.09957 0.15583 0.0
H984 H 0.4434 0.65797 0.32393 0.0
H985 H 0.45664 0.64021 0.35712 0.0
H986 H 0.4088 0.5821 0.34471 0.0
H987 H 0.39554 0.59972 0.31123 0.0
H988 H 0.43242 0.62323 0.39653 0.0
H989 H 0.4682 0.55708 0.35145 0.0
H990 H 0.46166 0.58135 0.33724 0.0
H991 H 0.43981 0.55945 0.34481 0.0
C992 C 0.43576 0.64132 0.32804 0.0
C993 C 0.41842 0.63032 0.31455 0.0
C994 C 0.44332 0.63119 0.34721 0.0
C995 C 0.43403 0.60961 0.35346 0.0
C996 C 0.41657 0.5986 0.3402 0.0
H997 H 0.46911 0.52191 0.46184 0.0
H998 H 0.45281 0.53751 0.42885 0.0
C999 C 0.40883 0.60883 0.32109 0.0
C1000 C 0.44242 0.59895 0.37401 0.0
H1001 H 0.4691 0.55638 0.39123 0.0
C1002 C 0.44044 0.60861 0.39533 0.0
C1003 C 0.45278 0.57973 0.3727 0.0
C1004 C 0.45596 0.5688 0.35035 0.0
C1005 C 0.44824 0.59959 0.41519 0.0
C1006 C 0.45915 0.58066 0.41388 0.0
C1007 C 0.46089 0.57086 0.39253 0.0
C1008 C 0.46911 0.57103 0.43428 0.0
C1009 C 0.44406 0.61023 0.43748 0.0
C1010 C 0.48412 0.58435 0.44848 0.0
C1011 C 0.49327 0.57549 0.46756 0.0
C1012 C 0.4881 0.55286 0.47293 0.0
C1013 C 0.47348 0.5394 0.45844 0.0
C1014 C 0.46414 0.54835 0.43944 0.0
H1015 H 0.42942 0.61909 0.43658 0.0
H1016 H 0.44117 0.59784 0.45124 0.0
H1017 H 0.45875 0.62255 0.44184 0.0
H1018 H 0.48902 0.60169 0.44473 0.0
H1019 H 0.50466 0.58643 0.47799 0.0
H1020 H 0.11061 0.44971 0.80025 0.0
H1021 H 0.09424 0.46492 0.83348 0.0
H1022 H 0.12423 0.42095 0.87626 0.0
H1023 H 0.14048 0.40549 0.84318 0.0
H1024 H 0.06496 0.4461 0.86595 0.0
H1025 H 0.14484 0.47971 0.90671 0.0
H1026 H 0.14332 0.47025 0.87783 0.0
H1027 H 0.14211 0.45072 0.9006 0.0
C1028 C 0.11362 0.44305 0.81666 0.0
C1029 C 0.12713 0.42633 0.81876 0.0
C1030 C 0.1043 0.45192 0.83577 0.0
C1031 C 0.10827 0.44451 0.85764 0.0
C1032 C 0.12133 0.42752 0.85977 0.0
H1033 H 0.06598 0.47915 0.99395 0.0
H1034 H 0.08226 0.46266 0.96126 0.0
C1035 C 0.13065 0.41862 0.84069 0.0
C1036 C 0.09852 0.45431 0.87805 0.0
H1037 H 0.11206 0.4806 0.9284 0.0
C1038 C 0.07532 0.45372 0.87953 0.0
C1039 C 0.11186 0.46427 0.89599 0.0
C1040 C 0.13692 0.46651 0.89519 0.0
C1041 C 0.06517 0.46238 0.89838 0.0
C1042 C 0.07851 0.47242 0.91627 0.0
C1043 C 0.10171 0.47293 0.91485 0.0
C1044 C 0.06877 0.48274 0.93637 0.0
C1045 C 0.04011 0.46018 0.89915 0.0
C1046 C 0.05604 0.49991 0.9336 0.0
C1047 C 0.04672 0.50941 0.95229 0.0
C1048 C 0.04993 0.50214 0.97444 0.0
C1049 C 0.06304 0.48522 0.97725 0.0
C1050 C 0.0724 0.47573 0.95849 0.0
H1051 H 0.03219 0.44675 0.88789 0.0
H1052 H 0.03369 0.45681 0.91657 0.0
H1053 H 0.03494 0.47585 0.89335 0.0
H1054 H 0.05335 0.50611 0.91689 0.0
H1055 H 0.03689 0.52245 0.9493 0.0
H1056 H 0.66784 0.86417 0.9274 0.0
H1057 H 0.64571 0.8874 0.94864 0.0
H1058 H 0.61114 0.90012 0.88779 0.0
H1059 H 0.63258 0.87623 0.86657 0.0
H1060 H 0.6456 0.93163 0.94101 0.0
H1061 H 0.56018 0.88536 0.93264 0.0
H1062 H 0.58476 0.87309 0.92648 0.0
H1063 H 0.57448 0.89084 0.9062 0.0
C1064 C 0.65513 0.87143 0.91863 0.0
C1065 C 0.65195 0.86831 0.89528 0.0
C1066 C 0.64263 0.88485 0.93077 0.0
C1067 C 0.62665 0.89531 0.91984 0.0
C1068 C 0.62311 0.89189 0.89664 0.0
H1069 H 0.54618 0.99461 0.95982 0.0
H1070 H 0.56603 0.96899 0.93896 0.0
C1071 C 0.63556 0.87844 0.88449 0.0
C1072 C 0.61485 0.911 0.93239 0.0
H1073 H 0.56324 0.92197 0.94715 0.0
C1074 C 0.6276 0.92944 0.94249 0.0
C1075 C 0.59137 0.90815 0.93418 0.0
C1076 C 0.57688 0.88819 0.92449 0.0
C1077 C 0.61748 0.9453 0.95407 0.0
C1078 C 0.59402 0.94247 0.95579 0.0
C1079 C 0.58124 0.92407 0.94569 0.0
C1080 C 0.58245 0.95828 0.96835 0.0
C1081 C 0.63192 0.96515 0.96403 0.0
C1082 C 0.58511 0.96063 0.99176 0.0
C1083 C 0.57382 0.97521 1.00372 0.0
C1084 C 0.55962 0.98768 0.99247 0.0
C1085 C 0.55708 0.98534 0.96897 0.0
C1086 C 0.56833 0.97067 0.95703 0.0
H1087 H 0.64903 0.96747 0.95683 0.0
H1088 H 0.62452 0.9804 0.96111 0.0
H1089 H 0.63319 0.96286 0.98253 0.0
H1090 H 0.59571 0.95096 1.00081 0.0
H1091 H 0.57608 0.97654 1.02182 0.0
H1092 H 0.86066 0.15448 0.39906 0.0
H1093 H 0.88464 0.13301 0.41979 0.0
H1094 H 0.94063 0.18426 0.40885 0.0
H1095 H 0.91657 0.20599 0.38821 0.0
H1096 H 0.92125 0.1165 0.40484 0.0
H1097 H 0.94361 0.17415 0.47643 0.0
H1098 H 0.92138 0.17717 0.45713 0.0
H1099 H 0.94988 0.18599 0.44901 0.0
C1100 C 0.87808 0.1612 0.40106 0.0
C1101 C 0.88673 0.18193 0.39198 0.0
C1102 C 0.89176 0.14893 0.41295 0.0
C1103 C 0.91439 0.15709 0.41607 0.0
C1104 C 0.92312 0.17782 0.40707 0.0
H1105 H 1.00741 0.06956 0.46186 0.0
H1106 H 0.98888 0.0948 0.43929 0.0
C1107 C 0.90937 0.1902 0.39526 0.0
C1108 C 0.92875 0.14348 0.42827 0.0
H1109 H 0.96108 0.14221 0.4751 0.0
C1110 C 0.93004 0.12214 0.42017 0.0
C1111 C 0.94006 0.15082 0.44834 0.0
C1112 C 0.93857 0.1732 0.45841 0.0
C1113 C 0.94202 0.10781 0.43174 0.0
C1114 C 0.95346 0.1152 0.45174 0.0
C1115 C 0.95244 0.13664 0.45968 0.0
C1116 C 0.9654 0.10046 0.46545 0.0
C1117 C 0.94162 0.08464 0.42289 0.0
C1118 C 0.9588 0.09574 0.48785 0.0
C1119 C 0.96947 0.08152 0.50085 0.0
C1120 C 0.98701 0.07167 0.49172 0.0
C1121 C 0.99382 0.07666 0.46935 0.0
C1122 C 0.98319 0.09103 0.45638 0.0
H1123 H 0.92786 0.07996 0.41071 0.0
H1124 H 0.95754 0.08353 0.41403 0.0
H1125 H 0.93975 0.07247 0.43689 0.0
H1126 H 0.94514 0.10286 0.49522 0.0
H1127 H 0.96379 0.07811 0.51801 0.0
H1128 H 0.22221 0.6329 0.17037 0.0
H1129 H 0.18851 0.61836 0.14963 0.0
H1130 H 0.2285 0.60083 0.09416 0.0
H1131 H 0.26238 0.61453 0.11518 0.0
H1132 H 0.1715 0.62939 0.11005 0.0
H1133 H 0.18809 0.54305 0.10403 0.0
H1134 H 0.2041 0.56328 0.12198 0.0
H1135 H 0.20981 0.56287 0.09218 0.0
C1136 C 0.22398 0.62572 0.15388 0.0
C1137 C 0.24531 0.62477 0.14473 0.0
C1138 C 0.20455 0.61753 0.14189 0.0
C1139 C 0.20571 0.60802 0.12038 0.0
C1140 C 0.22694 0.60756 0.1109 0.0
H1141 H 0.08888 0.58051 0.02993 0.0
H1142 H 0.12458 0.59596 0.047 0.0
C1143 C 0.24642 0.61573 0.1229 0.0
C1144 C 0.18473 0.59877 0.10801 0.0
H1145 H 0.15694 0.55164 0.08387 0.0
C1146 C 0.16839 0.61239 0.1043 0.0
C1147 C 0.18029 0.57648 0.10066 0.0
C1148 C 0.19637 0.56048 0.10507 0.0
C1149 C 0.14803 0.60447 0.0935 0.0
C1150 C 0.14381 0.58231 0.08573 0.0
C1151 C 0.16011 0.56867 0.08952 0.0
C1152 C 0.12224 0.57265 0.07464 0.0
C1153 C 0.13094 0.6198 0.09119 0.0
C1154 C 0.10909 0.5539 0.08387 0.0
C1155 C 0.08872 0.54491 0.07403 0.0
C1156 C 0.08083 0.55431 0.05451 0.0
C1157 C 0.09422 0.57284 0.04498 0.0
C1158 C 0.11465 0.58183 0.05488 0.0
H1159 H 0.13415 0.63399 0.10304 0.0
H1160 H 0.13158 0.62647 0.07377 0.0
H1161 H 0.11388 0.61093 0.09436 0.0
H1162 H 0.11444 0.54632 0.09899 0.0
H1163 H 0.07908 0.5306 0.0819 0.0
H1164 H 0.30655 0.42891 0.66961 0.0
H1165 H 0.34143 0.44734 0.65297 0.0
H1166 H 0.31171 0.44113 0.58694 0.0
H1167 H 0.2766 0.4239 0.60346 0.0
H1168 H 0.36943 0.43324 0.62401 0.0
H1169 H 0.33874 0.50451 0.58471 0.0
H1170 H 0.32215 0.48655 0.60444 0.0
H1171 H 0.32347 0.47885 0.57516 0.0
C1172 C 0.30721 0.43186 0.6516 0.0
C1173 C 0.28848 0.42478 0.63802 0.0
C1174 C 0.32734 0.44227 0.64203 0.0
C1175 C 0.32935 0.44603 0.61862 0.0
C1176 C 0.31068 0.439 0.60506 0.0
H1177 H 0.45598 0.46792 0.54395 0.0
H1178 H 0.4206 0.45254 0.56169 0.0
C1179 C 0.29056 0.42874 0.61459 0.0
C1180 C 0.35108 0.45647 0.60828 0.0
H1181 H 0.37447 0.49734 0.5723 0.0
C1182 C 0.3705 0.44735 0.61282 0.0
C1183 C 0.35283 0.47516 0.59389 0.0
C1184 C 0.33323 0.48699 0.58945 0.0
C1185 C 0.39127 0.45596 0.60311 0.0
C1186 C 0.39278 0.47394 0.58781 0.0
C1187 C 0.37347 0.48339 0.58368 0.0
C1188 C 0.41422 0.48344 0.57625 0.0
C1189 C 0.41147 0.44593 0.60984 0.0
C1190 C 0.42226 0.5062 0.57747 0.0
C1191 C 0.44238 0.51515 0.56693 0.0
C1192 C 0.45511 0.5016 0.55484 0.0
C1193 C 0.44684 0.47889 0.55326 0.0
C1194 C 0.4266 0.46999 0.56363 0.0
H1195 H 0.40903 0.43757 0.62649 0.0
H1196 H 0.41442 0.43332 0.59717 0.0
H1197 H 0.42656 0.45862 0.61072 0.0
H1198 H 0.41311 0.51707 0.58691 0.0
H1199 H 0.44812 0.5327 0.5686 0.0
H1200 H 0.78903 0.68752 0.89341 0.0
H1201 H 0.81934 0.66889 0.90687 0.0
H1202 H 0.81864 0.70262 0.97069 0.0
H1203 H 0.78878 0.7219 0.9572 0.0
H1204 H 0.86219 0.69709 0.92468 0.0
H1205 H 0.81987 0.63337 0.98379 0.0
H1206 H 0.80546 0.64363 0.96038 0.0
H1207 H 0.81232 0.66071 0.98468 0.0
C1208 C 0.79521 0.69091 0.91036 0.0
C1209 C 0.78659 0.70636 0.92415 0.0
C1210 C 0.81242 0.68014 0.91805 0.0
C1211 C 0.82109 0.68439 0.93975 0.0
C1212 C 0.81193 0.699 0.95396 0.0
H1213 H 0.93158 0.63895 1.00959 0.0
H1214 H 0.89836 0.65522 1.0 0.0
C1215 C 0.7948 0.70991 0.94624 0.0
C1216 C 0.84106 0.67512 0.94668 0.0
H1217 H 0.85894 0.63644 0.98054 0.0
C1218 C 0.86154 0.68381 0.93687 0.0
C1219 C 0.84005 0.65804 0.96277 0.0
C1220 C 0.81828 0.64821 0.97355 0.0
C1221 C 0.88119 0.67585 0.94275 0.0
C1222 C 0.88016 0.65832 0.95842 0.0
C1223 C 0.85966 0.64982 0.96847 0.0
C1224 C 0.90013 0.64834 0.96426 0.0
C1225 C 0.9029 0.6866 0.93243 0.0
C1226 C 0.91192 0.63882 0.9474 0.0
C1227 C 0.9309 0.62965 0.9528 0.0
C1228 C 0.9383 0.62956 0.97523 0.0
C1229 C 0.92622 0.63873 0.99218 0.0
C1230 C 0.90729 0.64804 0.98673 0.0
H1231 H 0.90183 0.70356 0.92638 0.0
H1232 H 0.91675 0.68748 0.94472 0.0
H1233 H 0.90695 0.67671 0.9177 0.0
H1234 H 0.90634 0.63834 0.93005 0.0
H1235 H 0.93957 0.62228 0.93946 0.0
H1236 H 0.43819 0.80839 0.16774 0.0
H1237 H 0.45544 0.84338 0.15067 0.0
H1238 H 0.40885 0.83303 0.09568 0.0
H1239 H 0.39135 0.79848 0.11282 0.0
H1240 H 0.47646 0.85468 0.11194 0.0
H1241 H 0.40036 0.89403 0.11292 0.0
H1242 H 0.40188 0.86847 0.12745 0.0
H1243 H 0.39635 0.8685 0.0976 0.0
C1244 C 0.43163 0.81354 0.15199 0.0
C1245 C 0.41308 0.80062 0.14192 0.0
C1246 C 0.4415 0.83366 0.14222 0.0
C1247 C 0.43317 0.84142 0.12208 0.0
C1248 C 0.4152 0.82808 0.1116 0.0
H1249 H 0.47069 0.95382 0.03129 0.0
H1250 H 0.4547 0.91901 0.04935 0.0
C1251 C 0.40521 0.80815 0.12143 0.0
C1252 C 0.44336 0.86319 0.11185 0.0
H1253 H 0.43077 0.91204 0.09097 0.0
C1254 C 0.46643 0.86725 0.10755 0.0
C1255 C 0.43048 0.87987 0.10604 0.0
C1256 C 0.40595 0.87763 0.11145 0.0
C1257 C 0.47674 0.887 0.09722 0.0
C1258 C 0.46378 0.90344 0.09108 0.0
C1259 C 0.44077 0.89948 0.09548 0.0
C1260 C 0.47374 0.92482 0.0801 0.0
C1261 C 0.50141 0.88987 0.09245 0.0
C1262 C 0.48963 0.94007 0.09134 0.0
C1263 C 0.49874 0.96014 0.08109 0.0
C1264 C 0.49227 0.96558 0.05923 0.0
C1265 C 0.47623 0.95032 0.04807 0.0
C1266 C 0.467 0.93033 0.05841 0.0
H1267 H 0.508 0.87393 0.09321 0.0
H1268 H 0.50524 0.89735 0.07555 0.0
H1269 H 0.51029 0.90112 0.10525 0.0
H1270 H 0.49489 0.93653 0.10821 0.0
H1271 H 0.51097 0.97137 0.09033 0.0
H1272 H 0.09568 0.23693 0.67882 0.0
H1273 H 0.08239 0.20278 0.65855 0.0
H1274 H 0.11983 0.2279 0.59977 0.0
H1275 H 0.13322 0.26226 0.61997 0.0
H1276 H 0.05738 0.19583 0.62057 0.0
H1277 H 0.13867 0.16757 0.60529 0.0
H1278 H 0.13552 0.18964 0.62469 0.0
H1279 H 0.13716 0.19477 0.59482 0.0
C1280 C 0.10109 0.23534 0.66155 0.0
C1281 C 0.11559 0.2526 0.65114 0.0
C1282 C 0.0935 0.21564 0.64996 0.0
C1283 C 0.10024 0.21243 0.62763 0.0
C1284 C 0.11473 0.22959 0.61713 0.0
H1285 H 0.06571 0.10206 0.53227 0.0
H1286 H 0.08073 0.13722 0.55026 0.0
C1287 C 0.12238 0.24934 0.62875 0.0
C1288 C 0.0915 0.19142 0.61531 0.0
H1289 H 0.1072 0.14691 0.58778 0.0
C1290 C 0.06832 0.18515 0.61348 0.0
C1291 C 0.10564 0.17736 0.60583 0.0
C1292 C 0.13062 0.18251 0.60789 0.0
C1293 C 0.05898 0.1655 0.60243 0.0
C1294 C 0.0731 0.15128 0.59324 0.0
C1295 C 0.09629 0.15767 0.5948 0.0
C1296 C 0.06412 0.12961 0.58229 0.0
C1297 C 0.03399 0.16042 0.60034 0.0
C1298 C 0.05003 0.11324 0.59427 0.0
C1299 C 0.04137 0.0931 0.584 0.0
C1300 C 0.04667 0.0886 0.56145 0.0
C1301 C 0.06114 0.10485 0.54959 0.0
C1302 C 0.06979 0.12503 0.55991 0.0
H1303 H 0.0261 0.17557 0.60207 0.0
H1304 H 0.02907 0.15253 0.58387 0.0
H1305 H 0.02731 0.14888 0.61399 0.0
H1306 H 0.04576 0.116 0.61169 0.0
H1307 H 0.03045 0.08104 0.59381 0.0
H1308 H 0.76587 0.36259 0.43599 0.0
H1309 H 0.73682 0.38364 0.4486 0.0
H1310 H 0.69314 0.35314 0.39661 0.0
H1311 H 0.72183 0.33184 0.38412 0.0
H1312 H 0.69436 0.39984 0.40081 0.0
H1313 H 0.67967 0.35588 0.48281 0.0
H1314 H 0.70801 0.36768 0.47685 0.0
H1315 H 0.69458 0.34535 0.45979 0.0
C1316 C 0.75005 0.36029 0.4273 0.0
C1317 C 0.7462 0.34546 0.40906 0.0
C1318 C 0.73349 0.37235 0.43451 0.0
C1319 C 0.71277 0.36976 0.42368 0.0
C1320 C 0.70904 0.3554 0.40518 0.0
H1321 H 0.585 0.3983 0.46783 0.0
H1322 H 0.61741 0.38204 0.45558 0.0
C1323 C 0.72553 0.34332 0.39799 0.0
C1324 C 0.6947 0.38161 0.43179 0.0
H1325 H 0.65898 0.38478 0.47593 0.0
C1326 C 0.68668 0.39667 0.41728 0.0
C1327 C 0.68457 0.37721 0.45316 0.0
C1328 C 0.69196 0.36053 0.46905 0.0
C1329 C 0.66872 0.40741 0.42356 0.0
C1330 C 0.65869 0.40313 0.44502 0.0
C1331 C 0.66679 0.38813 0.45955 0.0
C1332 C 0.63916 0.41329 0.45236 0.0
C1333 C 0.6602 0.42273 0.40691 0.0
C1334 C 0.64068 0.43626 0.45482 0.0
C1335 C 0.6221 0.44564 0.46163 0.0
C1336 C 0.60166 0.4322 0.46625 0.0
C1337 C 0.60034 0.40917 0.46404 0.0
C1338 C 0.6189 0.39982 0.45722 0.0
H1339 H 0.66627 0.4203 0.3895 0.0
H1340 H 0.64171 0.42023 0.40679 0.0
H1341 H 0.66612 0.44008 0.4119 0.0
H1342 H 0.65625 0.44693 0.45152 0.0
H1343 H 0.62368 0.46344 0.46299 0.0
loop_
_geom_bond_atom_site_label_1
_geom_bond_atom_site_label_2
_geom_bond_distance
_geom_bond_site_symmetry_2
_ccdc_geom_bond_type
C0 C1 1.264 . S
C0 C5 1.479 . S
C0 C10 1.465 . S
C1 C0 1.264 . S
C1 C3 1.339 . S
C1 H28 0.931 . S
C2 C3 1.395 . S
C2 C4 1.320 . S
C3 C1 1.339 . S
C3 C2 1.395 . S
C3 H29 0.929 . S
C4 C2 1.320 . S
C4 C5 1.405 . S
C4 H30 0.930 . S
C5 C0 1.479 . S
C5 C4 1.405 . S
C5 H31 0.931 . S
U6 O7 2.454 . S
U6 O8 2.458 . S
U6 C9 2.984 . S
U6 C10 2.847 . S
U6 C23 2.882 . S
U6 O24 2.441 . S
U6 O25 2.420 . S
U6 O26 2.455 . S
U6 O27 2.449 . S
O7 U6 2.454 . S
O7 C9 1.353 . S
O8 U6 2.458 . S
O8 C9 1.286 . S
C9 U6 2.984 . S
C9 O7 1.353 . S
C9 O8 1.286 . S
C9 C11 1.363 . S
C10 C0 1.465 . S
C10 U6 2.847 . S
C10 O24 1.249 . S
C10 O25 1.202 . S
C11 C9 1.363 . S
C11 C13 1.408 . S
C11 C16 1.342 . S
C12 C13 1.310 . S
C12 C15 1.461 . S
C12 H32 0.932 . S
C13 C11 1.408 . S
C13 C12 1.310 . S
C13 H33 0.930 . S
C14 C15 1.474 . S
C14 C16 1.285 . S
C14 H34 0.929 . S
C15 C12 1.461 . S
C15 C14 1.474 . S
C16 C11 1.342 . S
C16 C14 1.285 . S
C16 H35 0.930 . S
C17 C20 1.424 . S
C17 C22 1.245 . S
C17 C23 1.428 . S
C18 C21 1.260 . S
C18 C22 1.477 . S
C18 H36 0.932 . S
C19 C20 1.384 . S
C19 C21 1.479 . S
C19 H37 0.929 . S
C20 C17 1.424 . S
C20 C19 1.384 . S
C20 H38 0.928 . S
C21 C18 1.260 . S
C21 C19 1.479 . S
C22 C17 1.245 . S
C22 C18 1.477 . S
C22 H39 0.932 . S
C23 U6 2.882 . S
C23 C17 1.428 . S
C23 O26 1.301 . S
C23 O27 1.282 . S
O24 U6 2.441 . S
O24 C10 1.249 . S
O25 U6 2.420 . S
O25 C10 1.202 . S
O26 U6 2.455 . S
O26 C23 1.301 . S
O27 U6 2.449 . S
O27 C23 1.282 . S
H28 C1 0.931 . S
H29 C3 0.929 . S
H30 C4 0.930 . S
H31 C5 0.931 . S
H32 C12 0.932 . S
H33 C13 0.930 . S
H34 C14 0.929 . S
H35 C16 0.930 . S
H36 C18 0.932 . S
H37 C19 0.929 . S
H38 C20 0.928 . S
H39 C22 0.932 . S
C40 C41 1.264 . S
C40 C45 1.479 . S
C40 C50 1.465 . S
C41 C40 1.264 . S
C41 C43 1.339 . S
C41 H68 0.931 . S
C42 C43 1.395 . S
C42 C44 1.320 . S
C43 C41 1.339 . S
C43 C42 1.395 . S
C43 H69 0.929 . S
C44 C42 1.320 . S
C44 C45 1.405 . S
C44 H70 0.930 . S
C45 C40 1.479 . S
C45 C44 1.405 . S
C45 H71 0.931 . S
U46 O47 2.454 . S
U46 O48 2.458 . S
U46 C49 2.984 . S
U46 C50 2.847 . S
U46 C63 2.882 . S
U46 O64 2.441 . S
U46 O65 2.420 . S
U46 O66 2.455 . S
U46 O67 2.449 . S
O47 U46 2.454 . S
O47 C49 1.353 . S
O48 U46 2.458 . S
O48 C49 1.286 . S
C49 U46 2.984 . S
C49 O47 1.353 . S
C49 O48 1.286 . S
C49 C51 1.363 . S
C50 C40 1.465 . S
C50 U46 2.847 . S
C50 O64 1.249 . S
C50 O65 1.202 . S
C51 C49 1.363 . S
C51 C53 1.408 . S
C51 C56 1.342 . S
C52 C53 1.310 . S
C52 C55 1.461 . S
C52 H72 0.932 . S
C53 C51 1.408 . S
C53 C52 1.310 . S
C53 H73 0.930 . S
C54 C55 1.474 . S
C54 C56 1.285 . S
C54 H74 0.929 . S
C55 C52 1.461 . S
C55 C54 1.474 . S
C56 C51 1.342 . S
C56 C54 1.285 . S
C56 H75 0.930 . S
C57 C60 1.424 . S
C57 C62 1.245 . S
C57 C63 1.428 . S
C58 C61 1.260 . S
C58 C62 1.477 . S
C58 H76 0.932 . S
C59 C60 1.384 . S
C59 C61 1.479 . S
C59 H77 0.929 . S
C60 C57 1.424 . S
C60 C59 1.384 . S
C60 H78 0.928 . S
C61 C58 1.260 . S
C61 C59 1.479 . S
C62 C57 1.245 . S
C62 C58 1.477 . S
C62 H79 0.932 . S
C63 U46 2.882 . S
C63 C57 1.428 . S
C63 O66 1.301 . S
C63 O67 1.282 . S
O64 U46 2.441 . S
O64 C50 1.249 . S
O65 U46 2.420 . S
O65 C50 1.202 . S
O66 U46 2.455 . S
O66 C63 1.301 . S
O67 U46 2.449 . S
O67 C63 1.282 . S
H68 C41 0.931 . S
H69 C43 0.929 . S
H70 C44 0.930 . S
H71 C45 0.931 . S
H72 C52 0.932 . S
H73 C53 0.930 . S
H74 C54 0.929 . S
H75 C56 0.930 . S
H76 C58 0.932 . S
H77 C59 0.929 . S
H78 C60 0.928 . S
H79 C62 0.932 . S
C80 C81 1.264 . S
C80 C85 1.479 . S
C80 C90 1.465 . S
C81 C80 1.264 . S
C81 C83 1.339 . S
C81 H108 0.931 . S
C82 C83 1.395 . S
C82 C84 1.320 . S
C83 C81 1.339 . S
C83 C82 1.395 . S
C83 H109 0.929 . S
C84 C82 1.320 . S
C84 C85 1.405 . S
C84 H110 0.930 . S
C85 C80 1.479 . S
C85 C84 1.405 . S
C85 H111 0.931 . S
U86 O87 2.454 . S
U86 O88 2.458 . S
U86 C89 2.984 . S
U86 C90 2.847 . S
U86 C103 2.882 . S
U86 O104 2.441 . S
U86 O105 2.420 . S
U86 O106 2.455 . S
U86 O107 2.449 . S
O87 U86 2.454 . S
O87 C89 1.353 . S
O88 U86 2.458 . S
O88 C89 1.286 . S
C89 U86 2.984 . S
C89 O87 1.353 . S
C89 O88 1.286 . S
C89 C91 1.363 . S
C90 C80 1.465 . S
C90 U86 2.847 . S
C90 O104 1.249 . S
C90 O105 1.202 . S
C91 C89 1.363 . S
C91 C93 1.408 . S
C91 C96 1.342 . S
C92 C93 1.310 . S
C92 C95 1.461 . S
C92 H112 0.932 . S
C93 C91 1.408 . S
C93 C92 1.310 . S
C93 H113 0.930 . S
C94 C95 1.474 . S
C94 C96 1.285 . S
C94 H114 0.929 . S
C95 C92 1.461 . S
C95 C94 1.474 . S
C96 C91 1.342 . S
C96 C94 1.285 . S
C96 H115 0.930 . S
C97 C100 1.424 . S
C97 C102 1.245 . S
C97 C103 1.428 . S
C98 C101 1.260 . S
C98 C102 1.477 . S
C98 H116 0.932 . S
C99 C100 1.384 . S
C99 C101 1.479 . S
C99 H117 0.929 . S
C100 C97 1.424 . S
C100 C99 1.384 . S
C100 H118 0.928 . S
C101 C98 1.260 . S
C101 C99 1.479 . S
C102 C97 1.245 . S
C102 C98 1.477 . S
C102 H119 0.932 . S
C103 U86 2.882 . S
C103 C97 1.428 . S
C103 O106 1.301 . S
C103 O107 1.282 . S
O104 U86 2.441 . S
O104 C90 1.249 . S
O105 U86 2.420 . S
O105 C90 1.202 . S
O106 U86 2.455 . S
O106 C103 1.301 . S
O107 U86 2.449 . S
O107 C103 1.282 . S
H108 C81 0.931 . S
H109 C83 0.929 . S
H110 C84 0.930 . S
H111 C85 0.931 . S
H112 C92 0.932 . S
H113 C93 0.930 . S
H114 C94 0.929 . S
H115 C96 0.930 . S
H116 C98 0.932 . S
H117 C99 0.929 . S
H118 C100 0.928 . S
H119 C102 0.932 . S
C120 C121 1.264 . S
C120 C125 1.479 . S
C120 C130 1.465 . S
C121 C120 1.264 . S
C121 C123 1.339 . S
C121 H148 0.931 . S
C122 C123 1.395 . S
C122 C124 1.320 . S
C123 C121 1.339 . S
C123 C122 1.395 . S
C123 H149 0.929 . S
C124 C122 1.320 . S
C124 C125 1.405 . S
C124 H150 0.930 . S
C125 C120 1.479 . S
C125 C124 1.405 . S
C125 H151 0.931 . S
U126 O127 2.454 . S
U126 O128 2.458 . S
U126 C129 2.984 . S
U126 C130 2.847 . S
U126 C143 2.882 . S
U126 O144 2.441 . S
U126 O145 2.420 . S
U126 O146 2.455 . S
U126 O147 2.449 . S
O127 U126 2.454 . S
O127 C129 1.353 . S
O128 U126 2.458 . S
O128 C129 1.286 . S
C129 U126 2.984 . S
C129 O127 1.353 . S
C129 O128 1.286 . S
C129 C131 1.363 . S
C130 C120 1.465 . S
C130 U126 2.847 . S
C130 O144 1.249 . S
C130 O145 1.202 . S
C131 C129 1.363 . S
C131 C133 1.408 . S
C131 C136 1.342 . S
C132 C133 1.310 . S
C132 C135 1.461 . S
C132 H152 0.932 . S
C133 C131 1.408 . S
C133 C132 1.310 . S
C133 H153 0.930 . S
C134 C135 1.474 . S
C134 C136 1.285 . S
C134 H154 0.929 . S
C135 C132 1.461 . S
C135 C134 1.474 . S
C136 C131 1.342 . S
C136 C134 1.285 . S
C136 H155 0.930 . S
C137 C140 1.424 . S
C137 C142 1.245 . S
C137 C143 1.428 . S
C138 C141 1.260 . S
C138 C142 1.477 . S
C138 H156 0.932 . S
C139 C140 1.384 . S
C139 C141 1.479 . S
C139 H157 0.929 . S
C140 C137 1.424 . S
C140 C139 1.384 . S
C140 H158 0.928 . S
C141 C138 1.260 . S
C141 C139 1.479 . S
C142 C137 1.245 . S
C142 C138 1.477 . S
C142 H159 0.932 . S
C143 U126 2.882 . S
C143 C137 1.428 . S
C143 O146 1.301 . S
C143 O147 1.282 . S
O144 U126 2.441 . S
O144 C130 1.249 . S
O145 U126 2.420 . S
O145 C130 1.202 . S
O146 U126 2.455 . S
O146 C143 1.301 . S
O147 U126 2.449 . S
O147 C143 1.282 . S
H148 C121 0.931 . S
H149 C123 0.929 . S
H150 C124 0.930 . S
H151 C125 0.931 . S
H152 C132 0.932 . S
H153 C133 0.930 . S
H154 C134 0.929 . S
H155 C136 0.930 . S
H156 C138 0.932 . S
H157 C139 0.929 . S
H158 C140 0.928 . S
H159 C142 0.932 . S
C160 C161 1.264 . S
C160 C165 1.479 . S
C160 C170 1.465 . S
C161 C160 1.264 . S
C161 C163 1.339 . S
C161 H188 0.931 . S
C162 C163 1.395 . S
C162 C164 1.320 . S
C163 C161 1.339 . S
C163 C162 1.395 . S
C163 H189 0.929 . S
C164 C162 1.320 . S
C164 C165 1.405 . S
C164 H190 0.930 . S
C165 C160 1.479 . S
C165 C164 1.405 . S
C165 H191 0.931 . S
U166 O167 2.454 . S
U166 O168 2.458 . S
U166 C169 2.984 . S
U166 C170 2.847 . S
U166 C183 2.882 . S
U166 O184 2.441 . S
U166 O185 2.420 . S
U166 O186 2.455 . S
U166 O187 2.449 . S
O167 U166 2.454 . S
O167 C169 1.353 . S
O168 U166 2.458 . S
O168 C169 1.286 . S
C169 U166 2.984 . S
C169 O167 1.353 . S
C169 O168 1.286 . S
C169 C171 1.363 . S
C170 C160 1.465 . S
C170 U166 2.847 . S
C170 O184 1.249 . S
C170 O185 1.202 . S
C171 C169 1.363 . S
C171 C173 1.408 . S
C171 C176 1.342 . S
C172 C173 1.310 . S
C172 C175 1.461 . S
C172 H192 0.932 . S
C173 C171 1.408 . S
C173 C172 1.310 . S
C173 H193 0.930 . S
C174 C175 1.474 . S
C174 C176 1.285 . S
C174 H194 0.929 . S
C175 C172 1.461 . S
C175 C174 1.474 . S
C176 C171 1.342 . S
C176 C174 1.285 . S
C176 H195 0.930 . S
C177 C180 1.424 . S
C177 C182 1.245 . S
C177 C183 1.428 . S
C178 C181 1.260 . S
C178 C182 1.477 . S
C178 H196 0.932 . S
C179 C180 1.384 . S
C179 C181 1.479 . S
C179 H197 0.929 . S
C180 C177 1.424 . S
C180 C179 1.384 . S
C180 H198 0.928 . S
C181 C178 1.260 . S
C181 C179 1.479 . S
C182 C177 1.245 . S
C182 C178 1.477 . S
C182 H199 0.932 . S
C183 U166 2.882 . S
C183 C177 1.428 . S
C183 O186 1.301 . S
C183 O187 1.282 . S
O184 U166 2.441 . S
O184 C170 1.249 . S
O185 U166 2.420 . S
O185 C170 1.202 . S
O186 U166 2.455 . S
O186 C183 1.301 . S
O187 U166 2.449 . S
O187 C183 1.282 . S
H188 C161 0.931 . S
H189 C163 0.929 . S
H190 C164 0.930 . S
H191 C165 0.931 . S
H192 C172 0.932 . S
H193 C173 0.930 . S
H194 C174 0.929 . S
H195 C176 0.930 . S
H196 C178 0.932 . S
H197 C179 0.929 . S
H198 C180 0.928 . S
H199 C182 0.932 . S
C200 C201 1.264 . S
C200 C205 1.479 . S
C200 C210 1.465 . S
C201 C200 1.264 . S
C201 C203 1.339 . S
C201 H228 0.931 . S
C202 C203 1.395 . S
C202 C204 1.320 . S
C203 C201 1.339 . S
C203 C202 1.395 . S
C203 H229 0.929 . S
C204 C202 1.320 . S
C204 C205 1.405 . S
C204 H230 0.930 . S
C205 C200 1.479 . S
C205 C204 1.405 . S
C205 H231 0.931 . S
U206 O207 2.454 . S
U206 O208 2.458 . S
U206 C209 2.984 . S
U206 C210 2.847 . S
U206 C223 2.882 . S
U206 O224 2.441 . S
U206 O225 2.420 . S
U206 O226 2.455 . S
U206 O227 2.449 . S
O207 U206 2.454 . S
O207 C209 1.353 . S
O208 U206 2.458 . S
O208 C209 1.286 . S
C209 U206 2.984 . S
C209 O207 1.353 . S
C209 O208 1.286 . S
C209 C211 1.363 . S
C210 C200 1.465 . S
C210 U206 2.847 . S
C210 O224 1.249 . S
C210 O225 1.202 . S
C211 C209 1.363 . S
C211 C213 1.408 . S
C211 C216 1.342 . S
C212 C213 1.310 . S
C212 C215 1.461 . S
C212 H232 0.932 . S
C213 C211 1.408 . S
C213 C212 1.310 . S
C213 H233 0.930 . S
C214 C215 1.474 . S
C214 C216 1.285 . S
C214 H234 0.929 . S
C215 C212 1.461 . S
C215 C214 1.474 . S
C216 C211 1.342 . S
C216 C214 1.285 . S
C216 H235 0.930 . S
C217 C220 1.424 . S
C217 C222 1.245 . S
C217 C223 1.428 . S
C218 C221 1.260 . S
C218 C222 1.477 . S
C218 H236 0.932 . S
C219 C220 1.384 . S
C219 C221 1.479 . S
C219 H237 0.929 . S
C220 C217 1.424 . S
C220 C219 1.384 . S
C220 H238 0.928 . S
C221 C218 1.260 . S
C221 C219 1.479 . S
C222 C217 1.245 . S
C222 C218 1.477 . S
C222 H239 0.932 . S
C223 U206 2.882 . S
C223 C217 1.428 . S
C223 O226 1.301 . S
C223 O227 1.282 . S
O224 U206 2.441 . S
O224 C210 1.249 . S
O225 U206 2.420 . S
O225 C210 1.202 . S
O226 U206 2.455 . S
O226 C223 1.301 . S
O227 U206 2.449 . S
O227 C223 1.282 . S
H228 C201 0.931 . S
H229 C203 0.929 . S
H230 C204 0.930 . S
H231 C205 0.931 . S
H232 C212 0.932 . S
H233 C213 0.930 . S
H234 C214 0.929 . S
H235 C216 0.930 . S
H236 C218 0.932 . S
H237 C219 0.929 . S
H238 C220 0.928 . S
H239 C222 0.932 . S
C240 C241 1.264 . S
C240 C245 1.479 . S
C240 C250 1.465 . S
C241 C240 1.264 . S
C241 C243 1.339 . S
C241 H268 0.931 . S
C242 C243 1.395 . S
C242 C244 1.320 . S
C243 C241 1.339 . S
C243 C242 1.395 . S
C243 H269 0.929 . S
C244 C242 1.320 . S
C244 C245 1.405 . S
C244 H270 0.930 . S
C245 C240 1.479 . S
C245 C244 1.405 . S
C245 H271 0.931 . S
U246 O247 2.454 . S
U246 O248 2.458 . S
U246 C249 2.984 . S
U246 C250 2.847 . S
U246 C263 2.882 . S
U246 O264 2.441 . S
U246 O265 2.420 . S
U246 O266 2.455 . S
U246 O267 2.449 . S
O247 U246 2.454 . S
O247 C249 1.353 . S
O248 U246 2.458 . S
O248 C249 1.286 . S
C249 U246 2.984 . S
C249 O247 1.353 . S
C249 O248 1.286 . S
C249 C251 1.363 . S
C250 C240 1.465 . S
C250 U246 2.847 . S
C250 O264 1.249 . S
C250 O265 1.202 . S
C251 C249 1.363 . S
C251 C253 1.408 . S
C251 C256 1.342 . S
C252 C253 1.310 . S
C252 C255 1.461 . S
C252 H272 0.932 . S
C253 C251 1.408 . S
C253 C252 1.310 . S
C253 H273 0.930 . S
C254 C255 1.474 . S
C254 C256 1.285 . S
C254 H274 0.929 . S
C255 C252 1.461 . S
C255 C254 1.474 . S
C256 C251 1.342 . S
C256 C254 1.285 . S
C256 H275 0.930 . S
C257 C260 1.424 . S
C257 C262 1.245 . S
C257 C263 1.428 . S
C258 C261 1.260 . S
C258 C262 1.477 . S
C258 H276 0.932 . S
C259 C260 1.384 . S
C259 C261 1.479 . S
C259 H277 0.929 . S
C260 C257 1.424 . S
C260 C259 1.384 . S
C260 H278 0.928 . S
C261 C258 1.260 . S
C261 C259 1.479 . S
C262 C257 1.245 . S
C262 C258 1.477 . S
C262 H279 0.932 . S
C263 U246 2.882 . S
C263 C257 1.428 . S
C263 O266 1.301 . S
C263 O267 1.282 . S
O264 U246 2.441 . S
O264 C250 1.249 . S
O265 U246 2.420 . S
O265 C250 1.202 . S
O266 U246 2.455 . S
O266 C263 1.301 . S
O267 U246 2.449 . S
O267 C263 1.282 . S
H268 C241 0.931 . S
H269 C243 0.929 . S
H270 C244 0.930 . S
H271 C245 0.931 . S
H272 C252 0.932 . S
H273 C253 0.930 . S
H274 C254 0.929 . S
H275 C256 0.930 . S
H276 C258 0.932 . S
H277 C259 0.929 . S
H278 C260 0.928 . S
H279 C262 0.932 . S
C280 C281 1.264 . S
C280 C285 1.479 . S
C280 C290 1.465 . S
C281 C280 1.264 . S
C281 C283 1.339 . S
C281 H308 0.931 . S
C282 C283 1.395 . S
C282 C284 1.320 . S
C283 C281 1.339 . S
C283 C282 1.395 . S
C283 H309 0.929 . S
C284 C282 1.320 . S
C284 C285 1.405 . S
C284 H310 0.930 . S
C285 C280 1.479 . S
C285 C284 1.405 . S
C285 H311 0.931 . S
U286 O287 2.454 . S
U286 O288 2.458 . S
U286 C289 2.984 . S
U286 C290 2.847 . S
U286 C303 2.882 . S
U286 O304 2.441 . S
U286 O305 2.420 . S
U286 O306 2.455 . S
U286 O307 2.449 . S
O287 U286 2.454 . S
O287 C289 1.353 . S
O288 U286 2.458 . S
O288 C289 1.286 . S
C289 U286 2.984 . S
C289 O287 1.353 . S
C289 O288 1.286 . S
C289 C291 1.363 . S
C290 C280 1.465 . S
C290 U286 2.847 . S
C290 O304 1.249 . S
C290 O305 1.202 . S
C291 C289 1.363 . S
C291 C293 1.408 . S
C291 C296 1.342 . S
C292 C293 1.310 . S
C292 C295 1.461 . S
C292 H312 0.932 . S
C293 C291 1.408 . S
C293 C292 1.310 . S
C293 H313 0.930 . S
C294 C295 1.474 . S
C294 C296 1.285 . S
C294 H314 0.929 . S
C295 C292 1.461 . S
C295 C294 1.474 . S
C296 C291 1.342 . S
C296 C294 1.285 . S
C296 H315 0.930 . S
C297 C300 1.424 . S
C297 C302 1.245 . S
C297 C303 1.428 . S
C298 C301 1.260 . S
C298 C302 1.477 . S
C298 H316 0.932 . S
C299 C300 1.384 . S
C299 C301 1.479 . S
C299 H317 0.929 . S
C300 C297 1.424 . S
C300 C299 1.384 . S
C300 H318 0.928 . S
C301 C298 1.260 . S
C301 C299 1.479 . S
C302 C297 1.245 . S
C302 C298 1.477 . S
C302 H319 0.932 . S
C303 U286 2.882 . S
C303 C297 1.428 . S
C303 O306 1.301 . S
C303 O307 1.282 . S
O304 U286 2.441 . S
O304 C290 1.249 . S
O305 U286 2.420 . S
O305 C290 1.202 . S
O306 U286 2.455 . S
O306 C303 1.301 . S
O307 U286 2.449 . S
O307 C303 1.282 . S
H308 C281 0.931 . S
H309 C283 0.929 . S
H310 C284 0.930 . S
H311 C285 0.931 . S
H312 C292 0.932 . S
H313 C293 0.930 . S
H314 C294 0.929 . S
H315 C296 0.930 . S
H316 C298 0.932 . S
H317 C299 0.929 . S
H318 C300 0.928 . S
H319 C302 0.932 . S
Tb320 C329 2.764 . S
Tb320 O330 2.325 1_455 S
Tb320 O333 2.303 . S
Tb320 O337 2.322 1_545 S
Tb320 O338 2.349 1_545 S
Tb320 O341 2.415 . S
Tb320 O342 2.399 . S
Tb321 O331 2.322 . S
Tb321 O332 2.349 . S
Tb321 O334 2.415 1_545 S
Tb321 O335 2.401 . S
Tb321 O336 2.325 1_645 S
Tb321 O339 2.303 1_545 S
Tb321 C350 2.764 1_545 S
C322 O338 1.261 1_655 S
C322 O339 1.257 . S
C323 C326 1.358 . S
C323 C327 1.332 . S
C323 C329 1.504 . S
C324 C325 1.373 . S
C324 C328 1.308 . S
C325 C324 1.373 . S
C325 C326 1.429 . S
C325 H352 0.932 . S
C326 C323 1.358 . S
C326 C325 1.429 . S
C326 H353 0.930 . S
C327 C323 1.332 . S
C327 C328 1.394 . S
C327 H354 0.932 . S
C328 C324 1.308 . S
C328 C327 1.394 . S
C328 H355 0.929 . S
C329 Tb320 2.764 . S
C329 C323 1.504 . S
C329 O341 1.239 . S
C329 O342 1.263 . S
O330 Tb320 2.325 1_655 S
O330 C340 1.236 . S
O331 Tb321 2.322 . S
O331 C340 1.257 . S
O332 Tb321 2.349 . S
O332 C343 1.261 1_655 S
O333 Tb320 2.303 . S
O333 C343 1.257 . S
O334 Tb321 2.415 1_565 S
O334 C350 1.239 . S
O335 Tb321 2.401 . S
O335 C350 1.244 1_545 S
O336 Tb321 2.325 1_465 S
O336 C351 1.236 . S
O337 Tb320 2.322 1_565 S
O337 C351 1.257 . S
O338 Tb320 2.349 1_565 S
O338 C322 1.261 1_455 S
O339 Tb321 2.303 1_565 S
O339 C322 1.257 . S
C340 O330 1.236 . S
C340 O331 1.257 . S
O341 Tb320 2.415 . S
O341 C329 1.239 . S
O342 Tb320 2.399 . S
O342 C329 1.263 . S
C343 O332 1.261 1_455 S
C343 O333 1.257 . S
C344 C347 1.358 . S
C344 C348 1.332 . S
C344 C350 1.504 . S
C345 C346 1.373 . S
C345 C349 1.308 . S
C346 C345 1.373 . S
C346 C347 1.429 . S
C346 H356 0.932 . S
C347 C344 1.358 . S
C347 C346 1.429 . S
C347 H357 0.930 . S
C348 C344 1.332 . S
C348 C349 1.394 . S
C348 H358 0.932 . S
C349 C345 1.308 . S
C349 C348 1.394 . S
C349 H359 0.929 . S
C350 Tb321 2.764 1_565 S
C350 O334 1.239 . S
C350 O335 1.244 1_565 S
C350 C344 1.504 . S
C351 O336 1.236 . S
C351 O337 1.257 . S
H352 C325 0.932 . S
H353 C326 0.930 . S
H354 C327 0.932 . S
H355 C328 0.929 . S
H356 C346 0.932 . S
H357 C347 0.930 . S
H358 C348 0.932 . S
H359 C349 0.929 . S
Tb360 C369 2.764 . S
Tb360 O370 2.325 . S
Tb360 O373 2.303 . S
Tb360 O377 2.322 1_545 S
Tb360 O378 2.349 1_545 S
Tb360 O381 2.415 . S
Tb360 O382 2.399 . S
Tb361 O371 2.322 . S
Tb361 O372 2.349 1_556 S
Tb361 O374 2.415 1_545 S
Tb361 O375 2.399 1_545 S
Tb361 O376 2.325 1_546 S
Tb361 O379 2.303 1_545 S
Tb361 C390 2.764 1_545 S
C362 O378 1.261 1_556 S
C362 O379 1.257 . S
C363 C366 1.358 . S
C363 C367 1.332 . S
C363 C369 1.504 . S
C364 C365 1.373 . S
C364 C368 1.308 . S
C365 C364 1.373 . S
C365 C366 1.429 . S
C365 H392 0.932 . S
C366 C363 1.358 . S
C366 C365 1.429 . S
C366 H393 0.930 . S
C367 C363 1.332 . S
C367 C368 1.394 . S
C367 H394 0.932 . S
C368 C364 1.308 . S
C368 C367 1.394 . S
C368 H395 0.929 . S
C369 Tb360 2.764 . S
C369 C363 1.504 . S
C369 O381 1.239 . S
C369 O382 1.263 . S
O370 Tb360 2.325 . S
O370 C380 1.236 1_554 S
O371 Tb361 2.322 . S
O371 C380 1.257 . S
O372 Tb361 2.349 1_554 S
O372 C383 1.261 . S
O373 Tb360 2.303 . S
O373 C383 1.257 . S
O374 Tb361 2.415 1_565 S
O374 C390 1.239 . S
O375 Tb361 2.399 1_565 S
O375 C390 1.263 . S
O376 Tb361 2.325 1_564 S
O376 C391 1.236 . S
O377 Tb360 2.322 1_565 S
O377 C391 1.257 . S
O378 Tb360 2.349 1_565 S
O378 C362 1.261 1_554 S
O379 Tb361 2.303 1_565 S
O379 C362 1.257 . S
C380 O370 1.236 1_556 S
C380 O371 1.257 . S
O381 Tb360 2.415 . S
O381 C369 1.239 . S
O382 Tb360 2.399 . S
O382 C369 1.263 . S
C383 O372 1.261 . S
C383 O373 1.257 . S
C384 C387 1.358 . S
C384 C388 1.332 . S
C384 C390 1.504 . S
C385 C386 1.373 . S
C385 C389 1.308 . S
C386 C385 1.373 . S
C386 C387 1.429 . S
C386 H396 0.932 . S
C387 C384 1.358 . S
C387 C386 1.429 . S
C387 H397 0.930 . S
C388 C384 1.332 . S
C388 C389 1.394 . S
C388 H398 0.932 . S
C389 C385 1.308 . S
C389 C388 1.394 . S
C389 H399 0.929 . S
C390 Tb361 2.764 1_565 S
C390 O374 1.239 . S
C390 O375 1.263 . S
C390 C384 1.504 . S
C391 O376 1.236 . S
C391 O377 1.257 . S
H392 C365 0.932 . S
H393 C366 0.930 . S
H394 C367 0.932 . S
H395 C368 0.929 . S
H396 C386 0.932 . S
H397 C387 0.930 . S
H398 C388 0.932 . S
H399 C389 0.929 . S
Tb400 C409 2.764 . S
Tb400 O410 2.325 . S
Tb400 O413 2.303 . S
Tb400 O417 2.322 . S
Tb400 O418 2.349 . S
Tb400 O421 2.415 . S
Tb400 O422 2.399 . S
Tb401 O411 2.322 . S
Tb401 O412 2.349 . S
Tb401 O414 2.415 . S
Tb401 O415 2.399 . S
Tb401 O416 2.325 . S
Tb401 O419 2.303 . S
Tb401 C430 2.764 . S
C402 O418 1.261 . S
C402 O419 1.257 . S
C403 C406 1.358 . S
C403 C407 1.332 . S
C403 C409 1.504 . S
C404 C405 1.373 . S
C404 C408 1.308 . S
C405 C404 1.373 . S
C405 C406 1.429 . S
C405 H432 0.932 . S
C406 C403 1.358 . S
C406 C405 1.429 . S
C406 H433 0.930 . S
C407 C403 1.332 . S
C407 C408 1.394 . S
C407 H434 0.932 . S
C408 C404 1.308 . S
C408 C407 1.394 . S
C408 H435 0.929 . S
C409 Tb400 2.764 . S
C409 C403 1.504 . S
C409 O421 1.239 . S
C409 O422 1.263 . S
O410 Tb400 2.325 . S
O410 C420 1.236 . S
O411 Tb401 2.322 . S
O411 C420 1.257 . S
O412 Tb401 2.349 . S
O412 C423 1.261 . S
O413 Tb400 2.303 . S
O413 C423 1.257 . S
O414 Tb401 2.415 . S
O414 C430 1.239 . S
O415 Tb401 2.399 . S
O415 C430 1.263 . S
O416 Tb401 2.325 . S
O416 C431 1.236 . S
O417 Tb400 2.322 . S
O417 C431 1.257 . S
O418 Tb400 2.349 . S
O418 C402 1.261 . S
O419 Tb401 2.303 . S
O419 C402 1.257 . S
C420 O410 1.236 . S
C420 O411 1.257 . S
O421 Tb400 2.415 . S
O421 C409 1.239 . S
O422 Tb400 2.399 . S
O422 C409 1.263 . S
C423 O412 1.261 . S
C423 O413 1.257 . S
C424 C427 1.358 . S
C424 C428 1.332 . S
C424 C430 1.504 . S
C425 C426 1.373 . S
C425 C429 1.308 . S
C426 C425 1.373 . S
C426 C427 1.429 . S
C426 H436 0.932 . S
C427 C424 1.358 . S
C427 C426 1.429 . S
C427 H437 0.930 . S
C428 C424 1.332 . S
C428 C429 1.394 . S
C428 H438 0.932 . S
C429 C425 1.308 . S
C429 C428 1.394 . S
C429 H439 0.929 . S
C430 Tb401 2.764 . S
C430 O414 1.239 . S
C430 O415 1.263 . S
C430 C424 1.504 . S
C431 O416 1.236 . S
C431 O417 1.257 . S
H432 C405 0.932 . S
H433 C406 0.930 . S
H434 C407 0.932 . S
H435 C408 0.929 . S
H436 C426 0.932 . S
H437 C427 0.930 . S
H438 C428 0.932 . S
H439 C429 0.929 . S
Tb440 C449 2.764 1_455 S
Tb440 O450 2.325 1_455 S
Tb440 O453 2.303 1_456 S
Tb440 O457 2.304 1_556 S
Tb440 O458 2.349 . S
Tb440 O461 2.415 1_455 S
Tb440 O462 2.399 1_455 S
Tb441 O451 2.322 1_455 S
Tb441 O452 2.349 1_455 S
Tb441 O454 2.415 . S
Tb441 O455 2.399 . S
Tb441 O456 2.325 . S
Tb441 O459 2.303 1_554 S
Tb441 C470 2.764 . S
C442 O458 1.261 . S
C442 O459 1.257 . S
C443 C446 1.358 . S
C443 C447 1.332 . S
C443 C449 1.504 . S
C444 C445 1.373 . S
C444 C448 1.308 . S
C445 C444 1.373 . S
C445 C446 1.429 . S
C445 H472 0.932 . S
C446 C443 1.358 . S
C446 C445 1.429 . S
C446 H473 0.930 . S
C447 C443 1.332 . S
C447 C448 1.394 . S
C447 H474 0.932 . S
C448 C444 1.308 . S
C448 C447 1.394 . S
C448 H475 0.929 . S
C449 Tb440 2.764 1_655 S
C449 C443 1.504 . S
C449 O461 1.239 . S
C449 O462 1.263 . S
O450 Tb440 2.325 1_655 S
O450 C460 1.236 . S
O451 Tb441 2.322 1_655 S
O451 C460 1.257 1_554 S
O452 Tb441 2.349 1_655 S
O452 C463 1.261 . S
O453 Tb440 2.303 1_654 S
O453 C463 1.257 . S
O454 Tb441 2.415 . S
O454 C470 1.239 . S
O455 Tb441 2.399 . S
O455 C470 1.263 . S
O456 Tb441 2.325 . S
O456 C471 1.236 . S
O457 Tb440 2.304 1_554 S
O457 C471 1.288 . S
O458 Tb440 2.349 . S
O458 C442 1.261 . S
O459 Tb441 2.303 1_556 S
O459 C442 1.257 . S
C460 O450 1.236 . S
C460 O451 1.257 1_556 S
O461 Tb440 2.415 1_655 S
O461 C449 1.239 . S
O462 Tb440 2.399 1_655 S
O462 C449 1.263 . S
C463 O452 1.261 . S
C463 O453 1.257 . S
C464 C467 1.358 . S
C464 C468 1.332 . S
C464 C470 1.504 . S
C465 C466 1.373 . S
C465 C469 1.308 . S
C466 C465 1.373 . S
C466 C467 1.429 . S
C466 H476 0.932 . S
C467 C464 1.358 . S
C467 C466 1.429 . S
C467 H477 0.930 . S
C468 C464 1.332 . S
C468 C469 1.394 . S
C468 H478 0.932 . S
C469 C465 1.308 . S
C469 C468 1.394 . S
C469 H479 0.929 . S
C470 Tb441 2.764 . S
C470 O454 1.239 . S
C470 O455 1.263 . S
C470 C464 1.504 . S
C471 O456 1.236 . S
C471 O457 1.288 . S
H472 C445 0.932 . S
H473 C446 0.930 . S
H474 C447 0.932 . S
H475 C448 0.929 . S
H476 C466 0.932 . S
H477 C467 0.930 . S
H478 C468 0.932 . S
H479 C469 0.929 . S
H480 C488 0.929 . S
H481 C490 0.930 . S
H482 C492 0.930 . S
H483 C495 0.929 . S
H484 C498 0.930 . S
H485 C500 0.960 . S
H486 C500 0.960 . S
H487 C500 0.960 . S
C488 H480 0.929 . S
C488 C489 1.377 . S
C488 C490 1.384 . S
C489 C488 1.377 . S
C489 C495 1.390 . S
C490 H481 0.930 . S
C490 C488 1.384 . S
C490 C491 1.372 . S
C491 C490 1.372 . S
C491 C492 1.400 . S
C491 C496 1.490 . S
C492 H482 0.930 . S
C492 C491 1.400 . S
C492 C495 1.386 . S
H493 C509 0.930 . S
H494 C510 0.931 . S
C495 H483 0.929 . S
C495 C489 1.390 . S
C495 C492 1.386 . S
C496 C491 1.490 . S
C496 C498 1.395 . S
C496 C499 1.403 . S
H497 C503 0.930 . S
C498 H484 0.930 . S
C498 C496 1.395 . S
C498 C501 1.403 . S
C499 C496 1.403 . S
C499 C500 1.524 . S
C499 C503 1.400 . S
C500 H485 0.960 . S
C500 H486 0.960 . S
C500 H487 0.960 . S
C500 C499 1.524 . S
C501 C498 1.403 . S
C501 C502 1.392 . S
C501 C505 1.495 . S
C502 C501 1.392 . S
C502 C503 1.385 . S
C502 C504 1.478 . S
C503 H497 0.930 . S
C503 C499 1.400 . S
C503 C502 1.385 . S
C504 C502 1.478 . S
C504 C506 1.381 . S
C504 C510 1.383 . S
C505 C501 1.495 . S
C505 H511 0.959 . S
C505 H512 0.961 . S
C505 H513 0.960 . S
C506 C504 1.381 . S
C506 C507 1.394 . S
C506 H514 0.930 . S
C507 C506 1.394 . S
C507 C508 1.383 . S
C507 H515 0.929 . S
C508 C507 1.383 . S
C508 C509 1.377 . S
C509 H493 0.930 . S
C509 C508 1.377 . S
C509 C510 1.379 . S
C510 H494 0.931 . S
C510 C504 1.383 . S
C510 C509 1.379 . S
H511 C505 0.959 . S
H512 C505 0.961 . S
H513 C505 0.960 . S
H514 C506 0.930 . S
H515 C507 0.929 . S
H516 C524 0.929 . S
H517 C526 0.930 . S
H518 C528 0.930 . S
H519 C531 0.929 . S
H520 C534 0.930 . S
H521 C536 0.960 . S
H522 C536 0.960 . S
H523 C536 0.960 . S
C524 H516 0.929 . S
C524 C525 1.377 . S
C524 C526 1.384 . S
C525 C524 1.377 . S
C525 C531 1.390 . S
C526 H517 0.930 . S
C526 C524 1.384 . S
C526 C527 1.372 . S
C527 C526 1.372 . S
C527 C528 1.400 . S
C527 C532 1.490 . S
C528 H518 0.930 . S
C528 C527 1.400 . S
C528 C531 1.386 . S
H529 C545 0.930 . S
H530 C546 0.931 . S
C531 H519 0.929 . S
C531 C525 1.390 . S
C531 C528 1.386 . S
C532 C527 1.490 . S
C532 C534 1.395 . S
C532 C535 1.403 . S
H533 C539 0.930 . S
C534 H520 0.930 . S
C534 C532 1.395 . S
C534 C537 1.403 . S
C535 C532 1.403 . S
C535 C536 1.524 . S
C535 C539 1.400 . S
C536 H521 0.960 . S
C536 H522 0.960 . S
C536 H523 0.960 . S
C536 C535 1.524 . S
C537 C534 1.403 . S
C537 C538 1.392 . S
C537 C541 1.495 . S
C538 C537 1.392 . S
C538 C539 1.385 . S
C538 C540 1.478 . S
C539 H533 0.930 . S
C539 C535 1.400 . S
C539 C538 1.385 . S
C540 C538 1.478 . S
C540 C542 1.381 . S
C540 C546 1.383 . S
C541 C537 1.495 . S
C541 H547 0.959 . S
C541 H548 0.961 . S
C541 H549 0.960 . S
C542 C540 1.381 . S
C542 C543 1.394 . S
C542 H550 0.930 . S
C543 C542 1.394 . S
C543 C544 1.383 . S
C543 H551 0.929 . S
C544 C543 1.383 . S
C544 C545 1.377 . S
C545 H529 0.930 . S
C545 C544 1.377 . S
C545 C546 1.379 . S
C546 H530 0.931 . S
C546 C540 1.383 . S
C546 C545 1.379 . S
H547 C541 0.959 . S
H548 C541 0.961 . S
H549 C541 0.960 . S
H550 C542 0.930 . S
H551 C543 0.929 . S
H552 C560 0.929 . S
H553 C562 0.930 . S
H554 C564 0.930 . S
H555 C567 0.929 . S
H556 C570 0.930 . S
H557 C572 0.960 . S
H558 C572 0.960 . S
H559 C572 0.960 . S
C560 H552 0.929 . S
C560 C561 1.377 . S
C560 C562 1.384 . S
C561 C560 1.377 . S
C561 C567 1.390 . S
C562 H553 0.930 . S
C562 C560 1.384 . S
C562 C563 1.372 . S
C563 C562 1.372 . S
C563 C564 1.400 . S
C563 C568 1.490 . S
C564 H554 0.930 . S
C564 C563 1.400 . S
C564 C567 1.386 . S
H565 C581 0.930 . S
H566 C582 0.931 . S
C567 H555 0.929 . S
C567 C561 1.390 . S
C567 C564 1.386 . S
C568 C563 1.490 . S
C568 C570 1.395 . S
C568 C571 1.403 . S
H569 C575 0.930 . S
C570 H556 0.930 . S
C570 C568 1.395 . S
C570 C573 1.403 . S
C571 C568 1.403 . S
C571 C572 1.524 . S
C571 C575 1.400 . S
C572 H557 0.960 . S
C572 H558 0.960 . S
C572 H559 0.960 . S
C572 C571 1.524 . S
C573 C570 1.403 . S
C573 C574 1.392 . S
C573 C577 1.495 . S
C574 C573 1.392 . S
C574 C575 1.385 . S
C574 C576 1.478 . S
C575 H569 0.930 . S
C575 C571 1.400 . S
C575 C574 1.385 . S
C576 C574 1.478 . S
C576 C578 1.381 . S
C576 C582 1.383 . S
C577 C573 1.495 . S
C577 H583 0.959 . S
C577 H584 0.961 . S
C577 H585 0.960 . S
C578 C576 1.381 . S
C578 C579 1.394 . S
C578 H586 0.930 . S
C579 C578 1.394 . S
C579 C580 1.383 . S
C579 H587 0.929 . S
C580 C579 1.383 . S
C580 C581 1.377 . S
C581 H565 0.930 . S
C581 C580 1.377 . S
C581 C582 1.379 . S
C582 H566 0.931 . S
C582 C576 1.383 . S
C582 C581 1.379 . S
H583 C577 0.959 . S
H584 C577 0.961 . S
H585 C577 0.960 . S
H586 C578 0.930 . S
H587 C579 0.929 . S
H588 C596 0.929 . S
H589 C598 0.930 . S
H590 C600 0.930 . S
H591 C603 0.929 . S
H592 C606 0.930 . S
H593 C608 0.960 . S
H594 C608 0.960 . S
H595 C608 0.960 . S
C596 H588 0.929 . S
C596 C597 1.377 . S
C596 C598 1.384 . S
C597 C596 1.377 . S
C597 C603 1.390 . S
C598 H589 0.930 . S
C598 C596 1.384 . S
C598 C599 1.372 . S
C599 C598 1.372 . S
C599 C600 1.400 . S
C599 C604 1.490 . S
C600 H590 0.930 . S
C600 C599 1.400 . S
C600 C603 1.386 . S
H601 C617 0.930 . S
H602 C618 0.931 . S
C603 H591 0.929 . S
C603 C597 1.390 . S
C603 C600 1.386 . S
C604 C599 1.490 . S
C604 C606 1.395 . S
C604 C607 1.403 . S
H605 C611 0.930 . S
C606 H592 0.930 . S
C606 C604 1.395 . S
C606 C609 1.403 . S
C607 C604 1.403 . S
C607 C608 1.524 . S
C607 C611 1.400 . S
C608 H593 0.960 . S
C608 H594 0.960 . S
C608 H595 0.960 . S
C608 C607 1.524 . S
C609 C606 1.403 . S
C609 C610 1.392 . S
C609 C613 1.495 . S
C610 C609 1.392 . S
C610 C611 1.385 . S
C610 C612 1.478 . S
C611 H605 0.930 . S
C611 C607 1.400 . S
C611 C610 1.385 . S
C612 C610 1.478 . S
C612 C614 1.381 . S
C612 C618 1.383 . S
C613 C609 1.495 . S
C613 H619 0.959 . S
C613 H620 0.961 . S
C613 H621 0.960 . S
C614 C612 1.381 . S
C614 C615 1.394 . S
C614 H622 0.930 . S
C615 C614 1.394 . S
C615 C616 1.383 . S
C615 H623 0.929 . S
C616 C615 1.383 . S
C616 C617 1.377 . S
C617 H601 0.930 . S
C617 C616 1.377 . S
C617 C618 1.379 . S
C618 H602 0.931 . S
C618 C612 1.383 . S
C618 C617 1.379 . S
H619 C613 0.959 . S
H620 C613 0.961 . S
H621 C613 0.960 . S
H622 C614 0.930 . S
H623 C615 0.929 . S
H624 C632 0.929 . S
H625 C634 0.930 . S
H626 C636 0.930 . S
H627 C639 0.929 . S
H628 C642 0.930 . S
H629 C644 0.960 . S
H630 C644 0.960 . S
H631 C644 0.960 . S
C632 H624 0.929 . S
C632 C633 1.377 . S
C632 C634 1.384 . S
C633 C632 1.377 . S
C633 C639 1.390 . S
C634 H625 0.930 . S
C634 C632 1.384 . S
C634 C635 1.372 . S
C635 C634 1.372 . S
C635 C636 1.400 . S
C635 C640 1.490 . S
C636 H626 0.930 . S
C636 C635 1.400 . S
C636 C639 1.386 . S
H637 C653 0.930 . S
H638 C654 0.931 . S
C639 H627 0.929 . S
C639 C633 1.390 . S
C639 C636 1.386 . S
C640 C635 1.490 . S
C640 C642 1.395 . S
C640 C643 1.403 . S
H641 C647 0.930 . S
C642 H628 0.930 . S
C642 C640 1.395 . S
C642 C645 1.403 . S
C643 C640 1.403 . S
C643 C644 1.524 . S
C643 C647 1.400 . S
C644 H629 0.960 . S
C644 H630 0.960 . S
C644 H631 0.960 . S
C644 C643 1.524 . S
C645 C642 1.403 . S
C645 C646 1.392 . S
C645 C649 1.495 . S
C646 C645 1.392 . S
C646 C647 1.385 . S
C646 C648 1.478 . S
C647 H641 0.930 . S
C647 C643 1.400 . S
C647 C646 1.385 . S
C648 C646 1.478 . S
C648 C650 1.381 . S
C648 C654 1.383 . S
C649 C645 1.495 . S
C649 H655 0.959 . S
C649 H656 0.961 . S
C649 H657 0.960 . S
C650 C648 1.381 . S
C650 C651 1.394 . S
C650 H658 0.930 . S
C651 C650 1.394 . S
C651 C652 1.383 . S
C651 H659 0.929 . S
C652 C651 1.383 . S
C652 C653 1.377 . S
C653 H637 0.930 . S
C653 C652 1.377 . S
C653 C654 1.379 . S
C654 H638 0.931 . S
C654 C648 1.383 . S
C654 C653 1.379 . S
H655 C649 0.959 . S
H656 C649 0.961 . S
H657 C649 0.960 . S
H658 C650 0.930 . S
H659 C651 0.929 . S
H660 C668 0.929 . S
H661 C670 0.930 . S
H662 C672 0.930 . S
H663 C675 0.929 . S
H664 C678 0.930 . S
H665 C680 0.960 . S
H666 C680 0.960 . S
H667 C680 0.960 . S
C668 H660 0.929 . S
C668 C669 1.377 . S
C668 C670 1.384 . S
C669 C668 1.377 . S
C669 C675 1.390 . S
C670 H661 0.930 . S
C670 C668 1.384 . S
C670 C671 1.372 . S
C671 C670 1.372 . S
C671 C672 1.400 . S
C671 C676 1.490 . S
C672 H662 0.930 . S
C672 C671 1.400 . S
C672 C675 1.386 . S
H673 C689 0.930 . S
H674 C690 0.931 . S
C675 H663 0.929 . S
C675 C669 1.390 . S
C675 C672 1.386 . S
C676 C671 1.490 . S
C676 C678 1.395 . S
C676 C679 1.403 . S
H677 C683 0.930 . S
C678 H664 0.930 . S
C678 C676 1.395 . S
C678 C681 1.403 . S
C679 C676 1.403 . S
C679 C680 1.524 . S
C679 C683 1.400 . S
C680 H665 0.960 . S
C680 H666 0.960 . S
C680 H667 0.960 . S
C680 C679 1.524 . S
C681 C678 1.403 . S
C681 C682 1.392 . S
C681 C685 1.495 . S
C682 C681 1.392 . S
C682 C683 1.385 . S
C682 C684 1.478 . S
C683 H677 0.930 . S
C683 C679 1.400 . S
C683 C682 1.385 . S
C684 C682 1.478 . S
C684 C686 1.381 . S
C684 C690 1.383 . S
C685 C681 1.495 . S
C685 H691 0.959 . S
C685 H692 0.961 . S
C685 H693 0.960 . S
C686 C684 1.381 . S
C686 C687 1.394 . S
C686 H694 0.930 . S
C687 C686 1.394 . S
C687 C688 1.383 . S
C687 H695 0.929 . S
C688 C687 1.383 . S
C688 C689 1.377 . S
C689 H673 0.930 . S
C689 C688 1.377 . S
C689 C690 1.379 . S
C690 H674 0.931 . S
C690 C684 1.383 . S
C690 C689 1.379 . S
H691 C685 0.959 . S
H692 C685 0.961 . S
H693 C685 0.960 . S
H694 C686 0.930 . S
H695 C687 0.929 . S
H696 C704 0.929 . S
H697 C706 0.930 . S
H698 C708 0.930 . S
H699 C711 0.929 . S
H700 C714 0.930 . S
H701 C716 0.960 . S
H702 C716 0.960 . S
H703 C716 0.960 . S
C704 H696 0.929 . S
C704 C705 1.377 . S
C704 C706 1.384 . S
C705 C704 1.377 . S
C705 C711 1.390 . S
C706 H697 0.930 . S
C706 C704 1.384 . S
C706 C707 1.372 . S
C707 C706 1.372 . S
C707 C708 1.400 . S
C707 C712 1.490 . S
C708 H698 0.930 . S
C708 C707 1.400 . S
C708 C711 1.386 . S
H709 C725 0.930 . S
H710 C726 0.931 . S
C711 H699 0.929 . S
C711 C705 1.390 . S
C711 C708 1.386 . S
C712 C707 1.490 . S
C712 C714 1.395 . S
C712 C715 1.403 . S
H713 C719 0.930 . S
C714 H700 0.930 . S
C714 C712 1.395 . S
C714 C717 1.403 . S
C715 C712 1.403 . S
C715 C716 1.524 . S
C715 C719 1.400 . S
C716 H701 0.960 . S
C716 H702 0.960 . S
C716 H703 0.960 . S
C716 C715 1.524 . S
C717 C714 1.403 . S
C717 C718 1.392 . S
C717 C721 1.495 . S
C718 C717 1.392 . S
C718 C719 1.385 . S
C718 C720 1.478 . S
C719 H713 0.930 . S
C719 C715 1.400 . S
C719 C718 1.385 . S
C720 C718 1.478 . S
C720 C722 1.381 . S
C720 C726 1.383 . S
C721 C717 1.495 . S
C721 H727 0.959 . S
C721 H728 0.961 . S
C721 H729 0.960 . S
C722 C720 1.381 . S
C722 C723 1.394 . S
C722 H730 0.930 . S
C723 C722 1.394 . S
C723 C724 1.383 . S
C723 H731 0.929 . S
C724 C723 1.383 . S
C724 C725 1.377 . S
C725 H709 0.930 . S
C725 C724 1.377 . S
C725 C726 1.379 . S
C726 H710 0.931 . S
C726 C720 1.383 . S
C726 C725 1.379 . S
H727 C721 0.959 . S
H728 C721 0.961 . S
H729 C721 0.960 . S
H730 C722 0.930 . S
H731 C723 0.929 . S
H732 C740 0.929 . S
H733 C742 0.930 . S
H734 C744 0.930 . S
H735 C747 0.929 . S
H736 C750 0.930 . S
H737 C752 0.960 . S
H738 C752 0.960 . S
H739 C752 0.960 . S
C740 H732 0.929 . S
C740 C741 1.377 . S
C740 C742 1.384 . S
C741 C740 1.377 . S
C741 C747 1.390 . S
C742 H733 0.930 . S
C742 C740 1.384 . S
C742 C743 1.372 . S
C743 C742 1.372 . S
C743 C744 1.400 . S
C743 C748 1.490 . S
C744 H734 0.930 . S
C744 C743 1.400 . S
C744 C747 1.386 . S
H745 C761 0.930 . S
H746 C762 0.931 . S
C747 H735 0.929 . S
C747 C741 1.390 . S
C747 C744 1.386 . S
C748 C743 1.490 . S
C748 C750 1.395 . S
C748 C751 1.403 . S
H749 C755 0.930 . S
C750 H736 0.930 . S
C750 C748 1.395 . S
C750 C753 1.403 . S
C751 C748 1.403 . S
C751 C752 1.524 . S
C751 C755 1.400 . S
C752 H737 0.960 . S
C752 H738 0.960 . S
C752 H739 0.960 . S
C752 C751 1.524 . S
C753 C750 1.403 . S
C753 C754 1.392 . S
C753 C757 1.495 . S
C754 C753 1.392 . S
C754 C755 1.385 . S
C754 C756 1.478 . S
C755 H749 0.930 . S
C755 C751 1.400 . S
C755 C754 1.385 . S
C756 C754 1.478 . S
C756 C758 1.381 . S
C756 C762 1.383 . S
C757 C753 1.495 . S
C757 H763 0.959 . S
C757 H764 0.961 . S
C757 H765 0.960 . S
C758 C756 1.381 . S
C758 C759 1.394 . S
C758 H766 0.930 . S
C759 C758 1.394 . S
C759 C760 1.383 . S
C759 H767 0.929 . S
C760 C759 1.383 . S
C760 C761 1.377 . S
C761 H745 0.930 . S
C761 C760 1.377 . S
C761 C762 1.379 . S
C762 H746 0.931 . S
C762 C756 1.383 . S
C762 C761 1.379 . S
H763 C757 0.959 . S
H764 C757 0.961 . S
H765 C757 0.960 . S
H766 C758 0.930 . S
H767 C759 0.929 . S
H768 C776 0.929 . S
H769 C778 0.930 . S
H770 C780 0.930 . S
H771 C783 0.929 . S
H772 C786 0.930 . S
H773 C788 0.960 . S
H774 C788 0.960 . S
H775 C788 0.960 . S
C776 H768 0.929 . S
C776 C777 1.377 . S
C776 C778 1.384 . S
C777 C776 1.377 . S
C777 C783 1.390 . S
C778 H769 0.930 . S
C778 C776 1.384 . S
C778 C779 1.372 . S
C779 C778 1.372 . S
C779 C780 1.400 . S
C779 C784 1.490 . S
C780 H770 0.930 . S
C780 C779 1.400 . S
C780 C783 1.386 . S
H781 C797 0.930 . S
H782 C798 0.931 . S
C783 H771 0.929 . S
C783 C777 1.390 . S
C783 C780 1.386 . S
C784 C779 1.490 . S
C784 C786 1.395 . S
C784 C787 1.403 . S
H785 C791 0.930 . S
C786 H772 0.930 . S
C786 C784 1.395 . S
C786 C789 1.403 . S
C787 C784 1.403 . S
C787 C788 1.524 . S
C787 C791 1.400 . S
C788 H773 0.960 . S
C788 H774 0.960 . S
C788 H775 0.960 . S
C788 C787 1.524 . S
C789 C786 1.403 . S
C789 C790 1.392 . S
C789 C793 1.495 . S
C790 C789 1.392 . S
C790 C791 1.385 . S
C790 C792 1.478 . S
C791 H785 0.930 . S
C791 C787 1.400 . S
C791 C790 1.385 . S
C792 C790 1.478 . S
C792 C794 1.381 . S
C792 C798 1.383 . S
C793 C789 1.495 . S
C793 H799 0.959 . S
C793 H800 0.961 . S
C793 H801 0.960 . S
C794 C792 1.381 . S
C794 C795 1.394 . S
C794 H802 0.930 . S
C795 C794 1.394 . S
C795 C796 1.383 . S
C795 H803 0.929 . S
C796 C795 1.383 . S
C796 C797 1.377 . S
C797 H781 0.930 . S
C797 C796 1.377 . S
C797 C798 1.379 . S
C798 H782 0.931 . S
C798 C792 1.383 . S
C798 C797 1.379 . S
H799 C793 0.959 . S
H800 C793 0.961 . S
H801 C793 0.960 . S
H802 C794 0.930 . S
H803 C795 0.929 . S
H804 C812 0.929 . S
H805 C814 0.930 . S
H806 C816 0.930 . S
H807 C819 0.929 . S
H808 C822 0.930 . S
H809 C824 0.960 . S
H810 C824 0.960 . S
H811 C824 0.960 . S
C812 H804 0.929 . S
C812 C813 1.377 . S
C812 C814 1.384 . S
C813 C812 1.377 . S
C813 C819 1.390 . S
C814 H805 0.930 . S
C814 C812 1.384 . S
C814 C815 1.372 . S
C815 C814 1.372 . S
C815 C816 1.400 . S
C815 C820 1.490 . S
C816 H806 0.930 . S
C816 C815 1.400 . S
C816 C819 1.386 . S
H817 C833 0.930 . S
H818 C834 0.931 . S
C819 H807 0.929 . S
C819 C813 1.390 . S
C819 C816 1.386 . S
C820 C815 1.490 . S
C820 C822 1.395 . S
C820 C823 1.403 . S
H821 C827 0.930 . S
C822 H808 0.930 . S
C822 C820 1.395 . S
C822 C825 1.403 . S
C823 C820 1.403 . S
C823 C824 1.524 . S
C823 C827 1.400 . S
C824 H809 0.960 . S
C824 H810 0.960 . S
C824 H811 0.960 . S
C824 C823 1.524 . S
C825 C822 1.403 . S
C825 C826 1.392 . S
C825 C829 1.495 . S
C826 C825 1.392 . S
C826 C827 1.385 . S
C826 C828 1.478 . S
C827 H821 0.930 . S
C827 C823 1.400 . S
C827 C826 1.385 . S
C828 C826 1.478 . S
C828 C830 1.381 . S
C828 C834 1.383 . S
C829 C825 1.495 . S
C829 H835 0.959 . S
C829 H836 0.961 . S
C829 H837 0.960 . S
C830 C828 1.381 . S
C830 C831 1.394 . S
C830 H838 0.930 . S
C831 C830 1.394 . S
C831 C832 1.383 . S
C831 H839 0.929 . S
C832 C831 1.383 . S
C832 C833 1.377 . S
C833 H817 0.930 . S
C833 C832 1.377 . S
C833 C834 1.379 . S
C834 H818 0.931 . S
C834 C828 1.383 . S
C834 C833 1.379 . S
H835 C829 0.959 . S
H836 C829 0.961 . S
H837 C829 0.960 . S
H838 C830 0.930 . S
H839 C831 0.929 . S
H840 C848 0.929 . S
H841 C850 0.930 . S
H842 C852 0.930 . S
H843 C855 0.929 . S
H844 C858 0.930 . S
H845 C860 0.960 . S
H846 C860 0.960 . S
H847 C860 0.960 . S
C848 H840 0.929 . S
C848 C849 1.377 . S
C848 C850 1.384 . S
C849 C848 1.377 . S
C849 C855 1.390 . S
C850 H841 0.930 . S
C850 C848 1.384 . S
C850 C851 1.372 . S
C851 C850 1.372 . S
C851 C852 1.400 . S
C851 C856 1.490 . S
C852 H842 0.930 . S
C852 C851 1.400 . S
C852 C855 1.386 . S
H853 C869 0.930 . S
H854 C870 0.931 . S
C855 H843 0.929 . S
C855 C849 1.390 . S
C855 C852 1.386 . S
C856 C851 1.490 . S
C856 C858 1.395 . S
C856 C859 1.403 . S
H857 C863 0.930 . S
C858 H844 0.930 . S
C858 C856 1.395 . S
C858 C861 1.403 . S
C859 C856 1.403 . S
C859 C860 1.524 . S
C859 C863 1.400 . S
C860 H845 0.960 . S
C860 H846 0.960 . S
C860 H847 0.960 . S
C860 C859 1.524 . S
C861 C858 1.403 . S
C861 C862 1.392 . S
C861 C865 1.495 . S
C862 C861 1.392 . S
C862 C863 1.385 . S
C862 C864 1.478 . S
C863 H857 0.930 . S
C863 C859 1.400 . S
C863 C862 1.385 . S
C864 C862 1.478 . S
C864 C866 1.381 . S
C864 C870 1.383 . S
C865 C861 1.495 . S
C865 H871 0.959 . S
C865 H872 0.961 . S
C865 H873 0.960 . S
C866 C864 1.381 . S
C866 C867 1.394 . S
C866 H874 0.930 . S
C867 C866 1.394 . S
C867 C868 1.383 . S
C867 H875 0.928 1_655 S
C868 C867 1.383 . S
C868 C869 1.377 . S
C869 H853 0.930 . S
C869 C868 1.377 . S
C869 C870 1.379 . S
C870 H854 0.931 . S
C870 C864 1.383 . S
C870 C869 1.379 . S
H871 C865 0.959 . S
H872 C865 0.961 . S
H873 C865 0.960 . S
H874 C866 0.930 . S
H875 C867 0.928 1_455 S
H876 C884 0.929 . S
H877 C886 0.930 . S
H878 C888 0.930 . S
H879 C891 0.929 . S
H880 C894 0.930 . S
H881 C896 0.960 . S
H882 C896 0.960 . S
H883 C896 0.960 . S
C884 H876 0.929 . S
C884 C885 1.377 . S
C884 C886 1.384 . S
C885 C884 1.377 . S
C885 C891 1.390 . S
C886 H877 0.930 . S
C886 C884 1.384 . S
C886 C887 1.372 . S
C887 C886 1.372 . S
C887 C888 1.400 . S
C887 C892 1.490 . S
C888 H878 0.930 . S
C888 C887 1.400 . S
C888 C891 1.386 . S
H889 C905 0.930 . S
H890 C906 0.931 . S
C891 H879 0.929 . S
C891 C885 1.390 . S
C891 C888 1.386 . S
C892 C887 1.490 . S
C892 C894 1.395 . S
C892 C895 1.403 . S
H893 C899 0.930 . S
C894 H880 0.930 . S
C894 C892 1.395 . S
C894 C897 1.403 . S
C895 C892 1.403 . S
C895 C896 1.524 . S
C895 C899 1.400 . S
C896 H881 0.960 . S
C896 H882 0.960 . S
C896 H883 0.960 . S
C896 C895 1.524 . S
C897 C894 1.403 . S
C897 C898 1.392 . S
C897 C901 1.495 . S
C898 C897 1.392 . S
C898 C899 1.385 . S
C898 C900 1.478 . S
C899 H893 0.930 . S
C899 C895 1.400 . S
C899 C898 1.385 . S
C900 C898 1.478 . S
C900 C902 1.381 . S
C900 C906 1.383 . S
C901 C897 1.495 . S
C901 H907 0.959 . S
C901 H908 0.961 . S
C901 H909 0.960 . S
C902 C900 1.381 . S
C902 C903 1.394 . S
C902 H910 0.930 . S
C903 C902 1.394 . S
C903 C904 1.383 . S
C903 H911 0.929 . S
C904 C903 1.383 . S
C904 C905 1.377 . S
C905 H889 0.930 . S
C905 C904 1.377 . S
C905 C906 1.379 . S
C906 H890 0.931 . S
C906 C900 1.383 . S
C906 C905 1.379 . S
H907 C901 0.959 . S
H908 C901 0.961 . S
H909 C901 0.960 . S
H910 C902 0.930 . S
H911 C903 0.929 . S
H912 C920 0.929 . S
H913 C922 0.930 . S
H914 C924 0.930 . S
H915 C927 0.929 . S
H916 C930 0.930 . S
H917 C932 0.960 . S
H918 C932 0.960 . S
H919 C932 0.960 . S
C920 H912 0.929 . S
C920 C921 1.377 . S
C920 C922 1.384 . S
C921 C920 1.377 . S
C921 C927 1.390 . S
C922 H913 0.930 . S
C922 C920 1.384 . S
C922 C923 1.372 . S
C923 C922 1.372 . S
C923 C924 1.400 . S
C923 C928 1.490 . S
C924 H914 0.930 . S
C924 C923 1.400 . S
C924 C927 1.386 . S
H925 C941 0.930 . S
H926 C942 0.931 . S
C927 H915 0.929 . S
C927 C921 1.390 . S
C927 C924 1.386 . S
C928 C923 1.490 . S
C928 C930 1.395 . S
C928 C931 1.403 . S
H929 C935 0.930 . S
C930 H916 0.930 . S
C930 C928 1.395 . S
C930 C933 1.403 . S
C931 C928 1.403 . S
C931 C932 1.524 . S
C931 C935 1.400 . S
C932 H917 0.960 . S
C932 H918 0.960 . S
C932 H919 0.960 . S
C932 C931 1.524 . S
C933 C930 1.403 . S
C933 C934 1.392 . S
C933 C937 1.495 . S
C934 C933 1.392 . S
C934 C935 1.385 . S
C934 C936 1.478 . S
C935 H929 0.930 . S
C935 C931 1.400 . S
C935 C934 1.385 . S
C936 C934 1.478 . S
C936 C938 1.381 . S
C936 C942 1.383 . S
C937 C933 1.495 . S
C937 H943 0.959 . S
C937 H944 0.961 . S
C937 H945 0.960 . S
C938 C936 1.381 . S
C938 C939 1.394 . S
C938 H946 0.930 . S
C939 C938 1.394 . S
C939 C940 1.383 . S
C939 H947 0.929 . S
C940 C939 1.383 . S
C940 C941 1.377 . S
C941 H925 0.930 . S
C941 C940 1.377 . S
C941 C942 1.379 . S
C942 H926 0.931 . S
C942 C936 1.383 . S
C942 C941 1.379 . S
H943 C937 0.959 . S
H944 C937 0.961 . S
H945 C937 0.960 . S
H946 C938 0.930 . S
H947 C939 0.929 . S
H948 C956 0.929 . S
H949 C958 0.930 . S
H950 C960 0.930 . S
H951 C963 0.929 . S
H952 C966 0.930 . S
H953 C968 0.960 . S
H954 C968 0.960 . S
H955 C968 0.960 . S
C956 H948 0.929 . S
C956 C957 1.377 . S
C956 C958 1.384 . S
C957 C956 1.377 . S
C957 C963 1.390 . S
C958 H949 0.930 . S
C958 C956 1.384 . S
C958 C959 1.372 . S
C959 C958 1.372 . S
C959 C960 1.400 . S
C959 C964 1.490 . S
C960 H950 0.930 . S
C960 C959 1.400 . S
C960 C963 1.386 . S
H961 C977 0.930 . S
H962 C978 0.931 . S
C963 H951 0.929 . S
C963 C957 1.390 . S
C963 C960 1.386 . S
C964 C959 1.490 . S
C964 C966 1.395 . S
C964 C967 1.403 . S
H965 C971 0.930 . S
C966 H952 0.930 . S
C966 C964 1.395 . S
C966 C969 1.403 . S
C967 C964 1.403 . S
C967 C968 1.524 . S
C967 C971 1.400 . S
C968 H953 0.960 . S
C968 H954 0.960 . S
C968 H955 0.960 . S
C968 C967 1.524 . S
C969 C966 1.403 . S
C969 C970 1.392 . S
C969 C973 1.495 . S
C970 C969 1.392 . S
C970 C971 1.385 . S
C970 C972 1.478 . S
C971 H965 0.930 . S
C971 C967 1.400 . S
C971 C970 1.385 . S
C972 C970 1.478 . S
C972 C974 1.381 . S
C972 C978 1.383 . S
C973 C969 1.495 . S
C973 H979 0.959 . S
C973 H980 0.961 . S
C973 H981 0.960 . S
C974 C972 1.381 . S
C974 C975 1.394 . S
C974 H982 0.930 . S
C975 C974 1.394 . S
C975 C976 1.383 . S
C975 H983 0.929 . S
C976 C975 1.383 . S
C976 C977 1.377 . S
C977 H961 0.930 . S
C977 C976 1.377 . S
C977 C978 1.379 . S
C978 H962 0.931 . S
C978 C972 1.383 . S
C978 C977 1.379 . S
H979 C973 0.959 . S
H980 C973 0.961 . S
H981 C973 0.960 . S
H982 C974 0.930 . S
H983 C975 0.929 . S
H984 C992 0.929 . S
H985 C994 0.930 . S
H986 C996 0.930 . S
H987 C999 0.929 . S
H988 C1002 0.930 . S
H989 C1004 0.960 . S
H990 C1004 0.960 . S
H991 C1004 0.960 . S
C992 H984 0.929 . S
C992 C993 1.377 . S
C992 C994 1.384 . S
C993 C992 1.377 . S
C993 C999 1.390 . S
C994 H985 0.930 . S
C994 C992 1.384 . S
C994 C995 1.372 . S
C995 C994 1.372 . S
C995 C996 1.400 . S
C995 C1000 1.490 . S
C996 H986 0.930 . S
C996 C995 1.400 . S
C996 C999 1.386 . S
H997 C1013 0.930 . S
H998 C1014 0.931 . S
C999 H987 0.929 . S
C999 C993 1.390 . S
C999 C996 1.386 . S
C1000 C995 1.490 . S
C1000 C1002 1.395 . S
C1000 C1003 1.403 . S
H1001 C1007 0.930 . S
C1002 H988 0.930 . S
C1002 C1000 1.395 . S
C1002 C1005 1.403 . S
C1003 C1000 1.403 . S
C1003 C1004 1.524 . S
C1003 C1007 1.400 . S
C1004 H989 0.960 . S
C1004 H990 0.960 . S
C1004 H991 0.960 . S
C1004 C1003 1.524 . S
C1005 C1002 1.403 . S
C1005 C1006 1.392 . S
C1005 C1009 1.495 . S
C1006 C1005 1.392 . S
C1006 C1007 1.385 . S
C1006 C1008 1.478 . S
C1007 H1001 0.930 . S
C1007 C1003 1.400 . S
C1007 C1006 1.385 . S
C1008 C1006 1.478 . S
C1008 C1010 1.381 . S
C1008 C1014 1.383 . S
C1009 C1005 1.495 . S
C1009 H1015 0.959 . S
C1009 H1016 0.961 . S
C1009 H1017 0.960 . S
C1010 C1008 1.381 . S
C1010 C1011 1.394 . S
C1010 H1018 0.930 . S
C1011 C1010 1.394 . S
C1011 C1012 1.383 . S
C1011 H1019 0.929 . S
C1012 C1011 1.383 . S
C1012 C1013 1.377 . S
C1013 H997 0.930 . S
C1013 C1012 1.377 . S
C1013 C1014 1.379 . S
C1014 H998 0.931 . S
C1014 C1008 1.383 . S
C1014 C1013 1.379 . S
H1015 C1009 0.959 . S
H1016 C1009 0.961 . S
H1017 C1009 0.960 . S
H1018 C1010 0.930 . S
H1019 C1011 0.929 . S
H1020 C1028 0.929 . S
H1021 C1030 0.930 . S
H1022 C1032 0.930 . S
H1023 C1035 0.929 . S
H1024 C1038 0.930 . S
H1025 C1040 0.960 . S
H1026 C1040 0.960 . S
H1027 C1040 0.960 . S
C1028 H1020 0.929 . S
C1028 C1029 1.377 . S
C1028 C1030 1.384 . S
C1029 C1028 1.377 . S
C1029 C1035 1.390 . S
C1030 H1021 0.930 . S
C1030 C1028 1.384 . S
C1030 C1031 1.372 . S
C1031 C1030 1.372 . S
C1031 C1032 1.400 . S
C1031 C1036 1.490 . S
C1032 H1022 0.930 . S
C1032 C1031 1.400 . S
C1032 C1035 1.386 . S
H1033 C1049 0.930 . S
H1034 C1050 0.931 . S
C1035 H1023 0.929 . S
C1035 C1029 1.390 . S
C1035 C1032 1.386 . S
C1036 C1031 1.490 . S
C1036 C1038 1.395 . S
C1036 C1039 1.403 . S
H1037 C1043 0.930 . S
C1038 H1024 0.930 . S
C1038 C1036 1.395 . S
C1038 C1041 1.403 . S
C1039 C1036 1.403 . S
C1039 C1040 1.524 . S
C1039 C1043 1.400 . S
C1040 H1025 0.960 . S
C1040 H1026 0.960 . S
C1040 H1027 0.960 . S
C1040 C1039 1.524 . S
C1041 C1038 1.403 . S
C1041 C1042 1.392 . S
C1041 C1045 1.495 . S
C1042 C1041 1.392 . S
C1042 C1043 1.385 . S
C1042 C1044 1.478 . S
C1043 H1037 0.930 . S
C1043 C1039 1.400 . S
C1043 C1042 1.385 . S
C1044 C1042 1.478 . S
C1044 C1046 1.381 . S
C1044 C1050 1.383 . S
C1045 C1041 1.495 . S
C1045 H1051 0.959 . S
C1045 H1052 0.961 . S
C1045 H1053 0.960 . S
C1046 C1044 1.381 . S
C1046 C1047 1.394 . S
C1046 H1054 0.930 . S
C1047 C1046 1.394 . S
C1047 C1048 1.383 . S
C1047 H1055 0.929 . S
C1048 C1047 1.383 . S
C1048 C1049 1.377 . S
C1049 H1033 0.930 . S
C1049 C1048 1.377 . S
C1049 C1050 1.379 . S
C1050 H1034 0.931 . S
C1050 C1044 1.383 . S
C1050 C1049 1.379 . S
H1051 C1045 0.959 . S
H1052 C1045 0.961 . S
H1053 C1045 0.960 . S
H1054 C1046 0.930 . S
H1055 C1047 0.929 . S
H1056 C1064 0.929 . S
H1057 C1066 0.930 . S
H1058 C1068 0.930 . S
H1059 C1071 0.929 . S
H1060 C1074 0.930 . S
H1061 C1076 0.960 . S
H1062 C1076 0.960 . S
H1063 C1076 0.960 . S
C1064 H1056 0.929 . S
C1064 C1065 1.377 . S
C1064 C1066 1.384 . S
C1065 C1064 1.377 . S
C1065 C1071 1.390 . S
C1066 H1057 0.930 . S
C1066 C1064 1.384 . S
C1066 C1067 1.372 . S
C1067 C1066 1.372 . S
C1067 C1068 1.400 . S
C1067 C1072 1.490 . S
C1068 H1058 0.930 . S
C1068 C1067 1.400 . S
C1068 C1071 1.386 . S
H1069 C1085 0.930 . S
H1070 C1086 0.931 . S
C1071 H1059 0.929 . S
C1071 C1065 1.390 . S
C1071 C1068 1.386 . S
C1072 C1067 1.490 . S
C1072 C1074 1.395 . S
C1072 C1075 1.403 . S
H1073 C1079 0.930 . S
C1074 H1060 0.930 . S
C1074 C1072 1.395 . S
C1074 C1077 1.403 . S
C1075 C1072 1.403 . S
C1075 C1076 1.524 . S
C1075 C1079 1.400 . S
C1076 H1061 0.960 . S
C1076 H1062 0.960 . S
C1076 H1063 0.960 . S
C1076 C1075 1.524 . S
C1077 C1074 1.403 . S
C1077 C1078 1.392 . S
C1077 C1081 1.495 . S
C1078 C1077 1.392 . S
C1078 C1079 1.385 . S
C1078 C1080 1.478 . S
C1079 H1073 0.930 . S
C1079 C1075 1.400 . S
C1079 C1078 1.385 . S
C1080 C1078 1.478 . S
C1080 C1082 1.381 . S
C1080 C1086 1.383 . S
C1081 C1077 1.495 . S
C1081 H1087 0.959 . S
C1081 H1088 0.961 . S
C1081 H1089 0.960 . S
C1082 C1080 1.381 . S
C1082 C1083 1.394 . S
C1082 H1090 0.930 . S
C1083 C1082 1.394 . S
C1083 C1084 1.383 . S
C1083 H1091 0.929 1_556 S
C1084 C1083 1.383 . S
C1084 C1085 1.377 . S
C1085 H1069 0.930 . S
C1085 C1084 1.377 . S
C1085 C1086 1.379 . S
C1086 H1070 0.931 . S
C1086 C1080 1.383 . S
C1086 C1085 1.379 . S
H1087 C1081 0.959 . S
H1088 C1081 0.961 . S
H1089 C1081 0.960 . S
H1090 C1082 0.930 . S
H1091 C1083 0.929 1_554 S
H1092 C1100 0.929 . S
H1093 C1102 0.930 . S
H1094 C1104 0.930 . S
H1095 C1107 0.929 . S
H1096 C1110 0.930 . S
H1097 C1112 0.960 . S
H1098 C1112 0.960 . S
H1099 C1112 0.960 . S
C1100 H1092 0.929 . S
C1100 C1101 1.377 . S
C1100 C1102 1.384 . S
C1101 C1100 1.377 . S
C1101 C1107 1.390 . S
C1102 H1093 0.930 . S
C1102 C1100 1.384 . S
C1102 C1103 1.372 . S
C1103 C1102 1.372 . S
C1103 C1104 1.400 . S
C1103 C1108 1.490 . S
C1104 H1094 0.930 . S
C1104 C1103 1.400 . S
C1104 C1107 1.386 . S
H1105 C1121 0.930 . S
H1106 C1122 0.931 . S
C1107 H1095 0.929 . S
C1107 C1101 1.390 . S
C1107 C1104 1.386 . S
C1108 C1103 1.490 . S
C1108 C1110 1.395 . S
C1108 C1111 1.403 . S
H1109 C1115 0.930 . S
C1110 H1096 0.930 . S
C1110 C1108 1.395 . S
C1110 C1113 1.403 . S
C1111 C1108 1.403 . S
C1111 C1112 1.524 . S
C1111 C1115 1.400 . S
C1112 H1097 0.960 . S
C1112 H1098 0.960 . S
C1112 H1099 0.960 . S
C1112 C1111 1.524 . S
C1113 C1110 1.403 . S
C1113 C1114 1.392 . S
C1113 C1117 1.495 . S
C1114 C1113 1.392 . S
C1114 C1115 1.385 . S
C1114 C1116 1.478 . S
C1115 H1109 0.930 . S
C1115 C1111 1.400 . S
C1115 C1114 1.385 . S
C1116 C1114 1.478 . S
C1116 C1118 1.381 . S
C1116 C1122 1.383 . S
C1117 C1113 1.495 . S
C1117 H1123 0.959 . S
C1117 H1124 0.961 . S
C1117 H1125 0.960 . S
C1118 C1116 1.381 . S
C1118 C1119 1.394 . S
C1118 H1126 0.930 . S
C1119 C1118 1.394 . S
C1119 C1120 1.383 . S
C1119 H1127 0.929 . S
C1120 C1119 1.383 . S
C1120 C1121 1.377 . S
C1121 H1105 0.930 . S
C1121 C1120 1.377 . S
C1121 C1122 1.379 . S
C1122 H1106 0.931 . S
C1122 C1116 1.383 . S
C1122 C1121 1.379 . S
H1123 C1117 0.959 . S
H1124 C1117 0.961 . S
H1125 C1117 0.960 . S
H1126 C1118 0.930 . S
H1127 C1119 0.929 . S
H1128 C1136 0.929 . S
H1129 C1138 0.930 . S
H1130 C1140 0.930 . S
H1131 C1143 0.929 . S
H1132 C1146 0.930 . S
H1133 C1148 0.960 . S
H1134 C1148 0.960 . S
H1135 C1148 0.960 . S
C1136 H1128 0.929 . S
C1136 C1137 1.377 . S
C1136 C1138 1.384 . S
C1137 C1136 1.377 . S
C1137 C1143 1.390 . S
C1138 H1129 0.930 . S
C1138 C1136 1.384 . S
C1138 C1139 1.372 . S
C1139 C1138 1.372 . S
C1139 C1140 1.400 . S
C1139 C1144 1.490 . S
C1140 H1130 0.930 . S
C1140 C1139 1.400 . S
C1140 C1143 1.386 . S
H1141 C1157 0.930 1_556 S
H1142 C1158 0.931 . S
C1143 H1131 0.929 . S
C1143 C1137 1.390 . S
C1143 C1140 1.386 . S
C1144 C1139 1.490 . S
C1144 C1146 1.395 . S
C1144 C1147 1.403 . S
H1145 C1151 0.930 . S
C1146 H1132 0.930 . S
C1146 C1144 1.395 . S
C1146 C1149 1.403 . S
C1147 C1144 1.403 . S
C1147 C1148 1.524 . S
C1147 C1151 1.400 . S
C1148 H1133 0.960 . S
C1148 H1134 0.960 . S
C1148 H1135 0.960 . S
C1148 C1147 1.524 . S
C1149 C1146 1.403 . S
C1149 C1150 1.392 . S
C1149 C1153 1.495 . S
C1150 C1149 1.392 . S
C1150 C1151 1.385 . S
C1150 C1152 1.478 . S
C1151 H1145 0.930 . S
C1151 C1147 1.400 . S
C1151 C1150 1.385 . S
C1152 C1150 1.478 . S
C1152 C1154 1.381 . S
C1152 C1158 1.383 . S
C1153 C1149 1.495 . S
C1153 H1159 0.959 . S
C1153 H1160 0.961 . S
C1153 H1161 0.960 . S
C1154 C1152 1.381 . S
C1154 C1155 1.394 . S
C1154 H1162 0.930 . S
C1155 C1154 1.394 . S
C1155 C1156 1.383 . S
C1155 H1163 0.929 . S
C1156 C1155 1.383 . S
C1156 C1157 1.377 . S
C1157 H1141 0.930 1_554 S
C1157 C1156 1.377 . S
C1157 C1158 1.379 . S
C1158 H1142 0.931 . S
C1158 C1152 1.383 . S
C1158 C1157 1.379 . S
H1159 C1153 0.959 . S
H1160 C1153 0.961 . S
H1161 C1153 0.960 . S
H1162 C1154 0.930 . S
H1163 C1155 0.929 . S
H1164 C1172 0.929 . S
H1165 C1174 0.930 . S
H1166 C1176 0.930 . S
H1167 C1179 0.929 . S
H1168 C1182 0.930 . S
H1169 C1184 0.960 . S
H1170 C1184 0.960 . S
H1171 C1184 0.960 . S
C1172 H1164 0.929 . S
C1172 C1173 1.377 . S
C1172 C1174 1.384 . S
C1173 C1172 1.377 . S
C1173 C1179 1.390 . S
C1174 H1165 0.930 . S
C1174 C1172 1.384 . S
C1174 C1175 1.372 . S
C1175 C1174 1.372 . S
C1175 C1176 1.400 . S
C1175 C1180 1.490 . S
C1176 H1166 0.930 . S
C1176 C1175 1.400 . S
C1176 C1179 1.386 . S
H1177 C1193 0.930 . S
H1178 C1194 0.931 . S
C1179 H1167 0.929 . S
C1179 C1173 1.390 . S
C1179 C1176 1.386 . S
C1180 C1175 1.490 . S
C1180 C1182 1.395 . S
C1180 C1183 1.403 . S
H1181 C1187 0.930 . S
C1182 H1168 0.930 . S
C1182 C1180 1.395 . S
C1182 C1185 1.403 . S
C1183 C1180 1.403 . S
C1183 C1184 1.524 . S
C1183 C1187 1.400 . S
C1184 H1169 0.960 . S
C1184 H1170 0.960 . S
C1184 H1171 0.960 . S
C1184 C1183 1.524 . S
C1185 C1182 1.403 . S
C1185 C1186 1.392 . S
C1185 C1189 1.495 . S
C1186 C1185 1.392 . S
C1186 C1187 1.385 . S
C1186 C1188 1.478 . S
C1187 H1181 0.930 . S
C1187 C1183 1.400 . S
C1187 C1186 1.385 . S
C1188 C1186 1.478 . S
C1188 C1190 1.381 . S
C1188 C1194 1.383 . S
C1189 C1185 1.495 . S
C1189 H1195 0.959 . S
C1189 H1196 0.961 . S
C1189 H1197 0.960 . S
C1190 C1188 1.381 . S
C1190 C1191 1.394 . S
C1190 H1198 0.930 . S
C1191 C1190 1.394 . S
C1191 C1192 1.383 . S
C1191 H1199 0.929 . S
C1192 C1191 1.383 . S
C1192 C1193 1.377 . S
C1193 H1177 0.930 . S
C1193 C1192 1.377 . S
C1193 C1194 1.379 . S
C1194 H1178 0.931 . S
C1194 C1188 1.383 . S
C1194 C1193 1.379 . S
H1195 C1189 0.959 . S
H1196 C1189 0.961 . S
H1197 C1189 0.960 . S
H1198 C1190 0.930 . S
H1199 C1191 0.929 . S
H1200 C1208 0.929 . S
H1201 C1210 0.930 . S
H1202 C1212 0.930 . S
H1203 C1215 0.929 . S
H1204 C1218 0.930 . S
H1205 C1220 0.960 . S
H1206 C1220 0.960 . S
H1207 C1220 0.960 . S
C1208 H1200 0.929 . S
C1208 C1209 1.377 . S
C1208 C1210 1.384 . S
C1209 C1208 1.377 . S
C1209 C1215 1.390 . S
C1210 H1201 0.930 . S
C1210 C1208 1.384 . S
C1210 C1211 1.372 . S
C1211 C1210 1.372 . S
C1211 C1212 1.400 . S
C1211 C1216 1.490 . S
C1212 H1202 0.930 . S
C1212 C1211 1.400 . S
C1212 C1215 1.386 . S
H1213 C1229 0.930 . S
H1214 C1230 0.931 . S
C1215 H1203 0.929 . S
C1215 C1209 1.390 . S
C1215 C1212 1.386 . S
C1216 C1211 1.490 . S
C1216 C1218 1.395 . S
C1216 C1219 1.403 . S
H1217 C1223 0.930 . S
C1218 H1204 0.930 . S
C1218 C1216 1.395 . S
C1218 C1221 1.403 . S
C1219 C1216 1.403 . S
C1219 C1220 1.524 . S
C1219 C1223 1.400 . S
C1220 H1205 0.960 . S
C1220 H1206 0.960 . S
C1220 H1207 0.960 . S
C1220 C1219 1.524 . S
C1221 C1218 1.403 . S
C1221 C1222 1.392 . S
C1221 C1225 1.495 . S
C1222 C1221 1.392 . S
C1222 C1223 1.385 . S
C1222 C1224 1.478 . S
C1223 H1217 0.930 . S
C1223 C1219 1.400 . S
C1223 C1222 1.385 . S
C1224 C1222 1.478 . S
C1224 C1226 1.381 . S
C1224 C1230 1.383 . S
C1225 C1221 1.495 . S
C1225 H1231 0.959 . S
C1225 H1232 0.961 . S
C1225 H1233 0.960 . S
C1226 C1224 1.381 . S
C1226 C1227 1.394 . S
C1226 H1234 0.930 . S
C1227 C1226 1.394 . S
C1227 C1228 1.383 . S
C1227 H1235 0.929 . S
C1228 C1227 1.383 . S
C1228 C1229 1.377 . S
C1229 H1213 0.930 . S
C1229 C1228 1.377 . S
C1229 C1230 1.379 . S
C1230 H1214 0.931 . S
C1230 C1224 1.383 . S
C1230 C1229 1.379 . S
H1231 C1225 0.959 . S
H1232 C1225 0.961 . S
H1233 C1225 0.960 . S
H1234 C1226 0.930 . S
H1235 C1227 0.929 . S
H1236 C1244 0.929 . S
H1237 C1246 0.930 . S
H1238 C1248 0.930 . S
H1239 C1251 0.929 . S
H1240 C1254 0.930 . S
H1241 C1256 0.960 . S
H1242 C1256 0.960 . S
H1243 C1256 0.960 . S
C1244 H1236 0.929 . S
C1244 C1245 1.377 . S
C1244 C1246 1.384 . S
C1245 C1244 1.377 . S
C1245 C1251 1.390 . S
C1246 H1237 0.930 . S
C1246 C1244 1.384 . S
C1246 C1247 1.372 . S
C1247 C1246 1.372 . S
C1247 C1248 1.400 . S
C1247 C1252 1.490 . S
C1248 H1238 0.930 . S
C1248 C1247 1.400 . S
C1248 C1251 1.386 . S
H1249 C1265 0.930 . S
H1250 C1266 0.931 . S
C1251 H1239 0.929 . S
C1251 C1245 1.390 . S
C1251 C1248 1.386 . S
C1252 C1247 1.490 . S
C1252 C1254 1.395 . S
C1252 C1255 1.403 . S
H1253 C1259 0.930 . S
C1254 H1240 0.930 . S
C1254 C1252 1.395 . S
C1254 C1257 1.403 . S
C1255 C1252 1.403 . S
C1255 C1256 1.524 . S
C1255 C1259 1.400 . S
C1256 H1241 0.960 . S
C1256 H1242 0.960 . S
C1256 H1243 0.960 . S
C1256 C1255 1.524 . S
C1257 C1254 1.403 . S
C1257 C1258 1.392 . S
C1257 C1261 1.495 . S
C1258 C1257 1.392 . S
C1258 C1259 1.385 . S
C1258 C1260 1.478 . S
C1259 H1253 0.930 . S
C1259 C1255 1.400 . S
C1259 C1258 1.385 . S
C1260 C1258 1.478 . S
C1260 C1262 1.381 . S
C1260 C1266 1.383 . S
C1261 C1257 1.495 . S
C1261 H1267 0.959 . S
C1261 H1268 0.961 . S
C1261 H1269 0.960 . S
C1262 C1260 1.381 . S
C1262 C1263 1.394 . S
C1262 H1270 0.930 . S
C1263 C1262 1.394 . S
C1263 C1264 1.383 . S
C1263 H1271 0.929 . S
C1264 C1263 1.383 . S
C1264 C1265 1.377 . S
C1265 H1249 0.930 . S
C1265 C1264 1.377 . S
C1265 C1266 1.379 . S
C1266 H1250 0.931 . S
C1266 C1260 1.383 . S
C1266 C1265 1.379 . S
H1267 C1261 0.959 . S
H1268 C1261 0.961 . S
H1269 C1261 0.960 . S
H1270 C1262 0.930 . S
H1271 C1263 0.929 . S
H1272 C1280 0.929 . S
H1273 C1282 0.930 . S
H1274 C1284 0.930 . S
H1275 C1287 0.929 . S
H1276 C1290 0.930 . S
H1277 C1292 0.960 . S
H1278 C1292 0.960 . S
H1279 C1292 0.960 . S
C1280 H1272 0.929 . S
C1280 C1281 1.377 . S
C1280 C1282 1.384 . S
C1281 C1280 1.377 . S
C1281 C1287 1.390 . S
C1282 H1273 0.930 . S
C1282 C1280 1.384 . S
C1282 C1283 1.372 . S
C1283 C1282 1.372 . S
C1283 C1284 1.400 . S
C1283 C1288 1.490 . S
C1284 H1274 0.930 . S
C1284 C1283 1.400 . S
C1284 C1287 1.386 . S
H1285 C1301 0.930 . S
H1286 C1302 0.931 . S
C1287 H1275 0.929 . S
C1287 C1281 1.390 . S
C1287 C1284 1.386 . S
C1288 C1283 1.490 . S
C1288 C1290 1.395 . S
C1288 C1291 1.403 . S
H1289 C1295 0.930 . S
C1290 H1276 0.930 . S
C1290 C1288 1.395 . S
C1290 C1293 1.403 . S
C1291 C1288 1.403 . S
C1291 C1292 1.524 . S
C1291 C1295 1.400 . S
C1292 H1277 0.960 . S
C1292 H1278 0.960 . S
C1292 H1279 0.960 . S
C1292 C1291 1.524 . S
C1293 C1290 1.403 . S
C1293 C1294 1.392 . S
C1293 C1297 1.495 . S
C1294 C1293 1.392 . S
C1294 C1295 1.385 . S
C1294 C1296 1.478 . S
C1295 H1289 0.930 . S
C1295 C1291 1.400 . S
C1295 C1294 1.385 . S
C1296 C1294 1.478 . S
C1296 C1298 1.381 . S
C1296 C1302 1.383 . S
C1297 C1293 1.495 . S
C1297 H1303 0.959 . S
C1297 H1304 0.961 . S
C1297 H1305 0.960 . S
C1298 C1296 1.381 . S
C1298 C1299 1.394 . S
C1298 H1306 0.930 . S
C1299 C1298 1.394 . S
C1299 C1300 1.383 . S
C1299 H1307 0.929 . S
C1300 C1299 1.383 . S
C1300 C1301 1.377 . S
C1301 H1285 0.930 . S
C1301 C1300 1.377 . S
C1301 C1302 1.379 . S
C1302 H1286 0.931 . S
C1302 C1296 1.383 . S
C1302 C1301 1.379 . S
H1303 C1297 0.959 . S
H1304 C1297 0.961 . S
H1305 C1297 0.960 . S
H1306 C1298 0.930 . S
H1307 C1299 0.929 . S
H1308 C1316 0.929 . S
H1309 C1318 0.930 . S
H1310 C1320 0.930 . S
H1311 C1323 0.929 . S
H1312 C1326 0.930 . S
H1313 C1328 0.960 . S
H1314 C1328 0.960 . S
H1315 C1328 0.960 . S
C1316 H1308 0.929 . S
C1316 C1317 1.377 . S
C1316 C1318 1.384 . S
C1317 C1316 1.377 . S
C1317 C1323 1.390 . S
C1318 H1309 0.930 . S
C1318 C1316 1.384 . S
C1318 C1319 1.372 . S
C1319 C1318 1.372 . S
C1319 C1320 1.400 . S
C1319 C1324 1.490 . S
C1320 H1310 0.930 . S
C1320 C1319 1.400 . S
C1320 C1323 1.386 . S
H1321 C1337 0.930 . S
H1322 C1338 0.931 . S
C1323 H1311 0.929 . S
C1323 C1317 1.390 . S
C1323 C1320 1.386 . S
C1324 C1319 1.490 . S
C1324 C1326 1.395 . S
C1324 C1327 1.403 . S
H1325 C1331 0.930 . S
C1326 H1312 0.930 . S
C1326 C1324 1.395 . S
C1326 C1329 1.403 . S
C1327 C1324 1.403 . S
C1327 C1328 1.524 . S
C1327 C1331 1.400 . S
C1328 H1313 0.960 . S
C1328 H1314 0.960 . S
C1328 H1315 0.960 . S
C1328 C1327 1.524 . S
C1329 C1326 1.403 . S
C1329 C1330 1.392 . S
C1329 C1333 1.495 . S
C1330 C1329 1.392 . S
C1330 C1331 1.385 . S
C1330 C1332 1.478 . S
C1331 H1325 0.930 . S
C1331 C1327 1.400 . S
C1331 C1330 1.385 . S
C1332 C1330 1.478 . S
C1332 C1334 1.381 . S
C1332 C1338 1.383 . S
C1333 C1329 1.495 . S
C1333 H1339 0.959 . S
C1333 H1340 0.961 . S
C1333 H1341 0.960 . S
C1334 C1332 1.381 . S
C1334 C1335 1.394 . S
C1334 H1342 0.930 . S
C1335 C1334 1.394 . S
C1335 C1336 1.383 . S
C1335 H1343 0.929 . S
C1336 C1335 1.383 . S
C1336 C1337 1.377 . S
C1337 H1321 0.930 . S
C1337 C1336 1.377 . S
C1337 C1338 1.379 . S
C1338 H1322 0.931 . S
C1338 C1332 1.383 . S
C1338 C1337 1.379 . S
H1339 C1333 0.959 . S
H1340 C1333 0.961 . S
H1341 C1333 0.960 . S
H1342 C1334 0.930 . S
H1343 C1335 0.929 . S
C489 C21 0.871 . S
C508 C324 0.907 . S
C525 C61 1.324 . S
C544 C385 1.328 . S
C580 C423 2.433 . S
C561 C82 2.497 . S
C597 C135 2.282 . S
C616 C463 2.236 . S
C652 C383 1.271 . S
C633 C15 1.282 . S
C688 C351 2.254 . S
C669 C42 2.237 . S
C724 C460 1.659 . S
C705 C101 1.679 . S
C760 C420 1.749 . S
C741 C122 1.750 . S
C777 C2 0.998 . S
C796 C465 0.995 . S
C832 C380 2.333 . S
C813 C95 2.340 . S
C849 C141 2.155 . S
C868 C322 2.114 . S
C885 C55 1.561 . S
C904 C425 1.598 . S
C940 C345 0.910 . S
C921 C181 0.905 . S
C957 C202 1.291 . S
C976 C364 1.316 . S
C993 C255 2.505 . S
C1012 C402 2.448 . S
C1029 C295 2.252 . S
C1048 C442 2.199 . S
C1065 C175 1.264 . S
C1084 C362 1.248 . S
C1120 C340 2.255 . S
C1101 C221 2.235 . S
C1156 C471 1.589 . S
C1137 C242 1.586 . S
C1192 C431 1.810 . S
C1173 C301 1.823 . S
C1209 C162 0.993 . S
C1228 C444 1.005 . S
C1264 C391 2.385 . S
C1245 C261 2.352 . S
C1300 C343 2.090 . S
C1281 C282 2.138 . S
C1317 C215 1.590 . S
C1336 C404 1.621 . S
