# Generated by pormake.
# Topology gar, (4,6)-cn, num edge types: 1
# Building blocks:
#     Node 0, Type 0, BuildingBlock: QUQFOY_clean_sbu_3, # of connection points: 4
#     Node 1, Type 0, BuildingBlock: QUQFOY_clean_sbu_3, # of connection points: 4
#     Node 2, Type 0, BuildingBlock: QUQFOY_clean_sbu_3, # of connection points: 4
#     Node 3, Type 0, BuildingBlock: QUQFOY_clean_sbu_3, # of connection points: 4
#     Node 4, Type 0, BuildingBlock: QUQFOY_clean_sbu_3, # of connection points: 4
#     Node 5, Type 0, BuildingBlock: QUQFOY_clean_sbu_3, # of connection points: 4
#     Node 6, Type 0, BuildingBlock: QUQFOY_clean_sbu_3, # of connection points: 4
#     Node 7, Type 0, BuildingBlock: QUQFOY_clean_sbu_3, # of connection points: 4
#     Node 8, Type 0, BuildingBlock: QUQFOY_clean_sbu_3, # of connection points: 4
#     Node 9, Type 0, BuildingBlock: QUQFOY_clean_sbu_3, # of connection points: 4
#     Node 10, Type 0, BuildingBlock: QUQFOY_clean_sbu_3, # of connection points: 4
#     Node 11, Type 0, BuildingBlock: QUQFOY_clean_sbu_3, # of connection points: 4
#     Node 12, Type 0, BuildingBlock: QUQFOY_clean_sbu_3, # of connection points: 4
#     Node 13, Type 0, BuildingBlock: QUQFOY_clean_sbu_3, # of connection points: 4
#     Node 14, Type 0, BuildingBlock: QUQFOY_clean_sbu_3, # of connection points: 4
#     Node 15, Type 0, BuildingBlock: QUQFOY_clean_sbu_3, # of connection points: 4
#     Node 16, Type 0, BuildingBlock: QUQFOY_clean_sbu_3, # of connection points: 4
#     Node 17, Type 0, BuildingBlock: QUQFOY_clean_sbu_3, # of connection points: 4
#     Node 18, Type 0, BuildingBlock: QUQFOY_clean_sbu_3, # of connection points: 4
#     Node 19, Type 0, BuildingBlock: QUQFOY_clean_sbu_3, # of connection points: 4
#     Node 20, Type 0, BuildingBlock: QUQFOY_clean_sbu_3, # of connection points: 4
#     Node 21, Type 0, BuildingBlock: QUQFOY_clean_sbu_3, # of connection points: 4
#     Node 22, Type 0, BuildingBlock: QUQFOY_clean_sbu_3, # of connection points: 4
#     Node 23, Type 0, BuildingBlock: QUQFOY_clean_sbu_3, # of connection points: 4
#     Node 24, Type 1, BuildingBlock: HISSIN_clean_sbu_0, # of connection points: 6
#     Node 25, Type 1, BuildingBlock: HISSIN_clean_sbu_0, # of connection points: 6
#     Node 26, Type 1, BuildingBlock: HISSIN_clean_sbu_0, # of connection points: 6
#     Node 27, Type 1, BuildingBlock: HISSIN_clean_sbu_0, # of connection points: 6
#     Node 28, Type 1, BuildingBlock: HISSIN_clean_sbu_0, # of connection points: 6
#     Node 29, Type 1, BuildingBlock: HISSIN_clean_sbu_0, # of connection points: 6
#     Node 30, Type 1, BuildingBlock: HISSIN_clean_sbu_0, # of connection points: 6
#     Node 31, Type 1, BuildingBlock: HISSIN_clean_sbu_0, # of connection points: 6
#     Node 32, Type 1, BuildingBlock: HISSIN_clean_sbu_0, # of connection points: 6
#     Node 33, Type 1, BuildingBlock: HISSIN_clean_sbu_0, # of connection points: 6
#     Node 34, Type 1, BuildingBlock: HISSIN_clean_sbu_0, # of connection points: 6
#     Node 35, Type 1, BuildingBlock: HISSIN_clean_sbu_0, # of connection points: 6
#     Node 36, Type 1, BuildingBlock: HISSIN_clean_sbu_0, # of connection points: 6
#     Node 37, Type 1, BuildingBlock: HISSIN_clean_sbu_0, # of connection points: 6
#     Node 38, Type 1, BuildingBlock: HISSIN_clean_sbu_0, # of connection points: 6
#     Node 39, Type 1, BuildingBlock: HISSIN_clean_sbu_0, # of connection points: 6
#     Edge 40, Type (0, 1), BuildingBlock: KIFKEQ_clean_linker_1, # of connection points: 2
#     Edge 41, Type (0, 1), BuildingBlock: KIFKEQ_clean_linker_1, # of connection points: 2
#     Edge 42, Type (0, 1), BuildingBlock: KIFKEQ_clean_linker_1, # of connection points: 2
#     Edge 43, Type (0, 1), BuildingBlock: KIFKEQ_clean_linker_1, # of connection points: 2
#     Edge 44, Type (0, 1), BuildingBlock: KIFKEQ_clean_linker_1, # of connection points: 2
#     Edge 45, Type (0, 1), BuildingBlock: KIFKEQ_clean_linker_1, # of connection points: 2
#     Edge 46, Type (0, 1), BuildingBlock: KIFKEQ_clean_linker_1, # of connection points: 2
#     Edge 47, Type (0, 1), BuildingBlock: KIFKEQ_clean_linker_1, # of connection points: 2
#     Edge 48, Type (0, 1), BuildingBlock: KIFKEQ_clean_linker_1, # of connection points: 2
#     Edge 49, Type (0, 1), BuildingBlock: KIFKEQ_clean_linker_1, # of connection points: 2
#     Edge 50, Type (0, 1), BuildingBlock: KIFKEQ_clean_linker_1, # of connection points: 2
#     Edge 51, Type (0, 1), BuildingBlock: KIFKEQ_clean_linker_1, # of connection points: 2
#     Edge 52, Type (0, 1), BuildingBlock: KIFKEQ_clean_linker_1, # of connection points: 2
#     Edge 53, Type (0, 1), BuildingBlock: KIFKEQ_clean_linker_1, # of connection points: 2
#     Edge 54, Type (0, 1), BuildingBlock: KIFKEQ_clean_linker_1, # of connection points: 2
#     Edge 55, Type (0, 1), BuildingBlock: KIFKEQ_clean_linker_1, # of connection points: 2
#     Edge 56, Type (0, 1), BuildingBlock: KIFKEQ_clean_linker_1, # of connection points: 2
#     Edge 57, Type (0, 1), BuildingBlock: KIFKEQ_clean_linker_1, # of connection points: 2
#     Edge 58, Type (0, 1), BuildingBlock: KIFKEQ_clean_linker_1, # of connection points: 2
#     Edge 59, Type (0, 1), BuildingBlock: KIFKEQ_clean_linker_1, # of connection points: 2
#     Edge 60, Type (0, 1), BuildingBlock: KIFKEQ_clean_linker_1, # of connection points: 2
#     Edge 61, Type (0, 1), BuildingBlock: KIFKEQ_clean_linker_1, # of connection points: 2
#     Edge 62, Type (0, 1), BuildingBlock: KIFKEQ_clean_linker_1, # of connection points: 2
#     Edge 63, Type (0, 1), BuildingBlock: KIFKEQ_clean_linker_1, # of connection points: 2
#     Edge 64, Type (0, 1), BuildingBlock: KIFKEQ_clean_linker_1, # of connection points: 2
#     Edge 65, Type (0, 1), BuildingBlock: KIFKEQ_clean_linker_1, # of connection points: 2
#     Edge 66, Type (0, 1), BuildingBlock: KIFKEQ_clean_linker_1, # of connection points: 2
#     Edge 67, Type (0, 1), BuildingBlock: KIFKEQ_clean_linker_1, # of connection points: 2
#     Edge 68, Type (0, 1), BuildingBlock: KIFKEQ_clean_linker_1, # of connection points: 2
#     Edge 69, Type (0, 1), BuildingBlock: KIFKEQ_clean_linker_1, # of connection points: 2
#     Edge 70, Type (0, 1), BuildingBlock: KIFKEQ_clean_linker_1, # of connection points: 2
#     Edge 71, Type (0, 1), BuildingBlock: KIFKEQ_clean_linker_1, # of connection points: 2
#     Edge 72, Type (0, 1), BuildingBlock: KIFKEQ_clean_linker_1, # of connection points: 2
#     Edge 73, Type (0, 1), BuildingBlock: KIFKEQ_clean_linker_1, # of connection points: 2
#     Edge 74, Type (0, 1), BuildingBlock: KIFKEQ_clean_linker_1, # of connection points: 2
#     Edge 75, Type (0, 1), BuildingBlock: KIFKEQ_clean_linker_1, # of connection points: 2
#     Edge 76, Type (0, 1), BuildingBlock: KIFKEQ_clean_linker_1, # of connection points: 2
#     Edge 77, Type (0, 1), BuildingBlock: KIFKEQ_clean_linker_1, # of connection points: 2
#     Edge 78, Type (0, 1), BuildingBlock: KIFKEQ_clean_linker_1, # of connection points: 2
#     Edge 79, Type (0, 1), BuildingBlock: KIFKEQ_clean_linker_1, # of connection points: 2
#     Edge 80, Type (0, 1), BuildingBlock: KIFKEQ_clean_linker_1, # of connection points: 2
#     Edge 81, Type (0, 1), BuildingBlock: KIFKEQ_clean_linker_1, # of connection points: 2
#     Edge 82, Type (0, 1), BuildingBlock: KIFKEQ_clean_linker_1, # of connection points: 2
#     Edge 83, Type (0, 1), BuildingBlock: KIFKEQ_clean_linker_1, # of connection points: 2
#     Edge 84, Type (0, 1), BuildingBlock: KIFKEQ_clean_linker_1, # of connection points: 2
#     Edge 85, Type (0, 1), BuildingBlock: KIFKEQ_clean_linker_1, # of connection points: 2
#     Edge 86, Type (0, 1), BuildingBlock: KIFKEQ_clean_linker_1, # of connection points: 2
#     Edge 87, Type (0, 1), BuildingBlock: KIFKEQ_clean_linker_1, # of connection points: 2
#     Edge 88, Type (0, 1), BuildingBlock: KIFKEQ_clean_linker_1, # of connection points: 2
#     Edge 89, Type (0, 1), BuildingBlock: KIFKEQ_clean_linker_1, # of connection points: 2
#     Edge 90, Type (0, 1), BuildingBlock: KIFKEQ_clean_linker_1, # of connection points: 2
#     Edge 91, Type (0, 1), BuildingBlock: KIFKEQ_clean_linker_1, # of connection points: 2
#     Edge 92, Type (0, 1), BuildingBlock: KIFKEQ_clean_linker_1, # of connection points: 2
#     Edge 93, Type (0, 1), BuildingBlock: KIFKEQ_clean_linker_1, # of connection points: 2
#     Edge 94, Type (0, 1), BuildingBlock: KIFKEQ_clean_linker_1, # of connection points: 2
#     Edge 95, Type (0, 1), BuildingBlock: KIFKEQ_clean_linker_1, # of connection points: 2
#     Edge 96, Type (0, 1), BuildingBlock: KIFKEQ_clean_linker_1, # of connection points: 2
#     Edge 97, Type (0, 1), BuildingBlock: KIFKEQ_clean_linker_1, # of connection points: 2
#     Edge 98, Type (0, 1), BuildingBlock: KIFKEQ_clean_linker_1, # of connection points: 2
#     Edge 99, Type (0, 1), BuildingBlock: KIFKEQ_clean_linker_1, # of connection points: 2
#     Edge 100, Type (0, 1), BuildingBlock: KIFKEQ_clean_linker_1, # of connection points: 2
#     Edge 101, Type (0, 1), BuildingBlock: KIFKEQ_clean_linker_1, # of connection points: 2
#     Edge 102, Type (0, 1), BuildingBlock: KIFKEQ_clean_linker_1, # of connection points: 2
#     Edge 103, Type (0, 1), BuildingBlock: KIFKEQ_clean_linker_1, # of connection points: 2
#     Edge 104, Type (0, 1), BuildingBlock: KIFKEQ_clean_linker_1, # of connection points: 2
#     Edge 105, Type (0, 1), BuildingBlock: KIFKEQ_clean_linker_1, # of connection points: 2
#     Edge 106, Type (0, 1), BuildingBlock: KIFKEQ_clean_linker_1, # of connection points: 2
#     Edge 107, Type (0, 1), BuildingBlock: KIFKEQ_clean_linker_1, # of connection points: 2
#     Edge 108, Type (0, 1), BuildingBlock: KIFKEQ_clean_linker_1, # of connection points: 2
#     Edge 109, Type (0, 1), BuildingBlock: KIFKEQ_clean_linker_1, # of connection points: 2
#     Edge 110, Type (0, 1), BuildingBlock: KIFKEQ_clean_linker_1, # of connection points: 2
#     Edge 111, Type (0, 1), BuildingBlock: KIFKEQ_clean_linker_1, # of connection points: 2
#     Edge 112, Type (0, 1), BuildingBlock: KIFKEQ_clean_linker_1, # of connection points: 2
#     Edge 113, Type (0, 1), BuildingBlock: KIFKEQ_clean_linker_1, # of connection points: 2
#     Edge 114, Type (0, 1), BuildingBlock: KIFKEQ_clean_linker_1, # of connection points: 2
#     Edge 115, Type (0, 1), BuildingBlock: KIFKEQ_clean_linker_1, # of connection points: 2
#     Edge 116, Type (0, 1), BuildingBlock: KIFKEQ_clean_linker_1, # of connection points: 2
#     Edge 117, Type (0, 1), BuildingBlock: KIFKEQ_clean_linker_1, # of connection points: 2
#     Edge 118, Type (0, 1), BuildingBlock: KIFKEQ_clean_linker_1, # of connection points: 2
#     Edge 119, Type (0, 1), BuildingBlock: KIFKEQ_clean_linker_1, # of connection points: 2
#     Edge 120, Type (0, 1), BuildingBlock: KIFKEQ_clean_linker_1, # of connection points: 2
#     Edge 121, Type (0, 1), BuildingBlock: KIFKEQ_clean_linker_1, # of connection points: 2
#     Edge 122, Type (0, 1), BuildingBlock: KIFKEQ_clean_linker_1, # of connection points: 2
#     Edge 123, Type (0, 1), BuildingBlock: KIFKEQ_clean_linker_1, # of connection points: 2
#     Edge 124, Type (0, 1), BuildingBlock: KIFKEQ_clean_linker_1, # of connection points: 2
#     Edge 125, Type (0, 1), BuildingBlock: KIFKEQ_clean_linker_1, # of connection points: 2
#     Edge 126, Type (0, 1), BuildingBlock: KIFKEQ_clean_linker_1, # of connection points: 2
#     Edge 127, Type (0, 1), BuildingBlock: KIFKEQ_clean_linker_1, # of connection points: 2
#     Edge 128, Type (0, 1), BuildingBlock: KIFKEQ_clean_linker_1, # of connection points: 2
#     Edge 129, Type (0, 1), BuildingBlock: KIFKEQ_clean_linker_1, # of connection points: 2
#     Edge 130, Type (0, 1), BuildingBlock: KIFKEQ_clean_linker_1, # of connection points: 2
#     Edge 131, Type (0, 1), BuildingBlock: KIFKEQ_clean_linker_1, # of connection points: 2
#     Edge 132, Type (0, 1), BuildingBlock: KIFKEQ_clean_linker_1, # of connection points: 2
#     Edge 133, Type (0, 1), BuildingBlock: KIFKEQ_clean_linker_1, # of connection points: 2
#     Edge 134, Type (0, 1), BuildingBlock: KIFKEQ_clean_linker_1, # of connection points: 2
#     Edge 135, Type (0, 1), BuildingBlock: KIFKEQ_clean_linker_1, # of connection points: 2
# Relax obj value: 0.173
# Max RMSD: 0.293
# Mean RMSD: 0.137
data_MOF--net-gar--node1-QUQFOY_clean_sbu_3--node2-HISSIN_clean_sbu_0--edge1-KIFKEQ_clean_linker_1
_symmetry_space_group_name_H-M    P1
_symmetry_Int_Tables_number       1
_symmetry_cell_setting            triclinic
loop_
_symmetry_equiv_pos_as_xyz
'x, y, z'
_cell_length_a     61.339631
_cell_length_b     61.886488
_cell_length_c     59.796573
_cell_angle_alpha  100.67314
_cell_angle_beta   93.147191
_cell_angle_gamma 100.84106
loop_
_atom_site_label
_atom_site_type_symbol
_atom_site_fract_x
_atom_site_fract_y
_atom_site_fract_z
_atom_type_partial_charge
C0 C 0.05856 0.29081 0.33987 0.0
O1 O 0.07313 0.30365 0.33142 0.0
Cd2 Cd 0.10897 0.32241 0.34824 0.0
O3 O 0.06199 0.28695 0.35992 0.0
Cd4 Cd 0.09286 0.29671 0.39135 0.0
C5 C 0.09268 0.35282 0.39641 0.0
O6 O 0.11603 0.29111 0.36245 0.0
O7 O 0.13511 0.30055 0.39493 0.0
O8 O 0.07643 0.26087 0.40076 0.0
C9 C 0.13482 0.29489 0.37339 0.0
O10 O 0.10203 0.35301 0.37792 0.0
C11 C 0.0795 0.26792 0.42227 0.0
O12 O 0.08719 0.33474 0.40382 0.0
O13 O 0.08913 0.28829 0.42934 0.0
C14 C 0.96422 0.74914 0.66757 0.0
O15 O 0.97796 0.74245 0.68003 0.0
Cd16 Cd 0.01716 0.74743 0.68022 0.0
O17 O 0.97062 0.75942 0.65163 0.0
Cd18 Cd 0.00666 0.77026 0.63461 0.0
C19 C 0.01819 0.71728 0.62621 0.0
O20 O 0.02579 0.78377 0.67183 0.0
O21 O 0.04705 0.78645 0.64486 0.0
O22 O 0.99672 0.80343 0.62305 0.0
C23 C 0.04517 0.7896 0.66615 0.0
O24 O 0.02148 0.71932 0.64776 0.0
C25 C 1.00108 0.7981 0.60245 0.0
O26 O 0.01219 0.73269 0.61734 0.0
O27 O 0.00678 0.77931 0.59665 0.0
C28 C 0.5667 0.79483 0.8409 0.0
O29 O 0.58348 0.80485 0.83271 0.0
Cd30 Cd 0.61813 0.82078 0.85397 0.0
O31 O 0.56794 0.79205 0.86155 0.0
Cd32 Cd 0.59652 0.7994 0.89496 0.0
C33 C 0.59979 0.85519 0.89804 0.0
O34 O 0.62408 0.79014 0.87105 0.0
O35 O 0.63791 0.80757 0.90464 0.0
O36 O 0.5793 0.76333 0.90344 0.0
C37 C 0.64107 0.79713 0.88514 0.0
O38 O 0.6102 0.85364 0.88013 0.0
C39 C 0.57951 0.77049 0.92479 0.0
O40 O 0.59261 0.83792 0.90624 0.0
O41 O 0.5877 0.79116 0.93231 0.0
C42 C 0.47077 0.25471 0.1699 0.0
O43 O 0.48644 0.25005 0.18172 0.0
Cd44 Cd 0.5245 0.25365 0.17548 0.0
O45 O 0.47418 0.26198 0.15146 0.0
Cd46 Cd 0.50664 0.26921 0.12825 0.0
C47 C 0.51625 0.21603 0.12424 0.0
O48 O 0.53188 0.28705 0.16101 0.0
O49 O 0.54777 0.27961 0.13035 0.0
O50 O 0.49588 0.30184 0.11667 0.0
C51 C 0.5498 0.28803 0.15153 0.0
O52 O 0.52406 0.22159 0.14513 0.0
C53 C 0.4979 0.29557 0.09556 0.0
O54 O 0.5078 0.22957 0.1144 0.0
O55 O 0.50242 0.27625 0.08944 0.0
C56 C 0.06399 0.7855 0.16775 0.0
O57 O 0.07971 0.78192 0.18043 0.0
Cd58 Cd 0.11827 0.78745 0.17447 0.0
O59 O 0.06778 0.79258 0.1493 0.0
Cd60 Cd 0.10028 0.80248 0.12725 0.0
C61 C 0.11238 0.7502 0.12343 0.0
O62 O 0.12273 0.822 0.16144 0.0
O63 O 0.14029 0.82121 0.13148 0.0
O64 O 0.0784 0.82593 0.11116 0.0
C65 C 0.14088 0.82728 0.15298 0.0
O66 O 0.11992 0.75507 0.14441 0.0
C67 C 0.08431 0.82104 0.0911 0.0
O68 O 0.10388 0.76406 0.11428 0.0
O69 O 0.09784 0.8078 0.08803 0.0
C70 C 0.48444 0.78551 0.3749 0.0
O71 O 0.50181 0.79376 0.36631 0.0
Cd72 Cd 0.53875 0.80384 0.38334 0.0
O73 O 0.48552 0.782 0.39529 0.0
Cd74 Cd 0.5169 0.78923 0.42613 0.0
C75 C 0.52878 0.8447 0.42562 0.0
O76 O 0.54139 0.77305 0.40134 0.0
O77 O 0.55839 0.79305 0.43258 0.0
O78 O 0.49959 0.75814 0.44356 0.0
C79 C 0.55934 0.77953 0.41412 0.0
O80 O 0.53984 0.84008 0.40858 0.0
C81 C 0.50397 0.76935 0.46392 0.0
O82 O 0.51764 0.82915 0.43401 0.0
O83 O 0.51322 0.78988 0.46636 0.0
C84 C 0.56249 0.27259 0.66664 0.0
O85 O 0.57773 0.26915 0.68007 0.0
Cd86 Cd 0.61715 0.27919 0.67886 0.0
O87 O 0.56722 0.28193 0.64969 0.0
Cd88 Cd 0.60061 0.29717 0.63132 0.0
C89 C 0.619 0.24715 0.62608 0.0
O90 O 0.6185 0.31427 0.66782 0.0
O91 O 0.63808 0.32298 0.6411 0.0
O92 O 0.57789 0.32042 0.61648 0.0
C93 C 0.63657 0.32447 0.66237 0.0
O94 O 0.62399 0.25047 0.64757 0.0
C95 C 0.58337 0.31616 0.59617 0.0
O96 O 0.61019 0.26102 0.61722 0.0
O97 O 0.59716 0.30326 0.59234 0.0
C98 C 0.97837 0.29585 0.85317 0.0
O99 O 0.98707 0.31401 0.84725 0.0
Cd100 Cd 0.0173 0.34221 0.86652 0.0
O101 O 0.98545 0.29091 0.87168 0.0
Cd102 Cd 0.01623 0.30775 0.90243 0.0
C103 C 0.99847 0.3566 0.91923 0.0
O104 O 0.04139 0.31878 0.8756 0.0
O105 O 0.05629 0.3265 0.91027 0.0
O106 O 0.01964 0.26971 0.90493 0.0
C107 C 0.0585 0.32688 0.88942 0.0
O108 O 1.00392 0.36202 0.90047 0.0
C109 C 0.02046 0.27316 0.9266 0.0
O110 O 1.00054 0.3377 0.9236 0.0
O111 O 0.0184 0.29245 0.93685 0.0
C112 C 0.46949 0.05632 0.33663 0.0
O113 O 0.47781 0.04235 0.32312 0.0
Cd114 Cd 0.46054 0.0188 0.28851 0.0
O115 O 0.44973 0.05916 0.33223 0.0
Cd116 Cd 0.41954 0.04439 0.3003 0.0
C117 C 0.41379 0.99093 0.30824 0.0
O118 O 0.44449 0.04424 0.27104 0.0
O119 O 0.4109 0.02768 0.25878 0.0
O120 O 0.40939 0.08103 0.30418 0.0
C121 C 0.43069 0.0342 0.25422 0.0
O122 O 0.43211 0.99009 0.29938 0.0
C123 C 0.38866 0.07356 0.30448 0.0
O124 O 0.40632 1.00898 0.31159 0.0
O125 O 0.38251 0.05263 0.30355 0.0
C126 C 0.31323 0.15511 0.50836 0.0
O127 O 0.29663 0.14259 0.51432 0.0
Cd128 Cd 0.26219 0.15258 0.52168 0.0
O129 O 0.31162 0.17407 0.50346 0.0
Cd130 Cd 0.28067 0.19577 0.49841 0.0
C131 C 0.28226 0.2056 0.55669 0.0
O132 O 0.25133 0.16244 0.48712 0.0
O133 O 0.23894 0.19237 0.49779 0.0
O134 O 0.29624 0.20015 0.4617 0.0
C135 C 0.23456 0.17139 0.48992 0.0
O136 O 0.27289 0.18491 0.55345 0.0
C137 C 0.2933 0.21996 0.46199 0.0
O138 O 0.28771 0.21476 0.53975 0.0
O139 O 0.2849 0.22901 0.47944 0.0
C140 C 0.14081 0.03318 0.82212 0.0
O141 O 0.13323 0.04553 0.81011 0.0
Cd142 Cd 0.14317 0.05102 0.77213 0.0
O143 O 0.15573 0.02221 0.81351 0.0
Cd144 Cd 0.17855 0.0183 0.77194 0.0
C145 C 0.19702 0.08144 0.77617 0.0
O146 O 0.1431 0.01744 0.74365 0.0
O147 O 0.17333 0.0191 0.72787 0.0
O148 O 0.18147 0.97424 0.76976 0.0
C149 C 0.15252 0.01872 0.72527 0.0
O150 O 0.17612 0.08072 0.77402 0.0
C151 C 0.20248 0.97513 0.77019 0.0
O152 O 0.20371 0.06275 0.77714 0.0
O153 O 0.21301 0.99532 0.77145 0.0
C154 C 0.32501 0.98812 0.9925 0.0
O155 O 0.31408 0.99754 0.97992 0.0
Cd156 Cd 0.2741 0.9824 0.9718 0.0
O157 O 0.31433 0.97297 1.00192 0.0
Cd158 Cd 0.27342 0.9546 1.003 0.0
C159 C 0.27264 0.92861 0.94735 0.0
O160 O 0.25073 0.98555 1.0043 0.0
O161 O 0.23242 0.95155 1.00003 0.0
O162 O 0.28528 0.95526 0.04322 0.0
C163 C 0.23197 0.97231 1.00388 0.0
O164 O 0.27045 0.94749 0.94299 0.0
C165 C 0.27842 0.93432 0.04188 0.0
O166 O 0.2746 0.92642 0.96805 0.0
O167 O 0.2686 0.92319 0.02285 0.0
C168 C 0.35944 0.42905 0.03478 0.0
O169 O 0.34659 0.43782 0.02348 0.0
Cd170 Cd 0.3072 0.42794 0.0165 0.0
O171 O 0.3517 0.41248 0.04403 0.0
Cd172 Cd 0.3132 0.38881 0.0457 0.0
C173 C 0.3047 0.37375 0.98666 0.0
O174 O 0.29432 0.4202 0.05112 0.0
O175 O 0.27232 0.38804 0.04205 0.0
O176 O 0.32398 0.38978 0.08639 0.0
C177 C 0.2745 0.40917 0.04764 0.0
O178 O 0.30122 0.39356 0.98787 0.0
C179 C 0.31615 0.36927 0.08632 0.0
O180 O 0.31116 0.36729 1.00466 0.0
O181 O 0.30789 0.35719 0.06702 0.0
C182 C 0.85079 0.09639 0.03728 0.0
O183 O 0.84051 0.08883 0.05295 0.0
Cd184 Cd 0.80307 0.09632 0.05926 0.0
O185 O 0.84161 0.10857 0.02612 0.0
Cd186 Cd 0.80523 0.12406 0.03091 0.0
C187 C 0.8067 0.14785 0.08775 0.0
O188 O 0.77347 0.08961 0.02779 0.0
O189 O 0.7656 0.12245 0.03592 0.0
O190 O 0.80115 0.12815 0.99053 0.0
C191 C 0.75849 0.10145 0.03021 0.0
O192 O 0.8011 0.12764 0.09014 0.0
C193 C 0.8055 0.14948 0.99505 0.0
O194 O 0.81185 0.15172 0.0683 0.0
O195 O 0.81028 0.15877 0.01594 0.0
C196 C 0.17223 0.58487 0.27159 0.0
O197 O 0.15976 0.58844 0.25554 0.0
Cd198 Cd 0.15997 0.57236 0.21601 0.0
O199 O 0.1861 0.57199 0.26734 0.0
Cd200 Cd 0.1994 0.54857 0.23471 0.0
C201 C 0.21466 0.59474 0.21133 0.0
O202 O 0.16221 0.53463 0.21793 0.0
O203 O 0.18656 0.52331 0.19684 0.0
O204 O 0.20739 0.52642 0.26272 0.0
C205 C 0.16615 0.52308 0.19947 0.0
O206 O 0.19419 0.59413 0.20567 0.0
C207 C 0.22625 0.52401 0.25603 0.0
O208 O 0.22036 0.58081 0.22256 0.0
O209 O 0.23231 0.5326 0.2391 0.0
C210 C 0.86037 0.93071 0.53901 0.0
O211 O 0.84753 0.93888 0.52701 0.0
Cd212 Cd 0.80886 0.92612 0.51637 0.0
O213 O 0.85284 0.91353 0.54748 0.0
Cd214 Cd 0.81441 0.88936 0.54837 0.0
C215 C 0.80844 0.87133 0.48989 0.0
O216 O 0.79557 0.92036 0.5514 0.0
O217 O 0.7732 0.8884 0.54293 0.0
O218 O 0.8208 0.8922 0.58987 0.0
C219 C 0.77568 0.9096 0.548 0.0
O220 O 0.80489 0.89078 0.48903 0.0
C221 C 0.81596 0.87137 0.58994 0.0
O222 O 0.8138 0.86616 0.50892 0.0
O223 O 0.81131 0.85832 0.57044 0.0
C224 C 0.96237 0.05742 0.31865 0.0
O225 O 0.97125 0.04583 0.30331 0.0
Cd226 Cd 0.95693 0.03546 0.26351 0.0
O227 O 0.9459 0.06614 0.3119 0.0
Cd228 Cd 0.92339 0.06627 0.26803 0.0
C229 C 0.90475 1.00381 0.26409 0.0
O230 O 0.95814 0.06599 0.24258 0.0
O231 O 0.92694 0.05596 0.22294 0.0
O232 O 0.92048 0.11075 0.27675 0.0
C233 C 0.94803 0.06045 0.22251 0.0
O234 O 0.9249 1.00395 0.2599 0.0
C235 C 0.89982 0.10978 0.27125 0.0
O236 O 0.89859 0.0231 0.2685 0.0
O237 O 0.88943 0.08936 0.26486 0.0
C238 C 0.35445 0.59904 0.53742 0.0
O239 O 0.34193 0.58771 0.54913 0.0
Cd240 Cd 0.30636 0.59763 0.55852 0.0
O241 O 0.34756 0.61489 0.52999 0.0
Cd242 Cd 0.3101 0.62853 0.53224 0.0
C243 C 0.31219 0.65022 0.58864 0.0
O244 O 0.27865 0.59394 0.52655 0.0
O245 O 0.27081 0.6258 0.54058 0.0
O246 O 0.30881 0.63288 0.49184 0.0
C247 C 0.2637 0.60522 0.53189 0.0
O248 O 0.30624 0.6297 0.59002 0.0
C249 C 0.30917 0.65382 0.49642 0.0
O250 O 0.31746 0.65505 0.5696 0.0
O251 O 0.31062 0.66289 0.51742 0.0
C252 C 0.46369 0.55628 0.81646 0.0
O253 O 0.47232 0.54427 0.80119 0.0
Cd254 Cd 0.45977 0.53305 0.76082 0.0
O255 O 0.4475 0.56537 0.80974 0.0
Cd256 Cd 0.4247 0.56571 0.76635 0.0
C257 C 0.4068 0.50265 0.76195 0.0
O258 O 0.45946 0.56409 0.74118 0.0
O259 O 0.42858 0.55852 0.72132 0.0
O260 O 0.42163 0.61014 0.77592 0.0
C261 C 0.4496 0.56048 0.72108 0.0
O262 O 0.42693 0.5027 0.75771 0.0
C263 C 0.40094 0.60915 0.7705 0.0
O264 O 0.40061 0.52195 0.76644 0.0
O265 O 0.39061 0.58873 0.76385 0.0
C266 C 0.65989 0.06293 0.75679 0.0
O267 O 0.64708 0.06436 0.73991 0.0
Cd268 Cd 0.65267 0.05297 0.70085 0.0
O269 O 0.67718 0.05442 0.75376 0.0
Cd270 Cd 0.69753 0.03745 0.7224 0.0
C271 C 0.70444 0.08746 0.70474 0.0
O272 O 0.66333 0.01807 0.70159 0.0
O273 O 0.69142 0.01456 0.68259 0.0
O274 O 0.70818 0.01668 0.7506 0.0
C275 C 0.67044 0.01001 0.68313 0.0
O276 O 0.68392 0.08286 0.6972 0.0
C277 C 0.72798 0.01736 0.74513 0.0
O278 O 0.71283 0.07411 0.71483 0.0
O279 O 0.73351 0.02697 0.72868 0.0
C280 C 0.81065 0.66311 0.01842 0.0
O281 O 0.79387 0.65073 0.02427 0.0
Cd282 Cd 0.7573 0.65719 0.02502 0.0
O283 O 0.80858 0.68048 0.01035 0.0
Cd284 Cd 0.77716 0.6999 1.00087 0.0
C285 C 0.77343 0.71111 0.05869 0.0
O286 O 0.74954 0.66546 0.98888 0.0
O287 O 0.73529 0.69466 0.99634 0.0
O288 O 0.7947 0.70387 0.9651 0.0
C289 C 0.73212 0.67355 0.98948 0.0
O290 O 0.76414 0.69042 0.05556 0.0
C291 C 0.7918 0.72361 0.96483 0.0
O292 O 0.78064 0.71973 0.04196 0.0
O293 O 0.78253 0.73275 0.98157 0.0
C294 C 0.95752 0.55606 0.84129 0.0
O295 O 0.96742 0.54697 0.82513 0.0
Cd296 Cd 0.95126 0.53003 0.78782 0.0
O297 O 0.93719 0.55774 0.83798 0.0
Cd298 Cd 0.90813 0.54824 0.80444 0.0
C299 C 0.90675 0.49315 0.80163 0.0
O300 O 0.93305 0.55738 0.77642 0.0
O301 O 0.90143 0.53695 0.76209 0.0
O302 O 0.89616 0.58385 0.81522 0.0
C303 C 0.92009 0.54809 0.75873 0.0
O304 O 0.92533 0.49641 0.79298 0.0
C305 C 0.87547 0.57528 0.81322 0.0
O306 O 0.8971 0.50938 0.80834 0.0
O307 O 0.87005 0.55401 0.8082 0.0
C308 C 0.83149 0.48894 0.49914 0.0
O309 O 0.82036 0.49622 0.48479 0.0
Cd310 Cd 0.78421 0.47225 0.48385 0.0
O311 O 0.82084 0.47451 0.50938 0.0
Cd312 Cd 0.77863 0.45623 0.50434 0.0
C313 C 0.77697 0.42972 0.44846 0.0
O314 O 0.75535 0.48804 0.50234 0.0
O315 O 0.73922 0.45709 0.51097 0.0
O316 O 0.79056 0.45413 0.54369 0.0
C317 C 0.73803 0.47681 0.50876 0.0
O318 O 0.77664 0.44947 0.44574 0.0
C319 C 0.78247 0.43326 0.54128 0.0
O320 O 0.77798 0.42635 0.4688 0.0
O321 O 0.772 0.42346 0.52208 0.0
C322 C 0.64142 0.52924 0.32089 0.0
O323 O 0.63183 0.53808 0.3067 0.0
Cd324 Cd 0.65789 0.53872 0.27709 0.0
O325 O 0.65901 0.5218 0.31418 0.0
Cd326 Cd 0.67905 0.51905 0.27083 0.0
C327 C 0.69709 0.58041 0.27652 0.0
O328 O 0.64281 0.5153 0.24043 0.0
O329 O 0.67406 0.5256 0.2282 0.0
O330 O 0.68183 0.47494 0.26769 0.0
C331 C 0.65301 0.52027 0.22347 0.0
O332 O 0.67596 0.57741 0.27529 0.0
C333 C 0.7028 0.47572 0.26775 0.0
O334 O 0.70535 0.56262 0.277 0.0
O335 O 0.71337 0.49586 0.26886 0.0
Eu336 Eu 0.05827 0.06581 0.03128 0.0
Eu337 Eu 0.02976 0.01641 0.01332 0.0
C338 C 0.0622 0.03925 0.97752 0.0
C339 C 0.07904 0.12682 0.03129 0.0
C340 C 0.07561 0.1235 0.00739 0.0
C341 C 0.07516 0.1655 0.03424 0.0
C342 C 0.07173 0.14098 0.99701 0.0
C343 C 0.07919 0.14801 0.04463 0.0
C344 C 0.07098 0.162 0.01035 0.0
C345 C 0.07957 0.10765 0.04237 0.0
O346 O 0.06506 0.0106 0.0195 0.0
O347 O 0.08381 0.04525 0.03856 0.0
C348 C 0.0836 0.02415 0.02953 0.0
O349 O 0.04644 0.05733 0.06543 0.0
O350 O 0.00936 0.9888 0.98816 0.0
O351 O 0.01583 0.98508 0.02321 0.0
O352 O 0.01813 0.02814 0.04954 0.0
C353 C 0.02775 0.04348 0.06771 0.0
O354 O 0.02241 0.07055 0.02583 0.0
O355 O 0.00522 0.03701 1.0034 0.0
O356 O 0.05071 0.02071 0.98264 0.0
O357 O 0.06108 0.10002 0.05045 0.0
O358 O 0.08809 0.0915 0.03142 0.0
O359 O 0.06369 0.05863 0.99221 0.0
C360 C 0.01247 0.95295 0.99509 0.0
C361 C 0.99878 0.93449 1.00095 0.0
C362 C 0.04009 0.93035 0.98498 0.0
C363 C 0.00616 0.91441 1.0 0.0
C364 C 0.03279 0.95059 0.98624 0.0
C365 C 0.0274 0.91242 0.99306 0.0
C366 C 0.00735 0.97517 1.00254 0.0
C367 C 1.00455 0.05745 0.01388 0.0
H368 H 0.07505 0.10717 0.99676 0.0
H369 H 0.07483 0.18161 0.04489 0.0
H370 H 0.06826 0.1377 0.9786 0.0
H371 H 0.08159 0.15077 0.0631 0.0
H372 H 0.98313 0.93614 0.00801 0.0
H373 H 0.0563 0.92928 0.97906 0.0
H374 H 0.99594 0.90123 0.00666 0.0
H375 H 0.04363 0.9648 0.98175 0.0
Eu376 Eu 0.31893 0.79921 0.24367 0.0
Eu377 Eu 0.29267 0.79201 0.29031 0.0
C378 C 0.26939 0.80782 0.24844 0.0
C379 C 0.33386 0.82389 0.19231 0.0
C380 C 0.32014 0.83941 0.19825 0.0
C381 C 0.33714 0.83505 0.1556 0.0
C382 C 0.31462 0.8524 0.18283 0.0
C383 C 0.34249 0.82192 0.171 0.0
C384 C 0.32287 0.85024 0.16119 0.0
C385 C 0.33794 0.80884 0.20773 0.0
O386 O 0.28251 0.7595 0.26473 0.0
O387 O 0.31016 0.76186 0.24003 0.0
C388 C 0.29341 0.75039 0.24838 0.0
O389 O 0.34457 0.79384 0.26941 0.0
O390 O 0.26487 0.77668 0.3073 0.0
O391 O 0.29226 0.80095 0.32733 0.0
O392 O 0.32192 0.77544 0.29244 0.0
C393 C 0.34149 0.78165 0.28525 0.0
O394 O 0.31533 0.83274 0.26328 0.0
O395 O 0.31817 0.82439 0.29864 0.0
O396 O 0.27172 0.80998 0.27079 0.0
O397 O 0.34577 0.81854 0.22867 0.0
O398 O 0.32186 0.79154 0.20699 0.0
O399 O 0.28293 0.79882 0.23509 0.0
C400 C 0.27633 0.77086 0.34388 0.0
C401 C 0.28169 0.74972 0.3366 0.0
C402 C 0.2781 0.76513 0.383 0.0
C403 C 0.2852 0.73637 0.35245 0.0
C404 C 0.27442 0.77837 0.36714 0.0
C405 C 0.28371 0.74405 0.37587 0.0
C406 C 0.2744 0.78591 0.32777 0.0
C407 C 0.32068 0.83904 0.2853 0.0
H408 H 0.31334 0.84115 0.21468 0.0
H409 H 0.34412 0.8332 0.13928 0.0
H410 H 0.30337 0.86366 0.18766 0.0
H411 H 0.35311 0.81002 0.16614 0.0
H412 H 0.2836 0.74373 0.31875 0.0
H413 H 0.27661 0.77141 0.40088 0.0
H414 H 0.2897 0.72032 0.34646 0.0
H415 H 0.27046 0.79469 0.3731 0.0
Eu416 Eu 0.58118 0.04582 0.50707 0.0
Eu417 Eu 0.53581 0.04967 0.53347 0.0
C418 C 0.57429 0.02849 0.55384 0.0
C419 C 0.63452 0.0269 0.49647 0.0
C420 C 0.63606 0.02348 0.51901 0.0
C421 C 0.66194 1.00377 0.4873 0.0
C422 C 0.65026 0.01015 0.52563 0.0
C423 C 0.6476 0.01705 0.48068 0.0
C424 C 0.66329 0.99999 0.50982 0.0
C425 C 0.61769 0.03882 0.48906 0.0
O426 O 0.55589 0.08443 0.53605 0.0
O427 O 0.59003 0.07504 0.53687 0.0
C428 C 0.57748 0.08996 0.54135 0.0
O429 O 0.56491 0.06814 0.48878 0.0
O430 O 0.51883 0.06563 0.56123 0.0
O431 O 0.50014 0.03862 0.53489 0.0
O432 O 0.52932 0.05699 0.49854 0.0
C433 C 0.54329 0.06714 0.48602 0.0
O434 O 0.55213 0.02054 0.48748 0.0
O435 O 0.5342 0.01319 0.51831 0.0
O436 O 0.56009 0.04174 0.55901 0.0
O437 O 0.59814 0.02617 0.4821 0.0
O438 O 0.61628 0.05752 0.50262 0.0
O439 O 0.58026 0.0239 0.53308 0.0
C440 C 0.4825 0.06834 0.54867 0.0
C441 C 0.48194 0.07804 0.52925 0.0
C442 C 0.45017 0.0833 0.56047 0.0
C443 C 0.46532 0.08989 0.5252 0.0
C444 C 0.46673 0.07131 0.56441 0.0
C445 C 0.44899 0.0924 0.5406 0.0
C446 C 0.4991 0.05465 0.55214 0.0
C447 C 0.53911 1.00663 0.49739 0.0
H448 H 0.62591 0.03075 0.53141 0.0
H449 H 0.67197 0.99646 0.47479 0.0
H450 H 0.6506 1.00739 0.54299 0.0
H451 H 0.64647 0.01934 0.46315 0.0
H452 H 0.4941 0.07604 0.51696 0.0
H453 H 0.43816 0.08526 0.57293 0.0
H454 H 0.46485 0.09642 0.50963 0.0
H455 H 0.46703 0.06411 0.57959 0.0
Eu456 Eu 0.28074 0.2981 0.76758 0.0
Eu457 Eu 0.32846 0.28564 0.77613 0.0
C458 C 0.28323 0.2462 0.77431 0.0
C459 C 0.22444 0.31386 0.77537 0.0
C460 C 0.22537 0.31075 0.79802 0.0
C461 C 0.1906 0.3281 0.78062 0.0
C462 C 0.20887 0.3162 0.81191 0.0
C463 C 0.2071 0.32265 0.76676 0.0
C464 C 0.19127 0.32483 0.80329 0.0
C465 C 0.24198 0.30885 0.76095 0.0
O466 O 0.31955 0.2732 0.73814 0.0
O467 O 0.29215 0.29246 0.73216 0.0
C468 C 0.30604 0.27984 0.72429 0.0
O469 O 0.30476 0.33266 0.7734 0.0
O470 O 0.3492 0.26053 0.77454 0.0
O471 O 0.36396 0.29545 0.78766 0.0
O472 O 0.33745 0.32112 0.76703 0.0
C473 C 0.32603 0.33751 0.76977 0.0
O474 O 0.28406 0.30056 0.80588 0.0
O475 O 0.32119 0.29998 0.81185 0.0
O476 O 0.30434 0.25412 0.78241 0.0
O477 O 0.26071 0.32335 0.76558 0.0
O478 O 0.24495 0.28827 0.75756 0.0
O479 O 0.272 0.25953 0.76558 0.0
C480 C 0.38544 0.27318 0.76605 0.0
C481 C 0.38462 0.2803 0.74513 0.0
C482 C 0.41941 0.26013 0.75738 0.0
C483 C 0.40122 0.27747 0.73043 0.0
C484 C 0.40284 0.26306 0.77209 0.0
C485 C 0.41876 0.26732 0.73641 0.0
C486 C 0.3676 0.27527 0.78105 0.0
C487 C 0.30213 0.30282 0.81969 0.0
H488 H 0.23881 0.30407 0.80489 0.0
H489 H 0.17735 0.33497 0.77363 0.0
H490 H 0.20965 0.31326 0.82921 0.0
H491 H 0.20638 0.32536 0.74937 0.0
H492 H 0.37106 0.28792 0.74013 0.0
H493 H 0.4329 0.25256 0.76257 0.0
H494 H 0.40021 0.28299 0.71431 0.0
H495 H 0.40357 0.25736 0.78815 0.0
Eu496 Eu 0.04584 0.06401 0.53786 0.0
Eu497 Eu 0.06187 0.01978 0.51221 0.0
C498 C 0.09188 0.06848 0.51281 0.0
C499 C 0.03202 0.12089 0.5453 0.0
C500 C 0.02533 0.11796 0.52192 0.0
C501 C 0.04108 0.16122 0.5477 0.0
C502 C 0.02678 0.13644 0.51146 0.0
C503 C 0.03952 0.14265 0.55822 0.0
C504 C 0.03513 0.15824 0.5241 0.0
C505 C 0.03388 0.1013 0.55539 0.0
O506 O 0.07256 0.02097 0.55046 0.0
O507 O 0.0668 0.05553 0.56752 0.0
C508 C 0.07447 0.03708 0.56895 0.0
O509 O 0.02249 0.036 0.54862 0.0
O510 O 0.08318 0.99495 0.51055 0.0
O511 O 0.05681 0.991 0.48383 0.0
O512 O 0.02692 1.0072 0.5204 0.0
C513 C 0.01605 0.01536 0.53714 0.0
O514 O 0.02794 0.05743 0.50111 0.0
O515 O 0.04847 0.034 0.48194 0.0
O516 O 0.09176 0.04709 0.5117 0.0
O517 O 0.01969 0.08271 0.54661 0.0
O518 O 0.05414 0.09801 0.55839 0.0
O519 O 0.07472 0.07723 0.51898 0.0
C520 C 0.06158 0.9585 0.49755 0.0
C521 C 0.03846 0.94985 0.4947 0.0
C522 C 0.06689 0.92666 0.51422 0.0
C523 C 0.02964 0.93009 0.50195 0.0
C524 C 0.07573 0.94641 0.50686 0.0
C525 C 0.04368 0.91855 0.51234 0.0
C526 C 0.07068 0.9812 0.4935 0.0
C527 C 0.0334 0.04682 0.48145 0.0
H528 H 0.01984 0.10131 0.51147 0.0
H529 H 0.04745 0.17785 0.5579 0.0
H530 H 0.02244 0.13351 0.49319 0.0
H531 H 0.04495 0.14522 0.57624 0.0
H532 H 0.02701 0.95873 0.48761 0.0
H533 H 0.0782 0.91835 0.52235 0.0
H534 H 0.01174 0.92412 0.49985 0.0
H535 H 0.09358 0.95277 0.50937 0.0
Eu536 Eu 0.32513 0.80746 0.76734 0.0
Eu537 Eu 0.27892 0.7776 0.77448 0.0
C538 C 0.30469 0.8138 0.81592 0.0
C539 C 0.38584 0.82442 0.76028 0.0
C540 C 0.3867 0.80177 0.75245 0.0
C541 C 0.42539 0.83277 0.77171 0.0
C542 C 0.40672 0.7945 0.75515 0.0
C543 C 0.40544 0.84003 0.7689 0.0
C544 C 0.42588 0.80983 0.76589 0.0
C545 C 0.36448 0.83073 0.76458 0.0
O546 O 0.26879 0.81188 0.77071 0.0
O547 O 0.30101 0.83151 0.76075 0.0
C548 C 0.27982 0.83066 0.76526 0.0
O549 O 0.31702 0.7833 0.73376 0.0
O550 O 0.25082 0.77307 0.79521 0.0
O551 O 0.25116 0.74894 0.76428 0.0
O552 O 0.2802 0.76911 0.73604 0.0
C553 C 0.29802 0.77038 0.72473 0.0
O554 O 0.33583 0.77426 0.77447 0.0
O555 O 0.302 0.7515 0.77552 0.0
O556 O 0.29498 0.79257 0.81033 0.0
O557 O 0.34887 0.82502 0.74754 0.0
O558 O 0.35721 0.82626 0.78367 0.0
O559 O 0.31452 0.82365 0.80062 0.0
C560 C 0.21787 0.76119 0.77132 0.0
C561 C 0.21743 0.77201 0.75271 0.0
C562 C 0.17928 0.76353 0.77575 0.0
C563 C 0.19812 0.77849 0.74563 0.0
C564 C 0.19873 0.75694 0.78283 0.0
C565 C 0.17888 0.77454 0.75717 0.0
C566 C 0.23908 0.75676 0.77987 0.0
C567 C 0.32403 0.75391 0.77524 0.0
H568 H 0.37158 0.78945 0.74604 0.0
H569 H 0.44008 0.84483 0.77998 0.0
H570 H 0.40677 0.77672 0.75073 0.0
H571 H 0.40496 0.8575 0.77523 0.0
H572 H 0.23218 0.77576 0.74382 0.0
H573 H 0.16473 0.76038 0.78505 0.0
H574 H 0.19826 0.78649 0.73097 0.0
H575 H 0.19897 0.74898 0.7975 0.0
Eu576 Eu 0.54382 0.01812 0.0242 0.0
Eu577 Eu 0.54112 0.04415 0.9822 0.0
C578 C 0.53415 0.06785 0.03244 0.0
C579 C 0.52885 0.99408 0.07548 0.0
C580 C 0.5138 1.00853 0.0793 0.0
C581 C 0.5149 0.97602 0.10595 0.0
C582 C 0.4996 1.007 0.09657 0.0
C583 C 0.52919 0.97763 0.08864 0.0
C584 C 0.50013 0.99086 0.11023 0.0
C585 C 0.5435 0.9958 0.05718 0.0
O586 O 0.57658 0.05641 0.99929 0.0
O587 O 0.57976 0.02655 0.01591 0.0
C588 C 0.58903 0.04469 0.00872 0.0
O589 O 0.53927 0.99255 0.99142 0.0
O590 O 0.54601 0.07555 0.96999 0.0
O591 O 0.53296 0.04408 0.94625 0.0
O592 O 0.55722 0.01499 0.96934 0.0
C593 C 0.55055 0.99503 0.97382 0.0
O594 O 0.50745 0.02052 0.0196 0.0
O595 O 0.50596 0.02372 0.98204 0.0
O596 O 0.52684 0.064 0.01083 0.0
O597 O 0.53381 0.98719 0.03672 0.0
O598 O 0.55621 0.01548 0.05828 0.0
O599 O 0.54527 0.0544 0.04058 0.0
C600 C 0.55787 0.07158 0.93329 0.0
C601 C 0.5795 0.0679 0.93725 0.0
C602 C 0.56812 0.08481 0.89895 0.0
C603 C 0.5953 0.07237 0.92196 0.0
C604 C 0.55232 0.08034 0.9143 0.0
C605 C 0.58966 0.08051 0.90244 0.0
C606 C 0.54102 0.06556 0.94862 0.0
C607 C 0.49581 0.01959 1.00016 0.0
H608 H 0.51323 0.0212 0.06907 0.0
H609 H 0.51554 0.96331 0.11608 0.0
H610 H 0.48875 0.01895 0.09967 0.0
H611 H 0.54053 0.96616 0.0856 0.0
H612 H 0.58402 0.06117 0.95194 0.0
H613 H 0.5632 0.09076 0.88388 0.0
H614 H 0.61181 0.06911 0.92518 0.0
H615 H 0.53565 0.08322 0.91106 0.0
Eu616 Eu 0.32325 0.32179 0.28998 0.0
Eu617 Eu 0.29507 0.27232 0.26334 0.0
C618 C 0.30632 0.3128 0.23619 0.0
C619 C 0.33192 0.38257 0.31232 0.0
C620 C 0.3095 0.37982 0.30421 0.0
C621 C 0.3348 0.42295 0.32085 0.0
C622 C 0.29981 0.39839 0.30426 0.0
C623 C 0.34454 0.40418 0.32081 0.0
C624 C 0.31233 0.4202 0.31243 0.0
C625 C 0.3418 0.3626 0.31058 0.0
O626 O 0.33082 0.26895 0.26849 0.0
O627 O 0.34746 0.30552 0.26989 0.0
C628 C 0.34779 0.28407 0.2652 0.0
O629 O 0.32842 0.29774 0.31347 0.0
O630 O 0.29219 0.24115 0.23828 0.0
O631 O 0.26516 0.24599 0.2592 0.0
O632 O 0.29559 0.27279 0.30119 0.0
C633 C 0.31219 0.28179 0.31696 0.0
O634 O 0.28821 0.3185 0.2995 0.0
O635 O 0.27045 0.29505 0.26704 0.0
O636 O 0.30424 0.29111 0.23524 0.0
O637 O 0.33203 0.34742 0.3212 0.0
O638 O 0.34543 0.35383 0.28992 0.0
O639 O 0.30832 0.32694 0.25601 0.0
C640 C 0.27526 0.2105 0.25337 0.0
C641 C 0.27459 0.20941 0.27661 0.0
C642 C 0.28707 0.17474 0.24627 0.0
C643 C 0.28077 0.19149 0.28469 0.0
C644 C 0.28074 0.19263 0.23814 0.0
C645 C 0.28798 0.17445 0.26978 0.0
C646 C 0.27399 0.23156 0.24574 0.0
C647 C 0.26994 0.30901 0.28628 0.0
H648 H 0.29958 0.36324 0.29732 0.0
H649 H 0.34484 0.43955 0.32728 0.0
H650 H 0.28267 0.39564 0.29712 0.0
H651 H 0.36192 0.40654 0.32703 0.0
H652 H 0.27052 0.22298 0.28882 0.0
H653 H 0.29271 0.16198 0.23435 0.0
H654 H 0.28094 0.19154 0.30283 0.0
H655 H 0.28152 0.19323 0.2202 0.0
Eu656 Eu 0.54582 0.5626 0.03567 0.0
Eu657 Eu 0.56214 0.51893 0.01064 0.0
C658 C 0.59122 0.56756 0.01081 0.0
C659 C 0.53198 0.61942 0.04331 0.0
C660 C 0.52674 0.61654 0.01966 0.0
C661 C 0.53917 0.65985 0.04624 0.0
C662 C 0.52794 0.63511 0.00934 0.0
C663 C 0.53788 0.64118 0.0566 0.0
C664 C 0.53457 0.65699 0.02243 0.0
C665 C 0.53394 0.59988 0.05346 0.0
O666 O 0.56848 0.51868 0.04938 0.0
O667 O 0.56979 0.55568 0.0639 0.0
C668 C 0.57403 0.53606 0.06673 0.0
O669 O 0.5223 0.53396 0.04585 0.0
O670 O 0.58317 0.49401 0.01074 0.0
O671 O 0.55918 0.49071 0.98195 0.0
O672 O 0.52626 0.507 0.01566 0.0
C673 C 0.51535 0.51402 0.03282 0.0
O674 O 0.52819 0.55611 0.99886 0.0
O675 O 0.54909 0.53288 0.98 0.0
O676 O 0.59208 0.5468 0.01208 0.0
O677 O 0.5197 0.58128 0.04482 0.0
O678 O 0.5542 0.59657 0.05625 0.0
O679 O 0.57305 0.57535 0.01468 0.0
C680 C 0.56215 0.45772 0.9956 0.0
C681 C 0.53897 0.44956 0.99184 0.0
C682 C 0.56593 0.42473 0.01095 0.0
C683 C 0.52935 0.42944 0.99797 0.0
C684 C 0.57557 0.44485 1.00472 0.0
C685 C 0.54264 0.41704 0.00814 0.0
C686 C 0.57201 0.48063 0.99266 0.0
C687 C 0.5339 0.54557 0.97931 0.0
H688 H 0.52253 0.59991 0.00897 0.0
H689 H 0.54419 0.67651 0.05678 0.0
H690 H 0.52469 0.63226 0.99093 0.0
H691 H 0.54221 0.64372 0.07484 0.0
H692 H 0.52809 0.45907 0.98488 0.0
H693 H 0.57668 0.41577 0.01896 0.0
H694 H 0.51142 0.42385 0.9952 0.0
H695 H 0.59345 0.45084 0.00793 0.0
Eu696 Eu 0.82403 0.30759 0.26504 0.0
Eu697 Eu 0.77816 0.27797 0.27291 0.0
C698 C 0.80349 0.31465 0.3134 0.0
C699 C 0.88392 0.3227 0.25691 0.0
C700 C 0.88311 0.29972 0.24881 0.0
C701 C 0.92292 0.32784 0.26953 0.0
C702 C 0.90191 0.29065 0.25218 0.0
C703 C 0.90416 0.3369 0.26614 0.0
C704 C 0.9215 0.30451 0.2638 0.0
C705 C 0.86325 0.3304 0.26142 0.0
O706 O 0.7685 0.31271 0.27002 0.0
O707 O 0.79982 0.33116 0.25741 0.0
C708 C 0.77907 0.33089 0.26313 0.0
O709 O 0.81579 0.28254 0.23202 0.0
O710 O 0.74992 0.27328 0.29342 0.0
O711 O 0.75077 0.24894 0.26283 0.0
O712 O 0.77866 0.27038 0.23432 0.0
C713 C 0.79641 0.27054 0.22295 0.0
O714 O 0.83503 0.27485 0.27312 0.0
O715 O 0.80126 0.25191 0.27377 0.0
O716 O 0.79507 0.2931 0.30843 0.0
O717 O 0.84737 0.32476 0.24464 0.0
O718 O 0.85615 0.32681 0.28088 0.0
O719 O 0.81245 0.3244 0.29761 0.0
C720 C 0.71723 0.26039 0.26916 0.0
C721 C 0.71765 0.27723 0.25635 0.0
C722 C 0.67689 0.25158 0.26318 0.0
C723 C 0.69797 0.28155 0.24737 0.0
C724 C 0.69679 0.24755 0.27265 0.0
C725 C 0.67745 0.26874 0.2506 0.0
C726 C 0.73847 0.25657 0.27827 0.0
C727 C 0.82331 0.25445 0.27381 0.0
H728 H 0.86747 0.28849 0.24187 0.0
H729 H 0.93804 0.33881 0.27832 0.0
H730 H 0.90048 0.27262 0.2477 0.0
H731 H 0.90495 0.3546 0.27266 0.0
H732 H 0.73327 0.28684 0.25292 0.0
H733 H 0.66114 0.24139 0.26563 0.0
H734 H 0.69884 0.29447 0.23725 0.0
H735 H 0.69625 0.23438 0.2824 0.0
Eu736 Eu 0.0504 0.52275 0.53376 0.0
Eu737 Eu 0.04703 0.54106 0.48632 0.0
C738 C 0.04567 0.57311 0.5342 0.0
C739 C 0.03394 0.50726 0.58847 0.0
C740 C 0.01507 0.51649 0.58531 0.0
C741 C 0.02319 0.50129 0.62556 0.0
C742 C 1.00053 0.51848 0.60233 0.0
C743 C 0.03779 0.49937 0.60849 0.0
C744 C 1.00462 0.51126 0.62282 0.0
C745 C 0.05008 0.50723 0.57136 0.0
O746 O 0.08422 0.5434 0.49408 0.0
O747 O 0.08526 0.54259 0.53241 0.0
C748 C 0.09544 0.5463 0.51422 0.0
O749 O 0.06481 0.5003 0.5073 0.0
O750 O 0.04274 0.56657 0.46658 0.0
O751 O 0.04622 0.53365 0.44921 0.0
O752 O 0.04065 0.50316 0.47854 0.0
C753 C 0.05462 0.49242 0.48686 0.0
O754 O 0.01382 0.51163 0.51968 0.0
O755 O 0.01174 0.53681 0.49637 0.0
O756 O 0.05407 0.57179 0.51441 0.0
O757 O 0.04274 0.49472 0.55132 0.0
O758 O 0.061 0.5271 0.56993 0.0
O759 O 0.03883 0.55524 0.54271 0.0
C760 C 0.06256 0.56416 0.43349 0.0
C761 C 0.06421 0.55231 0.4115 0.0
C762 C 0.09464 0.59244 0.42925 0.0
C763 C 0.0812 0.5601 0.39872 0.0
C764 C 0.07776 0.58445 0.44223 0.0
C765 C 0.09671 0.58005 0.40759 0.0
C766 C 0.04581 0.5542 0.44732 0.0
C767 C 1.002 0.52215 0.50788 0.0
H768 H 0.01195 0.52275 0.56992 0.0
H769 H 0.02661 0.49531 0.64103 0.0
H770 H 0.9866 0.52651 0.5998 0.0
H771 H 0.0523 0.49217 0.61111 0.0
H772 H 0.05264 0.53669 0.4044 0.0
H773 H 0.10643 0.6079 0.43634 0.0
H774 H 0.08229 0.55047 0.38188 0.0
H775 H 0.07691 0.5939 0.45921 0.0
Eu776 Eu 0.77536 0.80026 0.27175 0.0
Eu777 Eu 0.82373 0.78689 0.27683 0.0
C778 C 0.77855 0.74766 0.27672 0.0
C779 C 0.71784 0.80672 0.28643 0.0
C780 C 0.72085 0.81842 0.30928 0.0
C781 C 0.68181 0.7865 0.29363 0.0
C782 C 0.70457 0.81411 0.32415 0.0
C783 C 0.69805 0.79093 0.2787 0.0
C784 C 0.68496 0.79793 0.31658 0.0
C785 C 0.73573 0.8098 0.27108 0.0
O786 O 0.81313 0.77732 0.23894 0.0
O787 O 0.78431 0.79562 0.23537 0.0
C788 C 0.79853 0.78398 0.22628 0.0
O789 O 0.79906 0.83425 0.27212 0.0
O790 O 0.84437 0.76183 0.26986 0.0
O791 O 0.85923 0.79523 0.28848 0.0
O792 O 0.83289 0.8236 0.27106 0.0
C793 C 0.82089 0.8394 0.27107 0.0
O794 O 0.78194 0.80324 0.30982 0.0
O795 O 0.81798 0.79818 0.31368 0.0
O796 O 0.8002 0.75486 0.28265 0.0
O797 O 0.75384 0.82436 0.27962 0.0
O798 O 0.74006 0.79153 0.25902 0.0
O799 O 0.76665 0.76168 0.27029 0.0
C800 C 0.88157 0.77617 0.26358 0.0
C801 C 0.89802 0.79568 0.26513 0.0
C802 C 0.90108 0.75647 0.23461 0.0
C803 C 0.91583 0.79557 0.25156 0.0
C804 C 0.88332 0.75656 0.24821 0.0
C805 C 0.9176 0.77593 0.23623 0.0
C806 C 0.86284 0.77593 0.27812 0.0
C807 C 0.79999 0.80305 0.32256 0.0
H808 H 0.73592 0.83074 0.31584 0.0
H809 H 0.667 0.77375 0.28729 0.0
H810 H 0.70735 0.82352 0.34158 0.0
H811 H 0.69535 0.78164 0.26121 0.0
H812 H 0.89728 0.81101 0.27696 0.0
H813 H 0.90187 0.74114 0.22283 0.0
H814 H 0.9285 0.81072 0.2535 0.0
H815 H 0.87099 0.74121 0.24673 0.0
Eu816 Eu 0.81278 0.29133 0.74028 0.0
Eu817 Eu 0.79182 0.29099 0.7906 0.0
C818 C 0.77033 0.31269 0.75228 0.0
C819 C 0.82483 0.3106 0.68523 0.0
C820 C 0.81371 0.32825 0.69196 0.0
C821 C 0.82927 0.32183 0.64866 0.0
C822 C 0.81002 0.34235 0.67702 0.0
C823 C 0.83276 0.30758 0.66359 0.0
C824 C 0.81759 0.33925 0.65507 0.0
C825 C 0.82706 0.29475 0.70036 0.0
O826 O 0.78566 0.25531 0.77126 0.0
O827 O 0.78345 0.26245 0.73519 0.0
C828 C 0.77941 0.24869 0.74935 0.0
O829 O 0.8301 0.26792 0.75576 0.0
O830 O 0.76538 0.27855 0.81086 0.0
O831 O 0.79525 0.30165 0.82767 0.0
O832 O 0.82541 0.28172 0.7933 0.0
C833 C 0.83507 0.26975 0.7778 0.0
O834 O 0.83431 0.31867 0.76667 0.0
O835 O 0.80821 0.32689 0.79102 0.0
O836 O 0.76608 0.30064 0.76806 0.0
O837 O 0.83923 0.30306 0.71969 0.0
O838 O 0.80851 0.28171 0.70308 0.0
O839 O 0.78958 0.31539 0.74363 0.0
C840 C 0.77951 0.27299 0.84637 0.0
C841 C 0.79563 0.25957 0.84391 0.0
C842 C 0.76843 0.25811 0.87981 0.0
C843 C 0.79836 0.24574 0.85946 0.0
C844 C 0.76584 0.27207 0.86432 0.0
C845 C 0.78485 0.24485 0.8777 0.0
C846 C 0.77704 0.28795 0.83031 0.0
C847 C 0.82708 0.33279 0.78228 0.0
H848 H 0.80753 0.33088 0.70864 0.0
H849 H 0.8357 0.31916 0.63209 0.0
H850 H 0.8007 0.3553 0.6825 0.0
H851 H 0.84142 0.29406 0.65814 0.0
H852 H 0.80625 0.25995 0.83005 0.0
H853 H 0.75744 0.2576 0.89335 0.0
H854 H 0.81136 0.23607 0.85739 0.0
H855 H 0.75319 0.28218 0.86639 0.0
Eu856 Eu 0.82454 0.8224 0.7916 0.0
Eu857 Eu 0.79153 0.77443 0.76642 0.0
C858 C 0.80302 0.81481 0.73926 0.0
C859 C 0.83701 0.88324 0.81129 0.0
C860 C 0.81415 0.88094 0.80538 0.0
C861 C 0.84163 0.92362 0.81473 0.0
C862 C 0.80509 0.89965 0.80401 0.0
C863 C 0.85076 0.90468 0.8161 0.0
C864 C 0.81867 0.92123 0.80852 0.0
C865 C 0.84602 0.86277 0.81031 0.0
O866 O 0.82658 0.7682 0.76724 0.0
O867 O 0.84568 0.80409 0.76902 0.0
C868 C 0.84399 0.78235 0.76313 0.0
O869 O 0.82951 0.79785 0.81455 0.0
O870 O 0.78493 0.74266 0.74168 0.0
O871 O 0.7603 0.75029 0.76477 0.0
O872 O 0.79512 0.77498 0.80424 0.0
C873 C 0.81276 0.78294 0.81896 0.0
O874 O 0.79099 0.82139 0.80459 0.0
O875 O 0.7693 0.79946 0.77349 0.0
O876 O 0.7987 0.79294 0.73774 0.0
O877 O 0.83607 0.84863 0.82199 0.0
O878 O 0.84864 0.85277 0.78976 0.0
O879 O 0.80784 0.82877 0.75921 0.0
C880 C 0.76737 0.71341 0.75865 0.0
C881 C 0.76443 0.7119 0.78152 0.0
C882 C 0.77902 0.67751 0.75283 0.0
C883 C 0.76941 0.69372 0.79012 0.0
C884 C 0.77388 0.69563 0.74419 0.0
C885 C 0.77763 0.67678 0.77611 0.0
C886 C 0.7671 0.73464 0.75079 0.0
C887 C 0.77142 0.81344 0.79322 0.0
H888 H 0.80331 0.8645 0.80114 0.0
H889 H 0.85252 0.94004 0.81829 0.0
H890 H 0.7875 0.89703 0.79855 0.0
H891 H 0.86851 0.90671 0.82044 0.0
H892 H 0.7594 0.72529 0.79317 0.0
H893 H 0.78547 0.66486 0.74158 0.0
H894 H 0.76774 0.69345 0.80801 0.0
H895 H 0.77632 0.69642 0.72652 0.0
Eu896 Eu 0.55949 0.56784 0.52881 0.0
Eu897 Eu 0.53583 0.51584 0.51588 0.0
C898 C 0.56643 0.5387 0.47778 0.0
C899 C 0.56476 0.62984 0.54725 0.0
C900 C 0.54199 0.62739 0.54072 0.0
C901 C 0.56705 0.66967 0.56105 0.0
C902 C 0.5321 0.64607 0.54312 0.0
C903 C 0.57707 0.65092 0.55818 0.0
C904 C 0.54468 0.66766 0.55253 0.0
C905 C 0.57574 0.61077 0.54081 0.0
O906 O 0.57193 0.51359 0.52194 0.0
O907 O 0.5883 0.55053 0.53594 0.0
C908 C 0.58972 0.52925 0.52976 0.0
O909 O 0.53835 0.56307 0.55946 0.0
O910 O 0.51645 0.48744 0.49057 0.0
O911 O 0.52485 0.48365 0.52515 0.0
O912 O 0.53069 0.52491 0.5547 0.0
C913 C 0.5299 0.54482 0.5672 0.0
O914 O 0.52472 0.56867 0.51351 0.0
O915 O 0.50706 0.53395 0.51748 0.0
O916 O 0.55023 0.52256 0.48165 0.0
O917 O 0.57533 0.59706 0.55503 0.0
O918 O 0.57085 0.60015 0.51961 0.0
O919 O 0.57332 0.55686 0.49403 0.0
C920 C 0.52267 0.45205 0.49641 0.0
C921 C 0.54492 0.45007 0.50002 0.0
C922 C 0.51135 0.41151 0.48798 0.0
C923 C 0.55014 0.42898 0.49925 0.0
C924 C 0.5061 0.43269 0.48915 0.0
C925 C 0.53317 0.40951 0.49461 0.0
C926 C 0.51622 0.47357 0.5046 0.0
C927 C 0.50629 0.5544 0.51499 0.0
H928 H 0.53211 0.61119 0.53251 0.0
H929 H 0.57714 0.68587 0.56901 0.0
H930 H 0.51498 0.64359 0.53606 0.0
H931 H 0.59461 0.65303 0.56366 0.0
H932 H 0.55796 0.46491 0.50553 0.0
H933 H 0.49799 0.39684 0.48364 0.0
H934 H 0.56712 0.42829 0.5045 0.0
H935 H 0.48885 0.43395 0.48611 0.0
Eu936 Eu 0.07123 0.54165 0.01942 0.0
Eu937 Eu 0.02632 0.55038 0.04554 0.0
C938 C 0.06476 0.53063 0.06883 0.0
C939 C 0.12296 0.51916 1.00472 0.0
C940 C 0.12128 0.50773 0.02294 0.0
C941 C 0.15489 0.50304 0.99378 0.0
C942 C 0.1365 0.49431 0.02679 0.0
C943 C 0.13968 0.51654 0.99001 0.0
C944 C 0.15368 0.49199 0.01241 0.0
C945 C 0.10795 0.53456 1.00173 0.0
O946 O 0.04587 0.5834 0.0408 0.0
O947 O 0.07986 0.57443 0.0448 0.0
C948 C 0.06736 0.5895 0.0463 0.0
O949 O 0.05296 0.55922 0.99691 0.0
O950 O 0.01239 0.5708 0.07271 0.0
O951 O 0.99062 0.54363 0.04895 0.0
O952 O 0.01793 0.5491 0.00826 0.0
C953 C 0.03116 0.55669 0.9937 0.0
O954 O 0.0453 0.50997 0.00808 0.0
O955 O 0.02091 0.51285 0.03611 0.0
O956 O 0.05114 0.54477 0.07218 0.0
O957 O 0.08809 0.52541 0.99167 0.0
O958 O 0.10735 0.54994 0.01967 0.0
O959 O 0.07067 0.52354 0.0485 0.0
C960 C 0.97701 0.57641 0.06095 0.0
C961 C 0.98031 0.58855 0.04336 0.0
C962 C 0.94433 0.592 0.06957 0.0
C963 C 0.96559 0.60227 0.0388 0.0
C964 C 0.95904 0.5783 0.07409 0.0
C965 C 0.94734 0.60408 0.0518 0.0
C966 C 0.99184 0.56124 0.06513 0.0
C967 C 0.02873 0.50127 0.01882 0.0
H968 H 0.10849 0.50959 0.03451 0.0
H969 H 0.16767 0.50135 0.98215 0.0
H970 H 0.1352 0.48633 0.04146 0.0
H971 H 0.14117 0.52519 0.97582 0.0
H972 H 0.99415 0.58724 0.03302 0.0
H973 H 0.93024 0.59266 0.07965 0.0
H974 H 0.96849 0.61145 0.02512 0.0
H975 H 0.9562 0.56893 0.08764 0.0
H976 H 0.02579 0.2307 0.90922 0.0
H977 H 0.02676 0.27745 0.97285 0.0
H978 H 0.03772 0.2041 0.93021 0.0
H979 H 0.03918 0.25106 0.99379 0.0
H980 H 0.0411 0.18814 0.02403 0.0
H981 H 0.02744 0.21463 1.00406 0.0
H982 H 0.07181 0.2017 0.95169 0.0
H983 H 0.08531 0.17508 0.9716 0.0
C984 C 0.02841 0.23523 0.92769 0.0
C985 C 0.02542 0.25618 0.93939 0.0
C986 C 0.03543 0.22009 0.9397 0.0
C987 C 0.03966 0.22561 0.96362 0.0
C988 C 0.03594 0.24627 0.97537 0.0
C989 C 0.02887 0.2614 0.96336 0.0
C990 C 0.04817 0.19124 0.00844 0.0
C991 C 0.06425 0.17956 0.99934 0.0
C992 C 0.0403 0.20635 0.99697 0.0
C993 C 0.0484 0.21008 0.9762 0.0
C994 C 0.0649 0.1988 0.96741 0.0
C995 C 0.07272 0.18367 0.97885 0.0
H996 H 0.14734 0.84391 0.19878 0.0
H997 H 0.18186 0.82184 0.14044 0.0
H998 H 0.18016 0.84505 0.22425 0.0
H999 H 0.21412 0.82186 0.16569 0.0
H1000 H 0.27323 0.82858 0.21264 0.0
H1001 H 0.2443 0.84054 0.19156 0.0
H1002 H 0.19692 0.81791 0.23752 0.0
H1003 H 0.22661 0.80737 0.25956 0.0
C1004 C 0.16211 0.83967 0.1914 0.0
C1005 C 0.16202 0.83259 0.16767 0.0
C1006 C 0.18081 0.84008 0.20599 0.0
C1007 C 0.1997 0.83318 0.19713 0.0
C1008 C 0.20004 0.82755 0.17323 0.0
C1009 C 0.18147 0.82745 0.15865 0.0
C1010 C 0.2567 0.82651 0.21842 0.0
C1011 C 0.25199 0.81679 0.23748 0.0
C1012 C 0.24006 0.83324 0.20626 0.0
C1013 C 0.21812 0.8298 0.21249 0.0
C1014 C 0.21366 0.82103 0.23231 0.0
C1015 C 0.23056 0.81481 0.24487 0.0
H1016 H 0.50142 0.86038 0.45652 0.0
H1017 H 0.55534 0.88248 0.41719 0.0
H1018 H 0.50058 0.89929 0.47266 0.0
H1019 H 0.55504 0.92135 0.43393 0.0
H1020 H 0.53861 0.98921 0.4521 0.0
H1021 H 0.53374 0.94982 0.43393 0.0
H1022 H 0.52203 0.93091 0.49899 0.0
H1023 H 0.52611 0.97033 0.51696 0.0
C1024 C 0.51319 0.87354 0.45142 0.0
C1025 C 0.52848 0.86834 0.43558 0.0
C1026 C 0.51275 0.89586 0.46074 0.0
C1027 C 0.52769 0.91346 0.45457 0.0
C1028 C 0.54298 0.90822 0.43873 0.0
C1029 C 0.5433 0.88592 0.42926 0.0
C1030 C 0.53464 0.9766 0.46243 0.0
C1031 C 0.53288 0.98282 0.48596 0.0
C1032 C 0.53204 0.95404 0.45207 0.0
C1033 C 0.52788 0.93721 0.46507 0.0
C1034 C 0.52506 0.94341 0.48842 0.0
C1035 C 0.52743 0.96601 0.49875 0.0
H1036 H 0.5257 0.28295 0.64624 0.0
H1037 H 0.54632 0.25007 0.69925 0.0
H1038 H 0.48813 0.27821 0.65868 0.0
H1039 H 0.50913 0.24582 0.71186 0.0
H1040 H 0.43769 0.23074 0.72457 0.0
H1041 H 0.47004 0.22819 0.70294 0.0
H1042 H 0.47291 0.29596 0.69271 0.0
H1043 H 0.44052 0.29839 0.71412 0.0
C1044 C 0.52217 0.27445 0.66032 0.0
C1045 C 0.53908 0.26715 0.67195 0.0
C1046 C 0.50069 0.27185 0.6675 0.0
C1047 C 0.49572 0.26181 0.68635 0.0
C1048 C 0.51232 0.25342 0.69713 0.0
C1049 C 0.53374 0.25605 0.69001 0.0
C1050 C 0.44517 0.245 0.71753 0.0
C1051 C 0.43678 0.26486 0.72124 0.0
C1052 C 0.46364 0.24354 0.70513 0.0
C1053 C 0.47412 0.26193 0.69627 0.0
C1054 C 0.46504 0.28139 0.69905 0.0
C1055 C 0.44653 0.28282 0.71139 0.0
H1056 H 0.99584 0.84164 0.61196 0.0
H1057 H 0.00891 0.79067 0.5574 0.0
H1058 H 1.0035 0.86945 0.58797 0.0
H1059 H 0.01599 0.81837 0.53313 0.0
H1060 H 0.05922 0.87974 0.5122 0.0
H1061 H 0.04558 0.84964 0.53208 0.0
H1062 H 0.99229 0.88267 0.55475 0.0
H1063 H 0.0066 0.91333 0.53588 0.0
C1064 C 0.99984 0.83626 0.59465 0.0
C1065 C 1.00196 0.814 0.58666 0.0
C1066 C 1.00417 0.8522 0.58083 0.0
C1067 C 0.01061 0.84621 0.55867 0.0
C1068 C 0.01152 0.82365 0.55027 0.0
C1069 C 0.00728 0.80773 0.56412 0.0
C1070 C 0.04461 0.8806 0.52144 0.0
C1071 C 0.03412 0.89905 0.52252 0.0
C1072 C 0.03659 0.86317 0.53261 0.0
C1073 C 0.01783 0.86372 0.54507 0.0
C1074 C 0.00692 0.88182 0.54554 0.0
C1075 C 0.01499 0.89928 0.53445 0.0
H1076 H 0.52606 0.77652 0.85331 0.0
H1077 H 0.55842 0.79838 0.79656 0.0
H1078 H 0.4898 0.773 0.83254 0.0
H1079 H 0.52228 0.79525 0.77616 0.0
H1080 H 0.45219 0.78409 0.74224 0.0
H1081 H 0.48501 0.77251 0.75822 0.0
H1082 H 0.47412 0.80555 0.82577 0.0
H1083 H 0.44177 0.8169 0.80988 0.0
C1084 C 0.52548 0.78013 0.83625 0.0
C1085 C 0.54509 0.78829 0.82683 0.0
C1086 C 0.50473 0.7781 0.82439 0.0
C1087 C 0.50328 0.78421 0.80294 0.0
C1088 C 0.52289 0.79035 0.79263 0.0
C1089 C 0.54362 0.79236 0.80446 0.0
C1090 C 0.45687 0.7886 0.76049 0.0
C1091 C 0.44494 0.8017 0.77487 0.0
C1092 C 0.47549 0.78198 0.76961 0.0
C1093 C 0.48199 0.78803 0.79324 0.0
C1094 C 0.46932 0.8003 0.80758 0.0
C1095 C 0.45104 0.80711 0.79847 0.0
H1096 H 0.5247 0.18025 0.14141 0.0
H1097 H 0.51045 0.20098 0.07793 0.0
H1098 H 0.5275 0.14345 0.1203 0.0
H1099 H 0.51407 0.16444 0.05675 0.0
H1100 H 0.50205 0.0912 0.02511 0.0
H1101 H 0.49631 0.12603 0.04806 0.0
H1102 H 0.55132 0.12553 0.09627 0.0
H1103 H 0.55648 0.09006 0.07361 0.0
C1104 C 0.52226 0.17698 0.12292 0.0
C1105 C 0.51735 0.19354 0.11132 0.0
C1106 C 0.52399 0.1559 0.11082 0.0
C1107 C 0.52107 0.15096 0.08683 0.0
C1108 C 0.51605 0.16752 0.07524 0.0
C1109 C 0.51408 0.18853 0.08736 0.0
C1110 C 0.51284 0.09845 0.0407 0.0
C1111 C 0.52984 0.08802 0.0475 0.0
C1112 C 0.50963 0.11851 0.05378 0.0
C1113 C 0.52354 0.12878 0.07385 0.0
C1114 C 0.54017 0.11799 0.08101 0.0
C1115 C 0.54319 0.09771 0.06802 0.0
H1116 H 0.17907 0.30791 0.39044 0.0
H1117 H 0.13561 0.28748 0.32759 0.0
H1118 H 0.21139 0.31291 0.36807 0.0
H1119 H 0.16729 0.29326 0.30568 0.0
H1120 H 0.26183 0.33996 0.32188 0.0
H1121 H 0.22906 0.33705 0.34332 0.0
H1122 H 0.1979 0.2764 0.2953 0.0
H1123 H 0.23028 0.27964 0.27361 0.0
C1124 C 0.17644 0.30451 0.37196 0.0
C1125 C 0.15486 0.29725 0.36081 0.0
C1126 C 0.19484 0.30757 0.35916 0.0
C1127 C 0.19184 0.30348 0.33509 0.0
C1128 C 0.17023 0.29621 0.32412 0.0
C1129 C 0.15203 0.29301 0.33678 0.0
C1130 C 0.24774 0.32628 0.31566 0.0
C1131 C 0.24859 0.31001 0.29607 0.0
C1132 C 0.22914 0.32446 0.32811 0.0
C1133 C 0.21106 0.30632 0.32122 0.0
C1134 C 0.21149 0.29069 0.30099 0.0
C1135 C 0.23002 0.29259 0.28845 0.0
H1136 H 0.99377 0.07023 0.21578 0.0
H1137 H 0.93014 0.04526 0.17674 0.0
H1138 H 0.01243 0.0662 0.18041 0.0
H1139 H 0.94858 0.04135 0.14135 0.0
H1140 H 0.98677 0.02046 0.07829 0.0
H1141 H 0.96863 0.02432 0.11383 0.0
H1142 H 0.02442 0.07592 0.1464 0.0
H1143 H 0.04257 0.07182 0.11075 0.0
C1144 C 0.98354 0.06391 0.19971 0.0
C1145 C 0.96002 0.05818 0.19995 0.0
C1146 C 0.99442 0.06164 0.17896 0.0
C1147 C 0.98258 0.05329 0.15692 0.0
C1148 C 0.95901 0.04755 0.15728 0.0
C1149 C 0.94814 0.04997 0.17801 0.0
C1150 C 0.99541 0.03264 0.09295 0.0
C1151 C 0.01663 0.04563 0.09081 0.0
C1152 C 0.98471 0.03506 0.11377 0.0
C1153 C 0.99447 0.0506 0.13409 0.0
C1154 C 0.01582 0.06349 0.13193 0.0
C1155 C 0.02646 0.06117 0.11102 0.0
H1156 H 0.30464 0.69741 0.50193 0.0
H1157 H 0.30852 0.63995 0.45001 0.0
H1158 H 0.29899 0.71865 0.47253 0.0
H1159 H 0.30362 0.66152 0.42042 0.0
H1160 H 0.26917 0.69895 0.37359 0.0
H1161 H 0.27628 0.67703 0.40223 0.0
H1162 H 0.31693 0.73658 0.44497 0.0
H1163 H 0.30932 0.75845 0.41661 0.0
C1164 C 0.30457 0.68939 0.48421 0.0
C1165 C 0.30704 0.66697 0.47833 0.0
C1166 C 0.30145 0.70164 0.46729 0.0
C1167 C 0.30089 0.69189 0.444 0.0
C1168 C 0.30364 0.66951 0.43813 0.0
C1169 C 0.30662 0.65718 0.4551 0.0
C1170 C 0.27972 0.70728 0.38907 0.0
C1171 C 0.28852 0.73046 0.39293 0.0
C1172 C 0.28388 0.69471 0.40548 0.0
C1173 C 0.29711 0.705 0.42605 0.0
C1174 C 0.30627 0.72813 0.42961 0.0
C1175 C 0.30195 0.7407 0.41333 0.0
H1176 H 0.68066 1.00863 0.63891 0.0
H1177 H 0.62543 0.9971 0.67996 0.0
H1178 H 0.65465 1.0076 0.60621 0.0
H1179 H 0.59942 0.99569 0.6472 0.0
H1180 H 0.60201 0.99852 0.54833 0.0
H1181 H 0.62349 0.9873 0.57805 0.0
H1182 H 0.59254 0.02675 0.62962 0.0
H1183 H 0.57094 0.03792 0.59993 0.0
C1184 C 0.66294 1.00512 0.64073 0.0
C1185 C 0.65508 1.00336 0.66206 0.0
C1186 C 0.64801 1.00451 0.62199 0.0
C1187 C 0.62501 1.00203 0.62431 0.0
C1188 C 0.61708 0.99815 0.64508 0.0
C1189 C 0.63198 0.99881 0.66377 0.0
C1190 C 0.59958 1.00463 0.56601 0.0
C1191 C 0.58497 0.0194 0.57179 0.0
C1192 C 0.61193 0.99817 0.58301 0.0
C1193 C 0.6098 1.0062 0.60615 0.0
C1194 C 0.59435 0.02003 0.61191 0.0
C1195 C 0.58205 0.02656 0.5949 0.0
H1196 H 0.32388 0.33723 0.97093 0.0
H1197 H 0.27938 0.37742 0.94946 0.0
H1198 H 0.32209 0.31695 0.93117 0.0
H1199 H 0.27789 0.35773 0.91029 0.0
H1200 H 0.26587 0.31001 0.84293 0.0
H1201 H 0.26484 0.32312 0.88378 0.0
H1202 H 0.33526 0.32435 0.89475 0.0
H1203 H 0.33624 0.31076 0.85389 0.0
C1204 C 0.31348 0.34151 0.95786 0.0
C1205 C 0.30186 0.35904 0.96346 0.0
C1206 C 0.31261 0.33005 0.93503 0.0
C1207 C 0.29987 0.33568 0.91737 0.0
C1208 C 0.28764 0.35263 0.92329 0.0
C1209 C 0.28865 0.36409 0.94587 0.0
C1210 C 0.28114 0.31287 0.85401 0.0
C1211 C 0.30118 0.30947 0.84491 0.0
C1212 C 0.28056 0.3205 0.87752 0.0
C1213 C 0.30002 0.32503 0.8927 0.0
C1214 C 0.3199 0.32087 0.88372 0.0
C1215 C 0.32048 0.31322 0.86017 0.0
H1216 H 0.9447 0.0684 0.36224 0.0
H1217 H 1.00282 0.04957 0.33349 0.0
H1218 H 0.96063 0.06626 0.40049 0.0
H1219 H 0.01862 0.04786 0.37081 0.0
H1220 H 0.03919 0.02678 0.43678 0.0
H1221 H 0.02201 0.03013 0.40022 0.0
H1222 H 0.98467 0.07639 0.43514 0.0
H1223 H 1.00173 0.07252 0.47197 0.0
C1224 C 0.96095 0.06411 0.36383 0.0
C1225 C 0.97206 0.05918 0.34384 0.0
C1226 C 0.97029 0.06278 0.38612 0.0
C1227 C 0.99124 0.05638 0.38976 0.0
C1228 C 1.00236 0.05216 0.36974 0.0
C1229 C 0.99313 0.05343 0.34777 0.0
C1230 C 0.02737 0.03777 0.43693 0.0
C1231 C 0.02232 0.04933 0.45816 0.0
C1232 C 0.01738 0.03992 0.41548 0.0
C1233 C 1.0016 0.05387 0.4136 0.0
C1234 C 0.99639 0.06532 0.43493 0.0
C1235 C 0.00645 0.06315 0.45648 0.0
H1236 H 0.32374 0.69584 0.59172 0.0
H1237 H 0.29709 0.64608 0.63036 0.0
H1238 H 0.31866 0.72558 0.62281 0.0
H1239 H 0.29228 0.67585 0.66157 0.0
H1240 H 0.2665 0.73285 0.70477 0.0
H1241 H 0.26974 0.70432 0.67151 0.0
H1242 H 0.33317 0.74363 0.66156 0.0
H1243 H 0.32981 0.77216 0.69441 0.0
C1244 C 0.31701 0.69121 0.60693 0.0
C1245 C 0.31092 0.66847 0.60847 0.0
C1246 C 0.31409 0.70832 0.62481 0.0
C1247 C 0.30489 0.7032 0.64474 0.0
C1248 C 0.29904 0.68047 0.64637 0.0
C1249 C 0.30205 0.66336 0.62854 0.0
C1250 C 0.2809 0.73564 0.6952 0.0
C1251 C 0.29785 0.7549 0.70235 0.0
C1252 C 0.28292 0.71912 0.67628 0.0
C1253 C 0.30186 0.72148 0.66391 0.0
C1254 C 0.31829 0.74122 0.67049 0.0
C1255 C 0.31635 0.75763 0.68943 0.0
H1256 H 0.62536 0.08312 0.76929 0.0
H1257 H 0.68107 0.0597 0.79726 0.0
H1258 H 0.61303 0.09161 0.80718 0.0
H1259 H 0.66887 0.06872 0.83545 0.0
H1260 H 0.61557 0.05107 0.88604 0.0
H1261 H 0.63701 0.05128 0.85312 0.0
H1262 H 0.62065 0.11463 0.8455 0.0
H1263 H 0.59898 0.11436 0.87857 0.0
C1264 C 0.6352 0.08011 0.78358 0.0
C1265 C 0.65401 0.0704 0.7802 0.0
C1266 C 0.62824 0.08522 0.80537 0.0
C1267 C 0.63994 0.08077 0.8243 0.0
C1268 C 0.65938 0.07209 0.82112 0.0
C1269 C 0.66638 0.06697 0.79926 0.0
C1270 C 0.61704 0.06536 0.87775 0.0
C1271 C 0.60541 0.08259 0.88472 0.0
C1272 C 0.62939 0.0655 0.85888 0.0
C1273 C 0.63037 0.08288 0.8466 0.0
C1274 C 0.61988 0.10083 0.85443 0.0
C1275 C 0.60747 0.10067 0.8733 0.0
H1276 H 0.29496 0.32797 0.09295 0.0
H1277 H 0.33553 0.39077 0.12901 0.0
H1278 H 0.29173 0.31478 0.12885 0.0
H1279 H 0.333 0.37738 0.16481 0.0
H1280 H 0.30719 0.3559 0.22932 0.0
H1281 H 0.30938 0.36922 0.19333 0.0
H1282 H 0.31042 0.3021 0.15749 0.0
H1283 H 0.30746 0.28878 0.19311 0.0
C1284 C 0.30346 0.33887 0.10849 0.0
C1285 C 0.31555 0.36043 0.10797 0.0
C1286 C 0.30167 0.33127 0.12919 0.0
C1287 C 0.31204 0.34495 0.15003 0.0
C1288 C 0.32439 0.36643 0.14936 0.0
C1289 C 0.32605 0.37406 0.1287 0.0
C1290 C 0.30773 0.34397 0.21373 0.0
C1291 C 0.30702 0.32121 0.21427 0.0
C1292 C 0.30919 0.35164 0.19302 0.0
C1293 C 0.31012 0.33682 0.17223 0.0
C1294 C 0.30934 0.31406 0.17288 0.0
C1295 C 0.30775 0.3064 0.19349 0.0
H1296 H 0.22378 0.0156 0.01028 0.0
H1297 H 0.19116 0.94711 0.00834 0.0
H1298 H 0.1886 0.02778 0.01737 0.0
H1299 H 0.15639 0.95917 0.01618 0.0
H1300 H 0.09089 0.98316 0.00769 0.0
H1301 H 0.12612 0.97136 1.00176 0.0
H1302 H 0.16144 0.03459 0.04255 0.0
H1303 H 0.12606 0.04666 0.04782 0.0
C1304 C 0.20917 1.00311 0.01148 0.0
C1305 C 0.21053 0.98029 0.00857 0.0
C1306 C 0.18886 0.01013 0.01575 0.0
C1307 C 0.16917 0.99459 0.01738 0.0
C1308 C 0.17075 0.9718 0.01466 0.0
C1309 C 0.19094 0.96482 0.01028 0.0
C1310 C 0.1061 0.99452 0.01568 0.0
C1311 C 0.1053 0.01591 0.02841 0.0
C1312 C 0.12654 0.98769 0.0123 0.0
C1313 C 0.14712 1.00189 0.02157 0.0
C1314 C 0.14625 0.02314 0.0347 0.0
C1315 C 0.12577 0.03003 0.038 0.0
H1316 H 0.72043 0.62872 0.97185 0.0
H1317 H 0.69391 0.6845 0.00616 0.0
H1318 H 0.68578 0.60311 0.9746 0.0
H1319 H 0.65949 0.6588 0.00981 0.0
H1320 H 0.59356 0.60898 0.99991 0.0
H1321 H 0.6263 0.63444 0.99199 0.0
H1322 H 0.66691 0.58643 1.00216 0.0
H1323 H 0.63401 0.56068 0.00918 0.0
C1324 C 0.70711 0.63553 0.97989 0.0
C1325 C 0.70997 0.65865 0.98884 0.0
C1326 C 0.68728 0.62079 0.98169 0.0
C1327 C 0.6698 0.62871 0.99274 0.0
C1328 C 0.6724 0.65201 1.00098 0.0
C1329 C 0.6922 0.66681 0.99895 0.0
C1330 C 0.60946 0.60378 1.00031 0.0
C1331 C 0.61111 0.58273 1.00519 0.0
C1332 C 0.62832 0.6185 0.9959 0.0
C1333 C 0.64941 0.61265 0.99644 0.0
C1334 C 0.65096 0.59146 1.00114 0.0
C1335 C 0.63207 0.57667 0.00533 0.0
H1336 H 0.68373 0.42994 0.26634 0.0
H1337 H 0.74824 0.47161 0.26689 0.0
H1338 H 0.70078 0.39703 0.26487 0.0
H1339 H 0.76554 0.43883 0.26568 0.0
H1340 H 0.79574 0.3738 0.25305 0.0
H1341 H 0.77858 0.40658 0.25387 0.0
H1342 H 0.71856 0.37023 0.27448 0.0
H1343 H 0.7358 0.33748 0.27334 0.0
C1344 C 0.70167 0.43239 0.26619 0.0
C1345 C 0.71406 0.45445 0.26675 0.0
C1346 C 0.71179 0.413 0.26544 0.0
C1347 C 0.73526 0.41392 0.26512 0.0
C1348 C 0.74761 0.43611 0.26563 0.0
C1349 C 0.73746 0.45551 0.26645 0.0
C1350 C 0.7788 0.37249 0.25768 0.0
C1351 C 0.76766 0.35191 0.26295 0.0
C1352 C 0.76867 0.39188 0.25834 0.0
C1353 C 0.74647 0.39241 0.2643 0.0
C1354 C 0.73536 0.37168 0.2695 0.0
C1355 C 0.74553 0.35233 0.2689 0.0
H1356 H 0.86057 0.48029 0.53168 0.0
H1357 H 0.85924 0.51184 0.4732 0.0
H1358 H 0.90129 0.48891 0.53496 0.0
H1359 H 0.89967 0.51946 0.47562 0.0
H1360 H 0.97317 0.54692 0.49394 0.0
H1361 H 0.93287 0.54035 0.49369 0.0
H1362 H 0.93351 0.48008 0.52029 0.0
H1363 H 0.97413 0.48745 0.52159 0.0
C1364 C 0.86895 0.48911 0.51952 0.0
C1365 C 0.85646 0.49548 0.50227 0.0
C1366 C 0.89243 0.49388 0.52123 0.0
C1367 C 0.90423 0.50492 0.50554 0.0
C1368 C 0.89158 0.51138 0.48841 0.0
C1369 C 0.86818 0.50689 0.48691 0.0
C1370 C 0.96476 0.53224 0.49974 0.0
C1371 C 0.97708 0.51767 0.50764 0.0
C1372 C 0.94143 0.52833 0.49947 0.0
C1373 C 0.92944 0.50949 0.50675 0.0
C1374 C 0.94185 0.49496 0.5148 0.0
C1375 C 0.96529 0.49908 0.51538 0.0
H1376 H 0.39713 0.11892 0.30771 0.0
H1377 H 0.34324 0.06121 0.3001 0.0
H1378 H 0.37032 0.14243 0.30261 0.0
H1379 H 0.31634 0.08488 0.29523 0.0
H1380 H 0.28415 0.12948 0.25247 0.0
H1381 H 0.30707 0.10463 0.26448 0.0
H1382 H 0.33975 0.15798 0.32 0.0
H1383 H 0.31752 0.18298 0.30759 0.0
C1384 C 0.37954 0.11133 0.30532 0.0
C1385 C 0.3723 0.08821 0.30417 0.0
C1386 C 0.36416 0.12482 0.30253 0.0
C1387 C 0.34123 0.11546 0.29846 0.0
C1388 C 0.33393 0.09248 0.29811 0.0
C1389 C 0.34932 0.07899 0.30103 0.0
C1390 C 0.29608 0.13579 0.26736 0.0
C1391 C 0.29909 0.15821 0.27898 0.0
C1392 C 0.30905 0.12153 0.27437 0.0
C1393 C 0.32532 0.12945 0.29308 0.0
C1394 C 0.32752 0.1515 0.30537 0.0
C1395 C 0.31457 0.16573 0.2984 0.0
H1396 H 0.35583 0.18038 0.51872 0.0
H1397 H 0.31877 0.11221 0.49841 0.0
H1398 H 0.38989 0.16625 0.52572 0.0
H1399 H 0.35253 0.09818 0.5046 0.0
H1400 H 0.4053 0.07983 0.54804 0.0
H1401 H 0.37412 0.09637 0.53845 0.0
H1402 H 0.41806 0.14544 0.5102 0.0
H1403 H 0.44975 0.12948 0.52094 0.0
C1404 C 0.3551 0.16243 0.51518 0.0
C1405 C 0.33463 0.14739 0.50832 0.0
C1406 C 0.37457 0.15433 0.51922 0.0
C1407 C 0.37383 0.13106 0.51627 0.0
C1408 C 0.35359 0.11618 0.50778 0.0
C1409 C 0.33425 0.12422 0.50403 0.0
C1410 C 0.4085 0.09439 0.54016 0.0
C1411 C 0.43013 0.10329 0.53532 0.0
C1412 C 0.39049 0.10368 0.53429 0.0
C1413 C 0.39349 0.12204 0.52319 0.0
C1414 C 0.41516 0.13131 0.51873 0.0
C1415 C 0.43328 0.12201 0.52469 0.0
H1416 H 0.68154 0.61975 0.27915 0.0
H1417 H 0.74377 0.59734 0.27543 0.0
H1418 H 0.70052 0.65783 0.27967 0.0
H1419 H 0.76317 0.63601 0.27533 0.0
H1420 H 0.79672 0.71274 0.28959 0.0
H1421 H 0.77885 0.67388 0.28985 0.0
H1422 H 0.71647 0.68646 0.26376 0.0
H1423 H 0.73425 0.72521 0.26417 0.0
C1424 C 0.69942 0.62274 0.27831 0.0
C1425 C 0.71066 0.60455 0.27722 0.0
C1426 C 0.71056 0.64512 0.27839 0.0
C1427 C 0.73389 0.65114 0.27725 0.0
C1428 C 0.74534 0.63296 0.27638 0.0
C1429 C 0.73407 0.61034 0.27636 0.0
C1430 C 0.77913 0.70736 0.28398 0.0
C1431 C 0.76726 0.72297 0.277 0.0
C1432 C 0.76869 0.68459 0.28397 0.0
C1433 C 0.74567 0.67591 0.27698 0.0
C1434 C 0.73394 0.69164 0.26985 0.0
C1435 C 0.74436 0.71435 0.26991 0.0
H1436 H 0.86304 0.47742 0.80725 0.0
H1437 H 0.92611 0.45671 0.79942 0.0
H1438 H 0.84467 0.43859 0.80573 0.0
H1439 H 0.90798 0.4181 0.79884 0.0
H1440 H 0.86418 0.35107 0.76411 0.0
H1441 H 0.8838 0.38975 0.77194 0.0
H1442 H 0.83951 0.40633 0.82337 0.0
H1443 H 0.81917 0.36734 0.81489 0.0
C1444 C 0.87305 0.46463 0.80562 0.0
C1445 C 0.89596 0.47006 0.80311 0.0
C1446 C 0.86254 0.44238 0.8049 0.0
C1447 C 0.87479 0.42515 0.80191 0.0
C1448 C 0.89793 0.43085 0.80061 0.0
C1449 C 0.90836 0.45301 0.80102 0.0
C1450 C 0.85867 0.36283 0.77727 0.0
C1451 C 0.84003 0.35608 0.78883 0.0
C1452 C 0.87008 0.38509 0.78189 0.0
C1453 C 0.86333 0.40121 0.79836 0.0
C1454 C 0.845 0.39439 0.81039 0.0
C1455 C 0.83343 0.37203 0.80564 0.0
H1456 H 0.04602 0.83677 0.08766 0.0
H1457 H 0.10361 0.82616 0.05189 0.0
H1458 H 0.03274 0.85365 0.05704 0.0
H1459 H 0.09053 0.8437 0.0215 0.0
H1460 H 0.07086 0.91409 0.00794 0.0
H1461 H 0.0849 0.88709 0.02646 0.0
H1462 H 0.02093 0.84191 0.01089 0.0
H1463 H 0.00696 0.86831 0.99093 0.0
C1464 C 0.05575 0.83795 0.0732 0.0
C1465 C 0.07589 0.83034 0.07217 0.0
C1466 C 0.04805 0.84736 0.0556 0.0
C1467 C 0.06057 0.84971 0.03692 0.0
C1468 C 0.08056 0.84185 0.03569 0.0
C1469 C 0.08802 0.83193 0.05306 0.0
C1470 C 0.05998 0.89801 0.00735 0.0
C1471 C 0.03754 0.89366 0.9983 0.0
C1472 C 0.06808 0.88258 0.01814 0.0
C1473 C 0.05384 0.8627 0.02036 0.0
C1474 C 0.03209 0.85733 0.00956 0.0
C1475 C 0.02411 0.87253 0.9983 0.0
H1476 H 0.96566 0.2963 0.80914 0.0
H1477 H 0.94795 0.26162 0.86402 0.0
H1478 H 0.93051 0.27799 0.78767 0.0
H1479 H 0.91254 0.24259 0.84203 0.0
H1480 H 0.86647 0.25303 0.75263 0.0
H1481 H 0.90218 0.24721 0.76791 0.0
H1482 H 0.88161 0.26026 0.8363 0.0
H1483 H 0.84606 0.26531 0.82112 0.0
C1484 C 0.95443 0.28429 0.81639 0.0
C1485 C 0.95919 0.28098 0.83859 0.0
C1486 C 0.93434 0.27344 0.80386 0.0
C1487 C 0.91851 0.25904 0.81327 0.0
C1488 C 0.92428 0.25389 0.8345 0.0
C1489 C 0.94451 0.26479 0.84709 0.0
C1490 C 0.86934 0.2539 0.77084 0.0
C1491 C 0.85384 0.26047 0.78578 0.0
C1492 C 0.88978 0.25057 0.77959 0.0
C1493 C 0.89499 0.25391 0.80336 0.0
C1494 C 0.87828 0.25758 0.81792 0.0
C1495 C 0.85791 0.26082 0.8092 0.0
H1496 H 0.63071 0.21049 0.63943 0.0
H1497 H 0.61061 0.23469 0.5797 0.0
H1498 H 0.62495 0.17256 0.61655 0.0
H1499 H 0.60507 0.19684 0.55696 0.0
H1500 H 0.61917 0.10667 0.56384 0.0
H1501 H 0.6349 0.14579 0.58229 0.0
H1502 H 0.57422 0.16501 0.56063 0.0
H1503 H 0.55859 0.12634 0.54241 0.0
C1504 C 0.62566 0.20787 0.62132 0.0
C1505 C 0.62061 0.22553 0.6115 0.0
C1506 C 0.62246 0.18614 0.60822 0.0
C1507 C 0.61417 0.18176 0.58512 0.0
C1508 C 0.61108 0.19975 0.57486 0.0
C1509 C 0.6143 0.22142 0.5879 0.0
C1510 C 0.60932 0.11934 0.56291 0.0
C1511 C 0.58761 0.11346 0.55182 0.0
C1512 C 0.6183 0.14165 0.57346 0.0
C1513 C 0.60584 0.1584 0.57269 0.0
C1514 C 0.58436 0.15251 0.56116 0.0
C1515 C 0.57531 0.1303 0.55093 0.0
H1516 H 0.60091 0.80571 0.42822 0.0
H1517 H 0.5654 0.7494 0.37721 0.0
H1518 H 0.63323 0.80789 0.40584 0.0
H1519 H 0.5976 0.7515 0.35508 0.0
H1520 H 0.6397 0.78979 0.30767 0.0
H1521 H 0.61152 0.78195 0.3337 0.0
H1522 H 0.66301 0.7879 0.38799 0.0
H1523 H 0.69144 0.79523 0.36172 0.0
C1524 C 0.60026 0.7934 0.41262 0.0
C1525 C 0.58055 0.77764 0.40422 0.0
C1526 C 0.61873 0.79465 0.39982 0.0
C1527 C 0.61766 0.78016 0.37852 0.0
C1528 C 0.59865 0.76318 0.3712 0.0
C1529 C 0.58029 0.76192 0.38394 0.0
C1530 C 0.64508 0.78905 0.32501 0.0
C1531 C 0.66784 0.79306 0.33255 0.0
C1532 C 0.62893 0.78457 0.33994 0.0
C1533 C 0.63512 0.78412 0.3628 0.0
C1534 C 0.65782 0.78823 0.37047 0.0
C1535 C 0.67405 0.79253 0.35544 0.0
H1536 H 0.05692 0.22441 0.41185 0.0
H1537 H 0.08494 0.27815 0.46897 0.0
H1538 H 0.04463 0.19997 0.43824 0.0
H1539 H 0.07234 0.25372 0.49541 0.0
H1540 H 0.07203 0.19193 0.53022 0.0
H1541 H 0.08158 0.21997 0.50672 0.0
H1542 H 0.01783 0.19542 0.46694 0.0
H1543 H 0.00824 0.16738 0.4905 0.0
C1544 C 0.06037 0.23103 0.43004 0.0
C1545 C 0.07197 0.25317 0.43832 0.0
C1546 C 0.05316 0.21709 0.44517 0.0
C1547 C 0.05742 0.22496 0.46891 0.0
C1548 C 0.06896 0.24714 0.47721 0.0
C1549 C 0.07611 0.26113 0.46206 0.0
C1550 C 0.05982 0.19288 0.51683 0.0
C1551 C 0.03944 0.17735 0.51211 0.0
C1552 C 0.06532 0.20891 0.50333 0.0
C1553 C 0.05056 0.20971 0.48481 0.0
C1554 C 0.02972 0.19491 0.48081 0.0
C1555 C 0.02422 0.1789 0.49432 0.0
H1556 H 0.58666 0.27178 0.13898 0.0
H1557 H 0.55991 0.30874 0.196 0.0
H1558 H 0.61748 0.26815 0.16471 0.0
H1559 H 0.59085 0.30518 0.22166 0.0
H1560 H 0.66373 0.3083 0.25313 0.0
H1561 H 0.63381 0.31589 0.22877 0.0
H1562 H 0.61627 0.24551 0.19723 0.0
H1563 H 0.64617 0.23794 0.22161 0.0
C1564 C 0.58768 0.27962 0.15688 0.0
C1565 C 0.57084 0.29037 0.16559 0.0
C1566 C 0.60514 0.27731 0.1716 0.0
C1567 C 0.60616 0.28601 0.19513 0.0
C1568 C 0.5903 0.29825 0.20357 0.0
C1569 C 0.57268 0.30032 0.1889 0.0
C1570 C 0.65316 0.29445 0.24125 0.0
C1571 C 0.65708 0.27255 0.23916 0.0
C1572 C 0.63618 0.29879 0.22734 0.0
C1573 C 0.62312 0.28133 0.21095 0.0
C1574 C 0.62645 0.25928 0.20953 0.0
C1575 C 0.64325 0.2549 0.22364 0.0
H1576 H 0.60138 0.89313 0.88007 0.0
H1577 H 0.58688 0.86651 0.94072 0.0
H1578 H 0.5893 0.92751 0.89695 0.0
H1579 H 0.57559 0.90094 0.9578 0.0
H1580 H 0.53201 0.95118 0.97187 0.0
H1581 H 0.54476 0.91831 0.95274 0.0
H1582 H 0.59735 0.96102 0.92669 0.0
H1583 H 0.58399 0.99406 0.94533 0.0
C1584 C 0.59594 0.89475 0.89712 0.0
C1585 C 0.59484 0.877 0.90895 0.0
C1586 C 0.58906 0.91447 0.90681 0.0
C1587 C 0.5811 0.91684 0.92857 0.0
C1588 C 0.581 0.89944 0.94074 0.0
C1589 C 0.58764 0.87973 0.93101 0.0
C1590 C 0.54617 0.95357 0.9619 0.0
C1591 C 0.55708 0.9752 0.96021 0.0
C1592 C 0.55362 0.93473 0.95108 0.0
C1593 C 0.57237 0.93702 0.93853 0.0
C1594 C 0.58283 0.95864 0.93615 0.0
C1595 C 0.57519 0.97757 0.94683 0.0
H1596 H 0.94232 0.72016 0.69185 0.0
H1597 H 0.93481 0.77555 0.65943 0.0
H1598 H 0.91018 0.72525 0.71294 0.0
H1599 H 0.90246 0.78046 0.68044 0.0
H1600 H 0.88143 0.80717 0.75139 0.0
H1601 H 0.90588 0.79518 0.72326 0.0
H1602 H 0.86883 0.72698 0.71314 0.0
H1603 H 0.84387 0.739 0.74147 0.0
C1604 C 0.93335 0.73297 0.68869 0.0
C1605 C 0.94134 0.74781 0.6744 0.0
C1606 C 0.9149 0.73579 0.7007 0.0
C1607 C 0.90424 0.75357 0.69869 0.0
C1608 C 0.91074 0.76688 0.68257 0.0
C1609 C 0.92912 0.76395 0.67041 0.0
C1610 C 0.87845 0.78956 0.74335 0.0
C1611 C 0.86063 0.77405 0.74868 0.0
C1612 C 0.89232 0.78277 0.72697 0.0
C1613 C 0.88885 0.76028 0.71561 0.0
C1614 C 0.87165 0.74449 0.72151 0.0
C1615 C 0.85753 0.75134 0.73785 0.0
H1616 H 0.12074 0.06474 0.84721 0.0
H1617 H 0.13821 1.00164 0.85263 0.0
H1618 H 0.10309 0.06579 0.88256 0.0
H1619 H 0.12021 1.00268 0.88876 0.0
H1620 H 0.0684 1.00177 0.94552 0.0
H1621 H 0.08777 0.99969 0.91054 0.0
H1622 H 0.10356 0.0719 0.9222 0.0
H1623 H 0.08425 0.07387 0.95707 0.0
C1624 C 0.12111 0.05093 0.85592 0.0
C1625 C 0.13152 0.03314 0.84611 0.0
C1626 C 0.1108 0.05164 0.87681 0.0
C1627 C 0.10972 0.03444 0.88966 0.0
C1628 C 0.12015 0.01647 0.87999 0.0
C1629 C 0.13087 0.01591 0.85899 0.0
C1630 C 0.07586 0.01736 0.94073 0.0
C1631 C 0.07409 0.03806 0.95486 0.0
C1632 C 0.08736 0.01613 0.92035 0.0
C1633 C 0.09771 0.03554 0.91243 0.0
C1634 C 0.0959 0.05624 0.92666 0.0
C1635 C 0.08465 0.05745 0.94716 0.0
H1636 H 0.8113 0.44712 0.58009 0.0
H1637 H 0.76231 0.39048 0.5431 0.0
H1638 H 0.81997 0.42482 0.60775 0.0
H1639 H 0.77029 0.36844 0.57115 0.0
H1640 H 0.80687 0.32688 0.60872 0.0
H1641 H 0.79841 0.35015 0.58219 0.0
H1642 H 0.80717 0.40734 0.63805 0.0
H1643 H 0.81708 0.38437 0.6644 0.0
C1644 C 0.80212 0.43002 0.57809 0.0
C1645 C 0.78619 0.42054 0.55935 0.0
C1646 C 0.80704 0.41722 0.594 0.0
C1647 C 0.79599 0.3947 0.59164 0.0
C1648 C 0.77953 0.38552 0.57326 0.0
C1649 C 0.77478 0.39824 0.55726 0.0
C1650 C 0.80739 0.3445 0.61534 0.0
C1651 C 0.81272 0.35368 0.63877 0.0
C1652 C 0.80215 0.35781 0.60013 0.0
C1653 C 0.80189 0.38065 0.60793 0.0
C1654 C 0.80736 0.38989 0.63134 0.0
C1655 C 0.81278 0.3766 0.64654 0.0
H1656 H 0.45568 0.08181 0.37378 0.0
H1657 H 0.51303 0.05713 0.34878 0.0
H1658 H 0.47559 0.09451 0.41188 0.0
H1659 H 0.53239 0.06893 0.38659 0.0
H1660 H 0.5657 0.08798 0.45483 0.0
H1661 H 0.54949 0.09554 0.41962 0.0
H1662 H 0.48345 0.07225 0.43866 0.0
H1663 H 0.49947 0.06555 0.4739 0.0
C1664 C 0.47264 0.07947 0.3763 0.0
C1665 C 0.48256 0.06792 0.35844 0.0
C1666 C 0.48402 0.08668 0.39812 0.0
C1667 C 0.50544 0.08239 0.40241 0.0
C1668 C 0.51601 0.0727 0.38399 0.0
C1669 C 0.50473 0.06561 0.36227 0.0
C1670 C 0.54772 0.08498 0.45171 0.0
C1671 C 0.53389 0.07556 0.46685 0.0
C1672 C 0.53843 0.0893 0.43154 0.0
C1673 C 0.51518 0.08409 0.42609 0.0
C1674 C 0.5014 0.07662 0.44227 0.0
C1675 C 0.51065 0.07248 0.46245 0.0
H1676 H 0.77092 0.69443 0.0976 0.0
H1677 H 0.78512 0.75727 0.07433 0.0
H1678 H 0.7786 0.71444 0.13695 0.0
H1679 H 0.79253 0.77753 0.11444 0.0
H1680 H 0.77404 0.79745 0.19323 0.0
H1681 H 0.76918 0.78224 0.15194 0.0
H1682 H 0.81467 0.73851 0.16082 0.0
H1683 H 0.81979 0.75369 0.20177 0.0
C1684 C 0.77553 0.71258 0.10082 0.0
C1685 C 0.77738 0.7242 0.08264 0.0
C1686 C 0.78008 0.72404 0.12348 0.0
C1687 C 0.78633 0.74752 0.12879 0.0
C1688 C 0.78774 0.75938 0.11079 0.0
C1689 C 0.78355 0.7478 0.08788 0.0
C1690 C 0.78324 0.78481 0.18634 0.0
C1691 C 0.79716 0.77668 0.20095 0.0
C1692 C 0.78053 0.77621 0.16268 0.0
C1693 C 0.79142 0.75909 0.1532 0.0
C1694 C 0.80592 0.75158 0.16767 0.0
C1695 C 0.80887 0.76035 0.19118 0.0
H1696 H 0.16664 0.01323 0.68121 0.0
H1697 H 0.11067 0.02946 0.71625 0.0
H1698 H 0.14835 0.01723 0.6451 0.0
H1699 H 0.09247 0.03394 0.68015 0.0
H1700 H 0.07379 0.06085 0.61381 0.0
H1701 H 0.09133 0.05622 0.65011 0.0
H1702 H 0.11895 1.00237 0.61384 0.0
H1703 H 0.10105 1.00674 0.57769 0.0
C1704 C 0.15037 0.01763 0.68141 0.0
C1705 C 0.14046 0.02082 0.70236 0.0
C1706 C 0.13965 0.0199 0.66032 0.0
C1707 C 0.1185 0.02602 0.65883 0.0
C1708 C 0.10866 0.0294 0.67988 0.0
C1709 C 0.1192 0.02666 0.70091 0.0
C1710 C 0.08353 0.04792 0.61338 0.0
C1711 C 0.08562 0.03426 0.59204 0.0
C1712 C 0.09368 0.04513 0.63456 0.0
C1713 C 0.10701 0.02883 0.63577 0.0
C1714 C 0.10923 0.01532 0.61437 0.0
C1715 C 0.0987 0.01779 0.59326 0.0
H1716 H 0.78768 0.43443 0.40577 0.0
H1717 H 0.77031 0.38409 0.44649 0.0
H1718 H 0.79357 0.4059 0.37439 0.0
H1719 H 0.77486 0.35495 0.41438 0.0
H1720 H 0.80684 0.31093 0.35891 0.0
H1721 H 0.79938 0.33794 0.39182 0.0
H1722 H 0.77713 0.37719 0.3456 0.0
H1723 H 0.78608 0.35138 0.31355 0.0
C1724 C 0.78461 0.41713 0.40785 0.0
C1725 C 0.77836 0.41161 0.42865 0.0
C1726 C 0.78787 0.40058 0.38969 0.0
C1727 C 0.7845 0.37778 0.39146 0.0
C1728 C 0.77793 0.37222 0.41226 0.0
C1729 C 0.77507 0.38894 0.43066 0.0
C1730 C 0.80038 0.3254 0.35599 0.0
C1731 C 0.79743 0.32927 0.33373 0.0
C1732 C 0.79595 0.34087 0.37481 0.0
C1733 C 0.78801 0.36024 0.37166 0.0
C1734 C 0.78403 0.36317 0.34911 0.0
C1735 C 0.78897 0.34817 0.33056 0.0
H1736 H 0.40675 1.00595 0.21631 0.0
H1737 H 0.47262 0.04443 0.24196 0.0
H1738 H 0.42141 0.99085 0.18063 0.0
H1739 H 0.487 0.02964 0.20664 0.0
H1740 H 0.51313 0.98596 0.15301 0.0
H1741 H 0.49387 0.99307 0.18725 0.0
H1742 H 0.43811 1.00472 0.14707 0.0
H1743 H 0.45699 0.99661 0.11249 0.0
C1744 C 0.42426 0.01128 0.21427 0.0
C1745 C 0.43857 0.02627 0.23193 0.0
C1746 C 0.43262 1.00262 0.19393 0.0
C1747 C 0.4554 1.00876 0.1911 0.0
C1748 C 0.46949 0.02414 0.20859 0.0
C1749 C 0.46118 0.03279 0.22874 0.0
C1750 C 0.49647 0.98931 0.15131 0.0
C1751 C 0.48672 0.99107 0.1301 0.0
C1752 C 0.48556 0.99364 0.17097 0.0
C1753 C 0.46474 0.99993 0.16983 0.0
C1754 C 0.45419 0.99998 0.14843 0.0
C1755 C 0.46509 0.99557 0.1287 0.0
H1756 H 0.77789 0.76008 0.95348 0.0
H1757 H 0.81926 0.7123 0.93175 0.0
H1758 H 0.78502 0.77617 0.91951 0.0
H1759 H 0.82671 0.72873 0.89797 0.0
H1760 H 0.84763 0.77997 0.84908 0.0
H1761 H 0.84478 0.76719 0.88573 0.0
H1762 H 0.77321 0.75866 0.87666 0.0
H1763 H 0.77593 0.77076 0.84029 0.0
C1764 C 0.78877 0.75322 0.94167 0.0
C1765 C 0.79789 0.7348 0.94533 0.0
C1766 C 0.79282 0.76241 0.92216 0.0
C1767 C 0.80643 0.75372 0.90602 0.0
C1768 C 0.81631 0.73592 0.91015 0.0
C1769 C 0.81192 0.72644 0.92945 0.0
C1770 C 0.83135 0.77542 0.85501 0.0
C1771 C 0.81203 0.77627 0.84167 0.0
C1772 C 0.8297 0.76804 0.87592 0.0
C1773 C 0.80875 0.76201 0.88414 0.0
C1774 C 0.78959 0.76336 0.87096 0.0
C1775 C 0.79118 0.77017 0.84998 0.0
H1776 H 0.87234 0.09617 0.99761 0.0
H1777 H 0.881 0.08509 0.06636 0.0
H1778 H 0.90914 0.08729 0.99046 0.0
H1779 H 0.91788 0.07702 0.05945 0.0
H1780 H 0.99289 0.09009 0.04598 0.0
H1781 H 0.95628 0.0996 0.05073 0.0
H1782 H 0.92898 0.05158 0.98923 0.0
H1783 H 0.96564 0.04143 0.98479 0.0
C1784 C 0.88207 0.09198 0.01125 0.0
C1785 C 0.87348 0.09137 0.0326 0.0
C1786 C 0.90319 0.08678 0.00711 0.0
C1787 C 0.91666 0.08147 0.02438 0.0
C1788 C 0.90815 0.08115 0.04575 0.0
C1789 C 0.88687 0.08572 0.04969 0.0
C1790 C 0.97924 0.08168 0.03322 0.0
C1791 C 0.98251 0.06501 0.01487 0.0
C1792 C 0.9581 0.08706 0.03609 0.0
C1793 C 0.9395 0.07638 0.02043 0.0
C1794 C 0.94286 0.06027 1.0016 0.0
C1795 C 0.96395 0.05444 0.99904 0.0
H1796 H 0.38229 0.44329 1.00126 0.0
H1797 H 0.39103 0.43616 0.07146 0.0
H1798 H 0.42123 0.46189 1.00339 0.0
H1799 H 0.43039 0.45553 0.07377 0.0
H1800 H 0.48656 0.52166 0.06602 0.0
H1801 H 0.45002 0.49838 0.06878 0.0
H1802 H 0.45988 0.45006 0.01024 0.0
H1803 H 0.49612 0.47282 0.0075 0.0
C1804 C 0.39264 0.44558 0.01713 0.0
C1805 C 0.38367 0.43823 0.03617 0.0
C1806 C 0.41494 0.4562 0.01833 0.0
C1807 C 0.42879 0.46016 0.03874 0.0
C1808 C 0.41999 0.45269 0.05785 0.0
C1809 C 0.39762 0.44149 0.05648 0.0
C1810 C 0.48106 0.50592 0.05396 0.0
C1811 C 0.49419 0.49933 0.03634 0.0
C1812 C 0.46023 0.49255 0.05565 0.0
C1813 C 0.45214 0.47251 0.03964 0.0
C1814 C 0.46567 0.4655 0.02271 0.0
C1815 C 0.48645 0.47864 0.02115 0.0
H1816 H 0.41966 0.65591 0.78252 0.0
H1817 H 0.35585 0.61247 0.76082 0.0
H1818 H 0.40252 0.68883 0.78393 0.0
H1819 H 0.33857 0.64524 0.76198 0.0
H1820 H 0.30548 0.70825 0.77501 0.0
H1821 H 0.32278 0.67561 0.77415 0.0
H1822 H 0.38728 0.71752 0.77402 0.0
H1823 H 0.36978 0.75018 0.77506 0.0
C1824 C 0.40188 0.65306 0.77798 0.0
C1825 C 0.38968 0.63048 0.77158 0.0
C1826 C 0.39174 0.67247 0.77868 0.0
C1827 C 0.36844 0.67105 0.77314 0.0
C1828 C 0.3563 0.64835 0.76678 0.0
C1829 C 0.36647 0.62896 0.76598 0.0
C1830 C 0.32342 0.71084 0.7749 0.0
C1831 C 0.33565 0.73295 0.7753 0.0
C1832 C 0.33367 0.69153 0.77423 0.0
C1833 C 0.35715 0.69256 0.77395 0.0
C1834 C 0.36939 0.71479 0.77442 0.0
C1835 C 0.35909 0.73411 0.77499 0.0
H1836 H 0.24109 0.56476 0.50553 0.0
H1837 H 0.23074 0.62329 0.55219 0.0
H1838 H 0.20065 0.54975 0.50084 0.0
H1839 H 0.19073 0.60826 0.54777 0.0
H1840 H 0.12334 0.56326 0.55357 0.0
H1841 H 0.16376 0.57622 0.5576 0.0
H1842 H 0.16473 0.55938 0.48442 0.0
H1843 H 0.12412 0.54658 0.48028 0.0
C1844 C 0.23026 0.57435 0.51488 0.0
C1845 C 0.23927 0.59524 0.52925 0.0
C1846 C 0.20706 0.56582 0.5121 0.0
C1847 C 0.19235 0.57775 0.52398 0.0
C1848 C 0.20148 0.59848 0.53852 0.0
C1849 C 0.2245 0.60715 0.54097 0.0
C1850 C 0.1321 0.56225 0.53829 0.0
C1851 C 0.1203 0.5539 0.51658 0.0
C1852 C 0.15534 0.56978 0.54061 0.0
C1853 C 0.1676 0.56889 0.52135 0.0
C1854 C 0.15589 0.56017 0.49964 0.0
C1855 C 0.13255 0.55296 0.49728 0.0
H1856 H 0.76471 1.00292 0.72951 0.0
H1857 H 0.72694 1.00943 0.78834 0.0
H1858 H 0.78906 0.9837 0.74854 0.0
H1859 H 0.75207 0.99156 0.80811 0.0
H1860 H 0.77835 0.92978 0.82037 0.0
H1861 H 0.75845 0.95596 0.8072 0.0
H1862 H 0.81693 0.98401 0.77682 0.0
H1863 H 0.83627 0.95636 0.78854 0.0
C1864 C 0.7619 1.00058 0.74671 0.0
C1865 C 0.74376 1.0073 0.75733 0.0
C1866 C 0.77601 0.98977 0.75778 0.0
C1867 C 0.77255 0.98587 0.77991 0.0
C1868 C 0.75498 0.99369 0.79089 0.0
C1869 C 0.74059 1.00403 0.77961 0.0
C1870 C 0.78701 0.94159 0.81095 0.0
C1871 C 0.80871 0.9406 0.80504 0.0
C1872 C 0.77568 0.95691 0.80363 0.0
C1873 C 0.7859 0.97201 0.79058 0.0
C1874 C 0.80829 0.97226 0.78631 0.0
C1875 C 0.81955 0.95664 0.79336 0.0
H1876 H 0.77756 0.95445 0.55909 0.0
H1877 H 0.73232 0.89184 0.5301 0.0
H1878 H 0.74909 0.97507 0.55104 0.0
H1879 H 0.70339 0.91264 0.52236 0.0
H1880 H 0.67103 0.96048 0.48535 0.0
H1881 H 0.69652 0.93758 0.49638 0.0
H1882 H 0.71373 0.98313 0.56169 0.0
H1883 H 0.68908 1.00653 0.55031 0.0
C1884 C 0.76139 0.94505 0.55125 0.0
C1885 C 0.75724 0.9215 0.54512 0.0
C1886 C 0.74498 0.9569 0.54677 0.0
C1887 C 0.72394 0.94553 0.53603 0.0
C1888 C 0.71952 0.9219 0.53043 0.0
C1889 C 0.73601 0.90998 0.53501 0.0
C1890 C 0.68038 0.9657 0.502 0.0
C1891 C 0.67815 0.98549 0.51684 0.0
C1892 C 0.69474 0.95238 0.50846 0.0
C1893 C 0.70721 0.95854 0.5299 0.0
C1894 C 0.70457 0.97803 0.54494 0.0
C1895 C 0.69026 0.99135 0.53848 0.0
H1896 H 0.41417 0.46116 0.7424 0.0
H1897 H 0.36609 0.48932 0.78203 0.0
H1898 H 0.39525 0.42368 0.74415 0.0
H1899 H 0.34692 0.45105 0.78429 0.0
H1900 H 0.30761 0.37615 0.77384 0.0
H1901 H 0.32486 0.41472 0.77182 0.0
H1902 H 0.38764 0.39426 0.76197 0.0
H1903 H 0.37019 0.35579 0.76344 0.0
C1904 C 0.39944 0.45956 0.75163 0.0
C1905 C 0.39211 0.47919 0.76202 0.0
C1906 C 0.38846 0.4375 0.75287 0.0
C1907 C 0.36928 0.43321 0.76477 0.0
C1908 C 0.36145 0.45282 0.7748 0.0
C1909 C 0.37255 0.47518 0.77348 0.0
C1910 C 0.32513 0.37973 0.77117 0.0
C1911 C 0.33714 0.36203 0.76872 0.0
C1912 C 0.33525 0.40231 0.77012 0.0
C1913 C 0.35807 0.40868 0.7665 0.0
C1914 C 0.37005 0.39089 0.76426 0.0
C1915 C 0.35993 0.36835 0.76529 0.0
H1916 H 0.2096 0.62743 0.18732 0.0
H1917 H 0.25806 0.60635 0.22939 0.0
H1918 H 0.23409 0.66432 0.19206 0.0
H1919 H 0.28212 0.6433 0.2343 0.0
H1920 H 0.27876 0.71844 0.27229 0.0
H1921 H 0.26502 0.67842 0.25751 0.0
H1922 H 0.27796 0.68771 0.18933 0.0
H1923 H 0.29252 0.728 0.20432 0.0
C1924 C 0.22573 0.63038 0.19693 0.0
C1925 C 0.23163 0.61416 0.20845 0.0
C1926 C 0.23976 0.65143 0.19951 0.0
C1927 C 0.25973 0.65653 0.21376 0.0
C1928 C 0.2667 0.63965 0.22331 0.0
C1929 C 0.25286 0.61853 0.2205 0.0
C1930 C 0.27894 0.71189 0.25421 0.0
C1931 C 0.28654 0.72617 0.23939 0.0
C1932 C 0.27129 0.68904 0.2458 0.0
C1933 C 0.27067 0.68014 0.22237 0.0
C1934 C 0.27851 0.6943 0.20749 0.0
C1935 C 0.28677 0.7172 0.21604 0.0
H1936 H 0.48313 0.7264 0.46469 0.0
H1937 H 0.52065 0.7873 0.50803 0.0
H1938 H 0.48863 0.70575 0.49489 0.0
H1939 H 0.52639 0.76649 0.538 0.0
H1940 H 0.56726 0.70788 0.54487 0.0
H1941 H 0.5515 0.73637 0.53098 0.0
H1942 H 0.48527 0.70144 0.5382 0.0
H1943 H 0.50103 0.67334 0.55381 0.0
C1944 C 0.4919 0.73551 0.48091 0.0
C1945 C 0.50185 0.75834 0.48382 0.0
C1946 C 0.49492 0.72372 0.49825 0.0
C1947 C 0.50813 0.73455 0.51863 0.0
C1948 C 0.51622 0.7578 0.52238 0.0
C1949 C 0.51293 0.76966 0.50519 0.0
C1950 C 0.54942 0.70664 0.54471 0.0
C1951 C 0.53546 0.68783 0.55003 0.0
C1952 C 0.54036 0.72306 0.53659 0.0
C1953 C 0.51717 0.7209 0.53325 0.0
C1954 C 0.50322 0.70331 0.54043 0.0
C1955 C 0.5123 0.68712 0.54913 0.0
H1956 H 0.63977 0.31717 0.70566 0.0
H1957 H 0.67791 0.34804 0.65714 0.0
H1958 H 0.67334 0.32091 0.73009 0.0
H1959 H 0.71177 0.35363 0.68269 0.0
H1960 H 0.76571 0.31987 0.70923 0.0
H1961 H 0.73445 0.33013 0.69058 0.0
H1962 H 0.70402 0.33833 0.75449 0.0
H1963 H 0.73502 0.32634 0.77274 0.0
C1964 C 0.65534 0.32541 0.70053 0.0
C1965 C 0.65633 0.33168 0.67915 0.0
C1966 C 0.67471 0.32785 0.71478 0.0
C1967 C 0.69555 0.33715 0.70827 0.0
C1968 C 0.69617 0.34563 0.68793 0.0
C1969 C 0.67676 0.34263 0.67334 0.0
C1970 C 0.75251 0.32421 0.7194 0.0
C1971 C 0.75259 0.32201 0.74234 0.0
C1972 C 0.73455 0.33035 0.70873 0.0
C1973 C 0.71639 0.33493 0.72086 0.0
C1974 C 0.71734 0.33433 0.74436 0.0
C1975 C 0.73512 0.32756 0.75491 0.0
H1976 H 1.00269 0.35837 0.96519 0.0
H1977 H 0.98267 0.39402 0.91442 0.0
H1978 H 1.00391 0.3915 0.99501 0.0
H1979 H 0.98347 0.42691 0.94439 0.0
H1980 H 0.05036 0.46696 0.01237 0.0
H1981 H 0.03519 0.42831 0.99282 0.0
H1982 H 0.96973 0.44389 0.98593 0.0
H1983 H 0.98491 0.48263 0.00645 0.0
C1984 C 0.99768 0.37293 0.96049 0.0
C1985 C 0.99302 0.37381 0.93743 0.0
C1986 C 0.99837 0.39183 0.97758 0.0
C1987 C 0.99391 0.41166 0.97187 0.0
C1988 C 0.98682 0.41172 0.94918 0.0
C1989 C 0.98654 0.39297 0.93203 0.0
C1990 C 0.03261 0.46188 0.00729 0.0
C1991 C 0.01872 0.47751 0.01076 0.0
C1992 C 0.02391 0.43982 0.99629 0.0
C1993 C 1.0013 0.43323 0.98805 0.0
C1994 C 0.98716 0.44863 0.99237 0.0
C1995 C 0.9958 0.47065 1.00403 0.0
H1996 H 0.02647 0.79533 0.14809 0.0
H1997 H 0.04989 0.76776 0.20411 0.0
H1998 H 0.98937 0.79113 0.16182 0.0
H1999 H 0.0132 0.764 0.21789 0.0
H2000 H 0.94147 0.74271 0.228 0.0
H2001 H 0.97511 0.74293 0.20822 0.0
H2002 H 0.97229 0.80877 0.19517 0.0
H2003 H 0.93803 0.80817 0.21418 0.0
C2004 C 0.0237 0.78827 0.16322 0.0
C2005 C 0.04116 0.78196 0.17505 0.0
C2006 C 1.0025 0.78598 0.17113 0.0
C2007 C 0.99838 0.77722 0.19091 0.0
C2008 C 0.01574 0.77049 0.2024 0.0
C2009 C 0.03685 0.77283 0.19458 0.0
C2010 C 0.94774 0.75704 0.2205 0.0
C2011 C 0.93716 0.77549 0.22278 0.0
C2012 C 0.96714 0.75725 0.20937 0.0
C2013 C 0.97644 0.77595 0.20033 0.0
C2014 C 0.96544 0.79406 0.20184 0.0
C2015 C 0.94599 0.79384 0.21297 0.0
H2016 H 0.50473 0.28782 0.05017 0.0
H2017 H 0.4922 0.33891 0.10493 0.0
H2018 H 0.51186 0.31559 0.02592 0.0
H2019 H 0.49984 0.36669 0.08099 0.0
H2020 H 0.50466 0.41159 0.03027 0.0
H2021 H 0.48912 0.38037 0.04787 0.0
H2022 H 0.5421 0.34674 0.02552 0.0
H2023 H 0.55703 0.37746 0.00693 0.0
C2024 C 0.50312 0.30488 0.05691 0.0
C2025 C 0.49807 0.31119 0.07954 0.0
C2026 C 0.5074 0.32084 0.04307 0.0
C2027 C 0.50673 0.34345 0.05159 0.0
C2028 C 0.50034 0.34942 0.07377 0.0
C2029 C 0.49603 0.33347 0.08757 0.0
C2030 C 0.51271 0.3973 0.0286 0.0
C2031 C 0.53219 0.39711 0.01723 0.0
C2032 C 0.50392 0.37949 0.03895 0.0
C2033 C 0.51442 0.36109 0.03828 0.0
C2034 C 0.53343 0.36052 0.0262 0.0
C2035 C 0.54219 0.3783 0.01579 0.0
H2036 H 0.04911 0.28732 0.2943 0.0
H2037 H 0.01902 0.27339 0.35515 0.0
H2038 H 0.01247 0.28133 0.2741 0.0
H2039 H 0.98209 0.2669 0.33461 0.0
H2040 H 0.937 0.31233 0.30804 0.0
H2041 H 0.96724 0.29868 0.32493 0.0
H2042 H 0.97463 0.25967 0.2589 0.0
H2043 H 0.94406 0.27375 0.24184 0.0
C2044 C 0.03464 0.28236 0.30317 0.0
C2045 C 0.03684 0.28161 0.32652 0.0
C2046 C 0.01362 0.27859 0.29147 0.0
C2047 C 0.99445 0.27409 0.30294 0.0
C2048 C 0.99668 0.27072 0.32551 0.0
C2049 C 0.01777 0.27445 0.33726 0.0
C2050 C 0.94502 0.30073 0.29717 0.0
C2051 C 0.93881 0.29457 0.27359 0.0
C2052 C 0.96202 0.29253 0.3069 0.0
C2053 C 0.97325 0.27804 0.29323 0.0
C2054 C 0.96622 0.27086 0.26978 0.0
C2055 C 0.94893 0.27896 0.26003 0.0
H2056 H 0.03485 0.71251 0.58457 0.0
H2057 H 0.00875 0.67535 0.63489 0.0
H2058 H 0.04297 0.6783 0.56199 0.0
H2059 H 0.01519 0.64094 0.61181 0.0
H2060 H 0.04885 0.58676 0.58016 0.0
H2061 H 0.04309 0.62223 0.6017 0.0
H2062 H 0.02923 0.64365 0.53837 0.0
H2063 H 0.03671 0.60864 0.517 0.0
C2064 C 0.03051 0.69689 0.59053 0.0
C2065 C 0.02139 0.6965 0.61149 0.0
C2066 C 0.03505 0.67725 0.57759 0.0
C2067 C 0.03002 0.65676 0.58513 0.0
C2068 C 0.02004 0.65642 0.60574 0.0
C2069 C 0.0161 0.67611 0.61891 0.0
C2070 C 0.04476 0.59919 0.57092 0.0
C2071 C 0.04316 0.59504 0.54699 0.0
C2072 C 0.04121 0.61946 0.58322 0.0
C2073 C 0.03527 0.63581 0.57185 0.0
C2074 C 0.03402 0.63168 0.5478 0.0
C2075 C 0.03819 0.61158 0.5355 0.0
H2076 H 0.65607 0.76613 0.85572 0.0
H2077 H 0.67417 0.83453 0.89313 0.0
H2078 H 0.68768 0.77264 0.83323 0.0
H2079 H 0.7053 0.84159 0.86988 0.0
H2080 H 0.77064 0.83773 0.83596 0.0
H2081 H 0.74036 0.83417 0.8602 0.0
H2082 H 0.69681 0.79186 0.80312 0.0
H2083 H 0.7276 0.79442 0.77905 0.0
C2084 C 0.66717 0.78245 0.85937 0.0
C2085 C 0.66294 0.79977 0.87619 0.0
C2086 C 0.68498 0.78635 0.84621 0.0
C2087 C 0.69864 0.80782 0.84928 0.0
C2088 C 0.69511 0.82485 0.86706 0.0
C2089 C 0.67744 0.8208 0.88053 0.0
C2090 C 0.75452 0.82791 0.82841 0.0
C2091 C 0.75164 0.81596 0.80565 0.0
C2092 C 0.73711 0.82593 0.84238 0.0
C2093 C 0.71632 0.81225 0.8338 0.0
C2094 C 0.71288 0.80192 0.81048 0.0
C2095 C 0.73042 0.80365 0.79655 0.0
H2096 H 0.43652 0.56763 0.67769 0.0
H2097 H 0.49071 0.54805 0.71227 0.0
H2098 H 0.45547 0.56432 0.64235 0.0
H2099 H 0.50923 0.54376 0.67661 0.0
H2100 H 0.52446 0.51615 0.59913 0.0
H2101 H 0.50646 0.52003 0.63514 0.0
H2102 H 0.48976 0.58178 0.62364 0.0
H2103 H 0.50858 0.57841 0.58826 0.0
C2104 C 0.45245 0.56251 0.67796 0.0
C2105 C 0.46172 0.55828 0.69864 0.0
C2106 C 0.46354 0.56063 0.65736 0.0
C2107 C 0.4843 0.55364 0.65578 0.0
C2108 C 0.49339 0.54906 0.6764 0.0
C2109 C 0.48265 0.55165 0.69722 0.0
C2110 C 0.51713 0.53072 0.60419 0.0
C2111 C 0.51851 0.54697 0.59008 0.0
C2112 C 0.50668 0.53302 0.62521 0.0
C2113 C 0.4962 0.5513 0.63311 0.0
C2114 C 0.49727 0.56732 0.61876 0.0
C2115 C 0.50835 0.56541 0.59817 0.0
H2116 H 0.78855 0.13477 0.9503 0.0
H2117 H 0.81897 0.19477 0.99939 0.0
H2118 H 0.78357 0.15747 0.92182 0.0
H2119 H 0.81478 0.2174 0.9708 0.0
H2120 H 0.78179 0.25403 0.924 0.0
H2121 H 0.7869 0.23061 0.95151 0.0
H2122 H 0.80182 0.18009 0.89759 0.0
H2123 H 0.79533 0.20294 0.86981 0.0
C2124 C 0.79446 0.15278 0.95491 0.0
C2125 C 0.80406 0.16296 0.97714 0.0
C2126 C 0.79169 0.16583 0.93855 0.0
C2127 C 0.79862 0.18936 0.94398 0.0
C2128 C 0.80878 0.19941 0.96608 0.0
C2129 C 0.81136 0.1864 0.98246 0.0
C2130 C 0.78582 0.23779 0.91789 0.0
C2131 C 0.78808 0.23044 0.89458 0.0
C2132 C 0.78912 0.22446 0.93379 0.0
C2133 C 0.79495 0.20344 0.92689 0.0
C2134 C 0.79715 0.19605 0.90356 0.0
C2135 C 0.79371 0.20933 0.88763 0.0
H2136 H 0.12143 0.51829 0.20142 0.0
H2137 H 0.17157 0.51226 0.15392 0.0
H2138 H 0.09335 0.51451 0.16976 0.0
H2139 H 0.14363 0.50908 0.12228 0.0
H2140 H 0.06541 0.54858 0.11428 0.0
H2141 H 0.08745 0.54075 0.14581 0.0
H2142 H 0.1097 0.48889 0.0992 0.0
H2143 H 0.08797 0.49698 0.06761 0.0
C2144 C 0.12636 0.51575 0.18415 0.0
C2145 C 0.14874 0.51591 0.18012 0.0
C2146 C 0.1103 0.51373 0.16605 0.0
C2147 C 0.11633 0.51194 0.14357 0.0
C2148 C 0.13839 0.51032 0.13939 0.0
C2149 C 0.15445 0.51221 0.15752 0.0
C2150 C 0.07467 0.53525 0.11082 0.0
C2151 C 0.07523 0.52368 0.08842 0.0
C2152 C 0.08723 0.53065 0.12891 0.0
C2153 C 0.10048 0.5143 0.12496 0.0
C2154 C 0.09998 0.50184 0.10273 0.0
C2155 C 0.08749 0.50648 0.08465 0.0
H2156 H 0.77081 0.84907 0.46336 0.0
H2157 H 0.84238 0.85911 0.46642 0.0
H2158 H 0.76791 0.82898 0.42379 0.0
H2159 H 0.83987 0.84022 0.42642 0.0
H2160 H 0.82986 0.79674 0.35559 0.0
H2161 H 0.83111 0.80879 0.39693 0.0
H2162 H 0.77266 0.83711 0.38807 0.0
H2163 H 0.77086 0.82408 0.34706 0.0
C2164 C 0.78592 0.84652 0.45559 0.0
C2165 C 0.80679 0.85523 0.46799 0.0
C2166 C 0.78434 0.83535 0.43275 0.0
C2167 C 0.80365 0.83317 0.42147 0.0
C2168 C 0.82455 0.84119 0.43435 0.0
C2169 C 0.82607 0.85203 0.45736 0.0
C2170 C 0.81716 0.80536 0.36252 0.0
C2171 C 0.80027 0.80942 0.3479 0.0
C2172 C 0.81794 0.81244 0.38631 0.0
C2173 C 0.80203 0.82407 0.39617 0.0
C2174 C 0.785 0.82783 0.38144 0.0
C2175 C 0.78404 0.82048 0.35773 0.0
H2176 H 0.44598 0.5674 0.85991 0.0
H2177 H 0.50409 0.54838 0.83132 0.0
H2178 H 0.46176 0.56522 0.89818 0.0
H2179 H 0.51977 0.54664 0.86868 0.0
H2180 H 0.53993 0.52547 0.93473 0.0
H2181 H 0.52296 0.52887 0.89809 0.0
H2182 H 0.48565 0.57529 0.93278 0.0
H2183 H 0.50246 0.57134 0.96967 0.0
C2184 C 0.46221 0.56308 0.86155 0.0
C2185 C 0.47337 0.55809 0.84162 0.0
C2186 C 0.47145 0.56171 0.88385 0.0
C2187 C 0.49235 0.55524 0.88753 0.0
C2188 C 0.50354 0.55099 0.86756 0.0
C2189 C 0.49439 0.55228 0.84558 0.0
C2190 C 0.52816 0.5365 0.9348 0.0
C2191 C 0.52302 0.54808 0.95596 0.0
C2192 C 0.51829 0.53868 0.91331 0.0
C2193 C 0.50259 0.55269 0.91137 0.0
C2194 C 0.49731 0.56416 0.93264 0.0
C2195 C 0.50722 0.56195 0.95421 0.0
H2196 H 0.81841 0.19337 0.08942 0.0
H2197 H 0.79178 0.14516 0.12975 0.0
H2198 H 0.8142 0.22395 0.12018 0.0
H2199 H 0.78774 0.17566 0.16046 0.0
H2200 H 0.76377 0.23383 0.20341 0.0
H2201 H 0.76579 0.2049 0.17004 0.0
H2202 H 0.82983 0.24224 0.15904 0.0
H2203 H 0.82774 0.27113 0.1921 0.0
C2204 C 0.81181 0.18925 0.10488 0.0
C2205 C 0.80553 0.1667 0.10703 0.0
C2206 C 0.80939 0.20683 0.12256 0.0
C2207 C 0.80046 0.20235 0.14283 0.0
C2208 C 0.79431 0.1798 0.145 0.0
C2209 C 0.79687 0.16226 0.12742 0.0
C2210 C 0.77805 0.23611 0.19359 0.0
C2211 C 0.79556 0.25489 0.20053 0.0
C2212 C 0.77935 0.21936 0.17459 0.0
C2213 C 0.7981 0.22104 0.1619 0.0
C2214 C 0.81508 0.24036 0.16823 0.0
C2215 C 0.81388 0.25697 0.18729 0.0
H2216 H 0.14088 0.60858 0.28716 0.0
H2217 H 0.19539 0.58051 0.31041 0.0
H2218 H 0.12913 0.61423 0.32553 0.0
H2219 H 0.18386 0.58672 0.34904 0.0
H2220 H 0.12588 0.55571 0.38918 0.0
H2221 H 0.15098 0.56445 0.36064 0.0
H2222 H 0.13396 0.62987 0.36671 0.0
H2223 H 0.10839 0.62076 0.3953 0.0
C2224 C 0.15078 0.60424 0.30059 0.0
C2225 C 0.16865 0.59344 0.29559 0.0
C2226 C 0.14415 0.6077 0.3227 0.0
C2227 C 0.15532 0.60051 0.34022 0.0
C2228 C 0.17467 0.592 0.33574 0.0
C2229 C 0.18126 0.58845 0.31361 0.0
C2230 C 0.12791 0.57213 0.38476 0.0
C2231 C 0.11501 0.58743 0.39402 0.0
C2232 C 0.14248 0.57729 0.36861 0.0
C2233 C 0.14436 0.59782 0.36129 0.0
C2234 C 0.1327 0.61384 0.37189 0.0
C2235 C 0.11817 0.6087 0.38826 0.0
H2236 H 0.81327 0.82818 0.59677 0.0
H2237 H 0.81522 0.89581 0.63274 0.0
H2238 H 0.81017 0.81494 0.63269 0.0
H2239 H 0.8109 0.88262 0.66835 0.0
H2240 H 0.8232 0.85655 0.73325 0.0
H2241 H 0.82715 0.86986 0.69756 0.0
H2242 H 0.78724 0.8068 0.66073 0.0
H2243 H 0.78439 0.7932 0.69633 0.0
C2244 C 0.81294 0.84021 0.61234 0.0
C2245 C 0.81463 0.86307 0.61182 0.0
C2246 C 0.81093 0.83261 0.63302 0.0
C2247 C 0.81017 0.8476 0.65375 0.0
C2248 C 0.81185 0.87049 0.65306 0.0
C2249 C 0.81421 0.8781 0.63249 0.0
C2250 C 0.81512 0.8456 0.71755 0.0
C2251 C 0.80346 0.82379 0.71775 0.0
C2252 C 0.81731 0.85326 0.69694 0.0
C2253 C 0.80761 0.83948 0.6759 0.0
C2254 C 0.79546 0.81784 0.6763 0.0
C2255 C 0.79358 0.81007 0.69685 0.0
H2256 H 0.7007 0.45688 0.52602 0.0
H2257 H 0.72768 0.51722 0.50228 0.0
H2258 H 0.66644 0.47022 0.53308 0.0
H2259 H 0.69284 0.53048 0.50873 0.0
H2260 H 0.63223 0.55614 0.53878 0.0
H2261 H 0.66819 0.54462 0.53489 0.0
H2262 H 0.63388 0.4754 0.51487 0.0
H2263 H 0.59842 0.48678 0.51938 0.0
C2264 C 0.69934 0.47303 0.52218 0.0
C2265 C 0.71716 0.48583 0.51343 0.0
C2266 C 0.67944 0.4807 0.52611 0.0
C2267 C 0.67638 0.50147 0.52132 0.0
C2268 C 0.69438 0.51451 0.51289 0.0
C2269 C 0.71443 0.50682 0.50903 0.0
C2270 C 0.63238 0.53843 0.5339 0.0
C2271 C 0.61214 0.52248 0.52963 0.0
C2272 C 0.6531 0.53178 0.53139 0.0
C2273 C 0.65433 0.50895 0.52454 0.0
C2274 C 0.63403 0.49309 0.52057 0.0
C2275 C 0.61344 0.4997 0.52308 0.0
H2276 H 0.19836 0.18325 0.51044 0.0
H2277 H 0.22023 0.1273 0.47007 0.0
H2278 H 0.16353 0.15845 0.51471 0.0
H2279 H 0.18515 0.10268 0.47344 0.0
H2280 H 0.13359 0.05948 0.50741 0.0
H2281 H 0.16691 0.08465 0.50038 0.0
H2282 H 0.12892 0.13647 0.49783 0.0
H2283 H 0.09582 0.11153 0.50576 0.0
C2284 C 0.19553 0.16575 0.50208 0.0
C2285 C 0.21214 0.15724 0.49004 0.0
C2286 C 0.17549 0.15147 0.50446 0.0
C2287 C 0.17145 0.12836 0.49465 0.0
C2288 C 0.18776 0.12017 0.48176 0.0
C2289 C 0.20785 0.13437 0.47962 0.0
C2290 C 0.1323 0.0762 0.50524 0.0
C2291 C 0.11198 0.08343 0.50722 0.0
C2292 C 0.15145 0.09067 0.50105 0.0
C2293 C 0.15078 0.11274 0.49847 0.0
C2294 C 0.1303 0.1198 0.50008 0.0
C2295 C 0.11121 0.10539 0.5045 0.0
H2296 H 0.24809 0.9714 0.77049 0.0
H2297 H 0.18358 0.92906 0.76772 0.0
H2298 H 0.2656 0.93877 0.7692 0.0
H2299 H 0.20083 0.89627 0.76613 0.0
H2300 H 0.23567 0.83622 0.773 0.0
H2301 H 0.21819 0.8688 0.77424 0.0
H2302 H 0.27959 0.90714 0.75856 0.0
H2303 H 0.29697 0.8745 0.75764 0.0
C2304 C 0.23735 0.95517 0.76955 0.0
C2305 C 0.21388 0.95392 0.76927 0.0
C2306 C 0.24763 0.93584 0.76868 0.0
C2307 C 0.23536 0.91348 0.76749 0.0
C2308 C 0.21182 0.91236 0.76723 0.0
C2309 C 0.20156 0.93169 0.76807 0.0
C2310 C 0.24567 0.85148 0.76969 0.0
C2311 C 0.26826 0.85163 0.76508 0.0
C2312 C 0.23536 0.87076 0.77035 0.0
C2313 C 0.24674 0.89201 0.76656 0.0
C2314 C 0.2694 0.89204 0.76191 0.0
C2315 C 0.27968 0.87272 0.76119 0.0
H2316 H 0.35304 0.01844 0.97336 0.0
H2317 H 0.35422 0.9701 0.01674 0.0
H2318 H 0.39365 0.02597 0.9754 0.0
H2319 H 0.39488 0.97731 0.01845 0.0
H2320 H 0.46918 0.01035 0.03418 0.0
H2321 H 0.42864 1.0035 0.03303 0.0
H2322 H 0.42466 0.01052 0.9625 0.0
H2323 H 0.4653 0.01782 0.96381 0.0
C2324 C 0.36192 1.00942 0.98342 0.0
C2325 C 0.35011 0.99365 0.99492 0.0
C2326 C 0.38535 0.01361 0.98442 0.0
C2327 C 0.39788 1.00221 0.99698 0.0
C2328 C 0.38605 0.98667 0.00877 0.0
C2329 C 0.36259 0.98245 0.00774 0.0
C2330 C 0.45972 0.0104 0.01836 0.0
C2331 C 0.47076 0.01467 0.99908 0.0
C2332 C 0.43631 1.00633 0.01767 0.0
C2333 C 0.42304 1.00642 0.99768 0.0
C2334 C 0.43411 0.01061 0.97836 0.0
C2335 C 0.45755 0.01464 0.97904 0.0
H2336 H 0.83019 0.56158 0.80498 0.0
H2337 H 0.88246 0.62098 0.82295 0.0
H2338 H 0.803 0.58499 0.80031 0.0
H2339 H 0.85548 0.64424 0.81789 0.0
H2340 H 0.8027 0.68369 0.81696 0.0
H2341 H 0.82312 0.65808 0.83098 0.0
H2342 H 0.79615 0.60679 0.77148 0.0
H2343 H 0.77485 0.6321 0.75793 0.0
C2344 C 0.83581 0.57965 0.80832 0.0
C2345 C 0.8585 0.58944 0.81414 0.0
C2346 C 0.82026 0.59303 0.8055 0.0
C2347 C 0.82709 0.61645 0.80852 0.0
C2348 C 0.84958 0.62628 0.81565 0.0
C2349 C 0.86511 0.61292 0.81843 0.0
C2350 C 0.80052 0.66673 0.80719 0.0
C2351 C 0.78723 0.66001 0.78619 0.0
C2352 C 0.81248 0.65213 0.81512 0.0
C2353 C 0.81151 0.63051 0.80222 0.0
C2354 C 0.79719 0.6233 0.78192 0.0
C2355 C 0.78517 0.63789 0.774 0.0
H2356 H 0.82189 0.63863 0.04861 0.0
H2357 H 0.84949 0.67528 0.99834 0.0
H2358 H 0.85743 0.62856 0.05628 0.0
H2359 H 0.88559 0.66476 0.00604 0.0
H2360 H 0.93008 0.60769 0.00958 0.0
H2361 H 0.89942 0.62602 1.00115 0.0
H2362 H 0.89658 0.64923 0.07336 0.0
H2363 H 0.92739 0.63136 0.08186 0.0
C2364 C 0.83558 0.64455 0.03913 0.0
C2365 C 0.83281 0.65768 0.02276 0.0
C2366 C 0.85603 0.63892 0.04372 0.0
C2367 C 0.8743 0.64604 0.03191 0.0
C2368 C 0.87171 0.65912 0.01541 0.0
C2369 C 0.85115 0.66515 0.01106 0.0
C2370 C 0.92332 0.6172 0.02364 0.0
C2371 C 0.93092 0.61771 0.04643 0.0
C2372 C 0.90579 0.62771 0.01878 0.0
C2373 C 0.89551 0.6388 0.03661 0.0
C2374 C 0.90403 0.6405 0.0593 0.0
C2375 C 0.92156 0.63014 0.06415 0.0
H2376 H 0.24441 0.09593 0.77425 0.0
H2377 H 0.18425 0.1221 0.7804 0.0
H2378 H 0.2654 0.13413 0.77378 0.0
H2379 H 0.20468 0.15929 0.78026 0.0
H2380 H 0.23936 0.22369 0.76016 0.0
H2381 H 0.22103 0.18526 0.76049 0.0
H2382 H 0.28206 0.17301 0.79015 0.0
H2383 H 0.30056 0.21171 0.7894 0.0
C2384 C 0.2355 0.10958 0.77566 0.0
C2385 C 0.21213 0.10498 0.77723 0.0
C2386 C 0.24767 0.13186 0.7754 0.0
C2387 C 0.23714 0.15072 0.77657 0.0
C2388 C 0.21395 0.14593 0.77861 0.0
C2389 C 0.20198 0.12401 0.7789 0.0
C2390 C 0.24907 0.213 0.76686 0.0
C2391 C 0.27176 0.22166 0.77486 0.0
C2392 C 0.23833 0.19052 0.76722 0.0
C2393 C 0.24952 0.17506 0.77562 0.0
C2394 C 0.27238 0.18366 0.78338 0.0
C2395 C 0.28314 0.20627 0.78307 0.0
H2396 H 0.36962 0.98359 0.31513 0.0
H2397 H 0.42625 0.95113 0.3104 0.0
H2398 H 0.34517 0.94762 0.31513 0.0
H2399 H 0.40167 0.91522 0.3107 0.0
H2400 H 0.35057 0.85537 0.32291 0.0
H2401 H 0.37257 0.89372 0.33458 0.0
H2402 H 0.33711 0.91374 0.28002 0.0
H2403 H 0.31553 0.87552 0.2681 0.0
C2404 C 0.37695 0.96892 0.31467 0.0
C2405 C 0.39983 0.97012 0.31243 0.0
C2406 C 0.36292 0.94836 0.31464 0.0
C2407 C 0.37158 0.92875 0.3128 0.0
C2408 C 0.39466 0.93018 0.31229 0.0
C2409 C 0.40866 0.95069 0.31196 0.0
C2410 C 0.34721 0.86811 0.31375 0.0
C2411 C 0.3315 0.86255 0.29454 0.0
C2412 C 0.35982 0.88994 0.32037 0.0
C2413 C 0.35644 0.90656 0.3082 0.0
C2414 C 0.33984 0.90125 0.28982 0.0
C2415 C 0.32761 0.87939 0.28292 0.0
H2416 H 0.55355 0.34379 0.59967 0.0
H2417 H 0.59226 0.31031 0.5513 0.0
H2418 H 0.53925 0.36093 0.57014 0.0
H2419 H 0.5775 0.32724 0.52142 0.0
H2420 H 0.5052 0.38039 0.51461 0.0
H2421 H 0.51529 0.35291 0.535 0.0
H2422 H 0.58147 0.36478 0.5126 0.0
H2423 H 0.57095 0.39139 0.49076 0.0
C2424 C 0.55883 0.3399 0.58264 0.0
C2425 C 0.57412 0.32581 0.57785 0.0
C2426 C 0.55044 0.34954 0.56561 0.0
C2427 C 0.55707 0.34527 0.54334 0.0
C2428 C 0.57214 0.3309 0.53842 0.0
C2429 C 0.58056 0.32122 0.55553 0.0
C2430 C 0.52161 0.37654 0.51306 0.0
C2431 C 0.53742 0.38857 0.50134 0.0
C2432 C 0.52751 0.36098 0.52515 0.0
C2433 C 0.54938 0.35724 0.52605 0.0
C2434 C 0.56451 0.36743 0.51242 0.0
C2435 C 0.55853 0.38286 0.50007 0.0
H2436 H 0.47564 0.80191 0.33724 0.0
H2437 H 0.44454 0.75937 0.38114 0.0
H2438 H 0.44056 0.79656 0.31473 0.0
H2439 H 0.40907 0.75302 0.35763 0.0
H2440 H 0.38042 0.776 0.26755 0.0
H2441 H 0.41426 0.77163 0.288 0.0
H2442 H 0.38057 0.77228 0.34976 0.0
H2443 H 0.34644 0.7752 0.32885 0.0
C2444 C 0.46132 0.79104 0.34186 0.0
C2445 C 0.46286 0.78106 0.361 0.0
C2446 C 0.44115 0.78776 0.32873 0.0
C2447 C 0.42196 0.77411 0.33412 0.0
C2448 C 0.4235 0.76379 0.3531 0.0
C2449 C 0.44378 0.76736 0.36653 0.0
C2450 C 0.38023 0.77482 0.2854 0.0
C2451 C 0.36101 0.77626 0.29672 0.0
C2452 C 0.39961 0.77245 0.29718 0.0
C2453 C 0.40032 0.77214 0.3207 0.0
C2454 C 0.38064 0.7723 0.33166 0.0
C2455 C 0.3611 0.77414 0.31971 0.0
H2456 H 0.09936 0.73504 0.07797 0.0
H2457 H 0.1232 0.7138 0.13814 0.0
H2458 H 0.09204 0.69638 0.05703 0.0
H2459 H 0.11561 0.67502 0.1171 0.0
H2460 H 0.10932 0.60789 0.06723 0.0
H2461 H 0.12447 0.64749 0.08383 0.0
H2462 H 0.06267 0.66442 0.06182 0.0
H2463 H 0.04762 0.62516 0.04524 0.0
C2464 C 0.10334 0.72218 0.08668 0.0
C2465 C 0.11151 0.72745 0.10988 0.0
C2466 C 0.09908 0.70005 0.07465 0.0
C2467 C 0.10294 0.6827 0.08554 0.0
C2468 C 0.11255 0.6881 0.10826 0.0
C2469 C 0.1168 0.71029 0.12034 0.0
C2470 C 0.09909 0.62014 0.06575 0.0
C2471 C 0.07724 0.61343 0.05504 0.0
C2472 C 0.10774 0.64274 0.07531 0.0
C2473 C 0.09478 0.65899 0.07404 0.0
C2474 C 0.07318 0.65231 0.06277 0.0
C2475 C 0.06448 0.62978 0.05343 0.0
H2476 H 0.09989 0.32529 0.9075 0.0
H2477 H 0.06534 0.34466 0.85189 0.0
H2478 H 0.13403 0.32921 0.88797 0.0
H2479 H 0.09948 0.34946 0.83285 0.0
H2480 H 0.14686 0.31388 0.79041 0.0
H2481 H 0.11661 0.32 0.81368 0.0
H2482 H 0.16416 0.35214 0.87181 0.0
H2483 H 0.1947 0.34584 0.84829 0.0
C2484 C 0.09986 0.33112 0.89149 0.0
C2485 C 0.08004 0.33426 0.88089 0.0
C2486 C 0.11936 0.33341 0.88034 0.0
C2487 C 0.11923 0.33913 0.85864 0.0
C2488 C 0.09988 0.34442 0.84926 0.0
C2489 C 0.08041 0.34179 0.86018 0.0
C2490 C 0.1509 0.32261 0.80803 0.0
C2491 C 0.17311 0.32949 0.81751 0.0
C2492 C 0.13357 0.3262 0.82138 0.0
C2493 C 0.13803 0.33683 0.84452 0.0
C2494 C 0.16026 0.34386 0.85404 0.0
C2495 C 0.17768 0.34022 0.84063 0.0
H2496 H 0.58049 0.78041 0.97142 0.0
H2497 H 0.55908 0.72635 0.91288 0.0
H2498 H 0.56728 0.75493 0.99673 0.0
H2499 H 0.54617 0.70092 0.93813 0.0
H2500 H 0.50858 0.66461 0.98716 0.0
H2501 H 0.51763 0.69362 0.9646 0.0
H2502 H 0.57838 0.72209 0.00864 0.0
H2503 H 0.5694 0.69307 0.03112 0.0
C2504 C 0.5729 0.76312 0.96395 0.0
C2505 C 0.57089 0.75536 0.94016 0.0
C2506 C 0.56541 0.74853 0.97846 0.0
C2507 C 0.55565 0.72594 0.96943 0.0
C2508 C 0.55331 0.71831 0.9456 0.0
C2509 C 0.56088 0.73285 0.93113 0.0
C2510 C 0.52378 0.67717 0.99212 0.0
C2511 C 0.53836 0.67643 0.01082 0.0
C2512 C 0.52898 0.69375 0.97919 0.0
C2513 C 0.54883 0.70999 0.9847 0.0
C2514 C 0.56285 0.70994 1.00408 0.0
C2515 C 0.55768 0.69332 0.017 0.0
H2516 H 0.08912 0.801 0.65908 0.0
H2517 H 0.04527 0.78724 0.71116 0.0
H2518 H 0.12122 0.80176 0.68545 0.0
H2519 H 0.07737 0.78791 0.73738 0.0
H2520 H 0.13595 0.75105 0.75312 0.0
H2521 H 0.10319 0.75983 0.73469 0.0
H2522 H 0.14288 0.82182 0.72384 0.0
H2523 H 0.17562 0.8134 0.74286 0.0
C2524 C 0.08638 0.79857 0.67626 0.0
C2525 C 0.06472 0.79375 0.68296 0.0
C2526 C 0.10474 0.79912 0.69138 0.0
C2527 C 0.10167 0.7947 0.71334 0.0
C2528 C 0.08011 0.79116 0.72046 0.0
C2529 C 0.06179 0.79084 0.70545 0.0
C2530 C 0.13758 0.76685 0.74742 0.0
C2531 C 0.15842 0.78136 0.74913 0.0
C2532 C 0.11883 0.77187 0.73685 0.0
C2533 C 0.12063 0.7914 0.7277 0.0
C2534 C 0.14117 0.80651 0.73051 0.0
C2535 C 0.15987 0.80162 0.74128 0.0
H2536 H 0.11383 0.39614 0.39763 0.0
H2537 H 0.05892 0.35644 0.42362 0.0
H2538 H 0.10443 0.43052 0.41901 0.0
H2539 H 0.04925 0.39079 0.44432 0.0
H2540 H 0.0283 0.46229 0.45204 0.0
H2541 H 0.03749 0.42843 0.42928 0.0
H2542 H 0.10241 0.44373 0.46682 0.0
H2543 H 0.09311 0.4771 0.49002 0.0
C2544 C 0.09972 0.39478 0.40777 0.0
C2545 C 0.08718 0.37365 0.40908 0.0
C2546 C 0.09439 0.41438 0.41996 0.0
C2547 C 0.07609 0.41313 0.43311 0.0
C2548 C 0.06335 0.39208 0.43414 0.0
C2549 C 0.06899 0.37249 0.42244 0.0
C2550 C 0.0445 0.45838 0.45541 0.0
C2551 C 0.05994 0.47217 0.47286 0.0
C2552 C 0.04972 0.43908 0.44245 0.0
C2553 C 0.07065 0.43369 0.44636 0.0
C2554 C 0.08622 0.44769 0.46349 0.0
C2555 C 0.08082 0.46664 0.4768 0.0
H2556 H 0.45398 0.22908 0.19969 0.0
H2557 H 0.43886 0.27853 0.16205 0.0
H2558 H 0.42249 0.23357 0.22207 0.0
H2559 H 0.40729 0.28297 0.18453 0.0
H2560 H 0.384 0.31109 0.25381 0.0
H2561 H 0.41057 0.30042 0.22746 0.0
H2562 H 0.37964 0.23057 0.22067 0.0
H2563 H 0.35253 0.24119 0.24709 0.0
C2564 C 0.4436 0.24053 0.19585 0.0
C2565 C 0.44903 0.25374 0.17939 0.0
C2566 C 0.42555 0.24299 0.2086 0.0
C2567 C 0.4128 0.25886 0.20524 0.0
C2568 C 0.41716 0.27083 0.1876 0.0
C2569 C 0.43508 0.26818 0.17464 0.0
C2570 C 0.38287 0.29341 0.24694 0.0
C2571 C 0.36603 0.27699 0.25248 0.0
C2572 C 0.39796 0.28736 0.23162 0.0
C2573 C 0.39674 0.26475 0.22165 0.0
C2574 C 0.38071 0.24815 0.228 0.0
C2575 C 0.36535 0.25423 0.24323 0.0
H2576 H 0.66188 0.53139 0.36569 0.0
H2577 H 0.59741 0.52577 0.3305 0.0
H2578 H 0.64479 0.53349 0.40234 0.0
H2579 H 0.58037 0.52713 0.36661 0.0
H2580 H 0.55109 0.51134 0.43438 0.0
H2581 H 0.56893 0.50821 0.39839 0.0
H2582 H 0.62626 0.55698 0.43205 0.0
H2583 H 0.60811 0.56059 0.46782 0.0
C2584 C 0.64403 0.53019 0.36546 0.0
C2585 C 0.63138 0.52815 0.34427 0.0
C2586 C 0.63405 0.53162 0.38683 0.0
C2587 C 0.61073 0.53049 0.3883 0.0
C2588 C 0.59817 0.52792 0.36701 0.0
C2589 C 0.60816 0.52713 0.34589 0.0
C2590 C 0.56747 0.52156 0.43431 0.0
C2591 C 0.57766 0.53641 0.45479 0.0
C2592 C 0.57789 0.51978 0.41329 0.0
C2593 C 0.59951 0.53225 0.41143 0.0
C2594 C 0.60986 0.54678 0.43205 0.0
C2595 C 0.59919 0.54899 0.4529 0.0
H2596 H 0.30574 0.95187 0.08138 0.0
H2597 H 0.26154 0.89114 0.04529 0.0
H2598 H 0.31616 0.93198 0.11064 0.0
H2599 H 0.27132 0.87146 0.07485 0.0
H2600 H 0.31333 0.83609 0.11488 0.0
H2601 H 0.30211 0.85705 0.08722 0.0
H2602 H 0.30422 0.91441 0.14153 0.0
H2603 H 0.31673 0.89382 0.16911 0.0
C2604 C 0.29796 0.93437 0.0799 0.0
C2605 C 0.28292 0.92305 0.06095 0.0
C2606 C 0.30388 0.92297 0.09673 0.0
C2607 C 0.29477 0.90001 0.09504 0.0
C2608 C 0.27908 0.88897 0.07647 0.0
C2609 C 0.27331 0.90032 0.05959 0.0
C2610 C 0.31175 0.85328 0.12094 0.0
C2611 C 0.31605 0.86324 0.14428 0.0
C2612 C 0.30494 0.86522 0.10507 0.0
C2613 C 0.30206 0.88741 0.1121 0.0
C2614 C 0.30641 0.89742 0.13544 0.0
C2615 C 0.31335 0.8855 0.15132 0.0
H2616 H 1.00074 0.55512 0.8532 0.0
H2617 H 0.94157 0.57238 0.88179 0.0
H2618 H 0.01893 0.56018 0.8912 0.0
H2619 H 0.9603 0.57836 0.92021 0.0
H2620 H 0.05201 0.57744 0.96166 0.0
H2621 H 0.03492 0.5838 0.92628 0.0
H2622 H 0.97013 0.55355 0.94335 0.0
H2623 H 0.98699 0.54804 0.9789 0.0
C2624 C 0.99173 0.56048 0.86762 0.0
C2625 C 0.96951 0.56294 0.86444 0.0
C2626 C 1.00232 0.56361 0.88951 0.0
C2627 C 0.99104 0.56948 0.90883 0.0
C2628 C 0.96931 0.57341 0.90567 0.0
C2629 C 0.95861 0.57013 0.88367 0.0
C2630 C 0.0341 0.57238 0.95794 0.0
C2631 C 0.02092 0.56194 0.97293 0.0
C2632 C 0.02429 0.57599 0.93765 0.0
C2633 C 1.00114 0.56904 0.93186 0.0
C2634 C 0.98793 0.55943 0.94735 0.0
C2635 C 0.99769 0.55603 0.96768 0.0
H2636 H 0.28353 0.18836 0.59529 0.0
H2637 H 0.29287 0.25162 0.57277 0.0
H2638 H 0.29138 0.20813 0.63478 0.0
H2639 H 0.30067 0.2716 0.61285 0.0
H2640 H 0.28321 0.29269 0.68975 0.0
H2641 H 0.27945 0.27662 0.64881 0.0
H2642 H 0.32358 0.23243 0.6608 0.0
H2643 H 0.32743 0.24843 0.70162 0.0
C2644 C 0.28727 0.20655 0.59873 0.0
C2645 C 0.28749 0.21837 0.58073 0.0
C2646 C 0.29196 0.21789 0.62146 0.0
C2647 C 0.29679 0.24145 0.62702 0.0
C2648 C 0.29696 0.25342 0.60912 0.0
C2649 C 0.29257 0.24199 0.58618 0.0
C2650 C 0.29233 0.27972 0.68365 0.0
C2651 C 0.30547 0.27174 0.69912 0.0
C2652 C 0.29025 0.2706 0.66013 0.0
C2653 C 0.30106 0.25311 0.65153 0.0
C2654 C 0.31481 0.2457 0.66689 0.0
C2655 C 0.31708 0.25495 0.69033 0.0
H2656 H 0.60981 0.49989 0.20257 0.0
H2657 H 0.6688 0.54452 0.19059 0.0
H2658 H 0.5914 0.50307 0.16596 0.0
H2659 H 0.65019 0.54839 0.15454 0.0
H2660 H 0.60086 0.56855 0.10138 0.0
H2661 H 0.61934 0.56446 0.13746 0.0
H2662 H 0.59124 0.49366 0.12217 0.0
H2663 H 0.57345 0.49762 0.08564 0.0
C2664 C 0.61901 0.51044 0.19228 0.0
C2665 C 0.64121 0.52177 0.2002 0.0
C2666 C 0.60833 0.51227 0.17095 0.0
C2667 C 0.6189 0.52612 0.15654 0.0
C2668 C 0.641 0.53763 0.16465 0.0
C2669 C 0.65189 0.53528 0.1856 0.0
C2670 C 0.59853 0.552 0.1055 0.0
C2671 C 0.58531 0.5335 0.08985 0.0
C2672 C 0.60937 0.5496 0.12648 0.0
C2673 C 0.60716 0.52864 0.13353 0.0
C2674 C 0.59361 0.5102 0.11803 0.0
C2675 C 0.5833 0.51249 0.09672 0.0
H2676 H 0.27565 0.9296 0.90202 0.0
H2677 H 0.27526 0.88516 0.94991 0.0
H2678 H 0.28338 0.90042 0.87194 0.0
H2679 H 0.28302 0.85585 0.91959 0.0
H2680 H 0.27612 0.80372 0.84854 0.0
H2681 H 0.26707 0.83023 0.88098 0.0
H2682 H 0.31657 0.88313 0.86486 0.0
H2683 H 0.32565 0.857 0.8329 0.0
C2684 C 0.27697 0.91354 0.90613 0.0
C2685 C 0.27494 0.90987 0.92851 0.0
C2686 C 0.28157 0.89683 0.88888 0.0
C2687 C 0.28412 0.87587 0.89341 0.0
C2688 C 0.28115 0.87178 0.91551 0.0
C2689 C 0.27674 0.88863 0.9329 0.0
C2690 C 0.28537 0.82089 0.85224 0.0
C2691 C 0.30153 0.82819 0.83796 0.0
C2692 C 0.28012 0.8361 0.87077 0.0
C2693 C 0.29078 0.85892 0.87523 0.0
C2694 C 0.30765 0.86583 0.86161 0.0
C2695 C 0.31298 0.85072 0.84333 0.0
H2696 H 0.9041 0.51536 0.72081 0.0
H2697 H 0.95653 0.57345 0.74617 0.0
H2698 H 0.92339 0.50632 0.68665 0.0
H2699 H 0.97543 0.56483 0.71189 0.0
H2700 H 0.0183 0.52604 0.66812 0.0
H2701 H 0.9958 0.53562 0.69919 0.0
H2702 H 0.93662 0.51757 0.65164 0.0
H2703 H 0.95913 0.50694 0.62051 0.0
C2704 C 0.91944 0.52649 0.7188 0.0
C2705 C 0.92902 0.54493 0.73624 0.0
C2706 C 0.93048 0.52132 0.69926 0.0
C2707 C 0.95117 0.5346 0.69684 0.0
C2708 C 0.95983 0.55392 0.71357 0.0
C2709 C 0.94893 0.55897 0.73311 0.0
C2710 C 1.00045 0.5237 0.6643 0.0
C2711 C 0.99051 0.51569 0.64184 0.0
C2712 C 0.98758 0.52957 0.68206 0.0
C2713 C 0.96447 0.5277 0.6778 0.0
C2714 C 0.95439 0.5192 0.65544 0.0
C2715 C 0.9673 0.51327 0.63762 0.0
H2716 H 0.27676 0.25502 0.45041 0.0
H2717 H 0.32133 0.21048 0.42897 0.0
H2718 H 0.28277 0.27143 0.41639 0.0
H2719 H 0.32779 0.22738 0.3953 0.0
H2720 H 0.34683 0.28154 0.34857 0.0
H2721 H 0.34401 0.26799 0.38478 0.0
H2722 H 0.27233 0.25282 0.37236 0.0
H2723 H 0.27507 0.26558 0.33622 0.0
C2724 C 0.2881 0.24896 0.43865 0.0
C2725 C 0.29849 0.23136 0.44242 0.0
C2726 C 0.2915 0.25833 0.41913 0.0
C2727 C 0.30579 0.25072 0.40316 0.0
C2728 C 0.31683 0.23372 0.40735 0.0
C2729 C 0.31303 0.22398 0.4266 0.0
C2730 C 0.33051 0.27536 0.35364 0.0
C2731 C 0.3112 0.27458 0.33942 0.0
C2732 C 0.32889 0.26754 0.37431 0.0
C2733 C 0.30792 0.25942 0.38148 0.0
C2734 C 0.2887 0.25911 0.36745 0.0
C2735 C 0.29032 0.26633 0.34664 0.0
H2736 H 0.3659 0.5581 0.53329 0.0
H2737 H 0.39341 0.62658 0.52964 0.0
H2738 H 0.40131 0.54781 0.52579 0.0
H2739 H 0.42987 0.61682 0.52385 0.0
H2740 H 0.49218 0.59026 0.50029 0.0
H2741 H 0.45592 0.6012 0.50396 0.0
H2742 H 0.43535 0.54714 0.53969 0.0
H2743 H 0.47039 0.5356 0.5345 0.0
C2744 C 0.3797 0.57111 0.53118 0.0
C2745 C 0.37664 0.59322 0.53225 0.0
C2746 C 0.40038 0.56526 0.52711 0.0
C2747 C 0.41926 0.58142 0.52465 0.0
C2748 C 0.41606 0.60361 0.52541 0.0
C2749 C 0.39505 0.60935 0.52889 0.0
C2750 C 0.47969 0.58056 0.50859 0.0
C2751 C 0.48422 0.56167 0.51657 0.0
C2752 C 0.4588 0.58696 0.51095 0.0
C2753 C 0.44192 0.57499 0.52186 0.0
C2754 C 0.44701 0.5565 0.53034 0.0
C2755 C 0.46749 0.54986 0.52749 0.0
H2756 H 0.87718 0.97439 0.53927 0.0
H2757 H 0.8973 0.91302 0.54808 0.0
H2758 H 0.9159 0.9934 0.5427 0.0
H2759 H 0.93665 0.93234 0.55148 0.0
H2760 H 0.99896 0.97079 0.51946 0.0
H2761 H 0.96241 0.94919 0.52407 0.0
H2762 H 0.94931 1.00639 0.57079 0.0
H2763 H 0.98568 0.02808 0.56612 0.0
C2764 C 0.88993 0.96497 0.54214 0.0
C2765 C 0.88416 0.94213 0.54327 0.0
C2766 C 0.91217 0.97597 0.54431 0.0
C2767 C 0.92936 0.96443 0.54745 0.0
C2768 C 0.92372 0.94164 0.54902 0.0
C2769 C 0.90125 0.93063 0.5472 0.0
C2770 C 0.98841 0.9787 0.53094 0.0
C2771 C 0.99514 1.00134 0.54212 0.0
C2772 C 0.96754 0.96622 0.53372 0.0
C2773 C 0.9529 0.97615 0.54761 0.0
C2774 C 0.96012 0.99837 0.55973 0.0
C2775 C 0.98101 0.01079 0.55708 0.0
H2776 H 0.85482 0.11314 0.26124 0.0
H2777 H 0.91869 0.15652 0.28278 0.0
H2778 H 0.83768 0.14592 0.26189 0.0
H2779 H 0.90169 0.18946 0.28369 0.0
H2780 H 0.86911 0.25076 0.27408 0.0
H2781 H 0.88657 0.21811 0.2735 0.0
H2782 H 0.82196 0.17634 0.27352 0.0
H2783 H 0.80472 0.20893 0.27388 0.0
C2784 C 0.86548 0.12962 0.26626 0.0
C2785 C 0.88866 0.13112 0.27197 0.0
C2786 C 0.85539 0.14902 0.26676 0.0
C2787 C 0.8676 0.17172 0.27292 0.0
C2788 C 0.89086 0.17312 0.27858 0.0
C2789 C 0.90092 0.15369 0.27816 0.0
C2790 C 0.8584 0.23472 0.27407 0.0
C2791 C 0.83495 0.23357 0.27418 0.0
C2792 C 0.86866 0.21541 0.27378 0.0
C2793 C 0.85637 0.19322 0.27342 0.0
C2794 C 0.83289 0.19222 0.27352 0.0
C2795 C 0.82268 0.21151 0.2739 0.0
H2796 H 0.73603 0.05685 0.01905 0.0
H2797 H 0.72469 0.12457 0.03329 0.0
H2798 H 0.69554 0.04245 0.01322 0.0
H2799 H 0.68472 0.11039 0.0279 0.0
H2800 H 0.62073 0.02526 0.02756 0.0
H2801 H 0.66127 0.03786 0.03215 0.0
H2802 H 0.65472 0.09326 0.99951 0.0
H2803 H 0.61433 0.08091 0.99528 0.0
C2804 C 0.72498 0.06867 0.02097 0.0
C2805 C 0.73383 0.09192 0.02659 0.0
C2806 C 0.70168 0.06042 0.01775 0.0
C2807 C 0.68656 0.07518 0.0199 0.0
C2808 C 0.69557 0.09838 0.02561 0.0
C2809 C 0.71869 0.10656 0.02889 0.0
C2810 C 0.62791 0.04014 0.02135 0.0
C2811 C 0.614 0.0521 0.0112 0.0
C2812 C 0.65129 0.04731 0.02385 0.0
C2813 C 0.66157 0.06674 0.01636 0.0
C2814 C 0.64762 0.07848 0.00593 0.0
C2815 C 0.6243 0.0713 1.00339 0.0
H2816 H 0.22175 0.51114 0.29708 0.0
H2817 H 0.26311 0.50958 0.24085 0.0
H2818 H 0.24494 0.4903 0.3155 0.0
H2819 H 0.28569 0.48796 0.25866 0.0
H2820 H 0.33108 0.45881 0.29871 0.0
H2821 H 0.31206 0.48751 0.28898 0.0
H2822 H 0.25091 0.45327 0.31021 0.0
H2823 H 0.27025 0.42556 0.32125 0.0
C2824 C 0.23577 0.50626 0.28863 0.0
C2825 C 0.24052 0.5118 0.26744 0.0
C2826 C 0.24904 0.49429 0.29916 0.0
C2827 C 0.26718 0.48737 0.28857 0.0
C2828 C 0.27214 0.49334 0.26756 0.0
C2829 C 0.25904 0.50554 0.25719 0.0
C2830 C 0.31376 0.45784 0.30198 0.0
C2831 C 0.30208 0.43972 0.31041 0.0
C2832 C 0.30276 0.47411 0.29608 0.0
C2833 C 0.27982 0.47247 0.29835 0.0
C2834 C 0.26857 0.45518 0.30827 0.0
C2835 C 0.27961 0.43909 0.31436 0.0
H2836 H 0.2315 0.39019 0.02987 0.0
H2837 H 0.27498 0.45395 0.05856 0.0
H2838 H 0.20183 0.40966 0.02139 0.0
H2839 H 0.24526 0.47333 0.05069 0.0
H2840 H 0.19857 0.50227 0.00883 0.0
H2841 H 0.22674 0.48158 0.0179 0.0
H2842 H 0.17603 0.43198 0.03775 0.0
H2843 H 0.1476 0.45216 0.02758 0.0
C2844 C 0.23461 0.40833 0.03467 0.0
C2845 C 0.25564 0.42054 0.04472 0.0
C2846 C 0.21759 0.4195 0.02987 0.0
C2847 C 0.22123 0.4431 0.0351 0.0
C2848 C 0.24203 0.45519 0.04594 0.0
C2849 C 0.25902 0.44406 0.05063 0.0
C2850 C 0.19333 0.48677 0.01478 0.0
C2851 C 0.17077 0.47889 0.01742 0.0
C2852 C 0.20956 0.47506 0.02033 0.0
C2853 C 0.20372 0.4552 0.02879 0.0
C2854 C 0.18112 0.44714 0.03117 0.0
C2855 C 0.16485 0.45885 0.02556 0.0
H2856 H 0.86205 0.99084 0.28071 0.0
H2857 H 0.91369 0.96207 0.24804 0.0
H2858 H 0.84201 0.95277 0.28264 0.0
H2859 H 0.89398 0.92482 0.2495 0.0
H2860 H 0.86596 0.8579 0.26931 0.0
H2861 H 0.88414 0.89619 0.26811 0.0
H2862 H 0.82046 0.91609 0.26886 0.0
H2863 H 0.80236 0.87763 0.2706 0.0
C2864 C 0.86918 0.97661 0.27368 0.0
C2865 C 0.88996 0.98041 0.26424 0.0
C2866 C 0.85755 0.95437 0.27479 0.0
C2867 C 0.86606 0.93468 0.26659 0.0
C2868 C 0.88654 0.93874 0.25675 0.0
C2869 C 0.89802 0.96068 0.25569 0.0
C2870 C 0.85563 0.87028 0.26917 0.0
C2871 C 0.83232 0.86382 0.26997 0.0
C2872 C 0.86621 0.89271 0.2683 0.0
C2873 C 0.85423 0.91029 0.26811 0.0
C2874 C 0.83086 0.90381 0.26911 0.0
C2875 C 0.82026 0.88131 0.26997 0.0
H2876 H 0.74802 0.10379 0.72115 0.0
H2877 H 0.69116 0.12241 0.68929 0.0
H2878 H 0.76746 0.14286 0.72913 0.0
H2879 H 0.71071 0.16156 0.6975 0.0
H2880 H 0.76041 0.22941 0.70597 0.0
H2881 H 0.74426 0.18973 0.691 0.0
H2882 H 0.75888 0.17479 0.75729 0.0
H2883 H 0.77501 0.21418 0.77224 0.0
C2884 C 0.73981 0.11611 0.71544 0.0
C2885 C 0.71786 0.11002 0.70495 0.0
C2886 C 0.75093 0.1385 0.72014 0.0
C2887 C 0.74039 0.15523 0.71434 0.0
C2888 C 0.7192 0.14897 0.70218 0.0
C2889 C 0.70801 0.12654 0.69753 0.0
C2890 C 0.76016 0.21764 0.71733 0.0
C2891 C 0.76896 0.22493 0.7403 0.0
C2892 C 0.75092 0.19497 0.70875 0.0
C2893 C 0.75058 0.1792 0.72292 0.0
C2894 C 0.75932 0.18653 0.74586 0.0
C2895 C 0.76835 0.20914 0.75448 0.0
loop_
_geom_bond_atom_site_label_1
_geom_bond_atom_site_label_2
_geom_bond_distance
_geom_bond_site_symmetry_2
_ccdc_geom_bond_type
C0 O1 1.306 . S
C0 O3 1.160 . S
O1 C0 1.306 . S
O1 Cd2 2.228 . S
Cd2 O1 2.228 . S
Cd2 O6 2.273 . S
Cd2 O10 2.277 . S
O3 C0 1.160 . S
O3 Cd4 2.203 . S
Cd4 O3 2.203 . S
Cd4 O6 2.411 . S
Cd4 O7 2.333 . S
Cd4 O8 2.352 . S
Cd4 O12 2.277 . S
Cd4 O13 2.356 . S
C5 O10 1.209 . S
C5 O12 1.226 . S
O6 Cd2 2.273 . S
O6 Cd4 2.411 . S
O6 C9 1.320 . S
O7 Cd4 2.333 . S
O7 C9 1.214 . S
O8 Cd4 2.352 . S
O8 C11 1.258 . S
C9 O6 1.320 . S
C9 O7 1.214 . S
O10 Cd2 2.277 . S
O10 C5 1.209 . S
C11 O8 1.258 . S
C11 O13 1.282 . S
O12 Cd4 2.277 . S
O12 C5 1.226 . S
O13 Cd4 2.356 . S
O13 C11 1.282 . S
C14 O15 1.306 . S
C14 O17 1.160 . S
O15 C14 1.306 . S
O15 Cd16 2.228 1_655 S
Cd16 O15 2.228 1_455 S
Cd16 O20 2.273 . S
Cd16 O24 2.277 1_455 S
O17 C14 1.160 . S
O17 Cd18 2.203 1_655 S
Cd18 O17 2.203 1_455 S
Cd18 O20 2.411 . S
Cd18 O21 2.333 . S
Cd18 O22 2.352 . S
Cd18 O26 2.277 1_455 S
Cd18 O27 2.356 . S
C19 O24 1.209 . S
C19 O26 1.226 . S
O20 Cd16 2.273 . S
O20 Cd18 2.411 . S
O20 C23 1.320 . S
O21 Cd18 2.333 . S
O21 C23 1.214 . S
O22 Cd18 2.352 . S
O22 C25 1.258 . S
C23 O20 1.320 . S
C23 O21 1.214 . S
O24 Cd16 2.277 1_655 S
O24 C19 1.209 . S
C25 O22 1.258 . S
C25 O27 1.282 . S
O26 Cd18 2.277 1_655 S
O26 C19 1.226 . S
O27 Cd18 2.356 . S
O27 C25 1.282 . S
C28 O29 1.306 . S
C28 O31 1.160 . S
O29 C28 1.306 . S
O29 Cd30 2.228 . S
Cd30 O29 2.228 . S
Cd30 O34 2.273 . S
Cd30 O38 2.277 . S
O31 C28 1.160 . S
O31 Cd32 2.203 . S
Cd32 O31 2.203 . S
Cd32 O34 2.411 . S
Cd32 O35 2.333 . S
Cd32 O36 2.352 . S
Cd32 O40 2.277 . S
Cd32 O41 2.356 . S
C33 O38 1.209 . S
C33 O40 1.226 . S
O34 Cd30 2.273 . S
O34 Cd32 2.411 . S
O34 C37 1.320 . S
O35 Cd32 2.333 . S
O35 C37 1.214 . S
O36 Cd32 2.352 . S
O36 C39 1.258 . S
C37 O34 1.320 . S
C37 O35 1.214 . S
O38 Cd30 2.277 . S
O38 C33 1.209 . S
C39 O36 1.258 . S
C39 O41 1.282 . S
O40 Cd32 2.277 . S
O40 C33 1.226 . S
O41 Cd32 2.356 . S
O41 C39 1.282 . S
C42 O43 1.306 . S
C42 O45 1.160 . S
O43 C42 1.306 . S
O43 Cd44 2.228 . S
Cd44 O43 2.228 . S
Cd44 O48 2.273 . S
Cd44 O52 2.277 . S
O45 C42 1.160 . S
O45 Cd46 2.203 . S
Cd46 O45 2.203 . S
Cd46 O48 2.411 . S
Cd46 O49 2.333 . S
Cd46 O50 2.352 . S
Cd46 O54 2.277 . S
Cd46 O55 2.356 . S
C47 O52 1.209 . S
C47 O54 1.226 . S
O48 Cd44 2.273 . S
O48 Cd46 2.411 . S
O48 C51 1.320 . S
O49 Cd46 2.333 . S
O49 C51 1.214 . S
O50 Cd46 2.352 . S
O50 C53 1.258 . S
C51 O48 1.320 . S
C51 O49 1.214 . S
O52 Cd44 2.277 . S
O52 C47 1.209 . S
C53 O50 1.258 . S
C53 O55 1.282 . S
O54 Cd46 2.277 . S
O54 C47 1.226 . S
O55 Cd46 2.356 . S
O55 C53 1.282 . S
C56 O57 1.306 . S
C56 O59 1.160 . S
O57 C56 1.306 . S
O57 Cd58 2.228 . S
Cd58 O57 2.228 . S
Cd58 O62 2.273 . S
Cd58 O66 2.277 . S
O59 C56 1.160 . S
O59 Cd60 2.203 . S
Cd60 O59 2.203 . S
Cd60 O62 2.411 . S
Cd60 O63 2.333 . S
Cd60 O64 2.352 . S
Cd60 O68 2.277 . S
Cd60 O69 2.356 . S
C61 O66 1.209 . S
C61 O68 1.226 . S
O62 Cd58 2.273 . S
O62 Cd60 2.411 . S
O62 C65 1.320 . S
O63 Cd60 2.333 . S
O63 C65 1.214 . S
O64 Cd60 2.352 . S
O64 C67 1.258 . S
C65 O62 1.320 . S
C65 O63 1.214 . S
O66 Cd58 2.277 . S
O66 C61 1.209 . S
C67 O64 1.258 . S
C67 O69 1.282 . S
O68 Cd60 2.277 . S
O68 C61 1.226 . S
O69 Cd60 2.356 . S
O69 C67 1.282 . S
C70 O71 1.306 . S
C70 O73 1.160 . S
O71 C70 1.306 . S
O71 Cd72 2.228 . S
Cd72 O71 2.228 . S
Cd72 O76 2.273 . S
Cd72 O80 2.277 . S
O73 C70 1.160 . S
O73 Cd74 2.203 . S
Cd74 O73 2.203 . S
Cd74 O76 2.411 . S
Cd74 O77 2.333 . S
Cd74 O78 2.352 . S
Cd74 O82 2.277 . S
Cd74 O83 2.356 . S
C75 O80 1.209 . S
C75 O82 1.226 . S
O76 Cd72 2.273 . S
O76 Cd74 2.411 . S
O76 C79 1.320 . S
O77 Cd74 2.333 . S
O77 C79 1.214 . S
O78 Cd74 2.352 . S
O78 C81 1.258 . S
C79 O76 1.320 . S
C79 O77 1.214 . S
O80 Cd72 2.277 . S
O80 C75 1.209 . S
C81 O78 1.258 . S
C81 O83 1.282 . S
O82 Cd74 2.277 . S
O82 C75 1.226 . S
O83 Cd74 2.356 . S
O83 C81 1.282 . S
C84 O85 1.306 . S
C84 O87 1.160 . S
O85 C84 1.306 . S
O85 Cd86 2.228 . S
Cd86 O85 2.228 . S
Cd86 O90 2.273 . S
Cd86 O94 2.277 . S
O87 C84 1.160 . S
O87 Cd88 2.203 . S
Cd88 O87 2.203 . S
Cd88 O90 2.411 . S
Cd88 O91 2.333 . S
Cd88 O92 2.352 . S
Cd88 O96 2.277 . S
Cd88 O97 2.356 . S
C89 O94 1.209 . S
C89 O96 1.226 . S
O90 Cd86 2.273 . S
O90 Cd88 2.411 . S
O90 C93 1.320 . S
O91 Cd88 2.333 . S
O91 C93 1.214 . S
O92 Cd88 2.352 . S
O92 C95 1.258 . S
C93 O90 1.320 . S
C93 O91 1.214 . S
O94 Cd86 2.277 . S
O94 C89 1.209 . S
C95 O92 1.258 . S
C95 O97 1.282 . S
O96 Cd88 2.277 . S
O96 C89 1.226 . S
O97 Cd88 2.356 . S
O97 C95 1.282 . S
C98 O99 1.306 . S
C98 O101 1.160 . S
O99 C98 1.306 . S
O99 Cd100 2.228 1_655 S
Cd100 O99 2.228 1_455 S
Cd100 O104 2.273 . S
Cd100 O108 2.277 . S
O101 C98 1.160 . S
O101 Cd102 2.203 1_655 S
Cd102 O101 2.203 1_455 S
Cd102 O104 2.411 . S
Cd102 O105 2.333 . S
Cd102 O106 2.352 . S
Cd102 O110 2.277 . S
Cd102 O111 2.356 . S
C103 O108 1.209 . S
C103 O110 1.226 . S
O104 Cd100 2.273 . S
O104 Cd102 2.411 . S
O104 C107 1.320 . S
O105 Cd102 2.333 . S
O105 C107 1.214 . S
O106 Cd102 2.352 . S
O106 C109 1.258 . S
C107 O104 1.320 . S
C107 O105 1.214 . S
O108 Cd100 2.277 . S
O108 C103 1.209 . S
C109 O106 1.258 . S
C109 O111 1.282 . S
O110 Cd102 2.277 . S
O110 C103 1.226 . S
O111 Cd102 2.356 . S
O111 C109 1.282 . S
C112 O113 1.306 1_545 S
C112 O115 1.160 . S
O113 C112 1.306 1_565 S
O113 Cd114 2.228 . S
Cd114 O113 2.228 . S
Cd114 O118 2.273 1_565 S
Cd114 O122 2.277 . S
O115 C112 1.160 . S
O115 Cd116 2.203 . S
Cd116 O115 2.203 . S
Cd116 O118 2.411 . S
Cd116 O119 2.333 . S
Cd116 O120 2.352 . S
Cd116 O124 2.277 1_545 S
Cd116 O125 2.356 . S
C117 O122 1.209 . S
C117 O124 1.226 . S
O118 Cd114 2.273 1_545 S
O118 Cd116 2.411 . S
O118 C121 1.320 . S
O119 Cd116 2.333 . S
O119 C121 1.214 . S
O120 Cd116 2.352 . S
O120 C123 1.258 . S
C121 O118 1.320 . S
C121 O119 1.214 . S
O122 Cd114 2.277 . S
O122 C117 1.209 . S
C123 O120 1.258 . S
C123 O125 1.282 . S
O124 Cd116 2.277 1_565 S
O124 C117 1.226 . S
O125 Cd116 2.356 . S
O125 C123 1.282 . S
C126 O127 1.306 . S
C126 O129 1.160 . S
O127 C126 1.306 . S
O127 Cd128 2.228 . S
Cd128 O127 2.228 . S
Cd128 O132 2.273 . S
Cd128 O136 2.277 . S
O129 C126 1.160 . S
O129 Cd130 2.203 . S
Cd130 O129 2.203 . S
Cd130 O132 2.411 . S
Cd130 O133 2.333 . S
Cd130 O134 2.352 . S
Cd130 O138 2.277 . S
Cd130 O139 2.356 . S
C131 O136 1.209 . S
C131 O138 1.226 . S
O132 Cd128 2.273 . S
O132 Cd130 2.411 . S
O132 C135 1.320 . S
O133 Cd130 2.333 . S
O133 C135 1.214 . S
O134 Cd130 2.352 . S
O134 C137 1.258 . S
C135 O132 1.320 . S
C135 O133 1.214 . S
O136 Cd128 2.277 . S
O136 C131 1.209 . S
C137 O134 1.258 . S
C137 O139 1.282 . S
O138 Cd130 2.277 . S
O138 C131 1.226 . S
O139 Cd130 2.356 . S
O139 C137 1.282 . S
C140 O141 1.306 . S
C140 O143 1.160 . S
O141 C140 1.306 . S
O141 Cd142 2.228 . S
Cd142 O141 2.228 . S
Cd142 O146 2.273 . S
Cd142 O150 2.277 . S
O143 C140 1.160 . S
O143 Cd144 2.203 . S
Cd144 O143 2.203 . S
Cd144 O146 2.411 . S
Cd144 O147 2.333 . S
Cd144 O148 2.352 1_545 S
Cd144 O152 2.277 . S
Cd144 O153 2.356 1_545 S
C145 O150 1.209 . S
C145 O152 1.226 . S
O146 Cd142 2.273 . S
O146 Cd144 2.411 . S
O146 C149 1.320 . S
O147 Cd144 2.333 . S
O147 C149 1.214 . S
O148 Cd144 2.352 1_565 S
O148 C151 1.258 . S
C149 O146 1.320 . S
C149 O147 1.214 . S
O150 Cd142 2.277 . S
O150 C145 1.209 . S
C151 O148 1.258 . S
C151 O153 1.282 . S
O152 Cd144 2.277 . S
O152 C145 1.226 . S
O153 Cd144 2.356 1_565 S
O153 C151 1.282 . S
C154 O155 1.313 . S
C154 O157 1.160 . S
O155 C154 1.313 . S
O155 Cd156 2.221 1_554 S
Cd156 O155 2.221 1_556 S
Cd156 O160 2.273 1_556 S
Cd156 O164 2.277 . S
O157 C154 1.160 . S
O157 Cd158 2.203 . S
Cd158 O157 2.203 . S
Cd158 O160 2.411 . S
Cd158 O161 2.333 . S
Cd158 O162 2.352 . S
Cd158 O166 2.277 1_554 S
Cd158 O167 2.356 . S
C159 O164 1.209 . S
C159 O166 1.226 . S
O160 Cd156 2.273 1_554 S
O160 Cd158 2.411 . S
O160 C163 1.320 . S
O161 Cd158 2.333 . S
O161 C163 1.214 . S
O162 Cd158 2.352 . S
O162 C165 1.258 . S
C163 O160 1.320 . S
C163 O161 1.214 . S
O164 Cd156 2.277 . S
O164 C159 1.209 . S
C165 O162 1.258 . S
C165 O167 1.282 . S
O166 Cd158 2.277 1_556 S
O166 C159 1.226 . S
O167 Cd158 2.356 . S
O167 C165 1.282 . S
C168 O169 1.306 . S
C168 O171 1.160 . S
O169 C168 1.306 . S
O169 Cd170 2.228 1_554 S
Cd170 O169 2.228 1_556 S
Cd170 O174 2.273 1_556 S
Cd170 O178 2.277 . S
O171 C168 1.160 . S
O171 Cd172 2.203 . S
Cd172 O171 2.203 . S
Cd172 O174 2.411 . S
Cd172 O175 2.333 . S
Cd172 O176 2.352 . S
Cd172 O180 2.277 1_554 S
Cd172 O181 2.356 . S
C173 O178 1.209 . S
C173 O180 1.226 . S
O174 Cd170 2.273 1_554 S
O174 Cd172 2.411 . S
O174 C177 1.320 . S
O175 Cd172 2.333 . S
O175 C177 1.214 . S
O176 Cd172 2.352 . S
O176 C179 1.258 . S
C177 O174 1.320 . S
C177 O175 1.214 . S
O178 Cd170 2.277 . S
O178 C173 1.209 . S
C179 O176 1.258 . S
C179 O181 1.282 . S
O180 Cd172 2.277 1_556 S
O180 C173 1.226 . S
O181 Cd172 2.356 . S
O181 C179 1.282 . S
C182 O183 1.306 . S
C182 O185 1.160 . S
O183 C182 1.306 . S
O183 Cd184 2.228 . S
Cd184 O183 2.228 . S
Cd184 O188 2.273 . S
Cd184 O192 2.277 . S
O185 C182 1.160 . S
O185 Cd186 2.203 . S
Cd186 O185 2.203 . S
Cd186 O188 2.411 . S
Cd186 O189 2.333 . S
Cd186 O190 2.352 1_554 S
Cd186 O194 2.277 . S
Cd186 O195 2.356 1_554 S
C187 O192 1.209 . S
C187 O194 1.226 . S
O188 Cd184 2.273 . S
O188 Cd186 2.411 . S
O188 C191 1.320 . S
O189 Cd186 2.333 . S
O189 C191 1.214 . S
O190 Cd186 2.352 1_556 S
O190 C193 1.258 . S
C191 O188 1.320 . S
C191 O189 1.214 . S
O192 Cd184 2.277 . S
O192 C187 1.209 . S
C193 O190 1.258 . S
C193 O195 1.282 . S
O194 Cd186 2.277 . S
O194 C187 1.226 . S
O195 Cd186 2.356 1_556 S
O195 C193 1.282 . S
C196 O197 1.306 . S
C196 O199 1.160 . S
O197 C196 1.306 . S
O197 Cd198 2.228 . S
Cd198 O197 2.228 . S
Cd198 O202 2.273 . S
Cd198 O206 2.277 . S
O199 C196 1.160 . S
O199 Cd200 2.203 . S
Cd200 O199 2.203 . S
Cd200 O202 2.411 . S
Cd200 O203 2.333 . S
Cd200 O204 2.352 . S
Cd200 O208 2.277 . S
Cd200 O209 2.356 . S
C201 O206 1.209 . S
C201 O208 1.226 . S
O202 Cd198 2.273 . S
O202 Cd200 2.411 . S
O202 C205 1.320 . S
O203 Cd200 2.333 . S
O203 C205 1.214 . S
O204 Cd200 2.352 . S
O204 C207 1.258 . S
C205 O202 1.320 . S
C205 O203 1.214 . S
O206 Cd198 2.277 . S
O206 C201 1.209 . S
C207 O204 1.258 . S
C207 O209 1.282 . S
O208 Cd200 2.277 . S
O208 C201 1.226 . S
O209 Cd200 2.356 . S
O209 C207 1.282 . S
C210 O211 1.306 . S
C210 O213 1.160 . S
O211 C210 1.306 . S
O211 Cd212 2.228 . S
Cd212 O211 2.228 . S
Cd212 O216 2.273 . S
Cd212 O220 2.277 . S
O213 C210 1.160 . S
O213 Cd214 2.203 . S
Cd214 O213 2.203 . S
Cd214 O216 2.411 . S
Cd214 O217 2.333 . S
Cd214 O218 2.352 . S
Cd214 O222 2.277 . S
Cd214 O223 2.356 . S
C215 O220 1.209 . S
C215 O222 1.226 . S
O216 Cd212 2.273 . S
O216 Cd214 2.411 . S
O216 C219 1.320 . S
O217 Cd214 2.333 . S
O217 C219 1.214 . S
O218 Cd214 2.352 . S
O218 C221 1.258 . S
C219 O216 1.320 . S
C219 O217 1.214 . S
O220 Cd212 2.277 . S
O220 C215 1.209 . S
C221 O218 1.258 . S
C221 O223 1.282 . S
O222 Cd214 2.277 . S
O222 C215 1.226 . S
O223 Cd214 2.356 . S
O223 C221 1.282 . S
C224 O225 1.306 . S
C224 O227 1.160 . S
O225 C224 1.306 . S
O225 Cd226 2.228 . S
Cd226 O225 2.228 . S
Cd226 O230 2.273 . S
Cd226 O234 2.277 . S
O227 C224 1.160 . S
O227 Cd228 2.203 . S
Cd228 O227 2.203 . S
Cd228 O230 2.411 . S
Cd228 O231 2.333 . S
Cd228 O232 2.352 . S
Cd228 O236 2.277 . S
Cd228 O237 2.356 . S
C229 O234 1.209 . S
C229 O236 1.226 . S
O230 Cd226 2.273 . S
O230 Cd228 2.411 . S
O230 C233 1.320 . S
O231 Cd228 2.333 . S
O231 C233 1.214 . S
O232 Cd228 2.352 . S
O232 C235 1.258 . S
C233 O230 1.320 . S
C233 O231 1.214 . S
O234 Cd226 2.277 . S
O234 C229 1.209 . S
C235 O232 1.258 . S
C235 O237 1.282 . S
O236 Cd228 2.277 . S
O236 C229 1.226 . S
O237 Cd228 2.356 . S
O237 C235 1.282 . S
C238 O239 1.306 . S
C238 O241 1.160 . S
O239 C238 1.306 . S
O239 Cd240 2.228 . S
Cd240 O239 2.228 . S
Cd240 O244 2.273 . S
Cd240 O248 2.277 . S
O241 C238 1.160 . S
O241 Cd242 2.203 . S
Cd242 O241 2.203 . S
Cd242 O244 2.411 . S
Cd242 O245 2.333 . S
Cd242 O246 2.352 . S
Cd242 O250 2.277 . S
Cd242 O251 2.356 . S
C243 O248 1.209 . S
C243 O250 1.226 . S
O244 Cd240 2.273 . S
O244 Cd242 2.411 . S
O244 C247 1.320 . S
O245 Cd242 2.333 . S
O245 C247 1.214 . S
O246 Cd242 2.352 . S
O246 C249 1.258 . S
C247 O244 1.320 . S
C247 O245 1.214 . S
O248 Cd240 2.277 . S
O248 C243 1.209 . S
C249 O246 1.258 . S
C249 O251 1.282 . S
O250 Cd242 2.277 . S
O250 C243 1.226 . S
O251 Cd242 2.356 . S
O251 C249 1.282 . S
C252 O253 1.306 . S
C252 O255 1.160 . S
O253 C252 1.306 . S
O253 Cd254 2.228 . S
Cd254 O253 2.228 . S
Cd254 O258 2.273 . S
Cd254 O262 2.277 . S
O255 C252 1.160 . S
O255 Cd256 2.203 . S
Cd256 O255 2.203 . S
Cd256 O258 2.411 . S
Cd256 O259 2.333 . S
Cd256 O260 2.352 . S
Cd256 O264 2.277 . S
Cd256 O265 2.356 . S
C257 O262 1.209 . S
C257 O264 1.226 . S
O258 Cd254 2.273 . S
O258 Cd256 2.411 . S
O258 C261 1.320 . S
O259 Cd256 2.333 . S
O259 C261 1.214 . S
O260 Cd256 2.352 . S
O260 C263 1.258 . S
C261 O258 1.320 . S
C261 O259 1.214 . S
O262 Cd254 2.277 . S
O262 C257 1.209 . S
C263 O260 1.258 . S
C263 O265 1.282 . S
O264 Cd256 2.277 . S
O264 C257 1.226 . S
O265 Cd256 2.356 . S
O265 C263 1.282 . S
C266 O267 1.306 . S
C266 O269 1.160 . S
O267 C266 1.306 . S
O267 Cd268 2.228 . S
Cd268 O267 2.228 . S
Cd268 O272 2.273 . S
Cd268 O276 2.277 . S
O269 C266 1.160 . S
O269 Cd270 2.203 . S
Cd270 O269 2.203 . S
Cd270 O272 2.411 . S
Cd270 O273 2.333 . S
Cd270 O274 2.352 . S
Cd270 O278 2.277 . S
Cd270 O279 2.356 . S
C271 O276 1.209 . S
C271 O278 1.226 . S
O272 Cd268 2.273 . S
O272 Cd270 2.411 . S
O272 C275 1.320 . S
O273 Cd270 2.333 . S
O273 C275 1.214 . S
O274 Cd270 2.352 . S
O274 C277 1.258 . S
C275 O272 1.320 . S
C275 O273 1.214 . S
O276 Cd268 2.277 . S
O276 C271 1.209 . S
C277 O274 1.258 . S
C277 O279 1.282 . S
O278 Cd270 2.277 . S
O278 C271 1.226 . S
O279 Cd270 2.356 . S
O279 C277 1.282 . S
C280 O281 1.306 . S
C280 O283 1.160 . S
O281 C280 1.306 . S
O281 Cd282 2.228 . S
Cd282 O281 2.228 . S
Cd282 O286 2.273 . S
Cd282 O290 2.277 . S
O283 C280 1.160 . S
O283 Cd284 2.203 . S
Cd284 O283 2.203 . S
Cd284 O286 2.411 . S
Cd284 O287 2.333 . S
Cd284 O288 2.352 1_554 S
Cd284 O292 2.277 . S
Cd284 O293 2.356 1_554 S
C285 O290 1.209 . S
C285 O292 1.226 . S
O286 Cd282 2.273 . S
O286 Cd284 2.411 . S
O286 C289 1.320 . S
O287 Cd284 2.333 . S
O287 C289 1.214 . S
O288 Cd284 2.352 1_556 S
O288 C291 1.258 . S
C289 O286 1.320 . S
C289 O287 1.214 . S
O290 Cd282 2.277 . S
O290 C285 1.209 . S
C291 O288 1.258 . S
C291 O293 1.282 . S
O292 Cd284 2.277 . S
O292 C285 1.226 . S
O293 Cd284 2.356 1_556 S
O293 C291 1.282 . S
C294 O295 1.306 . S
C294 O297 1.160 . S
O295 C294 1.306 . S
O295 Cd296 2.228 . S
Cd296 O295 2.228 . S
Cd296 O300 2.273 . S
Cd296 O304 2.277 . S
O297 C294 1.160 . S
O297 Cd298 2.203 . S
Cd298 O297 2.203 . S
Cd298 O300 2.411 . S
Cd298 O301 2.333 . S
Cd298 O302 2.352 . S
Cd298 O306 2.277 . S
Cd298 O307 2.356 . S
C299 O304 1.209 . S
C299 O306 1.226 . S
O300 Cd296 2.273 . S
O300 Cd298 2.411 . S
O300 C303 1.320 . S
O301 Cd298 2.333 . S
O301 C303 1.214 . S
O302 Cd298 2.352 . S
O302 C305 1.258 . S
C303 O300 1.320 . S
C303 O301 1.214 . S
O304 Cd296 2.277 . S
O304 C299 1.209 . S
C305 O302 1.258 . S
C305 O307 1.282 . S
O306 Cd298 2.277 . S
O306 C299 1.226 . S
O307 Cd298 2.356 . S
O307 C305 1.282 . S
C308 O309 1.306 . S
C308 O311 1.160 . S
O309 C308 1.306 . S
O309 Cd310 2.228 . S
Cd310 O309 2.228 . S
Cd310 O314 2.273 . S
Cd310 O318 2.277 . S
O311 C308 1.160 . S
O311 Cd312 2.203 . S
Cd312 O311 2.203 . S
Cd312 O314 2.411 . S
Cd312 O315 2.333 . S
Cd312 O316 2.352 . S
Cd312 O320 2.277 . S
Cd312 O321 2.356 . S
C313 O318 1.209 . S
C313 O320 1.226 . S
O314 Cd310 2.273 . S
O314 Cd312 2.411 . S
O314 C317 1.320 . S
O315 Cd312 2.333 . S
O315 C317 1.214 . S
O316 Cd312 2.352 . S
O316 C319 1.258 . S
C317 O314 1.320 . S
C317 O315 1.214 . S
O318 Cd310 2.277 . S
O318 C313 1.209 . S
C319 O316 1.258 . S
C319 O321 1.282 . S
O320 Cd312 2.277 . S
O320 C313 1.226 . S
O321 Cd312 2.356 . S
O321 C319 1.282 . S
C322 O323 1.306 . S
C322 O325 1.160 . S
O323 C322 1.306 . S
O323 Cd324 2.228 . S
Cd324 O323 2.228 . S
Cd324 O328 2.273 . S
Cd324 O332 2.277 . S
O325 C322 1.160 . S
O325 Cd326 2.203 . S
Cd326 O325 2.203 . S
Cd326 O328 2.411 . S
Cd326 O329 2.333 . S
Cd326 O330 2.352 . S
Cd326 O334 2.277 . S
Cd326 O335 2.356 . S
C327 O332 1.209 . S
C327 O334 1.226 . S
O328 Cd324 2.273 . S
O328 Cd326 2.411 . S
O328 C331 1.320 . S
O329 Cd326 2.333 . S
O329 C331 1.214 . S
O330 Cd326 2.352 . S
O330 C333 1.258 . S
C331 O328 1.320 . S
C331 O329 1.214 . S
O332 Cd324 2.277 . S
O332 C327 1.209 . S
C333 O330 1.258 . S
C333 O335 1.282 . S
O334 Cd326 2.277 . S
O334 C327 1.226 . S
O335 Cd326 2.356 . S
O335 C333 1.282 . S
Eu336 C345 2.828 . S
Eu336 O347 2.392 . S
Eu336 O349 2.418 . S
Eu336 O354 2.373 . S
Eu336 O357 2.488 . S
Eu336 O358 2.471 1_554 S
Eu336 O359 2.349 1_554 S
Eu337 O346 2.373 . S
Eu337 O350 2.487 1_544 S
Eu337 O351 2.471 1_545 S
Eu337 O352 2.349 . S
Eu337 O355 2.388 1_554 S
Eu337 O356 2.418 1_554 S
Eu337 C366 2.828 1_545 S
C338 O356 1.244 . S
C338 O359 1.265 . S
C339 C340 1.379 1_554 S
C339 C343 1.373 . S
C339 C345 1.505 . S
C340 C339 1.379 1_556 S
C340 C342 1.369 . S
C340 H368 0.930 . S
C341 C343 1.383 . S
C341 C344 1.382 1_554 S
C341 H369 0.930 . S
C342 C340 1.369 . S
C342 C344 1.392 . S
C342 H370 0.930 . S
C343 C339 1.373 . S
C343 C341 1.383 . S
C343 H371 0.931 . S
C344 C341 1.382 1_556 S
C344 C342 1.392 . S
C345 Eu336 2.828 . S
C345 C339 1.505 . S
C345 O357 1.249 . S
C345 O358 1.244 1_554 S
O346 Eu337 2.373 . S
O346 C348 1.258 . S
O347 Eu336 2.392 . S
O347 C348 1.242 . S
C348 O346 1.258 . S
C348 O347 1.242 . S
O349 Eu336 2.418 . S
O349 C353 1.244 . S
O350 Eu337 2.487 1_566 S
O350 C366 1.214 1_556 S
O351 Eu337 2.471 1_565 S
O351 C366 1.244 . S
O352 Eu337 2.349 . S
O352 C353 1.265 . S
C353 O349 1.244 . S
C353 O352 1.265 . S
O354 Eu336 2.373 . S
O354 C367 1.258 . S
O355 Eu337 2.388 1_556 S
O355 C367 1.241 1_556 S
O356 Eu337 2.418 1_556 S
O356 C338 1.244 . S
O357 Eu336 2.488 . S
O357 C345 1.249 . S
O358 Eu336 2.471 1_556 S
O358 C345 1.244 1_556 S
O359 Eu336 2.349 1_556 S
O359 C338 1.265 . S
C360 C361 1.379 . S
C360 C364 1.373 . S
C360 C366 1.505 . S
C361 C360 1.379 . S
C361 C363 1.369 . S
C361 H372 0.930 . S
C362 C364 1.383 . S
C362 C365 1.382 . S
C362 H373 0.930 . S
C363 C361 1.369 . S
C363 C365 1.392 . S
C363 H374 0.930 . S
C364 C360 1.373 . S
C364 C362 1.383 . S
C364 H375 0.931 1_554 S
C365 C362 1.382 . S
C365 C363 1.392 . S
C366 Eu337 2.828 1_565 S
C366 O350 1.214 1_554 S
C366 O351 1.244 . S
C366 C360 1.505 . S
C367 O354 1.258 . S
C367 O355 1.241 1_554 S
H368 C340 0.930 . S
H369 C341 0.930 . S
H370 C342 0.930 . S
H371 C343 0.931 . S
H372 C361 0.930 . S
H373 C362 0.930 . S
H374 C363 0.930 . S
H375 C364 0.931 1_556 S
Eu376 C385 2.828 . S
Eu376 O387 2.392 . S
Eu376 O389 2.418 . S
Eu376 O394 2.373 . S
Eu376 O397 2.488 . S
Eu376 O398 2.471 . S
Eu376 O399 2.349 . S
Eu377 O386 2.373 . S
Eu377 O390 2.488 . S
Eu377 O391 2.471 . S
Eu377 O392 2.349 . S
Eu377 O395 2.392 . S
Eu377 O396 2.418 . S
Eu377 C406 2.828 . S
C378 O396 1.244 . S
C378 O399 1.265 . S
C379 C380 1.379 . S
C379 C383 1.373 . S
C379 C385 1.505 . S
C380 C379 1.379 . S
C380 C382 1.369 . S
C380 H408 0.930 . S
C381 C383 1.383 . S
C381 C384 1.382 . S
C381 H409 0.930 . S
C382 C380 1.369 . S
C382 C384 1.392 . S
C382 H410 0.930 . S
C383 C379 1.373 . S
C383 C381 1.383 . S
C383 H411 0.931 . S
C384 C381 1.382 . S
C384 C382 1.392 . S
C385 Eu376 2.828 . S
C385 C379 1.505 . S
C385 O397 1.249 . S
C385 O398 1.244 . S
O386 Eu377 2.373 . S
O386 C388 1.258 . S
O387 Eu376 2.392 . S
O387 C388 1.242 . S
C388 O386 1.258 . S
C388 O387 1.242 . S
O389 Eu376 2.418 . S
O389 C393 1.244 . S
O390 Eu377 2.488 . S
O390 C406 1.249 . S
O391 Eu377 2.471 . S
O391 C406 1.244 . S
O392 Eu377 2.349 . S
O392 C393 1.265 . S
C393 O389 1.244 . S
C393 O392 1.265 . S
O394 Eu376 2.373 . S
O394 C407 1.258 . S
O395 Eu377 2.392 . S
O395 C407 1.242 . S
O396 Eu377 2.418 . S
O396 C378 1.244 . S
O397 Eu376 2.488 . S
O397 C385 1.249 . S
O398 Eu376 2.471 . S
O398 C385 1.244 . S
O399 Eu376 2.349 . S
O399 C378 1.265 . S
C400 C401 1.379 . S
C400 C404 1.373 . S
C400 C406 1.505 . S
C401 C400 1.379 . S
C401 C403 1.369 . S
C401 H412 0.930 . S
C402 C404 1.383 . S
C402 C405 1.382 . S
C402 H413 0.930 . S
C403 C401 1.369 . S
C403 C405 1.392 . S
C403 H414 0.930 . S
C404 C400 1.373 . S
C404 C402 1.383 . S
C404 H415 0.931 . S
C405 C402 1.382 . S
C405 C403 1.392 . S
C406 Eu377 2.828 . S
C406 O390 1.249 . S
C406 O391 1.244 . S
C406 C400 1.505 . S
C407 O394 1.258 . S
C407 O395 1.242 . S
H408 C380 0.930 . S
H409 C381 0.930 . S
H410 C382 0.930 . S
H411 C383 0.931 . S
H412 C401 0.930 . S
H413 C402 0.930 . S
H414 C403 0.930 . S
H415 C404 0.931 . S
Eu416 C425 2.828 . S
Eu416 O427 2.392 . S
Eu416 O429 2.418 . S
Eu416 O434 2.373 1_545 S
Eu416 O437 2.488 . S
Eu416 O438 2.471 . S
Eu416 O439 2.349 . S
Eu417 O426 2.373 . S
Eu417 O430 2.488 . S
Eu417 O431 2.471 . S
Eu417 O432 2.349 . S
Eu417 O435 2.392 1_545 S
Eu417 O436 2.418 . S
Eu417 C446 2.828 . S
C418 O436 1.244 . S
C418 O439 1.265 . S
C419 C420 1.379 . S
C419 C423 1.373 . S
C419 C425 1.505 1_565 S
C420 C419 1.379 . S
C420 C422 1.369 . S
C420 H448 0.930 . S
C421 C423 1.383 . S
C421 C424 1.382 . S
C421 H449 0.930 . S
C422 C420 1.369 . S
C422 C424 1.392 . S
C422 H450 0.930 . S
C423 C419 1.373 . S
C423 C421 1.383 . S
C423 H451 0.935 . S
C424 C421 1.382 . S
C424 C422 1.392 . S
C425 Eu416 2.828 . S
C425 C419 1.505 1_545 S
C425 O437 1.249 . S
C425 O438 1.244 . S
O426 Eu417 2.373 . S
O426 C428 1.258 . S
O427 Eu416 2.392 . S
O427 C428 1.242 . S
C428 O426 1.258 . S
C428 O427 1.242 . S
O429 Eu416 2.418 . S
O429 C433 1.244 . S
O430 Eu417 2.488 . S
O430 C446 1.249 . S
O431 Eu417 2.471 . S
O431 C446 1.244 . S
O432 Eu417 2.349 . S
O432 C433 1.265 . S
C433 O429 1.244 . S
C433 O432 1.265 . S
O434 Eu416 2.373 1_565 S
O434 C447 1.258 . S
O435 Eu417 2.392 1_565 S
O435 C447 1.242 . S
O436 Eu417 2.418 . S
O436 C418 1.244 . S
O437 Eu416 2.488 . S
O437 C425 1.249 . S
O438 Eu416 2.471 . S
O438 C425 1.244 . S
O439 Eu416 2.349 . S
O439 C418 1.265 . S
C440 C441 1.379 . S
C440 C444 1.373 . S
C440 C446 1.505 . S
C441 C440 1.379 . S
C441 C443 1.369 . S
C441 H452 0.930 . S
C442 C444 1.383 . S
C442 C445 1.382 . S
C442 H453 0.930 . S
C443 C441 1.369 . S
C443 C445 1.392 . S
C443 H454 0.930 . S
C444 C440 1.373 . S
C444 C442 1.383 . S
C444 H455 0.931 . S
C445 C442 1.382 . S
C445 C443 1.392 . S
C446 Eu417 2.828 . S
C446 O430 1.249 . S
C446 O431 1.244 . S
C446 C440 1.505 . S
C447 O434 1.258 . S
C447 O435 1.242 . S
H448 C420 0.930 . S
H449 C421 0.930 . S
H450 C422 0.930 . S
H451 C423 0.935 . S
H452 C441 0.930 . S
H453 C442 0.930 . S
H454 C443 0.930 . S
H455 C444 0.931 . S
Eu456 C465 2.828 . S
Eu456 O467 2.392 . S
Eu456 O469 2.418 . S
Eu456 O474 2.373 . S
Eu456 O477 2.488 . S
Eu456 O478 2.471 . S
Eu456 O479 2.349 . S
Eu457 O466 2.373 . S
Eu457 O470 2.488 . S
Eu457 O471 2.471 . S
Eu457 O472 2.349 . S
Eu457 O475 2.392 . S
Eu457 O476 2.418 . S
Eu457 C486 2.828 . S
C458 O476 1.244 . S
C458 O479 1.265 . S
C459 C460 1.379 . S
C459 C463 1.373 . S
C459 C465 1.505 . S
C460 C459 1.379 . S
C460 C462 1.369 . S
C460 H488 0.930 . S
C461 C463 1.383 . S
C461 C464 1.382 . S
C461 H489 0.930 . S
C462 C460 1.369 . S
C462 C464 1.392 . S
C462 H490 0.930 . S
C463 C459 1.373 . S
C463 C461 1.383 . S
C463 H491 0.931 . S
C464 C461 1.382 . S
C464 C462 1.392 . S
C465 Eu456 2.828 . S
C465 C459 1.505 . S
C465 O477 1.249 . S
C465 O478 1.244 . S
O466 Eu457 2.373 . S
O466 C468 1.258 . S
O467 Eu456 2.392 . S
O467 C468 1.242 . S
C468 O466 1.258 . S
C468 O467 1.242 . S
O469 Eu456 2.418 . S
O469 C473 1.244 . S
O470 Eu457 2.488 . S
O470 C486 1.249 . S
O471 Eu457 2.471 . S
O471 C486 1.244 . S
O472 Eu457 2.349 . S
O472 C473 1.265 . S
C473 O469 1.244 . S
C473 O472 1.265 . S
O474 Eu456 2.373 . S
O474 C487 1.258 . S
O475 Eu457 2.392 . S
O475 C487 1.242 . S
O476 Eu457 2.418 . S
O476 C458 1.244 . S
O477 Eu456 2.488 . S
O477 C465 1.249 . S
O478 Eu456 2.471 . S
O478 C465 1.244 . S
O479 Eu456 2.349 . S
O479 C458 1.265 . S
C480 C481 1.379 . S
C480 C484 1.373 . S
C480 C486 1.505 . S
C481 C480 1.379 . S
C481 C483 1.369 . S
C481 H492 0.930 . S
C482 C484 1.383 . S
C482 C485 1.382 . S
C482 H493 0.930 . S
C483 C481 1.369 . S
C483 C485 1.392 . S
C483 H494 0.930 . S
C484 C480 1.373 . S
C484 C482 1.383 . S
C484 H495 0.931 . S
C485 C482 1.382 . S
C485 C483 1.392 . S
C486 Eu457 2.828 . S
C486 O470 1.249 . S
C486 O471 1.244 . S
C486 C480 1.505 . S
C487 O474 1.258 . S
C487 O475 1.242 . S
H488 C460 0.930 . S
H489 C461 0.930 . S
H490 C462 0.930 . S
H491 C463 0.931 . S
H492 C481 0.930 . S
H493 C482 0.930 . S
H494 C483 0.930 . S
H495 C484 0.931 . S
Eu496 C505 2.828 . S
Eu496 O507 2.392 . S
Eu496 O509 2.418 . S
Eu496 O514 2.373 . S
Eu496 O517 2.488 . S
Eu496 O518 2.471 . S
Eu496 O519 2.349 . S
Eu497 O506 2.373 . S
Eu497 O510 2.488 1_545 S
Eu497 O511 2.471 1_545 S
Eu497 O512 2.349 . S
Eu497 O515 2.392 . S
Eu497 O516 2.418 . S
Eu497 C526 2.828 1_545 S
C498 O516 1.244 . S
C498 O519 1.265 . S
C499 C500 1.379 . S
C499 C503 1.373 . S
C499 C505 1.505 . S
C500 C499 1.379 . S
C500 C502 1.369 . S
C500 H528 0.930 . S
C501 C503 1.383 . S
C501 C504 1.382 . S
C501 H529 0.930 . S
C502 C500 1.369 . S
C502 C504 1.392 . S
C502 H530 0.930 . S
C503 C499 1.373 . S
C503 C501 1.383 . S
C503 H531 0.931 . S
C504 C501 1.382 . S
C504 C502 1.392 . S
C505 Eu496 2.828 . S
C505 C499 1.505 . S
C505 O517 1.249 . S
C505 O518 1.244 . S
O506 Eu497 2.373 . S
O506 C508 1.258 . S
O507 Eu496 2.392 . S
O507 C508 1.242 . S
C508 O506 1.258 . S
C508 O507 1.242 . S
O509 Eu496 2.418 . S
O509 C513 1.244 . S
O510 Eu497 2.488 1_565 S
O510 C526 1.249 . S
O511 Eu497 2.471 1_565 S
O511 C526 1.244 . S
O512 Eu497 2.349 . S
O512 C513 1.265 . S
C513 O509 1.244 . S
C513 O512 1.265 . S
O514 Eu496 2.373 . S
O514 C527 1.258 . S
O515 Eu497 2.392 . S
O515 C527 1.242 . S
O516 Eu497 2.418 . S
O516 C498 1.244 . S
O517 Eu496 2.488 . S
O517 C505 1.249 . S
O518 Eu496 2.471 . S
O518 C505 1.244 . S
O519 Eu496 2.349 . S
O519 C498 1.265 . S
C520 C521 1.379 . S
C520 C524 1.373 . S
C520 C526 1.505 . S
C521 C520 1.379 . S
C521 C523 1.369 . S
C521 H532 0.930 . S
C522 C524 1.383 . S
C522 C525 1.382 . S
C522 H533 0.930 . S
C523 C521 1.369 . S
C523 C525 1.392 . S
C523 H534 0.930 . S
C524 C520 1.373 . S
C524 C522 1.383 . S
C524 H535 0.931 . S
C525 C522 1.382 . S
C525 C523 1.392 . S
C526 Eu497 2.828 1_565 S
C526 O510 1.249 . S
C526 O511 1.244 . S
C526 C520 1.505 . S
C527 O514 1.258 . S
C527 O515 1.242 . S
H528 C500 0.930 . S
H529 C501 0.930 . S
H530 C502 0.930 . S
H531 C503 0.931 . S
H532 C521 0.930 . S
H533 C522 0.930 . S
H534 C523 0.930 . S
H535 C524 0.931 . S
Eu536 C545 2.828 . S
Eu536 O547 2.392 . S
Eu536 O549 2.418 . S
Eu536 O554 2.373 . S
Eu536 O557 2.488 . S
Eu536 O558 2.471 . S
Eu536 O559 2.349 . S
Eu537 O546 2.373 . S
Eu537 O550 2.488 . S
Eu537 O551 2.471 . S
Eu537 O552 2.349 . S
Eu537 O555 2.392 . S
Eu537 O556 2.418 . S
Eu537 C566 2.828 . S
C538 O556 1.244 . S
C538 O559 1.265 . S
C539 C540 1.379 . S
C539 C543 1.373 . S
C539 C545 1.505 . S
C540 C539 1.379 . S
C540 C542 1.369 . S
C540 H568 0.930 . S
C541 C543 1.383 . S
C541 C544 1.382 . S
C541 H569 0.930 . S
C542 C540 1.369 . S
C542 C544 1.392 . S
C542 H570 0.930 . S
C543 C539 1.373 . S
C543 C541 1.383 . S
C543 H571 0.931 . S
C544 C541 1.382 . S
C544 C542 1.392 . S
C545 Eu536 2.828 . S
C545 C539 1.505 . S
C545 O557 1.249 . S
C545 O558 1.244 . S
O546 Eu537 2.373 . S
O546 C548 1.258 . S
O547 Eu536 2.392 . S
O547 C548 1.242 . S
C548 O546 1.258 . S
C548 O547 1.242 . S
O549 Eu536 2.418 . S
O549 C553 1.244 . S
O550 Eu537 2.488 . S
O550 C566 1.249 . S
O551 Eu537 2.471 . S
O551 C566 1.244 . S
O552 Eu537 2.349 . S
O552 C553 1.265 . S
C553 O549 1.244 . S
C553 O552 1.265 . S
O554 Eu536 2.373 . S
O554 C567 1.258 . S
O555 Eu537 2.392 . S
O555 C567 1.242 . S
O556 Eu537 2.418 . S
O556 C538 1.244 . S
O557 Eu536 2.488 . S
O557 C545 1.249 . S
O558 Eu536 2.471 . S
O558 C545 1.244 . S
O559 Eu536 2.349 . S
O559 C538 1.265 . S
C560 C561 1.379 . S
C560 C564 1.373 . S
C560 C566 1.505 . S
C561 C560 1.379 . S
C561 C563 1.369 . S
C561 H572 0.930 . S
C562 C564 1.383 . S
C562 C565 1.382 . S
C562 H573 0.930 . S
C563 C561 1.369 . S
C563 C565 1.392 . S
C563 H574 0.930 . S
C564 C560 1.373 . S
C564 C562 1.383 . S
C564 H575 0.931 . S
C565 C562 1.382 . S
C565 C563 1.392 . S
C566 Eu537 2.828 . S
C566 O550 1.249 . S
C566 O551 1.244 . S
C566 C560 1.505 . S
C567 O554 1.258 . S
C567 O555 1.242 . S
H568 C540 0.930 . S
H569 C541 0.930 . S
H570 C542 0.930 . S
H571 C543 0.931 . S
H572 C561 0.930 . S
H573 C562 0.930 . S
H574 C563 0.930 . S
H575 C564 0.931 . S
Eu576 C585 2.828 . S
Eu576 O587 2.392 . S
Eu576 O589 2.418 1_545 S
Eu576 O594 2.373 . S
Eu576 O597 2.488 . S
Eu576 O598 2.471 . S
Eu576 O599 2.349 . S
Eu577 O586 2.371 1_556 S
Eu577 O590 2.488 . S
Eu577 O591 2.471 . S
Eu577 O592 2.349 . S
Eu577 O595 2.416 . S
Eu577 O596 2.418 1_556 S
Eu577 C606 2.828 . S
C578 O596 1.244 . S
C578 O599 1.265 . S
C579 C580 1.379 . S
C579 C583 1.373 1_545 S
C579 C585 1.505 . S
C580 C579 1.379 . S
C580 C582 1.369 . S
C580 H608 0.930 . S
C581 C583 1.383 . S
C581 C584 1.382 1_565 S
C581 H609 0.930 . S
C582 C580 1.369 . S
C582 C584 1.392 . S
C582 H610 0.930 . S
C583 C579 1.373 1_565 S
C583 C581 1.383 . S
C583 H611 0.931 . S
C584 C581 1.382 1_545 S
C584 C582 1.392 . S
C585 Eu576 2.828 . S
C585 C579 1.505 . S
C585 O597 1.249 . S
C585 O598 1.244 . S
O586 Eu577 2.371 1_554 S
O586 C588 1.262 . S
O587 Eu576 2.392 . S
O587 C588 1.242 . S
C588 O586 1.262 . S
C588 O587 1.242 . S
O589 Eu576 2.418 1_565 S
O589 C593 1.244 . S
O590 Eu577 2.488 . S
O590 C606 1.249 . S
O591 Eu577 2.471 . S
O591 C606 1.244 . S
O592 Eu577 2.349 . S
O592 C593 1.265 1_546 S
C593 O589 1.244 . S
C593 O592 1.265 1_564 S
O594 Eu576 2.373 . S
O594 C607 1.258 . S
O595 Eu577 2.416 . S
O595 C607 1.204 1_556 S
O596 Eu577 2.418 1_554 S
O596 C578 1.244 . S
O597 Eu576 2.488 . S
O597 C585 1.249 . S
O598 Eu576 2.471 . S
O598 C585 1.244 . S
O599 Eu576 2.349 . S
O599 C578 1.265 . S
C600 C601 1.379 . S
C600 C604 1.373 . S
C600 C606 1.505 . S
C601 C600 1.379 . S
C601 C603 1.369 . S
C601 H612 0.930 . S
C602 C604 1.383 . S
C602 C605 1.382 . S
C602 H613 0.930 . S
C603 C601 1.369 . S
C603 C605 1.392 . S
C603 H614 0.930 . S
C604 C600 1.373 . S
C604 C602 1.383 . S
C604 H615 0.931 . S
C605 C602 1.382 . S
C605 C603 1.392 . S
C606 Eu577 2.828 . S
C606 O590 1.249 . S
C606 O591 1.244 . S
C606 C600 1.505 . S
C607 O594 1.258 . S
C607 O595 1.204 1_554 S
H608 C580 0.930 . S
H609 C581 0.930 . S
H610 C582 0.930 . S
H611 C583 0.931 . S
H612 C601 0.930 . S
H613 C602 0.930 . S
H614 C603 0.930 . S
H615 C604 0.931 . S
Eu616 C625 2.828 . S
Eu616 O627 2.392 . S
Eu616 O629 2.418 . S
Eu616 O634 2.373 . S
Eu616 O637 2.488 . S
Eu616 O638 2.471 . S
Eu616 O639 2.349 . S
Eu617 O626 2.373 . S
Eu617 O630 2.488 . S
Eu617 O631 2.471 . S
Eu617 O632 2.349 . S
Eu617 O635 2.392 . S
Eu617 O636 2.418 . S
Eu617 C646 2.828 . S
C618 O636 1.244 . S
C618 O639 1.265 . S
C619 C620 1.379 . S
C619 C623 1.373 . S
C619 C625 1.505 . S
C620 C619 1.379 . S
C620 C622 1.369 . S
C620 H648 0.930 . S
C621 C623 1.383 . S
C621 C624 1.382 . S
C621 H649 0.930 . S
C622 C620 1.369 . S
C622 C624 1.392 . S
C622 H650 0.930 . S
C623 C619 1.373 . S
C623 C621 1.383 . S
C623 H651 0.931 . S
C624 C621 1.382 . S
C624 C622 1.392 . S
C625 Eu616 2.828 . S
C625 C619 1.505 . S
C625 O637 1.249 . S
C625 O638 1.244 . S
O626 Eu617 2.373 . S
O626 C628 1.258 . S
O627 Eu616 2.392 . S
O627 C628 1.242 . S
C628 O626 1.258 . S
C628 O627 1.242 . S
O629 Eu616 2.418 . S
O629 C633 1.244 . S
O630 Eu617 2.488 . S
O630 C646 1.249 . S
O631 Eu617 2.471 . S
O631 C646 1.244 . S
O632 Eu617 2.349 . S
O632 C633 1.265 . S
C633 O629 1.244 . S
C633 O632 1.265 . S
O634 Eu616 2.373 . S
O634 C647 1.258 . S
O635 Eu617 2.392 . S
O635 C647 1.242 . S
O636 Eu617 2.418 . S
O636 C618 1.244 . S
O637 Eu616 2.488 . S
O637 C625 1.249 . S
O638 Eu616 2.471 . S
O638 C625 1.244 . S
O639 Eu616 2.349 . S
O639 C618 1.265 . S
C640 C641 1.379 . S
C640 C644 1.373 . S
C640 C646 1.505 . S
C641 C640 1.379 . S
C641 C643 1.369 . S
C641 H652 0.930 . S
C642 C644 1.383 . S
C642 C645 1.382 . S
C642 H653 0.930 . S
C643 C641 1.369 . S
C643 C645 1.392 . S
C643 H654 0.930 . S
C644 C640 1.373 . S
C644 C642 1.383 . S
C644 H655 0.931 . S
C645 C642 1.382 . S
C645 C643 1.392 . S
C646 Eu617 2.828 . S
C646 O630 1.249 . S
C646 O631 1.244 . S
C646 C640 1.505 . S
C647 O634 1.258 . S
C647 O635 1.242 . S
H648 C620 0.930 . S
H649 C621 0.930 . S
H650 C622 0.930 . S
H651 C623 0.931 . S
H652 C641 0.930 . S
H653 C642 0.930 . S
H654 C643 0.930 . S
H655 C644 0.931 . S
Eu656 C665 2.828 . S
Eu656 O667 2.392 . S
Eu656 O669 2.418 . S
Eu656 O674 2.373 1_554 S
Eu656 O677 2.488 . S
Eu656 O678 2.471 . S
Eu656 O679 2.349 . S
Eu657 O666 2.373 . S
Eu657 O670 2.488 . S
Eu657 O671 2.471 . S
Eu657 O672 2.349 . S
Eu657 O675 2.392 1_554 S
Eu657 O676 2.418 . S
Eu657 C686 2.828 . S
C658 O676 1.244 . S
C658 O679 1.265 . S
C659 C660 1.379 . S
C659 C663 1.372 . S
C659 C665 1.505 1_556 S
C660 C659 1.379 . S
C660 C662 1.369 . S
C660 H688 0.930 . S
C661 C663 1.381 . S
C661 C664 1.382 . S
C661 H689 0.930 . S
C662 C660 1.369 . S
C662 C664 1.392 . S
C662 H690 0.930 . S
C663 C659 1.372 . S
C663 C661 1.381 . S
C663 H691 0.933 1_556 S
C664 C661 1.382 . S
C664 C662 1.392 . S
C665 Eu656 2.828 . S
C665 C659 1.505 1_554 S
C665 O677 1.249 . S
C665 O678 1.244 . S
O666 Eu657 2.373 . S
O666 C668 1.258 . S
O667 Eu656 2.392 . S
O667 C668 1.242 . S
C668 O666 1.258 . S
C668 O667 1.242 . S
O669 Eu656 2.418 . S
O669 C673 1.244 . S
O670 Eu657 2.488 . S
O670 C686 1.249 . S
O671 Eu657 2.471 . S
O671 C686 1.244 . S
O672 Eu657 2.349 . S
O672 C673 1.265 . S
C673 O669 1.244 . S
C673 O672 1.265 . S
O674 Eu656 2.373 1_556 S
O674 C687 1.258 . S
O675 Eu657 2.392 1_556 S
O675 C687 1.242 . S
O676 Eu657 2.418 . S
O676 C658 1.244 . S
O677 Eu656 2.488 . S
O677 C665 1.249 . S
O678 Eu656 2.471 . S
O678 C665 1.244 . S
O679 Eu656 2.349 . S
O679 C658 1.265 . S
C680 C681 1.379 . S
C680 C684 1.373 . S
C680 C686 1.505 . S
C681 C680 1.379 . S
C681 C683 1.369 . S
C681 H692 0.930 . S
C682 C684 1.383 . S
C682 C685 1.382 . S
C682 H693 0.930 . S
C683 C681 1.369 . S
C683 C685 1.392 . S
C683 H694 0.930 . S
C684 C680 1.373 . S
C684 C682 1.383 . S
C684 H695 0.931 . S
C685 C682 1.382 . S
C685 C683 1.392 . S
C686 Eu657 2.828 . S
C686 O670 1.249 . S
C686 O671 1.244 . S
C686 C680 1.505 . S
C687 O674 1.258 . S
C687 O675 1.242 . S
H688 C660 0.930 . S
H689 C661 0.930 . S
H690 C662 0.930 . S
H691 C663 0.933 1_554 S
H692 C681 0.930 . S
H693 C682 0.930 . S
H694 C683 0.930 . S
H695 C684 0.931 . S
Eu696 C705 2.828 . S
Eu696 O707 2.392 . S
Eu696 O709 2.418 . S
Eu696 O714 2.373 . S
Eu696 O717 2.488 . S
Eu696 O718 2.471 . S
Eu696 O719 2.349 . S
Eu697 O706 2.373 . S
Eu697 O710 2.488 . S
Eu697 O711 2.471 . S
Eu697 O712 2.349 . S
Eu697 O715 2.392 . S
Eu697 O716 2.418 . S
Eu697 C726 2.828 . S
C698 O716 1.244 . S
C698 O719 1.265 . S
C699 C700 1.379 . S
C699 C703 1.373 . S
C699 C705 1.505 . S
C700 C699 1.379 . S
C700 C702 1.369 . S
C700 H728 0.930 . S
C701 C703 1.383 . S
C701 C704 1.382 . S
C701 H729 0.930 . S
C702 C700 1.369 . S
C702 C704 1.392 . S
C702 H730 0.930 . S
C703 C699 1.373 . S
C703 C701 1.383 . S
C703 H731 0.931 . S
C704 C701 1.382 . S
C704 C702 1.392 . S
C705 Eu696 2.828 . S
C705 C699 1.505 . S
C705 O717 1.249 . S
C705 O718 1.244 . S
O706 Eu697 2.373 . S
O706 C708 1.258 . S
O707 Eu696 2.392 . S
O707 C708 1.242 . S
C708 O706 1.258 . S
C708 O707 1.242 . S
O709 Eu696 2.418 . S
O709 C713 1.244 . S
O710 Eu697 2.488 . S
O710 C726 1.249 . S
O711 Eu697 2.471 . S
O711 C726 1.244 . S
O712 Eu697 2.349 . S
O712 C713 1.265 . S
C713 O709 1.244 . S
C713 O712 1.265 . S
O714 Eu696 2.373 . S
O714 C727 1.258 . S
O715 Eu697 2.392 . S
O715 C727 1.242 . S
O716 Eu697 2.418 . S
O716 C698 1.244 . S
O717 Eu696 2.488 . S
O717 C705 1.249 . S
O718 Eu696 2.471 . S
O718 C705 1.244 . S
O719 Eu696 2.349 . S
O719 C698 1.265 . S
C720 C721 1.379 . S
C720 C724 1.373 . S
C720 C726 1.505 . S
C721 C720 1.379 . S
C721 C723 1.369 . S
C721 H732 0.930 . S
C722 C724 1.383 . S
C722 C725 1.382 . S
C722 H733 0.930 . S
C723 C721 1.369 . S
C723 C725 1.392 . S
C723 H734 0.930 . S
C724 C720 1.373 . S
C724 C722 1.383 . S
C724 H735 0.931 . S
C725 C722 1.382 . S
C725 C723 1.392 . S
C726 Eu697 2.828 . S
C726 O710 1.249 . S
C726 O711 1.244 . S
C726 C720 1.505 . S
C727 O714 1.258 . S
C727 O715 1.242 . S
H728 C700 0.930 . S
H729 C701 0.930 . S
H730 C702 0.930 . S
H731 C703 0.931 . S
H732 C721 0.930 . S
H733 C722 0.930 . S
H734 C723 0.930 . S
H735 C724 0.931 . S
Eu736 C745 2.828 . S
Eu736 O747 2.392 . S
Eu736 O749 2.418 . S
Eu736 O754 2.373 . S
Eu736 O757 2.488 . S
Eu736 O758 2.471 . S
Eu736 O759 2.349 . S
Eu737 O746 2.373 . S
Eu737 O750 2.488 . S
Eu737 O751 2.471 . S
Eu737 O752 2.349 . S
Eu737 O755 2.392 . S
Eu737 O756 2.418 . S
Eu737 C766 2.828 . S
C738 O756 1.244 . S
C738 O759 1.265 . S
C739 C740 1.379 1_455 S
C739 C743 1.373 . S
C739 C745 1.505 . S
C740 C739 1.379 1_655 S
C740 C742 1.369 . S
C740 H768 0.930 . S
C741 C743 1.392 . S
C741 C744 1.370 1_455 S
C741 H769 0.933 . S
C742 C740 1.369 . S
C742 C744 1.392 . S
C742 H770 0.930 . S
C743 C739 1.373 . S
C743 C741 1.392 . S
C743 H771 0.931 . S
C744 C741 1.370 1_655 S
C744 C742 1.392 . S
C745 Eu736 2.828 . S
C745 C739 1.505 . S
C745 O757 1.249 . S
C745 O758 1.244 . S
O746 Eu737 2.373 . S
O746 C748 1.258 . S
O747 Eu736 2.392 . S
O747 C748 1.242 . S
C748 O746 1.258 . S
C748 O747 1.242 . S
O749 Eu736 2.418 . S
O749 C753 1.244 . S
O750 Eu737 2.488 . S
O750 C766 1.249 . S
O751 Eu737 2.471 . S
O751 C766 1.244 . S
O752 Eu737 2.349 . S
O752 C753 1.265 . S
C753 O749 1.244 . S
C753 O752 1.265 . S
O754 Eu736 2.373 . S
O754 C767 1.290 . S
O755 Eu737 2.392 . S
O755 C767 1.251 . S
O756 Eu737 2.418 . S
O756 C738 1.244 . S
O757 Eu736 2.488 . S
O757 C745 1.249 . S
O758 Eu736 2.471 . S
O758 C745 1.244 . S
O759 Eu736 2.349 . S
O759 C738 1.265 . S
C760 C761 1.379 . S
C760 C764 1.373 . S
C760 C766 1.505 . S
C761 C760 1.379 . S
C761 C763 1.369 . S
C761 H772 0.930 . S
C762 C764 1.383 . S
C762 C765 1.382 . S
C762 H773 0.930 . S
C763 C761 1.369 . S
C763 C765 1.392 . S
C763 H774 0.930 . S
C764 C760 1.373 . S
C764 C762 1.383 . S
C764 H775 0.931 . S
C765 C762 1.382 . S
C765 C763 1.392 . S
C766 Eu737 2.828 . S
C766 O750 1.249 . S
C766 O751 1.244 . S
C766 C760 1.505 . S
C767 O754 1.290 . S
C767 O755 1.251 . S
H768 C740 0.930 . S
H769 C741 0.933 . S
H770 C742 0.930 . S
H771 C743 0.931 . S
H772 C761 0.930 . S
H773 C762 0.930 . S
H774 C763 0.930 . S
H775 C764 0.931 . S
Eu776 C785 2.828 . S
Eu776 O787 2.392 . S
Eu776 O789 2.418 . S
Eu776 O794 2.373 . S
Eu776 O797 2.488 . S
Eu776 O798 2.471 . S
Eu776 O799 2.349 . S
Eu777 O786 2.373 . S
Eu777 O790 2.488 . S
Eu777 O791 2.471 . S
Eu777 O792 2.349 . S
Eu777 O795 2.392 . S
Eu777 O796 2.418 . S
Eu777 C806 2.828 . S
C778 O796 1.244 . S
C778 O799 1.265 . S
C779 C780 1.379 . S
C779 C783 1.373 . S
C779 C785 1.505 . S
C780 C779 1.379 . S
C780 C782 1.369 . S
C780 H808 0.930 . S
C781 C783 1.383 . S
C781 C784 1.382 . S
C781 H809 0.930 . S
C782 C780 1.369 . S
C782 C784 1.392 . S
C782 H810 0.930 . S
C783 C779 1.373 . S
C783 C781 1.383 . S
C783 H811 0.931 . S
C784 C781 1.382 . S
C784 C782 1.392 . S
C785 Eu776 2.828 . S
C785 C779 1.505 . S
C785 O797 1.249 . S
C785 O798 1.244 . S
O786 Eu777 2.373 . S
O786 C788 1.258 . S
O787 Eu776 2.392 . S
O787 C788 1.242 . S
C788 O786 1.258 . S
C788 O787 1.242 . S
O789 Eu776 2.418 . S
O789 C793 1.244 . S
O790 Eu777 2.488 . S
O790 C806 1.249 . S
O791 Eu777 2.471 . S
O791 C806 1.244 . S
O792 Eu777 2.349 . S
O792 C793 1.265 . S
C793 O789 1.244 . S
C793 O792 1.265 . S
O794 Eu776 2.373 . S
O794 C807 1.258 . S
O795 Eu777 2.392 . S
O795 C807 1.242 . S
O796 Eu777 2.418 . S
O796 C778 1.244 . S
O797 Eu776 2.488 . S
O797 C785 1.249 . S
O798 Eu776 2.471 . S
O798 C785 1.244 . S
O799 Eu776 2.349 . S
O799 C778 1.265 . S
C800 C801 1.379 . S
C800 C804 1.373 . S
C800 C806 1.505 . S
C801 C800 1.379 . S
C801 C803 1.369 . S
C801 H812 0.930 . S
C802 C804 1.383 . S
C802 C805 1.382 . S
C802 H813 0.930 . S
C803 C801 1.369 . S
C803 C805 1.392 . S
C803 H814 0.930 . S
C804 C800 1.373 . S
C804 C802 1.383 . S
C804 H815 0.931 . S
C805 C802 1.382 . S
C805 C803 1.392 . S
C806 Eu777 2.828 . S
C806 O790 1.249 . S
C806 O791 1.244 . S
C806 C800 1.505 . S
C807 O794 1.258 . S
C807 O795 1.242 . S
H808 C780 0.930 . S
H809 C781 0.930 . S
H810 C782 0.930 . S
H811 C783 0.931 . S
H812 C801 0.930 . S
H813 C802 0.930 . S
H814 C803 0.930 . S
H815 C804 0.931 . S
Eu816 C825 2.828 . S
Eu816 O827 2.392 . S
Eu816 O829 2.418 . S
Eu816 O834 2.373 . S
Eu816 O837 2.488 . S
Eu816 O838 2.471 . S
Eu816 O839 2.349 . S
Eu817 O826 2.373 . S
Eu817 O830 2.488 . S
Eu817 O831 2.471 . S
Eu817 O832 2.349 . S
Eu817 O835 2.392 . S
Eu817 O836 2.418 . S
Eu817 C846 2.828 . S
C818 O836 1.244 . S
C818 O839 1.265 . S
C819 C820 1.379 . S
C819 C823 1.373 . S
C819 C825 1.505 . S
C820 C819 1.379 . S
C820 C822 1.369 . S
C820 H848 0.930 . S
C821 C823 1.383 . S
C821 C824 1.382 . S
C821 H849 0.930 . S
C822 C820 1.369 . S
C822 C824 1.392 . S
C822 H850 0.930 . S
C823 C819 1.373 . S
C823 C821 1.383 . S
C823 H851 0.931 . S
C824 C821 1.382 . S
C824 C822 1.392 . S
C825 Eu816 2.828 . S
C825 C819 1.505 . S
C825 O837 1.249 . S
C825 O838 1.244 . S
O826 Eu817 2.373 . S
O826 C828 1.258 . S
O827 Eu816 2.392 . S
O827 C828 1.242 . S
C828 O826 1.258 . S
C828 O827 1.242 . S
O829 Eu816 2.418 . S
O829 C833 1.244 . S
O830 Eu817 2.488 . S
O830 C846 1.249 . S
O831 Eu817 2.471 . S
O831 C846 1.244 . S
O832 Eu817 2.349 . S
O832 C833 1.265 . S
C833 O829 1.244 . S
C833 O832 1.265 . S
O834 Eu816 2.373 . S
O834 C847 1.258 . S
O835 Eu817 2.392 . S
O835 C847 1.242 . S
O836 Eu817 2.418 . S
O836 C818 1.244 . S
O837 Eu816 2.488 . S
O837 C825 1.249 . S
O838 Eu816 2.471 . S
O838 C825 1.244 . S
O839 Eu816 2.349 . S
O839 C818 1.265 . S
C840 C841 1.379 . S
C840 C844 1.373 . S
C840 C846 1.505 . S
C841 C840 1.379 . S
C841 C843 1.369 . S
C841 H852 0.930 . S
C842 C844 1.383 . S
C842 C845 1.382 . S
C842 H853 0.930 . S
C843 C841 1.369 . S
C843 C845 1.392 . S
C843 H854 0.930 . S
C844 C840 1.373 . S
C844 C842 1.383 . S
C844 H855 0.931 . S
C845 C842 1.382 . S
C845 C843 1.392 . S
C846 Eu817 2.828 . S
C846 O830 1.249 . S
C846 O831 1.244 . S
C846 C840 1.505 . S
C847 O834 1.258 . S
C847 O835 1.242 . S
H848 C820 0.930 . S
H849 C821 0.930 . S
H850 C822 0.930 . S
H851 C823 0.931 . S
H852 C841 0.930 . S
H853 C842 0.930 . S
H854 C843 0.930 . S
H855 C844 0.931 . S
Eu856 C865 2.828 . S
Eu856 O867 2.392 . S
Eu856 O869 2.418 . S
Eu856 O874 2.373 . S
Eu856 O877 2.488 . S
Eu856 O878 2.471 . S
Eu856 O879 2.349 . S
Eu857 O866 2.373 . S
Eu857 O870 2.488 . S
Eu857 O871 2.471 . S
Eu857 O872 2.349 . S
Eu857 O875 2.392 . S
Eu857 O876 2.418 . S
Eu857 C886 2.828 . S
C858 O876 1.244 . S
C858 O879 1.265 . S
C859 C860 1.379 . S
C859 C863 1.373 . S
C859 C865 1.505 . S
C860 C859 1.379 . S
C860 C862 1.369 . S
C860 H888 0.930 . S
C861 C863 1.383 . S
C861 C864 1.382 . S
C861 H889 0.930 . S
C862 C860 1.369 . S
C862 C864 1.392 . S
C862 H890 0.930 . S
C863 C859 1.373 . S
C863 C861 1.383 . S
C863 H891 0.931 . S
C864 C861 1.382 . S
C864 C862 1.392 . S
C865 Eu856 2.828 . S
C865 C859 1.505 . S
C865 O877 1.249 . S
C865 O878 1.244 . S
O866 Eu857 2.373 . S
O866 C868 1.258 . S
O867 Eu856 2.392 . S
O867 C868 1.242 . S
C868 O866 1.258 . S
C868 O867 1.242 . S
O869 Eu856 2.418 . S
O869 C873 1.244 . S
O870 Eu857 2.488 . S
O870 C886 1.249 . S
O871 Eu857 2.471 . S
O871 C886 1.244 . S
O872 Eu857 2.349 . S
O872 C873 1.265 . S
C873 O869 1.244 . S
C873 O872 1.265 . S
O874 Eu856 2.373 . S
O874 C887 1.258 . S
O875 Eu857 2.392 . S
O875 C887 1.242 . S
O876 Eu857 2.418 . S
O876 C858 1.244 . S
O877 Eu856 2.488 . S
O877 C865 1.249 . S
O878 Eu856 2.471 . S
O878 C865 1.244 . S
O879 Eu856 2.349 . S
O879 C858 1.265 . S
C880 C881 1.379 . S
C880 C884 1.373 . S
C880 C886 1.505 . S
C881 C880 1.379 . S
C881 C883 1.369 . S
C881 H892 0.930 . S
C882 C884 1.383 . S
C882 C885 1.382 . S
C882 H893 0.930 . S
C883 C881 1.369 . S
C883 C885 1.392 . S
C883 H894 0.930 . S
C884 C880 1.373 . S
C884 C882 1.383 . S
C884 H895 0.931 . S
C885 C882 1.382 . S
C885 C883 1.392 . S
C886 Eu857 2.828 . S
C886 O870 1.249 . S
C886 O871 1.244 . S
C886 C880 1.505 . S
C887 O874 1.258 . S
C887 O875 1.242 . S
H888 C860 0.930 . S
H889 C861 0.930 . S
H890 C862 0.930 . S
H891 C863 0.931 . S
H892 C881 0.930 . S
H893 C882 0.930 . S
H894 C883 0.930 . S
H895 C884 0.931 . S
Eu896 C905 2.828 . S
Eu896 O907 2.392 . S
Eu896 O909 2.418 . S
Eu896 O914 2.373 . S
Eu896 O917 2.488 . S
Eu896 O918 2.471 . S
Eu896 O919 2.349 . S
Eu897 O906 2.373 . S
Eu897 O910 2.488 . S
Eu897 O911 2.471 . S
Eu897 O912 2.349 . S
Eu897 O915 2.392 . S
Eu897 O916 2.418 . S
Eu897 C926 2.828 . S
C898 O916 1.244 . S
C898 O919 1.265 . S
C899 C900 1.379 . S
C899 C903 1.373 . S
C899 C905 1.505 . S
C900 C899 1.379 . S
C900 C902 1.369 . S
C900 H928 0.930 . S
C901 C903 1.383 . S
C901 C904 1.382 . S
C901 H929 0.930 . S
C902 C900 1.369 . S
C902 C904 1.392 . S
C902 H930 0.930 . S
C903 C899 1.373 . S
C903 C901 1.383 . S
C903 H931 0.931 . S
C904 C901 1.382 . S
C904 C902 1.392 . S
C905 Eu896 2.828 . S
C905 C899 1.505 . S
C905 O917 1.249 . S
C905 O918 1.244 . S
O906 Eu897 2.373 . S
O906 C908 1.258 . S
O907 Eu896 2.392 . S
O907 C908 1.242 . S
C908 O906 1.258 . S
C908 O907 1.242 . S
O909 Eu896 2.418 . S
O909 C913 1.244 . S
O910 Eu897 2.488 . S
O910 C926 1.249 . S
O911 Eu897 2.471 . S
O911 C926 1.244 . S
O912 Eu897 2.349 . S
O912 C913 1.265 . S
C913 O909 1.244 . S
C913 O912 1.265 . S
O914 Eu896 2.373 . S
O914 C927 1.258 . S
O915 Eu897 2.392 . S
O915 C927 1.242 . S
O916 Eu897 2.418 . S
O916 C898 1.244 . S
O917 Eu896 2.488 . S
O917 C905 1.249 . S
O918 Eu896 2.471 . S
O918 C905 1.244 . S
O919 Eu896 2.349 . S
O919 C898 1.265 . S
C920 C921 1.379 . S
C920 C924 1.373 . S
C920 C926 1.505 . S
C921 C920 1.379 . S
C921 C923 1.369 . S
C921 H932 0.930 . S
C922 C924 1.383 . S
C922 C925 1.382 . S
C922 H933 0.930 . S
C923 C921 1.369 . S
C923 C925 1.392 . S
C923 H934 0.930 . S
C924 C920 1.373 . S
C924 C922 1.383 . S
C924 H935 0.931 . S
C925 C922 1.382 . S
C925 C923 1.392 . S
C926 Eu897 2.828 . S
C926 O910 1.249 . S
C926 O911 1.244 . S
C926 C920 1.505 . S
C927 O914 1.258 . S
C927 O915 1.242 . S
H928 C900 0.930 . S
H929 C901 0.930 . S
H930 C902 0.930 . S
H931 C903 0.931 . S
H932 C921 0.930 . S
H933 C922 0.930 . S
H934 C923 0.930 . S
H935 C924 0.931 . S
Eu936 C945 2.828 1_554 S
Eu936 O947 2.392 . S
Eu936 O949 2.418 1_554 S
Eu936 O954 2.373 1_554 S
Eu936 O957 2.488 1_554 S
Eu936 O958 2.471 . S
Eu936 O959 2.349 . S
Eu937 O946 2.373 . S
Eu937 O950 2.488 1_455 S
Eu937 O951 2.471 1_455 S
Eu937 O952 2.349 1_554 S
Eu937 O955 2.392 . S
Eu937 O956 2.418 . S
Eu937 C966 2.828 1_455 S
C938 O956 1.244 . S
C938 O959 1.265 . S
C939 C940 1.379 1_556 S
C939 C943 1.373 . S
C939 C945 1.505 . S
C940 C939 1.379 1_554 S
C940 C942 1.369 . S
C940 H968 0.930 . S
C941 C943 1.383 . S
C941 C944 1.382 . S
C941 H969 0.930 . S
C942 C940 1.369 . S
C942 C944 1.392 1_554 S
C942 H970 0.930 . S
C943 C939 1.373 . S
C943 C941 1.383 . S
C943 H971 0.931 . S
C944 C941 1.382 . S
C944 C942 1.392 1_556 S
C945 Eu936 2.828 1_556 S
C945 C939 1.505 . S
C945 O957 1.249 . S
C945 O958 1.244 1_556 S
O946 Eu937 2.373 . S
O946 C948 1.258 . S
O947 Eu936 2.392 . S
O947 C948 1.242 . S
C948 O946 1.258 . S
C948 O947 1.242 . S
O949 Eu936 2.418 1_556 S
O949 C953 1.244 . S
O950 Eu937 2.488 1_655 S
O950 C966 1.249 . S
O951 Eu937 2.471 1_655 S
O951 C966 1.244 . S
O952 Eu937 2.349 1_556 S
O952 C953 1.265 . S
C953 O949 1.244 . S
C953 O952 1.265 . S
O954 Eu936 2.373 1_556 S
O954 C967 1.258 1_556 S
O955 Eu937 2.392 . S
O955 C967 1.242 . S
O956 Eu937 2.418 . S
O956 C938 1.244 . S
O957 Eu936 2.488 1_556 S
O957 C945 1.249 . S
O958 Eu936 2.471 . S
O958 C945 1.244 1_554 S
O959 Eu936 2.349 . S
O959 C938 1.265 . S
C960 C961 1.379 . S
C960 C964 1.373 . S
C960 C966 1.505 . S
C961 C960 1.379 . S
C961 C963 1.369 . S
C961 H972 0.930 . S
C962 C964 1.383 . S
C962 C965 1.382 . S
C962 H973 0.930 . S
C963 C961 1.369 . S
C963 C965 1.392 . S
C963 H974 0.930 . S
C964 C960 1.373 . S
C964 C962 1.383 . S
C964 H975 0.931 . S
C965 C962 1.382 . S
C965 C963 1.392 . S
C966 Eu937 2.828 1_655 S
C966 O950 1.249 . S
C966 O951 1.244 . S
C966 C960 1.505 . S
C967 O954 1.258 1_554 S
C967 O955 1.242 . S
H968 C940 0.930 . S
H969 C941 0.930 . S
H970 C942 0.930 . S
H971 C943 0.931 . S
H972 C961 0.930 . S
H973 C962 0.930 . S
H974 C963 0.930 . S
H975 C964 0.931 . S
H976 C984 0.950 . S
H977 C989 0.935 1_655 S
H978 C986 0.950 . S
H979 C988 0.950 . S
H980 C990 0.950 1_554 S
H981 C992 0.950 . S
H982 C994 0.950 . S
H983 C995 0.950 . S
C984 H976 0.950 . S
C984 C985 1.386 . S
C984 C986 1.391 . S
C985 C984 1.386 . S
C985 C989 1.393 . S
C986 H978 0.950 . S
C986 C984 1.391 . S
C986 C987 1.400 . S
C987 C986 1.400 . S
C987 C988 1.398 . S
C987 C993 1.491 . S
C988 H979 0.950 . S
C988 C987 1.398 . S
C988 C989 1.391 . S
C989 H977 0.935 1_455 S
C989 C985 1.393 . S
C989 C988 1.391 . S
C990 H980 0.950 1_556 S
C990 C991 1.386 . S
C990 C992 1.391 . S
C991 C990 1.386 . S
C991 C995 1.393 . S
C992 H981 0.950 . S
C992 C990 1.391 . S
C992 C993 1.400 . S
C993 C987 1.491 . S
C993 C992 1.400 . S
C993 C994 1.398 . S
C994 H982 0.950 . S
C994 C993 1.398 . S
C994 C995 1.391 . S
C995 H983 0.950 . S
C995 C991 1.393 . S
C995 C994 1.391 . S
H996 C1004 0.950 . S
H997 C1009 0.950 . S
H998 C1006 0.950 . S
H999 C1008 0.950 . S
H1000 C1010 0.950 . S
H1001 C1012 0.950 . S
H1002 C1014 0.950 . S
H1003 C1015 0.950 . S
C1004 H996 0.950 . S
C1004 C1005 1.386 . S
C1004 C1006 1.391 . S
C1005 C1004 1.386 . S
C1005 C1009 1.393 . S
C1006 H998 0.950 . S
C1006 C1004 1.391 . S
C1006 C1007 1.400 . S
C1007 C1006 1.400 . S
C1007 C1008 1.398 . S
C1007 C1013 1.491 . S
C1008 H999 0.950 . S
C1008 C1007 1.398 . S
C1008 C1009 1.391 . S
C1009 H997 0.950 . S
C1009 C1005 1.393 . S
C1009 C1008 1.391 . S
C1010 H1000 0.950 . S
C1010 C1011 1.386 . S
C1010 C1012 1.391 . S
C1011 C1010 1.386 . S
C1011 C1015 1.393 . S
C1012 H1001 0.950 . S
C1012 C1010 1.391 . S
C1012 C1013 1.400 . S
C1013 C1007 1.491 . S
C1013 C1012 1.400 . S
C1013 C1014 1.398 . S
C1014 H1002 0.950 . S
C1014 C1013 1.398 . S
C1014 C1015 1.391 . S
C1015 H1003 0.950 . S
C1015 C1011 1.393 . S
C1015 C1014 1.391 . S
H1016 C1024 0.950 . S
H1017 C1029 0.950 . S
H1018 C1026 0.950 . S
H1019 C1028 0.950 . S
H1020 C1030 0.950 . S
H1021 C1032 0.950 . S
H1022 C1034 0.950 . S
H1023 C1035 0.950 . S
C1024 H1016 0.950 . S
C1024 C1025 1.386 . S
C1024 C1026 1.391 . S
C1025 C1024 1.386 . S
C1025 C1029 1.393 . S
C1026 H1018 0.950 . S
C1026 C1024 1.391 . S
C1026 C1027 1.400 . S
C1027 C1026 1.400 . S
C1027 C1028 1.398 . S
C1027 C1033 1.491 . S
C1028 H1019 0.950 . S
C1028 C1027 1.398 . S
C1028 C1029 1.391 . S
C1029 H1017 0.950 . S
C1029 C1025 1.393 . S
C1029 C1028 1.391 . S
C1030 H1020 0.950 . S
C1030 C1031 1.386 . S
C1030 C1032 1.391 . S
C1031 C1030 1.386 . S
C1031 C1035 1.393 . S
C1032 H1021 0.950 . S
C1032 C1030 1.391 . S
C1032 C1033 1.400 . S
C1033 C1027 1.491 . S
C1033 C1032 1.400 . S
C1033 C1034 1.398 . S
C1034 H1022 0.950 . S
C1034 C1033 1.398 . S
C1034 C1035 1.391 . S
C1035 H1023 0.950 . S
C1035 C1031 1.393 . S
C1035 C1034 1.391 . S
H1036 C1044 0.950 . S
H1037 C1049 0.950 . S
H1038 C1046 0.950 . S
H1039 C1048 0.950 . S
H1040 C1050 0.950 . S
H1041 C1052 0.950 . S
H1042 C1054 0.950 . S
H1043 C1055 0.950 . S
C1044 H1036 0.950 . S
C1044 C1045 1.386 . S
C1044 C1046 1.391 . S
C1045 C1044 1.386 . S
C1045 C1049 1.393 . S
C1046 H1038 0.950 . S
C1046 C1044 1.391 . S
C1046 C1047 1.400 . S
C1047 C1046 1.400 . S
C1047 C1048 1.398 . S
C1047 C1053 1.491 . S
C1048 H1039 0.950 . S
C1048 C1047 1.398 . S
C1048 C1049 1.391 . S
C1049 H1037 0.950 . S
C1049 C1045 1.393 . S
C1049 C1048 1.391 . S
C1050 H1040 0.950 . S
C1050 C1051 1.386 . S
C1050 C1052 1.391 . S
C1051 C1050 1.386 . S
C1051 C1055 1.393 . S
C1052 H1041 0.950 . S
C1052 C1050 1.391 . S
C1052 C1053 1.400 . S
C1053 C1047 1.491 . S
C1053 C1052 1.400 . S
C1053 C1054 1.398 . S
C1054 H1042 0.950 . S
C1054 C1053 1.398 . S
C1054 C1055 1.391 . S
C1055 H1043 0.950 . S
C1055 C1051 1.393 . S
C1055 C1054 1.391 . S
H1056 C1064 0.950 . S
H1057 C1069 0.950 1_655 S
H1058 C1066 0.950 . S
H1059 C1068 0.950 . S
H1060 C1070 0.950 . S
H1061 C1072 0.950 . S
H1062 C1074 0.950 . S
H1063 C1075 0.950 . S
C1064 H1056 0.950 . S
C1064 C1065 1.386 . S
C1064 C1066 1.391 . S
C1065 C1064 1.386 . S
C1065 C1069 1.393 . S
C1066 H1058 0.950 . S
C1066 C1064 1.391 . S
C1066 C1067 1.400 . S
C1067 C1066 1.400 . S
C1067 C1068 1.398 . S
C1067 C1073 1.491 . S
C1068 H1059 0.950 . S
C1068 C1067 1.398 . S
C1068 C1069 1.391 . S
C1069 H1057 0.950 1_455 S
C1069 C1065 1.393 . S
C1069 C1068 1.391 . S
C1070 H1060 0.950 . S
C1070 C1071 1.386 . S
C1070 C1072 1.391 . S
C1071 C1070 1.386 . S
C1071 C1075 1.393 . S
C1072 H1061 0.950 . S
C1072 C1070 1.391 . S
C1072 C1073 1.400 . S
C1073 C1067 1.491 . S
C1073 C1072 1.400 . S
C1073 C1074 1.398 . S
C1074 H1062 0.950 . S
C1074 C1073 1.398 . S
C1074 C1075 1.391 . S
C1075 H1063 0.950 . S
C1075 C1071 1.393 . S
C1075 C1074 1.391 . S
H1076 C1084 0.950 . S
H1077 C1089 0.950 . S
H1078 C1086 0.950 . S
H1079 C1088 0.950 . S
H1080 C1090 0.950 . S
H1081 C1092 0.950 . S
H1082 C1094 0.950 . S
H1083 C1095 0.950 . S
C1084 H1076 0.950 . S
C1084 C1085 1.386 . S
C1084 C1086 1.391 . S
C1085 C1084 1.386 . S
C1085 C1089 1.393 . S
C1086 H1078 0.950 . S
C1086 C1084 1.391 . S
C1086 C1087 1.400 . S
C1087 C1086 1.400 . S
C1087 C1088 1.398 . S
C1087 C1093 1.491 . S
C1088 H1079 0.950 . S
C1088 C1087 1.398 . S
C1088 C1089 1.391 . S
C1089 H1077 0.950 . S
C1089 C1085 1.393 . S
C1089 C1088 1.391 . S
C1090 H1080 0.950 . S
C1090 C1091 1.386 . S
C1090 C1092 1.391 . S
C1091 C1090 1.386 . S
C1091 C1095 1.393 . S
C1092 H1081 0.950 . S
C1092 C1090 1.391 . S
C1092 C1093 1.400 . S
C1093 C1087 1.491 . S
C1093 C1092 1.400 . S
C1093 C1094 1.398 . S
C1094 H1082 0.950 . S
C1094 C1093 1.398 . S
C1094 C1095 1.391 . S
C1095 H1083 0.950 . S
C1095 C1091 1.393 . S
C1095 C1094 1.391 . S
H1096 C1104 0.950 . S
H1097 C1109 0.950 . S
H1098 C1106 0.950 . S
H1099 C1108 0.950 . S
H1100 C1110 0.950 . S
H1101 C1112 0.950 . S
H1102 C1114 0.950 . S
H1103 C1115 0.950 . S
C1104 H1096 0.950 . S
C1104 C1105 1.386 . S
C1104 C1106 1.391 . S
C1105 C1104 1.386 . S
C1105 C1109 1.393 . S
C1106 H1098 0.950 . S
C1106 C1104 1.391 . S
C1106 C1107 1.400 . S
C1107 C1106 1.400 . S
C1107 C1108 1.398 . S
C1107 C1113 1.491 . S
C1108 H1099 0.950 . S
C1108 C1107 1.398 . S
C1108 C1109 1.391 . S
C1109 H1097 0.950 . S
C1109 C1105 1.393 . S
C1109 C1108 1.391 . S
C1110 H1100 0.950 . S
C1110 C1111 1.386 . S
C1110 C1112 1.391 . S
C1111 C1110 1.386 . S
C1111 C1115 1.393 . S
C1112 H1101 0.950 . S
C1112 C1110 1.391 . S
C1112 C1113 1.400 . S
C1113 C1107 1.491 . S
C1113 C1112 1.400 . S
C1113 C1114 1.398 . S
C1114 H1102 0.950 . S
C1114 C1113 1.398 . S
C1114 C1115 1.391 . S
C1115 H1103 0.950 . S
C1115 C1111 1.393 . S
C1115 C1114 1.391 . S
H1116 C1124 0.950 . S
H1117 C1129 0.950 . S
H1118 C1126 0.950 . S
H1119 C1128 0.950 . S
H1120 C1130 0.950 . S
H1121 C1132 0.950 . S
H1122 C1134 0.950 . S
H1123 C1135 0.950 . S
C1124 H1116 0.950 . S
C1124 C1125 1.386 . S
C1124 C1126 1.391 . S
C1125 C1124 1.386 . S
C1125 C1129 1.393 . S
C1126 H1118 0.950 . S
C1126 C1124 1.391 . S
C1126 C1127 1.400 . S
C1127 C1126 1.400 . S
C1127 C1128 1.398 . S
C1127 C1133 1.491 . S
C1128 H1119 0.950 . S
C1128 C1127 1.398 . S
C1128 C1129 1.391 . S
C1129 H1117 0.950 . S
C1129 C1125 1.393 . S
C1129 C1128 1.391 . S
C1130 H1120 0.950 . S
C1130 C1131 1.386 . S
C1130 C1132 1.391 . S
C1131 C1130 1.386 . S
C1131 C1135 1.393 . S
C1132 H1121 0.950 . S
C1132 C1130 1.391 . S
C1132 C1133 1.400 . S
C1133 C1127 1.491 . S
C1133 C1132 1.400 . S
C1133 C1134 1.398 . S
C1134 H1122 0.950 . S
C1134 C1133 1.398 . S
C1134 C1135 1.391 . S
C1135 H1123 0.950 . S
C1135 C1131 1.393 . S
C1135 C1134 1.391 . S
H1136 C1144 0.937 1_455 S
H1137 C1149 0.950 . S
H1138 C1146 0.950 . S
H1139 C1148 0.950 . S
H1140 C1150 0.933 1_655 S
H1141 C1152 0.950 . S
H1142 C1154 0.950 . S
H1143 C1155 0.950 . S
C1144 H1136 0.937 1_655 S
C1144 C1145 1.386 . S
C1144 C1146 1.391 1_655 S
C1145 C1144 1.386 . S
C1145 C1149 1.393 . S
C1146 H1138 0.950 . S
C1146 C1144 1.391 1_455 S
C1146 C1147 1.400 1_455 S
C1147 C1146 1.400 1_655 S
C1147 C1148 1.398 . S
C1147 C1153 1.491 1_655 S
C1148 H1139 0.950 . S
C1148 C1147 1.398 . S
C1148 C1149 1.391 . S
C1149 H1137 0.950 . S
C1149 C1145 1.393 . S
C1149 C1148 1.391 . S
C1150 H1140 0.933 1_455 S
C1150 C1151 1.426 . S
C1150 C1152 1.369 1_455 S
C1151 C1150 1.426 . S
C1151 C1155 1.393 . S
C1152 H1141 0.950 . S
C1152 C1150 1.369 1_655 S
C1152 C1153 1.400 1_655 S
C1153 C1147 1.491 1_455 S
C1153 C1152 1.400 1_455 S
C1153 C1154 1.398 . S
C1154 H1142 0.950 . S
C1154 C1153 1.398 . S
C1154 C1155 1.391 . S
C1155 H1143 0.950 . S
C1155 C1151 1.393 . S
C1155 C1154 1.391 . S
H1156 C1164 0.950 . S
H1157 C1169 0.950 . S
H1158 C1166 0.950 . S
H1159 C1168 0.950 . S
H1160 C1170 0.950 . S
H1161 C1172 0.950 . S
H1162 C1174 0.950 . S
H1163 C1175 0.950 . S
C1164 H1156 0.950 . S
C1164 C1165 1.386 . S
C1164 C1166 1.391 . S
C1165 C1164 1.386 . S
C1165 C1169 1.393 . S
C1166 H1158 0.950 . S
C1166 C1164 1.391 . S
C1166 C1167 1.400 . S
C1167 C1166 1.400 . S
C1167 C1168 1.398 . S
C1167 C1173 1.491 . S
C1168 H1159 0.950 . S
C1168 C1167 1.398 . S
C1168 C1169 1.391 . S
C1169 H1157 0.950 . S
C1169 C1165 1.393 . S
C1169 C1168 1.391 . S
C1170 H1160 0.950 . S
C1170 C1171 1.386 . S
C1170 C1172 1.391 . S
C1171 C1170 1.386 . S
C1171 C1175 1.393 . S
C1172 H1161 0.950 . S
C1172 C1170 1.391 . S
C1172 C1173 1.400 . S
C1173 C1167 1.491 . S
C1173 C1172 1.400 . S
C1173 C1174 1.398 . S
C1174 H1162 0.950 . S
C1174 C1173 1.398 . S
C1174 C1175 1.391 . S
C1175 H1163 0.950 . S
C1175 C1171 1.393 . S
C1175 C1174 1.391 . S
H1176 C1184 0.950 . S
H1177 C1189 0.950 . S
H1178 C1186 0.950 . S
H1179 C1188 0.950 . S
H1180 C1190 0.979 . S
H1181 C1192 0.950 . S
H1182 C1194 0.950 . S
H1183 C1195 0.950 . S
C1184 H1176 0.950 . S
C1184 C1185 1.386 . S
C1184 C1186 1.391 . S
C1185 C1184 1.386 . S
C1185 C1189 1.393 . S
C1186 H1178 0.950 . S
C1186 C1184 1.391 . S
C1186 C1187 1.400 . S
C1187 C1186 1.400 . S
C1187 C1188 1.398 . S
C1187 C1193 1.491 . S
C1188 H1179 0.950 . S
C1188 C1187 1.398 . S
C1188 C1189 1.391 . S
C1189 H1177 0.950 . S
C1189 C1185 1.393 . S
C1189 C1188 1.391 . S
C1190 H1180 0.979 . S
C1190 C1191 1.386 . S
C1190 C1192 1.391 . S
C1191 C1190 1.386 . S
C1191 C1195 1.393 . S
C1192 H1181 0.950 . S
C1192 C1190 1.391 . S
C1192 C1193 1.400 . S
C1193 C1187 1.491 . S
C1193 C1192 1.400 . S
C1193 C1194 1.398 . S
C1194 H1182 0.950 . S
C1194 C1193 1.398 . S
C1194 C1195 1.391 . S
C1195 H1183 0.950 . S
C1195 C1191 1.393 . S
C1195 C1194 1.391 . S
H1196 C1204 0.950 . S
H1197 C1209 0.950 . S
H1198 C1206 0.950 . S
H1199 C1208 0.950 . S
H1200 C1210 0.950 . S
H1201 C1212 0.950 . S
H1202 C1214 0.950 . S
H1203 C1215 0.950 . S
C1204 H1196 0.950 . S
C1204 C1205 1.386 . S
C1204 C1206 1.391 . S
C1205 C1204 1.386 . S
C1205 C1209 1.393 . S
C1206 H1198 0.950 . S
C1206 C1204 1.391 . S
C1206 C1207 1.400 . S
C1207 C1206 1.400 . S
C1207 C1208 1.398 . S
C1207 C1213 1.491 . S
C1208 H1199 0.950 . S
C1208 C1207 1.398 . S
C1208 C1209 1.391 . S
C1209 H1197 0.950 . S
C1209 C1205 1.393 . S
C1209 C1208 1.391 . S
C1210 H1200 0.950 . S
C1210 C1211 1.386 . S
C1210 C1212 1.391 . S
C1211 C1210 1.386 . S
C1211 C1215 1.393 . S
C1212 H1201 0.950 . S
C1212 C1210 1.391 . S
C1212 C1213 1.400 . S
C1213 C1207 1.491 . S
C1213 C1212 1.400 . S
C1213 C1214 1.398 . S
C1214 H1202 0.950 . S
C1214 C1213 1.398 . S
C1214 C1215 1.391 . S
C1215 H1203 0.950 . S
C1215 C1211 1.393 . S
C1215 C1214 1.391 . S
H1216 C1224 0.950 . S
H1217 C1229 0.950 1_455 S
H1218 C1226 0.950 . S
H1219 C1228 0.950 . S
H1220 C1230 0.950 . S
H1221 C1232 0.950 . S
H1222 C1234 0.950 . S
H1223 C1235 0.969 . S
C1224 H1216 0.950 . S
C1224 C1225 1.386 . S
C1224 C1226 1.391 . S
C1225 C1224 1.386 . S
C1225 C1229 1.393 . S
C1226 H1218 0.950 . S
C1226 C1224 1.391 . S
C1226 C1227 1.400 . S
C1227 C1226 1.400 . S
C1227 C1228 1.398 1_655 S
C1227 C1233 1.491 1_655 S
C1228 H1219 0.950 . S
C1228 C1227 1.398 1_455 S
C1228 C1229 1.391 1_455 S
C1229 H1217 0.950 1_655 S
C1229 C1225 1.393 . S
C1229 C1228 1.391 1_655 S
C1230 H1220 0.950 . S
C1230 C1231 1.386 . S
C1230 C1232 1.391 . S
C1231 C1230 1.386 . S
C1231 C1235 1.360 1_455 S
C1232 H1221 0.950 . S
C1232 C1230 1.391 . S
C1232 C1233 1.400 . S
C1233 C1227 1.491 1_455 S
C1233 C1232 1.400 . S
C1233 C1234 1.398 1_455 S
C1234 H1222 0.950 . S
C1234 C1233 1.398 1_655 S
C1234 C1235 1.406 . S
C1235 H1223 0.969 . S
C1235 C1231 1.360 1_655 S
C1235 C1234 1.406 . S
H1236 C1244 0.950 . S
H1237 C1249 0.950 . S
H1238 C1246 0.950 . S
H1239 C1248 0.950 . S
H1240 C1250 0.950 . S
H1241 C1252 0.950 . S
H1242 C1254 0.950 . S
H1243 C1255 0.950 . S
C1244 H1236 0.950 . S
C1244 C1245 1.386 . S
C1244 C1246 1.391 . S
C1245 C1244 1.386 . S
C1245 C1249 1.393 . S
C1246 H1238 0.950 . S
C1246 C1244 1.391 . S
C1246 C1247 1.400 . S
C1247 C1246 1.400 . S
C1247 C1248 1.398 . S
C1247 C1253 1.491 . S
C1248 H1239 0.950 . S
C1248 C1247 1.398 . S
C1248 C1249 1.391 . S
C1249 H1237 0.950 . S
C1249 C1245 1.393 . S
C1249 C1248 1.391 . S
C1250 H1240 0.950 . S
C1250 C1251 1.386 . S
C1250 C1252 1.391 . S
C1251 C1250 1.386 . S
C1251 C1255 1.393 . S
C1252 H1241 0.950 . S
C1252 C1250 1.391 . S
C1252 C1253 1.400 . S
C1253 C1247 1.491 . S
C1253 C1252 1.400 . S
C1253 C1254 1.398 . S
C1254 H1242 0.950 . S
C1254 C1253 1.398 . S
C1254 C1255 1.391 . S
C1255 H1243 0.950 . S
C1255 C1251 1.393 . S
C1255 C1254 1.391 . S
H1256 C1264 0.950 . S
H1257 C1269 0.950 . S
H1258 C1266 0.950 . S
H1259 C1268 0.950 . S
H1260 C1270 0.950 . S
H1261 C1272 0.950 . S
H1262 C1274 0.950 . S
H1263 C1275 0.950 . S
C1264 H1256 0.950 . S
C1264 C1265 1.386 . S
C1264 C1266 1.391 . S
C1265 C1264 1.386 . S
C1265 C1269 1.393 . S
C1266 H1258 0.950 . S
C1266 C1264 1.391 . S
C1266 C1267 1.400 . S
C1267 C1266 1.400 . S
C1267 C1268 1.398 . S
C1267 C1273 1.491 . S
C1268 H1259 0.950 . S
C1268 C1267 1.398 . S
C1268 C1269 1.391 . S
C1269 H1257 0.950 . S
C1269 C1265 1.393 . S
C1269 C1268 1.391 . S
C1270 H1260 0.950 . S
C1270 C1271 1.386 . S
C1270 C1272 1.391 . S
C1271 C1270 1.386 . S
C1271 C1275 1.393 . S
C1272 H1261 0.950 . S
C1272 C1270 1.391 . S
C1272 C1273 1.400 . S
C1273 C1267 1.491 . S
C1273 C1272 1.400 . S
C1273 C1274 1.398 . S
C1274 H1262 0.950 . S
C1274 C1273 1.398 . S
C1274 C1275 1.391 . S
C1275 H1263 0.950 . S
C1275 C1271 1.393 . S
C1275 C1274 1.391 . S
H1276 C1284 0.950 . S
H1277 C1289 0.950 . S
H1278 C1286 0.950 . S
H1279 C1288 0.950 . S
H1280 C1290 0.950 . S
H1281 C1292 0.950 . S
H1282 C1294 0.950 . S
H1283 C1295 0.950 . S
C1284 H1276 0.950 . S
C1284 C1285 1.386 . S
C1284 C1286 1.391 . S
C1285 C1284 1.386 . S
C1285 C1289 1.393 . S
C1286 H1278 0.950 . S
C1286 C1284 1.391 . S
C1286 C1287 1.400 . S
C1287 C1286 1.400 . S
C1287 C1288 1.398 . S
C1287 C1293 1.491 . S
C1288 H1279 0.950 . S
C1288 C1287 1.398 . S
C1288 C1289 1.391 . S
C1289 H1277 0.950 . S
C1289 C1285 1.393 . S
C1289 C1288 1.391 . S
C1290 H1280 0.950 . S
C1290 C1291 1.386 . S
C1290 C1292 1.391 . S
C1291 C1290 1.386 . S
C1291 C1295 1.393 . S
C1292 H1281 0.950 . S
C1292 C1290 1.391 . S
C1292 C1293 1.400 . S
C1293 C1287 1.491 . S
C1293 C1292 1.400 . S
C1293 C1294 1.398 . S
C1294 H1282 0.950 . S
C1294 C1293 1.398 . S
C1294 C1295 1.391 . S
C1295 H1283 0.950 . S
C1295 C1291 1.393 . S
C1295 C1294 1.391 . S
H1296 C1304 0.950 1_556 S
H1297 C1309 0.950 . S
H1298 C1306 0.950 1_545 S
H1299 C1308 0.950 . S
H1300 C1310 0.950 . S
H1301 C1312 0.950 . S
H1302 C1314 0.950 . S
H1303 C1315 0.950 . S
C1304 H1296 0.950 1_554 S
C1304 C1305 1.386 . S
C1304 C1306 1.391 . S
C1305 C1304 1.386 . S
C1305 C1309 1.393 . S
C1306 H1298 0.950 1_565 S
C1306 C1304 1.391 . S
C1306 C1307 1.400 . S
C1307 C1306 1.400 . S
C1307 C1308 1.398 . S
C1307 C1313 1.491 . S
C1308 H1299 0.950 . S
C1308 C1307 1.398 . S
C1308 C1309 1.391 . S
C1309 H1297 0.950 . S
C1309 C1305 1.393 . S
C1309 C1308 1.391 . S
C1310 H1300 0.950 . S
C1310 C1311 1.386 1_565 S
C1310 C1312 1.391 . S
C1311 C1310 1.386 1_545 S
C1311 C1315 1.393 . S
C1312 H1301 0.950 . S
C1312 C1310 1.391 . S
C1312 C1313 1.400 . S
C1313 C1307 1.491 . S
C1313 C1312 1.400 . S
C1313 C1314 1.398 1_565 S
C1314 H1302 0.950 . S
C1314 C1313 1.398 1_545 S
C1314 C1315 1.391 . S
C1315 H1303 0.950 . S
C1315 C1311 1.393 . S
C1315 C1314 1.391 . S
H1316 C1324 0.950 . S
H1317 C1329 0.950 . S
H1318 C1326 0.950 . S
H1319 C1328 0.950 . S
H1320 C1330 0.950 . S
H1321 C1332 0.950 . S
H1322 C1334 0.950 . S
H1323 C1335 0.950 . S
C1324 H1316 0.950 . S
C1324 C1325 1.386 . S
C1324 C1326 1.391 . S
C1325 C1324 1.386 . S
C1325 C1329 1.393 1_554 S
C1326 H1318 0.950 . S
C1326 C1324 1.391 . S
C1326 C1327 1.400 . S
C1327 C1326 1.400 . S
C1327 C1328 1.398 1_554 S
C1327 C1333 1.491 . S
C1328 H1319 0.950 . S
C1328 C1327 1.398 1_556 S
C1328 C1329 1.391 . S
C1329 H1317 0.950 . S
C1329 C1325 1.393 1_556 S
C1329 C1328 1.391 . S
C1330 H1320 0.950 . S
C1330 C1331 1.386 1_556 S
C1330 C1332 1.391 . S
C1331 C1330 1.386 1_554 S
C1331 C1335 1.393 . S
C1332 H1321 0.950 . S
C1332 C1330 1.391 . S
C1332 C1333 1.400 1_556 S
C1333 C1327 1.491 . S
C1333 C1332 1.400 1_554 S
C1333 C1334 1.398 . S
C1334 H1322 0.950 . S
C1334 C1333 1.398 . S
C1334 C1335 1.391 . S
C1335 H1323 0.950 . S
C1335 C1331 1.393 . S
C1335 C1334 1.391 . S
H1336 C1344 0.950 . S
H1337 C1349 0.950 . S
H1338 C1346 0.950 . S
H1339 C1348 0.950 . S
H1340 C1350 0.950 . S
H1341 C1352 0.950 . S
H1342 C1354 0.950 . S
H1343 C1355 0.950 . S
C1344 H1336 0.950 . S
C1344 C1345 1.386 . S
C1344 C1346 1.391 . S
C1345 C1344 1.386 . S
C1345 C1349 1.393 . S
C1346 H1338 0.950 . S
C1346 C1344 1.391 . S
C1346 C1347 1.400 . S
C1347 C1346 1.400 . S
C1347 C1348 1.398 . S
C1347 C1353 1.491 . S
C1348 H1339 0.950 . S
C1348 C1347 1.398 . S
C1348 C1349 1.391 . S
C1349 H1337 0.950 . S
C1349 C1345 1.393 . S
C1349 C1348 1.391 . S
C1350 H1340 0.950 . S
C1350 C1351 1.386 . S
C1350 C1352 1.391 . S
C1351 C1350 1.386 . S
C1351 C1355 1.393 . S
C1352 H1341 0.950 . S
C1352 C1350 1.391 . S
C1352 C1353 1.400 . S
C1353 C1347 1.491 . S
C1353 C1352 1.400 . S
C1353 C1354 1.398 . S
C1354 H1342 0.950 . S
C1354 C1353 1.398 . S
C1354 C1355 1.391 . S
C1355 H1343 0.950 . S
C1355 C1351 1.393 . S
C1355 C1354 1.391 . S
H1356 C1364 0.950 . S
H1357 C1369 0.950 . S
H1358 C1366 0.950 . S
H1359 C1368 0.950 . S
H1360 C1370 0.950 . S
H1361 C1372 0.950 . S
H1362 C1374 0.950 . S
H1363 C1375 0.950 . S
C1364 H1356 0.950 . S
C1364 C1365 1.386 . S
C1364 C1366 1.391 . S
C1365 C1364 1.386 . S
C1365 C1369 1.393 . S
C1366 H1358 0.950 . S
C1366 C1364 1.391 . S
C1366 C1367 1.400 . S
C1367 C1366 1.400 . S
C1367 C1368 1.398 . S
C1367 C1373 1.491 . S
C1368 H1359 0.950 . S
C1368 C1367 1.398 . S
C1368 C1369 1.391 . S
C1369 H1357 0.950 . S
C1369 C1365 1.393 . S
C1369 C1368 1.391 . S
C1370 H1360 0.950 . S
C1370 C1371 1.386 . S
C1370 C1372 1.391 . S
C1371 C1370 1.386 . S
C1371 C1375 1.393 . S
C1372 H1361 0.950 . S
C1372 C1370 1.391 . S
C1372 C1373 1.400 . S
C1373 C1367 1.491 . S
C1373 C1372 1.400 . S
C1373 C1374 1.398 . S
C1374 H1362 0.950 . S
C1374 C1373 1.398 . S
C1374 C1375 1.391 . S
C1375 H1363 0.950 . S
C1375 C1371 1.393 . S
C1375 C1374 1.391 . S
H1376 C1384 0.950 . S
H1377 C1389 0.950 . S
H1378 C1386 0.950 . S
H1379 C1388 0.950 . S
H1380 C1390 0.950 . S
H1381 C1392 0.950 . S
H1382 C1394 0.950 . S
H1383 C1395 0.950 . S
C1384 H1376 0.950 . S
C1384 C1385 1.386 . S
C1384 C1386 1.391 . S
C1385 C1384 1.386 . S
C1385 C1389 1.393 . S
C1386 H1378 0.950 . S
C1386 C1384 1.391 . S
C1386 C1387 1.400 . S
C1387 C1386 1.400 . S
C1387 C1388 1.398 . S
C1387 C1393 1.491 . S
C1388 H1379 0.950 . S
C1388 C1387 1.398 . S
C1388 C1389 1.391 . S
C1389 H1377 0.950 . S
C1389 C1385 1.393 . S
C1389 C1388 1.391 . S
C1390 H1380 0.950 . S
C1390 C1391 1.386 . S
C1390 C1392 1.391 . S
C1391 C1390 1.386 . S
C1391 C1395 1.393 . S
C1392 H1381 0.950 . S
C1392 C1390 1.391 . S
C1392 C1393 1.400 . S
C1393 C1387 1.491 . S
C1393 C1392 1.400 . S
C1393 C1394 1.398 . S
C1394 H1382 0.950 . S
C1394 C1393 1.398 . S
C1394 C1395 1.391 . S
C1395 H1383 0.950 . S
C1395 C1391 1.393 . S
C1395 C1394 1.391 . S
H1396 C1404 0.950 . S
H1397 C1409 0.950 . S
H1398 C1406 0.950 . S
H1399 C1408 0.950 . S
H1400 C1410 0.950 . S
H1401 C1412 0.950 . S
H1402 C1414 0.950 . S
H1403 C1415 0.950 . S
C1404 H1396 0.950 . S
C1404 C1405 1.386 . S
C1404 C1406 1.391 . S
C1405 C1404 1.386 . S
C1405 C1409 1.393 . S
C1406 H1398 0.950 . S
C1406 C1404 1.391 . S
C1406 C1407 1.400 . S
C1407 C1406 1.400 . S
C1407 C1408 1.398 . S
C1407 C1413 1.491 . S
C1408 H1399 0.950 . S
C1408 C1407 1.398 . S
C1408 C1409 1.391 . S
C1409 H1397 0.950 . S
C1409 C1405 1.393 . S
C1409 C1408 1.391 . S
C1410 H1400 0.950 . S
C1410 C1411 1.386 . S
C1410 C1412 1.391 . S
C1411 C1410 1.386 . S
C1411 C1415 1.393 . S
C1412 H1401 0.950 . S
C1412 C1410 1.391 . S
C1412 C1413 1.400 . S
C1413 C1407 1.491 . S
C1413 C1412 1.400 . S
C1413 C1414 1.398 . S
C1414 H1402 0.950 . S
C1414 C1413 1.398 . S
C1414 C1415 1.391 . S
C1415 H1403 0.950 . S
C1415 C1411 1.393 . S
C1415 C1414 1.391 . S
H1416 C1424 0.950 . S
H1417 C1429 0.950 . S
H1418 C1426 0.950 . S
H1419 C1428 0.950 . S
H1420 C1430 0.950 . S
H1421 C1432 0.950 . S
H1422 C1434 0.950 . S
H1423 C1435 0.950 . S
C1424 H1416 0.950 . S
C1424 C1425 1.386 . S
C1424 C1426 1.391 . S
C1425 C1424 1.386 . S
C1425 C1429 1.393 . S
C1426 H1418 0.950 . S
C1426 C1424 1.391 . S
C1426 C1427 1.400 . S
C1427 C1426 1.400 . S
C1427 C1428 1.398 . S
C1427 C1433 1.491 . S
C1428 H1419 0.950 . S
C1428 C1427 1.398 . S
C1428 C1429 1.391 . S
C1429 H1417 0.950 . S
C1429 C1425 1.393 . S
C1429 C1428 1.391 . S
C1430 H1420 0.950 . S
C1430 C1431 1.386 . S
C1430 C1432 1.391 . S
C1431 C1430 1.386 . S
C1431 C1435 1.393 . S
C1432 H1421 0.950 . S
C1432 C1430 1.391 . S
C1432 C1433 1.400 . S
C1433 C1427 1.491 . S
C1433 C1432 1.400 . S
C1433 C1434 1.398 . S
C1434 H1422 0.950 . S
C1434 C1433 1.398 . S
C1434 C1435 1.391 . S
C1435 H1423 0.950 . S
C1435 C1431 1.393 . S
C1435 C1434 1.391 . S
H1436 C1444 0.950 . S
H1437 C1449 0.950 . S
H1438 C1446 0.950 . S
H1439 C1448 0.950 . S
H1440 C1450 0.950 . S
H1441 C1452 0.950 . S
H1442 C1454 0.950 . S
H1443 C1455 0.950 . S
C1444 H1436 0.950 . S
C1444 C1445 1.386 . S
C1444 C1446 1.391 . S
C1445 C1444 1.386 . S
C1445 C1449 1.393 . S
C1446 H1438 0.950 . S
C1446 C1444 1.391 . S
C1446 C1447 1.400 . S
C1447 C1446 1.400 . S
C1447 C1448 1.398 . S
C1447 C1453 1.491 . S
C1448 H1439 0.950 . S
C1448 C1447 1.398 . S
C1448 C1449 1.391 . S
C1449 H1437 0.950 . S
C1449 C1445 1.393 . S
C1449 C1448 1.391 . S
C1450 H1440 0.950 . S
C1450 C1451 1.386 . S
C1450 C1452 1.391 . S
C1451 C1450 1.386 . S
C1451 C1455 1.393 . S
C1452 H1441 0.950 . S
C1452 C1450 1.391 . S
C1452 C1453 1.400 . S
C1453 C1447 1.491 . S
C1453 C1452 1.400 . S
C1453 C1454 1.398 . S
C1454 H1442 0.950 . S
C1454 C1453 1.398 . S
C1454 C1455 1.391 . S
C1455 H1443 0.950 . S
C1455 C1451 1.393 . S
C1455 C1454 1.391 . S
H1456 C1464 0.950 . S
H1457 C1469 0.950 . S
H1458 C1466 0.950 . S
H1459 C1468 0.950 . S
H1460 C1470 0.950 . S
H1461 C1472 0.950 . S
H1462 C1474 0.950 . S
H1463 C1475 0.950 . S
C1464 H1456 0.950 . S
C1464 C1465 1.386 . S
C1464 C1466 1.391 . S
C1465 C1464 1.386 . S
C1465 C1469 1.393 . S
C1466 H1458 0.950 . S
C1466 C1464 1.391 . S
C1466 C1467 1.400 . S
C1467 C1466 1.400 . S
C1467 C1468 1.398 . S
C1467 C1473 1.491 . S
C1468 H1459 0.950 . S
C1468 C1467 1.398 . S
C1468 C1469 1.391 . S
C1469 H1457 0.950 . S
C1469 C1465 1.393 . S
C1469 C1468 1.391 . S
C1470 H1460 0.950 . S
C1470 C1471 1.386 . S
C1470 C1472 1.391 . S
C1471 C1470 1.386 . S
C1471 C1475 1.393 . S
C1472 H1461 0.950 . S
C1472 C1470 1.391 . S
C1472 C1473 1.400 . S
C1473 C1467 1.491 . S
C1473 C1472 1.400 . S
C1473 C1474 1.398 . S
C1474 H1462 0.950 . S
C1474 C1473 1.398 . S
C1474 C1475 1.391 . S
C1475 H1463 0.950 . S
C1475 C1471 1.393 . S
C1475 C1474 1.391 . S
H1476 C1484 0.950 . S
H1477 C1489 0.950 . S
H1478 C1486 0.950 . S
H1479 C1488 0.950 . S
H1480 C1490 0.950 . S
H1481 C1492 0.950 . S
H1482 C1494 0.950 . S
H1483 C1495 0.950 . S
C1484 H1476 0.950 . S
C1484 C1485 1.386 . S
C1484 C1486 1.391 . S
C1485 C1484 1.386 . S
C1485 C1489 1.393 . S
C1486 H1478 0.950 . S
C1486 C1484 1.391 . S
C1486 C1487 1.400 . S
C1487 C1486 1.400 . S
C1487 C1488 1.398 . S
C1487 C1493 1.491 . S
C1488 H1479 0.950 . S
C1488 C1487 1.398 . S
C1488 C1489 1.391 . S
C1489 H1477 0.950 . S
C1489 C1485 1.393 . S
C1489 C1488 1.391 . S
C1490 H1480 0.950 . S
C1490 C1491 1.386 . S
C1490 C1492 1.391 . S
C1491 C1490 1.386 . S
C1491 C1495 1.393 . S
C1492 H1481 0.950 . S
C1492 C1490 1.391 . S
C1492 C1493 1.400 . S
C1493 C1487 1.491 . S
C1493 C1492 1.400 . S
C1493 C1494 1.398 . S
C1494 H1482 0.950 . S
C1494 C1493 1.398 . S
C1494 C1495 1.391 . S
C1495 H1483 0.950 . S
C1495 C1491 1.393 . S
C1495 C1494 1.391 . S
H1496 C1504 0.950 . S
H1497 C1509 0.950 . S
H1498 C1506 0.950 . S
H1499 C1508 0.950 . S
H1500 C1510 0.950 . S
H1501 C1512 0.950 . S
H1502 C1514 0.950 . S
H1503 C1515 0.950 . S
C1504 H1496 0.950 . S
C1504 C1505 1.386 . S
C1504 C1506 1.391 . S
C1505 C1504 1.386 . S
C1505 C1509 1.393 . S
C1506 H1498 0.950 . S
C1506 C1504 1.391 . S
C1506 C1507 1.400 . S
C1507 C1506 1.400 . S
C1507 C1508 1.398 . S
C1507 C1513 1.491 . S
C1508 H1499 0.950 . S
C1508 C1507 1.398 . S
C1508 C1509 1.391 . S
C1509 H1497 0.950 . S
C1509 C1505 1.393 . S
C1509 C1508 1.391 . S
C1510 H1500 0.950 . S
C1510 C1511 1.386 . S
C1510 C1512 1.391 . S
C1511 C1510 1.386 . S
C1511 C1515 1.393 . S
C1512 H1501 0.950 . S
C1512 C1510 1.391 . S
C1512 C1513 1.400 . S
C1513 C1507 1.491 . S
C1513 C1512 1.400 . S
C1513 C1514 1.398 . S
C1514 H1502 0.950 . S
C1514 C1513 1.398 . S
C1514 C1515 1.391 . S
C1515 H1503 0.950 . S
C1515 C1511 1.393 . S
C1515 C1514 1.391 . S
H1516 C1524 0.950 . S
H1517 C1529 0.950 . S
H1518 C1526 0.950 . S
H1519 C1528 0.950 . S
H1520 C1530 0.950 . S
H1521 C1532 0.950 . S
H1522 C1534 0.950 . S
H1523 C1535 0.950 . S
C1524 H1516 0.950 . S
C1524 C1525 1.386 . S
C1524 C1526 1.391 . S
C1525 C1524 1.386 . S
C1525 C1529 1.393 . S
C1526 H1518 0.950 . S
C1526 C1524 1.391 . S
C1526 C1527 1.400 . S
C1527 C1526 1.400 . S
C1527 C1528 1.398 . S
C1527 C1533 1.491 . S
C1528 H1519 0.950 . S
C1528 C1527 1.398 . S
C1528 C1529 1.391 . S
C1529 H1517 0.950 . S
C1529 C1525 1.393 . S
C1529 C1528 1.391 . S
C1530 H1520 0.950 . S
C1530 C1531 1.386 . S
C1530 C1532 1.391 . S
C1531 C1530 1.386 . S
C1531 C1535 1.393 . S
C1532 H1521 0.950 . S
C1532 C1530 1.391 . S
C1532 C1533 1.400 . S
C1533 C1527 1.491 . S
C1533 C1532 1.400 . S
C1533 C1534 1.398 . S
C1534 H1522 0.950 . S
C1534 C1533 1.398 . S
C1534 C1535 1.391 . S
C1535 H1523 0.950 . S
C1535 C1531 1.393 . S
C1535 C1534 1.391 . S
H1536 C1544 0.950 . S
H1537 C1549 0.950 . S
H1538 C1546 0.950 . S
H1539 C1548 0.950 . S
H1540 C1550 0.950 . S
H1541 C1552 0.950 . S
H1542 C1554 0.950 . S
H1543 C1555 0.950 . S
C1544 H1536 0.950 . S
C1544 C1545 1.386 . S
C1544 C1546 1.391 . S
C1545 C1544 1.386 . S
C1545 C1549 1.393 . S
C1546 H1538 0.950 . S
C1546 C1544 1.391 . S
C1546 C1547 1.400 . S
C1547 C1546 1.400 . S
C1547 C1548 1.398 . S
C1547 C1553 1.491 . S
C1548 H1539 0.950 . S
C1548 C1547 1.398 . S
C1548 C1549 1.391 . S
C1549 H1537 0.950 . S
C1549 C1545 1.393 . S
C1549 C1548 1.391 . S
C1550 H1540 0.950 . S
C1550 C1551 1.386 . S
C1550 C1552 1.391 . S
C1551 C1550 1.386 . S
C1551 C1555 1.393 . S
C1552 H1541 0.950 . S
C1552 C1550 1.391 . S
C1552 C1553 1.400 . S
C1553 C1547 1.491 . S
C1553 C1552 1.400 . S
C1553 C1554 1.398 . S
C1554 H1542 0.950 . S
C1554 C1553 1.398 . S
C1554 C1555 1.391 . S
C1555 H1543 0.950 . S
C1555 C1551 1.393 . S
C1555 C1554 1.391 . S
H1556 C1564 0.950 . S
H1557 C1569 0.950 . S
H1558 C1566 0.950 . S
H1559 C1568 0.950 . S
H1560 C1570 0.950 . S
H1561 C1572 0.950 . S
H1562 C1574 0.950 . S
H1563 C1575 0.950 . S
C1564 H1556 0.950 . S
C1564 C1565 1.386 . S
C1564 C1566 1.391 . S
C1565 C1564 1.386 . S
C1565 C1569 1.393 . S
C1566 H1558 0.950 . S
C1566 C1564 1.391 . S
C1566 C1567 1.400 . S
C1567 C1566 1.400 . S
C1567 C1568 1.398 . S
C1567 C1573 1.491 . S
C1568 H1559 0.950 . S
C1568 C1567 1.398 . S
C1568 C1569 1.391 . S
C1569 H1557 0.950 . S
C1569 C1565 1.393 . S
C1569 C1568 1.391 . S
C1570 H1560 0.950 . S
C1570 C1571 1.386 . S
C1570 C1572 1.391 . S
C1571 C1570 1.386 . S
C1571 C1575 1.393 . S
C1572 H1561 0.950 . S
C1572 C1570 1.391 . S
C1572 C1573 1.400 . S
C1573 C1567 1.491 . S
C1573 C1572 1.400 . S
C1573 C1574 1.398 . S
C1574 H1562 0.950 . S
C1574 C1573 1.398 . S
C1574 C1575 1.391 . S
C1575 H1563 0.950 . S
C1575 C1571 1.393 . S
C1575 C1574 1.391 . S
H1576 C1584 0.950 . S
H1577 C1589 0.950 . S
H1578 C1586 0.950 . S
H1579 C1588 0.950 . S
H1580 C1590 0.950 1_554 S
H1581 C1592 0.950 . S
H1582 C1594 0.950 . S
H1583 C1595 0.950 . S
C1584 H1576 0.950 . S
C1584 C1585 1.386 . S
C1584 C1586 1.391 . S
C1585 C1584 1.386 . S
C1585 C1589 1.393 . S
C1586 H1578 0.950 . S
C1586 C1584 1.391 . S
C1586 C1587 1.400 . S
C1587 C1586 1.400 . S
C1587 C1588 1.398 . S
C1587 C1593 1.491 . S
C1588 H1579 0.950 . S
C1588 C1587 1.398 . S
C1588 C1589 1.391 . S
C1589 H1577 0.950 . S
C1589 C1585 1.393 . S
C1589 C1588 1.391 . S
C1590 H1580 0.950 1_556 S
C1590 C1591 1.386 . S
C1590 C1592 1.391 . S
C1591 C1590 1.386 . S
C1591 C1595 1.393 . S
C1592 H1581 0.950 . S
C1592 C1590 1.391 . S
C1592 C1593 1.400 . S
C1593 C1587 1.491 . S
C1593 C1592 1.400 . S
C1593 C1594 1.398 . S
C1594 H1582 0.950 . S
C1594 C1593 1.398 . S
C1594 C1595 1.391 . S
C1595 H1583 0.950 . S
C1595 C1591 1.393 . S
C1595 C1594 1.391 . S
H1596 C1604 0.950 . S
H1597 C1609 0.950 . S
H1598 C1606 0.950 . S
H1599 C1608 0.950 . S
H1600 C1610 0.950 . S
H1601 C1612 0.950 . S
H1602 C1614 0.950 . S
H1603 C1615 0.950 . S
C1604 H1596 0.950 . S
C1604 C1605 1.386 . S
C1604 C1606 1.391 . S
C1605 C1604 1.386 . S
C1605 C1609 1.393 . S
C1606 H1598 0.950 . S
C1606 C1604 1.391 . S
C1606 C1607 1.400 . S
C1607 C1606 1.400 . S
C1607 C1608 1.398 . S
C1607 C1613 1.491 . S
C1608 H1599 0.950 . S
C1608 C1607 1.398 . S
C1608 C1609 1.391 . S
C1609 H1597 0.950 . S
C1609 C1605 1.393 . S
C1609 C1608 1.391 . S
C1610 H1600 0.950 . S
C1610 C1611 1.386 . S
C1610 C1612 1.391 . S
C1611 C1610 1.386 . S
C1611 C1615 1.393 . S
C1612 H1601 0.950 . S
C1612 C1610 1.391 . S
C1612 C1613 1.400 . S
C1613 C1607 1.491 . S
C1613 C1612 1.400 . S
C1613 C1614 1.398 . S
C1614 H1602 0.950 . S
C1614 C1613 1.398 . S
C1614 C1615 1.391 . S
C1615 H1603 0.950 . S
C1615 C1611 1.393 . S
C1615 C1614 1.391 . S
H1616 C1624 0.950 . S
H1617 C1629 0.987 . S
H1618 C1626 0.950 . S
H1619 C1628 0.931 1_565 S
H1620 C1630 0.950 1_565 S
H1621 C1632 0.950 1_565 S
H1622 C1634 0.950 . S
H1623 C1635 0.950 . S
C1624 H1616 0.950 . S
C1624 C1625 1.386 . S
C1624 C1626 1.391 . S
C1625 C1624 1.386 . S
C1625 C1629 1.357 1_545 S
C1626 H1618 0.950 . S
C1626 C1624 1.391 . S
C1626 C1627 1.400 . S
C1627 C1626 1.400 . S
C1627 C1628 1.417 . S
C1627 C1633 1.491 . S
C1628 H1619 0.931 1_545 S
C1628 C1627 1.417 . S
C1628 C1629 1.394 1_545 S
C1629 H1617 0.987 . S
C1629 C1625 1.357 1_565 S
C1629 C1628 1.394 1_565 S
C1630 H1620 0.950 1_545 S
C1630 C1631 1.386 . S
C1630 C1632 1.391 . S
C1631 C1630 1.386 . S
C1631 C1635 1.393 . S
C1632 H1621 0.950 1_545 S
C1632 C1630 1.391 . S
C1632 C1633 1.400 . S
C1633 C1627 1.491 . S
C1633 C1632 1.400 . S
C1633 C1634 1.398 . S
C1634 H1622 0.950 . S
C1634 C1633 1.398 . S
C1634 C1635 1.391 . S
C1635 H1623 0.950 . S
C1635 C1631 1.393 . S
C1635 C1634 1.391 . S
H1636 C1644 0.950 . S
H1637 C1649 0.950 . S
H1638 C1646 0.950 . S
H1639 C1648 0.950 . S
H1640 C1650 0.950 . S
H1641 C1652 0.950 . S
H1642 C1654 0.950 . S
H1643 C1655 0.950 . S
C1644 H1636 0.950 . S
C1644 C1645 1.386 . S
C1644 C1646 1.391 . S
C1645 C1644 1.386 . S
C1645 C1649 1.393 . S
C1646 H1638 0.950 . S
C1646 C1644 1.391 . S
C1646 C1647 1.400 . S
C1647 C1646 1.400 . S
C1647 C1648 1.398 . S
C1647 C1653 1.491 . S
C1648 H1639 0.950 . S
C1648 C1647 1.398 . S
C1648 C1649 1.391 . S
C1649 H1637 0.950 . S
C1649 C1645 1.393 . S
C1649 C1648 1.391 . S
C1650 H1640 0.950 . S
C1650 C1651 1.386 . S
C1650 C1652 1.391 . S
C1651 C1650 1.386 . S
C1651 C1655 1.393 . S
C1652 H1641 0.950 . S
C1652 C1650 1.391 . S
C1652 C1653 1.400 . S
C1653 C1647 1.491 . S
C1653 C1652 1.400 . S
C1653 C1654 1.398 . S
C1654 H1642 0.950 . S
C1654 C1653 1.398 . S
C1654 C1655 1.391 . S
C1655 H1643 0.950 . S
C1655 C1651 1.393 . S
C1655 C1654 1.391 . S
H1656 C1664 0.950 1_565 S
H1657 C1669 0.950 . S
H1658 C1666 0.936 1_565 S
H1659 C1668 0.950 . S
H1660 C1670 0.950 . S
H1661 C1672 0.950 . S
H1662 C1674 0.950 . S
H1663 C1675 0.950 . S
C1664 H1656 0.950 1_545 S
C1664 C1665 1.386 . S
C1664 C1666 1.391 . S
C1665 C1664 1.386 . S
C1665 C1669 1.393 . S
C1666 H1658 0.936 1_545 S
C1666 C1664 1.391 . S
C1666 C1667 1.400 . S
C1667 C1666 1.400 . S
C1667 C1668 1.398 . S
C1667 C1673 1.491 . S
C1668 H1659 0.950 . S
C1668 C1667 1.398 . S
C1668 C1669 1.391 . S
C1669 H1657 0.950 . S
C1669 C1665 1.393 . S
C1669 C1668 1.391 . S
C1670 H1660 0.950 . S
C1670 C1671 1.386 . S
C1670 C1672 1.391 . S
C1671 C1670 1.386 . S
C1671 C1675 1.393 . S
C1672 H1661 0.950 . S
C1672 C1670 1.391 . S
C1672 C1673 1.400 . S
C1673 C1667 1.491 . S
C1673 C1672 1.400 . S
C1673 C1674 1.398 . S
C1674 H1662 0.950 . S
C1674 C1673 1.398 . S
C1674 C1675 1.391 . S
C1675 H1663 0.950 . S
C1675 C1671 1.393 . S
C1675 C1674 1.391 . S
H1676 C1684 0.950 . S
H1677 C1689 0.950 . S
H1678 C1686 0.950 . S
H1679 C1688 0.950 . S
H1680 C1690 0.950 . S
H1681 C1692 0.950 . S
H1682 C1694 0.950 . S
H1683 C1695 0.950 . S
C1684 H1676 0.950 . S
C1684 C1685 1.386 . S
C1684 C1686 1.391 . S
C1685 C1684 1.386 . S
C1685 C1689 1.393 . S
C1686 H1678 0.950 . S
C1686 C1684 1.391 . S
C1686 C1687 1.400 . S
C1687 C1686 1.400 . S
C1687 C1688 1.398 . S
C1687 C1693 1.491 . S
C1688 H1679 0.950 . S
C1688 C1687 1.398 . S
C1688 C1689 1.391 . S
C1689 H1677 0.950 . S
C1689 C1685 1.393 . S
C1689 C1688 1.391 . S
C1690 H1680 0.950 . S
C1690 C1691 1.386 . S
C1690 C1692 1.391 . S
C1691 C1690 1.386 . S
C1691 C1695 1.393 . S
C1692 H1681 0.950 . S
C1692 C1690 1.391 . S
C1692 C1693 1.400 . S
C1693 C1687 1.491 . S
C1693 C1692 1.400 . S
C1693 C1694 1.398 . S
C1694 H1682 0.950 . S
C1694 C1693 1.398 . S
C1694 C1695 1.391 . S
C1695 H1683 0.950 . S
C1695 C1691 1.393 . S
C1695 C1694 1.391 . S
H1696 C1704 0.950 . S
H1697 C1709 0.950 . S
H1698 C1706 0.950 . S
H1699 C1708 0.950 . S
H1700 C1710 0.950 . S
H1701 C1712 0.950 . S
H1702 C1714 0.948 . S
H1703 C1715 0.950 1_565 S
C1704 H1696 0.950 . S
C1704 C1705 1.386 1_565 S
C1704 C1706 1.391 . S
C1705 C1704 1.386 1_545 S
C1705 C1709 1.393 . S
C1706 H1698 0.950 . S
C1706 C1704 1.391 . S
C1706 C1707 1.400 1_565 S
C1707 C1706 1.400 1_545 S
C1707 C1708 1.398 . S
C1707 C1713 1.491 . S
C1708 H1699 0.950 . S
C1708 C1707 1.398 . S
C1708 C1709 1.391 . S
C1709 H1697 0.950 . S
C1709 C1705 1.393 . S
C1709 C1708 1.391 . S
C1710 H1700 0.950 . S
C1710 C1711 1.386 . S
C1710 C1712 1.391 . S
C1711 C1710 1.386 . S
C1711 C1715 1.393 . S
C1712 H1701 0.950 . S
C1712 C1710 1.391 . S
C1712 C1713 1.400 . S
C1713 C1707 1.491 . S
C1713 C1712 1.400 . S
C1713 C1714 1.399 1_545 S
C1714 H1702 0.948 . S
C1714 C1713 1.399 1_565 S
C1714 C1715 1.391 1_565 S
C1715 H1703 0.950 1_545 S
C1715 C1711 1.393 . S
C1715 C1714 1.391 1_545 S
H1716 C1724 0.950 . S
H1717 C1729 0.950 . S
H1718 C1726 0.950 . S
H1719 C1728 0.950 . S
H1720 C1730 0.950 . S
H1721 C1732 0.950 . S
H1722 C1734 0.950 . S
H1723 C1735 0.950 . S
C1724 H1716 0.950 . S
C1724 C1725 1.386 . S
C1724 C1726 1.391 . S
C1725 C1724 1.386 . S
C1725 C1729 1.393 . S
C1726 H1718 0.950 . S
C1726 C1724 1.391 . S
C1726 C1727 1.400 . S
C1727 C1726 1.400 . S
C1727 C1728 1.398 . S
C1727 C1733 1.491 . S
C1728 H1719 0.950 . S
C1728 C1727 1.398 . S
C1728 C1729 1.391 . S
C1729 H1717 0.950 . S
C1729 C1725 1.393 . S
C1729 C1728 1.391 . S
C1730 H1720 0.950 . S
C1730 C1731 1.386 . S
C1730 C1732 1.391 . S
C1731 C1730 1.386 . S
C1731 C1735 1.393 . S
C1732 H1721 0.950 . S
C1732 C1730 1.391 . S
C1732 C1733 1.400 . S
C1733 C1727 1.491 . S
C1733 C1732 1.400 . S
C1733 C1734 1.398 . S
C1734 H1722 0.950 . S
C1734 C1733 1.398 . S
C1734 C1735 1.391 . S
C1735 H1723 0.950 . S
C1735 C1731 1.393 . S
C1735 C1734 1.391 . S
H1736 C1744 0.950 . S
H1737 C1749 0.950 . S
H1738 C1746 0.950 . S
H1739 C1748 0.950 . S
H1740 C1750 0.960 . S
H1741 C1752 0.947 . S
H1742 C1754 0.954 . S
H1743 C1755 0.946 . S
C1744 H1736 0.950 . S
C1744 C1745 1.386 . S
C1744 C1746 1.391 . S
C1745 C1744 1.386 . S
C1745 C1749 1.393 . S
C1746 H1738 0.950 . S
C1746 C1744 1.391 . S
C1746 C1747 1.400 . S
C1747 C1746 1.400 . S
C1747 C1748 1.398 . S
C1747 C1753 1.491 . S
C1748 H1739 0.950 . S
C1748 C1747 1.398 . S
C1748 C1749 1.391 . S
C1749 H1737 0.950 . S
C1749 C1745 1.393 . S
C1749 C1748 1.391 . S
C1750 H1740 0.960 . S
C1750 C1751 1.378 . S
C1750 C1752 1.394 . S
C1751 C1750 1.378 . S
C1751 C1755 1.391 . S
C1752 H1741 0.947 . S
C1752 C1750 1.394 . S
C1752 C1753 1.396 1_565 S
C1753 C1747 1.491 . S
C1753 C1752 1.396 1_545 S
C1753 C1754 1.403 1_545 S
C1754 H1742 0.954 . S
C1754 C1753 1.403 1_565 S
C1754 C1755 1.390 . S
C1755 H1743 0.946 . S
C1755 C1751 1.391 . S
C1755 C1754 1.390 . S
H1756 C1764 0.950 . S
H1757 C1769 0.950 . S
H1758 C1766 0.950 . S
H1759 C1768 0.950 . S
H1760 C1770 0.950 . S
H1761 C1772 0.950 . S
H1762 C1774 0.950 . S
H1763 C1775 0.950 . S
C1764 H1756 0.950 . S
C1764 C1765 1.386 . S
C1764 C1766 1.391 . S
C1765 C1764 1.386 . S
C1765 C1769 1.393 . S
C1766 H1758 0.950 . S
C1766 C1764 1.391 . S
C1766 C1767 1.400 . S
C1767 C1766 1.400 . S
C1767 C1768 1.398 . S
C1767 C1773 1.491 . S
C1768 H1759 0.950 . S
C1768 C1767 1.398 . S
C1768 C1769 1.391 . S
C1769 H1757 0.950 . S
C1769 C1765 1.393 . S
C1769 C1768 1.391 . S
C1770 H1760 0.950 . S
C1770 C1771 1.386 . S
C1770 C1772 1.391 . S
C1771 C1770 1.386 . S
C1771 C1775 1.393 . S
C1772 H1761 0.950 . S
C1772 C1770 1.391 . S
C1772 C1773 1.400 . S
C1773 C1767 1.491 . S
C1773 C1772 1.400 . S
C1773 C1774 1.398 . S
C1774 H1762 0.950 . S
C1774 C1773 1.398 . S
C1774 C1775 1.391 . S
C1775 H1763 0.950 . S
C1775 C1771 1.393 . S
C1775 C1774 1.391 . S
H1776 C1784 0.950 . S
H1777 C1789 0.950 . S
H1778 C1786 0.950 . S
H1779 C1788 0.950 . S
H1780 C1790 0.950 . S
H1781 C1792 0.950 . S
H1782 C1794 0.950 . S
H1783 C1795 0.950 . S
C1784 H1776 0.950 . S
C1784 C1785 1.386 1_556 S
C1784 C1786 1.391 . S
C1785 C1784 1.386 1_554 S
C1785 C1789 1.393 . S
C1786 H1778 0.950 . S
C1786 C1784 1.391 . S
C1786 C1787 1.400 1_556 S
C1787 C1786 1.400 1_554 S
C1787 C1788 1.398 . S
C1787 C1793 1.491 . S
C1788 H1779 0.950 . S
C1788 C1787 1.398 . S
C1788 C1789 1.391 . S
C1789 H1777 0.950 . S
C1789 C1785 1.393 . S
C1789 C1788 1.391 . S
C1790 H1780 0.950 . S
C1790 C1791 1.386 . S
C1790 C1792 1.391 . S
C1791 C1790 1.386 . S
C1791 C1795 1.393 1_554 S
C1792 H1781 0.950 . S
C1792 C1790 1.391 . S
C1792 C1793 1.400 . S
C1793 C1787 1.491 . S
C1793 C1792 1.400 . S
C1793 C1794 1.398 1_554 S
C1794 H1782 0.950 . S
C1794 C1793 1.398 1_556 S
C1794 C1795 1.391 . S
C1795 H1783 0.950 . S
C1795 C1791 1.393 1_556 S
C1795 C1794 1.391 . S
H1796 C1804 0.950 . S
H1797 C1809 0.950 . S
H1798 C1806 0.950 . S
H1799 C1808 0.950 . S
H1800 C1810 0.950 . S
H1801 C1812 0.950 . S
H1802 C1814 0.950 . S
H1803 C1815 0.950 . S
C1804 H1796 0.950 . S
C1804 C1805 1.386 . S
C1804 C1806 1.391 . S
C1805 C1804 1.386 . S
C1805 C1809 1.393 . S
C1806 H1798 0.950 . S
C1806 C1804 1.391 . S
C1806 C1807 1.400 . S
C1807 C1806 1.400 . S
C1807 C1808 1.398 . S
C1807 C1813 1.491 . S
C1808 H1799 0.950 . S
C1808 C1807 1.398 . S
C1808 C1809 1.391 . S
C1809 H1797 0.950 . S
C1809 C1805 1.393 . S
C1809 C1808 1.391 . S
C1810 H1800 0.950 . S
C1810 C1811 1.386 . S
C1810 C1812 1.391 . S
C1811 C1810 1.386 . S
C1811 C1815 1.393 . S
C1812 H1801 0.950 . S
C1812 C1810 1.391 . S
C1812 C1813 1.400 . S
C1813 C1807 1.491 . S
C1813 C1812 1.400 . S
C1813 C1814 1.398 . S
C1814 H1802 0.950 . S
C1814 C1813 1.398 . S
C1814 C1815 1.391 . S
C1815 H1803 0.950 . S
C1815 C1811 1.393 . S
C1815 C1814 1.391 . S
H1816 C1824 0.950 . S
H1817 C1829 0.950 . S
H1818 C1826 0.950 . S
H1819 C1828 0.950 . S
H1820 C1830 0.950 . S
H1821 C1832 0.950 . S
H1822 C1834 0.950 . S
H1823 C1835 0.950 . S
C1824 H1816 0.950 . S
C1824 C1825 1.386 . S
C1824 C1826 1.391 . S
C1825 C1824 1.386 . S
C1825 C1829 1.393 . S
C1826 H1818 0.950 . S
C1826 C1824 1.391 . S
C1826 C1827 1.400 . S
C1827 C1826 1.400 . S
C1827 C1828 1.398 . S
C1827 C1833 1.491 . S
C1828 H1819 0.950 . S
C1828 C1827 1.398 . S
C1828 C1829 1.391 . S
C1829 H1817 0.950 . S
C1829 C1825 1.393 . S
C1829 C1828 1.391 . S
C1830 H1820 0.950 . S
C1830 C1831 1.386 . S
C1830 C1832 1.391 . S
C1831 C1830 1.386 . S
C1831 C1835 1.393 . S
C1832 H1821 0.950 . S
C1832 C1830 1.391 . S
C1832 C1833 1.400 . S
C1833 C1827 1.491 . S
C1833 C1832 1.400 . S
C1833 C1834 1.398 . S
C1834 H1822 0.950 . S
C1834 C1833 1.398 . S
C1834 C1835 1.391 . S
C1835 H1823 0.950 . S
C1835 C1831 1.393 . S
C1835 C1834 1.391 . S
H1836 C1844 0.950 . S
H1837 C1849 0.950 . S
H1838 C1846 0.950 . S
H1839 C1848 0.950 . S
H1840 C1850 0.950 . S
H1841 C1852 0.950 . S
H1842 C1854 0.950 . S
H1843 C1855 0.950 . S
C1844 H1836 0.950 . S
C1844 C1845 1.386 . S
C1844 C1846 1.391 . S
C1845 C1844 1.386 . S
C1845 C1849 1.393 . S
C1846 H1838 0.950 . S
C1846 C1844 1.391 . S
C1846 C1847 1.400 . S
C1847 C1846 1.400 . S
C1847 C1848 1.398 . S
C1847 C1853 1.491 . S
C1848 H1839 0.950 . S
C1848 C1847 1.398 . S
C1848 C1849 1.391 . S
C1849 H1837 0.950 . S
C1849 C1845 1.393 . S
C1849 C1848 1.391 . S
C1850 H1840 0.950 . S
C1850 C1851 1.386 . S
C1850 C1852 1.391 . S
C1851 C1850 1.386 . S
C1851 C1855 1.393 . S
C1852 H1841 0.950 . S
C1852 C1850 1.391 . S
C1852 C1853 1.400 . S
C1853 C1847 1.491 . S
C1853 C1852 1.400 . S
C1853 C1854 1.398 . S
C1854 H1842 0.950 . S
C1854 C1853 1.398 . S
C1854 C1855 1.391 . S
C1855 H1843 0.950 . S
C1855 C1851 1.393 . S
C1855 C1854 1.391 . S
H1856 C1864 0.956 . S
H1857 C1869 0.950 . S
H1858 C1866 0.950 . S
H1859 C1868 0.950 . S
H1860 C1870 0.950 . S
H1861 C1872 0.950 . S
H1862 C1874 0.950 . S
H1863 C1875 0.950 . S
C1864 H1856 0.956 . S
C1864 C1865 1.388 . S
C1864 C1866 1.383 1_545 S
C1865 C1864 1.388 . S
C1865 C1869 1.393 1_545 S
C1866 H1858 0.950 . S
C1866 C1864 1.383 1_565 S
C1866 C1867 1.400 . S
C1867 C1866 1.400 . S
C1867 C1868 1.398 . S
C1867 C1873 1.491 . S
C1868 H1859 0.950 . S
C1868 C1867 1.398 . S
C1868 C1869 1.391 . S
C1869 H1857 0.950 . S
C1869 C1865 1.393 1_565 S
C1869 C1868 1.391 . S
C1870 H1860 0.950 . S
C1870 C1871 1.386 . S
C1870 C1872 1.391 . S
C1871 C1870 1.386 . S
C1871 C1875 1.393 . S
C1872 H1861 0.950 . S
C1872 C1870 1.391 . S
C1872 C1873 1.400 . S
C1873 C1867 1.491 . S
C1873 C1872 1.400 . S
C1873 C1874 1.398 . S
C1874 H1862 0.950 . S
C1874 C1873 1.398 . S
C1874 C1875 1.391 . S
C1875 H1863 0.950 . S
C1875 C1871 1.393 . S
C1875 C1874 1.391 . S
H1876 C1884 0.950 . S
H1877 C1889 0.950 . S
H1878 C1886 0.950 . S
H1879 C1888 0.950 . S
H1880 C1890 0.950 . S
H1881 C1892 0.950 . S
H1882 C1894 0.950 . S
H1883 C1895 0.950 . S
C1884 H1876 0.950 . S
C1884 C1885 1.386 . S
C1884 C1886 1.391 . S
C1885 C1884 1.386 . S
C1885 C1889 1.393 . S
C1886 H1878 0.950 . S
C1886 C1884 1.391 . S
C1886 C1887 1.400 . S
C1887 C1886 1.400 . S
C1887 C1888 1.398 . S
C1887 C1893 1.491 . S
C1888 H1879 0.950 . S
C1888 C1887 1.398 . S
C1888 C1889 1.391 . S
C1889 H1877 0.950 . S
C1889 C1885 1.393 . S
C1889 C1888 1.391 . S
C1890 H1880 0.950 . S
C1890 C1891 1.386 . S
C1890 C1892 1.391 . S
C1891 C1890 1.386 . S
C1891 C1895 1.393 . S
C1892 H1881 0.950 . S
C1892 C1890 1.391 . S
C1892 C1893 1.400 . S
C1893 C1887 1.491 . S
C1893 C1892 1.400 . S
C1893 C1894 1.398 . S
C1894 H1882 0.950 . S
C1894 C1893 1.398 . S
C1894 C1895 1.391 . S
C1895 H1883 0.950 . S
C1895 C1891 1.393 . S
C1895 C1894 1.391 . S
H1896 C1904 0.950 . S
H1897 C1909 0.950 . S
H1898 C1906 0.950 . S
H1899 C1908 0.950 . S
H1900 C1910 0.950 . S
H1901 C1912 0.950 . S
H1902 C1914 0.950 . S
H1903 C1915 0.950 . S
C1904 H1896 0.950 . S
C1904 C1905 1.386 . S
C1904 C1906 1.391 . S
C1905 C1904 1.386 . S
C1905 C1909 1.393 . S
C1906 H1898 0.950 . S
C1906 C1904 1.391 . S
C1906 C1907 1.400 . S
C1907 C1906 1.400 . S
C1907 C1908 1.398 . S
C1907 C1913 1.491 . S
C1908 H1899 0.950 . S
C1908 C1907 1.398 . S
C1908 C1909 1.391 . S
C1909 H1897 0.950 . S
C1909 C1905 1.393 . S
C1909 C1908 1.391 . S
C1910 H1900 0.950 . S
C1910 C1911 1.386 . S
C1910 C1912 1.391 . S
C1911 C1910 1.386 . S
C1911 C1915 1.393 . S
C1912 H1901 0.950 . S
C1912 C1910 1.391 . S
C1912 C1913 1.400 . S
C1913 C1907 1.491 . S
C1913 C1912 1.400 . S
C1913 C1914 1.398 . S
C1914 H1902 0.950 . S
C1914 C1913 1.398 . S
C1914 C1915 1.391 . S
C1915 H1903 0.950 . S
C1915 C1911 1.393 . S
C1915 C1914 1.391 . S
H1916 C1924 0.950 . S
H1917 C1929 0.950 . S
H1918 C1926 0.950 . S
H1919 C1928 0.950 . S
H1920 C1930 0.950 . S
H1921 C1932 0.950 . S
H1922 C1934 0.950 . S
H1923 C1935 0.950 . S
C1924 H1916 0.950 . S
C1924 C1925 1.386 . S
C1924 C1926 1.391 . S
C1925 C1924 1.386 . S
C1925 C1929 1.393 . S
C1926 H1918 0.950 . S
C1926 C1924 1.391 . S
C1926 C1927 1.400 . S
C1927 C1926 1.400 . S
C1927 C1928 1.398 . S
C1927 C1933 1.491 . S
C1928 H1919 0.950 . S
C1928 C1927 1.398 . S
C1928 C1929 1.391 . S
C1929 H1917 0.950 . S
C1929 C1925 1.393 . S
C1929 C1928 1.391 . S
C1930 H1920 0.950 . S
C1930 C1931 1.386 . S
C1930 C1932 1.391 . S
C1931 C1930 1.386 . S
C1931 C1935 1.393 . S
C1932 H1921 0.950 . S
C1932 C1930 1.391 . S
C1932 C1933 1.400 . S
C1933 C1927 1.491 . S
C1933 C1932 1.400 . S
C1933 C1934 1.398 . S
C1934 H1922 0.950 . S
C1934 C1933 1.398 . S
C1934 C1935 1.391 . S
C1935 H1923 0.950 . S
C1935 C1931 1.393 . S
C1935 C1934 1.391 . S
H1936 C1944 0.950 . S
H1937 C1949 0.950 . S
H1938 C1946 0.950 . S
H1939 C1948 0.950 . S
H1940 C1950 0.950 . S
H1941 C1952 0.950 . S
H1942 C1954 0.950 . S
H1943 C1955 0.950 . S
C1944 H1936 0.950 . S
C1944 C1945 1.386 . S
C1944 C1946 1.391 . S
C1945 C1944 1.386 . S
C1945 C1949 1.393 . S
C1946 H1938 0.950 . S
C1946 C1944 1.391 . S
C1946 C1947 1.400 . S
C1947 C1946 1.400 . S
C1947 C1948 1.398 . S
C1947 C1953 1.491 . S
C1948 H1939 0.950 . S
C1948 C1947 1.398 . S
C1948 C1949 1.391 . S
C1949 H1937 0.950 . S
C1949 C1945 1.393 . S
C1949 C1948 1.391 . S
C1950 H1940 0.950 . S
C1950 C1951 1.386 . S
C1950 C1952 1.391 . S
C1951 C1950 1.386 . S
C1951 C1955 1.393 . S
C1952 H1941 0.950 . S
C1952 C1950 1.391 . S
C1952 C1953 1.400 . S
C1953 C1947 1.491 . S
C1953 C1952 1.400 . S
C1953 C1954 1.398 . S
C1954 H1942 0.950 . S
C1954 C1953 1.398 . S
C1954 C1955 1.391 . S
C1955 H1943 0.950 . S
C1955 C1951 1.393 . S
C1955 C1954 1.391 . S
H1956 C1964 0.950 . S
H1957 C1969 0.950 . S
H1958 C1966 0.950 . S
H1959 C1968 0.950 . S
H1960 C1970 0.950 . S
H1961 C1972 0.950 . S
H1962 C1974 0.950 . S
H1963 C1975 0.950 . S
C1964 H1956 0.950 . S
C1964 C1965 1.386 . S
C1964 C1966 1.391 . S
C1965 C1964 1.386 . S
C1965 C1969 1.393 . S
C1966 H1958 0.950 . S
C1966 C1964 1.391 . S
C1966 C1967 1.400 . S
C1967 C1966 1.400 . S
C1967 C1968 1.398 . S
C1967 C1973 1.491 . S
C1968 H1959 0.950 . S
C1968 C1967 1.398 . S
C1968 C1969 1.391 . S
C1969 H1957 0.950 . S
C1969 C1965 1.393 . S
C1969 C1968 1.391 . S
C1970 H1960 0.950 . S
C1970 C1971 1.386 . S
C1970 C1972 1.391 . S
C1971 C1970 1.386 . S
C1971 C1975 1.393 . S
C1972 H1961 0.950 . S
C1972 C1970 1.391 . S
C1972 C1973 1.400 . S
C1973 C1967 1.491 . S
C1973 C1972 1.400 . S
C1973 C1974 1.398 . S
C1974 H1962 0.950 . S
C1974 C1973 1.398 . S
C1974 C1975 1.391 . S
C1975 H1963 0.950 . S
C1975 C1971 1.393 . S
C1975 C1974 1.391 . S
H1976 C1984 0.950 1_655 S
H1977 C1989 0.950 . S
H1978 C1986 0.950 1_655 S
H1979 C1988 0.950 . S
H1980 C1990 0.950 1_554 S
H1981 C1992 0.950 . S
H1982 C1994 0.950 . S
H1983 C1995 0.950 . S
C1984 H1976 0.950 1_455 S
C1984 C1985 1.386 . S
C1984 C1986 1.391 . S
C1985 C1984 1.386 . S
C1985 C1989 1.393 . S
C1986 H1978 0.950 1_455 S
C1986 C1984 1.391 . S
C1986 C1987 1.400 . S
C1987 C1986 1.400 . S
C1987 C1988 1.398 . S
C1987 C1993 1.491 . S
C1988 H1979 0.950 . S
C1988 C1987 1.398 . S
C1988 C1989 1.391 . S
C1989 H1977 0.950 . S
C1989 C1985 1.393 . S
C1989 C1988 1.391 . S
C1990 H1980 0.950 1_556 S
C1990 C1991 1.386 1_556 S
C1990 C1992 1.391 . S
C1991 C1990 1.386 1_554 S
C1991 C1995 1.378 1_554 S
C1992 H1981 0.950 . S
C1992 C1990 1.391 . S
C1992 C1993 1.400 . S
C1993 C1987 1.491 . S
C1993 C1992 1.400 . S
C1993 C1994 1.398 . S
C1994 H1982 0.950 . S
C1994 C1993 1.398 . S
C1994 C1995 1.391 . S
C1995 H1983 0.950 . S
C1995 C1991 1.378 1_556 S
C1995 C1994 1.391 . S
H1996 C2004 0.950 . S
H1997 C2009 0.950 . S
H1998 C2006 0.950 . S
H1999 C2008 0.950 . S
H2000 C2010 0.950 . S
H2001 C2012 0.950 . S
H2002 C2014 0.950 . S
H2003 C2015 0.950 . S
C2004 H1996 0.950 . S
C2004 C2005 1.386 . S
C2004 C2006 1.391 1_455 S
C2005 C2004 1.386 . S
C2005 C2009 1.393 . S
C2006 H1998 0.950 . S
C2006 C2004 1.391 1_655 S
C2006 C2007 1.400 . S
C2007 C2006 1.400 . S
C2007 C2008 1.398 1_655 S
C2007 C2013 1.491 . S
C2008 H1999 0.950 . S
C2008 C2007 1.398 1_455 S
C2008 C2009 1.391 . S
C2009 H1997 0.950 . S
C2009 C2005 1.393 . S
C2009 C2008 1.391 . S
C2010 H2000 0.950 . S
C2010 C2011 1.386 . S
C2010 C2012 1.391 . S
C2011 C2010 1.386 . S
C2011 C2015 1.393 . S
C2012 H2001 0.950 . S
C2012 C2010 1.391 . S
C2012 C2013 1.400 . S
C2013 C2007 1.491 . S
C2013 C2012 1.400 . S
C2013 C2014 1.398 . S
C2014 H2002 0.950 . S
C2014 C2013 1.398 . S
C2014 C2015 1.391 . S
C2015 H2003 0.950 . S
C2015 C2011 1.393 . S
C2015 C2014 1.391 . S
H2016 C2024 0.950 . S
H2017 C2029 0.950 . S
H2018 C2026 0.950 . S
H2019 C2028 0.950 . S
H2020 C2030 0.950 . S
H2021 C2032 0.950 . S
H2022 C2034 0.950 . S
H2023 C2035 0.950 . S
C2024 H2016 0.950 . S
C2024 C2025 1.386 . S
C2024 C2026 1.391 . S
C2025 C2024 1.386 . S
C2025 C2029 1.393 . S
C2026 H2018 0.950 . S
C2026 C2024 1.391 . S
C2026 C2027 1.400 . S
C2027 C2026 1.400 . S
C2027 C2028 1.398 . S
C2027 C2033 1.491 . S
C2028 H2019 0.950 . S
C2028 C2027 1.398 . S
C2028 C2029 1.391 . S
C2029 H2017 0.950 . S
C2029 C2025 1.393 . S
C2029 C2028 1.391 . S
C2030 H2020 0.950 . S
C2030 C2031 1.386 . S
C2030 C2032 1.391 . S
C2031 C2030 1.386 . S
C2031 C2035 1.393 . S
C2032 H2021 0.950 . S
C2032 C2030 1.391 . S
C2032 C2033 1.400 . S
C2033 C2027 1.491 . S
C2033 C2032 1.400 . S
C2033 C2034 1.398 . S
C2034 H2022 0.950 . S
C2034 C2033 1.398 . S
C2034 C2035 1.391 . S
C2035 H2023 0.950 . S
C2035 C2031 1.393 . S
C2035 C2034 1.391 . S
H2036 C2044 0.950 . S
H2037 C2049 0.950 . S
H2038 C2046 0.950 . S
H2039 C2048 0.950 . S
H2040 C2050 0.950 . S
H2041 C2052 0.950 . S
H2042 C2054 0.950 . S
H2043 C2055 0.950 . S
C2044 H2036 0.950 . S
C2044 C2045 1.386 . S
C2044 C2046 1.391 . S
C2045 C2044 1.386 . S
C2045 C2049 1.393 . S
C2046 H2038 0.950 . S
C2046 C2044 1.391 . S
C2046 C2047 1.400 . S
C2047 C2046 1.400 . S
C2047 C2048 1.398 . S
C2047 C2053 1.491 1_455 S
C2048 H2039 0.950 . S
C2048 C2047 1.398 . S
C2048 C2049 1.391 . S
C2049 H2037 0.950 . S
C2049 C2045 1.393 . S
C2049 C2048 1.391 . S
C2050 H2040 0.950 . S
C2050 C2051 1.386 . S
C2050 C2052 1.391 . S
C2051 C2050 1.386 . S
C2051 C2055 1.393 . S
C2052 H2041 0.950 . S
C2052 C2050 1.391 . S
C2052 C2053 1.400 . S
C2053 C2047 1.491 1_655 S
C2053 C2052 1.400 . S
C2053 C2054 1.398 . S
C2054 H2042 0.950 . S
C2054 C2053 1.398 . S
C2054 C2055 1.391 . S
C2055 H2043 0.950 . S
C2055 C2051 1.393 . S
C2055 C2054 1.391 . S
H2056 C2064 0.950 . S
H2057 C2069 0.950 . S
H2058 C2066 0.950 . S
H2059 C2068 0.950 . S
H2060 C2070 0.950 . S
H2061 C2072 0.950 . S
H2062 C2074 0.950 1_655 S
H2063 C2075 0.950 . S
C2064 H2056 0.950 . S
C2064 C2065 1.386 . S
C2064 C2066 1.391 . S
C2065 C2064 1.386 . S
C2065 C2069 1.393 1_655 S
C2066 H2058 0.950 . S
C2066 C2064 1.391 . S
C2066 C2067 1.400 1_655 S
C2067 C2066 1.400 1_455 S
C2067 C2068 1.398 . S
C2067 C2073 1.491 . S
C2068 H2059 0.950 . S
C2068 C2067 1.398 . S
C2068 C2069 1.391 . S
C2069 H2057 0.950 . S
C2069 C2065 1.393 1_455 S
C2069 C2068 1.391 . S
C2070 H2060 0.950 . S
C2070 C2071 1.386 . S
C2070 C2072 1.391 . S
C2071 C2070 1.386 . S
C2071 C2075 1.393 . S
C2072 H2061 0.950 . S
C2072 C2070 1.391 . S
C2072 C2073 1.400 . S
C2073 C2067 1.491 . S
C2073 C2072 1.400 . S
C2073 C2074 1.398 . S
C2074 H2062 0.950 1_455 S
C2074 C2073 1.398 . S
C2074 C2075 1.391 . S
C2075 H2063 0.950 . S
C2075 C2071 1.393 . S
C2075 C2074 1.391 . S
H2076 C2084 0.950 . S
H2077 C2089 0.950 . S
H2078 C2086 0.950 . S
H2079 C2088 0.950 . S
H2080 C2090 0.950 . S
H2081 C2092 0.950 . S
H2082 C2094 0.950 . S
H2083 C2095 0.950 . S
C2084 H2076 0.950 . S
C2084 C2085 1.386 . S
C2084 C2086 1.391 . S
C2085 C2084 1.386 . S
C2085 C2089 1.393 . S
C2086 H2078 0.950 . S
C2086 C2084 1.391 . S
C2086 C2087 1.400 . S
C2087 C2086 1.400 . S
C2087 C2088 1.398 . S
C2087 C2093 1.491 . S
C2088 H2079 0.950 . S
C2088 C2087 1.398 . S
C2088 C2089 1.391 . S
C2089 H2077 0.950 . S
C2089 C2085 1.393 . S
C2089 C2088 1.391 . S
C2090 H2080 0.950 . S
C2090 C2091 1.386 . S
C2090 C2092 1.391 . S
C2091 C2090 1.386 . S
C2091 C2095 1.393 . S
C2092 H2081 0.950 . S
C2092 C2090 1.391 . S
C2092 C2093 1.400 . S
C2093 C2087 1.491 . S
C2093 C2092 1.400 . S
C2093 C2094 1.398 . S
C2094 H2082 0.950 . S
C2094 C2093 1.398 . S
C2094 C2095 1.391 . S
C2095 H2083 0.950 . S
C2095 C2091 1.393 . S
C2095 C2094 1.391 . S
H2096 C2104 0.950 . S
H2097 C2109 0.950 . S
H2098 C2106 0.950 . S
H2099 C2108 0.950 . S
H2100 C2110 0.950 . S
H2101 C2112 0.950 . S
H2102 C2114 0.950 . S
H2103 C2115 0.950 . S
C2104 H2096 0.950 . S
C2104 C2105 1.386 . S
C2104 C2106 1.391 . S
C2105 C2104 1.386 . S
C2105 C2109 1.393 . S
C2106 H2098 0.950 . S
C2106 C2104 1.391 . S
C2106 C2107 1.400 . S
C2107 C2106 1.400 . S
C2107 C2108 1.398 . S
C2107 C2113 1.491 . S
C2108 H2099 0.950 . S
C2108 C2107 1.398 . S
C2108 C2109 1.391 . S
C2109 H2097 0.950 . S
C2109 C2105 1.393 . S
C2109 C2108 1.391 . S
C2110 H2100 0.950 . S
C2110 C2111 1.386 . S
C2110 C2112 1.391 . S
C2111 C2110 1.386 . S
C2111 C2115 1.393 . S
C2112 H2101 0.950 . S
C2112 C2110 1.391 . S
C2112 C2113 1.400 . S
C2113 C2107 1.491 . S
C2113 C2112 1.400 . S
C2113 C2114 1.398 . S
C2114 H2102 0.950 . S
C2114 C2113 1.398 . S
C2114 C2115 1.391 . S
C2115 H2103 0.950 . S
C2115 C2111 1.393 . S
C2115 C2114 1.391 . S
H2116 C2124 0.950 . S
H2117 C2129 0.950 . S
H2118 C2126 0.950 . S
H2119 C2128 0.950 . S
H2120 C2130 0.950 . S
H2121 C2132 0.950 . S
H2122 C2134 0.950 . S
H2123 C2135 0.950 . S
C2124 H2116 0.950 . S
C2124 C2125 1.386 . S
C2124 C2126 1.391 . S
C2125 C2124 1.386 . S
C2125 C2129 1.393 . S
C2126 H2118 0.950 . S
C2126 C2124 1.391 . S
C2126 C2127 1.400 . S
C2127 C2126 1.400 . S
C2127 C2128 1.398 . S
C2127 C2133 1.491 . S
C2128 H2119 0.950 . S
C2128 C2127 1.398 . S
C2128 C2129 1.391 . S
C2129 H2117 0.950 . S
C2129 C2125 1.393 . S
C2129 C2128 1.391 . S
C2130 H2120 0.950 . S
C2130 C2131 1.386 . S
C2130 C2132 1.391 . S
C2131 C2130 1.386 . S
C2131 C2135 1.393 . S
C2132 H2121 0.950 . S
C2132 C2130 1.391 . S
C2132 C2133 1.400 . S
C2133 C2127 1.491 . S
C2133 C2132 1.400 . S
C2133 C2134 1.398 . S
C2134 H2122 0.950 . S
C2134 C2133 1.398 . S
C2134 C2135 1.391 . S
C2135 H2123 0.950 . S
C2135 C2131 1.393 . S
C2135 C2134 1.391 . S
H2136 C2144 0.950 . S
H2137 C2149 0.950 . S
H2138 C2146 0.950 . S
H2139 C2148 0.950 . S
H2140 C2150 0.950 . S
H2141 C2152 0.950 . S
H2142 C2154 0.950 . S
H2143 C2155 0.950 . S
C2144 H2136 0.950 . S
C2144 C2145 1.386 . S
C2144 C2146 1.391 . S
C2145 C2144 1.386 . S
C2145 C2149 1.393 . S
C2146 H2138 0.950 . S
C2146 C2144 1.391 . S
C2146 C2147 1.400 . S
C2147 C2146 1.400 . S
C2147 C2148 1.398 . S
C2147 C2153 1.491 . S
C2148 H2139 0.950 . S
C2148 C2147 1.398 . S
C2148 C2149 1.391 . S
C2149 H2137 0.950 . S
C2149 C2145 1.393 . S
C2149 C2148 1.391 . S
C2150 H2140 0.950 . S
C2150 C2151 1.386 . S
C2150 C2152 1.391 . S
C2151 C2150 1.386 . S
C2151 C2155 1.393 . S
C2152 H2141 0.950 . S
C2152 C2150 1.391 . S
C2152 C2153 1.400 . S
C2153 C2147 1.491 . S
C2153 C2152 1.400 . S
C2153 C2154 1.398 . S
C2154 H2142 0.950 . S
C2154 C2153 1.398 . S
C2154 C2155 1.391 . S
C2155 H2143 0.950 . S
C2155 C2151 1.393 . S
C2155 C2154 1.391 . S
H2156 C2164 0.950 . S
H2157 C2169 0.950 . S
H2158 C2166 0.950 . S
H2159 C2168 0.950 . S
H2160 C2170 0.950 . S
H2161 C2172 0.950 . S
H2162 C2174 0.950 . S
H2163 C2175 0.950 . S
C2164 H2156 0.950 . S
C2164 C2165 1.386 . S
C2164 C2166 1.391 . S
C2165 C2164 1.386 . S
C2165 C2169 1.393 . S
C2166 H2158 0.950 . S
C2166 C2164 1.391 . S
C2166 C2167 1.400 . S
C2167 C2166 1.400 . S
C2167 C2168 1.398 . S
C2167 C2173 1.491 . S
C2168 H2159 0.950 . S
C2168 C2167 1.398 . S
C2168 C2169 1.391 . S
C2169 H2157 0.950 . S
C2169 C2165 1.393 . S
C2169 C2168 1.391 . S
C2170 H2160 0.950 . S
C2170 C2171 1.386 . S
C2170 C2172 1.391 . S
C2171 C2170 1.386 . S
C2171 C2175 1.393 . S
C2172 H2161 0.950 . S
C2172 C2170 1.391 . S
C2172 C2173 1.400 . S
C2173 C2167 1.491 . S
C2173 C2172 1.400 . S
C2173 C2174 1.398 . S
C2174 H2162 0.950 . S
C2174 C2173 1.398 . S
C2174 C2175 1.391 . S
C2175 H2163 0.950 . S
C2175 C2171 1.393 . S
C2175 C2174 1.391 . S
H2176 C2184 0.950 . S
H2177 C2189 0.950 . S
H2178 C2186 0.950 . S
H2179 C2188 0.950 . S
H2180 C2190 0.950 . S
H2181 C2192 0.950 . S
H2182 C2194 0.950 . S
H2183 C2195 0.950 . S
C2184 H2176 0.950 . S
C2184 C2185 1.386 . S
C2184 C2186 1.391 . S
C2185 C2184 1.386 . S
C2185 C2189 1.393 . S
C2186 H2178 0.950 . S
C2186 C2184 1.391 . S
C2186 C2187 1.400 . S
C2187 C2186 1.400 . S
C2187 C2188 1.398 . S
C2187 C2193 1.491 . S
C2188 H2179 0.950 . S
C2188 C2187 1.398 . S
C2188 C2189 1.391 . S
C2189 H2177 0.950 . S
C2189 C2185 1.393 . S
C2189 C2188 1.391 . S
C2190 H2180 0.950 . S
C2190 C2191 1.386 . S
C2190 C2192 1.391 . S
C2191 C2190 1.386 . S
C2191 C2195 1.393 . S
C2192 H2181 0.950 . S
C2192 C2190 1.391 . S
C2192 C2193 1.400 . S
C2193 C2187 1.491 . S
C2193 C2192 1.400 . S
C2193 C2194 1.398 . S
C2194 H2182 0.950 . S
C2194 C2193 1.398 . S
C2194 C2195 1.391 . S
C2195 H2183 0.950 . S
C2195 C2191 1.393 . S
C2195 C2194 1.391 . S
H2196 C2204 0.950 . S
H2197 C2209 0.950 . S
H2198 C2206 0.950 . S
H2199 C2208 0.950 . S
H2200 C2210 0.950 . S
H2201 C2212 0.950 . S
H2202 C2214 0.950 . S
H2203 C2215 0.950 . S
C2204 H2196 0.950 . S
C2204 C2205 1.386 . S
C2204 C2206 1.391 . S
C2205 C2204 1.386 . S
C2205 C2209 1.393 . S
C2206 H2198 0.950 . S
C2206 C2204 1.391 . S
C2206 C2207 1.400 . S
C2207 C2206 1.400 . S
C2207 C2208 1.398 . S
C2207 C2213 1.491 . S
C2208 H2199 0.950 . S
C2208 C2207 1.398 . S
C2208 C2209 1.391 . S
C2209 H2197 0.950 . S
C2209 C2205 1.393 . S
C2209 C2208 1.391 . S
C2210 H2200 0.950 . S
C2210 C2211 1.386 . S
C2210 C2212 1.391 . S
C2211 C2210 1.386 . S
C2211 C2215 1.393 . S
C2212 H2201 0.950 . S
C2212 C2210 1.391 . S
C2212 C2213 1.400 . S
C2213 C2207 1.491 . S
C2213 C2212 1.400 . S
C2213 C2214 1.398 . S
C2214 H2202 0.950 . S
C2214 C2213 1.398 . S
C2214 C2215 1.391 . S
C2215 H2203 0.950 . S
C2215 C2211 1.393 . S
C2215 C2214 1.391 . S
H2216 C2224 0.950 . S
H2217 C2229 0.950 . S
H2218 C2226 0.950 . S
H2219 C2228 0.950 . S
H2220 C2230 0.950 . S
H2221 C2232 0.950 . S
H2222 C2234 0.950 . S
H2223 C2235 0.950 . S
C2224 H2216 0.950 . S
C2224 C2225 1.386 . S
C2224 C2226 1.391 . S
C2225 C2224 1.386 . S
C2225 C2229 1.393 . S
C2226 H2218 0.950 . S
C2226 C2224 1.391 . S
C2226 C2227 1.400 . S
C2227 C2226 1.400 . S
C2227 C2228 1.398 . S
C2227 C2233 1.491 . S
C2228 H2219 0.950 . S
C2228 C2227 1.398 . S
C2228 C2229 1.391 . S
C2229 H2217 0.950 . S
C2229 C2225 1.393 . S
C2229 C2228 1.391 . S
C2230 H2220 0.950 . S
C2230 C2231 1.386 . S
C2230 C2232 1.391 . S
C2231 C2230 1.386 . S
C2231 C2235 1.393 . S
C2232 H2221 0.950 . S
C2232 C2230 1.391 . S
C2232 C2233 1.400 . S
C2233 C2227 1.491 . S
C2233 C2232 1.400 . S
C2233 C2234 1.398 . S
C2234 H2222 0.950 . S
C2234 C2233 1.398 . S
C2234 C2235 1.391 . S
C2235 H2223 0.950 . S
C2235 C2231 1.393 . S
C2235 C2234 1.391 . S
H2236 C2244 0.950 . S
H2237 C2249 0.950 . S
H2238 C2246 0.950 . S
H2239 C2248 0.950 . S
H2240 C2250 0.950 . S
H2241 C2252 0.950 . S
H2242 C2254 0.950 . S
H2243 C2255 0.950 . S
C2244 H2236 0.950 . S
C2244 C2245 1.386 . S
C2244 C2246 1.391 . S
C2245 C2244 1.386 . S
C2245 C2249 1.393 . S
C2246 H2238 0.950 . S
C2246 C2244 1.391 . S
C2246 C2247 1.400 . S
C2247 C2246 1.400 . S
C2247 C2248 1.398 . S
C2247 C2253 1.491 . S
C2248 H2239 0.950 . S
C2248 C2247 1.398 . S
C2248 C2249 1.391 . S
C2249 H2237 0.950 . S
C2249 C2245 1.393 . S
C2249 C2248 1.391 . S
C2250 H2240 0.950 . S
C2250 C2251 1.386 . S
C2250 C2252 1.391 . S
C2251 C2250 1.386 . S
C2251 C2255 1.393 . S
C2252 H2241 0.950 . S
C2252 C2250 1.391 . S
C2252 C2253 1.400 . S
C2253 C2247 1.491 . S
C2253 C2252 1.400 . S
C2253 C2254 1.398 . S
C2254 H2242 0.950 . S
C2254 C2253 1.398 . S
C2254 C2255 1.391 . S
C2255 H2243 0.950 . S
C2255 C2251 1.393 . S
C2255 C2254 1.391 . S
H2256 C2264 0.950 . S
H2257 C2269 0.950 . S
H2258 C2266 0.950 . S
H2259 C2268 0.950 . S
H2260 C2270 0.950 . S
H2261 C2272 0.950 . S
H2262 C2274 0.950 . S
H2263 C2275 0.950 . S
C2264 H2256 0.950 . S
C2264 C2265 1.386 . S
C2264 C2266 1.391 . S
C2265 C2264 1.386 . S
C2265 C2269 1.393 . S
C2266 H2258 0.950 . S
C2266 C2264 1.391 . S
C2266 C2267 1.400 . S
C2267 C2266 1.400 . S
C2267 C2268 1.398 . S
C2267 C2273 1.491 . S
C2268 H2259 0.950 . S
C2268 C2267 1.398 . S
C2268 C2269 1.391 . S
C2269 H2257 0.950 . S
C2269 C2265 1.393 . S
C2269 C2268 1.391 . S
C2270 H2260 0.950 . S
C2270 C2271 1.386 . S
C2270 C2272 1.391 . S
C2271 C2270 1.386 . S
C2271 C2275 1.393 . S
C2272 H2261 0.950 . S
C2272 C2270 1.391 . S
C2272 C2273 1.400 . S
C2273 C2267 1.491 . S
C2273 C2272 1.400 . S
C2273 C2274 1.398 . S
C2274 H2262 0.950 . S
C2274 C2273 1.398 . S
C2274 C2275 1.391 . S
C2275 H2263 0.950 . S
C2275 C2271 1.393 . S
C2275 C2274 1.391 . S
H2276 C2284 0.950 . S
H2277 C2289 0.950 . S
H2278 C2286 0.950 . S
H2279 C2288 0.950 . S
H2280 C2290 0.950 . S
H2281 C2292 0.950 . S
H2282 C2294 0.950 . S
H2283 C2295 0.950 . S
C2284 H2276 0.950 . S
C2284 C2285 1.386 . S
C2284 C2286 1.391 . S
C2285 C2284 1.386 . S
C2285 C2289 1.393 . S
C2286 H2278 0.950 . S
C2286 C2284 1.391 . S
C2286 C2287 1.400 . S
C2287 C2286 1.400 . S
C2287 C2288 1.398 . S
C2287 C2293 1.491 . S
C2288 H2279 0.950 . S
C2288 C2287 1.398 . S
C2288 C2289 1.391 . S
C2289 H2277 0.950 . S
C2289 C2285 1.393 . S
C2289 C2288 1.391 . S
C2290 H2280 0.950 . S
C2290 C2291 1.386 . S
C2290 C2292 1.391 . S
C2291 C2290 1.386 . S
C2291 C2295 1.393 . S
C2292 H2281 0.950 . S
C2292 C2290 1.391 . S
C2292 C2293 1.400 . S
C2293 C2287 1.491 . S
C2293 C2292 1.400 . S
C2293 C2294 1.398 . S
C2294 H2282 0.950 . S
C2294 C2293 1.398 . S
C2294 C2295 1.391 . S
C2295 H2283 0.950 . S
C2295 C2291 1.393 . S
C2295 C2294 1.391 . S
H2296 C2304 0.950 . S
H2297 C2309 0.950 . S
H2298 C2306 0.950 . S
H2299 C2308 0.950 . S
H2300 C2310 0.950 . S
H2301 C2312 0.950 . S
H2302 C2314 0.950 . S
H2303 C2315 0.950 . S
C2304 H2296 0.950 . S
C2304 C2305 1.386 . S
C2304 C2306 1.391 . S
C2305 C2304 1.386 . S
C2305 C2309 1.393 . S
C2306 H2298 0.950 . S
C2306 C2304 1.391 . S
C2306 C2307 1.400 . S
C2307 C2306 1.400 . S
C2307 C2308 1.398 . S
C2307 C2313 1.491 . S
C2308 H2299 0.950 . S
C2308 C2307 1.398 . S
C2308 C2309 1.391 . S
C2309 H2297 0.950 . S
C2309 C2305 1.393 . S
C2309 C2308 1.391 . S
C2310 H2300 0.950 . S
C2310 C2311 1.386 . S
C2310 C2312 1.391 . S
C2311 C2310 1.386 . S
C2311 C2315 1.393 . S
C2312 H2301 0.950 . S
C2312 C2310 1.391 . S
C2312 C2313 1.400 . S
C2313 C2307 1.491 . S
C2313 C2312 1.400 . S
C2313 C2314 1.398 . S
C2314 H2302 0.950 . S
C2314 C2313 1.398 . S
C2314 C2315 1.391 . S
C2315 H2303 0.950 . S
C2315 C2311 1.393 . S
C2315 C2314 1.391 . S
H2316 C2324 0.950 1_545 S
H2317 C2329 0.950 . S
H2318 C2326 0.950 1_545 S
H2319 C2328 0.950 . S
H2320 C2330 0.950 . S
H2321 C2332 0.950 . S
H2322 C2334 0.950 . S
H2323 C2335 0.950 . S
C2324 H2316 0.950 1_565 S
C2324 C2325 1.386 . S
C2324 C2326 1.391 . S
C2325 C2324 1.386 . S
C2325 C2329 1.393 . S
C2326 H2318 0.950 1_565 S
C2326 C2324 1.391 . S
C2326 C2327 1.400 . S
C2327 C2326 1.400 . S
C2327 C2328 1.398 . S
C2327 C2333 1.491 . S
C2328 H2319 0.950 . S
C2328 C2327 1.398 . S
C2328 C2329 1.391 . S
C2329 H2317 0.950 . S
C2329 C2325 1.393 . S
C2329 C2328 1.391 . S
C2330 H2320 0.950 . S
C2330 C2331 1.386 1_565 S
C2330 C2332 1.391 . S
C2331 C2330 1.386 1_545 S
C2331 C2335 1.393 . S
C2332 H2321 0.950 . S
C2332 C2330 1.391 . S
C2332 C2333 1.400 . S
C2333 C2327 1.491 . S
C2333 C2332 1.400 . S
C2333 C2334 1.398 1_565 S
C2334 H2322 0.950 . S
C2334 C2333 1.398 1_545 S
C2334 C2335 1.391 . S
C2335 H2323 0.950 . S
C2335 C2331 1.393 . S
C2335 C2334 1.391 . S
H2336 C2344 0.950 . S
H2337 C2349 0.950 . S
H2338 C2346 0.950 . S
H2339 C2348 0.950 . S
H2340 C2350 0.950 . S
H2341 C2352 0.950 . S
H2342 C2354 0.950 . S
H2343 C2355 0.950 . S
C2344 H2336 0.950 . S
C2344 C2345 1.386 . S
C2344 C2346 1.391 . S
C2345 C2344 1.386 . S
C2345 C2349 1.393 . S
C2346 H2338 0.950 . S
C2346 C2344 1.391 . S
C2346 C2347 1.400 . S
C2347 C2346 1.400 . S
C2347 C2348 1.398 . S
C2347 C2353 1.491 . S
C2348 H2339 0.950 . S
C2348 C2347 1.398 . S
C2348 C2349 1.391 . S
C2349 H2337 0.950 . S
C2349 C2345 1.393 . S
C2349 C2348 1.391 . S
C2350 H2340 0.950 . S
C2350 C2351 1.386 . S
C2350 C2352 1.391 . S
C2351 C2350 1.386 . S
C2351 C2355 1.393 . S
C2352 H2341 0.950 . S
C2352 C2350 1.391 . S
C2352 C2353 1.400 . S
C2353 C2347 1.491 . S
C2353 C2352 1.400 . S
C2353 C2354 1.398 . S
C2354 H2342 0.950 . S
C2354 C2353 1.398 . S
C2354 C2355 1.391 . S
C2355 H2343 0.950 . S
C2355 C2351 1.393 . S
C2355 C2354 1.391 . S
H2356 C2364 0.950 . S
H2357 C2369 0.919 1_556 S
H2358 C2366 0.950 . S
H2359 C2368 0.937 1_556 S
H2360 C2370 0.950 . S
H2361 C2372 0.950 . S
H2362 C2374 0.950 . S
H2363 C2375 0.950 . S
C2364 H2356 0.950 . S
C2364 C2365 1.386 . S
C2364 C2366 1.391 . S
C2365 C2364 1.386 . S
C2365 C2369 1.409 . S
C2366 H2358 0.950 . S
C2366 C2364 1.391 . S
C2366 C2367 1.400 . S
C2367 C2366 1.400 . S
C2367 C2368 1.398 . S
C2367 C2373 1.491 . S
C2368 H2359 0.937 1_554 S
C2368 C2367 1.398 . S
C2368 C2369 1.407 . S
C2369 H2357 0.919 1_554 S
C2369 C2365 1.409 . S
C2369 C2368 1.407 . S
C2370 H2360 0.950 . S
C2370 C2371 1.386 . S
C2370 C2372 1.391 . S
C2371 C2370 1.386 . S
C2371 C2375 1.393 . S
C2372 H2361 0.950 . S
C2372 C2370 1.391 . S
C2372 C2373 1.400 . S
C2373 C2367 1.491 . S
C2373 C2372 1.400 . S
C2373 C2374 1.398 . S
C2374 H2362 0.950 . S
C2374 C2373 1.398 . S
C2374 C2375 1.391 . S
C2375 H2363 0.950 . S
C2375 C2371 1.393 . S
C2375 C2374 1.391 . S
H2376 C2384 0.950 . S
H2377 C2389 0.950 . S
H2378 C2386 0.950 . S
H2379 C2388 0.950 . S
H2380 C2390 0.950 . S
H2381 C2392 0.950 . S
H2382 C2394 0.950 . S
H2383 C2395 0.950 . S
C2384 H2376 0.950 . S
C2384 C2385 1.386 . S
C2384 C2386 1.391 . S
C2385 C2384 1.386 . S
C2385 C2389 1.393 . S
C2386 H2378 0.950 . S
C2386 C2384 1.391 . S
C2386 C2387 1.400 . S
C2387 C2386 1.400 . S
C2387 C2388 1.398 . S
C2387 C2393 1.491 . S
C2388 H2379 0.950 . S
C2388 C2387 1.398 . S
C2388 C2389 1.391 . S
C2389 H2377 0.950 . S
C2389 C2385 1.393 . S
C2389 C2388 1.391 . S
C2390 H2380 0.950 . S
C2390 C2391 1.386 . S
C2390 C2392 1.391 . S
C2391 C2390 1.386 . S
C2391 C2395 1.393 . S
C2392 H2381 0.950 . S
C2392 C2390 1.391 . S
C2392 C2393 1.400 . S
C2393 C2387 1.491 . S
C2393 C2392 1.400 . S
C2393 C2394 1.398 . S
C2394 H2382 0.950 . S
C2394 C2393 1.398 . S
C2394 C2395 1.391 . S
C2395 H2383 0.950 . S
C2395 C2391 1.393 . S
C2395 C2394 1.391 . S
H2396 C2404 0.950 . S
H2397 C2409 0.950 . S
H2398 C2406 0.950 . S
H2399 C2408 0.950 . S
H2400 C2410 0.950 . S
H2401 C2412 0.950 . S
H2402 C2414 0.950 . S
H2403 C2415 0.950 . S
C2404 H2396 0.950 . S
C2404 C2405 1.386 . S
C2404 C2406 1.391 . S
C2405 C2404 1.386 . S
C2405 C2409 1.393 . S
C2406 H2398 0.950 . S
C2406 C2404 1.391 . S
C2406 C2407 1.400 . S
C2407 C2406 1.400 . S
C2407 C2408 1.398 . S
C2407 C2413 1.491 . S
C2408 H2399 0.950 . S
C2408 C2407 1.398 . S
C2408 C2409 1.391 . S
C2409 H2397 0.950 . S
C2409 C2405 1.393 . S
C2409 C2408 1.391 . S
C2410 H2400 0.950 . S
C2410 C2411 1.386 . S
C2410 C2412 1.391 . S
C2411 C2410 1.386 . S
C2411 C2415 1.393 . S
C2412 H2401 0.950 . S
C2412 C2410 1.391 . S
C2412 C2413 1.400 . S
C2413 C2407 1.491 . S
C2413 C2412 1.400 . S
C2413 C2414 1.398 . S
C2414 H2402 0.950 . S
C2414 C2413 1.398 . S
C2414 C2415 1.391 . S
C2415 H2403 0.950 . S
C2415 C2411 1.393 . S
C2415 C2414 1.391 . S
H2416 C2424 0.950 . S
H2417 C2429 0.950 . S
H2418 C2426 0.950 . S
H2419 C2428 0.950 . S
H2420 C2430 0.950 . S
H2421 C2432 0.950 . S
H2422 C2434 0.950 . S
H2423 C2435 0.950 . S
C2424 H2416 0.950 . S
C2424 C2425 1.386 . S
C2424 C2426 1.391 . S
C2425 C2424 1.386 . S
C2425 C2429 1.393 . S
C2426 H2418 0.950 . S
C2426 C2424 1.391 . S
C2426 C2427 1.400 . S
C2427 C2426 1.400 . S
C2427 C2428 1.398 . S
C2427 C2433 1.491 . S
C2428 H2419 0.950 . S
C2428 C2427 1.398 . S
C2428 C2429 1.391 . S
C2429 H2417 0.950 . S
C2429 C2425 1.393 . S
C2429 C2428 1.391 . S
C2430 H2420 0.950 . S
C2430 C2431 1.386 . S
C2430 C2432 1.391 . S
C2431 C2430 1.386 . S
C2431 C2435 1.393 . S
C2432 H2421 0.950 . S
C2432 C2430 1.391 . S
C2432 C2433 1.400 . S
C2433 C2427 1.491 . S
C2433 C2432 1.400 . S
C2433 C2434 1.398 . S
C2434 H2422 0.950 . S
C2434 C2433 1.398 . S
C2434 C2435 1.391 . S
C2435 H2423 0.950 . S
C2435 C2431 1.393 . S
C2435 C2434 1.391 . S
H2436 C2444 0.950 . S
H2437 C2449 0.950 . S
H2438 C2446 0.950 . S
H2439 C2448 0.950 . S
H2440 C2450 0.950 . S
H2441 C2452 0.950 . S
H2442 C2454 0.950 . S
H2443 C2455 0.950 . S
C2444 H2436 0.950 . S
C2444 C2445 1.386 . S
C2444 C2446 1.391 . S
C2445 C2444 1.386 . S
C2445 C2449 1.393 . S
C2446 H2438 0.950 . S
C2446 C2444 1.391 . S
C2446 C2447 1.400 . S
C2447 C2446 1.400 . S
C2447 C2448 1.398 . S
C2447 C2453 1.491 . S
C2448 H2439 0.950 . S
C2448 C2447 1.398 . S
C2448 C2449 1.391 . S
C2449 H2437 0.950 . S
C2449 C2445 1.393 . S
C2449 C2448 1.391 . S
C2450 H2440 0.950 . S
C2450 C2451 1.386 . S
C2450 C2452 1.391 . S
C2451 C2450 1.386 . S
C2451 C2455 1.393 . S
C2452 H2441 0.950 . S
C2452 C2450 1.391 . S
C2452 C2453 1.400 . S
C2453 C2447 1.491 . S
C2453 C2452 1.400 . S
C2453 C2454 1.398 . S
C2454 H2442 0.950 . S
C2454 C2453 1.398 . S
C2454 C2455 1.391 . S
C2455 H2443 0.950 . S
C2455 C2451 1.393 . S
C2455 C2454 1.391 . S
H2456 C2464 0.950 . S
H2457 C2469 0.950 . S
H2458 C2466 0.950 . S
H2459 C2468 0.950 . S
H2460 C2470 0.950 . S
H2461 C2472 0.950 . S
H2462 C2474 0.950 . S
H2463 C2475 0.950 . S
C2464 H2456 0.950 . S
C2464 C2465 1.386 . S
C2464 C2466 1.391 . S
C2465 C2464 1.386 . S
C2465 C2469 1.393 . S
C2466 H2458 0.950 . S
C2466 C2464 1.391 . S
C2466 C2467 1.400 . S
C2467 C2466 1.400 . S
C2467 C2468 1.398 . S
C2467 C2473 1.491 . S
C2468 H2459 0.950 . S
C2468 C2467 1.398 . S
C2468 C2469 1.391 . S
C2469 H2457 0.950 . S
C2469 C2465 1.393 . S
C2469 C2468 1.391 . S
C2470 H2460 0.950 . S
C2470 C2471 1.386 . S
C2470 C2472 1.391 . S
C2471 C2470 1.386 . S
C2471 C2475 1.393 . S
C2472 H2461 0.950 . S
C2472 C2470 1.391 . S
C2472 C2473 1.400 . S
C2473 C2467 1.491 . S
C2473 C2472 1.400 . S
C2473 C2474 1.398 . S
C2474 H2462 0.950 . S
C2474 C2473 1.398 . S
C2474 C2475 1.391 . S
C2475 H2463 0.950 . S
C2475 C2471 1.393 . S
C2475 C2474 1.391 . S
H2476 C2484 0.950 . S
H2477 C2489 0.950 . S
H2478 C2486 0.950 . S
H2479 C2488 0.950 . S
H2480 C2490 0.950 . S
H2481 C2492 0.950 . S
H2482 C2494 0.950 . S
H2483 C2495 0.950 . S
C2484 H2476 0.950 . S
C2484 C2485 1.386 . S
C2484 C2486 1.391 . S
C2485 C2484 1.386 . S
C2485 C2489 1.393 . S
C2486 H2478 0.950 . S
C2486 C2484 1.391 . S
C2486 C2487 1.400 . S
C2487 C2486 1.400 . S
C2487 C2488 1.398 . S
C2487 C2493 1.491 . S
C2488 H2479 0.950 . S
C2488 C2487 1.398 . S
C2488 C2489 1.391 . S
C2489 H2477 0.950 . S
C2489 C2485 1.393 . S
C2489 C2488 1.391 . S
C2490 H2480 0.950 . S
C2490 C2491 1.386 . S
C2490 C2492 1.391 . S
C2491 C2490 1.386 . S
C2491 C2495 1.393 . S
C2492 H2481 0.950 . S
C2492 C2490 1.391 . S
C2492 C2493 1.400 . S
C2493 C2487 1.491 . S
C2493 C2492 1.400 . S
C2493 C2494 1.398 . S
C2494 H2482 0.950 . S
C2494 C2493 1.398 . S
C2494 C2495 1.391 . S
C2495 H2483 0.950 . S
C2495 C2491 1.393 . S
C2495 C2494 1.391 . S
H2496 C2504 0.950 . S
H2497 C2509 0.950 . S
H2498 C2506 0.950 . S
H2499 C2508 0.950 . S
H2500 C2510 0.950 . S
H2501 C2512 0.950 . S
H2502 C2514 0.950 . S
H2503 C2515 0.950 . S
C2504 H2496 0.950 . S
C2504 C2505 1.386 . S
C2504 C2506 1.391 . S
C2505 C2504 1.386 . S
C2505 C2509 1.393 . S
C2506 H2498 0.950 . S
C2506 C2504 1.391 . S
C2506 C2507 1.400 . S
C2507 C2506 1.400 . S
C2507 C2508 1.398 . S
C2507 C2513 1.491 . S
C2508 H2499 0.950 . S
C2508 C2507 1.398 . S
C2508 C2509 1.391 . S
C2509 H2497 0.950 . S
C2509 C2505 1.393 . S
C2509 C2508 1.391 . S
C2510 H2500 0.950 . S
C2510 C2511 1.386 . S
C2510 C2512 1.391 . S
C2511 C2510 1.386 . S
C2511 C2515 1.393 . S
C2512 H2501 0.950 . S
C2512 C2510 1.391 . S
C2512 C2513 1.400 . S
C2513 C2507 1.491 . S
C2513 C2512 1.400 . S
C2513 C2514 1.398 . S
C2514 H2502 0.950 . S
C2514 C2513 1.398 . S
C2514 C2515 1.391 . S
C2515 H2503 0.950 . S
C2515 C2511 1.393 . S
C2515 C2514 1.391 . S
H2516 C2524 0.950 . S
H2517 C2529 0.950 . S
H2518 C2526 0.950 . S
H2519 C2528 0.950 . S
H2520 C2530 0.950 . S
H2521 C2532 0.950 . S
H2522 C2534 0.950 . S
H2523 C2535 0.950 . S
C2524 H2516 0.950 . S
C2524 C2525 1.386 . S
C2524 C2526 1.391 . S
C2525 C2524 1.386 . S
C2525 C2529 1.393 . S
C2526 H2518 0.950 . S
C2526 C2524 1.391 . S
C2526 C2527 1.400 . S
C2527 C2526 1.400 . S
C2527 C2528 1.398 . S
C2527 C2533 1.491 . S
C2528 H2519 0.950 . S
C2528 C2527 1.398 . S
C2528 C2529 1.391 . S
C2529 H2517 0.950 . S
C2529 C2525 1.393 . S
C2529 C2528 1.391 . S
C2530 H2520 0.950 . S
C2530 C2531 1.386 . S
C2530 C2532 1.391 . S
C2531 C2530 1.386 . S
C2531 C2535 1.393 . S
C2532 H2521 0.950 . S
C2532 C2530 1.391 . S
C2532 C2533 1.400 . S
C2533 C2527 1.491 . S
C2533 C2532 1.400 . S
C2533 C2534 1.398 . S
C2534 H2522 0.950 . S
C2534 C2533 1.398 . S
C2534 C2535 1.391 . S
C2535 H2523 0.950 . S
C2535 C2531 1.393 . S
C2535 C2534 1.391 . S
H2536 C2544 0.950 . S
H2537 C2549 0.950 . S
H2538 C2546 0.950 . S
H2539 C2548 0.950 . S
H2540 C2550 0.950 . S
H2541 C2552 0.950 . S
H2542 C2554 0.950 . S
H2543 C2555 0.950 . S
C2544 H2536 0.950 . S
C2544 C2545 1.386 . S
C2544 C2546 1.391 . S
C2545 C2544 1.386 . S
C2545 C2549 1.393 . S
C2546 H2538 0.950 . S
C2546 C2544 1.391 . S
C2546 C2547 1.400 . S
C2547 C2546 1.400 . S
C2547 C2548 1.398 . S
C2547 C2553 1.491 . S
C2548 H2539 0.950 . S
C2548 C2547 1.398 . S
C2548 C2549 1.391 . S
C2549 H2537 0.950 . S
C2549 C2545 1.393 . S
C2549 C2548 1.391 . S
C2550 H2540 0.950 . S
C2550 C2551 1.386 . S
C2550 C2552 1.391 . S
C2551 C2550 1.386 . S
C2551 C2555 1.393 . S
C2552 H2541 0.950 . S
C2552 C2550 1.391 . S
C2552 C2553 1.400 . S
C2553 C2547 1.491 . S
C2553 C2552 1.400 . S
C2553 C2554 1.398 . S
C2554 H2542 0.950 . S
C2554 C2553 1.398 . S
C2554 C2555 1.391 . S
C2555 H2543 0.950 . S
C2555 C2551 1.393 . S
C2555 C2554 1.391 . S
H2556 C2564 0.950 . S
H2557 C2569 0.950 . S
H2558 C2566 0.950 . S
H2559 C2568 0.950 . S
H2560 C2570 0.950 . S
H2561 C2572 0.950 . S
H2562 C2574 0.950 . S
H2563 C2575 0.950 . S
C2564 H2556 0.950 . S
C2564 C2565 1.386 . S
C2564 C2566 1.391 . S
C2565 C2564 1.386 . S
C2565 C2569 1.393 . S
C2566 H2558 0.950 . S
C2566 C2564 1.391 . S
C2566 C2567 1.400 . S
C2567 C2566 1.400 . S
C2567 C2568 1.398 . S
C2567 C2573 1.491 . S
C2568 H2559 0.950 . S
C2568 C2567 1.398 . S
C2568 C2569 1.391 . S
C2569 H2557 0.950 . S
C2569 C2565 1.393 . S
C2569 C2568 1.391 . S
C2570 H2560 0.950 . S
C2570 C2571 1.386 . S
C2570 C2572 1.391 . S
C2571 C2570 1.386 . S
C2571 C2575 1.393 . S
C2572 H2561 0.950 . S
C2572 C2570 1.391 . S
C2572 C2573 1.400 . S
C2573 C2567 1.491 . S
C2573 C2572 1.400 . S
C2573 C2574 1.398 . S
C2574 H2562 0.950 . S
C2574 C2573 1.398 . S
C2574 C2575 1.391 . S
C2575 H2563 0.950 . S
C2575 C2571 1.393 . S
C2575 C2574 1.391 . S
H2576 C2584 0.950 . S
H2577 C2589 0.950 . S
H2578 C2586 0.950 . S
H2579 C2588 0.950 . S
H2580 C2590 0.950 . S
H2581 C2592 0.950 . S
H2582 C2594 0.950 . S
H2583 C2595 0.950 . S
C2584 H2576 0.950 . S
C2584 C2585 1.386 . S
C2584 C2586 1.391 . S
C2585 C2584 1.386 . S
C2585 C2589 1.393 . S
C2586 H2578 0.950 . S
C2586 C2584 1.391 . S
C2586 C2587 1.400 . S
C2587 C2586 1.400 . S
C2587 C2588 1.398 . S
C2587 C2593 1.491 . S
C2588 H2579 0.950 . S
C2588 C2587 1.398 . S
C2588 C2589 1.391 . S
C2589 H2577 0.950 . S
C2589 C2585 1.393 . S
C2589 C2588 1.391 . S
C2590 H2580 0.950 . S
C2590 C2591 1.386 . S
C2590 C2592 1.391 . S
C2591 C2590 1.386 . S
C2591 C2595 1.393 . S
C2592 H2581 0.950 . S
C2592 C2590 1.391 . S
C2592 C2593 1.400 . S
C2593 C2587 1.491 . S
C2593 C2592 1.400 . S
C2593 C2594 1.398 . S
C2594 H2582 0.950 . S
C2594 C2593 1.398 . S
C2594 C2595 1.391 . S
C2595 H2583 0.950 . S
C2595 C2591 1.393 . S
C2595 C2594 1.391 . S
H2596 C2604 0.950 . S
H2597 C2609 0.950 . S
H2598 C2606 0.950 . S
H2599 C2608 0.950 . S
H2600 C2610 0.950 . S
H2601 C2612 0.950 . S
H2602 C2614 0.950 . S
H2603 C2615 0.950 . S
C2604 H2596 0.950 . S
C2604 C2605 1.386 . S
C2604 C2606 1.391 . S
C2605 C2604 1.386 . S
C2605 C2609 1.393 . S
C2606 H2598 0.950 . S
C2606 C2604 1.391 . S
C2606 C2607 1.400 . S
C2607 C2606 1.400 . S
C2607 C2608 1.398 . S
C2607 C2613 1.491 . S
C2608 H2599 0.950 . S
C2608 C2607 1.398 . S
C2608 C2609 1.391 . S
C2609 H2597 0.950 . S
C2609 C2605 1.393 . S
C2609 C2608 1.391 . S
C2610 H2600 0.950 . S
C2610 C2611 1.386 . S
C2610 C2612 1.391 . S
C2611 C2610 1.386 . S
C2611 C2615 1.393 . S
C2612 H2601 0.950 . S
C2612 C2610 1.391 . S
C2612 C2613 1.400 . S
C2613 C2607 1.491 . S
C2613 C2612 1.400 . S
C2613 C2614 1.398 . S
C2614 H2602 0.950 . S
C2614 C2613 1.398 . S
C2614 C2615 1.391 . S
C2615 H2603 0.950 . S
C2615 C2611 1.393 . S
C2615 C2614 1.391 . S
H2616 C2624 0.950 . S
H2617 C2629 0.950 . S
H2618 C2626 0.950 . S
H2619 C2628 0.950 . S
H2620 C2630 0.950 . S
H2621 C2632 0.950 . S
H2622 C2634 0.950 . S
H2623 C2635 0.950 . S
C2624 H2616 0.950 . S
C2624 C2625 1.386 . S
C2624 C2626 1.391 . S
C2625 C2624 1.386 . S
C2625 C2629 1.393 . S
C2626 H2618 0.950 . S
C2626 C2624 1.391 . S
C2626 C2627 1.400 . S
C2627 C2626 1.400 . S
C2627 C2628 1.398 . S
C2627 C2633 1.491 . S
C2628 H2619 0.950 . S
C2628 C2627 1.398 . S
C2628 C2629 1.391 . S
C2629 H2617 0.950 . S
C2629 C2625 1.393 . S
C2629 C2628 1.391 . S
C2630 H2620 0.950 . S
C2630 C2631 1.386 . S
C2630 C2632 1.391 . S
C2631 C2630 1.386 . S
C2631 C2635 1.393 . S
C2632 H2621 0.950 . S
C2632 C2630 1.391 . S
C2632 C2633 1.400 1_455 S
C2633 C2627 1.491 . S
C2633 C2632 1.400 1_655 S
C2633 C2634 1.398 . S
C2634 H2622 0.950 . S
C2634 C2633 1.398 . S
C2634 C2635 1.391 1_655 S
C2635 H2623 0.950 . S
C2635 C2631 1.393 . S
C2635 C2634 1.391 1_455 S
H2636 C2644 0.950 . S
H2637 C2649 0.950 . S
H2638 C2646 0.950 . S
H2639 C2648 0.950 . S
H2640 C2650 0.950 . S
H2641 C2652 0.950 . S
H2642 C2654 0.950 . S
H2643 C2655 0.950 . S
C2644 H2636 0.950 . S
C2644 C2645 1.386 . S
C2644 C2646 1.391 . S
C2645 C2644 1.386 . S
C2645 C2649 1.393 . S
C2646 H2638 0.950 . S
C2646 C2644 1.391 . S
C2646 C2647 1.400 . S
C2647 C2646 1.400 . S
C2647 C2648 1.398 . S
C2647 C2653 1.491 . S
C2648 H2639 0.950 . S
C2648 C2647 1.398 . S
C2648 C2649 1.391 . S
C2649 H2637 0.950 . S
C2649 C2645 1.393 . S
C2649 C2648 1.391 . S
C2650 H2640 0.950 . S
C2650 C2651 1.386 . S
C2650 C2652 1.391 . S
C2651 C2650 1.386 . S
C2651 C2655 1.393 . S
C2652 H2641 0.950 . S
C2652 C2650 1.391 . S
C2652 C2653 1.400 . S
C2653 C2647 1.491 . S
C2653 C2652 1.400 . S
C2653 C2654 1.398 . S
C2654 H2642 0.950 . S
C2654 C2653 1.398 . S
C2654 C2655 1.391 . S
C2655 H2643 0.950 . S
C2655 C2651 1.393 . S
C2655 C2654 1.391 . S
H2656 C2664 0.950 . S
H2657 C2669 0.950 . S
H2658 C2666 0.950 . S
H2659 C2668 0.950 . S
H2660 C2670 0.950 . S
H2661 C2672 0.950 . S
H2662 C2674 0.950 . S
H2663 C2675 0.950 . S
C2664 H2656 0.950 . S
C2664 C2665 1.386 . S
C2664 C2666 1.391 . S
C2665 C2664 1.386 . S
C2665 C2669 1.393 . S
C2666 H2658 0.950 . S
C2666 C2664 1.391 . S
C2666 C2667 1.400 . S
C2667 C2666 1.400 . S
C2667 C2668 1.398 . S
C2667 C2673 1.491 . S
C2668 H2659 0.950 . S
C2668 C2667 1.398 . S
C2668 C2669 1.391 . S
C2669 H2657 0.950 . S
C2669 C2665 1.393 . S
C2669 C2668 1.391 . S
C2670 H2660 0.950 . S
C2670 C2671 1.386 . S
C2670 C2672 1.391 . S
C2671 C2670 1.386 . S
C2671 C2675 1.393 . S
C2672 H2661 0.950 . S
C2672 C2670 1.391 . S
C2672 C2673 1.400 . S
C2673 C2667 1.491 . S
C2673 C2672 1.400 . S
C2673 C2674 1.398 . S
C2674 H2662 0.950 . S
C2674 C2673 1.398 . S
C2674 C2675 1.391 . S
C2675 H2663 0.950 . S
C2675 C2671 1.393 . S
C2675 C2674 1.391 . S
H2676 C2684 0.950 . S
H2677 C2689 0.950 . S
H2678 C2686 0.950 . S
H2679 C2688 0.950 . S
H2680 C2690 0.950 . S
H2681 C2692 0.950 . S
H2682 C2694 0.950 . S
H2683 C2695 0.950 . S
C2684 H2676 0.950 . S
C2684 C2685 1.386 . S
C2684 C2686 1.391 . S
C2685 C2684 1.386 . S
C2685 C2689 1.393 . S
C2686 H2678 0.950 . S
C2686 C2684 1.391 . S
C2686 C2687 1.400 . S
C2687 C2686 1.400 . S
C2687 C2688 1.398 . S
C2687 C2693 1.491 . S
C2688 H2679 0.950 . S
C2688 C2687 1.398 . S
C2688 C2689 1.391 . S
C2689 H2677 0.950 . S
C2689 C2685 1.393 . S
C2689 C2688 1.391 . S
C2690 H2680 0.950 . S
C2690 C2691 1.386 . S
C2690 C2692 1.391 . S
C2691 C2690 1.386 . S
C2691 C2695 1.393 . S
C2692 H2681 0.950 . S
C2692 C2690 1.391 . S
C2692 C2693 1.400 . S
C2693 C2687 1.491 . S
C2693 C2692 1.400 . S
C2693 C2694 1.398 . S
C2694 H2682 0.950 . S
C2694 C2693 1.398 . S
C2694 C2695 1.391 . S
C2695 H2683 0.950 . S
C2695 C2691 1.393 . S
C2695 C2694 1.391 . S
H2696 C2704 0.950 . S
H2697 C2709 0.950 . S
H2698 C2706 0.950 . S
H2699 C2708 0.950 . S
H2700 C2710 0.950 . S
H2701 C2712 0.950 . S
H2702 C2714 0.950 . S
H2703 C2715 0.950 . S
C2704 H2696 0.950 . S
C2704 C2705 1.386 . S
C2704 C2706 1.391 . S
C2705 C2704 1.386 . S
C2705 C2709 1.393 . S
C2706 H2698 0.950 . S
C2706 C2704 1.391 . S
C2706 C2707 1.400 . S
C2707 C2706 1.400 . S
C2707 C2708 1.398 . S
C2707 C2713 1.491 . S
C2708 H2699 0.950 . S
C2708 C2707 1.398 . S
C2708 C2709 1.391 . S
C2709 H2697 0.950 . S
C2709 C2705 1.393 . S
C2709 C2708 1.391 . S
C2710 H2700 0.950 . S
C2710 C2711 1.386 . S
C2710 C2712 1.391 . S
C2711 C2710 1.386 . S
C2711 C2715 1.393 . S
C2712 H2701 0.950 . S
C2712 C2710 1.391 . S
C2712 C2713 1.400 . S
C2713 C2707 1.491 . S
C2713 C2712 1.400 . S
C2713 C2714 1.398 . S
C2714 H2702 0.950 . S
C2714 C2713 1.398 . S
C2714 C2715 1.391 . S
C2715 H2703 0.950 . S
C2715 C2711 1.393 . S
C2715 C2714 1.391 . S
H2716 C2724 0.950 . S
H2717 C2729 0.950 . S
H2718 C2726 0.950 . S
H2719 C2728 0.950 . S
H2720 C2730 0.950 . S
H2721 C2732 0.950 . S
H2722 C2734 0.950 . S
H2723 C2735 0.950 . S
C2724 H2716 0.950 . S
C2724 C2725 1.386 . S
C2724 C2726 1.391 . S
C2725 C2724 1.386 . S
C2725 C2729 1.393 . S
C2726 H2718 0.950 . S
C2726 C2724 1.391 . S
C2726 C2727 1.400 . S
C2727 C2726 1.400 . S
C2727 C2728 1.398 . S
C2727 C2733 1.491 . S
C2728 H2719 0.950 . S
C2728 C2727 1.398 . S
C2728 C2729 1.391 . S
C2729 H2717 0.950 . S
C2729 C2725 1.393 . S
C2729 C2728 1.391 . S
C2730 H2720 0.950 . S
C2730 C2731 1.386 . S
C2730 C2732 1.391 . S
C2731 C2730 1.386 . S
C2731 C2735 1.393 . S
C2732 H2721 0.950 . S
C2732 C2730 1.391 . S
C2732 C2733 1.400 . S
C2733 C2727 1.491 . S
C2733 C2732 1.400 . S
C2733 C2734 1.398 . S
C2734 H2722 0.950 . S
C2734 C2733 1.398 . S
C2734 C2735 1.391 . S
C2735 H2723 0.950 . S
C2735 C2731 1.393 . S
C2735 C2734 1.391 . S
H2736 C2744 0.950 . S
H2737 C2749 0.950 . S
H2738 C2746 0.950 . S
H2739 C2748 0.950 . S
H2740 C2750 0.950 . S
H2741 C2752 0.950 . S
H2742 C2754 0.950 . S
H2743 C2755 0.950 . S
C2744 H2736 0.950 . S
C2744 C2745 1.386 . S
C2744 C2746 1.391 . S
C2745 C2744 1.386 . S
C2745 C2749 1.393 . S
C2746 H2738 0.950 . S
C2746 C2744 1.391 . S
C2746 C2747 1.400 . S
C2747 C2746 1.400 . S
C2747 C2748 1.398 . S
C2747 C2753 1.491 . S
C2748 H2739 0.950 . S
C2748 C2747 1.398 . S
C2748 C2749 1.391 . S
C2749 H2737 0.950 . S
C2749 C2745 1.393 . S
C2749 C2748 1.391 . S
C2750 H2740 0.950 . S
C2750 C2751 1.386 . S
C2750 C2752 1.391 . S
C2751 C2750 1.386 . S
C2751 C2755 1.393 . S
C2752 H2741 0.950 . S
C2752 C2750 1.391 . S
C2752 C2753 1.400 . S
C2753 C2747 1.491 . S
C2753 C2752 1.400 . S
C2753 C2754 1.398 . S
C2754 H2742 0.950 . S
C2754 C2753 1.398 . S
C2754 C2755 1.391 . S
C2755 H2743 0.950 . S
C2755 C2751 1.393 . S
C2755 C2754 1.391 . S
H2756 C2764 0.950 . S
H2757 C2769 0.950 . S
H2758 C2766 0.950 . S
H2759 C2768 0.950 . S
H2760 C2770 0.950 . S
H2761 C2772 0.950 . S
H2762 C2774 0.950 . S
H2763 C2775 0.950 1_545 S
C2764 H2756 0.950 . S
C2764 C2765 1.386 . S
C2764 C2766 1.391 . S
C2765 C2764 1.386 . S
C2765 C2769 1.393 . S
C2766 H2758 0.950 . S
C2766 C2764 1.391 . S
C2766 C2767 1.400 . S
C2767 C2766 1.400 . S
C2767 C2768 1.398 . S
C2767 C2773 1.491 . S
C2768 H2759 0.950 . S
C2768 C2767 1.398 . S
C2768 C2769 1.391 . S
C2769 H2757 0.950 . S
C2769 C2765 1.393 . S
C2769 C2768 1.391 . S
C2770 H2760 0.950 . S
C2770 C2771 1.386 . S
C2770 C2772 1.391 . S
C2771 C2770 1.386 . S
C2771 C2775 1.393 . S
C2772 H2761 0.950 . S
C2772 C2770 1.391 . S
C2772 C2773 1.400 . S
C2773 C2767 1.491 . S
C2773 C2772 1.400 . S
C2773 C2774 1.398 . S
C2774 H2762 0.950 . S
C2774 C2773 1.398 . S
C2774 C2775 1.391 . S
C2775 H2763 0.950 1_565 S
C2775 C2771 1.393 . S
C2775 C2774 1.391 . S
H2776 C2784 0.950 . S
H2777 C2789 0.950 . S
H2778 C2786 0.950 . S
H2779 C2788 0.950 . S
H2780 C2790 0.950 . S
H2781 C2792 0.950 . S
H2782 C2794 0.950 . S
H2783 C2795 0.950 . S
C2784 H2776 0.950 . S
C2784 C2785 1.386 . S
C2784 C2786 1.391 . S
C2785 C2784 1.386 . S
C2785 C2789 1.393 . S
C2786 H2778 0.950 . S
C2786 C2784 1.391 . S
C2786 C2787 1.400 . S
C2787 C2786 1.400 . S
C2787 C2788 1.398 . S
C2787 C2793 1.491 . S
C2788 H2779 0.950 . S
C2788 C2787 1.398 . S
C2788 C2789 1.391 . S
C2789 H2777 0.950 . S
C2789 C2785 1.393 . S
C2789 C2788 1.391 . S
C2790 H2780 0.950 . S
C2790 C2791 1.386 . S
C2790 C2792 1.391 . S
C2791 C2790 1.386 . S
C2791 C2795 1.393 . S
C2792 H2781 0.950 . S
C2792 C2790 1.391 . S
C2792 C2793 1.400 . S
C2793 C2787 1.491 . S
C2793 C2792 1.400 . S
C2793 C2794 1.398 . S
C2794 H2782 0.950 . S
C2794 C2793 1.398 . S
C2794 C2795 1.391 . S
C2795 H2783 0.950 . S
C2795 C2791 1.393 . S
C2795 C2794 1.391 . S
H2796 C2804 0.950 . S
H2797 C2809 0.950 . S
H2798 C2806 0.950 . S
H2799 C2808 0.950 . S
H2800 C2810 0.950 . S
H2801 C2812 0.950 . S
H2802 C2814 0.950 . S
H2803 C2815 0.950 . S
C2804 H2796 0.950 . S
C2804 C2805 1.386 1_556 S
C2804 C2806 1.391 . S
C2805 C2804 1.386 1_554 S
C2805 C2809 1.393 . S
C2806 H2798 0.950 . S
C2806 C2804 1.391 . S
C2806 C2807 1.400 1_556 S
C2807 C2806 1.400 1_554 S
C2807 C2808 1.398 . S
C2807 C2813 1.491 . S
C2808 H2799 0.950 . S
C2808 C2807 1.398 . S
C2808 C2809 1.391 . S
C2809 H2797 0.950 . S
C2809 C2805 1.393 . S
C2809 C2808 1.391 . S
C2810 H2800 0.950 . S
C2810 C2811 1.386 . S
C2810 C2812 1.391 . S
C2811 C2810 1.386 . S
C2811 C2815 1.393 1_554 S
C2812 H2801 0.950 . S
C2812 C2810 1.391 . S
C2812 C2813 1.400 . S
C2813 C2807 1.491 . S
C2813 C2812 1.400 . S
C2813 C2814 1.398 1_554 S
C2814 H2802 0.950 . S
C2814 C2813 1.398 1_556 S
C2814 C2815 1.391 . S
C2815 H2803 0.950 . S
C2815 C2811 1.393 1_556 S
C2815 C2814 1.391 . S
H2816 C2824 0.950 . S
H2817 C2829 0.950 . S
H2818 C2826 0.950 . S
H2819 C2828 0.950 . S
H2820 C2830 0.950 . S
H2821 C2832 0.950 . S
H2822 C2834 0.950 . S
H2823 C2835 0.950 . S
C2824 H2816 0.950 . S
C2824 C2825 1.386 . S
C2824 C2826 1.391 . S
C2825 C2824 1.386 . S
C2825 C2829 1.393 . S
C2826 H2818 0.950 . S
C2826 C2824 1.391 . S
C2826 C2827 1.400 . S
C2827 C2826 1.400 . S
C2827 C2828 1.398 . S
C2827 C2833 1.491 . S
C2828 H2819 0.950 . S
C2828 C2827 1.398 . S
C2828 C2829 1.391 . S
C2829 H2817 0.950 . S
C2829 C2825 1.393 . S
C2829 C2828 1.391 . S
C2830 H2820 0.950 . S
C2830 C2831 1.386 . S
C2830 C2832 1.391 . S
C2831 C2830 1.386 . S
C2831 C2835 1.393 . S
C2832 H2821 0.950 . S
C2832 C2830 1.391 . S
C2832 C2833 1.400 . S
C2833 C2827 1.491 . S
C2833 C2832 1.400 . S
C2833 C2834 1.398 . S
C2834 H2822 0.950 . S
C2834 C2833 1.398 . S
C2834 C2835 1.391 . S
C2835 H2823 0.950 . S
C2835 C2831 1.393 . S
C2835 C2834 1.391 . S
H2836 C2844 0.950 . S
H2837 C2849 0.963 . S
H2838 C2846 0.950 . S
H2839 C2848 0.954 . S
H2840 C2850 0.950 . S
H2841 C2852 0.950 . S
H2842 C2854 0.950 . S
H2843 C2855 0.945 1_554 S
C2844 H2836 0.950 . S
C2844 C2845 1.386 . S
C2844 C2846 1.391 . S
C2845 C2844 1.386 . S
C2845 C2849 1.393 . S
C2846 H2838 0.950 . S
C2846 C2844 1.391 . S
C2846 C2847 1.400 . S
C2847 C2846 1.400 . S
C2847 C2848 1.396 1_554 S
C2847 C2853 1.475 1_554 S
C2848 H2839 0.954 . S
C2848 C2847 1.396 1_556 S
C2848 C2849 1.389 1_556 S
C2849 H2837 0.963 . S
C2849 C2845 1.393 . S
C2849 C2848 1.389 1_554 S
C2850 H2840 0.950 . S
C2850 C2851 1.386 . S
C2850 C2852 1.391 . S
C2851 C2850 1.386 . S
C2851 C2855 1.401 . S
C2852 H2841 0.950 . S
C2852 C2850 1.391 . S
C2852 C2853 1.436 . S
C2853 C2847 1.475 1_556 S
C2853 C2852 1.436 . S
C2853 C2854 1.381 1_556 S
C2854 H2842 0.950 . S
C2854 C2853 1.381 1_554 S
C2854 C2855 1.387 1_554 S
C2855 H2843 0.945 1_556 S
C2855 C2851 1.401 . S
C2855 C2854 1.387 1_556 S
H2856 C2864 0.950 . S
H2857 C2869 0.950 . S
H2858 C2866 0.950 . S
H2859 C2868 0.950 . S
H2860 C2870 0.950 . S
H2861 C2872 0.950 . S
H2862 C2874 0.950 . S
H2863 C2875 0.950 . S
C2864 H2856 0.950 . S
C2864 C2865 1.386 . S
C2864 C2866 1.391 . S
C2865 C2864 1.386 . S
C2865 C2869 1.393 . S
C2866 H2858 0.950 . S
C2866 C2864 1.391 . S
C2866 C2867 1.400 . S
C2867 C2866 1.400 . S
C2867 C2868 1.398 . S
C2867 C2873 1.491 . S
C2868 H2859 0.950 . S
C2868 C2867 1.398 . S
C2868 C2869 1.391 . S
C2869 H2857 0.950 . S
C2869 C2865 1.393 . S
C2869 C2868 1.391 . S
C2870 H2860 0.950 . S
C2870 C2871 1.386 . S
C2870 C2872 1.391 . S
C2871 C2870 1.386 . S
C2871 C2875 1.393 . S
C2872 H2861 0.950 . S
C2872 C2870 1.391 . S
C2872 C2873 1.400 . S
C2873 C2867 1.491 . S
C2873 C2872 1.400 . S
C2873 C2874 1.398 . S
C2874 H2862 0.950 . S
C2874 C2873 1.398 . S
C2874 C2875 1.391 . S
C2875 H2863 0.950 . S
C2875 C2871 1.393 . S
C2875 C2874 1.391 . S
H2876 C2884 0.950 . S
H2877 C2889 0.950 . S
H2878 C2886 0.950 . S
H2879 C2888 0.950 . S
H2880 C2890 0.950 . S
H2881 C2892 0.950 . S
H2882 C2894 0.950 . S
H2883 C2895 0.950 . S
C2884 H2876 0.950 . S
C2884 C2885 1.386 . S
C2884 C2886 1.391 . S
C2885 C2884 1.386 . S
C2885 C2889 1.393 . S
C2886 H2878 0.950 . S
C2886 C2884 1.391 . S
C2886 C2887 1.400 . S
C2887 C2886 1.400 . S
C2887 C2888 1.398 . S
C2887 C2893 1.491 . S
C2888 H2879 0.950 . S
C2888 C2887 1.398 . S
C2888 C2889 1.391 . S
C2889 H2877 0.950 . S
C2889 C2885 1.393 . S
C2889 C2888 1.391 . S
C2890 H2880 0.950 . S
C2890 C2891 1.386 . S
C2890 C2892 1.391 . S
C2891 C2890 1.386 . S
C2891 C2895 1.393 . S
C2892 H2881 0.950 . S
C2892 C2890 1.391 . S
C2892 C2893 1.400 . S
C2893 C2887 1.491 . S
C2893 C2892 1.400 . S
C2893 C2894 1.398 . S
C2894 H2882 0.950 . S
C2894 C2893 1.398 . S
C2894 C2895 1.391 . S
C2895 H2883 0.950 . S
C2895 C2891 1.393 . S
C2895 C2894 1.391 . S
C985 C109 1.033 . S
C991 C344 1.054 . S
C1005 C65 1.421 . S
C1011 C378 1.426 . S
C1025 C75 0.641 . S
C1031 C447 0.663 . S
C1051 C485 0.918 . S
C1045 C84 0.929 . S
C1065 C25 1.419 . S
C1071 C525 1.402 . S
C1091 C544 0.331 . S
C1085 C28 0.318 . S
C1111 C578 1.276 . S
C1105 C47 1.270 . S
C1125 C9 1.723 . S
C1131 C647 1.703 . S
C1151 C353 2.525 . S
C1145 C233 2.566 . S
C1165 C249 1.057 . S
C1171 C405 1.072 . S
C1191 C418 1.428 . S
C1185 C275 1.439 . S
C1211 C487 1.375 . S
C1205 C173 1.373 . S
C1225 C224 1.965 . S
C1231 C527 2.009 . S
C1251 C553 1.854 . S
C1245 C243 1.880 . S
C1271 C605 0.364 . S
C1265 C266 0.274 . S
C1291 C618 2.172 . S
C1285 C179 2.179 . S
C1311 C348 2.487 . S
C1305 C163 2.501 . S
C1325 C289 1.981 . S
C1331 C658 1.984 . S
C1351 C708 2.675 . S
C1345 C333 2.686 . S
C1371 C767 1.486 1_655 S
C1365 C308 1.522 . S
C1385 C123 1.474 . S
C1391 C645 1.474 . S
C1405 C126 1.429 . S
C1411 C445 1.446 . S
C1425 C327 2.517 . S
C1431 C778 2.488 . S
C1451 C847 0.933 . S
C1445 C299 0.952 . S
C1471 C365 1.059 . S
C1465 C67 1.063 . S
C1491 C833 1.439 . S
C1485 C98 1.412 . S
C1505 C89 0.654 . S
C1511 C428 0.646 . S
C1525 C79 0.970 . S
C1531 C784 0.976 . S
C1551 C504 1.419 . S
C1545 C11 1.442 . S
C1565 C51 0.336 . S
C1571 C725 0.361 . S
C1591 C593 1.340 1_556 S
C1585 C33 1.320 . S
C1611 C868 1.682 . S
C1605 C14 1.708 . S
C1631 C338 2.498 . S
C1625 C140 2.524 . S
C1651 C824 1.051 . S
C1645 C319 1.063 . S
C1665 C112 1.439 . S
C1671 C433 1.453 . S
C1685 C285 1.403 . S
C1691 C788 1.400 . S
C1705 C149 2.030 . S
C1711 C508 2.030 . S
C1731 C698 1.881 . S
C1725 C313 1.916 . S
C1745 C121 0.344 . S
C1751 C584 0.386 1_565 S
C1765 C291 2.207 . S
C1771 C873 2.197 . S
C1785 C182 2.532 . S
C1791 C367 2.500 1_655 S
C1805 C168 1.951 . S
C1811 C673 2.002 . S
C1825 C263 2.733 . S
C1831 C567 2.732 . S
C1845 C247 1.586 . S
C1851 C748 1.600 . S
C1871 C864 1.452 . S
C1865 C277 1.475 . S
C1885 C219 1.489 . S
C1891 C424 1.465 . S
C1911 C473 2.541 . S
C1905 C257 2.570 . S
C1931 C388 0.938 . S
C1925 C201 0.954 . S
C1945 C81 1.041 . S
C1951 C904 1.062 . S
C1971 C818 1.421 . S
C1965 C93 1.426 . S
C1985 C103 0.629 . S
C1991 C967 0.628 . S
C2005 C56 0.926 . S
C2011 C805 0.923 . S
C2025 C53 1.441 . S
C2031 C685 1.422 . S
C2051 C704 0.347 . S
C2045 C0 0.367 . S
C2071 C738 1.279 . S
C2065 C19 1.249 . S
C2091 C887 1.702 . S
C2085 C37 1.723 . S
C2111 C913 2.530 . S
C2105 C261 2.565 . S
C2125 C193 1.038 . S
C2131 C845 1.040 . S
C2151 C938 1.434 . S
C2145 C205 1.437 . S
C2171 C807 1.379 . S
C2165 C215 1.370 . S
C2191 C687 2.009 . S
C2185 C252 1.965 . S
C2205 C187 1.880 . S
C2211 C713 1.855 . S
C2231 C765 0.343 . S
C2225 C196 0.286 . S
C2245 C221 2.175 . S
C2251 C858 2.172 . S
C2271 C908 2.478 . S
C2265 C317 2.497 . S
C2285 C135 1.981 . S
C2291 C498 1.987 . S
C2311 C548 2.680 . S
C2305 C151 2.690 . S
C2331 C607 1.529 . S
C2325 C154 1.529 . S
C2351 C885 1.488 . S
C2345 C305 1.495 . S
C2365 C280 1.429 . S
C2371 C965 1.452 . S
C2391 C458 2.485 . S
C2385 C145 2.514 . S
C2411 C407 0.952 . S
C2405 C117 0.962 . S
C2425 C95 1.051 . S
C2431 C925 1.051 . S
C2451 C393 1.439 . S
C2445 C70 1.412 . S
C2465 C61 0.658 . S
C2471 C948 0.657 . S
C2485 C107 0.965 . S
C2491 C464 0.974 . S
C2505 C39 1.434 . S
C2511 C664 1.396 . S
C2531 C565 0.338 . S
C2525 C23 0.340 . S
C2545 C5 1.322 . S
C2551 C753 1.337 . S
C2565 C42 1.703 . S
C2571 C628 1.689 . S
C2591 C898 2.496 . S
C2585 C322 2.523 . S
C2605 C165 1.056 . S
C2611 C384 1.059 . S
C2631 C953 1.452 . S
C2625 C294 1.439 . S
C2645 C131 1.400 . S
C2651 C468 1.404 . S
C2665 C331 2.026 . S
C2671 C668 2.030 . S
C2691 C538 1.886 . S
C2685 C159 1.914 . S
C2705 C303 0.329 . S
C2711 C744 0.345 . S
C2731 C633 2.197 . S
C2725 C137 2.207 . S
C2751 C927 2.497 . S
C2745 C238 2.530 . S
C2771 C513 2.005 1_665 S
C2765 C210 1.958 . S
C2785 C235 2.738 . S
C2791 C727 2.726 . S
C2811 C588 1.600 . S
C2805 C191 1.586 . S
C2825 C207 1.494 . S
C2831 C624 1.478 . S
C2845 C177 1.495 . S
C2851 C944 1.477 . S
C2871 C793 2.540 . S
C2865 C229 2.573 1_565 S
C2891 C828 0.954 . S
C2885 C271 0.956 . S
