# Generated by pormake.
# Topology ocu, (6,8)-cn, num edge types: 1
# Building blocks:
#     Node 0, Type 0, BuildingBlock: KUMBUR_clean_sbu_0, # of connection points: 6
#     Node 1, Type 0, BuildingBlock: KUMBUR_clean_sbu_0, # of connection points: 6
#     Node 2, Type 0, BuildingBlock: KUMBUR_clean_sbu_0, # of connection points: 6
#     Node 3, Type 0, BuildingBlock: KUMBUR_clean_sbu_0, # of connection points: 6
#     Node 4, Type 0, BuildingBlock: KUMBUR_clean_sbu_0, # of connection points: 6
#     Node 5, Type 0, BuildingBlock: KUMBUR_clean_sbu_0, # of connection points: 6
#     Node 6, Type 0, BuildingBlock: KUMBUR_clean_sbu_0, # of connection points: 6
#     Node 7, Type 0, BuildingBlock: KUMBUR_clean_sbu_0, # of connection points: 6
#     Node 8, Type 1, BuildingBlock: GIZVER_clean_sbu_0, # of connection points: 8
#     Node 9, Type 1, BuildingBlock: GIZVER_clean_sbu_0, # of connection points: 8
#     Node 10, Type 1, BuildingBlock: GIZVER_clean_sbu_0, # of connection points: 8
#     Node 11, Type 1, BuildingBlock: GIZVER_clean_sbu_0, # of connection points: 8
#     Node 12, Type 1, BuildingBlock: GIZVER_clean_sbu_0, # of connection points: 8
#     Node 13, Type 1, BuildingBlock: GIZVER_clean_sbu_0, # of connection points: 8
#     Edge 14, Type (0, 1), BuildingBlock: XUDNAN_clean_linker_2, # of connection points: 2
#     Edge 15, Type (0, 1), BuildingBlock: XUDNAN_clean_linker_2, # of connection points: 2
#     Edge 16, Type (0, 1), BuildingBlock: XUDNAN_clean_linker_2, # of connection points: 2
#     Edge 17, Type (0, 1), BuildingBlock: XUDNAN_clean_linker_2, # of connection points: 2
#     Edge 18, Type (0, 1), BuildingBlock: XUDNAN_clean_linker_2, # of connection points: 2
#     Edge 19, Type (0, 1), BuildingBlock: XUDNAN_clean_linker_2, # of connection points: 2
#     Edge 20, Type (0, 1), BuildingBlock: XUDNAN_clean_linker_2, # of connection points: 2
#     Edge 21, Type (0, 1), BuildingBlock: XUDNAN_clean_linker_2, # of connection points: 2
#     Edge 22, Type (0, 1), BuildingBlock: XUDNAN_clean_linker_2, # of connection points: 2
#     Edge 23, Type (0, 1), BuildingBlock: XUDNAN_clean_linker_2, # of connection points: 2
#     Edge 24, Type (0, 1), BuildingBlock: XUDNAN_clean_linker_2, # of connection points: 2
#     Edge 25, Type (0, 1), BuildingBlock: XUDNAN_clean_linker_2, # of connection points: 2
#     Edge 26, Type (0, 1), BuildingBlock: XUDNAN_clean_linker_2, # of connection points: 2
#     Edge 27, Type (0, 1), BuildingBlock: XUDNAN_clean_linker_2, # of connection points: 2
#     Edge 28, Type (0, 1), BuildingBlock: XUDNAN_clean_linker_2, # of connection points: 2
#     Edge 29, Type (0, 1), BuildingBlock: XUDNAN_clean_linker_2, # of connection points: 2
#     Edge 30, Type (0, 1), BuildingBlock: XUDNAN_clean_linker_2, # of connection points: 2
#     Edge 31, Type (0, 1), BuildingBlock: XUDNAN_clean_linker_2, # of connection points: 2
#     Edge 32, Type (0, 1), BuildingBlock: XUDNAN_clean_linker_2, # of connection points: 2
#     Edge 33, Type (0, 1), BuildingBlock: XUDNAN_clean_linker_2, # of connection points: 2
#     Edge 34, Type (0, 1), BuildingBlock: XUDNAN_clean_linker_2, # of connection points: 2
#     Edge 35, Type (0, 1), BuildingBlock: XUDNAN_clean_linker_2, # of connection points: 2
#     Edge 36, Type (0, 1), BuildingBlock: XUDNAN_clean_linker_2, # of connection points: 2
#     Edge 37, Type (0, 1), BuildingBlock: XUDNAN_clean_linker_2, # of connection points: 2
#     Edge 38, Type (0, 1), BuildingBlock: XUDNAN_clean_linker_2, # of connection points: 2
#     Edge 39, Type (0, 1), BuildingBlock: XUDNAN_clean_linker_2, # of connection points: 2
#     Edge 40, Type (0, 1), BuildingBlock: XUDNAN_clean_linker_2, # of connection points: 2
#     Edge 41, Type (0, 1), BuildingBlock: XUDNAN_clean_linker_2, # of connection points: 2
#     Edge 42, Type (0, 1), BuildingBlock: XUDNAN_clean_linker_2, # of connection points: 2
#     Edge 43, Type (0, 1), BuildingBlock: XUDNAN_clean_linker_2, # of connection points: 2
#     Edge 44, Type (0, 1), BuildingBlock: XUDNAN_clean_linker_2, # of connection points: 2
#     Edge 45, Type (0, 1), BuildingBlock: XUDNAN_clean_linker_2, # of connection points: 2
#     Edge 46, Type (0, 1), BuildingBlock: XUDNAN_clean_linker_2, # of connection points: 2
#     Edge 47, Type (0, 1), BuildingBlock: XUDNAN_clean_linker_2, # of connection points: 2
#     Edge 48, Type (0, 1), BuildingBlock: XUDNAN_clean_linker_2, # of connection points: 2
#     Edge 49, Type (0, 1), BuildingBlock: XUDNAN_clean_linker_2, # of connection points: 2
#     Edge 50, Type (0, 1), BuildingBlock: XUDNAN_clean_linker_2, # of connection points: 2
#     Edge 51, Type (0, 1), BuildingBlock: XUDNAN_clean_linker_2, # of connection points: 2
#     Edge 52, Type (0, 1), BuildingBlock: XUDNAN_clean_linker_2, # of connection points: 2
#     Edge 53, Type (0, 1), BuildingBlock: XUDNAN_clean_linker_2, # of connection points: 2
#     Edge 54, Type (0, 1), BuildingBlock: XUDNAN_clean_linker_2, # of connection points: 2
#     Edge 55, Type (0, 1), BuildingBlock: XUDNAN_clean_linker_2, # of connection points: 2
#     Edge 56, Type (0, 1), BuildingBlock: XUDNAN_clean_linker_2, # of connection points: 2
#     Edge 57, Type (0, 1), BuildingBlock: XUDNAN_clean_linker_2, # of connection points: 2
#     Edge 58, Type (0, 1), BuildingBlock: XUDNAN_clean_linker_2, # of connection points: 2
#     Edge 59, Type (0, 1), BuildingBlock: XUDNAN_clean_linker_2, # of connection points: 2
#     Edge 60, Type (0, 1), BuildingBlock: XUDNAN_clean_linker_2, # of connection points: 2
#     Edge 61, Type (0, 1), BuildingBlock: XUDNAN_clean_linker_2, # of connection points: 2
# Relax obj value: 0.167
# Max RMSD: 0.298
# Mean RMSD: 0.214
data_MOF--net-ocu--node1-KUMBUR_clean_sbu_0--node2-GIZVER_clean_sbu_0--edge1-XUDNAN_clean_linker_2
_symmetry_space_group_name_H-M    P1
_symmetry_Int_Tables_number       1
_symmetry_cell_setting            triclinic
loop_
_symmetry_equiv_pos_as_xyz
'x, y, z'
_cell_length_a     43.176188
_cell_length_b     44.858411
_cell_length_c     34.932723
_cell_angle_alpha  77.764021
_cell_angle_beta   101.60778
_cell_angle_gamma 112.66917
loop_
_atom_site_label
_atom_site_type_symbol
_atom_site_fract_x
_atom_site_fract_y
_atom_site_fract_z
_atom_type_partial_charge
Tb0 Tb 0.27737 0.2475 0.21481 0.0
C1 C 0.35331 0.31557 0.34653 0.0
C2 C 0.35663 0.27117 0.39846 0.0
C3 C 0.40194 0.32438 0.39753 0.0
C4 C 0.33965 0.28342 0.36372 0.0
C5 C 0.38408 0.33674 0.36385 0.0
C6 C 0.38827 0.29162 0.41475 0.0
C7 C 0.37481 0.38143 0.31661 0.0
N8 N 0.33479 0.32673 0.3147 0.0
C9 C 0.34414 0.35953 0.30088 0.0
C10 C 0.39512 0.36993 0.34789 0.0
Tb11 Tb 0.28487 0.28882 0.29174 0.0
N12 N 0.3086 0.26484 0.34785 0.0
C13 C 0.2923 0.23407 0.36617 0.0
C14 C 0.34073 0.23916 0.41652 0.0
C15 C 0.30822 0.22068 0.40055 0.0
H16 H 0.32842 0.36857 0.27688 0.0
H17 H 0.29544 0.19611 0.4146 0.0
H18 H 0.40186 0.28262 0.44133 0.0
H19 H 0.38264 0.40718 0.30481 0.0
H20 H 0.26725 0.2196 0.35394 0.0
H21 H 0.23353 0.31682 0.08431 0.0
H22 H 0.35295 0.22879 0.44325 0.0
H23 H 0.25856 0.16676 0.2376 0.0
H24 H 0.27279 0.30834 0.14347 0.0
H25 H 0.21345 0.11691 0.21646 0.0
H26 H 0.4258 0.34018 0.41117 0.0
H27 H 0.18083 0.27134 0.06661 0.0
H28 H 0.14538 0.21183 0.07941 0.0
H29 H 0.41866 0.38702 0.36036 0.0
H30 H 0.13985 0.15708 0.11565 0.0
N31 N 0.2418 0.25888 0.16088 0.0
C32 C 0.2496 0.28836 0.13672 0.0
C33 C 0.19774 0.26754 0.09307 0.0
C34 C 0.1911 0.23678 0.11631 0.0
C35 C 0.22752 0.29325 0.10286 0.0
C36 C 0.21407 0.23306 0.15031 0.0
H37 H 0.16569 0.12138 0.16591 0.0
N38 N 0.23581 0.19918 0.20033 0.0
C39 C 0.2123 0.14069 0.2036 0.0
C40 C 0.21098 0.20213 0.17065 0.0
C41 C 0.23784 0.16896 0.21533 0.0
C42 C 0.18528 0.14333 0.17522 0.0
C43 C 0.18483 0.17428 0.15762 0.0
O44 O 0.30272 0.21786 0.20728 0.0
O45 O 0.29242 0.24626 0.27911 0.0
O46 O 0.33236 0.30823 0.2667 0.0
O47 O 0.31017 0.29865 0.20305 0.0
O48 O 0.32531 0.24397 0.24798 0.0
O49 O 0.29837 0.25775 0.162 0.0
O50 O 0.26628 0.32413 0.29887 0.0
O51 O 0.25646 0.27967 0.23303 0.0
O52 O 0.2372 0.21428 0.25006 0.0
O53 O 0.23806 0.24691 0.29407 0.0
O54 O 0.27664 0.32662 0.24413 0.0
O55 O 0.25906 0.28028 0.34048 0.0
C56 C 0.32075 0.24186 0.28357 0.0
C57 C 0.30136 0.21157 0.14174 0.0
C58 C 0.3205 0.17879 0.11077 0.0
C59 C 0.32555 0.19837 0.13981 0.0
C60 C 0.28995 0.17153 0.08478 0.0
C61 C 0.27143 0.20445 0.11507 0.0
C62 C 0.26556 0.18408 0.08722 0.0
C63 C 0.33463 0.31433 0.22874 0.0
C64 C 0.30834 0.23277 0.17172 0.0
C65 C 0.16036 0.17816 0.12578 0.0
C66 C 0.16351 0.20936 0.10514 0.0
C67 C 0.25664 0.30871 0.21848 0.0
C68 C 0.26235 0.32723 0.36391 0.0
C69 C 0.23703 0.33644 0.37188 0.0
C70 C 0.24363 0.35524 0.40212 0.0
C71 C 0.27612 0.3651 0.42389 0.0
C72 C 0.2944 0.33687 0.38638 0.0
C73 C 0.30131 0.35595 0.41596 0.0
C74 C 0.22474 0.21972 0.2784 0.0
C75 C 0.25474 0.30811 0.33164 0.0
H76 H 0.34845 0.20369 0.16085 0.0
H77 H 0.28523 0.15706 0.06163 0.0
H78 H 0.25282 0.21491 0.11522 0.0
H79 H 0.24234 0.17864 0.06679 0.0
H80 H 0.21228 0.3291 0.35435 0.0
H81 H 0.28186 0.37923 0.44768 0.0
H82 H 0.31403 0.32961 0.38138 0.0
H83 H 0.32617 0.36337 0.43308 0.0
Tb84 Tb 0.79939 0.2429 0.25465 0.0
C85 C 0.72806 0.31513 0.30463 0.0
C86 C 0.68209 0.2709 0.33386 0.0
C87 C 0.7066 0.32236 0.35987 0.0
C88 C 0.7057 0.28337 0.30654 0.0
C89 C 0.72783 0.33548 0.33013 0.0
C90 C 0.68376 0.29001 0.36179 0.0
C91 C 0.76612 0.38092 0.29169 0.0
N92 N 0.74805 0.32682 0.27537 0.0
C93 C 0.7656 0.35971 0.26726 0.0
C94 C 0.7476 0.36866 0.32367 0.0
Tb95 Tb 0.74735 0.28902 0.23956 0.0
N96 N 0.70443 0.26614 0.2784 0.0
C97 C 0.67693 0.23848 0.27227 0.0
C98 C 0.65615 0.24064 0.33046 0.0
C99 C 0.65291 0.22489 0.2987 0.0
H100 H 0.77955 0.36984 0.2423 0.0
H101 H 0.63202 0.20221 0.29459 0.0
H102 H 0.66631 0.28063 0.38357 0.0
H103 H 0.78074 0.40676 0.28575 0.0
H104 H 0.67384 0.22585 0.24804 0.0
H105 H 0.89497 0.24852 0.38321 0.0
H106 H 0.63741 0.23021 0.35073 0.0
H107 H 0.80663 0.25374 0.15595 0.0
H108 H 0.8371 0.23451 0.34866 0.0
H109 H 0.85191 0.27471 0.11571 0.0
H110 H 0.70656 0.33743 0.38032 0.0
H111 H 0.94367 0.27421 0.3454 0.0
H112 H 0.96509 0.29235 0.27988 0.0
H113 H 0.74779 0.38521 0.34232 0.0
H114 H 0.95326 0.298 0.20755 0.0
N115 N 0.85216 0.25354 0.29096 0.0
C116 C 0.85783 0.24593 0.33137 0.0
C117 C 0.91815 0.26839 0.32987 0.0
C118 C 0.91231 0.2741 0.2886 0.0
C119 C 0.89076 0.25385 0.3513 0.0
C120 C 0.87861 0.2663 0.26966 0.0
H121 H 0.91152 0.29299 0.14631 0.0
N122 N 0.83906 0.2609 0.21144 0.0
C123 C 0.85791 0.2735 0.14749 0.0
C124 C 0.87188 0.27003 0.22875 0.0
C125 C 0.83196 0.26152 0.17118 0.0
C126 C 0.89149 0.28387 0.16483 0.0
C127 C 0.89886 0.28151 0.2059 0.0
O128 O 0.76341 0.19536 0.25235 0.0
O129 O 0.75299 0.24375 0.26728 0.0
O130 O 0.78418 0.30562 0.2915 0.0
O131 O 0.82467 0.28336 0.28999 0.0
O132 O 0.78275 0.22947 0.31367 0.0
O133 O 0.81578 0.2035 0.25894 0.0
O134 O 0.74361 0.30966 0.17956 0.0
O135 O 0.78906 0.28372 0.21874 0.0
O136 O 0.76791 0.23819 0.19703 0.0
O137 O 0.72207 0.24254 0.21522 0.0
O138 O 0.79345 0.32982 0.2232 0.0
O139 O 0.70306 0.29824 0.2131 0.0
C140 C 0.75354 0.23225 0.30367 0.0
C141 C 0.78154 0.15965 0.30102 0.0
C142 C 0.80548 0.1473 0.36905 0.0
C143 C 0.80881 0.16462 0.33092 0.0
C144 C 0.77341 0.12561 0.37801 0.0
C145 C 0.74962 0.13732 0.30985 0.0
C146 C 0.74553 0.1208 0.34839 0.0
C147 C 0.81445 0.30334 0.30314 0.0
C148 C 0.78576 0.18188 0.26325 0.0
C149 C 0.93234 0.28948 0.22467 0.0
C150 C 0.93909 0.28621 0.26586 0.0
C151 C 0.80915 0.3133 0.21484 0.0
C152 C 0.68877 0.28643 0.14771 0.0
C153 C 0.69403 0.29814 0.10848 0.0
C154 C 0.66868 0.28592 0.07756 0.0
C155 C 0.64134 0.25672 0.08706 0.0
C156 C 0.66119 0.25778 0.1567 0.0
C157 C 0.63844 0.24224 0.12635 0.0
C158 C 0.73519 0.23253 0.19163 0.0
C159 C 0.71206 0.30535 0.17812 0.0
H160 H 0.83314 0.18247 0.32449 0.0
H161 H 0.77003 0.11179 0.40726 0.0
H162 H 0.72776 0.1335 0.28734 0.0
H163 H 0.72076 0.10411 0.35524 0.0
H164 H 0.71712 0.31845 0.10265 0.0
H165 H 0.62103 0.24572 0.06493 0.0
H166 H 0.65693 0.24758 0.18685 0.0
H167 H 0.61731 0.22001 0.13337 0.0
Tb168 Tb 0.75134 0.75506 0.29044 0.0
C169 C 0.85413 0.83561 0.17437 0.0
C170 C 0.82659 0.85847 0.11482 0.0
C171 C 0.88666 0.88559 0.13545 0.0
C172 C 0.82541 0.83452 0.14846 0.0
C173 C 0.88524 0.86108 0.16838 0.0
C174 C 0.85735 0.88426 0.10865 0.0
C175 C 0.91105 0.83541 0.22702 0.0
N176 N 0.85147 0.81123 0.20537 0.0
C177 C 0.8796 0.81048 0.23138 0.0
C178 C 0.9139 0.86087 0.19539 0.0
Tb179 Tb 0.79906 0.77087 0.20962 0.0
N180 N 0.79659 0.80886 0.15519 0.0
C181 C 0.76854 0.80436 0.1277 0.0
C182 C 0.79709 0.85514 0.08792 0.0
C183 C 0.76798 0.82768 0.0942 0.0
H184 H 0.87774 0.79122 0.25626 0.0
H185 H 0.74538 0.82404 0.07282 0.0
H186 H 0.85885 0.90295 0.083 0.0
H187 H 0.93307 0.83497 0.24806 0.0
H188 H 0.74712 0.78198 0.13072 0.0
H189 H 0.80521 0.69234 0.41878 0.0
H190 H 0.79684 0.87296 0.06163 0.0
H191 H 0.6709 0.73899 0.2459 0.0
H192 H 0.80451 0.73771 0.3646 0.0
H193 H 0.61529 0.69673 0.25466 0.0
H194 H 0.91032 0.9054 0.1302 0.0
H195 H 0.75236 0.64476 0.42863 0.0
H196 H 0.68971 0.61803 0.40838 0.0
H197 H 0.93832 0.88005 0.19195 0.0
H198 H 0.6379 0.61975 0.36442 0.0
N199 N 0.75365 0.71407 0.34102 0.0
C200 C 0.78225 0.71591 0.36707 0.0
C201 C 0.75242 0.66404 0.40397 0.0
C202 C 0.72265 0.66322 0.37854 0.0
C203 C 0.78232 0.69074 0.39844 0.0
C204 C 0.72413 0.68899 0.347 0.0
H205 H 0.60988 0.64912 0.30722 0.0
N206 N 0.69778 0.71614 0.29348 0.0
C207 C 0.63754 0.69462 0.27405 0.0
C208 C 0.69507 0.69012 0.3226 0.0
C209 C 0.66935 0.71883 0.26948 0.0
C210 C 0.63459 0.66773 0.30367 0.0
C211 C 0.66353 0.66528 0.32853 0.0
O212 O 0.74101 0.79498 0.3007 0.0
O213 O 0.75836 0.77913 0.22953 0.0
O214 O 0.81846 0.81339 0.24059 0.0
O215 O 0.80539 0.78357 0.30151 0.0
O216 O 0.72176 0.78376 0.25317 0.0
O217 O 0.75864 0.76512 0.34872 0.0
O218 O 0.82458 0.74284 0.19776 0.0
O219 O 0.79211 0.74707 0.27063 0.0
O220 O 0.72838 0.71302 0.25796 0.0
O221 O 0.74522 0.74202 0.19791 0.0
O222 O 0.82832 0.74204 0.2471 0.0
O223 O 0.77994 0.74629 0.15982 0.0
C224 C 0.73596 0.79307 0.22155 0.0
C225 C 0.71947 0.78621 0.36025 0.0
C226 C 0.69156 0.81184 0.39045 0.0
C227 C 0.71879 0.81417 0.37196 0.0
C228 C 0.66545 0.78136 0.39729 0.0
C229 C 0.69307 0.75619 0.36765 0.0
C230 C 0.66625 0.75381 0.38592 0.0
C231 C 0.82184 0.81091 0.27949 0.0
C232 C 0.74665 0.78847 0.33875 0.0
C233 C 0.6619 0.6391 0.35935 0.0
C234 C 0.6914 0.63808 0.38432 0.0
C235 C 0.81407 0.73279 0.27843 0.0
C236 C 0.82032 0.7364 0.13156 0.0
C237 C 0.83199 0.7113 0.13053 0.0
C238 C 0.84792 0.71212 0.09858 0.0
C239 C 0.85172 0.73854 0.06755 0.0
C240 C 0.82456 0.76248 0.10036 0.0
C241 C 0.84007 0.7634 0.06849 0.0
C242 C 0.72672 0.7154 0.21933 0.0
C243 C 0.8042 0.73475 0.16576 0.0
H244 H 0.73883 0.8376 0.36599 0.0
H245 H 0.6444 0.77875 0.41179 0.0
H246 H 0.69313 0.73445 0.35945 0.0
H247 H 0.646 0.7305 0.39134 0.0
H248 H 0.82843 0.69107 0.15459 0.0
H249 H 0.86437 0.74046 0.04284 0.0
H250 H 0.81599 0.78213 0.10057 0.0
H251 H 0.84335 0.78364 0.04452 0.0
Tb252 Tb 0.3032 0.7386 0.26169 0.0
C253 C 0.24986 0.83331 0.16632 0.0
C254 C 0.30196 0.87914 0.1577 0.0
C255 C 0.25524 0.87012 0.10412 0.0
C256 C 0.28263 0.85053 0.18046 0.0
C257 C 0.23515 0.84362 0.12866 0.0
C258 C 0.2886 0.88806 0.11877 0.0
C259 C 0.18069 0.80597 0.14621 0.0
N260 N 0.23113 0.80913 0.19185 0.0
C261 C 0.1965 0.79749 0.18371 0.0
C262 C 0.20026 0.82852 0.11811 0.0
Tb263 Tb 0.25997 0.79285 0.25004 0.0
N264 N 0.29392 0.84144 0.21848 0.0
C265 C 0.32312 0.86179 0.23681 0.0
C266 C 0.33308 0.89884 0.17557 0.0
C267 C 0.34326 0.89056 0.21564 0.0
H268 H 0.18133 0.78037 0.20557 0.0
H269 H 0.36675 0.90612 0.23019 0.0
H270 H 0.30316 0.90969 0.1005 0.0
H271 H 0.15347 0.79532 0.13912 0.0
H272 H 0.3313 0.85589 0.26761 0.0
H273 H 0.22347 0.61659 0.22779 0.0
H274 H 0.34872 0.92111 0.15924 0.0
H275 H 0.35455 0.75473 0.34893 0.0
H276 H 0.26255 0.67274 0.21318 0.0
H277 H 0.35118 0.73426 0.41858 0.0
H278 H 0.24464 0.87815 0.07475 0.0
H279 H 0.21186 0.59293 0.29623 0.0
H280 H 0.22441 0.59917 0.36809 0.0
H281 H 0.18795 0.83551 0.0893 0.0
H282 H 0.25899 0.63172 0.42032 0.0
N283 N 0.26987 0.68345 0.2721 0.0
C284 C 0.25674 0.66367 0.24313 0.0
C285 C 0.22828 0.61818 0.28987 0.0
C286 C 0.24468 0.63706 0.3201 0.0
C287 C 0.23483 0.63139 0.25126 0.0
C288 C 0.26615 0.66974 0.31017 0.0
H289 H 0.30642 0.68212 0.43954 0.0
N290 N 0.30813 0.71801 0.32842 0.0
C291 C 0.33204 0.72121 0.39672 0.0
C292 C 0.28581 0.68778 0.33939 0.0
C293 C 0.33302 0.73339 0.35655 0.0
C294 C 0.30692 0.69174 0.40839 0.0
C295 C 0.28428 0.67396 0.37958 0.0
O296 O 0.35446 0.74343 0.277 0.0
O297 O 0.30474 0.78768 0.23813 0.0
O298 O 0.23755 0.76498 0.20025 0.0
O299 O 0.25826 0.72256 0.21764 0.0
O300 O 0.31201 0.76287 0.20106 0.0
O301 O 0.32233 0.71584 0.23009 0.0
O302 O 0.21888 0.79339 0.27307 0.0
O303 O 0.26536 0.74816 0.28398 0.0
O304 O 0.33484 0.78162 0.29203 0.0
O305 O 0.2946 0.79839 0.30529 0.0
O306 O 0.2172 0.74803 0.26323 0.0
O307 O 0.26836 0.82995 0.28272 0.0
C308 C 0.3135 0.79139 0.20433 0.0
C309 C 0.38103 0.72014 0.24246 0.0
C310 C 0.40328 0.69041 0.21129 0.0
C311 C 0.37568 0.69436 0.22207 0.0
C312 C 0.43621 0.71233 0.22127 0.0
C313 C 0.41403 0.74164 0.25244 0.0
C314 C 0.44148 0.73769 0.24185 0.0
C315 C 0.23726 0.73632 0.19581 0.0
C316 C 0.35233 0.72693 0.24955 0.0
C317 C 0.26102 0.64244 0.38965 0.0
C318 C 0.24131 0.62395 0.35992 0.0
C319 C 0.23411 0.73045 0.28341 0.0
C320 C 0.22215 0.84585 0.27557 0.0
C321 C 0.20336 0.84866 0.30159 0.0
C322 C 0.18742 0.87161 0.29126 0.0
C323 C 0.19085 0.89196 0.25443 0.0
C324 C 0.22626 0.86669 0.23941 0.0
C325 C 0.21047 0.88961 0.22882 0.0
C326 C 0.32572 0.79869 0.31164 0.0
C327 C 0.2367 0.82059 0.28665 0.0
H328 H 0.35017 0.67795 0.21371 0.0
H329 H 0.45793 0.70966 0.21339 0.0
H330 H 0.41852 0.76203 0.26743 0.0
H331 H 0.46689 0.75452 0.24929 0.0
H332 H 0.20149 0.83306 0.33003 0.0
H333 H 0.17828 0.90953 0.2453 0.0
H334 H 0.24159 0.86536 0.21951 0.0
H335 H 0.21335 0.90546 0.2007 0.0
Tb336 Tb 0.30937 0.73321 0.76641 0.0
C337 C 0.21409 0.77617 0.79802 0.0
C338 C 0.15948 0.73317 0.78904 0.0
C339 C 0.1746 0.76179 0.84558 0.0
C340 C 0.19153 0.7522 0.77695 0.0
C341 C 0.20504 0.78255 0.83129 0.0
C342 C 0.15171 0.7372 0.82427 0.0
C343 C 0.25081 0.83449 0.82616 0.0
N344 N 0.24231 0.79651 0.78204 0.0
C345 C 0.25777 0.82732 0.7925 0.0
C346 C 0.22511 0.81134 0.8467 0.0
Tb347 Tb 0.25553 0.77902 0.73143 0.0
N348 N 0.19966 0.74998 0.74238 0.0
C349 C 0.17467 0.73216 0.71614 0.0
C350 C 0.13556 0.71194 0.76434 0.0
C351 C 0.14292 0.71207 0.72726 0.0
H352 H 0.27663 0.84613 0.77592 0.0
H353 H 0.12401 0.69699 0.70697 0.0
H354 H 0.1273 0.72268 0.83404 0.0
H355 H 0.26482 0.85808 0.83569 0.0
H356 H 0.17882 0.73297 0.68639 0.0
H357 H 0.38011 0.73456 0.91266 0.0
H358 H 0.11083 0.69663 0.77276 0.0
H359 H 0.33383 0.7404 0.67954 0.0
H360 H 0.32915 0.72334 0.86476 0.0
H361 H 0.38715 0.76043 0.651 0.0
H362 H 0.1675 0.76593 0.87148 0.0
H363 H 0.43679 0.75612 0.89018 0.0
H364 H 0.47137 0.77541 0.83405 0.0
H365 H 0.21914 0.81716 0.87224 0.0
H366 H 0.47333 0.78453 0.76237 0.0
N367 N 0.35572 0.74124 0.8143 0.0
C368 C 0.35331 0.73321 0.85395 0.0
C369 C 0.41423 0.75169 0.86875 0.0
C370 C 0.41663 0.75873 0.82834 0.0
C371 C 0.38243 0.73905 0.88157 0.0
C372 C 0.38657 0.75307 0.80157 0.0
H373 H 0.44201 0.77936 0.69366 0.0
N374 N 0.3578 0.75066 0.73727 0.0
C375 C 0.38772 0.76039 0.68213 0.0
C376 C 0.3876 0.75836 0.76153 0.0
C377 C 0.35747 0.74934 0.69845 0.0
C378 C 0.4186 0.77107 0.70626 0.0
C379 C 0.41883 0.76911 0.74678 0.0
O380 O 0.30218 0.68586 0.79775 0.0
O381 O 0.26004 0.73514 0.7659 0.0
O382 O 0.29703 0.80259 0.77703 0.0
O383 O 0.33674 0.77718 0.79366 0.0
O384 O 0.28113 0.71748 0.81754 0.0
O385 O 0.30554 0.697 0.73524 0.0
O386 O 0.27306 0.82922 0.70966 0.0
O387 O 0.30462 0.77705 0.7298 0.0
O388 O 0.27989 0.71865 0.71001 0.0
O389 O 0.23364 0.73422 0.70332 0.0
O390 O 0.27667 0.78448 0.6771 0.0
O391 O 0.22387 0.79733 0.68731 0.0
C392 C 0.25441 0.72342 0.80105 0.0
C393 C 0.3308 0.66143 0.77023 0.0
C394 C 0.38815 0.66498 0.79686 0.0
C395 C 0.35939 0.67169 0.7974 0.0
C396 C 0.38795 0.647 0.76832 0.0
C397 C 0.33037 0.64338 0.74179 0.0
C398 C 0.35893 0.63606 0.74101 0.0
C399 C 0.32594 0.8002 0.79662 0.0
C400 C 0.305 0.67555 0.76669 0.0
C401 C 0.44907 0.77604 0.77313 0.0
C402 C 0.44796 0.77078 0.81392 0.0
C403 C 0.30612 0.78438 0.69308 0.0
C404 C 0.2561 0.83728 0.64082 0.0
C405 C 0.23 0.83014 0.60958 0.0
C406 C 0.2369 0.83852 0.57043 0.0
C407 C 0.27064 0.85254 0.56269 0.0
C408 C 0.28974 0.85293 0.63264 0.0
C409 C 0.29697 0.85968 0.59381 0.0
C410 C 0.2481 0.71517 0.6961 0.0
C411 C 0.24768 0.82591 0.68157 0.0
H412 H 0.35958 0.68593 0.81868 0.0
H413 H 0.40974 0.64091 0.76757 0.0
H414 H 0.30856 0.63606 0.71952 0.0
H415 H 0.35873 0.62229 0.71894 0.0
H416 H 0.20399 0.81992 0.61585 0.0
H417 H 0.27638 0.86002 0.53255 0.0
H418 H 0.31042 0.85958 0.6562 0.0
H419 H 0.32292 0.87143 0.58775 0.0
Tb420 Tb 0.25356 0.24425 0.79292 0.0
C421 C 0.34875 0.33373 0.67502 0.0
C422 C 0.31106 0.34584 0.61783 0.0
C423 C 0.36875 0.38409 0.62953 0.0
C424 C 0.31729 0.32537 0.65273 0.0
C425 C 0.37512 0.36289 0.66336 0.0
C426 C 0.33676 0.37557 0.60677 0.0
C427 C 0.41273 0.34647 0.71726 0.0
N428 N 0.35399 0.31228 0.70698 0.0
C429 C 0.38581 0.31776 0.72744 0.0
C430 C 0.40729 0.36934 0.68535 0.0
Tb431 Tb 0.3083 0.26594 0.72093 0.0
N432 N 0.29337 0.29628 0.66411 0.0
C433 C 0.26328 0.28513 0.64027 0.0
C434 C 0.27957 0.33533 0.5945 0.0
C435 C 0.25573 0.30463 0.60555 0.0
H436 H 0.39068 0.30046 0.75216 0.0
H437 H 0.23156 0.29592 0.58732 0.0
H438 H 0.3324 0.39175 0.5802 0.0
H439 H 0.43765 0.35091 0.73405 0.0
H440 H 0.24459 0.26139 0.64808 0.0
H441 H 0.32489 0.2025 0.92447 0.0
H442 H 0.27375 0.35033 0.56746 0.0
H443 H 0.16864 0.21671 0.76322 0.0
H444 H 0.31471 0.24223 0.86806 0.0
H445 H 0.12033 0.16671 0.77682 0.0
H446 H 0.3886 0.40673 0.62018 0.0
H447 H 0.28104 0.14765 0.93682 0.0
H448 H 0.22196 0.10913 0.91911 0.0
H449 H 0.42823 0.3915 0.67739 0.0
H450 H 0.16619 0.09949 0.87894 0.0
N451 N 0.26612 0.20973 0.84659 0.0
C452 C 0.29543 0.21829 0.87241 0.0
C453 C 0.27649 0.16493 0.91159 0.0
C454 C 0.24551 0.15723 0.88692 0.0
C455 C 0.30128 0.19587 0.90477 0.0
C456 C 0.24082 0.18063 0.85456 0.0
H457 H 0.12795 0.121 0.8264 0.0
N458 N 0.20505 0.19954 0.80317 0.0
C459 C 0.14526 0.16868 0.79232 0.0
C460 C 0.20924 0.17539 0.83228 0.0
C461 C 0.17315 0.19709 0.7844 0.0
C462 C 0.14968 0.14294 0.82031 0.0
C463 C 0.18177 0.14633 0.84129 0.0
O464 O 0.23913 0.28342 0.79743 0.0
O465 O 0.26804 0.27695 0.73809 0.0
O466 O 0.32421 0.3082 0.75209 0.0
O467 O 0.30426 0.2781 0.81022 0.0
O468 O 0.21795 0.25637 0.74364 0.0
O469 O 0.24761 0.25088 0.84868 0.0
O470 O 0.34462 0.24714 0.71479 0.0
O471 O 0.29336 0.23244 0.77528 0.0
O472 O 0.23148 0.20372 0.75909 0.0
O473 O 0.26083 0.22668 0.70452 0.0
O474 O 0.34355 0.25393 0.77062 0.0
O475 O 0.29962 0.24088 0.67284 0.0
C476 C 0.23871 0.2767 0.7202 0.0
C477 C 0.20768 0.27488 0.84928 0.0
C478 C 0.17827 0.30223 0.87468 0.0
C479 C 0.20754 0.3028 0.86171 0.0
C480 C 0.14893 0.27381 0.87283 0.0
C481 C 0.17892 0.24631 0.8511 0.0
C482 C 0.14952 0.24603 0.8618 0.0
C483 C 0.32201 0.3057 0.78997 0.0
C484 C 0.23793 0.27552 0.83506 0.0
C485 C 0.18691 0.1221 0.87186 0.0
C486 C 0.21869 0.12757 0.89469 0.0
C487 C 0.32267 0.23253 0.79292 0.0
C488 C 0.34736 0.2392 0.6509 0.0
C489 C 0.35007 0.21143 0.64129 0.0
C490 C 0.3708 0.21437 0.61299 0.0
C491 C 0.38802 0.24599 0.59398 0.0
C492 C 0.36429 0.27012 0.63101 0.0
C493 C 0.38437 0.27341 0.60258 0.0
C494 C 0.23693 0.20335 0.72342 0.0
C495 C 0.32773 0.2352 0.68282 0.0
H496 H 0.23035 0.3244 0.86213 0.0
H497 H 0.12535 0.27273 0.88031 0.0
H498 H 0.17916 0.22404 0.84472 0.0
H499 H 0.12713 0.22405 0.86192 0.0
H500 H 0.33597 0.18763 0.65619 0.0
H501 H 0.40505 0.24995 0.57303 0.0
H502 H 0.36235 0.29171 0.63774 0.0
H503 H 0.39774 0.29745 0.58763 0.0
Tb504 Tb 0.80292 0.22871 0.77411 0.0
C505 C 0.72192 0.29944 0.65696 0.0
C506 C 0.76109 0.34752 0.62326 0.0
C507 C 0.70716 0.31742 0.58758 0.0
C508 C 0.75282 0.32432 0.65723 0.0
C509 C 0.69833 0.29577 0.62248 0.0
C510 C 0.73854 0.34335 0.58798 0.0
C511 C 0.65876 0.25118 0.66054 0.0
N512 N 0.71476 0.27921 0.69135 0.0
C513 C 0.68316 0.25588 0.694 0.0
C514 C 0.66653 0.27089 0.62445 0.0
Tb515 Tb 0.75784 0.28554 0.74317 0.0
N516 N 0.77341 0.32741 0.69204 0.0
C517 C 0.80057 0.35563 0.69615 0.0
C518 C 0.79088 0.37488 0.6264 0.0
C519 C 0.8103 0.37934 0.66329 0.0
H520 H 0.67712 0.23981 0.72133 0.0
H521 H 0.83266 0.40106 0.66652 0.0
H522 H 0.74463 0.36059 0.56128 0.0
H523 H 0.63416 0.23203 0.66252 0.0
H524 H 0.81526 0.35978 0.72467 0.0
H525 H 0.72463 0.11806 0.85667 0.0
H526 H 0.79821 0.39338 0.60103 0.0
H527 H 0.88664 0.26129 0.78905 0.0
H528 H 0.74205 0.157 0.79685 0.0
H529 H 0.93196 0.26778 0.84576 0.0
H530 H 0.6896 0.31488 0.5605 0.0
H531 H 0.76078 0.12656 0.92109 0.0
H532 H 0.81677 0.15786 0.95819 0.0
H533 H 0.64767 0.26706 0.59855 0.0
H534 H 0.87439 0.19903 0.95512 0.0
N535 N 0.78625 0.18886 0.82722 0.0
C536 C 0.75774 0.16144 0.82481 0.0
C537 C 0.76828 0.14398 0.89492 0.0
C538 C 0.79929 0.17009 0.89633 0.0
C539 C 0.74792 0.13903 0.85864 0.0
C540 C 0.80777 0.19185 0.86133 0.0
H541 H 0.91817 0.23986 0.91273 0.0
N542 N 0.84727 0.232 0.82389 0.0
C543 C 0.90606 0.25287 0.85019 0.0
C544 C 0.83989 0.21425 0.85957 0.0
C545 C 0.88024 0.24929 0.81811 0.0
C546 C 0.89816 0.23716 0.88795 0.0
C547 C 0.86482 0.21662 0.89276 0.0
O548 O 0.83126 0.22329 0.73573 0.0
O549 O 0.80034 0.27383 0.73993 0.0
O550 O 0.74631 0.2533 0.69758 0.0
O551 O 0.75381 0.20821 0.73889 0.0
O552 O 0.84085 0.26356 0.73614 0.0
O553 O 0.79022 0.18219 0.75887 0.0
O554 O 0.72213 0.29042 0.77153 0.0
O555 O 0.76032 0.24073 0.77825 0.0
O556 O 0.82233 0.26384 0.81664 0.0
O557 O 0.80666 0.30737 0.78083 0.0
O558 O 0.71905 0.25093 0.7791 0.0
O559 O 0.77128 0.32857 0.76726 0.0
C560 C 0.82631 0.28445 0.72225 0.0
C561 C 0.83716 0.17321 0.74809 0.0
C562 C 0.86488 0.14449 0.72435 0.0
C563 C 0.83967 0.15791 0.71883 0.0
C564 C 0.88779 0.1473 0.75977 0.0
C565 C 0.85816 0.17346 0.78426 0.0
C566 C 0.88378 0.16093 0.78986 0.0
C567 C 0.74278 0.22192 0.70433 0.0
C568 C 0.81529 0.19199 0.7386 0.0
C569 C 0.85581 0.19725 0.92893 0.0
C570 C 0.82299 0.17389 0.9307 0.0
C571 C 0.73322 0.23005 0.79396 0.0
C572 C 0.72497 0.34367 0.7654 0.0
C573 C 0.71785 0.35658 0.79409 0.0
C574 C 0.6994 0.37738 0.78274 0.0
C575 C 0.68855 0.38544 0.74245 0.0
C576 C 0.71412 0.35174 0.72533 0.0
C577 C 0.69604 0.37269 0.71388 0.0
C578 C 0.82417 0.29466 0.81134 0.0
C579 C 0.74142 0.31991 0.77782 0.0
H580 H 0.82193 0.15677 0.69191 0.0
H581 H 0.90891 0.13906 0.7646 0.0
H582 H 0.85538 0.18393 0.80772 0.0
H583 H 0.90084 0.16222 0.8173 0.0
H584 H 0.72564 0.34964 0.82515 0.0
H585 H 0.67433 0.40162 0.7331 0.0
H586 H 0.71909 0.34148 0.70304 0.0
H587 H 0.68754 0.37878 0.68293 0.0
Tb588 Tb 0.77861 0.73699 0.71212 0.0
C589 C 0.85574 0.8108 0.84982 0.0
C590 C 0.86008 0.76925 0.90521 0.0
C591 C 0.90248 0.82405 0.90292 0.0
C592 C 0.84363 0.77898 0.86832 0.0
C593 C 0.88505 0.83391 0.86708 0.0
C594 C 0.88997 0.79177 0.92201 0.0
C595 C 0.8758 0.87527 0.81421 0.0
N596 N 0.83766 0.81946 0.81586 0.0
C597 C 0.84661 0.85152 0.79859 0.0
C598 C 0.89529 0.86638 0.84844 0.0
Tb599 Tb 0.78965 0.77902 0.79343 0.0
N600 N 0.81417 0.75831 0.85171 0.0
C601 C 0.79859 0.72812 0.8719 0.0
C602 C 0.84517 0.73768 0.9249 0.0
C603 C 0.81402 0.7172 0.90841 0.0
H604 H 0.83175 0.8588 0.7722 0.0
H605 H 0.80179 0.69301 0.92382 0.0
H606 H 0.90307 0.78471 0.95024 0.0
H607 H 0.88315 0.90042 0.79992 0.0
H608 H 0.77432 0.71204 0.86003 0.0
H609 H 0.73611 0.8115 0.58655 0.0
H610 H 0.85688 0.72929 0.95339 0.0
H611 H 0.75828 0.65688 0.72956 0.0
H612 H 0.77534 0.7998 0.64433 0.0
H613 H 0.71187 0.60817 0.70757 0.0
H614 H 0.92512 0.84139 0.91665 0.0
H615 H 0.68223 0.76777 0.56727 0.0
H616 H 0.64533 0.70822 0.57724 0.0
H617 H 0.91771 0.88488 0.86072 0.0
H618 H 0.63865 0.6523 0.61049 0.0
N619 N 0.74312 0.75045 0.65923 0.0
C620 C 0.75161 0.78065 0.63669 0.0
C621 C 0.6991 0.76263 0.59308 0.0
C622 C 0.69174 0.73115 0.61454 0.0
C623 C 0.72955 0.78734 0.60374 0.0
C624 C 0.71468 0.72578 0.6477 0.0
H625 H 0.6639 0.61457 0.65856 0.0
N626 N 0.73601 0.69044 0.69472 0.0
C627 C 0.71116 0.63229 0.69589 0.0
C628 C 0.71106 0.69445 0.66602 0.0
C629 C 0.73744 0.65995 0.70823 0.0
C630 C 0.68405 0.636 0.66838 0.0
C631 C 0.68423 0.66742 0.65226 0.0
O632 O 0.80825 0.71271 0.70077 0.0
O633 O 0.80082 0.74235 0.77315 0.0
O634 O 0.83758 0.79617 0.76975 0.0
O635 O 0.81516 0.78723 0.70549 0.0
O636 O 0.80609 0.70702 0.75076 0.0
O637 O 0.80192 0.75361 0.66001 0.0
O638 O 0.77137 0.81463 0.8008 0.0
O639 O 0.76116 0.76993 0.73451 0.0
O640 O 0.73543 0.70669 0.74371 0.0
O641 O 0.74744 0.73217 0.79975 0.0
O642 O 0.78109 0.81669 0.74606 0.0
O643 O 0.75687 0.76714 0.83596 0.0
C644 C 0.81475 0.72054 0.78193 0.0
C645 C 0.80591 0.71055 0.63377 0.0
C646 C 0.82214 0.67807 0.59875 0.0
C647 C 0.82971 0.69802 0.62819 0.0
C648 C 0.79023 0.67043 0.57556 0.0
C649 C 0.77458 0.70304 0.60959 0.0
C650 C 0.76667 0.68282 0.58105 0.0
C651 C 0.84 0.80223 0.73161 0.0
C652 C 0.81335 0.72981 0.66617 0.0
C653 C 0.6597 0.67272 0.62128 0.0
C654 C 0.66349 0.70457 0.60238 0.0
C655 C 0.76151 0.799 0.72014 0.0
C656 C 0.75854 0.81122 0.86467 0.0
C657 C 0.73807 0.82921 0.8649 0.0
C658 C 0.7398 0.84229 0.89892 0.0
C659 C 0.76264 0.83755 0.9324 0.0
C660 C 0.78126 0.80702 0.89841 0.0
C661 C 0.7833 0.8202 0.93199 0.0
C662 C 0.72909 0.70852 0.77849 0.0
C663 C 0.75492 0.79606 0.82962 0.0
H664 H 0.85391 0.70361 0.64692 0.0
H665 H 0.78375 0.65561 0.55232 0.0
H666 H 0.7562 0.71288 0.61249 0.0
H667 H 0.74231 0.67706 0.56275 0.0
H668 H 0.72034 0.83238 0.839 0.0
H669 H 0.76482 0.84763 0.95882 0.0
H670 H 0.79714 0.79324 0.89906 0.0
H671 H 0.80085 0.81682 0.95792 0.0
Co672 Co 0.04145 0.95226 0.47554 0.0
Co673 Co 0.06786 0.97223 0.54499 0.0
Co674 Co 1.02373 1.01034 0.50128 0.0
O675 O 0.05557 0.99152 0.49553 0.0
H676 H 0.07565 1.00773 0.48538 0.0
O677 O 0.99301 0.03098 0.5053 0.0
Co678 Co 0.98729 0.04262 0.55201 0.0
Co679 Co 1.01939 0.07314 0.49913 0.0
H680 H 0.97322 0.02639 0.4856 0.0
O681 O 0.10687 0.96439 0.55546 0.0
O682 O 0.05529 0.93251 0.52902 0.0
O683 O 0.04488 0.96849 0.58817 0.0
O684 O 1.00207 0.97585 0.54553 0.0
O685 O 0.06033 0.03515 0.54015 0.0
O686 O 0.97763 0.05165 0.59318 0.0
O687 O 0.94393 0.03891 0.53604 0.0
O688 O 0.03153 0.04885 0.57466 0.0
O689 O 0.04317 0.04388 0.45618 0.0
O690 O 0.06477 0.08809 0.48478 0.0
O691 O 1.00403 0.09057 0.52992 0.0
O692 O 0.99744 0.0931 0.46294 0.0
C693 C 0.06386 0.93259 0.44751 0.0
C694 C 0.9798 0.95457 0.46409 0.0
C695 C 1.01417 0.96593 0.58017 0.0
C696 C 0.08689 0.93748 0.54212 0.0
C697 C 0.9484 0.04626 0.57139 0.0
C698 C 0.05887 0.04752 0.56896 0.0
C699 C 0.06474 0.07256 0.45836 0.0
C700 C 0.99496 0.10311 0.49411 0.0
O701 O 0.03298 0.91643 0.45543 0.0
O702 O 0.08111 0.96072 0.45939 0.0
O703 O 0.98888 0.98528 0.46198 0.0
O704 O 0.99732 0.93975 0.48797 0.0
Co705 Co 0.5687 0.95856 0.99246 0.0
Co706 Co 0.57144 0.96436 0.06279 0.0
Co707 Co 0.52975 0.01268 0.00361 0.0
O708 O 0.56866 0.99435 0.01695 0.0
H709 H 0.59021 0.01219 0.01616 0.0
O710 O 0.49021 0.03022 0.98999 0.0
Co711 Co 0.49565 0.07042 0.00749 0.0
Co712 Co 0.48556 0.0558 0.94099 0.0
H713 H 0.46885 0.01311 0.99507 0.0
O714 O 0.61193 0.95976 0.09223 0.0
O715 O 0.57767 0.92995 0.0457 0.0
O716 O 0.53119 0.94971 0.08689 0.0
O717 O 0.50344 0.98129 0.0484 0.0
O718 O 0.55642 0.04757 0.03843 0.0
O719 O 0.49917 0.10454 0.02674 0.0
O720 O 0.45323 0.05878 0.02103 0.0
O721 O 0.54142 0.08696 0.99853 0.0
O722 O 0.55557 0.04329 0.95869 0.0
O723 O 0.52417 0.0679 0.91362 0.0
O724 O 0.47958 0.09275 0.9523 0.0
O725 O 0.443 0.05562 0.91489 0.0
C726 C 0.60407 0.94925 0.97015 0.0
C727 C 0.49915 0.94996 0.96954 0.0
C728 C 0.50557 0.95848 0.07729 0.0
C729 C 0.60344 0.93451 0.07447 0.0
C730 C 0.46801 0.08759 0.03239 0.0
C731 C 0.56203 0.07806 0.02582 0.0
C732 C 0.55137 0.06201 0.92615 0.0
C733 C 0.45106 0.08307 0.92795 0.0
O734 O 0.57268 0.92951 0.96789 0.0
O735 O 0.61365 0.97484 0.98793 0.0
O736 O 0.50375 0.98009 0.96742 0.0
O737 O 0.52009 0.93738 0.99096 0.0
Co738 Co 0.06879 0.4578 0.99967 0.0
Co739 Co 0.07343 0.46802 0.06937 0.0
Co740 Co 0.032 0.51454 0.00425 0.0
O741 O 0.07122 0.49623 0.02035 0.0
H742 H 0.09288 0.51366 0.0179 0.0
O743 O 0.99225 0.53216 0.98862 0.0
Co744 Co 0.99292 0.56932 0.01032 0.0
Co745 Co 0.98995 0.56116 0.94148 0.0
H746 H 0.97072 0.51436 0.9902 0.0
O747 O 0.11469 0.46245 0.09809 0.0
O748 O 0.07843 0.4318 0.05415 0.0
O749 O 0.031 0.45293 0.09192 0.0
O750 O 1.00432 0.48233 0.04694 0.0
O751 O 0.05703 0.54821 0.04137 0.0
O752 O 0.99099 0.60021 0.03292 0.0
O753 O 0.94838 0.55427 0.01741 0.0
O754 O 0.04023 0.58877 0.00812 0.0
O755 O 0.05958 0.54652 0.96069 0.0
O756 O 0.03107 0.5758 0.91833 0.0
O757 O 0.98219 0.59584 0.95624 0.0
O758 O 0.94865 0.56363 0.91176 0.0
C759 C 0.10126 0.44349 0.97864 0.0
C760 C 1.00161 0.45031 0.97548 0.0
C761 C 1.00493 0.46058 0.07766 0.0
C762 C 0.10549 0.43682 0.08091 0.0
C763 C 0.9597 0.58092 0.03355 0.0
C764 C 0.06057 0.57858 0.03439 0.0
C765 C 0.05733 0.56818 0.93029 0.0
C766 C 0.95578 0.58915 0.9285 0.0
O767 O 0.06943 0.42557 0.97883 0.0
O768 O 0.11326 0.47124 0.99251 0.0
O769 O 1.00692 0.48101 0.96722 0.0
O770 O 1.02139 0.43965 1.00205 0.0
Co771 Co 0.56211 0.48092 0.94693 0.0
Co772 Co 0.548 0.4514 0.01555 0.0
Co773 Co 0.5278 0.51045 0.00308 0.0
O774 O 0.56215 0.4944 0.99605 0.0
H775 H 0.5846 0.50599 0.00837 0.0
O776 O 0.49381 0.52694 0.01111 0.0
Co777 Co 0.49553 0.54438 0.05841 0.0
Co778 Co 0.50878 0.56911 0.99121 0.0
H779 H 0.47115 0.51552 0.99917 0.0
O780 O 0.58114 0.43532 0.03405 0.0
O781 O 0.54919 0.43496 0.97373 0.0
O782 O 0.51049 0.43349 0.04542 0.0
O783 O 0.51948 0.48336 0.05661 0.0
O784 O 0.56559 0.54595 0.02769 0.0
O785 O 0.49241 0.5594 0.09986 0.0
O786 O 0.45191 0.54223 0.04905 0.0
O787 O 0.54136 0.5494 0.07586 0.0
O788 O 0.53654 0.53734 0.94937 0.0
O789 O 0.54755 0.5865 0.96263 0.0
O790 O 0.51107 0.59046 0.0296 0.0
O791 O 0.47642 0.5845 0.97011 0.0
C792 C 0.59734 0.47475 0.92155 0.0
C793 C 0.48924 0.46728 0.94438 0.0
C794 C 0.50681 0.45228 0.06517 0.0
C795 C 0.57162 0.42615 0.99925 0.0
C796 C 0.46165 0.55403 0.0824 0.0
C797 C 0.56747 0.55492 0.06032 0.0
C798 C 0.55186 0.56822 0.94276 0.0
C799 C 0.49425 0.60169 0.99814 0.0
O800 O 0.56644 0.46878 0.9042 0.0
O801 O 0.60654 0.48631 0.95505 0.0
O802 O 0.4897 0.47534 0.97732 0.0
O803 O 0.51629 0.47278 0.93098 0.0
Co804 Co 0.09197 0.46866 0.54641 0.0
Co805 Co 0.07059 0.47802 0.47151 0.0
Co806 Co 1.02877 0.50956 0.50466 0.0
O807 O 0.04809 0.47211 0.51405 0.0
H808 H 1.03012 0.45095 0.51529 0.0
O809 O 1.00846 0.54637 0.49413 0.0
Co810 Co 0.96656 0.55222 0.45704 0.0
Co811 Co 0.98067 0.53914 0.53101 0.0
H812 H 1.02638 0.56741 0.49571 0.0
O813 O 0.06622 0.44213 0.45359 0.0
O814 O 0.10909 0.47069 0.49666 0.0
O815 O 0.08372 0.51857 0.43654 0.0
O816 O 0.06238 0.54269 0.46822 0.0
O817 O 0.9957 0.49057 0.45955 0.0
O818 O 0.93009 0.56111 0.4237 0.0
O819 O 0.97563 0.59817 0.45098 0.0
O820 O 0.94971 0.50478 0.45476 0.0
O821 O 0.99621 0.47635 0.54284 0.0
O822 O 0.9671 0.49958 0.56421 0.0
O823 O 0.94413 0.54797 0.50392 0.0
O824 O 0.98516 0.57347 0.55123 0.0
C825 C 0.11725 0.43244 0.57607 0.0
C826 C 0.09469 0.53271 0.55547 0.0
C827 C 0.08061 0.54394 0.4427 0.0
C828 C 0.09596 0.44755 0.4743 0.0
C829 C 0.94576 0.59148 0.42908 0.0
C830 C 0.96418 0.48617 0.44845 0.0
C831 C 0.9747 0.47521 0.56423 0.0
C832 C 0.95637 0.56955 0.52863 0.0
O833 O 0.13113 0.46388 0.57544 0.0
O834 O 0.08573 0.42196 0.55844 0.0
O835 O 0.06307 0.52913 0.54932 0.0
O836 O 0.10675 0.51538 0.5422 0.0
Co837 Co 0.59565 0.97103 0.55232 0.0
Co838 Co 0.57922 0.98278 0.47872 0.0
Co839 Co 0.53399 0.01395 0.50775 0.0
O840 O 0.55415 0.97717 0.5176 0.0
H841 H 0.53607 0.95612 0.51718 0.0
O842 O 0.51158 0.04925 0.49763 0.0
Co843 Co 0.46784 0.0519 0.46147 0.0
Co844 Co 0.48474 0.04092 0.53698 0.0
H845 H 0.52873 0.07083 0.49799 0.0
O846 O 0.57527 0.94766 0.45969 0.0
O847 O 0.61703 0.97505 0.50458 0.0
O848 O 0.59159 0.02251 0.44448 0.0
O849 O 0.56585 0.04721 0.46929 0.0
O850 O 0.50114 0.99349 0.46323 0.0
O851 O 0.42993 0.05751 0.42945 0.0
O852 O 0.47326 0.09822 0.45311 0.0
O853 O 0.45344 1.00418 0.45991 0.0
O854 O 0.50172 0.9802 0.54526 0.0
O855 O 0.47218 0.99987 0.57145 0.0
O856 O 0.44572 0.046 0.50941 0.0
O857 O 0.48479 0.07509 0.5554 0.0
C858 C 0.6159 0.93164 0.58013 0.0
C859 C 0.60114 0.03916 0.55796 0.0
C860 C 0.58567 0.04756 0.44617 0.0
C861 C 0.60537 0.95366 0.47974 0.0
C862 C 0.443 0.08854 0.43218 0.0
C863 C 0.46916 0.98686 0.45312 0.0
C864 C 0.48027 0.97641 0.5682 0.0
C865 C 0.45507 0.06708 0.53442 0.0
O866 O 0.63253 0.9622 0.58421 0.0
O867 O 0.58564 0.92504 0.55922 0.0
O868 O 0.56923 0.03522 0.55186 0.0
O869 O 0.61242 0.01773 0.55272 0.0
H870 H 0.20233 0.21967 0.34582 0.0
H871 H 0.18378 0.16016 0.25463 0.0
H872 H 0.14139 0.11487 0.29161 0.0
H873 H 0.19698 0.15748 0.42744 0.0
H874 H 0.17626 0.17277 0.45445 0.0
H875 H 0.20422 0.20053 0.42007 0.0
H876 H 0.15637 0.22123 0.38241 0.0
H877 H 0.12836 0.19387 0.41696 0.0
H878 H 0.1162 0.19223 0.36476 0.0
H879 H 0.10216 0.07581 0.34053 0.0
H880 H 0.06715 0.04748 0.39442 0.0
H881 H 0.11247 0.13414 0.45208 0.0
C882 C 0.18929 0.19734 0.33309 0.0
C883 C 0.19681 0.19336 0.29737 0.0
C884 C 0.17895 0.16358 0.28219 0.0
C885 C 0.15476 0.13779 0.30297 0.0
C886 C 0.14876 0.14242 0.33867 0.0
C887 C 0.16535 0.17162 0.3533 0.0
C888 C 0.15472 0.17075 0.39224 0.0
C889 C 0.18484 0.17566 0.4255 0.0
C890 C 0.13791 0.19602 0.38887 0.0
C891 C 0.1294 0.13636 0.39745 0.0
C892 C 0.1263 0.1203 0.36638 0.0
C893 C 0.1043 0.0882 0.36489 0.0
C894 C 0.08458 0.07234 0.39568 0.0
C895 C 0.087 0.08872 0.42737 0.0
C896 C 0.10999 0.121 0.42828 0.0
H897 H 0.86631 0.15465 0.35167 0.0
H898 H 0.81475 0.14572 0.45044 0.0
H899 H 0.86758 0.1482 0.49575 0.0
H900 H 0.90452 0.10545 0.39087 0.0
H901 H 0.94354 0.12685 0.36989 0.0
H902 H 0.90565 0.13299 0.34492 0.0
H903 H 0.93356 0.19545 0.34568 0.0
H904 H 0.97237 0.18968 0.36957 0.0
H905 H 0.95397 0.21076 0.39159 0.0
H906 H 0.92131 0.14105 0.52949 0.0
H907 H 0.96683 0.1181 0.54791 0.0
H908 H 0.98434 0.13972 0.42545 0.0
C909 C 0.8663 0.15528 0.38245 0.0
C910 C 0.83659 0.15084 0.39734 0.0
C911 C 0.83731 0.1492 0.43837 0.0
C912 C 0.86732 0.15131 0.46412 0.0
C913 C 0.89625 0.1561 0.44799 0.0
C914 C 0.89589 0.15848 0.40783 0.0
C915 C 0.9277 0.15759 0.39768 0.0
C916 C 0.91987 0.12903 0.37461 0.0
C917 C 0.94809 0.19034 0.37479 0.0
C918 C 0.94531 0.15217 0.43874 0.0
C919 C 0.9274 0.15213 0.46751 0.0
C920 C 0.93599 0.14178 0.50739 0.0
C921 C 0.96184 0.12887 0.51762 0.0
C922 C 0.97812 0.12654 0.48778 0.0
C923 C 0.9719 0.14103 0.44874 0.0
H924 H 0.85228 0.80571 0.35561 0.0
H925 H 0.85033 0.8753 0.24863 0.0
H926 H 0.89097 0.91994 0.28454 0.0
H927 H 0.85682 0.85397 0.42468 0.0
H928 H 0.88631 0.8403 0.46134 0.0
H929 H 0.85799 0.81388 0.42693 0.0
H930 H 0.90896 0.8083 0.40453 0.0
H931 H 0.93749 0.83446 0.43919 0.0
H932 H 0.94293 0.84457 0.38762 0.0
H933 H 0.92752 0.95705 0.33365 0.0
H934 H 0.96333 0.98385 0.39016 0.0
H935 H 0.94432 0.88917 0.46375 0.0
C936 C 0.86051 0.83031 0.33961 0.0
C937 C 0.84793 0.83725 0.29951 0.0
C938 C 0.85963 0.86961 0.27944 0.0
C939 C 0.88259 0.89505 0.29959 0.0
C940 C 0.89394 0.88742 0.33941 0.0
C941 C 0.88384 0.85575 0.35896 0.0
C942 C 0.90039 0.85388 0.40147 0.0
C943 C 0.87378 0.83968 0.43029 0.0
C944 C 0.92384 0.83414 0.40862 0.0
C945 C 0.92041 0.88971 0.4033 0.0
C946 C 0.91628 0.90862 0.36721 0.0
C947 C 0.93122 0.94251 0.36195 0.0
C948 C 0.95126 0.95749 0.39432 0.0
C949 C 0.95643 0.93853 0.43134 0.0
C950 C 0.9408 0.90421 0.43577 0.0
H951 H 0.18352 0.9274 0.30549 0.0
H952 H 0.14648 0.82197 0.34002 0.0
H953 H 0.11369 0.82717 0.38662 0.0
H954 H 0.19304 0.95321 0.39048 0.0
H955 H 0.17259 0.98302 0.3782 0.0
H956 H 0.19217 0.97566 0.34203 0.0
H957 H 0.14173 0.95922 0.2913 0.0
H958 H 0.1199 0.97202 0.31976 0.0
H959 H 0.10126 0.93182 0.30539 0.0
H960 H 0.08043 0.84269 0.42297 0.0
H961 H 0.05176 0.86824 0.45293 0.0
H962 H 0.11137 0.96386 0.39666 0.0
C963 C 0.16832 0.90534 0.32255 0.0
C964 C 0.16761 0.87437 0.31914 0.0
C965 C 0.14786 0.8461 0.34258 0.0
C966 C 0.12897 0.84873 0.36893 0.0
C967 C 0.12982 0.87967 0.37091 0.0
C968 C 0.14879 0.90741 0.34824 0.0
C969 C 0.14343 0.93745 0.35381 0.0
C970 C 0.17717 0.96383 0.36712 0.0
C971 C 0.12549 0.95091 0.31531 0.0
C972 C 0.11996 0.92245 0.38533 0.0
C973 C 0.11157 0.88891 0.3935 0.0
C974 C 0.0872 0.86894 0.41764 0.0
C975 C 0.07099 0.88361 0.43433 0.0
C976 C 0.08014 0.91788 0.4279 0.0
C977 C 0.10485 0.93761 0.40301 0.0
H978 H 0.23755 0.89358 0.5242 0.0
H979 H 0.17373 0.79268 0.55387 0.0
H980 H 0.12306 0.80778 0.5329 0.0
H981 H 0.20276 0.92103 0.57329 0.0
H982 H 0.20586 0.95928 0.54194 0.0
H983 H 0.23505 0.94014 0.54096 0.0
H984 H 0.21771 0.9407 0.46563 0.0
H985 H 0.18742 0.95945 0.46565 0.0
H986 H 0.17389 0.92133 0.44666 0.0
H987 H 0.08311 0.83489 0.53162 0.0
H988 H 0.05698 0.87168 0.54426 0.0
H989 H 0.14831 0.95478 0.52137 0.0
C990 C 0.21285 0.87431 0.52307 0.0
C991 C 0.20931 0.84204 0.53986 0.0
C992 C 0.17668 0.81746 0.54 0.0
C993 C 0.14783 0.82593 0.52855 0.0
C994 C 0.1524 0.85886 0.51695 0.0
C995 C 0.18423 0.88268 0.51368 0.0
C996 C 0.18384 0.91655 0.51057 0.0
C997 C 0.20829 0.93524 0.54367 0.0
C998 C 0.1912 0.93577 0.46967 0.0
C999 C 0.14762 0.90799 0.51559 0.0
C1000 C 0.12948 0.87479 0.51816 0.0
C1001 C 0.09678 0.86099 0.52853 0.0
C1002 C 0.08237 0.88181 0.53619 0.0
C1003 C 0.10131 0.91554 0.53454 0.0
C1004 C 0.13379 0.92883 0.52332 0.0
H1005 H 0.16828 0.17058 0.72067 0.0
H1006 H 0.25729 0.17447 0.67763 0.0
H1007 H 0.22169 0.13047 0.6385 0.0
H1008 H 0.12139 0.08108 0.72553 0.0
H1009 H 0.08131 0.0864 0.70837 0.0
H1010 H 0.11437 0.11517 0.73686 0.0
H1011 H 0.11067 0.16241 0.68129 0.0
H1012 H 0.07789 0.13391 0.65237 0.0
H1013 H 0.1158 0.16115 0.63177 0.0
H1014 H 0.17654 0.08989 0.59993 0.0
H1015 H 0.12426 0.05623 0.56265 0.0
H1016 H 0.06444 0.07874 0.63093 0.0
C1017 C 0.18037 0.16134 0.70427 0.0
C1018 C 0.21554 0.17545 0.70274 0.0
C1019 C 0.23033 0.16386 0.67921 0.0
C1020 C 0.21038 0.13874 0.65715 0.0
C1021 C 0.17568 0.12552 0.65893 0.0
C1022 C 0.16073 0.13638 0.68188 0.0
C1023 C 0.12253 0.12032 0.67553 0.0
C1024 C 0.10913 0.09949 0.71385 0.0
C1025 C 0.10575 0.14597 0.65925 0.0
C1026 C 0.11843 0.09919 0.64488 0.0
C1027 C 0.1494 0.1023 0.63607 0.0
C1028 C 0.15208 0.08674 0.60697 0.0
C1029 C 0.12226 0.06765 0.58597 0.0
C1030 C 0.09022 0.06447 0.59406 0.0
C1031 C 0.08848 0.0802 0.62433 0.0
H1032 H 0.88916 0.09513 0.73625 0.0
H1033 H 0.84585 0.15444 0.64269 0.0
H1034 H 0.85131 0.12521 0.59376 0.0
H1035 H 0.9546 0.1093 0.68297 0.0
H1036 H 0.95942 0.07079 0.70424 0.0
H1037 H 0.94358 0.09025 0.73164 0.0
H1038 H 0.8899 0.0379 0.73918 0.0
H1039 H 0.90535 0.01824 0.71135 0.0
H1040 H 0.86415 0.02141 0.69574 0.0
H1041 H 0.86547 0.0913 0.55464 0.0
H1042 H 0.898 0.06696 0.52827 0.0
H1043 H 0.94104 0.03987 0.64769 0.0
C1044 C 0.88095 0.10254 0.70562 0.0
C1045 C 0.86698 0.12715 0.69387 0.0
C1046 C 0.85585 0.13503 0.6531 0.0
C1047 C 0.85892 0.11861 0.62488 0.0
C1048 C 0.87386 0.0951 0.63784 0.0
C1049 C 0.88552 0.08796 0.67719 0.0
C1050 C 0.90671 0.06712 0.68342 0.0
C1051 C 0.94322 0.08545 0.70159 0.0
C1052 C 0.89054 0.0342 0.70892 0.0
C1053 C 0.90504 0.06321 0.64125 0.0
C1054 C 0.88514 0.0786 0.61535 0.0
C1055 C 0.88108 0.07915 0.57462 0.0
C1056 C 0.89941 0.06513 0.55995 0.0
C1057 C 0.92212 0.05201 0.58609 0.0
C1058 C 0.92379 0.04982 0.62715 0.0
H1059 H 0.84615 0.83261 0.65547 0.0
H1060 H 0.90073 0.8333 0.77436 0.0
H1061 H 0.94989 0.87893 0.74918 0.0
H1062 H 0.91498 0.84738 0.60541 0.0
H1063 H 0.90215 0.87329 0.5635 0.0
H1064 H 0.87085 0.84211 0.59153 0.0
H1065 H 0.84956 0.88582 0.60305 0.0
H1066 H 0.88103 0.91722 0.57527 0.0
H1067 H 0.87904 0.92079 0.62507 0.0
H1068 H 0.99446 0.92141 0.7101 0.0
H1069 H 0.03098 0.95795 0.66026 0.0
H1070 H 0.94642 0.93044 0.56743 0.0
C1071 C 0.8684 0.84233 0.67631 0.0
C1072 C 0.86961 0.8294 0.71692 0.0
C1073 C 0.89917 0.84295 0.74316 0.0
C1074 C 0.92719 0.86886 0.72914 0.0
C1075 C 0.92513 0.88097 0.68888 0.0
C1076 C 0.89644 0.86822 0.66288 0.0
C1077 C 0.9009 0.885 0.62088 0.0
C1078 C 0.89701 0.86049 0.59375 0.0
C1079 C 0.87616 0.9033 0.60515 0.0
C1080 C 0.93702 0.90856 0.62708 0.0
C1081 C 0.95049 0.90601 0.66654 0.0
C1082 C 0.98408 0.92392 0.67921 0.0
C1083 C 1.00461 0.94454 0.65072 0.0
C1084 C 0.99139 0.94718 0.61012 0.0
C1085 C 0.957 0.9294 0.59835 0.0
H1086 H 0.31364 0.1212 0.08697 0.0
H1087 H 0.38928 0.21154 0.12251 0.0
H1088 H 0.43416 0.19497 0.11109 0.0
H1089 H 0.36288 0.06913 0.12597 0.0
H1090 H 0.348 0.04674 0.08463 0.0
H1091 H 0.32142 0.06406 0.09886 0.0
H1092 H 0.31589 0.09563 0.0281 0.0
H1093 H 0.3421 0.07815 0.01347 0.0
H1094 H 0.35365 0.12188 0.00654 0.0
H1095 H 0.4704 0.17131 0.09259 0.0
H1096 H 0.49735 0.1422 0.06683 0.0
H1097 H 0.39913 0.06766 0.03862 0.0
C1098 C 0.3396 0.13761 0.09233 0.0
C1099 C 0.34768 0.16764 0.10605 0.0
C1100 C 0.38217 0.18805 0.11305 0.0
C1101 C 0.40796 0.179 0.10629 0.0
C1102 C 0.39897 0.1496 0.0922 0.0
C1103 C 0.36572 0.12922 0.08509 0.0
C1104 C 0.36312 0.09977 0.06799 0.0
C1105 C 0.34796 0.06804 0.09604 0.0
C1106 C 0.34247 0.09882 0.02657 0.0
C1107 C 0.40023 0.1071 0.06613 0.0
C1108 C 0.42024 0.13589 0.08065 0.0
C1109 C 0.45511 0.14866 0.08132 0.0
C1110 C 0.47013 0.13185 0.06641 0.0
C1111 C 0.45042 0.10257 0.05052 0.0
C1112 C 0.41491 0.0898 0.05081 0.0
H1113 H 0.87725 0.34681 0.23547 0.0
H1114 H 0.80104 0.31886 0.13504 0.0
H1115 H 0.84268 0.35407 0.08972 0.0
H1116 H 0.91551 0.42946 0.19561 0.0
H1117 H 0.95857 0.43321 0.21522 0.0
H1118 H 0.9242 0.40381 0.24049 0.0
H1119 H 0.9434 0.35613 0.23609 0.0
H1120 H 0.97901 0.38701 0.21428 0.0
H1121 H 0.95227 0.35339 0.18867 0.0
H1122 H 0.89073 0.39592 0.0553 0.0
H1123 H 0.94417 0.43638 0.03353 0.0
H1124 H 0.99172 0.43577 0.15534 0.0
C1125 C 0.86976 0.3474 0.20393 0.0
C1126 C 0.83614 0.32924 0.18867 0.0
C1127 C 0.82684 0.33174 0.14725 0.0
C1128 C 0.85029 0.35189 0.12134 0.0
C1129 C 0.88309 0.36968 0.13719 0.0
C1130 C 0.89315 0.3672 0.17753 0.0
C1131 C 0.92981 0.3898 0.18659 0.0
C1132 C 0.93214 0.4156 0.21091 0.0
C1133 C 0.95242 0.37034 0.20775 0.0
C1134 C 0.93869 0.40526 0.14512 0.0
C1135 C 0.91113 0.39358 0.11718 0.0
C1136 C 0.91253 0.40492 0.07695 0.0
C1137 C 0.94299 0.42813 0.06485 0.0
C1138 C 0.97216 0.4394 0.09261 0.0
C1139 C 0.96987 0.42771 0.13339 0.0
H1140 H 0.73511 0.85473 0.22083 0.0
H1141 H 0.70111 0.77994 0.14631 0.0
H1142 H 0.66358 0.80568 0.10329 0.0
H1143 H 0.65613 0.86415 0.2142 0.0
H1144 H 0.67307 0.90792 0.21205 0.0
H1145 H 0.69885 0.88414 0.23631 0.0
H1146 H 0.74495 0.91868 0.19128 0.0
H1147 H 0.7195 0.94283 0.16712 0.0
H1148 H 0.73372 0.92278 0.13837 0.0
H1149 H 0.62193 0.83694 0.07218 0.0
H1150 H 0.59118 0.8755 0.0494 0.0
H1151 H 0.65559 0.93505 0.13802 0.0
C1152 C 0.72106 0.84446 0.1944 0.0
C1153 C 0.72322 0.81507 0.18702 0.0
C1154 C 0.70197 0.80223 0.15313 0.0
C1155 C 0.67976 0.81689 0.12827 0.0
C1156 C 0.67802 0.84515 0.137 0.0
C1157 C 0.6989 0.85934 0.16881 0.0
C1158 C 0.69228 0.89002 0.17159 0.0
C1159 C 0.67933 0.88633 0.21087 0.0
C1160 C 0.72453 0.92039 0.16681 0.0
C1161 C 0.6646 0.89092 0.13646 0.0
C1162 C 0.65611 0.86426 0.11746 0.0
C1163 C 0.62939 0.85843 0.08622 0.0
C1164 C 0.61198 0.88075 0.07319 0.0
C1165 C 0.62142 0.90966 0.09013 0.0
C1166 C 0.64798 0.91407 0.12298 0.0
H1167 H 0.23518 0.69414 0.14617 0.0
H1168 H 0.17187 0.72911 0.19288 0.0
H1169 H 0.12114 0.69261 0.15749 0.0
H1170 H 0.18483 0.68377 0.04877 0.0
H1171 H 0.19023 0.64638 0.04625 0.0
H1172 H 0.22248 0.67629 0.07402 0.0
H1173 H 0.21828 0.63238 0.13636 0.0
H1174 H 0.1859 0.60235 0.1088 0.0
H1175 H 0.17779 0.61002 0.15375 0.0
H1176 H 0.07707 0.65143 0.12003 0.0
H1177 H 0.04153 0.60911 0.07933 0.0
H1178 H 0.13079 0.59905 0.05365 0.0
C1179 C 0.21063 0.69442 0.14829 0.0
C1180 C 0.20769 0.71571 0.17107 0.0
C1181 C 0.17505 0.71464 0.17397 0.0
C1182 C 0.14593 0.69344 0.15447 0.0
C1183 C 0.14958 0.67308 0.13206 0.0
C1184 C 0.18098 0.67332 0.12857 0.0
C1185 C 0.17714 0.64813 0.10294 0.0
C1186 C 0.19472 0.66464 0.06579 0.0
C1187 C 0.19059 0.62166 0.12689 0.0
C1188 C 0.13879 0.63412 0.09239 0.0
C1189 C 0.12364 0.64884 0.10999 0.0
C1190 C 0.08867 0.64006 0.10564 0.0
C1191 C 0.06859 0.61612 0.08201 0.0
C1192 C 0.08318 0.60123 0.06242 0.0
C1193 C 0.11887 0.60999 0.06825 0.0
H1194 H 0.37081 0.79587 0.86441 0.0
H1195 H 0.33451 0.86492 0.78002 0.0
H1196 H 0.37235 0.90917 0.81757 0.0
H1197 H 0.38265 0.83167 0.95256 0.0
H1198 H 0.42135 0.82446 0.97318 0.0
H1199 H 0.38979 0.79764 0.94118 0.0
H1200 H 0.43478 0.80864 0.89626 0.0
H1201 H 0.46649 0.83588 0.92733 0.0
H1202 H 0.45779 0.84977 0.87531 0.0
H1203 H 0.4142 0.94582 0.86265 0.0
H1204 H 0.45982 0.97432 0.91068 0.0
H1205 H 0.47319 0.88278 0.96563 0.0
C1206 C 0.37079 0.82018 0.85384 0.0
C1207 C 0.34881 0.82659 0.81977 0.0
C1208 C 0.34982 0.85901 0.80692 0.0
C1209 C 0.37159 0.88441 0.82783 0.0
C1210 C 0.39258 0.87714 0.86145 0.0
C1211 C 0.39267 0.84592 0.87432 0.0
C1212 C 0.41902 0.84525 0.91047 0.0
C1213 C 0.40219 0.82346 0.94648 0.0
C1214 C 0.44617 0.83427 0.9018 0.0
C1215 C 0.43374 0.88103 0.91579 0.0
C1216 C 0.4178 0.89875 0.8872 0.0
C1217 C 0.42681 0.93221 0.88523 0.0
C1218 C 0.4529 0.94816 0.91293 0.0
C1219 C 0.47032 0.93094 0.94238 0.0
C1220 C 0.46043 0.89673 0.94375 0.0
H1221 H 0.14313 0.29941 0.93329 0.0
H1222 H 0.21166 0.36901 0.85311 0.0
H1223 H 0.20467 0.41433 0.8762 0.0
H1224 H 0.08462 0.33842 0.91001 0.0
H1225 H 0.07238 0.32817 0.95888 0.0
H1226 H 0.08777 0.30206 0.94169 0.0
H1227 H 0.13466 0.30748 0.00224 0.0
H1228 H 0.11898 0.33321 0.01992 0.0
H1229 H 0.16279 0.34756 0.01252 0.0
H1230 H 0.18605 0.45231 0.90645 0.0
H1231 H 0.15551 0.47704 0.93616 0.0
H1232 H 0.0952 0.38047 0.9886 0.0
C1233 C 0.15672 0.32407 0.92019 0.0
C1234 C 0.17759 0.33034 0.89078 0.0
C1235 C 0.19563 0.36331 0.8758 0.0
C1236 C 0.19169 0.38928 0.88865 0.0
C1237 C 0.16953 0.3819 0.91636 0.0
C1238 C 0.15236 0.34992 0.93174 0.0
C1239 C 0.12733 0.3476 0.95783 0.0
C1240 C 0.09088 0.32792 0.94109 0.0
C1241 C 0.13651 0.3331 1.00066 0.0
C1242 C 0.13276 0.38325 0.95472 0.0
C1243 C 0.15762 0.40298 0.93142 0.0
C1244 C 0.16661 0.43696 0.92475 0.0
C1245 C 0.14933 0.45084 0.94185 0.0
C1246 C 0.12301 0.4306 0.96453 0.0
C1247 C 0.11512 0.39654 0.97123 0.0
H1248 H 0.72318 0.20499 0.87107 0.0
H1249 H 0.69023 0.18334 0.75132 0.0
H1250 H 0.6436 0.13407 0.77397 0.0
H1251 H 0.69727 0.11655 0.92227 0.0
H1252 H 0.6839 0.12664 0.96189 0.0
H1253 H 0.71825 0.15658 0.93692 0.0
H1254 H 0.68566 0.19672 0.92242 0.0
H1255 H 0.6511 0.16618 0.94622 0.0
H1256 H 0.6434 0.18464 0.89588 0.0
H1257 H 0.59564 0.09251 0.80693 0.0
H1258 H 0.55106 0.05928 0.84934 0.0
H1259 H 0.6144 0.1052 0.94923 0.0
C1260 C 0.70711 0.18886 0.85014 0.0
C1261 C 0.71192 0.19675 0.80976 0.0
C1262 C 0.68865 0.17659 0.78263 0.0
C1263 C 0.66172 0.14869 0.79524 0.0
C1264 C 0.65774 0.14145 0.83515 0.0
C1265 C 0.67994 0.16069 0.86241 0.0
C1266 C 0.66801 0.14882 0.90296 0.0
C1267 C 0.6934 0.13642 0.93277 0.0
C1268 C 0.66166 0.17569 0.9177 0.0
C1269 C 0.63514 0.12077 0.89378 0.0
C1270 C 0.62983 0.11693 0.85447 0.0
C1271 C 0.59993 0.09467 0.83799 0.0
C1272 C 0.57475 0.0759 0.86221 0.0
C1273 C 0.57977 0.0791 0.9026 0.0
C1274 C 0.61051 0.10156 0.9187 0.0
H1275 H 0.8843 0.73194 0.80073 0.0
H1276 H 0.78724 0.67005 0.838 0.0
H1277 H 0.8136 0.63302 0.88182 0.0
H1278 H 0.90934 0.66639 0.79537 0.0
H1279 H 0.95369 0.68567 0.81224 0.0
H1280 H 0.92879 0.71031 0.78802 0.0
H1281 H 0.94618 0.74118 0.84794 0.0
H1282 H 0.97141 0.71683 0.87228 0.0
H1283 H 0.93914 0.71851 0.89659 0.0
H1284 H 0.84865 0.5976 0.915 0.0
H1285 H 0.89 0.56995 0.93955 0.0
H1286 H 0.96716 0.65304 0.88382 0.0
C1287 C 0.869 0.71173 0.82005 0.0
C1288 C 0.83368 0.7062 0.81825 0.0
C1289 C 0.81449 0.67705 0.84101 0.0
C1290 C 0.82931 0.65522 0.86552 0.0
C1291 C 0.86382 0.66145 0.86658 0.0
C1292 C 0.88363 0.68919 0.84462 0.0
C1293 C 0.91965 0.68851 0.84902 0.0
C1294 C 0.92838 0.68768 0.80877 0.0
C1295 C 0.94565 0.71802 0.86756 0.0
C1296 C 0.91704 0.65632 0.8771 0.0
C1297 C 0.88429 0.64103 0.88623 0.0
C1298 C 0.87452 0.60995 0.90884 0.0
C1299 C 0.8984 0.59427 0.92282 0.0
C1300 C 0.93265 0.60937 0.91564 0.0
C1301 C 0.94182 0.64106 0.89185 0.0
H1302 H 0.25535 0.37111 0.20142 0.0
H1303 H 0.19108 0.27278 0.18174 0.0
H1304 H 0.14773 0.29426 0.14097 0.0
H1305 H 0.18564 0.39204 0.21657 0.0
H1306 H 0.2046 0.43438 0.19615 0.0
H1307 H 0.23104 0.41111 0.21967 0.0
H1308 H 0.25952 0.42591 0.15641 0.0
H1309 H 0.23309 0.4491 0.13249 0.0
H1310 H 0.2337 0.41674 0.10993 0.0
H1311 H 0.11094 0.33034 0.09793 0.0
H1312 H 0.08381 0.37146 0.06977 0.0
H1313 H 0.16878 0.44447 0.12705 0.0
C1314 C 0.23233 0.35384 0.18829 0.0
C1315 C 0.22821 0.32003 0.19338 0.0
C1316 C 0.19648 0.2988 0.17689 0.0
C1317 C 0.17129 0.31097 0.15387 0.0
C1318 C 0.17677 0.34457 0.1489 0.0
C1319 C 0.20638 0.36539 0.16691 0.0
C1320 C 0.20546 0.39988 0.16073 0.0
C1321 C 0.20677 0.40995 0.20064 0.0
C1322 C 0.23468 0.42436 0.13857 0.0
C1323 C 0.17114 0.39593 0.13544 0.0
C1324 C 0.15499 0.36394 0.12833 0.0
C1325 C 0.12351 0.35515 0.10424 0.0
C1326 C 0.10814 0.37895 0.08802 0.0
C1327 C 0.12341 0.41175 0.096 0.0
C1328 C 0.15571 0.41987 0.12017 0.0
H1329 H 0.2312 0.71064 0.87295 0.0
H1330 H 0.20431 0.6802 0.75729 0.0
H1331 H 0.15221 0.63678 0.77849 0.0
H1332 H 0.20338 0.63006 0.92694 0.0
H1333 H 0.18718 0.63998 0.96436 0.0
H1334 H 0.22127 0.67076 0.93984 0.0
H1335 H 0.18606 0.7095 0.91625 0.0
H1336 H 0.15498 0.67903 0.94535 0.0
H1337 H 0.14262 0.69196 0.89437 0.0
H1338 H 0.10255 0.5967 0.81181 0.0
H1339 H 0.05927 0.56223 0.85545 0.0
H1340 H 0.11867 0.61556 0.95145 0.0
C1341 C 0.21387 0.69523 0.85193 0.0
C1342 C 0.22123 0.69973 0.81283 0.0
C1343 C 0.19868 0.67819 0.78672 0.0
C1344 C 0.16909 0.65319 0.7987 0.0
C1345 C 0.16236 0.64961 0.83718 0.0
C1346 C 0.18403 0.67004 0.86351 0.0
C1347 C 0.17152 0.65961 0.90387 0.0
C1348 C 0.19739 0.64949 0.93562 0.0
C1349 C 0.16338 0.68669 0.91558 0.0
C1350 C 0.13944 0.63033 0.89593 0.0
C1351 C 0.13463 0.62516 0.85718 0.0
C1352 C 0.10626 0.60036 0.84228 0.0
C1353 C 0.0819 0.58074 0.86731 0.0
C1354 C 0.08612 0.58556 0.90704 0.0
C1355 C 0.11541 0.61061 0.92157 0.0
H1356 H 0.38668 0.2366 0.82947 0.0
H1357 H 0.28529 0.16526 0.81119 0.0
H1358 H 0.30698 0.12136 0.84625 0.0
H1359 H 0.43023 0.18753 0.81248 0.0
H1360 H 0.46624 0.20233 0.849 0.0
H1361 H 0.44222 0.22782 0.82498 0.0
H1362 H 0.43247 0.23414 0.89284 0.0
H1363 H 0.45648 0.20867 0.91723 0.0
H1364 H 0.41383 0.19822 0.92713 0.0
H1365 H 0.34138 0.08426 0.88086 0.0
H1366 H 0.38267 0.05775 0.91121 0.0
H1367 H 0.46373 0.15242 0.90807 0.0
C1368 C 0.36877 0.21175 0.83335 0.0
C1369 C 0.3337 0.20493 0.81802 0.0
C1370 C 0.3118 0.17175 0.82318 0.0
C1371 C 0.32417 0.14651 0.84295 0.0
C1372 C 0.35885 0.15424 0.85735 0.0
C1373 C 0.38083 0.18622 0.85275 0.0
C1374 C 0.41718 0.18807 0.86976 0.0
C1375 C 0.44033 0.20228 0.83712 0.0
C1376 C 0.4308 0.20849 0.90377 0.0
C1377 C 0.41254 0.15204 0.88492 0.0
C1378 C 0.37856 0.13308 0.87722 0.0
C1379 C 0.36783 0.09914 0.88708 0.0
C1380 C 0.39181 0.08416 0.90456 0.0
C1381 C 0.427 0.10237 0.91301 0.0
C1382 C 0.43724 0.13725 0.90313 0.0
H1383 H 0.82594 0.33279 0.86673 0.0
H1384 H 0.88986 0.31054 0.80478 0.0
H1385 H 0.9405 0.34614 0.84068 0.0
H1386 H 0.87931 0.41873 0.86572 0.0
H1387 H 0.873 0.42112 0.91427 0.0
H1388 H 0.84055 0.39237 0.88516 0.0
H1389 H 0.84169 0.34516 0.94214 0.0
H1390 H 0.87419 0.37377 0.97138 0.0
H1391 H 0.88119 0.33916 0.96156 0.0
H1392 H 0.98462 0.38451 0.88109 0.0
H1393 H 1.02054 0.42453 0.9251 0.0
H1394 H 0.93115 0.42556 0.96244 0.0
C1395 C 0.85066 0.33532 0.86112 0.0
C1396 C 0.85383 0.31748 0.83393 0.0
C1397 C 0.88663 0.32198 0.82709 0.0
C1398 C 0.91572 0.34287 0.84681 0.0
C1399 C 0.91198 0.35965 0.87366 0.0
C1400 C 0.88044 0.3564 0.881 0.0
C1401 C 0.88442 0.37829 0.9111 0.0
C1402 C 0.86835 0.40416 0.89297 0.0
C1403 C 0.86948 0.35787 0.94878 0.0
C1404 C 0.9229 0.39405 0.91917 0.0
C1405 C 0.93805 0.38277 0.89703 0.0
C1406 C 0.9731 0.39344 0.89877 0.0
C1407 C 0.99336 0.41608 0.92404 0.0
C1408 C 0.97876 0.42795 0.94742 0.0
C1409 C 0.94298 0.41697 0.94474 0.0
H1410 H 0.70225 0.83499 0.95694 0.0
H1411 H 0.72911 0.89229 0.84387 0.0
H1412 H 0.69874 0.92767 0.85016 0.0
H1413 H 0.61833 0.83817 0.94571 0.0
H1414 H 0.621 0.84114 0.99699 0.0
H1415 H 0.64398 0.82001 0.98299 0.0
H1416 H 0.69939 0.85691 0.01865 0.0
H1417 H 0.67764 0.87944 0.03217 0.0
H1418 H 0.71301 0.90065 0.00481 0.0
H1419 H 0.6687 0.95956 0.87231 0.0
H1420 H 0.63482 0.97946 0.90362 0.0
H1421 H 0.62637 0.89936 0.99959 0.0
C1422 C 0.70157 0.85487 0.93337 0.0
C1423 C 0.7183 0.86114 0.90008 0.0
C1424 C 0.7164 0.88706 0.86958 0.0
C1425 C 0.69943 0.9074 0.87306 0.0
C1426 C 0.68419 0.90121 0.907 0.0
C1427 C 0.68457 0.87511 0.93622 0.0
C1428 C 0.66622 0.87337 0.96968 0.0
C1429 C 0.63556 0.84127 0.97408 0.0
C1430 C 0.69051 0.87784 0.00861 0.0
C1431 C 0.65529 0.90247 0.95476 0.0
C1432 C 0.66629 0.91866 0.91892 0.0
C1433 C 0.6598 0.94687 0.90025 0.0
C1434 C 0.64085 0.95818 0.91831 0.0
C1435 C 0.62844 0.94103 0.95427 0.0
C1436 C 0.63595 0.91306 0.97254 0.0
H1437 H 0.84828 0.68543 0.03442 0.0
H1438 H 0.87934 0.68063 0.16115 0.0
H1439 H 0.9058 0.64116 0.15924 0.0
H1440 H 0.83191 0.60031 0.02857 0.0
H1441 H 0.84906 0.60977 0.98271 0.0
H1442 H 0.82961 0.63553 0.99357 0.0
H1443 H 0.88385 0.68608 0.98343 0.0
H1444 H 0.90364 0.66108 0.9717 0.0
H1445 H 0.92381 0.68554 0.0108 0.0
H1446 H 0.93447 0.60695 0.1424 0.0
H1447 H 0.96188 0.58015 0.11173 0.0
H1448 H 0.9125 0.60744 0.99671 0.0
C1449 C 0.86052 0.67606 0.06188 0.0
C1450 C 0.86159 0.68628 0.09798 0.0
C1451 C 0.87759 0.67293 0.13319 0.0
C1452 C 0.8929 0.65057 0.13239 0.0
C1453 C 0.89192 0.6416 0.09619 0.0
C1454 C 0.87603 0.65386 0.06158 0.0
C1455 C 0.88009 0.64169 0.02623 0.0
C1456 C 0.8456 0.62058 0.00662 0.0
C1457 C 0.89898 0.6703 0.9963 0.0
C1458 C 0.90132 0.6212 0.04625 0.0
C1459 C 0.90772 0.62128 0.08665 0.0
C1460 C 0.92888 0.60603 0.11096 0.0
C1461 C 0.94415 0.59071 0.0934 0.0
C1462 C 0.93791 0.59049 0.05211 0.0
C1463 C 0.91611 0.60574 0.02842 0.0
H1464 H 0.32552 0.82277 0.12766 0.0
H1465 H 0.37169 0.82288 0.24991 0.0
H1466 H 0.42194 0.8683 0.23043 0.0
H1467 H 0.40304 0.83919 0.0892 0.0
H1468 H 0.39431 0.86524 0.04482 0.0
H1469 H 0.35987 0.83374 0.06802 0.0
H1470 H 0.33498 0.87701 0.07278 0.0
H1471 H 0.36922 0.90804 0.04864 0.0
H1472 H 0.36191 0.91243 0.09571 0.0
H1473 H 0.46819 0.91275 0.19929 0.0
H1474 H 0.51055 0.95055 0.1566 0.0
H1475 H 0.43817 0.92373 0.05261 0.0
C1476 C 0.34608 0.83272 0.15024 0.0
C1477 C 0.34361 0.8198 0.19081 0.0
C1478 C 0.37183 0.83269 0.2191 0.0
C1479 C 0.40086 0.85872 0.20821 0.0
C1480 C 0.40209 0.87161 0.16848 0.0
C1481 C 0.3758 0.85894 0.13967 0.0
C1482 C 0.38531 0.87638 0.09881 0.0
C1483 C 0.38566 0.8522 0.07374 0.0
C1484 C 0.36139 0.89451 0.07775 0.0
C1485 C 0.42091 0.90047 0.10949 0.0
C1486 C 0.42971 0.89732 0.15 0.0
C1487 C 0.46151 0.91569 0.16751 0.0
C1488 C 0.48536 0.93726 0.14306 0.0
C1489 C 0.47744 0.94069 0.10143 0.0
C1490 C 0.44453 0.92238 0.08439 0.0
H1491 H 0.69433 0.16746 0.20034 0.0
H1492 H 0.72764 0.2534 0.11305 0.0
H1493 H 0.6879 0.22294 0.0607 0.0
H1494 H 0.68722 0.11009 0.13337 0.0
H1495 H 0.65158 0.0783 0.15413 0.0
H1496 H 0.68286 0.10679 0.18451 0.0
H1497 H 0.63566 0.1218 0.20192 0.0
H1498 H 0.60428 0.09361 0.17139 0.0
H1499 H 0.60807 0.13589 0.16269 0.0
H1500 H 0.64115 0.18448 0.01922 0.0
H1501 H 0.59491 0.13932 0.98978 0.0
H1502 H 0.59515 0.07601 0.10244 0.0
C1503 C 0.69313 0.17976 0.17019 0.0
C1504 C 0.71308 0.2131 0.16064 0.0
C1505 C 0.71186 0.22812 0.12082 0.0
C1506 C 0.68953 0.21094 0.09098 0.0
C1507 C 0.66947 0.17831 0.10132 0.0
C1508 C 0.67169 0.16257 0.13978 0.0
C1509 C 0.64823 0.12696 0.14255 0.0
C1510 C 0.6687 0.1042 0.15436 0.0
C1511 C 0.62253 0.11912 0.17134 0.0
C1512 C 0.63118 0.12561 0.1001 0.0
C1513 C 0.64397 0.15552 0.07684 0.0
C1514 C 0.63136 0.16083 0.03704 0.0
C1515 C 0.60503 0.135 0.02058 0.0
C1516 C 0.59165 0.10397 0.04363 0.0
C1517 C 0.60526 0.09922 0.08388 0.0
H1518 H 0.69201 0.71416 0.82937 0.0
H1519 H 0.7008 0.64382 0.76821 0.0
H1520 H 0.65484 0.60004 0.80139 0.0
H1521 H 0.6784 0.6639 0.92095 0.0
H1522 H 0.64815 0.6789 0.93111 0.0
H1523 H 0.68013 0.70485 0.90043 0.0
H1524 H 0.63377 0.71352 0.84416 0.0
H1525 H 0.60155 0.68773 0.87471 0.0
H1526 H 0.60011 0.67852 0.82647 0.0
H1527 H 0.60986 0.56313 0.84558 0.0
H1528 H 0.56848 0.53747 0.89364 0.0
H1529 H 0.58972 0.63283 0.92467 0.0
C1530 C 0.68415 0.68959 0.82268 0.0
C1531 C 0.69991 0.68246 0.79586 0.0
C1532 C 0.68873 0.65003 0.78791 0.0
C1533 C 0.66278 0.62492 0.80695 0.0
C1534 C 0.64809 0.63275 0.83365 0.0
C1535 C 0.6582 0.66443 0.84115 0.0
C1536 C 0.6388 0.66659 0.87135 0.0
C1537 C 0.66281 0.67929 0.90813 0.0
C1538 C 0.61729 0.68785 0.85307 0.0
C1539 C 0.61671 0.63106 0.88045 0.0
C1540 C 0.62223 0.61183 0.8584 0.0
C1541 C 0.60508 0.57806 0.86264 0.0
C1542 C 0.5816 0.56369 0.88998 0.0
C1543 C 0.57547 0.58312 0.91264 0.0
C1544 C 0.5934 0.61723 0.90757 0.0
H1545 H 0.38446 0.66478 0.87298 0.0
H1546 H 0.45648 0.68831 0.79113 0.0
H1547 H 0.50288 0.69861 0.84658 0.0
H1548 H 0.45123 0.72361 0.9479 0.0
H1549 H 0.43543 0.69557 0.99012 0.0
H1550 H 0.40616 0.70188 0.94824 0.0
H1551 H 0.37838 0.64351 0.9365 0.0
H1552 H 0.40173 0.63283 0.98158 0.0
H1553 H 0.40409 0.61975 0.93709 0.0
H1554 H 0.53552 0.68658 0.90821 0.0
H1555 H 0.54629 0.64628 0.96311 0.0
H1556 H 0.45354 0.63106 0.00506 0.0
C1557 C 0.41017 0.67417 0.86625 0.0
C1558 C 0.41697 0.67576 0.82791 0.0
C1559 C 0.45075 0.68651 0.8205 0.0
C1560 C 0.47727 0.6933 0.8517 0.0
C1561 C 0.46954 0.69006 0.88977 0.0
C1562 C 0.43655 0.68159 0.89685 0.0
C1563 C 0.43328 0.67196 0.9404 0.0
C1564 C 0.43141 0.69996 0.95747 0.0
C1565 C 0.40271 0.64009 0.94932 0.0
C1566 C 0.4671 0.66849 0.95533 0.0
C1567 C 0.48901 0.68243 0.92683 0.0
C1568 C 0.51924 0.67689 0.9312 0.0
C1569 C 0.52537 0.65404 0.9628 0.0
C1570 C 0.5007 0.63637 0.98833 0.0
C1571 C 0.47321 0.64582 0.98695 0.0
H1572 H 0.38324 0.35599 0.77911 0.0
H1573 H 0.3022 0.31724 0.85212 0.0
H1574 H 0.33315 0.35954 0.89429 0.0
H1575 H 0.4475 0.36804 0.85878 0.0
H1576 H 0.47678 0.40482 0.83489 0.0
H1577 H 0.44573 0.37536 0.80575 0.0
H1578 H 0.42347 0.41995 0.76485 0.0
H1579 H 0.4546 0.44972 0.79374 0.0
H1580 H 0.41034 0.44358 0.78971 0.0
H1581 H 0.3745 0.40165 0.9329 0.0
H1582 H 0.42559 0.43957 0.96732 0.0
H1583 H 0.48122 0.44988 0.87155 0.0
C1584 C 0.37171 0.357 0.80328 0.0
C1585 C 0.34008 0.33354 0.81194 0.0
C1586 C 0.32622 0.33511 0.84461 0.0
C1587 C 0.34357 0.35917 0.86877 0.0
C1588 C 0.37504 0.38145 0.86018 0.0
C1589 C 0.38918 0.38056 0.82839 0.0
C1590 C 0.42518 0.40476 0.82885 0.0
C1591 C 0.45026 0.38719 0.8323 0.0
C1592 C 0.42858 0.43108 0.7921 0.0
C1593 C 0.429 0.41879 0.8662 0.0
C1594 C 0.39962 0.40535 0.88345 0.0
C1595 C 0.39762 0.41285 0.91947 0.0
C1596 C 0.4267 0.43439 0.93883 0.0
C1597 C 0.45735 0.44784 0.9222 0.0
C1598 C 0.45813 0.44028 0.88503 0.0
H1599 H 0.63722 0.37519 0.78843 0.0
H1600 H 0.74137 0.40748 0.84434 0.0
H1601 H 0.72652 0.43489 0.88887 0.0
H1602 H 0.62395 0.44643 0.7844 0.0
H1603 H 0.5806 0.42732 0.79425 0.0
H1604 H 0.59854 0.40655 0.7713 0.0
H1605 H 0.583 0.3569 0.82575 0.0
H1606 H 0.56503 0.37664 0.85037 0.0
H1607 H 0.59803 0.36188 0.87671 0.0
H1608 H 0.70122 0.46528 0.91985 0.0
H1609 H 0.66572 0.488 0.94348 0.0
H1610 H 0.57915 0.43587 0.86473 0.0
C1611 C 0.65679 0.38778 0.81035 0.0
C1612 C 0.69041 0.38995 0.81274 0.0
C1613 C 0.71541 0.4059 0.84216 0.0
C1614 C 0.70724 0.42153 0.86737 0.0
C1615 C 0.674 0.42043 0.86277 0.0
C1616 C 0.6491 0.40334 0.8355 0.0
C1617 C 0.61571 0.40686 0.83483 0.0
C1618 C 0.60404 0.42275 0.79378 0.0
C1619 C 0.58883 0.37362 0.84771 0.0
C1620 C 0.62579 0.42943 0.86529 0.0
C1621 C 0.65943 0.43702 0.88117 0.0
C1622 C 0.6746 0.45874 0.90853 0.0
C1623 C 0.65443 0.47191 0.92131 0.0
C1624 C 0.61979 0.46386 0.90584 0.0
C1625 C 0.6056 0.44268 0.8771 0.0
H1626 H 0.70222 0.35261 0.06108 0.0
H1627 H 0.62993 0.27042 0.00495 0.0
H1628 H 0.60713 0.30813 0.95814 0.0
H1629 H 0.65318 0.38047 0.07486 0.0
H1630 H 0.67668 0.42374 0.06536 0.0
H1631 H 0.69885 0.3962 0.07967 0.0
H1632 H 0.72838 0.42011 0.01793 0.0
H1633 H 0.70533 0.44751 1.00032 0.0
H1634 H 0.70444 0.41946 0.96945 0.0
H1635 H 0.57659 0.34508 0.94151 0.0
H1636 H 0.5466 0.379 0.95197 0.0
H1637 H 0.63764 0.43763 0.0181 0.0
C1638 C 0.68287 0.34195 0.03812 0.0
C1639 C 0.66661 0.30774 0.039 0.0
C1640 C 0.64182 0.29621 0.0069 0.0
C1641 C 0.62901 0.31768 0.97946 0.0
C1642 C 0.64202 0.35066 0.98372 0.0
C1643 C 0.66942 0.36296 0.01161 0.0
C1644 C 0.67364 0.39673 0.01786 0.0
C1645 C 0.67559 0.39928 0.06196 0.0
C1646 C 0.70476 0.42252 1.00028 0.0
C1647 C 0.64135 0.39914 0.99395 0.0
C1648 C 0.62423 0.37326 0.97272 0.0
C1649 C 0.59038 0.36629 0.95616 0.0
C1650 C 0.57333 0.3852 0.96276 0.0
C1651 C 0.59013 0.40997 0.98653 0.0
C1652 C 0.62468 0.41825 1.00023 0.0
H1653 H 0.70511 0.64745 0.2266 0.0
H1654 H 0.6808 0.73092 0.16406 0.0
H1655 H 0.64757 0.70093 0.10955 0.0
H1656 H 0.70491 0.61036 0.14677 0.0
H1657 H 0.68049 0.56904 0.16602 0.0
H1658 H 0.70578 0.59776 0.19941 0.0
H1659 H 0.65315 0.58812 0.2321 0.0
H1660 H 0.628 0.55836 0.20001 0.0
H1661 H 0.61566 0.59218 0.20136 0.0
H1662 H 0.62366 0.66455 0.05916 0.0
H1663 H 0.5872 0.61717 0.026 0.0
H1664 H 0.61295 0.55194 0.12704 0.0
C1665 C 0.69216 0.65902 0.20176 0.0
C1666 C 0.69787 0.69267 0.19719 0.0
C1667 C 0.67947 0.70652 0.16543 0.0
C1668 C 0.66015 0.68938 0.1348 0.0
C1669 C 0.6574 0.65721 0.13802 0.0
C1670 C 0.67066 0.64132 0.17178 0.0
C1671 C 0.65905 0.60517 0.16948 0.0
C1672 C 0.68937 0.59498 0.17049 0.0
C1673 C 0.63769 0.58475 0.2027 0.0
C1674 C 0.63768 0.60372 0.12911 0.0
C1675 C 0.63859 0.63447 0.11097 0.0
C1676 C 0.6221 0.64014 0.07315 0.0
C1677 C 0.60191 0.61321 0.05434 0.0
C1678 C 0.5977 0.58124 0.07401 0.0
C1679 C 0.61643 0.57633 0.11134 0.0
H1680 H 0.42783 0.69595 0.14362 0.0
H1681 H 0.36846 0.62493 0.23087 0.0
H1682 H 0.37011 0.58001 0.20124 0.0
H1683 H 0.39126 0.64459 0.0617 0.0
H1684 H 0.43128 0.65784 0.04361 0.0
H1685 H 0.42098 0.68562 0.06502 0.0
H1686 H 0.47481 0.69543 0.11549 0.0
H1687 H 0.48714 0.6698 0.09334 0.0
H1688 H 0.48393 0.66105 0.14554 0.0
H1689 H 0.38624 0.54348 0.16745 0.0
H1690 H 0.41393 0.51972 0.13228 0.0
H1691 H 0.46502 0.61589 0.07145 0.0
C1692 C 0.4145 0.67089 0.15582 0.0
C1693 C 0.39832 0.66369 0.18957 0.0
C1694 C 0.3809 0.63076 0.20481 0.0
C1695 C 0.38175 0.60517 0.1882 0.0
C1696 C 0.39956 0.61314 0.15601 0.0
C1697 C 0.41507 0.64529 0.13962 0.0
C1698 C 0.43499 0.64785 0.10748 0.0
C1699 C 0.41859 0.65979 0.06706 0.0
C1700 C 0.47243 0.66979 0.11602 0.0
C1701 C 0.43062 0.61249 0.11025 0.0
C1702 C 0.40914 0.5925 0.13732 0.0
C1703 C 0.40238 0.55887 0.14548 0.0
C1704 C 0.41801 0.54555 0.12537 0.0
C1705 C 0.44027 0.566 0.09802 0.0
C1706 C 0.44664 0.59971 0.09061 0.0
H1707 H 0.33945 0.35973 0.16271 0.0
H1708 H 0.39915 0.32385 0.26351 0.0
H1709 H 0.45175 0.36082 0.23594 0.0
H1710 H 0.38437 0.36684 0.08991 0.0
H1711 H 0.382 0.40507 0.06294 0.0
H1712 H 0.34968 0.37884 0.09291 0.0
H1713 H 0.36073 0.42603 0.13171 0.0
H1714 H 0.39312 0.45264 0.10169 0.0
H1715 H 0.40294 0.44658 0.15473 0.0
H1716 H 0.49606 0.39377 0.19145 0.0
H1717 H 0.52974 0.42536 0.13679 0.0
H1718 H 0.44199 0.44414 0.06843 0.0
C1719 C 0.36372 0.3602 0.17915 0.0
C1720 C 0.36562 0.33891 0.21476 0.0
C1721 C 0.3975 0.34013 0.23603 0.0
C1722 C 0.42738 0.36102 0.22067 0.0
C1723 C 0.42473 0.38123 0.18483 0.0
C1724 C 0.39375 0.38169 0.16492 0.0
C1725 C 0.39779 0.40524 0.12664 0.0
C1726 C 0.37726 0.38794 0.09102 0.0
C1727 C 0.38807 0.43435 0.12882 0.0
C1728 C 0.43552 0.41579 0.12638 0.0
C1729 C 0.45072 0.40206 0.16051 0.0
C1730 C 0.48474 0.40556 0.16523 0.0
C1731 C 0.50362 0.4234 0.13418 0.0
C1732 C 0.4884 0.43761 0.09931 0.0
C1733 C 0.4542 0.43422 0.09554 0.0
H1734 H 0.81201 0.61766 0.58121 0.0
H1735 H 0.89 0.71222 0.59704 0.0
H1736 H 0.93119 0.69504 0.57643 0.0
H1737 H 0.86569 0.57033 0.61626 0.0
H1738 H 0.84503 0.54228 0.58095 0.0
H1739 H 0.82161 0.56183 0.59724 0.0
H1740 H 0.80502 0.5844 0.52451 0.0
H1741 H 0.82836 0.56478 0.50812 0.0
H1742 H 0.83782 0.60808 0.49381 0.0
H1743 H 0.96295 0.66932 0.55169 0.0
H1744 H 0.98657 0.63342 0.53299 0.0
H1745 H 0.88853 0.55494 0.53234 0.0
C1746 C 0.83773 0.63482 0.58021 0.0
C1747 C 0.84769 0.66644 0.59046 0.0
C1748 C 0.88179 0.68784 0.58966 0.0
C1749 C 0.90527 0.67844 0.57753 0.0
C1750 C 0.89425 0.6476 0.56632 0.0
C1751 C 0.86148 0.62588 0.56805 0.0
C1752 C 0.85658 0.59381 0.55542 0.0
C1753 C 0.84666 0.56539 0.5895 0.0
C1754 C 0.83038 0.58741 0.51826 0.0
C1755 C 0.89186 0.60095 0.54633 0.0
C1756 C 0.91293 0.63232 0.55247 0.0
C1757 C 0.94677 0.64475 0.5468 0.0
C1758 C 0.95987 0.62423 0.53601 0.0
C1759 C 0.93926 0.59163 0.53099 0.0
C1760 C 0.90457 0.58 0.5352 0.0
H1761 H 0.35787 0.83965 0.71785 0.0
H1762 H 0.31985 0.78224 0.62192 0.0
H1763 H 0.3653 0.82181 0.58425 0.0
H1764 H 0.36864 0.91356 0.65168 0.0
H1765 H 0.40504 0.93853 0.68093 0.0
H1766 H 0.37477 0.90252 0.70461 0.0
H1767 H 0.42241 0.88021 0.73704 0.0
H1768 H 0.45296 0.91629 0.71371 0.0
H1769 H 0.44932 0.8764 0.70645 0.0
H1770 H 0.41424 0.86777 0.55618 0.0
H1771 H 0.45589 0.92157 0.53372 0.0
H1772 H 0.45592 0.95557 0.6411 0.0
C1773 C 0.36007 0.83487 0.6896 0.0
C1774 C 0.33637 0.80682 0.67367 0.0
C1775 C 0.33846 0.80279 0.63527 0.0
C1776 C 0.36422 0.82518 0.61365 0.0
C1777 C 0.38697 0.85269 0.6298 0.0
C1778 C 0.3846 0.85819 0.66643 0.0
C1779 C 0.40828 0.89255 0.67352 0.0
C1780 C 0.38798 0.913 0.67793 0.0
C1781 C 0.43482 0.89127 0.70984 0.0
C1782 C 0.42459 0.90517 0.63549 0.0
C1783 C 0.41249 0.8813 0.61129 0.0
C1784 C 0.4239 0.88665 0.57489 0.0
C1785 C 0.44783 0.91727 0.56248 0.0
C1786 C 0.4596 0.94278 0.58571 0.0
C1787 C 0.44773 0.93648 0.62283 0.0
H1788 H 0.17427 0.27471 0.68648 0.0
H1789 H 0.27779 0.3429 0.69726 0.0
H1790 H 0.25779 0.38743 0.66046 0.0
H1791 H 0.14522 0.31022 0.58822 0.0
H1792 H 0.10384 0.30284 0.59999 0.0
H1793 H 0.12673 0.27656 0.62523 0.0
H1794 H 0.12145 0.28797 0.69244 0.0
H1795 H 0.09855 0.31434 0.66772 0.0
H1796 H 0.13633 0.32952 0.70184 0.0
H1797 H 0.2251 0.42577 0.62385 0.0
H1798 H 0.18591 0.45398 0.59203 0.0
H1799 H 0.10089 0.36223 0.6044 0.0
C1800 C 0.19297 0.29896 0.68063 0.0
C1801 C 0.22818 0.30454 0.69428 0.0
C1802 C 0.25112 0.33712 0.68653 0.0
C1803 C 0.2397 0.36281 0.66577 0.0
C1804 C 0.2049 0.3563 0.65301 0.0
C1805 C 0.18187 0.32501 0.66027 0.0
C1806 C 0.14569 0.32456 0.64454 0.0
C1807 C 0.12939 0.30222 0.61259 0.0
C1808 C 0.12422 0.31343 0.67866 0.0
C1809 C 0.15158 0.36058 0.62692 0.0
C1810 C 0.1861 0.37825 0.63241 0.0
C1811 C 0.19821 0.41187 0.6196 0.0
C1812 C 0.17524 0.42789 0.60131 0.0
C1813 C 0.13944 0.41124 0.59493 0.0
C1814 C 0.12771 0.37647 0.60803 0.0
H1815 H 0.67455 0.19287 0.67756 0.0
H1816 H 0.7748 0.20049 0.66349 0.0
H1817 H 0.74952 0.15653 0.62186 0.0
H1818 H 0.63601 0.1091 0.68596 0.0
H1819 H 0.59596 0.10778 0.6572 0.0
H1820 H 0.62139 0.14239 0.68201 0.0
H1821 H 0.62149 0.18161 0.61581 0.0
H1822 H 0.59541 0.14714 0.59083 0.0
H1823 H 0.63502 0.17441 0.57415 0.0
H1824 H 0.71349 0.10825 0.58726 0.0
H1825 H 0.66982 0.06118 0.55919 0.0
H1826 H 0.59157 0.08487 0.59317 0.0
C1827 C 0.6911 0.18626 0.66431 0.0
C1828 C 0.72675 0.20071 0.67302 0.0
C1829 C 0.74751 0.19013 0.65671 0.0
C1830 C 0.73333 0.16512 0.63307 0.0
C1831 C 0.69814 0.15091 0.62561 0.0
C1832 C 0.67723 0.16144 0.64014 0.0
C1833 C 0.64019 0.14108 0.62881 0.0
C1834 C 0.62235 0.12408 0.6657 0.0
C1835 C 0.62194 0.16233 0.60075 0.0
C1836 C 0.64356 0.11654 0.6073 0.0
C1837 C 0.67727 0.12298 0.60546 0.0
C1838 C 0.68703 0.10326 0.58819 0.0
C1839 C 0.66184 0.07637 0.57239 0.0
C1840 C 0.62693 0.069 0.57377 0.0
C1841 C 0.61785 0.08976 0.59126 0.0
H1842 H 0.80607 0.34171 0.35144 0.0
H1843 H 0.88258 0.32222 0.30731 0.0
H1844 H 0.92695 0.36638 0.33886 0.0
H1845 H 0.84477 0.42769 0.33962 0.0
H1846 H 0.83775 0.43503 0.38543 0.0
H1847 H 0.80882 0.40008 0.36365 0.0
H1848 H 0.81615 0.35948 0.42465 0.0
H1849 H 0.84291 0.39374 0.44959 0.0
H1850 H 0.85819 0.36199 0.44779 0.0
H1851 H 0.96313 0.41394 0.37005 0.0
H1852 H 0.99119 0.46022 0.40656 0.0
H1853 H 0.89414 0.45091 0.43534 0.0
C1854 C 0.83219 0.34659 0.34882 0.0
C1855 C 0.84058 0.3281 0.32674 0.0
C1856 C 0.87516 0.33536 0.32424 0.0
C1857 C 0.90075 0.36072 0.34192 0.0
C1858 C 0.89175 0.37865 0.36278 0.0
C1859 C 0.8585 0.3718 0.36712 0.0
C1860 C 0.85671 0.39521 0.39203 0.0
C1861 C 0.83581 0.41575 0.3687 0.0
C1862 C 0.84266 0.37648 0.43082 0.0
C1863 C 0.89395 0.4165 0.39984 0.0
C1864 C 0.91341 0.40626 0.38245 0.0
C1865 C 0.94826 0.42191 0.38434 0.0
C1866 C 0.96397 0.44831 0.4053 0.0
C1867 C 0.94509 0.45919 0.42448 0.0
C1868 C 0.90936 0.44324 0.42117 0.0
H1869 H 0.63703 0.8303 0.37454 0.0
H1870 H 0.73987 0.85725 0.43457 0.0
H1871 H 0.73052 0.89846 0.46408 0.0
H1872 H 0.63142 0.91102 0.35443 0.0
H1873 H 0.58775 0.89498 0.36294 0.0
H1874 H 0.60449 0.87052 0.34448 0.0
H1875 H 0.58541 0.82413 0.40301 0.0
H1876 H 0.56873 0.84852 0.4216 0.0
H1877 H 0.59949 0.83302 0.45293 0.0
H1878 H 0.7063 0.93319 0.49221 0.0
H1879 H 0.6721 0.96071 0.50999 0.0
H1880 H 0.58603 0.90813 0.43108 0.0
C1881 C 0.6578 0.84519 0.39346 0.0
C1882 C 0.68907 0.84054 0.40252 0.0
C1883 C 0.71574 0.86065 0.42711 0.0
C1884 C 0.71054 0.88386 0.44421 0.0
C1885 C 0.67864 0.88665 0.43609 0.0
C1886 C 0.65297 0.86803 0.41077 0.0
C1887 C 0.62061 0.87433 0.40743 0.0
C1888 C 0.61049 0.88858 0.3648 0.0
C1889 C 0.59189 0.84315 0.42213 0.0
C1890 C 0.63176 0.89927 0.43507 0.0
C1891 C 0.6652 0.90625 0.45158 0.0
C1892 C 0.68021 0.92809 0.47902 0.0
C1893 C 0.6606 0.94349 0.4891 0.0
C1894 C 0.62644 0.9368 0.4718 0.0
C1895 C 0.6121 0.91415 0.44478 0.0
H1896 H 0.18152 0.67358 0.27203 0.0
H1897 H 0.24778 0.72865 0.36361 0.0
H1898 H 0.21435 0.68794 0.41414 0.0
H1899 H 0.10517 0.65123 0.31357 0.0
H1900 H 0.08639 0.61107 0.29922 0.0
H1901 H 0.11625 0.64355 0.27046 0.0
H1902 H 0.15485 0.60905 0.27979 0.0
H1903 H 0.12302 0.57643 0.30575 0.0
H1904 H 0.16609 0.59047 0.32914 0.0
H1905 H 0.17082 0.64268 0.45418 0.0
H1906 H 0.12542 0.59344 0.4813 0.0
H1907 H 0.0894 0.56581 0.36428 0.0
C1908 C 0.1894 0.67652 0.3029 0.0
C1909 C 0.21796 0.70359 0.31421 0.0
C1910 C 0.22671 0.70749 0.35458 0.0
C1911 C 0.20764 0.68464 0.38336 0.0
C1912 C 0.17965 0.6581 0.37129 0.0
C1913 C 0.17084 0.65369 0.33203 0.0
C1914 C 0.1392 0.6235 0.32669 0.0
C1915 C 0.11004 0.63292 0.30095 0.0
C1916 C 0.14628 0.59842 0.30928 0.0
C1917 C 0.13202 0.61112 0.36914 0.0
C1918 C 0.15517 0.63185 0.39431 0.0
C1919 C 0.15278 0.62623 0.43469 0.0
C1920 C 0.12668 0.59837 0.4498 0.0
C1921 C 0.10367 0.576 0.42486 0.0
C1922 C 0.10646 0.58262 0.38398 0.0
H1923 H 0.38681 0.24668 0.31838 0.0
H1924 H 0.28313 0.17902 0.31447 0.0
H1925 H 0.30329 0.13503 0.35218 0.0
H1926 H 0.42486 0.19198 0.30715 0.0
H1927 H 0.46261 0.20687 0.34144 0.0
H1928 H 0.44014 0.23357 0.31655 0.0
H1929 H 0.43454 0.24518 0.38357 0.0
H1930 H 0.45723 0.21873 0.40904 0.0
H1931 H 0.41585 0.21161 0.42053 0.0
H1932 H 0.33547 0.09641 0.38613 0.0
H1933 H 0.37439 0.06758 0.41698 0.0
H1934 H 0.45992 0.15883 0.40413 0.0
C1935 C 0.36823 0.2228 0.32649 0.0
C1936 C 0.33285 0.21706 0.31402 0.0
C1937 C 0.30996 0.18487 0.32434 0.0
C1938 C 0.32142 0.15946 0.34562 0.0
C1939 C 0.35625 0.1659 0.3571 0.0
C1940 C 0.37936 0.19701 0.34846 0.0
C1941 C 0.41547 0.19715 0.36429 0.0
C1942 C 0.43706 0.20805 0.33034 0.0
C1943 C 0.43177 0.2195 0.39625 0.0
C1944 C 0.40938 0.16109 0.38222 0.0
C1945 C 0.37482 0.14373 0.37747 0.0
C1946 C 0.36243 0.11008 0.39014 0.0
C1947 C 0.38519 0.09369 0.40782 0.0
C1948 C 0.42101 0.11004 0.41388 0.0
C1949 C 0.43303 0.14485 0.40083 0.0
H1950 H 0.76495 0.8623 0.69494 0.0
H1951 H 0.69371 0.76352 0.69007 0.0
H1952 H 0.64996 0.78576 0.65201 0.0
H1953 H 0.70457 0.89369 0.71258 0.0
H1954 H 0.72369 0.93352 0.68511 0.0
H1955 H 0.74918 0.90931 0.70859 0.0
H1956 H 0.76876 0.91376 0.6418 0.0
H1957 H 0.74336 0.93799 0.6179 0.0
H1958 H 0.73764 0.90118 0.59981 0.0
H1959 H 0.61281 0.82173 0.61258 0.0
H1960 H 0.58741 0.86387 0.58279 0.0
H1961 H 0.68194 0.93918 0.61881 0.0
C1962 C 0.74025 0.84511 0.68553 0.0
C1963 C 0.73373 0.81076 0.69464 0.0
C1964 C 0.70035 0.78971 0.68261 0.0
C1965 C 0.67508 0.80236 0.6611 0.0
C1966 C 0.68265 0.8364 0.65258 0.0
C1967 C 0.71457 0.85734 0.6651 0.0
C1968 C 0.71633 0.89283 0.65469 0.0
C1969 C 0.72389 0.90825 0.69248 0.0
C1970 C 0.74311 0.91262 0.62689 0.0
C1971 C 0.68054 0.88912 0.63372 0.0
C1972 C 0.66145 0.85638 0.6325 0.0
C1973 C 0.62779 0.84725 0.61398 0.0
C1974 C 0.61338 0.87161 0.59692 0.0
C1975 C 0.63197 0.90546 0.59827 0.0
C1976 C 0.66634 0.91384 0.61711 0.0
H1977 H 0.73613 0.21425 0.38011 0.0
H1978 H 0.7049 0.1862 0.26295 0.0
H1979 H 0.65671 0.13974 0.28634 0.0
H1980 H 0.7149 0.13147 0.43076 0.0
H1981 H 0.70004 0.13832 0.47165 0.0
H1982 H 0.73163 0.17138 0.44576 0.0
H1983 H 0.69359 0.20653 0.43125 0.0
H1984 H 0.6625 0.17358 0.45807 0.0
H1985 H 0.65058 0.18977 0.40797 0.0
H1986 H 0.6121 0.09624 0.32074 0.0
H1987 H 0.57653 0.05356 0.36718 0.0
H1988 H 0.63467 0.10631 0.46422 0.0
C1989 C 0.71882 0.19851 0.35942 0.0
C1990 C 0.72396 0.2047 0.3192 0.0
C1991 C 0.70148 0.18264 0.29354 0.0
C1992 C 0.6737 0.15611 0.30653 0.0
C1993 C 0.66868 0.15124 0.34576 0.0
C1994 C 0.6907 0.17141 0.37216 0.0
C1995 C 0.68031 0.15865 0.41349 0.0
C1996 C 0.70838 0.14939 0.44211 0.0
C1997 C 0.67123 0.18365 0.42857 0.0
C1998 C 0.64899 0.12851 0.40582 0.0
C1999 C 0.6428 0.1251 0.36631 0.0
C2000 C 0.61635 0.09881 0.35167 0.0
C2001 C 0.59608 0.07484 0.37817 0.0
C2002 C 0.60208 0.07721 0.41891 0.0
C2003 C 0.62868 0.10463 0.43293 0.0
H2004 H 0.80892 0.66822 0.28844 0.0
H2005 H 0.85958 0.75555 0.34292 0.0
H2006 H 0.89677 0.72917 0.38825 0.0
H2007 H 0.81516 0.60686 0.37697 0.0
H2008 H 0.8239 0.58185 0.34946 0.0
H2009 H 0.79871 0.60626 0.32534 0.0
H2010 H 0.83949 0.63375 0.27279 0.0
H2011 H 0.86509 0.60975 0.29678 0.0
H2012 H 0.884 0.65368 0.28825 0.0
H2013 H 0.93316 0.69318 0.4253 0.0
H2014 H 0.96186 0.65303 0.44958 0.0
H2015 H 0.88931 0.58859 0.37025 0.0
C2016 C 0.82655 0.68117 0.31142 0.0
C2017 C 0.82859 0.71337 0.31397 0.0
C2018 C 0.8549 0.73018 0.34204 0.0
C2019 C 0.87687 0.71541 0.36758 0.0
C2020 C 0.87396 0.68374 0.36424 0.0
C2021 C 0.84925 0.66684 0.3367 0.0
C2022 C 0.85299 0.63415 0.33673 0.0
C2023 C 0.82078 0.60557 0.34779 0.0
C2024 C 0.86085 0.63275 0.29623 0.0
C2025 C 0.88335 0.63488 0.36881 0.0
C2026 C 0.89524 0.66387 0.38417 0.0
C2027 C 0.92369 0.67048 0.41327 0.0
C2028 C 0.94014 0.64733 0.42698 0.0
C2029 C 0.92854 0.61704 0.41234 0.0
C2030 C 0.89936 0.61115 0.38264 0.0
H2031 H 0.31603 0.83857 0.35569 0.0
H2032 H 0.39474 0.81556 0.32167 0.0
H2033 H 0.43808 0.86099 0.35339 0.0
H2034 H 0.35634 0.92497 0.33867 0.0
H2035 H 0.34337 0.93273 0.38038 0.0
H2036 H 0.31779 0.89709 0.35738 0.0
H2037 H 0.32107 0.85982 0.42441 0.0
H2038 H 0.34614 0.8954 0.44774 0.0
H2039 H 0.36189 0.86282 0.45224 0.0
H2040 H 0.47281 0.91002 0.38445 0.0
H2041 H 0.4986 0.95777 0.41842 0.0
H2042 H 0.39894 0.95128 0.43529 0.0
C2043 C 0.34241 0.84266 0.35552 0.0
C2044 C 0.3518 0.82311 0.33603 0.0
C2045 C 0.38666 0.82975 0.33636 0.0
C2046 C 0.41155 0.8557 0.35424 0.0
C2047 C 0.40142 0.87485 0.37218 0.0
C2048 C 0.36775 0.86851 0.37354 0.0
C2049 C 0.36412 0.8936 0.39426 0.0
C2050 C 0.34423 0.91327 0.36599 0.0
C2051 C 0.34731 0.8769 0.4319 0.0
C2052 C 0.40113 0.91502 0.40426 0.0
C2053 C 0.4219 0.90355 0.39088 0.0
C2054 C 0.45685 0.91894 0.39554 0.0
C2055 C 0.47127 0.94626 0.41514 0.0
C2056 C 0.45112 0.95849 0.43045 0.0
C2057 C 0.41527 0.94271 0.42431 0.0
H2058 H 0.24874 0.41354 0.42082 0.0
H2059 H 0.17726 0.31594 0.4058 0.0
H2060 H 0.13292 0.32882 0.42611 0.0
H2061 H 0.22032 0.41996 0.50796 0.0
H2062 H 0.22624 0.4626 0.49314 0.0
H2063 H 0.25226 0.44572 0.47696 0.0
H2064 H 0.23393 0.46648 0.40407 0.0
H2065 H 0.20781 0.48329 0.42011 0.0
H2066 H 0.18952 0.45468 0.38522 0.0
H2067 H 0.09715 0.35111 0.44906 0.0
H2068 H 0.06942 0.38372 0.46763 0.0
H2069 H 0.164 0.46676 0.46986 0.0
C2070 C 0.22383 0.39479 0.42212 0.0
C2071 C 0.21651 0.36366 0.412 0.0
C2072 C 0.18338 0.34004 0.4131 0.0
C2073 C 0.15814 0.34699 0.42498 0.0
C2074 C 0.16651 0.37759 0.43573 0.0
C2075 C 0.19838 0.40125 0.4341 0.0
C2076 C 0.20035 0.43247 0.44629 0.0
C2077 C 0.22634 0.44065 0.48329 0.0
C2078 C 0.20835 0.4609 0.41188 0.0
C2079 C 0.16454 0.4225 0.45533 0.0
C2080 C 0.14562 0.39066 0.4491 0.0
C2081 C 0.11164 0.37599 0.4542 0.0
C2082 C 0.0962 0.39463 0.46486 0.0
C2083 C 0.11474 0.42749 0.4704 0.0
C2084 C 0.14955 0.44145 0.46653 0.0
H2085 H 0.38738 0.20543 0.54409 0.0
H2086 H 0.36679 0.15636 0.6629 0.0
H2087 H 0.37745 0.10973 0.65029 0.0
H2088 H 0.35637 0.13329 0.49419 0.0
H2089 H 0.39085 0.14899 0.46511 0.0
H2090 H 0.37612 0.17677 0.47999 0.0
H2091 H 0.43683 0.20705 0.51245 0.0
H2092 H 0.45159 0.17959 0.49709 0.0
H2093 H 0.45875 0.18423 0.54852 0.0
H2094 H 0.39469 0.06991 0.62754 0.0
H2095 H 0.4224 0.04269 0.59827 0.0
H2096 H 0.43751 0.11955 0.49759 0.0
C2097 C 0.38507 0.18509 0.56775 0.0
C2098 C 0.37568 0.18504 0.60452 0.0
C2099 C 0.37276 0.1572 0.63399 0.0
C2100 C 0.37905 0.13043 0.62725 0.0
C2101 C 0.38872 0.13173 0.59107 0.0
C2102 C 0.39212 0.15849 0.56193 0.0
C2103 C 0.40639 0.15522 0.5273 0.0
C2104 C 0.38088 0.15348 0.48942 0.0
C2105 C 0.44041 0.18317 0.52101 0.0
C2106 C 0.41101 0.12271 0.54192 0.0
C2107 C 0.39994 0.10924 0.5784 0.0
C2108 C 0.40288 0.07995 0.5987 0.0
C2109 C 0.41832 0.0645 0.58173 0.0
C2110 C 0.43073 0.07842 0.54504 0.0
C2111 C 0.42672 0.10767 0.5247 0.0
H2112 H 0.83503 0.30358 0.64302 0.0
H2113 H 0.86326 0.33903 0.75542 0.0
H2114 H 0.90701 0.38813 0.72827 0.0
H2115 H 0.91752 0.33338 0.61452 0.0
H2116 H 0.90568 0.34673 0.56319 0.0
H2117 H 0.87528 0.31374 0.59077 0.0
H2118 H 0.83318 0.3451 0.57343 0.0
H2119 H 0.86336 0.37682 0.54426 0.0
H2120 H 0.84825 0.3868 0.58249 0.0
H2121 H 0.9491 0.43231 0.69093 0.0
H2122 H 0.9837 0.47334 0.64247 0.0
H2123 H 0.92855 0.41366 0.55057 0.0
C2124 C 0.84972 0.32224 0.66144 0.0
C2125 C 0.84513 0.31738 0.70178 0.0
C2126 C 0.86616 0.3417 0.7251 0.0
C2127 C 0.89107 0.37002 0.70962 0.0
C2128 C 0.89517 0.37395 0.67022 0.0
C2129 C 0.87472 0.35124 0.64595 0.0
C2130 C 0.88488 0.36225 0.60436 0.0
C2131 C 0.89652 0.33753 0.59253 0.0
C2132 C 0.85566 0.36807 0.57436 0.0
C2133 C 0.91443 0.39426 0.60958 0.0
C2134 C 0.91982 0.40017 0.64806 0.0
C2135 C 0.94523 0.42795 0.66072 0.0
C2136 C 0.96504 0.45094 0.6331 0.0
C2137 C 0.95958 0.44624 0.59315 0.0
C2138 C 0.93412 0.41728 0.58125 0.0
H2139 H 0.19663 0.7068 0.63172 0.0
H2140 H 0.24905 0.6544 0.72257 0.0
H2141 H 0.21745 0.60417 0.69517 0.0
H2142 H 0.11517 0.64052 0.63318 0.0
H2143 H 0.10227 0.64728 0.58067 0.0
H2144 H 0.13097 0.68091 0.60558 0.0
H2145 H 0.17442 0.69337 0.55743 0.0
H2146 H 0.14595 0.65969 0.53244 0.0
H2147 H 0.18841 0.66153 0.55239 0.0
H2148 H 0.18168 0.55944 0.65878 0.0
H2149 H 0.1396 0.52081 0.61639 0.0
H2150 H 0.10437 0.59796 0.55089 0.0
C2151 C 0.20154 0.68476 0.64546 0.0
C2152 C 0.22708 0.68525 0.67817 0.0
C2153 C 0.2319 0.65564 0.69598 0.0
C2154 C 0.21335 0.62651 0.68101 0.0
C2155 C 0.18916 0.62687 0.6484 0.0
C2156 C 0.18272 0.65493 0.63088 0.0
C2157 C 0.15401 0.64749 0.59688 0.0
C2158 C 0.12381 0.65447 0.60454 0.0
C2159 C 0.16644 0.66667 0.55745 0.0
C2160 C 0.14549 0.61102 0.59856 0.0
C2161 C 0.16653 0.59994 0.62839 0.0
C2162 C 0.1648 0.56765 0.63546 0.0
C2163 C 0.14089 0.54593 0.61128 0.0
C2164 C 0.1186 0.55639 0.5809 0.0
C2165 C 0.12077 0.58933 0.5745 0.0
loop_
_geom_bond_atom_site_label_1
_geom_bond_atom_site_label_2
_geom_bond_distance
_geom_bond_site_symmetry_2
_ccdc_geom_bond_type
Tb0 N31 2.660 . S
Tb0 N38 2.600 . S
Tb0 O44 2.546 . S
Tb0 O45 2.610 . S
Tb0 O47 2.320 . S
Tb0 O48 2.552 . S
Tb0 O49 2.413 . S
Tb0 O51 2.362 . S
Tb0 O52 2.421 . S
Tb0 C64 2.833 . S
C1 C4 1.432 . S
C1 C5 1.414 . S
C1 N8 1.359 . S
C2 C4 1.417 . S
C2 C6 1.432 . S
C2 C14 1.410 . S
C3 C5 1.444 . S
C3 C6 1.317 . S
C3 H26 0.929 . S
C4 C1 1.432 . S
C4 C2 1.417 . S
C4 N12 1.360 . S
C5 C1 1.414 . S
C5 C3 1.444 . S
C5 C10 1.385 . S
C6 C2 1.432 . S
C6 C3 1.317 . S
C6 H18 0.930 . S
C7 C9 1.392 . S
C7 C10 1.370 . S
C7 H19 0.931 . S
N8 C1 1.359 . S
N8 C9 1.327 . S
N8 Tb11 2.600 . S
C9 C7 1.392 . S
C9 N8 1.327 . S
C9 H16 0.930 . S
C10 C5 1.385 . S
C10 C7 1.370 . S
C10 H29 0.930 . S
Tb11 N8 2.600 . S
Tb11 N12 2.660 . S
Tb11 O45 2.362 . S
Tb11 O46 2.421 . S
Tb11 O50 2.546 . S
Tb11 O51 2.610 . S
Tb11 O53 2.320 . S
Tb11 O54 2.552 . S
Tb11 O55 2.413 . S
Tb11 C75 2.833 . S
N12 C4 1.360 . S
N12 Tb11 2.660 . S
N12 C13 1.305 . S
C13 N12 1.305 . S
C13 C15 1.407 . S
C13 H20 0.930 . S
C14 C2 1.410 . S
C14 C15 1.345 . S
C14 H22 0.930 . S
C15 C13 1.407 . S
C15 C14 1.345 . S
C15 H17 0.930 . S
H16 C9 0.930 . S
H17 C15 0.930 . S
H18 C6 0.930 . S
H19 C7 0.931 . S
H20 C13 0.930 . S
H21 C35 0.930 . S
H22 C14 0.930 . S
H23 C41 0.930 . S
H24 C32 0.930 . S
H25 C39 0.931 . S
H26 C3 0.929 . S
H27 C33 0.930 . S
H28 C66 0.930 . S
H29 C10 0.930 . S
H30 C65 0.929 . S
N31 Tb0 2.660 . S
N31 C32 1.305 . S
N31 C36 1.360 . S
C32 H24 0.930 . S
C32 N31 1.305 . S
C32 C35 1.407 . S
C33 H27 0.930 . S
C33 C34 1.410 . S
C33 C35 1.345 . S
C34 C33 1.410 . S
C34 C36 1.417 . S
C34 C66 1.432 . S
C35 H21 0.930 . S
C35 C32 1.407 . S
C35 C33 1.345 . S
C36 N31 1.360 . S
C36 C34 1.417 . S
C36 C40 1.432 . S
H37 C42 0.930 . S
N38 Tb0 2.600 . S
N38 C40 1.359 . S
N38 C41 1.327 . S
C39 H25 0.931 . S
C39 C41 1.392 . S
C39 C42 1.370 . S
C40 C36 1.432 . S
C40 N38 1.359 . S
C40 C43 1.414 . S
C41 H23 0.930 . S
C41 N38 1.327 . S
C41 C39 1.392 . S
C42 H37 0.930 . S
C42 C39 1.370 . S
C42 C43 1.385 . S
C43 C40 1.414 . S
C43 C42 1.385 . S
C43 C65 1.444 . S
O44 Tb0 2.546 . S
O44 C64 1.251 . S
O45 Tb0 2.610 . S
O45 Tb11 2.362 . S
O45 C56 1.283 . S
O46 Tb11 2.421 . S
O46 C63 1.262 . S
O47 Tb0 2.320 . S
O47 C63 1.260 . S
O48 Tb0 2.552 . S
O48 C56 1.243 . S
O49 Tb0 2.413 . S
O49 C64 1.256 . S
O50 Tb11 2.546 . S
O50 C75 1.251 . S
O51 Tb0 2.362 . S
O51 Tb11 2.610 . S
O51 C67 1.283 . S
O52 Tb0 2.421 . S
O52 C74 1.262 . S
O53 Tb11 2.320 . S
O53 C74 1.260 . S
O54 Tb11 2.552 . S
O54 C67 1.243 . S
O55 Tb11 2.413 . S
O55 C75 1.256 . S
C56 O45 1.283 . S
C56 O48 1.243 . S
C57 C59 1.382 . S
C57 C61 1.393 . S
C57 C64 1.500 . S
C58 C59 1.400 . S
C58 C60 1.384 . S
C59 C57 1.382 . S
C59 C58 1.400 . S
C59 H76 0.930 . S
C60 C58 1.384 . S
C60 C62 1.392 . S
C60 H77 0.931 . S
C61 C57 1.393 . S
C61 C62 1.401 . S
C61 H78 0.930 . S
C62 C60 1.392 . S
C62 C61 1.401 . S
C62 H79 0.930 . S
C63 O46 1.262 . S
C63 O47 1.260 . S
C64 Tb0 2.833 . S
C64 O44 1.251 . S
C64 O49 1.256 . S
C64 C57 1.500 . S
C65 H30 0.929 . S
C65 C43 1.444 . S
C65 C66 1.317 . S
C66 H28 0.930 . S
C66 C34 1.432 . S
C66 C65 1.317 . S
C67 O51 1.283 . S
C67 O54 1.243 . S
C68 C69 1.382 . S
C68 C72 1.393 . S
C68 C75 1.500 . S
C69 C68 1.382 . S
C69 C70 1.400 . S
C69 H80 0.930 . S
C70 C69 1.400 . S
C70 C71 1.384 . S
C71 C70 1.384 . S
C71 C73 1.392 . S
C71 H81 0.931 . S
C72 C68 1.393 . S
C72 C73 1.401 . S
C72 H82 0.930 . S
C73 C71 1.392 . S
C73 C72 1.401 . S
C73 H83 0.930 . S
C74 O52 1.262 . S
C74 O53 1.260 . S
C75 Tb11 2.833 . S
C75 O50 1.251 . S
C75 O55 1.256 . S
C75 C68 1.500 . S
H76 C59 0.930 . S
H77 C60 0.931 . S
H78 C61 0.930 . S
H79 C62 0.930 . S
H80 C69 0.930 . S
H81 C71 0.931 . S
H82 C72 0.930 . S
H83 C73 0.930 . S
Tb84 N115 2.660 . S
Tb84 N122 2.600 . S
Tb84 O128 2.546 . S
Tb84 O129 2.610 . S
Tb84 O131 2.320 . S
Tb84 O132 2.552 . S
Tb84 O133 2.413 . S
Tb84 O135 2.362 . S
Tb84 O136 2.421 . S
Tb84 C148 2.833 . S
C85 C88 1.432 . S
C85 C89 1.414 . S
C85 N92 1.359 . S
C86 C88 1.417 . S
C86 C90 1.432 . S
C86 C98 1.410 . S
C87 C89 1.444 . S
C87 C90 1.317 . S
C87 H110 0.929 . S
C88 C85 1.432 . S
C88 C86 1.417 . S
C88 N96 1.360 . S
C89 C85 1.414 . S
C89 C87 1.444 . S
C89 C94 1.385 . S
C90 C86 1.432 . S
C90 C87 1.317 . S
C90 H102 0.930 . S
C91 C93 1.392 . S
C91 C94 1.370 . S
C91 H103 0.931 . S
N92 C85 1.359 . S
N92 C93 1.327 . S
N92 Tb95 2.600 . S
C93 C91 1.392 . S
C93 N92 1.327 . S
C93 H100 0.930 . S
C94 C89 1.385 . S
C94 C91 1.370 . S
C94 H113 0.930 . S
Tb95 N92 2.600 . S
Tb95 N96 2.660 . S
Tb95 O129 2.362 . S
Tb95 O130 2.421 . S
Tb95 O134 2.546 . S
Tb95 O135 2.610 . S
Tb95 O137 2.320 . S
Tb95 O138 2.552 . S
Tb95 O139 2.413 . S
Tb95 C159 2.833 . S
N96 C88 1.360 . S
N96 Tb95 2.660 . S
N96 C97 1.305 . S
C97 N96 1.305 . S
C97 C99 1.407 . S
C97 H104 0.930 . S
C98 C86 1.410 . S
C98 C99 1.345 . S
C98 H106 0.930 . S
C99 C97 1.407 . S
C99 C98 1.345 . S
C99 H101 0.930 . S
H100 C93 0.930 . S
H101 C99 0.930 . S
H102 C90 0.930 . S
H103 C91 0.931 . S
H104 C97 0.930 . S
H105 C119 0.930 . S
H106 C98 0.930 . S
H107 C125 0.930 . S
H108 C116 0.930 . S
H109 C123 0.931 . S
H110 C87 0.929 . S
H111 C117 0.930 . S
H112 C150 0.930 . S
H113 C94 0.930 . S
H114 C149 0.929 . S
N115 Tb84 2.660 . S
N115 C116 1.305 . S
N115 C120 1.360 . S
C116 H108 0.930 . S
C116 N115 1.305 . S
C116 C119 1.407 . S
C117 H111 0.930 . S
C117 C118 1.410 . S
C117 C119 1.345 . S
C118 C117 1.410 . S
C118 C120 1.417 . S
C118 C150 1.432 . S
C119 H105 0.930 . S
C119 C116 1.407 . S
C119 C117 1.345 . S
C120 N115 1.360 . S
C120 C118 1.417 . S
C120 C124 1.432 . S
H121 C126 0.930 . S
N122 Tb84 2.600 . S
N122 C124 1.359 . S
N122 C125 1.327 . S
C123 H109 0.931 . S
C123 C125 1.392 . S
C123 C126 1.370 . S
C124 C120 1.432 . S
C124 N122 1.359 . S
C124 C127 1.414 . S
C125 H107 0.930 . S
C125 N122 1.327 . S
C125 C123 1.392 . S
C126 H121 0.930 . S
C126 C123 1.370 . S
C126 C127 1.385 . S
C127 C124 1.414 . S
C127 C126 1.385 . S
C127 C149 1.444 . S
O128 Tb84 2.546 . S
O128 C148 1.251 . S
O129 Tb84 2.610 . S
O129 Tb95 2.362 . S
O129 C140 1.283 . S
O130 Tb95 2.421 . S
O130 C147 1.262 . S
O131 Tb84 2.320 . S
O131 C147 1.260 . S
O132 Tb84 2.552 . S
O132 C140 1.243 . S
O133 Tb84 2.413 . S
O133 C148 1.256 . S
O134 Tb95 2.546 . S
O134 C159 1.251 . S
O135 Tb84 2.362 . S
O135 Tb95 2.610 . S
O135 C151 1.283 . S
O136 Tb84 2.421 . S
O136 C158 1.262 . S
O137 Tb95 2.320 . S
O137 C158 1.260 . S
O138 Tb95 2.552 . S
O138 C151 1.243 . S
O139 Tb95 2.413 . S
O139 C159 1.256 . S
C140 O129 1.283 . S
C140 O132 1.243 . S
C141 C143 1.382 . S
C141 C145 1.393 . S
C141 C148 1.500 . S
C142 C143 1.400 . S
C142 C144 1.384 . S
C143 C141 1.382 . S
C143 C142 1.400 . S
C143 H160 0.930 . S
C144 C142 1.384 . S
C144 C146 1.392 . S
C144 H161 0.931 . S
C145 C141 1.393 . S
C145 C146 1.401 . S
C145 H162 0.930 . S
C146 C144 1.392 . S
C146 C145 1.401 . S
C146 H163 0.930 . S
C147 O130 1.262 . S
C147 O131 1.260 . S
C148 Tb84 2.833 . S
C148 O128 1.251 . S
C148 O133 1.256 . S
C148 C141 1.500 . S
C149 H114 0.929 . S
C149 C127 1.444 . S
C149 C150 1.317 . S
C150 H112 0.930 . S
C150 C118 1.432 . S
C150 C149 1.317 . S
C151 O135 1.283 . S
C151 O138 1.243 . S
C152 C153 1.382 . S
C152 C156 1.393 . S
C152 C159 1.500 . S
C153 C152 1.382 . S
C153 C154 1.400 . S
C153 H164 0.930 . S
C154 C153 1.400 . S
C154 C155 1.384 . S
C155 C154 1.384 . S
C155 C157 1.392 . S
C155 H165 0.931 . S
C156 C152 1.393 . S
C156 C157 1.401 . S
C156 H166 0.930 . S
C157 C155 1.392 . S
C157 C156 1.401 . S
C157 H167 0.930 . S
C158 O136 1.262 . S
C158 O137 1.260 . S
C159 Tb95 2.833 . S
C159 O134 1.251 . S
C159 O139 1.256 . S
C159 C152 1.500 . S
H160 C143 0.930 . S
H161 C144 0.931 . S
H162 C145 0.930 . S
H163 C146 0.930 . S
H164 C153 0.930 . S
H165 C155 0.931 . S
H166 C156 0.930 . S
H167 C157 0.930 . S
Tb168 N199 2.660 . S
Tb168 N206 2.600 . S
Tb168 O212 2.546 . S
Tb168 O213 2.610 . S
Tb168 O215 2.320 . S
Tb168 O216 2.552 . S
Tb168 O217 2.413 . S
Tb168 O219 2.362 . S
Tb168 O220 2.421 . S
Tb168 C232 2.833 . S
C169 C172 1.432 . S
C169 C173 1.414 . S
C169 N176 1.359 . S
C170 C172 1.417 . S
C170 C174 1.432 . S
C170 C182 1.410 . S
C171 C173 1.444 . S
C171 C174 1.317 . S
C171 H194 0.929 . S
C172 C169 1.432 . S
C172 C170 1.417 . S
C172 N180 1.360 . S
C173 C169 1.414 . S
C173 C171 1.444 . S
C173 C178 1.385 . S
C174 C170 1.432 . S
C174 C171 1.317 . S
C174 H186 0.930 . S
C175 C177 1.392 . S
C175 C178 1.370 . S
C175 H187 0.931 . S
N176 C169 1.359 . S
N176 C177 1.327 . S
N176 Tb179 2.600 . S
C177 C175 1.392 . S
C177 N176 1.327 . S
C177 H184 0.930 . S
C178 C173 1.385 . S
C178 C175 1.370 . S
C178 H197 0.930 . S
Tb179 N176 2.600 . S
Tb179 N180 2.660 . S
Tb179 O213 2.362 . S
Tb179 O214 2.421 . S
Tb179 O218 2.546 . S
Tb179 O219 2.610 . S
Tb179 O221 2.320 . S
Tb179 O222 2.552 . S
Tb179 O223 2.413 . S
Tb179 C243 2.833 . S
N180 C172 1.360 . S
N180 Tb179 2.660 . S
N180 C181 1.305 . S
C181 N180 1.305 . S
C181 C183 1.407 . S
C181 H188 0.930 . S
C182 C170 1.410 . S
C182 C183 1.345 . S
C182 H190 0.930 . S
C183 C181 1.407 . S
C183 C182 1.345 . S
C183 H185 0.930 . S
H184 C177 0.930 . S
H185 C183 0.930 . S
H186 C174 0.930 . S
H187 C175 0.931 . S
H188 C181 0.930 . S
H189 C203 0.930 . S
H190 C182 0.930 . S
H191 C209 0.930 . S
H192 C200 0.930 . S
H193 C207 0.931 . S
H194 C171 0.929 . S
H195 C201 0.930 . S
H196 C234 0.930 . S
H197 C178 0.930 . S
H198 C233 0.929 . S
N199 Tb168 2.660 . S
N199 C200 1.305 . S
N199 C204 1.360 . S
C200 H192 0.930 . S
C200 N199 1.305 . S
C200 C203 1.407 . S
C201 H195 0.930 . S
C201 C202 1.410 . S
C201 C203 1.345 . S
C202 C201 1.410 . S
C202 C204 1.417 . S
C202 C234 1.432 . S
C203 H189 0.930 . S
C203 C200 1.407 . S
C203 C201 1.345 . S
C204 N199 1.360 . S
C204 C202 1.417 . S
C204 C208 1.432 . S
H205 C210 0.930 . S
N206 Tb168 2.600 . S
N206 C208 1.359 . S
N206 C209 1.327 . S
C207 H193 0.931 . S
C207 C209 1.392 . S
C207 C210 1.370 . S
C208 C204 1.432 . S
C208 N206 1.359 . S
C208 C211 1.414 . S
C209 H191 0.930 . S
C209 N206 1.327 . S
C209 C207 1.392 . S
C210 H205 0.930 . S
C210 C207 1.370 . S
C210 C211 1.385 . S
C211 C208 1.414 . S
C211 C210 1.385 . S
C211 C233 1.444 . S
O212 Tb168 2.546 . S
O212 C232 1.251 . S
O213 Tb168 2.610 . S
O213 Tb179 2.362 . S
O213 C224 1.283 . S
O214 Tb179 2.421 . S
O214 C231 1.262 . S
O215 Tb168 2.320 . S
O215 C231 1.260 . S
O216 Tb168 2.552 . S
O216 C224 1.243 . S
O217 Tb168 2.413 . S
O217 C232 1.256 . S
O218 Tb179 2.546 . S
O218 C243 1.251 . S
O219 Tb168 2.362 . S
O219 Tb179 2.610 . S
O219 C235 1.283 . S
O220 Tb168 2.421 . S
O220 C242 1.262 . S
O221 Tb179 2.320 . S
O221 C242 1.260 . S
O222 Tb179 2.552 . S
O222 C235 1.243 . S
O223 Tb179 2.413 . S
O223 C243 1.256 . S
C224 O213 1.283 . S
C224 O216 1.243 . S
C225 C227 1.382 . S
C225 C229 1.393 . S
C225 C232 1.500 . S
C226 C227 1.400 . S
C226 C228 1.384 . S
C227 C225 1.382 . S
C227 C226 1.400 . S
C227 H244 0.930 . S
C228 C226 1.384 . S
C228 C230 1.392 . S
C228 H245 0.931 . S
C229 C225 1.393 . S
C229 C230 1.401 . S
C229 H246 0.930 . S
C230 C228 1.392 . S
C230 C229 1.401 . S
C230 H247 0.930 . S
C231 O214 1.262 . S
C231 O215 1.260 . S
C232 Tb168 2.833 . S
C232 O212 1.251 . S
C232 O217 1.256 . S
C232 C225 1.500 . S
C233 H198 0.929 . S
C233 C211 1.444 . S
C233 C234 1.317 . S
C234 H196 0.930 . S
C234 C202 1.432 . S
C234 C233 1.317 . S
C235 O219 1.283 . S
C235 O222 1.243 . S
C236 C237 1.382 . S
C236 C240 1.393 . S
C236 C243 1.500 . S
C237 C236 1.382 . S
C237 C238 1.400 . S
C237 H248 0.930 . S
C238 C237 1.400 . S
C238 C239 1.384 . S
C239 C238 1.384 . S
C239 C241 1.392 . S
C239 H249 0.931 . S
C240 C236 1.393 . S
C240 C241 1.401 . S
C240 H250 0.930 . S
C241 C239 1.392 . S
C241 C240 1.401 . S
C241 H251 0.930 . S
C242 O220 1.262 . S
C242 O221 1.260 . S
C243 Tb179 2.833 . S
C243 O218 1.251 . S
C243 O223 1.256 . S
C243 C236 1.500 . S
H244 C227 0.930 . S
H245 C228 0.931 . S
H246 C229 0.930 . S
H247 C230 0.930 . S
H248 C237 0.930 . S
H249 C239 0.931 . S
H250 C240 0.930 . S
H251 C241 0.930 . S
Tb252 N283 2.660 . S
Tb252 N290 2.600 . S
Tb252 O296 2.546 . S
Tb252 O297 2.610 . S
Tb252 O299 2.320 . S
Tb252 O300 2.552 . S
Tb252 O301 2.413 . S
Tb252 O303 2.362 . S
Tb252 O304 2.421 . S
Tb252 C316 2.833 . S
C253 C256 1.432 . S
C253 C257 1.414 . S
C253 N260 1.359 . S
C254 C256 1.417 . S
C254 C258 1.432 . S
C254 C266 1.410 . S
C255 C257 1.444 . S
C255 C258 1.317 . S
C255 H278 0.929 . S
C256 C253 1.432 . S
C256 C254 1.417 . S
C256 N264 1.360 . S
C257 C253 1.414 . S
C257 C255 1.444 . S
C257 C262 1.385 . S
C258 C254 1.432 . S
C258 C255 1.317 . S
C258 H270 0.930 . S
C259 C261 1.392 . S
C259 C262 1.370 . S
C259 H271 0.931 . S
N260 C253 1.359 . S
N260 C261 1.327 . S
N260 Tb263 2.600 . S
C261 C259 1.392 . S
C261 N260 1.327 . S
C261 H268 0.930 . S
C262 C257 1.385 . S
C262 C259 1.370 . S
C262 H281 0.930 . S
Tb263 N260 2.600 . S
Tb263 N264 2.660 . S
Tb263 O297 2.362 . S
Tb263 O298 2.421 . S
Tb263 O302 2.546 . S
Tb263 O303 2.610 . S
Tb263 O305 2.320 . S
Tb263 O306 2.552 . S
Tb263 O307 2.413 . S
Tb263 C327 2.833 . S
N264 C256 1.360 . S
N264 Tb263 2.660 . S
N264 C265 1.305 . S
C265 N264 1.305 . S
C265 C267 1.407 . S
C265 H272 0.930 . S
C266 C254 1.410 . S
C266 C267 1.345 . S
C266 H274 0.930 . S
C267 C265 1.407 . S
C267 C266 1.345 . S
C267 H269 0.930 . S
H268 C261 0.930 . S
H269 C267 0.930 . S
H270 C258 0.930 . S
H271 C259 0.931 . S
H272 C265 0.930 . S
H273 C287 0.930 . S
H274 C266 0.930 . S
H275 C293 0.930 . S
H276 C284 0.930 . S
H277 C291 0.931 . S
H278 C255 0.929 . S
H279 C285 0.930 . S
H280 C318 0.930 . S
H281 C262 0.930 . S
H282 C317 0.929 . S
N283 Tb252 2.660 . S
N283 C284 1.305 . S
N283 C288 1.360 . S
C284 H276 0.930 . S
C284 N283 1.305 . S
C284 C287 1.407 . S
C285 H279 0.930 . S
C285 C286 1.410 . S
C285 C287 1.345 . S
C286 C285 1.410 . S
C286 C288 1.417 . S
C286 C318 1.432 . S
C287 H273 0.930 . S
C287 C284 1.407 . S
C287 C285 1.345 . S
C288 N283 1.360 . S
C288 C286 1.417 . S
C288 C292 1.432 . S
H289 C294 0.930 . S
N290 Tb252 2.600 . S
N290 C292 1.359 . S
N290 C293 1.327 . S
C291 H277 0.931 . S
C291 C293 1.392 . S
C291 C294 1.370 . S
C292 C288 1.432 . S
C292 N290 1.359 . S
C292 C295 1.414 . S
C293 H275 0.930 . S
C293 N290 1.327 . S
C293 C291 1.392 . S
C294 H289 0.930 . S
C294 C291 1.370 . S
C294 C295 1.385 . S
C295 C292 1.414 . S
C295 C294 1.385 . S
C295 C317 1.444 . S
O296 Tb252 2.546 . S
O296 C316 1.251 . S
O297 Tb252 2.610 . S
O297 Tb263 2.362 . S
O297 C308 1.283 . S
O298 Tb263 2.421 . S
O298 C315 1.262 . S
O299 Tb252 2.320 . S
O299 C315 1.260 . S
O300 Tb252 2.552 . S
O300 C308 1.243 . S
O301 Tb252 2.413 . S
O301 C316 1.256 . S
O302 Tb263 2.546 . S
O302 C327 1.251 . S
O303 Tb252 2.362 . S
O303 Tb263 2.610 . S
O303 C319 1.283 . S
O304 Tb252 2.421 . S
O304 C326 1.262 . S
O305 Tb263 2.320 . S
O305 C326 1.260 . S
O306 Tb263 2.552 . S
O306 C319 1.243 . S
O307 Tb263 2.413 . S
O307 C327 1.256 . S
C308 O297 1.283 . S
C308 O300 1.243 . S
C309 C311 1.382 . S
C309 C313 1.393 . S
C309 C316 1.500 . S
C310 C311 1.400 . S
C310 C312 1.384 . S
C311 C309 1.382 . S
C311 C310 1.400 . S
C311 H328 0.930 . S
C312 C310 1.384 . S
C312 C314 1.392 . S
C312 H329 0.931 . S
C313 C309 1.393 . S
C313 C314 1.401 . S
C313 H330 0.930 . S
C314 C312 1.392 . S
C314 C313 1.401 . S
C314 H331 0.930 . S
C315 O298 1.262 . S
C315 O299 1.260 . S
C316 Tb252 2.833 . S
C316 O296 1.251 . S
C316 O301 1.256 . S
C316 C309 1.500 . S
C317 H282 0.929 . S
C317 C295 1.444 . S
C317 C318 1.317 . S
C318 H280 0.930 . S
C318 C286 1.432 . S
C318 C317 1.317 . S
C319 O303 1.283 . S
C319 O306 1.243 . S
C320 C321 1.382 . S
C320 C324 1.393 . S
C320 C327 1.500 . S
C321 C320 1.382 . S
C321 C322 1.400 . S
C321 H332 0.930 . S
C322 C321 1.400 . S
C322 C323 1.384 . S
C323 C322 1.384 . S
C323 C325 1.392 . S
C323 H333 0.931 . S
C324 C320 1.393 . S
C324 C325 1.401 . S
C324 H334 0.930 . S
C325 C323 1.392 . S
C325 C324 1.401 . S
C325 H335 0.930 . S
C326 O304 1.262 . S
C326 O305 1.260 . S
C327 Tb263 2.833 . S
C327 O302 1.251 . S
C327 O307 1.256 . S
C327 C320 1.500 . S
H328 C311 0.930 . S
H329 C312 0.931 . S
H330 C313 0.930 . S
H331 C314 0.930 . S
H332 C321 0.930 . S
H333 C323 0.931 . S
H334 C324 0.930 . S
H335 C325 0.930 . S
Tb336 N367 2.660 . S
Tb336 N374 2.600 . S
Tb336 O380 2.546 . S
Tb336 O381 2.610 . S
Tb336 O383 2.320 . S
Tb336 O384 2.552 . S
Tb336 O385 2.413 . S
Tb336 O387 2.362 . S
Tb336 O388 2.421 . S
Tb336 C400 2.833 . S
C337 C340 1.432 . S
C337 C341 1.414 . S
C337 N344 1.359 . S
C338 C340 1.417 . S
C338 C342 1.432 . S
C338 C350 1.410 . S
C339 C341 1.444 . S
C339 C342 1.317 . S
C339 H362 0.929 . S
C340 C337 1.432 . S
C340 C338 1.417 . S
C340 N348 1.360 . S
C341 C337 1.414 . S
C341 C339 1.444 . S
C341 C346 1.385 . S
C342 C338 1.432 . S
C342 C339 1.317 . S
C342 H354 0.930 . S
C343 C345 1.392 . S
C343 C346 1.370 . S
C343 H355 0.931 . S
N344 C337 1.359 . S
N344 C345 1.327 . S
N344 Tb347 2.600 . S
C345 C343 1.392 . S
C345 N344 1.327 . S
C345 H352 0.930 . S
C346 C341 1.385 . S
C346 C343 1.370 . S
C346 H365 0.930 . S
Tb347 N344 2.600 . S
Tb347 N348 2.660 . S
Tb347 O381 2.362 . S
Tb347 O382 2.421 . S
Tb347 O386 2.546 . S
Tb347 O387 2.610 . S
Tb347 O389 2.320 . S
Tb347 O390 2.552 . S
Tb347 O391 2.413 . S
Tb347 C411 2.833 . S
N348 C340 1.360 . S
N348 Tb347 2.660 . S
N348 C349 1.305 . S
C349 N348 1.305 . S
C349 C351 1.407 . S
C349 H356 0.930 . S
C350 C338 1.410 . S
C350 C351 1.345 . S
C350 H358 0.930 . S
C351 C349 1.407 . S
C351 C350 1.345 . S
C351 H353 0.930 . S
H352 C345 0.930 . S
H353 C351 0.930 . S
H354 C342 0.930 . S
H355 C343 0.931 . S
H356 C349 0.930 . S
H357 C371 0.930 . S
H358 C350 0.930 . S
H359 C377 0.930 . S
H360 C368 0.930 . S
H361 C375 0.931 . S
H362 C339 0.929 . S
H363 C369 0.930 . S
H364 C402 0.930 . S
H365 C346 0.930 . S
H366 C401 0.929 . S
N367 Tb336 2.660 . S
N367 C368 1.305 . S
N367 C372 1.360 . S
C368 H360 0.930 . S
C368 N367 1.305 . S
C368 C371 1.407 . S
C369 H363 0.930 . S
C369 C370 1.410 . S
C369 C371 1.345 . S
C370 C369 1.410 . S
C370 C372 1.417 . S
C370 C402 1.432 . S
C371 H357 0.930 . S
C371 C368 1.407 . S
C371 C369 1.345 . S
C372 N367 1.360 . S
C372 C370 1.417 . S
C372 C376 1.432 . S
H373 C378 0.930 . S
N374 Tb336 2.600 . S
N374 C376 1.359 . S
N374 C377 1.327 . S
C375 H361 0.931 . S
C375 C377 1.392 . S
C375 C378 1.370 . S
C376 C372 1.432 . S
C376 N374 1.359 . S
C376 C379 1.414 . S
C377 H359 0.930 . S
C377 N374 1.327 . S
C377 C375 1.392 . S
C378 H373 0.930 . S
C378 C375 1.370 . S
C378 C379 1.385 . S
C379 C376 1.414 . S
C379 C378 1.385 . S
C379 C401 1.444 . S
O380 Tb336 2.546 . S
O380 C400 1.251 . S
O381 Tb336 2.610 . S
O381 Tb347 2.362 . S
O381 C392 1.283 . S
O382 Tb347 2.421 . S
O382 C399 1.262 . S
O383 Tb336 2.320 . S
O383 C399 1.260 . S
O384 Tb336 2.552 . S
O384 C392 1.243 . S
O385 Tb336 2.413 . S
O385 C400 1.256 . S
O386 Tb347 2.546 . S
O386 C411 1.251 . S
O387 Tb336 2.362 . S
O387 Tb347 2.610 . S
O387 C403 1.283 . S
O388 Tb336 2.421 . S
O388 C410 1.262 . S
O389 Tb347 2.320 . S
O389 C410 1.260 . S
O390 Tb347 2.552 . S
O390 C403 1.243 . S
O391 Tb347 2.413 . S
O391 C411 1.256 . S
C392 O381 1.283 . S
C392 O384 1.243 . S
C393 C395 1.382 . S
C393 C397 1.393 . S
C393 C400 1.500 . S
C394 C395 1.400 . S
C394 C396 1.384 . S
C395 C393 1.382 . S
C395 C394 1.400 . S
C395 H412 0.930 . S
C396 C394 1.384 . S
C396 C398 1.392 . S
C396 H413 0.931 . S
C397 C393 1.393 . S
C397 C398 1.401 . S
C397 H414 0.930 . S
C398 C396 1.392 . S
C398 C397 1.401 . S
C398 H415 0.930 . S
C399 O382 1.262 . S
C399 O383 1.260 . S
C400 Tb336 2.833 . S
C400 O380 1.251 . S
C400 O385 1.256 . S
C400 C393 1.500 . S
C401 H366 0.929 . S
C401 C379 1.444 . S
C401 C402 1.317 . S
C402 H364 0.930 . S
C402 C370 1.432 . S
C402 C401 1.317 . S
C403 O387 1.283 . S
C403 O390 1.243 . S
C404 C405 1.382 . S
C404 C408 1.393 . S
C404 C411 1.500 . S
C405 C404 1.382 . S
C405 C406 1.400 . S
C405 H416 0.930 . S
C406 C405 1.400 . S
C406 C407 1.384 . S
C407 C406 1.384 . S
C407 C409 1.392 . S
C407 H417 0.931 . S
C408 C404 1.393 . S
C408 C409 1.401 . S
C408 H418 0.930 . S
C409 C407 1.392 . S
C409 C408 1.401 . S
C409 H419 0.930 . S
C410 O388 1.262 . S
C410 O389 1.260 . S
C411 Tb347 2.833 . S
C411 O386 1.251 . S
C411 O391 1.256 . S
C411 C404 1.500 . S
H412 C395 0.930 . S
H413 C396 0.931 . S
H414 C397 0.930 . S
H415 C398 0.930 . S
H416 C405 0.930 . S
H417 C407 0.931 . S
H418 C408 0.930 . S
H419 C409 0.930 . S
Tb420 N451 2.660 . S
Tb420 N458 2.600 . S
Tb420 O464 2.546 . S
Tb420 O465 2.610 . S
Tb420 O467 2.320 . S
Tb420 O468 2.552 . S
Tb420 O469 2.413 . S
Tb420 O471 2.362 . S
Tb420 O472 2.421 . S
Tb420 C484 2.833 . S
C421 C424 1.432 . S
C421 C425 1.414 . S
C421 N428 1.359 . S
C422 C424 1.417 . S
C422 C426 1.432 . S
C422 C434 1.410 . S
C423 C425 1.444 . S
C423 C426 1.317 . S
C423 H446 0.929 . S
C424 C421 1.432 . S
C424 C422 1.417 . S
C424 N432 1.360 . S
C425 C421 1.414 . S
C425 C423 1.444 . S
C425 C430 1.385 . S
C426 C422 1.432 . S
C426 C423 1.317 . S
C426 H438 0.930 . S
C427 C429 1.392 . S
C427 C430 1.370 . S
C427 H439 0.931 . S
N428 C421 1.359 . S
N428 C429 1.327 . S
N428 Tb431 2.600 . S
C429 C427 1.392 . S
C429 N428 1.327 . S
C429 H436 0.930 . S
C430 C425 1.385 . S
C430 C427 1.370 . S
C430 H449 0.930 . S
Tb431 N428 2.600 . S
Tb431 N432 2.660 . S
Tb431 O465 2.362 . S
Tb431 O466 2.421 . S
Tb431 O470 2.546 . S
Tb431 O471 2.610 . S
Tb431 O473 2.320 . S
Tb431 O474 2.552 . S
Tb431 O475 2.413 . S
Tb431 C495 2.833 . S
N432 C424 1.360 . S
N432 Tb431 2.660 . S
N432 C433 1.305 . S
C433 N432 1.305 . S
C433 C435 1.407 . S
C433 H440 0.930 . S
C434 C422 1.410 . S
C434 C435 1.345 . S
C434 H442 0.930 . S
C435 C433 1.407 . S
C435 C434 1.345 . S
C435 H437 0.930 . S
H436 C429 0.930 . S
H437 C435 0.930 . S
H438 C426 0.930 . S
H439 C427 0.931 . S
H440 C433 0.930 . S
H441 C455 0.930 . S
H442 C434 0.930 . S
H443 C461 0.930 . S
H444 C452 0.930 . S
H445 C459 0.931 . S
H446 C423 0.929 . S
H447 C453 0.930 . S
H448 C486 0.930 . S
H449 C430 0.930 . S
H450 C485 0.929 . S
N451 Tb420 2.660 . S
N451 C452 1.305 . S
N451 C456 1.360 . S
C452 H444 0.930 . S
C452 N451 1.305 . S
C452 C455 1.407 . S
C453 H447 0.930 . S
C453 C454 1.410 . S
C453 C455 1.345 . S
C454 C453 1.410 . S
C454 C456 1.417 . S
C454 C486 1.432 . S
C455 H441 0.930 . S
C455 C452 1.407 . S
C455 C453 1.345 . S
C456 N451 1.360 . S
C456 C454 1.417 . S
C456 C460 1.432 . S
H457 C462 0.930 . S
N458 Tb420 2.600 . S
N458 C460 1.359 . S
N458 C461 1.327 . S
C459 H445 0.931 . S
C459 C461 1.392 . S
C459 C462 1.370 . S
C460 C456 1.432 . S
C460 N458 1.359 . S
C460 C463 1.414 . S
C461 H443 0.930 . S
C461 N458 1.327 . S
C461 C459 1.392 . S
C462 H457 0.930 . S
C462 C459 1.370 . S
C462 C463 1.385 . S
C463 C460 1.414 . S
C463 C462 1.385 . S
C463 C485 1.444 . S
O464 Tb420 2.546 . S
O464 C484 1.251 . S
O465 Tb420 2.610 . S
O465 Tb431 2.362 . S
O465 C476 1.283 . S
O466 Tb431 2.421 . S
O466 C483 1.262 . S
O467 Tb420 2.320 . S
O467 C483 1.260 . S
O468 Tb420 2.552 . S
O468 C476 1.243 . S
O469 Tb420 2.413 . S
O469 C484 1.256 . S
O470 Tb431 2.546 . S
O470 C495 1.251 . S
O471 Tb420 2.362 . S
O471 Tb431 2.610 . S
O471 C487 1.283 . S
O472 Tb420 2.421 . S
O472 C494 1.262 . S
O473 Tb431 2.320 . S
O473 C494 1.260 . S
O474 Tb431 2.552 . S
O474 C487 1.243 . S
O475 Tb431 2.413 . S
O475 C495 1.256 . S
C476 O465 1.283 . S
C476 O468 1.243 . S
C477 C479 1.382 . S
C477 C481 1.393 . S
C477 C484 1.500 . S
C478 C479 1.400 . S
C478 C480 1.384 . S
C479 C477 1.382 . S
C479 C478 1.400 . S
C479 H496 0.930 . S
C480 C478 1.384 . S
C480 C482 1.392 . S
C480 H497 0.931 . S
C481 C477 1.393 . S
C481 C482 1.401 . S
C481 H498 0.930 . S
C482 C480 1.392 . S
C482 C481 1.401 . S
C482 H499 0.930 . S
C483 O466 1.262 . S
C483 O467 1.260 . S
C484 Tb420 2.833 . S
C484 O464 1.251 . S
C484 O469 1.256 . S
C484 C477 1.500 . S
C485 H450 0.929 . S
C485 C463 1.444 . S
C485 C486 1.317 . S
C486 H448 0.930 . S
C486 C454 1.432 . S
C486 C485 1.317 . S
C487 O471 1.283 . S
C487 O474 1.243 . S
C488 C489 1.382 . S
C488 C492 1.393 . S
C488 C495 1.500 . S
C489 C488 1.382 . S
C489 C490 1.400 . S
C489 H500 0.930 . S
C490 C489 1.400 . S
C490 C491 1.384 . S
C491 C490 1.384 . S
C491 C493 1.392 . S
C491 H501 0.931 . S
C492 C488 1.393 . S
C492 C493 1.401 . S
C492 H502 0.930 . S
C493 C491 1.392 . S
C493 C492 1.401 . S
C493 H503 0.930 . S
C494 O472 1.262 . S
C494 O473 1.260 . S
C495 Tb431 2.833 . S
C495 O470 1.251 . S
C495 O475 1.256 . S
C495 C488 1.500 . S
H496 C479 0.930 . S
H497 C480 0.931 . S
H498 C481 0.930 . S
H499 C482 0.930 . S
H500 C489 0.930 . S
H501 C491 0.931 . S
H502 C492 0.930 . S
H503 C493 0.930 . S
Tb504 N535 2.660 . S
Tb504 N542 2.600 . S
Tb504 O548 2.546 . S
Tb504 O549 2.610 . S
Tb504 O551 2.320 . S
Tb504 O552 2.552 . S
Tb504 O553 2.413 . S
Tb504 O555 2.362 . S
Tb504 O556 2.421 . S
Tb504 C568 2.833 . S
C505 C508 1.432 . S
C505 C509 1.414 . S
C505 N512 1.359 . S
C506 C508 1.417 . S
C506 C510 1.432 . S
C506 C518 1.410 . S
C507 C509 1.444 . S
C507 C510 1.317 . S
C507 H530 0.929 . S
C508 C505 1.432 . S
C508 C506 1.417 . S
C508 N516 1.360 . S
C509 C505 1.414 . S
C509 C507 1.444 . S
C509 C514 1.385 . S
C510 C506 1.432 . S
C510 C507 1.317 . S
C510 H522 0.930 . S
C511 C513 1.392 . S
C511 C514 1.370 . S
C511 H523 0.931 . S
N512 C505 1.359 . S
N512 C513 1.327 . S
N512 Tb515 2.600 . S
C513 C511 1.392 . S
C513 N512 1.327 . S
C513 H520 0.930 . S
C514 C509 1.385 . S
C514 C511 1.370 . S
C514 H533 0.930 . S
Tb515 N512 2.600 . S
Tb515 N516 2.660 . S
Tb515 O549 2.362 . S
Tb515 O550 2.421 . S
Tb515 O554 2.546 . S
Tb515 O555 2.610 . S
Tb515 O557 2.320 . S
Tb515 O558 2.552 . S
Tb515 O559 2.413 . S
Tb515 C579 2.833 . S
N516 C508 1.360 . S
N516 Tb515 2.660 . S
N516 C517 1.305 . S
C517 N516 1.305 . S
C517 C519 1.407 . S
C517 H524 0.930 . S
C518 C506 1.410 . S
C518 C519 1.345 . S
C518 H526 0.930 . S
C519 C517 1.407 . S
C519 C518 1.345 . S
C519 H521 0.930 . S
H520 C513 0.930 . S
H521 C519 0.930 . S
H522 C510 0.930 . S
H523 C511 0.931 . S
H524 C517 0.930 . S
H525 C539 0.930 . S
H526 C518 0.930 . S
H527 C545 0.930 . S
H528 C536 0.930 . S
H529 C543 0.931 . S
H530 C507 0.929 . S
H531 C537 0.930 . S
H532 C570 0.930 . S
H533 C514 0.930 . S
H534 C569 0.929 . S
N535 Tb504 2.660 . S
N535 C536 1.305 . S
N535 C540 1.360 . S
C536 H528 0.930 . S
C536 N535 1.305 . S
C536 C539 1.407 . S
C537 H531 0.930 . S
C537 C538 1.410 . S
C537 C539 1.345 . S
C538 C537 1.410 . S
C538 C540 1.417 . S
C538 C570 1.432 . S
C539 H525 0.930 . S
C539 C536 1.407 . S
C539 C537 1.345 . S
C540 N535 1.360 . S
C540 C538 1.417 . S
C540 C544 1.432 . S
H541 C546 0.930 . S
N542 Tb504 2.600 . S
N542 C544 1.359 . S
N542 C545 1.327 . S
C543 H529 0.931 . S
C543 C545 1.392 . S
C543 C546 1.370 . S
C544 C540 1.432 . S
C544 N542 1.359 . S
C544 C547 1.414 . S
C545 H527 0.930 . S
C545 N542 1.327 . S
C545 C543 1.392 . S
C546 H541 0.930 . S
C546 C543 1.370 . S
C546 C547 1.385 . S
C547 C544 1.414 . S
C547 C546 1.385 . S
C547 C569 1.444 . S
O548 Tb504 2.546 . S
O548 C568 1.251 . S
O549 Tb504 2.610 . S
O549 Tb515 2.362 . S
O549 C560 1.283 . S
O550 Tb515 2.421 . S
O550 C567 1.262 . S
O551 Tb504 2.320 . S
O551 C567 1.260 . S
O552 Tb504 2.552 . S
O552 C560 1.243 . S
O553 Tb504 2.413 . S
O553 C568 1.256 . S
O554 Tb515 2.546 . S
O554 C579 1.251 . S
O555 Tb504 2.362 . S
O555 Tb515 2.610 . S
O555 C571 1.283 . S
O556 Tb504 2.421 . S
O556 C578 1.262 . S
O557 Tb515 2.320 . S
O557 C578 1.260 . S
O558 Tb515 2.552 . S
O558 C571 1.243 . S
O559 Tb515 2.413 . S
O559 C579 1.256 . S
C560 O549 1.283 . S
C560 O552 1.243 . S
C561 C563 1.382 . S
C561 C565 1.393 . S
C561 C568 1.500 . S
C562 C563 1.400 . S
C562 C564 1.384 . S
C563 C561 1.382 . S
C563 C562 1.400 . S
C563 H580 0.930 . S
C564 C562 1.384 . S
C564 C566 1.392 . S
C564 H581 0.931 . S
C565 C561 1.393 . S
C565 C566 1.401 . S
C565 H582 0.930 . S
C566 C564 1.392 . S
C566 C565 1.401 . S
C566 H583 0.930 . S
C567 O550 1.262 . S
C567 O551 1.260 . S
C568 Tb504 2.833 . S
C568 O548 1.251 . S
C568 O553 1.256 . S
C568 C561 1.500 . S
C569 H534 0.929 . S
C569 C547 1.444 . S
C569 C570 1.317 . S
C570 H532 0.930 . S
C570 C538 1.432 . S
C570 C569 1.317 . S
C571 O555 1.283 . S
C571 O558 1.243 . S
C572 C573 1.382 . S
C572 C576 1.393 . S
C572 C579 1.500 . S
C573 C572 1.382 . S
C573 C574 1.400 . S
C573 H584 0.930 . S
C574 C573 1.400 . S
C574 C575 1.384 . S
C575 C574 1.384 . S
C575 C577 1.392 . S
C575 H585 0.931 . S
C576 C572 1.393 . S
C576 C577 1.401 . S
C576 H586 0.930 . S
C577 C575 1.392 . S
C577 C576 1.401 . S
C577 H587 0.930 . S
C578 O556 1.262 . S
C578 O557 1.260 . S
C579 Tb515 2.833 . S
C579 O554 1.251 . S
C579 O559 1.256 . S
C579 C572 1.500 . S
H580 C563 0.930 . S
H581 C564 0.931 . S
H582 C565 0.930 . S
H583 C566 0.930 . S
H584 C573 0.930 . S
H585 C575 0.931 . S
H586 C576 0.930 . S
H587 C577 0.930 . S
Tb588 N619 2.660 . S
Tb588 N626 2.600 . S
Tb588 O632 2.546 . S
Tb588 O633 2.610 . S
Tb588 O635 2.320 . S
Tb588 O636 2.552 . S
Tb588 O637 2.413 . S
Tb588 O639 2.362 . S
Tb588 O640 2.421 . S
Tb588 C652 2.833 . S
C589 C592 1.432 . S
C589 C593 1.414 . S
C589 N596 1.359 . S
C590 C592 1.417 . S
C590 C594 1.432 . S
C590 C602 1.410 . S
C591 C593 1.444 . S
C591 C594 1.317 . S
C591 H614 0.929 . S
C592 C589 1.432 . S
C592 C590 1.417 . S
C592 N600 1.360 . S
C593 C589 1.414 . S
C593 C591 1.444 . S
C593 C598 1.385 . S
C594 C590 1.432 . S
C594 C591 1.317 . S
C594 H606 0.930 . S
C595 C597 1.392 . S
C595 C598 1.370 . S
C595 H607 0.931 . S
N596 C589 1.359 . S
N596 C597 1.327 . S
N596 Tb599 2.600 . S
C597 C595 1.392 . S
C597 N596 1.327 . S
C597 H604 0.930 . S
C598 C593 1.385 . S
C598 C595 1.370 . S
C598 H617 0.930 . S
Tb599 N596 2.600 . S
Tb599 N600 2.660 . S
Tb599 O633 2.362 . S
Tb599 O634 2.421 . S
Tb599 O638 2.546 . S
Tb599 O639 2.610 . S
Tb599 O641 2.320 . S
Tb599 O642 2.552 . S
Tb599 O643 2.413 . S
Tb599 C663 2.833 . S
N600 C592 1.360 . S
N600 Tb599 2.660 . S
N600 C601 1.305 . S
C601 N600 1.305 . S
C601 C603 1.407 . S
C601 H608 0.930 . S
C602 C590 1.410 . S
C602 C603 1.345 . S
C602 H610 0.930 . S
C603 C601 1.407 . S
C603 C602 1.345 . S
C603 H605 0.930 . S
H604 C597 0.930 . S
H605 C603 0.930 . S
H606 C594 0.930 . S
H607 C595 0.931 . S
H608 C601 0.930 . S
H609 C623 0.930 . S
H610 C602 0.930 . S
H611 C629 0.930 . S
H612 C620 0.930 . S
H613 C627 0.931 . S
H614 C591 0.929 . S
H615 C621 0.930 . S
H616 C654 0.930 . S
H617 C598 0.930 . S
H618 C653 0.929 . S
N619 Tb588 2.660 . S
N619 C620 1.305 . S
N619 C624 1.360 . S
C620 H612 0.930 . S
C620 N619 1.305 . S
C620 C623 1.407 . S
C621 H615 0.930 . S
C621 C622 1.410 . S
C621 C623 1.345 . S
C622 C621 1.410 . S
C622 C624 1.417 . S
C622 C654 1.432 . S
C623 H609 0.930 . S
C623 C620 1.407 . S
C623 C621 1.345 . S
C624 N619 1.360 . S
C624 C622 1.417 . S
C624 C628 1.432 . S
H625 C630 0.930 . S
N626 Tb588 2.600 . S
N626 C628 1.359 . S
N626 C629 1.327 . S
C627 H613 0.931 . S
C627 C629 1.392 . S
C627 C630 1.370 . S
C628 C624 1.432 . S
C628 N626 1.359 . S
C628 C631 1.414 . S
C629 H611 0.930 . S
C629 N626 1.327 . S
C629 C627 1.392 . S
C630 H625 0.930 . S
C630 C627 1.370 . S
C630 C631 1.385 . S
C631 C628 1.414 . S
C631 C630 1.385 . S
C631 C653 1.444 . S
O632 Tb588 2.546 . S
O632 C652 1.251 . S
O633 Tb588 2.610 . S
O633 Tb599 2.362 . S
O633 C644 1.283 . S
O634 Tb599 2.421 . S
O634 C651 1.262 . S
O635 Tb588 2.320 . S
O635 C651 1.260 . S
O636 Tb588 2.552 . S
O636 C644 1.243 . S
O637 Tb588 2.413 . S
O637 C652 1.256 . S
O638 Tb599 2.546 . S
O638 C663 1.251 . S
O639 Tb588 2.362 . S
O639 Tb599 2.610 . S
O639 C655 1.283 . S
O640 Tb588 2.421 . S
O640 C662 1.262 . S
O641 Tb599 2.320 . S
O641 C662 1.260 . S
O642 Tb599 2.552 . S
O642 C655 1.243 . S
O643 Tb599 2.413 . S
O643 C663 1.256 . S
C644 O633 1.283 . S
C644 O636 1.243 . S
C645 C647 1.382 . S
C645 C649 1.393 . S
C645 C652 1.500 . S
C646 C647 1.400 . S
C646 C648 1.384 . S
C647 C645 1.382 . S
C647 C646 1.400 . S
C647 H664 0.930 . S
C648 C646 1.384 . S
C648 C650 1.392 . S
C648 H665 0.931 . S
C649 C645 1.393 . S
C649 C650 1.401 . S
C649 H666 0.930 . S
C650 C648 1.392 . S
C650 C649 1.401 . S
C650 H667 0.930 . S
C651 O634 1.262 . S
C651 O635 1.260 . S
C652 Tb588 2.833 . S
C652 O632 1.251 . S
C652 O637 1.256 . S
C652 C645 1.500 . S
C653 H618 0.929 . S
C653 C631 1.444 . S
C653 C654 1.317 . S
C654 H616 0.930 . S
C654 C622 1.432 . S
C654 C653 1.317 . S
C655 O639 1.283 . S
C655 O642 1.243 . S
C656 C657 1.382 . S
C656 C660 1.393 . S
C656 C663 1.500 . S
C657 C656 1.382 . S
C657 C658 1.400 . S
C657 H668 0.930 . S
C658 C657 1.400 . S
C658 C659 1.384 . S
C659 C658 1.384 . S
C659 C661 1.392 . S
C659 H669 0.931 . S
C660 C656 1.393 . S
C660 C661 1.401 . S
C660 H670 0.930 . S
C661 C659 1.392 . S
C661 C660 1.401 . S
C661 H671 0.930 . S
C662 O640 1.262 . S
C662 O641 1.260 . S
C663 Tb599 2.833 . S
C663 O638 1.251 . S
C663 O643 1.256 . S
C663 C656 1.500 . S
H664 C647 0.930 . S
H665 C648 0.931 . S
H666 C649 0.930 . S
H667 C650 0.930 . S
H668 C657 0.930 . S
H669 C659 0.931 . S
H670 C660 0.930 . S
H671 C661 0.930 . S
Co672 O675 2.042 . S
Co672 O682 2.264 . S
Co672 O701 2.286 . S
Co672 O702 2.069 . S
Co672 O704 2.015 1_455 S
Co673 O675 2.122 . S
Co673 O681 2.073 . S
Co673 O682 2.327 . S
Co673 O683 1.976 1_455 S
Co674 O675 2.089 1_545 S
Co674 O677 2.085 1_455 S
Co674 O684 2.107 1_445 S
Co674 O685 2.147 . S
Co674 O689 2.115 . S
Co674 O703 2.140 1_445 S
O675 Co672 2.042 . S
O675 Co673 2.122 . S
O675 Co674 2.089 1_565 S
O675 H676 0.980 . S
H676 O675 0.980 . S
O677 Co674 2.085 1_655 S
O677 Co678 2.042 . S
O677 Co679 2.122 . S
O677 H680 0.980 . S
Co678 O677 2.042 . S
Co678 O686 2.286 . S
Co678 O687 2.069 . S
Co678 O688 2.015 1_655 S
Co678 O691 2.264 . S
Co679 O677 2.122 . S
Co679 O690 1.976 1_655 S
Co679 O691 2.327 . S
Co679 O692 2.073 . S
H680 O677 0.980 . S
O681 Co673 2.073 . S
O681 C696 1.245 . S
O682 Co672 2.264 . S
O682 Co673 2.327 . S
O682 C696 1.257 . S
O683 Co673 1.976 1_655 S
O683 C695 1.251 . S
O684 Co674 2.107 1_665 S
O684 C695 1.274 . S
O685 Co674 2.147 . S
O685 C698 1.246 . S
O686 Co678 2.286 . S
O686 C697 1.259 . S
O687 Co678 2.069 . S
O687 C697 1.289 . S
O688 Co678 2.015 1_455 S
O688 C698 1.257 . S
O689 Co674 2.115 . S
O689 C699 1.274 . S
O690 Co679 1.976 1_455 S
O690 C699 1.251 . S
O691 Co678 2.264 . S
O691 Co679 2.327 . S
O691 C700 1.257 . S
O692 Co679 2.073 . S
O692 C700 1.245 . S
C693 O701 1.259 . S
C693 O702 1.289 . S
C694 O703 1.246 . S
C694 O704 1.257 . S
C695 O683 1.251 . S
C695 O684 1.274 . S
C696 O681 1.245 . S
C696 O682 1.257 . S
C697 O686 1.259 . S
C697 O687 1.289 . S
C698 O685 1.246 . S
C698 O688 1.257 . S
C699 O689 1.274 . S
C699 O690 1.251 . S
C700 O691 1.257 . S
C700 O692 1.245 . S
O701 Co672 2.286 . S
O701 C693 1.259 . S
O702 Co672 2.069 . S
O702 C693 1.289 . S
O703 Co674 2.140 1_665 S
O703 C694 1.246 . S
O704 Co672 2.015 1_655 S
O704 C694 1.257 . S
Co705 O708 2.042 1_556 S
Co705 O715 2.264 1_556 S
Co705 O734 2.286 . S
Co705 O735 2.069 . S
Co705 O737 2.015 . S
Co706 O708 2.122 . S
Co706 O714 2.073 . S
Co706 O715 2.327 . S
Co706 O716 1.976 . S
Co707 O708 2.084 1_545 S
Co707 O710 2.090 1_554 S
Co707 O717 2.111 1_545 S
Co707 O718 2.146 . S
Co707 O722 2.112 1_554 S
Co707 O736 2.141 1_544 S
O708 Co705 2.042 1_554 S
O708 Co706 2.122 . S
O708 Co707 2.084 1_565 S
O708 H709 0.980 . S
H709 O708 0.980 . S
O710 Co707 2.090 1_556 S
O710 Co711 2.042 1_556 S
O710 Co712 2.122 . S
O710 H713 0.980 . S
Co711 O710 2.042 1_554 S
Co711 O719 2.286 . S
Co711 O720 2.069 . S
Co711 O721 2.015 . S
Co711 O724 2.264 1_554 S
Co712 O710 2.122 . S
Co712 O723 1.976 . S
Co712 O724 2.327 . S
Co712 O725 2.073 . S
H713 O710 0.980 . S
O714 Co706 2.073 . S
O714 C729 1.245 . S
O715 Co705 2.264 1_554 S
O715 Co706 2.327 . S
O715 C729 1.257 . S
O716 Co706 1.976 . S
O716 C728 1.251 . S
O717 Co707 2.111 1_565 S
O717 C728 1.274 . S
O718 Co707 2.146 . S
O718 C731 1.246 . S
O719 Co711 2.286 . S
O719 C730 1.259 . S
O720 Co711 2.069 . S
O720 C730 1.289 . S
O721 Co711 2.015 . S
O721 C731 1.257 . S
O722 Co707 2.112 1_556 S
O722 C732 1.274 . S
O723 Co712 1.976 . S
O723 C732 1.251 . S
O724 Co711 2.264 1_556 S
O724 Co712 2.327 . S
O724 C733 1.257 . S
O725 Co712 2.073 . S
O725 C733 1.245 . S
C726 O734 1.259 . S
C726 O735 1.289 . S
C727 O736 1.246 . S
C727 O737 1.257 . S
C728 O716 1.251 . S
C728 O717 1.274 . S
C729 O714 1.245 . S
C729 O715 1.257 . S
C730 O719 1.259 . S
C730 O720 1.289 . S
C731 O718 1.246 . S
C731 O721 1.257 . S
C732 O722 1.274 . S
C732 O723 1.251 . S
C733 O724 1.257 . S
C733 O725 1.245 . S
O734 Co705 2.286 . S
O734 C726 1.259 . S
O735 Co705 2.069 . S
O735 C726 1.289 . S
O736 Co707 2.141 1_566 S
O736 C727 1.246 . S
O737 Co705 2.015 . S
O737 C727 1.257 . S
Co738 O741 2.042 1_556 S
Co738 O748 2.264 1_556 S
Co738 O767 2.286 . S
Co738 O768 2.069 . S
Co738 O770 2.015 1_455 S
Co739 O741 2.122 . S
Co739 O747 2.073 . S
Co739 O748 2.327 . S
Co739 O749 1.976 1_455 S
Co740 O741 2.092 . S
Co740 O743 2.082 1_454 S
Co740 O750 2.108 1_455 S
Co740 O751 2.145 . S
Co740 O755 2.114 1_554 S
Co740 O769 2.142 1_454 S
O741 Co738 2.042 1_554 S
O741 Co739 2.122 . S
O741 Co740 2.092 . S
O741 H742 0.980 . S
H742 O741 0.980 . S
O743 Co740 2.082 1_656 S
O743 Co744 2.042 1_556 S
O743 Co745 2.122 . S
O743 H746 0.980 . S
Co744 O743 2.042 1_554 S
Co744 O752 2.286 . S
Co744 O753 2.069 . S
Co744 O754 2.015 1_655 S
Co744 O757 2.264 1_554 S
Co745 O743 2.122 . S
Co745 O756 1.976 1_655 S
Co745 O757 2.327 . S
Co745 O758 2.073 . S
H746 O743 0.980 . S
O747 Co739 2.073 . S
O747 C762 1.245 . S
O748 Co738 2.264 1_554 S
O748 Co739 2.327 . S
O748 C762 1.257 . S
O749 Co739 1.976 1_655 S
O749 C761 1.251 . S
O750 Co740 2.108 1_655 S
O750 C761 1.274 . S
O751 Co740 2.145 . S
O751 C764 1.246 . S
O752 Co744 2.286 . S
O752 C763 1.259 . S
O753 Co744 2.069 . S
O753 C763 1.289 . S
O754 Co744 2.015 1_455 S
O754 C764 1.257 . S
O755 Co740 2.114 1_556 S
O755 C765 1.274 . S
O756 Co745 1.976 1_455 S
O756 C765 1.251 . S
O757 Co744 2.264 1_556 S
O757 Co745 2.327 . S
O757 C766 1.257 . S
O758 Co745 2.073 . S
O758 C766 1.245 . S
C759 O767 1.259 . S
C759 O768 1.289 . S
C760 O769 1.246 . S
C760 O770 1.257 . S
C761 O749 1.251 . S
C761 O750 1.274 . S
C762 O747 1.245 . S
C762 O748 1.257 . S
C763 O752 1.259 . S
C763 O753 1.289 . S
C764 O751 1.246 . S
C764 O754 1.257 . S
C765 O755 1.274 . S
C765 O756 1.251 . S
C766 O757 1.257 . S
C766 O758 1.245 . S
O767 Co738 2.286 . S
O767 C759 1.259 . S
O768 Co738 2.069 . S
O768 C759 1.289 . S
O769 Co740 2.142 1_656 S
O769 C760 1.246 . S
O770 Co738 2.015 1_655 S
O770 C760 1.257 . S
Co771 O774 2.042 1_556 S
Co771 O781 2.264 1_556 S
Co771 O800 2.286 . S
Co771 O801 2.069 . S
Co771 O803 2.015 . S
Co772 O774 2.122 . S
Co772 O780 2.073 . S
Co772 O781 2.327 . S
Co772 O782 1.976 . S
Co773 O774 2.087 . S
Co773 O776 2.087 1_554 S
Co773 O783 2.111 . S
Co773 O784 2.143 . S
Co773 O788 2.111 1_554 S
Co773 O802 2.143 1_554 S
O774 Co771 2.042 1_554 S
O774 Co772 2.122 . S
O774 Co773 2.087 . S
O774 H775 0.980 . S
H775 O774 0.980 . S
O776 Co773 2.087 1_556 S
O776 Co777 2.042 1_556 S
O776 Co778 2.122 . S
O776 H779 0.980 . S
Co777 O776 2.042 1_554 S
Co777 O785 2.286 . S
Co777 O786 2.069 . S
Co777 O787 2.015 . S
Co777 O790 2.264 1_554 S
Co778 O776 2.122 . S
Co778 O789 1.976 . S
Co778 O790 2.327 . S
Co778 O791 2.073 . S
H779 O776 0.980 . S
O780 Co772 2.073 . S
O780 C795 1.245 . S
O781 Co771 2.264 1_554 S
O781 Co772 2.327 . S
O781 C795 1.257 . S
O782 Co772 1.976 . S
O782 C794 1.251 . S
O783 Co773 2.111 . S
O783 C794 1.274 . S
O784 Co773 2.143 . S
O784 C797 1.246 . S
O785 Co777 2.286 . S
O785 C796 1.259 . S
O786 Co777 2.069 . S
O786 C796 1.289 . S
O787 Co777 2.015 . S
O787 C797 1.257 . S
O788 Co773 2.111 1_556 S
O788 C798 1.274 . S
O789 Co778 1.976 . S
O789 C798 1.251 . S
O790 Co777 2.264 1_556 S
O790 Co778 2.327 . S
O790 C799 1.257 . S
O791 Co778 2.073 . S
O791 C799 1.245 . S
C792 O800 1.259 . S
C792 O801 1.289 . S
C793 O802 1.246 . S
C793 O803 1.257 . S
C794 O782 1.251 . S
C794 O783 1.274 . S
C795 O780 1.245 . S
C795 O781 1.257 . S
C796 O785 1.259 . S
C796 O786 1.289 . S
C797 O784 1.246 . S
C797 O787 1.257 . S
C798 O788 1.274 . S
C798 O789 1.251 . S
C799 O790 1.257 . S
C799 O791 1.245 . S
O800 Co771 2.286 . S
O800 C792 1.259 . S
O801 Co771 2.069 . S
O801 C792 1.289 . S
O802 Co773 2.143 1_556 S
O802 C793 1.246 . S
O803 Co771 2.015 . S
O803 C793 1.257 . S
Co804 O807 2.042 . S
Co804 O814 2.264 . S
Co804 O833 2.286 . S
Co804 O834 2.069 . S
Co804 O836 2.015 . S
Co805 O807 2.122 . S
Co805 O813 2.073 . S
Co805 O814 2.327 . S
Co805 O815 1.976 . S
Co806 O807 2.092 . S
Co806 O809 2.082 1_455 S
Co806 O816 2.113 . S
Co806 O817 2.141 1_455 S
Co806 O821 2.110 1_455 S
Co806 O835 2.146 . S
O807 Co804 2.042 . S
O807 Co805 2.122 . S
O807 Co806 2.092 . S
O807 H808 0.980 . S
H808 O807 0.980 . S
O809 Co806 2.082 1_655 S
O809 Co810 2.042 . S
O809 Co811 2.122 . S
O809 H812 0.980 . S
Co810 O809 2.042 . S
Co810 O818 2.286 . S
Co810 O819 2.069 . S
Co810 O820 2.015 . S
Co810 O823 2.264 . S
Co811 O809 2.122 . S
Co811 O822 1.976 . S
Co811 O823 2.327 . S
Co811 O824 2.073 . S
H812 O809 0.980 . S
O813 Co805 2.073 . S
O813 C828 1.245 . S
O814 Co804 2.264 . S
O814 Co805 2.327 . S
O814 C828 1.257 . S
O815 Co805 1.976 . S
O815 C827 1.251 . S
O816 Co806 2.113 . S
O816 C827 1.274 . S
O817 Co806 2.141 1_655 S
O817 C830 1.246 . S
O818 Co810 2.286 . S
O818 C829 1.259 . S
O819 Co810 2.069 . S
O819 C829 1.289 . S
O820 Co810 2.015 . S
O820 C830 1.257 . S
O821 Co806 2.110 1_655 S
O821 C831 1.274 . S
O822 Co811 1.976 . S
O822 C831 1.251 . S
O823 Co810 2.264 . S
O823 Co811 2.327 . S
O823 C832 1.257 . S
O824 Co811 2.073 . S
O824 C832 1.245 . S
C825 O833 1.259 . S
C825 O834 1.289 . S
C826 O835 1.246 . S
C826 O836 1.257 . S
C827 O815 1.251 . S
C827 O816 1.274 . S
C828 O813 1.245 . S
C828 O814 1.257 . S
C829 O818 1.259 . S
C829 O819 1.289 . S
C830 O817 1.246 . S
C830 O820 1.257 . S
C831 O821 1.274 . S
C831 O822 1.251 . S
C832 O823 1.257 . S
C832 O824 1.245 . S
O833 Co804 2.286 . S
O833 C825 1.259 . S
O834 Co804 2.069 . S
O834 C825 1.289 . S
O835 Co806 2.146 . S
O835 C826 1.246 . S
O836 Co804 2.015 . S
O836 C826 1.257 . S
Co837 O840 2.042 . S
Co837 O847 2.264 . S
Co837 O866 2.286 . S
Co837 O867 2.069 . S
Co837 O869 2.015 1_565 S
Co838 O840 2.122 . S
Co838 O846 2.073 . S
Co838 O847 2.327 . S
Co838 O848 1.976 1_565 S
Co839 O840 2.084 1_545 S
Co839 O842 2.090 . S
Co839 O849 2.113 . S
Co839 O850 2.142 1_545 S
Co839 O854 2.109 1_545 S
Co839 O868 2.145 . S
O840 Co837 2.042 . S
O840 Co838 2.122 . S
O840 Co839 2.084 1_565 S
O840 H841 0.980 . S
H841 O840 0.980 . S
O842 Co839 2.090 . S
O842 Co843 2.042 . S
O842 Co844 2.122 . S
O842 H845 0.980 . S
Co843 O842 2.042 . S
Co843 O851 2.286 . S
Co843 O852 2.069 . S
Co843 O853 2.015 1_545 S
Co843 O856 2.264 . S
Co844 O842 2.122 . S
Co844 O855 1.976 1_545 S
Co844 O856 2.327 . S
Co844 O857 2.073 . S
H845 O842 0.980 . S
O846 Co838 2.073 . S
O846 C861 1.245 . S
O847 Co837 2.264 . S
O847 Co838 2.327 . S
O847 C861 1.257 . S
O848 Co838 1.976 1_545 S
O848 C860 1.251 . S
O849 Co839 2.113 . S
O849 C860 1.274 . S
O850 Co839 2.142 1_565 S
O850 C863 1.246 . S
O851 Co843 2.286 . S
O851 C862 1.259 . S
O852 Co843 2.069 . S
O852 C862 1.289 . S
O853 Co843 2.015 1_565 S
O853 C863 1.257 . S
O854 Co839 2.109 1_565 S
O854 C864 1.274 . S
O855 Co844 1.976 1_565 S
O855 C864 1.251 . S
O856 Co843 2.264 . S
O856 Co844 2.327 . S
O856 C865 1.257 . S
O857 Co844 2.073 . S
O857 C865 1.245 . S
C858 O866 1.259 . S
C858 O867 1.289 . S
C859 O868 1.246 . S
C859 O869 1.257 . S
C860 O848 1.251 . S
C860 O849 1.274 . S
C861 O846 1.245 . S
C861 O847 1.257 . S
C862 O851 1.259 . S
C862 O852 1.289 . S
C863 O850 1.246 . S
C863 O853 1.257 . S
C864 O854 1.274 . S
C864 O855 1.251 . S
C865 O856 1.257 . S
C865 O857 1.245 . S
O866 Co837 2.286 . S
O866 C858 1.259 . S
O867 Co837 2.069 . S
O867 C858 1.289 . S
O868 Co839 2.145 . S
O868 C859 1.246 . S
O869 Co837 2.015 1_545 S
O869 C859 1.257 . S
H870 C882 0.930 . S
H871 C884 0.930 . S
H872 C885 0.930 . S
H873 C889 0.959 . S
H874 C889 0.959 . S
H875 C889 0.961 . S
H876 C890 0.960 . S
H877 C890 0.961 . S
H878 C890 0.959 . S
H879 C893 0.929 . S
H880 C894 0.931 . S
H881 C896 0.930 . S
C882 H870 0.930 . S
C882 C883 1.399 . S
C882 C887 1.399 . S
C883 C882 1.399 . S
C883 C884 1.376 . S
C884 H871 0.930 . S
C884 C883 1.376 . S
C884 C885 1.388 . S
C885 H872 0.930 . S
C885 C884 1.388 . S
C885 C886 1.390 . S
C886 C885 1.390 . S
C886 C887 1.394 . S
C886 C892 1.465 . S
C887 C882 1.399 . S
C887 C886 1.394 . S
C887 C888 1.516 . S
C888 C887 1.516 . S
C888 C889 1.502 . S
C888 C890 1.561 . S
C888 C891 1.526 . S
C889 H873 0.959 . S
C889 H874 0.959 . S
C889 H875 0.961 . S
C889 C888 1.502 . S
C890 H876 0.960 . S
C890 H877 0.961 . S
C890 H878 0.959 . S
C890 C888 1.561 . S
C891 C888 1.526 . S
C891 C892 1.396 . S
C891 C896 1.390 . S
C892 C886 1.465 . S
C892 C891 1.396 . S
C892 C893 1.399 . S
C893 H879 0.929 . S
C893 C892 1.399 . S
C893 C894 1.385 . S
C894 H880 0.931 . S
C894 C893 1.385 . S
C894 C895 1.389 . S
C895 C894 1.389 . S
C895 C896 1.387 . S
C896 H881 0.930 . S
C896 C891 1.390 . S
C896 C895 1.387 . S
H897 C909 0.930 . S
H898 C911 0.930 . S
H899 C912 0.930 . S
H900 C916 0.959 . S
H901 C916 0.959 . S
H902 C916 0.961 . S
H903 C917 0.960 . S
H904 C917 0.961 . S
H905 C917 0.959 . S
H906 C920 0.929 . S
H907 C921 0.931 . S
H908 C923 0.930 . S
C909 H897 0.930 . S
C909 C910 1.399 . S
C909 C914 1.399 . S
C910 C909 1.399 . S
C910 C911 1.376 . S
C911 H898 0.930 . S
C911 C910 1.376 . S
C911 C912 1.388 . S
C912 H899 0.930 . S
C912 C911 1.388 . S
C912 C913 1.390 . S
C913 C912 1.390 . S
C913 C914 1.394 . S
C913 C919 1.465 . S
C914 C909 1.399 . S
C914 C913 1.394 . S
C914 C915 1.516 . S
C915 C914 1.516 . S
C915 C916 1.502 . S
C915 C917 1.561 . S
C915 C918 1.526 . S
C916 H900 0.959 . S
C916 H901 0.959 . S
C916 H902 0.961 . S
C916 C915 1.502 . S
C917 H903 0.960 . S
C917 H904 0.961 . S
C917 H905 0.959 . S
C917 C915 1.561 . S
C918 C915 1.526 . S
C918 C919 1.396 . S
C918 C923 1.390 . S
C919 C913 1.465 . S
C919 C918 1.396 . S
C919 C920 1.399 . S
C920 H906 0.929 . S
C920 C919 1.399 . S
C920 C921 1.385 . S
C921 H907 0.931 . S
C921 C920 1.385 . S
C921 C922 1.389 . S
C922 C921 1.389 . S
C922 C923 1.387 . S
C923 H908 0.930 . S
C923 C918 1.390 . S
C923 C922 1.387 . S
H924 C936 0.930 . S
H925 C938 0.930 . S
H926 C939 0.930 . S
H927 C943 0.959 . S
H928 C943 0.959 . S
H929 C943 0.961 . S
H930 C944 0.960 . S
H931 C944 0.961 . S
H932 C944 0.959 . S
H933 C947 0.929 . S
H934 C948 0.931 . S
H935 C950 0.930 . S
C936 H924 0.930 . S
C936 C937 1.399 . S
C936 C941 1.399 . S
C937 C936 1.399 . S
C937 C938 1.376 . S
C938 H925 0.930 . S
C938 C937 1.376 . S
C938 C939 1.388 . S
C939 H926 0.930 . S
C939 C938 1.388 . S
C939 C940 1.390 . S
C940 C939 1.390 . S
C940 C941 1.394 . S
C940 C946 1.465 . S
C941 C936 1.399 . S
C941 C940 1.394 . S
C941 C942 1.516 . S
C942 C941 1.516 . S
C942 C943 1.502 . S
C942 C944 1.561 . S
C942 C945 1.526 . S
C943 H927 0.959 . S
C943 H928 0.959 . S
C943 H929 0.961 . S
C943 C942 1.502 . S
C944 H930 0.960 . S
C944 H931 0.961 . S
C944 H932 0.959 . S
C944 C942 1.561 . S
C945 C942 1.526 . S
C945 C946 1.396 . S
C945 C950 1.390 . S
C946 C940 1.465 . S
C946 C945 1.396 . S
C946 C947 1.399 . S
C947 H933 0.929 . S
C947 C946 1.399 . S
C947 C948 1.385 . S
C948 H934 0.931 . S
C948 C947 1.385 . S
C948 C949 1.389 . S
C949 C948 1.389 . S
C949 C950 1.387 . S
C950 H935 0.930 . S
C950 C945 1.390 . S
C950 C949 1.387 . S
H951 C963 0.930 . S
H952 C965 0.930 . S
H953 C966 0.930 . S
H954 C970 0.959 . S
H955 C970 0.959 . S
H956 C970 0.961 . S
H957 C971 0.960 . S
H958 C971 0.961 . S
H959 C971 0.959 . S
H960 C974 0.929 . S
H961 C975 0.931 . S
H962 C977 0.930 . S
C963 H951 0.930 . S
C963 C964 1.399 . S
C963 C968 1.399 . S
C964 C963 1.399 . S
C964 C965 1.376 . S
C965 H952 0.930 . S
C965 C964 1.376 . S
C965 C966 1.388 . S
C966 H953 0.930 . S
C966 C965 1.388 . S
C966 C967 1.390 . S
C967 C966 1.390 . S
C967 C968 1.394 . S
C967 C973 1.465 . S
C968 C963 1.399 . S
C968 C967 1.394 . S
C968 C969 1.516 . S
C969 C968 1.516 . S
C969 C970 1.502 . S
C969 C971 1.561 . S
C969 C972 1.526 . S
C970 H954 0.959 . S
C970 H955 0.959 . S
C970 H956 0.961 . S
C970 C969 1.502 . S
C971 H957 0.960 . S
C971 H958 0.961 . S
C971 H959 0.959 . S
C971 C969 1.561 . S
C972 C969 1.526 . S
C972 C973 1.396 . S
C972 C977 1.390 . S
C973 C967 1.465 . S
C973 C972 1.396 . S
C973 C974 1.399 . S
C974 H960 0.929 . S
C974 C973 1.399 . S
C974 C975 1.385 . S
C975 H961 0.931 . S
C975 C974 1.385 . S
C975 C976 1.389 . S
C976 C975 1.389 . S
C976 C977 1.387 . S
C977 H962 0.930 . S
C977 C972 1.390 . S
C977 C976 1.387 . S
H978 C990 0.930 . S
H979 C992 0.930 . S
H980 C993 0.930 . S
H981 C997 0.959 . S
H982 C997 0.959 . S
H983 C997 0.961 . S
H984 C998 0.960 . S
H985 C998 0.961 . S
H986 C998 0.959 . S
H987 C1001 0.929 . S
H988 C1002 0.931 . S
H989 C1004 0.930 . S
C990 H978 0.930 . S
C990 C991 1.399 . S
C990 C995 1.399 . S
C991 C990 1.399 . S
C991 C992 1.376 . S
C992 H979 0.930 . S
C992 C991 1.376 . S
C992 C993 1.388 . S
C993 H980 0.930 . S
C993 C992 1.388 . S
C993 C994 1.390 . S
C994 C993 1.390 . S
C994 C995 1.394 . S
C994 C1000 1.465 . S
C995 C990 1.399 . S
C995 C994 1.394 . S
C995 C996 1.516 . S
C996 C995 1.516 . S
C996 C997 1.502 . S
C996 C998 1.561 . S
C996 C999 1.526 . S
C997 H981 0.959 . S
C997 H982 0.959 . S
C997 H983 0.961 . S
C997 C996 1.502 . S
C998 H984 0.960 . S
C998 H985 0.961 . S
C998 H986 0.959 . S
C998 C996 1.561 . S
C999 C996 1.526 . S
C999 C1000 1.396 . S
C999 C1004 1.390 . S
C1000 C994 1.465 . S
C1000 C999 1.396 . S
C1000 C1001 1.399 . S
C1001 H987 0.929 . S
C1001 C1000 1.399 . S
C1001 C1002 1.385 . S
C1002 H988 0.931 . S
C1002 C1001 1.385 . S
C1002 C1003 1.389 . S
C1003 C1002 1.389 . S
C1003 C1004 1.387 . S
C1004 H989 0.930 . S
C1004 C999 1.390 . S
C1004 C1003 1.387 . S
H1005 C1017 0.930 . S
H1006 C1019 0.930 . S
H1007 C1020 0.930 . S
H1008 C1024 0.959 . S
H1009 C1024 0.959 . S
H1010 C1024 0.961 . S
H1011 C1025 0.960 . S
H1012 C1025 0.961 . S
H1013 C1025 0.959 . S
H1014 C1028 0.929 . S
H1015 C1029 0.931 . S
H1016 C1031 0.930 . S
C1017 H1005 0.930 . S
C1017 C1018 1.399 . S
C1017 C1022 1.399 . S
C1018 C1017 1.399 . S
C1018 C1019 1.376 . S
C1019 H1006 0.930 . S
C1019 C1018 1.376 . S
C1019 C1020 1.388 . S
C1020 H1007 0.930 . S
C1020 C1019 1.388 . S
C1020 C1021 1.390 . S
C1021 C1020 1.390 . S
C1021 C1022 1.394 . S
C1021 C1027 1.465 . S
C1022 C1017 1.399 . S
C1022 C1021 1.394 . S
C1022 C1023 1.516 . S
C1023 C1022 1.516 . S
C1023 C1024 1.502 . S
C1023 C1025 1.561 . S
C1023 C1026 1.526 . S
C1024 H1008 0.959 . S
C1024 H1009 0.959 . S
C1024 H1010 0.961 . S
C1024 C1023 1.502 . S
C1025 H1011 0.960 . S
C1025 H1012 0.961 . S
C1025 H1013 0.959 . S
C1025 C1023 1.561 . S
C1026 C1023 1.526 . S
C1026 C1027 1.396 . S
C1026 C1031 1.390 . S
C1027 C1021 1.465 . S
C1027 C1026 1.396 . S
C1027 C1028 1.399 . S
C1028 H1014 0.929 . S
C1028 C1027 1.399 . S
C1028 C1029 1.385 . S
C1029 H1015 0.931 . S
C1029 C1028 1.385 . S
C1029 C1030 1.389 . S
C1030 C1029 1.389 . S
C1030 C1031 1.387 . S
C1031 H1016 0.930 . S
C1031 C1026 1.390 . S
C1031 C1030 1.387 . S
H1032 C1044 0.930 . S
H1033 C1046 0.930 . S
H1034 C1047 0.930 . S
H1035 C1051 0.959 . S
H1036 C1051 0.959 . S
H1037 C1051 0.961 . S
H1038 C1052 0.960 . S
H1039 C1052 0.961 . S
H1040 C1052 0.959 . S
H1041 C1055 0.929 . S
H1042 C1056 0.931 . S
H1043 C1058 0.930 . S
C1044 H1032 0.930 . S
C1044 C1045 1.399 . S
C1044 C1049 1.399 . S
C1045 C1044 1.399 . S
C1045 C1046 1.376 . S
C1046 H1033 0.930 . S
C1046 C1045 1.376 . S
C1046 C1047 1.388 . S
C1047 H1034 0.930 . S
C1047 C1046 1.388 . S
C1047 C1048 1.390 . S
C1048 C1047 1.390 . S
C1048 C1049 1.394 . S
C1048 C1054 1.465 . S
C1049 C1044 1.399 . S
C1049 C1048 1.394 . S
C1049 C1050 1.516 . S
C1050 C1049 1.516 . S
C1050 C1051 1.502 . S
C1050 C1052 1.561 . S
C1050 C1053 1.526 . S
C1051 H1035 0.959 . S
C1051 H1036 0.959 . S
C1051 H1037 0.961 . S
C1051 C1050 1.502 . S
C1052 H1038 0.960 . S
C1052 H1039 0.961 . S
C1052 H1040 0.959 . S
C1052 C1050 1.561 . S
C1053 C1050 1.526 . S
C1053 C1054 1.396 . S
C1053 C1058 1.390 . S
C1054 C1048 1.465 . S
C1054 C1053 1.396 . S
C1054 C1055 1.399 . S
C1055 H1041 0.929 . S
C1055 C1054 1.399 . S
C1055 C1056 1.385 . S
C1056 H1042 0.931 . S
C1056 C1055 1.385 . S
C1056 C1057 1.389 . S
C1057 C1056 1.389 . S
C1057 C1058 1.387 . S
C1058 H1043 0.930 . S
C1058 C1053 1.390 . S
C1058 C1057 1.387 . S
H1059 C1071 0.930 . S
H1060 C1073 0.930 . S
H1061 C1074 0.930 . S
H1062 C1078 0.959 . S
H1063 C1078 0.959 . S
H1064 C1078 0.961 . S
H1065 C1079 0.960 . S
H1066 C1079 0.961 . S
H1067 C1079 0.959 . S
H1068 C1082 0.929 . S
H1069 C1083 0.931 . S
H1070 C1085 0.930 . S
C1071 H1059 0.930 . S
C1071 C1072 1.399 . S
C1071 C1076 1.399 . S
C1072 C1071 1.399 . S
C1072 C1073 1.376 . S
C1073 H1060 0.930 . S
C1073 C1072 1.376 . S
C1073 C1074 1.388 . S
C1074 H1061 0.930 . S
C1074 C1073 1.388 . S
C1074 C1075 1.390 . S
C1075 C1074 1.390 . S
C1075 C1076 1.394 . S
C1075 C1081 1.465 . S
C1076 C1071 1.399 . S
C1076 C1075 1.394 . S
C1076 C1077 1.516 . S
C1077 C1076 1.516 . S
C1077 C1078 1.502 . S
C1077 C1079 1.561 . S
C1077 C1080 1.526 . S
C1078 H1062 0.959 . S
C1078 H1063 0.959 . S
C1078 H1064 0.961 . S
C1078 C1077 1.502 . S
C1079 H1065 0.960 . S
C1079 H1066 0.961 . S
C1079 H1067 0.959 . S
C1079 C1077 1.561 . S
C1080 C1077 1.526 . S
C1080 C1081 1.396 . S
C1080 C1085 1.390 . S
C1081 C1075 1.465 . S
C1081 C1080 1.396 . S
C1081 C1082 1.399 . S
C1082 H1068 0.929 . S
C1082 C1081 1.399 . S
C1082 C1083 1.385 . S
C1083 H1069 0.931 . S
C1083 C1082 1.385 . S
C1083 C1084 1.389 . S
C1084 C1083 1.389 . S
C1084 C1085 1.387 . S
C1085 H1070 0.930 . S
C1085 C1080 1.390 . S
C1085 C1084 1.387 . S
H1086 C1098 0.930 . S
H1087 C1100 0.930 . S
H1088 C1101 0.930 . S
H1089 C1105 0.959 . S
H1090 C1105 0.959 . S
H1091 C1105 0.961 . S
H1092 C1106 0.960 . S
H1093 C1106 0.961 . S
H1094 C1106 0.959 . S
H1095 C1109 0.929 . S
H1096 C1110 0.952 . S
H1097 C1112 0.930 . S
C1098 H1086 0.930 . S
C1098 C1099 1.399 . S
C1098 C1103 1.399 . S
C1099 C1098 1.399 . S
C1099 C1100 1.376 . S
C1100 H1087 0.930 . S
C1100 C1099 1.376 . S
C1100 C1101 1.388 . S
C1101 H1088 0.930 . S
C1101 C1100 1.388 . S
C1101 C1102 1.390 . S
C1102 C1101 1.390 . S
C1102 C1103 1.394 . S
C1102 C1108 1.465 . S
C1103 C1098 1.399 . S
C1103 C1102 1.394 . S
C1103 C1104 1.516 . S
C1104 C1103 1.516 . S
C1104 C1105 1.502 . S
C1104 C1106 1.561 . S
C1104 C1107 1.526 . S
C1105 H1089 0.959 . S
C1105 H1090 0.959 . S
C1105 H1091 0.961 . S
C1105 C1104 1.502 . S
C1106 H1092 0.960 . S
C1106 H1093 0.961 . S
C1106 H1094 0.959 . S
C1106 C1104 1.561 . S
C1107 C1104 1.526 . S
C1107 C1108 1.396 . S
C1107 C1112 1.390 . S
C1108 C1102 1.465 . S
C1108 C1107 1.396 . S
C1108 C1109 1.399 . S
C1109 H1095 0.929 . S
C1109 C1108 1.399 . S
C1109 C1110 1.385 . S
C1110 H1096 0.952 . S
C1110 C1109 1.385 . S
C1110 C1111 1.389 . S
C1111 C1110 1.389 . S
C1111 C1112 1.387 . S
C1112 H1097 0.930 . S
C1112 C1107 1.390 . S
C1112 C1111 1.387 . S
H1113 C1125 0.930 . S
H1114 C1127 0.930 . S
H1115 C1128 0.930 . S
H1116 C1132 0.959 . S
H1117 C1132 0.959 . S
H1118 C1132 0.961 . S
H1119 C1133 0.960 . S
H1120 C1133 0.961 . S
H1121 C1133 0.959 . S
H1122 C1136 0.929 . S
H1123 C1137 0.931 . S
H1124 C1139 0.930 . S
C1125 H1113 0.930 . S
C1125 C1126 1.399 . S
C1125 C1130 1.399 . S
C1126 C1125 1.399 . S
C1126 C1127 1.376 . S
C1127 H1114 0.930 . S
C1127 C1126 1.376 . S
C1127 C1128 1.388 . S
C1128 H1115 0.930 . S
C1128 C1127 1.388 . S
C1128 C1129 1.390 . S
C1129 C1128 1.390 . S
C1129 C1130 1.394 . S
C1129 C1135 1.465 . S
C1130 C1125 1.399 . S
C1130 C1129 1.394 . S
C1130 C1131 1.516 . S
C1131 C1130 1.516 . S
C1131 C1132 1.502 . S
C1131 C1133 1.561 . S
C1131 C1134 1.526 . S
C1132 H1116 0.959 . S
C1132 H1117 0.959 . S
C1132 H1118 0.961 . S
C1132 C1131 1.502 . S
C1133 H1119 0.960 . S
C1133 H1120 0.961 . S
C1133 H1121 0.959 . S
C1133 C1131 1.561 . S
C1134 C1131 1.526 . S
C1134 C1135 1.396 . S
C1134 C1139 1.390 . S
C1135 C1129 1.465 . S
C1135 C1134 1.396 . S
C1135 C1136 1.399 . S
C1136 H1122 0.929 . S
C1136 C1135 1.399 . S
C1136 C1137 1.385 . S
C1137 H1123 0.931 . S
C1137 C1136 1.385 . S
C1137 C1138 1.389 . S
C1138 C1137 1.389 . S
C1138 C1139 1.387 . S
C1139 H1124 0.930 . S
C1139 C1134 1.390 . S
C1139 C1138 1.387 . S
H1140 C1152 0.930 . S
H1141 C1154 0.930 . S
H1142 C1155 0.930 . S
H1143 C1159 0.959 . S
H1144 C1159 0.959 . S
H1145 C1159 0.961 . S
H1146 C1160 0.960 . S
H1147 C1160 0.961 . S
H1148 C1160 0.959 . S
H1149 C1163 0.929 . S
H1150 C1164 0.931 . S
H1151 C1166 0.930 . S
C1152 H1140 0.930 . S
C1152 C1153 1.399 . S
C1152 C1157 1.399 . S
C1153 C1152 1.399 . S
C1153 C1154 1.376 . S
C1154 H1141 0.930 . S
C1154 C1153 1.376 . S
C1154 C1155 1.388 . S
C1155 H1142 0.930 . S
C1155 C1154 1.388 . S
C1155 C1156 1.390 . S
C1156 C1155 1.390 . S
C1156 C1157 1.394 . S
C1156 C1162 1.465 . S
C1157 C1152 1.399 . S
C1157 C1156 1.394 . S
C1157 C1158 1.516 . S
C1158 C1157 1.516 . S
C1158 C1159 1.502 . S
C1158 C1160 1.561 . S
C1158 C1161 1.526 . S
C1159 H1143 0.959 . S
C1159 H1144 0.959 . S
C1159 H1145 0.961 . S
C1159 C1158 1.502 . S
C1160 H1146 0.960 . S
C1160 H1147 0.961 . S
C1160 H1148 0.959 . S
C1160 C1158 1.561 . S
C1161 C1158 1.526 . S
C1161 C1162 1.396 . S
C1161 C1166 1.390 . S
C1162 C1156 1.465 . S
C1162 C1161 1.396 . S
C1162 C1163 1.399 . S
C1163 H1149 0.929 . S
C1163 C1162 1.399 . S
C1163 C1164 1.385 . S
C1164 H1150 0.931 . S
C1164 C1163 1.385 . S
C1164 C1165 1.389 . S
C1165 C1164 1.389 . S
C1165 C1166 1.387 . S
C1166 H1151 0.930 . S
C1166 C1161 1.390 . S
C1166 C1165 1.387 . S
H1167 C1179 0.930 . S
H1168 C1181 0.930 . S
H1169 C1182 0.930 . S
H1170 C1186 0.959 . S
H1171 C1186 0.959 . S
H1172 C1186 0.961 . S
H1173 C1187 0.960 . S
H1174 C1187 0.961 . S
H1175 C1187 0.959 . S
H1176 C1190 0.929 . S
H1177 C1191 0.931 . S
H1178 C1193 0.930 . S
C1179 H1167 0.930 . S
C1179 C1180 1.399 . S
C1179 C1184 1.399 . S
C1180 C1179 1.399 . S
C1180 C1181 1.376 . S
C1181 H1168 0.930 . S
C1181 C1180 1.376 . S
C1181 C1182 1.388 . S
C1182 H1169 0.930 . S
C1182 C1181 1.388 . S
C1182 C1183 1.390 . S
C1183 C1182 1.390 . S
C1183 C1184 1.394 . S
C1183 C1189 1.465 . S
C1184 C1179 1.399 . S
C1184 C1183 1.394 . S
C1184 C1185 1.516 . S
C1185 C1184 1.516 . S
C1185 C1186 1.502 . S
C1185 C1187 1.561 . S
C1185 C1188 1.526 . S
C1186 H1170 0.959 . S
C1186 H1171 0.959 . S
C1186 H1172 0.961 . S
C1186 C1185 1.502 . S
C1187 H1173 0.960 . S
C1187 H1174 0.961 . S
C1187 H1175 0.959 . S
C1187 C1185 1.561 . S
C1188 C1185 1.526 . S
C1188 C1189 1.396 . S
C1188 C1193 1.390 . S
C1189 C1183 1.465 . S
C1189 C1188 1.396 . S
C1189 C1190 1.399 . S
C1190 H1176 0.929 . S
C1190 C1189 1.399 . S
C1190 C1191 1.385 . S
C1191 H1177 0.931 . S
C1191 C1190 1.385 . S
C1191 C1192 1.389 . S
C1192 C1191 1.389 . S
C1192 C1193 1.387 . S
C1193 H1178 0.930 . S
C1193 C1188 1.390 . S
C1193 C1192 1.387 . S
H1194 C1206 0.930 . S
H1195 C1208 0.930 . S
H1196 C1209 0.930 . S
H1197 C1213 0.959 . S
H1198 C1213 0.959 . S
H1199 C1213 0.961 . S
H1200 C1214 0.960 . S
H1201 C1214 0.961 . S
H1202 C1214 0.959 . S
H1203 C1217 0.929 . S
H1204 C1218 0.931 . S
H1205 C1220 0.930 . S
C1206 H1194 0.930 . S
C1206 C1207 1.399 . S
C1206 C1211 1.399 . S
C1207 C1206 1.399 . S
C1207 C1208 1.376 . S
C1208 H1195 0.930 . S
C1208 C1207 1.376 . S
C1208 C1209 1.388 . S
C1209 H1196 0.930 . S
C1209 C1208 1.388 . S
C1209 C1210 1.390 . S
C1210 C1209 1.390 . S
C1210 C1211 1.394 . S
C1210 C1216 1.465 . S
C1211 C1206 1.399 . S
C1211 C1210 1.394 . S
C1211 C1212 1.516 . S
C1212 C1211 1.516 . S
C1212 C1213 1.502 . S
C1212 C1214 1.561 . S
C1212 C1215 1.526 . S
C1213 H1197 0.959 . S
C1213 H1198 0.959 . S
C1213 H1199 0.961 . S
C1213 C1212 1.502 . S
C1214 H1200 0.960 . S
C1214 H1201 0.961 . S
C1214 H1202 0.959 . S
C1214 C1212 1.561 . S
C1215 C1212 1.526 . S
C1215 C1216 1.396 . S
C1215 C1220 1.390 . S
C1216 C1210 1.465 . S
C1216 C1215 1.396 . S
C1216 C1217 1.399 . S
C1217 H1203 0.929 . S
C1217 C1216 1.399 . S
C1217 C1218 1.385 . S
C1218 H1204 0.931 . S
C1218 C1217 1.385 . S
C1218 C1219 1.389 . S
C1219 C1218 1.389 . S
C1219 C1220 1.387 . S
C1220 H1205 0.930 . S
C1220 C1215 1.390 . S
C1220 C1219 1.387 . S
H1221 C1233 0.930 . S
H1222 C1235 0.930 . S
H1223 C1236 0.930 . S
H1224 C1240 0.959 . S
H1225 C1240 0.959 . S
H1226 C1240 0.961 . S
H1227 C1241 0.960 . S
H1228 C1241 0.961 1_554 S
H1229 C1241 0.959 . S
H1230 C1244 0.929 . S
H1231 C1245 0.931 . S
H1232 C1247 0.930 . S
C1233 H1221 0.930 . S
C1233 C1234 1.399 . S
C1233 C1238 1.399 . S
C1234 C1233 1.399 . S
C1234 C1235 1.376 . S
C1235 H1222 0.930 . S
C1235 C1234 1.376 . S
C1235 C1236 1.388 . S
C1236 H1223 0.930 . S
C1236 C1235 1.388 . S
C1236 C1237 1.390 . S
C1237 C1236 1.390 . S
C1237 C1238 1.394 . S
C1237 C1243 1.465 . S
C1238 C1233 1.399 . S
C1238 C1237 1.394 . S
C1238 C1239 1.516 . S
C1239 C1238 1.516 . S
C1239 C1240 1.502 . S
C1239 C1241 1.561 . S
C1239 C1242 1.526 . S
C1240 H1224 0.959 . S
C1240 H1225 0.959 . S
C1240 H1226 0.961 . S
C1240 C1239 1.502 . S
C1241 H1227 0.960 . S
C1241 H1228 0.961 1_556 S
C1241 H1229 0.959 . S
C1241 C1239 1.561 . S
C1242 C1239 1.526 . S
C1242 C1243 1.396 . S
C1242 C1247 1.390 . S
C1243 C1237 1.465 . S
C1243 C1242 1.396 . S
C1243 C1244 1.399 . S
C1244 H1230 0.929 . S
C1244 C1243 1.399 . S
C1244 C1245 1.385 . S
C1245 H1231 0.931 . S
C1245 C1244 1.385 . S
C1245 C1246 1.389 . S
C1246 C1245 1.389 . S
C1246 C1247 1.387 . S
C1247 H1232 0.930 . S
C1247 C1242 1.390 . S
C1247 C1246 1.387 . S
H1248 C1260 0.930 . S
H1249 C1262 0.930 . S
H1250 C1263 0.930 . S
H1251 C1267 0.959 . S
H1252 C1267 0.959 . S
H1253 C1267 0.961 . S
H1254 C1268 0.960 . S
H1255 C1268 0.961 . S
H1256 C1268 0.959 . S
H1257 C1271 0.929 . S
H1258 C1272 0.931 . S
H1259 C1274 0.930 . S
C1260 H1248 0.930 . S
C1260 C1261 1.399 . S
C1260 C1265 1.399 . S
C1261 C1260 1.399 . S
C1261 C1262 1.376 . S
C1262 H1249 0.930 . S
C1262 C1261 1.376 . S
C1262 C1263 1.388 . S
C1263 H1250 0.930 . S
C1263 C1262 1.388 . S
C1263 C1264 1.390 . S
C1264 C1263 1.390 . S
C1264 C1265 1.394 . S
C1264 C1270 1.465 . S
C1265 C1260 1.399 . S
C1265 C1264 1.394 . S
C1265 C1266 1.516 . S
C1266 C1265 1.516 . S
C1266 C1267 1.502 . S
C1266 C1268 1.561 . S
C1266 C1269 1.526 . S
C1267 H1251 0.959 . S
C1267 H1252 0.959 . S
C1267 H1253 0.961 . S
C1267 C1266 1.502 . S
C1268 H1254 0.960 . S
C1268 H1255 0.961 . S
C1268 H1256 0.959 . S
C1268 C1266 1.561 . S
C1269 C1266 1.526 . S
C1269 C1270 1.396 . S
C1269 C1274 1.390 . S
C1270 C1264 1.465 . S
C1270 C1269 1.396 . S
C1270 C1271 1.399 . S
C1271 H1257 0.929 . S
C1271 C1270 1.399 . S
C1271 C1272 1.385 . S
C1272 H1258 0.931 . S
C1272 C1271 1.385 . S
C1272 C1273 1.389 . S
C1273 C1272 1.389 . S
C1273 C1274 1.387 . S
C1274 H1259 0.930 . S
C1274 C1269 1.390 . S
C1274 C1273 1.387 . S
H1275 C1287 0.930 . S
H1276 C1289 0.930 . S
H1277 C1290 0.930 . S
H1278 C1294 0.959 . S
H1279 C1294 0.959 . S
H1280 C1294 0.961 . S
H1281 C1295 0.960 . S
H1282 C1295 0.961 . S
H1283 C1295 0.959 . S
H1284 C1298 0.929 . S
H1285 C1299 0.931 . S
H1286 C1301 0.930 . S
C1287 H1275 0.930 . S
C1287 C1288 1.399 . S
C1287 C1292 1.399 . S
C1288 C1287 1.399 . S
C1288 C1289 1.376 . S
C1289 H1276 0.930 . S
C1289 C1288 1.376 . S
C1289 C1290 1.388 . S
C1290 H1277 0.930 . S
C1290 C1289 1.388 . S
C1290 C1291 1.390 . S
C1291 C1290 1.390 . S
C1291 C1292 1.394 . S
C1291 C1297 1.465 . S
C1292 C1287 1.399 . S
C1292 C1291 1.394 . S
C1292 C1293 1.516 . S
C1293 C1292 1.516 . S
C1293 C1294 1.502 . S
C1293 C1295 1.561 . S
C1293 C1296 1.526 . S
C1294 H1278 0.959 . S
C1294 H1279 0.959 . S
C1294 H1280 0.961 . S
C1294 C1293 1.502 . S
C1295 H1281 0.960 . S
C1295 H1282 0.961 . S
C1295 H1283 0.959 . S
C1295 C1293 1.561 . S
C1296 C1293 1.526 . S
C1296 C1297 1.396 . S
C1296 C1301 1.390 . S
C1297 C1291 1.465 . S
C1297 C1296 1.396 . S
C1297 C1298 1.399 . S
C1298 H1284 0.929 . S
C1298 C1297 1.399 . S
C1298 C1299 1.385 . S
C1299 H1285 0.931 . S
C1299 C1298 1.385 . S
C1299 C1300 1.389 . S
C1300 C1299 1.389 . S
C1300 C1301 1.387 . S
C1301 H1286 0.930 . S
C1301 C1296 1.390 . S
C1301 C1300 1.387 . S
H1302 C1314 0.930 . S
H1303 C1316 0.930 . S
H1304 C1317 0.930 . S
H1305 C1321 0.959 . S
H1306 C1321 0.959 . S
H1307 C1321 0.961 . S
H1308 C1322 0.960 . S
H1309 C1322 0.961 . S
H1310 C1322 0.959 . S
H1311 C1325 0.929 . S
H1312 C1326 0.931 . S
H1313 C1328 0.930 . S
C1314 H1302 0.930 . S
C1314 C1315 1.399 . S
C1314 C1319 1.399 . S
C1315 C1314 1.399 . S
C1315 C1316 1.376 . S
C1316 H1303 0.930 . S
C1316 C1315 1.376 . S
C1316 C1317 1.388 . S
C1317 H1304 0.930 . S
C1317 C1316 1.388 . S
C1317 C1318 1.390 . S
C1318 C1317 1.390 . S
C1318 C1319 1.394 . S
C1318 C1324 1.465 . S
C1319 C1314 1.399 . S
C1319 C1318 1.394 . S
C1319 C1320 1.516 . S
C1320 C1319 1.516 . S
C1320 C1321 1.502 . S
C1320 C1322 1.561 . S
C1320 C1323 1.526 . S
C1321 H1305 0.959 . S
C1321 H1306 0.959 . S
C1321 H1307 0.961 . S
C1321 C1320 1.502 . S
C1322 H1308 0.960 . S
C1322 H1309 0.961 . S
C1322 H1310 0.959 . S
C1322 C1320 1.561 . S
C1323 C1320 1.526 . S
C1323 C1324 1.396 . S
C1323 C1328 1.390 . S
C1324 C1318 1.465 . S
C1324 C1323 1.396 . S
C1324 C1325 1.399 . S
C1325 H1311 0.929 . S
C1325 C1324 1.399 . S
C1325 C1326 1.385 . S
C1326 H1312 0.931 . S
C1326 C1325 1.385 . S
C1326 C1327 1.389 . S
C1327 C1326 1.389 . S
C1327 C1328 1.387 . S
C1328 H1313 0.930 . S
C1328 C1323 1.390 . S
C1328 C1327 1.387 . S
H1329 C1341 0.930 . S
H1330 C1343 0.930 . S
H1331 C1344 0.930 . S
H1332 C1348 0.959 . S
H1333 C1348 0.959 . S
H1334 C1348 0.961 . S
H1335 C1349 0.960 . S
H1336 C1349 0.961 . S
H1337 C1349 0.959 . S
H1338 C1352 0.929 . S
H1339 C1353 0.931 . S
H1340 C1355 0.930 . S
C1341 H1329 0.930 . S
C1341 C1342 1.399 . S
C1341 C1346 1.399 . S
C1342 C1341 1.399 . S
C1342 C1343 1.376 . S
C1343 H1330 0.930 . S
C1343 C1342 1.376 . S
C1343 C1344 1.388 . S
C1344 H1331 0.930 . S
C1344 C1343 1.388 . S
C1344 C1345 1.390 . S
C1345 C1344 1.390 . S
C1345 C1346 1.394 . S
C1345 C1351 1.465 . S
C1346 C1341 1.399 . S
C1346 C1345 1.394 . S
C1346 C1347 1.516 . S
C1347 C1346 1.516 . S
C1347 C1348 1.502 . S
C1347 C1349 1.561 . S
C1347 C1350 1.526 . S
C1348 H1332 0.959 . S
C1348 H1333 0.959 . S
C1348 H1334 0.961 . S
C1348 C1347 1.502 . S
C1349 H1335 0.960 . S
C1349 H1336 0.961 . S
C1349 H1337 0.959 . S
C1349 C1347 1.561 . S
C1350 C1347 1.526 . S
C1350 C1351 1.396 . S
C1350 C1355 1.390 . S
C1351 C1345 1.465 . S
C1351 C1350 1.396 . S
C1351 C1352 1.399 . S
C1352 H1338 0.929 . S
C1352 C1351 1.399 . S
C1352 C1353 1.385 . S
C1353 H1339 0.931 . S
C1353 C1352 1.385 . S
C1353 C1354 1.389 . S
C1354 C1353 1.389 . S
C1354 C1355 1.387 . S
C1355 H1340 0.930 . S
C1355 C1350 1.390 . S
C1355 C1354 1.387 . S
H1356 C1368 0.930 . S
H1357 C1370 0.930 . S
H1358 C1371 0.930 . S
H1359 C1375 0.959 . S
H1360 C1375 0.959 . S
H1361 C1375 0.961 . S
H1362 C1376 0.960 . S
H1363 C1376 0.961 . S
H1364 C1376 0.959 . S
H1365 C1379 0.929 . S
H1366 C1380 0.931 . S
H1367 C1382 0.930 . S
C1368 H1356 0.930 . S
C1368 C1369 1.399 . S
C1368 C1373 1.399 . S
C1369 C1368 1.399 . S
C1369 C1370 1.376 . S
C1370 H1357 0.930 . S
C1370 C1369 1.376 . S
C1370 C1371 1.388 . S
C1371 H1358 0.930 . S
C1371 C1370 1.388 . S
C1371 C1372 1.390 . S
C1372 C1371 1.390 . S
C1372 C1373 1.394 . S
C1372 C1378 1.465 . S
C1373 C1368 1.399 . S
C1373 C1372 1.394 . S
C1373 C1374 1.516 . S
C1374 C1373 1.516 . S
C1374 C1375 1.502 . S
C1374 C1376 1.561 . S
C1374 C1377 1.526 . S
C1375 H1359 0.959 . S
C1375 H1360 0.959 . S
C1375 H1361 0.961 . S
C1375 C1374 1.502 . S
C1376 H1362 0.960 . S
C1376 H1363 0.961 . S
C1376 H1364 0.959 . S
C1376 C1374 1.561 . S
C1377 C1374 1.526 . S
C1377 C1378 1.396 . S
C1377 C1382 1.390 . S
C1378 C1372 1.465 . S
C1378 C1377 1.396 . S
C1378 C1379 1.399 . S
C1379 H1365 0.929 . S
C1379 C1378 1.399 . S
C1379 C1380 1.385 . S
C1380 H1366 0.931 . S
C1380 C1379 1.385 . S
C1380 C1381 1.389 . S
C1381 C1380 1.389 . S
C1381 C1382 1.387 . S
C1382 H1367 0.930 . S
C1382 C1377 1.390 . S
C1382 C1381 1.387 . S
H1383 C1395 0.930 . S
H1384 C1397 0.930 . S
H1385 C1398 0.930 . S
H1386 C1402 0.959 . S
H1387 C1402 0.959 . S
H1388 C1402 0.961 . S
H1389 C1403 0.960 . S
H1390 C1403 0.961 . S
H1391 C1403 0.959 . S
H1392 C1406 0.929 . S
H1393 C1407 0.931 . S
H1394 C1409 0.930 . S
C1395 H1383 0.930 . S
C1395 C1396 1.399 . S
C1395 C1400 1.399 . S
C1396 C1395 1.399 . S
C1396 C1397 1.376 . S
C1397 H1384 0.930 . S
C1397 C1396 1.376 . S
C1397 C1398 1.388 . S
C1398 H1385 0.930 . S
C1398 C1397 1.388 . S
C1398 C1399 1.390 . S
C1399 C1398 1.390 . S
C1399 C1400 1.394 . S
C1399 C1405 1.465 . S
C1400 C1395 1.399 . S
C1400 C1399 1.394 . S
C1400 C1401 1.516 . S
C1401 C1400 1.516 . S
C1401 C1402 1.502 . S
C1401 C1403 1.561 . S
C1401 C1404 1.526 . S
C1402 H1386 0.959 . S
C1402 H1387 0.959 . S
C1402 H1388 0.961 . S
C1402 C1401 1.502 . S
C1403 H1389 0.960 . S
C1403 H1390 0.961 . S
C1403 H1391 0.959 . S
C1403 C1401 1.561 . S
C1404 C1401 1.526 . S
C1404 C1405 1.396 . S
C1404 C1409 1.390 . S
C1405 C1399 1.465 . S
C1405 C1404 1.396 . S
C1405 C1406 1.399 . S
C1406 H1392 0.929 . S
C1406 C1405 1.399 . S
C1406 C1407 1.385 . S
C1407 H1393 0.931 . S
C1407 C1406 1.385 . S
C1407 C1408 1.389 . S
C1408 C1407 1.389 . S
C1408 C1409 1.387 . S
C1409 H1394 0.930 . S
C1409 C1404 1.390 . S
C1409 C1408 1.387 . S
H1410 C1422 0.930 . S
H1411 C1424 0.930 . S
H1412 C1425 0.930 . S
H1413 C1429 0.959 . S
H1414 C1429 0.959 . S
H1415 C1429 0.961 . S
H1416 C1430 0.960 . S
H1417 C1430 0.961 1_554 S
H1418 C1430 0.959 . S
H1419 C1433 0.929 . S
H1420 C1434 0.931 . S
H1421 C1436 0.930 . S
C1422 H1410 0.930 . S
C1422 C1423 1.399 . S
C1422 C1427 1.399 . S
C1423 C1422 1.399 . S
C1423 C1424 1.376 . S
C1424 H1411 0.930 . S
C1424 C1423 1.376 . S
C1424 C1425 1.388 . S
C1425 H1412 0.930 . S
C1425 C1424 1.388 . S
C1425 C1426 1.390 . S
C1426 C1425 1.390 . S
C1426 C1427 1.394 . S
C1426 C1432 1.465 . S
C1427 C1422 1.399 . S
C1427 C1426 1.394 . S
C1427 C1428 1.516 . S
C1428 C1427 1.516 . S
C1428 C1429 1.502 . S
C1428 C1430 1.561 . S
C1428 C1431 1.526 . S
C1429 H1413 0.959 . S
C1429 H1414 0.959 . S
C1429 H1415 0.961 . S
C1429 C1428 1.502 . S
C1430 H1416 0.960 . S
C1430 H1417 0.961 1_556 S
C1430 H1418 0.959 . S
C1430 C1428 1.561 . S
C1431 C1428 1.526 . S
C1431 C1432 1.396 . S
C1431 C1436 1.390 . S
C1432 C1426 1.465 . S
C1432 C1431 1.396 . S
C1432 C1433 1.399 . S
C1433 H1419 0.929 . S
C1433 C1432 1.399 . S
C1433 C1434 1.385 . S
C1434 H1420 0.931 . S
C1434 C1433 1.385 . S
C1434 C1435 1.389 . S
C1435 C1434 1.389 . S
C1435 C1436 1.387 . S
C1436 H1421 0.930 . S
C1436 C1431 1.390 . S
C1436 C1435 1.387 . S
H1437 C1449 0.930 . S
H1438 C1451 0.930 . S
H1439 C1452 0.930 . S
H1440 C1456 0.959 . S
H1441 C1456 0.959 . S
H1442 C1456 0.961 . S
H1443 C1457 0.960 . S
H1444 C1457 0.961 1_556 S
H1445 C1457 0.959 . S
H1446 C1460 0.929 . S
H1447 C1461 0.931 . S
H1448 C1463 0.930 . S
C1449 H1437 0.930 . S
C1449 C1450 1.399 . S
C1449 C1454 1.399 . S
C1450 C1449 1.399 . S
C1450 C1451 1.376 . S
C1451 H1438 0.930 . S
C1451 C1450 1.376 . S
C1451 C1452 1.388 . S
C1452 H1439 0.930 . S
C1452 C1451 1.388 . S
C1452 C1453 1.390 . S
C1453 C1452 1.390 . S
C1453 C1454 1.394 . S
C1453 C1459 1.465 . S
C1454 C1449 1.399 . S
C1454 C1453 1.394 . S
C1454 C1455 1.516 . S
C1455 C1454 1.516 . S
C1455 C1456 1.502 . S
C1455 C1457 1.561 . S
C1455 C1458 1.526 . S
C1456 H1440 0.959 . S
C1456 H1441 0.959 . S
C1456 H1442 0.961 . S
C1456 C1455 1.502 . S
C1457 H1443 0.960 . S
C1457 H1444 0.961 1_554 S
C1457 H1445 0.959 . S
C1457 C1455 1.561 . S
C1458 C1455 1.526 . S
C1458 C1459 1.396 . S
C1458 C1463 1.390 . S
C1459 C1453 1.465 . S
C1459 C1458 1.396 . S
C1459 C1460 1.399 . S
C1460 H1446 0.929 . S
C1460 C1459 1.399 . S
C1460 C1461 1.385 . S
C1461 H1447 0.931 . S
C1461 C1460 1.385 . S
C1461 C1462 1.389 . S
C1462 C1461 1.389 . S
C1462 C1463 1.387 . S
C1463 H1448 0.930 . S
C1463 C1458 1.390 . S
C1463 C1462 1.387 . S
H1464 C1476 0.930 . S
H1465 C1478 0.930 . S
H1466 C1479 0.930 . S
H1467 C1483 0.959 . S
H1468 C1483 0.959 . S
H1469 C1483 0.961 . S
H1470 C1484 0.960 . S
H1471 C1484 0.961 . S
H1472 C1484 0.959 . S
H1473 C1487 0.929 . S
H1474 C1488 0.931 . S
H1475 C1490 0.930 . S
C1476 H1464 0.930 . S
C1476 C1477 1.399 . S
C1476 C1481 1.399 . S
C1477 C1476 1.399 . S
C1477 C1478 1.376 . S
C1478 H1465 0.930 . S
C1478 C1477 1.376 . S
C1478 C1479 1.388 . S
C1479 H1466 0.930 . S
C1479 C1478 1.388 . S
C1479 C1480 1.390 . S
C1480 C1479 1.390 . S
C1480 C1481 1.394 . S
C1480 C1486 1.465 . S
C1481 C1476 1.399 . S
C1481 C1480 1.394 . S
C1481 C1482 1.516 . S
C1482 C1481 1.516 . S
C1482 C1483 1.502 . S
C1482 C1484 1.561 . S
C1482 C1485 1.526 . S
C1483 H1467 0.959 . S
C1483 H1468 0.959 . S
C1483 H1469 0.961 . S
C1483 C1482 1.502 . S
C1484 H1470 0.960 . S
C1484 H1471 0.961 . S
C1484 H1472 0.959 . S
C1484 C1482 1.561 . S
C1485 C1482 1.526 . S
C1485 C1486 1.396 . S
C1485 C1490 1.390 . S
C1486 C1480 1.465 . S
C1486 C1485 1.396 . S
C1486 C1487 1.399 . S
C1487 H1473 0.929 . S
C1487 C1486 1.399 . S
C1487 C1488 1.385 . S
C1488 H1474 0.931 . S
C1488 C1487 1.385 . S
C1488 C1489 1.389 . S
C1489 C1488 1.389 . S
C1489 C1490 1.387 . S
C1490 H1475 0.930 . S
C1490 C1485 1.390 . S
C1490 C1489 1.387 . S
H1491 C1503 0.930 . S
H1492 C1505 0.930 . S
H1493 C1506 0.930 . S
H1494 C1510 0.959 . S
H1495 C1510 0.959 . S
H1496 C1510 0.961 . S
H1497 C1511 0.960 . S
H1498 C1511 0.961 . S
H1499 C1511 0.959 . S
H1500 C1514 0.929 . S
H1501 C1515 0.931 . S
H1502 C1517 0.930 . S
C1503 H1491 0.930 . S
C1503 C1504 1.399 . S
C1503 C1508 1.399 . S
C1504 C1503 1.399 . S
C1504 C1505 1.376 . S
C1505 H1492 0.930 . S
C1505 C1504 1.376 . S
C1505 C1506 1.388 . S
C1506 H1493 0.930 . S
C1506 C1505 1.388 . S
C1506 C1507 1.390 . S
C1507 C1506 1.390 . S
C1507 C1508 1.394 . S
C1507 C1513 1.465 . S
C1508 C1503 1.399 . S
C1508 C1507 1.394 . S
C1508 C1509 1.516 . S
C1509 C1508 1.516 . S
C1509 C1510 1.502 . S
C1509 C1511 1.561 . S
C1509 C1512 1.526 . S
C1510 H1494 0.959 . S
C1510 H1495 0.959 . S
C1510 H1496 0.961 . S
C1510 C1509 1.502 . S
C1511 H1497 0.960 . S
C1511 H1498 0.961 . S
C1511 H1499 0.959 . S
C1511 C1509 1.561 . S
C1512 C1509 1.526 . S
C1512 C1513 1.396 . S
C1512 C1517 1.390 . S
C1513 C1507 1.465 . S
C1513 C1512 1.396 . S
C1513 C1514 1.399 . S
C1514 H1500 0.929 . S
C1514 C1513 1.399 . S
C1514 C1515 1.385 . S
C1515 H1501 0.931 . S
C1515 C1514 1.385 . S
C1515 C1516 1.389 . S
C1516 C1515 1.389 . S
C1516 C1517 1.387 . S
C1517 H1502 0.930 . S
C1517 C1512 1.390 . S
C1517 C1516 1.387 . S
H1518 C1530 0.930 . S
H1519 C1532 0.930 . S
H1520 C1533 0.930 . S
H1521 C1537 0.959 . S
H1522 C1537 0.959 . S
H1523 C1537 0.961 . S
H1524 C1538 0.960 . S
H1525 C1538 0.961 . S
H1526 C1538 0.959 . S
H1527 C1541 0.929 . S
H1528 C1542 0.931 . S
H1529 C1544 0.930 . S
C1530 H1518 0.930 . S
C1530 C1531 1.399 . S
C1530 C1535 1.399 . S
C1531 C1530 1.399 . S
C1531 C1532 1.376 . S
C1532 H1519 0.930 . S
C1532 C1531 1.376 . S
C1532 C1533 1.388 . S
C1533 H1520 0.930 . S
C1533 C1532 1.388 . S
C1533 C1534 1.390 . S
C1534 C1533 1.390 . S
C1534 C1535 1.394 . S
C1534 C1540 1.465 . S
C1535 C1530 1.399 . S
C1535 C1534 1.394 . S
C1535 C1536 1.516 . S
C1536 C1535 1.516 . S
C1536 C1537 1.502 . S
C1536 C1538 1.561 . S
C1536 C1539 1.526 . S
C1537 H1521 0.959 . S
C1537 H1522 0.959 . S
C1537 H1523 0.961 . S
C1537 C1536 1.502 . S
C1538 H1524 0.960 . S
C1538 H1525 0.961 . S
C1538 H1526 0.959 . S
C1538 C1536 1.561 . S
C1539 C1536 1.526 . S
C1539 C1540 1.396 . S
C1539 C1544 1.390 . S
C1540 C1534 1.465 . S
C1540 C1539 1.396 . S
C1540 C1541 1.399 . S
C1541 H1527 0.929 . S
C1541 C1540 1.399 . S
C1541 C1542 1.385 . S
C1542 H1528 0.931 . S
C1542 C1541 1.385 . S
C1542 C1543 1.389 . S
C1543 C1542 1.389 . S
C1543 C1544 1.387 . S
C1544 H1529 0.930 . S
C1544 C1539 1.390 . S
C1544 C1543 1.387 . S
H1545 C1557 0.930 . S
H1546 C1559 0.930 . S
H1547 C1560 0.930 . S
H1548 C1564 0.959 . S
H1549 C1564 0.959 1_554 S
H1550 C1564 0.961 . S
H1551 C1565 0.960 . S
H1552 C1565 0.961 . S
H1553 C1565 0.959 . S
H1554 C1568 0.929 . S
H1555 C1569 0.931 . S
H1556 C1571 0.930 . S
C1557 H1545 0.930 . S
C1557 C1558 1.399 . S
C1557 C1562 1.399 . S
C1558 C1557 1.399 . S
C1558 C1559 1.376 . S
C1559 H1546 0.930 . S
C1559 C1558 1.376 . S
C1559 C1560 1.388 . S
C1560 H1547 0.930 . S
C1560 C1559 1.388 . S
C1560 C1561 1.390 . S
C1561 C1560 1.390 . S
C1561 C1562 1.394 . S
C1561 C1567 1.465 . S
C1562 C1557 1.399 . S
C1562 C1561 1.394 . S
C1562 C1563 1.516 . S
C1563 C1562 1.516 . S
C1563 C1564 1.502 . S
C1563 C1565 1.561 . S
C1563 C1566 1.526 . S
C1564 H1548 0.959 . S
C1564 H1549 0.959 1_556 S
C1564 H1550 0.961 . S
C1564 C1563 1.502 . S
C1565 H1551 0.960 . S
C1565 H1552 0.961 . S
C1565 H1553 0.959 . S
C1565 C1563 1.561 . S
C1566 C1563 1.526 . S
C1566 C1567 1.396 . S
C1566 C1571 1.390 . S
C1567 C1561 1.465 . S
C1567 C1566 1.396 . S
C1567 C1568 1.399 . S
C1568 H1554 0.929 . S
C1568 C1567 1.399 . S
C1568 C1569 1.385 . S
C1569 H1555 0.931 . S
C1569 C1568 1.385 . S
C1569 C1570 1.389 . S
C1570 C1569 1.389 . S
C1570 C1571 1.387 . S
C1571 H1556 0.930 . S
C1571 C1566 1.390 . S
C1571 C1570 1.387 . S
H1572 C1584 0.930 . S
H1573 C1586 0.930 . S
H1574 C1587 0.930 . S
H1575 C1591 0.959 . S
H1576 C1591 0.959 . S
H1577 C1591 0.961 . S
H1578 C1592 0.960 . S
H1579 C1592 0.961 . S
H1580 C1592 0.959 . S
H1581 C1595 0.929 . S
H1582 C1596 0.931 . S
H1583 C1598 0.930 . S
C1584 H1572 0.930 . S
C1584 C1585 1.399 . S
C1584 C1589 1.399 . S
C1585 C1584 1.399 . S
C1585 C1586 1.376 . S
C1586 H1573 0.930 . S
C1586 C1585 1.376 . S
C1586 C1587 1.388 . S
C1587 H1574 0.930 . S
C1587 C1586 1.388 . S
C1587 C1588 1.390 . S
C1588 C1587 1.390 . S
C1588 C1589 1.394 . S
C1588 C1594 1.465 . S
C1589 C1584 1.399 . S
C1589 C1588 1.394 . S
C1589 C1590 1.516 . S
C1590 C1589 1.516 . S
C1590 C1591 1.502 . S
C1590 C1592 1.561 . S
C1590 C1593 1.526 . S
C1591 H1575 0.959 . S
C1591 H1576 0.959 . S
C1591 H1577 0.961 . S
C1591 C1590 1.502 . S
C1592 H1578 0.960 . S
C1592 H1579 0.961 . S
C1592 H1580 0.959 . S
C1592 C1590 1.561 . S
C1593 C1590 1.526 . S
C1593 C1594 1.396 . S
C1593 C1598 1.390 . S
C1594 C1588 1.465 . S
C1594 C1593 1.396 . S
C1594 C1595 1.399 . S
C1595 H1581 0.929 . S
C1595 C1594 1.399 . S
C1595 C1596 1.385 . S
C1596 H1582 0.931 . S
C1596 C1595 1.385 . S
C1596 C1597 1.389 . S
C1597 C1596 1.389 . S
C1597 C1598 1.387 . S
C1598 H1583 0.930 . S
C1598 C1593 1.390 . S
C1598 C1597 1.387 . S
H1599 C1611 0.930 . S
H1600 C1613 0.930 . S
H1601 C1614 0.930 . S
H1602 C1618 0.959 . S
H1603 C1618 0.959 . S
H1604 C1618 0.961 . S
H1605 C1619 0.960 . S
H1606 C1619 0.961 . S
H1607 C1619 0.959 . S
H1608 C1622 0.929 . S
H1609 C1623 0.931 1_554 S
H1610 C1625 0.930 . S
C1611 H1599 0.930 . S
C1611 C1612 1.399 . S
C1611 C1616 1.399 . S
C1612 C1611 1.399 . S
C1612 C1613 1.376 . S
C1613 H1600 0.930 . S
C1613 C1612 1.376 . S
C1613 C1614 1.388 . S
C1614 H1601 0.930 . S
C1614 C1613 1.388 . S
C1614 C1615 1.390 . S
C1615 C1614 1.390 . S
C1615 C1616 1.394 . S
C1615 C1621 1.465 . S
C1616 C1611 1.399 . S
C1616 C1615 1.394 . S
C1616 C1617 1.516 . S
C1617 C1616 1.516 . S
C1617 C1618 1.502 . S
C1617 C1619 1.561 . S
C1617 C1620 1.526 . S
C1618 H1602 0.959 . S
C1618 H1603 0.959 . S
C1618 H1604 0.961 . S
C1618 C1617 1.502 . S
C1619 H1605 0.960 . S
C1619 H1606 0.961 . S
C1619 H1607 0.959 . S
C1619 C1617 1.561 . S
C1620 C1617 1.526 . S
C1620 C1621 1.396 . S
C1620 C1625 1.390 . S
C1621 C1615 1.465 . S
C1621 C1620 1.396 . S
C1621 C1622 1.399 . S
C1622 H1608 0.929 . S
C1622 C1621 1.399 . S
C1622 C1623 1.385 . S
C1623 H1609 0.931 1_556 S
C1623 C1622 1.385 . S
C1623 C1624 1.389 . S
C1624 C1623 1.389 . S
C1624 C1625 1.387 . S
C1625 H1610 0.930 . S
C1625 C1620 1.390 . S
C1625 C1624 1.387 . S
H1626 C1638 0.930 . S
H1627 C1640 0.930 . S
H1628 C1641 0.930 . S
H1629 C1645 0.959 . S
H1630 C1645 0.959 . S
H1631 C1645 0.961 . S
H1632 C1646 0.960 . S
H1633 C1646 0.961 . S
H1634 C1646 0.959 . S
H1635 C1649 0.929 . S
H1636 C1650 0.931 . S
H1637 C1652 0.930 . S
C1638 H1626 0.930 . S
C1638 C1639 1.399 . S
C1638 C1643 1.399 . S
C1639 C1638 1.399 . S
C1639 C1640 1.376 . S
C1640 H1627 0.930 . S
C1640 C1639 1.376 . S
C1640 C1641 1.388 . S
C1641 H1628 0.930 . S
C1641 C1640 1.388 . S
C1641 C1642 1.390 . S
C1642 C1641 1.390 . S
C1642 C1643 1.394 . S
C1642 C1648 1.465 . S
C1643 C1638 1.399 . S
C1643 C1642 1.394 . S
C1643 C1644 1.516 . S
C1644 C1643 1.516 . S
C1644 C1645 1.502 . S
C1644 C1646 1.561 . S
C1644 C1647 1.526 . S
C1645 H1629 0.959 . S
C1645 H1630 0.959 . S
C1645 H1631 0.961 . S
C1645 C1644 1.502 . S
C1646 H1632 0.960 . S
C1646 H1633 0.961 . S
C1646 H1634 0.959 . S
C1646 C1644 1.561 . S
C1647 C1644 1.526 . S
C1647 C1648 1.396 . S
C1647 C1652 1.390 . S
C1648 C1642 1.465 . S
C1648 C1647 1.396 . S
C1648 C1649 1.399 . S
C1649 H1635 0.929 . S
C1649 C1648 1.399 . S
C1649 C1650 1.385 . S
C1650 H1636 0.931 . S
C1650 C1649 1.385 . S
C1650 C1651 1.389 . S
C1651 C1650 1.389 . S
C1651 C1652 1.387 . S
C1652 H1637 0.930 . S
C1652 C1647 1.390 . S
C1652 C1651 1.387 . S
H1653 C1665 0.930 . S
H1654 C1667 0.930 . S
H1655 C1668 0.930 . S
H1656 C1672 0.959 . S
H1657 C1672 0.959 . S
H1658 C1672 0.961 . S
H1659 C1673 0.960 . S
H1660 C1673 0.961 . S
H1661 C1673 0.959 . S
H1662 C1676 0.929 . S
H1663 C1677 0.931 . S
H1664 C1679 0.930 . S
C1665 H1653 0.930 . S
C1665 C1666 1.399 . S
C1665 C1670 1.399 . S
C1666 C1665 1.399 . S
C1666 C1667 1.376 . S
C1667 H1654 0.930 . S
C1667 C1666 1.376 . S
C1667 C1668 1.388 . S
C1668 H1655 0.930 . S
C1668 C1667 1.388 . S
C1668 C1669 1.390 . S
C1669 C1668 1.390 . S
C1669 C1670 1.394 . S
C1669 C1675 1.465 . S
C1670 C1665 1.399 . S
C1670 C1669 1.394 . S
C1670 C1671 1.516 . S
C1671 C1670 1.516 . S
C1671 C1672 1.502 . S
C1671 C1673 1.561 . S
C1671 C1674 1.526 . S
C1672 H1656 0.959 . S
C1672 H1657 0.959 . S
C1672 H1658 0.961 . S
C1672 C1671 1.502 . S
C1673 H1659 0.960 . S
C1673 H1660 0.961 . S
C1673 H1661 0.959 . S
C1673 C1671 1.561 . S
C1674 C1671 1.526 . S
C1674 C1675 1.396 . S
C1674 C1679 1.390 . S
C1675 C1669 1.465 . S
C1675 C1674 1.396 . S
C1675 C1676 1.399 . S
C1676 H1662 0.929 . S
C1676 C1675 1.399 . S
C1676 C1677 1.385 . S
C1677 H1663 0.931 . S
C1677 C1676 1.385 . S
C1677 C1678 1.389 . S
C1678 C1677 1.389 . S
C1678 C1679 1.387 . S
C1679 H1664 0.930 . S
C1679 C1674 1.390 . S
C1679 C1678 1.387 . S
H1680 C1692 0.930 . S
H1681 C1694 0.930 . S
H1682 C1695 0.930 . S
H1683 C1699 0.959 . S
H1684 C1699 0.959 1_556 S
H1685 C1699 0.961 . S
H1686 C1700 0.960 . S
H1687 C1700 0.961 1_556 S
H1688 C1700 0.959 . S
H1689 C1703 0.929 . S
H1690 C1704 0.931 . S
H1691 C1706 0.930 . S
C1692 H1680 0.930 . S
C1692 C1693 1.399 . S
C1692 C1697 1.399 . S
C1693 C1692 1.399 . S
C1693 C1694 1.376 . S
C1694 H1681 0.930 . S
C1694 C1693 1.376 . S
C1694 C1695 1.388 . S
C1695 H1682 0.930 . S
C1695 C1694 1.388 . S
C1695 C1696 1.390 . S
C1696 C1695 1.390 . S
C1696 C1697 1.394 . S
C1696 C1702 1.465 . S
C1697 C1692 1.399 . S
C1697 C1696 1.394 . S
C1697 C1698 1.516 . S
C1698 C1697 1.516 . S
C1698 C1699 1.502 . S
C1698 C1700 1.561 . S
C1698 C1701 1.526 . S
C1699 H1683 0.959 . S
C1699 H1684 0.959 1_554 S
C1699 H1685 0.961 . S
C1699 C1698 1.502 . S
C1700 H1686 0.960 . S
C1700 H1687 0.961 1_554 S
C1700 H1688 0.959 . S
C1700 C1698 1.561 . S
C1701 C1698 1.526 . S
C1701 C1702 1.396 . S
C1701 C1706 1.390 . S
C1702 C1696 1.465 . S
C1702 C1701 1.396 . S
C1702 C1703 1.399 . S
C1703 H1689 0.929 . S
C1703 C1702 1.399 . S
C1703 C1704 1.385 . S
C1704 H1690 0.931 . S
C1704 C1703 1.385 . S
C1704 C1705 1.389 . S
C1705 C1704 1.389 . S
C1705 C1706 1.387 . S
C1706 H1691 0.930 . S
C1706 C1701 1.390 . S
C1706 C1705 1.387 . S
H1707 C1719 0.930 . S
H1708 C1721 0.930 . S
H1709 C1722 0.930 . S
H1710 C1726 0.959 . S
H1711 C1726 0.959 . S
H1712 C1726 0.961 . S
H1713 C1727 0.960 . S
H1714 C1727 0.961 . S
H1715 C1727 0.959 . S
H1716 C1730 0.929 . S
H1717 C1731 0.931 . S
H1718 C1733 0.930 . S
C1719 H1707 0.930 . S
C1719 C1720 1.399 . S
C1719 C1724 1.399 . S
C1720 C1719 1.399 . S
C1720 C1721 1.376 . S
C1721 H1708 0.930 . S
C1721 C1720 1.376 . S
C1721 C1722 1.388 . S
C1722 H1709 0.930 . S
C1722 C1721 1.388 . S
C1722 C1723 1.390 . S
C1723 C1722 1.390 . S
C1723 C1724 1.394 . S
C1723 C1729 1.465 . S
C1724 C1719 1.399 . S
C1724 C1723 1.394 . S
C1724 C1725 1.516 . S
C1725 C1724 1.516 . S
C1725 C1726 1.502 . S
C1725 C1727 1.561 . S
C1725 C1728 1.526 . S
C1726 H1710 0.959 . S
C1726 H1711 0.959 . S
C1726 H1712 0.961 . S
C1726 C1725 1.502 . S
C1727 H1713 0.960 . S
C1727 H1714 0.961 . S
C1727 H1715 0.959 . S
C1727 C1725 1.561 . S
C1728 C1725 1.526 . S
C1728 C1729 1.396 . S
C1728 C1733 1.390 . S
C1729 C1723 1.465 . S
C1729 C1728 1.396 . S
C1729 C1730 1.399 . S
C1730 H1716 0.929 . S
C1730 C1729 1.399 . S
C1730 C1731 1.385 . S
C1731 H1717 0.931 . S
C1731 C1730 1.385 . S
C1731 C1732 1.389 . S
C1732 C1731 1.389 . S
C1732 C1733 1.387 . S
C1733 H1718 0.930 . S
C1733 C1728 1.390 . S
C1733 C1732 1.387 . S
H1734 C1746 0.930 . S
H1735 C1748 0.930 . S
H1736 C1749 0.930 . S
H1737 C1753 0.959 . S
H1738 C1753 0.959 . S
H1739 C1753 0.961 . S
H1740 C1754 0.960 . S
H1741 C1754 0.961 . S
H1742 C1754 0.959 . S
H1743 C1757 0.929 . S
H1744 C1758 0.931 . S
H1745 C1760 0.930 . S
C1746 H1734 0.930 . S
C1746 C1747 1.399 . S
C1746 C1751 1.399 . S
C1747 C1746 1.399 . S
C1747 C1748 1.376 . S
C1748 H1735 0.930 . S
C1748 C1747 1.376 . S
C1748 C1749 1.388 . S
C1749 H1736 0.930 . S
C1749 C1748 1.388 . S
C1749 C1750 1.390 . S
C1750 C1749 1.390 . S
C1750 C1751 1.394 . S
C1750 C1756 1.465 . S
C1751 C1746 1.399 . S
C1751 C1750 1.394 . S
C1751 C1752 1.516 . S
C1752 C1751 1.516 . S
C1752 C1753 1.502 . S
C1752 C1754 1.561 . S
C1752 C1755 1.526 . S
C1753 H1737 0.959 . S
C1753 H1738 0.959 . S
C1753 H1739 0.961 . S
C1753 C1752 1.502 . S
C1754 H1740 0.960 . S
C1754 H1741 0.961 . S
C1754 H1742 0.959 . S
C1754 C1752 1.561 . S
C1755 C1752 1.526 . S
C1755 C1756 1.396 . S
C1755 C1760 1.390 . S
C1756 C1750 1.465 . S
C1756 C1755 1.396 . S
C1756 C1757 1.399 . S
C1757 H1743 0.929 . S
C1757 C1756 1.399 . S
C1757 C1758 1.385 . S
C1758 H1744 0.931 . S
C1758 C1757 1.385 . S
C1758 C1759 1.389 . S
C1759 C1758 1.389 . S
C1759 C1760 1.387 . S
C1760 H1745 0.930 . S
C1760 C1755 1.390 . S
C1760 C1759 1.387 . S
H1761 C1773 0.930 . S
H1762 C1775 0.930 . S
H1763 C1776 0.930 . S
H1764 C1780 0.959 . S
H1765 C1780 0.959 . S
H1766 C1780 0.961 . S
H1767 C1781 0.960 . S
H1768 C1781 0.961 . S
H1769 C1781 0.959 . S
H1770 C1784 0.929 . S
H1771 C1785 0.931 . S
H1772 C1787 0.930 . S
C1773 H1761 0.930 . S
C1773 C1774 1.399 . S
C1773 C1778 1.399 . S
C1774 C1773 1.399 . S
C1774 C1775 1.376 . S
C1775 H1762 0.930 . S
C1775 C1774 1.376 . S
C1775 C1776 1.388 . S
C1776 H1763 0.930 . S
C1776 C1775 1.388 . S
C1776 C1777 1.390 . S
C1777 C1776 1.390 . S
C1777 C1778 1.394 . S
C1777 C1783 1.465 . S
C1778 C1773 1.399 . S
C1778 C1777 1.394 . S
C1778 C1779 1.516 . S
C1779 C1778 1.516 . S
C1779 C1780 1.502 . S
C1779 C1781 1.561 . S
C1779 C1782 1.526 . S
C1780 H1764 0.959 . S
C1780 H1765 0.959 . S
C1780 H1766 0.961 . S
C1780 C1779 1.502 . S
C1781 H1767 0.960 . S
C1781 H1768 0.961 . S
C1781 H1769 0.959 . S
C1781 C1779 1.561 . S
C1782 C1779 1.526 . S
C1782 C1783 1.396 . S
C1782 C1787 1.390 . S
C1783 C1777 1.465 . S
C1783 C1782 1.396 . S
C1783 C1784 1.399 . S
C1784 H1770 0.929 . S
C1784 C1783 1.399 . S
C1784 C1785 1.385 . S
C1785 H1771 0.931 . S
C1785 C1784 1.385 . S
C1785 C1786 1.389 . S
C1786 C1785 1.389 . S
C1786 C1787 1.387 . S
C1787 H1772 0.930 . S
C1787 C1782 1.390 . S
C1787 C1786 1.387 . S
H1788 C1800 0.930 . S
H1789 C1802 0.930 . S
H1790 C1803 0.930 . S
H1791 C1807 0.959 . S
H1792 C1807 0.959 . S
H1793 C1807 0.961 . S
H1794 C1808 0.960 . S
H1795 C1808 0.961 . S
H1796 C1808 0.959 . S
H1797 C1811 0.929 . S
H1798 C1812 0.931 . S
H1799 C1814 0.930 . S
C1800 H1788 0.930 . S
C1800 C1801 1.399 . S
C1800 C1805 1.399 . S
C1801 C1800 1.399 . S
C1801 C1802 1.376 . S
C1802 H1789 0.930 . S
C1802 C1801 1.376 . S
C1802 C1803 1.388 . S
C1803 H1790 0.930 . S
C1803 C1802 1.388 . S
C1803 C1804 1.390 . S
C1804 C1803 1.390 . S
C1804 C1805 1.394 . S
C1804 C1810 1.465 . S
C1805 C1800 1.399 . S
C1805 C1804 1.394 . S
C1805 C1806 1.516 . S
C1806 C1805 1.516 . S
C1806 C1807 1.502 . S
C1806 C1808 1.561 . S
C1806 C1809 1.526 . S
C1807 H1791 0.959 . S
C1807 H1792 0.959 . S
C1807 H1793 0.961 . S
C1807 C1806 1.502 . S
C1808 H1794 0.960 . S
C1808 H1795 0.961 . S
C1808 H1796 0.959 . S
C1808 C1806 1.561 . S
C1809 C1806 1.526 . S
C1809 C1810 1.396 . S
C1809 C1814 1.390 . S
C1810 C1804 1.465 . S
C1810 C1809 1.396 . S
C1810 C1811 1.399 . S
C1811 H1797 0.929 . S
C1811 C1810 1.399 . S
C1811 C1812 1.385 . S
C1812 H1798 0.931 . S
C1812 C1811 1.385 . S
C1812 C1813 1.389 . S
C1813 C1812 1.389 . S
C1813 C1814 1.387 . S
C1814 H1799 0.930 . S
C1814 C1809 1.390 . S
C1814 C1813 1.387 . S
H1815 C1827 0.930 . S
H1816 C1829 0.930 . S
H1817 C1830 0.930 . S
H1818 C1834 0.959 . S
H1819 C1834 0.959 . S
H1820 C1834 0.961 . S
H1821 C1835 0.960 . S
H1822 C1835 0.961 . S
H1823 C1835 0.959 . S
H1824 C1838 0.929 . S
H1825 C1839 0.931 . S
H1826 C1841 0.930 . S
C1827 H1815 0.930 . S
C1827 C1828 1.399 . S
C1827 C1832 1.399 . S
C1828 C1827 1.399 . S
C1828 C1829 1.376 . S
C1829 H1816 0.930 . S
C1829 C1828 1.376 . S
C1829 C1830 1.388 . S
C1830 H1817 0.930 . S
C1830 C1829 1.388 . S
C1830 C1831 1.390 . S
C1831 C1830 1.390 . S
C1831 C1832 1.394 . S
C1831 C1837 1.465 . S
C1832 C1827 1.399 . S
C1832 C1831 1.394 . S
C1832 C1833 1.516 . S
C1833 C1832 1.516 . S
C1833 C1834 1.502 . S
C1833 C1835 1.561 . S
C1833 C1836 1.526 . S
C1834 H1818 0.959 . S
C1834 H1819 0.959 . S
C1834 H1820 0.961 . S
C1834 C1833 1.502 . S
C1835 H1821 0.960 . S
C1835 H1822 0.961 . S
C1835 H1823 0.959 . S
C1835 C1833 1.561 . S
C1836 C1833 1.526 . S
C1836 C1837 1.396 . S
C1836 C1841 1.390 . S
C1837 C1831 1.465 . S
C1837 C1836 1.396 . S
C1837 C1838 1.399 . S
C1838 H1824 0.929 . S
C1838 C1837 1.399 . S
C1838 C1839 1.385 . S
C1839 H1825 0.931 . S
C1839 C1838 1.385 . S
C1839 C1840 1.389 . S
C1840 C1839 1.389 . S
C1840 C1841 1.387 . S
C1841 H1826 0.930 . S
C1841 C1836 1.390 . S
C1841 C1840 1.387 . S
H1842 C1854 0.930 . S
H1843 C1856 0.930 . S
H1844 C1857 0.930 . S
H1845 C1861 0.959 . S
H1846 C1861 0.959 . S
H1847 C1861 0.961 . S
H1848 C1862 0.960 . S
H1849 C1862 0.961 . S
H1850 C1862 0.959 . S
H1851 C1865 0.929 . S
H1852 C1866 0.931 . S
H1853 C1868 0.930 . S
C1854 H1842 0.930 . S
C1854 C1855 1.399 . S
C1854 C1859 1.399 . S
C1855 C1854 1.399 . S
C1855 C1856 1.376 . S
C1856 H1843 0.930 . S
C1856 C1855 1.376 . S
C1856 C1857 1.388 . S
C1857 H1844 0.930 . S
C1857 C1856 1.388 . S
C1857 C1858 1.390 . S
C1858 C1857 1.390 . S
C1858 C1859 1.394 . S
C1858 C1864 1.465 . S
C1859 C1854 1.399 . S
C1859 C1858 1.394 . S
C1859 C1860 1.516 . S
C1860 C1859 1.516 . S
C1860 C1861 1.502 . S
C1860 C1862 1.561 . S
C1860 C1863 1.526 . S
C1861 H1845 0.959 . S
C1861 H1846 0.959 . S
C1861 H1847 0.961 . S
C1861 C1860 1.502 . S
C1862 H1848 0.960 . S
C1862 H1849 0.961 . S
C1862 H1850 0.959 . S
C1862 C1860 1.561 . S
C1863 C1860 1.526 . S
C1863 C1864 1.396 . S
C1863 C1868 1.390 . S
C1864 C1858 1.465 . S
C1864 C1863 1.396 . S
C1864 C1865 1.399 . S
C1865 H1851 0.929 . S
C1865 C1864 1.399 . S
C1865 C1866 1.385 . S
C1866 H1852 0.931 . S
C1866 C1865 1.385 . S
C1866 C1867 1.389 . S
C1867 C1866 1.389 . S
C1867 C1868 1.387 . S
C1868 H1853 0.930 . S
C1868 C1863 1.390 . S
C1868 C1867 1.387 . S
H1869 C1881 0.930 . S
H1870 C1883 0.930 . S
H1871 C1884 0.930 . S
H1872 C1888 0.959 . S
H1873 C1888 0.959 . S
H1874 C1888 0.961 . S
H1875 C1889 0.960 . S
H1876 C1889 0.961 . S
H1877 C1889 0.959 . S
H1878 C1892 0.929 . S
H1879 C1893 0.931 . S
H1880 C1895 0.930 . S
C1881 H1869 0.930 . S
C1881 C1882 1.399 . S
C1881 C1886 1.399 . S
C1882 C1881 1.399 . S
C1882 C1883 1.376 . S
C1883 H1870 0.930 . S
C1883 C1882 1.376 . S
C1883 C1884 1.388 . S
C1884 H1871 0.930 . S
C1884 C1883 1.388 . S
C1884 C1885 1.390 . S
C1885 C1884 1.390 . S
C1885 C1886 1.394 . S
C1885 C1891 1.465 . S
C1886 C1881 1.399 . S
C1886 C1885 1.394 . S
C1886 C1887 1.516 . S
C1887 C1886 1.516 . S
C1887 C1888 1.502 . S
C1887 C1889 1.561 . S
C1887 C1890 1.526 . S
C1888 H1872 0.959 . S
C1888 H1873 0.959 . S
C1888 H1874 0.961 . S
C1888 C1887 1.502 . S
C1889 H1875 0.960 . S
C1889 H1876 0.961 . S
C1889 H1877 0.959 . S
C1889 C1887 1.561 . S
C1890 C1887 1.526 . S
C1890 C1891 1.396 . S
C1890 C1895 1.390 . S
C1891 C1885 1.465 . S
C1891 C1890 1.396 . S
C1891 C1892 1.399 . S
C1892 H1878 0.929 . S
C1892 C1891 1.399 . S
C1892 C1893 1.385 . S
C1893 H1879 0.931 . S
C1893 C1892 1.385 . S
C1893 C1894 1.389 . S
C1894 C1893 1.389 . S
C1894 C1895 1.387 . S
C1895 H1880 0.930 . S
C1895 C1890 1.390 . S
C1895 C1894 1.387 . S
H1896 C1908 0.930 . S
H1897 C1910 0.930 . S
H1898 C1911 0.930 . S
H1899 C1915 0.959 . S
H1900 C1915 0.959 . S
H1901 C1915 0.961 . S
H1902 C1916 0.960 . S
H1903 C1916 0.961 . S
H1904 C1916 0.959 . S
H1905 C1919 0.929 . S
H1906 C1920 0.931 . S
H1907 C1922 0.930 . S
C1908 H1896 0.930 . S
C1908 C1909 1.399 . S
C1908 C1913 1.399 . S
C1909 C1908 1.399 . S
C1909 C1910 1.376 . S
C1910 H1897 0.930 . S
C1910 C1909 1.376 . S
C1910 C1911 1.388 . S
C1911 H1898 0.930 . S
C1911 C1910 1.388 . S
C1911 C1912 1.390 . S
C1912 C1911 1.390 . S
C1912 C1913 1.394 . S
C1912 C1918 1.465 . S
C1913 C1908 1.399 . S
C1913 C1912 1.394 . S
C1913 C1914 1.516 . S
C1914 C1913 1.516 . S
C1914 C1915 1.502 . S
C1914 C1916 1.561 . S
C1914 C1917 1.526 . S
C1915 H1899 0.959 . S
C1915 H1900 0.959 . S
C1915 H1901 0.961 . S
C1915 C1914 1.502 . S
C1916 H1902 0.960 . S
C1916 H1903 0.961 . S
C1916 H1904 0.959 . S
C1916 C1914 1.561 . S
C1917 C1914 1.526 . S
C1917 C1918 1.396 . S
C1917 C1922 1.390 . S
C1918 C1912 1.465 . S
C1918 C1917 1.396 . S
C1918 C1919 1.399 . S
C1919 H1905 0.929 . S
C1919 C1918 1.399 . S
C1919 C1920 1.385 . S
C1920 H1906 0.931 . S
C1920 C1919 1.385 . S
C1920 C1921 1.389 . S
C1921 C1920 1.389 . S
C1921 C1922 1.387 . S
C1922 H1907 0.930 . S
C1922 C1917 1.390 . S
C1922 C1921 1.387 . S
H1923 C1935 0.930 . S
H1924 C1937 0.930 . S
H1925 C1938 0.930 . S
H1926 C1942 0.959 . S
H1927 C1942 0.959 . S
H1928 C1942 0.961 . S
H1929 C1943 0.960 . S
H1930 C1943 0.961 . S
H1931 C1943 0.959 . S
H1932 C1946 0.929 . S
H1933 C1947 0.931 . S
H1934 C1949 0.930 . S
C1935 H1923 0.930 . S
C1935 C1936 1.399 . S
C1935 C1940 1.399 . S
C1936 C1935 1.399 . S
C1936 C1937 1.376 . S
C1937 H1924 0.930 . S
C1937 C1936 1.376 . S
C1937 C1938 1.388 . S
C1938 H1925 0.930 . S
C1938 C1937 1.388 . S
C1938 C1939 1.390 . S
C1939 C1938 1.390 . S
C1939 C1940 1.394 . S
C1939 C1945 1.465 . S
C1940 C1935 1.399 . S
C1940 C1939 1.394 . S
C1940 C1941 1.516 . S
C1941 C1940 1.516 . S
C1941 C1942 1.502 . S
C1941 C1943 1.561 . S
C1941 C1944 1.526 . S
C1942 H1926 0.959 . S
C1942 H1927 0.959 . S
C1942 H1928 0.961 . S
C1942 C1941 1.502 . S
C1943 H1929 0.960 . S
C1943 H1930 0.961 . S
C1943 H1931 0.959 . S
C1943 C1941 1.561 . S
C1944 C1941 1.526 . S
C1944 C1945 1.396 . S
C1944 C1949 1.390 . S
C1945 C1939 1.465 . S
C1945 C1944 1.396 . S
C1945 C1946 1.399 . S
C1946 H1932 0.929 . S
C1946 C1945 1.399 . S
C1946 C1947 1.385 . S
C1947 H1933 0.931 . S
C1947 C1946 1.385 . S
C1947 C1948 1.389 . S
C1948 C1947 1.389 . S
C1948 C1949 1.387 . S
C1949 H1934 0.930 . S
C1949 C1944 1.390 . S
C1949 C1948 1.387 . S
H1950 C1962 0.930 . S
H1951 C1964 0.930 . S
H1952 C1965 0.930 . S
H1953 C1969 0.959 . S
H1954 C1969 0.959 . S
H1955 C1969 0.961 . S
H1956 C1970 0.960 . S
H1957 C1970 0.961 . S
H1958 C1970 0.959 . S
H1959 C1973 0.929 . S
H1960 C1974 0.931 . S
H1961 C1976 0.930 . S
C1962 H1950 0.930 . S
C1962 C1963 1.399 . S
C1962 C1967 1.399 . S
C1963 C1962 1.399 . S
C1963 C1964 1.376 . S
C1964 H1951 0.930 . S
C1964 C1963 1.376 . S
C1964 C1965 1.388 . S
C1965 H1952 0.930 . S
C1965 C1964 1.388 . S
C1965 C1966 1.390 . S
C1966 C1965 1.390 . S
C1966 C1967 1.394 . S
C1966 C1972 1.465 . S
C1967 C1962 1.399 . S
C1967 C1966 1.394 . S
C1967 C1968 1.516 . S
C1968 C1967 1.516 . S
C1968 C1969 1.502 . S
C1968 C1970 1.561 . S
C1968 C1971 1.526 . S
C1969 H1953 0.959 . S
C1969 H1954 0.959 . S
C1969 H1955 0.961 . S
C1969 C1968 1.502 . S
C1970 H1956 0.960 . S
C1970 H1957 0.961 . S
C1970 H1958 0.959 . S
C1970 C1968 1.561 . S
C1971 C1968 1.526 . S
C1971 C1972 1.396 . S
C1971 C1976 1.390 . S
C1972 C1966 1.465 . S
C1972 C1971 1.396 . S
C1972 C1973 1.399 . S
C1973 H1959 0.929 . S
C1973 C1972 1.399 . S
C1973 C1974 1.385 . S
C1974 H1960 0.931 . S
C1974 C1973 1.385 . S
C1974 C1975 1.389 . S
C1975 C1974 1.389 . S
C1975 C1976 1.387 . S
C1976 H1961 0.930 . S
C1976 C1971 1.390 . S
C1976 C1975 1.387 . S
H1977 C1989 0.930 . S
H1978 C1991 0.930 . S
H1979 C1992 0.930 . S
H1980 C1996 0.959 . S
H1981 C1996 0.959 . S
H1982 C1996 0.961 . S
H1983 C1997 0.960 . S
H1984 C1997 0.961 . S
H1985 C1997 0.959 . S
H1986 C2000 0.929 . S
H1987 C2001 0.931 . S
H1988 C2003 0.930 . S
C1989 H1977 0.930 . S
C1989 C1990 1.399 . S
C1989 C1994 1.399 . S
C1990 C1989 1.399 . S
C1990 C1991 1.376 . S
C1991 H1978 0.930 . S
C1991 C1990 1.376 . S
C1991 C1992 1.388 . S
C1992 H1979 0.930 . S
C1992 C1991 1.388 . S
C1992 C1993 1.390 . S
C1993 C1992 1.390 . S
C1993 C1994 1.394 . S
C1993 C1999 1.465 . S
C1994 C1989 1.399 . S
C1994 C1993 1.394 . S
C1994 C1995 1.516 . S
C1995 C1994 1.516 . S
C1995 C1996 1.502 . S
C1995 C1997 1.561 . S
C1995 C1998 1.526 . S
C1996 H1980 0.959 . S
C1996 H1981 0.959 . S
C1996 H1982 0.961 . S
C1996 C1995 1.502 . S
C1997 H1983 0.960 . S
C1997 H1984 0.961 . S
C1997 H1985 0.959 . S
C1997 C1995 1.561 . S
C1998 C1995 1.526 . S
C1998 C1999 1.396 . S
C1998 C2003 1.390 . S
C1999 C1993 1.465 . S
C1999 C1998 1.396 . S
C1999 C2000 1.399 . S
C2000 H1986 0.929 . S
C2000 C1999 1.399 . S
C2000 C2001 1.385 . S
C2001 H1987 0.931 . S
C2001 C2000 1.385 . S
C2001 C2002 1.389 . S
C2002 C2001 1.389 . S
C2002 C2003 1.387 . S
C2003 H1988 0.930 . S
C2003 C1998 1.390 . S
C2003 C2002 1.387 . S
H2004 C2016 0.930 . S
H2005 C2018 0.930 . S
H2006 C2019 0.930 . S
H2007 C2023 0.959 . S
H2008 C2023 0.959 . S
H2009 C2023 0.961 . S
H2010 C2024 0.960 . S
H2011 C2024 0.961 . S
H2012 C2024 0.959 . S
H2013 C2027 0.929 . S
H2014 C2028 0.931 . S
H2015 C2030 0.930 . S
C2016 H2004 0.930 . S
C2016 C2017 1.399 . S
C2016 C2021 1.399 . S
C2017 C2016 1.399 . S
C2017 C2018 1.376 . S
C2018 H2005 0.930 . S
C2018 C2017 1.376 . S
C2018 C2019 1.388 . S
C2019 H2006 0.930 . S
C2019 C2018 1.388 . S
C2019 C2020 1.390 . S
C2020 C2019 1.390 . S
C2020 C2021 1.394 . S
C2020 C2026 1.465 . S
C2021 C2016 1.399 . S
C2021 C2020 1.394 . S
C2021 C2022 1.516 . S
C2022 C2021 1.516 . S
C2022 C2023 1.502 . S
C2022 C2024 1.561 . S
C2022 C2025 1.526 . S
C2023 H2007 0.959 . S
C2023 H2008 0.959 . S
C2023 H2009 0.961 . S
C2023 C2022 1.502 . S
C2024 H2010 0.960 . S
C2024 H2011 0.961 . S
C2024 H2012 0.959 . S
C2024 C2022 1.561 . S
C2025 C2022 1.526 . S
C2025 C2026 1.396 . S
C2025 C2030 1.390 . S
C2026 C2020 1.465 . S
C2026 C2025 1.396 . S
C2026 C2027 1.399 . S
C2027 H2013 0.929 . S
C2027 C2026 1.399 . S
C2027 C2028 1.385 . S
C2028 H2014 0.931 . S
C2028 C2027 1.385 . S
C2028 C2029 1.389 . S
C2029 C2028 1.389 . S
C2029 C2030 1.387 . S
C2030 H2015 0.930 . S
C2030 C2025 1.390 . S
C2030 C2029 1.387 . S
H2031 C2043 0.930 . S
H2032 C2045 0.930 . S
H2033 C2046 0.930 . S
H2034 C2050 0.959 . S
H2035 C2050 0.959 . S
H2036 C2050 0.961 . S
H2037 C2051 0.960 . S
H2038 C2051 0.961 . S
H2039 C2051 0.959 . S
H2040 C2054 0.929 . S
H2041 C2055 0.931 . S
H2042 C2057 0.930 . S
C2043 H2031 0.930 . S
C2043 C2044 1.399 . S
C2043 C2048 1.399 . S
C2044 C2043 1.399 . S
C2044 C2045 1.376 . S
C2045 H2032 0.930 . S
C2045 C2044 1.376 . S
C2045 C2046 1.388 . S
C2046 H2033 0.930 . S
C2046 C2045 1.388 . S
C2046 C2047 1.390 . S
C2047 C2046 1.390 . S
C2047 C2048 1.394 . S
C2047 C2053 1.465 . S
C2048 C2043 1.399 . S
C2048 C2047 1.394 . S
C2048 C2049 1.516 . S
C2049 C2048 1.516 . S
C2049 C2050 1.502 . S
C2049 C2051 1.561 . S
C2049 C2052 1.526 . S
C2050 H2034 0.959 . S
C2050 H2035 0.959 . S
C2050 H2036 0.961 . S
C2050 C2049 1.502 . S
C2051 H2037 0.960 . S
C2051 H2038 0.961 . S
C2051 H2039 0.959 . S
C2051 C2049 1.561 . S
C2052 C2049 1.526 . S
C2052 C2053 1.396 . S
C2052 C2057 1.390 . S
C2053 C2047 1.465 . S
C2053 C2052 1.396 . S
C2053 C2054 1.399 . S
C2054 H2040 0.929 . S
C2054 C2053 1.399 . S
C2054 C2055 1.385 . S
C2055 H2041 0.931 . S
C2055 C2054 1.385 . S
C2055 C2056 1.389 . S
C2056 C2055 1.389 . S
C2056 C2057 1.387 . S
C2057 H2042 0.930 . S
C2057 C2052 1.390 . S
C2057 C2056 1.387 . S
H2058 C2070 0.930 . S
H2059 C2072 0.930 . S
H2060 C2073 0.930 . S
H2061 C2077 0.959 . S
H2062 C2077 0.959 . S
H2063 C2077 0.961 . S
H2064 C2078 0.960 . S
H2065 C2078 0.961 . S
H2066 C2078 0.959 . S
H2067 C2081 0.929 . S
H2068 C2082 0.931 . S
H2069 C2084 0.930 . S
C2070 H2058 0.930 . S
C2070 C2071 1.399 . S
C2070 C2075 1.399 . S
C2071 C2070 1.399 . S
C2071 C2072 1.376 . S
C2072 H2059 0.930 . S
C2072 C2071 1.376 . S
C2072 C2073 1.388 . S
C2073 H2060 0.930 . S
C2073 C2072 1.388 . S
C2073 C2074 1.390 . S
C2074 C2073 1.390 . S
C2074 C2075 1.394 . S
C2074 C2080 1.465 . S
C2075 C2070 1.399 . S
C2075 C2074 1.394 . S
C2075 C2076 1.516 . S
C2076 C2075 1.516 . S
C2076 C2077 1.502 . S
C2076 C2078 1.561 . S
C2076 C2079 1.526 . S
C2077 H2061 0.959 . S
C2077 H2062 0.959 . S
C2077 H2063 0.961 . S
C2077 C2076 1.502 . S
C2078 H2064 0.960 . S
C2078 H2065 0.961 . S
C2078 H2066 0.959 . S
C2078 C2076 1.561 . S
C2079 C2076 1.526 . S
C2079 C2080 1.396 . S
C2079 C2084 1.390 . S
C2080 C2074 1.465 . S
C2080 C2079 1.396 . S
C2080 C2081 1.399 . S
C2081 H2067 0.929 . S
C2081 C2080 1.399 . S
C2081 C2082 1.385 . S
C2082 H2068 0.931 . S
C2082 C2081 1.385 . S
C2082 C2083 1.389 . S
C2083 C2082 1.389 . S
C2083 C2084 1.387 . S
C2084 H2069 0.930 . S
C2084 C2079 1.390 . S
C2084 C2083 1.387 . S
H2085 C2097 0.930 . S
H2086 C2099 0.930 . S
H2087 C2100 0.930 . S
H2088 C2104 0.959 . S
H2089 C2104 0.959 . S
H2090 C2104 0.961 . S
H2091 C2105 0.960 . S
H2092 C2105 0.961 . S
H2093 C2105 0.959 . S
H2094 C2108 0.929 . S
H2095 C2109 0.931 . S
H2096 C2111 0.930 . S
C2097 H2085 0.930 . S
C2097 C2098 1.399 . S
C2097 C2102 1.399 . S
C2098 C2097 1.399 . S
C2098 C2099 1.376 . S
C2099 H2086 0.930 . S
C2099 C2098 1.376 . S
C2099 C2100 1.388 . S
C2100 H2087 0.930 . S
C2100 C2099 1.388 . S
C2100 C2101 1.390 . S
C2101 C2100 1.390 . S
C2101 C2102 1.394 . S
C2101 C2107 1.465 . S
C2102 C2097 1.399 . S
C2102 C2101 1.394 . S
C2102 C2103 1.516 . S
C2103 C2102 1.516 . S
C2103 C2104 1.502 . S
C2103 C2105 1.561 . S
C2103 C2106 1.526 . S
C2104 H2088 0.959 . S
C2104 H2089 0.959 . S
C2104 H2090 0.961 . S
C2104 C2103 1.502 . S
C2105 H2091 0.960 . S
C2105 H2092 0.961 . S
C2105 H2093 0.959 . S
C2105 C2103 1.561 . S
C2106 C2103 1.526 . S
C2106 C2107 1.396 . S
C2106 C2111 1.390 . S
C2107 C2101 1.465 . S
C2107 C2106 1.396 . S
C2107 C2108 1.399 . S
C2108 H2094 0.929 . S
C2108 C2107 1.399 . S
C2108 C2109 1.385 . S
C2109 H2095 0.931 . S
C2109 C2108 1.385 . S
C2109 C2110 1.389 . S
C2110 C2109 1.389 . S
C2110 C2111 1.387 . S
C2111 H2096 0.930 . S
C2111 C2106 1.390 . S
C2111 C2110 1.387 . S
H2112 C2124 0.930 . S
H2113 C2126 0.930 . S
H2114 C2127 0.930 . S
H2115 C2131 0.959 . S
H2116 C2131 0.959 . S
H2117 C2131 0.961 . S
H2118 C2132 0.960 . S
H2119 C2132 0.961 . S
H2120 C2132 0.959 . S
H2121 C2135 0.929 . S
H2122 C2136 0.931 . S
H2123 C2138 0.930 . S
C2124 H2112 0.930 . S
C2124 C2125 1.399 . S
C2124 C2129 1.399 . S
C2125 C2124 1.399 . S
C2125 C2126 1.376 . S
C2126 H2113 0.930 . S
C2126 C2125 1.376 . S
C2126 C2127 1.388 . S
C2127 H2114 0.930 . S
C2127 C2126 1.388 . S
C2127 C2128 1.390 . S
C2128 C2127 1.390 . S
C2128 C2129 1.394 . S
C2128 C2134 1.465 . S
C2129 C2124 1.399 . S
C2129 C2128 1.394 . S
C2129 C2130 1.516 . S
C2130 C2129 1.516 . S
C2130 C2131 1.502 . S
C2130 C2132 1.561 . S
C2130 C2133 1.526 . S
C2131 H2115 0.959 . S
C2131 H2116 0.959 . S
C2131 H2117 0.961 . S
C2131 C2130 1.502 . S
C2132 H2118 0.960 . S
C2132 H2119 0.961 . S
C2132 H2120 0.959 . S
C2132 C2130 1.561 . S
C2133 C2130 1.526 . S
C2133 C2134 1.396 . S
C2133 C2138 1.390 . S
C2134 C2128 1.465 . S
C2134 C2133 1.396 . S
C2134 C2135 1.399 . S
C2135 H2121 0.929 . S
C2135 C2134 1.399 . S
C2135 C2136 1.385 . S
C2136 H2122 0.931 . S
C2136 C2135 1.385 . S
C2136 C2137 1.389 . S
C2137 C2136 1.389 . S
C2137 C2138 1.387 . S
C2138 H2123 0.930 . S
C2138 C2133 1.390 . S
C2138 C2137 1.387 . S
H2139 C2151 0.930 . S
H2140 C2153 0.930 . S
H2141 C2154 0.930 . S
H2142 C2158 0.959 . S
H2143 C2158 0.959 . S
H2144 C2158 0.961 . S
H2145 C2159 0.960 . S
H2146 C2159 0.961 . S
H2147 C2159 0.959 . S
H2148 C2162 0.929 . S
H2149 C2163 0.931 . S
H2150 C2165 0.930 . S
C2151 H2139 0.930 . S
C2151 C2152 1.399 . S
C2151 C2156 1.399 . S
C2152 C2151 1.399 . S
C2152 C2153 1.376 . S
C2153 H2140 0.930 . S
C2153 C2152 1.376 . S
C2153 C2154 1.388 . S
C2154 H2141 0.930 . S
C2154 C2153 1.388 . S
C2154 C2155 1.390 . S
C2155 C2154 1.390 . S
C2155 C2156 1.394 . S
C2155 C2161 1.465 . S
C2156 C2151 1.399 . S
C2156 C2155 1.394 . S
C2156 C2157 1.516 . S
C2157 C2156 1.516 . S
C2157 C2158 1.502 . S
C2157 C2159 1.561 . S
C2157 C2160 1.526 . S
C2158 H2142 0.959 . S
C2158 H2143 0.959 . S
C2158 H2144 0.961 . S
C2158 C2157 1.502 . S
C2159 H2145 0.960 . S
C2159 H2146 0.961 . S
C2159 H2147 0.959 . S
C2159 C2157 1.561 . S
C2160 C2157 1.526 . S
C2160 C2161 1.396 . S
C2160 C2165 1.390 . S
C2161 C2155 1.465 . S
C2161 C2160 1.396 . S
C2161 C2162 1.399 . S
C2162 H2148 0.929 . S
C2162 C2161 1.399 . S
C2162 C2163 1.385 . S
C2163 H2149 0.931 . S
C2163 C2162 1.385 . S
C2163 C2164 1.389 . S
C2164 C2163 1.389 . S
C2164 C2165 1.387 . S
C2165 H2150 0.930 . S
C2165 C2160 1.390 . S
C2165 C2164 1.387 . S
C895 C699 1.230 . S
C883 C74 1.350 . S
C922 C700 0.502 . S
C910 C142 0.891 . S
C949 C694 1.233 . S
C937 C231 1.240 . S
C964 C322 1.101 . S
C976 C693 1.185 . S
C991 C406 0.688 . S
C1003 C696 0.350 . S
C1030 C698 1.281 . S
C1018 C494 1.165 . S
C1045 C562 1.183 . S
C1057 C697 1.209 . S
C1072 C651 1.288 . S
C1084 C695 1.258 . S
C1111 C730 1.584 . S
C1099 C58 1.458 . S
C1126 C151 1.683 . S
C1138 C761 1.636 . S
C1165 C729 2.564 . S
C1153 C224 2.451 . S
C1192 C764 1.169 . S
C1180 C315 1.105 . S
C1207 C399 1.423 . S
C1219 C727 1.486 . S
C1246 C759 1.548 . S
C1234 C478 1.477 . S
C1261 C571 1.212 . S
C1273 C732 1.269 . S
C1288 C644 2.491 . S
C1300 C766 2.560 . S
C1315 C67 2.495 . S
C1327 C762 2.519 . S
C1342 C392 1.621 . S
C1354 C765 1.634 . S
C1381 C733 2.533 . S
C1369 C487 2.459 . S
C1408 C760 1.200 . S
C1396 C578 1.107 . S
C1423 C658 1.408 . S
C1435 C726 1.581 . S
C1450 C238 1.368 . S
C1462 C763 1.516 . S
C1489 C728 1.264 . S
C1477 C308 1.228 . S
C1504 C158 1.513 . S
C1516 C731 1.490 . S
C1531 C662 1.274 . S
C1543 C798 1.203 . S
C1558 C394 0.829 . S
C1570 C799 0.274 . S
C1597 C793 1.438 . S
C1585 C483 1.376 . S
C1624 C792 1.547 . S
C1612 C574 1.419 . S
C1639 C154 1.040 . S
C1651 C795 0.454 . S
C1678 C797 1.378 . S
C1666 C242 1.336 . S
C1693 C310 1.306 . S
C1705 C796 1.518 . S
C1720 C63 1.304 . S
C1732 C794 1.239 . S
C1747 C646 1.527 . S
C1759 C832 1.640 . S
C1786 C864 1.254 . S
C1774 C403 1.282 . S
C1801 C476 2.351 . S
C1813 C825 2.456 . S
C1828 C567 1.471 . S
C1840 C859 1.536 . S
C1867 C830 1.326 . S
C1855 C147 1.190 . S
C1882 C226 1.662 . S
C1894 C861 1.676 . S
C1921 C827 1.554 . S
C1909 C319 1.588 . S
C1948 C862 2.486 . S
C1936 C56 2.236 . S
C1975 C858 2.484 . S
C1963 C655 2.273 . S
C1990 C140 1.189 . S
C2002 C860 1.168 . S
C2017 C235 2.288 . S
C2029 C829 2.463 . S
C2056 C863 1.570 . S
C2044 C326 1.478 . S
C2071 C70 1.561 . S
C2083 C828 1.636 . S
C2098 C490 1.620 . S
C2110 C865 1.639 . S
C2137 C831 1.469 . S
C2125 C560 1.544 . S
C2164 C826 1.308 . S
C2152 C410 1.180 . S
