# Generated by pormake.
# Topology zzz, (3,6)-cn, num edge types: 1
# Building blocks:
#     Node 0, Type 0, BuildingBlock: WUSLED_clean_sbu_0, # of connection points: 3
#     Node 1, Type 0, BuildingBlock: WUSLED_clean_sbu_0, # of connection points: 3
#     Node 2, Type 0, BuildingBlock: WUSLED_clean_sbu_0, # of connection points: 3
#     Node 3, Type 0, BuildingBlock: WUSLED_clean_sbu_0, # of connection points: 3
#     Node 4, Type 0, BuildingBlock: WUSLED_clean_sbu_0, # of connection points: 3
#     Node 5, Type 0, BuildingBlock: WUSLED_clean_sbu_0, # of connection points: 3
#     Node 6, Type 0, BuildingBlock: WUSLED_clean_sbu_0, # of connection points: 3
#     Node 7, Type 0, BuildingBlock: WUSLED_clean_sbu_0, # of connection points: 3
#     Node 8, Type 1, BuildingBlock: KUMBOL_clean_sbu_0, # of connection points: 6
#     Node 9, Type 1, BuildingBlock: KUMBOL_clean_sbu_0, # of connection points: 6
#     Node 10, Type 1, BuildingBlock: KUMBOL_clean_sbu_0, # of connection points: 6
#     Node 11, Type 1, BuildingBlock: KUMBOL_clean_sbu_0, # of connection points: 6
#     Edge 12, Type (0, 1), BuildingBlock: TEMPAE_clean_linker_10, # of connection points: 2
#     Edge 13, Type (0, 1), BuildingBlock: TEMPAE_clean_linker_10, # of connection points: 2
#     Edge 14, Type (0, 1), BuildingBlock: TEMPAE_clean_linker_10, # of connection points: 2
#     Edge 15, Type (0, 1), BuildingBlock: TEMPAE_clean_linker_10, # of connection points: 2
#     Edge 16, Type (0, 1), BuildingBlock: TEMPAE_clean_linker_10, # of connection points: 2
#     Edge 17, Type (0, 1), BuildingBlock: TEMPAE_clean_linker_10, # of connection points: 2
#     Edge 18, Type (0, 1), BuildingBlock: TEMPAE_clean_linker_10, # of connection points: 2
#     Edge 19, Type (0, 1), BuildingBlock: TEMPAE_clean_linker_10, # of connection points: 2
#     Edge 20, Type (0, 1), BuildingBlock: TEMPAE_clean_linker_10, # of connection points: 2
#     Edge 21, Type (0, 1), BuildingBlock: TEMPAE_clean_linker_10, # of connection points: 2
#     Edge 22, Type (0, 1), BuildingBlock: TEMPAE_clean_linker_10, # of connection points: 2
#     Edge 23, Type (0, 1), BuildingBlock: TEMPAE_clean_linker_10, # of connection points: 2
#     Edge 24, Type (0, 1), BuildingBlock: TEMPAE_clean_linker_10, # of connection points: 2
#     Edge 25, Type (0, 1), BuildingBlock: TEMPAE_clean_linker_10, # of connection points: 2
#     Edge 26, Type (0, 1), BuildingBlock: TEMPAE_clean_linker_10, # of connection points: 2
#     Edge 27, Type (0, 1), BuildingBlock: TEMPAE_clean_linker_10, # of connection points: 2
#     Edge 28, Type (0, 1), BuildingBlock: TEMPAE_clean_linker_10, # of connection points: 2
#     Edge 29, Type (0, 1), BuildingBlock: TEMPAE_clean_linker_10, # of connection points: 2
#     Edge 30, Type (0, 1), BuildingBlock: TEMPAE_clean_linker_10, # of connection points: 2
#     Edge 31, Type (0, 1), BuildingBlock: TEMPAE_clean_linker_10, # of connection points: 2
#     Edge 32, Type (0, 1), BuildingBlock: TEMPAE_clean_linker_10, # of connection points: 2
#     Edge 33, Type (0, 1), BuildingBlock: TEMPAE_clean_linker_10, # of connection points: 2
#     Edge 34, Type (0, 1), BuildingBlock: TEMPAE_clean_linker_10, # of connection points: 2
#     Edge 35, Type (0, 1), BuildingBlock: TEMPAE_clean_linker_10, # of connection points: 2
# Relax obj value: 0.274
# Max RMSD: 0.218
# Mean RMSD: 0.205
data_MOF--net-zzz--node1-WUSLED_clean_sbu_0--node2-KUMBOL_clean_sbu_0--edge1-TEMPAE_clean_linker_10
_symmetry_space_group_name_H-M    P1
_symmetry_Int_Tables_number       1
_symmetry_cell_setting            triclinic
loop_
_symmetry_equiv_pos_as_xyz
'x, y, z'
_cell_length_a     61.582931
_cell_length_b     61.636531
_cell_length_c     21.441999
_cell_angle_alpha  90.65979
_cell_angle_beta   90.222034
_cell_angle_gamma 90.021342
loop_
_atom_site_label
_atom_site_type_symbol
_atom_site_fract_x
_atom_site_fract_y
_atom_site_fract_z
_atom_type_partial_charge
C0 C 0.78393 0.56329 0.31852 0.0
C1 C 0.80219 0.55527 0.28639 0.0
C2 C 0.82512 0.55887 0.38043 0.0
C3 C 0.82244 0.55315 0.31679 0.0
C4 C 0.80695 0.56768 0.41163 0.0
C5 C 0.78674 0.56979 0.3812 0.0
U6 U 0.73769 0.57022 0.1903 0.0
O7 O 0.71152 0.54659 0.17261 0.0
O8 O 0.70312 0.57979 0.19987 0.0
C9 C 0.69594 0.561 0.1785 0.0
C10 C 0.76145 0.56249 0.29109 0.0
C11 C 0.67992 0.56143 0.12599 0.0
C12 C 0.64255 0.55719 0.08846 0.0
C13 C 0.65763 0.559 0.1378 0.0
C14 C 0.67169 0.56073 0.01418 0.0
C15 C 0.64935 0.55762 0.02569 0.0
C16 C 0.68674 0.56264 0.06358 0.0
C17 C 0.77749 0.59126 0.06528 0.0
C18 C 0.79939 0.5953 0.97256 0.0
C19 C 0.8167 0.59012 0.07306 0.0
C20 C 0.79634 0.58961 0.10165 0.0
C21 C 0.81837 0.59185 1.00771 0.0
C22 C 0.77913 0.59504 1.00125 0.0
C23 C 0.75619 0.58569 0.09019 0.0
O24 O 0.75107 0.58087 0.28215 0.0
O25 O 0.75769 0.54811 0.24656 0.0
O26 O 0.7533 0.5649 0.09996 0.0
O27 O 0.74834 0.59818 0.13478 0.0
H28 H 0.80073 0.5501 0.23811 0.0
H29 H 0.83598 0.54677 0.29031 0.0
H30 H 0.80804 0.57218 0.46049 0.0
H31 H 0.773 0.57583 0.40761 0.0
H32 H 0.62561 0.55464 0.09963 0.0
H33 H 0.65189 0.55792 0.18537 0.0
H34 H 0.67762 0.56153 0.9668 0.0
H35 H 0.70381 0.56458 0.05295 0.0
H36 H 0.79998 0.59648 0.92225 0.0
H37 H 0.83105 0.58788 0.10162 0.0
H38 H 0.79528 0.58669 0.15129 0.0
H39 H 0.76464 0.59626 0.97262 0.0
C40 C 0.97981 0.79315 0.32015 0.0
C41 C 0.97997 0.8123 0.28509 0.0
C42 C 0.98267 0.83529 0.38044 0.0
C43 C 0.98111 0.83295 0.3146 0.0
C44 C 0.98209 0.81589 0.41506 0.0
C45 C 0.98056 0.79535 0.38553 0.0
U46 U 0.97149 0.74597 0.19211 0.0
O47 O 0.99554 0.72053 0.16996 0.0
O48 O 0.96363 0.71111 0.20421 0.0
C49 C 0.98206 0.70443 0.17974 0.0
C50 C 0.9809 0.77076 0.29107 0.0
C51 C 0.98096 0.68735 0.12925 0.0
C52 C 0.98804 0.64992 0.09473 0.0
C53 C 0.98714 0.6659 0.14224 0.0
C54 C 0.97612 0.67628 0.01968 0.0
C55 C 0.98281 0.65479 0.03221 0.0
C56 C 0.97523 0.69228 0.06738 0.0
C57 C 0.94568 0.78389 0.06921 0.0
C58 C 0.93403 0.80281 0.97651 0.0
C59 C 0.95275 0.82234 0.05949 0.0
C60 C 0.95361 0.8034 0.0945 0.0
C61 C 0.94403 0.82189 0.99871 0.0
C62 C 0.9349 0.7839 1.0116 0.0
C63 C 0.9525 0.76306 0.09462 0.0
O64 O 0.96288 0.75939 0.28557 0.0
O65 O 0.99401 0.76775 0.24346 0.0
O66 O 0.97361 0.76078 0.10036 0.0
O67 O 0.94154 0.75532 0.14192 0.0
H68 H 0.9796 0.81135 0.23473 0.0
H69 H 0.98089 0.84705 0.28511 0.0
H70 H 0.98356 0.81628 0.46531 0.0
H71 H 0.98067 0.78098 0.4142 0.0
H72 H 0.99355 0.63384 0.10696 0.0
H73 H 0.99179 0.66156 0.18925 0.0
H74 H 0.97158 0.68083 0.9728 0.0
H75 H 0.97038 0.70864 0.05569 0.0
H76 H 0.92699 0.80209 0.93014 0.0
H77 H 0.96073 0.83675 0.07771 0.0
H78 H 0.96209 0.80356 0.13877 0.0
H79 H 0.92872 0.76891 0.99144 0.0
C80 C 0.74329 0.97802 0.34177 0.0
C81 C 0.7245 0.97876 0.30451 0.0
C82 C 0.70096 0.98088 0.39721 0.0
C83 C 0.7037 0.97993 0.33165 0.0
C84 C 0.71998 0.97973 0.43415 0.0
C85 C 0.7407 0.9782 0.40687 0.0
U86 U 0.78885 0.97095 0.21322 0.0
O87 O 0.82347 0.96123 0.22118 0.0
O88 O 0.815 0.99449 0.19661 0.0
C89 C 0.83053 0.97996 0.20037 0.0
C90 C 0.76571 0.97898 0.315 0.0
C91 C 0.84611 0.9794 0.14692 0.0
C92 C 0.88337 0.97654 0.10798 0.0
C93 C 0.8683 0.97528 0.15714 0.0
C94 C 0.85437 0.98574 0.03694 0.0
C95 C 0.8767 0.98217 0.04723 0.0
C96 C 0.83931 0.98428 0.08589 0.0
C97 C 0.74879 0.94951 0.08555 0.0
C98 C 0.72986 0.93842 0.99122 0.0
C99 C 0.71072 0.95831 0.07224 0.0
C100 C 0.72952 0.95848 0.1089 0.0
C101 C 0.71116 0.94938 1.01163 0.0
C102 C 0.74856 0.93847 0.02809 0.0
C103 C 0.76988 0.95527 0.11273 0.0
O104 O 0.77602 0.96058 0.30482 0.0
O105 O 0.76911 0.99321 0.27089 0.0
O106 O 0.77285 0.97608 0.12352 0.0
O107 O 0.77774 0.94281 0.15672 0.0
H108 H 0.7259 0.97887 0.25433 0.0
H109 H 0.68979 0.98021 0.30072 0.0
H110 H 0.7191 0.98074 0.48447 0.0
H111 H 0.75485 0.97785 0.43701 0.0
H112 H 0.90038 0.97377 0.11808 0.0
H113 H 0.87408 0.97153 0.20356 0.0
H114 H 0.84847 0.98973 0.99082 0.0
H115 H 0.82232 0.98737 0.07616 0.0
H116 H 0.73054 0.93139 0.94472 0.0
H117 H 0.69657 0.96704 0.0888 0.0
H118 H 0.72953 0.96723 0.15284 0.0
H119 H 0.76336 0.93152 1.00933 0.0
C120 C 0.56168 0.75043 0.34004 0.0
C121 C 0.56986 0.73206 0.30861 0.0
C122 C 0.55901 0.70847 0.39507 0.0
C123 C 0.56849 0.71132 0.33571 0.0
C124 C 0.55121 0.7271 0.42643 0.0
C125 C 0.55253 0.74767 0.39932 0.0
U126 U 0.56995 0.79618 0.21317 0.0
O127 O 0.5469 0.82299 0.19906 0.0
O128 O 0.58037 0.83027 0.22648 0.0
C129 C 0.56175 0.83808 0.20642 0.0
C130 C 0.56163 0.77259 0.31276 0.0
C131 C 0.56271 0.85421 0.15543 0.0
C132 C 0.55155 0.88913 0.11336 0.0
C133 C 0.55248 0.8744 0.16281 0.0
C134 C 0.57153 0.86391 0.04827 0.0
C135 C 0.56088 0.88409 0.05494 0.0
C136 C 0.57236 0.84914 0.09778 0.0
C137 C 0.58982 0.75697 0.08262 0.0
C138 C 0.59994 0.73709 0.98892 0.0
C139 C 0.58184 0.71864 0.07342 0.0
C140 C 0.58161 0.73789 0.10825 0.0
C141 C 0.59012 0.7183 1.01227 0.0
C142 C 0.59979 0.75632 0.02399 0.0
C143 C 0.58478 0.77811 0.1105 0.0
O144 O 0.58041 0.78214 0.30304 0.0
O145 O 0.54734 0.77644 0.26854 0.0
O146 O 0.56407 0.78146 0.12146 0.0
O147 O 0.59759 0.78526 0.15542 0.0
H148 H 0.57719 0.7337 0.26317 0.0
H149 H 0.57497 0.69753 0.3102 0.0
H150 H 0.54352 0.72577 0.47153 0.0
H151 H 0.54605 0.76153 0.42463 0.0
H152 H 0.5429 0.90423 0.12058 0.0
H153 H 0.54473 0.87862 0.20657 0.0
H154 H 0.57923 0.85944 1.00468 0.0
H155 H 0.58026 0.83361 0.09073 0.0
H156 H 0.60656 0.73725 0.94219 0.0
H157 H 0.57387 0.70453 0.09245 0.0
H158 H 0.57359 0.73824 0.15307 0.0
H159 H 0.60612 0.77101 1.00353 0.0
C160 C 0.25253 0.4693 0.88351 0.0
C161 C 0.23431 0.45993 0.9121 0.0
C162 C 0.21024 0.47239 0.82749 0.0
C163 C 0.21348 0.46143 0.88446 0.0
C164 C 0.22872 0.48145 0.79901 0.0
C165 C 0.24943 0.47991 0.82652 0.0
U166 U 0.29417 0.46042 0.0198 0.0
O167 O 0.32035 0.48293 0.04746 0.0
O168 O 0.32851 0.44947 0.02222 0.0
C169 C 0.33567 0.46816 0.04445 0.0
C170 C 0.2747 0.46925 0.91251 0.0
C171 C 0.35123 0.46781 0.0982 0.0
C172 C 0.38843 0.47281 0.13663 0.0
C173 C 0.37352 0.47059 0.08705 0.0
C174 C 0.35917 0.4689 0.2103 0.0
C175 C 0.38154 0.47234 0.19932 0.0
C176 C 0.34424 0.46669 0.16048 0.0
C177 C 0.25699 0.43952 0.16287 0.0
C178 C 0.24356 0.44927 0.26535 0.0
C179 C 0.22151 0.42721 0.19544 0.0
C180 C 0.23829 0.42708 0.15173 0.0
C181 C 0.22361 0.43947 0.25068 0.0
C182 C 0.26017 0.44942 0.22135 0.0
C183 C 0.27001 0.44661 0.11001 0.0
O184 O 0.27815 0.48366 0.95701 0.0
O185 O 0.28367 0.45038 0.92472 0.0
O186 O 0.27934 0.43304 0.07066 0.0
O187 O 0.27371 0.46733 0.10099 0.0
H188 H 0.23614 0.45163 0.95608 0.0
H189 H 0.19991 0.45392 0.90783 0.0
H190 H 0.22718 0.49035 0.75599 0.0
H191 H 0.26309 0.48741 0.80349 0.0
H192 H 0.40531 0.4757 0.12554 0.0
H193 H 0.3794 0.47171 0.03963 0.0
H194 H 0.35311 0.46806 0.25753 0.0
H195 H 0.32715 0.46457 0.17064 0.0
H196 H 0.24532 0.45906 0.30738 0.0
H197 H 0.20608 0.41988 0.18299 0.0
H198 H 0.23556 0.41946 0.10658 0.0
H199 H 0.27457 0.45907 0.23058 0.0
C200 C 0.06154 0.24409 0.89994 0.0
C201 C 0.05861 0.22508 0.93476 0.0
C202 C 0.05786 0.20231 0.83921 0.0
C203 C 0.05692 0.20455 0.90495 0.0
C204 C 0.06133 0.22139 0.80484 0.0
C205 C 0.06315 0.24184 0.83468 0.0
U206 U 0.06989 0.29019 0.02971 0.0
O207 O 0.0458 0.31555 0.0509 0.0
O208 O 0.0784 0.32521 0.02278 0.0
C209 C 0.05974 0.33159 0.04652 0.0
C210 C 0.06063 0.26648 0.92874 0.0
C211 C 0.06016 0.34766 0.10016 0.0
C212 C 0.0698 0.38358 0.14304 0.0
C213 C 0.07094 0.36771 0.09502 0.0
C214 C 0.0471 0.35978 0.20289 0.0
C215 C 0.05758 0.38009 0.19784 0.0
C216 C 0.04847 0.3439 0.15536 0.0
C217 C 0.09372 0.25011 0.14943 0.0
C218 C 0.0979 0.22797 0.24119 0.0
C219 C 0.08997 0.21109 0.14098 0.0
C220 C 0.09051 0.23142 0.11278 0.0
C221 C 0.09228 0.20936 0.20617 0.0
C222 C 0.0986 0.24819 0.2129 0.0
C223 C 0.08769 0.27152 0.12661 0.0
O224 O 0.04719 0.26957 0.97551 0.0
O225 O 0.07885 0.27745 0.93576 0.0
O226 O 0.09917 0.27964 0.08089 0.0
O227 O 0.06669 0.27434 0.11982 0.0
H228 H 0.05703 0.22612 0.98497 0.0
H229 H 0.05408 0.19049 0.93359 0.0
H230 H 0.06255 0.22061 0.75451 0.0
H231 H 0.06528 0.25611 0.80626 0.0
H232 H 0.07855 0.39862 0.13678 0.0
H233 H 0.08005 0.37129 0.05326 0.0
H234 H 0.03713 0.35619 0.24286 0.0
H235 H 0.03983 0.32877 0.16152 0.0
H236 H 0.09962 0.22733 0.29142 0.0
H237 H 0.08603 0.19697 0.1126 0.0
H238 H 0.08681 0.23271 0.06355 0.0
H239 H 0.10105 0.26255 0.24177 0.0
C240 C 0.28973 0.06257 0.87565 0.0
C241 C 0.30781 0.07388 0.89981 0.0
C242 C 0.33161 0.05827 0.81846 0.0
C243 C 0.32849 0.07168 0.87179 0.0
C244 C 0.31312 0.04774 0.79349 0.0
C245 C 0.29267 0.04975 0.8218 0.0
U246 U 0.24483 0.07344 1.00549 0.0
O247 O 0.21032 0.08326 0.99672 0.0
O248 O 0.21856 0.05034 0.02516 0.0
C249 C 0.20305 0.06472 0.01828 0.0
C250 C 0.26766 0.06314 0.90477 0.0
C251 C 0.18686 0.06557 0.0699 0.0
C252 C 0.1508 0.05617 0.10868 0.0
C253 C 0.16573 0.05774 0.05947 0.0
C254 C 0.17766 0.07074 0.18007 0.0
C255 C 0.15652 0.06239 0.17017 0.0
C256 C 0.19263 0.07225 0.13068 0.0
C257 C 0.28714 0.09424 0.12343 0.0
C258 C 0.31054 0.10137 0.21241 0.0
C259 C 0.32432 0.0816 0.1225 0.0
C260 C 0.30445 0.08421 0.09219 0.0
C261 C 0.32696 0.08895 0.18427 0.0
C262 C 0.29062 0.10395 0.18204 0.0
C263 C 0.26485 0.09005 0.10306 0.0
O264 O 0.26408 0.04975 0.95086 0.0
O265 O 0.25806 0.08203 0.91295 0.0
O266 O 0.25707 0.10206 0.05791 0.0
O267 O 0.26027 0.06935 0.09636 0.0
H268 H 0.30604 0.08422 0.94056 0.0
H269 H 0.34209 0.08012 0.89301 0.0
H270 H 0.3143 0.03782 0.75167 0.0
H271 H 0.27902 0.04106 0.80149 0.0
H272 H 0.13496 0.04934 0.0986 0.0
H273 H 0.1609 0.05226 0.01327 0.0
H274 H 0.18275 0.07606 0.22615 0.0
H275 H 0.20886 0.07825 0.14021 0.0
H276 H 0.31221 0.10694 0.26032 0.0
H277 H 0.33679 0.07184 0.1003 0.0
H278 H 0.30188 0.07635 0.04738 0.0
H279 H 0.27732 0.11161 0.20687 0.0
C280 C 0.46373 0.28651 0.88544 0.0
C281 C 0.46726 0.30533 0.92185 0.0
C282 C 0.46782 0.32798 0.82825 0.0
C283 C 0.46911 0.3258 0.89368 0.0
C284 C 0.46377 0.30912 0.7923 0.0
C285 C 0.46172 0.28875 0.8205 0.0
U286 U 0.45571 0.24058 1.01136 0.0
O287 O 0.47905 0.21418 0.02658 0.0
O288 O 0.44574 0.20624 0.99897 0.0
C289 C 0.46441 0.19884 0.01986 0.0
C290 C 0.46428 0.26422 0.91211 0.0
C291 C 0.46355 0.18301 0.07172 0.0
C292 C 0.4661 0.14568 0.10788 0.0
C293 C 0.46471 0.16066 0.05907 0.0
C294 C 0.46458 0.17512 0.18317 0.0
C295 C 0.46646 0.15267 0.1708 0.0
C296 C 0.46313 0.19007 0.13432 0.0
C297 C 0.43483 0.27998 0.13993 0.0
C298 C 0.42726 0.30015 0.23503 0.0
C299 C 0.44275 0.31838 0.146 0.0
C300 C 0.44193 0.29904 0.11162 0.0
C301 C 0.43651 0.31883 0.20914 0.0
C302 C 0.4265 0.28082 0.2006 0.0
C303 C 0.44 0.25876 0.11278 0.0
O304 O 0.47831 0.2606 0.95718 0.0
O305 O 0.44571 0.25405 0.92013 0.0
O306 O 0.42757 0.25151 0.06713 0.0
O307 O 0.4608 0.25546 0.10319 0.0
H308 H 0.46921 0.30415 0.97185 0.0
H309 H 0.47239 0.33983 0.92309 0.0
H310 H 0.46234 0.31003 0.74205 0.0
H311 H 0.45914 0.27455 0.79112 0.0
H312 H 0.46706 0.12857 0.09616 0.0
H313 H 0.46499 0.15477 1.01128 0.0
H314 H 0.46499 0.18128 0.23065 0.0
H315 H 0.46228 0.20724 0.14545 0.0
H316 H 0.42207 0.3001 0.28324 0.0
H317 H 0.45012 0.33243 0.12475 0.0
H318 H 0.44845 0.29856 0.06484 0.0
H319 H 0.42097 0.26616 0.22304 0.0
Gd320 Gd 0.99611 0.02634 0.56131 0.0
Gd321 Gd 0.04096 1.01241 0.663 0.0
C322 C 0.06954 0.06002 0.80763 0.0
C323 C 0.1072 0.06223 0.77574 0.0
C324 C 0.08137 0.04063 0.71494 0.0
C325 C 0.06493 0.04645 0.75557 0.0
C326 C 0.10272 0.04848 0.72474 0.0
C327 C 0.09071 0.06775 0.81752 0.0
C328 C 0.05281 0.06526 0.84886 0.0
C329 C 0.03194 0.05777 0.83669 0.0
N330 N 0.04459 0.03861 0.74509 0.0
C331 C 0.02809 0.04453 0.78459 0.0
H332 H 1.01153 0.04033 0.77518 0.0
C333 C 0.09329 0.01883 0.63045 0.0
N334 N 0.0768 0.0266 0.66744 0.0
C335 C 0.11446 0.02665 0.63723 0.0
C336 C 0.11918 0.04167 0.68433 0.0
H337 H 0.09003 1.0065 0.5953 0.0
H338 H 0.0945 0.07806 0.85738 0.0
H339 H 0.02796 0.99807 0.45643 0.0
H340 H 0.0558 0.07524 0.88992 0.0
H341 H 0.01869 0.06233 0.86717 0.0
H342 H 0.12348 0.06831 0.78407 0.0
H343 H 0.94665 0.02959 0.62733 0.0
H344 H 0.98601 0.96491 0.32963 0.0
H345 H 0.02288 0.97577 0.3631 0.0
H346 H 0.91543 0.97574 0.41605 0.0
H347 H 0.12721 0.02074 0.60686 0.0
H348 H 0.1357 0.04741 0.69028 0.0
H349 H 0.9461 0.96511 0.34948 0.0
H350 H 0.90927 0.01748 0.60483 0.0
N351 N 0.99421 1.00096 0.47716 0.0
C352 C 0.9881 0.97498 0.37098 0.0
C353 C 1.0089 0.98112 0.38958 0.0
C354 C 0.97028 0.98145 0.40674 0.0
C355 C 0.97387 0.99448 0.46049 0.0
C356 C 1.01166 0.9942 0.44264 0.0
N357 N 0.96061 1.01207 0.55108 0.0
C358 C 0.95662 1.00009 0.49873 0.0
C359 C 0.92244 1.01227 0.57493 0.0
C360 C 0.91822 0.99945 0.52233 0.0
C361 C 0.94371 0.01883 0.58797 0.0
C362 C 0.93532 0.99335 0.48317 0.0
H363 H 0.90167 0.99459 0.5119 0.0
O364 O 0.97252 0.05217 0.55361 0.0
O365 O 0.02322 0.03991 0.62048 0.0
O366 O 1.00901 1.00956 0.71692 0.0
O367 O 0.98112 1.00872 0.64337 0.0
O368 O 0.99308 0.05339 0.63405 0.0
O369 O 0.99447 0.04522 0.47655 0.0
O370 O 0.06525 0.98813 0.68237 0.0
O371 O 0.0141 0.99855 0.6033 0.0
O372 O 0.02731 0.03173 0.50613 0.0
O373 O 0.05601 0.02694 0.57596 0.0
O374 O 0.04438 0.98515 0.59221 0.0
O375 O 0.03775 0.99171 0.7441 0.0
C376 C 0.01329 0.05494 0.64913 0.0
C377 C 0.93167 0.98094 0.42883 0.0
C378 C 0.94912 0.97497 0.39079 0.0
C379 C 0.97882 0.05751 0.49799 0.0
C380 C 0.97926 0.08082 0.48465 0.0
C381 C 0.95947 0.09205 0.48504 0.0
C382 C 0.99844 0.09171 0.46841 0.0
C383 C 0.99771 0.11363 0.45028 0.0
C384 C 0.95866 0.11378 0.46835 0.0
C385 C 0.97752 0.12445 0.45041 0.0
C386 C 0.98826 1.00683 0.70145 0.0
C387 C 0.02426 0.98315 0.57648 0.0
C388 C 0.05462 0.98 0.72881 0.0
C389 C 0.05233 0.95613 0.72827 0.0
C390 C 0.06839 0.94323 0.69956 0.0
C391 C 0.03485 0.94595 0.7583 0.0
C392 C 0.03374 0.92322 0.76033 0.0
C393 C 0.06703 0.92066 0.70069 0.0
C394 C 0.04987 0.91066 0.73127 0.0
C395 C 0.04831 0.03173 0.5201 0.0
H396 H 0.94453 0.08385 0.49725 0.0
H397 H 0.01374 0.08304 0.46907 0.0
H398 H 0.94326 0.12224 0.46786 0.0
H399 H 0.97608 0.14103 0.43482 0.0
H400 H 0.08215 0.95058 0.67661 0.0
H401 H 0.02251 0.95555 0.78162 0.0
H402 H 0.07947 0.91089 0.67854 0.0
H403 H 0.04923 0.8931 0.7327 0.0
Gd404 Gd 0.5069 0.99685 0.56584 0.0
Gd405 Gd 0.52618 0.0415 0.66137 0.0
C406 C 0.47845 0.06167 0.81601 0.0
C407 C 0.46624 0.09689 0.7811 0.0
C408 C 0.49212 0.07599 0.71903 0.0
C409 C 0.4913 0.05935 0.76172 0.0
C410 C 0.48001 0.09521 0.72937 0.0
C411 C 0.46558 0.08021 0.82456 0.0
C412 C 0.47948 0.0457 0.86152 0.0
C413 C 0.49333 0.02814 0.85313 0.0
N414 N 0.50417 0.04164 0.75273 0.0
C415 C 0.50565 0.02641 0.79874 0.0
H416 H 0.51657 0.01299 0.79595 0.0
C417 C 0.5111 0.0925 0.63695 0.0
N418 N 0.50634 0.07439 0.67101 0.0
C419 C 0.49909 0.11156 0.64413 0.0
C420 C 0.48312 0.11277 0.68974 0.0
H421 H 0.52424 0.09231 0.60371 0.0
H422 H 0.45556 0.0821 0.86569 0.0
H423 H 0.53092 0.03088 0.45992 0.0
H424 H 0.46999 0.047 0.90387 0.0
H425 H 0.49465 0.0159 0.88874 0.0
H426 H 0.45675 0.11143 0.7894 0.0
H427 H 0.50759 0.9461 0.62597 0.0
H428 H 0.56328 0.99199 0.32455 0.0
H429 H 0.55126 0.02786 0.36336 0.0
H430 H 0.55743 0.92013 0.40342 0.0
H431 H 0.50254 0.12546 0.61541 0.0
H432 H 0.47415 0.12775 0.69625 0.0
H433 H 0.56508 0.95194 0.3392 0.0
H434 H 0.5212 0.91004 0.59777 0.0
N435 N 0.53049 0.9969 0.47813 0.0
C436 C 0.55408 0.99316 0.36745 0.0
C437 C 0.54733 0.01339 0.38916 0.0
C438 C 0.5492 0.97469 0.40183 0.0
C439 C 0.5373 0.97708 0.45778 0.0
C440 C 0.53542 0.01496 0.44433 0.0
N441 N 0.52269 0.96215 0.54942 0.0
C442 C 0.53333 0.95921 0.49456 0.0
C443 C 0.52503 0.92377 0.56874 0.0
C444 C 0.53655 0.9207 0.51362 0.0
C445 C 0.51784 0.94452 0.58536 0.0
C446 C 0.54067 0.93844 0.47547 0.0
H447 H 0.5419 0.90454 0.5005 0.0
O448 O 0.48206 0.97204 0.55925 0.0
O449 O 0.49644 0.02492 0.626 0.0
O450 O 0.53661 1.00957 0.70683 0.0
O451 O 0.51822 0.98154 0.65528 0.0
O452 O 0.48159 0.99567 0.64224 0.0
O453 O 0.48576 0.99519 0.48482 0.0
O454 O 0.55045 0.06698 0.66382 0.0
O455 O 0.53737 0.01299 0.60303 0.0
O456 O 0.49694 0.02793 0.5165 0.0
O457 O 0.51337 0.05626 0.57178 0.0
O458 O 0.55115 0.04297 0.58612 0.0
O459 O 0.54693 0.04562 0.74258 0.0
C460 C 0.4819 0.01587 0.65825 0.0
C461 C 0.55183 0.93595 0.4189 0.0
C462 C 0.55613 0.95405 0.38225 0.0
C463 C 0.47421 0.97933 0.50716 0.0
C464 C 0.45038 0.98106 0.50322 0.0
C465 C 0.43731 0.96492 0.52969 0.0
C466 C 0.4405 0.99808 0.47076 0.0
C467 C 0.41784 0.99914 0.46523 0.0
C468 C 0.41474 0.966 0.52466 0.0
C469 C 0.405 0.98304 0.49275 0.0
C470 C 0.53021 0.98902 0.7018 0.0
C471 C 0.55247 0.02251 0.57345 0.0
C472 C 0.55844 0.06086 0.717 0.0
C473 C 0.58227 0.05903 0.72051 0.0
C474 C 0.59516 0.0758 0.69666 0.0
C475 C 0.59235 0.04138 0.74993 0.0
C476 C 0.61498 0.04094 0.75697 0.0
C477 C 0.61773 0.07509 0.70257 0.0
C478 C 0.62762 0.05784 0.73313 0.0
C479 C 0.50179 0.04876 0.52412 0.0
H480 H 0.44456 0.95137 0.55388 0.0
H481 H 0.45036 1.01045 0.44931 0.0
H482 H 0.40479 0.95345 0.5449 0.0
H483 H 0.38747 0.98334 0.48816 0.0
H484 H 0.58775 0.0896 0.67409 0.0
H485 H 0.5827 0.02839 0.7693 0.0
H486 H 0.62753 0.08814 0.68439 0.0
H487 H 0.64511 0.05775 0.73872 0.0
Gd488 Gd 0.49283 0.52721 0.65571 0.0
Gd489 Gd 0.53857 0.50714 0.5649 0.0
C490 C 0.60677 0.50287 0.65074 0.0
C491 C 0.62725 0.52754 0.58593 0.0
C492 C 0.58872 0.5216 0.56659 0.0
C493 C 0.58782 0.50743 0.61594 0.0
C494 C 0.60857 0.53142 0.55006 0.0
C495 C 0.62635 0.51332 0.63625 0.0
C496 C 0.60571 0.48745 0.69786 0.0
C497 C 0.58625 0.47664 0.70845 0.0
N498 N 0.56874 0.49724 0.62785 0.0
C499 C 0.56797 0.48154 0.67248 0.0
H500 H 0.55332 0.47288 0.68237 0.0
C501 C 0.57131 0.53645 0.47842 0.0
N502 N 0.57047 0.52485 0.53248 0.0
C503 C 0.59056 0.54656 0.46029 0.0
C504 C 0.60922 0.54427 0.49673 0.0
H505 H 0.55684 0.53845 0.45033 0.0
H506 H 0.641 0.51009 0.66272 0.0
H507 H 0.48026 0.56111 0.53492 0.0
H508 H 0.61992 0.48341 0.72528 0.0
H509 H 0.58529 0.46449 0.74437 0.0
H510 H 0.6426 0.53504 0.57421 0.0
H511 H 0.47354 0.49432 0.765 0.0
H512 H 0.41309 0.55424 0.49308 0.0
H513 H 0.44868 0.57121 0.47347 0.0
H514 H 0.38786 0.5035 0.64334 0.0
H515 H 0.59097 0.55616 0.41836 0.0
H516 H 0.62415 0.55205 0.48248 0.0
H517 H 0.39064 0.52888 0.55614 0.0
H518 H 0.43871 0.47755 0.79503 0.0
N519 N 0.46341 0.5382 0.59139 0.0
C520 C 0.42703 0.54965 0.52091 0.0
C521 C 0.44705 0.55934 0.50997 0.0
C522 C 0.42516 0.5344 0.56829 0.0
C523 C 0.44385 0.52893 0.60319 0.0
C524 C 0.46506 0.55357 0.54596 0.0
N525 N 0.46039 0.50995 0.6853 0.0
C526 C 0.44229 0.51444 0.65172 0.0
C527 C 0.43949 0.48781 0.75446 0.0
C528 C 0.42086 0.49168 0.71906 0.0
C529 C 0.45914 0.49735 0.73738 0.0
C530 C 0.42204 0.5053 0.66741 0.0
H531 H 0.4056 0.4844 0.73265 0.0
O532 O 0.48814 0.53414 0.75435 0.0
O533 O 0.52878 0.52356 0.65242 0.0
O534 O 0.52332 0.47966 0.6223 0.0
O535 O 0.48818 0.49086 0.64649 0.0
O536 O 0.51401 0.51362 0.73284 0.0
O537 O 0.48783 0.56063 0.68599 0.0
O538 O 0.54242 0.49933 0.46702 0.0
O539 O 0.50267 0.51064 0.56866 0.0
O540 O 0.50859 0.55525 0.60227 0.0
O541 O 0.54294 0.5436 0.57113 0.0
O542 O 0.51697 0.52004 0.4874 0.0
O543 O 0.54434 0.47341 0.53684 0.0
C544 C 0.53253 0.51683 0.70678 0.0
C545 C 0.40353 0.5104 0.6321 0.0
C546 C 0.4051 0.52487 0.58253 0.0
C547 C 0.48669 0.55486 0.74436 0.0
C548 C 0.48316 0.57057 0.79486 0.0
C549 C 0.4698 0.56519 0.8451 0.0
C550 C 0.49628 0.58911 0.7984 0.0
C551 C 0.49723 0.60163 0.8536 0.0
C552 C 0.46982 0.57808 0.89893 0.0
C553 C 0.48366 0.59596 0.90371 0.0
C554 C 0.50337 0.47573 0.64303 0.0
C555 C 0.49857 0.51696 0.51418 0.0
C556 C 0.54484 0.4788 0.47809 0.0
C557 C 0.54899 0.4633 0.42754 0.0
C558 C 0.56253 0.4691 0.37809 0.0
C559 C 0.53589 0.44481 0.42238 0.0
C560 C 0.53484 0.43296 0.36595 0.0
C561 C 0.5626 0.45674 0.32327 0.0
C562 C 0.54858 0.43905 0.31661 0.0
C563 C 0.52818 0.55904 0.57869 0.0
H564 H 0.4599 0.55065 0.84342 0.0
H565 H 0.50663 0.59298 0.7593 0.0
H566 H 0.45972 0.5737 0.93804 0.0
H567 H 0.48423 0.6048 0.9476 0.0
H568 H 0.57242 0.48363 0.38106 0.0
H569 H 0.5255 0.44062 0.46108 0.0
H570 H 0.5728 0.46146 0.28474 0.0
H571 H 0.54797 0.43079 0.27184 0.0
Gd572 Gd 1.00716 0.49485 0.65418 0.0
Gd573 Gd 0.02741 0.54072 0.56717 0.0
C574 C 0.03192 0.60661 0.66779 0.0
C575 C 1.00758 0.62884 0.60633 0.0
C576 C 1.01239 0.59055 0.58054 0.0
C577 C 0.02656 0.58835 0.63028 0.0
C578 C 1.00322 0.611 0.56706 0.0
C579 C 0.02198 0.62667 0.6564 0.0
C580 C 0.04792 0.60449 0.71368 0.0
C581 C 0.05841 0.58469 0.72078 0.0
N582 N 0.03644 0.56889 0.63896 0.0
C583 C 0.05259 0.56708 0.68271 0.0
H584 H 0.06078 0.55199 0.6905 0.0
C585 C 0.99893 0.57607 0.48566 0.0
N586 N 1.00919 0.57327 0.54188 0.0
C587 C 0.98914 0.5958 0.47101 0.0
C588 C 0.99098 0.61328 0.51244 0.0
H589 H 0.99797 0.56279 0.45236 0.0
H590 H 0.02591 0.64081 0.68474 0.0
H591 H 0.96964 0.48653 0.53761 0.0
H592 H 0.05271 0.61817 0.74274 0.0
H593 H 0.07095 0.58292 0.75586 0.0
H594 H 1.00062 0.64461 0.5968 0.0
H595 H 0.04022 0.47026 0.75712 0.0
H596 H 0.97475 0.42119 0.47437 0.0
H597 H 0.95693 0.45699 0.47104 0.0
H598 H 0.02997 0.39099 0.60338 0.0
H599 H 0.98049 0.59759 0.42734 0.0
H600 H 0.98375 0.62871 0.50046 0.0
H601 H 1.00207 0.39689 0.52343 0.0
H602 H 0.05721 0.43449 0.77231 0.0
N603 N 0.9949 0.46822 0.58137 0.0
C604 C 0.98049 0.43419 0.50462 0.0
C605 C 0.97034 0.45433 0.50281 0.0
C606 C 0.99756 0.43089 0.54653 0.0
C607 C 1.00441 0.44835 0.58525 0.0
C608 C 0.97775 0.47121 0.54144 0.0
N609 N 0.02498 0.4614 0.67101 0.0
C610 C 0.01999 0.44491 0.63098 0.0
C611 C 0.04693 0.43721 0.7321 0.0
C612 C 0.04313 0.42053 0.68906 0.0
C613 C 0.03726 0.45744 0.72324 0.0
C614 C 0.0291 0.42405 0.63874 0.0
H615 H 0.05042 0.40476 0.69645 0.0
O616 O 1.00147 0.48542 0.74956 0.0
O617 O 1.00977 0.5312 0.65391 0.0
O618 O 0.05616 0.52461 0.61746 0.0
O619 O 0.04391 0.49138 0.65381 0.0
O620 O 0.01863 0.51584 0.73515 0.0
O621 O 0.97491 0.4847 0.68257 0.0
O622 O 0.03609 0.54982 0.47342 0.0
O623 O 0.02469 0.50457 0.5683 0.0
O624 O 0.97783 0.51248 0.61163 0.0
O625 O 0.9907 0.5423 0.55684 0.0
O626 O 0.01778 0.51909 0.48511 0.0
O627 O 0.06063 0.55037 0.5463 0.0
C628 C 0.01566 0.5345 0.71002 0.0
C629 C 0.02308 0.40704 0.59822 0.0
C630 C 1.00723 0.41042 0.55259 0.0
C631 C 0.9809 0.48177 0.74036 0.0
C632 C 0.9664 0.48921 0.7902 0.0
C633 C 0.96634 0.47746 0.84589 0.0
C634 C 0.95299 0.50755 0.78414 0.0
C635 C 0.93963 0.51387 0.83403 0.0
C636 C 0.9531 0.48385 0.89531 0.0
C637 C 0.9398 0.50197 0.88949 0.0
C638 C 0.05965 0.50557 0.64426 0.0
C639 C 0.01955 0.50062 0.51209 0.0
C640 C 0.05608 0.55424 0.48801 0.0
C641 C 0.07238 0.54978 0.44009 0.0
C642 C 0.07394 0.56453 0.39092 0.0
C643 C 0.08613 0.53161 0.44166 0.0
C644 C 0.10138 0.52848 0.39386 0.0
C645 C 0.08907 0.56133 0.3436 0.0
C646 C 0.10277 0.54338 0.345 0.0
C647 C 0.97466 0.52966 0.57567 0.0
H648 H 0.9766 0.46331 0.85114 0.0
H649 H 0.95293 0.51677 0.74139 0.0
H650 H 0.95311 0.4747 0.9381 0.0
H651 H 0.92946 0.50666 0.92816 0.0
H652 H 0.0634 0.5786 0.38919 0.0
H653 H 0.08501 0.5201 0.47939 0.0
H654 H 0.0902 0.5728 0.3059 0.0
H655 H 0.11455 0.54113 0.30808 0.0
C656 C 0.14797 0.05333 0.2831 0.0
C657 C 0.14075 0.05951 0.2235 0.0
C658 C 0.13329 0.04948 0.33235 0.0
C659 C 0.11059 0.05188 0.3227 0.0
C660 C 0.10319 0.05821 0.26271 0.0
C661 C 0.11824 0.06205 0.21453 0.0
C662 C 0.14207 0.04208 0.39435 0.0
C663 C 0.07937 0.06034 0.24706 0.0
C664 C 0.06979 0.0215 0.42481 0.0
C665 C 0.06418 0.03709 0.47009 0.0
C666 C 0.08488 0.02609 0.37733 0.0
C667 C 0.09473 0.04688 0.37439 0.0
C668 C 0.0892 0.06268 0.42063 0.0
C669 C 0.07417 0.05752 0.46803 0.0
C670 C 0.09034 1.00857 0.33022 0.0
C671 C 0.09927 0.085 0.42153 0.0
H672 H 0.16517 0.05082 0.29099 0.0
H673 H 0.11217 0.06703 0.1694 0.0
H674 H 0.13781 0.05407 0.43127 0.0
H675 H 0.13451 0.0264 0.40706 0.0
H676 H 0.15999 0.04005 0.39392 0.0
H677 H 0.0748 0.04731 0.21329 0.0
H678 H 0.06855 0.05919 0.28803 0.0
H679 H 0.07638 0.07602 0.22355 0.0
H680 H 0.06264 1.00549 0.42692 0.0
H681 H 0.07015 0.06956 0.5034 0.0
H682 H 0.1082 1.00629 0.32784 0.0
H683 H 0.08471 0.01354 0.2833 0.0
H684 H 0.08266 0.99278 0.34149 0.0
H685 H 0.1137 0.08491 0.45267 0.0
H686 H 0.08774 0.09724 0.44053 0.0
H687 H 0.10455 0.09018 0.37461 0.0
C688 C 0.45912 0.13946 0.28058 0.0
C689 C 0.46974 0.1368 0.22296 0.0
C690 C 0.4629 0.12518 0.33053 0.0
C691 C 0.47776 0.10778 0.32335 0.0
C692 C 0.48801 0.10461 0.26488 0.0
C693 C 0.48398 0.11911 0.21579 0.0
C694 C 0.45091 0.12863 0.39104 0.0
C695 C 0.50329 0.08581 0.2542 0.0
C696 C 0.50638 0.08369 0.46545 0.0
C697 C 0.49489 0.06432 0.47475 0.0
C698 C 0.50066 0.09809 0.41744 0.0
C699 C 0.48302 0.09309 0.37703 0.0
C700 C 0.47116 0.07368 0.38682 0.0
C701 C 0.47722 0.05962 0.43536 0.0
C702 C 0.51382 0.11851 0.40921 0.0
C703 C 0.4519 0.06739 0.34697 0.0
H704 H 0.4477 0.15268 0.28663 0.0
H705 H 0.49246 0.11682 0.17203 0.0
H706 H 0.44102 0.11404 0.40128 0.0
H707 H 0.46268 0.13079 0.42997 0.0
H708 H 0.44004 0.14299 0.38974 0.0
H709 H 0.50966 0.08524 0.2058 0.0
H710 H 0.51721 0.08699 0.28711 0.0
H711 H 0.49476 0.07033 0.2636 0.0
H712 H 0.52031 0.08739 0.49463 0.0
H713 H 0.468 0.04489 0.44237 0.0
H714 H 0.503 0.1329 0.41043 0.0
H715 H 0.52184 0.11815 0.36295 0.0
H716 H 0.52649 0.12054 0.44586 0.0
H717 H 0.43681 0.07072 0.37358 0.0
H718 H 0.45235 0.04972 0.33659 0.0
H719 H 0.45103 0.07621 0.30227 0.0
C720 C 0.39145 0.48863 0.30542 0.0
C721 C 0.39748 0.47645 0.25226 0.0
C722 C 0.40663 0.49415 0.35274 0.0
C723 C 0.42861 0.4875 0.34743 0.0
C724 C 0.43462 0.47441 0.29537 0.0
C725 C 0.41911 0.4691 0.24876 0.0
C726 C 0.39929 0.5079 0.4074 0.0
C727 C 0.45764 0.46636 0.28812 0.0
C728 C 0.47398 0.52191 0.42186 0.0
C729 C 0.47904 0.51053 0.4763 0.0
C730 C 0.4572 0.51501 0.38123 0.0
C731 C 0.4456 0.49561 0.39336 0.0
C732 C 0.45069 0.48398 0.44839 0.0
C733 C 0.46705 0.49175 0.48957 0.0
C734 C 0.45216 0.52835 0.32441 0.0
C735 C 0.43925 0.46301 0.46304 0.0
H736 H 0.37497 0.49462 0.30917 0.0
H737 H 0.42405 0.45924 0.20915 0.0
H738 H 0.40442 0.50044 0.45192 0.0
H739 H 0.40708 0.5241 0.40516 0.0
H740 H 0.38139 0.51011 0.40809 0.0
H741 H 0.45954 0.45536 0.24708 0.0
H742 H 0.46879 0.48036 0.28274 0.0
H743 H 0.4628 0.45757 0.33055 0.0
H744 H 0.48325 0.53632 0.41099 0.0
H745 H 0.4711 0.48256 0.53074 0.0
H746 H 0.43462 0.53247 0.32323 0.0
H747 H 0.45577 0.51877 0.28157 0.0
H748 H 0.46169 0.54365 0.32339 0.0
H749 H 0.42175 0.46617 0.471 0.0
H750 H 0.44609 0.45506 0.50499 0.0
H751 H 0.44045 0.45158 0.42286 0.0
C752 C 0.05102 0.39201 0.31101 0.0
C753 C 0.05511 0.39753 0.24844 0.0
C754 C 0.04665 0.4079 0.35748 0.0
C755 C 0.04683 0.43026 0.3425 0.0
C756 C 0.05226 0.43608 0.28057 0.0
C757 C 0.05596 0.41983 0.23452 0.0
C758 C 0.04046 0.40049 0.42176 0.0
C759 C 0.05372 0.45962 0.26233 0.0
C760 C 1.01201 0.47278 0.42821 0.0
C761 C 0.02602 0.48096 0.47458 0.0
C762 C 0.0181 0.45537 0.38861 0.0
C763 C 0.03972 0.4474 0.3897 0.0
C764 C 0.0544 0.45643 0.43445 0.0
C765 C 0.04717 0.47247 0.47764 0.0
C766 C 1.00128 0.44554 0.34542 0.0
C767 C 0.07793 0.44967 0.43565 0.0
H768 H 0.0509 0.3751 0.3241 0.0
H769 H 0.05891 0.42479 0.18704 0.0
H770 H 0.04791 0.41086 0.45859 0.0
H771 H 0.02258 0.4018 0.42642 0.0
H772 H 0.04519 0.38337 0.42993 0.0
H773 H 0.06176 0.46165 0.21647 0.0
H774 H 0.03718 0.46663 0.25941 0.0
H775 H 0.06287 0.46907 0.29813 0.0
H776 H 0.99603 0.47991 0.42327 0.0
H777 H 0.05847 0.47928 0.51147 0.0
H778 H 1.00128 0.4276 0.3497 0.0
H779 H 1.00524 0.44936 0.29638 0.0
H780 H 0.98468 0.45163 0.35563 0.0
H781 H 0.07936 0.43323 0.45572 0.0
H782 H 0.08806 0.46101 0.46405 0.0
H783 H 0.08457 0.4489 0.38766 0.0
C784 C 0.91032 0.97038 0.98733 0.0
C785 C 0.89294 0.98492 0.9953 0.0
C786 C 0.92573 0.97302 0.93925 0.0
C787 C 0.92399 0.99069 0.89767 0.0
C788 C 0.90656 1.00551 0.90575 0.0
C789 C 0.89127 1.00237 0.95382 0.0
C790 C 0.94367 0.95657 0.93236 0.0
C791 C 0.90436 0.02506 0.86449 0.0
C792 C 0.97599 1.00834 0.81393 0.0
C793 C 0.97222 1.00165 0.75191 0.0
C794 C 0.96035 1.00531 0.86101 0.0
C795 C 0.94075 0.99412 0.84726 0.0
C796 C 0.93727 0.98635 0.78538 0.0
C797 C 0.95274 0.99062 0.73838 0.0
C798 C 0.96475 0.01441 0.92553 0.0
C799 C 0.9173 0.97329 0.76892 0.0
H800 H 0.91173 0.95667 0.01829 0.0
H801 H 0.8782 0.01397 0.95983 0.0
H802 H 0.94044 0.9464 0.8903 0.0
H803 H 0.95962 0.96454 0.92559 0.0
H804 H 0.94484 0.946 0.97377 0.0
H805 H 0.89014 0.03526 0.87712 0.0
H806 H 0.91927 0.03514 0.86806 0.0
H807 H 0.90267 0.01983 0.81505 0.0
H808 H 0.99099 0.01647 0.82587 0.0
H809 H 0.94972 0.98497 0.69107 0.0
H810 H 0.96611 1.001 0.95937 0.0
H811 H 0.95102 0.02484 0.94071 0.0
H812 H 0.97994 0.02412 0.92766 0.0
H813 H 0.9166 0.95864 0.7985 0.0
H814 H 0.91708 0.96809 0.71914 0.0
H815 H 0.90247 0.98293 0.7786 0.0
C816 C 0.55599 0.89179 0.93957 0.0
C817 C 0.55885 0.89954 1.0011 0.0
C818 C 0.55297 0.90609 0.88929 0.0
C819 C 0.55227 0.9288 0.90035 0.0
C820 C 0.55588 0.93677 0.96178 0.0
C821 C 0.5592 0.92215 1.01107 0.0
C822 C 0.55052 0.89687 0.82413 0.0
C823 C 0.55616 0.96083 0.97545 0.0
C824 C 0.55794 0.96992 0.76787 0.0
C825 C 0.53621 0.97364 0.75179 0.0
C826 C 0.56352 0.95499 0.81473 0.0
C827 C 0.54694 0.94415 0.8483 0.0
C828 C 0.52493 0.94837 0.83279 0.0
C829 C 0.51988 0.96263 0.78393 0.0
C830 C 0.5873 0.9511 0.82692 0.0
C831 C 0.50662 0.93821 0.86888 0.0
H832 H 0.5556 0.87447 0.93061 0.0
H833 H 0.56207 0.92852 0.05767 0.0
H834 H 0.534 0.90031 0.80604 0.0
H835 H 0.56227 0.9048 0.7925 0.0
H836 H 0.55322 0.87906 0.82234 0.0
H837 H 0.5583 0.96453 0.02593 0.0
H838 H 0.56965 0.9685 0.9495 0.0
H839 H 0.54078 0.96833 0.9592 0.0
H840 H 0.57064 0.97833 0.7429 0.0
H841 H 0.50304 0.96568 0.77192 0.0
H842 H 0.59056 0.93873 0.86283 0.0
H843 H 0.59503 0.96663 0.84159 0.0
H844 H 0.59519 0.94582 0.78284 0.0
H845 H 0.50726 0.92029 0.86396 0.0
H846 H 0.49042 0.94386 0.8529 0.0
H847 H 0.50843 0.9422 0.91926 0.0
C848 C 0.63911 0.54079 0.92107 0.0
C849 C 0.63342 0.55379 0.97286 0.0
C850 C 0.624 0.53572 0.87332 0.0
C851 C 0.60246 0.54377 0.87662 0.0
C852 C 0.59682 0.55765 0.92738 0.0
C853 C 0.61223 0.56235 0.97478 0.0
C854 C 0.63091 0.52092 0.82054 0.0
C855 C 0.57431 0.56719 0.93236 0.0
C856 C 0.56519 0.54046 0.73189 0.0
C857 C 0.552 0.52255 0.74565 0.0
C858 C 0.58167 0.54756 0.77361 0.0
C859 C 0.58543 0.53627 0.83009 0.0
C860 C 0.57258 0.51773 0.8428 0.0
C861 C 0.55591 0.51137 0.80118 0.0
C862 C 0.59454 0.56761 0.75818 0.0
C863 C 0.57619 0.50476 0.9012 0.0
H864 H 0.65525 0.53385 0.91884 0.0
H865 H 0.60762 0.57275 0.01361 0.0
H866 H 0.6226 0.50505 0.82512 0.0
H867 H 0.62605 0.52779 0.775 0.0
H868 H 0.64873 0.51809 0.8203 0.0
H869 H 0.57289 0.57893 0.97185 0.0
H870 H 0.56993 0.57558 0.88855 0.0
H871 H 0.5623 0.554 0.93901 0.0
H872 H 0.56208 0.54946 0.68968 0.0
H873 H 0.54575 0.49758 0.81227 0.0
H874 H 0.6122 0.56424 0.76127 0.0
H875 H 0.59087 0.58064 0.79271 0.0
H876 H 0.59076 0.5737 0.71079 0.0
H877 H 0.5934 0.49953 0.90419 0.0
H878 H 0.56566 0.49014 0.90283 0.0
H879 H 0.57282 0.51504 0.94287 0.0
C880 C 0.98096 0.61567 0.99131 0.0
C881 C 0.98513 0.63779 0.98057 0.0
C882 C 0.98449 0.59949 0.94495 0.0
C883 C 0.99253 0.60524 0.88518 0.0
C884 C 0.99617 0.6276 0.87351 0.0
C885 C 0.99243 0.64343 0.92073 0.0
C886 C 0.98003 0.57623 0.96212 0.0
C887 C 1.00509 0.63481 0.81184 0.0
C888 C 0.02321 0.55872 0.80274 0.0
C889 C 1.01026 0.55392 0.75036 0.0
C890 C 0.01823 0.576 0.84414 0.0
C891 C 0.99865 0.58793 0.83697 0.0
C892 C 0.98506 0.58267 0.78485 0.0
C893 C 0.99132 0.56623 0.74152 0.0
C894 C 0.03407 0.5814 0.89587 0.0
C895 C 0.96361 0.59385 0.77417 0.0
H896 H 0.97492 0.61079 0.03643 0.0
H897 H 0.99604 0.66027 0.91121 0.0
H898 H 0.98021 0.5649 0.92166 0.0
H899 H 0.99245 0.57087 0.99627 0.0
H900 H 0.96403 0.57501 0.98558 0.0
H901 H 1.00747 0.65265 0.8099 0.0
H902 H 0.0209 0.62675 0.80359 0.0
H903 H 0.99393 0.62985 0.77355 0.0
H904 H 0.03774 0.54918 0.81055 0.0
H905 H 0.98083 0.5624 0.70218 0.0
H906 H 0.02761 0.57547 0.94076 0.0
H907 H 0.03632 0.59923 0.90024 0.0
H908 H 0.05018 0.57377 0.88794 0.0
H909 H 0.95091 0.58166 0.76226 0.0
H910 H 0.96509 0.60472 0.7335 0.0
H911 H 0.95806 0.60353 0.81496 0.0
C912 C 0.0646 0.18047 0.22036 0.0
C913 C 0.08436 0.18985 0.23911 0.0
C914 C 0.05379 0.16572 0.25835 0.0
C915 C 0.06298 0.16012 0.31656 0.0
C916 C 0.08372 0.16812 0.33366 0.0
C917 C 0.09418 0.18299 0.29472 0.0
C918 C 0.03169 0.15751 0.23824 0.0
C919 C 0.09425 0.16196 0.39461 0.0
C920 C 0.01978 0.14735 0.43503 0.0
C921 C 0.01734 0.12487 0.42631 0.0
C922 C 0.03548 0.15896 0.40211 0.0
C923 C 0.04969 0.1477 0.36139 0.0
C924 C 0.04887 0.12483 0.35749 0.0
C925 C 0.03251 0.11366 0.38926 0.0
C926 C 0.03564 0.18343 0.40713 0.0
C927 C 0.06415 0.11222 0.31604 0.0
H928 H 0.05669 0.18587 0.17806 0.0
H929 H 0.10958 0.18999 0.30913 0.0
H930 H 0.03099 0.13958 0.24118 0.0
H931 H 0.0191 0.16418 0.27005 0.0
H932 H 0.02754 0.16224 0.18979 0.0
H933 H 0.11154 0.16707 0.39702 0.0
H934 H 0.08544 0.1698 0.43384 0.0
H935 H 0.09332 0.14415 0.40137 0.0
H936 H 1.00872 0.1561 0.46538 0.0
H937 H 0.03092 0.09632 0.38187 0.0
H938 H 0.03025 0.19041 0.36215 0.0
H939 H 0.05232 0.18946 0.41649 0.0
H940 H 0.02474 0.18957 0.44454 0.0
H941 H 0.05831 0.11286 0.2671 0.0
H942 H 0.06494 0.09498 0.32996 0.0
H943 H 0.08076 0.1192 0.31763 0.0
C944 C 0.34202 0.05608 0.23161 0.0
C945 C 0.34334 0.07855 0.22401 0.0
C946 C 0.3556 0.04541 0.27342 0.0
C947 C 0.3712 0.05751 0.30771 0.0
C948 C 0.37287 0.08025 0.29969 0.0
C949 C 0.35863 0.09062 0.25818 0.0
C950 C 0.35293 0.02122 0.28166 0.0
C951 C 0.38978 0.09353 0.33408 0.0
C952 C 0.38964 0.02771 0.45117 0.0
C953 C 0.40764 0.01639 0.428 0.0
C954 C 0.37848 0.04253 0.41381 0.0
C955 C 0.38549 0.04592 0.35188 0.0
C956 C 0.40434 0.03541 0.32943 0.0
C957 C 0.41525 0.02074 0.36789 0.0
C958 C 0.35841 0.05347 0.43927 0.0
C959 C 0.41224 0.03871 0.2636 0.0
H960 H 0.32978 0.04691 0.20605 0.0
H961 H 0.35941 0.10805 0.25234 0.0
H962 H 0.36824 0.01274 0.26953 0.0
H963 H 0.34933 0.01764 0.33115 0.0
H964 H 0.33966 0.01438 0.25217 0.0
H965 H 0.38622 0.11118 0.33232 0.0
H966 H 0.39105 0.08864 0.3836 0.0
H967 H 0.40586 0.09068 0.31226 0.0
H968 H 0.38398 0.02454 0.49803 0.0
H969 H 0.42916 1.01194 0.34989 0.0
H970 H 0.34383 0.04677 0.41531 0.0
H971 H 0.35889 0.07114 0.43005 0.0
H972 H 0.35659 0.05103 0.49025 0.0
H973 H 0.40035 0.0317 0.22997 0.0
H974 H 0.42825 0.03095 0.25517 0.0
H975 H 0.41355 0.05629 0.25373 0.0
C976 C 0.45469 0.33278 0.30559 0.0
C977 C 0.44357 0.33713 0.24981 0.0
C978 C 0.46672 0.349 0.33625 0.0
C979 C 0.46779 0.3699 0.31001 0.0
C980 C 0.4547 0.37498 0.25777 0.0
C981 C 0.44268 0.35848 0.22825 0.0
C982 C 0.47989 0.34318 0.39319 0.0
C983 C 0.45507 0.39727 0.22929 0.0
C984 C 0.49771 0.41721 0.38531 0.0
C985 C 0.5182 0.41565 0.35658 0.0
C986 C 0.48147 0.40173 0.37356 0.0
C987 C 0.48535 0.38499 0.32948 0.0
C988 C 0.50599 0.38308 0.30105 0.0
C989 C 0.52228 0.39811 0.3161 0.0
C990 C 0.46001 0.40379 0.40695 0.0
C991 C 0.51072 0.36554 0.25313 0.0
H992 H 0.45553 0.31631 0.32264 0.0
H993 H 0.43373 0.36197 0.1859 0.0
H994 H 0.49709 0.34065 0.37963 0.0
H995 H 0.47949 0.3565 0.42842 0.0
H996 H 0.47392 0.32804 0.41496 0.0
H997 H 0.44206 0.3993 0.19381 0.0
H998 H 0.45316 0.41 0.26579 0.0
H999 H 0.47101 0.39991 0.20657 0.0
H1000 H 0.49399 0.43083 0.41574 0.0
H1001 H 0.53814 0.39628 0.29502 0.0
H1002 H 0.45355 0.38764 0.41968 0.0
H1003 H 0.44799 0.41159 0.37579 0.0
H1004 H 0.4615 0.4139 0.45002 0.0
H1005 H 0.50853 0.34931 0.27399 0.0
H1006 H 0.52749 0.36661 0.2345 0.0
H1007 H 0.49913 0.36677 0.21355 0.0
C1008 C 0.19498 0.43988 0.33377 0.0
C1009 C 0.204 0.44848 0.27967 0.0
C1010 C 0.17692 0.44995 0.36188 0.0
C1011 C 0.16819 0.46902 0.3353 0.0
C1012 C 0.1774 0.47758 0.2804 0.0
C1013 C 0.19511 0.4671 0.25318 0.0
C1014 C 0.16735 0.44043 0.42015 0.0
C1015 C 0.16885 0.49806 0.25089 0.0
C1016 C 0.11195 0.49188 0.35664 0.0
C1017 C 0.11647 0.51009 0.39392 0.0
C1018 C 0.12836 0.47696 0.34184 0.0
C1019 C 0.14969 0.48064 0.36455 0.0
C1020 C 0.15383 0.49815 0.40631 0.0
C1021 C 0.13707 0.51275 0.42046 0.0
C1022 C 0.12336 0.4585 0.29717 0.0
C1023 C 0.17639 0.50283 0.43077 0.0
H1024 H 0.20213 0.42552 0.3541 0.0
H1025 H 0.20241 0.4737 0.21148 0.0
H1026 H 0.16858 0.45234 0.45922 0.0
H1027 H 0.14984 0.43697 0.41279 0.0
H1028 H 0.17566 0.42523 0.43401 0.0
H1029 H 0.17791 0.50242 0.2081 0.0
H1030 H 0.15146 0.49606 0.23845 0.0
H1031 H 0.17005 0.51181 0.28459 0.0
H1032 H 0.09598 0.49016 0.33572 0.0
H1033 H 0.14046 0.52712 0.44851 0.0
H1034 H 0.12991 0.44305 0.31547 0.0
H1035 H 0.13136 0.46148 0.25177 0.0
H1036 H 0.10565 0.4566 0.28873 0.0
H1037 H 0.18433 0.48774 0.44695 0.0
H1038 H 0.17624 0.51482 0.46985 0.0
H1039 H 0.18647 0.50946 0.39264 0.0
C1040 C 0.95873 0.8345 0.89748 0.0
C1041 C 0.94929 0.83962 0.95528 0.0
C1042 C 0.96879 0.85052 0.86193 0.0
C1043 C 0.96939 0.87213 0.88474 0.0
C1044 C 0.95812 0.87769 0.94002 0.0
C1045 C 0.94824 0.86134 0.97492 0.0
C1046 C 0.98057 0.84391 0.80305 0.0
C1047 C 0.95774 0.90069 0.96422 0.0
C1048 C 0.02229 0.89996 0.84746 0.0
C1049 C 0.01656 0.91237 0.79583 0.0
C1050 C 1.00672 0.88773 0.87876 0.0
C1051 C 0.98495 0.88768 0.85711 0.0
C1052 C 0.97889 0.901 0.80649 0.0
C1053 C 0.99486 0.9133 0.77639 0.0
C1054 C 0.0138 0.87412 0.9334 0.0
C1055 C 0.95593 0.90143 0.78177 0.0
H1056 H 0.9598 0.81771 0.88225 0.0
H1057 H 0.94066 0.86536 0.01911 0.0
H1058 H 0.97676 0.85527 0.7648 0.0
H1059 H 0.99836 0.84463 0.81141 0.0
H1060 H 0.9763 0.82718 0.78757 0.0
H1061 H 0.94621 0.9029 1.00351 0.0
H1062 H 0.97422 0.90551 0.98022 0.0
H1063 H 0.95309 0.91162 0.92587 0.0
H1064 H 0.03912 0.89953 0.86253 0.0
H1065 H 0.99058 0.92295 0.73618 0.0
H1066 H 1.0118 0.85666 0.9216 0.0
H1067 H 1.00349 0.87768 0.97456 0.0
H1068 H 0.03103 0.87705 0.94658 0.0
H1069 H 0.95352 0.88747 0.74934 0.0
H1070 H 0.95262 0.91655 0.75563 0.0
H1071 H 0.94389 0.90001 0.81986 0.0
C1072 C 0.67227 0.95425 0.97981 0.0
C1073 C 0.69442 0.95587 0.96603 0.0
C1074 C 0.65671 0.96451 0.94226 0.0
C1075 C 0.66364 0.97705 0.89105 0.0
C1076 C 0.6859 0.97763 0.87505 0.0
C1077 C 0.70098 0.96686 0.91246 0.0
C1078 C 0.63302 0.96294 0.95926 0.0
C1079 C 0.69411 0.99131 0.82202 0.0
C1080 C 0.6265 1.00247 0.77056 0.0
C1081 C 0.62539 0.02378 0.79353 0.0
C1082 C 0.63817 0.9866 0.80315 0.0
C1083 C 0.64849 0.99229 0.86021 0.0
C1084 C 0.64642 0.01363 0.88475 0.0
C1085 C 0.635 0.02916 0.85077 0.0
C1086 C 0.64039 0.96416 0.77508 0.0
C1087 C 0.65723 0.02039 0.94533 0.0
H1088 H 0.66725 0.94567 0.02119 0.0
H1089 H 0.71815 0.96845 0.90238 0.0
H1090 H 0.62662 0.97923 0.97189 0.0
H1091 H 0.62359 0.95697 0.91845 0.0
H1092 H 0.63023 0.95184 0.9989 0.0
H1093 H 0.71146 0.98805 0.8114 0.0
H1094 H 0.68439 0.98836 0.77914 0.0
H1095 H 0.6924 1.00874 0.83462 0.0
H1096 H 0.61896 0.99848 0.72609 0.0
H1097 H 0.63388 0.0457 0.86832 0.0
H1098 H 0.63717 0.95166 0.81071 0.0
H1099 H 0.65726 0.9617 0.75853 0.0
H1100 H 0.62922 0.96158 0.73486 0.0
H1101 H 0.65255 1.00923 0.9832 0.0
H1102 H 0.65288 0.03721 0.9597 0.0
H1103 H 0.67513 0.01943 0.94027 0.0
C1104 C 0.58582 0.6785 0.99276 0.0
C1105 C 0.58488 0.69974 0.97039 0.0
C1106 C 0.57491 0.6616 0.96158 0.0
C1107 C 0.56293 0.66617 0.9068 0.0
C1108 C 0.56437 0.68692 0.87969 0.0
C1109 C 0.57524 0.70357 0.91209 0.0
C1110 C 0.57428 0.63948 0.99097 0.0
C1111 C 0.5526 0.69212 0.81981 0.0
C1112 C 0.53418 0.61768 0.83384 0.0
C1113 C 0.51346 0.6194 0.86096 0.0
C1114 C 0.55015 0.63353 0.84484 0.0
C1115 C 0.54563 0.65094 0.88623 0.0
C1116 C 0.52463 0.65313 0.91227 0.0
C1117 C 0.50872 0.6376 0.89826 0.0
C1118 C 0.57202 0.631 0.81404 0.0
C1119 C 0.51915 0.67142 0.95711 0.0
H1120 H 0.59373 0.67542 0.03704 0.0
H1121 H 0.57451 0.71994 0.89425 0.0
H1122 H 0.55791 0.63665 1.01082 0.0
H1123 H 0.57725 0.62661 0.95548 0.0
H1124 H 0.5865 0.63787 0.02889 0.0
H1125 H 0.55902 0.70711 0.79826 0.0
H1126 H 0.55398 0.67849 0.78577 0.0
H1127 H 0.5351 0.69462 0.82963 0.0
H1128 H 0.53832 0.60361 0.80559 0.0
H1129 H 0.49264 0.6395 0.9179 0.0
H1130 H 0.58316 0.62225 0.84579 0.0
H1131 H 0.5794 0.64697 0.80357 0.0
H1132 H 0.57074 0.6214 0.76999 0.0
H1133 H 0.53007 0.67083 0.99837 0.0
H1134 H 0.50208 0.67065 0.97358 0.0
H1135 H 0.5217 0.68729 0.93444 0.0
C1136 C 0.8449 0.59682 0.91981 0.0
C1137 C 0.83899 0.58647 0.97529 0.0
C1138 C 0.86246 0.58926 0.88392 0.0
C1139 C 0.87431 0.57099 0.90422 0.0
C1140 C 0.86901 0.56111 0.96151 0.0
C1141 C 0.85142 0.56892 0.99609 0.0
C1142 C 0.86773 0.60023 0.82328 0.0
C1143 C 0.8813 0.5416 0.98517 0.0
C1144 C 0.90344 0.52875 0.80938 0.0
C1145 C 0.92473 0.53238 0.82977 0.0
C1146 C 0.88678 0.54307 0.82665 0.0
C1147 C 0.89174 0.56119 0.86544 0.0
C1148 C 0.91369 0.56639 0.87864 0.0
C1149 C 0.92998 0.55172 0.861 0.0
C1150 C 0.86364 0.53716 0.81039 0.0
C1151 C 0.91978 0.58581 0.91844 0.0
H1152 H 0.83548 0.61051 0.90363 0.0
H1153 H 0.84674 0.56047 0.038 0.0
H1154 H 0.88546 0.60307 0.81936 0.0
H1155 H 0.86287 0.58952 0.7837 0.0
H1156 H 0.85912 0.61597 0.81856 0.0
H1157 H 0.87565 0.53644 0.03185 0.0
H1158 H 0.87927 0.52777 0.95209 0.0
H1159 H 0.89891 0.54529 0.98828 0.0
H1160 H 0.89949 0.51367 0.78531 0.0
H1161 H 0.94653 0.55439 0.87649 0.0
H1162 H 0.854 0.55183 0.79941 0.0
H1163 H 0.85599 0.52924 0.85102 0.0
H1164 H 0.86284 0.52573 0.76999 0.0
H1165 H 0.90855 0.5996 0.91086 0.0
H1166 H 0.9366 0.59122 0.90859 0.0
H1167 H 0.91892 0.58131 0.96834 0.0
C1168 C 0.04321 0.17853 0.74971 0.0
C1169 C 0.05456 0.18042 0.80683 0.0
C1170 C 0.03888 0.15808 0.72115 0.0
C1171 C 0.04586 0.13862 0.74991 0.0
C1172 C 0.05816 0.14051 0.80595 0.0
C1173 C 0.06226 0.16112 0.83353 0.0
C1174 C 0.02625 0.15728 0.66074 0.0
C1175 C 0.06639 0.12064 0.83841 0.0
C1176 C 1.01038 0.08812 0.71837 0.0
C1177 C 0.02278 0.0756 0.67648 0.0
C1178 C 0.01807 0.10797 0.74374 0.0
C1179 C 0.03842 0.1165 0.72506 0.0
C1180 C 0.05107 0.10397 0.68228 0.0
C1181 C 0.04322 0.08369 0.65906 0.0
C1182 C 1.00424 0.11991 0.79087 0.0
C1183 C 0.07259 0.11224 0.65919 0.0
H1184 H 0.037 0.19306 0.728 0.0
H1185 H 0.0715 0.16206 0.87657 0.0
H1186 H 0.03483 0.14698 0.62592 0.0
H1187 H 1.01011 0.14982 0.66875 0.0
H1188 H 0.02378 0.17366 0.64084 0.0
H1189 H 0.07861 0.12461 0.87504 0.0
H1190 H 0.05248 0.11236 0.86054 0.0
H1191 H 0.07375 0.10928 0.80421 0.0
H1192 H 0.9946 0.08211 0.73229 0.0
H1193 H 0.05287 0.07443 0.62601 0.0
H1194 H 0.99929 0.13586 0.77206 0.0
H1195 H 0.01378 0.12307 0.83406 0.0
H1196 H 0.98941 0.11069 0.80326 0.0
H1197 H 0.06967 0.12545 0.62544 0.0
H1198 H 0.08212 0.09927 0.63547 0.0
H1199 H 0.08242 0.11912 0.6981 0.0
C1200 C 0.37002 0.07085 0.79049 0.0
C1201 C 0.35389 0.05461 0.78982 0.0
C1202 C 0.39103 0.06708 0.7657 0.0
C1203 C 0.39635 0.04657 0.73898 0.0
C1204 C 0.37993 0.03044 0.73596 0.0
C1205 C 0.35924 0.0345 0.76186 0.0
C1206 C 0.40778 0.08485 0.77074 0.0
C1207 C 0.38435 1.0085 0.70656 0.0
C1208 C 0.44823 0.03853 0.6404 0.0
C1209 C 0.46143 0.02644 0.6808 0.0
C1210 C 0.42707 0.04523 0.65817 0.0
C1211 C 0.41937 0.04105 0.71938 0.0
C1212 C 0.43316 0.02965 0.76085 0.0
C1213 C 0.4533 0.02151 0.7399 0.0
C1214 C 0.41256 0.05573 0.61035 0.0
C1215 C 0.4265 0.02582 0.82748 0.0
H1216 H 0.3663 0.0866 0.81062 0.0
H1217 H 0.34741 0.02151 0.76144 0.0
H1218 H 0.41949 0.08066 0.80804 0.0
H1219 H 0.41702 0.08638 0.72673 0.0
H1220 H 0.4004 0.10081 0.78257 0.0
H1221 H 0.36932 0.9987 0.70074 0.0
H1222 H 0.39203 1.01043 0.6602 0.0
H1223 H 0.39586 0.99933 0.73618 0.0
H1224 H 0.45391 0.04155 0.59349 0.0
H1225 H 0.4628 1.01123 0.77013 0.0
H1226 H 0.40777 0.07218 0.62653 0.0
H1227 H 0.39744 0.0461 0.60452 0.0
H1228 H 0.42055 0.05705 0.56415 0.0
H1229 H 0.42289 0.0416 0.85069 0.0
H1230 H 0.43933 0.01743 0.85462 0.0
H1231 H 0.41149 0.01591 0.82887 0.0
C1232 C 0.46318 0.36891 0.82314 0.0
C1233 C 0.47154 0.34957 0.79742 0.0
C1234 C 0.46726 0.38926 0.79572 0.0
C1235 C 0.4802 0.39056 0.74121 0.0
C1236 C 0.48829 0.37107 0.71428 0.0
C1237 C 0.48389 0.35095 0.7425 0.0
C1238 C 0.45803 0.40947 0.82585 0.0
C1239 C 0.50204 0.37149 0.65618 0.0
C1240 C 0.47861 0.44321 0.64655 0.0
C1241 C 0.49786 0.4536 0.66563 0.0
C1242 C 0.47289 0.42255 0.66937 0.0
C1243 C 0.48626 0.41231 0.71446 0.0
C1244 C 0.50554 0.42299 0.73444 0.0
C1245 C 0.51122 0.44326 0.70923 0.0
C1246 C 0.45254 0.41169 0.64508 0.0
C1247 C 0.52005 0.41315 0.78344 0.0
H1248 H 0.45334 0.36816 0.86484 0.0
H1249 H 0.49068 0.33627 0.72225 0.0
H1250 H 0.47145 0.42021 0.84183 0.0
H1251 H 0.44833 0.41868 0.79141 0.0
H1252 H 0.44754 0.40575 0.86639 0.0
H1253 H 0.50586 0.35493 0.6384 0.0
H1254 H 0.49359 0.38056 0.61887 0.0
H1255 H 0.51752 0.38007 0.66623 0.0
H1256 H 0.46814 0.45117 0.61312 0.0
H1257 H 0.5258 0.4514 0.72545 0.0
H1258 H 0.44091 0.40938 0.68379 0.0
H1259 H 0.45649 0.39537 0.62592 0.0
H1260 H 0.44447 0.42126 0.608 0.0
H1261 H 0.51069 0.41054 0.82684 0.0
H1262 H 0.5343 0.42355 0.79468 0.0
H1263 H 0.52596 0.39705 0.76724 0.0
C1264 C 0.16931 0.47815 0.83595 0.0
C1265 C 0.18784 0.47506 0.7986 0.0
C1266 C 0.14858 0.48205 0.80957 0.0
C1267 C 0.14594 0.48302 0.74381 0.0
C1268 C 0.1644 0.4793 0.70573 0.0
C1269 C 0.18494 0.47537 0.73332 0.0
C1270 C 0.12949 0.48565 0.85238 0.0
C1271 C 0.16255 0.4798 0.63551 0.0
C1272 C 0.08817 0.47799 0.6753 0.0
C1273 C 0.08227 0.49975 0.66541 0.0
C1274 C 0.10872 0.47228 0.6999 0.0
C1275 C 0.12412 0.48867 0.71519 0.0
C1276 C 0.11849 0.51062 0.70366 0.0
C1277 C 0.09785 0.51585 0.67864 0.0
C1278 C 0.11385 0.44864 0.71001 0.0
C1279 C 0.13419 0.52873 0.71891 0.0
H1280 H 0.17106 0.47818 0.88623 0.0
H1281 H 0.19879 0.47254 0.70336 0.0
H1282 H 0.12309 0.50233 0.84635 0.0
H1283 H 0.11618 0.47422 0.84015 0.0
H1284 H 0.13387 0.48346 0.90222 0.0
H1285 H 0.17803 0.47538 0.61215 0.0
H1286 H 0.14969 0.46846 0.61918 0.0
H1287 H 0.15776 0.49629 0.62051 0.0
H1288 H 0.07671 0.46528 0.66345 0.0
H1289 H 0.09378 0.53268 0.67085 0.0
H1290 H 0.11746 0.44585 0.76001 0.0
H1291 H 0.12856 0.444 0.6833 0.0
H1292 H 0.10026 0.43782 0.6955 0.0
H1293 H 0.1383 0.52854 0.76934 0.0
H1294 H 0.12751 0.54494 0.70735 0.0
H1295 H 0.14953 0.52628 0.69281 0.0
C1296 C 0.97998 0.86121 0.4756 0.0
C1297 C 0.98573 0.8575 0.41253 0.0
C1298 C 0.98437 0.88117 0.50707 0.0
C1299 C 0.994 0.89872 0.47466 0.0
C1300 C 0.99879 0.89552 0.41041 0.0
C1301 C 0.99508 0.87514 0.38092 0.0
C1302 C 0.97864 0.88296 0.57537 0.0
C1303 C 1.00811 0.91372 0.37238 0.0
C1304 C 0.99311 0.95691 0.54648 0.0
C1305 C 0.01534 0.96128 0.55509 0.0
C1306 C 0.98577 0.93692 0.51991 0.0
C1307 C 1.00073 0.91979 0.50762 0.0
C1308 C 0.02273 0.92317 0.5249 0.0
C1309 C 0.02984 0.94387 0.54558 0.0
C1310 C 0.96209 0.93434 0.50365 0.0
C1311 C 0.03886 0.90475 0.52252 0.0
H1312 H 0.97208 0.84847 0.50136 0.0
H1313 H 1.00006 0.87308 0.33291 0.0
H1314 H 0.98759 0.89611 0.60014 0.0
H1315 H 0.96097 0.88612 0.57973 0.0
H1316 H 0.98196 0.86741 0.5993 0.0
H1317 H 1.00785 0.90997 0.32159 0.0
H1318 H 0.99882 0.92887 0.38092 0.0
H1319 H 0.02517 0.91682 0.38666 0.0
H1320 H 0.98147 0.96925 0.5593 0.0
H1321 H 0.04695 0.94623 0.55546 0.0
H1322 H 0.9552 0.92015 0.52784 0.0
H1323 H 0.96036 0.9313 0.45273 0.0
H1324 H 0.95244 0.9489 0.51669 0.0
H1325 H 0.03174 0.89001 0.54366 0.0
H1326 H 0.05415 0.90882 0.5477 0.0
H1327 H 0.04286 0.90074 0.47338 0.0
C1328 C 0.66193 0.99488 0.3949 0.0
C1329 C 0.67868 0.98397 0.4267 0.0
C1330 C 0.64138 0.99855 0.42216 0.0
C1331 C 0.63726 0.99202 0.48427 0.0
C1332 C 0.65398 0.98102 0.517 0.0
C1333 C 0.67411 0.97672 0.48751 0.0
C1334 C 0.62409 1.00989 0.38447 0.0
C1335 C 0.65096 0.97382 0.58354 0.0
C1336 C 0.59259 0.02717 0.55609 0.0
C1337 C 0.57445 0.01322 0.5569 0.0
C1338 C 0.61338 0.01982 0.53858 0.0
C1339 C 0.61612 0.9984 0.51544 0.0
C1340 C 0.59825 0.98387 0.51928 0.0
C1341 C 0.5781 0.9912 0.54353 0.0
C1342 C 0.63245 0.0351 0.54486 0.0
C1343 C 0.6 0.9609 0.49499 0.0
H1344 H 0.66488 1.00112 0.34874 0.0
H1345 H 0.68631 0.96773 0.51288 0.0
H1346 H 0.60844 1.00102 0.38757 0.0
H1347 H 0.62144 0.02647 0.40358 0.0
H1348 H 0.62861 1.01128 0.33457 0.0
H1349 H 0.66676 0.97298 0.60862 0.0
H1350 H 0.63998 0.98478 0.61004 0.0
H1351 H 0.64382 0.9573 0.58351 0.0
H1352 H 0.59072 0.044 0.57022 0.0
H1353 H 0.56519 0.97979 0.5509 0.0
H1354 H 0.63772 0.0404 0.49808 0.0
H1355 H 0.64638 0.0267 0.56706 0.0
H1356 H 0.62842 0.04973 0.5733 0.0
H1357 H 0.60045 0.96116 0.44325 0.0
H1358 H 0.58607 0.95077 0.5097 0.0
H1359 H 0.61522 0.95318 0.51103 0.0
C1360 C 0.55875 0.68342 0.48859 0.0
C1361 C 0.55657 0.6863 0.42375 0.0
C1362 C 0.5551 0.66309 0.51657 0.0
C1363 C 0.54913 0.64489 0.47921 0.0
C1364 C 0.54745 0.64751 0.41367 0.0
C1365 C 0.55116 0.66804 0.38691 0.0
C1366 C 0.55736 0.66118 0.58644 0.0
C1367 C 0.54128 0.62866 0.37172 0.0
C1368 C 0.55523 0.58705 0.54194 0.0
C1369 C 0.53378 0.58159 0.55787 0.0
C1370 C 0.5605 0.6075 0.51707 0.0
C1371 C 0.54403 0.6233 0.50853 0.0
C1372 C 0.52251 0.61821 0.52687 0.0
C1373 C 0.51767 0.59755 0.55121 0.0
C1374 C 0.58371 0.61205 0.49896 0.0
C1375 C 0.50442 0.63451 0.51965 0.0
H1376 H 0.56333 0.69714 0.51781 0.0
H1377 H 0.54918 0.66988 0.33703 0.0
H1378 H 0.54162 0.65621 0.60687 0.0
H1379 H 0.56936 0.64841 0.59794 0.0
H1380 H 0.56258 0.67665 0.60897 0.0
H1381 H 0.54142 0.63303 0.32161 0.0
H1382 H 0.55265 0.61494 0.37888 0.0
H1383 H 0.52479 0.62285 0.38384 0.0
H1384 H 0.56802 0.57527 0.54867 0.0
H1385 H 0.50109 0.59383 0.56394 0.0
H1386 H 0.58976 0.62664 0.5243 0.0
H1387 H 0.58457 0.61553 0.44839 0.0
H1388 H 0.59468 0.59822 0.50916 0.0
H1389 H 0.50857 0.64974 0.5451 0.0
H1390 H 0.48868 0.62838 0.5374 0.0
H1391 H 0.50243 0.63863 0.46972 0.0
C1392 C 0.85409 0.56926 0.46132 0.0
C1393 C 0.84641 0.55494 0.41442 0.0
C1394 C 0.87399 0.5656 0.49301 0.0
C1395 C 0.88683 0.54715 0.47793 0.0
C1396 C 0.87901 0.53249 0.43149 0.0
C1397 C 0.8591 0.53651 0.40066 0.0
C1398 C 0.8815 0.58182 0.54176 0.0
C1399 C 0.8919 0.51257 0.41358 0.0
C1400 C 0.94865 0.54765 0.50061 0.0
C1401 C 0.95191 0.53489 0.55376 0.0
C1402 C 0.92775 0.55236 0.47728 0.0
C1403 C 0.90911 0.54385 0.50683 0.0
C1404 C 0.91211 0.53118 0.56126 0.0
C1405 C 0.93336 0.52679 0.58381 0.0
C1406 C 0.92572 0.56606 0.41961 0.0
C1407 C 0.89286 0.52199 0.59527 0.0
H1408 H 0.84476 0.58367 0.47254 0.0
H1409 H 0.85336 0.52496 0.36588 0.0
H1410 H 0.88601 0.57342 0.58543 0.0
H1411 H 0.89623 0.59029 0.52503 0.0
H1412 H 0.86888 0.59415 0.5526 0.0
H1413 H 0.88331 0.50224 0.3786 0.0
H1414 H 0.90778 0.51747 0.39394 0.0
H1415 H 0.8953 0.50273 0.45551 0.0
H1416 H 0.96251 0.55348 0.47542 0.0
H1417 H 0.93542 0.51692 0.62492 0.0
H1418 H 0.91453 0.57985 0.42839 0.0
H1419 H 0.9187 0.5562 0.38089 0.0
H1420 H 0.94161 0.57264 0.40433 0.0
H1421 H 0.88125 0.53514 0.60732 0.0
H1422 H 0.89768 0.5136 0.63877 0.0
H1423 H 0.88415 0.51029 0.56445 0.0
loop_
_geom_bond_atom_site_label_1
_geom_bond_atom_site_label_2
_geom_bond_distance
_geom_bond_site_symmetry_2
_ccdc_geom_bond_type
C0 C1 1.264 . S
C0 C5 1.479 . S
C0 C10 1.465 . S
C1 C0 1.264 . S
C1 C3 1.339 . S
C1 H28 0.931 . S
C2 C3 1.395 . S
C2 C4 1.320 . S
C3 C1 1.339 . S
C3 C2 1.395 . S
C3 H29 0.929 . S
C4 C2 1.320 . S
C4 C5 1.405 . S
C4 H30 0.930 . S
C5 C0 1.479 . S
C5 C4 1.405 . S
C5 H31 0.931 . S
U6 O7 2.454 . S
U6 O8 2.458 . S
U6 C9 2.984 . S
U6 C10 2.847 . S
U6 C23 2.882 . S
U6 O24 2.441 . S
U6 O25 2.420 . S
U6 O26 2.455 . S
U6 O27 2.449 . S
O7 U6 2.454 . S
O7 C9 1.353 . S
O8 U6 2.458 . S
O8 C9 1.286 . S
C9 U6 2.984 . S
C9 O7 1.353 . S
C9 O8 1.286 . S
C9 C11 1.363 . S
C10 C0 1.465 . S
C10 U6 2.847 . S
C10 O24 1.249 . S
C10 O25 1.202 . S
C11 C9 1.363 . S
C11 C13 1.408 . S
C11 C16 1.342 . S
C12 C13 1.310 . S
C12 C15 1.461 . S
C12 H32 0.932 . S
C13 C11 1.408 . S
C13 C12 1.310 . S
C13 H33 0.930 . S
C14 C15 1.474 . S
C14 C16 1.285 . S
C14 H34 0.929 . S
C15 C12 1.461 . S
C15 C14 1.474 . S
C16 C11 1.342 . S
C16 C14 1.285 . S
C16 H35 0.930 . S
C17 C20 1.424 . S
C17 C22 1.245 1_554 S
C17 C23 1.428 . S
C18 C21 1.260 . S
C18 C22 1.477 . S
C18 H36 0.932 . S
C19 C20 1.384 . S
C19 C21 1.479 1_554 S
C19 H37 0.929 . S
C20 C17 1.424 . S
C20 C19 1.384 . S
C20 H38 0.928 . S
C21 C18 1.260 . S
C21 C19 1.479 1_556 S
C22 C17 1.245 1_556 S
C22 C18 1.477 . S
C22 H39 0.932 . S
C23 U6 2.882 . S
C23 C17 1.428 . S
C23 O26 1.301 . S
C23 O27 1.282 . S
O24 U6 2.441 . S
O24 C10 1.249 . S
O25 U6 2.420 . S
O25 C10 1.202 . S
O26 U6 2.455 . S
O26 C23 1.301 . S
O27 U6 2.449 . S
O27 C23 1.282 . S
H28 C1 0.931 . S
H29 C3 0.929 . S
H30 C4 0.930 . S
H31 C5 0.931 . S
H32 C12 0.932 . S
H33 C13 0.930 . S
H34 C14 0.929 . S
H35 C16 0.930 . S
H36 C18 0.932 . S
H37 C19 0.929 . S
H38 C20 0.928 . S
H39 C22 0.932 . S
C40 C41 1.264 . S
C40 C45 1.479 . S
C40 C50 1.465 . S
C41 C40 1.264 . S
C41 C43 1.339 . S
C41 H68 0.931 . S
C42 C43 1.395 . S
C42 C44 1.320 . S
C43 C41 1.339 . S
C43 C42 1.395 . S
C43 H69 0.929 . S
C44 C42 1.320 . S
C44 C45 1.405 . S
C44 H70 0.930 . S
C45 C40 1.479 . S
C45 C44 1.405 . S
C45 H71 0.931 . S
U46 O47 2.454 . S
U46 O48 2.458 . S
U46 C49 2.984 . S
U46 C50 2.847 . S
U46 C63 2.882 . S
U46 O64 2.441 . S
U46 O65 2.420 . S
U46 O66 2.455 . S
U46 O67 2.449 . S
O47 U46 2.454 . S
O47 C49 1.353 . S
O48 U46 2.458 . S
O48 C49 1.286 . S
C49 U46 2.984 . S
C49 O47 1.353 . S
C49 O48 1.286 . S
C49 C51 1.363 . S
C50 C40 1.465 . S
C50 U46 2.847 . S
C50 O64 1.249 . S
C50 O65 1.202 . S
C51 C49 1.363 . S
C51 C53 1.408 . S
C51 C56 1.342 . S
C52 C53 1.310 . S
C52 C55 1.461 . S
C52 H72 0.932 . S
C53 C51 1.408 . S
C53 C52 1.310 . S
C53 H73 0.930 . S
C54 C55 1.474 . S
C54 C56 1.285 . S
C54 H74 0.929 . S
C55 C52 1.461 . S
C55 C54 1.474 . S
C56 C51 1.342 . S
C56 C54 1.285 . S
C56 H75 0.930 . S
C57 C60 1.424 . S
C57 C62 1.245 1_554 S
C57 C63 1.428 . S
C58 C61 1.260 . S
C58 C62 1.477 . S
C58 H76 0.932 . S
C59 C60 1.384 . S
C59 C61 1.479 1_554 S
C59 H77 0.929 . S
C60 C57 1.424 . S
C60 C59 1.384 . S
C60 H78 0.928 . S
C61 C58 1.260 . S
C61 C59 1.479 1_556 S
C62 C57 1.245 1_556 S
C62 C58 1.477 . S
C62 H79 0.932 . S
C63 U46 2.882 . S
C63 C57 1.428 . S
C63 O66 1.301 . S
C63 O67 1.282 . S
O64 U46 2.441 . S
O64 C50 1.249 . S
O65 U46 2.420 . S
O65 C50 1.202 . S
O66 U46 2.455 . S
O66 C63 1.301 . S
O67 U46 2.449 . S
O67 C63 1.282 . S
H68 C41 0.931 . S
H69 C43 0.929 . S
H70 C44 0.930 . S
H71 C45 0.931 . S
H72 C52 0.932 . S
H73 C53 0.930 . S
H74 C54 0.929 . S
H75 C56 0.930 . S
H76 C58 0.932 . S
H77 C59 0.929 . S
H78 C60 0.928 . S
H79 C62 0.932 . S
C80 C81 1.264 . S
C80 C85 1.479 . S
C80 C90 1.465 . S
C81 C80 1.264 . S
C81 C83 1.339 . S
C81 H108 0.931 . S
C82 C83 1.395 . S
C82 C84 1.320 . S
C83 C81 1.339 . S
C83 C82 1.395 . S
C83 H109 0.929 . S
C84 C82 1.320 . S
C84 C85 1.405 . S
C84 H110 0.930 . S
C85 C80 1.479 . S
C85 C84 1.405 . S
C85 H111 0.931 . S
U86 O87 2.454 . S
U86 O88 2.458 . S
U86 C89 2.984 . S
U86 C90 2.847 . S
U86 C103 2.882 . S
U86 O104 2.441 . S
U86 O105 2.420 . S
U86 O106 2.455 . S
U86 O107 2.449 . S
O87 U86 2.454 . S
O87 C89 1.353 . S
O88 U86 2.458 . S
O88 C89 1.286 . S
C89 U86 2.984 . S
C89 O87 1.353 . S
C89 O88 1.286 . S
C89 C91 1.363 . S
C90 C80 1.465 . S
C90 U86 2.847 . S
C90 O104 1.249 . S
C90 O105 1.202 . S
C91 C89 1.363 . S
C91 C93 1.408 . S
C91 C96 1.342 . S
C92 C93 1.310 . S
C92 C95 1.461 . S
C92 H112 0.932 . S
C93 C91 1.408 . S
C93 C92 1.310 . S
C93 H113 0.930 . S
C94 C95 1.474 . S
C94 C96 1.285 . S
C94 H114 0.929 . S
C95 C92 1.461 . S
C95 C94 1.474 . S
C96 C91 1.342 . S
C96 C94 1.285 . S
C96 H115 0.930 . S
C97 C100 1.424 . S
C97 C102 1.245 1_554 S
C97 C103 1.428 . S
C98 C101 1.260 . S
C98 C102 1.477 . S
C98 H116 0.932 . S
C99 C100 1.384 . S
C99 C101 1.479 1_554 S
C99 H117 0.929 . S
C100 C97 1.424 . S
C100 C99 1.384 . S
C100 H118 0.928 . S
C101 C98 1.260 . S
C101 C99 1.479 1_556 S
C102 C97 1.245 1_556 S
C102 C98 1.477 . S
C102 H119 0.932 . S
C103 U86 2.882 . S
C103 C97 1.428 . S
C103 O106 1.301 . S
C103 O107 1.282 . S
O104 U86 2.441 . S
O104 C90 1.249 . S
O105 U86 2.420 . S
O105 C90 1.202 . S
O106 U86 2.455 . S
O106 C103 1.301 . S
O107 U86 2.449 . S
O107 C103 1.282 . S
H108 C81 0.931 . S
H109 C83 0.929 . S
H110 C84 0.930 . S
H111 C85 0.931 . S
H112 C92 0.932 . S
H113 C93 0.930 . S
H114 C94 0.929 . S
H115 C96 0.930 . S
H116 C98 0.932 . S
H117 C99 0.929 . S
H118 C100 0.928 . S
H119 C102 0.932 . S
C120 C121 1.264 . S
C120 C125 1.479 . S
C120 C130 1.465 . S
C121 C120 1.264 . S
C121 C123 1.339 . S
C121 H148 0.931 . S
C122 C123 1.395 . S
C122 C124 1.320 . S
C123 C121 1.339 . S
C123 C122 1.395 . S
C123 H149 0.929 . S
C124 C122 1.320 . S
C124 C125 1.405 . S
C124 H150 0.930 . S
C125 C120 1.479 . S
C125 C124 1.405 . S
C125 H151 0.931 . S
U126 O127 2.454 . S
U126 O128 2.458 . S
U126 C129 2.984 . S
U126 C130 2.847 . S
U126 C143 2.882 . S
U126 O144 2.441 . S
U126 O145 2.420 . S
U126 O146 2.455 . S
U126 O147 2.449 . S
O127 U126 2.454 . S
O127 C129 1.353 . S
O128 U126 2.458 . S
O128 C129 1.286 . S
C129 U126 2.984 . S
C129 O127 1.353 . S
C129 O128 1.286 . S
C129 C131 1.363 . S
C130 C120 1.465 . S
C130 U126 2.847 . S
C130 O144 1.249 . S
C130 O145 1.202 . S
C131 C129 1.363 . S
C131 C133 1.408 . S
C131 C136 1.342 . S
C132 C133 1.310 . S
C132 C135 1.461 . S
C132 H152 0.932 . S
C133 C131 1.408 . S
C133 C132 1.310 . S
C133 H153 0.930 . S
C134 C135 1.474 . S
C134 C136 1.285 . S
C134 H154 0.929 . S
C135 C132 1.461 . S
C135 C134 1.474 . S
C136 C131 1.342 . S
C136 C134 1.285 . S
C136 H155 0.930 . S
C137 C140 1.424 . S
C137 C142 1.245 1_554 S
C137 C143 1.428 . S
C138 C141 1.260 . S
C138 C142 1.477 . S
C138 H156 0.932 . S
C139 C140 1.384 . S
C139 C141 1.479 1_554 S
C139 H157 0.929 . S
C140 C137 1.424 . S
C140 C139 1.384 . S
C140 H158 0.928 . S
C141 C138 1.260 . S
C141 C139 1.479 1_556 S
C142 C137 1.245 1_556 S
C142 C138 1.477 . S
C142 H159 0.932 . S
C143 U126 2.882 . S
C143 C137 1.428 . S
C143 O146 1.301 . S
C143 O147 1.282 . S
O144 U126 2.441 . S
O144 C130 1.249 . S
O145 U126 2.420 . S
O145 C130 1.202 . S
O146 U126 2.455 . S
O146 C143 1.301 . S
O147 U126 2.449 . S
O147 C143 1.282 . S
H148 C121 0.931 . S
H149 C123 0.929 . S
H150 C124 0.930 . S
H151 C125 0.931 . S
H152 C132 0.932 . S
H153 C133 0.930 . S
H154 C134 0.929 . S
H155 C136 0.930 . S
H156 C138 0.932 . S
H157 C139 0.929 . S
H158 C140 0.928 . S
H159 C142 0.932 . S
C160 C161 1.264 . S
C160 C165 1.479 . S
C160 C170 1.465 . S
C161 C160 1.264 . S
C161 C163 1.339 . S
C161 H188 0.931 . S
C162 C163 1.395 . S
C162 C164 1.320 . S
C163 C161 1.339 . S
C163 C162 1.395 . S
C163 H189 0.929 . S
C164 C162 1.320 . S
C164 C165 1.405 . S
C164 H190 0.930 . S
C165 C160 1.479 . S
C165 C164 1.405 . S
C165 H191 0.931 . S
U166 O167 2.454 1_554 S
U166 O168 2.458 . S
U166 C169 2.984 . S
U166 C170 2.847 1_554 S
U166 C183 2.882 . S
U166 O184 2.441 1_554 S
U166 O185 2.420 1_554 S
U166 O186 2.455 . S
U166 O187 2.449 . S
O167 U166 2.454 1_556 S
O167 C169 1.353 1_556 S
O168 U166 2.458 . S
O168 C169 1.286 . S
C169 U166 2.984 . S
C169 O167 1.353 1_554 S
C169 O168 1.286 . S
C169 C171 1.363 . S
C170 C160 1.465 . S
C170 U166 2.847 1_556 S
C170 O184 1.249 . S
C170 O185 1.202 . S
C171 C169 1.363 . S
C171 C173 1.408 . S
C171 C176 1.342 . S
C172 C173 1.310 . S
C172 C175 1.461 . S
C172 H192 0.932 . S
C173 C171 1.408 . S
C173 C172 1.310 . S
C173 H193 0.930 1_554 S
C174 C175 1.474 . S
C174 C176 1.285 . S
C174 H194 0.929 . S
C175 C172 1.461 . S
C175 C174 1.474 . S
C176 C171 1.342 . S
C176 C174 1.285 . S
C176 H195 0.930 . S
C177 C180 1.424 . S
C177 C182 1.245 . S
C177 C183 1.428 . S
C178 C181 1.260 . S
C178 C182 1.477 . S
C178 H196 0.932 . S
C179 C180 1.384 . S
C179 C181 1.479 . S
C179 H197 0.929 . S
C180 C177 1.424 . S
C180 C179 1.384 . S
C180 H198 0.928 . S
C181 C178 1.260 . S
C181 C179 1.479 . S
C182 C177 1.245 . S
C182 C178 1.477 . S
C182 H199 0.932 . S
C183 U166 2.882 . S
C183 C177 1.428 . S
C183 O186 1.301 . S
C183 O187 1.282 . S
O184 U166 2.441 1_556 S
O184 C170 1.249 . S
O185 U166 2.420 1_556 S
O185 C170 1.202 . S
O186 U166 2.455 . S
O186 C183 1.301 . S
O187 U166 2.449 . S
O187 C183 1.282 . S
H188 C161 0.931 . S
H189 C163 0.929 . S
H190 C164 0.930 . S
H191 C165 0.931 . S
H192 C172 0.932 . S
H193 C173 0.930 1_556 S
H194 C174 0.929 . S
H195 C176 0.930 . S
H196 C178 0.932 . S
H197 C179 0.929 . S
H198 C180 0.928 . S
H199 C182 0.932 . S
C200 C201 1.264 . S
C200 C205 1.479 . S
C200 C210 1.465 . S
C201 C200 1.264 . S
C201 C203 1.339 . S
C201 H228 0.931 . S
C202 C203 1.395 . S
C202 C204 1.320 . S
C203 C201 1.339 . S
C203 C202 1.395 . S
C203 H229 0.929 . S
C204 C202 1.320 . S
C204 C205 1.405 . S
C204 H230 0.930 . S
C205 C200 1.479 . S
C205 C204 1.405 . S
C205 H231 0.931 . S
U206 O207 2.454 1_554 S
U206 O208 2.458 . S
U206 C209 2.984 . S
U206 C210 2.847 1_554 S
U206 C223 2.882 . S
U206 O224 2.441 1_554 S
U206 O225 2.420 1_554 S
U206 O226 2.455 . S
U206 O227 2.449 . S
O207 U206 2.454 1_556 S
O207 C209 1.353 1_556 S
O208 U206 2.458 . S
O208 C209 1.286 . S
C209 U206 2.984 . S
C209 O207 1.353 1_554 S
C209 O208 1.286 . S
C209 C211 1.363 . S
C210 C200 1.465 . S
C210 U206 2.847 1_556 S
C210 O224 1.249 . S
C210 O225 1.202 . S
C211 C209 1.363 . S
C211 C213 1.408 . S
C211 C216 1.342 . S
C212 C213 1.310 . S
C212 C215 1.461 . S
C212 H232 0.932 1_554 S
C213 C211 1.408 . S
C213 C212 1.310 . S
C213 H233 0.930 1_554 S
C214 C215 1.474 . S
C214 C216 1.285 . S
C214 H234 0.929 . S
C215 C212 1.461 . S
C215 C214 1.474 . S
C216 C211 1.342 . S
C216 C214 1.285 . S
C216 H235 0.930 . S
C217 C220 1.424 . S
C217 C222 1.245 . S
C217 C223 1.428 . S
C218 C221 1.260 . S
C218 C222 1.477 . S
C218 H236 0.932 . S
C219 C220 1.384 . S
C219 C221 1.479 . S
C219 H237 0.929 . S
C220 C217 1.424 . S
C220 C219 1.384 . S
C220 H238 0.928 . S
C221 C218 1.260 . S
C221 C219 1.479 . S
C222 C217 1.245 . S
C222 C218 1.477 . S
C222 H239 0.932 . S
C223 U206 2.882 . S
C223 C217 1.428 . S
C223 O226 1.301 . S
C223 O227 1.282 . S
O224 U206 2.441 1_556 S
O224 C210 1.249 . S
O225 U206 2.420 1_556 S
O225 C210 1.202 . S
O226 U206 2.455 . S
O226 C223 1.301 . S
O227 U206 2.449 . S
O227 C223 1.282 . S
H228 C201 0.931 . S
H229 C203 0.929 . S
H230 C204 0.930 . S
H231 C205 0.931 . S
H232 C212 0.932 1_556 S
H233 C213 0.930 1_556 S
H234 C214 0.929 . S
H235 C216 0.930 . S
H236 C218 0.932 . S
H237 C219 0.929 . S
H238 C220 0.928 . S
H239 C222 0.932 . S
C240 C241 1.264 . S
C240 C245 1.479 . S
C240 C250 1.465 . S
C241 C240 1.264 . S
C241 C243 1.339 . S
C241 H268 0.931 . S
C242 C243 1.395 . S
C242 C244 1.320 . S
C243 C241 1.339 . S
C243 C242 1.395 . S
C243 H269 0.929 . S
C244 C242 1.320 . S
C244 C245 1.405 . S
C244 H270 0.930 . S
C245 C240 1.479 . S
C245 C244 1.405 . S
C245 H271 0.931 . S
U246 O247 2.454 1_554 S
U246 O248 2.458 . S
U246 C249 2.984 . S
U246 C250 2.847 1_554 S
U246 C263 2.882 . S
U246 O264 2.441 1_554 S
U246 O265 2.420 1_554 S
U246 O266 2.455 . S
U246 O267 2.449 . S
O247 U246 2.454 1_556 S
O247 C249 1.353 1_556 S
O248 U246 2.458 . S
O248 C249 1.286 . S
C249 U246 2.984 . S
C249 O247 1.353 1_554 S
C249 O248 1.286 . S
C249 C251 1.363 . S
C250 C240 1.465 . S
C250 U246 2.847 1_556 S
C250 O264 1.249 . S
C250 O265 1.202 . S
C251 C249 1.363 . S
C251 C253 1.408 . S
C251 C256 1.342 . S
C252 C253 1.310 . S
C252 C255 1.461 . S
C252 H272 0.932 1_554 S
C253 C251 1.408 . S
C253 C252 1.310 . S
C253 H273 0.930 1_554 S
C254 C255 1.474 . S
C254 C256 1.285 . S
C254 H274 0.929 . S
C255 C252 1.461 . S
C255 C254 1.474 . S
C256 C251 1.342 . S
C256 C254 1.285 . S
C256 H275 0.930 . S
C257 C260 1.424 . S
C257 C262 1.245 . S
C257 C263 1.428 . S
C258 C261 1.260 . S
C258 C262 1.477 . S
C258 H276 0.932 . S
C259 C260 1.384 . S
C259 C261 1.479 . S
C259 H277 0.929 . S
C260 C257 1.424 . S
C260 C259 1.384 . S
C260 H278 0.928 . S
C261 C258 1.260 . S
C261 C259 1.479 . S
C262 C257 1.245 . S
C262 C258 1.477 . S
C262 H279 0.932 . S
C263 U246 2.882 . S
C263 C257 1.428 . S
C263 O266 1.301 . S
C263 O267 1.282 . S
O264 U246 2.441 1_556 S
O264 C250 1.249 . S
O265 U246 2.420 1_556 S
O265 C250 1.202 . S
O266 U246 2.455 . S
O266 C263 1.301 . S
O267 U246 2.449 . S
O267 C263 1.282 . S
H268 C241 0.931 . S
H269 C243 0.929 . S
H270 C244 0.930 . S
H271 C245 0.931 . S
H272 C252 0.932 1_556 S
H273 C253 0.930 1_556 S
H274 C254 0.929 . S
H275 C256 0.930 . S
H276 C258 0.932 . S
H277 C259 0.929 . S
H278 C260 0.928 . S
H279 C262 0.932 . S
C280 C281 1.264 . S
C280 C285 1.479 . S
C280 C290 1.465 . S
C281 C280 1.264 . S
C281 C283 1.339 . S
C281 H308 0.931 . S
C282 C283 1.395 . S
C282 C284 1.320 . S
C283 C281 1.339 . S
C283 C282 1.395 . S
C283 H309 0.929 . S
C284 C282 1.320 . S
C284 C285 1.405 . S
C284 H310 0.930 . S
C285 C280 1.479 . S
C285 C284 1.405 . S
C285 H311 0.931 . S
U286 O287 2.454 1_554 S
U286 O288 2.458 . S
U286 C289 2.984 . S
U286 C290 2.847 1_554 S
U286 C303 2.882 . S
U286 O304 2.441 1_554 S
U286 O305 2.420 1_554 S
U286 O306 2.455 . S
U286 O307 2.449 . S
O287 U286 2.454 1_556 S
O287 C289 1.353 1_556 S
O288 U286 2.458 . S
O288 C289 1.286 . S
C289 U286 2.984 . S
C289 O287 1.353 1_554 S
C289 O288 1.286 . S
C289 C291 1.363 . S
C290 C280 1.465 . S
C290 U286 2.847 1_556 S
C290 O304 1.249 . S
C290 O305 1.202 . S
C291 C289 1.363 . S
C291 C293 1.408 . S
C291 C296 1.342 . S
C292 C293 1.310 . S
C292 C295 1.461 . S
C292 H312 0.932 . S
C293 C291 1.408 . S
C293 C292 1.310 . S
C293 H313 0.930 1_554 S
C294 C295 1.474 . S
C294 C296 1.285 . S
C294 H314 0.929 . S
C295 C292 1.461 . S
C295 C294 1.474 . S
C296 C291 1.342 . S
C296 C294 1.285 . S
C296 H315 0.930 . S
C297 C300 1.424 . S
C297 C302 1.245 . S
C297 C303 1.428 . S
C298 C301 1.260 . S
C298 C302 1.477 . S
C298 H316 0.932 . S
C299 C300 1.384 . S
C299 C301 1.479 . S
C299 H317 0.929 . S
C300 C297 1.424 . S
C300 C299 1.384 . S
C300 H318 0.928 . S
C301 C298 1.260 . S
C301 C299 1.479 . S
C302 C297 1.245 . S
C302 C298 1.477 . S
C302 H319 0.932 . S
C303 U286 2.882 . S
C303 C297 1.428 . S
C303 O306 1.301 . S
C303 O307 1.282 . S
O304 U286 2.441 1_556 S
O304 C290 1.249 . S
O305 U286 2.420 1_556 S
O305 C290 1.202 . S
O306 U286 2.455 . S
O306 C303 1.301 . S
O307 U286 2.449 . S
O307 C303 1.282 . S
H308 C281 0.931 . S
H309 C283 0.929 . S
H310 C284 0.930 . S
H311 C285 0.931 . S
H312 C292 0.932 . S
H313 C293 0.930 1_556 S
H314 C294 0.929 . S
H315 C296 0.930 . S
H316 C298 0.932 . S
H317 C299 0.929 . S
H318 C300 0.928 . S
H319 C302 0.932 . S
Gd320 N351 2.661 . S
Gd320 N357 2.601 . S
Gd320 O364 2.545 . S
Gd320 O365 2.606 1_655 S
Gd320 O367 2.429 . S
Gd320 O368 2.545 1_655 S
Gd320 O369 2.412 . S
Gd320 O371 2.362 1_545 S
Gd320 O372 2.324 1_655 S
Gd320 C379 2.828 . S
Gd321 N330 2.661 1_565 S
Gd321 N334 2.601 . S
Gd321 O365 2.362 1_565 S
Gd321 O366 2.324 1_455 S
Gd321 O370 2.545 . S
Gd321 O371 2.606 1_455 S
Gd321 O373 2.429 . S
Gd321 O374 2.545 . S
Gd321 O375 2.412 . S
Gd321 C388 2.828 . S
C322 C325 1.417 . S
C322 C327 1.431 . S
C322 C328 1.412 . S
C323 C326 1.437 . S
C323 C327 1.317 . S
C323 H342 0.929 . S
C324 C325 1.426 . S
C324 C326 1.413 . S
C324 N334 1.359 1_545 S
C325 C322 1.417 . S
C325 C324 1.426 . S
C325 N330 1.350 . S
C326 C323 1.437 . S
C326 C324 1.413 . S
C326 C336 1.391 1_545 S
C327 C322 1.431 . S
C327 C323 1.317 . S
C327 H338 0.930 . S
C328 C322 1.412 . S
C328 C329 1.355 . S
C328 H340 0.930 . S
C329 C328 1.355 . S
C329 C331 1.402 . S
C329 H341 0.930 1_455 S
N330 Gd321 2.661 1_545 S
N330 C325 1.350 . S
N330 C331 1.307 . S
C331 C329 1.402 . S
C331 N330 1.307 . S
C331 H332 0.930 1_455 S
H332 C331 0.930 1_655 S
C333 N334 1.334 . S
C333 C335 1.394 . S
C333 H337 0.930 . S
N334 Gd321 2.601 . S
N334 C324 1.359 1_565 S
N334 C333 1.334 . S
C335 C333 1.394 . S
C335 C336 1.359 . S
C335 H347 0.930 . S
C336 C326 1.391 1_565 S
C336 C335 1.359 . S
C336 H348 0.931 . S
H337 C333 0.930 . S
H338 C327 0.930 . S
H339 C356 0.930 . S
H340 C328 0.930 . S
H341 C329 0.930 1_655 S
H342 C323 0.929 . S
H343 C361 0.930 . S
H344 C352 0.930 . S
H345 C353 0.930 . S
H346 C377 0.929 . S
H347 C335 0.930 . S
H348 C336 0.931 . S
H349 C378 0.930 . S
H350 C359 0.930 . S
N351 Gd320 2.661 . S
N351 C355 1.350 1_545 S
N351 C356 1.307 1_645 S
C352 H344 0.930 . S
C352 C353 1.355 1_655 S
C352 C354 1.412 . S
C353 H345 0.930 . S
C353 C352 1.355 1_455 S
C353 C356 1.402 . S
C354 C352 1.412 . S
C354 C355 1.417 . S
C354 C378 1.431 . S
C355 N351 1.350 1_565 S
C355 C354 1.417 . S
C355 C358 1.426 1_565 S
C356 H339 0.930 . S
C356 N351 1.307 1_465 S
C356 C353 1.402 . S
N357 Gd320 2.601 . S
N357 C358 1.359 . S
N357 C361 1.334 . S
C358 C355 1.426 1_545 S
C358 N357 1.359 . S
C358 C362 1.413 . S
C359 H350 0.930 . S
C359 C360 1.359 . S
C359 C361 1.394 . S
C360 C359 1.359 . S
C360 C362 1.391 . S
C360 H363 0.929 . S
C361 H343 0.930 . S
C361 N357 1.334 . S
C361 C359 1.394 . S
C362 C358 1.413 . S
C362 C360 1.391 . S
C362 C377 1.437 1_545 S
H363 C360 0.929 . S
O364 Gd320 2.545 . S
O364 C379 1.258 . S
O365 Gd320 2.606 1_455 S
O365 Gd321 2.362 1_545 S
O365 C376 1.284 . S
O366 Gd321 2.324 1_655 S
O366 C386 1.254 1_565 S
O367 Gd320 2.429 . S
O367 C386 1.268 . S
O368 Gd320 2.545 1_455 S
O368 C376 1.250 . S
O369 Gd320 2.412 . S
O369 C379 1.252 . S
O370 Gd321 2.545 . S
O370 C388 1.258 . S
O371 Gd320 2.362 1_565 S
O371 Gd321 2.606 1_655 S
O371 C387 1.284 . S
O372 Gd320 2.324 1_455 S
O372 C395 1.254 . S
O373 Gd321 2.429 . S
O373 C395 1.268 1_565 S
O374 Gd321 2.545 . S
O374 C387 1.250 1_455 S
O375 Gd321 2.412 . S
O375 C388 1.252 . S
C376 O365 1.284 . S
C376 O368 1.250 . S
C377 H346 0.929 . S
C377 C362 1.437 1_565 S
C377 C378 1.317 . S
C378 H349 0.930 . S
C378 C354 1.431 . S
C378 C377 1.317 . S
C379 Gd320 2.828 . S
C379 O364 1.258 . S
C379 O369 1.252 . S
C379 C380 1.497 . S
C380 C379 1.497 . S
C380 C381 1.395 . S
C380 C382 1.380 . S
C381 C380 1.395 . S
C381 C384 1.398 . S
C381 H396 0.930 . S
C382 C380 1.380 . S
C382 C383 1.391 . S
C382 H397 0.930 1_655 S
C383 C382 1.391 . S
C383 C385 1.387 . S
C384 C381 1.398 . S
C384 C385 1.380 . S
C384 H398 0.930 . S
C385 C383 1.387 . S
C385 C384 1.380 . S
C385 H399 0.930 . S
C386 O366 1.254 1_545 S
C386 O367 1.268 . S
C387 O371 1.284 . S
C387 O374 1.250 1_655 S
C388 Gd321 2.828 . S
C388 O370 1.258 . S
C388 O375 1.252 . S
C388 C389 1.497 . S
C389 C388 1.497 . S
C389 C390 1.395 . S
C389 C391 1.380 . S
C390 C389 1.395 . S
C390 C393 1.398 . S
C390 H400 0.930 . S
C391 C389 1.380 . S
C391 C392 1.391 . S
C391 H401 0.930 1_455 S
C392 C391 1.391 . S
C392 C394 1.387 . S
C393 C390 1.398 . S
C393 C394 1.380 . S
C393 H402 0.930 . S
C394 C392 1.387 . S
C394 C393 1.380 . S
C394 H403 0.930 . S
C395 O372 1.254 . S
C395 O373 1.268 1_545 S
H396 C381 0.930 . S
H397 C382 0.930 1_455 S
H398 C384 0.930 . S
H399 C385 0.930 . S
H400 C390 0.930 . S
H401 C391 0.930 1_655 S
H402 C393 0.930 . S
H403 C394 0.930 . S
Gd404 N435 2.661 . S
Gd404 N441 2.601 . S
Gd404 O448 2.545 . S
Gd404 O449 2.606 1_565 S
Gd404 O451 2.429 . S
Gd404 O452 2.545 1_565 S
Gd404 O453 2.412 . S
Gd404 O455 2.362 . S
Gd404 O456 2.324 1_565 S
Gd404 C463 2.828 . S
Gd405 N414 2.661 . S
Gd405 N418 2.601 . S
Gd405 O449 2.362 . S
Gd405 O450 2.324 1_545 S
Gd405 O454 2.545 . S
Gd405 O455 2.606 1_545 S
Gd405 O457 2.429 . S
Gd405 O458 2.545 . S
Gd405 O459 2.412 . S
Gd405 C472 2.828 . S
C406 C409 1.417 . S
C406 C411 1.431 . S
C406 C412 1.412 . S
C407 C410 1.437 . S
C407 C411 1.317 . S
C407 H426 0.929 . S
C408 C409 1.426 . S
C408 C410 1.413 . S
C408 N418 1.359 . S
C409 C406 1.417 . S
C409 C408 1.426 . S
C409 N414 1.350 . S
C410 C407 1.437 . S
C410 C408 1.413 . S
C410 C420 1.391 . S
C411 C406 1.431 . S
C411 C407 1.317 . S
C411 H422 0.930 . S
C412 C406 1.412 . S
C412 C413 1.355 . S
C412 H424 0.930 . S
C413 C412 1.355 . S
C413 C415 1.402 . S
C413 H425 0.930 1_545 S
N414 Gd405 2.661 . S
N414 C409 1.350 . S
N414 C415 1.307 . S
C415 C413 1.402 . S
C415 N414 1.307 . S
C415 H416 0.930 1_545 S
H416 C415 0.930 1_565 S
C417 N418 1.334 . S
C417 C419 1.394 . S
C417 H421 0.930 . S
N418 Gd405 2.601 . S
N418 C408 1.359 . S
N418 C417 1.334 . S
C419 C417 1.394 . S
C419 C420 1.359 . S
C419 H431 0.930 . S
C420 C410 1.391 . S
C420 C419 1.359 . S
C420 H432 0.929 . S
H421 C417 0.930 . S
H422 C411 0.930 . S
H423 C440 0.930 . S
H424 C412 0.930 . S
H425 C413 0.930 1_565 S
H426 C407 0.929 . S
H427 C445 0.930 . S
H428 C436 0.930 . S
H429 C437 0.930 . S
H430 C461 0.929 . S
H431 C419 0.930 . S
H432 C420 0.929 . S
H433 C462 0.930 . S
H434 C443 0.930 . S
N435 Gd404 2.661 . S
N435 C439 1.350 . S
N435 C440 1.307 1_565 S
C436 H428 0.930 . S
C436 C437 1.355 1_565 S
C436 C438 1.412 . S
C437 H429 0.930 . S
C437 C436 1.355 1_545 S
C437 C440 1.402 . S
C438 C436 1.412 . S
C438 C439 1.417 . S
C438 C462 1.431 . S
C439 N435 1.350 . S
C439 C438 1.417 . S
C439 C442 1.426 . S
C440 H423 0.930 . S
C440 N435 1.307 1_545 S
C440 C437 1.402 . S
N441 Gd404 2.601 . S
N441 C442 1.359 . S
N441 C445 1.334 . S
C442 C439 1.426 . S
C442 N441 1.359 . S
C442 C446 1.413 . S
C443 H434 0.930 . S
C443 C444 1.359 . S
C443 C445 1.394 . S
C444 C443 1.359 . S
C444 C446 1.391 . S
C444 H447 0.929 . S
C445 H427 0.930 . S
C445 N441 1.334 . S
C445 C443 1.394 . S
C446 C442 1.413 . S
C446 C444 1.391 . S
C446 C461 1.437 . S
H447 C444 0.929 . S
O448 Gd404 2.545 . S
O448 C463 1.258 . S
O449 Gd404 2.606 1_545 S
O449 Gd405 2.362 . S
O449 C460 1.284 . S
O450 Gd405 2.324 1_565 S
O450 C470 1.254 . S
O451 Gd404 2.429 . S
O451 C470 1.268 . S
O452 Gd404 2.545 1_545 S
O452 C460 1.250 . S
O453 Gd404 2.412 . S
O453 C463 1.252 . S
O454 Gd405 2.545 . S
O454 C472 1.258 . S
O455 Gd404 2.362 . S
O455 Gd405 2.606 1_565 S
O455 C471 1.284 . S
O456 Gd404 2.324 1_545 S
O456 C479 1.254 . S
O457 Gd405 2.429 . S
O457 C479 1.268 . S
O458 Gd405 2.545 . S
O458 C471 1.250 1_545 S
O459 Gd405 2.412 . S
O459 C472 1.252 . S
C460 O449 1.284 . S
C460 O452 1.250 . S
C461 H430 0.929 . S
C461 C446 1.437 . S
C461 C462 1.317 . S
C462 H433 0.930 . S
C462 C438 1.431 . S
C462 C461 1.317 . S
C463 Gd404 2.828 . S
C463 O448 1.258 . S
C463 O453 1.252 . S
C463 C464 1.497 . S
C464 C463 1.497 . S
C464 C465 1.395 . S
C464 C466 1.380 . S
C465 C464 1.395 . S
C465 C468 1.398 . S
C465 H480 0.930 . S
C466 C464 1.380 . S
C466 C467 1.391 . S
C466 H481 0.930 1_565 S
C467 C466 1.391 . S
C467 C469 1.387 . S
C468 C465 1.398 . S
C468 C469 1.380 . S
C468 H482 0.930 . S
C469 C467 1.387 . S
C469 C468 1.380 . S
C469 H483 0.930 . S
C470 O450 1.254 . S
C470 O451 1.268 . S
C471 O455 1.284 . S
C471 O458 1.250 1_565 S
C472 Gd405 2.828 . S
C472 O454 1.258 . S
C472 O459 1.252 . S
C472 C473 1.497 . S
C473 C472 1.497 . S
C473 C474 1.395 . S
C473 C475 1.380 . S
C474 C473 1.395 . S
C474 C477 1.398 . S
C474 H484 0.930 . S
C475 C473 1.380 . S
C475 C476 1.391 . S
C475 H485 0.976 . S
C476 C475 1.391 . S
C476 C478 1.387 . S
C477 C474 1.398 . S
C477 C478 1.380 . S
C477 H486 0.930 . S
C478 C476 1.387 . S
C478 C477 1.380 . S
C478 H487 0.930 . S
C479 O456 1.254 . S
C479 O457 1.268 . S
H480 C465 0.930 . S
H481 C466 0.930 1_545 S
H482 C468 0.930 . S
H483 C469 0.930 . S
H484 C474 0.930 . S
H485 C475 0.976 . S
H486 C477 0.930 . S
H487 C478 0.930 . S
Gd488 N519 2.661 . S
Gd488 N525 2.601 . S
Gd488 O532 2.545 . S
Gd488 O533 2.606 . S
Gd488 O535 2.429 . S
Gd488 O536 2.545 . S
Gd488 O537 2.412 . S
Gd488 O539 2.362 . S
Gd488 O540 2.324 . S
Gd488 C547 2.828 . S
Gd489 N498 2.661 . S
Gd489 N502 2.601 . S
Gd489 O533 2.362 . S
Gd489 O534 2.324 . S
Gd489 O538 2.545 . S
Gd489 O539 2.606 . S
Gd489 O541 2.429 . S
Gd489 O542 2.545 . S
Gd489 O543 2.412 . S
Gd489 C556 2.828 . S
C490 C493 1.417 . S
C490 C495 1.431 . S
C490 C496 1.412 . S
C491 C494 1.437 . S
C491 C495 1.317 . S
C491 H510 0.929 . S
C492 C493 1.426 . S
C492 C494 1.413 . S
C492 N502 1.359 . S
C493 C490 1.417 . S
C493 C492 1.426 . S
C493 N498 1.350 . S
C494 C491 1.437 . S
C494 C492 1.413 . S
C494 C504 1.391 . S
C495 C490 1.431 . S
C495 C491 1.317 . S
C495 H506 0.930 . S
C496 C490 1.412 . S
C496 C497 1.355 . S
C496 H508 0.930 . S
C497 C496 1.355 . S
C497 C499 1.402 . S
C497 H509 0.930 . S
N498 Gd489 2.661 . S
N498 C493 1.350 . S
N498 C499 1.307 . S
C499 C497 1.402 . S
C499 N498 1.307 . S
C499 H500 0.930 . S
H500 C499 0.930 . S
C501 N502 1.334 . S
C501 C503 1.394 . S
C501 H505 0.930 . S
N502 Gd489 2.601 . S
N502 C492 1.359 . S
N502 C501 1.334 . S
C503 C501 1.394 . S
C503 C504 1.359 . S
C503 H515 0.930 . S
C504 C494 1.391 . S
C504 C503 1.359 . S
C504 H516 0.929 . S
H505 C501 0.930 . S
H506 C495 0.930 . S
H507 C524 0.930 . S
H508 C496 0.930 . S
H509 C497 0.930 . S
H510 C491 0.929 . S
H511 C529 0.930 . S
H512 C520 0.930 . S
H513 C521 0.930 . S
H514 C545 0.929 . S
H515 C503 0.930 . S
H516 C504 0.929 . S
H517 C546 0.930 . S
H518 C527 0.930 . S
N519 Gd488 2.661 . S
N519 C523 1.350 . S
N519 C524 1.307 . S
C520 H512 0.930 . S
C520 C521 1.355 . S
C520 C522 1.412 . S
C521 H513 0.930 . S
C521 C520 1.355 . S
C521 C524 1.402 . S
C522 C520 1.412 . S
C522 C523 1.417 . S
C522 C546 1.431 . S
C523 N519 1.350 . S
C523 C522 1.417 . S
C523 C526 1.426 . S
C524 H507 0.930 . S
C524 N519 1.307 . S
C524 C521 1.402 . S
N525 Gd488 2.601 . S
N525 C526 1.359 . S
N525 C529 1.334 . S
C526 C523 1.426 . S
C526 N525 1.359 . S
C526 C530 1.413 . S
C527 H518 0.930 . S
C527 C528 1.359 . S
C527 C529 1.394 . S
C528 C527 1.359 . S
C528 C530 1.391 . S
C528 H531 0.929 . S
C529 H511 0.930 . S
C529 N525 1.334 . S
C529 C527 1.394 . S
C530 C526 1.413 . S
C530 C528 1.391 . S
C530 C545 1.437 . S
H531 C528 0.929 . S
O532 Gd488 2.545 . S
O532 C547 1.258 . S
O533 Gd488 2.606 . S
O533 Gd489 2.362 . S
O533 C544 1.284 . S
O534 Gd489 2.324 . S
O534 C554 1.254 . S
O535 Gd488 2.429 . S
O535 C554 1.268 . S
O536 Gd488 2.545 . S
O536 C544 1.250 . S
O537 Gd488 2.412 . S
O537 C547 1.252 . S
O538 Gd489 2.545 . S
O538 C556 1.258 . S
O539 Gd488 2.362 . S
O539 Gd489 2.606 . S
O539 C555 1.284 . S
O540 Gd488 2.324 . S
O540 C563 1.254 . S
O541 Gd489 2.429 . S
O541 C563 1.268 . S
O542 Gd489 2.545 . S
O542 C555 1.250 . S
O543 Gd489 2.412 . S
O543 C556 1.252 . S
C544 O533 1.284 . S
C544 O536 1.250 . S
C545 H514 0.929 . S
C545 C530 1.437 . S
C545 C546 1.317 . S
C546 H517 0.930 . S
C546 C522 1.431 . S
C546 C545 1.317 . S
C547 Gd488 2.828 . S
C547 O532 1.258 . S
C547 O537 1.252 . S
C547 C548 1.497 . S
C548 C547 1.497 . S
C548 C549 1.395 . S
C548 C550 1.380 . S
C549 C548 1.395 . S
C549 C552 1.398 . S
C549 H564 0.930 . S
C550 C548 1.380 . S
C550 C551 1.391 . S
C550 H565 0.930 . S
C551 C550 1.391 . S
C551 C553 1.387 . S
C552 C549 1.398 . S
C552 C553 1.380 . S
C552 H566 0.930 . S
C553 C551 1.387 . S
C553 C552 1.380 . S
C553 H567 0.930 . S
C554 O534 1.254 . S
C554 O535 1.268 . S
C555 O539 1.284 . S
C555 O542 1.250 . S
C556 Gd489 2.828 . S
C556 O538 1.258 . S
C556 O543 1.252 . S
C556 C557 1.497 . S
C557 C556 1.497 . S
C557 C558 1.395 . S
C557 C559 1.380 . S
C558 C557 1.395 . S
C558 C561 1.398 . S
C558 H568 0.930 . S
C559 C557 1.380 . S
C559 C560 1.391 . S
C559 H569 0.930 . S
C560 C559 1.391 . S
C560 C562 1.387 . S
C561 C558 1.398 . S
C561 C562 1.380 . S
C561 H570 0.930 . S
C562 C560 1.387 . S
C562 C561 1.380 . S
C562 H571 0.930 . S
C563 O540 1.254 . S
C563 O541 1.268 . S
H564 C549 0.930 . S
H565 C550 0.930 . S
H566 C552 0.930 . S
H567 C553 0.930 . S
H568 C558 0.930 . S
H569 C559 0.930 . S
H570 C561 0.930 . S
H571 C562 0.930 . S
Gd572 N603 2.661 . S
Gd572 N609 2.601 . S
Gd572 O616 2.545 . S
Gd572 O617 2.599 1_655 S
Gd572 O619 2.429 1_655 S
Gd572 O620 2.545 . S
Gd572 O621 2.412 . S
Gd572 O623 2.362 1_655 S
Gd572 O624 2.324 . S
Gd572 C631 2.828 . S
Gd573 N582 2.661 . S
Gd573 N586 2.601 . S
Gd573 O617 2.373 . S
Gd573 O618 2.324 . S
Gd573 O622 2.545 . S
Gd573 O623 2.606 . S
Gd573 O625 2.429 1_455 S
Gd573 O626 2.545 . S
Gd573 O627 2.412 . S
Gd573 C640 2.828 . S
C574 C577 1.417 . S
C574 C579 1.431 . S
C574 C580 1.412 . S
C575 C578 1.437 . S
C575 C579 1.317 . S
C575 H594 0.929 . S
C576 C577 1.426 . S
C576 C578 1.413 . S
C576 N586 1.359 . S
C577 C574 1.417 . S
C577 C576 1.426 . S
C577 N582 1.350 . S
C578 C575 1.437 . S
C578 C576 1.413 . S
C578 C588 1.391 . S
C579 C574 1.431 . S
C579 C575 1.317 . S
C579 H590 0.930 . S
C580 C574 1.412 . S
C580 C581 1.355 . S
C580 H592 0.930 . S
C581 C580 1.355 . S
C581 C583 1.402 . S
C581 H593 0.930 . S
N582 Gd573 2.661 . S
N582 C577 1.350 . S
N582 C583 1.307 . S
C583 C581 1.402 . S
C583 N582 1.307 . S
C583 H584 0.930 . S
H584 C583 0.930 . S
C585 N586 1.334 . S
C585 C587 1.394 . S
C585 H589 0.930 1_455 S
N586 Gd573 2.601 . S
N586 C576 1.359 . S
N586 C585 1.334 . S
C587 C585 1.394 . S
C587 C588 1.359 . S
C587 H599 0.930 1_455 S
C588 C578 1.391 . S
C588 C587 1.359 . S
C588 H600 0.929 . S
H589 C585 0.930 1_655 S
H590 C579 0.930 . S
H591 C608 0.930 . S
H592 C580 0.930 . S
H593 C581 0.930 . S
H594 C575 0.929 . S
H595 C613 0.930 . S
H596 C604 0.930 . S
H597 C605 0.930 . S
H598 C629 0.929 . S
H599 C587 0.930 1_655 S
H600 C588 0.929 . S
H601 C630 0.930 . S
H602 C611 0.930 . S
N603 Gd572 2.661 . S
N603 C607 1.350 . S
N603 C608 1.307 . S
C604 H596 0.930 . S
C604 C605 1.355 . S
C604 C606 1.412 . S
C605 H597 0.930 . S
C605 C604 1.355 . S
C605 C608 1.402 . S
C606 C604 1.412 . S
C606 C607 1.417 . S
C606 C630 1.431 . S
C607 N603 1.350 . S
C607 C606 1.417 . S
C607 C610 1.426 . S
C608 H591 0.930 . S
C608 N603 1.307 . S
C608 C605 1.402 . S
N609 Gd572 2.601 . S
N609 C610 1.359 . S
N609 C613 1.334 1_655 S
C610 C607 1.426 . S
C610 N609 1.359 . S
C610 C614 1.413 . S
C611 H602 0.930 . S
C611 C612 1.359 1_455 S
C611 C613 1.394 . S
C612 C611 1.359 1_655 S
C612 C614 1.391 . S
C612 H615 0.929 . S
C613 H595 0.930 . S
C613 N609 1.334 1_455 S
C613 C611 1.394 . S
C614 C610 1.413 . S
C614 C612 1.391 . S
C614 C629 1.437 . S
H615 C612 0.929 . S
O616 Gd572 2.545 . S
O616 C631 1.258 . S
O617 Gd572 2.599 1_455 S
O617 Gd573 2.373 . S
O617 C628 1.276 1_455 S
O618 Gd573 2.324 . S
O618 C638 1.254 . S
O619 Gd572 2.429 1_455 S
O619 C638 1.268 . S
O620 Gd572 2.545 . S
O620 C628 1.250 . S
O621 Gd572 2.412 . S
O621 C631 1.252 . S
O622 Gd573 2.545 . S
O622 C640 1.258 . S
O623 Gd572 2.362 1_455 S
O623 Gd573 2.606 . S
O623 C639 1.284 . S
O624 Gd572 2.324 . S
O624 C647 1.254 . S
O625 Gd573 2.429 1_655 S
O625 C647 1.268 . S
O626 Gd573 2.545 . S
O626 C639 1.250 . S
O627 Gd573 2.412 . S
O627 C640 1.252 . S
C628 O617 1.276 1_655 S
C628 O620 1.250 . S
C629 H598 0.929 . S
C629 C614 1.437 . S
C629 C630 1.317 . S
C630 H601 0.930 . S
C630 C606 1.431 . S
C630 C629 1.317 . S
C631 Gd572 2.828 . S
C631 O616 1.258 . S
C631 O621 1.252 . S
C631 C632 1.497 . S
C632 C631 1.497 . S
C632 C633 1.395 . S
C632 C634 1.380 . S
C633 C632 1.395 . S
C633 C636 1.398 . S
C633 H648 0.930 . S
C634 C632 1.380 . S
C634 C635 1.391 . S
C634 H649 0.930 . S
C635 C634 1.391 . S
C635 C637 1.387 . S
C636 C633 1.398 . S
C636 C637 1.380 . S
C636 H650 0.930 . S
C637 C635 1.387 . S
C637 C636 1.380 . S
C637 H651 0.930 . S
C638 O618 1.254 . S
C638 O619 1.268 . S
C639 O623 1.284 . S
C639 O626 1.250 . S
C640 Gd573 2.828 . S
C640 O622 1.258 . S
C640 O627 1.252 . S
C640 C641 1.497 . S
C641 C640 1.497 . S
C641 C642 1.395 . S
C641 C643 1.380 . S
C642 C641 1.395 . S
C642 C645 1.398 . S
C642 H652 0.930 . S
C643 C641 1.380 . S
C643 C644 1.391 . S
C643 H653 0.930 . S
C644 C643 1.391 . S
C644 C646 1.387 . S
C645 C642 1.398 . S
C645 C646 1.380 . S
C645 H654 0.930 . S
C646 C644 1.387 . S
C646 C645 1.380 . S
C646 H655 0.930 . S
C647 O624 1.254 . S
C647 O625 1.268 . S
H648 C633 0.930 . S
H649 C634 0.930 . S
H650 C636 0.930 . S
H651 C637 0.930 . S
H652 C642 0.930 . S
H653 C643 0.930 . S
H654 C645 0.930 . S
H655 C646 0.930 . S
C656 C657 1.391 . S
C656 C658 1.394 . S
C656 H672 0.931 . S
C657 C656 1.391 . S
C657 C661 1.376 . S
C658 C656 1.394 . S
C658 C659 1.369 . S
C658 C662 1.531 . S
C659 C658 1.369 . S
C659 C660 1.410 . S
C659 C667 1.503 . S
C660 C659 1.410 . S
C660 C661 1.392 . S
C660 C663 1.511 . S
C661 C657 1.376 . S
C661 C660 1.392 . S
C661 H673 0.929 . S
C662 C658 1.531 . S
C662 H674 0.960 . S
C662 H675 0.962 . S
C662 H676 0.960 . S
C663 C660 1.511 . S
C663 H677 0.961 . S
C663 H678 0.961 . S
C663 H679 0.961 . S
C664 C665 1.370 . S
C664 C666 1.363 . S
C664 H680 0.931 1_545 S
C665 C664 1.370 . S
C665 C669 1.408 . S
C666 C664 1.363 . S
C666 C667 1.370 . S
C666 C670 1.524 . S
C667 C659 1.503 . S
C667 C666 1.370 . S
C667 C668 1.403 . S
C668 C667 1.403 . S
C668 C669 1.404 . S
C668 C671 1.539 . S
C669 C665 1.408 . S
C669 C668 1.404 . S
C669 H681 0.930 . S
C670 C666 1.524 . S
C670 H682 0.956 . S
C670 H683 0.961 . S
C670 H684 0.961 1_545 S
C671 C668 1.539 . S
C671 H685 0.958 . S
C671 H686 0.961 . S
C671 H687 0.960 . S
H672 C656 0.931 . S
H673 C661 0.929 . S
H674 C662 0.960 . S
H675 C662 0.962 . S
H676 C662 0.960 . S
H677 C663 0.961 . S
H678 C663 0.961 . S
H679 C663 0.961 . S
H680 C664 0.931 1_565 S
H681 C669 0.930 . S
H682 C670 0.956 . S
H683 C670 0.961 . S
H684 C670 0.961 1_565 S
H685 C671 0.958 . S
H686 C671 0.961 . S
H687 C671 0.960 . S
C688 C689 1.391 . S
C688 C690 1.394 . S
C688 H704 0.931 . S
C689 C688 1.391 . S
C689 C693 1.376 . S
C690 C688 1.394 . S
C690 C691 1.369 . S
C690 C694 1.531 . S
C691 C690 1.369 . S
C691 C692 1.410 . S
C691 C699 1.503 . S
C692 C691 1.410 . S
C692 C693 1.392 . S
C692 C695 1.511 . S
C693 C689 1.376 . S
C693 C692 1.392 . S
C693 H705 0.929 . S
C694 C690 1.531 . S
C694 H706 0.960 . S
C694 H707 0.962 . S
C694 H708 0.960 . S
C695 C692 1.511 . S
C695 H709 0.961 . S
C695 H710 0.961 . S
C695 H711 0.961 . S
C696 C697 1.370 . S
C696 C698 1.363 . S
C696 H712 0.931 . S
C697 C696 1.370 . S
C697 C701 1.408 . S
C698 C696 1.363 . S
C698 C699 1.370 . S
C698 C702 1.524 . S
C699 C691 1.503 . S
C699 C698 1.370 . S
C699 C700 1.403 . S
C700 C699 1.403 . S
C700 C701 1.404 . S
C700 C703 1.539 . S
C701 C697 1.408 . S
C701 C700 1.404 . S
C701 H713 0.930 . S
C702 C698 1.524 . S
C702 H714 0.956 . S
C702 H715 0.961 . S
C702 H716 0.961 . S
C703 C700 1.539 . S
C703 H717 0.958 . S
C703 H718 0.961 . S
C703 H719 0.960 . S
H704 C688 0.931 . S
H705 C693 0.929 . S
H706 C694 0.960 . S
H707 C694 0.962 . S
H708 C694 0.960 . S
H709 C695 0.961 . S
H710 C695 0.961 . S
H711 C695 0.961 . S
H712 C696 0.931 . S
H713 C701 0.930 . S
H714 C702 0.956 . S
H715 C702 0.961 . S
H716 C702 0.961 . S
H717 C703 0.958 . S
H718 C703 0.961 . S
H719 C703 0.960 . S
C720 C721 1.391 . S
C720 C722 1.394 . S
C720 H736 0.931 . S
C721 C720 1.391 . S
C721 C725 1.376 . S
C722 C720 1.394 . S
C722 C723 1.369 . S
C722 C726 1.531 . S
C723 C722 1.369 . S
C723 C724 1.410 . S
C723 C731 1.503 . S
C724 C723 1.410 . S
C724 C725 1.392 . S
C724 C727 1.511 . S
C725 C721 1.376 . S
C725 C724 1.392 . S
C725 H737 0.929 . S
C726 C722 1.531 . S
C726 H738 0.960 . S
C726 H739 0.962 . S
C726 H740 0.960 . S
C727 C724 1.511 . S
C727 H741 0.961 . S
C727 H742 0.961 . S
C727 H743 0.961 . S
C728 C729 1.370 . S
C728 C730 1.363 . S
C728 H744 0.931 . S
C729 C728 1.370 . S
C729 C733 1.408 . S
C730 C728 1.363 . S
C730 C731 1.370 . S
C730 C734 1.524 . S
C731 C723 1.503 . S
C731 C730 1.370 . S
C731 C732 1.403 . S
C732 C731 1.403 . S
C732 C733 1.404 . S
C732 C735 1.539 . S
C733 C729 1.408 . S
C733 C732 1.404 . S
C733 H745 0.930 . S
C734 C730 1.524 . S
C734 H746 0.956 . S
C734 H747 0.961 . S
C734 H748 0.961 . S
C735 C732 1.539 . S
C735 H749 0.958 . S
C735 H750 0.961 . S
C735 H751 0.960 . S
H736 C720 0.931 . S
H737 C725 0.929 . S
H738 C726 0.960 . S
H739 C726 0.962 . S
H740 C726 0.960 . S
H741 C727 0.961 . S
H742 C727 0.961 . S
H743 C727 0.961 . S
H744 C728 0.931 . S
H745 C733 0.930 . S
H746 C734 0.956 . S
H747 C734 0.961 . S
H748 C734 0.961 . S
H749 C735 0.958 . S
H750 C735 0.961 . S
H751 C735 0.960 . S
C752 C753 1.391 . S
C752 C754 1.394 . S
C752 H768 0.931 . S
C753 C752 1.391 . S
C753 C757 1.376 . S
C754 C752 1.394 . S
C754 C755 1.369 . S
C754 C758 1.531 . S
C755 C754 1.369 . S
C755 C756 1.410 . S
C755 C763 1.503 . S
C756 C755 1.410 . S
C756 C757 1.392 . S
C756 C759 1.511 . S
C757 C753 1.376 . S
C757 C756 1.392 . S
C757 H769 0.929 . S
C758 C754 1.531 . S
C758 H770 0.960 . S
C758 H771 0.962 . S
C758 H772 0.960 . S
C759 C756 1.511 . S
C759 H773 0.961 . S
C759 H774 0.961 . S
C759 H775 0.961 . S
C760 C761 1.370 . S
C760 C762 1.363 . S
C760 H776 0.938 . S
C761 C760 1.370 . S
C761 C765 1.408 . S
C762 C760 1.363 . S
C762 C763 1.370 . S
C762 C766 1.524 . S
C763 C755 1.503 . S
C763 C762 1.370 . S
C763 C764 1.403 . S
C764 C763 1.403 . S
C764 C765 1.404 . S
C764 C767 1.539 . S
C765 C761 1.408 . S
C765 C764 1.404 . S
C765 H777 0.930 . S
C766 C762 1.524 . S
C766 H778 0.956 . S
C766 H779 0.961 . S
C766 H780 0.961 1_455 S
C767 C764 1.539 . S
C767 H781 0.958 . S
C767 H782 0.961 . S
C767 H783 0.960 . S
H768 C752 0.931 . S
H769 C757 0.929 . S
H770 C758 0.960 . S
H771 C758 0.962 . S
H772 C758 0.960 . S
H773 C759 0.961 . S
H774 C759 0.961 . S
H775 C759 0.961 . S
H776 C760 0.938 . S
H777 C765 0.930 . S
H778 C766 0.956 . S
H779 C766 0.961 . S
H780 C766 0.961 1_655 S
H781 C767 0.958 . S
H782 C767 0.961 . S
H783 C767 0.960 . S
C784 C785 1.391 1_556 S
C784 C786 1.394 . S
C784 H800 0.931 1_556 S
C785 C784 1.391 1_554 S
C785 C789 1.376 1_554 S
C786 C784 1.394 . S
C786 C787 1.369 . S
C786 C790 1.531 . S
C787 C786 1.369 . S
C787 C788 1.410 . S
C787 C795 1.503 . S
C788 C787 1.410 . S
C788 C789 1.392 . S
C788 C791 1.511 . S
C789 C785 1.376 1_556 S
C789 C788 1.392 . S
C789 H801 0.929 1_556 S
C790 C786 1.531 . S
C790 H802 0.960 . S
C790 H803 0.962 . S
C790 H804 0.960 . S
C791 C788 1.511 . S
C791 H805 0.972 . S
C791 H806 0.961 . S
C791 H807 0.961 . S
C792 C793 1.370 . S
C792 C794 1.363 . S
C792 H808 0.931 1_565 S
C793 C792 1.370 . S
C793 C797 1.408 . S
C794 C792 1.363 . S
C794 C795 1.370 . S
C794 C798 1.524 . S
C795 C787 1.503 . S
C795 C794 1.370 . S
C795 C796 1.403 . S
C796 C795 1.403 . S
C796 C797 1.404 . S
C796 C799 1.539 . S
C797 C793 1.408 . S
C797 C796 1.404 . S
C797 H809 0.930 . S
C798 C794 1.524 . S
C798 H810 0.956 . S
C798 H811 0.961 . S
C798 H812 0.961 1_565 S
C799 C796 1.539 . S
C799 H813 0.958 . S
C799 H814 0.961 . S
C799 H815 0.960 . S
H800 C784 0.931 1_554 S
H801 C789 0.929 1_554 S
H802 C790 0.960 . S
H803 C790 0.962 . S
H804 C790 0.960 . S
H805 C791 0.972 . S
H806 C791 0.961 . S
H807 C791 0.961 . S
H808 C792 0.931 1_545 S
H809 C797 0.930 . S
H810 C798 0.956 . S
H811 C798 0.961 . S
H812 C798 0.961 1_545 S
H813 C799 0.958 . S
H814 C799 0.961 . S
H815 C799 0.960 . S
C816 C817 1.391 1_556 S
C816 C818 1.394 . S
C816 H832 0.931 . S
C817 C816 1.391 1_554 S
C817 C821 1.376 . S
C818 C816 1.394 . S
C818 C819 1.369 . S
C818 C822 1.531 . S
C819 C818 1.369 . S
C819 C820 1.410 . S
C819 C827 1.503 . S
C820 C819 1.410 . S
C820 C821 1.392 1_556 S
C820 C823 1.511 . S
C821 C817 1.376 . S
C821 C820 1.392 1_554 S
C821 H833 0.929 . S
C822 C818 1.531 . S
C822 H834 0.960 . S
C822 H835 0.962 . S
C822 H836 0.960 . S
C823 C820 1.511 . S
C823 H837 0.961 . S
C823 H838 0.961 . S
C823 H839 0.961 . S
C824 C825 1.370 . S
C824 C826 1.363 . S
C824 H840 0.931 . S
C825 C824 1.370 . S
C825 C829 1.408 . S
C826 C824 1.363 . S
C826 C827 1.370 . S
C826 C830 1.524 . S
C827 C819 1.503 . S
C827 C826 1.370 . S
C827 C828 1.403 . S
C828 C827 1.403 . S
C828 C829 1.404 . S
C828 C831 1.539 . S
C829 C825 1.408 . S
C829 C828 1.404 . S
C829 H841 0.930 . S
C830 C826 1.524 . S
C830 H842 0.956 . S
C830 H843 0.961 . S
C830 H844 0.961 . S
C831 C828 1.539 . S
C831 H845 0.958 . S
C831 H846 0.961 . S
C831 H847 0.960 . S
H832 C816 0.931 . S
H833 C821 0.929 . S
H834 C822 0.960 . S
H835 C822 0.962 . S
H836 C822 0.960 . S
H837 C823 0.961 . S
H838 C823 0.961 . S
H839 C823 0.961 . S
H840 C824 0.931 . S
H841 C829 0.930 . S
H842 C830 0.956 . S
H843 C830 0.961 . S
H844 C830 0.961 . S
H845 C831 0.958 . S
H846 C831 0.961 . S
H847 C831 0.960 . S
C848 C849 1.391 1_556 S
C848 C850 1.394 . S
C848 H864 0.931 . S
C849 C848 1.391 1_554 S
C849 C853 1.376 . S
C850 C848 1.394 . S
C850 C851 1.369 . S
C850 C854 1.531 . S
C851 C850 1.369 . S
C851 C852 1.410 . S
C851 C859 1.503 . S
C852 C851 1.410 . S
C852 C853 1.392 1_556 S
C852 C855 1.511 . S
C853 C849 1.376 . S
C853 C852 1.392 1_554 S
C853 H865 0.929 . S
C854 C850 1.531 . S
C854 H866 0.960 . S
C854 H867 0.962 . S
C854 H868 0.960 . S
C855 C852 1.511 . S
C855 H869 0.961 . S
C855 H870 0.961 . S
C855 H871 0.961 . S
C856 C857 1.370 . S
C856 C858 1.363 . S
C856 H872 0.931 . S
C857 C856 1.370 . S
C857 C861 1.408 . S
C858 C856 1.363 . S
C858 C859 1.370 . S
C858 C862 1.524 . S
C859 C851 1.503 . S
C859 C858 1.370 . S
C859 C860 1.403 . S
C860 C859 1.403 . S
C860 C861 1.404 . S
C860 C863 1.539 . S
C861 C857 1.408 . S
C861 C860 1.404 . S
C861 H873 0.930 . S
C862 C858 1.524 . S
C862 H874 0.956 . S
C862 H875 0.961 . S
C862 H876 0.961 . S
C863 C860 1.539 . S
C863 H877 0.958 . S
C863 H878 0.961 . S
C863 H879 0.960 . S
H864 C848 0.931 . S
H865 C853 0.929 . S
H866 C854 0.960 . S
H867 C854 0.962 . S
H868 C854 0.960 . S
H869 C855 0.961 . S
H870 C855 0.961 . S
H871 C855 0.961 . S
H872 C856 0.931 . S
H873 C861 0.930 . S
H874 C862 0.956 . S
H875 C862 0.961 . S
H876 C862 0.961 . S
H877 C863 0.958 . S
H878 C863 0.961 . S
H879 C863 0.960 . S
C880 C881 1.391 . S
C880 C882 1.394 1_554 S
C880 H896 0.931 . S
C881 C880 1.391 . S
C881 C885 1.376 1_554 S
C882 C880 1.394 1_556 S
C882 C883 1.369 . S
C882 C886 1.531 . S
C883 C882 1.369 . S
C883 C884 1.410 . S
C883 C891 1.503 . S
C884 C883 1.410 . S
C884 C885 1.392 . S
C884 C887 1.511 . S
C885 C881 1.376 1_556 S
C885 C884 1.392 . S
C885 H897 0.929 . S
C886 C882 1.531 . S
C886 H898 0.960 . S
C886 H899 0.962 . S
C886 H900 0.960 . S
C887 C884 1.511 . S
C887 H901 0.961 . S
C887 H902 0.961 . S
C887 H903 0.961 . S
C888 C889 1.370 . S
C888 C890 1.363 . S
C888 H904 0.931 1_655 S
C889 C888 1.370 . S
C889 C893 1.408 . S
C890 C888 1.363 . S
C890 C891 1.370 . S
C890 C894 1.534 . S
C891 C883 1.503 . S
C891 C890 1.370 . S
C891 C892 1.403 . S
C892 C891 1.403 . S
C892 C893 1.404 . S
C892 C895 1.539 . S
C893 C889 1.408 . S
C893 C892 1.404 . S
C893 H905 0.930 . S
C894 C890 1.534 . S
C894 H906 0.958 . S
C894 H907 0.964 . S
C894 H908 0.945 1_655 S
C895 C892 1.539 . S
C895 H909 0.958 . S
C895 H910 0.961 . S
C895 H911 0.960 . S
H896 C880 0.931 . S
H897 C885 0.929 . S
H898 C886 0.960 . S
H899 C886 0.962 . S
H900 C886 0.960 . S
H901 C887 0.961 . S
H902 C887 0.961 . S
H903 C887 0.961 . S
H904 C888 0.931 1_455 S
H905 C893 0.930 . S
H906 C894 0.958 . S
H907 C894 0.964 . S
H908 C894 0.945 1_455 S
H909 C895 0.958 . S
H910 C895 0.961 . S
H911 C895 0.960 . S
C912 C913 1.391 . S
C912 C914 1.394 . S
C912 H928 0.931 . S
C913 C912 1.391 . S
C913 C917 1.376 . S
C914 C912 1.394 . S
C914 C915 1.369 . S
C914 C918 1.531 . S
C915 C914 1.369 . S
C915 C916 1.410 . S
C915 C923 1.503 . S
C916 C915 1.410 . S
C916 C917 1.392 . S
C916 C919 1.511 . S
C917 C913 1.376 . S
C917 C916 1.392 . S
C917 H929 0.929 . S
C918 C914 1.531 . S
C918 H930 0.960 . S
C918 H931 0.962 . S
C918 H932 0.960 . S
C919 C916 1.511 . S
C919 H933 0.961 . S
C919 H934 0.961 . S
C919 H935 0.961 . S
C920 C921 1.370 . S
C920 C922 1.363 . S
C920 H936 0.931 1_455 S
C921 C920 1.370 . S
C921 C925 1.408 . S
C922 C920 1.363 . S
C922 C923 1.370 . S
C922 C926 1.524 . S
C923 C915 1.503 . S
C923 C922 1.370 . S
C923 C924 1.403 . S
C924 C923 1.403 . S
C924 C925 1.404 . S
C924 C927 1.539 . S
C925 C921 1.408 . S
C925 C924 1.404 . S
C925 H937 0.930 . S
C926 C922 1.524 . S
C926 H938 0.956 . S
C926 H939 0.961 . S
C926 H940 0.961 1_455 S
C927 C924 1.539 . S
C927 H941 0.958 . S
C927 H942 0.961 . S
C927 H943 0.960 . S
H928 C912 0.931 . S
H929 C917 0.929 . S
H930 C918 0.960 . S
H931 C918 0.962 . S
H932 C918 0.960 . S
H933 C919 0.961 . S
H934 C919 0.961 . S
H935 C919 0.961 . S
H936 C920 0.931 1_655 S
H937 C925 0.930 . S
H938 C926 0.956 . S
H939 C926 0.961 . S
H940 C926 0.961 1_655 S
H941 C927 0.958 . S
H942 C927 0.961 . S
H943 C927 0.960 . S
C944 C945 1.391 . S
C944 C946 1.394 . S
C944 H960 0.931 . S
C945 C944 1.391 . S
C945 C949 1.376 . S
C946 C944 1.394 . S
C946 C947 1.369 . S
C946 C950 1.531 . S
C947 C946 1.369 . S
C947 C948 1.410 . S
C947 C955 1.503 . S
C948 C947 1.410 . S
C948 C949 1.392 . S
C948 C951 1.511 . S
C949 C945 1.376 . S
C949 C948 1.392 . S
C949 H961 0.929 . S
C950 C946 1.531 . S
C950 H962 0.960 . S
C950 H963 0.962 . S
C950 H964 0.960 . S
C951 C948 1.511 . S
C951 H965 0.961 . S
C951 H966 0.961 . S
C951 H967 0.961 . S
C952 C953 1.370 . S
C952 C954 1.363 . S
C952 H968 0.931 . S
C953 C952 1.370 . S
C953 C957 1.408 . S
C954 C952 1.363 . S
C954 C955 1.370 . S
C954 C958 1.524 . S
C955 C947 1.503 . S
C955 C954 1.370 . S
C955 C956 1.403 . S
C956 C955 1.403 . S
C956 C957 1.404 . S
C956 C959 1.539 . S
C957 C953 1.408 . S
C957 C956 1.404 . S
C957 H969 0.944 . S
C958 C954 1.524 . S
C958 H970 0.956 . S
C958 H971 0.961 . S
C958 H972 0.961 . S
C959 C956 1.539 . S
C959 H973 0.958 . S
C959 H974 0.961 . S
C959 H975 0.960 . S
H960 C944 0.931 . S
H961 C949 0.929 . S
H962 C950 0.960 . S
H963 C950 0.962 . S
H964 C950 0.960 . S
H965 C951 0.961 . S
H966 C951 0.961 . S
H967 C951 0.961 . S
H968 C952 0.931 . S
H969 C957 0.944 . S
H970 C958 0.956 . S
H971 C958 0.961 . S
H972 C958 0.961 . S
H973 C959 0.958 . S
H974 C959 0.961 . S
H975 C959 0.960 . S
C976 C977 1.391 . S
C976 C978 1.394 . S
C976 H992 0.931 . S
C977 C976 1.391 . S
C977 C981 1.376 . S
C978 C976 1.394 . S
C978 C979 1.369 . S
C978 C982 1.531 . S
C979 C978 1.369 . S
C979 C980 1.410 . S
C979 C987 1.503 . S
C980 C979 1.410 . S
C980 C981 1.392 . S
C980 C983 1.511 . S
C981 C977 1.376 . S
C981 C980 1.392 . S
C981 H993 0.929 . S
C982 C978 1.531 . S
C982 H994 0.960 . S
C982 H995 0.962 . S
C982 H996 0.960 . S
C983 C980 1.511 . S
C983 H997 0.961 . S
C983 H998 0.961 . S
C983 H999 0.961 . S
C984 C985 1.370 . S
C984 C986 1.363 . S
C984 H1000 0.931 . S
C985 C984 1.370 . S
C985 C989 1.408 . S
C986 C984 1.363 . S
C986 C987 1.370 . S
C986 C990 1.524 . S
C987 C979 1.503 . S
C987 C986 1.370 . S
C987 C988 1.403 . S
C988 C987 1.403 . S
C988 C989 1.404 . S
C988 C991 1.539 . S
C989 C985 1.408 . S
C989 C988 1.404 . S
C989 H1001 0.930 . S
C990 C986 1.524 . S
C990 H1002 0.956 . S
C990 H1003 0.961 . S
C990 H1004 0.961 . S
C991 C988 1.539 . S
C991 H1005 0.958 . S
C991 H1006 0.961 . S
C991 H1007 0.960 . S
H992 C976 0.931 . S
H993 C981 0.929 . S
H994 C982 0.960 . S
H995 C982 0.962 . S
H996 C982 0.960 . S
H997 C983 0.961 . S
H998 C983 0.961 . S
H999 C983 0.961 . S
H1000 C984 0.931 . S
H1001 C989 0.930 . S
H1002 C990 0.956 . S
H1003 C990 0.961 . S
H1004 C990 0.961 . S
H1005 C991 0.958 . S
H1006 C991 0.961 . S
H1007 C991 0.960 . S
C1008 C1009 1.391 . S
C1008 C1010 1.394 . S
C1008 H1024 0.931 . S
C1009 C1008 1.391 . S
C1009 C1013 1.376 . S
C1010 C1008 1.394 . S
C1010 C1011 1.369 . S
C1010 C1014 1.531 . S
C1011 C1010 1.369 . S
C1011 C1012 1.410 . S
C1011 C1019 1.503 . S
C1012 C1011 1.410 . S
C1012 C1013 1.392 . S
C1012 C1015 1.511 . S
C1013 C1009 1.376 . S
C1013 C1012 1.392 . S
C1013 H1025 0.929 . S
C1014 C1010 1.531 . S
C1014 H1026 0.960 . S
C1014 H1027 0.962 . S
C1014 H1028 0.960 . S
C1015 C1012 1.511 . S
C1015 H1029 0.961 . S
C1015 H1030 0.961 . S
C1015 H1031 0.961 . S
C1016 C1017 1.370 . S
C1016 C1018 1.363 . S
C1016 H1032 0.931 . S
C1017 C1016 1.370 . S
C1017 C1021 1.408 . S
C1018 C1016 1.363 . S
C1018 C1019 1.370 . S
C1018 C1022 1.524 . S
C1019 C1011 1.503 . S
C1019 C1018 1.370 . S
C1019 C1020 1.403 . S
C1020 C1019 1.403 . S
C1020 C1021 1.404 . S
C1020 C1023 1.539 . S
C1021 C1017 1.408 . S
C1021 C1020 1.404 . S
C1021 H1033 0.930 . S
C1022 C1018 1.524 . S
C1022 H1034 0.956 . S
C1022 H1035 0.961 . S
C1022 H1036 0.961 . S
C1023 C1020 1.539 . S
C1023 H1037 0.958 . S
C1023 H1038 0.961 . S
C1023 H1039 0.960 . S
H1024 C1008 0.931 . S
H1025 C1013 0.929 . S
H1026 C1014 0.960 . S
H1027 C1014 0.962 . S
H1028 C1014 0.960 . S
H1029 C1015 0.961 . S
H1030 C1015 0.961 . S
H1031 C1015 0.961 . S
H1032 C1016 0.931 . S
H1033 C1021 0.930 . S
H1034 C1022 0.956 . S
H1035 C1022 0.961 . S
H1036 C1022 0.961 . S
H1037 C1023 0.958 . S
H1038 C1023 0.961 . S
H1039 C1023 0.960 . S
C1040 C1041 1.391 . S
C1040 C1042 1.394 . S
C1040 H1056 0.931 . S
C1041 C1040 1.391 . S
C1041 C1045 1.376 . S
C1042 C1040 1.394 . S
C1042 C1043 1.369 . S
C1042 C1046 1.531 . S
C1043 C1042 1.369 . S
C1043 C1044 1.410 . S
C1043 C1051 1.503 . S
C1044 C1043 1.410 . S
C1044 C1045 1.392 . S
C1044 C1047 1.511 . S
C1045 C1041 1.376 . S
C1045 C1044 1.392 . S
C1045 H1057 0.929 . S
C1046 C1042 1.531 . S
C1046 H1058 0.960 . S
C1046 H1059 0.962 . S
C1046 H1060 0.960 . S
C1047 C1044 1.511 . S
C1047 H1061 0.961 . S
C1047 H1062 0.961 . S
C1047 H1063 0.961 . S
C1048 C1049 1.370 . S
C1048 C1050 1.363 1_455 S
C1048 H1064 0.931 . S
C1049 C1048 1.370 . S
C1049 C1053 1.408 1_455 S
C1050 C1048 1.363 1_655 S
C1050 C1051 1.370 . S
C1050 C1054 1.539 . S
C1051 C1043 1.503 . S
C1051 C1050 1.370 . S
C1051 C1052 1.403 . S
C1052 C1051 1.403 . S
C1052 C1053 1.404 . S
C1052 C1055 1.539 . S
C1053 C1049 1.408 1_655 S
C1053 C1052 1.404 . S
C1053 H1065 0.930 . S
C1054 C1050 1.539 . S
C1054 H1066 0.958 . S
C1054 H1067 0.996 . S
C1054 H1068 0.911 1_655 S
C1055 C1052 1.539 . S
C1055 H1069 0.958 . S
C1055 H1070 0.961 . S
C1055 H1071 0.960 . S
H1056 C1040 0.931 . S
H1057 C1045 0.929 . S
H1058 C1046 0.960 . S
H1059 C1046 0.962 . S
H1060 C1046 0.960 . S
H1061 C1047 0.961 . S
H1062 C1047 0.961 . S
H1063 C1047 0.961 . S
H1064 C1048 0.931 . S
H1065 C1053 0.930 . S
H1066 C1054 0.958 . S
H1067 C1054 0.996 . S
H1068 C1054 0.911 1_455 S
H1069 C1055 0.958 . S
H1070 C1055 0.961 . S
H1071 C1055 0.960 . S
C1072 C1073 1.391 . S
C1072 C1074 1.394 . S
C1072 H1088 0.931 . S
C1073 C1072 1.391 . S
C1073 C1077 1.376 . S
C1074 C1072 1.394 . S
C1074 C1075 1.369 . S
C1074 C1078 1.531 . S
C1075 C1074 1.369 . S
C1075 C1076 1.410 . S
C1075 C1083 1.503 . S
C1076 C1075 1.410 . S
C1076 C1077 1.392 . S
C1076 C1079 1.511 . S
C1077 C1073 1.376 . S
C1077 C1076 1.392 . S
C1077 H1089 0.929 . S
C1078 C1074 1.531 . S
C1078 H1090 0.960 . S
C1078 H1091 0.962 . S
C1078 H1092 0.960 1_556 S
C1079 C1076 1.511 . S
C1079 H1093 0.961 . S
C1079 H1094 0.961 . S
C1079 H1095 0.972 . S
C1080 C1081 1.370 1_565 S
C1080 C1082 1.363 . S
C1080 H1096 0.931 . S
C1081 C1080 1.370 1_545 S
C1081 C1085 1.408 . S
C1082 C1080 1.363 . S
C1082 C1083 1.370 . S
C1082 C1086 1.524 . S
C1083 C1075 1.503 . S
C1083 C1082 1.370 . S
C1083 C1084 1.403 1_565 S
C1084 C1083 1.403 1_545 S
C1084 C1085 1.404 . S
C1084 C1087 1.539 . S
C1085 C1081 1.408 . S
C1085 C1084 1.404 . S
C1085 H1097 0.930 . S
C1086 C1082 1.524 . S
C1086 H1098 0.956 . S
C1086 H1099 0.961 . S
C1086 H1100 0.961 . S
C1087 C1084 1.539 . S
C1087 H1101 0.958 . S
C1087 H1102 0.961 . S
C1087 H1103 0.960 . S
H1088 C1072 0.931 . S
H1089 C1077 0.929 . S
H1090 C1078 0.960 . S
H1091 C1078 0.962 . S
H1092 C1078 0.960 1_554 S
H1093 C1079 0.961 . S
H1094 C1079 0.961 . S
H1095 C1079 0.972 . S
H1096 C1080 0.931 . S
H1097 C1085 0.930 . S
H1098 C1086 0.956 . S
H1099 C1086 0.961 . S
H1100 C1086 0.961 . S
H1101 C1087 0.958 . S
H1102 C1087 0.961 . S
H1103 C1087 0.960 . S
C1104 C1105 1.391 . S
C1104 C1106 1.394 . S
C1104 H1120 0.931 . S
C1105 C1104 1.391 . S
C1105 C1109 1.376 . S
C1106 C1104 1.394 . S
C1106 C1107 1.369 . S
C1106 C1110 1.531 . S
C1107 C1106 1.369 . S
C1107 C1108 1.410 . S
C1107 C1115 1.503 . S
C1108 C1107 1.410 . S
C1108 C1109 1.392 . S
C1108 C1111 1.511 . S
C1109 C1105 1.376 . S
C1109 C1108 1.392 . S
C1109 H1121 0.929 . S
C1110 C1106 1.531 . S
C1110 H1122 0.960 . S
C1110 H1123 0.962 . S
C1110 H1124 0.960 . S
C1111 C1108 1.511 . S
C1111 H1125 0.961 . S
C1111 H1126 0.961 . S
C1111 H1127 0.961 . S
C1112 C1113 1.370 . S
C1112 C1114 1.363 . S
C1112 H1128 0.931 . S
C1113 C1112 1.370 . S
C1113 C1117 1.408 . S
C1114 C1112 1.363 . S
C1114 C1115 1.370 . S
C1114 C1118 1.524 . S
C1115 C1107 1.503 . S
C1115 C1114 1.370 . S
C1115 C1116 1.403 . S
C1116 C1115 1.403 . S
C1116 C1117 1.404 . S
C1116 C1119 1.539 . S
C1117 C1113 1.408 . S
C1117 C1116 1.404 . S
C1117 H1129 0.930 . S
C1118 C1114 1.524 . S
C1118 H1130 0.956 . S
C1118 H1131 0.961 . S
C1118 H1132 0.961 . S
C1119 C1116 1.539 . S
C1119 H1133 0.962 . S
C1119 H1134 0.961 . S
C1119 H1135 0.960 . S
H1120 C1104 0.931 . S
H1121 C1109 0.929 . S
H1122 C1110 0.960 . S
H1123 C1110 0.962 . S
H1124 C1110 0.960 . S
H1125 C1111 0.961 . S
H1126 C1111 0.961 . S
H1127 C1111 0.961 . S
H1128 C1112 0.931 . S
H1129 C1117 0.930 . S
H1130 C1118 0.956 . S
H1131 C1118 0.961 . S
H1132 C1118 0.961 . S
H1133 C1119 0.962 . S
H1134 C1119 0.961 . S
H1135 C1119 0.960 . S
C1136 C1137 1.391 . S
C1136 C1138 1.394 . S
C1136 H1152 0.931 . S
C1137 C1136 1.391 . S
C1137 C1141 1.376 . S
C1138 C1136 1.394 . S
C1138 C1139 1.369 . S
C1138 C1142 1.531 . S
C1139 C1138 1.369 . S
C1139 C1140 1.410 . S
C1139 C1147 1.503 . S
C1140 C1139 1.410 . S
C1140 C1141 1.392 . S
C1140 C1143 1.511 . S
C1141 C1137 1.376 . S
C1141 C1140 1.392 . S
C1141 H1153 0.914 1_556 S
C1142 C1138 1.531 . S
C1142 H1154 0.960 . S
C1142 H1155 0.962 . S
C1142 H1156 0.960 . S
C1143 C1140 1.511 . S
C1143 H1157 0.961 1_556 S
C1143 H1158 0.961 . S
C1143 H1159 0.961 1_556 S
C1144 C1145 1.370 . S
C1144 C1146 1.363 . S
C1144 H1160 0.931 . S
C1145 C1144 1.370 . S
C1145 C1149 1.408 . S
C1146 C1144 1.363 . S
C1146 C1147 1.370 . S
C1146 C1150 1.524 . S
C1147 C1139 1.503 . S
C1147 C1146 1.370 . S
C1147 C1148 1.403 . S
C1148 C1147 1.403 . S
C1148 C1149 1.404 . S
C1148 C1151 1.539 . S
C1149 C1145 1.408 . S
C1149 C1148 1.404 . S
C1149 H1161 0.930 . S
C1150 C1146 1.524 . S
C1150 H1162 0.956 . S
C1150 H1163 0.961 . S
C1150 H1164 0.961 . S
C1151 C1148 1.539 . S
C1151 H1165 0.958 . S
C1151 H1166 0.961 . S
C1151 H1167 0.960 . S
H1152 C1136 0.931 . S
H1153 C1141 0.914 1_554 S
H1154 C1142 0.960 . S
H1155 C1142 0.962 . S
H1156 C1142 0.960 . S
H1157 C1143 0.961 1_554 S
H1158 C1143 0.961 . S
H1159 C1143 0.961 1_554 S
H1160 C1144 0.931 . S
H1161 C1149 0.930 . S
H1162 C1150 0.956 . S
H1163 C1150 0.961 . S
H1164 C1150 0.961 . S
H1165 C1151 0.958 . S
H1166 C1151 0.961 . S
H1167 C1151 0.960 . S
C1168 C1169 1.391 . S
C1168 C1170 1.394 . S
C1168 H1184 0.931 . S
C1169 C1168 1.391 . S
C1169 C1173 1.376 . S
C1170 C1168 1.394 . S
C1170 C1171 1.369 . S
C1170 C1174 1.531 . S
C1171 C1170 1.369 . S
C1171 C1172 1.410 . S
C1171 C1179 1.503 . S
C1172 C1171 1.410 . S
C1172 C1173 1.392 . S
C1172 C1175 1.511 . S
C1173 C1169 1.376 . S
C1173 C1172 1.392 . S
C1173 H1185 0.929 . S
C1174 C1170 1.531 . S
C1174 H1186 0.960 . S
C1174 H1187 0.962 . S
C1174 H1188 0.960 . S
C1175 C1172 1.511 . S
C1175 H1189 0.961 . S
C1175 H1190 0.961 . S
C1175 H1191 0.961 . S
C1176 C1177 1.370 . S
C1176 C1178 1.363 . S
C1176 H1192 0.931 . S
C1177 C1176 1.370 . S
C1177 C1181 1.408 . S
C1178 C1176 1.363 . S
C1178 C1179 1.370 . S
C1178 C1182 1.524 . S
C1179 C1171 1.503 . S
C1179 C1178 1.370 . S
C1179 C1180 1.403 . S
C1180 C1179 1.403 . S
C1180 C1181 1.404 . S
C1180 C1183 1.539 . S
C1181 C1177 1.408 . S
C1181 C1180 1.404 . S
C1181 H1193 0.930 . S
C1182 C1178 1.524 . S
C1182 H1194 0.956 . S
C1182 H1195 0.961 . S
C1182 H1196 0.961 . S
C1183 C1180 1.539 . S
C1183 H1197 0.958 . S
C1183 H1198 0.961 . S
C1183 H1199 0.960 . S
H1184 C1168 0.931 . S
H1185 C1173 0.929 . S
H1186 C1174 0.960 . S
H1187 C1174 0.962 . S
H1188 C1174 0.960 . S
H1189 C1175 0.961 . S
H1190 C1175 0.961 . S
H1191 C1175 0.961 . S
H1192 C1176 0.931 . S
H1193 C1181 0.930 . S
H1194 C1182 0.956 . S
H1195 C1182 0.961 . S
H1196 C1182 0.961 . S
H1197 C1183 0.958 . S
H1198 C1183 0.961 . S
H1199 C1183 0.960 . S
C1200 C1201 1.391 . S
C1200 C1202 1.394 . S
C1200 H1216 0.931 . S
C1201 C1200 1.391 . S
C1201 C1205 1.376 . S
C1202 C1200 1.394 . S
C1202 C1203 1.369 . S
C1202 C1206 1.531 . S
C1203 C1202 1.369 . S
C1203 C1204 1.410 . S
C1203 C1211 1.503 . S
C1204 C1203 1.410 . S
C1204 C1205 1.392 . S
C1204 C1207 1.511 . S
C1205 C1201 1.376 . S
C1205 C1204 1.392 . S
C1205 H1217 0.929 . S
C1206 C1202 1.531 . S
C1206 H1218 0.960 . S
C1206 H1219 0.962 . S
C1206 H1220 0.960 . S
C1207 C1204 1.511 . S
C1207 H1221 0.961 . S
C1207 H1222 0.961 . S
C1207 H1223 0.961 . S
C1208 C1209 1.370 . S
C1208 C1210 1.363 . S
C1208 H1224 0.931 . S
C1209 C1208 1.370 . S
C1209 C1213 1.408 . S
C1210 C1208 1.363 . S
C1210 C1211 1.370 . S
C1210 C1214 1.524 . S
C1211 C1203 1.503 . S
C1211 C1210 1.370 . S
C1211 C1212 1.403 . S
C1212 C1211 1.403 . S
C1212 C1213 1.404 . S
C1212 C1215 1.539 . S
C1213 C1209 1.408 . S
C1213 C1212 1.404 . S
C1213 H1225 0.930 . S
C1214 C1210 1.524 . S
C1214 H1226 0.956 . S
C1214 H1227 0.961 . S
C1214 H1228 0.961 . S
C1215 C1212 1.539 . S
C1215 H1229 0.958 . S
C1215 H1230 0.961 . S
C1215 H1231 0.960 . S
H1216 C1200 0.931 . S
H1217 C1205 0.929 . S
H1218 C1206 0.960 . S
H1219 C1206 0.962 . S
H1220 C1206 0.960 . S
H1221 C1207 0.961 . S
H1222 C1207 0.961 . S
H1223 C1207 0.961 . S
H1224 C1208 0.931 . S
H1225 C1213 0.930 . S
H1226 C1214 0.956 . S
H1227 C1214 0.961 . S
H1228 C1214 0.961 . S
H1229 C1215 0.958 . S
H1230 C1215 0.961 . S
H1231 C1215 0.960 . S
C1232 C1233 1.391 . S
C1232 C1234 1.394 . S
C1232 H1248 0.931 . S
C1233 C1232 1.391 . S
C1233 C1237 1.376 . S
C1234 C1232 1.394 . S
C1234 C1235 1.369 . S
C1234 C1238 1.531 . S
C1235 C1234 1.369 . S
C1235 C1236 1.410 . S
C1235 C1243 1.503 . S
C1236 C1235 1.410 . S
C1236 C1237 1.392 . S
C1236 C1239 1.511 . S
C1237 C1233 1.376 . S
C1237 C1236 1.392 . S
C1237 H1249 0.929 . S
C1238 C1234 1.531 . S
C1238 H1250 0.960 . S
C1238 H1251 0.962 . S
C1238 H1252 0.960 . S
C1239 C1236 1.511 . S
C1239 H1253 0.961 . S
C1239 H1254 0.961 . S
C1239 H1255 0.961 . S
C1240 C1241 1.370 . S
C1240 C1242 1.363 . S
C1240 H1256 0.931 . S
C1241 C1240 1.370 . S
C1241 C1245 1.408 . S
C1242 C1240 1.363 . S
C1242 C1243 1.370 . S
C1242 C1246 1.524 . S
C1243 C1235 1.503 . S
C1243 C1242 1.370 . S
C1243 C1244 1.403 . S
C1244 C1243 1.403 . S
C1244 C1245 1.404 . S
C1244 C1247 1.539 . S
C1245 C1241 1.408 . S
C1245 C1244 1.404 . S
C1245 H1257 0.930 . S
C1246 C1242 1.524 . S
C1246 H1258 0.956 . S
C1246 H1259 0.961 . S
C1246 H1260 0.961 . S
C1247 C1244 1.539 . S
C1247 H1261 0.958 . S
C1247 H1262 0.961 . S
C1247 H1263 0.960 . S
H1248 C1232 0.931 . S
H1249 C1237 0.929 . S
H1250 C1238 0.960 . S
H1251 C1238 0.962 . S
H1252 C1238 0.960 . S
H1253 C1239 0.961 . S
H1254 C1239 0.961 . S
H1255 C1239 0.961 . S
H1256 C1240 0.931 . S
H1257 C1245 0.930 . S
H1258 C1246 0.956 . S
H1259 C1246 0.961 . S
H1260 C1246 0.961 . S
H1261 C1247 0.958 . S
H1262 C1247 0.961 . S
H1263 C1247 0.960 . S
C1264 C1265 1.391 . S
C1264 C1266 1.394 . S
C1264 H1280 0.931 . S
C1265 C1264 1.391 . S
C1265 C1269 1.376 . S
C1266 C1264 1.394 . S
C1266 C1267 1.369 . S
C1266 C1270 1.531 . S
C1267 C1266 1.369 . S
C1267 C1268 1.410 . S
C1267 C1275 1.503 . S
C1268 C1267 1.410 . S
C1268 C1269 1.392 . S
C1268 C1271 1.511 . S
C1269 C1265 1.376 . S
C1269 C1268 1.392 . S
C1269 H1281 0.929 . S
C1270 C1266 1.531 . S
C1270 H1282 0.960 . S
C1270 H1283 0.962 . S
C1270 H1284 0.960 . S
C1271 C1268 1.511 . S
C1271 H1285 0.961 . S
C1271 H1286 0.961 . S
C1271 H1287 0.961 . S
C1272 C1273 1.370 . S
C1272 C1274 1.363 . S
C1272 H1288 0.931 . S
C1273 C1272 1.370 . S
C1273 C1277 1.408 . S
C1274 C1272 1.363 . S
C1274 C1275 1.370 . S
C1274 C1278 1.524 . S
C1275 C1267 1.503 . S
C1275 C1274 1.370 . S
C1275 C1276 1.403 . S
C1276 C1275 1.403 . S
C1276 C1277 1.404 . S
C1276 C1279 1.539 . S
C1277 C1273 1.408 . S
C1277 C1276 1.404 . S
C1277 H1289 0.930 . S
C1278 C1274 1.524 . S
C1278 H1290 0.956 . S
C1278 H1291 0.961 . S
C1278 H1292 0.961 . S
C1279 C1276 1.539 . S
C1279 H1293 0.958 . S
C1279 H1294 0.961 . S
C1279 H1295 0.960 . S
H1280 C1264 0.931 . S
H1281 C1269 0.929 . S
H1282 C1270 0.960 . S
H1283 C1270 0.962 . S
H1284 C1270 0.960 . S
H1285 C1271 0.961 . S
H1286 C1271 0.961 . S
H1287 C1271 0.961 . S
H1288 C1272 0.931 . S
H1289 C1277 0.930 . S
H1290 C1278 0.956 . S
H1291 C1278 0.961 . S
H1292 C1278 0.961 . S
H1293 C1279 0.958 . S
H1294 C1279 0.961 . S
H1295 C1279 0.960 . S
C1296 C1297 1.391 . S
C1296 C1298 1.394 . S
C1296 H1312 0.931 . S
C1297 C1296 1.391 . S
C1297 C1301 1.376 . S
C1298 C1296 1.394 . S
C1298 C1299 1.369 . S
C1298 C1302 1.531 . S
C1299 C1298 1.369 . S
C1299 C1300 1.410 . S
C1299 C1307 1.503 . S
C1300 C1299 1.410 . S
C1300 C1301 1.392 . S
C1300 C1303 1.511 . S
C1301 C1297 1.376 . S
C1301 C1300 1.392 . S
C1301 H1313 0.929 . S
C1302 C1298 1.531 . S
C1302 H1314 0.960 . S
C1302 H1315 0.962 . S
C1302 H1316 0.960 . S
C1303 C1300 1.511 . S
C1303 H1317 0.961 . S
C1303 H1318 0.961 . S
C1303 H1319 0.961 . S
C1304 C1305 1.370 . S
C1304 C1306 1.363 . S
C1304 H1320 0.931 . S
C1305 C1304 1.370 . S
C1305 C1309 1.408 . S
C1306 C1304 1.363 . S
C1306 C1307 1.370 . S
C1306 C1310 1.524 . S
C1307 C1299 1.503 . S
C1307 C1306 1.370 . S
C1307 C1308 1.403 . S
C1308 C1307 1.403 . S
C1308 C1309 1.404 . S
C1308 C1311 1.539 . S
C1309 C1305 1.408 . S
C1309 C1308 1.404 . S
C1309 H1321 0.930 . S
C1310 C1306 1.524 . S
C1310 H1322 0.956 . S
C1310 H1323 0.961 . S
C1310 H1324 0.961 . S
C1311 C1308 1.539 . S
C1311 H1325 0.958 . S
C1311 H1326 0.961 1_655 S
C1311 H1327 0.960 . S
H1312 C1296 0.931 . S
H1313 C1301 0.929 . S
H1314 C1302 0.960 . S
H1315 C1302 0.962 . S
H1316 C1302 0.960 . S
H1317 C1303 0.961 . S
H1318 C1303 0.961 . S
H1319 C1303 0.961 . S
H1320 C1304 0.931 . S
H1321 C1309 0.930 . S
H1322 C1310 0.956 . S
H1323 C1310 0.961 . S
H1324 C1310 0.961 . S
H1325 C1311 0.958 . S
H1326 C1311 0.961 1_455 S
H1327 C1311 0.960 . S
C1328 C1329 1.391 . S
C1328 C1330 1.394 . S
C1328 H1344 0.931 . S
C1329 C1328 1.391 . S
C1329 C1333 1.376 . S
C1330 C1328 1.394 . S
C1330 C1331 1.369 . S
C1330 C1334 1.531 . S
C1331 C1330 1.369 . S
C1331 C1332 1.410 . S
C1331 C1339 1.503 . S
C1332 C1331 1.410 . S
C1332 C1333 1.392 . S
C1332 C1335 1.511 . S
C1333 C1329 1.376 . S
C1333 C1332 1.392 . S
C1333 H1345 0.929 . S
C1334 C1330 1.531 . S
C1334 H1346 0.960 . S
C1334 H1347 0.926 1_565 S
C1334 H1348 0.960 . S
C1335 C1332 1.511 . S
C1335 H1349 0.961 . S
C1335 H1350 0.961 . S
C1335 H1351 0.961 . S
C1336 C1337 1.370 . S
C1336 C1338 1.363 . S
C1336 H1352 0.931 . S
C1337 C1336 1.370 . S
C1337 C1341 1.408 . S
C1338 C1336 1.363 . S
C1338 C1339 1.370 . S
C1338 C1342 1.524 . S
C1339 C1331 1.503 . S
C1339 C1338 1.370 . S
C1339 C1340 1.403 . S
C1340 C1339 1.403 . S
C1340 C1341 1.404 . S
C1340 C1343 1.539 . S
C1341 C1337 1.408 . S
C1341 C1340 1.404 . S
C1341 H1353 0.930 . S
C1342 C1338 1.524 . S
C1342 H1354 0.956 . S
C1342 H1355 0.961 . S
C1342 H1356 0.961 . S
C1343 C1340 1.539 . S
C1343 H1357 0.958 . S
C1343 H1358 0.961 . S
C1343 H1359 0.960 . S
H1344 C1328 0.931 . S
H1345 C1333 0.929 . S
H1346 C1334 0.960 . S
H1347 C1334 0.926 1_545 S
H1348 C1334 0.960 . S
H1349 C1335 0.961 . S
H1350 C1335 0.961 . S
H1351 C1335 0.961 . S
H1352 C1336 0.931 . S
H1353 C1341 0.930 . S
H1354 C1342 0.956 . S
H1355 C1342 0.961 . S
H1356 C1342 0.961 . S
H1357 C1343 0.958 . S
H1358 C1343 0.961 . S
H1359 C1343 0.960 . S
C1360 C1361 1.391 . S
C1360 C1362 1.394 . S
C1360 H1376 0.931 . S
C1361 C1360 1.391 . S
C1361 C1365 1.376 . S
C1362 C1360 1.394 . S
C1362 C1363 1.369 . S
C1362 C1366 1.531 . S
C1363 C1362 1.369 . S
C1363 C1364 1.410 . S
C1363 C1371 1.503 . S
C1364 C1363 1.410 . S
C1364 C1365 1.392 . S
C1364 C1367 1.511 . S
C1365 C1361 1.376 . S
C1365 C1364 1.392 . S
C1365 H1377 0.929 . S
C1366 C1362 1.531 . S
C1366 H1378 0.960 . S
C1366 H1379 0.962 . S
C1366 H1380 0.960 . S
C1367 C1364 1.511 . S
C1367 H1381 0.961 . S
C1367 H1382 0.961 . S
C1367 H1383 0.961 . S
C1368 C1369 1.370 . S
C1368 C1370 1.363 . S
C1368 H1384 0.931 . S
C1369 C1368 1.370 . S
C1369 C1373 1.408 . S
C1370 C1368 1.363 . S
C1370 C1371 1.370 . S
C1370 C1374 1.524 . S
C1371 C1363 1.503 . S
C1371 C1370 1.370 . S
C1371 C1372 1.403 . S
C1372 C1371 1.403 . S
C1372 C1373 1.404 . S
C1372 C1375 1.539 . S
C1373 C1369 1.408 . S
C1373 C1372 1.404 . S
C1373 H1385 0.930 . S
C1374 C1370 1.524 . S
C1374 H1386 0.956 . S
C1374 H1387 0.961 . S
C1374 H1388 0.961 . S
C1375 C1372 1.539 . S
C1375 H1389 0.958 . S
C1375 H1390 0.961 . S
C1375 H1391 0.960 . S
H1376 C1360 0.931 . S
H1377 C1365 0.929 . S
H1378 C1366 0.960 . S
H1379 C1366 0.962 . S
H1380 C1366 0.960 . S
H1381 C1367 0.961 . S
H1382 C1367 0.961 . S
H1383 C1367 0.961 . S
H1384 C1368 0.931 . S
H1385 C1373 0.930 . S
H1386 C1374 0.956 . S
H1387 C1374 0.961 . S
H1388 C1374 0.961 . S
H1389 C1375 0.958 . S
H1390 C1375 0.961 . S
H1391 C1375 0.960 . S
C1392 C1393 1.391 . S
C1392 C1394 1.394 . S
C1392 H1408 0.931 . S
C1393 C1392 1.391 . S
C1393 C1397 1.376 . S
C1394 C1392 1.394 . S
C1394 C1395 1.369 . S
C1394 C1398 1.531 . S
C1395 C1394 1.369 . S
C1395 C1396 1.410 . S
C1395 C1403 1.503 . S
C1396 C1395 1.410 . S
C1396 C1397 1.392 . S
C1396 C1399 1.511 . S
C1397 C1393 1.376 . S
C1397 C1396 1.392 . S
C1397 H1409 0.929 . S
C1398 C1394 1.531 . S
C1398 H1410 0.960 . S
C1398 H1411 0.962 . S
C1398 H1412 0.960 . S
C1399 C1396 1.511 . S
C1399 H1413 0.961 . S
C1399 H1414 0.961 . S
C1399 H1415 0.961 . S
C1400 C1401 1.370 . S
C1400 C1402 1.363 . S
C1400 H1416 0.931 . S
C1401 C1400 1.370 . S
C1401 C1405 1.408 . S
C1402 C1400 1.363 . S
C1402 C1403 1.370 . S
C1402 C1406 1.524 . S
C1403 C1395 1.503 . S
C1403 C1402 1.370 . S
C1403 C1404 1.403 . S
C1404 C1403 1.403 . S
C1404 C1405 1.404 . S
C1404 C1407 1.539 . S
C1405 C1401 1.408 . S
C1405 C1404 1.404 . S
C1405 H1417 0.930 . S
C1406 C1402 1.524 . S
C1406 H1418 0.956 . S
C1406 H1419 0.961 . S
C1406 H1420 0.961 . S
C1407 C1404 1.539 . S
C1407 H1421 0.958 . S
C1407 H1422 0.961 . S
C1407 H1423 0.960 . S
H1408 C1392 0.931 . S
H1409 C1397 0.929 . S
H1410 C1398 0.960 . S
H1411 C1398 0.962 . S
H1412 C1398 0.960 . S
H1413 C1399 0.961 . S
H1414 C1399 0.961 . S
H1415 C1399 0.961 . S
H1416 C1400 0.931 . S
H1417 C1405 0.930 . S
H1418 C1406 0.956 . S
H1419 C1406 0.961 . S
H1420 C1406 0.961 . S
H1421 C1407 0.958 . S
H1422 C1407 0.961 . S
H1423 C1407 0.960 . S
C657 C255 2.376 . S
C665 C395 2.467 . S
C697 C479 2.482 . S
C689 C295 2.415 . S
C729 C555 2.370 . S
C721 C175 2.506 . S
C761 C639 2.351 . S
C753 C215 2.505 . S
C793 C386 2.473 1_565 S
C785 C95 2.347 . S
C817 C135 2.378 . S
C825 C470 2.479 . S
C849 C15 2.495 . S
C857 C544 2.368 . S
C881 C55 2.490 . S
C889 C628 2.360 . S
C921 C383 0.717 1_455 S
C913 C221 0.729 . S
C953 C467 0.632 1_545 S
C945 C261 0.592 . S
C985 C560 0.596 . S
C977 C301 0.553 . S
C1009 C181 0.690 . S
C1017 C644 0.690 . S
C1041 C61 0.825 . S
C1049 C392 0.718 . S
C1081 C476 0.615 . S
C1073 C101 0.578 . S
C1113 C551 0.603 . S
C1105 C141 0.574 . S
C1137 C21 0.750 . S
C1145 C635 0.660 . S
C1169 C202 3.109 . S
C1177 C376 3.155 . S
C1201 C242 3.024 . S
C1209 C460 3.121 . S
C1241 C554 3.204 . S
C1233 C282 2.920 . S
C1273 C638 3.239 . S
C1265 C162 2.971 . S
C1297 C42 3.022 . S
C1305 C387 3.146 . S
C1337 C471 3.123 . S
C1329 C82 2.964 . S
C1369 C563 3.202 . S
C1361 C122 2.848 . S
C1393 C2 2.908 . S
C1401 C647 3.239 . S
