# Generated by pormake.
# Topology ctn, (3,4)-cn, num edge types: 1
# Building blocks:
#     Node 0, Type 0, BuildingBlock: OLANEW_clean_sbu_2, # of connection points: 3
#     Node 1, Type 0, BuildingBlock: OLANEW_clean_sbu_2, # of connection points: 3
#     Node 2, Type 0, BuildingBlock: OLANEW_clean_sbu_2, # of connection points: 3
#     Node 3, Type 0, BuildingBlock: OLANEW_clean_sbu_2, # of connection points: 3
#     Node 4, Type 0, BuildingBlock: OLANEW_clean_sbu_2, # of connection points: 3
#     Node 5, Type 0, BuildingBlock: OLANEW_clean_sbu_2, # of connection points: 3
#     Node 6, Type 0, BuildingBlock: OLANEW_clean_sbu_2, # of connection points: 3
#     Node 7, Type 0, BuildingBlock: OLANEW_clean_sbu_2, # of connection points: 3
#     Node 8, Type 0, BuildingBlock: OLANEW_clean_sbu_2, # of connection points: 3
#     Node 9, Type 0, BuildingBlock: OLANEW_clean_sbu_2, # of connection points: 3
#     Node 10, Type 0, BuildingBlock: OLANEW_clean_sbu_2, # of connection points: 3
#     Node 11, Type 0, BuildingBlock: OLANEW_clean_sbu_2, # of connection points: 3
#     Node 12, Type 0, BuildingBlock: OLANEW_clean_sbu_2, # of connection points: 3
#     Node 13, Type 0, BuildingBlock: OLANEW_clean_sbu_2, # of connection points: 3
#     Node 14, Type 0, BuildingBlock: OLANEW_clean_sbu_2, # of connection points: 3
#     Node 15, Type 0, BuildingBlock: OLANEW_clean_sbu_2, # of connection points: 3
#     Node 16, Type 1, BuildingBlock: KUFVIS_clean_sbu_0, # of connection points: 4
#     Node 17, Type 1, BuildingBlock: KUFVIS_clean_sbu_0, # of connection points: 4
#     Node 18, Type 1, BuildingBlock: KUFVIS_clean_sbu_0, # of connection points: 4
#     Node 19, Type 1, BuildingBlock: KUFVIS_clean_sbu_0, # of connection points: 4
#     Node 20, Type 1, BuildingBlock: KUFVIS_clean_sbu_0, # of connection points: 4
#     Node 21, Type 1, BuildingBlock: KUFVIS_clean_sbu_0, # of connection points: 4
#     Node 22, Type 1, BuildingBlock: KUFVIS_clean_sbu_0, # of connection points: 4
#     Node 23, Type 1, BuildingBlock: KUFVIS_clean_sbu_0, # of connection points: 4
#     Node 24, Type 1, BuildingBlock: KUFVIS_clean_sbu_0, # of connection points: 4
#     Node 25, Type 1, BuildingBlock: KUFVIS_clean_sbu_0, # of connection points: 4
#     Node 26, Type 1, BuildingBlock: KUFVIS_clean_sbu_0, # of connection points: 4
#     Node 27, Type 1, BuildingBlock: KUFVIS_clean_sbu_0, # of connection points: 4
#     Edge 28, Type (0, 1), BuildingBlock: ZUJKAS_clean_linker_0, # of connection points: 2
#     Edge 29, Type (0, 1), BuildingBlock: ZUJKAS_clean_linker_0, # of connection points: 2
#     Edge 30, Type (0, 1), BuildingBlock: ZUJKAS_clean_linker_0, # of connection points: 2
#     Edge 31, Type (0, 1), BuildingBlock: ZUJKAS_clean_linker_0, # of connection points: 2
#     Edge 32, Type (0, 1), BuildingBlock: ZUJKAS_clean_linker_0, # of connection points: 2
#     Edge 33, Type (0, 1), BuildingBlock: ZUJKAS_clean_linker_0, # of connection points: 2
#     Edge 34, Type (0, 1), BuildingBlock: ZUJKAS_clean_linker_0, # of connection points: 2
#     Edge 35, Type (0, 1), BuildingBlock: ZUJKAS_clean_linker_0, # of connection points: 2
#     Edge 36, Type (0, 1), BuildingBlock: ZUJKAS_clean_linker_0, # of connection points: 2
#     Edge 37, Type (0, 1), BuildingBlock: ZUJKAS_clean_linker_0, # of connection points: 2
#     Edge 38, Type (0, 1), BuildingBlock: ZUJKAS_clean_linker_0, # of connection points: 2
#     Edge 39, Type (0, 1), BuildingBlock: ZUJKAS_clean_linker_0, # of connection points: 2
#     Edge 40, Type (0, 1), BuildingBlock: ZUJKAS_clean_linker_0, # of connection points: 2
#     Edge 41, Type (0, 1), BuildingBlock: ZUJKAS_clean_linker_0, # of connection points: 2
#     Edge 42, Type (0, 1), BuildingBlock: ZUJKAS_clean_linker_0, # of connection points: 2
#     Edge 43, Type (0, 1), BuildingBlock: ZUJKAS_clean_linker_0, # of connection points: 2
#     Edge 44, Type (0, 1), BuildingBlock: ZUJKAS_clean_linker_0, # of connection points: 2
#     Edge 45, Type (0, 1), BuildingBlock: ZUJKAS_clean_linker_0, # of connection points: 2
#     Edge 46, Type (0, 1), BuildingBlock: ZUJKAS_clean_linker_0, # of connection points: 2
#     Edge 47, Type (0, 1), BuildingBlock: ZUJKAS_clean_linker_0, # of connection points: 2
#     Edge 48, Type (0, 1), BuildingBlock: ZUJKAS_clean_linker_0, # of connection points: 2
#     Edge 49, Type (0, 1), BuildingBlock: ZUJKAS_clean_linker_0, # of connection points: 2
#     Edge 50, Type (0, 1), BuildingBlock: ZUJKAS_clean_linker_0, # of connection points: 2
#     Edge 51, Type (0, 1), BuildingBlock: ZUJKAS_clean_linker_0, # of connection points: 2
#     Edge 52, Type (0, 1), BuildingBlock: ZUJKAS_clean_linker_0, # of connection points: 2
#     Edge 53, Type (0, 1), BuildingBlock: ZUJKAS_clean_linker_0, # of connection points: 2
#     Edge 54, Type (0, 1), BuildingBlock: ZUJKAS_clean_linker_0, # of connection points: 2
#     Edge 55, Type (0, 1), BuildingBlock: ZUJKAS_clean_linker_0, # of connection points: 2
#     Edge 56, Type (0, 1), BuildingBlock: ZUJKAS_clean_linker_0, # of connection points: 2
#     Edge 57, Type (0, 1), BuildingBlock: ZUJKAS_clean_linker_0, # of connection points: 2
#     Edge 58, Type (0, 1), BuildingBlock: ZUJKAS_clean_linker_0, # of connection points: 2
#     Edge 59, Type (0, 1), BuildingBlock: ZUJKAS_clean_linker_0, # of connection points: 2
#     Edge 60, Type (0, 1), BuildingBlock: ZUJKAS_clean_linker_0, # of connection points: 2
#     Edge 61, Type (0, 1), BuildingBlock: ZUJKAS_clean_linker_0, # of connection points: 2
#     Edge 62, Type (0, 1), BuildingBlock: ZUJKAS_clean_linker_0, # of connection points: 2
#     Edge 63, Type (0, 1), BuildingBlock: ZUJKAS_clean_linker_0, # of connection points: 2
#     Edge 64, Type (0, 1), BuildingBlock: ZUJKAS_clean_linker_0, # of connection points: 2
#     Edge 65, Type (0, 1), BuildingBlock: ZUJKAS_clean_linker_0, # of connection points: 2
#     Edge 66, Type (0, 1), BuildingBlock: ZUJKAS_clean_linker_0, # of connection points: 2
#     Edge 67, Type (0, 1), BuildingBlock: ZUJKAS_clean_linker_0, # of connection points: 2
#     Edge 68, Type (0, 1), BuildingBlock: ZUJKAS_clean_linker_0, # of connection points: 2
#     Edge 69, Type (0, 1), BuildingBlock: ZUJKAS_clean_linker_0, # of connection points: 2
#     Edge 70, Type (0, 1), BuildingBlock: ZUJKAS_clean_linker_0, # of connection points: 2
#     Edge 71, Type (0, 1), BuildingBlock: ZUJKAS_clean_linker_0, # of connection points: 2
#     Edge 72, Type (0, 1), BuildingBlock: ZUJKAS_clean_linker_0, # of connection points: 2
#     Edge 73, Type (0, 1), BuildingBlock: ZUJKAS_clean_linker_0, # of connection points: 2
#     Edge 74, Type (0, 1), BuildingBlock: ZUJKAS_clean_linker_0, # of connection points: 2
#     Edge 75, Type (0, 1), BuildingBlock: ZUJKAS_clean_linker_0, # of connection points: 2
# Relax obj value: 0.059
# Max RMSD: 0.168
# Mean RMSD: 0.105
data_MOF--net-ctn--node1-OLANEW_clean_sbu_2--node2-KUFVIS_clean_sbu_0--edge1-ZUJKAS_clean_linker_0
_symmetry_space_group_name_H-M    P1
_symmetry_Int_Tables_number       1
_symmetry_cell_setting            triclinic
loop_
_symmetry_equiv_pos_as_xyz
'x, y, z'
_cell_length_a     73.824815
_cell_length_b     75.506932
_cell_length_c     72.135216
_cell_angle_alpha  92.101355
_cell_angle_beta   94.282658
_cell_angle_gamma 96.939961
loop_
_atom_site_label
_atom_site_type_symbol
_atom_site_fract_x
_atom_site_fract_y
_atom_site_fract_z
_atom_type_partial_charge
O0 O 0.04837 0.06925 0.03276 0.0
Cd1 Cd 0.05151 0.0447 0.05362 0.0
O2 O 0.0325 0.08279 0.05237 0.0
Cd3 Cd 0.02934 0.06189 0.07251 0.0
O4 O 0.01471 0.04847 0.09441 0.0
C5 C 0.00476 0.058 0.10313 0.0
O6 O 0.00449 0.07471 0.09872 0.0
C7 C 0.04022 0.08252 0.03719 0.0
C8 C 0.07717 0.02246 0.04351 0.0
O9 O 0.06012 0.01848 0.03838 0.0
O10 O 0.08212 0.03703 0.05323 0.0
O11 O 0.3569 0.72105 0.20277 0.0
Cd12 Cd 0.33595 0.71715 0.17465 0.0
O13 O 0.3409 0.69684 0.21096 0.0
Cd14 Cd 0.33093 0.6734 0.22598 0.0
O15 O 0.31259 0.65104 0.23499 0.0
C16 C 0.29941 0.65435 0.24439 0.0
O17 O 0.29779 0.67104 0.24907 0.0
C18 C 0.35414 0.70921 0.21467 0.0
C19 C 0.32916 0.74847 0.15753 0.0
O20 O 0.31947 0.74237 0.17045 0.0
O21 O 0.34234 0.73999 0.15306 0.0
O22 O 0.97688 0.50571 0.08826 0.0
Cd23 Cd 0.96104 0.50206 0.05693 0.0
O24 O 0.98921 0.48079 0.0845 0.0
Cd25 Cd 0.97816 0.47193 0.05636 0.0
O26 O 0.97891 0.4497 0.03625 0.0
C27 C 0.98494 0.43616 0.04332 0.0
O28 O 0.98957 0.43674 0.0613 0.0
C29 C 0.98703 0.49446 0.09453 0.0
C30 C 0.93481 0.52541 0.04988 0.0
O31 O 0.93045 0.51007 0.05646 0.0
O32 O 0.95163 0.52984 0.0469 0.0
O33 O 0.68612 0.84632 0.1703 0.0
Cd34 Cd 0.66371 0.82071 0.16012 0.0
O35 O 0.67568 0.84455 0.1978 0.0
Cd36 Cd 0.67142 0.85094 0.2269 0.0
O37 O 0.65857 0.84835 0.25317 0.0
C38 C 0.64332 0.8543 0.25462 0.0
O39 O 0.63637 0.86271 0.24068 0.0
C40 C 0.68689 0.85215 0.18712 0.0
C41 C 0.67824 0.79731 0.13618 0.0
O42 O 0.66949 0.80975 0.12984 0.0
O43 O 0.68008 0.79592 0.15386 0.0
O44 O 0.07609 0.9833 0.50502 0.0
Cd45 Cd 0.04649 0.96488 0.49851 0.0
O46 O 0.0666 0.00492 0.48865 0.0
Cd47 Cd 0.03969 0.99146 0.4785 0.0
O48 O 0.01552 0.98798 0.45874 0.0
C49 C 0.00916 0.00212 0.45373 0.0
O50 O 0.01683 0.01757 0.46129 0.0
C51 C 0.07902 0.99886 0.49885 0.0
C52 C 0.04125 0.93664 0.52225 0.0
O53 O 0.04812 0.93456 0.50662 0.0
O54 O 0.037 0.95212 0.5267 0.0
O55 O 0.20927 0.67929 0.90902 0.0
Cd56 Cd 0.20579 0.64769 0.89907 0.0
O57 O 0.19216 0.68395 0.88404 0.0
Cd58 Cd 0.17781 0.69905 0.86358 0.0
O59 O 0.16073 0.70936 0.84152 0.0
C60 C 0.14558 0.71459 0.84505 0.0
O61 O 0.14071 0.71417 0.86219 0.0
C62 C 0.2011 0.68998 0.89918 0.0
C63 C 0.23485 0.63683 0.88079 0.0
O64 O 0.22147 0.64288 0.87176 0.0
O65 O 0.23467 0.63629 0.89852 0.0
O66 O 0.00232 0.51605 0.48606 0.0
Cd67 Cd 0.98932 0.52674 0.51407 0.0
O68 O 0.02817 0.53364 0.49272 0.0
Cd69 Cd 0.01935 0.54759 0.51677 0.0
O70 O 0.01573 0.5696 0.536 0.0
C71 C 0.00393 0.57998 0.53162 0.0
O72 O 0.99358 0.57667 0.51596 0.0
C73 C 0.01851 0.52164 0.48222 0.0
C74 C 0.95419 0.50981 0.51824 0.0
O75 O 0.95659 0.52435 0.50961 0.0
O76 O 0.96842 0.50325 0.52483 0.0
O77 O 0.8529 0.82883 0.87515 0.0
Cd78 Cd 0.86279 0.85618 0.85956 0.0
O79 O 0.825 0.83437 0.86785 0.0
Cd80 Cd 0.79512 0.83353 0.86602 0.0
O81 O 0.77015 0.84572 0.85914 0.0
C82 C 0.76982 0.86147 0.86587 0.0
O83 O 0.78378 0.86881 0.87708 0.0
C84 C 0.83577 0.82434 0.87548 0.0
C85 C 0.88294 0.84951 0.82943 0.0
O86 O 0.89097 0.85426 0.84553 0.0
O87 O 0.86541 0.84796 0.82759 0.0
O88 O 0.35339 0.31931 0.37005 0.0
Cd89 Cd 0.3677 0.3445 0.35375 0.0
O90 O 0.32615 0.32657 0.36228 0.0
Cd91 Cd 0.29645 0.32726 0.36096 0.0
O92 O 0.27077 0.33848 0.35478 0.0
C93 C 0.26833 0.35258 0.36397 0.0
O94 O 0.28077 0.35906 0.37726 0.0
C95 C 0.33613 0.31621 0.37057 0.0
C96 C 0.38605 0.33272 0.32415 0.0
O97 O 0.3938 0.33461 0.34073 0.0
O98 O 0.36962 0.33652 0.32152 0.0
O99 O 0.47677 0.00148 0.58588 0.0
Cd100 Cd 0.46109 0.99743 0.55459 0.0
O101 O 0.48895 0.97631 0.58361 0.0
Cd102 Cd 0.47799 0.96666 0.55566 0.0
O103 O 0.47749 0.94434 0.53536 0.0
C104 C 0.48082 0.92976 0.54239 0.0
O105 O 0.4836 0.92935 0.56057 0.0
C106 C 0.48673 0.99042 0.59291 0.0
C107 C 0.4363 0.02218 0.54781 0.0
O108 O 0.43122 0.00702 0.55445 0.0
O109 O 0.45313 0.02569 0.54444 0.0
O110 O 0.19255 0.35349 0.67257 0.0
Cd111 Cd 0.16907 0.33054 0.65823 0.0
O112 O 0.18019 0.35015 0.69901 0.0
Cd113 Cd 0.17456 0.35446 0.72813 0.0
O114 O 0.16063 0.35079 0.75369 0.0
C115 C 0.14493 0.35596 0.75446 0.0
O116 O 0.13809 0.36413 0.74028 0.0
C117 C 0.19264 0.35785 0.68976 0.0
C118 C 0.18442 0.30495 0.63776 0.0
O119 O 0.17954 0.31891 0.63019 0.0
O120 O 0.182 0.30308 0.65502 0.0
O121 O 0.83923 0.21264 0.7213 0.0
Cd122 Cd 0.81159 0.20673 0.70001 0.0
O123 O 0.84798 0.18618 0.71618 0.0
Cd124 Cd 0.82206 0.17559 0.70097 0.0
O125 O 0.79575 0.15913 0.70198 0.0
C126 C 0.78953 0.15882 0.71795 0.0
O127 O 0.79876 0.16872 0.73169 0.0
C128 C 0.85092 0.20173 0.72401 0.0
C129 C 0.80655 0.23551 0.67772 0.0
O130 O 0.79971 0.23428 0.69351 0.0
O131 O 0.8158 0.22316 0.67251 0.0
O132 O 0.55023 0.56631 0.53005 0.0
Cd133 Cd 0.55217 0.54065 0.54974 0.0
O134 O 0.53411 0.57923 0.5499 0.0
Cd135 Cd 0.53119 0.5582 0.56984 0.0
O136 O 0.51631 0.54588 0.59213 0.0
C137 C 0.50557 0.55555 0.59947 0.0
O138 O 0.50465 0.57166 0.59345 0.0
C139 C 0.54198 0.57942 0.5348 0.0
C140 C 0.58096 0.52085 0.54318 0.0
O141 O 0.56526 0.51717 0.53413 0.0
O142 O 0.58315 0.53408 0.55514 0.0
O143 O 0.57701 0.48448 0.02646 0.0
Cd144 Cd 0.54708 0.46706 0.02833 0.0
O145 O 0.56391 0.49368 0.00111 0.0
Cd146 Cd 0.55896 0.50952 0.97685 0.0
O147 O 0.54221 0.51805 0.95336 0.0
C148 C 0.54332 0.51163 0.93701 0.0
O149 O 0.55551 0.50068 0.93428 0.0
C150 C 0.57798 0.49426 0.01252 0.0
C151 C 0.54679 0.43665 0.04912 0.0
O152 O 0.54908 0.43591 0.03168 0.0
O153 O 0.54509 0.45187 0.05682 0.0
O154 O 0.70954 0.20068 0.37885 0.0
Cd155 Cd 0.70208 0.17918 0.35233 0.0
O156 O 0.68295 0.19391 0.39037 0.0
Cd157 Cd 0.67178 0.17665 0.36635 0.0
O158 O 0.65398 0.17418 0.34066 0.0
C159 C 0.63755 0.17704 0.34229 0.0
O160 O 0.63232 0.17995 0.35903 0.0
C161 C 0.69874 0.2029 0.39145 0.0
C162 C 0.72943 0.15778 0.34573 0.0
O163 O 0.72935 0.17306 0.33857 0.0
O164 O 0.71673 0.15275 0.35628 0.0
O165 O 0.48584 0.02733 0.96415 0.0
Cd166 Cd 0.46958 0.04114 0.98812 0.0
O167 O 0.5017 0.0119 0.98327 0.0
Cd168 Cd 0.49147 0.02486 0.00715 0.0
O169 O 0.48931 0.04778 0.02579 0.0
C170 C 0.49942 0.06198 0.02249 0.0
O171 O 0.50996 0.06166 0.00862 0.0
C172 C 0.49737 0.01625 0.96681 0.0
C173 C 0.43528 0.02227 0.99187 0.0
O174 O 0.4374 0.03442 0.98 0.0
O175 O 0.4494 0.01904 0.00202 0.0
Mn176 Mn 0.23943 0.88291 0.01172 0.0
Mn177 Mn 0.23228 0.89393 0.96715 0.0
C178 C 0.22327 0.86246 0.99013 0.0
C179 C 0.25762 0.87143 0.03501 0.0
C180 C 0.21173 0.90761 0.99859 0.0
O181 O 0.25825 0.90465 0.00977 0.0
O182 O 0.25408 0.90942 0.97912 0.0
C183 C 0.26553 0.88276 0.952 0.0
N184 N 0.24694 0.88147 0.95167 0.0
C185 C 0.24339 0.85951 0.9262 0.0
C186 C 0.26249 0.86068 0.9262 0.0
C187 C 0.2736 0.87235 0.93916 0.0
C188 C 0.23612 0.87034 0.9392 0.0
H189 H 0.27413 0.89162 0.96202 0.0
C190 C 0.26262 0.91286 0.99526 0.0
O191 O 0.24568 0.88199 0.03903 0.0
O192 O 0.25923 0.86793 0.01752 0.0
N193 N 0.21177 0.87955 0.95417 0.0
C194 C 0.19366 0.87903 0.95691 0.0
C195 C 0.18072 0.8675 0.94555 0.0
C196 C 0.18653 0.85666 0.93148 0.0
C197 C 0.20523 0.85747 0.92887 0.0
C198 C 0.21749 0.86933 0.94052 0.0
H199 H 0.18912 0.88725 0.96778 0.0
O200 O 0.22135 0.8609 0.00776 0.0
O201 O 0.23452 0.87597 0.98579 0.0
O202 O 0.21873 0.89868 0.01134 0.0
O203 O 0.21626 0.90718 0.98184 0.0
C204 C 0.21223 0.8467 0.91545 0.0
C205 C 0.23129 0.8477 0.91412 0.0
H206 H 0.26877 0.85256 0.91643 0.0
H207 H 0.28835 0.87326 0.93932 0.0
H208 H 0.16631 0.8669 0.94769 0.0
H209 H 0.17652 0.84765 0.92287 0.0
H210 H 0.20308 0.83741 0.90625 0.0
H211 H 0.23651 0.83913 0.90395 0.0
Mn212 Mn 0.13201 0.49795 0.28917 0.0
Mn213 Mn 0.12414 0.54098 0.29284 0.0
C214 C 0.15222 0.52004 0.27795 0.0
C215 C 0.14464 0.47395 0.30226 0.0
C216 C 0.10342 0.51388 0.26427 0.0
O217 O 0.11305 0.49762 0.30828 0.0
O218 O 0.11097 0.52708 0.3117 0.0
C219 C 0.14326 0.55097 0.32996 0.0
N220 N 0.14106 0.55375 0.31143 0.0
C221 C 0.16476 0.57877 0.31433 0.0
C222 C 0.16721 0.57624 0.33347 0.0
C223 C 0.15644 0.56226 0.34131 0.0
C224 C 0.15138 0.56713 0.30373 0.0
H225 H 0.13505 0.5402 0.33602 0.0
C226 C 0.10697 0.51087 0.31617 0.0
O227 O 0.13141 0.47139 0.28914 0.0
O228 O 0.15015 0.49032 0.30793 0.0
N229 N 0.13624 0.55595 0.27551 0.0
C230 C 0.13277 0.55604 0.25669 0.0
C231 C 0.1426 0.56903 0.24665 0.0
C232 C 0.1558 0.58184 0.25607 0.0
C233 C 0.15909 0.58153 0.27544 0.0
C234 C 0.14873 0.56838 0.28472 0.0
H235 H 0.12259 0.54626 0.24937 0.0
O236 O 0.15182 0.50356 0.27204 0.0
O237 O 0.14093 0.52303 0.29034 0.0
O238 O 0.11232 0.50083 0.26825 0.0
O239 O 0.10641 0.52909 0.27304 0.0
C240 C 0.17241 0.59359 0.28587 0.0
C241 C 0.17528 0.59218 0.30529 0.0
H242 H 0.17741 0.58487 0.34226 0.0
H243 H 0.15831 0.56017 0.35605 0.0
H244 H 0.14001 0.56917 0.2317 0.0
H245 H 0.16335 0.59183 0.24826 0.0
H246 H 0.1807 0.60385 0.27906 0.0
H247 H 0.18574 0.60137 0.31312 0.0
Mn248 Mn 0.76239 0.64291 0.99734 0.0
Mn249 Mn 0.72455 0.65085 0.97103 0.0
C250 C 0.73542 0.62399 0.99841 0.0
C251 C 0.78989 0.63055 0.00111 0.0
C252 C 0.73748 0.67088 0.00767 0.0
O253 O 0.77272 0.6609 0.97928 0.0
O254 O 0.74678 0.66433 0.96219 0.0
C255 C 0.73307 0.6329 0.93613 0.0
N256 N 0.72134 0.63492 0.94953 0.0
C257 C 0.69833 0.61311 0.93379 0.0
C258 C 0.71012 0.61086 0.91974 0.0
C259 C 0.72759 0.62075 0.92096 0.0
C260 C 0.70458 0.62535 0.94859 0.0
H261 H 0.74649 0.64052 0.93701 0.0
C262 C 0.76407 0.66786 0.96601 0.0
O263 O 0.78677 0.6441 0.01147 0.0
O264 O 0.77725 0.62452 0.98817 0.0
N265 N 0.70164 0.63907 0.97745 0.0
C266 C 0.69206 0.64268 0.99226 0.0
C267 C 0.6742 0.6341 0.99307 0.0
C268 C 0.66636 0.62194 0.97863 0.0
C269 C 0.6764 0.61859 0.96342 0.0
C270 C 0.69402 0.6278 0.96322 0.0
H271 H 0.69794 0.65215 0.00331 0.0
O272 O 0.74845 0.6246 0.01159 0.0
O273 O 0.73873 0.63406 0.98441 0.0
O274 O 0.75145 0.66276 0.01123 0.0
O275 O 0.7266 0.66754 0.993 0.0
C276 C 0.66969 0.60641 0.94852 0.0
C277 C 0.68069 0.60359 0.93376 0.0
H278 H 0.70593 0.60151 0.90802 0.0
H279 H 0.73679 0.61904 0.91022 0.0
H280 H 0.66648 0.63689 0.00478 0.0
H281 H 0.65262 0.61524 0.97938 0.0
H282 H 0.65615 0.59901 0.94835 0.0
H283 H 0.67545 0.59405 0.92248 0.0
Mn284 Mn 0.85503 0.0086 0.26593 0.0
Mn285 Mn 0.86447 0.96614 0.26088 0.0
C286 C 0.83439 0.98749 0.24909 0.0
C287 C 0.84307 0.03094 0.28255 0.0
C288 C 0.88238 0.99669 0.23972 0.0
O289 O 0.8754 0.00723 0.28624 0.0
O290 O 0.87893 0.97803 0.28328 0.0
C291 C 0.84868 0.95142 0.29445 0.0
N292 N 0.84936 0.95093 0.27562 0.0
C293 C 0.82638 0.92532 0.27185 0.0
C294 C 0.82551 0.92549 0.29121 0.0
C295 C 0.83668 0.93862 0.30255 0.0
C296 C 0.83864 0.93838 0.26458 0.0
H297 H 0.85721 0.96152 0.3032 0.0
C298 C 0.88263 0.99353 0.29153 0.0
O299 O 0.85549 0.03474 0.27099 0.0
O300 O 0.83793 0.01415 0.28477 0.0
N301 N 0.85117 0.95311 0.23987 0.0
C302 C 0.85295 0.9554 0.22141 0.0
C303 C 0.84242 0.94359 0.20816 0.0
C304 C 0.83027 0.92951 0.21401 0.0
C305 C 0.82871 0.92738 0.23308 0.0
C306 C 0.83968 0.93947 0.24565 0.0
H307 H 0.86229 0.96617 0.21682 0.0
O308 O 0.83399 0.00436 0.24649 0.0
O309 O 0.84682 0.98355 0.26144 0.0
O310 O 0.87334 0.00861 0.24605 0.0
O311 O 0.88048 0.98056 0.24475 0.0
C312 C 0.81653 0.91391 0.2401 0.0
C313 C 0.81532 0.91291 0.25947 0.0
H314 H 0.81621 0.91569 0.29751 0.0
H315 H 0.83602 0.93889 0.31749 0.0
H316 H 0.84367 0.94534 0.19347 0.0
H317 H 0.82215 0.92046 0.20374 0.0
H318 H 0.80784 0.9044 0.23072 0.0
H319 H 0.8057 0.90266 0.26469 0.0
Mn320 Mn 0.26643 0.14365 0.50555 0.0
Mn321 Mn 0.22645 0.14918 0.48168 0.0
C322 C 0.2406 0.12379 0.50897 0.0
C323 C 0.2945 0.13226 0.50747 0.0
C324 C 0.24105 0.17074 0.51704 0.0
O325 O 0.27455 0.16125 0.48619 0.0
O326 O 0.24729 0.16315 0.47083 0.0
C327 C 0.23315 0.13069 0.4464 0.0
N328 N 0.22237 0.13265 0.46067 0.0
C329 C 0.19921 0.1098 0.44696 0.0
C330 C 0.21 0.1076 0.43204 0.0
C331 C 0.22708 0.11804 0.43181 0.0
C332 C 0.20601 0.12257 0.46112 0.0
H333 H 0.24625 0.13873 0.44616 0.0
C334 C 0.26464 0.16737 0.4733 0.0
O335 O 0.29176 0.14594 0.51786 0.0
O336 O 0.28115 0.12561 0.49556 0.0
N337 N 0.20469 0.13676 0.49009 0.0
C338 C 0.19617 0.14028 0.50568 0.0
C339 C 0.17884 0.13115 0.50798 0.0
C340 C 0.17044 0.11848 0.49426 0.0
C341 C 0.1794 0.11518 0.47827 0.0
C342 C 0.1965 0.12497 0.47656 0.0
H343 H 0.20248 0.15012 0.51619 0.0
O344 O 0.25443 0.1254 0.52134 0.0
O345 O 0.2424 0.13353 0.49447 0.0
O346 O 0.2557 0.16345 0.51981 0.0
O347 O 0.22931 0.16642 0.5032 0.0
C348 C 0.17212 0.10247 0.46403 0.0
C349 C 0.18207 0.09971 0.44843 0.0
H350 H 0.20537 0.09786 0.42076 0.0
H351 H 0.23552 0.11638 0.42038 0.0
H352 H 0.17195 0.13387 0.52031 0.0
H353 H 0.15713 0.11133 0.49618 0.0
H354 H 0.15897 0.09462 0.46503 0.0
H355 H 0.17643 0.08976 0.43768 0.0
Mn356 Mn 0.36449 0.50938 0.77214 0.0
Mn357 Mn 0.37705 0.46802 0.76777 0.0
C358 C 0.34431 0.48651 0.75752 0.0
C359 C 0.35196 0.5309 0.7894 0.0
C360 C 0.39002 0.49826 0.74349 0.0
O361 O 0.38682 0.51058 0.7906 0.0
O362 O 0.39297 0.48214 0.78796 0.0
C363 C 0.36655 0.45473 0.80404 0.0
N364 N 0.36516 0.453 0.78512 0.0
C365 C 0.34475 0.42566 0.78538 0.0
C366 C 0.34605 0.42709 0.80489 0.0
C367 C 0.35695 0.44172 0.81425 0.0
C368 C 0.35461 0.43905 0.77596 0.0
H369 H 0.37492 0.46596 0.81129 0.0
C370 C 0.39609 0.49804 0.79534 0.0
O371 O 0.36289 0.53537 0.77658 0.0
O372 O 0.34872 0.51404 0.79242 0.0
N373 N 0.36275 0.4528 0.74892 0.0
C374 C 0.36221 0.45389 0.73008 0.0
C375 C 0.35144 0.44056 0.71865 0.0
C376 C 0.34155 0.42614 0.72669 0.0
C377 C 0.34252 0.42518 0.74611 0.0
C378 C 0.35343 0.43887 0.75679 0.0
H379 H 0.36986 0.46491 0.72383 0.0
O380 O 0.34228 0.50303 0.75461 0.0
O381 O 0.35797 0.48385 0.76912 0.0
O382 O 0.381 0.50987 0.75052 0.0
O383 O 0.38968 0.48236 0.7491 0.0
C384 C 0.33291 0.41127 0.75529 0.0
C385 C 0.33392 0.41158 0.77491 0.0
H386 H 0.33865 0.41709 0.81281 0.0
H387 H 0.35796 0.44296 0.8293 0.0
H388 H 0.35078 0.4414 0.70368 0.0
H389 H 0.3332 0.41592 0.71784 0.0
H390 H 0.32457 0.40036 0.74741 0.0
H391 H 0.32623 0.40097 0.78181 0.0
Mn392 Mn 0.74852 0.38354 0.52748 0.0
Mn393 Mn 0.74618 0.3975 0.48362 0.0
C394 C 0.73317 0.36505 0.50352 0.0
C395 C 0.76303 0.36917 0.55139 0.0
C396 C 0.72313 0.41019 0.51337 0.0
O397 O 0.76905 0.40424 0.52865 0.0
O398 O 0.76699 0.41169 0.49866 0.0
C399 C 0.78093 0.38683 0.47154 0.0
N400 N 0.76237 0.38603 0.46908 0.0
C401 C 0.76144 0.36813 0.44066 0.0
C402 C 0.78055 0.36881 0.44285 0.0
C403 C 0.79032 0.37812 0.45842 0.0
C404 C 0.75282 0.37696 0.45426 0.0
H405 H 0.78851 0.39408 0.48341 0.0
C406 C 0.77466 0.41354 0.51529 0.0
O407 O 0.75178 0.38061 0.55486 0.0
O408 O 0.7663 0.36661 0.53415 0.0
N409 N 0.72689 0.38458 0.46755 0.0
C410 C 0.70844 0.38406 0.46827 0.0
C411 C 0.69663 0.37458 0.45415 0.0
C412 C 0.70391 0.36598 0.43933 0.0
C413 C 0.72295 0.36676 0.43887 0.0
C414 C 0.73402 0.37622 0.45343 0.0
H415 H 0.70279 0.39081 0.47954 0.0
O416 O 0.72932 0.3629 0.52061 0.0
O417 O 0.74576 0.37812 0.50095 0.0
O418 O 0.72918 0.40091 0.52633 0.0
O419 O 0.72873 0.40995 0.49706 0.0
C420 C 0.73137 0.35844 0.4246 0.0
C421 C 0.75059 0.35897 0.42558 0.0
H422 H 0.78784 0.36215 0.43273 0.0
H423 H 0.80506 0.37866 0.46023 0.0
H424 H 0.68196 0.374 0.45464 0.0
H425 H 0.69477 0.35873 0.42843 0.0
H426 H 0.72318 0.35133 0.41295 0.0
H427 H 0.75687 0.35217 0.41473 0.0
Mn428 Mn 0.63218 0.00567 0.78695 0.0
Mn429 Mn 0.62085 0.04762 0.79082 0.0
C430 C 0.64932 0.02865 0.77346 0.0
C431 C 0.64744 0.98293 0.79934 0.0
C432 C 0.60083 0.01913 0.7634 0.0
O433 O 0.61477 0.0041 0.80752 0.0
O434 O 0.6096 0.03278 0.81015 0.0
C435 C 0.64095 0.05837 0.82731 0.0
N436 N 0.63753 0.06131 0.80894 0.0
C437 C 0.65844 0.08847 0.81154 0.0
C438 C 0.66211 0.0858 0.83052 0.0
C439 C 0.65338 0.07064 0.83842 0.0
C440 C 0.64599 0.07575 0.80116 0.0
H441 H 0.63424 0.04676 0.83344 0.0
C442 C 0.60757 0.01665 0.81529 0.0
O443 O 0.63344 0.97941 0.78719 0.0
O444 O 0.65237 0.99958 0.80437 0.0
N445 N 0.63074 0.06377 0.77326 0.0
C446 C 0.62621 0.06403 0.75462 0.0
C447 C 0.63404 0.07815 0.74452 0.0
C448 C 0.64618 0.092 0.75374 0.0
C449 C 0.65044 0.09159 0.77298 0.0
C450 C 0.64223 0.07716 0.7823 0.0
H451 H 0.61674 0.05351 0.74749 0.0
O452 O 0.64992 0.01217 0.76807 0.0
O453 O 0.63912 0.03124 0.78704 0.0
O454 O 0.61067 0.0068 0.76747 0.0
O455 O 0.60327 0.03464 0.77156 0.0
C456 C 0.66262 0.10482 0.78326 0.0
C457 C 0.66673 0.10319 0.80249 0.0
H458 H 0.67166 0.09525 0.83914 0.0
H459 H 0.65619 0.06845 0.85304 0.0
H460 H 0.63068 0.07839 0.72968 0.0
H461 H 0.6522 0.10286 0.74589 0.0
H462 H 0.66905 0.11623 0.77649 0.0
H463 H 0.67632 0.11332 0.81018 0.0
Mn464 Mn 0.00542 0.25704 0.89907 0.0
Mn465 Mn 0.96467 0.24628 0.91669 0.0
C466 C 0.98151 0.24069 0.88091 0.0
C467 C 0.02577 0.2764 0.88384 0.0
C468 C 0.99769 0.22705 0.92597 0.0
O469 O 0.00685 0.27446 0.92148 0.0
O470 O 0.979 0.26662 0.9316 0.0
C471 C 0.94812 0.27931 0.90884 0.0
N472 N 0.9474 0.26121 0.9071 0.0
C473 C 0.91717 0.25844 0.89151 0.0
C474 C 0.91754 0.27704 0.89318 0.0
C475 C 0.93314 0.28753 0.90178 0.0
C476 C 0.93259 0.25103 0.89861 0.0
H477 H 0.95999 0.28741 0.91562 0.0
C478 C 0.99449 0.27644 0.93258 0.0
O479 O 0.03146 0.26458 0.89474 0.0
O480 O 0.00826 0.27722 0.8821 0.0
N481 N 0.94918 0.22706 0.90348 0.0
C482 C 0.95152 0.20946 0.90187 0.0
C483 C 0.93745 0.19722 0.89297 0.0
C484 C 0.921 0.20314 0.88614 0.0
C485 C 0.91889 0.22131 0.88804 0.0
C486 C 0.93349 0.23292 0.89678 0.0
H487 H 0.96403 0.20481 0.90736 0.0
O488 O 0.99835 0.24004 0.87717 0.0
O489 O 0.97913 0.2509 0.89522 0.0
O490 O 0.00852 0.23622 0.916 0.0
O491 O 0.98112 0.22983 0.92726 0.0
C492 C 0.9029 0.22838 0.88158 0.0
C493 C 0.90211 0.24695 0.88309 0.0
H494 H 0.90597 0.28342 0.88786 0.0
H495 H 0.93355 0.3019 0.90309 0.0
H496 H 0.93919 0.18322 0.89152 0.0
H497 H 0.91013 0.19364 0.87939 0.0
H498 H 0.89121 0.21968 0.87513 0.0
H499 H 0.88989 0.25225 0.87768 0.0
Mn500 Mn 0.50381 0.75272 0.39611 0.0
Mn501 Mn 0.46199 0.74051 0.41078 0.0
C502 C 0.48123 0.73634 0.37636 0.0
C503 C 0.52449 0.77316 0.38257 0.0
C504 C 0.4954 0.72256 0.4225 0.0
O505 O 0.50326 0.76942 0.41884 0.0
O506 O 0.47432 0.76152 0.42624 0.0
C507 C 0.44424 0.77233 0.40064 0.0
N508 N 0.44468 0.75435 0.39917 0.0
C509 C 0.41708 0.75025 0.37871 0.0
C510 C 0.41628 0.76871 0.38008 0.0
C511 C 0.42995 0.77979 0.39106 0.0
C512 C 0.43163 0.74357 0.38859 0.0
H513 H 0.45474 0.78091 0.40903 0.0
C514 C 0.4898 0.77139 0.42857 0.0
O515 O 0.53002 0.76125 0.39346 0.0
O516 O 0.50695 0.77345 0.37992 0.0
N517 N 0.44859 0.72055 0.39665 0.0
C518 C 0.45189 0.70318 0.39599 0.0
C519 C 0.43975 0.69042 0.38517 0.0
C520 C 0.42431 0.69562 0.37525 0.0
C521 C 0.42113 0.71355 0.37626 0.0
C522 C 0.43366 0.72566 0.38732 0.0
H523 H 0.46372 0.69909 0.40358 0.0
O524 O 0.49836 0.73624 0.37343 0.0
O525 O 0.47795 0.74592 0.39074 0.0
O526 O 0.50644 0.73162 0.41266 0.0
O527 O 0.47867 0.72515 0.42316 0.0
C528 C 0.40615 0.71991 0.36653 0.0
C529 C 0.40415 0.73826 0.36771 0.0
H530 H 0.40531 0.77453 0.37267 0.0
H531 H 0.42947 0.79406 0.39212 0.0
H532 H 0.44231 0.6766 0.38445 0.0
H533 H 0.41505 0.68575 0.36683 0.0
H534 H 0.39622 0.71085 0.35789 0.0
H535 H 0.39273 0.74303 0.35992 0.0
Mn536 Mn 0.0042 0.76595 0.66169 0.0
Mn537 Mn 0.97615 0.73318 0.67927 0.0
C538 C 0.00124 0.73726 0.64844 0.0
C539 C 0.00878 0.79002 0.64254 0.0
C540 C 0.01412 0.74666 0.69692 0.0
O541 O 0.9891 0.77971 0.67826 0.0
O542 O 0.9699 0.7569 0.68751 0.0
C543 C 0.94176 0.7397 0.65829 0.0
N544 N 0.95412 0.7284 0.66334 0.0
C545 C 0.93552 0.70348 0.64707 0.0
C546 C 0.92252 0.71481 0.64175 0.0
C547 C 0.92572 0.73303 0.64727 0.0
C548 C 0.95139 0.71097 0.65773 0.0
H549 H 0.9441 0.75367 0.66269 0.0
C550 C 0.97556 0.77356 0.68708 0.0
O551 O 0.01987 0.78841 0.65704 0.0
O552 O 0.99493 0.77769 0.63923 0.0
N553 N 0.98014 0.7093 0.6727 0.0
C554 C 0.99417 0.70026 0.67878 0.0
C555 C 0.99313 0.68187 0.67448 0.0
C556 C 0.97748 0.67289 0.66439 0.0
C557 C 0.96314 0.68245 0.65841 0.0
C558 C 0.96504 0.70078 0.66294 0.0
H559 H 0.00603 0.70701 0.68695 0.0
O560 O 0.01518 0.74875 0.64562 0.0
O561 O 0.98897 0.74306 0.65836 0.0
O562 O 0.01829 0.75798 0.68476 0.0
O563 O 0.99864 0.73694 0.69636 0.0
C564 C 0.94695 0.67448 0.64827 0.0
C565 C 0.93328 0.68503 0.64236 0.0
H566 H 0.91004 0.70966 0.63342 0.0
H567 H 0.91578 0.74187 0.6432 0.0
H568 H 0.00424 0.67457 0.67915 0.0
H569 H 0.97663 0.65864 0.66134 0.0
H570 H 0.94492 0.66027 0.64482 0.0
H571 H 0.92104 0.6788 0.63431 0.0
Mn572 Mn 0.50911 0.24635 0.15885 0.0
Mn573 Mn 0.48056 0.20982 0.1682 0.0
C574 C 0.50778 0.22063 0.14035 0.0
C575 C 0.51443 0.27373 0.14509 0.0
C576 C 0.51732 0.2207 0.18956 0.0
O577 O 0.49231 0.25638 0.17646 0.0
O578 O 0.47356 0.23145 0.18106 0.0
C579 C 0.44714 0.21972 0.14798 0.0
N580 N 0.45938 0.20781 0.15098 0.0
C581 C 0.44265 0.18666 0.12827 0.0
C582 C 0.42978 0.19865 0.12502 0.0
C583 C 0.43208 0.21527 0.13487 0.0
C584 C 0.45741 0.19187 0.14144 0.0
H585 H 0.44886 0.2325 0.15554 0.0
C586 C 0.4787 0.24822 0.18378 0.0
O587 O 0.52462 0.26984 0.15945 0.0
O588 O 0.50102 0.26177 0.13885 0.0
N589 N 0.48521 0.18762 0.15701 0.0
C590 C 0.49905 0.17775 0.16151 0.0
C591 C 0.49881 0.16073 0.1529 0.0
C592 C 0.48422 0.15392 0.13999 0.0
C593 C 0.47003 0.16423 0.13575 0.0
C594 C 0.47093 0.18104 0.14488 0.0
H595 H 0.51019 0.18282 0.1716 0.0
O596 O 0.52176 0.23284 0.14067 0.0
O597 O 0.49457 0.224 0.15047 0.0
O598 O 0.52188 0.23454 0.18049 0.0
O599 O 0.50213 0.21064 0.1862 0.0
C600 C 0.45514 0.15859 0.12265 0.0
C601 C 0.44151 0.16984 0.11884 0.0
H602 H 0.41814 0.19527 0.11492 0.0
H603 H 0.42224 0.22462 0.13239 0.0
H604 H 0.50981 0.15284 0.15626 0.0
H605 H 0.48405 0.14078 0.13341 0.0
H606 H 0.45414 0.1457 0.11528 0.0
H607 H 0.43024 0.16544 0.10858 0.0
H608 H 0.17535 0.71292 0.89278 0.0
H609 H 0.1765 0.74374 0.90498 0.0
H610 H 0.22906 0.74012 0.93393 0.0
H611 H 0.2283 0.70949 0.92129 0.0
H612 H 0.20018 0.75198 0.95596 0.0
H613 H 0.21137 0.78994 0.89215 0.0
H614 H 0.19386 0.77101 0.89054 0.0
H615 H 0.21743 0.76759 0.89442 0.0
C616 C 0.18747 0.71888 0.90112 0.0
C617 C 0.20199 0.70892 0.90561 0.0
C618 C 0.18799 0.73643 0.90828 0.0
C619 C 0.20296 0.74423 0.92015 0.0
C620 C 0.21745 0.73434 0.92467 0.0
H621 H 0.24528 0.84627 0.9686 0.0
H622 H 0.23778 0.81826 0.94996 0.0
C623 C 0.21698 0.71686 0.91745 0.0
C624 C 0.20316 0.76232 0.92881 0.0
H625 H 0.2091 0.80665 0.91993 0.0
C626 C 0.20193 0.76396 0.94809 0.0
C627 C 0.20551 0.77783 0.91844 0.0
C628 C 0.20723 0.77666 0.89774 0.0
C629 C 0.20335 0.78077 0.95738 0.0
C630 C 0.20593 0.79632 0.94706 0.0
C631 C 0.20689 0.79468 0.92772 0.0
C632 C 0.20948 0.81428 0.95645 0.0
C633 C 0.20282 0.78181 0.97827 0.0
C634 C 0.19593 0.82146 0.96598 0.0
C635 C 0.20018 0.83757 0.97652 0.0
C636 C 0.21791 0.8468 0.97733 0.0
C637 C 0.23134 0.83969 0.96761 0.0
C638 C 0.2271 0.82368 0.95706 0.0
H639 H 0.20358 0.76862 0.98443 0.0
H640 H 0.21433 0.79142 0.98474 0.0
H641 H 0.18986 0.78665 0.98186 0.0
H642 H 0.18224 0.81437 0.96564 0.0
H643 H 0.18974 0.84268 0.98424 0.0
H644 H 0.05242 0.53108 0.47049 0.0
H645 H 0.06401 0.52249 0.44121 0.0
H646 H 0.01353 0.48839 0.42587 0.0
H647 H 0.00156 0.49723 0.4552 0.0
H648 H 0.06941 0.48969 0.42525 0.0
H649 H 0.01768 0.52212 0.38276 0.0
H650 H 0.02124 0.52575 0.40769 0.0
H651 H 0.00902 0.50516 0.39779 0.0
C652 C 0.04375 0.52167 0.46099 0.0
C653 C 0.02596 0.515 0.46513 0.0
C654 C 0.05045 0.51672 0.44426 0.0
C655 C 0.03955 0.505 0.43126 0.0
C656 C 0.02204 0.4977 0.43559 0.0
H657 H 0.09415 0.47871 0.33025 0.0
H658 H 0.07572 0.47395 0.35694 0.0
C659 C 0.01527 0.5027 0.45239 0.0
C660 C 0.04647 0.50135 0.41291 0.0
H661 H 0.04094 0.51106 0.36714 0.0
C662 C 0.06305 0.49406 0.41245 0.0
C663 C 0.03815 0.50719 0.39629 0.0
C664 C 0.02061 0.51561 0.39604 0.0
C665 C 0.07204 0.49327 0.39602 0.0
C666 C 0.06403 0.49968 0.37955 0.0
C667 C 0.04698 0.50611 0.37979 0.0
C668 C 0.07416 0.50203 0.36266 0.0
C669 C 0.09056 0.48665 0.39668 0.0
C670 C 0.07892 0.51933 0.35673 0.0
C671 C 0.08929 0.5221 0.34149 0.0
C672 C 0.09515 0.5076 0.33177 0.0
C673 C 0.08998 0.49019 0.33747 0.0
C674 C 0.07952 0.48743 0.35276 0.0
H675 H 0.09614 0.485 0.41117 0.0
H676 H 0.08934 0.47349 0.38902 0.0
H677 H 0.10049 0.49603 0.38989 0.0
H678 H 0.07493 0.53078 0.36418 0.0
H679 H 0.09295 0.5357 0.33755 0.0
H680 H 0.85411 0.80751 0.90231 0.0
H681 H 0.84374 0.7798 0.91697 0.0
H682 H 0.79194 0.77619 0.88437 0.0
H683 H 0.80237 0.80368 0.8693 0.0
H684 H 0.8127 0.7722 0.93766 0.0
H685 H 0.80964 0.72704 0.87469 0.0
H686 H 0.82178 0.74936 0.87612 0.0
H687 H 0.79729 0.74599 0.87188 0.0
C688 C 0.8405 0.80083 0.89824 0.0
C689 C 0.82898 0.80794 0.88478 0.0
C690 C 0.8346 0.78501 0.90666 0.0
C691 C 0.81716 0.77585 0.90162 0.0
C692 C 0.80554 0.78295 0.8883 0.0
H693 H 0.75097 0.68329 0.93493 0.0
H694 H 0.76549 0.70877 0.91951 0.0
C695 C 0.81142 0.79884 0.87991 0.0
C696 C 0.81107 0.75901 0.91053 0.0
H697 H 0.79713 0.71456 0.90139 0.0
C698 C 0.80942 0.75955 0.92979 0.0
C699 C 0.80687 0.74256 0.9002 0.0
C700 C 0.80912 0.74108 0.8796 0.0
C701 C 0.80306 0.74417 0.93892 0.0
C702 C 0.79864 0.72773 0.92854 0.0
C703 C 0.80059 0.72715 0.90932 0.0
C704 C 0.79076 0.71128 0.93715 0.0
C705 C 0.80047 0.74581 0.95944 0.0
C706 C 0.80038 0.7038 0.95184 0.0
C707 C 0.79207 0.68918 0.96081 0.0
C708 C 0.774 0.68174 0.95518 0.0
C709 C 0.76482 0.68874 0.93981 0.0
C710 C 0.77311 0.70332 0.93091 0.0
H711 H 0.80052 0.75994 0.96436 0.0
H712 H 0.78738 0.7381 0.96265 0.0
H713 H 0.81182 0.74035 0.9674 0.0
H714 H 0.81419 0.7095 0.95659 0.0
H715 H 0.79958 0.68409 0.97251 0.0
H716 H 0.99277 0.02998 0.43998 0.0
H717 H 0.96985 0.02921 0.41361 0.0
H718 H 0.96952 0.97221 0.40649 0.0
H719 H 0.99227 0.97279 0.43301 0.0
H720 H 0.97391 0.01805 0.3774 0.0
H721 H 0.91509 0.97745 0.40507 0.0
H722 H 0.93472 0.9876 0.41981 0.0
H723 H 0.93579 0.96714 0.4066 0.0
C724 C 0.98767 0.01723 0.43296 0.0
C725 C 0.99434 0.00143 0.43862 0.0
C726 C 0.97459 0.01683 0.41788 0.0
C727 C 0.96783 0.00064 0.40823 0.0
C728 C 0.97427 0.9848 0.41397 0.0
H729 H 0.89956 0.9673 0.30827 0.0
H730 H 0.92019 0.97004 0.33652 0.0
C731 C 0.98735 0.98518 0.42908 0.0
C732 C 0.95486 0.00045 0.39151 0.0
H733 H 0.91271 0.98217 0.37253 0.0
C734 C 0.96045 0.01034 0.37638 0.0
C735 C 0.93734 0.99038 0.39024 0.0
C736 C 0.93027 0.98017 0.40635 0.0
C737 C 0.94919 0.01001 0.35978 0.0
C738 C 0.93179 0.99972 0.35842 0.0
C739 C 0.92609 0.99002 0.37363 0.0
C740 C 0.91947 0.9984 0.34113 0.0
C741 C 0.9562 0.02023 0.34365 0.0
C742 C 0.91217 0.01346 0.33441 0.0
C743 C 0.90036 0.01198 0.31818 0.0
C744 C 0.89559 0.99538 0.30844 0.0
C745 C 0.90296 0.98033 0.3153 0.0
C746 C 0.91473 0.98183 0.3315 0.0
H747 H 0.97123 0.02421 0.34553 0.0
H748 H 0.95293 0.01214 0.33038 0.0
H749 H 0.94946 0.03254 0.34244 0.0
H750 H 0.91545 0.02632 0.34182 0.0
H751 H 0.89487 0.02383 0.31339 0.0
H752 H 0.19585 0.27387 0.64976 0.0
H753 H 0.20848 0.25106 0.6314 0.0
H754 H 0.20346 0.28217 0.58274 0.0
H755 H 0.19105 0.30512 0.60098 0.0
H756 H 0.19153 0.23139 0.60056 0.0
H757 H 0.25605 0.27025 0.58295 0.0
H758 H 0.24273 0.27748 0.60117 0.0
H759 H 0.23616 0.28111 0.57723 0.0
C760 C 0.19757 0.27593 0.63518 0.0
C761 C 0.19247 0.29132 0.62683 0.0
C762 C 0.2048 0.26289 0.62473 0.0
C763 C 0.20717 0.26507 0.60579 0.0
C764 C 0.20213 0.28042 0.59743 0.0
H765 H 0.21049 0.18791 0.51701 0.0
H766 H 0.20343 0.2102 0.53973 0.0
C767 C 0.19491 0.29346 0.60786 0.0
C768 C 0.21389 0.25081 0.59449 0.0
H769 H 0.24652 0.24286 0.56513 0.0
C770 C 0.20366 0.23384 0.59297 0.0
C771 C 0.22987 0.25397 0.58481 0.0
C772 C 0.24195 0.27164 0.58674 0.0
C773 C 0.20856 0.22013 0.58143 0.0
C774 C 0.22393 0.2236 0.57095 0.0
C775 C 0.23462 0.24033 0.57305 0.0
C776 C 0.2286 0.21026 0.55712 0.0
C777 C 0.19716 0.20208 0.58046 0.0
C778 C 0.24536 0.20325 0.55911 0.0
C779 C 0.24954 0.19048 0.54606 0.0
C780 C 0.23706 0.18462 0.53072 0.0
C781 C 0.22043 0.192 0.52866 0.0
C782 C 0.21629 0.20469 0.5417 0.0
H783 H 0.18925 0.20012 0.5929 0.0
H784 H 0.18726 0.20105 0.568 0.0
H785 H 0.20587 0.19116 0.57927 0.0
H786 H 0.2551 0.2075 0.57088 0.0
H787 H 0.26248 0.18515 0.54807 0.0
H788 H 0.50282 0.52248 0.61439 0.0
H789 H 0.48279 0.5115 0.63822 0.0
H790 H 0.46227 0.56252 0.64179 0.0
H791 H 0.48196 0.5735 0.61793 0.0
H792 H 0.48139 0.52489 0.6748 0.0
H793 H 0.41544 0.5274 0.63341 0.0
H794 H 0.43704 0.5287 0.62302 0.0
H795 H 0.43034 0.5481 0.6346 0.0
C796 C 0.49401 0.53134 0.62022 0.0
C797 C 0.4939 0.54883 0.61417 0.0
C798 C 0.48259 0.52505 0.63383 0.0
C799 C 0.47081 0.53609 0.64151 0.0
C800 C 0.47093 0.55364 0.63573 0.0
H801 H 0.39503 0.53065 0.72729 0.0
H802 H 0.41482 0.53915 0.70254 0.0
C803 C 0.4823 0.55992 0.62215 0.0
C804 C 0.45866 0.52951 0.65589 0.0
H805 H 0.41389 0.52323 0.66586 0.0
C806 C 0.46663 0.52436 0.67281 0.0
C807 C 0.4394 0.52885 0.65323 0.0
C808 C 0.43001 0.53339 0.63502 0.0
C809 C 0.45586 0.51908 0.68737 0.0
C810 C 0.43663 0.5187 0.6848 0.0
C811 C 0.42865 0.52363 0.6678 0.0
C812 C 0.42455 0.51338 0.69966 0.0
C813 C 0.46518 0.51443 0.70557 0.0
C814 C 0.42327 0.49598 0.70602 0.0
C815 C 0.41198 0.49105 0.72015 0.0
C816 C 0.40167 0.50342 0.72817 0.0
C817 C 0.4028 0.52078 0.72152 0.0
C818 C 0.41409 0.52568 0.70735 0.0
H819 H 0.48006 0.51928 0.70674 0.0
H820 H 0.45888 0.5202 0.71754 0.0
H821 H 0.46357 0.4997 0.70654 0.0
H822 H 0.43098 0.48619 0.70001 0.0
H823 H 0.41138 0.47752 0.72479 0.0
H824 H 0.78701 0.26333 0.68454 0.0
H825 H 0.78121 0.28752 0.66404 0.0
H826 H 0.8138 0.26617 0.62348 0.0
H827 H 0.8195 0.24184 0.64374 0.0
H828 H 0.80591 0.31368 0.64858 0.0
H829 H 0.76458 0.26927 0.59397 0.0
H830 H 0.77006 0.26207 0.61709 0.0
H831 H 0.78681 0.26289 0.60019 0.0
C832 C 0.79296 0.26378 0.67126 0.0
C833 C 0.80359 0.25056 0.6657 0.0
C834 C 0.78966 0.27764 0.6596 0.0
C835 C 0.79685 0.27848 0.64215 0.0
C836 C 0.80785 0.26557 0.63676 0.0
H837 H 0.78717 0.34488 0.54779 0.0
H838 H 0.79665 0.32421 0.57082 0.0
C839 C 0.81114 0.25172 0.64839 0.0
C840 C 0.79266 0.29269 0.62944 0.0
H841 H 0.77232 0.29942 0.58666 0.0
C842 C 0.79852 0.3106 0.63506 0.0
C843 C 0.78295 0.28861 0.61186 0.0
C844 C 0.77557 0.26969 0.60544 0.0
C845 C 0.79528 0.32455 0.62333 0.0
C846 C 0.78571 0.32043 0.60568 0.0
C847 C 0.77976 0.30253 0.60015 0.0
C848 C 0.78157 0.33439 0.59262 0.0
C849 C 0.80246 0.3435 0.62974 0.0
C850 C 0.77015 0.34717 0.59732 0.0
C851 C 0.76474 0.35907 0.58417 0.0
C852 C 0.77055 0.35828 0.56606 0.0
C853 C 0.78245 0.34585 0.56161 0.0
C854 C 0.78787 0.334 0.57475 0.0
H855 H 0.81335 0.34402 0.64132 0.0
H856 H 0.80803 0.35112 0.61812 0.0
H857 H 0.79109 0.35022 0.6348 0.0
H858 H 0.76486 0.34749 0.61091 0.0
H859 H 0.75547 0.36843 0.58798 0.0
H860 H 0.4867 0.01961 0.61687 0.0
H861 H 0.50327 0.02527 0.64768 0.0
H862 H 0.52463 0.9748 0.64237 0.0
H863 H 0.50806 0.96892 0.61184 0.0
H864 H 0.51152 0.98148 0.67738 0.0
H865 H 0.55913 0.03872 0.65623 0.0
H866 H 0.53514 0.04047 0.65183 0.0
H867 H 0.54521 0.02352 0.63951 0.0
C868 C 0.49488 0.0097 0.62229 0.0
C869 C 0.49614 0.99387 0.61181 0.0
C870 C 0.5044 0.01299 0.63985 0.0
C871 C 0.51535 0.00055 0.64717 0.0
C872 C 0.51629 0.98459 0.63694 0.0
H873 H 0.59213 0.98893 0.74051 0.0
H874 H 0.5699 0.98452 0.71338 0.0
C875 C 0.50683 0.98129 0.61945 0.0
C876 C 0.52615 0.00409 0.66535 0.0
H877 H 0.56247 0.0309 0.68748 0.0
C878 C 0.52261 0.99234 0.67965 0.0
C879 C 0.5406 0.01826 0.66823 0.0
C880 C 0.54542 0.03091 0.65313 0.0
C881 C 0.5332 0.99433 0.69676 0.0
C882 C 0.5479 0.00825 0.69949 0.0
C883 C 0.55119 0.02023 0.68533 0.0
C884 C 0.56043 0.0104 0.71668 0.0
C885 C 0.52849 0.98158 0.7118 0.0
C886 C 0.56262 0.02647 0.72741 0.0
C887 C 0.57539 0.0291 0.74285 0.0
C888 C 0.58635 0.01572 0.74783 0.0
C889 C 0.58389 0.99949 0.73718 0.0
C890 C 0.5711 0.99689 0.72171 0.0
H891 H 0.51409 0.97516 0.70961 0.0
H892 H 0.53753 0.97087 0.71157 0.0
H893 H 0.53056 0.98852 0.72577 0.0
H894 H 0.55459 0.0371 0.72371 0.0
H895 H 0.57688 0.04179 0.75066 0.0
H896 H 0.85972 0.23255 0.74562 0.0
H897 H 0.88353 0.23842 0.77126 0.0
H898 H 0.90187 0.18742 0.75942 0.0
H899 H 0.87818 0.18141 0.73367 0.0
H900 H 0.88443 0.2151 0.8016 0.0
H901 H 0.95005 0.22242 0.76781 0.0
H902 H 0.92844 0.22532 0.75553 0.0
H903 H 0.93393 0.2033 0.76012 0.0
C904 C 0.86904 0.22271 0.74819 0.0
C905 C 0.86696 0.20646 0.73765 0.0
C906 C 0.88263 0.2261 0.76286 0.0
C907 C 0.8945 0.2134 0.76714 0.0
C908 C 0.89302 0.19751 0.75615 0.0
H909 H 0.97686 0.2094 0.86018 0.0
H910 H 0.9549 0.20119 0.833 0.0
C911 C 0.8794 0.19407 0.7415 0.0
C912 C 0.90701 0.21596 0.7843 0.0
H913 H 0.95203 0.22167 0.8007 0.0
C914 C 0.89922 0.2166 0.8014 0.0
C915 C 0.92626 0.21761 0.78397 0.0
C916 C 0.93526 0.21726 0.76589 0.0
C917 C 0.91016 0.21892 0.81824 0.0
C918 C 0.92941 0.22103 0.81798 0.0
C919 C 0.93724 0.22006 0.80087 0.0
C920 C 0.94163 0.22513 0.83526 0.0
C921 C 0.90103 0.21881 0.8362 0.0
C922 C 0.94137 0.24123 0.84555 0.0
C923 C 0.95386 0.24589 0.86096 0.0
C924 C 0.96664 0.23442 0.86654 0.0
C925 C 0.96682 0.21824 0.85637 0.0
C926 C 0.95437 0.21361 0.84085 0.0
H927 H 0.88648 0.21281 0.83426 0.0
H928 H 0.90837 0.2112 0.84658 0.0
H929 H 0.90143 0.23275 0.84176 0.0
H930 H 0.93196 0.25052 0.84122 0.0
H931 H 0.95404 0.25883 0.86801 0.0
H932 H 0.47931 0.92655 0.50426 0.0
H933 H 0.48235 0.89983 0.48499 0.0
H934 H 0.48826 0.86984 0.53436 0.0
H935 H 0.4856 0.89646 0.55369 0.0
H936 H 0.51369 0.86393 0.50963 0.0
H937 H 0.44372 0.85675 0.47395 0.0
H938 H 0.45678 0.87811 0.47172 0.0
H939 H 0.45035 0.87145 0.49423 0.0
C940 C 0.48117 0.91425 0.511 0.0
C941 C 0.48213 0.91362 0.53051 0.0
C942 C 0.48284 0.89898 0.49997 0.0
C943 C 0.4853 0.88279 0.50824 0.0
C944 C 0.48634 0.88218 0.52769 0.0
H945 H 0.46691 0.77718 0.45562 0.0
H946 H 0.46728 0.80401 0.47557 0.0
C947 C 0.48476 0.89742 0.53872 0.0
C948 C 0.48691 0.86645 0.49674 0.0
H949 H 0.46389 0.83719 0.4634 0.0
C950 C 0.50282 0.85807 0.4995 0.0
C951 C 0.47261 0.85873 0.48372 0.0
C952 C 0.45482 0.8666 0.4808 0.0
C953 C 0.50483 0.84216 0.48957 0.0
C954 C 0.49067 0.83464 0.47629 0.0
C955 C 0.47477 0.84304 0.47353 0.0
C956 C 0.49172 0.8178 0.46538 0.0
C957 C 0.52186 0.83333 0.49373 0.0
C958 C 0.50554 0.8165 0.45322 0.0
C959 C 0.50548 0.80106 0.44185 0.0
C960 C 0.49143 0.78673 0.44228 0.0
C961 C 0.47791 0.78794 0.45487 0.0
C962 C 0.47807 0.8033 0.46627 0.0
H963 H 0.52898 0.83811 0.50743 0.0
H964 H 0.51855 0.81859 0.49365 0.0
H965 H 0.53147 0.83657 0.48287 0.0
H966 H 0.51602 0.82765 0.45204 0.0
H967 H 0.516 0.80066 0.43221 0.0
H968 H 0.11051 0.36406 0.75961 0.0
H969 H 0.09093 0.35397 0.78398 0.0
H970 H 0.13409 0.32684 0.80901 0.0
H971 H 0.15387 0.33704 0.78482 0.0
H972 H 0.08006 0.31837 0.79011 0.0
H973 H 0.1166 0.35275 0.85392 0.0
H974 H 0.12116 0.35962 0.83083 0.0
H975 H 0.13073 0.3407 0.84011 0.0
C976 C 0.11596 0.35618 0.77045 0.0
C977 C 0.13375 0.35132 0.77023 0.0
C978 C 0.10474 0.35042 0.78437 0.0
C979 C 0.11111 0.33982 0.79841 0.0
C980 C 0.12902 0.33532 0.79852 0.0
H981 H 0.06263 0.27583 0.88282 0.0
H982 H 0.0831 0.29246 0.86261 0.0
C983 C 0.14027 0.34107 0.7846 0.0
C984 C 0.0985 0.33218 0.81194 0.0
H985 H 0.09275 0.32937 0.85834 0.0
C986 C 0.08273 0.32092 0.80502 0.0
C987 C 0.10209 0.33544 0.83137 0.0
C988 C 0.11848 0.34791 0.83954 0.0
C989 C 0.07067 0.31247 0.81702 0.0
C990 C 0.0743 0.31564 0.83647 0.0
C991 C 0.09 0.32701 0.84341 0.0
C992 C 0.06219 0.30681 0.84978 0.0
C993 C 0.05448 0.29975 0.80877 0.0
C994 C 0.04377 0.30975 0.84962 0.0
C995 C 0.03201 0.30022 0.86108 0.0
C996 C 0.03852 0.28768 0.87301 0.0
C997 C 0.05717 0.28535 0.87373 0.0
C998 C 0.0689 0.29485 0.86222 0.0
H999 H 0.05612 0.29551 0.79414 0.0
H1000 H 0.05245 0.28765 0.81704 0.0
H1001 H 0.04193 0.30648 0.80888 0.0
H1002 H 0.0384 0.3192 0.84038 0.0
H1003 H 0.01775 0.30243 0.86031 0.0
H1004 H 0.52808 0.61045 0.54265 0.0
H1005 H 0.52347 0.63458 0.52197 0.0
H1006 H 0.54814 0.60743 0.4786 0.0
H1007 H 0.55272 0.58295 0.49925 0.0
H1008 H 0.5487 0.65714 0.50297 0.0
H1009 H 0.49704 0.61521 0.4547 0.0
H1010 H 0.50414 0.60827 0.47751 0.0
H1011 H 0.51882 0.60706 0.45887 0.0
C1012 C 0.53264 0.60957 0.52875 0.0
C1013 C 0.54064 0.59465 0.52256 0.0
C1014 C 0.53002 0.62344 0.51696 0.0
C1015 C 0.53524 0.62269 0.4987 0.0
C1016 C 0.54377 0.60813 0.49258 0.0
H1017 H 0.53032 0.71331 0.42621 0.0
H1018 H 0.54117 0.68909 0.44388 0.0
C1019 C 0.54646 0.59421 0.50443 0.0
C1020 C 0.53114 0.637 0.48607 0.0
H1021 H 0.50373 0.64545 0.44797 0.0
C1022 C 0.53902 0.6546 0.49082 0.0
C1023 C 0.51831 0.63362 0.4704 0.0
C1024 C 0.50893 0.61506 0.46505 0.0
C1025 C 0.53422 0.66896 0.48046 0.0
C1026 C 0.52134 0.66558 0.46483 0.0
C1027 C 0.51366 0.64796 0.45992 0.0
C1028 C 0.51488 0.68024 0.45399 0.0
C1029 C 0.54243 0.68769 0.48673 0.0
C1030 C 0.49643 0.68309 0.45355 0.0
C1031 C 0.49015 0.69688 0.44345 0.0
C1032 C 0.50218 0.70807 0.43345 0.0
C1033 C 0.52066 0.70505 0.43381 0.0
C1034 C 0.52693 0.69125 0.44396 0.0
H1035 H 0.54913 0.68831 0.50109 0.0
H1036 H 0.55292 0.69252 0.47723 0.0
H1037 H 0.53178 0.69691 0.48621 0.0
H1038 H 0.48689 0.6747 0.46116 0.0
H1039 H 0.47582 0.6987 0.44343 0.0
H1040 H 0.87009 0.83285 0.79598 0.0
H1041 H 0.88787 0.82459 0.77048 0.0
H1042 H 0.93745 0.84948 0.80102 0.0
H1043 H 0.91981 0.85725 0.82689 0.0
H1044 H 0.90994 0.8435 0.74801 0.0
H1045 H 0.95006 0.79987 0.79083 0.0
H1046 H 0.93042 0.80892 0.79895 0.0
H1047 H 0.95219 0.82261 0.79964 0.0
C1048 C 0.88477 0.8366 0.79726 0.0
C1049 C 0.89358 0.84551 0.81354 0.0
C1050 C 0.89492 0.83191 0.78265 0.0
C1051 C 0.91403 0.83612 0.78398 0.0
C1052 C 0.92277 0.84568 0.79989 0.0
H1053 H 0.9895 0.8067 0.70227 0.0
H1054 H 0.97532 0.82494 0.72469 0.0
C1055 C 0.91266 0.85018 0.81462 0.0
C1056 C 0.92473 0.82996 0.76891 0.0
H1057 H 0.95723 0.80295 0.75974 0.0
C1058 C 0.92038 0.83475 0.75061 0.0
C1059 C 0.9383 0.81845 0.7723 0.0
C1060 C 0.94294 0.812 0.79145 0.0
C1061 C 0.92901 0.82808 0.7356 0.0
C1062 C 0.94234 0.81646 0.73903 0.0
C1063 C 0.94711 0.81207 0.7573 0.0
C1064 C 0.95004 0.80707 0.72375 0.0
C1065 C 0.92357 0.83301 0.71609 0.0
C1066 C 0.94034 0.79122 0.71573 0.0
C1067 C 0.9484 0.78074 0.70316 0.0
C1068 C 0.96629 0.78599 0.69831 0.0
C1069 C 0.97566 0.80237 0.70568 0.0
C1070 C 0.96763 0.81276 0.71848 0.0
H1071 H 0.91451 0.84374 0.71589 0.0
H1072 H 0.93596 0.83747 0.70884 0.0
H1073 H 0.91623 0.82105 0.70817 0.0
H1074 H 0.92677 0.78662 0.71975 0.0
H1075 H 0.94078 0.76826 0.69764 0.0
H1076 H 0.04531 0.90159 0.51504 0.0
H1077 H 0.03929 0.87659 0.53525 0.0
H1078 H 0.02456 0.91258 0.57784 0.0
H1079 H 0.03012 0.93758 0.55756 0.0
H1080 H 0.05493 0.87054 0.5692 0.0
H1081 H 0.98084 0.87437 0.57354 0.0
H1082 H 0.99401 0.88644 0.55691 0.0
H1083 H 0.99488 0.89493 0.58063 0.0
C1084 C 0.04074 0.90419 0.52869 0.0
C1085 C 0.03807 0.92156 0.53465 0.0
C1086 C 0.03732 0.88988 0.54023 0.0
C1087 C 0.03116 0.89266 0.55793 0.0
C1088 C 0.02885 0.91004 0.56406 0.0
H1089 H 0.03459 0.81925 0.64785 0.0
H1090 H 0.04001 0.84404 0.62727 0.0
C1091 C 0.03215 0.92434 0.55249 0.0
C1092 C 0.02751 0.8774 0.57008 0.0
H1093 H 0.99455 0.85516 0.59433 0.0
C1094 C 0.04171 0.86713 0.57464 0.0
C1095 C 0.01017 0.87279 0.57694 0.0
C1096 C 0.99405 0.88259 0.57162 0.0
C1097 C 0.03913 0.85256 0.58612 0.0
C1098 C 0.02201 0.8484 0.59358 0.0
C1099 C 0.00773 0.85848 0.58877 0.0
C1100 C 0.01856 0.83352 0.60625 0.0
C1101 C 0.05467 0.84156 0.58982 0.0
C1102 C 0.0043 0.81966 0.60159 0.0
C1103 C 0.00101 0.80559 0.61344 0.0
C1104 C 0.01194 0.80512 0.63019 0.0
C1105 C 0.02604 0.81914 0.63496 0.0
C1106 C 0.02924 0.83327 0.62315 0.0
H1107 H 0.06465 0.84321 0.57903 0.0
H1108 H 0.06208 0.84602 0.60346 0.0
H1109 H 0.04954 0.82716 0.5903 0.0
H1110 H 0.99582 0.81965 0.58866 0.0
H1111 H 0.99002 0.795 0.60939 0.0
H1112 H 0.15115 0.71606 0.80803 0.0
H1113 H 0.12981 0.72347 0.78275 0.0
H1114 H 0.09036 0.73235 0.82218 0.0
H1115 H 0.11166 0.72519 0.8476 0.0
H1116 H 0.09519 0.70562 0.7727 0.0
H1117 H 0.09163 0.77698 0.79142 0.0
H1118 H 0.10948 0.76492 0.8012 0.0
H1119 H 0.08723 0.7623 0.81004 0.0
C1120 C 0.13801 0.71978 0.81137 0.0
C1121 C 0.13311 0.72004 0.82985 0.0
C1122 C 0.12584 0.72398 0.7969 0.0
C1123 C 0.1086 0.72865 0.80062 0.0
C1124 C 0.10373 0.72913 0.81905 0.0
H1125 H 0.01156 0.7228 0.72463 0.0
H1126 H 0.03476 0.71875 0.74954 0.0
C1127 C 0.1159 0.72492 0.83355 0.0
C1128 C 0.09533 0.73202 0.78511 0.0
H1129 H 0.06938 0.76314 0.76802 0.0
C1130 C 0.08961 0.71823 0.77161 0.0
C1131 C 0.08825 0.74854 0.78364 0.0
C1132 C 0.09457 0.76411 0.79724 0.0
C1133 C 0.07668 0.72037 0.75687 0.0
C1134 C 0.06908 0.73666 0.75578 0.0
C1135 C 0.0751 0.75061 0.76903 0.0
C1136 C 0.05488 0.73945 0.74095 0.0
C1137 C 0.0714 0.70526 0.74247 0.0
C1138 C 0.05835 0.75275 0.72817 0.0
C1139 C 0.04509 0.75518 0.71394 0.0
C1140 C 0.02804 0.74442 0.7123 0.0
C1141 C 0.02453 0.7313 0.72539 0.0
C1142 C 0.03781 0.72888 0.73959 0.0
H1143 H 0.08171 0.69568 0.74261 0.0
H1144 H 0.05811 0.69786 0.7455 0.0
H1145 H 0.0698 0.7104 0.72829 0.0
H1146 H 0.07143 0.7611 0.72906 0.0
H1147 H 0.04827 0.76545 0.70417 0.0
H1148 H 0.97867 0.60354 0.52771 0.0
H1149 H 0.97704 0.63066 0.5469 0.0
H1150 H 0.02445 0.62008 0.58135 0.0
H1151 H 0.02621 0.59297 0.56231 0.0
H1152 H 0.97406 0.63251 0.58687 0.0
H1153 H 0.03659 0.67279 0.56592 0.0
H1154 H 0.02513 0.65361 0.55221 0.0
H1155 H 0.03955 0.65059 0.57273 0.0
C1156 C 0.98877 0.60699 0.53935 0.0
C1157 C 0.00259 0.59612 0.54347 0.0
C1158 C 0.98782 0.62249 0.55027 0.0
C1159 C 0.0008 0.62748 0.56532 0.0
C1160 C 0.01451 0.6166 0.56957 0.0
H1161 H 0.02576 0.71345 0.64826 0.0
H1162 H 0.02407 0.68612 0.62849 0.0
C1163 C 0.0154 0.60105 0.55875 0.0
C1164 C 0.9996 0.64366 0.57711 0.0
H1165 H 0.02278 0.68418 0.59174 0.0
C1166 C 0.98459 0.64392 0.58784 0.0
C1167 C 0.01343 0.65841 0.57834 0.0
C1168 C 0.02954 0.659 0.56659 0.0
C1169 C 0.98335 0.65831 0.60037 0.0
C1170 C 0.99731 0.67302 0.6019 0.0
C1171 C 0.01212 0.67289 0.59074 0.0
C1172 C 0.99722 0.68852 0.61525 0.0
C1173 C 0.96771 0.65706 0.61265 0.0
C1174 C 0.98259 0.69888 0.61465 0.0
C1175 C 0.98342 0.71429 0.62625 0.0
C1176 C 0.99894 0.71966 0.6385 0.0
C1177 C 0.01352 0.70934 0.63914 0.0
C1178 C 0.01258 0.6938 0.6278 0.0
H1179 H 0.96045 0.64328 0.61264 0.0
H1180 H 0.97297 0.66129 0.62707 0.0
H1181 H 0.95764 0.66599 0.60779 0.0
H1182 H 0.97086 0.6955 0.60469 0.0
H1183 H 0.9723 0.72242 0.62509 0.0
H1184 H 0.70306 0.87789 0.16631 0.0
H1185 H 0.72723 0.90208 0.17648 0.0
H1186 H 0.7265 0.88485 0.23277 0.0
H1187 H 0.70253 0.86042 0.22265 0.0
H1188 H 0.72729 0.92293 0.22886 0.0
H1189 H 0.78084 0.8942 0.19138 0.0
H1190 H 0.76025 0.89664 0.17728 0.0
H1191 H 0.75948 0.88129 0.19574 0.0
C1192 C 0.70798 0.87929 0.18088 0.0
C1193 C 0.70067 0.86738 0.19373 0.0
C1194 C 0.72182 0.89308 0.18664 0.0
C1195 C 0.72874 0.89512 0.20533 0.0
C1196 C 0.72127 0.8835 0.21828 0.0
H1197 H 0.81327 0.96558 0.26967 0.0
H1198 H 0.78696 0.94389 0.25873 0.0
C1199 C 0.70741 0.86966 0.21252 0.0
C1200 C 0.74396 0.90926 0.21128 0.0
H1201 H 0.78881 0.92312 0.20545 0.0
C1202 C 0.74078 0.92297 0.22382 0.0
C1203 C 0.76148 0.90927 0.20458 0.0
C1204 C 0.76584 0.8945 0.19162 0.0
C1205 C 0.75466 0.93684 0.22973 0.0
C1206 C 0.77224 0.93677 0.22315 0.0
C1207 C 0.77534 0.92314 0.21047 0.0
C1208 C 0.78782 0.9503 0.22977 0.0
C1209 C 0.75026 0.9516 0.24268 0.0
C1210 C 0.79726 0.96088 0.21708 0.0
C1211 C 0.81246 0.97311 0.22332 0.0
C1212 C 0.81866 0.97454 0.24222 0.0
C1213 C 0.80898 0.96429 0.25493 0.0
C1214 C 0.79381 0.95212 0.24874 0.0
H1215 H 0.73534 0.95264 0.24186 0.0
H1216 H 0.75455 0.9487 0.25722 0.0
H1217 H 0.75763 0.96469 0.23948 0.0
H1218 H 0.79287 0.95965 0.20237 0.0
H1219 H 0.81958 0.98119 0.21337 0.0
H1220 H 0.75913 0.16543 0.32559 0.0
H1221 H 0.78103 0.14535 0.31689 0.0
H1222 H 0.75303 0.10341 0.34694 0.0
H1223 H 0.73127 0.1235 0.35603 0.0
H1224 H 0.79093 0.10565 0.35262 0.0
H1225 H 0.76874 0.10498 0.27727 0.0
H1226 H 0.77598 0.12686 0.28775 0.0
H1227 H 0.75588 0.11389 0.29496 0.0
C1228 C 0.75767 0.15196 0.33043 0.0
C1229 C 0.74335 0.14601 0.34138 0.0
C1230 C 0.77015 0.14048 0.32536 0.0
C1231 C 0.76844 0.12279 0.33096 0.0
C1232 C 0.75453 0.11699 0.34238 0.0
H1233 H 0.81708 0.02688 0.30763 0.0
H1234 H 0.80053 0.04996 0.32066 0.0
C1235 C 0.74209 0.12848 0.34754 0.0
C1236 C 0.78087 0.11019 0.32461 0.0
H1237 H 0.79413 0.08987 0.28567 0.0
C1238 C 0.79165 0.10219 0.33798 0.0
C1239 C 0.78175 0.10568 0.30551 0.0
C1240 C 0.76986 0.11316 0.29052 0.0
C1241 C 0.80339 0.08989 0.33274 0.0
C1242 C 0.80418 0.08535 0.31366 0.0
C1243 C 0.79356 0.09348 0.30029 0.0
C1244 C 0.81538 0.07169 0.30717 0.0
C1245 C 0.81497 0.08198 0.34763 0.0
C1246 C 0.82917 0.07624 0.2952 0.0
C1247 C 0.83864 0.06307 0.28769 0.0
C1248 C 0.83433 0.04509 0.29188 0.0
C1249 C 0.82077 0.04062 0.30419 0.0
C1250 C 0.81136 0.05381 0.31173 0.0
H1251 H 0.81639 0.09016 0.3609 0.0
H1252 H 0.8084 0.06842 0.35036 0.0
H1253 H 0.82883 0.08074 0.34311 0.0
H1254 H 0.8324 0.08996 0.29143 0.0
H1255 H 0.84898 0.06694 0.27823 0.0
H1256 H 0.40381 0.02329 0.96967 0.0
H1257 H 0.37395 0.00588 0.97205 0.0
H1258 H 0.39561 0.98091 0.02025 0.0
H1259 H 0.42559 0.99821 0.01798 0.0
H1260 H 0.36817 0.96621 0.97206 0.0
H1261 H 0.34686 0.99994 0.03535 0.0
H1262 H 0.36378 0.01065 0.02117 0.0
H1263 H 0.36967 0.99368 0.03647 0.0
C1264 C 0.40222 0.01418 0.98086 0.0
C1265 C 0.41708 0.01213 0.99364 0.0
C1266 C 0.38516 0.00426 0.98218 0.0
C1267 C 0.38259 0.99228 0.99642 0.0
C1268 C 0.3973 0.99028 0.00931 0.0
H1269 H 0.28957 0.91866 0.02391 0.0
H1270 H 0.31852 0.93831 0.02451 0.0
C1271 C 0.41443 1.00011 0.00793 0.0
C1272 C 0.36472 0.98123 0.9972 0.0
H1273 H 0.3274 0.97463 0.02249 0.0
C1274 C 0.3592 0.96806 0.98304 0.0
C1275 C 0.35323 0.98361 0.01166 0.0
C1276 C 0.35853 0.99779 0.02702 0.0
C1277 C 0.34248 0.95704 0.98301 0.0
C1278 C 0.33074 0.95965 0.99726 0.0
C1279 C 0.33637 0.97274 0.01153 0.0
C1280 C 0.31261 0.94884 0.99753 0.0
C1281 C 0.33778 0.94244 0.96795 0.0
C1282 C 0.29944 0.9487 0.98245 0.0
C1283 C 0.28295 0.93742 0.98198 0.0
C1284 C 0.27918 0.92622 0.99674 0.0
C1285 C 0.29202 0.92708 0.01229 0.0
C1286 C 0.30859 0.93829 0.01266 0.0
H1287 H 0.35019 0.93894 0.96154 0.0
H1288 H 0.33066 0.93019 0.97349 0.0
H1289 H 0.32856 0.94711 0.9568 0.0
H1290 H 0.30205 0.95711 0.97085 0.0
H1291 H 0.27331 0.93726 0.96988 0.0
H1292 H 0.24118 0.34423 0.33576 0.0
H1293 H 0.21744 0.36255 0.32531 0.0
H1294 H 0.23659 0.40173 0.36959 0.0
H1295 H 0.26031 0.38365 0.38011 0.0
H1296 H 0.18884 0.37792 0.34586 0.0
H1297 H 0.24078 0.42846 0.31979 0.0
H1298 H 0.24537 0.40607 0.32468 0.0
H1299 H 0.24559 0.42248 0.34339 0.0
C1300 C 0.24022 0.35665 0.3434 0.0
C1301 C 0.25278 0.36256 0.35867 0.0
C1302 C 0.22663 0.36707 0.33742 0.0
C1303 C 0.22546 0.38357 0.34655 0.0
C1304 C 0.23745 0.38913 0.36224 0.0
H1305 H 0.16987 0.47566 0.33192 0.0
H1306 H 0.18774 0.45232 0.34256 0.0
C1307 C 0.25098 0.37874 0.36824 0.0
C1308 C 0.21239 0.39551 0.33921 0.0
H1309 H 0.21072 0.43624 0.32065 0.0
C1310 C 0.19354 0.39062 0.34021 0.0
C1311 C 0.21863 0.412 0.33176 0.0
C1312 C 0.23868 0.41756 0.32965 0.0
C1313 C 0.18078 0.40219 0.3346 0.0
C1314 C 0.18709 0.41888 0.32757 0.0
C1315 C 0.20592 0.42349 0.32616 0.0
C1316 C 0.17465 0.43217 0.32217 0.0
C1317 C 0.16075 0.39674 0.33683 0.0
C1318 C 0.16112 0.42852 0.30731 0.0
C1319 C 0.15076 0.44189 0.30121 0.0
C1320 C 0.15393 0.45914 0.30978 0.0
C1321 C 0.16712 0.46254 0.32497 0.0
C1322 C 0.17736 0.44921 0.33108 0.0
H1323 H 0.15861 0.38547 0.34623 0.0
H1324 H 0.15431 0.40816 0.34242 0.0
H1325 H 0.15363 0.39242 0.32303 0.0
H1326 H 0.15902 0.41556 0.30001 0.0
H1327 H 0.14077 0.4389 0.28941 0.0
H1328 H 0.08889 0.03261 0.48803 0.0
H1329 H 0.11828 0.05102 0.49418 0.0
H1330 H 0.13916 0.00931 0.52558 0.0
H1331 H 0.10962 0.99051 0.51929 0.0
H1332 H 0.13643 0.06256 0.52927 0.0
H1333 H 0.17761 0.02146 0.48735 0.0
H1334 H 0.1529 0.01865 0.4848 0.0
H1335 H 0.16469 0.01046 0.50475 0.0
C1336 C 0.09968 0.02725 0.49624 0.0
C1337 C 0.09689 0.01003 0.50312 0.0
C1338 C 0.11649 0.03784 0.49976 0.0
C1339 C 0.13093 0.03146 0.51017 0.0
C1340 C 0.12824 0.01436 0.51727 0.0
H1341 H 0.22432 0.11488 0.54037 0.0
H1342 H 0.19987 0.0906 0.54391 0.0
C1343 C 0.11134 0.00369 0.51375 0.0
C1344 C 0.14861 0.04307 0.51355 0.0
H1345 H 0.19247 0.04849 0.50103 0.0
C1346 C 0.14877 0.05953 0.52319 0.0
C1347 C 0.16462 0.03892 0.50571 0.0
C1348 C 0.16507 0.02147 0.49497 0.0
C1349 C 0.16422 0.07244 0.52445 0.0
C1350 C 0.18019 0.06862 0.51599 0.0
C1351 C 0.18025 0.05165 0.50723 0.0
C1352 C 0.19637 0.0823 0.51463 0.0
C1353 C 0.1627 0.09009 0.53434 0.0
C1354 C 0.20384 0.08483 0.49737 0.0
C1355 C 0.21842 0.09813 0.49559 0.0
C1356 C 0.22522 0.10976 0.51075 0.0
C1357 C 0.21861 0.10663 0.52823 0.0
C1358 C 0.20452 0.09285 0.53022 0.0
H1359 H 0.14826 0.09291 0.53413 0.0
H1360 H 0.16791 0.08961 0.54913 0.0
H1361 H 0.17071 0.10132 0.52813 0.0
H1362 H 0.19822 0.0767 0.48513 0.0
H1363 H 0.22425 0.09946 0.48231 0.0
H1364 H 0.768 0.13516 0.69329 0.0
H1365 H 0.7418 0.11386 0.70004 0.0
H1366 H 0.748 0.13326 0.75743 0.0
H1367 H 0.77387 0.15468 0.7508 0.0
H1368 H 0.74181 0.0868 0.72473 0.0
H1369 H 0.69361 0.13367 0.74453 0.0
H1370 H 0.71365 0.14062 0.73245 0.0
H1371 H 0.71559 0.13843 0.75726 0.0
C1372 C 0.76363 0.13504 0.70729 0.0
C1373 C 0.773 0.14665 0.72149 0.0
C1374 C 0.74868 0.12285 0.71112 0.0
C1375 C 0.74279 0.12216 0.72917 0.0
C1376 C 0.75203 0.13383 0.74331 0.0
H1377 H 0.67384 0.05311 0.79336 0.0
H1378 H 0.69595 0.07586 0.78118 0.0
C1379 C 0.76692 0.14601 0.7395 0.0
C1380 C 0.72769 0.10859 0.73362 0.0
H1381 H 0.68713 0.10355 0.75372 0.0
C1382 C 0.72971 0.09044 0.73083 0.0
C1383 C 0.71192 0.11338 0.74156 0.0
C1384 C 0.70844 0.13259 0.74396 0.0
C1385 C 0.71673 0.07699 0.73652 0.0
C1386 C 0.70133 0.08185 0.74506 0.0
C1387 C 0.69905 0.09993 0.74735 0.0
C1388 C 0.68773 0.06836 0.75225 0.0
C1389 C 0.71984 0.0577 0.73397 0.0
C1390 C 0.6758 0.05674 0.74 0.0
C1391 C 0.66308 0.04393 0.74694 0.0
C1392 C 0.66191 0.04284 0.7662 0.0
C1393 C 0.67408 0.05423 0.77845 0.0
C1394 C 0.68676 0.06706 0.77152 0.0
H1395 H 0.73375 0.05631 0.72965 0.0
H1396 H 0.71794 0.0507 0.74709 0.0
H1397 H 0.70964 0.05094 0.72311 0.0
H1398 H 0.67634 0.05759 0.72509 0.0
H1399 H 0.65405 0.03497 0.73729 0.0
H1400 H 0.44316 0.05589 0.53511 0.0
H1401 H 0.4212 0.07715 0.52861 0.0
H1402 H 0.37761 0.03896 0.54478 0.0
H1403 H 0.39948 0.01778 0.55163 0.0
H1404 H 0.39111 0.07402 0.50367 0.0
H1405 H 0.37038 0.08346 0.57522 0.0
H1406 H 0.39025 0.07287 0.5703 0.0
H1407 H 0.36777 0.06041 0.56736 0.0
C1408 C 0.42892 0.05205 0.5374 0.0
C1409 C 0.42309 0.03517 0.54399 0.0
C1410 C 0.41638 0.06422 0.53365 0.0
C1411 C 0.39781 0.05977 0.53649 0.0
C1412 C 0.39194 0.04286 0.54291 0.0
H1413 H 0.30255 0.10208 0.48951 0.0
H1414 H 0.32902 0.08615 0.49603 0.0
C1415 C 0.40445 0.03072 0.54671 0.0
C1416 C 0.38444 0.07254 0.53218 0.0
H1417 H 0.35119 0.09372 0.55073 0.0
C1418 C 0.38249 0.07847 0.514 0.0
C1419 C 0.37343 0.0786 0.54574 0.0
C1420 C 0.37567 0.07366 0.56579 0.0
C1421 C 0.36936 0.08976 0.50884 0.0
C1422 C 0.35763 0.09498 0.52213 0.0
C1423 C 0.36005 0.08958 0.54048 0.0
C1424 C 0.34231 0.10544 0.51721 0.0
C1425 C 0.36824 0.09603 0.48921 0.0
C1426 C 0.34082 0.12152 0.52708 0.0
C1427 C 0.32557 0.1306 0.5235 0.0
C1428 C 0.31149 0.12371 0.51003 0.0
C1429 C 0.31321 0.10782 0.49989 0.0
C1430 C 0.32841 0.09873 0.50352 0.0
H1431 H 0.38144 0.09573 0.48282 0.0
H1432 H 0.35764 0.08699 0.48059 0.0
H1433 H 0.36444 0.1098 0.4888 0.0
H1434 H 0.35133 0.12689 0.53778 0.0
H1435 H 0.32463 0.14277 0.53159 0.0
H1436 H 0.61538 0.52468 0.561 0.0
H1437 H 0.63982 0.50611 0.5566 0.0
H1438 H 0.60511 0.47382 0.51432 0.0
H1439 H 0.58049 0.49215 0.51879 0.0
H1440 H 0.62265 0.45372 0.54002 0.0
H1441 H 0.67201 0.50594 0.51286 0.0
H1442 H 0.66394 0.51196 0.53482 0.0
H1443 H 0.64819 0.50855 0.51441 0.0
C1444 C 0.61296 0.51369 0.55068 0.0
C1445 C 0.59599 0.50995 0.54018 0.0
C1446 C 0.62699 0.50313 0.54814 0.0
C1447 C 0.62438 0.48872 0.53496 0.0
C1448 C 0.60744 0.48491 0.52452 0.0
H1449 H 0.70547 0.43043 0.48887 0.0
H1450 H 0.68159 0.44907 0.49485 0.0
C1451 C 0.5934 0.49544 0.52706 0.0
C1452 C 0.63915 0.47738 0.53229 0.0
H1453 H 0.68284 0.47835 0.51943 0.0
C1454 C 0.63582 0.45909 0.53552 0.0
C1455 C 0.65625 0.48439 0.52623 0.0
C1456 C 0.66032 0.50375 0.5217 0.0
C1457 C 0.64916 0.44763 0.53296 0.0
C1458 C 0.66639 0.45472 0.52728 0.0
C1459 C 0.66969 0.47298 0.52395 0.0
C1460 C 0.68095 0.44329 0.52395 0.0
C1461 C 0.64453 0.42797 0.5359 0.0
C1462 C 0.68868 0.43394 0.5384 0.0
C1463 C 0.70239 0.42319 0.53504 0.0
C1464 C 0.70871 0.42168 0.51717 0.0
C1465 C 0.70101 0.43124 0.50281 0.0
C1466 C 0.68733 0.44194 0.50619 0.0
H1467 H 0.62953 0.42407 0.53585 0.0
H1468 H 0.64989 0.41976 0.52497 0.0
H1469 H 0.65095 0.42481 0.54959 0.0
H1470 H 0.6842 0.43505 0.5523 0.0
H1471 H 0.70804 0.41611 0.54646 0.0
H1472 H 0.73056 0.22582 0.39708 0.0
H1473 H 0.73629 0.25264 0.41772 0.0
H1474 H 0.68332 0.24014 0.4388 0.0
H1475 H 0.67757 0.21316 0.41849 0.0
H1476 H 0.71483 0.27996 0.41479 0.0
H1477 H 0.7158 0.25511 0.48627 0.0
H1478 H 0.71838 0.24099 0.46613 0.0
H1479 H 0.69607 0.24602 0.47133 0.0
C1480 C 0.7203 0.22852 0.40642 0.0
C1481 C 0.70357 0.21737 0.40605 0.0
C1482 C 0.72358 0.24389 0.41818 0.0
C1483 C 0.71027 0.24833 0.42986 0.0
C1484 C 0.69392 0.23681 0.43016 0.0
H1485 H 0.7 0.34485 0.49703 0.0
H1486 H 0.69312 0.31678 0.47801 0.0
C1487 C 0.69063 0.22142 0.41845 0.0
C1488 C 0.71267 0.26592 0.44014 0.0
H1489 H 0.71438 0.28624 0.48344 0.0
C1490 C 0.71483 0.28132 0.42982 0.0
C1491 C 0.71244 0.26765 0.45971 0.0
C1492 C 0.71071 0.25157 0.47156 0.0
C1493 C 0.71675 0.29841 0.43852 0.0
C1494 C 0.7167 0.30019 0.45806 0.0
C1495 C 0.71432 0.28481 0.46842 0.0
C1496 C 0.72015 0.31788 0.46808 0.0
C1497 C 0.71865 0.31448 0.42675 0.0
C1498 C 0.73755 0.32776 0.46864 0.0
C1499 C 0.74149 0.34361 0.47955 0.0
C1500 C 0.72799 0.35008 0.48972 0.0
C1501 C 0.71048 0.34034 0.48892 0.0
C1502 C 0.70658 0.32433 0.47816 0.0
H1503 H 0.71444 0.31097 0.41184 0.0
H1504 H 0.71026 0.32465 0.43176 0.0
H1505 H 0.7332 0.32045 0.42789 0.0
H1506 H 0.74831 0.32282 0.46127 0.0
H1507 H 0.75535 0.35036 0.48071 0.0
H1508 H 0.49137 0.023 0.93005 0.0
H1509 H 0.50987 0.0161 0.90476 0.0
H1510 H 0.5435 0.98814 0.9422 0.0
H1511 H 0.52517 0.9952 0.96776 0.0
H1512 H 0.56346 0.01358 0.92396 0.0
H1513 H 0.51525 0.97173 0.87319 0.0
H1514 H 0.50622 0.99166 0.88039 0.0
H1515 H 0.51054 0.97529 0.89717 0.0
C1516 C 0.50246 0.01507 0.93287 0.0
C1517 C 0.50685 0.00975 0.95097 0.0
C1518 C 0.51295 0.01101 0.91833 0.0
C1519 C 0.52794 0.00142 0.92153 0.0
C1520 C 0.53191 0.99546 0.93941 0.0
H1521 H 0.59613 0.98383 0.82867 0.0
H1522 H 0.57784 0.97767 0.85526 0.0
C1523 C 0.52141 0.9995 0.95399 0.0
C1524 C 0.54064 0.99963 0.90679 0.0
H1525 H 0.54189 0.98761 0.86084 0.0
C1526 C 0.55883 0.00758 0.91027 0.0
C1527 C 0.53468 0.99163 0.88899 0.0
C1528 C 0.51565 0.98193 0.88476 0.0
C1529 C 0.57088 0.00873 0.89611 0.0
C1530 C 0.56448 0.00196 0.87797 0.0
C1531 C 0.54667 0.993 0.87474 0.0
C1532 C 0.57559 0.00544 0.86194 0.0
C1533 C 0.59023 0.01759 0.90057 0.0
C1534 C 0.58011 0.02305 0.8568 0.0
C1535 C 0.59044 0.02662 0.84166 0.0
C1536 C 0.59647 0.01262 0.83127 0.0
C1537 C 0.59179 0.99493 0.83639 0.0
C1538 C 0.58132 0.99137 0.85155 0.0
H1539 H 0.5945 0.01732 0.91565 0.0
H1540 H 0.6 0.01101 0.89252 0.0
H1541 H 0.59107 0.03178 0.89682 0.0
H1542 H 0.57554 0.03406 0.86447 0.0
H1543 H 0.59375 0.0404 0.83817 0.0
H1544 H 0.35315 0.30037 0.39898 0.0
H1545 H 0.34129 0.27437 0.41553 0.0
H1546 H 0.28994 0.27107 0.38216 0.0
H1547 H 0.30179 0.29707 0.36538 0.0
H1548 H 0.28622 0.2677 0.42048 0.0
H1549 H 0.33389 0.22258 0.39495 0.0
H1550 H 0.34508 0.24332 0.40554 0.0
H1551 H 0.33059 0.24337 0.38437 0.0
C1552 C 0.33931 0.29413 0.39514 0.0
C1553 C 0.32833 0.30094 0.38098 0.0
C1554 C 0.3326 0.27921 0.40456 0.0
C1555 C 0.31485 0.27062 0.39988 0.0
C1556 C 0.30371 0.27751 0.38596 0.0
H1557 H 0.24891 0.18032 0.44194 0.0
H1558 H 0.26147 0.20487 0.42385 0.0
C1559 C 0.31042 0.29249 0.37651 0.0
C1560 C 0.30787 0.25465 0.40977 0.0
H1561 H 0.31605 0.21221 0.41941 0.0
C1562 C 0.29265 0.25553 0.42015 0.0
C1563 C 0.31635 0.23881 0.40937 0.0
C1564 C 0.33228 0.23684 0.39783 0.0
C1565 C 0.28589 0.2411 0.43045 0.0
C1566 C 0.2944 0.22528 0.43008 0.0
C1567 C 0.3096 0.22438 0.41969 0.0
C1568 C 0.28748 0.20948 0.44023 0.0
C1569 C 0.26993 0.24304 0.44196 0.0
C1570 C 0.29827 0.20341 0.45496 0.0
C1571 C 0.29117 0.18925 0.46536 0.0
C1572 C 0.27315 0.18092 0.46114 0.0
C1573 C 0.26275 0.18655 0.44578 0.0
C1574 C 0.26986 0.20064 0.43544 0.0
H1575 H 0.26793 0.25727 0.4444 0.0
H1576 H 0.25723 0.23606 0.43448 0.0
H1577 H 0.27189 0.23694 0.45563 0.0
H1578 H 0.31199 0.20999 0.45877 0.0
H1579 H 0.29958 0.18525 0.47704 0.0
H1580 H 0.54123 0.49922 0.90071 0.0
H1581 H 0.51664 0.50136 0.87658 0.0
H1582 H 0.48974 0.5329 0.91455 0.0
H1583 H 0.5142 0.53073 0.93885 0.0
H1584 H 0.46731 0.50336 0.89806 0.0
H1585 H 0.50267 0.54246 0.84484 0.0
H1586 H 0.51403 0.52393 0.85233 0.0
H1587 H 0.51217 0.54209 0.86862 0.0
C1588 C 0.53025 0.50687 0.90386 0.0
C1589 C 0.52965 0.51474 0.92175 0.0
C1590 C 0.51626 0.50817 0.89 0.0
C1591 C 0.50146 0.51744 0.89373 0.0
C1592 C 0.50109 0.52576 0.91138 0.0
H1593 H 0.41109 0.53067 0.8112 0.0
H1594 H 0.43623 0.53672 0.83563 0.0
C1595 C 0.5151 0.52451 0.92524 0.0
C1596 C 0.48559 0.51696 0.8798 0.0
H1597 H 0.47332 0.52639 0.83499 0.0
C1598 C 0.46857 0.50858 0.88435 0.0
C1599 C 0.48723 0.52392 0.86198 0.0
C1600 C 0.50497 0.53376 0.85667 0.0
C1601 C 0.45332 0.50636 0.8713 0.0
C1602 C 0.4552 0.51252 0.8532 0.0
C1603 C 0.472 0.52154 0.84885 0.0
C1604 C 0.44008 0.50897 0.83839 0.0
C1605 C 0.43534 0.49727 0.8769 0.0
C1606 C 0.43411 0.4914 0.83177 0.0
C1607 C 0.41984 0.48788 0.81782 0.0
C1608 C 0.41123 0.5019 0.81018 0.0
C1609 C 0.41733 0.51955 0.81681 0.0
C1610 C 0.43172 0.52305 0.83073 0.0
H1611 H 0.43494 0.49731 0.89227 0.0
H1612 H 0.42372 0.50387 0.87094 0.0
H1613 H 0.43341 0.48317 0.87147 0.0
H1614 H 0.44056 0.48038 0.83738 0.0
H1615 H 0.41553 0.47413 0.81309 0.0
H1616 H 0.70048 0.77198 0.14538 0.0
H1617 H 0.71311 0.75142 0.12427 0.0
H1618 H 0.68558 0.77353 0.07729 0.0
H1619 H 0.67329 0.79441 0.09823 0.0
H1620 H 0.69534 0.72565 0.10028 0.0
H1621 H 0.7369 0.77522 0.06117 0.0
H1622 H 0.72739 0.7811 0.08255 0.0
H1623 H 0.71341 0.77916 0.06085 0.0
C1624 C 0.69722 0.77255 0.13054 0.0
C1625 C 0.68596 0.78489 0.12347 0.0
C1626 C 0.70445 0.7608 0.1185 0.0
C1627 C 0.70057 0.76117 0.09918 0.0
C1628 C 0.68917 0.77334 0.09211 0.0
H1629 H 0.71223 0.69441 0.00325 0.0
H1630 H 0.70456 0.71633 0.0262 0.0
C1631 C 0.68204 0.78518 0.10411 0.0
C1632 C 0.70777 0.7483 0.08647 0.0
H1633 H 0.73152 0.74534 0.04782 0.0
C1634 C 0.70344 0.72996 0.08895 0.0
C1635 C 0.7184 0.75395 0.07173 0.0
C1636 C 0.72447 0.77343 0.06901 0.0
C1637 C 0.70893 0.71712 0.07671 0.0
C1638 C 0.71904 0.72281 0.06168 0.0
C1639 C 0.72368 0.7411 0.05936 0.0
C1640 C 0.72428 0.7099 0.0478 0.0
C1641 C 0.70346 0.69756 0.07954 0.0
C1642 C 0.73809 0.69922 0.05236 0.0
C1643 C 0.74262 0.68671 0.03925 0.0
C1644 C 0.73332 0.68463 0.02139 0.0
C1645 C 0.71963 0.69557 0.01687 0.0
C1646 C 0.71523 0.70814 0.02993 0.0
H1647 H 0.69372 0.69541 0.0905 0.0
H1648 H 0.69707 0.69073 0.06633 0.0
H1649 H 0.71585 0.69121 0.08367 0.0
H1650 H 0.74528 0.70051 0.06608 0.0
H1651 H 0.75321 0.67851 0.04321 0.0
H1652 H 0.00073 0.02364 0.11493 0.0
H1653 H 0.9802 0.01123 0.13773 0.0
H1654 H 0.96203 0.06282 0.14653 0.0
H1655 H 0.98225 0.07527 0.12378 0.0
H1656 H 0.97844 0.02182 0.17583 0.0
H1657 H 0.91415 0.02942 0.13364 0.0
H1658 H 0.93606 0.03066 0.12386 0.0
H1659 H 0.92984 0.0496 0.13665 0.0
C1660 C 0.99237 0.03234 0.12173 0.0
C1661 C 0.99303 0.05042 0.11742 0.0
C1662 C 0.98066 0.02522 0.13475 0.0
C1663 C 0.96936 0.03604 0.14355 0.0
C1664 C 0.97034 0.05416 0.1396 0.0
H1665 H 0.89077 0.02958 0.22553 0.0
H1666 H 0.91229 0.03786 0.2023 0.0
C1667 C 0.982 0.06127 0.12664 0.0
C1668 C 0.95658 0.02855 0.15698 0.0
H1669 H 0.91143 0.02326 0.16555 0.0
C1670 C 0.96376 0.02193 0.17353 0.0
C1671 C 0.93745 0.02869 0.15389 0.0
C1672 C 0.92887 0.03481 0.13597 0.0
C1673 C 0.95236 0.0161 0.18743 0.0
C1674 C 0.93328 0.0167 0.18452 0.0
C1675 C 0.92607 0.02292 0.16778 0.0
C1676 C 0.92055 0.01149 0.19889 0.0
C1677 C 0.96086 0.00997 0.20537 0.0
C1678 C 0.91795 0.99385 0.20458 0.0
C1679 C 0.90563 0.98903 0.21789 0.0
C1680 C 0.89561 0.00177 0.22572 0.0
C1681 C 0.89824 0.01941 0.21988 0.0
C1682 C 0.91054 0.02419 0.20657 0.0
H1683 H 0.97591 0.01392 0.20701 0.0
H1684 H 0.95469 0.01556 0.21753 0.0
H1685 H 0.95826 0.99519 0.20547 0.0
H1686 H 0.9253 0.98377 0.19856 0.0
H1687 H 0.90389 0.9753 0.22194 0.0
H1688 H 0.30251 0.76965 0.16411 0.0
H1689 H 0.29292 0.79359 0.14505 0.0
H1690 H 0.3356 0.7867 0.10878 0.0
H1691 H 0.34533 0.76278 0.12768 0.0
H1692 H 0.31486 0.82704 0.13216 0.0
H1693 H 0.28485 0.7771 0.07613 0.0
H1694 H 0.2898 0.77109 0.09981 0.0
H1695 H 0.30805 0.77556 0.08488 0.0
C1696 C 0.31001 0.77337 0.15221 0.0
C1697 C 0.32458 0.7642 0.14731 0.0
C1698 C 0.30454 0.78707 0.14139 0.0
C1699 C 0.31346 0.79174 0.12546 0.0
C1700 C 0.32848 0.78316 0.12097 0.0
H1701 H 0.28648 0.85281 0.03065 0.0
H1702 H 0.30149 0.83535 0.05366 0.0
C1703 C 0.33401 0.76951 0.1318 0.0
C1704 C 0.30632 0.8047 0.11281 0.0
H1705 H 0.28425 0.80741 0.06997 0.0
C1706 C 0.30816 0.82282 0.11855 0.0
C1707 C 0.29757 0.79906 0.09513 0.0
C1708 C 0.29478 0.77964 0.08857 0.0
C1709 C 0.30176 0.83559 0.10682 0.0
C1710 C 0.29296 0.82993 0.08911 0.0
C1711 C 0.29108 0.81175 0.0835 0.0
C1712 C 0.28542 0.84245 0.07607 0.0
C1713 C 0.30483 0.85501 0.11332 0.0
C1714 C 0.27159 0.85251 0.08109 0.0
C1715 C 0.26308 0.86266 0.06797 0.0
C1716 C 0.26807 0.86268 0.04954 0.0
C1717 C 0.28229 0.85302 0.04472 0.0
C1718 C 0.29088 0.84303 0.05786 0.0
H1719 H 0.31616 0.85765 0.12448 0.0
H1720 H 0.30804 0.86373 0.10163 0.0
H1721 H 0.2922 0.85871 0.11905 0.0
H1722 H 0.26686 0.85196 0.09494 0.0
H1723 H 0.25208 0.86987 0.07205 0.0
H1724 H 0.98841 0.52312 0.11958 0.0
H1725 H 0.00572 0.52743 0.15015 0.0
H1726 H 0.02502 0.47621 0.14244 0.0
H1727 H 0.00776 0.47169 0.11219 0.0
H1728 H 0.01284 0.48237 0.17806 0.0
H1729 H 0.06201 0.53875 0.15771 0.0
H1730 H 0.03816 0.54138 0.15395 0.0
H1731 H 0.04735 0.52439 0.1408 0.0
C1732 C 0.99629 0.51276 0.12443 0.0
C1733 C 0.99678 0.49712 0.11336 0.0
C1734 C 0.00623 0.51528 0.14185 0.0
C1735 C 0.01683 0.50222 0.14843 0.0
C1736 C 0.01698 0.48647 0.1376 0.0
H1737 H 0.09375 0.48468 0.24008 0.0
H1738 H 0.0716 0.48201 0.21286 0.0
C1739 C 0.00712 0.48395 0.12026 0.0
C1740 C 0.02807 0.50487 0.16645 0.0
H1741 H 0.0658 0.52968 0.18848 0.0
C1742 C 0.02437 0.49277 0.1804 0.0
C1743 C 0.0431 0.51844 0.16943 0.0
C1744 C 0.04806 0.53143 0.15467 0.0
C1745 C 0.03535 0.49382 0.19726 0.0
C1746 C 0.05063 0.50712 0.20007 0.0
C1747 C 0.0541 0.51946 0.18627 0.0
C1748 C 0.06343 0.50836 0.21706 0.0
C1749 C 0.0304 0.48076 0.21195 0.0
C1750 C 0.06642 0.52414 0.22828 0.0
C1751 C 0.07915 0.52578 0.24375 0.0
C1752 C 0.08928 0.51166 0.24831 0.0
C1753 C 0.08614 0.49578 0.23709 0.0
C1754 C 0.07339 0.49418 0.22157 0.0
H1755 H 0.01579 0.47494 0.20993 0.0
H1756 H 0.0389 0.46964 0.21109 0.0
H1757 H 0.03303 0.48726 0.22612 0.0
H1758 H 0.05895 0.53528 0.22499 0.0
H1759 H 0.08118 0.53823 0.252 0.0
H1760 H 0.34798 0.69289 0.24767 0.0
H1761 H 0.3689 0.69394 0.27558 0.0
H1762 H 0.40848 0.72966 0.24962 0.0
H1763 H 0.3881 0.72775 0.22121 0.0
H1764 H 0.42468 0.70462 0.26762 0.0
H1765 H 0.37862 0.73472 0.31376 0.0
H1766 H 0.36882 0.71372 0.30271 0.0
H1767 H 0.37404 0.7327 0.28881 0.0
C1768 C 0.36128 0.70057 0.24764 0.0
C1769 C 0.36645 0.70991 0.23197 0.0
C1770 C 0.37312 0.70146 0.26381 0.0
C1771 C 0.39019 0.71205 0.2648 0.0
C1772 C 0.39538 0.72139 0.24919 0.0
H1773 H 0.45823 0.75727 0.3602 0.0
H1774 H 0.43596 0.7497 0.33347 0.0
C1775 C 0.38365 0.72035 0.23298 0.0
C1776 C 0.40271 0.71358 0.28203 0.0
H1777 H 0.40626 0.72716 0.32789 0.0
C1778 C 0.42065 0.70945 0.28086 0.0
C1779 C 0.39747 0.72009 0.29923 0.0
C1780 C 0.37876 0.72573 0.30123 0.0
C1781 C 0.4336 0.71194 0.2963 0.0
C1782 C 0.42829 0.7182 0.31359 0.0
C1783 C 0.41026 0.72207 0.31478 0.0
C1784 C 0.44152 0.72228 0.33019 0.0
C1785 C 0.45302 0.70863 0.29366 0.0
C1786 C 0.45198 0.70936 0.33744 0.0
C1787 C 0.46495 0.71381 0.35258 0.0
C1788 C 0.46708 0.73099 0.36112 0.0
C1789 C 0.45648 0.7438 0.35405 0.0
C1790 C 0.4438 0.73948 0.33878 0.0
H1791 H 0.45587 0.7086 0.27875 0.0
H1792 H 0.46302 0.71892 0.30147 0.0
H1793 H 0.45525 0.69536 0.29888 0.0
H1794 H 0.45017 0.69588 0.33137 0.0
H1795 H 0.47315 0.70381 0.35777 0.0
H1796 H 0.97971 0.43124 0.0053 0.0
H1797 H 0.98348 0.40447 0.98645 0.0
H1798 H 0.99843 0.37792 0.03624 0.0
H1799 H 0.99507 0.40464 0.05509 0.0
H1800 H 0.02111 0.37287 0.0085 0.0
H1801 H 0.9481 0.35854 0.98167 0.0
H1802 H 0.95871 0.38043 0.97704 0.0
H1803 H 0.95577 0.37455 0.00065 0.0
C1804 C 0.98376 0.41969 0.01223 0.0
C1805 C 0.98699 0.42004 0.03171 0.0
C1806 C 0.98585 0.40438 0.00145 0.0
C1807 C 0.991 0.38912 0.00997 0.0
C1808 C 0.99442 0.38953 0.02937 0.0
H1809 H 0.97546 0.28144 0.96295 0.0
H1810 H 0.97642 0.30869 0.98241 0.0
C1811 C 0.99243 0.40482 0.04013 0.0
C1812 C 0.99277 0.37262 0.9988 0.0
H1813 H 0.96861 0.34031 0.96938 0.0
C1814 C 0.00965 0.36574 -7e-05 0.0
C1815 C 0.97773 0.36323 0.98782 0.0
C1816 C 0.959 0.36943 0.98681 0.0
C1817 C 0.0119 0.34971 0.99035 0.0
C1818 C 0.99694 0.34051 0.9791 0.0
C1819 C 0.98009 0.34743 0.97796 0.0
C1820 C 0.99816 0.32343 0.96869 0.0
C1821 C 0.0301 0.34254 0.99274 0.0
C1822 C 0.01039 0.32251 0.95478 0.0
C1823 C 0.01001 0.30683 0.9437 0.0
C1824 C 0.99719 0.2919 0.94618 0.0
C1825 C 0.98546 0.2927 0.9606 0.0
C1826 C 0.98595 0.30829 0.97173 0.0
H1827 H 0.0384 0.3485 0.00543 0.0
H1828 H 0.02821 0.32779 0.99363 0.0
H1829 H 0.03796 0.34588 0.98055 0.0
H1830 H 0.01971 0.33413 0.95196 0.0
H1831 H 0.01911 0.30674 0.9326 0.0
H1832 H 0.60956 0.86352 0.26093 0.0
H1833 H 0.59034 0.8536 0.28565 0.0
H1834 H 0.6331 0.82511 0.30922 0.0
H1835 H 0.65252 0.83511 0.28467 0.0
H1836 H 0.57914 0.81772 0.29082 0.0
H1837 H 0.6164 0.85037 0.35515 0.0
H1838 H 0.62076 0.85785 0.33221 0.0
H1839 H 0.63023 0.83858 0.34073 0.0
C1840 C 0.61503 0.8554 0.27155 0.0
C1841 C 0.63256 0.85004 0.27077 0.0
C1842 C 0.60401 0.84975 0.28567 0.0
C1843 C 0.61035 0.83876 0.29936 0.0
C1844 C 0.62807 0.83387 0.299 0.0
H1845 H 0.56146 0.77291 0.38217 0.0
H1846 H 0.58221 0.79024 0.36274 0.0
C1847 C 0.63911 0.83951 0.28488 0.0
C1848 C 0.59777 0.83095 0.31282 0.0
H1849 H 0.59226 0.82716 0.35917 0.0
C1850 C 0.5819 0.81993 0.30576 0.0
C1851 C 0.60151 0.83375 0.33229 0.0
C1852 C 0.61807 0.8459 0.34059 0.0
C1853 C 0.56987 0.81127 0.31764 0.0
C1854 C 0.5736 0.81402 0.33713 0.0
C1855 C 0.58941 0.82514 0.34422 0.0
C1856 C 0.56144 0.80499 0.35027 0.0
C1857 C 0.55358 0.79877 0.30919 0.0
C1858 C 0.54303 0.80796 0.35013 0.0
C1859 C 0.53113 0.79801 0.36112 0.0
C1860 C 0.53748 0.78503 0.37258 0.0
C1861 C 0.55614 0.78276 0.37343 0.0
C1862 C 0.56802 0.79266 0.36236 0.0
H1863 H 0.5552 0.79476 0.29449 0.0
H1864 H 0.55145 0.78653 0.31723 0.0
H1865 H 0.54111 0.8056 0.30944 0.0
H1866 H 0.53777 0.81769 0.34118 0.0
H1867 H 0.51686 0.8002 0.36028 0.0
H1868 H 0.05109 0.08518 0.00164 0.0
H1869 H 0.04802 0.10984 0.98084 0.0
H1870 H 0.02389 0.13838 0.02357 0.0
H1871 H 0.02694 0.11403 0.04439 0.0
H1872 H 0.01506 0.12291 0.96872 0.0
H1873 H 0.06356 0.17602 0.00675 0.0
H1874 H 0.06381 0.1526 0.01091 0.0
H1875 H 0.04747 0.16492 0.02129 0.0
C1876 C 0.04531 0.09679 0.00667 0.0
C1877 C 0.03928 0.09762 0.0247 0.0
C1878 C 0.04356 0.11085 0.99476 0.0
C1879 C 0.03598 0.12604 0.00077 0.0
C1880 C 0.03011 0.12695 0.01879 0.0
H1881 H 0.97792 0.20222 0.94558 0.0
H1882 H 0.98875 0.17745 0.96212 0.0
C1883 C 0.03176 0.11293 0.03063 0.0
C1884 C 0.03309 0.14056 0.98799 0.0
H1885 H 0.04154 0.18572 0.98438 0.0
C1886 C 0.02105 0.13661 0.97198 0.0
C1887 C 0.04108 0.15838 0.99215 0.0
C1888 C 0.05485 0.16325 0.00861 0.0
C1889 C 0.01608 0.15017 0.96054 0.0
C1890 C 0.02318 0.16813 0.96537 0.0
C1891 C 0.03595 0.17196 0.98082 0.0
C1892 C 0.01678 0.18317 0.95513 0.0
C1893 C 0.00309 0.14517 0.94349 0.0
C1894 C 0.02906 0.1949 0.94608 0.0
C1895 C 0.02293 0.20919 0.93662 0.0
C1896 C 0.00442 0.21212 0.93622 0.0
C1897 C 0.99225 0.20042 0.94555 0.0
C1898 C 0.99838 0.18614 0.95491 0.0
H1899 H 0.00308 0.13098 0.93885 0.0
H1900 H 0.98899 0.14703 0.94683 0.0
H1901 H 0.00672 0.15377 0.93182 0.0
H1902 H 0.04336 0.19291 0.94623 0.0
H1903 H 0.03271 0.21794 0.92965 0.0
H1904 H 0.37693 0.33403 0.28682 0.0
H1905 H 0.39256 0.32215 0.26123 0.0
H1906 H 0.43209 0.30376 0.3008 0.0
H1907 H 0.41699 0.31623 0.32638 0.0
H1908 H 0.44852 0.31823 0.27262 0.0
H1909 H 0.38876 0.2706 0.24465 0.0
H1910 H 0.38424 0.29341 0.24518 0.0
H1911 H 0.38918 0.28284 0.26663 0.0
C1912 C 0.38897 0.32747 0.29005 0.0
C1913 C 0.39567 0.32595 0.30861 0.0
C1914 C 0.39782 0.32059 0.27541 0.0
C1915 C 0.41326 0.3117 0.27909 0.0
C1916 C 0.42015 0.31049 0.29762 0.0
H1917 H 0.45588 0.23491 0.20934 0.0
H1918 H 0.44032 0.2515 0.23155 0.0
C1919 C 0.41149 0.31761 0.31223 0.0
C1920 C 0.42227 0.30354 0.26375 0.0
H1921 H 0.41475 0.27284 0.2272 0.0
C1922 C 0.44114 0.30831 0.26267 0.0
C1923 C 0.41266 0.29046 0.25089 0.0
C1924 C 0.39264 0.28388 0.25196 0.0
C1925 C 0.45072 0.30019 0.24929 0.0
C1926 C 0.44104 0.28735 0.23621 0.0
C1927 C 0.42212 0.28279 0.23712 0.0
C1928 C 0.4504 0.27755 0.22229 0.0
C1929 C 0.47122 0.30494 0.24982 0.0
C1930 C 0.46108 0.28665 0.20947 0.0
C1931 C 0.47026 0.27717 0.19687 0.0
C1932 C 0.4686 0.2584 0.19661 0.0
C1933 C 0.45744 0.24935 0.2091 0.0
C1934 C 0.44852 0.25882 0.22184 0.0
H1935 H 0.47701 0.31117 0.26352 0.0
H1936 H 0.47809 0.29295 0.24693 0.0
H1937 H 0.4745 0.31469 0.23905 0.0
H1938 H 0.46233 0.30107 0.20919 0.0
H1939 H 0.47859 0.28454 0.18729 0.0
H1940 H 0.54836 0.40234 0.03641 0.0
H1941 H 0.54365 0.37511 0.05368 0.0
H1942 H 0.53735 0.40657 0.10337 0.0
H1943 H 0.5418 0.43388 0.08616 0.0
H1944 H 0.56261 0.36433 0.08555 0.0
H1945 H 0.49027 0.37121 0.09747 0.0
H1946 H 0.50272 0.38417 0.08094 0.0
H1947 H 0.50633 0.39026 0.10537 0.0
C1948 C 0.54605 0.40349 0.05103 0.0
C1949 C 0.54531 0.42027 0.05987 0.0
C1950 C 0.54337 0.38792 0.06088 0.0
C1951 C 0.53984 0.38882 0.07971 0.0
C1952 C 0.53969 0.40557 0.08874 0.0
H1953 H 0.54113 0.3014 0.15539 0.0
H1954 H 0.54757 0.3295 0.13987 0.0
C1955 C 0.54234 0.42116 0.0789 0.0
C1956 C 0.5361 0.37219 0.08979 0.0
H1957 H 0.50328 0.34778 0.11239 0.0
C1958 C 0.54966 0.36069 0.09144 0.0
C1959 C 0.51908 0.36739 0.09722 0.0
C1960 C 0.50368 0.3788 0.09505 0.0
C1961 C 0.5467 0.34456 0.10048 0.0
C1962 C 0.52985 0.33998 0.10831 0.0
C1963 C 0.51624 0.35141 0.10652 0.0
C1964 C 0.52583 0.32313 0.11796 0.0
C1965 C 0.56149 0.33238 0.1012 0.0
C1966 C 0.51116 0.31046 0.11108 0.0
C1967 C 0.50736 0.29447 0.11999 0.0
C1968 C 0.51813 0.29088 0.136 0.0
C1969 C 0.53265 0.30372 0.14303 0.0
C1970 C 0.53642 0.31974 0.13412 0.0
H1971 H 0.5715 0.33565 0.0907 0.0
H1972 H 0.56904 0.33391 0.11517 0.0
H1973 H 0.55551 0.31819 0.09883 0.0
H1974 H 0.50277 0.31287 0.09868 0.0
H1975 H 0.49606 0.28486 0.11425 0.0
H1976 H 0.60168 0.18256 0.34135 0.0
H1977 H 0.5818 0.1886 0.31433 0.0
H1978 H 0.62529 0.18269 0.27873 0.0
H1979 H 0.64526 0.17637 0.30569 0.0
H1980 H 0.58839 0.21685 0.29139 0.0
H1981 H 0.58133 0.15194 0.2511 0.0
H1982 H 0.58976 0.15441 0.27532 0.0
H1983 H 0.60452 0.16149 0.25757 0.0
C1984 C 0.60697 0.1823 0.32775 0.0
C1985 C 0.62506 0.17899 0.32567 0.0
C1986 C 0.59559 0.18579 0.31233 0.0
C1987 C 0.60203 0.18597 0.29453 0.0
C1988 C 0.61995 0.18231 0.29231 0.0
H1989 H 0.55168 0.23753 0.20084 0.0
H1990 H 0.57289 0.22927 0.2258 0.0
C1991 C 0.63136 0.17877 0.30774 0.0
C1992 C 0.59027 0.19102 0.27854 0.0
H1993 H 0.56913 0.1759 0.23624 0.0
C1994 C 0.58417 0.20791 0.27932 0.0
C1995 C 0.58471 0.17926 0.2629 0.0
C1996 C 0.59026 0.16069 0.26166 0.0
C1997 C 0.57261 0.21338 0.26489 0.0
C1998 C 0.56729 0.20174 0.2491 0.0
C1999 C 0.57338 0.18484 0.24831 0.0
C2000 C 0.55475 0.20657 0.23364 0.0
C2001 C 0.56582 0.23137 0.26689 0.0
C2002 C 0.53772 0.19628 0.22949 0.0
C2003 C 0.5256 0.20088 0.21519 0.0
C2004 C 0.5303 0.21586 0.20468 0.0
C2005 C 0.54753 0.22601 0.20873 0.0
C2006 C 0.55966 0.22135 0.22303 0.0
H2007 H 0.56759 0.23674 0.28155 0.0
H2008 H 0.57371 0.24099 0.25835 0.0
H2009 H 0.55113 0.23055 0.26192 0.0
H2010 H 0.5337 0.18478 0.23749 0.0
H2011 H 0.51252 0.19268 0.21245 0.0
H2012 H 0.52152 0.0934 0.02049 0.0
H2013 H 0.52247 0.12064 0.04002 0.0
H2014 H 0.47854 0.09569 0.06997 0.0
H2015 H 0.47773 0.06817 0.0507 0.0
H2016 H 0.49614 0.14259 0.04518 0.0
H2017 H 0.51759 0.11335 0.11158 0.0
H2018 H 0.51821 0.10199 0.08924 0.0
H2019 H 0.49693 0.10189 0.09988 0.0
C2020 C 0.51206 0.09366 0.03125 0.0
C2021 C 0.49963 0.07857 0.03413 0.0
C2022 C 0.51261 0.10927 0.04237 0.0
C2023 C 0.50076 0.1101 0.05661 0.0
C2024 C 0.48807 0.09519 0.05931 0.0
H2025 H 0.4802 0.20842 0.11425 0.0
H2026 H 0.47846 0.18197 0.09311 0.0
C2027 C 0.48757 0.07952 0.04823 0.0
C2028 C 0.50177 0.12663 0.06856 0.0
H2029 H 0.51021 0.14291 0.11348 0.0
C2030 C 0.49915 0.14269 0.06014 0.0
C2031 C 0.50606 0.12675 0.088 0.0
C2032 C 0.51004 0.11012 0.09773 0.0
C2033 C 0.5005 0.15887 0.07066 0.0
C2034 C 0.50417 0.1589 0.09021 0.0
C2035 C 0.50705 0.14285 0.09856 0.0
C2036 C 0.50535 0.17537 0.10233 0.0
C2037 C 0.49854 0.17581 0.06063 0.0
C2038 C 0.52088 0.18033 0.11474 0.0
C2039 C 0.52163 0.19512 0.12709 0.0
C2040 C 0.50673 0.20497 0.12748 0.0
C2041 C 0.49154 0.20055 0.11459 0.0
C2042 C 0.49072 0.18567 0.10229 0.0
H2043 H 0.50166 0.17442 0.04585 0.0
H2044 H 0.4842 0.17879 0.06077 0.0
H2045 H 0.50772 0.18733 0.06743 0.0
H2046 H 0.53239 0.17267 0.11495 0.0
H2047 H 0.53368 0.19864 0.13663 0.0
H2048 H 0.21199 0.38429 0.67236 0.0
H2049 H 0.23724 0.40601 0.68565 0.0
H2050 H 0.23133 0.38448 0.73973 0.0
H2051 H 0.20648 0.36224 0.72637 0.0
H2052 H 0.23829 0.43226 0.71414 0.0
H2053 H 0.28543 0.38225 0.73213 0.0
H2054 H 0.26474 0.37675 0.71702 0.0
H2055 H 0.26361 0.37873 0.7418 0.0
C2056 C 0.21602 0.38419 0.6871 0.0
C2057 C 0.20705 0.37166 0.69836 0.0
C2058 C 0.23042 0.39665 0.69468 0.0
C2059 C 0.23627 0.39674 0.71362 0.0
C2060 C 0.22715 0.38449 0.72502 0.0
H2061 H 0.32606 0.46235 0.77851 0.0
H2062 H 0.29953 0.44042 0.76834 0.0
C2063 C 0.21271 0.37198 0.71743 0.0
C2064 C 0.25207 0.40959 0.72125 0.0
H2065 H 0.29585 0.41238 0.74092 0.0
C2066 C 0.25089 0.42793 0.72001 0.0
C2067 C 0.26847 0.40387 0.7289 0.0
C2068 C 0.27079 0.38434 0.72994 0.0
C2069 C 0.26569 0.44073 0.72624 0.0
C2070 C 0.28219 0.435 0.73362 0.0
C2071 C 0.28324 0.41669 0.73517 0.0
C2072 C 0.29858 0.4478 0.7396 0.0
C2073 C 0.26348 0.46027 0.72508 0.0
C2074 C 0.307 0.45894 0.72674 0.0
C2075 C 0.32218 0.47133 0.73251 0.0
C2076 C 0.32944 0.4724 0.7511 0.0
C2077 C 0.32104 0.46127 0.76396 0.0
C2078 C 0.30584 0.4489 0.75821 0.0
H2079 H 0.24882 0.46244 0.72383 0.0
H2080 H 0.27039 0.4681 0.7375 0.0
H2081 H 0.2698 0.46551 0.71258 0.0
H2082 H 0.30177 0.45811 0.71226 0.0
H2083 H 0.3283 0.48004 0.72247 0.0
H2084 H 0.26384 0.62134 0.89585 0.0
H2085 H 0.28625 0.60702 0.87929 0.0
H2086 H 0.26163 0.62192 0.82696 0.0
H2087 H 0.23895 0.63605 0.8434 0.0
H2088 H 0.2654 0.58656 0.82723 0.0
H2089 H 0.33095 0.62638 0.85315 0.0
H2090 H 0.31746 0.61848 0.87155 0.0
H2091 H 0.30902 0.63408 0.8558 0.0
C2092 C 0.26335 0.62182 0.88084 0.0
C2093 C 0.24956 0.62979 0.87094 0.0
C2094 C 0.27627 0.61373 0.8714 0.0
C2095 C 0.27577 0.6136 0.8519 0.0
C2096 C 0.26233 0.62196 0.84202 0.0
H2097 H 0.35397 0.56696 0.78465 0.0
H2098 H 0.3361 0.58815 0.79939 0.0
C2099 C 0.24937 0.63002 0.85144 0.0
C2100 C 0.28813 0.60329 0.84179 0.0
H2101 H 0.33304 0.59777 0.83833 0.0
C2102 C 0.28019 0.58915 0.82951 0.0
C2103 C 0.30743 0.60678 0.84462 0.0
C2104 C 0.31674 0.62237 0.85685 0.0
C2105 C 0.29099 0.57801 0.8205 0.0
C2106 C 0.31024 0.58091 0.8241 0.0
C2107 C 0.31826 0.59546 0.8358 0.0
C2108 C 0.3221 0.56857 0.81622 0.0
C2109 C 0.2817 0.56315 0.80727 0.0
C2110 C 0.32049 0.55071 0.82122 0.0
C2111 C 0.33062 0.53862 0.81288 0.0
C2112 C 0.34264 0.54419 0.79941 0.0
C2113 C 0.34478 0.56226 0.79494 0.0
C2114 C 0.33461 0.57438 0.80334 0.0
H2115 H 0.26763 0.56558 0.80234 0.0
H2116 H 0.28969 0.56157 0.79499 0.0
H2117 H 0.28068 0.55041 0.81453 0.0
H2118 H 0.31113 0.54605 0.83138 0.0
H2119 H 0.32874 0.52483 0.81673 0.0
H2120 H 0.94477 0.47771 0.53357 0.0
H2121 H 0.91394 0.46233 0.53599 0.0
H2122 H 0.89069 0.50593 0.51021 0.0
H2123 H 0.92144 0.52145 0.50773 0.0
H2124 H 0.87348 0.49203 0.54349 0.0
H2125 H 0.88105 0.43992 0.48895 0.0
H2126 H 0.89891 0.44356 0.50755 0.0
H2127 H 0.89585 0.46087 0.49162 0.0
C2128 C 0.93311 0.48407 0.52847 0.0
C2129 C 0.93556 0.50075 0.52033 0.0
C2130 C 0.91552 0.47525 0.52986 0.0
C2131 C 0.9001 0.48296 0.52316 0.0
C2132 C 0.90245 0.49979 0.51546 0.0
H2133 H 0.7906 0.43577 0.49046 0.0
H2134 H 0.82061 0.4534 0.49414 0.0
C2135 C 0.92003 0.50859 0.51398 0.0
C2136 C 0.88151 0.47319 0.5235 0.0
H2137 H 0.85351 0.43711 0.50372 0.0
C2138 C 0.86909 0.47998 0.53488 0.0
C2139 C 0.87586 0.45757 0.51213 0.0
C2140 C 0.88851 0.45004 0.49924 0.0
C2141 C 0.85109 0.47148 0.53516 0.0
C2142 C 0.84548 0.45586 0.52379 0.0
C2143 C 0.85793 0.44907 0.51248 0.0
C2144 C 0.82652 0.4467 0.52265 0.0
C2145 C 0.83803 0.47946 0.5472 0.0
C2146 C 0.81977 0.43731 0.53763 0.0
C2147 C 0.80252 0.42711 0.5356 0.0
C2148 C 0.7918 0.4261 0.51851 0.0
C2149 C 0.79842 0.43614 0.50382 0.0
C2150 C 0.81561 0.44625 0.50586 0.0
H2151 H 0.84363 0.49304 0.55294 0.0
H2152 H 0.82476 0.48022 0.53913 0.0
H2153 H 0.83531 0.47076 0.55901 0.0
H2154 H 0.8281 0.43735 0.55064 0.0
H2155 H 0.79791 0.41952 0.54718 0.0
H2156 H 0.74 0.85148 0.84095 0.0
H2157 H 0.71709 0.87026 0.82937 0.0
H2158 H 0.74304 0.91403 0.8658 0.0
H2159 H 0.76595 0.89552 0.87738 0.0
H2160 H 0.69236 0.89054 0.84929 0.0
H2161 H 0.74326 0.93336 0.81245 0.0
H2162 H 0.74727 0.91164 0.82034 0.0
H2163 H 0.74997 0.93062 0.83653 0.0
C2164 C 0.74074 0.86506 0.84661 0.0
C2165 C 0.75492 0.87205 0.85997 0.0
C2166 C 0.72764 0.87575 0.83998 0.0
C2167 C 0.72858 0.89359 0.84653 0.0
C2168 C 0.74227 0.90037 0.86036 0.0
H2169 H 0.67624 0.98685 0.82567 0.0
H2170 H 0.69451 0.96399 0.83688 0.0
C2171 C 0.75532 0.88973 0.867 0.0
C2172 C 0.71571 0.90543 0.83856 0.0
H2173 H 0.71438 0.94367 0.81497 0.0
C2174 C 0.69708 0.90207 0.84164 0.0
C2175 C 0.72195 0.9204 0.82851 0.0
C2176 C 0.74167 0.92419 0.82408 0.0
C2177 C 0.68464 0.91377 0.83556 0.0
C2178 C 0.69101 0.92899 0.82593 0.0
C2179 C 0.70955 0.93204 0.82246 0.0
C2180 C 0.67893 0.94238 0.81985 0.0
C2181 C 0.66495 0.9101 0.84007 0.0
C2182 C 0.66403 0.93781 0.80658 0.0
C2183 C 0.65349 0.9509 0.80015 0.0
C2184 C 0.65778 0.96877 0.80679 0.0
C2185 C 0.67257 0.97322 0.82024 0.0
C2186 C 0.68304 0.96016 0.82667 0.0
H2187 H 0.66317 0.90021 0.85103 0.0
H2188 H 0.65979 0.92259 0.84479 0.0
H2189 H 0.65641 0.90465 0.82736 0.0
H2190 H 0.66082 0.92423 0.80087 0.0
H2191 H 0.64223 0.94707 0.78971 0.0
H2192 H 0.59116 0.50687 0.98029 0.0
H2193 H 0.61837 0.52831 0.97732 0.0
H2194 H 0.63038 0.53031 0.03683 0.0
H2195 H 0.60306 0.50912 0.03994 0.0
H2196 H 0.62944 0.56463 0.01909 0.0
H2197 H 0.67384 0.52021 0.98601 0.0
H2198 H 0.65064 0.51922 0.976 0.0
H2199 H 0.65494 0.51175 0.99905 0.0
C2200 C 0.59947 0.51202 0.99274 0.0
C2201 C 0.59478 0.50658 0.01038 0.0
C2202 C 0.61516 0.52405 0.991 0.0
C2203 C 0.6264 0.53078 0.00685 0.0
C2204 C 0.62189 0.5252 0.02443 0.0
H2205 H 0.71636 0.61706 0.02842 0.0
H2206 H 0.69048 0.5941 0.03098 0.0
C2207 C 0.6063 0.51309 0.02617 0.0
C2208 C 0.64233 0.5444 0.00528 0.0
H2209 H 0.68498 0.5508 0.98966 0.0
C2210 C 0.64162 0.56169 0.01263 0.0
C2211 C 0.65808 0.54043 0.99682 0.0
C2212 C 0.65961 0.52188 0.9891 0.0
C2213 C 0.65613 0.57533 0.01151 0.0
C2214 C 0.67214 0.57143 0.00319 0.0
C2215 C 0.67278 0.55398 0.99589 0.0
C2216 C 0.68839 0.58506 0.00193 0.0
C2217 C 0.65371 0.59371 0.01907 0.0
C2218 C 0.69693 0.58685 0.98516 0.0
C2219 C 0.71229 0.59946 0.98397 0.0
C2220 C 0.7189 0.61105 0.99923 0.0
C2221 C 0.71094 0.6088 0.01619 0.0
C2222 C 0.696 0.5958 0.01759 0.0
H2223 H 0.6391 0.59603 0.01756 0.0
H2224 H 0.65815 0.59487 0.03415 0.0
H2225 H 0.66177 0.60433 0.01202 0.0
H2226 H 0.6917 0.57852 0.97292 0.0
H2227 H 0.71897 0.60018 0.97111 0.0
H2228 H 0.29711 0.61877 0.23434 0.0
H2229 H 0.27255 0.59519 0.23977 0.0
H2230 H 0.24539 0.63325 0.26992 0.0
H2231 H 0.2697 0.65697 0.26434 0.0
H2232 H 0.2596 0.58241 0.27264 0.0
H2233 H 0.20567 0.61142 0.23021 0.0
H2234 H 0.22974 0.61895 0.22938 0.0
H2235 H 0.21751 0.62647 0.24821 0.0
C2236 C 0.28595 0.62213 0.24218 0.0
C2237 C 0.28528 0.63979 0.24877 0.0
C2238 C 0.27193 0.60863 0.24527 0.0
C2239 C 0.257 0.61255 0.25493 0.0
C2240 C 0.25659 0.63003 0.26205 0.0
H2241 H 0.17632 0.53925 0.30323 0.0
H2242 H 0.20231 0.56109 0.29724 0.0
C2243 C 0.27057 0.64354 0.25894 0.0
C2244 C 0.24181 0.59837 0.2575 0.0
H2245 H 0.19581 0.5869 0.24818 0.0
C2246 C 0.24565 0.58335 0.26727 0.0
C2247 C 0.22368 0.59951 0.2502 0.0
C2248 C 0.21887 0.61486 0.23875 0.0
C2249 C 0.23174 0.56961 0.2703 0.0
C2250 C 0.2135 0.57109 0.26362 0.0
C2251 C 0.20975 0.5859 0.25347 0.0
C2252 C 0.19803 0.55759 0.26723 0.0
C2253 C 0.23677 0.55353 0.28042 0.0
C2254 C 0.18681 0.54862 0.25236 0.0
C2255 C 0.17183 0.53632 0.2558 0.0
C2256 C 0.16762 0.53323 0.27412 0.0
C2257 C 0.17906 0.54188 0.28897 0.0
C2258 C 0.19403 0.55412 0.28556 0.0
H2259 H 0.25148 0.55198 0.27973 0.0
H2260 H 0.23419 0.55522 0.2953 0.0
H2261 H 0.22841 0.5411 0.27455 0.0
H2262 H 0.18967 0.55111 0.23811 0.0
H2263 H 0.16335 0.52946 0.24418 0.0
H2264 H 0.93997 0.55914 0.0369 0.0
H2265 H 0.91668 0.57868 0.02892 0.0
H2266 H 0.87465 0.53834 0.04422 0.0
H2267 H 0.89785 0.51887 0.05254 0.0
H2268 H 0.88751 0.57324 0.00278 0.0
H2269 H 0.86318 0.58231 0.07292 0.0
H2270 H 0.88408 0.573 0.06922 0.0
H2271 H 0.86233 0.55927 0.06547 0.0
C2272 C 0.92579 0.55447 0.03871 0.0
C2273 C 0.92079 0.53747 0.04546 0.0
C2274 C 0.91248 0.56565 0.03411 0.0
C2275 C 0.89394 0.56009 0.03623 0.0
C2276 C 0.88891 0.54309 0.04287 0.0
H2277 H 0.79831 0.59994 0.98416 0.0
H2278 H 0.82444 0.58385 0.99213 0.0
C2279 C 0.90219 0.53193 0.04753 0.0
C2280 C 0.87979 0.57183 0.03095 0.0
H2281 H 0.84466 0.59167 0.04749 0.0
C2282 C 0.87822 0.57738 0.01259 0.0
C2283 C 0.86784 0.57745 0.04381 0.0
C2284 C 0.86952 0.57286 0.064 0.0
C2285 C 0.86472 0.58799 0.00661 0.0
C2286 C 0.85223 0.59291 0.01926 0.0
C2287 C 0.85412 0.58775 0.03774 0.0
C2288 C 0.83695 0.60322 0.01362 0.0
C2289 C 0.8641 0.59398 0.98688 0.0
C2290 C 0.83511 0.61936 0.02318 0.0
C2291 C 0.82009 0.62851 0.01876 0.0
C2292 C 0.80655 0.62166 0.00471 0.0
C2293 C 0.80857 0.60565 0.99494 0.0
C2294 C 0.82356 0.59647 0.99942 0.0
H2295 H 0.87753 0.59375 0.98092 0.0
H2296 H 0.8538 0.58476 0.9781 0.0
H2297 H 0.86016 0.60769 0.9861 0.0
H2298 H 0.84522 0.62479 0.03423 0.0
H2299 H 0.81893 0.64079 0.02658 0.0
H2300 H 0.07053 0.98767 0.03041 0.0
H2301 H 0.09298 0.96752 0.02355 0.0
H2302 H 0.13677 0.01012 0.03793 0.0
H2303 H 0.11443 0.0301 0.04555 0.0
H2304 H 0.11728 0.96792 0.99886 0.0
H2305 H 0.15421 0.97182 0.06877 0.0
H2306 H 0.13288 0.9809 0.06437 0.0
H2307 H 0.15415 0.99342 0.05927 0.0
C2308 C 0.08496 0.99272 0.03218 0.0
C2309 C 0.09072 0.01044 0.03868 0.0
C2310 C 0.09778 0.98119 0.02825 0.0
C2311 C 0.11662 0.98715 0.0306 0.0
C2312 C 0.12237 0.005 0.03658 0.0
H2313 H 0.2004 0.93533 0.97933 0.0
H2314 H 0.17721 0.9542 0.98717 0.0
C2315 C 0.10956 0.01647 0.04078 0.0
C2316 C 0.13019 0.97482 0.02637 0.0
H2317 H 0.16877 0.95864 0.0442 0.0
C2318 C 0.12846 0.9658 0.00883 0.0
C2319 C 0.14461 0.97175 0.03948 0.0
C2320 C 0.14648 0.97984 0.05909 0.0
C2321 C 0.14092 0.95411 0.00391 0.0
C2322 C 0.15593 0.95183 0.01664 0.0
C2323 C 0.15744 0.96056 0.03432 0.0
C2324 C 0.1702 0.94044 0.01196 0.0
C2325 C 0.1376 0.94407 0.98524 0.0
C2326 C 0.17457 0.92685 0.02366 0.0
C2327 C 0.18814 0.91626 0.01943 0.0
C2328 C 0.19755 0.91898 0.00332 0.0
C2329 C 0.19325 0.93271 0.99171 0.0
C2330 C 0.17988 0.94344 0.9961 0.0
H2331 H 0.12292 0.94274 0.98005 0.0
H2332 H 0.14556 0.95154 0.97494 0.0
H2333 H 0.14191 0.93051 0.98595 0.0
H2334 H 0.16737 0.92433 0.03603 0.0
H2335 H 0.19109 0.9058 0.02866 0.0
loop_
_geom_bond_atom_site_label_1
_geom_bond_atom_site_label_2
_geom_bond_distance
_geom_bond_site_symmetry_2
_ccdc_geom_bond_type
O0 Cd1 2.300 . S
O0 C7 1.275 . S
Cd1 O0 2.300 . S
Cd1 O9 2.381 . S
Cd1 O10 2.378 . S
O2 Cd3 2.385 . S
O2 C7 1.255 . S
Cd3 O2 2.385 . S
Cd3 O4 2.317 . S
O4 Cd3 2.317 . S
O4 C5 1.232 . S
C5 O4 1.232 . S
C5 O6 1.219 1_455 S
O6 C5 1.219 1_655 S
C7 O0 1.275 . S
C7 O2 1.255 . S
C8 O9 1.258 . S
C8 O10 1.256 . S
O9 Cd1 2.381 . S
O9 C8 1.258 . S
O10 Cd1 2.378 . S
O10 C8 1.256 . S
O11 Cd12 2.300 . S
O11 C18 1.275 . S
Cd12 O11 2.300 . S
Cd12 O20 2.381 . S
Cd12 O21 2.378 . S
O13 Cd14 2.385 . S
O13 C18 1.255 . S
Cd14 O13 2.385 . S
Cd14 O15 2.317 . S
O15 Cd14 2.317 . S
O15 C16 1.232 . S
C16 O15 1.232 . S
C16 O17 1.218 . S
O17 C16 1.218 . S
C18 O11 1.275 . S
C18 O13 1.255 . S
C19 O20 1.258 . S
C19 O21 1.256 . S
O20 Cd12 2.381 . S
O20 C19 1.258 . S
O21 Cd12 2.378 . S
O21 C19 1.256 . S
O22 Cd23 2.300 . S
O22 C29 1.275 . S
Cd23 O22 2.300 . S
Cd23 O31 2.381 . S
Cd23 O32 2.378 . S
O24 Cd25 2.385 . S
O24 C29 1.255 . S
Cd25 O24 2.385 . S
Cd25 O26 2.317 . S
O26 Cd25 2.317 . S
O26 C27 1.232 . S
C27 O26 1.232 . S
C27 O28 1.218 . S
O28 C27 1.218 . S
C29 O22 1.275 . S
C29 O24 1.255 . S
C30 O31 1.258 . S
C30 O32 1.256 . S
O31 Cd23 2.381 . S
O31 C30 1.258 . S
O32 Cd23 2.378 . S
O32 C30 1.256 . S
O33 Cd34 2.300 . S
O33 C40 1.275 . S
Cd34 O33 2.300 . S
Cd34 O42 2.381 . S
Cd34 O43 2.378 . S
O35 Cd36 2.385 . S
O35 C40 1.255 . S
Cd36 O35 2.385 . S
Cd36 O37 2.317 . S
O37 Cd36 2.317 . S
O37 C38 1.232 . S
C38 O37 1.232 . S
C38 O39 1.218 . S
O39 C38 1.218 . S
C40 O33 1.275 . S
C40 O35 1.255 . S
C41 O42 1.258 . S
C41 O43 1.256 . S
O42 Cd34 2.381 . S
O42 C41 1.258 . S
O43 Cd34 2.378 . S
O43 C41 1.256 . S
O44 Cd45 2.300 . S
O44 C51 1.301 . S
Cd45 O44 2.300 . S
Cd45 O53 2.381 . S
Cd45 O54 2.378 . S
O46 Cd47 2.385 . S
O46 C51 1.246 1_545 S
Cd47 O46 2.385 . S
Cd47 O48 2.317 1_545 S
O48 Cd47 2.317 1_565 S
O48 C49 1.232 . S
C49 O48 1.232 . S
C49 O50 1.218 1_565 S
O50 C49 1.218 1_545 S
C51 O44 1.301 . S
C51 O46 1.246 1_565 S
C52 O53 1.258 . S
C52 O54 1.256 . S
O53 Cd45 2.381 . S
O53 C52 1.258 . S
O54 Cd45 2.378 . S
O54 C52 1.256 . S
O55 Cd56 2.300 . S
O55 C62 1.275 . S
Cd56 O55 2.300 . S
Cd56 O64 2.381 . S
Cd56 O65 2.378 . S
O57 Cd58 2.385 . S
O57 C62 1.255 . S
Cd58 O57 2.385 . S
Cd58 O59 2.317 . S
O59 Cd58 2.317 . S
O59 C60 1.232 . S
C60 O59 1.232 . S
C60 O61 1.218 . S
O61 C60 1.218 . S
C62 O55 1.275 . S
C62 O57 1.255 . S
C63 O64 1.258 . S
C63 O65 1.256 . S
O64 Cd56 2.381 . S
O64 C63 1.258 . S
O65 Cd56 2.378 . S
O65 C63 1.256 . S
O66 Cd67 2.300 . S
O66 C73 1.275 . S
Cd67 O66 2.300 . S
Cd67 O75 2.381 . S
Cd67 O76 2.378 . S
O68 Cd69 2.397 . S
O68 C73 1.247 1_455 S
Cd69 O68 2.397 . S
Cd69 O70 2.317 1_455 S
O70 Cd69 2.317 1_655 S
O70 C71 1.218 1_655 S
C71 O70 1.218 1_455 S
C71 O72 1.248 . S
O72 C71 1.248 . S
C73 O66 1.275 . S
C73 O68 1.247 1_655 S
C74 O75 1.258 . S
C74 O76 1.256 . S
O75 Cd67 2.381 . S
O75 C74 1.258 . S
O76 Cd67 2.378 . S
O76 C74 1.256 . S
O77 Cd78 2.300 . S
O77 C84 1.275 . S
Cd78 O77 2.300 . S
Cd78 O86 2.381 . S
Cd78 O87 2.378 . S
O79 Cd80 2.385 . S
O79 C84 1.255 . S
Cd80 O79 2.385 . S
Cd80 O81 2.317 . S
O81 Cd80 2.317 . S
O81 C82 1.232 . S
C82 O81 1.232 . S
C82 O83 1.218 . S
O83 C82 1.218 . S
C84 O77 1.275 . S
C84 O79 1.255 . S
C85 O86 1.258 . S
C85 O87 1.256 . S
O86 Cd78 2.381 . S
O86 C85 1.258 . S
O87 Cd78 2.378 . S
O87 C85 1.256 . S
O88 Cd89 2.300 . S
O88 C95 1.275 . S
Cd89 O88 2.300 . S
Cd89 O97 2.381 . S
Cd89 O98 2.378 . S
O90 Cd91 2.385 . S
O90 C95 1.255 . S
Cd91 O90 2.385 . S
Cd91 O92 2.317 . S
O92 Cd91 2.317 . S
O92 C93 1.232 . S
C93 O92 1.232 . S
C93 O94 1.218 . S
O94 C93 1.218 . S
C95 O88 1.275 . S
C95 O90 1.255 . S
C96 O97 1.258 . S
C96 O98 1.256 . S
O97 Cd89 2.381 . S
O97 C96 1.258 . S
O98 Cd89 2.378 . S
O98 C96 1.256 . S
O99 Cd100 2.304 . S
O99 C106 1.275 . S
Cd100 O99 2.304 . S
Cd100 O108 2.378 1_565 S
Cd100 O109 2.373 1_565 S
O101 Cd102 2.385 . S
O101 C106 1.255 . S
Cd102 O101 2.385 . S
Cd102 O103 2.317 . S
O103 Cd102 2.317 . S
O103 C104 1.232 . S
C104 O103 1.232 . S
C104 O105 1.218 . S
O105 C104 1.218 . S
C106 O99 1.275 . S
C106 O101 1.255 . S
C107 O108 1.258 . S
C107 O109 1.256 . S
O108 Cd100 2.378 1_545 S
O108 C107 1.258 . S
O109 Cd100 2.373 1_545 S
O109 C107 1.256 . S
O110 Cd111 2.300 . S
O110 C117 1.275 . S
Cd111 O110 2.300 . S
Cd111 O119 2.381 . S
Cd111 O120 2.378 . S
O112 Cd113 2.385 . S
O112 C117 1.255 . S
Cd113 O112 2.385 . S
Cd113 O114 2.317 . S
O114 Cd113 2.317 . S
O114 C115 1.232 . S
C115 O114 1.232 . S
C115 O116 1.218 . S
O116 C115 1.218 . S
C117 O110 1.275 . S
C117 O112 1.255 . S
C118 O119 1.258 . S
C118 O120 1.256 . S
O119 Cd111 2.381 . S
O119 C118 1.258 . S
O120 Cd111 2.378 . S
O120 C118 1.256 . S
O121 Cd122 2.300 . S
O121 C128 1.275 . S
Cd122 O121 2.300 . S
Cd122 O130 2.381 . S
Cd122 O131 2.378 . S
O123 Cd124 2.385 . S
O123 C128 1.255 . S
Cd124 O123 2.385 . S
Cd124 O125 2.317 . S
O125 Cd124 2.317 . S
O125 C126 1.232 . S
C126 O125 1.232 . S
C126 O127 1.218 . S
O127 C126 1.218 . S
C128 O121 1.275 . S
C128 O123 1.255 . S
C129 O130 1.258 . S
C129 O131 1.256 . S
O130 Cd122 2.381 . S
O130 C129 1.258 . S
O131 Cd122 2.378 . S
O131 C129 1.256 . S
O132 Cd133 2.300 . S
O132 C139 1.275 . S
Cd133 O132 2.300 . S
Cd133 O141 2.381 . S
Cd133 O142 2.378 . S
O134 Cd135 2.385 . S
O134 C139 1.255 . S
Cd135 O134 2.385 . S
Cd135 O136 2.317 . S
O136 Cd135 2.317 . S
O136 C137 1.232 . S
C137 O136 1.232 . S
C137 O138 1.218 . S
O138 C137 1.218 . S
C139 O132 1.275 . S
C139 O134 1.255 . S
C140 O141 1.258 . S
C140 O142 1.256 . S
O141 Cd133 2.381 . S
O141 C140 1.258 . S
O142 Cd133 2.378 . S
O142 C140 1.256 . S
O143 Cd144 2.300 1_556 S
O143 C150 1.275 . S
Cd144 O143 2.300 1_554 S
Cd144 O152 2.381 . S
Cd144 O153 2.378 . S
O145 Cd146 2.385 . S
O145 C150 1.255 . S
Cd146 O145 2.385 . S
Cd146 O147 2.317 . S
O147 Cd146 2.317 . S
O147 C148 1.232 . S
C148 O147 1.232 . S
C148 O149 1.218 . S
O149 C148 1.218 . S
C150 O143 1.275 . S
C150 O145 1.255 . S
C151 O152 1.258 . S
C151 O153 1.256 . S
O152 Cd144 2.381 . S
O152 C151 1.258 . S
O153 Cd144 2.378 . S
O153 C151 1.256 . S
O154 Cd155 2.300 . S
O154 C161 1.275 . S
Cd155 O154 2.300 . S
Cd155 O163 2.381 . S
Cd155 O164 2.378 . S
O156 Cd157 2.385 . S
O156 C161 1.255 . S
Cd157 O156 2.385 . S
Cd157 O158 2.317 . S
O158 Cd157 2.317 . S
O158 C159 1.232 . S
C159 O158 1.232 . S
C159 O160 1.218 . S
O160 C159 1.218 . S
C161 O154 1.275 . S
C161 O156 1.255 . S
C162 O163 1.258 . S
C162 O164 1.256 . S
O163 Cd155 2.381 . S
O163 C162 1.258 . S
O164 Cd155 2.378 . S
O164 C162 1.256 . S
O165 Cd166 2.300 1_556 S
O165 C172 1.275 . S
Cd166 O165 2.300 1_554 S
Cd166 O174 2.381 1_554 S
Cd166 O175 2.378 . S
O167 Cd168 2.385 1_556 S
O167 C172 1.255 . S
Cd168 O167 2.385 1_554 S
Cd168 O169 2.317 . S
O169 Cd168 2.317 . S
O169 C170 1.232 . S
C170 O169 1.232 . S
C170 O171 1.218 . S
O171 C170 1.218 . S
C172 O165 1.275 . S
C172 O167 1.255 . S
C173 O174 1.209 1_554 S
C173 O175 1.304 . S
O174 Cd166 2.381 1_556 S
O174 C173 1.209 1_556 S
O175 Cd166 2.378 . S
O175 C173 1.304 . S
Mn176 O181 2.095 . S
Mn176 O191 2.162 . S
Mn176 O192 2.297 . S
Mn176 O200 2.385 . S
Mn176 O201 2.209 1_554 S
Mn176 O202 2.094 . S
Mn177 O182 2.121 . S
Mn177 N184 2.257 . S
Mn177 N193 2.282 . S
Mn177 O201 2.215 . S
Mn177 O203 2.117 . S
C178 O200 1.234 1_556 S
C178 O201 1.283 . S
C179 O191 1.281 . S
C179 O192 1.236 . S
C180 O202 1.240 . S
C180 O203 1.264 1_554 S
O181 Mn176 2.095 . S
O181 C190 1.250 . S
O182 Mn177 2.121 . S
O182 C190 1.258 1_556 S
C183 N184 1.326 . S
C183 C187 1.460 . S
C183 H189 0.929 . S
N184 Mn177 2.257 . S
N184 C183 1.326 . S
N184 C188 1.362 . S
C185 C186 1.258 . S
C185 C188 1.431 . S
C185 C205 1.449 . S
C186 C185 1.258 . S
C186 C187 1.477 . S
C186 H206 0.931 . S
C187 C183 1.460 . S
C187 C186 1.477 . S
C187 H207 0.930 . S
C188 N184 1.362 . S
C188 C185 1.431 . S
C188 C198 1.476 . S
H189 C183 0.929 . S
C190 O181 1.250 . S
C190 O182 1.258 1_554 S
O191 Mn176 2.162 . S
O191 C179 1.281 . S
O192 Mn176 2.297 . S
O192 C179 1.236 . S
N193 Mn177 2.282 . S
N193 C194 1.328 . S
N193 C198 1.318 . S
C194 N193 1.328 . S
C194 C195 1.457 . S
C194 H199 0.929 . S
C195 C194 1.457 . S
C195 C196 1.291 . S
C195 H208 0.931 . S
C196 C195 1.291 . S
C196 C197 1.373 . S
C196 H209 0.929 . S
C197 C196 1.373 . S
C197 C198 1.396 . S
C197 C204 1.403 . S
C198 C188 1.476 . S
C198 N193 1.318 . S
C198 C197 1.396 . S
H199 C194 0.929 . S
O200 Mn176 2.385 . S
O200 C178 1.234 1_554 S
O201 Mn176 2.209 1_556 S
O201 Mn177 2.215 . S
O201 C178 1.283 . S
O202 Mn176 2.094 . S
O202 C180 1.240 . S
O203 Mn177 2.117 . S
O203 C180 1.264 1_556 S
C204 C197 1.403 . S
C204 C205 1.399 . S
C204 H210 0.929 . S
C205 C185 1.449 . S
C205 C204 1.399 . S
C205 H211 0.930 . S
H206 C186 0.931 . S
H207 C187 0.930 . S
H208 C195 0.931 . S
H209 C196 0.929 . S
H210 C204 0.929 . S
H211 C205 0.930 . S
Mn212 O217 2.095 . S
Mn212 O227 2.162 . S
Mn212 O228 2.297 . S
Mn212 O236 2.385 . S
Mn212 O237 2.209 . S
Mn212 O238 2.094 . S
Mn213 O218 2.121 . S
Mn213 N220 2.257 . S
Mn213 N229 2.282 . S
Mn213 O237 2.215 . S
Mn213 O239 2.117 . S
C214 O236 1.234 . S
C214 O237 1.283 . S
C215 O227 1.281 . S
C215 O228 1.236 . S
C216 O238 1.240 . S
C216 O239 1.264 . S
O217 Mn212 2.095 . S
O217 C226 1.250 . S
O218 Mn213 2.121 . S
O218 C226 1.258 . S
C219 N220 1.326 . S
C219 C223 1.460 . S
C219 H225 0.929 . S
N220 Mn213 2.257 . S
N220 C219 1.326 . S
N220 C224 1.362 . S
C221 C222 1.258 . S
C221 C224 1.431 . S
C221 C241 1.449 . S
C222 C221 1.258 . S
C222 C223 1.477 . S
C222 H242 0.931 . S
C223 C219 1.460 . S
C223 C222 1.477 . S
C223 H243 0.930 . S
C224 N220 1.362 . S
C224 C221 1.431 . S
C224 C234 1.476 . S
H225 C219 0.929 . S
C226 O217 1.250 . S
C226 O218 1.258 . S
O227 Mn212 2.162 . S
O227 C215 1.281 . S
O228 Mn212 2.297 . S
O228 C215 1.236 . S
N229 Mn213 2.282 . S
N229 C230 1.328 . S
N229 C234 1.318 . S
C230 N229 1.328 . S
C230 C231 1.457 . S
C230 H235 0.929 . S
C231 C230 1.457 . S
C231 C232 1.291 . S
C231 H244 0.931 . S
C232 C231 1.291 . S
C232 C233 1.373 . S
C232 H245 0.929 . S
C233 C232 1.373 . S
C233 C234 1.396 . S
C233 C240 1.403 . S
C234 C224 1.476 . S
C234 N229 1.318 . S
C234 C233 1.396 . S
H235 C230 0.929 . S
O236 Mn212 2.385 . S
O236 C214 1.234 . S
O237 Mn212 2.209 . S
O237 Mn213 2.215 . S
O237 C214 1.283 . S
O238 Mn212 2.094 . S
O238 C216 1.240 . S
O239 Mn213 2.117 . S
O239 C216 1.264 . S
C240 C233 1.403 . S
C240 C241 1.399 . S
C240 H246 0.929 . S
C241 C221 1.449 . S
C241 C240 1.399 . S
C241 H247 0.930 . S
H242 C222 0.931 . S
H243 C223 0.930 . S
H244 C231 0.931 . S
H245 C232 0.929 . S
H246 C240 0.929 . S
H247 C241 0.930 . S
Mn248 O253 2.095 1_554 S
Mn248 O263 2.162 . S
Mn248 O264 2.297 1_554 S
Mn248 O272 2.385 . S
Mn248 O273 2.209 1_554 S
Mn248 O274 2.094 . S
Mn249 O254 2.121 . S
Mn249 N256 2.257 . S
Mn249 N265 2.282 . S
Mn249 O273 2.215 . S
Mn249 O275 2.117 1_556 S
C250 O272 1.234 . S
C250 O273 1.283 1_554 S
C251 O263 1.281 . S
C251 O264 1.236 1_554 S
C252 O274 1.240 . S
C252 O275 1.264 . S
O253 Mn248 2.095 1_556 S
O253 C262 1.250 . S
O254 Mn249 2.121 . S
O254 C262 1.258 . S
C255 N256 1.326 . S
C255 C259 1.460 . S
C255 H261 0.929 . S
N256 Mn249 2.257 . S
N256 C255 1.326 . S
N256 C260 1.362 . S
C257 C258 1.258 . S
C257 C260 1.431 . S
C257 C277 1.449 . S
C258 C257 1.258 . S
C258 C259 1.477 . S
C258 H278 0.931 . S
C259 C255 1.460 . S
C259 C258 1.477 . S
C259 H279 0.930 . S
C260 N256 1.362 . S
C260 C257 1.431 . S
C260 C270 1.476 . S
H261 C255 0.929 . S
C262 O253 1.250 . S
C262 O254 1.258 . S
O263 Mn248 2.162 . S
O263 C251 1.281 . S
O264 Mn248 2.297 1_556 S
O264 C251 1.236 1_556 S
N265 Mn249 2.282 . S
N265 C266 1.328 1_556 S
N265 C270 1.318 . S
C266 N265 1.328 1_554 S
C266 C267 1.457 . S
C266 H271 0.929 . S
C267 C266 1.457 . S
C267 C268 1.291 . S
C267 H280 0.931 . S
C268 C267 1.291 . S
C268 C269 1.373 1_554 S
C268 H281 0.929 . S
C269 C268 1.373 1_556 S
C269 C270 1.396 . S
C269 C276 1.403 . S
C270 C260 1.476 . S
C270 N265 1.318 . S
C270 C269 1.396 . S
H271 C266 0.929 . S
O272 Mn248 2.385 . S
O272 C250 1.234 . S
O273 Mn248 2.209 1_556 S
O273 Mn249 2.215 . S
O273 C250 1.283 1_556 S
O274 Mn248 2.094 . S
O274 C252 1.240 . S
O275 Mn249 2.117 1_554 S
O275 C252 1.264 . S
C276 C269 1.403 . S
C276 C277 1.399 . S
C276 H282 0.929 . S
C277 C257 1.449 . S
C277 C276 1.399 . S
C277 H283 0.930 . S
H278 C258 0.931 . S
H279 C259 0.930 . S
H280 C267 0.931 . S
H281 C268 0.929 . S
H282 C276 0.929 . S
H283 C277 0.930 . S
Mn284 O289 2.095 . S
Mn284 O299 2.162 . S
Mn284 O300 2.297 . S
Mn284 O308 2.385 . S
Mn284 O309 2.176 1_545 S
Mn284 O310 2.094 . S
Mn285 O290 2.124 1_565 S
Mn285 N292 2.257 . S
Mn285 N301 2.282 . S
Mn285 O309 2.232 . S
Mn285 O311 2.117 1_565 S
C286 O308 1.207 1_565 S
C286 O309 1.283 . S
C287 O299 1.281 . S
C287 O300 1.236 . S
C288 O310 1.240 . S
C288 O311 1.264 . S
O289 Mn284 2.095 . S
O289 C298 1.250 . S
O290 Mn285 2.124 1_545 S
O290 C298 1.252 . S
C291 N292 1.326 . S
C291 C295 1.460 . S
C291 H297 0.929 . S
N292 Mn285 2.257 . S
N292 C291 1.326 . S
N292 C296 1.362 . S
C293 C294 1.258 . S
C293 C296 1.431 . S
C293 C313 1.449 . S
C294 C293 1.258 . S
C294 C295 1.477 . S
C294 H314 0.931 . S
C295 C291 1.460 . S
C295 C294 1.477 . S
C295 H315 0.930 . S
C296 N292 1.362 . S
C296 C293 1.431 . S
C296 C306 1.476 . S
H297 C291 0.929 . S
C298 O289 1.250 . S
C298 O290 1.252 . S
O299 Mn284 2.162 . S
O299 C287 1.281 . S
O300 Mn284 2.297 . S
O300 C287 1.236 . S
N301 Mn285 2.282 . S
N301 C302 1.328 . S
N301 C306 1.318 . S
C302 N301 1.328 . S
C302 C303 1.457 . S
C302 H307 0.929 . S
C303 C302 1.457 . S
C303 C304 1.291 . S
C303 H316 0.931 . S
C304 C303 1.291 . S
C304 C305 1.373 . S
C304 H317 0.929 . S
C305 C304 1.373 . S
C305 C306 1.396 . S
C305 C312 1.403 . S
C306 C296 1.476 . S
C306 N301 1.318 . S
C306 C305 1.396 . S
H307 C302 0.929 . S
O308 Mn284 2.385 . S
O308 C286 1.207 1_545 S
O309 Mn284 2.176 1_565 S
O309 Mn285 2.232 . S
O309 C286 1.283 . S
O310 Mn284 2.094 . S
O310 C288 1.240 . S
O311 Mn285 2.117 1_545 S
O311 C288 1.264 . S
C312 C305 1.403 . S
C312 C313 1.399 . S
C312 H318 0.929 . S
C313 C293 1.449 . S
C313 C312 1.399 . S
C313 H319 0.930 . S
H314 C294 0.931 . S
H315 C295 0.930 . S
H316 C303 0.931 . S
H317 C304 0.929 . S
H318 C312 0.929 . S
H319 C313 0.930 . S
Mn320 O325 2.095 . S
Mn320 O335 2.162 . S
Mn320 O336 2.297 . S
Mn320 O344 2.385 . S
Mn320 O345 2.209 . S
Mn320 O346 2.094 . S
Mn321 O326 2.121 . S
Mn321 N328 2.257 . S
Mn321 N337 2.282 . S
Mn321 O345 2.215 . S
Mn321 O347 2.117 . S
C322 O344 1.234 . S
C322 O345 1.283 . S
C323 O335 1.281 . S
C323 O336 1.236 . S
C324 O346 1.240 . S
C324 O347 1.264 . S
O325 Mn320 2.095 . S
O325 C334 1.250 . S
O326 Mn321 2.121 . S
O326 C334 1.258 . S
C327 N328 1.326 . S
C327 C331 1.460 . S
C327 H333 0.929 . S
N328 Mn321 2.257 . S
N328 C327 1.326 . S
N328 C332 1.362 . S
C329 C330 1.258 . S
C329 C332 1.431 . S
C329 C349 1.449 . S
C330 C329 1.258 . S
C330 C331 1.477 . S
C330 H350 0.931 . S
C331 C327 1.460 . S
C331 C330 1.477 . S
C331 H351 0.930 . S
C332 N328 1.362 . S
C332 C329 1.431 . S
C332 C342 1.476 . S
H333 C327 0.929 . S
C334 O325 1.250 . S
C334 O326 1.258 . S
O335 Mn320 2.162 . S
O335 C323 1.281 . S
O336 Mn320 2.297 . S
O336 C323 1.236 . S
N337 Mn321 2.282 . S
N337 C338 1.328 . S
N337 C342 1.318 . S
C338 N337 1.328 . S
C338 C339 1.457 . S
C338 H343 0.929 . S
C339 C338 1.457 . S
C339 C340 1.291 . S
C339 H352 0.931 . S
C340 C339 1.291 . S
C340 C341 1.373 . S
C340 H353 0.929 . S
C341 C340 1.373 . S
C341 C342 1.396 . S
C341 C348 1.403 . S
C342 C332 1.476 . S
C342 N337 1.318 . S
C342 C341 1.396 . S
H343 C338 0.929 . S
O344 Mn320 2.385 . S
O344 C322 1.234 . S
O345 Mn320 2.209 . S
O345 Mn321 2.215 . S
O345 C322 1.283 . S
O346 Mn320 2.094 . S
O346 C324 1.240 . S
O347 Mn321 2.117 . S
O347 C324 1.264 . S
C348 C341 1.403 . S
C348 C349 1.399 . S
C348 H354 0.929 . S
C349 C329 1.449 . S
C349 C348 1.399 . S
C349 H355 0.930 . S
H350 C330 0.931 . S
H351 C331 0.930 . S
H352 C339 0.931 . S
H353 C340 0.929 . S
H354 C348 0.929 . S
H355 C349 0.930 . S
Mn356 O361 2.095 . S
Mn356 O371 2.162 . S
Mn356 O372 2.297 . S
Mn356 O380 2.385 . S
Mn356 O381 2.209 . S
Mn356 O382 2.094 . S
Mn357 O362 2.121 . S
Mn357 N364 2.257 . S
Mn357 N373 2.282 . S
Mn357 O381 2.215 . S
Mn357 O383 2.117 . S
C358 O380 1.234 . S
C358 O381 1.283 . S
C359 O371 1.281 . S
C359 O372 1.236 . S
C360 O382 1.240 . S
C360 O383 1.264 . S
O361 Mn356 2.095 . S
O361 C370 1.250 . S
O362 Mn357 2.121 . S
O362 C370 1.258 . S
C363 N364 1.326 . S
C363 C367 1.460 . S
C363 H369 0.929 . S
N364 Mn357 2.257 . S
N364 C363 1.326 . S
N364 C368 1.362 . S
C365 C366 1.258 . S
C365 C368 1.431 . S
C365 C385 1.449 . S
C366 C365 1.258 . S
C366 C367 1.477 . S
C366 H386 0.931 . S
C367 C363 1.460 . S
C367 C366 1.477 . S
C367 H387 0.930 . S
C368 N364 1.362 . S
C368 C365 1.431 . S
C368 C378 1.476 . S
H369 C363 0.929 . S
C370 O361 1.250 . S
C370 O362 1.258 . S
O371 Mn356 2.162 . S
O371 C359 1.281 . S
O372 Mn356 2.297 . S
O372 C359 1.236 . S
N373 Mn357 2.282 . S
N373 C374 1.328 . S
N373 C378 1.318 . S
C374 N373 1.328 . S
C374 C375 1.457 . S
C374 H379 0.929 . S
C375 C374 1.457 . S
C375 C376 1.291 . S
C375 H388 0.931 . S
C376 C375 1.291 . S
C376 C377 1.373 . S
C376 H389 0.929 . S
C377 C376 1.373 . S
C377 C378 1.396 . S
C377 C384 1.403 . S
C378 C368 1.476 . S
C378 N373 1.318 . S
C378 C377 1.396 . S
H379 C374 0.929 . S
O380 Mn356 2.385 . S
O380 C358 1.234 . S
O381 Mn356 2.209 . S
O381 Mn357 2.215 . S
O381 C358 1.283 . S
O382 Mn356 2.094 . S
O382 C360 1.240 . S
O383 Mn357 2.117 . S
O383 C360 1.264 . S
C384 C377 1.403 . S
C384 C385 1.399 . S
C384 H390 0.929 . S
C385 C365 1.449 . S
C385 C384 1.399 . S
C385 H391 0.930 . S
H386 C366 0.931 . S
H387 C367 0.930 . S
H388 C375 0.931 . S
H389 C376 0.929 . S
H390 C384 0.929 . S
H391 C385 0.930 . S
Mn392 O397 2.095 . S
Mn392 O407 2.162 . S
Mn392 O408 2.297 . S
Mn392 O416 2.385 . S
Mn392 O417 2.209 . S
Mn392 O418 2.094 . S
Mn393 O398 2.121 . S
Mn393 N400 2.257 . S
Mn393 N409 2.282 . S
Mn393 O417 2.215 . S
Mn393 O419 2.117 . S
C394 O416 1.234 . S
C394 O417 1.283 . S
C395 O407 1.281 . S
C395 O408 1.236 . S
C396 O418 1.240 . S
C396 O419 1.264 . S
O397 Mn392 2.095 . S
O397 C406 1.250 . S
O398 Mn393 2.121 . S
O398 C406 1.258 . S
C399 N400 1.326 . S
C399 C403 1.460 . S
C399 H405 0.929 . S
N400 Mn393 2.257 . S
N400 C399 1.326 . S
N400 C404 1.362 . S
C401 C402 1.258 . S
C401 C404 1.431 . S
C401 C421 1.449 . S
C402 C401 1.258 . S
C402 C403 1.477 . S
C402 H422 0.931 . S
C403 C399 1.460 . S
C403 C402 1.477 . S
C403 H423 0.930 . S
C404 N400 1.362 . S
C404 C401 1.431 . S
C404 C414 1.476 . S
H405 C399 0.929 . S
C406 O397 1.250 . S
C406 O398 1.258 . S
O407 Mn392 2.162 . S
O407 C395 1.281 . S
O408 Mn392 2.297 . S
O408 C395 1.236 . S
N409 Mn393 2.282 . S
N409 C410 1.328 . S
N409 C414 1.318 . S
C410 N409 1.328 . S
C410 C411 1.457 . S
C410 H415 0.929 . S
C411 C410 1.457 . S
C411 C412 1.291 . S
C411 H424 0.931 . S
C412 C411 1.291 . S
C412 C413 1.373 . S
C412 H425 0.929 . S
C413 C412 1.373 . S
C413 C414 1.396 . S
C413 C420 1.403 . S
C414 C404 1.476 . S
C414 N409 1.318 . S
C414 C413 1.396 . S
H415 C410 0.929 . S
O416 Mn392 2.385 . S
O416 C394 1.234 . S
O417 Mn392 2.209 . S
O417 Mn393 2.215 . S
O417 C394 1.283 . S
O418 Mn392 2.094 . S
O418 C396 1.240 . S
O419 Mn393 2.117 . S
O419 C396 1.264 . S
C420 C413 1.403 . S
C420 C421 1.399 . S
C420 H426 0.929 . S
C421 C401 1.449 . S
C421 C420 1.399 . S
C421 H427 0.930 . S
H422 C402 0.931 . S
H423 C403 0.930 . S
H424 C411 0.931 . S
H425 C412 0.929 . S
H426 C420 0.929 . S
H427 C421 0.930 . S
Mn428 O433 2.095 . S
Mn428 O443 2.162 . S
Mn428 O444 2.297 . S
Mn428 O452 2.385 1_565 S
Mn428 O453 2.209 1_565 S
Mn428 O454 2.094 . S
Mn429 O434 2.121 . S
Mn429 N436 2.257 . S
Mn429 N445 2.282 . S
Mn429 O453 2.215 . S
Mn429 O455 2.117 . S
C430 O452 1.234 . S
C430 O453 1.283 . S
C431 O443 1.281 . S
C431 O444 1.236 . S
C432 O454 1.240 1_545 S
C432 O455 1.264 . S
O433 Mn428 2.095 . S
O433 C442 1.250 1_565 S
O434 Mn429 2.121 . S
O434 C442 1.258 . S
C435 N436 1.326 . S
C435 C439 1.460 . S
C435 H441 0.929 . S
N436 Mn429 2.257 . S
N436 C435 1.326 . S
N436 C440 1.362 . S
C437 C438 1.258 . S
C437 C440 1.431 . S
C437 C457 1.449 . S
C438 C437 1.258 . S
C438 C439 1.477 . S
C438 H458 0.931 . S
C439 C435 1.460 . S
C439 C438 1.477 . S
C439 H459 0.930 . S
C440 N436 1.362 . S
C440 C437 1.431 . S
C440 C450 1.476 . S
H441 C435 0.929 . S
C442 O433 1.250 1_545 S
C442 O434 1.258 . S
O443 Mn428 2.162 . S
O443 C431 1.281 . S
O444 Mn428 2.297 . S
O444 C431 1.236 . S
N445 Mn429 2.282 . S
N445 C446 1.328 . S
N445 C450 1.318 . S
C446 N445 1.328 . S
C446 C447 1.457 . S
C446 H451 0.929 . S
C447 C446 1.457 . S
C447 C448 1.291 . S
C447 H460 0.931 . S
C448 C447 1.291 . S
C448 C449 1.373 . S
C448 H461 0.929 . S
C449 C448 1.373 . S
C449 C450 1.396 . S
C449 C456 1.403 . S
C450 C440 1.476 . S
C450 N445 1.318 . S
C450 C449 1.396 . S
H451 C446 0.929 . S
O452 Mn428 2.385 1_545 S
O452 C430 1.234 . S
O453 Mn428 2.209 1_545 S
O453 Mn429 2.215 . S
O453 C430 1.283 . S
O454 Mn428 2.094 . S
O454 C432 1.240 1_565 S
O455 Mn429 2.117 . S
O455 C432 1.264 . S
C456 C449 1.403 . S
C456 C457 1.399 . S
C456 H462 0.929 . S
C457 C437 1.449 . S
C457 C456 1.399 . S
C457 H463 0.930 . S
H458 C438 0.931 . S
H459 C439 0.930 . S
H460 C447 0.931 . S
H461 C448 0.929 . S
H462 C456 0.929 . S
H463 C457 0.930 . S
Mn464 O469 2.095 . S
Mn464 O479 2.162 . S
Mn464 O480 2.297 . S
Mn464 O488 2.385 1_455 S
Mn464 O489 2.209 1_455 S
Mn464 O490 2.094 . S
Mn465 O470 2.121 . S
Mn465 N472 2.257 . S
Mn465 N481 2.282 . S
Mn465 O489 2.215 . S
Mn465 O491 2.117 . S
C466 O488 1.234 . S
C466 O489 1.283 . S
C467 O479 1.281 . S
C467 O480 1.236 . S
C468 O490 1.240 . S
C468 O491 1.264 1_455 S
O469 Mn464 2.095 . S
O469 C478 1.250 . S
O470 Mn465 2.121 . S
O470 C478 1.258 1_655 S
C471 N472 1.326 . S
C471 C475 1.460 . S
C471 H477 0.929 . S
N472 Mn465 2.257 . S
N472 C471 1.326 . S
N472 C476 1.362 . S
C473 C474 1.258 . S
C473 C476 1.431 . S
C473 C493 1.449 . S
C474 C473 1.258 . S
C474 C475 1.477 . S
C474 H494 0.931 . S
C475 C471 1.460 . S
C475 C474 1.477 . S
C475 H495 0.930 . S
C476 N472 1.362 . S
C476 C473 1.431 . S
C476 C486 1.476 . S
H477 C471 0.929 . S
C478 O469 1.250 . S
C478 O470 1.258 1_455 S
O479 Mn464 2.162 . S
O479 C467 1.281 . S
O480 Mn464 2.297 . S
O480 C467 1.236 . S
N481 Mn465 2.282 . S
N481 C482 1.328 . S
N481 C486 1.318 . S
C482 N481 1.328 . S
C482 C483 1.457 . S
C482 H487 0.929 . S
C483 C482 1.457 . S
C483 C484 1.291 . S
C483 H496 0.931 . S
C484 C483 1.291 . S
C484 C485 1.373 . S
C484 H497 0.929 . S
C485 C484 1.373 . S
C485 C486 1.396 . S
C485 C492 1.403 . S
C486 C476 1.476 . S
C486 N481 1.318 . S
C486 C485 1.396 . S
H487 C482 0.929 . S
O488 Mn464 2.385 1_655 S
O488 C466 1.234 . S
O489 Mn464 2.209 1_655 S
O489 Mn465 2.215 . S
O489 C466 1.283 . S
O490 Mn464 2.094 . S
O490 C468 1.240 . S
O491 Mn465 2.117 . S
O491 C468 1.264 1_655 S
C492 C485 1.403 . S
C492 C493 1.399 . S
C492 H498 0.929 . S
C493 C473 1.449 . S
C493 C492 1.399 . S
C493 H499 0.930 . S
H494 C474 0.931 . S
H495 C475 0.930 . S
H496 C483 0.931 . S
H497 C484 0.929 . S
H498 C492 0.929 . S
H499 C493 0.930 . S
Mn500 O505 2.095 . S
Mn500 O515 2.162 . S
Mn500 O516 2.297 . S
Mn500 O524 2.385 . S
Mn500 O525 2.209 . S
Mn500 O526 2.094 . S
Mn501 O506 2.121 . S
Mn501 N508 2.257 . S
Mn501 N517 2.282 . S
Mn501 O525 2.215 . S
Mn501 O527 2.117 . S
C502 O524 1.234 . S
C502 O525 1.283 . S
C503 O515 1.281 . S
C503 O516 1.236 . S
C504 O526 1.240 . S
C504 O527 1.264 . S
O505 Mn500 2.095 . S
O505 C514 1.250 . S
O506 Mn501 2.121 . S
O506 C514 1.258 . S
C507 N508 1.326 . S
C507 C511 1.460 . S
C507 H513 0.929 . S
N508 Mn501 2.257 . S
N508 C507 1.326 . S
N508 C512 1.362 . S
C509 C510 1.258 . S
C509 C512 1.431 . S
C509 C529 1.449 . S
C510 C509 1.258 . S
C510 C511 1.477 . S
C510 H530 0.931 . S
C511 C507 1.460 . S
C511 C510 1.477 . S
C511 H531 0.930 . S
C512 N508 1.362 . S
C512 C509 1.431 . S
C512 C522 1.476 . S
H513 C507 0.929 . S
C514 O505 1.250 . S
C514 O506 1.258 . S
O515 Mn500 2.162 . S
O515 C503 1.281 . S
O516 Mn500 2.297 . S
O516 C503 1.236 . S
N517 Mn501 2.282 . S
N517 C518 1.328 . S
N517 C522 1.318 . S
C518 N517 1.328 . S
C518 C519 1.457 . S
C518 H523 0.929 . S
C519 C518 1.457 . S
C519 C520 1.291 . S
C519 H532 0.931 . S
C520 C519 1.291 . S
C520 C521 1.373 . S
C520 H533 0.929 . S
C521 C520 1.373 . S
C521 C522 1.396 . S
C521 C528 1.403 . S
C522 C512 1.476 . S
C522 N517 1.318 . S
C522 C521 1.396 . S
H523 C518 0.929 . S
O524 Mn500 2.385 . S
O524 C502 1.234 . S
O525 Mn500 2.209 . S
O525 Mn501 2.215 . S
O525 C502 1.283 . S
O526 Mn500 2.094 . S
O526 C504 1.240 . S
O527 Mn501 2.117 . S
O527 C504 1.264 . S
C528 C521 1.403 . S
C528 C529 1.399 . S
C528 H534 0.929 . S
C529 C509 1.449 . S
C529 C528 1.399 . S
C529 H535 0.930 . S
H530 C510 0.931 . S
H531 C511 0.930 . S
H532 C519 0.931 . S
H533 C520 0.929 . S
H534 C528 0.929 . S
H535 C529 0.930 . S
Mn536 O541 2.095 . S
Mn536 O551 2.162 . S
Mn536 O552 2.297 . S
Mn536 O560 2.385 . S
Mn536 O561 2.209 . S
Mn536 O562 2.094 . S
Mn537 O542 2.121 1_455 S
Mn537 N544 2.257 1_455 S
Mn537 N553 2.282 . S
Mn537 O561 2.215 . S
Mn537 O563 2.117 . S
C538 O560 1.234 . S
C538 O561 1.283 . S
C539 O551 1.281 . S
C539 O552 1.236 . S
C540 O562 1.240 . S
C540 O563 1.264 . S
O541 Mn536 2.095 . S
O541 C550 1.250 . S
O542 Mn537 2.121 1_655 S
O542 C550 1.258 1_655 S
C543 N544 1.326 . S
C543 C547 1.460 . S
C543 H549 0.929 . S
N544 Mn537 2.257 1_655 S
N544 C543 1.326 . S
N544 C548 1.362 . S
C545 C546 1.258 . S
C545 C548 1.431 . S
C545 C565 1.449 . S
C546 C545 1.258 . S
C546 C547 1.477 . S
C546 H566 0.931 . S
C547 C543 1.460 . S
C547 C546 1.477 . S
C547 H567 0.930 . S
C548 N544 1.362 . S
C548 C545 1.431 . S
C548 C558 1.476 1_655 S
H549 C543 0.929 . S
C550 O541 1.250 . S
C550 O542 1.258 1_455 S
O551 Mn536 2.162 . S
O551 C539 1.281 . S
O552 Mn536 2.297 . S
O552 C539 1.236 . S
N553 Mn537 2.282 . S
N553 C554 1.328 . S
N553 C558 1.318 . S
C554 N553 1.328 . S
C554 C555 1.457 . S
C554 H559 0.929 . S
C555 C554 1.457 . S
C555 C556 1.291 . S
C555 H568 0.931 . S
C556 C555 1.291 . S
C556 C557 1.373 . S
C556 H569 0.929 . S
C557 C556 1.373 . S
C557 C558 1.396 . S
C557 C564 1.403 1_455 S
C558 C548 1.476 1_455 S
C558 N553 1.318 . S
C558 C557 1.396 . S
H559 C554 0.929 . S
O560 Mn536 2.385 . S
O560 C538 1.234 . S
O561 Mn536 2.209 . S
O561 Mn537 2.215 . S
O561 C538 1.283 . S
O562 Mn536 2.094 . S
O562 C540 1.240 . S
O563 Mn537 2.117 . S
O563 C540 1.264 . S
C564 C557 1.403 1_655 S
C564 C565 1.399 . S
C564 H570 0.929 . S
C565 C545 1.449 . S
C565 C564 1.399 . S
C565 H571 0.930 . S
H566 C546 0.931 . S
H567 C547 0.930 . S
H568 C555 0.931 . S
H569 C556 0.929 . S
H570 C564 0.929 . S
H571 C565 0.930 . S
Mn572 O577 2.095 . S
Mn572 O587 2.162 . S
Mn572 O588 2.297 . S
Mn572 O596 2.385 . S
Mn572 O597 2.209 . S
Mn572 O598 2.094 . S
Mn573 O578 2.121 . S
Mn573 N580 2.257 . S
Mn573 N589 2.282 . S
Mn573 O597 2.215 . S
Mn573 O599 2.117 . S
C574 O596 1.234 . S
C574 O597 1.283 . S
C575 O587 1.281 . S
C575 O588 1.236 . S
C576 O598 1.240 . S
C576 O599 1.264 . S
O577 Mn572 2.095 . S
O577 C586 1.250 . S
O578 Mn573 2.121 . S
O578 C586 1.258 . S
C579 N580 1.326 . S
C579 C583 1.460 . S
C579 H585 0.929 . S
N580 Mn573 2.257 . S
N580 C579 1.326 . S
N580 C584 1.362 . S
C581 C582 1.258 . S
C581 C584 1.431 . S
C581 C601 1.449 . S
C582 C581 1.258 . S
C582 C583 1.477 . S
C582 H602 0.931 . S
C583 C579 1.460 . S
C583 C582 1.477 . S
C583 H603 0.930 . S
C584 N580 1.362 . S
C584 C581 1.431 . S
C584 C594 1.476 . S
H585 C579 0.929 . S
C586 O577 1.250 . S
C586 O578 1.258 . S
O587 Mn572 2.162 . S
O587 C575 1.281 . S
O588 Mn572 2.297 . S
O588 C575 1.236 . S
N589 Mn573 2.282 . S
N589 C590 1.328 . S
N589 C594 1.318 . S
C590 N589 1.328 . S
C590 C591 1.457 . S
C590 H595 0.929 . S
C591 C590 1.457 . S
C591 C592 1.291 . S
C591 H604 0.931 . S
C592 C591 1.291 . S
C592 C593 1.373 . S
C592 H605 0.929 . S
C593 C592 1.373 . S
C593 C594 1.396 . S
C593 C600 1.403 . S
C594 C584 1.476 . S
C594 N589 1.318 . S
C594 C593 1.396 . S
H595 C590 0.929 . S
O596 Mn572 2.385 . S
O596 C574 1.234 . S
O597 Mn572 2.209 . S
O597 Mn573 2.215 . S
O597 C574 1.283 . S
O598 Mn572 2.094 . S
O598 C576 1.240 . S
O599 Mn573 2.117 . S
O599 C576 1.264 . S
C600 C593 1.403 . S
C600 C601 1.399 . S
C600 H606 0.929 . S
C601 C581 1.449 . S
C601 C600 1.399 . S
C601 H607 0.930 . S
H602 C582 0.931 . S
H603 C583 0.930 . S
H604 C591 0.931 . S
H605 C592 0.929 . S
H606 C600 0.929 . S
H607 C601 0.930 . S
H608 C616 0.929 . S
H609 C618 0.930 . S
H610 C620 0.930 . S
H611 C623 0.929 . S
H612 C626 0.930 . S
H613 C628 0.960 . S
H614 C628 0.960 . S
H615 C628 0.960 . S
C616 H608 0.929 . S
C616 C617 1.377 . S
C616 C618 1.384 . S
C617 C616 1.377 . S
C617 C623 1.390 . S
C618 H609 0.930 . S
C618 C616 1.384 . S
C618 C619 1.372 . S
C619 C618 1.372 . S
C619 C620 1.400 . S
C619 C624 1.490 . S
C620 H610 0.930 . S
C620 C619 1.400 . S
C620 C623 1.386 . S
H621 C637 0.930 . S
H622 C638 0.931 . S
C623 H611 0.929 . S
C623 C617 1.390 . S
C623 C620 1.386 . S
C624 C619 1.490 . S
C624 C626 1.395 . S
C624 C627 1.403 . S
H625 C631 0.930 . S
C626 H612 0.930 . S
C626 C624 1.395 . S
C626 C629 1.403 . S
C627 C624 1.403 . S
C627 C628 1.524 . S
C627 C631 1.400 . S
C628 H613 0.960 . S
C628 H614 0.960 . S
C628 H615 0.960 . S
C628 C627 1.524 . S
C629 C626 1.403 . S
C629 C630 1.392 . S
C629 C633 1.495 . S
C630 C629 1.392 . S
C630 C631 1.385 . S
C630 C632 1.478 . S
C631 H625 0.930 . S
C631 C627 1.400 . S
C631 C630 1.385 . S
C632 C630 1.478 . S
C632 C634 1.381 . S
C632 C638 1.383 . S
C633 C629 1.495 . S
C633 H639 0.959 . S
C633 H640 0.961 . S
C633 H641 0.960 . S
C634 C632 1.381 . S
C634 C635 1.394 . S
C634 H642 0.930 . S
C635 C634 1.394 . S
C635 C636 1.383 . S
C635 H643 0.929 . S
C636 C635 1.383 . S
C636 C637 1.377 . S
C637 H621 0.930 . S
C637 C636 1.377 . S
C637 C638 1.379 . S
C638 H622 0.931 . S
C638 C632 1.383 . S
C638 C637 1.379 . S
H639 C633 0.959 . S
H640 C633 0.961 . S
H641 C633 0.960 . S
H642 C634 0.930 . S
H643 C635 0.929 . S
H644 C652 0.929 . S
H645 C654 0.930 . S
H646 C656 0.930 . S
H647 C659 0.929 . S
H648 C662 0.930 . S
H649 C664 0.960 . S
H650 C664 0.960 . S
H651 C664 0.960 . S
C652 H644 0.929 . S
C652 C653 1.377 . S
C652 C654 1.384 . S
C653 C652 1.377 . S
C653 C659 1.390 . S
C654 H645 0.930 . S
C654 C652 1.384 . S
C654 C655 1.372 . S
C655 C654 1.372 . S
C655 C656 1.400 . S
C655 C660 1.490 . S
C656 H646 0.930 . S
C656 C655 1.400 . S
C656 C659 1.386 . S
H657 C673 0.930 . S
H658 C674 0.931 . S
C659 H647 0.929 . S
C659 C653 1.390 . S
C659 C656 1.386 . S
C660 C655 1.490 . S
C660 C662 1.395 . S
C660 C663 1.403 . S
H661 C667 0.930 . S
C662 H648 0.930 . S
C662 C660 1.395 . S
C662 C665 1.403 . S
C663 C660 1.403 . S
C663 C664 1.524 . S
C663 C667 1.400 . S
C664 H649 0.960 . S
C664 H650 0.960 . S
C664 H651 0.960 . S
C664 C663 1.524 . S
C665 C662 1.403 . S
C665 C666 1.392 . S
C665 C669 1.495 . S
C666 C665 1.392 . S
C666 C667 1.385 . S
C666 C668 1.478 . S
C667 H661 0.930 . S
C667 C663 1.400 . S
C667 C666 1.385 . S
C668 C666 1.478 . S
C668 C670 1.381 . S
C668 C674 1.383 . S
C669 C665 1.495 . S
C669 H675 0.959 . S
C669 H676 0.961 . S
C669 H677 0.960 . S
C670 C668 1.381 . S
C670 C671 1.394 . S
C670 H678 0.930 . S
C671 C670 1.394 . S
C671 C672 1.383 . S
C671 H679 0.929 . S
C672 C671 1.383 . S
C672 C673 1.377 . S
C673 H657 0.930 . S
C673 C672 1.377 . S
C673 C674 1.379 . S
C674 H658 0.931 . S
C674 C668 1.383 . S
C674 C673 1.379 . S
H675 C669 0.959 . S
H676 C669 0.961 . S
H677 C669 0.960 . S
H678 C670 0.930 . S
H679 C671 0.929 . S
H680 C688 0.929 . S
H681 C690 0.930 . S
H682 C692 0.930 . S
H683 C695 0.929 . S
H684 C698 0.930 . S
H685 C700 0.960 . S
H686 C700 0.960 . S
H687 C700 0.960 . S
C688 H680 0.929 . S
C688 C689 1.377 . S
C688 C690 1.384 . S
C689 C688 1.377 . S
C689 C695 1.390 . S
C690 H681 0.930 . S
C690 C688 1.384 . S
C690 C691 1.372 . S
C691 C690 1.372 . S
C691 C692 1.400 . S
C691 C696 1.490 . S
C692 H682 0.930 . S
C692 C691 1.400 . S
C692 C695 1.386 . S
H693 C709 0.930 . S
H694 C710 0.931 . S
C695 H683 0.929 . S
C695 C689 1.390 . S
C695 C692 1.386 . S
C696 C691 1.490 . S
C696 C698 1.395 . S
C696 C699 1.403 . S
H697 C703 0.930 . S
C698 H684 0.930 . S
C698 C696 1.395 . S
C698 C701 1.403 . S
C699 C696 1.403 . S
C699 C700 1.524 . S
C699 C703 1.400 . S
C700 H685 0.960 . S
C700 H686 0.960 . S
C700 H687 0.960 . S
C700 C699 1.524 . S
C701 C698 1.403 . S
C701 C702 1.392 . S
C701 C705 1.495 . S
C702 C701 1.392 . S
C702 C703 1.385 . S
C702 C704 1.478 . S
C703 H697 0.930 . S
C703 C699 1.400 . S
C703 C702 1.385 . S
C704 C702 1.478 . S
C704 C706 1.381 . S
C704 C710 1.383 . S
C705 C701 1.495 . S
C705 H711 0.959 . S
C705 H712 0.961 . S
C705 H713 0.960 . S
C706 C704 1.381 . S
C706 C707 1.394 . S
C706 H714 0.930 . S
C707 C706 1.394 . S
C707 C708 1.383 . S
C707 H715 0.929 . S
C708 C707 1.383 . S
C708 C709 1.377 . S
C709 H693 0.930 . S
C709 C708 1.377 . S
C709 C710 1.379 . S
C710 H694 0.931 . S
C710 C704 1.383 . S
C710 C709 1.379 . S
H711 C705 0.959 . S
H712 C705 0.961 . S
H713 C705 0.960 . S
H714 C706 0.930 . S
H715 C707 0.929 . S
H716 C724 0.929 . S
H717 C726 0.930 . S
H718 C728 0.930 . S
H719 C731 0.929 . S
H720 C734 0.930 . S
H721 C736 0.960 . S
H722 C736 0.960 . S
H723 C736 0.960 . S
C724 H716 0.929 . S
C724 C725 1.377 1_545 S
C724 C726 1.384 1_455 S
C725 C724 1.377 1_565 S
C725 C731 1.390 1_455 S
C726 H717 0.930 . S
C726 C724 1.384 1_655 S
C726 C727 1.407 . S
C727 C726 1.407 . S
C727 C728 1.349 1_545 S
C727 C732 1.506 . S
C728 H718 0.930 . S
C728 C727 1.349 1_565 S
C728 C731 1.386 . S
H729 C745 0.930 1_565 S
H730 C746 0.936 1_565 S
C731 H719 0.929 . S
C731 C725 1.390 1_655 S
C731 C728 1.386 . S
C732 C727 1.506 . S
C732 C734 1.395 . S
C732 C735 1.403 1_545 S
H733 C739 0.918 1_565 S
C734 H720 0.930 . S
C734 C732 1.395 . S
C734 C737 1.403 . S
C735 C732 1.403 1_565 S
C735 C736 1.524 . S
C735 C739 1.386 1_565 S
C736 H721 0.960 . S
C736 H722 0.960 . S
C736 H723 0.960 . S
C736 C735 1.524 . S
C737 C734 1.403 . S
C737 C738 1.392 . S
C737 C741 1.495 . S
C738 C737 1.392 . S
C738 C739 1.414 . S
C738 C740 1.478 . S
C739 H733 0.918 1_545 S
C739 C735 1.386 1_545 S
C739 C738 1.414 . S
C740 C738 1.478 . S
C740 C742 1.381 . S
C740 C746 1.379 . S
C741 C737 1.495 . S
C741 H747 0.959 . S
C741 H748 0.961 . S
C741 H749 0.960 . S
C742 C740 1.381 . S
C742 C743 1.394 . S
C742 H750 0.930 . S
C743 C742 1.394 . S
C743 C744 1.383 . S
C743 H751 0.929 . S
C744 C743 1.383 . S
C744 C745 1.377 . S
C745 H729 0.930 1_545 S
C745 C744 1.377 . S
C745 C746 1.378 . S
C746 H730 0.936 1_545 S
C746 C740 1.379 . S
C746 C745 1.378 . S
H747 C741 0.959 . S
H748 C741 0.961 . S
H749 C741 0.960 . S
H750 C742 0.930 . S
H751 C743 0.929 . S
H752 C760 0.929 . S
H753 C762 0.930 . S
H754 C764 0.930 . S
H755 C767 0.929 . S
H756 C770 0.930 . S
H757 C772 0.960 . S
H758 C772 0.960 . S
H759 C772 0.960 . S
C760 H752 0.929 . S
C760 C761 1.377 . S
C760 C762 1.384 . S
C761 C760 1.377 . S
C761 C767 1.390 . S
C762 H753 0.930 . S
C762 C760 1.384 . S
C762 C763 1.372 . S
C763 C762 1.372 . S
C763 C764 1.400 . S
C763 C768 1.490 . S
C764 H754 0.930 . S
C764 C763 1.400 . S
C764 C767 1.386 . S
H765 C781 0.930 . S
H766 C782 0.931 . S
C767 H755 0.929 . S
C767 C761 1.390 . S
C767 C764 1.386 . S
C768 C763 1.490 . S
C768 C770 1.395 . S
C768 C771 1.403 . S
H769 C775 0.930 . S
C770 H756 0.930 . S
C770 C768 1.395 . S
C770 C773 1.403 . S
C771 C768 1.403 . S
C771 C772 1.524 . S
C771 C775 1.400 . S
C772 H757 0.960 . S
C772 H758 0.960 . S
C772 H759 0.960 . S
C772 C771 1.524 . S
C773 C770 1.403 . S
C773 C774 1.392 . S
C773 C777 1.495 . S
C774 C773 1.392 . S
C774 C775 1.385 . S
C774 C776 1.478 . S
C775 H769 0.930 . S
C775 C771 1.400 . S
C775 C774 1.385 . S
C776 C774 1.478 . S
C776 C778 1.381 . S
C776 C782 1.383 . S
C777 C773 1.495 . S
C777 H783 0.959 . S
C777 H784 0.961 . S
C777 H785 0.960 . S
C778 C776 1.381 . S
C778 C779 1.394 . S
C778 H786 0.930 . S
C779 C778 1.394 . S
C779 C780 1.383 . S
C779 H787 0.929 . S
C780 C779 1.383 . S
C780 C781 1.377 . S
C781 H765 0.930 . S
C781 C780 1.377 . S
C781 C782 1.379 . S
C782 H766 0.931 . S
C782 C776 1.383 . S
C782 C781 1.379 . S
H783 C777 0.959 . S
H784 C777 0.961 . S
H785 C777 0.960 . S
H786 C778 0.930 . S
H787 C779 0.929 . S
H788 C796 0.929 . S
H789 C798 0.930 . S
H790 C800 0.930 . S
H791 C803 0.929 . S
H792 C806 0.930 . S
H793 C808 0.960 . S
H794 C808 0.960 . S
H795 C808 0.960 . S
C796 H788 0.929 . S
C796 C797 1.377 . S
C796 C798 1.384 . S
C797 C796 1.377 . S
C797 C803 1.390 . S
C798 H789 0.930 . S
C798 C796 1.384 . S
C798 C799 1.372 . S
C799 C798 1.372 . S
C799 C800 1.400 . S
C799 C804 1.490 . S
C800 H790 0.930 . S
C800 C799 1.400 . S
C800 C803 1.386 . S
H801 C817 0.930 . S
H802 C818 0.931 . S
C803 H791 0.929 . S
C803 C797 1.390 . S
C803 C800 1.386 . S
C804 C799 1.490 . S
C804 C806 1.395 . S
C804 C807 1.403 . S
H805 C811 0.930 . S
C806 H792 0.930 . S
C806 C804 1.395 . S
C806 C809 1.403 . S
C807 C804 1.403 . S
C807 C808 1.524 . S
C807 C811 1.400 . S
C808 H793 0.960 . S
C808 H794 0.960 . S
C808 H795 0.960 . S
C808 C807 1.524 . S
C809 C806 1.403 . S
C809 C810 1.392 . S
C809 C813 1.495 . S
C810 C809 1.392 . S
C810 C811 1.385 . S
C810 C812 1.478 . S
C811 H805 0.930 . S
C811 C807 1.400 . S
C811 C810 1.385 . S
C812 C810 1.478 . S
C812 C814 1.381 . S
C812 C818 1.383 . S
C813 C809 1.495 . S
C813 H819 0.959 . S
C813 H820 0.961 . S
C813 H821 0.960 . S
C814 C812 1.381 . S
C814 C815 1.394 . S
C814 H822 0.930 . S
C815 C814 1.394 . S
C815 C816 1.383 . S
C815 H823 0.929 . S
C816 C815 1.383 . S
C816 C817 1.377 . S
C817 H801 0.930 . S
C817 C816 1.377 . S
C817 C818 1.379 . S
C818 H802 0.931 . S
C818 C812 1.383 . S
C818 C817 1.379 . S
H819 C813 0.959 . S
H820 C813 0.961 . S
H821 C813 0.960 . S
H822 C814 0.930 . S
H823 C815 0.929 . S
H824 C832 0.929 . S
H825 C834 0.930 . S
H826 C836 0.930 . S
H827 C839 0.929 . S
H828 C842 0.930 . S
H829 C844 0.960 . S
H830 C844 0.960 . S
H831 C844 0.960 . S
C832 H824 0.929 . S
C832 C833 1.377 . S
C832 C834 1.384 . S
C833 C832 1.377 . S
C833 C839 1.390 . S
C834 H825 0.930 . S
C834 C832 1.384 . S
C834 C835 1.372 . S
C835 C834 1.372 . S
C835 C836 1.400 . S
C835 C840 1.490 . S
C836 H826 0.930 . S
C836 C835 1.400 . S
C836 C839 1.386 . S
H837 C853 0.930 . S
H838 C854 0.931 . S
C839 H827 0.929 . S
C839 C833 1.390 . S
C839 C836 1.386 . S
C840 C835 1.490 . S
C840 C842 1.395 . S
C840 C843 1.403 . S
H841 C847 0.930 . S
C842 H828 0.930 . S
C842 C840 1.395 . S
C842 C845 1.403 . S
C843 C840 1.403 . S
C843 C844 1.524 . S
C843 C847 1.400 . S
C844 H829 0.960 . S
C844 H830 0.960 . S
C844 H831 0.960 . S
C844 C843 1.524 . S
C845 C842 1.403 . S
C845 C846 1.392 . S
C845 C849 1.495 . S
C846 C845 1.392 . S
C846 C847 1.385 . S
C846 C848 1.478 . S
C847 H841 0.930 . S
C847 C843 1.400 . S
C847 C846 1.385 . S
C848 C846 1.478 . S
C848 C850 1.381 . S
C848 C854 1.383 . S
C849 C845 1.495 . S
C849 H855 0.959 . S
C849 H856 0.961 . S
C849 H857 0.960 . S
C850 C848 1.381 . S
C850 C851 1.394 . S
C850 H858 0.930 . S
C851 C850 1.394 . S
C851 C852 1.383 . S
C851 H859 0.929 . S
C852 C851 1.383 . S
C852 C853 1.377 . S
C853 H837 0.930 . S
C853 C852 1.377 . S
C853 C854 1.379 . S
C854 H838 0.931 . S
C854 C848 1.383 . S
C854 C853 1.379 . S
H855 C849 0.959 . S
H856 C849 0.961 . S
H857 C849 0.960 . S
H858 C850 0.930 . S
H859 C851 0.929 . S
H860 C868 0.929 . S
H861 C870 0.930 . S
H862 C872 0.930 . S
H863 C875 0.929 . S
H864 C878 0.930 . S
H865 C880 0.960 . S
H866 C880 0.960 . S
H867 C880 0.960 . S
C868 H860 0.929 . S
C868 C869 1.377 . S
C868 C870 1.384 . S
C869 C868 1.377 . S
C869 C875 1.390 . S
C870 H861 0.930 . S
C870 C868 1.384 . S
C870 C871 1.372 . S
C871 C870 1.372 . S
C871 C872 1.400 . S
C871 C876 1.490 . S
C872 H862 0.930 . S
C872 C871 1.400 . S
C872 C875 1.386 . S
H873 C889 0.928 . S
H874 C890 0.932 1_545 S
C875 H863 0.929 . S
C875 C869 1.390 . S
C875 C872 1.386 . S
C876 C871 1.490 . S
C876 C878 1.395 . S
C876 C879 1.403 1_565 S
H877 C883 0.930 . S
C878 H864 0.930 . S
C878 C876 1.395 . S
C878 C881 1.403 . S
C879 C876 1.403 1_545 S
C879 C880 1.524 . S
C879 C883 1.400 . S
C880 H865 0.960 . S
C880 H866 0.960 . S
C880 H867 0.960 . S
C880 C879 1.524 . S
C881 C878 1.403 . S
C881 C882 1.392 . S
C881 C885 1.495 . S
C882 C881 1.392 . S
C882 C883 1.385 1_565 S
C882 C884 1.478 . S
C883 H877 0.930 . S
C883 C879 1.400 . S
C883 C882 1.385 1_545 S
C884 C882 1.478 . S
C884 C886 1.381 . S
C884 C890 1.383 . S
C885 C881 1.495 . S
C885 H891 0.959 . S
C885 H892 0.961 . S
C885 H893 0.960 . S
C886 C884 1.381 . S
C886 C887 1.394 . S
C886 H894 0.930 . S
C887 C886 1.394 . S
C887 C888 1.383 . S
C887 H895 0.929 . S
C888 C887 1.383 . S
C888 C889 1.378 1_565 S
C889 H873 0.928 . S
C889 C888 1.378 1_545 S
C889 C890 1.380 1_545 S
C890 H874 0.932 1_565 S
C890 C884 1.383 . S
C890 C889 1.380 1_565 S
H891 C885 0.959 . S
H892 C885 0.961 . S
H893 C885 0.960 . S
H894 C886 0.930 . S
H895 C887 0.929 . S
H896 C904 0.929 . S
H897 C906 0.930 . S
H898 C908 0.930 . S
H899 C911 0.929 . S
H900 C914 0.930 . S
H901 C916 0.960 . S
H902 C916 0.960 . S
H903 C916 0.960 . S
C904 H896 0.929 . S
C904 C905 1.377 . S
C904 C906 1.384 . S
C905 C904 1.377 . S
C905 C911 1.390 . S
C906 H897 0.930 . S
C906 C904 1.384 . S
C906 C907 1.372 . S
C907 C906 1.372 . S
C907 C908 1.400 . S
C907 C912 1.490 . S
C908 H898 0.930 . S
C908 C907 1.400 . S
C908 C911 1.386 . S
H909 C925 0.930 . S
H910 C926 0.931 . S
C911 H899 0.929 . S
C911 C905 1.390 . S
C911 C908 1.386 . S
C912 C907 1.490 . S
C912 C914 1.395 . S
C912 C915 1.403 . S
H913 C919 0.930 . S
C914 H900 0.930 . S
C914 C912 1.395 . S
C914 C917 1.403 . S
C915 C912 1.403 . S
C915 C916 1.524 . S
C915 C919 1.400 . S
C916 H901 0.960 . S
C916 H902 0.960 . S
C916 H903 0.960 . S
C916 C915 1.524 . S
C917 C914 1.403 . S
C917 C918 1.392 . S
C917 C921 1.495 . S
C918 C917 1.392 . S
C918 C919 1.385 . S
C918 C920 1.478 . S
C919 H913 0.930 . S
C919 C915 1.400 . S
C919 C918 1.385 . S
C920 C918 1.478 . S
C920 C922 1.381 . S
C920 C926 1.383 . S
C921 C917 1.495 . S
C921 H927 0.959 . S
C921 H928 0.961 . S
C921 H929 0.960 . S
C922 C920 1.381 . S
C922 C923 1.394 . S
C922 H930 0.930 . S
C923 C922 1.394 . S
C923 C924 1.383 . S
C923 H931 0.929 . S
C924 C923 1.383 . S
C924 C925 1.377 . S
C925 H909 0.930 . S
C925 C924 1.377 . S
C925 C926 1.379 . S
C926 H910 0.931 . S
C926 C920 1.383 . S
C926 C925 1.379 . S
H927 C921 0.959 . S
H928 C921 0.961 . S
H929 C921 0.960 . S
H930 C922 0.930 . S
H931 C923 0.929 . S
H932 C940 0.929 . S
H933 C942 0.930 . S
H934 C944 0.930 . S
H935 C947 0.929 . S
H936 C950 0.930 . S
H937 C952 0.960 . S
H938 C952 0.960 . S
H939 C952 0.960 . S
C940 H932 0.929 . S
C940 C941 1.377 . S
C940 C942 1.384 . S
C941 C940 1.377 . S
C941 C947 1.390 . S
C942 H933 0.930 . S
C942 C940 1.384 . S
C942 C943 1.372 . S
C943 C942 1.372 . S
C943 C944 1.400 . S
C943 C948 1.490 . S
C944 H934 0.930 . S
C944 C943 1.400 . S
C944 C947 1.386 . S
H945 C961 0.930 . S
H946 C962 0.931 . S
C947 H935 0.929 . S
C947 C941 1.390 . S
C947 C944 1.386 . S
C948 C943 1.490 . S
C948 C950 1.395 . S
C948 C951 1.403 . S
H949 C955 0.930 . S
C950 H936 0.930 . S
C950 C948 1.395 . S
C950 C953 1.403 . S
C951 C948 1.403 . S
C951 C952 1.524 . S
C951 C955 1.400 . S
C952 H937 0.960 . S
C952 H938 0.960 . S
C952 H939 0.960 . S
C952 C951 1.524 . S
C953 C950 1.403 . S
C953 C954 1.392 . S
C953 C957 1.495 . S
C954 C953 1.392 . S
C954 C955 1.385 . S
C954 C956 1.478 . S
C955 H949 0.930 . S
C955 C951 1.400 . S
C955 C954 1.385 . S
C956 C954 1.478 . S
C956 C958 1.381 . S
C956 C962 1.383 . S
C957 C953 1.495 . S
C957 H963 0.959 . S
C957 H964 0.961 . S
C957 H965 0.960 . S
C958 C956 1.381 . S
C958 C959 1.394 . S
C958 H966 0.930 . S
C959 C958 1.394 . S
C959 C960 1.383 . S
C959 H967 0.929 . S
C960 C959 1.383 . S
C960 C961 1.377 . S
C961 H945 0.930 . S
C961 C960 1.377 . S
C961 C962 1.379 . S
C962 H946 0.931 . S
C962 C956 1.383 . S
C962 C961 1.379 . S
H963 C957 0.959 . S
H964 C957 0.961 . S
H965 C957 0.960 . S
H966 C958 0.930 . S
H967 C959 0.929 . S
H968 C976 0.929 . S
H969 C978 0.930 . S
H970 C980 0.930 . S
H971 C983 0.929 . S
H972 C986 0.930 . S
H973 C988 0.960 . S
H974 C988 0.960 . S
H975 C988 0.960 . S
C976 H968 0.929 . S
C976 C977 1.377 . S
C976 C978 1.384 . S
C977 C976 1.377 . S
C977 C983 1.390 . S
C978 H969 0.930 . S
C978 C976 1.384 . S
C978 C979 1.372 . S
C979 C978 1.372 . S
C979 C980 1.400 . S
C979 C984 1.490 . S
C980 H970 0.930 . S
C980 C979 1.400 . S
C980 C983 1.386 . S
H981 C997 0.930 . S
H982 C998 0.931 . S
C983 H971 0.929 . S
C983 C977 1.390 . S
C983 C980 1.386 . S
C984 C979 1.490 . S
C984 C986 1.395 . S
C984 C987 1.403 . S
H985 C991 0.930 . S
C986 H972 0.930 . S
C986 C984 1.395 . S
C986 C989 1.403 . S
C987 C984 1.403 . S
C987 C988 1.524 . S
C987 C991 1.400 . S
C988 H973 0.960 . S
C988 H974 0.960 . S
C988 H975 0.960 . S
C988 C987 1.524 . S
C989 C986 1.403 . S
C989 C990 1.392 . S
C989 C993 1.495 . S
C990 C989 1.392 . S
C990 C991 1.385 . S
C990 C992 1.478 . S
C991 H985 0.930 . S
C991 C987 1.400 . S
C991 C990 1.385 . S
C992 C990 1.478 . S
C992 C994 1.381 . S
C992 C998 1.383 . S
C993 C989 1.495 . S
C993 H999 0.959 . S
C993 H1000 0.961 . S
C993 H1001 0.960 . S
C994 C992 1.381 . S
C994 C995 1.394 . S
C994 H1002 0.930 . S
C995 C994 1.394 . S
C995 C996 1.383 . S
C995 H1003 0.929 . S
C996 C995 1.383 . S
C996 C997 1.377 . S
C997 H981 0.930 . S
C997 C996 1.377 . S
C997 C998 1.379 . S
C998 H982 0.931 . S
C998 C992 1.383 . S
C998 C997 1.379 . S
H999 C993 0.959 . S
H1000 C993 0.961 . S
H1001 C993 0.960 . S
H1002 C994 0.930 . S
H1003 C995 0.929 . S
H1004 C1012 0.929 . S
H1005 C1014 0.930 . S
H1006 C1016 0.930 . S
H1007 C1019 0.929 . S
H1008 C1022 0.930 . S
H1009 C1024 0.960 . S
H1010 C1024 0.960 . S
H1011 C1024 0.960 . S
C1012 H1004 0.929 . S
C1012 C1013 1.377 . S
C1012 C1014 1.384 . S
C1013 C1012 1.377 . S
C1013 C1019 1.390 . S
C1014 H1005 0.930 . S
C1014 C1012 1.384 . S
C1014 C1015 1.372 . S
C1015 C1014 1.372 . S
C1015 C1016 1.400 . S
C1015 C1020 1.490 . S
C1016 H1006 0.930 . S
C1016 C1015 1.400 . S
C1016 C1019 1.386 . S
H1017 C1033 0.930 . S
H1018 C1034 0.931 . S
C1019 H1007 0.929 . S
C1019 C1013 1.390 . S
C1019 C1016 1.386 . S
C1020 C1015 1.490 . S
C1020 C1022 1.395 . S
C1020 C1023 1.403 . S
H1021 C1027 0.930 . S
C1022 H1008 0.930 . S
C1022 C1020 1.395 . S
C1022 C1025 1.403 . S
C1023 C1020 1.403 . S
C1023 C1024 1.524 . S
C1023 C1027 1.400 . S
C1024 H1009 0.960 . S
C1024 H1010 0.960 . S
C1024 H1011 0.960 . S
C1024 C1023 1.524 . S
C1025 C1022 1.403 . S
C1025 C1026 1.392 . S
C1025 C1029 1.495 . S
C1026 C1025 1.392 . S
C1026 C1027 1.385 . S
C1026 C1028 1.478 . S
C1027 H1021 0.930 . S
C1027 C1023 1.400 . S
C1027 C1026 1.385 . S
C1028 C1026 1.478 . S
C1028 C1030 1.381 . S
C1028 C1034 1.383 . S
C1029 C1025 1.495 . S
C1029 H1035 0.959 . S
C1029 H1036 0.961 . S
C1029 H1037 0.960 . S
C1030 C1028 1.381 . S
C1030 C1031 1.394 . S
C1030 H1038 0.930 . S
C1031 C1030 1.394 . S
C1031 C1032 1.383 . S
C1031 H1039 0.929 . S
C1032 C1031 1.383 . S
C1032 C1033 1.377 . S
C1033 H1017 0.930 . S
C1033 C1032 1.377 . S
C1033 C1034 1.379 . S
C1034 H1018 0.931 . S
C1034 C1028 1.383 . S
C1034 C1033 1.379 . S
H1035 C1029 0.959 . S
H1036 C1029 0.961 . S
H1037 C1029 0.960 . S
H1038 C1030 0.930 . S
H1039 C1031 0.929 . S
H1040 C1048 0.929 . S
H1041 C1050 0.930 . S
H1042 C1052 0.930 . S
H1043 C1055 0.929 . S
H1044 C1058 0.930 . S
H1045 C1060 0.960 . S
H1046 C1060 0.960 . S
H1047 C1060 0.960 . S
C1048 H1040 0.929 . S
C1048 C1049 1.377 . S
C1048 C1050 1.384 . S
C1049 C1048 1.377 . S
C1049 C1055 1.390 . S
C1050 H1041 0.930 . S
C1050 C1048 1.384 . S
C1050 C1051 1.372 . S
C1051 C1050 1.372 . S
C1051 C1052 1.400 . S
C1051 C1056 1.490 . S
C1052 H1042 0.930 . S
C1052 C1051 1.400 . S
C1052 C1055 1.386 . S
H1053 C1069 0.930 . S
H1054 C1070 0.931 . S
C1055 H1043 0.929 . S
C1055 C1049 1.390 . S
C1055 C1052 1.386 . S
C1056 C1051 1.490 . S
C1056 C1058 1.395 . S
C1056 C1059 1.403 . S
H1057 C1063 0.930 . S
C1058 H1044 0.930 . S
C1058 C1056 1.395 . S
C1058 C1061 1.403 . S
C1059 C1056 1.403 . S
C1059 C1060 1.524 . S
C1059 C1063 1.400 . S
C1060 H1045 0.960 . S
C1060 H1046 0.960 . S
C1060 H1047 0.960 . S
C1060 C1059 1.524 . S
C1061 C1058 1.403 . S
C1061 C1062 1.392 . S
C1061 C1065 1.495 . S
C1062 C1061 1.392 . S
C1062 C1063 1.385 . S
C1062 C1064 1.478 . S
C1063 H1057 0.930 . S
C1063 C1059 1.400 . S
C1063 C1062 1.385 . S
C1064 C1062 1.478 . S
C1064 C1066 1.381 . S
C1064 C1070 1.383 . S
C1065 C1061 1.495 . S
C1065 H1071 0.959 . S
C1065 H1072 0.961 . S
C1065 H1073 0.960 . S
C1066 C1064 1.381 . S
C1066 C1067 1.394 . S
C1066 H1074 0.930 . S
C1067 C1066 1.394 . S
C1067 C1068 1.383 . S
C1067 H1075 0.929 . S
C1068 C1067 1.383 . S
C1068 C1069 1.377 . S
C1069 H1053 0.930 . S
C1069 C1068 1.377 . S
C1069 C1070 1.379 . S
C1070 H1054 0.931 . S
C1070 C1064 1.383 . S
C1070 C1069 1.379 . S
H1071 C1065 0.959 . S
H1072 C1065 0.961 . S
H1073 C1065 0.960 . S
H1074 C1066 0.930 . S
H1075 C1067 0.929 . S
H1076 C1084 0.929 . S
H1077 C1086 0.930 . S
H1078 C1088 0.930 . S
H1079 C1091 0.929 . S
H1080 C1094 0.930 . S
H1081 C1096 0.960 1_655 S
H1082 C1096 0.952 1_655 S
H1083 C1096 0.960 . S
C1084 H1076 0.929 . S
C1084 C1085 1.377 . S
C1084 C1086 1.384 . S
C1085 C1084 1.377 . S
C1085 C1091 1.390 . S
C1086 H1077 0.930 . S
C1086 C1084 1.384 . S
C1086 C1087 1.372 . S
C1087 C1086 1.372 . S
C1087 C1088 1.400 . S
C1087 C1092 1.490 . S
C1088 H1078 0.930 . S
C1088 C1087 1.400 . S
C1088 C1091 1.386 . S
H1089 C1105 0.930 . S
H1090 C1106 0.931 . S
C1091 H1079 0.929 . S
C1091 C1085 1.390 . S
C1091 C1088 1.386 . S
C1092 C1087 1.490 . S
C1092 C1094 1.395 . S
C1092 C1095 1.403 . S
H1093 C1099 0.930 . S
C1094 H1080 0.930 . S
C1094 C1092 1.395 . S
C1094 C1097 1.403 . S
C1095 C1092 1.403 . S
C1095 C1096 1.524 . S
C1095 C1099 1.400 . S
C1096 H1081 0.960 1_455 S
C1096 H1082 0.952 1_455 S
C1096 H1083 0.960 . S
C1096 C1095 1.524 . S
C1097 C1094 1.403 . S
C1097 C1098 1.392 . S
C1097 C1101 1.495 . S
C1098 C1097 1.392 . S
C1098 C1099 1.385 . S
C1098 C1100 1.478 . S
C1099 H1093 0.930 . S
C1099 C1095 1.400 . S
C1099 C1098 1.385 . S
C1100 C1098 1.478 . S
C1100 C1102 1.381 . S
C1100 C1106 1.383 . S
C1101 C1097 1.495 . S
C1101 H1107 0.959 . S
C1101 H1108 0.961 . S
C1101 H1109 0.960 . S
C1102 C1100 1.381 . S
C1102 C1103 1.394 . S
C1102 H1110 0.930 . S
C1103 C1102 1.394 . S
C1103 C1104 1.383 . S
C1103 H1111 0.929 . S
C1104 C1103 1.383 . S
C1104 C1105 1.377 . S
C1105 H1089 0.930 . S
C1105 C1104 1.377 . S
C1105 C1106 1.379 . S
C1106 H1090 0.931 . S
C1106 C1100 1.383 . S
C1106 C1105 1.379 . S
H1107 C1101 0.959 . S
H1108 C1101 0.961 . S
H1109 C1101 0.960 . S
H1110 C1102 0.930 . S
H1111 C1103 0.929 . S
H1112 C1120 0.929 . S
H1113 C1122 0.930 . S
H1114 C1124 0.930 . S
H1115 C1127 0.929 . S
H1116 C1130 0.930 . S
H1117 C1132 0.960 . S
H1118 C1132 0.960 . S
H1119 C1132 0.960 . S
C1120 H1112 0.929 . S
C1120 C1121 1.377 . S
C1120 C1122 1.384 . S
C1121 C1120 1.377 . S
C1121 C1127 1.390 . S
C1122 H1113 0.930 . S
C1122 C1120 1.384 . S
C1122 C1123 1.372 . S
C1123 C1122 1.372 . S
C1123 C1124 1.400 . S
C1123 C1128 1.490 . S
C1124 H1114 0.930 . S
C1124 C1123 1.400 . S
C1124 C1127 1.386 . S
H1125 C1141 0.930 . S
H1126 C1142 0.931 . S
C1127 H1115 0.929 . S
C1127 C1121 1.390 . S
C1127 C1124 1.386 . S
C1128 C1123 1.490 . S
C1128 C1130 1.395 . S
C1128 C1131 1.403 . S
H1129 C1135 0.930 . S
C1130 H1116 0.930 . S
C1130 C1128 1.395 . S
C1130 C1133 1.403 . S
C1131 C1128 1.403 . S
C1131 C1132 1.524 . S
C1131 C1135 1.400 . S
C1132 H1117 0.960 . S
C1132 H1118 0.960 . S
C1132 H1119 0.960 . S
C1132 C1131 1.524 . S
C1133 C1130 1.403 . S
C1133 C1134 1.392 . S
C1133 C1137 1.495 . S
C1134 C1133 1.392 . S
C1134 C1135 1.385 . S
C1134 C1136 1.478 . S
C1135 H1129 0.930 . S
C1135 C1131 1.400 . S
C1135 C1134 1.385 . S
C1136 C1134 1.478 . S
C1136 C1138 1.381 . S
C1136 C1142 1.383 . S
C1137 C1133 1.495 . S
C1137 H1143 0.959 . S
C1137 H1144 0.961 . S
C1137 H1145 0.960 . S
C1138 C1136 1.381 . S
C1138 C1139 1.394 . S
C1138 H1146 0.930 . S
C1139 C1138 1.394 . S
C1139 C1140 1.383 . S
C1139 H1147 0.929 . S
C1140 C1139 1.383 . S
C1140 C1141 1.377 . S
C1141 H1125 0.930 . S
C1141 C1140 1.377 . S
C1141 C1142 1.379 . S
C1142 H1126 0.931 . S
C1142 C1136 1.383 . S
C1142 C1141 1.379 . S
H1143 C1137 0.959 . S
H1144 C1137 0.961 . S
H1145 C1137 0.960 . S
H1146 C1138 0.930 . S
H1147 C1139 0.929 . S
H1148 C1156 0.929 . S
H1149 C1158 0.930 . S
H1150 C1160 0.930 . S
H1151 C1163 0.929 . S
H1152 C1166 0.930 . S
H1153 C1168 0.960 . S
H1154 C1168 0.960 . S
H1155 C1168 0.960 . S
C1156 H1148 0.929 . S
C1156 C1157 1.377 . S
C1156 C1158 1.384 . S
C1157 C1156 1.377 . S
C1157 C1163 1.390 1_655 S
C1158 H1149 0.930 . S
C1158 C1156 1.384 . S
C1158 C1159 1.372 1_655 S
C1159 C1158 1.372 1_455 S
C1159 C1160 1.400 . S
C1159 C1164 1.490 . S
C1160 H1150 0.930 . S
C1160 C1159 1.400 . S
C1160 C1163 1.386 . S
H1161 C1177 0.930 . S
H1162 C1178 0.931 . S
C1163 H1151 0.929 . S
C1163 C1157 1.390 1_455 S
C1163 C1160 1.386 . S
C1164 C1159 1.490 . S
C1164 C1166 1.395 1_455 S
C1164 C1167 1.403 . S
H1165 C1171 0.930 . S
C1166 H1152 0.930 . S
C1166 C1164 1.395 1_655 S
C1166 C1169 1.403 . S
C1167 C1164 1.403 . S
C1167 C1168 1.524 . S
C1167 C1171 1.400 . S
C1168 H1153 0.960 . S
C1168 H1154 0.960 . S
C1168 H1155 0.960 . S
C1168 C1167 1.524 . S
C1169 C1166 1.403 . S
C1169 C1170 1.392 1_655 S
C1169 C1173 1.495 . S
C1170 C1169 1.392 1_455 S
C1170 C1171 1.385 . S
C1170 C1172 1.478 . S
C1171 H1165 0.930 . S
C1171 C1167 1.400 . S
C1171 C1170 1.385 . S
C1172 C1170 1.478 . S
C1172 C1174 1.381 1_455 S
C1172 C1178 1.383 . S
C1173 C1169 1.495 . S
C1173 H1179 0.959 . S
C1173 H1180 0.961 . S
C1173 H1181 0.960 . S
C1174 C1172 1.381 1_655 S
C1174 C1175 1.394 1_655 S
C1174 H1182 0.930 . S
C1175 C1174 1.394 1_455 S
C1175 C1176 1.383 . S
C1175 H1183 0.929 1_455 S
C1176 C1175 1.383 . S
C1176 C1177 1.377 . S
C1177 H1161 0.930 . S
C1177 C1176 1.377 . S
C1177 C1178 1.379 . S
C1178 H1162 0.931 . S
C1178 C1172 1.383 . S
C1178 C1177 1.379 . S
H1179 C1173 0.959 . S
H1180 C1173 0.961 . S
H1181 C1173 0.960 . S
H1182 C1174 0.930 . S
H1183 C1175 0.929 1_655 S
H1184 C1192 0.929 . S
H1185 C1194 0.930 . S
H1186 C1196 0.930 . S
H1187 C1199 0.929 . S
H1188 C1202 0.930 . S
H1189 C1204 0.960 . S
H1190 C1204 0.960 . S
H1191 C1204 0.960 . S
C1192 H1184 0.929 . S
C1192 C1193 1.377 . S
C1192 C1194 1.384 . S
C1193 C1192 1.377 . S
C1193 C1199 1.390 . S
C1194 H1185 0.930 . S
C1194 C1192 1.384 . S
C1194 C1195 1.372 . S
C1195 C1194 1.372 . S
C1195 C1196 1.400 . S
C1195 C1200 1.490 . S
C1196 H1186 0.930 . S
C1196 C1195 1.400 . S
C1196 C1199 1.386 . S
H1197 C1213 0.930 . S
H1198 C1214 0.931 . S
C1199 H1187 0.929 . S
C1199 C1193 1.390 . S
C1199 C1196 1.386 . S
C1200 C1195 1.490 . S
C1200 C1202 1.395 . S
C1200 C1203 1.403 . S
H1201 C1207 0.930 . S
C1202 H1188 0.930 . S
C1202 C1200 1.395 . S
C1202 C1205 1.403 . S
C1203 C1200 1.403 . S
C1203 C1204 1.524 . S
C1203 C1207 1.400 . S
C1204 H1189 0.960 . S
C1204 H1190 0.960 . S
C1204 H1191 0.960 . S
C1204 C1203 1.524 . S
C1205 C1202 1.403 . S
C1205 C1206 1.392 . S
C1205 C1209 1.495 . S
C1206 C1205 1.392 . S
C1206 C1207 1.385 . S
C1206 C1208 1.478 . S
C1207 H1201 0.930 . S
C1207 C1203 1.400 . S
C1207 C1206 1.385 . S
C1208 C1206 1.478 . S
C1208 C1210 1.381 . S
C1208 C1214 1.383 . S
C1209 C1205 1.495 . S
C1209 H1215 0.959 . S
C1209 H1216 0.961 . S
C1209 H1217 0.960 . S
C1210 C1208 1.381 . S
C1210 C1211 1.394 . S
C1210 H1218 0.930 . S
C1211 C1210 1.394 . S
C1211 C1212 1.383 . S
C1211 H1219 0.929 . S
C1212 C1211 1.383 . S
C1212 C1213 1.377 . S
C1213 H1197 0.930 . S
C1213 C1212 1.377 . S
C1213 C1214 1.379 . S
C1214 H1198 0.931 . S
C1214 C1208 1.383 . S
C1214 C1213 1.379 . S
H1215 C1209 0.959 . S
H1216 C1209 0.961 . S
H1217 C1209 0.960 . S
H1218 C1210 0.930 . S
H1219 C1211 0.929 . S
H1220 C1228 0.929 . S
H1221 C1230 0.930 . S
H1222 C1232 0.930 . S
H1223 C1235 0.929 . S
H1224 C1238 0.930 . S
H1225 C1240 0.960 . S
H1226 C1240 0.960 . S
H1227 C1240 0.960 . S
C1228 H1220 0.929 . S
C1228 C1229 1.377 . S
C1228 C1230 1.384 . S
C1229 C1228 1.377 . S
C1229 C1235 1.390 . S
C1230 H1221 0.930 . S
C1230 C1228 1.384 . S
C1230 C1231 1.372 . S
C1231 C1230 1.372 . S
C1231 C1232 1.400 . S
C1231 C1236 1.490 . S
C1232 H1222 0.930 . S
C1232 C1231 1.400 . S
C1232 C1235 1.386 . S
H1233 C1249 0.930 . S
H1234 C1250 0.931 . S
C1235 H1223 0.929 . S
C1235 C1229 1.390 . S
C1235 C1232 1.386 . S
C1236 C1231 1.490 . S
C1236 C1238 1.395 . S
C1236 C1239 1.403 . S
H1237 C1243 0.930 . S
C1238 H1224 0.930 . S
C1238 C1236 1.395 . S
C1238 C1241 1.403 . S
C1239 C1236 1.403 . S
C1239 C1240 1.524 . S
C1239 C1243 1.400 . S
C1240 H1225 0.960 . S
C1240 H1226 0.960 . S
C1240 H1227 0.960 . S
C1240 C1239 1.524 . S
C1241 C1238 1.403 . S
C1241 C1242 1.392 . S
C1241 C1245 1.495 . S
C1242 C1241 1.392 . S
C1242 C1243 1.385 . S
C1242 C1244 1.478 . S
C1243 H1237 0.930 . S
C1243 C1239 1.400 . S
C1243 C1242 1.385 . S
C1244 C1242 1.478 . S
C1244 C1246 1.381 . S
C1244 C1250 1.383 . S
C1245 C1241 1.495 . S
C1245 H1251 0.959 . S
C1245 H1252 0.961 . S
C1245 H1253 0.960 . S
C1246 C1244 1.381 . S
C1246 C1247 1.394 . S
C1246 H1254 0.930 . S
C1247 C1246 1.394 . S
C1247 C1248 1.383 . S
C1247 H1255 0.929 . S
C1248 C1247 1.383 . S
C1248 C1249 1.377 . S
C1249 H1233 0.930 . S
C1249 C1248 1.377 . S
C1249 C1250 1.379 . S
C1250 H1234 0.931 . S
C1250 C1244 1.383 . S
C1250 C1249 1.379 . S
H1251 C1245 0.959 . S
H1252 C1245 0.961 . S
H1253 C1245 0.960 . S
H1254 C1246 0.930 . S
H1255 C1247 0.929 . S
H1256 C1264 0.929 . S
H1257 C1266 0.930 . S
H1258 C1268 0.930 . S
H1259 C1271 0.929 . S
H1260 C1274 0.930 . S
H1261 C1276 0.960 . S
H1262 C1276 0.960 . S
H1263 C1276 0.960 . S
C1264 H1256 0.929 . S
C1264 C1265 1.353 1_556 S
C1264 C1266 1.384 . S
C1265 C1264 1.353 1_554 S
C1265 C1271 1.419 . S
C1266 H1257 0.930 . S
C1266 C1264 1.384 . S
C1266 C1267 1.372 1_556 S
C1267 C1266 1.372 1_554 S
C1267 C1268 1.400 . S
C1267 C1272 1.490 . S
C1268 H1258 0.930 . S
C1268 C1267 1.400 . S
C1268 C1271 1.386 . S
H1269 C1285 0.930 . S
H1270 C1286 0.931 . S
C1271 H1259 0.929 . S
C1271 C1265 1.419 . S
C1271 C1268 1.386 . S
C1272 C1267 1.490 . S
C1272 C1274 1.395 1_554 S
C1272 C1275 1.403 . S
H1273 C1279 0.930 . S
C1274 H1260 0.930 . S
C1274 C1272 1.395 1_556 S
C1274 C1277 1.403 . S
C1275 C1272 1.403 . S
C1275 C1276 1.524 . S
C1275 C1279 1.400 . S
C1276 H1261 0.960 . S
C1276 H1262 0.960 . S
C1276 H1263 0.960 . S
C1276 C1275 1.524 . S
C1277 C1274 1.403 . S
C1277 C1278 1.392 1_556 S
C1277 C1281 1.495 . S
C1278 C1277 1.392 1_554 S
C1278 C1279 1.385 . S
C1278 C1280 1.478 . S
C1279 H1273 0.930 . S
C1279 C1275 1.400 . S
C1279 C1278 1.385 . S
C1280 C1278 1.478 . S
C1280 C1282 1.381 1_554 S
C1280 C1286 1.383 . S
C1281 C1277 1.495 . S
C1281 H1287 0.959 . S
C1281 H1288 0.961 . S
C1281 H1289 0.960 . S
C1282 C1280 1.381 1_556 S
C1282 C1283 1.394 . S
C1282 H1290 0.930 . S
C1283 C1282 1.394 . S
C1283 C1284 1.383 1_556 S
C1283 H1291 0.929 . S
C1284 C1283 1.383 1_554 S
C1284 C1285 1.377 . S
C1285 H1269 0.930 . S
C1285 C1284 1.377 . S
C1285 C1286 1.379 . S
C1286 H1270 0.931 . S
C1286 C1280 1.383 . S
C1286 C1285 1.379 . S
H1287 C1281 0.959 . S
H1288 C1281 0.961 . S
H1289 C1281 0.960 . S
H1290 C1282 0.930 . S
H1291 C1283 0.929 . S
H1292 C1300 0.929 . S
H1293 C1302 0.930 . S
H1294 C1304 0.930 . S
H1295 C1307 0.929 . S
H1296 C1310 0.930 . S
H1297 C1312 0.960 . S
H1298 C1312 0.960 . S
H1299 C1312 0.960 . S
C1300 H1292 0.929 . S
C1300 C1301 1.377 . S
C1300 C1302 1.384 . S
C1301 C1300 1.377 . S
C1301 C1307 1.390 . S
C1302 H1293 0.930 . S
C1302 C1300 1.384 . S
C1302 C1303 1.372 . S
C1303 C1302 1.372 . S
C1303 C1304 1.400 . S
C1303 C1308 1.490 . S
C1304 H1294 0.930 . S
C1304 C1303 1.400 . S
C1304 C1307 1.386 . S
H1305 C1321 0.930 . S
H1306 C1322 0.931 . S
C1307 H1295 0.929 . S
C1307 C1301 1.390 . S
C1307 C1304 1.386 . S
C1308 C1303 1.490 . S
C1308 C1310 1.395 . S
C1308 C1311 1.403 . S
H1309 C1315 0.930 . S
C1310 H1296 0.930 . S
C1310 C1308 1.395 . S
C1310 C1313 1.403 . S
C1311 C1308 1.403 . S
C1311 C1312 1.524 . S
C1311 C1315 1.400 . S
C1312 H1297 0.960 . S
C1312 H1298 0.960 . S
C1312 H1299 0.960 . S
C1312 C1311 1.524 . S
C1313 C1310 1.403 . S
C1313 C1314 1.392 . S
C1313 C1317 1.495 . S
C1314 C1313 1.392 . S
C1314 C1315 1.385 . S
C1314 C1316 1.478 . S
C1315 H1309 0.930 . S
C1315 C1311 1.400 . S
C1315 C1314 1.385 . S
C1316 C1314 1.478 . S
C1316 C1318 1.381 . S
C1316 C1322 1.383 . S
C1317 C1313 1.495 . S
C1317 H1323 0.959 . S
C1317 H1324 0.961 . S
C1317 H1325 0.960 . S
C1318 C1316 1.381 . S
C1318 C1319 1.394 . S
C1318 H1326 0.930 . S
C1319 C1318 1.394 . S
C1319 C1320 1.383 . S
C1319 H1327 0.929 . S
C1320 C1319 1.383 . S
C1320 C1321 1.377 . S
C1321 H1305 0.930 . S
C1321 C1320 1.377 . S
C1321 C1322 1.379 . S
C1322 H1306 0.931 . S
C1322 C1316 1.383 . S
C1322 C1321 1.379 . S
H1323 C1317 0.959 . S
H1324 C1317 0.961 . S
H1325 C1317 0.960 . S
H1326 C1318 0.930 . S
H1327 C1319 0.929 . S
H1328 C1336 0.929 . S
H1329 C1338 0.930 . S
H1330 C1340 0.930 . S
H1331 C1343 0.929 . S
H1332 C1346 0.930 . S
H1333 C1348 0.960 . S
H1334 C1348 0.960 . S
H1335 C1348 0.960 . S
C1336 H1328 0.929 . S
C1336 C1337 1.377 . S
C1336 C1338 1.384 . S
C1337 C1336 1.377 . S
C1337 C1343 1.390 . S
C1338 H1329 0.930 . S
C1338 C1336 1.384 . S
C1338 C1339 1.372 . S
C1339 C1338 1.372 . S
C1339 C1340 1.400 . S
C1339 C1344 1.490 . S
C1340 H1330 0.930 . S
C1340 C1339 1.400 . S
C1340 C1343 1.386 . S
H1341 C1357 0.930 . S
H1342 C1358 0.931 . S
C1343 H1331 0.929 . S
C1343 C1337 1.390 . S
C1343 C1340 1.386 . S
C1344 C1339 1.490 . S
C1344 C1346 1.395 . S
C1344 C1347 1.403 . S
H1345 C1351 0.930 . S
C1346 H1332 0.930 . S
C1346 C1344 1.395 . S
C1346 C1349 1.403 . S
C1347 C1344 1.403 . S
C1347 C1348 1.524 . S
C1347 C1351 1.400 . S
C1348 H1333 0.960 . S
C1348 H1334 0.960 . S
C1348 H1335 0.960 . S
C1348 C1347 1.524 . S
C1349 C1346 1.403 . S
C1349 C1350 1.392 . S
C1349 C1353 1.495 . S
C1350 C1349 1.392 . S
C1350 C1351 1.385 . S
C1350 C1352 1.478 . S
C1351 H1345 0.930 . S
C1351 C1347 1.400 . S
C1351 C1350 1.385 . S
C1352 C1350 1.478 . S
C1352 C1354 1.381 . S
C1352 C1358 1.383 . S
C1353 C1349 1.495 . S
C1353 H1359 0.959 . S
C1353 H1360 0.961 . S
C1353 H1361 0.960 . S
C1354 C1352 1.381 . S
C1354 C1355 1.394 . S
C1354 H1362 0.930 . S
C1355 C1354 1.394 . S
C1355 C1356 1.383 . S
C1355 H1363 0.929 . S
C1356 C1355 1.383 . S
C1356 C1357 1.377 . S
C1357 H1341 0.930 . S
C1357 C1356 1.377 . S
C1357 C1358 1.379 . S
C1358 H1342 0.931 . S
C1358 C1352 1.383 . S
C1358 C1357 1.379 . S
H1359 C1353 0.959 . S
H1360 C1353 0.961 . S
H1361 C1353 0.960 . S
H1362 C1354 0.930 . S
H1363 C1355 0.929 . S
H1364 C1372 0.929 . S
H1365 C1374 0.930 . S
H1366 C1376 0.930 . S
H1367 C1379 0.929 . S
H1368 C1382 0.930 . S
H1369 C1384 0.960 . S
H1370 C1384 0.960 . S
H1371 C1384 0.960 . S
C1372 H1364 0.929 . S
C1372 C1373 1.377 . S
C1372 C1374 1.384 . S
C1373 C1372 1.377 . S
C1373 C1379 1.390 . S
C1374 H1365 0.930 . S
C1374 C1372 1.384 . S
C1374 C1375 1.372 . S
C1375 C1374 1.372 . S
C1375 C1376 1.400 . S
C1375 C1380 1.490 . S
C1376 H1366 0.930 . S
C1376 C1375 1.400 . S
C1376 C1379 1.386 . S
H1377 C1393 0.930 . S
H1378 C1394 0.931 . S
C1379 H1367 0.929 . S
C1379 C1373 1.390 . S
C1379 C1376 1.386 . S
C1380 C1375 1.490 . S
C1380 C1382 1.395 . S
C1380 C1383 1.403 . S
H1381 C1387 0.930 . S
C1382 H1368 0.930 . S
C1382 C1380 1.395 . S
C1382 C1385 1.403 . S
C1383 C1380 1.403 . S
C1383 C1384 1.524 . S
C1383 C1387 1.400 . S
C1384 H1369 0.960 . S
C1384 H1370 0.960 . S
C1384 H1371 0.960 . S
C1384 C1383 1.524 . S
C1385 C1382 1.403 . S
C1385 C1386 1.392 . S
C1385 C1389 1.495 . S
C1386 C1385 1.392 . S
C1386 C1387 1.385 . S
C1386 C1388 1.478 . S
C1387 H1381 0.930 . S
C1387 C1383 1.400 . S
C1387 C1386 1.385 . S
C1388 C1386 1.478 . S
C1388 C1390 1.381 . S
C1388 C1394 1.383 . S
C1389 C1385 1.495 . S
C1389 H1395 0.959 . S
C1389 H1396 0.961 . S
C1389 H1397 0.960 . S
C1390 C1388 1.381 . S
C1390 C1391 1.394 . S
C1390 H1398 0.930 . S
C1391 C1390 1.394 . S
C1391 C1392 1.383 . S
C1391 H1399 0.929 . S
C1392 C1391 1.383 . S
C1392 C1393 1.377 . S
C1393 H1377 0.930 . S
C1393 C1392 1.377 . S
C1393 C1394 1.379 . S
C1394 H1378 0.931 . S
C1394 C1388 1.383 . S
C1394 C1393 1.379 . S
H1395 C1389 0.959 . S
H1396 C1389 0.961 . S
H1397 C1389 0.960 . S
H1398 C1390 0.930 . S
H1399 C1391 0.929 . S
H1400 C1408 0.929 . S
H1401 C1410 0.930 . S
H1402 C1412 0.930 . S
H1403 C1415 0.929 . S
H1404 C1418 0.930 . S
H1405 C1420 0.960 . S
H1406 C1420 0.960 . S
H1407 C1420 0.960 . S
C1408 H1400 0.929 . S
C1408 C1409 1.377 . S
C1408 C1410 1.384 . S
C1409 C1408 1.377 . S
C1409 C1415 1.390 . S
C1410 H1401 0.930 . S
C1410 C1408 1.384 . S
C1410 C1411 1.372 . S
C1411 C1410 1.372 . S
C1411 C1412 1.400 . S
C1411 C1416 1.490 . S
C1412 H1402 0.930 . S
C1412 C1411 1.400 . S
C1412 C1415 1.386 . S
H1413 C1429 0.930 . S
H1414 C1430 0.931 . S
C1415 H1403 0.929 . S
C1415 C1409 1.390 . S
C1415 C1412 1.386 . S
C1416 C1411 1.490 . S
C1416 C1418 1.395 . S
C1416 C1419 1.403 . S
H1417 C1423 0.930 . S
C1418 H1404 0.930 . S
C1418 C1416 1.395 . S
C1418 C1421 1.403 . S
C1419 C1416 1.403 . S
C1419 C1420 1.524 . S
C1419 C1423 1.400 . S
C1420 H1405 0.960 . S
C1420 H1406 0.960 . S
C1420 H1407 0.960 . S
C1420 C1419 1.524 . S
C1421 C1418 1.403 . S
C1421 C1422 1.392 . S
C1421 C1425 1.495 . S
C1422 C1421 1.392 . S
C1422 C1423 1.385 . S
C1422 C1424 1.478 . S
C1423 H1417 0.930 . S
C1423 C1419 1.400 . S
C1423 C1422 1.385 . S
C1424 C1422 1.478 . S
C1424 C1426 1.381 . S
C1424 C1430 1.383 . S
C1425 C1421 1.495 . S
C1425 H1431 0.959 . S
C1425 H1432 0.961 . S
C1425 H1433 0.960 . S
C1426 C1424 1.381 . S
C1426 C1427 1.394 . S
C1426 H1434 0.930 . S
C1427 C1426 1.394 . S
C1427 C1428 1.383 . S
C1427 H1435 0.929 . S
C1428 C1427 1.383 . S
C1428 C1429 1.377 . S
C1429 H1413 0.930 . S
C1429 C1428 1.377 . S
C1429 C1430 1.379 . S
C1430 H1414 0.931 . S
C1430 C1424 1.383 . S
C1430 C1429 1.379 . S
H1431 C1425 0.959 . S
H1432 C1425 0.961 . S
H1433 C1425 0.960 . S
H1434 C1426 0.930 . S
H1435 C1427 0.929 . S
H1436 C1444 0.929 . S
H1437 C1446 0.930 . S
H1438 C1448 0.930 . S
H1439 C1451 0.929 . S
H1440 C1454 0.930 . S
H1441 C1456 0.960 . S
H1442 C1456 0.960 . S
H1443 C1456 0.960 . S
C1444 H1436 0.929 . S
C1444 C1445 1.377 . S
C1444 C1446 1.384 . S
C1445 C1444 1.377 . S
C1445 C1451 1.390 . S
C1446 H1437 0.930 . S
C1446 C1444 1.384 . S
C1446 C1447 1.372 . S
C1447 C1446 1.372 . S
C1447 C1448 1.400 . S
C1447 C1452 1.490 . S
C1448 H1438 0.930 . S
C1448 C1447 1.400 . S
C1448 C1451 1.386 . S
H1449 C1465 0.930 . S
H1450 C1466 0.931 . S
C1451 H1439 0.929 . S
C1451 C1445 1.390 . S
C1451 C1448 1.386 . S
C1452 C1447 1.490 . S
C1452 C1454 1.395 . S
C1452 C1455 1.403 . S
H1453 C1459 0.930 . S
C1454 H1440 0.930 . S
C1454 C1452 1.395 . S
C1454 C1457 1.403 . S
C1455 C1452 1.403 . S
C1455 C1456 1.524 . S
C1455 C1459 1.400 . S
C1456 H1441 0.960 . S
C1456 H1442 0.960 . S
C1456 H1443 0.960 . S
C1456 C1455 1.524 . S
C1457 C1454 1.403 . S
C1457 C1458 1.392 . S
C1457 C1461 1.495 . S
C1458 C1457 1.392 . S
C1458 C1459 1.385 . S
C1458 C1460 1.478 . S
C1459 H1453 0.930 . S
C1459 C1455 1.400 . S
C1459 C1458 1.385 . S
C1460 C1458 1.478 . S
C1460 C1462 1.381 . S
C1460 C1466 1.383 . S
C1461 C1457 1.495 . S
C1461 H1467 0.959 . S
C1461 H1468 0.961 . S
C1461 H1469 0.960 . S
C1462 C1460 1.381 . S
C1462 C1463 1.394 . S
C1462 H1470 0.930 . S
C1463 C1462 1.394 . S
C1463 C1464 1.383 . S
C1463 H1471 0.929 . S
C1464 C1463 1.383 . S
C1464 C1465 1.377 . S
C1465 H1449 0.930 . S
C1465 C1464 1.377 . S
C1465 C1466 1.379 . S
C1466 H1450 0.931 . S
C1466 C1460 1.383 . S
C1466 C1465 1.379 . S
H1467 C1461 0.959 . S
H1468 C1461 0.961 . S
H1469 C1461 0.960 . S
H1470 C1462 0.930 . S
H1471 C1463 0.929 . S
H1472 C1480 0.929 . S
H1473 C1482 0.930 . S
H1474 C1484 0.930 . S
H1475 C1487 0.929 . S
H1476 C1490 0.930 . S
H1477 C1492 0.960 . S
H1478 C1492 0.960 . S
H1479 C1492 0.960 . S
C1480 H1472 0.929 . S
C1480 C1481 1.377 . S
C1480 C1482 1.384 . S
C1481 C1480 1.377 . S
C1481 C1487 1.390 . S
C1482 H1473 0.930 . S
C1482 C1480 1.384 . S
C1482 C1483 1.372 . S
C1483 C1482 1.372 . S
C1483 C1484 1.400 . S
C1483 C1488 1.490 . S
C1484 H1474 0.930 . S
C1484 C1483 1.400 . S
C1484 C1487 1.386 . S
H1485 C1501 0.930 . S
H1486 C1502 0.931 . S
C1487 H1475 0.929 . S
C1487 C1481 1.390 . S
C1487 C1484 1.386 . S
C1488 C1483 1.490 . S
C1488 C1490 1.395 . S
C1488 C1491 1.403 . S
H1489 C1495 0.930 . S
C1490 H1476 0.930 . S
C1490 C1488 1.395 . S
C1490 C1493 1.403 . S
C1491 C1488 1.403 . S
C1491 C1492 1.524 . S
C1491 C1495 1.400 . S
C1492 H1477 0.960 . S
C1492 H1478 0.960 . S
C1492 H1479 0.960 . S
C1492 C1491 1.524 . S
C1493 C1490 1.403 . S
C1493 C1494 1.392 . S
C1493 C1497 1.495 . S
C1494 C1493 1.392 . S
C1494 C1495 1.385 . S
C1494 C1496 1.478 . S
C1495 H1489 0.930 . S
C1495 C1491 1.400 . S
C1495 C1494 1.385 . S
C1496 C1494 1.478 . S
C1496 C1498 1.381 . S
C1496 C1502 1.383 . S
C1497 C1493 1.495 . S
C1497 H1503 0.959 . S
C1497 H1504 0.961 . S
C1497 H1505 0.960 . S
C1498 C1496 1.381 . S
C1498 C1499 1.394 . S
C1498 H1506 0.930 . S
C1499 C1498 1.394 . S
C1499 C1500 1.383 . S
C1499 H1507 0.929 . S
C1500 C1499 1.383 . S
C1500 C1501 1.377 . S
C1501 H1485 0.930 . S
C1501 C1500 1.377 . S
C1501 C1502 1.379 . S
C1502 H1486 0.931 . S
C1502 C1496 1.383 . S
C1502 C1501 1.379 . S
H1503 C1497 0.959 . S
H1504 C1497 0.961 . S
H1505 C1497 0.960 . S
H1506 C1498 0.930 . S
H1507 C1499 0.929 . S
H1508 C1516 0.929 . S
H1509 C1518 0.930 . S
H1510 C1520 0.930 . S
H1511 C1523 0.929 . S
H1512 C1526 0.930 . S
H1513 C1528 0.977 . S
H1514 C1528 0.969 . S
H1515 C1528 0.950 1_545 S
C1516 H1508 0.929 . S
C1516 C1517 1.377 . S
C1516 C1518 1.384 . S
C1517 C1516 1.377 . S
C1517 C1523 1.390 . S
C1518 H1509 0.930 . S
C1518 C1516 1.384 . S
C1518 C1519 1.372 . S
C1519 C1518 1.372 . S
C1519 C1520 1.400 . S
C1519 C1524 1.490 . S
C1520 H1510 0.930 . S
C1520 C1519 1.400 . S
C1520 C1523 1.386 . S
H1521 C1537 0.930 . S
H1522 C1538 0.931 . S
C1523 H1511 0.929 . S
C1523 C1517 1.390 . S
C1523 C1520 1.386 . S
C1524 C1519 1.490 . S
C1524 C1526 1.395 . S
C1524 C1527 1.403 . S
H1525 C1531 0.930 . S
C1526 H1512 0.930 . S
C1526 C1524 1.395 . S
C1526 C1529 1.403 . S
C1527 C1524 1.403 . S
C1527 C1528 1.508 1_545 S
C1527 C1531 1.400 . S
C1528 H1513 0.977 . S
C1528 H1514 0.969 . S
C1528 H1515 0.950 1_565 S
C1528 C1527 1.508 1_565 S
C1529 C1526 1.403 . S
C1529 C1530 1.392 . S
C1529 C1533 1.495 . S
C1530 C1529 1.392 . S
C1530 C1531 1.385 . S
C1530 C1532 1.478 . S
C1531 H1525 0.930 . S
C1531 C1527 1.400 . S
C1531 C1530 1.385 . S
C1532 C1530 1.478 . S
C1532 C1534 1.381 . S
C1532 C1538 1.383 . S
C1533 C1529 1.495 . S
C1533 H1539 0.959 . S
C1533 H1540 0.961 . S
C1533 H1541 0.960 . S
C1534 C1532 1.381 . S
C1534 C1535 1.394 . S
C1534 H1542 0.930 . S
C1535 C1534 1.394 . S
C1535 C1536 1.383 . S
C1535 H1543 0.929 . S
C1536 C1535 1.383 . S
C1536 C1537 1.377 . S
C1537 H1521 0.930 . S
C1537 C1536 1.377 . S
C1537 C1538 1.379 . S
C1538 H1522 0.931 . S
C1538 C1532 1.383 . S
C1538 C1537 1.379 . S
H1539 C1533 0.959 . S
H1540 C1533 0.961 . S
H1541 C1533 0.960 . S
H1542 C1534 0.930 . S
H1543 C1535 0.929 . S
H1544 C1552 0.929 . S
H1545 C1554 0.930 . S
H1546 C1556 0.930 . S
H1547 C1559 0.929 . S
H1548 C1562 0.930 . S
H1549 C1564 0.960 . S
H1550 C1564 0.960 . S
H1551 C1564 0.960 . S
C1552 H1544 0.929 . S
C1552 C1553 1.377 . S
C1552 C1554 1.384 . S
C1553 C1552 1.377 . S
C1553 C1559 1.390 . S
C1554 H1545 0.930 . S
C1554 C1552 1.384 . S
C1554 C1555 1.372 . S
C1555 C1554 1.372 . S
C1555 C1556 1.400 . S
C1555 C1560 1.490 . S
C1556 H1546 0.930 . S
C1556 C1555 1.400 . S
C1556 C1559 1.386 . S
H1557 C1573 0.930 . S
H1558 C1574 0.931 . S
C1559 H1547 0.929 . S
C1559 C1553 1.390 . S
C1559 C1556 1.386 . S
C1560 C1555 1.490 . S
C1560 C1562 1.395 . S
C1560 C1563 1.403 . S
H1561 C1567 0.930 . S
C1562 H1548 0.930 . S
C1562 C1560 1.395 . S
C1562 C1565 1.403 . S
C1563 C1560 1.403 . S
C1563 C1564 1.524 . S
C1563 C1567 1.400 . S
C1564 H1549 0.960 . S
C1564 H1550 0.960 . S
C1564 H1551 0.960 . S
C1564 C1563 1.524 . S
C1565 C1562 1.403 . S
C1565 C1566 1.392 . S
C1565 C1569 1.495 . S
C1566 C1565 1.392 . S
C1566 C1567 1.385 . S
C1566 C1568 1.478 . S
C1567 H1561 0.930 . S
C1567 C1563 1.400 . S
C1567 C1566 1.385 . S
C1568 C1566 1.478 . S
C1568 C1570 1.381 . S
C1568 C1574 1.383 . S
C1569 C1565 1.495 . S
C1569 H1575 0.959 . S
C1569 H1576 0.961 . S
C1569 H1577 0.960 . S
C1570 C1568 1.381 . S
C1570 C1571 1.394 . S
C1570 H1578 0.930 . S
C1571 C1570 1.394 . S
C1571 C1572 1.383 . S
C1571 H1579 0.929 . S
C1572 C1571 1.383 . S
C1572 C1573 1.377 . S
C1573 H1557 0.930 . S
C1573 C1572 1.377 . S
C1573 C1574 1.379 . S
C1574 H1558 0.931 . S
C1574 C1568 1.383 . S
C1574 C1573 1.379 . S
H1575 C1569 0.959 . S
H1576 C1569 0.961 . S
H1577 C1569 0.960 . S
H1578 C1570 0.930 . S
H1579 C1571 0.929 . S
H1580 C1588 0.929 . S
H1581 C1590 0.930 . S
H1582 C1592 0.930 . S
H1583 C1595 0.929 . S
H1584 C1598 0.930 . S
H1585 C1600 0.960 . S
H1586 C1600 0.960 . S
H1587 C1600 0.960 . S
C1588 H1580 0.929 . S
C1588 C1589 1.377 . S
C1588 C1590 1.384 . S
C1589 C1588 1.377 . S
C1589 C1595 1.390 . S
C1590 H1581 0.930 . S
C1590 C1588 1.384 . S
C1590 C1591 1.372 . S
C1591 C1590 1.372 . S
C1591 C1592 1.400 . S
C1591 C1596 1.490 . S
C1592 H1582 0.930 . S
C1592 C1591 1.400 . S
C1592 C1595 1.386 . S
H1593 C1609 0.930 . S
H1594 C1610 0.931 . S
C1595 H1583 0.929 . S
C1595 C1589 1.390 . S
C1595 C1592 1.386 . S
C1596 C1591 1.490 . S
C1596 C1598 1.395 . S
C1596 C1599 1.403 . S
H1597 C1603 0.930 . S
C1598 H1584 0.930 . S
C1598 C1596 1.395 . S
C1598 C1601 1.403 . S
C1599 C1596 1.403 . S
C1599 C1600 1.524 . S
C1599 C1603 1.400 . S
C1600 H1585 0.960 . S
C1600 H1586 0.960 . S
C1600 H1587 0.960 . S
C1600 C1599 1.524 . S
C1601 C1598 1.403 . S
C1601 C1602 1.392 . S
C1601 C1605 1.495 . S
C1602 C1601 1.392 . S
C1602 C1603 1.385 . S
C1602 C1604 1.478 . S
C1603 H1597 0.930 . S
C1603 C1599 1.400 . S
C1603 C1602 1.385 . S
C1604 C1602 1.478 . S
C1604 C1606 1.381 . S
C1604 C1610 1.383 . S
C1605 C1601 1.495 . S
C1605 H1611 0.959 . S
C1605 H1612 0.961 . S
C1605 H1613 0.960 . S
C1606 C1604 1.381 . S
C1606 C1607 1.394 . S
C1606 H1614 0.930 . S
C1607 C1606 1.394 . S
C1607 C1608 1.383 . S
C1607 H1615 0.929 . S
C1608 C1607 1.383 . S
C1608 C1609 1.377 . S
C1609 H1593 0.930 . S
C1609 C1608 1.377 . S
C1609 C1610 1.379 . S
C1610 H1594 0.931 . S
C1610 C1604 1.383 . S
C1610 C1609 1.379 . S
H1611 C1605 0.959 . S
H1612 C1605 0.961 . S
H1613 C1605 0.960 . S
H1614 C1606 0.930 . S
H1615 C1607 0.929 . S
H1616 C1624 0.929 . S
H1617 C1626 0.930 . S
H1618 C1628 0.930 . S
H1619 C1631 0.929 . S
H1620 C1634 0.930 . S
H1621 C1636 0.960 . S
H1622 C1636 0.960 . S
H1623 C1636 0.960 . S
C1624 H1616 0.929 . S
C1624 C1625 1.377 . S
C1624 C1626 1.384 . S
C1625 C1624 1.377 . S
C1625 C1631 1.390 . S
C1626 H1617 0.930 . S
C1626 C1624 1.384 . S
C1626 C1627 1.372 . S
C1627 C1626 1.372 . S
C1627 C1628 1.400 . S
C1627 C1632 1.490 . S
C1628 H1618 0.930 . S
C1628 C1627 1.400 . S
C1628 C1631 1.386 . S
H1629 C1645 0.930 . S
H1630 C1646 0.931 . S
C1631 H1619 0.929 . S
C1631 C1625 1.390 . S
C1631 C1628 1.386 . S
C1632 C1627 1.490 . S
C1632 C1634 1.395 . S
C1632 C1635 1.403 . S
H1633 C1639 0.930 . S
C1634 H1620 0.930 . S
C1634 C1632 1.395 . S
C1634 C1637 1.403 . S
C1635 C1632 1.403 . S
C1635 C1636 1.524 . S
C1635 C1639 1.400 . S
C1636 H1621 0.960 . S
C1636 H1622 0.960 . S
C1636 H1623 0.960 . S
C1636 C1635 1.524 . S
C1637 C1634 1.403 . S
C1637 C1638 1.392 . S
C1637 C1641 1.495 . S
C1638 C1637 1.392 . S
C1638 C1639 1.385 . S
C1638 C1640 1.478 . S
C1639 H1633 0.930 . S
C1639 C1635 1.400 . S
C1639 C1638 1.385 . S
C1640 C1638 1.478 . S
C1640 C1642 1.381 . S
C1640 C1646 1.383 . S
C1641 C1637 1.495 . S
C1641 H1647 0.959 . S
C1641 H1648 0.961 . S
C1641 H1649 0.960 . S
C1642 C1640 1.381 . S
C1642 C1643 1.394 . S
C1642 H1650 0.930 . S
C1643 C1642 1.394 . S
C1643 C1644 1.383 . S
C1643 H1651 0.929 . S
C1644 C1643 1.383 . S
C1644 C1645 1.377 . S
C1645 H1629 0.930 . S
C1645 C1644 1.377 . S
C1645 C1646 1.379 . S
C1646 H1630 0.931 . S
C1646 C1640 1.383 . S
C1646 C1645 1.379 . S
H1647 C1641 0.959 . S
H1648 C1641 0.961 . S
H1649 C1641 0.960 . S
H1650 C1642 0.930 . S
H1651 C1643 0.929 . S
H1652 C1660 0.929 . S
H1653 C1662 0.930 . S
H1654 C1664 0.930 . S
H1655 C1667 0.929 . S
H1656 C1670 0.930 . S
H1657 C1672 0.960 . S
H1658 C1672 0.960 . S
H1659 C1672 0.960 . S
C1660 H1652 0.929 . S
C1660 C1661 1.377 . S
C1660 C1662 1.384 . S
C1661 C1660 1.377 . S
C1661 C1667 1.390 . S
C1662 H1653 0.930 . S
C1662 C1660 1.384 . S
C1662 C1663 1.372 . S
C1663 C1662 1.372 . S
C1663 C1664 1.400 . S
C1663 C1668 1.490 . S
C1664 H1654 0.930 . S
C1664 C1663 1.400 . S
C1664 C1667 1.386 . S
H1665 C1681 0.930 . S
H1666 C1682 0.931 . S
C1667 H1655 0.929 . S
C1667 C1661 1.390 . S
C1667 C1664 1.386 . S
C1668 C1663 1.490 . S
C1668 C1670 1.395 . S
C1668 C1671 1.403 . S
H1669 C1675 0.930 . S
C1670 H1656 0.930 . S
C1670 C1668 1.395 . S
C1670 C1673 1.403 . S
C1671 C1668 1.403 . S
C1671 C1672 1.524 . S
C1671 C1675 1.400 . S
C1672 H1657 0.960 . S
C1672 H1658 0.960 . S
C1672 H1659 0.960 . S
C1672 C1671 1.524 . S
C1673 C1670 1.403 . S
C1673 C1674 1.392 . S
C1673 C1677 1.495 . S
C1674 C1673 1.392 . S
C1674 C1675 1.385 . S
C1674 C1676 1.478 . S
C1675 H1669 0.930 . S
C1675 C1671 1.400 . S
C1675 C1674 1.385 . S
C1676 C1674 1.478 . S
C1676 C1678 1.381 . S
C1676 C1682 1.383 . S
C1677 C1673 1.495 . S
C1677 H1683 0.959 . S
C1677 H1684 0.961 . S
C1677 H1685 0.960 . S
C1678 C1676 1.381 . S
C1678 C1679 1.394 . S
C1678 H1686 0.920 1_545 S
C1679 C1678 1.394 . S
C1679 C1680 1.383 . S
C1679 H1687 0.929 1_545 S
C1680 C1679 1.383 . S
C1680 C1681 1.377 . S
C1681 H1665 0.930 . S
C1681 C1680 1.377 . S
C1681 C1682 1.379 . S
C1682 H1666 0.931 . S
C1682 C1676 1.383 . S
C1682 C1681 1.379 . S
H1683 C1677 0.959 . S
H1684 C1677 0.961 . S
H1685 C1677 0.960 . S
H1686 C1678 0.920 1_565 S
H1687 C1679 0.929 1_565 S
H1688 C1696 0.929 . S
H1689 C1698 0.930 . S
H1690 C1700 0.930 . S
H1691 C1703 0.929 . S
H1692 C1706 0.930 . S
H1693 C1708 0.960 . S
H1694 C1708 0.960 . S
H1695 C1708 0.960 . S
C1696 H1688 0.929 . S
C1696 C1697 1.377 . S
C1696 C1698 1.384 . S
C1697 C1696 1.377 . S
C1697 C1703 1.390 . S
C1698 H1689 0.930 . S
C1698 C1696 1.384 . S
C1698 C1699 1.372 . S
C1699 C1698 1.372 . S
C1699 C1700 1.400 . S
C1699 C1704 1.490 . S
C1700 H1690 0.930 . S
C1700 C1699 1.400 . S
C1700 C1703 1.386 . S
H1701 C1717 0.930 . S
H1702 C1718 0.931 . S
C1703 H1691 0.929 . S
C1703 C1697 1.390 . S
C1703 C1700 1.386 . S
C1704 C1699 1.490 . S
C1704 C1706 1.395 . S
C1704 C1707 1.403 . S
H1705 C1711 0.930 . S
C1706 H1692 0.930 . S
C1706 C1704 1.395 . S
C1706 C1709 1.403 . S
C1707 C1704 1.403 . S
C1707 C1708 1.524 . S
C1707 C1711 1.400 . S
C1708 H1693 0.960 . S
C1708 H1694 0.960 . S
C1708 H1695 0.960 . S
C1708 C1707 1.524 . S
C1709 C1706 1.403 . S
C1709 C1710 1.392 . S
C1709 C1713 1.495 . S
C1710 C1709 1.392 . S
C1710 C1711 1.385 . S
C1710 C1712 1.478 . S
C1711 H1705 0.930 . S
C1711 C1707 1.400 . S
C1711 C1710 1.385 . S
C1712 C1710 1.478 . S
C1712 C1714 1.381 . S
C1712 C1718 1.383 . S
C1713 C1709 1.495 . S
C1713 H1719 0.959 . S
C1713 H1720 0.961 . S
C1713 H1721 0.960 . S
C1714 C1712 1.381 . S
C1714 C1715 1.394 . S
C1714 H1722 0.930 . S
C1715 C1714 1.394 . S
C1715 C1716 1.383 . S
C1715 H1723 0.929 . S
C1716 C1715 1.383 . S
C1716 C1717 1.377 . S
C1717 H1701 0.930 . S
C1717 C1716 1.377 . S
C1717 C1718 1.379 . S
C1718 H1702 0.931 . S
C1718 C1712 1.383 . S
C1718 C1717 1.379 . S
H1719 C1713 0.959 . S
H1720 C1713 0.961 . S
H1721 C1713 0.960 . S
H1722 C1714 0.930 . S
H1723 C1715 0.929 . S
H1724 C1732 0.929 . S
H1725 C1734 0.930 . S
H1726 C1736 0.930 . S
H1727 C1739 0.929 . S
H1728 C1742 0.930 . S
H1729 C1744 0.960 . S
H1730 C1744 0.960 . S
H1731 C1744 0.960 . S
C1732 H1724 0.929 . S
C1732 C1733 1.377 . S
C1732 C1734 1.384 . S
C1733 C1732 1.377 . S
C1733 C1739 1.390 1_655 S
C1734 H1725 0.930 . S
C1734 C1732 1.384 . S
C1734 C1735 1.372 1_655 S
C1735 C1734 1.372 1_455 S
C1735 C1736 1.400 . S
C1735 C1740 1.490 . S
C1736 H1726 0.930 . S
C1736 C1735 1.400 . S
C1736 C1739 1.386 . S
H1737 C1753 0.930 . S
H1738 C1754 0.931 . S
C1739 H1727 0.929 . S
C1739 C1733 1.390 1_455 S
C1739 C1736 1.386 . S
C1740 C1735 1.490 . S
C1740 C1742 1.395 . S
C1740 C1743 1.403 . S
H1741 C1747 0.930 . S
C1742 H1728 0.930 . S
C1742 C1740 1.395 . S
C1742 C1745 1.403 . S
C1743 C1740 1.403 . S
C1743 C1744 1.524 . S
C1743 C1747 1.400 . S
C1744 H1729 0.960 . S
C1744 H1730 0.960 . S
C1744 H1731 0.960 . S
C1744 C1743 1.524 . S
C1745 C1742 1.403 . S
C1745 C1746 1.392 . S
C1745 C1749 1.495 . S
C1746 C1745 1.392 . S
C1746 C1747 1.385 . S
C1746 C1748 1.478 . S
C1747 H1741 0.930 . S
C1747 C1743 1.400 . S
C1747 C1746 1.385 . S
C1748 C1746 1.478 . S
C1748 C1750 1.381 . S
C1748 C1754 1.383 . S
C1749 C1745 1.495 . S
C1749 H1755 0.959 . S
C1749 H1756 0.961 . S
C1749 H1757 0.960 . S
C1750 C1748 1.381 . S
C1750 C1751 1.394 . S
C1750 H1758 0.930 . S
C1751 C1750 1.394 . S
C1751 C1752 1.383 . S
C1751 H1759 0.929 . S
C1752 C1751 1.383 . S
C1752 C1753 1.377 . S
C1753 H1737 0.930 . S
C1753 C1752 1.377 . S
C1753 C1754 1.379 . S
C1754 H1738 0.931 . S
C1754 C1748 1.383 . S
C1754 C1753 1.379 . S
H1755 C1749 0.959 . S
H1756 C1749 0.961 . S
H1757 C1749 0.960 . S
H1758 C1750 0.930 . S
H1759 C1751 0.929 . S
H1760 C1768 0.929 . S
H1761 C1770 0.930 . S
H1762 C1772 0.930 . S
H1763 C1775 0.929 . S
H1764 C1778 0.930 . S
H1765 C1780 0.960 . S
H1766 C1780 0.960 . S
H1767 C1780 0.960 . S
C1768 H1760 0.929 . S
C1768 C1769 1.377 . S
C1768 C1770 1.384 . S
C1769 C1768 1.377 . S
C1769 C1775 1.390 . S
C1770 H1761 0.930 . S
C1770 C1768 1.384 . S
C1770 C1771 1.372 . S
C1771 C1770 1.372 . S
C1771 C1772 1.400 . S
C1771 C1776 1.490 . S
C1772 H1762 0.930 . S
C1772 C1771 1.400 . S
C1772 C1775 1.386 . S
H1773 C1789 0.930 . S
H1774 C1790 0.931 . S
C1775 H1763 0.929 . S
C1775 C1769 1.390 . S
C1775 C1772 1.386 . S
C1776 C1771 1.490 . S
C1776 C1778 1.395 . S
C1776 C1779 1.403 . S
H1777 C1783 0.930 . S
C1778 H1764 0.930 . S
C1778 C1776 1.395 . S
C1778 C1781 1.403 . S
C1779 C1776 1.403 . S
C1779 C1780 1.524 . S
C1779 C1783 1.400 . S
C1780 H1765 0.960 . S
C1780 H1766 0.960 . S
C1780 H1767 0.960 . S
C1780 C1779 1.524 . S
C1781 C1778 1.403 . S
C1781 C1782 1.392 . S
C1781 C1785 1.495 . S
C1782 C1781 1.392 . S
C1782 C1783 1.385 . S
C1782 C1784 1.478 . S
C1783 H1777 0.930 . S
C1783 C1779 1.400 . S
C1783 C1782 1.385 . S
C1784 C1782 1.478 . S
C1784 C1786 1.381 . S
C1784 C1790 1.383 . S
C1785 C1781 1.495 . S
C1785 H1791 0.959 . S
C1785 H1792 0.961 . S
C1785 H1793 0.960 . S
C1786 C1784 1.381 . S
C1786 C1787 1.394 . S
C1786 H1794 0.930 . S
C1787 C1786 1.394 . S
C1787 C1788 1.383 . S
C1787 H1795 0.929 . S
C1788 C1787 1.383 . S
C1788 C1789 1.377 . S
C1789 H1773 0.930 . S
C1789 C1788 1.377 . S
C1789 C1790 1.379 . S
C1790 H1774 0.931 . S
C1790 C1784 1.383 . S
C1790 C1789 1.379 . S
H1791 C1785 0.959 . S
H1792 C1785 0.961 . S
H1793 C1785 0.960 . S
H1794 C1786 0.930 . S
H1795 C1787 0.929 . S
H1796 C1804 0.929 . S
H1797 C1806 0.930 1_556 S
H1798 C1808 0.930 . S
H1799 C1811 0.929 . S
H1800 C1814 0.930 . S
H1801 C1816 0.960 . S
H1802 C1816 0.960 . S
H1803 C1816 0.960 . S
C1804 H1796 0.929 . S
C1804 C1805 1.377 . S
C1804 C1806 1.384 . S
C1805 C1804 1.377 . S
C1805 C1811 1.390 . S
C1806 H1797 0.930 1_554 S
C1806 C1804 1.384 . S
C1806 C1807 1.372 . S
C1807 C1806 1.372 . S
C1807 C1808 1.400 . S
C1807 C1812 1.490 . S
C1808 H1798 0.930 . S
C1808 C1807 1.400 . S
C1808 C1811 1.386 . S
H1809 C1825 0.930 . S
H1810 C1826 0.931 . S
C1811 H1799 0.929 . S
C1811 C1805 1.390 . S
C1811 C1808 1.386 . S
C1812 C1807 1.490 . S
C1812 C1814 1.395 1_654 S
C1812 C1815 1.405 . S
H1813 C1819 0.930 . S
C1814 H1800 0.930 . S
C1814 C1812 1.395 1_456 S
C1814 C1817 1.403 . S
C1815 C1812 1.405 . S
C1815 C1816 1.548 . S
C1815 C1819 1.373 1_554 S
C1816 H1801 0.960 . S
C1816 H1802 0.960 . S
C1816 H1803 0.960 . S
C1816 C1815 1.548 . S
C1817 C1814 1.403 . S
C1817 C1818 1.392 1_455 S
C1817 C1821 1.495 . S
C1818 C1817 1.392 1_655 S
C1818 C1819 1.385 . S
C1818 C1820 1.474 1_655 S
C1819 H1813 0.930 . S
C1819 C1815 1.373 1_556 S
C1819 C1818 1.385 . S
C1820 C1818 1.474 1_455 S
C1820 C1822 1.379 . S
C1820 C1826 1.385 . S
C1821 C1817 1.495 . S
C1821 H1827 0.959 . S
C1821 H1828 0.961 . S
C1821 H1829 0.960 . S
C1822 C1820 1.379 . S
C1822 C1823 1.405 . S
C1822 H1830 0.919 1_455 S
C1823 C1822 1.405 . S
C1823 C1824 1.383 . S
C1823 H1831 0.929 . S
C1824 C1823 1.383 . S
C1824 C1825 1.377 . S
C1825 H1809 0.930 . S
C1825 C1824 1.377 . S
C1825 C1826 1.379 . S
C1826 H1810 0.931 . S
C1826 C1820 1.385 . S
C1826 C1825 1.379 . S
H1827 C1821 0.959 . S
H1828 C1821 0.961 . S
H1829 C1821 0.960 . S
H1830 C1822 0.919 1_655 S
H1831 C1823 0.929 . S
H1832 C1840 0.929 . S
H1833 C1842 0.930 . S
H1834 C1844 0.930 . S
H1835 C1847 0.929 . S
H1836 C1850 0.930 . S
H1837 C1852 0.960 . S
H1838 C1852 0.960 . S
H1839 C1852 0.960 . S
C1840 H1832 0.929 . S
C1840 C1841 1.377 . S
C1840 C1842 1.384 . S
C1841 C1840 1.377 . S
C1841 C1847 1.390 . S
C1842 H1833 0.930 . S
C1842 C1840 1.384 . S
C1842 C1843 1.372 . S
C1843 C1842 1.372 . S
C1843 C1844 1.400 . S
C1843 C1848 1.490 . S
C1844 H1834 0.930 . S
C1844 C1843 1.400 . S
C1844 C1847 1.386 . S
H1845 C1861 0.930 . S
H1846 C1862 0.931 . S
C1847 H1835 0.929 . S
C1847 C1841 1.390 . S
C1847 C1844 1.386 . S
C1848 C1843 1.490 . S
C1848 C1850 1.395 . S
C1848 C1851 1.403 . S
H1849 C1855 0.930 . S
C1850 H1836 0.930 . S
C1850 C1848 1.395 . S
C1850 C1853 1.403 . S
C1851 C1848 1.403 . S
C1851 C1852 1.524 . S
C1851 C1855 1.400 . S
C1852 H1837 0.960 . S
C1852 H1838 0.960 . S
C1852 H1839 0.960 . S
C1852 C1851 1.524 . S
C1853 C1850 1.403 . S
C1853 C1854 1.392 . S
C1853 C1857 1.495 . S
C1854 C1853 1.392 . S
C1854 C1855 1.385 . S
C1854 C1856 1.478 . S
C1855 H1849 0.930 . S
C1855 C1851 1.400 . S
C1855 C1854 1.385 . S
C1856 C1854 1.478 . S
C1856 C1858 1.381 . S
C1856 C1862 1.383 . S
C1857 C1853 1.495 . S
C1857 H1863 0.959 . S
C1857 H1864 0.961 . S
C1857 H1865 0.960 . S
C1858 C1856 1.381 . S
C1858 C1859 1.394 . S
C1858 H1866 0.930 . S
C1859 C1858 1.394 . S
C1859 C1860 1.383 . S
C1859 H1867 0.929 . S
C1860 C1859 1.383 . S
C1860 C1861 1.377 . S
C1861 H1845 0.930 . S
C1861 C1860 1.377 . S
C1861 C1862 1.379 . S
C1862 H1846 0.931 . S
C1862 C1856 1.383 . S
C1862 C1861 1.379 . S
H1863 C1857 0.959 . S
H1864 C1857 0.961 . S
H1865 C1857 0.960 . S
H1866 C1858 0.930 . S
H1867 C1859 0.929 . S
H1868 C1876 0.929 1_556 S
H1869 C1878 0.930 . S
H1870 C1880 0.930 . S
H1871 C1883 0.929 . S
H1872 C1886 0.930 1_655 S
H1873 C1888 0.960 . S
H1874 C1888 0.960 . S
H1875 C1888 0.960 . S
C1876 H1868 0.929 1_554 S
C1876 C1877 1.377 . S
C1876 C1878 1.384 1_554 S
C1877 C1876 1.377 . S
C1877 C1883 1.390 . S
C1878 H1869 0.930 . S
C1878 C1876 1.384 1_556 S
C1878 C1879 1.372 1_556 S
C1879 C1878 1.372 1_554 S
C1879 C1880 1.400 . S
C1879 C1884 1.490 1_554 S
C1880 H1870 0.930 . S
C1880 C1879 1.400 . S
C1880 C1883 1.386 . S
H1881 C1897 0.930 . S
H1882 C1898 0.931 . S
C1883 H1871 0.929 . S
C1883 C1877 1.390 . S
C1883 C1880 1.386 . S
C1884 C1879 1.490 1_556 S
C1884 C1886 1.395 . S
C1884 C1887 1.403 . S
H1885 C1891 0.930 . S
C1886 H1872 0.930 1_455 S
C1886 C1884 1.395 . S
C1886 C1889 1.399 1_455 S
C1887 C1884 1.403 . S
C1887 C1888 1.524 1_556 S
C1887 C1891 1.400 . S
C1888 H1873 0.960 . S
C1888 H1874 0.960 . S
C1888 H1875 0.960 . S
C1888 C1887 1.524 1_554 S
C1889 C1886 1.399 1_655 S
C1889 C1890 1.380 1_655 S
C1889 C1893 1.512 . S
C1890 C1889 1.380 1_455 S
C1890 C1891 1.385 . S
C1890 C1892 1.478 . S
C1891 H1885 0.930 . S
C1891 C1887 1.400 . S
C1891 C1890 1.385 . S
C1892 C1890 1.478 . S
C1892 C1894 1.381 . S
C1892 C1898 1.383 . S
C1893 C1889 1.512 . S
C1893 H1899 0.959 . S
C1893 H1900 0.961 . S
C1893 H1901 0.960 . S
C1894 C1892 1.381 . S
C1894 C1895 1.394 . S
C1894 H1902 0.930 . S
C1895 C1894 1.394 . S
C1895 C1896 1.383 . S
C1895 H1903 0.929 . S
C1896 C1895 1.383 . S
C1896 C1897 1.377 . S
C1897 H1881 0.930 . S
C1897 C1896 1.377 . S
C1897 C1898 1.379 . S
C1898 H1882 0.931 . S
C1898 C1892 1.383 . S
C1898 C1897 1.379 . S
H1899 C1893 0.959 . S
H1900 C1893 0.961 . S
H1901 C1893 0.960 . S
H1902 C1894 0.930 . S
H1903 C1895 0.929 . S
H1904 C1912 0.929 . S
H1905 C1914 0.930 . S
H1906 C1916 0.930 . S
H1907 C1919 0.929 . S
H1908 C1922 0.930 . S
H1909 C1924 0.960 . S
H1910 C1924 0.960 . S
H1911 C1924 0.960 . S
C1912 H1904 0.929 . S
C1912 C1913 1.377 . S
C1912 C1914 1.384 . S
C1913 C1912 1.377 . S
C1913 C1919 1.390 . S
C1914 H1905 0.930 . S
C1914 C1912 1.384 . S
C1914 C1915 1.372 . S
C1915 C1914 1.372 . S
C1915 C1916 1.400 . S
C1915 C1920 1.490 . S
C1916 H1906 0.930 . S
C1916 C1915 1.400 . S
C1916 C1919 1.386 . S
H1917 C1933 0.930 . S
H1918 C1934 0.931 . S
C1919 H1907 0.929 . S
C1919 C1913 1.390 . S
C1919 C1916 1.386 . S
C1920 C1915 1.490 . S
C1920 C1922 1.395 . S
C1920 C1923 1.403 . S
H1921 C1927 0.930 . S
C1922 H1908 0.930 . S
C1922 C1920 1.395 . S
C1922 C1925 1.403 . S
C1923 C1920 1.403 . S
C1923 C1924 1.524 . S
C1923 C1927 1.400 . S
C1924 H1909 0.960 . S
C1924 H1910 0.960 . S
C1924 H1911 0.960 . S
C1924 C1923 1.524 . S
C1925 C1922 1.403 . S
C1925 C1926 1.392 . S
C1925 C1929 1.495 . S
C1926 C1925 1.392 . S
C1926 C1927 1.385 . S
C1926 C1928 1.478 . S
C1927 H1921 0.930 . S
C1927 C1923 1.400 . S
C1927 C1926 1.385 . S
C1928 C1926 1.478 . S
C1928 C1930 1.381 . S
C1928 C1934 1.383 . S
C1929 C1925 1.495 . S
C1929 H1935 0.959 . S
C1929 H1936 0.961 . S
C1929 H1937 0.960 . S
C1930 C1928 1.381 . S
C1930 C1931 1.394 . S
C1930 H1938 0.930 . S
C1931 C1930 1.394 . S
C1931 C1932 1.383 . S
C1931 H1939 0.929 . S
C1932 C1931 1.383 . S
C1932 C1933 1.377 . S
C1933 H1917 0.930 . S
C1933 C1932 1.377 . S
C1933 C1934 1.379 . S
C1934 H1918 0.931 . S
C1934 C1928 1.383 . S
C1934 C1933 1.379 . S
H1935 C1929 0.959 . S
H1936 C1929 0.961 . S
H1937 C1929 0.960 . S
H1938 C1930 0.930 . S
H1939 C1931 0.929 . S
H1940 C1948 0.929 . S
H1941 C1950 0.930 . S
H1942 C1952 0.930 . S
H1943 C1955 0.929 . S
H1944 C1958 0.930 . S
H1945 C1960 0.960 . S
H1946 C1960 0.960 . S
H1947 C1960 0.960 . S
C1948 H1940 0.929 . S
C1948 C1949 1.377 . S
C1948 C1950 1.384 . S
C1949 C1948 1.377 . S
C1949 C1955 1.390 . S
C1950 H1941 0.930 . S
C1950 C1948 1.384 . S
C1950 C1951 1.372 . S
C1951 C1950 1.372 . S
C1951 C1952 1.400 . S
C1951 C1956 1.490 . S
C1952 H1942 0.930 . S
C1952 C1951 1.400 . S
C1952 C1955 1.386 . S
H1953 C1969 0.930 . S
H1954 C1970 0.931 . S
C1955 H1943 0.929 . S
C1955 C1949 1.390 . S
C1955 C1952 1.386 . S
C1956 C1951 1.490 . S
C1956 C1958 1.395 . S
C1956 C1959 1.403 . S
H1957 C1963 0.930 . S
C1958 H1944 0.930 . S
C1958 C1956 1.395 . S
C1958 C1961 1.403 . S
C1959 C1956 1.403 . S
C1959 C1960 1.524 . S
C1959 C1963 1.400 . S
C1960 H1945 0.960 . S
C1960 H1946 0.960 . S
C1960 H1947 0.960 . S
C1960 C1959 1.524 . S
C1961 C1958 1.403 . S
C1961 C1962 1.392 . S
C1961 C1965 1.495 . S
C1962 C1961 1.392 . S
C1962 C1963 1.385 . S
C1962 C1964 1.478 . S
C1963 H1957 0.930 . S
C1963 C1959 1.400 . S
C1963 C1962 1.385 . S
C1964 C1962 1.478 . S
C1964 C1966 1.381 . S
C1964 C1970 1.383 . S
C1965 C1961 1.495 . S
C1965 H1971 0.959 . S
C1965 H1972 0.961 . S
C1965 H1973 0.960 . S
C1966 C1964 1.381 . S
C1966 C1967 1.394 . S
C1966 H1974 0.930 . S
C1967 C1966 1.394 . S
C1967 C1968 1.383 . S
C1967 H1975 0.929 . S
C1968 C1967 1.383 . S
C1968 C1969 1.377 . S
C1969 H1953 0.930 . S
C1969 C1968 1.377 . S
C1969 C1970 1.379 . S
C1970 H1954 0.931 . S
C1970 C1964 1.383 . S
C1970 C1969 1.379 . S
H1971 C1965 0.959 . S
H1972 C1965 0.961 . S
H1973 C1965 0.960 . S
H1974 C1966 0.930 . S
H1975 C1967 0.929 . S
H1976 C1984 0.929 . S
H1977 C1986 0.930 . S
H1978 C1988 0.930 . S
H1979 C1991 0.929 . S
H1980 C1994 0.930 . S
H1981 C1996 0.960 . S
H1982 C1996 0.960 . S
H1983 C1996 0.960 . S
C1984 H1976 0.929 . S
C1984 C1985 1.377 . S
C1984 C1986 1.384 . S
C1985 C1984 1.377 . S
C1985 C1991 1.390 . S
C1986 H1977 0.930 . S
C1986 C1984 1.384 . S
C1986 C1987 1.372 . S
C1987 C1986 1.372 . S
C1987 C1988 1.400 . S
C1987 C1992 1.490 . S
C1988 H1978 0.930 . S
C1988 C1987 1.400 . S
C1988 C1991 1.386 . S
H1989 C2005 0.930 . S
H1990 C2006 0.931 . S
C1991 H1979 0.929 . S
C1991 C1985 1.390 . S
C1991 C1988 1.386 . S
C1992 C1987 1.490 . S
C1992 C1994 1.395 . S
C1992 C1995 1.403 . S
H1993 C1999 0.930 . S
C1994 H1980 0.930 . S
C1994 C1992 1.395 . S
C1994 C1997 1.403 . S
C1995 C1992 1.403 . S
C1995 C1996 1.524 . S
C1995 C1999 1.400 . S
C1996 H1981 0.960 . S
C1996 H1982 0.960 . S
C1996 H1983 0.960 . S
C1996 C1995 1.524 . S
C1997 C1994 1.403 . S
C1997 C1998 1.392 . S
C1997 C2001 1.495 . S
C1998 C1997 1.392 . S
C1998 C1999 1.385 . S
C1998 C2000 1.478 . S
C1999 H1993 0.930 . S
C1999 C1995 1.400 . S
C1999 C1998 1.385 . S
C2000 C1998 1.478 . S
C2000 C2002 1.381 . S
C2000 C2006 1.383 . S
C2001 C1997 1.495 . S
C2001 H2007 0.959 . S
C2001 H2008 0.961 . S
C2001 H2009 0.960 . S
C2002 C2000 1.381 . S
C2002 C2003 1.394 . S
C2002 H2010 0.930 . S
C2003 C2002 1.394 . S
C2003 C2004 1.383 . S
C2003 H2011 0.929 . S
C2004 C2003 1.383 . S
C2004 C2005 1.377 . S
C2005 H1989 0.930 . S
C2005 C2004 1.377 . S
C2005 C2006 1.379 . S
C2006 H1990 0.931 . S
C2006 C2000 1.383 . S
C2006 C2005 1.379 . S
H2007 C2001 0.959 . S
H2008 C2001 0.961 . S
H2009 C2001 0.960 . S
H2010 C2002 0.930 . S
H2011 C2003 0.929 . S
H2012 C2020 0.929 . S
H2013 C2022 0.930 . S
H2014 C2024 0.930 . S
H2015 C2027 0.929 . S
H2016 C2030 0.930 . S
H2017 C2032 0.960 . S
H2018 C2032 0.960 . S
H2019 C2032 0.960 . S
C2020 H2012 0.929 . S
C2020 C2021 1.377 . S
C2020 C2022 1.384 . S
C2021 C2020 1.377 . S
C2021 C2027 1.390 . S
C2022 H2013 0.930 . S
C2022 C2020 1.384 . S
C2022 C2023 1.372 . S
C2023 C2022 1.372 . S
C2023 C2024 1.400 . S
C2023 C2028 1.490 . S
C2024 H2014 0.930 . S
C2024 C2023 1.400 . S
C2024 C2027 1.386 . S
H2025 C2041 0.930 . S
H2026 C2042 0.931 . S
C2027 H2015 0.929 . S
C2027 C2021 1.390 . S
C2027 C2024 1.386 . S
C2028 C2023 1.490 . S
C2028 C2030 1.395 . S
C2028 C2031 1.403 . S
H2029 C2035 0.930 . S
C2030 H2016 0.930 . S
C2030 C2028 1.395 . S
C2030 C2033 1.403 . S
C2031 C2028 1.403 . S
C2031 C2032 1.524 . S
C2031 C2035 1.400 . S
C2032 H2017 0.960 . S
C2032 H2018 0.960 . S
C2032 H2019 0.960 . S
C2032 C2031 1.524 . S
C2033 C2030 1.403 . S
C2033 C2034 1.392 . S
C2033 C2037 1.495 . S
C2034 C2033 1.392 . S
C2034 C2035 1.385 . S
C2034 C2036 1.478 . S
C2035 H2029 0.930 . S
C2035 C2031 1.400 . S
C2035 C2034 1.385 . S
C2036 C2034 1.478 . S
C2036 C2038 1.381 . S
C2036 C2042 1.383 . S
C2037 C2033 1.495 . S
C2037 H2043 0.959 . S
C2037 H2044 0.961 . S
C2037 H2045 0.960 . S
C2038 C2036 1.381 . S
C2038 C2039 1.394 . S
C2038 H2046 0.930 . S
C2039 C2038 1.394 . S
C2039 C2040 1.383 . S
C2039 H2047 0.929 . S
C2040 C2039 1.383 . S
C2040 C2041 1.377 . S
C2041 H2025 0.930 . S
C2041 C2040 1.377 . S
C2041 C2042 1.379 . S
C2042 H2026 0.931 . S
C2042 C2036 1.383 . S
C2042 C2041 1.379 . S
H2043 C2037 0.959 . S
H2044 C2037 0.961 . S
H2045 C2037 0.960 . S
H2046 C2038 0.930 . S
H2047 C2039 0.929 . S
H2048 C2056 0.929 . S
H2049 C2058 0.930 . S
H2050 C2060 0.930 . S
H2051 C2063 0.929 . S
H2052 C2066 0.930 . S
H2053 C2068 0.960 . S
H2054 C2068 0.960 . S
H2055 C2068 0.960 . S
C2056 H2048 0.929 . S
C2056 C2057 1.377 . S
C2056 C2058 1.384 . S
C2057 C2056 1.377 . S
C2057 C2063 1.390 . S
C2058 H2049 0.930 . S
C2058 C2056 1.384 . S
C2058 C2059 1.372 . S
C2059 C2058 1.372 . S
C2059 C2060 1.400 . S
C2059 C2064 1.490 . S
C2060 H2050 0.930 . S
C2060 C2059 1.400 . S
C2060 C2063 1.386 . S
H2061 C2077 0.930 . S
H2062 C2078 0.931 . S
C2063 H2051 0.929 . S
C2063 C2057 1.390 . S
C2063 C2060 1.386 . S
C2064 C2059 1.490 . S
C2064 C2066 1.395 . S
C2064 C2067 1.403 . S
H2065 C2071 0.930 . S
C2066 H2052 0.930 . S
C2066 C2064 1.395 . S
C2066 C2069 1.403 . S
C2067 C2064 1.403 . S
C2067 C2068 1.524 . S
C2067 C2071 1.400 . S
C2068 H2053 0.960 . S
C2068 H2054 0.960 . S
C2068 H2055 0.960 . S
C2068 C2067 1.524 . S
C2069 C2066 1.403 . S
C2069 C2070 1.392 . S
C2069 C2073 1.495 . S
C2070 C2069 1.392 . S
C2070 C2071 1.385 . S
C2070 C2072 1.478 . S
C2071 H2065 0.930 . S
C2071 C2067 1.400 . S
C2071 C2070 1.385 . S
C2072 C2070 1.478 . S
C2072 C2074 1.381 . S
C2072 C2078 1.383 . S
C2073 C2069 1.495 . S
C2073 H2079 0.959 . S
C2073 H2080 0.961 . S
C2073 H2081 0.960 . S
C2074 C2072 1.381 . S
C2074 C2075 1.394 . S
C2074 H2082 0.930 . S
C2075 C2074 1.394 . S
C2075 C2076 1.383 . S
C2075 H2083 0.929 . S
C2076 C2075 1.383 . S
C2076 C2077 1.377 . S
C2077 H2061 0.930 . S
C2077 C2076 1.377 . S
C2077 C2078 1.379 . S
C2078 H2062 0.931 . S
C2078 C2072 1.383 . S
C2078 C2077 1.379 . S
H2079 C2073 0.959 . S
H2080 C2073 0.961 . S
H2081 C2073 0.960 . S
H2082 C2074 0.930 . S
H2083 C2075 0.929 . S
H2084 C2092 0.929 . S
H2085 C2094 0.930 . S
H2086 C2096 0.930 . S
H2087 C2099 0.929 . S
H2088 C2102 0.930 . S
H2089 C2104 0.960 . S
H2090 C2104 0.960 . S
H2091 C2104 0.960 . S
C2092 H2084 0.929 . S
C2092 C2093 1.377 . S
C2092 C2094 1.384 . S
C2093 C2092 1.377 . S
C2093 C2099 1.390 . S
C2094 H2085 0.930 . S
C2094 C2092 1.384 . S
C2094 C2095 1.372 . S
C2095 C2094 1.372 . S
C2095 C2096 1.400 . S
C2095 C2100 1.490 . S
C2096 H2086 0.930 . S
C2096 C2095 1.400 . S
C2096 C2099 1.386 . S
H2097 C2113 0.930 . S
H2098 C2114 0.931 . S
C2099 H2087 0.929 . S
C2099 C2093 1.390 . S
C2099 C2096 1.386 . S
C2100 C2095 1.490 . S
C2100 C2102 1.395 . S
C2100 C2103 1.403 . S
H2101 C2107 0.930 . S
C2102 H2088 0.930 . S
C2102 C2100 1.395 . S
C2102 C2105 1.403 . S
C2103 C2100 1.403 . S
C2103 C2104 1.524 . S
C2103 C2107 1.400 . S
C2104 H2089 0.960 . S
C2104 H2090 0.960 . S
C2104 H2091 0.960 . S
C2104 C2103 1.524 . S
C2105 C2102 1.403 . S
C2105 C2106 1.392 . S
C2105 C2109 1.495 . S
C2106 C2105 1.392 . S
C2106 C2107 1.385 . S
C2106 C2108 1.478 . S
C2107 H2101 0.930 . S
C2107 C2103 1.400 . S
C2107 C2106 1.385 . S
C2108 C2106 1.478 . S
C2108 C2110 1.381 . S
C2108 C2114 1.383 . S
C2109 C2105 1.495 . S
C2109 H2115 0.959 . S
C2109 H2116 0.961 . S
C2109 H2117 0.960 . S
C2110 C2108 1.381 . S
C2110 C2111 1.394 . S
C2110 H2118 0.930 . S
C2111 C2110 1.394 . S
C2111 C2112 1.383 . S
C2111 H2119 0.929 . S
C2112 C2111 1.383 . S
C2112 C2113 1.377 . S
C2113 H2097 0.930 . S
C2113 C2112 1.377 . S
C2113 C2114 1.379 . S
C2114 H2098 0.931 . S
C2114 C2108 1.383 . S
C2114 C2113 1.379 . S
H2115 C2109 0.959 . S
H2116 C2109 0.961 . S
H2117 C2109 0.960 . S
H2118 C2110 0.930 . S
H2119 C2111 0.929 . S
H2120 C2128 0.929 . S
H2121 C2130 0.930 . S
H2122 C2132 0.930 . S
H2123 C2135 0.929 . S
H2124 C2138 0.930 . S
H2125 C2140 0.960 . S
H2126 C2140 0.960 . S
H2127 C2140 0.960 . S
C2128 H2120 0.929 . S
C2128 C2129 1.377 . S
C2128 C2130 1.384 . S
C2129 C2128 1.377 . S
C2129 C2135 1.390 . S
C2130 H2121 0.930 . S
C2130 C2128 1.384 . S
C2130 C2131 1.372 . S
C2131 C2130 1.372 . S
C2131 C2132 1.400 . S
C2131 C2136 1.490 . S
C2132 H2122 0.930 . S
C2132 C2131 1.400 . S
C2132 C2135 1.386 . S
H2133 C2149 0.930 . S
H2134 C2150 0.931 . S
C2135 H2123 0.929 . S
C2135 C2129 1.390 . S
C2135 C2132 1.386 . S
C2136 C2131 1.490 . S
C2136 C2138 1.395 . S
C2136 C2139 1.403 . S
H2137 C2143 0.930 . S
C2138 H2124 0.930 . S
C2138 C2136 1.395 . S
C2138 C2141 1.403 . S
C2139 C2136 1.403 . S
C2139 C2140 1.524 . S
C2139 C2143 1.400 . S
C2140 H2125 0.960 . S
C2140 H2126 0.960 . S
C2140 H2127 0.960 . S
C2140 C2139 1.524 . S
C2141 C2138 1.403 . S
C2141 C2142 1.392 . S
C2141 C2145 1.495 . S
C2142 C2141 1.392 . S
C2142 C2143 1.385 . S
C2142 C2144 1.478 . S
C2143 H2137 0.930 . S
C2143 C2139 1.400 . S
C2143 C2142 1.385 . S
C2144 C2142 1.478 . S
C2144 C2146 1.381 . S
C2144 C2150 1.383 . S
C2145 C2141 1.495 . S
C2145 H2151 0.959 . S
C2145 H2152 0.961 . S
C2145 H2153 0.960 . S
C2146 C2144 1.381 . S
C2146 C2147 1.394 . S
C2146 H2154 0.930 . S
C2147 C2146 1.394 . S
C2147 C2148 1.383 . S
C2147 H2155 0.929 . S
C2148 C2147 1.383 . S
C2148 C2149 1.377 . S
C2149 H2133 0.930 . S
C2149 C2148 1.377 . S
C2149 C2150 1.379 . S
C2150 H2134 0.931 . S
C2150 C2144 1.383 . S
C2150 C2149 1.379 . S
H2151 C2145 0.959 . S
H2152 C2145 0.961 . S
H2153 C2145 0.960 . S
H2154 C2146 0.930 . S
H2155 C2147 0.929 . S
H2156 C2164 0.929 . S
H2157 C2166 0.930 . S
H2158 C2168 0.930 . S
H2159 C2171 0.929 . S
H2160 C2174 0.930 . S
H2161 C2176 0.960 . S
H2162 C2176 0.960 . S
H2163 C2176 0.960 . S
C2164 H2156 0.929 . S
C2164 C2165 1.377 . S
C2164 C2166 1.384 . S
C2165 C2164 1.377 . S
C2165 C2171 1.390 . S
C2166 H2157 0.930 . S
C2166 C2164 1.384 . S
C2166 C2167 1.372 . S
C2167 C2166 1.372 . S
C2167 C2168 1.400 . S
C2167 C2172 1.490 . S
C2168 H2158 0.930 . S
C2168 C2167 1.400 . S
C2168 C2171 1.386 . S
H2169 C2185 0.930 . S
H2170 C2186 0.931 . S
C2171 H2159 0.929 . S
C2171 C2165 1.390 . S
C2171 C2168 1.386 . S
C2172 C2167 1.490 . S
C2172 C2174 1.395 . S
C2172 C2175 1.403 . S
H2173 C2179 0.930 . S
C2174 H2160 0.930 . S
C2174 C2172 1.395 . S
C2174 C2177 1.403 . S
C2175 C2172 1.403 . S
C2175 C2176 1.524 . S
C2175 C2179 1.400 . S
C2176 H2161 0.960 . S
C2176 H2162 0.960 . S
C2176 H2163 0.960 . S
C2176 C2175 1.524 . S
C2177 C2174 1.403 . S
C2177 C2178 1.392 . S
C2177 C2181 1.495 . S
C2178 C2177 1.392 . S
C2178 C2179 1.385 . S
C2178 C2180 1.478 . S
C2179 H2173 0.930 . S
C2179 C2175 1.400 . S
C2179 C2178 1.385 . S
C2180 C2178 1.478 . S
C2180 C2182 1.381 . S
C2180 C2186 1.383 . S
C2181 C2177 1.495 . S
C2181 H2187 0.959 . S
C2181 H2188 0.961 . S
C2181 H2189 0.960 . S
C2182 C2180 1.381 . S
C2182 C2183 1.394 . S
C2182 H2190 0.930 . S
C2183 C2182 1.394 . S
C2183 C2184 1.383 . S
C2183 H2191 0.929 . S
C2184 C2183 1.383 . S
C2184 C2185 1.377 . S
C2185 H2169 0.930 . S
C2185 C2184 1.377 . S
C2185 C2186 1.379 . S
C2186 H2170 0.931 . S
C2186 C2180 1.383 . S
C2186 C2185 1.379 . S
H2187 C2181 0.959 . S
H2188 C2181 0.961 . S
H2189 C2181 0.960 . S
H2190 C2182 0.930 . S
H2191 C2183 0.929 . S
H2192 C2200 0.929 . S
H2193 C2202 0.930 . S
H2194 C2204 0.930 . S
H2195 C2207 0.929 . S
H2196 C2210 0.930 . S
H2197 C2212 0.960 . S
H2198 C2212 0.960 . S
H2199 C2212 0.960 . S
C2200 H2192 0.929 . S
C2200 C2201 1.377 . S
C2200 C2202 1.384 . S
C2201 C2200 1.377 . S
C2201 C2207 1.390 . S
C2202 H2193 0.930 . S
C2202 C2200 1.384 . S
C2202 C2203 1.372 . S
C2203 C2202 1.372 . S
C2203 C2204 1.400 . S
C2203 C2208 1.490 . S
C2204 H2194 0.930 . S
C2204 C2203 1.400 . S
C2204 C2207 1.386 . S
H2205 C2221 0.930 . S
H2206 C2222 0.943 . S
C2207 H2195 0.929 . S
C2207 C2201 1.390 . S
C2207 C2204 1.386 . S
C2208 C2203 1.490 . S
C2208 C2210 1.395 1_556 S
C2208 C2211 1.403 . S
H2209 C2215 0.930 . S
C2210 H2196 0.930 . S
C2210 C2208 1.395 1_554 S
C2210 C2213 1.403 . S
C2211 C2208 1.403 . S
C2211 C2212 1.524 . S
C2211 C2215 1.400 . S
C2212 H2197 0.960 . S
C2212 H2198 0.960 . S
C2212 H2199 0.960 . S
C2212 C2211 1.524 . S
C2213 C2210 1.403 . S
C2213 C2214 1.392 1_554 S
C2213 C2217 1.495 . S
C2214 C2213 1.392 1_556 S
C2214 C2215 1.385 . S
C2214 C2216 1.478 . S
C2215 H2209 0.930 . S
C2215 C2211 1.400 . S
C2215 C2214 1.385 . S
C2216 C2214 1.478 . S
C2216 C2218 1.381 . S
C2216 C2222 1.376 1_556 S
C2217 C2213 1.495 . S
C2217 H2223 0.959 . S
C2217 H2224 0.961 . S
C2217 H2225 0.960 . S
C2218 C2216 1.381 . S
C2218 C2219 1.394 . S
C2218 H2226 0.930 . S
C2219 C2218 1.394 . S
C2219 C2220 1.383 . S
C2219 H2227 0.929 . S
C2220 C2219 1.383 . S
C2220 C2221 1.377 1_556 S
C2221 H2205 0.930 . S
C2221 C2220 1.377 1_554 S
C2221 C2222 1.377 . S
C2222 H2206 0.943 . S
C2222 C2216 1.376 1_554 S
C2222 C2221 1.377 . S
H2223 C2217 0.959 . S
H2224 C2217 0.961 . S
H2225 C2217 0.960 . S
H2226 C2218 0.930 . S
H2227 C2219 0.929 . S
H2228 C2236 0.929 . S
H2229 C2238 0.930 . S
H2230 C2240 0.930 . S
H2231 C2243 0.929 . S
H2232 C2246 0.930 . S
H2233 C2248 0.960 . S
H2234 C2248 0.960 . S
H2235 C2248 0.960 . S
C2236 H2228 0.929 . S
C2236 C2237 1.377 . S
C2236 C2238 1.384 . S
C2237 C2236 1.377 . S
C2237 C2243 1.390 . S
C2238 H2229 0.930 . S
C2238 C2236 1.384 . S
C2238 C2239 1.372 . S
C2239 C2238 1.372 . S
C2239 C2240 1.400 . S
C2239 C2244 1.490 . S
C2240 H2230 0.930 . S
C2240 C2239 1.400 . S
C2240 C2243 1.386 . S
H2241 C2257 0.930 . S
H2242 C2258 0.931 . S
C2243 H2231 0.929 . S
C2243 C2237 1.390 . S
C2243 C2240 1.386 . S
C2244 C2239 1.490 . S
C2244 C2246 1.395 . S
C2244 C2247 1.403 . S
H2245 C2251 0.930 . S
C2246 H2232 0.930 . S
C2246 C2244 1.395 . S
C2246 C2249 1.403 . S
C2247 C2244 1.403 . S
C2247 C2248 1.524 . S
C2247 C2251 1.400 . S
C2248 H2233 0.960 . S
C2248 H2234 0.960 . S
C2248 H2235 0.960 . S
C2248 C2247 1.524 . S
C2249 C2246 1.403 . S
C2249 C2250 1.392 . S
C2249 C2253 1.495 . S
C2250 C2249 1.392 . S
C2250 C2251 1.385 . S
C2250 C2252 1.478 . S
C2251 H2245 0.930 . S
C2251 C2247 1.400 . S
C2251 C2250 1.385 . S
C2252 C2250 1.478 . S
C2252 C2254 1.381 . S
C2252 C2258 1.383 . S
C2253 C2249 1.495 . S
C2253 H2259 0.959 . S
C2253 H2260 0.961 . S
C2253 H2261 0.960 . S
C2254 C2252 1.381 . S
C2254 C2255 1.394 . S
C2254 H2262 0.930 . S
C2255 C2254 1.394 . S
C2255 C2256 1.383 . S
C2255 H2263 0.929 . S
C2256 C2255 1.383 . S
C2256 C2257 1.377 . S
C2257 H2241 0.930 . S
C2257 C2256 1.377 . S
C2257 C2258 1.379 . S
C2258 H2242 0.931 . S
C2258 C2252 1.383 . S
C2258 C2257 1.379 . S
H2259 C2253 0.959 . S
H2260 C2253 0.961 . S
H2261 C2253 0.960 . S
H2262 C2254 0.930 . S
H2263 C2255 0.929 . S
H2264 C2272 0.929 . S
H2265 C2274 0.930 . S
H2266 C2276 0.930 . S
H2267 C2279 0.929 . S
H2268 C2282 0.930 . S
H2269 C2284 0.960 . S
H2270 C2284 0.960 . S
H2271 C2284 0.960 . S
C2272 H2264 0.929 . S
C2272 C2273 1.377 . S
C2272 C2274 1.384 . S
C2273 C2272 1.377 . S
C2273 C2279 1.390 . S
C2274 H2265 0.930 . S
C2274 C2272 1.384 . S
C2274 C2275 1.372 . S
C2275 C2274 1.372 . S
C2275 C2276 1.400 . S
C2275 C2280 1.490 . S
C2276 H2266 0.930 . S
C2276 C2275 1.400 . S
C2276 C2279 1.386 . S
H2277 C2293 0.930 . S
H2278 C2294 0.931 . S
C2279 H2267 0.929 . S
C2279 C2273 1.390 . S
C2279 C2276 1.386 . S
C2280 C2275 1.490 . S
C2280 C2282 1.395 . S
C2280 C2283 1.403 . S
H2281 C2287 0.930 . S
C2282 H2268 0.930 . S
C2282 C2280 1.395 . S
C2282 C2285 1.403 . S
C2283 C2280 1.403 . S
C2283 C2284 1.524 . S
C2283 C2287 1.400 . S
C2284 H2269 0.960 . S
C2284 H2270 0.960 . S
C2284 H2271 0.960 . S
C2284 C2283 1.524 . S
C2285 C2282 1.403 . S
C2285 C2286 1.392 . S
C2285 C2289 1.482 1_554 S
C2286 C2285 1.392 . S
C2286 C2287 1.385 . S
C2286 C2288 1.478 . S
C2287 H2281 0.930 . S
C2287 C2283 1.400 . S
C2287 C2286 1.385 . S
C2288 C2286 1.478 . S
C2288 C2290 1.381 . S
C2288 C2294 1.383 . S
C2289 C2285 1.482 1_556 S
C2289 H2295 0.965 . S
C2289 H2296 0.971 . S
C2289 H2297 0.957 1_556 S
C2290 C2288 1.381 . S
C2290 C2291 1.394 . S
C2290 H2298 0.930 . S
C2291 C2290 1.394 . S
C2291 C2292 1.383 . S
C2291 H2299 0.929 . S
C2292 C2291 1.383 . S
C2292 C2293 1.377 . S
C2293 H2277 0.930 . S
C2293 C2292 1.377 . S
C2293 C2294 1.379 . S
C2294 H2278 0.931 . S
C2294 C2288 1.383 . S
C2294 C2293 1.379 . S
H2295 C2289 0.965 . S
H2296 C2289 0.971 . S
H2297 C2289 0.957 1_554 S
H2298 C2290 0.930 . S
H2299 C2291 0.929 . S
H2300 C2308 0.929 . S
H2301 C2310 0.930 . S
H2302 C2312 0.930 . S
H2303 C2315 0.929 1_545 S
H2304 C2318 0.930 . S
H2305 C2320 0.960 . S
H2306 C2320 0.960 . S
H2307 C2320 0.960 . S
C2308 H2300 0.929 . S
C2308 C2309 1.377 . S
C2308 C2310 1.384 . S
C2309 C2308 1.377 . S
C2309 C2315 1.390 . S
C2310 H2301 0.930 . S
C2310 C2308 1.384 . S
C2310 C2311 1.372 . S
C2311 C2310 1.372 . S
C2311 C2312 1.400 . S
C2311 C2316 1.490 . S
C2312 H2302 0.930 . S
C2312 C2311 1.400 . S
C2312 C2315 1.386 . S
H2313 C2329 0.930 . S
H2314 C2330 0.931 . S
C2315 H2303 0.929 1_565 S
C2315 C2309 1.390 . S
C2315 C2312 1.386 . S
C2316 C2311 1.490 . S
C2316 C2318 1.395 . S
C2316 C2319 1.403 . S
H2317 C2323 0.930 . S
C2318 H2304 0.930 . S
C2318 C2316 1.395 . S
C2318 C2321 1.403 . S
C2319 C2316 1.403 . S
C2319 C2320 1.524 . S
C2319 C2323 1.400 . S
C2320 H2305 0.960 . S
C2320 H2306 0.960 . S
C2320 H2307 0.960 . S
C2320 C2319 1.524 . S
C2321 C2318 1.403 . S
C2321 C2322 1.392 . S
C2321 C2325 1.495 1_554 S
C2322 C2321 1.392 . S
C2322 C2323 1.385 . S
C2322 C2324 1.478 . S
C2323 H2317 0.930 . S
C2323 C2319 1.400 . S
C2323 C2322 1.385 . S
C2324 C2322 1.478 . S
C2324 C2326 1.381 . S
C2324 C2330 1.383 . S
C2325 C2321 1.495 1_556 S
C2325 H2331 0.959 . S
C2325 H2332 0.961 . S
C2325 H2333 0.960 . S
C2326 C2324 1.381 . S
C2326 C2327 1.394 . S
C2326 H2334 0.930 . S
C2327 C2326 1.394 . S
C2327 C2328 1.383 . S
C2327 H2335 0.929 . S
C2328 C2327 1.383 . S
C2328 C2329 1.377 . S
C2329 H2313 0.930 . S
C2329 C2328 1.377 . S
C2329 C2330 1.379 . S
C2330 H2314 0.931 . S
C2330 C2324 1.383 . S
C2330 C2329 1.379 . S
H2331 C2325 0.959 . S
H2332 C2325 0.961 . S
H2333 C2325 0.960 . S
H2334 C2326 0.930 . S
H2335 C2327 0.929 . S
C636 C178 1.048 . S
C617 C62 1.073 . S
C672 C226 1.641 . S
C653 C73 1.650 1_455 S
C689 C84 1.365 . S
C708 C262 1.399 . S
C744 C298 1.327 . S
C725 C49 1.215 . S
C780 C324 1.321 . S
C761 C118 1.297 . S
C816 C360 1.698 . S
C797 C137 1.467 . S
C833 C129 1.512 . S
C852 C395 1.508 . S
C888 C432 2.038 1_565 S
C869 C106 1.988 . S
C905 C128 1.735 . S
C924 C466 1.770 . S
C960 C514 1.737 . S
C941 C104 1.581 . S
C977 C115 1.516 . S
C996 C467 1.814 . S
C1032 C504 1.924 . S
C1013 C139 1.858 . S
C1049 C85 1.525 . S
C1068 C550 1.496 1_655 S
C1085 C52 1.232 . S
C1104 C539 1.233 . S
C1121 C60 0.900 . S
C1140 C540 0.885 . S
C1157 C71 1.555 1_655 S
C1176 C538 1.721 . S
C1193 C40 1.584 . S
C1212 C286 1.706 . S
C1229 C162 1.027 . S
C1248 C287 1.024 . S
C1284 C190 1.171 . S
C1265 C173 1.210 1_565 S
C1320 C215 1.727 . S
C1301 C93 1.469 . S
C1337 C51 1.487 1_545 S
C1356 C322 1.525 . S
C1392 C430 1.417 . S
C1373 C126 1.339 . S
C1428 C323 1.910 . S
C1409 C107 1.910 . S
C1464 C396 1.743 . S
C1445 C140 1.725 . S
C1500 C394 1.085 . S
C1481 C161 1.066 . S
C1517 C172 1.641 . S
C1536 C442 1.596 . S
C1553 C95 1.376 . S
C1572 C334 1.355 . S
C1608 C370 1.307 . S
C1589 C148 1.228 . S
C1625 C41 1.303 . S
C1644 C252 1.334 . S
C1680 C288 1.696 . S
C1661 C5 1.467 1_655 S
C1716 C179 1.507 . S
C1697 C19 1.512 . S
C1752 C216 2.038 . S
C1733 C29 1.987 . S
C1769 C18 1.741 . S
C1788 C502 1.757 . S
C1805 C27 1.579 . S
C1824 C478 1.738 . S
C1841 C38 1.518 . S
C1860 C503 1.814 . S
C1877 C7 1.853 . S
C1896 C468 1.908 . S
C1932 C586 1.488 . S
C1913 C96 1.524 . S
C1968 C575 1.235 . S
C1949 C151 1.231 . S
C2004 C576 0.941 . S
C1985 C159 0.879 . S
C2021 C170 1.549 . S
C2040 C574 1.716 . S
C2057 C117 1.581 . S
C2076 C358 1.684 . S
C2112 C359 1.021 . S
C2093 C63 1.029 . S
C2148 C406 1.169 . S
C2129 C74 1.204 . S
C2184 C431 1.722 . S
C2165 C82 1.474 . S
C2201 C150 1.503 . S
C2220 C250 1.518 1_556 S
C2256 C214 1.418 . S
C2237 C16 1.332 . S
C2273 C30 1.909 . S
C2292 C251 1.913 . S
C2328 C180 1.740 . S
C2309 C8 1.727 1_565 S
