# Generated by pormake.
# Topology zzz, (3,6)-cn, num edge types: 1
# Building blocks:
#     Node 0, Type 0, BuildingBlock: WUSLED_clean_sbu_0, # of connection points: 3
#     Node 1, Type 0, BuildingBlock: WUSLED_clean_sbu_0, # of connection points: 3
#     Node 2, Type 0, BuildingBlock: WUSLED_clean_sbu_0, # of connection points: 3
#     Node 3, Type 0, BuildingBlock: WUSLED_clean_sbu_0, # of connection points: 3
#     Node 4, Type 0, BuildingBlock: WUSLED_clean_sbu_0, # of connection points: 3
#     Node 5, Type 0, BuildingBlock: WUSLED_clean_sbu_0, # of connection points: 3
#     Node 6, Type 0, BuildingBlock: WUSLED_clean_sbu_0, # of connection points: 3
#     Node 7, Type 0, BuildingBlock: WUSLED_clean_sbu_0, # of connection points: 3
#     Node 8, Type 1, BuildingBlock: CUWYAW_clean_sbu_0, # of connection points: 6
#     Node 9, Type 1, BuildingBlock: CUWYAW_clean_sbu_0, # of connection points: 6
#     Node 10, Type 1, BuildingBlock: CUWYAW_clean_sbu_0, # of connection points: 6
#     Node 11, Type 1, BuildingBlock: CUWYAW_clean_sbu_0, # of connection points: 6
#     Edge 12, Type (0, 1), BuildingBlock: CIFDUS_clean_linker_0, # of connection points: 2
#     Edge 13, Type (0, 1), BuildingBlock: CIFDUS_clean_linker_0, # of connection points: 2
#     Edge 14, Type (0, 1), BuildingBlock: CIFDUS_clean_linker_0, # of connection points: 2
#     Edge 15, Type (0, 1), BuildingBlock: CIFDUS_clean_linker_0, # of connection points: 2
#     Edge 16, Type (0, 1), BuildingBlock: CIFDUS_clean_linker_0, # of connection points: 2
#     Edge 17, Type (0, 1), BuildingBlock: CIFDUS_clean_linker_0, # of connection points: 2
#     Edge 18, Type (0, 1), BuildingBlock: CIFDUS_clean_linker_0, # of connection points: 2
#     Edge 19, Type (0, 1), BuildingBlock: CIFDUS_clean_linker_0, # of connection points: 2
#     Edge 20, Type (0, 1), BuildingBlock: CIFDUS_clean_linker_0, # of connection points: 2
#     Edge 21, Type (0, 1), BuildingBlock: CIFDUS_clean_linker_0, # of connection points: 2
#     Edge 22, Type (0, 1), BuildingBlock: CIFDUS_clean_linker_0, # of connection points: 2
#     Edge 23, Type (0, 1), BuildingBlock: CIFDUS_clean_linker_0, # of connection points: 2
#     Edge 24, Type (0, 1), BuildingBlock: CIFDUS_clean_linker_0, # of connection points: 2
#     Edge 25, Type (0, 1), BuildingBlock: CIFDUS_clean_linker_0, # of connection points: 2
#     Edge 26, Type (0, 1), BuildingBlock: CIFDUS_clean_linker_0, # of connection points: 2
#     Edge 27, Type (0, 1), BuildingBlock: CIFDUS_clean_linker_0, # of connection points: 2
#     Edge 28, Type (0, 1), BuildingBlock: CIFDUS_clean_linker_0, # of connection points: 2
#     Edge 29, Type (0, 1), BuildingBlock: CIFDUS_clean_linker_0, # of connection points: 2
#     Edge 30, Type (0, 1), BuildingBlock: CIFDUS_clean_linker_0, # of connection points: 2
#     Edge 31, Type (0, 1), BuildingBlock: CIFDUS_clean_linker_0, # of connection points: 2
#     Edge 32, Type (0, 1), BuildingBlock: CIFDUS_clean_linker_0, # of connection points: 2
#     Edge 33, Type (0, 1), BuildingBlock: CIFDUS_clean_linker_0, # of connection points: 2
#     Edge 34, Type (0, 1), BuildingBlock: CIFDUS_clean_linker_0, # of connection points: 2
#     Edge 35, Type (0, 1), BuildingBlock: CIFDUS_clean_linker_0, # of connection points: 2
# Relax obj value: 0.414
# Max RMSD: 0.243
# Mean RMSD: 0.225
data_MOF--net-zzz--node1-WUSLED_clean_sbu_0--node2-CUWYAW_clean_sbu_0--edge1-CIFDUS_clean_linker_0
_symmetry_space_group_name_H-M    P1
_symmetry_Int_Tables_number       1
_symmetry_cell_setting            triclinic
loop_
_symmetry_equiv_pos_as_xyz
'x, y, z'
_cell_length_a     55.856595
_cell_length_b     55.80004
_cell_length_c     18.133989
_cell_angle_alpha  90.117384
_cell_angle_beta   89.745088
_cell_angle_gamma 90.03903
loop_
_atom_site_label
_atom_site_type_symbol
_atom_site_fract_x
_atom_site_fract_y
_atom_site_fract_z
_atom_type_partial_charge
C0 C 0.79639 0.53118 0.48196 0.0
C1 C 0.81661 0.52861 0.43608 0.0
C2 C 0.84287 0.52533 0.54355 0.0
C3 C 0.8395 0.52561 0.46646 0.0
C4 C 0.82248 0.52741 0.58913 0.0
C5 C 0.7996 0.5303 0.5587 0.0
U6 U 0.74314 0.52206 0.34641 0.0
O7 O 0.70412 0.52329 0.36569 0.0
O8 O 0.72127 0.55044 0.29602 0.0
C9 C 0.701 0.5412 0.31957 0.0
C10 C 0.77218 0.53648 0.45196 0.0
C11 C 0.68221 0.53834 0.26255 0.0
C12 C 0.65948 0.51396 0.17558 0.0
C13 C 0.67677 0.51591 0.23133 0.0
C14 C 0.65289 0.55677 0.1811 0.0
C15 C 0.64742 0.5344 0.14927 0.0
C16 C 0.67002 0.55868 0.23707 0.0
C17 C 0.7814 0.47505 0.25148 0.0
C18 C 0.8092 0.45436 0.17079 0.0
C19 C 0.82297 0.47081 0.28703 0.0
C20 C 0.79973 0.4785 0.30302 0.0
C21 C 0.82809 0.45951 0.21938 0.0
C22 C 0.78603 0.4622 0.18666 0.0
C23 C 0.75872 0.48792 0.25912 0.0
O24 O 0.77126 0.54643 0.38635 0.0
O25 O 0.75551 0.52014 0.46201 0.0
O26 O 0.74628 0.48366 0.31941 0.0
O27 O 0.76024 0.5108 0.24304 0.0
H28 H 0.81481 0.52924 0.37668 0.0
H29 H 0.85461 0.52364 0.42931 0.0
H30 H 0.82423 0.52759 0.64856 0.0
H31 H 0.78439 0.53245 0.59542 0.0
H32 H 0.65596 0.49648 0.15189 0.0
H33 H 0.68605 0.49995 0.24937 0.0
H34 H 0.64381 0.57284 0.16302 0.0
H35 H 0.67391 0.57617 0.26017 0.0
H36 H 0.81263 0.44593 0.11792 0.0
H37 H 0.83715 0.47483 0.3257 0.0
H38 H 0.79631 0.48832 0.35352 0.0
H39 H 0.77205 0.45954 0.1462 0.0
C40 C 0.02869 0.79714 0.50087 0.0
C41 C 0.034 0.81751 0.45816 0.0
C42 C 0.02806 0.84366 0.56504 0.0
C43 C 0.03358 0.84047 0.48976 0.0
C44 C 1.02267 0.82322 0.60747 0.0
C45 C 1.02298 0.80029 0.57574 0.0
U46 U 1.01277 0.75008 0.35301 0.0
O47 O 1.00317 0.71169 0.36024 0.0
O48 O 0.03647 0.72268 0.30552 0.0
C49 C 1.02144 0.70508 0.31895 0.0
C50 C 0.02973 0.77252 0.46943 0.0
C51 C 1.01595 0.68956 0.25487 0.0
C52 C 1.01111 0.64966 0.20212 0.0
C53 C 1.01471 0.66462 0.26339 0.0
C54 C 1.00966 0.68448 0.12293 0.0
C55 C 1.00882 0.65935 0.13073 0.0
C56 C 1.01306 0.69938 0.18422 0.0
C57 C 0.98098 0.8017 0.2626 0.0
C58 C 0.97193 0.83709 0.19104 0.0
C59 C 0.98561 0.84115 0.31721 0.0
C60 C 0.98635 0.81623 0.32355 0.0
C61 C 0.97921 0.8518 0.24996 0.0
C62 C 0.97296 0.81219 0.19724 0.0
C63 C 0.98713 0.77621 0.26328 0.0
O64 O 1.00966 0.76015 0.47061 0.0
O65 O 0.04181 0.76988 0.40755 0.0
O66 O 1.01003 0.77197 0.25309 0.0
O67 O 0.97767 0.76353 0.31704 0.0
H68 H 0.03854 0.81575 0.40028 0.0
H69 H 0.03807 0.85569 0.4554 0.0
H70 H 1.01804 0.82494 0.66528 0.0
H71 H 1.01888 0.78492 0.60999 0.0
H72 H 1.01015 0.6305 0.21082 0.0
H73 H 1.01683 0.65665 0.31741 0.0
H74 H 1.00836 0.69271 0.0691 0.0
H75 H 1.01393 0.7186 0.17614 0.0
H76 H 0.9672 0.84478 0.13828 0.0
H77 H 0.99118 0.85208 0.36352 0.0
H78 H 0.99237 0.80827 0.37458 0.0
H79 H 0.96887 0.80118 0.14963 0.0
C80 C 0.76509 1.00951 0.52066 0.0
C81 C 0.75193 0.02937 0.49583 0.0
C82 C 0.71622 1.01502 0.56004 0.0
C83 C 0.72769 0.03193 0.51452 0.0
C84 C 0.72967 0.9957 0.58735 0.0
C85 C 0.75381 0.99288 0.56733 0.0
U86 U 0.81355 1.0135 0.37221 0.0
O87 O 0.8518 1.02307 0.37838 0.0
O88 O 0.8412 0.98756 0.33838 0.0
C89 C 0.85865 1.00323 0.34522 0.0
C90 C 0.79008 1.00534 0.49576 0.0
C91 C 0.8735 1.00673 0.27848 0.0
C92 C 0.87668 1.01767 0.14903 0.0
C93 C 0.86273 1.0134 0.21186 0.0
C94 C 0.91251 1.00838 0.21795 0.0
C95 C 0.90179 1.01551 0.15133 0.0
C96 C 0.89847 1.00409 0.28102 0.0
C97 C 0.76357 0.04145 0.26255 0.0
C98 C 0.73343 0.06664 0.2067 0.0
C99 C 0.72233 0.03915 0.30444 0.0
C100 C 0.74602 0.03142 0.30857 0.0
C101 C 0.71564 0.0566 0.25257 0.0
C102 C 0.75722 0.05923 0.21211 0.0
C103 C 0.78854 0.03367 0.26759 0.0
O104 O 0.79273 0.98914 0.4436 0.0
O105 O 0.80327 1.02456 0.48465 0.0
O106 O 0.80169 0.04595 0.31419 0.0
O107 O 0.7917 1.01038 0.27237 0.0
H108 H 0.76023 0.04262 0.46042 0.0
H109 H 0.71786 0.04711 0.49312 0.0
H110 H 0.72131 0.98234 0.62224 0.0
H111 H 0.76358 0.97746 0.58736 0.0
H112 H 0.86776 1.02273 0.09851 0.0
H113 H 0.84348 1.01551 0.20862 0.0
H114 H 0.93178 1.00674 0.2219 0.0
H115 H 0.90713 0.99902 0.33199 0.0
H116 H 0.72893 0.07968 0.16489 0.0
H117 H 0.70925 0.03121 0.34125 0.0
H118 H 0.75063 1.01743 0.34724 0.0
H119 H 0.77059 0.06709 0.17606 0.0
C120 C 0.53623 0.76592 0.52797 0.0
C121 C 0.51348 0.75687 0.54698 0.0
C122 C 0.53085 0.71815 0.58038 0.0
C123 C 0.51084 0.7333 0.57294 0.0
C124 C 0.55356 0.72731 0.56149 0.0
C125 C 0.5562 0.75085 0.53592 0.0
U126 U 0.52663 0.81665 0.38701 0.0
O127 O 0.52024 0.8555 0.39952 0.0
O128 O 0.55294 0.84271 0.34532 0.0
C129 C 0.53912 0.86121 0.35958 0.0
C130 C 0.53975 0.79098 0.50152 0.0
C131 C 0.53456 0.87693 0.29561 0.0
C132 C 0.53966 0.91505 0.23195 0.0
C133 C 0.54311 0.90058 0.29433 0.0
C134 C 0.51895 0.88237 0.17167 0.0
C135 C 0.52755 0.90611 0.16962 0.0
C136 C 0.52239 0.86799 0.23388 0.0
C137 C 0.49161 0.76982 0.28197 0.0
C138 C 0.47432 0.73907 0.20459 0.0
C139 C 0.49283 0.72826 0.32062 0.0
C140 C 0.49781 0.7524 0.33414 0.0
C141 C 0.48168 0.72129 0.25456 0.0
C142 C 0.47928 0.76316 0.21826 0.0
C143 C 0.50027 0.7944 0.28944 0.0
O144 O 0.55304 0.79348 0.44197 0.0
O145 O 0.52099 0.80525 0.50215 0.0
O146 O 0.4911 0.80683 0.34435 0.0
O147 O 0.52361 0.79658 0.28351 0.0
H148 H 0.49766 0.76792 0.54158 0.0
H149 H 0.49306 0.72682 0.58619 0.0
H150 H 0.56943 0.71635 0.56743 0.0
H151 H 0.57397 0.75734 0.52252 0.0
H152 H 0.54629 0.93329 0.2328 0.0
H153 H 0.5526 0.90782 0.34136 0.0
H154 H 0.5099 0.87467 0.12454 0.0
H155 H 0.51579 0.84972 0.23346 0.0
H156 H 0.46605 0.73431 0.15268 0.0
H157 H 0.49853 0.715 0.36039 0.0
H158 H 0.50744 0.75736 0.38356 0.0
H159 H 0.47454 0.77645 0.17735 0.0
C160 C 0.26411 0.52318 0.93838 0.0
C161 C 0.25054 0.50237 0.95199 0.0
C162 C 0.21485 0.52094 0.8991 0.0
C163 C 0.2262 0.50135 0.93316 0.0
C164 C 0.22859 0.54157 0.88435 0.0
C165 C 0.25285 0.54267 0.90393 0.0
U166 U 0.31557 0.5186 0.07906 0.0
O167 O 0.35246 0.50491 0.06815 0.0
O168 O 0.34637 0.54278 0.09464 0.0
C169 C 0.36208 0.52531 0.08946 0.0
C170 C 0.28986 0.52499 0.95913 0.0
C171 C 0.3803 0.52433 0.14918 0.0
C172 C 0.41056 0.54475 0.22309 0.0
C173 C 0.39341 0.54504 0.16691 0.0
C174 C 0.40234 0.50279 0.24438 0.0
C175 C 0.41532 0.52362 0.2629 0.0
C176 C 0.38503 0.50314 0.18847 0.0
C177 C 0.26547 0.50271 0.20803 0.0
C178 C 0.23195 0.49557 0.29011 0.0
C179 C 0.22489 0.50763 0.16365 0.0
C180 C 0.24952 0.50817 0.15113 0.0
C181 C 0.21584 0.50199 0.23393 0.0
C182 C 0.25663 0.49591 0.27714 0.0
C183 C 0.29119 0.506 0.19638 0.0
O184 O 0.29546 0.54247 1.00467 0.0
O185 O 0.30109 0.50488 0.97424 0.0
O186 O 0.30135 0.49038 0.15183 0.0
O187 O 0.29743 0.52824 0.18244 0.0
H188 H 0.25861 0.48695 0.97814 0.0
H189 H 0.21632 0.48508 0.94472 0.0
H190 H 0.22046 0.55708 0.85888 0.0
H191 H 0.26285 0.5589 0.8924 0.0
H192 H 0.4198 0.56129 0.23603 0.0
H193 H 0.39025 0.56162 0.13749 0.0
H194 H 0.40568 0.48605 0.27257 0.0
H195 H 0.3754 0.48678 0.17612 0.0
H196 H 0.22559 0.49149 0.34518 0.0
H197 H 0.21298 0.51243 0.11904 0.0
H198 H 0.25621 0.5138 0.09794 0.0
H199 H 0.26878 0.4918 0.32175 0.0
C200 C 0.04179 0.26855 0.93106 0.0
C201 C 0.04172 0.24891 0.97954 0.0
C202 C 0.03522 0.22112 0.87691 0.0
C203 C 0.03826 0.22554 0.95292 0.0
C204 C 0.03539 0.24091 0.82868 0.0
C205 C 0.03856 0.26427 0.85549 0.0
U206 U 0.03257 0.32154 0.06633 0.0
O207 O 0.06017 0.34635 0.10625 0.0
O208 O 0.02913 0.36053 0.0471 0.0
C209 C 0.04803 0.36553 0.08734 0.0
C210 C 0.04619 0.29342 0.95713 0.0
C211 C 0.04473 0.38366 0.14643 0.0
C212 C 0.04206 0.42548 0.18497 0.0
C213 C 0.04386 0.40815 0.12896 0.0
C214 C 0.04174 0.39404 0.27671 0.0
C215 C 0.04136 0.41863 0.25963 0.0
C216 C 0.04327 0.37677 0.22084 0.0
C217 C 0.9917 0.27967 0.17309 0.0
C218 C 0.97247 0.25106 0.25426 0.0
C219 C 0.98792 0.23811 0.13548 0.0
C220 C 0.99495 0.26161 0.12015 0.0
C221 C 0.97713 0.23256 0.20347 0.0
C222 C 0.97987 0.27446 0.23931 0.0
C223 C 1.00273 0.30324 0.163 0.0
O224 O 0.02818 0.3085 0.95199 0.0
O225 O 0.05819 0.29579 1.01895 0.0
O226 O 1.02605 0.30352 0.17197 0.0
O227 O 0.99568 0.31533 0.1049 0.0
H228 H 0.04435 0.25156 0.03812 0.0
H229 H 0.03786 0.21095 0.99218 0.0
H230 H 0.03357 0.23837 0.76978 0.0
H231 H 0.03882 0.27905 0.81682 0.0
H232 H 0.04183 0.44425 0.16994 0.0
H233 H 0.0449 0.4139 0.07201 0.0
H234 H 0.04077 0.38812 0.3335 0.0
H235 H 0.04362 0.358 0.23597 0.0
H236 H 0.96443 0.24718 0.3074 0.0
H237 H 0.99162 0.22416 0.09537 0.0
H238 H 1.00374 0.26557 0.06834 0.0
H239 H 0.97728 0.28825 0.28074 0.0
C240 C 0.3 0.05117 0.97169 0.0
C241 C 0.31904 0.06253 1.00841 0.0
C242 C 0.34824 0.04289 0.928 0.0
C243 C 0.34276 0.05844 0.98693 0.0
C244 C 0.3292 0.0317 0.89067 0.0
C245 C 0.30538 0.03583 0.91218 0.0
U246 U 0.24695 0.04082 0.10235 0.0
O247 O 0.20809 0.03765 0.08405 0.0
O248 O 0.2222 0.06738 0.15023 0.0
C249 C 0.20311 0.05541 0.12956 0.0
C250 C 0.2747 0.05567 0.9943 0.0
C251 C 0.18583 0.05023 0.18957 0.0
C252 C 0.15761 0.06478 0.28226 0.0
C253 C 0.17234 0.06892 0.22077 0.0
C254 C 0.16903 1.02295 0.28072 0.0
C255 C 0.15601 0.04178 0.31383 0.0
C256 C 0.18389 0.02715 0.21978 0.0
C257 C 0.29064 0.99962 0.19723 0.0
C258 C 0.32023 0.97785 0.26751 0.0
C259 C 0.33151 0.99671 0.15208 0.0
C260 C 0.30799 1.00466 0.14322 0.0
C261 C 0.33799 0.98363 0.21517 0.0
C262 C 0.29674 0.98582 0.25858 0.0
C263 C 0.26675 1.01026 0.19292 0.0
O264 O 0.25963 0.03767 0.98716 0.0
O265 O 0.27157 0.06764 0.05613 0.0
O266 O 0.26619 0.03347 0.20509 0.0
O267 O 0.25383 1.00361 0.13604 0.0
H268 H 0.3157 0.0747 0.05388 0.0
H269 H 0.35684 0.06779 1.01613 0.0
H270 H 0.3327 1.01949 0.84542 0.0
H271 H 0.29115 0.02695 0.88228 0.0
H272 H 0.14814 0.0798 0.30648 0.0
H273 H 0.1737 0.08691 0.19876 0.0
H274 H 0.16796 1.00491 0.30233 0.0
H275 H 0.19421 1.01241 0.19721 0.0
H276 H 0.32469 0.96818 0.31731 0.0
H277 H 0.34474 1.00131 0.11057 0.0
H278 H 0.30348 1.01534 0.09546 0.0
H279 H 0.28355 0.98193 0.30089 0.0
C280 C 0.50744 0.2981 0.97449 0.0
C281 C 0.52966 0.30681 0.949 0.0
C282 C 0.51218 0.34628 0.92637 0.0
C283 C 0.53196 0.33064 0.92483 0.0
C284 C 0.49003 0.33739 0.95148 0.0
C285 C 0.4877 0.31363 0.97495 0.0
U286 U 0.52424 0.24385 0.09564 0.0
O287 O 0.52384 0.20471 0.07631 0.0
O288 O 0.49912 0.22083 0.15627 0.0
C289 C 0.50831 0.20091 0.12982 0.0
C290 C 0.50408 0.27311 1.00077 0.0
C291 C 0.51538 0.18335 0.18662 0.0
C292 C 0.51145 0.14389 0.24271 0.0
C293 C 0.50616 0.15996 0.18559 0.0
C294 C 0.53545 0.1744 0.30215 0.0
C295 C 0.52602 0.15095 0.30224 0.0
C296 C 0.53027 0.19034 0.24495 0.0
C297 C 0.57367 0.28386 0.1682 0.0
C298 C 0.60579 0.30848 0.21605 0.0
C299 C 0.57204 0.32702 0.15491 0.0
C300 C 0.56227 0.30443 0.14146 0.0
C301 C 0.59346 0.32935 0.19497 0.0
C302 C 0.59586 0.28589 0.20314 0.0
C303 C 0.56139 0.26068 0.16657 0.0
O304 O 0.52035 0.25715 0.98181 0.0
O305 O 0.49692 0.27092 0.06955 0.0
O306 O 0.5395 0.26107 0.19338 0.0
O307 O 0.56331 0.24846 0.1048 0.0
H308 H 0.54527 0.2953 0.94826 0.0
H309 H 0.54931 0.33697 0.90643 0.0
H310 H 0.47436 0.34882 0.95261 0.0
H311 H 0.47036 0.30738 0.99385 0.0
H312 H 0.50413 0.12593 0.24014 0.0
H313 H 0.49459 0.15422 0.14111 0.0
H314 H 0.54637 0.18074 0.34734 0.0
H315 H 0.53748 0.20836 0.24711 0.0
H316 H 0.62255 0.30964 0.24567 0.0
H317 H 0.56192 0.34264 0.13836 0.0
H318 H 0.54513 0.30311 0.11399 0.0
H319 H 0.60496 0.2701 0.22346 0.0
C320 C 0.99034 0.04871 0.54605 0.0
Eu321 Eu 1.01154 0.03981 0.67095 0.0
C322 C 0.99038 0.06829 0.49245 0.0
C323 C 0.97293 0.06905 0.4372 0.0
C324 C 0.97284 0.08781 0.38617 0.0
C325 C 0.99045 0.10575 0.38933 0.0
C326 C 1.00795 0.10483 0.44463 0.0
C327 C 1.00776 0.08636 0.49629 0.0
C328 C 0.98883 0.03076 0.80126 0.0
C329 C 0.03293 0.08088 0.77084 0.0
C330 C 0.06113 1.01502 0.92068 0.0
Eu331 Eu 0.04368 1.02317 0.79011 0.0
C332 C 0.05439 0.99978 0.98398 0.0
C333 C 0.06815 0.97953 1.00108 0.0
C334 C 0.0608 0.96389 0.05678 0.0
C335 C 0.03957 0.96826 0.09659 0.0
C336 C 0.02645 0.98914 0.08195 0.0
C337 C 0.03382 1.0048 0.02642 0.0
C338 C 0.06735 0.03163 0.66183 0.0
C339 C 1.02321 0.98254 0.68561 0.0
O340 O 1.01038 0.03676 0.55142 0.0
O341 O 0.98085 0.05358 0.61032 0.0
O342 O 0.98329 0.04818 0.75757 0.0
O343 O 1.00506 1.01811 0.77268 0.0
O344 O 1.02446 0.07654 0.70434 0.0
O345 O 0.03921 0.06307 0.81475 0.0
O346 O 0.04664 0.03271 0.90571 0.0
O347 O 0.0688 1.0041 0.86115 0.0
O348 O 0.07363 1.01553 0.70932 0.0
O349 O 0.05056 0.0443 0.68761 0.0
O350 O 0.0306 0.98661 0.75361 0.0
O351 O 1.01723 1.00054 0.64225 0.0
H352 H 0.95933 0.05524 0.43382 0.0
H353 H 0.95913 0.08827 0.34411 0.0
H354 H 1.02143 0.11873 0.44896 0.0
H355 H 1.02104 0.0863 0.53958 0.0
H356 H 0.0842 0.9754 0.96983 0.0
H357 H 0.07116 0.94781 0.06632 0.0
H358 H 1.01017 0.99308 0.11233 0.0
H359 H 1.02298 1.02048 1.01562 0.0
C360 C 0.52116 0.98632 0.54484 0.0
Eu361 Eu 0.52503 1.00889 0.67034 0.0
C362 C 0.50406 0.9876 0.48387 0.0
C363 C 0.50079 0.9679 0.4369 0.0
C364 C 0.4832 0.96858 0.38222 0.0
C365 C 0.46878 0.98905 0.37375 0.0
C366 C 0.47267 1.00897 0.41977 0.0
C367 C 0.49006 1.00819 0.47454 0.0
C368 C 0.52912 0.98756 0.80501 0.0
C369 C 0.48001 0.02842 0.75494 0.0
C370 C 0.53844 0.06604 0.91221 0.0
Eu371 Eu 0.53538 0.04268 0.78785 0.0
C372 C 0.55363 0.06297 0.97695 0.0
C373 C 0.55545 0.08106 0.0303 0.0
C374 C 0.57137 0.07849 0.08912 0.0
C375 C 0.58552 0.05772 0.09513 0.0
C376 C 0.58292 0.03936 0.04257 0.0
C377 C 0.56721 0.04203 0.98391 0.0
C378 C 0.5307 0.0638 0.65314 0.0
C379 C 0.58061 1.02181 0.70781 0.0
O380 O 0.5345 1.00532 0.55434 0.0
O381 O 0.51265 0.978 0.60693 0.0
O382 O 0.51361 0.98143 0.7557 0.0
O383 O 0.54263 1.00379 0.7803 0.0
O384 O 0.48716 1.02188 0.6885 0.0
O385 O 0.49591 0.03422 0.80548 0.0
O386 O 0.52324 0.04867 0.90051 0.0
O387 O 0.54957 0.07257 0.85201 0.0
O388 O 0.54648 0.06993 0.70152 0.0
O389 O 0.51733 0.04763 0.67872 0.0
O390 O 0.57289 0.02852 0.77345 0.0
O391 O 0.5651 1.01624 0.6557 0.0
H392 H 0.51146 0.95184 0.44355 0.0
H393 H 0.4806 0.953 0.34741 0.0
H394 H 0.46155 1.02481 0.41562 0.0
H395 H 0.49218 1.02346 0.51088 0.0
H396 H 0.54502 0.09734 0.02549 0.0
H397 H 0.57303 0.09291 0.12887 0.0
H398 H 0.59391 1.02339 0.04454 0.0
H399 H 0.56614 0.02806 0.9426 0.0
C400 C 0.57589 0.50964 0.5435 0.0
Eu401 Eu 0.5485 0.52268 0.65366 0.0
C402 C 0.5854 0.48758 0.51102 0.0
C403 C 0.59916 0.48868 0.44638 0.0
C404 C 0.60702 0.46761 0.41227 0.0
C405 C 0.60112 0.44515 0.44245 0.0
C406 C 0.58784 0.44427 0.50855 0.0
C407 C 0.58009 0.46533 0.54255 0.0
C408 C 0.56656 0.53883 0.78415 0.0
C409 C 0.52882 0.47763 0.75103 0.0
C410 C 0.48355 0.5446 0.87232 0.0
Eu411 Eu 0.51169 0.53184 0.76389 0.0
C412 C 0.47922 0.56489 0.92168 0.0
C413 C 0.45771 0.56604 0.96159 0.0
C414 C 0.45366 0.5848 1.01121 0.0
C415 C 0.47121 0.60249 1.02177 0.0
C416 C 0.49268 0.60132 0.98111 0.0
C417 C 0.49664 0.58267 0.93123 0.0
C418 C 0.49365 0.51577 0.63327 0.0
C419 C 0.53231 0.5767 0.66908 0.0
O420 O 0.55276 0.5126 0.53826 0.0
O421 O 0.584 0.51536 0.60858 0.0
O422 O 0.57352 0.54619 0.71985 0.0
O423 O 0.55022 0.52335 0.77716 0.0
O424 O 0.53941 0.48438 0.68905 0.0
O425 O 0.51857 0.49352 0.79456 0.0
O426 O 0.50386 0.53342 0.88118 0.0
O427 O 0.4782 0.54767 0.80296 0.0
O428 O 0.48671 0.50845 0.69755 0.0
O429 O 0.50999 0.53124 0.64047 0.0
O430 O 0.52341 0.57013 0.73383 0.0
O431 O 0.54007 0.56045 0.6221 0.0
H432 H 0.60347 0.50581 0.42159 0.0
H433 H 0.61739 0.46888 0.36183 0.0
H434 H 0.58262 0.42729 0.53263 0.0
H435 H 0.56949 0.46424 0.59246 0.0
H436 H 0.44414 0.55233 0.95481 0.0
H437 H 0.437 0.58529 0.04204 0.0
H438 H 0.50632 0.61498 0.98734 0.0
H439 H 0.51332 0.58203 0.90052 0.0
C440 C 0.04989 0.57775 0.55027 0.0
Eu441 Eu 0.03486 0.55056 0.65751 0.0
C442 C 0.06236 0.57165 0.48151 0.0
C443 C 0.07957 0.58731 0.45271 0.0
C444 C 0.09482 0.57968 0.39616 0.0
C445 C 0.09308 0.55623 0.36789 0.0
C446 C 0.07467 0.54119 0.39354 0.0
C447 C 0.05952 0.5488 0.45021 0.0
C448 C 1.01926 0.56748 0.79136 0.0
C449 C 0.07988 0.52785 0.74463 0.0
C450 C 1.01153 0.48482 0.8712 0.0
Eu451 Eu 1.0255 0.51243 0.76324 0.0
C452 C 0.99103 0.48269 0.92121 0.0
C453 C 0.98845 0.46214 0.96474 0.0
C454 C 0.96946 0.46031 1.01481 0.0
C455 C 0.95291 0.47913 1.0222 0.0
C456 C 0.95554 0.49966 0.97802 0.0
C457 C 0.97444 0.50141 0.92776 0.0
C458 C 0.0432 0.49533 0.63303 0.0
C459 C 0.98197 0.5317 0.66187 0.0
O460 O 0.02786 0.57019 0.55607 0.0
O461 O 0.0622 0.57387 0.61004 0.0
O462 O 1.01343 0.57669 0.72864 0.0
O463 O 0.03384 0.55072 0.78046 0.0
O464 O 0.07252 0.53708 0.68162 0.0
O465 O 0.06422 0.51927 0.79233 0.0
O466 O 1.02465 0.50398 0.88003 0.0
O467 O 1.00764 0.47991 0.8018 0.0
O468 O 0.04886 0.48717 0.69743 0.0
O469 O 0.02779 0.51176 0.63956 0.0
O470 O 0.98752 0.52406 0.72884 0.0
O471 O 0.99904 0.53888 0.61701 0.0
H472 H 0.08212 0.60492 0.47677 0.0
H473 H 0.10902 0.59159 0.37831 0.0
H474 H 0.07273 0.52312 0.37235 0.0
H475 H 0.0464 0.53639 0.47211 0.0
H476 H 1.00124 0.4476 0.96044 0.0
H477 H 0.96789 0.44435 0.0484 0.0
H478 H 0.94282 0.51427 0.98173 0.0
H479 H 0.97621 0.51741 0.89436 0.0
H480 H 0.11285 0.06169 0.35512 0.0
H481 H 0.16745 1.01267 0.42955 0.0
H482 H 0.14469 1.005 0.5416 0.0
H483 H 0.10949 1.01209 0.61945 0.0
H484 H 0.05581 0.06261 0.55081 0.0
H485 H 0.07807 0.07006 0.4362 0.0
C486 C 0.11991 0.04949 0.39604 0.0
C487 C 0.14181 0.03756 0.38279 0.0
C488 C 0.10689 0.04545 0.46168 0.0
C489 C 0.15043 1.02167 0.43672 0.0
C490 C 0.13751 1.0174 0.50143 0.0
C491 C 0.10267 1.02478 0.57947 0.0
C492 C 0.08098 0.03676 0.59338 0.0
C493 C 0.11572 0.02912 0.51443 0.0
C494 C 0.07245 0.05319 0.54122 0.0
C495 C 0.08519 0.05742 0.47574 0.0
H496 H 0.49583 0.11814 0.36717 0.0
H497 H 0.56786 0.14606 0.37918 0.0
H498 H 0.57549 0.12168 0.48776 0.0
H499 H 0.5615 0.09338 0.5823 0.0
H500 H 0.49028 0.06402 0.56852 0.0
H501 H 0.48277 0.08751 0.45696 0.0
C502 C 0.51334 0.11865 0.39265 0.0
C503 C 0.53109 0.13433 0.36507 0.0
C504 C 0.51778 0.10427 0.45502 0.0
C505 C 0.55359 0.13473 0.39981 0.0
C506 C 0.55807 0.12064 0.46185 0.0
C507 C 0.54436 0.09209 0.55469 0.0
C508 C 0.52644 0.07707 0.58372 0.0
C509 C 0.54022 0.1056 0.49054 0.0
C510 C 0.5044 0.07538 0.54704 0.0
C511 C 0.50007 0.0889 0.48342 0.0
H512 H 0.4138 0.49873 0.39325 0.0
H513 H 0.45805 0.54822 0.2707 0.0
H514 H 0.48648 0.5497 0.37238 0.0
H515 H 0.49841 0.53785 0.4987 0.0
H516 H 0.45454 0.48736 0.61824 0.0
H517 H 0.42691 0.48493 0.51474 0.0
C518 C 0.42983 0.50956 0.38787 0.0
C519 C 0.43345 0.52349 0.32392 0.0
C520 C 0.44637 0.51013 0.44636 0.0
C521 C 0.45432 0.53767 0.31943 0.0
C522 C 0.47078 0.5384 0.37754 0.0
C523 C 0.48292 0.52616 0.5017 0.0
C524 C 0.47851 0.51293 0.5665 0.0
C525 C 0.46691 0.52488 0.44167 0.0
C526 C 0.45836 0.49783 0.56933 0.0
C527 C 0.44247 0.49646 0.51011 0.0
H528 H 0.06748 0.41949 0.38571 0.0
H529 H 1.01331 0.45894 0.26873 0.0
H530 H 1.01018 0.4874 0.37144 0.0
H531 H 1.02096 0.49941 0.4989 0.0
H532 H 0.07523 0.45948 0.61423 0.0
H533 H 0.08013 0.43295 0.5082 0.0
C534 C 0.05494 0.43429 0.3827 0.0
C535 C 0.04044 0.43687 0.31993 0.0
C536 C 0.05321 0.4505 0.44195 0.0
C537 C 1.02471 0.45651 0.31631 0.0
C538 C 1.02284 0.47274 0.37521 0.0
C539 C 0.03408 0.48511 0.50028 0.0
C540 C 0.0476 0.48134 0.56465 0.0
C541 C 0.03675 0.46972 0.43888 0.0
C542 C 0.06448 0.46268 0.56564 0.0
C543 C 0.06729 0.44746 0.50502 0.0
H544 H 0.94129 0.992 0.09603 0.0
H545 H 0.89563 0.05307 0.05747 0.0
H546 H 0.91845 0.06305 0.94701 0.0
H547 H 0.95108 0.0545 0.8602 0.0
H548 H 0.99704 0.99367 0.89658 0.0
H549 H 0.97466 0.98372 1.00906 0.0
C550 C 0.93646 1.0076 0.06379 0.0
C551 C 0.91656 1.02162 0.08502 0.0
C552 C 0.94975 1.01332 0.9998 0.0
C553 C 0.91052 0.04167 0.04199 0.0
C554 C 0.92367 0.04751 0.9789 0.0
C555 C 0.95622 0.03907 0.89279 0.0
C556 C 0.97563 1.02481 0.86998 0.0
C557 C 0.94322 0.03343 0.95704 0.0
C558 C 0.98209 1.0049 0.91284 0.0
C559 C 0.96931 0.99922 0.97721 0.0
H560 H 0.55893 0.93776 0.10468 0.0
H561 H 0.48767 0.90865 0.08299 0.0
H562 H 0.48202 0.93112 0.96931 0.0
H563 H 0.49743 0.95839 0.87395 0.0
H564 H 0.56833 0.98801 0.89492 0.0
H565 H 0.57381 0.96649 1.01131 0.0
C566 C 0.54205 0.93655 0.07567 0.0
C567 C 0.52386 0.92123 0.10245 0.0
C568 C 0.53882 0.94968 1.01001 0.0
C569 C 0.50219 0.91983 0.06329 0.0
C570 C 0.49887 0.93281 0.99829 0.0
C571 C 0.51407 0.96013 0.90408 0.0
C572 C 0.5324 0.97487 0.87607 0.0
C573 C 0.51711 0.94759 0.97068 0.0
C574 C 0.55383 0.97704 0.91585 0.0
C575 C 0.55701 0.96461 0.98219 0.0
H576 H 0.64197 0.56421 0.03113 0.0
H577 H 0.61262 0.50021 0.1293 0.0
H578 H 0.58403 0.49661 0.02802 0.0
H579 H 0.56799 0.51105 0.90878 0.0
H580 H 0.59849 0.57438 0.8099 0.0
H581 H 0.6255 0.57909 0.91453 0.0
C582 C 0.62915 0.54961 0.03096 0.0
C583 C 0.62956 0.53251 0.08809 0.0
C584 C 0.61282 0.54756 0.97223 0.0
C585 C 0.61298 0.5135 0.08586 0.0
C586 C 0.5965 0.51149 0.02805 0.0
C587 C 0.58038 0.52601 0.91066 0.0
C588 C 0.5812 0.54237 0.85156 0.0
C589 C 0.59633 0.52833 0.97057 0.0
C590 C 0.59751 0.56153 0.85453 0.0
C591 C 0.61302 0.56421 0.91433 0.0
H592 H 0.02972 0.6156 0.10491 0.0
H593 H 0.98204 0.66717 1.00618 0.0
H594 H 0.98037 0.64307 0.89405 0.0
H595 H 0.99382 0.60812 0.82123 0.0
H596 H 0.04023 0.55592 0.92182 0.0
H597 H 0.04044 0.57913 0.03622 0.0
C598 C 1.01858 0.62144 0.05959 0.0
C599 C 1.00628 0.64348 0.06437 0.0
C600 C 1.01743 0.60731 0.9952 0.0
C601 C 0.99221 0.65067 1.00402 0.0
C602 C 0.99108 0.63678 0.93978 0.0
C603 C 1.0038 0.60173 0.86845 0.0
C604 C 1.01717 0.58043 0.86269 0.0
C605 C 1.00388 0.61522 0.93429 0.0
C606 C 0.02987 0.57231 0.92457 0.0
C607 C 0.03005 0.58562 0.99004 0.0
H608 H 1.00972 0.19708 0.19708 0.0
H609 H 0.93702 0.21213 0.26292 0.0
H610 H 0.93376 0.17234 0.31899 0.0
H611 H 0.95331 0.13537 0.36157 0.0
H612 H 0.02704 0.122 0.30376 0.0
H613 H 0.02823 0.15894 0.23137 0.0
C614 C 0.99299 0.19138 0.22208 0.0
C615 C 0.97361 0.20736 0.22593 0.0
C616 C 0.99158 0.16892 0.25624 0.0
C617 C 0.95215 0.20003 0.25964 0.0
C618 C 0.95033 0.17737 0.29177 0.0
C619 C 0.96943 0.14037 0.33176 0.0
C620 C 0.99008 0.12619 0.33783 0.0
C621 C 0.97017 0.16196 0.29229 0.0
C622 C 1.01102 0.13285 0.29999 0.0
C623 C 1.01169 0.15392 0.25875 0.0
H624 H 0.37627 1.01292 0.19517 0.0
H625 H 0.35682 0.94236 0.27205 0.0
H626 H 0.39722 0.93655 0.31982 0.0
H627 H 0.43601 0.95378 0.35453 0.0
H628 H 0.45506 1.02465 0.27984 0.0
H629 H 0.41696 0.02789 0.21491 0.0
C630 C 0.38103 0.99599 0.22044 0.0
C631 C 0.36347 0.97822 0.23094 0.0
C632 C 0.40414 0.99293 0.24876 0.0
C633 C 0.36991 0.95649 0.26454 0.0
C634 C 0.393 0.95314 0.29176 0.0
C635 C 0.43211 0.96965 0.32231 0.0
C636 C 0.44816 0.98907 0.32265 0.0
C637 C 0.40999 0.97158 0.28647 0.0
C638 C 0.44278 1.00963 0.28126 0.0
C639 C 0.42102 1.01149 0.24421 0.0
H640 H 0.61049 0.33944 0.33129 0.0
H641 H 0.59202 0.37295 0.12482 0.0
H642 H 0.59544 0.41245 0.18225 0.0
H643 H 0.59811 0.43673 0.29501 0.0
H644 H 0.61696 0.40292 0.50066 0.0
H645 H 0.61933 0.36411 0.43885 0.0
C646 C 0.60799 0.35533 0.29791 0.0
C647 C 0.6007 0.35318 0.22401 0.0
C648 C 0.60973 0.3779 0.33138 0.0
C649 C 0.5972 0.37408 0.18221 0.0
C650 C 0.59918 0.39667 0.21498 0.0
C651 C 0.60341 0.42101 0.32596 0.0
C652 C 0.60694 0.42264 0.40261 0.0
C653 C 0.60456 0.39872 0.29021 0.0
C654 C 0.61361 0.40203 0.44192 0.0
C655 C 0.61504 0.37986 0.40661 0.0
H656 H 0.18734 0.53839 0.18879 0.0
H657 H 0.18671 0.47373 0.31913 0.0
H658 H 0.14667 0.48353 0.36483 0.0
H659 H 0.11471 0.51304 0.38025 0.0
H660 H 0.11553 0.57794 0.25111 0.0
H661 H 0.15266 0.56515 0.19104 0.0
C662 C 0.17821 0.52605 0.22549 0.0
C663 C 0.19011 0.5055 0.25123 0.0
C664 C 0.15538 0.53194 0.25217 0.0
C665 C 0.17809 0.48989 0.29959 0.0
C666 C 0.1552 0.49545 0.32558 0.0
C667 C 0.12256 0.52408 0.33731 0.0
C668 C 0.11251 0.54653 0.32063 0.0
C669 C 0.14406 0.51682 0.30412 0.0
C670 C 0.12314 0.56074 0.26564 0.0
C671 C 0.14435 0.55345 0.23136 0.0
H672 H 1.01928 0.87637 0.28405 0.0
H673 H 0.95005 0.8844 0.18267 0.0
H674 H 0.96187 0.92363 0.13454 0.0
H675 H 0.99395 0.95205 0.10509 0.0
H676 H 0.0639 0.94281 0.20092 0.0
H677 H 0.04967 0.9076 0.26816 0.0
C678 C 1.00651 0.88705 0.25345 0.0
C679 C 0.9839 0.87751 0.2364 0.0
C680 C 1.01373 0.90911 0.22394 0.0
C681 C 0.96764 0.89136 0.19582 0.0
C682 C 0.97442 0.9137 0.16813 0.0
C683 C 1.0059 0.94274 0.1423 0.0
C684 C 0.03001 0.94982 0.14747 0.0
C685 C 0.99776 0.92225 0.17929 0.0
C686 C 0.04536 0.93743 0.19523 0.0
C687 C 0.03723 0.91735 0.23369 0.0
H688 H 0.67718 1.02674 0.26203 0.0
H689 H 0.69631 0.10035 0.21748 0.0
H690 H 0.65574 0.10826 0.17472 0.0
H691 H 0.6172 0.09248 0.13211 0.0
H692 H 0.59809 1.01911 0.1788 0.0
H693 H 0.63623 1.01317 0.24141 0.0
C694 C 0.6724 0.04476 0.24536 0.0
C695 C 0.69003 0.06275 0.24127 0.0
C696 C 0.64908 0.0492 0.22091 0.0
C697 C 0.68334 0.08593 0.21893 0.0
C698 C 0.66009 0.09053 0.19489 0.0
C699 C 0.62101 0.07544 0.15819 0.0
C700 C 0.60511 0.05611 0.14958 0.0
C701 C 0.64313 0.07203 0.19285 0.0
C702 C 0.61033 0.0341 0.18344 0.0
C703 C 0.63213 0.03068 0.21905 0.0
H704 H 0.44499 0.69799 0.18667 0.0
H705 H 0.51628 0.68738 0.27158 0.0
H706 H 0.51806 0.648 0.21377 0.0
H707 H 0.50172 0.61918 0.12515 0.0
H708 H 0.43144 0.63056 0.03427 0.0
H709 H 0.42687 0.66698 0.10828 0.0
C710 C 0.46079 0.68691 0.19316 0.0
C711 C 0.48056 0.69573 0.23257 0.0
C712 C 0.46202 0.66458 0.15783 0.0
C713 C 0.50073 0.681 0.24195 0.0
C714 C 0.5019 0.65856 0.20818 0.0
C715 C 0.48535 0.62958 0.1221 0.0
C716 C 0.46711 0.62253 0.07362 0.0
C717 C 0.48303 0.65061 0.16378 0.0
C718 C 0.44573 0.63574 0.0712 0.0
C719 C 0.44317 0.6566 0.11316 0.0
H720 H 0.86346 0.49225 0.22889 0.0
H721 H 0.84843 0.42092 0.1495 0.0
H722 H 0.88725 0.41986 0.08635 0.0
H723 H 0.92315 0.44117 0.04235 0.0
H724 H 0.9371 0.51309 0.11878 0.0
H725 H 0.90098 0.51193 0.19508 0.0
C726 C 0.86896 0.47619 0.1996 0.0
C727 C 0.85313 0.45669 0.19375 0.0
C728 C 0.89091 0.47599 0.16202 0.0
C729 C 0.8603 0.43619 0.15435 0.0
C730 C 0.88243 0.43562 0.11812 0.0
C731 C 0.9185 0.45639 0.07685 0.0
C732 C 0.93256 0.47728 0.07442 0.0
C733 C 0.89753 0.45571 0.11972 0.0
C734 C 0.92628 0.49697 0.11886 0.0
C735 C 0.90571 0.49628 0.16265 0.0
H736 H 0.05632 0.17979 0.92623 0.0
H737 H 1.00717 0.20572 0.76156 0.0
H738 H 1.003 0.16526 0.71212 0.0
H739 H 1.01278 0.12204 0.71641 0.0
H740 H 0.06013 0.09619 0.88602 0.0
H741 H 0.06512 0.13682 0.93291 0.0
C742 C 0.04441 0.17666 0.88017 0.0
C743 C 0.03219 0.19608 0.84788 0.0
C744 C 0.04171 0.15318 0.85261 0.0
C745 C 1.01722 0.19141 0.78712 0.0
C746 C 1.01466 0.16815 0.75894 0.0
C747 C 1.02427 0.12532 0.76342 0.0
C748 C 0.03609 0.10597 0.79735 0.0
C749 C 0.02683 0.14886 0.79114 0.0
C750 C 0.05073 0.11062 0.85872 0.0
C751 C 0.05363 0.13392 0.8857 0.0
H752 H 0.36736 0.03811 0.78863 0.0
H753 H 0.38675 0.03748 1.01892 0.0
H754 H 0.42878 0.03308 0.98549 0.0
H755 H 0.46027 0.03037 0.89166 0.0
H756 H 0.4415 0.02923 0.66119 0.0
H757 H 0.39904 0.03296 0.69399 0.0
C758 C 0.38072 0.03671 0.83157 0.0
C759 C 0.37375 0.03852 0.90633 0.0
C760 C 0.40504 0.03389 0.81196 0.0
C761 C 0.39149 0.03678 0.96098 0.0
C762 C 0.41559 0.03409 0.94194 0.0
C763 C 0.44693 0.03095 0.84842 0.0
C764 C 0.45413 0.02974 0.77398 0.0
C765 C 0.4226 0.03291 0.8677 0.0
C766 C 0.4365 0.03016 0.7189 0.0
C767 C 0.4122 0.03233 0.73767 0.0
H768 H 0.53465 0.36506 0.80419 0.0
H769 H 0.49477 0.38537 0.99877 0.0
H770 H 0.49648 0.42734 0.96192 0.0
H771 H 0.50861 0.45831 0.87425 0.0
H772 H 0.54807 0.43872 0.67812 0.0
H773 H 0.54729 0.39665 0.71582 0.0
C774 C 0.52652 0.37872 0.83875 0.0
C775 C 0.51447 0.37196 0.90406 0.0
C776 C 0.52742 0.403 0.81685 0.0
C777 C 0.50386 0.38993 0.94781 0.0
C778 C 0.5049 0.414 0.92689 0.0
C779 C 0.51709 0.44492 0.83949 0.0
C780 C 0.52841 0.45187 0.77324 0.0
C781 C 0.51646 0.42073 0.86134 0.0
C782 C 0.53924 0.43406 0.72935 0.0
C783 C 0.5388 0.40992 0.75095 0.0
H784 H 0.19282 0.53684 0.77348 0.0
H785 H 0.17795 0.50294 0.98232 0.0
H786 H 0.13533 0.50151 0.95277 0.0
H787 H 0.10194 0.51048 0.86849 0.0
H788 H 0.11692 0.54449 0.65969 0.0
H789 H 0.15954 0.54534 0.68857 0.0
C790 C 0.18026 0.52925 0.81277 0.0
C791 C 0.18876 0.51999 0.88011 0.0
C792 C 0.15565 0.52849 0.79542 0.0
C793 C 0.17211 0.50993 0.92972 0.0
C794 C 0.14764 0.50922 0.91301 0.0
C795 C 0.1145 0.51801 0.82908 0.0
C796 C 0.10602 0.52743 0.76189 0.0
C797 C 0.13916 0.51847 0.84606 0.0
C798 C 0.12274 0.53709 0.71179 0.0
C799 C 0.14721 0.53763 0.72831 0.0
H800 H 1.0117 0.88569 0.50642 0.0
H801 H 0.0449 0.85682 0.70135 0.0
H802 H 0.04557 0.89669 0.75722 0.0
H803 H 0.03763 0.94027 0.74976 0.0
H804 H 1.00508 0.96871 0.5529 0.0
H805 H 1.00354 0.92878 0.49923 0.0
C806 C 1.01926 0.88809 0.56091 0.0
C807 C 0.02823 0.86811 0.59934 0.0
C808 C 1.01976 0.91115 0.59269 0.0
C809 C 0.03757 0.87169 0.67057 0.0
C810 C 0.0381 0.89458 0.70254 0.0
C811 C 0.03008 0.93772 0.69532 0.0
C812 C 1.02152 0.95766 0.65575 0.0
C813 C 0.0293 0.91451 0.66408 0.0
C814 C 1.01187 0.95387 0.585 0.0
C815 C 1.01097 0.93095 0.55397 0.0
H816 H 0.69377 1.01257 0.69412 0.0
H817 H 0.68003 1.02199 0.46221 0.0
H818 H 0.63701 1.02437 0.48692 0.0
H819 H 0.60313 1.02355 0.5744 0.0
H820 H 0.61687 1.01651 0.8072 0.0
H821 H 0.65986 1.01338 0.78239 0.0
C822 C 0.68131 1.0151 0.6491 0.0
C823 C 0.6901 1.01703 0.5764 0.0
C824 C 0.65656 1.01684 0.6639 0.0
C825 C 0.67376 1.0206 0.51868 0.0
C826 C 0.64914 1.02187 0.53276 0.0
C827 C 0.61553 1.02124 0.61969 0.0
C828 C 0.60674 1.02007 0.69254 0.0
C829 C 0.64031 1.01996 0.60511 0.0
C830 C 0.62312 1.01746 0.75064 0.0
C831 C 0.64773 1.01564 0.73646 0.0
H832 H 0.55296 0.67816 0.52725 0.0
H833 H 0.50258 0.70113 0.69364 0.0
H834 H 0.49875 0.65981 0.7377 0.0
H835 H 0.5099 0.61662 0.72876 0.0
H836 H 0.56007 0.59478 0.55965 0.0
H837 H 0.56396 0.63591 0.51827 0.0
C838 C 0.54129 0.67422 0.57363 0.0
C839 C 0.52819 0.69288 0.60708 0.0
C840 C 0.53914 0.65044 0.5986 0.0
C841 C 0.51277 0.68719 0.66623 0.0
C842 C 0.51067 0.66353 0.6918 0.0
C843 C 0.52174 0.62092 0.68313 0.0
C844 C 0.5346 0.60241 0.64753 0.0
C845 C 0.52379 0.64492 0.65845 0.0
C846 C 0.54978 0.60843 0.58811 0.0
C847 C 0.55209 0.63206 0.56419 0.0
H848 H 0.88409 0.54617 0.49327 0.0
H849 H 0.85742 0.50122 0.66857 0.0
H850 H 0.89741 0.49974 0.72293 0.0
H851 H 0.94072 0.51091 0.71982 0.0
H852 H 0.96631 0.55512 0.54071 0.0
H853 H 0.9264 0.55683 0.48927 0.0
C854 C 0.88697 0.53573 0.54282 0.0
C855 C 0.86754 0.52378 0.5762 0.0
C856 C 0.91007 0.5348 0.57362 0.0
C857 C 0.87182 0.51086 0.64161 0.0
C858 C 0.89481 0.5099 0.67274 0.0
C859 C 0.93751 0.52098 0.66976 0.0
C860 C 0.95677 0.53278 0.63448 0.0
C861 C 0.91417 0.52183 0.6393 0.0
C862 C 0.9521 0.54568 0.56932 0.0
C863 C 0.92916 0.54673 0.53952 0.0
loop_
_geom_bond_atom_site_label_1
_geom_bond_atom_site_label_2
_geom_bond_distance
_geom_bond_site_symmetry_2
_ccdc_geom_bond_type
C0 C1 1.264 . S
C0 C5 1.479 . S
C0 C10 1.465 . S
C1 C0 1.264 . S
C1 C3 1.339 . S
C1 H28 0.931 . S
C2 C3 1.395 . S
C2 C4 1.320 . S
C3 C1 1.339 . S
C3 C2 1.395 . S
C3 H29 0.929 . S
C4 C2 1.320 . S
C4 C5 1.405 . S
C4 H30 0.930 . S
C5 C0 1.479 . S
C5 C4 1.405 . S
C5 H31 0.931 . S
U6 O7 2.454 . S
U6 O8 2.458 . S
U6 C9 2.984 . S
U6 C10 2.847 . S
U6 C23 2.882 . S
U6 O24 2.441 . S
U6 O25 2.420 . S
U6 O26 2.455 . S
U6 O27 2.449 . S
O7 U6 2.454 . S
O7 C9 1.353 . S
O8 U6 2.458 . S
O8 C9 1.286 . S
C9 U6 2.984 . S
C9 O7 1.353 . S
C9 O8 1.286 . S
C9 C11 1.363 . S
C10 C0 1.465 . S
C10 U6 2.847 . S
C10 O24 1.249 . S
C10 O25 1.202 . S
C11 C9 1.363 . S
C11 C13 1.408 . S
C11 C16 1.342 . S
C12 C13 1.310 . S
C12 C15 1.461 . S
C12 H32 0.932 . S
C13 C11 1.408 . S
C13 C12 1.310 . S
C13 H33 0.930 . S
C14 C15 1.474 . S
C14 C16 1.285 . S
C14 H34 0.929 . S
C15 C12 1.461 . S
C15 C14 1.474 . S
C16 C11 1.342 . S
C16 C14 1.285 . S
C16 H35 0.930 . S
C17 C20 1.424 . S
C17 C22 1.245 . S
C17 C23 1.428 . S
C18 C21 1.260 . S
C18 C22 1.477 . S
C18 H36 0.932 . S
C19 C20 1.384 . S
C19 C21 1.479 . S
C19 H37 0.929 . S
C20 C17 1.424 . S
C20 C19 1.384 . S
C20 H38 0.928 . S
C21 C18 1.260 . S
C21 C19 1.479 . S
C22 C17 1.245 . S
C22 C18 1.477 . S
C22 H39 0.932 . S
C23 U6 2.882 . S
C23 C17 1.428 . S
C23 O26 1.301 . S
C23 O27 1.282 . S
O24 U6 2.441 . S
O24 C10 1.249 . S
O25 U6 2.420 . S
O25 C10 1.202 . S
O26 U6 2.455 . S
O26 C23 1.301 . S
O27 U6 2.449 . S
O27 C23 1.282 . S
H28 C1 0.931 . S
H29 C3 0.929 . S
H30 C4 0.930 . S
H31 C5 0.931 . S
H32 C12 0.932 . S
H33 C13 0.930 . S
H34 C14 0.929 . S
H35 C16 0.930 . S
H36 C18 0.932 . S
H37 C19 0.929 . S
H38 C20 0.928 . S
H39 C22 0.932 . S
C40 C41 1.264 . S
C40 C45 1.479 . S
C40 C50 1.465 . S
C41 C40 1.264 . S
C41 C43 1.339 . S
C41 H68 0.931 . S
C42 C43 1.395 . S
C42 C44 1.320 . S
C43 C41 1.339 . S
C43 C42 1.395 . S
C43 H69 0.929 . S
C44 C42 1.320 . S
C44 C45 1.405 . S
C44 H70 0.921 1_455 S
C45 C40 1.479 . S
C45 C44 1.405 . S
C45 H71 0.931 . S
U46 O47 2.454 . S
U46 O48 2.458 . S
U46 C49 2.984 . S
U46 C50 2.847 . S
U46 C63 2.882 . S
U46 O64 2.441 . S
U46 O65 2.420 . S
U46 O66 2.455 . S
U46 O67 2.449 . S
O47 U46 2.454 . S
O47 C49 1.353 . S
O48 U46 2.458 . S
O48 C49 1.286 . S
C49 U46 2.984 . S
C49 O47 1.353 . S
C49 O48 1.286 . S
C49 C51 1.363 . S
C50 C40 1.465 . S
C50 U46 2.847 . S
C50 O64 1.249 . S
C50 O65 1.202 . S
C51 C49 1.363 . S
C51 C53 1.408 . S
C51 C56 1.342 . S
C52 C53 1.310 . S
C52 C55 1.461 . S
C52 H72 0.932 . S
C53 C51 1.408 . S
C53 C52 1.310 . S
C53 H73 0.930 . S
C54 C55 1.474 1_655 S
C54 C56 1.285 1_655 S
C54 H74 0.930 . S
C55 C52 1.461 . S
C55 C54 1.474 1_455 S
C56 C51 1.342 . S
C56 C54 1.285 1_455 S
C56 H75 0.933 . S
C57 C60 1.424 . S
C57 C62 1.245 . S
C57 C63 1.428 . S
C58 C61 1.260 . S
C58 C62 1.477 . S
C58 H76 0.932 . S
C59 C60 1.384 . S
C59 C61 1.479 . S
C59 H77 0.929 . S
C60 C57 1.424 . S
C60 C59 1.384 . S
C60 H78 0.928 . S
C61 C58 1.260 . S
C61 C59 1.479 . S
C62 C57 1.245 . S
C62 C58 1.477 . S
C62 H79 0.932 . S
C63 U46 2.882 . S
C63 C57 1.428 . S
C63 O66 1.301 . S
C63 O67 1.282 . S
O64 U46 2.441 . S
O64 C50 1.249 . S
O65 U46 2.420 . S
O65 C50 1.202 . S
O66 U46 2.455 . S
O66 C63 1.301 . S
O67 U46 2.449 . S
O67 C63 1.282 . S
H68 C41 0.931 . S
H69 C43 0.929 . S
H70 C44 0.921 1_655 S
H71 C45 0.931 . S
H72 C52 0.932 . S
H73 C53 0.930 . S
H74 C54 0.930 . S
H75 C56 0.933 . S
H76 C58 0.932 . S
H77 C59 0.929 . S
H78 C60 0.928 . S
H79 C62 0.932 . S
C80 C81 1.264 . S
C80 C85 1.479 . S
C80 C90 1.465 . S
C81 C80 1.264 . S
C81 C83 1.339 . S
C81 H108 0.931 . S
C82 C83 1.395 . S
C82 C84 1.320 . S
C83 C81 1.339 . S
C83 C82 1.395 . S
C83 H109 0.929 . S
C84 C82 1.320 . S
C84 C85 1.405 . S
C84 H110 0.921 1_545 S
C85 C80 1.479 . S
C85 C84 1.405 . S
C85 H111 0.931 . S
U86 O87 2.454 . S
U86 O88 2.458 . S
U86 C89 2.984 . S
U86 C90 2.847 . S
U86 C103 2.882 . S
U86 O104 2.441 . S
U86 O105 2.420 . S
U86 O106 2.455 . S
U86 O107 2.449 . S
O87 U86 2.454 . S
O87 C89 1.353 . S
O88 U86 2.458 . S
O88 C89 1.286 . S
C89 U86 2.984 . S
C89 O87 1.353 . S
C89 O88 1.286 . S
C89 C91 1.363 . S
C90 C80 1.465 . S
C90 U86 2.847 . S
C90 O104 1.249 . S
C90 O105 1.202 . S
C91 C89 1.363 . S
C91 C93 1.408 . S
C91 C96 1.342 . S
C92 C93 1.310 . S
C92 C95 1.461 . S
C92 H112 0.932 . S
C93 C91 1.408 . S
C93 C92 1.310 . S
C93 H113 0.930 . S
C94 C95 1.474 1_565 S
C94 C96 1.285 1_565 S
C94 H114 0.931 . S
C95 C92 1.461 . S
C95 C94 1.474 1_545 S
C96 C91 1.342 . S
C96 C94 1.285 1_545 S
C96 H115 0.933 . S
C97 C100 1.424 . S
C97 C102 1.245 . S
C97 C103 1.428 . S
C98 C101 1.260 . S
C98 C102 1.477 . S
C98 H116 0.932 . S
C99 C100 1.384 . S
C99 C101 1.479 . S
C99 H117 0.929 . S
C100 C97 1.424 . S
C100 C99 1.384 . S
C100 H118 0.928 . S
C101 C98 1.260 . S
C101 C99 1.479 . S
C102 C97 1.245 . S
C102 C98 1.477 . S
C102 H119 0.932 . S
C103 U86 2.882 . S
C103 C97 1.428 . S
C103 O106 1.301 . S
C103 O107 1.282 . S
O104 U86 2.441 . S
O104 C90 1.249 . S
O105 U86 2.420 . S
O105 C90 1.202 . S
O106 U86 2.455 . S
O106 C103 1.301 . S
O107 U86 2.449 . S
O107 C103 1.282 . S
H108 C81 0.931 . S
H109 C83 0.929 . S
H110 C84 0.921 1_565 S
H111 C85 0.931 . S
H112 C92 0.932 . S
H113 C93 0.930 . S
H114 C94 0.931 . S
H115 C96 0.933 . S
H116 C98 0.932 . S
H117 C99 0.929 . S
H118 C100 0.928 . S
H119 C102 0.932 . S
C120 C121 1.264 . S
C120 C125 1.479 . S
C120 C130 1.465 . S
C121 C120 1.264 . S
C121 C123 1.339 . S
C121 H148 0.931 . S
C122 C123 1.395 . S
C122 C124 1.320 . S
C123 C121 1.339 . S
C123 C122 1.395 . S
C123 H149 0.929 . S
C124 C122 1.320 . S
C124 C125 1.405 . S
C124 H150 0.930 . S
C125 C120 1.479 . S
C125 C124 1.405 . S
C125 H151 0.931 . S
U126 O127 2.454 . S
U126 O128 2.458 . S
U126 C129 2.984 . S
U126 C130 2.847 . S
U126 C143 2.882 . S
U126 O144 2.441 . S
U126 O145 2.420 . S
U126 O146 2.455 . S
U126 O147 2.449 . S
O127 U126 2.454 . S
O127 C129 1.353 . S
O128 U126 2.458 . S
O128 C129 1.286 . S
C129 U126 2.984 . S
C129 O127 1.353 . S
C129 O128 1.286 . S
C129 C131 1.363 . S
C130 C120 1.465 . S
C130 U126 2.847 . S
C130 O144 1.249 . S
C130 O145 1.202 . S
C131 C129 1.363 . S
C131 C133 1.408 . S
C131 C136 1.342 . S
C132 C133 1.310 . S
C132 C135 1.461 . S
C132 H152 0.932 . S
C133 C131 1.408 . S
C133 C132 1.310 . S
C133 H153 0.930 . S
C134 C135 1.474 . S
C134 C136 1.285 . S
C134 H154 0.929 . S
C135 C132 1.461 . S
C135 C134 1.474 . S
C136 C131 1.342 . S
C136 C134 1.285 . S
C136 H155 0.930 . S
C137 C140 1.424 . S
C137 C142 1.245 . S
C137 C143 1.428 . S
C138 C141 1.260 . S
C138 C142 1.477 . S
C138 H156 0.932 . S
C139 C140 1.384 . S
C139 C141 1.479 . S
C139 H157 0.929 . S
C140 C137 1.424 . S
C140 C139 1.384 . S
C140 H158 0.928 . S
C141 C138 1.260 . S
C141 C139 1.479 . S
C142 C137 1.245 . S
C142 C138 1.477 . S
C142 H159 0.932 . S
C143 U126 2.882 . S
C143 C137 1.428 . S
C143 O146 1.301 . S
C143 O147 1.282 . S
O144 U126 2.441 . S
O144 C130 1.249 . S
O145 U126 2.420 . S
O145 C130 1.202 . S
O146 U126 2.455 . S
O146 C143 1.301 . S
O147 U126 2.449 . S
O147 C143 1.282 . S
H148 C121 0.931 . S
H149 C123 0.929 . S
H150 C124 0.930 . S
H151 C125 0.931 . S
H152 C132 0.932 . S
H153 C133 0.930 . S
H154 C134 0.929 . S
H155 C136 0.930 . S
H156 C138 0.932 . S
H157 C139 0.929 . S
H158 C140 0.928 . S
H159 C142 0.932 . S
C160 C161 1.264 . S
C160 C165 1.479 . S
C160 C170 1.465 . S
C161 C160 1.264 . S
C161 C163 1.339 . S
C161 H188 0.931 . S
C162 C163 1.395 . S
C162 C164 1.320 . S
C163 C161 1.339 . S
C163 C162 1.395 . S
C163 H189 0.929 . S
C164 C162 1.320 . S
C164 C165 1.405 . S
C164 H190 0.930 . S
C165 C160 1.479 . S
C165 C164 1.405 . S
C165 H191 0.931 . S
U166 O167 2.454 . S
U166 O168 2.458 . S
U166 C169 2.984 . S
U166 C170 2.847 1_554 S
U166 C183 2.882 . S
U166 O184 2.441 1_554 S
U166 O185 2.420 1_554 S
U166 O186 2.455 . S
U166 O187 2.449 . S
O167 U166 2.454 . S
O167 C169 1.353 . S
O168 U166 2.458 . S
O168 C169 1.286 . S
C169 U166 2.984 . S
C169 O167 1.353 . S
C169 O168 1.286 . S
C169 C171 1.363 . S
C170 C160 1.465 . S
C170 U166 2.847 1_556 S
C170 O184 1.249 . S
C170 O185 1.202 . S
C171 C169 1.363 . S
C171 C173 1.408 . S
C171 C176 1.342 . S
C172 C173 1.310 . S
C172 C175 1.461 . S
C172 H192 0.932 . S
C173 C171 1.408 . S
C173 C172 1.310 . S
C173 H193 0.930 . S
C174 C175 1.474 . S
C174 C176 1.285 . S
C174 H194 0.929 . S
C175 C172 1.461 . S
C175 C174 1.474 . S
C176 C171 1.342 . S
C176 C174 1.285 . S
C176 H195 0.930 . S
C177 C180 1.424 . S
C177 C182 1.245 . S
C177 C183 1.428 . S
C178 C181 1.260 . S
C178 C182 1.477 . S
C178 H196 0.932 . S
C179 C180 1.384 . S
C179 C181 1.479 . S
C179 H197 0.929 . S
C180 C177 1.424 . S
C180 C179 1.384 . S
C180 H198 0.928 . S
C181 C178 1.260 . S
C181 C179 1.479 . S
C182 C177 1.245 . S
C182 C178 1.477 . S
C182 H199 0.932 . S
C183 U166 2.882 . S
C183 C177 1.428 . S
C183 O186 1.301 . S
C183 O187 1.282 . S
O184 U166 2.441 1_556 S
O184 C170 1.249 . S
O185 U166 2.420 1_556 S
O185 C170 1.202 . S
O186 U166 2.455 . S
O186 C183 1.301 . S
O187 U166 2.449 . S
O187 C183 1.282 . S
H188 C161 0.931 . S
H189 C163 0.929 . S
H190 C164 0.930 . S
H191 C165 0.931 . S
H192 C172 0.932 . S
H193 C173 0.930 . S
H194 C174 0.929 . S
H195 C176 0.930 . S
H196 C178 0.932 . S
H197 C179 0.929 . S
H198 C180 0.928 . S
H199 C182 0.932 . S
C200 C201 1.264 . S
C200 C205 1.479 . S
C200 C210 1.465 . S
C201 C200 1.264 . S
C201 C203 1.339 . S
C201 H228 0.931 . S
C202 C203 1.395 . S
C202 C204 1.320 . S
C203 C201 1.339 . S
C203 C202 1.395 . S
C203 H229 0.929 . S
C204 C202 1.320 . S
C204 C205 1.405 . S
C204 H230 0.923 1_455 S
C205 C200 1.479 . S
C205 C204 1.405 . S
C205 H231 0.931 . S
U206 O207 2.454 . S
U206 O208 2.458 . S
U206 C209 2.984 . S
U206 C210 2.847 1_554 S
U206 C223 2.882 . S
U206 O224 2.441 1_554 S
U206 O225 2.420 1_554 S
U206 O226 2.455 . S
U206 O227 2.449 . S
O207 U206 2.454 . S
O207 C209 1.353 . S
O208 U206 2.458 . S
O208 C209 1.286 . S
C209 U206 2.984 . S
C209 O207 1.353 . S
C209 O208 1.286 . S
C209 C211 1.363 . S
C210 C200 1.465 . S
C210 U206 2.847 1_556 S
C210 O224 1.249 . S
C210 O225 1.202 . S
C211 C209 1.363 . S
C211 C213 1.408 . S
C211 C216 1.342 . S
C212 C213 1.310 . S
C212 C215 1.462 . S
C212 H232 0.932 . S
C213 C211 1.408 . S
C213 C212 1.310 . S
C213 H233 0.930 . S
C214 C215 1.474 1_655 S
C214 C216 1.286 1_655 S
C214 H234 0.929 . S
C215 C212 1.462 . S
C215 C214 1.474 1_455 S
C216 C211 1.342 . S
C216 C214 1.286 1_455 S
C216 H235 0.933 . S
C217 C220 1.424 . S
C217 C222 1.245 . S
C217 C223 1.428 . S
C218 C221 1.260 . S
C218 C222 1.477 . S
C218 H236 0.932 . S
C219 C220 1.384 . S
C219 C221 1.479 . S
C219 H237 0.929 . S
C220 C217 1.424 . S
C220 C219 1.384 . S
C220 H238 0.928 . S
C221 C218 1.260 . S
C221 C219 1.479 . S
C222 C217 1.245 . S
C222 C218 1.477 . S
C222 H239 0.932 . S
C223 U206 2.882 . S
C223 C217 1.428 . S
C223 O226 1.301 . S
C223 O227 1.282 . S
O224 U206 2.441 1_556 S
O224 C210 1.249 . S
O225 U206 2.420 1_556 S
O225 C210 1.202 . S
O226 U206 2.455 . S
O226 C223 1.301 . S
O227 U206 2.449 . S
O227 C223 1.282 . S
H228 C201 0.931 . S
H229 C203 0.929 . S
H230 C204 0.923 1_655 S
H231 C205 0.931 . S
H232 C212 0.932 . S
H233 C213 0.930 . S
H234 C214 0.929 . S
H235 C216 0.933 . S
H236 C218 0.932 . S
H237 C219 0.929 . S
H238 C220 0.928 . S
H239 C222 0.932 . S
C240 C241 1.264 . S
C240 C245 1.479 . S
C240 C250 1.465 . S
C241 C240 1.264 . S
C241 C243 1.339 . S
C241 H268 0.931 . S
C242 C243 1.395 . S
C242 C244 1.320 . S
C243 C241 1.339 . S
C243 C242 1.395 . S
C243 H269 0.929 . S
C244 C242 1.320 . S
C244 C245 1.405 . S
C244 H270 0.923 1_545 S
C245 C240 1.479 . S
C245 C244 1.405 . S
C245 H271 0.931 . S
U246 O247 2.454 . S
U246 O248 2.458 . S
U246 C249 2.984 . S
U246 C250 2.847 1_554 S
U246 C263 2.882 . S
U246 O264 2.441 1_554 S
U246 O265 2.420 1_554 S
U246 O266 2.455 . S
U246 O267 2.449 . S
O247 U246 2.454 . S
O247 C249 1.353 . S
O248 U246 2.458 . S
O248 C249 1.286 . S
C249 U246 2.984 . S
C249 O247 1.353 . S
C249 O248 1.286 . S
C249 C251 1.363 . S
C250 C240 1.465 . S
C250 U246 2.847 1_556 S
C250 O264 1.249 . S
C250 O265 1.202 . S
C251 C249 1.363 . S
C251 C253 1.408 . S
C251 C256 1.342 . S
C252 C253 1.310 . S
C252 C255 1.462 . S
C252 H272 0.932 . S
C253 C251 1.408 . S
C253 C252 1.310 . S
C253 H273 0.930 . S
C254 C255 1.474 1_565 S
C254 C256 1.286 1_565 S
C254 H274 0.929 . S
C255 C252 1.462 . S
C255 C254 1.474 1_545 S
C256 C251 1.342 . S
C256 C254 1.286 1_545 S
C256 H275 0.933 . S
C257 C260 1.424 . S
C257 C262 1.245 . S
C257 C263 1.428 . S
C258 C261 1.260 . S
C258 C262 1.477 . S
C258 H276 0.932 . S
C259 C260 1.384 . S
C259 C261 1.479 . S
C259 H277 0.929 . S
C260 C257 1.424 . S
C260 C259 1.384 . S
C260 H278 0.928 . S
C261 C258 1.260 . S
C261 C259 1.479 . S
C262 C257 1.245 . S
C262 C258 1.477 . S
C262 H279 0.932 . S
C263 U246 2.882 . S
C263 C257 1.428 . S
C263 O266 1.301 . S
C263 O267 1.282 . S
O264 U246 2.441 1_556 S
O264 C250 1.249 . S
O265 U246 2.420 1_556 S
O265 C250 1.202 . S
O266 U246 2.455 . S
O266 C263 1.301 . S
O267 U246 2.449 . S
O267 C263 1.282 . S
H268 C241 0.931 . S
H269 C243 0.929 . S
H270 C244 0.923 1_565 S
H271 C245 0.931 . S
H272 C252 0.932 . S
H273 C253 0.930 . S
H274 C254 0.929 . S
H275 C256 0.933 . S
H276 C258 0.932 . S
H277 C259 0.929 . S
H278 C260 0.928 . S
H279 C262 0.932 . S
C280 C281 1.264 . S
C280 C285 1.479 . S
C280 C290 1.465 . S
C281 C280 1.264 . S
C281 C283 1.339 . S
C281 H308 0.931 . S
C282 C283 1.395 . S
C282 C284 1.320 . S
C283 C281 1.339 . S
C283 C282 1.395 . S
C283 H309 0.929 . S
C284 C282 1.320 . S
C284 C285 1.405 . S
C284 H310 0.930 . S
C285 C280 1.479 . S
C285 C284 1.405 . S
C285 H311 0.931 . S
U286 O287 2.454 . S
U286 O288 2.458 . S
U286 C289 2.984 . S
U286 C290 2.847 1_554 S
U286 C303 2.882 . S
U286 O304 2.441 1_554 S
U286 O305 2.420 1_554 S
U286 O306 2.455 . S
U286 O307 2.449 . S
O287 U286 2.454 . S
O287 C289 1.353 . S
O288 U286 2.458 . S
O288 C289 1.286 . S
C289 U286 2.984 . S
C289 O287 1.353 . S
C289 O288 1.286 . S
C289 C291 1.363 . S
C290 C280 1.465 . S
C290 U286 2.847 1_556 S
C290 O304 1.249 . S
C290 O305 1.202 . S
C291 C289 1.363 . S
C291 C293 1.408 . S
C291 C296 1.342 . S
C292 C293 1.310 . S
C292 C295 1.461 . S
C292 H312 0.932 . S
C293 C291 1.408 . S
C293 C292 1.310 . S
C293 H313 0.930 . S
C294 C295 1.474 . S
C294 C296 1.285 . S
C294 H314 0.929 . S
C295 C292 1.461 . S
C295 C294 1.474 . S
C296 C291 1.342 . S
C296 C294 1.285 . S
C296 H315 0.930 . S
C297 C300 1.424 . S
C297 C302 1.245 . S
C297 C303 1.428 . S
C298 C301 1.260 . S
C298 C302 1.477 . S
C298 H316 0.932 . S
C299 C300 1.384 . S
C299 C301 1.479 . S
C299 H317 0.929 . S
C300 C297 1.424 . S
C300 C299 1.384 . S
C300 H318 0.928 . S
C301 C298 1.260 . S
C301 C299 1.479 . S
C302 C297 1.245 . S
C302 C298 1.477 . S
C302 H319 0.932 . S
C303 U286 2.882 . S
C303 C297 1.428 . S
C303 O306 1.301 . S
C303 O307 1.282 . S
O304 U286 2.441 1_556 S
O304 C290 1.249 . S
O305 U286 2.420 1_556 S
O305 C290 1.202 . S
O306 U286 2.455 . S
O306 C303 1.301 . S
O307 U286 2.449 . S
O307 C303 1.282 . S
H308 C281 0.931 . S
H309 C283 0.929 . S
H310 C284 0.930 . S
H311 C285 0.931 . S
H312 C292 0.932 . S
H313 C293 0.930 . S
H314 C294 0.929 . S
H315 C296 0.930 . S
H316 C298 0.932 . S
H317 C299 0.929 . S
H318 C300 0.928 . S
H319 C302 0.932 . S
C320 Eu321 2.835 . S
C320 C322 1.500 . S
C320 O340 1.257 . S
C320 O341 1.260 . S
Eu321 C320 2.835 . S
Eu321 O340 2.473 . S
Eu321 O341 2.480 . S
Eu321 O342 2.430 . S
Eu321 O343 2.670 1_545 S
Eu321 O344 2.394 . S
Eu321 O349 2.355 1_655 S
Eu321 O351 2.374 1_545 S
C322 C320 1.500 . S
C322 C323 1.377 . S
C322 C327 1.377 . S
C323 C322 1.377 . S
C323 C324 1.395 . S
C323 H352 0.931 . S
C324 C323 1.395 . S
C324 C325 1.383 . S
C324 H353 0.931 . S
C325 C324 1.383 . S
C325 C326 1.394 . S
C326 C325 1.394 . S
C326 C327 1.378 . S
C326 H354 0.931 1_655 S
C327 C322 1.377 . S
C327 C326 1.378 . S
C327 H355 0.931 1_655 S
C328 O342 1.259 . S
C328 O343 1.270 1_545 S
C329 O344 1.251 1_455 S
C329 O345 1.251 . S
C330 Eu331 2.835 . S
C330 C332 1.500 . S
C330 O346 1.257 . S
C330 O347 1.260 . S
Eu331 C330 2.835 . S
Eu331 O343 2.355 1_455 S
Eu331 O345 2.374 1_565 S
Eu331 O346 2.473 . S
Eu331 O347 2.480 . S
Eu331 O348 2.430 . S
Eu331 O349 2.670 1_565 S
Eu331 O350 2.394 . S
C332 C330 1.500 . S
C332 C333 1.377 . S
C332 C337 1.377 . S
C333 C332 1.377 . S
C333 C334 1.395 . S
C333 H356 0.931 . S
C334 C333 1.395 . S
C334 C335 1.383 . S
C334 H357 0.931 . S
C335 C334 1.383 . S
C335 C336 1.394 . S
C336 C335 1.394 . S
C336 C337 1.378 . S
C336 H358 0.931 1_455 S
C337 C332 1.377 . S
C337 C336 1.378 . S
C337 H359 0.931 1_455 S
C338 O348 1.280 . S
C338 O349 1.255 1_565 S
C339 O350 1.251 1_655 S
C339 O351 1.251 . S
O340 C320 1.257 . S
O340 Eu321 2.473 . S
O341 C320 1.260 . S
O341 Eu321 2.480 . S
O342 Eu321 2.430 . S
O342 C328 1.259 . S
O343 Eu321 2.670 1_565 S
O343 C328 1.270 1_565 S
O343 Eu331 2.355 1_655 S
O344 Eu321 2.394 . S
O344 C329 1.251 1_655 S
O345 C329 1.251 . S
O345 Eu331 2.374 1_545 S
O346 C330 1.257 . S
O346 Eu331 2.473 . S
O347 C330 1.260 . S
O347 Eu331 2.480 . S
O348 Eu331 2.430 . S
O348 C338 1.280 . S
O349 Eu321 2.355 1_455 S
O349 Eu331 2.670 1_545 S
O349 C338 1.255 1_545 S
O350 Eu331 2.394 . S
O350 C339 1.251 1_455 S
O351 Eu321 2.374 1_565 S
O351 C339 1.251 . S
H352 C323 0.931 . S
H353 C324 0.931 . S
H354 C326 0.931 1_455 S
H355 C327 0.931 1_455 S
H356 C333 0.931 . S
H357 C334 0.931 . S
H358 C336 0.931 1_655 S
H359 C337 0.931 1_655 S
C360 Eu361 2.835 . S
C360 C362 1.500 . S
C360 O380 1.257 . S
C360 O381 1.260 . S
Eu361 C360 2.835 . S
Eu361 O380 2.473 . S
Eu361 O381 2.480 . S
Eu361 O382 2.430 . S
Eu361 O383 2.670 . S
Eu361 O384 2.394 . S
Eu361 O389 2.355 1_565 S
Eu361 O391 2.374 . S
C362 C360 1.500 . S
C362 C363 1.377 . S
C362 C367 1.377 . S
C363 C362 1.377 . S
C363 C364 1.395 . S
C363 H392 0.931 . S
C364 C363 1.395 . S
C364 C365 1.383 . S
C364 H393 0.931 . S
C365 C364 1.383 . S
C365 C366 1.394 . S
C366 C365 1.394 . S
C366 C367 1.378 . S
C366 H394 0.931 1_565 S
C367 C362 1.377 . S
C367 C366 1.378 . S
C367 H395 0.931 1_565 S
C368 O382 1.259 . S
C368 O383 1.270 . S
C369 O384 1.251 1_545 S
C369 O385 1.251 . S
C370 Eu371 2.835 . S
C370 C372 1.500 . S
C370 O386 1.257 . S
C370 O387 1.260 . S
Eu371 C370 2.835 . S
Eu371 O383 2.355 1_545 S
Eu371 O385 2.374 . S
Eu371 O386 2.473 . S
Eu371 O387 2.480 . S
Eu371 O388 2.430 . S
Eu371 O389 2.670 . S
Eu371 O390 2.394 . S
C372 C370 1.500 . S
C372 C373 1.377 . S
C372 C377 1.377 . S
C373 C372 1.377 . S
C373 C374 1.395 . S
C373 H396 0.931 . S
C374 C373 1.395 . S
C374 C375 1.383 . S
C374 H397 0.931 . S
C375 C374 1.383 . S
C375 C376 1.394 . S
C376 C375 1.394 . S
C376 C377 1.378 . S
C376 H398 0.931 1_545 S
C377 C372 1.377 . S
C377 C376 1.378 . S
C377 H399 0.931 1_545 S
C378 O388 1.259 . S
C378 O389 1.270 . S
C379 O390 1.251 1_565 S
C379 O391 1.251 . S
O380 C360 1.257 . S
O380 Eu361 2.473 . S
O381 C360 1.260 . S
O381 Eu361 2.480 . S
O382 Eu361 2.430 . S
O382 C368 1.259 . S
O383 Eu361 2.670 . S
O383 C368 1.270 . S
O383 Eu371 2.355 1_565 S
O384 Eu361 2.394 . S
O384 C369 1.251 1_565 S
O385 C369 1.251 . S
O385 Eu371 2.374 . S
O386 C370 1.257 . S
O386 Eu371 2.473 . S
O387 C370 1.260 . S
O387 Eu371 2.480 . S
O388 Eu371 2.430 . S
O388 C378 1.259 . S
O389 Eu361 2.355 1_545 S
O389 Eu371 2.670 . S
O389 C378 1.270 . S
O390 Eu371 2.394 . S
O390 C379 1.251 1_545 S
O391 Eu361 2.374 . S
O391 C379 1.251 . S
H392 C363 0.931 . S
H393 C364 0.931 . S
H394 C366 0.931 1_545 S
H395 C367 0.931 1_545 S
H396 C373 0.931 . S
H397 C374 0.931 . S
H398 C376 0.931 1_565 S
H399 C377 0.931 1_565 S
C400 Eu401 2.835 . S
C400 C402 1.500 . S
C400 O420 1.257 . S
C400 O421 1.260 . S
Eu401 C400 2.835 . S
Eu401 O420 2.473 . S
Eu401 O421 2.480 . S
Eu401 O422 2.430 . S
Eu401 O423 2.670 . S
Eu401 O424 2.394 . S
Eu401 O429 2.355 . S
Eu401 O431 2.374 . S
C402 C400 1.500 . S
C402 C403 1.377 . S
C402 C407 1.377 . S
C403 C402 1.377 . S
C403 C404 1.395 . S
C403 H432 0.931 . S
C404 C403 1.395 . S
C404 C405 1.383 . S
C404 H433 0.931 . S
C405 C404 1.383 . S
C405 C406 1.394 . S
C406 C405 1.394 . S
C406 C407 1.378 . S
C406 H434 0.931 . S
C407 C402 1.377 . S
C407 C406 1.378 . S
C407 H435 0.931 . S
C408 O422 1.259 . S
C408 O423 1.270 . S
C409 O424 1.251 . S
C409 O425 1.251 . S
C410 Eu411 2.835 . S
C410 C412 1.500 . S
C410 O426 1.257 . S
C410 O427 1.260 . S
Eu411 C410 2.835 . S
Eu411 O423 2.355 . S
Eu411 O425 2.374 . S
Eu411 O426 2.473 . S
Eu411 O427 2.480 . S
Eu411 O428 2.430 . S
Eu411 O429 2.670 . S
Eu411 O430 2.394 . S
C412 C410 1.500 . S
C412 C413 1.377 . S
C412 C417 1.377 . S
C413 C412 1.377 . S
C413 C414 1.395 . S
C413 H436 0.931 . S
C414 C413 1.395 . S
C414 C415 1.383 . S
C414 H437 0.931 . S
C415 C414 1.383 . S
C415 C416 1.394 . S
C416 C415 1.394 . S
C416 C417 1.378 . S
C416 H438 0.931 . S
C417 C412 1.377 . S
C417 C416 1.378 . S
C417 H439 0.931 . S
C418 O428 1.259 . S
C418 O429 1.270 . S
C419 O430 1.251 . S
C419 O431 1.251 . S
O420 C400 1.257 . S
O420 Eu401 2.473 . S
O421 C400 1.260 . S
O421 Eu401 2.480 . S
O422 Eu401 2.430 . S
O422 C408 1.259 . S
O423 Eu401 2.670 . S
O423 C408 1.270 . S
O423 Eu411 2.355 . S
O424 Eu401 2.394 . S
O424 C409 1.251 . S
O425 C409 1.251 . S
O425 Eu411 2.374 . S
O426 C410 1.257 . S
O426 Eu411 2.473 . S
O427 C410 1.260 . S
O427 Eu411 2.480 . S
O428 Eu411 2.430 . S
O428 C418 1.259 . S
O429 Eu401 2.355 . S
O429 Eu411 2.670 . S
O429 C418 1.270 . S
O430 Eu411 2.394 . S
O430 C419 1.251 . S
O431 Eu401 2.374 . S
O431 C419 1.251 . S
H432 C403 0.931 . S
H433 C404 0.931 . S
H434 C406 0.931 . S
H435 C407 0.931 . S
H436 C413 0.931 . S
H437 C414 0.931 . S
H438 C416 0.931 . S
H439 C417 0.931 . S
C440 Eu441 2.835 . S
C440 C442 1.500 . S
C440 O460 1.257 . S
C440 O461 1.260 . S
Eu441 C440 2.835 . S
Eu441 O460 2.473 . S
Eu441 O461 2.480 . S
Eu441 O462 2.430 . S
Eu441 O463 2.670 1_455 S
Eu441 O464 2.394 . S
Eu441 O469 2.355 . S
Eu441 O471 2.374 1_455 S
C442 C440 1.500 . S
C442 C443 1.377 . S
C442 C447 1.377 . S
C443 C442 1.377 . S
C443 C444 1.395 . S
C443 H472 0.931 . S
C444 C443 1.395 . S
C444 C445 1.383 . S
C444 H473 0.931 . S
C445 C444 1.383 . S
C445 C446 1.394 . S
C446 C445 1.394 . S
C446 C447 1.378 . S
C446 H474 0.931 . S
C447 C442 1.377 . S
C447 C446 1.378 . S
C447 H475 0.931 . S
C448 O462 1.268 . S
C448 O463 1.264 1_455 S
C449 O464 1.251 . S
C449 O465 1.251 . S
C450 Eu451 2.835 . S
C450 C452 1.500 . S
C450 O466 1.257 . S
C450 O467 1.260 . S
Eu451 C450 2.835 . S
Eu451 O463 2.355 . S
Eu451 O465 2.374 1_655 S
Eu451 O466 2.473 . S
Eu451 O467 2.480 . S
Eu451 O468 2.430 . S
Eu451 O469 2.670 1_655 S
Eu451 O470 2.394 . S
C452 C450 1.500 . S
C452 C453 1.377 . S
C452 C457 1.377 . S
C453 C452 1.377 . S
C453 C454 1.395 . S
C453 H476 0.931 . S
C454 C453 1.395 . S
C454 C455 1.383 . S
C454 H477 0.931 . S
C455 C454 1.383 . S
C455 C456 1.394 . S
C456 C455 1.394 . S
C456 C457 1.378 . S
C456 H478 0.931 . S
C457 C452 1.377 . S
C457 C456 1.378 . S
C457 H479 0.931 . S
C458 O468 1.262 . S
C458 O469 1.268 1_655 S
C459 O470 1.251 . S
C459 O471 1.251 . S
O460 C440 1.257 . S
O460 Eu441 2.473 . S
O461 C440 1.260 . S
O461 Eu441 2.480 . S
O462 Eu441 2.430 . S
O462 C448 1.268 . S
O463 Eu441 2.670 1_655 S
O463 C448 1.264 1_655 S
O463 Eu451 2.355 . S
O464 Eu441 2.394 . S
O464 C449 1.251 . S
O465 C449 1.251 . S
O465 Eu451 2.374 1_455 S
O466 C450 1.257 . S
O466 Eu451 2.473 . S
O467 C450 1.260 . S
O467 Eu451 2.480 . S
O468 Eu451 2.430 . S
O468 C458 1.262 . S
O469 Eu441 2.355 . S
O469 Eu451 2.670 1_455 S
O469 C458 1.268 1_455 S
O470 Eu451 2.394 . S
O470 C459 1.251 . S
O471 Eu441 2.374 1_655 S
O471 C459 1.251 . S
H472 C443 0.931 . S
H473 C444 0.931 . S
H474 C446 0.931 . S
H475 C447 0.931 . S
H476 C453 0.931 . S
H477 C454 0.931 . S
H478 C456 0.931 . S
H479 C457 0.931 . S
H480 C486 0.930 . S
H481 C489 0.930 . S
H482 C490 0.930 . S
H483 C491 0.930 . S
H484 C494 0.930 . S
H485 C495 0.930 . S
C486 H480 0.930 . S
C486 C487 1.355 1_565 S
C486 C488 1.415 . S
C487 C486 1.355 1_545 S
C487 C489 1.419 . S
C488 C486 1.415 . S
C488 C493 1.425 1_565 S
C488 C495 1.409 . S
C489 H481 0.930 . S
C489 C487 1.419 . S
C489 C490 1.362 . S
C490 H482 0.930 . S
C490 C489 1.362 . S
C490 C493 1.409 . S
C491 H483 0.930 . S
C491 C492 1.355 1_545 S
C491 C493 1.415 . S
C492 C491 1.355 1_565 S
C492 C494 1.419 . S
C493 C488 1.425 1_545 S
C493 C490 1.409 . S
C493 C491 1.415 . S
C494 H484 0.930 . S
C494 C492 1.419 . S
C494 C495 1.362 . S
C495 H485 0.930 . S
C495 C488 1.409 . S
C495 C494 1.362 . S
H496 C502 0.930 . S
H497 C505 0.930 . S
H498 C506 0.930 . S
H499 C507 0.930 . S
H500 C510 0.930 . S
H501 C511 0.930 . S
C502 H496 0.930 . S
C502 C503 1.355 . S
C502 C504 1.415 . S
C503 C502 1.355 . S
C503 C505 1.419 . S
C504 C502 1.415 . S
C504 C509 1.425 . S
C504 C511 1.409 . S
C505 H497 0.930 . S
C505 C503 1.419 . S
C505 C506 1.362 . S
C506 H498 0.930 . S
C506 C505 1.362 . S
C506 C509 1.409 . S
C507 H499 0.930 . S
C507 C508 1.355 . S
C507 C509 1.415 . S
C508 C507 1.355 . S
C508 C510 1.419 . S
C509 C504 1.425 . S
C509 C506 1.409 . S
C509 C507 1.415 . S
C510 H500 0.930 . S
C510 C508 1.419 . S
C510 C511 1.362 . S
C511 H501 0.930 . S
C511 C504 1.409 . S
C511 C510 1.362 . S
H512 C518 0.930 . S
H513 C521 0.930 . S
H514 C522 0.930 . S
H515 C523 0.930 . S
H516 C526 0.930 . S
H517 C527 0.930 . S
C518 H512 0.930 . S
C518 C519 1.355 . S
C518 C520 1.415 . S
C519 C518 1.355 . S
C519 C521 1.419 . S
C520 C518 1.415 . S
C520 C525 1.425 . S
C520 C527 1.409 . S
C521 H513 0.930 . S
C521 C519 1.419 . S
C521 C522 1.362 . S
C522 H514 0.930 . S
C522 C521 1.362 . S
C522 C525 1.409 . S
C523 H515 0.930 . S
C523 C524 1.355 . S
C523 C525 1.415 . S
C524 C523 1.355 . S
C524 C526 1.419 . S
C525 C520 1.425 . S
C525 C522 1.409 . S
C525 C523 1.415 . S
C526 H516 0.930 . S
C526 C524 1.419 . S
C526 C527 1.362 . S
C527 H517 0.930 . S
C527 C520 1.409 . S
C527 C526 1.362 . S
H528 C534 0.930 . S
H529 C537 0.930 . S
H530 C538 0.930 . S
H531 C539 0.930 . S
H532 C542 0.930 . S
H533 C543 0.930 . S
C534 H528 0.930 . S
C534 C535 1.355 1_455 S
C534 C536 1.415 . S
C535 C534 1.355 1_655 S
C535 C537 1.419 . S
C536 C534 1.415 . S
C536 C541 1.425 1_455 S
C536 C543 1.409 . S
C537 H529 0.930 . S
C537 C535 1.419 . S
C537 C538 1.362 . S
C538 H530 0.930 . S
C538 C537 1.362 . S
C538 C541 1.409 . S
C539 H531 0.930 . S
C539 C540 1.355 1_655 S
C539 C541 1.415 . S
C540 C539 1.355 1_455 S
C540 C542 1.419 . S
C541 C536 1.425 1_655 S
C541 C538 1.409 . S
C541 C539 1.415 . S
C542 H532 0.930 . S
C542 C540 1.419 . S
C542 C543 1.362 . S
C543 H533 0.930 . S
C543 C536 1.409 . S
C543 C542 1.362 . S
H544 C550 0.930 . S
H545 C553 0.930 . S
H546 C554 0.930 . S
H547 C555 0.930 . S
H548 C558 0.930 . S
H549 C559 0.930 . S
C550 H544 0.930 . S
C550 C551 1.355 1_545 S
C550 C552 1.415 . S
C551 C550 1.355 1_565 S
C551 C553 1.419 . S
C552 C550 1.415 . S
C552 C557 1.425 1_545 S
C552 C559 1.409 1_554 S
C553 H545 0.930 . S
C553 C551 1.419 . S
C553 C554 1.362 . S
C554 H546 0.930 . S
C554 C553 1.362 . S
C554 C557 1.409 . S
C555 H547 0.930 . S
C555 C556 1.355 1_565 S
C555 C557 1.415 1_556 S
C556 C555 1.355 1_545 S
C556 C558 1.419 . S
C557 C552 1.425 1_565 S
C557 C554 1.409 . S
C557 C555 1.415 1_554 S
C558 H548 0.930 . S
C558 C556 1.419 . S
C558 C559 1.362 . S
C559 H549 0.930 . S
C559 C552 1.409 1_556 S
C559 C558 1.362 . S
H560 C566 0.930 . S
H561 C569 0.930 . S
H562 C570 0.930 . S
H563 C571 0.930 . S
H564 C574 0.930 . S
H565 C575 0.930 . S
C566 H560 0.930 . S
C566 C567 1.355 . S
C566 C568 1.415 . S
C567 C566 1.355 . S
C567 C569 1.419 . S
C568 C566 1.415 . S
C568 C573 1.425 . S
C568 C575 1.409 . S
C569 H561 0.930 . S
C569 C567 1.419 . S
C569 C570 1.362 . S
C570 H562 0.930 . S
C570 C569 1.362 . S
C570 C573 1.409 . S
C571 H563 0.930 . S
C571 C572 1.355 . S
C571 C573 1.415 1_556 S
C572 C571 1.355 . S
C572 C574 1.419 . S
C573 C568 1.425 . S
C573 C570 1.409 . S
C573 C571 1.415 1_554 S
C574 H564 0.930 . S
C574 C572 1.419 . S
C574 C575 1.362 1_556 S
C575 H565 0.930 . S
C575 C568 1.409 . S
C575 C574 1.362 1_554 S
H576 C582 0.930 . S
H577 C585 0.930 . S
H578 C586 0.930 . S
H579 C587 0.930 . S
H580 C590 0.930 . S
H581 C591 0.930 . S
C582 H576 0.930 . S
C582 C583 1.355 . S
C582 C584 1.415 . S
C583 C582 1.355 . S
C583 C585 1.419 . S
C584 C582 1.415 . S
C584 C589 1.425 . S
C584 C591 1.409 1_554 S
C585 H577 0.930 . S
C585 C583 1.419 . S
C585 C586 1.362 . S
C586 H578 0.930 . S
C586 C585 1.362 . S
C586 C589 1.409 . S
C587 H579 0.930 . S
C587 C588 1.355 . S
C587 C589 1.415 1_556 S
C588 C587 1.355 . S
C588 C590 1.419 . S
C589 C584 1.425 . S
C589 C586 1.409 . S
C589 C587 1.415 1_554 S
C590 H580 0.930 . S
C590 C588 1.419 . S
C590 C591 1.362 . S
C591 H581 0.930 . S
C591 C584 1.409 1_556 S
C591 C590 1.362 . S
H592 C598 0.930 . S
H593 C601 0.930 . S
H594 C602 0.930 . S
H595 C603 0.930 . S
H596 C606 0.930 . S
H597 C607 0.930 . S
C598 H592 0.930 . S
C598 C599 1.335 1_455 S
C598 C600 1.415 . S
C599 C598 1.335 1_655 S
C599 C601 1.445 . S
C600 C598 1.415 . S
C600 C605 1.429 1_455 S
C600 C607 1.409 . S
C601 H593 0.930 . S
C601 C599 1.445 . S
C601 C602 1.362 . S
C602 H594 0.930 . S
C602 C601 1.362 . S
C602 C605 1.413 . S
C603 H595 0.930 . S
C603 C604 1.361 . S
C603 C605 1.407 1_556 S
C604 C603 1.361 . S
C604 C606 1.411 1_655 S
C605 C600 1.429 1_655 S
C605 C602 1.413 . S
C605 C603 1.407 1_554 S
C606 H596 0.930 . S
C606 C604 1.411 1_455 S
C606 C607 1.362 1_556 S
C607 H597 0.930 . S
C607 C600 1.409 . S
C607 C606 1.362 1_554 S
H608 C614 0.930 . S
H609 C617 0.930 . S
H610 C618 0.930 . S
H611 C619 0.930 . S
H612 C622 0.930 . S
H613 C623 0.930 . S
C614 H608 0.930 . S
C614 C615 1.359 . S
C614 C616 1.415 1_455 S
C615 C614 1.359 . S
C615 C617 1.406 1_455 S
C616 C614 1.415 1_655 S
C616 C621 1.425 . S
C616 C623 1.409 1_655 S
C617 H609 0.930 . S
C617 C615 1.406 1_655 S
C617 C618 1.362 . S
C618 H610 0.930 . S
C618 C617 1.362 . S
C618 C621 1.409 . S
C619 H611 0.930 . S
C619 C620 1.355 . S
C619 C621 1.415 . S
C620 C619 1.355 . S
C620 C622 1.419 . S
C621 C616 1.425 . S
C621 C618 1.409 . S
C621 C619 1.415 . S
C622 H612 0.930 . S
C622 C620 1.419 . S
C622 C623 1.362 1_655 S
C623 H613 0.930 . S
C623 C616 1.409 1_455 S
C623 C622 1.362 1_455 S
H624 C630 0.930 . S
H625 C633 0.930 . S
H626 C634 0.930 . S
H627 C635 0.930 . S
H628 C638 0.931 1_545 S
H629 C639 0.930 . S
C630 H624 0.930 . S
C630 C631 1.357 . S
C630 C632 1.415 1_545 S
C631 C630 1.357 . S
C631 C633 1.414 1_545 S
C632 C630 1.415 1_565 S
C632 C637 1.425 . S
C632 C639 1.409 1_565 S
C633 H625 0.930 . S
C633 C631 1.414 1_565 S
C633 C634 1.362 . S
C634 H626 0.930 . S
C634 C633 1.362 . S
C634 C637 1.409 . S
C635 H627 0.930 . S
C635 C636 1.355 . S
C635 C637 1.415 . S
C636 C635 1.355 . S
C636 C638 1.419 . S
C637 C632 1.425 . S
C637 C634 1.409 . S
C637 C635 1.415 . S
C638 H628 0.931 1_565 S
C638 C636 1.419 . S
C638 C639 1.362 1_565 S
C639 H629 0.930 . S
C639 C632 1.409 1_545 S
C639 C638 1.362 1_545 S
H640 C646 0.930 . S
H641 C649 0.930 . S
H642 C650 0.930 . S
H643 C651 0.930 . S
H644 C654 0.930 . S
H645 C655 0.930 . S
C646 H640 0.930 . S
C646 C647 1.355 . S
C646 C648 1.415 . S
C647 C646 1.355 . S
C647 C649 1.419 . S
C648 C646 1.415 . S
C648 C653 1.425 . S
C648 C655 1.409 . S
C649 H641 0.930 . S
C649 C647 1.419 . S
C649 C650 1.362 . S
C650 H642 0.930 . S
C650 C649 1.362 . S
C650 C653 1.409 . S
C651 H643 0.930 . S
C651 C652 1.355 . S
C651 C653 1.415 . S
C652 C651 1.355 . S
C652 C654 1.419 . S
C653 C648 1.425 . S
C653 C650 1.409 . S
C653 C651 1.415 . S
C654 H644 0.930 . S
C654 C652 1.419 . S
C654 C655 1.362 . S
C655 H645 0.930 . S
C655 C648 1.409 . S
C655 C654 1.362 . S
H656 C662 0.930 . S
H657 C665 0.930 . S
H658 C666 0.930 . S
H659 C667 0.930 . S
H660 C670 0.930 . S
H661 C671 0.930 . S
C662 H656 0.930 . S
C662 C663 1.355 . S
C662 C664 1.415 . S
C663 C662 1.355 . S
C663 C665 1.419 . S
C664 C662 1.415 . S
C664 C669 1.425 . S
C664 C671 1.409 . S
C665 H657 0.930 . S
C665 C663 1.419 . S
C665 C666 1.362 . S
C666 H658 0.930 . S
C666 C665 1.362 . S
C666 C669 1.409 . S
C667 H659 0.930 . S
C667 C668 1.355 . S
C667 C669 1.415 . S
C668 C667 1.355 . S
C668 C670 1.419 . S
C669 C664 1.425 . S
C669 C666 1.409 . S
C669 C667 1.415 . S
C670 H660 0.930 . S
C670 C668 1.419 . S
C670 C671 1.362 . S
C671 H661 0.930 . S
C671 C664 1.409 . S
C671 C670 1.362 . S
H672 C678 0.930 . S
H673 C681 0.930 . S
H674 C682 0.930 . S
H675 C683 0.930 . S
H676 C686 0.930 . S
H677 C687 0.930 . S
C678 H672 0.930 . S
C678 C679 1.355 1_455 S
C678 C680 1.415 . S
C679 C678 1.355 1_655 S
C679 C681 1.419 1_554 S
C680 C678 1.415 . S
C680 C685 1.425 1_554 S
C680 C687 1.409 . S
C681 H673 0.930 . S
C681 C679 1.419 1_556 S
C681 C682 1.362 . S
C682 H674 0.930 . S
C682 C681 1.362 . S
C682 C685 1.409 1_655 S
C683 H675 0.930 . S
C683 C684 1.355 . S
C683 C685 1.415 . S
C684 C683 1.355 . S
C684 C686 1.419 1_556 S
C685 C680 1.425 1_556 S
C685 C682 1.409 1_455 S
C685 C683 1.415 . S
C686 H676 0.930 . S
C686 C684 1.419 1_554 S
C686 C687 1.362 . S
C687 H677 0.930 . S
C687 C680 1.409 . S
C687 C686 1.362 . S
H688 C694 0.930 . S
H689 C697 0.930 . S
H690 C698 0.930 . S
H691 C699 0.930 . S
H692 C702 0.936 . S
H693 C703 0.930 . S
C694 H688 0.930 . S
C694 C695 1.358 . S
C694 C696 1.415 1_565 S
C695 C694 1.358 . S
C695 C697 1.411 1_565 S
C696 C694 1.415 1_545 S
C696 C701 1.425 . S
C696 C703 1.409 1_545 S
C697 H689 0.930 . S
C697 C695 1.411 1_545 S
C697 C698 1.362 . S
C698 H690 0.930 . S
C698 C697 1.362 . S
C698 C701 1.409 . S
C699 H691 0.930 . S
C699 C700 1.355 . S
C699 C701 1.415 1_556 S
C700 C699 1.355 . S
C700 C702 1.419 . S
C701 C696 1.425 . S
C701 C698 1.409 . S
C701 C699 1.415 1_554 S
C702 H692 0.936 . S
C702 C700 1.419 . S
C702 C703 1.362 1_546 S
C703 H693 0.930 . S
C703 C696 1.409 1_565 S
C703 C702 1.362 1_564 S
H704 C710 0.930 . S
H705 C713 0.930 . S
H706 C714 0.930 . S
H707 C715 0.930 . S
H708 C718 0.930 . S
H709 C719 0.930 . S
C710 H704 0.930 . S
C710 C711 1.355 . S
C710 C712 1.415 . S
C711 C710 1.355 . S
C711 C713 1.419 . S
C712 C710 1.415 . S
C712 C717 1.425 . S
C712 C719 1.409 1_554 S
C713 H705 0.930 . S
C713 C711 1.419 . S
C713 C714 1.362 . S
C714 H706 0.930 . S
C714 C713 1.362 . S
C714 C717 1.409 . S
C715 H707 0.930 . S
C715 C716 1.355 . S
C715 C717 1.415 1_556 S
C716 C715 1.355 . S
C716 C718 1.419 . S
C717 C712 1.425 . S
C717 C714 1.409 . S
C717 C715 1.415 1_554 S
C718 H708 0.930 . S
C718 C716 1.419 . S
C718 C719 1.362 . S
C719 H709 0.930 . S
C719 C712 1.409 1_556 S
C719 C718 1.362 . S
H720 C726 0.930 . S
H721 C729 0.930 . S
H722 C730 0.930 . S
H723 C731 0.930 . S
H724 C734 0.930 . S
H725 C735 0.930 . S
C726 H720 0.930 . S
C726 C727 1.355 . S
C726 C728 1.415 . S
C727 C726 1.355 . S
C727 C729 1.419 1_554 S
C728 C726 1.415 . S
C728 C733 1.425 1_554 S
C728 C735 1.409 . S
C729 H721 0.930 . S
C729 C727 1.419 1_556 S
C729 C730 1.362 . S
C730 H722 0.930 . S
C730 C729 1.362 . S
C730 C733 1.409 . S
C731 H723 0.930 . S
C731 C732 1.355 . S
C731 C733 1.415 . S
C732 C731 1.355 . S
C732 C734 1.419 1_556 S
C733 C728 1.425 1_556 S
C733 C730 1.409 . S
C733 C731 1.415 . S
C734 H724 0.930 . S
C734 C732 1.419 1_554 S
C734 C735 1.362 . S
C735 H725 0.930 . S
C735 C728 1.409 . S
C735 C734 1.362 . S
H736 C742 0.930 . S
H737 C745 0.930 . S
H738 C746 0.930 . S
H739 C747 0.930 . S
H740 C750 0.930 . S
H741 C751 0.930 . S
C742 H736 0.930 . S
C742 C743 1.384 . S
C742 C744 1.415 . S
C743 C742 1.384 . S
C743 C745 1.385 1_455 S
C744 C742 1.415 . S
C744 C749 1.425 1_455 S
C744 C751 1.409 . S
C745 H737 0.930 . S
C745 C743 1.385 1_655 S
C745 C746 1.362 . S
C746 H738 0.930 . S
C746 C745 1.362 . S
C746 C749 1.409 . S
C747 H739 0.930 . S
C747 C748 1.355 1_655 S
C747 C749 1.415 . S
C748 C747 1.355 1_455 S
C748 C750 1.419 . S
C749 C744 1.425 1_655 S
C749 C746 1.409 . S
C749 C747 1.415 . S
C750 H740 0.930 . S
C750 C748 1.419 . S
C750 C751 1.362 . S
C751 H741 0.930 . S
C751 C744 1.409 . S
C751 C750 1.362 . S
H752 C758 0.930 . S
H753 C761 0.930 . S
H754 C762 0.930 . S
H755 C763 0.930 . S
H756 C766 0.930 . S
H757 C767 0.930 . S
C758 H752 0.930 . S
C758 C759 1.355 1_565 S
C758 C760 1.409 1_565 S
C759 C758 1.355 1_545 S
C759 C761 1.419 . S
C760 C758 1.409 1_545 S
C760 C765 1.441 . S
C760 C767 1.401 1_545 S
C761 H753 0.930 . S
C761 C759 1.419 . S
C761 C762 1.362 . S
C762 H754 0.930 . S
C762 C761 1.362 . S
C762 C765 1.409 . S
C763 H755 0.930 . S
C763 C764 1.355 . S
C763 C765 1.415 . S
C764 C763 1.355 . S
C764 C766 1.419 1_545 S
C765 C760 1.441 . S
C765 C762 1.409 . S
C765 C763 1.415 . S
C766 H756 0.930 . S
C766 C764 1.419 1_565 S
C766 C767 1.362 . S
C767 H757 0.930 . S
C767 C760 1.401 1_565 S
C767 C766 1.362 . S
H768 C774 0.930 . S
H769 C777 0.930 . S
H770 C778 0.930 . S
H771 C779 0.930 . S
H772 C782 0.930 . S
H773 C783 0.930 . S
C774 H768 0.930 . S
C774 C775 1.355 . S
C774 C776 1.415 . S
C775 C774 1.355 . S
C775 C777 1.419 . S
C776 C774 1.415 . S
C776 C781 1.425 . S
C776 C783 1.409 . S
C777 H769 0.930 . S
C777 C775 1.419 . S
C777 C778 1.362 . S
C778 H770 0.930 . S
C778 C777 1.362 . S
C778 C781 1.409 . S
C779 H771 0.930 . S
C779 C780 1.355 . S
C779 C781 1.415 . S
C780 C779 1.355 . S
C780 C782 1.419 . S
C781 C776 1.425 . S
C781 C778 1.409 . S
C781 C779 1.415 . S
C782 H772 0.930 . S
C782 C780 1.419 . S
C782 C783 1.362 . S
C783 H773 0.930 . S
C783 C776 1.409 . S
C783 C782 1.362 . S
H784 C790 0.930 . S
H785 C793 0.930 . S
H786 C794 0.930 . S
H787 C795 0.930 . S
H788 C798 0.930 . S
H789 C799 0.930 . S
C790 H784 0.930 . S
C790 C791 1.355 . S
C790 C792 1.415 . S
C791 C790 1.355 . S
C791 C793 1.419 . S
C792 C790 1.415 . S
C792 C797 1.425 . S
C792 C799 1.409 . S
C793 H785 0.930 . S
C793 C791 1.419 . S
C793 C794 1.362 . S
C794 H786 0.930 . S
C794 C793 1.362 . S
C794 C797 1.409 . S
C795 H787 0.930 . S
C795 C796 1.355 . S
C795 C797 1.415 . S
C796 C795 1.355 . S
C796 C798 1.419 . S
C797 C792 1.425 . S
C797 C794 1.409 . S
C797 C795 1.415 . S
C798 H788 0.930 . S
C798 C796 1.419 . S
C798 C799 1.362 . S
C799 H789 0.930 . S
C799 C792 1.409 . S
C799 C798 1.362 . S
H800 C806 0.930 . S
H801 C809 0.930 . S
H802 C810 0.930 . S
H803 C811 0.930 . S
H804 C814 0.930 . S
H805 C815 0.930 . S
C806 H800 0.930 . S
C806 C807 1.378 . S
C806 C808 1.415 . S
C807 C806 1.378 . S
C807 C809 1.393 1_655 S
C808 C806 1.415 . S
C808 C813 1.425 1_655 S
C808 C815 1.409 . S
C809 H801 0.930 . S
C809 C807 1.393 1_455 S
C809 C810 1.362 . S
C810 H802 0.930 . S
C810 C809 1.362 . S
C810 C813 1.409 . S
C811 H803 0.930 . S
C811 C812 1.355 1_455 S
C811 C813 1.415 . S
C812 C811 1.355 1_655 S
C812 C814 1.419 . S
C813 C808 1.425 1_455 S
C813 C810 1.409 . S
C813 C811 1.415 . S
C814 H804 0.930 . S
C814 C812 1.419 . S
C814 C815 1.362 . S
C815 H805 0.930 . S
C815 C808 1.409 . S
C815 C814 1.362 . S
H816 C822 0.930 . S
H817 C825 0.930 . S
H818 C826 0.930 . S
H819 C827 0.930 1_545 S
H820 C830 0.930 . S
H821 C831 0.930 . S
C822 H816 0.930 . S
C822 C823 1.355 . S
C822 C824 1.415 . S
C823 C822 1.355 . S
C823 C825 1.419 1_565 S
C824 C822 1.415 . S
C824 C829 1.425 . S
C824 C831 1.409 . S
C825 H817 0.930 . S
C825 C823 1.419 1_545 S
C825 C826 1.362 . S
C826 H818 0.930 . S
C826 C825 1.362 . S
C826 C829 1.409 1_545 S
C827 H819 0.930 1_565 S
C827 C828 1.355 . S
C827 C829 1.415 . S
C828 C827 1.355 . S
C828 C830 1.419 . S
C829 C824 1.425 . S
C829 C826 1.409 1_565 S
C829 C827 1.415 . S
C830 H820 0.930 . S
C830 C828 1.419 . S
C830 C831 1.362 . S
C831 H821 0.930 . S
C831 C824 1.409 . S
C831 C830 1.362 . S
H832 C838 0.930 . S
H833 C841 0.930 . S
H834 C842 0.930 . S
H835 C843 0.930 . S
H836 C846 0.930 . S
H837 C847 0.930 . S
C838 H832 0.930 . S
C838 C839 1.355 . S
C838 C840 1.415 . S
C839 C838 1.355 . S
C839 C841 1.419 . S
C840 C838 1.415 . S
C840 C845 1.425 . S
C840 C847 1.409 . S
C841 H833 0.930 . S
C841 C839 1.419 . S
C841 C842 1.362 . S
C842 H834 0.930 . S
C842 C841 1.362 . S
C842 C845 1.409 . S
C843 H835 0.930 . S
C843 C844 1.355 . S
C843 C845 1.415 . S
C844 C843 1.355 . S
C844 C846 1.419 . S
C845 C840 1.425 . S
C845 C842 1.409 . S
C845 C843 1.415 . S
C846 H836 0.930 . S
C846 C844 1.419 . S
C846 C847 1.362 . S
C847 H837 0.930 . S
C847 C840 1.409 . S
C847 C846 1.362 . S
H848 C854 0.930 . S
H849 C857 0.930 . S
H850 C858 0.930 . S
H851 C859 0.930 . S
H852 C862 0.930 . S
H853 C863 0.930 . S
C854 H848 0.930 . S
C854 C855 1.355 . S
C854 C856 1.415 . S
C855 C854 1.355 . S
C855 C857 1.419 . S
C856 C854 1.415 . S
C856 C861 1.425 . S
C856 C863 1.409 . S
C857 H849 0.930 . S
C857 C855 1.419 . S
C857 C858 1.362 . S
C858 H850 0.930 . S
C858 C857 1.362 . S
C858 C861 1.409 . S
C859 H851 0.930 . S
C859 C860 1.355 . S
C859 C861 1.415 . S
C860 C859 1.355 . S
C860 C862 1.419 . S
C861 C856 1.425 . S
C861 C858 1.409 . S
C861 C859 1.415 . S
C862 H852 0.930 . S
C862 C860 1.419 . S
C862 C863 1.362 . S
C863 H853 0.930 . S
C863 C856 1.409 . S
C863 C862 1.362 . S
C487 C255 2.408 . S
C492 C338 2.705 . S
C508 C378 2.727 . S
C503 C295 2.425 . S
C524 C418 2.736 . S
C519 C175 2.485 . S
C540 C458 2.724 1_455 S
C535 C215 2.455 1_655 S
C556 C328 2.709 . S
C551 C95 2.432 1_565 S
C567 C135 2.435 . S
C572 C368 2.731 . S
C583 C15 2.486 . S
C588 C408 2.735 . S
C599 C55 2.404 1_655 S
C604 C448 2.707 1_655 S
C620 C325 0.434 . S
C615 C221 0.497 . S
C636 C365 0.420 . S
C631 C261 0.468 . S
C652 C405 0.516 . S
C647 C301 0.411 . S
C663 C181 0.564 . S
C668 C445 0.599 . S
C679 C61 0.700 1_655 S
C684 C335 0.632 . S
C700 C375 0.464 . S
C695 C101 0.532 1_565 S
C716 C415 0.566 . S
C711 C141 0.600 . S
C727 C21 0.613 . S
C732 C455 0.526 . S
C743 C202 3.321 . S
C748 C329 3.698 . S
C759 C242 3.249 . S
C764 C369 3.659 . S
C780 C409 3.648 . S
C775 C282 3.260 . S
C796 C449 3.683 . S
C791 C162 3.265 . S
C807 C42 3.318 1_655 S
C812 C339 3.709 . S
C828 C379 3.660 . S
C823 C82 3.267 1_565 S
C844 C419 3.655 . S
C839 C122 3.263 . S
C855 C2 3.337 . S
C860 C459 3.700 . S
