# Generated by pormake.
# Topology ssa, (4,4)-cn, num edge types: 1
# Building blocks:
#     Node 0, Type 0, BuildingBlock: ESEHIV_clean_sbu_0, # of connection points: 4
#     Node 1, Type 0, BuildingBlock: ESEHIV_clean_sbu_0, # of connection points: 4
#     Node 2, Type 0, BuildingBlock: ESEHIV_clean_sbu_0, # of connection points: 4
#     Node 3, Type 0, BuildingBlock: ESEHIV_clean_sbu_0, # of connection points: 4
#     Node 4, Type 0, BuildingBlock: ESEHIV_clean_sbu_0, # of connection points: 4
#     Node 5, Type 0, BuildingBlock: ESEHIV_clean_sbu_0, # of connection points: 4
#     Node 6, Type 1, BuildingBlock: KOZSID_clean_sbu_0, # of connection points: 4
#     Node 7, Type 1, BuildingBlock: KOZSID_clean_sbu_0, # of connection points: 4
#     Node 8, Type 1, BuildingBlock: KOZSID_clean_sbu_0, # of connection points: 4
#     Node 9, Type 1, BuildingBlock: KOZSID_clean_sbu_0, # of connection points: 4
#     Node 10, Type 1, BuildingBlock: KOZSID_clean_sbu_0, # of connection points: 4
#     Node 11, Type 1, BuildingBlock: KOZSID_clean_sbu_0, # of connection points: 4
#     Edge 12, Type (0, 1), BuildingBlock: ZUJKAS_clean_linker_0, # of connection points: 2
#     Edge 13, Type (0, 1), BuildingBlock: ZUJKAS_clean_linker_0, # of connection points: 2
#     Edge 14, Type (0, 1), BuildingBlock: ZUJKAS_clean_linker_0, # of connection points: 2
#     Edge 15, Type (0, 1), BuildingBlock: ZUJKAS_clean_linker_0, # of connection points: 2
#     Edge 16, Type (0, 1), BuildingBlock: ZUJKAS_clean_linker_0, # of connection points: 2
#     Edge 17, Type (0, 1), BuildingBlock: ZUJKAS_clean_linker_0, # of connection points: 2
#     Edge 18, Type (0, 1), BuildingBlock: ZUJKAS_clean_linker_0, # of connection points: 2
#     Edge 19, Type (0, 1), BuildingBlock: ZUJKAS_clean_linker_0, # of connection points: 2
#     Edge 20, Type (0, 1), BuildingBlock: ZUJKAS_clean_linker_0, # of connection points: 2
#     Edge 21, Type (0, 1), BuildingBlock: ZUJKAS_clean_linker_0, # of connection points: 2
#     Edge 22, Type (0, 1), BuildingBlock: ZUJKAS_clean_linker_0, # of connection points: 2
#     Edge 23, Type (0, 1), BuildingBlock: ZUJKAS_clean_linker_0, # of connection points: 2
#     Edge 24, Type (0, 1), BuildingBlock: ZUJKAS_clean_linker_0, # of connection points: 2
#     Edge 25, Type (0, 1), BuildingBlock: ZUJKAS_clean_linker_0, # of connection points: 2
#     Edge 26, Type (0, 1), BuildingBlock: ZUJKAS_clean_linker_0, # of connection points: 2
#     Edge 27, Type (0, 1), BuildingBlock: ZUJKAS_clean_linker_0, # of connection points: 2
#     Edge 28, Type (0, 1), BuildingBlock: ZUJKAS_clean_linker_0, # of connection points: 2
#     Edge 29, Type (0, 1), BuildingBlock: ZUJKAS_clean_linker_0, # of connection points: 2
#     Edge 30, Type (0, 1), BuildingBlock: ZUJKAS_clean_linker_0, # of connection points: 2
#     Edge 31, Type (0, 1), BuildingBlock: ZUJKAS_clean_linker_0, # of connection points: 2
#     Edge 32, Type (0, 1), BuildingBlock: ZUJKAS_clean_linker_0, # of connection points: 2
#     Edge 33, Type (0, 1), BuildingBlock: ZUJKAS_clean_linker_0, # of connection points: 2
#     Edge 34, Type (0, 1), BuildingBlock: ZUJKAS_clean_linker_0, # of connection points: 2
#     Edge 35, Type (0, 1), BuildingBlock: ZUJKAS_clean_linker_0, # of connection points: 2
# Relax obj value: 0.013
# Max RMSD: 0.106
# Mean RMSD: 0.057
data_MOF--net-ssa--node1-ESEHIV_clean_sbu_0--node2-KOZSID_clean_sbu_0--edge1-ZUJKAS_clean_linker_0
_symmetry_space_group_name_H-M    P1
_symmetry_Int_Tables_number       1
_symmetry_cell_setting            triclinic
loop_
_symmetry_equiv_pos_as_xyz
'x, y, z'
_cell_length_a     68.13008
_cell_length_b     71.662918
_cell_length_c     49.458671
_cell_angle_alpha  91.276252
_cell_angle_beta   93.264743
_cell_angle_gamma 121.81748
loop_
_atom_site_label
_atom_site_type_symbol
_atom_site_fract_x
_atom_site_fract_y
_atom_site_fract_z
_atom_type_partial_charge
Cu0 Cu 0.99764 0.50072 0.01602 0.0
N1 N 0.97446 0.47102 0.01239 0.0
N2 N 0.94368 0.43928 0.99517 0.0
C3 C 0.95519 0.46141 0.99529 0.0
C4 C 0.95593 0.4348 0.01341 0.0
C5 C 0.97495 0.45445 0.02397 0.0
O6 O 0.99067 0.51563 0.98736 0.0
C7 C 0.04712 0.51872 0.02699 0.0
O8 O 0.04962 0.53818 0.02814 0.0
H9 H 0.95006 0.47043 0.98255 0.0
H10 H 0.98875 0.45652 0.03814 0.0
N11 N 0.99573 0.51205 0.0493 0.0
N12 N 0.00787 0.53578 0.08545 0.0
C13 C 0.00903 0.5332 0.0586 0.0
C14 C 0.98516 0.50081 0.07077 0.0
C15 C 0.99263 0.51542 0.09315 0.0
C16 C 0.98498 0.50859 0.96247 0.0
O17 O 0.98819 0.49301 0.95379 0.0
H18 H 0.02086 0.54615 0.04637 0.0
H19 H 0.97414 0.48309 0.07061 0.0
O20 O 0.02735 0.5019 0.01893 0.0
H21 H 0.95222 0.41854 0.01758 0.0
H22 H 0.98827 0.51114 0.11373 0.0
Cu23 Cu 0.50071 0.00536 0.49853 0.0
N24 N 0.51012 1.00078 0.46532 0.0
N25 N 0.51755 0.98305 0.43333 0.0
C26 C 0.50762 0.98156 0.45677 0.0
C27 C 0.5265 0.00414 0.42684 0.0
C28 C 0.52191 0.01501 0.44657 0.0
O29 O 0.47279 0.97732 0.50362 0.0
C30 C 0.54441 0.01581 0.52382 0.0
O31 O 0.54785 0.00959 0.50031 0.0
H32 H 0.49951 0.96703 0.46829 0.0
H33 H 0.52731 0.03217 0.44753 0.0
N34 N 0.49536 0.02862 0.49926 0.0
N35 N 0.49184 0.05602 0.51626 0.0
C36 C 0.49584 0.03983 0.52189 0.0
C37 C 0.49094 0.03801 0.4785 0.0
C38 C 0.48873 0.05483 0.48887 0.0
C39 C 0.4526 0.97382 0.49818 0.0
O40 O 0.45021 0.99057 0.49397 0.0
H41 H 0.49893 0.03598 0.54211 0.0
H42 H 0.48954 0.03305 0.45731 0.0
O43 O 0.52486 0.01342 0.52736 0.0
H44 H 0.5359 0.01135 0.40922 0.0
H45 H 0.48549 0.06555 0.47698 0.0
Cu46 Cu 0.51538 0.51165 0.00574 0.0
N47 N 0.51059 0.48328 0.00512 0.0
N48 N 0.50647 0.45193 0.98804 0.0
C49 C 0.50991 0.47185 0.98262 0.0
C50 C 0.505 0.45096 0.0152 0.0
C51 C 0.50753 0.47025 0.02562 0.0
O52 O 0.53644 0.52633 0.97784 0.0
C53 C 0.46647 0.49295 0.9962 0.0
O54 O 0.46465 0.4738 0.99373 0.0
H55 H 0.51166 0.47809 0.96261 0.0
H56 H 0.50725 0.47448 0.04666 0.0
N57 N 0.52753 0.52738 0.03963 0.0
N58 N 0.53551 0.55245 0.07342 0.0
C59 C 0.52457 0.54362 0.04856 0.0
C60 C 0.54073 0.52575 0.05957 0.0
C61 C 0.54572 0.54121 0.08037 0.0
C62 C 0.55787 0.5407 0.98318 0.0
O63 O 0.56566 0.54857 0.00832 0.0
H64 H 0.5149 0.54909 0.0367 0.0
H65 H 0.54646 0.51426 0.05893 0.0
O66 O 0.48646 0.51048 0.9987 0.0
H67 H 0.50257 0.43746 0.02696 0.0
H68 H 0.55592 0.54378 0.09924 0.0
Cu69 Cu 0.0239 0.49697 0.52376 0.0
N70 N 0.04872 0.49275 0.52667 0.0
N71 N 0.07759 0.48998 0.51222 0.0
C72 C 0.05792 0.4895 0.5051 0.0
C73 C 0.08086 0.49361 0.53947 0.0
C74 C 0.06297 0.49531 0.54835 0.0
O75 O 0.0294 0.51489 0.4918 0.0
C76 C 0.99369 0.45791 0.54627 0.0
O77 O 0.01253 0.46637 0.56285 0.0
H78 H 0.05104 0.48819 0.4844 0.0
H79 H 0.061 0.49896 0.56899 0.0
N80 N 0.02421 0.5132 0.55392 0.0
N81 N 0.00884 0.52353 0.58508 0.0
C82 C 1.00469 0.51067 0.56259 0.0
C83 C 0.04149 0.52828 0.57158 0.0
C84 C 0.03202 0.53484 0.59081 0.0
C85 C 0.04867 0.53347 0.49438 0.0
O86 O 0.06167 0.5385 0.51724 0.0
H87 H 0.98769 0.49957 0.55242 0.0
H88 H 0.05962 0.53398 0.57074 0.0
O89 O 0.99444 0.46821 0.52511 0.0
H90 H 0.0954 0.49545 0.55201 0.0
H91 H 0.04133 0.54661 0.6079 0.0
Cu92 Cu 0.51281 0.01464 0.03049 0.0
N93 N 0.51165 0.03941 0.03899 0.0
N94 N 0.51305 0.07077 0.03255 0.0
C95 C 0.51968 0.05706 0.02405 0.0
C96 C 0.5004 0.0614 0.05379 0.0
C97 C 0.49964 0.04203 0.05779 0.0
O98 O 0.52599 0.01985 0.99473 0.0
C99 C 0.47593 0.96908 0.035 0.0
O100 O 0.49041 0.96381 0.02658 0.0
H101 H 0.5287 0.05901 0.00601 0.0
H102 H 0.48999 0.03012 0.07236 0.0
N103 N 0.53246 0.0129 0.05671 0.0
N104 N 0.54994 0.99875 0.08035 0.0
C105 C 0.53838 0.99774 0.05674 0.0
C106 C 0.54094 0.02425 0.0809 0.0
C107 C 0.55179 0.01558 0.09554 0.0
C108 C 0.54808 0.03178 0.9945 0.0
O109 O 0.56078 0.03774 0.0177 0.0
H110 H 0.53372 0.98579 0.04004 0.0
H111 H 0.53838 0.03717 0.08789 0.0
O112 O 0.48146 0.9891 0.03471 0.0
H113 H 0.49157 0.06764 0.06486 0.0
H114 H 0.55913 0.02036 0.11635 0.0
Cu115 Cu 0.49919 0.508 0.52113 0.0
N116 N 0.50307 0.53498 0.53154 0.0
N117 N 0.50796 0.56785 0.52519 0.0
C118 C 0.50852 0.55081 0.51414 0.0
C119 C 0.50197 0.5626 0.55072 0.0
C120 C 0.49908 0.54228 0.55466 0.0
O121 O 0.48338 0.50092 0.48407 0.0
C122 C 0.53701 0.51456 0.55277 0.0
O123 O 0.52466 0.51731 0.57003 0.0
H124 H 0.5116 0.54925 0.49321 0.0
H125 H 0.49384 0.53329 0.57281 0.0
N126 N 0.47983 0.48586 0.54332 0.0
N127 N 0.46741 0.45591 0.56698 0.0
C128 C 0.48126 0.46818 0.54785 0.0
C129 C 0.4643 0.48472 0.55992 0.0
C130 C 0.45656 0.46622 0.5745 0.0
C131 C 0.46337 0.49859 0.48341 0.0
O132 O 0.45561 0.50008 0.50655 0.0
H133 H 0.4928 0.46481 0.53766 0.0
H134 H 0.45945 0.49678 0.56194 0.0
O135 O 0.52966 0.51082 0.52761 0.0
H136 H 0.49947 0.57253 0.56528 0.0
H137 H 0.44464 0.46134 0.59022 0.0
C138 C 0.24076 0.52022 0.1996 0.0
C139 C 0.24436 0.54083 0.19517 0.0
C140 C 0.26494 0.55589 0.20897 0.0
C141 C 0.27268 0.54372 0.2212 0.0
N142 N 0.25835 0.52175 0.21601 0.0
Co143 Co 0.26268 0.49824 0.23125 0.0
N144 N 0.29323 0.52053 0.25121 0.0
C145 C 0.30405 0.54266 0.25079 0.0
C146 C 0.32487 0.55386 0.26605 0.0
C147 C 0.32765 0.53797 0.27682 0.0
C148 C 0.30829 0.51786 0.26743 0.0
N149 N 0.26665 0.47472 0.24721 0.0
C150 C 0.28381 0.47628 0.2645 0.0
C151 C 0.27939 0.45566 0.27063 0.0
C152 C 0.25874 0.44057 0.25694 0.0
C153 C 0.2517 0.45273 0.24323 0.0
N154 N 0.23247 0.47596 0.21061 0.0
C155 C 0.22241 0.45384 0.20962 0.0
C156 C 0.20215 0.44269 0.19328 0.0
C157 C 0.19904 0.45859 0.18315 0.0
C158 C 0.21757 0.47865 0.19408 0.0
N159 N 0.27939 0.49853 0.19945 0.0
C160 C 0.30383 0.49889 0.15502 0.0
C161 C 0.28825 0.47922 0.16635 0.0
C162 C 0.27627 0.47941 0.18821 0.0
C163 C 0.30675 0.51837 0.16619 0.0
C164 C 0.29453 0.51783 0.18824 0.0
N165 N 0.24594 0.49791 0.263 0.0
C166 C 0.21486 0.47793 0.29211 0.0
C167 C 0.2212 0.49729 0.30713 0.0
C168 C 0.24037 0.51694 0.29996 0.0
C169 C 0.25237 0.51689 0.27797 0.0
C170 C 0.22738 0.4786 0.27041 0.0
H171 H 0.26667 0.53242 0.27338 0.0
H172 H 0.22164 0.46325 0.2599 0.0
H173 H 0.26474 0.46385 0.19577 0.0
H174 H 0.29771 0.53326 0.19591 0.0
C175 C 0.29365 0.55244 0.23697 0.0
C176 C 0.22022 0.49975 0.18796 0.0
C177 C 0.30485 0.49677 0.27511 0.0
C178 C 0.2318 0.44402 0.22536 0.0
H179 H 0.23323 0.54464 0.18327 0.0
H180 H 0.2733 0.57361 0.20994 0.0
H181 H 0.33649 0.5715 0.26928 0.0
H182 H 0.34219 0.54088 0.29032 0.0
H183 H 0.29013 0.45189 0.28342 0.0
H184 H 0.25005 0.42283 0.25668 0.0
H185 H 0.19086 0.42506 0.18939 0.0
H186 H 0.1847 0.45571 0.16931 0.0
H187 H 0.2856 0.46368 0.15885 0.0
H188 H 0.31836 0.53404 0.15796 0.0
H189 H 0.20035 0.46223 0.29717 0.0
H190 H 0.24585 0.5324 0.31088 0.0
C191 C 0.72031 0.21115 0.69363 0.0
C192 C 0.70074 0.20964 0.6809 0.0
C193 C 0.69544 0.22196 0.69682 0.0
C194 C 0.71197 0.23032 0.71828 0.0
N195 N 0.72765 0.22437 0.71671 0.0
Co196 Co 0.75378 0.23231 0.74418 0.0
N197 N 0.75076 0.25575 0.7619 0.0
C198 C 0.73233 0.25795 0.75891 0.0
C199 C 0.73519 0.27567 0.77392 0.0
C200 C 0.75675 0.28519 0.78733 0.0
C201 C 0.76581 0.27266 0.77966 0.0
N202 N 0.77978 0.2402 0.77174 0.0
C203 C 0.79236 0.25846 0.7886 0.0
C204 C 0.80925 0.25752 0.80454 0.0
C205 C 0.8069 0.23781 0.79757 0.0
C206 C 0.78888 0.22793 0.77779 0.0
N207 N 0.75687 0.20883 0.72656 0.0
C208 C 0.76896 0.20033 0.73713 0.0
C209 C 0.76806 0.18436 0.72036 0.0
C210 C 0.7542 0.18235 0.69798 0.0
C211 C 0.74726 0.19716 0.70249 0.0
N212 N 0.77587 0.25391 0.72011 0.0
C213 C 0.80811 0.28574 0.68686 0.0
C214 C 0.8124 0.27074 0.6996 0.0
C215 C 0.79619 0.25508 0.71601 0.0
C216 C 0.78707 0.28415 0.69109 0.0
C217 C 0.77131 0.26824 0.70766 0.0
N218 N 0.73167 0.21078 0.76835 0.0
C219 C 0.69844 0.17476 0.77496 0.0
C220 C 0.69957 0.18018 0.80268 0.0
C221 C 0.7173 0.20134 0.81277 0.0
C222 C 0.73312 0.21627 0.79541 0.0
C223 C 0.71448 0.1902 0.75827 0.0
H224 H 0.74654 0.23229 0.80399 0.0
H225 H 0.71279 0.18541 0.73712 0.0
H226 H 0.80021 0.24398 0.72548 0.0
H227 H 0.75549 0.26773 0.71057 0.0
C228 C 0.71455 0.24536 0.73875 0.0
C229 C 0.72899 0.19717 0.68537 0.0
C230 C 0.78786 0.27624 0.79125 0.0
C231 C 0.78287 0.20931 0.76139 0.0
H232 H 0.6908 0.2 0.66252 0.0
H233 H 0.68129 0.22459 0.69311 0.0
H234 H 0.72339 0.28145 0.77434 0.0
H235 H 0.76481 0.2996 0.8013 0.0
H236 H 0.82193 0.26976 0.81962 0.0
H237 H 0.8177 0.23186 0.8052 0.0
H238 H 0.77665 0.17542 0.72385 0.0
H239 H 0.74909 0.17075 0.68069 0.0
H240 H 0.82813 0.2709 0.69679 0.0
H241 H 0.7829 0.29541 0.68214 0.0
H242 H 0.68498 0.15879 0.76599 0.0
H243 H 0.71919 0.20632 0.83407 0.0
C244 C 0.52001 0.72978 0.22618 0.0
C245 C 0.49936 0.71335 0.21258 0.0
C246 C 0.48265 0.71724 0.21933 0.0
C247 C 0.49394 0.73572 0.2366 0.0
N248 N 0.51692 0.74399 0.24127 0.0
Co249 Co 0.53969 0.77067 0.26535 0.0
N250 N 0.5148 0.77577 0.27614 0.0
C251 C 0.49185 0.76294 0.26866 0.0
C252 C 0.47895 0.7705 0.27915 0.0
C253 C 0.49459 0.78943 0.29404 0.0
C254 C 0.51626 0.79242 0.29161 0.0
N255 N 0.56255 0.7977 0.28892 0.0
C256 C 0.55961 0.81258 0.30272 0.0
C257 C 0.58045 0.82974 0.31506 0.0
C258 C 0.59714 0.82565 0.30878 0.0
C259 C 0.58566 0.80639 0.29291 0.0
N260 N 0.56449 0.76526 0.255 0.0
C261 C 0.58725 0.77737 0.26373 0.0
C262 C 0.6 0.76939 0.25388 0.0
C263 C 0.58446 0.75095 0.23809 0.0
C264 C 0.56301 0.74871 0.23923 0.0
N265 N 0.5453 0.78954 0.2344 0.0
C266 C 0.55377 0.82186 0.19759 0.0
C267 C 0.57201 0.82091 0.21034 0.0
C268 C 0.56742 0.80467 0.22839 0.0
C269 C 0.53113 0.80522 0.20184 0.0
C270 C 0.52732 0.78921 0.22003 0.0
N271 N 0.53418 0.75196 0.29655 0.0
C272 C 0.5492 0.74185 0.33519 0.0
C273 C 0.52705 0.72442 0.33951 0.0
C274 C 0.5084 0.7213 0.3224 0.0
C275 C 0.51233 0.73513 0.30117 0.0
C276 C 0.55233 0.75533 0.31388 0.0
H277 H 0.49747 0.73169 0.28859 0.0
H278 H 0.56965 0.76825 0.31178 0.0
H279 H 0.58211 0.80518 0.23787 0.0
H280 H 0.50971 0.77725 0.2229 0.0
C281 C 0.48321 0.7449 0.25004 0.0
C282 C 0.54183 0.73059 0.2249 0.0
C283 C 0.53769 0.81166 0.30382 0.0
C284 C 0.59614 0.79629 0.28096 0.0
H285 H 0.49656 0.6997 0.19953 0.0
H286 H 0.46433 0.70746 0.2129 0.0
H287 H 0.46044 0.7634 0.27579 0.0
H288 H 0.49054 0.80005 0.30505 0.0
H289 H 0.58339 0.84397 0.32695 0.0
H290 H 0.61553 0.83576 0.31464 0.0
H291 H 0.61841 0.77616 0.25776 0.0
H292 H 0.58844 0.74031 0.22701 0.0
H293 H 0.58984 0.83302 0.20699 0.0
H294 H 0.51637 0.80512 0.19228 0.0
H295 H 0.56415 0.74513 0.34822 0.0
H296 H 0.4909 0.70789 0.3249 0.0
C297 C 0.75007 0.54714 0.71773 0.0
C298 C 0.75425 0.56722 0.70947 0.0
C299 C 0.77403 0.58314 0.72394 0.0
C300 C 0.78076 0.57198 0.7403 0.0
N301 N 0.76665 0.54985 0.73696 0.0
Co302 Co 0.76941 0.52762 0.75823 0.0
N303 N 0.79858 0.5511 0.77962 0.0
C304 C 0.8094 0.57306 0.77711 0.0
C305 C 0.83003 0.58505 0.79263 0.0
C306 C 0.83286 0.56987 0.80546 0.0
C307 C 0.81362 0.54936 0.79718 0.0
N308 N 0.77188 0.50544 0.77987 0.0
C309 C 0.78904 0.50799 0.79799 0.0
C310 C 0.78379 0.48807 0.80805 0.0
C311 C 0.76296 0.47232 0.79531 0.0
C312 C 0.75658 0.48345 0.7784 0.0
N313 N 0.74071 0.50406 0.73633 0.0
C314 C 0.73028 0.48209 0.73838 0.0
C315 C 0.71098 0.46989 0.72075 0.0
C316 C 0.70878 0.48494 0.70669 0.0
C317 C 0.72686 0.50557 0.71672 0.0
N318 N 0.78884 0.52585 0.73127 0.0
C319 C 0.82157 0.52453 0.70048 0.0
C320 C 0.80278 0.5052 0.70903 0.0
C321 C 0.78664 0.50622 0.72415 0.0
C322 C 0.82273 0.5443 0.70597 0.0
C323 C 0.80622 0.54455 0.72109 0.0
N324 N 0.74997 0.52952 0.78537 0.0
C325 C 0.7148 0.51241 0.80873 0.0
C326 C 0.71984 0.53288 0.81915 0.0
C327 C 0.74067 0.55152 0.81333 0.0
C328 C 0.75536 0.54948 0.79665 0.0
C329 C 0.73006 0.5111 0.7922 0.0
H330 H 0.77074 0.56439 0.79278 0.0
H331 H 0.72514 0.49503 0.78488 0.0
H332 H 0.77294 0.49101 0.73055 0.0
H333 H 0.80836 0.5602 0.72508 0.0
C334 C 0.80031 0.58178 0.75888 0.0
C335 C 0.72968 0.52604 0.7074 0.0
C336 C 0.81097 0.52867 0.80545 0.0
C337 C 0.73801 0.47352 0.7585 0.0
H338 H 0.7439 0.5701 0.69475 0.0
H339 H 0.78237 0.60078 0.72288 0.0
H340 H 0.84198 0.6027 0.79376 0.0
H341 H 0.84775 0.57352 0.81881 0.0
H342 H 0.79426 0.48515 0.82252 0.0
H343 H 0.75405 0.45473 0.79725 0.0
H344 H 0.69953 0.45217 0.71882 0.0
H345 H 0.69517 0.48116 0.69111 0.0
H346 H 0.80075 0.48938 0.70455 0.0
H347 H 0.8369 0.55973 0.69973 0.0
H348 H 0.69911 0.49741 0.81322 0.0
H349 H 0.74537 0.56778 0.82089 0.0
C350 C 0.26905 0.79436 0.3128 0.0
C351 C 0.26559 0.8104 0.32355 0.0
C352 C 0.24782 0.80923 0.30789 0.0
C353 C 0.24153 0.79274 0.28844 0.0
N354 N 0.25415 0.7832 0.29073 0.0
Co355 Co 0.25129 0.75918 0.266 0.0
N356 N 0.22471 0.75717 0.24352 0.0
C357 C 0.21563 0.76985 0.24655 0.0
C358 C 0.19656 0.76364 0.22911 0.0
C359 C 0.19288 0.74559 0.21445 0.0
C360 C 0.2101 0.74191 0.22379 0.0
N361 N 0.24841 0.73518 0.24129 0.0
C362 C 0.23146 0.72205 0.22183 0.0
C363 C 0.23523 0.70659 0.21006 0.0
C364 C 0.25506 0.70972 0.22307 0.0
C365 C 0.26221 0.72687 0.24189 0.0
N366 N 0.27771 0.76099 0.28867 0.0
C367 C 0.28739 0.74891 0.28473 0.0
C368 C 0.30502 0.7536 0.30381 0.0
C369 C 0.30681 0.76971 0.32092 0.0
C370 C 0.29019 0.77404 0.31114 0.0
N371 N 0.22878 0.73645 0.28942 0.0
C372 C 0.19512 0.70236 0.31952 0.0
C373 C 0.21404 0.70184 0.31084 0.0
C374 C 0.23045 0.71882 0.29602 0.0
C375 C 0.19363 0.72056 0.31308 0.0
C376 C 0.21053 0.7373 0.29829 0.0
N377 N 0.27384 0.78186 0.24215 0.0
C378 C 0.30793 0.7963 0.21659 0.0
C379 C 0.30522 0.81312 0.20705 0.0
C380 C 0.28659 0.81413 0.21588 0.0
C381 C 0.27138 0.7986 0.23325 0.0
C382 C 0.2923 0.7811 0.23382 0.0
H383 H 0.2577 0.80049 0.23907 0.0
H384 H 0.29564 0.7689 0.2401 0.0
H385 H 0.24421 0.71718 0.28976 0.0
H386 H 0.20843 0.75073 0.29402 0.0
C387 C 0.22396 0.78598 0.26772 0.0
C388 C 0.2872 0.79091 0.32372 0.0
C389 C 0.21078 0.72273 0.21514 0.0
C390 C 0.2798 0.73353 0.26265 0.0
H391 H 0.27508 0.82199 0.34072 0.0
H392 H 0.24051 0.81935 0.31023 0.0
H393 H 0.18592 0.77074 0.22811 0.0
H394 H 0.17861 0.7358 0.19937 0.0
H395 H 0.22428 0.69388 0.19441 0.0
H396 H 0.26266 0.6999 0.22014 0.0
H397 H 0.31542 0.74626 0.30504 0.0
H398 H 0.31908 0.7775 0.33852 0.0
H399 H 0.21602 0.68811 0.31491 0.0
H400 H 0.17958 0.72204 0.31961 0.0
H401 H 0.32227 0.7949 0.21109 0.0
H402 H 0.28341 0.82663 0.20911 0.0
C403 C 0.46992 0.26284 0.79744 0.0
C404 C 0.44909 0.2564 0.80839 0.0
C405 C 0.43451 0.23439 0.80147 0.0
C406 C 0.44708 0.22863 0.78652 0.0
N407 N 0.46861 0.24566 0.78335 0.0
Co408 Co 0.49211 0.2444 0.7625 0.0
N409 N 0.46839 0.21556 0.74359 0.0
C410 C 0.44697 0.20181 0.7514 0.0
C411 C 0.43453 0.18274 0.73519 0.0
C412 C 0.4491 0.18439 0.71614 0.0
C413 C 0.46971 0.20449 0.72178 0.0
N414 N 0.51567 0.24316 0.74177 0.0
C415 C 0.51305 0.22988 0.72002 0.0
C416 C 0.53443 0.23475 0.71218 0.0
C417 C 0.55092 0.25115 0.73005 0.0
C418 C 0.53879 0.25553 0.74762 0.0
N419 N 0.51582 0.27315 0.78152 0.0
C420 C 0.53887 0.28187 0.7834 0.0
C421 C 0.55105 0.30166 0.79824 0.0
C422 C 0.53463 0.30561 0.80641 0.0
C423 C 0.51326 0.28797 0.79596 0.0
N424 N 0.49722 0.22901 0.7916 0.0
C425 C 0.50355 0.20664 0.8335 0.0
C426 C 0.50241 0.22523 0.83926 0.0
C427 C 0.49916 0.2361 0.81808 0.0
C428 C 0.50164 0.19957 0.80633 0.0
C429 C 0.49861 0.21103 0.78572 0.0
N430 N 0.48692 0.25987 0.73373 0.0
C431 C 0.50183 0.29129 0.7066 0.0
C432 C 0.47926 0.28581 0.69846 0.0
C433 C 0.46064 0.26632 0.70714 0.0
C434 C 0.46484 0.25365 0.72476 0.0
C435 C 0.50527 0.27803 0.72404 0.0
H436 H 0.45015 0.23922 0.73185 0.0
H437 H 0.5228 0.28299 0.73055 0.0
H438 H 0.49805 0.25017 0.82326 0.0
H439 H 0.4973 0.20522 0.76504 0.0
C440 C 0.43825 0.20854 0.77182 0.0
C441 C 0.49098 0.2849 0.80243 0.0
C442 C 0.49081 0.21118 0.70797 0.0
C443 C 0.5485 0.27274 0.76768 0.0
H444 H 0.44483 0.26647 0.82024 0.0
H445 H 0.41661 0.22403 0.80598 0.0
H446 H 0.41685 0.16937 0.73674 0.0
H447 H 0.44518 0.17197 0.70031 0.0
H448 H 0.53779 0.22699 0.69558 0.0
H449 H 0.56954 0.25921 0.72989 0.0
H450 H 0.56966 0.31226 0.80204 0.0
H451 H 0.53802 0.31973 0.81896 0.0
H452 H 0.50357 0.23112 0.86001 0.0
H453 H 0.50269 0.1854 0.80099 0.0
H454 H 0.51681 0.30621 0.70057 0.0
H455 H 0.4429 0.26108 0.70087 0.0
H456 H 0.04596 0.48038 0.03658 0.0
H457 H 0.0752 0.47643 0.06256 0.0
H458 H 0.12023 0.54699 0.07207 0.0
H459 H 0.09105 0.55108 0.04659 0.0
H460 H 0.12041 0.48957 0.05639 0.0
H461 H 0.11635 0.53065 0.15025 0.0
H462 H 0.09545 0.52233 0.1214 0.0
H463 H 0.12335 0.54742 0.12166 0.0
C464 C 0.06219 0.49508 0.04392 0.0
C465 C 0.06599 0.51607 0.0395 0.0
C466 C 0.07891 0.49279 0.05889 0.0
C467 C 0.09981 0.5114 0.06994 0.0
C468 C 0.10406 0.53234 0.06448 0.0
H469 H 0.22401 0.51516 0.13713 0.0
H470 H 0.19482 0.51742 0.10834 0.0
C471 C 0.08737 0.53465 0.04961 0.0
C472 C 0.11698 0.50895 0.08743 0.0
H473 H 0.14654 0.52329 0.15029 0.0
C474 C 0.12607 0.49691 0.07694 0.0
C475 C 0.12419 0.51818 0.11449 0.0
C476 C 0.11418 0.53018 0.12776 0.0
C477 C 0.14241 0.49426 0.09243 0.0
C478 C 0.15027 0.50419 0.11913 0.0
C479 C 0.14081 0.51585 0.12979 0.0
C480 C 0.16809 0.50257 0.13643 0.0
C481 C 0.15075 0.48045 0.08017 0.0
C482 C 0.1632 0.49396 0.16221 0.0
C483 C 0.17997 0.49285 0.17875 0.0
C484 C 0.2021 0.50043 0.16999 0.0
C485 C 0.20706 0.50909 0.1443 0.0
C486 C 0.19029 0.51023 0.12777 0.0
H487 H 0.13846 0.46903 0.0633 0.0
H488 H 0.16768 0.49141 0.07182 0.0
H489 H 0.15313 0.47067 0.09564 0.0
H490 H 0.14632 0.48803 0.16953 0.0
H491 H 0.17574 0.48621 0.19851 0.0
H492 H 0.58993 0.02982 0.51934 0.0
H493 H 0.62339 0.05847 0.54777 0.0
H494 H 0.57779 0.0623 0.60152 0.0
H495 H 0.54419 0.03391 0.57299 0.0
H496 H 0.60927 0.10221 0.582 0.0
H497 H 0.65372 0.06116 0.62263 0.0
H498 H 0.64731 0.05741 0.58647 0.0
H499 H 0.624 0.04599 0.60836 0.0
C500 C 0.58698 0.03635 0.53756 0.0
C501 C 0.56436 0.02969 0.54377 0.0
C502 C 0.60616 0.0527 0.55385 0.0
C503 C 0.60306 0.06245 0.57677 0.0
C504 C 0.58053 0.05496 0.58387 0.0
H505 H 0.70001 0.15619 0.70129 0.0
H506 H 0.67093 0.12357 0.67318 0.0
C507 C 0.56134 0.03868 0.56758 0.0
C508 C 0.6231 0.08198 0.59169 0.0
H509 H 0.67437 0.10018 0.62893 0.0
C510 C 0.6235 0.10177 0.59231 0.0
C511 C 0.64159 0.0813 0.60508 0.0
C512 C 0.64163 0.0603 0.60587 0.0
C513 C 0.64185 0.12093 0.60608 0.0
C514 C 0.66051 0.12036 0.61914 0.0
C515 C 0.66016 0.10059 0.61853 0.0
C516 C 0.67958 0.1397 0.63538 0.0
C517 C 0.64077 0.14144 0.60721 0.0
C518 C 0.69439 0.15944 0.62331 0.0
C519 C 0.71103 0.17812 0.63939 0.0
C520 C 0.71306 0.17715 0.66762 0.0
C521 C 0.69874 0.15722 0.67951 0.0
C522 C 0.6822 0.13863 0.6635 0.0
H523 H 0.62312 0.13785 0.60103 0.0
H524 H 0.64607 0.14954 0.62799 0.0
H525 H 0.65289 0.15324 0.59322 0.0
H526 H 0.69278 0.16048 0.60157 0.0
H527 H 0.72193 0.1934 0.62995 0.0
H528 H 0.56888 0.5808 0.11208 0.0
H529 H 0.57011 0.6108 0.13836 0.0
H530 H 0.50565 0.59524 0.09619 0.0
H531 H 0.50401 0.56492 0.07025 0.0
H532 H 0.5708 0.64802 0.12003 0.0
H533 H 0.49335 0.59668 0.17634 0.0
H534 H 0.50748 0.58534 0.15845 0.0
H535 H 0.48831 0.5916 0.14013 0.0
C536 C 0.55481 0.58355 0.10857 0.0
C537 C 0.53629 0.57026 0.08903 0.0
C538 C 0.55562 0.60085 0.12352 0.0
C539 C 0.53784 0.60518 0.11956 0.0
C540 C 0.51941 0.59206 0.09998 0.0
H541 H 0.54041 0.72431 0.16997 0.0
H542 H 0.54007 0.69426 0.14447 0.0
C543 C 0.51863 0.57482 0.08492 0.0
C544 C 0.53879 0.62362 0.13556 0.0
H545 H 0.5098 0.6353 0.18057 0.0
C546 C 0.55747 0.64522 0.1333 0.0
C547 C 0.52157 0.62001 0.15316 0.0
C548 C 0.50163 0.59715 0.15744 0.0
C549 C 0.55918 0.66327 0.14772 0.0
C550 C 0.54162 0.65972 0.16473 0.0
C551 C 0.52316 0.63808 0.16738 0.0
C552 C 0.54218 0.6782 0.18012 0.0
C553 C 0.57997 0.68599 0.14493 0.0
C554 C 0.5431 0.67908 0.20863 0.0
C555 C 0.54328 0.69622 0.22315 0.0
C556 C 0.54232 0.7127 0.20942 0.0
C557 C 0.5413 0.71183 0.18095 0.0
C558 C 0.54121 0.69473 0.16643 0.0
H559 H 0.59446 0.68535 0.13673 0.0
H560 H 0.575 0.69486 0.13074 0.0
H561 H 0.5862 0.69559 0.16479 0.0
H562 H 0.54376 0.6665 0.21967 0.0
H563 H 0.54398 0.69654 0.2451 0.0
H564 H 0.01319 0.55921 0.61149 0.0
H565 H 0.98237 0.56108 0.63243 0.0
H566 H 0.935 0.49172 0.61226 0.0
H567 H 0.96552 0.48985 0.59127 0.0
H568 H 0.91743 0.5169 0.59604 0.0
H569 H 0.95309 0.53812 0.70382 0.0
H570 H 0.97207 0.55618 0.67987 0.0
H571 H 0.96429 0.52799 0.67907 0.0
C572 C 0.99629 0.54435 0.61198 0.0
C573 C 0.99166 0.52444 0.5996 0.0
C574 C 0.97874 0.54541 0.62392 0.0
C575 C 0.95645 0.5265 0.62397 0.0
C576 C 0.95205 0.50651 0.61231 0.0
H577 H 0.84099 0.5006 0.71363 0.0
H578 H 0.87356 0.5016 0.69391 0.0
C579 C 0.96946 0.50549 0.60027 0.0
C580 C 0.93722 0.5275 0.63485 0.0
H581 H 0.91839 0.53734 0.69279 0.0
C582 C 0.91763 0.52141 0.61719 0.0
C583 C 0.93754 0.53323 0.66246 0.0
C584 C 0.95777 0.53908 0.68252 0.0
C585 C 0.89819 0.52068 0.62644 0.0
C586 C 0.89858 0.52664 0.65399 0.0
C587 C 0.91824 0.5329 0.67163 0.0
C588 C 0.87844 0.52574 0.66517 0.0
C589 C 0.87717 0.51291 0.60684 0.0
C590 C 0.87036 0.53893 0.65543 0.0
C591 C 0.8515 0.53816 0.66637 0.0
C592 C 0.84054 0.52432 0.68743 0.0
C593 C 0.84871 0.51111 0.69707 0.0
C594 C 0.86749 0.51184 0.68605 0.0
H595 H 0.87753 0.50386 0.58853 0.0
H596 H 0.86095 0.50203 0.61664 0.0
H597 H 0.87674 0.52737 0.6001 0.0
H598 H 0.8788 0.55001 0.63959 0.0
H599 H 0.84557 0.54846 0.65841 0.0
H600 H 0.45853 0.92493 0.03781 0.0
H601 H 0.42791 0.89882 0.06498 0.0
H602 H 0.41679 0.94978 0.09254 0.0
H603 H 0.44707 0.97589 0.06488 0.0
H604 H 0.42695 0.89987 0.11878 0.0
H605 H 0.3509 0.90059 0.07432 0.0
H606 H 0.37767 0.91242 0.05809 0.0
H607 H 0.37482 0.92748 0.08561 0.0
C608 C 0.44929 0.93054 0.04921 0.0
C609 C 0.45528 0.95259 0.0489 0.0
C610 C 0.43179 0.91555 0.0649 0.0
C611 C 0.41969 0.9221 0.08074 0.0
C612 C 0.42534 0.94402 0.08009 0.0
H613 H 0.32097 0.85736 0.20435 0.0
H614 H 0.34814 0.88354 0.17388 0.0
C615 C 0.44279 0.95902 0.06426 0.0
C616 C 0.40232 0.90636 0.0991 0.0
H617 H 0.34618 0.88276 0.11565 0.0
C618 C 0.40926 0.89607 0.11791 0.0
C619 C 0.37916 0.90134 0.09827 0.0
C620 C 0.37008 0.91086 0.07782 0.0
C621 C 0.39396 0.88124 0.1359 0.0
C622 C 0.37083 0.87621 0.13503 0.0
C623 C 0.36388 0.88658 0.11642 0.0
C624 C 0.35362 0.86001 0.15306 0.0
C625 C 0.40284 0.87139 0.1561 0.0
C626 C 0.34718 0.83787 0.15129 0.0
C627 C 0.33145 0.82275 0.16854 0.0
C628 C 0.32164 0.82931 0.18813 0.0
C629 C 0.32785 0.85149 0.18948 0.0
C630 C 0.34354 0.86659 0.1721 0.0
H631 H 0.42208 0.88094 0.15886 0.0
H632 H 0.39594 0.87058 0.17614 0.0
H633 H 0.397 0.85438 0.14866 0.0
H634 H 0.35426 0.8322 0.13642 0.0
H635 H 0.3268 0.80581 0.16625 0.0
H636 H 0.49948 0.44425 0.56603 0.0
H637 H 0.49771 0.41278 0.5861 0.0
H638 H 0.43163 0.39338 0.61556 0.0
H639 H 0.43279 0.4246 0.59475 0.0
H640 H 0.46877 0.3973 0.65513 0.0
H641 H 0.45277 0.34549 0.56127 0.0
H642 H 0.47528 0.37406 0.56095 0.0
H643 H 0.44575 0.36654 0.56262 0.0
C644 C 0.48428 0.43315 0.57621 0.0
C645 C 0.46616 0.43699 0.5785 0.0
C646 C 0.48338 0.41516 0.58779 0.0
C647 C 0.46443 0.40067 0.60199 0.0
C648 C 0.44634 0.40438 0.60451 0.0
H649 H 0.44569 0.29546 0.70378 0.0
H650 H 0.44029 0.32186 0.6795 0.0
C651 C 0.44712 0.42231 0.59274 0.0
C652 C 0.4642 0.3823 0.61526 0.0
H653 H 0.4627 0.33459 0.60214 0.0
C654 C 0.4672 0.38344 0.64364 0.0
C655 C 0.46238 0.36444 0.60008 0.0
C656 C 0.45869 0.36235 0.56953 0.0
C657 C 0.46912 0.36746 0.65732 0.0
C658 C 0.46735 0.34956 0.64214 0.0
C659 C 0.46402 0.3483 0.61372 0.0
C660 C 0.46949 0.33228 0.65538 0.0
C661 C 0.47393 0.37038 0.68779 0.0
C662 C 0.48702 0.32861 0.64896 0.0
C663 C 0.48986 0.31312 0.66238 0.0
C664 C 0.47519 0.301 0.68251 0.0
C665 C 0.45718 0.30429 0.68824 0.0
C666 C 0.45426 0.31964 0.67466 0.0
H667 H 0.48104 0.38767 0.69534 0.0
H668 H 0.45752 0.3598 0.69734 0.0
H669 H 0.48639 0.36556 0.69452 0.0
H670 H 0.49883 0.33805 0.63393 0.0
H671 H 0.50364 0.31075 0.6571 0.0
H672 H 0.54951 0.98854 0.39837 0.0
H673 H 0.55284 0.95988 0.37544 0.0
H674 H 0.49389 0.9102 0.41416 0.0
H675 H 0.48991 0.93865 0.43643 0.0
H676 H 0.56083 0.92934 0.39669 0.0
H677 H 0.47632 0.88694 0.33548 0.0
H678 H 0.48835 0.91371 0.35256 0.0
H679 H 0.47378 0.88929 0.37114 0.0
C680 C 0.53699 0.97153 0.40175 0.0
C681 C 0.51935 0.96606 0.41929 0.0
C682 C 0.53904 0.95511 0.38873 0.0
C683 C 0.52345 0.93278 0.39272 0.0
C684 C 0.5059 0.92724 0.41028 0.0
H685 H 0.54368 0.82392 0.3579 0.0
H686 H 0.54085 0.85357 0.37946 0.0
C687 C 0.50381 0.94363 0.4233 0.0
C688 C 0.52592 0.91537 0.37905 0.0
H689 H 0.49708 0.86868 0.33678 0.0
C690 C 0.5469 0.91613 0.38353 0.0
C691 C 0.5079 0.89821 0.36154 0.0
C692 C 0.4854 0.89704 0.35464 0.0
C693 C 0.5502 0.90009 0.37143 0.0
C694 C 0.53189 0.88252 0.35467 0.0
C695 C 0.51106 0.88198 0.34981 0.0
C696 C 0.53405 0.86469 0.34171 0.0
C697 C 0.57344 0.90236 0.37633 0.0
C698 C 0.53071 0.86066 0.31335 0.0
C699 C 0.53223 0.84368 0.3011 0.0
C700 C 0.53704 0.83032 0.31694 0.0
C701 C 0.54027 0.83421 0.34527 0.0
C702 C 0.53873 0.8512 0.35755 0.0
H703 H 0.5873 0.9195 0.3831 0.0
H704 H 0.57249 0.8915 0.39251 0.0
H705 H 0.57841 0.89744 0.35772 0.0
H706 H 0.52695 0.8707 0.30066 0.0
H707 H 0.52952 0.84086 0.27922 0.0
H708 H 0.54885 0.52015 0.93262 0.0
H709 H 0.57721 0.52193 0.90292 0.0
H710 H 0.6328 0.57203 0.95749 0.0
H711 H 0.60463 0.57022 0.98753 0.0
H712 H 0.61473 0.55635 0.87658 0.0
H713 H 0.64441 0.52102 0.95609 0.0
H714 H 0.61805 0.52111 0.95743 0.0
H715 H 0.64563 0.54574 0.96687 0.0
C716 C 0.56708 0.53188 0.93807 0.0
C717 C 0.57449 0.54484 0.96265 0.0
C718 C 0.58326 0.53283 0.92108 0.0
C719 C 0.60707 0.54674 0.92836 0.0
C720 C 0.61448 0.56085 0.95184 0.0
H721 H 0.72953 0.55947 0.86492 0.0
H722 H 0.70226 0.56375 0.89045 0.0
C723 C 0.59834 0.55987 0.96889 0.0
C724 C 0.62408 0.54539 0.91245 0.0
H725 H 0.66471 0.53118 0.91657 0.0
C726 C 0.62568 0.55087 0.88527 0.0
C727 C 0.63821 0.53808 0.92386 0.0
C728 C 0.63643 0.53095 0.95258 0.0
C729 C 0.64137 0.54957 0.86928 0.0
C730 C 0.65549 0.54226 0.88073 0.0
C731 C 0.65391 0.53684 0.90792 0.0
C732 C 0.67192 0.5399 0.86484 0.0
C733 C 0.64298 0.55635 0.84044 0.0
C734 C 0.66382 0.52482 0.84225 0.0
C735 C 0.67934 0.52237 0.82759 0.0
C736 C 0.70327 0.5349 0.83534 0.0
C737 C 0.71126 0.54979 0.85822 0.0
C738 C 0.69571 0.55219 0.87288 0.0
H739 H 0.63547 0.56668 0.83698 0.0
H740 H 0.66127 0.56562 0.83519 0.0
H741 H 0.63319 0.54141 0.82645 0.0
H742 H 0.64546 0.51486 0.83603 0.0
H743 H 0.67265 0.5109 0.80994 0.0
H744 H 0.03859 0.52611 0.43834 0.0
H745 H 0.05861 0.55278 0.40375 0.0
H746 H 0.10001 0.60324 0.4671 0.0
H747 H 0.08018 0.57716 0.50121 0.0
H748 H 0.08541 0.61896 0.42592 0.0
H749 H 0.12497 0.57447 0.38498 0.0
H750 H 0.09387 0.55909 0.3842 0.0
H751 H 0.11087 0.56771 0.41622 0.0
C752 C 0.0517 0.54298 0.44478 0.0
C753 C 0.05781 0.5494 0.4726 0.0
C754 C 0.06334 0.55818 0.42502 0.0
C755 C 0.0812 0.58005 0.43273 0.0
C756 C 0.08646 0.58655 0.46047 0.0
H757 H 0.2017 0.67914 0.35885 0.0
H758 H 0.17262 0.64908 0.38371 0.0
C759 C 0.07505 0.5715 0.48003 0.0
C760 C 0.09513 0.59637 0.41257 0.0
H761 H 0.13555 0.60831 0.36686 0.0
C762 C 0.09615 0.6165 0.41274 0.0
C763 C 0.10951 0.59342 0.39564 0.0
C764 C 0.11001 0.57261 0.39525 0.0
C765 C 0.11135 0.63379 0.39707 0.0
C766 C 0.12581 0.63089 0.38021 0.0
C767 C 0.12446 0.6106 0.37961 0.0
C768 C 0.14335 0.64907 0.36431 0.0
C769 C 0.11252 0.65539 0.39971 0.0
C770 C 0.13678 0.65917 0.34478 0.0
C771 C 0.15347 0.67649 0.33045 0.0
C772 C 0.1772 0.68406 0.33506 0.0
C773 C 0.18366 0.67371 0.35443 0.0
C774 C 0.16698 0.65647 0.36878 0.0
H775 H 0.10474 0.65675 0.41822 0.0
H776 H 0.13072 0.6695 0.40041 0.0
H777 H 0.10276 0.65667 0.38186 0.0
H778 H 0.11867 0.65354 0.34039 0.0
H779 H 0.1477 0.68368 0.31539 0.0
H780 H 0.54993 0.09986 0.0067 0.0
H781 H 0.55198 0.12749 0.97679 0.0
H782 H 0.48319 0.10966 0.99497 0.0
H783 H 0.48139 0.08246 0.02538 0.0
H784 H 0.52509 0.11835 0.93191 0.0
H785 H 0.51523 0.17542 0.99856 0.0
H786 H 0.52174 0.15585 0.01181 0.0
H787 H 0.49235 0.14737 1.00103 0.0
C788 C 0.53548 0.10222 0.0047 0.0
C789 C 0.51552 0.08908 0.01834 0.0
C790 C 0.53665 0.11798 0.98766 0.0
C791 C 0.51783 0.12082 0.9838 0.0
C792 C 0.49817 0.10821 0.99814 0.0
H793 H 0.47986 0.16225 0.83823 0.0
H794 H 0.4844 0.14229 0.87505 0.0
C795 C 0.49712 0.09262 0.01548 0.0
C796 C 0.51779 0.13516 0.96266 0.0
H797 H 0.50784 0.17632 0.95063 0.0
C798 C 0.52159 0.1312 0.9361 0.0
C799 C 0.51346 0.15207 0.96814 0.0
C800 C 0.51071 0.15809 0.9965 0.0
C801 C 0.52058 0.14328 0.91475 0.0
C802 C 0.51494 0.15933 0.91995 0.0
C803 C 0.51183 0.16378 0.94663 0.0
C804 C 0.51196 0.17148 0.89788 0.0
C805 C 0.52575 0.1388 0.8869 0.0
C806 C 0.52542 0.19455 0.89892 0.0
C807 C 0.52269 0.20601 0.87803 0.0
C808 C 0.50645 0.19456 0.85573 0.0
C809 C 0.49281 0.17147 0.85491 0.0
C810 C 0.49542 0.16006 0.8759 0.0
H811 H 0.5365 0.13135 0.88804 0.0
H812 H 0.50922 0.12701 0.87492 0.0
H813 H 0.53493 0.15412 0.87591 0.0
H814 H 0.53822 0.20369 0.91577 0.0
H815 H 0.5335 0.2238 0.87912 0.0
H816 H 0.47665 0.50962 0.43096 0.0
H817 H 0.45241 0.50962 0.39178 0.0
H818 H 0.39344 0.48161 0.43963 0.0
H819 H 0.41715 0.48157 0.47826 0.0
H820 H 0.40692 0.47406 0.36372 0.0
H821 H 0.40122 0.54029 0.41533 0.0
H822 H 0.42314 0.53433 0.42547 0.0
H823 H 0.39424 0.51754 0.43585 0.0
C824 C 0.45843 0.5031 0.43289 0.0
C825 C 0.44895 0.49578 0.4579 0.0
C826 C 0.4446 0.5032 0.41054 0.0
C827 C 0.42115 0.49602 0.41289 0.0
C828 C 0.41153 0.48764 0.43738 0.0
H829 H 0.30109 0.48575 0.32795 0.0
H830 H 0.33027 0.48574 0.35955 0.0
C831 C 0.42519 0.48758 0.4595 0.0
C832 C 0.40655 0.49786 0.39057 0.0
H833 H 0.37412 0.52079 0.37727 0.0
C834 C 0.40001 0.48451 0.36646 0.0
C835 C 0.39741 0.51144 0.39411 0.0
C836 C 0.40449 0.52688 0.41896 0.0
C837 C 0.38388 0.4837 0.34642 0.0
C838 C 0.37421 0.49682 0.35038 0.0
C839 C 0.38129 0.51059 0.37418 0.0
C840 C 0.35627 0.49614 0.3306 0.0
C841 C 0.37658 0.46812 0.32169 0.0
C842 C 0.36104 0.5021 0.30373 0.0
C843 C 0.34433 0.5021 0.28569 0.0
C844 C 0.32251 0.49622 0.29412 0.0
C845 C 0.31772 0.49026 0.32092 0.0
C846 C 0.33442 0.49029 0.33896 0.0
H847 H 0.38123 0.45555 0.32467 0.0
H848 H 0.3576 0.45959 0.31651 0.0
H849 H 0.38548 0.47759 0.30418 0.0
H850 H 0.37784 0.50713 0.29682 0.0
H851 H 0.34849 0.50688 0.26517 0.0
H852 H 0.93404 0.44619 0.94381 0.0
H853 H 0.90435 0.41904 0.91041 0.0
H854 H 0.88094 0.36991 0.96969 0.0
H855 H 0.91091 0.3971 0.00332 0.0
H856 H 0.88872 0.35595 0.92265 0.0
H857 H 0.83517 0.39182 0.90018 0.0
H858 H 0.86536 0.41077 0.89648 0.0
H859 H 0.85592 0.4011 0.92937 0.0
C860 C 0.92224 0.42977 0.95 0.0
C861 C 0.92477 0.42379 0.97629 0.0
C862 C 0.90522 0.41426 0.93085 0.0
C863 C 0.89018 0.39255 0.93767 0.0
C864 C 0.89231 0.38663 0.96406 0.0
H865 H 0.78446 0.27352 0.84542 0.0
H866 H 0.80867 0.30226 0.88132 0.0
C867 C 0.90946 0.40212 0.9832 0.0
C868 C 0.87363 0.37562 0.91664 0.0
H869 H 0.82953 0.36311 0.86884 0.0
C870 C 0.87562 0.35741 0.9111 0.0
C871 C 0.85665 0.37764 0.90147 0.0
C872 C 0.85296 0.39628 0.90733 0.0
C873 C 0.86137 0.34136 0.89048 0.0
C874 C 0.84465 0.34355 0.87514 0.0
C875 C 0.84251 0.36165 0.88065 0.0
C876 C 0.82906 0.3269 0.8535 0.0
C877 C 0.8645 0.32234 0.88485 0.0
C878 C 0.83231 0.33154 0.82611 0.0
C879 C 0.8186 0.31515 0.80568 0.0
C880 C 0.80151 0.29409 0.81254 0.0
C881 C 0.79773 0.28971 0.83989 0.0
C882 C 0.81147 0.30602 0.86027 0.0
H883 H 0.88069 0.32498 0.89541 0.0
H884 H 0.84962 0.3071 0.89192 0.0
H885 H 0.86485 0.31969 0.86272 0.0
H886 H 0.84581 0.34763 0.82062 0.0
H887 H 0.82159 0.31873 0.78462 0.0
H888 H 0.96861 0.49538 0.90916 0.0
H889 H 0.94117 0.50107 0.88225 0.0
H890 H 0.93969 0.53948 0.94952 0.0
H891 H 0.96753 0.53424 0.97639 0.0
H892 H 0.89742 0.48766 0.89144 0.0
H893 H 0.94673 0.57844 0.8889 0.0
H894 H 0.96016 0.56362 0.89992 0.0
H895 H 0.94395 0.56924 0.92269 0.0
C896 C 0.96285 0.50542 0.91813 0.0
C897 C 0.97055 0.51448 0.945 0.0
C898 C 0.94699 0.50858 0.90268 0.0
C899 C 0.93839 0.52093 0.91356 0.0
C900 C 0.94636 0.53032 0.94025 0.0
H901 H 0.82924 0.54476 0.85774 0.0
H902 H 0.86009 0.543 0.88368 0.0
C903 C 0.96231 0.52724 0.9557 0.0
C904 C 0.92014 0.52281 0.89755 0.0
H905 H 0.9067 0.55959 0.87351 0.0
C906 C 0.89959 0.50343 0.8874 0.0
C907 C 0.92271 0.54333 0.89223 0.0
C908 C 0.94466 0.56485 0.90127 0.0
C909 C 0.88157 0.50395 0.8726 0.0
C910 C 0.88414 0.52445 0.86731 0.0
C911 C 0.90463 0.54385 0.87752 0.0
C912 C 0.86577 0.52604 0.85123 0.0
C913 C 0.85967 0.48246 0.86331 0.0
C914 C 0.85882 0.51744 0.82415 0.0
C915 C 0.84129 0.51855 0.80931 0.0
C916 C 0.83038 0.52841 0.82112 0.0
C917 C 0.83748 0.53723 0.84808 0.0
C918 C 0.85508 0.5362 0.8629 0.0
H919 H 0.85791 0.4686 0.87486 0.0
H920 H 0.84413 0.48347 0.86552 0.0
H921 H 0.86009 0.47866 0.84155 0.0
H922 H 0.86699 0.50988 0.81442 0.0
H923 H 0.83617 0.51163 0.78857 0.0
H924 H 0.45446 0.93714 0.48762 0.0
H925 H 0.4243 0.90285 0.46332 0.0
H926 H 0.37652 0.92499 0.46499 0.0
H927 H 0.40676 0.95961 0.48874 0.0
H928 H 0.37876 0.86871 0.47005 0.0
H929 H 0.3827 0.91877 0.384 0.0
H930 H 0.4036 0.92999 0.41308 0.0
H931 H 0.37552 0.92636 0.41505 0.0
C932 C 0.43738 0.93453 0.48344 0.0
C933 C 0.43311 0.95127 0.48973 0.0
C934 C 0.42016 0.9149 0.46949 0.0
C935 C 0.39838 0.91163 0.46176 0.0
C936 C 0.39341 0.92743 0.47021 0.0
H937 H 0.27994 0.79449 0.37678 0.0
H938 H 0.3071 0.82264 0.41179 0.0
C939 C 0.41067 0.94715 0.48392 0.0
C940 C 0.38181 0.89286 0.44263 0.0
H941 H 0.35473 0.88077 0.37881 0.0
C942 C 0.37343 0.87128 0.45011 0.0
C943 C 0.37531 0.89631 0.41641 0.0
C944 C 0.38489 0.91909 0.40647 0.0
C945 C 0.35847 0.85304 0.43212 0.0
C946 C 0.35148 0.85652 0.40619 0.0
C947 C 0.36 0.87811 0.39874 0.0
C948 C 0.33562 0.83819 0.3861 0.0
C949 C 0.35077 0.83027 0.4408 0.0
C950 C 0.34252 0.83767 0.36 0.0
C951 C 0.32696 0.82187 0.33999 0.0
C952 C 0.30424 0.8063 0.34577 0.0
C953 C 0.29747 0.80634 0.37204 0.0
C954 C 0.313 0.82228 0.39203 0.0
H955 H 0.36254 0.83072 0.45766 0.0
H956 H 0.33317 0.82265 0.44804 0.0
H957 H 0.35002 0.81963 0.42359 0.0
H958 H 0.35985 0.84982 0.35494 0.0
H959 H 0.33244 0.82212 0.31979 0.0
H960 H 0.48913 0.40848 0.99589 0.0
H961 H 0.48664 0.38074 0.96395 0.0
H962 H 0.51671 0.429 0.90426 0.0
H963 H 0.51979 0.45708 0.93617 0.0
H964 H 0.4758 0.3874 0.88435 0.0
H965 H 0.54162 0.37628 0.94023 0.0
H966 H 0.51933 0.37424 0.96005 0.0
H967 H 0.53945 0.40002 0.94657 0.0
C968 C 0.49552 0.41343 0.97616 0.0
C969 C 0.50479 0.4353 0.96894 0.0
C970 C 0.49402 0.39742 0.95782 0.0
C971 C 0.50171 0.40279 0.93175 0.0
C972 C 0.51068 0.42445 0.92426 0.0
H973 H 0.50079 0.3258 0.78995 0.0
H974 H 0.50338 0.3547 0.82046 0.0
C975 C 0.51233 0.44052 0.94263 0.0
C976 C 0.50016 0.38575 0.91225 0.0
H977 H 0.52003 0.35131 0.9026 0.0
C978 C 0.48554 0.37956 0.88825 0.0
C979 C 0.51281 0.37546 0.91736 0.0
C980 C 0.52935 0.3819 0.94232 0.0
C981 C 0.4828 0.36303 0.86959 0.0
C982 C 0.4955 0.35273 0.87465 0.0
C983 C 0.51024 0.35908 0.89861 0.0
C984 C 0.49357 0.33515 0.85567 0.0
C985 C 0.46572 0.35629 0.84508 0.0
C986 C 0.48789 0.31469 0.86528 0.0
C987 C 0.48672 0.29834 0.84794 0.0
C988 C 0.491 0.30196 0.82049 0.0
C989 C 0.49691 0.32245 0.81087 0.0
C990 C 0.49826 0.3389 0.82829 0.0
H991 H 0.45271 0.36084 0.84824 0.0
H992 H 0.47518 0.36488 0.82737 0.0
H993 H 0.45644 0.33828 0.84011 0.0
H994 H 0.48442 0.31138 0.88631 0.0
H995 H 0.48269 0.28288 0.85603 0.0
H996 H 0.12441 0.51021 0.51996 0.0
H997 H 0.1506 0.51202 0.48669 0.0
H998 H 0.09193 0.47045 0.42967 0.0
H999 H 0.06572 0.46852 0.46275 0.0
H1000 H 0.1534 0.47868 0.45856 0.0
H1001 H 0.13175 0.52561 0.38816 0.0
H1002 H 0.12428 0.52238 0.42291 0.0
H1003 H 0.10689 0.50053 0.39739 0.0
C1004 C 0.11708 0.50121 0.50049 0.0
C1005 C 0.09299 0.48942 0.49387 0.0
C1006 C 0.13207 0.50235 0.48146 0.0
C1007 C 0.1232 0.49177 0.45554 0.0
C1008 C 0.09914 0.47921 0.44933 0.0
H1009 H 0.17412 0.47454 0.30815 0.0
H1010 H 0.15161 0.47372 0.34539 0.0
C1011 C 0.08419 0.4781 0.46826 0.0
C1012 C 0.139 0.49406 0.43473 0.0
H1013 H 0.15339 0.5112 0.37101 0.0
C1014 C 0.1536 0.48596 0.43951 0.0
C1015 C 0.13926 0.50369 0.40998 0.0
C1016 C 0.12488 0.51375 0.40434 0.0
C1017 C 0.16786 0.48651 0.41971 0.0
C1018 C 0.16765 0.49563 0.39472 0.0
C1019 C 0.1534 0.50412 0.39017 0.0
C1020 C 0.18156 0.49596 0.37261 0.0
C1021 C 0.1825 0.47674 0.42529 0.0
C1022 C 0.20585 0.5089 0.37556 0.0
C1023 C 0.21879 0.5094 0.35431 0.0
C1024 C 0.20761 0.49692 0.32977 0.0
C1025 C 0.18325 0.48407 0.32692 0.0
C1026 C 0.17036 0.48367 0.3481 0.0
H1027 H 0.17738 0.46665 0.44328 0.0
H1028 H 0.18116 0.46632 0.40745 0.0
H1029 H 0.20093 0.49021 0.42916 0.0
H1030 H 0.21478 0.51874 0.39421 0.0
H1031 H 0.23752 0.51935 0.35717 0.0
H1032 H 0.53246 0.04484 0.95041 0.0
H1033 H 0.55587 0.06843 0.91514 0.0
H1034 H 0.61436 0.06587 0.94799 0.0
H1035 H 0.59136 0.04303 0.98346 0.0
H1036 H 0.62705 0.1069 0.94183 0.0
H1037 H 0.57859 0.0587 0.84611 0.0
H1038 H 0.56139 0.06354 0.868 0.0
H1039 H 0.57261 0.04688 0.87872 0.0
C1040 C 0.5501 0.04879 0.94957 0.0
C1041 C 0.55997 0.0419 0.96966 0.0
C1042 C 0.56354 0.06235 0.92938 0.0
C1043 C 0.58701 0.06898 0.92862 0.0
C1044 C 0.59642 0.06118 0.94801 0.0
H1045 H 0.68142 0.13553 0.80276 0.0
H1046 H 0.65385 0.10918 0.83272 0.0
C1047 C 0.58316 0.04795 0.96825 0.0
C1048 C 0.60248 0.08532 0.90929 0.0
H1049 H 0.60957 0.09551 0.84205 0.0
C1050 C 0.62317 0.10432 0.92 0.0
C1051 C 0.59772 0.08206 0.88071 0.0
C1052 C 0.5765 0.06161 0.86763 0.0
C1053 C 0.6391 0.11996 0.90321 0.0
C1054 C 0.63409 0.11701 0.87467 0.0
C1055 C 0.61343 0.098 0.86388 0.0
C1056 C 0.65037 0.13316 0.85577 0.0
C1057 C 0.66153 0.13916 0.91632 0.0
C1058 C 0.65751 0.15551 0.85824 0.0
C1059 C 0.67343 0.1707 0.84118 0.0
C1060 C 0.68243 0.16392 0.82085 0.0
C1061 C 0.67482 0.14142 0.81799 0.0
C1062 C 0.65902 0.12628 0.8352 0.0
H1063 H 0.66565 0.13571 0.93696 0.0
H1064 H 0.67623 0.14333 0.9039 0.0
H1065 H 0.65994 0.15375 0.91833 0.0
H1066 H 0.65071 0.16127 0.87337 0.0
H1067 H 0.67845 0.18774 0.8437 0.0
H1068 H 0.48559 0.58945 0.53242 0.0
H1069 H 0.48664 0.61747 0.50372 0.0
H1070 H 0.53742 0.61577 0.45728 0.0
H1071 H 0.53643 0.58792 0.48574 0.0
H1072 H 0.52392 0.6599 0.4895 0.0
H1073 H 0.48287 0.59957 0.40085 0.0
H1074 H 0.48294 0.59142 0.43513 0.0
H1075 H 0.50814 0.60106 0.41646 0.0
C1076 C 0.49725 0.59537 0.51639 0.0
C1077 C 0.51069 0.5863 0.51103 0.0
C1078 C 0.49776 0.61126 0.49997 0.0
C1079 C 0.5117 0.61825 0.47804 0.0
C1080 C 0.52612 0.61017 0.47371 0.0
H1081 H 0.55278 0.70641 0.35193 0.0
H1082 H 0.54724 0.68108 0.38723 0.0
C1083 C 0.52555 0.59429 0.48997 0.0
C1084 C 0.51075 0.63336 0.45888 0.0
H1085 H 0.50038 0.63749 0.39161 0.0
C1086 C 0.51846 0.65497 0.46817 0.0
C1087 C 0.50339 0.62674 0.43112 0.0
C1088 C 0.49364 0.60337 0.4203 0.0
C1089 C 0.52012 0.67049 0.45006 0.0
C1090 C 0.51383 0.66409 0.42216 0.0
C1091 C 0.50531 0.6423 0.41305 0.0
C1092 C 0.51737 0.68007 0.40175 0.0
C1093 C 0.52945 0.69383 0.46051 0.0
C1094 C 0.50228 0.68772 0.39827 0.0
C1095 C 0.50536 0.70218 0.37804 0.0
C1096 C 0.52366 0.70923 0.36115 0.0
C1097 C 0.53874 0.70152 0.36487 0.0
C1098 C 0.53556 0.687 0.38491 0.0
H1099 H 0.53502 0.69653 0.48253 0.0
H1100 H 0.54442 0.7054 0.44922 0.0
H1101 H 0.51586 0.69783 0.45698 0.0
H1102 H 0.48804 0.68236 0.41101 0.0
H1103 H 0.49356 0.70795 0.37572 0.0
H1104 H 0.51044 0.06738 0.56882 0.0
H1105 H 0.50917 0.09317 0.60073 0.0
H1106 H 0.47166 0.10656 0.53912 0.0
H1107 H 0.47203 0.08022 0.5074 0.0
H1108 H 0.52689 0.13709 0.59869 0.0
H1109 H 0.43156 0.09408 0.60147 0.0
H1110 H 0.44547 0.0812 0.58667 0.0
H1111 H 0.44097 0.10002 0.56787 0.0
C1112 C 0.50158 0.07549 0.56205 0.0
C1113 C 0.4912 0.07141 0.53534 0.0
C1114 C 0.50102 0.09043 0.58037 0.0
C1115 C 0.48998 0.10164 0.57262 0.0
C1116 C 0.47984 0.09782 0.54593 0.0
H1117 H 0.4736 0.20211 0.65465 0.0
H1118 H 0.47358 0.1759 0.62148 0.0
C1119 C 0.48034 0.08286 0.5276 0.0
C1120 C 0.48968 0.11774 0.59218 0.0
H1121 H 0.45372 0.1301 0.62286 0.0
C1122 C 0.51086 0.13546 0.60405 0.0
C1123 C 0.46881 0.11579 0.59923 0.0
C1124 C 0.4454 0.09664 0.58837 0.0
C1125 C 0.51177 0.15133 0.62231 0.0
C1126 C 0.49091 0.14935 0.62937 0.0
C1127 C 0.46973 0.13171 0.61744 0.0
C1128 C 0.49073 0.16517 0.64948 0.0
C1129 C 0.53514 0.17035 0.6335 0.0
C1130 C 0.49995 0.16761 0.67641 0.0
C1131 C 0.49993 0.18251 0.69526 0.0
C1132 C 0.49074 0.19534 0.68762 0.0
C1133 C 0.48105 0.1926 0.6609 0.0
C1134 C 0.481 0.17762 0.64202 0.0
H1135 H 0.54914 0.1728 0.62076 0.0
H1136 H 0.53518 0.18585 0.63499 0.0
H1137 H 0.5392 0.16693 0.65417 0.0
H1138 H 0.50703 0.15786 0.68293 0.0
H1139 H 0.5071 0.18402 0.71589 0.0
H1140 H 0.46613 0.52841 0.01694 0.0
H1141 H 0.43391 0.5282 0.03625 0.0
H1142 H 0.38821 0.45999 0.00878 0.0
H1143 H 0.42068 0.45981 0.99022 0.0
H1144 H 0.39145 0.51973 0.01943 0.0
H1145 H 0.38364 0.45698 0.08955 0.0
H1146 H 0.40721 0.47053 0.06807 0.0
H1147 H 0.37925 0.44826 0.05428 0.0
C1148 C 0.44916 0.51343 0.01453 0.0
C1149 C 0.44606 0.49399 1.00243 0.0
C1150 C 0.43072 0.51335 0.02562 0.0
C1151 C 0.4088 0.49392 0.02464 0.0
C1152 C 0.40516 0.475 0.01049 0.0
H1153 H 0.28962 0.4684 0.11205 0.0
H1154 H 0.31321 0.46697 0.07754 0.0
C1155 C 0.42369 0.47497 0.9997 0.0
C1156 C 0.3905 0.49322 0.04031 0.0
H1157 H 0.35792 0.46919 0.09361 0.0
C1158 C 0.38399 0.50856 0.03551 0.0
C1159 C 0.38093 0.47878 0.0615 0.0
C1160 C 0.38823 0.46284 0.0689 0.0
C1161 C 0.36839 0.50999 0.05152 0.0
C1162 C 0.35908 0.4957 0.07276 0.0
C1163 C 0.36505 0.47999 0.07712 0.0
C1164 C 0.34428 0.49764 0.09192 0.0
C1165 C 0.3621 0.52688 0.04592 0.0
C1166 C 0.35403 0.51537 0.11137 0.0
C1167 C 0.34076 0.51606 0.13145 0.0
C1168 C 0.31744 0.49903 0.1324 0.0
C1169 C 0.3076 0.4816 0.11228 0.0
C1170 C 0.32097 0.48084 0.09237 0.0
H1171 H 0.36725 0.53382 0.02584 0.0
H1172 H 0.34316 0.51953 0.04666 0.0
H1173 H 0.37109 0.54056 0.06181 0.0
H1174 H 0.37214 0.5283 0.11158 0.0
H1175 H 0.34907 0.52955 0.1468 0.0
H1176 H 0.94744 0.4418 0.52944 0.0
H1177 H 0.91295 0.4122 0.54951 0.0
H1178 H 0.95698 0.40028 0.60271 0.0
H1179 H 0.99102 0.42932 0.58302 0.0
H1180 H 0.89699 0.36447 0.55782 0.0
H1181 H 0.9196 0.41515 0.65411 0.0
H1182 H 0.93117 0.4269 0.62256 0.0
H1183 H 0.94308 0.41366 0.64183 0.0
C1184 C 0.94968 0.43258 0.54505 0.0
C1185 C 0.9721 0.43813 0.55466 0.0
C1186 C 0.92997 0.41573 0.55662 0.0
C1187 C 0.93235 0.40422 0.57804 0.0
C1188 C 0.95462 0.4091 0.58661 0.0
H1189 H 0.85585 0.30903 0.6945 0.0
H1190 H 0.88408 0.33697 0.66668 0.0
C1191 C 0.97414 0.42576 0.57517 0.0
C1192 C 0.91206 0.38764 0.59244 0.0
H1193 H 0.89141 0.37699 0.6554 0.0
C1194 C 0.89554 0.36729 0.57904 0.0
C1195 C 0.91016 0.39121 0.62021 0.0
C1196 C 0.9268 0.41297 0.63554 0.0
C1197 C 0.87784 0.35017 0.59292 0.0
C1198 C 0.87631 0.35357 0.62093 0.0
C1199 C 0.89251 0.37418 0.63405 0.0
C1200 C 0.85865 0.33587 0.63733 0.0
C1201 C 0.86158 0.32828 0.57771 0.0
C1202 C 0.83472 0.32583 0.63046 0.0
C1203 C 0.81841 0.3096 0.64631 0.0
C1204 C 0.82552 0.30299 0.66964 0.0
C1205 C 0.84953 0.31324 0.67653 0.0
C1206 C 0.86579 0.32944 0.66067 0.0
H1207 H 0.8686 0.32651 0.55874 0.0
H1208 H 0.85812 0.31447 0.59048 0.0
H1209 H 0.84485 0.3269 0.57207 0.0
H1210 H 0.82859 0.33071 0.61296 0.0
H1211 H 0.80017 0.3021 0.6401 0.0
H1212 H 0.52794 0.95572 0.06311 0.0
H1213 H 0.53466 0.92801 0.08103 0.0
H1214 H 0.59056 0.97746 0.13592 0.0
H1215 H 0.58393 0.00548 0.11798 0.0
H1216 H 0.57359 0.924 0.08528 0.0
H1217 H 0.54594 0.93213 0.18632 0.0
H1218 H 0.54124 0.94408 0.15683 0.0
H1219 H 0.56947 0.95709 0.1747 0.0
C1220 C 0.54198 0.96087 0.0786 0.0
C1221 C 0.55536 0.98284 0.08921 0.0
C1222 C 0.54573 0.94495 0.08891 0.0
C1223 C 0.56287 0.95064 0.11004 0.0
C1224 C 0.57694 0.97269 0.11994 0.0
H1225 H 0.58654 0.86511 0.21015 0.0
H1226 H 0.59181 0.89702 0.18709 0.0
C1227 C 0.57314 0.98865 0.10969 0.0
C1228 C 0.56501 0.93316 0.12253 0.0
H1229 H 0.55724 0.90651 0.18098 0.0
C1230 C 0.57017 0.92023 0.10625 0.0
C1231 C 0.56041 0.92825 0.14985 0.0
C1232 C 0.55376 0.94095 0.16795 0.0
C1233 C 0.57078 0.90244 0.11658 0.0
C1234 C 0.5658 0.89735 0.14375 0.0
C1235 C 0.56111 0.91054 0.16016 0.0
C1236 C 0.56443 0.87793 0.15549 0.0
C1237 C 0.57678 0.88929 0.09841 0.0
C1238 C 0.54741 0.85661 0.14516 0.0
C1239 C 0.54442 0.83827 0.15822 0.0
C1240 C 0.55835 0.84099 0.18188 0.0
C1241 C 0.57578 0.8624 0.19171 0.0
C1242 C 0.57874 0.88068 0.17867 0.0
H1243 H 0.58613 0.89868 0.08103 0.0
H1244 H 0.58764 0.88434 0.10989 0.0
H1245 H 0.56057 0.87412 0.09014 0.0
H1246 H 0.53591 0.85415 0.12756 0.0
H1247 H 0.53093 0.82201 0.15007 0.0
H1248 H 0.5736 0.51783 0.52593 0.0
H1249 H 0.60813 0.51893 0.54671 0.0
H1250 H 0.58189 0.51244 0.62541 0.0
H1251 H 0.54801 0.51145 0.60528 0.0
H1252 H 0.64142 0.55025 0.5931 0.0
H1253 H 0.59637 0.46267 0.61754 0.0
H1254 H 0.58481 0.47256 0.59172 0.0
H1255 H 0.58192 0.47651 0.62694 0.0
C1256 C 0.5752 0.51653 0.54762 0.0
C1257 C 0.55794 0.51459 0.56384 0.0
C1258 C 0.59495 0.51722 0.5595 0.0
C1259 C 0.59754 0.51556 0.58767 0.0
C1260 C 0.58026 0.5135 0.60366 0.0
H1261 H 0.68608 0.51477 0.71834 0.0
H1262 H 0.65538 0.51259 0.68731 0.0
C1263 C 0.56085 0.51305 0.59199 0.0
C1264 C 0.61824 0.51635 0.6011 0.0
H1265 H 0.6333 0.48686 0.64129 0.0
C1266 C 0.63981 0.53629 0.60322 0.0
C1267 C 0.61612 0.49823 0.61459 0.0
C1268 C 0.59362 0.4762 0.61246 0.0
C1269 C 0.65893 0.53887 0.61946 0.0
C1270 C 0.65662 0.52087 0.63361 0.0
C1271 C 0.63521 0.50073 0.63068 0.0
C1272 C 0.67573 0.52272 0.65244 0.0
C1273 C 0.68108 0.56119 0.6224 0.0
C1274 C 0.69749 0.529 0.64336 0.0
C1275 C 0.71508 0.53034 0.6612 0.0
C1276 C 0.71125 0.52529 0.68844 0.0
C1277 C 0.6895 0.51886 0.69748 0.0
C1278 C 0.67195 0.51757 0.6797 0.0
H1279 H 0.67823 0.57441 0.61609 0.0
H1280 H 0.68883 0.56517 0.64368 0.0
H1281 H 0.69375 0.56114 0.6093 0.0
H1282 H 0.70079 0.53255 0.62236 0.0
H1283 H 0.73162 0.5351 0.65366 0.0
H1284 H 0.0297 0.57817 0.07198 0.0
H1285 H 0.06273 0.60977 0.09757 0.0
H1286 H 0.05567 0.56902 0.16375 0.0
H1287 H 0.02327 0.53716 0.13787 0.0
H1288 H 0.06985 0.63101 0.1478 0.0
H1289 H 0.12144 0.59157 0.14354 0.0
H1290 H 0.09422 0.5809 0.12366 0.0
H1291 H 0.09463 0.5758 0.15905 0.0
C1292 C 0.03509 0.57595 0.09204 0.0
C1293 C 0.02409 0.55503 0.10262 0.0
C1294 C 0.05389 0.59404 0.10669 0.0
C1295 C 0.06199 0.59157 0.13223 0.0
C1296 C 0.05 0.57113 0.14376 0.0
H1297 H 0.18323 0.68479 0.23905 0.0
H1298 H 0.14659 0.65241 0.2197 0.0
C1299 C 0.03126 0.55297 0.12906 0.0
C1300 C 0.08371 0.61012 0.14598 0.0
H1301 H 0.13918 0.62613 0.16783 0.0
C1302 C 0.08499 0.62994 0.15225 0.0
C1303 C 0.10349 0.60868 0.15154 0.0
C1304 C 0.10355 0.58818 0.1439 0.0
C1305 C 0.10553 0.64838 0.16406 0.0
C1306 C 0.12524 0.64692 0.16952 0.0
C1307 C 0.12393 0.62707 0.16362 0.0
C1308 C 0.14758 0.66605 0.18084 0.0
C1309 C 0.10606 0.6693 0.17071 0.0
C1310 C 0.16037 0.68407 0.16508 0.0
C1311 C 0.18128 0.70236 0.17598 0.0
C1312 C 0.1895 0.70286 0.20279 0.0
C1313 C 0.17703 0.68463 0.21832 0.0
C1314 C 0.15619 0.66627 0.20736 0.0
H1315 H 0.08837 0.66649 0.17011 0.0
H1316 H 0.115 0.67653 0.19113 0.0
H1317 H 0.11587 0.68148 0.15569 0.0
H1318 H 0.15409 0.68399 0.14443 0.0
H1319 H 0.19086 0.71625 0.16369 0.0
loop_
_geom_bond_atom_site_label_1
_geom_bond_atom_site_label_2
_geom_bond_distance
_geom_bond_site_symmetry_2
_ccdc_geom_bond_type
Cu0 N1 1.999 1_454 S
Cu0 O6 1.974 1_454 S
Cu0 N11 1.985 . S
Cu0 O20 1.959 . S
N1 Cu0 1.999 1_656 S
N1 C3 1.263 . S
N1 C5 1.389 1_556 S
N2 C3 1.358 . S
N2 C4 1.400 . S
C3 N1 1.263 . S
C3 N2 1.358 . S
C3 H9 0.930 . S
C4 N2 1.400 . S
C4 C5 1.351 1_556 S
C4 H21 0.930 . S
C5 N1 1.389 1_554 S
C5 C4 1.351 1_554 S
C5 H10 0.930 . S
O6 Cu0 1.974 1_656 S
O6 C16 1.282 . S
C7 O8 1.258 1_554 S
C7 O20 1.251 . S
O8 C7 1.258 1_556 S
H9 C3 0.930 . S
H10 C5 0.930 . S
N11 Cu0 1.985 . S
N11 C13 1.335 . S
N11 C14 1.390 . S
N12 C13 1.345 . S
N12 C15 1.336 . S
C13 N11 1.335 . S
C13 N12 1.345 . S
C13 H18 0.930 . S
C14 N11 1.390 . S
C14 C15 1.346 . S
C14 H19 0.930 1_554 S
C15 N12 1.336 . S
C15 C14 1.346 . S
C15 H22 0.929 . S
C16 O6 1.282 . S
C16 O17 1.216 1_655 S
O17 C16 1.216 1_455 S
H18 C13 0.930 . S
H19 C14 0.930 1_556 S
O20 Cu0 1.959 . S
O20 C7 1.251 . S
H21 C4 0.930 . S
H22 C15 0.929 . S
Cu23 N24 1.999 . S
Cu23 O29 1.974 . S
Cu23 N34 1.985 1_565 S
Cu23 O43 1.959 1_565 S
N24 Cu23 1.999 . S
N24 C26 1.263 . S
N24 C28 1.389 . S
N25 C26 1.358 . S
N25 C27 1.400 . S
C26 N24 1.263 . S
C26 N25 1.358 . S
C26 H32 0.930 . S
C27 N25 1.400 . S
C27 C28 1.351 . S
C27 H44 0.930 . S
C28 N24 1.389 . S
C28 C27 1.351 . S
C28 H33 0.930 . S
O29 Cu23 1.974 . S
O29 C39 1.282 . S
C30 O31 1.261 . S
C30 O43 1.251 . S
O31 C30 1.261 . S
H32 C26 0.930 . S
H33 C28 0.930 . S
N34 Cu23 1.985 1_545 S
N34 C36 1.335 . S
N34 C37 1.390 . S
N35 C36 1.345 . S
N35 C38 1.336 . S
C36 N34 1.335 . S
C36 N35 1.345 . S
C36 H41 0.930 . S
C37 N34 1.390 . S
C37 C38 1.346 . S
C37 H42 0.930 . S
C38 N35 1.336 . S
C38 C37 1.346 . S
C38 H45 0.929 . S
C39 O29 1.282 . S
C39 O40 1.216 . S
O40 C39 1.216 . S
H41 C36 0.930 . S
H42 C37 0.930 . S
O43 Cu23 1.959 1_545 S
O43 C30 1.251 . S
H44 C27 0.930 . S
H45 C38 0.929 . S
Cu46 N47 1.999 1_554 S
Cu46 O52 1.974 1_554 S
Cu46 N57 1.985 . S
Cu46 O66 1.959 . S
N47 Cu46 1.999 1_556 S
N47 C49 1.263 . S
N47 C51 1.389 . S
N48 C49 1.358 . S
N48 C50 1.400 . S
C49 N47 1.263 . S
C49 N48 1.358 . S
C49 H55 0.930 . S
C50 N48 1.400 . S
C50 C51 1.351 . S
C50 H67 0.930 . S
C51 N47 1.389 . S
C51 C50 1.351 . S
C51 H56 0.930 . S
O52 Cu46 1.974 1_556 S
O52 C62 1.282 . S
C53 O54 1.261 . S
C53 O66 1.251 . S
O54 C53 1.261 . S
H55 C49 0.930 . S
H56 C51 0.930 . S
N57 Cu46 1.985 . S
N57 C59 1.335 . S
N57 C60 1.390 . S
N58 C59 1.345 . S
N58 C61 1.336 . S
C59 N57 1.335 . S
C59 N58 1.345 . S
C59 H64 0.930 . S
C60 N57 1.390 . S
C60 C61 1.346 . S
C60 H65 0.930 . S
C61 N58 1.336 . S
C61 C60 1.346 . S
C61 H68 0.929 . S
C62 O52 1.282 . S
C62 O63 1.216 1_556 S
O63 C62 1.216 1_554 S
H64 C59 0.930 . S
H65 C60 0.930 . S
O66 Cu46 1.959 . S
O66 C53 1.251 . S
H67 C50 0.930 . S
H68 C61 0.929 . S
Cu69 N70 1.999 1_655 S
Cu69 O75 1.974 1_655 S
Cu69 N80 1.985 . S
Cu69 O89 1.959 . S
N70 Cu69 1.999 1_455 S
N70 C72 1.263 . S
N70 C74 1.389 1_455 S
N71 C72 1.358 . S
N71 C73 1.400 . S
C72 N70 1.263 . S
C72 N71 1.358 . S
C72 H78 0.930 . S
C73 N71 1.400 . S
C73 C74 1.351 1_455 S
C73 H90 0.930 . S
C74 N70 1.389 1_655 S
C74 C73 1.351 1_655 S
C74 H79 0.930 . S
O75 Cu69 1.974 1_455 S
O75 C85 1.282 . S
C76 O77 1.261 1_655 S
C76 O89 1.251 . S
O77 C76 1.261 1_455 S
H78 C72 0.930 . S
H79 C74 0.930 . S
N80 Cu69 1.985 . S
N80 C82 1.335 . S
N80 C83 1.390 . S
N81 C82 1.345 . S
N81 C84 1.336 . S
C82 N80 1.335 . S
C82 N81 1.345 . S
C82 H87 0.930 . S
C83 N80 1.390 . S
C83 C84 1.346 . S
C83 H88 0.930 1_655 S
C84 N81 1.336 . S
C84 C83 1.346 . S
C84 H91 0.929 . S
C85 O75 1.282 . S
C85 O86 1.216 . S
O86 C85 1.216 . S
H87 C82 0.930 . S
H88 C83 0.930 1_455 S
O89 Cu69 1.959 . S
O89 C76 1.251 . S
H90 C73 0.930 . S
H91 C84 0.929 . S
Cu92 N93 1.999 . S
Cu92 O98 1.976 1_554 S
Cu92 N103 1.985 1_545 S
Cu92 O112 1.959 1_545 S
N93 Cu92 1.999 . S
N93 C95 1.263 1_554 S
N93 C97 1.389 . S
N94 C95 1.358 . S
N94 C96 1.400 1_556 S
C95 N93 1.263 1_556 S
C95 N94 1.358 . S
C95 H101 0.930 . S
C96 N94 1.400 1_554 S
C96 C97 1.351 . S
C96 H113 0.930 . S
C97 N93 1.389 . S
C97 C96 1.351 . S
C97 H102 0.930 . S
O98 Cu92 1.976 1_556 S
O98 C108 1.278 . S
C99 O100 1.261 . S
C99 O112 1.251 . S
O100 C99 1.261 . S
H101 C95 0.930 . S
H102 C97 0.930 . S
N103 Cu92 1.985 1_565 S
N103 C105 1.335 . S
N103 C106 1.390 . S
N104 C105 1.345 . S
N104 C107 1.336 . S
C105 N103 1.335 . S
C105 N104 1.345 . S
C105 H110 0.930 . S
C106 N103 1.390 . S
C106 C107 1.346 . S
C106 H111 0.919 1_565 S
C107 N104 1.336 . S
C107 C106 1.346 . S
C107 H114 0.929 . S
C108 O98 1.278 . S
C108 O109 1.216 . S
O109 C108 1.216 . S
H110 C105 0.930 . S
H111 C106 0.919 1_545 S
O112 Cu92 1.959 1_565 S
O112 C99 1.251 . S
H113 C96 0.930 . S
H114 C107 0.929 . S
Cu115 N116 1.999 . S
Cu115 O121 1.974 . S
Cu115 N126 1.985 . S
Cu115 O135 1.959 . S
N116 Cu115 1.999 . S
N116 C118 1.263 . S
N116 C120 1.389 . S
N117 C118 1.358 . S
N117 C119 1.400 . S
C118 N116 1.263 . S
C118 N117 1.358 . S
C118 H124 0.930 . S
C119 N117 1.400 . S
C119 C120 1.351 . S
C119 H136 0.930 . S
C120 N116 1.389 . S
C120 C119 1.351 . S
C120 H125 0.930 . S
O121 Cu115 1.974 . S
O121 C131 1.282 . S
C122 O123 1.261 . S
C122 O135 1.251 . S
O123 C122 1.261 . S
H124 C118 0.930 . S
H125 C120 0.930 . S
N126 Cu115 1.985 . S
N126 C128 1.335 . S
N126 C129 1.390 . S
N127 C128 1.345 . S
N127 C130 1.336 . S
C128 N126 1.335 . S
C128 N127 1.345 . S
C128 H133 0.930 . S
C129 N126 1.390 . S
C129 C130 1.346 . S
C129 H134 0.930 . S
C130 N127 1.336 . S
C130 C129 1.346 . S
C130 H137 0.929 . S
C131 O121 1.282 . S
C131 O132 1.216 . S
O132 C131 1.216 . S
H133 C128 0.930 . S
H134 C129 0.930 . S
O135 Cu115 1.959 . S
O135 C122 1.251 . S
H136 C119 0.930 . S
H137 C130 0.929 . S
C138 C139 1.443 . S
C138 N142 1.376 . S
C138 C176 1.389 . S
C139 C138 1.443 . S
C139 C140 1.340 . S
C139 H179 0.951 . S
C140 C139 1.340 . S
C140 C141 1.439 . S
C140 H180 0.950 . S
C141 C140 1.439 . S
C141 N142 1.374 . S
C141 C175 1.395 . S
N142 C138 1.376 . S
N142 C141 1.374 . S
N142 Co143 2.008 . S
Co143 N142 2.008 . S
Co143 N144 1.995 . S
Co143 N149 2.008 . S
Co143 N154 1.995 . S
Co143 N159 2.282 . S
Co143 N165 2.282 . S
N144 Co143 1.995 . S
N144 C145 1.376 . S
N144 C148 1.383 . S
C145 N144 1.376 . S
C145 C146 1.446 . S
C145 C175 1.391 . S
C146 C145 1.446 . S
C146 C147 1.339 . S
C146 H181 0.949 . S
C147 C146 1.339 . S
C147 C148 1.439 . S
C147 H182 0.950 . S
C148 N144 1.383 . S
C148 C147 1.439 . S
C148 C177 1.392 . S
N149 Co143 2.008 . S
N149 C150 1.376 . S
N149 C153 1.374 . S
C150 N149 1.376 . S
C150 C151 1.443 . S
C150 C177 1.389 . S
C151 C150 1.443 . S
C151 C152 1.340 . S
C151 H183 0.951 . S
C152 C151 1.340 . S
C152 C153 1.439 . S
C152 H184 0.950 . S
C153 N149 1.374 . S
C153 C152 1.439 . S
C153 C178 1.395 . S
N154 Co143 1.995 . S
N154 C155 1.376 . S
N154 C158 1.383 . S
C155 N154 1.376 . S
C155 C156 1.446 . S
C155 C178 1.391 . S
C156 C155 1.446 . S
C156 C157 1.339 . S
C156 H185 0.949 . S
C157 C156 1.339 . S
C157 C158 1.439 . S
C157 H186 0.950 . S
C158 N154 1.383 . S
C158 C157 1.439 . S
C158 C176 1.392 . S
N159 Co143 2.282 . S
N159 C162 1.332 . S
N159 C164 1.332 . S
C160 C161 1.386 . S
C160 C163 1.388 . S
C161 C160 1.386 . S
C161 C162 1.382 . S
C161 H187 0.950 . S
C162 N159 1.332 . S
C162 C161 1.382 . S
C162 H173 0.952 . S
C163 C160 1.388 . S
C163 C164 1.382 . S
C163 H188 0.950 . S
C164 N159 1.332 . S
C164 C163 1.382 . S
C164 H174 0.948 . S
N165 Co143 2.282 . S
N165 C169 1.332 . S
N165 C170 1.332 . S
C166 C167 1.388 . S
C166 C170 1.382 . S
C166 H189 0.950 . S
C167 C166 1.388 . S
C167 C168 1.386 . S
C168 C167 1.386 . S
C168 C169 1.382 . S
C168 H190 0.950 . S
C169 N165 1.332 . S
C169 C168 1.382 . S
C169 H171 0.952 . S
C170 N165 1.332 . S
C170 C166 1.382 . S
C170 H172 0.948 . S
H171 C169 0.952 . S
H172 C170 0.948 . S
H173 C162 0.952 . S
H174 C164 0.948 . S
C175 C141 1.395 . S
C175 C145 1.391 . S
C176 C138 1.389 . S
C176 C158 1.392 . S
C177 C148 1.392 . S
C177 C150 1.389 . S
C178 C153 1.395 . S
C178 C155 1.391 . S
H179 C139 0.951 . S
H180 C140 0.950 . S
H181 C146 0.949 . S
H182 C147 0.950 . S
H183 C151 0.951 . S
H184 C152 0.950 . S
H185 C156 0.949 . S
H186 C157 0.950 . S
H187 C161 0.950 . S
H188 C163 0.950 . S
H189 C166 0.950 . S
H190 C168 0.950 . S
C191 C192 1.443 . S
C191 N195 1.376 . S
C191 C229 1.389 . S
C192 C191 1.443 . S
C192 C193 1.340 . S
C192 H232 0.951 . S
C193 C192 1.340 . S
C193 C194 1.439 . S
C193 H233 0.950 . S
C194 C193 1.439 . S
C194 N195 1.374 . S
C194 C228 1.395 . S
N195 C191 1.376 . S
N195 C194 1.374 . S
N195 Co196 2.008 . S
Co196 N195 2.008 . S
Co196 N197 1.995 . S
Co196 N202 2.008 . S
Co196 N207 1.995 . S
Co196 N212 2.282 . S
Co196 N218 2.282 . S
N197 Co196 1.995 . S
N197 C198 1.376 . S
N197 C201 1.383 . S
C198 N197 1.376 . S
C198 C199 1.446 . S
C198 C228 1.391 . S
C199 C198 1.446 . S
C199 C200 1.339 . S
C199 H234 0.949 . S
C200 C199 1.339 . S
C200 C201 1.439 . S
C200 H235 0.950 . S
C201 N197 1.383 . S
C201 C200 1.439 . S
C201 C230 1.392 . S
N202 Co196 2.008 . S
N202 C203 1.376 . S
N202 C206 1.374 . S
C203 N202 1.376 . S
C203 C204 1.443 . S
C203 C230 1.389 . S
C204 C203 1.443 . S
C204 C205 1.340 . S
C204 H236 0.951 . S
C205 C204 1.340 . S
C205 C206 1.439 . S
C205 H237 0.950 . S
C206 N202 1.374 . S
C206 C205 1.439 . S
C206 C231 1.395 . S
N207 Co196 1.995 . S
N207 C208 1.376 . S
N207 C211 1.383 . S
C208 N207 1.376 . S
C208 C209 1.446 . S
C208 C231 1.391 . S
C209 C208 1.446 . S
C209 C210 1.339 . S
C209 H238 0.949 . S
C210 C209 1.339 . S
C210 C211 1.439 . S
C210 H239 0.950 . S
C211 N207 1.383 . S
C211 C210 1.439 . S
C211 C229 1.392 . S
N212 Co196 2.282 . S
N212 C215 1.332 . S
N212 C217 1.332 . S
C213 C214 1.386 . S
C213 C216 1.388 . S
C214 C213 1.386 . S
C214 C215 1.382 . S
C214 H240 0.950 . S
C215 N212 1.332 . S
C215 C214 1.382 . S
C215 H226 0.952 . S
C216 C213 1.388 . S
C216 C217 1.382 . S
C216 H241 0.950 . S
C217 N212 1.332 . S
C217 C216 1.382 . S
C217 H227 0.948 . S
N218 Co196 2.282 . S
N218 C222 1.332 . S
N218 C223 1.332 . S
C219 C220 1.388 . S
C219 C223 1.382 . S
C219 H242 0.950 . S
C220 C219 1.388 . S
C220 C221 1.386 . S
C221 C220 1.386 . S
C221 C222 1.382 . S
C221 H243 0.950 . S
C222 N218 1.332 . S
C222 C221 1.382 . S
C222 H224 0.952 . S
C223 N218 1.332 . S
C223 C219 1.382 . S
C223 H225 0.948 . S
H224 C222 0.952 . S
H225 C223 0.948 . S
H226 C215 0.952 . S
H227 C217 0.948 . S
C228 C194 1.395 . S
C228 C198 1.391 . S
C229 C191 1.389 . S
C229 C211 1.392 . S
C230 C201 1.392 . S
C230 C203 1.389 . S
C231 C206 1.395 . S
C231 C208 1.391 . S
H232 C192 0.951 . S
H233 C193 0.950 . S
H234 C199 0.949 . S
H235 C200 0.950 . S
H236 C204 0.951 . S
H237 C205 0.950 . S
H238 C209 0.949 . S
H239 C210 0.950 . S
H240 C214 0.950 . S
H241 C216 0.950 . S
H242 C219 0.950 . S
H243 C221 0.950 . S
C244 C245 1.443 . S
C244 N248 1.376 . S
C244 C282 1.389 . S
C245 C244 1.443 . S
C245 C246 1.340 . S
C245 H285 0.951 . S
C246 C245 1.340 . S
C246 C247 1.439 . S
C246 H286 0.950 . S
C247 C246 1.439 . S
C247 N248 1.374 . S
C247 C281 1.395 . S
N248 C244 1.376 . S
N248 C247 1.374 . S
N248 Co249 2.008 . S
Co249 N248 2.008 . S
Co249 N250 1.995 . S
Co249 N255 2.008 . S
Co249 N260 1.995 . S
Co249 N265 2.282 . S
Co249 N271 2.282 . S
N250 Co249 1.995 . S
N250 C251 1.376 . S
N250 C254 1.383 . S
C251 N250 1.376 . S
C251 C252 1.446 . S
C251 C281 1.391 . S
C252 C251 1.446 . S
C252 C253 1.339 . S
C252 H287 0.949 . S
C253 C252 1.339 . S
C253 C254 1.439 . S
C253 H288 0.950 . S
C254 N250 1.383 . S
C254 C253 1.439 . S
C254 C283 1.392 . S
N255 Co249 2.008 . S
N255 C256 1.376 . S
N255 C259 1.374 . S
C256 N255 1.376 . S
C256 C257 1.443 . S
C256 C283 1.389 . S
C257 C256 1.443 . S
C257 C258 1.340 . S
C257 H289 0.951 . S
C258 C257 1.340 . S
C258 C259 1.439 . S
C258 H290 0.950 . S
C259 N255 1.374 . S
C259 C258 1.439 . S
C259 C284 1.395 . S
N260 Co249 1.995 . S
N260 C261 1.376 . S
N260 C264 1.383 . S
C261 N260 1.376 . S
C261 C262 1.446 . S
C261 C284 1.391 . S
C262 C261 1.446 . S
C262 C263 1.339 . S
C262 H291 0.949 . S
C263 C262 1.339 . S
C263 C264 1.439 . S
C263 H292 0.950 . S
C264 N260 1.383 . S
C264 C263 1.439 . S
C264 C282 1.392 . S
N265 Co249 2.282 . S
N265 C268 1.332 . S
N265 C270 1.332 . S
C266 C267 1.386 . S
C266 C269 1.388 . S
C267 C266 1.386 . S
C267 C268 1.382 . S
C267 H293 0.950 . S
C268 N265 1.332 . S
C268 C267 1.382 . S
C268 H279 0.952 . S
C269 C266 1.388 . S
C269 C270 1.382 . S
C269 H294 0.950 . S
C270 N265 1.332 . S
C270 C269 1.382 . S
C270 H280 0.948 . S
N271 Co249 2.282 . S
N271 C275 1.332 . S
N271 C276 1.332 . S
C272 C273 1.388 . S
C272 C276 1.382 . S
C272 H295 0.950 . S
C273 C272 1.388 . S
C273 C274 1.386 . S
C274 C273 1.386 . S
C274 C275 1.382 . S
C274 H296 0.950 . S
C275 N271 1.332 . S
C275 C274 1.382 . S
C275 H277 0.952 . S
C276 N271 1.332 . S
C276 C272 1.382 . S
C276 H278 0.948 . S
H277 C275 0.952 . S
H278 C276 0.948 . S
H279 C268 0.952 . S
H280 C270 0.948 . S
C281 C247 1.395 . S
C281 C251 1.391 . S
C282 C244 1.389 . S
C282 C264 1.392 . S
C283 C254 1.392 . S
C283 C256 1.389 . S
C284 C259 1.395 . S
C284 C261 1.391 . S
H285 C245 0.951 . S
H286 C246 0.950 . S
H287 C252 0.949 . S
H288 C253 0.950 . S
H289 C257 0.951 . S
H290 C258 0.950 . S
H291 C262 0.949 . S
H292 C263 0.950 . S
H293 C267 0.950 . S
H294 C269 0.950 . S
H295 C272 0.950 . S
H296 C274 0.950 . S
C297 C298 1.443 . S
C297 N301 1.376 . S
C297 C335 1.389 . S
C298 C297 1.443 . S
C298 C299 1.340 . S
C298 H338 0.951 . S
C299 C298 1.340 . S
C299 C300 1.439 . S
C299 H339 0.950 . S
C300 C299 1.439 . S
C300 N301 1.374 . S
C300 C334 1.395 . S
N301 C297 1.376 . S
N301 C300 1.374 . S
N301 Co302 2.008 . S
Co302 N301 2.008 . S
Co302 N303 1.995 . S
Co302 N308 2.008 . S
Co302 N313 1.995 . S
Co302 N318 2.282 . S
Co302 N324 2.282 . S
N303 Co302 1.995 . S
N303 C304 1.376 . S
N303 C307 1.383 . S
C304 N303 1.376 . S
C304 C305 1.446 . S
C304 C334 1.391 . S
C305 C304 1.446 . S
C305 C306 1.339 . S
C305 H340 0.949 . S
C306 C305 1.339 . S
C306 C307 1.439 . S
C306 H341 0.950 . S
C307 N303 1.383 . S
C307 C306 1.439 . S
C307 C336 1.392 . S
N308 Co302 2.008 . S
N308 C309 1.376 . S
N308 C312 1.374 . S
C309 N308 1.376 . S
C309 C310 1.443 . S
C309 C336 1.389 . S
C310 C309 1.443 . S
C310 C311 1.340 . S
C310 H342 0.951 . S
C311 C310 1.340 . S
C311 C312 1.439 . S
C311 H343 0.950 . S
C312 N308 1.374 . S
C312 C311 1.439 . S
C312 C337 1.395 . S
N313 Co302 1.995 . S
N313 C314 1.376 . S
N313 C317 1.383 . S
C314 N313 1.376 . S
C314 C315 1.446 . S
C314 C337 1.391 . S
C315 C314 1.446 . S
C315 C316 1.339 . S
C315 H344 0.949 . S
C316 C315 1.339 . S
C316 C317 1.439 . S
C316 H345 0.950 . S
C317 N313 1.383 . S
C317 C316 1.439 . S
C317 C335 1.392 . S
N318 Co302 2.282 . S
N318 C321 1.332 . S
N318 C323 1.332 . S
C319 C320 1.386 . S
C319 C322 1.388 . S
C320 C319 1.386 . S
C320 C321 1.382 . S
C320 H346 0.950 . S
C321 N318 1.332 . S
C321 C320 1.382 . S
C321 H332 0.952 . S
C322 C319 1.388 . S
C322 C323 1.382 . S
C322 H347 0.950 . S
C323 N318 1.332 . S
C323 C322 1.382 . S
C323 H333 0.948 . S
N324 Co302 2.282 . S
N324 C328 1.332 . S
N324 C329 1.332 . S
C325 C326 1.388 . S
C325 C329 1.382 . S
C325 H348 0.950 . S
C326 C325 1.388 . S
C326 C327 1.386 . S
C327 C326 1.386 . S
C327 C328 1.382 . S
C327 H349 0.950 . S
C328 N324 1.332 . S
C328 C327 1.382 . S
C328 H330 0.952 . S
C329 N324 1.332 . S
C329 C325 1.382 . S
C329 H331 0.948 . S
H330 C328 0.952 . S
H331 C329 0.948 . S
H332 C321 0.952 . S
H333 C323 0.948 . S
C334 C300 1.395 . S
C334 C304 1.391 . S
C335 C297 1.389 . S
C335 C317 1.392 . S
C336 C307 1.392 . S
C336 C309 1.389 . S
C337 C312 1.395 . S
C337 C314 1.391 . S
H338 C298 0.951 . S
H339 C299 0.950 . S
H340 C305 0.949 . S
H341 C306 0.950 . S
H342 C310 0.951 . S
H343 C311 0.950 . S
H344 C315 0.949 . S
H345 C316 0.950 . S
H346 C320 0.950 . S
H347 C322 0.950 . S
H348 C325 0.950 . S
H349 C327 0.950 . S
C350 C351 1.443 . S
C350 N354 1.376 . S
C350 C388 1.389 . S
C351 C350 1.443 . S
C351 C352 1.340 . S
C351 H391 0.951 . S
C352 C351 1.340 . S
C352 C353 1.439 . S
C352 H392 0.950 . S
C353 C352 1.439 . S
C353 N354 1.374 . S
C353 C387 1.395 . S
N354 C350 1.376 . S
N354 C353 1.374 . S
N354 Co355 2.008 . S
Co355 N354 2.008 . S
Co355 N356 1.995 . S
Co355 N361 2.008 . S
Co355 N366 1.995 . S
Co355 N371 2.282 . S
Co355 N377 2.282 . S
N356 Co355 1.995 . S
N356 C357 1.376 . S
N356 C360 1.383 . S
C357 N356 1.376 . S
C357 C358 1.446 . S
C357 C387 1.391 . S
C358 C357 1.446 . S
C358 C359 1.339 . S
C358 H393 0.949 . S
C359 C358 1.339 . S
C359 C360 1.439 . S
C359 H394 0.950 . S
C360 N356 1.383 . S
C360 C359 1.439 . S
C360 C389 1.392 . S
N361 Co355 2.008 . S
N361 C362 1.376 . S
N361 C365 1.374 . S
C362 N361 1.376 . S
C362 C363 1.443 . S
C362 C389 1.389 . S
C363 C362 1.443 . S
C363 C364 1.340 . S
C363 H395 0.951 . S
C364 C363 1.340 . S
C364 C365 1.439 . S
C364 H396 0.950 . S
C365 N361 1.374 . S
C365 C364 1.439 . S
C365 C390 1.395 . S
N366 Co355 1.995 . S
N366 C367 1.376 . S
N366 C370 1.383 . S
C367 N366 1.376 . S
C367 C368 1.446 . S
C367 C390 1.391 . S
C368 C367 1.446 . S
C368 C369 1.339 . S
C368 H397 0.949 . S
C369 C368 1.339 . S
C369 C370 1.439 . S
C369 H398 0.950 . S
C370 N366 1.383 . S
C370 C369 1.439 . S
C370 C388 1.392 . S
N371 Co355 2.282 . S
N371 C374 1.332 . S
N371 C376 1.332 . S
C372 C373 1.386 . S
C372 C375 1.388 . S
C373 C372 1.386 . S
C373 C374 1.382 . S
C373 H399 0.950 . S
C374 N371 1.332 . S
C374 C373 1.382 . S
C374 H385 0.952 . S
C375 C372 1.388 . S
C375 C376 1.382 . S
C375 H400 0.950 . S
C376 N371 1.332 . S
C376 C375 1.382 . S
C376 H386 0.948 . S
N377 Co355 2.282 . S
N377 C381 1.332 . S
N377 C382 1.332 . S
C378 C379 1.388 . S
C378 C382 1.382 . S
C378 H401 0.950 . S
C379 C378 1.388 . S
C379 C380 1.386 . S
C380 C379 1.386 . S
C380 C381 1.382 . S
C380 H402 0.950 . S
C381 N377 1.332 . S
C381 C380 1.382 . S
C381 H383 0.952 . S
C382 N377 1.332 . S
C382 C378 1.382 . S
C382 H384 0.948 . S
H383 C381 0.952 . S
H384 C382 0.948 . S
H385 C374 0.952 . S
H386 C376 0.948 . S
C387 C353 1.395 . S
C387 C357 1.391 . S
C388 C350 1.389 . S
C388 C370 1.392 . S
C389 C360 1.392 . S
C389 C362 1.389 . S
C390 C365 1.395 . S
C390 C367 1.391 . S
H391 C351 0.951 . S
H392 C352 0.950 . S
H393 C358 0.949 . S
H394 C359 0.950 . S
H395 C363 0.951 . S
H396 C364 0.950 . S
H397 C368 0.949 . S
H398 C369 0.950 . S
H399 C373 0.950 . S
H400 C375 0.950 . S
H401 C378 0.950 . S
H402 C380 0.950 . S
C403 C404 1.443 . S
C403 N407 1.376 . S
C403 C441 1.389 . S
C404 C403 1.443 . S
C404 C405 1.340 . S
C404 H444 0.951 . S
C405 C404 1.340 . S
C405 C406 1.439 . S
C405 H445 0.950 . S
C406 C405 1.439 . S
C406 N407 1.374 . S
C406 C440 1.395 . S
N407 C403 1.376 . S
N407 C406 1.374 . S
N407 Co408 2.008 . S
Co408 N407 2.008 . S
Co408 N409 1.995 . S
Co408 N414 2.008 . S
Co408 N419 1.995 . S
Co408 N424 2.282 . S
Co408 N430 2.282 . S
N409 Co408 1.995 . S
N409 C410 1.376 . S
N409 C413 1.383 . S
C410 N409 1.376 . S
C410 C411 1.446 . S
C410 C440 1.391 . S
C411 C410 1.446 . S
C411 C412 1.339 . S
C411 H446 0.949 . S
C412 C411 1.339 . S
C412 C413 1.439 . S
C412 H447 0.950 . S
C413 N409 1.383 . S
C413 C412 1.439 . S
C413 C442 1.392 . S
N414 Co408 2.008 . S
N414 C415 1.376 . S
N414 C418 1.374 . S
C415 N414 1.376 . S
C415 C416 1.443 . S
C415 C442 1.389 . S
C416 C415 1.443 . S
C416 C417 1.340 . S
C416 H448 0.951 . S
C417 C416 1.340 . S
C417 C418 1.439 . S
C417 H449 0.950 . S
C418 N414 1.374 . S
C418 C417 1.439 . S
C418 C443 1.395 . S
N419 Co408 1.995 . S
N419 C420 1.376 . S
N419 C423 1.383 . S
C420 N419 1.376 . S
C420 C421 1.446 . S
C420 C443 1.391 . S
C421 C420 1.446 . S
C421 C422 1.339 . S
C421 H450 0.949 . S
C422 C421 1.339 . S
C422 C423 1.439 . S
C422 H451 0.950 . S
C423 N419 1.383 . S
C423 C422 1.439 . S
C423 C441 1.392 . S
N424 Co408 2.282 . S
N424 C427 1.332 . S
N424 C429 1.332 . S
C425 C426 1.386 . S
C425 C428 1.388 . S
C426 C425 1.386 . S
C426 C427 1.382 . S
C426 H452 0.950 . S
C427 N424 1.332 . S
C427 C426 1.382 . S
C427 H438 0.952 . S
C428 C425 1.388 . S
C428 C429 1.382 . S
C428 H453 0.950 . S
C429 N424 1.332 . S
C429 C428 1.382 . S
C429 H439 0.948 . S
N430 Co408 2.282 . S
N430 C434 1.332 . S
N430 C435 1.332 . S
C431 C432 1.388 . S
C431 C435 1.382 . S
C431 H454 0.950 . S
C432 C431 1.388 . S
C432 C433 1.386 . S
C433 C432 1.386 . S
C433 C434 1.382 . S
C433 H455 0.950 . S
C434 N430 1.332 . S
C434 C433 1.382 . S
C434 H436 0.952 . S
C435 N430 1.332 . S
C435 C431 1.382 . S
C435 H437 0.948 . S
H436 C434 0.952 . S
H437 C435 0.948 . S
H438 C427 0.952 . S
H439 C429 0.948 . S
C440 C406 1.395 . S
C440 C410 1.391 . S
C441 C403 1.389 . S
C441 C423 1.392 . S
C442 C413 1.392 . S
C442 C415 1.389 . S
C443 C418 1.395 . S
C443 C420 1.391 . S
H444 C404 0.951 . S
H445 C405 0.950 . S
H446 C411 0.949 . S
H447 C412 0.950 . S
H448 C416 0.951 . S
H449 C417 0.950 . S
H450 C421 0.949 . S
H451 C422 0.950 . S
H452 C426 0.950 . S
H453 C428 0.950 . S
H454 C431 0.950 . S
H455 C433 0.950 . S
H456 C464 0.929 . S
H457 C466 0.930 . S
H458 C468 0.930 . S
H459 C471 0.929 . S
H460 C474 0.930 . S
H461 C476 0.960 . S
H462 C476 0.960 . S
H463 C476 0.960 . S
C464 H456 0.929 . S
C464 C465 1.377 . S
C464 C466 1.384 . S
C465 C464 1.377 . S
C465 C471 1.390 . S
C466 H457 0.930 . S
C466 C464 1.384 . S
C466 C467 1.372 . S
C467 C466 1.372 . S
C467 C468 1.400 . S
C467 C472 1.490 . S
C468 H458 0.930 . S
C468 C467 1.400 . S
C468 C471 1.386 . S
H469 C485 0.930 . S
H470 C486 0.931 . S
C471 H459 0.929 . S
C471 C465 1.390 . S
C471 C468 1.386 . S
C472 C467 1.490 . S
C472 C474 1.395 . S
C472 C475 1.403 . S
H473 C479 0.930 . S
C474 H460 0.930 . S
C474 C472 1.395 . S
C474 C477 1.403 . S
C475 C472 1.403 . S
C475 C476 1.524 . S
C475 C479 1.400 . S
C476 H461 0.960 . S
C476 H462 0.960 . S
C476 H463 0.960 . S
C476 C475 1.524 . S
C477 C474 1.403 . S
C477 C478 1.392 . S
C477 C481 1.495 . S
C478 C477 1.392 . S
C478 C479 1.385 . S
C478 C480 1.478 . S
C479 H473 0.930 . S
C479 C475 1.400 . S
C479 C478 1.385 . S
C480 C478 1.478 . S
C480 C482 1.381 . S
C480 C486 1.383 . S
C481 C477 1.495 . S
C481 H487 0.959 . S
C481 H488 0.961 . S
C481 H489 0.960 . S
C482 C480 1.381 . S
C482 C483 1.394 . S
C482 H490 0.930 . S
C483 C482 1.394 . S
C483 C484 1.383 . S
C483 H491 0.929 . S
C484 C483 1.383 . S
C484 C485 1.377 . S
C485 H469 0.930 . S
C485 C484 1.377 . S
C485 C486 1.379 . S
C486 H470 0.931 . S
C486 C480 1.383 . S
C486 C485 1.379 . S
H487 C481 0.959 . S
H488 C481 0.961 . S
H489 C481 0.960 . S
H490 C482 0.930 . S
H491 C483 0.929 . S
H492 C500 0.929 . S
H493 C502 0.930 . S
H494 C504 0.930 . S
H495 C507 0.929 . S
H496 C510 0.930 . S
H497 C512 0.960 . S
H498 C512 0.960 . S
H499 C512 0.960 . S
C500 H492 0.929 . S
C500 C501 1.377 . S
C500 C502 1.384 . S
C501 C500 1.377 . S
C501 C507 1.390 . S
C502 H493 0.930 . S
C502 C500 1.384 . S
C502 C503 1.372 . S
C503 C502 1.372 . S
C503 C504 1.400 . S
C503 C508 1.490 . S
C504 H494 0.930 . S
C504 C503 1.400 . S
C504 C507 1.386 . S
H505 C521 0.930 . S
H506 C522 0.931 . S
C507 H495 0.929 . S
C507 C501 1.390 . S
C507 C504 1.386 . S
C508 C503 1.490 . S
C508 C510 1.395 . S
C508 C511 1.403 . S
H509 C515 0.930 . S
C510 H496 0.930 . S
C510 C508 1.395 . S
C510 C513 1.403 . S
C511 C508 1.403 . S
C511 C512 1.524 . S
C511 C515 1.400 . S
C512 H497 0.960 . S
C512 H498 0.960 . S
C512 H499 0.960 . S
C512 C511 1.524 . S
C513 C510 1.403 . S
C513 C514 1.392 . S
C513 C517 1.495 . S
C514 C513 1.392 . S
C514 C515 1.385 . S
C514 C516 1.478 . S
C515 H509 0.930 . S
C515 C511 1.400 . S
C515 C514 1.385 . S
C516 C514 1.478 . S
C516 C518 1.381 . S
C516 C522 1.383 . S
C517 C513 1.495 . S
C517 H523 0.959 . S
C517 H524 0.961 . S
C517 H525 0.960 . S
C518 C516 1.381 . S
C518 C519 1.394 . S
C518 H526 0.930 . S
C519 C518 1.394 . S
C519 C520 1.383 . S
C519 H527 0.929 . S
C520 C519 1.383 . S
C520 C521 1.377 . S
C521 H505 0.930 . S
C521 C520 1.377 . S
C521 C522 1.379 . S
C522 H506 0.931 . S
C522 C516 1.383 . S
C522 C521 1.379 . S
H523 C517 0.959 . S
H524 C517 0.961 . S
H525 C517 0.960 . S
H526 C518 0.930 . S
H527 C519 0.929 . S
H528 C536 0.929 . S
H529 C538 0.930 . S
H530 C540 0.930 . S
H531 C543 0.929 . S
H532 C546 0.930 . S
H533 C548 0.960 . S
H534 C548 0.960 . S
H535 C548 0.960 . S
C536 H528 0.929 . S
C536 C537 1.377 . S
C536 C538 1.384 . S
C537 C536 1.377 . S
C537 C543 1.390 . S
C538 H529 0.930 . S
C538 C536 1.384 . S
C538 C539 1.372 . S
C539 C538 1.372 . S
C539 C540 1.400 . S
C539 C544 1.490 . S
C540 H530 0.930 . S
C540 C539 1.400 . S
C540 C543 1.386 . S
H541 C557 0.930 . S
H542 C558 0.931 . S
C543 H531 0.929 . S
C543 C537 1.390 . S
C543 C540 1.386 . S
C544 C539 1.490 . S
C544 C546 1.395 . S
C544 C547 1.403 . S
H545 C551 0.930 . S
C546 H532 0.930 . S
C546 C544 1.395 . S
C546 C549 1.403 . S
C547 C544 1.403 . S
C547 C548 1.524 . S
C547 C551 1.400 . S
C548 H533 0.960 . S
C548 H534 0.960 . S
C548 H535 0.960 . S
C548 C547 1.524 . S
C549 C546 1.403 . S
C549 C550 1.392 . S
C549 C553 1.495 . S
C550 C549 1.392 . S
C550 C551 1.385 . S
C550 C552 1.478 . S
C551 H545 0.930 . S
C551 C547 1.400 . S
C551 C550 1.385 . S
C552 C550 1.478 . S
C552 C554 1.381 . S
C552 C558 1.383 . S
C553 C549 1.495 . S
C553 H559 0.959 . S
C553 H560 0.961 . S
C553 H561 0.960 . S
C554 C552 1.381 . S
C554 C555 1.394 . S
C554 H562 0.930 . S
C555 C554 1.394 . S
C555 C556 1.383 . S
C555 H563 0.929 . S
C556 C555 1.383 . S
C556 C557 1.377 . S
C557 H541 0.930 . S
C557 C556 1.377 . S
C557 C558 1.379 . S
C558 H542 0.931 . S
C558 C552 1.383 . S
C558 C557 1.379 . S
H559 C553 0.959 . S
H560 C553 0.961 . S
H561 C553 0.960 . S
H562 C554 0.930 . S
H563 C555 0.929 . S
H564 C572 0.929 . S
H565 C574 0.930 . S
H566 C576 0.930 . S
H567 C579 0.929 . S
H568 C582 0.930 . S
H569 C584 0.960 . S
H570 C584 0.960 . S
H571 C584 0.960 . S
C572 H564 0.929 . S
C572 C573 1.377 . S
C572 C574 1.384 . S
C573 C572 1.377 . S
C573 C579 1.390 . S
C574 H565 0.930 . S
C574 C572 1.384 . S
C574 C575 1.372 . S
C575 C574 1.372 . S
C575 C576 1.400 . S
C575 C580 1.490 . S
C576 H566 0.930 . S
C576 C575 1.400 . S
C576 C579 1.386 . S
H577 C593 0.930 . S
H578 C594 0.931 . S
C579 H567 0.929 . S
C579 C573 1.390 . S
C579 C576 1.386 . S
C580 C575 1.490 . S
C580 C582 1.395 . S
C580 C583 1.403 . S
H581 C587 0.930 . S
C582 H568 0.930 . S
C582 C580 1.395 . S
C582 C585 1.403 . S
C583 C580 1.403 . S
C583 C584 1.524 . S
C583 C587 1.400 . S
C584 H569 0.960 . S
C584 H570 0.960 . S
C584 H571 0.960 . S
C584 C583 1.524 . S
C585 C582 1.403 . S
C585 C586 1.392 . S
C585 C589 1.495 . S
C586 C585 1.392 . S
C586 C587 1.385 . S
C586 C588 1.478 . S
C587 H581 0.930 . S
C587 C583 1.400 . S
C587 C586 1.385 . S
C588 C586 1.478 . S
C588 C590 1.381 . S
C588 C594 1.383 . S
C589 C585 1.495 . S
C589 H595 0.959 . S
C589 H596 0.961 . S
C589 H597 0.960 . S
C590 C588 1.381 . S
C590 C591 1.394 . S
C590 H598 0.930 . S
C591 C590 1.394 . S
C591 C592 1.383 . S
C591 H599 0.929 . S
C592 C591 1.383 . S
C592 C593 1.377 . S
C593 H577 0.930 . S
C593 C592 1.377 . S
C593 C594 1.379 . S
C594 H578 0.931 . S
C594 C588 1.383 . S
C594 C593 1.379 . S
H595 C589 0.959 . S
H596 C589 0.961 . S
H597 C589 0.960 . S
H598 C590 0.930 . S
H599 C591 0.929 . S
H600 C608 0.929 . S
H601 C610 0.930 . S
H602 C612 0.930 . S
H603 C615 0.929 . S
H604 C618 0.930 . S
H605 C620 0.960 . S
H606 C620 0.960 . S
H607 C620 0.960 . S
C608 H600 0.929 . S
C608 C609 1.377 . S
C608 C610 1.384 . S
C609 C608 1.377 . S
C609 C615 1.390 . S
C610 H601 0.930 . S
C610 C608 1.384 . S
C610 C611 1.372 . S
C611 C610 1.372 . S
C611 C612 1.400 . S
C611 C616 1.490 . S
C612 H602 0.930 . S
C612 C611 1.400 . S
C612 C615 1.386 . S
H613 C629 0.930 . S
H614 C630 0.931 . S
C615 H603 0.929 . S
C615 C609 1.390 . S
C615 C612 1.386 . S
C616 C611 1.490 . S
C616 C618 1.395 . S
C616 C619 1.403 . S
H617 C623 0.930 . S
C618 H604 0.930 . S
C618 C616 1.395 . S
C618 C621 1.403 . S
C619 C616 1.403 . S
C619 C620 1.524 . S
C619 C623 1.400 . S
C620 H605 0.960 . S
C620 H606 0.960 . S
C620 H607 0.960 . S
C620 C619 1.524 . S
C621 C618 1.403 . S
C621 C622 1.392 . S
C621 C625 1.495 . S
C622 C621 1.392 . S
C622 C623 1.385 . S
C622 C624 1.478 . S
C623 H617 0.930 . S
C623 C619 1.400 . S
C623 C622 1.385 . S
C624 C622 1.478 . S
C624 C626 1.381 . S
C624 C630 1.383 . S
C625 C621 1.495 . S
C625 H631 0.959 . S
C625 H632 0.961 . S
C625 H633 0.960 . S
C626 C624 1.381 . S
C626 C627 1.394 . S
C626 H634 0.930 . S
C627 C626 1.394 . S
C627 C628 1.383 . S
C627 H635 0.929 . S
C628 C627 1.383 . S
C628 C629 1.377 . S
C629 H613 0.930 . S
C629 C628 1.377 . S
C629 C630 1.379 . S
C630 H614 0.931 . S
C630 C624 1.383 . S
C630 C629 1.379 . S
H631 C625 0.959 . S
H632 C625 0.961 . S
H633 C625 0.960 . S
H634 C626 0.930 . S
H635 C627 0.929 . S
H636 C644 0.929 . S
H637 C646 0.930 . S
H638 C648 0.930 . S
H639 C651 0.929 . S
H640 C654 0.930 . S
H641 C656 0.960 . S
H642 C656 0.960 . S
H643 C656 0.960 . S
C644 H636 0.929 . S
C644 C645 1.377 . S
C644 C646 1.384 . S
C645 C644 1.377 . S
C645 C651 1.390 . S
C646 H637 0.930 . S
C646 C644 1.384 . S
C646 C647 1.372 . S
C647 C646 1.372 . S
C647 C648 1.400 . S
C647 C652 1.490 . S
C648 H638 0.930 . S
C648 C647 1.400 . S
C648 C651 1.386 . S
H649 C665 0.930 . S
H650 C666 0.931 . S
C651 H639 0.929 . S
C651 C645 1.390 . S
C651 C648 1.386 . S
C652 C647 1.490 . S
C652 C654 1.395 . S
C652 C655 1.403 . S
H653 C659 0.930 . S
C654 H640 0.930 . S
C654 C652 1.395 . S
C654 C657 1.403 . S
C655 C652 1.403 . S
C655 C656 1.524 . S
C655 C659 1.400 . S
C656 H641 0.960 . S
C656 H642 0.960 . S
C656 H643 0.960 . S
C656 C655 1.524 . S
C657 C654 1.403 . S
C657 C658 1.392 . S
C657 C661 1.495 . S
C658 C657 1.392 . S
C658 C659 1.385 . S
C658 C660 1.478 . S
C659 H653 0.930 . S
C659 C655 1.400 . S
C659 C658 1.385 . S
C660 C658 1.478 . S
C660 C662 1.381 . S
C660 C666 1.383 . S
C661 C657 1.495 . S
C661 H667 0.959 . S
C661 H668 0.961 . S
C661 H669 0.960 . S
C662 C660 1.381 . S
C662 C663 1.394 . S
C662 H670 0.930 . S
C663 C662 1.394 . S
C663 C664 1.383 . S
C663 H671 0.929 . S
C664 C663 1.383 . S
C664 C665 1.377 . S
C665 H649 0.930 . S
C665 C664 1.377 . S
C665 C666 1.379 . S
C666 H650 0.931 . S
C666 C660 1.383 . S
C666 C665 1.379 . S
H667 C661 0.959 . S
H668 C661 0.961 . S
H669 C661 0.960 . S
H670 C662 0.930 . S
H671 C663 0.929 . S
H672 C680 0.929 . S
H673 C682 0.930 . S
H674 C684 0.930 . S
H675 C687 0.929 . S
H676 C690 0.930 . S
H677 C692 0.960 . S
H678 C692 0.960 . S
H679 C692 0.960 . S
C680 H672 0.929 . S
C680 C681 1.377 . S
C680 C682 1.384 . S
C681 C680 1.377 . S
C681 C687 1.390 . S
C682 H673 0.930 . S
C682 C680 1.384 . S
C682 C683 1.372 . S
C683 C682 1.372 . S
C683 C684 1.400 . S
C683 C688 1.490 . S
C684 H674 0.930 . S
C684 C683 1.400 . S
C684 C687 1.386 . S
H685 C701 0.930 . S
H686 C702 0.931 . S
C687 H675 0.929 . S
C687 C681 1.390 . S
C687 C684 1.386 . S
C688 C683 1.490 . S
C688 C690 1.395 . S
C688 C691 1.403 . S
H689 C695 0.930 . S
C690 H676 0.930 . S
C690 C688 1.395 . S
C690 C693 1.403 . S
C691 C688 1.403 . S
C691 C692 1.524 . S
C691 C695 1.400 . S
C692 H677 0.960 . S
C692 H678 0.960 . S
C692 H679 0.960 . S
C692 C691 1.524 . S
C693 C690 1.403 . S
C693 C694 1.392 . S
C693 C697 1.495 . S
C694 C693 1.392 . S
C694 C695 1.385 . S
C694 C696 1.478 . S
C695 H689 0.930 . S
C695 C691 1.400 . S
C695 C694 1.385 . S
C696 C694 1.478 . S
C696 C698 1.381 . S
C696 C702 1.383 . S
C697 C693 1.495 . S
C697 H703 0.959 . S
C697 H704 0.961 . S
C697 H705 0.960 . S
C698 C696 1.381 . S
C698 C699 1.394 . S
C698 H706 0.930 . S
C699 C698 1.394 . S
C699 C700 1.383 . S
C699 H707 0.929 . S
C700 C699 1.383 . S
C700 C701 1.377 . S
C701 H685 0.930 . S
C701 C700 1.377 . S
C701 C702 1.379 . S
C702 H686 0.931 . S
C702 C696 1.383 . S
C702 C701 1.379 . S
H703 C697 0.959 . S
H704 C697 0.961 . S
H705 C697 0.960 . S
H706 C698 0.930 . S
H707 C699 0.929 . S
H708 C716 0.929 . S
H709 C718 0.930 . S
H710 C720 0.930 . S
H711 C723 0.929 1_554 S
H712 C726 0.930 . S
H713 C728 0.960 . S
H714 C728 0.960 . S
H715 C728 0.960 . S
C716 H708 0.929 . S
C716 C717 1.377 . S
C716 C718 1.384 . S
C717 C716 1.377 . S
C717 C723 1.390 . S
C718 H709 0.930 . S
C718 C716 1.384 . S
C718 C719 1.372 . S
C719 C718 1.372 . S
C719 C720 1.400 . S
C719 C724 1.490 . S
C720 H710 0.930 . S
C720 C719 1.400 . S
C720 C723 1.386 . S
H721 C737 0.930 . S
H722 C738 0.931 . S
C723 H711 0.929 1_556 S
C723 C717 1.390 . S
C723 C720 1.386 . S
C724 C719 1.490 . S
C724 C726 1.395 . S
C724 C727 1.403 . S
H725 C731 0.930 . S
C726 H712 0.930 . S
C726 C724 1.395 . S
C726 C729 1.403 . S
C727 C724 1.403 . S
C727 C728 1.524 . S
C727 C731 1.400 . S
C728 H713 0.960 . S
C728 H714 0.960 . S
C728 H715 0.960 . S
C728 C727 1.524 . S
C729 C726 1.403 . S
C729 C730 1.392 . S
C729 C733 1.495 . S
C730 C729 1.392 . S
C730 C731 1.385 . S
C730 C732 1.478 . S
C731 H725 0.930 . S
C731 C727 1.400 . S
C731 C730 1.385 . S
C732 C730 1.478 . S
C732 C734 1.381 . S
C732 C738 1.383 . S
C733 C729 1.495 . S
C733 H739 0.959 . S
C733 H740 0.961 . S
C733 H741 0.960 . S
C734 C732 1.381 . S
C734 C735 1.394 . S
C734 H742 0.930 . S
C735 C734 1.394 . S
C735 C736 1.383 . S
C735 H743 0.929 . S
C736 C735 1.383 . S
C736 C737 1.377 . S
C737 H721 0.930 . S
C737 C736 1.377 . S
C737 C738 1.379 . S
C738 H722 0.931 . S
C738 C732 1.383 . S
C738 C737 1.379 . S
H739 C733 0.959 . S
H740 C733 0.961 . S
H741 C733 0.960 . S
H742 C734 0.930 . S
H743 C735 0.929 . S
H744 C752 0.929 . S
H745 C754 0.930 . S
H746 C756 0.930 . S
H747 C759 0.929 . S
H748 C762 0.930 . S
H749 C764 0.960 . S
H750 C764 0.960 . S
H751 C764 0.960 . S
C752 H744 0.929 . S
C752 C753 1.377 . S
C752 C754 1.384 . S
C753 C752 1.377 . S
C753 C759 1.390 . S
C754 H745 0.930 . S
C754 C752 1.384 . S
C754 C755 1.372 . S
C755 C754 1.372 . S
C755 C756 1.400 . S
C755 C760 1.490 . S
C756 H746 0.930 . S
C756 C755 1.400 . S
C756 C759 1.386 . S
H757 C773 0.930 . S
H758 C774 0.931 . S
C759 H747 0.929 . S
C759 C753 1.390 . S
C759 C756 1.386 . S
C760 C755 1.490 . S
C760 C762 1.395 . S
C760 C763 1.403 . S
H761 C767 0.930 . S
C762 H748 0.930 . S
C762 C760 1.395 . S
C762 C765 1.403 . S
C763 C760 1.403 . S
C763 C764 1.524 . S
C763 C767 1.400 . S
C764 H749 0.960 . S
C764 H750 0.960 . S
C764 H751 0.960 . S
C764 C763 1.524 . S
C765 C762 1.403 . S
C765 C766 1.392 . S
C765 C769 1.495 . S
C766 C765 1.392 . S
C766 C767 1.385 . S
C766 C768 1.478 . S
C767 H761 0.930 . S
C767 C763 1.400 . S
C767 C766 1.385 . S
C768 C766 1.478 . S
C768 C770 1.381 . S
C768 C774 1.383 . S
C769 C765 1.495 . S
C769 H775 0.959 . S
C769 H776 0.961 . S
C769 H777 0.960 . S
C770 C768 1.381 . S
C770 C771 1.394 . S
C770 H778 0.930 . S
C771 C770 1.394 . S
C771 C772 1.383 . S
C771 H779 0.929 . S
C772 C771 1.383 . S
C772 C773 1.377 . S
C773 H757 0.930 . S
C773 C772 1.377 . S
C773 C774 1.379 . S
C774 H758 0.931 . S
C774 C768 1.383 . S
C774 C773 1.379 . S
H775 C769 0.959 . S
H776 C769 0.961 . S
H777 C769 0.960 . S
H778 C770 0.930 . S
H779 C771 0.929 . S
H780 C788 0.929 . S
H781 C790 0.930 . S
H782 C792 0.930 . S
H783 C795 0.929 . S
H784 C798 0.930 . S
H785 C800 0.960 . S
H786 C800 0.960 . S
H787 C800 0.960 . S
C788 H780 0.929 . S
C788 C789 1.377 . S
C788 C790 1.384 . S
C789 C788 1.377 . S
C789 C795 1.390 . S
C790 H781 0.930 . S
C790 C788 1.384 . S
C790 C791 1.372 . S
C791 C790 1.372 . S
C791 C792 1.400 . S
C791 C796 1.490 . S
C792 H782 0.930 . S
C792 C791 1.400 . S
C792 C795 1.386 . S
H793 C809 0.930 . S
H794 C810 0.931 . S
C795 H783 0.929 . S
C795 C789 1.390 . S
C795 C792 1.386 . S
C796 C791 1.490 . S
C796 C798 1.395 . S
C796 C799 1.403 . S
H797 C803 0.930 . S
C798 H784 0.930 . S
C798 C796 1.395 . S
C798 C801 1.403 . S
C799 C796 1.403 . S
C799 C800 1.524 . S
C799 C803 1.400 . S
C800 H785 0.960 . S
C800 H786 0.960 . S
C800 H787 0.960 . S
C800 C799 1.524 . S
C801 C798 1.403 . S
C801 C802 1.392 . S
C801 C805 1.495 . S
C802 C801 1.392 . S
C802 C803 1.385 . S
C802 C804 1.478 . S
C803 H797 0.930 . S
C803 C799 1.400 . S
C803 C802 1.385 . S
C804 C802 1.478 . S
C804 C806 1.381 . S
C804 C810 1.383 . S
C805 C801 1.495 . S
C805 H811 0.959 . S
C805 H812 0.961 . S
C805 H813 0.960 . S
C806 C804 1.381 . S
C806 C807 1.394 . S
C806 H814 0.930 . S
C807 C806 1.394 . S
C807 C808 1.383 . S
C807 H815 0.929 . S
C808 C807 1.383 . S
C808 C809 1.377 . S
C809 H793 0.930 . S
C809 C808 1.377 . S
C809 C810 1.379 . S
C810 H794 0.931 . S
C810 C804 1.383 . S
C810 C809 1.379 . S
H811 C805 0.959 . S
H812 C805 0.961 . S
H813 C805 0.960 . S
H814 C806 0.930 . S
H815 C807 0.929 . S
H816 C824 0.929 . S
H817 C826 0.930 . S
H818 C828 0.930 . S
H819 C831 0.929 . S
H820 C834 0.930 . S
H821 C836 0.960 . S
H822 C836 0.960 . S
H823 C836 0.960 . S
C824 H816 0.929 . S
C824 C825 1.377 . S
C824 C826 1.384 . S
C825 C824 1.377 . S
C825 C831 1.390 . S
C826 H817 0.930 . S
C826 C824 1.384 . S
C826 C827 1.372 . S
C827 C826 1.372 . S
C827 C828 1.400 . S
C827 C832 1.490 . S
C828 H818 0.930 . S
C828 C827 1.400 . S
C828 C831 1.386 . S
H829 C845 0.930 . S
H830 C846 0.931 . S
C831 H819 0.929 . S
C831 C825 1.390 . S
C831 C828 1.386 . S
C832 C827 1.490 . S
C832 C834 1.395 . S
C832 C835 1.403 . S
H833 C839 0.930 . S
C834 H820 0.930 . S
C834 C832 1.395 . S
C834 C837 1.403 . S
C835 C832 1.403 . S
C835 C836 1.524 . S
C835 C839 1.400 . S
C836 H821 0.960 . S
C836 H822 0.960 . S
C836 H823 0.960 . S
C836 C835 1.524 . S
C837 C834 1.403 . S
C837 C838 1.392 . S
C837 C841 1.495 . S
C838 C837 1.392 . S
C838 C839 1.385 . S
C838 C840 1.478 . S
C839 H833 0.930 . S
C839 C835 1.400 . S
C839 C838 1.385 . S
C840 C838 1.478 . S
C840 C842 1.381 . S
C840 C846 1.383 . S
C841 C837 1.495 . S
C841 H847 0.959 . S
C841 H848 0.961 . S
C841 H849 0.960 . S
C842 C840 1.381 . S
C842 C843 1.394 . S
C842 H850 0.930 . S
C843 C842 1.394 . S
C843 C844 1.383 . S
C843 H851 0.929 . S
C844 C843 1.383 . S
C844 C845 1.377 . S
C845 H829 0.930 . S
C845 C844 1.377 . S
C845 C846 1.379 . S
C846 H830 0.931 . S
C846 C840 1.383 . S
C846 C845 1.379 . S
H847 C841 0.959 . S
H848 C841 0.961 . S
H849 C841 0.960 . S
H850 C842 0.930 . S
H851 C843 0.929 . S
H852 C860 0.929 . S
H853 C862 0.930 . S
H854 C864 0.930 . S
H855 C867 0.929 . S
H856 C870 0.930 . S
H857 C872 0.960 . S
H858 C872 0.960 . S
H859 C872 0.960 . S
C860 H852 0.929 . S
C860 C861 1.377 . S
C860 C862 1.384 . S
C861 C860 1.377 . S
C861 C867 1.390 . S
C862 H853 0.930 . S
C862 C860 1.384 . S
C862 C863 1.372 . S
C863 C862 1.372 . S
C863 C864 1.400 . S
C863 C868 1.490 . S
C864 H854 0.930 . S
C864 C863 1.400 . S
C864 C867 1.386 . S
H865 C881 0.930 . S
H866 C882 0.931 . S
C867 H855 0.929 . S
C867 C861 1.390 . S
C867 C864 1.386 . S
C868 C863 1.490 . S
C868 C870 1.395 . S
C868 C871 1.403 . S
H869 C875 0.930 . S
C870 H856 0.930 . S
C870 C868 1.395 . S
C870 C873 1.403 . S
C871 C868 1.403 . S
C871 C872 1.524 . S
C871 C875 1.400 . S
C872 H857 0.960 . S
C872 H858 0.960 . S
C872 H859 0.960 . S
C872 C871 1.524 . S
C873 C870 1.403 . S
C873 C874 1.392 . S
C873 C877 1.495 . S
C874 C873 1.392 . S
C874 C875 1.385 . S
C874 C876 1.478 . S
C875 H869 0.930 . S
C875 C871 1.400 . S
C875 C874 1.385 . S
C876 C874 1.478 . S
C876 C878 1.381 . S
C876 C882 1.383 . S
C877 C873 1.495 . S
C877 H883 0.959 . S
C877 H884 0.961 . S
C877 H885 0.960 . S
C878 C876 1.381 . S
C878 C879 1.394 . S
C878 H886 0.930 . S
C879 C878 1.394 . S
C879 C880 1.383 . S
C879 H887 0.929 . S
C880 C879 1.383 . S
C880 C881 1.377 . S
C881 H865 0.930 . S
C881 C880 1.377 . S
C881 C882 1.379 . S
C882 H866 0.931 . S
C882 C876 1.383 . S
C882 C881 1.379 . S
H883 C877 0.959 . S
H884 C877 0.961 . S
H885 C877 0.960 . S
H886 C878 0.930 . S
H887 C879 0.929 . S
H888 C896 0.929 . S
H889 C898 0.930 . S
H890 C900 0.930 . S
H891 C903 0.929 . S
H892 C906 0.930 . S
H893 C908 0.960 . S
H894 C908 0.960 . S
H895 C908 0.960 . S
C896 H888 0.929 . S
C896 C897 1.377 . S
C896 C898 1.384 . S
C897 C896 1.377 . S
C897 C903 1.390 . S
C898 H889 0.930 . S
C898 C896 1.384 . S
C898 C899 1.372 . S
C899 C898 1.372 . S
C899 C900 1.400 . S
C899 C904 1.490 . S
C900 H890 0.930 . S
C900 C899 1.400 . S
C900 C903 1.386 . S
H901 C917 0.930 . S
H902 C918 0.931 . S
C903 H891 0.929 . S
C903 C897 1.390 . S
C903 C900 1.386 . S
C904 C899 1.490 . S
C904 C906 1.395 . S
C904 C907 1.403 . S
H905 C911 0.930 . S
C906 H892 0.930 . S
C906 C904 1.395 . S
C906 C909 1.403 . S
C907 C904 1.403 . S
C907 C908 1.524 . S
C907 C911 1.400 . S
C908 H893 0.960 . S
C908 H894 0.960 . S
C908 H895 0.960 . S
C908 C907 1.524 . S
C909 C906 1.403 . S
C909 C910 1.392 . S
C909 C913 1.495 . S
C910 C909 1.392 . S
C910 C911 1.385 . S
C910 C912 1.478 . S
C911 H905 0.930 . S
C911 C907 1.400 . S
C911 C910 1.385 . S
C912 C910 1.478 . S
C912 C914 1.381 . S
C912 C918 1.383 . S
C913 C909 1.495 . S
C913 H919 0.959 . S
C913 H920 0.961 . S
C913 H921 0.960 . S
C914 C912 1.381 . S
C914 C915 1.394 . S
C914 H922 0.930 . S
C915 C914 1.394 . S
C915 C916 1.383 . S
C915 H923 0.929 . S
C916 C915 1.383 . S
C916 C917 1.377 . S
C917 H901 0.930 . S
C917 C916 1.377 . S
C917 C918 1.379 . S
C918 H902 0.931 . S
C918 C912 1.383 . S
C918 C917 1.379 . S
H919 C913 0.959 . S
H920 C913 0.961 . S
H921 C913 0.960 . S
H922 C914 0.930 . S
H923 C915 0.929 . S
H924 C932 0.929 . S
H925 C934 0.930 . S
H926 C936 0.930 . S
H927 C939 0.929 . S
H928 C942 0.930 . S
H929 C944 0.960 . S
H930 C944 0.960 . S
H931 C944 0.960 . S
C932 H924 0.929 . S
C932 C933 1.377 . S
C932 C934 1.384 . S
C933 C932 1.377 . S
C933 C939 1.390 . S
C934 H925 0.930 . S
C934 C932 1.384 . S
C934 C935 1.372 . S
C935 C934 1.372 . S
C935 C936 1.400 . S
C935 C940 1.490 . S
C936 H926 0.930 . S
C936 C935 1.400 . S
C936 C939 1.386 . S
H937 C953 0.930 . S
H938 C954 0.931 . S
C939 H927 0.929 . S
C939 C933 1.390 . S
C939 C936 1.386 . S
C940 C935 1.490 . S
C940 C942 1.395 . S
C940 C943 1.403 . S
H941 C947 0.930 . S
C942 H928 0.930 . S
C942 C940 1.395 . S
C942 C945 1.403 . S
C943 C940 1.403 . S
C943 C944 1.524 . S
C943 C947 1.400 . S
C944 H929 0.960 . S
C944 H930 0.960 . S
C944 H931 0.960 . S
C944 C943 1.524 . S
C945 C942 1.403 . S
C945 C946 1.392 . S
C945 C949 1.495 . S
C946 C945 1.392 . S
C946 C947 1.385 . S
C946 C948 1.478 . S
C947 H941 0.930 . S
C947 C943 1.400 . S
C947 C946 1.385 . S
C948 C946 1.478 . S
C948 C950 1.381 . S
C948 C954 1.383 . S
C949 C945 1.495 . S
C949 H955 0.959 . S
C949 H956 0.961 . S
C949 H957 0.960 . S
C950 C948 1.381 . S
C950 C951 1.394 . S
C950 H958 0.930 . S
C951 C950 1.394 . S
C951 C952 1.383 . S
C951 H959 0.929 . S
C952 C951 1.383 . S
C952 C953 1.377 . S
C953 H937 0.930 . S
C953 C952 1.377 . S
C953 C954 1.379 . S
C954 H938 0.931 . S
C954 C948 1.383 . S
C954 C953 1.379 . S
H955 C949 0.959 . S
H956 C949 0.961 . S
H957 C949 0.960 . S
H958 C950 0.930 . S
H959 C951 0.929 . S
H960 C968 0.929 . S
H961 C970 0.930 . S
H962 C972 0.930 . S
H963 C975 0.929 . S
H964 C978 0.930 . S
H965 C980 0.960 . S
H966 C980 0.960 . S
H967 C980 0.960 . S
C968 H960 0.929 . S
C968 C969 1.377 . S
C968 C970 1.384 . S
C969 C968 1.377 . S
C969 C975 1.390 . S
C970 H961 0.930 . S
C970 C968 1.384 . S
C970 C971 1.372 . S
C971 C970 1.372 . S
C971 C972 1.400 . S
C971 C976 1.490 . S
C972 H962 0.930 . S
C972 C971 1.400 . S
C972 C975 1.386 . S
H973 C989 0.930 . S
H974 C990 0.931 . S
C975 H963 0.929 . S
C975 C969 1.390 . S
C975 C972 1.386 . S
C976 C971 1.490 . S
C976 C978 1.395 . S
C976 C979 1.403 . S
H977 C983 0.930 . S
C978 H964 0.930 . S
C978 C976 1.395 . S
C978 C981 1.403 . S
C979 C976 1.403 . S
C979 C980 1.524 . S
C979 C983 1.400 . S
C980 H965 0.960 . S
C980 H966 0.960 . S
C980 H967 0.960 . S
C980 C979 1.524 . S
C981 C978 1.403 . S
C981 C982 1.392 . S
C981 C985 1.495 . S
C982 C981 1.392 . S
C982 C983 1.385 . S
C982 C984 1.478 . S
C983 H977 0.930 . S
C983 C979 1.400 . S
C983 C982 1.385 . S
C984 C982 1.478 . S
C984 C986 1.381 . S
C984 C990 1.383 . S
C985 C981 1.495 . S
C985 H991 0.959 . S
C985 H992 0.961 . S
C985 H993 0.960 . S
C986 C984 1.381 . S
C986 C987 1.394 . S
C986 H994 0.930 . S
C987 C986 1.394 . S
C987 C988 1.383 . S
C987 H995 0.929 . S
C988 C987 1.383 . S
C988 C989 1.377 . S
C989 H973 0.930 . S
C989 C988 1.377 . S
C989 C990 1.379 . S
C990 H974 0.931 . S
C990 C984 1.383 . S
C990 C989 1.379 . S
H991 C985 0.959 . S
H992 C985 0.961 . S
H993 C985 0.960 . S
H994 C986 0.930 . S
H995 C987 0.929 . S
H996 C1004 0.929 . S
H997 C1006 0.930 . S
H998 C1008 0.930 . S
H999 C1011 0.929 . S
H1000 C1014 0.930 . S
H1001 C1016 0.960 . S
H1002 C1016 0.960 . S
H1003 C1016 0.960 . S
C1004 H996 0.929 . S
C1004 C1005 1.377 . S
C1004 C1006 1.384 . S
C1005 C1004 1.377 . S
C1005 C1011 1.390 . S
C1006 H997 0.930 . S
C1006 C1004 1.384 . S
C1006 C1007 1.372 . S
C1007 C1006 1.372 . S
C1007 C1008 1.400 . S
C1007 C1012 1.490 . S
C1008 H998 0.930 . S
C1008 C1007 1.400 . S
C1008 C1011 1.386 . S
H1009 C1025 0.930 . S
H1010 C1026 0.931 . S
C1011 H999 0.929 . S
C1011 C1005 1.390 . S
C1011 C1008 1.386 . S
C1012 C1007 1.490 . S
C1012 C1014 1.395 . S
C1012 C1015 1.403 . S
H1013 C1019 0.930 . S
C1014 H1000 0.930 . S
C1014 C1012 1.395 . S
C1014 C1017 1.403 . S
C1015 C1012 1.403 . S
C1015 C1016 1.524 . S
C1015 C1019 1.400 . S
C1016 H1001 0.960 . S
C1016 H1002 0.960 . S
C1016 H1003 0.960 . S
C1016 C1015 1.524 . S
C1017 C1014 1.403 . S
C1017 C1018 1.392 . S
C1017 C1021 1.495 . S
C1018 C1017 1.392 . S
C1018 C1019 1.385 . S
C1018 C1020 1.478 . S
C1019 H1013 0.930 . S
C1019 C1015 1.400 . S
C1019 C1018 1.385 . S
C1020 C1018 1.478 . S
C1020 C1022 1.381 . S
C1020 C1026 1.383 . S
C1021 C1017 1.495 . S
C1021 H1027 0.959 . S
C1021 H1028 0.961 . S
C1021 H1029 0.960 . S
C1022 C1020 1.381 . S
C1022 C1023 1.394 . S
C1022 H1030 0.930 . S
C1023 C1022 1.394 . S
C1023 C1024 1.383 . S
C1023 H1031 0.929 . S
C1024 C1023 1.383 . S
C1024 C1025 1.377 . S
C1025 H1009 0.930 . S
C1025 C1024 1.377 . S
C1025 C1026 1.379 . S
C1026 H1010 0.931 . S
C1026 C1020 1.383 . S
C1026 C1025 1.379 . S
H1027 C1021 0.959 . S
H1028 C1021 0.961 . S
H1029 C1021 0.960 . S
H1030 C1022 0.930 . S
H1031 C1023 0.929 . S
H1032 C1040 0.929 . S
H1033 C1042 0.930 . S
H1034 C1044 0.930 . S
H1035 C1047 0.929 . S
H1036 C1050 0.930 . S
H1037 C1052 0.960 . S
H1038 C1052 0.960 . S
H1039 C1052 0.960 . S
C1040 H1032 0.929 . S
C1040 C1041 1.377 . S
C1040 C1042 1.384 . S
C1041 C1040 1.377 . S
C1041 C1047 1.390 . S
C1042 H1033 0.930 . S
C1042 C1040 1.384 . S
C1042 C1043 1.372 . S
C1043 C1042 1.372 . S
C1043 C1044 1.400 . S
C1043 C1048 1.490 . S
C1044 H1034 0.930 . S
C1044 C1043 1.400 . S
C1044 C1047 1.386 . S
H1045 C1061 0.930 . S
H1046 C1062 0.931 . S
C1047 H1035 0.929 . S
C1047 C1041 1.390 . S
C1047 C1044 1.386 . S
C1048 C1043 1.490 . S
C1048 C1050 1.395 . S
C1048 C1051 1.403 . S
H1049 C1055 0.930 . S
C1050 H1036 0.930 . S
C1050 C1048 1.395 . S
C1050 C1053 1.403 . S
C1051 C1048 1.403 . S
C1051 C1052 1.524 . S
C1051 C1055 1.400 . S
C1052 H1037 0.960 . S
C1052 H1038 0.960 . S
C1052 H1039 0.960 . S
C1052 C1051 1.524 . S
C1053 C1050 1.403 . S
C1053 C1054 1.392 . S
C1053 C1057 1.495 . S
C1054 C1053 1.392 . S
C1054 C1055 1.385 . S
C1054 C1056 1.478 . S
C1055 H1049 0.930 . S
C1055 C1051 1.400 . S
C1055 C1054 1.385 . S
C1056 C1054 1.478 . S
C1056 C1058 1.381 . S
C1056 C1062 1.383 . S
C1057 C1053 1.495 . S
C1057 H1063 0.959 . S
C1057 H1064 0.961 . S
C1057 H1065 0.960 . S
C1058 C1056 1.381 . S
C1058 C1059 1.394 . S
C1058 H1066 0.930 . S
C1059 C1058 1.394 . S
C1059 C1060 1.383 . S
C1059 H1067 0.929 . S
C1060 C1059 1.383 . S
C1060 C1061 1.377 . S
C1061 H1045 0.930 . S
C1061 C1060 1.377 . S
C1061 C1062 1.379 . S
C1062 H1046 0.931 . S
C1062 C1056 1.383 . S
C1062 C1061 1.379 . S
H1063 C1057 0.959 . S
H1064 C1057 0.961 . S
H1065 C1057 0.960 . S
H1066 C1058 0.930 . S
H1067 C1059 0.929 . S
H1068 C1076 0.929 . S
H1069 C1078 0.930 . S
H1070 C1080 0.930 . S
H1071 C1083 0.929 . S
H1072 C1086 0.930 . S
H1073 C1088 0.960 . S
H1074 C1088 0.960 . S
H1075 C1088 0.960 . S
C1076 H1068 0.929 . S
C1076 C1077 1.377 . S
C1076 C1078 1.384 . S
C1077 C1076 1.377 . S
C1077 C1083 1.390 . S
C1078 H1069 0.930 . S
C1078 C1076 1.384 . S
C1078 C1079 1.372 . S
C1079 C1078 1.372 . S
C1079 C1080 1.400 . S
C1079 C1084 1.490 . S
C1080 H1070 0.930 . S
C1080 C1079 1.400 . S
C1080 C1083 1.386 . S
H1081 C1097 0.930 . S
H1082 C1098 0.931 . S
C1083 H1071 0.929 . S
C1083 C1077 1.390 . S
C1083 C1080 1.386 . S
C1084 C1079 1.490 . S
C1084 C1086 1.395 . S
C1084 C1087 1.403 . S
H1085 C1091 0.930 . S
C1086 H1072 0.930 . S
C1086 C1084 1.395 . S
C1086 C1089 1.403 . S
C1087 C1084 1.403 . S
C1087 C1088 1.524 . S
C1087 C1091 1.400 . S
C1088 H1073 0.960 . S
C1088 H1074 0.960 . S
C1088 H1075 0.960 . S
C1088 C1087 1.524 . S
C1089 C1086 1.403 . S
C1089 C1090 1.392 . S
C1089 C1093 1.495 . S
C1090 C1089 1.392 . S
C1090 C1091 1.385 . S
C1090 C1092 1.478 . S
C1091 H1085 0.930 . S
C1091 C1087 1.400 . S
C1091 C1090 1.385 . S
C1092 C1090 1.478 . S
C1092 C1094 1.381 . S
C1092 C1098 1.383 . S
C1093 C1089 1.495 . S
C1093 H1099 0.959 . S
C1093 H1100 0.961 . S
C1093 H1101 0.960 . S
C1094 C1092 1.381 . S
C1094 C1095 1.394 . S
C1094 H1102 0.930 . S
C1095 C1094 1.394 . S
C1095 C1096 1.383 . S
C1095 H1103 0.929 . S
C1096 C1095 1.383 . S
C1096 C1097 1.377 . S
C1097 H1081 0.930 . S
C1097 C1096 1.377 . S
C1097 C1098 1.379 . S
C1098 H1082 0.931 . S
C1098 C1092 1.383 . S
C1098 C1097 1.379 . S
H1099 C1093 0.959 . S
H1100 C1093 0.961 . S
H1101 C1093 0.960 . S
H1102 C1094 0.930 . S
H1103 C1095 0.929 . S
H1104 C1112 0.929 . S
H1105 C1114 0.930 . S
H1106 C1116 0.930 . S
H1107 C1119 0.929 . S
H1108 C1122 0.930 . S
H1109 C1124 0.960 . S
H1110 C1124 0.960 . S
H1111 C1124 0.960 . S
C1112 H1104 0.929 . S
C1112 C1113 1.377 . S
C1112 C1114 1.384 . S
C1113 C1112 1.377 . S
C1113 C1119 1.390 . S
C1114 H1105 0.930 . S
C1114 C1112 1.384 . S
C1114 C1115 1.372 . S
C1115 C1114 1.372 . S
C1115 C1116 1.400 . S
C1115 C1120 1.490 . S
C1116 H1106 0.930 . S
C1116 C1115 1.400 . S
C1116 C1119 1.386 . S
H1117 C1133 0.930 . S
H1118 C1134 0.931 . S
C1119 H1107 0.929 . S
C1119 C1113 1.390 . S
C1119 C1116 1.386 . S
C1120 C1115 1.490 . S
C1120 C1122 1.395 . S
C1120 C1123 1.403 . S
H1121 C1127 0.930 . S
C1122 H1108 0.930 . S
C1122 C1120 1.395 . S
C1122 C1125 1.403 . S
C1123 C1120 1.403 . S
C1123 C1124 1.524 . S
C1123 C1127 1.400 . S
C1124 H1109 0.960 . S
C1124 H1110 0.960 . S
C1124 H1111 0.960 . S
C1124 C1123 1.524 . S
C1125 C1122 1.403 . S
C1125 C1126 1.392 . S
C1125 C1129 1.495 . S
C1126 C1125 1.392 . S
C1126 C1127 1.385 . S
C1126 C1128 1.478 . S
C1127 H1121 0.930 . S
C1127 C1123 1.400 . S
C1127 C1126 1.385 . S
C1128 C1126 1.478 . S
C1128 C1130 1.381 . S
C1128 C1134 1.383 . S
C1129 C1125 1.495 . S
C1129 H1135 0.959 . S
C1129 H1136 0.961 . S
C1129 H1137 0.960 . S
C1130 C1128 1.381 . S
C1130 C1131 1.394 . S
C1130 H1138 0.930 . S
C1131 C1130 1.394 . S
C1131 C1132 1.383 . S
C1131 H1139 0.929 . S
C1132 C1131 1.383 . S
C1132 C1133 1.377 . S
C1133 H1117 0.930 . S
C1133 C1132 1.377 . S
C1133 C1134 1.379 . S
C1134 H1118 0.931 . S
C1134 C1128 1.383 . S
C1134 C1133 1.379 . S
H1135 C1129 0.959 . S
H1136 C1129 0.961 . S
H1137 C1129 0.960 . S
H1138 C1130 0.930 . S
H1139 C1131 0.929 . S
H1140 C1148 0.929 . S
H1141 C1150 0.930 . S
H1142 C1152 0.930 . S
H1143 C1155 0.929 . S
H1144 C1158 0.930 . S
H1145 C1160 0.960 . S
H1146 C1160 0.960 . S
H1147 C1160 0.960 . S
C1148 H1140 0.929 . S
C1148 C1149 1.377 . S
C1148 C1150 1.384 . S
C1149 C1148 1.377 . S
C1149 C1155 1.390 . S
C1150 H1141 0.930 . S
C1150 C1148 1.384 . S
C1150 C1151 1.372 . S
C1151 C1150 1.372 . S
C1151 C1152 1.400 . S
C1151 C1156 1.490 . S
C1152 H1142 0.930 . S
C1152 C1151 1.400 . S
C1152 C1155 1.386 . S
H1153 C1169 0.930 . S
H1154 C1170 0.931 . S
C1155 H1143 0.929 . S
C1155 C1149 1.390 . S
C1155 C1152 1.386 . S
C1156 C1151 1.490 . S
C1156 C1158 1.395 . S
C1156 C1159 1.403 . S
H1157 C1163 0.930 . S
C1158 H1144 0.930 . S
C1158 C1156 1.395 . S
C1158 C1161 1.403 . S
C1159 C1156 1.403 . S
C1159 C1160 1.524 . S
C1159 C1163 1.400 . S
C1160 H1145 0.960 . S
C1160 H1146 0.960 . S
C1160 H1147 0.960 . S
C1160 C1159 1.524 . S
C1161 C1158 1.403 . S
C1161 C1162 1.392 . S
C1161 C1165 1.495 . S
C1162 C1161 1.392 . S
C1162 C1163 1.385 . S
C1162 C1164 1.478 . S
C1163 H1157 0.930 . S
C1163 C1159 1.400 . S
C1163 C1162 1.385 . S
C1164 C1162 1.478 . S
C1164 C1166 1.381 . S
C1164 C1170 1.383 . S
C1165 C1161 1.495 . S
C1165 H1171 0.959 . S
C1165 H1172 0.961 . S
C1165 H1173 0.960 . S
C1166 C1164 1.381 . S
C1166 C1167 1.394 . S
C1166 H1174 0.930 . S
C1167 C1166 1.394 . S
C1167 C1168 1.383 . S
C1167 H1175 0.929 . S
C1168 C1167 1.383 . S
C1168 C1169 1.377 . S
C1169 H1153 0.930 . S
C1169 C1168 1.377 . S
C1169 C1170 1.379 . S
C1170 H1154 0.931 . S
C1170 C1164 1.383 . S
C1170 C1169 1.379 . S
H1171 C1165 0.959 . S
H1172 C1165 0.961 . S
H1173 C1165 0.960 . S
H1174 C1166 0.930 . S
H1175 C1167 0.929 . S
H1176 C1184 0.929 . S
H1177 C1186 0.930 . S
H1178 C1188 0.930 . S
H1179 C1191 0.929 . S
H1180 C1194 0.930 . S
H1181 C1196 0.960 . S
H1182 C1196 0.960 . S
H1183 C1196 0.960 . S
C1184 H1176 0.929 . S
C1184 C1185 1.377 . S
C1184 C1186 1.384 . S
C1185 C1184 1.377 . S
C1185 C1191 1.390 . S
C1186 H1177 0.930 . S
C1186 C1184 1.384 . S
C1186 C1187 1.372 . S
C1187 C1186 1.372 . S
C1187 C1188 1.400 . S
C1187 C1192 1.490 . S
C1188 H1178 0.930 . S
C1188 C1187 1.400 . S
C1188 C1191 1.386 . S
H1189 C1205 0.930 . S
H1190 C1206 0.931 . S
C1191 H1179 0.929 . S
C1191 C1185 1.390 . S
C1191 C1188 1.386 . S
C1192 C1187 1.490 . S
C1192 C1194 1.395 . S
C1192 C1195 1.403 . S
H1193 C1199 0.930 . S
C1194 H1180 0.930 . S
C1194 C1192 1.395 . S
C1194 C1197 1.403 . S
C1195 C1192 1.403 . S
C1195 C1196 1.524 . S
C1195 C1199 1.400 . S
C1196 H1181 0.960 . S
C1196 H1182 0.960 . S
C1196 H1183 0.960 . S
C1196 C1195 1.524 . S
C1197 C1194 1.403 . S
C1197 C1198 1.392 . S
C1197 C1201 1.495 . S
C1198 C1197 1.392 . S
C1198 C1199 1.385 . S
C1198 C1200 1.478 . S
C1199 H1193 0.930 . S
C1199 C1195 1.400 . S
C1199 C1198 1.385 . S
C1200 C1198 1.478 . S
C1200 C1202 1.381 . S
C1200 C1206 1.383 . S
C1201 C1197 1.495 . S
C1201 H1207 0.959 . S
C1201 H1208 0.961 . S
C1201 H1209 0.960 . S
C1202 C1200 1.381 . S
C1202 C1203 1.394 . S
C1202 H1210 0.930 . S
C1203 C1202 1.394 . S
C1203 C1204 1.383 . S
C1203 H1211 0.929 . S
C1204 C1203 1.383 . S
C1204 C1205 1.377 . S
C1205 H1189 0.930 . S
C1205 C1204 1.377 . S
C1205 C1206 1.379 . S
C1206 H1190 0.931 . S
C1206 C1200 1.383 . S
C1206 C1205 1.379 . S
H1207 C1201 0.959 . S
H1208 C1201 0.961 . S
H1209 C1201 0.960 . S
H1210 C1202 0.930 . S
H1211 C1203 0.929 . S
H1212 C1220 0.929 . S
H1213 C1222 0.930 . S
H1214 C1224 0.930 . S
H1215 C1227 0.929 . S
H1216 C1230 0.930 . S
H1217 C1232 0.960 . S
H1218 C1232 0.960 . S
H1219 C1232 0.960 . S
C1220 H1212 0.929 . S
C1220 C1221 1.377 . S
C1220 C1222 1.384 . S
C1221 C1220 1.377 . S
C1221 C1227 1.390 . S
C1222 H1213 0.930 . S
C1222 C1220 1.384 . S
C1222 C1223 1.372 . S
C1223 C1222 1.372 . S
C1223 C1224 1.400 . S
C1223 C1228 1.490 . S
C1224 H1214 0.930 . S
C1224 C1223 1.400 . S
C1224 C1227 1.386 . S
H1225 C1241 0.930 . S
H1226 C1242 0.931 . S
C1227 H1215 0.929 . S
C1227 C1221 1.390 . S
C1227 C1224 1.386 . S
C1228 C1223 1.490 . S
C1228 C1230 1.395 . S
C1228 C1231 1.403 . S
H1229 C1235 0.930 . S
C1230 H1216 0.930 . S
C1230 C1228 1.395 . S
C1230 C1233 1.403 . S
C1231 C1228 1.403 . S
C1231 C1232 1.524 . S
C1231 C1235 1.400 . S
C1232 H1217 0.960 . S
C1232 H1218 0.960 . S
C1232 H1219 0.960 . S
C1232 C1231 1.524 . S
C1233 C1230 1.403 . S
C1233 C1234 1.392 . S
C1233 C1237 1.495 . S
C1234 C1233 1.392 . S
C1234 C1235 1.385 . S
C1234 C1236 1.478 . S
C1235 H1229 0.930 . S
C1235 C1231 1.400 . S
C1235 C1234 1.385 . S
C1236 C1234 1.478 . S
C1236 C1238 1.381 . S
C1236 C1242 1.383 . S
C1237 C1233 1.495 . S
C1237 H1243 0.959 . S
C1237 H1244 0.961 . S
C1237 H1245 0.960 . S
C1238 C1236 1.381 . S
C1238 C1239 1.394 . S
C1238 H1246 0.930 . S
C1239 C1238 1.394 . S
C1239 C1240 1.383 . S
C1239 H1247 0.929 . S
C1240 C1239 1.383 . S
C1240 C1241 1.377 . S
C1241 H1225 0.930 . S
C1241 C1240 1.377 . S
C1241 C1242 1.379 . S
C1242 H1226 0.931 . S
C1242 C1236 1.383 . S
C1242 C1241 1.379 . S
H1243 C1237 0.959 . S
H1244 C1237 0.961 . S
H1245 C1237 0.960 . S
H1246 C1238 0.930 . S
H1247 C1239 0.929 . S
H1248 C1256 0.929 . S
H1249 C1258 0.930 . S
H1250 C1260 0.930 . S
H1251 C1263 0.929 . S
H1252 C1266 0.930 . S
H1253 C1268 0.960 . S
H1254 C1268 0.960 . S
H1255 C1268 0.960 . S
C1256 H1248 0.929 . S
C1256 C1257 1.377 . S
C1256 C1258 1.384 . S
C1257 C1256 1.377 . S
C1257 C1263 1.390 . S
C1258 H1249 0.930 . S
C1258 C1256 1.384 . S
C1258 C1259 1.372 . S
C1259 C1258 1.372 . S
C1259 C1260 1.400 . S
C1259 C1264 1.490 . S
C1260 H1250 0.930 . S
C1260 C1259 1.400 . S
C1260 C1263 1.386 . S
H1261 C1277 0.930 . S
H1262 C1278 0.931 . S
C1263 H1251 0.929 . S
C1263 C1257 1.390 . S
C1263 C1260 1.386 . S
C1264 C1259 1.490 . S
C1264 C1266 1.395 . S
C1264 C1267 1.403 . S
H1265 C1271 0.930 . S
C1266 H1252 0.930 . S
C1266 C1264 1.395 . S
C1266 C1269 1.403 . S
C1267 C1264 1.403 . S
C1267 C1268 1.524 . S
C1267 C1271 1.400 . S
C1268 H1253 0.960 . S
C1268 H1254 0.960 . S
C1268 H1255 0.960 . S
C1268 C1267 1.524 . S
C1269 C1266 1.403 . S
C1269 C1270 1.392 . S
C1269 C1273 1.495 . S
C1270 C1269 1.392 . S
C1270 C1271 1.385 . S
C1270 C1272 1.478 . S
C1271 H1265 0.930 . S
C1271 C1267 1.400 . S
C1271 C1270 1.385 . S
C1272 C1270 1.478 . S
C1272 C1274 1.381 . S
C1272 C1278 1.383 . S
C1273 C1269 1.495 . S
C1273 H1279 0.959 . S
C1273 H1280 0.961 . S
C1273 H1281 0.960 . S
C1274 C1272 1.381 . S
C1274 C1275 1.394 . S
C1274 H1282 0.930 . S
C1275 C1274 1.394 . S
C1275 C1276 1.383 . S
C1275 H1283 0.929 . S
C1276 C1275 1.383 . S
C1276 C1277 1.377 . S
C1277 H1261 0.930 . S
C1277 C1276 1.377 . S
C1277 C1278 1.379 . S
C1278 H1262 0.931 . S
C1278 C1272 1.383 . S
C1278 C1277 1.379 . S
H1279 C1273 0.959 . S
H1280 C1273 0.961 . S
H1281 C1273 0.960 . S
H1282 C1274 0.930 . S
H1283 C1275 0.929 . S
H1284 C1292 0.929 . S
H1285 C1294 0.930 . S
H1286 C1296 0.930 . S
H1287 C1299 0.929 . S
H1288 C1302 0.930 . S
H1289 C1304 0.960 . S
H1290 C1304 0.960 . S
H1291 C1304 0.960 . S
C1292 H1284 0.929 . S
C1292 C1293 1.377 . S
C1292 C1294 1.384 . S
C1293 C1292 1.377 . S
C1293 C1299 1.390 . S
C1294 H1285 0.930 . S
C1294 C1292 1.384 . S
C1294 C1295 1.372 . S
C1295 C1294 1.372 . S
C1295 C1296 1.400 . S
C1295 C1300 1.490 . S
C1296 H1286 0.930 . S
C1296 C1295 1.400 . S
C1296 C1299 1.386 . S
H1297 C1313 0.930 . S
H1298 C1314 0.931 . S
C1299 H1287 0.929 . S
C1299 C1293 1.390 . S
C1299 C1296 1.386 . S
C1300 C1295 1.490 . S
C1300 C1302 1.395 . S
C1300 C1303 1.403 . S
H1301 C1307 0.930 . S
C1302 H1288 0.930 . S
C1302 C1300 1.395 . S
C1302 C1305 1.403 . S
C1303 C1300 1.403 . S
C1303 C1304 1.524 . S
C1303 C1307 1.400 . S
C1304 H1289 0.960 . S
C1304 H1290 0.960 . S
C1304 H1291 0.960 . S
C1304 C1303 1.524 . S
C1305 C1302 1.403 . S
C1305 C1306 1.392 . S
C1305 C1309 1.495 . S
C1306 C1305 1.392 . S
C1306 C1307 1.385 . S
C1306 C1308 1.478 . S
C1307 H1301 0.930 . S
C1307 C1303 1.400 . S
C1307 C1306 1.385 . S
C1308 C1306 1.478 . S
C1308 C1310 1.381 . S
C1308 C1314 1.383 . S
C1309 C1305 1.495 . S
C1309 H1315 0.959 . S
C1309 H1316 0.961 . S
C1309 H1317 0.960 . S
C1310 C1308 1.381 . S
C1310 C1311 1.394 . S
C1310 H1318 0.930 . S
C1311 C1310 1.394 . S
C1311 C1312 1.383 . S
C1311 H1319 0.929 . S
C1312 C1311 1.383 . S
C1312 C1313 1.377 . S
C1313 H1297 0.930 . S
C1313 C1312 1.377 . S
C1313 C1314 1.379 . S
C1314 H1298 0.931 . S
C1314 C1308 1.383 . S
C1314 C1313 1.379 . S
H1315 C1309 0.959 . S
H1316 C1309 0.961 . S
H1317 C1309 0.960 . S
H1318 C1310 0.930 . S
H1319 C1311 0.929 . S
C465 C7 2.060 . S
C484 C176 2.036 . S
C501 C30 1.530 . S
C520 C229 1.492 . S
C556 C282 1.818 . S
C537 N58 1.792 . S
C592 C319 1.256 . S
C573 N81 1.244 . S
C628 C379 1.777 . S
C609 C99 1.814 . S
C664 C432 1.360 . S
C645 N127 1.349 . S
C681 N25 1.878 . S
C700 C283 1.907 . S
C717 C62 1.476 . S
C736 C326 1.468 . S
C772 C372 1.842 . S
C753 C85 1.842 . S
C808 C425 1.286 . S
C789 N94 1.281 . S
C825 C131 1.914 . S
C844 C177 1.905 . S
C880 C230 1.414 . S
C861 N2 1.384 . S
C916 C336 1.987 . S
C897 C16 2.011 . S
C933 C39 1.498 . S
C952 C388 1.487 . S
C988 C441 1.825 . S
C969 N48 1.791 . S
C1005 N71 1.254 . S
C1024 C167 1.278 . S
C1041 C108 1.816 . S
C1060 C220 1.804 . S
C1077 N117 1.341 . S
C1096 C273 1.364 . S
C1113 N35 1.872 . S
C1132 C442 1.883 . S
C1168 C160 1.457 . S
C1149 C53 1.487 . S
C1185 C76 1.885 . S
C1204 C213 1.867 . S
C1221 N104 1.271 . S
C1240 C266 1.273 . S
C1257 C122 1.884 . S
C1276 C335 1.876 . S
C1293 N12 1.350 . S
C1312 C389 1.388 . S
