# Generated by pormake.
# Topology pyr, (3,6)-cn, num edge types: 1
# Building blocks:
#     Node 0, Type 0, BuildingBlock: OLANEW_clean_sbu_2, # of connection points: 3
#     Node 1, Type 0, BuildingBlock: OLANEW_clean_sbu_2, # of connection points: 3
#     Node 2, Type 0, BuildingBlock: OLANEW_clean_sbu_2, # of connection points: 3
#     Node 3, Type 0, BuildingBlock: OLANEW_clean_sbu_2, # of connection points: 3
#     Node 4, Type 0, BuildingBlock: OLANEW_clean_sbu_2, # of connection points: 3
#     Node 5, Type 0, BuildingBlock: OLANEW_clean_sbu_2, # of connection points: 3
#     Node 6, Type 0, BuildingBlock: OLANEW_clean_sbu_2, # of connection points: 3
#     Node 7, Type 0, BuildingBlock: OLANEW_clean_sbu_2, # of connection points: 3
#     Node 8, Type 1, BuildingBlock: BETDEL_clean_sbu_0, # of connection points: 6
#     Node 9, Type 1, BuildingBlock: BETDEL_clean_sbu_0, # of connection points: 6
#     Node 10, Type 1, BuildingBlock: BETDEL_clean_sbu_0, # of connection points: 6
#     Node 11, Type 1, BuildingBlock: BETDEL_clean_sbu_0, # of connection points: 6
#     Edge 12, Type (0, 1), BuildingBlock: KIFKEQ_clean_linker_1, # of connection points: 2
#     Edge 13, Type (0, 1), BuildingBlock: KIFKEQ_clean_linker_1, # of connection points: 2
#     Edge 14, Type (0, 1), BuildingBlock: KIFKEQ_clean_linker_1, # of connection points: 2
#     Edge 15, Type (0, 1), BuildingBlock: KIFKEQ_clean_linker_1, # of connection points: 2
#     Edge 16, Type (0, 1), BuildingBlock: KIFKEQ_clean_linker_1, # of connection points: 2
#     Edge 17, Type (0, 1), BuildingBlock: KIFKEQ_clean_linker_1, # of connection points: 2
#     Edge 18, Type (0, 1), BuildingBlock: KIFKEQ_clean_linker_1, # of connection points: 2
#     Edge 19, Type (0, 1), BuildingBlock: KIFKEQ_clean_linker_1, # of connection points: 2
#     Edge 20, Type (0, 1), BuildingBlock: KIFKEQ_clean_linker_1, # of connection points: 2
#     Edge 21, Type (0, 1), BuildingBlock: KIFKEQ_clean_linker_1, # of connection points: 2
#     Edge 22, Type (0, 1), BuildingBlock: KIFKEQ_clean_linker_1, # of connection points: 2
#     Edge 23, Type (0, 1), BuildingBlock: KIFKEQ_clean_linker_1, # of connection points: 2
#     Edge 24, Type (0, 1), BuildingBlock: KIFKEQ_clean_linker_1, # of connection points: 2
#     Edge 25, Type (0, 1), BuildingBlock: KIFKEQ_clean_linker_1, # of connection points: 2
#     Edge 26, Type (0, 1), BuildingBlock: KIFKEQ_clean_linker_1, # of connection points: 2
#     Edge 27, Type (0, 1), BuildingBlock: KIFKEQ_clean_linker_1, # of connection points: 2
#     Edge 28, Type (0, 1), BuildingBlock: KIFKEQ_clean_linker_1, # of connection points: 2
#     Edge 29, Type (0, 1), BuildingBlock: KIFKEQ_clean_linker_1, # of connection points: 2
#     Edge 30, Type (0, 1), BuildingBlock: KIFKEQ_clean_linker_1, # of connection points: 2
#     Edge 31, Type (0, 1), BuildingBlock: KIFKEQ_clean_linker_1, # of connection points: 2
#     Edge 32, Type (0, 1), BuildingBlock: KIFKEQ_clean_linker_1, # of connection points: 2
#     Edge 33, Type (0, 1), BuildingBlock: KIFKEQ_clean_linker_1, # of connection points: 2
#     Edge 34, Type (0, 1), BuildingBlock: KIFKEQ_clean_linker_1, # of connection points: 2
#     Edge 35, Type (0, 1), BuildingBlock: KIFKEQ_clean_linker_1, # of connection points: 2
# Relax obj value: 0.054
# Max RMSD: 0.144
# Mean RMSD: 0.111
data_MOF--net-pyr--node1-OLANEW_clean_sbu_2--node2-BETDEL_clean_sbu_0--edge1-KIFKEQ_clean_linker_1
_symmetry_space_group_name_H-M    P1
_symmetry_Int_Tables_number       1
_symmetry_cell_setting            triclinic
loop_
_symmetry_equiv_pos_as_xyz
'x, y, z'
_cell_length_a     39.710809
_cell_length_b     41.931138
_cell_length_c     37.463343
_cell_angle_alpha  96.38594
_cell_angle_beta   88.049052
_cell_angle_gamma 99.714684
loop_
_atom_site_label
_atom_site_type_symbol
_atom_site_fract_x
_atom_site_fract_y
_atom_site_fract_z
_atom_type_partial_charge
O0 O 0.32441 0.25441 0.15753 0.0
Cd1 Cd 0.29608 0.30198 0.17101 0.0
O2 O 0.28313 0.22632 0.18648 0.0
Cd3 Cd 0.25481 0.18709 0.21468 0.0
O4 O 0.21878 0.15716 0.2475 0.0
C5 C 0.19844 0.17115 0.26823 0.0
O6 O 0.2 0.20277 0.26895 0.0
C7 C 0.31176 0.22788 0.16989 0.0
C8 C 0.23899 0.30577 0.1312 0.0
O9 O 0.26922 0.31743 0.1208 0.0
O10 O 0.23585 0.29111 0.1597 0.0
O11 O 0.31707 0.84711 0.77672 0.0
Cd12 Cd 0.29265 0.82386 0.71887 0.0
O13 O 0.27132 0.86634 0.79791 0.0
Cd14 Cd 0.2439 0.85467 0.74738 0.0
O15 O 0.21286 0.86455 0.7042 0.0
C16 C 0.18274 0.86961 0.71231 0.0
O17 O 0.17134 0.86675 0.74534 0.0
C18 C 0.30161 0.86154 0.80224 0.0
C19 C 0.32857 0.77474 0.6914 0.0
O20 O 0.33778 0.80405 0.68382 0.0
O21 O 0.30184 0.76854 0.71123 0.0
O22 O 0.70123 0.42528 0.9041 0.0
Cd23 Cd 0.63945 0.42221 0.89759 0.0
O24 O 0.68838 0.38172 0.93198 0.0
Cd25 Cd 0.69318 0.33944 0.9596 0.0
O26 O 0.6734 0.29323 0.98066 0.0
C27 C 0.64507 0.29136 0.99782 0.0
O28 O 0.63035 0.31734 0.00322 0.0
C29 C 0.71101 0.40385 0.92094 0.0
C30 C 0.61916 0.44236 0.83421 0.0
O31 O 0.62626 0.46271 0.86215 0.0
O32 O 0.62233 0.41266 0.83606 0.0
O33 O 0.88467 0.72635 0.35255 0.0
Cd34 Cd 0.85169 0.67404 0.3281 0.0
O35 O 0.89105 0.70624 0.40328 0.0
Cd36 Cd 0.86106 0.65856 0.38806 0.0
O37 O 0.81254 0.62817 0.39852 0.0
C38 C 0.80828 0.6182 0.42942 0.0
O39 O 0.83415 0.62404 0.4515 0.0
C40 C 0.89602 0.73004 0.38438 0.0
C41 C 0.8836 0.63775 0.27431 0.0
O42 O 0.86222 0.65554 0.26645 0.0
O43 O 0.89049 0.63771 0.30748 0.0
O44 O 0.86655 0.815 0.83926 0.0
Cd45 Cd 0.83442 0.78816 0.88738 0.0
O46 O 0.83333 0.85039 0.85575 0.0
Cd47 Cd 0.80666 0.89202 0.8583 0.0
O48 O 0.76782 0.91914 0.88199 0.0
C49 C 0.74045 0.90188 0.89204 0.0
O50 O 0.73728 0.87004 0.8861 0.0
C51 C 0.85731 0.84194 0.83541 0.0
C52 C 0.86922 0.74562 0.91699 0.0
O53 O 0.84729 0.73529 0.89225 0.0
O54 O 0.87484 0.77615 0.92755 0.0
O55 O 0.73907 0.19896 0.38235 0.0
Cd56 Cd 0.77327 0.22697 0.43282 0.0
O57 O 0.76706 0.2267 0.34102 0.0
Cd58 Cd 0.78519 0.26623 0.38207 0.0
O59 O 0.76136 0.30731 0.40493 0.0
C60 C 0.7312 0.30007 0.41743 0.0
O61 O 0.7181 0.26922 0.41842 0.0
C62 C 0.74484 0.20308 0.34945 0.0
C63 C 0.8183 0.18695 0.45059 0.0
O64 O 0.78722 0.18296 0.4619 0.0
O65 O 0.82843 0.21027 0.43134 0.0
O66 O 0.4435 0.73179 0.18701 0.0
Cd67 Cd 0.42898 0.67284 0.19066 0.0
O68 O 0.39599 0.73174 0.15844 0.0
Cd69 Cd 0.374 0.68091 0.16215 0.0
O70 O 0.33179 0.64116 0.14952 0.0
C71 C 0.31833 0.64195 0.11942 0.0
O72 O 0.33192 0.66457 0.09914 0.0
C73 C 0.42425 0.74689 0.17106 0.0
C74 C 0.44816 0.6499 0.25299 0.0
O75 O 0.46873 0.6527 0.22597 0.0
O76 O 0.41897 0.65871 0.25082 0.0
O77 O 0.13785 0.45985 0.70628 0.0
Cd78 Cd 0.15633 0.45953 0.64334 0.0
O79 O 0.15015 0.41109 0.70837 0.0
Cd80 Cd 0.14649 0.36464 0.73061 0.0
O81 O 0.13079 0.31201 0.72116 0.0
C82 C 0.10798 0.30344 0.69742 0.0
O83 O 0.09589 0.32621 0.68288 0.0
C84 C 0.1383 0.43554 0.7236 0.0
C85 C 0.22672 0.46606 0.63127 0.0
O86 O 0.21203 0.4911 0.63791 0.0
O87 O 0.20819 0.43787 0.63113 0.0
Dy88 Dy 0.02838 0.02243 0.51225 0.0
C89 C 0.96578 0.9737 0.64012 0.0
C90 C 0.05728 0.0502 0.45359 0.0
Dy91 Dy 0.99168 0.00374 0.58177 0.0
O92 O 0.07013 0.03008 0.47081 0.0
O93 O 0.02826 0.05524 0.46828 0.0
O94 O 0.06014 0.98325 0.51599 0.0
O95 O 0.04413 0.00902 0.56294 0.0
C96 C 0.05937 0.98605 0.55083 0.0
C97 C 0.96165 0.04217 0.54566 0.0
O98 O 0.02505 0.0492 0.60463 0.0
O99 O 0.03998 0.06871 0.54953 0.0
O100 O 0.9489 0.98906 0.62059 0.0
O101 O 0.99692 0.97492 0.62795 0.0
O102 O 0.96124 0.04362 0.58047 0.0
O103 O 0.97559 0.01871 0.53166 0.0
O104 O 0.99321 0.97855 0.48922 0.0
O105 O 0.98213 0.95746 0.54392 0.0
C106 C 0.03864 0.07289 0.58521 0.0
C107 C 0.98167 0.95414 0.50826 0.0
Dy108 Dy 0.53805 0.04024 0.11552 0.0
C109 C 0.43923 0.97517 0.0128 0.0
C110 C 0.58314 0.07526 0.16421 0.0
Dy111 Dy 0.4843 0.0126 0.06003 0.0
O112 O 0.56332 0.04817 0.16917 0.0
O113 O 0.57812 0.0836 0.13271 0.0
O114 O 0.5422 0.99017 0.12646 0.0
O115 O 0.49398 0.00028 0.11353 0.0
C116 C 0.51044 0.97823 0.12003 0.0
C117 C 0.51589 0.07353 0.05289 0.0
O118 O 0.4508 0.03038 0.10392 0.0
O119 O 0.49434 0.06679 0.13255 0.0
O120 O 0.44351 0.00662 0.0187 0.0
O121 O 0.45952 0.96392 0.03288 0.0
O122 O 0.48443 0.06293 0.04389 0.0
O123 O 0.52922 0.05055 0.06173 0.0
O124 O 0.57243 0.02219 0.07221 0.0
O125 O 0.52944 0.99074 0.03703 0.0
C126 C 0.46138 0.05646 0.12643 0.0
C127 C 0.56221 0.99999 0.04499 0.0
Dy128 Dy 0.53634 0.50483 0.52003 0.0
C129 C 0.47169 0.60466 0.60198 0.0
C130 C 0.57583 0.46519 0.48203 0.0
Dy131 Dy 0.50885 0.56378 0.56267 0.0
O132 O 0.54333 0.45718 0.48873 0.0
O133 O 0.5863 0.495 0.49521 0.0
O134 O 0.49132 0.47115 0.54052 0.0
O135 O 0.48662 0.51885 0.53175 0.0
C136 C 0.47174 0.49329 0.54391 0.0
C137 C 0.57315 0.57523 0.5383 0.0
O138 O 0.51938 0.53513 0.60746 0.0
O139 O 0.55232 0.50025 0.57552 0.0
O140 O 0.50436 0.61115 0.59562 0.0
O141 O 0.4595 0.57562 0.58747 0.0
O142 O 0.55348 0.59726 0.54139 0.0
O143 O 0.55842 0.54981 0.55083 0.0
O144 O 0.52609 0.53379 0.47522 0.0
O145 O 0.49364 0.56917 0.50724 0.0
C146 C 0.53948 0.51262 0.60612 0.0
C147 C 0.50676 0.55699 0.47669 0.0
Dy148 Dy 0.0241 0.45943 0.03685 0.0
C149 C 0.9903 0.58094 0.00907 0.0
C150 C 0.05103 0.40509 0.04626 0.0
Dy151 Dy 0.01544 0.52555 0.01668 0.0
O152 O 0.03377 0.42063 0.07033 0.0
O153 O 0.05267 0.41871 0.01663 0.0
O154 O 0.98291 0.46317 0.07934 0.0
O155 O 0.0163 0.5051 0.06696 0.0
C156 C 0.99042 0.4947 0.08516 0.0
C157 C 0.05023 0.49161 0.96822 0.0
O158 O 0.06062 0.54157 0.05126 0.0
O159 O 0.07613 0.49051 0.04723 0.0
O160 O 0.01787 0.57309 0.99341 0.0
O161 O 0.97677 0.55877 0.02923 0.0
O162 O 0.05617 0.5231 0.97436 0.0
O163 O 0.02419 0.48012 0.98582 0.0
O164 O 0.97534 0.44265 0.0069 0.0
O165 O 0.96475 0.49487 0.00218 0.0
C166 C 0.08345 0.52261 0.05489 0.0
C167 C 0.95518 0.4628 0.99838 0.0
H168 H 0.18535 0.1052 0.26994 0.0
H169 H 0.15674 0.19467 0.32065 0.0
H170 H 0.14766 0.07461 0.31141 0.0
H171 H 0.11972 0.16414 0.3627 0.0
H172 H 0.03663 0.09667 0.41752 0.0
H173 H 0.06774 0.12482 0.36933 0.0
H174 H 0.14841 0.06802 0.37441 0.0
H175 H 0.11713 0.03971 0.42167 0.0
C176 C 0.171 0.11835 0.28991 0.0
C177 C 0.17427 0.15239 0.29219 0.0
C178 C 0.14948 0.10082 0.31375 0.0
C179 C 0.13086 0.11695 0.34054 0.0
C180 C 0.1334 0.15092 0.34215 0.0
C181 C 0.15483 0.16845 0.31819 0.0
C182 C 0.06085 0.09009 0.40796 0.0
C183 C 0.07455 0.06611 0.42325 0.0
C184 C 0.07875 0.10629 0.38058 0.0
C185 C 0.11056 0.09866 0.36801 0.0
C186 C 0.12376 0.07416 0.383 0.0
C187 C 0.10595 0.05808 0.41028 0.0
H188 H 0.36593 0.855 0.82099 0.0
H189 H 0.27763 0.89675 0.86059 0.0
H190 H 0.39692 0.87982 0.87491 0.0
H191 H 0.30859 0.9212 0.91461 0.0
H192 H 0.39275 0.99645 0.97409 0.0
H193 H 0.3574 0.96589 0.92582 0.0
H194 H 0.39856 0.8795 0.94144 0.0
H195 H 0.43426 0.91038 0.98989 0.0
C196 C 0.35298 0.86913 0.84136 0.0
C197 C 0.31939 0.87413 0.83631 0.0
C198 C 0.37068 0.88316 0.87236 0.0
C199 C 0.35523 0.90258 0.89888 0.0
C200 C 0.32129 0.90668 0.89439 0.0
C201 C 0.30354 0.89256 0.86349 0.0
C202 C 0.394 0.97086 0.96744 0.0
C203 C 0.41623 0.95574 0.98557 0.0
C204 C 0.37361 0.9533 0.93995 0.0
C205 C 0.37518 0.92029 0.92987 0.0
C206 C 0.39702 0.90499 0.94849 0.0
C207 C 0.41728 0.92255 0.97626 0.0
H208 H 0.61042 0.50353 0.82165 0.0
H209 H 0.60002 0.40444 0.77177 0.0
H210 H 0.59009 0.52027 0.76703 0.0
H211 H 0.57903 0.42103 0.71755 0.0
H212 H 0.58155 0.46868 0.61369 0.0
H213 H 0.60021 0.45218 0.66879 0.0
H214 H 0.53907 0.51506 0.73083 0.0
H215 H 0.52079 0.53227 0.67541 0.0
C216 C 0.60372 0.4853 0.79908 0.0
C217 C 0.60701 0.45267 0.80102 0.0
C218 C 0.5918 0.49486 0.76786 0.0
C219 C 0.58292 0.47201 0.73788 0.0
C220 C 0.58609 0.43936 0.73995 0.0
C221 C 0.59801 0.42981 0.77111 0.0
C222 C 0.57191 0.47901 0.639 0.0
C223 C 0.54963 0.50188 0.64002 0.0
C224 C 0.58252 0.46935 0.67067 0.0
C225 C 0.57111 0.48221 0.70427 0.0
C226 C 0.54866 0.50496 0.70539 0.0
C227 C 0.53801 0.51466 0.6736 0.0
H228 H 0.94329 0.61421 0.27735 0.0
H229 H 0.85893 0.61456 0.20764 0.0
H230 H 0.96867 0.57936 0.23078 0.0
H231 H 0.88395 0.57888 0.16156 0.0
H232 H 0.92738 0.48077 0.11678 0.0
H233 H 0.90063 0.51596 0.16221 0.0
H234 H 0.99028 0.59 0.16069 0.0
H235 H 0.01654 0.55549 0.1147 0.0
C236 C 0.93015 0.60677 0.25215 0.0
C237 C 0.89922 0.61718 0.24603 0.0
C238 C 0.94467 0.58691 0.2256 0.0
C239 C 0.92809 0.57647 0.19283 0.0
C240 C 0.89703 0.58655 0.18676 0.0
C241 C 0.8829 0.60707 0.21299 0.0
C242 C 0.94124 0.50459 0.12615 0.0
C243 C 0.97399 0.51543 0.1124 0.0
C244 C 0.92595 0.52468 0.15193 0.0
C245 C 0.94357 0.55551 0.16485 0.0
C246 C 0.97634 0.56624 0.15119 0.0
C247 C 0.99125 0.54654 0.12489 0.0
H248 H 0.38038 0.23222 0.16128 0.0
H249 H 0.28836 0.16204 0.17051 0.0
H250 H 0.41418 0.18874 0.15609 0.0
H251 H 0.32246 0.11844 0.16713 0.0
H252 H 0.39374 0.0498 0.10979 0.0
H253 H 0.35604 0.08973 0.12381 0.0
H254 H 0.43418 0.15042 0.18975 0.0
H255 H 0.4723 0.11091 0.17491 0.0
C256 C 0.36734 0.20749 0.16261 0.0
C257 C 0.33165 0.20074 0.16695 0.0
C258 C 0.38682 0.18255 0.1601 0.0
C259 C 0.37117 0.15006 0.16178 0.0
C260 C 0.33538 0.14319 0.16586 0.0
C261 C 0.31583 0.16827 0.16835 0.0
C262 C 0.40271 0.07135 0.12786 0.0
C263 C 0.43627 0.07729 0.14086 0.0
C264 C 0.38098 0.09427 0.13598 0.0
C265 C 0.39224 0.1236 0.15742 0.0
C266 C 0.42497 0.12846 0.17242 0.0
C267 C 0.44675 0.10564 0.16415 0.0
H268 H 0.20049 0.88293 0.64354 0.0
H269 H 0.11851 0.88444 0.7223 0.0
H270 H 0.16893 0.90872 0.60337 0.0
H271 H 0.08682 0.90971 0.68192 0.0
H272 H 0.06626 0.99514 0.6233 0.0
H273 H 0.0939 0.96358 0.66077 0.0
H274 H 0.11738 0.90143 0.56653 0.0
H275 H 0.08965 0.93327 0.52894 0.0
C276 C 0.17555 0.88833 0.65209 0.0
C277 C 0.16217 0.8819 0.68627 0.0
C278 C 0.1574 0.90298 0.62898 0.0
C279 C 0.12552 0.91154 0.63961 0.0
C280 C 0.11159 0.90393 0.67322 0.0
C281 C 0.12969 0.88927 0.69627 0.0
C282 C 0.07702 0.97454 0.61064 0.0
C283 C 0.07571 0.96652 0.57329 0.0
C284 C 0.09276 0.95638 0.6321 0.0
C285 C 0.10769 0.92989 0.61664 0.0
C286 C 0.10632 0.92185 0.57919 0.0
C287 C 0.09041 0.93998 0.55771 0.0
H288 H 0.76481 0.43182 0.88214 0.0
H289 H 0.74049 0.38153 0.9766 0.0
H290 H 0.82513 0.44144 0.89725 0.0
H291 H 0.80092 0.39121 0.99179 0.0
H292 H 0.91847 0.40058 0.99692 0.0
H293 H 0.86029 0.3814 0.97472 0.0
H294 H 0.85629 0.47728 0.94498 0.0
H295 H 0.91372 0.49616 0.96644 0.0
C296 C 0.77239 0.4224 0.90588 0.0
C297 C 0.74782 0.40576 0.92805 0.0
C298 C 0.80695 0.42798 0.91459 0.0
C299 C 0.81781 0.41734 0.94591 0.0
C300 C 0.79346 0.39938 0.96726 0.0
C301 C 0.75878 0.39371 0.95845 0.0
C302 C 0.90521 0.41739 0.98531 0.0
C303 C 0.92078 0.44991 0.98356 0.0
C304 C 0.87186 0.40647 0.97278 0.0
C305 C 0.85372 0.42777 0.95789 0.0
C306 C 0.86966 0.46005 0.95569 0.0
C307 C 0.90263 0.47096 0.96835 0.0
H308 H 0.7479 0.61126 0.39404 0.0
H309 H 0.79022 0.59649 0.49457 0.0
H310 H 0.69037 0.5976 0.41892 0.0
H311 H 0.73272 0.58328 0.51948 0.0
H312 H 0.62268 0.53872 0.54468 0.0
H313 H 0.67898 0.54402 0.51527 0.0
H314 H 0.65701 0.62609 0.4652 0.0
H315 H 0.60046 0.62014 0.4939 0.0
C316 C 0.74496 0.60468 0.42127 0.0
C317 C 0.77364 0.60528 0.44246 0.0
C318 C 0.712 0.5971 0.43558 0.0
C319 C 0.70706 0.5898 0.47128 0.0
C320 C 0.7357 0.58867 0.49182 0.0
C321 C 0.76866 0.59637 0.47757 0.0
C322 C 0.62987 0.55767 0.5271 0.0
C323 C 0.60729 0.57889 0.52126 0.0
C324 C 0.66211 0.56083 0.51047 0.0
C325 C 0.67233 0.58535 0.48777 0.0
C326 C 0.64964 0.6066 0.48206 0.0
C327 C 0.61745 0.60346 0.49876 0.0
H328 H 0.17157 0.2843 0.14653 0.0
H329 H 0.23751 0.34085 0.07424 0.0
H330 H 0.1218 0.30027 0.12138 0.0
H331 H 0.18806 0.35751 0.04988 0.0
H332 H 0.05615 0.38094 0.10988 0.0
H333 H 0.09889 0.34996 0.12604 0.0
H334 H 0.13637 0.34362 0.01622 0.0
H335 H 0.09402 0.37552 0.00039 0.0
C336 C 0.17543 0.29981 0.12497 0.0
C337 C 0.20855 0.31156 0.11264 0.0
C338 C 0.1469 0.30911 0.11069 0.0
C339 C 0.15086 0.33045 0.08383 0.0
C340 C 0.1839 0.34076 0.07023 0.0
C341 C 0.21237 0.33137 0.0844 0.0
C342 C 0.07304 0.37231 0.08904 0.0
C343 C 0.07201 0.38086 0.05398 0.0
C344 C 0.0975 0.35439 0.09824 0.0
C345 C 0.1214 0.34455 0.07252 0.0
C346 C 0.11878 0.35131 0.03684 0.0
C347 C 0.09435 0.36935 0.02768 0.0
H348 H 0.58482 0.27981 0.03525 0.0
H349 H 0.66554 0.23181 0.98602 0.0
H350 H 0.55418 0.22778 0.05104 0.0
H351 H 0.63451 0.17964 0.00115 0.0
H352 H 0.58408 0.09506 0.06123 0.0
H353 H 0.61607 0.14837 0.05104 0.0
H354 H 0.52292 0.17808 0.02071 0.0
H355 H 0.49086 0.12502 0.03197 0.0
C356 C 0.59609 0.25817 0.02786 0.0
C357 C 0.62759 0.25997 0.00925 0.0
C358 C 0.5784 0.2283 0.03672 0.0
C359 C 0.59175 0.19949 0.02716 0.0
C360 C 0.62364 0.20139 0.00925 0.0
C361 C 0.64137 0.2313 0.00042 0.0
C362 C 0.57044 0.11313 0.05272 0.0
C363 C 0.535 0.106 0.04744 0.0
C364 C 0.5888 0.14356 0.04658 0.0
C365 C 0.5721 0.1675 0.03497 0.0
C366 C 0.53652 0.16037 0.03008 0.0
C367 C 0.51817 0.12993 0.03627 0.0
H368 H 0.92465 0.78381 0.35133 0.0
H369 H 0.90198 0.74991 0.45558 0.0
H370 H 0.94745 0.83796 0.38026 0.0
H371 H 0.92241 0.80384 0.48432 0.0
H372 H 0.98605 0.8959 0.53106 0.0
H373 H 0.96923 0.84207 0.49958 0.0
H374 H 0.93268 0.88495 0.41156 0.0
H375 H 0.95188 0.93908 0.44243 0.0
C376 C 0.92455 0.78795 0.38039 0.0
C377 C 0.9118 0.76252 0.40114 0.0
C378 C 0.93728 0.81907 0.39705 0.0
C379 C 0.9369 0.82555 0.4348 0.0
C380 C 0.92409 0.79989 0.45531 0.0
C381 C 0.91212 0.76881 0.43875 0.0
C382 C 0.9743 0.89376 0.50503 0.0
C383 C 0.96993 0.92159 0.48932 0.0
C384 C 0.96448 0.86283 0.48693 0.0
C385 C 0.94915 0.85884 0.453 0.0
C386 C 0.94484 0.88688 0.43731 0.0
C387 C 0.9555 0.91795 0.45513 0.0
H388 H 0.31721 0.71115 0.70538 0.0
H389 H 0.38602 0.78033 0.64876 0.0
H390 H 0.35209 0.6695 0.68644 0.0
H391 H 0.42044 0.73852 0.62921 0.0
H392 H 0.49383 0.66688 0.63069 0.0
H393 H 0.45894 0.70758 0.65366 0.0
H394 H 0.36752 0.63653 0.6329 0.0
H395 H 0.40255 0.59572 0.61071 0.0
C396 C 0.33964 0.71742 0.68868 0.0
C397 C 0.34886 0.74907 0.67859 0.0
C398 C 0.35957 0.6935 0.67773 0.0
C399 C 0.38915 0.70072 0.65646 0.0
C400 C 0.39815 0.73231 0.64611 0.0
C401 C 0.37825 0.75621 0.65707 0.0
C402 C 0.4663 0.65993 0.63146 0.0
C403 C 0.45084 0.62825 0.61893 0.0
C404 C 0.4463 0.68328 0.6443 0.0
C405 C 0.41043 0.67539 0.64479 0.0
C406 C 0.39507 0.64334 0.63317 0.0
C407 C 0.4151 0.61999 0.62038 0.0
H408 H 0.85999 0.90749 0.83231 0.0
H409 H 0.89376 0.82242 0.77651 0.0
H410 H 0.8865 0.94002 0.78576 0.0
H411 H 0.92119 0.85528 0.73044 0.0
H412 H 0.99537 0.93321 0.6765 0.0
H413 H 0.96983 0.90182 0.72483 0.0
H414 H 0.87762 0.94289 0.7198 0.0
H415 H 0.90311 0.97415 0.67149 0.0
C416 C 0.87239 0.89554 0.80982 0.0
C417 C 0.87382 0.86213 0.80764 0.0
C418 C 0.88794 0.91429 0.78333 0.0
C419 C 0.90574 0.90014 0.75441 0.0
C420 C 0.90783 0.86689 0.75258 0.0
C421 C 0.892 0.84808 0.77889 0.0
C422 C 0.96972 0.9356 0.6859 0.0
C423 C 0.95114 0.95601 0.67034 0.0
C424 C 0.95507 0.91754 0.71337 0.0
C425 C 0.92173 0.91989 0.72598 0.0
C426 C 0.90345 0.94082 0.71081 0.0
C427 C 0.91797 0.95859 0.6831 0.0
H428 H 0.68758 0.15886 0.35927 0.0
H429 H 0.75408 0.19996 0.27639 0.0
H430 H 0.64976 0.12777 0.31378 0.0
H431 H 0.71677 0.16769 0.23056 0.0
H432 H 0.62081 0.1357 0.16151 0.0
H433 H 0.66171 0.16542 0.20571 0.0
H434 H 0.64413 0.08349 0.26857 0.0
H435 H 0.60235 0.05465 0.22523 0.0
C436 C 0.69446 0.16083 0.33128 0.0
C437 C 0.72382 0.18195 0.32146 0.0
C438 C 0.6728 0.14284 0.30512 0.0
C439 C 0.68015 0.1452 0.26843 0.0
C440 C 0.71002 0.1657 0.25857 0.0
C441 C 0.73156 0.184 0.28482 0.0
C442 C 0.62576 0.12421 0.18486 0.0
C443 C 0.60832 0.09309 0.19023 0.0
C444 C 0.64938 0.14105 0.21002 0.0
C445 C 0.65619 0.12689 0.2408 0.0
C446 C 0.63907 0.09541 0.2456 0.0
C447 C 0.61524 0.0788 0.22069 0.0
H448 H 0.50864 0.63061 0.2668 0.0
H449 H 0.40841 0.63763 0.31239 0.0
H450 H 0.52337 0.6076 0.32017 0.0
H451 H 0.42277 0.61398 0.36512 0.0
H452 H 0.4714 0.60644 0.47055 0.0
H453 H 0.45845 0.62854 0.41657 0.0
H454 H 0.51069 0.5593 0.35232 0.0
H455 H 0.52453 0.53743 0.40689 0.0
C456 C 0.48973 0.62719 0.28815 0.0
C457 C 0.45742 0.63617 0.28542 0.0
C458 C 0.49808 0.61375 0.31862 0.0
C459 C 0.47431 0.609 0.34703 0.0
C460 C 0.44193 0.61779 0.34407 0.0
C461 C 0.43363 0.63125 0.31372 0.0
C462 C 0.48017 0.59575 0.445 0.0
C463 C 0.49891 0.56995 0.44317 0.0
C464 C 0.47252 0.60839 0.41392 0.0
C465 C 0.48324 0.59557 0.38 0.0
C466 C 0.50226 0.56993 0.37805 0.0
C467 C 0.51002 0.55726 0.40931 0.0
H468 H 0.08118 0.45862 0.74817 0.0
H469 H 0.16307 0.41341 0.78167 0.0
H470 H 0.05944 0.46369 0.81011 0.0
H471 H 0.14185 0.4196 0.84413 0.0
H472 H 0.11405 0.50501 0.94051 0.0
H473 H 0.13516 0.48318 0.88221 0.0
H474 H 0.03862 0.41937 0.86466 0.0
H475 H 0.01785 0.44034 0.92378 0.0
C476 C 0.09425 0.44945 0.76877 0.0
C477 C 0.12371 0.43559 0.76029 0.0
C478 C 0.08171 0.45214 0.80404 0.0
C479 C 0.09891 0.44179 0.83157 0.0
C480 C 0.12806 0.4274 0.82312 0.0
C481 C 0.1401 0.42386 0.78756 0.0
C482 C 0.09775 0.48565 0.92462 0.0
C483 C 0.06439 0.47435 0.93639 0.0
C484 C 0.10984 0.47312 0.89146 0.0
C485 C 0.08844 0.44967 0.86923 0.0
C486 C 0.05555 0.43733 0.8816 0.0
C487 C 0.04376 0.44925 0.91529 0.0
H488 H 0.67914 0.87145 0.91621 0.0
H489 H 0.74091 0.96653 0.91376 0.0
H490 H 0.63609 0.89571 0.95245 0.0
H491 H 0.69743 0.99087 0.94964 0.0
H492 H 0.63186 0.01475 0.04993 0.0
H493 H 0.67441 0.99167 0.01151 0.0
H494 H 0.5939 0.93131 0.94846 0.0
H495 H 0.5513 0.95388 0.98712 0.0
C496 C 0.68341 0.89757 0.92314 0.0
C497 C 0.7135 0.91705 0.91218 0.0
C498 C 0.65864 0.91149 0.94377 0.0
C499 C 0.66339 0.94519 0.95397 0.0
C500 C 0.69325 0.96477 0.94258 0.0
C501 C 0.71803 0.95084 0.92183 0.0
C502 C 0.62319 0.99655 0.0279 0.0
C503 C 0.58815 0.98612 0.02169 0.0
C504 C 0.64761 0.9835 0.00572 0.0
C505 C 0.63751 0.9597 0.97693 0.0
C506 C 0.60248 0.94935 0.97067 0.0
C507 C 0.57807 0.96242 0.99278 0.0
H508 H 0.88795 0.20013 0.45384 0.0
H509 H 0.80138 0.12471 0.46765 0.0
H510 H 0.92626 0.16488 0.47213 0.0
H511 H 0.83986 0.08927 0.48476 0.0
H512 H 0.93083 0.02882 0.48014 0.0
H513 H 0.89765 0.06387 0.4523 0.0
H514 H 0.92383 0.1396 0.53936 0.0
H515 H 0.95572 0.10438 0.56771 0.0
C516 C 0.8772 0.1759 0.46027 0.0
C517 C 0.8417 0.16521 0.45959 0.0
C518 C 0.89908 0.15581 0.47064 0.0
C519 C 0.88589 0.12441 0.47948 0.0
C520 C 0.85057 0.11329 0.47764 0.0
C521 C 0.82862 0.13365 0.46817 0.0
C522 C 0.92977 0.05312 0.49294 0.0
C523 C 0.9455 0.06396 0.52608 0.0
C524 C 0.91082 0.07302 0.47715 0.0
C525 C 0.90836 0.10431 0.4938 0.0
C526 C 0.92556 0.11563 0.52599 0.0
C527 C 0.94363 0.09549 0.5422 0.0
H528 H 0.2826 0.59242 0.15465 0.0
H529 H 0.28065 0.64294 0.06041 0.0
H530 H 0.22605 0.56104 0.13968 0.0
H531 H 0.22453 0.6118 0.04579 0.0
H532 H 0.10934 0.58727 0.06293 0.0
H533 H 0.16719 0.61308 0.07835 0.0
H534 H 0.19452 0.51927 0.089 0.0
H535 H 0.13616 0.49298 0.07329 0.0
C536 C 0.27033 0.59657 0.1306 0.0
C537 C 0.28596 0.6204 0.10891 0.0
C538 C 0.23808 0.57855 0.12202 0.0
C539 C 0.22087 0.58434 0.09185 0.0
C540 C 0.23707 0.60723 0.06951 0.0
C541 C 0.26929 0.62496 0.07785 0.0
C542 C 0.12748 0.57201 0.06874 0.0
C543 C 0.11813 0.53801 0.0667 0.0
C544 C 0.1607 0.58684 0.07736 0.0
C545 C 0.18535 0.56812 0.08446 0.0
C546 C 0.17592 0.53421 0.08362 0.0
C547 C 0.1426 0.51922 0.07455 0.0
H548 H 0.26357 0.4181 0.60762 0.0
H549 H 0.27344 0.52213 0.63449 0.0
H550 H 0.32327 0.42451 0.58808 0.0
H551 H 0.33338 0.52847 0.61598 0.0
H552 H 0.42394 0.53142 0.53723 0.0
H553 H 0.36565 0.52474 0.56099 0.0
H554 H 0.38165 0.43855 0.60715 0.0
H555 H 0.44002 0.44511 0.58265 0.0
C556 C 0.27861 0.4423 0.60983 0.0
C557 C 0.26369 0.46963 0.62237 0.0
C558 C 0.31291 0.44596 0.59879 0.0
C559 C 0.33312 0.47703 0.6002 0.0
C560 C 0.31841 0.50424 0.61385 0.0
C561 C 0.28408 0.5006 0.6247 0.0
C562 C 0.41505 0.51119 0.55269 0.0
C563 C 0.43647 0.48889 0.55835 0.0
C564 C 0.38168 0.50741 0.56645 0.0
C565 C 0.36895 0.48121 0.58622 0.0
C566 C 0.39049 0.45882 0.59176 0.0
C567 C 0.42392 0.46259 0.57785 0.0
H568 H 0.85164 0.67973 0.91422 0.0
H569 H 0.9277 0.76025 0.95602 0.0
H570 H 0.88163 0.64203 0.9407 0.0
H571 H 0.95796 0.72229 0.98203 0.0
H572 H 0.01841 0.63231 0.9733 0.0
H573 H 0.98919 0.67427 0.95387 0.0
H574 H 0.89622 0.63225 0.00607 0.0
H575 H 0.92552 0.59066 0.02602 0.0
C576 C 0.87476 0.68935 0.92902 0.0
C577 C 0.88737 0.7229 0.93304 0.0
C578 C 0.89176 0.66782 0.94435 0.0
C579 C 0.92196 0.67938 0.96346 0.0
C580 C 0.93472 0.71287 0.96735 0.0
C581 C 0.91738 0.73451 0.95256 0.0
C582 C 0.9919 0.63244 0.98109 0.0
C583 C 0.97412 0.60832 0.00102 0.0
C584 C 0.97526 0.65641 0.97007 0.0
C585 C 0.94048 0.65624 0.97833 0.0
C586 C 0.92301 0.63268 0.99918 0.0
C587 C 0.93979 0.60906 0.01071 0.0
H588 H 0.39259 0.78353 0.13111 0.0
H589 H 0.48004 0.78909 0.19847 0.0
H590 H 0.41187 0.83941 0.1185 0.0
H591 H 0.49872 0.84544 0.18685 0.0
H592 H 0.54519 0.92915 0.12545 0.0
H593 H 0.52309 0.87408 0.13857 0.0
H594 H 0.42031 0.89577 0.142 0.0
H595 H 0.44275 0.95111 0.12751 0.0
C596 C 0.41576 0.7968 0.14361 0.0
C597 C 0.43494 0.78168 0.1656 0.0
C598 C 0.42668 0.82898 0.13651 0.0
C599 C 0.457 0.84695 0.15138 0.0
C600 C 0.47562 0.83213 0.17428 0.0
C601 C 0.46482 0.79985 0.18118 0.0
C602 C 0.51783 0.92215 0.12888 0.0
C603 C 0.49567 0.94443 0.12571 0.0
C604 C 0.50516 0.89061 0.13675 0.0
C605 C 0.46995 0.88053 0.14202 0.0
C606 C 0.44759 0.90266 0.138 0.0
C607 C 0.46035 0.93434 0.12977 0.0
H608 H 0.12767 0.24955 0.72071 0.0
H609 H 0.06327 0.27891 0.64389 0.0
H610 H 0.11195 0.19277 0.69516 0.0
H611 H 0.04765 0.22256 0.61875 0.0
H612 H 0.06244 0.12821 0.554 0.0
H613 H 0.07934 0.18295 0.58331 0.0
H614 H 0.06035 0.1473 0.68711 0.0
H615 H 0.04345 0.092 0.65775 0.0
C616 C 0.11001 0.2439 0.69861 0.0
C617 C 0.09693 0.26877 0.68415 0.0
C618 C 0.10095 0.21142 0.6841 0.0
C619 C 0.07891 0.20334 0.65471 0.0
C620 C 0.06517 0.22813 0.64098 0.0
C621 C 0.07401 0.26043 0.65555 0.0
C622 C 0.06206 0.13182 0.58308 0.0
C623 C 0.05139 0.10566 0.6035 0.0
C624 C 0.07156 0.16329 0.59986 0.0
C625 C 0.07078 0.16943 0.63747 0.0
C626 C 0.06125 0.14322 0.65805 0.0
C627 C 0.05148 0.11161 0.64122 0.0
H628 H 0.66944 0.29339 0.45228 0.0
H629 H 0.74416 0.36397 0.40423 0.0
H630 H 0.63232 0.33393 0.4653 0.0
H631 H 0.70646 0.40433 0.41607 0.0
H632 H 0.64518 0.477 0.47853 0.0
H633 H 0.68339 0.43772 0.46271 0.0
H634 H 0.59621 0.36271 0.43667 0.0
H635 H 0.55802 0.40194 0.45396 0.0
C636 C 0.67793 0.31759 0.44444 0.0
C637 C 0.70977 0.32546 0.42726 0.0
C638 C 0.65646 0.34078 0.45157 0.0
C639 C 0.66614 0.37238 0.44139 0.0
C640 C 0.69826 0.38037 0.42461 0.0
C641 C 0.71989 0.35721 0.41777 0.0
C642 C 0.63425 0.45218 0.46901 0.0
C643 C 0.59867 0.44241 0.46758 0.0
C644 C 0.65616 0.42965 0.45982 0.0
C645 C 0.64295 0.39689 0.44873 0.0
C646 C 0.60728 0.38754 0.44588 0.0
C647 C 0.58537 0.41005 0.45538 0.0
loop_
_geom_bond_atom_site_label_1
_geom_bond_atom_site_label_2
_geom_bond_distance
_geom_bond_site_symmetry_2
_ccdc_geom_bond_type
O0 Cd1 2.300 . S
O0 C7 1.275 . S
Cd1 O0 2.300 . S
Cd1 O9 2.381 . S
Cd1 O10 2.378 . S
O2 Cd3 2.385 . S
O2 C7 1.255 . S
Cd3 O2 2.385 . S
Cd3 O4 2.317 . S
O4 Cd3 2.317 . S
O4 C5 1.232 . S
C5 O4 1.232 . S
C5 O6 1.218 . S
O6 C5 1.218 . S
C7 O0 1.275 . S
C7 O2 1.255 . S
C8 O9 1.258 . S
C8 O10 1.256 . S
O9 Cd1 2.381 . S
O9 C8 1.258 . S
O10 Cd1 2.378 . S
O10 C8 1.256 . S
O11 Cd12 2.300 . S
O11 C18 1.275 . S
Cd12 O11 2.300 . S
Cd12 O20 2.381 . S
Cd12 O21 2.378 . S
O13 Cd14 2.385 . S
O13 C18 1.255 . S
Cd14 O13 2.385 . S
Cd14 O15 2.317 . S
O15 Cd14 2.317 . S
O15 C16 1.232 . S
C16 O15 1.232 . S
C16 O17 1.218 . S
O17 C16 1.218 . S
C18 O11 1.275 . S
C18 O13 1.255 . S
C19 O20 1.258 . S
C19 O21 1.256 . S
O20 Cd12 2.381 . S
O20 C19 1.258 . S
O21 Cd12 2.378 . S
O21 C19 1.256 . S
O22 Cd23 2.300 . S
O22 C29 1.275 . S
Cd23 O22 2.300 . S
Cd23 O31 2.381 . S
Cd23 O32 2.378 . S
O24 Cd25 2.385 . S
O24 C29 1.255 . S
Cd25 O24 2.385 . S
Cd25 O26 2.317 . S
O26 Cd25 2.317 . S
O26 C27 1.232 . S
C27 O26 1.232 . S
C27 O28 1.218 . S
O28 C27 1.218 . S
C29 O22 1.275 . S
C29 O24 1.255 . S
C30 O31 1.258 . S
C30 O32 1.256 . S
O31 Cd23 2.381 . S
O31 C30 1.258 . S
O32 Cd23 2.378 . S
O32 C30 1.256 . S
O33 Cd34 2.300 . S
O33 C40 1.275 . S
Cd34 O33 2.300 . S
Cd34 O42 2.381 . S
Cd34 O43 2.378 . S
O35 Cd36 2.385 . S
O35 C40 1.255 . S
Cd36 O35 2.385 . S
Cd36 O37 2.317 . S
O37 Cd36 2.317 . S
O37 C38 1.232 . S
C38 O37 1.232 . S
C38 O39 1.218 . S
O39 C38 1.218 . S
C40 O33 1.275 . S
C40 O35 1.255 . S
C41 O42 1.258 . S
C41 O43 1.256 . S
O42 Cd34 2.381 . S
O42 C41 1.258 . S
O43 Cd34 2.378 . S
O43 C41 1.256 . S
O44 Cd45 2.300 . S
O44 C51 1.275 . S
Cd45 O44 2.300 . S
Cd45 O53 2.381 . S
Cd45 O54 2.378 . S
O46 Cd47 2.385 . S
O46 C51 1.255 . S
Cd47 O46 2.385 . S
Cd47 O48 2.317 . S
O48 Cd47 2.317 . S
O48 C49 1.232 . S
C49 O48 1.232 . S
C49 O50 1.218 . S
O50 C49 1.218 . S
C51 O44 1.275 . S
C51 O46 1.255 . S
C52 O53 1.258 . S
C52 O54 1.256 . S
O53 Cd45 2.381 . S
O53 C52 1.258 . S
O54 Cd45 2.378 . S
O54 C52 1.256 . S
O55 Cd56 2.300 . S
O55 C62 1.275 . S
Cd56 O55 2.300 . S
Cd56 O64 2.381 . S
Cd56 O65 2.378 . S
O57 Cd58 2.385 . S
O57 C62 1.255 . S
Cd58 O57 2.385 . S
Cd58 O59 2.317 . S
O59 Cd58 2.317 . S
O59 C60 1.232 . S
C60 O59 1.232 . S
C60 O61 1.218 . S
O61 C60 1.218 . S
C62 O55 1.275 . S
C62 O57 1.255 . S
C63 O64 1.258 . S
C63 O65 1.256 . S
O64 Cd56 2.381 . S
O64 C63 1.258 . S
O65 Cd56 2.378 . S
O65 C63 1.256 . S
O66 Cd67 2.300 . S
O66 C73 1.275 . S
Cd67 O66 2.300 . S
Cd67 O75 2.381 . S
Cd67 O76 2.378 . S
O68 Cd69 2.385 . S
O68 C73 1.255 . S
Cd69 O68 2.385 . S
Cd69 O70 2.317 . S
O70 Cd69 2.317 . S
O70 C71 1.232 . S
C71 O70 1.232 . S
C71 O72 1.218 . S
O72 C71 1.218 . S
C73 O66 1.275 . S
C73 O68 1.255 . S
C74 O75 1.258 . S
C74 O76 1.256 . S
O75 Cd67 2.381 . S
O75 C74 1.258 . S
O76 Cd67 2.378 . S
O76 C74 1.256 . S
O77 Cd78 2.300 . S
O77 C84 1.275 . S
Cd78 O77 2.300 . S
Cd78 O86 2.381 . S
Cd78 O87 2.378 . S
O79 Cd80 2.385 . S
O79 C84 1.255 . S
Cd80 O79 2.385 . S
Cd80 O81 2.317 . S
O81 Cd80 2.317 . S
O81 C82 1.232 . S
C82 O81 1.232 . S
C82 O83 1.218 . S
O83 C82 1.218 . S
C84 O77 1.275 . S
C84 O79 1.255 . S
C85 O86 1.258 . S
C85 O87 1.256 . S
O86 Cd78 2.381 . S
O86 C85 1.258 . S
O87 Cd78 2.378 . S
O87 C85 1.256 . S
Dy88 O92 2.398 . S
Dy88 O93 2.491 . S
Dy88 O94 2.395 1_545 S
Dy88 O95 2.664 1_545 S
Dy88 O99 2.326 . S
Dy88 O103 2.310 1_455 S
Dy88 O104 2.351 1_545 S
C89 O100 1.185 . S
C89 O101 1.355 . S
C90 O92 1.185 . S
C90 O93 1.355 . S
Dy91 O95 2.310 1_645 S
Dy91 O98 2.351 1_655 S
Dy91 O100 2.398 1_545 S
Dy91 O101 2.491 1_545 S
Dy91 O102 2.403 . S
Dy91 O103 2.664 . S
Dy91 O105 2.326 1_545 S
O92 Dy88 2.398 . S
O92 C90 1.185 . S
O93 Dy88 2.491 . S
O93 C90 1.355 . S
O94 Dy88 2.395 1_565 S
O94 C96 1.260 . S
O95 Dy88 2.664 1_565 S
O95 Dy91 2.310 1_465 S
O95 C96 1.268 . S
C96 O94 1.260 . S
C96 O95 1.268 . S
C97 O102 1.254 . S
C97 O103 1.268 . S
O98 Dy91 2.351 1_455 S
O98 C106 1.249 . S
O99 Dy88 2.326 . S
O99 C106 1.267 . S
O100 C89 1.185 . S
O100 Dy91 2.398 1_565 S
O101 C89 1.355 . S
O101 Dy91 2.491 1_565 S
O102 Dy91 2.403 . S
O102 C97 1.254 . S
O103 Dy88 2.310 1_655 S
O103 Dy91 2.664 . S
O103 C97 1.268 . S
O104 Dy88 2.351 1_565 S
O104 C107 1.249 1_455 S
O105 Dy91 2.326 1_565 S
O105 C107 1.267 . S
C106 O98 1.249 . S
C106 O99 1.267 . S
C107 O104 1.249 1_655 S
C107 O105 1.267 . S
Dy108 O112 2.398 . S
Dy108 O113 2.491 . S
Dy108 O114 2.403 1_545 S
Dy108 O115 2.664 1_545 S
Dy108 O119 2.326 . S
Dy108 O123 2.310 . S
Dy108 O124 2.351 . S
C109 O120 1.185 1_565 S
C109 O121 1.355 . S
C110 O112 1.185 . S
C110 O113 1.355 . S
Dy111 O115 2.310 1_545 S
Dy111 O118 2.351 . S
Dy111 O120 2.398 1_554 S
Dy111 O121 2.491 1_544 S
Dy111 O122 2.403 . S
Dy111 O123 2.664 . S
Dy111 O125 2.326 . S
O112 Dy108 2.398 . S
O112 C110 1.185 . S
O113 Dy108 2.491 . S
O113 C110 1.355 . S
O114 Dy108 2.403 1_565 S
O114 C116 1.254 . S
O115 Dy108 2.664 1_565 S
O115 Dy111 2.310 1_565 S
O115 C116 1.268 . S
C116 O114 1.254 . S
C116 O115 1.268 . S
C117 O122 1.254 . S
C117 O123 1.268 . S
O118 Dy111 2.351 . S
O118 C126 1.249 . S
O119 Dy108 2.326 . S
O119 C126 1.267 . S
O120 C109 1.185 1_545 S
O120 Dy111 2.398 1_556 S
O121 C109 1.355 . S
O121 Dy111 2.491 1_566 S
O122 Dy111 2.403 . S
O122 C117 1.254 . S
O123 Dy108 2.310 . S
O123 Dy111 2.664 . S
O123 C117 1.268 . S
O124 Dy108 2.351 . S
O124 C127 1.249 1_545 S
O125 Dy111 2.326 . S
O125 C127 1.267 1_545 S
C126 O118 1.249 . S
C126 O119 1.267 . S
C127 O124 1.249 1_565 S
C127 O125 1.267 1_565 S
Dy128 O132 2.398 . S
Dy128 O133 2.491 . S
Dy128 O134 2.403 . S
Dy128 O135 2.664 . S
Dy128 O139 2.326 . S
Dy128 O143 2.310 . S
Dy128 O144 2.351 . S
C129 O140 1.185 . S
C129 O141 1.355 . S
C130 O132 1.185 . S
C130 O133 1.355 . S
Dy131 O135 2.310 . S
Dy131 O138 2.351 . S
Dy131 O140 2.398 . S
Dy131 O141 2.491 . S
Dy131 O142 2.403 . S
Dy131 O143 2.664 . S
Dy131 O145 2.326 . S
O132 Dy128 2.398 . S
O132 C130 1.185 . S
O133 Dy128 2.491 . S
O133 C130 1.355 . S
O134 Dy128 2.403 . S
O134 C136 1.254 . S
O135 Dy128 2.664 . S
O135 Dy131 2.310 . S
O135 C136 1.268 . S
C136 O134 1.254 . S
C136 O135 1.268 . S
C137 O142 1.254 . S
C137 O143 1.268 . S
O138 Dy131 2.351 . S
O138 C146 1.249 . S
O139 Dy128 2.326 . S
O139 C146 1.267 . S
O140 C129 1.185 . S
O140 Dy131 2.398 . S
O141 C129 1.355 . S
O141 Dy131 2.491 . S
O142 Dy131 2.403 . S
O142 C137 1.254 . S
O143 Dy128 2.310 . S
O143 Dy131 2.664 . S
O143 C137 1.268 . S
O144 Dy128 2.351 . S
O144 C147 1.249 . S
O145 Dy131 2.326 . S
O145 C147 1.267 . S
C146 O138 1.249 . S
C146 O139 1.267 . S
C147 O144 1.249 . S
C147 O145 1.267 . S
Dy148 O152 2.398 . S
Dy148 O153 2.491 . S
Dy148 O154 2.403 . S
Dy148 O155 2.664 . S
Dy148 O159 2.326 . S
Dy148 O163 2.310 1_554 S
Dy148 O164 2.351 1_455 S
C149 O160 1.185 . S
C149 O161 1.355 . S
C150 O152 1.185 . S
C150 O153 1.355 . S
Dy151 O155 2.310 1_556 S
Dy151 O158 2.351 1_556 S
Dy151 O160 2.398 1_455 S
Dy151 O161 2.491 1_455 S
Dy151 O162 2.403 . S
Dy151 O163 2.664 . S
Dy151 O165 2.326 1_455 S
O152 Dy148 2.398 . S
O152 C150 1.185 . S
O153 Dy148 2.491 . S
O153 C150 1.355 . S
O154 Dy148 2.403 . S
O154 C156 1.254 1_455 S
O155 Dy148 2.664 . S
O155 Dy151 2.310 1_554 S
O155 C156 1.268 1_455 S
C156 O154 1.254 1_655 S
C156 O155 1.268 1_655 S
C157 O162 1.254 . S
C157 O163 1.268 . S
O158 Dy151 2.351 1_554 S
O158 C166 1.249 . S
O159 Dy148 2.326 . S
O159 C166 1.267 . S
O160 C149 1.185 . S
O160 Dy151 2.398 1_655 S
O161 C149 1.355 . S
O161 Dy151 2.491 1_655 S
O162 Dy151 2.403 . S
O162 C157 1.254 . S
O163 Dy148 2.310 1_556 S
O163 Dy151 2.664 . S
O163 C157 1.268 . S
O164 Dy148 2.351 1_655 S
O164 C167 1.249 1_554 S
O165 Dy151 2.326 1_655 S
O165 C167 1.267 . S
C166 O158 1.249 . S
C166 O159 1.267 . S
C167 O164 1.249 1_556 S
C167 O165 1.267 . S
H168 C176 0.950 . S
H169 C181 0.950 . S
H170 C178 0.950 . S
H171 C180 0.950 . S
H172 C182 0.950 . S
H173 C184 0.950 . S
H174 C186 0.950 . S
H175 C187 0.950 . S
C176 H168 0.950 . S
C176 C177 1.386 . S
C176 C178 1.391 . S
C177 C176 1.386 . S
C177 C181 1.393 . S
C178 H170 0.950 . S
C178 C176 1.391 . S
C178 C179 1.400 . S
C179 C178 1.400 . S
C179 C180 1.398 . S
C179 C185 1.491 . S
C180 H171 0.950 . S
C180 C179 1.398 . S
C180 C181 1.391 . S
C181 H169 0.950 . S
C181 C177 1.393 . S
C181 C180 1.391 . S
C182 H172 0.950 . S
C182 C183 1.386 . S
C182 C184 1.391 . S
C183 C182 1.386 . S
C183 C187 1.393 . S
C184 H173 0.950 . S
C184 C182 1.391 . S
C184 C185 1.400 . S
C185 C179 1.491 . S
C185 C184 1.400 . S
C185 C186 1.398 . S
C186 H174 0.950 . S
C186 C185 1.398 . S
C186 C187 1.391 . S
C187 H175 0.950 . S
C187 C183 1.393 . S
C187 C186 1.391 . S
H188 C196 0.950 . S
H189 C201 0.950 . S
H190 C198 0.950 . S
H191 C200 0.950 . S
H192 C202 0.950 . S
H193 C204 0.950 . S
H194 C206 0.950 . S
H195 C207 0.950 . S
C196 H188 0.950 . S
C196 C197 1.386 . S
C196 C198 1.391 . S
C197 C196 1.386 . S
C197 C201 1.393 . S
C198 H190 0.950 . S
C198 C196 1.391 . S
C198 C199 1.400 . S
C199 C198 1.400 . S
C199 C200 1.398 . S
C199 C205 1.491 . S
C200 H191 0.950 . S
C200 C199 1.398 . S
C200 C201 1.391 . S
C201 H189 0.950 . S
C201 C197 1.393 . S
C201 C200 1.391 . S
C202 H192 0.950 . S
C202 C203 1.386 . S
C202 C204 1.391 . S
C203 C202 1.386 . S
C203 C207 1.393 . S
C204 H193 0.950 . S
C204 C202 1.391 . S
C204 C205 1.400 . S
C205 C199 1.491 . S
C205 C204 1.400 . S
C205 C206 1.398 . S
C206 H194 0.950 . S
C206 C205 1.398 . S
C206 C207 1.391 . S
C207 H195 0.950 . S
C207 C203 1.393 . S
C207 C206 1.391 . S
H208 C216 0.950 . S
H209 C221 0.950 . S
H210 C218 0.950 . S
H211 C220 0.950 . S
H212 C222 0.950 . S
H213 C224 0.950 . S
H214 C226 0.950 . S
H215 C227 0.950 . S
C216 H208 0.950 . S
C216 C217 1.386 . S
C216 C218 1.391 . S
C217 C216 1.386 . S
C217 C221 1.393 . S
C218 H210 0.950 . S
C218 C216 1.391 . S
C218 C219 1.400 . S
C219 C218 1.400 . S
C219 C220 1.398 . S
C219 C225 1.491 . S
C220 H211 0.950 . S
C220 C219 1.398 . S
C220 C221 1.391 . S
C221 H209 0.950 . S
C221 C217 1.393 . S
C221 C220 1.391 . S
C222 H212 0.950 . S
C222 C223 1.386 . S
C222 C224 1.391 . S
C223 C222 1.386 . S
C223 C227 1.393 . S
C224 H213 0.950 . S
C224 C222 1.391 . S
C224 C225 1.400 . S
C225 C219 1.491 . S
C225 C224 1.400 . S
C225 C226 1.398 . S
C226 H214 0.950 . S
C226 C225 1.398 . S
C226 C227 1.391 . S
C227 H215 0.950 . S
C227 C223 1.393 . S
C227 C226 1.391 . S
H228 C236 0.950 . S
H229 C241 0.950 . S
H230 C238 0.950 . S
H231 C240 0.950 . S
H232 C242 0.950 . S
H233 C244 0.950 . S
H234 C246 0.950 1_455 S
H235 C247 0.950 . S
C236 H228 0.950 . S
C236 C237 1.386 . S
C236 C238 1.391 . S
C237 C236 1.386 . S
C237 C241 1.393 . S
C238 H230 0.950 . S
C238 C236 1.391 . S
C238 C239 1.400 . S
C239 C238 1.400 . S
C239 C240 1.398 . S
C239 C245 1.491 . S
C240 H231 0.950 . S
C240 C239 1.398 . S
C240 C241 1.391 . S
C241 H229 0.950 . S
C241 C237 1.393 . S
C241 C240 1.391 . S
C242 H232 0.950 . S
C242 C243 1.386 . S
C242 C244 1.391 . S
C243 C242 1.386 . S
C243 C247 1.393 1_655 S
C244 H233 0.950 . S
C244 C242 1.391 . S
C244 C245 1.400 . S
C245 C239 1.491 . S
C245 C244 1.400 . S
C245 C246 1.398 . S
C246 H234 0.950 1_655 S
C246 C245 1.398 . S
C246 C247 1.391 1_655 S
C247 H235 0.950 . S
C247 C243 1.393 1_455 S
C247 C246 1.391 1_455 S
H248 C256 0.950 . S
H249 C261 0.950 . S
H250 C258 0.950 . S
H251 C260 0.950 . S
H252 C262 0.950 . S
H253 C264 0.950 . S
H254 C266 0.950 . S
H255 C267 0.950 . S
C256 H248 0.950 . S
C256 C257 1.386 . S
C256 C258 1.391 . S
C257 C256 1.386 . S
C257 C261 1.393 . S
C258 H250 0.950 . S
C258 C256 1.391 . S
C258 C259 1.400 . S
C259 C258 1.400 . S
C259 C260 1.398 . S
C259 C265 1.491 . S
C260 H251 0.950 . S
C260 C259 1.398 . S
C260 C261 1.391 . S
C261 H249 0.950 . S
C261 C257 1.393 . S
C261 C260 1.391 . S
C262 H252 0.950 . S
C262 C263 1.386 . S
C262 C264 1.391 . S
C263 C262 1.386 . S
C263 C267 1.393 . S
C264 H253 0.950 . S
C264 C262 1.391 . S
C264 C265 1.400 . S
C265 C259 1.491 . S
C265 C264 1.400 . S
C265 C266 1.398 . S
C266 H254 0.950 . S
C266 C265 1.398 . S
C266 C267 1.391 . S
C267 H255 0.950 . S
C267 C263 1.393 . S
C267 C266 1.391 . S
H268 C276 0.950 . S
H269 C281 0.950 . S
H270 C278 0.950 . S
H271 C280 0.950 . S
H272 C282 0.950 1_545 S
H273 C284 0.950 1_545 S
H274 C286 0.950 . S
H275 C287 0.950 . S
C276 H268 0.950 . S
C276 C277 1.386 . S
C276 C278 1.391 . S
C277 C276 1.386 . S
C277 C281 1.393 . S
C278 H270 0.950 . S
C278 C276 1.391 . S
C278 C279 1.400 . S
C279 C278 1.400 . S
C279 C280 1.398 . S
C279 C285 1.491 . S
C280 H271 0.950 . S
C280 C279 1.398 . S
C280 C281 1.391 . S
C281 H269 0.950 . S
C281 C277 1.393 . S
C281 C280 1.391 . S
C282 H272 0.950 1_565 S
C282 C283 1.386 . S
C282 C284 1.391 . S
C283 C282 1.386 . S
C283 C287 1.393 . S
C284 H273 0.950 1_565 S
C284 C282 1.391 . S
C284 C285 1.400 . S
C285 C279 1.491 . S
C285 C284 1.400 . S
C285 C286 1.398 . S
C286 H274 0.950 . S
C286 C285 1.398 . S
C286 C287 1.391 . S
C287 H275 0.950 . S
C287 C283 1.393 . S
C287 C286 1.391 . S
H288 C296 0.950 . S
H289 C301 0.950 . S
H290 C298 0.950 . S
H291 C300 0.950 . S
H292 C302 0.950 . S
H293 C304 0.950 . S
H294 C306 0.950 1_554 S
H295 C307 0.950 1_554 S
C296 H288 0.950 . S
C296 C297 1.386 . S
C296 C298 1.391 . S
C297 C296 1.386 . S
C297 C301 1.393 . S
C298 H290 0.950 . S
C298 C296 1.391 . S
C298 C299 1.400 . S
C299 C298 1.400 . S
C299 C300 1.398 . S
C299 C305 1.491 . S
C300 H291 0.950 . S
C300 C299 1.398 . S
C300 C301 1.391 . S
C301 H289 0.950 . S
C301 C297 1.393 . S
C301 C300 1.391 . S
C302 H292 0.950 . S
C302 C303 1.386 . S
C302 C304 1.391 . S
C303 C302 1.386 . S
C303 C307 1.393 . S
C304 H293 0.950 . S
C304 C302 1.391 . S
C304 C305 1.400 . S
C305 C299 1.491 . S
C305 C304 1.400 . S
C305 C306 1.398 . S
C306 H294 0.950 1_556 S
C306 C305 1.398 . S
C306 C307 1.391 . S
C307 H295 0.950 1_556 S
C307 C303 1.393 . S
C307 C306 1.391 . S
H308 C316 0.950 . S
H309 C321 0.950 . S
H310 C318 0.950 . S
H311 C320 0.950 . S
H312 C322 0.950 . S
H313 C324 0.950 . S
H314 C326 0.950 . S
H315 C327 0.950 . S
C316 H308 0.950 . S
C316 C317 1.386 . S
C316 C318 1.391 . S
C317 C316 1.386 . S
C317 C321 1.393 . S
C318 H310 0.950 . S
C318 C316 1.391 . S
C318 C319 1.400 . S
C319 C318 1.400 . S
C319 C320 1.398 . S
C319 C325 1.491 . S
C320 H311 0.950 . S
C320 C319 1.398 . S
C320 C321 1.391 . S
C321 H309 0.950 . S
C321 C317 1.393 . S
C321 C320 1.391 . S
C322 H312 0.950 . S
C322 C323 1.386 . S
C322 C324 1.391 . S
C323 C322 1.386 . S
C323 C327 1.393 . S
C324 H313 0.950 . S
C324 C322 1.391 . S
C324 C325 1.400 . S
C325 C319 1.491 . S
C325 C324 1.400 . S
C325 C326 1.398 . S
C326 H314 0.950 . S
C326 C325 1.398 . S
C326 C327 1.391 . S
C327 H315 0.950 . S
C327 C323 1.393 . S
C327 C326 1.391 . S
H328 C336 0.950 . S
H329 C341 0.950 . S
H330 C338 0.950 . S
H331 C340 0.950 . S
H332 C342 0.950 . S
H333 C344 0.950 . S
H334 C346 0.950 . S
H335 C347 0.950 . S
C336 H328 0.950 . S
C336 C337 1.386 . S
C336 C338 1.391 . S
C337 C336 1.386 . S
C337 C341 1.393 . S
C338 H330 0.950 . S
C338 C336 1.391 . S
C338 C339 1.400 . S
C339 C338 1.400 . S
C339 C340 1.398 . S
C339 C345 1.491 . S
C340 H331 0.950 . S
C340 C339 1.398 . S
C340 C341 1.391 . S
C341 H329 0.950 . S
C341 C337 1.393 . S
C341 C340 1.391 . S
C342 H332 0.950 . S
C342 C343 1.386 . S
C342 C344 1.391 . S
C343 C342 1.386 . S
C343 C347 1.393 . S
C344 H333 0.950 . S
C344 C342 1.391 . S
C344 C345 1.400 . S
C345 C339 1.491 . S
C345 C344 1.400 . S
C345 C346 1.398 . S
C346 H334 0.950 . S
C346 C345 1.398 . S
C346 C347 1.391 . S
C347 H335 0.950 . S
C347 C343 1.393 . S
C347 C346 1.391 . S
H348 C356 0.950 . S
H349 C361 0.950 . S
H350 C358 0.950 . S
H351 C360 0.950 . S
H352 C362 0.950 . S
H353 C364 0.950 . S
H354 C366 0.950 . S
H355 C367 0.950 . S
C356 H348 0.950 . S
C356 C357 1.386 . S
C356 C358 1.391 . S
C357 C356 1.386 . S
C357 C361 1.393 . S
C358 H350 0.950 . S
C358 C356 1.391 . S
C358 C359 1.400 . S
C359 C358 1.400 . S
C359 C360 1.398 . S
C359 C365 1.491 . S
C360 H351 0.950 . S
C360 C359 1.398 . S
C360 C361 1.391 . S
C361 H349 0.950 . S
C361 C357 1.393 . S
C361 C360 1.391 . S
C362 H352 0.950 . S
C362 C363 1.386 1_556 S
C362 C364 1.391 . S
C363 C362 1.386 1_554 S
C363 C367 1.393 . S
C364 H353 0.950 . S
C364 C362 1.391 . S
C364 C365 1.400 . S
C365 C359 1.491 . S
C365 C364 1.400 . S
C365 C366 1.398 1_556 S
C366 H354 0.950 . S
C366 C365 1.398 1_554 S
C366 C367 1.391 . S
C367 H355 0.950 . S
C367 C363 1.393 . S
C367 C366 1.391 . S
H368 C376 0.950 . S
H369 C381 0.950 . S
H370 C378 0.950 . S
H371 C380 0.950 . S
H372 C382 0.950 1_455 S
H373 C384 0.950 . S
H374 C386 0.950 . S
H375 C387 0.950 . S
C376 H368 0.950 . S
C376 C377 1.386 . S
C376 C378 1.391 . S
C377 C376 1.386 . S
C377 C381 1.393 . S
C378 H370 0.950 . S
C378 C376 1.391 . S
C378 C379 1.400 . S
C379 C378 1.400 . S
C379 C380 1.398 . S
C379 C385 1.491 . S
C380 H371 0.950 . S
C380 C379 1.398 . S
C380 C381 1.391 . S
C381 H369 0.950 . S
C381 C377 1.393 . S
C381 C380 1.391 . S
C382 H372 0.950 1_655 S
C382 C383 1.386 . S
C382 C384 1.391 . S
C383 C382 1.386 . S
C383 C387 1.393 . S
C384 H373 0.950 . S
C384 C382 1.391 . S
C384 C385 1.400 . S
C385 C379 1.491 . S
C385 C384 1.400 . S
C385 C386 1.398 . S
C386 H374 0.950 . S
C386 C385 1.398 . S
C386 C387 1.391 . S
C387 H375 0.950 . S
C387 C383 1.393 . S
C387 C386 1.391 . S
H388 C396 0.950 . S
H389 C401 0.950 . S
H390 C398 0.950 . S
H391 C400 0.950 . S
H392 C402 0.950 . S
H393 C404 0.950 . S
H394 C406 0.950 . S
H395 C407 0.950 . S
C396 H388 0.950 . S
C396 C397 1.386 . S
C396 C398 1.391 . S
C397 C396 1.386 . S
C397 C401 1.393 . S
C398 H390 0.950 . S
C398 C396 1.391 . S
C398 C399 1.400 . S
C399 C398 1.400 . S
C399 C400 1.398 . S
C399 C405 1.491 . S
C400 H391 0.950 . S
C400 C399 1.398 . S
C400 C401 1.391 . S
C401 H389 0.950 . S
C401 C397 1.393 . S
C401 C400 1.391 . S
C402 H392 0.950 . S
C402 C403 1.386 . S
C402 C404 1.391 . S
C403 C402 1.386 . S
C403 C407 1.393 . S
C404 H393 0.950 . S
C404 C402 1.391 . S
C404 C405 1.400 . S
C405 C399 1.491 . S
C405 C404 1.400 . S
C405 C406 1.398 . S
C406 H394 0.950 . S
C406 C405 1.398 . S
C406 C407 1.391 . S
C407 H395 0.950 . S
C407 C403 1.393 . S
C407 C406 1.391 . S
H408 C416 0.950 . S
H409 C421 0.950 . S
H410 C418 0.950 . S
H411 C420 0.950 . S
H412 C422 0.950 . S
H413 C424 0.950 . S
H414 C426 0.950 . S
H415 C427 0.950 . S
C416 H408 0.950 . S
C416 C417 1.386 . S
C416 C418 1.391 . S
C417 C416 1.386 . S
C417 C421 1.393 . S
C418 H410 0.950 . S
C418 C416 1.391 . S
C418 C419 1.400 . S
C419 C418 1.400 . S
C419 C420 1.398 . S
C419 C425 1.491 . S
C420 H411 0.950 . S
C420 C419 1.398 . S
C420 C421 1.391 . S
C421 H409 0.950 . S
C421 C417 1.393 . S
C421 C420 1.391 . S
C422 H412 0.950 . S
C422 C423 1.386 . S
C422 C424 1.391 . S
C423 C422 1.386 . S
C423 C427 1.393 . S
C424 H413 0.950 . S
C424 C422 1.391 . S
C424 C425 1.400 . S
C425 C419 1.491 . S
C425 C424 1.400 . S
C425 C426 1.398 . S
C426 H414 0.950 . S
C426 C425 1.398 . S
C426 C427 1.391 . S
C427 H415 0.950 . S
C427 C423 1.393 . S
C427 C426 1.391 . S
H428 C436 0.950 . S
H429 C441 0.950 . S
H430 C438 0.950 . S
H431 C440 0.950 . S
H432 C442 0.950 . S
H433 C444 0.950 . S
H434 C446 0.950 . S
H435 C447 0.950 . S
C436 H428 0.950 . S
C436 C437 1.386 . S
C436 C438 1.391 . S
C437 C436 1.386 . S
C437 C441 1.393 . S
C438 H430 0.950 . S
C438 C436 1.391 . S
C438 C439 1.400 . S
C439 C438 1.400 . S
C439 C440 1.398 . S
C439 C445 1.491 . S
C440 H431 0.950 . S
C440 C439 1.398 . S
C440 C441 1.391 . S
C441 H429 0.950 . S
C441 C437 1.393 . S
C441 C440 1.391 . S
C442 H432 0.950 . S
C442 C443 1.386 . S
C442 C444 1.391 . S
C443 C442 1.386 . S
C443 C447 1.393 . S
C444 H433 0.950 . S
C444 C442 1.391 . S
C444 C445 1.400 . S
C445 C439 1.491 . S
C445 C444 1.400 . S
C445 C446 1.398 . S
C446 H434 0.950 . S
C446 C445 1.398 . S
C446 C447 1.391 . S
C447 H435 0.950 . S
C447 C443 1.393 . S
C447 C446 1.391 . S
H448 C456 0.950 . S
H449 C461 0.950 . S
H450 C458 0.950 . S
H451 C460 0.950 . S
H452 C462 0.950 . S
H453 C464 0.950 . S
H454 C466 0.950 . S
H455 C467 0.950 . S
C456 H448 0.950 . S
C456 C457 1.386 . S
C456 C458 1.391 . S
C457 C456 1.386 . S
C457 C461 1.393 . S
C458 H450 0.950 . S
C458 C456 1.391 . S
C458 C459 1.400 . S
C459 C458 1.400 . S
C459 C460 1.398 . S
C459 C465 1.491 . S
C460 H451 0.950 . S
C460 C459 1.398 . S
C460 C461 1.391 . S
C461 H449 0.950 . S
C461 C457 1.393 . S
C461 C460 1.391 . S
C462 H452 0.950 . S
C462 C463 1.386 . S
C462 C464 1.391 . S
C463 C462 1.386 . S
C463 C467 1.393 . S
C464 H453 0.950 . S
C464 C462 1.391 . S
C464 C465 1.400 . S
C465 C459 1.491 . S
C465 C464 1.400 . S
C465 C466 1.398 . S
C466 H454 0.950 . S
C466 C465 1.398 . S
C466 C467 1.391 . S
C467 H455 0.950 . S
C467 C463 1.393 . S
C467 C466 1.391 . S
H468 C476 0.950 . S
H469 C481 0.950 . S
H470 C478 0.950 . S
H471 C480 0.950 . S
H472 C482 0.950 . S
H473 C484 0.950 . S
H474 C486 0.950 . S
H475 C487 0.950 . S
C476 H468 0.950 . S
C476 C477 1.386 . S
C476 C478 1.391 . S
C477 C476 1.386 . S
C477 C481 1.393 . S
C478 H470 0.950 . S
C478 C476 1.391 . S
C478 C479 1.400 . S
C479 C478 1.400 . S
C479 C480 1.398 . S
C479 C485 1.491 . S
C480 H471 0.950 . S
C480 C479 1.398 . S
C480 C481 1.391 . S
C481 H469 0.950 . S
C481 C477 1.393 . S
C481 C480 1.391 . S
C482 H472 0.950 . S
C482 C483 1.386 . S
C482 C484 1.391 . S
C483 C482 1.386 . S
C483 C487 1.393 . S
C484 H473 0.950 . S
C484 C482 1.391 . S
C484 C485 1.400 . S
C485 C479 1.491 . S
C485 C484 1.400 . S
C485 C486 1.398 . S
C486 H474 0.950 . S
C486 C485 1.398 . S
C486 C487 1.391 . S
C487 H475 0.950 . S
C487 C483 1.393 . S
C487 C486 1.391 . S
H488 C496 0.950 . S
H489 C501 0.950 . S
H490 C498 0.950 . S
H491 C500 0.950 . S
H492 C502 0.950 . S
H493 C504 0.950 . S
H494 C506 0.950 . S
H495 C507 0.950 . S
C496 H488 0.950 . S
C496 C497 1.386 . S
C496 C498 1.391 . S
C497 C496 1.386 . S
C497 C501 1.393 . S
C498 H490 0.950 . S
C498 C496 1.391 . S
C498 C499 1.400 . S
C499 C498 1.400 . S
C499 C500 1.398 . S
C499 C505 1.491 . S
C500 H491 0.950 . S
C500 C499 1.398 . S
C500 C501 1.391 . S
C501 H489 0.950 . S
C501 C497 1.393 . S
C501 C500 1.391 . S
C502 H492 0.950 . S
C502 C503 1.386 . S
C502 C504 1.391 . S
C503 C502 1.386 . S
C503 C507 1.393 . S
C504 H493 0.950 . S
C504 C502 1.391 . S
C504 C505 1.400 . S
C505 C499 1.491 . S
C505 C504 1.400 . S
C505 C506 1.398 . S
C506 H494 0.950 . S
C506 C505 1.398 . S
C506 C507 1.391 . S
C507 H495 0.950 . S
C507 C503 1.393 . S
C507 C506 1.391 . S
H508 C516 0.950 . S
H509 C521 0.950 . S
H510 C518 0.950 . S
H511 C520 0.950 . S
H512 C522 0.950 . S
H513 C524 0.950 . S
H514 C526 0.950 . S
H515 C527 0.950 . S
C516 H508 0.950 . S
C516 C517 1.386 . S
C516 C518 1.391 . S
C517 C516 1.386 . S
C517 C521 1.393 . S
C518 H510 0.950 . S
C518 C516 1.391 . S
C518 C519 1.400 . S
C519 C518 1.400 . S
C519 C520 1.398 . S
C519 C525 1.491 . S
C520 H511 0.950 . S
C520 C519 1.398 . S
C520 C521 1.391 . S
C521 H509 0.950 . S
C521 C517 1.393 . S
C521 C520 1.391 . S
C522 H512 0.950 . S
C522 C523 1.386 . S
C522 C524 1.391 . S
C523 C522 1.386 . S
C523 C527 1.393 . S
C524 H513 0.950 . S
C524 C522 1.391 . S
C524 C525 1.400 . S
C525 C519 1.491 . S
C525 C524 1.400 . S
C525 C526 1.398 . S
C526 H514 0.950 . S
C526 C525 1.398 . S
C526 C527 1.391 . S
C527 H515 0.950 . S
C527 C523 1.393 . S
C527 C526 1.391 . S
H528 C536 0.950 . S
H529 C541 0.950 . S
H530 C538 0.950 . S
H531 C540 0.950 . S
H532 C542 0.950 . S
H533 C544 0.950 . S
H534 C546 0.950 . S
H535 C547 0.950 . S
C536 H528 0.950 . S
C536 C537 1.386 . S
C536 C538 1.391 . S
C537 C536 1.386 . S
C537 C541 1.393 . S
C538 H530 0.950 . S
C538 C536 1.391 . S
C538 C539 1.400 . S
C539 C538 1.400 . S
C539 C540 1.398 . S
C539 C545 1.491 . S
C540 H531 0.950 . S
C540 C539 1.398 . S
C540 C541 1.391 . S
C541 H529 0.950 . S
C541 C537 1.393 . S
C541 C540 1.391 . S
C542 H532 0.950 . S
C542 C543 1.386 . S
C542 C544 1.391 . S
C543 C542 1.386 . S
C543 C547 1.393 . S
C544 H533 0.950 . S
C544 C542 1.391 . S
C544 C545 1.400 . S
C545 C539 1.491 . S
C545 C544 1.400 . S
C545 C546 1.398 . S
C546 H534 0.950 . S
C546 C545 1.398 . S
C546 C547 1.391 . S
C547 H535 0.950 . S
C547 C543 1.393 . S
C547 C546 1.391 . S
H548 C556 0.950 . S
H549 C561 0.950 . S
H550 C558 0.950 . S
H551 C560 0.950 . S
H552 C562 0.950 . S
H553 C564 0.950 . S
H554 C566 0.950 . S
H555 C567 0.950 . S
C556 H548 0.950 . S
C556 C557 1.386 . S
C556 C558 1.391 . S
C557 C556 1.386 . S
C557 C561 1.393 . S
C558 H550 0.950 . S
C558 C556 1.391 . S
C558 C559 1.400 . S
C559 C558 1.400 . S
C559 C560 1.398 . S
C559 C565 1.491 . S
C560 H551 0.950 . S
C560 C559 1.398 . S
C560 C561 1.391 . S
C561 H549 0.950 . S
C561 C557 1.393 . S
C561 C560 1.391 . S
C562 H552 0.950 . S
C562 C563 1.386 . S
C562 C564 1.391 . S
C563 C562 1.386 . S
C563 C567 1.393 . S
C564 H553 0.950 . S
C564 C562 1.391 . S
C564 C565 1.400 . S
C565 C559 1.491 . S
C565 C564 1.400 . S
C565 C566 1.398 . S
C566 H554 0.950 . S
C566 C565 1.398 . S
C566 C567 1.391 . S
C567 H555 0.950 . S
C567 C563 1.393 . S
C567 C566 1.391 . S
H568 C576 0.950 . S
H569 C581 0.950 . S
H570 C578 0.950 . S
H571 C580 0.950 . S
H572 C582 0.950 . S
H573 C584 0.950 . S
H574 C586 0.950 . S
H575 C587 0.950 . S
C576 H568 0.950 . S
C576 C577 1.386 . S
C576 C578 1.391 . S
C577 C576 1.386 . S
C577 C581 1.393 . S
C578 H570 0.950 . S
C578 C576 1.391 . S
C578 C579 1.400 . S
C579 C578 1.400 . S
C579 C580 1.398 . S
C579 C585 1.491 . S
C580 H571 0.950 . S
C580 C579 1.398 . S
C580 C581 1.391 . S
C581 H569 0.950 . S
C581 C577 1.393 . S
C581 C580 1.391 . S
C582 H572 0.950 . S
C582 C583 1.386 . S
C582 C584 1.391 . S
C583 C582 1.386 . S
C583 C587 1.393 . S
C584 H573 0.950 . S
C584 C582 1.391 . S
C584 C585 1.400 . S
C585 C579 1.491 . S
C585 C584 1.400 . S
C585 C586 1.398 . S
C586 H574 0.950 . S
C586 C585 1.398 . S
C586 C587 1.391 . S
C587 H575 0.950 . S
C587 C583 1.393 . S
C587 C586 1.391 . S
H588 C596 0.950 . S
H589 C601 0.950 . S
H590 C598 0.950 . S
H591 C600 0.950 . S
H592 C602 0.950 . S
H593 C604 0.950 . S
H594 C606 0.950 . S
H595 C607 0.950 . S
C596 H588 0.950 . S
C596 C597 1.386 . S
C596 C598 1.391 . S
C597 C596 1.386 . S
C597 C601 1.393 . S
C598 H590 0.950 . S
C598 C596 1.391 . S
C598 C599 1.400 . S
C599 C598 1.400 . S
C599 C600 1.398 . S
C599 C605 1.491 . S
C600 H591 0.950 . S
C600 C599 1.398 . S
C600 C601 1.391 . S
C601 H589 0.950 . S
C601 C597 1.393 . S
C601 C600 1.391 . S
C602 H592 0.950 . S
C602 C603 1.386 . S
C602 C604 1.391 . S
C603 C602 1.386 . S
C603 C607 1.393 . S
C604 H593 0.950 . S
C604 C602 1.391 . S
C604 C605 1.400 . S
C605 C599 1.491 . S
C605 C604 1.400 . S
C605 C606 1.398 . S
C606 H594 0.950 . S
C606 C605 1.398 . S
C606 C607 1.391 . S
C607 H595 0.950 . S
C607 C603 1.393 . S
C607 C606 1.391 . S
H608 C616 0.950 . S
H609 C621 0.950 . S
H610 C618 0.950 . S
H611 C620 0.950 . S
H612 C622 0.950 . S
H613 C624 0.950 . S
H614 C626 0.950 . S
H615 C627 0.950 . S
C616 H608 0.950 . S
C616 C617 1.386 . S
C616 C618 1.391 . S
C617 C616 1.386 . S
C617 C621 1.393 . S
C618 H610 0.950 . S
C618 C616 1.391 . S
C618 C619 1.400 . S
C619 C618 1.400 . S
C619 C620 1.398 . S
C619 C625 1.491 . S
C620 H611 0.950 . S
C620 C619 1.398 . S
C620 C621 1.391 . S
C621 H609 0.950 . S
C621 C617 1.393 . S
C621 C620 1.391 . S
C622 H612 0.950 . S
C622 C623 1.386 . S
C622 C624 1.391 . S
C623 C622 1.386 . S
C623 C627 1.393 . S
C624 H613 0.950 . S
C624 C622 1.391 . S
C624 C625 1.400 . S
C625 C619 1.491 . S
C625 C624 1.400 . S
C625 C626 1.398 . S
C626 H614 0.950 . S
C626 C625 1.398 . S
C626 C627 1.391 . S
C627 H615 0.950 . S
C627 C623 1.393 . S
C627 C626 1.391 . S
H628 C636 0.950 . S
H629 C641 0.950 . S
H630 C638 0.950 . S
H631 C640 0.950 . S
H632 C642 0.950 . S
H633 C644 0.950 . S
H634 C646 0.950 . S
H635 C647 0.950 . S
C636 H628 0.950 . S
C636 C637 1.386 . S
C636 C638 1.391 . S
C637 C636 1.386 . S
C637 C641 1.393 . S
C638 H630 0.950 . S
C638 C636 1.391 . S
C638 C639 1.400 . S
C639 C638 1.400 . S
C639 C640 1.398 . S
C639 C645 1.491 . S
C640 H631 0.950 . S
C640 C639 1.398 . S
C640 C641 1.391 . S
C641 H629 0.950 . S
C641 C637 1.393 . S
C641 C640 1.391 . S
C642 H632 0.950 . S
C642 C643 1.386 . S
C642 C644 1.391 . S
C643 C642 1.386 . S
C643 C647 1.393 . S
C644 H633 0.950 . S
C644 C642 1.391 . S
C644 C645 1.400 . S
C645 C639 1.491 . S
C645 C644 1.400 . S
C645 C646 1.398 . S
C646 H634 0.950 . S
C646 C645 1.398 . S
C646 C647 1.391 . S
C647 H635 0.950 . S
C647 C643 1.393 . S
C647 C646 1.391 . S
C177 C5 1.338 . S
C183 C90 1.632 . S
C197 C18 1.381 . S
C203 C109 1.443 . S
C223 C146 1.566 . S
C217 C30 1.583 . S
C237 C41 1.427 . S
C243 C156 1.393 . S
C263 C126 2.068 . S
C257 C7 1.958 . S
C283 C96 1.589 . S
C277 C16 1.363 . S
C303 C167 1.570 . S
C297 C29 1.510 . S
C323 C137 1.022 . S
C317 C38 0.946 . S
C337 C8 1.686 . S
C343 C150 1.739 . S
C363 C117 1.902 . S
C357 C27 1.711 . S
C377 C40 1.778 . S
C383 C107 1.792 . S
C397 C19 0.984 . S
C403 C129 0.967 . S
C423 C89 1.465 . S
C417 C51 1.332 . S
C437 C62 1.578 . S
C443 C110 1.558 . S
C457 C74 1.705 . S
C463 C147 1.701 . S
C477 C84 1.511 . S
C483 C157 1.555 . S
C497 C49 1.753 . S
C503 C127 2.173 1_556 S
C523 C97 1.490 . S
C517 C63 1.507 . S
C543 C166 1.493 . S
C537 C71 1.334 . S
C563 C136 1.126 . S
C557 C85 1.140 . S
C577 C52 1.620 . S
C583 C149 1.668 . S
C603 C116 1.960 . S
C597 C73 1.955 . S
C623 C106 1.450 . S
C617 C82 1.195 . S
C637 C60 1.121 . S
C643 C130 1.301 . S
