# Generated by pormake.
# Topology gar, (4,6)-cn, num edge types: 1
# Building blocks:
#     Node 0, Type 0, BuildingBlock: GALJAG_clean_sbu_0, # of connection points: 4
#     Node 1, Type 0, BuildingBlock: GALJAG_clean_sbu_0, # of connection points: 4
#     Node 2, Type 0, BuildingBlock: GALJAG_clean_sbu_0, # of connection points: 4
#     Node 3, Type 0, BuildingBlock: GALJAG_clean_sbu_0, # of connection points: 4
#     Node 4, Type 0, BuildingBlock: GALJAG_clean_sbu_0, # of connection points: 4
#     Node 5, Type 0, BuildingBlock: GALJAG_clean_sbu_0, # of connection points: 4
#     Node 6, Type 0, BuildingBlock: GALJAG_clean_sbu_0, # of connection points: 4
#     Node 7, Type 0, BuildingBlock: GALJAG_clean_sbu_0, # of connection points: 4
#     Node 8, Type 0, BuildingBlock: GALJAG_clean_sbu_0, # of connection points: 4
#     Node 9, Type 0, BuildingBlock: GALJAG_clean_sbu_0, # of connection points: 4
#     Node 10, Type 0, BuildingBlock: GALJAG_clean_sbu_0, # of connection points: 4
#     Node 11, Type 0, BuildingBlock: GALJAG_clean_sbu_0, # of connection points: 4
#     Node 12, Type 0, BuildingBlock: GALJAG_clean_sbu_0, # of connection points: 4
#     Node 13, Type 0, BuildingBlock: GALJAG_clean_sbu_0, # of connection points: 4
#     Node 14, Type 0, BuildingBlock: GALJAG_clean_sbu_0, # of connection points: 4
#     Node 15, Type 0, BuildingBlock: GALJAG_clean_sbu_0, # of connection points: 4
#     Node 16, Type 0, BuildingBlock: GALJAG_clean_sbu_0, # of connection points: 4
#     Node 17, Type 0, BuildingBlock: GALJAG_clean_sbu_0, # of connection points: 4
#     Node 18, Type 0, BuildingBlock: GALJAG_clean_sbu_0, # of connection points: 4
#     Node 19, Type 0, BuildingBlock: GALJAG_clean_sbu_0, # of connection points: 4
#     Node 20, Type 0, BuildingBlock: GALJAG_clean_sbu_0, # of connection points: 4
#     Node 21, Type 0, BuildingBlock: GALJAG_clean_sbu_0, # of connection points: 4
#     Node 22, Type 0, BuildingBlock: GALJAG_clean_sbu_0, # of connection points: 4
#     Node 23, Type 0, BuildingBlock: GALJAG_clean_sbu_0, # of connection points: 4
#     Node 24, Type 1, BuildingBlock: BETFAJ_clean_sbu_0, # of connection points: 6
#     Node 25, Type 1, BuildingBlock: BETFAJ_clean_sbu_0, # of connection points: 6
#     Node 26, Type 1, BuildingBlock: BETFAJ_clean_sbu_0, # of connection points: 6
#     Node 27, Type 1, BuildingBlock: BETFAJ_clean_sbu_0, # of connection points: 6
#     Node 28, Type 1, BuildingBlock: BETFAJ_clean_sbu_0, # of connection points: 6
#     Node 29, Type 1, BuildingBlock: BETFAJ_clean_sbu_0, # of connection points: 6
#     Node 30, Type 1, BuildingBlock: BETFAJ_clean_sbu_0, # of connection points: 6
#     Node 31, Type 1, BuildingBlock: BETFAJ_clean_sbu_0, # of connection points: 6
#     Node 32, Type 1, BuildingBlock: BETFAJ_clean_sbu_0, # of connection points: 6
#     Node 33, Type 1, BuildingBlock: BETFAJ_clean_sbu_0, # of connection points: 6
#     Node 34, Type 1, BuildingBlock: BETFAJ_clean_sbu_0, # of connection points: 6
#     Node 35, Type 1, BuildingBlock: BETFAJ_clean_sbu_0, # of connection points: 6
#     Node 36, Type 1, BuildingBlock: BETFAJ_clean_sbu_0, # of connection points: 6
#     Node 37, Type 1, BuildingBlock: BETFAJ_clean_sbu_0, # of connection points: 6
#     Node 38, Type 1, BuildingBlock: BETFAJ_clean_sbu_0, # of connection points: 6
#     Node 39, Type 1, BuildingBlock: BETFAJ_clean_sbu_0, # of connection points: 6
#     Edge 40, Type (0, 1), BuildingBlock: XUDNAN_clean_linker_2, # of connection points: 2
#     Edge 41, Type (0, 1), BuildingBlock: XUDNAN_clean_linker_2, # of connection points: 2
#     Edge 42, Type (0, 1), BuildingBlock: XUDNAN_clean_linker_2, # of connection points: 2
#     Edge 43, Type (0, 1), BuildingBlock: XUDNAN_clean_linker_2, # of connection points: 2
#     Edge 44, Type (0, 1), BuildingBlock: XUDNAN_clean_linker_2, # of connection points: 2
#     Edge 45, Type (0, 1), BuildingBlock: XUDNAN_clean_linker_2, # of connection points: 2
#     Edge 46, Type (0, 1), BuildingBlock: XUDNAN_clean_linker_2, # of connection points: 2
#     Edge 47, Type (0, 1), BuildingBlock: XUDNAN_clean_linker_2, # of connection points: 2
#     Edge 48, Type (0, 1), BuildingBlock: XUDNAN_clean_linker_2, # of connection points: 2
#     Edge 49, Type (0, 1), BuildingBlock: XUDNAN_clean_linker_2, # of connection points: 2
#     Edge 50, Type (0, 1), BuildingBlock: XUDNAN_clean_linker_2, # of connection points: 2
#     Edge 51, Type (0, 1), BuildingBlock: XUDNAN_clean_linker_2, # of connection points: 2
#     Edge 52, Type (0, 1), BuildingBlock: XUDNAN_clean_linker_2, # of connection points: 2
#     Edge 53, Type (0, 1), BuildingBlock: XUDNAN_clean_linker_2, # of connection points: 2
#     Edge 54, Type (0, 1), BuildingBlock: XUDNAN_clean_linker_2, # of connection points: 2
#     Edge 55, Type (0, 1), BuildingBlock: XUDNAN_clean_linker_2, # of connection points: 2
#     Edge 56, Type (0, 1), BuildingBlock: XUDNAN_clean_linker_2, # of connection points: 2
#     Edge 57, Type (0, 1), BuildingBlock: XUDNAN_clean_linker_2, # of connection points: 2
#     Edge 58, Type (0, 1), BuildingBlock: XUDNAN_clean_linker_2, # of connection points: 2
#     Edge 59, Type (0, 1), BuildingBlock: XUDNAN_clean_linker_2, # of connection points: 2
#     Edge 60, Type (0, 1), BuildingBlock: XUDNAN_clean_linker_2, # of connection points: 2
#     Edge 61, Type (0, 1), BuildingBlock: XUDNAN_clean_linker_2, # of connection points: 2
#     Edge 62, Type (0, 1), BuildingBlock: XUDNAN_clean_linker_2, # of connection points: 2
#     Edge 63, Type (0, 1), BuildingBlock: XUDNAN_clean_linker_2, # of connection points: 2
#     Edge 64, Type (0, 1), BuildingBlock: XUDNAN_clean_linker_2, # of connection points: 2
#     Edge 65, Type (0, 1), BuildingBlock: XUDNAN_clean_linker_2, # of connection points: 2
#     Edge 66, Type (0, 1), BuildingBlock: XUDNAN_clean_linker_2, # of connection points: 2
#     Edge 67, Type (0, 1), BuildingBlock: XUDNAN_clean_linker_2, # of connection points: 2
#     Edge 68, Type (0, 1), BuildingBlock: XUDNAN_clean_linker_2, # of connection points: 2
#     Edge 69, Type (0, 1), BuildingBlock: XUDNAN_clean_linker_2, # of connection points: 2
#     Edge 70, Type (0, 1), BuildingBlock: XUDNAN_clean_linker_2, # of connection points: 2
#     Edge 71, Type (0, 1), BuildingBlock: XUDNAN_clean_linker_2, # of connection points: 2
#     Edge 72, Type (0, 1), BuildingBlock: XUDNAN_clean_linker_2, # of connection points: 2
#     Edge 73, Type (0, 1), BuildingBlock: XUDNAN_clean_linker_2, # of connection points: 2
#     Edge 74, Type (0, 1), BuildingBlock: XUDNAN_clean_linker_2, # of connection points: 2
#     Edge 75, Type (0, 1), BuildingBlock: XUDNAN_clean_linker_2, # of connection points: 2
#     Edge 76, Type (0, 1), BuildingBlock: XUDNAN_clean_linker_2, # of connection points: 2
#     Edge 77, Type (0, 1), BuildingBlock: XUDNAN_clean_linker_2, # of connection points: 2
#     Edge 78, Type (0, 1), BuildingBlock: XUDNAN_clean_linker_2, # of connection points: 2
#     Edge 79, Type (0, 1), BuildingBlock: XUDNAN_clean_linker_2, # of connection points: 2
#     Edge 80, Type (0, 1), BuildingBlock: XUDNAN_clean_linker_2, # of connection points: 2
#     Edge 81, Type (0, 1), BuildingBlock: XUDNAN_clean_linker_2, # of connection points: 2
#     Edge 82, Type (0, 1), BuildingBlock: XUDNAN_clean_linker_2, # of connection points: 2
#     Edge 83, Type (0, 1), BuildingBlock: XUDNAN_clean_linker_2, # of connection points: 2
#     Edge 84, Type (0, 1), BuildingBlock: XUDNAN_clean_linker_2, # of connection points: 2
#     Edge 85, Type (0, 1), BuildingBlock: XUDNAN_clean_linker_2, # of connection points: 2
#     Edge 86, Type (0, 1), BuildingBlock: XUDNAN_clean_linker_2, # of connection points: 2
#     Edge 87, Type (0, 1), BuildingBlock: XUDNAN_clean_linker_2, # of connection points: 2
#     Edge 88, Type (0, 1), BuildingBlock: XUDNAN_clean_linker_2, # of connection points: 2
#     Edge 89, Type (0, 1), BuildingBlock: XUDNAN_clean_linker_2, # of connection points: 2
#     Edge 90, Type (0, 1), BuildingBlock: XUDNAN_clean_linker_2, # of connection points: 2
#     Edge 91, Type (0, 1), BuildingBlock: XUDNAN_clean_linker_2, # of connection points: 2
#     Edge 92, Type (0, 1), BuildingBlock: XUDNAN_clean_linker_2, # of connection points: 2
#     Edge 93, Type (0, 1), BuildingBlock: XUDNAN_clean_linker_2, # of connection points: 2
#     Edge 94, Type (0, 1), BuildingBlock: XUDNAN_clean_linker_2, # of connection points: 2
#     Edge 95, Type (0, 1), BuildingBlock: XUDNAN_clean_linker_2, # of connection points: 2
#     Edge 96, Type (0, 1), BuildingBlock: XUDNAN_clean_linker_2, # of connection points: 2
#     Edge 97, Type (0, 1), BuildingBlock: XUDNAN_clean_linker_2, # of connection points: 2
#     Edge 98, Type (0, 1), BuildingBlock: XUDNAN_clean_linker_2, # of connection points: 2
#     Edge 99, Type (0, 1), BuildingBlock: XUDNAN_clean_linker_2, # of connection points: 2
#     Edge 100, Type (0, 1), BuildingBlock: XUDNAN_clean_linker_2, # of connection points: 2
#     Edge 101, Type (0, 1), BuildingBlock: XUDNAN_clean_linker_2, # of connection points: 2
#     Edge 102, Type (0, 1), BuildingBlock: XUDNAN_clean_linker_2, # of connection points: 2
#     Edge 103, Type (0, 1), BuildingBlock: XUDNAN_clean_linker_2, # of connection points: 2
#     Edge 104, Type (0, 1), BuildingBlock: XUDNAN_clean_linker_2, # of connection points: 2
#     Edge 105, Type (0, 1), BuildingBlock: XUDNAN_clean_linker_2, # of connection points: 2
#     Edge 106, Type (0, 1), BuildingBlock: XUDNAN_clean_linker_2, # of connection points: 2
#     Edge 107, Type (0, 1), BuildingBlock: XUDNAN_clean_linker_2, # of connection points: 2
#     Edge 108, Type (0, 1), BuildingBlock: XUDNAN_clean_linker_2, # of connection points: 2
#     Edge 109, Type (0, 1), BuildingBlock: XUDNAN_clean_linker_2, # of connection points: 2
#     Edge 110, Type (0, 1), BuildingBlock: XUDNAN_clean_linker_2, # of connection points: 2
#     Edge 111, Type (0, 1), BuildingBlock: XUDNAN_clean_linker_2, # of connection points: 2
#     Edge 112, Type (0, 1), BuildingBlock: XUDNAN_clean_linker_2, # of connection points: 2
#     Edge 113, Type (0, 1), BuildingBlock: XUDNAN_clean_linker_2, # of connection points: 2
#     Edge 114, Type (0, 1), BuildingBlock: XUDNAN_clean_linker_2, # of connection points: 2
#     Edge 115, Type (0, 1), BuildingBlock: XUDNAN_clean_linker_2, # of connection points: 2
#     Edge 116, Type (0, 1), BuildingBlock: XUDNAN_clean_linker_2, # of connection points: 2
#     Edge 117, Type (0, 1), BuildingBlock: XUDNAN_clean_linker_2, # of connection points: 2
#     Edge 118, Type (0, 1), BuildingBlock: XUDNAN_clean_linker_2, # of connection points: 2
#     Edge 119, Type (0, 1), BuildingBlock: XUDNAN_clean_linker_2, # of connection points: 2
#     Edge 120, Type (0, 1), BuildingBlock: XUDNAN_clean_linker_2, # of connection points: 2
#     Edge 121, Type (0, 1), BuildingBlock: XUDNAN_clean_linker_2, # of connection points: 2
#     Edge 122, Type (0, 1), BuildingBlock: XUDNAN_clean_linker_2, # of connection points: 2
#     Edge 123, Type (0, 1), BuildingBlock: XUDNAN_clean_linker_2, # of connection points: 2
#     Edge 124, Type (0, 1), BuildingBlock: XUDNAN_clean_linker_2, # of connection points: 2
#     Edge 125, Type (0, 1), BuildingBlock: XUDNAN_clean_linker_2, # of connection points: 2
#     Edge 126, Type (0, 1), BuildingBlock: XUDNAN_clean_linker_2, # of connection points: 2
#     Edge 127, Type (0, 1), BuildingBlock: XUDNAN_clean_linker_2, # of connection points: 2
#     Edge 128, Type (0, 1), BuildingBlock: XUDNAN_clean_linker_2, # of connection points: 2
#     Edge 129, Type (0, 1), BuildingBlock: XUDNAN_clean_linker_2, # of connection points: 2
#     Edge 130, Type (0, 1), BuildingBlock: XUDNAN_clean_linker_2, # of connection points: 2
#     Edge 131, Type (0, 1), BuildingBlock: XUDNAN_clean_linker_2, # of connection points: 2
#     Edge 132, Type (0, 1), BuildingBlock: XUDNAN_clean_linker_2, # of connection points: 2
#     Edge 133, Type (0, 1), BuildingBlock: XUDNAN_clean_linker_2, # of connection points: 2
#     Edge 134, Type (0, 1), BuildingBlock: XUDNAN_clean_linker_2, # of connection points: 2
#     Edge 135, Type (0, 1), BuildingBlock: XUDNAN_clean_linker_2, # of connection points: 2
# Relax obj value: 0.209
# Max RMSD: 0.304
# Mean RMSD: 0.174
data_MOF--net-gar--node1-GALJAG_clean_sbu_0--node2-BETFAJ_clean_sbu_0--edge1-XUDNAN_clean_linker_2
_symmetry_space_group_name_H-M    P1
_symmetry_Int_Tables_number       1
_symmetry_cell_setting            triclinic
loop_
_symmetry_equiv_pos_as_xyz
'x, y, z'
_cell_length_a     62.237951
_cell_length_b     56.509871
_cell_length_c     57.063122
_cell_angle_alpha  98.490954
_cell_angle_beta   95.233642
_cell_angle_gamma 101.66893
loop_
_atom_site_label
_atom_site_type_symbol
_atom_site_fract_x
_atom_site_fract_y
_atom_site_fract_z
_atom_type_partial_charge
In0 In 0.10675 0.341 0.37464 0.0
O1 O 0.14163 0.35786 0.36861 0.0
O2 O 0.12906 0.32008 0.3544 0.0
C3 C 0.07928 0.33523 0.33381 0.0
C4 C 0.09393 0.31077 0.40597 0.0
C5 C 0.10964 0.38501 0.40156 0.0
O6 O 0.07798 0.31907 0.347 0.0
O7 O 0.09447 0.35399 0.34113 0.0
O8 O 0.09324 0.37479 0.38621 0.0
O9 O 0.12445 0.37287 0.40356 0.0
C10 C 0.14485 0.33857 0.35667 0.0
O11 O 0.11169 0.31119 0.39684 0.0
O12 O 0.08272 0.32524 0.39909 0.0
In13 In 1.0019 0.76752 0.66575 0.0
O14 O 1.00651 0.78176 0.63089 0.0
O15 O 0.98605 0.79749 0.65374 0.0
C16 C 1.01191 0.72465 0.64853 0.0
C17 C 0.03913 0.79266 0.69377 0.0
C18 C 0.96483 0.75493 0.68592 0.0
O19 O 0.99945 0.73465 0.63643 0.0
O20 O 0.01953 0.73645 0.66908 0.0
O21 O 0.98019 0.77307 0.69511 0.0
O22 O 0.96798 0.74351 0.66631 0.0
C23 C 0.99467 0.79732 0.63453 0.0
O24 O 0.0256 0.77584 0.70032 0.0
O25 O 0.03355 0.79722 0.67342 0.0
In26 In 0.61771 0.85109 0.90354 0.0
O27 O 0.64761 0.87182 0.88905 0.0
O28 O 0.63998 0.83291 0.88096 0.0
C29 C 0.58259 0.8422 0.87007 0.0
C30 C 0.61832 0.81779 0.93298 0.0
C31 C 0.61378 0.89259 0.9311 0.0
O32 O 0.60095 0.85538 0.86772 0.0
O33 O 0.58204 0.83364 0.88927 0.0
O34 O 0.63202 0.88627 0.92993 0.0
O35 O 0.59748 0.87794 0.91842 0.0
C36 C 0.6523 0.85274 0.87835 0.0
O37 O 0.62813 0.83996 0.93913 0.0
O38 O 0.60877 0.81233 0.91186 0.0
In39 In 0.51302 0.26201 0.16568 0.0
O40 O 0.506 0.23076 0.1337 0.0
O41 O 0.5395 0.24831 0.14624 0.0
C42 C 0.51317 0.30319 0.14673 0.0
C43 C 0.47404 0.24995 0.1828 0.0
C44 C 0.54302 0.26276 0.20308 0.0
O45 O 0.50655 0.28202 0.13451 0.0
O46 O 0.51889 0.30353 0.16853 0.0
O47 O 0.52665 0.24506 0.19619 0.0
O48 O 0.54424 0.27987 0.19103 0.0
C49 C 0.52616 0.23204 0.13132 0.0
O50 O 0.48703 0.27062 0.18891 0.0
O51 O 0.48032 0.23537 0.16735 0.0
In52 In 0.10871 0.82536 0.13682 0.0
O53 O 0.10357 0.79796 0.10158 0.0
O54 O 0.10497 0.7835 0.13374 0.0
C55 C 0.10131 0.86022 0.10972 0.0
C56 C 0.07602 0.8275 0.16547 0.0
C57 C 0.15049 0.83007 0.15984 0.0
O58 O 0.11699 0.86469 0.12659 0.0
O59 O 0.09023 0.83847 0.10635 0.0
O60 O 0.1334 0.82835 0.17033 0.0
O61 O 0.14677 0.83038 0.13774 0.0
C62 C 0.10252 0.77909 0.11122 0.0
O63 O 0.09341 0.84406 0.16785 0.0
O64 O 0.07526 0.80977 0.14898 0.0
In65 In 0.52878 0.78597 0.42184 0.0
O66 O 0.54061 0.77064 0.38695 0.0
O67 O 0.56472 0.79426 0.41348 0.0
C68 C 0.48907 0.78782 0.39788 0.0
C69 C 0.52823 0.74522 0.44317 0.0
C70 C 0.53569 0.83104 0.45012 0.0
O71 O 0.5069 0.79112 0.38866 0.0
O72 O 0.49123 0.78322 0.41883 0.0
O73 O 0.52491 0.81171 0.45573 0.0
O74 O 0.5437 0.82761 0.43073 0.0
C75 C 0.56069 0.78128 0.39293 0.0
O76 O 0.54338 0.76435 0.44892 0.0
O77 O 0.51353 0.74678 0.42712 0.0
In78 In 0.6071 0.33438 0.63746 0.0
O79 O 0.61244 0.30591 0.60693 0.0
O80 O 0.59493 0.29229 0.63397 0.0
C81 C 0.60501 0.3713 0.61143 0.0
C82 C 0.5684 0.33314 0.65685 0.0
C83 C 0.64885 0.3391 0.66072 0.0
O84 O 0.60012 0.34874 0.60289 0.0
O85 O 0.6119 0.37586 0.63354 0.0
O86 O 0.63264 0.34167 0.67201 0.0
O87 O 0.64413 0.3358 0.63839 0.0
C88 C 0.60296 0.28735 0.61479 0.0
O89 O 0.5867 0.33618 0.66983 0.0
O90 O 0.56988 0.33069 0.63478 0.0
In91 In 0.02494 0.27911 0.92509 0.0
O92 O 0.04486 0.26484 0.95357 0.0
O93 O 0.01747 0.23916 0.93385 0.0
C94 C 0.03011 0.32296 0.95475 0.0
C95 C 0.05565 0.27743 0.894 0.0
C96 C 0.98361 0.27881 0.90295 0.0
O97 O 0.01883 0.3031 0.95876 0.0
O98 O 0.03931 0.32079 0.93596 0.0
O99 O 1.00052 0.28064 0.89215 0.0
O100 O 0.98729 0.27594 0.92431 0.0
C101 C 0.03373 0.2431 0.94993 0.0
O102 O 0.03801 0.26116 0.89204 0.0
O103 O 0.05755 0.29481 0.91127 0.0
In104 In 0.44347 0.07162 0.3366 0.0
O105 O 0.47068 0.05773 0.31894 0.0
O106 O 0.45418 0.08133 0.30168 0.0
C107 C 0.47151 0.09974 0.37352 0.0
C108 C 0.40526 0.08321 0.32184 0.0
C109 C 0.42839 0.02649 0.3458 0.0
O110 O 0.47273 0.10309 0.35231 0.0
O111 O 0.45542 0.08322 0.37614 0.0
O112 O 0.44039 0.03067 0.3296 0.0
O113 O 0.42495 0.04533 0.35841 0.0
C114 C 0.46875 0.06864 0.30133 0.0
O115 O 0.41082 0.06387 0.31331 0.0
O116 O 0.41952 0.09768 0.33745 0.0
In117 In 0.28982 0.19841 0.50696 0.0
O118 O 0.3012 0.20764 0.54766 0.0
O119 O 0.28894 0.23458 0.53191 0.0
C120 C 0.29344 0.21155 0.46233 0.0
C121 C 0.32095 0.17111 0.51122 0.0
C122 C 0.24626 0.17628 0.5063 0.0
O123 O 0.2827 0.19127 0.46591 0.0
O124 O 0.30256 0.22584 0.48139 0.0
O125 O 0.25315 0.19923 0.50901 0.0
O126 O 0.26124 0.16439 0.50368 0.0
C127 C 0.29637 0.22837 0.55092 0.0
O128 O 0.30052 0.16283 0.51118 0.0
O129 O 0.32592 0.19338 0.5088 0.0
In130 In 0.18431 0.03556 0.78484 0.0
O131 O 0.15146 0.03737 0.75966 0.0
O132 O 0.17776 0.03228 0.7412 0.0
C133 C 0.16166 0.03384 0.82847 0.0
C134 C 0.20572 0.99264 0.78105 0.0
C135 C 0.20839 0.08561 0.78707 0.0
O136 O 0.15461 0.02119 0.80788 0.0
O137 O 0.18048 0.04728 0.82769 0.0
O138 O 0.21768 0.06747 0.78577 0.0
O139 O 0.18795 0.07859 0.78806 0.0
C140 C 0.15814 0.03545 0.73926 0.0
O141 O 0.21546 1.0144 0.79067 0.0
O142 O 0.18586 0.99265 0.77354 0.0
In143 In 0.30932 0.96027 0.99023 0.0
O144 O 0.30446 0.93192 0.01445 0.0
O145 O 0.29089 0.96337 0.02302 0.0
C146 C 0.30269 0.92176 0.9542 0.0
C147 C 0.28864 0.99505 0.97759 0.0
C148 C 0.35264 0.97752 1.00682 0.0
O149 O 0.29351 0.92101 0.97293 0.0
O150 O 0.31479 0.94232 0.95315 0.0
O151 O 0.33744 0.97895 0.01971 0.0
O152 O 0.34607 0.96729 0.98548 0.0
C153 C 0.29381 0.94324 0.02831 0.0
O154 O 0.30904 0.99932 0.98451 0.0
O155 O 0.27882 0.97295 0.97593 0.0
In156 In 0.33747 0.3972 0.04985 0.0
O157 O 0.3186 0.36263 0.06242 0.0
O158 O 0.34285 0.38675 0.08789 0.0
C159 C 0.33107 0.38107 1.00138 0.0
C160 C 0.30682 0.42523 0.05688 0.0
C161 C 0.38111 0.41971 0.05185 0.0
O162 O 0.3366 0.36778 0.01589 0.0
O163 O 0.32869 0.40168 0.01136 0.0
O164 O 0.36647 0.43134 0.05737 0.0
O165 O 0.37393 0.39681 0.04631 0.0
C166 C 0.32783 0.36747 0.08373 0.0
O167 O 0.32597 0.4308 0.06846 0.0
O168 O 0.30317 0.4057 0.04185 0.0
In169 In 0.79327 0.14781 0.03783 0.0
O170 O 0.82073 0.12717 0.04357 0.0
O171 O 0.82622 0.15616 0.02349 0.0
C172 C 0.7614 0.10783 0.03745 0.0
C173 C 0.80083 0.18434 0.07555 0.0
C174 C 0.77101 0.16282 1.00235 0.0
O175 O 0.77309 0.11001 0.02065 0.0
O176 O 0.76704 0.12498 0.05515 0.0
O177 O 0.76673 0.16612 0.02361 0.0
O178 O 0.78666 0.15206 0.99901 0.0
C179 C 0.83358 0.1395 0.03174 0.0
O180 O 0.80057 0.18794 0.05426 0.0
O181 O 0.7981 0.16213 0.07803 0.0
In182 In 0.2025 0.56396 0.24974 0.0
O183 O 0.22657 0.53981 0.24123 0.0
O184 O 0.20101 0.52684 0.26149 0.0
C185 C 0.23795 0.59686 0.2433 0.0
C186 C 0.16804 0.55203 0.2151 0.0
C187 C 0.18865 0.58769 0.28801 0.0
O188 O 0.22454 0.584 0.22597 0.0
O189 O 0.23352 0.59282 0.26369 0.0
O190 O 0.18345 0.59081 0.26701 0.0
O191 O 0.20064 0.57237 0.28972 0.0
C192 C 0.21789 0.52322 0.25209 0.0
O193 O 0.18376 0.57028 0.21621 0.0
O194 O 0.16976 0.53944 0.2314 0.0
In195 In 0.84095 0.89964 0.54593 0.0
O196 O 0.81983 0.86683 0.55917 0.0
O197 O 0.84462 0.8903 0.58457 0.0
C198 C 0.83805 0.87323 0.50075 0.0
C199 C 0.81067 0.92809 0.55132 0.0
C200 C 0.88299 0.92773 0.54873 0.0
O201 O 0.84859 0.86846 0.51886 0.0
O202 O 0.82864 0.89082 0.50549 0.0
O203 O 0.8789 0.90685 0.55482 0.0
O204 O 0.86591 0.93474 0.54162 0.0
C205 C 0.82875 0.87182 0.5806 0.0
O206 O 0.82757 0.93071 0.5663 0.0
O207 O 0.80927 0.91153 0.53348 0.0
In208 In 0.9428 0.07406 0.26515 0.0
O209 O 0.9747 0.0858 0.24412 0.0
O210 O 0.94775 0.06309 0.22252 0.0
C211 C 0.96536 0.07665 0.31332 0.0
C212 C 0.9214 0.11716 0.26616 0.0
C213 C 0.91877 0.02391 0.26315 0.0
O214 O 0.97247 0.06893 0.2942 0.0
O215 O 0.94794 0.0842 0.30832 0.0
O216 O 0.90924 0.04175 0.26262 0.0
O217 O 0.9394 0.03126 0.26381 0.0
C218 C 0.96766 0.0744 0.22302 0.0
O219 O 0.91103 0.09481 0.26084 0.0
O220 O 0.94192 0.11765 0.27052 0.0
In221 In 0.29614 0.6537 0.54499 0.0
O222 O 0.32288 0.63154 0.54811 0.0
O223 O 0.321 0.65008 0.51854 0.0
C224 C 0.26657 0.61698 0.55643 0.0
C225 C 0.30895 0.69024 0.58263 0.0
C226 C 0.27197 0.67212 0.51322 0.0
O227 O 0.2792 0.63309 0.57215 0.0
O228 O 0.26989 0.61876 0.53523 0.0
O229 O 0.28629 0.68553 0.52934 0.0
O230 O 0.27004 0.6495 0.51293 0.0
C231 C 0.3304 0.63622 0.52914 0.0
O232 O 0.3212 0.68665 0.56658 0.0
O233 O 0.29047 0.67534 0.5797 0.0
In234 In 0.44006 0.57528 0.76568 0.0
O235 O 0.40816 0.593 0.75607 0.0
O236 O 0.43464 0.61806 0.77594 0.0
C237 C 0.41607 0.52516 0.76369 0.0
C238 C 0.46373 0.57651 0.72261 0.0
C239 C 0.46597 0.57638 0.81184 0.0
O240 O 0.40698 0.54342 0.76583 0.0
O241 O 0.43636 0.53205 0.76179 0.0
O242 O 0.47315 0.57559 0.7917 0.0
O243 O 0.44594 0.57814 0.8094 0.0
C244 C 0.41499 0.61533 0.76592 0.0
O245 O 0.46935 0.59101 0.7425 0.0
O246 O 0.44589 0.56148 0.72384 0.0
In247 In 0.69816 0.04695 0.74939 0.0
O248 O 0.71096 0.03179 0.78161 0.0
O249 O 0.72253 0.02189 0.74856 0.0
C250 C 0.72739 0.08939 0.75173 0.0
C251 C 0.67811 0.03275 0.70433 0.0
C252 C 0.66106 0.05073 0.76884 0.0
O253 O 0.72595 0.0713 0.73533 0.0
O254 O 0.71408 0.08601 0.76693 0.0
O255 O 0.66342 0.03105 0.7568 0.0
O256 O 0.67767 0.06833 0.77172 0.0
C257 C 0.72342 0.02053 0.77043 0.0
O258 O 0.68007 0.01755 0.71811 0.0
O259 O 0.68686 0.0548 0.7131 0.0
In260 In 0.78275 0.70084 1.00497 0.0
O261 O 0.79329 0.66552 0.01161 0.0
O262 O 0.8187 0.69466 1.00666 0.0
C263 C 0.73879 0.6799 1.00212 0.0
C264 C 0.79104 0.72951 0.04968 0.0
C265 C 0.78437 0.71568 0.96081 0.0
O266 O 0.75313 0.66769 0.99703 0.0
O267 O 0.74645 0.70274 1.00786 0.0
O268 O 0.78614 0.73077 0.97999 0.0
O269 O 0.78185 0.69376 0.96407 0.0
C270 C 0.81364 0.67299 0.01067 0.0
O271 O 0.79974 0.73633 0.03189 0.0
O272 O 0.7782 0.70867 0.04485 0.0
In273 In 0.93621 0.57495 0.82926 0.0
O274 O 0.92307 0.60117 0.80837 0.0
O275 O 0.92318 0.60759 0.84594 0.0
C276 C 0.90043 0.53747 0.81986 0.0
C277 C 0.96222 0.55899 0.79827 0.0
C278 C 0.95926 0.57949 0.87208 0.0
O279 O 0.90471 0.55276 0.80603 0.0
O280 O 0.91393 0.54139 0.83856 0.0
O281 O 0.96836 0.58789 0.85517 0.0
O282 O 0.93877 0.57063 0.86748 0.0
C283 C 0.91756 0.61343 0.8262 0.0
O284 O 0.95058 0.54532 0.80999 0.0
O285 O 0.9616 0.58142 0.80287 0.0
In286 In 0.82179 0.45644 0.50242 0.0
O287 O 0.81883 0.42465 0.52288 0.0
O288 O 0.84996 0.44988 0.52686 0.0
C289 C 0.80822 0.42676 0.45999 0.0
C290 C 0.79073 0.47808 0.52107 0.0
C291 C 0.85889 0.48785 0.49697 0.0
O292 O 0.81419 0.41892 0.4785 0.0
O293 O 0.80768 0.44917 0.46326 0.0
O294 O 0.85088 0.48852 0.51656 0.0
O295 O 0.84781 0.47187 0.4801 0.0
C296 C 0.83871 0.43085 0.53249 0.0
O297 O 0.80074 0.48538 0.50441 0.0
O298 O 0.79597 0.45965 0.52788 0.0
In299 In 0.68304 0.53302 0.2848 0.0
O300 O 0.71486 0.51225 0.28779 0.0
O301 O 0.68391 0.48943 0.27857 0.0
C302 C 0.70795 0.58271 0.28627 0.0
C303 C 0.65921 0.53054 0.23713 0.0
C304 C 0.65937 0.53286 0.32807 0.0
O305 O 0.68725 0.57587 0.28548 0.0
O306 O 0.71704 0.56458 0.2871 0.0
O307 O 0.65192 0.52116 0.30716 0.0
O308 O 0.67907 0.54441 0.3278 0.0
C309 C 0.70448 0.48992 0.28231 0.0
O310 O 0.65297 0.53893 0.25657 0.0
O311 O 0.67639 0.5224 0.24163 0.0
Sm312 Sm 0.05148 0.04116 0.01495 0.0
Sm313 Sm 0.08403 0.06161 0.04036 0.0
C314 C 1.01152 0.02835 0.99015 0.0
C315 C 0.9917 0.03829 0.99264 0.0
C316 C 0.98614 0.04606 0.01539 0.0
C317 C 0.96931 0.05883 0.01783 0.0
C318 C 0.95801 0.06434 0.9976 0.0
C319 C 0.96324 0.05608 0.97482 0.0
C320 C 0.97995 0.04307 0.97237 0.0
C321 C 0.08528 0.03729 0.98402 0.0
C322 C 0.06312 0.09812 0.01579 0.0
C323 C 0.12536 0.07845 0.06095 0.0
C324 C 0.14541 0.08434 0.04944 0.0
C325 C 0.14337 0.08293 0.02454 0.0
C326 C 0.16186 0.08318 0.01246 0.0
C327 C 0.1827 0.08509 0.02512 0.0
C328 C 0.185 0.08832 0.05021 0.0
C329 C 0.16637 0.08776 0.06232 0.0
C330 C 0.05052 0.06574 0.07185 0.0
C331 C 0.07213 1.00288 0.03896 0.0
O332 O 0.01773 0.01716 1.0071 0.0
O333 O 0.028 0.04323 0.98397 0.0
O334 O 0.08407 0.05646 0.99866 0.0
O335 O 0.07016 0.01957 0.98832 0.0
O336 O 0.04624 0.08112 0.01832 0.0
O337 O 0.08249 0.09297 0.01945 0.0
O338 O 0.11134 0.09249 0.05869 0.0
O339 O 0.11571 0.05527 0.05658 0.0
O340 O 0.05122 0.04663 0.05674 0.0
O341 O 0.06663 0.08291 0.06856 0.0
O342 O 0.08854 0.02215 0.04329 0.0
O343 O 0.05332 1.00538 0.02862 0.0
H344 H 0.99532 0.04306 0.03135 0.0
H345 H 0.96574 0.06524 0.03559 0.0
H346 H 0.95461 0.05997 0.95896 0.0
H347 H 0.98424 0.03749 0.95472 0.0
H348 H 0.12727 0.08015 0.0143 0.0
H349 H 0.15973 0.08061 0.99315 0.0
H350 H 0.2009 0.0895 0.0603 0.0
H351 H 0.16817 0.08863 0.08151 0.0
Sm352 Sm 0.33296 0.81989 0.25707 0.0
Sm353 Sm 0.30883 0.80853 0.3049 0.0
C354 C 0.33943 0.83129 0.21476 0.0
C355 C 0.32923 0.84455 0.19836 0.0
C356 C 0.31389 0.85832 0.20566 0.0
C357 C 0.30345 0.86994 0.18945 0.0
C358 C 0.30853 0.86826 0.16583 0.0
C359 C 0.32434 0.85483 0.15889 0.0
C360 C 0.33446 0.84293 0.17498 0.0
C361 C 0.36269 0.81177 0.29292 0.0
C362 C 0.33392 0.86372 0.3011 0.0
C363 C 0.29959 0.79808 0.34681 0.0
C364 C 0.28177 0.78422 0.35797 0.0
C365 C 0.27566 0.7585 0.35256 0.0
C366 C 0.26181 0.7454 0.36634 0.0
C367 C 0.25376 0.75776 0.38574 0.0
C368 C 0.25829 0.78355 0.3897 0.0
C369 C 0.27231 0.79665 0.37605 0.0
C370 C 0.27887 0.81543 0.26814 0.0
C371 C 0.31288 0.76308 0.26316 0.0
O372 O 0.32712 0.81043 0.21763 0.0
O373 O 0.35025 0.84456 0.23473 0.0
O374 O 0.34252 0.81198 0.29316 0.0
O375 O 0.36803 0.81586 0.27213 0.0
O376 O 0.33166 0.85757 0.27757 0.0
O377 O 0.32926 0.84763 0.31548 0.0
O378 O 0.31014 0.78534 0.33262 0.0
O379 O 0.29628 0.81815 0.33948 0.0
O380 O 0.29927 0.81641 0.26857 0.0
O381 O 0.27331 0.81032 0.28852 0.0
O382 O 0.30878 0.7703 0.28514 0.0
O383 O 0.32009 0.77823 0.24854 0.0
H384 H 0.30984 0.85986 0.22381 0.0
H385 H 0.29131 0.88001 0.19535 0.0
H386 H 0.32917 0.85373 0.14107 0.0
H387 H 0.3464 0.83249 0.16918 0.0
H388 H 0.28253 0.74837 0.33857 0.0
H389 H 0.25887 0.72558 0.36288 0.0
H390 H 0.25207 0.7936 0.40429 0.0
H391 H 0.27666 0.81648 0.38043 0.0
Sm392 Sm 0.59583 0.05933 0.53131 0.0
Sm393 Sm 0.54665 0.0582 0.5401 0.0
C394 C 0.63711 0.05351 0.53158 0.0
C395 C 0.65201 0.03656 0.53481 0.0
C396 C 0.65197 0.02405 0.55435 0.0
C397 C 0.6684 1.01102 0.55889 0.0
C398 C 0.68498 1.00995 0.54379 0.0
C399 C 0.68424 0.02143 0.52357 0.0
C400 C 0.668 0.03469 0.51922 0.0
C401 C 0.57321 0.07904 0.49873 0.0
C402 C 0.55806 1.00709 0.51649 0.0
C403 C 0.50513 0.06156 0.54427 0.0
C404 C 0.48731 0.0754 0.5439 0.0
C405 C 0.48444 0.08993 0.52648 0.0
C406 C 0.46556 0.09986 0.52414 0.0
C407 C 0.44908 0.09527 0.53926 0.0
C408 C 0.45262 0.08167 0.55751 0.0
C409 C 0.47148 0.07184 0.55975 0.0
C410 C 0.57239 0.04161 0.57314 0.0
C411 C 0.58374 0.11071 0.55369 0.0
O412 O 0.62917 0.06277 0.55048 0.0
O413 O 0.62302 0.04868 0.51208 0.0
O414 O 0.56473 0.06042 0.50744 0.0
O415 O 0.59443 0.08552 0.50476 0.0
O416 O 0.57926 0.01782 0.52216 0.0
O417 O 0.54223 0.01939 0.51897 0.0
O418 O 0.51206 0.05427 0.52398 0.0
O419 O 0.52073 0.0672 0.56245 0.0
O420 O 0.57811 0.05999 0.56347 0.0
O421 O 0.5517 0.03148 0.56647 0.0
O422 O 0.56253 0.09984 0.5482 0.0
O423 O 0.59972 0.09852 0.5515 0.0
H424 H 0.63968 0.02496 0.56652 0.0
H425 H 0.66834 1.00212 0.57445 0.0
H426 H 0.69683 0.02111 0.51168 0.0
H427 H 0.66841 0.04424 0.50408 0.0
H428 H 0.49651 0.09272 0.51426 0.0
H429 H 0.46338 0.11013 0.50984 0.0
H430 H 0.44051 0.07811 0.56975 0.0
H431 H 0.4733 0.06066 0.57338 0.0
Sm432 Sm 0.2889 0.3143 0.77354 0.0
Sm433 Sm 0.33412 0.29711 0.7772 0.0
C434 C 0.24633 0.31513 0.77401 0.0
C435 C 0.2264 0.30632 0.78555 0.0
C436 C 0.20632 0.29532 0.77117 0.0
C437 C 0.18682 0.28863 0.78139 0.0
C438 C 0.18681 0.2928 0.80636 0.0
C439 C 0.20703 0.30361 0.8208 0.0
C440 C 0.22659 0.31025 0.81053 0.0
C441 C 0.32304 0.35519 0.76966 0.0
C442 C 0.31636 0.31885 0.8269 0.0
C443 C 0.3767 0.29626 0.7761 0.0
C444 C 0.39511 0.30308 0.76175 0.0
C445 C 0.41636 0.31474 0.77325 0.0
C446 C 0.43424 0.31992 0.76005 0.0
C447 C 0.43131 0.31349 0.73496 0.0
C448 C 0.40991 0.30185 0.72355 0.0
C449 C 0.39207 0.29683 0.73672 0.0
C450 C 0.30014 0.25631 0.78153 0.0
C451 C 0.30662 0.2944 0.7235 0.0
O452 O 0.25331 0.29914 0.75922 0.0
O453 O 0.26249 0.33172 0.78695 0.0
O454 O 0.32501 0.33351 0.77228 0.0
O455 O 0.30209 0.35507 0.76859 0.0
O456 O 0.29723 0.3171 0.81397 0.0
O457 O 0.33371 0.3134 0.8172 0.0
O458 O 0.37002 0.31394 0.78894 0.0
O459 O 0.36035 0.27812 0.7661 0.0
O460 O 0.29797 0.27789 0.77871 0.0
O461 O 0.32114 0.25668 0.78307 0.0
O462 O 0.32534 0.29347 0.73606 0.0
O463 O 0.28987 0.30055 0.73375 0.0
H464 H 0.20561 0.29233 0.75189 0.0
H465 H 0.1716 0.28071 0.76962 0.0
H466 H 0.20777 0.30685 0.84007 0.0
H467 H 0.2418 0.31872 0.82216 0.0
H468 H 0.4192 0.31968 0.79253 0.0
H469 H 0.45031 0.32915 0.76952 0.0
H470 H 0.4069 0.29616 0.70436 0.0
H471 H 0.37594 0.28771 0.72727 0.0
Sm472 Sm 0.05684 0.08337 0.53726 0.0
Sm473 Sm 0.06566 0.03247 0.5165 0.0
C474 C 0.06114 0.1307 0.55317 0.0
C475 C 0.06338 0.15166 0.54035 0.0
C476 C 0.0671 0.14847 0.51631 0.0
C477 C 0.06909 0.1681 0.50382 0.0
C478 C 0.06713 0.1913 0.51505 0.0
C479 C 0.06329 0.19443 0.53914 0.0
C480 C 0.0615 0.17475 0.55172 0.0
C481 C 0.02237 0.04389 0.53688 0.0
C482 C 0.04122 0.06393 0.47855 0.0
C483 C 0.05709 0.98438 0.50339 0.0
C484 C 0.04641 0.963 0.51362 0.0
C485 C 0.02324 0.95616 0.5123 0.0
C486 C 1.01332 0.93708 0.52342 0.0
C487 C 0.02631 0.92431 0.53601 0.0
C488 C 0.04942 0.9305 0.53655 0.0
C489 C 0.05936 0.94961 0.52544 0.0
C490 C 0.10012 0.06889 0.50851 0.0
C491 C 0.08195 0.05343 0.57595 0.0
O492 O 0.0778 0.11981 0.55336 0.0
O493 O 0.04198 0.11519 0.54867 0.0
O494 O 0.04271 0.04454 0.54195 0.0
O495 O 0.01952 0.06527 0.53319 0.0
O496 O 0.04667 0.08296 0.49642 0.0
O497 O 0.04537 0.04228 0.48229 0.0
O498 O 0.04417 0.99824 0.49611 0.0
O499 O 0.07632 0.99706 0.51441 0.0
O500 O 0.08312 0.07116 0.51817 0.0
O501 O 0.09944 0.04564 0.50231 0.0
O502 O 0.08079 0.03539 0.55741 0.0
O503 O 0.07353 0.0729 0.57253 0.0
H504 H 0.06833 0.1307 0.50711 0.0
H505 H 0.07169 0.16498 0.4852 0.0
H506 H 0.06182 0.21213 0.5483 0.0
H507 H 0.05856 0.17753 0.57025 0.0
H508 H 1.01269 0.96584 0.50309 0.0
H509 H 0.99546 0.93251 0.52238 0.0
H510 H 0.0599 0.92112 0.54624 0.0
H511 H 0.07722 0.95427 0.52655 0.0
Sm512 Sm 0.3319 0.82276 0.78042 0.0
Sm513 Sm 0.28684 0.78398 0.76404 0.0
C514 C 0.36682 0.84989 0.80801 0.0
C515 C 0.39046 0.8507 0.80831 0.0
C516 C 0.40415 0.85636 0.83011 0.0
C517 C 0.42619 0.85454 0.83082 0.0
C518 C 0.4348 0.84707 0.80969 0.0
C519 C 0.42122 0.84211 0.78777 0.0
C520 C 0.39911 0.84372 0.7871 0.0
C521 C 0.32862 0.806 0.73226 0.0
C522 C 0.33232 0.76025 0.77059 0.0
C523 C 0.24782 0.76136 0.74112 0.0
C524 C 0.22644 0.76888 0.73975 0.0
C525 C 0.21798 0.77519 0.71844 0.0
C526 C 0.19927 0.78523 0.71761 0.0
C527 C 0.1885 0.78888 0.738 0.0
C528 C 0.19652 0.7819 0.75913 0.0
C529 C 0.2154 0.7721 0.76005 0.0
C530 C 0.29772 0.80024 0.81221 0.0
C531 C 0.28552 0.84591 0.77163 0.0
O532 O 0.35522 0.8298 0.8136 0.0
O533 O 0.35736 0.8572 0.78966 0.0
O534 O 0.31499 0.80017 0.74641 0.0
O535 O 0.34502 0.82313 0.74352 0.0
O536 O 0.34294 0.78333 0.7809 0.0
O537 O 0.31113 0.75658 0.76122 0.0
O538 O 0.26315 0.77415 0.73092 0.0
O539 O 0.25538 0.75654 0.7617 0.0
O540 O 0.30052 0.81243 0.7957 0.0
O541 O 0.2871 0.77786 0.80361 0.0
O542 O 0.27507 0.82222 0.76474 0.0
O543 O 0.30742 0.85105 0.77882 0.0
H544 H 0.39764 0.86159 0.84662 0.0
H545 H 0.43648 0.85872 0.84791 0.0
H546 H 0.42747 0.83616 0.7713 0.0
H547 H 0.38866 0.83892 0.7701 0.0
H548 H 0.22616 0.77289 0.70256 0.0
H549 H 0.19312 0.79 0.70095 0.0
H550 H 0.18845 0.78449 0.77506 0.0
H551 H 0.22156 0.76758 0.77682 0.0
Sm552 Sm 0.56436 0.06906 0.05063 0.0
Sm553 Sm 0.55054 0.05087 0.99721 0.0
C554 C 0.57022 0.09309 0.09481 0.0
C555 C 0.5608 0.08923 0.11688 0.0
C556 C 0.5382 0.07913 0.11649 0.0
C557 C 0.52986 0.07386 0.13744 0.0
C558 C 0.54404 0.07835 0.15899 0.0
C559 C 0.56662 0.0885 0.15931 0.0
C560 C 0.57492 0.09396 0.13839 0.0
C561 C 0.56908 0.02226 0.03632 0.0
C562 C 0.51281 0.04104 0.03095 0.0
C563 C 0.5429 0.03333 0.95096 0.0
C564 C 0.54973 0.04094 0.92877 0.0
C565 C 0.57212 0.04921 0.92641 0.0
C566 C 0.57829 0.05528 0.9048 0.0
C567 C 0.56218 0.05341 0.88523 0.0
C568 C 0.53973 0.0461 0.88802 0.0
C569 C 0.53358 0.03984 0.9096 0.0
C570 C 0.55133 0.09966 0.01401 0.0
C571 C 0.60302 0.06929 0.01725 0.0
O572 O 0.55727 0.09804 0.0776 0.0
O573 O 0.582 0.07745 0.08733 0.0
O574 O 0.55333 0.0311 0.02837 0.0
O575 O 0.58041 0.03685 0.05501 0.0
O576 O 0.52599 0.05796 0.04747 0.0
O577 O 0.52021 0.03156 0.01163 0.0
O578 O 0.55785 0.0276 0.96545 0.0
O579 O 0.53038 0.04605 0.96202 0.0
O580 O 0.56563 0.08801 0.01901 0.0
O581 O 0.53507 0.08545 0.99955 0.0
O582 O 0.58828 0.0548 1.00037 0.0
O583 O 0.59702 0.0816 0.03615 0.0
H584 H 0.52708 0.07497 0.09996 0.0
H585 H 0.51241 0.06585 0.13673 0.0
H586 H 0.57782 0.09238 0.17577 0.0
H587 H 0.59244 0.10155 0.13891 0.0
H588 H 0.58491 0.05048 0.94105 0.0
H589 H 0.59575 0.06042 0.90318 0.0
H590 H 0.52694 0.04473 0.87337 0.0
H591 H 0.51619 0.03376 0.91122 0.0
Sm592 Sm 0.32331 0.30554 0.27604 0.0
Sm593 Sm 0.28801 0.25301 0.25638 0.0
C594 C 0.34566 0.35017 0.27633 0.0
C595 C 0.33612 0.36922 0.26738 0.0
C596 C 0.31671 0.36178 0.25114 0.0
C597 C 0.30318 0.37802 0.24771 0.0
C598 C 0.30878 0.40195 0.26058 0.0
C599 C 0.32909 0.41011 0.27533 0.0
C600 C 0.34269 0.39369 0.27886 0.0
C601 C 0.31753 0.27698 0.312 0.0
C602 C 0.27016 0.30138 0.27839 0.0
C603 C 0.26172 0.2094 0.25369 0.0
C604 C 0.26348 0.18621 0.26185 0.0
C605 C 0.26335 0.18395 0.28604 0.0
C606 C 0.27018 0.1643 0.29434 0.0
C607 C 0.27671 0.14642 0.27846 0.0
C608 C 0.27422 0.14716 0.2539 0.0
C609 C 0.26763 0.1669 0.24566 0.0
C610 C 0.29216 0.28179 0.22047 0.0
C611 C 0.34163 0.25693 0.25578 0.0
O612 O 0.34701 0.33162 0.26013 0.0
O613 O 0.3373 0.34336 0.29517 0.0
O614 O 0.30914 0.27189 0.29039 0.0
O615 O 0.33066 0.29858 0.31523 0.0
O616 O 0.28953 0.3158 0.27744 0.0
O617 O 0.26634 0.2772 0.2733 0.0
O618 O 0.26148 0.22821 0.2701 0.0
O619 O 0.27401 0.21535 0.23708 0.0
O620 O 0.30192 0.28713 0.24162 0.0
O621 O 0.27893 0.26046 0.21826 0.0
O622 O 0.32185 0.24236 0.25488 0.0
O623 O 0.34563 0.2811 0.26163 0.0
H624 H 0.31095 0.34282 0.24266 0.0
H625 H 0.28763 0.37144 0.23617 0.0
H626 H 0.3336 0.42856 0.28547 0.0
H627 H 0.35737 0.39958 0.29182 0.0
H628 H 0.25931 0.19805 0.2988 0.0
H629 H 0.27163 0.16384 0.31332 0.0
H630 H 0.27917 0.13361 0.24126 0.0
H631 H 0.26727 0.16787 0.22681 0.0
Sm632 Sm 0.5535 0.57213 0.03643 0.0
Sm633 Sm 0.56559 0.52788 0.01293 0.0
C634 C 0.55025 0.61819 0.04924 0.0
C635 C 0.55729 0.64041 0.03905 0.0
C636 C 0.5659 0.63884 0.01714 0.0
C637 C 0.57454 0.66009 1.00837 0.0
C638 C 0.57471 0.68331 0.02139 0.0
C639 C 0.56576 0.68476 0.04321 0.0
C640 C 0.55714 0.66343 0.05198 0.0
C641 C 0.52347 0.5304 0.04103 0.0
C642 C 0.54034 0.55582 0.97526 0.0
C643 C 0.56902 0.48182 1.00221 0.0
C644 C 0.56589 0.46202 0.0167 0.0
C645 C 0.5468 0.44306 0.01135 0.0
C646 C 0.54137 0.42699 0.02739 0.0
C647 C 0.55497 0.42957 0.04908 0.0
C648 C 0.57474 0.44759 0.05375 0.0
C649 C 0.58017 0.4636 0.03771 0.0
C650 C 0.59547 0.5698 1.00878 0.0
C651 C 0.58031 0.54405 0.07336 0.0
O652 O 0.56642 0.6092 0.05782 0.0
O653 O 0.53422 0.60129 0.03659 0.0
O654 O 0.5325 0.534 0.02251 0.0
O655 O 0.52877 0.55002 0.05719 0.0
O656 O 0.54226 0.57303 0.99471 0.0
O657 O 0.54762 0.53567 0.97775 0.0
O658 O 0.55114 0.48931 0.99597 0.0
O659 O 0.58621 0.49999 1.00912 0.0
O660 O 0.58649 0.56589 0.02725 0.0
O661 O 0.59004 0.55047 0.99222 0.0
O662 O 0.57738 0.52707 0.05373 0.0
O663 O 0.57319 0.56452 0.07157 0.0
H664 H 0.56646 0.62119 1.0071 0.0
H665 H 0.5816 0.65836 0.99171 0.0
H666 H 0.56544 0.70236 0.0535 0.0
H667 H 0.55069 0.66492 0.06902 0.0
H668 H 0.53548 0.44143 0.99531 0.0
H669 H 0.52599 0.41334 0.02333 0.0
H670 H 0.58578 0.44969 0.07009 0.0
H671 H 0.59513 0.47782 0.04229 0.0
Sm672 Sm 0.83255 0.32223 0.26765 0.0
Sm673 Sm 0.79396 0.28518 0.27408 0.0
C674 C 0.87242 0.35067 0.27207 0.0
C675 C 0.89486 0.34667 0.26942 0.0
C676 C 0.90599 0.33631 0.28641 0.0
C677 C 0.92718 0.33265 0.28391 0.0
C678 C 0.93775 0.3391 0.26427 0.0
C679 C 0.92655 0.34929 0.24715 0.0
C680 C 0.90532 0.35311 0.24976 0.0
C681 C 0.80972 0.29706 0.22533 0.0
C682 C 0.83974 0.26301 0.27179 0.0
C683 C 0.75402 0.25664 0.26883 0.0
C684 C 0.73131 0.25987 0.27112 0.0
C685 C 0.72004 0.26996 0.254 0.0
C686 C 0.6983 0.27202 0.25563 0.0
C687 C 0.68727 0.26418 0.27449 0.0
C688 C 0.69866 0.25451 0.29189 0.0
C689 C 0.72047 0.2523 0.29017 0.0
C690 C 0.81567 0.31416 0.3159 0.0
C691 C 0.78662 0.34443 0.27071 0.0
O692 O 0.86328 0.34299 0.29017 0.0
O693 O 0.85855 0.34631 0.25246 0.0
O694 O 0.81424 0.28752 0.24335 0.0
O695 O 0.81736 0.32063 0.22941 0.0
O696 O 0.84875 0.28695 0.27232 0.0
O697 O 0.81783 0.25683 0.27125 0.0
O698 O 0.76332 0.26502 0.25113 0.0
O699 O 0.76767 0.26067 0.28857 0.0
O700 O 0.81122 0.32062 0.29635 0.0
O701 O 0.8074 0.29086 0.31459 0.0
O702 O 0.77755 0.32033 0.26926 0.0
O703 O 0.80866 0.3507 0.27203 0.0
H704 H 0.89849 0.3312 0.30185 0.0
H705 H 0.9355 0.3254 0.29781 0.0
H706 H 0.9342 0.35439 0.2318 0.0
H707 H 0.89711 0.36116 0.23641 0.0
H708 H 0.72782 0.27589 0.239 0.0
H709 H 0.68991 0.27898 0.24155 0.0
H710 H 0.69066 0.24842 0.30669 0.0
H711 H 0.72877 0.24443 0.3036 0.0
Sm712 Sm 0.06313 0.53631 0.55151 0.0
Sm713 Sm 0.06605 0.5658 0.51312 0.0
C714 C 0.05491 0.51223 0.58729 0.0
C715 C 0.04161 0.51147 0.60704 0.0
C716 C 0.02668 0.52683 0.61049 0.0
C717 C 0.01599 0.5277 0.63101 0.0
C718 C 0.02025 0.51332 0.64833 0.0
C719 C 0.03488 0.49757 0.64434 0.0
C720 C 0.04543 0.49666 0.62384 0.0
C721 C 0.08223 0.51637 0.51406 0.0
C722 C 0.01895 0.53381 0.51509 0.0
C723 C 0.07497 0.59162 0.47874 0.0
C724 C 0.09208 0.59949 0.46376 0.0
C725 C 0.10397 0.58315 0.45307 0.0
C726 C 0.11834 0.59041 0.43678 0.0
C727 C 0.12115 0.61418 0.43107 0.0
C728 C 0.11007 0.63084 0.44286 0.0
C729 C 0.0956 0.62351 0.45901 0.0
C730 C 0.04782 0.58581 0.55142 0.0
C731 C 0.10994 0.56872 0.54948 0.0
O732 O 0.0704 0.532 0.58906 0.0
O733 O 0.04451 0.50471 0.56569 0.0
O734 O 0.06544 0.52548 0.51172 0.0
O735 O 0.08851 0.51625 0.53619 0.0
O736 O 0.02662 0.53425 0.53753 0.0
O737 O 0.03232 0.54118 0.49983 0.0
O738 O 0.06501 0.56842 0.47473 0.0
O739 O 0.07896 0.60118 0.50139 0.0
O740 O 0.0645 0.57647 0.55297 0.0
O741 O 0.04056 0.58532 0.52935 0.0
O742 O 0.10232 0.56785 0.52699 0.0
O743 O 0.09644 0.56224 0.56493 0.0
H744 H 0.02372 0.53851 0.59764 0.0
H745 H 1.00463 0.5398 0.63346 0.0
H746 H 0.03884 0.4866 0.65748 0.0
H747 H 0.05713 0.48493 0.62148 0.0
H748 H 0.10159 0.56455 0.45664 0.0
H749 H 0.12637 0.57699 0.42781 0.0
H750 H 0.11213 0.64935 0.43911 0.0
H751 H 0.08665 0.6364 0.46728 0.0
Sm752 Sm 0.79458 0.81189 0.27474 0.0
Sm753 Sm 0.83704 0.79229 0.27454 0.0
C754 C 0.75287 0.81567 0.27709 0.0
C755 C 0.73235 0.80621 0.28723 0.0
C756 C 0.73249 0.80388 0.31145 0.0
C757 C 0.71256 0.79716 0.321 0.0
C758 C 0.69207 0.79255 0.30652 0.0
C759 C 0.69212 0.79449 0.2822 0.0
C760 C 0.71199 0.80125 0.27271 0.0
C761 C 0.82842 0.85272 0.2704 0.0
C762 C 0.82336 0.8123 0.32655 0.0
C763 C 0.87821 0.78655 0.27221 0.0
C764 C 0.89893 0.79469 0.26194 0.0
C765 C 0.90769 0.81948 0.26129 0.0
C766 C 0.92774 0.82652 0.25213 0.0
C767 C 0.93956 0.80891 0.24351 0.0
C768 C 0.93056 0.78408 0.24404 0.0
C769 C 0.9105 0.77709 0.25311 0.0
C770 C 0.80243 0.75164 0.27846 0.0
C771 C 0.81022 0.79414 0.22306 0.0
O772 O 0.7588 0.80133 0.25984 0.0
O773 O 0.76966 0.82906 0.29191 0.0
O774 O 0.8309 0.83087 0.27189 0.0
O775 O 0.8076 0.85258 0.27044 0.0
O776 O 0.80402 0.81303 0.31533 0.0
O777 O 0.83941 0.80674 0.31472 0.0
O778 O 0.8727 0.80176 0.2891 0.0
O779 O 0.86122 0.77354 0.25742 0.0
O780 O 0.80065 0.77364 0.27709 0.0
O781 O 0.82307 0.75122 0.27785 0.0
O782 O 0.8297 0.79562 0.23504 0.0
O783 O 0.79291 0.79672 0.23421 0.0
H784 H 0.74795 0.8076 0.32311 0.0
H785 H 0.7132 0.79557 0.33972 0.0
H786 H 0.67673 0.79146 0.27054 0.0
H787 H 0.71141 0.80317 0.25406 0.0
H788 H 0.89915 0.83343 0.26802 0.0
H789 H 0.93393 0.84578 0.25174 0.0
H790 H 0.93924 0.77 0.23796 0.0
H791 H 0.90415 0.75786 0.25354 0.0
Sm792 Sm 0.8307 0.3114 0.76381 0.0
Sm793 Sm 0.80519 0.31596 0.80166 0.0
C794 C 0.85478 0.3137 0.72792 0.0
C795 C 0.85752 0.32641 0.70762 0.0
C796 C 0.84182 0.33922 0.70018 0.0
C797 C 0.84428 0.35061 0.68024 0.0
C798 C 0.86251 0.34938 0.66761 0.0
C799 C 0.87843 0.33695 0.67547 0.0
C800 C 0.87589 0.32546 0.69537 0.0
C801 C 0.85171 0.30068 0.80478 0.0
C802 C 0.82978 0.36583 0.78898 0.0
C803 C 0.78378 0.31272 0.8395 0.0
C804 C 0.77533 0.29367 0.8533 0.0
C805 C 0.78896 0.27915 0.86204 0.0
C806 C 0.78057 0.26123 0.87517 0.0
C807 C 0.75833 0.25725 0.87955 0.0
C808 C 0.74462 0.27148 0.87027 0.0
C809 C 0.7531 0.2896 0.85734 0.0
C810 C 0.78316 0.32589 0.76108 0.0
C811 C 0.80162 0.26172 0.77101 0.0
O812 O 0.83604 0.29798 0.72682 0.0
O813 O 0.86108 0.32723 0.74897 0.0
O814 O 0.84224 0.31847 0.80425 0.0
O815 O 0.84965 0.28794 0.7837 0.0
O816 O 0.82931 0.35204 0.76821 0.0
O817 O 0.82459 0.35571 0.80757 0.0
O818 O 0.80523 0.32026 0.84097 0.0
O819 O 0.77388 0.30989 0.81783 0.0
O820 O 0.79348 0.30864 0.76127 0.0
O821 O 0.78474 0.33838 0.78232 0.0
O822 O 0.80145 0.27392 0.7925 0.0
O823 O 0.80915 0.27329 0.7542 0.0
H824 H 0.82762 0.34022 0.70967 0.0
H825 H 0.83197 0.36043 0.67473 0.0
H826 H 0.89254 0.33566 0.66595 0.0
H827 H 0.88814 0.31562 0.70105 0.0
H828 H 0.80614 0.28177 0.85896 0.0
H829 H 0.79175 0.25099 0.88246 0.0
H830 H 0.72738 0.2687 0.8731 0.0
H831 H 0.74228 0.30048 0.8505 0.0
Sm832 Sm 0.8151 0.81473 0.77838 0.0
Sm833 Sm 0.78065 0.76774 0.75753 0.0
C834 C 0.8455 0.8559 0.78963 0.0
C835 C 0.8433 0.8799 0.80166 0.0
C836 C 0.85349 0.90118 0.79369 0.0
C837 C 0.84633 0.92295 0.79964 0.0
C838 C 0.8288 0.92357 0.8135 0.0
C839 C 0.82016 0.90281 0.82331 0.0
C840 C 0.82728 0.88111 0.81735 0.0
C841 C 0.80011 0.78659 0.81186 0.0
C842 C 0.76424 0.817 0.77959 0.0
C843 C 0.75469 0.72419 0.75488 0.0
C844 C 0.76113 0.70176 0.76063 0.0
C845 C 0.75615 0.69347 0.78195 0.0
C846 C 0.76815 0.67795 0.79151 0.0
C847 C 0.7854 0.67071 0.77996 0.0
C848 C 0.78836 0.67665 0.75722 0.0
C849 C 0.77624 0.6918 0.74758 0.0
C850 C 0.78619 0.79448 0.72052 0.0
C851 C 0.83224 0.7665 0.75479 0.0
O852 O 0.83391 0.84877 0.76855 0.0
O853 O 0.8439 0.83845 0.80253 0.0
O854 O 0.80481 0.77852 0.79143 0.0
O855 O 0.80349 0.81034 0.8152 0.0
O856 O 0.78402 0.83025 0.77859 0.0
O857 O 0.75976 0.79284 0.77471 0.0
O858 O 0.75635 0.74185 0.7731 0.0
O859 O 0.76244 0.73221 0.73626 0.0
O860 O 0.79631 0.80126 0.74155 0.0
O861 O 0.77212 0.77392 0.7193 0.0
O862 O 0.81198 0.75314 0.75263 0.0
O863 O 0.83707 0.79031 0.76265 0.0
H864 H 0.86571 0.9005 0.78139 0.0
H865 H 0.85337 0.93877 0.792 0.0
H866 H 0.80644 0.90258 0.83374 0.0
H867 H 0.81892 0.86478 0.8234 0.0
H868 H 0.74437 0.70065 0.79222 0.0
H869 H 0.76495 0.67306 0.80871 0.0
H870 H 0.80146 0.67164 0.74768 0.0
H871 H 0.78034 0.69747 0.73092 0.0
Sm872 Sm 0.5468 0.54303 0.51352 0.0
Sm873 Sm 0.57764 0.56898 0.53858 0.0
C874 C 0.50732 0.52358 0.48881 0.0
C875 C 0.486 0.53052 0.49038 0.0
C876 C 0.48219 0.54416 0.51161 0.0
C877 C 0.46338 0.55395 0.51225 0.0
C878 C 0.44815 0.55042 0.49162 0.0
C879 C 0.45171 0.53615 0.47056 0.0
C880 C 0.47054 0.52626 0.46996 0.0
C881 C 0.58159 0.54173 0.48327 0.0
C882 C 0.55013 0.60008 0.51319 0.0
C883 C 0.61663 0.59052 0.56366 0.0
C884 C 0.63879 0.58564 0.56305 0.0
C885 C 0.64489 0.5748 0.54165 0.0
C886 C 0.66447 0.56645 0.54178 0.0
C887 C 0.67812 0.56855 0.56334 0.0
C888 C 0.67238 0.58024 0.5846 0.0
C889 C 0.65282 0.58877 0.58443 0.0
C890 C 0.54266 0.57004 0.56846 0.0
C891 C 0.5735 0.51107 0.53861 0.0
O892 O 0.51516 0.51501 0.50696 0.0
O893 O 0.52225 0.53971 0.48176 0.0
O894 O 0.57855 0.56084 0.4969 0.0
O895 O 0.56768 0.52325 0.48812 0.0
O896 O 0.5359 0.57994 0.51437 0.0
O897 O 0.57086 0.60045 0.51953 0.0
O898 O 0.60838 0.59834 0.54525 0.0
O899 O 0.60241 0.57347 0.5704 0.0
O900 O 0.54612 0.55094 0.55523 0.0
O901 O 0.55614 0.58865 0.56323 0.0
O902 O 0.58812 0.53169 0.54007 0.0
O903 O 0.55322 0.5105 0.53018 0.0
H904 H 0.49419 0.54805 0.52745 0.0
H905 H 0.46129 0.56519 0.52862 0.0
H906 H 0.44014 0.53301 0.45446 0.0
H907 H 0.47341 0.51601 0.45337 0.0
H908 H 0.63405 0.57179 0.52501 0.0
H909 H 0.66829 0.55716 0.52519 0.0
H910 H 0.68269 0.58216 0.60142 0.0
H911 H 0.64819 0.59687 0.60113 0.0
Sm912 Sm 0.08589 0.54986 0.04083 0.0
Sm913 Sm 0.03374 0.54743 0.03889 0.0
C914 C 0.12714 0.5453 0.05194 0.0
C915 C 0.14329 0.52901 0.05188 0.0
C916 C 0.14706 0.51752 0.07167 0.0
C917 C 0.16488 0.50598 0.07396 0.0
C918 C 0.17926 0.50526 0.05638 0.0
C919 C 0.17482 0.51547 0.03591 0.0
C920 C 0.15717 0.52744 0.0338 0.0
C921 C 0.06264 0.54858 0.99729 0.0
C922 C 0.04972 0.49543 0.03041 0.0
C923 C 0.99259 0.55208 0.027 0.0
C924 C 0.97593 0.5677 0.02905 0.0
C925 C 0.97048 0.57989 1.01025 0.0
C926 C 0.95246 0.59142 1.01035 0.0
C927 C 0.93926 0.59078 0.0291 0.0
C928 C 0.9453 0.57945 0.04832 0.0
C929 C 0.96332 0.56804 0.04829 0.0
C930 C 0.05545 0.54673 0.0824 0.0
C931 C 0.07003 0.60155 0.04884 0.0
O932 O 0.11189 0.54259 0.06633 0.0
O933 O 0.12035 0.55184 0.0319 0.0
O934 O 0.05666 0.53693 0.01341 0.0
O935 O 0.08272 0.5617 1.00322 0.0
O936 O 0.0705 0.50788 0.03683 0.0
O937 O 0.03296 0.50641 0.0275 0.0
O938 O 1.00869 0.55781 0.01419 0.0
O939 O 0.99858 0.54266 0.04557 0.0
O940 O 0.06286 0.55921 0.06722 0.0
O941 O 0.03482 0.53579 0.07597 0.0
O942 O 0.04958 0.58891 0.04099 0.0
O943 O 0.08663 0.59076 0.05332 0.0
H944 H 0.13672 0.51819 0.0859 0.0
H945 H 0.16772 0.49807 0.08984 0.0
H946 H 0.18567 0.51533 0.02211 0.0
H947 H 0.15495 0.53628 0.01843 0.0
H948 H 0.9796 0.57968 0.99496 0.0
H949 H 0.94822 0.59978 0.99516 0.0
H950 H 0.93572 0.57887 0.06323 0.0
H951 H 0.96684 0.55874 0.063 0.0
H952 H 1.01107 0.19485 0.94978 0.0
H953 H 0.07168 0.24797 0.97936 0.0
H954 H 0.08458 0.21723 0.99996 0.0
H955 H 1.00545 0.16567 1.00325 0.0
H956 H 0.9951 0.13516 0.98656 0.0
H957 H 0.9899 0.16128 0.97412 0.0
H958 H 1.0076 0.1474 0.93662 0.0
H959 H 1.01276 0.1212 0.94891 0.0
H960 H 0.03525 0.14214 0.94007 0.0
H961 H 0.09245 0.18075 0.01541 0.0
H962 H 0.09397 0.14069 0.0268 0.0
H963 H 0.02778 0.11021 0.98997 0.0
C964 C 0.02697 0.2 0.96072 0.0
C965 C 0.04035 0.22399 0.96286 0.0
C966 C 0.06106 0.22989 0.97739 0.0
C967 C 0.06859 0.21249 0.9892 0.0
C968 C 0.05519 0.18911 0.98668 0.0
C969 C 0.03471 0.18277 0.97303 0.0
C970 C 0.02381 0.15612 0.97352 0.0
C971 C 1.00229 0.15447 0.98505 0.0
C972 C 0.01961 0.14081 0.94828 0.0
C973 C 0.04153 0.14853 0.98924 0.0
C974 C 0.05948 0.16796 0.99648 0.0
C975 C 0.0784 0.16548 1.01009 0.0
C976 C 0.07912 0.14259 0.01645 0.0
C977 C 0.06097 0.12232 1.00953 0.0
C978 C 0.04179 0.12545 0.99588 0.0
H979 H 0.16156 0.82794 0.20715 0.0
H980 H 0.18971 0.83168 0.14069 0.0
H981 H 0.22596 0.82919 0.16093 0.0
H982 H 0.21007 0.8642 0.24646 0.0
H983 H 0.20577 0.84584 0.26961 0.0
H984 H 0.18249 0.84884 0.24995 0.0
H985 H 0.1707 0.80155 0.23843 0.0
H986 H 0.19398 0.79841 0.25797 0.0
H987 H 0.19017 0.78458 0.2269 0.0
H988 H 0.25928 0.8243 0.18882 0.0
H989 H 0.28588 0.81856 0.22158 0.0
H990 H 0.23587 0.81892 0.26951 0.0
C991 C 0.17538 0.82848 0.19686 0.0
C992 C 0.17272 0.83011 0.17227 0.0
C993 C 0.19128 0.83055 0.15953 0.0
C994 C 0.21196 0.8291 0.1709 0.0
C995 C 0.21394 0.82724 0.19511 0.0
C996 C 0.19611 0.82706 0.20793 0.0
C997 C 0.20234 0.82451 0.23364 0.0
C998 C 0.20003 0.8472 0.25093 0.0
C999 C 0.18847 0.80086 0.23957 0.0
C1000 C 0.2264 0.82309 0.23332 0.0
C1001 C 0.23289 0.82472 0.21097 0.0
C1002 C 0.25434 0.82328 0.20641 0.0
C1003 C 0.26944 0.82019 0.22513 0.0
C1004 C 0.26316 0.81877 0.24818 0.0
C1005 C 0.24129 0.82015 0.25214 0.0
H1006 H 0.56597 0.87402 0.44955 0.0
H1007 H 0.50796 0.84426 0.48144 0.0
H1008 H 0.50751 0.88589 0.5017 0.0
H1009 H 0.59189 0.91993 0.5024 0.0
H1010 H 0.60314 0.94253 0.48498 0.0
H1011 H 0.59906 0.91035 0.47312 0.0
H1012 H 0.57519 0.91634 0.43576 0.0
H1013 H 0.57905 0.94848 0.44758 0.0
H1014 H 0.55152 0.92974 0.43946 0.0
H1015 H 0.51134 0.93103 0.51566 0.0
H1016 H 0.522 0.97614 0.52674 0.0
H1017 H 0.57955 0.97695 0.48909 0.0
C1018 C 0.55331 0.87628 0.46099 0.0
C1019 C 0.53694 0.85587 0.46388 0.0
C1020 C 0.52072 0.85957 0.47906 0.0
C1021 C 0.52026 0.88318 0.49056 0.0
C1022 C 0.53642 0.90295 0.48711 0.0
C1023 C 0.55293 0.89974 0.4731 0.0
C1024 C 0.56859 0.92413 0.47287 0.0
C1025 C 0.59206 0.92423 0.48401 0.0
C1026 C 0.56858 0.93001 0.4474 0.0
C1027 C 0.55806 0.94156 0.48856 0.0
C1028 C 0.53936 0.92893 0.49632 0.0
C1029 C 0.52612 0.94107 0.50996 0.0
C1030 C 0.53223 0.96672 0.51604 0.0
C1031 C 0.55164 0.98006 0.50889 0.0
C1032 C 0.56475 0.96722 0.49503 0.0
H1033 H 0.55614 0.32466 0.70125 0.0
H1034 H 0.53128 0.34038 0.63298 0.0
H1035 H 0.49455 0.33867 0.64622 0.0
H1036 H 0.50699 0.28105 0.70734 0.0
H1037 H 0.50839 0.29013 0.73917 0.0
H1038 H 0.53335 0.29401 0.72514 0.0
H1039 H 0.54311 0.3402 0.74335 0.0
H1040 H 0.51815 0.33645 0.75743 0.0
H1041 H 0.52344 0.35884 0.73801 0.0
H1042 H 0.46039 0.335 0.66614 0.0
H1043 H 0.43027 0.32783 0.69101 0.0
H1044 H 0.47559 0.31206 0.74618 0.0
C1045 C 0.54299 0.32799 0.68925 0.0
C1046 C 0.5467 0.33281 0.66607 0.0
C1047 C 0.52894 0.33668 0.65077 0.0
C1048 C 0.50796 0.3358 0.65815 0.0
C1049 C 0.50476 0.33083 0.68091 0.0
C1050 C 0.52167 0.32686 0.69626 0.0
C1051 C 0.51325 0.32079 0.71938 0.0
C1052 C 0.51564 0.29496 0.72296 0.0
C1053 C 0.5252 0.34023 0.74081 0.0
C1054 C 0.48902 0.32191 0.7145 0.0
C1055 C 0.48463 0.32794 0.69225 0.0
C1056 C 0.46359 0.3301 0.68355 0.0
C1057 C 0.44648 0.32576 0.69782 0.0
C1058 C 0.45024 0.31902 0.72058 0.0
C1059 C 0.47201 0.31732 0.72901 0.0
H1060 H 0.0173 0.80508 0.59656 0.0
H1061 H 0.9687 0.83108 0.63745 0.0
H1062 H 0.96895 0.8644 0.61379 0.0
H1063 H 0.0494 0.86227 0.59467 0.0
H1064 H 0.05608 0.85485 0.56477 0.0
H1065 H 0.04983 0.83109 0.58246 0.0
H1066 H 0.01877 0.80637 0.54937 0.0
H1067 H 0.02504 0.83 0.53143 0.0
H1068 H 0.99733 0.82074 0.53867 0.0
H1069 H 0.9773 0.89709 0.5886 0.0
H1070 H 0.99323 0.92686 0.56391 0.0
H1071 H 0.03641 0.87962 0.5394 0.0
C1072 C 1.00631 0.81742 0.60015 0.0
C1073 C 0.99285 0.81543 0.6187 0.0
C1074 C 0.97903 0.83222 0.6232 0.0
C1075 C 0.97904 0.85115 0.60984 0.0
C1076 C 0.99291 0.85296 0.59203 0.0
C1077 C 1.00621 0.83647 0.58708 0.0
C1078 C 0.02087 0.84356 0.56833 0.0
C1079 C 0.0455 0.84822 0.57816 0.0
C1080 C 1.01515 0.824 0.5456 0.0
C1081 C 1.01425 0.86704 0.56405 0.0
C1082 C 0.99788 0.87195 0.57763 0.0
C1083 C 0.98985 0.89322 0.57758 0.0
C1084 C 0.99891 0.90998 0.56341 0.0
C1085 C 0.01588 0.90549 0.54955 0.0
C1086 C 0.02345 0.88358 0.54979 0.0
H1087 H 0.54107 0.81822 0.87416 0.0
H1088 H 0.57915 0.86005 0.82811 0.0
H1089 H 0.54458 0.86021 0.80315 0.0
H1090 H 0.49485 0.78265 0.82669 0.0
H1091 H 0.47473 0.78477 0.84726 0.0
H1092 H 0.50247 0.78321 0.85804 0.0
H1093 H 0.50602 0.82339 0.8881 0.0
H1094 H 0.47853 0.82527 0.87727 0.0
H1095 H 0.50142 0.85053 0.87716 0.0
H1096 H 0.50599 0.86166 0.78746 0.0
H1097 H 0.46665 0.86438 0.7826 0.0
H1098 H 0.45434 0.82227 0.8395 0.0
C1099 C 0.54219 0.82671 0.85837 0.0
C1100 C 0.56268 0.83905 0.85296 0.0
C1101 C 0.56353 0.85038 0.83244 0.0
C1102 C 0.54402 0.85047 0.81812 0.0
C1103 C 0.52393 0.83896 0.82452 0.0
C1104 C 0.52293 0.82706 0.84405 0.0
C1105 C 0.4994 0.81882 0.84903 0.0
C1106 C 0.49245 0.79069 0.845 0.0
C1107 C 0.49617 0.8302 0.87438 0.0
C1108 C 0.48742 0.82917 0.83015 0.0
C1109 C 0.50171 0.84018 0.81577 0.0
C1110 C 0.49457 0.85266 0.79828 0.0
C1111 C 0.47228 0.85417 0.79567 0.0
C1112 C 0.45768 0.84362 0.81078 0.0
C1113 C 0.46527 0.83056 0.82782 0.0
H1114 H 0.50091 0.19383 0.09837 0.0
H1115 H 0.56857 0.2335 0.12236 0.0
H1116 H 0.58176 0.20595 0.09204 0.0
H1117 H 0.51273 0.13456 0.08859 0.0
H1118 H 0.49267 0.12311 0.06247 0.0
H1119 H 0.48836 0.14698 0.08499 0.0
H1120 H 0.48479 0.17447 0.05287 0.0
H1121 H 0.48927 0.1507 0.03028 0.0
H1122 H 0.50678 0.18099 0.03471 0.0
H1123 H 0.58799 0.17271 0.0618 0.0
H1124 H 0.58697 0.13508 0.03325 0.0
H1125 H 0.51537 0.11711 0.0275 0.0
C1126 C 0.51847 0.19685 0.09703 0.0
C1127 C 0.53373 0.21584 0.11264 0.0
C1128 C 0.55659 0.2191 0.11055 0.0
C1129 C 0.56424 0.2036 0.09334 0.0
C1130 C 0.54881 0.18502 0.07829 0.0
C1131 C 0.52641 0.18152 0.07991 0.0
C1132 C 0.51351 0.15933 0.0623 0.0
C1133 C 0.50109 0.13985 0.07538 0.0
C1134 C 0.49765 0.16683 0.04395 0.0
C1135 C 0.53221 0.15073 0.05078 0.0
C1136 C 0.55241 0.16592 0.06028 0.0
C1137 C 0.57228 0.16091 0.0539 0.0
C1138 C 0.57154 0.13956 0.03768 0.0
C1139 C 0.55109 0.12361 0.02793 0.0
C1140 C 0.53115 0.12946 0.0342 0.0
H1141 H 0.15654 0.2989 0.33181 0.0
H1142 H 0.17862 0.37745 0.35546 0.0
H1143 H 0.21192 0.37716 0.33505 0.0
H1144 H 0.20955 0.28489 0.34007 0.0
H1145 H 0.20423 0.26103 0.3142 0.0
H1146 H 0.18171 0.26787 0.32966 0.0
H1147 H 0.16184 0.27486 0.29011 0.0
H1148 H 0.18445 0.26827 0.27458 0.0
H1149 H 0.176 0.29684 0.27368 0.0
H1150 H 0.24325 0.36805 0.31281 0.0
H1151 H 0.27149 0.35029 0.29316 0.0
H1152 H 0.22866 0.27776 0.28443 0.0
C1153 C 0.16836 0.31604 0.33264 0.0
C1154 C 0.16504 0.33819 0.34516 0.0
C1155 C 0.1809 0.36025 0.34597 0.0
C1156 C 0.19978 0.3603 0.33432 0.0
C1157 C 0.2025 0.33815 0.32199 0.0
C1158 C 0.1873 0.31641 0.32121 0.0
C1159 C 0.19458 0.29494 0.30768 0.0
C1160 C 0.19771 0.27608 0.32387 0.0
C1161 C 0.17824 0.28304 0.28518 0.0
C1162 C 0.21642 0.30794 0.3013 0.0
C1163 C 0.22061 0.33289 0.30944 0.0
C1164 C 0.24013 0.34854 0.30629 0.0
C1165 C 0.25605 0.33827 0.29507 0.0
C1166 C 0.25234 0.31261 0.28729 0.0
C1167 C 0.23203 0.29744 0.29006 0.0
H1168 H 0.9607 0.04593 0.17423 0.0
H1169 H 1.0082 0.10413 0.22136 0.0
H1170 H 0.03238 0.10715 0.18957 0.0
H1171 H 1.00242 0.01715 0.14526 0.0
H1172 H 0.98708 1.00945 0.11581 0.0
H1173 H 0.97265 1.0116 0.14179 0.0
H1174 H 0.95323 0.04318 0.1257 0.0
H1175 H 0.96761 0.04111 0.09967 0.0
H1176 H 0.96964 0.07046 0.11809 0.0
H1177 H 0.05243 0.10525 0.15168 0.0
H1178 H 0.06663 0.09786 0.11319 0.0
H1179 H 1.00902 0.0392 0.08714 0.0
C1180 C 0.97616 0.05942 0.17798 0.0
C1181 C 0.9819 0.07497 0.20136 0.0
C1182 C 1.0027 0.09193 0.20444 0.0
C1183 C 0.01681 0.09382 0.18612 0.0
C1184 C 1.01078 0.07849 0.16374 0.0
C1185 C 0.99093 0.06142 0.15951 0.0
C1186 C 0.98899 0.047 0.13361 0.0
C1187 C 0.9877 0.01966 0.13415 0.0
C1188 C 0.96865 0.05064 0.11836 0.0
C1189 C 1.01065 0.05859 0.12401 0.0
C1190 C 0.02275 0.07688 0.14196 0.0
C1191 C 0.04294 0.09081 0.13779 0.0
C1192 C 0.05102 0.08635 0.11535 0.0
C1193 C 0.0397 0.06768 0.09602 0.0
C1194 C 0.01885 0.05348 0.10093 0.0
H1195 H 0.27566 0.72002 0.50907 0.0
H1196 H 0.24111 0.64641 0.47617 0.0
H1197 H 0.22476 0.66282 0.44267 0.0
H1198 H 0.23241 0.75321 0.48606 0.0
H1199 H 0.25387 0.77825 0.48171 0.0
H1200 H 0.25805 0.76165 0.50581 0.0
H1201 H 0.29394 0.75261 0.49022 0.0
H1202 H 0.28993 0.76923 0.46636 0.0
H1203 H 0.29273 0.73788 0.45971 0.0
H1204 H 0.21869 0.68576 0.40942 0.0
H1205 H 0.2248 0.71265 0.37914 0.0
H1206 H 0.26355 0.77105 0.43381 0.0
C1207 C 0.26404 0.70748 0.49522 0.0
C1208 C 0.2596 0.68203 0.49515 0.0
C1209 C 0.24466 0.66605 0.47655 0.0
C1210 C 0.23516 0.67522 0.45755 0.0
C1211 C 0.24056 0.70043 0.45764 0.0
C1212 C 0.25451 0.71636 0.47616 0.0
C1213 C 0.26048 0.74197 0.47046 0.0
C1214 C 0.2506 0.75982 0.487 0.0
C1215 C 0.28574 0.75091 0.47174 0.0
C1216 C 0.24911 0.73759 0.44515 0.0
C1217 C 0.2371 0.71373 0.43829 0.0
C1218 C 0.22758 0.70465 0.41475 0.0
C1219 C 0.23123 0.72 0.39764 0.0
C1220 C 0.24457 0.74401 0.40412 0.0
C1221 C 0.2527 0.75311 0.42837 0.0
H1222 H 0.67535 0.06149 0.67055 0.0
H1223 H 0.64872 0.98937 0.68639 0.0
H1224 H 0.62052 0.98151 0.65102 0.0
H1225 H 0.626 0.07616 0.65573 0.0
H1226 H 0.63456 0.09239 0.63206 0.0
H1227 H 0.65468 0.09052 0.65598 0.0
H1228 H 0.67725 0.0725 0.62532 0.0
H1229 H 0.65706 0.07259 0.6006 0.0
H1230 H 0.66514 0.0445 0.60502 0.0
H1231 H 0.59145 0.98475 0.61838 0.0
H1232 H 0.56599 0.99756 0.58913 0.0
H1233 H 0.61263 0.067 0.59464 0.0
C1234 C 0.66401 0.04375 0.66617 0.0
C1235 C 0.66419 0.026 0.68107 0.0
C1236 C 0.64895 1.00311 0.67499 0.0
C1237 C 0.63286 0.99852 0.65499 0.0
C1238 C 0.63256 0.01688 0.64117 0.0
C1239 C 0.648 0.03889 0.64631 0.0
C1240 C 0.64317 0.05643 0.63002 0.0
C1241 C 0.63937 0.08026 0.64431 0.0
C1242 C 0.66173 0.06182 0.61428 0.0
C1243 C 0.62205 0.04129 0.61554 0.0
C1244 C 0.6162 0.01846 0.62206 0.0
C1245 C 0.59613 1.00233 0.61272 0.0
C1246 C 0.58171 1.00979 0.59633 0.0
C1247 C 0.58753 0.03312 0.5896 0.0
C1248 C 0.60802 0.04885 0.59915 0.0
H1249 H 0.34414 0.34338 0.97189 0.0
H1250 H 0.30923 0.40248 0.97041 0.0
H1251 H 0.30279 0.39286 0.92666 0.0
H1252 H 0.37114 0.35295 0.91893 0.0
H1253 H 0.36871 0.32083 0.90782 0.0
H1254 H 0.37045 0.33149 0.93945 0.0
H1255 H 0.33384 0.30082 0.94105 0.0
H1256 H 0.33204 0.29 0.90944 0.0
H1257 H 0.30949 0.30116 0.92152 0.0
H1258 H 0.29914 0.37736 0.88382 0.0
H1259 H 0.29904 0.35699 0.84278 0.0
H1260 H 0.33761 0.30807 0.86882 0.0
C1261 C 0.33504 0.35415 0.96229 0.0
C1262 C 0.32713 0.37372 0.97479 0.0
C1263 C 0.3155 0.38748 0.96147 0.0
C1264 C 0.31172 0.38215 0.9365 0.0
C1265 C 0.3198 0.36303 0.92474 0.0
C1266 C 0.33129 0.34921 0.937 0.0
C1267 C 0.33835 0.32994 0.91936 0.0
C1268 C 0.36367 0.33405 0.92153 0.0
C1269 C 0.3278 0.30393 0.92307 0.0
C1270 C 0.32891 0.33516 0.89544 0.0
C1271 C 0.31821 0.35431 0.89929 0.0
C1272 C 0.30753 0.36241 0.88055 0.0
C1273 C 0.30754 0.35061 0.85723 0.0
C1274 C 0.31831 0.33091 0.8524 0.0
C1275 C 0.32943 0.32323 0.87185 0.0
H1276 H 0.99468 0.04844 0.33301 0.0
H1277 H 0.9605 0.10624 0.35432 0.0
H1278 H 0.9759 0.1089 0.39627 0.0
H1279 H 0.98568 0.0188 0.38595 0.0
H1280 H 1.01218 1.01053 0.38867 0.0
H1281 H 0.99946 1.01342 0.35985 0.0
H1282 H 0.03436 0.04472 0.35466 0.0
H1283 H 0.04718 0.04191 0.38346 0.0
H1284 H 0.04459 0.07162 0.37719 0.0
H1285 H 0.99619 0.10672 0.43724 0.0
H1286 H 0.01658 0.09808 0.47279 0.0
H1287 H 0.03687 0.03906 0.42885 0.0
C1288 C 0.99051 0.06183 0.34643 0.0
C1289 C 0.97616 0.07744 0.3394 0.0
C1290 C 0.97125 0.09412 0.35833 0.0
C1291 C 0.98007 0.09578 0.38258 0.0
C1292 C 0.99392 0.08034 0.38881 0.0
C1293 C 0.99897 0.0634 0.3713 0.0
C1294 C 1.01369 0.04841 0.38347 0.0
C1295 C 1.00207 0.02116 0.37922 0.0
C1296 C 0.0363 0.05186 0.37413 0.0
C1297 C 0.01622 0.05961 0.41034 0.0
C1298 C 1.00476 0.07823 0.41272 0.0
C1299 C 1.00499 0.092 0.43531 0.0
C1300 C 0.01688 0.08687 0.45575 0.0
C1301 C 0.0287 0.06767 0.45469 0.0
C1302 C 0.02808 0.05375 0.43111 0.0
H1303 H 0.28826 0.69673 0.62246 0.0
H1304 H 0.34395 0.72958 0.58873 0.0
H1305 H 0.35389 0.76423 0.62259 0.0
H1306 H 0.27316 0.75251 0.64718 0.0
H1307 H 0.26646 0.74215 0.67457 0.0
H1308 H 0.26337 0.72027 0.64745 0.0
H1309 H 0.28897 0.69651 0.66818 0.0
H1310 H 0.29195 0.71819 0.6954 0.0
H1311 H 0.31613 0.71262 0.68233 0.0
H1312 H 0.35788 0.7949 0.66026 0.0
H1313 H 0.35693 0.81832 0.70021 0.0
H1314 H 0.29891 0.76492 0.7093 0.0
C1315 C 0.30251 0.71126 0.62216 0.0
C1316 C 0.31532 0.71061 0.60299 0.0
C1317 C 0.33396 0.72978 0.60331 0.0
C1318 C 0.33966 0.74954 0.62238 0.0
C1319 C 0.32659 0.74969 0.64095 0.0
C1320 C 0.30851 0.73095 0.6411 0.0
C1321 C 0.29769 0.735 0.66362 0.0
C1322 C 0.27375 0.73764 0.65785 0.0
C1323 C 0.29876 0.71436 0.67824 0.0
C1324 C 0.31246 0.75901 0.6761 0.0
C1325 C 0.32897 0.76724 0.6627 0.0
C1326 C 0.34497 0.78871 0.67086 0.0
C1327 C 0.34427 0.80189 0.6935 0.0
C1328 C 0.32772 0.79349 0.70761 0.0
C1329 C 0.31151 0.77195 0.69867 0.0
H1330 H 0.65616 0.08452 0.80607 0.0
H1331 H 0.6203 0.02089 0.75536 0.0
H1332 H 0.58691 0.0215 0.77544 0.0
H1333 H 0.63795 0.06483 0.8546 0.0
H1334 H 0.63582 0.094 0.87081 0.0
H1335 H 0.65474 0.0929 0.84897 0.0
H1336 H 0.63625 0.12184 0.82674 0.0
H1337 H 0.61717 0.123 0.84862 0.0
H1338 H 0.60688 0.11377 0.81734 0.0
H1339 H 0.56052 0.02367 0.80464 0.0
H1340 H 0.54413 0.02504 0.84222 0.0
H1341 H 0.59652 0.08746 0.87478 0.0
C1342 C 0.64101 0.07129 0.79876 0.0
C1343 C 0.64062 0.05276 0.77917 0.0
C1344 C 0.62082 0.03525 0.77038 0.0
C1345 C 0.60174 0.03563 0.78151 0.0
C1346 C 0.60278 0.05367 0.80133 0.0
C1347 C 0.62192 0.07124 0.80989 0.0
C1348 C 0.61988 0.08593 0.8337 0.0
C1349 C 0.63817 0.08428 0.85315 0.0
C1350 C 0.62005 0.11273 0.83146 0.0
C1351 C 0.59731 0.07263 0.83801 0.0
C1352 C 0.5874 0.0547 0.81873 0.0
C1353 C 0.56777 0.03806 0.81961 0.0
C1354 C 0.55852 0.03904 0.84108 0.0
C1355 C 0.56905 0.05638 0.86145 0.0
C1356 C 0.58812 0.07403 0.85948 0.0
H1357 H 0.34771 0.36903 0.13036 0.0
H1358 H 0.28975 0.33312 0.07984 0.0
H1359 H 0.27447 0.31035 0.11026 0.0
H1360 H 0.3516 0.31509 0.15728 0.0
H1361 H 0.36032 0.33184 0.18719 0.0
H1362 H 0.36683 0.34648 0.16194 0.0
H1363 H 0.34782 0.38129 0.17791 0.0
H1364 H 0.34116 0.36657 0.2031 0.0
H1365 H 0.31954 0.3737 0.18396 0.0
H1366 H 0.26452 0.2921 0.14535 0.0
H1367 H 0.26197 0.27507 0.18229 0.0
H1368 H 0.32699 0.31929 0.2116 0.0
C1369 C 0.33183 0.35632 0.12575 0.0
C1370 C 0.31993 0.35298 0.10251 0.0
C1371 C 0.29927 0.33605 0.09729 0.0
C1372 C 0.29035 0.32308 0.11457 0.0
C1373 C 0.30227 0.32687 0.13719 0.0
C1374 C 0.32271 0.34275 0.14289 0.0
C1375 C 0.33224 0.34219 0.16848 0.0
C1376 C 0.35404 0.33338 0.16873 0.0
C1377 C 0.33538 0.36745 0.18429 0.0
C1378 C 0.31398 0.32345 0.17606 0.0
C1379 C 0.29679 0.31533 0.15766 0.0
C1380 C 0.27792 0.29824 0.15983 0.0
C1381 C 0.27665 0.28867 0.18104 0.0
C1382 C 0.29415 0.29582 0.20013 0.0
C1383 C 0.3131 0.31374 0.19765 0.0
H1384 H 0.24451 0.99023 0.96482 0.0
H1385 H 0.30554 0.04441 0.9889 0.0
H1386 H 0.28426 0.07646 0.99686 0.0
H1387 H 0.21119 0.03366 0.93956 0.0
H1388 H 0.18696 0.01714 0.94995 0.0
H1389 H 0.20772 1.00128 0.9401 0.0
H1390 H 0.20964 0.98618 0.9811 0.0
H1391 H 0.18997 1.00343 0.99102 0.0
H1392 H 0.21676 1.00854 1.00819 0.0
H1393 H 0.2568 0.09948 0.01208 0.0
H1394 H 0.22504 0.11249 0.02932 0.0
H1395 H 0.1818 0.04433 0.99341 0.0
C1396 C 0.25341 1.00905 0.97071 0.0
C1397 C 0.27662 1.01488 0.97619 0.0
C1398 C 0.28774 0.03959 0.9844 0.0
C1399 C 0.27578 0.05793 0.98897 0.0
C1400 C 0.25277 0.05133 0.98475 0.0
C1401 C 0.2417 0.02756 0.97523 0.0
C1402 C 0.21699 0.02444 0.9753 0.0
C1403 C 0.20502 0.01883 0.94969 0.0
C1404 C 0.20783 1.00449 0.98977 0.0
C1405 C 0.21598 0.04971 0.98766 0.0
C1406 C 0.23675 0.06509 0.99278 0.0
C1407 C 0.24034 0.088 1.00738 0.0
C1408 C 0.22232 0.09521 0.0172 0.0
C1409 C 0.20104 0.07962 0.01216 0.0
C1410 C 0.19781 0.05693 0.99675 0.0
H1411 H 0.71588 0.63324 0.98171 0.0
H1412 H 0.70875 0.69991 0.02582 0.0
H1413 H 0.67087 0.67958 0.03121 0.0
H1414 H 0.6584 0.61641 0.95212 0.0
H1415 H 0.65661 0.58403 0.95114 0.0
H1416 H 0.68287 0.60412 0.95014 0.0
H1417 H 0.69976 0.58885 0.98674 0.0
H1418 H 0.67355 0.56883 0.98792 0.0
H1419 H 0.68694 0.59091 0.01384 0.0
H1420 H 0.63507 0.65048 0.03519 0.0
H1421 H 0.60291 0.61622 0.03402 0.0
H1422 H 0.63162 0.56959 0.98441 0.0
C1423 C 0.70623 0.64364 0.99227 0.0
C1424 C 0.71532 0.6682 1.00337 0.0
C1425 C 0.70214 0.68116 0.01703 0.0
C1426 C 0.68061 0.66972 0.02026 0.0
C1427 C 0.67224 0.64539 1.00936 0.0
C1428 C 0.6845 0.63263 0.99528 0.0
C1429 C 0.67159 0.60668 0.9855 0.0
C1430 C 0.6671 0.60257 0.9581 0.0
C1431 C 0.68368 0.5877 0.99402 0.0
C1432 C 0.65037 0.60664 0.99672 0.0
C1433 C 0.65115 0.62911 0.01058 0.0
C1434 C 0.63415 0.63297 0.02403 0.0
C1435 C 0.61593 0.61342 0.02329 0.0
C1436 C 0.61456 0.59042 1.00883 0.0
C1437 C 0.63198 0.58713 0.99525 0.0
H1438 H 0.75028 0.48213 0.28649 0.0
H1439 H 0.68223 0.44136 0.27295 0.0
H1440 H 0.6951 0.40263 0.26887 0.0
H1441 H 0.77232 0.43914 0.24447 0.0
H1442 H 0.79801 0.44195 0.26311 0.0
H1443 H 0.78392 0.46698 0.2654 0.0
H1444 H 0.78361 0.46678 0.3105 0.0
H1445 H 0.79769 0.44175 0.30833 0.0
H1446 H 0.7718 0.4388 0.32061 0.0
H1447 H 0.71573 0.36571 0.26621 0.0
H1448 H 0.74075 0.3369 0.26482 0.0
H1449 H 0.79714 0.39844 0.27913 0.0
C1450 C 0.73794 0.46513 0.2827 0.0
C1451 C 0.7146 0.46599 0.2802 0.0
C1452 C 0.69988 0.44242 0.27512 0.0
C1453 C 0.7072 0.41982 0.27272 0.0
C1454 C 0.72988 0.41965 0.27523 0.0
C1455 C 0.74514 0.44183 0.2801 0.0
C1456 C 0.76866 0.43607 0.28174 0.0
C1457 C 0.7815 0.44668 0.26255 0.0
C1458 C 0.78119 0.44648 0.30678 0.0
C1459 C 0.76432 0.40751 0.27704 0.0
C1460 C 0.74167 0.39855 0.27342 0.0
C1461 C 0.73341 0.37296 0.269 0.0
C1462 C 0.74807 0.35636 0.26822 0.0
C1463 C 0.7716 0.36426 0.27165 0.0
C1464 C 0.77952 0.39082 0.27618 0.0
H1465 H 0.89186 0.50784 0.53336 0.0
H1466 H 0.87685 0.49547 0.45622 0.0
H1467 H 0.91652 0.50908 0.45266 0.0
H1468 H 0.94026 0.56127 0.53889 0.0
H1469 H 0.95492 0.55061 0.56251 0.0
H1470 H 0.92514 0.5447 0.55908 0.0
H1471 H 0.92376 0.49826 0.55685 0.0
H1472 H 0.95345 0.50391 0.55968 0.0
H1473 H 0.93722 0.48286 0.53447 0.0
H1474 H 0.95768 0.51855 0.4572 0.0
H1475 H 0.99779 0.52555 0.46959 0.0
H1476 H 0.98593 0.52993 0.54378 0.0
C1477 C 0.89685 0.50898 0.51579 0.0
C1478 C 0.88139 0.50096 0.49506 0.0
C1479 C 0.88852 0.50183 0.4723 0.0
C1480 C 0.91098 0.50948 0.47012 0.0
C1481 C 0.92597 0.51613 0.49087 0.0
C1482 C 0.91921 0.51624 0.51331 0.0
C1483 C 0.93877 0.52168 0.53259 0.0
C1484 C 0.93983 0.54602 0.54925 0.0
C1485 C 0.93826 0.50041 0.54671 0.0
C1486 C 0.95752 0.52379 0.51742 0.0
C1487 C 0.9498 0.52088 0.49346 0.0
C1488 C 0.96397 0.5212 0.47593 0.0
C1489 C 0.98669 0.52503 0.48314 0.0
C1490 C 0.99494 0.5282 0.50763 0.0
C1491 C 0.9801 0.52744 0.52492 0.0
H1492 H 0.38918 0.12414 0.33581 0.0
H1493 H 0.37154 0.05162 0.29228 0.0
H1494 H 0.33417 0.05778 0.28099 0.0
H1495 H 0.33485 0.12428 0.35629 0.0
H1496 H 0.33662 0.15614 0.35429 0.0
H1497 H 0.36144 0.14529 0.36089 0.0
H1498 H 0.37758 0.16218 0.32479 0.0
H1499 H 0.35301 0.1734 0.31841 0.0
H1500 H 0.36175 0.15306 0.29562 0.0
H1501 H 0.30004 0.07281 0.27173 0.0
H1502 H 0.27238 0.09721 0.26298 0.0
H1503 H 0.31194 0.15954 0.31278 0.0
C1504 C 0.37736 0.10951 0.3241 0.0
C1505 C 0.38317 0.08742 0.31496 0.0
C1506 C 0.36739 0.06873 0.29947 0.0
C1507 C 0.34607 0.07195 0.2931 0.0
C1508 C 0.34079 0.0939 0.30246 0.0
C1509 C 0.35599 0.11243 0.31751 0.0
C1510 C 0.34666 0.13498 0.3235 0.0
C1511 C 0.34478 0.14048 0.35034 0.0
C1512 C 0.36057 0.1572 0.31506 0.0
C1513 C 0.32409 0.12642 0.30898 0.0
C1514 C 0.3209 0.10255 0.29724 0.0
C1515 C 0.30212 0.09137 0.28114 0.0
C1516 C 0.28652 0.10529 0.27629 0.0
C1517 C 0.28991 0.13003 0.28751 0.0
C1518 C 0.30858 0.1404 0.30458 0.0
H1519 H 0.36653 0.18389 0.51193 0.0
H1520 H 0.31288 0.12386 0.51871 0.0
H1521 H 0.3397 0.09834 0.52601 0.0
H1522 H 0.40002 0.14582 0.48157 0.0
H1523 H 0.42595 0.16444 0.49672 0.0
H1524 H 0.40259 0.17817 0.49157 0.0
H1525 H 0.4059 0.19481 0.53683 0.0
H1526 H 0.42925 0.18111 0.54213 0.0
H1527 H 0.40555 0.17383 0.5578 0.0
H1528 H 0.37192 0.0795 0.53366 0.0
H1529 H 0.40778 0.06793 0.54023 0.0
H1530 H 0.44147 0.13951 0.52838 0.0
C1531 C 0.36045 0.16533 0.51483 0.0
C1532 C 0.33752 0.1559 0.51473 0.0
C1533 C 0.33029 0.13153 0.51865 0.0
C1534 C 0.34542 0.11685 0.52284 0.0
C1535 C 0.36784 0.12668 0.52297 0.0
C1536 C 0.37542 0.15029 0.51896 0.0
C1537 C 0.40051 0.15623 0.52022 0.0
C1538 C 0.40768 0.16147 0.49608 0.0
C1539 C 0.41091 0.17777 0.54045 0.0
C1540 C 0.40578 0.13235 0.52576 0.0
C1541 C 0.38662 0.11563 0.52727 0.0
C1542 C 0.38705 0.09244 0.53254 0.0
C1543 C 0.40756 0.0861 0.53643 0.0
C1544 C 0.42756 0.10283 0.53507 0.0
C1545 C 0.42653 0.12625 0.52946 0.0
H1546 H 0.7537 0.60575 0.28491 0.0
H1547 H 0.68873 0.62228 0.28609 0.0
H1548 H 0.70472 0.66553 0.28445 0.0
H1549 H 0.78443 0.66397 0.32157 0.0
H1550 H 0.80777 0.66665 0.30485 0.0
H1551 H 0.79143 0.6368 0.30629 0.0
H1552 H 0.78468 0.6269 0.26022 0.0
H1553 H 0.80099 0.65673 0.25866 0.0
H1554 H 0.77303 0.64725 0.24387 0.0
H1555 H 0.72845 0.70925 0.28232 0.0
H1556 H 0.75679 0.74654 0.2801 0.0
H1557 H 0.80696 0.70343 0.28019 0.0
C1558 C 0.74277 0.61841 0.28492 0.0
C1559 C 0.71952 0.60972 0.28574 0.0
C1560 C 0.70637 0.62764 0.28555 0.0
C1561 C 0.71542 0.65263 0.28459 0.0
C1562 C 0.73813 0.66053 0.28375 0.0
C1563 C 0.75168 0.64386 0.28392 0.0
C1564 C 0.77559 0.6573 0.28276 0.0
C1565 C 0.7907 0.6561 0.3052 0.0
C1566 C 0.78408 0.64639 0.26003 0.0
C1567 C 0.77339 0.68388 0.28191 0.0
C1568 C 0.75158 0.68536 0.28251 0.0
C1569 C 0.74553 0.70801 0.28186 0.0
C1570 C 0.76188 0.72938 0.28058 0.0
C1571 C 0.7845 0.72865 0.27994 0.0
C1572 C 0.79 0.70518 0.28065 0.0
H1573 H 0.88927 0.50174 0.8466 0.0
H1574 H 0.87299 0.52213 0.77786 0.0
H1575 H 0.84881 0.48111 0.7641 0.0
H1576 H 0.89514 0.44454 0.82564 0.0
H1577 H 0.88314 0.42965 0.84869 0.0
H1578 H 0.89561 0.46185 0.85495 0.0
H1579 H 0.8592 0.47157 0.8683 0.0
H1580 H 0.84664 0.43927 0.86242 0.0
H1581 H 0.83373 0.46035 0.84846 0.0
H1582 H 0.8327 0.43637 0.7554 0.0
H1583 H 0.82273 0.39151 0.7534 0.0
H1584 H 0.84818 0.40026 0.82824 0.0
C1585 C 0.88002 0.49783 0.82894 0.0
C1586 C 0.88292 0.51502 0.81327 0.0
C1587 C 0.87087 0.50921 0.79016 0.0
C1588 C 0.8571 0.48599 0.78221 0.0
C1589 C 0.85534 0.46904 0.79776 0.0
C1590 C 0.86614 0.47481 0.8208 0.0
C1591 C 0.86316 0.45263 0.83315 0.0
C1592 C 0.8856 0.44684 0.84105 0.0
C1593 C 0.84988 0.45617 0.85434 0.0
C1594 C 0.84995 0.43323 0.81305 0.0
C1595 C 0.84546 0.44313 0.79286 0.0
C1596 C 0.83557 0.42848 0.77125 0.0
C1597 C 0.83016 0.40305 0.77024 0.0
C1598 C 0.83456 0.39261 0.79074 0.0
C1599 C 0.84424 0.4079 0.81248 0.0
H1600 H 0.12115 0.90997 0.11336 0.0
H1601 H 0.06739 0.85258 0.07401 0.0
H1602 H 0.05519 0.88232 0.05137 0.0
H1603 H 0.09102 0.95806 0.11796 0.0
H1604 H 0.11379 0.98177 0.11375 0.0
H1605 H 0.11907 0.95595 0.12663 0.0
H1606 H 0.14385 0.94653 0.09398 0.0
H1607 H 0.13866 0.97236 0.08101 0.0
H1608 H 0.13281 0.94228 0.06295 0.0
H1609 H 0.04727 0.91825 0.03417 0.0
H1610 H 0.04501 0.95803 0.02245 0.0
H1611 H 0.10427 0.99319 0.07126 0.0
C1612 C 0.10694 0.90365 0.09983 0.0
C1613 C 0.09528 0.87875 0.09554 0.0
C1614 C 0.07669 0.8714 0.07772 0.0
C1615 C 0.06957 0.88822 0.0647 0.0
C1616 C 0.08122 0.91254 0.06944 0.0
C1617 C 0.0996 0.92033 0.08644 0.0
C1618 C 0.10886 0.94774 0.088 0.0
C1619 C 0.10814 0.9617 0.11308 0.0
C1620 C 0.13245 0.9525 0.08107 0.0
C1621 C 0.09267 0.95407 0.06944 0.0
C1622 C 0.07686 0.9334 0.05904 0.0
C1623 C 0.05967 0.93452 0.04205 0.0
C1624 C 0.0585 0.95728 0.03551 0.0
C1625 C 0.07449 0.97884 0.04572 0.0
C1626 C 0.09192 0.97706 0.06285 0.0
H1627 H 0.96699 0.27268 0.85524 0.0
H1628 H 0.95089 0.29279 0.92677 0.0
H1629 H 0.91573 0.30126 0.90991 0.0
H1630 H 0.94414 0.31666 0.82792 0.0
H1631 H 0.93315 0.29608 0.80026 0.0
H1632 H 0.95713 0.29185 0.81794 0.0
H1633 H 0.93731 0.24719 0.81924 0.0
H1634 H 0.91332 0.25125 0.80144 0.0
H1635 H 0.91066 0.24143 0.82989 0.0
H1636 H 0.8829 0.31026 0.88472 0.0
H1637 H 0.85376 0.31402 0.85351 0.0
H1638 H 0.88975 0.28458 0.79879 0.0
C1639 C 0.956 0.27875 0.86733 0.0
C1640 C 0.96179 0.28213 0.89237 0.0
C1641 C 0.94684 0.28995 0.90755 0.0
C1642 C 0.92683 0.29494 0.89812 0.0
C1643 C 0.92168 0.29162 0.87338 0.0
C1644 C 0.93568 0.28327 0.8582 0.0
C1645 C 0.92591 0.28039 0.8323 0.0
C1646 C 0.94098 0.29725 0.81882 0.0
C1647 C 0.92154 0.25346 0.81999 0.0
C1648 C 0.90442 0.28869 0.83525 0.0
C1649 C 0.90236 0.29543 0.85906 0.0
C1650 C 0.88427 0.30472 0.86603 0.0
C1651 C 0.86782 0.30691 0.84822 0.0
C1652 C 0.86933 0.2994 0.82377 0.0
C1653 C 0.88793 0.29018 0.81736 0.0
H1654 H 0.5732 0.24427 0.61661 0.0
H1655 H 0.6328 0.27338 0.58699 0.0
H1656 H 0.63448 0.23148 0.5688 0.0
H1657 H 0.58749 0.18865 0.62956 0.0
H1658 H 0.56011 0.16982 0.6204 0.0
H1659 H 0.56365 0.20206 0.63164 0.0
H1660 H 0.54127 0.20738 0.59294 0.0
H1661 H 0.5376 0.17514 0.58163 0.0
H1662 H 0.54974 0.19748 0.5644 0.0
H1663 H 0.63109 0.18655 0.55578 0.0
H1664 H 0.62051 0.14147 0.54476 0.0
H1665 H 0.56122 0.14091 0.5794 0.0
C1666 C 0.58656 0.24174 0.60627 0.0
C1667 C 0.60296 0.26206 0.6033 0.0
C1668 C 0.62005 0.2581 0.58943 0.0
C1669 C 0.6212 0.23436 0.57911 0.0
C1670 C 0.60488 0.21471 0.58241 0.0
C1671 C 0.58765 0.2181 0.59528 0.0
C1672 C 0.57182 0.19377 0.59521 0.0
C1673 C 0.57071 0.18825 0.62072 0.0
C1674 C 0.54874 0.19343 0.5828 0.0
C1675 C 0.58303 0.17622 0.58057 0.0
C1676 C 0.60222 0.18873 0.57366 0.0
C1677 C 0.61597 0.17657 0.56087 0.0
C1678 C 0.60989 0.15094 0.5548 0.0
C1679 C 0.59003 0.13771 0.56112 0.0
C1680 C 0.57639 0.15058 0.57413 0.0
H1681 H 0.60454 0.80545 0.40032 0.0
H1682 H 0.55613 0.75165 0.3495 0.0
H1683 H 0.58469 0.74763 0.3227 0.0
H1684 H 0.63252 0.83548 0.35699 0.0
H1685 H 0.65963 0.84085 0.37354 0.0
H1686 H 0.6356 0.83886 0.38911 0.0
H1687 H 0.64683 0.80434 0.40943 0.0
H1688 H 0.67088 0.80617 0.39385 0.0
H1689 H 0.65137 0.77732 0.39121 0.0
H1690 H 0.61839 0.74983 0.30111 0.0
H1691 H 0.65445 0.75879 0.28579 0.0
H1692 H 0.68103 0.81191 0.35011 0.0
C1693 C 0.59998 0.79273 0.3836 0.0
C1694 C 0.57806 0.77879 0.37704 0.0
C1695 C 0.57277 0.76249 0.35494 0.0
C1696 C 0.58891 0.76005 0.3396 0.0
C1697 C 0.61032 0.77407 0.34657 0.0
C1698 C 0.61589 0.79013 0.36802 0.0
C1699 C 0.64 0.80351 0.37093 0.0
C1700 C 0.64205 0.83132 0.37274 0.0
C1701 C 0.65304 0.79747 0.39264 0.0
C1702 C 0.64707 0.79255 0.34772 0.0
C1703 C 0.62971 0.77553 0.33399 0.0
C1704 C 0.63208 0.76317 0.3117 0.0
C1705 C 0.65264 0.7685 0.30308 0.0
C1706 C 0.67068 0.78615 0.31662 0.0
C1707 C 0.66775 0.79812 0.33938 0.0
H1708 H 0.11264 0.2743 0.42039 0.0
H1709 H 0.05912 0.31181 0.43152 0.0
H1710 H 0.04716 0.28622 0.46146 0.0
H1711 H 0.08191 0.21435 0.42491 0.0
H1712 H 0.10499 0.20563 0.44017 0.0
H1713 H 0.10975 0.22736 0.42006 0.0
H1714 H 0.13557 0.25876 0.45383 0.0
H1715 H 0.13084 0.23714 0.47406 0.0
H1716 H 0.12537 0.26727 0.48173 0.0
H1717 H 0.04104 0.25676 0.4903 0.0
H1718 H 0.04003 0.22385 0.51456 0.0
H1719 H 0.09708 0.20494 0.48432 0.0
C1720 C 0.09844 0.27714 0.42918 0.0
C1721 C 0.08684 0.29509 0.42368 0.0
C1722 C 0.06825 0.29816 0.43545 0.0
C1723 C 0.06136 0.28377 0.45253 0.0
C1724 C 0.07316 0.26627 0.45758 0.0
C1725 C 0.09122 0.26278 0.44618 0.0
C1726 C 0.10064 0.24229 0.45451 0.0
C1727 C 0.09923 0.22116 0.43367 0.0
C1728 C 0.12452 0.25195 0.46676 0.0
C1729 C 0.08501 0.23478 0.4723 0.0
C1730 C 0.06939 0.24898 0.47393 0.0
C1731 C 0.0532 0.24553 0.4892 0.0
C1732 C 0.05284 0.2269 0.50302 0.0
C1733 C 0.06847 0.21185 0.50135 0.0
C1734 C 0.08481 0.21602 0.48584 0.0
H1735 H 0.58082 0.29754 0.2182 0.0
H1736 H 0.54484 0.22729 0.23062 0.0
H1737 H 0.5767 0.22441 0.25836 0.0
H1738 H 0.62913 0.2815 0.2129 0.0
H1739 H 0.64693 0.31019 0.2274 0.0
H1740 H 0.61977 0.30975 0.21354 0.0
H1741 H 0.61043 0.33139 0.25341 0.0
H1742 H 0.63775 0.33201 0.26744 0.0
H1743 H 0.61374 0.31827 0.2801 0.0
H1744 H 0.61438 0.225 0.27739 0.0
H1745 H 0.65456 0.22868 0.28555 0.0
H1746 H 0.66603 0.29941 0.26231 0.0
C1747 C 0.57937 0.28196 0.22741 0.0
C1748 C 0.56042 0.26266 0.22237 0.0
C1749 C 0.55922 0.24233 0.23435 0.0
C1750 C 0.57719 0.24062 0.25024 0.0
C1751 C 0.59604 0.25955 0.25414 0.0
C1752 C 0.59714 0.28 0.24326 0.0
C1753 C 0.6202 0.29609 0.24766 0.0
C1754 C 0.62954 0.29955 0.22397 0.0
C1755 C 0.62054 0.32091 0.26308 0.0
C1756 C 0.63223 0.28067 0.26132 0.0
C1757 C 0.61794 0.25997 0.26541 0.0
C1758 C 0.62566 0.24148 0.27495 0.0
C1759 C 0.64856 0.24377 0.27962 0.0
C1760 C 0.66346 0.26435 0.27457 0.0
C1761 C 0.65506 0.28345 0.26632 0.0
H1762 H 0.57643 0.9109 0.93532 0.0
H1763 H 0.6461 0.92442 0.9624 0.0
H1764 H 0.64213 0.96016 0.99079 0.0
H1765 H 0.57339 0.97649 0.94123 0.0
H1766 H 0.54595 0.97066 0.94994 0.0
H1767 H 0.55463 0.94735 0.93025 0.0
H1768 H 0.54459 0.91684 0.95937 0.0
H1769 H 0.53618 0.94015 0.97924 0.0
H1770 H 0.5569 0.92493 0.99012 0.0
H1771 H 0.63033 0.99141 0.01831 0.0
H1772 H 0.61183 0.01877 0.04258 0.0
H1773 H 0.54964 0.98675 0.99739 0.0
C1774 C 0.59089 0.92161 0.94703 0.0
C1775 C 0.61158 0.91491 0.94677 0.0
C1776 C 0.63012 0.92926 0.96234 0.0
C1777 C 0.62804 0.94959 0.97848 0.0
C1778 C 0.60736 0.95543 0.97862 0.0
C1779 C 0.58914 0.94213 0.96316 0.0
C1780 C 0.56867 0.952 0.96769 0.0
C1781 C 0.56017 0.96223 0.94598 0.0
C1782 C 0.55052 0.9323 0.97451 0.0
C1783 C 0.57814 0.97236 0.98868 0.0
C1784 C 0.60052 0.974 0.9945 0.0
C1785 C 0.61287 0.99048 0.01383 0.0
C1786 C 0.60212 1.0058 0.02762 0.0
C1787 C 0.57925 1.00473 0.02191 0.0
C1788 C 0.56712 0.98789 1.00209 0.0
H1789 H 0.95392 0.77848 0.72667 0.0
H1790 H 0.92971 0.71641 0.66949 0.0
H1791 H 0.89417 0.7076 0.68606 0.0
H1792 H 0.92333 0.75177 0.7741 0.0
H1793 H 0.9183 0.78122 0.78608 0.0
H1794 H 0.94317 0.77942 0.77264 0.0
H1795 H 0.93362 0.80827 0.74377 0.0
H1796 H 0.90888 0.81018 0.7571 0.0
H1797 H 0.90722 0.80017 0.72536 0.0
H1798 H 0.85966 0.70949 0.70525 0.0
H1799 H 0.82896 0.72349 0.72376 0.0
H1800 H 0.87614 0.78438 0.76795 0.0
C1801 C 0.94136 0.76264 0.71801 0.0
C1802 C 0.94449 0.7481 0.6969 0.0
C1803 C 0.92759 0.72775 0.68578 0.0
C1804 C 0.90744 0.7225 0.69516 0.0
C1805 C 0.90463 0.73762 0.71575 0.0
C1806 C 0.92122 0.75722 0.72709 0.0
C1807 C 0.91328 0.77258 0.74704 0.0
C1808 C 0.92523 0.77115 0.77141 0.0
C1809 C 0.91589 0.79936 0.74305 0.0
C1810 C 0.88928 0.75947 0.74422 0.0
C1811 C 0.88467 0.73892 0.72658 0.0
C1812 C 0.86314 0.72526 0.71941 0.0
C1813 C 0.84582 0.73333 0.72999 0.0
C1814 C 0.85025 0.75508 0.74712 0.0
C1815 C 0.8723 0.76767 0.75488 0.0
H1816 H 0.16718 0.06499 0.87577 0.0
H1817 H 0.12569 0.99861 0.83372 0.0
H1818 H 0.10386 0.9933 0.86723 0.0
H1819 H 0.16582 0.04425 0.93478 0.0
H1820 H 0.16445 0.0736 0.95109 0.0
H1821 H 0.17752 0.07195 0.92417 0.0
H1822 H 0.15133 0.09706 0.90695 0.0
H1823 H 0.13802 0.09813 0.93375 0.0
H1824 H 0.12184 0.08605 0.90507 0.0
H1825 H 0.08587 0.99373 0.90639 0.0
H1826 H 0.0725 1.00074 0.94537 0.0
H1827 H 0.12233 0.06844 0.96538 0.0
C1828 C 0.15354 0.04923 0.87351 0.0
C1829 C 0.14877 0.03208 0.85105 0.0
C1830 C 0.13033 1.01214 0.84988 0.0
C1831 C 0.11761 1.00891 0.8692 0.0
C1832 C 0.12266 0.02584 0.89066 0.0
C1833 C 0.14013 0.04583 0.89298 0.0
C1834 C 0.14133 0.06146 0.9182 0.0
C1835 C 0.16361 0.06292 0.93294 0.0
C1836 C 0.13794 0.08722 0.91585 0.0
C1837 C 0.12196 0.0472 0.92959 0.0
C1838 C 0.1117 0.02656 0.91314 0.0
C1839 C 0.09388 1.01 0.9191 0.0
C1840 C 0.08626 1.01426 0.94181 0.0
C1841 C 0.09567 0.03528 0.95961 0.0
C1842 C 0.11411 0.05212 0.95287 0.0
H1843 H 0.8163 0.39331 0.55165 0.0
H1844 H 0.88143 0.43956 0.55337 0.0
H1845 H 0.89581 0.42037 0.58587 0.0
H1846 H 0.81688 0.39813 0.61256 0.0
H1847 H 0.80237 0.36704 0.61224 0.0
H1848 H 0.79797 0.38161 0.5868 0.0
H1849 H 0.80891 0.34627 0.55937 0.0
H1850 H 0.81318 0.33143 0.58474 0.0
H1851 H 0.83509 0.33834 0.56657 0.0
H1852 H 0.90202 0.39939 0.6208 0.0
H1853 H 0.89943 0.37833 0.65584 0.0
H1854 H 0.8302 0.34621 0.63108 0.0
C1855 C 0.8337 0.39898 0.55848 0.0
C1856 C 0.8478 0.41777 0.55002 0.0
C1857 C 0.87039 0.42507 0.55963 0.0
C1858 C 0.87872 0.41424 0.578 0.0
C1859 C 0.86423 0.39613 0.58637 0.0
C1860 C 0.84223 0.38846 0.57684 0.0
C1861 C 0.82966 0.37026 0.59033 0.0
C1862 C 0.81061 0.37985 0.60112 0.0
C1863 C 0.82122 0.34508 0.57429 0.0
C1864 C 0.84783 0.36956 0.60945 0.0
C1865 C 0.86774 0.38427 0.60668 0.0
C1866 C 0.88662 0.38751 0.62297 0.0
C1867 C 0.88501 0.37551 0.64275 0.0
C1868 C 0.86462 0.36076 0.64606 0.0
C1869 C 0.84595 0.35753 0.62901 0.0
H1870 H 0.47037 0.10066 0.42101 0.0
H1871 H 0.51433 0.11933 0.36866 0.0
H1872 H 0.54655 0.12287 0.39855 0.0
H1873 H 0.50999 0.14138 0.472 0.0
H1874 H 0.50544 0.12194 0.49369 0.0
H1875 H 0.48265 0.1234 0.47236 0.0
H1876 H 0.47232 0.07883 0.45403 0.0
H1877 H 0.49191 0.07161 0.47536 0.0
H1878 H 0.49307 0.06295 0.44401 0.0
H1879 H 0.57275 0.11446 0.43028 0.0
H1880 H 0.59125 0.0981 0.4624 0.0
H1881 H 0.53017 0.08383 0.49388 0.0
C1882 C 0.48681 0.10662 0.41623 0.0
C1883 C 0.48996 0.10971 0.39267 0.0
C1884 C 0.51162 0.1172 0.38678 0.0
C1885 C 0.53002 0.11917 0.40363 0.0
C1886 C 0.52635 0.11422 0.42633 0.0
C1887 C 0.50529 0.10881 0.43285 0.0
C1888 C 0.50568 0.10221 0.45756 0.0
C1889 C 0.50055 0.12334 0.47492 0.0
C1890 C 0.48981 0.07748 0.45776 0.0
C1891 C 0.52965 0.10082 0.46233 0.0
C1892 C 0.54154 0.10915 0.4447 0.0
C1893 C 0.56373 0.10841 0.44444 0.0
C1894 C 0.57402 0.09886 0.4626 0.0
C1895 C 0.56193 0.08943 0.48029 0.0
C1896 C 0.53957 0.09069 0.48033 0.0
H1897 H 0.76945 0.72148 0.08897 0.0
H1898 H 0.82385 0.7705 0.06657 0.0
H1899 H 0.83331 0.79343 0.10791 0.0
H1900 H 0.75352 0.7684 0.13137 0.0
H1901 H 0.7466 0.74812 0.15246 0.0
H1902 H 0.74373 0.73592 0.12104 0.0
H1903 H 0.76905 0.70632 0.12977 0.0
H1904 H 0.77199 0.7184 0.16119 0.0
H1905 H 0.7962 0.71855 0.14609 0.0
H1906 H 0.83876 0.80898 0.15245 0.0
H1907 H 0.83849 0.81753 0.19616 0.0
H1908 H 0.77906 0.76057 0.18995 0.0
C1909 C 0.78326 0.73717 0.09272 0.0
C1910 C 0.79594 0.74414 0.07439 0.0
C1911 C 0.81384 0.7648 0.08016 0.0
C1912 C 0.81935 0.77793 0.10365 0.0
C1913 C 0.80664 0.77047 0.12129 0.0
C1914 C 0.7888 0.75072 0.11607 0.0
C1915 C 0.77793 0.74645 0.13841 0.0
C1916 C 0.75402 0.74993 0.13564 0.0
C1917 C 0.77886 0.72092 0.1442 0.0
C1918 C 0.79264 0.76664 0.1571 0.0
C1919 C 0.80917 0.78018 0.1468 0.0
C1920 C 0.82565 0.79875 0.16057 0.0
C1921 C 0.82537 0.8035 0.18542 0.0
C1922 C 0.80853 0.79011 0.19645 0.0
C1923 C 0.79179 0.77159 0.18197 0.0
H1924 H 0.1621 0.02229 0.68868 0.0
H1925 H 0.12237 0.05683 0.73586 0.0
H1926 H 0.10024 0.0648 0.70096 0.0
H1927 H 0.16129 0.06194 0.64315 0.0
H1928 H 0.15835 0.03776 0.61788 0.0
H1929 H 0.17182 0.03498 0.64638 0.0
H1930 H 0.14448 0.99383 0.6455 0.0
H1931 H 0.13096 0.99648 0.61699 0.0
H1932 H 0.11516 0.99249 0.64162 0.0
H1933 H 0.08253 0.07142 0.66005 0.0
H1934 H 0.06926 0.07252 0.61826 0.0
H1935 H 0.11672 0.03074 0.59419 0.0
C1936 C 0.14873 0.03151 0.69177 0.0
C1937 C 0.14449 0.03893 0.716 0.0
C1938 C 0.12645 0.05076 0.71824 0.0
C1939 C 0.11362 0.0555 0.6982 0.0
C1940 C 0.11817 0.0481 0.67493 0.0
C1941 C 0.13514 0.03599 0.67151 0.0
C1942 C 0.13578 0.02932 0.64425 0.0
C1943 C 0.15814 0.04173 0.63752 0.0
C1944 C 0.13134 1.00136 0.63664 0.0
C1945 C 0.1168 0.03971 0.63298 0.0
C1946 C 0.10714 0.05074 0.65126 0.0
C1947 C 0.08999 0.06253 0.64581 0.0
C1948 C 0.08246 0.06311 0.62161 0.0
C1949 C 0.09134 0.05162 0.60194 0.0
C1950 C 0.10896 0.03957 0.60819 0.0
H1951 H 0.79899 0.37665 0.4461 0.0
H1952 H 0.81753 0.44562 0.42036 0.0
H1953 H 0.82502 0.42349 0.38259 0.0
H1954 H 0.83779 0.3463 0.42007 0.0
H1955 H 0.81918 0.31676 0.41106 0.0
H1956 H 0.81488 0.33752 0.43648 0.0
H1957 H 0.77503 0.33572 0.41746 0.0
H1958 H 0.77899 0.31439 0.39233 0.0
H1959 H 0.77062 0.34224 0.38762 0.0
H1960 H 0.83428 0.39547 0.35021 0.0
H1961 H 0.83488 0.36147 0.31844 0.0
H1962 H 0.8067 0.30915 0.36202 0.0
C1963 C 0.80419 0.38694 0.43225 0.0
C1964 C 0.80775 0.4128 0.43605 0.0
C1965 C 0.81452 0.42579 0.41767 0.0
C1966 C 0.81911 0.41343 0.39631 0.0
C1967 C 0.81635 0.38808 0.39348 0.0
C1968 C 0.80825 0.37479 0.41043 0.0
C1969 C 0.80551 0.34745 0.4019 0.0
C1970 C 0.82022 0.33637 0.41837 0.0
C1971 C 0.78108 0.33417 0.39969 0.0
C1972 C 0.81358 0.34762 0.3776 0.0
C1973 C 0.82029 0.3714 0.37361 0.0
C1974 C 0.82877 0.37675 0.3529 0.0
C1975 C 0.8292 0.35726 0.33505 0.0
C1976 C 0.82066 0.33272 0.33772 0.0
C1977 C 0.81347 0.32772 0.35961 0.0
H1978 H 0.46392 0.08534 0.25915 0.0
H1979 H 0.50415 0.04697 0.29932 0.0
H1980 H 0.52723 0.0438 0.26644 0.0
H1981 H 0.4651 0.05013 0.20088 0.0
H1982 H 0.46626 0.07626 0.18596 0.0
H1983 H 0.45262 0.07487 0.21241 0.0
H1984 H 0.47772 0.11673 0.23253 0.0
H1985 H 0.49139 0.11826 0.20616 0.0
H1986 H 0.50734 0.12056 0.23471 0.0
H1987 H 0.54684 0.04662 0.23 0.0
H1988 H 0.56106 0.05443 0.1921 0.0
H1989 H 0.50738 0.0902 0.1759 0.0
C1990 C 0.47756 0.07623 0.26101 0.0
C1991 C 0.48236 0.06648 0.28173 0.0
C1992 C 0.50025 0.05457 0.28352 0.0
C1993 C 0.51341 0.05266 0.26497 0.0
C1994 C 0.50826 0.06256 0.24477 0.0
C1995 C 0.4907 0.07399 0.24263 0.0
C1996 C 0.48881 0.08336 0.21924 0.0
C1997 C 0.4669 0.07037 0.20371 0.0
C1998 C 0.49148 0.11139 0.22342 0.0
C1999 C 0.5083 0.07582 0.20872 0.0
C2000 C 0.5193 0.0638 0.22366 0.0
C2001 C 0.53829 0.05587 0.21807 0.0
C2002 C 0.54629 0.06049 0.19664 0.0
C2003 C 0.53522 0.07282 0.18117 0.0
C2004 C 0.51593 0.0804 0.18726 0.0
H2005 H 0.79223 0.76216 0.94743 0.0
H2006 H 0.77838 0.68446 0.91838 0.0
H2007 H 0.77983 0.69406 0.87775 0.0
H2008 H 0.7603 0.78019 0.8986 0.0
H2009 H 0.7799 0.80854 0.89899 0.0
H2010 H 0.77724 0.7958 0.92601 0.0
H2011 H 0.81912 0.79642 0.93084 0.0
H2012 H 0.82189 0.80915 0.90384 0.0
H2013 H 0.83084 0.7812 0.90674 0.0
H2014 H 0.78291 0.71186 0.83988 0.0
H2015 H 0.78989 0.73654 0.80782 0.0
H2016 H 0.8009 0.80305 0.86022 0.0
C2017 C 0.78939 0.74719 0.93251 0.0
C2018 C 0.78512 0.72246 0.93633 0.0
C2019 C 0.78165 0.70351 0.91616 0.0
C2020 C 0.7824 0.70878 0.89288 0.0
C2021 C 0.78664 0.73321 0.8897 0.0
C2022 C 0.79012 0.75216 0.90893 0.0
C2023 C 0.79487 0.77682 0.90039 0.0
C2024 C 0.77701 0.79119 0.90636 0.0
C2025 C 0.81806 0.79178 0.91109 0.0
C2026 C 0.79365 0.76872 0.87349 0.0
C2027 C 0.7888 0.74347 0.86776 0.0
C2028 C 0.78706 0.73162 0.84417 0.0
C2029 C 0.79084 0.74581 0.82602 0.0
C2030 C 0.7958 0.77174 0.83131 0.0
C2031 C 0.79703 0.78325 0.85546 0.0
H2032 H 0.85244 0.10362 0.04641 0.0
H2033 H 0.86226 0.16213 1.00439 0.0
H2034 H 0.89607 0.15009 0.99206 0.0
H2035 H 0.91126 0.10819 0.06609 0.0
H2036 H 0.90776 0.07548 0.0641 0.0
H2037 H 0.88529 0.08994 0.07101 0.0
H2038 H 0.85996 0.06089 0.03524 0.0
H2039 H 0.88238 0.0465 0.02809 0.0
H2040 H 0.86848 0.05959 1.0058 0.0
H2041 H 0.92702 0.12982 0.98191 0.0
H2042 H 0.9544 0.10392 0.97647 0.0
H2043 H 0.92437 0.0589 0.02525 0.0
C2044 C 0.86191 0.11413 0.03493 0.0
C2045 C 0.85482 0.13379 0.02635 0.0
C2046 C 0.8675 0.14703 0.0112 0.0
C2047 C 0.88668 0.14033 1.00409 0.0
C2048 C 0.89298 0.12051 0.01245 0.0
C2049 C 0.88112 0.10776 0.02773 0.0
C2050 C 0.89103 0.08665 0.03348 0.0
C2051 C 0.89933 0.0903 0.06026 0.0
C2052 C 0.87447 0.06196 0.02514 0.0
C2053 C 0.91004 0.08925 0.01867 0.0
C2054 C 0.91092 0.10892 1.00672 0.0
C2055 C 0.92662 0.11447 0.99131 0.0
C2056 C 0.94195 0.09958 0.98818 0.0
C2057 C 0.9414 0.07949 1.00044 0.0
C2058 C 0.92525 0.07433 0.01587 0.0
H2059 H 0.40287 0.4678 0.06911 0.0
H2060 H 0.41188 0.39938 0.02994 0.0
H2061 H 0.44943 0.41983 0.02375 0.0
H2062 H 0.43123 0.50761 0.0338 0.0
H2063 H 0.44403 0.53154 0.05853 0.0
H2064 H 0.41809 0.51143 0.06058 0.0
H2065 H 0.43514 0.49968 0.09917 0.0
H2066 H 0.46112 0.51986 0.09729 0.0
H2067 H 0.46004 0.48802 0.09886 0.0
H2068 H 0.48506 0.44864 0.01894 0.0
H2069 H 0.51703 0.48277 0.019 0.0
H2070 H 0.48641 0.5319 0.06363 0.0
C2071 C 0.41284 0.45708 0.05944 0.0
C2072 C 0.40435 0.43192 0.05 0.0
C2073 C 0.41798 0.41859 0.03745 0.0
C2074 C 0.43935 0.43009 0.03377 0.0
C2075 C 0.44713 0.45494 0.04304 0.0
C2076 C 0.43443 0.46821 0.05594 0.0
C2077 C 0.44681 0.49468 0.06407 0.0
C2078 C 0.43429 0.51236 0.05361 0.0
C2079 C 0.45103 0.50092 0.09148 0.0
C2080 C 0.46824 0.49434 0.05335 0.0
C2081 C 0.46803 0.47125 0.04115 0.0
C2082 C 0.48548 0.46671 0.02869 0.0
C2083 C 0.50356 0.48622 0.02872 0.0
C2084 C 0.50433 0.50991 0.0414 0.0
C2085 C 0.48645 0.51389 0.05403 0.0
H2086 H 0.42382 0.66839 0.78588 0.0
H2087 H 0.37245 0.60998 0.74427 0.0
H2088 H 0.34814 0.63912 0.74147 0.0
H2089 H 0.38612 0.70039 0.81892 0.0
H2090 H 0.40145 0.73099 0.81849 0.0
H2091 H 0.41551 0.70597 0.81758 0.0
H2092 H 0.43066 0.71628 0.7789 0.0
H2093 H 0.41663 0.74132 0.77972 0.0
H2094 H 0.4117 0.71779 0.7536 0.0
H2095 H 0.32778 0.67532 0.7426 0.0
H2096 H 0.314 0.71318 0.74751 0.0
H2097 H 0.37647 0.75219 0.78866 0.0
C2098 C 0.40746 0.66156 0.77612 0.0
C2099 C 0.4007 0.63573 0.76525 0.0
C2100 C 0.3788 0.62883 0.75287 0.0
C2101 C 0.36457 0.64562 0.75115 0.0
C2102 C 0.37163 0.67043 0.76186 0.0
C2103 C 0.39265 0.67852 0.77418 0.0
C2104 C 0.39571 0.70648 0.78398 0.0
C2105 C 0.39997 0.71125 0.81137 0.0
C2106 C 0.41482 0.72136 0.77343 0.0
C2107 C 0.37332 0.71277 0.77532 0.0
C2108 C 0.35982 0.69138 0.76255 0.0
C2109 C 0.33846 0.69193 0.75265 0.0
C2110 C 0.33061 0.71411 0.75566 0.0
C2111 C 0.34343 0.73698 0.76863 0.0
C2112 C 0.36555 0.73577 0.77858 0.0
H2113 H 0.23379 0.58774 0.52429 0.0
H2114 H 0.2529 0.61306 0.60028 0.0
H2115 H 0.21444 0.59772 0.60753 0.0
H2116 H 0.18886 0.6099 0.52107 0.0
H2117 H 0.17152 0.58576 0.49911 0.0
H2118 H 0.20103 0.59118 0.50001 0.0
H2119 H 0.20049 0.54617 0.50477 0.0
H2120 H 0.17077 0.54028 0.50315 0.0
H2121 H 0.18691 0.53363 0.52822 0.0
H2122 H 0.17308 0.58764 0.60557 0.0
H2123 H 0.13263 0.58126 0.59465 0.0
H2124 H 0.1412 0.56553 0.51974 0.0
C2125 C 0.23014 0.58895 0.54257 0.0
C2126 C 0.24625 0.60143 0.56174 0.0
C2127 C 0.24078 0.60329 0.58537 0.0
C2128 C 0.21897 0.59468 0.58964 0.0
C2129 C 0.20304 0.58418 0.57009 0.0
C2130 C 0.20846 0.58088 0.54702 0.0
C2131 C 0.18808 0.57279 0.52879 0.0
C2132 C 0.18735 0.591 0.51124 0.0
C2133 C 0.18647 0.54666 0.51545 0.0
C2134 C 0.17039 0.5734 0.54509 0.0
C2135 C 0.17921 0.57939 0.56886 0.0
C2136 C 0.16596 0.58247 0.58703 0.0
C2137 C 0.14309 0.57904 0.58068 0.0
C2138 C 0.13392 0.57316 0.55638 0.0
C2139 C 0.14778 0.57024 0.53848 0.0
H2140 H 0.7529 0.99726 0.74973 0.0
H2141 H 0.72911 1.01616 0.81767 0.0
H2142 H 0.75643 0.99676 0.8374 0.0
H2143 H 0.76113 0.93869 0.75835 0.0
H2144 H 0.78553 0.94104 0.74333 0.0
H2145 H 0.76467 0.95726 0.73528 0.0
H2146 H 0.79439 0.99796 0.74355 0.0
H2147 H 0.81527 0.98186 0.75206 0.0
H2148 H 0.81076 1.00745 0.77242 0.0
H2149 H 0.7854 0.97359 0.84914 0.0
H2150 H 0.81204 0.94659 0.85138 0.0
H2151 H 0.81663 0.94398 0.77567 0.0
C2152 C 0.75344 0.99736 0.76877 0.0
C2153 C 0.73894 1.00816 0.78221 0.0
C2154 C 0.7401 1.0079 0.80707 0.0
C2155 C 0.75562 0.99708 0.81843 0.0
C2156 C 0.76987 0.98679 0.80465 0.0
C2157 C 0.76881 0.98677 0.78034 0.0
C2158 C 0.78527 0.97368 0.76932 0.0
C2159 C 0.77344 0.95134 0.75047 0.0
C2160 C 0.80244 0.9913 0.75872 0.0
C2161 C 0.79559 0.96601 0.79117 0.0
C2162 C 0.78665 0.97385 0.81143 0.0
C2163 C 0.7927 0.96758 0.83344 0.0
C2164 C 0.80783 0.9523 0.83456 0.0
C2165 C 0.81664 0.94353 0.81379 0.0
C2166 C 0.81076 0.95101 0.79202 0.0
H2167 H 0.77693 0.93155 0.51829 0.0
H2168 H 0.8053 0.95707 0.59225 0.0
H2169 H 0.77563 0.97969 0.59867 0.0
H2170 H 0.76146 0.98806 0.50888 0.0
H2171 H 0.73633 0.97289 0.48968 0.0
H2172 H 0.75955 0.95838 0.49111 0.0
H2173 H 0.7347 0.92005 0.50221 0.0
H2174 H 0.71144 0.9345 0.50095 0.0
H2175 H 0.71977 0.92349 0.52768 0.0
H2176 H 0.74217 0.99864 0.59727 0.0
H2177 H 0.70938 1.01538 0.58737 0.0
H2178 H 0.70349 0.97883 0.51392 0.0
C2179 C 0.77691 0.94193 0.53583 0.0
C2180 C 0.7934 0.94249 0.55482 0.0
C2181 C 0.79287 0.95642 0.57744 0.0
C2182 C 0.77603 0.96924 0.58128 0.0
C2183 C 0.75993 0.96817 0.56224 0.0
C2184 C 0.76037 0.9551 0.53988 0.0
C2185 C 0.74145 0.9575 0.52228 0.0
C2186 C 0.75023 0.96995 0.50178 0.0
C2187 C 0.72592 0.93239 0.51272 0.0
C2188 C 0.73026 0.97391 0.53822 0.0
C2189 C 0.74105 0.97965 0.56126 0.0
C2190 C 0.73363 0.9943 0.57926 0.0
C2191 C 0.71489 1.00359 0.57351 0.0
C2192 C 0.70382 0.99841 0.54989 0.0
C2193 C 0.71165 0.98325 0.5321 0.0
H2194 H 0.37078 0.50171 0.76601 0.0
H2195 H 0.43577 0.48576 0.76255 0.0
H2196 H 0.4202 0.44229 0.76389 0.0
H2197 H 0.35226 0.45916 0.80637 0.0
H2198 H 0.3242 0.44974 0.79187 0.0
H2199 H 0.34029 0.4798 0.79073 0.0
H2200 H 0.3331 0.47083 0.74465 0.0
H2201 H 0.31696 0.44077 0.74568 0.0
H2202 H 0.34009 0.44401 0.72866 0.0
H2203 H 0.39687 0.39834 0.76628 0.0
H2204 H 0.36876 0.36073 0.76816 0.0
H2205 H 0.31825 0.40341 0.76913 0.0
C2206 C 0.38181 0.48914 0.76548 0.0
C2207 C 0.40492 0.49803 0.76413 0.0
C2208 C 0.41822 0.48021 0.76352 0.0
C2209 C 0.40941 0.45512 0.76432 0.0
C2210 C 0.38681 0.44703 0.76567 0.0
C2211 C 0.37313 0.46359 0.76614 0.0
C2212 C 0.34933 0.44992 0.76739 0.0
C2213 C 0.34103 0.46028 0.79046 0.0
C2214 C 0.33396 0.45148 0.74528 0.0
C2215 C 0.35172 0.42332 0.76758 0.0
C2216 C 0.37356 0.42203 0.76668 0.0
C2217 C 0.37977 0.39942 0.76692 0.0
C2218 C 0.36356 0.37788 0.76802 0.0
C2219 C 0.3409 0.37839 0.76877 0.0
C2220 C 0.33524 0.40183 0.76852 0.0
H2221 H 0.26607 0.62847 0.27847 0.0
H2222 H 0.24925 0.61147 0.20155 0.0
H2223 H 0.27397 0.65047 0.19774 0.0
H2224 H 0.26121 0.68599 0.28426 0.0
H2225 H 0.28348 0.69893 0.30802 0.0
H2226 H 0.27012 0.66716 0.30446 0.0
H2227 H 0.30775 0.65467 0.30138 0.0
H2228 H 0.32138 0.68659 0.30527 0.0
H2229 H 0.3249 0.66552 0.27967 0.0
H2230 H 0.29355 0.69438 0.20295 0.0
H2231 H 0.30613 0.73907 0.21672 0.0
H2232 H 0.30929 0.72722 0.29026 0.0
C2233 C 0.2683 0.63249 0.26076 0.0
C2234 C 0.25589 0.61706 0.24031 0.0
C2235 C 0.25879 0.62307 0.21743 0.0
C2236 C 0.27286 0.64512 0.2151 0.0
C2237 C 0.28398 0.66066 0.2358 0.0
C2238 C 0.28206 0.65443 0.25821 0.0
C2239 C 0.29265 0.67569 0.27784 0.0
C2240 C 0.27586 0.68232 0.29459 0.0
C2241 C 0.31288 0.67029 0.29186 0.0
C2242 C 0.29948 0.69532 0.26305 0.0
C2243 C 0.29497 0.68623 0.23885 0.0
C2244 C 0.29769 0.7016 0.22183 0.0
C2245 C 0.30475 0.72694 0.2298 0.0
C2246 C 0.30856 0.73652 0.25454 0.0
C2247 C 0.30652 0.7204 0.27123 0.0
H2248 H 0.56227 0.73081 0.46854 0.0
H2249 H 0.49238 0.70821 0.44205 0.0
H2250 H 0.49028 0.67007 0.45874 0.0
H2251 H 0.57385 0.67083 0.45489 0.0
H2252 H 0.59368 0.67459 0.48097 0.0
H2253 H 0.5896 0.70096 0.46832 0.0
H2254 H 0.58116 0.72128 0.50916 0.0
H2255 H 0.58519 0.69493 0.52193 0.0
H2256 H 0.55963 0.70506 0.52367 0.0
H2257 H 0.49553 0.63407 0.47776 0.0
H2258 H 0.50818 0.60149 0.4958 0.0
H2259 H 0.5752 0.64564 0.50896 0.0
C2260 C 0.5465 0.71793 0.4665 0.0
C2261 C 0.52742 0.72266 0.4541 0.0
C2262 C 0.5072 0.7051 0.45147 0.0
C2263 C 0.50582 0.68336 0.46096 0.0
C2264 C 0.52487 0.67915 0.47293 0.0
C2265 C 0.54489 0.69581 0.47562 0.0
C2266 C 0.56304 0.68607 0.48828 0.0
C2267 C 0.58111 0.68292 0.47215 0.0
C2268 C 0.57283 0.70284 0.51218 0.0
C2269 C 0.55009 0.66135 0.49219 0.0
C2270 C 0.52805 0.65792 0.48338 0.0
C2271 C 0.51275 0.63658 0.48473 0.0
C2272 C 0.52013 0.61814 0.49509 0.0
C2273 C 0.54271 0.62087 0.5039 0.0
C2274 C 0.55783 0.64295 0.50251 0.0
H2275 H 0.66683 0.35086 0.70871 0.0
H2276 H 0.68109 0.32277 0.63821 0.0
H2277 H 0.71675 0.31655 0.65578 0.0
H2278 H 0.72379 0.38376 0.731 0.0
H2279 H 0.72205 0.37703 0.76076 0.0
H2280 H 0.69757 0.37947 0.74266 0.0
H2281 H 0.6781 0.33602 0.74836 0.0
H2282 H 0.70255 0.33342 0.76638 0.0
H2283 H 0.69093 0.31055 0.74043 0.0
H2284 H 0.75023 0.31063 0.68139 0.0
H2285 H 0.78007 0.30926 0.71286 0.0
H2286 H 0.74573 0.34378 0.76632 0.0
C2287 C 0.67755 0.3436 0.69698 0.0
C2288 C 0.67102 0.33733 0.672 0.0
C2289 C 0.68563 0.32786 0.65734 0.0
C2290 C 0.70597 0.32415 0.66718 0.0
C2291 C 0.71185 0.33026 0.6918 0.0
C2292 C 0.69823 0.34013 0.7065 0.0
C2293 C 0.70874 0.34547 0.73238 0.0
C2294 C 0.71331 0.37307 0.74228 0.0
C2295 C 0.69421 0.33047 0.74779 0.0
C2296 C 0.73017 0.33681 0.72991 0.0
C2297 C 0.73157 0.32787 0.70638 0.0
C2298 C 0.74941 0.31786 0.69985 0.0
C2299 C 0.76627 0.31707 0.71782 0.0
C2300 C 0.76539 0.32658 0.74198 0.0
C2301 C 0.74707 0.33665 0.74796 0.0
H2302 H 0.06003 0.36688 0.95686 0.0
H2303 H 1.00234 0.33327 0.98713 0.0
H2304 H 1.00214 0.37331 0.01112 0.0
H2305 H 0.08649 0.40882 0.01214 0.0
H2306 H 0.09729 0.43337 0.99666 0.0
H2307 H 0.09328 0.40194 0.9822 0.0
H2308 H 0.06873 0.41077 0.9468 0.0
H2309 H 0.07265 0.44219 0.96115 0.0
H2310 H 0.04509 0.42365 0.95253 0.0
H2311 H 1.00597 0.41761 0.02888 0.0
H2312 H 1.01562 0.46263 0.04191 0.0
H2313 H 0.07273 0.46745 1.00327 0.0
C2314 C 0.04748 0.36796 0.9687 0.0
C2315 C 0.03115 0.34693 0.97009 0.0
C2316 C 1.01506 0.34907 0.98583 0.0
C2317 C 1.01478 0.37177 0.99951 0.0
C2318 C 0.03096 0.39217 0.99762 0.0
C2319 C 0.04723 0.39046 0.9829 0.0
C2320 C 0.06272 0.41528 0.98429 0.0
C2321 C 0.08635 0.41482 0.99443 0.0
C2322 C 0.06226 0.42345 0.95973 0.0
C2323 C 0.05232 0.43127 1.00168 0.0
C2324 C 0.03392 0.41756 1.009 0.0
C2325 C 0.02059 0.42845 0.02365 0.0
C2326 C 0.02616 0.45401 0.03094 0.0
C2327 C 0.04512 0.46837 0.024 0.0
C2328 C 0.05848 0.45678 1.00938 0.0
H2329 H 0.03589 0.79512 0.16134 0.0
H2330 H 0.07475 0.86328 0.20304 0.0
H2331 H 0.04412 0.86619 0.2273 0.0
H2332 H 0.98336 0.81263 0.16008 0.0
H2333 H 0.96801 0.7826 0.16247 0.0
H2334 H 0.99308 0.78575 0.14862 0.0
H2335 H 1.00921 0.76126 0.17818 0.0
H2336 H 0.98419 0.758 0.1921 0.0
H2337 H 1.0105 0.77136 0.20986 0.0
H2338 H 1.00907 0.86153 0.24713 0.0
H2339 H 0.97272 0.84961 0.26117 0.0
H2340 H 0.95626 0.78501 0.20576 0.0
C2341 C 0.03799 0.81062 0.17563 0.0
C2342 C 0.05778 0.82897 0.18033 0.0
C2343 C 0.05979 0.849 0.19912 0.0
C2344 C 0.04246 0.85081 0.21299 0.0
C2345 C 0.02316 0.83247 0.20783 0.0
C2346 C 0.02083 0.81276 0.1896 0.0
C2347 C 0.99834 0.7956 0.18764 0.0
C2348 C 0.98491 0.79407 0.16325 0.0
C2349 C 1.00071 0.77005 0.19222 0.0
C2350 C 0.98839 0.80868 0.20767 0.0
C2351 C 1.00296 0.82992 0.21908 0.0
C2352 C 0.9975 0.84499 0.23823 0.0
C2353 C 0.97668 0.83813 0.24596 0.0
C2354 C 0.96142 0.81638 0.2346 0.0
C2355 C 0.96751 0.8016 0.2151 0.0
H2356 H 0.51066 0.30654 0.09924 0.0
H2357 H 0.52386 0.3505 0.17018 0.0
H2358 H 0.53398 0.388 0.15259 0.0
H2359 H 0.55566 0.33884 0.07653 0.0
H2360 H 0.54167 0.33652 0.04693 0.0
H2361 H 0.53287 0.31339 0.06468 0.0
H2362 H 0.49305 0.32079 0.06 0.0
H2363 H 0.50168 0.3438 0.04198 0.0
H2364 H 0.48867 0.35135 0.0682 0.0
H2365 H 0.54578 0.4201 0.12775 0.0
H2366 H 0.55715 0.44501 0.0971 0.0
H2367 H 0.53698 0.38007 0.04232 0.0
C2368 C 0.51515 0.32412 0.11102 0.0
C2369 C 0.51634 0.32568 0.13605 0.0
C2370 C 0.52273 0.34894 0.15094 0.0
C2371 C 0.52851 0.37032 0.14112 0.0
C2372 C 0.52776 0.3681 0.1164 0.0
C2373 C 0.52108 0.34562 0.10152 0.0
C2374 C 0.52306 0.34813 0.07569 0.0
C2375 C 0.53928 0.33335 0.06536 0.0
C2376 C 0.50026 0.34057 0.06058 0.0
C2377 C 0.5323 0.37545 0.07845 0.0
C2378 C 0.53476 0.38663 0.10206 0.0
C2379 C 0.54378 0.41159 0.10917 0.0
C2380 C 0.55038 0.42553 0.09167 0.0
C2381 C 0.54802 0.41445 0.06735 0.0
C2382 C 0.53875 0.38909 0.06073 0.0
H2383 H 0.04129 0.30041 0.31908 0.0
H2384 H 0.0795 0.36791 0.3031 0.0
H2385 H 0.0483 0.37066 0.27458 0.0
H2386 H 1.00703 0.27846 0.25661 0.0
H2387 H 0.98299 0.26665 0.27023 0.0
H2388 H 1.01017 0.26594 0.28368 0.0
H2389 H 1.00266 0.28954 0.32351 0.0
H2390 H 0.97571 0.29055 0.31021 0.0
H2391 H 0.99491 0.31865 0.32376 0.0
H2392 H 1.01114 0.37208 0.25677 0.0
H2393 H 0.97141 0.3716 0.25069 0.0
H2394 H 0.9568 0.30214 0.27615 0.0
C2395 C 0.04339 0.31514 0.30875 0.0
C2396 C 0.06274 0.3339 0.3132 0.0
C2397 C 0.0648 0.35327 0.29986 0.0
C2398 C 0.0472 0.35491 0.2835 0.0
C2399 C 0.02781 0.33682 0.28043 0.0
C2400 C 0.02592 0.31702 0.29238 0.0
C2401 C 1.00235 0.30225 0.2889 0.0
C2402 C 1.00053 0.27682 0.27396 0.0
C2403 C 0.9934 0.30017 0.31302 0.0
C2404 C 0.99099 0.31808 0.27503 0.0
C2405 C 1.00602 0.33751 0.26967 0.0
C2406 C 0.99923 0.35649 0.26007 0.0
C2407 C 0.97656 0.35605 0.25663 0.0
C2408 C 0.96097 0.33682 0.26295 0.0
C2409 C 0.96833 0.3171 0.27119 0.0
H2410 H 0.99721 0.69596 0.60497 0.0
H2411 H 0.03882 0.70035 0.67146 0.0
H2412 H 0.04908 0.66168 0.65538 0.0
H2413 H 0.97857 0.62825 0.59227 0.0
H2414 H 0.97935 0.62718 0.56064 0.0
H2415 H 0.97321 0.65352 0.57845 0.0
H2416 H 1.00544 0.68194 0.56361 0.0
H2417 H 1.0116 0.65576 0.54574 0.0
H2418 H 0.03285 0.67603 0.5673 0.0
H2419 H 0.05767 0.62498 0.63063 0.0
H2420 H 0.06477 0.59396 0.59857 0.0
H2421 H 0.01716 0.61359 0.54875 0.0
C2422 C 1.00819 0.68857 0.61628 0.0
C2423 C 0.01721 0.70104 0.63942 0.0
C2424 C 0.0317 0.69099 0.65365 0.0
C2425 C 0.03753 0.66899 0.64473 0.0
C2426 C 0.02853 0.65726 0.62169 0.0
C2427 C 1.01412 0.66666 0.6077 0.0
C2428 C 1.00811 0.65161 0.58291 0.0
C2429 C 0.98334 0.63941 0.57831 0.0
C2430 C 1.01492 0.66727 0.56378 0.0
C2431 C 0.02207 0.63285 0.58485 0.0
C2432 C 0.03347 0.63612 0.60745 0.0
C2433 C 0.0486 0.62201 0.61296 0.0
C2434 C 0.05256 0.6045 0.59469 0.0
C2435 C 0.04153 0.60154 0.5713 0.0
C2436 C 0.0257 0.6154 0.56656 0.0
H2437 H 0.65976 0.81472 0.84749 0.0
H2438 H 0.68439 0.89243 0.87409 0.0
H2439 H 0.71386 0.89314 0.84763 0.0
H2440 H 0.71109 0.79908 0.84455 0.0
H2441 H 0.70222 0.77677 0.81762 0.0
H2442 H 0.68249 0.78325 0.8374 0.0
H2443 H 0.65844 0.79355 0.80231 0.0
H2444 H 0.67832 0.78737 0.78247 0.0
H2445 H 0.67051 0.81659 0.78575 0.0
H2446 H 0.74245 0.88416 0.8207 0.0
H2447 H 0.7681 0.86606 0.79673 0.0
H2448 H 0.72294 0.79486 0.78683 0.0
C2449 C 0.67128 0.83193 0.84768 0.0
C2450 C 0.66995 0.85349 0.86284 0.0
C2451 C 0.68523 0.87569 0.86256 0.0
C2452 C 0.7019 0.8763 0.84753 0.0
C2453 C 0.70274 0.85463 0.83273 0.0
C2454 C 0.68775 0.8329 0.83267 0.0
C2455 C 0.69271 0.81189 0.81604 0.0
C2456 C 0.69742 0.79157 0.82972 0.0
C2457 C 0.67387 0.80176 0.79542 0.0
C2458 C 0.71327 0.82497 0.80728 0.0
C2459 C 0.71875 0.84965 0.81688 0.0
C2460 C 0.73813 0.86494 0.81277 0.0
C2461 C 0.75256 0.8545 0.79908 0.0
C2462 C 0.74748 0.82905 0.78981 0.0
C2463 C 0.72723 0.81442 0.7934 0.0
H2464 H 0.46082 0.54298 0.67709 0.0
H2465 H 0.49803 0.61322 0.71601 0.0
H2466 H 0.52022 0.61798 0.68268 0.0
H2467 H 0.50855 0.52435 0.6506 0.0
H2468 H 0.49318 0.50959 0.6221 0.0
H2469 H 0.47938 0.51123 0.64856 0.0
H2470 H 0.45132 0.53211 0.62836 0.0
H2471 H 0.46504 0.53054 0.60184 0.0
H2472 H 0.46117 0.55961 0.6165 0.0
H2473 H 0.53897 0.61651 0.64385 0.0
H2474 H 0.5532 0.60847 0.60551 0.0
H2475 H 0.5071 0.53783 0.58842 0.0
C2476 C 0.47359 0.55947 0.67871 0.0
C2477 C 0.47703 0.57786 0.70024 0.0
C2478 C 0.4944 0.59872 0.70058 0.0
C2479 C 0.50732 0.60164 0.68135 0.0
C2480 C 0.50357 0.5835 0.6608 0.0
C2481 C 0.48717 0.56262 0.65932 0.0
C2482 C 0.48722 0.54585 0.635 0.0
C2483 C 0.49238 0.52128 0.63932 0.0
C2484 C 0.46485 0.54177 0.61951 0.0
C2485 C 0.50602 0.56049 0.62312 0.0
C2486 C 0.51495 0.58228 0.63858 0.0
C2487 C 0.53198 0.59935 0.63195 0.0
C2488 C 0.54011 0.59447 0.60959 0.0
C2489 C 0.53203 0.57233 0.59277 0.0
C2490 C 0.51439 0.55497 0.6002 0.0
H2491 H 0.77753 0.15784 0.95548 0.0
H2492 H 0.73988 0.19044 1.00663 0.0
H2493 H 0.72572 0.21222 0.97629 0.0
H2494 H 0.79654 0.20797 0.93325 0.0
H2495 H 0.79492 0.19388 0.90248 0.0
H2496 H 0.79759 0.17612 0.92574 0.0
H2497 H 0.76199 0.14441 0.90618 0.0
H2498 H 0.75926 0.16209 0.88265 0.0
H2499 H 0.73673 0.15454 0.89988 0.0
H2500 H 0.7227 0.2371 0.94453 0.0
H2501 H 0.73061 0.26266 0.91369 0.0
H2502 H 0.7684 0.21254 0.88166 0.0
C2503 C 0.76569 0.16888 0.95999 0.0
C2504 C 0.75978 0.17251 0.9833 0.0
C2505 C 0.74454 0.18737 0.98878 0.0
C2506 C 0.7363 0.19969 0.97162 0.0
C2507 C 0.74317 0.19655 0.94901 0.0
C2508 C 0.75725 0.18118 0.94303 0.0
C2509 C 0.76448 0.1835 0.91871 0.0
C2510 C 0.78987 0.19082 0.92016 0.0
C2511 C 0.75504 0.15972 0.90079 0.0
C2512 C 0.75371 0.20396 0.91284 0.0
C2513 C 0.74102 0.21081 0.93023 0.0
C2514 C 0.73194 0.23142 0.93036 0.0
C2515 C 0.7365 0.24582 0.91269 0.0
C2516 C 0.75011 0.23959 0.89521 0.0
C2517 C 0.75799 0.21782 0.89481 0.0
H2518 H 0.16132 0.57744 0.17918 0.0
H2519 H 0.13144 0.51448 0.20951 0.0
H2520 H 0.09877 0.50642 0.17895 0.0
H2521 H 0.11127 0.59772 0.16523 0.0
H2522 H 0.11931 0.60719 0.1379 0.0
H2523 H 0.14012 0.60787 0.16224 0.0
H2524 H 0.15891 0.58086 0.13402 0.0
H2525 H 0.13796 0.57895 0.10945 0.0
H2526 H 0.14354 0.55136 0.11861 0.0
H2527 H 0.06915 0.50596 0.14554 0.0
H2528 H 0.04555 0.51193 0.1105 0.0
H2529 H 0.0955 0.57485 0.10227 0.0
C2530 C 0.14794 0.56191 0.17938 0.0
C2531 C 0.14883 0.54655 0.19663 0.0
C2532 C 0.13102 0.52643 0.19636 0.0
C2533 C 0.11242 0.52176 0.17915 0.0
C2534 C 0.11201 0.53741 0.16247 0.0
C2535 C 0.12933 0.55704 0.16243 0.0
C2536 C 0.12496 0.57104 0.14255 0.0
C2537 C 0.12384 0.59752 0.15259 0.0
C2538 C 0.14236 0.57051 0.1251 0.0
C2539 C 0.10252 0.55608 0.13124 0.0
C2540 C 0.09521 0.5369 0.14308 0.0
C2541 C 0.07471 0.52086 0.13608 0.0
C2542 C 0.06142 0.52443 0.11628 0.0
C2543 C 0.06886 0.54375 0.10379 0.0
C2544 C 0.08956 0.55981 0.11147 0.0
H2545 H 0.81215 0.87624 0.45965 0.0
H2546 H 0.86319 0.84087 0.48535 0.0
H2547 H 0.86426 0.82092 0.44402 0.0
H2548 H 0.78328 0.82438 0.41373 0.0
H2549 H 0.77665 0.84356 0.39277 0.0
H2550 H 0.77956 0.85476 0.4244 0.0
H2551 H 0.80906 0.8925 0.41931 0.0
H2552 H 0.80628 0.88141 0.38769 0.0
H2553 H 0.83303 0.88796 0.40523 0.0
H2554 H 0.86148 0.80677 0.3995 0.0
H2555 H 0.8535 0.79734 0.35557 0.0
H2556 H 0.80276 0.83989 0.35817 0.0
C2557 C 0.82345 0.86415 0.4566 0.0
C2558 C 0.83763 0.86017 0.47588 0.0
C2559 C 0.85212 0.84419 0.47102 0.0
C2560 C 0.85288 0.8328 0.44754 0.0
C2561 C 0.83885 0.83726 0.42896 0.0
C2562 C 0.82421 0.85235 0.43322 0.0
C2563 C 0.81089 0.85399 0.40999 0.0
C2564 C 0.78613 0.84354 0.41024 0.0
C2565 C 0.81507 0.88054 0.40529 0.0
C2566 C 0.82053 0.83775 0.39196 0.0
C2567 C 0.83672 0.82841 0.40333 0.0
C2568 C 0.84868 0.81379 0.39048 0.0
C2569 C 0.84405 0.80858 0.36544 0.0
C2570 C 0.82739 0.81768 0.35326 0.0
C2571 C 0.81539 0.83235 0.36687 0.0
H2572 H 0.45946 0.58567 0.86218 0.0
H2573 H 0.50433 0.55957 0.81597 0.0
H2574 H 0.52669 0.55223 0.85101 0.0
H2575 H 0.50337 0.61738 0.91204 0.0
H2576 H 0.48691 0.60986 0.93541 0.0
H2577 H 0.47369 0.6128 0.90684 0.0
H2578 H 0.44952 0.56923 0.90291 0.0
H2579 H 0.46269 0.56616 0.93145 0.0
H2580 H 0.46259 0.54384 0.90536 0.0
H2581 H 0.54423 0.54516 0.8918 0.0
H2582 H 0.5565 0.54248 0.93345 0.0
H2583 H 0.50372 0.57608 0.95701 0.0
C2584 C 0.47402 0.57846 0.85933 0.0
C2585 C 0.47963 0.57324 0.8353 0.0
C2586 C 0.49915 0.56394 0.83341 0.0
C2587 C 0.51214 0.55957 0.85354 0.0
C2588 C 0.50622 0.56479 0.8766 0.0
C2589 C 0.48773 0.57439 0.87973 0.0
C2590 C 0.48572 0.57897 0.90687 0.0
C2591 C 0.48752 0.60639 0.91582 0.0
C2592 C 0.46382 0.56365 0.91195 0.0
C2593 C 0.50568 0.57029 0.91838 0.0
C2594 C 0.51706 0.56193 0.9003 0.0
C2595 C 0.53543 0.552 0.90589 0.0
C2596 C 0.54239 0.55051 0.93001 0.0
C2597 C 0.53172 0.55925 0.94952 0.0
C2598 C 0.5129 0.5695 0.94317 0.0
H2599 H 0.80279 0.18205 0.12346 0.0
H2600 H 0.80164 0.2321 0.07268 0.0
H2601 H 0.80115 0.26557 0.10546 0.0
H2602 H 0.76684 0.20645 0.16196 0.0
H2603 H 0.7821 0.20293 0.18916 0.0
H2604 H 0.78209 0.18249 0.16175 0.0
H2605 H 0.82493 0.19386 0.1665 0.0
H2606 H 0.82504 0.21405 0.19407 0.0
H2607 H 0.83897 0.22565 0.1704 0.0
H2608 H 0.80049 0.29342 0.14312 0.0
H2609 H 0.80341 0.31529 0.18441 0.0
H2610 H 0.80546 0.24763 0.21117 0.0
C2611 C 0.80253 0.20008 0.1193 0.0
C2612 C 0.80222 0.20451 0.09556 0.0
C2613 C 0.80193 0.22833 0.09077 0.0
C2614 C 0.80151 0.24743 0.10922 0.0
C2615 C 0.80148 0.24241 0.13236 0.0
C2616 C 0.80224 0.21945 0.13756 0.0
C2617 C 0.80278 0.21927 0.16414 0.0
C2618 C 0.78222 0.20174 0.16956 0.0
C2619 C 0.82421 0.21284 0.17438 0.0
C2620 C 0.80234 0.24577 0.173 0.0
C2621 C 0.80135 0.25868 0.15431 0.0
C2622 C 0.80125 0.28355 0.15794 0.0
C2623 C 0.80286 0.29578 0.18142 0.0
C2624 C 0.80467 0.28312 0.20088 0.0
C2625 C 0.80392 0.25769 0.19658 0.0
H2626 H 0.19853 0.58452 0.33487 0.0
H2627 H 0.16038 0.61884 0.28791 0.0
H2628 H 0.14386 0.63638 0.32225 0.0
H2629 H 0.15822 0.56501 0.36743 0.0
H2630 H 0.17503 0.57077 0.39598 0.0
H2631 H 0.18737 0.56537 0.36902 0.0
H2632 H 0.21579 0.60682 0.38191 0.0
H2633 H 0.2035 0.61233 0.40907 0.0
H2634 H 0.20612 0.63466 0.38939 0.0
H2635 H 0.12678 0.64368 0.3594 0.0
H2636 H 0.10991 0.63963 0.39634 0.0
H2637 H 0.15994 0.6019 0.42005 0.0
C2638 C 0.18716 0.59629 0.33196 0.0
C2639 C 0.1807 0.60036 0.30882 0.0
C2640 C 0.16558 0.61558 0.30556 0.0
C2641 C 0.15623 0.62575 0.32498 0.0
C2642 C 0.16248 0.62084 0.34752 0.0
C2643 C 0.17779 0.60669 0.35118 0.0
C2644 C 0.17976 0.60183 0.37658 0.0
C2645 C 0.17478 0.57411 0.37727 0.0
C2646 C 0.20265 0.61468 0.39003 0.0
C2647 C 0.16194 0.61381 0.38607 0.0
C2648 C 0.15263 0.62529 0.36927 0.0
C2649 C 0.13433 0.63538 0.37298 0.0
C2650 C 0.1249 0.63305 0.3941 0.0
C2651 C 0.13369 0.62054 0.41117 0.0
C2652 C 0.15289 0.61158 0.40736 0.0
H2653 H 0.84658 0.87544 0.62835 0.0
H2654 H 0.79056 0.83737 0.57607 0.0
H2655 H 0.77389 0.81594 0.60669 0.0
H2656 H 0.84896 0.82311 0.6588 0.0
H2657 H 0.85646 0.84135 0.68821 0.0
H2658 H 0.8643 0.85438 0.66244 0.0
H2659 H 0.84483 0.88981 0.67478 0.0
H2660 H 0.83679 0.87677 0.70049 0.0
H2661 H 0.8161 0.88282 0.67933 0.0
H2662 H 0.76247 0.79908 0.64212 0.0
H2663 H 0.758 0.7845 0.68008 0.0
H2664 H 0.82139 0.83129 0.71153 0.0
C2665 C 0.83084 0.86252 0.62338 0.0
C2666 C 0.8199 0.85819 0.59958 0.0
C2667 C 0.79937 0.84106 0.59394 0.0
C2668 C 0.78967 0.82882 0.61131 0.0
C2669 C 0.80067 0.83358 0.63447 0.0
C2670 C 0.82092 0.84976 0.64062 0.0
C2671 C 0.82925 0.85066 0.66691 0.0
C2672 C 0.85104 0.84185 0.66922 0.0
C2673 C 0.8319 0.87656 0.68122 0.0
C2674 C 0.81044 0.83257 0.67446 0.0
C2675 C 0.79416 0.82322 0.65529 0.0
C2676 C 0.77514 0.80621 0.65721 0.0
C2677 C 0.77277 0.79804 0.67902 0.0
C2678 C 0.78926 0.80663 0.69902 0.0
C2679 C 0.80834 0.82449 0.69675 0.0
H2680 H 0.77385 0.5153 0.50654 0.0
H2681 H 0.77148 0.46876 0.56077 0.0
H2682 H 0.74481 0.4898 0.57983 0.0
H2683 H 0.76889 0.57099 0.54512 0.0
H2684 H 0.75151 0.57986 0.52245 0.0
H2685 H 0.7716 0.56233 0.51401 0.0
H2686 H 0.74072 0.52909 0.48712 0.0
H2687 H 0.7206 0.54658 0.49535 0.0
H2688 H 0.71683 0.51518 0.49987 0.0
H2689 H 0.71737 0.51457 0.59192 0.0
H2690 H 0.68896 0.53935 0.59453 0.0
H2691 H 0.70923 0.56961 0.53237 0.0
C2692 C 0.76784 0.50968 0.52253 0.0
C2693 C 0.77472 0.49051 0.53227 0.0
C2694 C 0.76636 0.48345 0.55305 0.0
C2695 C 0.75134 0.49536 0.56408 0.0
C2696 C 0.74489 0.51425 0.55405 0.0
C2697 C 0.75276 0.52128 0.53367 0.0
C2698 C 0.74222 0.5411 0.5257 0.0
C2699 C 0.7596 0.56498 0.5269 0.0
C2700 C 0.72932 0.53246 0.50053 0.0
C2701 C 0.72687 0.54377 0.5445 0.0
C2702 C 0.72889 0.52838 0.56089 0.0
C2703 C 0.71578 0.5269 0.57937 0.0
C2704 C 0.69982 0.54115 0.5808 0.0
C2705 C 0.69705 0.55647 0.56373 0.0
C2706 C 0.71105 0.55807 0.54566 0.0
H2707 H 0.22688 0.12687 0.49801 0.0
H2708 H 0.21215 0.19877 0.51551 0.0
H2709 H 0.17309 0.17935 0.5171 0.0
H2710 H 0.17524 0.09838 0.46016 0.0
H2711 H 0.17328 0.06926 0.47008 0.0
H2712 H 0.19999 0.08884 0.47005 0.0
H2713 H 0.20962 0.08792 0.51499 0.0
H2714 H 0.18295 0.06835 0.51516 0.0
H2715 H 0.19145 0.09686 0.53585 0.0
H2716 H 0.13554 0.15181 0.51814 0.0
H2717 H 0.10279 0.11845 0.51761 0.0
H2718 H 0.14157 0.06457 0.49842 0.0
C2719 C 0.21542 0.13854 0.5021 0.0
C2720 C 0.22264 0.1644 0.50664 0.0
C2721 C 0.20706 0.17895 0.51192 0.0
C2722 C 0.18481 0.16807 0.51288 0.0
C2723 C 0.17824 0.14255 0.50839 0.0
C2724 C 0.19308 0.12796 0.50299 0.0
C2725 C 0.1818 0.10097 0.49898 0.0
C2726 C 0.18263 0.08864 0.47329 0.0
C2727 C 0.19207 0.08775 0.51734 0.0
C2728 C 0.15836 0.10263 0.50314 0.0
C2729 C 0.15664 0.12678 0.50859 0.0
C2730 C 0.13673 0.13286 0.51376 0.0
C2731 C 0.11817 0.1138 0.51345 0.0
C2732 C 0.11954 0.08895 0.5079 0.0
C2733 C 0.13993 0.08341 0.50253 0.0
H2734 H 0.24999 0.98379 0.79513 0.0
H2735 H 0.18475 0.9454 0.76061 0.0
H2736 H 0.19758 0.9067 0.75502 0.0
H2737 H 0.28128 0.9476 0.75711 0.0
H2738 H 0.30213 0.94666 0.78084 0.0
H2739 H 0.2883 0.97189 0.78266 0.0
H2740 H 0.2767 0.96332 0.82336 0.0
H2741 H 0.29047 0.93803 0.82162 0.0
H2742 H 0.26166 0.93315 0.8258 0.0
H2743 H 0.2175 0.86986 0.7528 0.0
H2744 H 0.24163 0.84044 0.7539 0.0
H2745 H 0.29599 0.89934 0.78932 0.0
C2746 C 0.23828 0.96731 0.78636 0.0
C2747 C 0.21576 0.96877 0.77838 0.0
C2748 C 0.20177 0.94593 0.76707 0.0
C2749 C 0.20906 0.92338 0.76375 0.0
C2750 C 0.23094 0.92261 0.77167 0.0
C2751 C 0.24546 0.94406 0.7828 0.0
C2752 C 0.26821 0.93763 0.78949 0.0
C2753 C 0.28605 0.9518 0.77678 0.0
C2754 C 0.27466 0.94339 0.81669 0.0
C2755 C 0.26428 0.90953 0.78035 0.0
C2756 C 0.24247 0.90142 0.77021 0.0
C2757 C 0.23455 0.87641 0.76072 0.0
C2758 C 0.24872 0.85947 0.76145 0.0
C2759 C 0.27143 0.86647 0.77151 0.0
C2760 C 0.27905 0.89247 0.78117 0.0
H2761 H 0.38826 0.97516 0.9827 0.0
H2762 H 0.37001 1.0028 0.05142 0.0
H2763 H 0.40939 0.02106 0.06611 0.0
H2764 H 0.43923 0.96 1.00549 0.0
H2765 H 0.45348 0.96932 0.98113 0.0
H2766 H 0.42397 0.95778 0.97655 0.0
H2767 H 0.4187 0.99749 0.96126 0.0
H2768 H 0.44817 1.00913 0.96581 0.0
H2769 H 0.43032 0.02684 0.97981 0.0
H2770 H 0.45095 0.03819 0.07241 0.0
H2771 H 0.49101 0.05164 0.06987 0.0
H2772 H 0.4811 1.01161 0.99727 0.0
C2773 C 0.39255 0.98489 1.00089 0.0
C2774 C 0.37615 0.9876 0.01593 0.0
C2775 C 0.38239 1.00052 0.03961 0.0
C2776 C 0.40468 1.01093 0.04812 0.0
C2777 C 0.42047 1.0081 0.03274 0.0
C2778 C 0.41466 0.99528 1.00967 0.0
C2779 C 0.43463 0.99524 0.99652 0.0
C2780 C 0.43802 0.96902 0.98952 0.0
C2781 C 0.43284 1.00794 0.97456 0.0
C2782 C 0.45257 1.01023 0.01569 0.0
C2783 C 0.44419 0.01754 0.03648 0.0
C2784 C 0.45773 0.03237 0.05628 0.0
C2785 C 0.48042 0.03994 0.05468 0.0
C2786 C 0.48922 0.03254 0.03347 0.0
C2787 C 0.47502 0.01739 0.01388 0.0
H2788 H 0.89092 0.613 0.78586 0.0
H2789 H 0.90548 0.64527 0.86096 0.0
H2790 H 0.87174 0.66212 0.85792 0.0
H2791 H 0.8663 0.66078 0.76477 0.0
H2792 H 0.84578 0.63867 0.74389 0.0
H2793 H 0.87242 0.6322 0.75176 0.0
H2794 H 0.85289 0.5917 0.76423 0.0
H2795 H 0.82623 0.59844 0.75713 0.0
H2796 H 0.83427 0.59277 0.78659 0.0
H2797 H 0.8355 0.67354 0.84675 0.0
H2798 H 0.80159 0.68211 0.82769 0.0
H2799 H 0.80907 0.63783 0.76119 0.0
C2800 C 0.88744 0.62429 0.8015 0.0
C2801 C 0.9009 0.6282 0.82357 0.0
C2802 C 0.89546 0.64242 0.84382 0.0
C2803 C 0.87628 0.65183 0.84229 0.0
C2804 C 0.86274 0.64653 0.82049 0.0
C2805 C 0.86821 0.63327 0.80042 0.0
C2806 C 0.85036 0.62886 0.77949 0.0
C2807 C 0.85925 0.64085 0.75876 0.0
C2808 C 0.84035 0.60131 0.7714 0.0
C2809 C 0.83401 0.64184 0.79084 0.0
C2810 C 0.84143 0.65195 0.81446 0.0
C2811 C 0.82948 0.66564 0.82829 0.0
C2812 C 0.81 0.67014 0.81731 0.0
C2813 C 0.80258 0.66085 0.79278 0.0
C2814 C 0.81435 0.64558 0.77983 0.0
H2815 H 0.85826 0.68215 1.00478 0.0
H2816 H 0.80601 0.62862 0.02522 0.0
H2817 H 0.83238 0.60248 0.03222 0.0
H2818 H 0.8852 0.63782 0.97352 0.0
H2819 H 0.91281 0.65586 0.98323 0.0
H2820 H 0.88999 0.6708 0.98003 0.0
H2821 H 0.90017 0.69299 0.0239 0.0
H2822 H 0.92301 0.6781 0.02724 0.0
H2823 H 0.90233 0.67519 0.04742 0.0
H2824 H 0.86415 0.58221 0.03766 0.0
H2825 H 0.89915 0.56822 0.0398 0.0
H2826 H 0.93158 0.63387 0.01514 0.0
C2827 C 0.85241 0.66493 0.01074 0.0
C2828 C 0.82999 0.6575 0.01449 0.0
C2829 C 0.82302 0.63476 0.02219 0.0
C2830 C 0.83791 0.61976 0.02626 0.0
C2831 C 0.85982 0.62756 0.02244 0.0
C2832 C 0.8671 0.64952 0.01472 0.0
C2833 C 0.89156 0.65324 0.01171 0.0
C2834 C 0.89509 0.6545 0.98557 0.0
C2835 C 0.90506 0.67625 0.02857 0.0
C2836 C 0.89683 0.63 0.01902 0.0
C2837 C 0.87824 0.61557 0.02524 0.0
C2838 C 0.87882 0.59338 0.03287 0.0
C2839 C 0.89889 0.58566 0.03418 0.0
C2840 C 0.91828 0.59996 0.02785 0.0
C2841 C 0.91709 0.62243 0.02003 0.0
H2842 H 0.25385 0.10974 0.78614 0.0
H2843 H 0.1882 0.12447 0.78691 0.0
H2844 H 0.2034 0.16797 0.78553 0.0
H2845 H 0.28304 0.16807 0.82366 0.0
H2846 H 0.30673 0.17161 0.80748 0.0
H2847 H 0.29084 0.1414 0.8084 0.0
H2848 H 0.28495 0.13196 0.76229 0.0
H2849 H 0.30079 0.16216 0.76125 0.0
H2850 H 0.27306 0.15213 0.7459 0.0
H2851 H 0.22635 0.21208 0.78335 0.0
H2852 H 0.2542 0.25001 0.78178 0.0
H2853 H 0.30556 0.20852 0.78326 0.0
C2854 C 0.24261 0.12205 0.78607 0.0
C2855 C 0.21941 0.11279 0.78668 0.0
C2856 C 0.20582 0.13029 0.78652 0.0
C2857 C 0.21441 0.15541 0.7857 0.0
C2858 C 0.23708 0.16386 0.78508 0.0
C2859 C 0.25105 0.14764 0.78537 0.0
C2860 C 0.27486 0.1617 0.78477 0.0
C2861 C 0.28975 0.16062 0.80742 0.0
C2862 C 0.28396 0.15137 0.76222 0.0
C2863 C 0.27212 0.1881 0.78406 0.0
C2864 C 0.25013 0.18897 0.78417 0.0
C2865 C 0.24359 0.21134 0.78334 0.0
C2866 C 0.25964 0.23306 0.78242 0.0
C2867 C 0.28245 0.23298 0.78244 0.0
C2868 C 0.28844 0.20978 0.78329 0.0
H2869 H 0.42456 0.98608 0.31243 0.0
H2870 H 0.40296 1.01155 0.37997 0.0
H2871 H 0.37648 0.97169 0.37656 0.0
H2872 H 0.37256 0.95872 0.28353 0.0
H2873 H 0.38055 0.93331 0.26618 0.0
H2874 H 0.4003 0.96191 0.27573 0.0
H2875 H 0.42738 0.93991 0.29662 0.0
H2876 H 0.40797 0.91108 0.28657 0.0
H2877 H 0.41786 0.92081 0.3179 0.0
H2878 H 0.35076 0.92983 0.36407 0.0
H2879 H 0.3285 0.88923 0.34397 0.0
H2880 H 0.36534 0.89404 0.28325 0.0
C2881 C 0.41478 0.98304 0.32691 0.0
C2882 C 0.41592 1.00168 0.34661 0.0
C2883 C 0.40244 0.99729 0.36487 0.0
C2884 C 0.38734 0.97479 0.36302 0.0
C2885 C 0.38594 0.95717 0.34275 0.0
C2886 C 0.39942 0.96104 0.3251 0.0
C2887 C 0.39354 0.94022 0.30415 0.0
C2888 C 0.3863 0.94909 0.28105 0.0
C2889 C 0.41283 0.92723 0.30115 0.0
C2890 C 0.37436 0.92416 0.31253 0.0
C2891 C 0.37038 0.93398 0.33496 0.0
C2892 C 0.3537 0.92199 0.34649 0.0
C2893 C 0.3411 0.89909 0.33493 0.0
C2894 C 0.34504 0.88887 0.31196 0.0
C2895 C 0.36166 0.90174 0.30057 0.0
H2896 H 0.61532 0.42264 0.62334 0.0
H2897 H 0.58562 0.36253 0.56558 0.0
H2898 H 0.57653 0.39186 0.5406 0.0
H2899 H 0.57646 0.45999 0.61407 0.0
H2900 H 0.59641 0.4888 0.62018 0.0
H2901 H 0.60169 0.46334 0.63368 0.0
H2902 H 0.6388 0.46657 0.61596 0.0
H2903 H 0.63362 0.49206 0.60238 0.0
H2904 H 0.63899 0.46547 0.58424 0.0
H2905 H 0.56742 0.42662 0.52281 0.0
H2906 H 0.56096 0.46564 0.51227 0.0
H2907 H 0.59845 0.50496 0.57934 0.0
C2908 C 0.60714 0.41572 0.60534 0.0
C2909 C 0.60122 0.3901 0.59652 0.0
C2910 C 0.59043 0.38192 0.57286 0.0
C2911 C 0.58514 0.39849 0.55845 0.0
C2912 C 0.59095 0.42345 0.56764 0.0
C2913 C 0.60193 0.4322 0.59041 0.0
C2914 C 0.60593 0.46012 0.59572 0.0
C2915 C 0.59444 0.46855 0.61718 0.0
C2916 C 0.63082 0.47174 0.59982 0.0
C2917 C 0.59506 0.46549 0.5726 0.0
C2918 C 0.58649 0.44393 0.55676 0.0
C2919 C 0.57439 0.44366 0.53488 0.0
C2920 C 0.57079 0.46592 0.52903 0.0
C2921 C 0.57952 0.48835 0.54472 0.0
C2922 C 0.59207 0.48815 0.56672 0.0
H2923 H 0.47989 0.7972 0.35232 0.0
H2924 H 0.44931 0.78313 0.41567 0.0
H2925 H 0.41355 0.78741 0.39601 0.0
H2926 H 0.45039 0.84261 0.33789 0.0
H2927 H 0.44779 0.83258 0.30608 0.0
H2928 H 0.47085 0.82806 0.32504 0.0
H2929 H 0.46059 0.78153 0.30812 0.0
H2930 H 0.43751 0.78592 0.28907 0.0
H2931 H 0.43309 0.76427 0.30934 0.0
H2932 H 0.38081 0.7942 0.36928 0.0
H2933 H 0.35437 0.80205 0.3376 0.0
H2934 H 0.40626 0.81104 0.29181 0.0
C2935 C 0.46566 0.79493 0.36203 0.0
C2936 C 0.46747 0.78979 0.38558 0.0
C2937 C 0.44839 0.78702 0.39763 0.0
C2938 C 0.42797 0.78944 0.3866 0.0
C2939 C 0.42675 0.79461 0.36342 0.0
C2940 C 0.4451 0.79723 0.35125 0.0
C2941 C 0.43943 0.80281 0.32652 0.0
C2942 C 0.45292 0.82801 0.32373 0.0
C2943 C 0.44286 0.78241 0.30712 0.0
C2944 C 0.41509 0.80299 0.32667 0.0
C2945 C 0.40803 0.79825 0.34811 0.0
C2946 C 0.38619 0.7978 0.3524 0.0
C2947 C 0.37125 0.80224 0.33432 0.0
C2948 C 0.37816 0.80698 0.3122 0.0
C2949 C 0.40041 0.80736 0.30849 0.0
H2950 H 0.11138 0.73703 0.12531 0.0
H2951 H 0.08184 0.76397 0.06565 0.0
H2952 H 0.07091 0.72168 0.043 0.0
H2953 H 0.1335 0.69093 0.08855 0.0
H2954 H 0.12853 0.66905 0.10852 0.0
H2955 H 0.13407 0.70143 0.12005 0.0
H2956 H 0.09748 0.69528 0.13895 0.0
H2957 H 0.09182 0.66292 0.12741 0.0
H2958 H 0.07186 0.6807 0.12033 0.0
H2959 H 0.06028 0.67598 0.02821 0.0
H2960 H 0.05451 0.6307 0.02054 0.0
H2961 H 0.09405 0.63347 0.08787 0.0
C2962 C 0.10273 0.734 0.10742 0.0
C2963 C 0.09737 0.7538 0.09727 0.0
C2964 C 0.08618 0.74912 0.07375 0.0
C2965 C 0.07983 0.72514 0.06078 0.0
C2966 C 0.08518 0.706 0.07134 0.0
C2967 C 0.09673 0.71019 0.09396 0.0
C2968 C 0.10081 0.68638 0.10093 0.0
C2969 C 0.12571 0.68699 0.10473 0.0
C2970 C 0.08983 0.68101 0.12323 0.0
C2971 C 0.08943 0.66812 0.07888 0.0
C2972 C 0.08029 0.67982 0.06215 0.0
C2973 C 0.0677 0.66669 0.04101 0.0
C2974 C 0.06445 0.641 0.03682 0.0
C2975 C 0.07411 0.62869 0.05341 0.0
C2976 C 0.08688 0.64249 0.07464 0.0
H2977 H 0.09576 0.30965 0.89554 0.0
H2978 H 0.05505 0.24133 0.85611 0.0
H2979 H 0.08416 0.23763 0.82997 0.0
H2980 H 0.11844 0.33212 0.84476 0.0
H2981 H 0.14545 0.34556 0.86094 0.0
H2982 H 0.12138 0.34289 0.87649 0.0
H2983 H 0.13904 0.31897 0.9055 0.0
H2984 H 0.16312 0.32146 0.88997 0.0
H2985 H 0.14804 0.29174 0.89364 0.0
H2986 H 0.11793 0.24109 0.80825 0.0
H2987 H 0.15335 0.2518 0.79202 0.0
H2988 H 0.17231 0.31824 0.84506 0.0
C2989 C 0.09293 0.29395 0.88134 0.0
C2990 C 0.07302 0.27577 0.87788 0.0
C2991 C 0.07007 0.2555 0.85913 0.0
C2992 C 0.08656 0.25322 0.84419 0.0
C2993 C 0.10601 0.27136 0.84816 0.0
C2994 C 0.10926 0.29138 0.86624 0.0
C2995 C 0.1317 0.30829 0.86663 0.0
C2996 C 0.12908 0.33372 0.86192 0.0
C2997 C 0.14634 0.31022 0.89035 0.0
C2998 C 0.14055 0.29466 0.84596 0.0
C2999 C 0.12545 0.2734 0.83559 0.0
C3000 C 0.12982 0.25777 0.81618 0.0
C3001 C 0.15 0.26411 0.80698 0.0
C3002 C 0.16574 0.28597 0.81707 0.0
C3003 C 0.16085 0.30129 0.837 0.0
H3004 H 0.59659 0.76968 0.92366 0.0
H3005 H 0.63568 0.82607 0.98003 0.0
H3006 H 0.62988 0.79728 1.00873 0.0
H3007 H 0.55624 0.74556 0.95811 0.0
H3008 H 0.55313 0.71408 0.94416 0.0
H3009 H 0.5618 0.73843 0.92771 0.0
H3010 H 0.59685 0.72205 0.91933 0.0
H3011 H 0.58821 0.69752 0.93564 0.0
H3012 H 0.6151 0.71769 0.94397 0.0
H3013 H 0.61781 0.76309 0.03169 0.0
H3014 H 0.60153 0.72557 0.04689 0.0
H3015 H 0.56999 0.69201 0.9754 0.0
C3016 C 0.60422 0.77586 0.94196 0.0
C3017 C 0.61665 0.80005 0.94964 0.0
C3018 C 0.62619 0.80755 0.97377 0.0
C3019 C 0.62296 0.79135 0.99019 0.0
C3020 C 0.61026 0.76775 0.98212 0.0
C3021 C 0.60118 0.75996 0.95853 0.0
C3022 C 0.58755 0.73398 0.95456 0.0
C3023 C 0.56324 0.73297 0.94561 0.0
C3024 C 0.59753 0.7168 0.93736 0.0
C3025 C 0.59007 0.72848 0.97968 0.0
C3026 C 0.60329 0.74813 0.99531 0.0
C3027 C 0.60752 0.74754 0.0196 0.0
C3028 C 0.59806 0.72624 0.02809 0.0
C3029 C 0.5845 0.70587 0.01234 0.0
C3030 C 0.58053 0.70713 0.98783 0.0
H3031 H 0.06018 0.77439 0.72846 0.0
H3032 H 0.06858 0.83303 0.68674 0.0
H3033 H 0.10849 0.84411 0.70115 0.0
H3034 H 0.10722 0.80464 0.77904 0.0
H3035 H 0.11433 0.77544 0.78035 0.0
H3036 H 0.08591 0.77691 0.77276 0.0
H3037 H 0.08382 0.74606 0.7338 0.0
H3038 H 0.11216 0.74474 0.74099 0.0
H3039 H 0.10332 0.75311 0.71297 0.0
H3040 H 0.14751 0.84264 0.71204 0.0
H3041 H 0.18259 0.82926 0.71929 0.0
H3042 H 0.14915 0.77086 0.75311 0.0
C3043 C 0.07026 0.79033 0.72334 0.0
C3044 C 0.06137 0.80305 0.70674 0.0
C3045 C 0.07512 0.82323 0.69966 0.0
C3046 C 0.09779 0.82969 0.70782 0.0
C3047 C 0.10635 0.81585 0.72312 0.0
C3048 C 0.09296 0.79675 0.73108 0.0
C3049 C 0.10654 0.78215 0.74407 0.0
C3050 C 0.10331 0.78497 0.77064 0.0
C3051 C 0.10114 0.75493 0.73223 0.0
C3052 C 0.12958 0.79495 0.74074 0.0
C3053 C 0.12917 0.81475 0.72918 0.0
C3054 C 0.14813 0.82761 0.72164 0.0
C3055 C 0.1679 0.81975 0.72561 0.0
C3056 C 0.16847 0.79912 0.73682 0.0
C3057 C 0.14921 0.78705 0.74503 0.0
H3058 H 0.07706 0.41077 0.40585 0.0
H3059 H 0.14553 0.41319 0.43097 0.0
H3060 H 0.14741 0.45214 0.45792 0.0
H3061 H 0.08219 0.47886 0.41096 0.0
H3062 H 0.05546 0.47707 0.42124 0.0
H3063 H 0.06054 0.45181 0.40083 0.0
H3064 H 0.04843 0.42235 0.43031 0.0
H3065 H 0.04328 0.44742 0.45068 0.0
H3066 H 0.0619 0.42927 0.46063 0.0
H3067 H 0.14055 0.48664 0.48586 0.0
H3068 H 0.12491 0.5137 0.51431 0.0
H3069 H 0.06093 0.48992 0.47121 0.0
C3070 C 0.0926 0.41986 0.4166 0.0
C3071 C 0.1112 0.40912 0.4163 0.0
C3072 C 0.13112 0.42119 0.43094 0.0
C3073 C 0.13239 0.44339 0.44614 0.0
C3074 C 0.11363 0.4533 0.44636 0.0
C3075 C 0.0941 0.44198 0.43196 0.0
C3076 C 0.07565 0.45494 0.43765 0.0
C3077 C 0.06802 0.46635 0.4164 0.0
C3078 C 0.05618 0.43745 0.44528 0.0
C3079 C 0.08759 0.47455 0.45832 0.0
C3080 C 0.10962 0.47357 0.46267 0.0
C3081 C 0.1235 0.48798 0.48234 0.0
C3082 C 0.11447 0.5032 0.49841 0.0
C3083 C 0.09186 0.50389 0.49466 0.0
C3084 C 0.07841 0.49008 0.474 0.0
H3085 H 0.46164 0.27595 0.22107 0.0
H3086 H 0.44019 0.20926 0.16879 0.0
H3087 H 0.4051 0.19982 0.18639 0.0
H3088 H 0.43581 0.25162 0.2712 0.0
H3089 H 0.4288 0.28042 0.28179 0.0
H3090 H 0.45313 0.27998 0.26698 0.0
H3091 H 0.43896 0.30473 0.23631 0.0
H3092 H 0.41481 0.30541 0.25113 0.0
H3093 H 0.41184 0.29327 0.21969 0.0
H3094 H 0.3706 0.20071 0.20689 0.0
H3095 H 0.33981 0.21285 0.22683 0.0
H3096 H 0.38526 0.27811 0.26617 0.0
C3097 C 0.44971 0.25917 0.21351 0.0
C3098 C 0.4535 0.24336 0.19357 0.0
C3099 C 0.43752 0.2216 0.18413 0.0
C3100 C 0.41765 0.21603 0.19409 0.0
C3101 C 0.41431 0.23223 0.21368 0.0
C3102 C 0.43003 0.25328 0.22333 0.0
C3103 C 0.42196 0.2688 0.24303 0.0
C3104 C 0.43574 0.27027 0.26718 0.0
C3105 C 0.42188 0.29455 0.23717 0.0
C3106 C 0.39881 0.25383 0.24226 0.0
C3107 C 0.39472 0.23256 0.22557 0.0
C3108 C 0.37374 0.21707 0.22032 0.0
C3109 C 0.35637 0.22405 0.23178 0.0
C3110 C 0.36018 0.24642 0.248 0.0
C3111 C 0.38184 0.26085 0.25391 0.0
H3112 H 0.6671 0.56219 0.37664 0.0
H3113 H 0.61966 0.5023 0.33157 0.0
H3114 H 0.59665 0.49919 0.36439 0.0
H3115 H 0.66086 0.53874 0.43375 0.0
H3116 H 0.66263 0.56823 0.45179 0.0
H3117 H 0.67616 0.56609 0.42516 0.0
H3118 H 0.65515 0.59647 0.4092 0.0
H3119 H 0.64156 0.59869 0.43578 0.0
H3120 H 0.62538 0.59003 0.40678 0.0
H3121 H 0.57782 0.50115 0.40337 0.0
H3122 H 0.56483 0.50878 0.44255 0.0
H3123 H 0.62159 0.56913 0.46584 0.0
C3124 C 0.6519 0.5483 0.37355 0.0
C3125 C 0.64583 0.53231 0.35039 0.0
C3126 C 0.62539 0.51486 0.34824 0.0
C3127 C 0.61195 0.51292 0.36718 0.0
C3128 C 0.61829 0.52868 0.38931 0.0
C3129 C 0.6378 0.54625 0.39265 0.0
C3130 C 0.64019 0.56109 0.41846 0.0
C3131 C 0.66122 0.55839 0.43316 0.0
C3132 C 0.64061 0.58819 0.4175 0.0
C3133 C 0.61918 0.54918 0.42904 0.0
C3134 C 0.607 0.53035 0.41165 0.0
C3135 C 0.58738 0.51602 0.41679 0.0
C3136 C 0.57999 0.52063 0.43963 0.0
C3137 C 0.59142 0.53984 0.45844 0.0
C3138 C 0.61165 0.55444 0.45249 0.0
H3139 H 0.2885 0.8967 0.0369 0.0
H3140 H 0.28529 0.97017 0.06892 0.0
H3141 H 0.28149 0.95647 0.10786 0.0
H3142 H 0.2501 0.86309 0.07573 0.0
H3143 H 0.26655 0.84029 0.07639 0.0
H3144 H 0.26384 0.85455 0.05033 0.0
H3145 H 0.30653 0.86747 0.0533 0.0
H3146 H 0.30939 0.8536 0.0794 0.0
H3147 H 0.32197 0.8855 0.08062 0.0
H3148 H 0.28684 0.93731 0.14417 0.0
H3149 H 0.29872 0.91387 0.17424 0.0
H3150 H 0.29556 0.85194 0.11813 0.0
C3151 C 0.2862 0.90966 0.05195 0.0
C3152 C 0.28718 0.93441 0.05008 0.0
C3153 C 0.28437 0.95103 0.07007 0.0
C3154 C 0.28218 0.9434 0.0922 0.0
C3155 C 0.28225 0.919 0.09374 0.0
C3156 C 0.2837 0.90224 0.07397 0.0
C3157 C 0.28594 0.8779 0.08069 0.0
C3158 C 0.26537 0.85777 0.07016 0.0
C3159 C 0.30722 0.87073 0.07306 0.0
C3160 C 0.28719 0.8841 0.10751 0.0
C3161 C 0.28464 0.90772 0.11473 0.0
C3162 C 0.28811 0.91852 0.13875 0.0
C3163 C 0.29484 0.90503 0.15573 0.0
C3164 C 0.2981 0.88104 0.14854 0.0
C3165 C 0.29335 0.87026 0.1242 0.0
H3166 H 1.00237 0.60138 0.89216 0.0
H3167 H 0.9443 0.54698 0.89997 0.0
H3168 H 0.96581 0.53281 0.93092 0.0
H3169 H 0.04265 0.56693 0.9011 0.0
H3170 H 0.06322 0.59112 0.91969 0.0
H3171 H 0.04357 0.59847 0.89825 0.0
H3172 H 0.03102 0.62697 0.93167 0.0
H3173 H 0.05102 0.62018 0.95312 0.0
H3174 H 0.0223 0.61516 0.95776 0.0
H3175 H 0.99346 0.5199 0.95517 0.0
H3176 H 0.02442 0.51612 0.98279 0.0
H3177 H 0.06479 0.58212 0.96572 0.0
C3178 C 0.9942 0.58684 0.9008 0.0
C3179 C 0.97175 0.5751 0.89352 0.0
C3180 C 0.96146 0.55625 0.90523 0.0
C3181 C 0.97356 0.54788 0.92271 0.0
C3182 C 0.99578 0.55902 0.92877 0.0
C3183 C 1.00593 0.57871 0.91907 0.0
C3184 C 0.02992 0.58779 0.93016 0.0
C3185 C 0.04577 0.58596 0.91116 0.0
C3186 C 0.03379 0.61409 0.944 0.0
C3187 C 0.0316 0.56955 0.94695 0.0
C3188 C 1.01169 0.55288 0.9452 0.0
C3189 C 1.00897 0.53323 0.95736 0.0
C3190 C 0.02674 0.53123 0.97294 0.0
C3191 C 0.04674 0.54925 0.9769 0.0
C3192 C 0.04956 0.5683 0.9632 0.0
H3193 H 0.3181 0.22277 0.59364 0.0
H3194 H 0.27697 0.26697 0.56346 0.0
H3195 H 0.27603 0.28917 0.60395 0.0
H3196 H 0.29253 0.21682 0.6463 0.0
H3197 H 0.3178 0.21951 0.66562 0.0
H3198 H 0.31593 0.20756 0.63428 0.0
H3199 H 0.35032 0.24067 0.63062 0.0
H3200 H 0.35234 0.25268 0.66201 0.0
H3201 H 0.35053 0.27257 0.64029 0.0
H3202 H 0.2769 0.30422 0.64809 0.0
H3203 H 0.28222 0.31366 0.69215 0.0
H3204 H 0.32507 0.26208 0.69433 0.0
C3205 C 0.3091 0.23731 0.59553 0.0
C3206 C 0.29758 0.2431 0.57524 0.0
C3207 C 0.28601 0.26225 0.57859 0.0
C3208 C 0.28533 0.27493 0.60159 0.0
C3209 C 0.2966 0.26859 0.6212 0.0
C3210 C 0.30858 0.25049 0.61841 0.0
C3211 C 0.31927 0.24736 0.64253 0.0
C3212 C 0.31088 0.22126 0.64747 0.0
C3213 C 0.34462 0.2537 0.64394 0.0
C3214 C 0.3111 0.26618 0.65935 0.0
C3215 C 0.29792 0.27808 0.64662 0.0
C3216 C 0.28745 0.29525 0.65817 0.0
C3217 C 0.29052 0.30044 0.68327 0.0
C3218 C 0.30422 0.28884 0.69682 0.0
C3219 C 0.31478 0.27159 0.68454 0.0
H3220 H 0.62922 0.55859 0.21824 0.0
H3221 H 0.66323 0.50098 0.19571 0.0
H3222 H 0.64693 0.49826 0.15407 0.0
H3223 H 0.57849 0.53505 0.17514 0.0
H3224 H 0.57549 0.56471 0.16909 0.0
H3225 H 0.58898 0.56196 0.1976 0.0
H3226 H 0.62344 0.59347 0.19165 0.0
H3227 H 0.61005 0.59631 0.16314 0.0
H3228 H 0.63665 0.58823 0.16511 0.0
H3229 H 0.62594 0.50066 0.11335 0.0
H3230 H 0.60509 0.50962 0.07829 0.0
H3231 H 0.58489 0.56787 0.12338 0.0
C3232 C 0.63317 0.54523 0.20462 0.0
C3233 C 0.64778 0.52971 0.21125 0.0
C3234 C 0.65233 0.51305 0.19205 0.0
C3235 C 0.64298 0.51135 0.16796 0.0
C3236 C 0.62889 0.5267 0.16212 0.0
C3237 C 0.62412 0.54358 0.1799 0.0
C3238 C 0.609 0.55846 0.16817 0.0
C3239 C 0.58666 0.55484 0.1781 0.0
C3240 C 0.62046 0.58575 0.17227 0.0
C3241 C 0.60595 0.54729 0.14123 0.0
C3242 C 0.61751 0.52879 0.13842 0.0
C3243 C 0.61703 0.51525 0.11564 0.0
C3244 C 0.60484 0.52054 0.09546 0.0
C3245 C 0.59285 0.53959 0.09697 0.0
C3246 C 0.59368 0.5532 0.12076 0.0
H3247 H 0.31918 0.91895 0.91121 0.0
H3248 H 0.2811 0.87497 0.95574 0.0
H3249 H 0.27823 0.83786 0.92568 0.0
H3250 H 0.28827 0.88768 0.85561 0.0
H3251 H 0.31203 0.89023 0.83955 0.0
H3252 H 0.31174 0.91295 0.86511 0.0
H3253 H 0.34832 0.90484 0.88457 0.0
H3254 H 0.34852 0.88182 0.85916 0.0
H3255 H 0.34969 0.87414 0.88874 0.0
H3256 H 0.27866 0.80552 0.88989 0.0
H3257 H 0.28031 0.78164 0.85016 0.0
H3258 H 0.31825 0.84712 0.82997 0.0
C3259 C 0.31028 0.90151 0.91465 0.0
C3260 C 0.30039 0.89981 0.93578 0.0
C3261 C 0.28878 0.87668 0.93961 0.0
C3262 C 0.28716 0.85548 0.92272 0.0
C3263 C 0.29724 0.85773 0.90211 0.0
C3264 C 0.30844 0.8802 0.89796 0.0
C3265 C 0.31698 0.87789 0.87396 0.0
C3266 C 0.30663 0.89308 0.8576 0.0
C3267 C 0.34239 0.8851 0.87679 0.0
C3268 C 0.30869 0.85068 0.86521 0.0
C3269 C 0.29748 0.83924 0.88168 0.0
C3270 C 0.28756 0.81425 0.87691 0.0
C3271 C 0.28865 0.80079 0.85441 0.0
C3272 C 0.29948 0.81252 0.83714 0.0
C3273 C 0.31002 0.83759 0.84293 0.0
H3274 H 0.98244 0.58259 0.76468 0.0
H3275 H 0.96611 0.51175 0.78736 0.0
H3276 H 0.97935 0.49252 0.7515 0.0
H3277 H 0.96516 0.56151 0.70353 0.0
H3278 H 0.98717 0.58176 0.69316 0.0
H3279 H 0.97818 0.59074 0.7216 0.0
H3280 H 0.01813 0.59721 0.74266 0.0
H3281 H 0.02732 0.58868 0.7142 0.0
H3282 H 0.03266 0.57265 0.73842 0.0
H3283 H 0.99098 0.48029 0.71191 0.0
H3284 H 1.00418 0.47635 0.67239 0.0
H3285 H 1.01431 0.5552 0.67576 0.0
C3286 C 0.98214 0.56315 0.76234 0.0
C3287 C 0.97331 0.54865 0.77877 0.0
C3288 C 0.97287 0.5232 0.77499 0.0
C3289 C 0.98028 0.51209 0.75465 0.0
C3290 C 0.98821 0.52671 0.73839 0.0
C3291 C 0.98954 0.55173 0.74211 0.0
C3292 C 0.99826 0.56302 0.72143 0.0
C3293 C 0.98117 0.57496 0.70922 0.0
C3294 C 0.02041 0.58148 0.72968 0.0
C3295 C 1.0013 0.54036 0.70543 0.0
C3296 C 0.99533 0.51963 0.71555 0.0
C3297 C 0.99606 0.49642 0.70392 0.0
C3298 C 1.00362 0.49439 0.68152 0.0
C3299 C 1.01047 0.51547 0.67106 0.0
C3300 C 1.00903 0.5387 0.68315 0.0
H3301 H 0.31585 0.25418 0.44823 0.0
H3302 H 0.27464 0.18213 0.42015 0.0
H3303 H 0.27672 0.19051 0.37912 0.0
H3304 H 0.29269 0.28603 0.4051 0.0
H3305 H 0.31872 0.30587 0.40276 0.0
H3306 H 0.31428 0.29419 0.43005 0.0
H3307 H 0.34923 0.27611 0.4277 0.0
H3308 H 0.35375 0.28771 0.40038 0.0
H3309 H 0.35154 0.25555 0.40118 0.0
H3310 H 0.28317 0.20673 0.3405 0.0
H3311 H 0.29317 0.23001 0.3079 0.0
H3312 H 0.32988 0.2915 0.3604 0.0
C3313 C 0.30727 0.24017 0.43345 0.0
C3314 C 0.29505 0.21742 0.43763 0.0
C3315 C 0.28411 0.19968 0.41763 0.0
C3316 C 0.2852 0.20427 0.39414 0.0
C3317 C 0.29734 0.22677 0.39061 0.0
C3318 C 0.30819 0.24447 0.40971 0.0
C3319 C 0.31999 0.26719 0.40088 0.0
C3320 C 0.31087 0.28965 0.41026 0.0
C3321 C 0.34512 0.27191 0.40796 0.0
C3322 C 0.31397 0.25956 0.37395 0.0
C3323 C 0.30093 0.23613 0.36839 0.0
C3324 C 0.29329 0.22513 0.34469 0.0
C3325 C 0.29894 0.23846 0.32626 0.0
C3326 C 0.31208 0.26257 0.33148 0.0
C3327 C 0.31978 0.27309 0.35573 0.0
H3328 H 0.35329 0.60604 0.54903 0.0
H3329 H 0.34717 0.64189 0.48726 0.0
H3330 H 0.3757 0.62248 0.47012 0.0
H3331 H 0.41215 0.6121 0.55343 0.0
H3332 H 0.41133 0.58264 0.56231 0.0
H3333 H 0.39028 0.59921 0.56951 0.0
H3334 H 0.36004 0.56168 0.54821 0.0
H3335 H 0.38101 0.54506 0.54081 0.0
H3336 H 0.36114 0.54908 0.51753 0.0
H3337 H 0.40476 0.59917 0.45973 0.0
H3338 H 0.43389 0.5753 0.45783 0.0
H3339 H 0.42074 0.5545 0.52625 0.0
C3340 C 0.358 0.60985 0.53193 0.0
C3341 C 0.34807 0.62543 0.51944 0.0
C3342 C 0.35464 0.63001 0.49712 0.0
C3343 C 0.37075 0.61902 0.48721 0.0
C3344 C 0.38009 0.60356 0.49988 0.0
C3345 C 0.37406 0.59908 0.52181 0.0
C3346 C 0.38689 0.58205 0.53193 0.0
C3347 C 0.401 0.59477 0.5557 0.0
C3348 C 0.37134 0.55804 0.53478 0.0
C3349 C 0.40115 0.57775 0.51232 0.0
C3350 C 0.39688 0.59019 0.49392 0.0
C3351 C 0.40819 0.58925 0.47397 0.0
C3352 C 0.42457 0.57551 0.47296 0.0
C3353 C 0.42948 0.56299 0.49184 0.0
C3354 C 0.4174 0.56398 0.51161 0.0
H3355 H 0.89629 0.97179 0.53296 0.0
H3356 H 0.92174 0.91684 0.56577 0.0
H3357 H 0.95984 0.94033 0.56625 0.0
H3358 H 0.93893 0.98357 0.49478 0.0
H3359 H 0.94007 1.01603 0.4982 0.0
H3360 H 0.9147 0.99517 0.5008 0.0
H3361 H 0.91344 0.01937 0.54272 0.0
H3362 H 0.93876 0.04035 0.5402 0.0
H3363 H 0.93686 0.02442 0.56533 0.0
H3364 H 0.99569 0.96963 0.56239 0.0
H3365 H 0.0259 1.00263 0.55543 0.0
H3366 H 0.97752 0.03901 0.52552 0.0
C3367 C 0.90989 0.96472 0.54028 0.0
C3368 C 0.90593 0.94239 0.54934 0.0
C3369 C 0.92426 0.93382 0.55869 0.0
C3370 C 0.94603 0.94703 0.55896 0.0
C3371 C 0.94939 0.96881 0.54971 0.0
C3372 C 0.93182 0.97765 0.5406 0.0
C3373 C 0.93998 1.00159 0.53176 0.0
C3374 C 0.933 0.99892 0.50478 0.0
C3375 C 0.93177 0.02268 0.54585 0.0
C3376 C 0.96486 1.00483 0.53731 0.0
C3377 C 0.96995 0.98568 0.54761 0.0
C3378 C 0.99184 0.98459 0.55423 0.0
C3379 C 1.00893 1.00348 0.55023 0.0
C3380 C 1.00413 0.02345 0.53996 0.0
C3381 C 0.98174 0.024 0.53341 0.0
H3382 H 0.87564 0.12516 0.26114 0.0
H3383 H 0.94378 0.16566 0.27411 0.0
H3384 H 0.93109 0.20445 0.27662 0.0
H3385 H 0.85437 0.16722 0.22513 0.0
H3386 H 0.82847 0.16494 0.23733 0.0
H3387 H 0.84245 0.13985 0.23617 0.0
H3388 H 0.84207 0.14129 0.28149 0.0
H3389 H 0.82809 0.16639 0.28276 0.0
H3390 H 0.85373 0.16966 0.30162 0.0
H3391 H 0.91058 0.24151 0.27755 0.0
H3392 H 0.88566 0.2704 0.27765 0.0
H3393 H 0.82914 0.20906 0.26518 0.0
C3394 C 0.88805 0.14211 0.26448 0.0
C3395 C 0.91135 0.14114 0.26731 0.0
C3396 C 0.92614 0.16466 0.27175 0.0
C3397 C 0.91892 0.1873 0.27323 0.0
C3398 C 0.89627 0.18758 0.27043 0.0
C3399 C 0.88095 0.16546 0.26618 0.0
C3400 C 0.85747 0.17132 0.26411 0.0
C3401 C 0.84494 0.16015 0.23921 0.0
C3402 C 0.84456 0.16157 0.28365 0.0
C3403 C 0.86191 0.19988 0.26784 0.0
C3404 C 0.88456 0.20875 0.27135 0.0
C3405 C 0.89289 0.23432 0.27487 0.0
C3406 C 0.87829 0.25098 0.2749 0.0
C3407 C 0.85475 0.24316 0.27159 0.0
C3408 C 0.84677 0.21663 0.26798 0.0
H3409 H 0.72978 0.10715 0.06711 0.0
H3410 H 0.74339 0.07209 0.99889 0.0
H3411 H 0.70352 0.05421 0.9876 0.0
H3412 H 0.67908 0.05921 0.07378 0.0
H3413 H 0.6661 0.08302 0.08653 0.0
H3414 H 0.69573 0.08699 0.09159 0.0
H3415 H 0.69994 0.12781 0.07511 0.0
H3416 H 0.67047 0.12362 0.06913 0.0
H3417 H 0.68732 0.12766 0.04535 0.0
H3418 H 0.66199 0.04709 0.9808 0.0
H3419 H 0.62249 0.04841 0.98055 0.0
H3420 H 0.63693 0.0905 0.0524 0.0
C3421 C 0.72452 0.09471 0.0503 0.0
C3422 C 0.73961 0.09088 0.03393 0.0
C3423 C 0.73206 0.07503 0.0118 0.0
C3424 C 0.70943 0.06488 1.0052 0.0
C3425 C 0.69475 0.07065 0.02103 0.0
C3426 C 0.70205 0.08482 0.04335 0.0
C3427 C 0.68305 0.09126 0.05576 0.0
C3428 C 0.68086 0.0794 0.07824 0.0
C3429 C 0.68535 0.11923 0.06166 0.0
C3430 C 0.66404 0.07955 0.03651 0.0
C3431 C 0.67096 0.06734 0.01679 0.0
C3432 C 0.65634 0.05625 0.99632 0.0
C3433 C 0.63401 0.05734 0.99624 0.0
C3434 C 0.62668 0.06977 0.01637 0.0
C3435 C 0.64199 0.081 0.03665 0.0
H3436 H 0.25919 0.5183 0.244 0.0
H3437 H 0.19839 0.48052 0.26598 0.0
H3438 H 0.21525 0.44508 0.27053 0.0
H3439 H 0.27333 0.46598 0.21066 0.0
H3440 H 0.30255 0.47637 0.22038 0.0
H3441 H 0.28546 0.49834 0.21836 0.0
H3442 H 0.29885 0.51761 0.26273 0.0
H3443 H 0.31595 0.49565 0.26492 0.0
H3444 H 0.2958 0.49843 0.28534 0.0
H3445 H 0.23845 0.41383 0.27184 0.0
H3446 H 0.26701 0.38916 0.27144 0.0
H3447 H 0.31317 0.44838 0.25046 0.0
C3448 C 0.24937 0.50249 0.24961 0.0
C3449 C 0.22748 0.5019 0.25446 0.0
C3450 C 0.2152 0.48115 0.26213 0.0
C3451 C 0.22462 0.46102 0.26474 0.0
C3452 C 0.24632 0.46223 0.25987 0.0
C3453 C 0.25859 0.48248 0.25263 0.0
C3454 C 0.28175 0.47948 0.24915 0.0
C3455 C 0.28601 0.48007 0.22309 0.0
C3456 C 0.29911 0.49895 0.26658 0.0
C3457 C 0.28055 0.45422 0.25534 0.0
C3458 C 0.25993 0.44455 0.26136 0.0
C3459 C 0.25466 0.42121 0.26723 0.0
C3460 C 0.2709 0.40736 0.26687 0.0
C3461 C 0.29211 0.41702 0.26085 0.0
C3462 C 0.29706 0.44077 0.25522 0.0
H3463 H 0.26901 0.42403 0.02713 0.0
H3464 H 0.30631 0.46014 0.0954 0.0
H3465 H 0.2777 0.48411 0.10265 0.0
H3466 H 0.25136 0.47799 0.01204 0.0
H3467 H 0.22453 0.46108 0.99764 0.0
H3468 H 0.2477 0.44645 0.99799 0.0
H3469 H 0.22583 0.41201 0.01739 0.0
H3470 H 0.20262 0.42656 0.01716 0.0
H3471 H 0.2146 0.41997 0.04477 0.0
H3472 H 0.24423 0.5029 0.10326 0.0
H3473 H 0.20987 0.51764 0.0959 0.0
H3474 H 0.19504 0.47144 0.02613 0.0
C3475 C 0.27114 0.43699 0.04361 0.0
C3476 C 0.28988 0.44012 0.06079 0.0
C3477 C 0.29215 0.45744 0.08199 0.0
C3478 C 0.27594 0.47109 0.08629 0.0
C3479 C 0.25764 0.46751 0.06905 0.0
C3480 C 0.25528 0.45111 0.04799 0.0
C3481 C 0.2343 0.45127 0.03215 0.0
C3482 C 0.23981 0.4597 1.00856 0.0
C3483 C 0.2184 0.42595 0.02761 0.0
C3484 C 0.22512 0.47014 0.04768 0.0
C3485 C 0.23878 0.4791 0.06899 0.0
C3486 C 0.23352 0.49612 0.08658 0.0
C3487 C 0.21389 0.5043 0.08228 0.0
C3488 C 0.19976 0.49573 0.06046 0.0
C3489 C 0.20558 0.47847 0.0429 0.0
H3490 H 0.87332 0.99942 0.26424 0.0
H3491 H 0.93916 0.98525 0.26334 0.0
H3492 H 0.92427 0.94173 0.26489 0.0
H3493 H 0.85496 0.95726 0.30507 0.0
H3494 H 0.82711 0.94692 0.2901 0.0
H3495 H 0.84268 0.97715 0.28868 0.0
H3496 H 0.83623 0.96732 0.24259 0.0
H3497 H 0.82063 0.93707 0.24391 0.0
H3498 H 0.84406 0.94066 0.22735 0.0
H3499 H 0.90167 0.89749 0.267 0.0
H3500 H 0.87414 0.85948 0.2691 0.0
H3501 H 0.82246 0.90043 0.26852 0.0
C3502 C 0.88466 0.98722 0.26427 0.0
C3503 C 0.90783 0.99667 0.26357 0.0
C3504 C 0.92155 0.97931 0.26379 0.0
C3505 C 0.91315 0.95417 0.2647 0.0
C3506 C 0.89052 0.94554 0.26543 0.0
C3507 C 0.87642 0.96162 0.26519 0.0
C3508 C 0.85272 0.9474 0.26619 0.0
C3509 C 0.84384 0.95781 0.28886 0.0
C3510 C 0.8375 0.94817 0.24367 0.0
C3511 C 0.85569 0.92107 0.26702 0.0
C3512 C 0.8777 0.92039 0.26658 0.0
C3513 C 0.88443 0.89812 0.26731 0.0
C3514 C 0.86858 0.87632 0.2685 0.0
C3515 C 0.8458 0.87619 0.26896 0.0
C3516 C 0.83958 0.8993 0.26817 0.0
H3517 H 0.73367 0.13054 0.78566 0.0
H3518 H 0.75516 0.10174 0.71908 0.0
H3519 H 0.77857 0.14242 0.71847 0.0
H3520 H 0.72898 0.18733 0.77121 0.0
H3521 H 0.73915 0.20478 0.80059 0.0
H3522 H 0.72575 0.1729 0.79721 0.0
H3523 H 0.76015 0.16419 0.82066 0.0
H3524 H 0.77359 0.19612 0.82424 0.0
H3525 H 0.78693 0.17292 0.8109 0.0
H3526 H 0.79651 0.18635 0.72287 0.0
H3527 H 0.80948 0.23116 0.7328 0.0
H3528 H 0.77706 0.2317 0.7971 0.0
C3529 C 0.74359 0.13272 0.77117 0.0
C3530 C 0.74267 0.11308 0.75241 0.0
C3531 C 0.75571 0.11659 0.73364 0.0
C3532 C 0.76906 0.13958 0.73316 0.0
C3533 C 0.76929 0.15869 0.7517 0.0
C3534 C 0.75709 0.15551 0.77048 0.0
C3535 C 0.75949 0.17941 0.78752 0.0
C3536 C 0.73701 0.18652 0.78921 0.0
C3537 C 0.77072 0.17807 0.81229 0.0
C3538 C 0.77444 0.19663 0.77495 0.0
C3539 C 0.77997 0.18422 0.75442 0.0
C3540 C 0.79258 0.19626 0.73906 0.0
C3541 C 0.79974 0.22173 0.7448 0.0
C3542 C 0.79428 0.23485 0.76575 0.0
C3543 C 0.78165 0.22208 0.78111 0.0
loop_
_geom_bond_atom_site_label_1
_geom_bond_atom_site_label_2
_geom_bond_distance
_geom_bond_site_symmetry_2
_ccdc_geom_bond_type
In0 O1 2.294 . S
In0 O2 2.326 . S
In0 O6 2.266 . S
In0 O7 2.326 . S
In0 O8 2.266 . S
In0 O9 2.326 . S
In0 O11 2.294 . S
In0 O12 2.326 . S
O1 In0 2.294 . S
O1 C10 1.240 . S
O2 In0 2.326 . S
O2 C10 1.252 . S
C3 O6 1.252 . S
C3 O7 1.260 . S
C4 O11 1.240 . S
C4 O12 1.252 . S
C5 O8 1.252 . S
C5 O9 1.260 . S
O6 In0 2.266 . S
O6 C3 1.252 . S
O7 In0 2.326 . S
O7 C3 1.260 . S
O8 In0 2.266 . S
O8 C5 1.252 . S
O9 In0 2.326 . S
O9 C5 1.260 . S
C10 O1 1.240 . S
C10 O2 1.252 . S
O11 In0 2.294 . S
O11 C4 1.240 . S
O12 In0 2.326 . S
O12 C4 1.252 . S
In13 O14 2.294 . S
In13 O15 2.326 . S
In13 O19 2.266 1_455 S
In13 O20 2.326 1_455 S
In13 O21 2.264 1_455 S
In13 O22 2.322 1_455 S
In13 O24 2.296 . S
In13 O25 2.330 . S
O14 In13 2.294 . S
O14 C23 1.240 . S
O15 In13 2.326 . S
O15 C23 1.252 . S
C16 O19 1.252 . S
C16 O20 1.260 . S
C17 O24 1.240 . S
C17 O25 1.252 . S
C18 O21 1.252 . S
C18 O22 1.260 . S
O19 In13 2.266 1_655 S
O19 C16 1.252 . S
O20 In13 2.326 1_655 S
O20 C16 1.260 . S
O21 In13 2.264 1_655 S
O21 C18 1.252 . S
O22 In13 2.322 1_655 S
O22 C18 1.260 . S
C23 O14 1.240 . S
C23 O15 1.252 . S
O24 In13 2.296 . S
O24 C17 1.240 . S
O25 In13 2.330 . S
O25 C17 1.252 . S
In26 O27 2.294 . S
In26 O28 2.326 . S
In26 O32 2.266 . S
In26 O33 2.326 . S
In26 O34 2.266 . S
In26 O35 2.326 . S
In26 O37 2.294 . S
In26 O38 2.326 . S
O27 In26 2.294 . S
O27 C36 1.240 . S
O28 In26 2.326 . S
O28 C36 1.252 . S
C29 O32 1.252 . S
C29 O33 1.260 . S
C30 O37 1.240 . S
C30 O38 1.252 . S
C31 O34 1.252 . S
C31 O35 1.260 . S
O32 In26 2.266 . S
O32 C29 1.252 . S
O33 In26 2.326 . S
O33 C29 1.260 . S
O34 In26 2.266 . S
O34 C31 1.252 . S
O35 In26 2.326 . S
O35 C31 1.260 . S
C36 O27 1.240 . S
C36 O28 1.252 . S
O37 In26 2.294 . S
O37 C30 1.240 . S
O38 In26 2.326 . S
O38 C30 1.252 . S
In39 O40 2.294 . S
In39 O41 2.326 . S
In39 O45 2.266 . S
In39 O46 2.326 . S
In39 O47 2.266 . S
In39 O48 2.326 . S
In39 O50 2.294 . S
In39 O51 2.326 . S
O40 In39 2.294 . S
O40 C49 1.240 . S
O41 In39 2.326 . S
O41 C49 1.252 . S
C42 O45 1.252 . S
C42 O46 1.260 . S
C43 O50 1.240 . S
C43 O51 1.252 . S
C44 O47 1.252 . S
C44 O48 1.260 . S
O45 In39 2.266 . S
O45 C42 1.252 . S
O46 In39 2.326 . S
O46 C42 1.260 . S
O47 In39 2.266 . S
O47 C44 1.252 . S
O48 In39 2.326 . S
O48 C44 1.260 . S
C49 O40 1.240 . S
C49 O41 1.252 . S
O50 In39 2.294 . S
O50 C43 1.240 . S
O51 In39 2.326 . S
O51 C43 1.252 . S
In52 O53 2.294 . S
In52 O54 2.326 . S
In52 O58 2.266 . S
In52 O59 2.326 . S
In52 O60 2.266 . S
In52 O61 2.326 . S
In52 O63 2.294 . S
In52 O64 2.326 . S
O53 In52 2.294 . S
O53 C62 1.240 . S
O54 In52 2.326 . S
O54 C62 1.252 . S
C55 O58 1.252 . S
C55 O59 1.260 . S
C56 O63 1.240 . S
C56 O64 1.252 . S
C57 O60 1.252 . S
C57 O61 1.260 . S
O58 In52 2.266 . S
O58 C55 1.252 . S
O59 In52 2.326 . S
O59 C55 1.260 . S
O60 In52 2.266 . S
O60 C57 1.252 . S
O61 In52 2.326 . S
O61 C57 1.260 . S
C62 O53 1.240 . S
C62 O54 1.252 . S
O63 In52 2.294 . S
O63 C56 1.240 . S
O64 In52 2.326 . S
O64 C56 1.252 . S
In65 O66 2.294 . S
In65 O67 2.326 . S
In65 O71 2.266 . S
In65 O72 2.326 . S
In65 O73 2.266 . S
In65 O74 2.326 . S
In65 O76 2.294 . S
In65 O77 2.326 . S
O66 In65 2.294 . S
O66 C75 1.240 . S
O67 In65 2.326 . S
O67 C75 1.252 . S
C68 O71 1.252 . S
C68 O72 1.260 . S
C69 O76 1.240 . S
C69 O77 1.252 . S
C70 O73 1.252 . S
C70 O74 1.260 . S
O71 In65 2.266 . S
O71 C68 1.252 . S
O72 In65 2.326 . S
O72 C68 1.260 . S
O73 In65 2.266 . S
O73 C70 1.252 . S
O74 In65 2.326 . S
O74 C70 1.260 . S
C75 O66 1.240 . S
C75 O67 1.252 . S
O76 In65 2.294 . S
O76 C69 1.240 . S
O77 In65 2.326 . S
O77 C69 1.252 . S
In78 O79 2.294 . S
In78 O80 2.326 . S
In78 O84 2.266 . S
In78 O85 2.326 . S
In78 O86 2.266 . S
In78 O87 2.326 . S
In78 O89 2.294 . S
In78 O90 2.326 . S
O79 In78 2.294 . S
O79 C88 1.240 . S
O80 In78 2.326 . S
O80 C88 1.252 . S
C81 O84 1.252 . S
C81 O85 1.260 . S
C82 O89 1.240 . S
C82 O90 1.252 . S
C83 O86 1.252 . S
C83 O87 1.260 . S
O84 In78 2.266 . S
O84 C81 1.252 . S
O85 In78 2.326 . S
O85 C81 1.260 . S
O86 In78 2.266 . S
O86 C83 1.252 . S
O87 In78 2.326 . S
O87 C83 1.260 . S
C88 O79 1.240 . S
C88 O80 1.252 . S
O89 In78 2.294 . S
O89 C82 1.240 . S
O90 In78 2.326 . S
O90 C82 1.252 . S
In91 O92 2.294 . S
In91 O93 2.326 . S
In91 O97 2.266 . S
In91 O98 2.326 . S
In91 O99 2.266 1_455 S
In91 O100 2.326 1_455 S
In91 O102 2.294 . S
In91 O103 2.326 . S
O92 In91 2.294 . S
O92 C101 1.240 . S
O93 In91 2.326 . S
O93 C101 1.252 . S
C94 O97 1.252 . S
C94 O98 1.260 . S
C95 O102 1.240 . S
C95 O103 1.252 . S
C96 O99 1.252 . S
C96 O100 1.260 . S
O97 In91 2.266 . S
O97 C94 1.252 . S
O98 In91 2.326 . S
O98 C94 1.260 . S
O99 In91 2.266 1_655 S
O99 C96 1.252 . S
O100 In91 2.326 1_655 S
O100 C96 1.260 . S
C101 O92 1.240 . S
C101 O93 1.252 . S
O102 In91 2.294 . S
O102 C95 1.240 . S
O103 In91 2.326 . S
O103 C95 1.252 . S
In104 O105 2.294 . S
In104 O106 2.324 . S
In104 O110 2.266 . S
In104 O111 2.326 . S
In104 O112 2.266 1_545 S
In104 O113 2.326 1_545 S
In104 O115 2.294 . S
In104 O116 2.326 . S
O105 In104 2.294 . S
O105 C114 1.240 . S
O106 In104 2.324 . S
O106 C114 1.252 . S
C107 O110 1.252 . S
C107 O111 1.260 . S
C108 O115 1.240 . S
C108 O116 1.252 . S
C109 O112 1.252 . S
C109 O113 1.260 . S
O110 In104 2.266 . S
O110 C107 1.252 . S
O111 In104 2.326 . S
O111 C107 1.260 . S
O112 In104 2.266 1_565 S
O112 C109 1.252 . S
O113 In104 2.326 1_565 S
O113 C109 1.260 . S
C114 O105 1.240 . S
C114 O106 1.252 . S
O115 In104 2.294 . S
O115 C108 1.240 . S
O116 In104 2.326 . S
O116 C108 1.252 . S
In117 O118 2.294 . S
In117 O119 2.326 . S
In117 O123 2.266 . S
In117 O124 2.326 . S
In117 O125 2.266 . S
In117 O126 2.326 . S
In117 O128 2.294 . S
In117 O129 2.326 . S
O118 In117 2.294 . S
O118 C127 1.240 . S
O119 In117 2.326 . S
O119 C127 1.252 . S
C120 O123 1.252 . S
C120 O124 1.260 . S
C121 O128 1.240 . S
C121 O129 1.252 . S
C122 O125 1.252 . S
C122 O126 1.260 . S
O123 In117 2.266 . S
O123 C120 1.252 . S
O124 In117 2.326 . S
O124 C120 1.260 . S
O125 In117 2.266 . S
O125 C122 1.252 . S
O126 In117 2.326 . S
O126 C122 1.260 . S
C127 O118 1.240 . S
C127 O119 1.252 . S
O128 In117 2.294 . S
O128 C121 1.240 . S
O129 In117 2.326 . S
O129 C121 1.252 . S
In130 O131 2.294 1_545 S
In130 O132 2.326 . S
In130 O136 2.266 . S
In130 O137 2.326 . S
In130 O138 2.266 . S
In130 O139 2.326 . S
In130 O141 2.294 1_545 S
In130 O142 2.326 1_545 S
O131 In130 2.294 1_565 S
O131 C140 1.240 . S
O132 In130 2.326 . S
O132 C140 1.252 1_545 S
C133 O136 1.252 . S
C133 O137 1.260 . S
C134 O141 1.240 . S
C134 O142 1.252 . S
C135 O138 1.252 . S
C135 O139 1.260 . S
O136 In130 2.266 . S
O136 C133 1.252 . S
O137 In130 2.326 . S
O137 C133 1.260 . S
O138 In130 2.266 . S
O138 C135 1.252 . S
O139 In130 2.326 . S
O139 C135 1.260 . S
C140 O131 1.240 . S
C140 O132 1.252 1_565 S
O141 In130 2.294 1_565 S
O141 C134 1.240 . S
O142 In130 2.326 1_565 S
O142 C134 1.252 . S
In143 O144 2.294 . S
In143 O145 2.326 . S
In143 O149 2.266 1_554 S
In143 O150 2.326 1_554 S
In143 O151 2.266 . S
In143 O152 2.326 . S
In143 O154 2.294 . S
In143 O155 2.326 . S
O144 In143 2.294 . S
O144 C153 1.240 . S
O145 In143 2.326 . S
O145 C153 1.252 . S
C146 O149 1.252 . S
C146 O150 1.260 . S
C147 O154 1.240 . S
C147 O155 1.252 . S
C148 O151 1.252 . S
C148 O152 1.260 . S
O149 In143 2.266 1_556 S
O149 C146 1.252 . S
O150 In143 2.326 1_556 S
O150 C146 1.260 . S
O151 In143 2.266 . S
O151 C148 1.252 . S
O152 In143 2.326 . S
O152 C148 1.260 . S
C153 O144 1.240 . S
C153 O145 1.252 . S
O154 In143 2.294 . S
O154 C147 1.240 . S
O155 In143 2.326 . S
O155 C147 1.252 . S
In156 O157 2.294 . S
In156 O158 2.326 . S
In156 O162 2.266 1_554 S
In156 O163 2.326 1_554 S
In156 O164 2.266 . S
In156 O165 2.326 . S
In156 O167 2.294 . S
In156 O168 2.326 . S
O157 In156 2.294 . S
O157 C166 1.240 . S
O158 In156 2.326 . S
O158 C166 1.252 . S
C159 O162 1.252 . S
C159 O163 1.260 . S
C160 O167 1.240 . S
C160 O168 1.252 . S
C161 O164 1.252 . S
C161 O165 1.260 . S
O162 In156 2.266 1_556 S
O162 C159 1.252 . S
O163 In156 2.326 1_556 S
O163 C159 1.260 . S
O164 In156 2.266 . S
O164 C161 1.252 . S
O165 In156 2.326 . S
O165 C161 1.260 . S
C166 O157 1.240 . S
C166 O158 1.252 . S
O167 In156 2.294 . S
O167 C160 1.240 . S
O168 In156 2.326 . S
O168 C160 1.252 . S
In169 O170 2.294 . S
In169 O171 2.326 . S
In169 O175 2.266 . S
In169 O176 2.326 . S
In169 O177 2.266 . S
In169 O178 2.326 1_554 S
In169 O180 2.294 . S
In169 O181 2.326 . S
O170 In169 2.294 . S
O170 C179 1.240 . S
O171 In169 2.326 . S
O171 C179 1.252 . S
C172 O175 1.252 . S
C172 O176 1.260 . S
C173 O180 1.240 . S
C173 O181 1.252 . S
C174 O177 1.252 1_556 S
C174 O178 1.260 . S
O175 In169 2.266 . S
O175 C172 1.252 . S
O176 In169 2.326 . S
O176 C172 1.260 . S
O177 In169 2.266 . S
O177 C174 1.252 1_554 S
O178 In169 2.326 1_556 S
O178 C174 1.260 . S
C179 O170 1.240 . S
C179 O171 1.252 . S
O180 In169 2.294 . S
O180 C173 1.240 . S
O181 In169 2.326 . S
O181 C173 1.252 . S
In182 O183 2.294 . S
In182 O184 2.326 . S
In182 O188 2.266 . S
In182 O189 2.326 . S
In182 O190 2.266 . S
In182 O191 2.326 . S
In182 O193 2.294 . S
In182 O194 2.326 . S
O183 In182 2.294 . S
O183 C192 1.240 . S
O184 In182 2.326 . S
O184 C192 1.252 . S
C185 O188 1.252 . S
C185 O189 1.260 . S
C186 O193 1.240 . S
C186 O194 1.252 . S
C187 O190 1.252 . S
C187 O191 1.260 . S
O188 In182 2.266 . S
O188 C185 1.252 . S
O189 In182 2.326 . S
O189 C185 1.260 . S
O190 In182 2.266 . S
O190 C187 1.252 . S
O191 In182 2.326 . S
O191 C187 1.260 . S
C192 O183 1.240 . S
C192 O184 1.252 . S
O193 In182 2.294 . S
O193 C186 1.240 . S
O194 In182 2.326 . S
O194 C186 1.252 . S
In195 O196 2.294 . S
In195 O197 2.326 . S
In195 O201 2.266 . S
In195 O202 2.326 . S
In195 O203 2.266 . S
In195 O204 2.326 . S
In195 O206 2.294 . S
In195 O207 2.326 . S
O196 In195 2.294 . S
O196 C205 1.240 . S
O197 In195 2.326 . S
O197 C205 1.252 . S
C198 O201 1.252 . S
C198 O202 1.260 . S
C199 O206 1.240 . S
C199 O207 1.252 . S
C200 O203 1.252 . S
C200 O204 1.260 . S
O201 In195 2.266 . S
O201 C198 1.252 . S
O202 In195 2.326 . S
O202 C198 1.260 . S
O203 In195 2.266 . S
O203 C200 1.252 . S
O204 In195 2.326 . S
O204 C200 1.260 . S
C205 O196 1.240 . S
C205 O197 1.252 . S
O206 In195 2.294 . S
O206 C199 1.240 . S
O207 In195 2.326 . S
O207 C199 1.252 . S
In208 O209 2.294 . S
In208 O210 2.326 . S
In208 O214 2.266 . S
In208 O215 2.326 . S
In208 O216 2.266 . S
In208 O217 2.326 . S
In208 O219 2.294 . S
In208 O220 2.326 . S
O209 In208 2.294 . S
O209 C218 1.240 . S
O210 In208 2.326 . S
O210 C218 1.252 . S
C211 O214 1.252 . S
C211 O215 1.260 . S
C212 O219 1.240 . S
C212 O220 1.252 . S
C213 O216 1.252 . S
C213 O217 1.260 . S
O214 In208 2.266 . S
O214 C211 1.252 . S
O215 In208 2.326 . S
O215 C211 1.260 . S
O216 In208 2.266 . S
O216 C213 1.252 . S
O217 In208 2.326 . S
O217 C213 1.260 . S
C218 O209 1.240 . S
C218 O210 1.252 . S
O219 In208 2.294 . S
O219 C212 1.240 . S
O220 In208 2.326 . S
O220 C212 1.252 . S
In221 O222 2.294 . S
In221 O223 2.326 . S
In221 O227 2.266 . S
In221 O228 2.326 . S
In221 O229 2.266 . S
In221 O230 2.326 . S
In221 O232 2.294 . S
In221 O233 2.326 . S
O222 In221 2.294 . S
O222 C231 1.240 . S
O223 In221 2.326 . S
O223 C231 1.252 . S
C224 O227 1.252 . S
C224 O228 1.260 . S
C225 O232 1.240 . S
C225 O233 1.252 . S
C226 O229 1.252 . S
C226 O230 1.260 . S
O227 In221 2.266 . S
O227 C224 1.252 . S
O228 In221 2.326 . S
O228 C224 1.260 . S
O229 In221 2.266 . S
O229 C226 1.252 . S
O230 In221 2.326 . S
O230 C226 1.260 . S
C231 O222 1.240 . S
C231 O223 1.252 . S
O232 In221 2.294 . S
O232 C225 1.240 . S
O233 In221 2.326 . S
O233 C225 1.252 . S
In234 O235 2.294 . S
In234 O236 2.326 . S
In234 O240 2.266 . S
In234 O241 2.326 . S
In234 O242 2.266 . S
In234 O243 2.326 . S
In234 O245 2.294 . S
In234 O246 2.326 . S
O235 In234 2.294 . S
O235 C244 1.240 . S
O236 In234 2.326 . S
O236 C244 1.252 . S
C237 O240 1.252 . S
C237 O241 1.260 . S
C238 O245 1.240 . S
C238 O246 1.252 . S
C239 O242 1.252 . S
C239 O243 1.260 . S
O240 In234 2.266 . S
O240 C237 1.252 . S
O241 In234 2.326 . S
O241 C237 1.260 . S
O242 In234 2.266 . S
O242 C239 1.252 . S
O243 In234 2.326 . S
O243 C239 1.260 . S
C244 O235 1.240 . S
C244 O236 1.252 . S
O245 In234 2.294 . S
O245 C238 1.240 . S
O246 In234 2.326 . S
O246 C238 1.252 . S
In247 O248 2.294 . S
In247 O249 2.326 . S
In247 O253 2.266 . S
In247 O254 2.326 . S
In247 O255 2.266 . S
In247 O256 2.326 . S
In247 O258 2.294 . S
In247 O259 2.326 . S
O248 In247 2.294 . S
O248 C257 1.240 . S
O249 In247 2.326 . S
O249 C257 1.252 . S
C250 O253 1.252 . S
C250 O254 1.260 . S
C251 O258 1.240 . S
C251 O259 1.252 . S
C252 O255 1.252 . S
C252 O256 1.260 . S
O253 In247 2.266 . S
O253 C250 1.252 . S
O254 In247 2.326 . S
O254 C250 1.260 . S
O255 In247 2.266 . S
O255 C252 1.252 . S
O256 In247 2.326 . S
O256 C252 1.260 . S
C257 O248 1.240 . S
C257 O249 1.252 . S
O258 In247 2.294 . S
O258 C251 1.240 . S
O259 In247 2.326 . S
O259 C251 1.252 . S
In260 O261 2.294 . S
In260 O262 2.326 . S
In260 O266 2.266 1_554 S
In260 O267 2.326 . S
In260 O268 2.266 1_554 S
In260 O269 2.326 1_554 S
In260 O271 2.294 . S
In260 O272 2.326 . S
O261 In260 2.294 . S
O261 C270 1.240 . S
O262 In260 2.326 . S
O262 C270 1.252 . S
C263 O266 1.252 . S
C263 O267 1.260 1_556 S
C264 O271 1.240 . S
C264 O272 1.252 . S
C265 O268 1.252 . S
C265 O269 1.260 . S
O266 In260 2.266 1_556 S
O266 C263 1.252 . S
O267 In260 2.326 . S
O267 C263 1.260 1_554 S
O268 In260 2.266 1_556 S
O268 C265 1.252 . S
O269 In260 2.326 1_556 S
O269 C265 1.260 . S
C270 O261 1.240 . S
C270 O262 1.252 . S
O271 In260 2.294 . S
O271 C264 1.240 . S
O272 In260 2.326 . S
O272 C264 1.252 . S
In273 O274 2.294 . S
In273 O275 2.326 . S
In273 O279 2.266 . S
In273 O280 2.326 . S
In273 O281 2.266 . S
In273 O282 2.326 . S
In273 O284 2.294 . S
In273 O285 2.326 . S
O274 In273 2.294 . S
O274 C283 1.240 . S
O275 In273 2.326 . S
O275 C283 1.252 . S
C276 O279 1.252 . S
C276 O280 1.260 . S
C277 O284 1.240 . S
C277 O285 1.252 . S
C278 O281 1.252 . S
C278 O282 1.260 . S
O279 In273 2.266 . S
O279 C276 1.252 . S
O280 In273 2.326 . S
O280 C276 1.260 . S
O281 In273 2.266 . S
O281 C278 1.252 . S
O282 In273 2.326 . S
O282 C278 1.260 . S
C283 O274 1.240 . S
C283 O275 1.252 . S
O284 In273 2.294 . S
O284 C277 1.240 . S
O285 In273 2.326 . S
O285 C277 1.252 . S
In286 O287 2.294 . S
In286 O288 2.326 . S
In286 O292 2.266 . S
In286 O293 2.326 . S
In286 O294 2.266 . S
In286 O295 2.326 . S
In286 O297 2.294 . S
In286 O298 2.326 . S
O287 In286 2.294 . S
O287 C296 1.240 . S
O288 In286 2.326 . S
O288 C296 1.252 . S
C289 O292 1.252 . S
C289 O293 1.260 . S
C290 O297 1.240 . S
C290 O298 1.252 . S
C291 O294 1.252 . S
C291 O295 1.260 . S
O292 In286 2.266 . S
O292 C289 1.252 . S
O293 In286 2.326 . S
O293 C289 1.260 . S
O294 In286 2.266 . S
O294 C291 1.252 . S
O295 In286 2.326 . S
O295 C291 1.260 . S
C296 O287 1.240 . S
C296 O288 1.252 . S
O297 In286 2.294 . S
O297 C290 1.240 . S
O298 In286 2.326 . S
O298 C290 1.252 . S
In299 O300 2.294 . S
In299 O301 2.326 . S
In299 O305 2.266 . S
In299 O306 2.326 . S
In299 O307 2.266 . S
In299 O308 2.326 . S
In299 O310 2.294 . S
In299 O311 2.326 . S
O300 In299 2.294 . S
O300 C309 1.240 . S
O301 In299 2.326 . S
O301 C309 1.252 . S
C302 O305 1.252 . S
C302 O306 1.260 . S
C303 O310 1.240 . S
C303 O311 1.252 . S
C304 O307 1.252 . S
C304 O308 1.260 . S
O305 In299 2.266 . S
O305 C302 1.252 . S
O306 In299 2.326 . S
O306 C302 1.260 . S
O307 In299 2.266 . S
O307 C304 1.252 . S
O308 In299 2.326 . S
O308 C304 1.260 . S
C309 O300 1.240 . S
C309 O301 1.252 . S
O310 In299 2.294 . S
O310 C303 1.240 . S
O311 In299 2.326 . S
O311 C303 1.252 . S
Sm312 C314 2.846 1_455 S
Sm312 O332 2.543 1_455 S
Sm312 O333 2.450 1_454 S
Sm312 O334 2.681 . S
Sm312 O335 2.464 1_554 S
Sm312 O336 2.396 . S
Sm312 O340 2.386 . S
Sm312 O343 2.408 . S
Sm313 C323 2.846 . S
Sm313 O334 2.386 . S
Sm313 O337 2.408 . S
Sm313 O338 2.543 . S
Sm313 O339 2.450 . S
Sm313 O340 2.681 . S
Sm313 O341 2.464 . S
Sm313 O342 2.396 . S
C314 Sm312 2.846 1_655 S
C314 C315 1.496 1_554 S
C314 O332 1.261 . S
C314 O333 1.242 1_554 S
C315 C314 1.496 1_556 S
C315 C316 1.331 1_556 S
C315 C320 1.420 . S
C316 C315 1.331 1_554 S
C316 C317 1.385 . S
C316 H344 0.930 . S
C317 C316 1.385 . S
C317 C318 1.395 1_554 S
C317 H345 0.929 . S
C318 C317 1.395 1_556 S
C318 C319 1.335 . S
C319 C318 1.335 . S
C319 C320 1.398 . S
C319 H346 0.930 . S
C320 C315 1.420 . S
C320 C319 1.398 . S
C320 H347 0.929 . S
C321 O334 1.271 1_556 S
C321 O335 1.251 . S
C322 O336 1.252 . S
C322 O337 1.272 . S
C323 Sm313 2.846 . S
C323 C324 1.506 . S
C323 O338 1.261 . S
C323 O339 1.242 . S
C324 C323 1.506 . S
C324 C325 1.358 . S
C324 C329 1.382 . S
C325 C324 1.358 . S
C325 C326 1.385 . S
C325 H348 0.930 . S
C326 C325 1.385 . S
C326 C327 1.395 . S
C326 H349 0.929 1_545 S
C327 C326 1.395 . S
C327 C328 1.335 . S
C328 C327 1.335 . S
C328 C329 1.398 . S
C328 H350 0.930 . S
C329 C324 1.382 . S
C329 C328 1.398 . S
C329 H351 0.929 . S
C330 O340 1.271 . S
C330 O341 1.251 . S
C331 O342 1.252 . S
C331 O343 1.272 . S
O332 Sm312 2.543 1_655 S
O332 C314 1.261 . S
O333 Sm312 2.450 1_656 S
O333 C314 1.242 1_556 S
O334 Sm312 2.681 . S
O334 Sm313 2.386 . S
O334 C321 1.271 1_554 S
O335 Sm312 2.464 1_556 S
O335 C321 1.251 . S
O336 Sm312 2.396 . S
O336 C322 1.252 . S
O337 Sm313 2.408 . S
O337 C322 1.272 . S
O338 Sm313 2.543 . S
O338 C323 1.261 . S
O339 Sm313 2.450 . S
O339 C323 1.242 . S
O340 Sm312 2.386 . S
O340 Sm313 2.681 . S
O340 C330 1.271 . S
O341 Sm313 2.464 . S
O341 C330 1.251 . S
O342 Sm313 2.396 . S
O342 C331 1.252 . S
O343 Sm312 2.408 . S
O343 C331 1.272 . S
H344 C316 0.930 . S
H345 C317 0.929 . S
H346 C319 0.930 . S
H347 C320 0.929 . S
H348 C325 0.930 . S
H349 C326 0.929 1_565 S
H350 C328 0.930 . S
H351 C329 0.929 . S
Sm352 C354 2.846 . S
Sm352 O372 2.543 . S
Sm352 O373 2.450 . S
Sm352 O374 2.681 . S
Sm352 O375 2.464 . S
Sm352 O376 2.396 . S
Sm352 O380 2.386 . S
Sm352 O383 2.408 . S
Sm353 C363 2.846 . S
Sm353 O374 2.386 . S
Sm353 O377 2.408 . S
Sm353 O378 2.543 . S
Sm353 O379 2.450 . S
Sm353 O380 2.681 . S
Sm353 O381 2.464 . S
Sm353 O382 2.396 . S
C354 Sm352 2.846 . S
C354 C355 1.506 . S
C354 O372 1.261 . S
C354 O373 1.242 . S
C355 C354 1.506 . S
C355 C356 1.358 . S
C355 C360 1.382 . S
C356 C355 1.358 . S
C356 C357 1.385 . S
C356 H384 0.930 . S
C357 C356 1.385 . S
C357 C358 1.395 . S
C357 H385 0.929 . S
C358 C357 1.395 . S
C358 C359 1.335 . S
C359 C358 1.335 . S
C359 C360 1.398 . S
C359 H386 0.930 . S
C360 C355 1.382 . S
C360 C359 1.398 . S
C360 H387 0.929 . S
C361 O374 1.271 . S
C361 O375 1.251 . S
C362 O376 1.252 . S
C362 O377 1.272 . S
C363 Sm353 2.846 . S
C363 C364 1.506 . S
C363 O378 1.261 . S
C363 O379 1.242 . S
C364 C363 1.506 . S
C364 C365 1.358 . S
C364 C369 1.382 . S
C365 C364 1.358 . S
C365 C366 1.385 . S
C365 H388 0.930 . S
C366 C365 1.385 . S
C366 C367 1.395 . S
C366 H389 0.929 . S
C367 C366 1.395 . S
C367 C368 1.335 . S
C368 C367 1.335 . S
C368 C369 1.398 . S
C368 H390 0.930 . S
C369 C364 1.382 . S
C369 C368 1.398 . S
C369 H391 0.929 . S
C370 O380 1.271 . S
C370 O381 1.251 . S
C371 O382 1.252 . S
C371 O383 1.272 . S
O372 Sm352 2.543 . S
O372 C354 1.261 . S
O373 Sm352 2.450 . S
O373 C354 1.242 . S
O374 Sm352 2.681 . S
O374 Sm353 2.386 . S
O374 C361 1.271 . S
O375 Sm352 2.464 . S
O375 C361 1.251 . S
O376 Sm352 2.396 . S
O376 C362 1.252 . S
O377 Sm353 2.408 . S
O377 C362 1.272 . S
O378 Sm353 2.543 . S
O378 C363 1.261 . S
O379 Sm353 2.450 . S
O379 C363 1.242 . S
O380 Sm352 2.386 . S
O380 Sm353 2.681 . S
O380 C370 1.271 . S
O381 Sm353 2.464 . S
O381 C370 1.251 . S
O382 Sm353 2.396 . S
O382 C371 1.252 . S
O383 Sm352 2.408 . S
O383 C371 1.272 . S
H384 C356 0.930 . S
H385 C357 0.929 . S
H386 C359 0.930 . S
H387 C360 0.929 . S
H388 C365 0.930 . S
H389 C366 0.929 . S
H390 C368 0.930 . S
H391 C369 0.929 . S
Sm392 C394 2.846 . S
Sm392 O412 2.543 . S
Sm392 O413 2.450 . S
Sm392 O414 2.681 . S
Sm392 O415 2.464 . S
Sm392 O416 2.396 1_545 S
Sm392 O420 2.386 . S
Sm392 O423 2.408 . S
Sm393 C403 2.846 . S
Sm393 O414 2.386 . S
Sm393 O417 2.408 1_545 S
Sm393 O418 2.543 . S
Sm393 O419 2.450 . S
Sm393 O420 2.681 . S
Sm393 O421 2.464 . S
Sm393 O422 2.396 . S
C394 Sm392 2.846 . S
C394 C395 1.506 1_545 S
C394 O412 1.261 . S
C394 O413 1.242 . S
C395 C394 1.506 1_565 S
C395 C396 1.358 . S
C395 C400 1.382 . S
C396 C395 1.358 . S
C396 C397 1.385 . S
C396 H424 0.930 . S
C397 C396 1.385 . S
C397 C398 1.395 . S
C397 H425 0.929 . S
C398 C397 1.395 . S
C398 C399 1.335 . S
C399 C398 1.335 . S
C399 C400 1.398 . S
C399 H426 0.930 . S
C400 C395 1.382 . S
C400 C399 1.398 . S
C400 H427 0.929 . S
C401 O414 1.271 . S
C401 O415 1.251 . S
C402 O416 1.252 . S
C402 O417 1.272 . S
C403 Sm393 2.846 . S
C403 C404 1.506 . S
C403 O418 1.261 . S
C403 O419 1.242 . S
C404 C403 1.506 . S
C404 C405 1.358 . S
C404 C409 1.382 . S
C405 C404 1.358 . S
C405 C406 1.385 . S
C405 H428 0.930 . S
C406 C405 1.385 . S
C406 C407 1.395 . S
C406 H429 0.929 . S
C407 C406 1.395 . S
C407 C408 1.335 . S
C408 C407 1.335 . S
C408 C409 1.398 . S
C408 H430 0.930 . S
C409 C404 1.382 . S
C409 C408 1.398 . S
C409 H431 0.929 . S
C410 O420 1.271 . S
C410 O421 1.251 . S
C411 O422 1.252 . S
C411 O423 1.272 . S
O412 Sm392 2.543 . S
O412 C394 1.261 . S
O413 Sm392 2.450 . S
O413 C394 1.242 . S
O414 Sm392 2.681 . S
O414 Sm393 2.386 . S
O414 C401 1.271 . S
O415 Sm392 2.464 . S
O415 C401 1.251 . S
O416 Sm392 2.396 1_565 S
O416 C402 1.252 . S
O417 Sm393 2.408 1_565 S
O417 C402 1.272 . S
O418 Sm393 2.543 . S
O418 C403 1.261 . S
O419 Sm393 2.450 . S
O419 C403 1.242 . S
O420 Sm392 2.386 . S
O420 Sm393 2.681 . S
O420 C410 1.271 . S
O421 Sm393 2.464 . S
O421 C410 1.251 . S
O422 Sm393 2.396 . S
O422 C411 1.252 . S
O423 Sm392 2.408 . S
O423 C411 1.272 . S
H424 C396 0.930 . S
H425 C397 0.929 . S
H426 C399 0.930 . S
H427 C400 0.929 . S
H428 C405 0.930 . S
H429 C406 0.929 . S
H430 C408 0.930 . S
H431 C409 0.929 . S
Sm432 C434 2.846 . S
Sm432 O452 2.543 . S
Sm432 O453 2.450 . S
Sm432 O454 2.681 . S
Sm432 O455 2.464 . S
Sm432 O456 2.396 . S
Sm432 O460 2.386 . S
Sm432 O463 2.408 . S
Sm433 C443 2.846 . S
Sm433 O454 2.386 . S
Sm433 O457 2.408 . S
Sm433 O458 2.543 . S
Sm433 O459 2.450 . S
Sm433 O460 2.681 . S
Sm433 O461 2.464 . S
Sm433 O462 2.396 . S
C434 Sm432 2.846 . S
C434 C435 1.506 . S
C434 O452 1.261 . S
C434 O453 1.242 . S
C435 C434 1.506 . S
C435 C436 1.358 . S
C435 C440 1.382 . S
C436 C435 1.358 . S
C436 C437 1.385 . S
C436 H464 0.930 . S
C437 C436 1.385 . S
C437 C438 1.395 . S
C437 H465 0.929 . S
C438 C437 1.395 . S
C438 C439 1.335 . S
C439 C438 1.335 . S
C439 C440 1.398 . S
C439 H466 0.930 . S
C440 C435 1.382 . S
C440 C439 1.398 . S
C440 H467 0.929 . S
C441 O454 1.271 . S
C441 O455 1.251 . S
C442 O456 1.252 . S
C442 O457 1.272 . S
C443 Sm433 2.846 . S
C443 C444 1.506 . S
C443 O458 1.261 . S
C443 O459 1.242 . S
C444 C443 1.506 . S
C444 C445 1.358 . S
C444 C449 1.382 . S
C445 C444 1.358 . S
C445 C446 1.385 . S
C445 H468 0.930 . S
C446 C445 1.385 . S
C446 C447 1.395 . S
C446 H469 0.929 . S
C447 C446 1.395 . S
C447 C448 1.335 . S
C448 C447 1.335 . S
C448 C449 1.398 . S
C448 H470 0.930 . S
C449 C444 1.382 . S
C449 C448 1.398 . S
C449 H471 0.929 . S
C450 O460 1.271 . S
C450 O461 1.251 . S
C451 O462 1.252 . S
C451 O463 1.272 . S
O452 Sm432 2.543 . S
O452 C434 1.261 . S
O453 Sm432 2.450 . S
O453 C434 1.242 . S
O454 Sm432 2.681 . S
O454 Sm433 2.386 . S
O454 C441 1.271 . S
O455 Sm432 2.464 . S
O455 C441 1.251 . S
O456 Sm432 2.396 . S
O456 C442 1.252 . S
O457 Sm433 2.408 . S
O457 C442 1.272 . S
O458 Sm433 2.543 . S
O458 C443 1.261 . S
O459 Sm433 2.450 . S
O459 C443 1.242 . S
O460 Sm432 2.386 . S
O460 Sm433 2.681 . S
O460 C450 1.271 . S
O461 Sm433 2.464 . S
O461 C450 1.251 . S
O462 Sm433 2.396 . S
O462 C451 1.252 . S
O463 Sm432 2.408 . S
O463 C451 1.272 . S
H464 C436 0.930 . S
H465 C437 0.929 . S
H466 C439 0.930 . S
H467 C440 0.929 . S
H468 C445 0.930 . S
H469 C446 0.929 . S
H470 C448 0.930 . S
H471 C449 0.929 . S
Sm472 C474 2.846 . S
Sm472 O492 2.543 . S
Sm472 O493 2.450 . S
Sm472 O494 2.681 . S
Sm472 O495 2.464 . S
Sm472 O496 2.396 . S
Sm472 O500 2.386 . S
Sm472 O503 2.408 . S
Sm473 C483 2.846 . S
Sm473 O494 2.386 1_565 S
Sm473 O497 2.408 1_565 S
Sm473 O498 2.543 . S
Sm473 O499 2.450 . S
Sm473 O500 2.681 1_565 S
Sm473 O501 2.464 1_565 S
Sm473 O502 2.396 1_565 S
C474 Sm472 2.846 . S
C474 C475 1.506 . S
C474 O492 1.261 . S
C474 O493 1.242 . S
C475 C474 1.506 . S
C475 C476 1.358 . S
C475 C480 1.382 . S
C476 C475 1.358 . S
C476 C477 1.385 . S
C476 H504 0.930 . S
C477 C476 1.385 . S
C477 C478 1.395 . S
C477 H505 0.929 . S
C478 C477 1.395 . S
C478 C479 1.335 . S
C479 C478 1.335 . S
C479 C480 1.398 . S
C479 H506 0.930 . S
C480 C475 1.382 . S
C480 C479 1.398 . S
C480 H507 0.929 . S
C481 O494 1.271 . S
C481 O495 1.251 . S
C482 O496 1.252 . S
C482 O497 1.272 . S
C483 Sm473 2.846 . S
C483 C484 1.506 . S
C483 O498 1.261 . S
C483 O499 1.242 . S
C484 C483 1.506 . S
C484 C485 1.358 . S
C484 C489 1.382 . S
C485 C484 1.358 . S
C485 C486 1.385 . S
C485 H508 0.930 . S
C486 C485 1.385 . S
C486 C487 1.395 . S
C486 H509 0.929 . S
C487 C486 1.395 . S
C487 C488 1.335 . S
C488 C487 1.335 . S
C488 C489 1.398 . S
C488 H510 0.930 . S
C489 C484 1.382 . S
C489 C488 1.398 . S
C489 H511 0.929 . S
C490 O500 1.271 . S
C490 O501 1.251 . S
C491 O502 1.252 . S
C491 O503 1.272 . S
O492 Sm472 2.543 . S
O492 C474 1.261 . S
O493 Sm472 2.450 . S
O493 C474 1.242 . S
O494 Sm472 2.681 . S
O494 Sm473 2.386 1_545 S
O494 C481 1.271 . S
O495 Sm472 2.464 . S
O495 C481 1.251 . S
O496 Sm472 2.396 . S
O496 C482 1.252 . S
O497 Sm473 2.408 1_545 S
O497 C482 1.272 . S
O498 Sm473 2.543 . S
O498 C483 1.261 . S
O499 Sm473 2.450 . S
O499 C483 1.242 . S
O500 Sm472 2.386 . S
O500 Sm473 2.681 1_545 S
O500 C490 1.271 . S
O501 Sm473 2.464 1_545 S
O501 C490 1.251 . S
O502 Sm473 2.396 1_545 S
O502 C491 1.252 . S
O503 Sm472 2.408 . S
O503 C491 1.272 . S
H504 C476 0.930 . S
H505 C477 0.929 . S
H506 C479 0.930 . S
H507 C480 0.929 . S
H508 C485 0.930 . S
H509 C486 0.929 . S
H510 C488 0.930 . S
H511 C489 0.929 . S
Sm512 C514 2.846 . S
Sm512 O532 2.543 . S
Sm512 O533 2.450 . S
Sm512 O534 2.681 . S
Sm512 O535 2.464 . S
Sm512 O536 2.396 . S
Sm512 O540 2.386 . S
Sm512 O543 2.408 . S
Sm513 C523 2.846 . S
Sm513 O534 2.386 . S
Sm513 O537 2.408 . S
Sm513 O538 2.543 . S
Sm513 O539 2.450 . S
Sm513 O540 2.681 . S
Sm513 O541 2.464 . S
Sm513 O542 2.396 . S
C514 Sm512 2.846 . S
C514 C515 1.506 . S
C514 O532 1.261 . S
C514 O533 1.242 . S
C515 C514 1.506 . S
C515 C516 1.358 . S
C515 C520 1.382 . S
C516 C515 1.358 . S
C516 C517 1.385 . S
C516 H544 0.930 . S
C517 C516 1.385 . S
C517 C518 1.395 . S
C517 H545 0.929 . S
C518 C517 1.395 . S
C518 C519 1.335 . S
C519 C518 1.335 . S
C519 C520 1.398 . S
C519 H546 0.930 . S
C520 C515 1.382 . S
C520 C519 1.398 . S
C520 H547 0.929 . S
C521 O534 1.271 . S
C521 O535 1.251 . S
C522 O536 1.252 . S
C522 O537 1.272 . S
C523 Sm513 2.846 . S
C523 C524 1.506 . S
C523 O538 1.261 . S
C523 O539 1.242 . S
C524 C523 1.506 . S
C524 C525 1.358 . S
C524 C529 1.382 . S
C525 C524 1.358 . S
C525 C526 1.385 . S
C525 H548 0.930 . S
C526 C525 1.385 . S
C526 C527 1.395 . S
C526 H549 0.929 . S
C527 C526 1.395 . S
C527 C528 1.335 . S
C528 C527 1.335 . S
C528 C529 1.398 . S
C528 H550 0.930 . S
C529 C524 1.382 . S
C529 C528 1.398 . S
C529 H551 0.929 . S
C530 O540 1.271 . S
C530 O541 1.251 . S
C531 O542 1.252 . S
C531 O543 1.272 . S
O532 Sm512 2.543 . S
O532 C514 1.261 . S
O533 Sm512 2.450 . S
O533 C514 1.242 . S
O534 Sm512 2.681 . S
O534 Sm513 2.386 . S
O534 C521 1.271 . S
O535 Sm512 2.464 . S
O535 C521 1.251 . S
O536 Sm512 2.396 . S
O536 C522 1.252 . S
O537 Sm513 2.408 . S
O537 C522 1.272 . S
O538 Sm513 2.543 . S
O538 C523 1.261 . S
O539 Sm513 2.450 . S
O539 C523 1.242 . S
O540 Sm512 2.386 . S
O540 Sm513 2.681 . S
O540 C530 1.271 . S
O541 Sm513 2.464 . S
O541 C530 1.251 . S
O542 Sm513 2.396 . S
O542 C531 1.252 . S
O543 Sm512 2.408 . S
O543 C531 1.272 . S
H544 C516 0.930 . S
H545 C517 0.929 . S
H546 C519 0.930 . S
H547 C520 0.929 . S
H548 C525 0.930 . S
H549 C526 0.929 . S
H550 C528 0.930 . S
H551 C529 0.929 . S
Sm552 C554 2.846 . S
Sm552 O572 2.543 . S
Sm552 O573 2.450 . S
Sm552 O574 2.681 1_554 S
Sm552 O575 2.464 . S
Sm552 O576 2.396 . S
Sm552 O580 2.386 . S
Sm552 O583 2.408 . S
Sm553 C563 2.846 . S
Sm553 O574 2.386 . S
Sm553 O577 2.408 . S
Sm553 O578 2.543 . S
Sm553 O579 2.450 . S
Sm553 O580 2.681 1_556 S
Sm553 O581 2.464 . S
Sm553 O582 2.396 . S
C554 Sm552 2.846 . S
C554 C555 1.506 . S
C554 O572 1.261 . S
C554 O573 1.242 . S
C555 C554 1.506 . S
C555 C556 1.358 . S
C555 C560 1.382 1_545 S
C556 C555 1.358 . S
C556 C557 1.385 . S
C556 H584 0.930 . S
C557 C556 1.385 . S
C557 C558 1.356 1_545 S
C557 H585 0.929 . S
C558 C557 1.356 1_565 S
C558 C559 1.360 . S
C559 C558 1.360 . S
C559 C560 1.398 . S
C559 H586 0.930 . S
C560 C555 1.382 1_565 S
C560 C559 1.398 . S
C560 H587 0.929 . S
C561 O574 1.271 . S
C561 O575 1.251 1_556 S
C562 O576 1.252 . S
C562 O577 1.272 1_554 S
C563 Sm553 2.846 . S
C563 C564 1.506 . S
C563 O578 1.261 . S
C563 O579 1.242 . S
C564 C563 1.506 . S
C564 C565 1.358 . S
C564 C569 1.382 . S
C565 C564 1.358 . S
C565 C566 1.385 . S
C565 H588 0.930 . S
C566 C565 1.385 . S
C566 C567 1.395 . S
C566 H589 0.929 . S
C567 C566 1.395 . S
C567 C568 1.335 . S
C568 C567 1.335 . S
C568 C569 1.398 . S
C568 H590 0.930 . S
C569 C564 1.382 . S
C569 C568 1.398 . S
C569 H591 0.929 . S
C570 O580 1.271 . S
C570 O581 1.251 1_554 S
C571 O582 1.252 1_554 S
C571 O583 1.272 . S
O572 Sm552 2.543 . S
O572 C554 1.261 . S
O573 Sm552 2.450 . S
O573 C554 1.242 . S
O574 Sm552 2.681 1_556 S
O574 Sm553 2.386 . S
O574 C561 1.271 . S
O575 Sm552 2.464 . S
O575 C561 1.251 1_554 S
O576 Sm552 2.396 . S
O576 C562 1.252 . S
O577 Sm553 2.408 . S
O577 C562 1.272 1_556 S
O578 Sm553 2.543 . S
O578 C563 1.261 . S
O579 Sm553 2.450 . S
O579 C563 1.242 . S
O580 Sm552 2.386 . S
O580 Sm553 2.681 1_554 S
O580 C570 1.271 . S
O581 Sm553 2.464 . S
O581 C570 1.251 1_556 S
O582 Sm553 2.396 . S
O582 C571 1.252 1_556 S
O583 Sm552 2.408 . S
O583 C571 1.272 . S
H584 C556 0.930 . S
H585 C557 0.929 . S
H586 C559 0.930 . S
H587 C560 0.929 . S
H588 C565 0.930 . S
H589 C566 0.929 . S
H590 C568 0.930 . S
H591 C569 0.929 . S
Sm592 C594 2.846 . S
Sm592 O612 2.543 . S
Sm592 O613 2.450 . S
Sm592 O614 2.681 . S
Sm592 O615 2.464 . S
Sm592 O616 2.396 . S
Sm592 O620 2.386 . S
Sm592 O623 2.408 . S
Sm593 C603 2.846 . S
Sm593 O614 2.386 . S
Sm593 O617 2.408 . S
Sm593 O618 2.543 . S
Sm593 O619 2.450 . S
Sm593 O620 2.681 . S
Sm593 O621 2.464 . S
Sm593 O622 2.396 . S
C594 Sm592 2.846 . S
C594 C595 1.506 . S
C594 O612 1.261 . S
C594 O613 1.242 . S
C595 C594 1.506 . S
C595 C596 1.358 . S
C595 C600 1.382 . S
C596 C595 1.358 . S
C596 C597 1.385 . S
C596 H624 0.930 . S
C597 C596 1.385 . S
C597 C598 1.395 . S
C597 H625 0.929 . S
C598 C597 1.395 . S
C598 C599 1.335 . S
C599 C598 1.335 . S
C599 C600 1.398 . S
C599 H626 0.930 . S
C600 C595 1.382 . S
C600 C599 1.398 . S
C600 H627 0.929 . S
C601 O614 1.271 . S
C601 O615 1.251 . S
C602 O616 1.252 . S
C602 O617 1.272 . S
C603 Sm593 2.846 . S
C603 C604 1.506 . S
C603 O618 1.261 . S
C603 O619 1.242 . S
C604 C603 1.506 . S
C604 C605 1.358 . S
C604 C609 1.382 . S
C605 C604 1.358 . S
C605 C606 1.385 . S
C605 H628 0.930 . S
C606 C605 1.385 . S
C606 C607 1.395 . S
C606 H629 0.929 . S
C607 C606 1.395 . S
C607 C608 1.335 . S
C608 C607 1.335 . S
C608 C609 1.398 . S
C608 H630 0.930 . S
C609 C604 1.382 . S
C609 C608 1.398 . S
C609 H631 0.929 . S
C610 O620 1.271 . S
C610 O621 1.251 . S
C611 O622 1.252 . S
C611 O623 1.272 . S
O612 Sm592 2.543 . S
O612 C594 1.261 . S
O613 Sm592 2.450 . S
O613 C594 1.242 . S
O614 Sm592 2.681 . S
O614 Sm593 2.386 . S
O614 C601 1.271 . S
O615 Sm592 2.464 . S
O615 C601 1.251 . S
O616 Sm592 2.396 . S
O616 C602 1.252 . S
O617 Sm593 2.408 . S
O617 C602 1.272 . S
O618 Sm593 2.543 . S
O618 C603 1.261 . S
O619 Sm593 2.450 . S
O619 C603 1.242 . S
O620 Sm592 2.386 . S
O620 Sm593 2.681 . S
O620 C610 1.271 . S
O621 Sm593 2.464 . S
O621 C610 1.251 . S
O622 Sm593 2.396 . S
O622 C611 1.252 . S
O623 Sm592 2.408 . S
O623 C611 1.272 . S
H624 C596 0.930 . S
H625 C597 0.929 . S
H626 C599 0.930 . S
H627 C600 0.929 . S
H628 C605 0.930 . S
H629 C606 0.929 . S
H630 C608 0.930 . S
H631 C609 0.929 . S
Sm632 C634 2.846 1_554 S
Sm632 O652 2.543 1_554 S
Sm632 O653 2.450 . S
Sm632 O654 2.681 . S
Sm632 O655 2.464 . S
Sm632 O656 2.396 1_554 S
Sm632 O660 2.386 . S
Sm632 O663 2.408 . S
Sm633 C643 2.846 1_556 S
Sm633 O654 2.386 1_556 S
Sm633 O657 2.408 . S
Sm633 O658 2.543 1_556 S
Sm633 O659 2.450 1_556 S
Sm633 O660 2.681 1_556 S
Sm633 O661 2.464 . S
Sm633 O662 2.396 1_556 S
C634 Sm632 2.846 1_556 S
C634 C635 1.506 . S
C634 O652 1.261 . S
C634 O653 1.242 1_556 S
C635 C634 1.506 . S
C635 C636 1.358 . S
C635 C640 1.382 . S
C636 C635 1.358 . S
C636 C637 1.385 . S
C636 H664 0.930 . S
C637 C636 1.385 . S
C637 C638 1.395 . S
C637 H665 0.929 . S
C638 C637 1.395 . S
C638 C639 1.335 . S
C639 C638 1.335 . S
C639 C640 1.398 . S
C639 H666 0.930 . S
C640 C635 1.382 . S
C640 C639 1.398 . S
C640 H667 0.929 . S
C641 O654 1.271 . S
C641 O655 1.251 . S
C642 O656 1.252 . S
C642 O657 1.272 . S
C643 Sm633 2.846 1_554 S
C643 C644 1.506 . S
C643 O658 1.261 . S
C643 O659 1.242 . S
C644 C643 1.506 . S
C644 C645 1.358 . S
C644 C649 1.382 . S
C645 C644 1.358 . S
C645 C646 1.385 . S
C645 H668 0.930 . S
C646 C645 1.385 . S
C646 C647 1.395 . S
C646 H669 0.929 . S
C647 C646 1.395 . S
C647 C648 1.335 . S
C648 C647 1.335 . S
C648 C649 1.398 . S
C648 H670 0.930 . S
C649 C644 1.382 . S
C649 C648 1.398 . S
C649 H671 0.929 . S
C650 O660 1.267 1_556 S
C650 O661 1.252 . S
C651 O662 1.252 . S
C651 O663 1.272 . S
O652 Sm632 2.543 1_556 S
O652 C634 1.261 . S
O653 Sm632 2.450 . S
O653 C634 1.242 1_554 S
O654 Sm632 2.681 . S
O654 Sm633 2.386 1_554 S
O654 C641 1.271 . S
O655 Sm632 2.464 . S
O655 C641 1.251 . S
O656 Sm632 2.396 1_556 S
O656 C642 1.252 . S
O657 Sm633 2.408 . S
O657 C642 1.272 . S
O658 Sm633 2.543 1_554 S
O658 C643 1.261 . S
O659 Sm633 2.450 1_554 S
O659 C643 1.242 . S
O660 Sm632 2.386 . S
O660 Sm633 2.681 1_554 S
O660 C650 1.267 1_554 S
O661 Sm633 2.464 . S
O661 C650 1.252 . S
O662 Sm633 2.396 1_554 S
O662 C651 1.252 . S
O663 Sm632 2.408 . S
O663 C651 1.272 . S
H664 C636 0.930 . S
H665 C637 0.929 . S
H666 C639 0.930 . S
H667 C640 0.929 . S
H668 C645 0.930 . S
H669 C646 0.929 . S
H670 C648 0.930 . S
H671 C649 0.929 . S
Sm672 C674 2.846 . S
Sm672 O692 2.543 . S
Sm672 O693 2.450 . S
Sm672 O694 2.681 . S
Sm672 O695 2.464 . S
Sm672 O696 2.396 . S
Sm672 O700 2.386 . S
Sm672 O703 2.408 . S
Sm673 C683 2.846 . S
Sm673 O694 2.386 . S
Sm673 O697 2.408 . S
Sm673 O698 2.543 . S
Sm673 O699 2.450 . S
Sm673 O700 2.681 . S
Sm673 O701 2.464 . S
Sm673 O702 2.396 . S
C674 Sm672 2.846 . S
C674 C675 1.506 . S
C674 O692 1.261 . S
C674 O693 1.242 . S
C675 C674 1.506 . S
C675 C676 1.358 . S
C675 C680 1.382 . S
C676 C675 1.358 . S
C676 C677 1.385 . S
C676 H704 0.930 . S
C677 C676 1.385 . S
C677 C678 1.395 . S
C677 H705 0.929 . S
C678 C677 1.395 . S
C678 C679 1.335 . S
C679 C678 1.335 . S
C679 C680 1.398 . S
C679 H706 0.930 . S
C680 C675 1.382 . S
C680 C679 1.398 . S
C680 H707 0.929 . S
C681 O694 1.271 . S
C681 O695 1.251 . S
C682 O696 1.252 . S
C682 O697 1.272 . S
C683 Sm673 2.846 . S
C683 C684 1.506 . S
C683 O698 1.261 . S
C683 O699 1.242 . S
C684 C683 1.506 . S
C684 C685 1.358 . S
C684 C689 1.382 . S
C685 C684 1.358 . S
C685 C686 1.385 . S
C685 H708 0.930 . S
C686 C685 1.385 . S
C686 C687 1.395 . S
C686 H709 0.929 . S
C687 C686 1.395 . S
C687 C688 1.335 . S
C688 C687 1.335 . S
C688 C689 1.398 . S
C688 H710 0.930 . S
C689 C684 1.382 . S
C689 C688 1.398 . S
C689 H711 0.929 . S
C690 O700 1.271 . S
C690 O701 1.251 . S
C691 O702 1.252 . S
C691 O703 1.272 . S
O692 Sm672 2.543 . S
O692 C674 1.261 . S
O693 Sm672 2.450 . S
O693 C674 1.242 . S
O694 Sm672 2.681 . S
O694 Sm673 2.386 . S
O694 C681 1.271 . S
O695 Sm672 2.464 . S
O695 C681 1.251 . S
O696 Sm672 2.396 . S
O696 C682 1.252 . S
O697 Sm673 2.408 . S
O697 C682 1.272 . S
O698 Sm673 2.543 . S
O698 C683 1.261 . S
O699 Sm673 2.450 . S
O699 C683 1.242 . S
O700 Sm672 2.386 . S
O700 Sm673 2.681 . S
O700 C690 1.271 . S
O701 Sm673 2.464 . S
O701 C690 1.251 . S
O702 Sm673 2.396 . S
O702 C691 1.252 . S
O703 Sm672 2.408 . S
O703 C691 1.272 . S
H704 C676 0.930 . S
H705 C677 0.929 . S
H706 C679 0.930 . S
H707 C680 0.929 . S
H708 C685 0.930 . S
H709 C686 0.929 . S
H710 C688 0.930 . S
H711 C689 0.929 . S
Sm712 C714 2.846 . S
Sm712 O732 2.543 . S
Sm712 O733 2.450 . S
Sm712 O734 2.681 . S
Sm712 O735 2.464 . S
Sm712 O736 2.396 . S
Sm712 O740 2.386 . S
Sm712 O743 2.408 . S
Sm713 C723 2.846 . S
Sm713 O734 2.386 . S
Sm713 O737 2.408 1_455 S
Sm713 O738 2.543 . S
Sm713 O739 2.450 . S
Sm713 O740 2.681 . S
Sm713 O741 2.464 . S
Sm713 O742 2.396 . S
C714 Sm712 2.846 . S
C714 C715 1.478 1_455 S
C714 O732 1.261 . S
C714 O733 1.242 . S
C715 C714 1.478 1_655 S
C715 C716 1.399 . S
C715 C720 1.362 1_655 S
C716 C715 1.399 . S
C716 C717 1.385 . S
C716 H744 0.930 . S
C717 C716 1.385 . S
C717 C718 1.395 . S
C717 H745 0.929 . S
C718 C717 1.395 . S
C718 C719 1.335 . S
C719 C718 1.335 . S
C719 C720 1.378 1_655 S
C719 H746 0.930 . S
C720 C715 1.362 1_455 S
C720 C719 1.378 1_455 S
C720 H747 0.961 . S
C721 O734 1.271 . S
C721 O735 1.251 . S
C722 O736 1.252 1_655 S
C722 O737 1.272 . S
C723 Sm713 2.846 . S
C723 C724 1.506 . S
C723 O738 1.261 . S
C723 O739 1.242 . S
C724 C723 1.506 . S
C724 C725 1.358 . S
C724 C729 1.382 . S
C725 C724 1.358 . S
C725 C726 1.385 . S
C725 H748 0.930 . S
C726 C725 1.385 . S
C726 C727 1.395 . S
C726 H749 0.929 . S
C727 C726 1.395 . S
C727 C728 1.335 . S
C728 C727 1.335 . S
C728 C729 1.398 . S
C728 H750 0.930 . S
C729 C724 1.382 . S
C729 C728 1.398 . S
C729 H751 0.929 . S
C730 O740 1.271 . S
C730 O741 1.251 . S
C731 O742 1.252 . S
C731 O743 1.272 . S
O732 Sm712 2.543 . S
O732 C714 1.261 . S
O733 Sm712 2.450 . S
O733 C714 1.242 . S
O734 Sm712 2.681 . S
O734 Sm713 2.386 . S
O734 C721 1.271 . S
O735 Sm712 2.464 . S
O735 C721 1.251 . S
O736 Sm712 2.396 . S
O736 C722 1.252 1_455 S
O737 Sm713 2.408 1_655 S
O737 C722 1.272 . S
O738 Sm713 2.543 . S
O738 C723 1.261 . S
O739 Sm713 2.450 . S
O739 C723 1.242 . S
O740 Sm712 2.386 . S
O740 Sm713 2.681 . S
O740 C730 1.271 . S
O741 Sm713 2.464 . S
O741 C730 1.251 . S
O742 Sm713 2.396 . S
O742 C731 1.252 . S
O743 Sm712 2.408 . S
O743 C731 1.272 . S
H744 C716 0.930 . S
H745 C717 0.929 . S
H746 C719 0.930 . S
H747 C720 0.961 . S
H748 C725 0.930 . S
H749 C726 0.929 . S
H750 C728 0.930 . S
H751 C729 0.929 . S
Sm752 C754 2.846 . S
Sm752 O772 2.543 . S
Sm752 O773 2.450 . S
Sm752 O774 2.681 . S
Sm752 O775 2.464 . S
Sm752 O776 2.396 . S
Sm752 O780 2.386 . S
Sm752 O783 2.408 . S
Sm753 C763 2.846 . S
Sm753 O774 2.386 . S
Sm753 O777 2.408 . S
Sm753 O778 2.543 . S
Sm753 O779 2.450 . S
Sm753 O780 2.681 . S
Sm753 O781 2.464 . S
Sm753 O782 2.396 . S
C754 Sm752 2.846 . S
C754 C755 1.506 . S
C754 O772 1.261 . S
C754 O773 1.242 . S
C755 C754 1.506 . S
C755 C756 1.358 . S
C755 C760 1.382 . S
C756 C755 1.358 . S
C756 C757 1.385 . S
C756 H784 0.930 . S
C757 C756 1.385 . S
C757 C758 1.395 . S
C757 H785 0.929 . S
C758 C757 1.395 . S
C758 C759 1.335 . S
C759 C758 1.335 . S
C759 C760 1.398 . S
C759 H786 0.930 . S
C760 C755 1.382 . S
C760 C759 1.398 . S
C760 H787 0.929 . S
C761 O774 1.271 . S
C761 O775 1.251 . S
C762 O776 1.252 . S
C762 O777 1.272 . S
C763 Sm753 2.846 . S
C763 C764 1.506 . S
C763 O778 1.261 . S
C763 O779 1.242 . S
C764 C763 1.506 . S
C764 C765 1.358 . S
C764 C769 1.382 . S
C765 C764 1.358 . S
C765 C766 1.385 . S
C765 H788 0.930 . S
C766 C765 1.385 . S
C766 C767 1.395 . S
C766 H789 0.929 . S
C767 C766 1.395 . S
C767 C768 1.335 . S
C768 C767 1.335 . S
C768 C769 1.398 . S
C768 H790 0.930 . S
C769 C764 1.382 . S
C769 C768 1.398 . S
C769 H791 0.929 . S
C770 O780 1.271 . S
C770 O781 1.251 . S
C771 O782 1.252 . S
C771 O783 1.272 . S
O772 Sm752 2.543 . S
O772 C754 1.261 . S
O773 Sm752 2.450 . S
O773 C754 1.242 . S
O774 Sm752 2.681 . S
O774 Sm753 2.386 . S
O774 C761 1.271 . S
O775 Sm752 2.464 . S
O775 C761 1.251 . S
O776 Sm752 2.396 . S
O776 C762 1.252 . S
O777 Sm753 2.408 . S
O777 C762 1.272 . S
O778 Sm753 2.543 . S
O778 C763 1.261 . S
O779 Sm753 2.450 . S
O779 C763 1.242 . S
O780 Sm752 2.386 . S
O780 Sm753 2.681 . S
O780 C770 1.271 . S
O781 Sm753 2.464 . S
O781 C770 1.251 . S
O782 Sm753 2.396 . S
O782 C771 1.252 . S
O783 Sm752 2.408 . S
O783 C771 1.272 . S
H784 C756 0.930 . S
H785 C757 0.929 . S
H786 C759 0.930 . S
H787 C760 0.929 . S
H788 C765 0.930 . S
H789 C766 0.929 . S
H790 C768 0.930 . S
H791 C769 0.929 . S
Sm792 C794 2.846 . S
Sm792 O812 2.543 . S
Sm792 O813 2.450 . S
Sm792 O814 2.681 . S
Sm792 O815 2.464 . S
Sm792 O816 2.396 . S
Sm792 O820 2.386 . S
Sm792 O823 2.408 . S
Sm793 C803 2.846 . S
Sm793 O814 2.386 . S
Sm793 O817 2.408 . S
Sm793 O818 2.543 . S
Sm793 O819 2.450 . S
Sm793 O820 2.681 . S
Sm793 O821 2.464 . S
Sm793 O822 2.396 . S
C794 Sm792 2.846 . S
C794 C795 1.506 . S
C794 O812 1.261 . S
C794 O813 1.242 . S
C795 C794 1.506 . S
C795 C796 1.358 . S
C795 C800 1.382 . S
C796 C795 1.358 . S
C796 C797 1.385 . S
C796 H824 0.930 . S
C797 C796 1.385 . S
C797 C798 1.395 . S
C797 H825 0.929 . S
C798 C797 1.395 . S
C798 C799 1.335 . S
C799 C798 1.335 . S
C799 C800 1.398 . S
C799 H826 0.930 . S
C800 C795 1.382 . S
C800 C799 1.398 . S
C800 H827 0.929 . S
C801 O814 1.271 . S
C801 O815 1.251 . S
C802 O816 1.252 . S
C802 O817 1.272 . S
C803 Sm793 2.846 . S
C803 C804 1.506 . S
C803 O818 1.261 . S
C803 O819 1.242 . S
C804 C803 1.506 . S
C804 C805 1.358 . S
C804 C809 1.382 . S
C805 C804 1.358 . S
C805 C806 1.385 . S
C805 H828 0.930 . S
C806 C805 1.385 . S
C806 C807 1.395 . S
C806 H829 0.929 . S
C807 C806 1.395 . S
C807 C808 1.335 . S
C808 C807 1.335 . S
C808 C809 1.398 . S
C808 H830 0.930 . S
C809 C804 1.382 . S
C809 C808 1.398 . S
C809 H831 0.929 . S
C810 O820 1.271 . S
C810 O821 1.251 . S
C811 O822 1.252 . S
C811 O823 1.272 . S
O812 Sm792 2.543 . S
O812 C794 1.261 . S
O813 Sm792 2.450 . S
O813 C794 1.242 . S
O814 Sm792 2.681 . S
O814 Sm793 2.386 . S
O814 C801 1.271 . S
O815 Sm792 2.464 . S
O815 C801 1.251 . S
O816 Sm792 2.396 . S
O816 C802 1.252 . S
O817 Sm793 2.408 . S
O817 C802 1.272 . S
O818 Sm793 2.543 . S
O818 C803 1.261 . S
O819 Sm793 2.450 . S
O819 C803 1.242 . S
O820 Sm792 2.386 . S
O820 Sm793 2.681 . S
O820 C810 1.271 . S
O821 Sm793 2.464 . S
O821 C810 1.251 . S
O822 Sm793 2.396 . S
O822 C811 1.252 . S
O823 Sm792 2.408 . S
O823 C811 1.272 . S
H824 C796 0.930 . S
H825 C797 0.929 . S
H826 C799 0.930 . S
H827 C800 0.929 . S
H828 C805 0.930 . S
H829 C806 0.929 . S
H830 C808 0.930 . S
H831 C809 0.929 . S
Sm832 C834 2.846 . S
Sm832 O852 2.543 . S
Sm832 O853 2.450 . S
Sm832 O854 2.681 . S
Sm832 O855 2.464 . S
Sm832 O856 2.396 . S
Sm832 O860 2.386 . S
Sm832 O863 2.408 . S
Sm833 C843 2.846 . S
Sm833 O854 2.386 . S
Sm833 O857 2.408 . S
Sm833 O858 2.543 . S
Sm833 O859 2.450 . S
Sm833 O860 2.681 . S
Sm833 O861 2.464 . S
Sm833 O862 2.396 . S
C834 Sm832 2.846 . S
C834 C835 1.506 . S
C834 O852 1.261 . S
C834 O853 1.242 . S
C835 C834 1.506 . S
C835 C836 1.358 . S
C835 C840 1.382 . S
C836 C835 1.358 . S
C836 C837 1.385 . S
C836 H864 0.930 . S
C837 C836 1.385 . S
C837 C838 1.395 . S
C837 H865 0.929 . S
C838 C837 1.395 . S
C838 C839 1.335 . S
C839 C838 1.335 . S
C839 C840 1.398 . S
C839 H866 0.930 . S
C840 C835 1.382 . S
C840 C839 1.398 . S
C840 H867 0.929 . S
C841 O854 1.271 . S
C841 O855 1.251 . S
C842 O856 1.252 . S
C842 O857 1.272 . S
C843 Sm833 2.846 . S
C843 C844 1.506 . S
C843 O858 1.261 . S
C843 O859 1.242 . S
C844 C843 1.506 . S
C844 C845 1.358 . S
C844 C849 1.382 . S
C845 C844 1.358 . S
C845 C846 1.385 . S
C845 H868 0.930 . S
C846 C845 1.385 . S
C846 C847 1.395 . S
C846 H869 0.929 . S
C847 C846 1.395 . S
C847 C848 1.335 . S
C848 C847 1.335 . S
C848 C849 1.398 . S
C848 H870 0.930 . S
C849 C844 1.382 . S
C849 C848 1.398 . S
C849 H871 0.929 . S
C850 O860 1.271 . S
C850 O861 1.251 . S
C851 O862 1.252 . S
C851 O863 1.272 . S
O852 Sm832 2.543 . S
O852 C834 1.261 . S
O853 Sm832 2.450 . S
O853 C834 1.242 . S
O854 Sm832 2.681 . S
O854 Sm833 2.386 . S
O854 C841 1.271 . S
O855 Sm832 2.464 . S
O855 C841 1.251 . S
O856 Sm832 2.396 . S
O856 C842 1.252 . S
O857 Sm833 2.408 . S
O857 C842 1.272 . S
O858 Sm833 2.543 . S
O858 C843 1.261 . S
O859 Sm833 2.450 . S
O859 C843 1.242 . S
O860 Sm832 2.386 . S
O860 Sm833 2.681 . S
O860 C850 1.271 . S
O861 Sm833 2.464 . S
O861 C850 1.251 . S
O862 Sm833 2.396 . S
O862 C851 1.252 . S
O863 Sm832 2.408 . S
O863 C851 1.272 . S
H864 C836 0.930 . S
H865 C837 0.929 . S
H866 C839 0.930 . S
H867 C840 0.929 . S
H868 C845 0.930 . S
H869 C846 0.929 . S
H870 C848 0.930 . S
H871 C849 0.929 . S
Sm872 C874 2.846 . S
Sm872 O892 2.543 . S
Sm872 O893 2.450 . S
Sm872 O894 2.681 . S
Sm872 O895 2.464 . S
Sm872 O896 2.396 . S
Sm872 O900 2.386 . S
Sm872 O903 2.408 . S
Sm873 C883 2.846 . S
Sm873 O894 2.386 . S
Sm873 O897 2.408 . S
Sm873 O898 2.543 . S
Sm873 O899 2.450 . S
Sm873 O900 2.681 . S
Sm873 O901 2.464 . S
Sm873 O902 2.396 . S
C874 Sm872 2.846 . S
C874 C875 1.506 . S
C874 O892 1.261 . S
C874 O893 1.242 . S
C875 C874 1.506 . S
C875 C876 1.358 . S
C875 C880 1.382 . S
C876 C875 1.358 . S
C876 C877 1.385 . S
C876 H904 0.930 . S
C877 C876 1.385 . S
C877 C878 1.395 . S
C877 H905 0.929 . S
C878 C877 1.395 . S
C878 C879 1.335 . S
C879 C878 1.335 . S
C879 C880 1.398 . S
C879 H906 0.930 . S
C880 C875 1.382 . S
C880 C879 1.398 . S
C880 H907 0.929 . S
C881 O894 1.271 . S
C881 O895 1.251 . S
C882 O896 1.252 . S
C882 O897 1.272 . S
C883 Sm873 2.846 . S
C883 C884 1.506 . S
C883 O898 1.261 . S
C883 O899 1.242 . S
C884 C883 1.506 . S
C884 C885 1.358 . S
C884 C889 1.382 . S
C885 C884 1.358 . S
C885 C886 1.385 . S
C885 H908 0.930 . S
C886 C885 1.385 . S
C886 C887 1.395 . S
C886 H909 0.929 . S
C887 C886 1.395 . S
C887 C888 1.335 . S
C888 C887 1.335 . S
C888 C889 1.398 . S
C888 H910 0.930 . S
C889 C884 1.382 . S
C889 C888 1.398 . S
C889 H911 0.929 . S
C890 O900 1.271 . S
C890 O901 1.251 . S
C891 O902 1.252 . S
C891 O903 1.272 . S
O892 Sm872 2.543 . S
O892 C874 1.261 . S
O893 Sm872 2.450 . S
O893 C874 1.242 . S
O894 Sm872 2.681 . S
O894 Sm873 2.386 . S
O894 C881 1.271 . S
O895 Sm872 2.464 . S
O895 C881 1.251 . S
O896 Sm872 2.396 . S
O896 C882 1.252 . S
O897 Sm873 2.408 . S
O897 C882 1.272 . S
O898 Sm873 2.543 . S
O898 C883 1.261 . S
O899 Sm873 2.450 . S
O899 C883 1.242 . S
O900 Sm872 2.386 . S
O900 Sm873 2.681 . S
O900 C890 1.271 . S
O901 Sm873 2.464 . S
O901 C890 1.251 . S
O902 Sm873 2.396 . S
O902 C891 1.252 . S
O903 Sm872 2.408 . S
O903 C891 1.272 . S
H904 C876 0.930 . S
H905 C877 0.929 . S
H906 C879 0.930 . S
H907 C880 0.929 . S
H908 C885 0.930 . S
H909 C886 0.929 . S
H910 C888 0.930 . S
H911 C889 0.929 . S
Sm912 C914 2.846 . S
Sm912 O932 2.543 . S
Sm912 O933 2.450 1_554 S
Sm912 O934 2.681 . S
Sm912 O935 2.464 1_554 S
Sm912 O936 2.396 . S
Sm912 O940 2.386 . S
Sm912 O943 2.408 . S
Sm913 C923 2.846 1_455 S
Sm913 O934 2.386 . S
Sm913 O937 2.408 . S
Sm913 O938 2.543 1_455 S
Sm913 O939 2.450 1_455 S
Sm913 O940 2.681 . S
Sm913 O941 2.464 . S
Sm913 O942 2.396 . S
C914 Sm912 2.846 . S
C914 C915 1.506 . S
C914 O932 1.261 . S
C914 O933 1.242 1_554 S
C915 C914 1.506 . S
C915 C916 1.358 . S
C915 C920 1.382 1_554 S
C916 C915 1.358 . S
C916 C917 1.385 . S
C916 H944 0.930 . S
C917 C916 1.385 . S
C917 C918 1.395 1_554 S
C917 H945 0.929 . S
C918 C917 1.395 1_556 S
C918 C919 1.335 . S
C919 C918 1.335 . S
C919 C920 1.398 . S
C919 H946 0.930 . S
C920 C915 1.382 1_556 S
C920 C919 1.398 . S
C920 H947 0.929 . S
C921 O934 1.271 1_556 S
C921 O935 1.251 . S
C922 O936 1.252 . S
C922 O937 1.272 . S
C923 Sm913 2.846 1_655 S
C923 C924 1.506 . S
C923 O938 1.261 . S
C923 O939 1.242 . S
C924 C923 1.506 . S
C924 C925 1.358 . S
C924 C929 1.382 . S
C925 C924 1.358 . S
C925 C926 1.385 . S
C925 H948 0.930 . S
C926 C925 1.385 . S
C926 C927 1.395 . S
C926 H949 0.929 . S
C927 C926 1.395 . S
C927 C928 1.335 . S
C928 C927 1.335 . S
C928 C929 1.398 . S
C928 H950 0.930 . S
C929 C924 1.382 . S
C929 C928 1.398 . S
C929 H951 0.929 . S
C930 O940 1.271 . S
C930 O941 1.251 . S
C931 O942 1.252 . S
C931 O943 1.272 . S
O932 Sm912 2.543 . S
O932 C914 1.261 . S
O933 Sm912 2.450 1_556 S
O933 C914 1.242 1_556 S
O934 Sm912 2.681 . S
O934 Sm913 2.386 . S
O934 C921 1.271 1_554 S
O935 Sm912 2.464 1_556 S
O935 C921 1.251 . S
O936 Sm912 2.396 . S
O936 C922 1.252 . S
O937 Sm913 2.408 . S
O937 C922 1.272 . S
O938 Sm913 2.543 1_655 S
O938 C923 1.261 . S
O939 Sm913 2.450 1_655 S
O939 C923 1.242 . S
O940 Sm912 2.386 . S
O940 Sm913 2.681 . S
O940 C930 1.271 . S
O941 Sm913 2.464 . S
O941 C930 1.251 . S
O942 Sm913 2.396 . S
O942 C931 1.252 . S
O943 Sm912 2.408 . S
O943 C931 1.272 . S
H944 C916 0.930 . S
H945 C917 0.929 . S
H946 C919 0.930 . S
H947 C920 0.929 . S
H948 C925 0.930 . S
H949 C926 0.929 . S
H950 C928 0.930 . S
H951 C929 0.929 . S
H952 C964 0.930 . S
H953 C966 0.930 . S
H954 C967 0.930 1_554 S
H955 C971 0.959 . S
H956 C971 0.959 . S
H957 C971 0.961 . S
H958 C972 0.960 . S
H959 C972 0.961 . S
H960 C972 0.959 . S
H961 C975 0.929 . S
H962 C976 0.931 . S
H963 C978 0.930 . S
C964 H952 0.930 . S
C964 C965 1.399 . S
C964 C969 1.399 . S
C965 C964 1.399 . S
C965 C966 1.376 . S
C966 H953 0.930 . S
C966 C965 1.376 . S
C966 C967 1.388 . S
C967 H954 0.930 1_556 S
C967 C966 1.388 . S
C967 C968 1.390 . S
C968 C967 1.390 . S
C968 C969 1.394 . S
C968 C974 1.465 . S
C969 C964 1.399 . S
C969 C968 1.394 . S
C969 C970 1.516 . S
C970 C969 1.516 . S
C970 C971 1.502 1_455 S
C970 C972 1.561 . S
C970 C973 1.526 . S
C971 H955 0.959 . S
C971 H956 0.959 . S
C971 H957 0.961 . S
C971 C970 1.502 1_655 S
C972 H958 0.960 . S
C972 H959 0.961 . S
C972 H960 0.959 . S
C972 C970 1.561 . S
C973 C970 1.526 . S
C973 C974 1.396 . S
C973 C978 1.390 . S
C974 C968 1.465 . S
C974 C973 1.396 . S
C974 C975 1.399 1_556 S
C975 H961 0.929 . S
C975 C974 1.399 1_554 S
C975 C976 1.385 . S
C976 H962 0.931 . S
C976 C975 1.385 . S
C976 C977 1.389 . S
C977 C976 1.389 . S
C977 C978 1.387 1_554 S
C978 H963 0.930 . S
C978 C973 1.390 . S
C978 C977 1.387 1_556 S
H979 C991 0.930 . S
H980 C993 0.930 . S
H981 C994 0.930 . S
H982 C998 0.959 . S
H983 C998 0.959 . S
H984 C998 0.961 . S
H985 C999 0.960 . S
H986 C999 0.961 . S
H987 C999 0.959 . S
H988 C1002 0.929 . S
H989 C1003 0.931 . S
H990 C1005 0.930 . S
C991 H979 0.930 . S
C991 C992 1.399 . S
C991 C996 1.399 . S
C992 C991 1.399 . S
C992 C993 1.376 . S
C993 H980 0.930 . S
C993 C992 1.376 . S
C993 C994 1.388 . S
C994 H981 0.930 . S
C994 C993 1.388 . S
C994 C995 1.390 . S
C995 C994 1.390 . S
C995 C996 1.394 . S
C995 C1001 1.465 . S
C996 C991 1.399 . S
C996 C995 1.394 . S
C996 C997 1.516 . S
C997 C996 1.516 . S
C997 C998 1.502 . S
C997 C999 1.561 . S
C997 C1000 1.526 . S
C998 H982 0.959 . S
C998 H983 0.959 . S
C998 H984 0.961 . S
C998 C997 1.502 . S
C999 H985 0.960 . S
C999 H986 0.961 . S
C999 H987 0.959 . S
C999 C997 1.561 . S
C1000 C997 1.526 . S
C1000 C1001 1.396 . S
C1000 C1005 1.390 . S
C1001 C995 1.465 . S
C1001 C1000 1.396 . S
C1001 C1002 1.399 . S
C1002 H988 0.929 . S
C1002 C1001 1.399 . S
C1002 C1003 1.385 . S
C1003 H989 0.931 . S
C1003 C1002 1.385 . S
C1003 C1004 1.389 . S
C1004 C1003 1.389 . S
C1004 C1005 1.387 . S
C1005 H990 0.930 . S
C1005 C1000 1.390 . S
C1005 C1004 1.387 . S
H1006 C1018 0.930 . S
H1007 C1020 0.930 . S
H1008 C1021 0.930 . S
H1009 C1025 0.959 . S
H1010 C1025 0.959 . S
H1011 C1025 0.961 . S
H1012 C1026 0.960 . S
H1013 C1026 0.961 . S
H1014 C1026 0.959 . S
H1015 C1029 0.929 . S
H1016 C1030 0.931 . S
H1017 C1032 0.930 . S
C1018 H1006 0.930 . S
C1018 C1019 1.399 . S
C1018 C1023 1.399 . S
C1019 C1018 1.399 . S
C1019 C1020 1.376 . S
C1020 H1007 0.930 . S
C1020 C1019 1.376 . S
C1020 C1021 1.388 . S
C1021 H1008 0.930 . S
C1021 C1020 1.388 . S
C1021 C1022 1.390 . S
C1022 C1021 1.390 . S
C1022 C1023 1.394 . S
C1022 C1028 1.465 . S
C1023 C1018 1.399 . S
C1023 C1022 1.394 . S
C1023 C1024 1.516 . S
C1024 C1023 1.516 . S
C1024 C1025 1.502 . S
C1024 C1026 1.561 . S
C1024 C1027 1.526 . S
C1025 H1009 0.959 . S
C1025 H1010 0.959 . S
C1025 H1011 0.961 . S
C1025 C1024 1.502 . S
C1026 H1012 0.960 . S
C1026 H1013 0.961 . S
C1026 H1014 0.959 . S
C1026 C1024 1.561 . S
C1027 C1024 1.526 . S
C1027 C1028 1.396 . S
C1027 C1032 1.390 . S
C1028 C1022 1.465 . S
C1028 C1027 1.396 . S
C1028 C1029 1.399 . S
C1029 H1015 0.929 . S
C1029 C1028 1.399 . S
C1029 C1030 1.385 . S
C1030 H1016 0.931 . S
C1030 C1029 1.385 . S
C1030 C1031 1.389 . S
C1031 C1030 1.389 . S
C1031 C1032 1.387 . S
C1032 H1017 0.930 . S
C1032 C1027 1.390 . S
C1032 C1031 1.387 . S
H1033 C1045 0.930 . S
H1034 C1047 0.930 . S
H1035 C1048 0.930 . S
H1036 C1052 0.959 . S
H1037 C1052 0.959 . S
H1038 C1052 0.961 . S
H1039 C1053 0.960 . S
H1040 C1053 0.961 . S
H1041 C1053 0.959 . S
H1042 C1056 0.929 . S
H1043 C1057 0.931 . S
H1044 C1059 0.930 . S
C1045 H1033 0.930 . S
C1045 C1046 1.399 . S
C1045 C1050 1.399 . S
C1046 C1045 1.399 . S
C1046 C1047 1.376 . S
C1047 H1034 0.930 . S
C1047 C1046 1.376 . S
C1047 C1048 1.388 . S
C1048 H1035 0.930 . S
C1048 C1047 1.388 . S
C1048 C1049 1.390 . S
C1049 C1048 1.390 . S
C1049 C1050 1.394 . S
C1049 C1055 1.465 . S
C1050 C1045 1.399 . S
C1050 C1049 1.394 . S
C1050 C1051 1.516 . S
C1051 C1050 1.516 . S
C1051 C1052 1.502 . S
C1051 C1053 1.561 . S
C1051 C1054 1.526 . S
C1052 H1036 0.959 . S
C1052 H1037 0.959 . S
C1052 H1038 0.961 . S
C1052 C1051 1.502 . S
C1053 H1039 0.960 . S
C1053 H1040 0.961 . S
C1053 H1041 0.959 . S
C1053 C1051 1.561 . S
C1054 C1051 1.526 . S
C1054 C1055 1.396 . S
C1054 C1059 1.390 . S
C1055 C1049 1.465 . S
C1055 C1054 1.396 . S
C1055 C1056 1.399 . S
C1056 H1042 0.929 . S
C1056 C1055 1.399 . S
C1056 C1057 1.385 . S
C1057 H1043 0.931 . S
C1057 C1056 1.385 . S
C1057 C1058 1.389 . S
C1058 C1057 1.389 . S
C1058 C1059 1.387 . S
C1059 H1044 0.930 . S
C1059 C1054 1.390 . S
C1059 C1058 1.387 . S
H1060 C1072 0.930 . S
H1061 C1074 0.930 . S
H1062 C1075 0.930 . S
H1063 C1079 0.959 . S
H1064 C1079 0.959 . S
H1065 C1079 0.961 . S
H1066 C1080 0.960 . S
H1067 C1080 0.961 . S
H1068 C1080 0.959 . S
H1069 C1083 0.929 . S
H1070 C1084 0.931 . S
H1071 C1086 0.930 . S
C1072 H1060 0.930 . S
C1072 C1073 1.399 . S
C1072 C1077 1.399 . S
C1073 C1072 1.399 . S
C1073 C1074 1.376 . S
C1074 H1061 0.930 . S
C1074 C1073 1.376 . S
C1074 C1075 1.388 . S
C1075 H1062 0.930 . S
C1075 C1074 1.388 . S
C1075 C1076 1.390 . S
C1076 C1075 1.390 . S
C1076 C1077 1.394 . S
C1076 C1082 1.465 . S
C1077 C1072 1.399 . S
C1077 C1076 1.394 . S
C1077 C1078 1.516 . S
C1078 C1077 1.516 . S
C1078 C1079 1.502 . S
C1078 C1080 1.561 . S
C1078 C1081 1.526 . S
C1079 H1063 0.959 . S
C1079 H1064 0.959 . S
C1079 H1065 0.961 . S
C1079 C1078 1.502 . S
C1080 H1066 0.960 . S
C1080 H1067 0.961 . S
C1080 H1068 0.959 . S
C1080 C1078 1.561 . S
C1081 C1078 1.526 . S
C1081 C1082 1.396 . S
C1081 C1086 1.390 . S
C1082 C1076 1.465 . S
C1082 C1081 1.396 . S
C1082 C1083 1.399 . S
C1083 H1069 0.929 . S
C1083 C1082 1.399 . S
C1083 C1084 1.385 . S
C1084 H1070 0.931 . S
C1084 C1083 1.385 . S
C1084 C1085 1.389 . S
C1085 C1084 1.389 . S
C1085 C1086 1.387 . S
C1086 H1071 0.930 . S
C1086 C1081 1.390 . S
C1086 C1085 1.387 . S
H1087 C1099 0.930 . S
H1088 C1101 0.930 . S
H1089 C1102 0.930 . S
H1090 C1106 0.959 . S
H1091 C1106 0.959 . S
H1092 C1106 0.961 . S
H1093 C1107 0.960 . S
H1094 C1107 0.961 . S
H1095 C1107 0.959 . S
H1096 C1110 0.929 . S
H1097 C1111 0.931 . S
H1098 C1113 0.930 . S
C1099 H1087 0.930 . S
C1099 C1100 1.399 . S
C1099 C1104 1.399 . S
C1100 C1099 1.399 . S
C1100 C1101 1.376 . S
C1101 H1088 0.930 . S
C1101 C1100 1.376 . S
C1101 C1102 1.388 . S
C1102 H1089 0.930 . S
C1102 C1101 1.388 . S
C1102 C1103 1.390 . S
C1103 C1102 1.390 . S
C1103 C1104 1.394 . S
C1103 C1109 1.465 . S
C1104 C1099 1.399 . S
C1104 C1103 1.394 . S
C1104 C1105 1.516 . S
C1105 C1104 1.516 . S
C1105 C1106 1.502 . S
C1105 C1107 1.561 . S
C1105 C1108 1.526 . S
C1106 H1090 0.959 . S
C1106 H1091 0.959 . S
C1106 H1092 0.961 . S
C1106 C1105 1.502 . S
C1107 H1093 0.960 . S
C1107 H1094 0.961 . S
C1107 H1095 0.959 . S
C1107 C1105 1.561 . S
C1108 C1105 1.526 . S
C1108 C1109 1.396 . S
C1108 C1113 1.390 . S
C1109 C1103 1.465 . S
C1109 C1108 1.396 . S
C1109 C1110 1.399 . S
C1110 H1096 0.929 . S
C1110 C1109 1.399 . S
C1110 C1111 1.385 . S
C1111 H1097 0.931 . S
C1111 C1110 1.385 . S
C1111 C1112 1.389 . S
C1112 C1111 1.389 . S
C1112 C1113 1.387 . S
C1113 H1098 0.930 . S
C1113 C1108 1.390 . S
C1113 C1112 1.387 . S
H1114 C1126 0.930 . S
H1115 C1128 0.930 . S
H1116 C1129 0.930 . S
H1117 C1133 0.959 . S
H1118 C1133 0.959 . S
H1119 C1133 0.961 . S
H1120 C1134 0.960 . S
H1121 C1134 0.961 . S
H1122 C1134 0.959 . S
H1123 C1137 0.929 . S
H1124 C1138 0.931 . S
H1125 C1140 0.930 . S
C1126 H1114 0.930 . S
C1126 C1127 1.399 . S
C1126 C1131 1.399 . S
C1127 C1126 1.399 . S
C1127 C1128 1.376 . S
C1128 H1115 0.930 . S
C1128 C1127 1.376 . S
C1128 C1129 1.388 . S
C1129 H1116 0.930 . S
C1129 C1128 1.388 . S
C1129 C1130 1.390 . S
C1130 C1129 1.390 . S
C1130 C1131 1.394 . S
C1130 C1136 1.465 . S
C1131 C1126 1.399 . S
C1131 C1130 1.394 . S
C1131 C1132 1.516 . S
C1132 C1131 1.516 . S
C1132 C1133 1.502 . S
C1132 C1134 1.561 . S
C1132 C1135 1.526 . S
C1133 H1117 0.959 . S
C1133 H1118 0.959 . S
C1133 H1119 0.961 . S
C1133 C1132 1.502 . S
C1134 H1120 0.960 . S
C1134 H1121 0.961 . S
C1134 H1122 0.959 . S
C1134 C1132 1.561 . S
C1135 C1132 1.526 . S
C1135 C1136 1.396 . S
C1135 C1140 1.390 . S
C1136 C1130 1.465 . S
C1136 C1135 1.396 . S
C1136 C1137 1.399 . S
C1137 H1123 0.929 . S
C1137 C1136 1.399 . S
C1137 C1138 1.385 . S
C1138 H1124 0.931 . S
C1138 C1137 1.385 . S
C1138 C1139 1.389 . S
C1139 C1138 1.389 . S
C1139 C1140 1.387 . S
C1140 H1125 0.930 . S
C1140 C1135 1.390 . S
C1140 C1139 1.387 . S
H1141 C1153 0.930 . S
H1142 C1155 0.930 . S
H1143 C1156 0.930 . S
H1144 C1160 0.959 . S
H1145 C1160 0.959 . S
H1146 C1160 0.961 . S
H1147 C1161 0.960 . S
H1148 C1161 0.961 . S
H1149 C1161 0.959 . S
H1150 C1164 0.929 . S
H1151 C1165 0.931 . S
H1152 C1167 0.930 . S
C1153 H1141 0.930 . S
C1153 C1154 1.399 . S
C1153 C1158 1.399 . S
C1154 C1153 1.399 . S
C1154 C1155 1.376 . S
C1155 H1142 0.930 . S
C1155 C1154 1.376 . S
C1155 C1156 1.388 . S
C1156 H1143 0.930 . S
C1156 C1155 1.388 . S
C1156 C1157 1.390 . S
C1157 C1156 1.390 . S
C1157 C1158 1.394 . S
C1157 C1163 1.465 . S
C1158 C1153 1.399 . S
C1158 C1157 1.394 . S
C1158 C1159 1.516 . S
C1159 C1158 1.516 . S
C1159 C1160 1.502 . S
C1159 C1161 1.561 . S
C1159 C1162 1.526 . S
C1160 H1144 0.959 . S
C1160 H1145 0.959 . S
C1160 H1146 0.961 . S
C1160 C1159 1.502 . S
C1161 H1147 0.960 . S
C1161 H1148 0.961 . S
C1161 H1149 0.959 . S
C1161 C1159 1.561 . S
C1162 C1159 1.526 . S
C1162 C1163 1.396 . S
C1162 C1167 1.390 . S
C1163 C1157 1.465 . S
C1163 C1162 1.396 . S
C1163 C1164 1.399 . S
C1164 H1150 0.929 . S
C1164 C1163 1.399 . S
C1164 C1165 1.385 . S
C1165 H1151 0.931 . S
C1165 C1164 1.385 . S
C1165 C1166 1.389 . S
C1166 C1165 1.389 . S
C1166 C1167 1.387 . S
C1167 H1152 0.930 . S
C1167 C1162 1.390 . S
C1167 C1166 1.387 . S
H1168 C1180 0.930 . S
H1169 C1182 0.930 . S
H1170 C1183 0.930 . S
H1171 C1187 0.959 . S
H1172 C1187 0.959 . S
H1173 C1187 0.961 . S
H1174 C1188 0.960 . S
H1175 C1188 0.961 . S
H1176 C1188 0.959 . S
H1177 C1191 0.929 . S
H1178 C1192 0.931 . S
H1179 C1194 0.930 . S
C1180 H1168 0.930 . S
C1180 C1181 1.399 . S
C1180 C1185 1.399 . S
C1181 C1180 1.399 . S
C1181 C1182 1.376 . S
C1182 H1169 0.930 . S
C1182 C1181 1.376 . S
C1182 C1183 1.388 1_655 S
C1183 H1170 0.930 . S
C1183 C1182 1.388 1_455 S
C1183 C1184 1.390 . S
C1184 C1183 1.390 . S
C1184 C1185 1.394 1_455 S
C1184 C1190 1.465 . S
C1185 C1180 1.399 . S
C1185 C1184 1.394 1_655 S
C1185 C1186 1.516 . S
C1186 C1185 1.516 . S
C1186 C1187 1.502 . S
C1186 C1188 1.561 . S
C1186 C1189 1.526 1_655 S
C1187 H1171 0.959 . S
C1187 H1172 0.959 . S
C1187 H1173 0.961 . S
C1187 C1186 1.502 . S
C1188 H1174 0.960 . S
C1188 H1175 0.961 . S
C1188 H1176 0.959 . S
C1188 C1186 1.561 . S
C1189 C1186 1.526 1_455 S
C1189 C1190 1.396 . S
C1189 C1194 1.390 . S
C1190 C1184 1.465 . S
C1190 C1189 1.396 . S
C1190 C1191 1.399 . S
C1191 H1177 0.929 . S
C1191 C1190 1.399 . S
C1191 C1192 1.385 . S
C1192 H1178 0.931 . S
C1192 C1191 1.385 . S
C1192 C1193 1.389 . S
C1193 C1192 1.389 . S
C1193 C1194 1.387 . S
C1194 H1179 0.930 . S
C1194 C1189 1.390 . S
C1194 C1193 1.387 . S
H1195 C1207 0.930 . S
H1196 C1209 0.930 . S
H1197 C1210 0.930 . S
H1198 C1214 0.959 . S
H1199 C1214 0.959 . S
H1200 C1214 0.961 . S
H1201 C1215 0.960 . S
H1202 C1215 0.961 . S
H1203 C1215 0.959 . S
H1204 C1218 0.929 . S
H1205 C1219 0.931 . S
H1206 C1221 0.930 . S
C1207 H1195 0.930 . S
C1207 C1208 1.399 . S
C1207 C1212 1.399 . S
C1208 C1207 1.399 . S
C1208 C1209 1.376 . S
C1209 H1196 0.930 . S
C1209 C1208 1.376 . S
C1209 C1210 1.388 . S
C1210 H1197 0.930 . S
C1210 C1209 1.388 . S
C1210 C1211 1.390 . S
C1211 C1210 1.390 . S
C1211 C1212 1.394 . S
C1211 C1217 1.465 . S
C1212 C1207 1.399 . S
C1212 C1211 1.394 . S
C1212 C1213 1.516 . S
C1213 C1212 1.516 . S
C1213 C1214 1.502 . S
C1213 C1215 1.561 . S
C1213 C1216 1.526 . S
C1214 H1198 0.959 . S
C1214 H1199 0.959 . S
C1214 H1200 0.961 . S
C1214 C1213 1.502 . S
C1215 H1201 0.960 . S
C1215 H1202 0.961 . S
C1215 H1203 0.959 . S
C1215 C1213 1.561 . S
C1216 C1213 1.526 . S
C1216 C1217 1.396 . S
C1216 C1221 1.390 . S
C1217 C1211 1.465 . S
C1217 C1216 1.396 . S
C1217 C1218 1.399 . S
C1218 H1204 0.929 . S
C1218 C1217 1.399 . S
C1218 C1219 1.385 . S
C1219 H1205 0.931 . S
C1219 C1218 1.385 . S
C1219 C1220 1.389 . S
C1220 C1219 1.389 . S
C1220 C1221 1.387 . S
C1221 H1206 0.930 . S
C1221 C1216 1.390 . S
C1221 C1220 1.387 . S
H1222 C1234 0.930 . S
H1223 C1236 0.930 . S
H1224 C1237 0.930 . S
H1225 C1241 0.959 . S
H1226 C1241 0.959 . S
H1227 C1241 0.961 . S
H1228 C1242 0.960 . S
H1229 C1242 0.961 . S
H1230 C1242 0.959 . S
H1231 C1245 0.929 1_565 S
H1232 C1246 0.931 1_565 S
H1233 C1248 0.930 . S
C1234 H1222 0.930 . S
C1234 C1235 1.399 . S
C1234 C1239 1.399 . S
C1235 C1234 1.399 . S
C1235 C1236 1.376 . S
C1236 H1223 0.930 . S
C1236 C1235 1.376 . S
C1236 C1237 1.388 . S
C1237 H1224 0.930 . S
C1237 C1236 1.388 . S
C1237 C1238 1.390 . S
C1238 C1237 1.390 . S
C1238 C1239 1.394 . S
C1238 C1244 1.465 . S
C1239 C1234 1.399 . S
C1239 C1238 1.394 . S
C1239 C1240 1.516 . S
C1240 C1239 1.516 . S
C1240 C1241 1.502 . S
C1240 C1242 1.561 . S
C1240 C1243 1.526 . S
C1241 H1225 0.959 . S
C1241 H1226 0.959 . S
C1241 H1227 0.961 . S
C1241 C1240 1.502 . S
C1242 H1228 0.960 . S
C1242 H1229 0.961 . S
C1242 H1230 0.959 . S
C1242 C1240 1.561 . S
C1243 C1240 1.526 . S
C1243 C1244 1.396 . S
C1243 C1248 1.390 . S
C1244 C1238 1.465 . S
C1244 C1243 1.396 . S
C1244 C1245 1.399 . S
C1245 H1231 0.929 1_545 S
C1245 C1244 1.399 . S
C1245 C1246 1.385 . S
C1246 H1232 0.931 1_545 S
C1246 C1245 1.385 . S
C1246 C1247 1.389 . S
C1247 C1246 1.389 . S
C1247 C1248 1.387 . S
C1248 H1233 0.930 . S
C1248 C1243 1.390 . S
C1248 C1247 1.387 . S
H1249 C1261 0.930 . S
H1250 C1263 0.930 . S
H1251 C1264 0.930 . S
H1252 C1268 0.959 . S
H1253 C1268 0.959 . S
H1254 C1268 0.961 . S
H1255 C1269 0.960 . S
H1256 C1269 0.961 . S
H1257 C1269 0.959 . S
H1258 C1272 0.929 . S
H1259 C1273 0.931 . S
H1260 C1275 0.930 . S
C1261 H1249 0.930 . S
C1261 C1262 1.399 . S
C1261 C1266 1.399 . S
C1262 C1261 1.399 . S
C1262 C1263 1.376 . S
C1263 H1250 0.930 . S
C1263 C1262 1.376 . S
C1263 C1264 1.388 . S
C1264 H1251 0.930 . S
C1264 C1263 1.388 . S
C1264 C1265 1.390 . S
C1265 C1264 1.390 . S
C1265 C1266 1.394 . S
C1265 C1271 1.465 . S
C1266 C1261 1.399 . S
C1266 C1265 1.394 . S
C1266 C1267 1.516 . S
C1267 C1266 1.516 . S
C1267 C1268 1.502 . S
C1267 C1269 1.561 . S
C1267 C1270 1.526 . S
C1268 H1252 0.959 . S
C1268 H1253 0.959 . S
C1268 H1254 0.961 . S
C1268 C1267 1.502 . S
C1269 H1255 0.960 . S
C1269 H1256 0.961 . S
C1269 H1257 0.959 . S
C1269 C1267 1.561 . S
C1270 C1267 1.526 . S
C1270 C1271 1.396 . S
C1270 C1275 1.390 . S
C1271 C1265 1.465 . S
C1271 C1270 1.396 . S
C1271 C1272 1.399 . S
C1272 H1258 0.929 . S
C1272 C1271 1.399 . S
C1272 C1273 1.385 . S
C1273 H1259 0.931 . S
C1273 C1272 1.385 . S
C1273 C1274 1.389 . S
C1274 C1273 1.389 . S
C1274 C1275 1.387 . S
C1275 H1260 0.930 . S
C1275 C1270 1.390 . S
C1275 C1274 1.387 . S
H1276 C1288 0.930 . S
H1277 C1290 0.930 . S
H1278 C1291 0.923 1_455 S
H1279 C1295 0.959 . S
H1280 C1295 0.959 1_565 S
H1281 C1295 0.961 1_565 S
H1282 C1296 0.960 . S
H1283 C1296 0.961 1_565 S
H1284 C1296 0.959 . S
H1285 C1299 0.929 . S
H1286 C1300 0.931 . S
H1287 C1302 0.930 . S
C1288 H1276 0.930 . S
C1288 C1289 1.399 . S
C1288 C1293 1.399 . S
C1289 C1288 1.399 . S
C1289 C1290 1.376 . S
C1290 H1277 0.930 . S
C1290 C1289 1.376 . S
C1290 C1291 1.406 . S
C1291 H1278 0.923 1_655 S
C1291 C1290 1.406 . S
C1291 C1292 1.381 1_655 S
C1292 C1291 1.381 1_455 S
C1292 C1293 1.394 1_455 S
C1292 C1298 1.465 . S
C1293 C1288 1.399 . S
C1293 C1292 1.394 1_655 S
C1293 C1294 1.516 . S
C1294 C1293 1.516 . S
C1294 C1295 1.502 . S
C1294 C1296 1.561 1_655 S
C1294 C1297 1.526 1_655 S
C1295 H1279 0.959 . S
C1295 H1280 0.959 1_545 S
C1295 H1281 0.961 1_545 S
C1295 C1294 1.502 . S
C1296 H1282 0.960 . S
C1296 H1283 0.961 1_545 S
C1296 H1284 0.959 . S
C1296 C1294 1.561 1_455 S
C1297 C1294 1.526 1_455 S
C1297 C1298 1.396 . S
C1297 C1302 1.390 . S
C1298 C1292 1.465 . S
C1298 C1297 1.396 . S
C1298 C1299 1.399 . S
C1299 H1285 0.929 . S
C1299 C1298 1.399 . S
C1299 C1300 1.385 . S
C1300 H1286 0.931 . S
C1300 C1299 1.385 . S
C1300 C1301 1.389 . S
C1301 C1300 1.389 . S
C1301 C1302 1.387 . S
C1302 H1287 0.930 . S
C1302 C1297 1.390 . S
C1302 C1301 1.387 . S
H1303 C1315 0.930 . S
H1304 C1317 0.930 . S
H1305 C1318 0.930 . S
H1306 C1322 0.959 . S
H1307 C1322 0.959 . S
H1308 C1322 0.961 . S
H1309 C1323 0.960 . S
H1310 C1323 0.961 . S
H1311 C1323 0.959 . S
H1312 C1326 0.929 . S
H1313 C1327 0.931 . S
H1314 C1329 0.930 . S
C1315 H1303 0.930 . S
C1315 C1316 1.399 . S
C1315 C1320 1.399 . S
C1316 C1315 1.399 . S
C1316 C1317 1.376 . S
C1317 H1304 0.930 . S
C1317 C1316 1.376 . S
C1317 C1318 1.388 . S
C1318 H1305 0.930 . S
C1318 C1317 1.388 . S
C1318 C1319 1.390 . S
C1319 C1318 1.390 . S
C1319 C1320 1.394 . S
C1319 C1325 1.465 . S
C1320 C1315 1.399 . S
C1320 C1319 1.394 . S
C1320 C1321 1.516 . S
C1321 C1320 1.516 . S
C1321 C1322 1.502 . S
C1321 C1323 1.561 . S
C1321 C1324 1.526 . S
C1322 H1306 0.959 . S
C1322 H1307 0.959 . S
C1322 H1308 0.961 . S
C1322 C1321 1.502 . S
C1323 H1309 0.960 . S
C1323 H1310 0.961 . S
C1323 H1311 0.959 . S
C1323 C1321 1.561 . S
C1324 C1321 1.526 . S
C1324 C1325 1.396 . S
C1324 C1329 1.390 . S
C1325 C1319 1.465 . S
C1325 C1324 1.396 . S
C1325 C1326 1.399 . S
C1326 H1312 0.929 . S
C1326 C1325 1.399 . S
C1326 C1327 1.385 . S
C1327 H1313 0.931 . S
C1327 C1326 1.385 . S
C1327 C1328 1.389 . S
C1328 C1327 1.389 . S
C1328 C1329 1.387 . S
C1329 H1314 0.930 . S
C1329 C1324 1.390 . S
C1329 C1328 1.387 . S
H1330 C1342 0.930 . S
H1331 C1344 0.930 . S
H1332 C1345 0.930 . S
H1333 C1349 0.959 . S
H1334 C1349 0.959 . S
H1335 C1349 0.961 . S
H1336 C1350 0.960 . S
H1337 C1350 0.961 . S
H1338 C1350 0.959 . S
H1339 C1353 0.929 . S
H1340 C1354 0.931 . S
H1341 C1356 0.930 . S
C1342 H1330 0.930 . S
C1342 C1343 1.399 . S
C1342 C1347 1.399 . S
C1343 C1342 1.399 . S
C1343 C1344 1.376 . S
C1344 H1331 0.930 . S
C1344 C1343 1.376 . S
C1344 C1345 1.388 . S
C1345 H1332 0.930 . S
C1345 C1344 1.388 . S
C1345 C1346 1.390 . S
C1346 C1345 1.390 . S
C1346 C1347 1.394 . S
C1346 C1352 1.465 . S
C1347 C1342 1.399 . S
C1347 C1346 1.394 . S
C1347 C1348 1.516 . S
C1348 C1347 1.516 . S
C1348 C1349 1.502 . S
C1348 C1350 1.561 . S
C1348 C1351 1.526 . S
C1349 H1333 0.959 . S
C1349 H1334 0.959 . S
C1349 H1335 0.961 . S
C1349 C1348 1.502 . S
C1350 H1336 0.960 . S
C1350 H1337 0.961 . S
C1350 H1338 0.959 . S
C1350 C1348 1.561 . S
C1351 C1348 1.526 . S
C1351 C1352 1.396 . S
C1351 C1356 1.390 . S
C1352 C1346 1.465 . S
C1352 C1351 1.396 . S
C1352 C1353 1.399 . S
C1353 H1339 0.929 . S
C1353 C1352 1.399 . S
C1353 C1354 1.385 . S
C1354 H1340 0.931 . S
C1354 C1353 1.385 . S
C1354 C1355 1.389 . S
C1355 C1354 1.389 . S
C1355 C1356 1.387 . S
C1356 H1341 0.930 . S
C1356 C1351 1.390 . S
C1356 C1355 1.387 . S
H1357 C1369 0.930 . S
H1358 C1371 0.930 . S
H1359 C1372 0.930 . S
H1360 C1376 0.959 . S
H1361 C1376 0.959 . S
H1362 C1376 0.961 . S
H1363 C1377 0.960 . S
H1364 C1377 0.961 . S
H1365 C1377 0.959 . S
H1366 C1380 0.929 . S
H1367 C1381 0.931 . S
H1368 C1383 0.930 . S
C1369 H1357 0.930 . S
C1369 C1370 1.399 . S
C1369 C1374 1.399 . S
C1370 C1369 1.399 . S
C1370 C1371 1.376 . S
C1371 H1358 0.930 . S
C1371 C1370 1.376 . S
C1371 C1372 1.388 . S
C1372 H1359 0.930 . S
C1372 C1371 1.388 . S
C1372 C1373 1.390 . S
C1373 C1372 1.390 . S
C1373 C1374 1.394 . S
C1373 C1379 1.465 . S
C1374 C1369 1.399 . S
C1374 C1373 1.394 . S
C1374 C1375 1.516 . S
C1375 C1374 1.516 . S
C1375 C1376 1.502 . S
C1375 C1377 1.561 . S
C1375 C1378 1.526 . S
C1376 H1360 0.959 . S
C1376 H1361 0.959 . S
C1376 H1362 0.961 . S
C1376 C1375 1.502 . S
C1377 H1363 0.960 . S
C1377 H1364 0.961 . S
C1377 H1365 0.959 . S
C1377 C1375 1.561 . S
C1378 C1375 1.526 . S
C1378 C1379 1.396 . S
C1378 C1383 1.390 . S
C1379 C1373 1.465 . S
C1379 C1378 1.396 . S
C1379 C1380 1.399 . S
C1380 H1366 0.929 . S
C1380 C1379 1.399 . S
C1380 C1381 1.385 . S
C1381 H1367 0.931 . S
C1381 C1380 1.385 . S
C1381 C1382 1.389 . S
C1382 C1381 1.389 . S
C1382 C1383 1.387 . S
C1383 H1368 0.930 . S
C1383 C1378 1.390 . S
C1383 C1382 1.387 . S
H1384 C1396 0.930 1_556 S
H1385 C1398 0.930 . S
H1386 C1399 0.930 . S
H1387 C1403 0.959 . S
H1388 C1403 0.959 . S
H1389 C1403 0.961 . S
H1390 C1404 0.960 . S
H1391 C1404 0.961 . S
H1392 C1404 0.959 . S
H1393 C1407 0.929 . S
H1394 C1408 0.931 . S
H1395 C1410 0.930 . S
C1396 H1384 0.930 1_554 S
C1396 C1397 1.399 . S
C1396 C1401 1.399 . S
C1397 C1396 1.399 . S
C1397 C1398 1.376 . S
C1398 H1385 0.930 . S
C1398 C1397 1.376 . S
C1398 C1399 1.388 . S
C1399 H1386 0.930 . S
C1399 C1398 1.388 . S
C1399 C1400 1.390 . S
C1400 C1399 1.390 . S
C1400 C1401 1.394 . S
C1400 C1406 1.465 . S
C1401 C1396 1.399 . S
C1401 C1400 1.394 . S
C1401 C1402 1.516 . S
C1402 C1401 1.516 . S
C1402 C1403 1.502 1_554 S
C1402 C1404 1.561 . S
C1402 C1405 1.526 . S
C1403 H1387 0.959 . S
C1403 H1388 0.959 . S
C1403 H1389 0.961 . S
C1403 C1402 1.502 1_556 S
C1404 H1390 0.960 . S
C1404 H1391 0.961 . S
C1404 H1392 0.959 . S
C1404 C1402 1.561 . S
C1405 C1402 1.526 . S
C1405 C1406 1.396 . S
C1405 C1410 1.390 . S
C1406 C1400 1.465 . S
C1406 C1405 1.396 . S
C1406 C1407 1.399 1_565 S
C1407 H1393 0.929 . S
C1407 C1406 1.399 1_545 S
C1407 C1408 1.385 . S
C1408 H1394 0.931 . S
C1408 C1407 1.385 . S
C1408 C1409 1.389 . S
C1409 C1408 1.389 . S
C1409 C1410 1.387 1_545 S
C1410 H1395 0.930 . S
C1410 C1405 1.390 . S
C1410 C1409 1.387 1_565 S
H1411 C1423 0.930 . S
H1412 C1425 0.930 . S
H1413 C1426 0.930 . S
H1414 C1430 0.959 . S
H1415 C1430 0.959 . S
H1416 C1430 0.961 . S
H1417 C1431 0.960 . S
H1418 C1431 0.961 . S
H1419 C1431 0.959 . S
H1420 C1434 0.929 . S
H1421 C1435 0.931 . S
H1422 C1437 0.930 . S
C1423 H1411 0.930 . S
C1423 C1424 1.396 1_556 S
C1423 C1428 1.399 . S
C1424 C1423 1.396 1_554 S
C1424 C1425 1.382 . S
C1425 H1412 0.930 . S
C1425 C1424 1.382 . S
C1425 C1426 1.388 . S
C1426 H1413 0.930 . S
C1426 C1425 1.388 . S
C1426 C1427 1.390 . S
C1427 C1426 1.390 . S
C1427 C1428 1.394 1_554 S
C1427 C1433 1.465 . S
C1428 C1423 1.399 . S
C1428 C1427 1.394 1_556 S
C1428 C1429 1.516 . S
C1429 C1428 1.516 . S
C1429 C1430 1.502 . S
C1429 C1431 1.561 . S
C1429 C1432 1.526 . S
C1430 H1414 0.959 . S
C1430 H1415 0.959 . S
C1430 H1416 0.961 . S
C1430 C1429 1.502 . S
C1431 H1417 0.960 . S
C1431 H1418 0.961 . S
C1431 H1419 0.959 . S
C1431 C1429 1.561 . S
C1432 C1429 1.526 . S
C1432 C1433 1.396 1_556 S
C1432 C1437 1.390 . S
C1433 C1427 1.465 . S
C1433 C1432 1.396 1_554 S
C1433 C1434 1.399 . S
C1434 H1420 0.929 . S
C1434 C1433 1.399 . S
C1434 C1435 1.385 . S
C1435 H1421 0.931 . S
C1435 C1434 1.385 . S
C1435 C1436 1.389 . S
C1436 C1435 1.389 . S
C1436 C1437 1.387 1_554 S
C1437 H1422 0.930 . S
C1437 C1432 1.390 . S
C1437 C1436 1.387 1_556 S
H1438 C1450 0.930 . S
H1439 C1452 0.930 . S
H1440 C1453 0.930 . S
H1441 C1457 0.959 . S
H1442 C1457 0.959 . S
H1443 C1457 0.961 . S
H1444 C1458 0.960 . S
H1445 C1458 0.961 . S
H1446 C1458 0.959 . S
H1447 C1461 0.929 . S
H1448 C1462 0.931 . S
H1449 C1464 0.930 . S
C1450 H1438 0.930 . S
C1450 C1451 1.399 . S
C1450 C1455 1.399 . S
C1451 C1450 1.399 . S
C1451 C1452 1.376 . S
C1452 H1439 0.930 . S
C1452 C1451 1.376 . S
C1452 C1453 1.388 . S
C1453 H1440 0.930 . S
C1453 C1452 1.388 . S
C1453 C1454 1.390 . S
C1454 C1453 1.390 . S
C1454 C1455 1.394 . S
C1454 C1460 1.465 . S
C1455 C1450 1.399 . S
C1455 C1454 1.394 . S
C1455 C1456 1.516 . S
C1456 C1455 1.516 . S
C1456 C1457 1.502 . S
C1456 C1458 1.561 . S
C1456 C1459 1.526 . S
C1457 H1441 0.959 . S
C1457 H1442 0.959 . S
C1457 H1443 0.961 . S
C1457 C1456 1.502 . S
C1458 H1444 0.960 . S
C1458 H1445 0.961 . S
C1458 H1446 0.959 . S
C1458 C1456 1.561 . S
C1459 C1456 1.526 . S
C1459 C1460 1.396 . S
C1459 C1464 1.390 . S
C1460 C1454 1.465 . S
C1460 C1459 1.396 . S
C1460 C1461 1.399 . S
C1461 H1447 0.929 . S
C1461 C1460 1.399 . S
C1461 C1462 1.385 . S
C1462 H1448 0.931 . S
C1462 C1461 1.385 . S
C1462 C1463 1.389 . S
C1463 C1462 1.389 . S
C1463 C1464 1.387 . S
C1464 H1449 0.930 . S
C1464 C1459 1.390 . S
C1464 C1463 1.387 . S
H1465 C1477 0.930 . S
H1466 C1479 0.930 . S
H1467 C1480 0.930 . S
H1468 C1484 0.959 . S
H1469 C1484 0.959 . S
H1470 C1484 0.961 . S
H1471 C1485 0.960 . S
H1472 C1485 0.961 . S
H1473 C1485 0.959 . S
H1474 C1488 0.929 . S
H1475 C1489 0.931 . S
H1476 C1491 0.930 . S
C1477 H1465 0.930 . S
C1477 C1478 1.399 . S
C1477 C1482 1.399 . S
C1478 C1477 1.399 . S
C1478 C1479 1.376 . S
C1479 H1466 0.930 . S
C1479 C1478 1.376 . S
C1479 C1480 1.388 . S
C1480 H1467 0.930 . S
C1480 C1479 1.388 . S
C1480 C1481 1.390 . S
C1481 C1480 1.390 . S
C1481 C1482 1.394 . S
C1481 C1487 1.465 . S
C1482 C1477 1.399 . S
C1482 C1481 1.394 . S
C1482 C1483 1.516 . S
C1483 C1482 1.516 . S
C1483 C1484 1.502 . S
C1483 C1485 1.561 . S
C1483 C1486 1.526 . S
C1484 H1468 0.959 . S
C1484 H1469 0.959 . S
C1484 H1470 0.961 . S
C1484 C1483 1.502 . S
C1485 H1471 0.960 . S
C1485 H1472 0.961 . S
C1485 H1473 0.959 . S
C1485 C1483 1.561 . S
C1486 C1483 1.526 . S
C1486 C1487 1.396 . S
C1486 C1491 1.390 . S
C1487 C1481 1.465 . S
C1487 C1486 1.396 . S
C1487 C1488 1.399 . S
C1488 H1474 0.929 . S
C1488 C1487 1.399 . S
C1488 C1489 1.385 . S
C1489 H1475 0.931 . S
C1489 C1488 1.385 . S
C1489 C1490 1.389 . S
C1490 C1489 1.389 . S
C1490 C1491 1.387 . S
C1491 H1476 0.930 . S
C1491 C1486 1.390 . S
C1491 C1490 1.387 . S
H1492 C1504 0.930 . S
H1493 C1506 0.930 . S
H1494 C1507 0.930 . S
H1495 C1511 0.959 . S
H1496 C1511 0.959 . S
H1497 C1511 0.961 . S
H1498 C1512 0.960 . S
H1499 C1512 0.961 . S
H1500 C1512 0.959 . S
H1501 C1515 0.929 . S
H1502 C1516 0.931 . S
H1503 C1518 0.930 . S
C1504 H1492 0.930 . S
C1504 C1505 1.399 . S
C1504 C1509 1.399 . S
C1505 C1504 1.399 . S
C1505 C1506 1.376 . S
C1506 H1493 0.930 . S
C1506 C1505 1.376 . S
C1506 C1507 1.388 . S
C1507 H1494 0.930 . S
C1507 C1506 1.388 . S
C1507 C1508 1.390 . S
C1508 C1507 1.390 . S
C1508 C1509 1.394 . S
C1508 C1514 1.465 . S
C1509 C1504 1.399 . S
C1509 C1508 1.394 . S
C1509 C1510 1.516 . S
C1510 C1509 1.516 . S
C1510 C1511 1.502 . S
C1510 C1512 1.561 . S
C1510 C1513 1.526 . S
C1511 H1495 0.959 . S
C1511 H1496 0.959 . S
C1511 H1497 0.961 . S
C1511 C1510 1.502 . S
C1512 H1498 0.960 . S
C1512 H1499 0.961 . S
C1512 H1500 0.959 . S
C1512 C1510 1.561 . S
C1513 C1510 1.526 . S
C1513 C1514 1.396 . S
C1513 C1518 1.390 . S
C1514 C1508 1.465 . S
C1514 C1513 1.396 . S
C1514 C1515 1.399 . S
C1515 H1501 0.929 . S
C1515 C1514 1.399 . S
C1515 C1516 1.385 . S
C1516 H1502 0.931 . S
C1516 C1515 1.385 . S
C1516 C1517 1.389 . S
C1517 C1516 1.389 . S
C1517 C1518 1.387 . S
C1518 H1503 0.930 . S
C1518 C1513 1.390 . S
C1518 C1517 1.387 . S
H1519 C1531 0.930 . S
H1520 C1533 0.930 . S
H1521 C1534 0.930 . S
H1522 C1538 0.959 . S
H1523 C1538 0.959 . S
H1524 C1538 0.961 . S
H1525 C1539 0.960 . S
H1526 C1539 0.961 . S
H1527 C1539 0.959 . S
H1528 C1542 0.929 . S
H1529 C1543 0.931 . S
H1530 C1545 0.930 . S
C1531 H1519 0.930 . S
C1531 C1532 1.399 . S
C1531 C1536 1.399 . S
C1532 C1531 1.399 . S
C1532 C1533 1.376 . S
C1533 H1520 0.930 . S
C1533 C1532 1.376 . S
C1533 C1534 1.388 . S
C1534 H1521 0.930 . S
C1534 C1533 1.388 . S
C1534 C1535 1.390 . S
C1535 C1534 1.390 . S
C1535 C1536 1.394 . S
C1535 C1541 1.465 . S
C1536 C1531 1.399 . S
C1536 C1535 1.394 . S
C1536 C1537 1.516 . S
C1537 C1536 1.516 . S
C1537 C1538 1.502 . S
C1537 C1539 1.561 . S
C1537 C1540 1.526 . S
C1538 H1522 0.959 . S
C1538 H1523 0.959 . S
C1538 H1524 0.961 . S
C1538 C1537 1.502 . S
C1539 H1525 0.960 . S
C1539 H1526 0.961 . S
C1539 H1527 0.959 . S
C1539 C1537 1.561 . S
C1540 C1537 1.526 . S
C1540 C1541 1.396 . S
C1540 C1545 1.390 . S
C1541 C1535 1.465 . S
C1541 C1540 1.396 . S
C1541 C1542 1.399 . S
C1542 H1528 0.929 . S
C1542 C1541 1.399 . S
C1542 C1543 1.385 . S
C1543 H1529 0.931 . S
C1543 C1542 1.385 . S
C1543 C1544 1.389 . S
C1544 C1543 1.389 . S
C1544 C1545 1.387 . S
C1545 H1530 0.930 . S
C1545 C1540 1.390 . S
C1545 C1544 1.387 . S
H1546 C1558 0.930 . S
H1547 C1560 0.930 . S
H1548 C1561 0.930 . S
H1549 C1565 0.959 . S
H1550 C1565 0.959 . S
H1551 C1565 0.961 . S
H1552 C1566 0.960 . S
H1553 C1566 0.961 . S
H1554 C1566 0.959 . S
H1555 C1569 0.929 . S
H1556 C1570 0.931 . S
H1557 C1572 0.930 . S
C1558 H1546 0.930 . S
C1558 C1559 1.399 . S
C1558 C1563 1.399 . S
C1559 C1558 1.399 . S
C1559 C1560 1.376 . S
C1560 H1547 0.930 . S
C1560 C1559 1.376 . S
C1560 C1561 1.388 . S
C1561 H1548 0.930 . S
C1561 C1560 1.388 . S
C1561 C1562 1.390 . S
C1562 C1561 1.390 . S
C1562 C1563 1.394 . S
C1562 C1568 1.465 . S
C1563 C1558 1.399 . S
C1563 C1562 1.394 . S
C1563 C1564 1.516 . S
C1564 C1563 1.516 . S
C1564 C1565 1.502 . S
C1564 C1566 1.561 . S
C1564 C1567 1.526 . S
C1565 H1549 0.959 . S
C1565 H1550 0.959 . S
C1565 H1551 0.961 . S
C1565 C1564 1.502 . S
C1566 H1552 0.960 . S
C1566 H1553 0.961 . S
C1566 H1554 0.959 . S
C1566 C1564 1.561 . S
C1567 C1564 1.526 . S
C1567 C1568 1.396 . S
C1567 C1572 1.390 . S
C1568 C1562 1.465 . S
C1568 C1567 1.396 . S
C1568 C1569 1.399 . S
C1569 H1555 0.929 . S
C1569 C1568 1.399 . S
C1569 C1570 1.385 . S
C1570 H1556 0.931 . S
C1570 C1569 1.385 . S
C1570 C1571 1.389 . S
C1571 C1570 1.389 . S
C1571 C1572 1.387 . S
C1572 H1557 0.930 . S
C1572 C1567 1.390 . S
C1572 C1571 1.387 . S
H1573 C1585 0.930 . S
H1574 C1587 0.930 . S
H1575 C1588 0.930 . S
H1576 C1592 0.959 . S
H1577 C1592 0.959 . S
H1578 C1592 0.961 . S
H1579 C1593 0.960 . S
H1580 C1593 0.961 . S
H1581 C1593 0.959 . S
H1582 C1596 0.929 . S
H1583 C1597 0.931 . S
H1584 C1599 0.930 . S
C1585 H1573 0.930 . S
C1585 C1586 1.399 . S
C1585 C1590 1.399 . S
C1586 C1585 1.399 . S
C1586 C1587 1.376 . S
C1587 H1574 0.930 . S
C1587 C1586 1.376 . S
C1587 C1588 1.388 . S
C1588 H1575 0.930 . S
C1588 C1587 1.388 . S
C1588 C1589 1.390 . S
C1589 C1588 1.390 . S
C1589 C1590 1.394 . S
C1589 C1595 1.465 . S
C1590 C1585 1.399 . S
C1590 C1589 1.394 . S
C1590 C1591 1.516 . S
C1591 C1590 1.516 . S
C1591 C1592 1.502 . S
C1591 C1593 1.561 . S
C1591 C1594 1.526 . S
C1592 H1576 0.959 . S
C1592 H1577 0.959 . S
C1592 H1578 0.961 . S
C1592 C1591 1.502 . S
C1593 H1579 0.960 . S
C1593 H1580 0.961 . S
C1593 H1581 0.959 . S
C1593 C1591 1.561 . S
C1594 C1591 1.526 . S
C1594 C1595 1.396 . S
C1594 C1599 1.390 . S
C1595 C1589 1.465 . S
C1595 C1594 1.396 . S
C1595 C1596 1.399 . S
C1596 H1582 0.929 . S
C1596 C1595 1.399 . S
C1596 C1597 1.385 . S
C1597 H1583 0.931 . S
C1597 C1596 1.385 . S
C1597 C1598 1.389 . S
C1598 C1597 1.389 . S
C1598 C1599 1.387 . S
C1599 H1584 0.930 . S
C1599 C1594 1.390 . S
C1599 C1598 1.387 . S
H1600 C1612 0.930 . S
H1601 C1614 0.930 . S
H1602 C1615 0.930 . S
H1603 C1619 0.959 . S
H1604 C1619 0.959 . S
H1605 C1619 0.961 . S
H1606 C1620 0.960 . S
H1607 C1620 0.961 . S
H1608 C1620 0.959 . S
H1609 C1623 0.929 . S
H1610 C1624 0.931 . S
H1611 C1626 0.930 . S
C1612 H1600 0.930 . S
C1612 C1613 1.399 . S
C1612 C1617 1.399 . S
C1613 C1612 1.399 . S
C1613 C1614 1.376 . S
C1614 H1601 0.930 . S
C1614 C1613 1.376 . S
C1614 C1615 1.388 . S
C1615 H1602 0.930 . S
C1615 C1614 1.388 . S
C1615 C1616 1.390 . S
C1616 C1615 1.390 . S
C1616 C1617 1.394 . S
C1616 C1622 1.465 . S
C1617 C1612 1.399 . S
C1617 C1616 1.394 . S
C1617 C1618 1.516 . S
C1618 C1617 1.516 . S
C1618 C1619 1.502 . S
C1618 C1620 1.561 . S
C1618 C1621 1.526 . S
C1619 H1603 0.959 . S
C1619 H1604 0.959 . S
C1619 H1605 0.961 . S
C1619 C1618 1.502 . S
C1620 H1606 0.960 . S
C1620 H1607 0.961 . S
C1620 H1608 0.959 . S
C1620 C1618 1.561 . S
C1621 C1618 1.526 . S
C1621 C1622 1.396 . S
C1621 C1626 1.390 . S
C1622 C1616 1.465 . S
C1622 C1621 1.396 . S
C1622 C1623 1.399 . S
C1623 H1609 0.929 . S
C1623 C1622 1.399 . S
C1623 C1624 1.385 . S
C1624 H1610 0.931 . S
C1624 C1623 1.385 . S
C1624 C1625 1.389 . S
C1625 C1624 1.389 . S
C1625 C1626 1.387 . S
C1626 H1611 0.930 . S
C1626 C1621 1.390 . S
C1626 C1625 1.387 . S
H1627 C1639 0.930 . S
H1628 C1641 0.930 . S
H1629 C1642 0.930 . S
H1630 C1646 0.959 . S
H1631 C1646 0.959 . S
H1632 C1646 0.961 . S
H1633 C1647 0.960 . S
H1634 C1647 0.961 . S
H1635 C1647 0.959 . S
H1636 C1650 0.929 . S
H1637 C1651 0.931 . S
H1638 C1653 0.930 . S
C1639 H1627 0.930 . S
C1639 C1640 1.399 . S
C1639 C1644 1.399 . S
C1640 C1639 1.399 . S
C1640 C1641 1.376 . S
C1641 H1628 0.930 . S
C1641 C1640 1.376 . S
C1641 C1642 1.388 . S
C1642 H1629 0.930 . S
C1642 C1641 1.388 . S
C1642 C1643 1.390 . S
C1643 C1642 1.390 . S
C1643 C1644 1.394 . S
C1643 C1649 1.465 . S
C1644 C1639 1.399 . S
C1644 C1643 1.394 . S
C1644 C1645 1.516 . S
C1645 C1644 1.516 . S
C1645 C1646 1.502 . S
C1645 C1647 1.561 . S
C1645 C1648 1.526 . S
C1646 H1630 0.959 . S
C1646 H1631 0.959 . S
C1646 H1632 0.961 . S
C1646 C1645 1.502 . S
C1647 H1633 0.960 . S
C1647 H1634 0.961 . S
C1647 H1635 0.959 . S
C1647 C1645 1.561 . S
C1648 C1645 1.526 . S
C1648 C1649 1.396 . S
C1648 C1653 1.390 . S
C1649 C1643 1.465 . S
C1649 C1648 1.396 . S
C1649 C1650 1.399 . S
C1650 H1636 0.929 . S
C1650 C1649 1.399 . S
C1650 C1651 1.385 . S
C1651 H1637 0.931 . S
C1651 C1650 1.385 . S
C1651 C1652 1.389 . S
C1652 C1651 1.389 . S
C1652 C1653 1.387 . S
C1653 H1638 0.930 . S
C1653 C1648 1.390 . S
C1653 C1652 1.387 . S
H1654 C1666 0.930 . S
H1655 C1668 0.930 . S
H1656 C1669 0.930 . S
H1657 C1673 0.959 . S
H1658 C1673 0.959 . S
H1659 C1673 0.961 . S
H1660 C1674 0.960 . S
H1661 C1674 0.961 . S
H1662 C1674 0.959 . S
H1663 C1677 0.929 . S
H1664 C1678 0.931 . S
H1665 C1680 0.930 . S
C1666 H1654 0.930 . S
C1666 C1667 1.399 . S
C1666 C1671 1.399 . S
C1667 C1666 1.399 . S
C1667 C1668 1.376 . S
C1668 H1655 0.930 . S
C1668 C1667 1.376 . S
C1668 C1669 1.388 . S
C1669 H1656 0.930 . S
C1669 C1668 1.388 . S
C1669 C1670 1.390 . S
C1670 C1669 1.390 . S
C1670 C1671 1.394 . S
C1670 C1676 1.465 . S
C1671 C1666 1.399 . S
C1671 C1670 1.394 . S
C1671 C1672 1.516 . S
C1672 C1671 1.516 . S
C1672 C1673 1.502 . S
C1672 C1674 1.561 . S
C1672 C1675 1.526 . S
C1673 H1657 0.959 . S
C1673 H1658 0.959 . S
C1673 H1659 0.961 . S
C1673 C1672 1.502 . S
C1674 H1660 0.960 . S
C1674 H1661 0.961 . S
C1674 H1662 0.959 . S
C1674 C1672 1.561 . S
C1675 C1672 1.526 . S
C1675 C1676 1.396 . S
C1675 C1680 1.390 . S
C1676 C1670 1.465 . S
C1676 C1675 1.396 . S
C1676 C1677 1.399 . S
C1677 H1663 0.929 . S
C1677 C1676 1.399 . S
C1677 C1678 1.385 . S
C1678 H1664 0.931 . S
C1678 C1677 1.385 . S
C1678 C1679 1.389 . S
C1679 C1678 1.389 . S
C1679 C1680 1.387 . S
C1680 H1665 0.930 . S
C1680 C1675 1.390 . S
C1680 C1679 1.387 . S
H1681 C1693 0.930 . S
H1682 C1695 0.930 . S
H1683 C1696 0.930 . S
H1684 C1700 0.959 . S
H1685 C1700 0.959 . S
H1686 C1700 0.961 . S
H1687 C1701 0.960 . S
H1688 C1701 0.961 . S
H1689 C1701 0.959 . S
H1690 C1704 0.929 . S
H1691 C1705 0.931 . S
H1692 C1707 0.930 . S
C1693 H1681 0.930 . S
C1693 C1694 1.399 . S
C1693 C1698 1.399 . S
C1694 C1693 1.399 . S
C1694 C1695 1.376 . S
C1695 H1682 0.930 . S
C1695 C1694 1.376 . S
C1695 C1696 1.388 . S
C1696 H1683 0.930 . S
C1696 C1695 1.388 . S
C1696 C1697 1.390 . S
C1697 C1696 1.390 . S
C1697 C1698 1.394 . S
C1697 C1703 1.465 . S
C1698 C1693 1.399 . S
C1698 C1697 1.394 . S
C1698 C1699 1.516 . S
C1699 C1698 1.516 . S
C1699 C1700 1.502 . S
C1699 C1701 1.561 . S
C1699 C1702 1.526 . S
C1700 H1684 0.959 . S
C1700 H1685 0.959 . S
C1700 H1686 0.961 . S
C1700 C1699 1.502 . S
C1701 H1687 0.960 . S
C1701 H1688 0.961 . S
C1701 H1689 0.959 . S
C1701 C1699 1.561 . S
C1702 C1699 1.526 . S
C1702 C1703 1.396 . S
C1702 C1707 1.390 . S
C1703 C1697 1.465 . S
C1703 C1702 1.396 . S
C1703 C1704 1.399 . S
C1704 H1690 0.929 . S
C1704 C1703 1.399 . S
C1704 C1705 1.385 . S
C1705 H1691 0.931 . S
C1705 C1704 1.385 . S
C1705 C1706 1.389 . S
C1706 C1705 1.389 . S
C1706 C1707 1.387 . S
C1707 H1692 0.930 . S
C1707 C1702 1.390 . S
C1707 C1706 1.387 . S
H1708 C1720 0.930 . S
H1709 C1722 0.930 . S
H1710 C1723 0.930 . S
H1711 C1727 0.959 . S
H1712 C1727 0.959 . S
H1713 C1727 0.961 . S
H1714 C1728 0.960 . S
H1715 C1728 0.961 . S
H1716 C1728 0.959 . S
H1717 C1731 0.929 . S
H1718 C1732 0.931 . S
H1719 C1734 0.930 . S
C1720 H1708 0.930 . S
C1720 C1721 1.399 . S
C1720 C1725 1.399 . S
C1721 C1720 1.399 . S
C1721 C1722 1.376 . S
C1722 H1709 0.930 . S
C1722 C1721 1.376 . S
C1722 C1723 1.388 . S
C1723 H1710 0.930 . S
C1723 C1722 1.388 . S
C1723 C1724 1.390 . S
C1724 C1723 1.390 . S
C1724 C1725 1.394 . S
C1724 C1730 1.465 . S
C1725 C1720 1.399 . S
C1725 C1724 1.394 . S
C1725 C1726 1.516 . S
C1726 C1725 1.516 . S
C1726 C1727 1.502 . S
C1726 C1728 1.561 . S
C1726 C1729 1.526 . S
C1727 H1711 0.959 . S
C1727 H1712 0.959 . S
C1727 H1713 0.961 . S
C1727 C1726 1.502 . S
C1728 H1714 0.960 . S
C1728 H1715 0.961 . S
C1728 H1716 0.959 . S
C1728 C1726 1.561 . S
C1729 C1726 1.526 . S
C1729 C1730 1.396 . S
C1729 C1734 1.390 . S
C1730 C1724 1.465 . S
C1730 C1729 1.396 . S
C1730 C1731 1.399 . S
C1731 H1717 0.929 . S
C1731 C1730 1.399 . S
C1731 C1732 1.385 . S
C1732 H1718 0.931 . S
C1732 C1731 1.385 . S
C1732 C1733 1.389 . S
C1733 C1732 1.389 . S
C1733 C1734 1.387 . S
C1734 H1719 0.930 . S
C1734 C1729 1.390 . S
C1734 C1733 1.387 . S
H1735 C1747 0.930 . S
H1736 C1749 0.930 . S
H1737 C1750 0.930 . S
H1738 C1754 0.959 . S
H1739 C1754 0.959 . S
H1740 C1754 0.961 . S
H1741 C1755 0.960 . S
H1742 C1755 0.961 . S
H1743 C1755 0.959 . S
H1744 C1758 0.929 . S
H1745 C1759 0.931 . S
H1746 C1761 0.930 . S
C1747 H1735 0.930 . S
C1747 C1748 1.399 . S
C1747 C1752 1.399 . S
C1748 C1747 1.399 . S
C1748 C1749 1.376 . S
C1749 H1736 0.930 . S
C1749 C1748 1.376 . S
C1749 C1750 1.388 . S
C1750 H1737 0.930 . S
C1750 C1749 1.388 . S
C1750 C1751 1.390 . S
C1751 C1750 1.390 . S
C1751 C1752 1.394 . S
C1751 C1757 1.465 . S
C1752 C1747 1.399 . S
C1752 C1751 1.394 . S
C1752 C1753 1.516 . S
C1753 C1752 1.516 . S
C1753 C1754 1.502 . S
C1753 C1755 1.561 . S
C1753 C1756 1.526 . S
C1754 H1738 0.959 . S
C1754 H1739 0.959 . S
C1754 H1740 0.961 . S
C1754 C1753 1.502 . S
C1755 H1741 0.960 . S
C1755 H1742 0.961 . S
C1755 H1743 0.959 . S
C1755 C1753 1.561 . S
C1756 C1753 1.526 . S
C1756 C1757 1.396 . S
C1756 C1761 1.390 . S
C1757 C1751 1.465 . S
C1757 C1756 1.396 . S
C1757 C1758 1.399 . S
C1758 H1744 0.929 . S
C1758 C1757 1.399 . S
C1758 C1759 1.385 . S
C1759 H1745 0.931 . S
C1759 C1758 1.385 . S
C1759 C1760 1.389 . S
C1760 C1759 1.389 . S
C1760 C1761 1.387 . S
C1761 H1746 0.930 . S
C1761 C1756 1.390 . S
C1761 C1760 1.387 . S
H1762 C1774 0.930 . S
H1763 C1776 0.930 . S
H1764 C1777 0.930 . S
H1765 C1781 0.959 . S
H1766 C1781 0.959 . S
H1767 C1781 0.961 . S
H1768 C1782 0.960 . S
H1769 C1782 0.961 . S
H1770 C1782 0.959 . S
H1771 C1785 0.929 . S
H1772 C1786 0.931 1_554 S
H1773 C1788 0.930 . S
C1774 H1762 0.930 . S
C1774 C1775 1.399 . S
C1774 C1779 1.399 . S
C1775 C1774 1.399 . S
C1775 C1776 1.376 . S
C1776 H1763 0.930 . S
C1776 C1775 1.376 . S
C1776 C1777 1.388 . S
C1777 H1764 0.930 . S
C1777 C1776 1.388 . S
C1777 C1778 1.390 . S
C1778 C1777 1.390 . S
C1778 C1779 1.394 . S
C1778 C1784 1.465 . S
C1779 C1774 1.399 . S
C1779 C1778 1.394 . S
C1779 C1780 1.516 . S
C1780 C1779 1.516 . S
C1780 C1781 1.502 . S
C1780 C1782 1.561 . S
C1780 C1783 1.526 . S
C1781 H1765 0.959 . S
C1781 H1766 0.959 . S
C1781 H1767 0.961 . S
C1781 C1780 1.502 . S
C1782 H1768 0.960 . S
C1782 H1769 0.961 . S
C1782 H1770 0.959 . S
C1782 C1780 1.561 . S
C1783 C1780 1.526 . S
C1783 C1784 1.396 . S
C1783 C1788 1.390 . S
C1784 C1778 1.465 . S
C1784 C1783 1.396 . S
C1784 C1785 1.399 . S
C1785 H1771 0.929 . S
C1785 C1784 1.399 . S
C1785 C1786 1.385 . S
C1786 H1772 0.931 1_556 S
C1786 C1785 1.385 . S
C1786 C1787 1.389 . S
C1787 C1786 1.389 . S
C1787 C1788 1.387 . S
C1788 H1773 0.930 . S
C1788 C1783 1.390 . S
C1788 C1787 1.387 . S
H1789 C1801 0.930 . S
H1790 C1803 0.930 . S
H1791 C1804 0.930 . S
H1792 C1808 0.959 . S
H1793 C1808 0.959 . S
H1794 C1808 0.961 . S
H1795 C1809 0.960 . S
H1796 C1809 0.961 . S
H1797 C1809 0.959 . S
H1798 C1812 0.929 . S
H1799 C1813 0.931 . S
H1800 C1815 0.930 . S
C1801 H1789 0.930 . S
C1801 C1802 1.399 . S
C1801 C1806 1.399 . S
C1802 C1801 1.399 . S
C1802 C1803 1.376 . S
C1803 H1790 0.930 . S
C1803 C1802 1.376 . S
C1803 C1804 1.388 . S
C1804 H1791 0.930 . S
C1804 C1803 1.388 . S
C1804 C1805 1.390 . S
C1805 C1804 1.390 . S
C1805 C1806 1.394 . S
C1805 C1811 1.465 . S
C1806 C1801 1.399 . S
C1806 C1805 1.394 . S
C1806 C1807 1.516 . S
C1807 C1806 1.516 . S
C1807 C1808 1.502 . S
C1807 C1809 1.561 . S
C1807 C1810 1.526 . S
C1808 H1792 0.959 . S
C1808 H1793 0.959 . S
C1808 H1794 0.961 . S
C1808 C1807 1.502 . S
C1809 H1795 0.960 . S
C1809 H1796 0.961 . S
C1809 H1797 0.959 . S
C1809 C1807 1.561 . S
C1810 C1807 1.526 . S
C1810 C1811 1.396 . S
C1810 C1815 1.390 . S
C1811 C1805 1.465 . S
C1811 C1810 1.396 . S
C1811 C1812 1.399 . S
C1812 H1798 0.929 . S
C1812 C1811 1.399 . S
C1812 C1813 1.385 . S
C1813 H1799 0.931 . S
C1813 C1812 1.385 . S
C1813 C1814 1.389 . S
C1814 C1813 1.389 . S
C1814 C1815 1.387 . S
C1815 H1800 0.930 . S
C1815 C1810 1.390 . S
C1815 C1814 1.387 . S
H1816 C1828 0.930 . S
H1817 C1830 0.930 . S
H1818 C1831 0.930 . S
H1819 C1835 0.959 . S
H1820 C1835 0.959 . S
H1821 C1835 0.961 . S
H1822 C1836 0.960 . S
H1823 C1836 0.961 . S
H1824 C1836 0.959 . S
H1825 C1839 0.929 . S
H1826 C1840 0.931 1_565 S
H1827 C1842 0.930 . S
C1828 H1816 0.930 . S
C1828 C1829 1.399 . S
C1828 C1833 1.399 . S
C1829 C1828 1.399 . S
C1829 C1830 1.376 1_545 S
C1830 H1817 0.930 . S
C1830 C1829 1.376 1_565 S
C1830 C1831 1.388 . S
C1831 H1818 0.930 . S
C1831 C1830 1.388 . S
C1831 C1832 1.390 1_565 S
C1832 C1831 1.390 1_545 S
C1832 C1833 1.394 . S
C1832 C1838 1.465 . S
C1833 C1828 1.399 . S
C1833 C1832 1.394 . S
C1833 C1834 1.516 . S
C1834 C1833 1.516 . S
C1834 C1835 1.502 . S
C1834 C1836 1.561 . S
C1834 C1837 1.526 . S
C1835 H1819 0.959 . S
C1835 H1820 0.959 . S
C1835 H1821 0.961 . S
C1835 C1834 1.502 . S
C1836 H1822 0.960 . S
C1836 H1823 0.961 . S
C1836 H1824 0.959 . S
C1836 C1834 1.561 . S
C1837 C1834 1.526 . S
C1837 C1838 1.396 . S
C1837 C1842 1.390 . S
C1838 C1832 1.465 . S
C1838 C1837 1.396 . S
C1838 C1839 1.399 1_545 S
C1839 H1825 0.929 . S
C1839 C1838 1.399 1_565 S
C1839 C1840 1.385 1_565 S
C1840 H1826 0.931 1_545 S
C1840 C1839 1.385 1_545 S
C1840 C1841 1.389 . S
C1841 C1840 1.389 . S
C1841 C1842 1.387 . S
C1842 H1827 0.930 . S
C1842 C1837 1.390 . S
C1842 C1841 1.387 . S
H1843 C1855 0.930 . S
H1844 C1857 0.930 . S
H1845 C1858 0.930 . S
H1846 C1862 0.959 . S
H1847 C1862 0.959 . S
H1848 C1862 0.961 . S
H1849 C1863 0.960 . S
H1850 C1863 0.961 . S
H1851 C1863 0.959 . S
H1852 C1866 0.929 . S
H1853 C1867 0.931 . S
H1854 C1869 0.930 . S
C1855 H1843 0.930 . S
C1855 C1856 1.399 . S
C1855 C1860 1.399 . S
C1856 C1855 1.399 . S
C1856 C1857 1.376 . S
C1857 H1844 0.930 . S
C1857 C1856 1.376 . S
C1857 C1858 1.388 . S
C1858 H1845 0.930 . S
C1858 C1857 1.388 . S
C1858 C1859 1.390 . S
C1859 C1858 1.390 . S
C1859 C1860 1.394 . S
C1859 C1865 1.465 . S
C1860 C1855 1.399 . S
C1860 C1859 1.394 . S
C1860 C1861 1.516 . S
C1861 C1860 1.516 . S
C1861 C1862 1.502 . S
C1861 C1863 1.561 . S
C1861 C1864 1.526 . S
C1862 H1846 0.959 . S
C1862 H1847 0.959 . S
C1862 H1848 0.961 . S
C1862 C1861 1.502 . S
C1863 H1849 0.960 . S
C1863 H1850 0.961 . S
C1863 H1851 0.959 . S
C1863 C1861 1.561 . S
C1864 C1861 1.526 . S
C1864 C1865 1.396 . S
C1864 C1869 1.390 . S
C1865 C1859 1.465 . S
C1865 C1864 1.396 . S
C1865 C1866 1.399 . S
C1866 H1852 0.929 . S
C1866 C1865 1.399 . S
C1866 C1867 1.385 . S
C1867 H1853 0.931 . S
C1867 C1866 1.385 . S
C1867 C1868 1.389 . S
C1868 C1867 1.389 . S
C1868 C1869 1.387 . S
C1869 H1854 0.930 . S
C1869 C1864 1.390 . S
C1869 C1868 1.387 . S
H1870 C1882 0.930 . S
H1871 C1884 0.930 . S
H1872 C1885 0.930 . S
H1873 C1889 0.959 . S
H1874 C1889 0.959 . S
H1875 C1889 0.961 . S
H1876 C1890 0.960 . S
H1877 C1890 0.961 . S
H1878 C1890 0.959 . S
H1879 C1893 0.929 . S
H1880 C1894 0.964 . S
H1881 C1896 0.930 . S
C1882 H1870 0.930 . S
C1882 C1883 1.399 . S
C1882 C1887 1.399 . S
C1883 C1882 1.399 . S
C1883 C1884 1.376 1_545 S
C1884 H1871 0.930 . S
C1884 C1883 1.376 1_565 S
C1884 C1885 1.388 . S
C1885 H1872 0.930 . S
C1885 C1884 1.388 . S
C1885 C1886 1.390 1_565 S
C1886 C1885 1.390 1_545 S
C1886 C1887 1.394 . S
C1886 C1892 1.465 . S
C1887 C1882 1.399 . S
C1887 C1886 1.394 . S
C1887 C1888 1.516 . S
C1888 C1887 1.516 . S
C1888 C1889 1.502 . S
C1888 C1890 1.561 . S
C1888 C1891 1.526 . S
C1889 H1873 0.959 . S
C1889 H1874 0.959 . S
C1889 H1875 0.961 . S
C1889 C1888 1.502 . S
C1890 H1876 0.960 . S
C1890 H1877 0.961 . S
C1890 H1878 0.959 . S
C1890 C1888 1.561 . S
C1891 C1888 1.526 . S
C1891 C1892 1.396 . S
C1891 C1896 1.390 . S
C1892 C1886 1.465 . S
C1892 C1891 1.396 . S
C1892 C1893 1.399 1_545 S
C1893 H1879 0.929 . S
C1893 C1892 1.399 1_565 S
C1893 C1894 1.389 . S
C1894 H1880 0.964 . S
C1894 C1893 1.389 . S
C1894 C1895 1.354 1_565 S
C1895 C1894 1.354 1_545 S
C1895 C1896 1.387 . S
C1896 H1881 0.930 . S
C1896 C1891 1.390 . S
C1896 C1895 1.387 . S
H1897 C1909 0.930 . S
H1898 C1911 0.930 . S
H1899 C1912 0.930 . S
H1900 C1916 0.959 . S
H1901 C1916 0.959 . S
H1902 C1916 0.961 . S
H1903 C1917 0.960 . S
H1904 C1917 0.961 . S
H1905 C1917 0.959 . S
H1906 C1920 0.929 . S
H1907 C1921 0.931 . S
H1908 C1923 0.930 . S
C1909 H1897 0.930 . S
C1909 C1910 1.399 . S
C1909 C1914 1.399 . S
C1910 C1909 1.399 . S
C1910 C1911 1.376 . S
C1911 H1898 0.930 . S
C1911 C1910 1.376 . S
C1911 C1912 1.388 . S
C1912 H1899 0.930 . S
C1912 C1911 1.388 . S
C1912 C1913 1.390 . S
C1913 C1912 1.390 . S
C1913 C1914 1.394 . S
C1913 C1919 1.465 . S
C1914 C1909 1.399 . S
C1914 C1913 1.394 . S
C1914 C1915 1.516 . S
C1915 C1914 1.516 . S
C1915 C1916 1.502 . S
C1915 C1917 1.561 . S
C1915 C1918 1.526 . S
C1916 H1900 0.959 . S
C1916 H1901 0.959 . S
C1916 H1902 0.961 . S
C1916 C1915 1.502 . S
C1917 H1903 0.960 . S
C1917 H1904 0.961 . S
C1917 H1905 0.959 . S
C1917 C1915 1.561 . S
C1918 C1915 1.526 . S
C1918 C1919 1.396 . S
C1918 C1923 1.390 . S
C1919 C1913 1.465 . S
C1919 C1918 1.396 . S
C1919 C1920 1.399 . S
C1920 H1906 0.929 . S
C1920 C1919 1.399 . S
C1920 C1921 1.385 . S
C1921 H1907 0.931 . S
C1921 C1920 1.385 . S
C1921 C1922 1.389 . S
C1922 C1921 1.389 . S
C1922 C1923 1.387 . S
C1923 H1908 0.930 . S
C1923 C1918 1.390 . S
C1923 C1922 1.387 . S
H1924 C1936 0.930 . S
H1925 C1938 0.930 . S
H1926 C1939 0.930 . S
H1927 C1943 0.959 . S
H1928 C1943 0.959 . S
H1929 C1943 0.961 . S
H1930 C1944 0.960 . S
H1931 C1944 0.961 . S
H1932 C1944 0.959 . S
H1933 C1947 0.929 . S
H1934 C1948 0.931 . S
H1935 C1950 0.930 1_565 S
C1936 H1924 0.930 . S
C1936 C1937 1.399 1_565 S
C1936 C1941 1.399 . S
C1937 C1936 1.399 1_545 S
C1937 C1938 1.376 . S
C1938 H1925 0.930 . S
C1938 C1937 1.376 . S
C1938 C1939 1.388 . S
C1939 H1926 0.930 . S
C1939 C1938 1.388 . S
C1939 C1940 1.390 . S
C1940 C1939 1.390 . S
C1940 C1941 1.394 1_545 S
C1940 C1946 1.465 . S
C1941 C1936 1.399 . S
C1941 C1940 1.394 1_565 S
C1941 C1942 1.516 . S
C1942 C1941 1.516 . S
C1942 C1943 1.502 . S
C1942 C1944 1.561 . S
C1942 C1945 1.526 1_565 S
C1943 H1927 0.959 . S
C1943 H1928 0.959 . S
C1943 H1929 0.961 . S
C1943 C1942 1.502 . S
C1944 H1930 0.960 . S
C1944 H1931 0.961 . S
C1944 H1932 0.959 . S
C1944 C1942 1.561 . S
C1945 C1942 1.526 1_545 S
C1945 C1946 1.396 . S
C1945 C1950 1.390 . S
C1946 C1940 1.465 . S
C1946 C1945 1.396 . S
C1946 C1947 1.399 . S
C1947 H1933 0.929 . S
C1947 C1946 1.399 . S
C1947 C1948 1.385 . S
C1948 H1934 0.931 . S
C1948 C1947 1.385 . S
C1948 C1949 1.389 . S
C1949 C1948 1.389 . S
C1949 C1950 1.387 . S
C1950 H1935 0.930 1_545 S
C1950 C1945 1.390 . S
C1950 C1949 1.387 . S
H1951 C1963 0.930 . S
H1952 C1965 0.930 . S
H1953 C1966 0.930 . S
H1954 C1970 0.959 . S
H1955 C1970 0.959 . S
H1956 C1970 0.961 . S
H1957 C1971 0.960 . S
H1958 C1971 0.961 . S
H1959 C1971 0.959 . S
H1960 C1974 0.929 . S
H1961 C1975 0.931 . S
H1962 C1977 0.930 . S
C1963 H1951 0.930 . S
C1963 C1964 1.399 . S
C1963 C1968 1.399 . S
C1964 C1963 1.399 . S
C1964 C1965 1.376 . S
C1965 H1952 0.930 . S
C1965 C1964 1.376 . S
C1965 C1966 1.388 . S
C1966 H1953 0.930 . S
C1966 C1965 1.388 . S
C1966 C1967 1.390 . S
C1967 C1966 1.390 . S
C1967 C1968 1.394 . S
C1967 C1973 1.465 . S
C1968 C1963 1.399 . S
C1968 C1967 1.394 . S
C1968 C1969 1.516 . S
C1969 C1968 1.516 . S
C1969 C1970 1.502 . S
C1969 C1971 1.561 . S
C1969 C1972 1.526 . S
C1970 H1954 0.959 . S
C1970 H1955 0.959 . S
C1970 H1956 0.961 . S
C1970 C1969 1.502 . S
C1971 H1957 0.960 . S
C1971 H1958 0.961 . S
C1971 H1959 0.959 . S
C1971 C1969 1.561 . S
C1972 C1969 1.526 . S
C1972 C1973 1.396 . S
C1972 C1977 1.390 . S
C1973 C1967 1.465 . S
C1973 C1972 1.396 . S
C1973 C1974 1.399 . S
C1974 H1960 0.929 . S
C1974 C1973 1.399 . S
C1974 C1975 1.385 . S
C1975 H1961 0.931 . S
C1975 C1974 1.385 . S
C1975 C1976 1.389 . S
C1976 C1975 1.389 . S
C1976 C1977 1.387 . S
C1977 H1962 0.930 . S
C1977 C1972 1.390 . S
C1977 C1976 1.387 . S
H1978 C1990 0.930 . S
H1979 C1992 0.930 . S
H1980 C1993 0.930 . S
H1981 C1997 0.959 . S
H1982 C1997 0.959 . S
H1983 C1997 0.961 . S
H1984 C1998 0.960 . S
H1985 C1998 0.961 . S
H1986 C1998 0.959 . S
H1987 C2001 0.929 . S
H1988 C2002 0.931 . S
H1989 C2004 0.930 . S
C1990 H1978 0.930 . S
C1990 C1991 1.399 . S
C1990 C1995 1.399 . S
C1991 C1990 1.399 . S
C1991 C1992 1.376 1_545 S
C1992 H1979 0.930 . S
C1992 C1991 1.376 1_565 S
C1992 C1993 1.388 . S
C1993 H1980 0.930 . S
C1993 C1992 1.388 . S
C1993 C1994 1.390 . S
C1994 C1993 1.390 . S
C1994 C1995 1.394 1_565 S
C1994 C2000 1.465 . S
C1995 C1990 1.399 . S
C1995 C1994 1.394 1_545 S
C1995 C1996 1.516 . S
C1996 C1995 1.516 . S
C1996 C1997 1.502 . S
C1996 C1998 1.561 . S
C1996 C1999 1.526 . S
C1997 H1981 0.959 . S
C1997 H1982 0.959 . S
C1997 H1983 0.961 . S
C1997 C1996 1.502 . S
C1998 H1984 0.960 . S
C1998 H1985 0.961 . S
C1998 H1986 0.959 . S
C1998 C1996 1.561 . S
C1999 C1996 1.526 . S
C1999 C2000 1.396 1_545 S
C1999 C2004 1.390 . S
C2000 C1994 1.465 . S
C2000 C1999 1.396 1_565 S
C2000 C2001 1.399 . S
C2001 H1987 0.929 . S
C2001 C2000 1.399 . S
C2001 C2002 1.385 . S
C2002 H1988 0.931 . S
C2002 C2001 1.385 . S
C2002 C2003 1.389 . S
C2003 C2002 1.389 . S
C2003 C2004 1.387 1_565 S
C2004 H1989 0.930 . S
C2004 C1999 1.390 . S
C2004 C2003 1.387 1_545 S
H2005 C2017 0.930 . S
H2006 C2019 0.930 . S
H2007 C2020 0.930 . S
H2008 C2024 0.959 . S
H2009 C2024 0.959 . S
H2010 C2024 0.961 . S
H2011 C2025 0.960 . S
H2012 C2025 0.961 . S
H2013 C2025 0.959 . S
H2014 C2028 0.929 . S
H2015 C2029 0.931 . S
H2016 C2031 0.930 . S
C2017 H2005 0.930 . S
C2017 C2018 1.399 . S
C2017 C2022 1.399 . S
C2018 C2017 1.399 . S
C2018 C2019 1.376 . S
C2019 H2006 0.930 . S
C2019 C2018 1.376 . S
C2019 C2020 1.388 . S
C2020 H2007 0.930 . S
C2020 C2019 1.388 . S
C2020 C2021 1.390 . S
C2021 C2020 1.390 . S
C2021 C2022 1.394 . S
C2021 C2027 1.465 . S
C2022 C2017 1.399 . S
C2022 C2021 1.394 . S
C2022 C2023 1.516 . S
C2023 C2022 1.516 . S
C2023 C2024 1.502 . S
C2023 C2025 1.561 . S
C2023 C2026 1.526 . S
C2024 H2008 0.959 . S
C2024 H2009 0.959 . S
C2024 H2010 0.961 . S
C2024 C2023 1.502 . S
C2025 H2011 0.960 . S
C2025 H2012 0.961 . S
C2025 H2013 0.959 . S
C2025 C2023 1.561 . S
C2026 C2023 1.526 . S
C2026 C2027 1.396 . S
C2026 C2031 1.390 . S
C2027 C2021 1.465 . S
C2027 C2026 1.396 . S
C2027 C2028 1.399 . S
C2028 H2014 0.929 . S
C2028 C2027 1.399 . S
C2028 C2029 1.385 . S
C2029 H2015 0.931 . S
C2029 C2028 1.385 . S
C2029 C2030 1.389 . S
C2030 C2029 1.389 . S
C2030 C2031 1.387 . S
C2031 H2016 0.930 . S
C2031 C2026 1.390 . S
C2031 C2030 1.387 . S
H2032 C2044 0.930 . S
H2033 C2046 0.915 1_556 S
H2034 C2047 0.930 . S
H2035 C2051 0.959 . S
H2036 C2051 0.959 . S
H2037 C2051 0.961 . S
H2038 C2052 0.960 . S
H2039 C2052 0.961 . S
H2040 C2052 0.959 . S
H2041 C2055 0.929 . S
H2042 C2056 0.931 . S
H2043 C2058 0.930 . S
C2044 H2032 0.930 . S
C2044 C2045 1.399 . S
C2044 C2049 1.399 . S
C2045 C2044 1.399 . S
C2045 C2046 1.409 . S
C2046 H2033 0.915 1_554 S
C2046 C2045 1.409 . S
C2046 C2047 1.371 1_554 S
C2047 H2034 0.930 . S
C2047 C2046 1.371 1_556 S
C2047 C2048 1.396 . S
C2048 C2047 1.396 . S
C2048 C2049 1.382 1_556 S
C2048 C2054 1.469 . S
C2049 C2044 1.399 . S
C2049 C2048 1.382 1_554 S
C2049 C2050 1.516 . S
C2050 C2049 1.516 . S
C2050 C2051 1.502 . S
C2050 C2052 1.561 . S
C2050 C2053 1.526 . S
C2051 H2035 0.959 . S
C2051 H2036 0.959 . S
C2051 H2037 0.961 . S
C2051 C2050 1.502 . S
C2052 H2038 0.960 . S
C2052 H2039 0.961 . S
C2052 H2040 0.959 . S
C2052 C2050 1.561 . S
C2053 C2050 1.526 . S
C2053 C2054 1.396 1_554 S
C2053 C2058 1.390 . S
C2054 C2048 1.469 . S
C2054 C2053 1.396 1_556 S
C2054 C2055 1.399 . S
C2055 H2041 0.929 . S
C2055 C2054 1.399 . S
C2055 C2056 1.385 . S
C2056 H2042 0.931 . S
C2056 C2055 1.385 . S
C2056 C2057 1.389 . S
C2057 C2056 1.389 . S
C2057 C2058 1.387 1_556 S
C2058 H2043 0.930 . S
C2058 C2053 1.390 . S
C2058 C2057 1.387 1_554 S
H2059 C2071 0.930 . S
H2060 C2073 0.930 . S
H2061 C2074 0.930 . S
H2062 C2078 0.959 . S
H2063 C2078 0.959 . S
H2064 C2078 0.961 . S
H2065 C2079 0.960 . S
H2066 C2079 0.961 . S
H2067 C2079 0.959 . S
H2068 C2082 0.929 . S
H2069 C2083 0.931 . S
H2070 C2085 0.930 . S
C2071 H2059 0.930 . S
C2071 C2072 1.399 . S
C2071 C2076 1.399 . S
C2072 C2071 1.399 . S
C2072 C2073 1.376 1_554 S
C2073 H2060 0.930 . S
C2073 C2072 1.376 1_556 S
C2073 C2074 1.388 . S
C2074 H2061 0.930 . S
C2074 C2073 1.388 . S
C2074 C2075 1.390 1_556 S
C2075 C2074 1.390 1_554 S
C2075 C2076 1.394 . S
C2075 C2081 1.465 . S
C2076 C2071 1.399 . S
C2076 C2075 1.394 . S
C2076 C2077 1.516 . S
C2077 C2076 1.516 . S
C2077 C2078 1.502 . S
C2077 C2079 1.561 . S
C2077 C2080 1.526 . S
C2078 H2062 0.959 . S
C2078 H2063 0.959 . S
C2078 H2064 0.961 . S
C2078 C2077 1.502 . S
C2079 H2065 0.960 . S
C2079 H2066 0.961 . S
C2079 H2067 0.959 . S
C2079 C2077 1.561 . S
C2080 C2077 1.526 . S
C2080 C2081 1.396 . S
C2080 C2085 1.390 . S
C2081 C2075 1.465 . S
C2081 C2080 1.396 . S
C2081 C2082 1.399 1_554 S
C2082 H2068 0.929 . S
C2082 C2081 1.399 1_556 S
C2082 C2083 1.385 . S
C2083 H2069 0.931 . S
C2083 C2082 1.385 . S
C2083 C2084 1.389 1_556 S
C2084 C2083 1.389 1_554 S
C2084 C2085 1.387 . S
C2085 H2070 0.930 . S
C2085 C2080 1.390 . S
C2085 C2084 1.387 . S
H2086 C2098 0.930 . S
H2087 C2100 0.930 . S
H2088 C2101 0.930 . S
H2089 C2105 0.959 . S
H2090 C2105 0.959 . S
H2091 C2105 0.961 . S
H2092 C2106 0.960 . S
H2093 C2106 0.961 . S
H2094 C2106 0.959 . S
H2095 C2109 0.929 . S
H2096 C2110 0.931 . S
H2097 C2112 0.930 . S
C2098 H2086 0.930 . S
C2098 C2099 1.399 . S
C2098 C2103 1.399 . S
C2099 C2098 1.399 . S
C2099 C2100 1.376 . S
C2100 H2087 0.930 . S
C2100 C2099 1.376 . S
C2100 C2101 1.388 . S
C2101 H2088 0.930 . S
C2101 C2100 1.388 . S
C2101 C2102 1.390 . S
C2102 C2101 1.390 . S
C2102 C2103 1.394 . S
C2102 C2108 1.465 . S
C2103 C2098 1.399 . S
C2103 C2102 1.394 . S
C2103 C2104 1.516 . S
C2104 C2103 1.516 . S
C2104 C2105 1.502 . S
C2104 C2106 1.561 . S
C2104 C2107 1.526 . S
C2105 H2089 0.959 . S
C2105 H2090 0.959 . S
C2105 H2091 0.961 . S
C2105 C2104 1.502 . S
C2106 H2092 0.960 . S
C2106 H2093 0.961 . S
C2106 H2094 0.959 . S
C2106 C2104 1.561 . S
C2107 C2104 1.526 . S
C2107 C2108 1.396 . S
C2107 C2112 1.390 . S
C2108 C2102 1.465 . S
C2108 C2107 1.396 . S
C2108 C2109 1.399 . S
C2109 H2095 0.929 . S
C2109 C2108 1.399 . S
C2109 C2110 1.385 . S
C2110 H2096 0.931 . S
C2110 C2109 1.385 . S
C2110 C2111 1.389 . S
C2111 C2110 1.389 . S
C2111 C2112 1.387 . S
C2112 H2097 0.930 . S
C2112 C2107 1.390 . S
C2112 C2111 1.387 . S
H2113 C2125 0.930 . S
H2114 C2127 0.930 . S
H2115 C2128 0.930 . S
H2116 C2132 0.959 . S
H2117 C2132 0.959 . S
H2118 C2132 0.961 . S
H2119 C2133 0.960 . S
H2120 C2133 0.961 . S
H2121 C2133 0.959 . S
H2122 C2136 0.929 . S
H2123 C2137 0.931 . S
H2124 C2139 0.930 . S
C2125 H2113 0.930 . S
C2125 C2126 1.399 . S
C2125 C2130 1.399 . S
C2126 C2125 1.399 . S
C2126 C2127 1.376 . S
C2127 H2114 0.930 . S
C2127 C2126 1.376 . S
C2127 C2128 1.388 . S
C2128 H2115 0.930 . S
C2128 C2127 1.388 . S
C2128 C2129 1.390 . S
C2129 C2128 1.390 . S
C2129 C2130 1.394 . S
C2129 C2135 1.465 . S
C2130 C2125 1.399 . S
C2130 C2129 1.394 . S
C2130 C2131 1.516 . S
C2131 C2130 1.516 . S
C2131 C2132 1.502 . S
C2131 C2133 1.561 . S
C2131 C2134 1.526 . S
C2132 H2116 0.959 . S
C2132 H2117 0.959 . S
C2132 H2118 0.961 . S
C2132 C2131 1.502 . S
C2133 H2119 0.960 . S
C2133 H2120 0.961 . S
C2133 H2121 0.959 . S
C2133 C2131 1.561 . S
C2134 C2131 1.526 . S
C2134 C2135 1.396 . S
C2134 C2139 1.390 . S
C2135 C2129 1.465 . S
C2135 C2134 1.396 . S
C2135 C2136 1.399 . S
C2136 H2122 0.929 . S
C2136 C2135 1.399 . S
C2136 C2137 1.385 . S
C2137 H2123 0.931 . S
C2137 C2136 1.385 . S
C2137 C2138 1.389 . S
C2138 C2137 1.389 . S
C2138 C2139 1.387 . S
C2139 H2124 0.930 . S
C2139 C2134 1.390 . S
C2139 C2138 1.387 . S
H2140 C2152 0.930 . S
H2141 C2154 0.930 . S
H2142 C2155 0.930 . S
H2143 C2159 0.959 . S
H2144 C2159 0.959 . S
H2145 C2159 0.961 . S
H2146 C2160 0.960 . S
H2147 C2160 0.961 . S
H2148 C2160 0.959 . S
H2149 C2163 0.929 . S
H2150 C2164 0.931 . S
H2151 C2166 0.930 . S
C2152 H2140 0.930 . S
C2152 C2153 1.399 1_565 S
C2152 C2157 1.399 . S
C2153 C2152 1.399 1_545 S
C2153 C2154 1.376 . S
C2154 H2141 0.930 . S
C2154 C2153 1.376 . S
C2154 C2155 1.388 . S
C2155 H2142 0.930 . S
C2155 C2154 1.388 . S
C2155 C2156 1.390 1_545 S
C2156 C2155 1.390 1_565 S
C2156 C2157 1.394 . S
C2156 C2162 1.465 . S
C2157 C2152 1.399 . S
C2157 C2156 1.394 . S
C2157 C2158 1.516 . S
C2158 C2157 1.516 . S
C2158 C2159 1.502 . S
C2158 C2160 1.561 . S
C2158 C2161 1.526 . S
C2159 H2143 0.959 . S
C2159 H2144 0.959 . S
C2159 H2145 0.961 . S
C2159 C2158 1.502 . S
C2160 H2146 0.960 . S
C2160 H2147 0.961 . S
C2160 H2148 0.959 . S
C2160 C2158 1.561 . S
C2161 C2158 1.526 . S
C2161 C2162 1.396 . S
C2161 C2166 1.390 . S
C2162 C2156 1.465 . S
C2162 C2161 1.396 . S
C2162 C2163 1.399 . S
C2163 H2149 0.929 . S
C2163 C2162 1.399 . S
C2163 C2164 1.385 . S
C2164 H2150 0.931 . S
C2164 C2163 1.385 . S
C2164 C2165 1.389 . S
C2165 C2164 1.389 . S
C2165 C2166 1.387 . S
C2166 H2151 0.930 . S
C2166 C2161 1.390 . S
C2166 C2165 1.387 . S
H2167 C2179 0.930 . S
H2168 C2181 0.930 . S
H2169 C2182 0.930 . S
H2170 C2186 0.959 . S
H2171 C2186 0.959 . S
H2172 C2186 0.961 . S
H2173 C2187 0.960 . S
H2174 C2187 0.961 . S
H2175 C2187 0.959 . S
H2176 C2190 0.929 . S
H2177 C2191 0.931 . S
H2178 C2193 0.930 . S
C2179 H2167 0.930 . S
C2179 C2180 1.399 . S
C2179 C2184 1.399 . S
C2180 C2179 1.399 . S
C2180 C2181 1.376 . S
C2181 H2168 0.930 . S
C2181 C2180 1.376 . S
C2181 C2182 1.388 . S
C2182 H2169 0.930 . S
C2182 C2181 1.388 . S
C2182 C2183 1.390 . S
C2183 C2182 1.390 . S
C2183 C2184 1.394 . S
C2183 C2189 1.465 . S
C2184 C2179 1.399 . S
C2184 C2183 1.394 . S
C2184 C2185 1.516 . S
C2185 C2184 1.516 . S
C2185 C2186 1.502 . S
C2185 C2187 1.561 . S
C2185 C2188 1.526 . S
C2186 H2170 0.959 . S
C2186 H2171 0.959 . S
C2186 H2172 0.961 . S
C2186 C2185 1.502 . S
C2187 H2173 0.960 . S
C2187 H2174 0.961 . S
C2187 H2175 0.959 . S
C2187 C2185 1.561 . S
C2188 C2185 1.526 . S
C2188 C2189 1.396 . S
C2188 C2193 1.390 . S
C2189 C2183 1.465 . S
C2189 C2188 1.396 . S
C2189 C2190 1.399 . S
C2190 H2176 0.929 . S
C2190 C2189 1.399 . S
C2190 C2191 1.385 . S
C2191 H2177 0.931 . S
C2191 C2190 1.385 . S
C2191 C2192 1.389 . S
C2192 C2191 1.389 . S
C2192 C2193 1.387 . S
C2193 H2178 0.930 . S
C2193 C2188 1.390 . S
C2193 C2192 1.387 . S
H2194 C2206 0.930 . S
H2195 C2208 0.930 . S
H2196 C2209 0.930 . S
H2197 C2213 0.959 . S
H2198 C2213 0.959 . S
H2199 C2213 0.961 . S
H2200 C2214 0.960 . S
H2201 C2214 0.961 . S
H2202 C2214 0.959 . S
H2203 C2217 0.929 . S
H2204 C2218 0.931 . S
H2205 C2220 0.930 . S
C2206 H2194 0.930 . S
C2206 C2207 1.399 . S
C2206 C2211 1.399 . S
C2207 C2206 1.399 . S
C2207 C2208 1.376 . S
C2208 H2195 0.930 . S
C2208 C2207 1.376 . S
C2208 C2209 1.388 . S
C2209 H2196 0.930 . S
C2209 C2208 1.388 . S
C2209 C2210 1.390 . S
C2210 C2209 1.390 . S
C2210 C2211 1.394 . S
C2210 C2216 1.465 . S
C2211 C2206 1.399 . S
C2211 C2210 1.394 . S
C2211 C2212 1.516 . S
C2212 C2211 1.516 . S
C2212 C2213 1.502 . S
C2212 C2214 1.561 . S
C2212 C2215 1.526 . S
C2213 H2197 0.959 . S
C2213 H2198 0.959 . S
C2213 H2199 0.961 . S
C2213 C2212 1.502 . S
C2214 H2200 0.960 . S
C2214 H2201 0.961 . S
C2214 H2202 0.959 . S
C2214 C2212 1.561 . S
C2215 C2212 1.526 . S
C2215 C2216 1.396 . S
C2215 C2220 1.390 . S
C2216 C2210 1.465 . S
C2216 C2215 1.396 . S
C2216 C2217 1.399 . S
C2217 H2203 0.929 . S
C2217 C2216 1.399 . S
C2217 C2218 1.385 . S
C2218 H2204 0.931 . S
C2218 C2217 1.385 . S
C2218 C2219 1.389 . S
C2219 C2218 1.389 . S
C2219 C2220 1.387 . S
C2220 H2205 0.930 . S
C2220 C2215 1.390 . S
C2220 C2219 1.387 . S
H2221 C2233 0.930 . S
H2222 C2235 0.930 . S
H2223 C2236 0.930 . S
H2224 C2240 0.959 . S
H2225 C2240 0.959 . S
H2226 C2240 0.961 . S
H2227 C2241 0.960 . S
H2228 C2241 0.961 . S
H2229 C2241 0.959 . S
H2230 C2244 0.929 . S
H2231 C2245 0.931 . S
H2232 C2247 0.930 . S
C2233 H2221 0.930 . S
C2233 C2234 1.399 . S
C2233 C2238 1.399 . S
C2234 C2233 1.399 . S
C2234 C2235 1.376 . S
C2235 H2222 0.930 . S
C2235 C2234 1.376 . S
C2235 C2236 1.388 . S
C2236 H2223 0.930 . S
C2236 C2235 1.388 . S
C2236 C2237 1.390 . S
C2237 C2236 1.390 . S
C2237 C2238 1.394 . S
C2237 C2243 1.465 . S
C2238 C2233 1.399 . S
C2238 C2237 1.394 . S
C2238 C2239 1.516 . S
C2239 C2238 1.516 . S
C2239 C2240 1.502 . S
C2239 C2241 1.561 . S
C2239 C2242 1.526 . S
C2240 H2224 0.959 . S
C2240 H2225 0.959 . S
C2240 H2226 0.961 . S
C2240 C2239 1.502 . S
C2241 H2227 0.960 . S
C2241 H2228 0.961 . S
C2241 H2229 0.959 . S
C2241 C2239 1.561 . S
C2242 C2239 1.526 . S
C2242 C2243 1.396 . S
C2242 C2247 1.390 . S
C2243 C2237 1.465 . S
C2243 C2242 1.396 . S
C2243 C2244 1.399 . S
C2244 H2230 0.929 . S
C2244 C2243 1.399 . S
C2244 C2245 1.385 . S
C2245 H2231 0.931 . S
C2245 C2244 1.385 . S
C2245 C2246 1.389 . S
C2246 C2245 1.389 . S
C2246 C2247 1.387 . S
C2247 H2232 0.930 . S
C2247 C2242 1.390 . S
C2247 C2246 1.387 . S
H2248 C2260 0.930 . S
H2249 C2262 0.930 . S
H2250 C2263 0.930 . S
H2251 C2267 0.959 . S
H2252 C2267 0.959 . S
H2253 C2267 0.961 . S
H2254 C2268 0.960 . S
H2255 C2268 0.961 . S
H2256 C2268 0.959 . S
H2257 C2271 0.929 . S
H2258 C2272 0.931 . S
H2259 C2274 0.930 . S
C2260 H2248 0.930 . S
C2260 C2261 1.399 . S
C2260 C2265 1.399 . S
C2261 C2260 1.399 . S
C2261 C2262 1.376 . S
C2262 H2249 0.930 . S
C2262 C2261 1.376 . S
C2262 C2263 1.388 . S
C2263 H2250 0.930 . S
C2263 C2262 1.388 . S
C2263 C2264 1.390 . S
C2264 C2263 1.390 . S
C2264 C2265 1.394 . S
C2264 C2270 1.465 . S
C2265 C2260 1.399 . S
C2265 C2264 1.394 . S
C2265 C2266 1.516 . S
C2266 C2265 1.516 . S
C2266 C2267 1.502 . S
C2266 C2268 1.561 . S
C2266 C2269 1.526 . S
C2267 H2251 0.959 . S
C2267 H2252 0.959 . S
C2267 H2253 0.961 . S
C2267 C2266 1.502 . S
C2268 H2254 0.960 . S
C2268 H2255 0.961 . S
C2268 H2256 0.959 . S
C2268 C2266 1.561 . S
C2269 C2266 1.526 . S
C2269 C2270 1.396 . S
C2269 C2274 1.390 . S
C2270 C2264 1.465 . S
C2270 C2269 1.396 . S
C2270 C2271 1.399 . S
C2271 H2257 0.929 . S
C2271 C2270 1.399 . S
C2271 C2272 1.385 . S
C2272 H2258 0.931 . S
C2272 C2271 1.385 . S
C2272 C2273 1.389 . S
C2273 C2272 1.389 . S
C2273 C2274 1.387 . S
C2274 H2259 0.930 . S
C2274 C2269 1.390 . S
C2274 C2273 1.387 . S
H2275 C2287 0.930 . S
H2276 C2289 0.930 . S
H2277 C2290 0.930 . S
H2278 C2294 0.959 . S
H2279 C2294 0.959 . S
H2280 C2294 0.961 . S
H2281 C2295 0.960 . S
H2282 C2295 0.961 . S
H2283 C2295 0.959 . S
H2284 C2298 0.929 . S
H2285 C2299 0.931 . S
H2286 C2301 0.930 . S
C2287 H2275 0.930 . S
C2287 C2288 1.399 . S
C2287 C2292 1.399 . S
C2288 C2287 1.399 . S
C2288 C2289 1.376 . S
C2289 H2276 0.930 . S
C2289 C2288 1.376 . S
C2289 C2290 1.388 . S
C2290 H2277 0.930 . S
C2290 C2289 1.388 . S
C2290 C2291 1.390 . S
C2291 C2290 1.390 . S
C2291 C2292 1.394 . S
C2291 C2297 1.465 . S
C2292 C2287 1.399 . S
C2292 C2291 1.394 . S
C2292 C2293 1.516 . S
C2293 C2292 1.516 . S
C2293 C2294 1.502 . S
C2293 C2295 1.561 . S
C2293 C2296 1.526 . S
C2294 H2278 0.959 . S
C2294 H2279 0.959 . S
C2294 H2280 0.961 . S
C2294 C2293 1.502 . S
C2295 H2281 0.960 . S
C2295 H2282 0.961 . S
C2295 H2283 0.959 . S
C2295 C2293 1.561 . S
C2296 C2293 1.526 . S
C2296 C2297 1.396 . S
C2296 C2301 1.390 . S
C2297 C2291 1.465 . S
C2297 C2296 1.396 . S
C2297 C2298 1.399 . S
C2298 H2284 0.929 . S
C2298 C2297 1.399 . S
C2298 C2299 1.385 . S
C2299 H2285 0.931 . S
C2299 C2298 1.385 . S
C2299 C2300 1.389 . S
C2300 C2299 1.389 . S
C2300 C2301 1.387 . S
C2301 H2286 0.930 . S
C2301 C2296 1.390 . S
C2301 C2300 1.387 . S
H2302 C2314 0.930 . S
H2303 C2316 0.930 1_655 S
H2304 C2317 0.930 1_655 S
H2305 C2321 0.959 . S
H2306 C2321 0.959 . S
H2307 C2321 0.961 . S
H2308 C2322 0.960 . S
H2309 C2322 0.961 . S
H2310 C2322 0.959 . S
H2311 C2325 0.929 1_655 S
H2312 C2326 0.931 . S
H2313 C2328 0.917 1_556 S
C2314 H2302 0.930 . S
C2314 C2315 1.399 . S
C2314 C2319 1.399 . S
C2315 C2314 1.399 . S
C2315 C2316 1.376 . S
C2316 H2303 0.930 1_455 S
C2316 C2315 1.376 . S
C2316 C2317 1.388 . S
C2317 H2304 0.930 1_455 S
C2317 C2316 1.388 . S
C2317 C2318 1.390 . S
C2318 C2317 1.390 . S
C2318 C2319 1.394 . S
C2318 C2324 1.465 . S
C2319 C2314 1.399 . S
C2319 C2318 1.394 . S
C2319 C2320 1.516 . S
C2320 C2319 1.516 . S
C2320 C2321 1.502 . S
C2320 C2322 1.561 . S
C2320 C2323 1.526 . S
C2321 H2305 0.959 . S
C2321 H2306 0.959 . S
C2321 H2307 0.961 . S
C2321 C2320 1.502 . S
C2322 H2308 0.960 . S
C2322 H2309 0.961 . S
C2322 H2310 0.959 . S
C2322 C2320 1.561 . S
C2323 C2320 1.526 . S
C2323 C2324 1.396 . S
C2323 C2328 1.383 1_556 S
C2324 C2318 1.465 . S
C2324 C2323 1.396 . S
C2324 C2325 1.399 1_556 S
C2325 H2311 0.929 1_455 S
C2325 C2324 1.399 1_554 S
C2325 C2326 1.385 . S
C2326 H2312 0.931 . S
C2326 C2325 1.385 . S
C2326 C2327 1.389 . S
C2327 C2326 1.389 . S
C2327 C2328 1.407 . S
C2328 H2313 0.917 1_554 S
C2328 C2323 1.383 1_554 S
C2328 C2327 1.407 . S
H2329 C2341 0.930 . S
H2330 C2343 0.930 . S
H2331 C2344 0.930 . S
H2332 C2348 0.959 . S
H2333 C2348 0.959 . S
H2334 C2348 0.961 . S
H2335 C2349 0.960 . S
H2336 C2349 0.961 . S
H2337 C2349 0.959 . S
H2338 C2352 0.929 . S
H2339 C2353 0.931 . S
H2340 C2355 0.930 . S
C2341 H2329 0.930 . S
C2341 C2342 1.399 . S
C2341 C2346 1.399 1_455 S
C2342 C2341 1.399 . S
C2342 C2343 1.376 . S
C2343 H2330 0.930 . S
C2343 C2342 1.376 . S
C2343 C2344 1.388 . S
C2344 H2331 0.930 . S
C2344 C2343 1.388 . S
C2344 C2345 1.390 1_455 S
C2345 C2344 1.390 1_655 S
C2345 C2346 1.394 . S
C2345 C2351 1.465 . S
C2346 C2341 1.399 1_655 S
C2346 C2345 1.394 . S
C2346 C2347 1.516 . S
C2347 C2346 1.516 . S
C2347 C2348 1.502 . S
C2347 C2349 1.561 . S
C2347 C2350 1.526 . S
C2348 H2332 0.959 . S
C2348 H2333 0.959 . S
C2348 H2334 0.961 . S
C2348 C2347 1.502 . S
C2349 H2335 0.960 . S
C2349 H2336 0.961 . S
C2349 H2337 0.959 . S
C2349 C2347 1.561 . S
C2350 C2347 1.526 . S
C2350 C2351 1.396 . S
C2350 C2355 1.390 . S
C2351 C2345 1.465 . S
C2351 C2350 1.396 . S
C2351 C2352 1.399 . S
C2352 H2338 0.929 . S
C2352 C2351 1.399 . S
C2352 C2353 1.385 . S
C2353 H2339 0.931 . S
C2353 C2352 1.385 . S
C2353 C2354 1.389 . S
C2354 C2353 1.389 . S
C2354 C2355 1.387 . S
C2355 H2340 0.930 . S
C2355 C2350 1.390 . S
C2355 C2354 1.387 . S
H2356 C2368 0.930 . S
H2357 C2370 0.930 . S
H2358 C2371 0.930 . S
H2359 C2375 0.959 . S
H2360 C2375 0.959 . S
H2361 C2375 0.961 . S
H2362 C2376 0.960 . S
H2363 C2376 0.961 . S
H2364 C2376 0.959 . S
H2365 C2379 0.929 . S
H2366 C2380 0.931 . S
H2367 C2382 0.930 . S
C2368 H2356 0.930 . S
C2368 C2369 1.399 . S
C2368 C2373 1.399 . S
C2369 C2368 1.399 . S
C2369 C2370 1.376 . S
C2370 H2357 0.930 . S
C2370 C2369 1.376 . S
C2370 C2371 1.388 . S
C2371 H2358 0.930 . S
C2371 C2370 1.388 . S
C2371 C2372 1.390 . S
C2372 C2371 1.390 . S
C2372 C2373 1.394 . S
C2372 C2378 1.465 . S
C2373 C2368 1.399 . S
C2373 C2372 1.394 . S
C2373 C2374 1.516 . S
C2374 C2373 1.516 . S
C2374 C2375 1.502 . S
C2374 C2376 1.561 . S
C2374 C2377 1.526 . S
C2375 H2359 0.959 . S
C2375 H2360 0.959 . S
C2375 H2361 0.961 . S
C2375 C2374 1.502 . S
C2376 H2362 0.960 . S
C2376 H2363 0.961 . S
C2376 H2364 0.959 . S
C2376 C2374 1.561 . S
C2377 C2374 1.526 . S
C2377 C2378 1.396 . S
C2377 C2382 1.390 . S
C2378 C2372 1.465 . S
C2378 C2377 1.396 . S
C2378 C2379 1.399 . S
C2379 H2365 0.929 . S
C2379 C2378 1.399 . S
C2379 C2380 1.385 . S
C2380 H2366 0.931 . S
C2380 C2379 1.385 . S
C2380 C2381 1.389 . S
C2381 C2380 1.389 . S
C2381 C2382 1.387 . S
C2382 H2367 0.930 . S
C2382 C2377 1.390 . S
C2382 C2381 1.387 . S
H2383 C2395 0.930 . S
H2384 C2397 0.930 . S
H2385 C2398 0.930 . S
H2386 C2402 0.959 . S
H2387 C2402 0.959 1_655 S
H2388 C2402 0.961 . S
H2389 C2403 0.960 . S
H2390 C2403 0.961 . S
H2391 C2403 0.959 . S
H2392 C2406 0.929 . S
H2393 C2407 0.931 . S
H2394 C2409 0.930 . S
C2395 H2383 0.930 . S
C2395 C2396 1.399 . S
C2395 C2400 1.399 . S
C2396 C2395 1.399 . S
C2396 C2397 1.376 . S
C2397 H2384 0.930 . S
C2397 C2396 1.376 . S
C2397 C2398 1.388 . S
C2398 H2385 0.930 . S
C2398 C2397 1.388 . S
C2398 C2399 1.390 . S
C2399 C2398 1.390 . S
C2399 C2400 1.394 . S
C2399 C2405 1.465 1_455 S
C2400 C2395 1.399 . S
C2400 C2399 1.394 . S
C2400 C2401 1.516 1_455 S
C2401 C2400 1.516 1_655 S
C2401 C2402 1.502 1_655 S
C2401 C2403 1.561 . S
C2401 C2404 1.526 . S
C2402 H2386 0.959 . S
C2402 H2387 0.959 1_455 S
C2402 H2388 0.961 . S
C2402 C2401 1.502 1_455 S
C2403 H2389 0.960 . S
C2403 H2390 0.961 . S
C2403 H2391 0.959 . S
C2403 C2401 1.561 . S
C2404 C2401 1.526 . S
C2404 C2405 1.396 . S
C2404 C2409 1.390 . S
C2405 C2399 1.465 1_655 S
C2405 C2404 1.396 . S
C2405 C2406 1.399 . S
C2406 H2392 0.929 . S
C2406 C2405 1.399 . S
C2406 C2407 1.385 . S
C2407 H2393 0.931 . S
C2407 C2406 1.385 . S
C2407 C2408 1.389 . S
C2408 C2407 1.389 . S
C2408 C2409 1.387 . S
C2409 H2394 0.930 . S
C2409 C2404 1.390 . S
C2409 C2408 1.387 . S
H2410 C2422 0.930 . S
H2411 C2424 0.930 . S
H2412 C2425 0.930 . S
H2413 C2429 0.959 . S
H2414 C2429 0.959 . S
H2415 C2429 0.961 . S
H2416 C2430 0.960 . S
H2417 C2430 0.961 . S
H2418 C2430 0.959 . S
H2419 C2433 0.929 . S
H2420 C2434 0.931 . S
H2421 C2436 0.930 1_655 S
C2422 H2410 0.930 . S
C2422 C2423 1.399 . S
C2422 C2427 1.399 . S
C2423 C2422 1.399 . S
C2423 C2424 1.376 1_655 S
C2424 H2411 0.930 . S
C2424 C2423 1.376 1_455 S
C2424 C2425 1.388 . S
C2425 H2412 0.930 . S
C2425 C2424 1.388 . S
C2425 C2426 1.390 . S
C2426 C2425 1.390 . S
C2426 C2427 1.394 1_455 S
C2426 C2432 1.465 . S
C2427 C2422 1.399 . S
C2427 C2426 1.394 1_655 S
C2427 C2428 1.516 . S
C2428 C2427 1.516 . S
C2428 C2429 1.502 . S
C2428 C2430 1.561 . S
C2428 C2431 1.496 1_655 S
C2429 H2413 0.959 . S
C2429 H2414 0.959 . S
C2429 H2415 0.961 . S
C2429 C2428 1.502 . S
C2430 H2416 0.960 . S
C2430 H2417 0.961 . S
C2430 H2418 0.959 . S
C2430 C2428 1.561 . S
C2431 C2428 1.496 1_455 S
C2431 C2432 1.417 . S
C2431 C2436 1.401 . S
C2432 C2426 1.465 . S
C2432 C2431 1.417 . S
C2432 C2433 1.399 . S
C2433 H2419 0.929 . S
C2433 C2432 1.399 . S
C2433 C2434 1.385 . S
C2434 H2420 0.931 . S
C2434 C2433 1.385 . S
C2434 C2435 1.389 . S
C2435 C2434 1.389 . S
C2435 C2436 1.387 . S
C2436 H2421 0.930 1_455 S
C2436 C2431 1.401 . S
C2436 C2435 1.387 . S
H2437 C2449 0.930 . S
H2438 C2451 0.930 . S
H2439 C2452 0.930 . S
H2440 C2456 0.959 . S
H2441 C2456 0.959 . S
H2442 C2456 0.961 . S
H2443 C2457 0.960 . S
H2444 C2457 0.961 . S
H2445 C2457 0.959 . S
H2446 C2460 0.929 . S
H2447 C2461 0.931 . S
H2448 C2463 0.930 . S
C2449 H2437 0.930 . S
C2449 C2450 1.399 . S
C2449 C2454 1.399 . S
C2450 C2449 1.399 . S
C2450 C2451 1.376 . S
C2451 H2438 0.930 . S
C2451 C2450 1.376 . S
C2451 C2452 1.388 . S
C2452 H2439 0.930 . S
C2452 C2451 1.388 . S
C2452 C2453 1.390 . S
C2453 C2452 1.390 . S
C2453 C2454 1.394 . S
C2453 C2459 1.465 . S
C2454 C2449 1.399 . S
C2454 C2453 1.394 . S
C2454 C2455 1.516 . S
C2455 C2454 1.516 . S
C2455 C2456 1.502 . S
C2455 C2457 1.561 . S
C2455 C2458 1.526 . S
C2456 H2440 0.959 . S
C2456 H2441 0.959 . S
C2456 H2442 0.961 . S
C2456 C2455 1.502 . S
C2457 H2443 0.960 . S
C2457 H2444 0.961 . S
C2457 H2445 0.959 . S
C2457 C2455 1.561 . S
C2458 C2455 1.526 . S
C2458 C2459 1.396 . S
C2458 C2463 1.390 . S
C2459 C2453 1.465 . S
C2459 C2458 1.396 . S
C2459 C2460 1.399 . S
C2460 H2446 0.929 . S
C2460 C2459 1.399 . S
C2460 C2461 1.385 . S
C2461 H2447 0.931 . S
C2461 C2460 1.385 . S
C2461 C2462 1.389 . S
C2462 C2461 1.389 . S
C2462 C2463 1.387 . S
C2463 H2448 0.930 . S
C2463 C2458 1.390 . S
C2463 C2462 1.387 . S
H2464 C2476 0.930 . S
H2465 C2478 0.930 . S
H2466 C2479 0.930 . S
H2467 C2483 0.959 . S
H2468 C2483 0.959 . S
H2469 C2483 0.961 . S
H2470 C2484 0.960 . S
H2471 C2484 0.961 . S
H2472 C2484 0.959 . S
H2473 C2487 0.929 . S
H2474 C2488 0.931 . S
H2475 C2490 0.930 . S
C2476 H2464 0.930 . S
C2476 C2477 1.399 . S
C2476 C2481 1.399 . S
C2477 C2476 1.399 . S
C2477 C2478 1.376 . S
C2478 H2465 0.930 . S
C2478 C2477 1.376 . S
C2478 C2479 1.388 . S
C2479 H2466 0.930 . S
C2479 C2478 1.388 . S
C2479 C2480 1.390 . S
C2480 C2479 1.390 . S
C2480 C2481 1.394 . S
C2480 C2486 1.465 . S
C2481 C2476 1.399 . S
C2481 C2480 1.394 . S
C2481 C2482 1.516 . S
C2482 C2481 1.516 . S
C2482 C2483 1.502 . S
C2482 C2484 1.561 . S
C2482 C2485 1.526 . S
C2483 H2467 0.959 . S
C2483 H2468 0.959 . S
C2483 H2469 0.961 . S
C2483 C2482 1.502 . S
C2484 H2470 0.960 . S
C2484 H2471 0.961 . S
C2484 H2472 0.959 . S
C2484 C2482 1.561 . S
C2485 C2482 1.526 . S
C2485 C2486 1.396 . S
C2485 C2490 1.390 . S
C2486 C2480 1.465 . S
C2486 C2485 1.396 . S
C2486 C2487 1.399 . S
C2487 H2473 0.929 . S
C2487 C2486 1.399 . S
C2487 C2488 1.385 . S
C2488 H2474 0.931 . S
C2488 C2487 1.385 . S
C2488 C2489 1.389 . S
C2489 C2488 1.389 . S
C2489 C2490 1.387 . S
C2490 H2475 0.930 . S
C2490 C2485 1.390 . S
C2490 C2489 1.387 . S
H2491 C2503 0.930 . S
H2492 C2505 0.930 . S
H2493 C2506 0.930 . S
H2494 C2510 0.959 . S
H2495 C2510 0.959 . S
H2496 C2510 0.961 . S
H2497 C2511 0.960 . S
H2498 C2511 0.961 . S
H2499 C2511 0.959 . S
H2500 C2514 0.929 . S
H2501 C2515 0.931 . S
H2502 C2517 0.930 . S
C2503 H2491 0.930 . S
C2503 C2504 1.399 . S
C2503 C2508 1.399 . S
C2504 C2503 1.399 . S
C2504 C2505 1.376 . S
C2505 H2492 0.930 . S
C2505 C2504 1.376 . S
C2505 C2506 1.388 . S
C2506 H2493 0.930 . S
C2506 C2505 1.388 . S
C2506 C2507 1.390 . S
C2507 C2506 1.390 . S
C2507 C2508 1.394 . S
C2507 C2513 1.465 . S
C2508 C2503 1.399 . S
C2508 C2507 1.394 . S
C2508 C2509 1.516 . S
C2509 C2508 1.516 . S
C2509 C2510 1.502 . S
C2509 C2511 1.561 . S
C2509 C2512 1.526 . S
C2510 H2494 0.959 . S
C2510 H2495 0.959 . S
C2510 H2496 0.961 . S
C2510 C2509 1.502 . S
C2511 H2497 0.960 . S
C2511 H2498 0.961 . S
C2511 H2499 0.959 . S
C2511 C2509 1.561 . S
C2512 C2509 1.526 . S
C2512 C2513 1.396 . S
C2512 C2517 1.390 . S
C2513 C2507 1.465 . S
C2513 C2512 1.396 . S
C2513 C2514 1.399 . S
C2514 H2500 0.929 . S
C2514 C2513 1.399 . S
C2514 C2515 1.385 . S
C2515 H2501 0.931 . S
C2515 C2514 1.385 . S
C2515 C2516 1.389 . S
C2516 C2515 1.389 . S
C2516 C2517 1.387 . S
C2517 H2502 0.930 . S
C2517 C2512 1.390 . S
C2517 C2516 1.387 . S
H2518 C2530 0.930 . S
H2519 C2532 0.930 . S
H2520 C2533 0.930 . S
H2521 C2537 0.959 . S
H2522 C2537 0.959 . S
H2523 C2537 0.961 . S
H2524 C2538 0.960 . S
H2525 C2538 0.961 . S
H2526 C2538 0.959 . S
H2527 C2541 0.929 . S
H2528 C2542 0.931 . S
H2529 C2544 0.930 . S
C2530 H2518 0.930 . S
C2530 C2531 1.399 . S
C2530 C2535 1.399 . S
C2531 C2530 1.399 . S
C2531 C2532 1.376 . S
C2532 H2519 0.930 . S
C2532 C2531 1.376 . S
C2532 C2533 1.388 . S
C2533 H2520 0.930 . S
C2533 C2532 1.388 . S
C2533 C2534 1.390 . S
C2534 C2533 1.390 . S
C2534 C2535 1.394 . S
C2534 C2540 1.465 . S
C2535 C2530 1.399 . S
C2535 C2534 1.394 . S
C2535 C2536 1.516 . S
C2536 C2535 1.516 . S
C2536 C2537 1.502 . S
C2536 C2538 1.561 . S
C2536 C2539 1.526 . S
C2537 H2521 0.959 . S
C2537 H2522 0.959 . S
C2537 H2523 0.961 . S
C2537 C2536 1.502 . S
C2538 H2524 0.960 . S
C2538 H2525 0.961 . S
C2538 H2526 0.959 . S
C2538 C2536 1.561 . S
C2539 C2536 1.526 . S
C2539 C2540 1.396 . S
C2539 C2544 1.390 . S
C2540 C2534 1.465 . S
C2540 C2539 1.396 . S
C2540 C2541 1.399 . S
C2541 H2527 0.929 . S
C2541 C2540 1.399 . S
C2541 C2542 1.385 . S
C2542 H2528 0.931 . S
C2542 C2541 1.385 . S
C2542 C2543 1.389 . S
C2543 C2542 1.389 . S
C2543 C2544 1.387 . S
C2544 H2529 0.930 . S
C2544 C2539 1.390 . S
C2544 C2543 1.387 . S
H2545 C2557 0.930 . S
H2546 C2559 0.930 . S
H2547 C2560 0.930 . S
H2548 C2564 0.959 . S
H2549 C2564 0.959 . S
H2550 C2564 0.961 . S
H2551 C2565 0.960 . S
H2552 C2565 0.961 . S
H2553 C2565 0.959 . S
H2554 C2568 0.929 . S
H2555 C2569 0.931 . S
H2556 C2571 0.930 . S
C2557 H2545 0.930 . S
C2557 C2558 1.399 . S
C2557 C2562 1.399 . S
C2558 C2557 1.399 . S
C2558 C2559 1.376 . S
C2559 H2546 0.930 . S
C2559 C2558 1.376 . S
C2559 C2560 1.388 . S
C2560 H2547 0.930 . S
C2560 C2559 1.388 . S
C2560 C2561 1.390 . S
C2561 C2560 1.390 . S
C2561 C2562 1.394 . S
C2561 C2567 1.465 . S
C2562 C2557 1.399 . S
C2562 C2561 1.394 . S
C2562 C2563 1.516 . S
C2563 C2562 1.516 . S
C2563 C2564 1.502 . S
C2563 C2565 1.561 . S
C2563 C2566 1.526 . S
C2564 H2548 0.959 . S
C2564 H2549 0.959 . S
C2564 H2550 0.961 . S
C2564 C2563 1.502 . S
C2565 H2551 0.960 . S
C2565 H2552 0.961 . S
C2565 H2553 0.959 . S
C2565 C2563 1.561 . S
C2566 C2563 1.526 . S
C2566 C2567 1.396 . S
C2566 C2571 1.390 . S
C2567 C2561 1.465 . S
C2567 C2566 1.396 . S
C2567 C2568 1.399 . S
C2568 H2554 0.929 . S
C2568 C2567 1.399 . S
C2568 C2569 1.385 . S
C2569 H2555 0.931 . S
C2569 C2568 1.385 . S
C2569 C2570 1.389 . S
C2570 C2569 1.389 . S
C2570 C2571 1.387 . S
C2571 H2556 0.930 . S
C2571 C2566 1.390 . S
C2571 C2570 1.387 . S
H2572 C2584 0.930 . S
H2573 C2586 0.930 . S
H2574 C2587 0.930 . S
H2575 C2591 0.959 . S
H2576 C2591 0.959 . S
H2577 C2591 0.961 . S
H2578 C2592 0.960 . S
H2579 C2592 0.961 . S
H2580 C2592 0.959 . S
H2581 C2595 0.929 . S
H2582 C2596 0.931 . S
H2583 C2598 0.930 . S
C2584 H2572 0.930 . S
C2584 C2585 1.399 . S
C2584 C2589 1.399 . S
C2585 C2584 1.399 . S
C2585 C2586 1.376 . S
C2586 H2573 0.930 . S
C2586 C2585 1.376 . S
C2586 C2587 1.388 . S
C2587 H2574 0.930 . S
C2587 C2586 1.388 . S
C2587 C2588 1.390 . S
C2588 C2587 1.390 . S
C2588 C2589 1.394 . S
C2588 C2594 1.465 . S
C2589 C2584 1.399 . S
C2589 C2588 1.394 . S
C2589 C2590 1.516 . S
C2590 C2589 1.516 . S
C2590 C2591 1.502 . S
C2590 C2592 1.561 . S
C2590 C2593 1.526 . S
C2591 H2575 0.959 . S
C2591 H2576 0.959 . S
C2591 H2577 0.961 . S
C2591 C2590 1.502 . S
C2592 H2578 0.960 . S
C2592 H2579 0.961 . S
C2592 H2580 0.959 . S
C2592 C2590 1.561 . S
C2593 C2590 1.526 . S
C2593 C2594 1.396 . S
C2593 C2598 1.390 . S
C2594 C2588 1.465 . S
C2594 C2593 1.396 . S
C2594 C2595 1.399 . S
C2595 H2581 0.929 . S
C2595 C2594 1.399 . S
C2595 C2596 1.385 . S
C2596 H2582 0.931 . S
C2596 C2595 1.385 . S
C2596 C2597 1.389 . S
C2597 C2596 1.389 . S
C2597 C2598 1.387 . S
C2598 H2583 0.930 . S
C2598 C2593 1.390 . S
C2598 C2597 1.387 . S
H2599 C2611 0.930 . S
H2600 C2613 0.930 . S
H2601 C2614 0.930 . S
H2602 C2618 0.959 . S
H2603 C2618 0.959 . S
H2604 C2618 0.961 . S
H2605 C2619 0.960 . S
H2606 C2619 0.961 . S
H2607 C2619 0.959 . S
H2608 C2622 0.929 . S
H2609 C2623 0.931 . S
H2610 C2625 0.930 . S
C2611 H2599 0.930 . S
C2611 C2612 1.399 . S
C2611 C2616 1.399 . S
C2612 C2611 1.399 . S
C2612 C2613 1.376 . S
C2613 H2600 0.930 . S
C2613 C2612 1.376 . S
C2613 C2614 1.388 . S
C2614 H2601 0.930 . S
C2614 C2613 1.388 . S
C2614 C2615 1.390 . S
C2615 C2614 1.390 . S
C2615 C2616 1.394 . S
C2615 C2621 1.465 . S
C2616 C2611 1.399 . S
C2616 C2615 1.394 . S
C2616 C2617 1.516 . S
C2617 C2616 1.516 . S
C2617 C2618 1.502 . S
C2617 C2619 1.561 . S
C2617 C2620 1.526 . S
C2618 H2602 0.959 . S
C2618 H2603 0.959 . S
C2618 H2604 0.961 . S
C2618 C2617 1.502 . S
C2619 H2605 0.960 . S
C2619 H2606 0.961 . S
C2619 H2607 0.959 . S
C2619 C2617 1.561 . S
C2620 C2617 1.526 . S
C2620 C2621 1.396 . S
C2620 C2625 1.390 . S
C2621 C2615 1.465 . S
C2621 C2620 1.396 . S
C2621 C2622 1.399 . S
C2622 H2608 0.929 . S
C2622 C2621 1.399 . S
C2622 C2623 1.385 . S
C2623 H2609 0.931 . S
C2623 C2622 1.385 . S
C2623 C2624 1.389 . S
C2624 C2623 1.389 . S
C2624 C2625 1.387 . S
C2625 H2610 0.930 . S
C2625 C2620 1.390 . S
C2625 C2624 1.387 . S
H2626 C2638 0.930 . S
H2627 C2640 0.930 . S
H2628 C2641 0.930 . S
H2629 C2645 0.959 . S
H2630 C2645 0.959 . S
H2631 C2645 0.961 . S
H2632 C2646 0.960 . S
H2633 C2646 0.961 . S
H2634 C2646 0.959 . S
H2635 C2649 0.929 . S
H2636 C2650 0.931 . S
H2637 C2652 0.930 . S
C2638 H2626 0.930 . S
C2638 C2639 1.399 . S
C2638 C2643 1.399 . S
C2639 C2638 1.399 . S
C2639 C2640 1.376 . S
C2640 H2627 0.930 . S
C2640 C2639 1.376 . S
C2640 C2641 1.388 . S
C2641 H2628 0.930 . S
C2641 C2640 1.388 . S
C2641 C2642 1.390 . S
C2642 C2641 1.390 . S
C2642 C2643 1.394 . S
C2642 C2648 1.465 . S
C2643 C2638 1.399 . S
C2643 C2642 1.394 . S
C2643 C2644 1.516 . S
C2644 C2643 1.516 . S
C2644 C2645 1.502 . S
C2644 C2646 1.561 . S
C2644 C2647 1.526 . S
C2645 H2629 0.959 . S
C2645 H2630 0.959 . S
C2645 H2631 0.961 . S
C2645 C2644 1.502 . S
C2646 H2632 0.960 . S
C2646 H2633 0.961 . S
C2646 H2634 0.959 . S
C2646 C2644 1.561 . S
C2647 C2644 1.526 . S
C2647 C2648 1.396 . S
C2647 C2652 1.390 . S
C2648 C2642 1.465 . S
C2648 C2647 1.396 . S
C2648 C2649 1.399 . S
C2649 H2635 0.929 . S
C2649 C2648 1.399 . S
C2649 C2650 1.385 . S
C2650 H2636 0.931 . S
C2650 C2649 1.385 . S
C2650 C2651 1.389 . S
C2651 C2650 1.389 . S
C2651 C2652 1.387 . S
C2652 H2637 0.930 . S
C2652 C2647 1.390 . S
C2652 C2651 1.387 . S
H2653 C2665 0.930 . S
H2654 C2667 0.930 . S
H2655 C2668 0.930 . S
H2656 C2672 0.959 . S
H2657 C2672 0.959 . S
H2658 C2672 0.961 . S
H2659 C2673 0.960 . S
H2660 C2673 0.961 . S
H2661 C2673 0.959 . S
H2662 C2676 0.929 . S
H2663 C2677 0.931 . S
H2664 C2679 0.930 . S
C2665 H2653 0.930 . S
C2665 C2666 1.399 . S
C2665 C2670 1.399 . S
C2666 C2665 1.399 . S
C2666 C2667 1.376 . S
C2667 H2654 0.930 . S
C2667 C2666 1.376 . S
C2667 C2668 1.388 . S
C2668 H2655 0.930 . S
C2668 C2667 1.388 . S
C2668 C2669 1.390 . S
C2669 C2668 1.390 . S
C2669 C2670 1.394 . S
C2669 C2675 1.465 . S
C2670 C2665 1.399 . S
C2670 C2669 1.394 . S
C2670 C2671 1.516 . S
C2671 C2670 1.516 . S
C2671 C2672 1.502 . S
C2671 C2673 1.561 . S
C2671 C2674 1.526 . S
C2672 H2656 0.959 . S
C2672 H2657 0.959 . S
C2672 H2658 0.961 . S
C2672 C2671 1.502 . S
C2673 H2659 0.960 . S
C2673 H2660 0.961 . S
C2673 H2661 0.959 . S
C2673 C2671 1.561 . S
C2674 C2671 1.526 . S
C2674 C2675 1.396 . S
C2674 C2679 1.390 . S
C2675 C2669 1.465 . S
C2675 C2674 1.396 . S
C2675 C2676 1.399 . S
C2676 H2662 0.929 . S
C2676 C2675 1.399 . S
C2676 C2677 1.385 . S
C2677 H2663 0.931 . S
C2677 C2676 1.385 . S
C2677 C2678 1.389 . S
C2678 C2677 1.389 . S
C2678 C2679 1.387 . S
C2679 H2664 0.930 . S
C2679 C2674 1.390 . S
C2679 C2678 1.387 . S
H2680 C2692 0.930 . S
H2681 C2694 0.930 . S
H2682 C2695 0.930 . S
H2683 C2699 0.959 . S
H2684 C2699 0.959 . S
H2685 C2699 0.961 . S
H2686 C2700 0.960 . S
H2687 C2700 0.961 . S
H2688 C2700 0.959 . S
H2689 C2703 0.929 . S
H2690 C2704 0.931 . S
H2691 C2706 0.930 . S
C2692 H2680 0.930 . S
C2692 C2693 1.399 . S
C2692 C2697 1.399 . S
C2693 C2692 1.399 . S
C2693 C2694 1.376 . S
C2694 H2681 0.930 . S
C2694 C2693 1.376 . S
C2694 C2695 1.388 . S
C2695 H2682 0.930 . S
C2695 C2694 1.388 . S
C2695 C2696 1.390 . S
C2696 C2695 1.390 . S
C2696 C2697 1.394 . S
C2696 C2702 1.465 . S
C2697 C2692 1.399 . S
C2697 C2696 1.394 . S
C2697 C2698 1.516 . S
C2698 C2697 1.516 . S
C2698 C2699 1.502 . S
C2698 C2700 1.561 . S
C2698 C2701 1.526 . S
C2699 H2683 0.959 . S
C2699 H2684 0.959 . S
C2699 H2685 0.961 . S
C2699 C2698 1.502 . S
C2700 H2686 0.960 . S
C2700 H2687 0.961 . S
C2700 H2688 0.959 . S
C2700 C2698 1.561 . S
C2701 C2698 1.526 . S
C2701 C2702 1.396 . S
C2701 C2706 1.390 . S
C2702 C2696 1.465 . S
C2702 C2701 1.396 . S
C2702 C2703 1.399 . S
C2703 H2689 0.929 . S
C2703 C2702 1.399 . S
C2703 C2704 1.385 . S
C2704 H2690 0.931 . S
C2704 C2703 1.385 . S
C2704 C2705 1.389 . S
C2705 C2704 1.389 . S
C2705 C2706 1.387 . S
C2706 H2691 0.930 . S
C2706 C2701 1.390 . S
C2706 C2705 1.387 . S
H2707 C2719 0.930 . S
H2708 C2721 0.930 . S
H2709 C2722 0.930 . S
H2710 C2726 0.959 . S
H2711 C2726 0.959 . S
H2712 C2726 0.961 . S
H2713 C2727 0.960 . S
H2714 C2727 0.961 . S
H2715 C2727 0.959 . S
H2716 C2730 0.929 . S
H2717 C2731 0.931 . S
H2718 C2733 0.930 . S
C2719 H2707 0.930 . S
C2719 C2720 1.399 . S
C2719 C2724 1.399 . S
C2720 C2719 1.399 . S
C2720 C2721 1.376 . S
C2721 H2708 0.930 . S
C2721 C2720 1.376 . S
C2721 C2722 1.388 . S
C2722 H2709 0.930 . S
C2722 C2721 1.388 . S
C2722 C2723 1.390 . S
C2723 C2722 1.390 . S
C2723 C2724 1.394 . S
C2723 C2729 1.465 . S
C2724 C2719 1.399 . S
C2724 C2723 1.394 . S
C2724 C2725 1.516 . S
C2725 C2724 1.516 . S
C2725 C2726 1.502 . S
C2725 C2727 1.561 . S
C2725 C2728 1.526 . S
C2726 H2710 0.959 . S
C2726 H2711 0.959 . S
C2726 H2712 0.961 . S
C2726 C2725 1.502 . S
C2727 H2713 0.960 . S
C2727 H2714 0.961 . S
C2727 H2715 0.959 . S
C2727 C2725 1.561 . S
C2728 C2725 1.526 . S
C2728 C2729 1.396 . S
C2728 C2733 1.390 . S
C2729 C2723 1.465 . S
C2729 C2728 1.396 . S
C2729 C2730 1.399 . S
C2730 H2716 0.929 . S
C2730 C2729 1.399 . S
C2730 C2731 1.385 . S
C2731 H2717 0.931 . S
C2731 C2730 1.385 . S
C2731 C2732 1.389 . S
C2732 C2731 1.389 . S
C2732 C2733 1.387 . S
C2733 H2718 0.930 . S
C2733 C2728 1.390 . S
C2733 C2732 1.387 . S
H2734 C2746 0.930 . S
H2735 C2748 0.930 . S
H2736 C2749 0.930 . S
H2737 C2753 0.959 . S
H2738 C2753 0.959 . S
H2739 C2753 0.961 . S
H2740 C2754 0.960 . S
H2741 C2754 0.961 . S
H2742 C2754 0.959 . S
H2743 C2757 0.929 . S
H2744 C2758 0.931 . S
H2745 C2760 0.930 . S
C2746 H2734 0.930 . S
C2746 C2747 1.399 . S
C2746 C2751 1.399 . S
C2747 C2746 1.399 . S
C2747 C2748 1.376 . S
C2748 H2735 0.930 . S
C2748 C2747 1.376 . S
C2748 C2749 1.388 . S
C2749 H2736 0.930 . S
C2749 C2748 1.388 . S
C2749 C2750 1.390 . S
C2750 C2749 1.390 . S
C2750 C2751 1.394 . S
C2750 C2756 1.465 . S
C2751 C2746 1.399 . S
C2751 C2750 1.394 . S
C2751 C2752 1.516 . S
C2752 C2751 1.516 . S
C2752 C2753 1.502 . S
C2752 C2754 1.561 . S
C2752 C2755 1.526 . S
C2753 H2737 0.959 . S
C2753 H2738 0.959 . S
C2753 H2739 0.961 . S
C2753 C2752 1.502 . S
C2754 H2740 0.960 . S
C2754 H2741 0.961 . S
C2754 H2742 0.959 . S
C2754 C2752 1.561 . S
C2755 C2752 1.526 . S
C2755 C2756 1.396 . S
C2755 C2760 1.390 . S
C2756 C2750 1.465 . S
C2756 C2755 1.396 . S
C2756 C2757 1.399 . S
C2757 H2743 0.929 . S
C2757 C2756 1.399 . S
C2757 C2758 1.385 . S
C2758 H2744 0.931 . S
C2758 C2757 1.385 . S
C2758 C2759 1.389 . S
C2759 C2758 1.389 . S
C2759 C2760 1.387 . S
C2760 H2745 0.930 . S
C2760 C2755 1.390 . S
C2760 C2759 1.387 . S
H2761 C2773 0.930 . S
H2762 C2775 0.930 . S
H2763 C2776 0.934 . S
H2764 C2780 0.959 . S
H2765 C2780 0.959 . S
H2766 C2780 0.961 . S
H2767 C2781 0.960 . S
H2768 C2781 0.961 . S
H2769 C2781 0.959 1_545 S
H2770 C2784 0.929 . S
H2771 C2785 0.931 . S
H2772 C2787 0.930 . S
C2773 H2761 0.930 . S
C2773 C2774 1.399 1_556 S
C2773 C2778 1.399 . S
C2774 C2773 1.399 1_554 S
C2774 C2775 1.376 . S
C2775 H2762 0.930 . S
C2775 C2774 1.376 . S
C2775 C2776 1.388 . S
C2776 H2763 0.934 . S
C2776 C2775 1.388 . S
C2776 C2777 1.390 . S
C2777 C2776 1.390 . S
C2777 C2778 1.394 1_554 S
C2777 C2783 1.465 1_565 S
C2778 C2773 1.399 . S
C2778 C2777 1.394 1_556 S
C2778 C2779 1.516 . S
C2779 C2778 1.516 . S
C2779 C2780 1.502 . S
C2779 C2781 1.561 . S
C2779 C2782 1.526 . S
C2780 H2764 0.959 . S
C2780 H2765 0.959 . S
C2780 H2766 0.961 . S
C2780 C2779 1.502 . S
C2781 H2767 0.960 . S
C2781 H2768 0.961 . S
C2781 H2769 0.959 1_565 S
C2781 C2779 1.561 . S
C2782 C2779 1.526 . S
C2782 C2783 1.396 1_566 S
C2782 C2787 1.390 1_565 S
C2783 C2777 1.465 1_545 S
C2783 C2782 1.396 1_544 S
C2783 C2784 1.399 . S
C2784 H2770 0.929 . S
C2784 C2783 1.399 . S
C2784 C2785 1.385 . S
C2785 H2771 0.931 . S
C2785 C2784 1.385 . S
C2785 C2786 1.389 . S
C2786 C2785 1.389 . S
C2786 C2787 1.387 1_554 S
C2787 H2772 0.930 . S
C2787 C2782 1.390 1_545 S
C2787 C2786 1.387 1_556 S
H2788 C2800 0.930 . S
H2789 C2802 0.930 . S
H2790 C2803 0.930 . S
H2791 C2807 0.959 . S
H2792 C2807 0.959 . S
H2793 C2807 0.961 . S
H2794 C2808 0.960 . S
H2795 C2808 0.961 . S
H2796 C2808 0.959 . S
H2797 C2811 0.929 . S
H2798 C2812 0.931 . S
H2799 C2814 0.930 . S
C2800 H2788 0.930 . S
C2800 C2801 1.399 . S
C2800 C2805 1.399 . S
C2801 C2800 1.399 . S
C2801 C2802 1.376 . S
C2802 H2789 0.930 . S
C2802 C2801 1.376 . S
C2802 C2803 1.388 . S
C2803 H2790 0.930 . S
C2803 C2802 1.388 . S
C2803 C2804 1.390 . S
C2804 C2803 1.390 . S
C2804 C2805 1.394 . S
C2804 C2810 1.465 . S
C2805 C2800 1.399 . S
C2805 C2804 1.394 . S
C2805 C2806 1.516 . S
C2806 C2805 1.516 . S
C2806 C2807 1.502 . S
C2806 C2808 1.561 . S
C2806 C2809 1.526 . S
C2807 H2791 0.959 . S
C2807 H2792 0.959 . S
C2807 H2793 0.961 . S
C2807 C2806 1.502 . S
C2808 H2794 0.960 . S
C2808 H2795 0.961 . S
C2808 H2796 0.959 . S
C2808 C2806 1.561 . S
C2809 C2806 1.526 . S
C2809 C2810 1.396 . S
C2809 C2814 1.390 . S
C2810 C2804 1.465 . S
C2810 C2809 1.396 . S
C2810 C2811 1.399 . S
C2811 H2797 0.929 . S
C2811 C2810 1.399 . S
C2811 C2812 1.385 . S
C2812 H2798 0.931 . S
C2812 C2811 1.385 . S
C2812 C2813 1.389 . S
C2813 C2812 1.389 . S
C2813 C2814 1.387 . S
C2814 H2799 0.930 . S
C2814 C2809 1.390 . S
C2814 C2813 1.387 . S
H2815 C2827 0.930 . S
H2816 C2829 0.930 1_556 S
H2817 C2830 0.930 . S
H2818 C2834 0.959 . S
H2819 C2834 0.959 . S
H2820 C2834 0.961 . S
H2821 C2835 0.960 . S
H2822 C2835 0.961 . S
H2823 C2835 0.959 . S
H2824 C2838 0.929 . S
H2825 C2839 0.931 . S
H2826 C2841 0.930 . S
C2827 H2815 0.930 . S
C2827 C2828 1.399 . S
C2827 C2832 1.399 . S
C2828 C2827 1.399 . S
C2828 C2829 1.376 . S
C2829 H2816 0.930 1_554 S
C2829 C2828 1.376 . S
C2829 C2830 1.388 . S
C2830 H2817 0.930 . S
C2830 C2829 1.388 . S
C2830 C2831 1.390 . S
C2831 C2830 1.390 . S
C2831 C2832 1.394 . S
C2831 C2837 1.465 . S
C2832 C2827 1.399 . S
C2832 C2831 1.394 . S
C2832 C2833 1.516 . S
C2833 C2832 1.516 . S
C2833 C2834 1.502 . S
C2833 C2835 1.561 . S
C2833 C2836 1.526 . S
C2834 H2818 0.959 . S
C2834 H2819 0.959 . S
C2834 H2820 0.961 . S
C2834 C2833 1.502 . S
C2835 H2821 0.960 . S
C2835 H2822 0.961 . S
C2835 H2823 0.959 . S
C2835 C2833 1.561 . S
C2836 C2833 1.526 . S
C2836 C2837 1.396 . S
C2836 C2841 1.390 . S
C2837 C2831 1.465 . S
C2837 C2836 1.396 . S
C2837 C2838 1.399 . S
C2838 H2824 0.929 . S
C2838 C2837 1.399 . S
C2838 C2839 1.385 . S
C2839 H2825 0.931 . S
C2839 C2838 1.385 . S
C2839 C2840 1.389 . S
C2840 C2839 1.389 . S
C2840 C2841 1.387 . S
C2841 H2826 0.930 . S
C2841 C2836 1.390 . S
C2841 C2840 1.387 . S
H2842 C2854 0.930 . S
H2843 C2856 0.930 . S
H2844 C2857 0.930 . S
H2845 C2861 0.959 . S
H2846 C2861 0.959 . S
H2847 C2861 0.961 . S
H2848 C2862 0.960 . S
H2849 C2862 0.961 . S
H2850 C2862 0.959 . S
H2851 C2865 0.929 . S
H2852 C2866 0.931 . S
H2853 C2868 0.930 . S
C2854 H2842 0.930 . S
C2854 C2855 1.399 . S
C2854 C2859 1.399 . S
C2855 C2854 1.399 . S
C2855 C2856 1.376 . S
C2856 H2843 0.930 . S
C2856 C2855 1.376 . S
C2856 C2857 1.388 . S
C2857 H2844 0.930 . S
C2857 C2856 1.388 . S
C2857 C2858 1.390 . S
C2858 C2857 1.390 . S
C2858 C2859 1.394 . S
C2858 C2864 1.465 . S
C2859 C2854 1.399 . S
C2859 C2858 1.394 . S
C2859 C2860 1.516 . S
C2860 C2859 1.516 . S
C2860 C2861 1.502 . S
C2860 C2862 1.561 . S
C2860 C2863 1.526 . S
C2861 H2845 0.959 . S
C2861 H2846 0.959 . S
C2861 H2847 0.961 . S
C2861 C2860 1.502 . S
C2862 H2848 0.960 . S
C2862 H2849 0.961 . S
C2862 H2850 0.959 . S
C2862 C2860 1.561 . S
C2863 C2860 1.526 . S
C2863 C2864 1.396 . S
C2863 C2868 1.390 . S
C2864 C2858 1.465 . S
C2864 C2863 1.396 . S
C2864 C2865 1.399 . S
C2865 H2851 0.929 . S
C2865 C2864 1.399 . S
C2865 C2866 1.385 . S
C2866 H2852 0.931 . S
C2866 C2865 1.385 . S
C2866 C2867 1.389 . S
C2867 C2866 1.389 . S
C2867 C2868 1.387 . S
C2868 H2853 0.930 . S
C2868 C2863 1.390 . S
C2868 C2867 1.387 . S
H2869 C2881 0.930 . S
H2870 C2883 0.930 . S
H2871 C2884 0.930 . S
H2872 C2888 0.959 . S
H2873 C2888 0.959 . S
H2874 C2888 0.961 . S
H2875 C2889 0.960 . S
H2876 C2889 0.961 . S
H2877 C2889 0.959 . S
H2878 C2892 0.929 . S
H2879 C2893 0.931 . S
H2880 C2895 0.930 . S
C2881 H2869 0.930 . S
C2881 C2882 1.399 . S
C2881 C2886 1.399 . S
C2882 C2881 1.399 . S
C2882 C2883 1.376 . S
C2883 H2870 0.930 . S
C2883 C2882 1.376 . S
C2883 C2884 1.388 . S
C2884 H2871 0.930 . S
C2884 C2883 1.388 . S
C2884 C2885 1.390 . S
C2885 C2884 1.390 . S
C2885 C2886 1.394 . S
C2885 C2891 1.465 . S
C2886 C2881 1.399 . S
C2886 C2885 1.394 . S
C2886 C2887 1.516 . S
C2887 C2886 1.516 . S
C2887 C2888 1.502 . S
C2887 C2889 1.561 . S
C2887 C2890 1.526 . S
C2888 H2872 0.959 . S
C2888 H2873 0.959 . S
C2888 H2874 0.961 . S
C2888 C2887 1.502 . S
C2889 H2875 0.960 . S
C2889 H2876 0.961 . S
C2889 H2877 0.959 . S
C2889 C2887 1.561 . S
C2890 C2887 1.526 . S
C2890 C2891 1.396 . S
C2890 C2895 1.390 . S
C2891 C2885 1.465 . S
C2891 C2890 1.396 . S
C2891 C2892 1.399 . S
C2892 H2878 0.929 . S
C2892 C2891 1.399 . S
C2892 C2893 1.385 . S
C2893 H2879 0.931 . S
C2893 C2892 1.385 . S
C2893 C2894 1.389 . S
C2894 C2893 1.389 . S
C2894 C2895 1.387 . S
C2895 H2880 0.930 . S
C2895 C2890 1.390 . S
C2895 C2894 1.387 . S
H2896 C2908 0.930 . S
H2897 C2910 0.930 . S
H2898 C2911 0.930 . S
H2899 C2915 0.959 . S
H2900 C2915 0.959 . S
H2901 C2915 0.961 . S
H2902 C2916 0.960 . S
H2903 C2916 0.961 . S
H2904 C2916 0.959 . S
H2905 C2919 0.929 . S
H2906 C2920 0.931 . S
H2907 C2922 0.930 . S
C2908 H2896 0.930 . S
C2908 C2909 1.399 . S
C2908 C2913 1.399 . S
C2909 C2908 1.399 . S
C2909 C2910 1.376 . S
C2910 H2897 0.930 . S
C2910 C2909 1.376 . S
C2910 C2911 1.388 . S
C2911 H2898 0.930 . S
C2911 C2910 1.388 . S
C2911 C2912 1.390 . S
C2912 C2911 1.390 . S
C2912 C2913 1.394 . S
C2912 C2918 1.465 . S
C2913 C2908 1.399 . S
C2913 C2912 1.394 . S
C2913 C2914 1.516 . S
C2914 C2913 1.516 . S
C2914 C2915 1.502 . S
C2914 C2916 1.561 . S
C2914 C2917 1.526 . S
C2915 H2899 0.959 . S
C2915 H2900 0.959 . S
C2915 H2901 0.961 . S
C2915 C2914 1.502 . S
C2916 H2902 0.960 . S
C2916 H2903 0.961 . S
C2916 H2904 0.959 . S
C2916 C2914 1.561 . S
C2917 C2914 1.526 . S
C2917 C2918 1.396 . S
C2917 C2922 1.390 . S
C2918 C2912 1.465 . S
C2918 C2917 1.396 . S
C2918 C2919 1.399 . S
C2919 H2905 0.929 . S
C2919 C2918 1.399 . S
C2919 C2920 1.385 . S
C2920 H2906 0.931 . S
C2920 C2919 1.385 . S
C2920 C2921 1.389 . S
C2921 C2920 1.389 . S
C2921 C2922 1.387 . S
C2922 H2907 0.930 . S
C2922 C2917 1.390 . S
C2922 C2921 1.387 . S
H2923 C2935 0.930 . S
H2924 C2937 0.930 . S
H2925 C2938 0.930 . S
H2926 C2942 0.959 . S
H2927 C2942 0.959 . S
H2928 C2942 0.961 . S
H2929 C2943 0.960 . S
H2930 C2943 0.961 . S
H2931 C2943 0.959 . S
H2932 C2946 0.929 . S
H2933 C2947 0.931 . S
H2934 C2949 0.930 . S
C2935 H2923 0.930 . S
C2935 C2936 1.399 . S
C2935 C2940 1.399 . S
C2936 C2935 1.399 . S
C2936 C2937 1.376 . S
C2937 H2924 0.930 . S
C2937 C2936 1.376 . S
C2937 C2938 1.388 . S
C2938 H2925 0.930 . S
C2938 C2937 1.388 . S
C2938 C2939 1.390 . S
C2939 C2938 1.390 . S
C2939 C2940 1.394 . S
C2939 C2945 1.465 . S
C2940 C2935 1.399 . S
C2940 C2939 1.394 . S
C2940 C2941 1.516 . S
C2941 C2940 1.516 . S
C2941 C2942 1.502 . S
C2941 C2943 1.561 . S
C2941 C2944 1.526 . S
C2942 H2926 0.959 . S
C2942 H2927 0.959 . S
C2942 H2928 0.961 . S
C2942 C2941 1.502 . S
C2943 H2929 0.960 . S
C2943 H2930 0.961 . S
C2943 H2931 0.959 . S
C2943 C2941 1.561 . S
C2944 C2941 1.526 . S
C2944 C2945 1.396 . S
C2944 C2949 1.390 . S
C2945 C2939 1.465 . S
C2945 C2944 1.396 . S
C2945 C2946 1.399 . S
C2946 H2932 0.929 . S
C2946 C2945 1.399 . S
C2946 C2947 1.385 . S
C2947 H2933 0.931 . S
C2947 C2946 1.385 . S
C2947 C2948 1.389 . S
C2948 C2947 1.389 . S
C2948 C2949 1.387 . S
C2949 H2934 0.930 . S
C2949 C2944 1.390 . S
C2949 C2948 1.387 . S
H2950 C2962 0.930 . S
H2951 C2964 0.930 . S
H2952 C2965 0.930 . S
H2953 C2969 0.959 . S
H2954 C2969 0.959 . S
H2955 C2969 0.961 . S
H2956 C2970 0.960 . S
H2957 C2970 0.961 . S
H2958 C2970 0.959 . S
H2959 C2973 0.929 . S
H2960 C2974 0.931 . S
H2961 C2976 0.930 . S
C2962 H2950 0.930 . S
C2962 C2963 1.399 . S
C2962 C2967 1.399 . S
C2963 C2962 1.399 . S
C2963 C2964 1.376 . S
C2964 H2951 0.930 . S
C2964 C2963 1.376 . S
C2964 C2965 1.388 . S
C2965 H2952 0.930 . S
C2965 C2964 1.388 . S
C2965 C2966 1.390 . S
C2966 C2965 1.390 . S
C2966 C2967 1.394 . S
C2966 C2972 1.465 . S
C2967 C2962 1.399 . S
C2967 C2966 1.394 . S
C2967 C2968 1.516 . S
C2968 C2967 1.516 . S
C2968 C2969 1.502 . S
C2968 C2970 1.561 . S
C2968 C2971 1.526 . S
C2969 H2953 0.959 . S
C2969 H2954 0.959 . S
C2969 H2955 0.961 . S
C2969 C2968 1.502 . S
C2970 H2956 0.960 . S
C2970 H2957 0.961 . S
C2970 H2958 0.959 . S
C2970 C2968 1.561 . S
C2971 C2968 1.526 . S
C2971 C2972 1.396 . S
C2971 C2976 1.390 . S
C2972 C2966 1.465 . S
C2972 C2971 1.396 . S
C2972 C2973 1.399 . S
C2973 H2959 0.929 . S
C2973 C2972 1.399 . S
C2973 C2974 1.385 . S
C2974 H2960 0.931 . S
C2974 C2973 1.385 . S
C2974 C2975 1.389 . S
C2975 C2974 1.389 . S
C2975 C2976 1.387 . S
C2976 H2961 0.930 . S
C2976 C2971 1.390 . S
C2976 C2975 1.387 . S
H2977 C2989 0.930 . S
H2978 C2991 0.930 . S
H2979 C2992 0.930 . S
H2980 C2996 0.959 . S
H2981 C2996 0.959 . S
H2982 C2996 0.961 . S
H2983 C2997 0.960 . S
H2984 C2997 0.961 . S
H2985 C2997 0.959 . S
H2986 C3000 0.929 . S
H2987 C3001 0.931 . S
H2988 C3003 0.930 . S
C2989 H2977 0.930 . S
C2989 C2990 1.399 . S
C2989 C2994 1.399 . S
C2990 C2989 1.399 . S
C2990 C2991 1.376 . S
C2991 H2978 0.930 . S
C2991 C2990 1.376 . S
C2991 C2992 1.388 . S
C2992 H2979 0.930 . S
C2992 C2991 1.388 . S
C2992 C2993 1.390 . S
C2993 C2992 1.390 . S
C2993 C2994 1.394 . S
C2993 C2999 1.465 . S
C2994 C2989 1.399 . S
C2994 C2993 1.394 . S
C2994 C2995 1.516 . S
C2995 C2994 1.516 . S
C2995 C2996 1.502 . S
C2995 C2997 1.561 . S
C2995 C2998 1.526 . S
C2996 H2980 0.959 . S
C2996 H2981 0.959 . S
C2996 H2982 0.961 . S
C2996 C2995 1.502 . S
C2997 H2983 0.960 . S
C2997 H2984 0.961 . S
C2997 H2985 0.959 . S
C2997 C2995 1.561 . S
C2998 C2995 1.526 . S
C2998 C2999 1.396 . S
C2998 C3003 1.390 . S
C2999 C2993 1.465 . S
C2999 C2998 1.396 . S
C2999 C3000 1.399 . S
C3000 H2986 0.929 . S
C3000 C2999 1.399 . S
C3000 C3001 1.385 . S
C3001 H2987 0.931 . S
C3001 C3000 1.385 . S
C3001 C3002 1.389 . S
C3002 C3001 1.389 . S
C3002 C3003 1.387 . S
C3003 H2988 0.930 . S
C3003 C2998 1.390 . S
C3003 C3002 1.387 . S
H3004 C3016 0.930 . S
H3005 C3018 0.930 . S
H3006 C3019 0.930 . S
H3007 C3023 0.959 . S
H3008 C3023 0.959 . S
H3009 C3023 0.961 . S
H3010 C3024 0.960 . S
H3011 C3024 0.961 . S
H3012 C3024 0.959 . S
H3013 C3027 0.929 . S
H3014 C3028 0.931 . S
H3015 C3030 0.930 . S
C3016 H3004 0.930 . S
C3016 C3017 1.399 . S
C3016 C3021 1.399 . S
C3017 C3016 1.399 . S
C3017 C3018 1.376 . S
C3018 H3005 0.930 . S
C3018 C3017 1.376 . S
C3018 C3019 1.388 . S
C3019 H3006 0.930 . S
C3019 C3018 1.388 . S
C3019 C3020 1.390 . S
C3020 C3019 1.390 . S
C3020 C3021 1.394 . S
C3020 C3026 1.465 . S
C3021 C3016 1.399 . S
C3021 C3020 1.394 . S
C3021 C3022 1.516 . S
C3022 C3021 1.516 . S
C3022 C3023 1.502 . S
C3022 C3024 1.561 . S
C3022 C3025 1.526 . S
C3023 H3007 0.959 . S
C3023 H3008 0.959 . S
C3023 H3009 0.961 . S
C3023 C3022 1.502 . S
C3024 H3010 0.960 . S
C3024 H3011 0.961 . S
C3024 H3012 0.959 . S
C3024 C3022 1.561 . S
C3025 C3022 1.526 . S
C3025 C3026 1.396 . S
C3025 C3030 1.390 . S
C3026 C3020 1.465 . S
C3026 C3025 1.396 . S
C3026 C3027 1.399 . S
C3027 H3013 0.929 . S
C3027 C3026 1.399 . S
C3027 C3028 1.385 . S
C3028 H3014 0.931 . S
C3028 C3027 1.385 . S
C3028 C3029 1.389 . S
C3029 C3028 1.389 . S
C3029 C3030 1.387 . S
C3030 H3015 0.930 . S
C3030 C3025 1.390 . S
C3030 C3029 1.387 . S
H3031 C3043 0.930 . S
H3032 C3045 0.930 . S
H3033 C3046 0.930 . S
H3034 C3050 0.959 . S
H3035 C3050 0.959 . S
H3036 C3050 0.961 . S
H3037 C3051 0.960 . S
H3038 C3051 0.961 . S
H3039 C3051 0.959 . S
H3040 C3054 0.929 . S
H3041 C3055 0.931 . S
H3042 C3057 0.930 . S
C3043 H3031 0.930 . S
C3043 C3044 1.399 . S
C3043 C3048 1.399 . S
C3044 C3043 1.399 . S
C3044 C3045 1.376 . S
C3045 H3032 0.930 . S
C3045 C3044 1.376 . S
C3045 C3046 1.388 . S
C3046 H3033 0.930 . S
C3046 C3045 1.388 . S
C3046 C3047 1.390 . S
C3047 C3046 1.390 . S
C3047 C3048 1.394 . S
C3047 C3053 1.465 . S
C3048 C3043 1.399 . S
C3048 C3047 1.394 . S
C3048 C3049 1.516 . S
C3049 C3048 1.516 . S
C3049 C3050 1.502 . S
C3049 C3051 1.561 . S
C3049 C3052 1.526 . S
C3050 H3034 0.959 . S
C3050 H3035 0.959 . S
C3050 H3036 0.961 . S
C3050 C3049 1.502 . S
C3051 H3037 0.960 . S
C3051 H3038 0.961 . S
C3051 H3039 0.959 . S
C3051 C3049 1.561 . S
C3052 C3049 1.526 . S
C3052 C3053 1.396 . S
C3052 C3057 1.390 . S
C3053 C3047 1.465 . S
C3053 C3052 1.396 . S
C3053 C3054 1.399 . S
C3054 H3040 0.929 . S
C3054 C3053 1.399 . S
C3054 C3055 1.385 . S
C3055 H3041 0.931 . S
C3055 C3054 1.385 . S
C3055 C3056 1.389 . S
C3056 C3055 1.389 . S
C3056 C3057 1.387 . S
C3057 H3042 0.930 . S
C3057 C3052 1.390 . S
C3057 C3056 1.387 . S
H3058 C3070 0.930 . S
H3059 C3072 0.930 . S
H3060 C3073 0.930 . S
H3061 C3077 0.959 . S
H3062 C3077 0.959 . S
H3063 C3077 0.961 . S
H3064 C3078 0.960 . S
H3065 C3078 0.961 . S
H3066 C3078 0.959 . S
H3067 C3081 0.929 . S
H3068 C3082 0.931 . S
H3069 C3084 0.930 . S
C3070 H3058 0.930 . S
C3070 C3071 1.399 . S
C3070 C3075 1.399 . S
C3071 C3070 1.399 . S
C3071 C3072 1.376 . S
C3072 H3059 0.930 . S
C3072 C3071 1.376 . S
C3072 C3073 1.388 . S
C3073 H3060 0.930 . S
C3073 C3072 1.388 . S
C3073 C3074 1.390 . S
C3074 C3073 1.390 . S
C3074 C3075 1.394 . S
C3074 C3080 1.465 . S
C3075 C3070 1.399 . S
C3075 C3074 1.394 . S
C3075 C3076 1.516 . S
C3076 C3075 1.516 . S
C3076 C3077 1.502 . S
C3076 C3078 1.561 . S
C3076 C3079 1.526 . S
C3077 H3061 0.959 . S
C3077 H3062 0.959 . S
C3077 H3063 0.961 . S
C3077 C3076 1.502 . S
C3078 H3064 0.960 . S
C3078 H3065 0.961 . S
C3078 H3066 0.959 . S
C3078 C3076 1.561 . S
C3079 C3076 1.526 . S
C3079 C3080 1.396 . S
C3079 C3084 1.390 . S
C3080 C3074 1.465 . S
C3080 C3079 1.396 . S
C3080 C3081 1.399 . S
C3081 H3067 0.929 . S
C3081 C3080 1.399 . S
C3081 C3082 1.385 . S
C3082 H3068 0.931 . S
C3082 C3081 1.385 . S
C3082 C3083 1.389 . S
C3083 C3082 1.389 . S
C3083 C3084 1.387 . S
C3084 H3069 0.930 . S
C3084 C3079 1.390 . S
C3084 C3083 1.387 . S
H3085 C3097 0.930 . S
H3086 C3099 0.930 . S
H3087 C3100 0.930 . S
H3088 C3104 0.959 . S
H3089 C3104 0.959 . S
H3090 C3104 0.961 . S
H3091 C3105 0.960 . S
H3092 C3105 0.961 . S
H3093 C3105 0.959 . S
H3094 C3108 0.929 . S
H3095 C3109 0.931 . S
H3096 C3111 0.930 . S
C3097 H3085 0.930 . S
C3097 C3098 1.399 . S
C3097 C3102 1.399 . S
C3098 C3097 1.399 . S
C3098 C3099 1.376 . S
C3099 H3086 0.930 . S
C3099 C3098 1.376 . S
C3099 C3100 1.388 . S
C3100 H3087 0.930 . S
C3100 C3099 1.388 . S
C3100 C3101 1.390 . S
C3101 C3100 1.390 . S
C3101 C3102 1.394 . S
C3101 C3107 1.465 . S
C3102 C3097 1.399 . S
C3102 C3101 1.394 . S
C3102 C3103 1.516 . S
C3103 C3102 1.516 . S
C3103 C3104 1.502 . S
C3103 C3105 1.561 . S
C3103 C3106 1.526 . S
C3104 H3088 0.959 . S
C3104 H3089 0.959 . S
C3104 H3090 0.961 . S
C3104 C3103 1.502 . S
C3105 H3091 0.960 . S
C3105 H3092 0.961 . S
C3105 H3093 0.959 . S
C3105 C3103 1.561 . S
C3106 C3103 1.526 . S
C3106 C3107 1.396 . S
C3106 C3111 1.390 . S
C3107 C3101 1.465 . S
C3107 C3106 1.396 . S
C3107 C3108 1.399 . S
C3108 H3094 0.929 . S
C3108 C3107 1.399 . S
C3108 C3109 1.385 . S
C3109 H3095 0.931 . S
C3109 C3108 1.385 . S
C3109 C3110 1.389 . S
C3110 C3109 1.389 . S
C3110 C3111 1.387 . S
C3111 H3096 0.930 . S
C3111 C3106 1.390 . S
C3111 C3110 1.387 . S
H3112 C3124 0.930 . S
H3113 C3126 0.930 . S
H3114 C3127 0.930 . S
H3115 C3131 0.959 . S
H3116 C3131 0.959 . S
H3117 C3131 0.961 . S
H3118 C3132 0.960 . S
H3119 C3132 0.961 . S
H3120 C3132 0.959 . S
H3121 C3135 0.929 . S
H3122 C3136 0.931 . S
H3123 C3138 0.930 . S
C3124 H3112 0.930 . S
C3124 C3125 1.399 . S
C3124 C3129 1.399 . S
C3125 C3124 1.399 . S
C3125 C3126 1.376 . S
C3126 H3113 0.930 . S
C3126 C3125 1.376 . S
C3126 C3127 1.388 . S
C3127 H3114 0.930 . S
C3127 C3126 1.388 . S
C3127 C3128 1.390 . S
C3128 C3127 1.390 . S
C3128 C3129 1.394 . S
C3128 C3134 1.465 . S
C3129 C3124 1.399 . S
C3129 C3128 1.394 . S
C3129 C3130 1.516 . S
C3130 C3129 1.516 . S
C3130 C3131 1.502 . S
C3130 C3132 1.561 . S
C3130 C3133 1.526 . S
C3131 H3115 0.959 . S
C3131 H3116 0.959 . S
C3131 H3117 0.961 . S
C3131 C3130 1.502 . S
C3132 H3118 0.960 . S
C3132 H3119 0.961 . S
C3132 H3120 0.959 . S
C3132 C3130 1.561 . S
C3133 C3130 1.526 . S
C3133 C3134 1.396 . S
C3133 C3138 1.390 . S
C3134 C3128 1.465 . S
C3134 C3133 1.396 . S
C3134 C3135 1.399 . S
C3135 H3121 0.929 . S
C3135 C3134 1.399 . S
C3135 C3136 1.385 . S
C3136 H3122 0.931 . S
C3136 C3135 1.385 . S
C3136 C3137 1.389 . S
C3137 C3136 1.389 . S
C3137 C3138 1.387 . S
C3138 H3123 0.930 . S
C3138 C3133 1.390 . S
C3138 C3137 1.387 . S
H3139 C3151 0.930 . S
H3140 C3153 0.930 . S
H3141 C3154 0.930 . S
H3142 C3158 0.959 . S
H3143 C3158 0.959 . S
H3144 C3158 0.961 . S
H3145 C3159 0.960 . S
H3146 C3159 0.961 . S
H3147 C3159 0.959 . S
H3148 C3162 0.929 . S
H3149 C3163 0.931 . S
H3150 C3165 0.930 . S
C3151 H3139 0.930 . S
C3151 C3152 1.399 . S
C3151 C3156 1.399 . S
C3152 C3151 1.399 . S
C3152 C3153 1.376 . S
C3153 H3140 0.930 . S
C3153 C3152 1.376 . S
C3153 C3154 1.388 . S
C3154 H3141 0.930 . S
C3154 C3153 1.388 . S
C3154 C3155 1.390 . S
C3155 C3154 1.390 . S
C3155 C3156 1.394 . S
C3155 C3161 1.465 . S
C3156 C3151 1.399 . S
C3156 C3155 1.394 . S
C3156 C3157 1.516 . S
C3157 C3156 1.516 . S
C3157 C3158 1.502 . S
C3157 C3159 1.561 . S
C3157 C3160 1.526 . S
C3158 H3142 0.959 . S
C3158 H3143 0.959 . S
C3158 H3144 0.961 . S
C3158 C3157 1.502 . S
C3159 H3145 0.960 . S
C3159 H3146 0.961 . S
C3159 H3147 0.959 . S
C3159 C3157 1.561 . S
C3160 C3157 1.526 . S
C3160 C3161 1.396 . S
C3160 C3165 1.390 . S
C3161 C3155 1.465 . S
C3161 C3160 1.396 . S
C3161 C3162 1.399 . S
C3162 H3148 0.929 . S
C3162 C3161 1.399 . S
C3162 C3163 1.385 . S
C3163 H3149 0.931 . S
C3163 C3162 1.385 . S
C3163 C3164 1.389 . S
C3164 C3163 1.389 . S
C3164 C3165 1.387 . S
C3165 H3150 0.930 . S
C3165 C3160 1.390 . S
C3165 C3164 1.387 . S
H3166 C3178 0.930 . S
H3167 C3180 0.930 . S
H3168 C3181 0.930 . S
H3169 C3185 0.959 . S
H3170 C3185 0.959 . S
H3171 C3185 0.961 . S
H3172 C3186 0.960 . S
H3173 C3186 0.961 . S
H3174 C3186 0.959 . S
H3175 C3189 0.929 . S
H3176 C3190 0.924 1_455 S
H3177 C3192 0.930 . S
C3178 H3166 0.930 . S
C3178 C3179 1.399 . S
C3178 C3183 1.399 . S
C3179 C3178 1.399 . S
C3179 C3180 1.376 . S
C3180 H3167 0.930 . S
C3180 C3179 1.376 . S
C3180 C3181 1.388 . S
C3181 H3168 0.930 . S
C3181 C3180 1.388 . S
C3181 C3182 1.390 . S
C3182 C3181 1.390 . S
C3182 C3183 1.394 . S
C3182 C3188 1.465 . S
C3183 C3178 1.399 . S
C3183 C3182 1.394 . S
C3183 C3184 1.516 . S
C3184 C3183 1.516 . S
C3184 C3185 1.502 1_655 S
C3184 C3186 1.561 . S
C3184 C3187 1.526 . S
C3185 H3169 0.959 . S
C3185 H3170 0.959 . S
C3185 H3171 0.961 . S
C3185 C3184 1.502 1_455 S
C3186 H3172 0.960 . S
C3186 H3173 0.961 . S
C3186 H3174 0.959 . S
C3186 C3184 1.561 . S
C3187 C3184 1.526 . S
C3187 C3188 1.396 . S
C3187 C3192 1.390 1_655 S
C3188 C3182 1.465 . S
C3188 C3187 1.396 . S
C3188 C3189 1.399 . S
C3189 H3175 0.929 . S
C3189 C3188 1.399 . S
C3189 C3190 1.395 . S
C3190 H3176 0.924 1_655 S
C3190 C3189 1.395 . S
C3190 C3191 1.382 1_655 S
C3191 C3190 1.382 1_455 S
C3191 C3192 1.387 . S
C3192 H3177 0.930 . S
C3192 C3187 1.390 1_455 S
C3192 C3191 1.387 . S
H3193 C3205 0.930 . S
H3194 C3207 0.930 . S
H3195 C3208 0.930 . S
H3196 C3212 0.959 . S
H3197 C3212 0.959 . S
H3198 C3212 0.961 . S
H3199 C3213 0.960 . S
H3200 C3213 0.961 . S
H3201 C3213 0.959 . S
H3202 C3216 0.929 . S
H3203 C3217 0.931 . S
H3204 C3219 0.930 . S
C3205 H3193 0.930 . S
C3205 C3206 1.399 . S
C3205 C3210 1.399 . S
C3206 C3205 1.399 . S
C3206 C3207 1.376 . S
C3207 H3194 0.930 . S
C3207 C3206 1.376 . S
C3207 C3208 1.388 . S
C3208 H3195 0.930 . S
C3208 C3207 1.388 . S
C3208 C3209 1.390 . S
C3209 C3208 1.390 . S
C3209 C3210 1.394 . S
C3209 C3215 1.465 . S
C3210 C3205 1.399 . S
C3210 C3209 1.394 . S
C3210 C3211 1.516 . S
C3211 C3210 1.516 . S
C3211 C3212 1.502 . S
C3211 C3213 1.561 . S
C3211 C3214 1.526 . S
C3212 H3196 0.959 . S
C3212 H3197 0.959 . S
C3212 H3198 0.961 . S
C3212 C3211 1.502 . S
C3213 H3199 0.960 . S
C3213 H3200 0.961 . S
C3213 H3201 0.959 . S
C3213 C3211 1.561 . S
C3214 C3211 1.526 . S
C3214 C3215 1.396 . S
C3214 C3219 1.390 . S
C3215 C3209 1.465 . S
C3215 C3214 1.396 . S
C3215 C3216 1.399 . S
C3216 H3202 0.929 . S
C3216 C3215 1.399 . S
C3216 C3217 1.385 . S
C3217 H3203 0.931 . S
C3217 C3216 1.385 . S
C3217 C3218 1.389 . S
C3218 C3217 1.389 . S
C3218 C3219 1.387 . S
C3219 H3204 0.930 . S
C3219 C3214 1.390 . S
C3219 C3218 1.387 . S
H3220 C3232 0.930 . S
H3221 C3234 0.930 . S
H3222 C3235 0.930 . S
H3223 C3239 0.959 . S
H3224 C3239 0.959 . S
H3225 C3239 0.961 . S
H3226 C3240 0.960 . S
H3227 C3240 0.961 . S
H3228 C3240 0.959 . S
H3229 C3243 0.929 . S
H3230 C3244 0.931 . S
H3231 C3246 0.930 . S
C3232 H3220 0.930 . S
C3232 C3233 1.399 . S
C3232 C3237 1.399 . S
C3233 C3232 1.399 . S
C3233 C3234 1.376 . S
C3234 H3221 0.930 . S
C3234 C3233 1.376 . S
C3234 C3235 1.388 . S
C3235 H3222 0.930 . S
C3235 C3234 1.388 . S
C3235 C3236 1.390 . S
C3236 C3235 1.390 . S
C3236 C3237 1.394 . S
C3236 C3242 1.465 . S
C3237 C3232 1.399 . S
C3237 C3236 1.394 . S
C3237 C3238 1.516 . S
C3238 C3237 1.516 . S
C3238 C3239 1.502 . S
C3238 C3240 1.561 . S
C3238 C3241 1.526 . S
C3239 H3223 0.959 . S
C3239 H3224 0.959 . S
C3239 H3225 0.961 . S
C3239 C3238 1.502 . S
C3240 H3226 0.960 . S
C3240 H3227 0.961 . S
C3240 H3228 0.959 . S
C3240 C3238 1.561 . S
C3241 C3238 1.526 . S
C3241 C3242 1.396 . S
C3241 C3246 1.390 . S
C3242 C3236 1.465 . S
C3242 C3241 1.396 . S
C3242 C3243 1.399 . S
C3243 H3229 0.929 . S
C3243 C3242 1.399 . S
C3243 C3244 1.385 . S
C3244 H3230 0.931 . S
C3244 C3243 1.385 . S
C3244 C3245 1.389 . S
C3245 C3244 1.389 . S
C3245 C3246 1.387 . S
C3246 H3231 0.930 . S
C3246 C3241 1.390 . S
C3246 C3245 1.387 . S
H3247 C3259 0.930 . S
H3248 C3261 0.930 . S
H3249 C3262 0.930 . S
H3250 C3266 0.959 . S
H3251 C3266 0.959 . S
H3252 C3266 0.961 . S
H3253 C3267 0.960 . S
H3254 C3267 0.961 . S
H3255 C3267 0.959 . S
H3256 C3270 0.929 . S
H3257 C3271 0.931 . S
H3258 C3273 0.930 . S
C3259 H3247 0.930 . S
C3259 C3260 1.399 . S
C3259 C3264 1.399 . S
C3260 C3259 1.399 . S
C3260 C3261 1.376 . S
C3261 H3248 0.930 . S
C3261 C3260 1.376 . S
C3261 C3262 1.388 . S
C3262 H3249 0.930 . S
C3262 C3261 1.388 . S
C3262 C3263 1.390 . S
C3263 C3262 1.390 . S
C3263 C3264 1.394 . S
C3263 C3269 1.465 . S
C3264 C3259 1.399 . S
C3264 C3263 1.394 . S
C3264 C3265 1.516 . S
C3265 C3264 1.516 . S
C3265 C3266 1.502 . S
C3265 C3267 1.561 . S
C3265 C3268 1.526 . S
C3266 H3250 0.959 . S
C3266 H3251 0.959 . S
C3266 H3252 0.961 . S
C3266 C3265 1.502 . S
C3267 H3253 0.960 . S
C3267 H3254 0.961 . S
C3267 H3255 0.959 . S
C3267 C3265 1.561 . S
C3268 C3265 1.526 . S
C3268 C3269 1.396 . S
C3268 C3273 1.390 . S
C3269 C3263 1.465 . S
C3269 C3268 1.396 . S
C3269 C3270 1.399 . S
C3270 H3256 0.929 . S
C3270 C3269 1.399 . S
C3270 C3271 1.385 . S
C3271 H3257 0.931 . S
C3271 C3270 1.385 . S
C3271 C3272 1.389 . S
C3272 C3271 1.389 . S
C3272 C3273 1.387 . S
C3273 H3258 0.930 . S
C3273 C3268 1.390 . S
C3273 C3272 1.387 . S
H3274 C3286 0.930 . S
H3275 C3288 0.930 . S
H3276 C3289 0.930 . S
H3277 C3293 0.959 . S
H3278 C3293 0.959 . S
H3279 C3293 0.961 . S
H3280 C3294 0.960 . S
H3281 C3294 0.961 . S
H3282 C3294 0.959 . S
H3283 C3297 0.929 . S
H3284 C3298 0.931 . S
H3285 C3300 0.930 . S
C3286 H3274 0.930 . S
C3286 C3287 1.399 . S
C3286 C3291 1.399 . S
C3287 C3286 1.399 . S
C3287 C3288 1.376 . S
C3288 H3275 0.930 . S
C3288 C3287 1.376 . S
C3288 C3289 1.388 . S
C3289 H3276 0.930 . S
C3289 C3288 1.388 . S
C3289 C3290 1.390 . S
C3290 C3289 1.390 . S
C3290 C3291 1.394 . S
C3290 C3296 1.465 . S
C3291 C3286 1.399 . S
C3291 C3290 1.394 . S
C3291 C3292 1.516 . S
C3292 C3291 1.516 . S
C3292 C3293 1.502 . S
C3292 C3294 1.561 . S
C3292 C3295 1.526 . S
C3293 H3277 0.959 . S
C3293 H3278 0.959 . S
C3293 H3279 0.961 . S
C3293 C3292 1.502 . S
C3294 H3280 0.960 . S
C3294 H3281 0.961 . S
C3294 H3282 0.959 . S
C3294 C3292 1.561 . S
C3295 C3292 1.526 . S
C3295 C3296 1.396 . S
C3295 C3300 1.390 . S
C3296 C3290 1.465 . S
C3296 C3295 1.396 . S
C3296 C3297 1.399 . S
C3297 H3283 0.929 . S
C3297 C3296 1.399 . S
C3297 C3298 1.385 . S
C3298 H3284 0.931 . S
C3298 C3297 1.385 . S
C3298 C3299 1.389 . S
C3299 C3298 1.389 . S
C3299 C3300 1.387 . S
C3300 H3285 0.930 . S
C3300 C3295 1.390 . S
C3300 C3299 1.387 . S
H3301 C3313 0.930 . S
H3302 C3315 0.930 . S
H3303 C3316 0.930 . S
H3304 C3320 0.959 . S
H3305 C3320 0.959 . S
H3306 C3320 0.961 . S
H3307 C3321 0.960 . S
H3308 C3321 0.961 . S
H3309 C3321 0.959 . S
H3310 C3324 0.929 . S
H3311 C3325 0.931 . S
H3312 C3327 0.930 . S
C3313 H3301 0.930 . S
C3313 C3314 1.399 . S
C3313 C3318 1.399 . S
C3314 C3313 1.399 . S
C3314 C3315 1.376 . S
C3315 H3302 0.930 . S
C3315 C3314 1.376 . S
C3315 C3316 1.388 . S
C3316 H3303 0.930 . S
C3316 C3315 1.388 . S
C3316 C3317 1.390 . S
C3317 C3316 1.390 . S
C3317 C3318 1.394 . S
C3317 C3323 1.465 . S
C3318 C3313 1.399 . S
C3318 C3317 1.394 . S
C3318 C3319 1.516 . S
C3319 C3318 1.516 . S
C3319 C3320 1.502 . S
C3319 C3321 1.561 . S
C3319 C3322 1.526 . S
C3320 H3304 0.959 . S
C3320 H3305 0.959 . S
C3320 H3306 0.961 . S
C3320 C3319 1.502 . S
C3321 H3307 0.960 . S
C3321 H3308 0.961 . S
C3321 H3309 0.959 . S
C3321 C3319 1.561 . S
C3322 C3319 1.526 . S
C3322 C3323 1.396 . S
C3322 C3327 1.390 . S
C3323 C3317 1.465 . S
C3323 C3322 1.396 . S
C3323 C3324 1.399 . S
C3324 H3310 0.929 . S
C3324 C3323 1.399 . S
C3324 C3325 1.385 . S
C3325 H3311 0.931 . S
C3325 C3324 1.385 . S
C3325 C3326 1.389 . S
C3326 C3325 1.389 . S
C3326 C3327 1.387 . S
C3327 H3312 0.930 . S
C3327 C3322 1.390 . S
C3327 C3326 1.387 . S
H3328 C3340 0.930 . S
H3329 C3342 0.930 . S
H3330 C3343 0.930 . S
H3331 C3347 0.959 . S
H3332 C3347 0.959 . S
H3333 C3347 0.961 . S
H3334 C3348 0.960 . S
H3335 C3348 0.961 . S
H3336 C3348 0.959 . S
H3337 C3351 0.929 . S
H3338 C3352 0.931 . S
H3339 C3354 0.930 . S
C3340 H3328 0.930 . S
C3340 C3341 1.399 . S
C3340 C3345 1.399 . S
C3341 C3340 1.399 . S
C3341 C3342 1.376 . S
C3342 H3329 0.930 . S
C3342 C3341 1.376 . S
C3342 C3343 1.388 . S
C3343 H3330 0.930 . S
C3343 C3342 1.388 . S
C3343 C3344 1.390 . S
C3344 C3343 1.390 . S
C3344 C3345 1.394 . S
C3344 C3350 1.465 . S
C3345 C3340 1.399 . S
C3345 C3344 1.394 . S
C3345 C3346 1.516 . S
C3346 C3345 1.516 . S
C3346 C3347 1.502 . S
C3346 C3348 1.561 . S
C3346 C3349 1.526 . S
C3347 H3331 0.959 . S
C3347 H3332 0.959 . S
C3347 H3333 0.961 . S
C3347 C3346 1.502 . S
C3348 H3334 0.960 . S
C3348 H3335 0.961 . S
C3348 H3336 0.959 . S
C3348 C3346 1.561 . S
C3349 C3346 1.526 . S
C3349 C3350 1.396 . S
C3349 C3354 1.390 . S
C3350 C3344 1.465 . S
C3350 C3349 1.396 . S
C3350 C3351 1.399 . S
C3351 H3337 0.929 . S
C3351 C3350 1.399 . S
C3351 C3352 1.385 . S
C3352 H3338 0.931 . S
C3352 C3351 1.385 . S
C3352 C3353 1.389 . S
C3353 C3352 1.389 . S
C3353 C3354 1.387 . S
C3354 H3339 0.930 . S
C3354 C3349 1.390 . S
C3354 C3353 1.387 . S
H3355 C3367 0.930 . S
H3356 C3369 0.930 . S
H3357 C3370 0.930 . S
H3358 C3374 0.959 . S
H3359 C3374 0.959 . S
H3360 C3374 0.961 . S
H3361 C3375 0.960 . S
H3362 C3375 0.961 . S
H3363 C3375 0.959 . S
H3364 C3378 0.929 . S
H3365 C3379 0.931 . S
H3366 C3381 0.930 . S
C3367 H3355 0.930 . S
C3367 C3368 1.399 . S
C3367 C3372 1.399 . S
C3368 C3367 1.399 . S
C3368 C3369 1.376 . S
C3369 H3356 0.930 . S
C3369 C3368 1.376 . S
C3369 C3370 1.388 . S
C3370 H3357 0.930 . S
C3370 C3369 1.388 . S
C3370 C3371 1.390 . S
C3371 C3370 1.390 . S
C3371 C3372 1.394 . S
C3371 C3377 1.465 . S
C3372 C3367 1.399 . S
C3372 C3371 1.394 . S
C3372 C3373 1.516 . S
C3373 C3372 1.516 . S
C3373 C3374 1.502 . S
C3373 C3375 1.561 . S
C3373 C3376 1.526 . S
C3374 H3358 0.959 . S
C3374 H3359 0.959 . S
C3374 H3360 0.961 . S
C3374 C3373 1.502 . S
C3375 H3361 0.960 . S
C3375 H3362 0.961 . S
C3375 H3363 0.959 . S
C3375 C3373 1.561 . S
C3376 C3373 1.526 . S
C3376 C3377 1.396 . S
C3376 C3381 1.390 . S
C3377 C3371 1.465 . S
C3377 C3376 1.396 . S
C3377 C3378 1.399 . S
C3378 H3364 0.929 . S
C3378 C3377 1.399 . S
C3378 C3379 1.385 1_565 S
C3379 H3365 0.931 . S
C3379 C3378 1.385 1_545 S
C3379 C3380 1.389 1_545 S
C3380 C3379 1.389 1_565 S
C3380 C3381 1.387 . S
C3381 H3366 0.930 . S
C3381 C3376 1.390 . S
C3381 C3380 1.387 . S
H3382 C3394 0.930 . S
H3383 C3396 0.930 . S
H3384 C3397 0.930 . S
H3385 C3401 0.959 . S
H3386 C3401 0.959 . S
H3387 C3401 0.961 . S
H3388 C3402 0.960 . S
H3389 C3402 0.961 . S
H3390 C3402 0.959 . S
H3391 C3405 0.929 . S
H3392 C3406 0.931 . S
H3393 C3408 0.930 . S
C3394 H3382 0.930 . S
C3394 C3395 1.399 . S
C3394 C3399 1.399 . S
C3395 C3394 1.399 . S
C3395 C3396 1.376 . S
C3396 H3383 0.930 . S
C3396 C3395 1.376 . S
C3396 C3397 1.388 . S
C3397 H3384 0.930 . S
C3397 C3396 1.388 . S
C3397 C3398 1.390 . S
C3398 C3397 1.390 . S
C3398 C3399 1.394 . S
C3398 C3404 1.465 . S
C3399 C3394 1.399 . S
C3399 C3398 1.394 . S
C3399 C3400 1.516 . S
C3400 C3399 1.516 . S
C3400 C3401 1.502 . S
C3400 C3402 1.561 . S
C3400 C3403 1.526 . S
C3401 H3385 0.959 . S
C3401 H3386 0.959 . S
C3401 H3387 0.961 . S
C3401 C3400 1.502 . S
C3402 H3388 0.960 . S
C3402 H3389 0.961 . S
C3402 H3390 0.959 . S
C3402 C3400 1.561 . S
C3403 C3400 1.526 . S
C3403 C3404 1.396 . S
C3403 C3408 1.390 . S
C3404 C3398 1.465 . S
C3404 C3403 1.396 . S
C3404 C3405 1.399 . S
C3405 H3391 0.929 . S
C3405 C3404 1.399 . S
C3405 C3406 1.385 . S
C3406 H3392 0.931 . S
C3406 C3405 1.385 . S
C3406 C3407 1.389 . S
C3407 C3406 1.389 . S
C3407 C3408 1.387 . S
C3408 H3393 0.930 . S
C3408 C3403 1.390 . S
C3408 C3407 1.387 . S
H3409 C3421 0.930 . S
H3410 C3423 0.930 . S
H3411 C3424 0.930 . S
H3412 C3428 0.959 . S
H3413 C3428 0.959 . S
H3414 C3428 0.961 . S
H3415 C3429 0.960 . S
H3416 C3429 0.961 . S
H3417 C3429 0.959 . S
H3418 C3432 0.929 . S
H3419 C3433 0.931 . S
H3420 C3435 0.930 . S
C3421 H3409 0.930 . S
C3421 C3422 1.399 . S
C3421 C3426 1.399 . S
C3422 C3421 1.399 . S
C3422 C3423 1.376 1_554 S
C3423 H3410 0.930 . S
C3423 C3422 1.376 1_556 S
C3423 C3424 1.388 . S
C3424 H3411 0.930 . S
C3424 C3423 1.388 . S
C3424 C3425 1.390 . S
C3425 C3424 1.390 . S
C3425 C3426 1.394 1_556 S
C3425 C3431 1.465 . S
C3426 C3421 1.399 . S
C3426 C3425 1.394 1_554 S
C3426 C3427 1.516 . S
C3427 C3426 1.516 . S
C3427 C3428 1.502 . S
C3427 C3429 1.561 . S
C3427 C3430 1.526 . S
C3428 H3412 0.959 . S
C3428 H3413 0.959 . S
C3428 H3414 0.961 . S
C3428 C3427 1.502 . S
C3429 H3415 0.960 . S
C3429 H3416 0.961 . S
C3429 H3417 0.959 . S
C3429 C3427 1.561 . S
C3430 C3427 1.526 . S
C3430 C3431 1.396 1_554 S
C3430 C3435 1.390 . S
C3431 C3425 1.465 . S
C3431 C3430 1.396 1_556 S
C3431 C3432 1.399 . S
C3432 H3418 0.929 . S
C3432 C3431 1.399 . S
C3432 C3433 1.385 . S
C3433 H3419 0.931 . S
C3433 C3432 1.385 . S
C3433 C3434 1.389 1_556 S
C3434 C3433 1.389 1_554 S
C3434 C3435 1.387 . S
C3435 H3420 0.930 . S
C3435 C3430 1.390 . S
C3435 C3434 1.387 . S
H3436 C3448 0.930 . S
H3437 C3450 0.930 . S
H3438 C3451 0.930 . S
H3439 C3455 0.959 . S
H3440 C3455 0.959 . S
H3441 C3455 0.961 . S
H3442 C3456 0.960 . S
H3443 C3456 0.961 . S
H3444 C3456 0.959 . S
H3445 C3459 0.929 . S
H3446 C3460 0.931 . S
H3447 C3462 0.930 . S
C3448 H3436 0.930 . S
C3448 C3449 1.399 . S
C3448 C3453 1.399 . S
C3449 C3448 1.399 . S
C3449 C3450 1.376 . S
C3450 H3437 0.930 . S
C3450 C3449 1.376 . S
C3450 C3451 1.388 . S
C3451 H3438 0.930 . S
C3451 C3450 1.388 . S
C3451 C3452 1.390 . S
C3452 C3451 1.390 . S
C3452 C3453 1.394 . S
C3452 C3458 1.465 . S
C3453 C3448 1.399 . S
C3453 C3452 1.394 . S
C3453 C3454 1.516 . S
C3454 C3453 1.516 . S
C3454 C3455 1.502 . S
C3454 C3456 1.561 . S
C3454 C3457 1.526 . S
C3455 H3439 0.959 . S
C3455 H3440 0.959 . S
C3455 H3441 0.961 . S
C3455 C3454 1.502 . S
C3456 H3442 0.960 . S
C3456 H3443 0.961 . S
C3456 H3444 0.959 . S
C3456 C3454 1.561 . S
C3457 C3454 1.526 . S
C3457 C3458 1.396 . S
C3457 C3462 1.390 . S
C3458 C3452 1.465 . S
C3458 C3457 1.396 . S
C3458 C3459 1.399 . S
C3459 H3445 0.929 . S
C3459 C3458 1.399 . S
C3459 C3460 1.385 . S
C3460 H3446 0.931 . S
C3460 C3459 1.385 . S
C3460 C3461 1.389 . S
C3461 C3460 1.389 . S
C3461 C3462 1.387 . S
C3462 H3447 0.930 . S
C3462 C3457 1.390 . S
C3462 C3461 1.387 . S
H3463 C3475 0.930 1_556 S
H3464 C3477 0.930 . S
H3465 C3478 0.930 . S
H3466 C3482 0.959 . S
H3467 C3482 0.959 . S
H3468 C3482 0.961 . S
H3469 C3483 0.960 . S
H3470 C3483 0.961 . S
H3471 C3483 0.959 . S
H3472 C3486 0.929 . S
H3473 C3487 0.931 . S
H3474 C3489 0.930 . S
C3475 H3463 0.930 1_554 S
C3475 C3476 1.399 . S
C3475 C3480 1.399 . S
C3476 C3475 1.399 . S
C3476 C3477 1.376 . S
C3477 H3464 0.930 . S
C3477 C3476 1.376 . S
C3477 C3478 1.388 . S
C3478 H3465 0.930 . S
C3478 C3477 1.388 . S
C3478 C3479 1.390 . S
C3479 C3478 1.390 . S
C3479 C3480 1.394 . S
C3479 C3485 1.465 . S
C3480 C3475 1.399 . S
C3480 C3479 1.394 . S
C3480 C3481 1.516 1_554 S
C3481 C3480 1.516 1_556 S
C3481 C3482 1.502 . S
C3481 C3483 1.561 . S
C3481 C3484 1.526 . S
C3482 H3466 0.959 . S
C3482 H3467 0.959 . S
C3482 H3468 0.961 . S
C3482 C3481 1.502 . S
C3483 H3469 0.960 . S
C3483 H3470 0.961 . S
C3483 H3471 0.959 . S
C3483 C3481 1.561 . S
C3484 C3481 1.526 . S
C3484 C3485 1.396 1_556 S
C3484 C3489 1.390 . S
C3485 C3479 1.465 . S
C3485 C3484 1.396 1_554 S
C3485 C3486 1.399 . S
C3486 H3472 0.929 . S
C3486 C3485 1.399 . S
C3486 C3487 1.385 . S
C3487 H3473 0.931 . S
C3487 C3486 1.385 . S
C3487 C3488 1.379 1_554 S
C3488 C3487 1.379 1_556 S
C3488 C3489 1.393 . S
C3489 H3474 0.930 . S
C3489 C3484 1.390 . S
C3489 C3488 1.393 . S
H3490 C3502 0.930 . S
H3491 C3504 0.930 . S
H3492 C3505 0.930 . S
H3493 C3509 0.959 . S
H3494 C3509 0.959 . S
H3495 C3509 0.961 . S
H3496 C3510 0.960 . S
H3497 C3510 0.961 . S
H3498 C3510 0.959 . S
H3499 C3513 0.929 . S
H3500 C3514 0.931 . S
H3501 C3516 0.930 . S
C3502 H3490 0.930 . S
C3502 C3503 1.399 . S
C3502 C3507 1.399 . S
C3503 C3502 1.399 . S
C3503 C3504 1.376 . S
C3504 H3491 0.930 . S
C3504 C3503 1.376 . S
C3504 C3505 1.388 . S
C3505 H3492 0.930 . S
C3505 C3504 1.388 . S
C3505 C3506 1.390 . S
C3506 C3505 1.390 . S
C3506 C3507 1.394 . S
C3506 C3512 1.465 . S
C3507 C3502 1.399 . S
C3507 C3506 1.394 . S
C3507 C3508 1.516 . S
C3508 C3507 1.516 . S
C3508 C3509 1.502 . S
C3508 C3510 1.561 . S
C3508 C3511 1.526 . S
C3509 H3493 0.959 . S
C3509 H3494 0.959 . S
C3509 H3495 0.961 . S
C3509 C3508 1.502 . S
C3510 H3496 0.960 . S
C3510 H3497 0.961 . S
C3510 H3498 0.959 . S
C3510 C3508 1.561 . S
C3511 C3508 1.526 . S
C3511 C3512 1.396 . S
C3511 C3516 1.390 . S
C3512 C3506 1.465 . S
C3512 C3511 1.396 . S
C3512 C3513 1.399 . S
C3513 H3499 0.929 . S
C3513 C3512 1.399 . S
C3513 C3514 1.385 . S
C3514 H3500 0.931 . S
C3514 C3513 1.385 . S
C3514 C3515 1.389 . S
C3515 C3514 1.389 . S
C3515 C3516 1.387 . S
C3516 H3501 0.930 . S
C3516 C3511 1.390 . S
C3516 C3515 1.387 . S
H3517 C3529 0.930 . S
H3518 C3531 0.930 . S
H3519 C3532 0.930 . S
H3520 C3536 0.959 . S
H3521 C3536 0.959 . S
H3522 C3536 0.961 . S
H3523 C3537 0.960 . S
H3524 C3537 0.961 . S
H3525 C3537 0.959 . S
H3526 C3540 0.929 . S
H3527 C3541 0.931 . S
H3528 C3543 0.930 . S
C3529 H3517 0.930 . S
C3529 C3530 1.399 . S
C3529 C3534 1.399 . S
C3530 C3529 1.399 . S
C3530 C3531 1.376 . S
C3531 H3518 0.930 . S
C3531 C3530 1.376 . S
C3531 C3532 1.388 . S
C3532 H3519 0.930 . S
C3532 C3531 1.388 . S
C3532 C3533 1.390 . S
C3533 C3532 1.390 . S
C3533 C3534 1.394 . S
C3533 C3539 1.465 . S
C3534 C3529 1.399 . S
C3534 C3533 1.394 . S
C3534 C3535 1.516 . S
C3535 C3534 1.516 . S
C3535 C3536 1.502 . S
C3535 C3537 1.561 . S
C3535 C3538 1.526 . S
C3536 H3520 0.959 . S
C3536 H3521 0.959 . S
C3536 H3522 0.961 . S
C3536 C3535 1.502 . S
C3537 H3523 0.960 . S
C3537 H3524 0.961 . S
C3537 H3525 0.959 . S
C3537 C3535 1.561 . S
C3538 C3535 1.526 . S
C3538 C3539 1.396 . S
C3538 C3543 1.390 . S
C3539 C3533 1.465 . S
C3539 C3538 1.396 . S
C3539 C3540 1.399 . S
C3540 H3526 0.929 . S
C3540 C3539 1.399 . S
C3540 C3541 1.385 . S
C3541 H3527 0.931 . S
C3541 C3540 1.385 . S
C3541 C3542 1.389 . S
C3542 C3541 1.389 . S
C3542 C3543 1.387 . S
C3543 H3528 0.930 . S
C3543 C3538 1.390 . S
C3543 C3542 1.387 . S
C965 C101 2.203 . S
C977 C322 2.179 . S
C992 C57 2.082 . S
C1004 C370 2.113 . S
C1019 C70 1.026 . S
C1031 C402 1.032 . S
C1058 C447 1.368 . S
C1046 C82 1.373 . S
C1073 C23 1.474 . S
C1085 C487 1.373 . S
C1112 C518 0.599 . S
C1100 C29 0.420 . S
C1139 C570 1.270 . S
C1127 C49 1.191 . S
C1154 C10 1.884 . S
C1166 C602 1.788 . S
C1193 C330 2.408 . S
C1181 C218 2.397 . S
C1208 C226 0.721 . S
C1220 C367 0.634 . S
C1247 C410 1.290 . S
C1235 C251 1.279 . S
C1274 C442 1.157 . S
C1262 C159 1.207 . S
C1289 C211 1.870 . S
C1301 C482 1.820 . S
C1328 C521 1.448 . S
C1316 C225 1.439 . S
C1355 C567 0.357 . S
C1343 C252 0.402 . S
C1382 C610 2.050 . S
C1370 C166 2.047 . S
C1409 C327 1.550 . S
C1397 C147 1.531 . S
C1424 C263 1.875 1_554 S
C1436 C650 1.933 1_554 S
C1463 C691 2.599 . S
C1451 C309 2.635 . S
C1490 C722 0.432 . S
C1478 C291 0.502 . S
C1505 C108 1.599 . S
C1517 C607 1.607 . S
C1532 C121 1.595 . S
C1544 C407 1.584 . S
C1559 C302 2.165 . S
C1571 C770 2.181 . S
C1598 C802 0.737 . S
C1586 C276 0.489 . S
C1625 C331 2.312 1_565 S
C1613 C55 2.343 . S
C1652 C801 2.355 . S
C1640 C96 2.353 . S
C1667 C88 1.416 . S
C1679 C411 1.362 . S
C1694 C75 1.563 . S
C1706 C758 1.564 . S
C1733 C478 1.427 . S
C1721 C4 1.390 . S
C1748 C44 0.635 . S
C1760 C687 0.658 . S
C1787 C561 1.604 1_565 S
C1775 C31 1.622 . S
C1814 C851 1.841 . S
C1802 C18 1.929 . S
C1841 C321 2.619 . S
C1829 C133 2.636 . S
C1868 C798 0.728 . S
C1856 C296 0.621 . S
C1883 C107 1.542 . S
C1895 C401 1.514 . S
C1910 C264 1.557 . S
C1922 C771 1.550 . S
C1937 C140 2.042 1_545 S
C1949 C491 2.055 . S
C1976 C690 1.574 . S
C1964 C289 1.584 . S
C1991 C114 0.517 . S
C2003 C558 0.621 . S
C2018 C265 2.263 . S
C2030 C841 2.261 . S
C2045 C179 1.588 . S
C2057 C318 1.611 . S
C2072 C161 2.162 . S
C2084 C641 2.164 . S
C2099 C244 2.847 . S
C2111 C522 2.813 . S
C2126 C224 1.026 . S
C2138 C731 1.006 . S
C2165 C838 1.518 . S
C2153 C257 1.489 . S
C2180 C199 1.686 . S
C2192 C398 1.628 . S
C2219 C441 2.438 . S
C2207 C237 2.455 . S
C2246 C371 0.768 . S
C2234 C185 0.776 . S
C2261 C69 2.228 . S
C2273 C882 2.142 . S
C2300 C810 2.105 . S
C2288 C83 2.041 . S
C2315 C94 1.030 . S
C2327 C922 1.005 . S
C2342 C56 1.362 . S
C2354 C767 1.324 . S
C2369 C42 1.460 . S
C2381 C647 1.432 . S
C2408 C678 0.483 . S
C2396 C3 0.502 . S
C2435 C730 1.289 . S
C2423 C16 1.143 . S
C2462 C842 1.817 . S
C2450 C36 1.865 . S
C2489 C890 2.408 . S
C2477 C238 2.397 . S
C2504 C174 0.608 . S
C2516 C807 0.770 . S
C2543 C930 1.290 . S
C2531 C186 1.280 . S
C2570 C762 1.206 . S
C2558 C198 1.211 . S
C2597 C642 1.814 . S
C2585 C239 1.851 . S
C2612 C173 1.442 . S
C2624 C681 1.444 . S
C2651 C727 0.349 . S
C2639 C187 0.416 . S
C2666 C205 2.046 . S
C2678 C850 2.042 . S
C2705 C887 1.517 . S
C2693 C290 1.559 . S
C2720 C122 1.872 . S
C2732 C490 1.929 . S
C2759 C531 2.606 . S
C2747 C134 2.641 . S
C2786 C562 0.570 . S
C2774 C148 0.461 . S
C2813 C847 1.541 . S
C2801 C283 1.655 . S
C2828 C270 1.600 . S
C2840 C927 1.571 . S
C2867 C450 2.187 . S
C2855 C135 2.165 . S
C2894 C362 0.519 . S
C2882 C109 0.664 . S
C2909 C81 2.364 . S
C2921 C891 2.349 . S
C2948 C361 2.341 . S
C2936 C68 2.355 . S
C2963 C62 1.423 . S
C2975 C931 1.419 . S
C2990 C95 1.579 . S
C3002 C438 1.539 . S
C3017 C30 1.440 . S
C3029 C638 1.374 . S
C3056 C527 0.622 . S
C3044 C17 0.635 . S
C3071 C5 1.649 . S
C3083 C721 1.635 . S
C3098 C43 1.924 . S
C3110 C611 1.838 . S
C3137 C881 2.620 . S
C3125 C304 2.636 . S
C3152 C153 0.627 . S
C3164 C358 0.713 . S
C3191 C921 1.530 . S
C3179 C278 1.546 . S
C3206 C127 1.543 . S
C3218 C451 1.515 . S
C3233 C303 2.061 . S
C3245 C651 2.029 . S
C3272 C530 1.561 . S
C3260 C146 1.577 . S
C3287 C277 0.516 . S
C3299 C718 0.586 . S
C3326 C601 2.233 . S
C3314 C120 2.273 . S
C3353 C878 1.607 . S
C3341 C231 1.586 . S
C3380 C481 2.146 1_665 S
C3368 C200 2.154 . S
C3395 C212 2.866 . S
C3407 C682 2.806 . S
C3434 C571 1.044 . S
C3422 C172 1.031 . S
C3449 C192 1.523 . S
C3461 C598 1.461 . S
C3476 C160 1.687 . S
C3488 C918 1.628 . S
C3515 C761 2.442 . S
C3503 C213 2.458 1_565 S
C3542 C811 0.770 . S
C3530 C250 0.777 . S
