# Generated by pormake.
# Topology sit, (3,6)-cn, num edge types: 1
# Building blocks:
#     Node 0, Type 0, BuildingBlock: WUSLED_clean_sbu_0, # of connection points: 3
#     Node 1, Type 0, BuildingBlock: WUSLED_clean_sbu_0, # of connection points: 3
#     Node 2, Type 0, BuildingBlock: WUSLED_clean_sbu_0, # of connection points: 3
#     Node 3, Type 0, BuildingBlock: WUSLED_clean_sbu_0, # of connection points: 3
#     Node 4, Type 1, BuildingBlock: MIDCAF_clean_sbu_0, # of connection points: 6
#     Node 5, Type 1, BuildingBlock: MIDCAF_clean_sbu_0, # of connection points: 6
#     Edge 6, Type (0, 1), BuildingBlock: FUNLAD_clean_linker_0, # of connection points: 2
#     Edge 7, Type (0, 1), BuildingBlock: FUNLAD_clean_linker_0, # of connection points: 2
#     Edge 8, Type (0, 1), BuildingBlock: FUNLAD_clean_linker_0, # of connection points: 2
#     Edge 9, Type (0, 1), BuildingBlock: FUNLAD_clean_linker_0, # of connection points: 2
#     Edge 10, Type (0, 1), BuildingBlock: FUNLAD_clean_linker_0, # of connection points: 2
#     Edge 11, Type (0, 1), BuildingBlock: FUNLAD_clean_linker_0, # of connection points: 2
#     Edge 12, Type (0, 1), BuildingBlock: FUNLAD_clean_linker_0, # of connection points: 2
#     Edge 13, Type (0, 1), BuildingBlock: FUNLAD_clean_linker_0, # of connection points: 2
#     Edge 14, Type (0, 1), BuildingBlock: FUNLAD_clean_linker_0, # of connection points: 2
#     Edge 15, Type (0, 1), BuildingBlock: FUNLAD_clean_linker_0, # of connection points: 2
#     Edge 16, Type (0, 1), BuildingBlock: FUNLAD_clean_linker_0, # of connection points: 2
#     Edge 17, Type (0, 1), BuildingBlock: FUNLAD_clean_linker_0, # of connection points: 2
# Relax obj value: 0.107
# Max RMSD: 0.192
# Mean RMSD: 0.103
data_MOF--net-sit--node1-WUSLED_clean_sbu_0--node2-MIDCAF_clean_sbu_0--edge1-FUNLAD_clean_linker_0
_symmetry_space_group_name_H-M    P1
_symmetry_Int_Tables_number       1
_symmetry_cell_setting            triclinic
loop_
_symmetry_equiv_pos_as_xyz
'x, y, z'
_cell_length_a     33.962194
_cell_length_b     45.237418
_cell_length_c     52.159995
_cell_angle_alpha  89.854645
_cell_angle_beta   88.823382
_cell_angle_gamma 84.132841
loop_
_atom_site_label
_atom_site_type_symbol
_atom_site_fract_x
_atom_site_fract_y
_atom_site_fract_z
_atom_type_partial_charge
C0 C 0.96877 0.34941 0.03298 0.0
C1 C 0.97769 0.37444 0.01893 0.0
C2 C 0.90757 0.38833 0.0119 0.0
C3 C 0.94741 0.39374 0.00853 0.0
C4 C 0.89875 0.36345 0.02641 0.0
C5 C 0.92916 0.34411 0.03684 0.0
U6 U 0.07771 0.32617 0.03461 0.0
O7 O 0.11761 0.31073 0.06566 0.0
O8 O 0.11237 0.2824 0.03206 0.0
C9 C 0.12717 0.28461 0.05499 0.0
C10 C 0.00103 0.32844 0.04264 0.0
C11 C 0.12459 0.25883 0.07196 0.0
C12 C 0.08639 0.22737 0.09841 0.0
C13 C 0.08802 0.25155 0.08173 0.0
C14 C 0.15779 0.21739 0.09544 0.0
C15 C 0.12132 0.21012 0.10564 0.0
C16 C 0.15936 0.24152 0.07877 0.0
C17 C 0.14126 0.3763 0.99488 0.0
C18 C 0.21312 0.37239 0.99372 0.0
C19 C 0.17572 0.4084 0.96681 0.0
C20 C 0.14047 0.39897 0.97652 0.0
C21 C 0.21248 0.39528 0.97532 0.0
C22 C 0.17774 0.36293 0.00341 0.0
C23 C 0.10361 0.36743 0.00503 0.0
O24 O 0.01998 0.31158 0.02494 0.0
O25 O 0.0249 0.33994 0.0585 0.0
O26 O 0.09763 0.37062 0.02989 0.0
O27 O 0.09295 0.34233 0.99619 0.0
H28 H 0.00817 0.37887 0.01575 0.0
H29 H 0.95524 0.41287 -0.00223 0.0
H30 H 0.86844 0.35844 0.02911 0.0
H31 H 0.9218 0.3248 0.04753 0.0
H32 H 0.05786 0.22263 0.10613 0.0
H33 H 0.06085 0.26475 0.07668 0.0
H34 H 0.18518 0.20438 0.1003 0.0
H35 H 0.18784 0.24678 0.07131 0.0
H36 H 0.24095 0.36161 0.00045 0.0
H37 H 0.17413 0.42632 0.95295 0.0
H38 H 0.1125 0.40959 0.96982 0.0
H39 H 0.1788 0.34531 0.01756 0.0
C40 C 0.91925 0.71884 0.02943 0.0
C41 C 0.93151 0.6937 0.01449 0.0
C42 C 0.86291 0.68469 0.0084 0.0
C43 C 0.90362 0.67676 0.0041 0.0
C44 C 0.85079 0.70968 0.02376 0.0
C45 C 0.87879 0.72665 0.03416 0.0
U46 U 0.02519 0.73484 0.02998 0.0
O47 O 0.05246 0.77693 0.02757 0.0
O48 O 0.06409 0.74716 0.06046 0.0
C49 C 0.06845 0.77327 0.05024 0.0
C50 C 0.94875 0.73744 0.03899 0.0
C51 C 0.06132 0.79864 0.06786 0.0
C52 C 0.02017 0.82682 0.09977 0.0
C53 C 0.02528 0.80409 0.0815 0.0
C54 C 0.08644 0.83964 0.09017 0.0
C55 C 0.05097 0.84452 0.10465 0.0
C56 C 0.09156 0.81685 0.07197 0.0
C57 C 0.09637 0.68139 0.98857 0.0
C58 C 0.16559 0.66231 0.9928 0.0
C59 C 0.13569 0.66461 0.95097 0.0
C60 C 0.09978 0.67641 0.96207 0.0
C61 C 0.16897 0.65734 0.9662 0.0
C62 C 0.12962 0.67434 0.0039 0.0
C63 C 0.05735 0.69248 -0.00037 0.0
O64 O 0.97503 0.72388 0.05434 0.0
O65 O 0.9646 0.75351 0.0213 0.0
O66 O 0.0418 0.71838 0.99115 0.0
O67 O 0.05211 0.689 0.02446 0.0
H68 H 0.9627 0.68739 0.01061 0.0
H69 H 0.91396 0.65747 0.99264 0.0
H70 H 0.81966 0.71659 0.02718 0.0
H71 H 0.86886 0.7461 0.04553 0.0
H72 H 0.99236 0.83022 0.11042 0.0
H73 H 0.0015 0.79033 0.07843 0.0
H74 H 0.11091 0.85259 0.09366 0.0
H75 H 0.11956 0.81292 0.06159 0.0
H76 H 0.19085 0.6572 0.00496 0.0
H77 H 0.13724 0.66071 0.93048 0.0
H78 H 0.07444 0.6814 0.94993 0.0
H79 H 0.12783 0.67795 0.02443 0.0
C80 C 0.47221 0.85169 0.52626 0.0
C81 C 0.48454 0.87864 0.51737 0.0
C82 C 0.41809 0.89436 0.5027 0.0
C83 C 0.45774 0.89981 0.50584 0.0
C84 C 0.4056 0.86762 0.51227 0.0
C85 C 0.4325 0.84643 0.52392 0.0
U86 U 0.57831 0.82086 0.52796 0.0
O87 O 0.6164 0.80181 0.55882 0.0
O88 O 0.60804 0.77553 0.52438 0.0
C89 C 0.62218 0.77564 0.54767 0.0
C90 C 0.50155 0.82832 0.53589 0.0
C91 C 0.61461 0.75012 0.56405 0.0
C92 C 0.57164 0.71363 0.57916 0.0
C93 C 0.57874 0.7373 0.56298 0.0
C94 C 0.63613 0.71527 0.59776 0.0
C95 C 0.60006 0.70248 0.59699 0.0
C96 C 0.6433 0.73881 0.58142 0.0
C97 C 0.64523 0.86934 0.48729 0.0
C98 C 0.71423 0.87885 0.48976 0.0
C99 C 0.67712 0.89276 0.45165 0.0
C100 C 0.64386 0.88164 0.46261 0.0
C101 C 0.71262 0.89182 0.46517 0.0
C102 C 0.68078 0.86766 0.50075 0.0
C103 C 0.60818 0.8608 0.49888 0.0
O104 O 0.51849 0.81061 0.51804 0.0
O105 O 0.5269 0.83734 0.55213 0.0
O106 O 0.60377 0.86341 0.52391 0.0
O107 O 0.59474 0.83684 0.48967 0.0
H108 H 0.51518 0.88305 0.51881 0.0
H109 H 0.46826 0.92029 0.49902 0.0
H110 H 0.37543 0.86252 0.50986 0.0
H111 H 0.42257 0.82562 0.53042 0.0
H112 H 0.54377 0.70413 0.57773 0.0
H113 H 0.55608 0.74571 0.54975 0.0
H114 H 0.65846 0.70766 0.61147 0.0
H115 H 0.6711 0.74849 0.58262 0.0
H116 H 0.74126 0.87747 0.50054 0.0
H117 H 0.67459 0.90296 0.43287 0.0
H118 H 0.61659 0.88337 0.45202 0.0
H119 H 0.6825 0.85824 0.51985 0.0
C120 C 0.42013 0.2286 0.52297 0.0
C121 C 0.43238 0.20347 0.50801 0.0
C122 C 0.36378 0.19442 0.50202 0.0
C123 C 0.40448 0.18653 0.49763 0.0
C124 C 0.35168 0.21941 0.51737 0.0
C125 C 0.37969 0.2364 0.52773 0.0
U126 U 0.52684 0.2418 0.52659 0.0
O127 O 0.5565 0.28291 0.52389 0.0
O128 O 0.56396 0.25432 0.55792 0.0
C129 C 0.5701 0.27989 0.54727 0.0
C130 C 0.44971 0.24695 0.53283 0.0
C131 C 0.56292 0.30623 0.56397 0.0
C132 C 0.53041 0.33146 0.60097 0.0
C133 C 0.53425 0.30755 0.58385 0.0
C134 C 0.5822 0.35393 0.57773 0.0
C135 C 0.55485 0.35463 0.59837 0.0
C136 C 0.5863 0.32985 0.56075 0.0
C137 C 0.59774 0.18325 0.4902 0.0
C138 C 0.66949 0.17706 0.49238 0.0
C139 C 0.63601 0.1471 0.46299 0.0
C140 C 0.59956 0.16121 0.47131 0.0
C141 C 0.67144 0.15481 0.47341 0.0
C142 C 0.63286 0.19123 0.50069 0.0
C143 C 0.55872 0.19673 0.49905 0.0
O144 O 0.47395 0.23369 0.54959 0.0
O145 O 0.46795 0.26148 0.5151 0.0
O146 O 0.54647 0.22269 0.48911 0.0
O147 O 0.55139 0.19508 0.52381 0.0
H148 H 0.46357 0.19711 0.50418 0.0
H149 H 0.4148 0.16722 0.48619 0.0
H150 H 0.32055 0.22628 0.52086 0.0
H151 H 0.36978 0.25581 0.53916 0.0
H152 H 0.50878 0.33158 0.61653 0.0
H153 H 0.51549 0.28976 0.58654 0.0
H154 H 0.60162 0.37135 0.57537 0.0
H155 H 0.60849 0.32929 0.54549 0.0
H156 H 0.69626 0.18373 0.50057 0.0
H157 H 0.63639 0.12981 0.44864 0.0
H158 H 0.57267 0.15468 0.46314 0.0
H159 H 0.63189 0.20825 0.51533 0.0
Zn160 Zn 0.0458 0.09127 0.34637 0.0
Zn161 Zn 0.08593 0.97486 0.35037 0.0
Zn162 Zn 0.06704 0.03252 0.34734 0.0
C163 C 0.07955 0.98871 0.29822 0.0
C164 C 0.01373 0.98634 0.37613 0.0
O165 O 0.11269 0.05434 0.36786 0.0
O166 O 0.08972 0.10198 0.36804 0.0
C167 C 0.06028 0.07206 0.29547 0.0
O168 O 0.07298 1.01531 0.30726 0.0
O169 O 0.0854 0.96686 0.31326 0.0
O170 O 0.04058 0.96525 0.37251 0.0
O171 O 0.01799 1.0125 0.36732 0.0
O172 O 0.04991 0.09504 0.30862 0.0
O173 O 0.06788 0.04658 0.30643 0.0
O174 O 0.00739 0.04309 0.36561 0.0
O175 O 0.99224 0.09172 0.36176 0.0
C176 C 0.9832 0.06669 0.36912 0.0
O177 O 0.12229 1.0233 0.36998 0.0
O178 O 0.13771 0.97472 0.3664 0.0
C179 C 0.11586 0.08149 0.37431 0.0
C180 C 0.14557 0.99959 0.37461 0.0
Zn181 Zn 0.5516 0.58522 0.84611 0.0
Zn182 Zn 0.58902 0.46844 0.84967 0.0
Zn183 Zn 0.56992 0.52708 0.84668 0.0
C184 C 0.58968 0.48468 0.79744 0.0
C185 C 0.5124 0.48005 0.87028 0.0
O186 O 0.61466 0.54796 0.86909 0.0
O187 O 0.59373 0.59595 0.86908 0.0
C188 C 0.56664 0.56772 0.7952 0.0
O189 O 0.57922 0.51079 0.80665 0.0
O190 O 0.59621 0.46265 0.81222 0.0
O191 O 0.53907 0.45878 0.8668 0.0
O192 O 0.5187 0.50675 0.86383 0.0
O193 O 0.55732 0.59055 0.80874 0.0
O194 O 0.57268 0.54192 0.80584 0.0
O195 O 0.50985 0.53785 0.86453 0.0
O196 O 0.49742 0.58662 0.86023 0.0
C197 C 0.48672 0.56208 0.86765 0.0
O198 O 0.62396 0.51703 0.87022 0.0
O199 O 0.63701 0.46799 0.87023 0.0
C200 C 0.61845 0.57486 0.87604 0.0
C201 C 0.64543 0.49324 0.87709 0.0
C202 C 0.08986 0.16611 0.12351 0.0
C203 C 0.11987 0.18531 0.12439 0.0
C204 C 0.08749 0.14378 0.14196 0.0
C205 C 0.11495 0.14033 0.16191 0.0
C206 C 0.14575 0.1588 0.16217 0.0
C207 C 0.14813 0.18106 0.14374 0.0
C208 C 0.11167 0.11888 0.18344 0.0
C209 C 0.07721 0.1089 0.19103 0.0
C210 C 0.07195 0.09438 0.2163 0.0
C211 C 0.03587 0.10105 0.22963 0.0
C212 C 0.03152 0.09212 0.25505 0.0
C213 C 0.06273 0.07554 0.26743 0.0
H214 H 0.1303 0.0699 0.21812 0.0
C215 C 0.09773 0.06654 0.25356 0.0
C216 C 0.10246 0.07608 0.22815 0.0
H217 H 0.12216 0.05372 0.2628 0.0
H218 H 0.06817 0.16832 0.10851 0.0
H219 H 0.06408 0.12941 0.14047 0.0
H220 H 0.16742 0.15665 0.1772 0.0
H221 H 0.17149 0.19555 0.14515 0.0
H222 H 0.13741 0.11425 0.19539 0.0
H223 H 0.0505 0.11559 0.18054 0.0
H224 H 0.01177 0.11482 0.22092 0.0
H225 H 0.00421 0.09922 0.2654 0.0
C226 C 0.0627 0.89383 0.12406 0.0
C227 C 0.04764 0.86605 0.12629 0.0
C228 C 0.06358 0.91242 0.14547 0.0
C229 C 0.04959 0.90342 0.16953 0.0
C230 C 0.03334 0.87618 0.17147 0.0
C231 C 0.03215 0.85779 0.15012 0.0
C232 C 0.05555 0.91977 0.19356 0.0
C233 C 0.06016 0.94896 0.19514 0.0
C234 C 0.0692 0.96212 0.22013 0.0
C235 C 0.04894 0.98909 0.2286 0.0
C236 C 0.05368 0.99906 0.25374 0.0
C237 C 0.07931 0.98239 0.27042 0.0
H238 H 0.11376 0.92636 0.22998 0.0
C239 C 0.10174 0.95671 0.2611 0.0
C240 C 0.0968 0.94672 0.23628 0.0
H241 H 0.12213 0.9436 0.27339 0.0
H242 H 0.07467 0.90088 0.1059 0.0
H243 H 0.07692 0.93304 0.14334 0.0
H244 H 0.02261 0.8686 0.18981 0.0
H245 H 0.02084 0.83642 0.15264 0.0
H246 H 0.05619 0.90679 0.21117 0.0
H247 H 0.05589 0.96334 0.17852 0.0
H248 H 0.02779 1.00148 0.21635 0.0
H249 H 0.03558 1.01865 0.26054 0.0
C250 C 0.62117 0.65667 0.62316 0.0
C251 C 0.59136 0.67869 0.61553 0.0
C252 C 0.61335 0.63566 0.64191 0.0
C253 C 0.57542 0.63621 0.65346 0.0
C254 C 0.54541 0.65749 0.64507 0.0
C255 C 0.55325 0.67852 0.62651 0.0
C256 C 0.56583 0.61655 0.67523 0.0
C257 C 0.59281 0.60125 0.6902 0.0
C258 C 0.58215 0.5889 0.71567 0.0
C259 C 0.60723 0.56594 0.7269 0.0
C260 C 0.60094 0.55728 0.75242 0.0
C261 C 0.56979 0.57183 0.76717 0.0
H262 H 0.5305 0.62066 0.72289 0.0
C263 C 0.54387 0.59384 0.75562 0.0
C264 C 0.54989 0.60229 0.73028 0.0
H265 H 0.5197 0.60552 0.76661 0.0
H266 H 0.65067 0.65571 0.61472 0.0
H267 H 0.6372 0.61928 0.64725 0.0
H268 H 0.5159 0.65858 0.65356 0.0
H269 H 0.52961 0.69528 0.62146 0.0
H270 H 0.53468 0.61684 0.68049 0.0
H271 H 0.62401 0.59952 0.68493 0.0
H272 H 0.63254 0.55543 0.71621 0.0
H273 H 0.62167 0.54053 0.76101 0.0
C274 C 0.55507 0.36987 0.64435 0.0
C275 C 0.5542 0.37801 0.61836 0.0
C276 C 0.5575 0.39121 0.66335 0.0
C277 C 0.55894 0.42127 0.65684 0.0
C278 C 0.55641 0.42971 0.63097 0.0
C279 C 0.55459 0.40819 0.61182 0.0
C280 C 0.56343 0.44362 0.67711 0.0
C281 C 0.58894 0.43729 0.69625 0.0
C282 C 0.59223 0.4555 0.71967 0.0
C283 C 0.62377 0.44697 0.73596 0.0
C284 C 0.62431 0.4585 0.76065 0.0
C285 C 0.59352 0.4791 0.76963 0.0
H286 H 0.53787 0.48504 0.71605 0.0
C287 C 0.5636 0.48976 0.75277 0.0
C288 C 0.56281 0.47794 0.72792 0.0
H289 H 0.53937 0.5055 0.7594 0.0
H290 H 0.55503 0.34681 0.64999 0.0
H291 H 0.55844 0.38412 0.6832 0.0
H292 H 0.55704 0.45279 0.62553 0.0
H293 H 0.55364 0.4151 0.59192 0.0
H294 H 0.54617 0.46512 0.67598 0.0
H295 H 0.60799 0.41644 0.69519 0.0
H296 H 0.64698 0.42993 0.73014 0.0
H297 H 0.64781 0.45002 0.77327 0.0
C298 C 0.25418 0.41233 0.93889 0.0
C299 C 0.24987 0.40571 0.9651 0.0
C300 C 0.28905 0.42256 0.92928 0.0
C301 C 0.32041 0.42662 0.94573 0.0
C302 C 0.31622 0.41967 0.97184 0.0
C303 C 0.28136 0.40942 0.98145 0.0
C304 C 0.35861 0.43647 0.93624 0.0
C305 C 0.36296 0.4512 0.91399 0.0
C306 C 0.40181 0.45925 0.90389 0.0
C307 C 0.40249 0.48155 0.8851 0.0
C308 C 0.4384 0.48864 0.87426 0.0
C309 C 0.47434 0.4737 0.88216 0.0
H310 H 0.43897 0.42591 0.92506 0.0
C311 C 0.47374 0.45121 0.9007 0.0
C312 C 0.43797 0.44399 0.91143 0.0
H313 H 0.50105 0.43899 0.90683 0.0
H314 H 0.2308 0.40913 0.92568 0.0
H315 H 0.29146 0.42656 0.90889 0.0
H316 H 0.33998 0.42231 0.98494 0.0
H317 H 0.27889 0.40479 0.00177 0.0
H318 H 0.38384 0.4319 0.94859 0.0
H319 H 0.33708 0.45826 0.90281 0.0
H320 H 0.37513 0.49335 0.87859 0.0
H321 H 0.43799 0.50532 0.85933 0.0
C322 C 0.83869 0.65805 0.97057 0.0
C323 C 0.83325 0.66755 0.99617 0.0
C324 C 0.81017 0.64299 0.95861 0.0
C325 C 0.77555 0.63688 0.97205 0.0
C326 C 0.77034 0.64615 -0.0023 0.0
C327 C 0.79885 0.66125 0.00965 0.0
C328 C 0.74283 0.62325 0.95949 0.0
C329 C 0.74704 0.60775 0.93736 0.0
C330 C 0.71304 0.59789 0.92322 0.0
C331 C 0.71999 0.5752 0.9048 0.0
C332 C 0.68918 0.5672 0.88966 0.0
C333 C 0.65085 0.58164 0.89277 0.0
H334 H 0.66792 0.63066 0.93938 0.0
C335 C 0.64383 0.60425 0.91116 0.0
C336 C 0.67449 0.61235 0.92618 0.0
H337 H 0.61459 0.61602 0.91371 0.0
H338 H 0.86448 0.66307 0.95947 0.0
H339 H 0.81492 0.63722 0.9386 0.0
H340 H 0.74386 0.64198 0.00849 0.0
H341 H 0.79392 0.66801 0.02946 0.0
H342 H 0.71399 0.62637 0.96902 0.0
H343 H 0.77637 0.60208 0.92902 0.0
H344 H 0.74947 0.56403 0.90175 0.0
H345 H 0.69563 0.55057 0.87489 0.0
C346 C 0.881 0.41802 0.97419 0.0
C347 C 0.87562 0.40791 -0.0006 0.0
C348 C 0.85067 0.43541 0.96187 0.0
C349 C 0.81408 0.44336 0.97453 0.0
C350 C 0.80887 0.43345 -0.00018 0.0
C351 C 0.83926 0.41599 0.01215 0.0
C352 C 0.77968 0.45949 0.96136 0.0
C353 C 0.78264 0.47464 0.9392 0.0
C354 C 0.74768 0.48446 0.92355 0.0
C355 C 0.75143 0.48179 0.89679 0.0
C356 C 0.71812 0.48629 0.88148 0.0
C357 C 0.68073 0.49456 0.8926 0.0
H358 H 0.70683 0.49729 0.9551 0.0
C359 C 0.67717 0.49944 0.91912 0.0
C360 C 0.71045 0.49432 0.93457 0.0
H361 H 0.64841 0.5057 0.92799 0.0
H362 H 0.90831 0.41168 0.96359 0.0
H363 H 0.85584 0.44147 0.94213 0.0
H364 H 0.78097 0.43894 0.01002 0.0
H365 H 0.83423 0.40877 0.03165 0.0
H366 H 0.75048 0.45715 0.96954 0.0
H367 H 0.81147 0.4771 0.93063 0.0
H368 H 0.7798 0.47444 0.88783 0.0
H369 H 0.72132 0.48224 0.86104 0.0
C370 C 0.22977 0.62048 0.96503 0.0
C371 C 0.20703 0.64489 0.95415 0.0
C372 C 0.26507 0.60838 0.95304 0.0
C373 C 0.2783 0.62063 0.92996 0.0
C374 C 0.25576 0.64531 0.91945 0.0
C375 C 0.22054 0.65722 0.9313 0.0
C376 C 0.31566 0.60931 0.91631 0.0
C377 C 0.33637 0.58263 0.92018 0.0
C378 C 0.3734 0.57345 0.90527 0.0
C379 C 0.4048 0.55604 0.9169 0.0
C380 C 0.44159 0.55059 0.90413 0.0
C381 C 0.44708 0.56224 0.8795 0.0
H382 H 0.35433 0.59521 0.86975 0.0
C383 C 0.41497 0.57779 0.86725 0.0
C384 C 0.37837 0.583 0.87983 0.0
H385 H 0.41853 0.58669 0.84813 0.0
H386 H 0.21998 0.61047 0.98262 0.0
H387 H 0.28185 0.58977 0.96211 0.0
H388 H 0.26533 0.65541 0.90184 0.0
H389 H 0.20401 0.6763 0.92264 0.0
H390 H 0.32653 0.6241 0.90196 0.0
H391 H 0.32729 0.56773 0.93498 0.0
H392 H 0.4015 0.54795 0.93631 0.0
H393 H 0.46612 0.53855 0.9139 0.0
C394 C 0.77005 0.92244 0.46892 0.0
C395 C 0.74718 0.90528 0.45382 0.0
C396 C 0.80123 0.93638 0.4579 0.0
C397 C 0.81032 0.93331 0.43152 0.0
C398 C 0.78742 0.91623 0.41649 0.0
C399 C 0.7564 0.90223 0.42749 0.0
C400 C 0.84304 0.94775 0.4189 0.0
C401 C 0.87549 0.95423 0.43128 0.0
C402 C 0.91021 0.96482 0.41769 0.0
C403 C 0.94817 0.95546 0.42656 0.0
C404 C 0.98175 0.96293 0.41317 0.0
C405 C 0.97801 0.98056 0.39102 0.0
H406 H 0.87752 0.99141 0.38888 0.0
C407 C 0.94013 0.99099 0.38262 0.0
C408 C 0.90641 0.98321 0.39585 0.0
H409 H 0.93661 1.00432 0.36539 0.0
H410 H 0.7632 0.92578 0.48914 0.0
H411 H 0.81745 0.95004 0.47002 0.0
H412 H 0.79375 0.91347 0.39613 0.0
H413 H 0.73967 0.88893 0.41534 0.0
H414 H 0.84185 0.95075 0.39825 0.0
H415 H 0.87871 0.94856 0.45142 0.0
H416 H 0.95189 0.94149 0.44341 0.0
H417 H 0.01073 0.9547 0.42003 0.0
C418 C 0.33922 0.1676 0.46439 0.0
C419 C 0.3341 0.17712 0.48999 0.0
C420 C 0.31064 0.15238 0.45264 0.0
C421 C 0.2763 0.14612 0.46634 0.0
C422 C 0.27147 0.15537 0.49201 0.0
C423 C 0.30002 0.17064 0.50373 0.0
C424 C 0.24346 0.13229 0.45409 0.0
C425 C 0.24707 0.11715 0.43176 0.0
C426 C 0.21269 0.10691 0.41829 0.0
C427 C 0.2191 0.08399 0.40004 0.0
C428 C 0.18764 0.07528 0.38587 0.0
C429 C 0.1492 0.0893 0.38976 0.0
H430 H 0.16791 0.13956 0.43496 0.0
C431 C 0.14281 0.1123 0.40783 0.0
C432 C 0.1741 0.12106 0.42191 0.0
H433 H 0.1135 0.12377 0.41096 0.0
H434 H 0.36479 0.17272 0.45312 0.0
H435 H 0.31513 0.14658 0.43263 0.0
H436 H 0.24525 0.15105 0.50301 0.0
H437 H 0.29537 0.1774 0.52356 0.0
H438 H 0.21497 0.13489 0.46409 0.0
H439 H 0.27609 0.11194 0.42285 0.0
H440 H 0.24858 0.07302 0.39653 0.0
H441 H 0.19352 0.05809 0.37149 0.0
C442 C 0.35068 0.92163 0.49552 0.0
C443 C 0.3907 0.91559 0.48802 0.0
C444 C 0.3245 0.93988 0.48049 0.0
C445 C 0.33787 0.95258 0.45763 0.0
C446 C 0.37804 0.94709 0.45055 0.0
C447 C 0.40413 0.92891 0.46553 0.0
C448 C 0.31044 0.9686 0.43915 0.0
C449 C 0.27309 0.98 0.44499 0.0
C450 C 0.2436 0.98954 0.42508 0.0
C451 C 0.20942 1.00833 0.43191 0.0
C452 C 0.17825 1.01363 0.41474 0.0
C453 C 0.18079 1.00006 0.39052 0.0
H454 H 0.27166 0.96189 0.39434 0.0
C455 C 0.21552 0.98239 0.38327 0.0
C456 C 0.24659 0.97719 0.40027 0.0
H457 H 0.21786 0.97134 0.36481 0.0
H458 H 0.33943 0.91188 0.51281 0.0
H459 H 0.29365 0.94289 0.48641 0.0
H460 H 0.38913 0.95622 0.43291 0.0
H461 H 0.43458 0.92439 0.45891 0.0
H462 H 0.32139 0.97009 0.41953 0.0
H463 H 0.26298 0.98129 0.46487 0.0
H464 H 0.20614 1.01794 0.45094 0.0
H465 H 0.15138 0.02692 0.4209 0.0
C466 C 0.71679 0.13365 0.43804 0.0
C467 C 0.71008 0.13969 0.46427 0.0
C468 C 0.75271 0.11905 0.42927 0.0
C469 C 0.78285 0.10989 0.44657 0.0
C470 C 0.77638 0.11631 0.47274 0.0
C471 C 0.74035 0.13095 0.48154 0.0
C472 C 0.82224 0.09576 0.43766 0.0
C473 C 0.82803 0.08103 0.41524 0.0
C474 C 0.86794 0.07279 0.40379 0.0
C475 C 0.87271 0.07522 0.37711 0.0
C476 C 0.91041 0.07186 0.36573 0.0
C477 C 0.94384 0.06505 0.38073 0.0
H478 H 0.8985 0.06167 0.43926 0.0
C479 C 0.93917 0.06053 0.40718 0.0
C480 C 0.90138 0.06449 0.41871 0.0
H481 H 0.96479 0.05527 0.41901 0.0
H482 H 0.69449 0.14074 0.42415 0.0
H483 H 0.75694 0.11584 0.40882 0.0
H484 H 0.79926 0.10992 0.48644 0.0
H485 H 0.73603 0.13511 0.50189 0.0
H486 H 0.84746 0.09894 0.44946 0.0
H487 H 0.80292 0.0777 0.40343 0.0
H488 H 0.84741 0.08138 0.36519 0.0
H489 H 0.91359 0.0755 0.34528 0.0
loop_
_geom_bond_atom_site_label_1
_geom_bond_atom_site_label_2
_geom_bond_distance
_geom_bond_site_symmetry_2
_ccdc_geom_bond_type
C0 C1 1.264 . S
C0 C5 1.487 1_455 S
C0 C10 1.465 1_556 S
C1 C0 1.264 . S
C1 C3 1.339 1_455 S
C1 H28 0.931 . S
C2 C3 1.395 . S
C2 C4 1.320 . S
C3 C1 1.339 1_655 S
C3 C2 1.395 . S
C3 H29 0.929 . S
C4 C2 1.320 . S
C4 C5 1.424 . S
C4 H30 0.930 . S
C5 C0 1.487 1_655 S
C5 C4 1.424 . S
C5 H31 0.906 1_556 S
U6 O7 2.454 . S
U6 O8 2.458 . S
U6 C9 2.984 . S
U6 C10 2.847 . S
U6 C23 2.882 . S
U6 O24 2.441 . S
U6 O25 2.420 . S
U6 O26 2.455 . S
U6 O27 2.449 . S
O7 U6 2.454 . S
O7 C9 1.353 . S
O8 U6 2.458 . S
O8 C9 1.286 . S
C9 U6 2.984 . S
C9 O7 1.353 . S
C9 O8 1.286 . S
C9 C11 1.363 . S
C10 C0 1.465 1_554 S
C10 U6 2.847 . S
C10 O24 1.249 . S
C10 O25 1.202 . S
C11 C9 1.363 . S
C11 C13 1.408 . S
C11 C16 1.342 . S
C12 C13 1.310 . S
C12 C15 1.461 . S
C12 H32 0.932 . S
C13 C11 1.408 . S
C13 C12 1.310 . S
C13 H33 0.930 . S
C14 C15 1.474 . S
C14 C16 1.285 . S
C14 H34 0.929 . S
C15 C12 1.461 . S
C15 C14 1.474 . S
C16 C11 1.342 . S
C16 C14 1.285 . S
C16 H35 0.930 . S
C17 C20 1.424 . S
C17 C22 1.245 1_556 S
C17 C23 1.428 1_556 S
C18 C21 1.260 . S
C18 C22 1.477 1_556 S
C18 H36 0.932 . S
C19 C20 1.384 . S
C19 C21 1.479 . S
C19 H37 0.929 . S
C20 C17 1.424 . S
C20 C19 1.384 . S
C20 H38 0.928 . S
C21 C18 1.260 . S
C21 C19 1.479 . S
C22 C17 1.245 1_554 S
C22 C18 1.477 1_554 S
C22 H39 0.932 . S
C23 U6 2.882 . S
C23 C17 1.428 1_554 S
C23 O26 1.301 . S
C23 O27 1.282 . S
O24 U6 2.441 . S
O24 C10 1.249 . S
O25 U6 2.420 . S
O25 C10 1.202 . S
O26 U6 2.455 . S
O26 C23 1.301 . S
O27 U6 2.449 . S
O27 C23 1.282 . S
H28 C1 0.931 . S
H29 C3 0.929 . S
H30 C4 0.930 . S
H31 C5 0.906 1_554 S
H32 C12 0.932 . S
H33 C13 0.930 . S
H34 C14 0.929 . S
H35 C16 0.930 . S
H36 C18 0.932 . S
H37 C19 0.929 . S
H38 C20 0.928 . S
H39 C22 0.932 . S
C40 C41 1.264 . S
C40 C45 1.479 . S
C40 C50 1.465 . S
C41 C40 1.264 . S
C41 C43 1.339 . S
C41 H68 0.931 . S
C42 C43 1.395 . S
C42 C44 1.320 . S
C43 C41 1.339 . S
C43 C42 1.395 . S
C43 H69 0.929 . S
C44 C42 1.320 . S
C44 C45 1.405 . S
C44 H70 0.930 . S
C45 C40 1.479 . S
C45 C44 1.405 . S
C45 H71 0.931 1_556 S
U46 O47 2.462 . S
U46 O48 2.448 1_655 S
U46 C49 2.984 . S
U46 C50 2.865 1_554 S
U46 C63 2.865 1_654 S
U46 O64 2.461 . S
U46 O65 2.433 1_554 S
U46 O66 2.434 1_655 S
U46 O67 2.438 1_654 S
O47 U46 2.462 . S
O47 C49 1.370 . S
O48 U46 2.448 1_455 S
O48 C49 1.271 1_455 S
C49 U46 2.984 . S
C49 O47 1.370 . S
C49 O48 1.271 1_655 S
C49 C51 1.363 . S
C50 C40 1.465 . S
C50 U46 2.865 1_556 S
C50 O64 1.249 1_556 S
C50 O65 1.202 . S
C51 C49 1.363 . S
C51 C53 1.422 . S
C51 C56 1.326 1_655 S
C52 C53 1.310 . S
C52 C55 1.462 1_655 S
C52 H72 0.932 . S
C53 C51 1.422 . S
C53 C52 1.310 . S
C53 H73 0.930 . S
C54 C55 1.473 . S
C54 C56 1.285 . S
C54 H74 0.929 . S
C55 C52 1.462 1_455 S
C55 C54 1.473 . S
C56 C51 1.326 1_455 S
C56 C54 1.285 . S
C56 H75 0.930 . S
C57 C60 1.424 . S
C57 C62 1.245 . S
C57 C63 1.428 . S
C58 C61 1.260 . S
C58 C62 1.477 . S
C58 H76 0.932 . S
C59 C60 1.384 . S
C59 C61 1.479 . S
C59 H77 0.929 . S
C60 C57 1.424 . S
C60 C59 1.384 . S
C60 H78 0.928 . S
C61 C58 1.260 . S
C61 C59 1.479 . S
C62 C57 1.245 . S
C62 C58 1.477 . S
C62 H79 0.932 1_556 S
C63 U46 2.865 1_456 S
C63 C57 1.428 . S
C63 O66 1.301 1_556 S
C63 O67 1.282 . S
O64 U46 2.461 . S
O64 C50 1.249 1_554 S
O65 U46 2.433 1_556 S
O65 C50 1.202 . S
O66 U46 2.434 1_455 S
O66 C63 1.301 1_554 S
O67 U46 2.438 1_456 S
O67 C63 1.282 . S
H68 C41 0.931 . S
H69 C43 0.929 . S
H70 C44 0.930 . S
H71 C45 0.931 1_554 S
H72 C52 0.932 . S
H73 C53 0.930 . S
H74 C54 0.929 . S
H75 C56 0.930 . S
H76 C58 0.932 . S
H77 C59 0.929 . S
H78 C60 0.928 . S
H79 C62 0.932 1_554 S
C80 C81 1.264 . S
C80 C85 1.479 . S
C80 C90 1.465 . S
C81 C80 1.264 . S
C81 C83 1.339 . S
C81 H108 0.931 . S
C82 C83 1.395 . S
C82 C84 1.320 . S
C83 C81 1.339 . S
C83 C82 1.395 . S
C83 H109 0.929 . S
C84 C82 1.320 . S
C84 C85 1.405 . S
C84 H110 0.930 . S
C85 C80 1.479 . S
C85 C84 1.405 . S
C85 H111 0.931 . S
U86 O87 2.454 . S
U86 O88 2.458 . S
U86 C89 2.984 . S
U86 C90 2.847 . S
U86 C103 2.882 . S
U86 O104 2.441 . S
U86 O105 2.420 . S
U86 O106 2.455 . S
U86 O107 2.449 . S
O87 U86 2.454 . S
O87 C89 1.353 . S
O88 U86 2.458 . S
O88 C89 1.286 . S
C89 U86 2.984 . S
C89 O87 1.353 . S
C89 O88 1.286 . S
C89 C91 1.363 . S
C90 C80 1.465 . S
C90 U86 2.847 . S
C90 O104 1.249 . S
C90 O105 1.202 . S
C91 C89 1.363 . S
C91 C93 1.408 . S
C91 C96 1.342 . S
C92 C93 1.310 . S
C92 C95 1.461 . S
C92 H112 0.932 . S
C93 C91 1.408 . S
C93 C92 1.310 . S
C93 H113 0.930 . S
C94 C95 1.474 . S
C94 C96 1.285 . S
C94 H114 0.929 . S
C95 C92 1.461 . S
C95 C94 1.474 . S
C96 C91 1.342 . S
C96 C94 1.285 . S
C96 H115 0.930 . S
C97 C100 1.424 . S
C97 C102 1.245 . S
C97 C103 1.428 . S
C98 C101 1.260 . S
C98 C102 1.477 . S
C98 H116 0.932 . S
C99 C100 1.384 . S
C99 C101 1.479 . S
C99 H117 0.929 . S
C100 C97 1.424 . S
C100 C99 1.384 . S
C100 H118 0.928 . S
C101 C98 1.260 . S
C101 C99 1.479 . S
C102 C97 1.245 . S
C102 C98 1.477 . S
C102 H119 0.932 . S
C103 U86 2.882 . S
C103 C97 1.428 . S
C103 O106 1.301 . S
C103 O107 1.282 . S
O104 U86 2.441 . S
O104 C90 1.249 . S
O105 U86 2.420 . S
O105 C90 1.202 . S
O106 U86 2.455 . S
O106 C103 1.301 . S
O107 U86 2.449 . S
O107 C103 1.282 . S
H108 C81 0.931 . S
H109 C83 0.929 . S
H110 C84 0.930 . S
H111 C85 0.931 . S
H112 C92 0.932 . S
H113 C93 0.930 . S
H114 C94 0.929 . S
H115 C96 0.930 . S
H116 C98 0.932 . S
H117 C99 0.929 . S
H118 C100 0.928 . S
H119 C102 0.932 . S
C120 C121 1.264 . S
C120 C125 1.479 . S
C120 C130 1.465 . S
C121 C120 1.264 . S
C121 C123 1.339 . S
C121 H148 0.931 . S
C122 C123 1.395 . S
C122 C124 1.320 . S
C123 C121 1.339 . S
C123 C122 1.395 . S
C123 H149 0.929 . S
C124 C122 1.320 . S
C124 C125 1.405 . S
C124 H150 0.930 . S
C125 C120 1.479 . S
C125 C124 1.405 . S
C125 H151 0.931 . S
U126 O127 2.454 . S
U126 O128 2.458 . S
U126 C129 2.984 . S
U126 C130 2.847 . S
U126 C143 2.882 . S
U126 O144 2.441 . S
U126 O145 2.420 . S
U126 O146 2.455 . S
U126 O147 2.449 . S
O127 U126 2.454 . S
O127 C129 1.353 . S
O128 U126 2.458 . S
O128 C129 1.286 . S
C129 U126 2.984 . S
C129 O127 1.353 . S
C129 O128 1.286 . S
C129 C131 1.363 . S
C130 C120 1.465 . S
C130 U126 2.847 . S
C130 O144 1.249 . S
C130 O145 1.202 . S
C131 C129 1.363 . S
C131 C133 1.408 . S
C131 C136 1.342 . S
C132 C133 1.310 . S
C132 C135 1.461 . S
C132 H152 0.932 . S
C133 C131 1.408 . S
C133 C132 1.310 . S
C133 H153 0.930 . S
C134 C135 1.474 . S
C134 C136 1.285 . S
C134 H154 0.929 . S
C135 C132 1.461 . S
C135 C134 1.474 . S
C136 C131 1.342 . S
C136 C134 1.285 . S
C136 H155 0.930 . S
C137 C140 1.424 . S
C137 C142 1.245 . S
C137 C143 1.428 . S
C138 C141 1.260 . S
C138 C142 1.477 . S
C138 H156 0.932 . S
C139 C140 1.384 . S
C139 C141 1.479 . S
C139 H157 0.929 . S
C140 C137 1.424 . S
C140 C139 1.384 . S
C140 H158 0.928 . S
C141 C138 1.260 . S
C141 C139 1.479 . S
C142 C137 1.245 . S
C142 C138 1.477 . S
C142 H159 0.932 . S
C143 U126 2.882 . S
C143 C137 1.428 . S
C143 O146 1.301 . S
C143 O147 1.282 . S
O144 U126 2.441 . S
O144 C130 1.249 . S
O145 U126 2.420 . S
O145 C130 1.202 . S
O146 U126 2.455 . S
O146 C143 1.301 . S
O147 U126 2.449 . S
O147 C143 1.282 . S
H148 C121 0.931 . S
H149 C123 0.929 . S
H150 C124 0.930 . S
H151 C125 0.931 . S
H152 C132 0.932 . S
H153 C133 0.930 . S
H154 C134 0.929 . S
H155 C136 0.930 . S
H156 C138 0.932 . S
H157 C139 0.929 . S
H158 C140 0.928 . S
H159 C142 0.932 . S
Zn160 O166 1.920 . S
Zn160 O172 1.898 . S
Zn160 O175 1.905 . S
Zn161 O169 1.905 . S
Zn161 O170 1.898 . S
Zn161 O178 1.920 . S
Zn162 O165 2.080 . S
Zn162 O168 2.114 1_545 S
Zn162 O171 2.120 1_545 S
Zn162 O173 2.120 . S
Zn162 O174 2.114 . S
Zn162 O177 2.080 1_545 S
C163 O168 1.166 . S
C163 O169 1.182 . S
C164 O170 1.167 . S
C164 O171 1.299 . S
O165 Zn162 2.080 . S
O165 C179 1.305 . S
O166 Zn160 1.920 . S
O166 C179 1.234 . S
C167 O172 1.167 . S
C167 O173 1.299 . S
O168 Zn162 2.114 1_565 S
O168 C163 1.166 . S
O169 Zn161 1.905 . S
O169 C163 1.182 . S
O170 Zn161 1.898 . S
O170 C164 1.167 . S
O171 Zn162 2.120 1_565 S
O171 C164 1.299 . S
O172 Zn160 1.898 . S
O172 C167 1.167 . S
O173 Zn162 2.120 . S
O173 C167 1.299 . S
O174 Zn162 2.114 . S
O174 C176 1.166 1_455 S
O175 Zn160 1.905 . S
O175 C176 1.182 1_455 S
C176 O174 1.166 1_655 S
C176 O175 1.182 1_655 S
O177 Zn162 2.080 1_565 S
O177 C180 1.305 . S
O178 Zn161 1.920 . S
O178 C180 1.234 . S
C179 O165 1.305 . S
C179 O166 1.234 . S
C180 O177 1.305 . S
C180 O178 1.234 . S
Zn181 O187 1.920 . S
Zn181 O193 1.898 . S
Zn181 O196 1.905 . S
Zn182 O190 1.905 . S
Zn182 O191 1.898 . S
Zn182 O199 1.920 . S
Zn183 O186 2.080 . S
Zn183 O189 2.114 . S
Zn183 O192 2.120 . S
Zn183 O194 2.120 . S
Zn183 O195 2.114 . S
Zn183 O198 2.080 . S
C184 O189 1.166 . S
C184 O190 1.182 . S
C185 O191 1.167 . S
C185 O192 1.299 . S
O186 Zn183 2.080 . S
O186 C200 1.305 . S
O187 Zn181 1.920 . S
O187 C200 1.234 . S
C188 O193 1.167 . S
C188 O194 1.299 . S
O189 Zn183 2.114 . S
O189 C184 1.166 . S
O190 Zn182 1.905 . S
O190 C184 1.182 . S
O191 Zn182 1.898 . S
O191 C185 1.167 . S
O192 Zn183 2.120 . S
O192 C185 1.299 . S
O193 Zn181 1.898 . S
O193 C188 1.167 . S
O194 Zn183 2.120 . S
O194 C188 1.299 . S
O195 Zn183 2.114 . S
O195 C197 1.166 . S
O196 Zn181 1.905 . S
O196 C197 1.182 . S
C197 O195 1.166 . S
C197 O196 1.182 . S
O198 Zn183 2.080 . S
O198 C201 1.305 . S
O199 Zn182 1.920 . S
O199 C201 1.234 . S
C200 O186 1.305 . S
C200 O187 1.234 . S
C201 O198 1.305 . S
C201 O199 1.234 . S
C202 C203 1.386 . S
C202 C204 1.383 . S
C202 H218 0.951 . S
C203 C202 1.386 . S
C203 C207 1.383 . S
C204 C202 1.383 . S
C204 C205 1.402 . S
C204 H219 0.951 . S
C205 C204 1.402 . S
C205 C206 1.375 . S
C205 C208 1.481 . S
C206 C205 1.375 . S
C206 C207 1.367 . S
C206 H220 0.951 . S
C207 C203 1.383 . S
C207 C206 1.367 . S
C207 H221 0.950 . S
C208 C205 1.481 . S
C208 C209 1.297 . S
C208 H222 0.950 . S
C209 C208 1.297 . S
C209 C210 1.479 . S
C209 H223 0.950 . S
C210 C209 1.479 . S
C210 C211 1.375 . S
C210 C216 1.404 . S
C211 C210 1.375 . S
C211 C212 1.369 . S
C211 H224 0.950 . S
C212 C211 1.369 . S
C212 C213 1.392 . S
C212 H225 0.951 . S
C213 C212 1.392 . S
C213 C215 1.384 . S
H214 C216 0.949 . S
C215 C213 1.384 . S
C215 C216 1.385 . S
C215 H217 0.950 . S
C216 C210 1.404 . S
C216 H214 0.949 . S
C216 C215 1.385 . S
H217 C215 0.950 . S
H218 C202 0.951 . S
H219 C204 0.951 . S
H220 C206 0.951 . S
H221 C207 0.950 . S
H222 C208 0.950 . S
H223 C209 0.950 . S
H224 C211 0.950 . S
H225 C212 0.951 . S
C226 C227 1.386 1_655 S
C226 C228 1.383 1_655 S
C226 H242 0.951 . S
C227 C226 1.386 1_455 S
C227 C231 1.383 . S
C228 C226 1.383 1_455 S
C228 C229 1.402 . S
C228 H243 0.951 1_455 S
C229 C228 1.402 . S
C229 C230 1.375 . S
C229 C232 1.481 . S
C230 C229 1.375 . S
C230 C231 1.367 . S
C230 H244 0.951 . S
C231 C227 1.383 . S
C231 C230 1.367 . S
C231 H245 0.950 . S
C232 C229 1.481 . S
C232 C233 1.297 . S
C232 H246 0.950 . S
C233 C232 1.297 . S
C233 C234 1.479 . S
C233 H247 0.950 1_455 S
C234 C233 1.479 . S
C234 C235 1.375 . S
C234 C240 1.404 . S
C235 C234 1.375 . S
C235 C236 1.369 . S
C235 H248 0.950 . S
C236 C235 1.369 . S
C236 C237 1.392 . S
C236 H249 0.951 . S
C237 C236 1.392 . S
C237 C239 1.384 . S
H238 C240 0.949 . S
C239 C237 1.384 . S
C239 C240 1.385 . S
C239 H241 0.950 . S
C240 C234 1.404 . S
C240 H238 0.949 . S
C240 C239 1.385 . S
H241 C239 0.950 . S
H242 C226 0.951 . S
H243 C228 0.951 1_655 S
H244 C230 0.951 . S
H245 C231 0.950 . S
H246 C232 0.950 . S
H247 C233 0.950 1_655 S
H248 C235 0.950 . S
H249 C236 0.951 . S
C250 C251 1.386 . S
C250 C252 1.383 . S
C250 H266 0.951 . S
C251 C250 1.386 . S
C251 C255 1.383 . S
C252 C250 1.383 . S
C252 C253 1.402 . S
C252 H267 0.951 . S
C253 C252 1.402 . S
C253 C254 1.375 . S
C253 C256 1.481 . S
C254 C253 1.375 . S
C254 C255 1.367 . S
C254 H268 0.951 . S
C255 C251 1.383 . S
C255 C254 1.367 . S
C255 H269 0.950 . S
C256 C253 1.481 . S
C256 C257 1.297 . S
C256 H270 0.950 . S
C257 C256 1.297 . S
C257 C258 1.479 . S
C257 H271 0.950 . S
C258 C257 1.479 . S
C258 C259 1.375 . S
C258 C264 1.404 . S
C259 C258 1.375 . S
C259 C260 1.369 . S
C259 H272 0.950 . S
C260 C259 1.369 . S
C260 C261 1.392 . S
C260 H273 0.951 . S
C261 C260 1.392 . S
C261 C263 1.384 . S
H262 C264 0.949 . S
C263 C261 1.384 . S
C263 C264 1.385 . S
C263 H265 0.950 . S
C264 C258 1.404 . S
C264 H262 0.949 . S
C264 C263 1.385 . S
H265 C263 0.950 . S
H266 C250 0.951 . S
H267 C252 0.951 . S
H268 C254 0.951 . S
H269 C255 0.950 . S
H270 C256 0.950 . S
H271 C257 0.950 . S
H272 C259 0.950 . S
H273 C260 0.951 . S
C274 C275 1.386 . S
C274 C276 1.383 . S
C274 H290 0.951 . S
C275 C274 1.386 . S
C275 C279 1.383 . S
C276 C274 1.383 . S
C276 C277 1.402 . S
C276 H291 0.951 . S
C277 C276 1.402 . S
C277 C278 1.375 . S
C277 C280 1.481 . S
C278 C277 1.375 . S
C278 C279 1.367 . S
C278 H292 0.951 . S
C279 C275 1.383 . S
C279 C278 1.367 . S
C279 H293 0.950 . S
C280 C277 1.481 . S
C280 C281 1.297 . S
C280 H294 0.950 . S
C281 C280 1.297 . S
C281 C282 1.479 . S
C281 H295 0.950 . S
C282 C281 1.479 . S
C282 C283 1.375 . S
C282 C288 1.404 . S
C283 C282 1.375 . S
C283 C284 1.369 . S
C283 H296 0.950 . S
C284 C283 1.369 . S
C284 C285 1.392 . S
C284 H297 0.951 . S
C285 C284 1.392 . S
C285 C287 1.384 . S
H286 C288 0.949 . S
C287 C285 1.384 . S
C287 C288 1.385 . S
C287 H289 0.950 . S
C288 C282 1.404 . S
C288 H286 0.949 . S
C288 C287 1.385 . S
H289 C287 0.950 . S
H290 C274 0.951 . S
H291 C276 0.951 . S
H292 C278 0.951 . S
H293 C279 0.950 . S
H294 C280 0.950 . S
H295 C281 0.950 . S
H296 C283 0.950 . S
H297 C284 0.951 . S
C298 C299 1.386 . S
C298 C300 1.383 . S
C298 H314 0.951 . S
C299 C298 1.386 . S
C299 C303 1.383 . S
C300 C298 1.383 . S
C300 C301 1.402 . S
C300 H315 0.951 . S
C301 C300 1.402 . S
C301 C302 1.375 . S
C301 C304 1.481 . S
C302 C301 1.375 . S
C302 C303 1.367 . S
C302 H316 0.951 . S
C303 C299 1.383 . S
C303 C302 1.367 . S
C303 H317 0.950 . S
C304 C301 1.481 . S
C304 C305 1.297 . S
C304 H318 0.950 . S
C305 C304 1.297 . S
C305 C306 1.479 . S
C305 H319 0.950 . S
C306 C305 1.479 . S
C306 C307 1.375 . S
C306 C312 1.404 . S
C307 C306 1.375 . S
C307 C308 1.369 . S
C307 H320 0.950 . S
C308 C307 1.369 . S
C308 C309 1.392 . S
C308 H321 0.951 . S
C309 C308 1.392 . S
C309 C311 1.384 . S
H310 C312 0.949 . S
C311 C309 1.384 . S
C311 C312 1.385 . S
C311 H313 0.950 . S
C312 C306 1.404 . S
C312 H310 0.949 . S
C312 C311 1.385 . S
H313 C311 0.950 . S
H314 C298 0.951 . S
H315 C300 0.951 . S
H316 C302 0.951 . S
H317 C303 0.950 . S
H318 C304 0.950 . S
H319 C305 0.950 . S
H320 C307 0.950 . S
H321 C308 0.951 . S
C322 C323 1.386 . S
C322 C324 1.383 . S
C322 H338 0.951 . S
C323 C322 1.386 . S
C323 C327 1.383 . S
C324 C322 1.383 . S
C324 C325 1.402 . S
C324 H339 0.951 . S
C325 C324 1.402 . S
C325 C326 1.375 . S
C325 C328 1.481 . S
C326 C325 1.375 . S
C326 C327 1.367 . S
C326 H340 0.951 . S
C327 C323 1.383 . S
C327 C326 1.367 . S
C327 H341 0.950 . S
C328 C325 1.481 . S
C328 C329 1.297 . S
C328 H342 0.950 . S
C329 C328 1.297 . S
C329 C330 1.479 . S
C329 H343 0.950 . S
C330 C329 1.479 . S
C330 C331 1.375 . S
C330 C336 1.404 . S
C331 C330 1.375 . S
C331 C332 1.369 . S
C331 H344 0.950 . S
C332 C331 1.369 . S
C332 C333 1.392 . S
C332 H345 0.951 . S
C333 C332 1.392 . S
C333 C335 1.384 . S
H334 C336 0.949 . S
C335 C333 1.384 . S
C335 C336 1.385 . S
C335 H337 0.950 . S
C336 C330 1.404 . S
C336 H334 0.949 . S
C336 C335 1.385 . S
H337 C335 0.950 . S
H338 C322 0.951 . S
H339 C324 0.951 . S
H340 C326 0.951 . S
H341 C327 0.950 . S
H342 C328 0.950 . S
H343 C329 0.950 . S
H344 C331 0.950 . S
H345 C332 0.951 . S
C346 C347 1.386 . S
C346 C348 1.383 . S
C346 H362 0.951 . S
C347 C346 1.386 . S
C347 C351 1.383 . S
C348 C346 1.383 . S
C348 C349 1.402 . S
C348 H363 0.951 . S
C349 C348 1.402 . S
C349 C350 1.375 . S
C349 C352 1.481 . S
C350 C349 1.375 . S
C350 C351 1.367 . S
C350 H364 0.951 . S
C351 C347 1.383 . S
C351 C350 1.367 . S
C351 H365 0.950 . S
C352 C349 1.481 . S
C352 C353 1.297 . S
C352 H366 0.950 . S
C353 C352 1.297 . S
C353 C354 1.479 . S
C353 H367 0.950 . S
C354 C353 1.479 . S
C354 C355 1.375 . S
C354 C360 1.404 . S
C355 C354 1.375 . S
C355 C356 1.369 . S
C355 H368 0.950 . S
C356 C355 1.369 . S
C356 C357 1.392 . S
C356 H369 0.951 . S
C357 C356 1.392 . S
C357 C359 1.384 . S
H358 C360 0.949 . S
C359 C357 1.384 . S
C359 C360 1.385 . S
C359 H361 0.950 . S
C360 C354 1.404 . S
C360 H358 0.949 . S
C360 C359 1.385 . S
H361 C359 0.950 . S
H362 C346 0.951 . S
H363 C348 0.951 . S
H364 C350 0.951 . S
H365 C351 0.950 . S
H366 C352 0.950 . S
H367 C353 0.950 . S
H368 C355 0.950 . S
H369 C356 0.951 . S
C370 C371 1.386 . S
C370 C372 1.383 . S
C370 H386 0.951 . S
C371 C370 1.386 . S
C371 C375 1.383 . S
C372 C370 1.383 . S
C372 C373 1.402 . S
C372 H387 0.951 . S
C373 C372 1.402 . S
C373 C374 1.375 . S
C373 C376 1.481 . S
C374 C373 1.375 . S
C374 C375 1.367 . S
C374 H388 0.951 . S
C375 C371 1.383 . S
C375 C374 1.367 . S
C375 H389 0.950 . S
C376 C373 1.481 . S
C376 C377 1.297 . S
C376 H390 0.950 . S
C377 C376 1.297 . S
C377 C378 1.479 . S
C377 H391 0.950 . S
C378 C377 1.479 . S
C378 C379 1.375 . S
C378 C384 1.404 . S
C379 C378 1.375 . S
C379 C380 1.369 . S
C379 H392 0.950 . S
C380 C379 1.369 . S
C380 C381 1.392 . S
C380 H393 0.951 . S
C381 C380 1.392 . S
C381 C383 1.384 . S
H382 C384 0.949 . S
C383 C381 1.384 . S
C383 C384 1.385 . S
C383 H385 0.950 . S
C384 C378 1.404 . S
C384 H382 0.949 . S
C384 C383 1.385 . S
H385 C383 0.950 . S
H386 C370 0.951 . S
H387 C372 0.951 . S
H388 C374 0.951 . S
H389 C375 0.950 . S
H390 C376 0.950 . S
H391 C377 0.950 . S
H392 C379 0.950 . S
H393 C380 0.951 . S
C394 C395 1.386 . S
C394 C396 1.383 . S
C394 H410 0.951 . S
C395 C394 1.386 . S
C395 C399 1.383 . S
C396 C394 1.383 . S
C396 C397 1.402 . S
C396 H411 0.951 . S
C397 C396 1.402 . S
C397 C398 1.375 . S
C397 C400 1.481 . S
C398 C397 1.375 . S
C398 C399 1.367 . S
C398 H412 0.951 . S
C399 C395 1.383 . S
C399 C398 1.367 . S
C399 H413 0.950 . S
C400 C397 1.481 . S
C400 C401 1.297 . S
C400 H414 0.950 . S
C401 C400 1.297 . S
C401 C402 1.479 . S
C401 H415 0.950 . S
C402 C401 1.479 . S
C402 C403 1.375 . S
C402 C408 1.404 . S
C403 C402 1.375 . S
C403 C404 1.369 1_655 S
C403 H416 0.950 . S
C404 C403 1.369 1_455 S
C404 C405 1.392 . S
C404 H417 0.951 . S
C405 C404 1.392 . S
C405 C407 1.384 1_455 S
H406 C408 0.949 . S
C407 C405 1.384 1_655 S
C407 C408 1.385 . S
C407 H409 0.950 . S
C408 C402 1.404 . S
C408 H406 0.949 . S
C408 C407 1.385 . S
H409 C407 0.950 . S
H410 C394 0.951 . S
H411 C396 0.951 . S
H412 C398 0.951 . S
H413 C399 0.950 . S
H414 C400 0.950 . S
H415 C401 0.950 . S
H416 C403 0.950 . S
H417 C404 0.951 . S
C418 C419 1.386 . S
C418 C420 1.383 . S
C418 H434 0.951 . S
C419 C418 1.386 . S
C419 C423 1.383 . S
C420 C418 1.383 . S
C420 C421 1.402 . S
C420 H435 0.951 . S
C421 C420 1.402 . S
C421 C422 1.375 . S
C421 C424 1.481 . S
C422 C421 1.375 . S
C422 C423 1.367 . S
C422 H436 0.951 . S
C423 C419 1.383 . S
C423 C422 1.367 . S
C423 H437 0.950 . S
C424 C421 1.481 . S
C424 C425 1.297 . S
C424 H438 0.950 . S
C425 C424 1.297 . S
C425 C426 1.479 . S
C425 H439 0.950 . S
C426 C425 1.479 . S
C426 C427 1.375 . S
C426 C432 1.404 . S
C427 C426 1.375 . S
C427 C428 1.369 . S
C427 H440 0.950 . S
C428 C427 1.369 . S
C428 C429 1.392 . S
C428 H441 0.951 . S
C429 C428 1.392 . S
C429 C431 1.384 . S
H430 C432 0.949 . S
C431 C429 1.384 . S
C431 C432 1.385 . S
C431 H433 0.950 . S
C432 C426 1.404 . S
C432 H430 0.949 . S
C432 C431 1.385 . S
H433 C431 0.950 . S
H434 C418 0.951 . S
H435 C420 0.951 . S
H436 C422 0.951 . S
H437 C423 0.950 . S
H438 C424 0.950 . S
H439 C425 0.950 . S
H440 C427 0.950 . S
H441 C428 0.951 . S
C442 C443 1.386 . S
C442 C444 1.383 . S
C442 H458 0.951 . S
C443 C442 1.386 . S
C443 C447 1.383 . S
C444 C442 1.383 . S
C444 C445 1.402 . S
C444 H459 0.951 . S
C445 C444 1.402 . S
C445 C446 1.375 . S
C445 C448 1.481 . S
C446 C445 1.375 . S
C446 C447 1.367 . S
C446 H460 0.951 . S
C447 C443 1.383 . S
C447 C446 1.367 . S
C447 H461 0.950 . S
C448 C445 1.481 . S
C448 C449 1.297 . S
C448 H462 0.950 . S
C449 C448 1.297 . S
C449 C450 1.479 . S
C449 H463 0.950 . S
C450 C449 1.479 . S
C450 C451 1.375 . S
C450 C456 1.404 . S
C451 C450 1.375 . S
C451 C452 1.369 . S
C451 H464 0.950 . S
C452 C451 1.369 . S
C452 C453 1.392 . S
C452 H465 0.951 . S
C453 C452 1.392 . S
C453 C455 1.384 . S
H454 C456 0.949 . S
C455 C453 1.384 . S
C455 C456 1.385 . S
C455 H457 0.950 . S
C456 C450 1.404 . S
C456 H454 0.949 . S
C456 C455 1.385 . S
H457 C455 0.950 . S
H458 C442 0.951 . S
H459 C444 0.951 . S
H460 C446 0.951 . S
H461 C447 0.950 . S
H462 C448 0.950 . S
H463 C449 0.950 . S
H464 C451 0.950 . S
H465 C452 0.951 . S
C466 C467 1.386 . S
C466 C468 1.383 . S
C466 H482 0.951 . S
C467 C466 1.386 . S
C467 C471 1.383 . S
C468 C466 1.383 . S
C468 C469 1.402 . S
C468 H483 0.951 . S
C469 C468 1.402 . S
C469 C470 1.375 . S
C469 C472 1.481 . S
C470 C469 1.375 . S
C470 C471 1.367 . S
C470 H484 0.951 . S
C471 C467 1.383 . S
C471 C470 1.367 . S
C471 H485 0.950 . S
C472 C469 1.481 . S
C472 C473 1.297 . S
C472 H486 0.950 . S
C473 C472 1.297 . S
C473 C474 1.479 . S
C473 H487 0.950 . S
C474 C473 1.479 . S
C474 C475 1.375 . S
C474 C480 1.404 . S
C475 C474 1.375 . S
C475 C476 1.369 . S
C475 H488 0.950 . S
C476 C475 1.369 . S
C476 C477 1.392 . S
C476 H489 0.951 . S
C477 C476 1.392 . S
C477 C479 1.384 . S
H478 C480 0.949 . S
C479 C477 1.384 . S
C479 C480 1.385 . S
C479 H481 0.950 . S
C480 C474 1.404 . S
C480 H478 0.949 . S
C480 C479 1.385 . S
H481 C479 0.950 . S
H482 C466 0.951 . S
H483 C468 0.951 . S
H484 C470 0.951 . S
H485 C471 0.950 . S
H486 C472 0.950 . S
H487 C473 0.950 . S
H488 C475 0.950 . S
H489 C476 0.951 . S
C213 C167 1.484 . S
C203 C15 1.540 . S
C237 C163 1.445 . S
C227 C55 1.527 . S
C261 C188 1.453 . S
C251 C95 1.531 . S
C275 C135 1.534 . S
C285 C184 1.412 . S
C299 C21 1.106 . S
C309 C185 1.138 . S
C333 C200 1.148 . S
C323 C42 1.180 . S
C347 C2 1.708 . S
C357 C201 1.519 . S
C381 C197 1.676 . S
C371 C61 1.753 . S
C405 C164 0.900 . S
C395 C101 1.143 . S
C419 C122 1.171 . S
C429 C179 1.091 . S
C453 C180 1.648 . S
C443 C82 1.710 . S
C477 C176 1.554 . S
C467 C141 1.769 . S
