# Generated by pormake.
# Topology wbl, (4,4)-cn, num edge types: 1
# Building blocks:
#     Node 0, Type 0, BuildingBlock: MUDLON_clean_sbu_0, # of connection points: 4
#     Node 1, Type 0, BuildingBlock: MUDLON_clean_sbu_0, # of connection points: 4
#     Node 2, Type 0, BuildingBlock: MUDLON_clean_sbu_0, # of connection points: 4
#     Node 3, Type 0, BuildingBlock: MUDLON_clean_sbu_0, # of connection points: 4
#     Node 4, Type 0, BuildingBlock: MUDLON_clean_sbu_0, # of connection points: 4
#     Node 5, Type 0, BuildingBlock: MUDLON_clean_sbu_0, # of connection points: 4
#     Node 6, Type 0, BuildingBlock: MUDLON_clean_sbu_0, # of connection points: 4
#     Node 7, Type 0, BuildingBlock: MUDLON_clean_sbu_0, # of connection points: 4
#     Node 8, Type 1, BuildingBlock: CEKHIL_clean_sbu_0, # of connection points: 4
#     Node 9, Type 1, BuildingBlock: CEKHIL_clean_sbu_0, # of connection points: 4
#     Node 10, Type 1, BuildingBlock: CEKHIL_clean_sbu_0, # of connection points: 4
#     Node 11, Type 1, BuildingBlock: CEKHIL_clean_sbu_0, # of connection points: 4
#     Node 12, Type 1, BuildingBlock: CEKHIL_clean_sbu_0, # of connection points: 4
#     Node 13, Type 1, BuildingBlock: CEKHIL_clean_sbu_0, # of connection points: 4
#     Node 14, Type 1, BuildingBlock: CEKHIL_clean_sbu_0, # of connection points: 4
#     Node 15, Type 1, BuildingBlock: CEKHIL_clean_sbu_0, # of connection points: 4
#     Edge 16, Type (0, 1), BuildingBlock: KIFKEQ_clean_linker_1, # of connection points: 2
#     Edge 17, Type (0, 1), BuildingBlock: KIFKEQ_clean_linker_1, # of connection points: 2
#     Edge 18, Type (0, 1), BuildingBlock: KIFKEQ_clean_linker_1, # of connection points: 2
#     Edge 19, Type (0, 1), BuildingBlock: KIFKEQ_clean_linker_1, # of connection points: 2
#     Edge 20, Type (0, 1), BuildingBlock: KIFKEQ_clean_linker_1, # of connection points: 2
#     Edge 21, Type (0, 1), BuildingBlock: KIFKEQ_clean_linker_1, # of connection points: 2
#     Edge 22, Type (0, 1), BuildingBlock: KIFKEQ_clean_linker_1, # of connection points: 2
#     Edge 23, Type (0, 1), BuildingBlock: KIFKEQ_clean_linker_1, # of connection points: 2
#     Edge 24, Type (0, 1), BuildingBlock: KIFKEQ_clean_linker_1, # of connection points: 2
#     Edge 25, Type (0, 1), BuildingBlock: KIFKEQ_clean_linker_1, # of connection points: 2
#     Edge 26, Type (0, 1), BuildingBlock: KIFKEQ_clean_linker_1, # of connection points: 2
#     Edge 27, Type (0, 1), BuildingBlock: KIFKEQ_clean_linker_1, # of connection points: 2
#     Edge 28, Type (0, 1), BuildingBlock: KIFKEQ_clean_linker_1, # of connection points: 2
#     Edge 29, Type (0, 1), BuildingBlock: KIFKEQ_clean_linker_1, # of connection points: 2
#     Edge 30, Type (0, 1), BuildingBlock: KIFKEQ_clean_linker_1, # of connection points: 2
#     Edge 31, Type (0, 1), BuildingBlock: KIFKEQ_clean_linker_1, # of connection points: 2
#     Edge 32, Type (0, 1), BuildingBlock: KIFKEQ_clean_linker_1, # of connection points: 2
#     Edge 33, Type (0, 1), BuildingBlock: KIFKEQ_clean_linker_1, # of connection points: 2
#     Edge 34, Type (0, 1), BuildingBlock: KIFKEQ_clean_linker_1, # of connection points: 2
#     Edge 35, Type (0, 1), BuildingBlock: KIFKEQ_clean_linker_1, # of connection points: 2
#     Edge 36, Type (0, 1), BuildingBlock: KIFKEQ_clean_linker_1, # of connection points: 2
#     Edge 37, Type (0, 1), BuildingBlock: KIFKEQ_clean_linker_1, # of connection points: 2
#     Edge 38, Type (0, 1), BuildingBlock: KIFKEQ_clean_linker_1, # of connection points: 2
#     Edge 39, Type (0, 1), BuildingBlock: KIFKEQ_clean_linker_1, # of connection points: 2
#     Edge 40, Type (0, 1), BuildingBlock: KIFKEQ_clean_linker_1, # of connection points: 2
#     Edge 41, Type (0, 1), BuildingBlock: KIFKEQ_clean_linker_1, # of connection points: 2
#     Edge 42, Type (0, 1), BuildingBlock: KIFKEQ_clean_linker_1, # of connection points: 2
#     Edge 43, Type (0, 1), BuildingBlock: KIFKEQ_clean_linker_1, # of connection points: 2
#     Edge 44, Type (0, 1), BuildingBlock: KIFKEQ_clean_linker_1, # of connection points: 2
#     Edge 45, Type (0, 1), BuildingBlock: KIFKEQ_clean_linker_1, # of connection points: 2
#     Edge 46, Type (0, 1), BuildingBlock: KIFKEQ_clean_linker_1, # of connection points: 2
#     Edge 47, Type (0, 1), BuildingBlock: KIFKEQ_clean_linker_1, # of connection points: 2
# Relax obj value: 0.231
# Max RMSD: 0.219
# Mean RMSD: 0.172
data_MOF--net-wbl--node1-MUDLON_clean_sbu_0--node2-CEKHIL_clean_sbu_0--edge1-KIFKEQ_clean_linker_1
_symmetry_space_group_name_H-M    P1
_symmetry_Int_Tables_number       1
_symmetry_cell_setting            triclinic
loop_
_symmetry_equiv_pos_as_xyz
'x, y, z'
_cell_length_a     35.0544
_cell_length_b     35.267028
_cell_length_c     76.832257
_cell_angle_alpha  90.266157
_cell_angle_beta   90.099987
_cell_angle_gamma 89.972056
loop_
_atom_site_label
_atom_site_type_symbol
_atom_site_fract_x
_atom_site_fract_y
_atom_site_fract_z
_atom_type_partial_charge
Mg0 Mg 0.0185 0.04318 0.33799 0.0
C1 C 0.03557 0.96603 0.35329 0.0
O2 O 0.06466 0.96759 0.34258 0.0
C3 C 0.93722 0.0491 0.32457 0.0
O4 O 0.93273 0.01959 0.33474 0.0
C5 C 0.0767 0.01787 0.31101 0.0
O6 O 0.0485 0.99574 0.30607 0.0
O7 O 0.07153 0.04096 0.32354 0.0
O8 O 0.00939 0.99086 0.3521 0.0
O9 O 0.02412 0.08169 0.35994 0.0
C10 C 0.99604 0.10238 0.36438 0.0
O11 O 0.96598 0.10389 0.35419 0.0
O12 O 0.97041 0.06288 0.32262 0.0
Mg13 Mg 0.12377 0.52577 0.5933 0.0
C14 C 0.20255 0.54299 0.60615 0.0
O15 O 0.19636 0.57363 0.59693 0.0
C16 C 0.11262 0.44952 0.57383 0.0
O17 O 0.14857 0.44336 0.57776 0.0
C18 C 0.14316 0.58609 0.56693 0.0
O19 O 0.16348 0.55796 0.56055 0.0
O20 O 0.12273 0.58035 0.58033 0.0
O21 O 0.17969 0.51518 0.60449 0.0
O22 O 0.09049 0.52683 0.61703 0.0
C23 C 0.08154 0.4942 0.6227 0.0
O24 O 0.09036 0.46418 0.61336 0.0
O25 O 0.09752 0.48118 0.57773 0.0
Mg26 Mg 0.65453 0.63016 0.84359 0.0
C27 C 0.6755 0.68666 0.87063 0.0
O28 O 0.70295 0.66163 0.87251 0.0
C29 C 0.70424 0.58543 0.81998 0.0
O30 O 0.67149 0.56757 0.81852 0.0
C31 C 0.59101 0.65307 0.81911 0.0
O32 O 0.6124 0.68349 0.81773 0.0
O33 O 0.60238 0.62581 0.82859 0.0
O34 O 0.65372 0.68381 0.85745 0.0
O35 O 0.65329 0.59075 0.86519 0.0
C36 C 0.68363 0.57325 0.86941 0.0
O37 O 0.71387 0.57627 0.85946 0.0
O38 O 0.70543 0.6161 0.82876 0.0
Mg39 Mg 0.54525 0.15026 0.09183 0.0
C40 C 0.60029 0.13207 0.12363 0.0
O41 O 0.60893 0.09903 0.11675 0.0
C42 C 0.54497 0.06525 0.08684 0.0
O43 O 0.54063 0.06687 0.10381 0.0
C44 C 0.60309 0.2006 0.07743 0.0
O45 O 0.6226 0.17468 0.08587 0.0
O46 O 0.56696 0.19731 0.0766 0.0
O47 O 0.57761 0.15433 0.11581 0.0
O48 O 0.48847 0.1564 0.10269 0.0
C49 C 0.46456 0.12945 0.10131 0.0
O50 O 0.4687 0.10488 0.08856 0.0
O51 O 0.54894 0.09589 0.07837 0.0
Mg52 Mg 0.15945 0.52821 0.93086 0.0
C53 C 0.1463 0.58529 0.89986 0.0
O54 O 0.12114 0.6037 0.90932 0.0
C55 C 0.09965 0.53579 0.95938 0.0
O56 O 0.12995 0.53758 0.96944 0.0
C57 C 0.20974 0.5872 0.94532 0.0
O58 O 0.18371 0.60648 0.9368 0.0
O59 O 0.20647 0.5513 0.94612 0.0
O60 O 0.16315 0.55646 0.90604 0.0
O61 O 0.1656 0.47058 0.9214 0.0
C62 C 0.1355 0.45066 0.92 0.0
O63 O 0.10582 0.45983 0.92955 0.0
O64 O 0.10386 0.53386 0.94298 0.0
Mg65 Mg 0.63812 0.64494 0.18417 0.0
C66 C 0.58564 0.67163 0.15689 0.0
O67 O 0.59758 0.70338 0.16404 0.0
C68 C 0.64421 0.56155 0.19243 0.0
O69 O 0.64526 0.55967 0.17535 0.0
C70 C 0.58634 0.69572 0.20379 0.0
O71 O 0.5647 0.66604 0.20066 0.0
O72 O 0.62121 0.69451 0.19923 0.0
O73 O 0.59669 0.64027 0.16328 0.0
O74 O 0.6901 0.65163 0.16914 0.0
C75 C 0.71586 0.62625 0.16908 0.0
O76 O 0.71617 0.60087 0.18153 0.0
O77 O 0.64036 0.59373 0.19976 0.0
Mg78 Mg 0.52358 0.1047 0.4314 0.0
C79 C 0.54114 0.18351 0.41807 0.0
O80 O 0.5715 0.17958 0.42791 0.0
C81 C 0.44444 0.10065 0.44765 0.0
O82 O 0.44127 0.13428 0.4405 0.0
C83 C 0.58487 0.12642 0.45774 0.0
O84 O 0.5578 0.14942 0.46312 0.0
O85 O 0.578 0.10381 0.44515 0.0
O86 O 0.51431 0.15941 0.41926 0.0
O87 O 0.52436 0.07021 0.40788 0.0
C88 C 0.49228 0.07002 0.40009 0.0
O89 O 0.46326 0.08702 0.4076 0.0
O90 O 0.47618 0.08332 0.44675 0.0
Mg91 Mg 0.03988 0.0157 0.67905 0.0
C92 C 0.06595 0.04028 0.64382 0.0
O93 O 0.03695 0.06334 0.6461 0.0
C94 C 0.02505 0.07536 0.70763 0.0
O95 O 0.00965 0.04682 0.716 0.0
C96 C 0.0978 0.96422 0.69343 0.0
O97 O 0.11794 0.99019 0.68539 0.0
O98 O 0.06166 0.96779 0.69383 0.0
O99 O 0.07619 0.01904 0.6563 0.0
O100 O 0.98515 0.00816 0.66611 0.0
C101 C 0.96409 0.03736 0.66462 0.0
O102 O 0.96992 0.06596 0.6753 0.0
O103 O 0.04055 0.06957 0.69289 0.0
Co104 Co 0.49262 0.74306 0.0082 0.0
O105 O 0.47215 0.69776 0.99778 0.0
O106 O 0.44733 0.75511 0.99485 0.0
C107 C 0.50059 0.71809 0.03489 0.0
O108 O 0.50472 0.796 0.01777 0.0
Co109 Co 0.57468 0.7452 0.0233 0.0
O110 O 0.55486 0.79017 0.03591 0.0
C111 C 0.56313 0.75019 0.98519 0.0
C112 C 0.44506 0.7189 0.99164 0.0
C113 C 0.5267 0.80879 0.02991 0.0
O114 O 0.52667 0.75101 0.9873 0.0
O115 O 0.58678 0.7462 0.99778 0.0
O116 O 0.46753 0.73097 0.03009 0.0
O117 O 0.52676 0.71794 0.02306 0.0
Co118 Co 0.396 0.99501 0.24414 0.0
O119 O 0.35487 0.0268 0.25184 0.0
O120 O 0.35682 0.96447 0.25501 0.0
C121 C 0.40114 0.02142 0.21754 0.0
O122 O 0.43306 0.95282 0.23732 0.0
Co123 Co 0.47468 0.02956 0.2356 0.0
O124 O 0.48592 0.97863 0.22587 0.0
C125 C 0.4524 0.02006 0.27228 0.0
C126 C 0.33843 0.99617 0.25731 0.0
C127 C 0.46552 0.94989 0.22957 0.0
O128 O 0.42244 0.00198 0.26726 0.0
O129 O 0.47558 0.03575 0.26165 0.0
O130 O 0.3758 0.99537 0.22049 0.0
O131 O 0.42036 0.0327 0.23099 0.0
Co132 Co 0.15743 0.89943 0.49693 0.0
O133 O 0.12723 0.85938 0.50657 0.0
O134 O 0.18986 0.86426 0.5095 0.0
C135 C 0.12982 0.89693 0.47046 0.0
O136 O 0.19832 0.93618 0.48827 0.0
Co137 Co 0.11969 0.97341 0.48384 0.0
O138 O 0.17006 0.98267 0.47306 0.0
C139 C 0.13079 0.9618 0.52162 0.0
C140 C 0.15871 0.8454 0.51265 0.0
C141 C 0.19986 0.96539 0.47826 0.0
O142 O 0.1492 0.93085 0.51863 0.0
O143 O 0.11509 0.98151 0.50962 0.0
O144 O 0.15765 0.87407 0.47426 0.0
O145 O 0.11815 0.91864 0.48292 0.0
Co146 Co 0.25364 0.67932 0.75366 0.0
O147 O 0.20759 0.70094 0.74432 0.0
O148 O 0.26489 0.72689 0.74227 0.0
C149 C 0.22913 0.66559 0.77999 0.0
O150 O 0.30724 0.6663 0.76234 0.0
Co151 Co 0.25624 0.59465 0.76453 0.0
O152 O 0.30693 0.60791 0.77406 0.0
C153 C 0.26026 0.61447 0.72731 0.0
C154 C 0.22843 0.72911 0.73919 0.0
C155 C 0.32372 0.63895 0.77052 0.0
O156 O 0.26196 0.64999 0.73128 0.0
O157 O 0.25543 0.58835 0.73861 0.0
O158 O 0.24134 0.69953 0.77665 0.0
O159 O 0.22915 0.64219 0.767 0.0
Co160 Co 0.92699 0.18085 0.51664 0.0
O161 O 0.97379 0.20055 0.52595 0.0
O162 O 0.91706 0.22671 0.53003 0.0
C163 C 0.94892 0.17186 0.48938 0.0
O164 O 0.87292 0.16841 0.50827 0.0
Co165 Co 0.92544 0.09782 0.50305 0.0
O166 O 0.87726 0.11518 0.49206 0.0
C167 C 0.92557 0.1125 0.54082 0.0
C168 C 0.95382 0.22798 0.53251 0.0
C169 C 0.85875 0.14404 0.49747 0.0
O170 O 0.92042 0.14807 0.53792 0.0
O171 O 0.93158 0.08817 0.52869 0.0
O172 O 0.93707 0.20501 0.49438 0.0
O173 O 0.95065 0.14642 0.50143 0.0
Co174 Co 0.99111 0.41292 0.77218 0.0
O175 O 0.9713 0.45982 0.78108 0.0
O176 O 0.9431 0.40422 0.78418 0.0
C177 C 0.004 0.43524 0.74541 0.0
O178 O 0.00294 0.35889 0.76372 0.0
Co179 Co 0.07585 0.40891 0.76088 0.0
O180 O 0.05861 0.36182 0.74927 0.0
C181 C 0.05693 0.40486 0.79819 0.0
C182 C 0.9422 0.44081 0.78662 0.0
C183 C 0.02845 0.34411 0.75365 0.0
O184 O 0.02112 0.40502 0.79439 0.0
O185 O 0.08324 0.4082 0.78676 0.0
O186 O 0.96989 0.42402 0.74938 0.0
O187 O 0.02824 0.43598 0.75813 0.0
Co188 Co 0.76107 0.48573 0.01956 0.0
O189 O 0.71482 0.463 0.02784 0.0
O190 O 0.77263 0.43933 0.03194 0.0
C191 C 0.74 0.49659 0.99233 0.0
O192 O 0.81489 0.5008 0.01212 0.0
Co193 Co 0.76003 0.57005 0.00814 0.0
O194 O 0.81323 0.55972 0.00088 0.0
C195 C 0.75811 0.55151 0.04538 0.0
C196 C 0.73591 0.43599 0.03398 0.0
C197 C 0.83095 0.52927 0.00464 0.0
O198 O 0.76538 0.5166 0.0417 0.0
O199 O 0.75121 0.57654 0.03378 0.0
O200 O 0.75298 0.46345 0.99663 0.0
O201 O 0.73671 0.52075 0.00495 0.0
Co202 Co 0.66024 0.26463 0.27584 0.0
O203 O 0.63161 0.30673 0.26704 0.0
O204 O 0.69412 0.30003 0.26427 0.0
C205 C 0.63193 0.26444 0.30212 0.0
O206 O 0.69945 0.22553 0.28391 0.0
Co207 Co 0.6192 0.19035 0.28608 0.0
O208 O 0.66849 0.17835 0.29747 0.0
C209 C 0.63416 0.20596 0.24901 0.0
C210 C 0.66363 0.32019 0.26138 0.0
C211 C 0.69921 0.19516 0.29318 0.0
O212 O 0.65253 0.23614 0.25333 0.0
O213 O 0.61682 0.18505 0.26005 0.0
O214 O 0.66034 0.28713 0.29911 0.0
O215 O 0.61988 0.2449 0.28896 0.0
H216 H 0.14051 0.05928 0.31834 0.0
H217 H 0.09969 0.96737 0.2859 0.0
H218 H 0.20392 0.05215 0.30594 0.0
H219 H 0.16331 0.96064 0.27328 0.0
H220 H 0.29312 0.93715 0.26802 0.0
H221 H 0.22961 0.94136 0.2812 0.0
H222 H 0.23443 0.06351 0.27791 0.0
H223 H 0.29754 0.0594 0.26506 0.0
C224 C 0.14499 0.03767 0.30849 0.0
C225 C 0.11495 0.01405 0.30304 0.0
C226 C 0.18135 0.03365 0.30135 0.0
C227 C 0.18861 0.0059 0.28859 0.0
C228 C 0.15868 0.98204 0.28321 0.0
C229 C 0.12218 0.98613 0.29033 0.0
C230 C 0.28059 0.96485 0.27019 0.0
C231 C 0.30036 0.99793 0.26554 0.0
C232 C 0.24418 0.96725 0.27762 0.0
C233 C 0.22708 0.00279 0.28064 0.0
C234 C 0.24701 0.03574 0.276 0.0
C235 C 0.28315 0.03334 0.26853 0.0
H236 H 0.10547 0.65023 0.57717 0.0
H237 H 0.18895 0.60945 0.54021 0.0
H238 H 0.11178 0.71398 0.56544 0.0
H239 H 0.19486 0.67328 0.52834 0.0
H240 H 0.21973 0.80081 0.52197 0.0
H241 H 0.21751 0.73846 0.53596 0.0
H242 H 0.09461 0.74563 0.53825 0.0
H243 H 0.0968 0.8075 0.52456 0.0
C244 C 0.12507 0.65481 0.5665 0.0
C245 C 0.14649 0.62467 0.55955 0.0
C246 C 0.12865 0.69136 0.55977 0.0
C247 C 0.15379 0.69867 0.54595 0.0
C248 C 0.17557 0.66864 0.53912 0.0
C249 C 0.17189 0.632 0.54582 0.0
C250 C 0.19234 0.78914 0.52564 0.0
C251 C 0.15846 0.80901 0.52214 0.0
C252 C 0.19104 0.75339 0.53352 0.0
C253 C 0.15586 0.73713 0.53819 0.0
C254 C 0.12217 0.75751 0.53501 0.0
C255 C 0.12345 0.79293 0.52706 0.0
H256 H 0.53561 0.60002 0.82388 0.0
H257 H 0.56004 0.70284 0.79566 0.0
H258 H 0.47209 0.59847 0.81139 0.0
H259 H 0.49654 0.70052 0.78253 0.0
H260 H 0.36425 0.70393 0.77776 0.0
H261 H 0.42979 0.7082 0.78871 0.0
H262 H 0.44012 0.58625 0.78512 0.0
H263 H 0.37473 0.58203 0.77502 0.0
C264 C 0.52759 0.62207 0.81482 0.0
C265 C 0.55298 0.65147 0.81073 0.0
C266 C 0.49112 0.62108 0.80754 0.0
C267 C 0.47914 0.6492 0.7958 0.0
C268 C 0.50462 0.67861 0.79165 0.0
C269 C 0.54112 0.67978 0.79908 0.0
C270 C 0.38072 0.67815 0.77927 0.0
C271 C 0.36417 0.64263 0.7758 0.0
C272 C 0.41831 0.68056 0.78547 0.0
C273 C 0.44015 0.64749 0.78807 0.0
C274 C 0.42391 0.61222 0.7838 0.0
C275 C 0.38638 0.60981 0.77791 0.0
H276 H 0.55855 0.99505 0.09989 0.0
H277 H 0.52238 0.05254 0.05323 0.0
H278 H 0.55042 0.93423 0.08542 0.0
H279 H 0.51179 0.99156 0.03892 0.0
H280 H 0.53668 0.87563 0.01309 0.0
H281 H 0.54008 0.93864 0.02637 0.0
H282 H 0.50637 0.89068 0.07579 0.0
H283 H 0.50582 0.82772 0.06257 0.0
C284 C 0.54856 0.99459 0.08654 0.0
C285 C 0.54129 0.0285 0.07767 0.0
C286 C 0.54339 0.95964 0.07825 0.0
C287 C 0.52988 0.9576 0.06098 0.0
C288 C 0.52269 0.99175 0.05211 0.0
C289 C 0.52867 0.0268 0.06032 0.0
C290 C 0.52938 0.87898 0.02671 0.0
C291 C 0.5209 0.84719 0.03686 0.0
C292 C 0.53126 0.91505 0.03437 0.0
C293 C 0.52414 0.91998 0.05231 0.0
C294 C 0.5133 0.88808 0.06211 0.0
C295 C 0.51233 0.85203 0.05453 0.0
H296 H 0.26667 0.55844 0.96601 0.0
H297 H 0.2298 0.66097 0.94042 0.0
H298 H 0.32345 0.59132 0.97662 0.0
H299 H 0.28699 0.6933 0.95036 0.0
H300 H 0.37511 0.75083 0.98575 0.0
H301 H 0.3178 0.71922 0.97499 0.0
H302 H 0.38248 0.61618 0.96702 0.0
H303 H 0.4392 0.64743 0.97841 0.0
C304 C 0.27072 0.58794 0.96262 0.0
C305 C 0.24366 0.60705 0.95241 0.0
C306 C 0.30345 0.60676 0.96856 0.0
C307 C 0.31005 0.64502 0.96428 0.0
C308 C 0.28274 0.66408 0.95416 0.0
C309 C 0.24992 0.64541 0.94837 0.0
C310 C 0.37711 0.72157 0.98149 0.0
C311 C 0.4116 0.7016 0.98296 0.0
C312 C 0.34425 0.70338 0.97531 0.0
C313 C 0.34529 0.66492 0.97027 0.0
C314 C 0.38027 0.64548 0.97117 0.0
C315 C 0.41295 0.66353 0.97752 0.0
H316 H 0.62187 0.7632 0.21104 0.0
H317 H 0.51093 0.7099 0.20981 0.0
H318 H 0.59194 0.8238 0.21801 0.0
H319 H 0.48096 0.77057 0.21619 0.0
H320 H 0.44153 0.88112 0.24208 0.0
H321 H 0.47113 0.81925 0.23748 0.0
H322 H 0.55437 0.87046 0.20347 0.0
H323 H 0.5256 0.93221 0.20846 0.0
C324 C 0.59113 0.76435 0.21236 0.0
C325 C 0.56882 0.73171 0.20981 0.0
C326 C 0.5739 0.79918 0.21619 0.0
C327 C 0.53394 0.80225 0.21745 0.0
C328 C 0.51178 0.7693 0.21547 0.0
C329 C 0.52902 0.73445 0.21174 0.0
C330 C 0.46601 0.87911 0.23354 0.0
C331 C 0.48127 0.91171 0.22571 0.0
C332 C 0.48299 0.8436 0.23088 0.0
C333 C 0.51545 0.83984 0.22025 0.0
C334 C 0.53003 0.87235 0.2121 0.0
C335 C 0.51327 0.9078 0.21484 0.0
H336 H 0.37253 0.12928 0.45164 0.0
H337 H 0.43854 0.02691 0.45848 0.0
H338 H 0.31486 0.09513 0.45957 0.0
H339 H 0.38058 0.99245 0.46597 0.0
H340 H 0.26995 0.95181 0.49318 0.0
H341 H 0.33 0.98446 0.48715 0.0
H342 H 0.2746 0.04817 0.44639 0.0
H343 H 0.2148 0.01644 0.45264 0.0
C344 C 0.3748 0.09953 0.45492 0.0
C345 C 0.41016 0.08083 0.45431 0.0
C346 C 0.34164 0.07982 0.45933 0.0
C347 C 0.34292 0.04084 0.46315 0.0
C348 C 0.37852 0.02245 0.46319 0.0
C349 C 0.41177 0.04223 0.45884 0.0
C350 C 0.27073 0.97254 0.48283 0.0
C351 C 0.23743 0.98174 0.47352 0.0
C352 C 0.30516 0.99127 0.47937 0.0
C353 C 0.30702 0.01945 0.46648 0.0
C354 C 0.27402 0.02745 0.45674 0.0
C355 C 0.23972 0.00896 0.46025 0.0
H356 H 0.17211 0.94373 0.68925 0.0
H357 H 0.06733 0.90782 0.71366 0.0
H358 H 0.20384 0.8869 0.69951 0.0
H359 H 0.09959 0.85137 0.72461 0.0
H360 H 0.15629 0.73577 0.72637 0.0
H361 H 0.12506 0.79247 0.71538 0.0
H362 H 0.22846 0.85653 0.72433 0.0
H363 H 0.26008 0.79926 0.73466 0.0
C364 C 0.15591 0.92389 0.69701 0.0
C365 C 0.11712 0.93033 0.70062 0.0
C366 C 0.17424 0.89129 0.703 0.0
C367 C 0.15441 0.86436 0.71292 0.0
C368 C 0.11567 0.87109 0.71675 0.0
C369 C 0.09719 0.90362 0.71059 0.0
C370 C 0.17245 0.76192 0.72584 0.0
C371 C 0.21067 0.76305 0.73135 0.0
C372 C 0.1544 0.79457 0.7197 0.0
C373 C 0.17401 0.82933 0.71908 0.0
C374 C 0.21252 0.83025 0.72438 0.0
C375 C 0.23069 0.79743 0.73035 0.0
H376 H 0.7777 0.60338 0.82895 0.0
H377 H 0.71127 0.52329 0.7989 0.0
H378 H 0.8353 0.56726 0.82264 0.0
H379 H 0.76904 0.48781 0.79208 0.0
H380 H 0.87285 0.41131 0.79643 0.0
H381 H 0.81572 0.44674 0.80491 0.0
H382 H 0.87823 0.55177 0.80003 0.0
H383 H 0.93509 0.51654 0.79224 0.0
C384 C 0.77548 0.57844 0.82072 0.0
C385 C 0.73987 0.56628 0.8144 0.0
C386 C 0.80855 0.55765 0.81711 0.0
C387 C 0.8069 0.52435 0.80694 0.0
C388 C 0.77135 0.51278 0.80027 0.0
C389 C 0.73825 0.53341 0.804 0.0
C390 C 0.87443 0.4419 0.79746 0.0
C391 C 0.90849 0.46105 0.79364 0.0
C392 C 0.84161 0.46229 0.80213 0.0
C393 C 0.84218 0.50224 0.80302 0.0
C394 C 0.87667 0.52111 0.79969 0.0
C395 C 0.90935 0.50081 0.79513 0.0
H396 H 0.67687 0.2212 0.0831 0.0
H397 H 0.57442 0.25658 0.05639 0.0
H398 H 0.70932 0.27809 0.07348 0.0
H399 H 0.60748 0.31307 0.04606 0.0
H400 H 0.66305 0.42881 0.04552 0.0
H401 H 0.63146 0.37195 0.05596 0.0
H402 H 0.73626 0.30883 0.0493 0.0
H403 H 0.76822 0.36638 0.03953 0.0
C404 C 0.66138 0.24092 0.07495 0.0
C405 C 0.623 0.23435 0.07052 0.0
C406 C 0.68013 0.27355 0.06935 0.0
C407 C 0.66114 0.30036 0.05899 0.0
C408 C 0.62287 0.29344 0.0543 0.0
C409 C 0.60394 0.2609 0.06008 0.0
C410 C 0.67944 0.40285 0.04646 0.0
C411 C 0.71814 0.40205 0.04173 0.0
C412 C 0.6612 0.37009 0.05227 0.0
C413 C 0.68107 0.33554 0.0533 0.0
C414 C 0.72008 0.33496 0.04887 0.0
C415 C 0.73846 0.36793 0.04325 0.0
H416 H 0.86336 0.02462 0.32324 0.0
H417 H 0.93468 0.12076 0.31111 0.0
H418 H 0.80707 0.06092 0.3151 0.0
H419 H 0.8783 0.15764 0.30364 0.0
H420 H 0.76916 0.20296 0.27763 0.0
H421 H 0.82719 0.16707 0.28381 0.0
H422 H 0.76984 0.11104 0.32631 0.0
H423 H 0.71177 0.1457 0.31968 0.0
C424 C 0.86703 0.05348 0.31877 0.0
C425 C 0.90349 0.06978 0.31787 0.0
C426 C 0.8347 0.07449 0.31427 0.0
C427 C 0.83795 0.11252 0.30896 0.0
C428 C 0.87461 0.12841 0.30753 0.0
C429 C 0.907 0.10723 0.31186 0.0
C430 C 0.76914 0.18321 0.28838 0.0
C431 C 0.73578 0.17697 0.29808 0.0
C432 C 0.80242 0.16261 0.29195 0.0
C433 C 0.80316 0.13563 0.30541 0.0
C434 C 0.77012 0.13066 0.31551 0.0
C435 C 0.73685 0.15085 0.31182 0.0
H436 H 0.13498 0.3836 0.55794 0.0
H437 H 0.03501 0.44454 0.5752 0.0
H438 H 0.09483 0.33086 0.54868 0.0
H439 H 0.99499 0.3912 0.56685 0.0
H440 H 0.9302 0.3019 0.53451 0.0
H441 H 0.96803 0.35637 0.54403 0.0
H442 H 0.05909 0.28073 0.55946 0.0
H443 H 0.02205 0.22696 0.54907 0.0
C444 C 0.10442 0.38566 0.55979 0.0
C445 C 0.08822 0.41828 0.56724 0.0
C446 C 0.08132 0.35524 0.55466 0.0
C447 C 0.04148 0.35636 0.55716 0.0
C448 C 0.02536 0.38931 0.56446 0.0
C449 C 0.04839 0.41996 0.56931 0.0
C450 C 0.95808 0.29706 0.54018 0.0
C451 C 0.97329 0.2603 0.54099 0.0
C452 C 0.97987 0.32826 0.54565 0.0
C453 C 0.01708 0.32322 0.55229 0.0
C454 C 0.03118 0.28604 0.55392 0.0
C455 C 0.00973 0.25507 0.54818 0.0
H456 H 0.6141 0.18295 0.4784 0.0
H457 H 0.64453 0.07784 0.4529 0.0
H458 H 0.68012 0.19117 0.48783 0.0
H459 H 0.70994 0.08515 0.46285 0.0
H460 H 0.83039 0.12365 0.46602 0.0
H461 H 0.76411 0.12184 0.45683 0.0
H462 H 0.72998 0.16907 0.50645 0.0
H463 H 0.79708 0.17241 0.51532 0.0
C464 C 0.63477 0.16132 0.47501 0.0
C465 C 0.62411 0.12983 0.46479 0.0
C466 C 0.67265 0.16599 0.48046 0.0
C467 C 0.70065 0.13912 0.47593 0.0
C468 C 0.68951 0.10702 0.4662 0.0
C469 C 0.65184 0.10258 0.46061 0.0
C470 C 0.80875 0.13404 0.4749 0.0
C471 C 0.81884 0.14784 0.49145 0.0
C472 C 0.77064 0.13266 0.46971 0.0
C473 C 0.74142 0.14437 0.48104 0.0
C474 C 0.75166 0.15984 0.49735 0.0
C475 C 0.79008 0.16178 0.50246 0.0
H476 H 0.03633 0.14104 0.68998 0.0
H477 H 0.0059 0.09839 0.74071 0.0
H478 H 0.03204 0.20556 0.7009 0.0
H479 H 0.00285 0.1635 0.7519 0.0
H480 H 0.97363 0.29052 0.76186 0.0
H481 H 0.96922 0.22524 0.75075 0.0
H482 H 0.07008 0.24374 0.71971 0.0
H483 H 0.07394 0.30809 0.73021 0.0
C484 C 0.02904 0.14543 0.70354 0.0
C485 C 0.02206 0.11453 0.71454 0.0
C486 C 0.02659 0.1825 0.70982 0.0
C487 C 0.01762 0.18977 0.72736 0.0
C488 C 0.0096 0.15892 0.7383 0.0
C489 C 0.01167 0.12163 0.73193 0.0
C490 C 0.99463 0.28061 0.75257 0.0
C491 C 0.02409 0.30471 0.74696 0.0
C492 C 0.99225 0.24317 0.7463 0.0
C493 C 0.01915 0.22931 0.73423 0.0
C494 C 0.04841 0.25355 0.7287 0.0
C495 C 0.05077 0.29059 0.73489 0.0
H496 H 0.07734 0.5562 0.9922 0.0
H497 H 0.0349 0.50882 0.94396 0.0
H498 H 0.01329 0.55169 0.00475 0.0
H499 H 0.97123 0.50368 0.95666 0.0
H500 H 0.87185 0.46758 0.99346 0.0
H501 H 0.93838 0.46693 0.98337 0.0
H502 H 0.94843 0.58594 0.99585 0.0
H503 H 0.88207 0.58689 0.00546 0.0
C504 C 0.05442 0.5447 0.98432 0.0
C505 C 0.06106 0.5332 0.96705 0.0
C506 C 0.01787 0.54209 0.9915 0.0
C507 C 0.98751 0.52715 0.98168 0.0
C508 C 0.99428 0.51494 0.96455 0.0
C509 C 0.03061 0.51825 0.95725 0.0
C510 C 0.88849 0.49341 0.99421 0.0
C511 C 0.87186 0.52732 0.00015 0.0
C512 C 0.92636 0.49309 0.98838 0.0
C513 C 0.94837 0.52641 0.98886 0.0
C514 C 0.93212 0.55986 0.99545 0.0
C515 C 0.89415 0.56041 0.00085 0.0
H516 H 0.63334 0.55325 0.22742 0.0
H517 H 0.66837 0.49179 0.18134 0.0
H518 H 0.64195 0.49599 0.24473 0.0
H519 H 0.67701 0.43456 0.19874 0.0
H520 H 0.71985 0.34869 0.24021 0.0
H521 H 0.71808 0.40835 0.22381 0.0
H522 H 0.6072 0.43337 0.2454 0.0
H523 H 0.60878 0.37425 0.26154 0.0
C524 C 0.64297 0.52758 0.22099 0.0
C525 C 0.64981 0.52697 0.20298 0.0
C526 C 0.64787 0.49481 0.23091 0.0
C527 C 0.66013 0.46085 0.22307 0.0
C528 C 0.66786 0.46043 0.20514 0.0
C529 C 0.66254 0.49311 0.19517 0.0
C530 C 0.6953 0.36715 0.24151 0.0
C531 C 0.66442 0.35679 0.2521 0.0
C532 C 0.6942 0.4011 0.23208 0.0
C533 C 0.66251 0.42548 0.23338 0.0
C534 C 0.63214 0.41537 0.24428 0.0
C535 C 0.63299 0.38137 0.25344 0.0
H536 H 0.00247 0.98151 0.38452 0.0
H537 H 0.07932 0.90313 0.35921 0.0
H538 H 0.02223 0.95826 0.41258 0.0
H539 H 0.09739 0.87746 0.38747 0.0
H540 H 0.16427 0.88638 0.43903 0.0
H541 H 0.13594 0.89502 0.41033 0.0
H542 H 0.02617 0.91557 0.43441 0.0
H543 H 0.05564 0.91008 0.46295 0.0
C544 C 0.02252 0.95814 0.38492 0.0
C545 C 0.03968 0.94447 0.36964 0.0
C546 C 0.0339 0.94455 0.40114 0.0
C547 C 0.06208 0.91622 0.40251 0.0
C548 C 0.07659 0.90012 0.38705 0.0
C549 C 0.06585 0.91442 0.3708 0.0
C550 C 0.13407 0.8926 0.43806 0.0
C551 C 0.11221 0.89823 0.45309 0.0
C552 C 0.11759 0.89718 0.4216 0.0
C553 C 0.07859 0.90646 0.41987 0.0
C554 C 0.05644 0.90969 0.43508 0.0
C555 C 0.07322 0.90631 0.45148 0.0
H556 H 0.25509 0.59765 0.614 0.0
H557 H 0.20256 0.49658 0.6346 0.0
H558 H 0.27958 0.61327 0.64286 0.0
H559 H 0.22587 0.51272 0.66342 0.0
H560 H 0.25065 0.65852 0.69834 0.0
H561 H 0.24798 0.63749 0.66814 0.0
H562 H 0.27502 0.52322 0.68414 0.0
H563 H 0.27642 0.54403 0.71437 0.0
C564 C 0.24953 0.57828 0.62459 0.0
C565 C 0.22631 0.54622 0.62204 0.0
C566 C 0.26325 0.58745 0.64118 0.0
C567 C 0.25391 0.56482 0.65558 0.0
C568 C 0.23377 0.53084 0.65268 0.0
C569 C 0.22031 0.52153 0.63608 0.0
C570 C 0.2565 0.62902 0.69539 0.0
C571 C 0.26307 0.60287 0.7088 0.0
C572 C 0.25528 0.61694 0.67803 0.0
C573 C 0.26101 0.57851 0.67367 0.0
C574 C 0.26972 0.55284 0.68703 0.0
C575 C 0.27057 0.56483 0.70438 0.0
H576 H 0.6123 0.73231 0.87369 0.0
H577 H 0.71045 0.69204 0.90226 0.0
H578 H 0.58532 0.75767 0.90061 0.0
H579 H 0.68316 0.71615 0.92906 0.0
H580 H 0.63505 0.77102 0.97571 0.0
H581 H 0.66375 0.76728 0.94695 0.0
H582 H 0.55618 0.72919 0.92557 0.0
H583 H 0.52713 0.73432 0.95429 0.0
C584 C 0.62852 0.72955 0.88563 0.0
C585 C 0.66335 0.7097 0.88584 0.0
C586 C 0.61285 0.74375 0.9011 0.0
C587 C 0.63169 0.73845 0.91709 0.0
C588 C 0.66786 0.72111 0.91703 0.0
C589 C 0.68353 0.70706 0.9016 0.0
C590 C 0.61738 0.76231 0.96483 0.0
C591 C 0.57894 0.75238 0.96734 0.0
C592 C 0.63388 0.76007 0.94832 0.0
C593 C 0.61253 0.74734 0.93394 0.0
C594 C 0.57349 0.73943 0.93629 0.0
C595 C 0.55682 0.74213 0.9528 0.0
H596 H 0.45302 0.17089 0.13108 0.0
H597 H 0.42789 0.06235 0.10737 0.0
H598 H 0.43217 0.14672 0.15915 0.0
H599 H 0.40814 0.03795 0.13547 0.0
H600 H 0.35884 0.00822 0.18825 0.0
H601 H 0.36547 0.03813 0.15983 0.0
H602 H 0.46108 0.10322 0.17924 0.0
H603 H 0.4537 0.0741 0.20771 0.0
C604 C 0.44231 0.14213 0.13177 0.0
C605 C 0.44269 0.11841 0.117 0.0
C606 C 0.43076 0.12812 0.14791 0.0
C607 C 0.41942 0.09008 0.14968 0.0
C608 C 0.4167 0.06738 0.13463 0.0
C609 C 0.42807 0.08143 0.11846 0.0
C610 C 0.38124 0.02897 0.18642 0.0
C611 C 0.40583 0.03875 0.2002 0.0
C612 C 0.38506 0.04608 0.17013 0.0
C613 C 0.41364 0.07329 0.16723 0.0
C614 C 0.4382 0.08301 0.18107 0.0
C615 C 0.43428 0.06601 0.19736 0.0
H616 H 0.19166 0.54857 0.87659 0.0
H617 H 0.12407 0.65029 0.88292 0.0
H618 H 0.21045 0.56892 0.84777 0.0
H619 H 0.14269 0.6705 0.85366 0.0
H620 H 0.22333 0.71021 0.80903 0.0
H621 H 0.20121 0.69158 0.83792 0.0
H622 H 0.18195 0.57761 0.81903 0.0
H623 H 0.20449 0.59603 0.79031 0.0
C624 C 0.18061 0.57526 0.87181 0.0
C625 C 0.15632 0.59784 0.88209 0.0
C626 C 0.19124 0.58679 0.8552 0.0
C627 C 0.17793 0.62121 0.8484 0.0
C628 C 0.15361 0.64392 0.85863 0.0
C629 C 0.14276 0.63226 0.87531 0.0
C630 C 0.21437 0.68119 0.81108 0.0
C631 C 0.21581 0.65451 0.79745 0.0
C632 C 0.20143 0.67062 0.82757 0.0
C633 C 0.18987 0.63314 0.83074 0.0
C634 C 0.19108 0.6066 0.81704 0.0
C635 C 0.20389 0.61717 0.80058 0.0
H636 H 0.58095 0.61665 0.13171 0.0
H637 H 0.54415 0.73045 0.14427 0.0
H638 H 0.55566 0.62395 0.10219 0.0
H639 H 0.51887 0.73762 0.11489 0.0
H640 H 0.45525 0.72868 0.06334 0.0
H641 H 0.4698 0.71261 0.09356 0.0
H642 H 0.57828 0.66627 0.07749 0.0
H643 H 0.56385 0.68238 0.04732 0.0
C644 C 0.56669 0.64285 0.1283 0.0
C645 C 0.56472 0.67309 0.14022 0.0
C646 C 0.55251 0.64711 0.11139 0.0
C647 C 0.53559 0.68145 0.10625 0.0
C648 C 0.53156 0.71077 0.11853 0.0
C649 C 0.54619 0.70672 0.13531 0.0
C650 C 0.48206 0.71479 0.06626 0.0
C651 C 0.50852 0.70692 0.05301 0.0
C652 C 0.49037 0.70566 0.08354 0.0
C653 C 0.52508 0.68807 0.08784 0.0
C654 C 0.55108 0.67933 0.07451 0.0
C655 C 0.54297 0.68885 0.05728 0.0
H656 H 0.42626 0.05994 0.38211 0.0
H657 H 0.54845 0.04804 0.37721 0.0
H658 H 0.4185 0.04415 0.35154 0.0
H659 H 0.54056 0.03134 0.34644 0.0
H660 H 0.5109 0.05785 0.28863 0.0
H661 H 0.5221 0.0645 0.3198 0.0
H662 H 0.42386 0.99429 0.33012 0.0
H663 H 0.41205 0.98826 0.29902 0.0
C664 C 0.4515 0.05335 0.37456 0.0
C665 C 0.48801 0.05543 0.38209 0.0
C666 C 0.447 0.04404 0.35701 0.0
C667 C 0.4789 0.03658 0.34649 0.0
C668 C 0.51543 0.03739 0.35414 0.0
C669 C 0.51994 0.04661 0.37179 0.0
C670 C 0.49174 0.04367 0.29752 0.0
C671 C 0.46034 0.02281 0.29125 0.0
C672 C 0.49839 0.04723 0.31542 0.0
C673 C 0.47384 0.03001 0.32748 0.0
C674 C 0.44302 0.00837 0.3212 0.0
C675 C 0.43632 0.00484 0.30333 0.0
H676 H 0.12885 0.99878 0.63455 0.0
H677 H 0.03737 0.06635 0.61315 0.0
H678 H 0.14951 0.9822 0.60515 0.0
H679 H 0.05702 0.04884 0.58395 0.0
H680 H 0.114 0.03349 0.53257 0.0
H681 H 0.10415 0.05574 0.5622 0.0
H682 H 0.12819 0.94323 0.58146 0.0
H683 H 0.13946 0.92128 0.55175 0.0
C684 C 0.1134 0.01038 0.62357 0.0
C685 C 0.08155 0.03395 0.62618 0.0
C686 C 0.12502 1.00062 0.60673 0.0
C687 C 0.10487 0.014 0.59215 0.0
C688 C 0.07369 0.03849 0.59482 0.0
C689 C 0.06231 0.04849 0.61161 0.0
C690 C 0.11739 0.0135 0.54313 0.0
C691 C 0.12711 0.97549 0.53979 0.0
C692 C 0.1116 0.02626 0.56014 0.0
C693 C 0.11491 0.00123 0.57424 0.0
C694 C 0.12578 0.96343 0.57094 0.0
C695 C 0.13203 0.95075 0.5539 0.0
H696 H 0.63478 0.57939 0.89703 0.0
H697 H 0.74155 0.52868 0.88115 0.0
H698 H 0.64609 0.55837 0.92683 0.0
H699 H 0.75296 0.50812 0.91091 0.0
H700 H 0.74686 0.45101 0.96382 0.0
H701 H 0.72942 0.46554 0.93385 0.0
H702 H 0.69228 0.57713 0.94994 0.0
H703 H 0.70934 0.56243 0.98 0.0
C704 C 0.66032 0.56322 0.89983 0.0
C705 C 0.68735 0.55579 0.88676 0.0
C706 C 0.66696 0.55153 0.91692 0.0
C707 C 0.70057 0.53193 0.92122 0.0
C708 C 0.72669 0.52297 0.90798 0.0
C709 C 0.72019 0.53486 0.89094 0.0
C710 C 0.7349 0.47863 0.96097 0.0
C711 C 0.72954 0.50565 0.97423 0.0
C712 C 0.725 0.48694 0.9438 0.0
C713 C 0.7094 0.52241 0.93956 0.0
C714 C 0.70373 0.54934 0.95286 0.0
C715 C 0.71379 0.54106 0.97004 0.0
H716 H 0.63021 0.08603 0.14896 0.0
H717 H 0.59915 0.20226 0.13833 0.0
H718 H 0.64352 0.10326 0.17929 0.0
H719 H 0.61186 0.21918 0.16845 0.0
H720 H 0.66325 0.24445 0.2211 0.0
H721 H 0.66193 0.22553 0.19056 0.0
H722 H 0.60272 0.12253 0.2042 0.0
H723 H 0.60443 0.141 0.23476 0.0
C724 C 0.62679 0.11529 0.15301 0.0
C725 C 0.61336 0.1427 0.1413 0.0
C726 C 0.63411 0.12509 0.17039 0.0
C727 C 0.62848 0.16253 0.17627 0.0
C728 C 0.6168 0.19019 0.16431 0.0
C729 C 0.60927 0.18038 0.14706 0.0
C730 C 0.65007 0.21768 0.21763 0.0
C731 C 0.63367 0.19441 0.23042 0.0
C732 C 0.6493 0.20688 0.20011 0.0
C733 C 0.63226 0.17253 0.19498 0.0
C734 C 0.61653 0.14892 0.20777 0.0
C735 C 0.61716 0.15975 0.22528 0.0
H736 H 0.94175 0.14989 0.37753 0.0
H737 H 0.04525 0.09068 0.39156 0.0
H738 H 0.9328 0.16855 0.4078 0.0
H739 H 0.03643 0.1098 0.42186 0.0
H740 H 0.97546 0.10552 0.47542 0.0
H741 H 0.9904 0.09237 0.44493 0.0
H742 H 0.95952 0.20722 0.43155 0.0
H743 H 0.94417 0.2202 0.46194 0.0
C744 C 0.96296 0.14142 0.38701 0.0
C745 C 0.99409 0.11864 0.38214 0.0
C746 C 0.95787 0.15222 0.40436 0.0
C747 C 0.98372 0.14033 0.41723 0.0
C748 C 0.01574 0.11889 0.41226 0.0
C749 C 0.02096 0.10826 0.39487 0.0
C750 C 0.97198 0.12794 0.46596 0.0
C751 C 0.95856 0.16382 0.47104 0.0
C752 C 0.98081 0.12053 0.44854 0.0
C753 C 0.97623 0.14882 0.43585 0.0
C754 C 0.96303 0.18477 0.44099 0.0
C755 C 0.95435 0.19221 0.45841 0.0
H756 H 0.08419 0.54367 0.65027 0.0
H757 H 0.04403 0.43261 0.63493 0.0
H758 H 0.06419 0.53127 0.68027 0.0
H759 H 0.02407 0.4204 0.66473 0.0
H760 H 0.96029 0.42712 0.71639 0.0
H761 H 0.97632 0.44449 0.68662 0.0
H762 H 0.08628 0.48497 0.70399 0.0
H763 H 0.07025 0.4675 0.73392 0.0
C764 C 0.07056 0.51692 0.65325 0.0
C765 C 0.06562 0.4891 0.64029 0.0
C766 C 0.05947 0.50971 0.67041 0.0
C767 C 0.04274 0.47483 0.6748 0.0
C768 C 0.03666 0.44762 0.66169 0.0
C769 C 0.04818 0.45459 0.64465 0.0
C770 C 0.98787 0.43978 0.71389 0.0
C771 C 0.0141 0.44587 0.72746 0.0
C772 C 0.99704 0.44965 0.69684 0.0
C773 C 0.03248 0.46613 0.69303 0.0
C774 C 0.05858 0.47269 0.70663 0.0
C775 C 0.04954 0.46244 0.7237 0.0
H776 H 0.58385 0.24733 0.41315 0.0
H777 H 0.50679 0.17066 0.38683 0.0
H778 H 0.60075 0.27562 0.38531 0.0
H779 H 0.52545 0.19648 0.3591 0.0
H780 H 0.66666 0.27172 0.33368 0.0
H781 H 0.6389 0.26005 0.36217 0.0
H782 H 0.52898 0.24067 0.33788 0.0
H783 H 0.55795 0.24926 0.30942 0.0
C784 C 0.57005 0.237 0.40142 0.0
C785 C 0.54418 0.20669 0.40217 0.0
C786 C 0.58014 0.25278 0.3854 0.0
C787 C 0.56535 0.23786 0.36974 0.0
C788 C 0.53736 0.20928 0.37072 0.0
C789 C 0.52658 0.19424 0.38674 0.0
C790 C 0.63655 0.26508 0.33454 0.0
C791 C 0.61452 0.26078 0.31943 0.0
C792 C 0.62037 0.25878 0.3509 0.0
C793 C 0.58149 0.24906 0.35251 0.0
C794 C 0.55917 0.24692 0.33728 0.0
C795 C 0.57566 0.25207 0.32093 0.0
H796 H 0.95022 0.98707 0.63794 0.0
H797 H 0.93628 0.10462 0.65267 0.0
H798 H 0.9336 0.00277 0.60803 0.0
H799 H 0.92206 0.1207 0.62283 0.0
H800 H 0.88577 0.14259 0.56812 0.0
H801 H 0.88476 0.12078 0.59816 0.0
H802 H 0.96411 0.03131 0.58473 0.0
H803 H 0.96293 0.05177 0.55457 0.0
C804 C 0.94297 0.01614 0.63487 0.0
C805 C 0.94503 0.04461 0.6477 0.0
C806 C 0.93398 0.0253 0.61764 0.0
C807 C 0.92736 0.06323 0.61278 0.0
C808 C 0.92668 0.09114 0.62592 0.0
C809 C 0.93501 0.08188 0.64316 0.0
C810 C 0.90274 0.11809 0.57162 0.0
C811 C 0.92453 0.09898 0.55902 0.0
C812 C 0.90232 0.1056 0.58888 0.0
C813 C 0.92444 0.07422 0.59405 0.0
C814 C 0.94595 0.05497 0.5813 0.0
C815 C 0.94564 0.06694 0.56398 0.0
H816 H 0.07412 0.40626 0.91161 0.0
H817 H 0.18178 0.44612 0.89142 0.0
H818 H 0.05573 0.38517 0.88252 0.0
H819 H 0.16294 0.42657 0.8624 0.0
H820 H 0.12627 0.38275 0.8109 0.0
H821 H 0.14717 0.38127 0.8411 0.0
H822 H 0.03524 0.4185 0.85747 0.0
H823 H 0.01398 0.41842 0.82731 0.0
C824 C 0.09423 0.40976 0.90105 0.0
C825 C 0.12916 0.42846 0.90382 0.0
C826 C 0.0835 0.39806 0.88432 0.0
C827 C 0.10737 0.40501 0.86998 0.0
C828 C 0.14375 0.42056 0.87306 0.0
C829 C 0.15461 0.4319 0.8898 0.0
C830 C 0.10601 0.39029 0.82097 0.0
C831 C 0.06859 0.40122 0.81667 0.0
C832 C 0.11804 0.3895 0.83831 0.0
C833 C 0.09311 0.40012 0.8518 0.0
C834 C 0.05519 0.4096 0.84752 0.0
C835 C 0.04301 0.4099 0.83017 0.0
H836 H 0.73263 0.67565 0.14289 0.0
H837 H 0.74209 0.55796 0.15751 0.0
H838 H 0.75075 0.65927 0.11319 0.0
H839 H 0.75773 0.54112 0.12776 0.0
H840 H 0.79538 0.51881 0.07285 0.0
H841 H 0.7957 0.53971 0.10316 0.0
H842 H 0.71944 0.63168 0.08984 0.0
H843 H 0.72106 0.61201 0.05958 0.0
C844 C 0.73923 0.64637 0.13981 0.0
C845 C 0.73564 0.6181 0.1525 0.0
C846 C 0.74909 0.63682 0.12271 0.0
C847 C 0.75469 0.59865 0.11783 0.0
C848 C 0.75388 0.57082 0.1309 0.0
C849 C 0.74483 0.5805 0.14806 0.0
C850 C 0.77886 0.54359 0.07645 0.0
C851 C 0.75811 0.5637 0.06384 0.0
C852 C 0.77895 0.55558 0.09385 0.0
C853 C 0.75768 0.58755 0.0991 0.0
C854 C 0.73703 0.60758 0.08637 0.0
C855 C 0.73756 0.59603 0.06897 0.0
loop_
_geom_bond_atom_site_label_1
_geom_bond_atom_site_label_2
_geom_bond_distance
_geom_bond_site_symmetry_2
_ccdc_geom_bond_type
Mg0 O7 2.141 . S
Mg0 O8 2.048 1_545 S
Mg0 O9 2.048 1_455 S
Mg0 O12 2.141 1_455 S
C1 O2 1.313 . S
C1 O8 1.195 . S
O2 C1 1.313 . S
C3 O4 1.245 . S
C3 O12 1.289 . S
O4 C3 1.245 . S
C5 O6 1.245 . S
C5 O7 1.289 1_565 S
O6 C5 1.245 . S
O7 Mg0 2.141 . S
O7 C5 1.289 1_545 S
O8 Mg0 2.048 1_565 S
O8 C1 1.195 . S
O9 Mg0 2.048 1_655 S
O9 C10 1.195 . S
C10 O9 1.195 . S
C10 O11 1.313 1_545 S
O11 C10 1.313 1_565 S
O12 Mg0 2.141 1_655 S
O12 C3 1.289 . S
Mg13 O20 2.141 . S
Mg13 O21 2.048 . S
Mg13 O22 2.048 . S
Mg13 O25 2.141 . S
C14 O15 1.313 . S
C14 O21 1.195 . S
O15 C14 1.313 . S
C16 O17 1.245 . S
C16 O25 1.289 . S
O17 C16 1.245 . S
C18 O19 1.245 . S
C18 O20 1.289 . S
O19 C18 1.245 . S
O20 Mg13 2.141 . S
O20 C18 1.289 . S
O21 Mg13 2.048 . S
O21 C14 1.195 . S
O22 Mg13 2.048 . S
O22 C23 1.195 . S
C23 O22 1.195 . S
C23 O24 1.313 . S
O24 C23 1.313 . S
O25 Mg13 2.141 . S
O25 C16 1.289 . S
Mg26 O33 2.141 . S
Mg26 O34 2.048 . S
Mg26 O35 2.048 . S
Mg26 O38 2.141 . S
C27 O28 1.313 . S
C27 O34 1.195 . S
O28 C27 1.313 . S
C29 O30 1.245 . S
C29 O38 1.289 . S
O30 C29 1.245 . S
C31 O32 1.245 . S
C31 O33 1.289 . S
O32 C31 1.245 . S
O33 Mg26 2.141 . S
O33 C31 1.289 . S
O34 Mg26 2.048 . S
O34 C27 1.195 . S
O35 Mg26 2.048 . S
O35 C36 1.195 . S
C36 O35 1.195 . S
C36 O37 1.313 . S
O37 C36 1.313 . S
O38 Mg26 2.141 . S
O38 C29 1.289 . S
Mg39 O46 2.141 . S
Mg39 O47 2.048 . S
Mg39 O48 2.048 . S
Mg39 O51 2.141 . S
C40 O41 1.313 . S
C40 O47 1.195 . S
O41 C40 1.313 . S
C42 O43 1.245 . S
C42 O51 1.289 . S
O43 C42 1.245 . S
C44 O45 1.245 . S
C44 O46 1.289 . S
O45 C44 1.245 . S
O46 Mg39 2.141 . S
O46 C44 1.289 . S
O47 Mg39 2.048 . S
O47 C40 1.195 . S
O48 Mg39 2.048 . S
O48 C49 1.195 . S
C49 O48 1.195 . S
C49 O50 1.313 . S
O50 C49 1.313 . S
O51 Mg39 2.141 . S
O51 C42 1.289 . S
Mg52 O59 2.141 . S
Mg52 O60 2.048 . S
Mg52 O61 2.048 . S
Mg52 O64 2.141 . S
C53 O54 1.313 . S
C53 O60 1.195 . S
O54 C53 1.313 . S
C55 O56 1.245 . S
C55 O64 1.289 . S
O56 C55 1.245 . S
C57 O58 1.245 . S
C57 O59 1.289 . S
O58 C57 1.245 . S
O59 Mg52 2.141 . S
O59 C57 1.289 . S
O60 Mg52 2.048 . S
O60 C53 1.195 . S
O61 Mg52 2.048 . S
O61 C62 1.195 . S
C62 O61 1.195 . S
C62 O63 1.313 . S
O63 C62 1.313 . S
O64 Mg52 2.141 . S
O64 C55 1.289 . S
Mg65 O72 2.141 . S
Mg65 O73 2.048 . S
Mg65 O74 2.048 . S
Mg65 O77 2.141 . S
C66 O67 1.313 . S
C66 O73 1.195 . S
O67 C66 1.313 . S
C68 O69 1.245 . S
C68 O77 1.289 . S
O69 C68 1.245 . S
C70 O71 1.245 . S
C70 O72 1.289 . S
O71 C70 1.245 . S
O72 Mg65 2.141 . S
O72 C70 1.289 . S
O73 Mg65 2.048 . S
O73 C66 1.195 . S
O74 Mg65 2.048 . S
O74 C75 1.195 . S
C75 O74 1.195 . S
C75 O76 1.313 . S
O76 C75 1.313 . S
O77 Mg65 2.141 . S
O77 C68 1.289 . S
Mg78 O85 2.141 . S
Mg78 O86 2.048 . S
Mg78 O87 2.048 . S
Mg78 O90 2.141 . S
C79 O80 1.313 . S
C79 O86 1.195 . S
O80 C79 1.313 . S
C81 O82 1.245 . S
C81 O90 1.289 . S
O82 C81 1.245 . S
C83 O84 1.245 . S
C83 O85 1.289 . S
O84 C83 1.245 . S
O85 Mg78 2.141 . S
O85 C83 1.289 . S
O86 Mg78 2.048 . S
O86 C79 1.195 . S
O87 Mg78 2.048 . S
O87 C88 1.195 . S
C88 O87 1.195 . S
C88 O89 1.313 . S
O89 C88 1.313 . S
O90 Mg78 2.141 . S
O90 C81 1.289 . S
Mg91 O98 2.141 . S
Mg91 O99 2.048 . S
Mg91 O100 2.048 1_465 S
Mg91 O103 2.141 1_465 S
C92 O93 1.313 . S
C92 O99 1.195 . S
O93 C92 1.313 . S
C94 O95 1.245 1_655 S
C94 O103 1.289 . S
O95 C94 1.245 1_455 S
C96 O97 1.245 . S
C96 O98 1.289 . S
O97 C96 1.245 . S
O98 Mg91 2.141 . S
O98 C96 1.289 . S
O99 Mg91 2.048 . S
O99 C92 1.195 . S
O100 Mg91 2.048 1_645 S
O100 C101 1.195 . S
C101 O100 1.195 . S
C101 O102 1.313 1_655 S
O102 C101 1.313 1_455 S
O103 Mg91 2.141 1_645 S
O103 C94 1.289 . S
Co104 O105 2.216 1_554 S
Co104 O106 2.079 1_554 S
Co104 O108 2.004 . S
Co104 O114 2.021 1_554 S
Co104 O116 2.137 . S
Co104 O117 2.244 . S
O105 Co104 2.216 1_556 S
O105 C112 1.247 . S
O106 Co104 2.079 1_556 S
O106 C112 1.269 . S
C107 O116 1.247 . S
C107 O117 1.272 . S
O108 Co104 2.004 . S
O108 C113 1.259 . S
Co109 O110 2.061 . S
Co109 O115 2.052 1_554 S
Co109 O117 2.135 . S
O110 Co109 2.061 . S
O110 C113 1.235 . S
C111 O114 1.238 . S
C111 O115 1.241 . S
C112 O105 1.247 . S
C112 O106 1.269 . S
C113 O108 1.259 . S
C113 O110 1.235 . S
O114 Co104 2.021 1_556 S
O114 C111 1.238 . S
O115 Co109 2.052 1_556 S
O115 C111 1.241 . S
O116 Co104 2.137 . S
O116 C107 1.247 . S
O117 Co104 2.244 . S
O117 C107 1.272 . S
O117 Co109 2.135 . S
Co118 O119 2.216 . S
Co118 O120 2.091 . S
Co118 O122 2.004 . S
Co118 O128 2.021 . S
Co118 O130 2.137 . S
Co118 O131 2.244 . S
O119 Co118 2.216 . S
O119 C126 1.247 . S
O120 Co118 2.091 . S
O120 C126 1.261 . S
C121 O130 1.247 . S
C121 O131 1.272 . S
O122 Co118 2.004 . S
O122 C127 1.259 . S
Co123 O124 2.061 . S
Co123 O129 2.052 . S
Co123 O131 2.135 . S
O124 Co123 2.061 . S
O124 C127 1.235 . S
C125 O128 1.238 . S
C125 O129 1.241 . S
C126 O119 1.247 . S
C126 O120 1.261 . S
C127 O122 1.259 . S
C127 O124 1.235 . S
O128 Co118 2.021 . S
O128 C125 1.238 . S
O129 Co123 2.052 . S
O129 C125 1.241 . S
O130 Co118 2.137 . S
O130 C121 1.247 . S
O131 Co118 2.244 . S
O131 C121 1.272 . S
O131 Co123 2.135 . S
Co132 O133 2.216 . S
Co132 O134 2.091 . S
Co132 O136 2.004 . S
Co132 O142 2.021 . S
Co132 O144 2.137 . S
Co132 O145 2.244 . S
O133 Co132 2.216 . S
O133 C140 1.247 . S
O134 Co132 2.091 . S
O134 C140 1.261 . S
C135 O144 1.247 . S
C135 O145 1.272 . S
O136 Co132 2.004 . S
O136 C141 1.259 . S
Co137 O138 2.061 . S
Co137 O143 2.052 . S
Co137 O145 2.135 . S
O138 Co137 2.061 . S
O138 C141 1.235 . S
C139 O142 1.238 . S
C139 O143 1.241 . S
C140 O133 1.247 . S
C140 O134 1.261 . S
C141 O136 1.259 . S
C141 O138 1.235 . S
O142 Co132 2.021 . S
O142 C139 1.238 . S
O143 Co137 2.052 . S
O143 C139 1.241 . S
O144 Co132 2.137 . S
O144 C135 1.247 . S
O145 Co132 2.244 . S
O145 C135 1.272 . S
O145 Co137 2.135 . S
Co146 O147 2.216 . S
Co146 O148 2.091 . S
Co146 O150 2.004 . S
Co146 O156 2.021 . S
Co146 O158 2.137 . S
Co146 O159 2.244 . S
O147 Co146 2.216 . S
O147 C154 1.247 . S
O148 Co146 2.091 . S
O148 C154 1.261 . S
C149 O158 1.247 . S
C149 O159 1.272 . S
O150 Co146 2.004 . S
O150 C155 1.259 . S
Co151 O152 2.061 . S
Co151 O157 2.052 . S
Co151 O159 2.135 . S
O152 Co151 2.061 . S
O152 C155 1.235 . S
C153 O156 1.238 . S
C153 O157 1.241 . S
C154 O147 1.247 . S
C154 O148 1.261 . S
C155 O150 1.259 . S
C155 O152 1.235 . S
O156 Co146 2.021 . S
O156 C153 1.238 . S
O157 Co151 2.052 . S
O157 C153 1.241 . S
O158 Co146 2.137 . S
O158 C149 1.247 . S
O159 Co146 2.244 . S
O159 C149 1.272 . S
O159 Co151 2.135 . S
Co160 O161 2.216 . S
Co160 O162 2.091 . S
Co160 O164 2.004 . S
Co160 O170 2.021 . S
Co160 O172 2.137 . S
Co160 O173 2.244 . S
O161 Co160 2.216 . S
O161 C168 1.247 . S
O162 Co160 2.091 . S
O162 C168 1.261 . S
C163 O172 1.247 . S
C163 O173 1.272 . S
O164 Co160 2.004 . S
O164 C169 1.259 . S
Co165 O166 2.061 . S
Co165 O171 2.052 . S
Co165 O173 2.135 . S
O166 Co165 2.061 . S
O166 C169 1.235 . S
C167 O170 1.238 . S
C167 O171 1.241 . S
C168 O161 1.247 . S
C168 O162 1.261 . S
C169 O164 1.259 . S
C169 O166 1.235 . S
O170 Co160 2.021 . S
O170 C167 1.238 . S
O171 Co165 2.052 . S
O171 C167 1.241 . S
O172 Co160 2.137 . S
O172 C163 1.247 . S
O173 Co160 2.244 . S
O173 C163 1.272 . S
O173 Co165 2.135 . S
Co174 O175 2.216 . S
Co174 O176 2.091 . S
Co174 O178 2.004 . S
Co174 O184 2.021 . S
Co174 O186 2.137 . S
Co174 O187 2.244 . S
O175 Co174 2.216 . S
O175 C182 1.247 . S
O176 Co174 2.091 . S
O176 C182 1.261 . S
C177 O186 1.247 . S
C177 O187 1.272 . S
O178 Co174 2.004 . S
O178 C183 1.259 . S
Co179 O180 2.061 1_455 S
Co179 O185 2.052 . S
Co179 O187 2.135 1_455 S
O180 Co179 2.061 1_655 S
O180 C183 1.235 . S
C181 O184 1.238 . S
C181 O185 1.241 1_655 S
C182 O175 1.247 . S
C182 O176 1.261 . S
C183 O178 1.259 . S
C183 O180 1.235 . S
O184 Co174 2.021 . S
O184 C181 1.238 . S
O185 Co179 2.052 . S
O185 C181 1.241 1_455 S
O186 Co174 2.137 . S
O186 C177 1.247 . S
O187 Co174 2.244 . S
O187 C177 1.272 . S
O187 Co179 2.135 1_655 S
Co188 O189 2.216 . S
Co188 O190 2.091 . S
Co188 O192 2.004 . S
Co188 O198 2.021 . S
Co188 O200 2.137 1_554 S
Co188 O201 2.244 . S
O189 Co188 2.216 . S
O189 C196 1.247 . S
O190 Co188 2.091 . S
O190 C196 1.261 . S
C191 O200 1.247 . S
C191 O201 1.272 1_556 S
O192 Co188 2.004 . S
O192 C197 1.259 . S
Co193 O194 2.061 . S
Co193 O199 2.052 . S
Co193 O201 2.135 . S
O194 Co193 2.061 . S
O194 C197 1.235 . S
C195 O198 1.238 . S
C195 O199 1.241 . S
C196 O189 1.247 . S
C196 O190 1.261 . S
C197 O192 1.259 . S
C197 O194 1.235 . S
O198 Co188 2.021 . S
O198 C195 1.238 . S
O199 Co193 2.052 . S
O199 C195 1.241 . S
O200 Co188 2.137 1_556 S
O200 C191 1.247 . S
O201 Co188 2.244 . S
O201 C191 1.272 1_554 S
O201 Co193 2.135 . S
Co202 O203 2.216 . S
Co202 O204 2.091 . S
Co202 O206 2.004 . S
Co202 O212 2.021 . S
Co202 O214 2.137 . S
Co202 O215 2.244 . S
O203 Co202 2.216 . S
O203 C210 1.247 . S
O204 Co202 2.091 . S
O204 C210 1.261 . S
C205 O214 1.247 . S
C205 O215 1.272 . S
O206 Co202 2.004 . S
O206 C211 1.259 . S
Co207 O208 2.061 . S
Co207 O213 2.052 . S
Co207 O215 2.135 . S
O208 Co207 2.061 . S
O208 C211 1.235 . S
C209 O212 1.238 . S
C209 O213 1.241 . S
C210 O203 1.247 . S
C210 O204 1.261 . S
C211 O206 1.259 . S
C211 O208 1.235 . S
O212 Co202 2.021 . S
O212 C209 1.238 . S
O213 Co207 2.052 . S
O213 C209 1.241 . S
O214 Co202 2.137 . S
O214 C205 1.247 . S
O215 Co202 2.244 . S
O215 C205 1.272 . S
O215 Co207 2.135 . S
H216 C224 0.976 . S
H217 C229 0.950 . S
H218 C226 0.950 1_545 S
H219 C228 0.950 . S
H220 C230 0.950 . S
H221 C232 0.950 . S
H222 C234 0.950 1_545 S
H223 C235 0.950 1_545 S
C224 H216 0.976 . S
C224 C225 1.363 1_545 S
C224 C226 1.388 1_545 S
C225 C224 1.363 1_565 S
C225 C229 1.393 . S
C226 H218 0.950 1_565 S
C226 C224 1.388 1_565 S
C226 C227 1.400 . S
C227 C226 1.400 . S
C227 C228 1.398 . S
C227 C233 1.491 . S
C228 H219 0.950 . S
C228 C227 1.398 . S
C228 C229 1.391 . S
C229 H217 0.950 . S
C229 C225 1.393 . S
C229 C228 1.391 . S
C230 H220 0.950 . S
C230 C231 1.386 . S
C230 C232 1.391 . S
C231 C230 1.386 . S
C231 C235 1.393 . S
C232 H221 0.950 . S
C232 C230 1.391 . S
C232 C233 1.400 . S
C233 C227 1.491 . S
C233 C232 1.400 . S
C233 C234 1.398 . S
C234 H222 0.950 1_565 S
C234 C233 1.398 . S
C234 C235 1.391 . S
C235 H223 0.950 1_565 S
C235 C231 1.393 . S
C235 C234 1.391 . S
H236 C244 0.950 . S
H237 C249 0.950 . S
H238 C246 0.950 . S
H239 C248 0.950 . S
H240 C250 0.950 . S
H241 C252 0.950 . S
H242 C254 0.950 . S
H243 C255 0.950 . S
C244 H236 0.950 . S
C244 C245 1.386 . S
C244 C246 1.391 . S
C245 C244 1.386 . S
C245 C249 1.393 . S
C246 H238 0.950 . S
C246 C244 1.391 . S
C246 C247 1.400 . S
C247 C246 1.400 . S
C247 C248 1.398 . S
C247 C253 1.491 . S
C248 H239 0.950 . S
C248 C247 1.398 . S
C248 C249 1.391 . S
C249 H237 0.950 . S
C249 C245 1.393 . S
C249 C248 1.391 . S
C250 H240 0.950 . S
C250 C251 1.386 . S
C250 C252 1.391 . S
C251 C250 1.386 . S
C251 C255 1.393 . S
C252 H241 0.950 . S
C252 C250 1.391 . S
C252 C253 1.400 . S
C253 C247 1.491 . S
C253 C252 1.400 . S
C253 C254 1.398 . S
C254 H242 0.950 . S
C254 C253 1.398 . S
C254 C255 1.391 . S
C255 H243 0.950 . S
C255 C251 1.393 . S
C255 C254 1.391 . S
H256 C264 0.950 . S
H257 C269 0.950 . S
H258 C266 0.950 . S
H259 C268 0.950 . S
H260 C270 0.950 . S
H261 C272 0.950 . S
H262 C274 0.950 . S
H263 C275 0.950 . S
C264 H256 0.950 . S
C264 C265 1.386 . S
C264 C266 1.391 . S
C265 C264 1.386 . S
C265 C269 1.393 . S
C266 H258 0.950 . S
C266 C264 1.391 . S
C266 C267 1.400 . S
C267 C266 1.400 . S
C267 C268 1.398 . S
C267 C273 1.491 . S
C268 H259 0.950 . S
C268 C267 1.398 . S
C268 C269 1.391 . S
C269 H257 0.950 . S
C269 C265 1.393 . S
C269 C268 1.391 . S
C270 H260 0.950 . S
C270 C271 1.386 . S
C270 C272 1.391 . S
C271 C270 1.386 . S
C271 C275 1.393 . S
C272 H261 0.950 . S
C272 C270 1.391 . S
C272 C273 1.400 . S
C273 C267 1.491 . S
C273 C272 1.400 . S
C273 C274 1.398 . S
C274 H262 0.950 . S
C274 C273 1.398 . S
C274 C275 1.391 . S
C275 H263 0.950 . S
C275 C271 1.393 . S
C275 C274 1.391 . S
H276 C284 0.950 . S
H277 C289 0.950 . S
H278 C286 0.950 1_565 S
H279 C288 0.950 . S
H280 C290 0.933 1_556 S
H281 C292 0.962 . S
H282 C294 0.950 . S
H283 C295 0.950 . S
C284 H276 0.950 . S
C284 C285 1.386 . S
C284 C286 1.391 . S
C285 C284 1.386 . S
C285 C289 1.393 . S
C286 H278 0.950 1_545 S
C286 C284 1.391 . S
C286 C287 1.400 . S
C287 C286 1.400 . S
C287 C288 1.398 . S
C287 C293 1.491 1_545 S
C288 H279 0.950 . S
C288 C287 1.398 . S
C288 C289 1.391 . S
C289 H277 0.950 . S
C289 C285 1.393 . S
C289 C288 1.391 . S
C290 H280 0.933 1_554 S
C290 C291 1.386 . S
C290 C292 1.391 . S
C291 C290 1.386 . S
C291 C295 1.393 . S
C292 H281 0.962 . S
C292 C290 1.391 . S
C292 C293 1.400 . S
C293 C287 1.491 1_565 S
C293 C292 1.400 . S
C293 C294 1.398 . S
C294 H282 0.950 . S
C294 C293 1.398 . S
C294 C295 1.391 . S
C295 H283 0.950 . S
C295 C291 1.393 . S
C295 C294 1.391 . S
H296 C304 0.950 . S
H297 C309 0.950 . S
H298 C306 0.950 . S
H299 C308 0.950 . S
H300 C310 0.950 . S
H301 C312 0.950 . S
H302 C314 0.950 . S
H303 C315 0.950 1_554 S
C304 H296 0.950 . S
C304 C305 1.386 . S
C304 C306 1.391 . S
C305 C304 1.386 . S
C305 C309 1.393 . S
C306 H298 0.950 . S
C306 C304 1.391 . S
C306 C307 1.400 . S
C307 C306 1.400 . S
C307 C308 1.398 . S
C307 C313 1.491 . S
C308 H299 0.950 . S
C308 C307 1.398 . S
C308 C309 1.391 . S
C309 H297 0.950 . S
C309 C305 1.393 . S
C309 C308 1.391 . S
C310 H300 0.950 . S
C310 C311 1.386 . S
C310 C312 1.391 . S
C311 C310 1.386 . S
C311 C315 1.393 . S
C312 H301 0.950 . S
C312 C310 1.391 . S
C312 C313 1.400 . S
C313 C307 1.491 . S
C313 C312 1.400 . S
C313 C314 1.398 . S
C314 H302 0.950 . S
C314 C313 1.398 . S
C314 C315 1.391 . S
C315 H303 0.950 1_556 S
C315 C311 1.393 . S
C315 C314 1.391 . S
H316 C324 0.950 . S
H317 C329 0.950 . S
H318 C326 0.950 . S
H319 C328 0.950 . S
H320 C330 0.950 . S
H321 C332 0.950 . S
H322 C334 0.950 . S
H323 C335 0.950 . S
C324 H316 0.950 . S
C324 C325 1.386 . S
C324 C326 1.391 . S
C325 C324 1.386 . S
C325 C329 1.393 . S
C326 H318 0.950 . S
C326 C324 1.391 . S
C326 C327 1.400 . S
C327 C326 1.400 . S
C327 C328 1.398 . S
C327 C333 1.491 . S
C328 H319 0.950 . S
C328 C327 1.398 . S
C328 C329 1.391 . S
C329 H317 0.950 . S
C329 C325 1.393 . S
C329 C328 1.391 . S
C330 H320 0.950 . S
C330 C331 1.386 . S
C330 C332 1.391 . S
C331 C330 1.386 . S
C331 C335 1.393 . S
C332 H321 0.950 . S
C332 C330 1.391 . S
C332 C333 1.400 . S
C333 C327 1.491 . S
C333 C332 1.400 . S
C333 C334 1.398 . S
C334 H322 0.950 . S
C334 C333 1.398 . S
C334 C335 1.391 . S
C335 H323 0.950 . S
C335 C331 1.393 . S
C335 C334 1.391 . S
H336 C344 0.950 . S
H337 C349 0.950 . S
H338 C346 0.950 . S
H339 C348 0.948 . S
H340 C350 0.950 . S
H341 C352 0.950 . S
H342 C354 0.950 1_545 S
H343 C355 0.950 . S
C344 H336 0.950 . S
C344 C345 1.386 . S
C344 C346 1.391 . S
C345 C344 1.386 . S
C345 C349 1.393 . S
C346 H338 0.950 . S
C346 C344 1.391 . S
C346 C347 1.400 . S
C347 C346 1.400 . S
C347 C348 1.398 . S
C347 C353 1.491 1_545 S
C348 H339 0.948 . S
C348 C347 1.398 . S
C348 C349 1.391 . S
C349 H337 0.950 . S
C349 C345 1.393 . S
C349 C348 1.391 . S
C350 H340 0.950 . S
C350 C351 1.386 . S
C350 C352 1.391 . S
C351 C350 1.386 . S
C351 C355 1.393 . S
C352 H341 0.950 . S
C352 C350 1.391 . S
C352 C353 1.400 . S
C353 C347 1.491 1_565 S
C353 C352 1.400 . S
C353 C354 1.398 . S
C354 H342 0.950 1_565 S
C354 C353 1.398 . S
C354 C355 1.391 . S
C355 H343 0.950 . S
C355 C351 1.393 . S
C355 C354 1.391 . S
H356 C364 0.950 . S
H357 C369 0.950 . S
H358 C366 0.950 . S
H359 C368 0.950 . S
H360 C370 0.950 . S
H361 C372 0.950 . S
H362 C374 0.950 . S
H363 C375 0.950 . S
C364 H356 0.950 . S
C364 C365 1.386 . S
C364 C366 1.391 . S
C365 C364 1.386 . S
C365 C369 1.393 . S
C366 H358 0.950 . S
C366 C364 1.391 . S
C366 C367 1.400 . S
C367 C366 1.400 . S
C367 C368 1.398 . S
C367 C373 1.491 . S
C368 H359 0.950 . S
C368 C367 1.398 . S
C368 C369 1.391 . S
C369 H357 0.950 . S
C369 C365 1.393 . S
C369 C368 1.391 . S
C370 H360 0.950 . S
C370 C371 1.386 . S
C370 C372 1.391 . S
C371 C370 1.386 . S
C371 C375 1.393 . S
C372 H361 0.950 . S
C372 C370 1.391 . S
C372 C373 1.400 . S
C373 C367 1.491 . S
C373 C372 1.400 . S
C373 C374 1.398 . S
C374 H362 0.950 . S
C374 C373 1.398 . S
C374 C375 1.391 . S
C375 H363 0.950 . S
C375 C371 1.393 . S
C375 C374 1.391 . S
H376 C384 0.950 . S
H377 C389 0.950 . S
H378 C386 0.950 . S
H379 C388 0.950 . S
H380 C390 0.950 . S
H381 C392 0.950 . S
H382 C394 0.950 . S
H383 C395 0.950 . S
C384 H376 0.950 . S
C384 C385 1.386 . S
C384 C386 1.391 . S
C385 C384 1.386 . S
C385 C389 1.393 . S
C386 H378 0.950 . S
C386 C384 1.391 . S
C386 C387 1.400 . S
C387 C386 1.400 . S
C387 C388 1.398 . S
C387 C393 1.491 . S
C388 H379 0.950 . S
C388 C387 1.398 . S
C388 C389 1.391 . S
C389 H377 0.950 . S
C389 C385 1.393 . S
C389 C388 1.391 . S
C390 H380 0.950 . S
C390 C391 1.386 . S
C390 C392 1.391 . S
C391 C390 1.386 . S
C391 C395 1.393 . S
C392 H381 0.950 . S
C392 C390 1.391 . S
C392 C393 1.400 . S
C393 C387 1.491 . S
C393 C392 1.400 . S
C393 C394 1.398 . S
C394 H382 0.950 . S
C394 C393 1.398 . S
C394 C395 1.391 . S
C395 H383 0.950 . S
C395 C391 1.393 . S
C395 C394 1.391 . S
H396 C404 0.950 . S
H397 C409 0.950 . S
H398 C406 0.950 . S
H399 C408 0.950 . S
H400 C410 0.950 . S
H401 C412 0.950 . S
H402 C414 0.950 . S
H403 C415 0.950 . S
C404 H396 0.950 . S
C404 C405 1.386 . S
C404 C406 1.391 . S
C405 C404 1.386 . S
C405 C409 1.393 . S
C406 H398 0.950 . S
C406 C404 1.391 . S
C406 C407 1.400 . S
C407 C406 1.400 . S
C407 C408 1.398 . S
C407 C413 1.491 . S
C408 H399 0.950 . S
C408 C407 1.398 . S
C408 C409 1.391 . S
C409 H397 0.950 . S
C409 C405 1.393 . S
C409 C408 1.391 . S
C410 H400 0.950 . S
C410 C411 1.386 . S
C410 C412 1.391 . S
C411 C410 1.386 . S
C411 C415 1.393 . S
C412 H401 0.950 . S
C412 C410 1.391 . S
C412 C413 1.400 . S
C413 C407 1.491 . S
C413 C412 1.400 . S
C413 C414 1.398 . S
C414 H402 0.950 . S
C414 C413 1.398 . S
C414 C415 1.391 . S
C415 H403 0.950 . S
C415 C411 1.393 . S
C415 C414 1.391 . S
H416 C424 0.950 . S
H417 C429 0.950 . S
H418 C426 0.950 . S
H419 C428 0.950 . S
H420 C430 0.950 . S
H421 C432 0.950 . S
H422 C434 0.950 . S
H423 C435 0.950 . S
C424 H416 0.950 . S
C424 C425 1.386 . S
C424 C426 1.391 . S
C425 C424 1.386 . S
C425 C429 1.393 . S
C426 H418 0.950 . S
C426 C424 1.391 . S
C426 C427 1.400 . S
C427 C426 1.400 . S
C427 C428 1.398 . S
C427 C433 1.491 . S
C428 H419 0.950 . S
C428 C427 1.398 . S
C428 C429 1.391 . S
C429 H417 0.950 . S
C429 C425 1.393 . S
C429 C428 1.391 . S
C430 H420 0.950 . S
C430 C431 1.386 . S
C430 C432 1.391 . S
C431 C430 1.386 . S
C431 C435 1.393 . S
C432 H421 0.950 . S
C432 C430 1.391 . S
C432 C433 1.400 . S
C433 C427 1.491 . S
C433 C432 1.400 . S
C433 C434 1.398 . S
C434 H422 0.950 . S
C434 C433 1.398 . S
C434 C435 1.391 . S
C435 H423 0.950 . S
C435 C431 1.393 . S
C435 C434 1.391 . S
H436 C444 0.950 . S
H437 C449 0.950 . S
H438 C446 0.950 . S
H439 C448 0.950 1_655 S
H440 C450 0.950 . S
H441 C452 0.950 . S
H442 C454 0.963 . S
H443 C455 0.950 . S
C444 H436 0.950 . S
C444 C445 1.386 . S
C444 C446 1.391 . S
C445 C444 1.386 . S
C445 C449 1.393 . S
C446 H438 0.950 . S
C446 C444 1.391 . S
C446 C447 1.400 . S
C447 C446 1.400 . S
C447 C448 1.398 . S
C447 C453 1.491 1_455 S
C448 H439 0.950 1_455 S
C448 C447 1.398 . S
C448 C449 1.391 . S
C449 H437 0.950 . S
C449 C445 1.393 . S
C449 C448 1.391 . S
C450 H440 0.950 . S
C450 C451 1.386 . S
C450 C452 1.391 . S
C451 C450 1.386 . S
C451 C455 1.393 . S
C452 H441 0.950 . S
C452 C450 1.391 . S
C452 C453 1.400 . S
C453 C447 1.491 1_655 S
C453 C452 1.400 . S
C453 C454 1.397 1_655 S
C454 H442 0.963 . S
C454 C453 1.397 1_455 S
C454 C455 1.380 1_455 S
C455 H443 0.950 . S
C455 C451 1.393 . S
C455 C454 1.380 1_655 S
H456 C464 0.950 . S
H457 C469 0.950 . S
H458 C466 0.950 . S
H459 C468 0.950 . S
H460 C470 0.950 . S
H461 C472 0.950 . S
H462 C474 0.950 . S
H463 C475 0.950 . S
C464 H456 0.950 . S
C464 C465 1.386 . S
C464 C466 1.391 . S
C465 C464 1.386 . S
C465 C469 1.393 . S
C466 H458 0.950 . S
C466 C464 1.391 . S
C466 C467 1.400 . S
C467 C466 1.400 . S
C467 C468 1.398 . S
C467 C473 1.491 . S
C468 H459 0.950 . S
C468 C467 1.398 . S
C468 C469 1.391 . S
C469 H457 0.950 . S
C469 C465 1.393 . S
C469 C468 1.391 . S
C470 H460 0.950 . S
C470 C471 1.386 . S
C470 C472 1.391 . S
C471 C470 1.386 . S
C471 C475 1.393 . S
C472 H461 0.950 . S
C472 C470 1.391 . S
C472 C473 1.400 . S
C473 C467 1.491 . S
C473 C472 1.400 . S
C473 C474 1.398 . S
C474 H462 0.950 . S
C474 C473 1.398 . S
C474 C475 1.391 . S
C475 H463 0.950 . S
C475 C471 1.393 . S
C475 C474 1.391 . S
H476 C484 0.950 . S
H477 C489 0.950 . S
H478 C486 0.950 . S
H479 C488 0.950 1_455 S
H480 C490 0.953 . S
H481 C492 0.950 1_455 S
H482 C494 0.950 . S
H483 C495 0.950 . S
C484 H476 0.950 . S
C484 C485 1.386 . S
C484 C486 1.391 . S
C485 C484 1.386 . S
C485 C489 1.393 1_655 S
C486 H478 0.950 . S
C486 C484 1.391 . S
C486 C487 1.400 . S
C487 C486 1.400 . S
C487 C488 1.398 . S
C487 C493 1.491 . S
C488 H479 0.950 1_655 S
C488 C487 1.398 . S
C488 C489 1.391 1_655 S
C489 H477 0.950 . S
C489 C485 1.393 1_455 S
C489 C488 1.391 1_455 S
C490 H480 0.953 . S
C490 C491 1.386 . S
C490 C492 1.391 . S
C491 C490 1.386 . S
C491 C495 1.393 . S
C492 H481 0.950 1_655 S
C492 C490 1.391 . S
C492 C493 1.400 . S
C493 C487 1.491 . S
C493 C492 1.400 . S
C493 C494 1.398 . S
C494 H482 0.950 . S
C494 C493 1.398 . S
C494 C495 1.391 . S
C495 H483 0.950 . S
C495 C491 1.393 . S
C495 C494 1.391 . S
H496 C504 0.950 . S
H497 C509 0.950 . S
H498 C506 0.950 . S
H499 C508 0.950 . S
H500 C510 0.950 . S
H501 C512 0.950 . S
H502 C514 0.950 1_455 S
H503 C515 0.950 . S
C504 H496 0.950 . S
C504 C505 1.386 . S
C504 C506 1.391 . S
C505 C504 1.386 . S
C505 C509 1.393 . S
C506 H498 0.950 . S
C506 C504 1.391 . S
C506 C507 1.400 . S
C507 C506 1.400 . S
C507 C508 1.398 . S
C507 C513 1.491 1_455 S
C508 H499 0.950 . S
C508 C507 1.398 . S
C508 C509 1.391 . S
C509 H497 0.950 . S
C509 C505 1.393 . S
C509 C508 1.391 . S
C510 H500 0.950 . S
C510 C511 1.386 1_556 S
C510 C512 1.391 . S
C511 C510 1.386 1_554 S
C511 C515 1.393 . S
C512 H501 0.950 . S
C512 C510 1.391 . S
C512 C513 1.400 . S
C513 C507 1.491 1_655 S
C513 C512 1.400 . S
C513 C514 1.398 1_556 S
C514 H502 0.950 1_655 S
C514 C513 1.398 1_554 S
C514 C515 1.391 . S
C515 H503 0.950 . S
C515 C511 1.393 . S
C515 C514 1.391 . S
H516 C524 0.950 . S
H517 C529 0.950 . S
H518 C526 0.950 . S
H519 C528 0.950 . S
H520 C530 0.950 . S
H521 C532 0.950 . S
H522 C534 0.950 . S
H523 C535 0.950 . S
C524 H516 0.950 . S
C524 C525 1.386 . S
C524 C526 1.391 . S
C525 C524 1.386 . S
C525 C529 1.393 . S
C526 H518 0.950 . S
C526 C524 1.391 . S
C526 C527 1.400 . S
C527 C526 1.400 . S
C527 C528 1.398 . S
C527 C533 1.491 . S
C528 H519 0.950 . S
C528 C527 1.398 . S
C528 C529 1.391 . S
C529 H517 0.950 . S
C529 C525 1.393 . S
C529 C528 1.391 . S
C530 H520 0.950 . S
C530 C531 1.386 . S
C530 C532 1.391 . S
C531 C530 1.386 . S
C531 C535 1.393 . S
C532 H521 0.950 . S
C532 C530 1.391 . S
C532 C533 1.400 . S
C533 C527 1.491 . S
C533 C532 1.400 . S
C533 C534 1.398 . S
C534 H522 0.950 . S
C534 C533 1.398 . S
C534 C535 1.391 . S
C535 H523 0.950 . S
C535 C531 1.393 . S
C535 C534 1.391 . S
H536 C544 0.950 . S
H537 C549 0.950 . S
H538 C546 0.950 . S
H539 C548 0.950 . S
H540 C550 0.950 . S
H541 C552 0.950 . S
H542 C554 0.950 . S
H543 C555 0.950 . S
C544 H536 0.950 . S
C544 C545 1.386 . S
C544 C546 1.391 . S
C545 C544 1.386 . S
C545 C549 1.393 . S
C546 H538 0.950 . S
C546 C544 1.391 . S
C546 C547 1.400 . S
C547 C546 1.400 . S
C547 C548 1.398 . S
C547 C553 1.491 . S
C548 H539 0.950 . S
C548 C547 1.398 . S
C548 C549 1.391 . S
C549 H537 0.950 . S
C549 C545 1.393 . S
C549 C548 1.391 . S
C550 H540 0.950 . S
C550 C551 1.386 . S
C550 C552 1.391 . S
C551 C550 1.386 . S
C551 C555 1.393 . S
C552 H541 0.950 . S
C552 C550 1.391 . S
C552 C553 1.400 . S
C553 C547 1.491 . S
C553 C552 1.400 . S
C553 C554 1.398 . S
C554 H542 0.950 . S
C554 C553 1.398 . S
C554 C555 1.391 . S
C555 H543 0.950 . S
C555 C551 1.393 . S
C555 C554 1.391 . S
H556 C564 0.950 . S
H557 C569 0.950 . S
H558 C566 0.950 . S
H559 C568 0.950 . S
H560 C570 0.950 . S
H561 C572 0.950 . S
H562 C574 0.950 . S
H563 C575 0.950 . S
C564 H556 0.950 . S
C564 C565 1.386 . S
C564 C566 1.391 . S
C565 C564 1.386 . S
C565 C569 1.393 . S
C566 H558 0.950 . S
C566 C564 1.391 . S
C566 C567 1.400 . S
C567 C566 1.400 . S
C567 C568 1.398 . S
C567 C573 1.491 . S
C568 H559 0.950 . S
C568 C567 1.398 . S
C568 C569 1.391 . S
C569 H557 0.950 . S
C569 C565 1.393 . S
C569 C568 1.391 . S
C570 H560 0.950 . S
C570 C571 1.386 . S
C570 C572 1.391 . S
C571 C570 1.386 . S
C571 C575 1.393 . S
C572 H561 0.950 . S
C572 C570 1.391 . S
C572 C573 1.400 . S
C573 C567 1.491 . S
C573 C572 1.400 . S
C573 C574 1.398 . S
C574 H562 0.950 . S
C574 C573 1.398 . S
C574 C575 1.391 . S
C575 H563 0.950 . S
C575 C571 1.393 . S
C575 C574 1.391 . S
H576 C584 0.950 . S
H577 C589 0.950 . S
H578 C586 0.950 . S
H579 C588 0.950 . S
H580 C590 0.950 . S
H581 C592 0.950 . S
H582 C594 0.950 . S
H583 C595 0.950 . S
C584 H576 0.950 . S
C584 C585 1.386 . S
C584 C586 1.391 . S
C585 C584 1.386 . S
C585 C589 1.393 . S
C586 H578 0.950 . S
C586 C584 1.391 . S
C586 C587 1.400 . S
C587 C586 1.400 . S
C587 C588 1.398 . S
C587 C593 1.491 . S
C588 H579 0.950 . S
C588 C587 1.398 . S
C588 C589 1.391 . S
C589 H577 0.950 . S
C589 C585 1.393 . S
C589 C588 1.391 . S
C590 H580 0.950 . S
C590 C591 1.386 . S
C590 C592 1.391 . S
C591 C590 1.386 . S
C591 C595 1.393 . S
C592 H581 0.950 . S
C592 C590 1.391 . S
C592 C593 1.400 . S
C593 C587 1.491 . S
C593 C592 1.400 . S
C593 C594 1.398 . S
C594 H582 0.950 . S
C594 C593 1.398 . S
C594 C595 1.391 . S
C595 H583 0.950 . S
C595 C591 1.393 . S
C595 C594 1.391 . S
H596 C604 0.950 . S
H597 C609 0.950 . S
H598 C606 0.950 . S
H599 C608 0.950 . S
H600 C610 0.950 . S
H601 C612 0.950 . S
H602 C614 0.950 . S
H603 C615 0.950 . S
C604 H596 0.950 . S
C604 C605 1.386 . S
C604 C606 1.391 . S
C605 C604 1.386 . S
C605 C609 1.393 . S
C606 H598 0.950 . S
C606 C604 1.391 . S
C606 C607 1.400 . S
C607 C606 1.400 . S
C607 C608 1.398 . S
C607 C613 1.491 . S
C608 H599 0.950 . S
C608 C607 1.398 . S
C608 C609 1.391 . S
C609 H597 0.950 . S
C609 C605 1.393 . S
C609 C608 1.391 . S
C610 H600 0.950 . S
C610 C611 1.386 . S
C610 C612 1.391 . S
C611 C610 1.386 . S
C611 C615 1.393 1_565 S
C612 H601 0.950 . S
C612 C610 1.391 . S
C612 C613 1.400 1_565 S
C613 C607 1.491 . S
C613 C612 1.400 1_545 S
C613 C614 1.398 . S
C614 H602 0.950 . S
C614 C613 1.398 . S
C614 C615 1.391 . S
C615 H603 0.950 . S
C615 C611 1.393 1_545 S
C615 C614 1.391 . S
H616 C624 0.950 . S
H617 C629 0.950 . S
H618 C626 0.950 . S
H619 C628 0.950 . S
H620 C630 0.950 . S
H621 C632 0.950 . S
H622 C634 0.950 . S
H623 C635 0.950 . S
C624 H616 0.950 . S
C624 C625 1.386 . S
C624 C626 1.391 . S
C625 C624 1.386 . S
C625 C629 1.393 . S
C626 H618 0.950 . S
C626 C624 1.391 . S
C626 C627 1.400 . S
C627 C626 1.400 . S
C627 C628 1.398 . S
C627 C633 1.491 . S
C628 H619 0.950 . S
C628 C627 1.398 . S
C628 C629 1.391 . S
C629 H617 0.950 . S
C629 C625 1.393 . S
C629 C628 1.391 . S
C630 H620 0.950 . S
C630 C631 1.386 . S
C630 C632 1.391 . S
C631 C630 1.386 . S
C631 C635 1.393 . S
C632 H621 0.950 . S
C632 C630 1.391 . S
C632 C633 1.400 . S
C633 C627 1.491 . S
C633 C632 1.400 . S
C633 C634 1.398 . S
C634 H622 0.950 . S
C634 C633 1.398 . S
C634 C635 1.391 . S
C635 H623 0.950 . S
C635 C631 1.393 . S
C635 C634 1.391 . S
H636 C644 0.950 . S
H637 C649 0.950 . S
H638 C646 0.950 . S
H639 C648 0.950 . S
H640 C650 0.950 . S
H641 C652 0.950 . S
H642 C654 0.950 . S
H643 C655 0.950 . S
C644 H636 0.950 . S
C644 C645 1.386 . S
C644 C646 1.391 . S
C645 C644 1.386 . S
C645 C649 1.393 . S
C646 H638 0.950 . S
C646 C644 1.391 . S
C646 C647 1.400 . S
C647 C646 1.400 . S
C647 C648 1.398 . S
C647 C653 1.491 . S
C648 H639 0.950 . S
C648 C647 1.398 . S
C648 C649 1.391 . S
C649 H637 0.950 . S
C649 C645 1.393 . S
C649 C648 1.391 . S
C650 H640 0.950 . S
C650 C651 1.386 . S
C650 C652 1.391 . S
C651 C650 1.386 . S
C651 C655 1.393 . S
C652 H641 0.950 . S
C652 C650 1.391 . S
C652 C653 1.400 . S
C653 C647 1.491 . S
C653 C652 1.400 . S
C653 C654 1.398 . S
C654 H642 0.950 . S
C654 C653 1.398 . S
C654 C655 1.391 . S
C655 H643 0.950 . S
C655 C651 1.393 . S
C655 C654 1.391 . S
H656 C664 0.950 . S
H657 C669 0.950 . S
H658 C666 0.950 . S
H659 C668 0.950 . S
H660 C670 0.950 . S
H661 C672 0.950 . S
H662 C674 0.950 . S
H663 C675 0.950 . S
C664 H656 0.950 . S
C664 C665 1.386 . S
C664 C666 1.391 . S
C665 C664 1.386 . S
C665 C669 1.393 . S
C666 H658 0.950 . S
C666 C664 1.391 . S
C666 C667 1.400 . S
C667 C666 1.400 . S
C667 C668 1.398 . S
C667 C673 1.491 . S
C668 H659 0.950 . S
C668 C667 1.398 . S
C668 C669 1.391 . S
C669 H657 0.950 . S
C669 C665 1.393 . S
C669 C668 1.391 . S
C670 H660 0.950 . S
C670 C671 1.386 . S
C670 C672 1.391 . S
C671 C670 1.386 . S
C671 C675 1.393 1_565 S
C672 H661 0.950 . S
C672 C670 1.391 . S
C672 C673 1.400 1_565 S
C673 C667 1.491 . S
C673 C672 1.400 1_545 S
C673 C674 1.398 . S
C674 H662 0.950 . S
C674 C673 1.398 . S
C674 C675 1.391 . S
C675 H663 0.950 . S
C675 C671 1.393 1_545 S
C675 C674 1.391 . S
H676 C684 0.950 . S
H677 C689 0.950 . S
H678 C686 0.950 . S
H679 C688 0.950 . S
H680 C690 0.950 . S
H681 C692 0.950 . S
H682 C694 0.950 . S
H683 C695 0.950 . S
C684 H676 0.950 . S
C684 C685 1.386 . S
C684 C686 1.391 . S
C685 C684 1.386 . S
C685 C689 1.393 . S
C686 H678 0.950 . S
C686 C684 1.391 . S
C686 C687 1.400 . S
C687 C686 1.400 . S
C687 C688 1.398 . S
C687 C693 1.491 . S
C688 H679 0.950 . S
C688 C687 1.398 . S
C688 C689 1.391 . S
C689 H677 0.950 . S
C689 C685 1.393 . S
C689 C688 1.391 . S
C690 H680 0.950 . S
C690 C691 1.386 . S
C690 C692 1.391 . S
C691 C690 1.386 . S
C691 C695 1.393 . S
C692 H681 0.950 . S
C692 C690 1.391 . S
C692 C693 1.400 . S
C693 C687 1.491 . S
C693 C692 1.400 . S
C693 C694 1.398 . S
C694 H682 0.950 . S
C694 C693 1.398 . S
C694 C695 1.391 . S
C695 H683 0.950 . S
C695 C691 1.393 . S
C695 C694 1.391 . S
H696 C704 0.950 . S
H697 C709 0.950 . S
H698 C706 0.950 . S
H699 C708 0.950 . S
H700 C710 0.950 . S
H701 C712 0.950 . S
H702 C714 0.950 . S
H703 C715 0.950 . S
C704 H696 0.950 . S
C704 C705 1.386 . S
C704 C706 1.391 . S
C705 C704 1.386 . S
C705 C709 1.393 . S
C706 H698 0.950 . S
C706 C704 1.391 . S
C706 C707 1.400 . S
C707 C706 1.400 . S
C707 C708 1.398 . S
C707 C713 1.491 . S
C708 H699 0.950 . S
C708 C707 1.398 . S
C708 C709 1.391 . S
C709 H697 0.950 . S
C709 C705 1.393 . S
C709 C708 1.391 . S
C710 H700 0.950 . S
C710 C711 1.386 . S
C710 C712 1.391 . S
C711 C710 1.386 . S
C711 C715 1.393 . S
C712 H701 0.950 . S
C712 C710 1.391 . S
C712 C713 1.400 . S
C713 C707 1.491 . S
C713 C712 1.400 . S
C713 C714 1.398 . S
C714 H702 0.950 . S
C714 C713 1.398 . S
C714 C715 1.391 . S
C715 H703 0.950 . S
C715 C711 1.393 . S
C715 C714 1.391 . S
H716 C724 0.950 . S
H717 C729 0.950 . S
H718 C726 0.950 . S
H719 C728 0.950 . S
H720 C730 0.950 . S
H721 C732 0.950 . S
H722 C734 0.950 . S
H723 C735 0.950 . S
C724 H716 0.950 . S
C724 C725 1.386 . S
C724 C726 1.391 . S
C725 C724 1.386 . S
C725 C729 1.393 . S
C726 H718 0.950 . S
C726 C724 1.391 . S
C726 C727 1.400 . S
C727 C726 1.400 . S
C727 C728 1.398 . S
C727 C733 1.491 . S
C728 H719 0.950 . S
C728 C727 1.398 . S
C728 C729 1.391 . S
C729 H717 0.950 . S
C729 C725 1.393 . S
C729 C728 1.391 . S
C730 H720 0.950 . S
C730 C731 1.386 . S
C730 C732 1.391 . S
C731 C730 1.386 . S
C731 C735 1.393 . S
C732 H721 0.950 . S
C732 C730 1.391 . S
C732 C733 1.400 . S
C733 C727 1.491 . S
C733 C732 1.400 . S
C733 C734 1.398 . S
C734 H722 0.950 . S
C734 C733 1.398 . S
C734 C735 1.391 . S
C735 H723 0.950 . S
C735 C731 1.393 . S
C735 C734 1.391 . S
H736 C744 0.950 . S
H737 C749 0.950 . S
H738 C746 0.950 . S
H739 C748 0.950 . S
H740 C750 0.950 . S
H741 C752 0.950 . S
H742 C754 0.950 . S
H743 C755 0.950 . S
C744 H736 0.950 . S
C744 C745 1.386 . S
C744 C746 1.391 . S
C745 C744 1.386 . S
C745 C749 1.393 . S
C746 H738 0.950 . S
C746 C744 1.391 . S
C746 C747 1.400 . S
C747 C746 1.400 . S
C747 C748 1.398 . S
C747 C753 1.491 . S
C748 H739 0.950 . S
C748 C747 1.398 . S
C748 C749 1.391 . S
C749 H737 0.950 . S
C749 C745 1.393 . S
C749 C748 1.391 . S
C750 H740 0.950 . S
C750 C751 1.386 . S
C750 C752 1.391 . S
C751 C750 1.386 . S
C751 C755 1.393 . S
C752 H741 0.950 . S
C752 C750 1.391 . S
C752 C753 1.400 . S
C753 C747 1.491 . S
C753 C752 1.400 . S
C753 C754 1.398 . S
C754 H742 0.950 . S
C754 C753 1.398 . S
C754 C755 1.391 . S
C755 H743 0.950 . S
C755 C751 1.393 . S
C755 C754 1.391 . S
H756 C764 0.950 . S
H757 C769 0.950 . S
H758 C766 0.950 . S
H759 C768 0.950 . S
H760 C770 0.950 . S
H761 C772 0.950 . S
H762 C774 0.950 . S
H763 C775 0.950 . S
C764 H756 0.950 . S
C764 C765 1.386 . S
C764 C766 1.391 . S
C765 C764 1.386 . S
C765 C769 1.393 . S
C766 H758 0.950 . S
C766 C764 1.391 . S
C766 C767 1.400 . S
C767 C766 1.400 . S
C767 C768 1.398 . S
C767 C773 1.491 . S
C768 H759 0.950 . S
C768 C767 1.398 . S
C768 C769 1.391 . S
C769 H757 0.950 . S
C769 C765 1.393 . S
C769 C768 1.391 . S
C770 H760 0.950 . S
C770 C771 1.386 . S
C770 C772 1.391 1_655 S
C771 C770 1.386 . S
C771 C775 1.393 1_655 S
C772 H761 0.950 . S
C772 C770 1.391 1_455 S
C772 C773 1.400 . S
C773 C767 1.491 . S
C773 C772 1.400 . S
C773 C774 1.398 . S
C774 H762 0.950 . S
C774 C773 1.398 . S
C774 C775 1.391 . S
C775 H763 0.950 . S
C775 C771 1.393 1_455 S
C775 C774 1.391 . S
H776 C784 0.950 . S
H777 C789 0.950 . S
H778 C786 0.950 . S
H779 C788 0.950 . S
H780 C790 0.950 . S
H781 C792 0.950 . S
H782 C794 0.950 . S
H783 C795 0.950 . S
C784 H776 0.950 . S
C784 C785 1.386 . S
C784 C786 1.391 . S
C785 C784 1.386 . S
C785 C789 1.393 . S
C786 H778 0.950 . S
C786 C784 1.391 . S
C786 C787 1.400 . S
C787 C786 1.400 . S
C787 C788 1.398 . S
C787 C793 1.491 . S
C788 H779 0.950 . S
C788 C787 1.398 . S
C788 C789 1.391 . S
C789 H777 0.950 . S
C789 C785 1.393 . S
C789 C788 1.391 . S
C790 H780 0.950 . S
C790 C791 1.386 . S
C790 C792 1.391 . S
C791 C790 1.386 . S
C791 C795 1.393 . S
C792 H781 0.950 . S
C792 C790 1.391 . S
C792 C793 1.400 . S
C793 C787 1.491 . S
C793 C792 1.400 . S
C793 C794 1.398 . S
C794 H782 0.950 . S
C794 C793 1.398 . S
C794 C795 1.391 . S
C795 H783 0.950 . S
C795 C791 1.393 . S
C795 C794 1.391 . S
H796 C804 0.950 . S
H797 C809 0.950 . S
H798 C806 0.950 . S
H799 C808 0.950 . S
H800 C810 0.950 . S
H801 C812 0.950 . S
H802 C814 0.950 . S
H803 C815 0.950 . S
C804 H796 0.950 . S
C804 C805 1.386 . S
C804 C806 1.391 . S
C805 C804 1.386 . S
C805 C809 1.393 . S
C806 H798 0.950 . S
C806 C804 1.391 . S
C806 C807 1.400 . S
C807 C806 1.400 . S
C807 C808 1.398 . S
C807 C813 1.491 . S
C808 H799 0.950 . S
C808 C807 1.398 . S
C808 C809 1.391 . S
C809 H797 0.950 . S
C809 C805 1.393 . S
C809 C808 1.391 . S
C810 H800 0.950 . S
C810 C811 1.386 . S
C810 C812 1.391 . S
C811 C810 1.386 . S
C811 C815 1.393 . S
C812 H801 0.950 . S
C812 C810 1.391 . S
C812 C813 1.400 . S
C813 C807 1.491 . S
C813 C812 1.400 . S
C813 C814 1.398 . S
C814 H802 0.950 . S
C814 C813 1.398 . S
C814 C815 1.391 . S
C815 H803 0.950 . S
C815 C811 1.393 . S
C815 C814 1.391 . S
H816 C824 0.950 . S
H817 C829 0.950 . S
H818 C826 0.950 . S
H819 C828 0.950 . S
H820 C830 0.950 . S
H821 C832 0.950 . S
H822 C834 0.950 1_655 S
H823 C835 0.950 . S
C824 H816 0.950 . S
C824 C825 1.386 . S
C824 C826 1.391 . S
C825 C824 1.386 . S
C825 C829 1.393 . S
C826 H818 0.950 . S
C826 C824 1.391 . S
C826 C827 1.400 . S
C827 C826 1.400 . S
C827 C828 1.398 . S
C827 C833 1.491 . S
C828 H819 0.950 . S
C828 C827 1.398 . S
C828 C829 1.391 . S
C829 H817 0.950 . S
C829 C825 1.393 . S
C829 C828 1.391 . S
C830 H820 0.950 . S
C830 C831 1.388 . S
C830 C832 1.391 . S
C831 C830 1.388 . S
C831 C835 1.392 1_455 S
C832 H821 0.950 . S
C832 C830 1.391 . S
C832 C833 1.400 . S
C833 C827 1.491 . S
C833 C832 1.400 . S
C833 C834 1.398 . S
C834 H822 0.950 1_455 S
C834 C833 1.398 . S
C834 C835 1.391 1_455 S
C835 H823 0.950 . S
C835 C831 1.392 1_655 S
C835 C834 1.391 1_655 S
H836 C844 0.950 . S
H837 C849 0.950 . S
H838 C846 0.950 . S
H839 C848 0.950 . S
H840 C850 0.950 . S
H841 C852 0.950 . S
H842 C854 0.950 . S
H843 C855 0.950 . S
C844 H836 0.950 . S
C844 C845 1.386 . S
C844 C846 1.391 . S
C845 C844 1.386 . S
C845 C849 1.393 . S
C846 H838 0.950 . S
C846 C844 1.391 . S
C846 C847 1.400 . S
C847 C846 1.400 . S
C847 C848 1.398 . S
C847 C853 1.491 . S
C848 H839 0.950 . S
C848 C847 1.398 . S
C848 C849 1.391 . S
C849 H837 0.950 . S
C849 C845 1.393 . S
C849 C848 1.391 . S
C850 H840 0.950 . S
C850 C851 1.386 . S
C850 C852 1.391 . S
C851 C850 1.386 . S
C851 C855 1.393 . S
C852 H841 0.950 . S
C852 C850 1.391 . S
C852 C853 1.400 . S
C853 C847 1.491 . S
C853 C852 1.400 . S
C853 C854 1.398 . S
C854 H842 0.950 . S
C854 C853 1.398 . S
C854 C855 1.391 . S
C855 H843 0.950 . S
C855 C851 1.393 . S
C855 C854 1.391 . S
C231 C126 1.264 . S
C225 C5 1.254 . S
C251 C140 1.283 . S
C245 C18 1.274 . S
C271 C155 1.258 . S
C265 C31 1.268 . S
C285 C42 1.200 . S
C291 C113 1.207 . S
C305 C57 1.412 . S
C311 C112 1.452 . S
C325 C70 1.425 . S
C331 C127 1.421 . S
C351 C141 1.431 . S
C345 C81 1.476 . S
C371 C154 1.460 . S
C365 C96 1.435 . S
C385 C29 1.444 . S
C391 C182 1.441 . S
C411 C196 1.458 . S
C405 C44 1.423 . S
C425 C3 1.460 . S
C431 C211 1.408 . S
C451 C168 1.455 . S
C445 C16 1.450 . S
C465 C83 1.256 . S
C471 C169 1.234 . S
C485 C94 1.229 . S
C491 C183 1.221 . S
C511 C197 1.262 . S
C505 C55 1.206 . S
C525 C68 1.221 . S
C531 C210 1.298 . S
C551 C135 1.365 . S
C545 C1 1.374 . S
C571 C153 1.338 . S
C565 C14 1.382 . S
C585 C27 1.362 . S
C591 C111 1.343 . S
C605 C49 1.368 . S
C611 C121 1.355 . S
C625 C53 1.623 . S
C631 C149 1.705 . S
C651 C107 1.709 . S
C645 C66 1.623 . S
C671 C125 1.682 . S
C665 C88 1.693 . S
C691 C139 1.690 . S
C685 C92 1.635 . S
C711 C191 1.702 . S
C705 C36 1.702 . S
C731 C209 1.659 . S
C725 C40 1.628 . S
C745 C10 1.701 . S
C751 C163 1.711 . S
C771 C177 1.703 . S
C765 C23 1.700 . S
C791 C205 1.365 . S
C785 C79 1.379 . S
C805 C101 1.366 . S
C811 C167 1.335 . S
C831 C181 1.350 1_455 S
C825 C62 1.353 . S
C851 C195 1.358 . S
C845 C75 1.385 . S
