# Generated by pormake.
# Topology wbl, (4,4)-cn, num edge types: 1
# Building blocks:
#     Node 0, Type 0, BuildingBlock: MUDLON_clean_sbu_0, # of connection points: 4
#     Node 1, Type 0, BuildingBlock: MUDLON_clean_sbu_0, # of connection points: 4
#     Node 2, Type 0, BuildingBlock: MUDLON_clean_sbu_0, # of connection points: 4
#     Node 3, Type 0, BuildingBlock: MUDLON_clean_sbu_0, # of connection points: 4
#     Node 4, Type 0, BuildingBlock: MUDLON_clean_sbu_0, # of connection points: 4
#     Node 5, Type 0, BuildingBlock: MUDLON_clean_sbu_0, # of connection points: 4
#     Node 6, Type 0, BuildingBlock: MUDLON_clean_sbu_0, # of connection points: 4
#     Node 7, Type 0, BuildingBlock: MUDLON_clean_sbu_0, # of connection points: 4
#     Node 8, Type 1, BuildingBlock: NAHDIM_clean_sbu_0, # of connection points: 4
#     Node 9, Type 1, BuildingBlock: NAHDIM_clean_sbu_0, # of connection points: 4
#     Node 10, Type 1, BuildingBlock: NAHDIM_clean_sbu_0, # of connection points: 4
#     Node 11, Type 1, BuildingBlock: NAHDIM_clean_sbu_0, # of connection points: 4
#     Node 12, Type 1, BuildingBlock: NAHDIM_clean_sbu_0, # of connection points: 4
#     Node 13, Type 1, BuildingBlock: NAHDIM_clean_sbu_0, # of connection points: 4
#     Node 14, Type 1, BuildingBlock: NAHDIM_clean_sbu_0, # of connection points: 4
#     Node 15, Type 1, BuildingBlock: NAHDIM_clean_sbu_0, # of connection points: 4
#     Edge 16, Type (0, 1), BuildingBlock: ZUJKAS_clean_linker_0, # of connection points: 2
#     Edge 17, Type (0, 1), BuildingBlock: ZUJKAS_clean_linker_0, # of connection points: 2
#     Edge 18, Type (0, 1), BuildingBlock: ZUJKAS_clean_linker_0, # of connection points: 2
#     Edge 19, Type (0, 1), BuildingBlock: ZUJKAS_clean_linker_0, # of connection points: 2
#     Edge 20, Type (0, 1), BuildingBlock: ZUJKAS_clean_linker_0, # of connection points: 2
#     Edge 21, Type (0, 1), BuildingBlock: ZUJKAS_clean_linker_0, # of connection points: 2
#     Edge 22, Type (0, 1), BuildingBlock: ZUJKAS_clean_linker_0, # of connection points: 2
#     Edge 23, Type (0, 1), BuildingBlock: ZUJKAS_clean_linker_0, # of connection points: 2
#     Edge 24, Type (0, 1), BuildingBlock: ZUJKAS_clean_linker_0, # of connection points: 2
#     Edge 25, Type (0, 1), BuildingBlock: ZUJKAS_clean_linker_0, # of connection points: 2
#     Edge 26, Type (0, 1), BuildingBlock: ZUJKAS_clean_linker_0, # of connection points: 2
#     Edge 27, Type (0, 1), BuildingBlock: ZUJKAS_clean_linker_0, # of connection points: 2
#     Edge 28, Type (0, 1), BuildingBlock: ZUJKAS_clean_linker_0, # of connection points: 2
#     Edge 29, Type (0, 1), BuildingBlock: ZUJKAS_clean_linker_0, # of connection points: 2
#     Edge 30, Type (0, 1), BuildingBlock: ZUJKAS_clean_linker_0, # of connection points: 2
#     Edge 31, Type (0, 1), BuildingBlock: ZUJKAS_clean_linker_0, # of connection points: 2
#     Edge 32, Type (0, 1), BuildingBlock: ZUJKAS_clean_linker_0, # of connection points: 2
#     Edge 33, Type (0, 1), BuildingBlock: ZUJKAS_clean_linker_0, # of connection points: 2
#     Edge 34, Type (0, 1), BuildingBlock: ZUJKAS_clean_linker_0, # of connection points: 2
#     Edge 35, Type (0, 1), BuildingBlock: ZUJKAS_clean_linker_0, # of connection points: 2
#     Edge 36, Type (0, 1), BuildingBlock: ZUJKAS_clean_linker_0, # of connection points: 2
#     Edge 37, Type (0, 1), BuildingBlock: ZUJKAS_clean_linker_0, # of connection points: 2
#     Edge 38, Type (0, 1), BuildingBlock: ZUJKAS_clean_linker_0, # of connection points: 2
#     Edge 39, Type (0, 1), BuildingBlock: ZUJKAS_clean_linker_0, # of connection points: 2
#     Edge 40, Type (0, 1), BuildingBlock: ZUJKAS_clean_linker_0, # of connection points: 2
#     Edge 41, Type (0, 1), BuildingBlock: ZUJKAS_clean_linker_0, # of connection points: 2
#     Edge 42, Type (0, 1), BuildingBlock: ZUJKAS_clean_linker_0, # of connection points: 2
#     Edge 43, Type (0, 1), BuildingBlock: ZUJKAS_clean_linker_0, # of connection points: 2
#     Edge 44, Type (0, 1), BuildingBlock: ZUJKAS_clean_linker_0, # of connection points: 2
#     Edge 45, Type (0, 1), BuildingBlock: ZUJKAS_clean_linker_0, # of connection points: 2
#     Edge 46, Type (0, 1), BuildingBlock: ZUJKAS_clean_linker_0, # of connection points: 2
#     Edge 47, Type (0, 1), BuildingBlock: ZUJKAS_clean_linker_0, # of connection points: 2
# Relax obj value: 0.235
# Max RMSD: 0.228
# Mean RMSD: 0.181
data_MOF--net-wbl--node1-MUDLON_clean_sbu_0--node2-NAHDIM_clean_sbu_0--edge1-ZUJKAS_clean_linker_0
_symmetry_space_group_name_H-M    P1
_symmetry_Int_Tables_number       1
_symmetry_cell_setting            triclinic
loop_
_symmetry_equiv_pos_as_xyz
'x, y, z'
_cell_length_a     46.919922
_cell_length_b     45.243904
_cell_length_c     97.075625
_cell_angle_alpha  89.985841
_cell_angle_beta   90.01389
_cell_angle_gamma 89.99635
loop_
_atom_site_label
_atom_site_type_symbol
_atom_site_fract_x
_atom_site_fract_y
_atom_site_fract_z
_atom_type_partial_charge
Mg0 Mg 0.00591 0.01078 0.33378 0.0
C1 C 0.99237 0.96215 0.35487 0.0
O2 O 0.96627 0.97248 0.35406 0.0
C3 C 0.94372 0.02198 0.33101 0.0
O4 O 0.94846 0.03137 0.34361 0.0
C5 C 0.04251 0.98351 0.3128 0.0
O6 O 0.02442 0.96231 0.31584 0.0
O7 O 0.03961 0.00848 0.31863 0.0
O8 O 0.01165 0.97303 0.34721 0.0
O9 O 0.00815 0.04934 0.34698 0.0
C10 C 0.02019 0.04707 0.35866 0.0
O11 O 0.03434 0.0228 0.36156 0.0
O12 O 0.96429 0.01114 0.32414 0.0
Mg13 Mg 0.96221 0.52181 0.59694 0.0
C14 C 0.99189 0.49023 0.61985 0.0
O15 O 0.96795 0.47519 0.61939 0.0
C16 C 0.97041 0.46504 0.58113 0.0
O17 O 0.99606 0.46738 0.58646 0.0
C18 C 0.99211 0.5561 0.57504 0.0
O19 O -0.00014 0.5291 0.57177 0.0
O20 O 0.97539 0.55994 0.58518 0.0
O21 O 0.99624 0.51029 0.61093 0.0
O22 O 0.92705 0.53117 0.61069 0.0
C23 C 0.90776 0.51178 0.61229 0.0
O24 O 0.9075 0.48871 0.60407 0.0
O25 O 0.95205 0.48495 0.58365 0.0
Mg26 Mg 0.49178 0.46954 0.84596 0.0
C27 C 0.52581 0.50423 0.86637 0.0
O28 O 0.54022 0.47933 0.86644 0.0
C29 C 0.5455 0.46677 0.82871 0.0
O30 O 0.54518 0.49542 0.83092 0.0
C31 C 0.4597 0.50333 0.82457 0.0
O32 O 0.48496 0.5156 0.82339 0.0
O33 O 0.4562 0.48261 0.83324 0.0
O34 O 0.50572 0.5074 0.85771 0.0
O35 O 0.47917 0.43893 0.86197 0.0
C36 C 0.49676 0.41915 0.86571 0.0
O37 O 0.52008 0.41529 0.85843 0.0
O38 O 0.52574 0.45086 0.8337 0.0
Mg39 Mg 0.48598 0.01266 0.08169 0.0
C40 C 0.5048 0.98165 0.10707 0.0
O41 O 0.47908 0.97075 0.10544 0.0
C42 C 0.48586 0.95165 0.06927 0.0
O43 O 0.50787 0.94892 0.07754 0.0
C44 C 0.52813 0.04533 0.06397 0.0
O45 O 0.53996 0.01901 0.06379 0.0
O46 O 0.50485 0.04894 0.07045 0.0
O47 O 0.51503 -0.00175 0.09771 0.0
O48 O 0.45054 0.02737 0.09416 0.0
C49 C 0.42971 0.00997 0.09615 0.0
O50 O 0.4267 0.98713 0.08791 0.0
O51 O 0.47313 0.97638 0.06853 0.0
Mg52 Mg 0.00864 0.49852 0.91625 0.0
C53 C 0.02055 0.559 0.90355 0.0
O54 O 0.03469 0.56324 0.91506 0.0
C55 C 0.94726 0.49272 0.92281 0.0
O56 O 0.94684 0.49226 0.90928 0.0
C57 C 0.04741 0.51666 0.93944 0.0
O58 O 0.02364 0.52893 0.94374 0.0
O59 O 0.04717 0.50178 0.92834 0.0
O60 O 0.00671 0.53512 0.90193 0.0
O61 O 0.0088 0.45957 0.90335 0.0
C62 C 0.02083 0.4611 0.89164 0.0
O63 O 0.03515 0.48511 0.88845 0.0
O64 O 0.97094 0.49618 0.92894 0.0
Mg65 Mg 0.51898 0.50361 0.1782 0.0
C66 C 0.49574 0.48476 0.15098 0.0
O67 O 0.52138 0.47316 0.15049 0.0
C68 C 0.51731 0.43881 0.18575 0.0
O69 O 0.501 0.43798 0.17476 0.0
C70 C 0.47992 0.53978 0.19589 0.0
O71 O 0.46327 0.51701 0.19347 0.0
O72 O 0.50509 0.53976 0.19107 0.0
O73 O 0.48768 0.49742 0.16201 0.0
O74 O 0.55657 0.51579 0.16663 0.0
C75 C 0.57622 0.49699 0.16461 0.0
O76 O 0.57585 0.47222 0.17168 0.0
O77 O 0.52698 0.46353 0.18984 0.0
Mg78 Mg 0.48874 0.01044 0.42586 0.0
C79 C 0.48857 0.06877 0.40993 0.0
O80 O 0.50528 0.07765 0.41996 0.0
C81 C 0.46042 0.98154 0.44956 0.0
O82 O 0.48649 0.97115 0.45064 0.0
C83 C 0.52463 0.04392 0.44594 0.0
O84 O 0.49953 0.05552 0.44855 0.0
O85 O 0.52663 0.02372 0.4369 0.0
O86 O 0.47703 0.04343 0.41069 0.0
O87 O 0.49609 0.9721 0.41308 0.0
C88 C 0.50945 0.97635 0.40186 0.0
O89 O 0.52153 0.00217 0.39977 0.0
O90 O 0.45483 -0.00015 0.44001 0.0
Mg91 Mg 0.99307 0.98631 0.65744 0.0
C92 C 0.02161 0.01871 0.63429 0.0
O93 O 0.99665 0.03188 0.63418 0.0
C94 C 0.99286 0.04597 0.67174 0.0
O95 O 0.01431 0.05086 0.66336 0.0
C96 C 0.03239 0.94685 0.673 0.0
O97 O 0.049 0.96979 0.6709 0.0
O98 O 0.00695 0.94753 0.66852 0.0
O99 O 0.02687 -0.00018 0.64365 0.0
O100 O 0.95819 0.97638 0.6436 0.0
C101 C 0.93818 0.99505 0.64216 0.0
O102 O 0.93739 0.0181 0.65038 0.0
O103 O 0.98069 0.0209 0.67163 0.0
C104 C 0.32018 0.59223 0.99611 0.0
O105 O 0.33862 0.57122 -0.00108 0.0
O106 O 0.3762 0.60373 0.02053 0.0
Zn107 Zn 0.36824 0.62676 0.00318 0.0
O108 O 0.39479 0.61411 0.98805 0.0
C109 C 0.36929 0.68013 0.01901 0.0
O110 O 0.35863 0.66246 0.02843 0.0
O111 O 0.32794 0.61903 0.99723 0.0
C112 C 0.42023 0.62362 0.98723 0.0
O113 O 0.42961 0.64228 0.99656 0.0
C114 C 0.39267 0.58147 0.02116 0.0
O115 O 0.40544 0.57216 0.00993 0.0
O116 O 0.37437 0.66995 0.00706 0.0
C117 C 0.30513 0.89579 0.25038 0.0
O118 O 0.31422 0.90396 0.23816 0.0
O119 O 0.37395 0.90067 0.23758 0.0
Zn120 Zn 0.36283 0.87379 0.2533 0.0
O121 O 0.38695 0.88233 0.26998 0.0
C122 C 0.3913 0.81805 0.25054 0.0
O123 O 0.41165 0.83295 0.25671 0.0
O124 O 0.32191 0.88192 0.25839 0.0
C125 C 0.38244 0.86728 0.28083 0.0
O126 O 0.36221 0.84719 0.28072 0.0
C127 C 0.3908 0.89291 0.228 0.0
O128 O 0.40271 0.86666 0.22848 0.0
O129 O 0.36787 0.83097 0.24785 0.0
C130 C 0.20729 0.86292 0.50594 0.0
O131 O 0.1984 0.86432 0.51876 0.0
O132 O 0.1392 0.88693 0.51541 0.0
Zn133 Zn 0.14756 0.85684 0.50079 0.0
O134 O 0.12475 0.8659 0.48372 0.0
C135 C 0.11011 0.81435 0.51141 0.0
O136 O 0.09289 0.83693 0.50959 0.0
O137 O 0.18924 0.85867 0.49638 0.0
C138 C 0.1153 0.8455 0.47596 0.0
O139 O 0.12075 0.81779 0.47904 0.0
C140 C 0.13591 0.91435 0.51308 0.0
O141 O 0.13754 0.92422 0.50038 0.0
O142 O 0.13624 0.81715 0.50823 0.0
C143 C 0.20525 0.60077 0.75768 0.0
O144 O 0.18656 0.57967 0.75551 0.0
O145 O 0.14342 0.60536 0.73722 0.0
Zn146 Zn 0.1565 0.63496 0.75137 0.0
O147 O 0.13303 0.632 0.76861 0.0
C148 C 0.12517 0.68119 0.74002 0.0
O149 O 0.10542 0.66115 0.74226 0.0
O150 O 0.19751 0.62752 0.75628 0.0
C151 C 0.13535 0.65221 0.77763 0.0
O152 O 0.1529 0.6743 0.77536 0.0
C153 C 0.12748 0.58336 0.73985 0.0
O154 O 0.11896 0.57877 0.75256 0.0
O155 O 0.15078 0.67533 0.74329 0.0
C156 C 0.78986 0.14298 0.50217 0.0
O157 O 0.79768 0.13394 0.51446 0.0
O158 O 0.857 0.12858 0.51541 0.0
Zn159 Zn 0.84953 0.15697 0.49991 0.0
O160 O 0.87479 0.14758 0.4838 0.0
C161 C 0.88515 0.20195 0.50979 0.0
O162 O 0.90348 0.18029 0.50812 0.0
O163 O 0.80832 0.15437 0.49419 0.0
C164 C 0.87485 0.16485 0.47348 0.0
O165 O 0.85801 0.18806 0.47355 0.0
C166 C 0.85807 0.10067 0.51408 0.0
O167 O 0.85505 0.08887 0.5018 0.0
O168 O 0.85917 0.19758 0.50671 0.0
C169 C 0.7851 0.34984 0.75556 0.0
O170 O 0.7889 0.35666 0.74254 0.0
O171 O 0.84889 0.36849 0.73921 0.0
Zn172 Zn 0.84583 0.3395 0.7548 0.0
O173 O 0.87324 0.35006 0.76991 0.0
C174 C 0.88227 0.29462 0.74541 0.0
O175 O 0.90062 0.31572 0.74823 0.0
O176 O 0.80619 0.3408 0.76262 0.0
C177 C 0.87564 0.33238 0.78002 0.0
O178 O 0.86015 0.30819 0.78019 0.0
C179 C 0.84823 0.39635 0.74079 0.0
O180 O 0.84622 0.40741 0.75327 0.0
O181 O 0.85592 0.29929 0.74752 0.0
C182 C 0.69164 0.40873 0.99398 0.0
O183 O 0.66891 0.42558 0.99308 0.0
O184 O 0.64882 0.39564 0.02721 0.0
Zn185 Zn 0.65255 0.37379 0.00928 0.0
O186 O 0.62102 0.38479 0.99624 0.0
C187 C 0.65262 0.31883 0.02461 0.0
O188 O 0.65845 0.33628 0.03505 0.0
O189 O 0.69002 0.38449 0.00056 0.0
C190 C 0.59644 0.37304 0.99679 0.0
O191 O 0.5908 0.35392 0.00661 0.0
C192 C 0.63917 0.42177 0.02832 0.0
O193 O 0.63039 0.43578 0.01725 0.0
O194 O 0.65013 0.3299 0.01263 0.0
C195 C 0.67042 0.08299 0.27047 0.0
O196 O 0.64819 0.06667 0.27363 0.0
O197 O 0.61884 0.08238 0.24028 0.0
Zn198 Zn 0.62753 0.11187 0.25517 0.0
O199 O 0.60011 0.10928 0.27108 0.0
C200 C 0.59837 0.15966 0.24359 0.0
O201 O 0.57775 0.14037 0.24537 0.0
O202 O 0.66713 0.10472 0.26232 0.0
C203 C 0.60089 0.13063 0.27958 0.0
O204 O 0.61903 0.15227 0.27745 0.0
C205 C 0.59698 0.06583 0.23986 0.0
O206 O 0.57849 0.06669 0.25001 0.0
O207 O 0.62359 0.15248 0.247 0.0
H208 H 0.08402 0.02202 0.30425 0.0
H209 H 0.12694 0.01029 0.29098 0.0
H210 H 0.10035 0.9192 0.28832 0.0
H211 H 0.05726 0.9308 0.30122 0.0
H212 H 0.1686 0.97318 0.29868 0.0
H213 H 0.12384 0.93495 0.24908 0.0
H214 H 0.10288 0.95483 0.26162 0.0
H215 H 0.10857 0.91566 0.26343 0.0
C216 C 0.0871 -0.0004 0.30063 0.0
C217 C 0.06723 0.97734 0.30379 0.0
C218 C 0.11162 0.99293 0.29306 0.0
C219 C 0.11666 0.96395 0.28848 0.0
C220 C 0.09659 0.94186 0.29142 0.0
H221 H 0.27866 0.88019 0.2744 0.0
H222 H 0.2327 0.89762 0.28301 0.0
C223 C 0.07203 0.94851 0.29891 0.0
C224 C 0.14395 0.95617 0.28171 0.0
H225 H 0.17225 0.92066 0.25385 0.0
C226 C 0.16941 0.96202 0.28879 0.0
C227 C 0.14504 0.94193 0.26874 0.0
C228 C 0.11862 0.93676 0.26021 0.0
C229 C 0.19585 0.95308 0.2835 0.0
C230 C 0.19676 0.93723 0.27095 0.0
C231 C 0.17144 0.93237 0.2636 0.0
C232 C 0.22383 0.92539 0.26536 0.0
C233 C 0.22253 0.96082 0.2914 0.0
C234 C 0.23348 0.93421 0.25232 0.0
C235 C 0.2596 0.924 0.24728 0.0
C236 C 0.2765 0.90476 0.25522 0.0
C237 C 0.2663 0.89522 0.26809 0.0
C238 C 0.24013 0.90531 0.27307 0.0
H239 H 0.21904 0.98 0.29835 0.0
H240 H 0.22889 0.94169 0.29787 0.0
H241 H 0.24041 0.96609 0.28432 0.0
H242 H 0.2211 0.94952 0.24616 0.0
H243 H 0.2668 0.93172 0.23731 0.0
H244 H 0.02661 0.55537 0.55236 0.0
H245 H 0.04836 0.59774 0.54073 0.0
H246 H 0.00661 0.65691 0.56908 0.0
H247 H 0.9848 0.61476 0.58082 0.0
H248 H 0.02058 0.64828 0.52838 0.0
H249 H 0.09292 0.67837 0.57148 0.0
H250 H 0.07594 0.64264 0.57021 0.0
H251 H 0.0561 0.67408 0.57618 0.0
C252 C 0.02199 0.57739 0.55611 0.0
C253 C 0.0041 0.58171 0.56756 0.0
C254 C 0.03443 0.60153 0.54945 0.0
C255 C 0.02938 0.63031 0.5542 0.0
C256 C 0.01109 0.63477 0.56543 0.0
H257 H 0.05483 0.80033 0.51708 0.0
H258 H 0.03646 0.75423 0.5267 0.0
C259 C -0.00146 0.61068 0.57206 0.0
C260 C 0.04313 0.65577 0.54738 0.0
H261 H 0.08941 0.71268 0.55301 0.0
C262 C 0.03576 0.66229 0.53371 0.0
C263 C 0.0632 0.67366 0.55434 0.0
C264 C 0.07277 0.66678 0.56883 0.0
C265 C 0.0473 0.68692 0.52694 0.0
C266 C 0.06647 0.70551 0.53409 0.0
C267 C 0.07453 0.69844 0.54761 0.0
C268 C 0.07768 0.73297 0.52789 0.0
C269 C 0.03893 0.6929 0.51219 0.0
C270 C 0.10701 0.73637 0.5256 0.0
C271 C 0.11763 0.76273 0.52011 0.0
C272 C 0.09906 0.7862 0.51698 0.0
C273 C 0.06969 0.78268 0.51935 0.0
C274 C 0.05912 0.7563 0.52477 0.0
H275 H 0.02996 0.6729 0.50715 0.0
H276 H 0.02242 0.71046 0.51196 0.0
H277 H 0.05751 0.7007 0.50611 0.0
H278 H 0.12166 0.71861 0.52804 0.0
H279 H 0.14036 0.7648 0.51844 0.0
H280 H 0.40409 0.48569 0.82598 0.0
H281 H 0.36366 0.50522 0.81296 0.0
H282 H 0.41956 0.56557 0.79172 0.0
H283 H 0.46027 0.54614 0.80466 0.0
H284 H 0.3458 0.56651 0.8125 0.0
H285 H 0.37374 0.52259 0.76065 0.0
H286 H 0.38874 0.5077 0.77632 0.0
H287 H 0.40121 0.5424 0.76971 0.0
C288 C 0.40787 0.50298 0.81848 0.0
C289 C 0.4354 0.51435 0.81634 0.0
C290 C 0.38474 0.51413 0.81108 0.0
C291 C 0.38874 0.53663 0.80134 0.0
C292 C 0.41616 0.54793 0.79909 0.0
H293 H 0.24707 0.63864 0.76649 0.0
H294 H 0.29353 0.62543 0.77628 0.0
C295 C 0.43934 0.53686 0.80652 0.0
C296 C 0.36392 0.54879 0.79389 0.0
H297 H 0.33234 0.55203 0.76225 0.0
C298 C 0.3429 0.56357 0.8015 0.0
C299 C 0.3603 0.54472 0.77956 0.0
C300 C 0.38204 0.52833 0.77103 0.0
C301 C 0.31802 0.57408 0.79517 0.0
C302 C 0.3143 0.56987 0.78085 0.0
C303 C 0.33548 0.5554 0.7732 0.0
C304 C 0.28751 0.5783 0.77389 0.0
C305 C 0.29545 0.58868 0.80391 0.0
C306 C 0.26924 0.55619 0.76898 0.0
C307 C 0.24279 0.5636 0.76341 0.0
C308 C 0.2342 0.59332 0.76258 0.0
C309 C 0.25303 0.61554 0.76704 0.0
C310 C 0.2795 0.60806 0.77267 0.0
H311 H 0.29952 0.58571 0.8151 0.0
H312 H 0.29508 0.61273 0.80167 0.0
H313 H 0.27406 0.5796 0.80145 0.0
H314 H 0.27513 0.5331 0.76983 0.0
H315 H 0.22887 0.54597 0.75999 0.0
H316 H 0.44315 0.95017 0.05006 0.0
H317 H 0.42205 0.90646 0.03928 0.0
H318 H 0.48079 0.85062 0.06145 0.0
H319 H 0.50248 0.89414 0.07198 0.0
H320 H 0.47463 0.83346 0.03479 0.0
H321 H 0.36864 0.85019 0.05904 0.0
H322 H 0.38072 0.88077 0.04881 0.0
H323 H 0.39977 0.87079 0.0642 0.0
C324 C 0.45169 0.92858 0.05257 0.0
C325 C 0.47436 0.92559 0.06196 0.0
C326 C 0.43948 0.90363 0.04647 0.0
C327 C 0.44946 0.87527 0.04979 0.0
C328 C 0.47266 0.87231 0.0588 0.0
H329 H 0.36913 0.70567 0.04448 0.0
H330 H 0.38758 0.75423 0.05084 0.0
C331 C 0.48504 0.89722 0.06482 0.0
C332 C 0.4356 0.84852 0.04408 0.0
H333 H 0.37286 0.81031 0.04348 0.0
C334 C 0.45235 0.82842 0.03662 0.0
C335 C 0.40661 0.8419 0.04665 0.0
C336 C 0.3879 0.86188 0.05522 0.0
C337 C 0.441 0.80167 0.0318 0.0
C338 C 0.41191 0.79522 0.03421 0.0
C339 C 0.39508 0.81547 0.04153 0.0
C340 C 0.39904 0.76669 0.03004 0.0
C341 C 0.46057 0.78009 0.02465 0.0
C342 C 0.39867 0.7579 0.01617 0.0
C343 C 0.38834 0.73 0.01251 0.0
C344 C 0.37787 0.7106 0.02264 0.0
C345 C 0.37711 0.72003 0.03643 0.0
C346 C 0.38763 0.7478 0.04009 0.0
H347 H 0.48338 0.78515 0.02664 0.0
H348 H 0.45624 0.75708 0.02804 0.0
H349 H 0.45699 0.78133 0.01336 0.0
H350 H 0.40673 0.77244 0.00821 0.0
H351 H 0.38897 0.7235 0.00178 0.0
H352 H 0.10039 0.49648 0.93253 0.0
H353 H 0.14573 0.50861 0.94355 0.0
H354 H 0.10161 0.56215 0.97347 0.0
H355 H 0.05605 0.54994 0.9626 0.0
H356 H 0.16794 0.56588 0.94656 0.0
H357 H 0.15455 0.51001 0.99713 0.0
H358 H 0.13261 0.50145 0.98237 0.0
H359 H 0.12593 0.53427 0.99227 0.0
C360 C 0.10025 0.51056 0.94155 0.0
C361 C 0.0746 0.52224 0.9467 0.0
C362 C 0.12619 0.5175 0.94781 0.0
C363 C 0.12696 0.53605 0.95937 0.0
C364 C 0.1014 0.54739 0.96468 0.0
H365 H 0.27729 0.63011 0.9887 0.0
H366 H 0.22976 0.61718 0.98021 0.0
C367 C 0.07541 0.54048 0.95842 0.0
C368 C 0.1547 0.54475 0.96537 0.0
H369 H 0.19518 0.54069 0.99453 0.0
C370 C 0.17393 0.56039 0.95704 0.0
C371 C 0.16243 0.53734 0.97902 0.0
C372 C 0.14295 0.51963 0.98822 0.0
C373 C 0.20075 0.56893 0.96202 0.0
C374 C 0.20831 0.56197 0.97574 0.0
C375 C 0.18915 0.5462 0.98405 0.0
C376 C 0.2365 0.56995 0.98145 0.0
C377 C 0.22102 0.58476 0.95246 0.0
C378 C 0.25568 0.54766 0.98529 0.0
C379 C 0.28277 0.55493 0.99017 0.0
C380 C 0.29112 0.58468 0.99137 0.0
C381 C 0.27158 0.60699 0.98781 0.0
C382 C 0.24447 0.59967 0.98292 0.0
H383 H 0.21452 0.58256 0.9415 0.0
H384 H 0.22132 0.60863 0.95507 0.0
H385 H 0.24302 0.57607 0.95362 0.0
H386 H 0.24984 0.52459 0.98427 0.0
H387 H 0.29725 0.53721 0.99288 0.0
H388 H 0.50728 0.59217 0.20038 0.0
H389 H 0.48784 0.63688 0.21089 0.0
H390 H 0.40807 0.59222 0.21813 0.0
H391 H 0.42731 0.54721 0.20762 0.0
H392 H 0.43638 0.66669 0.20107 0.0
H393 H 0.43044 0.63136 0.25596 0.0
H394 H 0.45338 0.6133 0.24361 0.0
H395 H 0.41569 0.60678 0.24324 0.0
C396 C 0.48569 0.59169 0.20432 0.0
C397 C 0.46883 0.56612 0.20315 0.0
C398 C 0.47462 0.61728 0.2103 0.0
C399 C 0.44662 0.61772 0.21532 0.0
C400 C 0.42985 0.59215 0.21443 0.0
H401 H 0.35682 0.78272 0.23474 0.0
H402 H 0.36712 0.73263 0.22648 0.0
C403 C 0.44087 0.56652 0.20839 0.0
C404 C 0.43475 0.64549 0.2209 0.0
H405 H 0.41412 0.67937 0.25068 0.0
C406 C 0.43127 0.66946 0.21189 0.0
C407 C 0.42826 0.64888 0.23502 0.0
C408 C 0.43223 0.62385 0.2451 0.0
C409 C 0.42189 0.69702 0.21668 0.0
C410 C 0.41564 0.70053 0.23083 0.0
C411 C 0.41873 0.67643 0.23982 0.0
C412 C 0.40809 0.7297 0.23661 0.0
C413 C 0.41969 0.72247 0.20668 0.0
C414 C 0.42742 0.7442 0.24529 0.0
C415 C 0.42167 0.77272 0.25 0.0
C416 C 0.39636 0.7872 0.24617 0.0
C417 C 0.37656 0.77221 0.23782 0.0
C418 C 0.38241 0.74366 0.23307 0.0
H419 H 0.42977 0.71732 0.19661 0.0
H420 H 0.39689 0.72765 0.20484 0.0
H421 H 0.42995 0.74254 0.21102 0.0
H422 H 0.44734 0.73372 0.24814 0.0
H423 H 0.43729 0.78355 0.25648 0.0
H424 H 0.40407 0.9968 0.44934 0.0
H425 H 0.36556 0.97453 0.46268 0.0
H426 H 0.42604 0.91797 0.48329 0.0
H427 H 0.46477 0.93989 0.46986 0.0
H428 H 0.38019 0.88758 0.47249 0.0
H429 H 0.34313 0.98336 0.50309 0.0
H430 H 0.34548 0.99156 0.48503 0.0
H431 H 0.37731 0.98273 0.49453 0.0
C432 C 0.40928 0.97991 0.45684 0.0
C433 C 0.43748 0.97007 0.45852 0.0
C434 C 0.38725 0.96734 0.46452 0.0
C435 C 0.39302 0.94489 0.4741 0.0
C436 C 0.4212 0.9354 0.476 0.0
H437 H 0.25013 0.87913 0.52353 0.0
H438 H 0.29825 0.89536 0.51739 0.0
C439 C 0.44328 0.94798 0.46833 0.0
C440 C 0.36929 0.92985 0.48127 0.0
H441 H 0.31006 0.94305 0.50065 0.0
C442 C 0.36508 0.89958 0.47884 0.0
C443 C 0.3499 0.94542 0.48971 0.0
C444 C 0.35431 0.9775 0.49337 0.0
C445 C 0.34106 0.88484 0.484 0.0
C446 C 0.32059 0.90096 0.4916 0.0
C447 C 0.32564 0.9308 0.49469 0.0
C448 C 0.2928 0.88802 0.49552 0.0
C449 C 0.33759 0.85229 0.4811 0.0
C450 C 0.27394 0.87832 0.48527 0.0
C451 C 0.24649 0.86906 0.48872 0.0
C452 C 0.23732 0.86954 0.5025 0.0
C453 C 0.25655 0.87845 0.51281 0.0
C454 C 0.28403 0.88776 0.50934 0.0
H455 H 0.35851 0.8415 0.47922 0.0
H456 H 0.3268 0.84083 0.48977 0.0
H457 H 0.32442 0.84942 0.4717 0.0
H458 H 0.28007 0.87893 0.47451 0.0
H459 H 0.2322 0.86239 0.48053 0.0
H460 H 0.08618 0.93756 0.68296 0.0
H461 H 0.10459 0.89304 0.69419 0.0
H462 H 0.02197 0.852 0.69064 0.0
H463 H 0.00344 0.89616 0.67925 0.0
H464 H 0.08625 0.86525 0.71841 0.0
H465 H 0.07548 0.79106 0.67323 0.0
H466 H 0.0736 0.8308 0.67182 0.0
H467 H 0.04314 0.81008 0.67759 0.0
C468 C 0.07192 0.91904 0.68454 0.0
C469 C 0.04339 0.92031 0.68013 0.0
C470 C 0.08249 0.89366 0.69097 0.0
C471 C 0.06476 0.86911 0.69302 0.0
C472 C 0.03615 0.87051 0.68887 0.0
H473 H 0.07286 0.69859 0.73092 0.0
H474 H 0.06016 0.74512 0.71977 0.0
C475 C 0.02557 0.89583 0.68244 0.0
C476 C 0.076 0.8421 0.69967 0.0
H477 H 0.08471 0.76795 0.69484 0.0
C478 C 0.0862 0.844 0.71324 0.0
C479 C 0.07601 0.8145 0.69284 0.0
C480 C 0.06674 0.81144 0.67802 0.0
C481 C 0.09543 0.81873 0.72035 0.0
C482 C 0.0947 0.79104 0.71362 0.0
C483 C 0.08509 0.78926 0.69996 0.0
C484 C 0.10272 0.76337 0.72072 0.0
C485 C 0.105 0.82162 0.73512 0.0
C486 C 0.13092 0.75825 0.72489 0.0
C487 C 0.13831 0.73161 0.73127 0.0
C488 C 0.11757 0.70968 0.73354 0.0
C489 C 0.08934 0.71501 0.72935 0.0
C490 C 0.08203 0.74156 0.72297 0.0
H491 H 0.09921 0.84343 0.73958 0.0
H492 H 0.09542 0.80393 0.74156 0.0
H493 H 0.12851 0.81923 0.73564 0.0
H494 H 0.14726 0.7747 0.72305 0.0
H495 H 0.16025 0.72813 0.73434 0.0
H496 H 0.55472 0.40789 0.82431 0.0
H497 H 0.59414 0.38502 0.81178 0.0
H498 H 0.62814 0.47126 0.8024 0.0
H499 H 0.58908 0.49438 0.81513 0.0
H500 H 0.61068 0.39041 0.78463 0.0
H501 H 0.69595 0.42919 0.81984 0.0
H502 H 0.65864 0.43114 0.82425 0.0
H503 H 0.67425 0.45852 0.81313 0.0
C504 C 0.57059 0.42203 0.8196 0.0
C505 C 0.56889 0.45297 0.8208 0.0
C506 C 0.59306 0.4089 0.81242 0.0
C507 C 0.61427 0.42643 0.80636 0.0
C508 C 0.61231 0.45732 0.80727 0.0
H509 H 0.73902 0.37884 0.74487 0.0
H510 H 0.69619 0.39463 0.75712 0.0
C511 C 0.5899 0.47049 0.81449 0.0
C512 C 0.63841 0.41236 0.79905 0.0
H513 H 0.71094 0.40758 0.79873 0.0
C514 C 0.63262 0.39401 0.78773 0.0
C515 C 0.66693 0.4167 0.80329 0.0
C516 C 0.67438 0.43471 0.81588 0.0
C517 C 0.65471 0.38042 0.78032 0.0
C518 C 0.68329 0.38581 0.7842 0.0
C519 C 0.68901 0.40363 0.79571 0.0
C520 C 0.70778 0.37373 0.77639 0.0
C521 C 0.6472 0.36017 0.76851 0.0
C522 C 0.72859 0.35685 0.78316 0.0
C523 C 0.75327 0.34809 0.77624 0.0
C524 C 0.7576 0.3561 0.7624 0.0
C525 C 0.73627 0.37215 0.7555 0.0
C526 C 0.71167 0.38107 0.76247 0.0
H527 H 0.62516 0.35143 0.76952 0.0
H528 H 0.64842 0.37273 0.75871 0.0
H529 H 0.66222 0.34126 0.76788 0.0
H530 H 0.72603 0.35102 0.79392 0.0
H531 H 0.76927 0.33569 0.78184 0.0
H532 H 0.51153 0.10316 0.06449 0.0
H533 H 0.53664 0.14569 0.05498 0.0
H534 H 0.60231 0.08823 0.03921 0.0
H535 H 0.57756 0.04541 0.04896 0.0
H536 H 0.62431 0.13565 0.05273 0.0
H537 H 0.54293 0.17328 0.01546 0.0
H538 H 0.52837 0.16921 0.03243 0.0
H539 H 0.54167 0.13725 0.02344 0.0
C540 C 0.53116 0.09946 0.05888 0.0
C541 C 0.54251 0.07086 0.05746 0.0
C542 C 0.5454 0.12382 0.05337 0.0
C543 C 0.57108 0.12008 0.04617 0.0
C544 C 0.58241 0.09156 0.04465 0.0
H545 H 0.64155 0.27627 0.0053 0.0
H546 H 0.626 0.22541 0.00939 0.0
C547 C 0.56822 0.06714 0.05021 0.0
C548 C 0.58674 0.14622 0.04095 0.0
H549 H 0.57816 0.2092 0.0221 0.0
C550 C 0.61441 0.15154 0.04587 0.0
C551 C 0.57404 0.16665 0.03179 0.0
C552 C 0.54524 0.16116 0.02536 0.0
C553 C 0.62913 0.17753 0.04243 0.0
C554 C 0.61552 0.19899 0.03411 0.0
C555 C 0.58846 0.19293 0.02862 0.0
C556 C 0.62809 0.22858 0.03161 0.0
C557 C 0.65901 0.18176 0.04782 0.0
C558 C 0.63468 0.24717 0.04274 0.0
C559 C 0.64375 0.27615 0.04044 0.0
C560 C 0.64601 0.28726 0.02696 0.0
C561 C 0.64001 0.26839 0.01581 0.0
C562 C 0.63111 0.23933 0.01812 0.0
H563 H 0.6696 0.16019 0.04975 0.0
H564 H 0.67225 0.19472 0.04051 0.0
H565 H 0.65811 0.19384 0.05776 0.0
H566 H 0.6318 0.23964 0.05324 0.0
H567 H 0.64802 0.29013 0.04926 0.0
H568 H 0.89481 0.03995 0.34366 0.0
H569 H 0.8482 0.04829 0.33316 0.0
H570 H 0.88159 0.02161 0.29367 0.0
H571 H 0.9282 0.01257 0.30416 0.0
H572 H 0.83482 0.0873 0.3129 0.0
H573 H 0.80902 0.97312 0.29624 0.0
H574 H 0.83752 0.98123 0.30814 0.0
H575 H 0.84267 0.98626 0.28993 0.0
C576 C 0.8922 0.03556 0.33276 0.0
C577 C 0.91519 0.02553 0.32474 0.0
C578 C 0.86554 0.04038 0.32678 0.0
C579 C 0.86134 0.03526 0.31267 0.0
C580 C 0.8842 0.0251 0.30464 0.0
H581 H 0.72167 0.10897 0.26448 0.0
H582 H 0.76824 0.09748 0.2745 0.0
C583 C 0.91086 0.02009 0.31063 0.0
C584 C 0.83335 0.04187 0.30631 0.0
H585 H 0.77873 0.01134 0.28795 0.0
C586 C 0.8225 0.07068 0.30747 0.0
C587 C 0.8172 0.02006 0.29938 0.0
C588 C 0.82702 0.98836 0.29844 0.0
C589 C 0.79602 0.07836 0.3018 0.0
C590 C 0.78029 0.0568 0.29449 0.0
C591 C 0.791 0.02791 0.29343 0.0
C592 C 0.75226 0.06353 0.28819 0.0
C593 C 0.78488 0.10932 0.30396 0.0
C594 C 0.728 0.04769 0.29228 0.0
C595 C 0.70146 0.05397 0.28648 0.0
C596 C 0.69867 0.07623 0.27645 0.0
C597 C 0.72307 0.09186 0.27226 0.0
C598 C 0.74967 0.08544 0.27803 0.0
H599 H 0.79561 0.12043 0.31275 0.0
H600 H 0.78899 0.12263 0.29457 0.0
H601 H 0.76156 0.10919 0.30589 0.0
H602 H 0.72957 0.03062 0.30008 0.0
H603 H 0.6831 0.04149 0.28993 0.0
H604 H 0.91852 0.45226 0.56981 0.0
H605 H 0.90514 0.40818 0.55677 0.0
H606 H 0.99108 0.37519 0.56019 0.0
H607 H 0.00463 0.41901 0.57341 0.0
H608 H 0.92729 0.38561 0.53196 0.0
H609 H 0.94241 0.30733 0.57546 0.0
H610 H 0.94068 0.34684 0.57789 0.0
H611 H 0.9729 0.32994 0.5717 0.0
C612 C 0.93461 0.43566 0.56778 0.0
C613 C 0.9626 0.43903 0.57273 0.0
C614 C 0.92692 0.41052 0.56031 0.0
C615 C 0.94702 0.38828 0.55771 0.0
C616 C 0.97514 0.39188 0.56233 0.0
H617 H 0.93878 0.21724 0.51799 0.0
H618 H 0.95397 0.26341 0.52879 0.0
C619 C 0.98286 0.41699 0.56983 0.0
C620 C 0.93844 0.36123 0.55024 0.0
H621 H 0.93242 0.28643 0.55364 0.0
C622 C 0.92834 0.36391 0.53669 0.0
C623 C 0.9398 0.33302 0.55648 0.0
C624 C 0.94928 0.329 0.57122 0.0
C625 C 0.91994 0.33897 0.52911 0.0
C626 C 0.92134 0.31078 0.53535 0.0
C627 C 0.93148 0.30812 0.54889 0.0
C628 C 0.91224 0.28366 0.52809 0.0
C629 C 0.91011 0.34291 0.51442 0.0
C630 C 0.88371 0.27982 0.52415 0.0
C631 C 0.87492 0.25344 0.51798 0.0
C632 C 0.89452 0.23043 0.51572 0.0
C633 C 0.92314 0.23452 0.51958 0.0
C634 C 0.93188 0.26087 0.52575 0.0
H635 H 0.91684 0.36458 0.51013 0.0
H636 H 0.91857 0.32502 0.50774 0.0
H637 H 0.88649 0.3419 0.51408 0.0
H638 H 0.86812 0.29697 0.52611 0.0
H639 H 0.8527 0.25093 0.51517 0.0
H640 H 0.53043 0.09662 0.45932 0.0
H641 H 0.57407 0.11796 0.46885 0.0
H642 H 0.62051 0.03935 0.45746 0.0
H643 H 0.57723 0.01841 0.44742 0.0
H644 H 0.6083 0.10198 0.48897 0.0
H645 H 0.66965 0.10148 0.44037 0.0
H646 H 0.63192 0.09399 0.44088 0.0
H647 H 0.65726 0.06515 0.44465 0.0
C648 C 0.54995 0.08389 0.45885 0.0
C649 C 0.55051 0.05596 0.45251 0.0
C650 C 0.57487 0.09612 0.46428 0.0
C651 C 0.60072 0.08056 0.46357 0.0
C652 C 0.60104 0.05218 0.45772 0.0
H653 H 0.75069 0.10513 0.51299 0.0
H654 H 0.70371 0.09313 0.50384 0.0
C655 C 0.57624 0.04013 0.45209 0.0
C656 C 0.62725 0.0938 0.46912 0.0
H657 H 0.69666 0.10808 0.46109 0.0
C658 C 0.62756 0.10361 0.48284 0.0
C659 C 0.65218 0.09665 0.46102 0.0
C660 C 0.65268 0.08907 0.44588 0.0
C661 C 0.6524 0.11514 0.48883 0.0
C662 C 0.67787 0.11592 0.48102 0.0
C663 C 0.67727 0.10713 0.46715 0.0
C664 C 0.70564 0.1247 0.48709 0.0
C665 C 0.65092 0.12661 0.50341 0.0
C666 C 0.72279 0.14592 0.48053 0.0
C667 C 0.75002 0.1523 0.48555 0.0
C668 C 0.76048 0.13774 0.4973 0.0
C669 C 0.74308 0.11698 0.50401 0.0
C670 C 0.71608 0.11026 0.49885 0.0
H671 H 0.62907 0.1343 0.50599 0.0
H672 H 0.65636 0.10848 0.51065 0.0
H673 H 0.66601 0.14517 0.50508 0.0
H674 H 0.71525 0.15725 0.4714 0.0
H675 H 0.76295 0.16843 0.48018 0.0
H676 H 0.95178 0.04201 0.69163 0.0
H677 H 0.93143 0.0823 0.70528 0.0
H678 H 0.98791 0.14424 0.68545 0.0
H679 H 0.00851 0.10416 0.67176 0.0
H680 H 0.96209 0.12522 0.72331 0.0
H681 H 0.90389 0.17577 0.67928 0.0
H682 H 0.91618 0.13793 0.67911 0.0
H683 H 0.94094 0.1676 0.67638 0.0
C684 C 0.95999 0.06418 0.6902 0.0
C685 C 0.98168 0.06993 0.68056 0.0
C686 C 0.94835 0.08712 0.69802 0.0
C687 C 0.958 0.11616 0.69622 0.0
C688 C 0.98002 0.12194 0.68684 0.0
H689 H 0.93719 0.27624 0.74223 0.0
H690 H 0.95402 0.231 0.73119 0.0
C691 C 0.99182 0.099 0.67908 0.0
C692 C 0.94484 0.14057 0.70404 0.0
H693 H 0.9046 0.20283 0.70018 0.0
C694 C 0.94939 0.14214 0.7183 0.0
C695 C 0.92801 0.16227 0.69745 0.0
C696 C 0.92168 0.16085 0.68223 0.0
C697 C 0.93821 0.16552 0.72611 0.0
C698 C 0.92225 0.1878 0.71943 0.0
C699 C 0.91697 0.18572 0.70524 0.0
C700 C 0.91182 0.21417 0.72684 0.0
C701 C 0.94356 0.16626 0.74143 0.0
C702 C 0.88249 0.21973 0.72794 0.0
C703 C 0.87276 0.2456 0.73426 0.0
C704 C 0.89226 0.26646 0.73941 0.0
C705 C 0.92162 0.26063 0.73837 0.0
C706 C 0.93129 0.23472 0.73214 0.0
H707 H 0.95002 0.14426 0.74544 0.0
H708 H 0.961 0.18213 0.74365 0.0
H709 H 0.92425 0.17374 0.74705 0.0
H710 H 0.86718 0.20415 0.72381 0.0
H711 H 0.85002 0.2495 0.73487 0.0
H712 H 0.94146 0.48773 0.95078 0.0
H713 H 0.89858 0.47392 0.9636 0.0
H714 H 0.85079 0.47064 0.92569 0.0
H715 H 0.89355 0.48402 0.91275 0.0
H716 H 0.84501 0.50092 0.96532 0.0
H717 H 0.83767 0.38864 0.9426 0.0
H718 H 0.86916 0.41133 0.94107 0.0
H719 H 0.83897 0.41781 0.93007 0.0
C720 C 0.9218 0.4842 0.94517 0.0
C721 C 0.92097 0.48671 0.93073 0.0
C722 C 0.89734 0.47631 0.95251 0.0
C723 C 0.87171 0.47072 0.94555 0.0
C724 C 0.87055 0.47423 0.93121 0.0
H725 H 0.7011 0.45791 0.97835 0.0
H726 H 0.74546 0.47298 0.96725 0.0
C727 C 0.89498 0.48205 0.92385 0.0
C728 C 0.8462 0.461 0.95327 0.0
H729 H 0.79814 0.40468 0.95596 0.0
C730 C 0.8348 0.47984 0.96334 0.0
C731 C 0.83325 0.43327 0.9508 0.0
C732 C 0.8455 0.41143 0.94064 0.0
C733 C 0.8103 0.47198 0.97078 0.0
C734 C 0.79668 0.44478 0.96789 0.0
C735 C 0.8085 0.42564 0.95806 0.0
C736 C 0.76995 0.43584 0.97483 0.0
C737 C 0.7994 0.49271 0.98175 0.0
C738 C 0.76883 0.40956 0.98248 0.0
C739 C 0.74341 0.40071 0.98875 0.0
C740 C 0.71864 0.41797 0.98741 0.0
C741 C 0.71983 0.4442 0.97966 0.0
C742 C 0.74522 0.45297 0.97338 0.0
H743 H 0.8163 0.50812 0.98532 0.0
H744 H 0.78173 0.50615 0.97745 0.0
H745 H 0.79114 0.48028 0.99077 0.0
H746 H 0.78767 0.39593 0.98364 0.0
H747 H 0.74319 0.38036 0.99463 0.0
H748 H 0.54973 0.43259 0.20903 0.0
H749 H 0.5663 0.38649 0.21956 0.0
H750 H 0.52161 0.33642 0.18855 0.0
H751 H 0.50499 0.38227 0.17793 0.0
H752 H 0.53284 0.33788 0.22973 0.0
H753 H 0.60504 0.30537 0.18702 0.0
H754 H 0.59173 0.34258 0.18907 0.0
H755 H 0.56936 0.31442 0.18176 0.0
C756 C 0.54336 0.41177 0.20447 0.0
C757 C 0.52613 0.41109 0.19261 0.0
C758 C 0.55287 0.3855 0.21049 0.0
C759 C 0.54553 0.35816 0.20468 0.0
C760 C 0.5279 0.35737 0.19302 0.0
H761 H 0.54628 0.18198 0.23679 0.0
H762 H 0.53524 0.2312 0.22801 0.0
C763 C 0.51828 0.38359 0.18703 0.0
C764 C 0.55595 0.33036 0.2109 0.0
H765 H 0.59556 0.26881 0.20407 0.0
C766 C 0.54672 0.32286 0.22418 0.0
C767 C 0.57438 0.31108 0.20368 0.0
C768 C 0.58597 0.3188 0.18964 0.0
C769 C 0.55465 0.29596 0.23027 0.0
C770 C 0.57199 0.27606 0.22279 0.0
C771 C 0.58207 0.28405 0.20971 0.0
C772 C 0.57896 0.24635 0.22816 0.0
C773 C 0.54434 0.28899 0.24463 0.0
C774 C 0.60732 0.23838 0.23084 0.0
C775 C 0.61377 0.21016 0.23585 0.0
C776 C 0.59193 0.18942 0.23811 0.0
C777 C 0.5636 0.19744 0.23522 0.0
C778 C 0.5572 0.22562 0.23027 0.0
H779 H 0.53777 0.30928 0.25024 0.0
H780 H 0.52558 0.27412 0.24398 0.0
H781 H 0.56114 0.27756 0.25068 0.0
H782 H 0.62442 0.25407 0.22917 0.0
H783 H 0.6358 0.20462 0.23794 0.0
H784 H 0.04582 0.94359 0.36168 0.0
H785 H 0.06002 0.91521 0.3818 0.0
H786 H 0.97183 0.9048 0.39339 0.0
H787 H 0.95736 0.93421 0.37338 0.0
H788 H 0.00198 0.924 0.41437 0.0
H789 H 0.05975 0.82972 0.39178 0.0
H790 H 0.07362 0.86366 0.38505 0.0
H791 H 0.03715 0.85347 0.38158 0.0
C792 C 0.02933 0.93482 0.36833 0.0
C793 C 0.00043 0.94126 0.36594 0.0
C794 C 0.03751 0.91832 0.3798 0.0
C795 C 0.017 0.9074 0.389 0.0
C796 C 0.98802 0.91285 0.38637 0.0
H797 H 0.08522 0.80776 0.45942 0.0
H798 H 0.0572 0.82025 0.43895 0.0
C799 C 0.97979 0.92963 0.37493 0.0
C800 C 0.02621 0.89331 0.40206 0.0
H801 H 0.0736 0.84339 0.4151 0.0
C802 C 0.0172 0.90596 0.41453 0.0
C803 C 0.04565 0.86939 0.40235 0.0
C804 C 0.05431 0.8531 0.38945 0.0
C805 C 0.02848 0.89664 0.42718 0.0
C806 C 0.04995 0.87468 0.42733 0.0
C807 C 0.05757 0.86067 0.41497 0.0
C808 C 0.06591 0.86716 0.44004 0.0
C809 C 0.01746 0.91069 0.44023 0.0
C810 C 0.08039 0.88933 0.44736 0.0
C811 C 0.09619 0.88233 0.45909 0.0
C812 C 0.09826 0.8529 0.46362 0.0
C813 C 0.08404 0.83065 0.45619 0.0
C814 C 0.068 0.83773 0.44451 0.0
H815 H 0.99517 0.91851 0.43893 0.0
H816 H 0.01819 0.89503 0.44904 0.0
H817 H 0.03078 0.9302 0.44278 0.0
H818 H 0.07983 0.91206 0.44387 0.0
H819 H 0.10711 0.89994 0.4645 0.0
H820 H 0.98577 0.45403 0.64227 0.0
H821 H 0.01249 0.45642 0.6639 0.0
H822 H 0.06708 0.5235 0.6466 0.0
H823 H 0.0409 0.52098 0.62491 0.0
H824 H 0.09586 0.48198 0.66388 0.0
H825 H -0.00141 0.52925 0.68842 0.0
H826 H 0.99497 0.49348 0.68058 0.0
H827 H 0.00184 0.52527 0.67001 0.0
C828 C 0.00382 0.46887 0.64297 0.0
C829 C 0.01093 0.48768 0.63194 0.0
C830 C 0.01897 0.47028 0.65536 0.0
C831 C 0.04134 0.49057 0.65691 0.0
C832 C 0.04977 0.50779 0.64561 0.0
H833 H 0.1409 0.58753 0.71258 0.0
H834 H 0.12161 0.5586 0.69359 0.0
C835 C 0.03472 0.50637 0.63323 0.0
C836 C 0.0543 0.49619 0.67055 0.0
H837 H 0.04039 0.52881 0.70151 0.0
C838 C 0.0837 0.49181 0.67221 0.0
C839 C 0.0383 0.50888 0.6814 0.0
C840 C 0.00672 0.51474 0.68007 0.0
C841 C 0.09775 0.50078 0.68427 0.0
C842 C 0.08202 0.51502 0.69478 0.0
C843 C 0.05239 0.51791 0.69343 0.0
C844 C 0.09605 0.53002 0.70653 0.0
C845 C 0.12937 0.4954 0.68553 0.0
C846 C 0.0878 0.52386 0.72013 0.0
C847 C 0.09859 0.54065 0.73104 0.0
C848 C 0.11763 0.56404 0.72851 0.0
C849 C 0.12633 0.56966 0.7149 0.0
C850 C 0.11553 0.55291 0.70403 0.0
H851 H 0.13603 0.47589 0.67937 0.0
H852 H 0.14103 0.51491 0.6815 0.0
H853 H 0.13575 0.49188 0.69642 0.0
H854 H 0.07256 0.50647 0.72226 0.0
H855 H 0.09148 0.53575 0.74142 0.0
H856 H 0.49319 0.553 0.87153 0.0
H857 H 0.48891 0.57905 0.89332 0.0
H858 H 0.55886 0.52838 0.90991 0.0
H859 H 0.56277 0.50146 0.88816 0.0
H860 H 0.51376 0.52294 0.92553 0.0
H861 H 0.52788 0.64172 0.91525 0.0
H862 H 0.50284 0.62659 0.90324 0.0
H863 H 0.53924 0.61375 0.90316 0.0
C864 C 0.50826 0.54794 0.87965 0.0
C865 C 0.52807 0.52484 0.87816 0.0
C866 C 0.50594 0.5631 0.89212 0.0
C867 C 0.5237 0.55587 0.90326 0.0
C868 C 0.54497 0.53438 0.90145 0.0
H869 H 0.47494 0.64123 0.9816 0.0
H870 H 0.50541 0.62475 0.96256 0.0
C871 C 0.54718 0.51903 0.88899 0.0
C872 C 0.51676 0.56709 0.91723 0.0
H873 H 0.4958 0.6293 0.93434 0.0
C874 C 0.51054 0.54629 0.92755 0.0
C875 C 0.51294 0.59753 0.92002 0.0
C876 C 0.52141 0.62113 0.90985 0.0
C877 C 0.49856 0.55492 0.94014 0.0
C878 C 0.492 0.58504 0.94234 0.0
C879 C 0.5003 0.60611 0.93251 0.0
C880 C 0.47419 0.59461 0.9541 0.0
C881 C 0.49227 0.53152 0.95079 0.0
C882 C 0.44647 0.5834 0.95552 0.0
C883 C 0.42906 0.59274 0.96631 0.0
C884 C 0.43896 0.61366 0.97589 0.0
C885 C 0.46672 0.62501 0.97442 0.0
C886 C 0.48415 0.61566 0.96356 0.0
H887 H 0.50721 0.51259 0.94983 0.0
H888 H 0.49378 0.54051 0.96141 0.0
H889 H 0.47035 0.52299 0.94918 0.0
H890 H 0.43814 0.56763 0.94815 0.0
H891 H 0.40777 0.58364 0.96709 0.0
H892 H 0.39181 0.96945 0.10614 0.0
H893 H 0.38083 0.96038 0.13028 0.0
H894 H 0.42658 0.03929 0.14177 0.0
H895 H 0.43816 0.04832 0.11761 0.0
H896 H 0.44697 0.99137 0.15472 0.0
H897 H 0.32979 0.99287 0.16001 0.0
H898 H 0.34068 0.96978 0.14596 0.0
H899 H 0.34782 0.00888 0.14536 0.0
C900 C 0.39876 0.98546 0.11372 0.0
C901 C 0.41617 0.00941 0.10993 0.0
C902 C 0.39234 0.98029 0.12756 0.0
C903 C 0.40283 -0.0008 0.13784 0.0
C904 C 0.41827 0.02443 0.13399 0.0
H905 H 0.3683 0.9479 0.22342 0.0
H906 H 0.37288 0.97822 0.20266 0.0
C907 C 0.42476 0.0296 0.12015 0.0
C908 C 0.40124 0.9902 0.1525 0.0
H909 H 0.35555 0.96391 0.17692 0.0
C910 C 0.42693 0.98592 0.15968 0.0
C911 C 0.37514 0.98339 0.15904 0.0
C912 C 0.3468 0.98928 0.15223 0.0
C913 C 0.42729 0.9735 0.17291 0.0
C914 C 0.4013 0.96455 0.179 0.0
C915 C 0.37552 0.9704 0.17217 0.0
C916 C 0.40043 0.94743 0.19202 0.0
C917 C 0.45556 0.96974 0.18012 0.0
C918 C 0.41442 0.92007 0.19292 0.0
C919 C 0.41194 0.90274 0.20477 0.0
C920 C 0.39515 0.9123 0.2159 0.0
C921 C 0.38145 0.93991 0.21504 0.0
C922 C 0.38401 0.95727 0.20319 0.0
H923 H 0.4713 0.98642 0.17655 0.0
H924 H 0.45329 0.97167 0.19147 0.0
H925 H 0.4643 0.94755 0.1777 0.0
H926 H 0.42665 0.9117 0.1843 0.0
H927 H 0.42264 0.88154 0.20505 0.0
H928 H 0.05092 0.61069 0.90269 0.0
H929 H 0.06478 0.63845 0.88212 0.0
H930 H 0.01519 0.5791 0.85691 0.0
H931 H 0.00069 0.55186 0.87734 0.0
H932 H 0.09612 0.61459 0.86227 0.0
H933 H 0.99685 0.65627 0.83875 0.0
H934 H -0.00169 0.64337 0.85635 0.0
H935 H 0.99411 0.61753 0.84236 0.0
C936 C 0.04234 0.60406 0.89281 0.0
C937 C 0.02486 0.57894 0.89165 0.0
C938 C 0.05028 0.61995 0.88106 0.0
C939 C 0.04082 0.61106 0.86797 0.0
C940 C 0.02221 0.58689 0.8669 0.0
H941 H 0.09604 0.61063 0.78515 0.0
H942 H 0.07217 0.60564 0.80742 0.0
C943 C 0.01412 0.57114 0.87862 0.0
C944 C 0.05344 0.62405 0.85534 0.0
H945 H 0.03679 0.64912 0.82314 0.0
C946 C 0.08318 0.62281 0.85383 0.0
C947 C 0.03656 0.63469 0.84432 0.0
C948 C 0.00471 0.63833 0.84559 0.0
C949 C 0.09635 0.63028 0.84135 0.0
C950 C 0.07932 0.63943 0.83013 0.0
C951 C 0.04972 0.6419 0.83177 0.0
C952 C 0.09184 0.64438 0.81636 0.0
C953 C 0.12824 0.62686 0.84001 0.0
C954 C 0.11036 0.66815 0.81398 0.0
C955 C 0.12408 0.67107 0.80128 0.0
C956 C 0.11948 0.65022 0.79076 0.0
C957 C 0.10018 0.62696 0.79306 0.0
C958 C 0.08643 0.62413 0.80575 0.0
H959 H 0.13778 0.61544 0.84904 0.0
H960 H 0.13361 0.61421 0.83056 0.0
H961 H 0.13819 0.64903 0.83911 0.0
H962 H 0.1146 0.68411 0.82205 0.0
H963 H 0.13869 0.68933 0.79981 0.0
H964 H 0.44402 0.5119 0.14763 0.0
H965 H 0.41985 0.52266 0.12586 0.0
H966 H 0.48507 0.47514 0.10375 0.0
H967 H 0.50918 0.46399 0.1254 0.0
H968 H 0.44701 0.55537 0.10523 0.0
H969 H 0.41138 0.44675 0.08511 0.0
H970 H 0.42025 0.45266 0.10301 0.0
H971 H 0.44801 0.44757 0.09048 0.0
C972 C 0.45286 0.50313 0.13817 0.0
C973 C 0.4786 0.4872 0.13825 0.0
C974 C 0.43903 0.50931 0.12575 0.0
C975 C 0.45054 0.49946 0.11323 0.0
C976 C 0.47551 0.48243 0.11332 0.0
H977 H 0.43235 0.53897 0.02702 0.0
H978 H 0.444 0.51824 0.04961 0.0
C979 C 0.48936 0.47624 0.12572 0.0
C980 C 0.43853 0.50998 0.10001 0.0
H981 H 0.41203 0.48687 0.06908 0.0
C982 C 0.43898 0.54046 0.09738 0.0
C983 C 0.4284 0.49039 0.08978 0.0
C984 C 0.4267 0.45752 0.09224 0.0
C985 C 0.4304 0.55188 0.08462 0.0
C986 C 0.42046 0.5323 0.07432 0.0
C987 C 0.41961 0.50181 0.07701 0.0
C988 C 0.41177 0.54311 0.06056 0.0
C989 C 0.43312 0.5847 0.08211 0.0
C990 C 0.38933 0.56338 0.05919 0.0
C991 C 0.3828 0.57547 0.04634 0.0
C992 C 0.39838 0.5672 0.03458 0.0
C993 C 0.42004 0.5459 0.03588 0.0
C994 C 0.42668 0.53397 0.04877 0.0
H995 H 0.44766 0.59536 0.08966 0.0
H996 H 0.4412 0.58923 0.07157 0.0
H997 H 0.41185 0.59518 0.08315 0.0
H998 H 0.37716 0.57023 0.06812 0.0
H999 H 0.36576 0.59156 0.04566 0.0
H1000 H 0.52526 0.98448 0.37507 0.0
H1001 H 0.50875 0.95641 0.35515 0.0
H1002 H 0.46798 0.89355 0.3821 0.0
H1003 H 0.48387 0.92188 0.40215 0.0
H1004 H 0.51166 0.89773 0.34545 0.0
H1005 H 0.40153 0.92993 0.36058 0.0
H1006 H 0.43268 0.94589 0.36851 0.0
H1007 H 0.4211 0.90943 0.37328 0.0
C1008 C 0.51332 0.96433 0.37681 0.0
C1009 C 0.50538 0.95574 0.39019 0.0
C1010 C 0.50392 0.9483 0.36539 0.0
C1011 C 0.48656 0.92336 0.36716 0.0
C1012 C 0.48083 0.91315 0.38053 0.0
H1013 H 0.3775 0.83938 0.30568 0.0
H1014 H 0.40487 0.84878 0.32666 0.0
C1015 C 0.49005 0.92929 0.39197 0.0
C1016 C 0.47211 0.9102 0.35507 0.0
H1017 H 0.40656 0.9026 0.34022 0.0
C1018 C 0.48867 0.89852 0.34433 0.0
C1019 C 0.4421 0.91147 0.35363 0.0
C1020 C 0.42325 0.92506 0.36454 0.0
C1021 C 0.476 0.88825 0.33213 0.0
C1022 C 0.44608 0.89016 0.33059 0.0
C1023 C 0.4295 0.90109 0.34147 0.0
C1024 C 0.43147 0.88258 0.31755 0.0
C1025 C 0.4947 0.87553 0.32097 0.0
C1026 C 0.4373 0.89857 0.30549 0.0
C1027 C 0.42164 0.89335 0.29349 0.0
C1028 C 0.39973 0.87215 0.29337 0.0
C1029 C 0.3942 0.85589 0.30543 0.0
C1030 C 0.40986 0.86116 0.31742 0.0
H1031 H 0.51543 0.86778 0.32516 0.0
H1032 H 0.48401 0.85679 0.31569 0.0
H1033 H 0.49915 0.8929 0.31319 0.0
H1034 H 0.45344 0.91569 0.30546 0.0
H1035 H 0.42641 0.90627 0.28438 0.0
H1036 H 0.07007 0.98721 0.6291 0.0
H1037 H 0.09581 0.98439 0.6074 0.0
H1038 H 0.04291 0.05355 0.59056 0.0
H1039 H 0.01637 0.05591 0.61221 0.0
H1040 H 0.04147 0.00641 0.57488 0.0
H1041 H 0.1543 0.02942 0.58623 0.0
H1042 H 0.14098 0.00227 0.59801 0.0
H1043 H 0.12612 0.03905 0.59808 0.0
C1044 C 0.06436 0.00241 0.62093 0.0
C1045 C 0.04095 0.02155 0.62233 0.0
C1046 C 0.07933 0.00096 0.60852 0.0
C1047 C 0.07154 0.01898 0.59736 0.0
C1048 C 0.04938 0.03952 0.59905 0.0
H1049 H 0.11901 0.97236 0.5118 0.0
H1050 H 0.1055 0.00438 0.53115 0.0
C1051 C 0.03422 0.04083 0.61144 0.0
C1052 C 0.08337 0.01284 0.58348 0.0
H1053 H 0.14536 0.99583 0.56687 0.0
C1054 C 0.06421 0.00497 0.57298 0.0
C1055 C 0.11303 0.011 0.58098 0.0
C1056 C 0.13472 0.02122 0.59141 0.0
C1057 C 0.07385 0.99308 0.56049 0.0
C1058 C 0.1034 0.98912 0.55845 0.0
C1059 C 0.12267 -0.00126 0.56854 0.0
C1060 C 0.11422 0.97149 0.54677 0.0
C1061 C 0.05234 0.98291 0.54994 0.0
C1062 C 0.12405 0.94274 0.54924 0.0
C1063 C 0.13156 0.92442 0.53828 0.0
C1064 C 0.12955 0.9346 0.52463 0.0
C1065 C 0.12068 0.96385 0.5222 0.0
C1066 C 0.11297 0.98216 0.53321 0.0
H1067 H 0.03004 0.98538 0.55362 0.0
H1068 H 0.05485 0.99607 0.54037 0.0
H1069 H 0.05609 0.95935 0.54729 0.0
H1070 H 0.12508 0.93415 0.55965 0.0
H1071 H 0.13853 0.9021 0.54052 0.0
H1072 H 0.53406 0.38135 0.87809 0.0
H1073 H 0.53611 0.36865 0.90239 0.0
H1074 H 0.45663 0.41423 0.90933 0.0
H1075 H 0.45477 0.42777 0.88495 0.0
H1076 H 0.49637 0.43427 0.92601 0.0
H1077 H 0.49907 0.31283 0.92877 0.0
H1078 H 0.52488 0.32527 0.91648 0.0
H1079 H 0.48752 0.33216 0.91347 0.0
C1080 C 0.51657 0.38802 0.88467 0.0
C1081 C 0.49441 0.40584 0.87959 0.0
C1082 C 0.51765 0.38049 0.8986 0.0
C1083 C 0.49637 0.39021 0.9077 0.0
C1084 C 0.47322 0.40638 0.90249 0.0
H1085 H 0.54414 0.34721 0.99301 0.0
H1086 H 0.51238 0.35281 0.97313 0.0
C1087 C 0.47218 0.41405 0.88854 0.0
C1088 C 0.50085 0.38731 0.92277 0.0
H1089 H 0.52526 0.33891 0.94698 0.0
C1090 C 0.50194 0.41327 0.93069 0.0
C1091 C 0.50754 0.35994 0.92903 0.0
C1092 C 0.50435 0.33099 0.92149 0.0
C1093 C 0.51197 0.4129 0.94429 0.0
C1094 C 0.5218 0.386 0.94999 0.0
C1095 C 0.51826 0.35967 0.94253 0.0
C1096 C 0.53886 0.38515 0.96284 0.0
C1097 C 0.51276 0.44154 0.95224 0.0
C1098 C 0.56417 0.40158 0.96368 0.0
C1099 C 0.58228 0.39848 0.97498 0.0
C1100 C 0.57562 0.3786 0.98564 0.0
C1101 C 0.54986 0.36273 0.98498 0.0
C1102 C 0.5317 0.36588 0.97363 0.0
H1103 H 0.4951 0.45636 0.94901 0.0
H1104 H 0.51117 0.43774 0.96352 0.0
H1105 H 0.5331 0.45315 0.95005 0.0
H1106 H 0.57053 0.41602 0.95533 0.0
H1107 H 0.60196 0.41099 0.97513 0.0
H1108 H 0.48115 0.96389 0.13138 0.0
H1109 H 0.50097 0.97037 0.15443 0.0
H1110 H 0.57964 0.002 0.13681 0.0
H1111 H 0.55971 0.99631 0.11365 0.0
H1112 H 0.54853 0.95149 0.16907 0.0
H1113 H 0.55197 0.07236 0.15922 0.0
H1114 H 0.53415 0.04691 0.14782 0.0
H1115 H 0.57226 0.051 0.14713 0.0
C1116 C 0.5029 0.97166 0.13237 0.0
C1117 C 0.51877 0.98 0.12069 0.0
C1118 C 0.51416 0.97537 0.14557 0.0
C1119 C 0.54148 0.98734 0.14732 0.0
C1120 C 0.55823 0.9934 0.13566 0.0
H1121 H 0.63115 0.05936 0.21732 0.0
H1122 H 0.61909 0.03605 0.19542 0.0
C1123 C 0.54688 0.99001 0.12245 0.0
C1124 C 0.55138 0.99594 0.16124 0.0
H1125 H 0.57116 0.05585 0.18031 0.0
C1126 C 0.55357 0.97428 0.17155 0.0
C1127 C 0.55746 0.02579 0.16448 0.0
C1128 C 0.55359 0.05042 0.15414 0.0
C1129 C 0.56231 0.98164 0.18497 0.0
C1130 C 0.56878 0.01139 0.1881 0.0
C1131 C 0.56648 0.03299 0.17781 0.0
C1132 C 0.57749 0.02114 0.20202 0.0
C1133 C 0.56489 0.95759 0.19566 0.0
C1134 C 0.55822 0.02003 0.21306 0.0
C1135 C 0.565 0.03344 0.22563 0.0
C1136 C 0.59109 0.04834 0.22729 0.0
C1137 C 0.61081 0.04823 0.21638 0.0
C1138 C 0.60401 0.03485 0.20385 0.0
H1139 H 0.56544 0.93527 0.1909 0.0
H1140 H 0.58442 0.96068 0.20196 0.0
H1141 H 0.54623 0.95863 0.20266 0.0
H1142 H 0.53743 0.00999 0.21176 0.0
H1143 H 0.54936 0.03314 0.23383 0.0
H1144 H 0.03159 0.04172 0.38612 0.0
H1145 H 0.01101 0.07071 0.40481 0.0
H1146 H 0.9721 0.12934 0.37524 0.0
H1147 H 0.99192 0.09986 0.3564 0.0
H1148 H 0.01147 0.12854 0.41354 0.0
H1149 H 0.90354 0.09588 0.39533 0.0
H1150 H 0.93563 0.07973 0.38845 0.0
H1151 H 0.92444 0.11589 0.38298 0.0
C1152 C 0.01909 0.06108 0.38356 0.0
C1153 C 0.01295 0.06817 0.36976 0.0
C1154 C 0.00734 0.07765 0.39428 0.0
C1155 C 0.98941 0.10169 0.39141 0.0
C1156 C 0.98526 0.11037 0.37767 0.0
H1157 H 0.87554 0.19339 0.44865 0.0
H1158 H 0.90516 0.18201 0.42857 0.0
C1159 C 0.99676 0.09362 0.36692 0.0
C1160 C 0.97327 0.11581 0.40276 0.0
H1161 H 0.90582 0.12526 0.41523 0.0
C1162 C 0.98837 0.12806 0.41387 0.0
C1163 C 0.9431 0.11496 0.40319 0.0
C1164 C 0.92566 0.1007 0.39193 0.0
C1165 C 0.97409 0.13917 0.42548 0.0
C1166 C 0.94403 0.13776 0.42599 0.0
C1167 C 0.9289 0.12637 0.41474 0.0
C1168 C 0.9278 0.14616 0.43844 0.0
C1169 C 0.99122 0.1521 0.43716 0.0
C1170 C 0.93065 0.1296 0.45058 0.0
C1171 C 0.91362 0.13583 0.46202 0.0
C1172 C 0.89343 0.15878 0.46151 0.0
C1173 C 0.89091 0.17559 0.44938 0.0
C1174 C 0.90783 0.16919 0.43791 0.0
H1175 H 0.01303 0.1584 0.4338 0.0
H1176 H 0.98046 0.17187 0.44151 0.0
H1177 H 0.99322 0.13541 0.44548 0.0
H1178 H 0.94558 0.11136 0.45109 0.0
H1179 H 0.91611 0.12248 0.4712 0.0
H1180 H 0.86998 0.46962 0.62065 0.0
H1181 H 0.85126 0.46274 0.64378 0.0
H1182 H 0.88838 0.54568 0.65636 0.0
H1183 H 0.90789 0.55245 0.63322 0.0
H1184 H 0.9061 0.50159 0.67218 0.0
H1185 H 0.78921 0.4936 0.66813 0.0
H1186 H 0.80573 0.46982 0.65573 0.0
H1187 H 0.81079 0.50926 0.65456 0.0
C1188 C 0.8735 0.48687 0.62819 0.0
C1189 C 0.89074 0.5114 0.62512 0.0
C1190 C 0.86254 0.48301 0.64143 0.0
C1191 C 0.8682 0.50381 0.65181 0.0
C1192 C 0.88366 0.52941 0.6485 0.0
H1193 H 0.8533 0.45678 0.74013 0.0
H1194 H 0.85589 0.48854 0.71964 0.0
C1195 C 0.89476 0.53324 0.63526 0.0
C1196 C 0.86204 0.49628 0.66638 0.0
H1197 H 0.81104 0.46579 0.68703 0.0
C1198 C 0.88513 0.4946 0.67557 0.0
C1199 C 0.83469 0.48717 0.67081 0.0
C1200 C 0.80869 0.49038 0.6618 0.0
C1201 C 0.88204 0.48193 0.68867 0.0
C1202 C 0.85516 0.47083 0.69267 0.0
C1203 C 0.83168 0.47418 0.68386 0.0
C1204 C 0.85194 0.45248 0.70515 0.0
C1205 C 0.90789 0.47865 0.6978 0.0
C1206 C 0.84859 0.42187 0.7037 0.0
C1207 C 0.84732 0.40374 0.7153 0.0
C1208 C 0.84916 0.41592 0.72859 0.0
C1209 C 0.85192 0.44674 0.73003 0.0
C1210 C 0.85338 0.4649 0.71837 0.0
H1211 H 0.92771 0.4865 0.69271 0.0
H1212 H 0.90473 0.49156 0.70739 0.0
H1213 H 0.91074 0.45512 0.70077 0.0
H1214 H 0.84752 0.41194 0.69356 0.0
H1215 H 0.845 0.38013 0.71382 0.0
H1216 H 0.47047 0.04797 0.38501 0.0
H1217 H 0.48252 0.06794 0.36244 0.0
H1218 H 0.51991 0.14461 0.38167 0.0
H1219 H 0.50876 0.12429 0.40441 0.0
H1220 H 0.47426 0.11868 0.34707 0.0
H1221 H 0.58769 0.10628 0.36277 0.0
H1222 H 0.55871 0.09199 0.37297 0.0
H1223 H 0.56716 0.13075 0.3734 0.0
C1224 C 0.48065 0.06943 0.38448 0.0
C1225 C 0.48922 0.08428 0.39652 0.0
C1226 C 0.48751 0.08082 0.37153 0.0
C1227 C 0.5028 0.10733 0.37041 0.0
C1228 C 0.50876 0.1237 0.38235 0.0
H1229 H 0.59957 0.17193 0.30004 0.0
H1230 H 0.57255 0.17013 0.32152 0.0
C1231 C 0.50224 0.11214 0.39533 0.0
C1232 C 0.51527 0.11578 0.35695 0.0
H1233 H 0.57899 0.12317 0.34034 0.0
C1234 C 0.49714 0.11994 0.3456 0.0
C1235 C 0.54518 0.11706 0.35505 0.0
C1236 C 0.56588 0.11103 0.36664 0.0
C1237 C 0.50817 0.12521 0.33237 0.0
C1238 C 0.53802 0.12608 0.33049 0.0
C1239 C 0.55609 0.12264 0.34188 0.0
C1240 C 0.55132 0.12896 0.31675 0.0
C1241 C 0.48789 0.12966 0.3205 0.0
C1242 C 0.5482 0.10642 0.30693 0.0
C1243 C 0.56376 0.10726 0.29466 0.0
C1244 C 0.58278 0.13062 0.29204 0.0
C1245 C 0.58518 0.15358 0.30174 0.0
C1246 C 0.56969 0.15267 0.31401 0.0
H1247 H 0.46623 0.13586 0.32411 0.0
H1248 H 0.49584 0.14706 0.3134 0.0
H1249 H 0.48612 0.10873 0.31459 0.0
H1250 H 0.53455 0.08763 0.30899 0.0
H1251 H 0.56143 0.08926 0.28739 0.0
H1252 H 0.89846 0.03558 0.63417 0.0
H1253 H 0.87702 0.04049 0.61147 0.0
H1254 H 0.91584 0.95842 0.59885 0.0
H1255 H 0.93805 0.95366 0.62154 0.0
H1256 H 0.92962 0.0022 0.58195 0.0
H1257 H 0.81325 0.00535 0.58949 0.0
H1258 H 0.83036 0.03059 0.60106 0.0
H1259 H 0.83721 0.9915 0.60255 0.0
C1260 C 0.90184 0.01812 0.62672 0.0
C1261 C 0.92023 0.9944 0.62963 0.0
C1262 C 0.88933 0.02083 0.61374 0.0
C1263 C 0.89457 -0.00032 0.60347 0.0
C1264 C 0.9114 0.97493 0.60664 0.0
H1265 H 0.86643 0.04064 0.51521 0.0
H1266 H 0.87314 0.01018 0.53591 0.0
C1267 C 0.92406 0.97226 0.61962 0.0
C1268 C 0.88623 0.00598 0.58903 0.0
H1269 H 0.83137 0.03278 0.5696 0.0
C1270 C 0.90797 0.00805 0.57912 0.0
C1271 C 0.85799 0.01356 0.58533 0.0
C1272 C 0.83337 0.00981 0.59516 0.0
C1273 C 0.90263 0.01968 0.56598 0.0
C1274 C 0.87484 0.02932 0.56268 0.0
C1275 C 0.85272 0.02552 0.57224 0.0
C1276 C 0.86923 0.04678 0.55012 0.0
C1277 C 0.92707 0.02348 0.55603 0.0
C1278 C 0.86458 0.07724 0.55134 0.0
C1279 C 0.86096 0.09464 0.53962 0.0
C1280 C 0.86172 0.08185 0.52642 0.0
C1281 C 0.86584 0.05115 0.52523 0.0
C1282 C 0.86965 0.03373 0.53701 0.0
H1283 H 0.94784 0.01689 0.5606 0.0
H1284 H 0.92324 0.00976 0.54674 0.0
H1285 H 0.92849 0.04689 0.55265 0.0
H1286 H 0.86427 0.08767 0.56139 0.0
H1287 H 0.85764 0.11817 0.54092 0.0
H1288 H 0.99288 0.40841 0.89474 0.0
H1289 H 0.97477 0.37645 0.87641 0.0
H1290 H 0.01431 0.43262 0.846 0.0
H1291 H 0.03314 0.46405 0.86421 0.0
H1292 H 0.93721 0.39531 0.85811 0.0
H1293 H 0.03078 0.3531 0.82976 0.0
H1294 H 0.03373 0.3694 0.84668 0.0
H1295 H 0.03236 0.39249 0.83157 0.0
C1296 C -0.00162 0.41348 0.88417 0.0
C1297 C 0.01428 0.43889 0.88092 0.0
C1298 C 0.98801 0.3952 0.8737 0.0
C1299 C 0.99336 0.40196 0.85983 0.0
C1300 C 0.01047 0.42647 0.85662 0.0
H1301 H 0.9127 0.37878 0.7822 0.0
H1302 H 0.94267 0.39161 0.80195 0.0
C1303 C 0.02105 0.44461 0.86707 0.0
C1304 C 0.97789 0.38616 0.84873 0.0
H1305 H 0.98626 0.35435 0.81707 0.0
C1306 C 0.94798 0.38578 0.84928 0.0
C1307 C 0.99194 0.37385 0.83717 0.0
C1308 C 0.02398 0.37195 0.83633 0.0
C1309 C 0.93172 0.37474 0.83832 0.0
C1310 C 0.94576 0.36364 0.82654 0.0
C1311 C 0.97564 0.36307 0.82612 0.0
C1312 C 0.92956 0.35418 0.81427 0.0
C1313 C 0.89962 0.37622 0.83913 0.0
C1314 C 0.91269 0.32862 0.81464 0.0
C1315 C 0.89553 0.32122 0.80339 0.0
C1316 C 0.89495 0.33932 0.79161 0.0
C1317 C 0.91253 0.36448 0.79115 0.0
C1318 C 0.92976 0.37178 0.80238 0.0
H1319 H 0.89217 0.38932 0.84811 0.0
H1320 H 0.89074 0.38614 0.82958 0.0
H1321 H 0.89091 0.3535 0.84007 0.0
H1322 H 0.91244 0.31471 0.82373 0.0
H1323 H 0.88235 0.30162 0.80405 0.0
H1324 H 0.57711 0.54197 0.14573 0.0
H1325 H 0.59513 0.53911 0.12214 0.0
H1326 H 0.63106 0.45336 0.13073 0.0
H1327 H 0.61348 0.45609 0.15436 0.0
H1328 H 0.66449 0.48992 0.11236 0.0
H1329 H 0.55022 0.4809 0.09724 0.0
H1330 H 0.56005 0.51334 0.1068 0.0
H1331 H 0.56184 0.4777 0.11489 0.0
C1332 C 0.58954 0.52285 0.14274 0.0
C1333 C 0.59336 0.49896 0.15185 0.0
C1334 C 0.59969 0.52122 0.12923 0.0
C1335 C 0.61376 0.49572 0.12465 0.0
C1336 C 0.62003 0.47314 0.13407 0.0
H1337 H 0.65715 0.39919 0.0529 0.0
H1338 H 0.65328 0.42167 0.07564 0.0
C1339 C 0.60995 0.47475 0.14759 0.0
C1340 C 0.61893 0.4908 0.10981 0.0
H1341 H 0.58422 0.47558 0.07973 0.0
C1342 C 0.64701 0.48713 0.10516 0.0
C1343 C 0.59598 0.48711 0.10049 0.0
C1344 C 0.56529 0.48972 0.10505 0.0
C1345 C 0.65275 0.47929 0.09145 0.0
C1346 C 0.62977 0.47455 0.08227 0.0
C1347 C 0.60177 0.47932 0.0868 0.0
C1348 C 0.63402 0.46219 0.06831 0.0
C1349 C 0.68334 0.47587 0.08694 0.0
C1350 C 0.62394 0.47728 0.05665 0.0
C1351 C 0.62592 0.46437 0.04359 0.0
C1352 C 0.63776 0.43601 0.04202 0.0
C1353 C 0.64798 0.42108 0.05373 0.0
C1354 C 0.64604 0.43402 0.06674 0.0
H1355 H 0.69796 0.48896 0.09356 0.0
H1356 H 0.68958 0.45229 0.0878 0.0
H1357 H 0.68621 0.48288 0.07606 0.0
H1358 H 0.6143 0.49893 0.05768 0.0
H1359 H 0.61783 0.47644 0.03478 0.0
loop_
_geom_bond_atom_site_label_1
_geom_bond_atom_site_label_2
_geom_bond_distance
_geom_bond_site_symmetry_2
_ccdc_geom_bond_type
Mg0 O7 2.141 1_545 S
Mg0 O8 2.048 1_545 S
Mg0 O9 2.048 1_455 S
Mg0 O12 2.141 1_455 S
C1 O2 1.313 . S
C1 O8 1.195 . S
O2 C1 1.313 . S
C3 O4 1.245 . S
C3 O12 1.289 . S
O4 C3 1.245 . S
C5 O6 1.245 . S
C5 O7 1.289 . S
O6 C5 1.245 . S
O7 Mg0 2.141 1_565 S
O7 C5 1.289 . S
O8 Mg0 2.048 1_565 S
O8 C1 1.195 . S
O9 Mg0 2.048 1_655 S
O9 C10 1.195 . S
C10 O9 1.195 . S
C10 O11 1.313 1_545 S
O11 C10 1.313 1_565 S
O12 Mg0 2.141 1_655 S
O12 C3 1.289 . S
Mg13 O20 2.141 1_655 S
Mg13 O21 2.048 1_655 S
Mg13 O22 2.048 . S
Mg13 O25 2.141 . S
C14 O15 1.313 . S
C14 O21 1.195 . S
O15 C14 1.313 . S
C16 O17 1.245 . S
C16 O25 1.289 . S
O17 C16 1.245 . S
C18 O19 1.245 . S
C18 O20 1.289 . S
O19 C18 1.245 . S
O20 Mg13 2.141 1_455 S
O20 C18 1.289 . S
O21 Mg13 2.048 1_455 S
O21 C14 1.195 . S
O22 Mg13 2.048 . S
O22 C23 1.195 . S
C23 O22 1.195 . S
C23 O24 1.313 1_655 S
O24 C23 1.313 1_455 S
O25 Mg13 2.141 . S
O25 C16 1.289 . S
Mg26 O33 2.141 . S
Mg26 O34 2.048 . S
Mg26 O35 2.048 . S
Mg26 O38 2.141 . S
C27 O28 1.313 . S
C27 O34 1.195 . S
O28 C27 1.313 . S
C29 O30 1.245 . S
C29 O38 1.289 . S
O30 C29 1.245 . S
C31 O32 1.245 . S
C31 O33 1.289 . S
O32 C31 1.245 . S
O33 Mg26 2.141 . S
O33 C31 1.289 . S
O34 Mg26 2.048 . S
O34 C27 1.195 . S
O35 Mg26 2.048 . S
O35 C36 1.195 . S
C36 O35 1.195 . S
C36 O37 1.313 . S
O37 C36 1.313 . S
O38 Mg26 2.141 . S
O38 C29 1.289 . S
Mg39 O46 2.141 . S
Mg39 O47 2.048 . S
Mg39 O48 2.048 1_545 S
Mg39 O51 2.141 1_545 S
C40 O41 1.313 . S
C40 O47 1.195 . S
O41 C40 1.313 . S
C42 O43 1.245 . S
C42 O51 1.289 . S
O43 C42 1.245 . S
C44 O45 1.245 . S
C44 O46 1.289 . S
O45 C44 1.245 . S
O46 Mg39 2.141 . S
O46 C44 1.289 . S
O47 Mg39 2.048 . S
O47 C40 1.195 . S
O48 Mg39 2.048 1_565 S
O48 C49 1.195 . S
C49 O48 1.195 . S
C49 O50 1.313 . S
O50 C49 1.313 . S
O51 Mg39 2.141 1_565 S
O51 C42 1.289 . S
Mg52 O59 2.141 . S
Mg52 O60 2.048 . S
Mg52 O61 2.048 1_455 S
Mg52 O64 2.141 1_455 S
C53 O54 1.313 . S
C53 O60 1.195 . S
O54 C53 1.313 . S
C55 O56 1.245 . S
C55 O64 1.289 . S
O56 C55 1.245 . S
C57 O58 1.245 . S
C57 O59 1.289 . S
O58 C57 1.245 . S
O59 Mg52 2.141 . S
O59 C57 1.289 . S
O60 Mg52 2.048 . S
O60 C53 1.195 . S
O61 Mg52 2.048 1_655 S
O61 C62 1.195 . S
C62 O61 1.195 . S
C62 O63 1.313 . S
O63 C62 1.313 . S
O64 Mg52 2.141 1_655 S
O64 C55 1.289 . S
Mg65 O72 2.141 . S
Mg65 O73 2.048 . S
Mg65 O74 2.048 . S
Mg65 O77 2.141 . S
C66 O67 1.313 . S
C66 O73 1.195 . S
O67 C66 1.313 . S
C68 O69 1.245 . S
C68 O77 1.289 . S
O69 C68 1.245 . S
C70 O71 1.245 . S
C70 O72 1.289 . S
O71 C70 1.245 . S
O72 Mg65 2.141 . S
O72 C70 1.289 . S
O73 Mg65 2.048 . S
O73 C66 1.195 . S
O74 Mg65 2.048 . S
O74 C75 1.195 . S
C75 O74 1.195 . S
C75 O76 1.313 . S
O76 C75 1.313 . S
O77 Mg65 2.141 . S
O77 C68 1.289 . S
Mg78 O85 2.141 1_565 S
Mg78 O86 2.048 1_565 S
Mg78 O87 2.048 . S
Mg78 O90 2.141 . S
C79 O80 1.313 . S
C79 O86 1.195 . S
O80 C79 1.313 . S
C81 O82 1.279 . S
C81 O90 1.289 . S
O82 C81 1.279 . S
C83 O84 1.245 . S
C83 O85 1.289 . S
O84 C83 1.245 . S
O85 Mg78 2.141 1_545 S
O85 C83 1.289 . S
O86 Mg78 2.048 1_545 S
O86 C79 1.195 . S
O87 Mg78 2.048 . S
O87 C88 1.195 . S
C88 O87 1.195 . S
C88 O89 1.313 1_565 S
O89 C88 1.313 1_545 S
O90 Mg78 2.141 . S
O90 C81 1.289 . S
Mg91 O98 2.141 1_655 S
Mg91 O99 2.048 1_655 S
Mg91 O100 2.048 1_565 S
Mg91 O103 2.141 1_565 S
C92 O93 1.313 . S
C92 O99 1.195 . S
O93 C92 1.313 . S
C94 O95 1.245 . S
C94 O103 1.289 . S
O95 C94 1.245 . S
C96 O97 1.245 . S
C96 O98 1.289 . S
O97 C96 1.245 . S
O98 Mg91 2.141 1_455 S
O98 C96 1.289 . S
O99 Mg91 2.048 1_455 S
O99 C92 1.195 . S
O100 Mg91 2.048 1_545 S
O100 C101 1.195 . S
C101 O100 1.195 . S
C101 O102 1.313 1_655 S
O102 C101 1.313 1_455 S
O103 Mg91 2.141 1_545 S
O103 C94 1.289 . S
C104 O105 1.160 . S
C104 O111 1.190 . S
O105 C104 1.160 . S
O106 Zn107 1.899 . S
O106 C114 1.284 . S
Zn107 O106 1.899 . S
Zn107 O108 2.032 1_554 S
Zn107 O111 2.117 . S
Zn107 O116 1.977 . S
O108 Zn107 2.032 1_556 S
O108 C112 1.278 . S
C109 O110 1.203 . S
C109 O116 1.267 . S
O110 C109 1.203 . S
O111 C104 1.190 . S
O111 Zn107 2.117 . S
C112 O108 1.278 . S
C112 O113 1.211 . S
O113 C112 1.211 . S
C114 O106 1.284 . S
C114 O115 1.273 . S
O115 C114 1.273 . S
O116 Zn107 1.977 . S
O116 C109 1.267 . S
C117 O118 1.160 . S
C117 O124 1.185 . S
O118 C117 1.160 . S
O119 Zn120 1.899 . S
O119 C127 1.284 . S
Zn120 O119 1.899 . S
Zn120 O121 2.032 . S
Zn120 O124 2.086 . S
Zn120 O129 1.977 . S
O121 Zn120 2.032 . S
O121 C125 1.278 . S
C122 O123 1.203 . S
C122 O129 1.267 . S
O123 C122 1.203 . S
O124 C117 1.185 . S
O124 Zn120 2.086 . S
C125 O121 1.278 . S
C125 O126 1.211 . S
O126 C125 1.211 . S
C127 O119 1.284 . S
C127 O128 1.273 . S
O128 C127 1.273 . S
O129 Zn120 1.977 . S
O129 C122 1.267 . S
C130 O131 1.160 . S
C130 O137 1.185 . S
O131 C130 1.160 . S
O132 Zn133 1.899 . S
O132 C140 1.284 . S
Zn133 O132 1.899 . S
Zn133 O134 2.032 . S
Zn133 O137 2.086 . S
Zn133 O142 1.977 . S
O134 Zn133 2.032 . S
O134 C138 1.278 . S
C135 O136 1.203 . S
C135 O142 1.267 . S
O136 C135 1.203 . S
O137 C130 1.185 . S
O137 Zn133 2.086 . S
C138 O134 1.278 . S
C138 O139 1.211 . S
O139 C138 1.211 . S
C140 O132 1.284 . S
C140 O141 1.273 . S
O141 C140 1.273 . S
O142 Zn133 1.977 . S
O142 C135 1.267 . S
C143 O144 1.160 . S
C143 O150 1.185 . S
O144 C143 1.160 . S
O145 Zn146 1.899 . S
O145 C153 1.284 . S
Zn146 O145 1.899 . S
Zn146 O147 2.032 . S
Zn146 O150 2.086 . S
Zn146 O155 1.977 . S
O147 Zn146 2.032 . S
O147 C151 1.278 . S
C148 O149 1.203 . S
C148 O155 1.267 . S
O149 C148 1.203 . S
O150 C143 1.185 . S
O150 Zn146 2.086 . S
C151 O147 1.278 . S
C151 O152 1.211 . S
O152 C151 1.211 . S
C153 O145 1.284 . S
C153 O154 1.273 . S
O154 C153 1.273 . S
O155 Zn146 1.977 . S
O155 C148 1.267 . S
C156 O157 1.160 . S
C156 O163 1.185 . S
O157 C156 1.160 . S
O158 Zn159 1.899 . S
O158 C166 1.284 . S
Zn159 O158 1.899 . S
Zn159 O160 2.032 . S
Zn159 O163 2.086 . S
Zn159 O168 1.977 . S
O160 Zn159 2.032 . S
O160 C164 1.278 . S
C161 O162 1.203 . S
C161 O168 1.267 . S
O162 C161 1.203 . S
O163 C156 1.185 . S
O163 Zn159 2.086 . S
C164 O160 1.278 . S
C164 O165 1.211 . S
O165 C164 1.211 . S
C166 O158 1.284 . S
C166 O167 1.273 . S
O167 C166 1.273 . S
O168 Zn159 1.977 . S
O168 C161 1.267 . S
C169 O170 1.160 . S
C169 O176 1.185 . S
O170 C169 1.160 . S
O171 Zn172 1.899 . S
O171 C179 1.284 . S
Zn172 O171 1.899 . S
Zn172 O173 2.032 . S
Zn172 O176 2.086 . S
Zn172 O181 1.977 . S
O173 Zn172 2.032 . S
O173 C177 1.278 . S
C174 O175 1.203 . S
C174 O181 1.267 . S
O175 C174 1.203 . S
O176 C169 1.185 . S
O176 Zn172 2.086 . S
C177 O173 1.278 . S
C177 O178 1.211 . S
O178 C177 1.211 . S
C179 O171 1.284 . S
C179 O180 1.273 . S
O180 C179 1.273 . S
O181 Zn172 1.977 . S
O181 C174 1.267 . S
C182 O183 1.160 . S
C182 O189 1.190 . S
O183 C182 1.160 . S
O184 Zn185 1.899 . S
O184 C192 1.284 . S
Zn185 O184 1.899 . S
Zn185 O186 2.032 1_554 S
Zn185 O189 2.117 . S
Zn185 O194 1.977 . S
O186 Zn185 2.032 1_556 S
O186 C190 1.278 . S
C187 O188 1.203 . S
C187 O194 1.267 . S
O188 C187 1.203 . S
O189 C182 1.190 . S
O189 Zn185 2.117 . S
C190 O186 1.278 . S
C190 O191 1.211 . S
O191 C190 1.211 . S
C192 O184 1.284 . S
C192 O193 1.273 . S
O193 C192 1.273 . S
O194 Zn185 1.977 . S
O194 C187 1.267 . S
C195 O196 1.160 . S
C195 O202 1.185 . S
O196 C195 1.160 . S
O197 Zn198 1.899 . S
O197 C205 1.284 . S
Zn198 O197 1.899 . S
Zn198 O199 2.032 . S
Zn198 O202 2.086 . S
Zn198 O207 1.977 . S
O199 Zn198 2.032 . S
O199 C203 1.278 . S
C200 O201 1.203 . S
C200 O207 1.267 . S
O201 C200 1.203 . S
O202 C195 1.185 . S
O202 Zn198 2.086 . S
C203 O199 1.278 . S
C203 O204 1.211 . S
O204 C203 1.211 . S
C205 O197 1.284 . S
C205 O206 1.273 . S
O206 C205 1.273 . S
O207 Zn198 1.977 . S
O207 C200 1.267 . S
H208 C216 0.929 . S
H209 C218 0.930 . S
H210 C220 0.930 . S
H211 C223 0.929 . S
H212 C226 0.930 . S
H213 C228 0.960 . S
H214 C228 0.960 . S
H215 C228 0.960 . S
C216 H208 0.929 . S
C216 C217 1.377 . S
C216 C218 1.384 . S
C217 C216 1.377 . S
C217 C223 1.390 . S
C218 H209 0.930 . S
C218 C216 1.384 . S
C218 C219 1.372 . S
C219 C218 1.372 . S
C219 C220 1.400 . S
C219 C224 1.490 . S
C220 H210 0.930 . S
C220 C219 1.400 . S
C220 C223 1.386 . S
H221 C237 0.930 . S
H222 C238 0.931 . S
C223 H211 0.929 . S
C223 C217 1.390 . S
C223 C220 1.386 . S
C224 C219 1.490 . S
C224 C226 1.395 . S
C224 C227 1.403 . S
H225 C231 0.930 . S
C226 H212 0.930 . S
C226 C224 1.395 . S
C226 C229 1.403 . S
C227 C224 1.403 . S
C227 C228 1.524 . S
C227 C231 1.400 . S
C228 H213 0.960 . S
C228 H214 0.960 . S
C228 H215 0.960 . S
C228 C227 1.524 . S
C229 C226 1.403 . S
C229 C230 1.392 . S
C229 C233 1.495 . S
C230 C229 1.392 . S
C230 C231 1.385 . S
C230 C232 1.478 . S
C231 H225 0.930 . S
C231 C227 1.400 . S
C231 C230 1.385 . S
C232 C230 1.478 . S
C232 C234 1.381 . S
C232 C238 1.383 . S
C233 C229 1.495 . S
C233 H239 0.959 . S
C233 H240 0.961 . S
C233 H241 0.960 . S
C234 C232 1.381 . S
C234 C235 1.394 . S
C234 H242 0.930 . S
C235 C234 1.394 . S
C235 C236 1.383 . S
C235 H243 0.929 . S
C236 C235 1.383 . S
C236 C237 1.377 . S
C237 H221 0.930 . S
C237 C236 1.377 . S
C237 C238 1.379 . S
C238 H222 0.931 . S
C238 C232 1.383 . S
C238 C237 1.379 . S
H239 C233 0.959 . S
H240 C233 0.961 . S
H241 C233 0.960 . S
H242 C234 0.930 . S
H243 C235 0.929 . S
H244 C252 0.929 . S
H245 C254 0.930 . S
H246 C256 0.930 . S
H247 C259 0.929 . S
H248 C262 0.930 . S
H249 C264 0.960 . S
H250 C264 0.960 . S
H251 C264 0.960 . S
C252 H244 0.929 . S
C252 C253 1.377 . S
C252 C254 1.384 . S
C253 C252 1.377 . S
C253 C259 1.390 . S
C254 H245 0.930 . S
C254 C252 1.384 . S
C254 C255 1.372 . S
C255 C254 1.372 . S
C255 C256 1.400 . S
C255 C260 1.490 . S
C256 H246 0.930 . S
C256 C255 1.400 . S
C256 C259 1.386 . S
H257 C273 0.930 . S
H258 C274 0.931 . S
C259 H247 0.929 . S
C259 C253 1.390 . S
C259 C256 1.386 . S
C260 C255 1.490 . S
C260 C262 1.395 . S
C260 C263 1.403 . S
H261 C267 0.930 . S
C262 H248 0.930 . S
C262 C260 1.395 . S
C262 C265 1.403 . S
C263 C260 1.403 . S
C263 C264 1.524 . S
C263 C267 1.400 . S
C264 H249 0.960 . S
C264 H250 0.960 . S
C264 H251 0.960 . S
C264 C263 1.524 . S
C265 C262 1.403 . S
C265 C266 1.392 . S
C265 C269 1.495 . S
C266 C265 1.392 . S
C266 C267 1.385 . S
C266 C268 1.478 . S
C267 H261 0.930 . S
C267 C263 1.400 . S
C267 C266 1.385 . S
C268 C266 1.478 . S
C268 C270 1.381 . S
C268 C274 1.383 . S
C269 C265 1.495 . S
C269 H275 0.959 . S
C269 H276 0.961 . S
C269 H277 0.960 . S
C270 C268 1.381 . S
C270 C271 1.394 . S
C270 H278 0.930 . S
C271 C270 1.394 . S
C271 C272 1.383 . S
C271 H279 0.929 . S
C272 C271 1.383 . S
C272 C273 1.377 . S
C273 H257 0.930 . S
C273 C272 1.377 . S
C273 C274 1.379 . S
C274 H258 0.931 . S
C274 C268 1.383 . S
C274 C273 1.379 . S
H275 C269 0.959 . S
H276 C269 0.961 . S
H277 C269 0.960 . S
H278 C270 0.930 . S
H279 C271 0.929 . S
H280 C288 0.929 . S
H281 C290 0.930 . S
H282 C292 0.930 . S
H283 C295 0.929 . S
H284 C298 0.930 . S
H285 C300 0.960 . S
H286 C300 0.960 . S
H287 C300 0.960 . S
C288 H280 0.929 . S
C288 C289 1.377 . S
C288 C290 1.384 . S
C289 C288 1.377 . S
C289 C295 1.390 . S
C290 H281 0.930 . S
C290 C288 1.384 . S
C290 C291 1.372 . S
C291 C290 1.372 . S
C291 C292 1.400 . S
C291 C296 1.490 . S
C292 H282 0.930 . S
C292 C291 1.400 . S
C292 C295 1.386 . S
H293 C309 0.930 . S
H294 C310 0.931 . S
C295 H283 0.929 . S
C295 C289 1.390 . S
C295 C292 1.386 . S
C296 C291 1.490 . S
C296 C298 1.395 . S
C296 C299 1.403 . S
H297 C303 0.930 . S
C298 H284 0.930 . S
C298 C296 1.395 . S
C298 C301 1.403 . S
C299 C296 1.403 . S
C299 C300 1.524 . S
C299 C303 1.400 . S
C300 H285 0.960 . S
C300 H286 0.960 . S
C300 H287 0.960 . S
C300 C299 1.524 . S
C301 C298 1.403 . S
C301 C302 1.392 . S
C301 C305 1.495 . S
C302 C301 1.392 . S
C302 C303 1.385 . S
C302 C304 1.478 . S
C303 H297 0.930 . S
C303 C299 1.400 . S
C303 C302 1.385 . S
C304 C302 1.478 . S
C304 C306 1.381 . S
C304 C310 1.383 . S
C305 C301 1.495 . S
C305 H311 0.959 . S
C305 H312 0.961 . S
C305 H313 0.960 . S
C306 C304 1.381 . S
C306 C307 1.394 . S
C306 H314 0.930 . S
C307 C306 1.394 . S
C307 C308 1.383 . S
C307 H315 0.929 . S
C308 C307 1.383 . S
C308 C309 1.377 . S
C309 H293 0.930 . S
C309 C308 1.377 . S
C309 C310 1.379 . S
C310 H294 0.931 . S
C310 C304 1.383 . S
C310 C309 1.379 . S
H311 C305 0.959 . S
H312 C305 0.961 . S
H313 C305 0.960 . S
H314 C306 0.930 . S
H315 C307 0.929 . S
H316 C324 0.929 . S
H317 C326 0.930 . S
H318 C328 0.930 . S
H319 C331 0.929 . S
H320 C334 0.930 . S
H321 C336 0.960 . S
H322 C336 0.960 . S
H323 C336 0.960 . S
C324 H316 0.929 . S
C324 C325 1.377 . S
C324 C326 1.384 . S
C325 C324 1.377 . S
C325 C331 1.390 . S
C326 H317 0.930 . S
C326 C324 1.384 . S
C326 C327 1.372 . S
C327 C326 1.372 . S
C327 C328 1.400 . S
C327 C332 1.490 . S
C328 H318 0.930 . S
C328 C327 1.400 . S
C328 C331 1.386 . S
H329 C345 0.930 . S
H330 C346 0.931 . S
C331 H319 0.929 . S
C331 C325 1.390 . S
C331 C328 1.386 . S
C332 C327 1.490 . S
C332 C334 1.395 . S
C332 C335 1.403 . S
H333 C339 0.930 . S
C334 H320 0.930 . S
C334 C332 1.395 . S
C334 C337 1.403 . S
C335 C332 1.403 . S
C335 C336 1.524 . S
C335 C339 1.400 . S
C336 H321 0.960 . S
C336 H322 0.960 . S
C336 H323 0.960 . S
C336 C335 1.524 . S
C337 C334 1.403 . S
C337 C338 1.392 . S
C337 C341 1.495 . S
C338 C337 1.392 . S
C338 C339 1.385 . S
C338 C340 1.478 . S
C339 H333 0.930 . S
C339 C335 1.400 . S
C339 C338 1.385 . S
C340 C338 1.478 . S
C340 C342 1.381 . S
C340 C346 1.383 . S
C341 C337 1.495 . S
C341 H347 0.959 . S
C341 H348 0.961 . S
C341 H349 0.960 . S
C342 C340 1.381 . S
C342 C343 1.394 . S
C342 H350 0.930 . S
C343 C342 1.394 . S
C343 C344 1.383 . S
C343 H351 0.929 . S
C344 C343 1.383 . S
C344 C345 1.377 . S
C345 H329 0.930 . S
C345 C344 1.377 . S
C345 C346 1.379 . S
C346 H330 0.931 . S
C346 C340 1.383 . S
C346 C345 1.379 . S
H347 C341 0.959 . S
H348 C341 0.961 . S
H349 C341 0.960 . S
H350 C342 0.930 . S
H351 C343 0.929 . S
H352 C360 0.929 . S
H353 C362 0.930 . S
H354 C364 0.930 . S
H355 C367 0.929 . S
H356 C370 0.930 . S
H357 C372 0.960 . S
H358 C372 0.960 . S
H359 C372 0.960 . S
C360 H352 0.929 . S
C360 C361 1.377 . S
C360 C362 1.384 . S
C361 C360 1.377 . S
C361 C367 1.390 . S
C362 H353 0.930 . S
C362 C360 1.384 . S
C362 C363 1.372 . S
C363 C362 1.372 . S
C363 C364 1.400 . S
C363 C368 1.490 . S
C364 H354 0.930 . S
C364 C363 1.400 . S
C364 C367 1.386 . S
H365 C381 0.930 . S
H366 C382 0.931 . S
C367 H355 0.929 . S
C367 C361 1.390 . S
C367 C364 1.386 . S
C368 C363 1.490 . S
C368 C370 1.395 . S
C368 C371 1.403 . S
H369 C375 0.930 . S
C370 H356 0.930 . S
C370 C368 1.395 . S
C370 C373 1.403 . S
C371 C368 1.403 . S
C371 C372 1.524 . S
C371 C375 1.400 . S
C372 H357 0.960 . S
C372 H358 0.960 . S
C372 H359 0.960 . S
C372 C371 1.524 . S
C373 C370 1.403 . S
C373 C374 1.392 . S
C373 C377 1.495 . S
C374 C373 1.392 . S
C374 C375 1.385 . S
C374 C376 1.478 . S
C375 H369 0.930 . S
C375 C371 1.400 . S
C375 C374 1.385 . S
C376 C374 1.478 . S
C376 C378 1.381 . S
C376 C382 1.383 . S
C377 C373 1.495 . S
C377 H383 0.959 . S
C377 H384 0.961 . S
C377 H385 0.960 . S
C378 C376 1.381 . S
C378 C379 1.394 . S
C378 H386 0.930 . S
C379 C378 1.394 . S
C379 C380 1.383 . S
C379 H387 0.929 1_556 S
C380 C379 1.383 . S
C380 C381 1.377 . S
C381 H365 0.930 . S
C381 C380 1.377 . S
C381 C382 1.379 . S
C382 H366 0.931 . S
C382 C376 1.383 . S
C382 C381 1.379 . S
H383 C377 0.959 . S
H384 C377 0.961 . S
H385 C377 0.960 . S
H386 C378 0.930 . S
H387 C379 0.929 1_554 S
H388 C396 0.929 . S
H389 C398 0.930 . S
H390 C400 0.930 . S
H391 C403 0.929 . S
H392 C406 0.930 . S
H393 C408 0.960 . S
H394 C408 0.960 . S
H395 C408 0.960 . S
C396 H388 0.929 . S
C396 C397 1.377 . S
C396 C398 1.384 . S
C397 C396 1.377 . S
C397 C403 1.390 . S
C398 H389 0.930 . S
C398 C396 1.384 . S
C398 C399 1.372 . S
C399 C398 1.372 . S
C399 C400 1.400 . S
C399 C404 1.490 . S
C400 H390 0.930 . S
C400 C399 1.400 . S
C400 C403 1.386 . S
H401 C417 0.930 . S
H402 C418 0.931 . S
C403 H391 0.929 . S
C403 C397 1.390 . S
C403 C400 1.386 . S
C404 C399 1.490 . S
C404 C406 1.395 . S
C404 C407 1.403 . S
H405 C411 0.930 . S
C406 H392 0.930 . S
C406 C404 1.395 . S
C406 C409 1.403 . S
C407 C404 1.403 . S
C407 C408 1.524 . S
C407 C411 1.400 . S
C408 H393 0.960 . S
C408 H394 0.960 . S
C408 H395 0.960 . S
C408 C407 1.524 . S
C409 C406 1.403 . S
C409 C410 1.392 . S
C409 C413 1.495 . S
C410 C409 1.392 . S
C410 C411 1.385 . S
C410 C412 1.478 . S
C411 H405 0.930 . S
C411 C407 1.400 . S
C411 C410 1.385 . S
C412 C410 1.478 . S
C412 C414 1.381 . S
C412 C418 1.383 . S
C413 C409 1.495 . S
C413 H419 0.959 . S
C413 H420 0.961 . S
C413 H421 0.960 . S
C414 C412 1.381 . S
C414 C415 1.394 . S
C414 H422 0.930 . S
C415 C414 1.394 . S
C415 C416 1.383 . S
C415 H423 0.929 . S
C416 C415 1.383 . S
C416 C417 1.377 . S
C417 H401 0.930 . S
C417 C416 1.377 . S
C417 C418 1.379 . S
C418 H402 0.931 . S
C418 C412 1.383 . S
C418 C417 1.379 . S
H419 C413 0.959 . S
H420 C413 0.961 . S
H421 C413 0.960 . S
H422 C414 0.930 . S
H423 C415 0.929 . S
H424 C432 0.929 . S
H425 C434 0.930 . S
H426 C436 0.930 . S
H427 C439 0.929 . S
H428 C442 0.930 . S
H429 C444 0.960 . S
H430 C444 0.960 . S
H431 C444 0.960 . S
C432 H424 0.929 . S
C432 C433 1.377 . S
C432 C434 1.384 . S
C433 C432 1.377 . S
C433 C439 1.390 . S
C434 H425 0.930 . S
C434 C432 1.384 . S
C434 C435 1.372 . S
C435 C434 1.372 . S
C435 C436 1.400 . S
C435 C440 1.490 . S
C436 H426 0.930 . S
C436 C435 1.400 . S
C436 C439 1.386 . S
H437 C453 0.930 . S
H438 C454 0.931 . S
C439 H427 0.929 . S
C439 C433 1.390 . S
C439 C436 1.386 . S
C440 C435 1.490 . S
C440 C442 1.395 . S
C440 C443 1.403 . S
H441 C447 0.930 . S
C442 H428 0.930 . S
C442 C440 1.395 . S
C442 C445 1.403 . S
C443 C440 1.403 . S
C443 C444 1.524 . S
C443 C447 1.400 . S
C444 H429 0.960 . S
C444 H430 0.960 . S
C444 H431 0.960 . S
C444 C443 1.524 . S
C445 C442 1.403 . S
C445 C446 1.392 . S
C445 C449 1.495 . S
C446 C445 1.392 . S
C446 C447 1.385 . S
C446 C448 1.478 . S
C447 H441 0.930 . S
C447 C443 1.400 . S
C447 C446 1.385 . S
C448 C446 1.478 . S
C448 C450 1.381 . S
C448 C454 1.383 . S
C449 C445 1.495 . S
C449 H455 0.959 . S
C449 H456 0.961 . S
C449 H457 0.960 . S
C450 C448 1.381 . S
C450 C451 1.394 . S
C450 H458 0.930 . S
C451 C450 1.394 . S
C451 C452 1.383 . S
C451 H459 0.929 . S
C452 C451 1.383 . S
C452 C453 1.377 . S
C453 H437 0.930 . S
C453 C452 1.377 . S
C453 C454 1.379 . S
C454 H438 0.931 . S
C454 C448 1.383 . S
C454 C453 1.379 . S
H455 C449 0.959 . S
H456 C449 0.961 . S
H457 C449 0.960 . S
H458 C450 0.930 . S
H459 C451 0.929 . S
H460 C468 0.929 . S
H461 C470 0.930 . S
H462 C472 0.930 . S
H463 C475 0.929 . S
H464 C478 0.930 . S
H465 C480 0.960 . S
H466 C480 0.960 . S
H467 C480 0.960 . S
C468 H460 0.929 . S
C468 C469 1.377 . S
C468 C470 1.384 . S
C469 C468 1.377 . S
C469 C475 1.390 . S
C470 H461 0.930 . S
C470 C468 1.384 . S
C470 C471 1.372 . S
C471 C470 1.372 . S
C471 C472 1.400 . S
C471 C476 1.490 . S
C472 H462 0.930 . S
C472 C471 1.400 . S
C472 C475 1.386 . S
H473 C489 0.930 . S
H474 C490 0.931 . S
C475 H463 0.929 . S
C475 C469 1.390 . S
C475 C472 1.386 . S
C476 C471 1.490 . S
C476 C478 1.395 . S
C476 C479 1.403 . S
H477 C483 0.930 . S
C478 H464 0.930 . S
C478 C476 1.395 . S
C478 C481 1.403 . S
C479 C476 1.403 . S
C479 C480 1.524 . S
C479 C483 1.400 . S
C480 H465 0.960 . S
C480 H466 0.960 . S
C480 H467 0.960 . S
C480 C479 1.524 . S
C481 C478 1.403 . S
C481 C482 1.392 . S
C481 C485 1.495 . S
C482 C481 1.392 . S
C482 C483 1.385 . S
C482 C484 1.478 . S
C483 H477 0.930 . S
C483 C479 1.400 . S
C483 C482 1.385 . S
C484 C482 1.478 . S
C484 C486 1.381 . S
C484 C490 1.383 . S
C485 C481 1.495 . S
C485 H491 0.959 . S
C485 H492 0.961 . S
C485 H493 0.960 . S
C486 C484 1.381 . S
C486 C487 1.394 . S
C486 H494 0.930 . S
C487 C486 1.394 . S
C487 C488 1.383 . S
C487 H495 0.929 . S
C488 C487 1.383 . S
C488 C489 1.377 . S
C489 H473 0.930 . S
C489 C488 1.377 . S
C489 C490 1.379 . S
C490 H474 0.931 . S
C490 C484 1.383 . S
C490 C489 1.379 . S
H491 C485 0.959 . S
H492 C485 0.961 . S
H493 C485 0.960 . S
H494 C486 0.930 . S
H495 C487 0.929 . S
H496 C504 0.929 . S
H497 C506 0.930 . S
H498 C508 0.930 . S
H499 C511 0.929 . S
H500 C514 0.930 . S
H501 C516 0.960 . S
H502 C516 0.960 . S
H503 C516 0.960 . S
C504 H496 0.929 . S
C504 C505 1.377 . S
C504 C506 1.384 . S
C505 C504 1.377 . S
C505 C511 1.390 . S
C506 H497 0.930 . S
C506 C504 1.384 . S
C506 C507 1.372 . S
C507 C506 1.372 . S
C507 C508 1.400 . S
C507 C512 1.490 . S
C508 H498 0.930 . S
C508 C507 1.400 . S
C508 C511 1.386 . S
H509 C525 0.930 . S
H510 C526 0.931 . S
C511 H499 0.929 . S
C511 C505 1.390 . S
C511 C508 1.386 . S
C512 C507 1.490 . S
C512 C514 1.395 . S
C512 C515 1.403 . S
H513 C519 0.930 . S
C514 H500 0.930 . S
C514 C512 1.395 . S
C514 C517 1.403 . S
C515 C512 1.403 . S
C515 C516 1.524 . S
C515 C519 1.400 . S
C516 H501 0.960 . S
C516 H502 0.960 . S
C516 H503 0.960 . S
C516 C515 1.524 . S
C517 C514 1.403 . S
C517 C518 1.392 . S
C517 C521 1.495 . S
C518 C517 1.392 . S
C518 C519 1.385 . S
C518 C520 1.478 . S
C519 H513 0.930 . S
C519 C515 1.400 . S
C519 C518 1.385 . S
C520 C518 1.478 . S
C520 C522 1.381 . S
C520 C526 1.383 . S
C521 C517 1.495 . S
C521 H527 0.959 . S
C521 H528 0.961 . S
C521 H529 0.960 . S
C522 C520 1.381 . S
C522 C523 1.394 . S
C522 H530 0.930 . S
C523 C522 1.394 . S
C523 C524 1.383 . S
C523 H531 0.929 . S
C524 C523 1.383 . S
C524 C525 1.377 . S
C525 H509 0.930 . S
C525 C524 1.377 . S
C525 C526 1.379 . S
C526 H510 0.931 . S
C526 C520 1.383 . S
C526 C525 1.379 . S
H527 C521 0.959 . S
H528 C521 0.961 . S
H529 C521 0.960 . S
H530 C522 0.930 . S
H531 C523 0.929 . S
H532 C540 0.929 . S
H533 C542 0.930 . S
H534 C544 0.930 . S
H535 C547 0.929 . S
H536 C550 0.930 . S
H537 C552 0.960 . S
H538 C552 0.960 . S
H539 C552 0.960 . S
C540 H532 0.929 . S
C540 C541 1.377 . S
C540 C542 1.384 . S
C541 C540 1.377 . S
C541 C547 1.390 . S
C542 H533 0.930 . S
C542 C540 1.384 . S
C542 C543 1.372 . S
C543 C542 1.372 . S
C543 C544 1.400 . S
C543 C548 1.490 . S
C544 H534 0.930 . S
C544 C543 1.400 . S
C544 C547 1.386 . S
H545 C561 0.930 . S
H546 C562 0.931 . S
C547 H535 0.929 . S
C547 C541 1.390 . S
C547 C544 1.386 . S
C548 C543 1.490 . S
C548 C550 1.395 . S
C548 C551 1.403 . S
H549 C555 0.930 . S
C550 H536 0.930 . S
C550 C548 1.395 . S
C550 C553 1.403 . S
C551 C548 1.403 . S
C551 C552 1.524 . S
C551 C555 1.400 . S
C552 H537 0.960 . S
C552 H538 0.960 . S
C552 H539 0.960 . S
C552 C551 1.524 . S
C553 C550 1.403 . S
C553 C554 1.392 . S
C553 C557 1.495 . S
C554 C553 1.392 . S
C554 C555 1.385 . S
C554 C556 1.478 . S
C555 H549 0.930 . S
C555 C551 1.400 . S
C555 C554 1.385 . S
C556 C554 1.478 . S
C556 C558 1.381 . S
C556 C562 1.383 . S
C557 C553 1.495 . S
C557 H563 0.959 . S
C557 H564 0.961 . S
C557 H565 0.960 . S
C558 C556 1.381 . S
C558 C559 1.394 . S
C558 H566 0.930 . S
C559 C558 1.394 . S
C559 C560 1.383 . S
C559 H567 0.929 . S
C560 C559 1.383 . S
C560 C561 1.377 . S
C561 H545 0.930 . S
C561 C560 1.377 . S
C561 C562 1.379 . S
C562 H546 0.931 . S
C562 C556 1.383 . S
C562 C561 1.379 . S
H563 C557 0.959 . S
H564 C557 0.961 . S
H565 C557 0.960 . S
H566 C558 0.930 . S
H567 C559 0.929 . S
H568 C576 0.929 . S
H569 C578 0.930 . S
H570 C580 0.930 . S
H571 C583 0.929 . S
H572 C586 0.930 . S
H573 C588 0.960 . S
H574 C588 0.960 . S
H575 C588 0.960 . S
C576 H568 0.929 . S
C576 C577 1.377 . S
C576 C578 1.384 . S
C577 C576 1.377 . S
C577 C583 1.390 . S
C578 H569 0.930 . S
C578 C576 1.384 . S
C578 C579 1.372 . S
C579 C578 1.372 . S
C579 C580 1.400 . S
C579 C584 1.490 . S
C580 H570 0.930 . S
C580 C579 1.400 . S
C580 C583 1.386 . S
H581 C597 0.930 . S
H582 C598 0.931 . S
C583 H571 0.929 . S
C583 C577 1.390 . S
C583 C580 1.386 . S
C584 C579 1.490 . S
C584 C586 1.395 . S
C584 C587 1.403 . S
H585 C591 0.930 . S
C586 H572 0.930 . S
C586 C584 1.395 . S
C586 C589 1.403 . S
C587 C584 1.403 . S
C587 C588 1.524 . S
C587 C591 1.400 . S
C588 H573 0.960 . S
C588 H574 0.960 . S
C588 H575 0.960 . S
C588 C587 1.524 . S
C589 C586 1.403 . S
C589 C590 1.392 . S
C589 C593 1.495 . S
C590 C589 1.392 . S
C590 C591 1.385 . S
C590 C592 1.478 . S
C591 H585 0.930 . S
C591 C587 1.400 . S
C591 C590 1.385 . S
C592 C590 1.478 . S
C592 C594 1.381 . S
C592 C598 1.383 . S
C593 C589 1.495 . S
C593 H599 0.959 . S
C593 H600 0.961 . S
C593 H601 0.960 . S
C594 C592 1.381 . S
C594 C595 1.394 . S
C594 H602 0.930 . S
C595 C594 1.394 . S
C595 C596 1.383 . S
C595 H603 0.929 . S
C596 C595 1.383 . S
C596 C597 1.377 . S
C597 H581 0.930 . S
C597 C596 1.377 . S
C597 C598 1.379 . S
C598 H582 0.931 . S
C598 C592 1.383 . S
C598 C597 1.379 . S
H599 C593 0.959 . S
H600 C593 0.961 . S
H601 C593 0.960 . S
H602 C594 0.930 . S
H603 C595 0.929 . S
H604 C612 0.929 . S
H605 C614 0.930 . S
H606 C616 0.930 . S
H607 C619 0.929 . S
H608 C622 0.930 . S
H609 C624 0.960 . S
H610 C624 0.960 . S
H611 C624 0.960 . S
C612 H604 0.929 . S
C612 C613 1.377 . S
C612 C614 1.384 . S
C613 C612 1.377 . S
C613 C619 1.390 . S
C614 H605 0.930 . S
C614 C612 1.384 . S
C614 C615 1.372 . S
C615 C614 1.372 . S
C615 C616 1.400 . S
C615 C620 1.490 . S
C616 H606 0.930 . S
C616 C615 1.400 . S
C616 C619 1.386 . S
H617 C633 0.930 . S
H618 C634 0.931 . S
C619 H607 0.929 . S
C619 C613 1.390 . S
C619 C616 1.386 . S
C620 C615 1.490 . S
C620 C622 1.395 . S
C620 C623 1.403 . S
H621 C627 0.930 . S
C622 H608 0.930 . S
C622 C620 1.395 . S
C622 C625 1.403 . S
C623 C620 1.403 . S
C623 C624 1.524 . S
C623 C627 1.400 . S
C624 H609 0.960 . S
C624 H610 0.960 . S
C624 H611 0.960 . S
C624 C623 1.524 . S
C625 C622 1.403 . S
C625 C626 1.392 . S
C625 C629 1.495 . S
C626 C625 1.392 . S
C626 C627 1.385 . S
C626 C628 1.478 . S
C627 H621 0.930 . S
C627 C623 1.400 . S
C627 C626 1.385 . S
C628 C626 1.478 . S
C628 C630 1.381 . S
C628 C634 1.383 . S
C629 C625 1.495 . S
C629 H635 0.959 . S
C629 H636 0.961 . S
C629 H637 0.960 . S
C630 C628 1.381 . S
C630 C631 1.394 . S
C630 H638 0.930 . S
C631 C630 1.394 . S
C631 C632 1.383 . S
C631 H639 0.929 . S
C632 C631 1.383 . S
C632 C633 1.377 . S
C633 H617 0.930 . S
C633 C632 1.377 . S
C633 C634 1.379 . S
C634 H618 0.931 . S
C634 C628 1.383 . S
C634 C633 1.379 . S
H635 C629 0.959 . S
H636 C629 0.961 . S
H637 C629 0.960 . S
H638 C630 0.930 . S
H639 C631 0.929 . S
H640 C648 0.929 . S
H641 C650 0.930 . S
H642 C652 0.930 . S
H643 C655 0.929 . S
H644 C658 0.930 . S
H645 C660 0.960 . S
H646 C660 0.960 . S
H647 C660 0.960 . S
C648 H640 0.929 . S
C648 C649 1.377 . S
C648 C650 1.384 . S
C649 C648 1.377 . S
C649 C655 1.390 . S
C650 H641 0.930 . S
C650 C648 1.384 . S
C650 C651 1.372 . S
C651 C650 1.372 . S
C651 C652 1.400 . S
C651 C656 1.490 . S
C652 H642 0.930 . S
C652 C651 1.400 . S
C652 C655 1.386 . S
H653 C669 0.930 . S
H654 C670 0.931 . S
C655 H643 0.929 . S
C655 C649 1.390 . S
C655 C652 1.386 . S
C656 C651 1.490 . S
C656 C658 1.395 . S
C656 C659 1.403 . S
H657 C663 0.930 . S
C658 H644 0.930 . S
C658 C656 1.395 . S
C658 C661 1.403 . S
C659 C656 1.403 . S
C659 C660 1.524 . S
C659 C663 1.400 . S
C660 H645 0.960 . S
C660 H646 0.960 . S
C660 H647 0.960 . S
C660 C659 1.524 . S
C661 C658 1.403 . S
C661 C662 1.392 . S
C661 C665 1.495 . S
C662 C661 1.392 . S
C662 C663 1.385 . S
C662 C664 1.478 . S
C663 H657 0.930 . S
C663 C659 1.400 . S
C663 C662 1.385 . S
C664 C662 1.478 . S
C664 C666 1.381 . S
C664 C670 1.383 . S
C665 C661 1.495 . S
C665 H671 0.959 . S
C665 H672 0.961 . S
C665 H673 0.960 . S
C666 C664 1.381 . S
C666 C667 1.394 . S
C666 H674 0.930 . S
C667 C666 1.394 . S
C667 C668 1.383 . S
C667 H675 0.929 . S
C668 C667 1.383 . S
C668 C669 1.377 . S
C669 H653 0.930 . S
C669 C668 1.377 . S
C669 C670 1.379 . S
C670 H654 0.931 . S
C670 C664 1.383 . S
C670 C669 1.379 . S
H671 C665 0.959 . S
H672 C665 0.961 . S
H673 C665 0.960 . S
H674 C666 0.930 . S
H675 C667 0.929 . S
H676 C684 0.929 . S
H677 C686 0.930 . S
H678 C688 0.930 . S
H679 C691 0.929 . S
H680 C694 0.930 . S
H681 C696 0.960 . S
H682 C696 0.960 . S
H683 C696 0.960 . S
C684 H676 0.929 . S
C684 C685 1.377 . S
C684 C686 1.384 . S
C685 C684 1.377 . S
C685 C691 1.390 . S
C686 H677 0.930 . S
C686 C684 1.384 . S
C686 C687 1.372 . S
C687 C686 1.372 . S
C687 C688 1.400 . S
C687 C692 1.490 . S
C688 H678 0.930 . S
C688 C687 1.400 . S
C688 C691 1.386 . S
H689 C705 0.930 . S
H690 C706 0.931 . S
C691 H679 0.929 . S
C691 C685 1.390 . S
C691 C688 1.386 . S
C692 C687 1.490 . S
C692 C694 1.395 . S
C692 C695 1.403 . S
H693 C699 0.930 . S
C694 H680 0.930 . S
C694 C692 1.395 . S
C694 C697 1.403 . S
C695 C692 1.403 . S
C695 C696 1.524 . S
C695 C699 1.400 . S
C696 H681 0.960 . S
C696 H682 0.960 . S
C696 H683 0.960 . S
C696 C695 1.524 . S
C697 C694 1.403 . S
C697 C698 1.392 . S
C697 C701 1.495 . S
C698 C697 1.392 . S
C698 C699 1.385 . S
C698 C700 1.478 . S
C699 H693 0.930 . S
C699 C695 1.400 . S
C699 C698 1.385 . S
C700 C698 1.478 . S
C700 C702 1.381 . S
C700 C706 1.383 . S
C701 C697 1.495 . S
C701 H707 0.959 . S
C701 H708 0.961 . S
C701 H709 0.960 . S
C702 C700 1.381 . S
C702 C703 1.394 . S
C702 H710 0.930 . S
C703 C702 1.394 . S
C703 C704 1.383 . S
C703 H711 0.929 . S
C704 C703 1.383 . S
C704 C705 1.377 . S
C705 H689 0.930 . S
C705 C704 1.377 . S
C705 C706 1.379 . S
C706 H690 0.931 . S
C706 C700 1.383 . S
C706 C705 1.379 . S
H707 C701 0.959 . S
H708 C701 0.961 . S
H709 C701 0.960 . S
H710 C702 0.930 . S
H711 C703 0.929 . S
H712 C720 0.929 . S
H713 C722 0.930 . S
H714 C724 0.930 . S
H715 C727 0.929 . S
H716 C730 0.930 . S
H717 C732 0.960 . S
H718 C732 0.960 . S
H719 C732 0.960 . S
C720 H712 0.929 . S
C720 C721 1.377 . S
C720 C722 1.384 . S
C721 C720 1.377 . S
C721 C727 1.390 . S
C722 H713 0.930 . S
C722 C720 1.384 . S
C722 C723 1.372 . S
C723 C722 1.372 . S
C723 C724 1.400 . S
C723 C728 1.490 . S
C724 H714 0.930 . S
C724 C723 1.400 . S
C724 C727 1.386 . S
H725 C741 0.930 . S
H726 C742 0.931 . S
C727 H715 0.929 . S
C727 C721 1.390 . S
C727 C724 1.386 . S
C728 C723 1.490 . S
C728 C730 1.395 . S
C728 C731 1.403 . S
H729 C735 0.930 . S
C730 H716 0.930 . S
C730 C728 1.395 . S
C730 C733 1.403 . S
C731 C728 1.403 . S
C731 C732 1.524 . S
C731 C735 1.400 . S
C732 H717 0.960 . S
C732 H718 0.960 . S
C732 H719 0.960 . S
C732 C731 1.524 . S
C733 C730 1.403 . S
C733 C734 1.392 . S
C733 C737 1.495 . S
C734 C733 1.392 . S
C734 C735 1.385 . S
C734 C736 1.478 . S
C735 H729 0.930 . S
C735 C731 1.400 . S
C735 C734 1.385 . S
C736 C734 1.478 . S
C736 C738 1.381 . S
C736 C742 1.383 . S
C737 C733 1.495 . S
C737 H743 0.959 . S
C737 H744 0.961 . S
C737 H745 0.960 1_556 S
C738 C736 1.381 . S
C738 C739 1.394 1_556 S
C738 H746 0.929 . S
C739 C738 1.394 1_554 S
C739 C740 1.383 1_554 S
C739 H747 0.929 . S
C740 C739 1.383 1_556 S
C740 C741 1.377 . S
C741 H725 0.930 . S
C741 C740 1.377 . S
C741 C742 1.379 . S
C742 H726 0.931 . S
C742 C736 1.383 . S
C742 C741 1.379 . S
H743 C737 0.959 . S
H744 C737 0.961 . S
H745 C737 0.960 1_554 S
H746 C738 0.929 . S
H747 C739 0.929 . S
H748 C756 0.929 . S
H749 C758 0.930 . S
H750 C760 0.930 . S
H751 C763 0.929 . S
H752 C766 0.930 . S
H753 C768 0.960 . S
H754 C768 0.960 . S
H755 C768 0.960 . S
C756 H748 0.929 . S
C756 C757 1.377 . S
C756 C758 1.384 . S
C757 C756 1.377 . S
C757 C763 1.390 . S
C758 H749 0.930 . S
C758 C756 1.384 . S
C758 C759 1.372 . S
C759 C758 1.372 . S
C759 C760 1.400 . S
C759 C764 1.490 . S
C760 H750 0.930 . S
C760 C759 1.400 . S
C760 C763 1.386 . S
H761 C777 0.930 . S
H762 C778 0.931 . S
C763 H751 0.929 . S
C763 C757 1.390 . S
C763 C760 1.386 . S
C764 C759 1.490 . S
C764 C766 1.395 . S
C764 C767 1.403 . S
H765 C771 0.930 . S
C766 H752 0.930 . S
C766 C764 1.395 . S
C766 C769 1.403 . S
C767 C764 1.403 . S
C767 C768 1.524 . S
C767 C771 1.400 . S
C768 H753 0.960 . S
C768 H754 0.960 . S
C768 H755 0.960 . S
C768 C767 1.524 . S
C769 C766 1.403 . S
C769 C770 1.392 . S
C769 C773 1.495 . S
C770 C769 1.392 . S
C770 C771 1.385 . S
C770 C772 1.478 . S
C771 H765 0.930 . S
C771 C767 1.400 . S
C771 C770 1.385 . S
C772 C770 1.478 . S
C772 C774 1.381 . S
C772 C778 1.383 . S
C773 C769 1.495 . S
C773 H779 0.959 . S
C773 H780 0.961 . S
C773 H781 0.960 . S
C774 C772 1.381 . S
C774 C775 1.394 . S
C774 H782 0.930 . S
C775 C774 1.394 . S
C775 C776 1.383 . S
C775 H783 0.929 . S
C776 C775 1.383 . S
C776 C777 1.377 . S
C777 H761 0.930 . S
C777 C776 1.377 . S
C777 C778 1.379 . S
C778 H762 0.931 . S
C778 C772 1.383 . S
C778 C777 1.379 . S
H779 C773 0.959 . S
H780 C773 0.961 . S
H781 C773 0.960 . S
H782 C774 0.930 . S
H783 C775 0.929 . S
H784 C792 0.929 . S
H785 C794 0.930 . S
H786 C796 0.930 . S
H787 C799 0.929 . S
H788 C802 0.930 . S
H789 C804 0.960 . S
H790 C804 0.960 . S
H791 C804 0.960 . S
C792 H784 0.929 . S
C792 C793 1.377 . S
C792 C794 1.384 . S
C793 C792 1.377 . S
C793 C799 1.390 . S
C794 H785 0.930 . S
C794 C792 1.384 . S
C794 C795 1.372 . S
C795 C794 1.372 . S
C795 C796 1.400 . S
C795 C800 1.490 . S
C796 H786 0.930 . S
C796 C795 1.400 . S
C796 C799 1.386 . S
H797 C813 0.930 . S
H798 C814 0.931 . S
C799 H787 0.929 . S
C799 C793 1.390 . S
C799 C796 1.386 . S
C800 C795 1.490 . S
C800 C802 1.395 . S
C800 C803 1.403 . S
H801 C807 0.930 . S
C802 H788 0.930 . S
C802 C800 1.395 . S
C802 C805 1.403 . S
C803 C800 1.403 . S
C803 C804 1.524 . S
C803 C807 1.400 . S
C804 H789 0.960 . S
C804 H790 0.960 . S
C804 H791 0.960 . S
C804 C803 1.524 . S
C805 C802 1.403 . S
C805 C806 1.392 . S
C805 C809 1.495 . S
C806 C805 1.392 . S
C806 C807 1.385 . S
C806 C808 1.478 . S
C807 H801 0.930 . S
C807 C803 1.400 . S
C807 C806 1.385 . S
C808 C806 1.478 . S
C808 C810 1.381 . S
C808 C814 1.383 . S
C809 C805 1.495 . S
C809 H815 0.959 . S
C809 H816 0.961 . S
C809 H817 0.960 . S
C810 C808 1.381 . S
C810 C811 1.394 . S
C810 H818 0.930 . S
C811 C810 1.394 . S
C811 C812 1.383 . S
C811 H819 0.929 . S
C812 C811 1.383 . S
C812 C813 1.377 . S
C813 H797 0.930 . S
C813 C812 1.377 . S
C813 C814 1.379 . S
C814 H798 0.931 . S
C814 C808 1.383 . S
C814 C813 1.379 . S
H815 C809 0.959 . S
H816 C809 0.961 . S
H817 C809 0.960 . S
H818 C810 0.930 . S
H819 C811 0.929 . S
H820 C828 0.929 . S
H821 C830 0.930 . S
H822 C832 0.930 . S
H823 C835 0.929 . S
H824 C838 0.930 . S
H825 C840 0.960 . S
H826 C840 0.960 . S
H827 C840 0.960 . S
C828 H820 0.929 . S
C828 C829 1.377 . S
C828 C830 1.384 . S
C829 C828 1.377 . S
C829 C835 1.390 . S
C830 H821 0.930 . S
C830 C828 1.384 . S
C830 C831 1.372 . S
C831 C830 1.372 . S
C831 C832 1.400 . S
C831 C836 1.490 . S
C832 H822 0.930 . S
C832 C831 1.400 . S
C832 C835 1.386 . S
H833 C849 0.930 . S
H834 C850 0.931 . S
C835 H823 0.929 . S
C835 C829 1.390 . S
C835 C832 1.386 . S
C836 C831 1.490 . S
C836 C838 1.395 . S
C836 C839 1.403 . S
H837 C843 0.930 . S
C838 H824 0.930 . S
C838 C836 1.395 . S
C838 C841 1.403 . S
C839 C836 1.403 . S
C839 C840 1.524 . S
C839 C843 1.400 . S
C840 H825 0.960 . S
C840 H826 0.960 . S
C840 H827 0.960 . S
C840 C839 1.524 . S
C841 C838 1.403 . S
C841 C842 1.392 . S
C841 C845 1.495 . S
C842 C841 1.392 . S
C842 C843 1.385 . S
C842 C844 1.478 . S
C843 H837 0.930 . S
C843 C839 1.400 . S
C843 C842 1.385 . S
C844 C842 1.478 . S
C844 C846 1.381 . S
C844 C850 1.383 . S
C845 C841 1.495 . S
C845 H851 0.959 . S
C845 H852 0.961 . S
C845 H853 0.960 . S
C846 C844 1.381 . S
C846 C847 1.394 . S
C846 H854 0.930 . S
C847 C846 1.394 . S
C847 C848 1.383 . S
C847 H855 0.929 . S
C848 C847 1.383 . S
C848 C849 1.377 . S
C849 H833 0.930 . S
C849 C848 1.377 . S
C849 C850 1.379 . S
C850 H834 0.931 . S
C850 C844 1.383 . S
C850 C849 1.379 . S
H851 C845 0.959 . S
H852 C845 0.961 . S
H853 C845 0.960 . S
H854 C846 0.930 . S
H855 C847 0.929 . S
H856 C864 0.929 . S
H857 C866 0.930 . S
H858 C868 0.930 . S
H859 C871 0.929 . S
H860 C874 0.930 . S
H861 C876 0.960 . S
H862 C876 0.960 . S
H863 C876 0.960 . S
C864 H856 0.929 . S
C864 C865 1.377 . S
C864 C866 1.384 . S
C865 C864 1.377 . S
C865 C871 1.390 . S
C866 H857 0.930 . S
C866 C864 1.384 . S
C866 C867 1.372 . S
C867 C866 1.372 . S
C867 C868 1.400 . S
C867 C872 1.490 . S
C868 H858 0.930 . S
C868 C867 1.400 . S
C868 C871 1.386 . S
H869 C885 0.930 . S
H870 C886 0.931 . S
C871 H859 0.929 . S
C871 C865 1.390 . S
C871 C868 1.386 . S
C872 C867 1.490 . S
C872 C874 1.395 . S
C872 C875 1.403 . S
H873 C879 0.930 . S
C874 H860 0.930 . S
C874 C872 1.395 . S
C874 C877 1.403 . S
C875 C872 1.403 . S
C875 C876 1.524 . S
C875 C879 1.400 . S
C876 H861 0.960 . S
C876 H862 0.960 . S
C876 H863 0.960 . S
C876 C875 1.524 . S
C877 C874 1.403 . S
C877 C878 1.392 . S
C877 C881 1.495 . S
C878 C877 1.392 . S
C878 C879 1.385 . S
C878 C880 1.478 . S
C879 H873 0.930 . S
C879 C875 1.400 . S
C879 C878 1.385 . S
C880 C878 1.478 . S
C880 C882 1.381 . S
C880 C886 1.383 . S
C881 C877 1.495 . S
C881 H887 0.959 . S
C881 H888 0.961 . S
C881 H889 0.960 . S
C882 C880 1.381 . S
C882 C883 1.394 . S
C882 H890 0.930 . S
C883 C882 1.394 . S
C883 C884 1.383 . S
C883 H891 0.929 . S
C884 C883 1.383 . S
C884 C885 1.377 . S
C885 H869 0.930 . S
C885 C884 1.377 . S
C885 C886 1.379 . S
C886 H870 0.931 . S
C886 C880 1.383 . S
C886 C885 1.379 . S
H887 C881 0.959 . S
H888 C881 0.961 . S
H889 C881 0.960 . S
H890 C882 0.930 . S
H891 C883 0.929 . S
H892 C900 0.929 . S
H893 C902 0.930 . S
H894 C904 0.930 . S
H895 C907 0.929 . S
H896 C910 0.930 . S
H897 C912 0.960 . S
H898 C912 0.960 . S
H899 C912 0.960 . S
C900 H892 0.929 . S
C900 C901 1.377 . S
C900 C902 1.384 . S
C901 C900 1.377 . S
C901 C907 1.390 . S
C902 H893 0.930 . S
C902 C900 1.384 . S
C902 C903 1.372 . S
C903 C902 1.372 . S
C903 C904 1.400 . S
C903 C908 1.490 . S
C904 H894 0.930 . S
C904 C903 1.400 . S
C904 C907 1.386 . S
H905 C921 0.930 . S
H906 C922 0.931 . S
C907 H895 0.929 . S
C907 C901 1.390 . S
C907 C904 1.386 . S
C908 C903 1.490 . S
C908 C910 1.395 . S
C908 C911 1.403 . S
H909 C915 0.930 . S
C910 H896 0.930 . S
C910 C908 1.395 . S
C910 C913 1.403 . S
C911 C908 1.403 . S
C911 C912 1.524 . S
C911 C915 1.400 . S
C912 H897 0.960 . S
C912 H898 0.960 . S
C912 H899 0.960 . S
C912 C911 1.524 . S
C913 C910 1.403 . S
C913 C914 1.392 . S
C913 C917 1.495 . S
C914 C913 1.392 . S
C914 C915 1.385 . S
C914 C916 1.478 . S
C915 H909 0.930 . S
C915 C911 1.400 . S
C915 C914 1.385 . S
C916 C914 1.478 . S
C916 C918 1.381 . S
C916 C922 1.383 . S
C917 C913 1.495 . S
C917 H923 0.959 . S
C917 H924 0.961 . S
C917 H925 0.960 . S
C918 C916 1.381 . S
C918 C919 1.394 . S
C918 H926 0.930 . S
C919 C918 1.394 . S
C919 C920 1.383 . S
C919 H927 0.929 . S
C920 C919 1.383 . S
C920 C921 1.377 . S
C921 H905 0.930 . S
C921 C920 1.377 . S
C921 C922 1.379 . S
C922 H906 0.931 . S
C922 C916 1.383 . S
C922 C921 1.379 . S
H923 C917 0.959 . S
H924 C917 0.961 . S
H925 C917 0.960 . S
H926 C918 0.930 . S
H927 C919 0.929 . S
H928 C936 0.929 . S
H929 C938 0.930 . S
H930 C940 0.930 . S
H931 C943 0.929 . S
H932 C946 0.930 . S
H933 C948 0.960 . S
H934 C948 0.960 . S
H935 C948 0.960 . S
C936 H928 0.929 . S
C936 C937 1.377 . S
C936 C938 1.384 . S
C937 C936 1.377 . S
C937 C943 1.390 . S
C938 H929 0.930 . S
C938 C936 1.384 . S
C938 C939 1.372 . S
C939 C938 1.372 . S
C939 C940 1.400 . S
C939 C944 1.490 . S
C940 H930 0.930 . S
C940 C939 1.400 . S
C940 C943 1.386 . S
H941 C957 0.930 . S
H942 C958 0.931 . S
C943 H931 0.929 . S
C943 C937 1.390 . S
C943 C940 1.386 . S
C944 C939 1.490 . S
C944 C946 1.395 . S
C944 C947 1.403 . S
H945 C951 0.930 . S
C946 H932 0.930 . S
C946 C944 1.395 . S
C946 C949 1.403 . S
C947 C944 1.403 . S
C947 C948 1.524 . S
C947 C951 1.400 . S
C948 H933 0.960 . S
C948 H934 0.960 . S
C948 H935 0.960 . S
C948 C947 1.524 . S
C949 C946 1.403 . S
C949 C950 1.392 . S
C949 C953 1.495 . S
C950 C949 1.392 . S
C950 C951 1.385 . S
C950 C952 1.478 . S
C951 H945 0.930 . S
C951 C947 1.400 . S
C951 C950 1.385 . S
C952 C950 1.478 . S
C952 C954 1.381 . S
C952 C958 1.383 . S
C953 C949 1.495 . S
C953 H959 0.959 . S
C953 H960 0.961 . S
C953 H961 0.960 . S
C954 C952 1.381 . S
C954 C955 1.394 . S
C954 H962 0.930 . S
C955 C954 1.394 . S
C955 C956 1.383 . S
C955 H963 0.929 . S
C956 C955 1.383 . S
C956 C957 1.377 . S
C957 H941 0.930 . S
C957 C956 1.377 . S
C957 C958 1.379 . S
C958 H942 0.931 . S
C958 C952 1.383 . S
C958 C957 1.379 . S
H959 C953 0.959 . S
H960 C953 0.961 . S
H961 C953 0.960 . S
H962 C954 0.930 . S
H963 C955 0.929 . S
H964 C972 0.929 . S
H965 C974 0.930 . S
H966 C976 0.930 . S
H967 C979 0.929 . S
H968 C982 0.930 . S
H969 C984 0.960 . S
H970 C984 0.960 . S
H971 C984 0.960 . S
C972 H964 0.929 . S
C972 C973 1.377 . S
C972 C974 1.384 . S
C973 C972 1.377 . S
C973 C979 1.390 . S
C974 H965 0.930 . S
C974 C972 1.384 . S
C974 C975 1.372 . S
C975 C974 1.372 . S
C975 C976 1.400 . S
C975 C980 1.490 . S
C976 H966 0.930 . S
C976 C975 1.400 . S
C976 C979 1.386 . S
H977 C993 0.930 . S
H978 C994 0.931 . S
C979 H967 0.929 . S
C979 C973 1.390 . S
C979 C976 1.386 . S
C980 C975 1.490 . S
C980 C982 1.395 . S
C980 C983 1.403 . S
H981 C987 0.930 . S
C982 H968 0.930 . S
C982 C980 1.395 . S
C982 C985 1.403 . S
C983 C980 1.403 . S
C983 C984 1.524 . S
C983 C987 1.400 . S
C984 H969 0.960 . S
C984 H970 0.960 . S
C984 H971 0.960 . S
C984 C983 1.524 . S
C985 C982 1.403 . S
C985 C986 1.392 . S
C985 C989 1.495 . S
C986 C985 1.392 . S
C986 C987 1.385 . S
C986 C988 1.478 . S
C987 H981 0.930 . S
C987 C983 1.400 . S
C987 C986 1.385 . S
C988 C986 1.478 . S
C988 C990 1.381 . S
C988 C994 1.383 . S
C989 C985 1.495 . S
C989 H995 0.959 . S
C989 H996 0.961 . S
C989 H997 0.960 . S
C990 C988 1.381 . S
C990 C991 1.394 . S
C990 H998 0.930 . S
C991 C990 1.394 . S
C991 C992 1.383 . S
C991 H999 0.929 . S
C992 C991 1.383 . S
C992 C993 1.377 . S
C993 H977 0.930 . S
C993 C992 1.377 . S
C993 C994 1.379 . S
C994 H978 0.931 . S
C994 C988 1.383 . S
C994 C993 1.379 . S
H995 C989 0.959 . S
H996 C989 0.961 . S
H997 C989 0.960 . S
H998 C990 0.930 . S
H999 C991 0.929 . S
H1000 C1008 0.929 . S
H1001 C1010 0.930 . S
H1002 C1012 0.930 . S
H1003 C1015 0.929 . S
H1004 C1018 0.930 . S
H1005 C1020 0.960 . S
H1006 C1020 0.960 . S
H1007 C1020 0.960 . S
C1008 H1000 0.929 . S
C1008 C1009 1.377 . S
C1008 C1010 1.384 . S
C1009 C1008 1.377 . S
C1009 C1015 1.390 . S
C1010 H1001 0.930 . S
C1010 C1008 1.384 . S
C1010 C1011 1.372 . S
C1011 C1010 1.372 . S
C1011 C1012 1.400 . S
C1011 C1016 1.490 . S
C1012 H1002 0.930 . S
C1012 C1011 1.400 . S
C1012 C1015 1.386 . S
H1013 C1029 0.930 . S
H1014 C1030 0.931 . S
C1015 H1003 0.929 . S
C1015 C1009 1.390 . S
C1015 C1012 1.386 . S
C1016 C1011 1.490 . S
C1016 C1018 1.395 . S
C1016 C1019 1.403 . S
H1017 C1023 0.930 . S
C1018 H1004 0.930 . S
C1018 C1016 1.395 . S
C1018 C1021 1.403 . S
C1019 C1016 1.403 . S
C1019 C1020 1.524 . S
C1019 C1023 1.400 . S
C1020 H1005 0.960 . S
C1020 H1006 0.960 . S
C1020 H1007 0.960 . S
C1020 C1019 1.524 . S
C1021 C1018 1.403 . S
C1021 C1022 1.392 . S
C1021 C1025 1.495 . S
C1022 C1021 1.392 . S
C1022 C1023 1.385 . S
C1022 C1024 1.478 . S
C1023 H1017 0.930 . S
C1023 C1019 1.400 . S
C1023 C1022 1.385 . S
C1024 C1022 1.478 . S
C1024 C1026 1.381 . S
C1024 C1030 1.383 . S
C1025 C1021 1.495 . S
C1025 H1031 0.959 . S
C1025 H1032 0.961 . S
C1025 H1033 0.960 . S
C1026 C1024 1.381 . S
C1026 C1027 1.394 . S
C1026 H1034 0.930 . S
C1027 C1026 1.394 . S
C1027 C1028 1.383 . S
C1027 H1035 0.929 . S
C1028 C1027 1.383 . S
C1028 C1029 1.377 . S
C1029 H1013 0.930 . S
C1029 C1028 1.377 . S
C1029 C1030 1.379 . S
C1030 H1014 0.931 . S
C1030 C1024 1.383 . S
C1030 C1029 1.379 . S
H1031 C1025 0.959 . S
H1032 C1025 0.961 . S
H1033 C1025 0.960 . S
H1034 C1026 0.930 . S
H1035 C1027 0.929 . S
H1036 C1044 0.929 . S
H1037 C1046 0.930 . S
H1038 C1048 0.930 . S
H1039 C1051 0.929 . S
H1040 C1054 0.930 . S
H1041 C1056 0.960 . S
H1042 C1056 0.960 . S
H1043 C1056 0.960 . S
C1044 H1036 0.929 . S
C1044 C1045 1.377 . S
C1044 C1046 1.384 . S
C1045 C1044 1.377 . S
C1045 C1051 1.390 . S
C1046 H1037 0.930 . S
C1046 C1044 1.384 . S
C1046 C1047 1.372 . S
C1047 C1046 1.372 . S
C1047 C1048 1.400 . S
C1047 C1052 1.490 . S
C1048 H1038 0.930 . S
C1048 C1047 1.400 . S
C1048 C1051 1.386 . S
H1049 C1065 0.930 . S
H1050 C1066 0.931 . S
C1051 H1039 0.929 . S
C1051 C1045 1.390 . S
C1051 C1048 1.386 . S
C1052 C1047 1.490 . S
C1052 C1054 1.395 . S
C1052 C1055 1.403 . S
H1053 C1059 0.930 . S
C1054 H1040 0.930 . S
C1054 C1052 1.395 . S
C1054 C1057 1.403 . S
C1055 C1052 1.403 . S
C1055 C1056 1.524 . S
C1055 C1059 1.400 . S
C1056 H1041 0.960 . S
C1056 H1042 0.960 . S
C1056 H1043 0.960 . S
C1056 C1055 1.524 . S
C1057 C1054 1.403 . S
C1057 C1058 1.392 . S
C1057 C1061 1.495 . S
C1058 C1057 1.392 . S
C1058 C1059 1.385 . S
C1058 C1060 1.478 . S
C1059 H1053 0.930 . S
C1059 C1055 1.400 . S
C1059 C1058 1.385 . S
C1060 C1058 1.478 . S
C1060 C1062 1.381 . S
C1060 C1066 1.383 . S
C1061 C1057 1.495 . S
C1061 H1067 0.959 . S
C1061 H1068 0.961 . S
C1061 H1069 0.960 . S
C1062 C1060 1.381 . S
C1062 C1063 1.394 . S
C1062 H1070 0.930 . S
C1063 C1062 1.394 . S
C1063 C1064 1.383 . S
C1063 H1071 0.929 . S
C1064 C1063 1.383 . S
C1064 C1065 1.377 . S
C1065 H1049 0.930 . S
C1065 C1064 1.377 . S
C1065 C1066 1.379 . S
C1066 H1050 0.931 . S
C1066 C1060 1.383 . S
C1066 C1065 1.379 . S
H1067 C1061 0.959 . S
H1068 C1061 0.961 . S
H1069 C1061 0.960 . S
H1070 C1062 0.930 . S
H1071 C1063 0.929 . S
H1072 C1080 0.929 . S
H1073 C1082 0.930 . S
H1074 C1084 0.930 . S
H1075 C1087 0.929 . S
H1076 C1090 0.930 . S
H1077 C1092 0.960 . S
H1078 C1092 0.960 . S
H1079 C1092 0.960 . S
C1080 H1072 0.929 . S
C1080 C1081 1.377 . S
C1080 C1082 1.384 . S
C1081 C1080 1.377 . S
C1081 C1087 1.390 . S
C1082 H1073 0.930 . S
C1082 C1080 1.384 . S
C1082 C1083 1.372 . S
C1083 C1082 1.372 . S
C1083 C1084 1.400 . S
C1083 C1088 1.490 . S
C1084 H1074 0.930 . S
C1084 C1083 1.400 . S
C1084 C1087 1.386 . S
H1085 C1101 0.930 . S
H1086 C1102 0.931 . S
C1087 H1075 0.929 . S
C1087 C1081 1.390 . S
C1087 C1084 1.386 . S
C1088 C1083 1.490 . S
C1088 C1090 1.395 . S
C1088 C1091 1.403 . S
H1089 C1095 0.930 . S
C1090 H1076 0.930 . S
C1090 C1088 1.395 . S
C1090 C1093 1.403 . S
C1091 C1088 1.403 . S
C1091 C1092 1.524 . S
C1091 C1095 1.400 . S
C1092 H1077 0.960 . S
C1092 H1078 0.960 . S
C1092 H1079 0.960 . S
C1092 C1091 1.524 . S
C1093 C1090 1.403 . S
C1093 C1094 1.392 . S
C1093 C1097 1.495 . S
C1094 C1093 1.392 . S
C1094 C1095 1.385 . S
C1094 C1096 1.478 . S
C1095 H1089 0.930 . S
C1095 C1091 1.400 . S
C1095 C1094 1.385 . S
C1096 C1094 1.478 . S
C1096 C1098 1.381 . S
C1096 C1102 1.383 . S
C1097 C1093 1.495 . S
C1097 H1103 0.959 . S
C1097 H1104 0.961 . S
C1097 H1105 0.960 . S
C1098 C1096 1.381 . S
C1098 C1099 1.394 . S
C1098 H1106 0.930 . S
C1099 C1098 1.394 . S
C1099 C1100 1.383 . S
C1099 H1107 0.929 . S
C1100 C1099 1.383 . S
C1100 C1101 1.377 . S
C1101 H1085 0.930 . S
C1101 C1100 1.377 . S
C1101 C1102 1.379 . S
C1102 H1086 0.931 . S
C1102 C1096 1.383 . S
C1102 C1101 1.379 . S
H1103 C1097 0.959 . S
H1104 C1097 0.961 . S
H1105 C1097 0.960 . S
H1106 C1098 0.930 . S
H1107 C1099 0.929 . S
H1108 C1116 0.929 . S
H1109 C1118 0.930 . S
H1110 C1120 0.930 . S
H1111 C1123 0.929 . S
H1112 C1126 0.930 . S
H1113 C1128 0.960 . S
H1114 C1128 0.960 . S
H1115 C1128 0.960 . S
C1116 H1108 0.929 . S
C1116 C1117 1.377 . S
C1116 C1118 1.384 . S
C1117 C1116 1.377 . S
C1117 C1123 1.390 . S
C1118 H1109 0.930 . S
C1118 C1116 1.384 . S
C1118 C1119 1.372 . S
C1119 C1118 1.372 . S
C1119 C1120 1.400 . S
C1119 C1124 1.490 . S
C1120 H1110 0.930 . S
C1120 C1119 1.400 . S
C1120 C1123 1.386 . S
H1121 C1137 0.930 . S
H1122 C1138 0.931 . S
C1123 H1111 0.929 . S
C1123 C1117 1.390 . S
C1123 C1120 1.386 . S
C1124 C1119 1.490 . S
C1124 C1126 1.395 . S
C1124 C1127 1.403 . S
H1125 C1131 0.930 . S
C1126 H1112 0.930 . S
C1126 C1124 1.395 . S
C1126 C1129 1.403 . S
C1127 C1124 1.403 . S
C1127 C1128 1.524 . S
C1127 C1131 1.400 . S
C1128 H1113 0.960 . S
C1128 H1114 0.960 . S
C1128 H1115 0.960 . S
C1128 C1127 1.524 . S
C1129 C1126 1.403 . S
C1129 C1130 1.392 . S
C1129 C1133 1.495 . S
C1130 C1129 1.392 . S
C1130 C1131 1.385 . S
C1130 C1132 1.478 . S
C1131 H1125 0.930 . S
C1131 C1127 1.400 . S
C1131 C1130 1.385 . S
C1132 C1130 1.478 . S
C1132 C1134 1.381 . S
C1132 C1138 1.383 . S
C1133 C1129 1.495 . S
C1133 H1139 0.959 . S
C1133 H1140 0.961 . S
C1133 H1141 0.960 . S
C1134 C1132 1.381 . S
C1134 C1135 1.394 . S
C1134 H1142 0.930 . S
C1135 C1134 1.394 . S
C1135 C1136 1.383 . S
C1135 H1143 0.929 . S
C1136 C1135 1.383 . S
C1136 C1137 1.377 . S
C1137 H1121 0.930 . S
C1137 C1136 1.377 . S
C1137 C1138 1.379 . S
C1138 H1122 0.931 . S
C1138 C1132 1.383 . S
C1138 C1137 1.379 . S
H1139 C1133 0.959 . S
H1140 C1133 0.961 . S
H1141 C1133 0.960 . S
H1142 C1134 0.930 . S
H1143 C1135 0.929 . S
H1144 C1152 0.929 . S
H1145 C1154 0.930 . S
H1146 C1156 0.930 . S
H1147 C1159 0.929 . S
H1148 C1162 0.930 . S
H1149 C1164 0.960 . S
H1150 C1164 0.960 . S
H1151 C1164 0.960 . S
C1152 H1144 0.929 . S
C1152 C1153 1.377 . S
C1152 C1154 1.384 . S
C1153 C1152 1.377 . S
C1153 C1159 1.390 . S
C1154 H1145 0.930 . S
C1154 C1152 1.384 . S
C1154 C1155 1.372 . S
C1155 C1154 1.372 . S
C1155 C1156 1.400 . S
C1155 C1160 1.490 . S
C1156 H1146 0.930 . S
C1156 C1155 1.400 . S
C1156 C1159 1.386 . S
H1157 C1173 0.930 . S
H1158 C1174 0.931 . S
C1159 H1147 0.929 . S
C1159 C1153 1.390 . S
C1159 C1156 1.386 . S
C1160 C1155 1.490 . S
C1160 C1162 1.395 . S
C1160 C1163 1.403 . S
H1161 C1167 0.930 . S
C1162 H1148 0.930 . S
C1162 C1160 1.395 . S
C1162 C1165 1.403 . S
C1163 C1160 1.403 . S
C1163 C1164 1.524 . S
C1163 C1167 1.400 . S
C1164 H1149 0.960 . S
C1164 H1150 0.960 . S
C1164 H1151 0.960 . S
C1164 C1163 1.524 . S
C1165 C1162 1.403 . S
C1165 C1166 1.392 . S
C1165 C1169 1.495 . S
C1166 C1165 1.392 . S
C1166 C1167 1.385 . S
C1166 C1168 1.478 . S
C1167 H1161 0.930 . S
C1167 C1163 1.400 . S
C1167 C1166 1.385 . S
C1168 C1166 1.478 . S
C1168 C1170 1.381 . S
C1168 C1174 1.383 . S
C1169 C1165 1.495 . S
C1169 H1175 0.959 . S
C1169 H1176 0.961 . S
C1169 H1177 0.960 . S
C1170 C1168 1.381 . S
C1170 C1171 1.394 . S
C1170 H1178 0.930 . S
C1171 C1170 1.394 . S
C1171 C1172 1.383 . S
C1171 H1179 0.929 . S
C1172 C1171 1.383 . S
C1172 C1173 1.377 . S
C1173 H1157 0.930 . S
C1173 C1172 1.377 . S
C1173 C1174 1.379 . S
C1174 H1158 0.931 . S
C1174 C1168 1.383 . S
C1174 C1173 1.379 . S
H1175 C1169 0.959 . S
H1176 C1169 0.961 . S
H1177 C1169 0.960 . S
H1178 C1170 0.930 . S
H1179 C1171 0.929 . S
H1180 C1188 0.929 . S
H1181 C1190 0.930 . S
H1182 C1192 0.930 . S
H1183 C1195 0.929 . S
H1184 C1198 0.930 . S
H1185 C1200 0.960 . S
H1186 C1200 0.960 . S
H1187 C1200 0.960 . S
C1188 H1180 0.929 . S
C1188 C1189 1.377 . S
C1188 C1190 1.384 . S
C1189 C1188 1.377 . S
C1189 C1195 1.390 . S
C1190 H1181 0.930 . S
C1190 C1188 1.384 . S
C1190 C1191 1.372 . S
C1191 C1190 1.372 . S
C1191 C1192 1.400 . S
C1191 C1196 1.490 . S
C1192 H1182 0.930 . S
C1192 C1191 1.400 . S
C1192 C1195 1.386 . S
H1193 C1209 0.930 . S
H1194 C1210 0.931 . S
C1195 H1183 0.929 . S
C1195 C1189 1.390 . S
C1195 C1192 1.386 . S
C1196 C1191 1.490 . S
C1196 C1198 1.395 . S
C1196 C1199 1.403 . S
H1197 C1203 0.930 . S
C1198 H1184 0.930 . S
C1198 C1196 1.395 . S
C1198 C1201 1.403 . S
C1199 C1196 1.403 . S
C1199 C1200 1.524 . S
C1199 C1203 1.400 . S
C1200 H1185 0.960 . S
C1200 H1186 0.960 . S
C1200 H1187 0.960 . S
C1200 C1199 1.524 . S
C1201 C1198 1.403 . S
C1201 C1202 1.392 . S
C1201 C1205 1.495 . S
C1202 C1201 1.392 . S
C1202 C1203 1.385 . S
C1202 C1204 1.478 . S
C1203 H1197 0.930 . S
C1203 C1199 1.400 . S
C1203 C1202 1.385 . S
C1204 C1202 1.478 . S
C1204 C1206 1.381 . S
C1204 C1210 1.383 . S
C1205 C1201 1.495 . S
C1205 H1211 0.959 . S
C1205 H1212 0.961 . S
C1205 H1213 0.960 . S
C1206 C1204 1.381 . S
C1206 C1207 1.394 . S
C1206 H1214 0.930 . S
C1207 C1206 1.394 . S
C1207 C1208 1.383 . S
C1207 H1215 0.929 . S
C1208 C1207 1.383 . S
C1208 C1209 1.377 . S
C1209 H1193 0.930 . S
C1209 C1208 1.377 . S
C1209 C1210 1.379 . S
C1210 H1194 0.931 . S
C1210 C1204 1.383 . S
C1210 C1209 1.379 . S
H1211 C1205 0.959 . S
H1212 C1205 0.961 . S
H1213 C1205 0.960 . S
H1214 C1206 0.930 . S
H1215 C1207 0.929 . S
H1216 C1224 0.929 . S
H1217 C1226 0.930 . S
H1218 C1228 0.930 . S
H1219 C1231 0.929 . S
H1220 C1234 0.930 . S
H1221 C1236 0.960 . S
H1222 C1236 0.960 . S
H1223 C1236 0.960 . S
C1224 H1216 0.929 . S
C1224 C1225 1.377 . S
C1224 C1226 1.384 . S
C1225 C1224 1.377 . S
C1225 C1231 1.390 . S
C1226 H1217 0.930 . S
C1226 C1224 1.384 . S
C1226 C1227 1.372 . S
C1227 C1226 1.372 . S
C1227 C1228 1.400 . S
C1227 C1232 1.490 . S
C1228 H1218 0.930 . S
C1228 C1227 1.400 . S
C1228 C1231 1.386 . S
H1229 C1245 0.930 . S
H1230 C1246 0.931 . S
C1231 H1219 0.929 . S
C1231 C1225 1.390 . S
C1231 C1228 1.386 . S
C1232 C1227 1.490 . S
C1232 C1234 1.395 . S
C1232 C1235 1.403 . S
H1233 C1239 0.930 . S
C1234 H1220 0.930 . S
C1234 C1232 1.395 . S
C1234 C1237 1.403 . S
C1235 C1232 1.403 . S
C1235 C1236 1.524 . S
C1235 C1239 1.400 . S
C1236 H1221 0.960 . S
C1236 H1222 0.960 . S
C1236 H1223 0.960 . S
C1236 C1235 1.524 . S
C1237 C1234 1.403 . S
C1237 C1238 1.392 . S
C1237 C1241 1.495 . S
C1238 C1237 1.392 . S
C1238 C1239 1.385 . S
C1238 C1240 1.478 . S
C1239 H1233 0.930 . S
C1239 C1235 1.400 . S
C1239 C1238 1.385 . S
C1240 C1238 1.478 . S
C1240 C1242 1.381 . S
C1240 C1246 1.383 . S
C1241 C1237 1.495 . S
C1241 H1247 0.959 . S
C1241 H1248 0.961 . S
C1241 H1249 0.960 . S
C1242 C1240 1.381 . S
C1242 C1243 1.394 . S
C1242 H1250 0.930 . S
C1243 C1242 1.394 . S
C1243 C1244 1.383 . S
C1243 H1251 0.929 . S
C1244 C1243 1.383 . S
C1244 C1245 1.377 . S
C1245 H1229 0.930 . S
C1245 C1244 1.377 . S
C1245 C1246 1.379 . S
C1246 H1230 0.931 . S
C1246 C1240 1.383 . S
C1246 C1245 1.379 . S
H1247 C1241 0.959 . S
H1248 C1241 0.961 . S
H1249 C1241 0.960 . S
H1250 C1242 0.930 . S
H1251 C1243 0.929 . S
H1252 C1260 0.929 . S
H1253 C1262 0.930 . S
H1254 C1264 0.930 . S
H1255 C1267 0.929 . S
H1256 C1270 0.930 . S
H1257 C1272 0.960 . S
H1258 C1272 0.960 . S
H1259 C1272 0.960 . S
C1260 H1252 0.929 . S
C1260 C1261 1.377 . S
C1260 C1262 1.384 . S
C1261 C1260 1.377 . S
C1261 C1267 1.390 . S
C1262 H1253 0.930 . S
C1262 C1260 1.384 . S
C1262 C1263 1.372 . S
C1263 C1262 1.372 . S
C1263 C1264 1.400 . S
C1263 C1268 1.490 . S
C1264 H1254 0.930 . S
C1264 C1263 1.400 . S
C1264 C1267 1.386 . S
H1265 C1281 0.930 . S
H1266 C1282 0.931 . S
C1267 H1255 0.929 . S
C1267 C1261 1.390 . S
C1267 C1264 1.386 . S
C1268 C1263 1.490 . S
C1268 C1270 1.395 . S
C1268 C1271 1.403 . S
H1269 C1275 0.930 . S
C1270 H1256 0.930 . S
C1270 C1268 1.395 . S
C1270 C1273 1.403 . S
C1271 C1268 1.403 . S
C1271 C1272 1.524 . S
C1271 C1275 1.400 . S
C1272 H1257 0.960 . S
C1272 H1258 0.960 . S
C1272 H1259 0.960 . S
C1272 C1271 1.524 . S
C1273 C1270 1.403 . S
C1273 C1274 1.392 . S
C1273 C1277 1.495 . S
C1274 C1273 1.392 . S
C1274 C1275 1.385 . S
C1274 C1276 1.478 . S
C1275 H1269 0.930 . S
C1275 C1271 1.400 . S
C1275 C1274 1.385 . S
C1276 C1274 1.478 . S
C1276 C1278 1.381 . S
C1276 C1282 1.383 . S
C1277 C1273 1.495 . S
C1277 H1283 0.959 . S
C1277 H1284 0.961 . S
C1277 H1285 0.960 . S
C1278 C1276 1.381 . S
C1278 C1279 1.394 . S
C1278 H1286 0.930 . S
C1279 C1278 1.394 . S
C1279 C1280 1.383 . S
C1279 H1287 0.929 . S
C1280 C1279 1.383 . S
C1280 C1281 1.377 . S
C1281 H1265 0.930 . S
C1281 C1280 1.377 . S
C1281 C1282 1.379 . S
C1282 H1266 0.931 . S
C1282 C1276 1.383 . S
C1282 C1281 1.379 . S
H1283 C1277 0.959 . S
H1284 C1277 0.961 . S
H1285 C1277 0.960 . S
H1286 C1278 0.930 . S
H1287 C1279 0.929 . S
H1288 C1296 0.929 . S
H1289 C1298 0.930 . S
H1290 C1300 0.930 . S
H1291 C1303 0.929 . S
H1292 C1306 0.930 . S
H1293 C1308 0.960 . S
H1294 C1308 0.960 . S
H1295 C1308 0.960 . S
C1296 H1288 0.929 . S
C1296 C1297 1.377 . S
C1296 C1298 1.384 . S
C1297 C1296 1.377 . S
C1297 C1303 1.390 . S
C1298 H1289 0.930 . S
C1298 C1296 1.384 . S
C1298 C1299 1.372 . S
C1299 C1298 1.372 . S
C1299 C1300 1.400 . S
C1299 C1304 1.490 . S
C1300 H1290 0.930 . S
C1300 C1299 1.400 . S
C1300 C1303 1.386 . S
H1301 C1317 0.930 . S
H1302 C1318 0.931 . S
C1303 H1291 0.929 . S
C1303 C1297 1.390 . S
C1303 C1300 1.386 . S
C1304 C1299 1.490 . S
C1304 C1306 1.395 . S
C1304 C1307 1.403 . S
H1305 C1311 0.930 . S
C1306 H1292 0.930 . S
C1306 C1304 1.395 . S
C1306 C1309 1.403 . S
C1307 C1304 1.403 . S
C1307 C1308 1.524 . S
C1307 C1311 1.400 . S
C1308 H1293 0.960 . S
C1308 H1294 0.960 . S
C1308 H1295 0.960 . S
C1308 C1307 1.524 . S
C1309 C1306 1.403 . S
C1309 C1310 1.392 . S
C1309 C1313 1.495 . S
C1310 C1309 1.392 . S
C1310 C1311 1.385 . S
C1310 C1312 1.478 . S
C1311 H1305 0.930 . S
C1311 C1307 1.400 . S
C1311 C1310 1.385 . S
C1312 C1310 1.478 . S
C1312 C1314 1.381 . S
C1312 C1318 1.383 . S
C1313 C1309 1.495 . S
C1313 H1319 0.959 . S
C1313 H1320 0.961 . S
C1313 H1321 0.960 . S
C1314 C1312 1.381 . S
C1314 C1315 1.394 . S
C1314 H1322 0.930 . S
C1315 C1314 1.394 . S
C1315 C1316 1.383 . S
C1315 H1323 0.929 . S
C1316 C1315 1.383 . S
C1316 C1317 1.377 . S
C1317 H1301 0.930 . S
C1317 C1316 1.377 . S
C1317 C1318 1.379 . S
C1318 H1302 0.931 . S
C1318 C1312 1.383 . S
C1318 C1317 1.379 . S
H1319 C1313 0.959 . S
H1320 C1313 0.961 . S
H1321 C1313 0.960 . S
H1322 C1314 0.930 . S
H1323 C1315 0.929 . S
H1324 C1332 0.929 . S
H1325 C1334 0.930 . S
H1326 C1336 0.930 . S
H1327 C1339 0.929 . S
H1328 C1342 0.930 . S
H1329 C1344 0.960 . S
H1330 C1344 0.960 . S
H1331 C1344 0.960 . S
C1332 H1324 0.929 . S
C1332 C1333 1.377 . S
C1332 C1334 1.384 . S
C1333 C1332 1.377 . S
C1333 C1339 1.390 . S
C1334 H1325 0.930 . S
C1334 C1332 1.384 . S
C1334 C1335 1.372 . S
C1335 C1334 1.372 . S
C1335 C1336 1.400 . S
C1335 C1340 1.490 . S
C1336 H1326 0.930 . S
C1336 C1335 1.400 . S
C1336 C1339 1.386 . S
H1337 C1353 0.930 . S
H1338 C1354 0.931 . S
C1339 H1327 0.929 . S
C1339 C1333 1.390 . S
C1339 C1336 1.386 . S
C1340 C1335 1.490 . S
C1340 C1342 1.395 . S
C1340 C1343 1.403 . S
H1341 C1347 0.930 . S
C1342 H1328 0.930 . S
C1342 C1340 1.395 . S
C1342 C1345 1.403 . S
C1343 C1340 1.403 . S
C1343 C1344 1.524 . S
C1343 C1347 1.400 . S
C1344 H1329 0.960 . S
C1344 H1330 0.960 . S
C1344 H1331 0.960 . S
C1344 C1343 1.524 . S
C1345 C1342 1.403 . S
C1345 C1346 1.392 . S
C1345 C1349 1.495 . S
C1346 C1345 1.392 . S
C1346 C1347 1.385 . S
C1346 C1348 1.478 . S
C1347 H1341 0.930 . S
C1347 C1343 1.400 . S
C1347 C1346 1.385 . S
C1348 C1346 1.478 . S
C1348 C1350 1.381 . S
C1348 C1354 1.383 . S
C1349 C1345 1.495 . S
C1349 H1355 0.959 . S
C1349 H1356 0.961 . S
C1349 H1357 0.960 . S
C1350 C1348 1.381 . S
C1350 C1351 1.394 . S
C1350 H1358 0.930 . S
C1351 C1350 1.394 . S
C1351 C1352 1.383 . S
C1351 H1359 0.929 . S
C1352 C1351 1.383 . S
C1352 C1353 1.377 . S
C1353 H1337 0.930 . S
C1353 C1352 1.377 . S
C1353 C1354 1.379 . S
C1354 H1338 0.931 . S
C1354 C1348 1.383 . S
C1354 C1353 1.379 . S
H1355 C1349 0.959 . S
H1356 C1349 0.961 . S
H1357 C1349 0.960 . S
H1358 C1350 0.930 . S
H1359 C1351 0.929 . S
C236 C117 1.111 . S
C217 C5 1.171 . S
C272 C135 1.105 . S
C253 C18 1.150 . S
C308 C143 1.158 . S
C289 C31 1.174 . S
C325 C42 1.154 . S
C344 C109 1.068 . S
C361 C57 1.173 . S
C380 C104 1.114 1_556 S
C397 C70 1.158 . S
C416 C122 1.037 . S
C452 C130 1.169 . S
C433 C81 1.164 . S
C488 C148 1.133 . S
C469 C96 1.154 . S
C505 C29 1.164 . S
C524 C169 1.158 . S
C560 C187 1.107 . S
C541 C44 1.153 . S
C577 C3 1.163 . S
C596 C195 1.167 . S
C632 C161 1.133 . S
C613 C16 1.148 . S
C649 C83 1.166 . S
C668 C156 1.142 . S
C685 C94 1.153 . S
C704 C174 1.091 . S
C740 C182 1.111 1_556 S
C721 C55 1.172 . S
C757 C68 1.154 . S
C776 C200 1.079 . S
C812 C138 1.272 . S
C793 C1 1.253 . S
C848 C153 1.273 . S
C829 C14 1.252 . S
C865 C27 1.254 . S
C884 C112 1.273 . S
C901 C49 1.276 . S
C920 C127 1.228 . S
C937 C53 1.245 . S
C956 C151 1.267 . S
C992 C114 1.230 . S
C973 C66 1.255 . S
C1028 C125 1.268 . S
C1009 C88 1.271 . S
C1064 C140 1.220 . S
C1045 C92 1.260 . S
C1100 C190 1.273 . S
C1081 C36 1.270 . S
C1136 C205 1.264 . S
C1117 C40 1.254 . S
C1153 C10 1.269 . S
C1172 C164 1.269 . S
C1208 C179 1.220 . S
C1189 C23 1.280 . S
C1244 C203 1.264 . S
C1225 C79 1.251 . S
C1261 C101 1.277 . S
C1280 C166 1.221 . S
C1316 C177 1.269 . S
C1297 C62 1.268 . S
C1352 C192 1.273 . S
C1333 C75 1.272 . S
