# Generated by pormake.
# Topology ibd, (4,6)-cn, num edge types: 1
# Building blocks:
#     Node 0, Type 0, BuildingBlock: KUFVIS_clean_sbu_0, # of connection points: 4
#     Node 1, Type 0, BuildingBlock: KUFVIS_clean_sbu_0, # of connection points: 4
#     Node 2, Type 0, BuildingBlock: KUFVIS_clean_sbu_0, # of connection points: 4
#     Node 3, Type 0, BuildingBlock: KUFVIS_clean_sbu_0, # of connection points: 4
#     Node 4, Type 0, BuildingBlock: KUFVIS_clean_sbu_0, # of connection points: 4
#     Node 5, Type 0, BuildingBlock: KUFVIS_clean_sbu_0, # of connection points: 4
#     Node 6, Type 0, BuildingBlock: KUFVIS_clean_sbu_0, # of connection points: 4
#     Node 7, Type 0, BuildingBlock: KUFVIS_clean_sbu_0, # of connection points: 4
#     Node 8, Type 0, BuildingBlock: KUFVIS_clean_sbu_0, # of connection points: 4
#     Node 9, Type 0, BuildingBlock: KUFVIS_clean_sbu_0, # of connection points: 4
#     Node 10, Type 0, BuildingBlock: KUFVIS_clean_sbu_0, # of connection points: 4
#     Node 11, Type 0, BuildingBlock: KUFVIS_clean_sbu_0, # of connection points: 4
#     Node 12, Type 0, BuildingBlock: KUFVIS_clean_sbu_0, # of connection points: 4
#     Node 13, Type 0, BuildingBlock: KUFVIS_clean_sbu_0, # of connection points: 4
#     Node 14, Type 0, BuildingBlock: KUFVIS_clean_sbu_0, # of connection points: 4
#     Node 15, Type 0, BuildingBlock: KUFVIS_clean_sbu_0, # of connection points: 4
#     Node 16, Type 0, BuildingBlock: KUFVIS_clean_sbu_0, # of connection points: 4
#     Node 17, Type 0, BuildingBlock: KUFVIS_clean_sbu_0, # of connection points: 4
#     Node 18, Type 0, BuildingBlock: KUFVIS_clean_sbu_0, # of connection points: 4
#     Node 19, Type 0, BuildingBlock: KUFVIS_clean_sbu_0, # of connection points: 4
#     Node 20, Type 0, BuildingBlock: KUFVIS_clean_sbu_0, # of connection points: 4
#     Node 21, Type 0, BuildingBlock: KUFVIS_clean_sbu_0, # of connection points: 4
#     Node 22, Type 0, BuildingBlock: KUFVIS_clean_sbu_0, # of connection points: 4
#     Node 23, Type 0, BuildingBlock: KUFVIS_clean_sbu_0, # of connection points: 4
#     Node 24, Type 1, BuildingBlock: IZENUY_clean_sbu_0, # of connection points: 6
#     Node 25, Type 1, BuildingBlock: IZENUY_clean_sbu_0, # of connection points: 6
#     Node 26, Type 1, BuildingBlock: IZENUY_clean_sbu_0, # of connection points: 6
#     Node 27, Type 1, BuildingBlock: IZENUY_clean_sbu_0, # of connection points: 6
#     Node 28, Type 1, BuildingBlock: IZENUY_clean_sbu_0, # of connection points: 6
#     Node 29, Type 1, BuildingBlock: IZENUY_clean_sbu_0, # of connection points: 6
#     Node 30, Type 1, BuildingBlock: IZENUY_clean_sbu_0, # of connection points: 6
#     Node 31, Type 1, BuildingBlock: IZENUY_clean_sbu_0, # of connection points: 6
#     Node 32, Type 1, BuildingBlock: IZENUY_clean_sbu_0, # of connection points: 6
#     Node 33, Type 1, BuildingBlock: IZENUY_clean_sbu_0, # of connection points: 6
#     Node 34, Type 1, BuildingBlock: IZENUY_clean_sbu_0, # of connection points: 6
#     Node 35, Type 1, BuildingBlock: IZENUY_clean_sbu_0, # of connection points: 6
#     Node 36, Type 1, BuildingBlock: IZENUY_clean_sbu_0, # of connection points: 6
#     Node 37, Type 1, BuildingBlock: IZENUY_clean_sbu_0, # of connection points: 6
#     Node 38, Type 1, BuildingBlock: IZENUY_clean_sbu_0, # of connection points: 6
#     Node 39, Type 1, BuildingBlock: IZENUY_clean_sbu_0, # of connection points: 6
#     Edge 40, Type (0, 1), BuildingBlock: EZIPEK_clean_linker_0, # of connection points: 2
#     Edge 41, Type (0, 1), BuildingBlock: EZIPEK_clean_linker_0, # of connection points: 2
#     Edge 42, Type (0, 1), BuildingBlock: EZIPEK_clean_linker_0, # of connection points: 2
#     Edge 43, Type (0, 1), BuildingBlock: EZIPEK_clean_linker_0, # of connection points: 2
#     Edge 44, Type (0, 1), BuildingBlock: EZIPEK_clean_linker_0, # of connection points: 2
#     Edge 45, Type (0, 1), BuildingBlock: EZIPEK_clean_linker_0, # of connection points: 2
#     Edge 46, Type (0, 1), BuildingBlock: EZIPEK_clean_linker_0, # of connection points: 2
#     Edge 47, Type (0, 1), BuildingBlock: EZIPEK_clean_linker_0, # of connection points: 2
#     Edge 48, Type (0, 1), BuildingBlock: EZIPEK_clean_linker_0, # of connection points: 2
#     Edge 49, Type (0, 1), BuildingBlock: EZIPEK_clean_linker_0, # of connection points: 2
#     Edge 50, Type (0, 1), BuildingBlock: EZIPEK_clean_linker_0, # of connection points: 2
#     Edge 51, Type (0, 1), BuildingBlock: EZIPEK_clean_linker_0, # of connection points: 2
#     Edge 52, Type (0, 1), BuildingBlock: EZIPEK_clean_linker_0, # of connection points: 2
#     Edge 53, Type (0, 1), BuildingBlock: EZIPEK_clean_linker_0, # of connection points: 2
#     Edge 54, Type (0, 1), BuildingBlock: EZIPEK_clean_linker_0, # of connection points: 2
#     Edge 55, Type (0, 1), BuildingBlock: EZIPEK_clean_linker_0, # of connection points: 2
#     Edge 56, Type (0, 1), BuildingBlock: EZIPEK_clean_linker_0, # of connection points: 2
#     Edge 57, Type (0, 1), BuildingBlock: EZIPEK_clean_linker_0, # of connection points: 2
#     Edge 58, Type (0, 1), BuildingBlock: EZIPEK_clean_linker_0, # of connection points: 2
#     Edge 59, Type (0, 1), BuildingBlock: EZIPEK_clean_linker_0, # of connection points: 2
#     Edge 60, Type (0, 1), BuildingBlock: EZIPEK_clean_linker_0, # of connection points: 2
#     Edge 61, Type (0, 1), BuildingBlock: EZIPEK_clean_linker_0, # of connection points: 2
#     Edge 62, Type (0, 1), BuildingBlock: EZIPEK_clean_linker_0, # of connection points: 2
#     Edge 63, Type (0, 1), BuildingBlock: EZIPEK_clean_linker_0, # of connection points: 2
#     Edge 64, Type (0, 1), BuildingBlock: EZIPEK_clean_linker_0, # of connection points: 2
#     Edge 65, Type (0, 1), BuildingBlock: EZIPEK_clean_linker_0, # of connection points: 2
#     Edge 66, Type (0, 1), BuildingBlock: EZIPEK_clean_linker_0, # of connection points: 2
#     Edge 67, Type (0, 1), BuildingBlock: EZIPEK_clean_linker_0, # of connection points: 2
#     Edge 68, Type (0, 1), BuildingBlock: EZIPEK_clean_linker_0, # of connection points: 2
#     Edge 69, Type (0, 1), BuildingBlock: EZIPEK_clean_linker_0, # of connection points: 2
#     Edge 70, Type (0, 1), BuildingBlock: EZIPEK_clean_linker_0, # of connection points: 2
#     Edge 71, Type (0, 1), BuildingBlock: EZIPEK_clean_linker_0, # of connection points: 2
#     Edge 72, Type (0, 1), BuildingBlock: EZIPEK_clean_linker_0, # of connection points: 2
#     Edge 73, Type (0, 1), BuildingBlock: EZIPEK_clean_linker_0, # of connection points: 2
#     Edge 74, Type (0, 1), BuildingBlock: EZIPEK_clean_linker_0, # of connection points: 2
#     Edge 75, Type (0, 1), BuildingBlock: EZIPEK_clean_linker_0, # of connection points: 2
#     Edge 76, Type (0, 1), BuildingBlock: EZIPEK_clean_linker_0, # of connection points: 2
#     Edge 77, Type (0, 1), BuildingBlock: EZIPEK_clean_linker_0, # of connection points: 2
#     Edge 78, Type (0, 1), BuildingBlock: EZIPEK_clean_linker_0, # of connection points: 2
#     Edge 79, Type (0, 1), BuildingBlock: EZIPEK_clean_linker_0, # of connection points: 2
#     Edge 80, Type (0, 1), BuildingBlock: EZIPEK_clean_linker_0, # of connection points: 2
#     Edge 81, Type (0, 1), BuildingBlock: EZIPEK_clean_linker_0, # of connection points: 2
#     Edge 82, Type (0, 1), BuildingBlock: EZIPEK_clean_linker_0, # of connection points: 2
#     Edge 83, Type (0, 1), BuildingBlock: EZIPEK_clean_linker_0, # of connection points: 2
#     Edge 84, Type (0, 1), BuildingBlock: EZIPEK_clean_linker_0, # of connection points: 2
#     Edge 85, Type (0, 1), BuildingBlock: EZIPEK_clean_linker_0, # of connection points: 2
#     Edge 86, Type (0, 1), BuildingBlock: EZIPEK_clean_linker_0, # of connection points: 2
#     Edge 87, Type (0, 1), BuildingBlock: EZIPEK_clean_linker_0, # of connection points: 2
#     Edge 88, Type (0, 1), BuildingBlock: EZIPEK_clean_linker_0, # of connection points: 2
#     Edge 89, Type (0, 1), BuildingBlock: EZIPEK_clean_linker_0, # of connection points: 2
#     Edge 90, Type (0, 1), BuildingBlock: EZIPEK_clean_linker_0, # of connection points: 2
#     Edge 91, Type (0, 1), BuildingBlock: EZIPEK_clean_linker_0, # of connection points: 2
#     Edge 92, Type (0, 1), BuildingBlock: EZIPEK_clean_linker_0, # of connection points: 2
#     Edge 93, Type (0, 1), BuildingBlock: EZIPEK_clean_linker_0, # of connection points: 2
#     Edge 94, Type (0, 1), BuildingBlock: EZIPEK_clean_linker_0, # of connection points: 2
#     Edge 95, Type (0, 1), BuildingBlock: EZIPEK_clean_linker_0, # of connection points: 2
#     Edge 96, Type (0, 1), BuildingBlock: EZIPEK_clean_linker_0, # of connection points: 2
#     Edge 97, Type (0, 1), BuildingBlock: EZIPEK_clean_linker_0, # of connection points: 2
#     Edge 98, Type (0, 1), BuildingBlock: EZIPEK_clean_linker_0, # of connection points: 2
#     Edge 99, Type (0, 1), BuildingBlock: EZIPEK_clean_linker_0, # of connection points: 2
#     Edge 100, Type (0, 1), BuildingBlock: EZIPEK_clean_linker_0, # of connection points: 2
#     Edge 101, Type (0, 1), BuildingBlock: EZIPEK_clean_linker_0, # of connection points: 2
#     Edge 102, Type (0, 1), BuildingBlock: EZIPEK_clean_linker_0, # of connection points: 2
#     Edge 103, Type (0, 1), BuildingBlock: EZIPEK_clean_linker_0, # of connection points: 2
#     Edge 104, Type (0, 1), BuildingBlock: EZIPEK_clean_linker_0, # of connection points: 2
#     Edge 105, Type (0, 1), BuildingBlock: EZIPEK_clean_linker_0, # of connection points: 2
#     Edge 106, Type (0, 1), BuildingBlock: EZIPEK_clean_linker_0, # of connection points: 2
#     Edge 107, Type (0, 1), BuildingBlock: EZIPEK_clean_linker_0, # of connection points: 2
#     Edge 108, Type (0, 1), BuildingBlock: EZIPEK_clean_linker_0, # of connection points: 2
#     Edge 109, Type (0, 1), BuildingBlock: EZIPEK_clean_linker_0, # of connection points: 2
#     Edge 110, Type (0, 1), BuildingBlock: EZIPEK_clean_linker_0, # of connection points: 2
#     Edge 111, Type (0, 1), BuildingBlock: EZIPEK_clean_linker_0, # of connection points: 2
#     Edge 112, Type (0, 1), BuildingBlock: EZIPEK_clean_linker_0, # of connection points: 2
#     Edge 113, Type (0, 1), BuildingBlock: EZIPEK_clean_linker_0, # of connection points: 2
#     Edge 114, Type (0, 1), BuildingBlock: EZIPEK_clean_linker_0, # of connection points: 2
#     Edge 115, Type (0, 1), BuildingBlock: EZIPEK_clean_linker_0, # of connection points: 2
#     Edge 116, Type (0, 1), BuildingBlock: EZIPEK_clean_linker_0, # of connection points: 2
#     Edge 117, Type (0, 1), BuildingBlock: EZIPEK_clean_linker_0, # of connection points: 2
#     Edge 118, Type (0, 1), BuildingBlock: EZIPEK_clean_linker_0, # of connection points: 2
#     Edge 119, Type (0, 1), BuildingBlock: EZIPEK_clean_linker_0, # of connection points: 2
#     Edge 120, Type (0, 1), BuildingBlock: EZIPEK_clean_linker_0, # of connection points: 2
#     Edge 121, Type (0, 1), BuildingBlock: EZIPEK_clean_linker_0, # of connection points: 2
#     Edge 122, Type (0, 1), BuildingBlock: EZIPEK_clean_linker_0, # of connection points: 2
#     Edge 123, Type (0, 1), BuildingBlock: EZIPEK_clean_linker_0, # of connection points: 2
#     Edge 124, Type (0, 1), BuildingBlock: EZIPEK_clean_linker_0, # of connection points: 2
#     Edge 125, Type (0, 1), BuildingBlock: EZIPEK_clean_linker_0, # of connection points: 2
#     Edge 126, Type (0, 1), BuildingBlock: EZIPEK_clean_linker_0, # of connection points: 2
#     Edge 127, Type (0, 1), BuildingBlock: EZIPEK_clean_linker_0, # of connection points: 2
#     Edge 128, Type (0, 1), BuildingBlock: EZIPEK_clean_linker_0, # of connection points: 2
#     Edge 129, Type (0, 1), BuildingBlock: EZIPEK_clean_linker_0, # of connection points: 2
#     Edge 130, Type (0, 1), BuildingBlock: EZIPEK_clean_linker_0, # of connection points: 2
#     Edge 131, Type (0, 1), BuildingBlock: EZIPEK_clean_linker_0, # of connection points: 2
#     Edge 132, Type (0, 1), BuildingBlock: EZIPEK_clean_linker_0, # of connection points: 2
#     Edge 133, Type (0, 1), BuildingBlock: EZIPEK_clean_linker_0, # of connection points: 2
#     Edge 134, Type (0, 1), BuildingBlock: EZIPEK_clean_linker_0, # of connection points: 2
#     Edge 135, Type (0, 1), BuildingBlock: EZIPEK_clean_linker_0, # of connection points: 2
# Relax obj value: 0.306
# Max RMSD: 0.286
# Mean RMSD: 0.260
data_MOF--net-ibd--node1-KUFVIS_clean_sbu_0--node2-IZENUY_clean_sbu_0--edge1-EZIPEK_clean_linker_0
_symmetry_space_group_name_H-M    P1
_symmetry_Int_Tables_number       1
_symmetry_cell_setting            triclinic
loop_
_symmetry_equiv_pos_as_xyz
'x, y, z'
_cell_length_a     36.088563
_cell_length_b     36.09955
_cell_length_c     36.083666
_cell_angle_alpha  91.10888
_cell_angle_beta   91.241485
_cell_angle_gamma 91.215216
loop_
_atom_site_label
_atom_site_type_symbol
_atom_site_fract_x
_atom_site_fract_y
_atom_site_fract_z
_atom_type_partial_charge
Mn0 Mn 0.98631 0.23953 0.3894 0.0
Mn1 Mn 0.02523 0.31898 0.36072 0.0
C2 C 0.02903 0.27133 0.42721 0.0
C3 C 0.94405 0.20433 0.42126 0.0
C4 C 0.04132 0.24319 0.3272 0.0
O5 O 0.95032 0.25656 0.34817 0.0
O6 O 0.97436 0.31393 0.33832 0.0
C7 C 0.97891 0.37525 0.39722 0.0
N8 N 0.01274 0.36065 0.3913 0.0
C9 C 0.04283 0.40879 0.42885 0.0
C10 C 0.00827 0.42462 0.43483 0.0
C11 C 0.97612 0.4076 0.41914 0.0
C12 C 0.04378 0.37649 0.40677 0.0
H13 H 0.95439 0.36208 0.38555 0.0
C14 C 0.94926 0.28839 0.33285 0.0
O15 O 0.96167 0.19029 0.39364 0.0
O16 O 0.94718 0.2399 0.42723 0.0
N17 N 0.07433 0.32631 0.38142 0.0
C18 C 0.10459 0.30477 0.3777 0.0
C19 C 0.13909 0.31734 0.3923 0.0
C20 C 0.1419 0.35146 0.41159 0.0
C21 C 0.10996 0.37213 0.41701 0.0
C22 C 0.0765 0.35849 0.40119 0.0
H23 H 0.10219 0.27766 0.36485 0.0
O24 O 0.02335 0.23606 0.43126 0.0
O25 O 0.01046 0.28627 0.40049 0.0
O26 O 0.02491 0.2251 0.35201 0.0
O27 O 0.04111 0.27852 0.32632 0.0
C28 C 0.10987 0.40527 0.43822 0.0
C29 C 0.0763 0.42349 0.44436 0.0
H30 H 0.00605 0.44955 0.45176 0.0
H31 H 0.94926 0.41937 0.42392 0.0
H32 H 0.16332 0.3005 0.38923 0.0
H33 H 0.16847 0.36091 0.42317 0.0
H34 H 0.13541 0.41665 0.45036 0.0
H35 H 0.07648 0.44856 0.46135 0.0
Mn36 Mn 0.01402 0.76119 0.61976 0.0
Mn37 Mn 0.95009 0.69887 0.64922 0.0
C38 C 0.9901 0.71381 0.58055 0.0
C39 C 0.03936 0.81051 0.58751 0.0
C40 C 0.03034 0.70123 0.67597 0.0
O41 O 0.99059 0.78943 0.66372 0.0
O42 O 0.95016 0.7439 0.68001 0.0
C43 C 0.88296 0.74142 0.63119 0.0
N44 N 0.90325 0.71027 0.62676 0.0
C45 C 0.8574 0.68341 0.5844 0.0
C46 C 0.83596 0.71509 0.58863 0.0
C47 C 0.84887 0.74428 0.61207 0.0
C48 C 0.89122 0.68217 0.60409 0.0
H49 H 0.89267 0.764 0.64912 0.0
C50 C 0.96494 0.77615 0.6843 0.0
O51 O 0.0562 0.79693 0.6159 0.0
O52 O 0.00482 0.8004 0.58215 0.0
N53 N 0.94652 0.65384 0.62026 0.0
C54 C 0.96943 0.62441 0.62064 0.0
C55 C 0.96052 0.59287 0.59857 0.0
C56 C 0.92765 0.59158 0.57699 0.0
C57 C 0.90363 0.62158 0.57823 0.0
C58 C 0.91401 0.65221 0.60078 0.0
H59 H 0.99408 0.62494 0.63787 0.0
O60 O 0.02326 0.72728 0.57586 0.0
O61 O 0.9737 0.72616 0.60954 0.0
O62 O 0.03962 0.72752 0.65535 0.0
O63 O 0.99802 0.68562 0.67453 0.0
C64 C 0.86969 0.62225 0.55819 0.0
C65 C 0.84666 0.65315 0.56116 0.0
H66 H 0.80966 0.71739 0.57388 0.0
H67 H 0.83258 0.76892 0.61539 0.0
H68 H 0.9789 0.56958 0.59822 0.0
H69 H 0.92101 0.56726 0.55994 0.0
H70 H 0.86083 0.59922 0.54043 0.0
H71 H 0.82072 0.65333 0.5455 0.0
Mn72 Mn 0.49629 0.7503 0.88903 0.0
Mn73 Mn 0.53941 0.82539 0.85446 0.0
C74 C 0.54417 0.78005 0.92214 0.0
C75 C 0.45429 0.71958 0.92712 0.0
C76 C 0.54644 0.74737 0.82196 0.0
O77 O 0.45822 0.76971 0.85078 0.0
O78 O 0.48671 0.82384 0.83516 0.0
C79 C 0.50155 0.88893 0.8892 0.0
N80 N 0.53278 0.86922 0.88435 0.0
C81 C 0.56839 0.9128 0.92288 0.0
C82 C 0.53622 0.93287 0.92898 0.0
C83 C 0.50267 0.92101 0.91183 0.0
C84 C 0.56548 0.88104 0.89992 0.0
H85 H 0.4762 0.8803 0.8757 0.0
C86 C 0.45901 0.80051 0.83328 0.0
O87 O 0.46841 0.70328 0.89859 0.0
O88 O 0.46093 0.75495 0.93103 0.0
N89 N 0.58991 0.82832 0.87277 0.0
C90 C 0.61726 0.80318 0.8689 0.0
C91 C 0.65279 0.81106 0.88406 0.0
C92 C 0.6595 0.84403 0.90455 0.0
C93 C 0.63041 0.86844 0.91023 0.0
C94 C 0.59581 0.85954 0.89354 0.0
H95 H 0.61165 0.77658 0.85581 0.0
O96 O 0.53698 0.74514 0.92701 0.0
O97 O 0.52475 0.7954 0.89629 0.0
O98 O 0.52977 0.73141 0.84813 0.0
O99 O 0.54959 0.78258 0.82061 0.0
C100 C 0.63408 0.90057 0.93289 0.0
C101 C 0.60307 0.92273 0.93924 0.0
H102 H 0.53697 0.95741 0.94676 0.0
H103 H 0.47775 0.93659 0.91599 0.0
H104 H 0.67467 0.7913 0.8808 0.0
H105 H 0.68674 0.8497 0.91682 0.0
H106 H 0.66046 0.9081 0.94615 0.0
H107 H 0.60607 0.94708 0.95715 0.0
Mn108 Mn 0.51366 0.25947 0.12324 0.0
Mn109 Mn 0.4522 0.19491 0.15371 0.0
C110 C 0.49163 0.20987 0.08492 0.0
C111 C 0.53657 0.31023 0.09017 0.0
C112 C 0.53269 0.20033 0.17967 0.0
O113 O 0.4888 0.28752 0.16641 0.0
O114 O 0.4499 0.24093 0.18339 0.0
C115 C 0.38259 0.23313 0.13482 0.0
N116 N 0.40488 0.20337 0.13069 0.0
C117 C 0.36108 0.17357 0.08796 0.0
C118 C 0.33761 0.20378 0.09196 0.0
C119 C 0.34847 0.23373 0.11541 0.0
C120 C 0.3947 0.17446 0.10813 0.0
H121 H 0.39073 0.25629 0.15276 0.0
C122 C 0.46318 0.27398 0.18687 0.0
O123 O 0.55423 0.29737 0.11842 0.0
O124 O 0.50277 0.29769 0.08479 0.0
N125 N 0.45113 0.14931 0.12566 0.0
C126 C 0.47589 0.12146 0.1264 0.0
C127 C 0.46939 0.08961 0.10413 0.0
C128 C 0.43674 0.08606 0.08232 0.0
C129 C 0.41083 0.11445 0.08314 0.0
C130 C 0.41908 0.14574 0.10562 0.0
H131 H 0.50026 0.12352 0.14397 0.0
O132 O 0.52403 0.22488 0.07996 0.0
O133 O 0.47493 0.22218 0.11369 0.0
O134 O 0.54074 0.22753 0.15963 0.0
O135 O 0.50072 0.1841 0.17897 0.0
C136 C 0.37727 0.11306 0.06239 0.0
C137 C 0.35243 0.14261 0.06477 0.0
H138 H 0.31114 0.20424 0.07729 0.0
H139 H 0.33056 0.25721 0.11856 0.0
H140 H 0.48966 0.06799 0.1037 0.0
H141 H 0.43184 0.06144 0.06514 0.0
H142 H 0.37023 0.08939 0.04456 0.0
H143 H 0.32672 0.14121 0.04869 0.0
Mn144 Mn 0.99319 0.74355 0.14523 0.0
Mn145 Mn 0.05345 0.80502 0.10805 0.0
C146 C 0.04372 0.76722 0.18007 0.0
C147 C 0.9392 0.72773 0.17812 0.0
C148 C 0.0473 0.72324 0.08523 0.0
O149 O 0.96389 0.76472 0.10106 0.0
O150 O 0.00363 0.81079 0.08459 0.0
C151 C 0.0247 0.87761 0.13286 0.0
N152 N 0.05231 0.85255 0.13274 0.0
C153 C 0.0929 0.89471 0.1677 0.0
C154 C 0.06478 0.92088 0.16816 0.0
C155 C 0.03041 0.91218 0.15085 0.0
C156 C 0.08539 0.86057 0.14962 0.0
H157 H -0.00128 0.87132 0.11912 0.0
C158 C 0.97225 0.7933 0.08198 0.0
O159 O 0.95451 0.70508 0.15512 0.0
O160 O 0.95508 0.7603 0.18129 0.0
N161 N 0.10239 0.80192 0.12934 0.0
C162 C 0.12783 0.77519 0.1237 0.0
C163 C 0.16359 0.77946 0.13945 0.0
C164 C 0.17328 0.81183 0.15985 0.0
C165 C 0.14724 0.83981 0.1638 0.0
C166 C 0.11186 0.83372 0.14789 0.0
H167 H 0.12113 0.75117 0.10668 0.0
O168 O 0.02817 0.73578 0.18849 0.0
O169 O 0.03019 0.78263 0.15086 0.0
O170 O 0.02504 0.71344 0.11018 0.0
O171 O 0.05797 0.75683 0.08074 0.0
C172 C 0.15536 0.87384 0.18214 0.0
C173 C 0.12821 0.90127 0.18423 0.0
H174 H 0.06929 0.9477 0.18166 0.0
H175 H 0.00849 0.9322 0.15107 0.0
H176 H 0.18379 0.7581 0.13541 0.0
H177 H 0.20101 0.81525 0.17169 0.0
H178 H 0.18266 0.87929 0.19412 0.0
H179 H 0.13488 0.92743 0.1983 0.0
Mn180 Mn 0.52158 0.75805 0.37024 0.0
Mn181 Mn 0.4432 0.71825 0.39971 0.0
C182 C 0.48716 0.72017 0.32995 0.0
C183 C 0.55396 0.80418 0.34009 0.0
C184 C 0.5204 0.69722 0.42697 0.0
O185 O 0.50892 0.78843 0.41703 0.0
O186 O 0.45103 0.76572 0.42744 0.0
C187 C 0.38651 0.77032 0.3736 0.0
N188 N 0.40042 0.73554 0.37383 0.0
C189 C 0.35056 0.71201 0.33417 0.0
C190 C 0.33583 0.74762 0.33324 0.0
C191 C 0.35393 0.77693 0.353 0.0
C192 C 0.38324 0.70717 0.35497 0.0
H193 H 0.40036 0.79284 0.38882 0.0
C194 C 0.47828 0.78828 0.4345 0.0
O195 O 0.57043 0.78369 0.3643 0.0
O196 O 0.51806 0.80152 0.33759 0.0
N197 N 0.43324 0.67208 0.37404 0.0
C198 C 0.45421 0.6412 0.37244 0.0
C199 C 0.44074 0.60957 0.35286 0.0
C200 C 0.40632 0.61042 0.33415 0.0
C201 C 0.38595 0.64304 0.33489 0.0
C202 C 0.4005 0.67348 0.35532 0.0
H203 H 0.48179 0.64126 0.38439 0.0
O204 O 0.5221 0.72648 0.32453 0.0
O205 O 0.47374 0.73589 0.35935 0.0
O206 O 0.53749 0.71425 0.40172 0.0
O207 O 0.48522 0.69838 0.4295 0.0
C208 C 0.35233 0.64683 0.31516 0.0
C209 C 0.33462 0.68128 0.31461 0.0
H210 H 0.31073 0.75281 0.31734 0.0
H211 H 0.34272 0.80449 0.35245 0.0
H212 H 0.4573 0.58497 0.35134 0.0
H213 H 0.39645 0.58633 0.31823 0.0
H214 H 0.34042 0.62342 0.29989 0.0
H215 H 0.30917 0.684 0.29852 0.0
Mn216 Mn 0.502 0.24111 0.64097 0.0
Mn217 Mn 0.55946 0.30504 0.60405 0.0
C218 C 0.55216 0.26669 0.67569 0.0
C219 C 0.45213 0.21941 0.67597 0.0
C220 C 0.55458 0.22497 0.57841 0.0
O221 O 0.47086 0.2631 0.59844 0.0
O222 O 0.50895 0.31078 0.58199 0.0
C223 C 0.53028 0.37518 0.6336 0.0
N224 N 0.55861 0.35124 0.63048 0.0
C225 C 0.59966 0.39183 0.66657 0.0
C226 C 0.57084 0.41686 0.67029 0.0
C227 C 0.53587 0.40832 0.65396 0.0
C228 C 0.59222 0.35895 0.64642 0.0
H229 H 0.50364 0.36885 0.62083 0.0
C230 C 0.47819 0.2921 0.57946 0.0
O231 O 0.46575 0.20004 0.64925 0.0
O232 O 0.46457 0.25336 0.67982 0.0
N233 N 0.60875 0.30105 0.62401 0.0
C234 C 0.63318 0.2732 0.61907 0.0
C235 C 0.66906 0.27674 0.63465 0.0
C236 C 0.67972 0.30917 0.65457 0.0
C237 C 0.65428 0.33767 0.65876 0.0
C238 C 0.61881 0.33243 0.64286 0.0
H239 H 0.62543 0.24838 0.60344 0.0
O240 O 0.53883 0.23404 0.68334 0.0
O241 O 0.5374 0.28148 0.64681 0.0
O242 O 0.53377 0.21372 0.60388 0.0
O243 O 0.56403 0.25881 0.57464 0.0
C244 C 0.66268 0.37098 0.67831 0.0
C245 C 0.63534 0.39801 0.68245 0.0
H246 H 0.57545 0.4425 0.68582 0.0
H247 H 0.51318 0.42711 0.65683 0.0
H248 H 0.68839 0.25448 0.63133 0.0
H249 H 0.70741 0.31183 0.66665 0.0
H250 H 0.6901 0.3759 0.69022 0.0
H251 H 0.64198 0.42334 0.698 0.0
Mn252 Mn 0.01856 0.25536 0.86974 0.0
Mn253 Mn 0.93808 0.22115 0.90298 0.0
C254 C 0.98362 0.21164 0.8357 0.0
C255 C 0.05171 0.29643 0.83329 0.0
C256 C 0.01407 0.20273 0.93461 0.0
O257 O 0.00476 0.2943 0.90882 0.0
O258 O 0.94777 0.27213 0.9238 0.0
C259 C 0.8826 0.27056 0.86946 0.0
N260 N 0.89673 0.23616 0.87314 0.0
C261 C 0.84941 0.20954 0.83207 0.0
C262 C 0.83474 0.24485 0.82745 0.0
C263 C 0.85135 0.27549 0.84635 0.0
C264 C 0.88057 0.20639 0.85553 0.0
H265 H 0.89506 0.29394 0.88414 0.0
C266 C 0.97425 0.2966 0.9262 0.0
O267 O 0.06772 0.27935 0.86039 0.0
O268 O 0.01611 0.2921 0.82932 0.0
N269 N 0.92662 0.17219 0.88407 0.0
C270 C 0.94308 0.13975 0.89279 0.0
C271 C 0.9293 0.10632 0.87679 0.0
C272 C 0.89869 0.10657 0.85213 0.0
C273 C 0.88157 0.14014 0.84441 0.0
C274 C 0.89629 0.17252 0.86147 0.0
H275 H 0.96666 0.13933 0.91167 0.0
O276 O 0.01894 0.21541 0.83036 0.0
O277 O 0.97069 0.23196 0.86212 0.0
O278 O 0.03329 0.21946 0.91062 0.0
O279 O 0.9787 0.20302 0.93498 0.0
C280 C 0.85052 0.14271 0.82038 0.0
C281 C 0.83437 0.17737 0.81426 0.0
H282 H 0.81065 0.24873 0.80961 0.0
H283 H 0.84007 0.30282 0.84317 0.0
H284 H 0.94239 0.08046 0.88324 0.0
H285 H 0.88849 0.08084 0.8394 0.0
H286 H 0.83886 0.11812 0.80659 0.0
H287 H 0.81037 0.17898 0.79587 0.0
Mn288 Mn 0.38931 0.00388 0.24275 0.0
Mn289 Mn 0.36232 0.03897 0.32529 0.0
C290 C 0.42598 0.04737 0.27521 0.0
C291 C 0.42255 0.96404 0.20547 0.0
C292 C 0.32722 0.05927 0.25162 0.0
O293 O 0.35122 0.96509 0.25907 0.0
O294 O 0.33718 0.99001 0.31511 0.0
C295 C 0.39447 0.98443 0.37646 0.0
N296 N 0.39233 0.01987 0.36457 0.0
C297 C 0.43451 0.04173 0.41314 0.0
C298 C 0.43745 0.00535 0.42561 0.0
C299 C 0.41737 0.97656 0.40712 0.0
C300 C 0.41157 0.04777 0.38214 0.0
H301 H 0.37862 0.96248 0.36279 0.0
C302 C 0.33393 0.96465 0.28971 0.0
O303 O 0.39362 0.98063 0.19267 0.0
O304 O 0.42974 0.96743 0.24079 0.0
N305 N 0.38509 0.08594 0.3381 0.0
C306 C 0.3781 0.11969 0.3235 0.0
C307 C 0.39568 0.15152 0.33912 0.0
C308 C 0.41975 0.14846 0.36994 0.0
C309 C 0.42575 0.11354 0.38503 0.0
C310 C 0.40757 0.08278 0.36824 0.0
H311 H 0.3593 0.12235 0.30007 0.0
O312 O 0.42838 0.04389 0.23947 0.0
O313 O 0.40093 0.02681 0.29034 0.0
O314 O 0.34778 0.03956 0.23143 0.0
O315 O 0.3304 0.06137 0.28689 0.0
C316 C 0.44858 0.10814 0.41647 0.0
C317 C 0.45323 0.07227 0.43039 0.0
H318 H 0.45491 -0.00077 0.44942 0.0
H319 H 0.41932 0.94841 0.41661 0.0
H320 H 0.39033 0.17838 0.32768 0.0
H321 H 0.43312 0.17312 0.38203 0.0
H322 H 0.46226 0.13149 0.43036 0.0
H323 H 0.47101 0.06854 0.45454 0.0
Mn324 Mn 0.25781 0.11288 0.51129 0.0
Mn325 Mn 0.19282 0.15057 0.45556 0.0
C326 C 0.20904 0.07685 0.48636 0.0
C327 C 0.31215 0.07951 0.52046 0.0
C328 C 0.20026 0.16686 0.53883 0.0
O329 O 0.28377 0.16021 0.4942 0.0
O330 O 0.23875 0.18101 0.45546 0.0
C331 C 0.22876 0.14015 0.38316 0.0
N332 N 0.19959 0.13349 0.40563 0.0
C333 C 0.1673 0.09804 0.35738 0.0
C334 C 0.19698 0.10454 0.33375 0.0
C335 C 0.22793 0.12556 0.34677 0.0
C336 C 0.16981 0.1131 0.39345 0.0
H337 H 0.25248 0.15649 0.3929 0.0
C338 C 0.27092 0.18333 0.47096 0.0
O339 O 0.29877 0.10027 0.54651 0.0
O340 O 0.29543 0.08077 0.48842 0.0
N341 N 0.147 0.12268 0.45264 0.0
C342 C 0.12008 0.12001 0.47829 0.0
C343 C 0.08732 0.09962 0.46975 0.0
C344 C 0.08228 0.08274 0.43457 0.0
C345 C 0.10987 0.08683 0.40811 0.0
C346 C 0.14193 0.10743 0.41831 0.0
H347 H 0.12362 0.13344 0.50493 0.0
O348 O 0.22571 0.06732 0.51682 0.0
O349 O 0.21996 0.10819 0.47309 0.0
O350 O 0.22592 0.14413 0.54538 0.0
O351 O 0.18442 0.16989 0.50682 0.0
C352 C 0.10663 0.07164 0.37188 0.0
C353 C 0.13537 0.07713 0.34657 0.0
H354 H 0.19631 0.09353 0.30561 0.0
H355 H 0.25102 0.13063 0.32876 0.0
H356 H 0.06597 0.09704 0.4902 0.0
H357 H 0.05698 0.06705 0.42804 0.0
H358 H 0.08206 0.05594 0.36306 0.0
H359 H 0.13259 0.0652 0.31884 0.0
Mn360 Mn 0.13694 -0.00042 0.74597 0.0
Mn361 Mn 0.10121 0.04014 0.82136 0.0
C362 C 0.17159 0.04385 0.77944 0.0
C363 C 0.17153 0.95602 0.71511 0.0
C364 C 0.07256 0.05177 0.74224 0.0
O365 O 0.09551 0.96339 0.76085 0.0
O366 O 0.07954 0.989 0.81595 0.0
C367 C 0.13081 0.99583 0.88319 0.0
N368 N 0.1283 0.02886 0.86588 0.0
C369 C 0.16538 0.05944 0.91411 0.0
C370 C 0.16838 0.02565 0.9323 0.0
C371 C 0.15105 0.99367 0.91672 0.0
C372 C 0.14451 0.0599 0.88091 0.0
H373 H 0.1174 0.97142 0.8715 0.0
C374 C 0.07722 0.9631 0.79091 0.0
O375 O 0.14487 0.97302 0.69849 0.0
O376 O 0.17552 0.96118 0.75074 0.0
N377 N 0.12174 0.08934 0.82866 0.0
C378 C 0.12015 0.11871 0.80564 0.0
C379 C 0.13625 0.15295 0.81698 0.0
C380 C 0.15535 0.15623 0.85122 0.0
C381 C 0.15852 0.1251 0.87358 0.0
C382 C 0.14092 0.09199 0.86127 0.0
H383 H 0.10846 0.11553 0.77811 0.0
O384 O 0.17815 0.03759 0.74466 0.0
O385 O 0.14381 0.0253 0.79255 0.0
O386 O 0.0996 0.03633 0.72687 0.0
O387 O 0.06976 0.05413 0.77749 0.0
C388 C 0.17936 0.12537 0.90706 0.0
C389 C 0.18283 0.09255 0.92729 0.0
H390 H 0.18411 0.02389 0.95806 0.0
H391 H 0.15326 0.96742 0.93052 0.0
H392 H 0.13497 0.17643 0.79884 0.0
H393 H 0.16845 0.18245 0.85951 0.0
H394 H 0.1933 0.15055 0.91723 0.0
H395 H 0.19925 0.09298 0.9528 0.0
Mn396 Mn 0.26768 0.8688 0.01403 0.0
Mn397 Mn 0.21836 0.90185 0.94165 0.0
C398 C 0.22038 0.83305 0.98629 0.0
C399 C 0.3174 0.83483 0.03758 0.0
C400 C 0.21374 0.9318 0.02073 0.0
O401 O 0.30119 0.9097 0.99445 0.0
O402 O 0.26991 0.92387 0.94142 0.0
C403 C 0.25501 0.87219 0.87497 0.0
N404 N 0.22501 0.87325 0.89708 0.0
C405 C 0.19034 0.83206 0.85528 0.0
C406 C 0.22144 0.82954 0.83284 0.0
C407 C 0.25385 0.84993 0.8426 0.0
C408 C 0.19323 0.85473 0.88722 0.0
H409 H 0.27925 0.88877 0.88163 0.0
C410 C 0.29821 0.92695 0.96389 0.0
O411 O 0.30113 0.85959 0.05766 0.0
O412 O 0.30545 0.83138 0.00354 0.0
N413 N 0.16888 0.88127 0.94035 0.0
C414 C 0.14094 0.88731 0.96443 0.0
C415 C 0.10639 0.86935 0.9583 0.0
C416 C 0.10083 0.84544 0.92744 0.0
C417 C 0.12972 0.8402 0.90263 0.0
C418 C 0.16352 0.85897 0.91011 0.0
H419 H 0.14498 0.90551 0.9883 0.0
O420 O 0.23081 0.82717 0.0203 0.0
O421 O 0.23661 0.86083 0.9707 0.0
O422 O 0.23327 0.90732 0.03629 0.0
O423 O 0.20806 0.93302 0.98575 0.0
C424 C 0.12634 0.81694 0.8709 0.0
C425 C 0.15661 0.81296 0.8472 0.0
H426 H 0.22059 0.8124 0.80784 0.0
H427 H 0.27776 0.84878 0.82505 0.0
H428 H 0.08416 0.87376 0.97744 0.0
H429 H 0.07421 0.83148 0.92291 0.0
H430 H 0.10059 0.80198 0.86446 0.0
H431 H 0.15372 0.7951 0.82286 0.0
Mn432 Mn 0.22712 0.38654 0.00117 0.0
Mn433 Mn 0.30083 0.35421 0.04902 0.0
C434 C 0.25874 0.42386 0.04451 0.0
C435 C 0.19772 0.41914 0.95517 0.0
C436 C 0.22096 0.3299 0.06305 0.0
O437 O 0.24283 0.34294 0.96801 0.0
O438 O 0.29219 0.32533 0.00262 0.0
C439 C 0.3594 0.37341 0.99592 0.0
N440 N 0.34497 0.37683 0.03039 0.0
C441 C 0.3954 0.41743 0.05081 0.0
C442 C 0.41082 0.41425 0.0156 0.0
C443 C 0.39267 0.39222 0.98801 0.0
C444 C 0.36207 0.39818 0.05702 0.0
H445 H 0.34566 0.35651 0.97456 0.0
C446 C 0.27102 0.32266 0.97372 0.0
O447 O 0.18041 0.39323 0.97261 0.0
O448 O 0.23329 0.42286 0.96096 0.0
N449 N 0.31288 0.38109 0.09416 0.0
C450 C 0.29604 0.37927 0.12744 0.0
C451 C 0.31005 0.40071 0.15768 0.0
C452 C 0.34214 0.42279 0.15371 0.0
C453 C 0.36067 0.42205 0.12 0.0
C454 C 0.34505 0.40052 0.09074 0.0
H455 H 0.27234 0.36142 0.13087 0.0
O456 O 0.22417 0.4297 0.03645 0.0
O457 O 0.27303 0.39527 0.02854 0.0
O458 O 0.20692 0.3515 0.03954 0.0
O459 O 0.25594 0.32905 0.07022 0.0
C460 C 0.39426 0.44148 0.11445 0.0
C461 C 0.41167 0.43915 0.07991 0.0
H462 H 0.4365 0.4287 0.00941 0.0
H463 H 0.40433 0.3897 0.9607 0.0
H464 H 0.29628 0.40004 0.18401 0.0
H465 H 0.35281 0.43949 0.17698 0.0
H466 H 0.40709 0.45802 0.13666 0.0
H467 H 0.43746 0.45431 0.07597 0.0
Mn468 Mn 0.75747 0.13371 0.98951 0.0
Mn469 Mn 0.82153 0.11089 0.0548 0.0
C470 C 0.77503 0.17446 0.03909 0.0
C471 C 0.73198 0.16422 0.93812 0.0
C472 C 0.7446 0.0762 0.04971 0.0
O473 O 0.78828 0.09469 0.96175 0.0
O474 O 0.82718 0.08228 0.00893 0.0
C475 C 0.88577 0.14113 0.0144 0.0
N476 N 0.86572 0.13923 0.04596 0.0
C477 C 0.90686 0.18322 0.07736 0.0
C478 C 0.92839 0.18479 0.04557 0.0
C479 C 0.91769 0.16389 0.01385 0.0
C480 C 0.87507 0.16034 0.07612 0.0
H481 H 0.87729 0.1258 0.9896 0.0
C482 C 0.81705 0.0786 0.97513 0.0
O483 O 0.71687 0.13446 0.95083 0.0
O484 O 0.76482 0.1728 0.95129 0.0
N485 N 0.82008 0.13795 0.10085 0.0
C486 C 0.79628 0.13333 0.12924 0.0
C487 C 0.80259 0.15312 0.16272 0.0
C488 C 0.83387 0.17671 0.16703 0.0
C489 C 0.85884 0.17997 0.13796 0.0
C490 C 0.85106 0.1595 0.10527 0.0
H491 H 0.77311 0.11416 0.12661 0.0
O492 O 0.74215 0.17585 0.02401 0.0
O493 O 0.79458 0.14768 0.02709 0.0
O494 O 0.7347 0.09392 0.02133 0.0
O495 O 0.77627 0.08073 0.06598 0.0
C496 C 0.8914 0.20227 0.14023 0.0
C497 C 0.91514 0.20425 0.10982 0.0
H498 H 0.9523 0.20309 0.04468 0.0
H499 H 0.93374 0.16565 0.98893 0.0
H500 H 0.78363 0.14985 0.18532 0.0
H501 H 0.83865 0.19163 0.19301 0.0
H502 H 0.89864 0.21799 0.16515 0.0
H503 H 0.93968 0.22207 0.11167 0.0
Mn504 Mn 0.11558 0.51385 0.25345 0.0
Mn505 Mn 0.16029 0.44774 0.20535 0.0
C506 C 0.08695 0.48356 0.20268 0.0
C507 C 0.07499 0.53785 0.29677 0.0
C508 C 0.18304 0.52916 0.20736 0.0
O509 O 0.15428 0.49532 0.29088 0.0
O510 O 0.17685 0.4464 0.25823 0.0
C511 C 0.13286 0.37677 0.23555 0.0
N512 N 0.13546 0.40036 0.20679 0.0
C513 C 0.10378 0.35622 0.16565 0.0
C514 C 0.10015 0.33184 0.19515 0.0
C515 C 0.11473 0.34225 0.23028 0.0
C516 C 0.12183 0.39046 0.17274 0.0
H517 H 0.14482 0.38419 0.26211 0.0
C518 C 0.17469 0.46665 0.28786 0.0
O519 O 0.10239 0.55726 0.28448 0.0
O520 O 0.07312 0.50298 0.28699 0.0
N521 N 0.14479 0.44766 0.15427 0.0
C522 C 0.15161 0.4738 0.12843 0.0
C523 C 0.13866 0.46783 0.09185 0.0
C524 C 0.11932 0.43477 0.08203 0.0
C525 C 0.1135 0.40785 0.10883 0.0
C526 C 0.12671 0.41555 0.14497 0.0
H527 H 0.16678 0.49908 0.1356 0.0
O528 O 0.07785 0.51708 0.21178 0.0
O529 O 0.11467 0.47081 0.22123 0.0
O530 O 0.15507 0.54032 0.22442 0.0
O531 O 0.1889 0.49503 0.2005 0.0
C532 C 0.09528 0.3736 0.10104 0.0
C533 C 0.0904 0.34778 0.12943 0.0
H534 H 0.08638 0.30506 0.19114 0.0
H535 H 0.11221 0.32366 0.2532 0.0
H536 H 0.14362 0.48876 0.07143 0.0
H537 H 0.10904 0.43022 0.05389 0.0
H538 H 0.08525 0.36672 0.07322 0.0
H539 H 0.07649 0.32146 0.12308 0.0
Mn540 Mn 0.73127 0.88663 0.51027 0.0
Mn541 Mn 0.80766 0.85653 0.55389 0.0
C542 C 0.76399 0.92617 0.55041 0.0
C543 C 0.70017 0.91632 0.46298 0.0
C544 C 0.72918 0.82869 0.56948 0.0
O545 O 0.74641 0.84101 0.47938 0.0
O546 O 0.80312 0.83018 0.50502 0.0
C547 C 0.86949 0.8818 0.50742 0.0
N548 N 0.8518 0.88277 0.54036 0.0
C549 C 0.89956 0.92268 0.56781 0.0
C550 C 0.91802 0.92243 0.53402 0.0
C551 C 0.90294 0.90182 0.50371 0.0
C552 C 0.86649 0.90188 0.56994 0.0
H553 H 0.85832 0.86562 0.48426 0.0
C554 C 0.7775 0.82428 0.4802 0.0
O555 O 0.68345 0.8918 0.4828 0.0
O556 O 0.73589 0.92006 0.46738 0.0
N557 N 0.81416 0.88178 0.60101 0.0
C558 C 0.79047 0.88361 0.62983 0.0
C559 C 0.80085 0.90398 0.66208 0.0
C560 C 0.83481 0.92365 0.66377 0.0
C561 C 0.85806 0.92282 0.63318 0.0
C562 C 0.84656 0.90138 0.60207 0.0
H563 H 0.76306 0.87134 0.62751 0.0
O564 O 0.72933 0.93191 0.54267 0.0
O565 O 0.77794 0.89699 0.53486 0.0
O566 O 0.71323 0.85446 0.55233 0.0
O567 O 0.76442 0.82598 0.57035 0.0
C568 C 0.89151 0.94355 0.63185 0.0
C569 C 0.91234 0.94333 0.59924 0.0
H570 H 0.9437 0.93806 0.531 0.0
H571 H 0.91711 0.90131 0.47758 0.0
H572 H 0.78213 0.90558 0.68506 0.0
H573 H 0.84228 0.94014 0.68831 0.0
H574 H 0.90113 0.96031 0.65552 0.0
H575 H 0.93777 0.95971 0.59833 0.0
Mn576 Mn 0.8719 0.00022 0.26842 0.0
Mn577 Mn 0.8966 0.91764 0.23136 0.0
C578 C 0.8345 0.96982 0.22403 0.0
C579 C 0.83965 0.03728 0.30946 0.0
C580 C 0.93404 0.99083 0.21301 0.0
O581 O 0.91012 0.98202 0.30636 0.0
O582 O 0.92144 0.92548 0.281 0.0
C583 C 0.85837 0.86865 0.28392 0.0
N584 N 0.86411 0.87937 0.24857 0.0
C585 C 0.81848 0.8349 0.22478 0.0
C586 C 0.81225 0.82335 0.26102 0.0
C587 C 0.83218 0.84045 0.29076 0.0
C588 C 0.84471 0.86343 0.21979 0.0
H589 H 0.87334 0.8819 0.30662 0.0
C590 C 0.92639 0.95076 0.30636 0.0
O591 O 0.86848 0.05005 0.29266 0.0
O592 O 0.83196 0.00212 0.30557 0.0
N593 N 0.87431 0.90705 0.1835 0.0
C594 C 0.88189 0.92295 0.15048 0.0
C595 C 0.86364 0.90959 0.11797 0.0
C596 C 0.83825 0.87968 0.11962 0.0
C597 C 0.83122 0.86348 0.15383 0.0
C598 C 0.85044 0.8778 0.18526 0.0
H599 H 0.90152 0.94582 0.14893 0.0
O600 O 0.83252 0.00541 0.2289 0.0
O601 O 0.8592 0.95363 0.24415 0.0
O602 O 0.91323 0.01119 0.23236 0.0
O603 O 0.93075 0.95552 0.21086 0.0
C604 C 0.80542 0.83411 0.15806 0.0
C605 C 0.79894 0.81994 0.19355 0.0
H606 H 0.79203 0.8016 0.26636 0.0
H607 H 0.8274 0.83187 0.31887 0.0
H608 H 0.86909 0.92235 0.09169 0.0
H609 H 0.82405 0.86964 0.09452 0.0
H610 H 0.78997 0.82264 0.13429 0.0
H611 H 0.7785 0.79788 0.19662 0.0
Mn612 Mn 0.25906 0.63489 0.49359 0.0
Mn613 Mn 0.31814 0.60683 0.56118 0.0
C614 C 0.27357 0.67271 0.54582 0.0
C615 C 0.24056 0.66719 0.43963 0.0
C616 C 0.24224 0.57129 0.54487 0.0
O617 O 0.29185 0.59601 0.46719 0.0
O618 O 0.33366 0.5864 0.5132 0.0
C619 C 0.38553 0.64895 0.53908 0.0
N620 N 0.36055 0.63972 0.56531 0.0
C621 C 0.39168 0.68005 0.61046 0.0
C622 C 0.41921 0.68774 0.58472 0.0
C623 C 0.41583 0.67251 0.54868 0.0
C624 C 0.36252 0.65575 0.59946 0.0
H625 H 0.38168 0.63944 0.51072 0.0
C626 C 0.32301 0.58318 0.47924 0.0
O627 O 0.22216 0.63909 0.45185 0.0
O628 O 0.27163 0.67455 0.45717 0.0
N629 N 0.30579 0.62599 0.60912 0.0
C630 C 0.27688 0.61604 0.63073 0.0
C631 C 0.27471 0.631 0.6668 0.0
C632 C 0.30276 0.65535 0.68065 0.0
C633 C 0.33291 0.66422 0.6584 0.0
C634 C 0.33352 0.64851 0.62264 0.0
H635 H 0.25591 0.59641 0.62077 0.0
O636 O 0.24227 0.67641 0.52791 0.0
O637 O 0.29276 0.64538 0.5345 0.0
O638 O 0.23187 0.59511 0.52178 0.0
O639 O 0.27469 0.5714 0.55989 0.0
C640 C 0.36241 0.68799 0.67035 0.0
C641 C 0.39165 0.69613 0.64633 0.0
H642 H 0.44231 0.70634 0.5919 0.0
H643 H 0.43606 0.6796 0.52811 0.0
H644 H 0.25161 0.62353 0.68398 0.0
H645 H 0.30101 0.66689 0.70848 0.0
H646 H 0.36283 0.70015 0.69796 0.0
H647 H 0.41389 0.7149 0.65567 0.0
Mn648 Mn 0.3673 0.51275 0.76588 0.0
Mn649 Mn 0.39224 0.43393 0.721 0.0
C650 C 0.32792 0.48363 0.72247 0.0
C651 C 0.33615 0.54674 0.81016 0.0
C652 C 0.42438 0.51037 0.70456 0.0
O653 O 0.40816 0.49344 0.80019 0.0
O654 O 0.42053 0.43998 0.76905 0.0
C655 C 0.36462 0.37681 0.77206 0.0
N656 N 0.36405 0.39228 0.73801 0.0
C657 C 0.32033 0.34569 0.71466 0.0
C658 C 0.32008 0.3297 0.74974 0.0
C659 C 0.34241 0.34532 0.77856 0.0
C660 C 0.34282 0.37731 0.71 0.0
H661 H 0.38216 0.38824 0.79386 0.0
C662 C 0.42542 0.46292 0.79654 0.0
O663 O 0.36401 0.56102 0.79298 0.0
O664 O 0.32945 0.51147 0.80524 0.0
N665 N 0.36653 0.42498 0.67447 0.0
C666 C 0.37174 0.44218 0.64161 0.0
C667 C 0.35216 0.42931 0.60967 0.0
C668 C 0.3279 0.39853 0.61164 0.0
C669 C 0.32397 0.38046 0.64541 0.0
C670 C 0.34433 0.39446 0.67629 0.0
H671 H 0.39055 0.46568 0.63974 0.0
O672 O 0.32554 0.51889 0.72933 0.0
O673 O 0.3543 0.46687 0.73971 0.0
O674 O 0.40574 0.52814 0.72818 0.0
O675 O 0.42174 0.4752 0.70008 0.0
C676 C 0.30098 0.34883 0.64953 0.0
C677 C 0.29916 0.33147 0.68414 0.0
H678 H 0.30307 0.30531 0.75479 0.0
H679 H 0.34275 0.33297 0.80564 0.0
H680 H 0.35579 0.4431 0.58359 0.0
H681 H 0.31277 0.38875 0.58698 0.0
H682 H 0.28471 0.33753 0.62622 0.0
H683 H 0.28144 0.30716 0.68702 0.0
Mn684 Mn 0.61699 0.01114 0.75871 0.0
Mn685 Mn 0.65842 0.95096 0.69999 0.0
C686 C 0.5856 0.98722 0.70684 0.0
C687 C 0.57838 0.03416 0.80415 0.0
C688 C 0.67975 0.03209 0.70792 0.0
O689 O 0.65501 0.98758 0.79244 0.0
O690 O 0.68073 0.94731 0.75132 0.0
C691 C 0.64721 0.87408 0.72436 0.0
N692 N 0.63858 0.90126 0.70029 0.0
C693 C 0.60836 0.85661 0.6585 0.0
C694 C 0.61442 0.82886 0.68443 0.0
C695 C 0.63441 0.83758 0.71732 0.0
C696 C 0.62149 0.8926 0.66739 0.0
H697 H 0.66556 0.87985 0.74752 0.0
C698 C 0.6776 0.96194 0.78409 0.0
O699 O 0.60758 0.05207 0.79401 0.0
O700 O 0.57406 0.00011 0.79181 0.0
N701 N 0.63625 0.95301 0.65129 0.0
C702 C 0.63555 0.98203 0.62777 0.0
C703 C 0.61683 0.97812 0.59341 0.0
C704 C 0.60004 0.94396 0.58294 0.0
C705 C 0.60177 0.91418 0.60723 0.0
C706 C 0.61959 0.92024 0.64177 0.0
H707 H 0.64907 0.008 0.63521 0.0
O708 O 0.57933 0.02052 0.71927 0.0
O709 O 0.61331 0.97083 0.72228 0.0
O710 O 0.65653 0.03978 0.73224 0.0
O711 O 0.68329 -0.00023 0.69427 0.0
C712 C 0.58679 0.87867 0.59841 0.0
C713 C 0.59054 0.84976 0.62384 0.0
H714 H 0.60505 0.80056 0.67877 0.0
H715 H 0.64108 0.81601 0.73657 0.0
H716 H 0.61556 0.00138 0.57501 0.0
H717 H 0.58613 0.94084 0.55613 0.0
H718 H 0.57293 0.87312 0.57189 0.0
H719 H 0.57965 0.82235 0.61647 0.0
Mn720 Mn 0.75236 0.61471 0.02443 0.0
Mn721 Mn 0.69519 0.65077 0.95973 0.0
C722 C 0.70595 0.57796 0.99526 0.0
C723 C 0.80343 0.58275 0.04642 0.0
C724 C 0.69236 0.67022 0.04176 0.0
O725 O 0.78166 0.66064 0.00757 0.0
O726 O 0.7413 0.68067 0.96381 0.0
C727 C 0.74178 0.63366 0.89574 0.0
N728 N 0.70857 0.63061 0.91281 0.0
C729 C 0.68414 0.58951 0.8648 0.0
C730 C 0.71828 0.59174 0.84717 0.0
C731 C 0.74717 0.61406 0.86249 0.0
C732 C 0.68063 0.60918 0.89822 0.0
H733 H 0.76426 0.65028 0.90777 0.0
C734 C 0.77191 0.68302 0.98215 0.0
O735 O 0.78712 0.6072 0.06658 0.0
O736 O 0.79289 0.57991 0.01178 0.0
N737 N 0.64934 0.6237 0.95211 0.0
C738 C 0.61851 0.62397 0.97315 0.0
C739 C 0.58679 0.60341 0.96131 0.0
C740 C 0.58692 0.58328 0.92759 0.0
C741 C 0.61852 0.58457 0.90568 0.0
C742 C 0.64905 0.60595 0.91875 0.0
H743 H 0.61807 0.64008 -0.00154 0.0
O744 O 0.71857 0.56968 0.02801 0.0
O745 O 0.7194 0.60838 0.98209 0.0
O746 O 0.7166 0.64734 0.05157 0.0
O747 O 0.68034 0.67301 0.00822 0.0
C748 C 0.62104 0.56536 0.87148 0.0
C749 C 0.65396 0.56752 0.85121 0.0
H750 H 0.72297 0.57566 0.82246 0.0
H751 H 0.77365 0.61567 0.84902 0.0
H752 H 0.5623 0.60314 0.9781 0.0
H753 H 0.56257 0.56715 0.91869 0.0
H754 H 0.59804 0.54856 0.86066 0.0
H755 H 0.65586 0.55197 0.82537 0.0
Mn756 Mn 0.8875 0.50817 0.74082 0.0
Mn757 Mn 0.85692 0.54498 0.82138 0.0
C758 C 0.92255 0.5526 0.77408 0.0
C759 C 0.92298 0.46853 0.70502 0.0
C760 C 0.82359 0.56182 0.74558 0.0
O761 O 0.84919 0.46913 0.75752 0.0
O762 O 0.83469 0.49445 0.81348 0.0
C763 C 0.89008 0.49593 0.87746 0.0
N764 N 0.88696 0.53012 0.86266 0.0
C765 C 0.92856 0.55693 0.90938 0.0
C766 C 0.93254 0.52184 0.92479 0.0
C767 C 0.91315 0.49121 0.90878 0.0
C768 C 0.90515 0.55988 0.87817 0.0
H769 H 0.87488 0.47259 0.86558 0.0
C770 C 0.8322 0.46856 0.78853 0.0
O771 O 0.89444 0.48483 0.69105 0.0
O772 O 0.92878 0.47205 0.74055 0.0
N773 N 0.87747 0.59356 0.83123 0.0
C774 C 0.87022 0.62558 0.81334 0.0
C775 C 0.88735 0.65884 0.82594 0.0
C776 C 0.91161 0.65897 0.85691 0.0
C777 C 0.91811 0.62578 0.87528 0.0
C778 C 0.90005 0.59348 0.86158 0.0
H779 H 0.85164 0.6258 0.78952 0.0
O780 O 0.92632 0.54863 0.73858 0.0
O781 O 0.89692 0.5322 0.78835 0.0
O782 O 0.84618 0.54321 0.72668 0.0
O783 O 0.82454 0.56335 0.78097 0.0
C784 C 0.94189 0.62345 0.90657 0.0
C785 C 0.94707 0.58904 0.92365 0.0
H786 H 0.95034 0.51813 0.94894 0.0
H787 H 0.91585 0.46405 0.92063 0.0
H788 H 0.88167 0.68428 0.81181 0.0
H789 H 0.92488 0.68473 0.86645 0.0
H790 H 0.95632 0.64798 0.91761 0.0
H791 H 0.96541 0.58748 0.94767 0.0
Mn792 Mn 0.76148 0.36992 0.5161 0.0
Mn793 Mn 0.71722 0.39955 0.43884 0.0
C794 C 0.71785 0.33209 0.48535 0.0
C795 C 0.80605 0.3375 0.54852 0.0
C796 C 0.70287 0.42958 0.51618 0.0
O797 O 0.7961 0.4112 0.49832 0.0
O798 O 0.76675 0.42569 0.44429 0.0
C799 C 0.76426 0.37303 0.37793 0.0
N800 N 0.73155 0.37173 0.39592 0.0
C801 C 0.70569 0.32766 0.35101 0.0
C802 C 0.73958 0.3277 0.33276 0.0
C803 C 0.76893 0.3507 0.34615 0.0
C804 C 0.70272 0.35058 0.38254 0.0
H805 H 0.78625 0.39147 0.38739 0.0
C806 C 0.79374 0.42941 0.4682 0.0
O807 O 0.78892 0.36473 0.56394 0.0
O808 O 0.80069 0.33201 0.5131 0.0
N809 N 0.66982 0.37509 0.43163 0.0
C810 C 0.63862 0.37884 0.45186 0.0
C811 C 0.60662 0.35778 0.44202 0.0
C812 C 0.60689 0.33332 0.41128 0.0
C813 C 0.63896 0.33071 0.39022 0.0
C814 C 0.67004 0.35236 0.40143 0.0
H815 H 0.63821 0.3975 0.47554 0.0
O816 O 0.72479 0.32803 0.52047 0.0
O817 O 0.73507 0.35953 0.47004 0.0
O818 O 0.72417 0.40776 0.5331 0.0
O819 O 0.69911 0.42996 0.48095 0.0
C820 C 0.64144 0.30716 0.35882 0.0
C821 C 0.67476 0.30575 0.33916 0.0
H822 H 0.74324 0.3105 0.30822 0.0
H823 H 0.79499 0.35146 0.33185 0.0
H824 H 0.58185 0.36026 0.45818 0.0
H825 H 0.58221 0.31699 0.40388 0.0
H826 H 0.61793 0.28996 0.34959 0.0
H827 H 0.67641 0.28763 0.31503 0.0
Mn828 Mn 0.63854 0.49094 0.2421 0.0
Mn829 Mn 0.60231 0.53513 0.31615 0.0
C830 C 0.67059 0.53973 0.27228 0.0
C831 C 0.67637 0.44856 0.21277 0.0
C832 C 0.57191 0.54179 0.23785 0.0
O833 O 0.60073 0.45297 0.25989 0.0
O834 O 0.57989 0.48462 0.31002 0.0
C835 C 0.63301 0.48897 0.37594 0.0
N836 N 0.62987 0.52259 0.35989 0.0
C837 C 0.66892 0.55169 0.40743 0.0
C838 C 0.67247 0.51733 0.42447 0.0
C839 C 0.65452 0.4858 0.40857 0.0
C840 C 0.64719 0.55307 0.37486 0.0
H841 H 0.61925 0.46483 0.36386 0.0
C842 C 0.57976 0.45633 0.28787 0.0
O843 O 0.64772 0.46199 0.19598 0.0
O844 O 0.68083 0.45664 0.2478 0.0
N845 N 0.62237 0.5842 0.32453 0.0
C846 C 0.61552 0.61538 0.30507 0.0
C847 C 0.63141 0.64944 0.31734 0.0
C848 C 0.65394 0.65111 0.34961 0.0
C849 C 0.65992 0.61879 0.36963 0.0
C850 C 0.64307 0.58574 0.35624 0.0
H851 H 0.59814 0.61425 0.28031 0.0
O852 O 0.67641 0.53232 0.23754 0.0
O853 O 0.64446 0.52031 0.28693 0.0
O854 O 0.59609 0.52173 0.22282 0.0
O855 O 0.57223 0.55027 0.27242 0.0
C856 C 0.6818 0.61809 0.40243 0.0
C857 C 0.68638 0.58455 0.42126 0.0
H858 H 0.68906 0.5148 0.44962 0.0
H859 H 0.6572 0.45913 0.42142 0.0
H860 H 0.62638 0.67432 0.30192 0.0
H861 H 0.66634 0.67738 0.35886 0.0
H862 H 0.69524 0.64317 0.41342 0.0
H863 H 0.70343 0.58433 0.44633 0.0
Fe864 Fe 0.12868 0.09071 0.17077 0.0
Fe865 Fe 0.08327 0.151 0.13607 0.0
O866 O 0.12326 0.12442 0.13711 0.0
Fe867 Fe 0.158 0.1314 0.10405 0.0
O868 O 0.15078 0.08495 0.0853 0.0
O869 O 0.15429 0.05858 0.1395 0.0
O870 O 0.08736 0.06573 0.15503 0.0
C871 C 0.05581 0.07938 0.15704 0.0
C872 C 0.19893 0.11406 0.17077 0.0
O873 O 0.0521 0.11429 0.15486 0.0
C874 C 0.14208 0.20275 0.11897 0.0
O875 O 0.10423 0.11701 0.20737 0.0
O876 O 0.09313 0.17035 0.1814 0.0
O877 O 0.19697 0.11622 0.13552 0.0
O878 O 0.16973 0.11447 0.18856 0.0
C879 C 0.09014 0.14171 0.06295 0.0
O880 O 0.10786 0.19297 0.1184 0.0
O881 O 0.16674 0.17852 0.12071 0.0
C882 C 0.09707 0.15129 0.20985 0.0
O883 O 0.07154 0.13235 0.09032 0.0
O884 O 0.12506 0.14736 0.06704 0.0
C885 C 0.156 0.05656 0.1043 0.0
Fe886 Fe 0.1014 0.8359 0.38198 0.0
Fe887 Fe 0.13218 0.9061 0.34565 0.0
O888 O 0.13573 0.87166 0.37989 0.0
Fe889 Fe 0.17357 0.87309 0.41208 0.0
O890 O 0.17657 0.82241 0.41601 0.0
O891 O 0.13562 0.79997 0.37501 0.0
O892 O 0.09208 0.83357 0.33191 0.0
C893 C 0.11112 0.84425 0.30499 0.0
C894 C 0.11546 0.85525 0.45693 0.0
O895 O 0.13323 0.87166 0.30832 0.0
C896 C 0.15473 0.94836 0.40589 0.0
O897 O 0.0648 0.8693 0.3891 0.0
O898 O 0.08138 0.90619 0.3445 0.0
O899 O 0.14264 0.87683 0.45128 0.0
O900 O 0.10433 0.83192 0.4324 0.0
C901 C 0.20948 0.89233 0.34875 0.0
O902 O 0.13073 0.94295 0.38043 0.0
O903 O 0.17777 0.92378 0.41409 0.0
C904 C 0.05754 0.89519 0.36726 0.0
O905 O 0.18241 0.91262 0.3406 0.0
O906 O 0.20686 0.86993 0.37497 0.0
C907 C 0.16436 0.79607 0.39512 0.0
Fe908 Fe 0.37329 0.9174 0.66017 0.0
Fe909 Fe 0.34901 0.87467 0.58947 0.0
O910 O 0.37719 0.87893 0.62981 0.0
Fe911 Fe 0.41053 0.84542 0.63976 0.0
O912 O 0.38835 0.83416 0.68251 0.0
O913 O 0.38705 0.8915 0.70248 0.0
O914 O 0.326 0.905 0.66997 0.0
C915 C 0.30077 0.901 0.64542 0.0
C916 C 0.44817 0.9128 0.65868 0.0
O917 O 0.30834 0.89522 0.61155 0.0
C918 C 0.42001 0.85187 0.56543 0.0
O919 O 0.35821 0.95021 0.62411 0.0
O920 O 0.36584 0.91865 0.57265 0.0
O921 O 0.44327 0.87841 0.66354 0.0
O922 O 0.42051 0.9319 0.65092 0.0
C923 C 0.34946 0.8026 0.60923 0.0
O924 O 0.385 0.85303 0.56098 0.0
O925 O 0.43473 0.85506 0.59734 0.0
C926 C 0.36141 0.9491 0.58914 0.0
O927 O 0.33023 0.83047 0.60308 0.0
O928 O 0.3836 0.80627 0.61813 0.0
C929 C 0.3849 0.85694 0.70902 0.0
Fe930 Fe 0.40568 0.16812 0.8772 0.0
Fe931 Fe 0.3763 0.09262 0.84413 0.0
O932 O 0.37608 0.12774 0.87992 0.0
Fe933 Fe 0.34666 0.12226 0.9185 0.0
O934 O 0.33635 0.1701 0.92214 0.0
O935 O 0.36683 0.20061 0.88025 0.0
O936 O 0.40335 0.17049 0.82669 0.0
C937 C 0.3836 0.15472 0.80154 0.0
C938 C 0.40897 0.1541 0.95408 0.0
O939 O 0.36521 0.12546 0.80782 0.0
C940 C 0.37034 0.0487 0.90564 0.0
O941 O 0.44691 0.13965 0.87593 0.0
O942 O 0.42562 0.09711 0.83601 0.0
O943 O 0.38543 0.12742 0.95261 0.0
O944 O 0.41482 0.17349 0.92628 0.0
C945 C 0.30046 0.09738 0.86085 0.0
O946 O 0.38753 0.0561 0.87657 0.0
O947 O 0.35052 0.07248 0.92106 0.0
C948 C 0.45167 0.1115 0.85544 0.0
O949 O 0.32699 0.08138 0.84568 0.0
O950 O 0.30526 0.11803 0.88907 0.0
C951 C 0.34214 0.19931 0.90493 0.0
Fe952 Fe 0.59692 0.34128 0.87709 0.0
Fe953 Fe 0.63226 0.41181 0.84387 0.0
O954 O 0.63288 0.37614 0.87781 0.0
Fe955 Fe 0.66946 0.37585 0.91209 0.0
O956 O 0.67313 0.32621 0.91315 0.0
O957 O 0.62965 0.30265 0.87552 0.0
O958 O 0.59289 0.33797 0.82665 0.0
C959 C 0.61244 0.35006 0.80076 0.0
C960 C 0.60844 0.3549 0.95436 0.0
O961 O 0.6335 0.37825 0.80542 0.0
C962 C 0.65279 0.45228 0.9071 0.0
O963 O 0.56058 0.37573 0.88005 0.0
O964 O 0.58201 0.41426 0.83946 0.0
O965 O 0.63719 0.37556 0.95126 0.0
O966 O 0.59376 0.33856 0.92662 0.0
C967 C 0.70899 0.39706 0.85059 0.0
O968 O 0.63091 0.44852 0.8794 0.0
O969 O 0.67319 0.42621 0.91728 0.0
C970 C 0.55583 0.4026 0.85887 0.0
O971 O 0.6824 0.41698 0.84085 0.0
O972 O 0.70521 0.37468 0.87672 0.0
C973 C 0.65842 0.29897 0.89596 0.0
Fe974 Fe 0.8531 0.38192 0.0868 0.0
Fe975 Fe 0.88362 0.41008 0.16234 0.0
O976 O 0.88417 0.37755 0.12505 0.0
Fe977 Fe 0.91583 0.34068 0.1256 0.0
O978 O 0.92167 0.33959 0.07509 0.0
O979 O 0.89133 0.38769 0.05526 0.0
O980 O 0.85112 0.4324 0.08982 0.0
C981 C 0.87298 0.45645 0.10448 0.0
C982 C 0.85333 0.30499 0.09785 0.0
O983 O 0.8931 0.44876 0.13208 0.0
C984 C 0.89472 0.34695 0.20112 0.0
O985 O 0.81311 0.3766 0.11616 0.0
O986 O 0.83336 0.4166 0.15928 0.0
O987 O 0.87819 0.30609 0.12301 0.0
O988 O 0.84898 0.33211 0.07669 0.0
C989 C 0.95967 0.39896 0.15106 0.0
O990 O 0.87416 0.37411 0.1955 0.0
O991 O 0.91626 0.33557 0.1763 0.0
C992 C 0.80759 0.39669 0.14443 0.0
O993 O 0.93369 0.40905 0.17168 0.0
O994 O 0.95526 0.37259 0.12796 0.0
C995 C 0.91564 0.36358 0.05058 0.0
Fe996 Fe 0.83943 0.6283 0.41692 0.0
Fe997 Fe 0.90185 0.67001 0.3778 0.0
O998 O 0.87093 0.63145 0.38011 0.0
Fe999 Fe 0.8711 0.5961 0.34537 0.0
O1000 O 0.82347 0.60402 0.33246 0.0
O1001 O 0.80236 0.60462 0.38908 0.0
O1002 O 0.81801 0.67122 0.40441 0.0
C1003 C 0.83424 0.70208 0.40054 0.0
C1004 C 0.86177 0.55626 0.41197 0.0
O1005 O 0.86932 0.70335 0.39813 0.0
C1006 C 0.94519 0.6087 0.3543 0.0
O1007 O 0.87045 0.65151 0.45166 0.0
O1008 O 0.92262 0.6606 0.42254 0.0
O1009 O 0.8581 0.55848 0.377 0.0
O1010 O 0.85878 0.58509 0.43184 0.0
C1011 C 0.88032 0.66196 0.30429 0.0
O1012 O 0.93972 0.6433 0.35732 0.0
O1013 O 0.9187 0.58562 0.35558 0.0
C1014 C 0.90502 0.6585 0.45216 0.0
O1015 O 0.88336 0.68261 0.33282 0.0
O1016 O 0.8842 0.62734 0.30756 0.0
C1017 C 0.79694 0.60154 0.35433 0.0
Fe1018 Fe 0.90641 0.83684 0.8773 0.0
Fe1019 Fe 0.84909 0.88319 0.91829 0.0
O1020 O 0.87571 0.87456 0.8785 0.0
Fe1021 Fe 0.87131 0.90402 0.83988 0.0
O1022 O 0.9201 0.91744 0.84284 0.0
O1023 O 0.94175 0.86121 0.85023 0.0
O1024 O 0.93161 0.85269 0.91905 0.0
C1025 C 0.91622 0.85618 0.94987 0.0
C1026 C 0.88274 0.83378 0.80511 0.0
O1027 O 0.8828 0.86531 0.95149 0.0
C1028 C 0.79922 0.90033 0.85962 0.0
O1029 O 0.87641 0.80621 0.90444 0.0
O1030 O 0.82605 0.83804 0.91417 0.0
O1031 O 0.88109 0.86856 0.80515 0.0
O1032 O 0.88399 0.81743 0.83563 0.0
C1033 C 0.86971 0.95395 0.90033 0.0
O1034 O 0.80963 0.90206 0.89318 0.0
O1035 O 0.82195 0.89304 0.8344 0.0
C1036 C 0.84323 0.80792 0.91504 0.0
O1037 O 0.87067 0.92902 0.92462 0.0
O1038 O 0.86166 0.94535 0.86719 0.0
C1039 C 0.94643 0.89494 0.84192 0.0
Fe1040 Fe 0.87385 0.09451 0.66841 0.0
Fe1041 Fe 0.83725 0.13171 0.60181 0.0
O1042 O 0.87564 0.12794 0.63305 0.0
Fe1043 Fe 0.91549 0.15722 0.62924 0.0
O1044 O 0.92432 0.16082 0.67968 0.0
O1045 O 0.8779 0.12992 0.7045 0.0
O1046 O 0.82379 0.09601 0.67318 0.0
C1047 C 0.79973 0.11933 0.66435 0.0
C1048 C 0.95015 0.09501 0.64994 0.0
O1049 O 0.80597 0.142 0.63916 0.0
C1050 C 0.89336 0.14094 0.55378 0.0
O1051 O 0.86952 0.05658 0.6347 0.0
O1052 O 0.82484 0.08197 0.60191 0.0
O1053 O 0.94614 0.11818 0.62463 0.0
O1054 O 0.92371 0.08711 0.67082 0.0
C1055 C 0.86199 0.20686 0.61282 0.0
O1056 O 0.86519 0.12195 0.56197 0.0
O1057 O 0.91265 0.15861 0.57832 0.0
C1058 C 0.84304 0.05388 0.61131 0.0
O1059 O 0.84293 0.18183 0.59589 0.0
O1060 O 0.88911 0.19918 0.63355 0.0
C1061 C 0.90507 0.15236 0.70742 0.0
Fe1062 Fe 0.63549 0.09477 0.34133 0.0
Fe1063 Fe 0.6631 0.12263 0.41897 0.0
O1064 O 0.63309 0.12656 0.37947 0.0
Fe1065 Fe 0.60047 0.16263 0.37837 0.0
O1066 O 0.60068 0.16785 0.32825 0.0
O1067 O 0.64406 0.1314 0.30861 0.0
O1068 O 0.68592 0.08965 0.34556 0.0
C1069 C 0.7114 0.10683 0.36397 0.0
C1070 C 0.55777 0.10623 0.34862 0.0
O1071 O 0.70436 0.12753 0.39139 0.0
C1072 C 0.59985 0.14101 0.45383 0.0
O1073 O 0.6271 0.05497 0.37006 0.0
O1074 O 0.66513 0.07194 0.4161 0.0
O1075 O 0.56164 0.13015 0.37436 0.0
O1076 O 0.58526 0.09445 0.33092 0.0
C1077 C 0.65881 0.20089 0.40979 0.0
O1078 O 0.62442 0.11709 0.45012 0.0
O1079 O 0.59382 0.1636 0.42821 0.0
C1080 C 0.64654 0.04727 0.3981 0.0
O1081 O 0.66649 0.1729 0.42898 0.0
O1082 O 0.63664 0.19824 0.38234 0.0
C1083 C 0.62094 0.15628 0.30266 0.0
Fe1084 Fe 0.59308 0.84582 0.12926 0.0
Fe1085 Fe 0.66597 0.87476 0.09675 0.0
O1086 O 0.62908 0.87999 0.12814 0.0
Fe1087 Fe 0.62846 0.91955 0.15824 0.0
O1088 O 0.5776 0.92201 0.15927 0.0
O1089 O 0.55765 0.87908 0.11937 0.0
O1090 O 0.59351 0.83566 0.07908 0.0
C1091 C 0.60809 0.85205 0.05208 0.0
C1092 C 0.60621 0.86563 0.20553 0.0
O1093 O 0.63469 0.87496 0.05683 0.0
C1094 C 0.70478 0.9011 0.15697 0.0
O1095 O 0.62502 0.80916 0.13917 0.0
O1096 O 0.66498 0.82398 0.09678 0.0
O1097 O 0.62918 0.89142 0.19931 0.0
O1098 O 0.58683 0.85016 0.17969 0.0
C1099 C 0.65482 0.95287 0.09742 0.0
O1100 O 0.70011 0.87424 0.13436 0.0
O1101 O 0.67916 0.92364 0.16327 0.0
C1102 C 0.65015 0.80029 0.11741 0.0
O1103 O 0.67372 0.92455 0.09066 0.0
O1104 O 0.6281 0.95116 0.1194 0.0
C1105 C 0.55165 0.90647 0.14016 0.0
Fe1106 Fe 0.41939 0.65103 0.12343 0.0
Fe1107 Fe 0.34114 0.62704 0.09595 0.0
O1108 O 0.37856 0.62356 0.12835 0.0
Fe1109 Fe 0.37517 0.59237 0.16553 0.0
O1110 O 0.41518 0.56728 0.1505 0.0
O1111 O 0.45069 0.6159 0.14162 0.0
O1112 O 0.42716 0.63176 0.07753 0.0
C1113 C 0.4049 0.6342 0.05031 0.0
C1114 C 0.4139 0.6546 0.1991 0.0
O1115 O 0.37068 0.63731 0.05627 0.0
C1116 C 0.30456 0.61832 0.16477 0.0
O1117 O 0.39536 0.691 0.10394 0.0
O1118 O 0.33602 0.67609 0.10642 0.0
O1119 O 0.40363 0.62085 0.1987 0.0
O1120 O 0.41512 0.67252 0.16937 0.0
C1121 C 0.33906 0.5523 0.10563 0.0
O1122 O 0.30493 0.61733 0.12965 0.0
O1123 O 0.33462 0.61536 0.18297 0.0
C1124 C 0.3616 0.69998 0.10258 0.0
O1125 O 0.34307 0.57829 0.08301 0.0
O1126 O 0.34652 0.55747 0.13979 0.0
C1127 C 0.44708 0.58148 0.14753 0.0
Fe1128 Fe 0.12995 0.60096 0.84264 0.0
Fe1129 Fe 0.1578 0.62742 0.92034 0.0
O1130 O 0.12737 0.63186 0.88137 0.0
Fe1131 Fe 0.09409 0.66751 0.88115 0.0
O1132 O 0.09337 0.67299 0.83054 0.0
O1133 O 0.13828 0.6384 0.81112 0.0
O1134 O 0.18046 0.59609 0.84634 0.0
C1135 C 0.20595 0.61284 0.86509 0.0
C1136 C 0.05215 0.61097 0.85123 0.0
O1137 O 0.19886 0.63305 0.89276 0.0
C1138 C 0.09634 0.64624 0.95701 0.0
O1139 O 0.12193 0.56057 0.87021 0.0
O1140 O 0.16001 0.57669 0.9165 0.0
O1141 O 0.05586 0.63428 0.87756 0.0
O1142 O 0.07963 0.60042 0.83279 0.0
C1143 C 0.15288 0.70574 0.91182 0.0
O1144 O 0.11951 0.62125 0.95164 0.0
O1145 O 0.08814 0.66838 0.93153 0.0
C1146 C 0.14181 0.5523 0.89765 0.0
O1147 O 0.16105 0.67763 0.93064 0.0
O1148 O 0.12992 0.70349 0.88494 0.0
C1149 C 0.11414 0.66211 0.80491 0.0
Fe1150 Fe 0.16267 0.37321 0.59217 0.0
Fe1151 Fe 0.09201 0.34373 0.62906 0.0
O1152 O 0.12698 0.37878 0.62496 0.0
Fe1153 Fe 0.12488 0.41946 0.65349 0.0
O1154 O 0.17121 0.41327 0.67259 0.0
O1155 O 0.19911 0.39477 0.62173 0.0
O1156 O 0.17615 0.32802 0.60931 0.0
C1157 C 0.15415 0.30033 0.61041 0.0
C1158 C 0.14994 0.44851 0.58518 0.0
O1159 O 0.12036 0.30509 0.61578 0.0
C1160 C 0.05049 0.40831 0.63774 0.0
O1161 O 0.13215 0.3514 0.55739 0.0
O1162 O 0.07649 0.34929 0.5808 0.0
O1163 O 0.14325 0.45133 0.61931 0.0
O1164 O 0.15303 0.41695 0.57024 0.0
C1165 C 0.10779 0.3609 0.70222 0.0
O1166 O 0.05562 0.37461 0.64371 0.0
O1167 O 0.07835 0.42995 0.63623 0.0
C1168 C 0.09755 0.34827 0.55298 0.0
O1169 O 0.10601 0.33606 0.67693 0.0
O1170 O 0.10677 0.39473 0.69365 0.0
C1171 C 0.20024 0.40878 0.65414 0.0
Fe1172 Fe 0.6586 0.6293 0.5998 0.0
Fe1173 Fe 0.6214 0.59032 0.66462 0.0
O1174 O 0.62094 0.62517 0.63051 0.0
Fe1175 Fe 0.58335 0.65643 0.62756 0.0
O1176 O 0.58512 0.66069 0.57739 0.0
O1177 O 0.62807 0.62221 0.55926 0.0
O1178 O 0.66758 0.5801 0.59755 0.0
C1179 C 0.65097 0.55078 0.60706 0.0
C1180 C 0.64273 0.70371 0.61639 0.0
O1181 O 0.62483 0.55264 0.62989 0.0
C1182 C 0.59477 0.64983 0.70445 0.0
O1183 O 0.69234 0.63672 0.63814 0.0
O1184 O 0.67152 0.59118 0.67167 0.0
O1185 O 0.61435 0.69679 0.63515 0.0
O1186 O 0.65669 0.6793 0.59597 0.0
C1187 C 0.54494 0.59239 0.64252 0.0
O1188 O 0.6188 0.62497 0.70212 0.0
O1189 O 0.57467 0.65801 0.67701 0.0
C1190 C 0.69683 0.61443 0.66435 0.0
O1191 O 0.57122 0.58315 0.66396 0.0
O1192 O 0.54902 0.61877 0.6203 0.0
C1193 C 0.60001 0.64147 0.55245 0.0
Fe1194 Fe 0.40402 0.34098 0.37735 0.0
Fe1195 Fe 0.37159 0.41001 0.34083 0.0
O1196 O 0.37485 0.37987 0.37902 0.0
Fe1197 Fe 0.34859 0.38897 0.41916 0.0
O1198 O 0.3232 0.3452 0.4137 0.0
O1199 O 0.37228 0.31135 0.4033 0.0
O1200 O 0.3814 0.32277 0.3354 0.0
C1201 C 0.38043 0.33924 0.30498 0.0
C1202 C 0.41404 0.35769 0.45044 0.0
O1203 O 0.37898 0.37415 0.30522 0.0
C1204 C 0.37342 0.45895 0.40298 0.0
O1205 O 0.44045 0.36396 0.35075 0.0
O1206 O 0.42098 0.4209 0.34287 0.0
O1207 O 0.38095 0.36803 0.45216 0.0
O1208 O 0.42949 0.35543 0.41954 0.0
C1209 C 0.29946 0.40989 0.36129 0.0
O1210 O 0.36484 0.45155 0.36948 0.0
O1211 O 0.37265 0.43338 0.42663 0.0
C1212 C 0.44624 0.39724 0.34161 0.0
O1213 O 0.32164 0.40178 0.33584 0.0
O1214 O 0.31022 0.41102 0.39478 0.0
C1215 C 0.33892 0.31424 0.41296 0.0
C1216 C 0.09352 0.22625 0.28316 0.0
C1217 C 0.05671 0.22071 0.29591 0.0
C1218 C 0.05048 0.16323 0.25816 0.0
C1219 C 0.08673 0.16912 0.24524 0.0
N1220 N 0.14575 0.2006 0.25028 0.0
N1221 N 0.99699 0.19023 0.28601 0.0
C1222 C 0.10916 0.19898 0.25937 0.0
C1223 C 0.03445 0.19063 0.28106 0.0
N1224 N 0.1126 0.25852 0.29137 0.0
N1225 N 0.03135 0.13125 0.24868 0.0
H1226 H 0.98365 0.21161 0.29967 0.0
H1227 H 0.97856 0.17146 0.2728 0.0
H1228 H 0.04228 0.11062 0.2319 0.0
H1229 H 0.00639 0.12334 0.26046 0.0
H1230 H 0.13866 0.26515 0.28137 0.0
H1231 H 0.10069 0.2811 0.3042 0.0
H1232 H 0.16514 0.21935 0.26197 0.0
H1233 H 0.15761 0.18054 0.23329 0.0
C1234 C 0.04837 0.85759 0.5371 0.0
C1235 C 0.06154 0.82688 0.55716 0.0
C1236 C 0.11679 0.82593 0.51844 0.0
C1237 C 0.10048 0.85172 0.49463 0.0
N1238 N 0.04981 0.89155 0.47966 0.0
N1239 N 0.10465 0.77574 0.55929 0.0
C1240 C 0.06607 0.86766 0.50363 0.0
C1241 C 0.09509 0.80967 0.54626 0.0
N1242 N 0.01945 0.87738 0.55029 0.0
N1243 N 0.1527 0.81589 0.51368 0.0
H1244 H 0.08823 0.75979 0.5764 0.0
H1245 H 0.12679 0.76086 0.54908 0.0
H1246 H 0.16923 0.82691 0.49307 0.0
H1247 H 0.16709 0.79977 0.5326 0.0
H1248 H 0.01063 0.90194 0.53866 0.0
H1249 H 0.00644 0.87103 0.57499 0.0
H1250 H 0.0228 0.90071 0.48229 0.0
H1251 H 0.06288 0.90072 0.45593 0.0
C1252 C 0.41125 0.78749 0.78042 0.0
C1253 C 0.42657 0.81114 0.80898 0.0
C1254 C 0.39798 0.8648 0.77936 0.0
C1255 C 0.38875 0.84203 0.74778 0.0
N1256 N 0.36491 0.78109 0.73105 0.0
N1257 N 0.41564 0.86599 0.84479 0.0
C1258 C 0.3885 0.80303 0.75231 0.0
C1259 C 0.41422 0.84813 0.81122 0.0
N1260 N 0.41892 0.7507 0.77903 0.0
N1261 N 0.39018 0.9016 0.77963 0.0
H1262 H 0.42185 0.85165 0.86895 0.0
H1263 H 0.4077 0.89319 0.84919 0.0
H1264 H 0.37167 0.91298 0.76069 0.0
H1265 H 0.40111 0.92048 0.79935 0.0
H1266 H 0.41261 0.73384 0.75586 0.0
H1267 H 0.43184 0.73711 0.80066 0.0
H1268 H 0.36075 0.75297 0.73584 0.0
H1269 H 0.34574 0.79226 0.71256 0.0
C1270 C 0.4404 0.21493 0.03721 0.0
C1271 C 0.46984 0.19413 0.05252 0.0
C1272 C 0.45657 0.14465 0.00569 0.0
C1273 C 0.42851 0.16654 0.98931 0.0
N1274 N 0.40465 0.22878 0.98287 0.0
N1275 N 0.51069 0.14256 0.04706 0.0
C1276 C 0.42339 0.2033 0.00321 0.0
C1277 C 0.47938 0.15994 0.03544 0.0
N1278 N 0.42862 0.24662 0.05429 0.0
N1279 N 0.46219 0.1097 0.99213 0.0
H1280 H 0.52724 0.15241 0.06934 0.0
H1281 H 0.52149 0.11963 0.03348 0.0
H1282 H 0.44865 0.09911 0.96832 0.0
H1283 H 0.47895 0.09065 0.00535 0.0
H1284 H 0.40327 0.25843 0.0476 0.0
H1285 H 0.44237 0.26039 0.0762 0.0
H1286 H 0.40505 0.25703 0.98949 0.0
H1287 H 0.39148 0.22324 0.95756 0.0
C1288 C 0.09828 0.7757 0.22445 0.0
C1289 C 0.06486 0.78927 0.20886 0.0
C1290 C 0.07096 0.84494 0.24864 0.0
C1291 C 0.10095 0.82899 0.26781 0.0
N1292 N 0.14374 0.77942 0.27528 0.0
N1293 N 0.015 0.83328 0.21251 0.0
C1294 C 0.11506 0.79452 0.25585 0.0
C1295 C 0.05008 0.82308 0.22244 0.0
N1296 N 0.114 0.74511 0.20904 0.0
N1297 N 0.06218 0.88098 0.25578 0.0
H1298 H 0.99747 0.81773 0.19473 0.0
H1299 H 0.00163 0.85545 0.2249 0.0
H1300 H 0.07788 0.89812 0.27391 0.0
H1301 H 0.04218 0.89504 0.24068 0.0
H1302 H 0.14013 0.73584 0.2167 0.0
H1303 H 0.10205 0.73052 0.18641 0.0
H1304 H 0.15273 0.75252 0.27093 0.0
H1305 H 0.15771 0.79364 0.29704 0.0
C1306 C 0.4858 0.79911 0.50242 0.0
C1307 C 0.47412 0.8126 0.46761 0.0
C1308 C 0.43801 0.85996 0.49912 0.0
C1309 C 0.44312 0.84137 0.53318 0.0
N1310 N 0.47084 0.79056 0.56653 0.0
N1311 N 0.43961 0.85613 0.43191 0.0
C1312 C 0.46749 0.81077 0.53497 0.0
C1313 C 0.45068 0.84344 0.46571 0.0
N1314 N 0.5137 0.7742 0.50417 0.0
N1315 N 0.42189 0.89384 0.49893 0.0
H1316 H 0.45026 0.84589 0.40715 0.0
H1317 H 0.41883 0.87542 0.42839 0.0
H1318 H 0.41425 0.90745 0.52322 0.0
H1319 H 0.41991 0.91012 0.47549 0.0
H1320 H 0.52628 0.76614 0.5289 0.0
H1321 H 0.52676 0.76446 0.4806 0.0
H1322 H 0.48442 0.76542 0.56756 0.0
H1323 H 0.45727 0.79635 0.591 0.0
C1324 C 0.39782 0.21821 0.71997 0.0
C1325 C 0.42933 0.20096 0.70479 0.0
C1326 C 0.41669 0.1463 0.74244 0.0
C1327 C 0.39048 0.16631 0.76283 0.0
N1328 N 0.35435 0.2208 0.7706 0.0
N1329 N 0.47361 0.15139 0.70939 0.0
C1330 C 0.38039 0.20214 0.75127 0.0
C1331 C 0.43983 0.1655 0.71769 0.0
N1332 N 0.38407 0.24921 0.70403 0.0
N1333 N 0.42043 0.10916 0.74749 0.0
H1334 H 0.49415 0.16616 0.69579 0.0
H1335 H 0.48328 0.12687 0.72039 0.0
H1336 H 0.40346 0.09398 0.76486 0.0
H1337 H 0.43711 0.09272 0.73098 0.0
H1338 H 0.35945 0.26133 0.71191 0.0
H1339 H 0.39559 0.26096 0.68063 0.0
H1340 H 0.34876 0.24869 0.76692 0.0
H1341 H 0.33906 0.20803 0.79118 0.0
C1342 C 0.02719 0.201 0.00268 0.0
C1343 C 0.03357 0.18621 0.96681 0.0
C1344 C 0.07815 0.14275 0.99343 0.0
C1345 C 0.06966 0.15581 0.0297 0.0
N1346 N 0.0307 0.1942 0.06877 0.0
N1347 N 0.06114 0.14014 0.92765 0.0
C1348 C 0.04211 0.18343 0.03429 0.0
C1349 C 0.05812 0.15635 0.96201 0.0
N1350 N 0.00876 0.23356 0.00659 0.0
N1351 N 0.10503 0.11702 0.98906 0.0
H1352 H 0.04669 0.14931 0.90434 0.0
H1353 H 0.0757 0.11608 0.92249 0.0
H1354 H 0.11537 0.10918 0.96348 0.0
H1355 H 0.11826 0.10435 0.01128 0.0
H1356 H 0.00811 0.24887 0.03132 0.0
H1357 H 0.99692 0.24748 0.98448 0.0
H1358 H 0.00792 0.21073 0.07323 0.0
H1359 H 0.04282 0.18674 0.09372 0.0
C1360 C 0.29948 0.10351 0.20567 0.0
C1361 C 0.29483 0.07632 0.23326 0.0
C1362 C 0.2287 0.07137 0.21718 0.0
C1363 C 0.23266 0.10053 0.19092 0.0
N1364 N 0.2742 0.14552 0.16267 0.0
N1365 N 0.25302 0.04035 0.27072 0.0
C1366 C 0.26843 0.11675 0.18585 0.0
C1367 C 0.25887 0.06248 0.2409 0.0
N1368 N 0.33335 0.11876 0.19848 0.0
N1369 N 0.19721 0.04959 0.21784 0.0
H1370 H 0.27397 0.02946 0.28717 0.0
H1371 H 0.22672 0.03458 0.28083 0.0
H1372 H 0.17388 0.05289 0.20124 0.0
H1373 H 0.19547 0.02494 0.23234 0.0
H1374 H 0.35782 0.11184 0.21242 0.0
H1375 H 0.35782 0.11184 0.21242 0.0
H1376 H 0.25323 0.15829 0.14758 0.0
H1377 H 0.25323 0.15829 0.14758 0.0
C1378 C 0.20464 0.03795 0.42759 0.0
C1379 C 0.18996 0.04784 0.46275 0.0
C1380 C 0.14662 0.99453 0.45767 0.0
C1381 C 0.16073 0.98585 0.42228 0.0
N1382 N 0.19448 0.00512 0.36902 0.0
N1383 N 0.14341 0.03902 0.50885 0.0
C1384 C 0.18665 0.00975 0.40568 0.0
C1385 C 0.15967 0.02723 0.47699 0.0
N1386 N 0.2374 0.05312 0.4161 0.0
N1387 N 0.12169 0.97077 0.47318 0.0
H1388 H 0.15264 0.06259 0.52381 0.0
H1389 H 0.11908 0.02738 0.5189 0.0
H1390 H 0.11028 0.94786 0.45867 0.0
H1391 H 0.11343 0.97279 0.50059 0.0
H1392 H 0.25114 0.04349 0.39283 0.0
H1393 H 0.25305 0.07282 0.43122 0.0
H1394 H 0.21076 0.02383 0.3545 0.0
H1395 H 0.18134 0.98486 0.35214 0.0
C1396 C 0.2131 0.90257 0.70184 0.0
C1397 C 0.20088 0.93849 0.69325 0.0
C1398 C 0.24618 0.94247 0.64373 0.0
C1399 C 0.26257 0.90959 0.65651 0.0
N1400 N 0.26256 0.85827 0.69837 0.0
N1401 N 0.21161 0.99607 0.66111 0.0
C1402 C 0.24609 0.88944 0.68563 0.0
C1403 C 0.21852 0.95921 0.66519 0.0
N1404 N 0.19289 0.88091 0.72499 0.0
N1405 N 0.25756 0.95867 0.61186 0.0
H1406 H 0.19355 0.01091 0.67753 0.0
H1407 H 0.22711 0.01328 0.64421 0.0
H1408 H 0.27863 0.94867 0.59556 0.0
H1409 H 0.24338 0.9802 0.59947 0.0
H1410 H 0.19847 0.85322 0.72983 0.0
H1411 H 0.16844 0.88976 0.73693 0.0
H1412 H 0.25471 0.84489 0.72236 0.0
H1413 H 0.28551 0.84679 0.68579 0.0
C1414 C 0.34198 0.98209 0.97589 0.0
C1415 C 0.32928 0.95189 0.95295 0.0
C1416 C 0.35991 0.97883 0.89953 0.0
C1417 C 0.36905 0.01091 0.92158 0.0
N1418 N 0.38515 0.03419 0.98272 0.0
N1419 N 0.34248 0.91354 0.90018 0.0
C1420 C 0.36589 0.00917 0.9606 0.0
C1421 C 0.34357 0.94769 0.91694 0.0
N1422 N 0.3295 0.98664 0.01112 0.0
N1423 N 0.36519 0.97827 0.86219 0.0
H1424 H 0.33404 0.88997 0.91438 0.0
H1425 H 0.35287 0.90811 0.87404 0.0
H1426 H 0.38022 -0.00141 0.84864 0.0
H1427 H 0.35398 0.95759 0.8445 0.0
H1428 H 0.33462 0.0107 0.02699 0.0
H1429 H 0.31205 0.96765 0.02381 0.0
H1430 H 0.3867 0.03238 0.01149 0.0
H1431 H 0.40289 0.054 0.97155 0.0
C1432 C 0.31211 0.91102 0.32645 0.0
C1433 C 0.30625 0.93475 0.29633 0.0
C1434 C 0.24218 0.91231 0.29178 0.0
C1435 C 0.24503 0.89834 0.32836 0.0
N1436 N 0.28621 0.88242 0.38007 0.0
N1437 N 0.26541 0.957 0.24836 0.0
C1438 C 0.28107 0.89627 0.34542 0.0
C1439 C 0.27132 0.93472 0.27799 0.0
N1440 N 0.34746 0.90203 0.33626 0.0
N1441 N 0.21193 0.90333 0.26992 0.0
H1442 H 0.28647 0.97276 0.23659 0.0
H1443 H 0.23915 0.96156 0.23698 0.0
H1444 H 0.19239 0.8835 0.27772 0.0
H1445 H 0.20901 0.91175 0.24264 0.0
H1446 H 0.35371 0.88224 0.35597 0.0
H1447 H 0.37018 0.91152 0.32139 0.0
H1448 H 0.31118 0.88568 0.39496 0.0
H1449 H 0.26595 0.8689 0.39498 0.0
C1450 C 0.33295 0.01433 0.51153 0.0
C1451 C 0.33818 0.04915 0.52973 0.0
C1452 C 0.37206 0.01783 0.57928 0.0
C1453 C 0.35605 0.98328 0.56686 0.0
N1454 N 0.31559 0.95081 0.52143 0.0
N1455 N 0.36957 0.085 0.5782 0.0
C1456 C 0.33535 0.98186 0.53273 0.0
C1457 C 0.36005 0.05121 0.56282 0.0
N1458 N 0.32617 0.01204 0.47422 0.0
N1459 N 0.4 0.0185 0.60528 0.0
H1460 H 0.36493 0.10961 0.56427 0.0
H1461 H 0.3814 0.08845 0.60467 0.0
H1462 H 0.41145 0.99417 0.61475 0.0
H1463 H 0.41467 0.04247 0.61369 0.0
H1464 H 0.32419 0.98677 0.45971 0.0
H1465 H 0.32847 0.03508 0.45735 0.0
H1466 H 0.29804 0.95038 0.49807 0.0
H1467 H 0.31272 0.92725 0.53736 0.0
C1468 C 0.21727 0.03931 0.83288 0.0
C1469 C 0.20135 0.06062 0.80392 0.0
C1470 C 0.24852 0.10975 0.81623 0.0
C1471 C 0.26277 0.08897 0.84604 0.0
N1472 N 0.25599 0.03907 0.88862 0.0
N1473 N 0.19997 0.1172 0.76943 0.0
C1474 C 0.24527 0.05557 0.85643 0.0
C1475 C 0.21639 0.0963 0.79611 0.0
N1476 N 0.20819 0.00253 0.83606 0.0
N1477 N 0.26669 0.1416 0.80643 0.0
H1478 H 0.17708 0.10787 0.75349 0.0
H1479 H 0.20712 0.14475 0.76472 0.0
H1480 H 0.289 0.15304 0.82194 0.0
H1481 H 0.26083 0.15602 0.78239 0.0
H1482 H 0.22195 0.985 0.85407 0.0
H1483 H 0.18969 0.98815 0.81829 0.0
H1484 H 0.24209 0.01631 0.89951 0.0
H1485 H 0.27656 0.05048 0.9064 0.0
C1486 C 0.21477 -0.00089 0.03894 0.0
C1487 C 0.19992 0.96286 0.04382 0.0
C1488 C 0.15664 0.98722 0.08943 0.0
C1489 C 0.17216 0.02352 0.08546 0.0
N1490 N 0.22348 0.06113 0.06389 0.0
N1491 N 0.15727 0.92184 0.07464 0.0
C1492 C 0.20321 0.02868 0.06216 0.0
C1493 C 0.17151 0.95674 0.06972 0.0
N1494 N 0.23978 0.00565 0.01172 0.0
N1495 N 0.12691 0.98061 0.11113 0.0
H1496 H 0.16642 0.89861 0.06014 0.0
H1497 H 0.13636 0.91627 0.09342 0.0
H1498 H 0.11323 0.001 0.12605 0.0
H1499 H 0.11323 0.001 0.12605 0.0
H1500 H 0.2472 0.03214 0.00317 0.0
H1501 H 0.2513 0.98481 0.99562 0.0
H1502 H 0.2489 0.06476 0.05119 0.0
H1503 H 0.21738 0.0833 0.08126 0.0
C1504 C 0.19473 0.2959 0.11801 0.0
C1505 C 0.19525 0.30157 0.07922 0.0
C1506 C 0.14683 0.25306 0.07157 0.0
C1507 C 0.15417 0.24095 0.10814 0.0
N1508 N 0.18508 0.25219 0.16728 0.0
N1509 N 0.1709 0.2829 0.01796 0.0
C1510 C 0.17827 0.26276 0.13173 0.0
C1511 C 0.17076 0.27973 0.05569 0.0
N1512 N 0.2069 0.32355 0.14174 0.0
N1513 N 0.11654 0.23987 0.05199 0.0
H1514 H 0.18714 0.30179 0.00382 0.0
H1515 H 0.15721 0.26395 0.0 0.0
H1516 H 0.09709 0.2226 0.06365 0.0
H1517 H 0.10787 0.25035 0.0266 0.0
H1518 H 0.2049 0.32208 0.17045 0.0
H1519 H 0.21324 0.34992 0.13211 0.0
H1520 H 0.20521 0.26515 0.18447 0.0
H1521 H 0.17165 0.22939 0.17878 0.0
C1522 C 0.68631 0.21347 0.94938 0.0
C1523 C 0.70798 0.19399 0.92358 0.0
C1524 C 0.69017 0.23918 0.8764 0.0
C1525 C 0.67395 0.26173 0.90437 0.0
N1526 N 0.67069 0.27375 0.97115 0.0
N1527 N 0.73344 0.18992 0.86267 0.0
C1528 C 0.67616 0.25004 0.94187 0.0
C1529 C 0.71073 0.20726 0.88696 0.0
N1530 N 0.67506 0.19757 0.98143 0.0
N1531 N 0.68692 0.24874 0.84013 0.0
H1532 H 0.74755 0.16595 0.86949 0.0
H1533 H 0.73984 0.20039 0.83683 0.0
H1534 H 0.6736 0.27262 0.83192 0.0
H1535 H 0.69526 0.23187 0.81825 0.0
H1536 H 0.6566 0.21039 -0.0008 0.0
H1537 H 0.68 0.17025 0.98821 0.0
H1538 H 0.67681 0.26664 -0.00153 0.0
H1539 H 0.66278 0.30107 0.969 0.0
C1540 C 0.04477 0.42701 0.20583 0.0
C1541 C 0.05835 0.45795 0.18557 0.0
C1542 C 0.00926 0.44641 0.13829 0.0
C1543 C 0.99702 0.41517 0.15824 0.0
N1544 N 0.00966 0.3691 0.20365 0.0
N1545 N 0.05746 0.49325 0.12955 0.0
C1546 C 0.01724 0.40317 0.18939 0.0
C1547 C 0.04188 0.46634 0.1507 0.0
N1548 N 0.0554 0.42182 0.24195 0.0
N1549 N 0.98883 0.4578 0.10844 0.0
H1550 H 0.08084 0.50882 0.13825 0.0
H1551 H 0.04911 0.49819 0.10232 0.0
H1552 H 0.96575 0.44284 0.09791 0.0
H1553 H 0.99359 0.48278 0.09523 0.0
H1554 H 0.04285 0.40221 0.25867 0.0
H1555 H 0.07385 0.43901 0.25697 0.0
H1556 H 0.02598 0.35732 0.22428 0.0
H1557 H 0.98949 0.35101 0.19203 0.0
C1558 C 0.81451 0.80316 0.42598 0.0
C1559 C 0.78534 0.7963 0.45085 0.0
C1560 C 0.77709 0.73423 0.42352 0.0
C1561 C 0.81301 0.73696 0.40825 0.0
N1562 N 0.86048 0.77798 0.38489 0.0
N1563 N 0.73839 0.75431 0.47347 0.0
C1564 C 0.83007 0.77281 0.40618 0.0
C1565 C 0.76607 0.76173 0.44933 0.0
N1566 N 0.82619 0.83884 0.42048 0.0
N1567 N 0.75272 0.70677 0.41191 0.0
H1568 H 0.72976 0.77357 0.49316 0.0
H1569 H 0.7262 0.72802 0.47571 0.0
H1570 H 0.75798 0.68929 0.38935 0.0
H1571 H 0.72539 0.70539 0.42065 0.0
H1572 H 0.84542 0.84649 0.4008 0.0
H1573 H 0.81384 0.86137 0.43349 0.0
H1574 H 0.87733 0.80175 0.38624 0.0
H1575 H 0.86847 0.75843 0.36518 0.0
C1576 C 0.95899 0.03507 0.16596 0.0
C1577 C 0.96557 0.00948 0.19469 0.0
C1578 C 0.03033 0.03075 0.19986 0.0
C1579 C 0.02463 0.05495 0.16943 0.0
N1580 N 0.98524 0.07427 0.11883 0.0
N1581 N 0.00923 0.97728 0.23348 0.0
C1582 C 0.98937 0.0555 0.15116 0.0
C1583 C 0.00186 0.00523 0.20948 0.0
N1584 N 0.92362 0.03998 0.15296 0.0
N1585 N 0.06171 0.03391 0.22178 0.0
H1586 H 0.98907 0.95921 0.24341 0.0
H1587 H 0.03603 0.97004 0.24132 0.0
H1588 H 0.08305 0.05301 0.21776 0.0
H1589 H 0.06493 0.02038 0.24684 0.0
H1590 H 0.91621 0.06136 0.13549 0.0
H1591 H 0.90119 0.0237 0.16126 0.0
H1592 H 0.96124 0.07283 0.10227 0.0
H1593 H 0.00699 0.08868 0.10664 0.0
C1594 C 0.32432 0.7213 0.54575 0.0
C1595 C 0.29313 0.70535 0.56364 0.0
C1596 C 0.3008 0.75189 0.61403 0.0
C1597 C 0.33326 0.76606 0.59703 0.0
N1598 N 0.37944 0.75979 0.54984 0.0
N1599 N 0.25201 0.70415 0.61513 0.0
C1600 C 0.34604 0.74937 0.56399 0.0
C1601 C 0.28133 0.72043 0.59788 0.0
N1602 N 0.33271 0.71095 0.51032 0.0
N1603 N 0.28861 0.76891 0.64551 0.0
H1604 H 0.23676 0.68185 0.60336 0.0
H1605 H 0.24377 0.71118 0.64174 0.0
H1606 H 0.30382 0.79005 0.65924 0.0
H1607 H 0.26332 0.76301 0.65759 0.0
H1608 H 0.34966 0.7267 0.4934 0.0
H1609 H 0.32183 0.68762 0.4967 0.0
H1610 H 0.39223 0.74567 0.52835 0.0
H1611 H 0.39661 0.78028 0.5615 0.0
C1612 C 0.02496 0.58452 0.29223 0.0
C1613 C 0.04311 0.55704 0.31328 0.0
C1614 C -0.00145 0.56553 0.36302 0.0
C1615 C 0.98165 0.59444 0.34269 0.0
N1616 N 0.98307 0.6356 0.29028 0.0
N1617 N 0.05093 0.52468 0.37044 0.0
C1618 C 0.99646 0.6055 0.30833 0.0
C1619 C 0.03092 0.54841 0.3492 0.0
N1620 N 0.03293 0.58882 0.25561 0.0
N1621 N 0.98332 0.55415 0.39537 0.0
H1622 H 0.07451 0.51161 0.3609 0.0
H1623 H 0.04592 0.51986 0.39825 0.0
H1624 H 0.96149 0.56773 0.40784 0.0
H1625 H 0.9911 0.53034 0.40909 0.0
H1626 H 0.01705 0.60441 0.23748 0.0
H1627 H 0.05312 0.57408 0.24194 0.0
H1628 H 0.99675 0.64808 0.2685 0.0
H1629 H 0.95988 0.65011 0.29806 0.0
C1630 C 0.45184 0.4199 0.84306 0.0
C1631 C 0.45489 0.45358 0.82393 0.0
C1632 C 0.51896 0.45925 0.84611 0.0
C1633 C 0.51903 0.42081 0.85427 0.0
N1634 N 0.48254 0.36346 0.85834 0.0
N1635 N 0.49311 0.50594 0.80673 0.0
C1636 C 0.48454 0.40076 0.85292 0.0
C1637 C 0.48881 0.47382 0.8257 0.0
N1638 N 0.41775 0.40677 0.85254 0.0
N1639 N 0.54704 0.48214 0.85894 0.0
H1640 H 0.47166 0.51782 0.7916 0.0
H1641 H 0.51881 0.5193 0.80416 0.0
H1642 H 0.56779 0.47289 0.87672 0.0
H1643 H 0.54623 0.5108 0.85639 0.0
H1644 H 0.414 0.38358 0.86896 0.0
H1645 H 0.3939 0.42196 0.84747 0.0
H1646 H 0.45808 0.34798 0.85378 0.0
H1647 H 0.50528 0.34724 0.86414 0.0
C1648 C 0.92282 0.82471 0.70847 0.0
C1649 C 0.94929 0.79713 0.71574 0.0
C1650 C 0.91976 0.7841 0.77471 0.0
C1651 C 0.89719 0.81535 0.77076 0.0
N1652 N 0.87236 0.86186 0.73072 0.0
N1653 N 0.97651 0.7546 0.75869 0.0
C1654 C 0.89733 0.83464 0.73659 0.0
C1655 C 0.94921 0.77877 0.75017 0.0
N1656 N 0.92057 0.83964 0.67398 0.0
N1657 N 0.91119 0.75758 0.79976 0.0
H1658 H 0.99702 0.74776 0.74015 0.0
H1659 H 0.98035 0.744 0.78513 0.0
H1660 H 0.88594 0.75704 0.81321 0.0
H1661 H 0.92594 0.73326 0.80254 0.0
H1662 H 0.89914 0.85635 0.66502 0.0
H1663 H 0.93974 0.83412 0.6535 0.0
H1664 H 0.87515 0.88144 0.71021 0.0
H1665 H 0.849 0.86488 0.74698 0.0
C1666 C 0.89019 0.18426 0.45873 0.0
C1667 C 0.92778 0.18021 0.44956 0.0
C1668 C 0.93639 0.13787 0.50129 0.0
C1669 C 0.90134 0.1477 0.51442 0.0
N1670 N 0.84339 0.1792 0.50542 0.0
N1671 N 0.988 0.15424 0.46305 0.0
C1672 C 0.87744 0.16999 0.49273 0.0
C1673 C 0.95112 0.15665 0.47055 0.0
N1674 N 0.86671 0.20139 0.43461 0.0
N1675 N 0.95552 0.11049 0.51841 0.0
H1676 H 0.00052 0.16698 0.44081 0.0
H1677 H 0.00704 0.14157 0.4805 0.0
H1678 H 0.94497 0.09625 0.54094 0.0
H1679 H 0.97971 0.09936 0.50812 0.0
H1680 H 0.83813 0.20225 0.43777 0.0
H1681 H 0.8755 0.21188 0.40943 0.0
H1682 H 0.82728 0.19981 0.49391 0.0
H1683 H 0.83146 0.16705 0.52829 0.0
C1684 C 0.57695 0.21631 0.23311 0.0
C1685 C 0.56175 0.18957 0.20709 0.0
C1686 C 0.59618 0.14074 0.2378 0.0
C1687 C 0.61034 0.16729 0.26454 0.0
N1688 N 0.6249 0.23099 0.27961 0.0
N1689 N 0.57067 0.13126 0.17564 0.0
C1690 C 0.60441 0.20538 0.25918 0.0
C1691 C 0.5755 0.15318 0.20665 0.0
N1692 N 0.56404 0.25164 0.2344 0.0
N1693 N 0.60063 0.10367 0.24261 0.0
H1694 H 0.55919 0.14139 0.15118 0.0
H1695 H 0.58259 0.10536 0.17263 0.0
H1696 H 0.61721 0.09269 0.26339 0.0
H1697 H 0.58627 0.08356 0.22653 0.0
H1698 H 0.57089 0.27055 0.25576 0.0
H1699 H 0.54422 0.26157 0.21598 0.0
H1700 H 0.62439 0.25935 0.27485 0.0
H1701 H 0.64536 0.22328 0.29871 0.0
C1702 C 0.54355 0.83056 0.97134 0.0
C1703 C 0.56323 0.80229 0.95228 0.0
C1704 C 0.61655 0.81271 0.99504 0.0
C1705 C 0.59627 0.84001 0.01422 0.0
N1706 N 0.54613 0.88245 0.0152 0.0
N1707 N 0.61649 0.76313 0.94862 0.0
C1708 C 0.56156 0.85131 0.00051 0.0
C1709 C 0.59935 0.79261 0.96473 0.0
N1710 N 0.50659 0.8354 0.96418 0.0
N1711 N 0.65265 0.80692 0.00519 0.0
H1712 H 0.60584 0.74894 0.92518 0.0
H1713 H 0.64048 0.75141 0.9592 0.0
H1714 H 0.66625 0.822 0.02647 0.0
H1715 H 0.67037 0.78992 0.99059 0.0
H1716 H 0.4901 0.85246 0.98018 0.0
H1717 H 0.49097 0.81989 0.94473 0.0
H1718 H 0.52283 0.89482 0.0038 0.0
H1719 H 0.55901 0.89821 0.03655 0.0
C1720 C 0.93568 0.2188 0.78477 0.0
C1721 C 0.95931 0.19538 0.80575 0.0
C1722 C 0.93876 0.14176 0.76744 0.0
C1723 C 0.9182 0.16572 0.74443 0.0
N1724 N 0.8949 0.22584 0.73084 0.0
N1725 N 0.98626 0.13573 0.81546 0.0
C1726 C 0.91566 0.20385 0.75336 0.0
C1727 C 0.96162 0.15715 0.79664 0.0
N1728 N 0.93285 0.25548 0.79433 0.0
N1729 N 0.93599 0.10425 0.76168 0.0
H1730 H 0.00243 0.14564 0.83797 0.0
H1731 H 0.99218 0.10857 0.80792 0.0
H1732 H 0.91903 0.09191 0.74107 0.0
H1733 H 0.94746 0.085 0.77941 0.0
H1734 H 0.91283 0.2728 0.78357 0.0
H1735 H 0.94957 0.26904 0.81431 0.0
H1736 H 0.89505 0.25462 0.73232 0.0
H1737 H 0.87768 0.21507 0.70948 0.0
C1738 C 0.59063 0.1703 0.55525 0.0
C1739 C 0.56415 0.19817 0.54883 0.0
C1740 C 0.55 0.17092 0.4879 0.0
C1741 C 0.58223 0.14946 0.49015 0.0
N1742 N 0.63009 0.12326 0.52903 0.0
N1743 N 0.52218 0.22803 0.5063 0.0
C1744 C 0.60145 0.14702 0.52494 0.0
C1745 C 0.54465 0.19923 0.51448 0.0
N1746 N 0.60535 0.16622 0.5901 0.0
N1747 N 0.52486 0.16453 0.45962 0.0
H1748 H 0.51748 0.2498 0.52479 0.0
H1749 H 0.51106 0.23203 0.47981 0.0
H1750 H 0.52772 0.14265 0.44062 0.0
H1751 H 0.49975 0.17819 0.45774 0.0
H1752 H 0.62205 0.14434 0.59758 0.0
H1753 H 0.59894 0.18361 0.61237 0.0
H1754 H 0.6489 0.12453 0.55133 0.0
H1755 H 0.63458 0.10146 0.51051 0.0
C1756 C 0.59897 0.80312 0.28743 0.0
C1757 C 0.57479 0.82343 0.31072 0.0
C1758 C 0.57552 0.87462 0.26695 0.0
C1759 C 0.59976 0.85433 0.24412 0.0
N1760 N 0.6429 0.80497 0.23751 0.0
N1761 N 0.54764 0.88158 0.32731 0.0
C1762 C 0.61439 0.82056 0.25619 0.0
C1763 C 0.56558 0.86028 0.30194 0.0
N1764 N 0.60483 0.76627 0.29286 0.0
N1765 N 0.56075 0.90676 0.25455 0.0
H1766 H 0.5406 0.87183 0.35334 0.0
H1767 H 0.54293 0.9097 0.32408 0.0
H1768 H 0.56869 0.91893 0.22993 0.0
H1769 H 0.53928 0.92031 0.2676 0.0
H1770 H 0.61829 0.74945 0.27387 0.0
H1771 H 0.59369 0.75122 0.31435 0.0
H1772 H 0.65744 0.78236 0.24723 0.0
H1773 H 0.65445 0.81696 0.21421 0.0
C1774 C 0.93777 0.7847 0.02162 0.0
C1775 C 0.94614 0.80707 0.0531 0.0
C1776 C 0.93434 0.86272 0.01697 0.0
C1777 C 0.93262 0.84037 0.98405 0.0
N1778 N 0.93854 0.77944 0.95512 0.0
N1779 N 0.93804 0.86483 0.08456 0.0
C1780 C 0.93597 0.80117 0.98633 0.0
C1781 C 0.94015 0.84558 0.05183 0.0
N1782 N 0.92866 0.74822 0.02575 0.0
N1783 N 0.93144 0.9003 0.01448 0.0
H1784 H 0.93833 0.85117 0.10985 0.0
H1785 H 0.93392 0.89316 0.08698 0.0
H1786 H 0.92868 0.91344 0.98911 0.0
H1787 H 0.93382 0.9188 0.03688 0.0
H1788 H 0.91841 0.73127 0.00399 0.0
H1789 H 0.92655 0.73649 0.05181 0.0
H1790 H 0.94403 0.75123 0.95601 0.0
H1791 H 0.93983 0.78987 0.92854 0.0
C1792 C 0.72792 0.97057 0.83347 0.0
C1793 C 0.70181 0.94742 0.81384 0.0
C1794 C 0.7346 0.89232 0.83296 0.0
C1795 C 0.76266 0.91545 0.8495 0.0
N1796 N 0.77466 0.97414 0.88206 0.0
N1797 N 0.66971 0.88857 0.81447 0.0
C1798 C 0.7559 0.95386 0.85514 0.0
C1799 C 0.70178 0.90878 0.81954 0.0
N1800 N 0.72693 0.00823 0.83097 0.0
N1801 N 0.73912 0.85495 0.83013 0.0
H1802 H 0.64487 0.90107 0.80695 0.0
H1803 H 0.66725 0.86059 0.82076 0.0
H1804 H 0.76219 0.84191 0.84141 0.0
H1805 H 0.72067 0.83743 0.81519 0.0
H1806 H 0.7486 0.02572 0.84045 0.0
H1807 H 0.70533 0.02207 0.81813 0.0
H1808 H 0.76772 0.00113 0.88943 0.0
H1809 H 0.79358 0.96291 0.90049 0.0
C1810 C 0.77736 0.97123 0.60308 0.0
C1811 C 0.78721 0.95632 0.56801 0.0
C1812 C 0.83869 0.00192 0.56483 0.0
C1813 C 0.82826 0.01697 0.59935 0.0
N1814 N 0.79515 0.01035 0.65606 0.0
N1815 N 0.82188 0.96285 0.51164 0.0
C1816 C 0.79961 0.00012 0.6198 0.0
C1817 C 0.81677 0.97276 0.54795 0.0
N1818 N 0.74619 0.95843 0.62006 0.0
N1819 N 0.8701 0.01515 0.54865 0.0
H1820 H 0.80546 0.94312 0.49723 0.0
H1821 H 0.84027 0.97643 0.49444 0.0
H1822 H 0.88654 0.03653 0.56059 0.0
H1823 H 0.88188 0.00284 0.52553 0.0
H1824 H 0.73459 0.97165 0.64277 0.0
H1825 H 0.73061 0.93541 0.61051 0.0
H1826 H 0.77694 0.99715 0.67375 0.0
H1827 H 0.81302 0.0292 0.66985 0.0
C1828 C 0.79319 0.08812 0.30472 0.0
C1829 C 0.81275 0.06239 0.32689 0.0
C1830 C 0.77042 0.07333 0.37799 0.0
C1831 C 0.75026 0.09805 0.35533 0.0
N1832 N 0.74831 0.13731 0.30248 0.0
N1833 N 0.82615 0.03759 0.38693 0.0
C1834 C 0.76382 0.10828 0.32048 0.0
C1835 C 0.80331 0.05734 0.36436 0.0
N1836 N 0.80064 0.09133 0.2679 0.0
N1837 N 0.75716 0.06368 0.41171 0.0
H1838 H 0.85051 0.02584 0.37757 0.0
H1839 H 0.82288 0.03561 0.41542 0.0
H1840 H 0.73498 0.0768 0.42392 0.0
H1841 H 0.76731 0.04185 0.4271 0.0
H1842 H 0.78421 0.10605 0.24952 0.0
H1843 H 0.82161 0.07716 0.25473 0.0
H1844 H 0.75906 0.14864 0.27855 0.0
H1845 H 0.72681 0.15249 0.31374 0.0
C1846 C 0.70038 0.04968 0.09597 0.0
C1847 C 0.71862 0.04654 0.06176 0.0
C1848 C 0.68215 0.98989 0.04708 0.0
C1849 C 0.66996 0.98888 0.08417 0.0
N1850 N 0.67221 0.0169 0.14606 0.0
N1851 N 0.72962 0.01109 0.00571 0.0
C1852 C 0.67998 0.01867 0.10925 0.0
C1853 C 0.71008 0.01603 0.03741 0.0
N1854 N 0.70121 0.08268 0.11511 0.0
N1855 N 0.66674 0.96592 0.02103 0.0
H1856 H 0.75087 0.02913 0.99788 0.0
H1857 H 0.72709 0.98728 0.98899 0.0
H1858 H 0.64536 0.94722 0.02715 0.0
H1859 H 0.6722 0.96742 0.99286 0.0
H1860 H 0.68564 0.08743 0.13866 0.0
H1861 H 0.71387 0.10648 0.10481 0.0
H1862 H 0.68309 0.03598 0.16567 0.0
H1863 H 0.65746 0.99524 0.1578 0.0
C1864 C 0.70129 0.0829 0.66646 0.0
C1865 C 0.70664 0.06154 0.69857 0.0
C1866 C 0.76117 0.09947 0.71532 0.0
C1867 C 0.76208 0.11268 0.6788 0.0
N1868 N 0.72993 0.1206 0.61986 0.0
N1869 N 0.74354 0.04789 0.75296 0.0
C1870 C 0.73091 0.10611 0.65451 0.0
C1871 C 0.73676 0.0698 0.72328 0.0
N1872 N 0.66774 0.08186 0.64822 0.0
N1873 N 0.78509 0.11425 0.74168 0.0
H1874 H 0.72741 0.02438 0.75818 0.0
H1875 H 0.76719 0.05091 0.76994 0.0
H1876 H 0.80342 0.13604 0.73579 0.0
H1877 H 0.78363 0.10763 0.76959 0.0
H1878 H 0.66138 0.09876 0.62603 0.0
H1879 H 0.64501 0.06692 0.65794 0.0
H1880 H 0.7108 0.11185 0.59931 0.0
H1881 H 0.74817 0.14131 0.61147 0.0
C1882 C 0.68758 0.95162 0.4051 0.0
C1883 C 0.67899 0.94442 0.44244 0.0
C1884 C 0.63712 0.99715 0.44295 0.0
C1885 C 0.65124 0.00828 0.40872 0.0
N1886 N 0.68923 0.9963 0.35581 0.0
N1887 N 0.64819 0.96329 0.49873 0.0
C1888 C 0.67581 0.98523 0.38901 0.0
C1889 C 0.6538 0.96741 0.46168 0.0
N1890 N 0.70668 0.92611 0.38508 0.0
N1891 N 0.60796 0.01549 0.4577 0.0
H1892 H 0.66013 0.94285 0.51468 0.0
H1893 H 0.63417 0.98257 0.51461 0.0
H1894 H 0.59542 0.03752 0.44433 0.0
H1895 H 0.59389 0.00647 0.48089 0.0
H1896 H 0.71111 0.92803 0.35676 0.0
H1897 H 0.71526 0.90116 0.39625 0.0
H1898 H 0.71107 0.98356 0.34257 0.0
H1899 H 0.67928 0.01925 0.34203 0.0
C1900 C 0.79528 0.95433 0.16742 0.0
C1901 C 0.80345 0.94878 0.20551 0.0
C1902 C 0.75079 0.90472 0.209 0.0
C1903 C 0.74221 0.91121 0.17143 0.0
N1904 N 0.76093 0.9335 0.11214 0.0
N1905 N 0.78506 0.92412 0.26454 0.0
C1906 C 0.76578 0.93358 0.1498 0.0
C1907 C 0.78043 0.92506 0.22683 0.0
N1908 N 0.81513 0.98012 0.14835 0.0
N1909 N 0.73095 0.87829 0.22722 0.0
H1910 H 0.80554 0.93923 0.27926 0.0
H1911 H 0.7668 0.91068 0.28198 0.0
H1912 H 0.70937 0.86283 0.21436 0.0
H1913 H 0.73793 0.86901 0.25353 0.0
H1914 H 0.80765 0.98901 0.12202 0.0
H1915 H 0.83829 0.99432 0.15963 0.0
H1916 H 0.77883 0.94675 0.09419 0.0
H1917 H 0.74135 0.91642 0.09833 0.0
C1918 C 0.83602 0.05232 0.91245 0.0
C1919 C 0.84132 0.05446 0.95158 0.0
C1920 C 0.88509 0.00313 0.94721 0.0
C1921 C 0.86928 0.99366 0.91246 0.0
N1922 N 0.84406 0.01737 0.85513 0.0
N1923 N 0.88366 0.03931 0.00319 0.0
C1924 C 0.84932 0.02091 0.89263 0.0
C1925 C 0.87011 0.03254 0.96802 0.0
N1926 N 0.82119 0.08154 0.8942 0.0
N1927 N 0.91614 0.98531 0.95899 0.0
H1928 H 0.88596 0.06566 0.01517 0.0
H1929 H 0.89607 0.01902 0.01912 0.0
H1930 H 0.92888 0.96553 0.94234 0.0
H1931 H 0.93156 0.99279 0.98279 0.0
H1932 H 0.81606 0.08208 0.86578 0.0
H1933 H 0.81813 0.1074 0.907 0.0
H1934 H 0.82476 0.03217 0.83993 0.0
H1935 H 0.86076 0.00093 0.8387 0.0
C1936 C 0.82168 0.70835 0.94295 0.0
C1937 C 0.7964 0.71414 0.97177 0.0
C1938 C 0.80757 0.78091 0.96818 0.0
C1939 C 0.82705 0.77559 0.93464 0.0
N1940 N 0.84583 0.73291 0.88641 0.0
N1941 N 0.75879 0.75688 0.00602 0.0
C1942 C 0.8327 0.73887 0.92116 0.0
C1943 C 0.78752 0.75069 0.98285 0.0
N1944 N 0.83417 0.67359 0.93561 0.0
N1945 N 0.80918 0.81407 0.9871 0.0
H1946 H 0.74249 0.73551 0.0164 0.0
H1947 H 0.749 0.7833 0.0118 0.0
H1948 H 0.82557 0.8365 0.97933 0.0
H1949 H 0.79778 0.81766 0.01321 0.0
H1950 H 0.855 0.66834 0.91678 0.0
H1951 H 0.82611 0.65068 0.95095 0.0
H1952 H 0.84661 0.70666 0.87402 0.0
H1953 H 0.85134 0.7543 0.86826 0.0
C1954 C 0.34914 0.80454 0.09294 0.0
C1955 C 0.3416 0.8059 0.0541 0.0
C1956 C 0.3461 0.7392 0.04846 0.0
C1957 C 0.35253 0.73664 0.08723 0.0
N1958 N 0.36794 0.7673 0.14562 0.0
N1959 N 0.35654 0.77739 0.99554 0.0
C1960 C 0.35673 0.76957 0.10934 0.0
C1961 C 0.3481 0.77417 0.03203 0.0
N1962 N 0.34977 0.83652 0.11373 0.0
N1963 N 0.33601 0.70882 0.02729 0.0
H1964 H 0.36144 0.80319 0.98377 0.0
H1965 H 0.36366 0.75472 0.979 0.0
H1966 H 0.32871 0.68364 0.03882 0.0
H1967 H 0.3293 0.71035 -0.0009 0.0
H1968 H 0.3503 0.83739 0.14258 0.0
H1969 H 0.35067 0.86252 0.10162 0.0
H1970 H 0.37464 0.7902 0.16259 0.0
H1971 H 0.37222 0.74203 0.15841 0.0
C1972 C 0.97335 0.54664 0.82226 0.0
C1973 C 0.95322 0.56931 0.79718 0.0
C1974 C 0.99447 0.62225 0.81367 0.0
C1975 C 0.0148 0.59917 0.83776 0.0
N1976 N 0.01855 0.54363 0.87286 0.0
N1977 N 0.94655 0.62724 0.76578 0.0
C1978 C 0.00259 0.56265 0.84447 0.0
C1979 C 0.96427 0.60682 0.79207 0.0
N1980 N 0.9667 0.5092 0.82281 0.0
N1981 N 0.00324 0.65922 0.81264 0.0
H1982 H 0.92295 0.61768 0.75107 0.0
H1983 H 0.95586 0.65308 0.75717 0.0
H1984 H 0.02403 0.67159 0.82935 0.0
H1985 H 0.98787 0.67843 0.79815 0.0
H1986 H 0.98334 0.49091 0.83721 0.0
H1987 H 0.94668 0.49537 0.80635 0.0
H1988 H 0.00826 0.51842 0.88223 0.0
H1989 H 0.0399 0.55501 0.88973 0.0
C1990 C 0.15183 0.20032 0.57239 0.0
C1991 C 0.18967 0.19362 0.56876 0.0
C1992 C 0.20276 0.25036 0.60625 0.0
C1993 C 0.16598 0.26215 0.59897 0.0
N1994 N 0.10693 0.24721 0.56617 0.0
N1995 N 0.25301 0.21235 0.5855 0.0
C1996 C 0.14053 0.23672 0.58011 0.0
C1997 C 0.21584 0.21828 0.58716 0.0
N1998 N 0.12668 0.17183 0.56805 0.0
N1999 N 0.22479 0.26887 0.63203 0.0
H2000 H 0.26425 0.18898 0.57324 0.0
H2001 H 0.27293 0.23209 0.59435 0.0
H2002 H 0.21538 0.29087 0.64818 0.0
H2003 H 0.25068 0.25954 0.64053 0.0
H2004 H 0.09843 0.17501 0.57243 0.0
H2005 H 0.1353 0.1445 0.56523 0.0
H2006 H 0.08979 0.22927 0.55015 0.0
H2007 H 0.09814 0.2743 0.56532 0.0
C2008 C 0.04952 0.91741 0.83343 0.0
C2009 C 0.04997 0.93252 0.79774 0.0
C2010 C 0.98444 0.91626 0.7882 0.0
C2011 C 0.98243 0.90676 0.82632 0.0
N2012 N 0.01314 0.89821 0.88563 0.0
N2013 N 0.02425 0.92728 0.73604 0.0
C2014 C 0.0152 0.90651 0.84892 0.0
C2015 C 0.01932 0.92632 0.77337 0.0
N2016 N 0.08252 0.91218 0.85141 0.0
N2017 N 0.95309 0.91663 0.76632 0.0
H2018 H 0.05054 0.92948 0.72487 0.0
H2019 H 0.0036 0.92041 0.71636 0.0
H2020 H 0.92716 0.90829 0.77535 0.0
H2021 H 0.95225 0.92761 0.73985 0.0
H2022 H 0.08516 0.90009 0.87717 0.0
H2023 H 0.10766 0.91717 0.83834 0.0
H2024 H 0.03539 0.90096 0.90438 0.0
H2025 H 0.98834 0.89117 0.8982 0.0
C2026 C 0.6651 0.28726 0.47115 0.0
C2027 C 0.70126 0.30059 0.46316 0.0
C2028 C 0.70703 0.25142 0.41537 0.0
C2029 C 0.67133 0.23793 0.42401 0.0
N2030 N 0.61223 0.24891 0.45141 0.0
N2031 N 0.75969 0.291 0.43273 0.0
C2032 C 0.6492 0.25739 0.44959 0.0
C2033 C 0.72297 0.2818 0.43628 0.0
N2034 N 0.64613 0.30273 0.49978 0.0
N2035 N 0.72515 0.23575 0.38628 0.0
H2036 H 0.7733 0.31207 0.448 0.0
H2037 H 0.7779 0.27577 0.41685 0.0
H2038 H 0.714 0.21343 0.37061 0.0
H2039 H 0.74931 0.24681 0.37532 0.0
H2040 H 0.62204 0.29106 0.51035 0.0
H2041 H 0.65546 0.32636 0.51453 0.0
H2042 H 0.59368 0.26382 0.46721 0.0
H2043 H 0.59905 0.22994 0.43325 0.0
C2044 C 0.95419 0.41383 0.67615 0.0
C2045 C 0.95141 0.45268 0.68058 0.0
C2046 C 0.00589 0.46173 0.64156 0.0
C2047 C 0.01224 0.42324 0.64295 0.0
N2048 N 0.98049 0.36369 0.64064 0.0
N2049 N 0.97278 0.5144 0.66543 0.0
C2050 C 0.9828 0.39934 0.65402 0.0
C2051 C 0.97636 0.47689 0.66211 0.0
N2052 N 0.93007 0.39075 0.69371 0.0
N2053 N 0.02601 0.48303 0.61805 0.0
H2054 H 0.95008 0.52666 0.67756 0.0
H2055 H 0.99307 0.53344 0.65761 0.0
H2056 H 0.04413 0.47137 0.59918 0.0
H2057 H 0.02126 0.51092 0.61348 0.0
H2058 H 0.9335 0.36222 0.69506 0.0
H2059 H 0.90787 0.40047 0.70891 0.0
H2060 H 0.95828 0.34571 0.64559 0.0
H2061 H 0.99786 0.35404 0.61999 0.0
C2062 C 0.50422 0.53594 0.22056 0.0
C2063 C 0.53981 0.55178 0.21381 0.0
C2064 C 0.51622 0.57539 0.15444 0.0
C2065 C 0.48023 0.56176 0.16273 0.0
N2066 N 0.44626 0.51327 0.19326 0.0
N2067 N 0.57969 0.58858 0.1757 0.0
C2068 C 0.47594 0.53736 0.19274 0.0
C2069 C 0.54599 0.57159 0.18073 0.0
N2070 N 0.49692 0.51979 0.25365 0.0
N2071 N 0.52176 0.59068 0.12063 0.0
H2072 H 0.60143 0.58753 0.19518 0.0
H2073 H 0.58553 0.606 0.15388 0.0
H2074 H 0.50059 0.59114 0.10049 0.0
H2075 H 0.54742 0.5994 0.11106 0.0
H2076 H 0.47019 0.51251 0.2616 0.0
H2077 H 0.51679 0.51571 0.27437 0.0
H2078 H 0.4431 0.4929 0.21307 0.0
H2079 H 0.42802 0.5095 0.17073 0.0
C2080 C 0.53846 0.69131 0.77946 0.0
C2081 C 0.56031 0.72313 0.79085 0.0
C2082 C 0.6092 0.70257 0.74854 0.0
C2083 C 0.58803 0.67002 0.73971 0.0
N2084 N 0.53668 0.62931 0.75224 0.0
N2085 N 0.61727 0.75936 0.78432 0.0
C2086 C 0.55413 0.66307 0.75724 0.0
C2087 C 0.59592 0.72887 0.77488 0.0
N2088 N 0.50155 0.68952 0.78713 0.0
N2089 N 0.64116 0.70927 0.72993 0.0
H2090 H 0.60667 0.78367 0.79504 0.0
H2091 H 0.64576 0.76098 0.78041 0.0
H2092 H 0.65285 0.68924 0.71289 0.0
H2093 H 0.6554 0.73466 0.73027 0.0
H2094 H 0.48344 0.66893 0.77649 0.0
H2095 H 0.48798 0.71116 0.80008 0.0
H2096 H 0.51358 0.62104 0.76706 0.0
H2097 H 0.54774 0.60818 0.73599 0.0
C2098 C 0.57828 0.29853 0.03726 0.0
C2099 C 0.55837 0.32444 0.05853 0.0
C2100 C 0.57821 0.37298 0.01558 0.0
C2101 C 0.59261 0.34536 0.99127 0.0
N2102 N 0.59229 0.27888 0.97589 0.0
N2103 N 0.53682 0.38652 0.06657 0.0
C2104 C 0.58831 0.30736 0.00097 0.0
C2105 C 0.55756 0.36186 0.04731 0.0
N2106 N 0.58875 0.26542 0.05147 0.0
N2107 N 0.58341 0.40957 0.00802 0.0
H2108 H 0.52264 0.37917 0.09035 0.0
H2109 H 0.53191 0.41332 0.05781 0.0
H2110 H 0.59681 0.41843 0.98444 0.0
H2111 H 0.57661 0.43096 0.02624 0.0
H2112 H 0.60603 0.24744 0.03732 0.0
H2113 H 0.58479 0.25791 0.07875 0.0
H2114 H 0.58447 0.25164 0.98172 0.0
H2115 H 0.60094 0.28157 0.94886 0.0
C2116 C 0.90992 0.27446 0.27423 0.0
C2117 C 0.91897 0.29742 0.30559 0.0
C2118 C 0.90236 0.35239 0.27121 0.0
C2119 C 0.89691 0.3302 0.2385 0.0
N2120 N 0.87848 0.26999 0.21422 0.0
N2121 N 0.90066 0.35208 0.33816 0.0
C2122 C 0.89546 0.29107 0.24158 0.0
C2123 C 0.90734 0.33446 0.30543 0.0
N2124 N 0.9155 0.23728 0.27508 0.0
N2125 N 0.90543 0.3901 0.26991 0.0
H2126 H 0.90125 0.33764 0.36298 0.0
H2127 H 0.89004 0.37867 0.33967 0.0
H2128 H 0.9042 0.4049 0.24548 0.0
H2129 H 0.91277 0.40646 0.29317 0.0
H2130 H 0.91468 0.22034 0.25133 0.0
H2131 H 0.92043 0.22341 0.29964 0.0
H2132 H 0.87215 0.24203 0.21753 0.0
H2133 H 0.86654 0.2815 0.19063 0.0
C2134 C 0.97808 0.66476 0.53053 0.0
C2135 C 0.96792 0.69835 0.54833 0.0
C2136 C 0.91355 0.70261 0.50639 0.0
C2137 C 0.92457 0.67006 0.48731 0.0
N2138 N 0.96578 0.61887 0.48109 0.0
N2139 N 0.93078 0.75361 0.54754 0.0
C2140 C 0.95656 0.65082 0.49935 0.0
C2141 C 0.93683 0.71828 0.53494 0.0
N2142 N 0.00784 0.64599 0.54408 0.0
N2143 N 0.88081 0.71903 0.49733 0.0
H2144 H 0.94656 0.7671 0.56823 0.0
H2145 H 0.91207 0.77136 0.5351 0.0
H2146 H 0.86417 0.71152 0.47447 0.0
H2147 H 0.86853 0.73883 0.51416 0.0
H2148 H 0.01603 0.62024 0.53431 0.0
H2149 H 0.02397 0.65557 0.56675 0.0
H2150 H 0.99006 0.60455 0.48574 0.0
H2151 H 0.94871 0.60634 0.46058 0.0
C2152 C 0.55248 0.3223 0.71896 0.0
C2153 C 0.57093 0.29044 0.70512 0.0
C2154 C 0.62299 0.30395 0.74902 0.0
C2155 C 0.60376 0.33486 0.76296 0.0
N2156 N 0.5573 0.3804 0.75364 0.0
N2157 N 0.62287 0.24969 0.70763 0.0
C2158 C 0.57077 0.34618 0.74539 0.0
C2159 C 0.60618 0.28102 0.72021 0.0
N2160 N 0.51637 0.32852 0.70907 0.0
N2161 N 0.65773 0.29754 0.76283 0.0
H2162 H 0.61154 0.23296 0.6862 0.0
H2163 H 0.64735 0.23947 0.71867 0.0
H2164 H 0.67058 0.31519 0.78268 0.0
H2165 H 0.67482 0.27675 0.75333 0.0
H2166 H 0.50031 0.34845 0.7219 0.0
H2167 H 0.50088 0.31189 0.69049 0.0
H2168 H 0.535 0.39199 0.7396 0.0
H2169 H 0.57139 0.39912 0.77149 0.0
C2170 C 0.93452 0.34719 0.94794 0.0
C2171 C 0.96817 0.3284 0.95197 0.0
C2172 C 0.97356 0.3525 0.01561 0.0
C2173 C 0.93501 0.35982 0.01468 0.0
N2174 N 0.87808 0.36397 0.97766 0.0
N2175 N 0.02359 0.31808 0.98863 0.0
C2176 C 0.91533 0.35821 0.98004 0.0
C2177 C 0.98935 0.33317 0.98528 0.0
N2178 N 0.92108 0.3542 0.91328 0.0
N2179 N 0.99493 0.36463 0.04521 0.0
H2180 H 0.03676 0.30542 0.9665 0.0
H2181 H 0.03822 0.31676 0.01376 0.0
H2182 H 0.9842 0.38098 0.06634 0.0
H2183 H 0.02364 0.36253 0.04642 0.0
H2184 H 0.898 0.37044 0.90848 0.0
H2185 H 0.93578 0.3469 0.88968 0.0
H2186 H 0.86254 0.35895 0.95331 0.0
H2187 H 0.8619 0.37084 0.00014 0.0
C2188 C 0.89618 0.67704 0.20067 0.0
C2189 C 0.90922 0.71443 0.20356 0.0
C2190 C 0.87976 0.719 0.26413 0.0
C2191 C 0.8803 0.67973 0.26656 0.0
N2192 N 0.87482 0.62188 0.23171 0.0
N2193 N 0.90017 0.77432 0.23255 0.0
C2194 C 0.88401 0.65874 0.23308 0.0
C2195 C 0.89686 0.73664 0.23363 0.0
N2196 N 0.89268 0.66023 0.16649 0.0
N2197 N 0.86026 0.7389 0.28933 0.0
H2198 H 0.90462 0.78829 0.20798 0.0
H2199 H 0.89733 0.79166 0.25566 0.0
H2200 H 0.84245 0.72608 0.30781 0.0
H2201 H 0.858 0.76751 0.28913 0.0
H2202 H 0.88121 0.63381 0.16185 0.0
H2203 H 0.89667 0.67482 0.14216 0.0
H2204 H 0.88281 0.60397 0.21051 0.0
H2205 H 0.8579 0.60954 0.25121 0.0
C2206 C 0.529 0.64581 0.47487 0.0
C2207 C 0.54292 0.67805 0.45646 0.0
C2208 C 0.60173 0.67252 0.492 0.0
C2209 C 0.58524 0.6455 0.51429 0.0
N2210 N 0.53343 0.60597 0.5282 0.0
N2211 N 0.59079 0.7271 0.45696 0.0
C2212 C 0.54913 0.63172 0.50571 0.0
C2213 C 0.5791 0.69248 0.46708 0.0
N2214 N 0.497 0.62791 0.46322 0.0
N2215 N 0.63881 0.6804 0.49591 0.0
H2216 H 0.57431 0.7459 0.44318 0.0
H2217 H 0.61537 0.73961 0.46704 0.0
H2218 H 0.65585 0.66655 0.51455 0.0
H2219 H 0.65313 0.69748 0.47789 0.0
H2220 H 0.4893 0.60157 0.47195 0.0
H2221 H 0.47869 0.63767 0.44356 0.0
H2222 H 0.50525 0.59902 0.52757 0.0
H2223 H 0.54863 0.59273 0.54882 0.0
C2224 C 0.75627 0.57601 0.73808 0.0
C2225 C 0.79287 0.58046 0.72557 0.0
C2226 C 0.76836 0.61372 0.67154 0.0
C2227 C 0.7322 0.61192 0.68677 0.0
N2228 N 0.69798 0.60631 0.7431 0.0
N2229 N 0.83464 0.61242 0.68488 0.0
C2230 C 0.72845 0.59828 0.72306 0.0
C2231 C 0.79931 0.60218 0.69367 0.0
N2232 N 0.74701 0.54862 0.76194 0.0
N2233 N 0.7735 0.62452 0.63595 0.0
H2234 H 0.85768 0.6056 0.70112 0.0
H2235 H 0.8406 0.63086 0.66382 0.0
H2236 H 0.75247 0.63415 0.6188 0.0
H2237 H 0.79867 0.62173 0.62267 0.0
H2238 H 0.7194 0.54201 0.76749 0.0
H2239 H 0.76598 0.52989 0.77239 0.0
H2240 H 0.69425 0.59704 0.76994 0.0
H2241 H 0.67925 0.62606 0.73435 0.0
C2242 C 0.71 0.53532 0.93946 0.0
C2243 C 0.68936 0.54835 0.97021 0.0
C2244 C 0.63954 0.50267 0.95404 0.0
C2245 C 0.66083 0.48945 0.92422 0.0
N2246 N 0.71 0.49993 0.88173 0.0
N2247 N 0.63586 0.54313 0.00867 0.0
C2248 C 0.69415 0.5079 0.91493 0.0
C2249 C 0.65433 0.53174 0.97793 0.0
N2250 N 0.7458 0.5473 0.93483 0.0
N2251 N 0.60472 0.4881 0.95847 0.0
H2252 H 0.64532 0.56511 0.02579 0.0
H2253 H 0.61188 0.53035 0.01814 0.0
H2254 H 0.59337 0.46764 0.94056 0.0
H2255 H 0.58608 0.49775 0.97779 0.0
H2256 H 0.76364 0.53523 0.91604 0.0
H2257 H 0.75922 0.56723 0.95166 0.0
H2258 H 0.73251 0.51459 0.87133 0.0
H2259 H 0.69773 0.4815 0.86236 0.0
C2260 C 0.72307 0.39827 0.2053 0.0
C2261 C 0.70619 0.43062 0.19162 0.0
C2262 C 0.74861 0.4306 0.13939 0.0
C2263 C 0.7694 0.40281 0.15675 0.0
N2264 N 0.77768 0.36009 0.20652 0.0
N2265 N 0.70808 0.48188 0.14896 0.0
C2266 C 0.75683 0.38637 0.1897 0.0
C2267 C 0.71987 0.44768 0.15917 0.0
N2268 N 0.70643 0.37859 0.23257 0.0
N2269 N 0.757 0.44141 0.10441 0.0
H2270 H 0.69027 0.49794 0.16449 0.0
H2271 H 0.71924 0.49653 0.12713 0.0
H2272 H 0.77811 0.42959 0.08923 0.0
H2273 H 0.74053 0.45907 0.08897 0.0
H2274 H 0.71572 0.35311 0.24159 0.0
H2275 H 0.68119 0.38607 0.24379 0.0
H2276 H 0.77251 0.35026 0.2329 0.0
H2277 H 0.80138 0.34939 0.19463 0.0
C2278 C 0.8314 0.48832 0.48276 0.0
C2279 C 0.82363 0.45683 0.45963 0.0
C2280 C 0.85853 0.48525 0.40958 0.0
C2281 C 0.85982 0.51913 0.43034 0.0
N2282 N 0.87192 0.54187 0.49272 0.0
N2283 N 0.84758 0.41859 0.41117 0.0
C2284 C 0.85392 0.51744 0.46901 0.0
C2285 C 0.8426 0.45314 0.42586 0.0
N2286 N 0.81669 0.4913 0.51718 0.0
N2287 N 0.87328 0.48346 0.37513 0.0
H2288 H 0.83874 0.39485 0.42484 0.0
H2289 H 0.86361 0.41335 0.38813 0.0
H2290 H 0.89097 0.50417 0.36545 0.0
H2291 H 0.86865 0.46116 0.35673 0.0
H2292 H 0.81842 0.51575 0.53306 0.0
H2293 H 0.80112 0.4702 0.52904 0.0
H2294 H 0.87154 0.5389 0.52137 0.0
H2295 H 0.89161 0.56106 0.48365 0.0
C2296 C 0.81146 0.41759 0.82939 0.0
C2297 C 0.8058 0.43775 0.79658 0.0
C2298 C 0.74274 0.41236 0.79277 0.0
C2299 C 0.74492 0.40256 0.83078 0.0
N2300 N 0.78431 0.39616 0.88582 0.0
N2301 N 0.76489 0.45396 0.74598 0.0
C2302 C 0.78028 0.40438 0.84921 0.0
C2303 C 0.77126 0.43459 0.77754 0.0
N2304 N 0.84673 0.41086 0.84125 0.0
N2305 N 0.71371 0.39966 0.77105 0.0
H2306 H 0.78537 0.46974 0.73333 0.0
H2307 H 0.73861 0.45612 0.73375 0.0
H2308 H 0.69506 0.37977 0.78042 0.0
H2309 H 0.71143 0.40487 0.74287 0.0
H2310 H 0.85274 0.39366 0.86334 0.0
H2311 H 0.86964 0.41936 0.8261 0.0
H2312 H 0.80894 0.40141 0.90083 0.0
H2313 H 0.76292 0.38651 0.90209 0.0
C2314 C 0.85875 0.54071 0.04572 0.0
C2315 C 0.82737 0.5547 0.06411 0.0
C2316 C 0.8413 0.51509 0.11675 0.0
C2317 C 0.86659 0.49545 0.09501 0.0
N2318 N 0.90019 0.48896 0.03852 0.0
N2319 N 0.78366 0.54677 0.11402 0.0
C2320 C 0.87586 0.50832 0.05945 0.0
C2321 C 0.8175 0.5402 0.09915 0.0
N2322 N 0.87249 0.55853 0.01576 0.0
N2323 N 0.83848 0.50835 0.1537 0.0
H2324 H 0.7622 0.55966 0.09992 0.0
H2325 H 0.77482 0.53458 0.13832 0.0
H2326 H 0.8556 0.49003 0.16754 0.0
H2327 H 0.8223 0.52424 0.17125 0.0
H2328 H 0.89696 0.55112 0.00302 0.0
H2329 H 0.86142 0.58304 0.00597 0.0
H2330 H 0.90486 0.49431 0.01072 0.0
H2331 H 0.91449 0.4664 0.04888 0.0
C2332 C 0.71863 0.53637 0.32361 0.0
C2333 C 0.70054 0.55753 0.29585 0.0
C2334 C 0.74345 0.60996 0.31003 0.0
C2335 C 0.76041 0.58904 0.33853 0.0
N2336 N 0.75911 0.53523 0.37764 0.0
N2337 N 0.6937 0.61493 0.26381 0.0
C2338 C 0.74616 0.55341 0.3472 0.0
C2339 C 0.71244 0.59453 0.28937 0.0
N2340 N 0.71178 0.49904 0.32586 0.0
N2341 N 0.75742 0.64452 0.30269 0.0
H2342 H 0.67131 0.60421 0.24794 0.0
H2343 H 0.69848 0.64303 0.25967 0.0
H2344 H 0.77791 0.65774 0.31933 0.0
H2345 H 0.74961 0.65995 0.2799 0.0
H2346 H 0.72795 0.48146 0.34167 0.0
H2347 H 0.69224 0.48439 0.30963 0.0
H2348 H 0.74603 0.51175 0.38805 0.0
H2349 H 0.78095 0.54468 0.39473 0.0
C2350 C 0.65638 0.45233 0.56251 0.0
C2351 C 0.68657 0.45957 0.5388 0.0
C2352 C 0.69992 0.5171 0.57288 0.0
C2353 C 0.66515 0.515 0.59058 0.0
N2354 N 0.61374 0.47557 0.60807 0.0
N2355 N 0.73286 0.50296 0.51744 0.0
C2356 C 0.64418 0.4811 0.58712 0.0
C2357 C 0.70674 0.49337 0.54252 0.0
N2358 N 0.64031 0.41769 0.56233 0.0
N2359 N 0.72775 0.53986 0.58693 0.0
H2360 H 0.73897 0.48637 0.49451 0.0
H2361 H 0.74574 0.52912 0.51775 0.0
H2362 H 0.72565 0.55389 0.61235 0.0
H2363 H 0.75438 0.54035 0.57623 0.0
H2364 H 0.62089 0.40912 0.58146 0.0
H2365 H 0.648 0.39665 0.54401 0.0
H2366 H 0.59379 0.4549 0.60228 0.0
H2367 H 0.60951 0.49072 0.63233 0.0
C2368 C 0.67039 0.78866 0.56797 0.0
C2369 C 0.70505 0.7989 0.58594 0.0
C2370 C 0.69418 0.74918 0.6306 0.0
C2371 C 0.65888 0.74153 0.61402 0.0
N2372 N 0.60923 0.76065 0.57402 0.0
N2373 N 0.74596 0.79158 0.63988 0.0
C2374 C 0.64543 0.76414 0.58561 0.0
C2375 C 0.71569 0.78017 0.61901 0.0
N2376 N 0.66266 0.79873 0.53231 0.0
N2377 N 0.70812 0.72552 0.65623 0.0
H2378 H 0.76472 0.81186 0.63217 0.0
H2379 H 0.75131 0.78221 0.66656 0.0
H2380 H 0.69241 0.70377 0.66673 0.0
H2381 H 0.73575 0.72608 0.66529 0.0
H2382 H 0.63923 0.78915 0.51738 0.0
H2383 H 0.68166 0.81188 0.51544 0.0
H2384 H 0.59702 0.77872 0.5554 0.0
H2385 H 0.5906 0.7423 0.58618 0.0
C2386 C 0.18364 0.69289 0.40806 0.0
C2387 C 0.22268 0.6946 0.41409 0.0
C2388 C 0.22226 0.7583 0.39112 0.0
C2389 C 0.18338 0.75958 0.39651 0.0
N2390 N 0.12684 0.72676 0.41224 0.0
N2391 N 0.28015 0.72736 0.40306 0.0
C2392 C 0.16381 0.72638 0.40501 0.0
C2393 C 0.24236 0.72685 0.40292 0.0
N2394 N 0.16561 0.65943 0.40386 0.0
N2395 N 0.23953 0.7862 0.37272 0.0
H2396 H 0.29544 0.70319 0.40426 0.0
H2397 H 0.29599 0.75175 0.40214 0.0
H2398 H 0.22462 0.80707 0.36014 0.0
H2399 H 0.26739 0.78616 0.36584 0.0
H2400 H 0.13742 0.65688 0.39712 0.0
H2401 H 0.17989 0.63471 0.40141 0.0
H2402 H 0.11253 0.70375 0.42221 0.0
H2403 H 0.1112 0.75067 0.41161 0.0
C2404 C 0.52836 0.98451 0.66688 0.0
C2405 C 0.55427 0.96561 0.68903 0.0
C2406 C 0.51575 0.90987 0.67974 0.0
C2407 C 0.48541 0.93114 0.6669 0.0
N2408 N 0.46343 0.99493 0.66532 0.0
N2409 N 0.56139 0.91186 0.72881 0.0
C2410 C 0.49157 0.97035 0.66449 0.0
C2411 C 0.54518 0.92855 0.69913 0.0
N2412 N 0.53776 0.01694 0.65038 0.0
N2413 N 0.51708 0.87246 0.67409 0.0
H2414 H 0.57894 0.92545 0.74806 0.0
H2415 H 0.55296 0.88553 0.73715 0.0
H2416 H 0.50123 0.85839 0.65365 0.0
H2417 H 0.53821 0.85667 0.68533 0.0
H2418 H 0.51922 0.03054 0.633 0.0
H2419 H 0.5649 0.02758 0.65098 0.0
H2420 H 0.46835 0.02351 0.66476 0.0
H2421 H 0.43692 0.98809 0.67397 0.0
C2422 C 0.29548 0.29477 0.91433 0.0
C2423 C 0.27867 0.29056 0.94919 0.0
C2424 C 0.30669 0.23078 0.95603 0.0
C2425 C 0.32132 0.23226 0.91924 0.0
N2426 N 0.31941 0.26341 0.86022 0.0
N2427 N 0.25769 0.24915 0.99598 0.0
C2428 C 0.31271 0.26359 0.89726 0.0
C2429 C 0.27995 0.25625 0.96674 0.0
N2430 N 0.29612 0.32858 0.89811 0.0
N2431 N 0.32016 0.20764 0.98261 0.0
H2432 H 0.23965 0.26865 0.00634 0.0
H2433 H 0.25507 0.22295 0.00749 0.0
H2434 H 0.34296 0.19085 0.98006 0.0
H2435 H 0.31191 0.20901 0.01008 0.0
H2436 H 0.3116 0.33426 0.87475 0.0
H2437 H 0.28271 0.35136 0.90942 0.0
H2438 H 0.3105 0.28427 0.84279 0.0
H2439 H 0.32993 0.24069 0.84621 0.0
C2440 C 0.44502 0.56682 0.66806 0.0
C2441 C 0.45244 0.53129 0.68289 0.0
C2442 C 0.51209 0.53329 0.65295 0.0
C2443 C 0.50909 0.57148 0.64647 0.0
N2444 N 0.4716 0.62615 0.65075 0.0
N2445 N 0.50001 0.4877 0.69869 0.0
C2446 C 0.47504 0.58884 0.65436 0.0
C2447 C 0.48774 0.51608 0.67759 0.0
N2448 N 0.40958 0.57925 0.66623 0.0
N2449 N 0.53898 0.51363 0.63622 0.0
H2450 H 0.48486 0.47609 0.71999 0.0
H2451 H 0.52758 0.47981 0.69842 0.0
H2452 H 0.55581 0.52554 0.61629 0.0
H2453 H 0.5409 0.48508 0.63897 0.0
H2454 H 0.40255 0.60366 0.65308 0.0
H2455 H 0.38681 0.56322 0.67414 0.0
H2456 H 0.4489 0.6404 0.6606 0.0
H2457 H 0.49227 0.64314 0.6401 0.0
C2458 C 0.78317 0.22426 0.08938 0.0
C2459 C 0.79411 0.20835 0.0551 0.0
C2460 C 0.84734 0.25177 0.0537 0.0
C2461 C 0.8353 0.2692 0.08651 0.0
N2462 N 0.79075 0.27491 0.13478 0.0
N2463 N 0.83193 0.21327 0.00041 0.0
C2464 C 0.80294 0.25616 0.10428 0.0
C2465 C 0.82477 0.22399 0.03604 0.0
N2466 N 0.75449 0.20838 0.10792 0.0
N2467 N 0.88127 0.261 0.03997 0.0
H2468 H 0.81776 0.19203 0.9862 0.0
H2469 H 0.85017 0.22753 0.98352 0.0
H2470 H 0.89987 0.27895 0.05394 0.0
H2471 H 0.89302 0.24775 0.01736 0.0
H2472 H 0.74726 0.21607 0.13469 0.0
H2473 H 0.73911 0.18565 0.09725 0.0
H2474 H 0.76544 0.26954 0.14708 0.0
H2475 H 0.80552 0.29729 0.14697 0.0
C2476 C 0.53052 0.04376 0.85349 0.0
C2477 C 0.54769 0.05541 0.82061 0.0
C2478 C 0.5098 0.11132 0.82043 0.0
C2479 C 0.48904 0.09684 0.84965 0.0
N2480 N 0.47831 0.04952 0.89449 0.0
N2481 N 0.54901 0.09762 0.76897 0.0
C2482 C 0.49923 0.06322 0.86656 0.0
C2483 C 0.53644 0.08876 0.80327 0.0
N2484 N 0.54473 0.01491 0.87274 0.0
N2485 N 0.50331 0.14637 0.80849 0.0
H2486 H 0.56585 0.08068 0.75332 0.0
H2487 H 0.53979 0.12008 0.75396 0.0
H2488 H 0.48337 0.16322 0.82021 0.0
H2489 H 0.52 0.16011 0.78975 0.0
H2490 H 0.53596 0.00769 0.89895 0.0
H2491 H 0.56748 6e-05 0.86381 0.0
H2492 H 0.48109 0.02299 0.90489 0.0
H2493 H 0.45702 0.06451 0.90634 0.0
C2494 C 0.98827 0.965 0.33841 0.0
C2495 C 0.95517 0.94325 0.33526 0.0
C2496 C 0.98646 0.89111 0.36381 0.0
C2497 C 0.02018 0.91231 0.36534 0.0
N2498 N 0.04639 0.97398 0.37219 0.0
N2499 N 0.91943 0.89459 0.36257 0.0
C2500 C 0.01882 0.95087 0.35861 0.0
C2501 C 0.95317 0.90913 0.35382 0.0
N2502 N 0.99176 0.99787 0.32059 0.0
N2503 N 0.98587 0.85383 0.36944 0.0
H2504 H 0.89532 0.9096 0.35835 0.0
H2505 H 0.91619 0.8708 0.37821 0.0
H2506 H 0.00915 0.83882 0.37647 0.0
H2507 H 0.96215 0.83731 0.36454 0.0
H2508 H 0.01703 0.01223 0.31895 0.0
H2509 H 0.97028 0.00958 0.30544 0.0
H2510 H 0.04516 0.0027 0.37052 0.0
H2511 H 0.06729 0.96449 0.38974 0.0
C2512 C 0.44323 0.27811 0.25172 0.0
C2513 C 0.44601 0.29582 0.21711 0.0
C2514 C 0.39733 0.33859 0.23639 0.0
C2515 C 0.39437 0.31978 0.27069 0.0
N2516 N 0.40088 0.26021 0.29886 0.0
N2517 N 0.42101 0.33924 0.17373 0.0
C2518 C 0.41337 0.28618 0.27493 0.0
C2519 C 0.422 0.3254 0.20873 0.0
N2520 N 0.46842 0.25228 0.26189 0.0
N2521 N 0.37565 0.3683 0.22971 0.0
H2522 H 0.43911 0.33097 0.15319 0.0
H2523 H 0.40115 0.35755 0.16435 0.0
H2524 H 0.35223 0.37391 0.24515 0.0
H2525 H 0.38126 0.38733 0.20921 0.0
H2526 H 0.46941 0.24101 0.28829 0.0
H2527 H 0.49021 0.2447 0.2451 0.0
H2528 H 0.41261 0.23422 0.30123 0.0
H2529 H 0.37522 0.2623 0.31122 0.0
C2530 C 0.46392 0.69015 0.98865 0.0
C2531 C 0.43981 0.69688 0.95797 0.0
C2532 C 0.3952 0.65114 0.98224 0.0
C2533 C 0.41953 0.64574 0.01325 0.0
N2534 N 0.48421 0.6434 0.03079 0.0
N2535 N 0.38498 0.67956 0.92205 0.0
C2536 C 0.45621 0.65999 0.0118 0.0
C2537 C 0.40617 0.67585 0.95356 0.0
N2538 N 0.49403 0.71271 0.99644 0.0
N2539 N 0.36224 0.63186 0.97989 0.0
H2540 H 0.39154 0.69871 0.90178 0.0
H2541 H 0.36171 0.66315 0.91523 0.0
H2542 H 0.35654 0.60957 0.99701 0.0
H2543 H 0.34103 0.63725 0.96091 0.0
H2544 H 0.51068 0.70989 0.02017 0.0
H2545 H 0.49953 0.73687 0.98221 0.0
H2546 H 0.51198 0.6515 0.02858 0.0
H2547 H 0.48017 0.61805 0.04363 0.0
C2548 C 0.07501 0.71921 0.72905 0.0
C2549 C 0.05822 0.6912 0.70507 0.0
C2550 C 0.08825 0.6432 0.74131 0.0
C2551 C 0.10316 0.67105 0.76629 0.0
N2552 N 0.12201 0.73446 0.77645 0.0
N2553 N 0.06277 0.6295 0.67977 0.0
C2554 C 0.10025 0.70873 0.75751 0.0
C2555 C 0.0689 0.65398 0.70867 0.0
N2556 N 0.0657 0.75561 0.72627 0.0
N2557 N 0.09142 0.60648 0.7489 0.0
H2558 H 0.05246 0.63798 0.65418 0.0
H2559 H 0.07256 0.60256 0.67941 0.0
H2560 H 0.1085 0.59657 0.76985 0.0
H2561 H 0.07606 0.58572 0.73472 0.0
H2562 H 0.07342 0.77584 0.74607 0.0
H2563 H 0.04753 0.76571 0.70638 0.0
H2564 H 0.12447 0.76206 0.7688 0.0
H2565 H 0.14083 0.72714 0.79732 0.0
C2566 C 0.08503 0.28748 0.46674 0.0
C2567 C 0.04753 0.29383 0.45722 0.0
C2568 C 0.04542 0.34282 0.50548 0.0
C2569 C 0.08255 0.33541 0.51574 0.0
N2570 N 0.14154 0.31445 0.4923 0.0
N2571 N 0.98956 0.3226 0.472 0.0
C2572 C 0.10368 0.31167 0.49258 0.0
C2573 C 0.02709 0.32054 0.47745 0.0
N2574 N 0.10308 0.25829 0.45121 0.0
N2575 N 0.02865 0.37284 0.52088 0.0
H2576 H 0.97456 0.30602 0.45285 0.0
H2577 H 0.97253 0.33836 0.48872 0.0
H2578 H 0.04255 0.39113 0.53943 0.0
H2579 H 0.00293 0.38231 0.51212 0.0
H2580 H 0.12864 0.24937 0.46119 0.0
H2581 H 0.09158 0.24128 0.43011 0.0
H2582 H 0.15777 0.29843 0.47498 0.0
H2583 H 0.15653 0.33724 0.50307 0.0
C2584 C 0.47742 0.66806 0.28463 0.0
C2585 C 0.4645 0.70164 0.2999 0.0
C2586 C 0.41539 0.70234 0.25144 0.0
C2587 C 0.43096 0.67101 0.23397 0.0
N2588 N 0.48341 0.63093 0.22952 0.0
N2589 N 0.42699 0.75584 0.29174 0.0
C2590 C 0.46351 0.65545 0.2496 0.0
C2591 C 0.43489 0.72021 0.28183 0.0
N2592 N 0.50372 0.64837 0.30319 0.0
N2593 N 0.38192 0.71488 0.23928 0.0
H2594 H 0.44144 0.77073 0.31262 0.0
H2595 H 0.40827 0.7718 0.27696 0.0
H2596 H 0.36695 0.70234 0.2172 0.0
H2597 H 0.36762 0.73553 0.25317 0.0
H2598 H 0.51082 0.62153 0.2954 0.0
H2599 H 0.51583 0.65714 0.32844 0.0
H2600 H 0.50962 0.62209 0.23755 0.0
H2601 H 0.47616 0.62383 0.20252 0.0
C2602 C 0.03255 0.68483 0.02772 0.0
C2603 C 0.05773 0.69494 0.05707 0.0
C2604 C 0.10769 0.66382 0.02498 0.0
C2605 C 0.08274 0.65493 0.99474 0.0
N2606 N 0.01964 0.64571 0.97341 0.0
N2607 N 0.11366 0.68037 0.09038 0.0
C2608 C 0.0445 0.6617 -0.00175 0.0
C2609 C 0.09359 0.68003 0.05789 0.0
N2610 N 0.99763 0.69848 0.02726 0.0
N2611 N 0.14498 0.65928 0.02184 0.0
H2612 H 0.10278 0.69025 0.11518 0.0
H2613 H 0.13887 0.66708 0.0935 0.0
H2614 H 0.15714 0.64724 -0.00115 0.0
H2615 H 0.16426 0.6698 0.04146 0.0
H2616 H 0.97963 0.69608 0.00435 0.0
H2617 H 0.98749 0.7139 0.04933 0.0
H2618 H 0.99108 0.64665 0.97657 0.0
H2619 H 0.02777 0.62808 0.95193 0.0
C2620 C 0.09726 0.29536 0.78161 0.0
C2621 C 0.07343 0.31591 0.80483 0.0
C2622 C 0.08566 0.3716 0.76857 0.0
C2623 C 0.10393 0.34934 0.74183 0.0
N2624 N 0.14293 0.29691 0.73326 0.0
N2625 N 0.04482 0.37348 0.82116 0.0
C2626 C 0.11463 0.31323 0.75161 0.0
C2627 C 0.06783 0.35411 0.79867 0.0
N2628 N 0.10106 0.2581 0.78624 0.0
N2629 N 0.088 0.40938 0.76723 0.0
H2630 H 0.03346 0.36235 0.84497 0.0
H2631 H 0.03536 0.3998 0.8152 0.0
H2632 H 0.10603 0.42334 0.74996 0.0
H2633 H 0.07705 0.42698 0.78717 0.0
H2634 H 0.11402 0.24093 0.76721 0.0
H2635 H 0.08887 0.24349 0.80757 0.0
H2636 H 0.15459 0.27202 0.74107 0.0
H2637 H 0.15789 0.31071 0.71306 0.0
C2638 C 0.44106 0.3426 0.55189 0.0
C2639 C 0.45138 0.30506 0.55076 0.0
C2640 C 0.43758 0.30143 0.48405 0.0
C2641 C 0.43032 0.34024 0.48418 0.0
N2642 N 0.42621 0.39814 0.51822 0.0
N2643 N 0.44307 0.24575 0.52016 0.0
C2644 C 0.4318 0.36081 0.51831 0.0
C2645 C 0.4446 0.2835 0.51819 0.0
N2646 N 0.43829 0.35989 0.58569 0.0
N2647 N 0.43922 0.28158 0.45149 0.0
H2648 H 0.4471 0.23181 0.54485 0.0
H2649 H 0.43393 0.2284 0.49829 0.0
H2650 H 0.43478 0.29253 0.42546 0.0
H2651 H 0.44869 0.25456 0.44988 0.0
H2652 H 0.42834 0.38647 0.58971 0.0
H2653 H 0.44267 0.3457 0.6103 0.0
H2654 H 0.4299 0.41557 0.54135 0.0
H2655 H 0.42042 0.41241 0.49404 0.0
C2656 C 0.22742 0.47966 0.33392 0.0
C2657 C 0.19895 0.45564 0.31936 0.0
C2658 C 0.23282 0.40158 0.34015 0.0
C2659 C 0.26274 0.42528 0.35166 0.0
N2660 N 0.27954 0.48616 0.37661 0.0
N2661 N 0.16666 0.39773 0.32698 0.0
C2662 C 0.2573 0.46417 0.35408 0.0
C2663 C 0.19913 0.41767 0.32839 0.0
N2664 N 0.22705 0.51681 0.32755 0.0
N2665 N 0.23651 0.36403 0.3403 0.0
H2666 H 0.1415 0.41037 0.32097 0.0
H2667 H 0.16434 0.37029 0.33517 0.0
H2668 H 0.26043 0.35147 0.35028 0.0
H2669 H 0.21653 0.34566 0.32886 0.0
H2670 H 0.2498 0.53442 0.33333 0.0
H2671 H 0.20493 0.52991 0.31479 0.0
H2672 H 0.27435 0.51401 0.38197 0.0
H2673 H 0.29977 0.47551 0.39398 0.0
C2674 C 0.31109 0.47098 0.04204 0.0
C2675 C 0.28184 0.45402 0.06196 0.0
C2676 C 0.28945 0.50163 0.11071 0.0
C2677 C 0.32098 0.51669 0.0925 0.0
N2678 N 0.36684 0.5095 0.04544 0.0
N2679 N 0.24657 0.44972 0.11763 0.0
C2680 C 0.33334 0.4994 0.05957 0.0
C2681 C 0.27221 0.46823 0.09709 0.0
N2682 N 0.31654 0.46154 0.00571 0.0
N2683 N 0.274 0.52035 0.13943 0.0
H2684 H 0.23268 0.42558 0.10824 0.0
H2685 H 0.24174 0.45606 0.14537 0.0
H2686 H 0.28468 0.54509 0.1504 0.0
H2687 H 0.24837 0.51308 0.15007 0.0
H2688 H 0.33484 0.47593 0.98898 0.0
H2689 H 0.30045 0.44176 0.99103 0.0
H2690 H 0.37876 0.49555 0.0233 0.0
H2691 H 0.38468 0.5291 0.05841 0.0
C2692 C 0.29873 0.56472 0.86512 0.0
C2693 C 0.30833 0.57064 0.82784 0.0
C2694 C 0.25842 0.61555 0.82183 0.0
C2695 C 0.24486 0.60445 0.85635 0.0
N2696 N 0.25207 0.56924 0.91218 0.0
N2697 N 0.29547 0.60007 0.76916 0.0
C2698 C 0.26536 0.57974 0.87874 0.0
C2699 C 0.28822 0.59621 0.80594 0.0
N2700 N 0.32186 0.54513 0.88752 0.0
N2701 N 0.24264 0.6447 0.80428 0.0
H2702 H 0.31691 0.58696 0.75572 0.0
H2703 H 0.27825 0.61418 0.75103 0.0
H2704 H 0.2208 0.65934 0.81561 0.0
H2705 H 0.25351 0.6567 0.78072 0.0
H2706 H 0.31845 0.54265 0.91595 0.0
H2707 H 0.34653 0.53406 0.87814 0.0
H2708 H 0.2626 0.54738 0.92727 0.0
H2709 H 0.22952 0.58165 0.92442 0.0
C2710 C 0.18493 0.54739 0.57604 0.0
C2711 C 0.21521 0.54087 0.55235 0.0
C2712 C 0.18895 0.47926 0.53614 0.0
C2713 C 0.16387 0.48257 0.56575 0.0
N2714 N 0.12703 0.52412 0.60138 0.0
N2715 N 0.2463 0.50074 0.50932 0.0
C2716 C 0.15859 0.51814 0.58208 0.0
C2717 C 0.21714 0.50692 0.53204 0.0
N2718 N 0.18199 0.58123 0.5933 0.0
N2719 N 0.18419 0.45124 0.51043 0.0
H2720 H 0.26696 0.52065 0.50464 0.0
H2721 H 0.25147 0.47496 0.49728 0.0
H2722 H 0.16073 0.43391 0.5097 0.0
H2723 H 0.20002 0.44881 0.48675 0.0
H2724 H 0.16308 0.58708 0.61382 0.0
H2725 H 0.19957 0.6037 0.58791 0.0
H2726 H 0.11978 0.5495 0.61289 0.0
H2727 H 0.10596 0.50397 0.60263 0.0
C2728 C 0.24421 0.56033 0.22176 0.0
C2729 C 0.21184 0.5574 0.19884 0.0
C2730 C 0.23465 0.60968 0.16227 0.0
C2731 C 0.26851 0.60941 0.18314 0.0
N2732 N 0.29373 0.60117 0.24439 0.0
N2733 N 0.17227 0.58351 0.15182 0.0
C2734 C 0.26959 0.59004 0.2167 0.0
C2735 C 0.20555 0.58382 0.1707 0.0
N2736 N 0.2515 0.53425 0.24768 0.0
N2737 N 0.23079 0.63482 0.13474 0.0
H2738 H 0.15111 0.56421 0.15671 0.0
H2739 H 0.1649 0.60267 0.13199 0.0
H2740 H 0.25025 0.65627 0.13145 0.0
H2741 H 0.2085 0.63537 0.11604 0.0
H2742 H 0.27675 0.5333 0.26219 0.0
H2743 H 0.23374 0.51181 0.25243 0.0
H2744 H 0.29352 0.58954 0.2706 0.0
H2745 H 0.30964 0.62551 0.2425 0.0
C2746 C 0.15013 0.46895 0.95594 0.0
C2747 C 0.17688 0.44835 0.93613 0.0
C2748 C 0.17345 0.49217 0.88537 0.0
C2749 C 0.14769 0.51302 0.90594 0.0
N2750 N 0.10242 0.51528 0.9535 0.0
N2751 N 0.20707 0.43484 0.87879 0.0
C2752 C 0.13282 0.49913 0.93869 0.0
C2753 C 0.18633 0.45823 0.8997 0.0
N2754 N 0.14361 0.4622 0.99236 0.0
N2755 N 0.1865 0.50543 0.85286 0.0
H2756 H 0.21642 0.40962 0.88864 0.0
H2757 H 0.21233 0.43873 0.85087 0.0
H2758 H 0.17489 0.52794 0.83971 0.0
H2759 H 0.2092 0.49466 0.83933 0.0
H2760 H 0.12735 0.47915 0.00867 0.0
H2761 H 0.15696 0.44208 0.00757 0.0
H2762 H 0.08775 0.50408 0.97532 0.0
H2763 H 0.08956 0.53776 0.94124 0.0
C2764 C 0.27637 0.43589 0.72379 0.0
C2765 C 0.29666 0.46307 0.70399 0.0
C2766 C 0.25482 0.45358 0.6503 0.0
C2767 C 0.23592 0.42463 0.66928 0.0
N2768 N 0.2335 0.38323 0.72066 0.0
N2769 N 0.30728 0.49663 0.64806 0.0
C2770 C 0.24817 0.41434 0.70505 0.0
C2771 C 0.28628 0.47176 0.66724 0.0
N2772 N 0.28261 0.43196 0.76102 0.0
N2773 N 0.24205 0.46483 0.61659 0.0
H2774 H 0.33031 0.51087 0.65961 0.0
H2775 H 0.3042 0.50102 0.61975 0.0
H2776 H 0.22259 0.44998 0.6006 0.0
H2777 H 0.25002 0.48969 0.60471 0.0
H2778 H 0.26601 0.41547 0.77757 0.0
H2779 H 0.30217 0.44775 0.77635 0.0
H2780 H 0.24385 0.37202 0.74505 0.0
H2781 H 0.21343 0.36629 0.70718 0.0
C2782 C 0.37792 0.54045 0.46998 0.0
C2783 C 0.3477 0.56062 0.45441 0.0
C2784 C 0.35724 0.52693 0.39581 0.0
C2785 C 0.37472 0.49856 0.4163 0.0
N2786 N 0.41389 0.48459 0.46852 0.0
N2787 N 0.3208 0.58279 0.39736 0.0
C2788 C 0.38891 0.50734 0.45213 0.0
C2789 C 0.34097 0.55693 0.41554 0.0
N2790 N 0.39852 0.55449 0.49937 0.0
N2791 N 0.35812 0.52627 0.35799 0.0
H2792 H 0.31551 0.60869 0.40912 0.0
H2793 H 0.31036 0.57909 0.37039 0.0
H2794 H 0.37522 0.5085 0.34342 0.0
H2795 H 0.34613 0.54611 0.3413 0.0
H2796 H 0.42197 0.54197 0.51026 0.0
H2797 H 0.39635 0.58151 0.50896 0.0
H2798 H 0.42077 0.48582 0.49672 0.0
H2799 H 0.42749 0.46421 0.45344 0.0
C2800 C 0.31392 0.21351 0.42796 0.0
C2801 C 0.29334 0.21575 0.46071 0.0
C2802 C 0.30497 0.28265 0.46446 0.0
C2803 C 0.32069 0.28113 0.42867 0.0
N2804 N 0.33157 0.24562 0.37282 0.0
N2805 N 0.2622 0.25341 0.50587 0.0
C2806 C 0.32304 0.24659 0.40947 0.0
C2807 C 0.28684 0.2506 0.47783 0.0
N2808 N 0.32402 0.17979 0.41417 0.0
N2809 N 0.30847 0.3138 0.48648 0.0
H2810 H 0.24797 0.2305 0.51598 0.0
H2811 H 0.2535 0.27873 0.51659 0.0
H2812 H 0.32249 0.33779 0.47877 0.0
H2813 H 0.30061 0.31444 0.51412 0.0
H2814 H 0.3416 0.17682 0.39186 0.0
H2815 H 0.31752 0.15502 0.42727 0.0
H2816 H 0.33092 0.22138 0.35664 0.0
H2817 H 0.33453 0.26973 0.35768 0.0
C2818 C 0.80368 0.28967 0.59822 0.0
C2819 C 0.82441 0.30917 0.5713 0.0
C2820 C 0.87495 0.26537 0.57823 0.0
C2821 C 0.85381 0.24585 0.60463 0.0
N2822 N 0.80436 0.24536 0.64796 0.0
N2823 N 0.88271 0.32114 0.54223 0.0
C2824 C 0.82035 0.26024 0.61747 0.0
C2825 C 0.86109 0.29878 0.56343 0.0
N2826 N 0.76707 0.29685 0.6033 0.0
N2827 N 0.90739 0.25114 0.56612 0.0
H2828 H 0.87322 0.34589 0.53138 0.0
H2829 H 0.91079 0.317 0.53811 0.0
H2830 H 0.91974 0.22847 0.57833 0.0
H2831 H 0.92142 0.26098 0.54327 0.0
H2832 H 0.74989 0.28011 0.61895 0.0
H2833 H 0.75262 0.31721 0.58944 0.0
H2834 H 0.78178 0.25694 0.66105 0.0
H2835 H 0.81621 0.22363 0.66242 0.0
C2836 C 0.4782 0.04199 0.32193 0.0
C2837 C 0.4573 0.0643 0.29724 0.0
C2838 C 0.50026 0.11674 0.31015 0.0
C2839 C 0.52017 0.09454 0.33555 0.0
N2840 N 0.5232 0.04023 0.37272 0.0
N2841 N 0.44607 0.12352 0.26987 0.0
C2842 C 0.50741 0.05853 0.34376 0.0
C2843 C 0.46773 0.1019 0.29187 0.0
N2844 N 0.47209 0.00449 0.32274 0.0
N2845 N 0.51299 0.15171 0.30295 0.0
H2846 H 0.42226 0.11344 0.25585 0.0
H2847 H 0.44982 0.15201 0.26747 0.0
H2848 H 0.53375 0.16498 0.31896 0.0
H2849 H 0.50359 0.16745 0.28095 0.0
H2850 H 0.48921 0.98661 0.33715 0.0
H2851 H 0.45222 0.99035 0.30633 0.0
H2852 H 0.5126 0.01538 0.3827 0.0
H2853 H 0.54466 0.05188 0.38927 0.0
C2854 C 0.64278 0.70291 0.07635 0.0
C2855 C 0.68087 0.69773 0.07033 0.0
C2856 C 0.69561 0.75037 0.11267 0.0
C2857 C 0.65828 0.76089 0.1101 0.0
N2858 N 0.5949 0.74631 0.09037 0.0
N2859 N 0.74496 0.71621 0.08511 0.0
C2860 C 0.63123 0.73664 0.0928 0.0
C2861 C 0.70782 0.72075 0.08989 0.0
N2862 N 0.61796 0.67482 0.06794 0.0
N2863 N 0.71935 0.76919 0.13671 0.0
H2864 H 0.75612 0.69549 0.06871 0.0
H2865 H 0.76513 0.7352 0.09496 0.0
H2866 H 0.71064 0.79101 0.15361 0.0
H2867 H 0.74619 0.76077 0.14277 0.0
H2868 H 0.58993 0.67584 0.07415 0.0
H2869 H 0.62667 0.64869 0.05945 0.0
H2870 H 0.57538 0.73202 0.0735 0.0
H2871 H 0.5844 0.76935 0.10395 0.0
C2872 C 0.51779 0.42859 0.27156 0.0
C2873 C 0.55027 0.42835 0.29413 0.0
C2874 C 0.5156 0.40405 0.34606 0.0
C2875 C 0.48223 0.40716 0.32482 0.0
N2876 N 0.45202 0.41497 0.26497 0.0
N2877 N 0.58299 0.40371 0.34578 0.0
C2878 C 0.48349 0.41695 0.2867 0.0
C2879 C 0.54997 0.41178 0.32911 0.0
N2880 N 0.5196 0.44176 0.23634 0.0
N2881 N 0.51431 0.39579 0.38284 0.0
H2882 H 0.60807 0.40755 0.33227 0.0
H2883 H 0.58542 0.39073 0.37107 0.0
H2884 H 0.48957 0.39106 0.39651 0.0
H2885 H 0.5374 0.3965 0.40063 0.0
H2886 H 0.49668 0.44682 0.21939 0.0
H2887 H 0.54455 0.44854 0.22392 0.0
H2888 H 0.45154 0.4171 0.23627 0.0
H2889 H 0.426 0.40944 0.27536 0.0
C2890 C 0.22008 0.78471 0.93493 0.0
C2891 C 0.20115 0.803 0.96424 0.0
C2892 C 0.14722 0.76151 0.95345 0.0
C2893 C 0.16677 0.74243 0.92553 0.0
N2894 N 0.21701 0.74043 0.88322 0.0
N2895 N 0.14908 0.80574 0.00494 0.0
C2896 C 0.2018 0.75547 0.91432 0.0
C2897 C 0.16537 0.79048 0.97452 0.0
N2898 N 0.25648 0.79324 0.92854 0.0
N2899 N 0.11052 0.75334 0.95819 0.0
H2900 H 0.16032 0.82857 0.01971 0.0
H2901 H 0.12539 0.79468 0.01688 0.0
H2902 H 0.0958 0.7347 0.94085 0.0
H2903 H 0.09355 0.76802 0.97592 0.0
H2904 H 0.27296 0.77798 0.91083 0.0
H2905 H 0.27165 0.81384 0.94294 0.0
H2906 H 0.24041 0.75133 0.87065 0.0
H2907 H 0.20408 0.71893 0.8677 0.0
C2908 C 0.45987 0.90881 0.1884 0.0
C2909 C 0.44911 0.94546 0.18075 0.0
C2910 C 0.5011 0.95268 0.13843 0.0
C2911 C 0.51298 0.91691 0.14771 0.0
N2912 N 0.4978 0.85665 0.1721 0.0
N2913 N 0.45327 -0.00165 0.14048 0.0
C2914 C 0.49038 0.8935 0.16955 0.0
C2915 C 0.46746 0.96599 0.15296 0.0
N2916 N 0.44129 0.88893 0.2143 0.0
N2917 N 0.52296 0.97462 0.11701 0.0
H2918 H 0.43087 0.01159 0.15203 0.0
H2919 H 0.46189 0.01043 0.11611 0.0
H2920 H 0.54647 0.96486 0.10395 0.0
H2921 H 0.5188 0.00281 0.11348 0.0
H2922 H 0.45077 0.86431 0.22526 0.0
H2923 H 0.41681 0.89791 0.22606 0.0
H2924 H 0.48054 0.83757 0.18491 0.0
H2925 H 0.51919 0.84403 0.15813 0.0
C2926 C 0.03004 0.10038 0.71575 0.0
C2927 C 0.04124 0.06297 0.7171 0.0
C2928 C 0.99591 0.04725 0.66665 0.0
C2929 C 0.98753 0.08511 0.66371 0.0
N2930 N 0.00614 0.14864 0.67703 0.0
N2931 N 0.03713 0.00096 0.68979 0.0
C2932 C 0.00799 0.11198 0.68528 0.0
C2933 C 0.02514 0.03655 0.69101 0.0
N2934 N 0.03841 0.12457 0.74433 0.0
N2935 N 0.97484 0.02135 0.64713 0.0
H2936 H 0.05534 0.99049 0.70938 0.0
H2937 H 0.03014 0.98218 0.66836 0.0
H2938 H 0.95494 0.0286 0.62727 0.0
H2939 H 0.97581 0.99301 0.65187 0.0
H2940 H 0.02877 0.15157 0.74549 0.0
H2941 H 0.04954 0.116 0.76938 0.0
H2942 H 0.02271 0.16904 0.69037 0.0
H2943 H 0.99174 0.15801 0.65385 0.0
loop_
_geom_bond_atom_site_label_1
_geom_bond_atom_site_label_2
_geom_bond_distance
_geom_bond_site_symmetry_2
_ccdc_geom_bond_type
Mn0 O5 2.095 1_455 S
Mn0 O15 2.162 1_455 S
Mn0 O16 2.297 1_455 S
Mn0 O24 2.385 . S
Mn0 O25 2.209 . S
Mn0 O26 2.094 . S
Mn1 O6 2.121 1_455 S
Mn1 N8 2.257 . S
Mn1 N17 2.282 . S
Mn1 O25 2.215 . S
Mn1 O27 2.117 . S
C2 O24 1.234 . S
C2 O25 1.283 . S
C3 O15 1.281 . S
C3 O16 1.236 . S
C4 O26 1.240 . S
C4 O27 1.264 . S
O5 Mn0 2.095 1_655 S
O5 C14 1.250 . S
O6 Mn1 2.121 1_655 S
O6 C14 1.258 . S
C7 N8 1.326 . S
C7 C11 1.460 . S
C7 H13 0.929 . S
N8 Mn1 2.257 . S
N8 C7 1.326 . S
N8 C12 1.362 . S
C9 C10 1.258 . S
C9 C12 1.431 . S
C9 C29 1.449 . S
C10 C9 1.258 . S
C10 C11 1.477 . S
C10 H30 0.931 . S
C11 C7 1.460 . S
C11 C10 1.477 . S
C11 H31 0.930 . S
C12 N8 1.362 . S
C12 C9 1.431 . S
C12 C22 1.476 . S
H13 C7 0.929 . S
C14 O5 1.250 . S
C14 O6 1.258 . S
O15 Mn0 2.162 1_655 S
O15 C3 1.281 . S
O16 Mn0 2.297 1_655 S
O16 C3 1.236 . S
N17 Mn1 2.282 . S
N17 C18 1.328 . S
N17 C22 1.318 . S
C18 N17 1.328 . S
C18 C19 1.457 . S
C18 H23 0.929 . S
C19 C18 1.457 . S
C19 C20 1.291 . S
C19 H32 0.931 . S
C20 C19 1.291 . S
C20 C21 1.373 . S
C20 H33 0.929 . S
C21 C20 1.373 . S
C21 C22 1.396 . S
C21 C28 1.403 . S
C22 C12 1.476 . S
C22 N17 1.318 . S
C22 C21 1.396 . S
H23 C18 0.929 . S
O24 Mn0 2.385 . S
O24 C2 1.234 . S
O25 Mn0 2.209 . S
O25 Mn1 2.215 . S
O25 C2 1.283 . S
O26 Mn0 2.094 . S
O26 C4 1.240 . S
O27 Mn1 2.117 . S
O27 C4 1.264 . S
C28 C21 1.403 . S
C28 C29 1.399 . S
C28 H34 0.929 . S
C29 C9 1.449 . S
C29 C28 1.399 . S
C29 H35 0.930 . S
H30 C10 0.931 . S
H31 C11 0.930 . S
H32 C19 0.931 . S
H33 C20 0.929 . S
H34 C28 0.929 . S
H35 C29 0.930 . S
Mn36 O41 2.087 1_455 S
Mn36 O51 2.162 . S
Mn36 O52 2.297 . S
Mn36 O60 2.385 . S
Mn36 O61 2.209 1_455 S
Mn36 O62 2.094 . S
Mn37 O42 2.121 . S
Mn37 N44 2.257 . S
Mn37 N53 2.282 . S
Mn37 O61 2.215 . S
Mn37 O63 2.117 1_655 S
C38 O60 1.234 1_655 S
C38 O61 1.283 . S
C39 O51 1.281 . S
C39 O52 1.236 . S
C40 O62 1.240 . S
C40 O63 1.264 . S
O41 Mn36 2.087 1_655 S
O41 C50 1.271 . S
O42 Mn37 2.121 . S
O42 C50 1.258 . S
C43 N44 1.326 . S
C43 C47 1.460 . S
C43 H49 0.929 . S
N44 Mn37 2.257 . S
N44 C43 1.326 . S
N44 C48 1.362 . S
C45 C46 1.258 . S
C45 C48 1.431 . S
C45 C65 1.449 . S
C46 C45 1.258 . S
C46 C47 1.477 . S
C46 H66 0.931 . S
C47 C43 1.460 . S
C47 C46 1.477 . S
C47 H67 0.930 . S
C48 N44 1.362 . S
C48 C45 1.431 . S
C48 C58 1.476 . S
H49 C43 0.929 . S
C50 O41 1.271 . S
C50 O42 1.258 . S
O51 Mn36 2.162 . S
O51 C39 1.281 . S
O52 Mn36 2.297 . S
O52 C39 1.236 . S
N53 Mn37 2.282 . S
N53 C54 1.328 . S
N53 C58 1.318 . S
C54 N53 1.328 . S
C54 C55 1.457 . S
C54 H59 0.929 . S
C55 C54 1.457 . S
C55 C56 1.291 . S
C55 H68 0.931 . S
C56 C55 1.291 . S
C56 C57 1.373 . S
C56 H69 0.929 . S
C57 C56 1.373 . S
C57 C58 1.396 . S
C57 C64 1.403 . S
C58 C48 1.476 . S
C58 N53 1.318 . S
C58 C57 1.396 . S
H59 C54 0.929 . S
O60 Mn36 2.385 . S
O60 C38 1.234 1_455 S
O61 Mn36 2.209 1_655 S
O61 Mn37 2.215 . S
O61 C38 1.283 . S
O62 Mn36 2.094 . S
O62 C40 1.240 . S
O63 Mn37 2.117 1_455 S
O63 C40 1.264 . S
C64 C57 1.403 . S
C64 C65 1.399 . S
C64 H70 0.929 . S
C65 C45 1.449 . S
C65 C64 1.399 . S
C65 H71 0.930 . S
H66 C46 0.931 . S
H67 C47 0.930 . S
H68 C55 0.931 . S
H69 C56 0.929 . S
H70 C64 0.929 . S
H71 C65 0.930 . S
Mn72 O77 2.095 . S
Mn72 O87 2.162 . S
Mn72 O88 2.297 . S
Mn72 O96 2.385 . S
Mn72 O97 2.209 . S
Mn72 O98 2.094 . S
Mn73 O78 2.121 . S
Mn73 N80 2.257 . S
Mn73 N89 2.282 . S
Mn73 O97 2.215 . S
Mn73 O99 2.117 . S
C74 O96 1.234 . S
C74 O97 1.283 . S
C75 O87 1.281 . S
C75 O88 1.236 . S
C76 O98 1.240 . S
C76 O99 1.264 . S
O77 Mn72 2.095 . S
O77 C86 1.250 . S
O78 Mn73 2.121 . S
O78 C86 1.258 . S
C79 N80 1.326 . S
C79 C83 1.460 . S
C79 H85 0.929 . S
N80 Mn73 2.257 . S
N80 C79 1.326 . S
N80 C84 1.362 . S
C81 C82 1.258 . S
C81 C84 1.431 . S
C81 C101 1.449 . S
C82 C81 1.258 . S
C82 C83 1.477 . S
C82 H102 0.931 . S
C83 C79 1.460 . S
C83 C82 1.477 . S
C83 H103 0.930 . S
C84 N80 1.362 . S
C84 C81 1.431 . S
C84 C94 1.476 . S
H85 C79 0.929 . S
C86 O77 1.250 . S
C86 O78 1.258 . S
O87 Mn72 2.162 . S
O87 C75 1.281 . S
O88 Mn72 2.297 . S
O88 C75 1.236 . S
N89 Mn73 2.282 . S
N89 C90 1.328 . S
N89 C94 1.318 . S
C90 N89 1.328 . S
C90 C91 1.457 . S
C90 H95 0.929 . S
C91 C90 1.457 . S
C91 C92 1.291 . S
C91 H104 0.931 . S
C92 C91 1.291 . S
C92 C93 1.373 . S
C92 H105 0.929 . S
C93 C92 1.373 . S
C93 C94 1.396 . S
C93 C100 1.403 . S
C94 C84 1.476 . S
C94 N89 1.318 . S
C94 C93 1.396 . S
H95 C90 0.929 . S
O96 Mn72 2.385 . S
O96 C74 1.234 . S
O97 Mn72 2.209 . S
O97 Mn73 2.215 . S
O97 C74 1.283 . S
O98 Mn72 2.094 . S
O98 C76 1.240 . S
O99 Mn73 2.117 . S
O99 C76 1.264 . S
C100 C93 1.403 . S
C100 C101 1.399 . S
C100 H106 0.929 . S
C101 C81 1.449 . S
C101 C100 1.399 . S
C101 H107 0.930 . S
H102 C82 0.931 . S
H103 C83 0.930 . S
H104 C91 0.931 . S
H105 C92 0.929 . S
H106 C100 0.929 . S
H107 C101 0.930 . S
Mn108 O113 2.095 . S
Mn108 O123 2.162 . S
Mn108 O124 2.297 . S
Mn108 O132 2.385 . S
Mn108 O133 2.209 . S
Mn108 O134 2.094 . S
Mn109 O114 2.121 . S
Mn109 N116 2.257 . S
Mn109 N125 2.282 . S
Mn109 O133 2.215 . S
Mn109 O135 2.117 . S
C110 O132 1.234 . S
C110 O133 1.283 . S
C111 O123 1.281 . S
C111 O124 1.236 . S
C112 O134 1.240 . S
C112 O135 1.264 . S
O113 Mn108 2.095 . S
O113 C122 1.250 . S
O114 Mn109 2.121 . S
O114 C122 1.258 . S
C115 N116 1.326 . S
C115 C119 1.460 . S
C115 H121 0.929 . S
N116 Mn109 2.257 . S
N116 C115 1.326 . S
N116 C120 1.362 . S
C117 C118 1.258 . S
C117 C120 1.431 . S
C117 C137 1.449 . S
C118 C117 1.258 . S
C118 C119 1.477 . S
C118 H138 0.931 . S
C119 C115 1.460 . S
C119 C118 1.477 . S
C119 H139 0.930 . S
C120 N116 1.362 . S
C120 C117 1.431 . S
C120 C130 1.476 . S
H121 C115 0.929 . S
C122 O113 1.250 . S
C122 O114 1.258 . S
O123 Mn108 2.162 . S
O123 C111 1.281 . S
O124 Mn108 2.297 . S
O124 C111 1.236 . S
N125 Mn109 2.282 . S
N125 C126 1.328 . S
N125 C130 1.318 . S
C126 N125 1.328 . S
C126 C127 1.457 . S
C126 H131 0.929 . S
C127 C126 1.457 . S
C127 C128 1.291 . S
C127 H140 0.931 . S
C128 C127 1.291 . S
C128 C129 1.373 . S
C128 H141 0.929 . S
C129 C128 1.373 . S
C129 C130 1.396 . S
C129 C136 1.403 . S
C130 C120 1.476 . S
C130 N125 1.318 . S
C130 C129 1.396 . S
H131 C126 0.929 . S
O132 Mn108 2.385 . S
O132 C110 1.234 . S
O133 Mn108 2.209 . S
O133 Mn109 2.215 . S
O133 C110 1.283 . S
O134 Mn108 2.094 . S
O134 C112 1.240 . S
O135 Mn109 2.117 . S
O135 C112 1.264 . S
C136 C129 1.403 . S
C136 C137 1.399 . S
C136 H142 0.929 . S
C137 C117 1.449 . S
C137 C136 1.399 . S
C137 H143 0.930 . S
H138 C118 0.931 . S
H139 C119 0.930 . S
H140 C127 0.931 . S
H141 C128 0.929 . S
H142 C136 0.929 . S
H143 C137 0.930 . S
Mn144 O149 2.095 . S
Mn144 O159 2.162 . S
Mn144 O160 2.297 . S
Mn144 O168 2.385 1_655 S
Mn144 O169 2.209 1_655 S
Mn144 O170 2.094 1_655 S
Mn145 O150 2.121 1_455 S
Mn145 N152 2.257 . S
Mn145 N161 2.282 . S
Mn145 O169 2.215 . S
Mn145 O171 2.117 . S
C146 O168 1.234 . S
C146 O169 1.283 . S
C147 O159 1.281 . S
C147 O160 1.236 . S
C148 O170 1.240 . S
C148 O171 1.264 . S
O149 Mn144 2.095 . S
O149 C158 1.250 . S
O150 Mn145 2.121 1_655 S
O150 C158 1.258 . S
C151 N152 1.326 . S
C151 C155 1.460 . S
C151 H157 0.916 1_455 S
N152 Mn145 2.257 . S
N152 C151 1.326 . S
N152 C156 1.362 . S
C153 C154 1.258 . S
C153 C156 1.431 . S
C153 C173 1.449 . S
C154 C153 1.258 . S
C154 C155 1.477 . S
C154 H174 0.931 . S
C155 C151 1.460 . S
C155 C154 1.477 . S
C155 H175 0.930 . S
C156 N152 1.362 . S
C156 C153 1.431 . S
C156 C166 1.476 . S
H157 C151 0.916 1_655 S
C158 O149 1.250 . S
C158 O150 1.258 . S
O159 Mn144 2.162 . S
O159 C147 1.281 . S
O160 Mn144 2.297 . S
O160 C147 1.236 . S
N161 Mn145 2.282 . S
N161 C162 1.328 . S
N161 C166 1.318 . S
C162 N161 1.328 . S
C162 C163 1.457 . S
C162 H167 0.929 . S
C163 C162 1.457 . S
C163 C164 1.291 . S
C163 H176 0.931 . S
C164 C163 1.291 . S
C164 C165 1.373 . S
C164 H177 0.929 . S
C165 C164 1.373 . S
C165 C166 1.396 . S
C165 C172 1.403 . S
C166 C156 1.476 . S
C166 N161 1.318 . S
C166 C165 1.396 . S
H167 C162 0.929 . S
O168 Mn144 2.385 1_455 S
O168 C146 1.234 . S
O169 Mn144 2.209 1_455 S
O169 Mn145 2.215 . S
O169 C146 1.283 . S
O170 Mn144 2.094 1_455 S
O170 C148 1.240 . S
O171 Mn145 2.117 . S
O171 C148 1.264 . S
C172 C165 1.403 . S
C172 C173 1.399 . S
C172 H178 0.929 . S
C173 C153 1.449 . S
C173 C172 1.399 . S
C173 H179 0.930 . S
H174 C154 0.931 . S
H175 C155 0.930 . S
H176 C163 0.931 . S
H177 C164 0.929 . S
H178 C172 0.929 . S
H179 C173 0.930 . S
Mn180 O185 2.095 . S
Mn180 O195 2.162 . S
Mn180 O196 2.297 . S
Mn180 O204 2.385 . S
Mn180 O205 2.209 . S
Mn180 O206 2.094 . S
Mn181 O186 2.121 . S
Mn181 N188 2.257 . S
Mn181 N197 2.282 . S
Mn181 O205 2.215 . S
Mn181 O207 2.117 . S
C182 O204 1.234 . S
C182 O205 1.283 . S
C183 O195 1.281 . S
C183 O196 1.236 . S
C184 O206 1.240 . S
C184 O207 1.264 . S
O185 Mn180 2.095 . S
O185 C194 1.250 . S
O186 Mn181 2.121 . S
O186 C194 1.258 . S
C187 N188 1.326 . S
C187 C191 1.460 . S
C187 H193 0.929 . S
N188 Mn181 2.257 . S
N188 C187 1.326 . S
N188 C192 1.362 . S
C189 C190 1.258 . S
C189 C192 1.431 . S
C189 C209 1.449 . S
C190 C189 1.258 . S
C190 C191 1.477 . S
C190 H210 0.931 . S
C191 C187 1.460 . S
C191 C190 1.477 . S
C191 H211 0.930 . S
C192 N188 1.362 . S
C192 C189 1.431 . S
C192 C202 1.476 . S
H193 C187 0.929 . S
C194 O185 1.250 . S
C194 O186 1.258 . S
O195 Mn180 2.162 . S
O195 C183 1.281 . S
O196 Mn180 2.297 . S
O196 C183 1.236 . S
N197 Mn181 2.282 . S
N197 C198 1.328 . S
N197 C202 1.318 . S
C198 N197 1.328 . S
C198 C199 1.457 . S
C198 H203 0.929 . S
C199 C198 1.457 . S
C199 C200 1.291 . S
C199 H212 0.931 . S
C200 C199 1.291 . S
C200 C201 1.373 . S
C200 H213 0.929 . S
C201 C200 1.373 . S
C201 C202 1.396 . S
C201 C208 1.403 . S
C202 C192 1.476 . S
C202 N197 1.318 . S
C202 C201 1.396 . S
H203 C198 0.929 . S
O204 Mn180 2.385 . S
O204 C182 1.234 . S
O205 Mn180 2.209 . S
O205 Mn181 2.215 . S
O205 C182 1.283 . S
O206 Mn180 2.094 . S
O206 C184 1.240 . S
O207 Mn181 2.117 . S
O207 C184 1.264 . S
C208 C201 1.403 . S
C208 C209 1.399 . S
C208 H214 0.929 . S
C209 C189 1.449 . S
C209 C208 1.399 . S
C209 H215 0.930 . S
H210 C190 0.931 . S
H211 C191 0.930 . S
H212 C199 0.931 . S
H213 C200 0.929 . S
H214 C208 0.929 . S
H215 C209 0.930 . S
Mn216 O221 2.095 . S
Mn216 O231 2.162 . S
Mn216 O232 2.297 . S
Mn216 O240 2.385 . S
Mn216 O241 2.209 . S
Mn216 O242 2.094 . S
Mn217 O222 2.121 . S
Mn217 N224 2.257 . S
Mn217 N233 2.282 . S
Mn217 O241 2.215 . S
Mn217 O243 2.117 . S
C218 O240 1.234 . S
C218 O241 1.283 . S
C219 O231 1.281 . S
C219 O232 1.236 . S
C220 O242 1.240 . S
C220 O243 1.264 . S
O221 Mn216 2.095 . S
O221 C230 1.250 . S
O222 Mn217 2.121 . S
O222 C230 1.258 . S
C223 N224 1.326 . S
C223 C227 1.460 . S
C223 H229 0.929 . S
N224 Mn217 2.257 . S
N224 C223 1.326 . S
N224 C228 1.362 . S
C225 C226 1.258 . S
C225 C228 1.431 . S
C225 C245 1.449 . S
C226 C225 1.258 . S
C226 C227 1.477 . S
C226 H246 0.931 . S
C227 C223 1.460 . S
C227 C226 1.477 . S
C227 H247 0.930 . S
C228 N224 1.362 . S
C228 C225 1.431 . S
C228 C238 1.476 . S
H229 C223 0.929 . S
C230 O221 1.250 . S
C230 O222 1.258 . S
O231 Mn216 2.162 . S
O231 C219 1.281 . S
O232 Mn216 2.297 . S
O232 C219 1.236 . S
N233 Mn217 2.282 . S
N233 C234 1.328 . S
N233 C238 1.318 . S
C234 N233 1.328 . S
C234 C235 1.457 . S
C234 H239 0.929 . S
C235 C234 1.457 . S
C235 C236 1.291 . S
C235 H248 0.931 . S
C236 C235 1.291 . S
C236 C237 1.373 . S
C236 H249 0.929 . S
C237 C236 1.373 . S
C237 C238 1.396 . S
C237 C244 1.403 . S
C238 C228 1.476 . S
C238 N233 1.318 . S
C238 C237 1.396 . S
H239 C234 0.929 . S
O240 Mn216 2.385 . S
O240 C218 1.234 . S
O241 Mn216 2.209 . S
O241 Mn217 2.215 . S
O241 C218 1.283 . S
O242 Mn216 2.094 . S
O242 C220 1.240 . S
O243 Mn217 2.117 . S
O243 C220 1.264 . S
C244 C237 1.403 . S
C244 C245 1.399 . S
C244 H250 0.929 . S
C245 C225 1.449 . S
C245 C244 1.399 . S
C245 H251 0.930 . S
H246 C226 0.931 . S
H247 C227 0.930 . S
H248 C235 0.931 . S
H249 C236 0.929 . S
H250 C244 0.929 . S
H251 C245 0.930 . S
Mn252 O257 2.106 . S
Mn252 O267 2.162 . S
Mn252 O268 2.297 . S
Mn252 O276 2.385 . S
Mn252 O277 2.209 1_455 S
Mn252 O278 2.094 . S
Mn253 O258 2.121 . S
Mn253 N260 2.257 . S
Mn253 N269 2.282 . S
Mn253 O277 2.215 . S
Mn253 O279 2.117 1_655 S
C254 O276 1.234 1_655 S
C254 O277 1.283 . S
C255 O267 1.281 . S
C255 O268 1.236 . S
C256 O278 1.240 . S
C256 O279 1.264 . S
O257 Mn252 2.106 . S
O257 C266 1.223 1_455 S
O258 Mn253 2.121 . S
O258 C266 1.258 . S
C259 N260 1.326 . S
C259 C263 1.460 . S
C259 H265 0.929 . S
N260 Mn253 2.257 . S
N260 C259 1.326 . S
N260 C264 1.362 . S
C261 C262 1.258 . S
C261 C264 1.431 . S
C261 C281 1.449 . S
C262 C261 1.258 . S
C262 C263 1.477 . S
C262 H282 0.931 . S
C263 C259 1.460 . S
C263 C262 1.477 . S
C263 H283 0.930 . S
C264 N260 1.362 . S
C264 C261 1.431 . S
C264 C274 1.476 . S
H265 C259 0.929 . S
C266 O257 1.223 1_655 S
C266 O258 1.258 . S
O267 Mn252 2.162 . S
O267 C255 1.281 . S
O268 Mn252 2.297 . S
O268 C255 1.236 . S
N269 Mn253 2.282 . S
N269 C270 1.328 . S
N269 C274 1.318 . S
C270 N269 1.328 . S
C270 C271 1.457 . S
C270 H275 0.929 . S
C271 C270 1.457 . S
C271 C272 1.291 . S
C271 H284 0.931 . S
C272 C271 1.291 . S
C272 C273 1.373 . S
C272 H285 0.929 . S
C273 C272 1.373 . S
C273 C274 1.396 . S
C273 C280 1.403 . S
C274 C264 1.476 . S
C274 N269 1.318 . S
C274 C273 1.396 . S
H275 C270 0.929 . S
O276 Mn252 2.385 . S
O276 C254 1.234 1_455 S
O277 Mn252 2.209 1_655 S
O277 Mn253 2.215 . S
O277 C254 1.283 . S
O278 Mn252 2.094 . S
O278 C256 1.240 . S
O279 Mn253 2.117 1_455 S
O279 C256 1.264 . S
C280 C273 1.403 . S
C280 C281 1.399 . S
C280 H286 0.929 . S
C281 C261 1.449 . S
C281 C280 1.399 . S
C281 H287 0.930 . S
H282 C262 0.931 . S
H283 C263 0.930 . S
H284 C271 0.931 . S
H285 C272 0.929 . S
H286 C280 0.929 . S
H287 C281 0.930 . S
Mn288 O293 2.095 . S
Mn288 O303 2.162 . S
Mn288 O304 2.297 . S
Mn288 O312 2.385 1_565 S
Mn288 O313 2.209 1_565 S
Mn288 O314 2.094 1_565 S
Mn289 O294 2.121 1_545 S
Mn289 N296 2.257 . S
Mn289 N305 2.282 . S
Mn289 O313 2.215 . S
Mn289 O315 2.117 . S
C290 O312 1.234 . S
C290 O313 1.283 . S
C291 O303 1.281 . S
C291 O304 1.236 . S
C292 O314 1.240 . S
C292 O315 1.264 . S
O293 Mn288 2.095 . S
O293 C302 1.250 . S
O294 Mn289 2.121 1_565 S
O294 C302 1.258 . S
C295 N296 1.326 . S
C295 C299 1.460 . S
C295 H301 0.935 . S
N296 Mn289 2.257 . S
N296 C295 1.326 . S
N296 C300 1.362 . S
C297 C298 1.258 . S
C297 C300 1.431 . S
C297 C317 1.449 . S
C298 C297 1.258 . S
C298 C299 1.477 . S
C298 H318 0.931 . S
C299 C295 1.460 . S
C299 C298 1.477 . S
C299 H319 0.930 . S
C300 N296 1.362 . S
C300 C297 1.431 . S
C300 C310 1.476 . S
H301 C295 0.935 . S
C302 O293 1.250 . S
C302 O294 1.258 . S
O303 Mn288 2.162 . S
O303 C291 1.281 . S
O304 Mn288 2.297 . S
O304 C291 1.236 . S
N305 Mn289 2.282 . S
N305 C306 1.328 . S
N305 C310 1.318 . S
C306 N305 1.328 . S
C306 C307 1.457 . S
C306 H311 0.929 . S
C307 C306 1.457 . S
C307 C308 1.291 . S
C307 H320 0.931 . S
C308 C307 1.291 . S
C308 C309 1.373 . S
C308 H321 0.929 . S
C309 C308 1.373 . S
C309 C310 1.396 . S
C309 C316 1.403 . S
C310 C300 1.476 . S
C310 N305 1.318 . S
C310 C309 1.396 . S
H311 C306 0.929 . S
O312 Mn288 2.385 1_545 S
O312 C290 1.234 . S
O313 Mn288 2.209 1_545 S
O313 Mn289 2.215 . S
O313 C290 1.283 . S
O314 Mn288 2.094 1_545 S
O314 C292 1.240 . S
O315 Mn289 2.117 . S
O315 C292 1.264 . S
C316 C309 1.403 . S
C316 C317 1.399 . S
C316 H322 0.929 . S
C317 C297 1.449 . S
C317 C316 1.399 . S
C317 H323 0.930 . S
H318 C298 0.931 . S
H319 C299 0.930 . S
H320 C307 0.931 . S
H321 C308 0.929 . S
H322 C316 0.929 . S
H323 C317 0.930 . S
Mn324 O329 2.095 . S
Mn324 O339 2.162 . S
Mn324 O340 2.297 . S
Mn324 O348 2.385 . S
Mn324 O349 2.209 . S
Mn324 O350 2.094 . S
Mn325 O330 2.121 . S
Mn325 N332 2.257 . S
Mn325 N341 2.282 . S
Mn325 O349 2.215 . S
Mn325 O351 2.117 . S
C326 O348 1.234 . S
C326 O349 1.283 . S
C327 O339 1.281 . S
C327 O340 1.236 . S
C328 O350 1.240 . S
C328 O351 1.264 . S
O329 Mn324 2.095 . S
O329 C338 1.250 . S
O330 Mn325 2.121 . S
O330 C338 1.258 . S
C331 N332 1.326 . S
C331 C335 1.460 . S
C331 H337 0.929 . S
N332 Mn325 2.257 . S
N332 C331 1.326 . S
N332 C336 1.362 . S
C333 C334 1.258 . S
C333 C336 1.431 . S
C333 C353 1.449 . S
C334 C333 1.258 . S
C334 C335 1.477 . S
C334 H354 0.931 . S
C335 C331 1.460 . S
C335 C334 1.477 . S
C335 H355 0.930 . S
C336 N332 1.362 . S
C336 C333 1.431 . S
C336 C346 1.476 . S
H337 C331 0.929 . S
C338 O329 1.250 . S
C338 O330 1.258 . S
O339 Mn324 2.162 . S
O339 C327 1.281 . S
O340 Mn324 2.297 . S
O340 C327 1.236 . S
N341 Mn325 2.282 . S
N341 C342 1.328 . S
N341 C346 1.318 . S
C342 N341 1.328 . S
C342 C343 1.457 . S
C342 H347 0.929 . S
C343 C342 1.457 . S
C343 C344 1.291 . S
C343 H356 0.931 . S
C344 C343 1.291 . S
C344 C345 1.373 . S
C344 H357 0.929 . S
C345 C344 1.373 . S
C345 C346 1.396 . S
C345 C352 1.403 . S
C346 C336 1.476 . S
C346 N341 1.318 . S
C346 C345 1.396 . S
H347 C342 0.929 . S
O348 Mn324 2.385 . S
O348 C326 1.234 . S
O349 Mn324 2.209 . S
O349 Mn325 2.215 . S
O349 C326 1.283 . S
O350 Mn324 2.094 . S
O350 C328 1.240 . S
O351 Mn325 2.117 . S
O351 C328 1.264 . S
C352 C345 1.403 . S
C352 C353 1.399 . S
C352 H358 0.929 . S
C353 C333 1.449 . S
C353 C352 1.399 . S
C353 H359 0.930 . S
H354 C334 0.931 . S
H355 C335 0.930 . S
H356 C343 0.931 . S
H357 C344 0.929 . S
H358 C352 0.929 . S
H359 C353 0.930 . S
Mn360 O365 2.110 . S
Mn360 O375 2.176 . S
Mn360 O376 2.316 . S
Mn360 O384 2.366 1_565 S
Mn360 O385 2.197 1_565 S
Mn360 O386 2.077 1_565 S
Mn361 O366 2.121 1_545 S
Mn361 N368 2.257 . S
Mn361 N377 2.282 . S
Mn361 O385 2.215 . S
Mn361 O387 2.117 . S
C362 O384 1.234 . S
C362 O385 1.283 . S
C363 O375 1.281 . S
C363 O376 1.236 . S
C364 O386 1.240 . S
C364 O387 1.264 . S
O365 Mn360 2.110 . S
O365 C374 1.250 . S
O366 Mn361 2.121 1_565 S
O366 C374 1.258 . S
C367 N368 1.326 . S
C367 C371 1.460 . S
C367 H373 0.937 . S
N368 Mn361 2.257 . S
N368 C367 1.326 . S
N368 C372 1.362 . S
C369 C370 1.258 . S
C369 C372 1.431 . S
C369 C389 1.449 . S
C370 C369 1.258 . S
C370 C371 1.477 . S
C370 H390 0.931 . S
C371 C367 1.460 . S
C371 C370 1.477 . S
C371 H391 0.930 . S
C372 N368 1.362 . S
C372 C369 1.431 . S
C372 C382 1.476 . S
H373 C367 0.937 . S
C374 O365 1.250 . S
C374 O366 1.258 . S
O375 Mn360 2.176 . S
O375 C363 1.281 . S
O376 Mn360 2.316 . S
O376 C363 1.236 . S
N377 Mn361 2.282 . S
N377 C378 1.328 . S
N377 C382 1.318 . S
C378 N377 1.328 . S
C378 C379 1.457 . S
C378 H383 0.929 . S
C379 C378 1.457 . S
C379 C380 1.291 . S
C379 H392 0.931 . S
C380 C379 1.291 . S
C380 C381 1.373 . S
C380 H393 0.929 . S
C381 C380 1.373 . S
C381 C382 1.396 . S
C381 C388 1.403 . S
C382 C372 1.476 . S
C382 N377 1.318 . S
C382 C381 1.396 . S
H383 C378 0.929 . S
O384 Mn360 2.366 1_545 S
O384 C362 1.234 . S
O385 Mn360 2.197 1_545 S
O385 Mn361 2.215 . S
O385 C362 1.283 . S
O386 Mn360 2.077 1_545 S
O386 C364 1.240 . S
O387 Mn361 2.117 . S
O387 C364 1.264 . S
C388 C381 1.403 . S
C388 C389 1.399 . S
C388 H394 0.929 . S
C389 C369 1.449 . S
C389 C388 1.399 . S
C389 H395 0.930 . S
H390 C370 0.931 . S
H391 C371 0.930 . S
H392 C379 0.931 . S
H393 C380 0.929 . S
H394 C388 0.929 . S
H395 C389 0.930 . S
Mn396 O401 2.095 . S
Mn396 O411 2.162 . S
Mn396 O412 2.297 . S
Mn396 O420 2.385 . S
Mn396 O421 2.209 1_554 S
Mn396 O422 2.094 . S
Mn397 O402 2.121 . S
Mn397 N404 2.257 . S
Mn397 N413 2.282 . S
Mn397 O421 2.215 . S
Mn397 O423 2.117 1_556 S
C398 O420 1.234 1_556 S
C398 O421 1.283 . S
C399 O411 1.281 . S
C399 O412 1.236 . S
C400 O422 1.240 . S
C400 O423 1.264 . S
O401 Mn396 2.095 . S
O401 C410 1.250 1_554 S
O402 Mn397 2.121 . S
O402 C410 1.258 . S
C403 N404 1.326 . S
C403 C407 1.460 . S
C403 H409 0.929 . S
N404 Mn397 2.257 . S
N404 C403 1.326 . S
N404 C408 1.362 . S
C405 C406 1.258 . S
C405 C408 1.431 . S
C405 C425 1.449 . S
C406 C405 1.258 . S
C406 C407 1.477 . S
C406 H426 0.931 . S
C407 C403 1.460 . S
C407 C406 1.477 . S
C407 H427 0.930 . S
C408 N404 1.362 . S
C408 C405 1.431 . S
C408 C418 1.476 . S
H409 C403 0.929 . S
C410 O401 1.250 1_556 S
C410 O402 1.258 . S
O411 Mn396 2.162 . S
O411 C399 1.281 . S
O412 Mn396 2.297 . S
O412 C399 1.236 . S
N413 Mn397 2.282 . S
N413 C414 1.328 . S
N413 C418 1.318 . S
C414 N413 1.328 . S
C414 C415 1.457 . S
C414 H419 0.929 . S
C415 C414 1.457 . S
C415 C416 1.291 . S
C415 H428 0.931 . S
C416 C415 1.291 . S
C416 C417 1.373 . S
C416 H429 0.929 . S
C417 C416 1.373 . S
C417 C418 1.396 . S
C417 C424 1.403 . S
C418 C408 1.476 . S
C418 N413 1.318 . S
C418 C417 1.396 . S
H419 C414 0.929 . S
O420 Mn396 2.385 . S
O420 C398 1.234 1_554 S
O421 Mn396 2.209 1_556 S
O421 Mn397 2.215 . S
O421 C398 1.283 . S
O422 Mn396 2.094 . S
O422 C400 1.240 . S
O423 Mn397 2.117 1_554 S
O423 C400 1.264 . S
C424 C417 1.403 . S
C424 C425 1.399 . S
C424 H430 0.929 . S
C425 C405 1.449 . S
C425 C424 1.399 . S
C425 H431 0.930 . S
H426 C406 0.931 . S
H427 C407 0.930 . S
H428 C415 0.931 . S
H429 C416 0.929 . S
H430 C424 0.929 . S
H431 C425 0.930 . S
Mn432 O437 2.095 1_554 S
Mn432 O447 2.162 1_554 S
Mn432 O448 2.297 1_554 S
Mn432 O456 2.385 . S
Mn432 O457 2.209 . S
Mn432 O458 2.094 . S
Mn433 O438 2.121 1_554 S
Mn433 N440 2.257 . S
Mn433 N449 2.282 . S
Mn433 O457 2.215 . S
Mn433 O459 2.117 . S
C434 O456 1.234 . S
C434 O457 1.283 . S
C435 O447 1.281 . S
C435 O448 1.236 . S
C436 O458 1.240 . S
C436 O459 1.264 . S
O437 Mn432 2.095 1_556 S
O437 C446 1.250 . S
O438 Mn433 2.121 1_556 S
O438 C446 1.258 . S
C439 N440 1.326 . S
C439 C443 1.460 . S
C439 H445 0.929 . S
N440 Mn433 2.257 . S
N440 C439 1.326 . S
N440 C444 1.362 . S
C441 C442 1.258 . S
C441 C444 1.431 . S
C441 C461 1.449 . S
C442 C441 1.258 . S
C442 C443 1.477 . S
C442 H462 0.931 . S
C443 C439 1.460 . S
C443 C442 1.477 . S
C443 H463 0.930 . S
C444 N440 1.362 . S
C444 C441 1.431 . S
C444 C454 1.476 . S
H445 C439 0.929 . S
C446 O437 1.250 . S
C446 O438 1.258 . S
O447 Mn432 2.162 1_556 S
O447 C435 1.281 . S
O448 Mn432 2.297 1_556 S
O448 C435 1.236 . S
N449 Mn433 2.282 . S
N449 C450 1.328 . S
N449 C454 1.318 . S
C450 N449 1.328 . S
C450 C451 1.457 . S
C450 H455 0.929 . S
C451 C450 1.457 . S
C451 C452 1.291 . S
C451 H464 0.931 . S
C452 C451 1.291 . S
C452 C453 1.373 . S
C452 H465 0.929 . S
C453 C452 1.373 . S
C453 C454 1.396 . S
C453 C460 1.403 . S
C454 C444 1.476 . S
C454 N449 1.318 . S
C454 C453 1.396 . S
H455 C450 0.929 . S
O456 Mn432 2.385 . S
O456 C434 1.234 . S
O457 Mn432 2.209 . S
O457 Mn433 2.215 . S
O457 C434 1.283 . S
O458 Mn432 2.094 . S
O458 C436 1.240 . S
O459 Mn433 2.117 . S
O459 C436 1.264 . S
C460 C453 1.403 . S
C460 C461 1.399 . S
C460 H466 0.929 . S
C461 C441 1.449 . S
C461 C460 1.399 . S
C461 H467 0.930 . S
H462 C442 0.931 . S
H463 C443 0.930 . S
H464 C451 0.931 . S
H465 C452 0.929 . S
H466 C460 0.929 . S
H467 C461 0.930 . S
Mn468 O473 2.095 . S
Mn468 O483 2.162 . S
Mn468 O484 2.297 . S
Mn468 O492 2.385 1_556 S
Mn468 O493 2.209 1_556 S
Mn468 O494 2.094 1_556 S
Mn469 O474 2.121 1_554 S
Mn469 N476 2.257 . S
Mn469 N485 2.282 . S
Mn469 O493 2.215 . S
Mn469 O495 2.117 . S
C470 O492 1.234 . S
C470 O493 1.283 . S
C471 O483 1.281 . S
C471 O484 1.236 . S
C472 O494 1.240 . S
C472 O495 1.264 . S
O473 Mn468 2.095 . S
O473 C482 1.250 . S
O474 Mn469 2.121 1_556 S
O474 C482 1.258 . S
C475 N476 1.326 . S
C475 C479 1.460 . S
C475 H481 0.921 1_554 S
N476 Mn469 2.257 . S
N476 C475 1.326 . S
N476 C480 1.362 . S
C477 C478 1.258 . S
C477 C480 1.431 . S
C477 C497 1.449 . S
C478 C477 1.258 . S
C478 C479 1.477 . S
C478 H498 0.931 . S
C479 C475 1.460 . S
C479 C478 1.477 . S
C479 H499 0.930 . S
C480 N476 1.362 . S
C480 C477 1.431 . S
C480 C490 1.476 . S
H481 C475 0.921 1_556 S
C482 O473 1.250 . S
C482 O474 1.258 . S
O483 Mn468 2.162 . S
O483 C471 1.281 . S
O484 Mn468 2.297 . S
O484 C471 1.236 . S
N485 Mn469 2.282 . S
N485 C486 1.328 . S
N485 C490 1.318 . S
C486 N485 1.328 . S
C486 C487 1.457 . S
C486 H491 0.929 . S
C487 C486 1.457 . S
C487 C488 1.291 . S
C487 H500 0.931 . S
C488 C487 1.291 . S
C488 C489 1.373 . S
C488 H501 0.929 . S
C489 C488 1.373 . S
C489 C490 1.396 . S
C489 C496 1.403 . S
C490 C480 1.476 . S
C490 N485 1.318 . S
C490 C489 1.396 . S
H491 C486 0.929 . S
O492 Mn468 2.385 1_554 S
O492 C470 1.234 . S
O493 Mn468 2.209 1_554 S
O493 Mn469 2.215 . S
O493 C470 1.283 . S
O494 Mn468 2.094 1_554 S
O494 C472 1.240 . S
O495 Mn469 2.117 . S
O495 C472 1.264 . S
C496 C489 1.403 . S
C496 C497 1.399 . S
C496 H502 0.929 . S
C497 C477 1.449 . S
C497 C496 1.399 . S
C497 H503 0.930 . S
H498 C478 0.931 . S
H499 C479 0.930 . S
H500 C487 0.931 . S
H501 C488 0.929 . S
H502 C496 0.929 . S
H503 C497 0.930 . S
Mn504 O509 2.095 . S
Mn504 O519 2.162 . S
Mn504 O520 2.297 . S
Mn504 O528 2.385 . S
Mn504 O529 2.209 . S
Mn504 O530 2.094 . S
Mn505 O510 2.121 . S
Mn505 N512 2.257 . S
Mn505 N521 2.282 . S
Mn505 O529 2.215 . S
Mn505 O531 2.117 . S
C506 O528 1.234 . S
C506 O529 1.283 . S
C507 O519 1.281 . S
C507 O520 1.236 . S
C508 O530 1.240 . S
C508 O531 1.264 . S
O509 Mn504 2.095 . S
O509 C518 1.250 . S
O510 Mn505 2.121 . S
O510 C518 1.258 . S
C511 N512 1.326 . S
C511 C515 1.460 . S
C511 H517 0.929 . S
N512 Mn505 2.257 . S
N512 C511 1.326 . S
N512 C516 1.362 . S
C513 C514 1.258 . S
C513 C516 1.431 . S
C513 C533 1.449 . S
C514 C513 1.258 . S
C514 C515 1.477 . S
C514 H534 0.931 . S
C515 C511 1.460 . S
C515 C514 1.477 . S
C515 H535 0.930 . S
C516 N512 1.362 . S
C516 C513 1.431 . S
C516 C526 1.476 . S
H517 C511 0.929 . S
C518 O509 1.250 . S
C518 O510 1.258 . S
O519 Mn504 2.162 . S
O519 C507 1.281 . S
O520 Mn504 2.297 . S
O520 C507 1.236 . S
N521 Mn505 2.282 . S
N521 C522 1.328 . S
N521 C526 1.318 . S
C522 N521 1.328 . S
C522 C523 1.457 . S
C522 H527 0.929 . S
C523 C522 1.457 . S
C523 C524 1.291 . S
C523 H536 0.931 . S
C524 C523 1.291 . S
C524 C525 1.373 . S
C524 H537 0.929 . S
C525 C524 1.373 . S
C525 C526 1.396 . S
C525 C532 1.403 . S
C526 C516 1.476 . S
C526 N521 1.318 . S
C526 C525 1.396 . S
H527 C522 0.929 . S
O528 Mn504 2.385 . S
O528 C506 1.234 . S
O529 Mn504 2.209 . S
O529 Mn505 2.215 . S
O529 C506 1.283 . S
O530 Mn504 2.094 . S
O530 C508 1.240 . S
O531 Mn505 2.117 . S
O531 C508 1.264 . S
C532 C525 1.403 . S
C532 C533 1.399 . S
C532 H538 0.929 . S
C533 C513 1.449 . S
C533 C532 1.399 . S
C533 H539 0.930 . S
H534 C514 0.931 . S
H535 C515 0.930 . S
H536 C523 0.931 . S
H537 C524 0.929 . S
H538 C532 0.929 . S
H539 C533 0.930 . S
Mn540 O545 2.095 . S
Mn540 O555 2.162 . S
Mn540 O556 2.297 . S
Mn540 O564 2.385 . S
Mn540 O565 2.209 . S
Mn540 O566 2.094 . S
Mn541 O546 2.121 . S
Mn541 N548 2.257 . S
Mn541 N557 2.282 . S
Mn541 O565 2.215 . S
Mn541 O567 2.117 . S
C542 O564 1.234 . S
C542 O565 1.283 . S
C543 O555 1.281 . S
C543 O556 1.236 . S
C544 O566 1.240 . S
C544 O567 1.264 . S
O545 Mn540 2.095 . S
O545 C554 1.250 . S
O546 Mn541 2.121 . S
O546 C554 1.258 . S
C547 N548 1.326 . S
C547 C551 1.460 . S
C547 H553 0.929 . S
N548 Mn541 2.257 . S
N548 C547 1.326 . S
N548 C552 1.362 . S
C549 C550 1.258 . S
C549 C552 1.431 . S
C549 C569 1.449 . S
C550 C549 1.258 . S
C550 C551 1.477 . S
C550 H570 0.931 . S
C551 C547 1.460 . S
C551 C550 1.477 . S
C551 H571 0.930 . S
C552 N548 1.362 . S
C552 C549 1.431 . S
C552 C562 1.476 . S
H553 C547 0.929 . S
C554 O545 1.250 . S
C554 O546 1.258 . S
O555 Mn540 2.162 . S
O555 C543 1.281 . S
O556 Mn540 2.297 . S
O556 C543 1.236 . S
N557 Mn541 2.282 . S
N557 C558 1.328 . S
N557 C562 1.318 . S
C558 N557 1.328 . S
C558 C559 1.457 . S
C558 H563 0.929 . S
C559 C558 1.457 . S
C559 C560 1.291 . S
C559 H572 0.931 . S
C560 C559 1.291 . S
C560 C561 1.373 . S
C560 H573 0.929 . S
C561 C560 1.373 . S
C561 C562 1.396 . S
C561 C568 1.403 . S
C562 C552 1.476 . S
C562 N557 1.318 . S
C562 C561 1.396 . S
H563 C558 0.929 . S
O564 Mn540 2.385 . S
O564 C542 1.234 . S
O565 Mn540 2.209 . S
O565 Mn541 2.215 . S
O565 C542 1.283 . S
O566 Mn540 2.094 . S
O566 C544 1.240 . S
O567 Mn541 2.117 . S
O567 C544 1.264 . S
C568 C561 1.403 . S
C568 C569 1.399 . S
C568 H574 0.929 . S
C569 C549 1.449 . S
C569 C568 1.399 . S
C569 H575 0.930 . S
H570 C550 0.931 . S
H571 C551 0.930 . S
H572 C559 0.931 . S
H573 C560 0.929 . S
H574 C568 0.929 . S
H575 C569 0.930 . S
Mn576 O581 2.095 . S
Mn576 O591 2.162 . S
Mn576 O592 2.297 . S
Mn576 O600 2.385 . S
Mn576 O601 2.209 1_545 S
Mn576 O602 2.094 . S
Mn577 O582 2.121 . S
Mn577 N584 2.257 . S
Mn577 N593 2.282 . S
Mn577 O601 2.215 . S
Mn577 O603 2.117 1_565 S
C578 O600 1.234 1_565 S
C578 O601 1.283 . S
C579 O591 1.281 . S
C579 O592 1.236 . S
C580 O602 1.240 . S
C580 O603 1.264 . S
O581 Mn576 2.095 . S
O581 C590 1.250 1_545 S
O582 Mn577 2.121 . S
O582 C590 1.258 . S
C583 N584 1.326 . S
C583 C587 1.460 . S
C583 H589 0.929 . S
N584 Mn577 2.257 . S
N584 C583 1.326 . S
N584 C588 1.362 . S
C585 C586 1.258 . S
C585 C588 1.431 . S
C585 C605 1.449 . S
C586 C585 1.258 . S
C586 C587 1.477 . S
C586 H606 0.931 . S
C587 C583 1.460 . S
C587 C586 1.477 . S
C587 H607 0.930 . S
C588 N584 1.362 . S
C588 C585 1.431 . S
C588 C598 1.476 . S
H589 C583 0.929 . S
C590 O581 1.250 1_565 S
C590 O582 1.258 . S
O591 Mn576 2.162 . S
O591 C579 1.281 . S
O592 Mn576 2.297 . S
O592 C579 1.236 . S
N593 Mn577 2.282 . S
N593 C594 1.328 . S
N593 C598 1.318 . S
C594 N593 1.328 . S
C594 C595 1.457 . S
C594 H599 0.929 . S
C595 C594 1.457 . S
C595 C596 1.291 . S
C595 H608 0.931 . S
C596 C595 1.291 . S
C596 C597 1.373 . S
C596 H609 0.929 . S
C597 C596 1.373 . S
C597 C598 1.396 . S
C597 C604 1.403 . S
C598 C588 1.476 . S
C598 N593 1.318 . S
C598 C597 1.396 . S
H599 C594 0.929 . S
O600 Mn576 2.385 . S
O600 C578 1.234 1_545 S
O601 Mn576 2.209 1_565 S
O601 Mn577 2.215 . S
O601 C578 1.283 . S
O602 Mn576 2.094 . S
O602 C580 1.240 . S
O603 Mn577 2.117 1_545 S
O603 C580 1.264 . S
C604 C597 1.403 . S
C604 C605 1.399 . S
C604 H610 0.929 . S
C605 C585 1.449 . S
C605 C604 1.399 . S
C605 H611 0.930 . S
H606 C586 0.931 . S
H607 C587 0.930 . S
H608 C595 0.931 . S
H609 C596 0.929 . S
H610 C604 0.929 . S
H611 C605 0.930 . S
Mn612 O617 2.095 . S
Mn612 O627 2.162 . S
Mn612 O628 2.297 . S
Mn612 O636 2.385 . S
Mn612 O637 2.209 . S
Mn612 O638 2.094 . S
Mn613 O618 2.121 . S
Mn613 N620 2.257 . S
Mn613 N629 2.282 . S
Mn613 O637 2.215 . S
Mn613 O639 2.117 . S
C614 O636 1.234 . S
C614 O637 1.283 . S
C615 O627 1.281 . S
C615 O628 1.236 . S
C616 O638 1.240 . S
C616 O639 1.264 . S
O617 Mn612 2.095 . S
O617 C626 1.250 . S
O618 Mn613 2.121 . S
O618 C626 1.258 . S
C619 N620 1.326 . S
C619 C623 1.460 . S
C619 H625 0.929 . S
N620 Mn613 2.257 . S
N620 C619 1.326 . S
N620 C624 1.362 . S
C621 C622 1.258 . S
C621 C624 1.431 . S
C621 C641 1.449 . S
C622 C621 1.258 . S
C622 C623 1.477 . S
C622 H642 0.931 . S
C623 C619 1.460 . S
C623 C622 1.477 . S
C623 H643 0.930 . S
C624 N620 1.362 . S
C624 C621 1.431 . S
C624 C634 1.476 . S
H625 C619 0.929 . S
C626 O617 1.250 . S
C626 O618 1.258 . S
O627 Mn612 2.162 . S
O627 C615 1.281 . S
O628 Mn612 2.297 . S
O628 C615 1.236 . S
N629 Mn613 2.282 . S
N629 C630 1.328 . S
N629 C634 1.318 . S
C630 N629 1.328 . S
C630 C631 1.457 . S
C630 H635 0.929 . S
C631 C630 1.457 . S
C631 C632 1.291 . S
C631 H644 0.931 . S
C632 C631 1.291 . S
C632 C633 1.373 . S
C632 H645 0.929 . S
C633 C632 1.373 . S
C633 C634 1.396 . S
C633 C640 1.403 . S
C634 C624 1.476 . S
C634 N629 1.318 . S
C634 C633 1.396 . S
H635 C630 0.929 . S
O636 Mn612 2.385 . S
O636 C614 1.234 . S
O637 Mn612 2.209 . S
O637 Mn613 2.215 . S
O637 C614 1.283 . S
O638 Mn612 2.094 . S
O638 C616 1.240 . S
O639 Mn613 2.117 . S
O639 C616 1.264 . S
C640 C633 1.403 . S
C640 C641 1.399 . S
C640 H646 0.929 . S
C641 C621 1.449 . S
C641 C640 1.399 . S
C641 H647 0.930 . S
H642 C622 0.931 . S
H643 C623 0.930 . S
H644 C631 0.931 . S
H645 C632 0.929 . S
H646 C640 0.929 . S
H647 C641 0.930 . S
Mn648 O653 2.095 . S
Mn648 O663 2.162 . S
Mn648 O664 2.297 . S
Mn648 O672 2.385 . S
Mn648 O673 2.209 . S
Mn648 O674 2.094 . S
Mn649 O654 2.121 . S
Mn649 N656 2.257 . S
Mn649 N665 2.282 . S
Mn649 O673 2.215 . S
Mn649 O675 2.117 . S
C650 O672 1.234 . S
C650 O673 1.283 . S
C651 O663 1.281 . S
C651 O664 1.236 . S
C652 O674 1.240 . S
C652 O675 1.264 . S
O653 Mn648 2.095 . S
O653 C662 1.250 . S
O654 Mn649 2.121 . S
O654 C662 1.258 . S
C655 N656 1.326 . S
C655 C659 1.460 . S
C655 H661 0.929 . S
N656 Mn649 2.257 . S
N656 C655 1.326 . S
N656 C660 1.362 . S
C657 C658 1.258 . S
C657 C660 1.431 . S
C657 C677 1.449 . S
C658 C657 1.258 . S
C658 C659 1.477 . S
C658 H678 0.931 . S
C659 C655 1.460 . S
C659 C658 1.477 . S
C659 H679 0.930 . S
C660 N656 1.362 . S
C660 C657 1.431 . S
C660 C670 1.476 . S
H661 C655 0.929 . S
C662 O653 1.250 . S
C662 O654 1.258 . S
O663 Mn648 2.162 . S
O663 C651 1.281 . S
O664 Mn648 2.297 . S
O664 C651 1.236 . S
N665 Mn649 2.282 . S
N665 C666 1.328 . S
N665 C670 1.318 . S
C666 N665 1.328 . S
C666 C667 1.457 . S
C666 H671 0.929 . S
C667 C666 1.457 . S
C667 C668 1.291 . S
C667 H680 0.931 . S
C668 C667 1.291 . S
C668 C669 1.373 . S
C668 H681 0.929 . S
C669 C668 1.373 . S
C669 C670 1.396 . S
C669 C676 1.403 . S
C670 C660 1.476 . S
C670 N665 1.318 . S
C670 C669 1.396 . S
H671 C666 0.929 . S
O672 Mn648 2.385 . S
O672 C650 1.234 . S
O673 Mn648 2.209 . S
O673 Mn649 2.215 . S
O673 C650 1.283 . S
O674 Mn648 2.094 . S
O674 C652 1.240 . S
O675 Mn649 2.117 . S
O675 C652 1.264 . S
C676 C669 1.403 . S
C676 C677 1.399 . S
C676 H682 0.929 . S
C677 C657 1.449 . S
C677 C676 1.399 . S
C677 H683 0.930 . S
H678 C658 0.931 . S
H679 C659 0.930 . S
H680 C667 0.931 . S
H681 C668 0.929 . S
H682 C676 0.929 . S
H683 C677 0.930 . S
Mn684 O689 2.095 1_545 S
Mn684 O699 2.162 . S
Mn684 O700 2.297 . S
Mn684 O708 2.385 . S
Mn684 O709 2.209 1_545 S
Mn684 O710 2.094 . S
Mn685 O690 2.121 . S
Mn685 N692 2.257 . S
Mn685 N701 2.282 . S
Mn685 O709 2.215 . S
Mn685 O711 2.117 . S
C686 O708 1.234 1_565 S
C686 O709 1.283 . S
C687 O699 1.281 . S
C687 O700 1.236 . S
C688 O710 1.240 . S
C688 O711 1.264 1_545 S
O689 Mn684 2.095 1_565 S
O689 C698 1.250 . S
O690 Mn685 2.121 . S
O690 C698 1.258 . S
C691 N692 1.326 . S
C691 C695 1.460 . S
C691 H697 0.929 . S
N692 Mn685 2.257 . S
N692 C691 1.326 . S
N692 C696 1.362 . S
C693 C694 1.258 . S
C693 C696 1.431 . S
C693 C713 1.449 . S
C694 C693 1.258 . S
C694 C695 1.477 . S
C694 H714 0.931 . S
C695 C691 1.460 . S
C695 C694 1.477 . S
C695 H715 0.930 . S
C696 N692 1.362 . S
C696 C693 1.431 . S
C696 C706 1.476 . S
H697 C691 0.929 . S
C698 O689 1.250 . S
C698 O690 1.258 . S
O699 Mn684 2.162 . S
O699 C687 1.281 . S
O700 Mn684 2.297 . S
O700 C687 1.236 . S
N701 Mn685 2.282 . S
N701 C702 1.328 . S
N701 C706 1.318 . S
C702 N701 1.328 . S
C702 C703 1.457 . S
C702 H707 0.929 . S
C703 C702 1.457 . S
C703 C704 1.291 . S
C703 H716 0.931 . S
C704 C703 1.291 . S
C704 C705 1.373 . S
C704 H717 0.929 . S
C705 C704 1.373 . S
C705 C706 1.396 . S
C705 C712 1.403 . S
C706 C696 1.476 . S
C706 N701 1.318 . S
C706 C705 1.396 . S
H707 C702 0.929 . S
O708 Mn684 2.385 . S
O708 C686 1.234 1_545 S
O709 Mn684 2.209 1_565 S
O709 Mn685 2.215 . S
O709 C686 1.283 . S
O710 Mn684 2.094 . S
O710 C688 1.240 . S
O711 Mn685 2.117 . S
O711 C688 1.264 1_565 S
C712 C705 1.403 . S
C712 C713 1.399 . S
C712 H718 0.929 . S
C713 C693 1.449 . S
C713 C712 1.399 . S
C713 H719 0.930 . S
H714 C694 0.931 . S
H715 C695 0.930 . S
H716 C703 0.931 . S
H717 C704 0.929 . S
H718 C712 0.929 . S
H719 C713 0.930 . S
Mn720 O725 2.091 1_554 S
Mn720 O735 2.162 . S
Mn720 O736 2.297 . S
Mn720 O744 2.385 . S
Mn720 O745 2.209 1_554 S
Mn720 O746 2.094 . S
Mn721 O726 2.121 . S
Mn721 N728 2.257 . S
Mn721 N737 2.282 . S
Mn721 O745 2.215 . S
Mn721 O747 2.117 1_556 S
C722 O744 1.234 1_556 S
C722 O745 1.283 . S
C723 O735 1.281 . S
C723 O736 1.236 . S
C724 O746 1.240 . S
C724 O747 1.264 . S
O725 Mn720 2.091 1_556 S
O725 C734 1.260 . S
O726 Mn721 2.121 . S
O726 C734 1.258 . S
C727 N728 1.326 . S
C727 C731 1.460 . S
C727 H733 0.929 . S
N728 Mn721 2.257 . S
N728 C727 1.326 . S
N728 C732 1.362 . S
C729 C730 1.258 . S
C729 C732 1.431 . S
C729 C749 1.449 . S
C730 C729 1.258 . S
C730 C731 1.477 . S
C730 H750 0.931 . S
C731 C727 1.460 . S
C731 C730 1.477 . S
C731 H751 0.930 . S
C732 N728 1.362 . S
C732 C729 1.431 . S
C732 C742 1.476 . S
H733 C727 0.929 . S
C734 O725 1.260 . S
C734 O726 1.258 . S
O735 Mn720 2.162 . S
O735 C723 1.281 . S
O736 Mn720 2.297 . S
O736 C723 1.236 . S
N737 Mn721 2.282 . S
N737 C738 1.328 . S
N737 C742 1.318 . S
C738 N737 1.328 . S
C738 C739 1.457 . S
C738 H743 0.929 . S
C739 C738 1.457 . S
C739 C740 1.291 . S
C739 H752 0.931 . S
C740 C739 1.291 . S
C740 C741 1.373 . S
C740 H753 0.929 . S
C741 C740 1.373 . S
C741 C742 1.396 . S
C741 C748 1.403 . S
C742 C732 1.476 . S
C742 N737 1.318 . S
C742 C741 1.396 . S
H743 C738 0.929 . S
O744 Mn720 2.385 . S
O744 C722 1.234 1_554 S
O745 Mn720 2.209 1_556 S
O745 Mn721 2.215 . S
O745 C722 1.283 . S
O746 Mn720 2.094 . S
O746 C724 1.240 . S
O747 Mn721 2.117 1_554 S
O747 C724 1.264 . S
C748 C741 1.403 . S
C748 C749 1.399 . S
C748 H754 0.929 . S
C749 C729 1.449 . S
C749 C748 1.399 . S
C749 H755 0.930 . S
H750 C730 0.931 . S
H751 C731 0.930 . S
H752 C739 0.931 . S
H753 C740 0.929 . S
H754 C748 0.929 . S
H755 C749 0.930 . S
Mn756 O761 2.095 . S
Mn756 O771 2.162 . S
Mn756 O772 2.297 . S
Mn756 O780 2.385 . S
Mn756 O781 2.209 . S
Mn756 O782 2.094 . S
Mn757 O762 2.121 . S
Mn757 N764 2.257 . S
Mn757 N773 2.282 . S
Mn757 O781 2.215 . S
Mn757 O783 2.117 . S
C758 O780 1.234 . S
C758 O781 1.283 . S
C759 O771 1.281 . S
C759 O772 1.236 . S
C760 O782 1.240 . S
C760 O783 1.264 . S
O761 Mn756 2.095 . S
O761 C770 1.250 . S
O762 Mn757 2.121 . S
O762 C770 1.258 . S
C763 N764 1.326 . S
C763 C767 1.460 . S
C763 H769 0.929 . S
N764 Mn757 2.257 . S
N764 C763 1.326 . S
N764 C768 1.362 . S
C765 C766 1.258 . S
C765 C768 1.431 . S
C765 C785 1.449 . S
C766 C765 1.258 . S
C766 C767 1.477 . S
C766 H786 0.931 . S
C767 C763 1.460 . S
C767 C766 1.477 . S
C767 H787 0.930 . S
C768 N764 1.362 . S
C768 C765 1.431 . S
C768 C778 1.476 . S
H769 C763 0.929 . S
C770 O761 1.250 . S
C770 O762 1.258 . S
O771 Mn756 2.162 . S
O771 C759 1.281 . S
O772 Mn756 2.297 . S
O772 C759 1.236 . S
N773 Mn757 2.282 . S
N773 C774 1.328 . S
N773 C778 1.318 . S
C774 N773 1.328 . S
C774 C775 1.457 . S
C774 H779 0.929 . S
C775 C774 1.457 . S
C775 C776 1.291 . S
C775 H788 0.931 . S
C776 C775 1.291 . S
C776 C777 1.373 . S
C776 H789 0.929 . S
C777 C776 1.373 . S
C777 C778 1.396 . S
C777 C784 1.403 . S
C778 C768 1.476 . S
C778 N773 1.318 . S
C778 C777 1.396 . S
H779 C774 0.929 . S
O780 Mn756 2.385 . S
O780 C758 1.234 . S
O781 Mn756 2.209 . S
O781 Mn757 2.215 . S
O781 C758 1.283 . S
O782 Mn756 2.094 . S
O782 C760 1.240 . S
O783 Mn757 2.117 . S
O783 C760 1.264 . S
C784 C777 1.403 . S
C784 C785 1.399 . S
C784 H790 0.929 . S
C785 C765 1.449 . S
C785 C784 1.399 . S
C785 H791 0.930 . S
H786 C766 0.931 . S
H787 C767 0.930 . S
H788 C775 0.931 . S
H789 C776 0.929 . S
H790 C784 0.929 . S
H791 C785 0.930 . S
Mn792 O797 2.095 . S
Mn792 O807 2.162 . S
Mn792 O808 2.297 . S
Mn792 O816 2.385 . S
Mn792 O817 2.209 . S
Mn792 O818 2.094 . S
Mn793 O798 2.121 . S
Mn793 N800 2.257 . S
Mn793 N809 2.282 . S
Mn793 O817 2.215 . S
Mn793 O819 2.117 . S
C794 O816 1.234 . S
C794 O817 1.283 . S
C795 O807 1.281 . S
C795 O808 1.236 . S
C796 O818 1.240 . S
C796 O819 1.264 . S
O797 Mn792 2.095 . S
O797 C806 1.250 . S
O798 Mn793 2.121 . S
O798 C806 1.258 . S
C799 N800 1.326 . S
C799 C803 1.460 . S
C799 H805 0.929 . S
N800 Mn793 2.257 . S
N800 C799 1.326 . S
N800 C804 1.362 . S
C801 C802 1.258 . S
C801 C804 1.431 . S
C801 C821 1.449 . S
C802 C801 1.258 . S
C802 C803 1.477 . S
C802 H822 0.931 . S
C803 C799 1.460 . S
C803 C802 1.477 . S
C803 H823 0.930 . S
C804 N800 1.362 . S
C804 C801 1.431 . S
C804 C814 1.476 . S
H805 C799 0.929 . S
C806 O797 1.250 . S
C806 O798 1.258 . S
O807 Mn792 2.162 . S
O807 C795 1.281 . S
O808 Mn792 2.297 . S
O808 C795 1.236 . S
N809 Mn793 2.282 . S
N809 C810 1.328 . S
N809 C814 1.318 . S
C810 N809 1.328 . S
C810 C811 1.457 . S
C810 H815 0.929 . S
C811 C810 1.457 . S
C811 C812 1.291 . S
C811 H824 0.931 . S
C812 C811 1.291 . S
C812 C813 1.373 . S
C812 H825 0.929 . S
C813 C812 1.373 . S
C813 C814 1.396 . S
C813 C820 1.403 . S
C814 C804 1.476 . S
C814 N809 1.318 . S
C814 C813 1.396 . S
H815 C810 0.929 . S
O816 Mn792 2.385 . S
O816 C794 1.234 . S
O817 Mn792 2.209 . S
O817 Mn793 2.215 . S
O817 C794 1.283 . S
O818 Mn792 2.094 . S
O818 C796 1.240 . S
O819 Mn793 2.117 . S
O819 C796 1.264 . S
C820 C813 1.403 . S
C820 C821 1.399 . S
C820 H826 0.929 . S
C821 C801 1.449 . S
C821 C820 1.399 . S
C821 H827 0.930 . S
H822 C802 0.931 . S
H823 C803 0.930 . S
H824 C811 0.931 . S
H825 C812 0.929 . S
H826 C820 0.929 . S
H827 C821 0.930 . S
Mn828 O833 2.095 . S
Mn828 O843 2.162 . S
Mn828 O844 2.297 . S
Mn828 O852 2.385 . S
Mn828 O853 2.209 . S
Mn828 O854 2.094 . S
Mn829 O834 2.121 . S
Mn829 N836 2.257 . S
Mn829 N845 2.282 . S
Mn829 O853 2.215 . S
Mn829 O855 2.117 . S
C830 O852 1.234 . S
C830 O853 1.283 . S
C831 O843 1.281 . S
C831 O844 1.236 . S
C832 O854 1.240 . S
C832 O855 1.264 . S
O833 Mn828 2.095 . S
O833 C842 1.250 . S
O834 Mn829 2.121 . S
O834 C842 1.258 . S
C835 N836 1.326 . S
C835 C839 1.460 . S
C835 H841 0.929 . S
N836 Mn829 2.257 . S
N836 C835 1.326 . S
N836 C840 1.362 . S
C837 C838 1.258 . S
C837 C840 1.431 . S
C837 C857 1.449 . S
C838 C837 1.258 . S
C838 C839 1.477 . S
C838 H858 0.931 . S
C839 C835 1.460 . S
C839 C838 1.477 . S
C839 H859 0.930 . S
C840 N836 1.362 . S
C840 C837 1.431 . S
C840 C850 1.476 . S
H841 C835 0.929 . S
C842 O833 1.250 . S
C842 O834 1.258 . S
O843 Mn828 2.162 . S
O843 C831 1.281 . S
O844 Mn828 2.297 . S
O844 C831 1.236 . S
N845 Mn829 2.282 . S
N845 C846 1.328 . S
N845 C850 1.318 . S
C846 N845 1.328 . S
C846 C847 1.457 . S
C846 H851 0.929 . S
C847 C846 1.457 . S
C847 C848 1.291 . S
C847 H860 0.931 . S
C848 C847 1.291 . S
C848 C849 1.373 . S
C848 H861 0.929 . S
C849 C848 1.373 . S
C849 C850 1.396 . S
C849 C856 1.403 . S
C850 C840 1.476 . S
C850 N845 1.318 . S
C850 C849 1.396 . S
H851 C846 0.929 . S
O852 Mn828 2.385 . S
O852 C830 1.234 . S
O853 Mn828 2.209 . S
O853 Mn829 2.215 . S
O853 C830 1.283 . S
O854 Mn828 2.094 . S
O854 C832 1.240 . S
O855 Mn829 2.117 . S
O855 C832 1.264 . S
C856 C849 1.403 . S
C856 C857 1.399 . S
C856 H862 0.929 . S
C857 C837 1.449 . S
C857 C856 1.399 . S
C857 H863 0.930 . S
H858 C838 0.931 . S
H859 C839 0.930 . S
H860 C847 0.931 . S
H861 C848 0.929 . S
H862 C856 0.929 . S
H863 C857 0.930 . S
Fe864 O866 1.918 . S
Fe864 O869 1.997 . S
Fe864 O870 2.002 . S
Fe864 O875 1.976 . S
Fe864 O878 1.996 . S
Fe865 O866 1.918 . S
Fe865 O873 1.997 . S
Fe865 O876 1.996 . S
Fe865 O880 1.976 . S
Fe865 O883 2.002 . S
O866 Fe864 1.918 . S
O866 Fe865 1.918 . S
O866 Fe867 1.918 . S
Fe867 O866 1.918 . S
Fe867 O868 2.002 . S
Fe867 O877 1.976 . S
Fe867 O881 1.996 . S
Fe867 O884 1.997 . S
O868 Fe867 2.002 . S
O868 C885 1.295 . S
O869 Fe864 1.997 . S
O869 C885 1.235 . S
O870 Fe864 2.002 . S
O870 C871 1.295 . S
C871 O870 1.295 . S
C871 O873 1.235 . S
C872 O877 1.287 . S
C872 O878 1.255 . S
O873 Fe865 1.997 . S
O873 C871 1.235 . S
C874 O880 1.287 . S
C874 O881 1.255 . S
O875 Fe864 1.976 . S
O875 C882 1.287 . S
O876 Fe865 1.996 . S
O876 C882 1.255 . S
O877 Fe867 1.976 . S
O877 C872 1.287 . S
O878 Fe864 1.996 . S
O878 C872 1.255 . S
C879 O883 1.295 . S
C879 O884 1.235 . S
O880 Fe865 1.976 . S
O880 C874 1.287 . S
O881 Fe867 1.996 . S
O881 C874 1.255 . S
C882 O875 1.287 . S
C882 O876 1.255 . S
O883 Fe865 2.002 . S
O883 C879 1.295 . S
O884 Fe867 1.997 . S
O884 C879 1.235 . S
C885 O868 1.295 . S
C885 O869 1.235 . S
Fe886 O888 1.918 . S
Fe886 O891 1.997 . S
Fe886 O892 2.002 . S
Fe886 O897 1.976 . S
Fe886 O900 1.996 . S
Fe887 O888 1.918 . S
Fe887 O895 1.997 . S
Fe887 O898 1.996 . S
Fe887 O902 1.976 . S
Fe887 O905 2.002 . S
O888 Fe886 1.918 . S
O888 Fe887 1.918 . S
O888 Fe889 1.918 . S
Fe889 O888 1.918 . S
Fe889 O890 2.002 . S
Fe889 O899 1.976 . S
Fe889 O903 1.996 . S
Fe889 O906 1.997 . S
O890 Fe889 2.002 . S
O890 C907 1.295 . S
O891 Fe886 1.997 . S
O891 C907 1.235 . S
O892 Fe886 2.002 . S
O892 C893 1.295 . S
C893 O892 1.295 . S
C893 O895 1.235 . S
C894 O899 1.287 . S
C894 O900 1.255 . S
O895 Fe887 1.997 . S
O895 C893 1.235 . S
C896 O902 1.287 . S
C896 O903 1.255 . S
O897 Fe886 1.976 . S
O897 C904 1.287 . S
O898 Fe887 1.996 . S
O898 C904 1.255 . S
O899 Fe889 1.976 . S
O899 C894 1.287 . S
O900 Fe886 1.996 . S
O900 C894 1.255 . S
C901 O905 1.295 . S
C901 O906 1.235 . S
O902 Fe887 1.976 . S
O902 C896 1.287 . S
O903 Fe889 1.996 . S
O903 C896 1.255 . S
C904 O897 1.287 . S
C904 O898 1.255 . S
O905 Fe887 2.002 . S
O905 C901 1.295 . S
O906 Fe889 1.997 . S
O906 C901 1.235 . S
C907 O890 1.295 . S
C907 O891 1.235 . S
Fe908 O910 1.918 . S
Fe908 O913 1.997 . S
Fe908 O914 2.002 . S
Fe908 O919 1.976 . S
Fe908 O922 1.996 . S
Fe909 O910 1.918 . S
Fe909 O917 1.997 . S
Fe909 O920 1.996 . S
Fe909 O924 1.976 . S
Fe909 O927 2.002 . S
O910 Fe908 1.918 . S
O910 Fe909 1.918 . S
O910 Fe911 1.918 . S
Fe911 O910 1.918 . S
Fe911 O912 2.002 . S
Fe911 O921 1.976 . S
Fe911 O925 1.996 . S
Fe911 O928 1.997 . S
O912 Fe911 2.002 . S
O912 C929 1.295 . S
O913 Fe908 1.997 . S
O913 C929 1.235 . S
O914 Fe908 2.002 . S
O914 C915 1.295 . S
C915 O914 1.295 . S
C915 O917 1.235 . S
C916 O921 1.287 . S
C916 O922 1.255 . S
O917 Fe909 1.997 . S
O917 C915 1.235 . S
C918 O924 1.287 . S
C918 O925 1.255 . S
O919 Fe908 1.976 . S
O919 C926 1.287 . S
O920 Fe909 1.996 . S
O920 C926 1.255 . S
O921 Fe911 1.976 . S
O921 C916 1.287 . S
O922 Fe908 1.996 . S
O922 C916 1.255 . S
C923 O927 1.295 . S
C923 O928 1.235 . S
O924 Fe909 1.976 . S
O924 C918 1.287 . S
O925 Fe911 1.996 . S
O925 C918 1.255 . S
C926 O919 1.287 . S
C926 O920 1.255 . S
O927 Fe909 2.002 . S
O927 C923 1.295 . S
O928 Fe911 1.997 . S
O928 C923 1.235 . S
C929 O912 1.295 . S
C929 O913 1.235 . S
Fe930 O932 1.918 . S
Fe930 O935 1.997 . S
Fe930 O936 2.002 . S
Fe930 O941 1.976 . S
Fe930 O944 1.996 . S
Fe931 O932 1.918 . S
Fe931 O939 1.997 . S
Fe931 O942 1.996 . S
Fe931 O946 1.976 . S
Fe931 O949 2.002 . S
O932 Fe930 1.918 . S
O932 Fe931 1.918 . S
O932 Fe933 1.918 . S
Fe933 O932 1.918 . S
Fe933 O934 2.002 . S
Fe933 O943 1.976 . S
Fe933 O947 1.996 . S
Fe933 O950 1.997 . S
O934 Fe933 2.002 . S
O934 C951 1.295 . S
O935 Fe930 1.997 . S
O935 C951 1.235 . S
O936 Fe930 2.002 . S
O936 C937 1.295 . S
C937 O936 1.295 . S
C937 O939 1.235 . S
C938 O943 1.287 . S
C938 O944 1.255 . S
O939 Fe931 1.997 . S
O939 C937 1.235 . S
C940 O946 1.287 . S
C940 O947 1.255 . S
O941 Fe930 1.976 . S
O941 C948 1.287 . S
O942 Fe931 1.996 . S
O942 C948 1.255 . S
O943 Fe933 1.976 . S
O943 C938 1.287 . S
O944 Fe930 1.996 . S
O944 C938 1.255 . S
C945 O949 1.295 . S
C945 O950 1.235 . S
O946 Fe931 1.976 . S
O946 C940 1.287 . S
O947 Fe933 1.996 . S
O947 C940 1.255 . S
C948 O941 1.287 . S
C948 O942 1.255 . S
O949 Fe931 2.002 . S
O949 C945 1.295 . S
O950 Fe933 1.997 . S
O950 C945 1.235 . S
C951 O934 1.295 . S
C951 O935 1.235 . S
Fe952 O954 1.918 . S
Fe952 O957 1.997 . S
Fe952 O958 2.002 . S
Fe952 O963 1.976 . S
Fe952 O966 1.996 . S
Fe953 O954 1.918 . S
Fe953 O961 1.997 . S
Fe953 O964 1.996 . S
Fe953 O968 1.976 . S
Fe953 O971 2.002 . S
O954 Fe952 1.918 . S
O954 Fe953 1.918 . S
O954 Fe955 1.918 . S
Fe955 O954 1.918 . S
Fe955 O956 2.002 . S
Fe955 O965 1.976 . S
Fe955 O969 1.996 . S
Fe955 O972 1.997 . S
O956 Fe955 2.002 . S
O956 C973 1.295 . S
O957 Fe952 1.997 . S
O957 C973 1.235 . S
O958 Fe952 2.002 . S
O958 C959 1.295 . S
C959 O958 1.295 . S
C959 O961 1.235 . S
C960 O965 1.287 . S
C960 O966 1.255 . S
O961 Fe953 1.997 . S
O961 C959 1.235 . S
C962 O968 1.287 . S
C962 O969 1.255 . S
O963 Fe952 1.976 . S
O963 C970 1.287 . S
O964 Fe953 1.996 . S
O964 C970 1.255 . S
O965 Fe955 1.976 . S
O965 C960 1.287 . S
O966 Fe952 1.996 . S
O966 C960 1.255 . S
C967 O971 1.295 . S
C967 O972 1.235 . S
O968 Fe953 1.976 . S
O968 C962 1.287 . S
O969 Fe955 1.996 . S
O969 C962 1.255 . S
C970 O963 1.287 . S
C970 O964 1.255 . S
O971 Fe953 2.002 . S
O971 C967 1.295 . S
O972 Fe955 1.997 . S
O972 C967 1.235 . S
C973 O956 1.295 . S
C973 O957 1.235 . S
Fe974 O976 1.918 . S
Fe974 O979 1.997 . S
Fe974 O980 2.002 . S
Fe974 O985 1.976 . S
Fe974 O988 1.996 . S
Fe975 O976 1.918 . S
Fe975 O983 1.997 . S
Fe975 O986 1.996 . S
Fe975 O990 1.976 . S
Fe975 O993 2.002 . S
O976 Fe974 1.918 . S
O976 Fe975 1.918 . S
O976 Fe977 1.918 . S
Fe977 O976 1.918 . S
Fe977 O978 2.002 . S
Fe977 O987 1.976 . S
Fe977 O991 1.996 . S
Fe977 O994 1.997 . S
O978 Fe977 2.002 . S
O978 C995 1.295 . S
O979 Fe974 1.997 . S
O979 C995 1.235 . S
O980 Fe974 2.002 . S
O980 C981 1.295 . S
C981 O980 1.295 . S
C981 O983 1.235 . S
C982 O987 1.287 . S
C982 O988 1.255 . S
O983 Fe975 1.997 . S
O983 C981 1.235 . S
C984 O990 1.287 . S
C984 O991 1.255 . S
O985 Fe974 1.976 . S
O985 C992 1.287 . S
O986 Fe975 1.996 . S
O986 C992 1.255 . S
O987 Fe977 1.976 . S
O987 C982 1.287 . S
O988 Fe974 1.996 . S
O988 C982 1.255 . S
C989 O993 1.295 . S
C989 O994 1.235 . S
O990 Fe975 1.976 . S
O990 C984 1.287 . S
O991 Fe977 1.996 . S
O991 C984 1.255 . S
C992 O985 1.287 . S
C992 O986 1.255 . S
O993 Fe975 2.002 . S
O993 C989 1.295 . S
O994 Fe977 1.997 . S
O994 C989 1.235 . S
C995 O978 1.295 . S
C995 O979 1.235 . S
Fe996 O998 1.918 . S
Fe996 O1001 1.997 . S
Fe996 O1002 2.002 . S
Fe996 O1007 1.976 . S
Fe996 O1010 1.996 . S
Fe997 O998 1.918 . S
Fe997 O1005 1.997 . S
Fe997 O1008 1.996 . S
Fe997 O1012 1.976 . S
Fe997 O1015 2.002 . S
O998 Fe996 1.918 . S
O998 Fe997 1.918 . S
O998 Fe999 1.918 . S
Fe999 O998 1.918 . S
Fe999 O1000 2.002 . S
Fe999 O1009 1.976 . S
Fe999 O1013 1.996 . S
Fe999 O1016 1.997 . S
O1000 Fe999 2.002 . S
O1000 C1017 1.295 . S
O1001 Fe996 1.997 . S
O1001 C1017 1.235 . S
O1002 Fe996 2.002 . S
O1002 C1003 1.295 . S
C1003 O1002 1.295 . S
C1003 O1005 1.235 . S
C1004 O1009 1.287 . S
C1004 O1010 1.255 . S
O1005 Fe997 1.997 . S
O1005 C1003 1.235 . S
C1006 O1012 1.287 . S
C1006 O1013 1.255 . S
O1007 Fe996 1.976 . S
O1007 C1014 1.287 . S
O1008 Fe997 1.996 . S
O1008 C1014 1.255 . S
O1009 Fe999 1.976 . S
O1009 C1004 1.287 . S
O1010 Fe996 1.996 . S
O1010 C1004 1.255 . S
C1011 O1015 1.295 . S
C1011 O1016 1.235 . S
O1012 Fe997 1.976 . S
O1012 C1006 1.287 . S
O1013 Fe999 1.996 . S
O1013 C1006 1.255 . S
C1014 O1007 1.287 . S
C1014 O1008 1.255 . S
O1015 Fe997 2.002 . S
O1015 C1011 1.295 . S
O1016 Fe999 1.997 . S
O1016 C1011 1.235 . S
C1017 O1000 1.295 . S
C1017 O1001 1.235 . S
Fe1018 O1020 1.918 . S
Fe1018 O1023 1.997 . S
Fe1018 O1024 2.002 . S
Fe1018 O1029 1.976 . S
Fe1018 O1032 1.996 . S
Fe1019 O1020 1.918 . S
Fe1019 O1027 1.997 . S
Fe1019 O1030 1.996 . S
Fe1019 O1034 1.976 . S
Fe1019 O1037 2.002 . S
O1020 Fe1018 1.918 . S
O1020 Fe1019 1.918 . S
O1020 Fe1021 1.918 . S
Fe1021 O1020 1.918 . S
Fe1021 O1022 2.002 . S
Fe1021 O1031 1.976 . S
Fe1021 O1035 1.996 . S
Fe1021 O1038 1.997 . S
O1022 Fe1021 2.002 . S
O1022 C1039 1.295 . S
O1023 Fe1018 1.997 . S
O1023 C1039 1.235 . S
O1024 Fe1018 2.002 . S
O1024 C1025 1.295 . S
C1025 O1024 1.295 . S
C1025 O1027 1.235 . S
C1026 O1031 1.287 . S
C1026 O1032 1.255 . S
O1027 Fe1019 1.997 . S
O1027 C1025 1.235 . S
C1028 O1034 1.287 . S
C1028 O1035 1.255 . S
O1029 Fe1018 1.976 . S
O1029 C1036 1.287 . S
O1030 Fe1019 1.996 . S
O1030 C1036 1.255 . S
O1031 Fe1021 1.976 . S
O1031 C1026 1.287 . S
O1032 Fe1018 1.996 . S
O1032 C1026 1.255 . S
C1033 O1037 1.295 . S
C1033 O1038 1.235 . S
O1034 Fe1019 1.976 . S
O1034 C1028 1.287 . S
O1035 Fe1021 1.996 . S
O1035 C1028 1.255 . S
C1036 O1029 1.287 . S
C1036 O1030 1.255 . S
O1037 Fe1019 2.002 . S
O1037 C1033 1.295 . S
O1038 Fe1021 1.997 . S
O1038 C1033 1.235 . S
C1039 O1022 1.295 . S
C1039 O1023 1.235 . S
Fe1040 O1042 1.918 . S
Fe1040 O1045 1.997 . S
Fe1040 O1046 2.002 . S
Fe1040 O1051 1.976 . S
Fe1040 O1054 1.996 . S
Fe1041 O1042 1.918 . S
Fe1041 O1049 1.997 . S
Fe1041 O1052 1.996 . S
Fe1041 O1056 1.976 . S
Fe1041 O1059 2.002 . S
O1042 Fe1040 1.918 . S
O1042 Fe1041 1.918 . S
O1042 Fe1043 1.918 . S
Fe1043 O1042 1.918 . S
Fe1043 O1044 2.002 . S
Fe1043 O1053 1.976 . S
Fe1043 O1057 1.996 . S
Fe1043 O1060 1.997 . S
O1044 Fe1043 2.002 . S
O1044 C1061 1.295 . S
O1045 Fe1040 1.997 . S
O1045 C1061 1.235 . S
O1046 Fe1040 2.002 . S
O1046 C1047 1.295 . S
C1047 O1046 1.295 . S
C1047 O1049 1.235 . S
C1048 O1053 1.287 . S
C1048 O1054 1.255 . S
O1049 Fe1041 1.997 . S
O1049 C1047 1.235 . S
C1050 O1056 1.287 . S
C1050 O1057 1.255 . S
O1051 Fe1040 1.976 . S
O1051 C1058 1.287 . S
O1052 Fe1041 1.996 . S
O1052 C1058 1.255 . S
O1053 Fe1043 1.976 . S
O1053 C1048 1.287 . S
O1054 Fe1040 1.996 . S
O1054 C1048 1.255 . S
C1055 O1059 1.295 . S
C1055 O1060 1.235 . S
O1056 Fe1041 1.976 . S
O1056 C1050 1.287 . S
O1057 Fe1043 1.996 . S
O1057 C1050 1.255 . S
C1058 O1051 1.287 . S
C1058 O1052 1.255 . S
O1059 Fe1041 2.002 . S
O1059 C1055 1.295 . S
O1060 Fe1043 1.997 . S
O1060 C1055 1.235 . S
C1061 O1044 1.295 . S
C1061 O1045 1.235 . S
Fe1062 O1064 1.918 . S
Fe1062 O1067 1.997 . S
Fe1062 O1068 2.002 . S
Fe1062 O1073 1.976 . S
Fe1062 O1076 1.996 . S
Fe1063 O1064 1.918 . S
Fe1063 O1071 1.997 . S
Fe1063 O1074 1.996 . S
Fe1063 O1078 1.976 . S
Fe1063 O1081 2.002 . S
O1064 Fe1062 1.918 . S
O1064 Fe1063 1.918 . S
O1064 Fe1065 1.918 . S
Fe1065 O1064 1.918 . S
Fe1065 O1066 2.002 . S
Fe1065 O1075 1.976 . S
Fe1065 O1079 1.996 . S
Fe1065 O1082 1.997 . S
O1066 Fe1065 2.002 . S
O1066 C1083 1.295 . S
O1067 Fe1062 1.997 . S
O1067 C1083 1.235 . S
O1068 Fe1062 2.002 . S
O1068 C1069 1.295 . S
C1069 O1068 1.295 . S
C1069 O1071 1.235 . S
C1070 O1075 1.287 . S
C1070 O1076 1.255 . S
O1071 Fe1063 1.997 . S
O1071 C1069 1.235 . S
C1072 O1078 1.287 . S
C1072 O1079 1.255 . S
O1073 Fe1062 1.976 . S
O1073 C1080 1.287 . S
O1074 Fe1063 1.996 . S
O1074 C1080 1.255 . S
O1075 Fe1065 1.976 . S
O1075 C1070 1.287 . S
O1076 Fe1062 1.996 . S
O1076 C1070 1.255 . S
C1077 O1081 1.295 . S
C1077 O1082 1.235 . S
O1078 Fe1063 1.976 . S
O1078 C1072 1.287 . S
O1079 Fe1065 1.996 . S
O1079 C1072 1.255 . S
C1080 O1073 1.287 . S
C1080 O1074 1.255 . S
O1081 Fe1063 2.002 . S
O1081 C1077 1.295 . S
O1082 Fe1065 1.997 . S
O1082 C1077 1.235 . S
C1083 O1066 1.295 . S
C1083 O1067 1.235 . S
Fe1084 O1086 1.918 . S
Fe1084 O1089 1.997 . S
Fe1084 O1090 2.002 . S
Fe1084 O1095 1.976 . S
Fe1084 O1098 1.996 . S
Fe1085 O1086 1.918 . S
Fe1085 O1093 1.997 . S
Fe1085 O1096 1.996 . S
Fe1085 O1100 1.976 . S
Fe1085 O1103 2.002 . S
O1086 Fe1084 1.918 . S
O1086 Fe1085 1.918 . S
O1086 Fe1087 1.918 . S
Fe1087 O1086 1.918 . S
Fe1087 O1088 2.002 . S
Fe1087 O1097 1.976 . S
Fe1087 O1101 1.996 . S
Fe1087 O1104 1.997 . S
O1088 Fe1087 2.002 . S
O1088 C1105 1.295 . S
O1089 Fe1084 1.997 . S
O1089 C1105 1.235 . S
O1090 Fe1084 2.002 . S
O1090 C1091 1.295 . S
C1091 O1090 1.295 . S
C1091 O1093 1.235 . S
C1092 O1097 1.287 . S
C1092 O1098 1.255 . S
O1093 Fe1085 1.997 . S
O1093 C1091 1.235 . S
C1094 O1100 1.287 . S
C1094 O1101 1.255 . S
O1095 Fe1084 1.976 . S
O1095 C1102 1.287 . S
O1096 Fe1085 1.996 . S
O1096 C1102 1.255 . S
O1097 Fe1087 1.976 . S
O1097 C1092 1.287 . S
O1098 Fe1084 1.996 . S
O1098 C1092 1.255 . S
C1099 O1103 1.295 . S
C1099 O1104 1.235 . S
O1100 Fe1085 1.976 . S
O1100 C1094 1.287 . S
O1101 Fe1087 1.996 . S
O1101 C1094 1.255 . S
C1102 O1095 1.287 . S
C1102 O1096 1.255 . S
O1103 Fe1085 2.002 . S
O1103 C1099 1.295 . S
O1104 Fe1087 1.997 . S
O1104 C1099 1.235 . S
C1105 O1088 1.295 . S
C1105 O1089 1.235 . S
Fe1106 O1108 1.918 . S
Fe1106 O1111 1.997 . S
Fe1106 O1112 2.002 . S
Fe1106 O1117 1.976 . S
Fe1106 O1120 1.996 . S
Fe1107 O1108 1.918 . S
Fe1107 O1115 1.997 . S
Fe1107 O1118 1.996 . S
Fe1107 O1122 1.976 . S
Fe1107 O1125 2.002 . S
O1108 Fe1106 1.918 . S
O1108 Fe1107 1.918 . S
O1108 Fe1109 1.918 . S
Fe1109 O1108 1.918 . S
Fe1109 O1110 2.002 . S
Fe1109 O1119 1.976 . S
Fe1109 O1123 1.996 . S
Fe1109 O1126 1.997 . S
O1110 Fe1109 2.002 . S
O1110 C1127 1.295 . S
O1111 Fe1106 1.997 . S
O1111 C1127 1.235 . S
O1112 Fe1106 2.002 . S
O1112 C1113 1.295 . S
C1113 O1112 1.295 . S
C1113 O1115 1.235 . S
C1114 O1119 1.287 . S
C1114 O1120 1.255 . S
O1115 Fe1107 1.997 . S
O1115 C1113 1.235 . S
C1116 O1122 1.287 . S
C1116 O1123 1.255 . S
O1117 Fe1106 1.976 . S
O1117 C1124 1.287 . S
O1118 Fe1107 1.996 . S
O1118 C1124 1.255 . S
O1119 Fe1109 1.976 . S
O1119 C1114 1.287 . S
O1120 Fe1106 1.996 . S
O1120 C1114 1.255 . S
C1121 O1125 1.295 . S
C1121 O1126 1.235 . S
O1122 Fe1107 1.976 . S
O1122 C1116 1.287 . S
O1123 Fe1109 1.996 . S
O1123 C1116 1.255 . S
C1124 O1117 1.287 . S
C1124 O1118 1.255 . S
O1125 Fe1107 2.002 . S
O1125 C1121 1.295 . S
O1126 Fe1109 1.997 . S
O1126 C1121 1.235 . S
C1127 O1110 1.295 . S
C1127 O1111 1.235 . S
Fe1128 O1130 1.918 . S
Fe1128 O1133 1.997 . S
Fe1128 O1134 2.002 . S
Fe1128 O1139 1.976 . S
Fe1128 O1142 1.996 . S
Fe1129 O1130 1.918 . S
Fe1129 O1137 1.997 . S
Fe1129 O1140 1.996 . S
Fe1129 O1144 1.976 . S
Fe1129 O1147 2.002 . S
O1130 Fe1128 1.918 . S
O1130 Fe1129 1.918 . S
O1130 Fe1131 1.918 . S
Fe1131 O1130 1.918 . S
Fe1131 O1132 2.002 . S
Fe1131 O1141 1.976 . S
Fe1131 O1145 1.996 . S
Fe1131 O1148 1.997 . S
O1132 Fe1131 2.002 . S
O1132 C1149 1.295 . S
O1133 Fe1128 1.997 . S
O1133 C1149 1.235 . S
O1134 Fe1128 2.002 . S
O1134 C1135 1.295 . S
C1135 O1134 1.295 . S
C1135 O1137 1.235 . S
C1136 O1141 1.287 . S
C1136 O1142 1.255 . S
O1137 Fe1129 1.997 . S
O1137 C1135 1.235 . S
C1138 O1144 1.287 . S
C1138 O1145 1.255 . S
O1139 Fe1128 1.976 . S
O1139 C1146 1.287 . S
O1140 Fe1129 1.996 . S
O1140 C1146 1.255 . S
O1141 Fe1131 1.976 . S
O1141 C1136 1.287 . S
O1142 Fe1128 1.996 . S
O1142 C1136 1.255 . S
C1143 O1147 1.295 . S
C1143 O1148 1.235 . S
O1144 Fe1129 1.976 . S
O1144 C1138 1.287 . S
O1145 Fe1131 1.996 . S
O1145 C1138 1.255 . S
C1146 O1139 1.287 . S
C1146 O1140 1.255 . S
O1147 Fe1129 2.002 . S
O1147 C1143 1.295 . S
O1148 Fe1131 1.997 . S
O1148 C1143 1.235 . S
C1149 O1132 1.295 . S
C1149 O1133 1.235 . S
Fe1150 O1152 1.918 . S
Fe1150 O1155 1.997 . S
Fe1150 O1156 2.002 . S
Fe1150 O1161 1.976 . S
Fe1150 O1164 1.996 . S
Fe1151 O1152 1.918 . S
Fe1151 O1159 1.997 . S
Fe1151 O1162 1.996 . S
Fe1151 O1166 1.976 . S
Fe1151 O1169 2.002 . S
O1152 Fe1150 1.918 . S
O1152 Fe1151 1.918 . S
O1152 Fe1153 1.918 . S
Fe1153 O1152 1.918 . S
Fe1153 O1154 2.002 . S
Fe1153 O1163 1.976 . S
Fe1153 O1167 1.996 . S
Fe1153 O1170 1.997 . S
O1154 Fe1153 2.002 . S
O1154 C1171 1.295 . S
O1155 Fe1150 1.997 . S
O1155 C1171 1.235 . S
O1156 Fe1150 2.002 . S
O1156 C1157 1.295 . S
C1157 O1156 1.295 . S
C1157 O1159 1.235 . S
C1158 O1163 1.287 . S
C1158 O1164 1.255 . S
O1159 Fe1151 1.997 . S
O1159 C1157 1.235 . S
C1160 O1166 1.287 . S
C1160 O1167 1.255 . S
O1161 Fe1150 1.976 . S
O1161 C1168 1.287 . S
O1162 Fe1151 1.996 . S
O1162 C1168 1.255 . S
O1163 Fe1153 1.976 . S
O1163 C1158 1.287 . S
O1164 Fe1150 1.996 . S
O1164 C1158 1.255 . S
C1165 O1169 1.295 . S
C1165 O1170 1.235 . S
O1166 Fe1151 1.976 . S
O1166 C1160 1.287 . S
O1167 Fe1153 1.996 . S
O1167 C1160 1.255 . S
C1168 O1161 1.287 . S
C1168 O1162 1.255 . S
O1169 Fe1151 2.002 . S
O1169 C1165 1.295 . S
O1170 Fe1153 1.997 . S
O1170 C1165 1.235 . S
C1171 O1154 1.295 . S
C1171 O1155 1.235 . S
Fe1172 O1174 1.918 . S
Fe1172 O1177 1.997 . S
Fe1172 O1178 2.002 . S
Fe1172 O1183 1.976 . S
Fe1172 O1186 1.996 . S
Fe1173 O1174 1.918 . S
Fe1173 O1181 1.997 . S
Fe1173 O1184 1.996 . S
Fe1173 O1188 1.976 . S
Fe1173 O1191 2.002 . S
O1174 Fe1172 1.918 . S
O1174 Fe1173 1.918 . S
O1174 Fe1175 1.918 . S
Fe1175 O1174 1.918 . S
Fe1175 O1176 2.002 . S
Fe1175 O1185 1.976 . S
Fe1175 O1189 1.996 . S
Fe1175 O1192 1.997 . S
O1176 Fe1175 2.002 . S
O1176 C1193 1.295 . S
O1177 Fe1172 1.997 . S
O1177 C1193 1.235 . S
O1178 Fe1172 2.002 . S
O1178 C1179 1.295 . S
C1179 O1178 1.295 . S
C1179 O1181 1.235 . S
C1180 O1185 1.287 . S
C1180 O1186 1.255 . S
O1181 Fe1173 1.997 . S
O1181 C1179 1.235 . S
C1182 O1188 1.287 . S
C1182 O1189 1.255 . S
O1183 Fe1172 1.976 . S
O1183 C1190 1.287 . S
O1184 Fe1173 1.996 . S
O1184 C1190 1.255 . S
O1185 Fe1175 1.976 . S
O1185 C1180 1.287 . S
O1186 Fe1172 1.996 . S
O1186 C1180 1.255 . S
C1187 O1191 1.295 . S
C1187 O1192 1.235 . S
O1188 Fe1173 1.976 . S
O1188 C1182 1.287 . S
O1189 Fe1175 1.996 . S
O1189 C1182 1.255 . S
C1190 O1183 1.287 . S
C1190 O1184 1.255 . S
O1191 Fe1173 2.002 . S
O1191 C1187 1.295 . S
O1192 Fe1175 1.997 . S
O1192 C1187 1.235 . S
C1193 O1176 1.295 . S
C1193 O1177 1.235 . S
Fe1194 O1196 1.918 . S
Fe1194 O1199 1.997 . S
Fe1194 O1200 2.002 . S
Fe1194 O1205 1.976 . S
Fe1194 O1208 1.996 . S
Fe1195 O1196 1.918 . S
Fe1195 O1203 1.997 . S
Fe1195 O1206 1.996 . S
Fe1195 O1210 1.976 . S
Fe1195 O1213 2.002 . S
O1196 Fe1194 1.918 . S
O1196 Fe1195 1.918 . S
O1196 Fe1197 1.918 . S
Fe1197 O1196 1.918 . S
Fe1197 O1198 2.002 . S
Fe1197 O1207 1.976 . S
Fe1197 O1211 1.996 . S
Fe1197 O1214 1.997 . S
O1198 Fe1197 2.002 . S
O1198 C1215 1.295 . S
O1199 Fe1194 1.997 . S
O1199 C1215 1.235 . S
O1200 Fe1194 2.002 . S
O1200 C1201 1.295 . S
C1201 O1200 1.295 . S
C1201 O1203 1.235 . S
C1202 O1207 1.287 . S
C1202 O1208 1.255 . S
O1203 Fe1195 1.997 . S
O1203 C1201 1.235 . S
C1204 O1210 1.287 . S
C1204 O1211 1.255 . S
O1205 Fe1194 1.976 . S
O1205 C1212 1.287 . S
O1206 Fe1195 1.996 . S
O1206 C1212 1.255 . S
O1207 Fe1197 1.976 . S
O1207 C1202 1.287 . S
O1208 Fe1194 1.996 . S
O1208 C1202 1.255 . S
C1209 O1213 1.295 . S
C1209 O1214 1.235 . S
O1210 Fe1195 1.976 . S
O1210 C1204 1.287 . S
O1211 Fe1197 1.996 . S
O1211 C1204 1.255 . S
C1212 O1205 1.287 . S
C1212 O1206 1.255 . S
O1213 Fe1195 2.002 . S
O1213 C1209 1.295 . S
O1214 Fe1197 1.997 . S
O1214 C1209 1.235 . S
C1215 O1198 1.295 . S
C1215 O1199 1.235 . S
C1216 C1217 1.363 . S
C1216 C1222 1.379 . S
C1216 N1224 1.356 . S
C1217 C1216 1.363 . S
C1217 C1223 1.363 . S
C1218 C1219 1.363 . S
C1218 C1223 1.379 . S
C1218 N1225 1.356 . S
C1219 C1218 1.363 . S
C1219 C1222 1.363 . S
N1220 C1222 1.356 . S
N1220 H1232 0.984 . S
N1220 H1233 0.985 . S
N1221 C1223 1.356 . S
N1221 H1226 0.984 . S
N1221 H1227 0.985 . S
C1222 C1216 1.379 . S
C1222 C1219 1.363 . S
C1222 N1220 1.356 . S
C1223 C1217 1.363 . S
C1223 C1218 1.379 . S
C1223 N1221 1.356 . S
N1224 C1216 1.356 . S
N1224 H1230 0.984 . S
N1224 H1231 0.984 . S
N1225 C1218 1.356 . S
N1225 H1228 0.984 . S
N1225 H1229 0.985 . S
H1226 N1221 0.984 . S
H1227 N1221 0.985 . S
H1228 N1225 0.984 . S
H1229 N1225 0.985 . S
H1230 N1224 0.984 . S
H1231 N1224 0.984 . S
H1232 N1220 0.984 . S
H1233 N1220 0.985 . S
C1234 C1235 1.363 . S
C1234 C1240 1.379 . S
C1234 N1242 1.356 . S
C1235 C1234 1.363 . S
C1235 C1241 1.363 . S
C1236 C1237 1.363 . S
C1236 C1241 1.379 . S
C1236 N1243 1.356 . S
C1237 C1236 1.363 . S
C1237 C1240 1.363 . S
N1238 C1240 1.356 . S
N1238 H1250 0.984 . S
N1238 H1251 0.985 . S
N1239 C1241 1.356 . S
N1239 H1244 0.984 . S
N1239 H1245 0.985 . S
C1240 C1234 1.379 . S
C1240 C1237 1.363 . S
C1240 N1238 1.356 . S
C1241 C1235 1.363 . S
C1241 C1236 1.379 . S
C1241 N1239 1.356 . S
N1242 C1234 1.356 . S
N1242 H1248 0.984 1_455 S
N1242 H1249 0.984 . S
N1243 C1236 1.356 . S
N1243 H1246 0.984 . S
N1243 H1247 0.985 . S
H1244 N1239 0.984 . S
H1245 N1239 0.985 . S
H1246 N1243 0.984 . S
H1247 N1243 0.985 . S
H1248 N1242 0.984 1_655 S
H1249 N1242 0.984 . S
H1250 N1238 0.984 . S
H1251 N1238 0.985 . S
C1252 C1253 1.363 . S
C1252 C1258 1.379 . S
C1252 N1260 1.356 . S
C1253 C1252 1.363 . S
C1253 C1259 1.363 . S
C1254 C1255 1.363 . S
C1254 C1259 1.379 . S
C1254 N1261 1.356 . S
C1255 C1254 1.363 . S
C1255 C1258 1.363 . S
N1256 C1258 1.356 . S
N1256 H1268 0.984 . S
N1256 H1269 0.985 . S
N1257 C1259 1.356 . S
N1257 H1262 0.984 . S
N1257 H1263 0.985 . S
C1258 C1252 1.379 . S
C1258 C1255 1.363 . S
C1258 N1256 1.356 . S
C1259 C1253 1.363 . S
C1259 C1254 1.379 . S
C1259 N1257 1.356 . S
N1260 C1252 1.356 . S
N1260 H1266 0.984 . S
N1260 H1267 0.984 . S
N1261 C1254 1.356 . S
N1261 H1264 0.984 . S
N1261 H1265 0.985 . S
H1262 N1257 0.984 . S
H1263 N1257 0.985 . S
H1264 N1261 0.984 . S
H1265 N1261 0.985 . S
H1266 N1260 0.984 . S
H1267 N1260 0.984 . S
H1268 N1256 0.984 . S
H1269 N1256 0.985 . S
C1270 C1271 1.363 . S
C1270 C1276 1.379 . S
C1270 N1278 1.356 . S
C1271 C1270 1.363 . S
C1271 C1277 1.363 . S
C1272 C1273 1.363 . S
C1272 C1277 1.379 . S
C1272 N1279 1.356 . S
C1273 C1272 1.363 . S
C1273 C1276 1.363 . S
N1274 C1276 1.356 1_556 S
N1274 H1286 0.984 . S
N1274 H1287 0.985 . S
N1275 C1277 1.356 . S
N1275 H1280 0.984 . S
N1275 H1281 0.985 . S
C1276 C1270 1.379 . S
C1276 C1273 1.363 . S
C1276 N1274 1.356 1_554 S
C1277 C1271 1.363 . S
C1277 C1272 1.379 . S
C1277 N1275 1.356 . S
N1278 C1270 1.356 . S
N1278 H1284 0.984 . S
N1278 H1285 0.984 . S
N1279 C1272 1.356 . S
N1279 H1282 0.990 . S
N1279 H1283 0.985 . S
H1280 N1275 0.984 . S
H1281 N1275 0.985 . S
H1282 N1279 0.990 . S
H1283 N1279 0.985 . S
H1284 N1278 0.984 . S
H1285 N1278 0.984 . S
H1286 N1274 0.984 . S
H1287 N1274 0.985 . S
C1288 C1289 1.363 . S
C1288 C1294 1.379 . S
C1288 N1296 1.356 . S
C1289 C1288 1.363 . S
C1289 C1295 1.363 . S
C1290 C1291 1.363 . S
C1290 C1295 1.379 . S
C1290 N1297 1.356 . S
C1291 C1290 1.363 . S
C1291 C1294 1.363 . S
N1292 C1294 1.356 . S
N1292 H1304 0.984 . S
N1292 H1305 0.985 . S
N1293 C1295 1.356 . S
N1293 H1298 0.984 . S
N1293 H1299 0.985 . S
C1294 C1288 1.379 . S
C1294 C1291 1.363 . S
C1294 N1292 1.356 . S
C1295 C1289 1.363 . S
C1295 C1290 1.379 . S
C1295 N1293 1.356 . S
N1296 C1288 1.356 . S
N1296 H1302 0.984 . S
N1296 H1303 0.984 . S
N1297 C1290 1.356 . S
N1297 H1300 0.984 . S
N1297 H1301 0.985 . S
H1298 N1293 0.984 . S
H1299 N1293 0.985 . S
H1300 N1297 0.984 . S
H1301 N1297 0.985 . S
H1302 N1296 0.984 . S
H1303 N1296 0.984 . S
H1304 N1292 0.984 . S
H1305 N1292 0.985 . S
C1306 C1307 1.363 . S
C1306 C1312 1.379 . S
C1306 N1314 1.356 . S
C1307 C1306 1.363 . S
C1307 C1313 1.363 . S
C1308 C1309 1.363 . S
C1308 C1313 1.379 . S
C1308 N1315 1.356 . S
C1309 C1308 1.363 . S
C1309 C1312 1.363 . S
N1310 C1312 1.356 . S
N1310 H1322 0.984 . S
N1310 H1323 0.985 . S
N1311 C1313 1.356 . S
N1311 H1316 0.984 . S
N1311 H1317 0.985 . S
C1312 C1306 1.379 . S
C1312 C1309 1.363 . S
C1312 N1310 1.356 . S
C1313 C1307 1.363 . S
C1313 C1308 1.379 . S
C1313 N1311 1.356 . S
N1314 C1306 1.356 . S
N1314 H1320 0.984 . S
N1314 H1321 0.984 . S
N1315 C1308 1.356 . S
N1315 H1318 0.984 . S
N1315 H1319 0.985 . S
H1316 N1311 0.984 . S
H1317 N1311 0.985 . S
H1318 N1315 0.984 . S
H1319 N1315 0.985 . S
H1320 N1314 0.984 . S
H1321 N1314 0.984 . S
H1322 N1310 0.984 . S
H1323 N1310 0.985 . S
C1324 C1325 1.363 . S
C1324 C1330 1.379 . S
C1324 N1332 1.356 . S
C1325 C1324 1.363 . S
C1325 C1331 1.363 . S
C1326 C1327 1.363 . S
C1326 C1331 1.379 . S
C1326 N1333 1.356 . S
C1327 C1326 1.363 . S
C1327 C1330 1.363 . S
N1328 C1330 1.356 . S
N1328 H1340 0.984 . S
N1328 H1341 0.985 . S
N1329 C1331 1.356 . S
N1329 H1334 0.984 . S
N1329 H1335 0.985 . S
C1330 C1324 1.379 . S
C1330 C1327 1.363 . S
C1330 N1328 1.356 . S
C1331 C1325 1.363 . S
C1331 C1326 1.379 . S
C1331 N1329 1.356 . S
N1332 C1324 1.356 . S
N1332 H1338 0.984 . S
N1332 H1339 0.984 . S
N1333 C1326 1.356 . S
N1333 H1336 0.984 . S
N1333 H1337 0.985 . S
H1334 N1329 0.984 . S
H1335 N1329 0.985 . S
H1336 N1333 0.984 . S
H1337 N1333 0.985 . S
H1338 N1332 0.984 . S
H1339 N1332 0.984 . S
H1340 N1328 0.984 . S
H1341 N1328 0.985 . S
C1342 C1343 1.363 . S
C1342 C1348 1.379 1_556 S
C1342 N1350 1.356 . S
C1343 C1342 1.363 . S
C1343 C1349 1.363 . S
C1344 C1345 1.363 1_556 S
C1344 C1349 1.379 . S
C1344 N1351 1.356 . S
C1345 C1344 1.363 1_554 S
C1345 C1348 1.363 . S
N1346 C1348 1.356 . S
N1346 H1358 0.984 . S
N1346 H1359 0.985 . S
N1347 C1349 1.356 . S
N1347 H1352 0.984 . S
N1347 H1353 0.985 . S
C1348 C1342 1.379 1_554 S
C1348 C1345 1.363 . S
C1348 N1346 1.356 . S
C1349 C1343 1.363 . S
C1349 C1344 1.379 . S
C1349 N1347 1.356 . S
N1350 C1342 1.356 . S
N1350 H1356 0.979 1_556 S
N1350 H1357 0.984 . S
N1351 C1344 1.356 . S
N1351 H1354 0.984 1_556 S
N1351 H1355 0.985 . S
H1352 N1347 0.984 . S
H1353 N1347 0.985 . S
H1354 N1351 0.984 1_554 S
H1355 N1351 0.985 . S
H1356 N1350 0.979 1_554 S
H1357 N1350 0.984 . S
H1358 N1346 0.984 . S
H1359 N1346 0.985 . S
C1360 C1361 1.363 . S
C1360 C1366 1.379 . S
C1360 N1368 1.356 . S
C1361 C1360 1.363 . S
C1361 C1367 1.363 . S
C1362 C1363 1.363 . S
C1362 C1367 1.379 . S
C1362 N1369 1.356 . S
C1363 C1362 1.363 . S
C1363 C1366 1.363 . S
N1364 C1366 1.356 . S
N1364 H1376 0.984 . S
N1364 H1377 0.985 . S
N1365 C1367 1.356 . S
N1365 H1370 0.984 . S
N1365 H1371 0.985 . S
C1366 C1360 1.379 . S
C1366 C1363 1.363 . S
C1366 N1364 1.356 . S
C1367 C1361 1.363 . S
C1367 C1362 1.379 . S
C1367 N1365 1.356 . S
N1368 C1360 1.356 . S
N1368 H1374 0.984 . S
N1368 H1375 0.984 . S
N1369 C1362 1.356 . S
N1369 H1372 0.984 . S
N1369 H1373 0.985 . S
H1370 N1365 0.984 . S
H1371 N1365 0.985 . S
H1372 N1369 0.984 . S
H1373 N1369 0.985 . S
H1374 N1368 0.984 . S
H1375 N1368 0.984 . S
H1376 N1364 0.984 . S
H1377 N1364 0.985 . S
C1378 C1379 1.363 . S
C1378 C1384 1.379 . S
C1378 N1386 1.356 . S
C1379 C1378 1.363 . S
C1379 C1385 1.363 . S
C1380 C1381 1.363 . S
C1380 C1385 1.379 1_565 S
C1380 N1387 1.356 . S
C1381 C1380 1.363 . S
C1381 C1384 1.365 1_565 S
N1382 C1384 1.356 . S
N1382 H1394 0.984 . S
N1382 H1395 1.000 . S
N1383 C1385 1.356 . S
N1383 H1388 0.984 . S
N1383 H1389 0.985 . S
C1384 C1378 1.379 . S
C1384 C1381 1.365 1_545 S
C1384 N1382 1.356 . S
C1385 C1379 1.363 . S
C1385 C1380 1.379 1_545 S
C1385 N1383 1.356 . S
N1386 C1378 1.356 . S
N1386 H1392 0.984 . S
N1386 H1393 0.984 . S
N1387 C1380 1.356 . S
N1387 H1390 0.984 . S
N1387 H1391 0.985 . S
H1388 N1383 0.984 . S
H1389 N1383 0.985 . S
H1390 N1387 0.984 . S
H1391 N1387 0.985 . S
H1392 N1386 0.984 . S
H1393 N1386 0.984 . S
H1394 N1382 0.984 . S
H1395 N1382 1.000 . S
C1396 C1397 1.363 . S
C1396 C1402 1.379 . S
C1396 N1404 1.356 . S
C1397 C1396 1.363 . S
C1397 C1403 1.363 . S
C1398 C1399 1.363 . S
C1398 C1403 1.379 . S
C1398 N1405 1.356 . S
C1399 C1398 1.363 . S
C1399 C1402 1.363 . S
N1400 C1402 1.356 . S
N1400 H1412 0.984 . S
N1400 H1413 0.985 . S
N1401 C1403 1.356 . S
N1401 H1406 0.984 . S
N1401 H1407 0.985 . S
C1402 C1396 1.379 . S
C1402 C1399 1.363 . S
C1402 N1400 1.356 . S
C1403 C1397 1.363 . S
C1403 C1398 1.379 . S
C1403 N1401 1.356 . S
N1404 C1396 1.356 . S
N1404 H1410 0.984 . S
N1404 H1411 0.984 . S
N1405 C1398 1.356 . S
N1405 H1408 0.984 . S
N1405 H1409 0.985 . S
H1406 N1401 0.984 . S
H1407 N1401 0.985 . S
H1408 N1405 0.984 . S
H1409 N1405 0.985 . S
H1410 N1404 0.984 . S
H1411 N1404 0.984 . S
H1412 N1400 0.984 . S
H1413 N1400 0.985 . S
C1414 C1415 1.363 . S
C1414 C1420 1.379 1_565 S
C1414 N1422 1.356 1_556 S
C1415 C1414 1.363 . S
C1415 C1421 1.363 . S
C1416 C1417 1.363 1_565 S
C1416 C1421 1.379 . S
C1416 N1423 1.356 . S
C1417 C1416 1.363 1_545 S
C1417 C1420 1.363 . S
N1418 C1420 1.356 . S
N1418 H1430 0.984 . S
N1418 H1431 0.985 . S
N1419 C1421 1.356 . S
N1419 H1424 0.984 . S
N1419 H1425 0.985 . S
C1420 C1414 1.379 1_545 S
C1420 C1417 1.363 . S
C1420 N1418 1.356 . S
C1421 C1415 1.363 . S
C1421 C1416 1.379 . S
C1421 N1419 1.356 . S
N1422 C1414 1.356 1_554 S
N1422 H1428 0.984 . S
N1422 H1429 0.984 . S
N1423 C1416 1.356 . S
N1423 H1426 0.984 1_565 S
N1423 H1427 0.985 . S
H1424 N1419 0.984 . S
H1425 N1419 0.985 . S
H1426 N1423 0.984 1_545 S
H1427 N1423 0.985 . S
H1428 N1422 0.984 . S
H1429 N1422 0.984 . S
H1430 N1418 0.984 . S
H1431 N1418 0.985 . S
C1432 C1433 1.363 . S
C1432 C1438 1.379 . S
C1432 N1440 1.356 . S
C1433 C1432 1.363 . S
C1433 C1439 1.363 . S
C1434 C1435 1.363 . S
C1434 C1439 1.379 . S
C1434 N1441 1.356 . S
C1435 C1434 1.363 . S
C1435 C1438 1.363 . S
N1436 C1438 1.356 . S
N1436 H1448 0.984 . S
N1436 H1449 0.985 . S
N1437 C1439 1.356 . S
N1437 H1442 0.984 . S
N1437 H1443 0.985 1_565 S
C1438 C1432 1.379 . S
C1438 C1435 1.363 . S
C1438 N1436 1.356 . S
C1439 C1433 1.363 . S
C1439 C1434 1.379 . S
C1439 N1437 1.356 . S
N1440 C1432 1.356 . S
N1440 H1446 0.984 . S
N1440 H1447 0.984 . S
N1441 C1434 1.356 . S
N1441 H1444 0.984 . S
N1441 H1445 0.985 . S
H1442 N1437 0.984 . S
H1443 N1437 0.985 1_545 S
H1444 N1441 0.984 . S
H1445 N1441 0.985 . S
H1446 N1440 0.984 . S
H1447 N1440 0.984 . S
H1448 N1436 0.984 . S
H1449 N1436 0.985 . S
C1450 C1451 1.363 . S
C1450 C1456 1.379 1_545 S
C1450 N1458 1.356 . S
C1451 C1450 1.363 . S
C1451 C1457 1.363 . S
C1452 C1453 1.363 1_545 S
C1452 C1457 1.379 . S
C1452 N1459 1.356 . S
C1453 C1452 1.363 1_565 S
C1453 C1456 1.363 . S
N1454 C1456 1.356 . S
N1454 H1466 0.984 . S
N1454 H1467 0.985 . S
N1455 C1457 1.356 . S
N1455 H1460 0.984 . S
N1455 H1461 0.985 . S
C1456 C1450 1.379 1_565 S
C1456 C1453 1.363 . S
C1456 N1454 1.356 . S
C1457 C1451 1.363 . S
C1457 C1452 1.379 . S
C1457 N1455 1.356 . S
N1458 C1450 1.356 . S
N1458 H1464 0.984 . S
N1458 H1465 0.984 . S
N1459 C1452 1.356 . S
N1459 H1462 0.984 1_545 S
N1459 H1463 0.985 . S
H1460 N1455 0.984 . S
H1461 N1455 0.985 . S
H1462 N1459 0.984 1_565 S
H1463 N1459 0.985 . S
H1464 N1458 0.984 . S
H1465 N1458 0.984 . S
H1466 N1454 0.984 . S
H1467 N1454 0.985 . S
C1468 C1469 1.363 . S
C1468 C1474 1.379 . S
C1468 N1476 1.356 . S
C1469 C1468 1.363 . S
C1469 C1475 1.363 . S
C1470 C1471 1.363 . S
C1470 C1475 1.379 . S
C1470 N1477 1.356 . S
C1471 C1470 1.363 . S
C1471 C1474 1.363 . S
N1472 C1474 1.356 . S
N1472 H1484 0.984 . S
N1472 H1485 0.985 . S
N1473 C1475 1.356 . S
N1473 H1478 0.984 . S
N1473 H1479 0.985 . S
C1474 C1468 1.379 . S
C1474 C1471 1.363 . S
C1474 N1472 1.356 . S
C1475 C1469 1.363 . S
C1475 C1470 1.379 . S
C1475 N1473 1.356 . S
N1476 C1468 1.356 . S
N1476 H1482 0.984 . S
N1476 H1483 0.984 . S
N1477 C1470 1.356 . S
N1477 H1480 0.984 . S
N1477 H1481 0.985 . S
H1478 N1473 0.984 . S
H1479 N1473 0.985 . S
H1480 N1477 0.984 . S
H1481 N1477 0.985 . S
H1482 N1476 0.984 . S
H1483 N1476 0.984 . S
H1484 N1472 0.984 . S
H1485 N1472 0.985 . S
C1486 C1487 1.363 . S
C1486 C1492 1.379 1_565 S
C1486 N1494 1.356 . S
C1487 C1486 1.363 . S
C1487 C1493 1.363 . S
C1488 C1489 1.363 1_565 S
C1488 C1493 1.379 . S
C1488 N1495 1.356 . S
C1489 C1488 1.363 1_545 S
C1489 C1492 1.363 . S
N1490 C1492 1.356 . S
N1490 H1502 0.984 . S
N1490 H1503 0.985 . S
N1491 C1493 1.356 . S
N1491 H1496 0.984 . S
N1491 H1497 0.985 . S
C1492 C1486 1.379 1_545 S
C1492 C1489 1.363 . S
C1492 N1490 1.356 . S
C1493 C1487 1.363 . S
C1493 C1488 1.379 . S
C1493 N1491 1.356 . S
N1494 C1486 1.356 . S
N1494 H1500 0.984 1_554 S
N1494 H1501 0.984 . S
N1495 C1488 1.356 . S
N1495 H1498 0.984 1_565 S
N1495 H1499 0.985 . S
H1496 N1491 0.984 . S
H1497 N1491 0.985 . S
H1498 N1495 0.984 1_545 S
H1499 N1495 0.985 . S
H1500 N1494 0.984 1_556 S
H1501 N1494 0.984 . S
H1502 N1490 0.984 . S
H1503 N1490 0.985 . S
C1504 C1505 1.363 . S
C1504 C1510 1.379 . S
C1504 N1512 1.356 . S
C1505 C1504 1.363 . S
C1505 C1511 1.363 . S
C1506 C1507 1.363 . S
C1506 C1511 1.379 . S
C1506 N1513 1.356 . S
C1507 C1506 1.363 . S
C1507 C1510 1.363 . S
N1508 C1510 1.356 . S
N1508 H1520 0.984 . S
N1508 H1521 0.985 . S
N1509 C1511 1.356 . S
N1509 H1514 0.984 . S
N1509 H1515 0.985 1_554 S
C1510 C1504 1.379 . S
C1510 C1507 1.363 . S
C1510 N1508 1.356 . S
C1511 C1505 1.363 . S
C1511 C1506 1.379 . S
C1511 N1509 1.356 . S
N1512 C1504 1.356 . S
N1512 H1518 0.984 . S
N1512 H1519 0.984 . S
N1513 C1506 1.356 . S
N1513 H1516 0.984 . S
N1513 H1517 0.985 . S
H1514 N1509 0.984 . S
H1515 N1509 0.985 1_556 S
H1516 N1513 0.984 . S
H1517 N1513 0.985 . S
H1518 N1512 0.984 . S
H1519 N1512 0.984 . S
H1520 N1508 0.984 . S
H1521 N1508 0.985 . S
C1522 C1523 1.363 . S
C1522 C1528 1.379 . S
C1522 N1530 1.356 . S
C1523 C1522 1.363 . S
C1523 C1529 1.363 . S
C1524 C1525 1.363 . S
C1524 C1529 1.379 . S
C1524 N1531 1.356 . S
C1525 C1524 1.363 . S
C1525 C1528 1.363 . S
N1526 C1528 1.356 . S
N1526 H1538 0.984 . S
N1526 H1539 0.985 . S
N1527 C1529 1.356 . S
N1527 H1532 0.984 . S
N1527 H1533 0.985 . S
C1528 C1522 1.379 . S
C1528 C1525 1.363 . S
C1528 N1526 1.356 . S
C1529 C1523 1.363 . S
C1529 C1524 1.379 . S
C1529 N1527 1.356 . S
N1530 C1522 1.356 . S
N1530 H1536 0.984 1_556 S
N1530 H1537 0.984 . S
N1531 C1524 1.356 . S
N1531 H1534 0.984 . S
N1531 H1535 0.985 . S
H1532 N1527 0.984 . S
H1533 N1527 0.985 . S
H1534 N1531 0.984 . S
H1535 N1531 0.985 . S
H1536 N1530 0.984 1_554 S
H1537 N1530 0.984 . S
H1538 N1526 0.984 . S
H1539 N1526 0.985 . S
C1540 C1541 1.363 . S
C1540 C1546 1.379 . S
C1540 N1548 1.356 . S
C1541 C1540 1.363 . S
C1541 C1547 1.363 . S
C1542 C1543 1.363 1_455 S
C1542 C1547 1.379 . S
C1542 N1549 1.356 1_455 S
C1543 C1542 1.363 1_655 S
C1543 C1546 1.363 1_655 S
N1544 C1546 1.356 . S
N1544 H1556 0.984 . S
N1544 H1557 0.985 1_455 S
N1545 C1547 1.356 . S
N1545 H1550 0.984 . S
N1545 H1551 0.985 . S
C1546 C1540 1.379 . S
C1546 C1543 1.363 1_455 S
C1546 N1544 1.356 . S
C1547 C1541 1.363 . S
C1547 C1542 1.379 . S
C1547 N1545 1.356 . S
N1548 C1540 1.356 . S
N1548 H1554 0.984 . S
N1548 H1555 0.984 . S
N1549 C1542 1.356 1_655 S
N1549 H1552 0.984 . S
N1549 H1553 0.985 . S
H1550 N1545 0.984 . S
H1551 N1545 0.985 . S
H1552 N1549 0.984 . S
H1553 N1549 0.985 . S
H1554 N1548 0.984 . S
H1555 N1548 0.984 . S
H1556 N1544 0.984 . S
H1557 N1544 0.985 1_655 S
C1558 C1559 1.363 . S
C1558 C1564 1.379 . S
C1558 N1566 1.356 . S
C1559 C1558 1.363 . S
C1559 C1565 1.363 . S
C1560 C1561 1.363 . S
C1560 C1565 1.379 . S
C1560 N1567 1.356 . S
C1561 C1560 1.363 . S
C1561 C1564 1.363 . S
N1562 C1564 1.356 . S
N1562 H1574 0.984 . S
N1562 H1575 0.985 . S
N1563 C1565 1.356 . S
N1563 H1568 0.984 . S
N1563 H1569 0.985 . S
C1564 C1558 1.379 . S
C1564 C1561 1.363 . S
C1564 N1562 1.356 . S
C1565 C1559 1.363 . S
C1565 C1560 1.379 . S
C1565 N1563 1.356 . S
N1566 C1558 1.356 . S
N1566 H1572 0.984 . S
N1566 H1573 0.984 . S
N1567 C1560 1.356 . S
N1567 H1570 0.984 . S
N1567 H1571 0.985 . S
H1568 N1563 0.984 . S
H1569 N1563 0.985 . S
H1570 N1567 0.984 . S
H1571 N1567 0.985 . S
H1572 N1566 0.984 . S
H1573 N1566 0.984 . S
H1574 N1562 0.984 . S
H1575 N1562 0.985 . S
C1576 C1577 1.363 . S
C1576 C1582 1.379 . S
C1576 N1584 1.356 . S
C1577 C1576 1.363 . S
C1577 C1583 1.363 . S
C1578 C1579 1.363 . S
C1578 C1583 1.379 1_455 S
C1578 N1585 1.356 . S
C1579 C1578 1.363 . S
C1579 C1582 1.363 1_455 S
N1580 C1582 1.356 . S
N1580 H1592 0.984 . S
N1580 H1593 0.985 1_655 S
N1581 C1583 1.356 . S
N1581 H1586 0.984 . S
N1581 H1587 0.985 . S
C1582 C1576 1.379 . S
C1582 C1579 1.363 1_655 S
C1582 N1580 1.356 . S
C1583 C1577 1.363 . S
C1583 C1578 1.379 1_655 S
C1583 N1581 1.356 . S
N1584 C1576 1.356 . S
N1584 H1590 0.984 . S
N1584 H1591 0.984 . S
N1585 C1578 1.356 . S
N1585 H1588 0.984 . S
N1585 H1589 0.985 . S
H1586 N1581 0.984 . S
H1587 N1581 0.985 . S
H1588 N1585 0.984 . S
H1589 N1585 0.985 . S
H1590 N1584 0.984 . S
H1591 N1584 0.984 . S
H1592 N1580 0.984 . S
H1593 N1580 0.985 1_455 S
C1594 C1595 1.363 . S
C1594 C1600 1.379 . S
C1594 N1602 1.356 . S
C1595 C1594 1.363 . S
C1595 C1601 1.363 . S
C1596 C1597 1.363 . S
C1596 C1601 1.379 . S
C1596 N1603 1.356 . S
C1597 C1596 1.363 . S
C1597 C1600 1.363 . S
N1598 C1600 1.356 . S
N1598 H1610 0.984 . S
N1598 H1611 0.985 . S
N1599 C1601 1.356 . S
N1599 H1604 0.984 . S
N1599 H1605 0.985 . S
C1600 C1594 1.379 . S
C1600 C1597 1.363 . S
C1600 N1598 1.356 . S
C1601 C1595 1.363 . S
C1601 C1596 1.379 . S
C1601 N1599 1.356 . S
N1602 C1594 1.356 . S
N1602 H1608 0.984 . S
N1602 H1609 0.984 . S
N1603 C1596 1.356 . S
N1603 H1606 0.984 . S
N1603 H1607 0.985 . S
H1604 N1599 0.984 . S
H1605 N1599 0.985 . S
H1606 N1603 0.984 . S
H1607 N1603 0.985 . S
H1608 N1602 0.984 . S
H1609 N1602 0.984 . S
H1610 N1598 0.984 . S
H1611 N1598 0.985 . S
C1612 C1613 1.363 . S
C1612 C1618 1.379 1_455 S
C1612 N1620 1.356 . S
C1613 C1612 1.363 . S
C1613 C1619 1.363 . S
C1614 C1615 1.363 1_455 S
C1614 C1619 1.379 . S
C1614 N1621 1.356 1_455 S
C1615 C1614 1.363 1_655 S
C1615 C1618 1.363 . S
N1616 C1618 1.356 . S
N1616 H1628 0.984 . S
N1616 H1629 0.985 . S
N1617 C1619 1.356 . S
N1617 H1622 0.984 . S
N1617 H1623 0.985 . S
C1618 C1612 1.379 1_655 S
C1618 C1615 1.363 . S
C1618 N1616 1.356 . S
C1619 C1613 1.363 . S
C1619 C1614 1.379 . S
C1619 N1617 1.356 . S
N1620 C1612 1.356 . S
N1620 H1626 0.984 . S
N1620 H1627 0.984 . S
N1621 C1614 1.356 1_655 S
N1621 H1624 0.984 . S
N1621 H1625 0.985 1_655 S
H1622 N1617 0.984 . S
H1623 N1617 0.985 . S
H1624 N1621 0.984 . S
H1625 N1621 0.985 1_455 S
H1626 N1620 0.984 . S
H1627 N1620 0.984 . S
H1628 N1616 0.984 . S
H1629 N1616 0.985 . S
C1630 C1631 1.363 . S
C1630 C1636 1.379 . S
C1630 N1638 1.356 . S
C1631 C1630 1.363 . S
C1631 C1637 1.363 . S
C1632 C1633 1.363 . S
C1632 C1637 1.379 . S
C1632 N1639 1.356 . S
C1633 C1632 1.363 . S
C1633 C1636 1.363 . S
N1634 C1636 1.356 . S
N1634 H1646 0.984 . S
N1634 H1647 0.985 . S
N1635 C1637 1.356 . S
N1635 H1640 0.984 . S
N1635 H1641 0.985 . S
C1636 C1630 1.379 . S
C1636 C1633 1.363 . S
C1636 N1634 1.356 . S
C1637 C1631 1.363 . S
C1637 C1632 1.379 . S
C1637 N1635 1.356 . S
N1638 C1630 1.356 . S
N1638 H1644 0.984 . S
N1638 H1645 0.984 . S
N1639 C1632 1.356 . S
N1639 H1642 0.984 . S
N1639 H1643 0.985 . S
H1640 N1635 0.984 . S
H1641 N1635 0.985 . S
H1642 N1639 0.984 . S
H1643 N1639 0.985 . S
H1644 N1638 0.984 . S
H1645 N1638 0.984 . S
H1646 N1634 0.984 . S
H1647 N1634 0.985 . S
C1648 C1649 1.363 . S
C1648 C1654 1.379 . S
C1648 N1656 1.356 . S
C1649 C1648 1.363 . S
C1649 C1655 1.363 . S
C1650 C1651 1.363 . S
C1650 C1655 1.379 . S
C1650 N1657 1.356 . S
C1651 C1650 1.363 . S
C1651 C1654 1.363 . S
N1652 C1654 1.356 . S
N1652 H1664 0.984 . S
N1652 H1665 0.985 . S
N1653 C1655 1.356 . S
N1653 H1658 0.984 . S
N1653 H1659 0.985 . S
C1654 C1648 1.379 . S
C1654 C1651 1.363 . S
C1654 N1652 1.356 . S
C1655 C1649 1.363 . S
C1655 C1650 1.379 . S
C1655 N1653 1.356 . S
N1656 C1648 1.356 . S
N1656 H1662 0.984 . S
N1656 H1663 0.984 . S
N1657 C1650 1.356 . S
N1657 H1660 0.984 . S
N1657 H1661 0.985 . S
H1658 N1653 0.984 . S
H1659 N1653 0.985 . S
H1660 N1657 0.984 . S
H1661 N1657 0.985 . S
H1662 N1656 0.984 . S
H1663 N1656 0.984 . S
H1664 N1652 0.984 . S
H1665 N1652 0.985 . S
C1666 C1667 1.363 . S
C1666 C1672 1.379 . S
C1666 N1674 1.356 . S
C1667 C1666 1.363 . S
C1667 C1673 1.363 . S
C1668 C1669 1.363 . S
C1668 C1673 1.379 . S
C1668 N1675 1.356 . S
C1669 C1668 1.363 . S
C1669 C1672 1.363 . S
N1670 C1672 1.356 . S
N1670 H1682 0.984 . S
N1670 H1683 0.985 . S
N1671 C1673 1.356 . S
N1671 H1676 0.984 . S
N1671 H1677 0.983 1_655 S
C1672 C1666 1.379 . S
C1672 C1669 1.363 . S
C1672 N1670 1.356 . S
C1673 C1667 1.363 . S
C1673 C1668 1.379 . S
C1673 N1671 1.356 . S
N1674 C1666 1.356 . S
N1674 H1680 0.984 . S
N1674 H1681 0.984 . S
N1675 C1668 1.356 . S
N1675 H1678 0.984 . S
N1675 H1679 0.985 . S
H1676 N1671 0.984 . S
H1677 N1671 0.983 1_455 S
H1678 N1675 0.984 . S
H1679 N1675 0.985 . S
H1680 N1674 0.984 . S
H1681 N1674 0.984 . S
H1682 N1670 0.984 . S
H1683 N1670 0.985 . S
C1684 C1685 1.363 . S
C1684 C1690 1.379 . S
C1684 N1692 1.356 . S
C1685 C1684 1.363 . S
C1685 C1691 1.363 . S
C1686 C1687 1.363 . S
C1686 C1691 1.379 . S
C1686 N1693 1.356 . S
C1687 C1686 1.363 . S
C1687 C1690 1.363 . S
N1688 C1690 1.356 . S
N1688 H1700 0.984 . S
N1688 H1701 0.985 . S
N1689 C1691 1.356 . S
N1689 H1694 0.984 . S
N1689 H1695 0.985 . S
C1690 C1684 1.379 . S
C1690 C1687 1.363 . S
C1690 N1688 1.356 . S
C1691 C1685 1.363 . S
C1691 C1686 1.379 . S
C1691 N1689 1.356 . S
N1692 C1684 1.356 . S
N1692 H1698 0.984 . S
N1692 H1699 0.984 . S
N1693 C1686 1.356 . S
N1693 H1696 0.984 . S
N1693 H1697 0.985 . S
H1694 N1689 0.984 . S
H1695 N1689 0.985 . S
H1696 N1693 0.984 . S
H1697 N1693 0.985 . S
H1698 N1692 0.984 . S
H1699 N1692 0.984 . S
H1700 N1688 0.984 . S
H1701 N1688 0.985 . S
C1702 C1703 1.363 . S
C1702 C1708 1.379 1_556 S
C1702 N1710 1.356 . S
C1703 C1702 1.363 . S
C1703 C1709 1.363 . S
C1704 C1705 1.363 1_556 S
C1704 C1709 1.379 . S
C1704 N1711 1.356 . S
C1705 C1704 1.363 1_554 S
C1705 C1708 1.363 . S
N1706 C1708 1.356 . S
N1706 H1718 0.984 . S
N1706 H1719 0.985 . S
N1707 C1709 1.356 . S
N1707 H1712 0.984 . S
N1707 H1713 0.985 . S
C1708 C1702 1.379 1_554 S
C1708 C1705 1.363 . S
C1708 N1706 1.356 . S
C1709 C1703 1.363 . S
C1709 C1704 1.379 . S
C1709 N1707 1.356 . S
N1710 C1702 1.356 . S
N1710 H1716 0.984 . S
N1710 H1717 0.984 . S
N1711 C1704 1.356 . S
N1711 H1714 0.984 1_556 S
N1711 H1715 0.985 . S
H1712 N1707 0.984 . S
H1713 N1707 0.985 . S
H1714 N1711 0.984 1_554 S
H1715 N1711 0.985 . S
H1716 N1710 0.984 . S
H1717 N1710 0.984 . S
H1718 N1706 0.984 . S
H1719 N1706 0.985 . S
C1720 C1721 1.363 . S
C1720 C1726 1.379 . S
C1720 N1728 1.356 . S
C1721 C1720 1.363 . S
C1721 C1727 1.363 . S
C1722 C1723 1.363 . S
C1722 C1727 1.379 . S
C1722 N1729 1.356 . S
C1723 C1722 1.363 . S
C1723 C1726 1.363 . S
N1724 C1726 1.356 . S
N1724 H1736 0.984 . S
N1724 H1737 0.985 . S
N1725 C1727 1.356 . S
N1725 H1730 0.984 . S
N1725 H1731 0.985 . S
C1726 C1720 1.379 . S
C1726 C1723 1.363 . S
C1726 N1724 1.356 . S
C1727 C1721 1.363 . S
C1727 C1722 1.379 . S
C1727 N1725 1.356 . S
N1728 C1720 1.356 . S
N1728 H1734 0.984 . S
N1728 H1735 0.984 . S
N1729 C1722 1.356 . S
N1729 H1732 0.984 . S
N1729 H1733 0.985 . S
H1730 N1725 0.984 . S
H1731 N1725 0.985 . S
H1732 N1729 0.984 . S
H1733 N1729 0.985 . S
H1734 N1728 0.984 . S
H1735 N1728 0.984 . S
H1736 N1724 0.984 . S
H1737 N1724 0.985 . S
C1738 C1739 1.363 . S
C1738 C1744 1.379 . S
C1738 N1746 1.356 . S
C1739 C1738 1.363 . S
C1739 C1745 1.363 . S
C1740 C1741 1.363 . S
C1740 C1745 1.379 . S
C1740 N1747 1.356 . S
C1741 C1740 1.363 . S
C1741 C1744 1.363 . S
N1742 C1744 1.356 . S
N1742 H1754 0.984 . S
N1742 H1755 0.985 . S
N1743 C1745 1.356 . S
N1743 H1748 0.984 . S
N1743 H1749 0.985 . S
C1744 C1738 1.379 . S
C1744 C1741 1.363 . S
C1744 N1742 1.356 . S
C1745 C1739 1.363 . S
C1745 C1740 1.379 . S
C1745 N1743 1.356 . S
N1746 C1738 1.356 . S
N1746 H1752 0.984 . S
N1746 H1753 0.984 . S
N1747 C1740 1.356 . S
N1747 H1750 0.984 . S
N1747 H1751 0.985 . S
H1748 N1743 0.984 . S
H1749 N1743 0.985 . S
H1750 N1747 0.984 . S
H1751 N1747 0.985 . S
H1752 N1746 0.984 . S
H1753 N1746 0.984 . S
H1754 N1742 0.984 . S
H1755 N1742 0.985 . S
C1756 C1757 1.363 . S
C1756 C1762 1.379 . S
C1756 N1764 1.356 . S
C1757 C1756 1.363 . S
C1757 C1763 1.363 . S
C1758 C1759 1.363 . S
C1758 C1763 1.379 . S
C1758 N1765 1.356 . S
C1759 C1758 1.363 . S
C1759 C1762 1.363 . S
N1760 C1762 1.356 . S
N1760 H1772 0.984 . S
N1760 H1773 0.985 . S
N1761 C1763 1.356 . S
N1761 H1766 0.984 . S
N1761 H1767 0.985 . S
C1762 C1756 1.379 . S
C1762 C1759 1.363 . S
C1762 N1760 1.356 . S
C1763 C1757 1.363 . S
C1763 C1758 1.379 . S
C1763 N1761 1.356 . S
N1764 C1756 1.356 . S
N1764 H1770 0.984 . S
N1764 H1771 0.984 . S
N1765 C1758 1.356 . S
N1765 H1768 0.984 . S
N1765 H1769 0.985 . S
H1766 N1761 0.984 . S
H1767 N1761 0.985 . S
H1768 N1765 0.984 . S
H1769 N1765 0.985 . S
H1770 N1764 0.984 . S
H1771 N1764 0.984 . S
H1772 N1760 0.984 . S
H1773 N1760 0.985 . S
C1774 C1775 1.363 . S
C1774 C1780 1.379 1_554 S
C1774 N1782 1.356 . S
C1775 C1774 1.363 . S
C1775 C1781 1.363 . S
C1776 C1777 1.363 1_554 S
C1776 C1781 1.379 . S
C1776 N1783 1.356 . S
C1777 C1776 1.363 1_556 S
C1777 C1780 1.363 . S
N1778 C1780 1.356 . S
N1778 H1790 0.984 . S
N1778 H1791 0.985 . S
N1779 C1781 1.356 . S
N1779 H1784 0.984 . S
N1779 H1785 0.985 . S
C1780 C1774 1.379 1_556 S
C1780 C1777 1.363 . S
C1780 N1778 1.356 . S
C1781 C1775 1.363 . S
C1781 C1776 1.379 . S
C1781 N1779 1.356 . S
N1782 C1774 1.356 . S
N1782 H1788 0.984 . S
N1782 H1789 0.984 . S
N1783 C1776 1.356 . S
N1783 H1786 0.984 1_554 S
N1783 H1787 0.985 . S
H1784 N1779 0.984 . S
H1785 N1779 0.985 . S
H1786 N1783 0.984 1_556 S
H1787 N1783 0.985 . S
H1788 N1782 0.984 . S
H1789 N1782 0.984 . S
H1790 N1778 0.984 . S
H1791 N1778 0.985 . S
C1792 C1793 1.363 . S
C1792 C1798 1.379 . S
C1792 N1800 1.356 . S
C1793 C1792 1.363 . S
C1793 C1799 1.363 . S
C1794 C1795 1.363 . S
C1794 C1799 1.379 . S
C1794 N1801 1.356 . S
C1795 C1794 1.363 . S
C1795 C1798 1.363 . S
N1796 C1798 1.356 . S
N1796 H1808 0.984 . S
N1796 H1809 0.985 . S
N1797 C1799 1.356 . S
N1797 H1802 0.984 . S
N1797 H1803 0.985 . S
C1798 C1792 1.379 . S
C1798 C1795 1.363 . S
C1798 N1796 1.356 . S
C1799 C1793 1.363 . S
C1799 C1794 1.379 . S
C1799 N1797 1.356 . S
N1800 C1792 1.356 . S
N1800 H1806 0.984 1_565 S
N1800 H1807 0.984 1_565 S
N1801 C1794 1.356 . S
N1801 H1804 0.984 . S
N1801 H1805 0.985 . S
H1802 N1797 0.984 . S
H1803 N1797 0.985 . S
H1804 N1801 0.984 . S
H1805 N1801 0.985 . S
H1806 N1800 0.984 1_545 S
H1807 N1800 0.984 1_545 S
H1808 N1796 0.984 . S
H1809 N1796 0.985 . S
C1810 C1811 1.363 . S
C1810 C1816 1.379 . S
C1810 N1818 1.356 . S
C1811 C1810 1.363 . S
C1811 C1817 1.363 . S
C1812 C1813 1.363 1_565 S
C1812 C1817 1.379 . S
C1812 N1819 1.356 1_565 S
C1813 C1812 1.363 1_545 S
C1813 C1816 1.363 1_545 S
N1814 C1816 1.356 1_545 S
N1814 H1826 0.984 . S
N1814 H1827 0.985 . S
N1815 C1817 1.356 . S
N1815 H1820 0.984 . S
N1815 H1821 0.985 . S
C1816 C1810 1.379 . S
C1816 C1813 1.363 1_565 S
C1816 N1814 1.356 1_565 S
C1817 C1811 1.363 . S
C1817 C1812 1.379 . S
C1817 N1815 1.356 . S
N1818 C1810 1.356 . S
N1818 H1824 0.984 . S
N1818 H1825 0.984 . S
N1819 C1812 1.356 1_545 S
N1819 H1822 0.984 . S
N1819 H1823 0.985 . S
H1820 N1815 0.984 . S
H1821 N1815 0.985 . S
H1822 N1819 0.984 . S
H1823 N1819 0.985 . S
H1824 N1818 0.984 . S
H1825 N1818 0.984 . S
H1826 N1814 0.984 . S
H1827 N1814 0.985 . S
C1828 C1829 1.363 . S
C1828 C1834 1.379 . S
C1828 N1836 1.356 . S
C1829 C1828 1.363 . S
C1829 C1835 1.363 . S
C1830 C1831 1.363 . S
C1830 C1835 1.379 . S
C1830 N1837 1.356 . S
C1831 C1830 1.363 . S
C1831 C1834 1.363 . S
N1832 C1834 1.356 . S
N1832 H1844 0.984 . S
N1832 H1845 0.985 . S
N1833 C1835 1.356 . S
N1833 H1838 0.984 . S
N1833 H1839 0.985 1_545 S
C1834 C1828 1.379 . S
C1834 C1831 1.363 . S
C1834 N1832 1.356 . S
C1835 C1829 1.363 . S
C1835 C1830 1.379 . S
C1835 N1833 1.356 . S
N1836 C1828 1.356 . S
N1836 H1842 0.984 . S
N1836 H1843 0.984 . S
N1837 C1830 1.356 . S
N1837 H1840 0.984 . S
N1837 H1841 0.985 . S
H1838 N1833 0.984 . S
H1839 N1833 0.985 1_565 S
H1840 N1837 0.984 . S
H1841 N1837 0.985 . S
H1842 N1836 0.984 . S
H1843 N1836 0.984 . S
H1844 N1832 0.984 . S
H1845 N1832 0.985 . S
C1846 C1847 1.363 . S
C1846 C1852 1.379 . S
C1846 N1854 1.356 . S
C1847 C1846 1.363 . S
C1847 C1853 1.363 . S
C1848 C1849 1.363 . S
C1848 C1853 1.379 1_565 S
C1848 N1855 1.356 . S
C1849 C1848 1.363 . S
C1849 C1852 1.363 1_565 S
N1850 C1852 1.356 . S
N1850 H1862 0.984 . S
N1850 H1863 0.985 1_545 S
N1851 C1853 1.356 . S
N1851 H1856 0.984 . S
N1851 H1857 0.985 1_554 S
C1852 C1846 1.379 . S
C1852 C1849 1.363 1_545 S
C1852 N1850 1.356 . S
C1853 C1847 1.363 . S
C1853 C1848 1.379 1_545 S
C1853 N1851 1.356 . S
N1854 C1846 1.356 . S
N1854 H1860 0.984 . S
N1854 H1861 0.984 . S
N1855 C1848 1.356 . S
N1855 H1858 0.984 . S
N1855 H1859 0.985 . S
H1856 N1851 0.984 . S
H1857 N1851 0.985 1_556 S
H1858 N1855 0.984 . S
H1859 N1855 0.985 . S
H1860 N1854 0.984 . S
H1861 N1854 0.984 . S
H1862 N1850 0.984 . S
H1863 N1850 0.985 1_565 S
C1864 C1865 1.363 . S
C1864 C1870 1.379 . S
C1864 N1872 1.356 . S
C1865 C1864 1.363 . S
C1865 C1871 1.363 . S
C1866 C1867 1.363 . S
C1866 C1871 1.379 . S
C1866 N1873 1.356 . S
C1867 C1866 1.363 . S
C1867 C1870 1.363 . S
N1868 C1870 1.356 . S
N1868 H1880 0.984 . S
N1868 H1881 0.985 . S
N1869 C1871 1.356 . S
N1869 H1874 0.984 . S
N1869 H1875 0.985 . S
C1870 C1864 1.379 . S
C1870 C1867 1.363 . S
C1870 N1868 1.356 . S
C1871 C1865 1.363 . S
C1871 C1866 1.379 . S
C1871 N1869 1.356 . S
N1872 C1864 1.356 . S
N1872 H1878 0.984 1_545 S
N1872 H1879 0.985 . S
N1873 C1866 1.356 . S
N1873 H1876 0.984 . S
N1873 H1877 0.985 . S
H1874 N1869 0.984 . S
H1875 N1869 0.985 . S
H1876 N1873 0.984 . S
H1877 N1873 0.985 . S
H1878 N1872 0.984 1_565 S
H1879 N1872 0.985 . S
H1880 N1868 0.984 . S
H1881 N1868 0.985 . S
C1882 C1883 1.363 . S
C1882 C1888 1.379 1_565 S
C1882 N1890 1.356 . S
C1883 C1882 1.363 . S
C1883 C1889 1.363 . S
C1884 C1885 1.363 1_565 S
C1884 C1889 1.379 . S
C1884 N1891 1.356 1_565 S
C1885 C1884 1.363 1_545 S
C1885 C1888 1.363 . S
N1886 C1888 1.356 . S
N1886 H1898 0.984 . S
N1886 H1899 0.985 . S
N1887 C1889 1.356 . S
N1887 H1892 0.984 . S
N1887 H1893 0.985 . S
C1888 C1882 1.379 1_545 S
C1888 C1885 1.363 . S
C1888 N1886 1.356 . S
C1889 C1883 1.363 . S
C1889 C1884 1.379 . S
C1889 N1887 1.356 . S
N1890 C1882 1.356 . S
N1890 H1896 0.984 . S
N1890 H1897 0.984 . S
N1891 C1884 1.356 1_545 S
N1891 H1894 0.984 . S
N1891 H1895 0.985 . S
H1892 N1887 0.984 . S
H1893 N1887 0.985 . S
H1894 N1891 0.984 . S
H1895 N1891 0.985 . S
H1896 N1890 0.984 . S
H1897 N1890 0.984 . S
H1898 N1886 0.984 . S
H1899 N1886 0.985 . S
C1900 C1901 1.363 . S
C1900 C1906 1.379 . S
C1900 N1908 1.356 . S
C1901 C1900 1.363 . S
C1901 C1907 1.363 . S
C1902 C1903 1.363 . S
C1902 C1907 1.379 . S
C1902 N1909 1.356 . S
C1903 C1902 1.363 . S
C1903 C1906 1.363 . S
N1904 C1906 1.356 . S
N1904 H1916 0.984 . S
N1904 H1917 0.985 . S
N1905 C1907 1.356 . S
N1905 H1910 0.984 1_565 S
N1905 H1911 0.993 . S
C1906 C1900 1.379 . S
C1906 C1903 1.363 . S
C1906 N1904 1.356 . S
C1907 C1901 1.363 . S
C1907 C1902 1.379 . S
C1907 N1905 1.356 . S
N1908 C1900 1.356 . S
N1908 H1914 0.984 . S
N1908 H1915 0.984 . S
N1909 C1902 1.356 . S
N1909 H1912 0.984 . S
N1909 H1913 0.985 . S
H1910 N1905 0.984 1_545 S
H1911 N1905 0.993 . S
H1912 N1909 0.984 . S
H1913 N1909 0.985 . S
H1914 N1908 0.984 . S
H1915 N1908 0.984 . S
H1916 N1904 0.984 . S
H1917 N1904 0.985 . S
C1918 C1919 1.363 . S
C1918 C1924 1.379 . S
C1918 N1926 1.356 . S
C1919 C1918 1.363 . S
C1919 C1925 1.363 . S
C1920 C1921 1.363 1_545 S
C1920 C1925 1.379 . S
C1920 N1927 1.356 1_545 S
C1921 C1920 1.363 1_565 S
C1921 C1924 1.363 1_565 S
N1922 C1924 1.356 1_565 S
N1922 H1934 0.984 . S
N1922 H1935 0.985 . S
N1923 C1925 1.356 . S
N1923 H1928 0.984 . S
N1923 H1929 0.985 1_556 S
C1924 C1918 1.379 . S
C1924 C1921 1.363 1_545 S
C1924 N1922 1.356 1_545 S
C1925 C1919 1.363 . S
C1925 C1920 1.379 . S
C1925 N1923 1.356 . S
N1926 C1918 1.356 . S
N1926 H1932 0.984 . S
N1926 H1933 0.984 . S
N1927 C1920 1.356 1_565 S
N1927 H1930 0.984 . S
N1927 H1931 0.976 1_566 S
H1928 N1923 0.984 . S
H1929 N1923 0.985 1_554 S
H1930 N1927 0.984 . S
H1931 N1927 0.976 1_544 S
H1932 N1926 0.984 . S
H1933 N1926 0.984 . S
H1934 N1922 0.984 . S
H1935 N1922 0.985 . S
C1936 C1937 1.363 . S
C1936 C1942 1.379 . S
C1936 N1944 1.356 . S
C1937 C1936 1.363 . S
C1937 C1943 1.363 . S
C1938 C1939 1.363 . S
C1938 C1943 1.379 . S
C1938 N1945 1.356 . S
C1939 C1938 1.363 . S
C1939 C1942 1.363 . S
N1940 C1942 1.356 . S
N1940 H1952 0.984 . S
N1940 H1953 0.985 . S
N1941 C1943 1.356 . S
N1941 H1946 0.984 1_556 S
N1941 H1947 0.985 1_556 S
C1942 C1936 1.379 . S
C1942 C1939 1.363 . S
C1942 N1940 1.356 . S
C1943 C1937 1.363 . S
C1943 C1938 1.379 . S
C1943 N1941 1.356 . S
N1944 C1936 1.356 . S
N1944 H1950 0.984 . S
N1944 H1951 0.984 . S
N1945 C1938 1.356 . S
N1945 H1948 0.984 . S
N1945 H1949 0.985 . S
H1946 N1941 0.984 1_554 S
H1947 N1941 0.985 1_554 S
H1948 N1945 0.984 . S
H1949 N1945 0.985 . S
H1950 N1944 0.984 . S
H1951 N1944 0.984 . S
H1952 N1940 0.984 . S
H1953 N1940 0.985 . S
C1954 C1955 1.363 . S
C1954 C1960 1.379 . S
C1954 N1962 1.356 . S
C1955 C1954 1.363 . S
C1955 C1961 1.363 . S
C1956 C1957 1.363 . S
C1956 C1961 1.379 . S
C1956 N1963 1.356 . S
C1957 C1956 1.363 . S
C1957 C1960 1.363 . S
N1958 C1960 1.356 . S
N1958 H1970 0.984 . S
N1958 H1971 0.985 . S
N1959 C1961 1.356 . S
N1959 H1964 0.984 . S
N1959 H1965 0.985 . S
C1960 C1954 1.379 . S
C1960 C1957 1.363 . S
C1960 N1958 1.356 . S
C1961 C1955 1.363 . S
C1961 C1956 1.379 . S
C1961 N1959 1.356 . S
N1962 C1954 1.356 . S
N1962 H1968 0.984 . S
N1962 H1969 0.984 . S
N1963 C1956 1.356 . S
N1963 H1966 0.984 . S
N1963 H1967 0.985 . S
H1964 N1959 0.984 . S
H1965 N1959 0.985 . S
H1966 N1963 0.984 . S
H1967 N1963 0.985 . S
H1968 N1962 0.984 . S
H1969 N1962 0.984 . S
H1970 N1958 0.984 . S
H1971 N1958 0.985 . S
C1972 C1973 1.363 . S
C1972 C1978 1.379 . S
C1972 N1980 1.356 . S
C1973 C1972 1.363 . S
C1973 C1979 1.363 . S
C1974 C1975 1.363 1_655 S
C1974 C1979 1.379 . S
C1974 N1981 1.356 1_655 S
C1975 C1974 1.363 1_455 S
C1975 C1978 1.363 1_455 S
N1976 C1978 1.356 1_455 S
N1976 H1988 0.984 . S
N1976 H1989 0.985 . S
N1977 C1979 1.356 . S
N1977 H1982 0.984 . S
N1977 H1983 0.985 . S
C1978 C1972 1.379 . S
C1978 C1975 1.363 1_655 S
C1978 N1976 1.356 1_655 S
C1979 C1973 1.363 . S
C1979 C1974 1.379 . S
C1979 N1977 1.356 . S
N1980 C1972 1.356 . S
N1980 H1986 0.984 . S
N1980 H1987 0.984 . S
N1981 C1974 1.356 1_455 S
N1981 H1984 0.984 . S
N1981 H1985 0.985 . S
H1982 N1977 0.984 . S
H1983 N1977 0.985 . S
H1984 N1981 0.984 . S
H1985 N1981 0.985 . S
H1986 N1980 0.984 . S
H1987 N1980 0.984 . S
H1988 N1976 0.984 . S
H1989 N1976 0.985 . S
C1990 C1991 1.363 . S
C1990 C1996 1.379 . S
C1990 N1998 1.356 . S
C1991 C1990 1.363 . S
C1991 C1997 1.363 . S
C1992 C1993 1.363 . S
C1992 C1997 1.379 . S
C1992 N1999 1.356 . S
C1993 C1992 1.363 . S
C1993 C1996 1.363 . S
N1994 C1996 1.356 . S
N1994 H2006 0.984 . S
N1994 H2007 0.985 . S
N1995 C1997 1.356 . S
N1995 H2000 0.984 . S
N1995 H2001 0.985 . S
C1996 C1990 1.379 . S
C1996 C1993 1.363 . S
C1996 N1994 1.356 . S
C1997 C1991 1.363 . S
C1997 C1992 1.379 . S
C1997 N1995 1.356 . S
N1998 C1990 1.356 . S
N1998 H2004 0.984 . S
N1998 H2005 0.984 . S
N1999 C1992 1.356 . S
N1999 H2002 0.984 . S
N1999 H2003 0.985 . S
H2000 N1995 0.984 . S
H2001 N1995 0.985 . S
H2002 N1999 0.984 . S
H2003 N1999 0.985 . S
H2004 N1998 0.984 . S
H2005 N1998 0.984 . S
H2006 N1994 0.984 . S
H2007 N1994 0.985 . S
C2008 C2009 1.363 . S
C2008 C2014 1.379 . S
C2008 N2016 1.356 . S
C2009 C2008 1.363 . S
C2009 C2015 1.363 . S
C2010 C2011 1.363 1_455 S
C2010 C2015 1.379 . S
C2010 N2017 1.356 1_455 S
C2011 C2010 1.363 1_655 S
C2011 C2014 1.363 1_655 S
N2012 C2014 1.356 1_655 S
N2012 H2024 0.984 1_655 S
N2012 H2025 0.985 . S
N2013 C2015 1.356 . S
N2013 H2018 0.984 . S
N2013 H2019 0.985 . S
C2014 C2008 1.379 . S
C2014 C2011 1.363 1_455 S
C2014 N2012 1.356 1_455 S
C2015 C2009 1.363 . S
C2015 C2010 1.379 . S
C2015 N2013 1.356 . S
N2016 C2008 1.356 . S
N2016 H2022 0.984 1_565 S
N2016 H2023 0.984 . S
N2017 C2010 1.356 1_655 S
N2017 H2020 0.984 . S
N2017 H2021 0.985 . S
H2018 N2013 0.984 . S
H2019 N2013 0.985 . S
H2020 N2017 0.984 . S
H2021 N2017 0.985 . S
H2022 N2016 0.984 1_545 S
H2023 N2016 0.984 . S
H2024 N2012 0.984 1_455 S
H2025 N2012 0.985 . S
C2026 C2027 1.363 . S
C2026 C2032 1.379 . S
C2026 N2034 1.356 . S
C2027 C2026 1.363 . S
C2027 C2033 1.363 . S
C2028 C2029 1.363 . S
C2028 C2033 1.379 . S
C2028 N2035 1.356 . S
C2029 C2028 1.363 . S
C2029 C2032 1.363 . S
N2030 C2032 1.356 . S
N2030 H2042 0.984 . S
N2030 H2043 0.985 . S
N2031 C2033 1.356 . S
N2031 H2036 0.984 . S
N2031 H2037 0.985 . S
C2032 C2026 1.379 . S
C2032 C2029 1.363 . S
C2032 N2030 1.356 . S
C2033 C2027 1.363 . S
C2033 C2028 1.379 . S
C2033 N2031 1.356 . S
N2034 C2026 1.356 . S
N2034 H2040 0.984 . S
N2034 H2041 0.984 . S
N2035 C2028 1.356 . S
N2035 H2038 0.984 . S
N2035 H2039 0.985 . S
H2036 N2031 0.984 . S
H2037 N2031 0.985 . S
H2038 N2035 0.984 . S
H2039 N2035 0.985 . S
H2040 N2034 0.984 . S
H2041 N2034 0.984 . S
H2042 N2030 0.984 . S
H2043 N2030 0.985 . S
C2044 C2045 1.363 . S
C2044 C2050 1.379 1_655 S
C2044 N2052 1.356 . S
C2045 C2044 1.363 . S
C2045 C2051 1.363 . S
C2046 C2047 1.363 1_655 S
C2046 C2051 1.379 . S
C2046 N2053 1.356 1_655 S
C2047 C2046 1.363 1_455 S
C2047 C2050 1.363 . S
N2048 C2050 1.356 . S
N2048 H2060 0.984 . S
N2048 H2061 0.985 . S
N2049 C2051 1.356 . S
N2049 H2054 0.984 . S
N2049 H2055 0.985 . S
C2050 C2044 1.379 1_455 S
C2050 C2047 1.363 . S
C2050 N2048 1.356 . S
C2051 C2045 1.363 . S
C2051 C2046 1.379 . S
C2051 N2049 1.356 . S
N2052 C2044 1.356 . S
N2052 H2058 0.984 . S
N2052 H2059 0.984 . S
N2053 C2046 1.356 1_455 S
N2053 H2056 0.984 . S
N2053 H2057 0.982 1_455 S
H2054 N2049 0.984 . S
H2055 N2049 0.985 . S
H2056 N2053 0.984 . S
H2057 N2053 0.982 1_655 S
H2058 N2052 0.984 . S
H2059 N2052 0.984 . S
H2060 N2048 0.984 . S
H2061 N2048 0.985 . S
C2062 C2063 1.363 . S
C2062 C2068 1.379 . S
C2062 N2070 1.356 . S
C2063 C2062 1.363 . S
C2063 C2069 1.363 . S
C2064 C2065 1.363 . S
C2064 C2069 1.379 . S
C2064 N2071 1.356 . S
C2065 C2064 1.363 . S
C2065 C2068 1.363 . S
N2066 C2068 1.356 . S
N2066 H2078 0.984 . S
N2066 H2079 0.985 . S
N2067 C2069 1.356 . S
N2067 H2072 0.984 . S
N2067 H2073 0.985 . S
C2068 C2062 1.379 . S
C2068 C2065 1.363 . S
C2068 N2066 1.356 . S
C2069 C2063 1.363 . S
C2069 C2064 1.379 . S
C2069 N2067 1.356 . S
N2070 C2062 1.356 . S
N2070 H2076 0.984 . S
N2070 H2077 0.984 . S
N2071 C2064 1.356 . S
N2071 H2074 0.984 . S
N2071 H2075 0.985 . S
H2072 N2067 0.984 . S
H2073 N2067 0.985 . S
H2074 N2071 0.984 . S
H2075 N2071 0.985 . S
H2076 N2070 0.984 . S
H2077 N2070 0.984 . S
H2078 N2066 0.984 . S
H2079 N2066 0.985 . S
C2080 C2081 1.363 . S
C2080 C2086 1.379 . S
C2080 N2088 1.356 . S
C2081 C2080 1.363 . S
C2081 C2087 1.363 . S
C2082 C2083 1.363 . S
C2082 C2087 1.379 . S
C2082 N2089 1.356 . S
C2083 C2082 1.363 . S
C2083 C2086 1.363 . S
N2084 C2086 1.356 . S
N2084 H2096 0.984 . S
N2084 H2097 0.985 . S
N2085 C2087 1.356 . S
N2085 H2090 0.984 . S
N2085 H2091 0.985 . S
C2086 C2080 1.379 . S
C2086 C2083 1.363 . S
C2086 N2084 1.356 . S
C2087 C2081 1.363 . S
C2087 C2082 1.379 . S
C2087 N2085 1.356 . S
N2088 C2080 1.356 . S
N2088 H2094 0.984 . S
N2088 H2095 0.984 . S
N2089 C2082 1.356 . S
N2089 H2092 0.984 . S
N2089 H2093 0.985 . S
H2090 N2085 0.984 . S
H2091 N2085 0.985 . S
H2092 N2089 0.984 . S
H2093 N2089 0.985 . S
H2094 N2088 0.984 . S
H2095 N2088 0.984 . S
H2096 N2084 0.984 . S
H2097 N2084 0.985 . S
C2098 C2099 1.363 . S
C2098 C2104 1.403 . S
C2098 N2106 1.356 . S
C2099 C2098 1.363 . S
C2099 C2105 1.363 . S
C2100 C2101 1.363 1_554 S
C2100 C2105 1.379 . S
C2100 N2107 1.344 1_554 S
C2101 C2100 1.363 1_556 S
C2101 C2104 1.356 1_556 S
N2102 C2104 1.334 1_556 S
N2102 H2114 0.984 . S
N2102 H2115 0.985 . S
N2103 C2105 1.356 . S
N2103 H2108 0.984 . S
N2103 H2109 0.985 . S
C2104 C2098 1.403 . S
C2104 C2101 1.356 1_554 S
C2104 N2102 1.334 1_554 S
C2105 C2099 1.363 . S
C2105 C2100 1.379 . S
C2105 N2103 1.356 . S
N2106 C2098 1.356 . S
N2106 H2112 0.984 . S
N2106 H2113 0.984 . S
N2107 C2100 1.344 1_556 S
N2107 H2110 1.007 . S
N2107 H2111 0.974 1_556 S
H2108 N2103 0.984 . S
H2109 N2103 0.985 . S
H2110 N2107 1.007 . S
H2111 N2107 0.974 1_554 S
H2112 N2106 0.984 . S
H2113 N2106 0.984 . S
H2114 N2102 0.984 . S
H2115 N2102 0.985 . S
C2116 C2117 1.363 . S
C2116 C2122 1.379 . S
C2116 N2124 1.356 . S
C2117 C2116 1.363 . S
C2117 C2123 1.363 . S
C2118 C2119 1.363 . S
C2118 C2123 1.379 . S
C2118 N2125 1.356 . S
C2119 C2118 1.363 . S
C2119 C2122 1.363 . S
N2120 C2122 1.356 . S
N2120 H2132 0.984 . S
N2120 H2133 0.985 . S
N2121 C2123 1.356 . S
N2121 H2126 0.984 . S
N2121 H2127 0.985 . S
C2122 C2116 1.379 . S
C2122 C2119 1.363 . S
C2122 N2120 1.356 . S
C2123 C2117 1.363 . S
C2123 C2118 1.379 . S
C2123 N2121 1.356 . S
N2124 C2116 1.356 . S
N2124 H2130 0.984 . S
N2124 H2131 0.984 . S
N2125 C2118 1.356 . S
N2125 H2128 0.984 . S
N2125 H2129 0.985 . S
H2126 N2121 0.984 . S
H2127 N2121 0.985 . S
H2128 N2125 0.984 . S
H2129 N2125 0.985 . S
H2130 N2124 0.984 . S
H2131 N2124 0.984 . S
H2132 N2120 0.984 . S
H2133 N2120 0.985 . S
C2134 C2135 1.363 . S
C2134 C2140 1.379 . S
C2134 N2142 1.356 . S
C2135 C2134 1.363 . S
C2135 C2141 1.363 . S
C2136 C2137 1.363 . S
C2136 C2141 1.379 . S
C2136 N2143 1.356 . S
C2137 C2136 1.363 . S
C2137 C2140 1.363 . S
N2138 C2140 1.356 . S
N2138 H2150 0.984 . S
N2138 H2151 0.985 . S
N2139 C2141 1.356 . S
N2139 H2144 0.984 . S
N2139 H2145 0.985 . S
C2140 C2134 1.379 . S
C2140 C2137 1.363 . S
C2140 N2138 1.356 . S
C2141 C2135 1.363 . S
C2141 C2136 1.379 . S
C2141 N2139 1.356 . S
N2142 C2134 1.356 . S
N2142 H2148 0.976 1_655 S
N2142 H2149 0.984 . S
N2143 C2136 1.356 . S
N2143 H2146 0.984 . S
N2143 H2147 0.985 . S
H2144 N2139 0.984 . S
H2145 N2139 0.985 . S
H2146 N2143 0.984 . S
H2147 N2143 0.985 . S
H2148 N2142 0.976 1_455 S
H2149 N2142 0.984 . S
H2150 N2138 0.984 . S
H2151 N2138 0.985 . S
C2152 C2153 1.363 . S
C2152 C2158 1.379 . S
C2152 N2160 1.356 . S
C2153 C2152 1.363 . S
C2153 C2159 1.363 . S
C2154 C2155 1.363 . S
C2154 C2159 1.379 . S
C2154 N2161 1.356 . S
C2155 C2154 1.363 . S
C2155 C2158 1.363 . S
N2156 C2158 1.356 . S
N2156 H2168 0.984 . S
N2156 H2169 0.985 . S
N2157 C2159 1.356 . S
N2157 H2162 0.984 . S
N2157 H2163 0.985 . S
C2158 C2152 1.379 . S
C2158 C2155 1.363 . S
C2158 N2156 1.356 . S
C2159 C2153 1.363 . S
C2159 C2154 1.379 . S
C2159 N2157 1.356 . S
N2160 C2152 1.356 . S
N2160 H2166 0.984 . S
N2160 H2167 0.984 . S
N2161 C2154 1.356 . S
N2161 H2164 0.984 . S
N2161 H2165 0.985 . S
H2162 N2157 0.984 . S
H2163 N2157 0.985 . S
H2164 N2161 0.984 . S
H2165 N2161 0.985 . S
H2166 N2160 0.984 . S
H2167 N2160 0.984 . S
H2168 N2156 0.984 . S
H2169 N2156 0.985 . S
C2170 C2171 1.363 . S
C2170 C2176 1.379 . S
C2170 N2178 1.356 . S
C2171 C2170 1.363 . S
C2171 C2177 1.363 . S
C2172 C2173 1.363 . S
C2172 C2177 1.379 1_554 S
C2172 N2179 1.356 . S
C2173 C2172 1.363 . S
C2173 C2176 1.363 1_554 S
N2174 C2176 1.356 1_554 S
N2174 H2186 0.984 1_554 S
N2174 H2187 0.985 . S
N2175 C2177 1.356 1_455 S
N2175 H2180 0.984 . S
N2175 H2181 0.985 . S
C2176 C2170 1.379 . S
C2176 C2173 1.363 1_556 S
C2176 N2174 1.356 1_556 S
C2177 C2171 1.363 . S
C2177 C2172 1.379 1_556 S
C2177 N2175 1.356 1_655 S
N2178 C2170 1.356 . S
N2178 H2184 0.984 . S
N2178 H2185 0.984 . S
N2179 C2172 1.356 . S
N2179 H2182 0.984 . S
N2179 H2183 0.985 1_655 S
H2180 N2175 0.984 . S
H2181 N2175 0.985 . S
H2182 N2179 0.984 . S
H2183 N2179 0.985 1_455 S
H2184 N2178 0.984 . S
H2185 N2178 0.984 . S
H2186 N2174 0.984 1_556 S
H2187 N2174 0.985 . S
C2188 C2189 1.363 . S
C2188 C2194 1.379 . S
C2188 N2196 1.356 . S
C2189 C2188 1.363 . S
C2189 C2195 1.363 . S
C2190 C2191 1.363 . S
C2190 C2195 1.379 . S
C2190 N2197 1.356 . S
C2191 C2190 1.363 . S
C2191 C2194 1.363 . S
N2192 C2194 1.356 . S
N2192 H2204 0.984 . S
N2192 H2205 0.985 . S
N2193 C2195 1.356 . S
N2193 H2198 0.984 . S
N2193 H2199 0.985 . S
C2194 C2188 1.379 . S
C2194 C2191 1.363 . S
C2194 N2192 1.356 . S
C2195 C2189 1.363 . S
C2195 C2190 1.379 . S
C2195 N2193 1.356 . S
N2196 C2188 1.356 . S
N2196 H2202 0.984 . S
N2196 H2203 0.984 . S
N2197 C2190 1.356 . S
N2197 H2200 0.984 . S
N2197 H2201 0.985 . S
H2198 N2193 0.984 . S
H2199 N2193 0.985 . S
H2200 N2197 0.984 . S
H2201 N2197 0.985 . S
H2202 N2196 0.984 . S
H2203 N2196 0.984 . S
H2204 N2192 0.984 . S
H2205 N2192 0.985 . S
C2206 C2207 1.363 . S
C2206 C2212 1.379 . S
C2206 N2214 1.356 . S
C2207 C2206 1.363 . S
C2207 C2213 1.363 . S
C2208 C2209 1.363 . S
C2208 C2213 1.379 . S
C2208 N2215 1.356 . S
C2209 C2208 1.363 . S
C2209 C2212 1.363 . S
N2210 C2212 1.356 . S
N2210 H2222 0.984 . S
N2210 H2223 0.985 . S
N2211 C2213 1.356 . S
N2211 H2216 0.984 . S
N2211 H2217 0.985 . S
C2212 C2206 1.379 . S
C2212 C2209 1.363 . S
C2212 N2210 1.356 . S
C2213 C2207 1.363 . S
C2213 C2208 1.379 . S
C2213 N2211 1.356 . S
N2214 C2206 1.356 . S
N2214 H2220 0.984 . S
N2214 H2221 0.984 . S
N2215 C2208 1.356 . S
N2215 H2218 0.984 . S
N2215 H2219 0.985 . S
H2216 N2211 0.984 . S
H2217 N2211 0.985 . S
H2218 N2215 0.984 . S
H2219 N2215 0.985 . S
H2220 N2214 0.984 . S
H2221 N2214 0.984 . S
H2222 N2210 0.984 . S
H2223 N2210 0.985 . S
C2224 C2225 1.363 . S
C2224 C2230 1.379 . S
C2224 N2232 1.356 . S
C2225 C2224 1.363 . S
C2225 C2231 1.363 . S
C2226 C2227 1.363 . S
C2226 C2231 1.379 . S
C2226 N2233 1.356 . S
C2227 C2226 1.363 . S
C2227 C2230 1.363 . S
N2228 C2230 1.356 . S
N2228 H2240 0.984 . S
N2228 H2241 0.985 . S
N2229 C2231 1.356 . S
N2229 H2234 0.984 . S
N2229 H2235 0.985 . S
C2230 C2224 1.379 . S
C2230 C2227 1.363 . S
C2230 N2228 1.356 . S
C2231 C2225 1.363 . S
C2231 C2226 1.379 . S
C2231 N2229 1.356 . S
N2232 C2224 1.356 . S
N2232 H2238 0.984 . S
N2232 H2239 0.984 . S
N2233 C2226 1.356 . S
N2233 H2236 0.984 . S
N2233 H2237 0.985 . S
H2234 N2229 0.984 . S
H2235 N2229 0.985 . S
H2236 N2233 0.984 . S
H2237 N2233 0.985 . S
H2238 N2232 0.984 . S
H2239 N2232 0.984 . S
H2240 N2228 0.984 . S
H2241 N2228 0.985 . S
C2242 C2243 1.363 . S
C2242 C2248 1.379 . S
C2242 N2250 1.356 . S
C2243 C2242 1.363 . S
C2243 C2249 1.363 . S
C2244 C2245 1.363 . S
C2244 C2249 1.379 . S
C2244 N2251 1.356 . S
C2245 C2244 1.363 . S
C2245 C2248 1.363 . S
N2246 C2248 1.356 . S
N2246 H2258 0.984 . S
N2246 H2259 0.985 . S
N2247 C2249 1.362 . S
N2247 H2252 0.983 1_556 S
N2247 H2253 0.980 1_556 S
C2248 C2242 1.379 . S
C2248 C2245 1.363 . S
C2248 N2246 1.356 . S
C2249 C2243 1.363 . S
C2249 C2244 1.379 . S
C2249 N2247 1.362 . S
N2250 C2242 1.356 . S
N2250 H2256 0.984 . S
N2250 H2257 0.984 . S
N2251 C2244 1.356 . S
N2251 H2254 0.984 . S
N2251 H2255 0.985 . S
H2252 N2247 0.983 1_554 S
H2253 N2247 0.980 1_554 S
H2254 N2251 0.984 . S
H2255 N2251 0.985 . S
H2256 N2250 0.984 . S
H2257 N2250 0.984 . S
H2258 N2246 0.984 . S
H2259 N2246 0.985 . S
C2260 C2261 1.363 . S
C2260 C2266 1.379 . S
C2260 N2268 1.356 . S
C2261 C2260 1.363 . S
C2261 C2267 1.363 . S
C2262 C2263 1.363 . S
C2262 C2267 1.379 . S
C2262 N2269 1.356 . S
C2263 C2262 1.363 . S
C2263 C2266 1.363 . S
N2264 C2266 1.356 . S
N2264 H2276 0.984 . S
N2264 H2277 0.985 . S
N2265 C2267 1.356 . S
N2265 H2270 0.984 . S
N2265 H2271 0.985 . S
C2266 C2260 1.379 . S
C2266 C2263 1.363 . S
C2266 N2264 1.356 . S
C2267 C2261 1.363 . S
C2267 C2262 1.379 . S
C2267 N2265 1.356 . S
N2268 C2260 1.356 . S
N2268 H2274 0.984 . S
N2268 H2275 0.984 . S
N2269 C2262 1.356 . S
N2269 H2272 0.984 . S
N2269 H2273 0.985 . S
H2270 N2265 0.984 . S
H2271 N2265 0.985 . S
H2272 N2269 0.984 . S
H2273 N2269 0.985 . S
H2274 N2268 0.984 . S
H2275 N2268 0.984 . S
H2276 N2264 0.984 . S
H2277 N2264 0.985 . S
C2278 C2279 1.363 . S
C2278 C2284 1.379 . S
C2278 N2286 1.356 . S
C2279 C2278 1.363 . S
C2279 C2285 1.363 . S
C2280 C2281 1.363 . S
C2280 C2285 1.379 . S
C2280 N2287 1.356 . S
C2281 C2280 1.363 . S
C2281 C2284 1.363 . S
N2282 C2284 1.356 . S
N2282 H2294 0.984 . S
N2282 H2295 0.985 . S
N2283 C2285 1.356 . S
N2283 H2288 0.984 . S
N2283 H2289 0.985 . S
C2284 C2278 1.379 . S
C2284 C2281 1.363 . S
C2284 N2282 1.356 . S
C2285 C2279 1.363 . S
C2285 C2280 1.379 . S
C2285 N2283 1.356 . S
N2286 C2278 1.356 . S
N2286 H2292 0.984 . S
N2286 H2293 0.984 . S
N2287 C2280 1.356 . S
N2287 H2290 0.984 . S
N2287 H2291 0.985 . S
H2288 N2283 0.984 . S
H2289 N2283 0.985 . S
H2290 N2287 0.984 . S
H2291 N2287 0.985 . S
H2292 N2286 0.984 . S
H2293 N2286 0.984 . S
H2294 N2282 0.984 . S
H2295 N2282 0.985 . S
C2296 C2297 1.363 . S
C2296 C2302 1.379 . S
C2296 N2304 1.356 . S
C2297 C2296 1.363 . S
C2297 C2303 1.363 . S
C2298 C2299 1.363 . S
C2298 C2303 1.379 . S
C2298 N2305 1.356 . S
C2299 C2298 1.363 . S
C2299 C2302 1.363 . S
N2300 C2302 1.356 . S
N2300 H2312 0.984 . S
N2300 H2313 0.985 . S
N2301 C2303 1.356 . S
N2301 H2306 0.984 . S
N2301 H2307 0.985 . S
C2302 C2296 1.379 . S
C2302 C2299 1.363 . S
C2302 N2300 1.356 . S
C2303 C2297 1.363 . S
C2303 C2298 1.379 . S
C2303 N2301 1.356 . S
N2304 C2296 1.356 . S
N2304 H2310 0.984 . S
N2304 H2311 0.984 . S
N2305 C2298 1.356 . S
N2305 H2308 0.984 . S
N2305 H2309 0.985 . S
H2306 N2301 0.984 . S
H2307 N2301 0.985 . S
H2308 N2305 0.984 . S
H2309 N2305 0.985 . S
H2310 N2304 0.984 . S
H2311 N2304 0.984 . S
H2312 N2300 0.984 . S
H2313 N2300 0.985 . S
C2314 C2315 1.363 . S
C2314 C2320 1.379 . S
C2314 N2322 1.356 . S
C2315 C2314 1.363 . S
C2315 C2321 1.363 . S
C2316 C2317 1.363 . S
C2316 C2321 1.379 . S
C2316 N2323 1.356 . S
C2317 C2316 1.363 . S
C2317 C2320 1.363 . S
N2318 C2320 1.356 . S
N2318 H2330 0.984 . S
N2318 H2331 0.985 . S
N2319 C2321 1.356 . S
N2319 H2324 0.984 . S
N2319 H2325 0.985 . S
C2320 C2314 1.379 . S
C2320 C2317 1.363 . S
C2320 N2318 1.356 . S
C2321 C2315 1.363 . S
C2321 C2316 1.379 . S
C2321 N2319 1.356 . S
N2322 C2314 1.356 . S
N2322 H2328 0.984 . S
N2322 H2329 0.984 . S
N2323 C2316 1.356 . S
N2323 H2326 0.984 . S
N2323 H2327 0.985 . S
H2324 N2319 0.984 . S
H2325 N2319 0.985 . S
H2326 N2323 0.984 . S
H2327 N2323 0.985 . S
H2328 N2322 0.984 . S
H2329 N2322 0.984 . S
H2330 N2318 0.984 . S
H2331 N2318 0.985 . S
C2332 C2333 1.363 . S
C2332 C2338 1.379 . S
C2332 N2340 1.356 . S
C2333 C2332 1.363 . S
C2333 C2339 1.363 . S
C2334 C2335 1.363 . S
C2334 C2339 1.379 . S
C2334 N2341 1.356 . S
C2335 C2334 1.363 . S
C2335 C2338 1.363 . S
N2336 C2338 1.356 . S
N2336 H2348 0.984 . S
N2336 H2349 0.985 . S
N2337 C2339 1.356 . S
N2337 H2342 0.984 . S
N2337 H2343 0.985 . S
C2338 C2332 1.379 . S
C2338 C2335 1.363 . S
C2338 N2336 1.356 . S
C2339 C2333 1.363 . S
C2339 C2334 1.379 . S
C2339 N2337 1.356 . S
N2340 C2332 1.356 . S
N2340 H2346 0.984 . S
N2340 H2347 0.984 . S
N2341 C2334 1.356 . S
N2341 H2344 0.984 . S
N2341 H2345 0.985 . S
H2342 N2337 0.984 . S
H2343 N2337 0.985 . S
H2344 N2341 0.984 . S
H2345 N2341 0.985 . S
H2346 N2340 0.984 . S
H2347 N2340 0.984 . S
H2348 N2336 0.984 . S
H2349 N2336 0.985 . S
C2350 C2351 1.363 . S
C2350 C2356 1.379 . S
C2350 N2358 1.356 . S
C2351 C2350 1.363 . S
C2351 C2357 1.363 . S
C2352 C2353 1.363 . S
C2352 C2357 1.379 . S
C2352 N2359 1.356 . S
C2353 C2352 1.363 . S
C2353 C2356 1.363 . S
N2354 C2356 1.356 . S
N2354 H2366 0.984 . S
N2354 H2367 0.985 . S
N2355 C2357 1.356 . S
N2355 H2360 0.984 . S
N2355 H2361 0.985 . S
C2356 C2350 1.379 . S
C2356 C2353 1.363 . S
C2356 N2354 1.356 . S
C2357 C2351 1.363 . S
C2357 C2352 1.379 . S
C2357 N2355 1.356 . S
N2358 C2350 1.356 . S
N2358 H2364 0.984 . S
N2358 H2365 0.984 . S
N2359 C2352 1.356 . S
N2359 H2362 0.984 . S
N2359 H2363 0.985 . S
H2360 N2355 0.984 . S
H2361 N2355 0.985 . S
H2362 N2359 0.984 . S
H2363 N2359 0.985 . S
H2364 N2358 0.984 . S
H2365 N2358 0.984 . S
H2366 N2354 0.984 . S
H2367 N2354 0.985 . S
C2368 C2369 1.363 . S
C2368 C2374 1.379 . S
C2368 N2376 1.356 . S
C2369 C2368 1.363 . S
C2369 C2375 1.363 . S
C2370 C2371 1.363 . S
C2370 C2375 1.379 . S
C2370 N2377 1.356 . S
C2371 C2370 1.363 . S
C2371 C2374 1.363 . S
N2372 C2374 1.356 . S
N2372 H2384 0.984 . S
N2372 H2385 0.985 . S
N2373 C2375 1.356 . S
N2373 H2378 0.984 . S
N2373 H2379 0.985 . S
C2374 C2368 1.379 . S
C2374 C2371 1.363 . S
C2374 N2372 1.356 . S
C2375 C2369 1.363 . S
C2375 C2370 1.379 . S
C2375 N2373 1.356 . S
N2376 C2368 1.356 . S
N2376 H2382 0.984 . S
N2376 H2383 0.984 . S
N2377 C2370 1.356 . S
N2377 H2380 0.984 . S
N2377 H2381 0.985 . S
H2378 N2373 0.984 . S
H2379 N2373 0.985 . S
H2380 N2377 0.984 . S
H2381 N2377 0.985 . S
H2382 N2376 0.984 . S
H2383 N2376 0.984 . S
H2384 N2372 0.984 . S
H2385 N2372 0.985 . S
C2386 C2387 1.363 . S
C2386 C2392 1.379 . S
C2386 N2394 1.356 . S
C2387 C2386 1.363 . S
C2387 C2393 1.363 . S
C2388 C2389 1.363 . S
C2388 C2393 1.379 . S
C2388 N2395 1.356 . S
C2389 C2388 1.363 . S
C2389 C2392 1.363 . S
N2390 C2392 1.356 . S
N2390 H2402 0.984 . S
N2390 H2403 0.985 . S
N2391 C2393 1.356 . S
N2391 H2396 0.984 . S
N2391 H2397 0.985 . S
C2392 C2386 1.379 . S
C2392 C2389 1.363 . S
C2392 N2390 1.356 . S
C2393 C2387 1.363 . S
C2393 C2388 1.379 . S
C2393 N2391 1.356 . S
N2394 C2386 1.356 . S
N2394 H2400 0.984 . S
N2394 H2401 0.984 . S
N2395 C2388 1.356 . S
N2395 H2398 0.984 . S
N2395 H2399 0.985 . S
H2396 N2391 0.984 . S
H2397 N2391 0.985 . S
H2398 N2395 0.984 . S
H2399 N2395 0.985 . S
H2400 N2394 0.984 . S
H2401 N2394 0.984 . S
H2402 N2390 0.984 . S
H2403 N2390 0.985 . S
C2404 C2405 1.363 . S
C2404 C2410 1.379 . S
C2404 N2412 1.356 . S
C2405 C2404 1.363 . S
C2405 C2411 1.363 . S
C2406 C2407 1.363 . S
C2406 C2411 1.379 . S
C2406 N2413 1.356 . S
C2407 C2406 1.363 . S
C2407 C2410 1.363 . S
N2408 C2410 1.356 . S
N2408 H2420 0.984 . S
N2408 H2421 0.985 . S
N2409 C2411 1.356 . S
N2409 H2414 0.984 . S
N2409 H2415 0.985 . S
C2410 C2404 1.379 . S
C2410 C2407 1.363 . S
C2410 N2408 1.356 . S
C2411 C2405 1.363 . S
C2411 C2406 1.379 . S
C2411 N2409 1.356 . S
N2412 C2404 1.356 . S
N2412 H2418 0.984 . S
N2412 H2419 0.984 . S
N2413 C2406 1.356 . S
N2413 H2416 0.984 . S
N2413 H2417 0.985 . S
H2414 N2409 0.984 . S
H2415 N2409 0.985 . S
H2416 N2413 0.984 . S
H2417 N2413 0.985 . S
H2418 N2412 0.984 . S
H2419 N2412 0.984 . S
H2420 N2408 0.984 . S
H2421 N2408 0.985 . S
C2422 C2423 1.363 . S
C2422 C2428 1.379 . S
C2422 N2430 1.356 . S
C2423 C2422 1.363 . S
C2423 C2429 1.363 . S
C2424 C2425 1.363 . S
C2424 C2429 1.379 . S
C2424 N2431 1.356 . S
C2425 C2424 1.363 . S
C2425 C2428 1.363 . S
N2426 C2428 1.356 . S
N2426 H2438 0.984 . S
N2426 H2439 0.985 . S
N2427 C2429 1.356 . S
N2427 H2432 0.984 . S
N2427 H2433 0.985 1_556 S
C2428 C2422 1.379 . S
C2428 C2425 1.363 . S
C2428 N2426 1.356 . S
C2429 C2423 1.363 . S
C2429 C2424 1.379 . S
C2429 N2427 1.356 . S
N2430 C2422 1.356 . S
N2430 H2436 0.984 . S
N2430 H2437 0.984 . S
N2431 C2424 1.356 . S
N2431 H2434 0.984 . S
N2431 H2435 0.985 . S
H2432 N2427 0.984 . S
H2433 N2427 0.985 1_554 S
H2434 N2431 0.984 . S
H2435 N2431 0.985 . S
H2436 N2430 0.984 . S
H2437 N2430 0.984 . S
H2438 N2426 0.984 . S
H2439 N2426 0.985 . S
C2440 C2441 1.363 . S
C2440 C2446 1.379 . S
C2440 N2448 1.356 . S
C2441 C2440 1.363 . S
C2441 C2447 1.363 . S
C2442 C2443 1.363 . S
C2442 C2447 1.379 . S
C2442 N2449 1.356 . S
C2443 C2442 1.363 . S
C2443 C2446 1.363 . S
N2444 C2446 1.356 . S
N2444 H2456 0.984 . S
N2444 H2457 0.985 . S
N2445 C2447 1.356 . S
N2445 H2450 0.984 . S
N2445 H2451 0.985 . S
C2446 C2440 1.379 . S
C2446 C2443 1.363 . S
C2446 N2444 1.356 . S
C2447 C2441 1.363 . S
C2447 C2442 1.379 . S
C2447 N2445 1.356 . S
N2448 C2440 1.356 . S
N2448 H2454 0.984 . S
N2448 H2455 0.984 . S
N2449 C2442 1.356 . S
N2449 H2452 0.984 . S
N2449 H2453 0.985 . S
H2450 N2445 0.984 . S
H2451 N2445 0.985 . S
H2452 N2449 0.984 . S
H2453 N2449 0.985 . S
H2454 N2448 0.984 . S
H2455 N2448 0.984 . S
H2456 N2444 0.984 . S
H2457 N2444 0.985 . S
C2458 C2459 1.363 . S
C2458 C2464 1.379 . S
C2458 N2466 1.356 . S
C2459 C2458 1.363 . S
C2459 C2465 1.363 . S
C2460 C2461 1.363 . S
C2460 C2465 1.379 . S
C2460 N2467 1.356 . S
C2461 C2460 1.363 . S
C2461 C2464 1.363 . S
N2462 C2464 1.356 . S
N2462 H2474 0.984 . S
N2462 H2475 0.985 . S
N2463 C2465 1.356 . S
N2463 H2468 0.984 . S
N2463 H2469 0.986 . S
C2464 C2458 1.379 . S
C2464 C2461 1.363 . S
C2464 N2462 1.356 . S
C2465 C2459 1.363 . S
C2465 C2460 1.379 . S
C2465 N2463 1.356 . S
N2466 C2458 1.356 . S
N2466 H2472 0.984 . S
N2466 H2473 0.984 . S
N2467 C2460 1.356 . S
N2467 H2470 0.984 . S
N2467 H2471 0.985 . S
H2468 N2463 0.984 . S
H2469 N2463 0.986 . S
H2470 N2467 0.984 . S
H2471 N2467 0.985 . S
H2472 N2466 0.984 . S
H2473 N2466 0.984 . S
H2474 N2462 0.984 . S
H2475 N2462 0.985 . S
C2476 C2477 1.363 . S
C2476 C2482 1.379 . S
C2476 N2484 1.356 . S
C2477 C2476 1.363 . S
C2477 C2483 1.363 . S
C2478 C2479 1.363 . S
C2478 C2483 1.379 . S
C2478 N2485 1.356 . S
C2479 C2478 1.363 . S
C2479 C2482 1.363 . S
N2480 C2482 1.356 . S
N2480 H2492 0.984 . S
N2480 H2493 0.985 . S
N2481 C2483 1.356 . S
N2481 H2486 0.984 . S
N2481 H2487 0.985 . S
C2482 C2476 1.379 . S
C2482 C2479 1.363 . S
C2482 N2480 1.356 . S
C2483 C2477 1.363 . S
C2483 C2478 1.379 . S
C2483 N2481 1.356 . S
N2484 C2476 1.356 . S
N2484 H2490 0.984 1_545 S
N2484 H2491 0.984 1_545 S
N2485 C2478 1.356 . S
N2485 H2488 0.984 . S
N2485 H2489 0.985 . S
H2486 N2481 0.984 . S
H2487 N2481 0.985 . S
H2488 N2485 0.984 . S
H2489 N2485 0.985 . S
H2490 N2484 0.984 1_565 S
H2491 N2484 0.984 1_565 S
H2492 N2480 0.984 . S
H2493 N2480 0.985 . S
C2494 C2495 1.363 . S
C2494 C2500 1.379 1_655 S
C2494 N2502 1.356 1_565 S
C2495 C2494 1.363 . S
C2495 C2501 1.363 . S
C2496 C2497 1.363 1_655 S
C2496 C2501 1.379 . S
C2496 N2503 1.356 . S
C2497 C2496 1.363 1_455 S
C2497 C2500 1.363 . S
N2498 C2500 1.356 . S
N2498 H2510 0.984 . S
N2498 H2511 0.985 . S
N2499 C2501 1.356 . S
N2499 H2504 0.984 . S
N2499 H2505 0.985 . S
C2500 C2494 1.379 1_455 S
C2500 C2497 1.363 . S
C2500 N2498 1.356 . S
C2501 C2495 1.363 . S
C2501 C2496 1.379 . S
C2501 N2499 1.356 . S
N2502 C2494 1.356 1_545 S
N2502 H2508 0.984 . S
N2502 H2509 0.984 . S
N2503 C2496 1.356 . S
N2503 H2506 0.984 1_655 S
N2503 H2507 0.985 . S
H2504 N2499 0.984 . S
H2505 N2499 0.985 . S
H2506 N2503 0.984 1_455 S
H2507 N2503 0.985 . S
H2508 N2502 0.984 . S
H2509 N2502 0.984 . S
H2510 N2498 0.984 . S
H2511 N2498 0.985 . S
C2512 C2513 1.363 . S
C2512 C2518 1.379 . S
C2512 N2520 1.356 . S
C2513 C2512 1.363 . S
C2513 C2519 1.363 . S
C2514 C2515 1.363 . S
C2514 C2519 1.379 . S
C2514 N2521 1.356 . S
C2515 C2514 1.363 . S
C2515 C2518 1.363 . S
N2516 C2518 1.356 . S
N2516 H2528 0.984 . S
N2516 H2529 0.985 . S
N2517 C2519 1.356 . S
N2517 H2522 0.984 . S
N2517 H2523 0.985 . S
C2518 C2512 1.379 . S
C2518 C2515 1.363 . S
C2518 N2516 1.356 . S
C2519 C2513 1.363 . S
C2519 C2514 1.379 . S
C2519 N2517 1.356 . S
N2520 C2512 1.356 . S
N2520 H2526 0.984 . S
N2520 H2527 0.984 . S
N2521 C2514 1.356 . S
N2521 H2524 0.984 . S
N2521 H2525 0.985 . S
H2522 N2517 0.984 . S
H2523 N2517 0.985 . S
H2524 N2521 0.984 . S
H2525 N2521 0.985 . S
H2526 N2520 0.984 . S
H2527 N2520 0.984 . S
H2528 N2516 0.984 . S
H2529 N2516 0.985 . S
C2530 C2531 1.363 . S
C2530 C2536 1.379 1_556 S
C2530 N2538 1.356 . S
C2531 C2530 1.363 . S
C2531 C2537 1.363 . S
C2532 C2533 1.363 1_556 S
C2532 C2537 1.379 . S
C2532 N2539 1.356 . S
C2533 C2532 1.363 1_554 S
C2533 C2536 1.363 . S
N2534 C2536 1.356 . S
N2534 H2546 0.984 . S
N2534 H2547 0.985 . S
N2535 C2537 1.356 . S
N2535 H2540 0.984 . S
N2535 H2541 0.985 . S
C2536 C2530 1.379 1_554 S
C2536 C2533 1.363 . S
C2536 N2534 1.356 . S
C2537 C2531 1.363 . S
C2537 C2532 1.379 . S
C2537 N2535 1.356 . S
N2538 C2530 1.356 . S
N2538 H2544 0.984 1_556 S
N2538 H2545 0.984 . S
N2539 C2532 1.356 . S
N2539 H2542 0.984 1_556 S
N2539 H2543 0.985 . S
H2540 N2535 0.984 . S
H2541 N2535 0.985 . S
H2542 N2539 0.984 1_554 S
H2543 N2539 0.985 . S
H2544 N2538 0.984 1_554 S
H2545 N2538 0.984 . S
H2546 N2534 0.984 . S
H2547 N2534 0.985 . S
C2548 C2549 1.363 . S
C2548 C2554 1.379 . S
C2548 N2556 1.356 . S
C2549 C2548 1.363 . S
C2549 C2555 1.363 . S
C2550 C2551 1.363 . S
C2550 C2555 1.379 . S
C2550 N2557 1.356 . S
C2551 C2550 1.363 . S
C2551 C2554 1.363 . S
N2552 C2554 1.356 . S
N2552 H2564 0.984 . S
N2552 H2565 0.985 . S
N2553 C2555 1.356 . S
N2553 H2558 0.984 . S
N2553 H2559 0.985 . S
C2554 C2548 1.379 . S
C2554 C2551 1.363 . S
C2554 N2552 1.356 . S
C2555 C2549 1.363 . S
C2555 C2550 1.379 . S
C2555 N2553 1.356 . S
N2556 C2548 1.356 . S
N2556 H2562 0.984 . S
N2556 H2563 0.984 . S
N2557 C2550 1.356 . S
N2557 H2560 0.984 . S
N2557 H2561 0.985 . S
H2558 N2553 0.984 . S
H2559 N2553 0.985 . S
H2560 N2557 0.984 . S
H2561 N2557 0.985 . S
H2562 N2556 0.984 . S
H2563 N2556 0.984 . S
H2564 N2552 0.984 . S
H2565 N2552 0.985 . S
C2566 C2567 1.363 . S
C2566 C2572 1.379 . S
C2566 N2574 1.356 . S
C2567 C2566 1.363 . S
C2567 C2573 1.363 . S
C2568 C2569 1.363 . S
C2568 C2573 1.379 . S
C2568 N2575 1.356 . S
C2569 C2568 1.363 . S
C2569 C2572 1.363 . S
N2570 C2572 1.356 . S
N2570 H2582 0.984 . S
N2570 H2583 0.985 . S
N2571 C2573 1.356 . S
N2571 H2576 0.984 . S
N2571 H2577 0.985 . S
C2572 C2566 1.379 . S
C2572 C2569 1.363 . S
C2572 N2570 1.356 . S
C2573 C2567 1.363 . S
C2573 C2568 1.379 . S
C2573 N2571 1.356 . S
N2574 C2566 1.356 . S
N2574 H2580 0.984 . S
N2574 H2581 0.984 . S
N2575 C2568 1.356 . S
N2575 H2578 0.984 . S
N2575 H2579 0.985 . S
H2576 N2571 0.984 . S
H2577 N2571 0.985 . S
H2578 N2575 0.984 . S
H2579 N2575 0.985 . S
H2580 N2574 0.984 . S
H2581 N2574 0.984 . S
H2582 N2570 0.984 . S
H2583 N2570 0.985 . S
C2584 C2585 1.363 . S
C2584 C2590 1.379 . S
C2584 N2592 1.356 . S
C2585 C2584 1.363 . S
C2585 C2591 1.363 . S
C2586 C2587 1.363 . S
C2586 C2591 1.379 . S
C2586 N2593 1.356 . S
C2587 C2586 1.363 . S
C2587 C2590 1.363 . S
N2588 C2590 1.356 . S
N2588 H2600 0.984 . S
N2588 H2601 0.985 . S
N2589 C2591 1.356 . S
N2589 H2594 0.984 . S
N2589 H2595 0.985 . S
C2590 C2584 1.379 . S
C2590 C2587 1.363 . S
C2590 N2588 1.356 . S
C2591 C2585 1.363 . S
C2591 C2586 1.379 . S
C2591 N2589 1.356 . S
N2592 C2584 1.356 . S
N2592 H2598 0.984 . S
N2592 H2599 0.984 . S
N2593 C2586 1.356 . S
N2593 H2596 0.984 . S
N2593 H2597 0.985 . S
H2594 N2589 0.984 . S
H2595 N2589 0.985 . S
H2596 N2593 0.984 . S
H2597 N2593 0.985 . S
H2598 N2592 0.984 . S
H2599 N2592 0.984 . S
H2600 N2588 0.984 . S
H2601 N2588 0.985 . S
C2602 C2603 1.363 . S
C2602 C2608 1.379 1_554 S
C2602 N2610 1.356 . S
C2603 C2602 1.363 . S
C2603 C2609 1.363 . S
C2604 C2605 1.363 1_554 S
C2604 C2609 1.379 . S
C2604 N2611 1.356 . S
C2605 C2604 1.363 1_556 S
C2605 C2608 1.363 . S
N2606 C2608 1.356 . S
N2606 H2618 0.984 . S
N2606 H2619 0.985 . S
N2607 C2609 1.356 . S
N2607 H2612 0.984 . S
N2607 H2613 0.985 . S
C2608 C2602 1.379 1_556 S
C2608 C2605 1.363 . S
C2608 N2606 1.356 . S
C2609 C2603 1.363 . S
C2609 C2604 1.379 . S
C2609 N2607 1.356 . S
N2610 C2602 1.356 . S
N2610 H2616 0.984 . S
N2610 H2617 0.984 . S
N2611 C2604 1.356 . S
N2611 H2614 0.984 1_554 S
N2611 H2615 0.985 . S
H2612 N2607 0.984 . S
H2613 N2607 0.985 . S
H2614 N2611 0.984 1_556 S
H2615 N2611 0.985 . S
H2616 N2610 0.984 . S
H2617 N2610 0.984 . S
H2618 N2606 0.984 . S
H2619 N2606 0.985 . S
C2620 C2621 1.363 . S
C2620 C2626 1.379 . S
C2620 N2628 1.356 . S
C2621 C2620 1.363 . S
C2621 C2627 1.363 . S
C2622 C2623 1.363 . S
C2622 C2627 1.379 . S
C2622 N2629 1.356 . S
C2623 C2622 1.363 . S
C2623 C2626 1.363 . S
N2624 C2626 1.356 . S
N2624 H2636 0.984 . S
N2624 H2637 0.985 . S
N2625 C2627 1.356 . S
N2625 H2630 0.984 . S
N2625 H2631 0.985 . S
C2626 C2620 1.379 . S
C2626 C2623 1.363 . S
C2626 N2624 1.356 . S
C2627 C2621 1.363 . S
C2627 C2622 1.379 . S
C2627 N2625 1.356 . S
N2628 C2620 1.356 . S
N2628 H2634 0.984 . S
N2628 H2635 0.984 . S
N2629 C2622 1.356 . S
N2629 H2632 0.984 . S
N2629 H2633 0.985 . S
H2630 N2625 0.984 . S
H2631 N2625 0.985 . S
H2632 N2629 0.984 . S
H2633 N2629 0.985 . S
H2634 N2628 0.984 . S
H2635 N2628 0.984 . S
H2636 N2624 0.984 . S
H2637 N2624 0.985 . S
C2638 C2639 1.363 . S
C2638 C2644 1.379 . S
C2638 N2646 1.356 . S
C2639 C2638 1.363 . S
C2639 C2645 1.363 . S
C2640 C2641 1.363 . S
C2640 C2645 1.379 . S
C2640 N2647 1.356 . S
C2641 C2640 1.363 . S
C2641 C2644 1.363 . S
N2642 C2644 1.356 . S
N2642 H2654 0.984 . S
N2642 H2655 0.985 . S
N2643 C2645 1.356 . S
N2643 H2648 0.984 . S
N2643 H2649 0.985 . S
C2644 C2638 1.379 . S
C2644 C2641 1.363 . S
C2644 N2642 1.356 . S
C2645 C2639 1.363 . S
C2645 C2640 1.379 . S
C2645 N2643 1.356 . S
N2646 C2638 1.356 . S
N2646 H2652 0.984 . S
N2646 H2653 0.984 . S
N2647 C2640 1.356 . S
N2647 H2650 0.984 . S
N2647 H2651 0.985 . S
H2648 N2643 0.984 . S
H2649 N2643 0.985 . S
H2650 N2647 0.984 . S
H2651 N2647 0.985 . S
H2652 N2646 0.984 . S
H2653 N2646 0.984 . S
H2654 N2642 0.984 . S
H2655 N2642 0.985 . S
C2656 C2657 1.363 . S
C2656 C2662 1.379 . S
C2656 N2664 1.356 . S
C2657 C2656 1.363 . S
C2657 C2663 1.363 . S
C2658 C2659 1.363 . S
C2658 C2663 1.379 . S
C2658 N2665 1.356 . S
C2659 C2658 1.363 . S
C2659 C2662 1.363 . S
N2660 C2662 1.356 . S
N2660 H2672 0.984 . S
N2660 H2673 0.985 . S
N2661 C2663 1.356 . S
N2661 H2666 0.984 . S
N2661 H2667 0.985 . S
C2662 C2656 1.379 . S
C2662 C2659 1.363 . S
C2662 N2660 1.356 . S
C2663 C2657 1.363 . S
C2663 C2658 1.379 . S
C2663 N2661 1.356 . S
N2664 C2656 1.356 . S
N2664 H2670 0.984 . S
N2664 H2671 0.984 . S
N2665 C2658 1.356 . S
N2665 H2668 0.984 . S
N2665 H2669 0.985 . S
H2666 N2661 0.984 . S
H2667 N2661 0.985 . S
H2668 N2665 0.984 . S
H2669 N2665 0.985 . S
H2670 N2664 0.984 . S
H2671 N2664 0.984 . S
H2672 N2660 0.984 . S
H2673 N2660 0.985 . S
C2674 C2675 1.363 . S
C2674 C2680 1.379 . S
C2674 N2682 1.356 . S
C2675 C2674 1.363 . S
C2675 C2681 1.363 . S
C2676 C2677 1.363 . S
C2676 C2681 1.379 . S
C2676 N2683 1.356 . S
C2677 C2676 1.363 . S
C2677 C2680 1.363 . S
N2678 C2680 1.356 . S
N2678 H2690 0.984 . S
N2678 H2691 0.985 . S
N2679 C2681 1.356 . S
N2679 H2684 0.984 . S
N2679 H2685 0.985 . S
C2680 C2674 1.379 . S
C2680 C2677 1.363 . S
C2680 N2678 1.356 . S
C2681 C2675 1.363 . S
C2681 C2676 1.379 . S
C2681 N2679 1.356 . S
N2682 C2674 1.356 . S
N2682 H2688 0.984 . S
N2682 H2689 0.984 . S
N2683 C2676 1.356 . S
N2683 H2686 0.984 . S
N2683 H2687 0.985 . S
H2684 N2679 0.984 . S
H2685 N2679 0.985 . S
H2686 N2683 0.984 . S
H2687 N2683 0.985 . S
H2688 N2682 0.984 . S
H2689 N2682 0.984 . S
H2690 N2678 0.984 . S
H2691 N2678 0.985 . S
C2692 C2693 1.363 . S
C2692 C2698 1.379 . S
C2692 N2700 1.356 . S
C2693 C2692 1.363 . S
C2693 C2699 1.363 . S
C2694 C2695 1.363 . S
C2694 C2699 1.379 . S
C2694 N2701 1.356 . S
C2695 C2694 1.363 . S
C2695 C2698 1.363 . S
N2696 C2698 1.356 . S
N2696 H2708 0.984 . S
N2696 H2709 0.985 . S
N2697 C2699 1.356 . S
N2697 H2702 0.984 . S
N2697 H2703 0.985 . S
C2698 C2692 1.379 . S
C2698 C2695 1.363 . S
C2698 N2696 1.356 . S
C2699 C2693 1.363 . S
C2699 C2694 1.379 . S
C2699 N2697 1.356 . S
N2700 C2692 1.356 . S
N2700 H2706 0.984 . S
N2700 H2707 0.984 . S
N2701 C2694 1.356 . S
N2701 H2704 0.984 . S
N2701 H2705 0.985 . S
H2702 N2697 0.984 . S
H2703 N2697 0.985 . S
H2704 N2701 0.984 . S
H2705 N2701 0.985 . S
H2706 N2700 0.984 . S
H2707 N2700 0.984 . S
H2708 N2696 0.984 . S
H2709 N2696 0.985 . S
C2710 C2711 1.363 . S
C2710 C2716 1.379 . S
C2710 N2718 1.356 . S
C2711 C2710 1.363 . S
C2711 C2717 1.363 . S
C2712 C2713 1.363 . S
C2712 C2717 1.379 . S
C2712 N2719 1.356 . S
C2713 C2712 1.363 . S
C2713 C2716 1.363 . S
N2714 C2716 1.356 . S
N2714 H2726 0.984 . S
N2714 H2727 0.985 . S
N2715 C2717 1.356 . S
N2715 H2720 0.984 . S
N2715 H2721 0.985 . S
C2716 C2710 1.379 . S
C2716 C2713 1.363 . S
C2716 N2714 1.356 . S
C2717 C2711 1.363 . S
C2717 C2712 1.379 . S
C2717 N2715 1.356 . S
N2718 C2710 1.356 . S
N2718 H2724 0.984 . S
N2718 H2725 0.984 . S
N2719 C2712 1.356 . S
N2719 H2722 0.984 . S
N2719 H2723 0.985 . S
H2720 N2715 0.984 . S
H2721 N2715 0.985 . S
H2722 N2719 0.984 . S
H2723 N2719 0.985 . S
H2724 N2718 0.984 . S
H2725 N2718 0.984 . S
H2726 N2714 0.984 . S
H2727 N2714 0.985 . S
C2728 C2729 1.363 . S
C2728 C2734 1.379 . S
C2728 N2736 1.356 . S
C2729 C2728 1.363 . S
C2729 C2735 1.363 . S
C2730 C2731 1.363 . S
C2730 C2735 1.379 . S
C2730 N2737 1.356 . S
C2731 C2730 1.363 . S
C2731 C2734 1.363 . S
N2732 C2734 1.356 . S
N2732 H2744 0.984 . S
N2732 H2745 0.985 . S
N2733 C2735 1.356 . S
N2733 H2738 0.984 . S
N2733 H2739 0.985 . S
C2734 C2728 1.379 . S
C2734 C2731 1.363 . S
C2734 N2732 1.356 . S
C2735 C2729 1.363 . S
C2735 C2730 1.379 . S
C2735 N2733 1.356 . S
N2736 C2728 1.356 . S
N2736 H2742 0.984 . S
N2736 H2743 0.984 . S
N2737 C2730 1.356 . S
N2737 H2740 0.984 . S
N2737 H2741 0.985 . S
H2738 N2733 0.984 . S
H2739 N2733 0.985 . S
H2740 N2737 0.984 . S
H2741 N2737 0.985 . S
H2742 N2736 0.984 . S
H2743 N2736 0.984 . S
H2744 N2732 0.984 . S
H2745 N2732 0.985 . S
C2746 C2747 1.363 . S
C2746 C2752 1.379 . S
C2746 N2754 1.356 . S
C2747 C2746 1.363 . S
C2747 C2753 1.363 . S
C2748 C2749 1.363 . S
C2748 C2753 1.379 . S
C2748 N2755 1.356 . S
C2749 C2748 1.363 . S
C2749 C2752 1.363 . S
N2750 C2752 1.356 . S
N2750 H2762 0.984 . S
N2750 H2763 0.985 . S
N2751 C2753 1.356 . S
N2751 H2756 0.984 . S
N2751 H2757 0.985 . S
C2752 C2746 1.379 . S
C2752 C2749 1.363 . S
C2752 N2750 1.356 . S
C2753 C2747 1.363 . S
C2753 C2748 1.379 . S
C2753 N2751 1.356 . S
N2754 C2746 1.356 . S
N2754 H2760 0.984 1_556 S
N2754 H2761 0.984 . S
N2755 C2748 1.356 . S
N2755 H2758 0.984 . S
N2755 H2759 0.985 . S
H2756 N2751 0.984 . S
H2757 N2751 0.985 . S
H2758 N2755 0.984 . S
H2759 N2755 0.985 . S
H2760 N2754 0.984 1_554 S
H2761 N2754 0.984 . S
H2762 N2750 0.984 . S
H2763 N2750 0.985 . S
C2764 C2765 1.363 . S
C2764 C2770 1.379 . S
C2764 N2772 1.356 . S
C2765 C2764 1.363 . S
C2765 C2771 1.363 . S
C2766 C2767 1.363 . S
C2766 C2771 1.379 . S
C2766 N2773 1.356 . S
C2767 C2766 1.363 . S
C2767 C2770 1.363 . S
N2768 C2770 1.356 . S
N2768 H2780 0.984 . S
N2768 H2781 0.985 . S
N2769 C2771 1.356 . S
N2769 H2774 0.984 . S
N2769 H2775 0.985 . S
C2770 C2764 1.379 . S
C2770 C2767 1.363 . S
C2770 N2768 1.356 . S
C2771 C2765 1.363 . S
C2771 C2766 1.379 . S
C2771 N2769 1.356 . S
N2772 C2764 1.356 . S
N2772 H2778 0.984 . S
N2772 H2779 0.984 . S
N2773 C2766 1.356 . S
N2773 H2776 0.984 . S
N2773 H2777 0.985 . S
H2774 N2769 0.984 . S
H2775 N2769 0.985 . S
H2776 N2773 0.984 . S
H2777 N2773 0.985 . S
H2778 N2772 0.984 . S
H2779 N2772 0.984 . S
H2780 N2768 0.984 . S
H2781 N2768 0.985 . S
C2782 C2783 1.363 . S
C2782 C2788 1.379 . S
C2782 N2790 1.356 . S
C2783 C2782 1.363 . S
C2783 C2789 1.363 . S
C2784 C2785 1.363 . S
C2784 C2789 1.379 . S
C2784 N2791 1.356 . S
C2785 C2784 1.363 . S
C2785 C2788 1.363 . S
N2786 C2788 1.356 . S
N2786 H2798 0.984 . S
N2786 H2799 0.985 . S
N2787 C2789 1.356 . S
N2787 H2792 0.984 . S
N2787 H2793 0.985 . S
C2788 C2782 1.379 . S
C2788 C2785 1.363 . S
C2788 N2786 1.356 . S
C2789 C2783 1.363 . S
C2789 C2784 1.379 . S
C2789 N2787 1.356 . S
N2790 C2782 1.356 . S
N2790 H2796 0.984 . S
N2790 H2797 0.984 . S
N2791 C2784 1.356 . S
N2791 H2794 0.984 . S
N2791 H2795 0.985 . S
H2792 N2787 0.984 . S
H2793 N2787 0.985 . S
H2794 N2791 0.984 . S
H2795 N2791 0.985 . S
H2796 N2790 0.984 . S
H2797 N2790 0.984 . S
H2798 N2786 0.984 . S
H2799 N2786 0.985 . S
C2800 C2801 1.363 . S
C2800 C2806 1.379 . S
C2800 N2808 1.356 . S
C2801 C2800 1.363 . S
C2801 C2807 1.363 . S
C2802 C2803 1.363 . S
C2802 C2807 1.379 . S
C2802 N2809 1.356 . S
C2803 C2802 1.363 . S
C2803 C2806 1.363 . S
N2804 C2806 1.356 . S
N2804 H2816 0.984 . S
N2804 H2817 0.985 . S
N2805 C2807 1.356 . S
N2805 H2810 0.984 . S
N2805 H2811 0.985 . S
C2806 C2800 1.379 . S
C2806 C2803 1.363 . S
C2806 N2804 1.356 . S
C2807 C2801 1.363 . S
C2807 C2802 1.379 . S
C2807 N2805 1.356 . S
N2808 C2800 1.356 . S
N2808 H2814 0.984 . S
N2808 H2815 0.984 . S
N2809 C2802 1.356 . S
N2809 H2812 0.984 . S
N2809 H2813 0.985 . S
H2810 N2805 0.984 . S
H2811 N2805 0.985 . S
H2812 N2809 0.984 . S
H2813 N2809 0.985 . S
H2814 N2808 0.984 . S
H2815 N2808 0.984 . S
H2816 N2804 0.984 . S
H2817 N2804 0.985 . S
C2818 C2819 1.363 . S
C2818 C2824 1.379 . S
C2818 N2826 1.356 . S
C2819 C2818 1.363 . S
C2819 C2825 1.363 . S
C2820 C2821 1.363 . S
C2820 C2825 1.379 . S
C2820 N2827 1.356 . S
C2821 C2820 1.363 . S
C2821 C2824 1.363 . S
N2822 C2824 1.356 . S
N2822 H2834 0.984 . S
N2822 H2835 0.985 . S
N2823 C2825 1.356 . S
N2823 H2828 0.984 . S
N2823 H2829 0.985 . S
C2824 C2818 1.379 . S
C2824 C2821 1.363 . S
C2824 N2822 1.356 . S
C2825 C2819 1.363 . S
C2825 C2820 1.379 . S
C2825 N2823 1.356 . S
N2826 C2818 1.356 . S
N2826 H2832 0.984 . S
N2826 H2833 0.984 . S
N2827 C2820 1.356 . S
N2827 H2830 0.984 . S
N2827 H2831 0.985 . S
H2828 N2823 0.984 . S
H2829 N2823 0.985 . S
H2830 N2827 0.984 . S
H2831 N2827 0.985 . S
H2832 N2826 0.984 . S
H2833 N2826 0.984 . S
H2834 N2822 0.984 . S
H2835 N2822 0.985 . S
C2836 C2837 1.363 . S
C2836 C2842 1.379 . S
C2836 N2844 1.356 . S
C2837 C2836 1.363 . S
C2837 C2843 1.363 . S
C2838 C2839 1.363 . S
C2838 C2843 1.379 . S
C2838 N2845 1.356 . S
C2839 C2838 1.363 . S
C2839 C2842 1.363 . S
N2840 C2842 1.356 . S
N2840 H2852 0.984 . S
N2840 H2853 0.985 . S
N2841 C2843 1.356 . S
N2841 H2846 0.984 . S
N2841 H2847 0.985 . S
C2842 C2836 1.379 . S
C2842 C2839 1.363 . S
C2842 N2840 1.356 . S
C2843 C2837 1.363 . S
C2843 C2838 1.379 . S
C2843 N2841 1.356 . S
N2844 C2836 1.356 . S
N2844 H2850 0.984 1_545 S
N2844 H2851 0.984 . S
N2845 C2838 1.356 . S
N2845 H2848 0.984 . S
N2845 H2849 0.985 . S
H2846 N2841 0.984 . S
H2847 N2841 0.985 . S
H2848 N2845 0.984 . S
H2849 N2845 0.985 . S
H2850 N2844 0.984 1_565 S
H2851 N2844 0.984 . S
H2852 N2840 0.984 . S
H2853 N2840 0.985 . S
C2854 C2855 1.363 . S
C2854 C2860 1.379 . S
C2854 N2862 1.356 . S
C2855 C2854 1.363 . S
C2855 C2861 1.363 . S
C2856 C2857 1.363 . S
C2856 C2861 1.379 . S
C2856 N2863 1.356 . S
C2857 C2856 1.363 . S
C2857 C2860 1.363 . S
N2858 C2860 1.356 . S
N2858 H2870 0.984 . S
N2858 H2871 0.985 . S
N2859 C2861 1.356 . S
N2859 H2864 0.984 . S
N2859 H2865 0.985 . S
C2860 C2854 1.379 . S
C2860 C2857 1.363 . S
C2860 N2858 1.356 . S
C2861 C2855 1.363 . S
C2861 C2856 1.379 . S
C2861 N2859 1.356 . S
N2862 C2854 1.356 . S
N2862 H2868 0.984 . S
N2862 H2869 0.984 . S
N2863 C2856 1.356 . S
N2863 H2866 0.984 . S
N2863 H2867 0.985 . S
H2864 N2859 0.984 . S
H2865 N2859 0.985 . S
H2866 N2863 0.984 . S
H2867 N2863 0.985 . S
H2868 N2862 0.984 . S
H2869 N2862 0.984 . S
H2870 N2858 0.984 . S
H2871 N2858 0.985 . S
C2872 C2873 1.363 . S
C2872 C2878 1.379 . S
C2872 N2880 1.356 . S
C2873 C2872 1.363 . S
C2873 C2879 1.363 . S
C2874 C2875 1.363 . S
C2874 C2879 1.379 . S
C2874 N2881 1.356 . S
C2875 C2874 1.363 . S
C2875 C2878 1.363 . S
N2876 C2878 1.356 . S
N2876 H2888 0.984 . S
N2876 H2889 0.985 . S
N2877 C2879 1.356 . S
N2877 H2882 0.984 . S
N2877 H2883 0.985 . S
C2878 C2872 1.379 . S
C2878 C2875 1.363 . S
C2878 N2876 1.356 . S
C2879 C2873 1.363 . S
C2879 C2874 1.379 . S
C2879 N2877 1.356 . S
N2880 C2872 1.356 . S
N2880 H2886 0.984 . S
N2880 H2887 0.984 . S
N2881 C2874 1.356 . S
N2881 H2884 0.984 . S
N2881 H2885 0.985 . S
H2882 N2877 0.984 . S
H2883 N2877 0.985 . S
H2884 N2881 0.984 . S
H2885 N2881 0.985 . S
H2886 N2880 0.984 . S
H2887 N2880 0.984 . S
H2888 N2876 0.984 . S
H2889 N2876 0.985 . S
C2890 C2891 1.363 . S
C2890 C2896 1.379 . S
C2890 N2898 1.356 . S
C2891 C2890 1.363 . S
C2891 C2897 1.363 . S
C2892 C2893 1.363 . S
C2892 C2897 1.379 . S
C2892 N2899 1.356 . S
C2893 C2892 1.363 . S
C2893 C2896 1.363 . S
N2894 C2896 1.356 . S
N2894 H2906 0.984 . S
N2894 H2907 0.985 . S
N2895 C2897 1.356 . S
N2895 H2900 0.984 1_556 S
N2895 H2901 0.985 1_556 S
C2896 C2890 1.379 . S
C2896 C2893 1.363 . S
C2896 N2894 1.356 . S
C2897 C2891 1.363 . S
C2897 C2892 1.379 . S
C2897 N2895 1.356 . S
N2898 C2890 1.356 . S
N2898 H2904 0.984 . S
N2898 H2905 0.984 . S
N2899 C2892 1.356 . S
N2899 H2902 0.984 . S
N2899 H2903 0.985 . S
H2900 N2895 0.984 1_554 S
H2901 N2895 0.985 1_554 S
H2902 N2899 0.984 . S
H2903 N2899 0.985 . S
H2904 N2898 0.984 . S
H2905 N2898 0.984 . S
H2906 N2894 0.984 . S
H2907 N2894 0.985 . S
C2908 C2909 1.363 . S
C2908 C2914 1.379 . S
C2908 N2916 1.356 . S
C2909 C2908 1.363 . S
C2909 C2915 1.363 . S
C2910 C2911 1.363 . S
C2910 C2915 1.379 . S
C2910 N2917 1.356 . S
C2911 C2910 1.363 . S
C2911 C2914 1.363 . S
N2912 C2914 1.356 . S
N2912 H2924 0.984 . S
N2912 H2925 0.985 . S
N2913 C2915 1.356 . S
N2913 H2918 0.984 . S
N2913 H2919 0.985 1_565 S
C2914 C2908 1.379 . S
C2914 C2911 1.363 . S
C2914 N2912 1.356 . S
C2915 C2909 1.363 . S
C2915 C2910 1.379 . S
C2915 N2913 1.356 . S
N2916 C2908 1.356 . S
N2916 H2922 0.984 . S
N2916 H2923 0.984 . S
N2917 C2910 1.356 . S
N2917 H2920 0.984 . S
N2917 H2921 0.985 . S
H2918 N2913 0.984 . S
H2919 N2913 0.985 1_545 S
H2920 N2917 0.984 . S
H2921 N2917 0.985 . S
H2922 N2916 0.984 . S
H2923 N2916 0.984 . S
H2924 N2912 0.984 . S
H2925 N2912 0.985 . S
C2926 C2927 1.363 . S
C2926 C2932 1.379 . S
C2926 N2934 1.356 . S
C2927 C2926 1.363 . S
C2927 C2933 1.363 . S
C2928 C2929 1.363 1_455 S
C2928 C2933 1.379 . S
C2928 N2935 1.356 1_455 S
C2929 C2928 1.363 1_655 S
C2929 C2932 1.363 1_655 S
N2930 C2932 1.356 1_655 S
N2930 H2942 0.984 . S
N2930 H2943 0.985 . S
N2931 C2933 1.356 . S
N2931 H2936 0.984 . S
N2931 H2937 0.985 1_545 S
C2932 C2926 1.379 . S
C2932 C2929 1.363 1_455 S
C2932 N2930 1.356 1_455 S
C2933 C2927 1.363 . S
C2933 C2928 1.379 . S
C2933 N2931 1.356 . S
N2934 C2926 1.356 . S
N2934 H2940 0.984 . S
N2934 H2941 0.984 . S
N2935 C2928 1.356 1_655 S
N2935 H2938 0.984 . S
N2935 H2939 0.985 . S
H2936 N2931 0.984 . S
H2937 N2931 0.985 1_565 S
H2938 N2935 0.984 . S
H2939 N2935 0.985 . S
H2940 N2934 0.984 . S
H2941 N2934 0.984 . S
H2942 N2930 0.984 . S
H2943 N2930 0.985 . S
C1219 C882 1.154 . S
C1217 C4 1.152 . S
C1235 C39 1.288 . S
C1237 C894 1.279 . S
C1255 C929 1.302 . S
C1253 C86 1.226 . S
C1273 C938 1.223 1_554 S
C1271 C110 1.219 . S
C1291 C893 1.241 . S
C1289 C146 1.253 . S
C1307 C194 1.202 . S
C1309 C918 1.283 . S
C1327 C937 1.297 . S
C1325 C219 1.314 . S
C1343 C256 1.197 . S
C1345 C879 1.186 . S
C1361 C292 1.166 . S
C1363 C872 1.167 . S
C1381 C896 1.234 . S
C1379 C326 1.233 . S
C1399 C915 1.311 . S
C1397 C363 1.330 . S
C1417 C940 1.281 . S
C1415 C410 1.205 . S
C1435 C901 1.291 . S
C1433 C302 1.205 . S
C1453 C926 1.290 . S
C1451 C327 1.293 . S
C1469 C362 1.241 . S
C1471 C945 1.227 . S
C1489 C885 1.174 . S
C1487 C400 1.183 . S
C1505 C436 1.171 . S
C1507 C874 1.172 . S
C1523 C471 1.317 . S
C1525 C973 1.302 . S
C1543 C989 1.223 . S
C1541 C506 1.234 . S
C1561 C1003 1.278 . S
C1559 C554 1.205 . S
C1577 C580 1.180 . S
C1579 C871 1.170 . S
C1595 C614 1.266 . S
C1597 C923 1.248 . S
C1615 C1006 1.301 . S
C1613 C507 1.307 . S
C1633 C970 1.307 . S
C1631 C662 1.222 . S
C1651 C1026 1.305 . S
C1649 C50 1.193 . S
C1669 C1050 1.254 . S
C1667 C3 1.264 . S
C1685 C112 1.250 . S
C1687 C1083 1.207 . S
C1703 C74 1.288 . S
C1705 C1091 1.259 . S
C1721 C254 1.299 . S
C1723 C1061 1.264 . S
C1739 C220 1.242 . S
C1741 C1072 1.223 . S
C1759 C1092 1.267 . S
C1757 C183 1.280 . S
C1775 C158 1.230 . S
C1777 C1025 1.325 . S
C1793 C698 1.193 . S
C1795 C1028 1.302 . S
C1813 C1058 1.249 . S
C1811 C542 1.254 . S
C1831 C1069 1.257 . S
C1829 C579 1.294 . S
C1849 C1099 1.213 . S
C1847 C472 1.256 . S
C1867 C1047 1.212 . S
C1865 C688 1.252 . S
C1885 C1080 1.270 . S
C1883 C543 1.279 . S
C1903 C1094 1.268 . S
C1901 C578 1.280 . S
C1919 C482 1.240 . S
C1921 C1033 1.331 . S
C1939 C1036 1.306 . S
C1937 C734 1.186 . S
C1955 C399 1.288 . S
C1957 C1124 1.273 . S
C1975 C1136 1.261 . S
C1973 C758 1.266 . S
C1991 C328 1.260 . S
C1993 C1157 1.217 . S
C2011 C1039 1.332 . S
C2009 C374 1.242 . S
C2029 C1077 1.250 . S
C2027 C794 1.281 . S
C2047 C1160 1.252 . S
C2045 C759 1.261 . S
C2063 C832 1.251 . S
C2065 C1127 1.213 . S
C2081 C76 1.167 . S
C2083 C1182 1.167 . S
C2099 C111 1.290 . S
C2101 C960 1.288 . S
C2119 C984 1.268 . S
C2117 C14 1.184 . S
C2135 C38 1.233 . S
C2137 C1014 1.232 . S
C2153 C218 1.242 . S
C2155 C959 1.230 . S
C2171 C266 1.225 . S
C2173 C995 1.301 . S
C2191 C1011 1.314 . S
C2189 C147 1.335 . S
C2209 C1193 1.171 . S
C2207 C184 1.182 . S
C2227 C1190 1.156 . S
C2225 C760 1.157 . S
C2245 C962 1.228 . S
C2243 C722 1.229 . S
C2263 C992 1.295 . S
C2261 C831 1.304 . S
C2279 C806 1.221 . S
C2281 C1004 1.303 . S
C2299 C967 1.282 . S
C2297 C770 1.206 . S
C2315 C723 1.297 . S
C2317 C981 1.281 . S
C2335 C1017 1.236 . S
C2333 C830 1.247 . S
C2351 C796 1.192 . S
C2353 C1179 1.182 . S
C2371 C1180 1.172 . S
C2369 C544 1.173 . S
C2387 C615 1.308 . S
C2389 C907 1.285 . S
C2407 C916 1.212 . S
C2405 C686 1.209 . S
C2423 C446 1.199 . S
C2425 C951 1.275 . S
C2443 C1187 1.166 . S
C2441 C652 1.176 . S
C2461 C982 1.241 . S
C2459 C470 1.241 . S
C2479 C948 1.289 . S
C2477 C687 1.293 . S
C2497 C904 1.295 . S
C2495 C590 1.211 . S
C2513 C122 1.225 . S
C2515 C1201 1.312 . S
C2531 C75 1.303 . S
C2533 C1113 1.266 . S
C2549 C40 1.240 . S
C2551 C1149 1.205 . S
C2569 C1168 1.243 . S
C2567 C2 1.250 . S
C2587 C1114 1.252 . S
C2585 C182 1.260 . S
C2603 C148 1.249 . S
C2605 C1138 1.229 . S
C2623 C1165 1.278 . S
C2621 C255 1.319 . S
C2639 C230 1.218 . S
C2641 C1202 1.332 . S
C2659 C1209 1.307 . S
C2657 C518 1.217 . S
C2675 C434 1.269 . S
C2677 C1121 1.241 . S
C2693 C651 1.303 . S
C2695 C1135 1.262 . S
C2713 C1158 1.215 . S
C2711 C616 1.229 . S
C2731 C1116 1.224 . S
C2729 C508 1.242 . S
C2747 C435 1.289 . S
C2749 C1146 1.278 . S
C2767 C1171 1.261 . S
C2765 C650 1.293 . S
C2785 C1204 1.334 . S
C2783 C626 1.216 . S
C2803 C1215 1.303 . S
C2801 C338 1.213 . S
C2821 C1055 1.281 . S
C2819 C795 1.322 . S
C2837 C290 1.277 . S
C2839 C1070 1.264 . S
C2855 C724 1.232 . S
C2857 C1102 1.215 . S
C2875 C1212 1.331 . S
C2873 C842 1.225 . S
C2893 C1143 1.245 . S
C2891 C398 1.273 . S
C2911 C1105 1.261 . S
C2909 C291 1.296 . S
C2929 C1048 1.221 . S
C2927 C364 1.239 . S
