# Generated by pormake.
# Topology anh, (6,3)-cn, num edge types: 1
# Building blocks:
#     Node 0, Type 0, BuildingBlock: CUKXOW_clean_sbu_0, # of connection points: 6
#     Node 1, Type 0, BuildingBlock: CUKXOW_clean_sbu_0, # of connection points: 6
#     Node 2, Type 0, BuildingBlock: CUKXOW_clean_sbu_0, # of connection points: 6
#     Node 3, Type 1, BuildingBlock: OLANEW_clean_sbu_2, # of connection points: 3
#     Node 4, Type 1, BuildingBlock: OLANEW_clean_sbu_2, # of connection points: 3
#     Node 5, Type 1, BuildingBlock: OLANEW_clean_sbu_2, # of connection points: 3
#     Node 6, Type 1, BuildingBlock: OLANEW_clean_sbu_2, # of connection points: 3
#     Node 7, Type 1, BuildingBlock: OLANEW_clean_sbu_2, # of connection points: 3
#     Node 8, Type 1, BuildingBlock: OLANEW_clean_sbu_2, # of connection points: 3
#     Edge 9, Type (0, 1), BuildingBlock: XIVTED_clean_linker_0, # of connection points: 2
#     Edge 10, Type (0, 1), BuildingBlock: XIVTED_clean_linker_0, # of connection points: 2
#     Edge 11, Type (0, 1), BuildingBlock: XIVTED_clean_linker_0, # of connection points: 2
#     Edge 12, Type (0, 1), BuildingBlock: XIVTED_clean_linker_0, # of connection points: 2
#     Edge 13, Type (0, 1), BuildingBlock: XIVTED_clean_linker_0, # of connection points: 2
#     Edge 14, Type (0, 1), BuildingBlock: XIVTED_clean_linker_0, # of connection points: 2
#     Edge 15, Type (0, 1), BuildingBlock: XIVTED_clean_linker_0, # of connection points: 2
#     Edge 16, Type (0, 1), BuildingBlock: XIVTED_clean_linker_0, # of connection points: 2
#     Edge 17, Type (0, 1), BuildingBlock: XIVTED_clean_linker_0, # of connection points: 2
#     Edge 18, Type (0, 1), BuildingBlock: XIVTED_clean_linker_0, # of connection points: 2
#     Edge 19, Type (0, 1), BuildingBlock: XIVTED_clean_linker_0, # of connection points: 2
#     Edge 20, Type (0, 1), BuildingBlock: XIVTED_clean_linker_0, # of connection points: 2
#     Edge 21, Type (0, 1), BuildingBlock: XIVTED_clean_linker_0, # of connection points: 2
#     Edge 22, Type (0, 1), BuildingBlock: XIVTED_clean_linker_0, # of connection points: 2
#     Edge 23, Type (0, 1), BuildingBlock: XIVTED_clean_linker_0, # of connection points: 2
#     Edge 24, Type (0, 1), BuildingBlock: XIVTED_clean_linker_0, # of connection points: 2
#     Edge 25, Type (0, 1), BuildingBlock: XIVTED_clean_linker_0, # of connection points: 2
#     Edge 26, Type (0, 1), BuildingBlock: XIVTED_clean_linker_0, # of connection points: 2
# Relax obj value: 0.080
# Max RMSD: 0.150
# Mean RMSD: 0.110
data_MOF--net-anh--node1-CUKXOW_clean_sbu_0--node2-OLANEW_clean_sbu_2--edge1-XIVTED_clean_linker_0
_symmetry_space_group_name_H-M    P1
_symmetry_Int_Tables_number       1
_symmetry_cell_setting            triclinic
loop_
_symmetry_equiv_pos_as_xyz
'x, y, z'
_cell_length_a     32.961089
_cell_length_b     31.691122
_cell_length_c     50.000481
_cell_angle_alpha  95.263762
_cell_angle_beta   90.061929
_cell_angle_gamma 116.30913
loop_
_atom_site_label
_atom_site_type_symbol
_atom_site_fract_x
_atom_site_fract_y
_atom_site_fract_z
_atom_type_partial_charge
Tb0 Tb 0.06984 0.53617 0.17116 0.0
C1 C 0.02684 0.49895 0.22527 0.0
Tb2 Tb 0.98918 0.43738 0.16823 0.0
O3 O 0.02489 0.56901 0.18141 0.0
O4 O 0.00096 0.50451 0.15738 0.0
O5 O 0.06154 0.53185 0.21402 0.0
C6 C 0.9048 0.36897 0.17004 0.0
O7 O 0.99488 0.46078 0.21133 0.0
C8 C 0.06895 0.43848 0.16882 0.0
C9 C 0.03461 0.4735 0.11492 0.0
O10 O 0.91698 0.414 0.1742 0.0
O11 O 0.94028 0.36223 0.1651 0.0
O12 O 0.03255 0.40298 0.15794 0.0
O13 O 0.05835 0.46847 0.18113 0.0
O14 O 0.99611 0.4459 0.1256 0.0
O15 O 0.06934 0.50744 0.12957 0.0
C16 C 0.15222 0.60783 0.16869 0.0
O17 O 0.11467 0.6072 0.16026 0.0
O18 O 0.14324 0.56849 0.17866 0.0
C19 C 0.98934 0.53377 0.1695 0.0
Tb20 Tb 0.46821 0.9972 0.49649 0.0
C21 C 0.51725 0.03618 0.44372 0.0
Tb22 Tb 0.56994 0.07947 0.50077 0.0
O23 O 0.44392 0.04813 0.48588 0.0
O24 O 0.5037 0.07045 0.50914 0.0
O25 O 0.48387 0.00062 0.45428 0.0
C26 C 0.63673 0.16706 0.50348 0.0
O27 O 0.55095 0.07198 0.45813 0.0
C28 C 0.5657 0.99408 0.49182 0.0
C29 C 0.52419 0.03316 0.55285 0.0
O30 O 0.59954 0.15109 0.48868 0.0
O31 O 0.63666 0.13347 0.51666 0.0
O32 O 0.60382 0.03266 0.49384 0.0
O33 O 0.53479 0.00667 0.49431 0.0
O34 O 0.55531 0.07138 0.54294 0.0
O35 O 0.4906 0.99809 0.53787 0.0
C36 C 0.39308 0.91634 0.49757 0.0
O37 O 0.40056 0.95635 0.51109 0.0
O38 O 0.42769 0.92203 0.48328 0.0
C39 C 0.47932 0.08455 0.49703 0.0
Tb40 Tb 0.50257 0.54183 0.83241 0.0
C41 C 0.55115 0.5476 0.88701 0.0
Tb42 Tb 0.60193 0.56081 0.83172 0.0
O43 O 0.48344 0.47065 0.84416 0.0
O44 O 0.5387 0.50308 0.82036 0.0
O45 O 0.51761 0.55279 0.87539 0.0
C46 C 0.67818 0.5514 0.83341 0.0
O47 O 0.58451 0.54461 0.87324 0.0
C48 C 0.58815 0.63583 0.8313 0.0
C49 C 0.5532 0.55652 0.77726 0.0
O50 O 0.67318 0.58704 0.84505 0.0
O51 O 0.64045 0.52137 0.82109 0.0
O52 O 0.62297 0.63266 0.82091 0.0
O53 O 0.56599 0.60001 0.8435 0.0
O54 O 0.58727 0.55217 0.7887 0.0
O55 O 0.51961 0.5585 0.79112 0.0
C56 C 0.42268 0.54292 0.82684 0.0
O57 O 0.43092 0.50733 0.8194 0.0
O58 O 0.45929 0.57783 0.83772 0.0
C59 C 0.5175 0.46742 0.8328 0.0
O60 O 0.49277 0.03972 0.23031 0.0
Cd61 Cd 0.49887 0.04575 0.1819 0.0
O62 O 0.5445 0.01375 0.23065 0.0
Cd63 Cd 0.52443 0.98403 0.18899 0.0
O64 O 0.4656 0.92307 0.16969 0.0
C65 C 0.45896 0.88346 0.17733 0.0
O66 O 0.48939 0.88205 0.19376 0.0
C67 C 0.52016 0.02996 0.24333 0.0
C68 C 0.58597 0.1148 0.17336 0.0
O69 O 0.55331 0.12578 0.1775 0.0
O70 O 0.57721 0.07107 0.17251 0.0
O71 O 0.55676 0.53105 0.56163 0.0
Cd72 Cd 0.55313 0.51717 0.51268 0.0
O73 O 0.51313 0.56734 0.56588 0.0
Cd74 Cd 0.51063 0.58058 0.52401 0.0
O75 O 0.5107 0.6385 0.5034 0.0
C76 C 0.54822 0.67305 0.49918 0.0
O77 O 0.58607 0.67072 0.50484 0.0
C78 C 0.53603 0.54922 0.57639 0.0
C79 C 0.53814 0.42343 0.50056 0.0
O80 O 0.57833 0.457 0.50494 0.0
O81 O 0.50503 0.43431 0.50091 0.0
O82 O 0.03852 0.49306 0.90589 0.0
Cd83 Cd 0.03224 0.50597 0.85896 0.0
O84 O 0.00987 0.41533 0.89963 0.0
Cd85 Cd 0.98655 0.41656 0.85919 0.0
O86 O 0.94004 0.43955 0.84198 0.0
C87 C 0.93065 0.46624 0.85874 0.0
O88 O 0.94924 0.47651 0.8832 0.0
C89 C 0.0286 0.45368 0.91509 0.0
C90 C 0.11363 0.51998 0.83687 0.0
O91 O 0.10796 0.55496 0.84797 0.0
O92 O 0.08002 0.47866 0.83525 0.0
O93 O 0.02421 0.50503 0.43924 0.0
Cd94 Cd 0.03811 0.52042 0.488 0.0
O95 O 0.00726 0.56459 0.43821 0.0
Cd96 Cd 0.98452 0.55388 0.47909 0.0
O97 O 0.92991 0.49825 0.4983 0.0
C98 C 0.89003 0.48794 0.4896 0.0
O99 O 0.88474 0.51358 0.47194 0.0
C100 C 0.01713 0.53365 0.42593 0.0
C101 C 0.11679 0.60569 0.49761 0.0
O102 O 0.11871 0.56612 0.49347 0.0
O103 O 0.07758 0.60488 0.49815 0.0
O104 O 0.49647 0.98845 0.76386 0.0
Cd105 Cd 0.4985 0.98579 0.81249 0.0
O106 O 0.55432 0.05927 0.7669 0.0
Cd107 Cd 0.54912 0.07798 0.8094 0.0
O108 O 0.54493 0.14103 0.82799 0.0
C109 C 0.56937 0.17806 0.8169 0.0
O110 O 0.59559 0.17499 0.79779 0.0
C111 C 0.52641 0.02235 0.75263 0.0
C112 C 0.51857 0.91177 0.8227 0.0
O113 O 0.47748 0.90573 0.82149 0.0
O114 O 0.55011 0.95302 0.81976 0.0
O115 O 0.57821 0.52046 0.09897 0.0
Cd116 Cd 0.59068 0.5099 0.14575 0.0
O117 O 0.51139 0.52172 0.09785 0.0
Cd118 Cd 0.48399 0.51247 0.13798 0.0
O119 O 0.41886 0.50196 0.15497 0.0
C120 C 0.38405 0.47456 0.14009 0.0
O121 O 0.38989 0.4538 0.11745 0.0
C122 C 0.54648 0.52379 0.08618 0.0
C123 C 0.6768 0.51336 0.15311 0.0
O124 O 0.64223 0.47455 0.14494 0.0
O125 O 0.67074 0.55051 0.1581 0.0
H126 H 0.09616 0.38895 0.13226 0.0
H127 H 0.35872 0.52039 0.18158 0.0
H128 H 0.14667 0.49701 0.19933 0.0
H129 H 0.30393 0.41406 0.1137 0.0
H130 H 0.28194 0.51125 0.18997 0.0
H131 H 0.17245 0.39636 0.1267 0.0
C132 C 0.12346 0.41434 0.14583 0.0
C133 C 0.11529 0.44293 0.16602 0.0
C134 C 0.28681 0.48983 0.17333 0.0
C135 C 0.20308 0.45172 0.15984 0.0
C136 C 0.3306 0.49493 0.16857 0.0
C137 C 0.33789 0.46804 0.14685 0.0
C138 C 0.25009 0.45753 0.15628 0.0
C139 C 0.30014 0.43571 0.13062 0.0
C140 C 0.1671 0.41865 0.14263 0.0
C141 C 0.15184 0.47513 0.1831 0.0
N142 N 0.2581 0.43148 0.13564 0.0
N143 N 0.19425 0.47877 0.17961 0.0
H144 H 0.7198 0.20406 0.53005 0.0
H145 H 0.80096 0.45685 0.47446 0.0
H146 H 0.6359 0.24087 0.4802 0.0
H147 H 0.88976 0.41911 0.51945 0.0
H148 H 0.738 0.38067 0.48081 0.0
H149 H 0.78053 0.28498 0.53038 0.0
C150 C 0.71418 0.22928 0.51928 0.0
C151 C 0.6731 0.21585 0.50487 0.0
C152 C 0.77116 0.38909 0.48947 0.0
C153 C 0.742 0.30816 0.50521 0.0
C154 C 0.80718 0.43272 0.48591 0.0
C155 C 0.85086 0.44428 0.49623 0.0
C156 C 0.77875 0.35652 0.50339 0.0
C157 C 0.85671 0.41162 0.51103 0.0
C158 C 0.74876 0.27539 0.51947 0.0
C159 C 0.66731 0.24976 0.49135 0.0
N160 N 0.82113 0.36905 0.51398 0.0
N161 N 0.70142 0.29428 0.49177 0.0
H162 H 0.63122 0.71239 0.80353 0.0
H163 H 0.46301 0.82547 0.83942 0.0
H164 H 0.52523 0.65415 0.85913 0.0
H165 H 0.59824 0.907 0.81358 0.0
H166 H 0.48058 0.75857 0.84276 0.0
H167 H 0.6153 0.78079 0.80284 0.0
C168 C 0.60446 0.71395 0.81551 0.0
C169 C 0.57892 0.67726 0.83105 0.0
C170 C 0.50643 0.79125 0.83653 0.0
C171 C 0.56036 0.75505 0.83023 0.0
C172 C 0.49643 0.82937 0.83456 0.0
C173 C 0.52923 0.87187 0.82622 0.0
C174 C 0.54925 0.79543 0.82964 0.0
C175 C 0.572 0.87497 0.82019 0.0
C176 C 0.59546 0.75298 0.81515 0.0
C177 C 0.5448 0.68108 0.8463 0.0
N178 N 0.58064 0.83712 0.82179 0.0
N179 N 0.53623 0.71915 0.84537 0.0
H180 H 0.95859 0.59201 0.19658 0.0
H181 H 0.70308 0.44447 0.1371 0.0
H182 H 0.91601 0.47019 0.13791 0.0
H183 H 0.75463 0.58672 0.17625 0.0
H184 H 0.77893 0.44911 0.14149 0.0
H185 H 0.88225 0.58698 0.1933 0.0
C186 C 0.93311 0.56412 0.18309 0.0
C187 C 0.94344 0.53113 0.16773 0.0
C188 C 0.77365 0.47932 0.1491 0.0
C189 C 0.8561 0.52497 0.16396 0.0
C190 C 0.7303 0.47665 0.1467 0.0
C191 C 0.72243 0.51532 0.15626 0.0
C192 C 0.80945 0.52079 0.16141 0.0
C193 C 0.75911 0.5561 0.16849 0.0
C194 C 0.8896 0.56127 0.18121 0.0
C195 C 0.90926 0.49583 0.15047 0.0
N196 N 0.80096 0.55773 0.17078 0.0
N197 N 0.86708 0.49353 0.14915 0.0
H198 H 0.31409 0.90141 0.52161 0.0
H199 H 0.20363 0.61991 0.48886 0.0
H200 H 0.38001 0.82856 0.4767 0.0
H201 H 0.1251 0.69489 0.51195 0.0
H202 H 0.27144 0.69559 0.49004 0.0
H203 H 0.24697 0.82544 0.52353 0.0
C204 C 0.31437 0.86938 0.51217 0.0
C205 C 0.35239 0.8711 0.49886 0.0
C206 C 0.23939 0.69546 0.49493 0.0
C207 C 0.27625 0.78434 0.5012 0.0
C208 C 0.20068 0.65226 0.4944 0.0
C209 C 0.15857 0.65106 0.50023 0.0
C210 C 0.23611 0.73783 0.50157 0.0
C211 C 0.15683 0.69416 0.50721 0.0
C212 C 0.27612 0.82612 0.51324 0.0
C213 C 0.35119 0.8287 0.48702 0.0
N214 N 0.19505 0.73581 0.50769 0.0
N215 N 0.31377 0.787 0.48853 0.0
H216 H 0.57222 0.44648 0.79911 0.0
H217 H 0.51284 0.19588 0.85179 0.0
H218 H 0.48362 0.39399 0.86416 0.0
H219 H 0.61576 0.26147 0.79535 0.0
H220 H 0.5019 0.26781 0.85757 0.0
H221 H 0.58863 0.37854 0.79803 0.0
C222 C 0.55676 0.42092 0.81345 0.0
C223 C 0.52721 0.4262 0.83207 0.0
C224 C 0.5271 0.26649 0.84409 0.0
C225 C 0.5447 0.3474 0.83049 0.0
C226 C 0.53342 0.2255 0.84082 0.0
C227 C 0.56505 0.22248 0.82291 0.0
C228 C 0.55244 0.30455 0.82924 0.0
C229 C 0.59078 0.26198 0.80924 0.0
C230 C 0.56585 0.3819 0.81272 0.0
C231 C 0.50676 0.39118 0.84956 0.0
N232 N 0.58369 0.30112 0.81256 0.0
N233 N 0.5158 0.3531 0.84832 0.0
H234 H 0.49244 0.91358 0.50269 0.0
H235 H 0.62185 0.75271 0.48681 0.0
H236 H 0.6288 0.96448 0.47624 0.0
H237 H 0.47767 0.69638 0.49633 0.0
H238 H 0.62485 0.82992 0.48147 0.0
H239 H 0.48572 0.83329 0.4994 0.0
C240 C 0.52047 0.90755 0.49548 0.0
C241 C 0.5607 0.94531 0.48906 0.0
C242 C 0.59248 0.80055 0.48443 0.0
C243 C 0.55427 0.85403 0.48629 0.0
C244 C 0.59072 0.75641 0.48746 0.0
C245 C 0.54951 0.71806 0.49225 0.0
C246 C 0.55282 0.80656 0.4865 0.0
C247 C 0.51024 0.72495 0.49279 0.0
C248 C 0.51691 0.86183 0.4939 0.0
C249 C 0.59706 0.93612 0.48121 0.0
N250 N 0.51296 0.76846 0.49027 0.0
N251 N 0.59307 0.89141 0.48016 0.0
H252 H 0.75652 0.60514 0.86354 0.0
H253 H 0.87172 0.43754 0.81464 0.0
H254 H 0.69285 0.48199 0.80588 0.0
H255 H 0.91532 0.5352 0.88675 0.0
H256 H 0.81349 0.46326 0.80571 0.0
H257 H 0.82269 0.58938 0.86697 0.0
C258 C 0.75673 0.57505 0.85148 0.0
C259 C 0.71933 0.54458 0.83457 0.0
C260 C 0.83604 0.47921 0.82339 0.0
C261 C 0.79439 0.52647 0.83825 0.0
C262 C 0.86931 0.46468 0.82844 0.0
C263 C 0.89797 0.48389 0.85162 0.0
C264 C 0.83179 0.51343 0.84154 0.0
C265 C 0.89353 0.51904 0.8688 0.0
C266 C 0.79432 0.56602 0.85345 0.0
C267 C 0.72106 0.50612 0.81928 0.0
N268 N 0.86091 0.53257 0.86347 0.0
N269 N 0.75797 0.49804 0.82154 0.0
H270 H 0.2321 0.61017 0.18458 0.0
H271 H 0.38263 0.87645 0.15099 0.0
H272 H 0.17626 0.69333 0.14925 0.0
H273 H 0.43529 0.79377 0.18998 0.0
H274 H 0.30813 0.80773 0.14606 0.0
H275 H 0.30792 0.67524 0.1831 0.0
C276 C 0.2359 0.64222 0.17647 0.0
C277 C 0.198 0.64667 0.1672 0.0
C278 C 0.3361 0.80456 0.1555 0.0
C279 C 0.28463 0.72131 0.16537 0.0
C280 C 0.3787 0.84372 0.15822 0.0
C281 C 0.4152 0.84099 0.17111 0.0
C282 C 0.33001 0.76241 0.16573 0.0
C283 C 0.40809 0.79766 0.18008 0.0
C284 C 0.27918 0.67933 0.17558 0.0
C285 C 0.20472 0.68871 0.15672 0.0
N286 N 0.36632 0.76024 0.17737 0.0
N287 N 0.24726 0.72457 0.15619 0.0
H288 H 0.54579 0.16207 0.5254 0.0
H289 H 0.46003 0.34518 0.48244 0.0
H290 H 0.43321 0.12031 0.46833 0.0
H291 H 0.59767 0.38769 0.51084 0.0
H292 H 0.44606 0.26221 0.48011 0.0
H293 H 0.562 0.24492 0.52374 0.0
C294 C 0.52475 0.17044 0.51232 0.0
C295 C 0.48868 0.1345 0.49657 0.0
C296 C 0.47939 0.28978 0.48663 0.0
C297 C 0.50602 0.22895 0.49525 0.0
C298 C 0.48738 0.33709 0.48801 0.0
C299 C 0.53007 0.3734 0.49689 0.0
C300 C 0.51409 0.27873 0.49467 0.0
C301 C 0.56428 0.36087 0.50382 0.0
C302 C 0.53391 0.21768 0.51145 0.0
C303 C 0.46157 0.1471 0.48062 0.0
N304 N 0.55542 0.31458 0.50284 0.0
N305 N 0.47065 0.19336 0.48045 0.0
H306 H 0.40142 0.61566 0.84097 0.0
H307 H 0.13639 0.45359 0.81181 0.0
H308 H 0.34377 0.47057 0.80584 0.0
H309 H 0.1938 0.60068 0.84353 0.0
H310 H 0.21265 0.4618 0.80475 0.0
H311 H 0.32633 0.61344 0.83801 0.0
C312 C 0.37291 0.58344 0.83251 0.0
C313 C 0.37843 0.54307 0.82389 0.0
C314 C 0.20859 0.49245 0.81297 0.0
C315 C 0.29276 0.54016 0.82042 0.0
C316 C 0.16502 0.4878 0.81695 0.0
C317 C 0.15877 0.52636 0.82859 0.0
C318 C 0.24619 0.53587 0.82088 0.0
C319 C 0.19708 0.56992 0.83469 0.0
C320 C 0.33014 0.58219 0.83075 0.0
C321 C 0.3407 0.50232 0.8129 0.0
N322 N 0.23921 0.57335 0.83107 0.0
N323 N 0.29934 0.50177 0.81167 0.0
H324 H 0.82847 0.38069 0.17732 0.0
H325 H 0.66232 0.10272 0.16446 0.0
H326 H 0.87442 0.27306 0.16236 0.0
H327 H 0.61639 0.2109 0.17668 0.0
H328 H 0.73997 0.16436 0.16281 0.0
H329 H 0.75041 0.31886 0.17671 0.0
C330 C 0.82204 0.34395 0.17397 0.0
C331 C 0.85779 0.33181 0.16999 0.0
C332 C 0.7129 0.17463 0.16575 0.0
C333 C 0.76865 0.26088 0.16918 0.0
C334 C 0.66851 0.13943 0.16665 0.0
C335 C 0.63276 0.15165 0.17076 0.0
C336 C 0.7217 0.22246 0.16906 0.0
C337 C 0.64286 0.19981 0.17349 0.0
C338 C 0.7775 0.30867 0.17356 0.0
C339 C 0.84771 0.2838 0.16559 0.0
N340 N 0.68638 0.23343 0.17268 0.0
N341 N 0.80404 0.25003 0.16534 0.0
H342 H 0.10017 0.53317 0.08446 0.0
H343 H 0.99053 0.37811 0.94479 0.0
H344 H 0.97809 0.40096 0.07842 0.0
H345 H 0.08247 0.52724 0.95153 0.0
H346 H 0.99609 0.37997 0.99378 0.0
H347 H 0.10398 0.5253 0.03563 0.0
C348 C 0.07429 0.50232 0.07291 0.0
C349 C 0.03846 0.46789 0.08553 0.0
C350 C 0.0153 0.41213 0.98445 0.0
C351 C 0.04287 0.45864 0.02966 0.0
C352 C 0.01237 0.41106 0.95653 0.0
C353 C 0.03576 0.4527 0.94412 0.0
C354 C 0.0422 0.45499 -3e-05 0.0
C355 C 0.0635 0.49442 0.9603 0.0
C356 C 0.07649 0.49793 0.04503 0.0
C357 C 0.00602 0.42861 0.0695 0.0
N358 N 0.06583 0.49455 0.9874 0.0
N359 N 0.00894 0.42509 0.04235 0.0
H360 H 0.4446 0.99518 0.40763 0.0
H361 H 0.58903 0.03945 0.27765 0.0
H362 H 0.59008 0.07681 0.41276 0.0
H363 H 0.4543 0.02997 0.2764 0.0
H364 H 0.58877 0.04247 0.32684 0.0
H365 H 0.44584 0.99608 0.35864 0.0
C366 C 0.47677 0.01311 0.39844 0.0
C367 C 0.51729 0.036 0.41421 0.0
C368 C 0.55943 0.04001 0.31573 0.0
C369 C 0.51892 0.03671 0.35843 0.0
C370 C 0.5595 0.03817 0.28774 0.0
C371 C 0.52167 0.03455 0.273 0.0
C372 C 0.52086 0.03706 0.32894 0.0
C373 C 0.48428 0.03306 0.28704 0.0
C374 C 0.4774 0.01386 0.37057 0.0
C375 C 0.55804 0.05897 0.40132 0.0
N376 N 0.4846 0.03379 0.31425 0.0
N377 N 0.55788 0.0584 0.37412 0.0
H378 H 0.49502 0.57507 0.74679 0.0
H379 H 0.58814 0.52176 0.60645 0.0
H380 H 0.60736 0.53986 0.74045 0.0
H381 H 0.49087 0.57856 0.61384 0.0
H382 H 0.59328 0.52463 0.6554 0.0
H383 H 0.49101 0.57353 0.69796 0.0
C384 C 0.51894 0.56711 0.73516 0.0
C385 C 0.55156 0.55753 0.74778 0.0
C386 C 0.57086 0.53651 0.6463 0.0
C387 C 0.54697 0.55549 0.69178 0.0
C388 C 0.56779 0.53475 0.61834 0.0
C389 C 0.53902 0.54996 0.60598 0.0
C390 C 0.54479 0.55333 0.66204 0.0
C391 C 0.51355 0.56653 0.62245 0.0
C392 C 0.51664 0.56629 0.70725 0.0
C393 C 0.58171 0.54757 0.73162 0.0
N394 N 0.51698 0.56769 0.64961 0.0
N395 N 0.57855 0.54662 0.70446 0.0
H396 H 0.58693 0.09659 0.5907 0.0
H397 H 0.46887 0.95235 0.71495 0.0
H398 H 0.46688 0.96244 0.5819 0.0
H399 H 0.58707 0.08798 0.72261 0.0
H400 H 0.46965 0.95287 0.66603 0.0
H401 H 0.58934 0.09166 0.63894 0.0
C402 C 0.56107 0.06602 0.59885 0.0
C403 C 0.52651 0.02999 0.58213 0.0
C404 C 0.49551 0.98239 0.67844 0.0
C405 C 0.52912 0.02414 0.63758 0.0
C406 C 0.49514 0.98208 0.70638 0.0
C407 C 0.52782 0.02029 0.72296 0.0
C408 C 0.52879 0.02118 0.66703 0.0
C409 C 0.56106 0.05783 0.71069 0.0
C410 C 0.5625 0.06322 0.62647 0.0
C411 C 0.49408 0.99118 0.59397 0.0
N412 N 0.56056 0.05738 0.68352 0.0
N413 N 0.49611 0.98935 0.62098 0.0
H414 H 0.48911 0.55214 0.92203 0.0
H415 H 0.61312 0.52489 0.05262 0.0
H416 H 0.61333 0.53757 0.91931 0.0
H417 H 0.48657 0.53479 0.053 0.0
H418 H 0.61551 0.53165 0.00418 0.0
H419 H 0.48928 0.54778 0.97035 0.0
C420 C 0.51651 0.54805 0.93155 0.0
C421 C 0.55126 0.54519 0.91647 0.0
C422 C 0.5873 0.53241 0.01492 0.0
C423 C 0.55162 0.54017 0.97211 0.0
C424 C 0.58593 0.52862 0.04259 0.0
C425 C 0.54954 0.52918 0.05698 0.0
C426 C 0.55208 0.53685 0.00154 0.0
C427 C 0.51528 0.53407 0.04284 0.0
C428 C 0.51656 0.54556 0.95924 0.0
C429 C 0.58581 0.53992 0.93008 0.0
N430 N 0.5174 0.53765 0.01598 0.0
N431 N 0.5851 0.53755 0.95713 0.0
H432 H 0.98329 0.42918 0.2579 0.0
H433 H 0.0289 0.6013 0.39226 0.0
H434 H 0.06508 0.58009 0.25978 0.0
H435 H 0.00957 0.45739 0.39235 0.0
H436 H 0.03121 0.59344 0.34306 0.0
H437 H 0.981 0.43811 0.30694 0.0
C438 C 0.00059 0.46421 0.26861 0.0
C439 C 0.02456 0.50396 0.25479 0.0
C440 C 0.02658 0.56372 0.35394 0.0
C441 C 0.02166 0.51435 0.31072 0.0
C442 C 0.02509 0.56809 0.38193 0.0
C443 C 0.01915 0.52996 0.39636 0.0
C444 C 0.0211 0.52063 0.34035 0.0
C445 C 0.01449 0.48775 0.38201 0.0
C446 C 0.99945 0.46921 0.29656 0.0
C447 C 0.04651 0.54849 0.2697 0.0
N448 N 0.01521 0.48408 0.35476 0.0
N449 N 0.04431 0.55256 0.2969 0.0
loop_
_geom_bond_atom_site_label_1
_geom_bond_atom_site_label_2
_geom_bond_distance
_geom_bond_site_symmetry_2
_ccdc_geom_bond_type
Tb0 O3 2.453 1_455 S
Tb0 O4 2.596 1_455 S
Tb0 O5 2.374 . S
Tb0 O13 2.343 . S
Tb0 O15 2.353 . S
Tb0 O17 2.427 . S
Tb0 O18 2.513 . S
C1 O5 1.251 . S
C1 O7 1.263 . S
Tb2 O4 2.343 1_455 S
Tb2 O7 2.353 . S
Tb2 O10 2.427 1_455 S
Tb2 O11 2.513 1_455 S
Tb2 O12 2.453 . S
Tb2 O13 2.596 . S
Tb2 O14 2.374 . S
O3 Tb0 2.453 1_655 S
O3 C19 1.245 . S
O4 Tb0 2.596 1_655 S
O4 Tb2 2.343 1_655 S
O4 C19 1.259 . S
O5 Tb0 2.374 . S
O5 C1 1.251 . S
C6 O10 1.275 . S
C6 O11 1.246 . S
O7 C1 1.263 . S
O7 Tb2 2.353 . S
C8 O12 1.245 . S
C8 O13 1.259 . S
C9 O14 1.250 . S
C9 O15 1.263 . S
O10 Tb2 2.427 1_655 S
O10 C6 1.275 . S
O11 Tb2 2.513 1_655 S
O11 C6 1.246 . S
O12 Tb2 2.453 . S
O12 C8 1.245 . S
O13 Tb0 2.343 . S
O13 Tb2 2.596 . S
O13 C8 1.259 . S
O14 Tb2 2.374 . S
O14 C9 1.250 . S
O15 Tb0 2.353 . S
O15 C9 1.263 . S
C16 O17 1.275 . S
C16 O18 1.246 . S
O17 Tb0 2.427 . S
O17 C16 1.275 . S
O18 Tb0 2.513 . S
O18 C16 1.246 . S
C19 O3 1.245 . S
C19 O4 1.259 . S
Tb20 O23 2.453 . S
Tb20 O24 2.596 . S
Tb20 O25 2.374 . S
Tb20 O33 2.343 1_545 S
Tb20 O35 2.353 . S
Tb20 O37 2.427 1_545 S
Tb20 O38 2.513 1_545 S
C21 O25 1.251 . S
C21 O27 1.263 . S
Tb22 O24 2.343 . S
Tb22 O27 2.353 . S
Tb22 O30 2.427 . S
Tb22 O31 2.513 . S
Tb22 O32 2.453 1_545 S
Tb22 O33 2.596 1_545 S
Tb22 O34 2.374 . S
O23 Tb20 2.453 . S
O23 C39 1.245 . S
O24 Tb20 2.596 . S
O24 Tb22 2.343 . S
O24 C39 1.259 . S
O25 Tb20 2.374 . S
O25 C21 1.251 . S
C26 O30 1.275 . S
C26 O31 1.246 . S
O27 C21 1.263 . S
O27 Tb22 2.353 . S
C28 O32 1.245 . S
C28 O33 1.259 . S
C29 O34 1.250 . S
C29 O35 1.263 . S
O30 Tb22 2.427 . S
O30 C26 1.275 . S
O31 Tb22 2.513 . S
O31 C26 1.246 . S
O32 Tb22 2.453 1_565 S
O32 C28 1.245 . S
O33 Tb20 2.343 1_565 S
O33 Tb22 2.596 1_565 S
O33 C28 1.259 . S
O34 Tb22 2.374 . S
O34 C29 1.250 . S
O35 Tb20 2.353 . S
O35 C29 1.263 . S
C36 O37 1.275 . S
C36 O38 1.246 . S
O37 Tb20 2.427 1_565 S
O37 C36 1.275 . S
O38 Tb20 2.513 1_565 S
O38 C36 1.246 . S
C39 O23 1.245 . S
C39 O24 1.259 . S
Tb40 O43 2.453 . S
Tb40 O44 2.596 . S
Tb40 O45 2.374 . S
Tb40 O53 2.343 . S
Tb40 O55 2.353 . S
Tb40 O57 2.427 . S
Tb40 O58 2.513 . S
C41 O45 1.251 . S
C41 O47 1.263 . S
Tb42 O44 2.343 . S
Tb42 O47 2.353 . S
Tb42 O50 2.427 . S
Tb42 O51 2.513 . S
Tb42 O52 2.453 . S
Tb42 O53 2.596 . S
Tb42 O54 2.374 . S
O43 Tb40 2.453 . S
O43 C59 1.245 . S
O44 Tb40 2.596 . S
O44 Tb42 2.343 . S
O44 C59 1.259 . S
O45 Tb40 2.374 . S
O45 C41 1.251 . S
C46 O50 1.275 . S
C46 O51 1.246 . S
O47 C41 1.263 . S
O47 Tb42 2.353 . S
C48 O52 1.245 . S
C48 O53 1.259 . S
C49 O54 1.250 . S
C49 O55 1.263 . S
O50 Tb42 2.427 . S
O50 C46 1.275 . S
O51 Tb42 2.513 . S
O51 C46 1.246 . S
O52 Tb42 2.453 . S
O52 C48 1.245 . S
O53 Tb40 2.343 . S
O53 Tb42 2.596 . S
O53 C48 1.259 . S
O54 Tb42 2.374 . S
O54 C49 1.250 . S
O55 Tb40 2.353 . S
O55 C49 1.263 . S
C56 O57 1.275 . S
C56 O58 1.246 . S
O57 Tb40 2.427 . S
O57 C56 1.275 . S
O58 Tb40 2.513 . S
O58 C56 1.246 . S
C59 O43 1.245 . S
C59 O44 1.259 . S
O60 Cd61 2.300 . S
O60 C67 1.275 . S
Cd61 O60 2.300 . S
Cd61 O69 2.381 . S
Cd61 O70 2.378 . S
O62 Cd63 2.385 1_545 S
O62 C67 1.255 . S
Cd63 O62 2.385 1_565 S
Cd63 O64 2.317 . S
O64 Cd63 2.317 . S
O64 C65 1.232 . S
C65 O64 1.232 . S
C65 O66 1.218 . S
O66 C65 1.218 . S
C67 O60 1.275 . S
C67 O62 1.255 . S
C68 O69 1.258 . S
C68 O70 1.256 . S
O69 Cd61 2.381 . S
O69 C68 1.258 . S
O70 Cd61 2.378 . S
O70 C68 1.256 . S
O71 Cd72 2.300 . S
O71 C78 1.275 . S
Cd72 O71 2.300 . S
Cd72 O80 2.381 . S
Cd72 O81 2.378 . S
O73 Cd74 2.385 . S
O73 C78 1.255 . S
Cd74 O73 2.385 . S
Cd74 O75 2.317 . S
O75 Cd74 2.317 . S
O75 C76 1.232 . S
C76 O75 1.232 . S
C76 O77 1.218 . S
O77 C76 1.218 . S
C78 O71 1.275 . S
C78 O73 1.255 . S
C79 O80 1.258 . S
C79 O81 1.256 . S
O80 Cd72 2.381 . S
O80 C79 1.258 . S
O81 Cd72 2.378 . S
O81 C79 1.256 . S
O82 Cd83 2.300 . S
O82 C89 1.275 . S
Cd83 O82 2.300 . S
Cd83 O91 2.381 . S
Cd83 O92 2.378 . S
O84 Cd85 2.385 1_455 S
O84 C89 1.255 . S
Cd85 O84 2.385 1_655 S
Cd85 O86 2.317 . S
O86 Cd85 2.317 . S
O86 C87 1.232 . S
C87 O86 1.232 . S
C87 O88 1.218 . S
O88 C87 1.218 . S
C89 O82 1.275 . S
C89 O84 1.255 . S
C90 O91 1.258 . S
C90 O92 1.256 . S
O91 Cd83 2.381 . S
O91 C90 1.258 . S
O92 Cd83 2.378 . S
O92 C90 1.256 . S
O93 Cd94 2.300 . S
O93 C100 1.275 1_455 S
Cd94 O93 2.300 . S
Cd94 O102 2.381 . S
Cd94 O103 2.378 . S
O95 Cd96 2.385 . S
O95 C100 1.255 . S
Cd96 O95 2.385 . S
Cd96 O97 2.317 . S
O97 Cd96 2.317 . S
O97 C98 1.232 . S
C98 O97 1.232 . S
C98 O99 1.218 . S
O99 C98 1.218 . S
C100 O93 1.275 1_655 S
C100 O95 1.255 . S
C101 O102 1.258 . S
C101 O103 1.256 . S
O102 Cd94 2.381 . S
O102 C101 1.258 . S
O103 Cd94 2.378 . S
O103 C101 1.256 . S
O104 Cd105 2.300 . S
O104 C111 1.275 1_565 S
Cd105 O104 2.300 . S
Cd105 O113 2.381 . S
Cd105 O114 2.378 . S
O106 Cd107 2.385 . S
O106 C111 1.255 . S
Cd107 O106 2.385 . S
Cd107 O108 2.317 . S
O108 Cd107 2.317 . S
O108 C109 1.232 . S
C109 O108 1.232 . S
C109 O110 1.218 . S
O110 C109 1.218 . S
C111 O104 1.275 1_545 S
C111 O106 1.255 . S
C112 O113 1.258 . S
C112 O114 1.256 . S
O113 Cd105 2.381 . S
O113 C112 1.258 . S
O114 Cd105 2.378 . S
O114 C112 1.256 . S
O115 Cd116 2.300 . S
O115 C122 1.275 . S
Cd116 O115 2.300 . S
Cd116 O124 2.381 . S
Cd116 O125 2.378 . S
O117 Cd118 2.385 . S
O117 C122 1.255 . S
Cd118 O117 2.385 . S
Cd118 O119 2.317 . S
O119 Cd118 2.317 . S
O119 C120 1.232 . S
C120 O119 1.232 . S
C120 O121 1.218 . S
O121 C120 1.218 . S
C122 O115 1.275 . S
C122 O117 1.255 . S
C123 O124 1.258 . S
C123 O125 1.256 . S
O124 Cd116 2.381 . S
O124 C123 1.258 . S
O125 Cd116 2.378 . S
O125 C123 1.256 . S
H126 C132 0.930 . S
H127 C136 0.930 . S
H128 C141 0.929 . S
H129 C139 0.929 . S
H130 C134 0.929 . S
H131 C140 0.929 . S
C132 H126 0.930 . S
C132 C133 1.367 . S
C132 C140 1.378 . S
C133 C132 1.367 . S
C133 C141 1.433 . S
C134 H130 0.929 . S
C134 C136 1.378 . S
C134 C138 1.350 . S
C135 C138 1.463 . S
C135 C140 1.350 . S
C135 N143 1.427 . S
C136 H127 0.930 . S
C136 C134 1.378 . S
C136 C137 1.367 . S
C137 C136 1.367 . S
C137 C139 1.433 . S
C138 C134 1.350 . S
C138 C135 1.463 . S
C138 N142 1.427 . S
C139 H129 0.929 . S
C139 C137 1.433 . S
C139 N142 1.384 . S
C140 H131 0.929 . S
C140 C132 1.378 . S
C140 C135 1.350 . S
C141 H128 0.929 . S
C141 C133 1.433 . S
C141 N143 1.384 . S
N142 C138 1.427 . S
N142 C139 1.384 . S
N143 C135 1.427 . S
N143 C141 1.384 . S
H144 C150 0.930 . S
H145 C154 0.930 . S
H146 C159 0.929 . S
H147 C157 0.929 . S
H148 C152 0.929 . S
H149 C158 0.929 . S
C150 H144 0.930 . S
C150 C151 1.367 . S
C150 C158 1.378 . S
C151 C150 1.367 . S
C151 C159 1.433 . S
C152 H148 0.929 . S
C152 C154 1.378 . S
C152 C156 1.350 . S
C153 C156 1.463 . S
C153 C158 1.350 . S
C153 N161 1.427 . S
C154 H145 0.930 . S
C154 C152 1.378 . S
C154 C155 1.367 . S
C155 C154 1.367 . S
C155 C157 1.433 . S
C156 C152 1.350 . S
C156 C153 1.463 . S
C156 N160 1.427 . S
C157 H147 0.929 . S
C157 C155 1.433 . S
C157 N160 1.384 . S
C158 H149 0.929 . S
C158 C150 1.378 . S
C158 C153 1.350 . S
C159 H146 0.929 . S
C159 C151 1.433 . S
C159 N161 1.384 . S
N160 C156 1.427 . S
N160 C157 1.384 . S
N161 C153 1.427 . S
N161 C159 1.384 . S
H162 C168 0.930 . S
H163 C172 0.930 . S
H164 C177 0.929 . S
H165 C175 0.929 . S
H166 C170 0.929 . S
H167 C176 0.929 . S
C168 H162 0.930 . S
C168 C169 1.367 . S
C168 C176 1.378 . S
C169 C168 1.367 . S
C169 C177 1.433 . S
C170 H166 0.929 . S
C170 C172 1.378 . S
C170 C174 1.350 . S
C171 C174 1.463 . S
C171 C176 1.350 . S
C171 N179 1.427 . S
C172 H163 0.930 . S
C172 C170 1.378 . S
C172 C173 1.367 . S
C173 C172 1.367 . S
C173 C175 1.433 . S
C174 C170 1.350 . S
C174 C171 1.463 . S
C174 N178 1.427 . S
C175 H165 0.929 . S
C175 C173 1.433 . S
C175 N178 1.384 . S
C176 H167 0.929 . S
C176 C168 1.378 . S
C176 C171 1.350 . S
C177 H164 0.929 . S
C177 C169 1.433 . S
C177 N179 1.384 . S
N178 C174 1.427 . S
N178 C175 1.384 . S
N179 C171 1.427 . S
N179 C177 1.384 . S
H180 C186 0.930 . S
H181 C190 0.930 . S
H182 C195 0.929 . S
H183 C193 0.929 . S
H184 C188 0.929 . S
H185 C194 0.929 . S
C186 H180 0.930 . S
C186 C187 1.367 . S
C186 C194 1.378 . S
C187 C186 1.367 . S
C187 C195 1.433 . S
C188 H184 0.929 . S
C188 C190 1.378 . S
C188 C192 1.350 . S
C189 C192 1.463 . S
C189 C194 1.350 . S
C189 N197 1.427 . S
C190 H181 0.930 . S
C190 C188 1.378 . S
C190 C191 1.367 . S
C191 C190 1.367 . S
C191 C193 1.433 . S
C192 C188 1.350 . S
C192 C189 1.463 . S
C192 N196 1.427 . S
C193 H183 0.929 . S
C193 C191 1.433 . S
C193 N196 1.384 . S
C194 H185 0.929 . S
C194 C186 1.378 . S
C194 C189 1.350 . S
C195 H182 0.929 . S
C195 C187 1.433 . S
C195 N197 1.384 . S
N196 C192 1.427 . S
N196 C193 1.384 . S
N197 C189 1.427 . S
N197 C195 1.384 . S
H198 C204 0.930 . S
H199 C208 0.930 . S
H200 C213 0.929 . S
H201 C211 0.929 . S
H202 C206 0.929 . S
H203 C212 0.929 . S
C204 H198 0.930 . S
C204 C205 1.367 . S
C204 C212 1.378 . S
C205 C204 1.367 . S
C205 C213 1.433 . S
C206 H202 0.929 . S
C206 C208 1.378 . S
C206 C210 1.350 . S
C207 C210 1.463 . S
C207 C212 1.350 . S
C207 N215 1.427 . S
C208 H199 0.930 . S
C208 C206 1.378 . S
C208 C209 1.367 . S
C209 C208 1.367 . S
C209 C211 1.433 . S
C210 C206 1.350 . S
C210 C207 1.463 . S
C210 N214 1.427 . S
C211 H201 0.929 . S
C211 C209 1.433 . S
C211 N214 1.384 . S
C212 H203 0.929 . S
C212 C204 1.378 . S
C212 C207 1.350 . S
C213 H200 0.929 . S
C213 C205 1.433 . S
C213 N215 1.384 . S
N214 C210 1.427 . S
N214 C211 1.384 . S
N215 C207 1.427 . S
N215 C213 1.384 . S
H216 C222 0.930 . S
H217 C226 0.930 . S
H218 C231 0.929 . S
H219 C229 0.929 . S
H220 C224 0.929 . S
H221 C230 0.929 . S
C222 H216 0.930 . S
C222 C223 1.367 . S
C222 C230 1.378 . S
C223 C222 1.367 . S
C223 C231 1.433 . S
C224 H220 0.929 . S
C224 C226 1.378 . S
C224 C228 1.350 . S
C225 C228 1.463 . S
C225 C230 1.350 . S
C225 N233 1.427 . S
C226 H217 0.930 . S
C226 C224 1.378 . S
C226 C227 1.367 . S
C227 C226 1.367 . S
C227 C229 1.433 . S
C228 C224 1.350 . S
C228 C225 1.463 . S
C228 N232 1.427 . S
C229 H219 0.929 . S
C229 C227 1.433 . S
C229 N232 1.384 . S
C230 H221 0.929 . S
C230 C222 1.378 . S
C230 C225 1.350 . S
C231 H218 0.929 . S
C231 C223 1.433 . S
C231 N233 1.384 . S
N232 C228 1.427 . S
N232 C229 1.384 . S
N233 C225 1.427 . S
N233 C231 1.384 . S
H234 C240 0.930 . S
H235 C244 0.930 . S
H236 C249 0.929 . S
H237 C247 0.929 . S
H238 C242 0.929 . S
H239 C248 0.929 . S
C240 H234 0.930 . S
C240 C241 1.367 . S
C240 C248 1.378 . S
C241 C240 1.367 . S
C241 C249 1.433 . S
C242 H238 0.929 . S
C242 C244 1.378 . S
C242 C246 1.350 . S
C243 C246 1.463 . S
C243 C248 1.350 . S
C243 N251 1.427 . S
C244 H235 0.930 . S
C244 C242 1.378 . S
C244 C245 1.367 . S
C245 C244 1.367 . S
C245 C247 1.433 . S
C246 C242 1.350 . S
C246 C243 1.463 . S
C246 N250 1.427 . S
C247 H237 0.929 . S
C247 C245 1.433 . S
C247 N250 1.384 . S
C248 H239 0.929 . S
C248 C240 1.378 . S
C248 C243 1.350 . S
C249 H236 0.929 . S
C249 C241 1.433 . S
C249 N251 1.384 . S
N250 C246 1.427 . S
N250 C247 1.384 . S
N251 C243 1.427 . S
N251 C249 1.384 . S
H252 C258 0.930 . S
H253 C262 0.930 . S
H254 C267 0.929 . S
H255 C265 0.929 . S
H256 C260 0.929 . S
H257 C266 0.929 . S
C258 H252 0.930 . S
C258 C259 1.367 . S
C258 C266 1.378 . S
C259 C258 1.367 . S
C259 C267 1.433 . S
C260 H256 0.929 . S
C260 C262 1.378 . S
C260 C264 1.350 . S
C261 C264 1.463 . S
C261 C266 1.350 . S
C261 N269 1.427 . S
C262 H253 0.930 . S
C262 C260 1.378 . S
C262 C263 1.367 . S
C263 C262 1.367 . S
C263 C265 1.433 . S
C264 C260 1.350 . S
C264 C261 1.463 . S
C264 N268 1.427 . S
C265 H255 0.929 . S
C265 C263 1.433 . S
C265 N268 1.384 . S
C266 H257 0.929 . S
C266 C258 1.378 . S
C266 C261 1.350 . S
C267 H254 0.929 . S
C267 C259 1.433 . S
C267 N269 1.384 . S
N268 C264 1.427 . S
N268 C265 1.384 . S
N269 C261 1.427 . S
N269 C267 1.384 . S
H270 C276 0.930 . S
H271 C280 0.930 . S
H272 C285 0.929 . S
H273 C283 0.929 . S
H274 C278 0.929 . S
H275 C284 0.929 . S
C276 H270 0.930 . S
C276 C277 1.367 . S
C276 C284 1.378 . S
C277 C276 1.367 . S
C277 C285 1.433 . S
C278 H274 0.929 . S
C278 C280 1.378 . S
C278 C282 1.350 . S
C279 C282 1.463 . S
C279 C284 1.350 . S
C279 N287 1.427 . S
C280 H271 0.930 . S
C280 C278 1.378 . S
C280 C281 1.367 . S
C281 C280 1.367 . S
C281 C283 1.433 . S
C282 C278 1.350 . S
C282 C279 1.463 . S
C282 N286 1.427 . S
C283 H273 0.929 . S
C283 C281 1.433 . S
C283 N286 1.384 . S
C284 H275 0.929 . S
C284 C276 1.378 . S
C284 C279 1.350 . S
C285 H272 0.929 . S
C285 C277 1.433 . S
C285 N287 1.384 . S
N286 C282 1.427 . S
N286 C283 1.384 . S
N287 C279 1.427 . S
N287 C285 1.384 . S
H288 C294 0.930 . S
H289 C298 0.930 . S
H290 C303 0.929 . S
H291 C301 0.929 . S
H292 C296 0.929 . S
H293 C302 0.929 . S
C294 H288 0.930 . S
C294 C295 1.367 . S
C294 C302 1.378 . S
C295 C294 1.367 . S
C295 C303 1.433 . S
C296 H292 0.929 . S
C296 C298 1.378 . S
C296 C300 1.350 . S
C297 C300 1.463 . S
C297 C302 1.350 . S
C297 N305 1.427 . S
C298 H289 0.930 . S
C298 C296 1.378 . S
C298 C299 1.367 . S
C299 C298 1.367 . S
C299 C301 1.433 . S
C300 C296 1.350 . S
C300 C297 1.463 . S
C300 N304 1.427 . S
C301 H291 0.929 . S
C301 C299 1.433 . S
C301 N304 1.384 . S
C302 H293 0.929 . S
C302 C294 1.378 . S
C302 C297 1.350 . S
C303 H290 0.929 . S
C303 C295 1.433 . S
C303 N305 1.384 . S
N304 C300 1.427 . S
N304 C301 1.384 . S
N305 C297 1.427 . S
N305 C303 1.384 . S
H306 C312 0.930 . S
H307 C316 0.930 . S
H308 C321 0.929 . S
H309 C319 0.929 . S
H310 C314 0.929 . S
H311 C320 0.929 . S
C312 H306 0.930 . S
C312 C313 1.367 . S
C312 C320 1.378 . S
C313 C312 1.367 . S
C313 C321 1.433 . S
C314 H310 0.929 . S
C314 C316 1.378 . S
C314 C318 1.350 . S
C315 C318 1.463 . S
C315 C320 1.350 . S
C315 N323 1.427 . S
C316 H307 0.930 . S
C316 C314 1.378 . S
C316 C317 1.367 . S
C317 C316 1.367 . S
C317 C319 1.433 . S
C318 C314 1.350 . S
C318 C315 1.463 . S
C318 N322 1.427 . S
C319 H309 0.929 . S
C319 C317 1.433 . S
C319 N322 1.384 . S
C320 H311 0.929 . S
C320 C312 1.378 . S
C320 C315 1.350 . S
C321 H308 0.929 . S
C321 C313 1.433 . S
C321 N323 1.384 . S
N322 C318 1.427 . S
N322 C319 1.384 . S
N323 C315 1.427 . S
N323 C321 1.384 . S
H324 C330 0.930 . S
H325 C334 0.930 . S
H326 C339 0.929 . S
H327 C337 0.929 . S
H328 C332 0.929 . S
H329 C338 0.929 . S
C330 H324 0.930 . S
C330 C331 1.367 . S
C330 C338 1.378 . S
C331 C330 1.367 . S
C331 C339 1.433 . S
C332 H328 0.929 . S
C332 C334 1.378 . S
C332 C336 1.350 . S
C333 C336 1.463 . S
C333 C338 1.350 . S
C333 N341 1.427 . S
C334 H325 0.930 . S
C334 C332 1.378 . S
C334 C335 1.367 . S
C335 C334 1.367 . S
C335 C337 1.433 . S
C336 C332 1.350 . S
C336 C333 1.463 . S
C336 N340 1.427 . S
C337 H327 0.929 . S
C337 C335 1.433 . S
C337 N340 1.384 . S
C338 H329 0.929 . S
C338 C330 1.378 . S
C338 C333 1.350 . S
C339 H326 0.929 . S
C339 C331 1.433 . S
C339 N341 1.384 . S
N340 C336 1.427 . S
N340 C337 1.384 . S
N341 C333 1.427 . S
N341 C339 1.384 . S
H342 C348 0.930 . S
H343 C352 0.930 1_655 S
H344 C357 0.929 1_655 S
H345 C355 0.929 . S
H346 C350 0.929 1_655 S
H347 C356 0.929 . S
C348 H342 0.930 . S
C348 C349 1.367 . S
C348 C356 1.378 . S
C349 C348 1.367 . S
C349 C357 1.433 . S
C350 H346 0.929 1_455 S
C350 C352 1.378 . S
C350 C354 1.350 . S
C351 C354 1.463 1_554 S
C351 C356 1.350 . S
C351 N359 1.427 . S
C352 H343 0.930 1_455 S
C352 C350 1.378 . S
C352 C353 1.367 . S
C353 C352 1.367 . S
C353 C355 1.433 . S
C354 C350 1.350 . S
C354 C351 1.463 1_556 S
C354 N358 1.427 . S
C355 H345 0.929 . S
C355 C353 1.433 . S
C355 N358 1.384 . S
C356 H347 0.929 . S
C356 C348 1.378 . S
C356 C351 1.350 . S
C357 H344 0.929 1_455 S
C357 C349 1.433 . S
C357 N359 1.384 . S
N358 C354 1.427 . S
N358 C355 1.384 . S
N359 C351 1.427 . S
N359 C357 1.384 . S
H360 C366 0.930 . S
H361 C370 0.930 . S
H362 C375 0.929 . S
H363 C373 0.929 . S
H364 C368 0.929 . S
H365 C374 0.929 . S
C366 H360 0.930 . S
C366 C367 1.367 . S
C366 C374 1.378 . S
C367 C366 1.367 . S
C367 C375 1.433 . S
C368 H364 0.929 . S
C368 C370 1.378 . S
C368 C372 1.350 . S
C369 C372 1.463 . S
C369 C374 1.350 . S
C369 N377 1.427 . S
C370 H361 0.930 . S
C370 C368 1.378 . S
C370 C371 1.367 . S
C371 C370 1.367 . S
C371 C373 1.433 . S
C372 C368 1.350 . S
C372 C369 1.463 . S
C372 N376 1.427 . S
C373 H363 0.929 . S
C373 C371 1.433 . S
C373 N376 1.384 . S
C374 H365 0.929 . S
C374 C366 1.378 . S
C374 C369 1.350 . S
C375 H362 0.929 . S
C375 C367 1.433 . S
C375 N377 1.384 . S
N376 C372 1.427 . S
N376 C373 1.384 . S
N377 C369 1.427 . S
N377 C375 1.384 . S
H378 C384 0.930 . S
H379 C388 0.930 . S
H380 C393 0.929 . S
H381 C391 0.929 . S
H382 C386 0.929 . S
H383 C392 0.929 . S
C384 H378 0.930 . S
C384 C385 1.367 . S
C384 C392 1.378 . S
C385 C384 1.367 . S
C385 C393 1.433 . S
C386 H382 0.929 . S
C386 C388 1.378 . S
C386 C390 1.350 . S
C387 C390 1.463 . S
C387 C392 1.350 . S
C387 N395 1.427 . S
C388 H379 0.930 . S
C388 C386 1.378 . S
C388 C389 1.367 . S
C389 C388 1.367 . S
C389 C391 1.433 . S
C390 C386 1.350 . S
C390 C387 1.463 . S
C390 N394 1.427 . S
C391 H381 0.929 . S
C391 C389 1.433 . S
C391 N394 1.384 . S
C392 H383 0.929 . S
C392 C384 1.378 . S
C392 C387 1.350 . S
C393 H380 0.929 . S
C393 C385 1.433 . S
C393 N395 1.384 . S
N394 C390 1.427 . S
N394 C391 1.384 . S
N395 C387 1.427 . S
N395 C393 1.384 . S
H396 C402 0.930 . S
H397 C406 0.930 . S
H398 C411 0.929 . S
H399 C409 0.929 . S
H400 C404 0.929 . S
H401 C410 0.929 . S
C402 H396 0.930 . S
C402 C403 1.367 . S
C402 C410 1.378 . S
C403 C402 1.367 . S
C403 C411 1.433 1_545 S
C404 H400 0.929 . S
C404 C406 1.378 . S
C404 C408 1.350 1_565 S
C405 C408 1.463 . S
C405 C410 1.350 . S
C405 N413 1.427 1_545 S
C406 H397 0.930 . S
C406 C404 1.378 . S
C406 C407 1.367 1_565 S
C407 C406 1.367 1_545 S
C407 C409 1.433 . S
C408 C404 1.350 1_545 S
C408 C405 1.463 . S
C408 N412 1.427 . S
C409 H399 0.929 . S
C409 C407 1.433 . S
C409 N412 1.384 . S
C410 H401 0.929 . S
C410 C402 1.378 . S
C410 C405 1.350 . S
C411 H398 0.929 . S
C411 C403 1.433 1_565 S
C411 N413 1.384 . S
N412 C408 1.427 . S
N412 C409 1.384 . S
N413 C405 1.427 1_565 S
N413 C411 1.384 . S
H414 C420 0.930 . S
H415 C424 0.930 . S
H416 C429 0.929 . S
H417 C427 0.929 . S
H418 C422 0.929 1_556 S
H419 C428 0.929 . S
C420 H414 0.930 . S
C420 C421 1.367 . S
C420 C428 1.378 . S
C421 C420 1.367 . S
C421 C429 1.433 . S
C422 H418 0.929 1_554 S
C422 C424 1.378 . S
C422 C426 1.350 1_554 S
C423 C426 1.463 . S
C423 C428 1.350 . S
C423 N431 1.427 . S
C424 H415 0.930 . S
C424 C422 1.378 . S
C424 C425 1.367 . S
C425 C424 1.367 . S
C425 C427 1.433 . S
C426 C422 1.350 1_556 S
C426 C423 1.463 . S
C426 N430 1.427 1_556 S
C427 H417 0.929 . S
C427 C425 1.433 . S
C427 N430 1.384 . S
C428 H419 0.929 . S
C428 C420 1.378 . S
C428 C423 1.350 . S
C429 H416 0.929 . S
C429 C421 1.433 . S
C429 N431 1.384 . S
N430 C426 1.427 1_554 S
N430 C427 1.384 . S
N431 C423 1.427 . S
N431 C429 1.384 . S
H432 C438 0.930 . S
H433 C442 0.930 . S
H434 C447 0.919 1_655 S
H435 C445 0.928 1_455 S
H436 C440 0.929 . S
H437 C446 0.929 . S
C438 H432 0.930 . S
C438 C439 1.367 . S
C438 C446 1.378 . S
C439 C438 1.367 . S
C439 C447 1.433 . S
C440 H436 0.929 . S
C440 C442 1.378 . S
C440 C444 1.350 . S
C441 C444 1.463 1_455 S
C441 C446 1.350 . S
C441 N449 1.427 1_455 S
C442 H433 0.930 . S
C442 C440 1.378 . S
C442 C443 1.367 . S
C443 C442 1.367 . S
C443 C445 1.435 . S
C444 C440 1.350 . S
C444 C441 1.463 1_655 S
C444 N448 1.427 1_655 S
C445 H435 0.928 1_655 S
C445 C443 1.435 . S
C445 N448 1.383 1_655 S
C446 H437 0.929 . S
C446 C438 1.378 . S
C446 C441 1.350 . S
C447 H434 0.919 1_455 S
C447 C439 1.433 . S
C447 N449 1.384 1_455 S
N448 C444 1.427 1_455 S
N448 C445 1.383 1_455 S
N449 C441 1.427 1_655 S
N449 C447 1.384 1_655 S
C133 C8 2.119 . S
C137 C120 1.870 . S
C151 C26 1.489 . S
C155 C98 1.306 . S
C169 C48 1.388 . S
C173 C112 1.414 . S
C187 C19 1.672 . S
C191 C123 1.676 . S
C209 C101 1.334 . S
C205 C36 1.330 . S
C227 C109 1.540 . S
C223 C59 1.725 . S
C241 C28 1.674 . S
C245 C76 1.494 . S
C259 C46 1.309 . S
C263 C87 1.117 . S
C277 C16 1.622 . S
C281 C65 1.361 . S
C299 C79 1.517 . S
C295 C39 1.502 . S
C317 C90 0.893 . S
C313 C56 0.886 . S
C331 C6 1.263 . S
C335 C68 1.225 . S
C353 C89 1.413 . S
C349 C9 1.454 . S
C367 C21 1.497 . S
C371 C67 1.442 . S
C385 C49 1.540 . S
C389 C78 1.458 . S
C407 C111 1.418 . S
C403 C29 1.457 . S
C425 C122 1.513 . S
C421 C41 1.575 . S
C439 C1 1.535 . S
C443 C100 1.470 . S
