# Generated by pormake.
# Topology nia, (6,6)-cn, num edge types: 1
# Building blocks:
#     Node 0, Type 0, BuildingBlock: LEVNOQ01_clean_sbu_1, # of connection points: 6
#     Node 1, Type 0, BuildingBlock: LEVNOQ01_clean_sbu_1, # of connection points: 6
#     Node 2, Type 1, BuildingBlock: MIDCAF_clean_sbu_0, # of connection points: 6
#     Node 3, Type 1, BuildingBlock: MIDCAF_clean_sbu_0, # of connection points: 6
#     Edge 4, Type (0, 1), BuildingBlock: CIFDUS_clean_linker_0, # of connection points: 2
#     Edge 5, Type (0, 1), BuildingBlock: CIFDUS_clean_linker_0, # of connection points: 2
#     Edge 6, Type (0, 1), BuildingBlock: CIFDUS_clean_linker_0, # of connection points: 2
#     Edge 7, Type (0, 1), BuildingBlock: CIFDUS_clean_linker_0, # of connection points: 2
#     Edge 8, Type (0, 1), BuildingBlock: CIFDUS_clean_linker_0, # of connection points: 2
#     Edge 9, Type (0, 1), BuildingBlock: CIFDUS_clean_linker_0, # of connection points: 2
#     Edge 10, Type (0, 1), BuildingBlock: CIFDUS_clean_linker_0, # of connection points: 2
#     Edge 11, Type (0, 1), BuildingBlock: CIFDUS_clean_linker_0, # of connection points: 2
#     Edge 12, Type (0, 1), BuildingBlock: CIFDUS_clean_linker_0, # of connection points: 2
#     Edge 13, Type (0, 1), BuildingBlock: CIFDUS_clean_linker_0, # of connection points: 2
#     Edge 14, Type (0, 1), BuildingBlock: CIFDUS_clean_linker_0, # of connection points: 2
#     Edge 15, Type (0, 1), BuildingBlock: CIFDUS_clean_linker_0, # of connection points: 2
# Relax obj value: 0.123
# Max RMSD: 0.238
# Mean RMSD: 0.156
data_MOF--net-nia--node1-LEVNOQ01_clean_sbu_1--node2-MIDCAF_clean_sbu_0--edge1-CIFDUS_clean_linker_0
_symmetry_space_group_name_H-M    P1
_symmetry_Int_Tables_number       1
_symmetry_cell_setting            triclinic
loop_
_symmetry_equiv_pos_as_xyz
'x, y, z'
_cell_length_a     20.961648
_cell_length_b     20.972251
_cell_length_c     29.580866
_cell_angle_alpha  89.786801
_cell_angle_beta   91.178564
_cell_angle_gamma 128.15418
loop_
_atom_site_label
_atom_site_type_symbol
_atom_site_fract_x
_atom_site_fract_y
_atom_site_fract_z
_atom_type_partial_charge
O0 O 0.03744 0.16518 0.00757 0.0
Mg1 Mg 0.09451 0.11668 0.036 0.0
O2 O 0.95222 0.04947 0.972 0.0
Mg3 Mg 0.98066 0.98518 0.02135 0.0
O4 O 0.11755 0.05832 0.99366 0.0
O5 O 0.20688 0.19026 0.01249 0.0
O6 O 0.00762 0.91835 0.07141 0.0
O7 O 0.96152 0.90373 0.96039 0.0
Mg8 Mg 0.82183 0.79631 0.03001 0.0
O9 O 0.84896 0.90658 0.03928 0.0
O10 O 0.89618 0.79057 0.07771 0.0
O11 O 0.83743 0.78593 0.96083 0.0
O12 O 0.72557 0.79322 0.05041 0.0
C13 C 0.04286 0.09622 0.11573 0.0
C14 C 0.98241 0.12324 0.97746 0.0
C15 C 0.1887 0.12845 0.98993 0.0
C16 C 0.96984 0.84785 0.08858 0.0
C17 C 0.90438 0.83632 0.94152 0.0
C18 C 0.77536 0.87133 0.0509 0.0
O19 O 0.10762 0.10813 0.1064 0.0
O20 O -0.01324 0.06138 0.08532 0.0
O21 O 0.86064 0.00801 0.53264 0.0
Mg22 Mg 0.86671 0.91312 0.51245 0.0
O23 O 0.97703 0.06886 0.5692 0.0
Mg24 Mg 0.01337 0.00959 0.52174 0.0
O25 O 0.9168 0.87856 0.55451 0.0
O26 O 0.78248 0.81105 0.54553 0.0
O27 O 0.04977 0.95058 0.47124 0.0
O28 O 0.0852 0.00866 0.58309 0.0
Mg29 Mg 0.20211 0.12547 0.50834 0.0
O30 O 0.11524 0.13982 0.49932 0.0
O31 O 0.18149 0.04286 0.45885 0.0
O32 O 0.21682 0.10729 0.57654 0.0
O33 O 0.24677 0.23882 0.48758 0.0
C34 C 0.89634 0.956 0.43039 0.0
C35 C 0.91337 0.06182 0.56058 0.0
C36 C 0.84247 0.8172 0.56382 0.0
C37 C 0.11378 0.97456 0.45017 0.0
C38 C 0.15759 0.05054 0.59898 0.0
C39 C 0.17275 0.21312 0.48672 0.0
O40 O 0.86924 0.88685 0.44409 0.0
O41 O 0.94326 0.01547 0.45761 0.0
Zn42 Zn 0.28656 0.64663 0.18387 0.0
Zn43 Zn 0.337 0.73004 0.34619 0.0
Zn44 Zn 0.31114 0.68367 0.26457 0.0
C45 C 0.48699 0.78866 0.31732 0.0
C46 C 0.23468 0.56019 0.34657 0.0
O47 O 0.23394 0.71331 0.23473 0.0
O48 O 0.18795 0.63753 0.17277 0.0
C49 C 0.44769 0.78215 0.19097 0.0
O50 O 0.44499 0.75905 0.27993 0.0
O51 O 0.45344 0.78376 0.35341 0.0
O52 O 0.26127 0.62049 0.37199 0.0
O53 O 0.25045 0.57097 0.30409 0.0
O54 O 0.39063 0.74588 0.16178 0.0
O55 O 0.43212 0.76014 0.23267 0.0
O56 O 0.24717 0.55054 0.25812 0.0
O57 O 0.26869 0.54244 0.18628 0.0
C58 C 0.24296 0.50942 0.22425 0.0
O59 O 0.25649 0.74546 0.27804 0.0
O60 O 0.30371 0.79863 0.34648 0.0
C61 C 0.18544 0.68205 0.19991 0.0
C62 C 0.26382 0.78926 0.31129 0.0
Zn63 Zn 0.74161 0.36947 0.84022 0.0
Zn64 Zn 0.62223 0.25528 0.6953 0.0
Zn65 Zn 0.68118 0.3094 0.76833 0.0
C66 C 0.67296 0.41004 0.69288 0.0
C67 C 0.49404 0.15901 0.74454 0.0
O68 O 0.75051 0.26511 0.78964 0.0
O69 O 0.76342 0.29691 0.86207 0.0
C70 C 0.81355 0.50107 0.79391 0.0
O71 O 0.71373 0.41229 0.72682 0.0
O72 O 0.61608 0.3426 0.67515 0.0
O73 O 0.51836 0.14749 0.70914 0.0
O74 O 0.54599 0.22068 0.77003 0.0
O75 O 0.83765 0.48161 0.82658 0.0
O76 O 0.75212 0.44444 0.76963 0.0
O77 O 0.57738 0.25921 0.81229 0.0
O78 O 0.64545 0.35491 0.86465 0.0
C79 C 0.57851 0.29489 0.84789 0.0
O80 O 0.74222 0.25979 0.74229 0.0
O81 O 0.71093 0.25876 0.67072 0.0
C82 C 0.77089 0.26193 0.83054 0.0
C83 C 0.75158 0.25296 0.70006 0.0
H84 H 0.92398 0.70029 0.1125 0.0
H85 H 0.1149 0.95636 0.13393 0.0
H86 H 0.19381 0.92663 0.17786 0.0
H87 H 0.21559 0.828 0.20178 0.0
H88 H 0.02886 0.57376 0.17322 0.0
H89 H 0.94065 0.60227 0.14128 0.0
C90 C 0.98234 0.74974 0.12727 0.0
C91 C 0.01387 0.83045 0.11944 0.0
C92 C 0.02829 0.73234 0.15118 0.0
C93 C 0.08966 0.89365 0.13892 0.0
C94 C 0.1348 0.87671 0.16408 0.0
C95 C 0.15476 0.77899 0.18959 0.0
C96 C 0.12833 0.69902 0.18976 0.0
C97 C 0.10579 0.79634 0.16929 0.0
C98 C 0.05011 0.63579 0.17328 0.0
C99 C -7e-05 0.6521 0.15484 0.0
H100 H 0.20712 0.1325 0.67818 0.0
H101 H 0.15583 0.92223 0.61232 0.0
H102 H 0.24566 0.92208 0.66628 0.0
H103 H 0.36838 0.00823 0.71458 0.0
H104 H 0.42388 0.22306 0.77721 0.0
H105 H 0.30024 0.19252 0.7446 0.0
C106 C 0.2124 0.08421 0.67737 0.0
C107 C 0.17648 0.02823 0.64131 0.0
C108 C 0.26599 0.08616 0.70769 0.0
C109 C 0.18328 0.96582 0.64003 0.0
C110 C 0.23538 0.96638 0.67056 0.0
C111 C 0.35111 0.04597 0.72293 0.0
C112 C 0.40647 0.11918 0.74689 0.0
C113 C 0.28178 0.03014 0.70211 0.0
C114 C 0.38288 0.16675 0.75847 0.0
C115 C 0.31264 0.15009 0.73905 0.0
H116 H 0.15311 0.17371 0.18493 0.0
H117 H 0.94169 0.13607 0.1265 0.0
H118 H 0.9789 0.25788 0.16515 0.0
H119 H 0.08889 0.39108 0.19893 0.0
H120 H 0.30531 0.43377 0.25178 0.0
H121 H 0.24907 0.2941 0.23236 0.0
C122 C 0.11371 0.19069 0.18181 0.0
C123 C 0.04615 0.14734 0.1517 0.0
C124 C 0.13759 0.26288 0.20242 0.0
C125 C -0.00532 0.16892 0.14887 0.0
C126 C 0.01649 0.23922 0.17059 0.0
C127 C 0.1221 0.36843 0.20768 0.0
C128 C 0.20083 0.4218 0.2266 0.0
C129 C 0.09047 0.28927 0.19491 0.0
C130 C 0.24434 0.39308 0.23746 0.0
C131 C 0.21239 0.31358 0.22602 0.0
H132 H 0.91658 0.09343 0.65028 0.0
H133 H 0.88038 0.1513 0.51694 0.0
H134 H 0.84034 0.22827 0.54963 0.0
H135 H 0.7991 0.26343 0.61476 0.0
H136 H 0.82099 0.196 0.74861 0.0
H137 H 0.88453 0.13968 0.71752 0.0
C138 C 0.90121 0.12425 0.62867 0.0
C139 C 0.90075 0.11672 0.58139 0.0
C140 C 0.8749 0.16568 0.6478 0.0
C141 C 0.88034 0.15605 0.55342 0.0
C142 C 0.85746 0.19988 0.57208 0.0
C143 C 0.81826 0.23704 0.63742 0.0
C144 C 0.80344 0.23218 0.684 0.0
C145 C 0.85179 0.20259 0.61907 0.0
C146 C 0.8307 0.19965 0.71271 0.0
C147 C 0.8667 0.1671 0.6948 0.0
H148 H 0.79276 0.92294 0.13579 0.0
H149 H 0.6895 0.90921 1.00561 0.0
H150 H 0.58082 0.901 0.04168 0.0
H151 H 0.49481 0.85179 0.10815 0.0
H152 H 0.591 0.84886 0.23692 0.0
H153 H 0.72246 0.91017 0.20466 0.0
C154 C 0.74895 0.9229 0.11554 0.0
C155 C 0.74756 0.91519 0.06844 0.0
C156 C 0.68324 0.91135 0.13657 0.0
C157 C 0.69104 0.91495 0.04209 0.0
C158 C 0.62805 0.90859 0.06276 0.0
C159 C 0.54507 0.86637 0.12945 0.0
C160 C 0.5319 0.84168 0.17489 0.0
C161 C 0.61977 0.89908 0.10976 0.0
C162 C 0.59855 0.86431 0.20205 0.0
C163 C 0.67403 0.89961 0.18331 0.0
H164 H 0.69506 0.68096 0.58592 0.0
H165 H 0.95119 0.80929 0.61173 0.0
H166 H 0.92068 0.6975 0.65876 0.0
H167 H 0.82103 0.55779 0.68689 0.0
H168 H 0.56638 0.42894 0.65638 0.0
H169 H 0.59651 0.54707 0.61723 0.0
C170 C 0.74448 0.68498 0.60193 0.0
C171 C 0.82534 0.75291 0.59474 0.0
C172 C 0.72666 0.62022 0.62804 0.0
C173 C 0.88838 0.75721 0.61625 0.0
C174 C 0.87098 0.69336 0.64317 0.0
C175 C 0.77232 0.55631 0.67215 0.0
C176 C 0.69177 0.4849 0.67407 0.0
C177 C 0.79036 0.62377 0.64848 0.0
C178 C 0.62894 0.48314 0.65478 0.0
C179 C 0.6461 0.55055 0.63243 0.0
H180 H 0.21358 0.02699 0.37973 0.0
H181 H 0.0086 0.80855 0.44044 0.0
H182 H 0.02441 0.72671 0.39008 0.0
H183 H 0.1153 0.72091 0.34164 0.0
H184 H 0.32563 0.94088 0.28621 0.0
H185 H 0.28778 0.01891 0.32039 0.0
C186 C 0.1715 0.96133 0.38151 0.0
C187 C 0.11163 0.92373 0.4147 0.0
C188 C 0.18197 0.91527 0.35319 0.0
C189 C 0.056 0.83878 0.41569 0.0
C190 C 0.06517 0.79212 0.38697 0.0
C191 C 0.15017 0.78529 0.33524 0.0
C192 C 0.22266 0.82552 0.31146 0.0
C193 C 0.13037 0.83 0.35722 0.0
C194 C 0.26891 0.90897 0.30388 0.0
C195 C 0.24802 0.9536 0.32413 0.0
H196 H 0.31078 0.26976 0.95471 0.0
H197 H 0.20008 0.01508 0.9528 0.0
H198 H 0.30778 0.04254 0.90371 0.0
H199 H 0.44062 0.14268 0.86657 0.0
H200 H 0.54916 0.39673 0.87324 0.0
H201 H 0.434 0.36565 0.91465 0.0
C202 C 0.30999 0.21995 0.94374 0.0
C203 C 0.2488 0.14083 0.95818 0.0
C204 C 0.37161 0.23627 0.9162 0.0
C205 C 0.24733 0.07676 0.94251 0.0
C206 C 0.30882 0.0925 0.91451 0.0
C207 C 0.43805 0.19065 0.87677 0.0
C208 C 0.50328 0.2719 0.86761 0.0
C209 C 0.37229 0.17245 0.90186 0.0
C210 C 0.4999 0.33395 0.88064 0.0
C211 C 0.43425 0.31628 0.90428 0.0
H212 H 0.10795 0.21266 0.40676 0.0
H213 H 0.21164 0.34232 0.53323 0.0
H214 H 0.22956 0.45995 0.50151 0.0
H215 H 0.23729 0.53221 0.43519 0.0
H216 H 0.13931 0.40784 0.30693 0.0
H217 H 0.09745 0.28127 0.34161 0.0
C218 C 0.13128 0.26567 0.42763 0.0
C219 C 0.15741 0.26925 0.4723 0.0
C220 C 0.14469 0.33437 0.40844 0.0
C221 C 0.18985 0.33845 0.49902 0.0
C222 C 0.20098 0.40583 0.48073 0.0
C223 C 0.20549 0.47727 0.41476 0.0
C224 C 0.19485 0.4802 0.36791 0.0
C225 C 0.18197 0.40557 0.435 0.0
C226 C 0.15221 0.408 0.3424 0.0
C227 C 0.1273 0.33549 0.36245 0.0
H228 H 0.85861 0.04959 0.914 0.0
H229 H 0.04954 0.28274 0.97415 0.0
H230 H 0.00819 0.34721 0.92704 0.0
H231 H 0.9118 0.33666 0.8742 0.0
H232 H 0.71456 0.10519 0.81672 0.0
H233 H 0.76576 0.04073 0.85612 0.0
C234 C 0.89131 0.11453 0.91661 0.0
C235 C 0.95658 0.1611 0.948 0.0
C236 C 0.86669 0.1515 0.88953 0.0
C237 C -0.00143 0.24523 0.95078 0.0
C238 C 0.9753 0.28235 0.92366 0.0
C239 C 0.8813 0.27236 0.86944 0.0
C240 C 0.81034 0.22558 0.84248 0.0
C241 C 0.90887 0.23597 0.89357 0.0
C242 C 0.77029 0.14234 0.83676 0.0
C243 C 0.79892 0.10557 0.8598 0.0
H244 H 0.8122 0.84925 0.36133 0.0
H245 H 0.86888 0.06706 0.42044 0.0
H246 H 0.74849 0.03894 0.38345 0.0
H247 H 0.61228 0.93654 0.34941 0.0
H248 H 0.55242 0.71547 0.29387 0.0
H249 H 0.68838 0.76005 0.31451 0.0
C250 C 0.79976 0.89211 0.36473 0.0
C251 C 0.84827 0.9591 0.39441 0.0
C252 C 0.72843 0.87349 0.34511 0.0
C253 C 0.83236 0.01484 0.39802 0.0
C254 C 0.76267 0.99804 0.37744 0.0
C255 C 0.63012 0.89938 0.34085 0.0
C256 C 0.57298 0.8229 0.32049 0.0
C257 C 0.70783 0.92503 0.35336 0.0
C258 C 0.5959 0.77467 0.30948 0.0
C259 C 0.67341 0.8001 0.32137 0.0
H260 H 0.80179 0.76061 0.86971 0.0
H261 H 0.03782 0.84966 0.921 0.0
H262 H 0.04083 0.76411 0.86653 0.0
H263 H 0.95977 0.6393 0.82013 0.0
H264 H 0.72153 0.54772 0.77125 0.0
H265 H 0.73756 0.6615 0.80681 0.0
C266 C 0.85513 0.76347 0.86761 0.0
C267 C 0.91865 0.80953 0.8997 0.0
C268 C 0.85573 0.71326 0.83675 0.0
C269 C -0.01191 0.8141 0.89664 0.0
C270 C -0.01053 0.76469 0.86576 0.0
C271 C 0.91305 0.64651 0.81551 0.0
C272 C 0.8388 0.58418 0.79422 0.0
C273 C 0.9213 0.71027 0.8378 0.0
C274 C 0.77914 0.59456 0.78768 0.0
C275 C 0.78768 0.65901 0.80876 0.0
loop_
_geom_bond_atom_site_label_1
_geom_bond_atom_site_label_2
_geom_bond_distance
_geom_bond_site_symmetry_2
_ccdc_geom_bond_type
O0 Mg1 1.990 . S
O0 C14 1.253 1_455 S
Mg1 O0 1.990 . S
Mg1 O4 2.180 . S
Mg1 O5 2.117 . S
Mg1 O19 2.030 1_556 S
O2 Mg3 2.072 1_656 S
O2 C14 1.260 . S
Mg3 O2 2.072 1_454 S
Mg3 O4 2.099 1_554 S
Mg3 O6 2.079 1_545 S
Mg3 O7 2.072 1_444 S
Mg3 O9 2.099 1_445 S
Mg3 O20 2.079 . S
O4 Mg1 2.180 . S
O4 Mg3 2.099 1_556 S
O4 C15 1.279 . S
O5 Mg1 2.117 . S
O5 C15 1.250 . S
O6 Mg3 2.079 1_565 S
O6 C16 1.264 . S
O7 Mg3 2.072 1_666 S
O7 C17 1.260 . S
Mg8 O9 2.180 . S
Mg8 O10 2.030 . S
Mg8 O11 1.990 1_554 S
Mg8 O12 2.117 . S
O9 Mg3 2.099 1_665 S
O9 Mg8 2.180 . S
O9 C18 1.279 . S
O10 Mg8 2.030 . S
O10 C16 1.248 1_655 S
O11 Mg8 1.990 1_556 S
O11 C17 1.253 . S
O12 Mg8 2.117 . S
O12 C18 1.250 . S
C13 O19 1.248 . S
C13 O20 1.264 . S
C14 O0 1.253 1_655 S
C14 O2 1.260 . S
C15 O4 1.279 . S
C15 O5 1.250 . S
C16 O6 1.264 . S
C16 O10 1.248 1_455 S
C17 O7 1.260 . S
C17 O11 1.253 . S
C18 O9 1.279 . S
C18 O12 1.250 . S
O19 Mg1 2.030 1_554 S
O19 C13 1.248 . S
O20 Mg3 2.079 . S
O20 C13 1.264 . S
O21 Mg22 1.990 . S
O21 C35 1.253 1_565 S
Mg22 O21 1.990 . S
Mg22 O25 2.180 . S
Mg22 O26 2.117 . S
Mg22 O40 2.030 . S
O23 Mg24 2.072 1_645 S
O23 C35 1.260 . S
Mg24 O23 2.072 1_465 S
Mg24 O25 2.099 1_455 S
Mg24 O27 2.079 . S
Mg24 O28 2.072 1_565 S
Mg24 O30 2.099 1_565 S
Mg24 O41 2.079 1_455 S
O25 Mg22 2.180 . S
O25 Mg24 2.099 1_655 S
O25 C36 1.279 . S
O26 Mg22 2.117 . S
O26 C36 1.250 . S
O27 Mg24 2.079 . S
O27 C37 1.264 . S
O28 Mg24 2.072 1_545 S
O28 C38 1.260 . S
Mg29 O30 2.180 . S
Mg29 O31 2.030 . S
Mg29 O32 1.990 . S
Mg29 O33 2.117 . S
O30 Mg24 2.099 1_545 S
O30 Mg29 2.180 . S
O30 C39 1.279 . S
O31 Mg29 2.030 . S
O31 C37 1.248 1_545 S
O32 Mg29 1.990 . S
O32 C38 1.253 . S
O33 Mg29 2.117 . S
O33 C39 1.250 . S
C34 O40 1.248 . S
C34 O41 1.264 . S
C35 O21 1.253 1_545 S
C35 O23 1.260 . S
C36 O25 1.279 . S
C36 O26 1.250 . S
C37 O27 1.264 . S
C37 O31 1.248 1_565 S
C38 O28 1.260 . S
C38 O32 1.253 . S
C39 O30 1.279 . S
C39 O33 1.250 . S
O40 Mg22 2.030 . S
O40 C34 1.248 . S
O41 Mg24 2.079 1_655 S
O41 C34 1.264 . S
Zn42 O48 1.920 . S
Zn42 O54 1.898 . S
Zn42 O57 1.905 . S
Zn43 O51 1.905 . S
Zn43 O52 1.898 . S
Zn43 O60 1.920 . S
Zn44 O47 2.080 . S
Zn44 O50 2.114 . S
Zn44 O53 2.120 . S
Zn44 O55 2.120 . S
Zn44 O56 2.114 . S
Zn44 O59 2.080 . S
C45 O50 1.166 . S
C45 O51 1.182 . S
C46 O52 1.167 . S
C46 O53 1.299 . S
O47 Zn44 2.080 . S
O47 C61 1.305 . S
O48 Zn42 1.920 . S
O48 C61 1.234 . S
C49 O54 1.167 . S
C49 O55 1.299 . S
O50 Zn44 2.114 . S
O50 C45 1.166 . S
O51 Zn43 1.905 . S
O51 C45 1.182 . S
O52 Zn43 1.898 . S
O52 C46 1.167 . S
O53 Zn44 2.120 . S
O53 C46 1.299 . S
O54 Zn42 1.898 . S
O54 C49 1.167 . S
O55 Zn44 2.120 . S
O55 C49 1.299 . S
O56 Zn44 2.114 . S
O56 C58 1.166 . S
O57 Zn42 1.905 . S
O57 C58 1.182 . S
C58 O56 1.166 . S
C58 O57 1.182 . S
O59 Zn44 2.080 . S
O59 C62 1.305 . S
O60 Zn43 1.920 . S
O60 C62 1.234 . S
C61 O47 1.305 . S
C61 O48 1.234 . S
C62 O59 1.305 . S
C62 O60 1.234 . S
Zn63 O69 1.920 . S
Zn63 O75 1.898 . S
Zn63 O78 1.905 . S
Zn64 O72 1.905 . S
Zn64 O73 1.898 . S
Zn64 O81 1.920 . S
Zn65 O68 2.080 . S
Zn65 O71 2.114 . S
Zn65 O74 2.120 . S
Zn65 O76 2.120 . S
Zn65 O77 2.114 . S
Zn65 O80 2.080 . S
C66 O71 1.166 . S
C66 O72 1.182 . S
C67 O73 1.167 . S
C67 O74 1.299 . S
O68 Zn65 2.080 . S
O68 C82 1.305 . S
O69 Zn63 1.920 . S
O69 C82 1.234 . S
C70 O75 1.167 . S
C70 O76 1.299 . S
O71 Zn65 2.114 . S
O71 C66 1.166 . S
O72 Zn64 1.905 . S
O72 C66 1.182 . S
O73 Zn64 1.898 . S
O73 C67 1.167 . S
O74 Zn65 2.120 . S
O74 C67 1.299 . S
O75 Zn63 1.898 . S
O75 C70 1.167 . S
O76 Zn65 2.120 . S
O76 C70 1.299 . S
O77 Zn65 2.114 . S
O77 C79 1.166 . S
O78 Zn63 1.905 . S
O78 C79 1.182 . S
C79 O77 1.166 . S
C79 O78 1.182 . S
O80 Zn65 2.080 . S
O80 C83 1.305 . S
O81 Zn64 1.920 . S
O81 C83 1.234 . S
C82 O68 1.305 . S
C82 O69 1.234 . S
C83 O80 1.305 . S
C83 O81 1.234 . S
H84 C90 0.930 . S
H85 C93 0.930 1_545 S
H86 C94 0.930 . S
H87 C95 0.930 . S
H88 C98 0.930 . S
H89 C99 0.930 . S
C90 H84 0.930 . S
C90 C91 1.355 . S
C90 C92 1.415 . S
C91 C90 1.355 . S
C91 C93 1.419 . S
C92 C90 1.415 . S
C92 C97 1.425 . S
C92 C99 1.409 . S
C93 H85 0.930 1_565 S
C93 C91 1.419 . S
C93 C94 1.362 . S
C94 H86 0.930 . S
C94 C93 1.362 . S
C94 C97 1.409 . S
C95 H87 0.930 . S
C95 C96 1.355 . S
C95 C97 1.415 . S
C96 C95 1.355 . S
C96 C98 1.419 . S
C97 C92 1.425 . S
C97 C94 1.409 . S
C97 C95 1.415 . S
C98 H88 0.930 . S
C98 C96 1.419 . S
C98 C99 1.362 . S
C99 H89 0.930 . S
C99 C92 1.409 . S
C99 C98 1.362 . S
H100 C106 0.930 . S
H101 C109 0.930 . S
H102 C110 0.930 . S
H103 C111 0.930 . S
H104 C114 0.930 . S
H105 C115 0.930 . S
C106 H100 0.930 . S
C106 C107 1.355 . S
C106 C108 1.415 . S
C107 C106 1.355 . S
C107 C109 1.419 . S
C108 C106 1.415 . S
C108 C113 1.425 . S
C108 C115 1.409 . S
C109 H101 0.930 . S
C109 C107 1.419 . S
C109 C110 1.362 . S
C110 H102 0.930 . S
C110 C109 1.362 . S
C110 C113 1.409 . S
C111 H103 0.930 . S
C111 C112 1.355 . S
C111 C113 1.415 . S
C112 C111 1.355 . S
C112 C114 1.419 . S
C113 C108 1.425 . S
C113 C110 1.409 . S
C113 C111 1.415 . S
C114 H104 0.930 . S
C114 C112 1.419 . S
C114 C115 1.362 . S
C115 H105 0.930 . S
C115 C108 1.409 . S
C115 C114 1.362 . S
H116 C122 0.930 . S
H117 C125 0.930 1_655 S
H118 C126 0.930 . S
H119 C127 0.930 . S
H120 C130 0.930 . S
H121 C131 0.930 . S
C122 H116 0.930 . S
C122 C123 1.355 . S
C122 C124 1.415 . S
C123 C122 1.355 . S
C123 C125 1.419 . S
C124 C122 1.415 . S
C124 C129 1.425 . S
C124 C131 1.409 . S
C125 H117 0.930 1_455 S
C125 C123 1.419 . S
C125 C126 1.362 . S
C126 H118 0.930 . S
C126 C125 1.362 . S
C126 C129 1.409 . S
C127 H119 0.930 . S
C127 C128 1.355 . S
C127 C129 1.415 . S
C128 C127 1.355 . S
C128 C130 1.419 . S
C129 C124 1.425 . S
C129 C126 1.409 . S
C129 C127 1.415 . S
C130 H120 0.930 . S
C130 C128 1.419 . S
C130 C131 1.362 . S
C131 H121 0.930 . S
C131 C124 1.409 . S
C131 C130 1.362 . S
H132 C138 0.930 . S
H133 C141 0.930 . S
H134 C142 0.930 . S
H135 C143 0.930 . S
H136 C146 0.930 . S
H137 C147 0.930 1_455 S
C138 H132 0.930 . S
C138 C139 1.355 . S
C138 C140 1.415 . S
C139 C138 1.355 . S
C139 C141 1.419 . S
C140 C138 1.415 . S
C140 C145 1.425 . S
C140 C147 1.409 . S
C141 H133 0.930 . S
C141 C139 1.419 . S
C141 C142 1.362 . S
C142 H134 0.930 . S
C142 C141 1.362 . S
C142 C145 1.409 . S
C143 H135 0.930 . S
C143 C144 1.355 . S
C143 C145 1.415 . S
C144 C143 1.355 . S
C144 C146 1.419 . S
C145 C140 1.425 . S
C145 C142 1.409 . S
C145 C143 1.415 . S
C146 H136 0.930 . S
C146 C144 1.419 . S
C146 C147 1.362 . S
C147 H137 0.930 1_655 S
C147 C140 1.409 . S
C147 C146 1.362 . S
H148 C154 0.930 . S
H149 C157 0.930 . S
H150 C158 0.930 . S
H151 C159 0.930 . S
H152 C162 0.930 . S
H153 C163 0.930 . S
C154 H148 0.930 . S
C154 C155 1.355 . S
C154 C156 1.415 . S
C155 C154 1.355 . S
C155 C157 1.419 . S
C156 C154 1.415 . S
C156 C161 1.425 . S
C156 C163 1.409 . S
C157 H149 0.930 . S
C157 C155 1.419 . S
C157 C158 1.362 . S
C158 H150 0.930 . S
C158 C157 1.362 . S
C158 C161 1.409 . S
C159 H151 0.930 . S
C159 C160 1.355 . S
C159 C161 1.415 . S
C160 C159 1.355 . S
C160 C162 1.419 . S
C161 C156 1.425 . S
C161 C158 1.409 . S
C161 C159 1.415 . S
C162 H152 0.930 . S
C162 C160 1.419 . S
C162 C163 1.362 . S
C163 H153 0.930 . S
C163 C156 1.409 . S
C163 C162 1.362 . S
H164 C170 0.930 . S
H165 C173 0.930 1_455 S
H166 C174 0.930 . S
H167 C175 0.930 . S
H168 C178 0.930 . S
H169 C179 0.930 . S
C170 H164 0.930 . S
C170 C171 1.355 . S
C170 C172 1.415 . S
C171 C170 1.355 . S
C171 C173 1.419 . S
C172 C170 1.415 . S
C172 C177 1.425 . S
C172 C179 1.409 . S
C173 H165 0.930 1_655 S
C173 C171 1.419 . S
C173 C174 1.362 . S
C174 H166 0.930 . S
C174 C173 1.362 . S
C174 C177 1.409 . S
C175 H167 0.930 . S
C175 C176 1.355 . S
C175 C177 1.415 . S
C176 C175 1.355 . S
C176 C178 1.419 . S
C177 C172 1.425 . S
C177 C174 1.409 . S
C177 C175 1.415 . S
C178 H168 0.930 . S
C178 C176 1.419 . S
C178 C179 1.362 . S
C179 H169 0.930 . S
C179 C172 1.409 . S
C179 C178 1.362 . S
H180 C186 0.930 . S
H181 C189 0.930 . S
H182 C190 0.930 . S
H183 C191 0.930 . S
H184 C194 0.930 . S
H185 C195 0.930 1_545 S
C186 H180 0.930 . S
C186 C187 1.355 . S
C186 C188 1.415 . S
C187 C186 1.355 . S
C187 C189 1.419 . S
C188 C186 1.415 . S
C188 C193 1.425 . S
C188 C195 1.409 . S
C189 H181 0.930 . S
C189 C187 1.419 . S
C189 C190 1.362 . S
C190 H182 0.930 . S
C190 C189 1.362 . S
C190 C193 1.409 . S
C191 H183 0.930 . S
C191 C192 1.355 . S
C191 C193 1.415 . S
C192 C191 1.355 . S
C192 C194 1.419 . S
C193 C188 1.425 . S
C193 C190 1.409 . S
C193 C191 1.415 . S
C194 H184 0.930 . S
C194 C192 1.419 . S
C194 C195 1.362 . S
C195 H185 0.930 1_565 S
C195 C188 1.409 . S
C195 C194 1.362 . S
H196 C202 0.930 . S
H197 C205 0.922 1_565 S
H198 C206 0.930 . S
H199 C207 0.930 . S
H200 C210 0.930 . S
H201 C211 0.930 . S
C202 H196 0.930 . S
C202 C203 1.355 . S
C202 C204 1.415 . S
C203 C202 1.355 . S
C203 C205 1.419 . S
C204 C202 1.415 . S
C204 C209 1.425 . S
C204 C211 1.409 . S
C205 H197 0.922 1_545 S
C205 C203 1.419 . S
C205 C206 1.362 . S
C206 H198 0.930 . S
C206 C205 1.362 . S
C206 C209 1.409 . S
C207 H199 0.930 . S
C207 C208 1.355 . S
C207 C209 1.415 . S
C208 C207 1.355 . S
C208 C210 1.419 . S
C209 C204 1.425 . S
C209 C206 1.409 . S
C209 C207 1.415 . S
C210 H200 0.930 . S
C210 C208 1.419 . S
C210 C211 1.362 . S
C211 H201 0.930 . S
C211 C204 1.409 . S
C211 C210 1.362 . S
H212 C218 0.930 . S
H213 C221 0.930 . S
H214 C222 0.930 . S
H215 C223 0.930 . S
H216 C226 0.930 . S
H217 C227 0.930 1_655 S
C218 H212 0.930 . S
C218 C219 1.355 . S
C218 C220 1.415 . S
C219 C218 1.355 . S
C219 C221 1.419 . S
C220 C218 1.415 . S
C220 C225 1.425 . S
C220 C227 1.409 . S
C221 H213 0.930 . S
C221 C219 1.419 . S
C221 C222 1.362 . S
C222 H214 0.930 . S
C222 C221 1.362 . S
C222 C225 1.409 . S
C223 H215 0.930 . S
C223 C224 1.355 . S
C223 C225 1.415 . S
C224 C223 1.355 . S
C224 C226 1.419 . S
C225 C220 1.425 . S
C225 C222 1.409 . S
C225 C223 1.415 . S
C226 H216 0.930 . S
C226 C224 1.419 . S
C226 C227 1.362 . S
C227 H217 0.930 1_455 S
C227 C220 1.409 . S
C227 C226 1.362 . S
H228 C234 0.930 . S
H229 C237 0.930 1_455 S
H230 C238 0.930 . S
H231 C239 0.930 . S
H232 C242 0.930 . S
H233 C243 0.930 . S
C234 H228 0.930 . S
C234 C235 1.355 . S
C234 C236 1.415 . S
C235 C234 1.355 . S
C235 C237 1.419 . S
C236 C234 1.415 . S
C236 C241 1.425 . S
C236 C243 1.409 . S
C237 H229 0.930 1_655 S
C237 C235 1.419 . S
C237 C238 1.362 . S
C238 H230 0.930 . S
C238 C237 1.362 . S
C238 C241 1.409 . S
C239 H231 0.930 . S
C239 C240 1.355 . S
C239 C241 1.415 . S
C240 C239 1.355 . S
C240 C242 1.419 . S
C241 C236 1.425 . S
C241 C238 1.409 . S
C241 C239 1.415 . S
C242 H232 0.930 . S
C242 C240 1.419 . S
C242 C243 1.362 . S
C243 H233 0.930 . S
C243 C236 1.409 . S
C243 C242 1.362 . S
H244 C250 0.930 . S
H245 C253 0.930 1_545 S
H246 C254 0.930 . S
H247 C255 0.930 . S
H248 C258 0.930 . S
H249 C259 0.930 . S
C250 H244 0.930 . S
C250 C251 1.355 . S
C250 C252 1.415 . S
C251 C250 1.355 . S
C251 C253 1.419 . S
C252 C250 1.415 . S
C252 C257 1.425 . S
C252 C259 1.409 . S
C253 H245 0.930 1_565 S
C253 C251 1.419 . S
C253 C254 1.362 . S
C254 H246 0.930 . S
C254 C253 1.362 . S
C254 C257 1.409 . S
C255 H247 0.930 . S
C255 C256 1.355 . S
C255 C257 1.415 . S
C256 C255 1.355 . S
C256 C258 1.419 . S
C257 C252 1.425 . S
C257 C254 1.409 . S
C257 C255 1.415 . S
C258 H248 0.930 . S
C258 C256 1.419 . S
C258 C259 1.362 . S
C259 H249 0.930 . S
C259 C252 1.409 . S
C259 C258 1.362 . S
H260 C266 0.930 . S
H261 C269 0.930 1_455 S
H262 C270 0.930 1_455 S
H263 C271 0.930 . S
H264 C274 0.930 . S
H265 C275 0.930 . S
C266 H260 0.930 . S
C266 C267 1.355 . S
C266 C268 1.415 . S
C267 C266 1.355 . S
C267 C269 1.419 . S
C268 C266 1.415 . S
C268 C273 1.425 . S
C268 C275 1.409 . S
C269 H261 0.930 1_655 S
C269 C267 1.419 . S
C269 C270 1.362 . S
C270 H262 0.930 1_655 S
C270 C269 1.362 . S
C270 C273 1.409 . S
C271 H263 0.930 . S
C271 C272 1.355 . S
C271 C273 1.415 . S
C272 C271 1.355 . S
C272 C274 1.419 . S
C273 C268 1.425 . S
C273 C270 1.409 . S
C273 C271 1.415 . S
C274 H264 0.930 . S
C274 C272 1.419 . S
C274 C275 1.362 . S
C275 H265 0.930 . S
C275 C268 1.409 . S
C275 C274 1.362 . S
C91 C16 1.413 . S
C96 C61 1.307 . S
C107 C38 1.492 . S
C112 C67 1.419 . S
C123 C13 1.378 . S
C128 C58 1.256 . S
C139 C35 1.539 . S
C144 C83 1.462 . S
C155 C18 1.434 . S
C160 C49 1.434 . S
C176 C66 1.386 . S
C171 C36 1.325 . S
C187 C37 1.417 . S
C192 C62 1.325 . S
C208 C79 1.428 . S
C203 C15 1.347 . S
C224 C46 1.429 . S
C219 C39 1.353 . S
C240 C82 1.413 . S
C235 C14 1.522 . S
C256 C45 1.242 . S
C251 C34 1.382 . S
C272 C70 1.398 . S
C267 C17 1.504 . S
