# Generated by pormake.
# Topology pth, (4,4)-cn, num edge types: 1
# Building blocks:
#     Node 0, Type 0, BuildingBlock: QUQFOY_clean_sbu_3, # of connection points: 4
#     Node 1, Type 0, BuildingBlock: QUQFOY_clean_sbu_3, # of connection points: 4
#     Node 2, Type 0, BuildingBlock: QUQFOY_clean_sbu_3, # of connection points: 4
#     Node 3, Type 1, BuildingBlock: NAWXER_clean_sbu_0, # of connection points: 4
#     Node 4, Type 1, BuildingBlock: NAWXER_clean_sbu_0, # of connection points: 4
#     Node 5, Type 1, BuildingBlock: NAWXER_clean_sbu_0, # of connection points: 4
#     Edge 6, Type (0, 1), BuildingBlock: XIVTED_clean_linker_0, # of connection points: 2
#     Edge 7, Type (0, 1), BuildingBlock: XIVTED_clean_linker_0, # of connection points: 2
#     Edge 8, Type (0, 1), BuildingBlock: XIVTED_clean_linker_0, # of connection points: 2
#     Edge 9, Type (0, 1), BuildingBlock: XIVTED_clean_linker_0, # of connection points: 2
#     Edge 10, Type (0, 1), BuildingBlock: XIVTED_clean_linker_0, # of connection points: 2
#     Edge 11, Type (0, 1), BuildingBlock: XIVTED_clean_linker_0, # of connection points: 2
#     Edge 12, Type (0, 1), BuildingBlock: XIVTED_clean_linker_0, # of connection points: 2
#     Edge 13, Type (0, 1), BuildingBlock: XIVTED_clean_linker_0, # of connection points: 2
#     Edge 14, Type (0, 1), BuildingBlock: XIVTED_clean_linker_0, # of connection points: 2
#     Edge 15, Type (0, 1), BuildingBlock: XIVTED_clean_linker_0, # of connection points: 2
#     Edge 16, Type (0, 1), BuildingBlock: XIVTED_clean_linker_0, # of connection points: 2
#     Edge 17, Type (0, 1), BuildingBlock: XIVTED_clean_linker_0, # of connection points: 2
# Relax obj value: 0.004
# Max RMSD: 0.054
# Mean RMSD: 0.030
data_MOF--net-pth--node1-QUQFOY_clean_sbu_3--node2-NAWXER_clean_sbu_0--edge1-XIVTED_clean_linker_0
_symmetry_space_group_name_H-M    P1
_symmetry_Int_Tables_number       1
_symmetry_cell_setting            triclinic
loop_
_symmetry_equiv_pos_as_xyz
'x, y, z'
_cell_length_a     23.455305
_cell_length_b     23.201311
_cell_length_c     60.056662
_cell_angle_alpha  90.11566
_cell_angle_beta   90.834597
_cell_angle_gamma 120.6612
loop_
_atom_site_label
_atom_site_type_symbol
_atom_site_fract_x
_atom_site_fract_y
_atom_site_fract_z
_atom_type_partial_charge
C0 C 0.04375 0.24546 0.07821 0.0
O1 O 0.01915 0.24791 0.05952 0.0
Cd2 Cd 0.99071 0.16604 0.03015 0.0
O3 O 0.05262 0.19692 0.08252 0.0
Cd4 Cd 0.03308 0.09524 0.06232 0.0
C5 C 0.14001 0.17992 0.02169 0.0
O6 O 0.92424 0.05354 0.04303 0.0
O7 O 0.98596 0.01499 0.03211 0.0
O8 O 0.98745 0.02683 0.09551 0.0
C9 C 0.92988 0.01069 0.03157 0.0
O10 O 0.0919 0.18349 0.01321 0.0
C11 C 0.02844 0.0065 0.09608 0.0
O12 O 0.13611 0.15639 0.04112 0.0
O13 O 0.07342 0.0299 0.08154 0.0
C14 C 0.16588 0.1385 0.42367 0.0
O15 O 0.19898 0.18838 0.41115 0.0
Cd16 Cd 0.14748 0.19777 0.37741 0.0
O17 O 0.10352 0.10178 0.42086 0.0
Cd18 Cd 0.01252 0.09805 0.39869 0.0
C19 C 0.0687 0.03015 0.36217 0.0
O20 O 0.05263 0.20883 0.38282 0.0
O21 O 0.96889 0.12424 0.36612 0.0
O22 O 0.98215 0.12981 0.43249 0.0
C23 C 0.00726 0.18724 0.36779 0.0
O24 O 0.11418 0.09096 0.35965 0.0
C25 C 0.92274 0.08137 0.43283 0.0
O26 O 0.02267 0.01462 0.37618 0.0
O27 O 0.9045 0.03714 0.41742 0.0
C28 C 0.88156 0.09099 0.70432 0.0
O29 O 0.88419 0.12982 0.71973 0.0
Cd30 Cd 0.95638 0.1589 0.75176 0.0
O31 O 0.92375 0.07194 0.70392 0.0
Cd32 Cd 0.02214 0.09193 0.72654 0.0
C33 C 0.91496 -0.00208 0.76566 0.0
O34 O 0.07106 0.20474 0.74416 0.0
O35 O 0.09017 0.13174 0.75952 0.0
O36 O 0.09753 0.13175 0.69523 0.0
C37 C 0.10259 0.19166 0.75877 0.0
O38 O 0.91395 0.0514 0.7695 0.0
C39 C 0.11286 0.08669 0.69646 0.0
O40 O 0.94879 -0.00508 0.74973 0.0
O41 O 0.0835 0.04182 0.71107 0.0
C42 C 0.09045 0.70014 0.26066 0.0
C43 C 0.09581 0.56147 0.19995 0.0
O44 O 0.14269 0.70622 0.25215 0.0
Zn45 Zn 0.09819 0.63188 0.23091 0.0
O46 O 0.03343 0.65463 0.25332 0.0
Zn47 Zn 0.99022 0.57671 0.229 0.0
O48 O 0.94247 0.49664 0.24739 0.0
O49 O 0.05111 0.54933 0.25236 0.0
O50 O 0.03765 0.54789 0.20532 0.0
O51 O 0.14628 0.60543 0.21095 0.0
O52 O 0.05505 0.66969 0.20835 0.0
O53 O 0.94564 0.60974 0.2095 0.0
C54 C -0.0068 0.502 0.25742 0.0
C55 C -0.00174 0.65843 0.20154 0.0
C56 C 0.52601 0.97043 0.59402 0.0
C57 C 0.40971 0.01802 0.53495 0.0
O58 O 0.47618 0.92572 0.58294 0.0
Zn59 Zn 0.46356 0.98812 0.5645 0.0
O60 O 0.54908 0.03257 0.59019 0.0
Zn61 Zn 0.53249 0.09559 0.5691 0.0
O62 O 0.50893 0.14436 0.59023 0.0
O63 O 0.4358 0.03586 0.58851 0.0
O64 O 0.45975 0.06933 0.54386 0.0
O65 O 0.39232 0.95965 0.54201 0.0
O66 O 0.54946 0.02958 0.54464 0.0
O67 O 0.61387 0.13774 0.55191 0.0
C68 C 0.4554 0.09391 0.59689 0.0
C69 C 0.6026 0.08544 0.54113 0.0
C70 C 0.50577 0.46019 0.92563 0.0
C71 C 0.63007 0.62312 0.86803 0.0
O72 O 0.48646 0.50212 0.92218 0.0
Zn73 Zn 0.5089 0.58463 0.90095 0.0
O74 O 0.55208 0.46252 0.91419 0.0
Zn75 Zn 0.56929 0.5398 0.89662 0.0
O76 O 0.60441 0.61835 0.92098 0.0
O77 O 0.53637 0.6578 0.9222 0.0
O78 O 0.63993 0.57695 0.87483 0.0
O79 O 0.58382 0.62952 0.87658 0.0
O80 O 0.428 0.55183 0.88296 0.0
O81 O 0.48233 0.49931 0.87619 0.0
C82 C 0.58857 0.65924 0.9292 0.0
C83 C 0.43286 0.50713 0.87229 0.0
H84 H 0.11124 0.26575 0.11799 0.0
H85 H 0.02751 0.53628 0.16129 0.0
H86 H 0.01723 0.34741 0.07696 0.0
H87 H 0.1757 0.50751 0.1941 0.0
H88 H 0.02381 0.46658 0.13029 0.0
H89 H 0.13554 0.35196 0.14628 0.0
C90 C 0.09591 0.30188 0.11487 0.0
C91 C 0.0615 0.29887 0.09513 0.0
C92 C 0.05784 0.47597 0.14408 0.0
C93 C 0.08919 0.39742 0.12743 0.0
C94 C 0.05989 0.51569 0.16179 0.0
C95 C 0.1018 0.52728 0.18023 0.0
C96 C 0.09692 0.44615 0.14497 0.0
C97 C 0.14296 0.49982 0.18007 0.0
C98 C 0.11019 0.35127 0.13098 0.0
C99 C 0.04344 0.34739 0.09194 0.0
N100 N 0.13874 0.45943 0.16281 0.0
N101 N 0.05693 0.39414 0.108 0.0
H102 H 0.94998 0.17297 0.46595 0.0
H103 H 0.58056 0.98726 0.51141 0.0
H104 H 0.79068 0.9879 0.43802 0.0
H105 H 0.73171 0.18522 0.53343 0.0
H106 H 0.65824 0.98506 0.4856 0.0
H107 H 0.87277 0.17557 0.4921 0.0
C108 C 0.89877 0.13253 0.46539 0.0
C109 C 0.87675 0.08003 0.44972 0.0
C110 C 0.67456 0.02911 0.496 0.0
C111 C 0.78791 0.08312 0.47966 0.0
C112 C 0.63019 0.03051 0.51081 0.0
C113 C 0.64967 0.08657 0.52471 0.0
C114 C 0.73935 0.084 0.49504 0.0
C115 C 0.71454 0.14107 0.52302 0.0
C116 C 0.85467 0.13432 0.4803 0.0
C117 C 0.80985 0.02923 0.44981 0.0
N118 N 0.75722 0.1383 0.5085 0.0
N119 N 0.76778 0.03209 0.46454 0.0
H120 H 0.81583 0.98039 0.79254 0.0
H121 H 0.74344 0.6393 0.84817 0.0
H122 H 0.91885 0.88103 0.77057 0.0
H123 H 0.61098 0.71728 0.84854 0.0
H124 H 0.81383 0.72741 0.82162 0.0
H125 H 0.74719 0.88586 0.8158 0.0
C126 C 0.8242 0.93858 0.79261 0.0
C127 C 0.87341 0.93885 0.77955 0.0
C128 C 0.76897 0.72446 0.82747 0.0
C129 C 0.79393 0.82916 0.80641 0.0
C130 C 0.72891 0.6744 0.84259 0.0
C131 C 0.67162 0.67134 0.85082 0.0
C132 C 0.7515 0.77157 0.82081 0.0
C133 C 0.65497 0.71789 0.84297 0.0
C134 C 0.78452 0.88419 0.80587 0.0
C135 C 0.88131 0.88272 0.78034 0.0
N136 N 0.69483 0.76604 0.82861 0.0
N137 N 0.84209 0.83 0.7937 0.0
H138 H 0.93003 0.93778 0.12628 0.0
H139 H 0.09392 0.73137 0.17205 0.0
H140 H 0.11117 0.95717 0.1019 0.0
H141 H 0.9004 0.68853 0.19224 0.0
H142 H 0.09942 0.81439 0.14636 0.0
H143 H 0.91771 0.84836 0.15106 0.0
C144 C 0.9674 0.92353 0.12623 0.0
C145 C 0.0219 0.95515 0.11205 0.0
C146 C 0.05545 0.78683 0.15626 0.0
C147 C 0.00774 0.85276 0.14017 0.0
C148 C 0.05225 0.73929 0.17099 0.0
C149 C -0.00324 0.7033 0.18444 0.0
C150 C 0.00301 0.79936 0.15496 0.0
C151 C 0.94402 0.71518 0.18214 0.0
C152 C 0.96007 0.87225 0.14027 0.0
C153 C 0.0685 0.93439 0.11256 0.0
N154 N 0.94867 0.76283 0.16778 0.0
N155 N 0.06035 0.88466 0.12638 0.0
H156 H 0.11154 0.02867 0.45076 0.0
H157 H 0.45896 0.12537 0.50798 0.0
H158 H 0.29822 0.20443 0.43478 0.0
H159 H 0.27916 0.93852 0.52071 0.0
H160 H 0.39943 0.15334 0.4809 0.0
H161 H 0.17001 -0.0054 0.47671 0.0
C162 C 0.16476 0.06039 0.45279 0.0
C163 C 0.20002 0.11973 0.44057 0.0
C164 C 0.37274 0.10599 0.48945 0.0
C165 C 0.26713 0.08049 0.47012 0.0
C166 C 0.40676 0.08988 0.50496 0.0
C167 C 0.37381 0.02964 0.51675 0.0
C168 C 0.30478 0.06191 0.48568 0.0
C169 C 0.30639 0.9854 0.51195 0.0
C170 C 0.19807 0.0406 0.46753 0.0
C171 C 0.2689 0.15846 0.44384 0.0
N172 N 0.27379 0.00272 0.49687 0.0
N173 N 0.30007 0.13815 0.45828 0.0
H174 H 0.12596 0.31894 0.76802 0.0
H175 H 0.42106 0.39556 0.85327 0.0
H176 H 0.18701 0.17847 0.78653 0.0
H177 H 0.33039 0.51745 0.85291 0.0
H178 H 0.34115 0.32255 0.82542 0.0
H179 H 0.20537 0.39892 0.79591 0.0
C180 C 0.15605 0.30504 0.77787 0.0
C181 C 0.14995 0.242 0.77496 0.0
C182 C 0.33827 0.36504 0.8314 0.0
C183 C 0.24024 0.33261 0.80655 0.0
C184 C 0.38421 0.40711 0.84733 0.0
C185 C 0.38248 0.46284 0.85552 0.0
C186 C 0.28987 0.37844 0.82331 0.0
C187 C 0.33325 0.47481 0.84711 0.0
C188 C 0.20097 0.35044 0.7938 0.0
C189 C 0.18981 0.22632 0.78819 0.0
N190 N 0.28878 0.43293 0.83134 0.0
N191 N 0.23319 0.27127 0.80328 0.0
H192 H 0.86555 0.01901 0.66586 0.0
H193 H 0.50968 0.97297 0.6382 0.0
H194 H 0.76848 0.09713 0.70604 0.0
H195 H 0.62353 0.94123 0.5893 0.0
H196 H 0.59324 0.99148 0.66664 0.0
H197 H 0.76911 0.96911 0.64033 0.0
C198 C 0.82414 0.02583 0.6693 0.0
C199 C 0.82551 0.06301 0.68801 0.0
C200 C 0.59923 0.97866 0.64983 0.0
C201 C 0.71464 0.00474 0.65921 0.0
C202 C 0.55092 0.96686 0.63373 0.0
C203 C 0.55936 0.95426 0.61159 0.0
C204 C 0.6569 0.97894 0.64361 0.0
C205 C 0.61478 0.94934 0.60636 0.0
C206 C 0.76905 -0.00296 0.65479 0.0
C207 C 0.77016 0.06967 0.69171 0.0
N208 N 0.6621 0.9626 0.62222 0.0
N209 N 0.71713 0.04083 0.67748 0.0
H210 H 0.80883 -0.00237 0.02104 0.0
H211 H 0.69243 0.66158 0.95057 0.0
H212 H 0.92602 0.90495 0.01075 0.0
H213 H 0.58609 0.76812 0.94698 0.0
H214 H 0.77078 0.74497 0.97667 0.0
H215 H 0.72018 0.90978 -0.00257 0.0
C216 C 0.81582 0.95884 0.01388 0.0
C217 C 0.87495 0.95869 0.01778 0.0
C218 C 0.73041 0.75041 0.97025 0.0
C219 C 0.77421 0.85847 0.9911 0.0
C220 C 0.68539 0.70258 0.9553 0.0
C221 C 0.63288 0.70817 0.94633 0.0
C222 C 0.72345 0.80483 0.97641 0.0
C223 C 0.62608 0.7621 0.95341 0.0
C224 C 0.76538 0.90892 0.00043 0.0
C225 C 0.88153 0.90737 0.00813 0.0
N226 N 0.67123 0.80878 0.96799 0.0
N227 N 0.83189 0.85951 -0.00469 0.0
H228 H 0.97689 0.895 0.35865 0.0
H229 H 0.1955 0.82313 0.27377 0.0
H230 H 0.1698 0.04647 0.33598 0.0
H231 H 0.99077 0.68084 0.28788 0.0
H232 H 0.19244 0.90148 0.30056 0.0
H233 H 0.98587 0.81152 0.33628 0.0
C234 C 0.02105 0.9107 0.34903 0.0
C235 C 0.07229 0.97797 0.34906 0.0
C236 C 0.14836 0.85287 0.29786 0.0
C237 C 0.08322 0.88288 0.32362 0.0
C238 C 0.15027 0.8081 0.28267 0.0
C239 C 0.09317 0.74577 0.2784 0.0
C240 C 0.08908 0.83482 0.30891 0.0
C241 C 0.03577 0.72879 0.29042 0.0
C242 C 0.02624 0.86309 0.33629 0.0
C243 C 0.12864 -0.00464 0.33634 0.0
N244 N 0.0351 0.77313 0.30501 0.0
N245 N 0.13251 0.94824 0.32414 0.0
H246 H 0.15119 0.99362 0.69351 0.0
H247 H 0.44454 0.20362 0.6079 0.0
H248 H 0.19424 0.1848 0.66756 0.0
H249 H 0.36976 -0.00358 0.62423 0.0
H250 H 0.36313 0.20444 0.63316 0.0
H251 H 0.24016 -0.00029 0.67114 0.0
C252 C 0.17919 0.03677 0.68304 0.0
C253 C 0.16491 0.08851 0.6823 0.0
C254 C 0.36502 0.15902 0.63127 0.0
C255 C 0.26753 0.09628 0.65676 0.0
C256 C 0.41173 0.15875 0.61701 0.0
C257 C 0.41349 0.09976 0.61385 0.0
C258 C 0.32061 0.10013 0.64253 0.0
C259 C 0.36965 0.04282 0.62596 0.0
C260 C 0.23014 0.04035 0.67029 0.0
C261 C 0.20323 0.1435 0.66852 0.0
N262 N 0.32506 0.04441 0.63968 0.0
N263 N 0.25285 0.146 0.6563 0.0
H264 H 0.15011 0.16998 0.97706 0.0
H265 H 0.50105 0.47732 0.96999 0.0
H266 H 0.2686 0.2497 0.03712 0.0
H267 H 0.42649 0.32638 0.91821 0.0
H268 H 0.41942 0.39532 -0.00449 0.0
H269 H 0.25102 0.22602 0.95515 0.0
C270 C 0.19762 0.19864 0.98562 0.0
C271 C 0.20127 0.20579 0.00887 0.0
C272 C 0.42222 0.37951 0.97879 0.0
C273 C 0.31649 0.27094 0.98394 0.0
C274 C 0.46878 0.42613 0.96429 0.0
C275 C 0.47052 0.40792 0.94218 0.0
C276 C 0.37564 0.31524 0.97076 0.0
C277 C 0.42698 0.3417 0.93529 0.0
C278 C 0.25513 0.2302 0.97314 0.0
C279 C 0.26391 0.24308 0.0192 0.0
N280 N 0.38008 0.29796 0.94941 0.0
N281 N 0.31915 0.27569 0.00661 0.0
H282 H 0.91143 0.15536 0.3356 0.0
H283 H 0.08268 0.52895 0.29056 0.0
H284 H 0.08531 0.32357 0.3656 0.0
H285 H 0.89301 0.37179 0.26529 0.0
H286 H 0.08173 0.45335 0.31853 0.0
H287 H 0.90155 0.23209 0.31007 0.0
C288 C 0.94745 0.20845 0.33686 0.0
C289 C -0.0004 0.23312 0.35267 0.0
C290 C 0.03998 0.43513 0.30702 0.0
C291 C 0.98842 0.32096 0.32354 0.0
C292 C 0.04052 0.47832 0.29095 0.0
C293 C 0.98807 0.45638 0.27541 0.0
C294 C 0.98689 0.36887 0.30756 0.0
C295 C 0.93444 0.39058 0.27696 0.0
C296 C 0.94158 0.25217 0.32232 0.0
C297 C 0.04454 0.30229 0.35363 0.0
N298 N 0.93552 0.3487 0.29265 0.0
N299 N 0.03807 0.34365 0.3392 0.0
loop_
_geom_bond_atom_site_label_1
_geom_bond_atom_site_label_2
_geom_bond_distance
_geom_bond_site_symmetry_2
_ccdc_geom_bond_type
C0 O1 1.306 1_455 S
C0 O3 1.160 . S
O1 C0 1.306 1_655 S
O1 Cd2 2.228 . S
Cd2 O1 2.228 . S
Cd2 O6 2.273 . S
Cd2 O10 2.277 1_655 S
O3 C0 1.160 . S
O3 Cd4 2.203 . S
Cd4 O3 2.203 . S
Cd4 O6 2.411 1_455 S
Cd4 O7 2.330 1_545 S
Cd4 O8 2.352 . S
Cd4 O12 2.277 . S
Cd4 O13 2.356 . S
C5 O10 1.209 . S
C5 O12 1.226 . S
O6 Cd2 2.273 . S
O6 Cd4 2.411 1_655 S
O6 C9 1.320 . S
O7 Cd4 2.330 1_565 S
O7 C9 1.210 1_465 S
O8 Cd4 2.352 . S
O8 C11 1.258 1_545 S
C9 O6 1.320 . S
C9 O7 1.210 1_645 S
O10 Cd2 2.277 1_455 S
O10 C5 1.209 . S
C11 O8 1.258 1_565 S
C11 O13 1.282 1_565 S
O12 Cd4 2.277 . S
O12 C5 1.226 . S
O13 Cd4 2.356 . S
O13 C11 1.282 1_545 S
C14 O15 1.306 . S
C14 O17 1.160 . S
O15 C14 1.306 . S
O15 Cd16 2.228 . S
Cd16 O15 2.228 . S
Cd16 O20 2.273 . S
Cd16 O24 2.277 . S
O17 C14 1.160 . S
O17 Cd18 2.203 . S
Cd18 O17 2.203 . S
Cd18 O20 2.411 . S
Cd18 O21 2.333 1_455 S
Cd18 O22 2.352 1_455 S
Cd18 O26 2.277 1_445 S
Cd18 O27 2.356 1_455 S
C19 O24 1.209 1_565 S
C19 O26 1.226 1_455 S
O20 Cd16 2.273 . S
O20 Cd18 2.411 . S
O20 C23 1.320 . S
O21 Cd18 2.333 1_655 S
O21 C23 1.214 1_655 S
O22 Cd18 2.352 1_655 S
O22 C25 1.258 . S
C23 O20 1.320 . S
C23 O21 1.214 1_455 S
O24 Cd16 2.277 . S
O24 C19 1.209 1_545 S
C25 O22 1.258 . S
C25 O27 1.282 . S
O26 Cd18 2.277 1_665 S
O26 C19 1.226 1_655 S
O27 Cd18 2.356 1_655 S
O27 C25 1.282 . S
C28 O29 1.306 . S
C28 O31 1.160 . S
O29 C28 1.306 . S
O29 Cd30 2.228 . S
Cd30 O29 2.228 . S
Cd30 O34 2.273 1_655 S
Cd30 O38 2.277 . S
O31 C28 1.160 . S
O31 Cd32 2.203 1_655 S
Cd32 O31 2.203 1_455 S
Cd32 O34 2.411 . S
Cd32 O35 2.333 . S
Cd32 O36 2.352 . S
Cd32 O40 2.277 1_445 S
Cd32 O41 2.356 . S
C33 O38 1.218 . S
C33 O40 1.220 1_545 S
O34 Cd30 2.273 1_455 S
O34 Cd32 2.411 . S
O34 C37 1.320 . S
O35 Cd32 2.333 . S
O35 C37 1.214 . S
O36 Cd32 2.352 . S
O36 C39 1.258 . S
C37 O34 1.320 . S
C37 O35 1.214 . S
O38 Cd30 2.277 . S
O38 C33 1.218 . S
C39 O36 1.258 . S
C39 O41 1.282 . S
O40 Cd32 2.277 1_665 S
O40 C33 1.220 1_565 S
O41 Cd32 2.356 . S
O41 C39 1.282 . S
C42 O44 1.247 . S
C42 O46 1.258 1_455 S
C43 O50 1.247 1_455 S
C43 O51 1.258 . S
O44 C42 1.247 . S
O44 Zn45 2.028 . S
Zn45 O44 2.028 . S
Zn45 O49 2.035 . S
Zn45 O51 2.035 . S
Zn45 O52 2.028 . S
O46 C42 1.258 1_655 S
O46 Zn47 2.035 . S
Zn47 O46 2.035 . S
Zn47 O48 2.028 . S
Zn47 O50 2.028 . S
Zn47 O53 2.035 . S
O48 Zn47 2.028 . S
O48 C54 1.247 1_655 S
O49 Zn45 2.035 . S
O49 C54 1.258 . S
O50 C43 1.247 1_655 S
O50 Zn47 2.028 . S
O51 C43 1.258 . S
O51 Zn45 2.035 . S
O52 Zn45 2.028 . S
O52 C55 1.247 . S
O53 Zn47 2.035 . S
O53 C55 1.258 1_655 S
C54 O48 1.247 1_455 S
C54 O49 1.258 . S
C55 O52 1.247 . S
C55 O53 1.258 1_455 S
C56 O58 1.247 . S
C56 O60 1.258 . S
C57 O64 1.247 . S
C57 O65 1.258 . S
O58 C56 1.247 . S
O58 Zn59 2.028 . S
Zn59 O58 2.028 . S
Zn59 O63 2.035 . S
Zn59 O65 2.035 . S
Zn59 O66 2.028 . S
O60 C56 1.258 . S
O60 Zn61 2.035 . S
Zn61 O60 2.035 . S
Zn61 O62 2.028 . S
Zn61 O64 2.028 . S
Zn61 O67 2.035 . S
O62 Zn61 2.028 . S
O62 C68 1.247 . S
O63 Zn59 2.035 . S
O63 C68 1.258 . S
O64 C57 1.247 . S
O64 Zn61 2.028 . S
O65 C57 1.258 . S
O65 Zn59 2.035 . S
O66 Zn59 2.028 . S
O66 C69 1.247 . S
O67 Zn61 2.035 . S
O67 C69 1.258 . S
C68 O62 1.247 . S
C68 O63 1.258 . S
C69 O66 1.247 . S
C69 O67 1.258 . S
C70 O72 1.247 . S
C70 O74 1.258 . S
C71 O78 1.247 . S
C71 O79 1.258 . S
O72 C70 1.247 . S
O72 Zn73 2.028 . S
Zn73 O72 2.028 . S
Zn73 O77 2.035 . S
Zn73 O79 2.035 . S
Zn73 O80 2.028 . S
O74 C70 1.258 . S
O74 Zn75 2.035 . S
Zn75 O74 2.035 . S
Zn75 O76 2.028 . S
Zn75 O78 2.028 . S
Zn75 O81 2.035 . S
O76 Zn75 2.028 . S
O76 C82 1.247 . S
O77 Zn73 2.035 . S
O77 C82 1.258 . S
O78 C71 1.247 . S
O78 Zn75 2.028 . S
O79 C71 1.258 . S
O79 Zn73 2.035 . S
O80 Zn73 2.028 . S
O80 C83 1.247 . S
O81 Zn75 2.035 . S
O81 C83 1.258 . S
C82 O76 1.247 . S
C82 O77 1.258 . S
C83 O80 1.247 . S
C83 O81 1.258 . S
H84 C90 0.930 . S
H85 C94 0.930 . S
H86 C99 0.929 . S
H87 C97 0.929 . S
H88 C92 0.929 . S
H89 C98 0.929 . S
C90 H84 0.930 . S
C90 C91 1.367 . S
C90 C98 1.378 . S
C91 C90 1.367 . S
C91 C99 1.433 . S
C92 H88 0.929 . S
C92 C94 1.378 . S
C92 C96 1.350 . S
C93 C96 1.463 . S
C93 C98 1.350 . S
C93 N101 1.427 . S
C94 H85 0.930 . S
C94 C92 1.378 . S
C94 C95 1.367 . S
C95 C94 1.367 . S
C95 C97 1.433 . S
C96 C92 1.350 . S
C96 C93 1.463 . S
C96 N100 1.427 . S
C97 H87 0.929 . S
C97 C95 1.433 . S
C97 N100 1.384 . S
C98 H89 0.929 . S
C98 C90 1.378 . S
C98 C93 1.350 . S
C99 H86 0.929 . S
C99 C91 1.433 . S
C99 N101 1.384 . S
N100 C96 1.427 . S
N100 C97 1.384 . S
N101 C93 1.427 . S
N101 C99 1.384 . S
H102 C108 0.930 . S
H103 C112 0.930 1_565 S
H104 C117 0.929 1_565 S
H105 C115 0.929 . S
H106 C110 0.929 1_565 S
H107 C116 0.929 . S
C108 H102 0.930 . S
C108 C109 1.367 . S
C108 C116 1.378 . S
C109 C108 1.367 . S
C109 C117 1.433 . S
C110 H106 0.929 1_545 S
C110 C112 1.378 . S
C110 C114 1.350 . S
C111 C114 1.463 . S
C111 C116 1.350 . S
C111 N119 1.427 . S
C112 H103 0.930 1_545 S
C112 C110 1.378 . S
C112 C113 1.367 . S
C113 C112 1.367 . S
C113 C115 1.433 . S
C114 C110 1.350 . S
C114 C111 1.463 . S
C114 N118 1.427 . S
C115 H105 0.929 . S
C115 C113 1.433 . S
C115 N118 1.384 . S
C116 H107 0.929 . S
C116 C108 1.378 . S
C116 C111 1.350 . S
C117 H104 0.929 1_545 S
C117 C109 1.433 . S
C117 N119 1.384 . S
N118 C114 1.427 . S
N118 C115 1.384 . S
N119 C111 1.427 . S
N119 C117 1.384 . S
H120 C126 0.930 . S
H121 C130 0.930 . S
H122 C135 0.929 . S
H123 C133 0.929 . S
H124 C128 0.929 . S
H125 C134 0.929 . S
C126 H120 0.930 . S
C126 C127 1.367 . S
C126 C134 1.378 . S
C127 C126 1.367 . S
C127 C135 1.433 . S
C128 H124 0.929 . S
C128 C130 1.378 . S
C128 C132 1.350 . S
C129 C132 1.463 . S
C129 C134 1.350 . S
C129 N137 1.427 . S
C130 H121 0.930 . S
C130 C128 1.378 . S
C130 C131 1.367 . S
C131 C130 1.367 . S
C131 C133 1.433 . S
C132 C128 1.350 . S
C132 C129 1.463 . S
C132 N136 1.427 . S
C133 H123 0.929 . S
C133 C131 1.433 . S
C133 N136 1.384 . S
C134 H125 0.929 . S
C134 C126 1.378 . S
C134 C129 1.350 . S
C135 H122 0.929 . S
C135 C127 1.433 . S
C135 N137 1.384 . S
N136 C132 1.427 . S
N136 C133 1.384 . S
N137 C129 1.427 . S
N137 C135 1.384 . S
H138 C144 0.930 . S
H139 C148 0.930 . S
H140 C153 0.929 . S
H141 C151 0.929 . S
H142 C146 0.929 . S
H143 C152 0.929 . S
C144 H138 0.930 . S
C144 C145 1.367 . S
C144 C152 1.378 . S
C145 C144 1.367 . S
C145 C153 1.433 . S
C146 H142 0.929 . S
C146 C148 1.378 . S
C146 C150 1.350 . S
C147 C150 1.463 . S
C147 C152 1.350 . S
C147 N155 1.427 . S
C148 H139 0.930 . S
C148 C146 1.378 . S
C148 C149 1.367 . S
C149 C148 1.367 . S
C149 C151 1.433 . S
C150 C146 1.350 . S
C150 C147 1.463 . S
C150 N154 1.427 . S
C151 H141 0.929 . S
C151 C149 1.433 . S
C151 N154 1.384 . S
C152 H143 0.929 . S
C152 C144 1.378 . S
C152 C147 1.350 . S
C153 H140 0.929 . S
C153 C145 1.433 . S
C153 N155 1.384 . S
N154 C150 1.427 . S
N154 C151 1.384 . S
N155 C147 1.427 . S
N155 C153 1.384 . S
H156 C162 0.930 . S
H157 C166 0.930 . S
H158 C171 0.929 . S
H159 C169 0.929 . S
H160 C164 0.929 . S
H161 C170 0.929 . S
C162 H156 0.930 . S
C162 C163 1.367 . S
C162 C170 1.378 . S
C163 C162 1.367 . S
C163 C171 1.433 . S
C164 H160 0.929 . S
C164 C166 1.378 . S
C164 C168 1.350 . S
C165 C168 1.463 . S
C165 C170 1.350 . S
C165 N173 1.427 . S
C166 H157 0.930 . S
C166 C164 1.378 . S
C166 C167 1.367 . S
C167 C166 1.367 . S
C167 C169 1.433 . S
C168 C164 1.350 . S
C168 C165 1.463 . S
C168 N172 1.427 . S
C169 H159 0.929 . S
C169 C167 1.433 . S
C169 N172 1.384 . S
C170 H161 0.929 . S
C170 C162 1.378 . S
C170 C165 1.350 . S
C171 H158 0.929 . S
C171 C163 1.433 . S
C171 N173 1.384 . S
N172 C168 1.427 . S
N172 C169 1.384 . S
N173 C165 1.427 . S
N173 C171 1.384 . S
H174 C180 0.930 . S
H175 C184 0.930 . S
H176 C189 0.929 . S
H177 C187 0.929 . S
H178 C182 0.929 . S
H179 C188 0.929 . S
C180 H174 0.930 . S
C180 C181 1.367 . S
C180 C188 1.378 . S
C181 C180 1.367 . S
C181 C189 1.433 . S
C182 H178 0.929 . S
C182 C184 1.378 . S
C182 C186 1.350 . S
C183 C186 1.463 . S
C183 C188 1.350 . S
C183 N191 1.427 . S
C184 H175 0.930 . S
C184 C182 1.378 . S
C184 C185 1.367 . S
C185 C184 1.367 . S
C185 C187 1.433 . S
C186 C182 1.350 . S
C186 C183 1.463 . S
C186 N190 1.427 . S
C187 H177 0.929 . S
C187 C185 1.433 . S
C187 N190 1.384 . S
C188 H179 0.929 . S
C188 C180 1.378 . S
C188 C183 1.350 . S
C189 H176 0.929 . S
C189 C181 1.433 . S
C189 N191 1.384 . S
N190 C186 1.427 . S
N190 C187 1.384 . S
N191 C183 1.427 . S
N191 C189 1.384 . S
H192 C198 0.930 . S
H193 C202 0.930 . S
H194 C207 0.929 . S
H195 C205 0.929 . S
H196 C200 0.929 . S
H197 C206 0.929 . S
C198 H192 0.930 . S
C198 C199 1.367 . S
C198 C206 1.378 . S
C199 C198 1.367 . S
C199 C207 1.433 . S
C200 H196 0.929 . S
C200 C202 1.378 . S
C200 C204 1.350 . S
C201 C204 1.463 . S
C201 C206 1.350 . S
C201 N209 1.427 . S
C202 H193 0.930 . S
C202 C200 1.378 . S
C202 C203 1.367 . S
C203 C202 1.367 . S
C203 C205 1.433 . S
C204 C200 1.350 . S
C204 C201 1.463 . S
C204 N208 1.427 . S
C205 H195 0.929 . S
C205 C203 1.433 . S
C205 N208 1.384 . S
C206 H197 0.929 . S
C206 C198 1.378 . S
C206 C201 1.350 . S
C207 H194 0.929 . S
C207 C199 1.433 . S
C207 N209 1.384 . S
N208 C204 1.427 . S
N208 C205 1.384 . S
N209 C201 1.427 . S
N209 C207 1.384 . S
H210 C216 0.930 1_545 S
H211 C220 0.930 . S
H212 C225 0.929 . S
H213 C223 0.929 . S
H214 C218 0.929 . S
H215 C224 0.929 1_556 S
C216 H210 0.930 1_565 S
C216 C217 1.367 . S
C216 C224 1.378 . S
C217 C216 1.367 . S
C217 C225 1.433 . S
C218 H214 0.929 . S
C218 C220 1.378 . S
C218 C222 1.350 . S
C219 C222 1.463 . S
C219 C224 1.350 1_556 S
C219 N227 1.427 1_556 S
C220 H211 0.930 . S
C220 C218 1.378 . S
C220 C221 1.367 . S
C221 C220 1.367 . S
C221 C223 1.433 . S
C222 C218 1.350 . S
C222 C219 1.463 . S
C222 N226 1.427 . S
C223 H213 0.929 . S
C223 C221 1.433 . S
C223 N226 1.384 . S
C224 H215 0.929 1_554 S
C224 C216 1.378 . S
C224 C219 1.350 1_554 S
C225 H212 0.929 . S
C225 C217 1.433 . S
C225 N227 1.384 . S
N226 C222 1.427 . S
N226 C223 1.384 . S
N227 C219 1.427 1_554 S
N227 C225 1.384 . S
H228 C234 0.930 . S
H229 C238 0.930 . S
H230 C243 0.929 1_545 S
H231 C241 0.929 . S
H232 C236 0.929 . S
H233 C242 0.929 . S
C234 H228 0.930 . S
C234 C235 1.367 . S
C234 C242 1.378 . S
C235 C234 1.367 . S
C235 C243 1.433 . S
C236 H232 0.929 . S
C236 C238 1.378 . S
C236 C240 1.350 . S
C237 C240 1.463 . S
C237 C242 1.350 . S
C237 N245 1.427 . S
C238 H229 0.930 . S
C238 C236 1.378 . S
C238 C239 1.367 . S
C239 C238 1.367 . S
C239 C241 1.433 . S
C240 C236 1.350 . S
C240 C237 1.463 . S
C240 N244 1.427 . S
C241 H231 0.929 . S
C241 C239 1.433 . S
C241 N244 1.384 . S
C242 H233 0.929 . S
C242 C234 1.378 . S
C242 C237 1.350 . S
C243 H230 0.929 1_565 S
C243 C235 1.433 . S
C243 N245 1.384 . S
N244 C240 1.427 . S
N244 C241 1.384 . S
N245 C237 1.427 . S
N245 C243 1.384 . S
H246 C252 0.930 1_565 S
H247 C256 0.930 . S
H248 C261 0.929 . S
H249 C259 0.929 1_565 S
H250 C254 0.929 . S
H251 C260 0.929 1_565 S
C252 H246 0.930 1_545 S
C252 C253 1.367 . S
C252 C260 1.378 . S
C253 C252 1.367 . S
C253 C261 1.433 . S
C254 H250 0.929 . S
C254 C256 1.378 . S
C254 C258 1.350 . S
C255 C258 1.463 . S
C255 C260 1.350 . S
C255 N263 1.427 . S
C256 H247 0.930 . S
C256 C254 1.378 . S
C256 C257 1.367 . S
C257 C256 1.367 . S
C257 C259 1.433 . S
C258 C254 1.350 . S
C258 C255 1.463 . S
C258 N262 1.427 . S
C259 H249 0.929 1_545 S
C259 C257 1.433 . S
C259 N262 1.384 . S
C260 H251 0.929 1_545 S
C260 C252 1.378 . S
C260 C255 1.350 . S
C261 H248 0.929 . S
C261 C253 1.433 . S
C261 N263 1.384 . S
N262 C258 1.427 . S
N262 C259 1.384 . S
N263 C255 1.427 . S
N263 C261 1.384 . S
H264 C270 0.930 1_556 S
H265 C274 0.930 . S
H266 C279 0.929 . S
H267 C277 0.929 . S
H268 C272 0.929 1_554 S
H269 C278 0.929 . S
C270 H264 0.930 1_554 S
C270 C271 1.367 . S
C270 C278 1.378 1_554 S
C271 C270 1.367 . S
C271 C279 1.433 . S
C272 H268 0.929 1_556 S
C272 C274 1.378 . S
C272 C276 1.350 . S
C273 C276 1.463 . S
C273 C278 1.350 . S
C273 N281 1.427 1_556 S
C274 H265 0.930 . S
C274 C272 1.378 . S
C274 C275 1.367 . S
C275 C274 1.367 . S
C275 C277 1.433 . S
C276 C272 1.350 . S
C276 C273 1.463 . S
C276 N280 1.427 . S
C277 H267 0.929 . S
C277 C275 1.433 . S
C277 N280 1.384 . S
C278 H269 0.929 . S
C278 C270 1.378 1_556 S
C278 C273 1.350 . S
C279 H266 0.929 . S
C279 C271 1.433 . S
C279 N281 1.384 . S
N280 C276 1.427 . S
N280 C277 1.384 . S
N281 C273 1.427 1_554 S
N281 C279 1.384 . S
H282 C288 0.930 . S
H283 C292 0.930 . S
H284 C297 0.929 . S
H285 C295 0.929 . S
H286 C290 0.929 . S
H287 C296 0.929 . S
C288 H282 0.930 . S
C288 C289 1.367 1_655 S
C288 C296 1.378 . S
C289 C288 1.367 1_455 S
C289 C297 1.433 . S
C290 H286 0.929 . S
C290 C292 1.378 . S
C290 C294 1.350 . S
C291 C294 1.463 . S
C291 C296 1.350 1_455 S
C291 N299 1.427 . S
C292 H283 0.930 . S
C292 C290 1.378 . S
C292 C293 1.367 . S
C293 C292 1.367 . S
C293 C295 1.433 1_455 S
C294 C290 1.350 . S
C294 C291 1.463 . S
C294 N298 1.427 1_455 S
C295 H285 0.929 . S
C295 C293 1.433 1_655 S
C295 N298 1.384 . S
C296 H287 0.929 . S
C296 C288 1.378 . S
C296 C291 1.350 1_655 S
C297 H284 0.929 . S
C297 C289 1.433 . S
C297 N299 1.384 . S
N298 C294 1.427 1_655 S
N298 C295 1.384 . S
N299 C291 1.427 . S
N299 C297 1.384 . S
C95 C43 1.441 . S
C91 C0 1.443 . S
C109 C25 1.466 . S
C113 C69 1.466 . S
C127 C33 1.480 1_565 S
C131 C71 1.484 . S
C145 C11 1.421 . S
C149 C55 1.418 . S
C167 C57 1.467 . S
C163 C14 1.462 . S
C181 C37 1.479 . S
C185 C83 1.481 . S
C203 C56 1.464 . S
C199 C28 1.463 . S
C217 C9 1.478 1_565 S
C221 C82 1.479 . S
C239 C42 1.506 . S
C235 C19 1.504 . S
C257 C68 1.464 . S
C253 C39 1.465 . S
C275 C70 1.481 . S
C271 C5 1.482 . S
C289 C23 1.514 . S
C293 C54 1.525 . S
