# Generated by pormake.
# Topology ftw, (4,12)-cn, num edge types: 1
# Building blocks:
#     Node 0, Type 0, BuildingBlock: ESEHIV_clean_sbu_0, # of connection points: 4
#     Node 1, Type 0, BuildingBlock: ESEHIV_clean_sbu_0, # of connection points: 4
#     Node 2, Type 0, BuildingBlock: ESEHIV_clean_sbu_0, # of connection points: 4
#     Node 3, Type 1, BuildingBlock: QEWDON_clean_sbu_0, # of connection points: 12
#     Edge 4, Type (0, 1), BuildingBlock: TEMPAE_clean_linker_10, # of connection points: 2
#     Edge 5, Type (0, 1), BuildingBlock: TEMPAE_clean_linker_10, # of connection points: 2
#     Edge 6, Type (0, 1), BuildingBlock: TEMPAE_clean_linker_10, # of connection points: 2
#     Edge 7, Type (0, 1), BuildingBlock: TEMPAE_clean_linker_10, # of connection points: 2
#     Edge 8, Type (0, 1), BuildingBlock: TEMPAE_clean_linker_10, # of connection points: 2
#     Edge 9, Type (0, 1), BuildingBlock: TEMPAE_clean_linker_10, # of connection points: 2
#     Edge 10, Type (0, 1), BuildingBlock: TEMPAE_clean_linker_10, # of connection points: 2
#     Edge 11, Type (0, 1), BuildingBlock: TEMPAE_clean_linker_10, # of connection points: 2
#     Edge 12, Type (0, 1), BuildingBlock: TEMPAE_clean_linker_10, # of connection points: 2
#     Edge 13, Type (0, 1), BuildingBlock: TEMPAE_clean_linker_10, # of connection points: 2
#     Edge 14, Type (0, 1), BuildingBlock: TEMPAE_clean_linker_10, # of connection points: 2
#     Edge 15, Type (0, 1), BuildingBlock: TEMPAE_clean_linker_10, # of connection points: 2
# Relax obj value: 0.058
# Max RMSD: 0.167
# Mean RMSD: 0.145
data_MOF--net-ftw--node1-ESEHIV_clean_sbu_0--node2-QEWDON_clean_sbu_0--edge1-TEMPAE_clean_linker_10
_symmetry_space_group_name_H-M    P1
_symmetry_Int_Tables_number       1
_symmetry_cell_setting            triclinic
loop_
_symmetry_equiv_pos_as_xyz
'x, y, z'
_cell_length_a     25.878966
_cell_length_b     25.085988
_cell_length_c     24.669462
_cell_angle_alpha  87.148429
_cell_angle_beta   86.977156
_cell_angle_gamma 93.393287
loop_
_atom_site_label
_atom_site_type_symbol
_atom_site_fract_x
_atom_site_fract_y
_atom_site_fract_z
_atom_type_partial_charge
Cu0 Cu 0.96793 0.49368 0.50777 0.0
N1 N 0.93817 0.44609 0.46056 0.0
N2 N 0.93566 0.3858 0.39665 0.0
C3 C 0.96593 0.41927 0.42442 0.0
C4 C 0.88668 0.39251 0.4159 0.0
C5 C 0.88836 0.42978 0.4553 0.0
O6 O 0.01407 0.45595 0.55498 0.0
C7 C 0.9613 0.58121 0.43959 0.0
O8 O 0.91247 0.56644 0.45256 0.0
H9 H 0.00774 0.42413 0.41917 0.0
H10 H 0.85578 0.44325 0.47905 0.0
N11 N 0.92164 0.52044 0.55857 0.0
N12 N 0.906 0.56911 0.6306 0.0
C13 C 0.93379 0.5658 0.58321 0.0
C14 C 0.88449 0.49387 0.59133 0.0
C15 C 0.8746 0.52396 0.63581 0.0
C16 C 0.99999 0.40748 0.56978 0.0
O17 O 0.96244 0.38332 0.54482 0.0
H18 H 0.96681 0.59263 0.56983 0.0
H19 H 0.86962 0.45333 0.58622 0.0
O20 O 0.99637 0.55452 0.46082 0.0
H21 H 0.85212 0.37095 0.40368 0.0
H22 H 0.84908 0.51175 0.67097 0.0
Cu23 Cu 0.51432 0.00438 0.49008 0.0
N24 N 0.56281 0.04684 0.52496 0.0
N25 N 0.62289 0.06328 0.58499 0.0
C26 C 0.58515 0.02875 0.56973 0.0
C27 C 0.62467 0.10493 0.54787 0.0
C28 C 0.5874 0.09466 0.51078 0.0
O29 O 0.55673 0.96311 0.44179 0.0
C30 C 0.45313 -0.00232 0.58332 0.0
O31 O 0.46646 0.04901 0.57689 0.0
H32 H 0.57527 0.98963 0.58932 0.0
H33 H 0.57994 0.11938 0.47521 0.0
N34 N 0.46905 0.04176 0.44778 0.0
N35 N 0.40737 0.05347 0.38887 0.0
C36 C 0.44107 0.01971 0.40914 0.0
C37 C 0.45264 0.09133 0.45218 0.0
C38 C 0.41446 0.09865 0.41588 0.0
C39 C 0.57501 0.98879 0.39829 0.0
O40 O 0.56157 0.03778 0.38808 0.0
H41 H 0.4441 0.97889 0.39758 0.0
H42 H 0.46642 0.11952 0.48074 0.0
O43 O 0.47006 0.9663 0.54816 0.0
H44 H 0.65136 0.13987 0.5471 0.0
H45 H 0.39332 0.13427 0.41007 0.0
Cu46 Cu 0.51546 0.48693 0.12943 0.0
N47 N 0.50024 0.55119 0.15935 0.0
N48 N 0.46879 0.63183 0.16288 0.0
C49 C 0.46492 0.58375 0.14103 0.0
C50 C 0.50879 0.63012 0.19563 0.0
C51 C 0.52829 0.58014 0.19324 0.0
O52 O 0.45725 0.45943 0.09022 0.0
C53 C 0.62043 0.48504 0.08316 0.0
O54 O 0.62558 0.44249 0.11507 0.0
H55 H 0.43908 0.57372 0.10947 0.0
H56 H 0.56236 0.56702 0.2123 0.0
N57 N 0.52882 0.43487 0.18229 0.0
N58 N 0.55614 0.35698 0.21337 0.0
C59 C 0.53665 0.38401 0.17131 0.0
C60 C 0.5419 0.44003 0.23391 0.0
C61 C 0.55913 0.39198 0.25313 0.0
C62 C 0.41128 0.46004 0.11121 0.0
O63 O 0.40351 0.47967 0.15912 0.0
H64 H 0.53394 0.36918 0.131 0.0
H65 H 0.54252 0.47694 0.25471 0.0
O66 O 0.57654 0.50537 0.08136 0.0
H67 H 0.52365 0.66298 0.21832 0.0
H68 H 0.57612 0.38462 0.29176 0.0
Zn69 Zn 0.12134 0.11895 0.93141 0.0
Zn70 Zn 0.07724 0.11425 0.05659 0.0
O71 O 0.08178 0.07129 0.99025 0.0
H72 H 0.06621 0.0358 0.98647 0.0
C73 C 0.93492 0.22667 0.93295 0.0
O74 O 0.88919 0.23577 0.95508 0.0
Zn75 Zn 0.93822 0.85996 0.06994 0.0
Zn76 Zn 0.91056 0.87027 0.94258 0.0
O77 O 0.93149 0.91238 1.00691 0.0
H78 H 0.94766 0.94814 1.00398 0.0
Zn79 Zn 0.9229 0.13638 1.01495 0.0
O80 O 0.93481 0.05717 0.01833 0.0
Zn81 Zn 0.89782 0.04153 0.0916 0.0
H82 H 0.9662 0.04211 1.0049 0.0
Zn83 Zn 0.1288 0.8769 0.958 0.0
O84 O 0.08089 0.91713 1.00698 0.0
H85 H 0.04938 0.93293 0.99695 0.0
Zn86 Zn 0.11774 0.92963 0.07482 0.0
C87 C 0.0478 0.82201 0.89768 0.0
O88 O 0.01966 0.85661 0.92205 0.0
O89 O 0.1416 0.19411 0.95783 0.0
O90 O 0.09843 0.1925 0.03868 0.0
O91 O 0.89395 0.79041 0.96365 0.0
O92 O 0.91873 0.78395 0.0488 0.0
O93 O 0.85132 0.15104 0.05046 0.0
O94 O 0.82735 0.07306 0.0945 0.0
C95 C 0.14217 0.04264 0.11212 0.0
O96 O 0.20017 0.86559 0.99042 0.0
O97 O 0.19098 0.90723 0.06775 0.0
O98 O 0.87098 0.90548 0.87944 0.0
C99 C 0.1275 0.21707 1.00075 0.0
O100 O 0.16898 0.08605 0.87181 0.0
C101 C 0.87351 0.9232 0.13694 0.0
O102 O 0.95814 0.18684 0.95125 0.0
C103 C 0.90034 0.7627 1.00724 0.0
O104 O 0.09594 0.82203 0.90607 0.0
C105 C 0.98088 0.10496 0.13733 0.0
O106 O 0.13083 0.09102 0.1067 0.0
O107 O 0.11579 0.00787 0.08763 0.0
C108 C 0.81771 0.12066 0.07887 0.0
O109 O 0.88632 0.87587 0.1296 0.0
O110 O 0.89696 0.96124 0.10747 0.0
C111 C 0.03696 0.86297 0.13598 0.0
O112 O 0.93602 0.08198 0.14662 0.0
O113 O 0.00574 0.09717 0.09279 0.0
C114 C 0.21811 0.88152 0.03451 0.0
O115 O 0.08265 0.88423 0.13718 0.0
O116 O 0.01137 0.87287 0.0943 0.0
C117 C 0.85115 0.95054 0.88251 0.0
O118 O 0.85616 0.97691 0.92683 0.0
C119 C 0.18487 0.03894 0.87516 0.0
O120 O 0.17076 0.00763 0.91834 0.0
C121 C 1.00273 0.33014 0.35697 0.0
C122 C 0.95247 0.3487 0.35717 0.0
C123 C 0.01874 0.29229 0.32041 0.0
C124 C 0.98359 0.27201 0.28336 0.0
C125 C 0.93332 0.29155 0.28233 0.0
C126 C 0.91848 0.32963 0.31906 0.0
C127 C 0.0726 0.27256 0.32287 0.0
C128 C 0.89451 0.27104 0.24343 0.0
C129 C 0.01783 0.19502 0.15884 0.0
C130 C 0.99914 0.14325 0.17674 0.0
C131 C 0.01715 0.23722 0.19442 0.0
C132 C 0.9971 0.22708 0.24883 0.0
C133 C 0.98323 0.17382 0.2682 0.0
C134 C 0.9844 0.13262 0.23189 0.0
C135 C 0.03331 0.29325 0.17241 0.0
C136 C 0.9622 0.16087 0.32592 0.0
H137 H 0.02927 0.34391 0.38647 0.0
H138 H 0.88001 0.34428 0.31807 0.0
H139 H 0.07013 0.23045 0.33931 0.0
H140 H 0.09182 0.27329 0.28154 0.0
H141 H 0.09728 0.29684 0.34908 0.0
H142 H 0.85801 0.29223 0.2458 0.0
H143 H 0.91143 0.2757 0.20108 0.0
H144 H 0.88484 0.22774 0.25267 0.0
H145 H 0.02808 0.20363 0.11607 0.0
H146 H 0.96974 0.09258 0.24575 0.0
H147 H 0.0578 0.31434 0.20118 0.0
H148 H 0.99831 0.31615 0.16752 0.0
H149 H 0.05502 0.29348 0.13231 0.0
H150 H 0.98675 0.18127 0.35508 0.0
H151 H 0.95983 0.11719 0.33649 0.0
H152 H 0.92269 0.17551 0.33112 0.0
C153 C 0.65956 0.94704 0.38305 0.0
C154 C 0.61548 0.96823 0.36198 0.0
C155 C 0.70299 0.93811 0.34858 0.0
C156 C 0.70164 0.94967 0.29183 0.0
C157 C 0.65601 0.9685 0.27031 0.0
C158 C 0.61382 0.97822 0.30574 0.0
C159 C 0.75103 0.91839 0.37301 0.0
C160 C 0.65169 0.97877 0.20987 0.0
C161 C 0.82629 0.9794 0.20284 0.0
C162 C 0.83032 0.9313 0.17696 0.0
C163 C 0.78578 0.98548 0.24204 0.0
C164 C 0.7478 0.94271 0.25462 0.0
C165 C 0.75233 0.89388 0.22904 0.0
C166 C 0.79351 0.88875 0.19083 0.0
C167 C 0.78561 0.03711 0.27097 0.0
C168 C 0.71362 0.8469 0.24198 0.0
H169 H 0.66122 0.94036 0.42667 0.0
H170 H 0.57967 0.99473 0.28953 0.0
H171 H 0.76378 0.88281 0.35222 0.0
H172 H 0.78298 0.94998 0.36691 0.0
H173 H 0.74477 0.90781 0.41723 0.0
H174 H 0.61759 0.00179 0.20055 0.0
H175 H 0.68715 0.00076 0.19113 0.0
H176 H 0.64762 0.94002 0.19029 0.0
H177 H 0.85538 0.01188 0.19344 0.0
H178 H 0.79652 0.85124 0.17121 0.0
H179 H 0.81344 0.03528 0.30364 0.0
H180 H 0.74716 0.04464 0.28995 0.0
H181 H 0.79899 0.07162 0.24273 0.0
H182 H 0.71043 0.83705 0.28643 0.0
H183 H 0.7244 0.81069 0.22092 0.0
H184 H 0.67471 0.85734 0.22973 0.0
C185 C 0.93591 0.66376 0.39015 0.0
C186 C 0.97321 0.62621 0.39874 0.0
C187 C 0.94324 0.70409 0.34851 0.0
C188 C 0.98868 0.70662 0.31383 0.0
C189 C 0.02691 0.66926 0.32266 0.0
C190 C 0.01893 0.62974 0.3654 0.0
C191 C 0.90212 0.74378 0.34142 0.0
C192 C 0.07562 0.67027 0.28608 0.0
C193 C 0.98756 0.77943 0.17432 0.0
C194 C 0.01659 0.82695 0.18249 0.0
C195 C 0.9778 0.73989 0.21679 0.0
C196 C 0.99651 0.74884 0.26884 0.0
C197 C 0.02348 0.79806 0.27782 0.0
C198 C 0.03363 0.83618 0.23445 0.0
C199 C 0.94901 0.68788 0.20546 0.0
C200 C 0.04311 0.80985 0.33282 0.0
H201 H 0.90056 0.66145 0.41599 0.0
H202 H 0.04759 0.60052 0.37148 0.0
H203 H 0.91946 0.78517 0.34299 0.0
H204 H 0.8858 0.74038 0.30097 0.0
H205 H 0.8699 0.73756 0.37311 0.0
H206 H 0.10131 0.63824 0.29796 0.0
H207 H 0.06529 0.66535 0.24344 0.0
H208 H 0.09757 0.70951 0.28717 0.0
H209 H 0.97525 0.77177 0.13403 0.0
H210 H 0.05625 0.87291 0.24086 0.0
H211 H 0.91076 0.68469 0.22826 0.0
H212 H 0.97076 0.65344 0.21949 0.0
H213 H 0.94263 0.6846 0.16156 0.0
H214 H 0.06057 0.8513 0.33388 0.0
H215 H 0.07282 0.7816 0.34356 0.0
H216 H 0.01097 0.80401 0.36454 0.0
C217 C 0.3823 0.01043 0.30524 0.0
C218 C 0.37017 0.0425 0.34862 0.0
C219 C 0.34716 0.00124 0.26457 0.0
C220 C 0.29846 0.02428 0.26764 0.0
C221 C 0.28531 0.05489 0.31259 0.0
C222 C 0.32143 0.06397 0.35219 0.0
C223 C 0.36372 0.96937 0.21705 0.0
C224 C 0.2336 0.07963 0.31796 0.0
C225 C 0.229 0.06802 0.14346 0.0
C226 C 0.18679 0.03018 0.14455 0.0
C227 C 0.26752 0.06428 0.18099 0.0
C228 C 0.26346 0.02204 0.22144 0.0
C229 C 0.22295 0.98141 0.22032 0.0
C230 C 0.185 0.98586 0.18159 0.0
C231 C 0.31088 0.10749 0.17932 0.0
C232 C 0.21772 0.93521 0.26211 0.0
H233 H 0.42007 0.99401 0.30207 0.0
H234 H 0.31154 0.08792 0.38614 0.0
H235 H 0.33027 0.94809 0.19954 0.0
H236 H 0.38308 -0.00296 0.1847 0.0
H237 H 0.39187 0.93977 0.22902 0.0
H238 H 0.22749 0.09819 0.35757 0.0
H239 H 0.23121 0.11089 0.28489 0.0
H240 H 0.20162 0.04891 0.31374 0.0
H241 H 0.23081 0.10202 0.11433 0.0
H242 H 0.15234 0.95665 0.18262 0.0
H243 H 0.34891 0.08939 0.18069 0.0
H244 H 0.30646 0.13179 0.21547 0.0
H245 H 0.31127 0.1346 0.14226 0.0
H246 H 0.1915 0.902 0.24937 0.0
H247 H 0.20154 0.94919 0.30108 0.0
H248 H 0.25611 0.91972 0.26968 0.0
C249 C 0.93636 0.65912 0.65559 0.0
C250 C 0.91739 0.60682 0.67139 0.0
C251 C 0.95446 0.69442 0.69375 0.0
C252 C 0.95354 0.67714 0.74934 0.0
C253 C 0.93231 0.62515 0.766 0.0
C254 C 0.91457 0.59058 0.72681 0.0
C255 C 0.97642 0.74957 0.67423 0.0
C256 C 0.9308 0.60476 0.82471 0.0
C257 C 0.05298 0.74632 0.83496 0.0
C258 C 0.02357 0.78397 0.86072 0.0
C259 C 0.03047 0.71087 0.79924 0.0
C260 C 0.97715 0.71272 0.7893 0.0
C261 C 0.94705 0.74992 0.81595 0.0
C262 C 0.97073 0.78542 0.85078 0.0
C263 C 0.06393 0.67181 0.77159 0.0
C264 C 0.8899 0.75251 0.80736 0.0
H265 H 0.9381 0.67202 0.61292 0.0
H266 H 0.90073 0.55004 0.73939 0.0
H267 H 0.95674 0.78044 0.69686 0.0
H268 H 0.01821 0.75382 0.68229 0.0
H269 H 0.97221 0.75771 0.63005 0.0
H270 H 0.90196 0.57034 0.83302 0.0
H271 H 0.96952 0.59124 0.83418 0.0
H272 H 0.9215 0.63663 0.8526 0.0
H273 H 0.0938 0.74481 0.84231 0.0
H274 H 0.94775 0.81466 0.86989 0.0
H275 H 0.06415 0.67906 0.72683 0.0
H276 H 0.04766 0.63032 0.78127 0.0
H277 H 0.10457 0.67499 0.78407 0.0
H278 H 0.88422 0.76453 0.7643 0.0
H279 H 0.87127 0.78137 0.83373 0.0
H280 H 0.86982 0.71241 0.81591 0.0
C281 C 0.36921 0.95425 0.62317 0.0
C282 C 0.41775 0.9798 0.63038 0.0
C283 C 0.32933 0.95303 0.66455 0.0
C284 C 0.33866 0.97775 0.71394 0.0
C285 C 0.38927 -0.00118 0.72295 0.0
C286 C 0.42799 -7e-05 0.68091 0.0
C287 C 0.27612 0.92968 0.65344 0.0
C288 C 0.40143 0.02494 0.77502 0.0
C289 C 0.23454 0.05371 0.78517 0.0
C290 C 0.22087 0.02063 0.83185 0.0
C291 C 0.27103 0.03887 0.74545 0.0
C292 C 0.29474 0.98966 0.75236 0.0
C293 C 0.27974 0.95507 0.79835 0.0
C294 C 0.24298 0.97095 0.83756 0.0
C295 C 0.28568 0.07703 0.69702 0.0
C296 C 0.30389 0.90226 0.80721 0.0
H297 H 0.36106 0.93936 0.5838 0.0
H298 H 0.4656 0.01986 0.68634 0.0
H299 H 0.25817 0.90643 0.68975 0.0
H300 H 0.25075 0.96262 0.64382 0.0
H301 H 0.27738 0.90337 0.61854 0.0
H302 H 0.44381 0.03247 0.77869 0.0
H303 H 0.38308 0.06379 0.77613 0.0
H304 H 0.38538 -0.00033 0.81085 0.0
H305 H 0.21745 0.09193 0.78006 0.0
H306 H 0.23252 0.94491 0.87332 0.0
H307 H 0.28197 0.05608 0.65873 0.0
H308 H 0.3268 0.09194 0.69846 0.0
H309 H 0.26123 0.11196 0.69573 0.0
H310 H 0.30304 0.8795 0.76981 0.0
H311 H 0.28385 0.8773 0.84139 0.0
H312 H 0.34515 0.9095 0.81636 0.0
C313 C 0.02937 0.4134 0.66517 0.0
C314 C 0.01412 0.38238 0.62229 0.0
C315 C 0.02782 0.39101 0.71888 0.0
C316 C 0.00989 0.33678 0.72976 0.0
C317 C 0.99916 0.30439 0.68584 0.0
C318 C 1.00194 0.32746 0.63278 0.0
C319 C 0.04141 0.42653 0.76426 0.0
C320 C 0.97973 0.24649 0.69518 0.0
C321 C 0.00841 0.25621 0.86499 0.0
C322 C 0.95682 0.25978 0.88455 0.0
C323 C 0.02774 0.2843 0.81657 0.0
C324 C 0.99435 0.31559 0.78634 0.0
C325 C 0.94302 0.32119 0.80733 0.0
C326 C 0.92511 0.29366 0.85628 0.0
C327 C 0.08321 0.27866 0.79676 0.0
C328 C 0.90586 0.35388 0.77651 0.0
H329 H 0.03886 0.45587 0.65753 0.0
H330 H 0.99071 0.30305 0.59976 0.0
H331 H 0.00532 0.4403 0.78378 0.0
H332 H 0.06185 0.40444 0.79591 0.0
H333 H 0.06616 0.46238 0.74893 0.0
H334 H 0.97749 0.22564 0.65661 0.0
H335 H 0.00532 0.22475 0.72206 0.0
H336 H 0.94043 0.24425 0.71581 0.0
H337 H 0.0335 0.23079 0.88703 0.0
H338 H 0.88534 0.29701 0.87118 0.0
H339 H 0.10144 0.3177 0.78033 0.0
H340 H 0.08417 0.25064 0.76338 0.0
H341 H 0.10675 0.26286 0.82964 0.0
H342 H 0.9231 0.39498 0.76674 0.0
H343 H 0.86822 0.35658 0.79973 0.0
H344 H 0.89829 0.33557 0.73744 0.0
C345 C 0.63775 0.02237 0.67542 0.0
C346 C 0.65623 0.05428 0.62931 0.0
C347 C 0.67053 0.00885 0.71683 0.0
C348 C 0.72331 0.02772 0.71229 0.0
C349 C 0.74191 0.06146 0.66676 0.0
C350 C 0.70811 0.07443 0.62584 0.0
C351 C 0.64889 0.9732 0.76485 0.0
C352 C 0.79787 0.08249 0.66045 0.0
C353 C 0.79656 0.02024 0.84217 0.0
C354 C 0.82091 0.97197 0.83758 0.0
C355 C 0.76579 0.03964 0.80112 0.0
C356 C 0.75918 0.01015 0.75422 0.0
C357 C 0.78466 0.96209 0.74875 0.0
C358 C 0.81513 0.94358 0.79043 0.0
C359 C 0.73931 0.09102 0.80857 0.0
C360 C 0.77874 0.92945 0.69939 0.0
H361 H 0.59749 0.00751 0.67891 0.0
H362 H 0.72278 0.09876 0.59023 0.0
H363 H 0.66862 0.93511 0.7658 0.0
H364 H 0.6564 0.99261 0.80334 0.0
H365 H 0.6065 0.96381 0.76344 0.0
H366 H 0.80552 0.11087 0.62451 0.0
H367 H 0.80896 0.10299 0.69732 0.0
H368 H 0.82324 0.04865 0.65601 0.0
H369 H 0.80085 0.04259 0.87832 0.0
H370 H 0.83388 0.90637 0.78632 0.0
H371 H 0.69665 0.08266 0.81134 0.0
H372 H 0.74873 0.11925 0.77289 0.0
H373 H 0.75075 0.11081 0.8458 0.0
H374 H 0.73764 0.91472 0.69736 0.0
H375 H 0.8032 0.89452 0.69996 0.0
H376 H 0.78931 0.95471 0.66179 0.0
C377 C 0.37085 0.38439 0.06393 0.0
C378 C 0.36709 0.43491 0.08477 0.0
C379 C 0.3269 0.35626 0.04629 0.0
C380 C 0.27861 0.3803 0.04758 0.0
C381 C 0.27562 0.43299 0.06502 0.0
C382 C 0.31973 0.45922 0.08471 0.0
C383 C 0.33157 0.29962 0.02934 0.0
C384 C 0.22556 0.46093 0.0647 0.0
C385 C 0.18024 0.30117 0.9702 0.0
C386 C 0.15499 0.26829 1.01235 0.0
C387 C 0.21747 0.34164 0.98137 0.0
C388 C 0.23084 0.34795 0.03572 0.0
C389 C 0.20243 0.31777 0.07861 0.0
C390 C 0.16424 0.27894 0.0664 0.0
C391 C 0.24497 0.37496 0.93473 0.0
C392 C 0.21574 0.32252 0.13715 0.0
H393 H 0.4075 0.36557 0.06449 0.0
H394 H 0.31711 0.4986 0.10054 0.0
H395 H 0.30662 0.27171 0.05725 0.0
H396 H 0.31788 0.29548 0.98784 0.0
H397 H 0.37205 0.28717 0.02982 0.0
H398 H 0.23192 0.50454 0.06981 0.0
H399 H 0.20627 0.45489 0.02615 0.0
H400 H 0.19864 0.44378 0.0984 0.0
H401 H 0.17279 0.29354 0.92834 0.0
H402 H 0.145 0.25369 0.09927 0.0
H403 H 0.28369 0.35969 0.92576 0.0
H404 H 0.25096 0.41727 0.94535 0.0
H405 H 0.223 0.37342 0.89728 0.0
H406 H 0.25436 0.30672 0.14292 0.0
H407 H 0.18689 0.29993 0.16588 0.0
H408 H 0.2181 0.36495 0.14781 0.0
C409 C 0.38605 0.6668 0.13981 0.0
C410 C 0.43851 0.67623 0.14936 0.0
C411 C 0.35641 0.70824 0.12178 0.0
C412 C 0.38002 0.76052 0.11258 0.0
C413 C 0.43278 0.77073 0.12341 0.0
C414 C 0.46148 0.72829 0.14204 0.0
C415 C 0.29993 0.69578 0.11181 0.0
C416 C 0.45925 0.82584 0.11348 0.0
C417 C 0.30123 0.83807 1.01557 0.0
C418 C 0.26793 0.86253 0.05203 0.0
C419 C 0.342 0.80905 0.03438 0.0
C420 C 0.34869 0.80357 0.09095 0.0
C421 C 0.31817 0.83213 0.12734 0.0
C422 C 0.27863 0.86205 0.1073 0.0
C423 C 0.37467 0.78019 0.99418 0.0
C424 C 0.32392 0.82687 0.18796 0.0
H425 H 0.36831 0.62658 0.14616 0.0
H426 H 0.50226 0.73535 0.14888 0.0
H427 H 0.27522 0.72188 0.13562 0.0
H428 H 0.29319 0.70396 0.06822 0.0
H429 H 0.28719 0.65341 0.12302 0.0
H430 H 0.49916 0.82804 0.12811 0.0
H431 H 0.46146 0.83698 0.06929 0.0
H432 H 0.43652 0.85595 0.13391 0.0
H433 H 0.29379 0.83914 0.9727 0.0
H434 H 0.25352 0.88146 0.13576 0.0
H435 H 0.36182 0.7371 0.99655 0.0
H436 H 0.41606 0.78339 1.00392 0.0
H437 H 0.37125 0.79618 0.95179 0.0
H438 H 0.31497 0.7847 0.20291 0.0
H439 H 0.29772 0.85241 0.2107 0.0
H440 H 0.36449 0.83777 0.19739 0.0
C441 C 0.56523 0.26943 0.17461 0.0
C442 C 0.58339 0.30897 0.20835 0.0
C443 C 0.59724 0.22956 0.15755 0.0
C444 C 0.64863 0.22972 0.17441 0.0
C445 C 0.66541 0.26638 0.21263 0.0
C446 C 0.63246 0.30556 0.2293 0.0
C447 C 0.57753 0.19021 0.11797 0.0
C448 C 0.71977 0.26726 0.23224 0.0
C449 C 0.73893 0.11977 0.14306 0.0
C450 C 0.76918 0.14372 0.09845 0.0
C451 C 0.69835 0.14656 0.16764 0.0
C452 C 0.68721 0.19769 0.14619 0.0
C453 C 0.71561 0.22053 0.09926 0.0
C454 C 0.75622 0.19333 0.07607 0.0
C455 C 0.66838 0.12098 0.21732 0.0
C456 C 0.70486 0.27504 0.07503 0.0
H457 H 0.52699 0.27167 0.15905 0.0
H458 H 0.64681 0.33609 0.25519 0.0
H459 H 0.59596 0.20089 0.07693 0.0
H460 H 0.58806 0.1492 0.12988 0.0
H461 H 0.53479 0.19007 0.11539 0.0
H462 H 0.72465 0.29361 0.26673 0.0
H463 H 0.72981 0.22634 0.24517 0.0
H464 H 0.74779 0.28202 0.19843 0.0
H465 H 0.74839 0.08123 0.16027 0.0
H466 H 0.77898 0.21191 0.04127 0.0
H467 H 0.62904 0.10712 0.20618 0.0
H468 H 0.66365 0.15008 0.24937 0.0
H469 H 0.6876 0.0863 0.23471 0.0
H470 H 0.66332 0.27632 0.06631 0.0
H471 H 0.72864 0.28584 0.03683 0.0
H472 H 0.71327 0.30587 0.10463 0.0
C473 C 0.66448 0.57003 0.0431 0.0
C474 C 0.66721 0.51579 0.05858 0.0
C475 C 0.70947 0.60276 0.02957 0.0
C476 C 0.7585 0.58048 0.03016 0.0
C477 C 0.76133 0.52489 0.04149 0.0
C478 C 0.7156 0.49323 0.05632 0.0
C479 C 0.7046 0.66193 0.01789 0.0
C480 C 0.81268 0.49934 0.04064 0.0
C481 C 0.86164 0.68094 0.96693 0.0
C482 C 0.87659 0.70742 1.01297 0.0
C483 C 0.82667 0.63573 0.97201 0.0
C484 C 0.80613 0.61699 0.02428 0.0
C485 C 0.82519 0.64034 0.071 0.0
C486 C 0.86049 0.68506 0.06475 0.0
C487 C 0.80887 0.61039 0.92141 0.0
C488 C 0.80414 0.62195 0.12755 0.0
H489 H 0.62731 0.58785 0.04462 0.0
H490 H 0.71797 0.45119 0.06774 0.0
H491 H 0.72372 0.68487 0.04942 0.0
H492 H 0.72445 0.67492 0.97807 0.0
H493 H 0.66355 0.67255 0.01727 0.0
H494 H 0.80768 0.45509 0.03998 0.0
H495 H 0.83775 0.51476 1.00472 0.0
H496 H 0.83324 0.50949 0.07744 0.0
H497 H 0.87481 0.69746 0.92679 0.0
H498 H 0.87178 0.70524 0.10053 0.0
H499 H 0.82738 0.63074 0.88369 0.0
H500 H 0.76621 0.61151 0.91951 0.0
H501 H 0.8181 0.56773 0.92264 0.0
H502 H 0.76373 0.63402 0.13353 0.0
H503 H 0.8275 0.63955 0.1595 0.0
H504 H 0.80315 0.57778 0.1331 0.0
loop_
_geom_bond_atom_site_label_1
_geom_bond_atom_site_label_2
_geom_bond_distance
_geom_bond_site_symmetry_2
_ccdc_geom_bond_type
Cu0 N1 1.999 . S
Cu0 O6 1.974 . S
Cu0 N11 1.985 . S
Cu0 O20 1.959 . S
N1 Cu0 1.999 . S
N1 C3 1.263 . S
N1 C5 1.389 . S
N2 C3 1.358 . S
N2 C4 1.400 . S
C3 N1 1.263 . S
C3 N2 1.358 . S
C3 H9 0.930 1_455 S
C4 N2 1.400 . S
C4 C5 1.351 . S
C4 H21 0.930 . S
C5 N1 1.389 . S
C5 C4 1.351 . S
C5 H10 0.930 . S
O6 Cu0 1.974 . S
O6 C16 1.282 1_455 S
C7 O8 1.261 . S
C7 O20 1.251 1_655 S
O8 C7 1.261 . S
H9 C3 0.930 1_655 S
H10 C5 0.930 . S
N11 Cu0 1.985 . S
N11 C13 1.335 . S
N11 C14 1.390 1_455 S
N12 C13 1.345 . S
N12 C15 1.336 1_455 S
C13 N11 1.335 . S
C13 N12 1.345 . S
C13 H18 0.930 . S
C14 N11 1.390 1_655 S
C14 C15 1.346 . S
C14 H19 0.930 . S
C15 N12 1.336 1_655 S
C15 C14 1.346 . S
C15 H22 0.929 . S
C16 O6 1.282 1_655 S
C16 O17 1.216 . S
O17 C16 1.216 . S
H18 C13 0.930 . S
H19 C14 0.930 . S
O20 Cu0 1.959 . S
O20 C7 1.251 1_455 S
H21 C4 0.930 . S
H22 C15 0.929 . S
Cu23 N24 1.999 . S
Cu23 O29 1.974 . S
Cu23 N34 1.985 . S
Cu23 O43 1.959 . S
N24 Cu23 1.999 . S
N24 C26 1.263 . S
N24 C28 1.389 . S
N25 C26 1.358 . S
N25 C27 1.400 . S
C26 N24 1.263 . S
C26 N25 1.358 . S
C26 H32 0.930 1_565 S
C27 N25 1.400 . S
C27 C28 1.351 . S
C27 H44 0.930 . S
C28 N24 1.389 . S
C28 C27 1.351 . S
C28 H33 0.930 . S
O29 Cu23 1.974 . S
O29 C39 1.282 1_565 S
C30 O31 1.261 . S
C30 O43 1.251 1_545 S
O31 C30 1.261 . S
H32 C26 0.930 1_545 S
H33 C28 0.930 . S
N34 Cu23 1.985 . S
N34 C36 1.335 . S
N34 C37 1.390 1_565 S
N35 C36 1.345 . S
N35 C38 1.336 1_565 S
C36 N34 1.335 . S
C36 N35 1.345 . S
C36 H41 0.930 . S
C37 N34 1.390 1_545 S
C37 C38 1.346 . S
C37 H42 0.930 . S
C38 N35 1.336 1_545 S
C38 C37 1.346 . S
C38 H45 0.929 . S
C39 O29 1.282 1_545 S
C39 O40 1.216 . S
O40 C39 1.216 . S
H41 C36 0.930 . S
H42 C37 0.930 . S
O43 Cu23 1.959 . S
O43 C30 1.251 1_565 S
H44 C27 0.930 . S
H45 C38 0.929 . S
Cu46 N47 1.999 . S
Cu46 O52 1.974 . S
Cu46 N57 1.985 1_556 S
Cu46 O66 1.959 . S
N47 Cu46 1.999 . S
N47 C49 1.263 1_556 S
N47 C51 1.389 . S
N48 C49 1.358 1_556 S
N48 C50 1.400 . S
C49 N47 1.263 1_554 S
C49 N48 1.358 1_554 S
C49 H55 0.930 . S
C50 N48 1.400 . S
C50 C51 1.351 . S
C50 H67 0.930 . S
C51 N47 1.389 . S
C51 C50 1.351 . S
C51 H56 0.930 . S
O52 Cu46 1.974 . S
O52 C62 1.275 1_556 S
C53 O54 1.261 . S
C53 O66 1.251 1_554 S
O54 C53 1.261 . S
H55 C49 0.930 . S
H56 C51 0.930 . S
N57 Cu46 1.985 1_554 S
N57 C59 1.335 1_554 S
N57 C60 1.390 . S
N58 C59 1.345 1_554 S
N58 C61 1.336 . S
C59 N57 1.335 1_556 S
C59 N58 1.345 1_556 S
C59 H64 0.930 . S
C60 N57 1.390 . S
C60 C61 1.346 . S
C60 H65 0.930 . S
C61 N58 1.336 . S
C61 C60 1.346 . S
C61 H68 0.929 . S
C62 O52 1.275 1_554 S
C62 O63 1.216 . S
O63 C62 1.216 . S
H64 C59 0.930 . S
H65 C60 0.930 . S
O66 Cu46 1.959 . S
O66 C53 1.251 1_556 S
H67 C50 0.930 . S
H68 C61 0.929 . S
Zn69 O71 1.933 1_556 S
Zn69 O89 1.985 . S
Zn69 O100 1.955 . S
Zn70 O71 1.911 . S
Zn70 O90 1.970 . S
Zn70 O106 1.945 . S
Zn70 O113 1.981 . S
O71 Zn69 1.933 1_554 S
O71 Zn70 1.911 . S
O71 H72 0.841 . S
H72 O71 0.841 . S
C73 O74 1.246 . S
C73 O102 1.276 1_455 S
O74 C73 1.246 . S
Zn75 O77 1.911 . S
Zn75 O92 1.970 . S
Zn75 O109 1.945 . S
Zn75 O116 1.981 . S
Zn76 O77 1.933 1_556 S
Zn76 O91 1.985 . S
Zn76 O98 1.955 . S
O77 Zn75 1.911 . S
O77 Zn76 1.933 1_554 S
O77 H78 0.841 . S
H78 O77 0.841 . S
Zn79 O80 1.933 1_556 S
Zn79 O93 1.985 . S
Zn79 O102 1.955 . S
O80 Zn79 1.933 1_554 S
O80 Zn81 1.911 . S
O80 H82 0.841 . S
Zn81 O80 1.911 . S
Zn81 O94 1.970 . S
Zn81 O110 1.981 . S
Zn81 O112 1.945 . S
H82 O80 0.841 . S
Zn83 O84 1.933 1_556 S
Zn83 O96 1.985 . S
Zn83 O104 1.955 . S
O84 Zn83 1.933 1_554 S
O84 H85 0.841 . S
O84 Zn86 1.911 . S
H85 O84 0.841 . S
Zn86 O84 1.911 . S
Zn86 O97 1.970 . S
Zn86 O107 1.981 . S
Zn86 O115 1.945 . S
C87 O88 1.246 . S
C87 O104 1.276 1_655 S
O88 C87 1.246 . S
O89 Zn69 1.985 . S
O89 C99 1.245 1_556 S
O90 Zn70 1.970 . S
O90 C99 1.263 . S
O91 Zn76 1.985 . S
O91 C103 1.245 1_556 S
O92 Zn75 1.970 . S
O92 C103 1.263 . S
O93 Zn79 1.985 . S
O93 C108 1.245 1_556 S
O94 Zn81 1.970 . S
O94 C108 1.263 . S
C95 O106 1.280 . S
C95 O107 1.235 1_545 S
O96 Zn83 1.985 . S
O96 C114 1.245 1_556 S
O97 Zn86 1.970 . S
O97 C114 1.263 . S
O98 Zn76 1.955 . S
O98 C117 1.276 1_565 S
C99 O89 1.245 1_554 S
C99 O90 1.263 . S
O100 Zn69 1.955 . S
O100 C119 1.276 . S
C101 O109 1.262 . S
C101 O110 1.245 1_565 S
O102 C73 1.276 1_655 S
O102 Zn79 1.955 . S
C103 O91 1.245 1_554 S
C103 O92 1.263 . S
O104 Zn83 1.955 . S
O104 C87 1.276 1_455 S
C105 O112 1.262 1_455 S
C105 O113 1.245 . S
O106 Zn70 1.945 . S
O106 C95 1.280 . S
O107 Zn86 1.981 . S
O107 C95 1.235 1_565 S
C108 O93 1.245 1_554 S
C108 O94 1.263 . S
O109 Zn75 1.945 . S
O109 C101 1.262 . S
O110 Zn81 1.981 . S
O110 C101 1.245 1_545 S
C111 O115 1.262 1_655 S
C111 O116 1.245 . S
O112 Zn81 1.945 . S
O112 C105 1.262 1_655 S
O113 Zn70 1.981 . S
O113 C105 1.245 . S
C114 O96 1.245 1_554 S
C114 O97 1.263 . S
O115 Zn86 1.945 . S
O115 C111 1.262 1_455 S
O116 Zn75 1.981 . S
O116 C111 1.245 . S
C117 O98 1.276 1_545 S
C117 O118 1.246 . S
O118 C117 1.246 . S
C119 O100 1.276 . S
C119 O120 1.246 1_545 S
O120 C119 1.246 1_565 S
C121 C122 1.391 . S
C121 C123 1.394 . S
C121 H137 0.931 . S
C122 C121 1.391 . S
C122 C126 1.376 1_455 S
C123 C121 1.394 . S
C123 C124 1.369 . S
C123 C127 1.531 . S
C124 C123 1.369 . S
C124 C125 1.410 1_455 S
C124 C132 1.503 . S
C125 C124 1.410 1_655 S
C125 C126 1.392 . S
C125 C128 1.511 . S
C126 C122 1.376 1_655 S
C126 C125 1.392 . S
C126 H138 0.929 . S
C127 C123 1.531 . S
C127 H139 0.960 . S
C127 H140 0.962 . S
C127 H141 0.960 . S
C128 C125 1.511 . S
C128 H142 0.961 . S
C128 H143 0.961 . S
C128 H144 0.961 . S
C129 C130 1.370 . S
C129 C131 1.363 . S
C129 H145 0.931 . S
C130 C129 1.370 . S
C130 C134 1.408 . S
C131 C129 1.363 . S
C131 C132 1.370 . S
C131 C135 1.524 . S
C132 C124 1.503 . S
C132 C131 1.370 . S
C132 C133 1.403 . S
C133 C132 1.403 . S
C133 C134 1.404 . S
C133 C136 1.539 1_455 S
C134 C130 1.408 . S
C134 C133 1.404 . S
C134 H146 0.930 1_455 S
C135 C131 1.524 . S
C135 H147 0.956 . S
C135 H148 0.961 . S
C135 H149 0.961 . S
C136 C133 1.539 1_655 S
C136 H150 0.958 1_655 S
C136 H151 0.961 . S
C136 H152 0.960 . S
H137 C121 0.931 . S
H138 C126 0.929 . S
H139 C127 0.960 . S
H140 C127 0.962 . S
H141 C127 0.960 . S
H142 C128 0.961 . S
H143 C128 0.961 . S
H144 C128 0.961 . S
H145 C129 0.931 . S
H146 C134 0.930 1_655 S
H147 C135 0.956 . S
H148 C135 0.961 . S
H149 C135 0.961 . S
H150 C136 0.958 1_455 S
H151 C136 0.961 . S
H152 C136 0.960 . S
C153 C154 1.391 1_565 S
C153 C155 1.394 . S
C153 H169 0.931 . S
C154 C153 1.391 1_545 S
C154 C158 1.376 . S
C155 C153 1.394 . S
C155 C156 1.369 1_565 S
C155 C159 1.531 . S
C156 C155 1.369 1_545 S
C156 C157 1.410 . S
C156 C164 1.503 . S
C157 C156 1.410 . S
C157 C158 1.392 . S
C157 C160 1.511 . S
C158 C154 1.376 . S
C158 C157 1.392 . S
C158 H170 0.929 . S
C159 C155 1.531 . S
C159 H171 0.960 . S
C159 H172 0.962 . S
C159 H173 0.960 . S
C160 C157 1.511 . S
C160 H174 0.961 . S
C160 H175 0.961 . S
C160 H176 0.961 . S
C161 C162 1.370 . S
C161 C163 1.363 . S
C161 H177 0.931 . S
C162 C161 1.370 . S
C162 C166 1.408 1_545 S
C163 C161 1.363 . S
C163 C164 1.370 . S
C163 C167 1.524 . S
C164 C156 1.503 . S
C164 C163 1.370 . S
C164 C165 1.403 1_545 S
C165 C164 1.403 1_565 S
C165 C166 1.404 . S
C165 C168 1.539 . S
C166 C162 1.408 1_565 S
C166 C165 1.404 . S
C166 H178 0.930 . S
C167 C163 1.524 . S
C167 H179 0.956 . S
C167 H180 0.961 . S
C167 H181 0.961 . S
C168 C165 1.539 . S
C168 H182 0.958 . S
C168 H183 0.961 . S
C168 H184 0.960 . S
H169 C153 0.931 . S
H170 C158 0.929 . S
H171 C159 0.960 . S
H172 C159 0.962 . S
H173 C159 0.960 . S
H174 C160 0.961 . S
H175 C160 0.961 . S
H176 C160 0.961 . S
H177 C161 0.931 . S
H178 C166 0.930 . S
H179 C167 0.956 . S
H180 C167 0.961 . S
H181 C167 0.961 . S
H182 C168 0.958 . S
H183 C168 0.961 . S
H184 C168 0.960 . S
C185 C186 1.391 . S
C185 C187 1.394 . S
C185 H201 0.931 . S
C186 C185 1.391 . S
C186 C190 1.376 1_655 S
C187 C185 1.394 . S
C187 C188 1.369 . S
C187 C191 1.531 . S
C188 C187 1.369 . S
C188 C189 1.410 1_655 S
C188 C196 1.503 . S
C189 C188 1.410 1_455 S
C189 C190 1.392 . S
C189 C192 1.511 . S
C190 C186 1.376 1_455 S
C190 C189 1.392 . S
C190 H202 0.929 . S
C191 C187 1.531 . S
C191 H203 0.960 . S
C191 H204 0.962 . S
C191 H205 0.960 . S
C192 C189 1.511 . S
C192 H206 0.961 . S
C192 H207 0.961 . S
C192 H208 0.961 . S
C193 C194 1.370 . S
C193 C195 1.363 . S
C193 H209 0.931 . S
C194 C193 1.370 . S
C194 C198 1.408 1_655 S
C195 C193 1.363 . S
C195 C196 1.370 . S
C195 C199 1.524 . S
C196 C188 1.503 . S
C196 C195 1.370 . S
C196 C197 1.403 1_655 S
C197 C196 1.403 1_455 S
C197 C198 1.404 . S
C197 C200 1.539 . S
C198 C194 1.408 1_455 S
C198 C197 1.404 . S
C198 H210 0.930 . S
C199 C195 1.524 . S
C199 H211 0.956 . S
C199 H212 0.961 . S
C199 H213 0.961 . S
C200 C197 1.539 . S
C200 H214 0.958 . S
C200 H215 0.961 . S
C200 H216 0.960 . S
H201 C185 0.931 . S
H202 C190 0.929 . S
H203 C191 0.960 . S
H204 C191 0.962 . S
H205 C191 0.960 . S
H206 C192 0.961 . S
H207 C192 0.961 . S
H208 C192 0.961 . S
H209 C193 0.931 . S
H210 C198 0.930 . S
H211 C199 0.956 . S
H212 C199 0.961 . S
H213 C199 0.961 . S
H214 C200 0.958 . S
H215 C200 0.961 . S
H216 C200 0.960 . S
C217 C218 1.391 . S
C217 C219 1.394 . S
C217 H233 0.931 . S
C218 C217 1.391 . S
C218 C222 1.376 . S
C219 C217 1.394 . S
C219 C220 1.369 . S
C219 C223 1.531 . S
C220 C219 1.369 . S
C220 C221 1.410 . S
C220 C228 1.503 . S
C221 C220 1.410 . S
C221 C222 1.392 . S
C221 C224 1.511 1_565 S
C222 C218 1.376 . S
C222 C221 1.392 . S
C222 H234 0.929 1_565 S
C223 C219 1.531 . S
C223 H235 0.960 . S
C223 H236 0.962 . S
C223 H237 0.960 . S
C224 C221 1.511 1_545 S
C224 H238 0.961 . S
C224 H239 0.961 . S
C224 H240 0.961 1_545 S
C225 C226 1.370 1_545 S
C225 C227 1.363 . S
C225 H241 0.931 . S
C226 C225 1.370 1_565 S
C226 C230 1.408 . S
C227 C225 1.363 . S
C227 C228 1.370 1_545 S
C227 C231 1.524 . S
C228 C220 1.503 . S
C228 C227 1.370 1_565 S
C228 C229 1.403 . S
C229 C228 1.403 . S
C229 C230 1.404 . S
C229 C232 1.539 . S
C230 C226 1.408 . S
C230 C229 1.404 . S
C230 H242 0.930 . S
C231 C227 1.524 . S
C231 H243 0.956 . S
C231 H244 0.961 . S
C231 H245 0.961 . S
C232 C229 1.539 . S
C232 H246 0.958 . S
C232 H247 0.961 . S
C232 H248 0.960 . S
H233 C217 0.931 . S
H234 C222 0.929 1_545 S
H235 C223 0.960 . S
H236 C223 0.962 . S
H237 C223 0.960 . S
H238 C224 0.961 . S
H239 C224 0.961 . S
H240 C224 0.961 1_565 S
H241 C225 0.931 . S
H242 C230 0.930 . S
H243 C231 0.956 . S
H244 C231 0.961 . S
H245 C231 0.961 . S
H246 C232 0.958 . S
H247 C232 0.961 . S
H248 C232 0.960 . S
C249 C250 1.391 . S
C249 C251 1.394 . S
C249 H265 0.931 . S
C250 C249 1.391 . S
C250 C254 1.376 1_455 S
C251 C249 1.394 . S
C251 C252 1.369 1_455 S
C251 C255 1.531 . S
C252 C251 1.369 1_655 S
C252 C253 1.410 . S
C252 C260 1.503 . S
C253 C252 1.410 . S
C253 C254 1.392 . S
C253 C256 1.511 . S
C254 C250 1.376 1_655 S
C254 C253 1.392 . S
C254 H266 0.929 . S
C255 C251 1.531 . S
C255 H267 0.960 . S
C255 H268 0.962 . S
C255 H269 0.960 . S
C256 C253 1.511 . S
C256 H270 0.961 . S
C256 H271 0.961 . S
C256 H272 0.961 . S
C257 C258 1.370 1_455 S
C257 C259 1.363 . S
C257 H273 0.931 . S
C258 C257 1.370 1_655 S
C258 C262 1.408 . S
C259 C257 1.363 . S
C259 C260 1.370 1_455 S
C259 C263 1.524 . S
C260 C252 1.503 . S
C260 C259 1.370 1_655 S
C260 C261 1.403 . S
C261 C260 1.403 . S
C261 C262 1.404 . S
C261 C264 1.539 . S
C262 C258 1.408 . S
C262 C261 1.404 . S
C262 H274 0.930 . S
C263 C259 1.524 . S
C263 H275 0.956 . S
C263 H276 0.961 . S
C263 H277 0.961 . S
C264 C261 1.539 . S
C264 H278 0.958 . S
C264 H279 0.961 . S
C264 H280 0.960 . S
H265 C249 0.931 . S
H266 C254 0.929 . S
H267 C255 0.960 . S
H268 C255 0.962 . S
H269 C255 0.960 . S
H270 C256 0.961 . S
H271 C256 0.961 . S
H272 C256 0.961 . S
H273 C257 0.931 . S
H274 C262 0.930 . S
H275 C263 0.956 . S
H276 C263 0.961 . S
H277 C263 0.961 . S
H278 C264 0.958 . S
H279 C264 0.961 . S
H280 C264 0.960 . S
C281 C282 1.391 . S
C281 C283 1.393 1_545 S
C281 H297 0.931 . S
C282 C281 1.391 . S
C282 C286 1.375 1_545 S
C283 C281 1.393 1_565 S
C283 C284 1.370 . S
C283 C287 1.530 . S
C284 C283 1.370 . S
C284 C285 1.410 . S
C284 C292 1.503 . S
C285 C284 1.410 . S
C285 C286 1.393 . S
C285 C288 1.511 . S
C286 C282 1.375 1_565 S
C286 C285 1.393 . S
C286 H298 0.929 . S
C287 C283 1.530 . S
C287 H299 0.960 . S
C287 H300 0.962 1_565 S
C287 H301 0.960 . S
C288 C285 1.511 . S
C288 H302 0.961 1_565 S
C288 H303 0.961 . S
C288 H304 0.961 . S
C289 C290 1.370 1_545 S
C289 C291 1.363 . S
C289 H305 0.931 . S
C290 C289 1.370 1_565 S
C290 C294 1.408 . S
C291 C289 1.363 . S
C291 C292 1.370 1_545 S
C291 C295 1.524 . S
C292 C284 1.503 . S
C292 C291 1.370 1_565 S
C292 C293 1.403 . S
C293 C292 1.403 . S
C293 C294 1.404 . S
C293 C296 1.539 . S
C294 C290 1.408 . S
C294 C293 1.404 . S
C294 H306 0.930 . S
C295 C291 1.524 . S
C295 H307 0.956 . S
C295 H308 0.961 . S
C295 H309 0.961 . S
C296 C293 1.539 . S
C296 H310 0.958 . S
C296 H311 0.961 . S
C296 H312 0.960 . S
H297 C281 0.931 . S
H298 C286 0.929 . S
H299 C287 0.960 . S
H300 C287 0.962 1_545 S
H301 C287 0.960 . S
H302 C288 0.961 1_545 S
H303 C288 0.961 . S
H304 C288 0.961 . S
H305 C289 0.931 . S
H306 C294 0.930 . S
H307 C295 0.956 . S
H308 C295 0.961 . S
H309 C295 0.961 . S
H310 C296 0.958 . S
H311 C296 0.961 . S
H312 C296 0.960 . S
C313 C314 1.391 1_455 S
C313 C315 1.394 . S
C313 H329 0.931 . S
C314 C313 1.391 1_655 S
C314 C318 1.376 . S
C315 C313 1.394 . S
C315 C316 1.369 . S
C315 C319 1.531 . S
C316 C315 1.369 . S
C316 C317 1.410 1_455 S
C316 C324 1.503 . S
C317 C316 1.410 1_655 S
C317 C318 1.392 . S
C317 C320 1.511 . S
C318 C314 1.376 . S
C318 C317 1.392 . S
C318 H330 0.929 . S
C319 C315 1.531 . S
C319 H331 0.960 . S
C319 H332 0.962 . S
C319 H333 0.960 . S
C320 C317 1.511 . S
C320 H334 0.961 . S
C320 H335 0.961 . S
C320 H336 0.961 . S
C321 C322 1.370 . S
C321 C323 1.363 . S
C321 H337 0.931 . S
C322 C321 1.370 . S
C322 C326 1.408 . S
C323 C321 1.363 . S
C323 C324 1.370 . S
C323 C327 1.524 . S
C324 C316 1.503 . S
C324 C323 1.370 . S
C324 C325 1.404 . S
C325 C324 1.404 . S
C325 C326 1.407 . S
C325 C328 1.533 1_455 S
C326 C322 1.408 . S
C326 C325 1.407 . S
C326 H338 0.930 . S
C327 C323 1.524 . S
C327 H339 0.956 . S
C327 H340 0.973 . S
C327 H341 0.961 . S
C328 C325 1.533 1_655 S
C328 H342 0.958 1_655 S
C328 H343 0.961 . S
C328 H344 0.960 . S
H329 C313 0.931 . S
H330 C318 0.929 . S
H331 C319 0.960 . S
H332 C319 0.962 . S
H333 C319 0.960 . S
H334 C320 0.961 . S
H335 C320 0.961 . S
H336 C320 0.961 . S
H337 C321 0.931 . S
H338 C326 0.930 . S
H339 C327 0.956 . S
H340 C327 0.973 . S
H341 C327 0.961 . S
H342 C328 0.958 1_455 S
H343 C328 0.961 . S
H344 C328 0.960 . S
C345 C346 1.391 . S
C345 C347 1.394 . S
C345 H361 0.931 . S
C346 C345 1.391 . S
C346 C350 1.376 1_565 S
C347 C345 1.394 . S
C347 C348 1.369 . S
C347 C351 1.531 . S
C348 C347 1.369 . S
C348 C349 1.410 1_565 S
C348 C356 1.503 . S
C349 C348 1.410 1_545 S
C349 C350 1.392 . S
C349 C352 1.511 . S
C350 C346 1.376 1_545 S
C350 C349 1.392 . S
C350 H362 0.929 . S
C351 C347 1.531 . S
C351 H363 0.960 . S
C351 H364 0.962 . S
C351 H365 0.960 . S
C352 C349 1.511 . S
C352 H366 0.961 . S
C352 H367 0.961 . S
C352 H368 0.961 . S
C353 C354 1.370 . S
C353 C355 1.363 . S
C353 H369 0.931 . S
C354 C353 1.370 . S
C354 C358 1.408 1_545 S
C355 C353 1.363 . S
C355 C356 1.370 1_545 S
C355 C359 1.524 . S
C356 C348 1.503 . S
C356 C355 1.370 1_565 S
C356 C357 1.403 . S
C357 C356 1.403 . S
C357 C358 1.404 . S
C357 C360 1.539 . S
C358 C354 1.408 1_565 S
C358 C357 1.404 . S
C358 H370 0.930 . S
C359 C355 1.524 . S
C359 H371 0.956 . S
C359 H372 0.961 . S
C359 H373 0.961 . S
C360 C357 1.539 . S
C360 H374 0.958 . S
C360 H375 0.961 . S
C360 H376 0.960 . S
H361 C345 0.931 . S
H362 C350 0.929 . S
H363 C351 0.960 . S
H364 C351 0.962 . S
H365 C351 0.960 . S
H366 C352 0.961 . S
H367 C352 0.961 . S
H368 C352 0.961 . S
H369 C353 0.931 . S
H370 C358 0.930 . S
H371 C359 0.956 . S
H372 C359 0.961 . S
H373 C359 0.961 . S
H374 C360 0.958 . S
H375 C360 0.961 . S
H376 C360 0.960 . S
C377 C378 1.391 . S
C377 C379 1.394 . S
C377 H393 0.931 . S
C378 C377 1.391 . S
C378 C382 1.376 1_554 S
C379 C377 1.394 . S
C379 C380 1.369 . S
C379 C383 1.531 . S
C380 C379 1.369 . S
C380 C381 1.410 1_554 S
C380 C388 1.503 . S
C381 C380 1.410 1_556 S
C381 C382 1.392 . S
C381 C384 1.511 . S
C382 C378 1.376 1_556 S
C382 C381 1.392 . S
C382 H394 0.929 . S
C383 C379 1.531 . S
C383 H395 0.960 . S
C383 H396 0.962 . S
C383 H397 0.960 . S
C384 C381 1.511 . S
C384 H398 0.961 . S
C384 H399 0.961 . S
C384 H400 0.961 . S
C385 C386 1.370 1_556 S
C385 C387 1.363 1_556 S
C385 H401 0.931 . S
C386 C385 1.370 1_554 S
C386 C390 1.408 . S
C387 C385 1.363 1_554 S
C387 C388 1.370 . S
C387 C391 1.524 1_554 S
C388 C380 1.503 . S
C388 C387 1.370 . S
C388 C389 1.403 . S
C389 C388 1.403 . S
C389 C390 1.404 . S
C389 C392 1.539 . S
C390 C386 1.408 . S
C390 C389 1.404 . S
C390 H402 0.930 . S
C391 C387 1.524 1_556 S
C391 H403 0.956 1_556 S
C391 H404 0.961 . S
C391 H405 0.961 . S
C392 C389 1.539 . S
C392 H406 0.958 . S
C392 H407 0.961 . S
C392 H408 0.960 . S
H393 C377 0.931 . S
H394 C382 0.929 . S
H395 C383 0.960 . S
H396 C383 0.962 . S
H397 C383 0.960 . S
H398 C384 0.961 . S
H399 C384 0.961 . S
H400 C384 0.961 . S
H401 C385 0.931 . S
H402 C390 0.930 . S
H403 C391 0.956 1_554 S
H404 C391 0.961 . S
H405 C391 0.961 . S
H406 C392 0.958 . S
H407 C392 0.961 . S
H408 C392 0.960 . S
C409 C410 1.391 . S
C409 C411 1.394 . S
C409 H425 0.931 . S
C410 C409 1.391 . S
C410 C414 1.376 . S
C411 C409 1.394 . S
C411 C412 1.369 . S
C411 C415 1.531 . S
C412 C411 1.369 . S
C412 C413 1.410 . S
C412 C420 1.503 . S
C413 C412 1.410 . S
C413 C414 1.392 . S
C413 C416 1.511 . S
C414 C410 1.376 . S
C414 C413 1.392 . S
C414 H426 0.929 . S
C415 C411 1.531 . S
C415 H427 0.960 . S
C415 H428 0.962 1_554 S
C415 H429 0.960 . S
C416 C413 1.511 . S
C416 H430 0.961 . S
C416 H431 0.961 . S
C416 H432 0.961 . S
C417 C418 1.370 1_556 S
C417 C419 1.363 . S
C417 H433 0.931 . S
C418 C417 1.370 1_554 S
C418 C422 1.408 . S
C419 C417 1.363 . S
C419 C420 1.370 1_556 S
C419 C423 1.524 . S
C420 C412 1.503 . S
C420 C419 1.370 1_554 S
C420 C421 1.403 . S
C421 C420 1.403 . S
C421 C422 1.404 . S
C421 C424 1.539 . S
C422 C418 1.408 . S
C422 C421 1.404 . S
C422 H434 0.930 . S
C423 C419 1.524 . S
C423 H435 0.956 . S
C423 H436 0.961 . S
C423 H437 0.961 . S
C424 C421 1.539 . S
C424 H438 0.958 . S
C424 H439 0.961 . S
C424 H440 0.960 . S
H425 C409 0.931 . S
H426 C414 0.929 . S
H427 C415 0.960 . S
H428 C415 0.962 1_556 S
H429 C415 0.960 . S
H430 C416 0.961 . S
H431 C416 0.961 . S
H432 C416 0.961 . S
H433 C417 0.931 . S
H434 C422 0.930 . S
H435 C423 0.956 . S
H436 C423 0.961 . S
H437 C423 0.961 . S
H438 C424 0.958 . S
H439 C424 0.961 . S
H440 C424 0.960 . S
C441 C442 1.391 1_556 S
C441 C443 1.394 . S
C441 H457 0.931 . S
C442 C441 1.391 1_554 S
C442 C446 1.376 . S
C443 C441 1.394 . S
C443 C444 1.366 1_556 S
C443 C447 1.531 . S
C444 C443 1.366 1_554 S
C444 C445 1.412 . S
C444 C452 1.504 . S
C445 C444 1.412 . S
C445 C446 1.392 . S
C445 C448 1.511 . S
C446 C442 1.376 . S
C446 C445 1.392 . S
C446 H458 0.929 . S
C447 C443 1.531 . S
C447 H459 0.960 . S
C447 H460 0.962 . S
C447 H461 0.960 . S
C448 C445 1.511 . S
C448 H462 0.961 . S
C448 H463 0.961 . S
C448 H464 0.961 . S
C449 C450 1.370 . S
C449 C451 1.363 . S
C449 H465 0.931 . S
C450 C449 1.370 . S
C450 C454 1.408 1_554 S
C451 C449 1.363 . S
C451 C452 1.370 . S
C451 C455 1.524 . S
C452 C444 1.504 . S
C452 C451 1.370 . S
C452 C453 1.403 1_554 S
C453 C452 1.403 1_556 S
C453 C454 1.404 . S
C453 C456 1.539 . S
C454 C450 1.408 1_556 S
C454 C453 1.404 . S
C454 H466 0.930 . S
C455 C451 1.524 . S
C455 H467 0.956 . S
C455 H468 0.961 . S
C455 H469 0.961 . S
C456 C453 1.539 . S
C456 H470 0.958 . S
C456 H471 0.961 . S
C456 H472 0.960 . S
H457 C441 0.931 . S
H458 C446 0.929 . S
H459 C447 0.960 . S
H460 C447 0.962 . S
H461 C447 0.960 . S
H462 C448 0.961 . S
H463 C448 0.961 . S
H464 C448 0.961 . S
H465 C449 0.931 . S
H466 C454 0.930 . S
H467 C455 0.956 . S
H468 C455 0.961 . S
H469 C455 0.961 . S
H470 C456 0.958 . S
H471 C456 0.961 . S
H472 C456 0.960 . S
C473 C474 1.391 . S
C473 C475 1.394 . S
C473 H489 0.923 1_554 S
C474 C473 1.391 . S
C474 C478 1.376 . S
C475 C473 1.394 . S
C475 C476 1.369 . S
C475 C479 1.531 1_554 S
C476 C475 1.369 . S
C476 C477 1.410 . S
C476 C484 1.503 . S
C477 C476 1.410 . S
C477 C478 1.392 . S
C477 C480 1.511 . S
C478 C474 1.376 . S
C478 C477 1.392 . S
C478 H490 0.929 . S
C479 C475 1.531 1_556 S
C479 H491 0.960 1_556 S
C479 H492 0.962 . S
C479 H493 0.960 . S
C480 C477 1.511 . S
C480 H494 0.961 . S
C480 H495 0.961 . S
C480 H496 0.961 . S
C481 C482 1.370 1_556 S
C481 C483 1.363 . S
C481 H497 0.931 . S
C482 C481 1.370 1_554 S
C482 C486 1.408 . S
C483 C481 1.363 . S
C483 C484 1.370 1_556 S
C483 C487 1.524 . S
C484 C476 1.503 . S
C484 C483 1.370 1_554 S
C484 C485 1.403 . S
C485 C484 1.403 . S
C485 C486 1.404 . S
C485 C488 1.539 . S
C486 C482 1.408 . S
C486 C485 1.404 . S
C486 H498 0.930 . S
C487 C483 1.524 . S
C487 H499 0.956 . S
C487 H500 0.961 . S
C487 H501 0.961 . S
C488 C485 1.539 . S
C488 H502 0.958 . S
C488 H503 0.961 . S
C488 H504 0.960 . S
H489 C473 0.923 1_556 S
H490 C478 0.929 . S
H491 C479 0.960 1_554 S
H492 C479 0.962 . S
H493 C479 0.960 . S
H494 C480 0.961 . S
H495 C480 0.961 . S
H496 C480 0.961 . S
H497 C481 0.931 . S
H498 C486 0.930 . S
H499 C487 0.956 . S
H500 C487 0.961 . S
H501 C487 0.961 . S
H502 C488 0.958 . S
H503 C488 0.961 . S
H504 C488 0.960 . S
C130 C105 1.352 . S
C122 N2 1.383 . S
C162 C101 1.709 1_545 S
C154 C39 1.779 . S
C194 C111 1.560 . S
C186 C7 1.648 . S
C226 C95 1.520 1_565 S
C218 N35 1.540 . S
C250 N12 1.439 . S
C258 C87 1.430 . S
C290 C119 1.850 1_565 S
C282 C30 1.947 . S
C314 C16 1.737 . S
C322 C73 1.622 . S
C346 N25 1.691 . S
C354 C117 1.617 . S
C378 C62 1.320 . S
C386 C99 1.298 . S
C410 N48 1.093 1_554 S
C418 C114 1.093 . S
C450 C108 1.057 . S
C442 N58 1.076 . S
C482 C103 1.312 . S
C474 C53 1.343 . S
