# Generated by pormake.
# Topology pth, (4,4)-cn, num edge types: 1
# Building blocks:
#     Node 0, Type 0, BuildingBlock: TATPOV_clean_sbu_0, # of connection points: 4
#     Node 1, Type 0, BuildingBlock: TATPOV_clean_sbu_0, # of connection points: 4
#     Node 2, Type 0, BuildingBlock: TATPOV_clean_sbu_0, # of connection points: 4
#     Node 3, Type 1, BuildingBlock: KOZSID_clean_sbu_0, # of connection points: 4
#     Node 4, Type 1, BuildingBlock: KOZSID_clean_sbu_0, # of connection points: 4
#     Node 5, Type 1, BuildingBlock: KOZSID_clean_sbu_0, # of connection points: 4
#     Edge 6, Type (0, 1), BuildingBlock: FUNLAD_clean_linker_1, # of connection points: 2
#     Edge 7, Type (0, 1), BuildingBlock: FUNLAD_clean_linker_1, # of connection points: 2
#     Edge 8, Type (0, 1), BuildingBlock: FUNLAD_clean_linker_1, # of connection points: 2
#     Edge 9, Type (0, 1), BuildingBlock: FUNLAD_clean_linker_1, # of connection points: 2
#     Edge 10, Type (0, 1), BuildingBlock: FUNLAD_clean_linker_1, # of connection points: 2
#     Edge 11, Type (0, 1), BuildingBlock: FUNLAD_clean_linker_1, # of connection points: 2
#     Edge 12, Type (0, 1), BuildingBlock: FUNLAD_clean_linker_1, # of connection points: 2
#     Edge 13, Type (0, 1), BuildingBlock: FUNLAD_clean_linker_1, # of connection points: 2
#     Edge 14, Type (0, 1), BuildingBlock: FUNLAD_clean_linker_1, # of connection points: 2
#     Edge 15, Type (0, 1), BuildingBlock: FUNLAD_clean_linker_1, # of connection points: 2
#     Edge 16, Type (0, 1), BuildingBlock: FUNLAD_clean_linker_1, # of connection points: 2
#     Edge 17, Type (0, 1), BuildingBlock: FUNLAD_clean_linker_1, # of connection points: 2
# Relax obj value: 0.036
# Max RMSD: 0.165
# Mean RMSD: 0.080
data_MOF--net-pth--node1-TATPOV_clean_sbu_0--node2-KOZSID_clean_sbu_0--edge1-FUNLAD_clean_linker_1
_symmetry_space_group_name_H-M    P1
_symmetry_Int_Tables_number       1
_symmetry_cell_setting            triclinic
loop_
_symmetry_equiv_pos_as_xyz
'x, y, z'
_cell_length_a     27.852438
_cell_length_b     27.566636
_cell_length_c     61.200289
_cell_angle_alpha  89.871041
_cell_angle_beta   89.657107
_cell_angle_gamma 121.12366
loop_
_atom_site_label
_atom_site_type_symbol
_atom_site_fract_x
_atom_site_fract_y
_atom_site_fract_z
_atom_type_partial_charge
Zn0 Zn 0.19459 0.04096 0.0213 0.0
Zn1 Zn 0.14261 0.09674 0.03242 0.0
O2 O 0.13503 0.04823 0.05964 0.0
O3 O 0.18023 0.00478 0.05119 0.0
O4 O 0.11767 0.14966 0.04339 0.0
O5 O 0.2672 0.11234 0.01328 0.0
O6 O 0.22011 0.15508 0.01934 0.0
C7 C 0.15117 0.01403 0.06464 0.0
C8 C 0.0927 0.01157 0.99635 0.0
O9 O 0.08864 0.04682 0.00853 0.0
O10 O 0.13317 0.00328 0.99848 0.0
C11 C 0.0867 0.1406 0.06008 0.0
O12 O 0.06434 0.09172 0.07039 0.0
C13 C 0.26443 0.15666 0.0128 0.0
Zn14 Zn 0.164 0.18069 0.34457 0.0
Zn15 Zn 0.07185 0.11518 0.36891 0.0
O16 O 0.13694 0.13565 0.39036 0.0
O17 O 0.21246 0.19207 0.37074 0.0
O18 O 0.00133 0.07785 0.38779 0.0
O19 O 0.13979 0.23551 0.33613 0.0
O20 O 0.06346 0.17899 0.35508 0.0
C21 C 0.19021 0.16609 0.38845 0.0
C22 C 0.09754 0.06306 0.33024 0.0
O23 O 0.0655 0.05612 0.34649 0.0
O24 O 0.14003 0.11132 0.32604 0.0
C25 C 0.99651 0.11095 0.40089 0.0
O26 O 0.03828 0.16365 0.40247 0.0
C27 C 0.09154 0.22242 0.34293 0.0
Zn28 Zn 0.12625 0.97755 0.72135 0.0
Zn29 Zn 0.07816 0.02828 0.70017 0.0
O30 O 0.12638 0.02008 0.67647 0.0
O31 O 0.1643 0.97701 0.69301 0.0
O32 O 0.03629 0.0579 0.68332 0.0
O33 O 0.05006 0.91282 0.73111 0.0
O34 O 0.01304 0.95664 0.71452 0.0
C35 C 0.1583 0.99972 0.67603 0.0
C36 C 0.158 0.08985 0.73757 0.0
O37 O 0.12606 0.0894 0.72264 0.0
O38 O 0.16452 0.04795 0.74016 0.0
C39 C 0.00245 0.02541 0.66884 0.0
O40 O 0.99786 0.97618 0.6653 0.0
C41 C 0.00753 0.91578 0.72619 0.0
C42 C 0.1095 0.66719 0.16374 0.0
C43 C 0.16298 0.70102 0.15469 0.0
C44 C 0.1992 0.69512 0.16766 0.0
C45 C 0.16627 0.65765 0.18361 0.0
N46 N 0.11102 0.63832 0.18143 0.0
Co47 Co 0.04845 0.57692 0.19926 0.0
N48 N 0.10241 0.57228 0.21931 0.0
C49 C 0.15876 0.60731 0.21937 0.0
C50 C 0.18494 0.59695 0.23598 0.0
C51 C 0.1429 0.55206 0.24708 0.0
C52 C 0.09322 0.5367 0.23624 0.0
N53 N 0.9858 0.51271 0.2164 0.0
C54 C 0.98731 0.47926 0.23251 0.0
C55 C 0.93369 0.43356 0.237 0.0
C56 C 0.89749 0.43932 0.22396 0.0
C57 C 0.93051 0.48695 0.21177 0.0
N58 N 0.9948 0.58471 0.1799 0.0
C59 C 0.93822 0.55283 0.18075 0.0
C60 C 0.91231 0.56802 0.16562 0.0
C61 C 0.95487 0.61349 0.15488 0.0
C62 C 0.00465 0.62443 0.16444 0.0
N63 N 0.04903 0.51992 0.17944 0.0
C64 C 0.04741 0.43459 0.15333 0.0
C65 C 1.00025 0.4395 0.15534 0.0
C66 C 0.00198 0.48212 0.16819 0.0
C67 C 0.096 0.47382 0.1644 0.0
C68 C 0.0959 0.51587 0.17718 0.0
N69 N 0.04742 0.63333 0.21899 0.0
C70 C 0.99448 0.66335 0.2405 0.0
C71 C 0.04296 0.71428 0.24563 0.0
C72 C 0.0942 0.72411 0.23719 0.0
C73 C 0.09542 0.68322 0.22401 0.0
C74 C 0.99755 0.62385 0.22736 0.0
H75 H 0.13545 0.69313 0.21777 0.0
H76 H 0.95873 0.58623 0.22395 0.0
H77 H 0.96432 0.4829 0.16886 0.0
H78 H 0.13407 0.54409 0.18534 0.0
C79 C 0.18637 0.64426 0.20199 0.0
C80 C 0.06054 0.67089 0.15762 0.0
C81 C 0.03907 0.48685 0.24227 0.0
C82 C 0.91091 0.50774 0.19547 0.0
H83 H 0.17573 0.72905 0.14069 0.0
H84 H 0.24443 0.71721 0.16611 0.0
H85 H 0.22947 0.61812 0.23917 0.0
H86 H 0.14852 0.53205 0.26126 0.0
H87 H 0.9211 0.39773 0.24767 0.0
H88 H 0.85257 0.41084 0.22288 0.0
H89 H 0.8678 0.54808 0.16261 0.0
H90 H 0.94945 0.63523 0.14129 0.0
H91 H 0.96167 0.41018 0.14707 0.0
H92 H 0.1337 0.47174 0.16383 0.0
H93 H 0.95386 0.65397 0.24653 0.0
H94 H 0.13312 0.76331 0.24019 0.0
C95 C 0.47248 0.9905 0.56323 0.0
C96 C 0.4306 0.93399 0.56641 0.0
C97 C 0.43434 0.90429 0.5494 0.0
C98 C 0.47805 0.94375 0.53688 0.0
N99 N 0.50367 0.9967 0.5451 0.0
Co100 Co 0.56915 0.06634 0.53177 0.0
N101 N 0.57416 0.02245 0.50648 0.0
C102 C 0.54023 0.96617 0.50311 0.0
C103 C 0.55695 0.94579 0.48629 0.0
C104 C 0.60535 0.99126 0.47869 0.0
C105 C 0.6152 0.03797 0.49105 0.0
N106 N 0.6335 0.13608 0.51835 0.0
C107 C 0.66782 0.14159 0.50149 0.0
C108 C 0.70757 0.19821 0.49742 0.0
C109 C 0.69981 0.22908 0.51291 0.0
C110 C 0.65545 0.18997 0.52536 0.0
N111 N 0.56583 0.10996 0.55729 0.0
C112 C 0.60241 0.16513 0.56171 0.0
C113 C 0.59306 0.182 0.5815 0.0
C114 C 0.54683 0.13511 0.58992 0.0
C115 C 0.52914 0.09288 0.57431 0.0
N116 N 0.62249 0.05247 0.54811 0.0
C117 C 0.69829 0.03353 0.57164 0.0
C118 C 0.70849 0.08833 0.56847 0.0
C119 C 0.67042 0.09667 0.5568 0.0
C120 C 0.65019 0.98859 0.56234 0.0
C121 C 0.61306 0.99883 0.55079 0.0
N122 N 0.51568 0.08059 0.51559 0.0
C123 C 0.47577 0.13928 0.50925 0.0
C124 C 0.43492 0.09857 0.49571 0.0
C125 C 0.4354 0.0488 0.49195 0.0
C126 C 0.47564 0.04058 0.50212 0.0
C127 C 0.51592 0.13001 0.51863 0.0
H128 H 0.47281 0.00113 0.49913 0.0
H129 H 0.54618 0.16331 0.52856 0.0
H130 H 0.68117 0.1395 0.55483 0.0
H131 H 0.5772 0.96274 0.54408 0.0
C132 C 0.49652 0.93231 0.51751 0.0
C133 C 0.47677 0.03772 0.57596 0.0
C134 C 0.66642 0.09479 0.48955 0.0
C135 C 0.64128 0.20098 0.54596 0.0
H136 H 0.39935 0.91559 0.57925 0.0
H137 H 0.40775 0.85936 0.54636 0.0
H138 H 0.53822 0.9022 0.48111 0.0
H139 H 0.63096 0.98771 0.46634 0.0
H140 H 0.74039 0.21521 0.48508 0.0
H141 H 0.72586 0.2742 0.51567 0.0
H142 H 0.61626 0.22369 0.58873 0.0
H143 H 0.52788 0.13253 0.60564 0.0
H144 H 0.74609 0.12513 0.57449 0.0
H145 H 0.64099 0.94547 0.56409 0.0
H146 H 0.477 0.17853 0.51252 0.0
H147 H 0.40389 0.01554 0.48182 0.0
C148 C 0.67981 0.56886 0.83239 0.0
C149 C 0.71133 0.54579 0.82531 0.0
C150 C 0.71304 0.51455 0.84229 0.0
C151 C 0.68203 0.5195 0.85861 0.0
N152 N 0.65932 0.55072 0.85284 0.0
Co153 Co 0.60761 0.56499 0.87086 0.0
N154 N 0.61332 0.52255 0.89625 0.0
C155 C 0.64779 0.5019 0.89815 0.0
C156 C 0.64556 0.47919 0.91834 0.0
C157 C 0.60591 0.48404 0.92972 0.0
C158 C 0.5848 0.50763 0.91544 0.0
N159 N 0.55517 0.57836 0.88889 0.0
C160 C 0.53164 0.55668 0.90872 0.0
C161 C 0.49711 0.5765 0.91544 0.0
C162 C 0.49707 0.60979 0.89887 0.0
C163 C 0.53169 0.60885 0.88309 0.0
N164 N 0.60257 0.60808 0.84548 0.0
C165 C 0.56962 0.63063 0.8439 0.0
C166 C 0.57333 0.65518 0.82398 0.0
C167 C 0.61227 0.64948 0.81244 0.0
C168 C 0.63147 0.6233 0.82631 0.0
N169 N 0.54271 0.49372 0.85975 0.0
C170 C 0.4548 0.39527 0.84042 0.0
C171 C 0.45229 0.44447 0.8422 0.0
C172 C 0.49606 0.49251 0.85202 0.0
C173 C 0.50093 0.39555 0.84934 0.0
C174 C 0.54377 0.44459 0.8591 0.0
N175 N 0.67251 0.63649 0.88194 0.0
C176 C 0.71355 0.73473 0.89219 0.0
C177 C 0.76105 0.73637 0.9002 0.0
C178 C 0.76509 0.68815 0.89773 0.0
C179 C 0.72077 0.63917 0.88852 0.0
C180 C 0.67021 0.68488 0.8832 0.0
H181 H 0.72664 0.60416 0.88685 0.0
H182 H 0.63523 0.68663 0.87743 0.0
H183 H 0.4914 0.52834 0.85288 0.0
H184 H 0.57758 0.44197 0.86581 0.0
C185 C 0.67725 0.49944 0.88002 0.0
C186 C 0.67821 0.61496 0.82113 0.0
C187 C 0.53516 0.51153 0.91988 0.0
C188 C 0.53856 0.63113 0.86191 0.0
H189 H 0.733 0.55259 0.80986 0.0
H190 H 0.73603 0.49273 0.84295 0.0
H191 H 0.66838 0.45948 0.92385 0.0
H192 H 0.59218 0.46934 0.94627 0.0
H193 H 0.47258 0.56626 0.93033 0.0
H194 H 0.47258 0.63 0.89801 0.0
H195 H 0.55138 0.67596 0.81865 0.0
H196 H 0.62603 0.66426 0.79589 0.0
H197 H 0.41797 0.44722 0.83546 0.0
H198 H 0.50435 0.35817 0.84856 0.0
H199 H 0.70924 0.77154 0.89327 0.0
H200 H 0.80219 0.68789 0.90268 0.0
H201 H 0.10798 0.22948 0.06157 0.0
C202 C 0.0833 0.18815 0.06937 0.0
H203 H 0.03176 0.14241 0.09623 0.0
H204 H 0.12528 0.34605 0.16152 0.0
H205 H 0.15333 0.28499 0.17842 0.0
H206 H 0.1409 0.20066 0.15926 0.0
H207 H 0.0999 0.17655 0.12323 0.0
C208 C 0.05499 0.18317 0.08794 0.0
C209 C 0.06157 0.23403 0.09939 0.0
C210 C 0.08643 0.24798 0.12039 0.0
C211 C 0.09466 0.29726 0.13128 0.0
C212 C 0.11871 0.30958 0.15238 0.0
C213 C 0.13497 0.27486 0.1623 0.0
C214 C 0.1279 0.22735 0.15153 0.0
C215 C 0.10408 0.21392 0.13083 0.0
H216 H 1.00098 0.35197 0.13656 0.0
C217 C 0.04291 0.38675 0.14038 0.0
H218 H 0.12965 0.41752 0.13614 0.0
H219 H 0.00587 0.21597 0.06069 0.0
H220 H 0.98101 0.27897 0.04326 0.0
H221 H 0.00258 0.36848 0.06077 0.0
H222 H 0.04805 0.3949 0.09604 0.0
C223 C 0.08695 0.38405 0.13286 0.0
C224 C 0.07859 0.33291 0.12112 0.0
C225 C 0.05417 0.3193 0.10005 0.0
C226 C 0.04434 0.26908 0.08942 0.0
C227 C 0.01671 0.25482 0.06903 0.0
C228 C 0.00178 0.2904 0.05891 0.0
C229 C 0.01372 0.34068 0.06882 0.0
C230 C 0.03956 0.35517 0.08913 0.0
H231 H 0.90776 0.04955 0.40974 0.0
C232 C 0.94257 0.09251 0.41223 0.0
H233 H 0.96886 0.17261 0.4259 0.0
H234 H 0.73656 0.15579 0.42941 0.0
H235 H 0.78115 0.22042 0.39886 0.0
H236 H 0.87026 0.23691 0.38323 0.0
H237 H 0.91547 0.18907 0.39809 0.0
C238 C 0.93477 0.12898 0.42414 0.0
C239 C 0.87859 0.11472 0.43264 0.0
C240 C 0.85219 0.14242 0.42356 0.0
C241 C 0.80031 0.13225 0.43234 0.0
C242 C 0.77552 0.16129 0.42317 0.0
C243 C 0.80073 0.19864 0.40566 0.0
C244 C 0.85095 0.20799 0.39689 0.0
C245 C 0.87654 0.18034 0.40564 0.0
H246 H 0.75646 0.13672 0.48652 0.0
C247 C 0.71682 0.10505 0.47939 0.0
H248 H 0.68425 0.06496 0.44831 0.0
H249 H 0.91913 0.05708 0.45478 0.0
H250 H 0.87347 0.99095 0.48482 0.0
H251 H 0.78158 0.97021 0.49898 0.0
H252 H 0.7351 0.01595 0.48337 0.0
C253 C 0.72004 0.08328 0.45913 0.0
C254 C 0.77469 0.09427 0.45015 0.0
C255 C 0.80068 0.06603 0.4591 0.0
C256 C 0.85297 0.07672 0.45049 0.0
C257 C 0.87884 0.04948 0.46028 0.0
C258 C 0.85317 0.01157 0.4776 0.0
C259 C 0.80149 -2e-05 0.4856 0.0
C260 C 0.77534 0.02672 0.47653 0.0
H261 H 0.91642 0.87886 0.73077 0.0
C262 C 0.95192 0.87521 0.73562 0.0
H263 H 0.98098 0.8365 0.7573 0.0
H264 H 0.80171 0.77579 0.8312 0.0
H265 H 0.88605 0.85047 0.84823 0.0
H266 H 0.97342 0.9064 0.82685 0.0
H267 H 0.97719 0.88762 0.78838 0.0
C268 C 0.94514 0.83833 0.75149 0.0
C269 C 0.89139 0.80579 0.76392 0.0
C270 C 0.88968 0.81809 0.78634 0.0
C271 C 0.83905 0.78659 0.79859 0.0
C272 C 0.83885 0.79888 0.82105 0.0
C273 C 0.88699 0.84162 0.83105 0.0
C274 C 0.93619 0.87305 0.81902 0.0
C275 C 0.93778 0.86168 0.79694 0.0
H276 H 0.75267 0.63925 0.80175 0.0
C277 C 0.72356 0.65182 0.80718 0.0
H278 H 0.71847 0.7277 0.80935 0.0
H279 H 0.88088 0.7684 0.72173 0.0
H280 H 0.79573 0.69557 0.70456 0.0
H281 H 0.70672 0.64482 0.72532 0.0
H282 H 0.70256 0.66614 0.76349 0.0
C283 C 0.73863 0.70735 0.80166 0.0
C284 C 0.79018 0.7431 0.78839 0.0
C285 C 0.79148 0.7316 0.76589 0.0
C286 C 0.84235 0.76232 0.75372 0.0
C287 C 0.84302 0.74786 0.73157 0.0
C288 C 0.79448 0.70585 0.72154 0.0
C289 C 0.7444 0.67716 0.73324 0.0
C290 C 0.74266 0.68964 0.75516 0.0
H291 H 0.09675 0.98101 0.09409 0.0
C292 C 0.12869 0.97872 0.08464 0.0
H293 H 0.17091 0.93472 0.0793 0.0
H294 H 0.06332 0.81869 0.17508 0.0
H295 H 0.11626 0.91309 0.19066 0.0
H296 H 0.16515 0.99764 0.16683 0.0
H297 H 0.16113 0.9885 0.12731 0.0
C298 C 0.14063 0.93842 0.08934 0.0
C299 C 0.10496 0.88977 0.10421 0.0
C300 C 0.10748 0.89613 0.12725 0.0
C301 C 0.07992 0.84728 0.14102 0.0
C302 C 0.08376 0.85446 0.16395 0.0
C303 C 0.11394 0.90832 0.17307 0.0
C304 C 0.14141 0.95594 0.15965 0.0
C305 C 0.13863 0.95015 0.13699 0.0
H306 H 0.10784 0.74327 0.13621 0.0
C307 C 0.06913 0.71859 0.14536 0.0
H308 H 0.99961 0.72681 0.15696 0.0
H309 H 0.08387 0.86319 0.06083 0.0
H310 H 0.02833 0.76903 0.04554 0.0
H311 H 0.98202 0.68463 0.06951 0.0
H312 H 0.9909 0.69407 0.10894 0.0
C313 C 0.0345 0.74161 0.14558 0.0
C314 C 0.05096 0.79246 0.13173 0.0
C315 C 0.04485 0.78644 0.10878 0.0
C316 C 0.07175 0.83508 0.09501 0.0
C317 C 0.06505 0.82766 0.07209 0.0
C318 C 0.03305 0.77385 0.06309 0.0
C319 C 0.00698 0.72634 0.07657 0.0
C320 C 0.01262 0.73231 0.09916 0.0
H321 H 0.27204 0.18736 0.40141 0.0
C322 C 0.22755 0.1658 0.40542 0.0
H323 H 0.16443 0.11173 0.42775 0.0
H324 H 0.29089 0.99118 0.46112 0.0
H325 H 0.20263 0.91305 0.44818 0.0
H326 H 0.13446 0.9304 0.42967 0.0
H327 H 0.15358 0.02572 0.42433 0.0
C328 C 0.20899 0.1349 0.42393 0.0
C329 C 0.24757 0.12434 0.43733 0.0
C330 C 0.23592 0.06807 0.44008 0.0
C331 C 0.276 0.05807 0.45019 0.0
C332 C 0.26264 0.00139 0.45313 0.0
C333 C 0.21201 0.95604 0.44584 0.0
C334 C 0.17359 0.96581 0.43545 0.0
C335 C 0.18517 0.02097 0.43253 0.0
H336 H 0.37845 0.13273 0.49618 0.0
C337 C 0.3916 0.10856 0.48647 0.0
H338 H 0.38466 0.06939 0.45615 0.0
H339 H 0.27738 0.23554 0.43973 0.0
H340 H 0.36761 0.31448 0.45093 0.0
H341 H 0.44249 0.29858 0.46339 0.0
H342 H 0.427 0.20388 0.46551 0.0
C343 C 0.37133 0.09287 0.46617 0.0
C344 C 0.32839 0.10426 0.45701 0.0
C345 C 0.33978 0.16055 0.45448 0.0
C346 C 0.29827 0.17025 0.44561 0.0
C347 C 0.30877 0.22627 0.44508 0.0
C348 C 0.36015 0.27187 0.45163 0.0
C349 C 0.40218 0.26288 0.45876 0.0
C350 C 0.39243 0.20805 0.46014 0.0
H351 H 0.18503 0.1768 0.74848 0.0
C352 C 0.18882 0.14008 0.75162 0.0
H353 H 0.22529 0.10476 0.77136 0.0
H354 H 0.40687 0.37745 0.78567 0.0
H355 H 0.42874 0.38001 0.74712 0.0
H356 H 0.37314 0.29635 0.7239 0.0
H357 H 0.29489 0.21014 0.73897 0.0
C358 C 0.22254 0.14181 0.76763 0.0
C359 C 0.2559 0.19282 0.78134 0.0
C360 C 0.30249 0.2424 0.77227 0.0
C361 C 0.33596 0.28984 0.78583 0.0
C362 C 0.38108 0.33957 0.77626 0.0
C363 C 0.39397 0.34172 0.75413 0.0
C364 C 0.36256 0.2947 0.74105 0.0
C365 C 0.31743 0.24549 0.74991 0.0
H366 H 0.4248 0.31528 0.82243 0.0
C367 C 0.41267 0.34487 0.82809 0.0
H368 H 0.34577 0.3608 0.82924 0.0
H369 H 0.1689 0.10494 0.80375 0.0
H370 H 0.14894 0.10174 0.84258 0.0
H371 H 0.20891 0.18315 0.86624 0.0
H372 H 0.28904 0.2684 0.85118 0.0
C373 C 0.36144 0.33482 0.82293 0.0
C374 C 0.32408 0.28679 0.80852 0.0
C375 C 0.27732 0.23757 0.81754 0.0
C376 C 0.24315 0.19048 0.80393 0.0
C377 C 0.19664 0.14173 0.81338 0.0
C378 C 0.18462 0.13938 0.83563 0.0
C379 C 0.21835 0.18524 0.84895 0.0
C380 C 0.26419 0.23389 0.8401 0.0
H381 H 0.97057 0.082 0.6608 0.0
C382 C 0.96706 0.04185 0.65688 0.0
H383 H 0.9248 0.96681 0.63835 0.0
H384 H 0.7055 0.97517 0.6241 0.0
H385 H 0.67263 0.89777 0.6501 0.0
H386 H 0.73884 0.87602 0.6677 0.0
H387 H 0.83839 0.93184 0.65951 0.0
C388 C 0.92991 0.00786 0.64183 0.0
C389 C 0.89056 0.02176 0.63111 0.0
C390 C 0.83228 0.98803 0.63576 0.0
C391 C 0.79395 0.0 0.62536 0.0
C392 C 0.7363 0.96699 0.63101 0.0
C393 C 0.71687 0.92263 0.64604 0.0
C394 C 0.75415 0.91043 0.65597 0.0
C395 C 0.81121 0.94273 0.65104 0.0
H396 H 0.7351 0.98189 0.58092 0.0
C397 C 0.73747 0.02199 0.58383 0.0
H398 H 0.77734 0.09758 0.6024 0.0
H399 H 0.99905 0.09237 0.61726 0.0
H400 H 0.0319 0.1701 0.59142 0.0
H401 H 0.96562 0.19175 0.57382 0.0
H402 H 0.86599 0.13551 0.58187 0.0
C403 C 0.77417 0.05757 0.59871 0.0
C404 C 0.81387 0.04505 0.60998 0.0
C405 C 0.87217 0.0791 0.60547 0.0
C406 C 0.91052 0.06715 0.61588 0.0
C407 C 0.96821 0.10044 0.61033 0.0
C408 C 0.98763 0.14501 0.59539 0.0
C409 C 0.95031 0.15716 0.58547 0.0
C410 C 0.89321 0.1246 0.59029 0.0
H411 H 0.05556 0.94756 0.97061 0.0
C412 C 0.04946 0.97721 0.98018 0.0
H413 H 0.99358 0.00513 0.98782 0.0
H414 H 0.91094 0.85061 0.89534 0.0
H415 H 0.99213 0.93098 0.87843 0.0
H416 H 0.05701 0.01463 0.9002 0.0
H417 H 0.04121 0.01797 0.93913 0.0
C418 C 0.00187 0.97773 0.9778 0.0
C419 C 0.95656 0.93438 0.96377 0.0
C420 C 0.96502 0.93407 0.9409 0.0
C421 C 0.92656 0.8867 0.92823 0.0
C422 C 0.93778 0.88617 0.90565 0.0
C423 C 0.98444 0.93196 0.89574 0.0
C424 C 0.02104 0.97899 0.908 0.0
C425 C 0.0117 0.98024 0.93033 0.0
H426 H 0.80581 0.82801 0.90785 0.0
C427 C 0.80495 0.78871 0.91101 0.0
H428 H 0.83758 0.7496 0.93077 0.0
H429 H 0.92489 0.92441 0.00681 0.0
H430 H 0.84073 0.84672 0.02336 0.0
H431 H 0.77251 0.76583 0.0012 0.0
H432 H 0.78826 0.76198 0.96238 0.0
C433 C 0.84039 0.78882 0.92583 0.0
C434 C 0.87877 0.84061 0.93839 0.0
C435 C 0.86838 0.84272 0.96098 0.0
C436 C 0.90731 0.88968 0.97369 0.0
C437 C 0.89656 0.88999 0.99633 0.0
C438 C 0.84836 0.84565 0.00605 0.0
C439 C 0.80998 0.80009 0.99358 0.0
C440 C 0.81964 0.79837 0.97131 0.0
H441 H 0.11755 0.02561 0.30275 0.0
C442 C 0.08866 0.01545 0.31642 0.0
H443 H 0.02293 0.94928 0.3348 0.0
H444 H 0.05607 0.85074 0.23813 0.0
H445 H 0.02334 0.90821 0.22153 0.0
H446 H 1.0002 0.96741 0.24419 0.0
H447 H 0.01099 0.9704 0.28359 0.0
C448 C 0.05051 0.96088 0.32064 0.0
C449 C 0.05143 0.91558 0.30763 0.0
C450 C 0.04184 0.91177 0.28478 0.0
C451 C 0.05239 0.87539 0.27184 0.0
C452 C 0.04638 0.87567 0.24887 0.0
C453 C 0.02795 0.90878 0.23909 0.0
C454 C 0.01516 0.94228 0.25184 0.0
C455 C 0.02193 0.94393 0.27441 0.0
H456 H 0.99514 0.74875 0.26125 0.0
C457 C 0.03718 0.75607 0.25897 0.0
H458 H 0.12215 0.80906 0.26809 0.0
H459 H 0.07051 0.90979 0.35118 0.0
H460 H 0.09831 0.84848 0.36803 0.0
H461 H 0.11236 0.78217 0.34582 0.0
H462 H 0.09923 0.7772 0.30656 0.0
C463 C 0.07992 0.80157 0.2686 0.0
C464 C 0.06957 0.84048 0.28196 0.0
C465 C 0.07652 0.84226 0.30493 0.0
C466 C 0.06756 0.8799 0.31778 0.0
C467 C 0.07616 0.88167 0.34063 0.0
C468 C 0.09213 0.84668 0.35053 0.0
C469 C 0.10009 0.80938 0.33803 0.0
C470 C 0.09247 0.80702 0.3155 0.0
H471 H 0.1876 0.02909 0.64219 0.0
C472 C 0.19311 0.00862 0.65635 0.0
H473 H 0.24333 0.98115 0.67111 0.0
H474 H 0.33286 0.00195 0.56925 0.0
H475 H 0.23965 0.92299 0.56125 0.0
H476 H 0.16407 0.88715 0.589 0.0
H477 H 0.18097 0.93074 0.62477 0.0
C478 C 0.23554 0.99863 0.65656 0.0
C479 C 0.27956 0.02098 0.63915 0.0
C480 C 0.2693 0.99408 0.61857 0.0
C481 C 0.31357 0.01316 0.60291 0.0
C482 C 0.30149 0.98733 0.5821 0.0
C483 C 0.24804 0.94237 0.57723 0.0
C484 C 0.20544 0.92232 0.59283 0.0
C485 C 0.21568 0.94774 0.61328 0.0
H486 H 0.39971 0.98657 0.59432 0.0
C487 C 0.43045 0.02906 0.58895 0.0
H488 H 0.44271 0.11348 0.5872 0.0
H489 H 0.31141 0.08628 0.67595 0.0
H490 H 0.40341 0.16765 0.68331 0.0
H491 H 0.48016 0.20049 0.65623 0.0
H492 H 0.46527 0.15223 0.62172 0.0
C493 C 0.41741 0.07087 0.59376 0.0
C494 C 0.36854 0.05765 0.6082 0.0
C495 C 0.37753 0.08741 0.62808 0.0
C496 C 0.33318 0.06866 0.64365 0.0
C497 C 0.34366 0.09843 0.66359 0.0
C498 C 0.39624 0.14534 0.66801 0.0
C499 C 0.43944 0.16379 0.65278 0.0
C500 C 0.43043 0.13537 0.63305 0.0
H501 H 0.3503 0.2103 0.99965 0.0
C502 C 0.31083 0.20843 0.0026 0.0
H503 H 0.26307 0.24631 0.99587 0.0
H504 H 0.52113 0.46043 0.97544 0.0
H505 H 0.52949 0.4683 0.01488 0.0
H506 H 0.45414 0.3974 0.03886 0.0
H507 H 0.37003 0.31792 0.02351 0.0
C508 C 0.30346 0.24938 0.9944 0.0
C509 C 0.34702 0.29473 0.98013 0.0
C510 C 0.39538 0.34135 0.98935 0.0
C511 C 0.43843 0.38266 0.97551 0.0
C512 C 0.48687 0.42814 0.98515 0.0
C513 C 0.49223 0.43315 0.00778 0.0
C514 C 0.44983 0.39319 0.02129 0.0
C515 C 0.40187 0.34773 0.01228 0.0
H516 H 0.45886 0.48087 0.93909 0.0
C517 C 0.49011 0.47158 0.93329 0.0
H518 H 0.50229 0.40043 0.92939 0.0
H519 H 0.25815 0.21229 0.95719 0.0
H520 H 0.24892 0.20551 0.91772 0.0
H521 H 0.32352 0.27733 0.89374 0.0
H522 H 0.40787 0.35646 0.90909 0.0
C523 C 0.4798 0.41714 0.93798 0.0
C524 C 0.43279 0.37728 0.95249 0.0
C525 C 0.3837 0.3316 0.94327 0.0
C526 C 0.34061 0.2904 0.95711 0.0
C527 C 0.29213 0.24493 0.94745 0.0
C528 C 0.28629 0.24051 0.92482 0.0
C529 C 0.32831 0.28092 0.91131 0.0
C530 C 0.37655 0.32603 0.92033 0.0
H531 H 0.02448 0.24287 0.34201 0.0
C532 C 0.06548 0.25451 0.33548 0.0
H533 H 0.12837 0.30368 0.31213 0.0
H534 H 0.97059 0.32944 0.24673 0.0
H535 H 0.97125 0.24973 0.23023 0.0
H536 H 0.0116 0.20074 0.24974 0.0
H537 H 0.05116 0.23089 0.2859 0.0
C538 C 0.08879 0.29385 0.31958 0.0
C539 C 0.05832 0.31897 0.30924 0.0
C540 C 0.03551 0.30087 0.28812 0.0
C541 C 0.01306 0.3296 0.27673 0.0
C542 C 0.98959 0.31001 0.25582 0.0
C543 C 0.98932 0.26408 0.24624 0.0
C544 C 0.01198 0.23647 0.25724 0.0
C545 C 0.03474 0.25435 0.27795 0.0
H546 H 0.07695 0.44083 0.25388 0.0
C547 C 0.04028 0.44498 0.25528 0.0
H548 H 0.97239 0.42503 0.27793 0.0
H549 H 0.09402 0.36092 0.35027 0.0
H550 H 0.09083 0.43884 0.36712 0.0
H551 H 0.05272 0.48936 0.34722 0.0
H552 H 0.01744 0.46225 0.31037 0.0
C553 C 0.00333 0.41488 0.27252 0.0
C554 C 0.01468 0.37724 0.28626 0.0
C555 C 0.03373 0.39275 0.30801 0.0
C556 C 0.05572 0.36359 0.31951 0.0
C557 C 0.07644 0.38127 0.34089 0.0
C558 C 0.07498 0.42601 0.35073 0.0
C559 C 0.05353 0.45447 0.33952 0.0
C560 C 0.03336 0.43843 0.31837 0.0
loop_
_geom_bond_atom_site_label_1
_geom_bond_atom_site_label_2
_geom_bond_distance
_geom_bond_site_symmetry_2
_ccdc_geom_bond_type
Zn0 O3 2.031 1_545 S
Zn0 O5 2.049 1_554 S
Zn0 O10 2.067 1_554 S
Zn1 O2 1.962 . S
Zn1 O4 1.986 . S
Zn1 O6 1.996 . S
Zn1 O9 1.943 . S
O2 Zn1 1.962 . S
O2 C7 1.254 . S
O3 Zn0 2.031 1_565 S
O3 C7 1.269 1_565 S
O4 Zn1 1.986 . S
O4 C11 1.262 . S
O5 Zn0 2.049 1_556 S
O5 C13 1.260 1_556 S
O6 Zn1 1.996 . S
O6 C13 1.257 . S
C7 O2 1.254 . S
C7 O3 1.269 1_545 S
C8 O9 1.249 . S
C8 O10 1.270 1_554 S
O9 Zn1 1.943 . S
O9 C8 1.249 . S
O10 Zn0 2.067 1_556 S
O10 C8 1.270 1_556 S
C11 O4 1.262 . S
C11 O12 1.232 . S
O12 C11 1.232 . S
C13 O5 1.260 1_554 S
C13 O6 1.257 . S
Zn14 O17 2.031 . S
Zn14 O19 2.049 . S
Zn14 O24 2.067 . S
Zn15 O16 1.962 . S
Zn15 O18 1.986 1_455 S
Zn15 O20 1.996 . S
Zn15 O23 1.943 . S
O16 Zn15 1.962 . S
O16 C21 1.254 . S
O17 Zn14 2.031 . S
O17 C21 1.269 . S
O18 Zn15 1.986 1_655 S
O18 C25 1.262 . S
O19 Zn14 2.049 . S
O19 C27 1.260 . S
O20 Zn15 1.996 . S
O20 C27 1.257 . S
C21 O16 1.254 . S
C21 O17 1.269 . S
C22 O23 1.249 . S
C22 O24 1.270 . S
O23 Zn15 1.943 . S
O23 C22 1.249 . S
O24 Zn14 2.067 . S
O24 C22 1.270 . S
C25 O18 1.262 . S
C25 O26 1.232 . S
O26 C25 1.232 . S
C27 O19 1.260 . S
C27 O20 1.257 . S
Zn28 O31 2.031 1_565 S
Zn28 O33 2.049 . S
Zn28 O38 2.067 1_565 S
Zn29 O30 1.962 . S
Zn29 O32 1.986 1_455 S
Zn29 O34 1.996 1_545 S
Zn29 O37 1.943 . S
O30 Zn29 1.962 . S
O30 C35 1.254 . S
O31 Zn28 2.031 1_545 S
O31 C35 1.269 . S
O32 Zn29 1.986 1_655 S
O32 C39 1.262 . S
O33 Zn28 2.049 . S
O33 C41 1.260 . S
O34 Zn29 1.996 1_565 S
O34 C41 1.257 . S
C35 O30 1.254 . S
C35 O31 1.269 . S
C36 O37 1.249 . S
C36 O38 1.270 . S
O37 Zn29 1.943 . S
O37 C36 1.249 . S
O38 Zn28 2.067 1_545 S
O38 C36 1.270 . S
C39 O32 1.262 . S
C39 O40 1.232 1_655 S
O40 C39 1.232 1_455 S
C41 O33 1.260 . S
C41 O34 1.257 . S
C42 C43 1.443 . S
C42 N46 1.376 . S
C42 C80 1.389 . S
C43 C42 1.443 . S
C43 C44 1.340 . S
C43 H83 0.951 . S
C44 C43 1.340 . S
C44 C45 1.439 . S
C44 H84 0.950 . S
C45 C44 1.439 . S
C45 N46 1.374 . S
C45 C79 1.395 . S
N46 C42 1.376 . S
N46 C45 1.374 . S
N46 Co47 2.008 . S
Co47 N46 2.008 . S
Co47 N48 1.995 . S
Co47 N53 2.008 1_455 S
Co47 N58 1.995 . S
Co47 N63 2.282 . S
Co47 N69 2.282 . S
N48 Co47 1.995 . S
N48 C49 1.376 . S
N48 C52 1.383 . S
C49 N48 1.376 . S
C49 C50 1.446 . S
C49 C79 1.391 . S
C50 C49 1.446 . S
C50 C51 1.339 . S
C50 H85 0.949 . S
C51 C50 1.339 . S
C51 C52 1.439 . S
C51 H86 0.950 . S
C52 N48 1.383 . S
C52 C51 1.439 . S
C52 C81 1.392 . S
N53 Co47 2.008 1_655 S
N53 C54 1.376 1_655 S
N53 C57 1.374 . S
C54 N53 1.376 1_455 S
C54 C55 1.443 1_455 S
C54 C81 1.389 . S
C55 C54 1.443 1_655 S
C55 C56 1.340 . S
C55 H87 0.951 . S
C56 C55 1.340 . S
C56 C57 1.439 . S
C56 H88 0.950 . S
C57 N53 1.374 . S
C57 C56 1.439 . S
C57 C82 1.395 . S
N58 Co47 1.995 . S
N58 C59 1.376 1_455 S
N58 C62 1.383 . S
C59 N58 1.376 1_655 S
C59 C60 1.446 . S
C59 C82 1.391 . S
C60 C59 1.446 . S
C60 C61 1.339 . S
C60 H89 0.949 . S
C61 C60 1.339 . S
C61 C62 1.439 1_655 S
C61 H90 0.950 . S
C62 N58 1.383 . S
C62 C61 1.439 1_455 S
C62 C80 1.392 . S
N63 Co47 2.282 . S
N63 C66 1.332 . S
N63 C68 1.332 . S
C64 C65 1.386 . S
C64 C67 1.388 . S
C65 C64 1.386 . S
C65 C66 1.382 . S
C65 H91 0.950 1_455 S
C66 N63 1.332 . S
C66 C65 1.382 . S
C66 H77 0.952 1_455 S
C67 C64 1.388 . S
C67 C68 1.382 . S
C67 H92 0.950 . S
C68 N63 1.332 . S
C68 C67 1.382 . S
C68 H78 0.948 . S
N69 Co47 2.282 . S
N69 C73 1.332 . S
N69 C74 1.332 . S
C70 C71 1.388 . S
C70 C74 1.382 . S
C70 H93 0.950 1_455 S
C71 C70 1.388 . S
C71 C72 1.386 . S
C72 C71 1.386 . S
C72 C73 1.382 . S
C72 H94 0.950 . S
C73 N69 1.332 . S
C73 C72 1.382 . S
C73 H75 0.952 . S
C74 N69 1.332 . S
C74 C70 1.382 . S
C74 H76 0.948 1_455 S
H75 C73 0.952 . S
H76 C74 0.948 1_655 S
H77 C66 0.952 1_655 S
H78 C68 0.948 . S
C79 C45 1.395 . S
C79 C49 1.391 . S
C80 C42 1.389 . S
C80 C62 1.392 . S
C81 C52 1.392 . S
C81 C54 1.389 . S
C82 C57 1.395 . S
C82 C59 1.391 . S
H83 C43 0.951 . S
H84 C44 0.950 . S
H85 C50 0.949 . S
H86 C51 0.950 . S
H87 C55 0.951 . S
H88 C56 0.950 . S
H89 C60 0.949 . S
H90 C61 0.950 . S
H91 C65 0.950 1_655 S
H92 C67 0.950 . S
H93 C70 0.950 1_655 S
H94 C72 0.950 . S
C95 C96 1.443 1_545 S
C95 N99 1.376 . S
C95 C133 1.389 . S
C96 C95 1.443 1_565 S
C96 C97 1.340 . S
C96 H136 0.951 . S
C97 C96 1.340 . S
C97 C98 1.439 . S
C97 H137 0.950 . S
C98 C97 1.439 . S
C98 N99 1.374 1_565 S
C98 C132 1.395 . S
N99 C95 1.376 . S
N99 C98 1.374 1_545 S
N99 Co100 2.008 . S
Co100 N99 2.008 . S
Co100 N101 1.995 . S
Co100 N106 2.008 . S
Co100 N111 1.995 . S
Co100 N116 2.282 . S
Co100 N122 2.282 . S
N101 Co100 1.995 . S
N101 C102 1.376 1_545 S
N101 C105 1.383 . S
C102 N101 1.376 1_565 S
C102 C103 1.446 . S
C102 C132 1.391 . S
C103 C102 1.446 . S
C103 C104 1.339 . S
C103 H138 0.949 . S
C104 C103 1.339 . S
C104 C105 1.439 1_565 S
C104 H139 0.950 . S
C105 N101 1.383 . S
C105 C104 1.439 1_545 S
C105 C134 1.392 . S
N106 Co100 2.008 . S
N106 C107 1.376 . S
N106 C110 1.374 . S
C107 N106 1.376 . S
C107 C108 1.443 . S
C107 C134 1.389 . S
C108 C107 1.443 . S
C108 C109 1.340 . S
C108 H140 0.951 . S
C109 C108 1.340 . S
C109 C110 1.439 . S
C109 H141 0.950 . S
C110 N106 1.374 . S
C110 C109 1.439 . S
C110 C135 1.395 . S
N111 Co100 1.995 . S
N111 C112 1.376 . S
N111 C115 1.383 . S
C112 N111 1.376 . S
C112 C113 1.446 . S
C112 C135 1.391 . S
C113 C112 1.446 . S
C113 C114 1.339 . S
C113 H142 0.949 . S
C114 C113 1.339 . S
C114 C115 1.439 . S
C114 H143 0.950 . S
C115 N111 1.383 . S
C115 C114 1.439 . S
C115 C133 1.392 . S
N116 Co100 2.282 . S
N116 C119 1.332 . S
N116 C121 1.332 . S
C117 C118 1.386 . S
C117 C120 1.388 . S
C118 C117 1.386 . S
C118 C119 1.382 . S
C118 H144 0.950 . S
C119 N116 1.332 . S
C119 C118 1.382 . S
C119 H130 0.952 . S
C120 C117 1.388 . S
C120 C121 1.382 . S
C120 H145 0.950 1_545 S
C121 N116 1.332 . S
C121 C120 1.382 . S
C121 H131 0.948 . S
N122 Co100 2.282 . S
N122 C126 1.332 . S
N122 C127 1.332 . S
C123 C124 1.388 . S
C123 C127 1.382 . S
C123 H146 0.950 . S
C124 C123 1.388 . S
C124 C125 1.386 . S
C125 C124 1.386 . S
C125 C126 1.382 . S
C125 H147 0.950 . S
C126 N122 1.332 . S
C126 C125 1.382 . S
C126 H128 0.952 . S
C127 N122 1.332 . S
C127 C123 1.382 . S
C127 H129 0.948 . S
H128 C126 0.952 . S
H129 C127 0.948 . S
H130 C119 0.952 . S
H131 C121 0.948 . S
C132 C98 1.395 . S
C132 C102 1.391 . S
C133 C95 1.389 . S
C133 C115 1.392 . S
C134 C105 1.392 . S
C134 C107 1.389 . S
C135 C110 1.395 . S
C135 C112 1.391 . S
H136 C96 0.951 . S
H137 C97 0.950 . S
H138 C103 0.949 . S
H139 C104 0.950 . S
H140 C108 0.951 . S
H141 C109 0.950 . S
H142 C113 0.949 . S
H143 C114 0.950 . S
H144 C118 0.950 . S
H145 C120 0.950 1_565 S
H146 C123 0.950 . S
H147 C125 0.950 . S
C148 C149 1.443 . S
C148 N152 1.376 . S
C148 C186 1.389 . S
C149 C148 1.443 . S
C149 C150 1.340 . S
C149 H189 0.951 . S
C150 C149 1.340 . S
C150 C151 1.439 . S
C150 H190 0.950 . S
C151 C150 1.439 . S
C151 N152 1.374 . S
C151 C185 1.395 . S
N152 C148 1.376 . S
N152 C151 1.374 . S
N152 Co153 2.008 . S
Co153 N152 2.008 . S
Co153 N154 1.995 . S
Co153 N159 2.008 . S
Co153 N164 1.995 . S
Co153 N169 2.282 . S
Co153 N175 2.282 . S
N154 Co153 1.995 . S
N154 C155 1.376 . S
N154 C158 1.383 . S
C155 N154 1.376 . S
C155 C156 1.446 . S
C155 C185 1.391 . S
C156 C155 1.446 . S
C156 C157 1.339 . S
C156 H191 0.949 . S
C157 C156 1.339 . S
C157 C158 1.439 . S
C157 H192 0.950 . S
C158 N154 1.383 . S
C158 C157 1.439 . S
C158 C187 1.392 . S
N159 Co153 2.008 . S
N159 C160 1.376 . S
N159 C163 1.374 . S
C160 N159 1.376 . S
C160 C161 1.443 . S
C160 C187 1.389 . S
C161 C160 1.443 . S
C161 C162 1.340 . S
C161 H193 0.951 . S
C162 C161 1.340 . S
C162 C163 1.439 . S
C162 H194 0.950 . S
C163 N159 1.374 . S
C163 C162 1.439 . S
C163 C188 1.395 . S
N164 Co153 1.995 . S
N164 C165 1.376 . S
N164 C168 1.383 . S
C165 N164 1.376 . S
C165 C166 1.446 . S
C165 C188 1.391 . S
C166 C165 1.446 . S
C166 C167 1.339 . S
C166 H195 0.949 . S
C167 C166 1.339 . S
C167 C168 1.439 . S
C167 H196 0.950 . S
C168 N164 1.383 . S
C168 C167 1.439 . S
C168 C186 1.392 . S
N169 Co153 2.282 . S
N169 C172 1.332 . S
N169 C174 1.332 . S
C170 C171 1.386 . S
C170 C173 1.388 . S
C171 C170 1.386 . S
C171 C172 1.382 . S
C171 H197 0.950 . S
C172 N169 1.332 . S
C172 C171 1.382 . S
C172 H183 0.952 . S
C173 C170 1.388 . S
C173 C174 1.382 . S
C173 H198 0.950 . S
C174 N169 1.332 . S
C174 C173 1.382 . S
C174 H184 0.948 . S
N175 Co153 2.282 . S
N175 C179 1.332 . S
N175 C180 1.332 . S
C176 C177 1.388 . S
C176 C180 1.382 . S
C176 H199 0.950 . S
C177 C176 1.388 . S
C177 C178 1.386 . S
C178 C177 1.386 . S
C178 C179 1.382 . S
C178 H200 0.950 . S
C179 N175 1.332 . S
C179 C178 1.382 . S
C179 H181 0.952 . S
C180 N175 1.332 . S
C180 C176 1.382 . S
C180 H182 0.948 . S
H181 C179 0.952 . S
H182 C180 0.948 . S
H183 C172 0.952 . S
H184 C174 0.948 . S
C185 C151 1.395 . S
C185 C155 1.391 . S
C186 C148 1.389 . S
C186 C168 1.392 . S
C187 C158 1.392 . S
C187 C160 1.389 . S
C188 C163 1.395 . S
C188 C165 1.391 . S
H189 C149 0.951 . S
H190 C150 0.950 . S
H191 C156 0.949 . S
H192 C157 0.950 . S
H193 C161 0.951 . S
H194 C162 0.950 . S
H195 C166 0.949 . S
H196 C167 0.950 . S
H197 C171 0.950 . S
H198 C173 0.950 . S
H199 C176 0.950 . S
H200 C178 0.950 . S
H201 C202 0.951 . S
C202 H201 0.951 . S
C202 C208 1.265 . S
H203 C208 0.950 . S
H204 C212 0.949 . S
H205 C213 0.950 . S
H206 C214 0.951 . S
H207 C215 0.951 . S
C208 C202 1.265 . S
C208 H203 0.950 . S
C208 C209 1.478 . S
C209 C208 1.478 . S
C209 C210 1.397 . S
C209 C226 1.394 . S
C210 C209 1.397 . S
C210 C211 1.438 . S
C210 C215 1.429 . S
C211 C210 1.438 . S
C211 C212 1.428 . S
C211 C224 1.394 . S
C212 H204 0.949 . S
C212 C211 1.428 . S
C212 C213 1.345 . S
C213 H205 0.950 . S
C213 C212 1.345 . S
C213 C214 1.424 . S
C214 H206 0.951 . S
C214 C213 1.424 . S
C214 C215 1.347 . S
C215 H207 0.951 . S
C215 C210 1.429 . S
C215 C214 1.347 . S
H216 C217 0.951 . S
C217 H216 0.951 . S
C217 C223 1.265 . S
H218 C223 0.950 . S
H219 C227 0.949 . S
H220 C228 0.950 . S
H221 C229 0.951 . S
H222 C230 0.951 . S
C223 C217 1.265 . S
C223 H218 0.950 . S
C223 C224 1.478 . S
C224 C211 1.394 . S
C224 C223 1.478 . S
C224 C225 1.397 . S
C225 C224 1.397 . S
C225 C226 1.438 . S
C225 C230 1.429 . S
C226 C209 1.394 . S
C226 C225 1.438 . S
C226 C227 1.428 . S
C227 H219 0.949 . S
C227 C226 1.428 . S
C227 C228 1.345 . S
C228 H220 0.950 . S
C228 C227 1.345 . S
C228 C229 1.424 . S
C229 H221 0.951 . S
C229 C228 1.424 . S
C229 C230 1.347 . S
C230 H222 0.951 . S
C230 C225 1.429 . S
C230 C229 1.347 . S
H231 C232 0.951 . S
C232 H231 0.951 . S
C232 C238 1.265 . S
H233 C238 0.950 . S
H234 C242 0.949 . S
H235 C243 0.950 . S
H236 C244 0.951 . S
H237 C245 0.951 . S
C238 C232 1.265 . S
C238 H233 0.950 . S
C238 C239 1.478 . S
C239 C238 1.478 . S
C239 C240 1.397 . S
C239 C256 1.394 . S
C240 C239 1.397 . S
C240 C241 1.438 . S
C240 C245 1.429 . S
C241 C240 1.438 . S
C241 C242 1.428 . S
C241 C254 1.394 . S
C242 H234 0.949 . S
C242 C241 1.428 . S
C242 C243 1.345 . S
C243 H235 0.950 . S
C243 C242 1.345 . S
C243 C244 1.424 . S
C244 H236 0.951 . S
C244 C243 1.424 . S
C244 C245 1.347 . S
C245 H237 0.951 . S
C245 C240 1.429 . S
C245 C244 1.347 . S
H246 C247 0.951 . S
C247 H246 0.951 . S
C247 C253 1.265 . S
H248 C253 0.950 . S
H249 C257 0.949 . S
H250 C258 0.950 . S
H251 C259 0.951 . S
H252 C260 0.951 . S
C253 C247 1.265 . S
C253 H248 0.950 . S
C253 C254 1.478 . S
C254 C241 1.394 . S
C254 C253 1.478 . S
C254 C255 1.397 . S
C255 C254 1.397 . S
C255 C256 1.438 . S
C255 C260 1.429 . S
C256 C239 1.394 . S
C256 C255 1.438 . S
C256 C257 1.428 1_545 S
C257 H249 0.949 . S
C257 C256 1.428 1_565 S
C257 C258 1.345 . S
C258 H250 0.950 . S
C258 C257 1.345 . S
C258 C259 1.424 . S
C259 H251 0.951 . S
C259 C258 1.424 . S
C259 C260 1.347 1_565 S
C260 H252 0.951 . S
C260 C255 1.429 . S
C260 C259 1.347 1_545 S
H261 C262 0.951 . S
C262 H261 0.951 . S
C262 C268 1.265 . S
H263 C268 0.950 . S
H264 C272 0.949 . S
H265 C273 0.950 . S
H266 C274 0.951 1_455 S
H267 C275 0.951 1_455 S
C268 C262 1.265 . S
C268 H263 0.950 . S
C268 C269 1.478 . S
C269 C268 1.478 . S
C269 C270 1.397 . S
C269 C286 1.394 . S
C270 C269 1.397 . S
C270 C271 1.438 . S
C270 C275 1.429 . S
C271 C270 1.438 . S
C271 C272 1.428 . S
C271 C284 1.394 . S
C272 H264 0.949 . S
C272 C271 1.428 . S
C272 C273 1.345 . S
C273 H265 0.950 . S
C273 C272 1.345 . S
C273 C274 1.424 . S
C274 H266 0.951 1_655 S
C274 C273 1.424 . S
C274 C275 1.347 . S
C275 H267 0.951 1_655 S
C275 C270 1.429 . S
C275 C274 1.347 . S
H276 C277 0.951 . S
C277 H276 0.951 . S
C277 C283 1.265 . S
H278 C283 0.950 . S
H279 C287 0.949 . S
H280 C288 0.950 . S
H281 C289 0.951 . S
H282 C290 0.951 . S
C283 C277 1.265 . S
C283 H278 0.950 . S
C283 C284 1.478 . S
C284 C271 1.394 . S
C284 C283 1.478 . S
C284 C285 1.397 . S
C285 C284 1.397 . S
C285 C286 1.438 . S
C285 C290 1.429 . S
C286 C269 1.394 . S
C286 C285 1.438 . S
C286 C287 1.428 . S
C287 H279 0.949 . S
C287 C286 1.428 . S
C287 C288 1.345 . S
C288 H280 0.950 . S
C288 C287 1.345 . S
C288 C289 1.424 . S
C289 H281 0.951 . S
C289 C288 1.424 . S
C289 C290 1.347 . S
C290 H282 0.951 . S
C290 C285 1.429 . S
C290 C289 1.347 . S
H291 C292 0.951 . S
C292 H291 0.951 . S
C292 C298 1.265 . S
H293 C298 0.950 . S
H294 C302 0.949 . S
H295 C303 0.950 . S
H296 C304 0.951 1_545 S
H297 C305 0.951 . S
C298 C292 1.265 . S
C298 H293 0.950 . S
C298 C299 1.478 . S
C299 C298 1.478 . S
C299 C300 1.397 . S
C299 C316 1.394 . S
C300 C299 1.397 . S
C300 C301 1.438 . S
C300 C305 1.429 . S
C301 C300 1.438 . S
C301 C302 1.428 . S
C301 C314 1.394 . S
C302 H294 0.949 . S
C302 C301 1.428 . S
C302 C303 1.345 . S
C303 H295 0.950 . S
C303 C302 1.345 . S
C303 C304 1.424 . S
C304 H296 0.951 1_565 S
C304 C303 1.424 . S
C304 C305 1.347 . S
C305 H297 0.951 . S
C305 C300 1.429 . S
C305 C304 1.347 . S
H306 C307 0.951 . S
C307 H306 0.951 . S
C307 C313 1.265 . S
H308 C313 0.950 . S
H309 C317 0.949 . S
H310 C318 0.950 . S
H311 C319 0.951 . S
H312 C320 0.951 . S
C313 C307 1.265 . S
C313 H308 0.950 . S
C313 C314 1.478 . S
C314 C301 1.394 . S
C314 C313 1.478 . S
C314 C315 1.397 . S
C315 C314 1.397 . S
C315 C316 1.438 . S
C315 C320 1.429 . S
C316 C299 1.394 . S
C316 C315 1.438 . S
C316 C317 1.428 . S
C317 H309 0.949 . S
C317 C316 1.428 . S
C317 C318 1.345 . S
C318 H310 0.950 . S
C318 C317 1.345 . S
C318 C319 1.424 . S
C319 H311 0.951 . S
C319 C318 1.424 . S
C319 C320 1.347 . S
C320 H312 0.951 . S
C320 C315 1.429 . S
C320 C319 1.347 . S
H321 C322 0.951 . S
C322 H321 0.951 . S
C322 C328 1.265 . S
H323 C328 0.950 . S
H324 C332 0.949 . S
H325 C333 0.950 . S
H326 C334 0.951 1_565 S
H327 C335 0.951 . S
C328 C322 1.265 . S
C328 H323 0.950 . S
C328 C329 1.478 . S
C329 C328 1.478 . S
C329 C330 1.397 . S
C329 C346 1.394 . S
C330 C329 1.397 . S
C330 C331 1.438 . S
C330 C335 1.429 . S
C331 C330 1.438 . S
C331 C332 1.428 . S
C331 C344 1.394 . S
C332 H324 0.949 . S
C332 C331 1.428 . S
C332 C333 1.345 1_545 S
C333 H325 0.950 . S
C333 C332 1.345 1_565 S
C333 C334 1.424 1_565 S
C334 H326 0.951 1_545 S
C334 C333 1.424 1_545 S
C334 C335 1.347 . S
C335 H327 0.951 . S
C335 C330 1.429 . S
C335 C334 1.347 . S
H336 C337 0.951 . S
C337 H336 0.951 . S
C337 C343 1.265 . S
H338 C343 0.950 . S
H339 C347 0.949 . S
H340 C348 0.950 . S
H341 C349 0.951 . S
H342 C350 0.951 . S
C343 C337 1.265 . S
C343 H338 0.950 . S
C343 C344 1.478 . S
C344 C331 1.394 . S
C344 C343 1.478 . S
C344 C345 1.397 . S
C345 C344 1.397 . S
C345 C346 1.438 . S
C345 C350 1.429 . S
C346 C329 1.394 . S
C346 C345 1.438 . S
C346 C347 1.428 . S
C347 H339 0.949 . S
C347 C346 1.428 . S
C347 C348 1.345 . S
C348 H340 0.950 . S
C348 C347 1.345 . S
C348 C349 1.424 . S
C349 H341 0.951 . S
C349 C348 1.424 . S
C349 C350 1.347 . S
C350 H342 0.951 . S
C350 C345 1.429 . S
C350 C349 1.347 . S
H351 C352 0.951 . S
C352 H351 0.951 . S
C352 C358 1.265 . S
H353 C358 0.950 . S
H354 C362 0.949 . S
H355 C363 0.950 . S
H356 C364 0.951 . S
H357 C365 0.951 . S
C358 C352 1.265 . S
C358 H353 0.950 . S
C358 C359 1.478 . S
C359 C358 1.478 . S
C359 C360 1.397 . S
C359 C376 1.394 . S
C360 C359 1.397 . S
C360 C361 1.438 . S
C360 C365 1.429 . S
C361 C360 1.438 . S
C361 C362 1.428 . S
C361 C374 1.394 . S
C362 H354 0.949 . S
C362 C361 1.428 . S
C362 C363 1.345 . S
C363 H355 0.950 . S
C363 C362 1.345 . S
C363 C364 1.424 . S
C364 H356 0.951 . S
C364 C363 1.424 . S
C364 C365 1.347 . S
C365 H357 0.951 . S
C365 C360 1.429 . S
C365 C364 1.347 . S
H366 C367 0.951 . S
C367 H366 0.951 . S
C367 C373 1.265 . S
H368 C373 0.950 . S
H369 C377 0.949 . S
H370 C378 0.950 . S
H371 C379 0.951 . S
H372 C380 0.951 . S
C373 C367 1.265 . S
C373 H368 0.950 . S
C373 C374 1.478 . S
C374 C361 1.394 . S
C374 C373 1.478 . S
C374 C375 1.397 . S
C375 C374 1.397 . S
C375 C376 1.438 . S
C375 C380 1.429 . S
C376 C359 1.394 . S
C376 C375 1.438 . S
C376 C377 1.428 . S
C377 H369 0.949 . S
C377 C376 1.428 . S
C377 C378 1.345 . S
C378 H370 0.950 . S
C378 C377 1.345 . S
C378 C379 1.424 . S
C379 H371 0.951 . S
C379 C378 1.424 . S
C379 C380 1.347 . S
C380 H372 0.951 . S
C380 C375 1.429 . S
C380 C379 1.347 . S
H381 C382 0.951 . S
C382 H381 0.951 . S
C382 C388 1.265 . S
H383 C388 0.950 . S
H384 C392 0.949 . S
H385 C393 0.950 . S
H386 C394 0.951 . S
H387 C395 0.951 . S
C388 C382 1.265 . S
C388 H383 0.950 . S
C388 C389 1.478 . S
C389 C388 1.478 . S
C389 C390 1.397 . S
C389 C406 1.394 . S
C390 C389 1.397 . S
C390 C391 1.438 . S
C390 C395 1.429 1_545 S
C391 C390 1.438 . S
C391 C392 1.428 1_545 S
C391 C404 1.394 . S
C392 H384 0.949 . S
C392 C391 1.428 1_565 S
C392 C393 1.345 . S
C393 H385 0.950 . S
C393 C392 1.345 . S
C393 C394 1.424 . S
C394 H386 0.951 . S
C394 C393 1.424 . S
C394 C395 1.347 . S
C395 H387 0.951 . S
C395 C390 1.429 1_565 S
C395 C394 1.347 . S
H396 C397 0.951 . S
C397 H396 0.951 . S
C397 C403 1.265 . S
H398 C403 0.950 . S
H399 C407 0.949 . S
H400 C408 0.950 . S
H401 C409 0.951 . S
H402 C410 0.951 . S
C403 C397 1.265 . S
C403 H398 0.950 . S
C403 C404 1.478 . S
C404 C391 1.394 . S
C404 C403 1.478 . S
C404 C405 1.397 . S
C405 C404 1.397 . S
C405 C406 1.438 . S
C405 C410 1.429 . S
C406 C389 1.394 . S
C406 C405 1.438 . S
C406 C407 1.428 . S
C407 H399 0.949 . S
C407 C406 1.428 . S
C407 C408 1.345 . S
C408 H400 0.950 . S
C408 C407 1.345 . S
C408 C409 1.424 . S
C409 H401 0.951 . S
C409 C408 1.424 . S
C409 C410 1.347 . S
C410 H402 0.951 . S
C410 C405 1.429 . S
C410 C409 1.347 . S
H411 C412 0.951 . S
C412 H411 0.951 . S
C412 C418 1.265 1_454 S
H413 C418 0.950 . S
H414 C422 0.949 . S
H415 C423 0.950 1_455 S
H416 C424 0.951 . S
H417 C425 0.951 . S
C418 C412 1.265 1_656 S
C418 H413 0.950 . S
C418 C419 1.478 . S
C419 C418 1.478 . S
C419 C420 1.397 . S
C419 C436 1.394 . S
C420 C419 1.397 . S
C420 C421 1.438 . S
C420 C425 1.429 1_655 S
C421 C420 1.438 . S
C421 C422 1.428 . S
C421 C434 1.394 . S
C422 H414 0.949 . S
C422 C421 1.428 . S
C422 C423 1.345 . S
C423 H415 0.950 1_655 S
C423 C422 1.345 . S
C423 C424 1.424 1_655 S
C424 H416 0.951 . S
C424 C423 1.424 1_455 S
C424 C425 1.347 . S
C425 H417 0.951 . S
C425 C420 1.429 1_455 S
C425 C424 1.347 . S
H426 C427 0.951 . S
C427 H426 0.951 . S
C427 C433 1.265 . S
H428 C433 0.950 . S
H429 C437 0.949 . S
H430 C438 0.950 . S
H431 C439 0.951 . S
H432 C440 0.951 . S
C433 C427 1.265 . S
C433 H428 0.950 . S
C433 C434 1.478 . S
C434 C421 1.394 . S
C434 C433 1.478 . S
C434 C435 1.397 . S
C435 C434 1.397 . S
C435 C436 1.438 . S
C435 C440 1.429 . S
C436 C419 1.394 . S
C436 C435 1.438 . S
C436 C437 1.428 1_556 S
C437 H429 0.949 . S
C437 C436 1.428 1_554 S
C437 C438 1.345 . S
C438 H430 0.950 . S
C438 C437 1.345 . S
C438 C439 1.424 . S
C439 H431 0.951 . S
C439 C438 1.424 . S
C439 C440 1.347 1_554 S
C440 H432 0.951 . S
C440 C435 1.429 . S
C440 C439 1.347 1_556 S
H441 C442 0.951 1_545 S
C442 H441 0.951 1_565 S
C442 C448 1.265 . S
H443 C448 0.950 1_655 S
H444 C452 0.949 . S
H445 C453 0.950 . S
H446 C454 0.951 . S
H447 C455 0.951 . S
C448 C442 1.265 . S
C448 H443 0.950 1_455 S
C448 C449 1.478 . S
C449 C448 1.478 . S
C449 C450 1.397 . S
C449 C466 1.394 . S
C450 C449 1.397 . S
C450 C451 1.438 . S
C450 C455 1.429 . S
C451 C450 1.438 . S
C451 C452 1.428 . S
C451 C464 1.394 . S
C452 H444 0.949 . S
C452 C451 1.428 . S
C452 C453 1.345 . S
C453 H445 0.950 . S
C453 C452 1.345 . S
C453 C454 1.424 . S
C454 H446 0.951 . S
C454 C453 1.424 . S
C454 C455 1.347 . S
C455 H447 0.951 . S
C455 C450 1.429 . S
C455 C454 1.347 . S
H456 C457 0.951 . S
C457 H456 0.951 . S
C457 C463 1.265 . S
H458 C463 0.950 . S
H459 C467 0.949 . S
H460 C468 0.950 . S
H461 C469 0.951 . S
H462 C470 0.951 . S
C463 C457 1.265 . S
C463 H458 0.950 . S
C463 C464 1.478 . S
C464 C451 1.394 . S
C464 C463 1.478 . S
C464 C465 1.397 . S
C465 C464 1.397 . S
C465 C466 1.438 . S
C465 C470 1.429 . S
C466 C449 1.394 . S
C466 C465 1.438 . S
C466 C467 1.428 . S
C467 H459 0.949 . S
C467 C466 1.428 . S
C467 C468 1.345 . S
C468 H460 0.950 . S
C468 C467 1.345 . S
C468 C469 1.424 . S
C469 H461 0.951 . S
C469 C468 1.424 . S
C469 C470 1.347 . S
C470 H462 0.951 . S
C470 C465 1.429 . S
C470 C469 1.347 . S
H471 C472 0.951 . S
C472 H471 0.951 . S
C472 C478 1.265 . S
H473 C478 0.950 1_565 S
H474 C482 0.949 . S
H475 C483 0.950 . S
H476 C484 0.951 . S
H477 C485 0.951 . S
C478 C472 1.265 . S
C478 H473 0.950 1_545 S
C478 C479 1.478 . S
C479 C478 1.478 . S
C479 C480 1.397 1_545 S
C479 C496 1.394 . S
C480 C479 1.397 1_565 S
C480 C481 1.438 1_565 S
C480 C485 1.429 . S
C481 C480 1.438 1_545 S
C481 C482 1.428 1_545 S
C481 C494 1.394 . S
C482 H474 0.949 . S
C482 C481 1.428 1_565 S
C482 C483 1.345 . S
C483 H475 0.950 . S
C483 C482 1.345 . S
C483 C484 1.424 . S
C484 H476 0.951 . S
C484 C483 1.424 . S
C484 C485 1.347 . S
C485 H477 0.951 . S
C485 C480 1.429 . S
C485 C484 1.347 . S
H486 C487 0.951 . S
C487 H486 0.951 . S
C487 C493 1.265 . S
H488 C493 0.950 . S
H489 C497 0.949 . S
H490 C498 0.950 . S
H491 C499 0.951 . S
H492 C500 0.951 . S
C493 C487 1.265 . S
C493 H488 0.950 . S
C493 C494 1.478 . S
C494 C481 1.394 . S
C494 C493 1.478 . S
C494 C495 1.397 . S
C495 C494 1.397 . S
C495 C496 1.438 . S
C495 C500 1.429 . S
C496 C479 1.394 . S
C496 C495 1.438 . S
C496 C497 1.428 . S
C497 H489 0.949 . S
C497 C496 1.428 . S
C497 C498 1.345 . S
C498 H490 0.950 . S
C498 C497 1.345 . S
C498 C499 1.424 . S
C499 H491 0.951 . S
C499 C498 1.424 . S
C499 C500 1.347 . S
C500 H492 0.951 . S
C500 C495 1.429 . S
C500 C499 1.347 . S
H501 C502 0.951 . S
C502 H501 0.951 . S
C502 C508 1.265 . S
H503 C508 0.950 . S
H504 C512 0.949 . S
H505 C513 0.950 . S
H506 C514 0.951 . S
H507 C515 0.951 1_554 S
C508 C502 1.265 . S
C508 H503 0.950 . S
C508 C509 1.478 . S
C509 C508 1.478 . S
C509 C510 1.397 . S
C509 C526 1.394 . S
C510 C509 1.397 . S
C510 C511 1.438 . S
C510 C515 1.429 . S
C511 C510 1.438 . S
C511 C512 1.428 . S
C511 C524 1.394 . S
C512 H504 0.949 . S
C512 C511 1.428 . S
C512 C513 1.345 . S
C513 H505 0.950 . S
C513 C512 1.345 . S
C513 C514 1.424 1_556 S
C514 H506 0.951 . S
C514 C513 1.424 1_554 S
C514 C515 1.347 1_554 S
C515 H507 0.951 1_556 S
C515 C510 1.429 . S
C515 C514 1.347 1_556 S
H516 C517 0.951 . S
C517 H516 0.951 . S
C517 C523 1.265 . S
H518 C523 0.950 . S
H519 C527 0.949 . S
H520 C528 0.950 . S
H521 C529 0.951 . S
H522 C530 0.951 . S
C523 C517 1.265 . S
C523 H518 0.950 . S
C523 C524 1.478 . S
C524 C511 1.394 . S
C524 C523 1.478 . S
C524 C525 1.397 . S
C525 C524 1.397 . S
C525 C526 1.438 . S
C525 C530 1.429 . S
C526 C509 1.394 . S
C526 C525 1.438 . S
C526 C527 1.428 . S
C527 H519 0.949 . S
C527 C526 1.428 . S
C527 C528 1.345 . S
C528 H520 0.950 . S
C528 C527 1.345 . S
C528 C529 1.424 . S
C529 H521 0.951 . S
C529 C528 1.424 . S
C529 C530 1.347 . S
C530 H522 0.951 . S
C530 C525 1.429 . S
C530 C529 1.347 . S
H531 C532 0.951 . S
C532 H531 0.951 . S
C532 C538 1.265 . S
H533 C538 0.950 . S
H534 C542 0.949 . S
H535 C543 0.950 . S
H536 C544 0.951 . S
H537 C545 0.951 . S
C538 C532 1.265 . S
C538 H533 0.950 . S
C538 C539 1.478 . S
C539 C538 1.478 . S
C539 C540 1.397 . S
C539 C556 1.394 . S
C540 C539 1.397 . S
C540 C541 1.438 . S
C540 C545 1.429 . S
C541 C540 1.438 . S
C541 C542 1.428 . S
C541 C554 1.394 . S
C542 H534 0.949 . S
C542 C541 1.428 . S
C542 C543 1.345 . S
C543 H535 0.950 . S
C543 C542 1.345 . S
C543 C544 1.424 . S
C544 H536 0.951 . S
C544 C543 1.424 . S
C544 C545 1.347 . S
C545 H537 0.951 . S
C545 C540 1.429 . S
C545 C544 1.347 . S
H546 C547 0.951 . S
C547 H546 0.951 . S
C547 C553 1.265 . S
H548 C553 0.950 1_655 S
H549 C557 0.949 . S
H550 C558 0.950 . S
H551 C559 0.951 . S
H552 C560 0.951 . S
C553 C547 1.265 . S
C553 H548 0.950 1_455 S
C553 C554 1.478 . S
C554 C541 1.394 . S
C554 C553 1.478 . S
C554 C555 1.397 . S
C555 C554 1.397 . S
C555 C556 1.438 . S
C555 C560 1.429 . S
C556 C539 1.394 . S
C556 C555 1.438 . S
C556 C557 1.428 . S
C557 H549 0.949 . S
C557 C556 1.428 . S
C557 C558 1.345 . S
C558 H550 0.950 . S
C558 C557 1.345 . S
C558 C559 1.424 . S
C559 H551 0.951 . S
C559 C558 1.424 . S
C559 C560 1.347 . S
C560 H552 0.951 . S
C560 C555 1.429 . S
C560 C559 1.347 . S
C217 C64 1.336 . S
C202 C11 1.310 . S
C232 C25 1.399 . S
C247 C134 1.402 . S
C262 C41 1.402 1_655 S
C277 C186 1.425 . S
C292 C7 1.345 1_565 S
C307 C80 1.344 . S
C337 C124 1.423 . S
C322 C21 1.402 . S
C352 C36 1.421 . S
C367 C170 1.456 . S
C397 C117 1.395 . S
C382 C39 1.401 . S
C412 C8 1.387 1_565 S
C427 C177 1.434 . S
C457 C71 1.494 . S
C442 C22 1.419 1_565 S
C487 C133 1.404 . S
C472 C35 1.420 . S
C517 C187 1.415 . S
C502 C13 1.317 1_556 S
C532 C27 1.471 . S
C547 C81 1.469 . S
