# Generated by pormake.
# Topology gar, (4,6)-cn, num edge types: 1
# Building blocks:
#     Node 0, Type 0, BuildingBlock: GALJAG_clean_sbu_0, # of connection points: 4
#     Node 1, Type 0, BuildingBlock: GALJAG_clean_sbu_0, # of connection points: 4
#     Node 2, Type 0, BuildingBlock: GALJAG_clean_sbu_0, # of connection points: 4
#     Node 3, Type 0, BuildingBlock: GALJAG_clean_sbu_0, # of connection points: 4
#     Node 4, Type 0, BuildingBlock: GALJAG_clean_sbu_0, # of connection points: 4
#     Node 5, Type 0, BuildingBlock: GALJAG_clean_sbu_0, # of connection points: 4
#     Node 6, Type 0, BuildingBlock: GALJAG_clean_sbu_0, # of connection points: 4
#     Node 7, Type 0, BuildingBlock: GALJAG_clean_sbu_0, # of connection points: 4
#     Node 8, Type 0, BuildingBlock: GALJAG_clean_sbu_0, # of connection points: 4
#     Node 9, Type 0, BuildingBlock: GALJAG_clean_sbu_0, # of connection points: 4
#     Node 10, Type 0, BuildingBlock: GALJAG_clean_sbu_0, # of connection points: 4
#     Node 11, Type 0, BuildingBlock: GALJAG_clean_sbu_0, # of connection points: 4
#     Node 12, Type 0, BuildingBlock: GALJAG_clean_sbu_0, # of connection points: 4
#     Node 13, Type 0, BuildingBlock: GALJAG_clean_sbu_0, # of connection points: 4
#     Node 14, Type 0, BuildingBlock: GALJAG_clean_sbu_0, # of connection points: 4
#     Node 15, Type 0, BuildingBlock: GALJAG_clean_sbu_0, # of connection points: 4
#     Node 16, Type 0, BuildingBlock: GALJAG_clean_sbu_0, # of connection points: 4
#     Node 17, Type 0, BuildingBlock: GALJAG_clean_sbu_0, # of connection points: 4
#     Node 18, Type 0, BuildingBlock: GALJAG_clean_sbu_0, # of connection points: 4
#     Node 19, Type 0, BuildingBlock: GALJAG_clean_sbu_0, # of connection points: 4
#     Node 20, Type 0, BuildingBlock: GALJAG_clean_sbu_0, # of connection points: 4
#     Node 21, Type 0, BuildingBlock: GALJAG_clean_sbu_0, # of connection points: 4
#     Node 22, Type 0, BuildingBlock: GALJAG_clean_sbu_0, # of connection points: 4
#     Node 23, Type 0, BuildingBlock: GALJAG_clean_sbu_0, # of connection points: 4
#     Node 24, Type 1, BuildingBlock: INOVEN_clean_sbu_0, # of connection points: 6
#     Node 25, Type 1, BuildingBlock: INOVEN_clean_sbu_0, # of connection points: 6
#     Node 26, Type 1, BuildingBlock: INOVEN_clean_sbu_0, # of connection points: 6
#     Node 27, Type 1, BuildingBlock: INOVEN_clean_sbu_0, # of connection points: 6
#     Node 28, Type 1, BuildingBlock: INOVEN_clean_sbu_0, # of connection points: 6
#     Node 29, Type 1, BuildingBlock: INOVEN_clean_sbu_0, # of connection points: 6
#     Node 30, Type 1, BuildingBlock: INOVEN_clean_sbu_0, # of connection points: 6
#     Node 31, Type 1, BuildingBlock: INOVEN_clean_sbu_0, # of connection points: 6
#     Node 32, Type 1, BuildingBlock: INOVEN_clean_sbu_0, # of connection points: 6
#     Node 33, Type 1, BuildingBlock: INOVEN_clean_sbu_0, # of connection points: 6
#     Node 34, Type 1, BuildingBlock: INOVEN_clean_sbu_0, # of connection points: 6
#     Node 35, Type 1, BuildingBlock: INOVEN_clean_sbu_0, # of connection points: 6
#     Node 36, Type 1, BuildingBlock: INOVEN_clean_sbu_0, # of connection points: 6
#     Node 37, Type 1, BuildingBlock: INOVEN_clean_sbu_0, # of connection points: 6
#     Node 38, Type 1, BuildingBlock: INOVEN_clean_sbu_0, # of connection points: 6
#     Node 39, Type 1, BuildingBlock: INOVEN_clean_sbu_0, # of connection points: 6
#     Edge 40, Type (0, 1), BuildingBlock: UVAHIK_clean_linker_0, # of connection points: 2
#     Edge 41, Type (0, 1), BuildingBlock: UVAHIK_clean_linker_0, # of connection points: 2
#     Edge 42, Type (0, 1), BuildingBlock: UVAHIK_clean_linker_0, # of connection points: 2
#     Edge 43, Type (0, 1), BuildingBlock: UVAHIK_clean_linker_0, # of connection points: 2
#     Edge 44, Type (0, 1), BuildingBlock: UVAHIK_clean_linker_0, # of connection points: 2
#     Edge 45, Type (0, 1), BuildingBlock: UVAHIK_clean_linker_0, # of connection points: 2
#     Edge 46, Type (0, 1), BuildingBlock: UVAHIK_clean_linker_0, # of connection points: 2
#     Edge 47, Type (0, 1), BuildingBlock: UVAHIK_clean_linker_0, # of connection points: 2
#     Edge 48, Type (0, 1), BuildingBlock: UVAHIK_clean_linker_0, # of connection points: 2
#     Edge 49, Type (0, 1), BuildingBlock: UVAHIK_clean_linker_0, # of connection points: 2
#     Edge 50, Type (0, 1), BuildingBlock: UVAHIK_clean_linker_0, # of connection points: 2
#     Edge 51, Type (0, 1), BuildingBlock: UVAHIK_clean_linker_0, # of connection points: 2
#     Edge 52, Type (0, 1), BuildingBlock: UVAHIK_clean_linker_0, # of connection points: 2
#     Edge 53, Type (0, 1), BuildingBlock: UVAHIK_clean_linker_0, # of connection points: 2
#     Edge 54, Type (0, 1), BuildingBlock: UVAHIK_clean_linker_0, # of connection points: 2
#     Edge 55, Type (0, 1), BuildingBlock: UVAHIK_clean_linker_0, # of connection points: 2
#     Edge 56, Type (0, 1), BuildingBlock: UVAHIK_clean_linker_0, # of connection points: 2
#     Edge 57, Type (0, 1), BuildingBlock: UVAHIK_clean_linker_0, # of connection points: 2
#     Edge 58, Type (0, 1), BuildingBlock: UVAHIK_clean_linker_0, # of connection points: 2
#     Edge 59, Type (0, 1), BuildingBlock: UVAHIK_clean_linker_0, # of connection points: 2
#     Edge 60, Type (0, 1), BuildingBlock: UVAHIK_clean_linker_0, # of connection points: 2
#     Edge 61, Type (0, 1), BuildingBlock: UVAHIK_clean_linker_0, # of connection points: 2
#     Edge 62, Type (0, 1), BuildingBlock: UVAHIK_clean_linker_0, # of connection points: 2
#     Edge 63, Type (0, 1), BuildingBlock: UVAHIK_clean_linker_0, # of connection points: 2
#     Edge 64, Type (0, 1), BuildingBlock: UVAHIK_clean_linker_0, # of connection points: 2
#     Edge 65, Type (0, 1), BuildingBlock: UVAHIK_clean_linker_0, # of connection points: 2
#     Edge 66, Type (0, 1), BuildingBlock: UVAHIK_clean_linker_0, # of connection points: 2
#     Edge 67, Type (0, 1), BuildingBlock: UVAHIK_clean_linker_0, # of connection points: 2
#     Edge 68, Type (0, 1), BuildingBlock: UVAHIK_clean_linker_0, # of connection points: 2
#     Edge 69, Type (0, 1), BuildingBlock: UVAHIK_clean_linker_0, # of connection points: 2
#     Edge 70, Type (0, 1), BuildingBlock: UVAHIK_clean_linker_0, # of connection points: 2
#     Edge 71, Type (0, 1), BuildingBlock: UVAHIK_clean_linker_0, # of connection points: 2
#     Edge 72, Type (0, 1), BuildingBlock: UVAHIK_clean_linker_0, # of connection points: 2
#     Edge 73, Type (0, 1), BuildingBlock: UVAHIK_clean_linker_0, # of connection points: 2
#     Edge 74, Type (0, 1), BuildingBlock: UVAHIK_clean_linker_0, # of connection points: 2
#     Edge 75, Type (0, 1), BuildingBlock: UVAHIK_clean_linker_0, # of connection points: 2
#     Edge 76, Type (0, 1), BuildingBlock: UVAHIK_clean_linker_0, # of connection points: 2
#     Edge 77, Type (0, 1), BuildingBlock: UVAHIK_clean_linker_0, # of connection points: 2
#     Edge 78, Type (0, 1), BuildingBlock: UVAHIK_clean_linker_0, # of connection points: 2
#     Edge 79, Type (0, 1), BuildingBlock: UVAHIK_clean_linker_0, # of connection points: 2
#     Edge 80, Type (0, 1), BuildingBlock: UVAHIK_clean_linker_0, # of connection points: 2
#     Edge 81, Type (0, 1), BuildingBlock: UVAHIK_clean_linker_0, # of connection points: 2
#     Edge 82, Type (0, 1), BuildingBlock: UVAHIK_clean_linker_0, # of connection points: 2
#     Edge 83, Type (0, 1), BuildingBlock: UVAHIK_clean_linker_0, # of connection points: 2
#     Edge 84, Type (0, 1), BuildingBlock: UVAHIK_clean_linker_0, # of connection points: 2
#     Edge 85, Type (0, 1), BuildingBlock: UVAHIK_clean_linker_0, # of connection points: 2
#     Edge 86, Type (0, 1), BuildingBlock: UVAHIK_clean_linker_0, # of connection points: 2
#     Edge 87, Type (0, 1), BuildingBlock: UVAHIK_clean_linker_0, # of connection points: 2
#     Edge 88, Type (0, 1), BuildingBlock: UVAHIK_clean_linker_0, # of connection points: 2
#     Edge 89, Type (0, 1), BuildingBlock: UVAHIK_clean_linker_0, # of connection points: 2
#     Edge 90, Type (0, 1), BuildingBlock: UVAHIK_clean_linker_0, # of connection points: 2
#     Edge 91, Type (0, 1), BuildingBlock: UVAHIK_clean_linker_0, # of connection points: 2
#     Edge 92, Type (0, 1), BuildingBlock: UVAHIK_clean_linker_0, # of connection points: 2
#     Edge 93, Type (0, 1), BuildingBlock: UVAHIK_clean_linker_0, # of connection points: 2
#     Edge 94, Type (0, 1), BuildingBlock: UVAHIK_clean_linker_0, # of connection points: 2
#     Edge 95, Type (0, 1), BuildingBlock: UVAHIK_clean_linker_0, # of connection points: 2
#     Edge 96, Type (0, 1), BuildingBlock: UVAHIK_clean_linker_0, # of connection points: 2
#     Edge 97, Type (0, 1), BuildingBlock: UVAHIK_clean_linker_0, # of connection points: 2
#     Edge 98, Type (0, 1), BuildingBlock: UVAHIK_clean_linker_0, # of connection points: 2
#     Edge 99, Type (0, 1), BuildingBlock: UVAHIK_clean_linker_0, # of connection points: 2
#     Edge 100, Type (0, 1), BuildingBlock: UVAHIK_clean_linker_0, # of connection points: 2
#     Edge 101, Type (0, 1), BuildingBlock: UVAHIK_clean_linker_0, # of connection points: 2
#     Edge 102, Type (0, 1), BuildingBlock: UVAHIK_clean_linker_0, # of connection points: 2
#     Edge 103, Type (0, 1), BuildingBlock: UVAHIK_clean_linker_0, # of connection points: 2
#     Edge 104, Type (0, 1), BuildingBlock: UVAHIK_clean_linker_0, # of connection points: 2
#     Edge 105, Type (0, 1), BuildingBlock: UVAHIK_clean_linker_0, # of connection points: 2
#     Edge 106, Type (0, 1), BuildingBlock: UVAHIK_clean_linker_0, # of connection points: 2
#     Edge 107, Type (0, 1), BuildingBlock: UVAHIK_clean_linker_0, # of connection points: 2
#     Edge 108, Type (0, 1), BuildingBlock: UVAHIK_clean_linker_0, # of connection points: 2
#     Edge 109, Type (0, 1), BuildingBlock: UVAHIK_clean_linker_0, # of connection points: 2
#     Edge 110, Type (0, 1), BuildingBlock: UVAHIK_clean_linker_0, # of connection points: 2
#     Edge 111, Type (0, 1), BuildingBlock: UVAHIK_clean_linker_0, # of connection points: 2
#     Edge 112, Type (0, 1), BuildingBlock: UVAHIK_clean_linker_0, # of connection points: 2
#     Edge 113, Type (0, 1), BuildingBlock: UVAHIK_clean_linker_0, # of connection points: 2
#     Edge 114, Type (0, 1), BuildingBlock: UVAHIK_clean_linker_0, # of connection points: 2
#     Edge 115, Type (0, 1), BuildingBlock: UVAHIK_clean_linker_0, # of connection points: 2
#     Edge 116, Type (0, 1), BuildingBlock: UVAHIK_clean_linker_0, # of connection points: 2
#     Edge 117, Type (0, 1), BuildingBlock: UVAHIK_clean_linker_0, # of connection points: 2
#     Edge 118, Type (0, 1), BuildingBlock: UVAHIK_clean_linker_0, # of connection points: 2
#     Edge 119, Type (0, 1), BuildingBlock: UVAHIK_clean_linker_0, # of connection points: 2
#     Edge 120, Type (0, 1), BuildingBlock: UVAHIK_clean_linker_0, # of connection points: 2
#     Edge 121, Type (0, 1), BuildingBlock: UVAHIK_clean_linker_0, # of connection points: 2
#     Edge 122, Type (0, 1), BuildingBlock: UVAHIK_clean_linker_0, # of connection points: 2
#     Edge 123, Type (0, 1), BuildingBlock: UVAHIK_clean_linker_0, # of connection points: 2
#     Edge 124, Type (0, 1), BuildingBlock: UVAHIK_clean_linker_0, # of connection points: 2
#     Edge 125, Type (0, 1), BuildingBlock: UVAHIK_clean_linker_0, # of connection points: 2
#     Edge 126, Type (0, 1), BuildingBlock: UVAHIK_clean_linker_0, # of connection points: 2
#     Edge 127, Type (0, 1), BuildingBlock: UVAHIK_clean_linker_0, # of connection points: 2
#     Edge 128, Type (0, 1), BuildingBlock: UVAHIK_clean_linker_0, # of connection points: 2
#     Edge 129, Type (0, 1), BuildingBlock: UVAHIK_clean_linker_0, # of connection points: 2
#     Edge 130, Type (0, 1), BuildingBlock: UVAHIK_clean_linker_0, # of connection points: 2
#     Edge 131, Type (0, 1), BuildingBlock: UVAHIK_clean_linker_0, # of connection points: 2
#     Edge 132, Type (0, 1), BuildingBlock: UVAHIK_clean_linker_0, # of connection points: 2
#     Edge 133, Type (0, 1), BuildingBlock: UVAHIK_clean_linker_0, # of connection points: 2
#     Edge 134, Type (0, 1), BuildingBlock: UVAHIK_clean_linker_0, # of connection points: 2
#     Edge 135, Type (0, 1), BuildingBlock: UVAHIK_clean_linker_0, # of connection points: 2
# Relax obj value: 0.169
# Max RMSD: 0.285
# Mean RMSD: 0.167
data_MOF--net-gar--node1-GALJAG_clean_sbu_0--node2-INOVEN_clean_sbu_0--edge1-UVAHIK_clean_linker_0
_symmetry_space_group_name_H-M    P1
_symmetry_Int_Tables_number       1
_symmetry_cell_setting            triclinic
loop_
_symmetry_equiv_pos_as_xyz
'x, y, z'
_cell_length_a     78.238403
_cell_length_b     72.603075
_cell_length_c     72.967393
_cell_angle_alpha  98.156282
_cell_angle_beta   94.87346
_cell_angle_gamma 102.12698
loop_
_atom_site_label
_atom_site_type_symbol
_atom_site_fract_x
_atom_site_fract_y
_atom_site_fract_z
_atom_type_partial_charge
In0 In 0.08943 0.32329 0.39148 0.0
O1 O 0.09942 0.31734 0.36426 0.0
O2 O 0.11845 0.32731 0.38837 0.0
C3 C 0.0564 0.31948 0.37767 0.0
C4 C 0.08637 0.29114 0.40565 0.0
C5 C 0.09294 0.3598 0.40545 0.0
O6 O 0.06901 0.3225 0.36806 0.0
O7 O 0.06023 0.3178 0.39439 0.0
O8 O 0.09571 0.34797 0.41591 0.0
O9 O 0.08982 0.35331 0.38831 0.0
C10 C 0.11539 0.32206 0.3709 0.0
O11 O 0.09081 0.30731 0.41605 0.0
O12 O 0.08421 0.29151 0.38841 0.0
In13 In 0.99741 0.76087 0.65818 0.0
O14 O 0.99658 0.77493 0.63274 0.0
O15 O 0.00718 0.7926 0.65878 0.0
C16 C 0.99349 0.72718 0.63745 0.0
C17 C 0.0293 0.76431 0.67587 0.0
C18 C 0.96785 0.75769 0.6735 0.0
O19 O 0.99583 0.74257 0.63089 0.0
O20 O 0.99236 0.7286 0.65474 0.0
O21 O 0.98224 0.75765 0.68262 0.0
O22 O 0.96855 0.7601 0.65682 0.0
C23 C 1.00399 0.79133 0.64137 0.0
O24 O 0.01874 0.77384 0.68228 0.0
O25 O 0.02356 0.7529 0.66093 0.0
In26 In 0.59176 0.82244 0.89117 0.0
O27 O 0.60362 0.81415 0.86553 0.0
O28 O 0.62128 0.82754 0.89014 0.0
C29 C 0.5597 0.82044 0.8749 0.0
C30 C 0.58734 0.79022 0.90524 0.0
C31 C 0.59489 0.85768 0.90883 0.0
O32 O 0.57337 0.82738 0.868 0.0
O33 O 0.56212 0.81392 0.88975 0.0
O34 O 0.59496 0.84385 0.9176 0.0
O35 O 0.59472 0.8538 0.89143 0.0
C36 C 0.61924 0.82015 0.87314 0.0
O37 O 0.5911 0.80636 0.91568 0.0
O38 O 0.58646 0.7906 0.88797 0.0
In39 In 0.4976 0.25926 0.1572 0.0
O40 O 0.49808 0.24095 0.13023 0.0
O41 O 0.48901 0.22707 0.15273 0.0
C42 C 0.50623 0.29025 0.14177 0.0
C43 C 0.46804 0.25898 0.17201 0.0
C44 C 0.52859 0.26145 0.17622 0.0
O45 O 0.49537 0.27548 0.13326 0.0
O46 O 0.51201 0.2896 0.15825 0.0
O47 O 0.51765 0.27042 0.18274 0.0
O48 O 0.52354 0.25101 0.16059 0.0
C49 C 0.49285 0.22552 0.13624 0.0
O50 O 0.48072 0.25376 0.17997 0.0
O51 O 0.47056 0.265 0.15689 0.0
In52 In 0.07323 0.80737 0.12552 0.0
O53 O 0.07255 0.78553 0.09899 0.0
O54 O 0.06464 0.77537 0.12355 0.0
C55 C 0.07335 0.83904 0.10905 0.0
C56 C 0.04203 0.80188 0.14025 0.0
C57 C 0.10534 0.81148 0.1464 0.0
O58 O 0.07235 0.82271 0.09977 0.0
O59 O 0.07498 0.83949 0.12648 0.0
O60 O 0.09258 0.81741 0.15269 0.0
O61 O 0.10226 0.80424 0.12934 0.0
C62 C 0.06672 0.77128 0.10666 0.0
O63 O 0.05652 0.80217 0.14948 0.0
O64 O 0.04335 0.80518 0.12386 0.0
In65 In 0.51144 0.77048 0.41417 0.0
O66 O 0.52912 0.76461 0.39087 0.0
O67 O 0.54127 0.7827 0.41593 0.0
C68 C 0.47843 0.77 0.39627 0.0
C69 C 0.51245 0.74002 0.43197 0.0
C70 C 0.51684 0.80551 0.43397 0.0
O71 O 0.49234 0.77215 0.38841 0.0
O72 O 0.48083 0.7666 0.41268 0.0
O73 O 0.51618 0.79095 0.44175 0.0
O74 O 0.51465 0.80228 0.4164 0.0
C75 C 0.54325 0.77488 0.39996 0.0
O76 O 0.51169 0.75623 0.4403 0.0
O77 O 0.51163 0.73874 0.41443 0.0
In78 In 0.57369 0.30744 0.62571 0.0
O79 O 0.57354 0.28552 0.59939 0.0
O80 O 0.56478 0.27549 0.62371 0.0
C81 C 0.57363 0.33861 0.60856 0.0
C82 C 0.54274 0.30252 0.64088 0.0
C83 C 0.60581 0.31161 0.6465 0.0
O84 O 0.57031 0.32177 0.5997 0.0
O85 O 0.57769 0.3398 0.62588 0.0
O86 O 0.59314 0.31775 0.65276 0.0
O87 O 0.60265 0.30416 0.62948 0.0
C88 C 0.56729 0.27133 0.60696 0.0
O89 O 0.55712 0.30189 0.64974 0.0
O90 O 0.54409 0.30657 0.62476 0.0
In91 In 0.0113 0.27044 0.91379 0.0
O92 O 0.00855 0.25488 0.9391 0.0
O93 O 0.01512 0.23995 0.91449 0.0
C94 C 0.01651 0.30523 0.9341 0.0
C95 C 0.043 0.27509 0.89962 0.0
C96 C 0.9785 0.2694 0.89512 0.0
O97 O 0.01699 0.2907 0.94164 0.0
O98 O 0.01337 0.30206 0.91659 0.0
O99 O 0.99281 0.27351 0.88819 0.0
O100 O 0.98044 0.26415 0.91079 0.0
C101 C 0.01284 0.24006 0.93146 0.0
O102 O 0.02894 0.26456 0.8906 0.0
O103 O 0.04098 0.28317 0.91549 0.0
In104 In 0.4218 0.02596 0.29139 0.0
O105 O 0.44158 0.03486 0.2718 0.0
O106 O 0.41603 0.01726 0.26098 0.0
C107 C 0.43787 0.03365 0.32536 0.0
C108 C 0.40192 0.05066 0.28811 0.0
C109 C 0.41499 0.98893 0.29115 0.0
O110 O 0.44644 0.03427 0.31141 0.0
O111 O 0.42134 0.03061 0.32202 0.0
O112 O 0.40389 0.99888 0.29498 0.0
O113 O 0.42955 0.99759 0.28715 0.0
C114 C 0.43098 0.02574 0.25774 0.0
O115 O 0.3954 0.03291 0.28601 0.0
O116 O 0.41834 0.05588 0.29288 0.0
In117 In 0.28348 0.1888 0.50347 0.0
O118 O 0.28252 0.2153 0.52499 0.0
O119 O 0.2924 0.19284 0.53452 0.0
C120 C 0.28502 0.20306 0.4706 0.0
C121 C 0.31165 0.17289 0.50726 0.0
C122 C 0.25017 0.16693 0.5019 0.0
O123 O 0.28892 0.21372 0.48633 0.0
O124 O 0.28042 0.18556 0.47156 0.0
O125 O 0.26262 0.16061 0.49539 0.0
O126 O 0.25435 0.18442 0.50891 0.0
C127 C 0.28887 0.20893 0.5387 0.0
O128 O 0.29603 0.16385 0.50745 0.0
O129 O 0.31309 0.18983 0.50423 0.0
In130 In 0.16167 0.01536 0.77733 0.0
O131 O 0.13617 1.00467 0.754 0.0
O132 O 0.15927 0.01985 0.74587 0.0
C133 C 0.14404 0.01762 0.81116 0.0
C134 C 0.17956 0.98375 0.77304 0.0
C135 C 0.18137 0.05376 0.78038 0.0
O136 O 0.13706 0.01842 0.79505 0.0
O137 O 0.15961 0.01545 0.81033 0.0
O138 O 0.18726 0.04088 0.78724 0.0
O139 O 0.16574 0.04753 0.77277 0.0
C140 C 0.14328 0.0119 0.74085 0.0
O141 O 0.18656 1.00101 0.77245 0.0
O142 O 0.16356 0.98214 0.77576 0.0
In143 In 0.30511 0.92487 0.00817 0.0
O144 O 0.29828 0.90303 0.02672 0.0
O145 O 0.31224 0.93167 0.0386 0.0
C146 C 0.30212 0.90606 0.9744 0.0
C147 C 0.27955 0.94306 0.01166 0.0
C148 C 0.339 0.93386 0.00727 0.0
O149 O 0.29845 0.89751 0.98803 0.0
O150 O 0.30552 0.92408 0.97774 0.0
O151 O 0.32921 0.94494 1.00321 0.0
O152 O 0.33182 0.91879 0.01285 0.0
C153 C 0.30564 0.91491 0.0411 0.0
O154 O 0.29551 0.95193 0.01517 0.0
O155 O 0.27682 0.92546 0.0053 0.0
In156 In 0.30462 0.39395 0.03649 0.0
O157 O 0.30389 0.36732 0.0506 0.0
O158 O 0.30146 0.39257 0.06748 0.0
C159 C 0.29924 0.37566 1.00126 0.0
C160 C 0.27465 0.40767 0.033 0.0
C161 C 0.33928 0.413 0.03647 0.0
O162 O 0.2982 0.36675 0.01498 0.0
O163 O 0.30287 0.39367 0.00542 0.0
O164 O 0.32827 0.42071 0.0446 0.0
O165 O 0.33308 0.39583 0.02925 0.0
C166 C 0.30151 0.3751 0.06646 0.0
O167 O 0.28942 0.41829 0.04001 0.0
O168 O 0.27506 0.39046 0.02813 0.0
In169 In 0.78046 0.14756 0.02539 0.0
O170 O 0.79465 0.12367 0.02717 0.0
O171 O 0.80925 0.15178 0.02553 0.0
C172 C 0.74628 0.13349 0.02176 0.0
C173 C 0.78207 0.16864 0.05835 0.0
C174 C 0.77992 0.15744 0.99198 0.0
O175 O 0.75692 0.12248 0.02095 0.0
O176 O 0.75309 0.15114 0.02486 0.0
O177 O 0.78712 0.16914 0.00644 0.0
O178 O 0.7737 0.1406 0.99437 0.0
C179 C 0.80937 0.13456 0.02614 0.0
O180 O 0.78306 0.17568 0.04351 0.0
O181 O 0.78112 0.15086 0.05668 0.0
In182 In 0.1711 0.54923 0.25478 0.0
O183 O 0.1942 0.53555 0.25071 0.0
O184 O 0.16887 0.51882 0.25409 0.0
C185 C 0.18257 0.58606 0.26416 0.0
C186 C 0.15438 0.54482 0.22158 0.0
C187 C 0.15605 0.54788 0.28564 0.0
O188 O 0.1928 0.5749 0.26616 0.0
O189 O 0.16733 0.57857 0.25605 0.0
O190 O 0.14725 0.54457 0.26975 0.0
O191 O 0.17255 0.55082 0.28579 0.0
C192 C 0.18479 0.51948 0.25217 0.0
O193 O 0.14698 0.53991 0.23536 0.0
O194 O 0.17076 0.55201 0.22448 0.0
In195 In 0.80481 0.89522 0.53707 0.0
O196 O 0.80312 0.86851 0.55083 0.0
O197 O 0.79894 0.89342 0.56723 0.0
C198 C 0.80173 0.87316 0.5036 0.0
C199 C 0.77436 0.9081 0.53404 0.0
C200 C 0.83871 0.91683 0.53774 0.0
O201 O 0.80397 0.86656 0.51851 0.0
O202 O 0.80115 0.89054 0.50579 0.0
O203 O 0.82521 0.92128 0.5306 0.0
O204 O 0.83509 0.90247 0.54575 0.0
C205 C 0.79956 0.87605 0.5663 0.0
O206 O 0.78725 0.91635 0.5462 0.0
O207 O 0.77686 0.89366 0.5238 0.0
In208 In 0.92529 0.06329 0.26404 0.0
O209 O 0.95057 0.07251 0.24789 0.0
O210 O 0.92825 0.05514 0.23157 0.0
C211 C 0.94578 0.06369 0.29828 0.0
C212 C 0.90884 0.0964 0.26515 0.0
C213 C 0.90558 0.02462 0.26362 0.0
O214 O 0.9523 0.06574 0.2832 0.0
O215 O 0.92936 0.06238 0.29634 0.0
O216 O 0.90065 0.03952 0.27023 0.0
O217 O 0.91968 0.02908 0.25637 0.0
C218 C 0.94413 0.06379 0.23167 0.0
O219 O 0.90266 0.08017 0.25511 0.0
O220 O 0.92308 0.09606 0.27462 0.0
In221 In 0.27997 0.64561 0.52684 0.0
O222 O 0.2919 0.61957 0.52315 0.0
O223 O 0.30855 0.64733 0.53237 0.0
C224 C 0.24563 0.63408 0.52308 0.0
C225 C 0.2834 0.66656 0.56017 0.0
C226 C 0.27977 0.65675 0.49386 0.0
O227 O 0.25538 0.62232 0.52471 0.0
O228 O 0.25339 0.65138 0.52444 0.0
O229 O 0.28664 0.66805 0.50867 0.0
O230 O 0.27398 0.63965 0.49564 0.0
C231 C 0.30731 0.62971 0.52779 0.0
O232 O 0.28834 0.67346 0.54604 0.0
O233 O 0.27686 0.64877 0.55757 0.0
In234 In 0.42498 0.56272 0.76386 0.0
O235 O 0.40151 0.57895 0.75616 0.0
O236 O 0.42348 0.59594 0.77293 0.0
C237 C 0.40442 0.5246 0.76423 0.0
C238 C 0.44397 0.56428 0.73164 0.0
C239 C 0.44673 0.56261 0.79711 0.0
O240 O 0.40205 0.53958 0.77393 0.0
O241 O 0.41606 0.52886 0.75362 0.0
O242 O 0.44955 0.55608 0.78094 0.0
O243 O 0.43356 0.57014 0.79664 0.0
C244 C 0.40843 0.59569 0.76482 0.0
O245 O 0.4506 0.57192 0.74814 0.0
O246 O 0.42783 0.55642 0.73123 0.0
In247 In 0.67164 0.04933 0.75433 0.0
O248 O 0.69386 0.03486 0.74932 0.0
O249 O 0.66838 0.0189 0.75367 0.0
C250 C 0.68203 0.08619 0.76103 0.0
C251 C 0.65307 0.04441 0.72223 0.0
C252 C 0.66225 0.05028 0.78799 0.0
O253 O 0.69311 0.0757 0.76109 0.0
O254 O 0.66613 0.07795 0.756 0.0
O255 O 0.65125 0.04499 0.77352 0.0
O256 O 0.67827 0.05403 0.78542 0.0
C257 C 0.68413 0.01909 0.75118 0.0
O258 O 0.64622 0.04074 0.73673 0.0
O259 O 0.66961 0.05049 0.72395 0.0
In260 In 0.78335 0.68802 1.00314 0.0
O261 O 0.79621 0.66278 0.00477 0.0
O262 O 0.81315 0.68998 0.00578 0.0
C263 C 0.74979 0.66689 1.00164 0.0
C264 C 0.78883 0.70704 0.0387 0.0
C265 C 0.78464 0.70269 0.9705 0.0
O266 O 0.76203 0.66027 0.99499 0.0
O267 O 0.75428 0.68436 0.00869 0.0
O268 O 0.78789 0.71321 0.98631 0.0
O269 O 0.78079 0.6851 0.97126 0.0
C270 C 0.81183 0.6725 0.00666 0.0
O271 O 0.78517 0.71504 0.02499 0.0
O272 O 0.78945 0.68979 0.03435 0.0
In273 In 0.92309 0.52779 0.79262 0.0
O274 O 0.89816 0.53851 0.79158 0.0
O275 O 0.92253 0.55741 0.78849 0.0
C276 C 0.91412 0.49103 0.79349 0.0
C277 C 0.93126 0.52487 0.75865 0.0
C278 C 0.93991 0.53618 0.82614 0.0
O279 O 0.9035 0.50184 0.79617 0.0
O280 O 0.92921 0.49865 0.78994 0.0
O281 O 0.94807 0.53481 0.81195 0.0
O282 O 0.92359 0.53504 0.82314 0.0
C283 C 0.90606 0.55467 0.78853 0.0
O284 O 0.94244 0.53392 0.77226 0.0
O285 O 0.91611 0.51755 0.76244 0.0
In286 In 0.80454 0.42212 0.50991 0.0
O287 O 0.79729 0.39826 0.52646 0.0
O288 O 0.80598 0.42728 0.54055 0.0
C289 C 0.80279 0.40625 0.475 0.0
C290 C 0.77981 0.44172 0.51233 0.0
C291 C 0.83902 0.43072 0.51408 0.0
O292 O 0.79841 0.39642 0.48756 0.0
O293 O 0.80652 0.42416 0.4799 0.0
O294 O 0.83017 0.44298 0.51126 0.0
O295 O 0.83054 0.41423 0.5151 0.0
C296 C 0.80101 0.40985 0.54169 0.0
O297 O 0.79593 0.44973 0.51647 0.0
O298 O 0.77637 0.42406 0.5059 0.0
In299 In 0.66156 0.51552 0.27766 0.0
O300 O 0.6864 0.5012 0.27211 0.0
O301 O 0.66373 0.48246 0.2765 0.0
C302 C 0.68137 0.55386 0.28085 0.0
C303 C 0.64309 0.51245 0.24127 0.0
C304 C 0.64407 0.51774 0.31158 0.0
O305 O 0.68783 0.54042 0.28579 0.0
O306 O 0.66515 0.54819 0.27517 0.0
O307 O 0.63686 0.51793 0.2954 0.0
O308 O 0.65983 0.51621 0.31079 0.0
C309 C 0.67957 0.48401 0.27321 0.0
O310 O 0.63706 0.50264 0.25334 0.0
O311 O 0.65807 0.5229 0.2473 0.0
Gd312 Gd 0.03412 0.03783 0.01533 0.0
Gd313 Gd 0.06821 0.05616 0.03785 0.0
C314 C 0.04826 0.08387 0.01965 0.0
C315 C 1.0009 0.0293 0.0044 0.0
C316 C 0.98796 0.04121 0.00459 0.0
C317 C 0.9759 0.03903 0.98869 0.0
C318 C 0.9885 0.05582 0.01966 0.0
C319 C 0.96381 0.06452 0.00355 0.0
C320 C 0.97635 0.06738 0.01917 0.0
C321 C 0.96384 0.0506 0.98819 0.0
C322 C 0.05849 0.03638 0.9898 0.0
C323 C 0.05356 0.01012 0.03453 0.0
C324 C 0.10146 0.06557 0.04945 0.0
C325 C 0.11451 0.05395 0.05051 0.0
C326 C 0.12931 0.05993 0.06394 0.0
C327 C 0.11153 0.03609 0.03906 0.0
C328 C 0.13897 0.03112 0.05315 0.0
C329 C 0.12372 0.02476 0.04035 0.0
C330 C 0.14154 0.04852 0.06527 0.0
C331 C 0.04363 0.05822 0.06299 0.0
O332 O 0.03474 0.06908 0.01603 0.0
O333 O 0.06368 0.08237 0.02716 0.0
O334 O 0.01279 0.03346 0.99328 0.0
O335 O 0.0074 0.02615 0.0205 0.0
O336 O 0.04178 0.02922 0.98663 0.0
O337 O 0.06202 0.04358 0.00731 0.0
O338 O 0.06693 0.02504 0.03905 0.0
O339 O 0.03865 0.01138 0.02553 0.0
O340 O 0.08933 0.06202 0.06041 0.0
O341 O 0.09508 0.06714 0.03272 0.0
O342 O 0.06023 0.06606 0.06602 0.0
O343 O 0.04025 0.05081 0.04559 0.0
H344 H 0.97568 0.02819 0.97676 0.0
H345 H 0.99808 0.0581 0.03186 0.0
H346 H 0.97623 0.07793 0.03123 0.0
H347 H 0.95404 0.04818 0.97616 0.0
H348 H 0.13151 0.07348 0.07317 0.0
H349 H 0.09994 0.03105 0.02892 0.0
H350 H 0.12154 0.01129 0.03095 0.0
H351 H 0.15333 0.05365 0.07513 0.0
Gd352 Gd 0.29572 0.80425 0.27046 0.0
Gd353 Gd 0.27903 0.80896 0.30882 0.0
C354 C 0.29076 0.84522 0.28947 0.0
C355 C 0.30198 0.80236 0.23679 0.0
C356 C 0.31053 0.81824 0.22825 0.0
C357 C 0.32659 0.81786 0.22125 0.0
C358 C 0.3034 0.83447 0.22819 0.0
C359 C 0.32625 0.84774 0.21066 0.0
C360 C 0.31129 0.84922 0.21945 0.0
C361 C 0.33448 0.83265 0.21251 0.0
C362 C 0.32165 0.80899 0.29984 0.0
C363 C 0.27861 0.76741 0.28693 0.0
C364 C 0.27308 0.81167 0.34285 0.0
C365 C 0.26149 0.79853 0.35223 0.0
C366 C 0.2505 0.80552 0.36433 0.0
C367 C 0.26127 0.77894 0.34912 0.0
C368 C 0.24161 0.77415 0.37264 0.0
C369 C 0.25138 0.76681 0.35932 0.0
C370 C 0.24066 0.79336 0.37465 0.0
C371 C 0.25354 0.80376 0.2788 0.0
O372 O 0.29298 0.83435 0.27415 0.0
O373 O 0.28901 0.83913 0.30553 0.0
O374 O 0.31218 0.79735 0.24939 0.0
O375 O 0.28637 0.80305 0.24161 0.0
O376 O 0.32411 0.80793 0.28249 0.0
O377 O 0.30547 0.80888 0.30065 0.0
O378 O 0.27738 0.77772 0.30299 0.0
O379 O 0.2837 0.77441 0.27214 0.0
O380 O 0.26504 0.81965 0.33079 0.0
O381 O 0.28679 0.80589 0.33705 0.0
O382 O 0.25058 0.80574 0.29609 0.0
O383 O 0.26971 0.80379 0.279 0.0
H384 H 0.33257 0.80574 0.2218 0.0
H385 H 0.29129 0.83542 0.23405 0.0
H386 H 0.30463 0.86066 0.21775 0.0
H387 H 0.34592 0.83133 0.20546 0.0
H388 H 0.25017 0.82051 0.36643 0.0
H389 H 0.26934 0.77314 0.33948 0.0
H390 H 0.25253 0.75207 0.35792 0.0
H391 H 0.23326 0.79915 0.38504 0.0
Gd392 Gd 0.55392 0.03247 0.52714 0.0
Gd393 Gd 0.5141 0.03284 0.53251 0.0
C394 C 0.52433 0.99297 0.52535 0.0
C395 C 0.58541 0.02594 0.52884 0.0
C396 C 0.59524 0.01063 0.52449 0.0
C397 C 0.60652 0.0116 0.51044 0.0
C398 C 0.59512 0.99624 0.53557 0.0
C399 C 0.61865 0.98554 0.51997 0.0
C400 C 0.60662 0.98386 0.5333 0.0
C401 C 0.61802 0.99919 0.50816 0.0
C402 C 0.53294 0.03278 0.49659 0.0
C403 C 0.54333 0.07272 0.53455 0.0
C404 C 0.48217 0.03711 0.53349 0.0
C405 C 0.47245 0.05238 0.537 0.0
C406 C 0.46313 0.05341 0.55262 0.0
C407 C 0.47141 0.06522 0.52447 0.0
C408 C 0.45114 0.07913 0.54258 0.0
C409 C 0.46087 0.07846 0.52724 0.0
C410 C 0.45259 0.06666 0.55539 0.0
C411 C 0.53563 0.03218 0.56244 0.0
O412 O 0.54106 1.00209 0.5295 0.0
O413 O 0.51147 1.00186 0.5226 0.0
O414 O 0.57834 0.03242 0.51488 0.0
O415 O 0.57566 0.02493 0.54257 0.0
O416 O 0.54975 0.0398 0.49844 0.0
O417 O 0.52852 0.02399 0.50962 0.0
O418 O 0.52653 0.06359 0.53077 0.0
O419 O 0.55638 0.06383 0.53668 0.0
O420 O 0.49176 0.03408 0.54786 0.0
O421 O 0.48965 0.03565 0.51812 0.0
O422 O 0.51929 0.02306 0.55998 0.0
O423 O 0.53934 0.04149 0.54964 0.0
H424 H 0.607 0.02254 0.5017 0.0
H425 H 0.58659 0.99494 0.54647 0.0
H426 H 0.60641 0.97328 0.54239 0.0
H427 H 0.62707 1.00101 0.49778 0.0
H428 H 0.46369 0.04366 0.56249 0.0
H429 H 0.47838 0.06476 0.51226 0.0
H430 H 0.45983 0.08769 0.51697 0.0
H431 H 0.44538 0.06696 0.56743 0.0
Gd432 Gd 0.27965 0.29241 0.77394 0.0
Gd433 Gd 0.31676 0.27996 0.77471 0.0
C434 C 0.30332 0.29323 0.81307 0.0
C435 C 0.2473 0.29369 0.77884 0.0
C436 C 0.23537 0.294 0.79378 0.0
C437 C 0.2276 0.3097 0.79765 0.0
C438 C 0.23069 0.27857 0.80341 0.0
C439 C 0.20945 0.29385 0.8191 0.0
C440 C 0.218 0.27855 0.81596 0.0
C441 C 0.21486 0.30965 0.81008 0.0
C442 C 0.30679 0.32448 0.77337 0.0
C443 C 0.29252 0.27611 0.73506 0.0
C444 C 0.34948 0.27967 0.77132 0.0
C445 C 0.36098 0.27652 0.75653 0.0
C446 C 0.36761 0.25987 0.75417 0.0
C447 C 0.3665 0.29061 0.74557 0.0
C448 C 0.38555 0.27183 0.73076 0.0
C449 C 0.3786 0.28828 0.73287 0.0
C450 C 0.37972 0.25753 0.74142 0.0
C451 C 0.28971 0.24872 0.77719 0.0
O452 O 0.28751 0.29142 0.80407 0.0
O453 O 0.31741 0.29182 0.80472 0.0
O454 O 0.25995 0.30882 0.7797 0.0
O455 O 0.25214 0.27784 0.77308 0.0
O456 O 0.29014 0.32415 0.77308 0.0
O457 O 0.30793 0.30712 0.77366 0.0
O458 O 0.30777 0.27582 0.74423 0.0
O459 O 0.27942 0.28161 0.7432 0.0
O460 O 0.33797 0.26483 0.77426 0.0
O461 O 0.3433 0.29517 0.77261 0.0
O462 O 0.30638 0.24883 0.7783 0.0
O463 O 0.28876 0.2658 0.77563 0.0
H464 H 0.23096 0.32185 0.79051 0.0
H465 H 0.23655 0.26631 0.80098 0.0
H466 H 0.21469 0.26631 0.82295 0.0
H467 H 0.20868 0.3217 0.81189 0.0
H468 H 0.36369 0.24879 0.76247 0.0
H469 H 0.36181 0.3037 0.74709 0.0
H470 H 0.38298 0.29975 0.72516 0.0
H471 H 0.38464 0.24458 0.74004 0.0
Gd472 Gd 0.04555 0.04833 0.52078 0.0
Gd473 Gd 0.05134 0.01199 0.50641 0.0
C474 C 0.03554 0.03262 0.47551 0.0
C475 C 0.04486 0.08391 0.52451 0.0
C476 C 0.0433 0.09659 0.51071 0.0
C477 C 0.03073 0.10774 0.51193 0.0
C478 C 0.05411 0.09761 0.49623 0.0
C479 C 0.04107 0.12238 0.48579 0.0
C480 C 0.05301 0.11045 0.48388 0.0
C481 C 0.0296 0.12052 0.49956 0.0
C482 C 0.01788 0.0196 0.52377 0.0
C483 C 0.0612 0.02774 0.55207 0.0
C484 C 0.05323 0.97672 0.50129 0.0
C485 C 0.0563 0.96397 0.51445 0.0
C486 C 0.0681 0.95216 0.51103 0.0
C487 C 0.04782 0.9638 0.53067 0.0
C488 C 0.06167 0.93882 0.53893 0.0
C489 C 0.05049 0.95128 0.54284 0.0
C490 C 0.0707 0.93955 0.52317 0.0
C491 C 0.07856 0.04095 0.50321 0.0
O492 O 0.04007 0.04759 0.48906 0.0
O493 O 0.03715 0.01569 0.4791 0.0
O494 O 0.03089 0.07055 0.52496 0.0
O495 O 0.05946 0.07792 0.52589 0.0
O496 O 0.02448 0.03419 0.53675 0.0
O497 O 0.02628 0.02084 0.50973 0.0
O498 O 0.057 0.01279 0.53836 0.0
O499 O 0.05915 0.04456 0.54842 0.0
O500 O 0.06661 0.99062 0.50045 0.0
O501 O 0.03831 0.98211 0.50138 0.0
O502 O 0.07213 0.0264 0.49019 0.0
O503 O 0.07035 0.0394 0.5173 0.0
H504 H 0.02204 0.10686 0.52272 0.0
H505 H 0.0637 0.08885 0.49472 0.0
H506 H 0.06205 0.11169 0.47343 0.0
H507 H 0.02011 0.12939 0.5011 0.0
H508 H 0.075 0.95242 0.49877 0.0
H509 H 0.03885 0.97303 0.53378 0.0
H510 H 0.04321 0.9507 0.55481 0.0
H511 H 0.07937 0.92998 0.52001 0.0
Gd512 Gd 0.31724 0.81064 0.76271 0.0
Gd513 Gd 0.28532 0.78204 0.76553 0.0
C514 C 0.3205 0.76502 0.7657 0.0
C515 C 0.34819 0.83245 0.76858 0.0
C516 C 0.36558 0.82814 0.77139 0.0
C517 C 0.37696 0.83045 0.75761 0.0
C518 C 0.37043 0.8204 0.7871 0.0
C519 C 0.39779 0.81743 0.77522 0.0
C520 C 0.38642 0.81507 0.78897 0.0
C521 C 0.39303 0.82515 0.75953 0.0
C522 C 0.29922 0.79438 0.72964 0.0
C523 C 0.28134 0.82683 0.7621 0.0
C524 C 0.25385 0.7619 0.76097 0.0
C525 C 0.23761 0.7677 0.75535 0.0
C526 C 0.2248 0.76798 0.76765 0.0
C527 C 0.23534 0.77434 0.7383 0.0
C528 C 0.20698 0.77955 0.74517 0.0
C529 C 0.22004 0.78009 0.7332 0.0
C530 C 0.20952 0.77393 0.76258 0.0
C531 C 0.30352 0.7997 0.79813 0.0
O532 O 0.32871 0.78354 0.76721 0.0
O533 O 0.303 0.76053 0.76352 0.0
O534 O 0.33974 0.82627 0.75186 0.0
O535 O 0.33816 0.82958 0.78185 0.0
O536 O 0.30747 0.81218 0.73338 0.0
O537 O 0.30189 0.78587 0.74313 0.0
O538 O 0.27348 0.80834 0.76066 0.0
O539 O 0.29886 0.83173 0.76424 0.0
O540 O 0.26185 0.77019 0.77744 0.0
O541 O 0.2646 0.76082 0.74828 0.0
O542 O 0.29649 0.78151 0.79483 0.0
O543 O 0.30014 0.80739 0.78435 0.0
H544 H 0.37337 0.83626 0.74532 0.0
H545 H 0.36193 0.81838 0.79796 0.0
H546 H 0.39012 0.80961 0.80144 0.0
H547 H 0.4018 0.82722 0.74891 0.0
H548 H 0.22651 0.76334 0.78103 0.0
H549 H 0.2452 0.77482 0.72872 0.0
H550 H 0.21806 0.78426 0.71963 0.0
H551 H 0.19933 0.77327 0.7718 0.0
Gd552 Gd 0.5342 0.04594 0.01971 0.0
Gd553 Gd 0.52094 0.0478 0.97999 0.0
C554 C 0.49265 0.03246 0.00398 0.0
C555 C 0.5342 0.04582 0.05469 0.0
C556 C 0.52041 0.03568 0.06454 0.0
C557 C 0.5199 0.01673 0.06711 0.0
C558 C 0.50722 0.04462 0.07089 0.0
C559 C 0.49469 0.01679 0.08405 0.0
C560 C 0.49433 0.03513 0.08041 0.0
C561 C 0.50717 0.0074 0.07692 0.0
C562 C 0.5382 0.01737 0.99445 0.0
C563 C 0.562 0.0658 0.99771 0.0
C564 C 0.51925 0.05029 0.94544 0.0
C565 C 0.53334 0.06129 0.93662 0.0
C566 C 0.53404 0.08069 0.93568 0.0
C567 C 0.54755 0.05342 0.93172 0.0
C568 C 0.56291 0.08406 0.92535 0.0
C569 C 0.56221 0.06471 0.9262 0.0
C570 C 0.54872 0.09198 0.93005 0.0
C571 C 0.5174 0.07624 0.00558 0.0
O572 O 0.50525 0.03802 0.01793 0.0
O573 O 0.49573 0.03117 0.98644 0.0
O574 O 0.54251 0.03519 0.04434 0.0
O575 O 0.53021 0.05968 0.04674 0.0
O576 O 0.54929 0.02469 0.00922 0.0
O577 O 0.52467 0.0242 0.99438 0.0
O578 O 0.55088 0.05734 0.98269 0.0
O579 O 0.55752 0.06617 0.01465 0.0
O580 O 0.51193 0.06062 0.95719 0.0
O581 O 0.52252 0.03513 0.95166 0.0
O582 O 0.50538 0.06858 0.99175 0.0
O583 O 0.53053 0.06901 0.00478 0.0
H584 H 0.52971 0.00935 0.06215 0.0
H585 H 0.50706 0.05909 0.0689 0.0
H586 H 0.48495 0.04269 0.08624 0.0
H587 H 0.50779 0.99338 0.08005 0.0
H588 H 0.52338 0.08724 0.93962 0.0
H589 H 0.54752 0.03861 0.93242 0.0
H590 H 0.5728 0.05814 0.92206 0.0
H591 H 0.54897 0.10682 0.92923 0.0
Gd592 Gd 0.28704 0.29349 0.26482 0.0
Gd593 Gd 0.27331 0.25185 0.24885 0.0
C594 C 0.24611 0.27502 0.26207 0.0
C595 C 0.2931 0.32971 0.26799 0.0
C596 C 0.28132 0.34199 0.27387 0.0
C597 C 0.28631 0.35564 0.2901 0.0
C598 C 0.26463 0.3395 0.2638 0.0
C599 C 0.25928 0.36599 0.28449 0.0
C600 C 0.25363 0.3514 0.26917 0.0
C601 C 0.27531 0.36773 0.29536 0.0
C602 C 0.28423 0.27487 0.29457 0.0
C603 C 0.31536 0.27009 0.25706 0.0
C604 C 0.26769 0.21567 0.23767 0.0
C605 C 0.27952 0.20257 0.2374 0.0
C606 C 0.27999 0.19046 0.22077 0.0
C607 C 0.29173 0.20358 0.25293 0.0
C608 C 0.30475 0.18039 0.23523 0.0
C609 C 0.30415 0.19246 0.2519 0.0
C610 C 0.29255 0.17942 0.21967 0.0
C611 C 0.27281 0.27655 0.22435 0.0
O612 O 0.25809 0.28997 0.25998 0.0
O613 O 0.24932 0.25783 0.26051 0.0
O614 O 0.29922 0.32127 0.28094 0.0
O615 O 0.28799 0.31848 0.25193 0.0
O616 O 0.28944 0.29309 0.29548 0.0
O617 O 0.28035 0.267 0.27763 0.0
O618 O 0.30267 0.25439 0.25438 0.0
O619 O 0.31235 0.28725 0.26002 0.0
O620 O 0.27105 0.22821 0.22655 0.0
O621 O 0.26433 0.223 0.25407 0.0
O622 O 0.26002 0.26207 0.2247 0.0
O623 O 0.28517 0.27703 0.23679 0.0
H624 H 0.29895 0.35744 0.29826 0.0
H625 H 0.26021 0.32878 0.25144 0.0
H626 H 0.24141 0.35031 0.26044 0.0
H627 H 0.27987 0.37931 0.30699 0.0
H628 H 0.2709 0.18988 0.20853 0.0
H629 H 0.29185 0.21313 0.26581 0.0
H630 H 0.31318 0.19319 0.26422 0.0
H631 H 0.29286 0.17032 0.20664 0.0
Gd632 Gd 0.54529 0.5481 0.021 0.0
Gd633 Gd 0.5517 0.51233 0.00631 0.0
C634 C 0.53586 0.53314 0.97563 0.0
C635 C 0.54396 0.58355 0.02511 0.0
C636 C 0.54341 0.59658 0.01147 0.0
C637 C 0.53049 0.6073 0.01154 0.0
C638 C 0.55534 0.59812 0.99807 0.0
C639 C 0.54236 0.62231 0.9862 0.0
C640 C 0.55485 0.61094 0.98557 0.0
C641 C 0.52992 0.62002 0.99899 0.0
C642 C 0.51794 0.51901 0.02421 0.0
C643 C 0.56108 0.52742 0.05203 0.0
C644 C 0.55473 0.47743 1.0005 0.0
C645 C 0.55623 0.46408 0.01346 0.0
C646 C 0.56822 0.45224 0.01132 0.0
C647 C 0.546 0.46343 0.02836 0.0
C648 C 0.55814 0.43765 0.03741 0.0
C649 C 0.54688 0.45019 0.04018 0.0
C650 C 0.5692 0.43904 0.02332 0.0
C651 C 0.57849 0.54175 1.00312 0.0
O652 O 0.54046 0.54791 0.98938 0.0
O653 O 0.53753 0.51617 0.97901 0.0
O654 O 0.52997 0.5698 0.02405 0.0
O655 O 0.55862 0.57788 0.02781 0.0
O656 O 0.52448 0.53372 0.03706 0.0
O657 O 0.52624 0.5203 0.01008 0.0
O658 O 0.55697 0.51258 0.03819 0.0
O659 O 0.55891 0.54424 0.04854 0.0
O660 O 0.56815 0.49187 1.00205 0.0
O661 O 0.53959 0.4823 0.9986 0.0
O662 O 0.57213 0.52725 0.99005 0.0
O663 O 0.57039 0.53997 0.01725 0.0
H664 H 0.52094 0.606 0.02147 0.0
H665 H 0.56524 0.58969 0.99743 0.0
H666 H 0.56465 0.61247 0.97593 0.0
H667 H 0.51994 0.62834 0.99952 0.0
H668 H 0.57647 0.45292 1.00013 0.0
H669 H 0.537 0.47279 0.03061 0.0
H670 H 0.53831 0.44926 0.0511 0.0
H671 H 0.57791 0.42936 0.02108 0.0
Gd672 Gd 0.81751 0.31162 0.26385 0.0
Gd673 Gd 0.78532 0.28186 0.26572 0.0
C674 C 0.82117 0.26596 0.26754 0.0
C675 C 0.84813 0.33388 0.27121 0.0
C676 C 0.86564 0.32966 0.27311 0.0
C677 C 0.87661 0.33252 0.25902 0.0
C678 C 0.87098 0.3214 0.28827 0.0
C679 C 0.89788 0.31883 0.27517 0.0
C680 C 0.88695 0.31598 0.28924 0.0
C681 C 0.89272 0.32718 0.26008 0.0
C682 C 0.80174 0.29242 0.23089 0.0
C683 C 0.78102 0.32682 0.26195 0.0
C684 C 0.75427 0.26123 0.25696 0.0
C685 C 0.73791 0.26734 0.25234 0.0
C686 C 0.72565 0.2678 0.2653 0.0
C687 C 0.73486 0.2738 0.23532 0.0
C688 C 0.707 0.27939 0.24363 0.0
C689 C 0.71948 0.27974 0.231 0.0
C690 C 0.71025 0.27385 0.26096 0.0
C691 C 0.80144 0.30123 0.2985 0.0
O692 O 0.82918 0.2846 0.26886 0.0
O693 O 0.80367 0.26109 0.26517 0.0
O694 O 0.83968 0.32933 0.25435 0.0
O695 O 0.83815 0.3293 0.28417 0.0
O696 O 0.80886 0.31057 0.23337 0.0
O697 O 0.8041 0.28568 0.24554 0.0
O698 O 0.77336 0.30831 0.26117 0.0
O699 O 0.79853 0.332 0.26386 0.0
O700 O 0.76144 0.26627 0.27436 0.0
O701 O 0.76572 0.26343 0.24488 0.0
O702 O 0.7944 0.28301 0.29617 0.0
O703 O 0.79877 0.30792 0.28388 0.0
H704 H 0.87269 0.33875 0.24715 0.0
H705 H 0.86284 0.31899 0.29937 0.0
H706 H 0.89099 0.31004 0.30128 0.0
H707 H 0.90118 0.32966 0.24926 0.0
H708 H 0.72785 0.26317 0.2786 0.0
H709 H 0.74415 0.27398 0.22512 0.0
H710 H 0.71695 0.28382 0.21748 0.0
H711 H 0.7005 0.27329 0.27068 0.0
Gd712 Gd 0.03285 0.54634 0.52322 0.0
Gd713 Gd 0.02403 0.54711 0.48318 0.0
C714 C 0.99253 0.53564 0.50406 0.0
C715 C 0.03143 0.54513 0.55774 0.0
C716 C 0.01699 0.53406 0.56597 0.0
C717 C 0.01752 0.51559 0.56936 0.0
C718 C 1.0021 0.54134 0.56954 0.0
C719 C 0.99022 0.51344 0.58282 0.0
C720 C 0.98872 0.531 0.57781 0.0
C721 C 1.00416 0.50532 0.57771 0.0
C722 C 0.03719 0.5159 0.50051 0.0
C723 C 0.06413 0.56248 0.50347 0.0
C724 C 0.02465 0.54743 0.44836 0.0
C725 C 0.03752 0.56031 0.43979 0.0
C726 C 0.03352 0.57706 0.43475 0.0
C727 C 0.05452 0.55719 0.43852 0.0
C728 C 0.06291 0.5867 0.42634 0.0
C729 C 0.06712 0.57031 0.4319 0.0
C730 C 0.04613 0.59015 0.42804 0.0
C731 C 0.02174 0.57867 0.50607 0.0
O732 O 1.00368 0.54242 0.51919 0.0
O733 O 0.99788 0.53145 0.48774 0.0
O734 O 0.04032 0.53501 0.5477 0.0
O735 O 0.02797 0.55945 0.55017 0.0
O736 O 0.04779 0.52433 0.51525 0.0
O737 O 0.0241 0.52336 0.49854 0.0
O738 O 0.05384 0.5541 0.48795 0.0
O739 O 0.05804 0.5648 0.51965 0.0
O740 O 0.01428 0.5558 0.45801 0.0
O741 O 0.03056 0.53475 0.45666 0.0
O742 O 0.01029 0.57086 0.49183 0.0
O743 O 0.03365 0.56973 0.50735 0.0
H744 H 0.02862 0.50939 0.56633 0.0
H745 H 1.00111 0.55535 0.56668 0.0
H746 H 0.97816 0.53759 0.58206 0.0
H747 H 0.00556 0.49189 0.58183 0.0
H748 H 0.02061 0.58002 0.43593 0.0
H749 H 0.05812 0.54457 0.44253 0.0
H750 H 0.07988 0.56713 0.43021 0.0
H751 H 0.04264 0.60263 0.42356 0.0
Gd752 Gd 0.77888 0.79257 0.27249 0.0
Gd753 Gd 0.81624 0.78074 0.27486 0.0
C754 C 0.80144 0.79376 0.31274 0.0
C755 C 0.74619 0.79225 0.27735 0.0
C756 C 0.73486 0.7938 0.29279 0.0
C757 C 0.72623 0.80898 0.29528 0.0
C758 C 0.73132 0.77962 0.30414 0.0
C759 C 0.70931 0.7947 0.31855 0.0
C760 C 0.71882 0.78013 0.31687 0.0
C761 C 0.71368 0.80945 0.30795 0.0
C762 C 0.8059 0.82496 0.27273 0.0
C763 C 0.79262 0.77605 0.23445 0.0
C764 C 0.8492 0.78142 0.2719 0.0
C765 C 0.86081 0.77798 0.25724 0.0
C766 C 0.86776 0.76153 0.25549 0.0
C767 C 0.86607 0.79165 0.24577 0.0
C768 C 0.88547 0.77286 0.23164 0.0
C769 C 0.8782 0.78911 0.23314 0.0
C770 C 0.87993 0.75898 0.24283 0.0
C771 C 0.78944 0.74902 0.27634 0.0
O772 O 0.78642 0.79337 0.30279 0.0
O773 O 0.81572 0.79113 0.30522 0.0
O774 O 0.75766 0.8076 0.2755 0.0
O775 O 0.75224 0.77677 0.27386 0.0
O776 O 0.78916 0.82442 0.27182 0.0
O777 O 0.80717 0.80767 0.27331 0.0
O778 O 0.80759 0.77554 0.2441 0.0
O779 O 0.77937 0.78179 0.24202 0.0
O780 O 0.83813 0.76659 0.27555 0.0
O781 O 0.84247 0.79651 0.27233 0.0
O782 O 0.80619 0.7495 0.2778 0.0
O783 O 0.78817 0.76605 0.27467 0.0
H784 H 0.72869 0.82019 0.28685 0.0
H785 H 0.73783 0.76781 0.30285 0.0
H786 H 0.71637 0.76878 0.32512 0.0
H787 H 0.70679 0.82095 0.30866 0.0
H788 H 0.86405 0.75077 0.26419 0.0
H789 H 0.86115 0.80458 0.24681 0.0
H790 H 0.88235 0.80026 0.22501 0.0
H791 H 0.8851 0.74621 0.24193 0.0
Gd792 Gd 0.79611 0.3031 0.76964 0.0
Gd793 Gd 0.78 0.31015 0.80868 0.0
C794 C 0.79138 0.34484 0.78703 0.0
C795 C 0.80132 0.29977 0.73544 0.0
C796 C 0.80879 0.31506 0.7254 0.0
C797 C 0.82656 0.31803 0.72236 0.0
C798 C 0.79879 0.32797 0.72047 0.0
C799 C 0.8239 0.34577 0.70852 0.0
C800 C 0.80631 0.34322 0.71211 0.0
C801 C 0.83409 0.33335 0.71404 0.0
C802 C 0.82185 0.30821 0.79933 0.0
C803 C 0.77842 0.26767 0.788 0.0
C804 C 0.77515 0.3141 0.84308 0.0
C805 C 0.76484 0.30046 0.85312 0.0
C806 C 0.7511 0.30535 0.86252 0.0
C807 C 0.7677 0.28192 0.85209 0.0
C808 C 0.74404 0.27373 0.87086 0.0
C809 C 0.75745 0.26872 0.86094 0.0
C810 C 0.74077 0.29206 0.87143 0.0
C811 C 0.75439 0.30451 0.77878 0.0
O812 O 0.79377 0.33327 0.77228 0.0
O813 O 0.78958 0.33979 0.80356 0.0
O814 O 0.81226 0.29612 0.74829 0.0
O815 O 0.78583 0.30013 0.74077 0.0
O816 O 0.82451 0.30616 0.78199 0.0
O817 O 0.80578 0.30868 0.79967 0.0
O818 O 0.77742 0.27867 0.80375 0.0
O819 O 0.78376 0.27381 0.77287 0.0
O820 O 0.76585 0.32045 0.83067 0.0
O821 O 0.78945 0.30976 0.83724 0.0
O822 O 0.75164 0.30739 0.79613 0.0
O823 O 0.77045 0.30394 0.77888 0.0
H824 H 0.83462 0.30849 0.72637 0.0
H825 H 0.78512 0.32626 0.72291 0.0
H826 H 0.79809 0.35243 0.70761 0.0
H827 H 0.84769 0.33513 0.71131 0.0
H828 H 0.74844 0.31946 0.86303 0.0
H829 H 0.77795 0.27758 0.84459 0.0
H830 H 0.76053 0.25482 0.86065 0.0
H831 H 0.7305 0.29617 0.87904 0.0
Gd832 Gd 0.78741 0.79482 0.7658 0.0
Gd833 Gd 0.77438 0.75378 0.74932 0.0
C834 C 0.74615 0.77511 0.76234 0.0
C835 C 0.79326 0.83102 0.76903 0.0
C836 C 0.78124 0.843 0.7746 0.0
C837 C 0.78657 0.85807 0.7896 0.0
C838 C 0.764 0.83884 0.76544 0.0
C839 C 0.75866 0.86659 0.78406 0.0
C840 C 0.75275 0.85059 0.7702 0.0
C841 C 0.77526 0.86996 0.79431 0.0
C842 C 0.78563 0.77601 0.79536 0.0
C843 C 0.81611 0.7722 0.75807 0.0
C844 C 0.76936 0.71808 0.73604 0.0
C845 C 0.78083 0.70472 0.73563 0.0
C846 C 0.7785 0.68991 0.72044 0.0
C847 C 0.7948 0.70737 0.74979 0.0
C848 C 0.80289 0.67924 0.73459 0.0
C849 C 0.80575 0.69461 0.74931 0.0
C850 C 0.78956 0.67715 0.7199 0.0
C851 C 0.77394 0.77876 0.72525 0.0
O852 O 0.75807 0.79083 0.762 0.0
O853 O 0.74994 0.75824 0.76042 0.0
O854 O 0.79916 0.8226 0.78212 0.0
O855 O 0.78842 0.81981 0.7529 0.0
O856 O 0.79078 0.79424 0.79633 0.0
O857 O 0.78155 0.76804 0.77845 0.0
O858 O 0.80349 0.75656 0.75617 0.0
O859 O 0.81298 0.78931 0.7603 0.0
O860 O 0.77381 0.73156 0.72615 0.0
O861 O 0.76521 0.72429 0.75245 0.0
O862 O 0.76067 0.765 0.72614 0.0
O863 O 0.78626 0.77905 0.73762 0.0
H864 H 0.79966 0.86108 0.79711 0.0
H865 H 0.75939 0.82703 0.75405 0.0
H866 H 0.74002 0.84816 0.76199 0.0
H867 H 0.77993 0.88256 0.80485 0.0
H868 H 0.768 0.68808 0.7092 0.0
H869 H 0.79705 0.71906 0.76138 0.0
H870 H 0.81611 0.69636 0.76069 0.0
H871 H 0.78727 0.66525 0.70852 0.0
Gd872 Gd 0.53364 0.53803 0.51559 0.0
Gd873 Gd 0.56853 0.55562 0.5377 0.0
C874 C 0.5491 0.58379 0.51961 0.0
C875 C 0.50015 0.52925 0.50553 0.0
C876 C 0.48698 0.54081 0.50662 0.0
C877 C 0.47074 0.53425 0.49564 0.0
C878 C 0.49132 0.55932 0.51694 0.0
C879 C 0.46315 0.5648 0.50508 0.0
C880 C 0.47963 0.57132 0.51598 0.0
C881 C 0.45882 0.54603 0.49506 0.0
C882 C 0.55785 0.53596 0.48981 0.0
C883 C 0.55332 0.50983 0.53407 0.0
C884 C 0.60183 0.56454 0.54889 0.0
C885 C 0.61531 0.55327 0.54946 0.0
C886 C 0.62596 0.55471 0.56627 0.0
C887 C 0.61651 0.53978 0.53411 0.0
C888 C 0.63933 0.52967 0.55231 0.0
C889 C 0.62854 0.52821 0.53547 0.0
C890 C 0.63781 0.54295 0.56773 0.0
C891 C 0.54411 0.55827 0.56315 0.0
O892 O 0.53508 0.56957 0.51664 0.0
O893 O 0.56453 0.58167 0.52645 0.0
O894 O 0.51175 0.53421 0.49431 0.0
O895 O 0.50718 0.52605 0.52136 0.0
O896 O 0.54103 0.52937 0.48668 0.0
O897 O 0.56141 0.54301 0.50732 0.0
O898 O 0.56707 0.52438 0.5379 0.0
O899 O 0.53818 0.51155 0.52594 0.0
O900 O 0.58982 0.56037 0.55988 0.0
O901 O 0.59532 0.56697 0.5325 0.0
O902 O 0.56081 0.56561 0.5661 0.0
O903 O 0.54068 0.55101 0.54573 0.0
H904 H 0.46732 0.52007 0.48741 0.0
H905 H 0.50386 0.56463 0.5255 0.0
H906 H 0.48366 0.58571 0.52366 0.0
H907 H 0.44612 0.54021 0.48691 0.0
H908 H 0.62489 0.56473 0.57839 0.0
H909 H 0.60814 0.5381 0.5211 0.0
H910 H 0.62956 0.51836 0.52321 0.0
H911 H 0.6457 0.5442 0.58097 0.0
Gd912 Gd 0.05404 0.53232 0.02684 0.0
Gd913 Gd 0.01422 0.53254 0.03239 0.0
C914 C 0.02459 0.49281 0.02531 0.0
C915 C 0.08538 0.52555 0.02759 0.0
C916 C 0.09498 0.5099 0.02418 0.0
C917 C 0.10182 0.50603 0.00711 0.0
C918 C 0.09941 0.5004 0.03878 0.0
C919 C 0.11882 0.48539 0.0202 0.0
C920 C 0.11118 0.48835 0.03682 0.0
C921 C 0.11352 0.49379 0.00511 0.0
C922 C 0.03292 0.53288 0.99662 0.0
C923 C 0.04364 0.57263 0.03475 0.0
C924 C 0.98235 0.53714 0.03245 0.0
C925 C 0.9728 0.55245 0.03688 0.0
C926 C 0.96244 0.55191 0.05168 0.0
C927 C 0.97287 0.56682 0.02582 0.0
C928 C 0.95133 0.57887 0.04343 0.0
C929 C 0.96226 0.57994 0.02911 0.0
C930 C 0.95179 0.56498 0.05493 0.0
C931 C 0.03581 0.53213 0.06235 0.0
O932 O 0.04126 0.50205 0.02968 0.0
O933 O 0.0117 0.50161 0.02234 0.0
O934 O 0.07734 0.53039 0.01316 0.0
O935 O 0.07673 0.5264 0.04219 0.0
O936 O 0.04965 0.54034 0.99853 0.0
O937 O 0.02862 0.52378 0.00947 0.0
O938 O 0.0268 0.56351 0.03171 0.0
O939 O 0.0568 0.56378 0.03598 0.0
O940 O 0.99094 0.53232 0.04653 0.0
O941 O 0.99073 0.53718 0.01766 0.0
O942 O 0.01938 0.52327 0.06017 0.0
O943 O 0.03947 0.54124 0.04941 0.0
H944 H 0.0988 0.51317 0.99559 0.0
H945 H 0.09448 0.50299 0.05211 0.0
H946 H 0.11493 0.48195 0.04864 0.0
H947 H 0.11926 0.49185 0.99217 0.0
H948 H 0.96216 0.541 0.06043 0.0
H949 H 0.98069 0.56762 0.01428 0.0
H950 H 0.96201 0.59037 0.01991 0.0
H951 H 0.9436 0.56396 0.06615 0.0
C952 C 0.01081 0.2236 0.9596 0.0
C953 C 0.01662 0.22501 0.94203 0.0
C954 C 0.01527 0.21008 0.96999 0.0
C955 C 0.0463 0.17708 0.97298 0.0
H956 H 0.01227 0.15298 1.00279 0.0
C957 C 0.06026 0.11717 0.01327 0.0
C958 C 0.04582 0.10229 0.01439 0.0
C959 C 0.05767 0.13376 0.00666 0.0
C960 C 0.02192 0.15931 0.99437 0.0
H961 H 0.03205 0.21362 0.92184 0.0
H962 H 0.03953 0.18988 0.93961 0.0
H963 H 0.00566 0.17766 0.9862 0.0
H964 H 0.01732 0.0935 0.00998 0.0
H965 H 0.01284 0.12168 0.99807 0.0
H966 H 0.06204 0.1578 0.98012 0.0
C967 C 0.03163 0.19924 0.94558 0.0
C968 C 0.01822 0.17386 0.98506 0.0
C969 C 0.0271 0.21269 0.93518 0.0
C970 C 0.02879 0.10461 0.00925 0.0
C971 C 0.02621 0.12103 1.00257 0.0
C972 C 0.04985 0.16224 0.982 0.0
C973 C 0.02577 0.19766 0.96315 0.0
C974 C 0.03024 0.18284 0.974 0.0
C975 C 0.04058 0.13585 1.00095 0.0
C976 C 0.03758 0.15287 0.99262 0.0
H977 H 1.00285 0.23301 0.96536 0.0
H978 H 0.01068 0.20963 0.98353 0.0
H979 H 0.05615 0.18389 0.96504 0.0
H980 H 0.07358 0.11584 0.01708 0.0
H981 H 0.06912 0.14487 0.00598 0.0
C982 C 0.13503 0.80294 0.15146 0.0
C983 C 0.12202 0.81187 0.15839 0.0
C984 C 0.15023 0.80248 0.16309 0.0
C985 C 0.17653 0.82552 0.20955 0.0
H986 H 0.19726 0.78133 0.20333 0.0
C987 C 0.22595 0.81302 0.2675 0.0
C988 C 0.24034 0.8051 0.26306 0.0
C989 C 0.21284 0.81428 0.2537 0.0
C990 C 0.19183 0.79392 0.20517 0.0
H991 H 0.11498 0.82733 0.18317 0.0
H992 H 0.1411 0.82642 0.20337 0.0
H993 H 0.17202 0.7826 0.18173 0.0
H994 H 0.25182 0.79192 0.24014 0.0
H995 H 0.22875 0.79406 0.21577 0.0
H996 H 0.19609 0.83672 0.23309 0.0
C997 C 0.13988 0.81999 0.18887 0.0
C998 C 0.17725 0.79468 0.1927 0.0
C999 C 0.12473 0.82043 0.17726 0.0
C1000 C 0.24114 0.79837 0.24413 0.0
C1001 C 0.22776 0.79943 0.23017 0.0
C1002 C 0.19099 0.82472 0.222 0.0
C1003 C 0.15296 0.81098 0.18207 0.0
C1004 C 0.16915 0.8104 0.1948 0.0
C1005 C 0.21338 0.8075 0.23475 0.0
C1006 C 0.19879 0.8088 0.22027 0.0
H1007 H 0.13339 0.7961 0.13703 0.0
H1008 H 0.15992 0.79557 0.1571 0.0
H1009 H 0.17119 0.83816 0.21152 0.0
H1010 H 0.22477 0.81835 0.28186 0.0
H1011 H 0.20198 0.82028 0.25803 0.0
C1012 C 0.52583 0.82891 0.46351 0.0
C1013 C 0.51957 0.82486 0.44444 0.0
C1014 C 0.52746 0.84721 0.47345 0.0
C1015 C 0.50592 0.8858 0.47435 0.0
H1016 H 0.54784 0.9181 0.50382 0.0
C1017 C 0.50931 0.96379 0.50372 0.0
C1018 C 0.52071 0.97234 0.51992 0.0
C1019 C 0.50874 0.94503 0.49593 0.0
C1020 C 0.53591 0.90907 0.49602 0.0
H1021 H 0.51071 0.83666 0.42059 0.0
H1022 H 0.51308 0.86846 0.43813 0.0
H1023 H 0.54918 0.88698 0.48697 0.0
H1024 H 0.53947 0.96809 0.54158 0.0
H1025 H 0.53755 0.93469 0.52874 0.0
H1026 H 0.49236 0.90723 0.48369 0.0
C1027 C 0.51684 0.85755 0.44529 0.0
C1028 C 0.53678 0.8914 0.48626 0.0
C1029 C 0.51549 0.83942 0.43532 0.0
C1030 C 0.53061 0.96161 0.52902 0.0
C1031 C 0.52968 0.94265 0.52152 0.0
C1032 C 0.50493 0.9032 0.4844 0.0
C1033 C 0.52254 0.86144 0.46444 0.0
C1034 C 0.52183 0.87984 0.47519 0.0
C1035 C 0.51921 0.93437 0.50453 0.0
C1036 C 0.51996 0.91518 0.49514 0.0
H1037 H 0.52923 0.81791 0.47077 0.0
H1038 H 0.53185 0.85004 0.48828 0.0
H1039 H 0.4942 0.87687 0.46603 0.0
H1040 H 0.50182 0.97199 0.49631 0.0
H1041 H 0.5008 0.93932 0.48266 0.0
C1042 C 0.51026 0.30095 0.6391 0.0
C1043 C 0.52553 0.29736 0.64814 0.0
C1044 C 0.49395 0.29564 0.64574 0.0
C1045 C 0.46999 0.2646 0.67614 0.0
H1046 H 0.44146 0.30231 0.6803 0.0
C1047 C 0.41418 0.26312 0.72384 0.0
C1048 C 0.3995 0.27024 0.71825 0.0
C1049 C 0.42825 0.26374 0.71309 0.0
C1050 C 0.44904 0.29142 0.67895 0.0
H1051 H 0.53554 0.28473 0.67077 0.0
H1052 H 0.50714 0.27553 0.6824 0.0
H1053 H 0.46835 0.30851 0.66561 0.0
H1054 H 0.38761 0.28224 0.69618 0.0
H1055 H 0.41206 0.28331 0.67749 0.0
H1056 H 0.45073 0.24764 0.68978 0.0
C1057 C 0.50773 0.28247 0.67021 0.0
C1058 C 0.46453 0.29501 0.67052 0.0
C1059 C 0.52406 0.28796 0.66369 0.0
C1060 C 0.39887 0.27706 0.70115 0.0
C1061 C 0.41291 0.27768 0.69043 0.0
C1062 C 0.45443 0.26097 0.68456 0.0
C1063 C 0.49249 0.28643 0.66145 0.0
C1064 C 0.47534 0.28179 0.66921 0.0
C1065 C 0.428 0.2715 0.69649 0.0
C1066 C 0.44386 0.27446 0.68627 0.0
H1067 H 0.51093 0.30797 0.62695 0.0
H1068 H 0.48245 0.2987 0.63851 0.0
H1069 H 0.47787 0.25396 0.6751 0.0
H1070 H 0.41521 0.25788 0.73697 0.0
H1071 H 0.43967 0.25897 0.71829 0.0
C1072 C 0.02126 0.8242 0.64119 0.0
C1073 C 0.01042 0.80709 0.6315 0.0
C1074 C 0.02881 0.83839 0.63144 0.0
C1075 C 0.02317 0.85442 0.58632 0.0
H1076 H 0.07148 0.88296 0.60022 0.0
C1077 C 0.05604 0.90443 0.54061 0.0
C1078 C 0.06174 0.92335 0.54977 0.0
C1079 C 0.05253 0.88964 0.55087 0.0
C1080 C 0.058 0.87503 0.59628 0.0
H1081 H 0.99897 0.7912 0.60421 0.0
H1082 H 0.01226 0.81582 0.58722 0.0
H1083 H 0.05903 0.85812 0.61792 0.0
H1084 H 0.06935 0.94182 0.57653 0.0
H1085 H 0.06345 0.91566 0.59468 0.0
H1086 H 0.02215 0.87111 0.56462 0.0
C1087 C 0.01471 0.81849 0.6023 0.0
C1088 C 0.05085 0.86098 0.6064 0.0
C1089 C 0.00711 0.80439 0.61202 0.0
C1090 C 0.06501 0.92725 0.56929 0.0
C1091 C 0.06172 0.91237 0.57959 0.0
C1092 C 0.03036 0.86824 0.57612 0.0
C1093 C 0.02562 0.83561 0.61191 0.0
C1094 C 0.03336 0.85057 0.60147 0.0
C1095 C 0.05481 0.8936 0.57041 0.0
C1096 C 0.0478 0.8786 0.581 0.0
H1097 H 0.02416 0.82648 0.65623 0.0
H1098 H 0.03703 0.85155 0.63919 0.0
H1099 H 0.00955 0.84694 0.58247 0.0
H1100 H 0.05321 0.90121 0.52555 0.0
H1101 H 0.04722 0.87521 0.54358 0.0
C1102 C 0.53982 0.83609 0.85809 0.0
C1103 C 0.54229 0.82049 0.86641 0.0
C1104 C 0.52362 0.83564 0.8485 0.0
C1105 C 0.47735 0.80921 0.83839 0.0
H1106 H 0.48207 0.82568 0.79035 0.0
C1107 C 0.41762 0.79718 0.7849 0.0
C1108 C 0.41544 0.81407 0.77875 0.0
C1109 C 0.43393 0.79618 0.79335 0.0
C1110 C 0.4806 0.82104 0.80371 0.0
H1111 H 0.53007 0.79272 0.87242 0.0
H1112 H 0.50177 0.79137 0.85467 0.0
H1113 H 0.50819 0.82933 0.81228 0.0
H1114 H 0.42848 0.84246 0.77496 0.0
H1115 H 0.45699 0.84082 0.78984 0.0
H1116 H 0.44969 0.80101 0.82977 0.0
C1117 C 0.51214 0.80414 0.85594 0.0
C1118 C 0.49547 0.82328 0.81633 0.0
C1119 C 0.52827 0.80482 0.86593 0.0
C1120 C 0.43 0.82924 0.77947 0.0
C1121 C 0.44627 0.8283 0.78801 0.0
C1122 C 0.46245 0.80693 0.82573 0.0
C1123 C 0.50989 0.81933 0.8467 0.0
C1124 C 0.49396 0.81747 0.83379 0.0
C1125 C 0.4481 0.8121 0.79578 0.0
C1126 C 0.46399 0.81288 0.80832 0.0
H1127 H 0.5505 0.8485 0.85879 0.0
H1128 H 0.52202 0.84775 0.84195 0.0
H1129 H 0.47586 0.80476 0.85184 0.0
H1130 H 0.40646 0.7853 0.78429 0.0
H1131 H 0.43519 0.78341 0.79893 0.0
C1132 C 0.51156 0.20858 0.11875 0.0
C1133 C 0.49583 0.20783 0.12668 0.0
C1134 C 0.51497 0.19217 0.10925 0.0
C1135 C 0.50091 0.14011 0.09714 0.0
H1136 H 0.51645 0.15115 0.0499 0.0
C1137 C 0.49895 0.08691 0.02891 0.0
C1138 C 0.51513 0.08914 0.02166 0.0
C1139 C 0.49715 0.09935 0.04462 0.0
C1140 C 0.51225 0.14795 0.06311 0.0
H1141 H 0.47192 0.18964 0.13256 0.0
H1142 H 0.4773 0.16058 0.11439 0.0
H1143 H 0.51227 0.17692 0.07278 0.0
H1144 H 0.54218 0.10508 0.0248 0.0
H1145 H 0.53878 0.12762 0.05173 0.0
H1146 H 0.50039 0.11078 0.08673 0.0
C1147 C 0.48711 0.17385 0.11594 0.0
C1148 C 0.50994 0.16263 0.07621 0.0
C1149 C 0.48392 0.19036 0.12602 0.0
C1150 C 0.52959 0.10341 0.03028 0.0
C1151 C 0.5277 0.11608 0.04562 0.0
C1152 C 0.50305 0.12526 0.0838 0.0
C1153 C 0.50242 0.17489 0.10699 0.0
C1154 C 0.50451 0.1589 0.09342 0.0
C1155 C 0.51144 0.11422 0.05269 0.0
C1156 C 0.50891 0.12928 0.06687 0.0
H1157 H 0.52122 0.22192 0.11985 0.0
H1158 H 0.52713 0.19316 0.10297 0.0
H1159 H 0.49668 0.137 0.11034 0.0
H1160 H 0.4878 0.07563 0.02248 0.0
H1161 H 0.48451 0.09791 0.04994 0.0
C1162 C 0.14647 0.32186 0.36681 0.0
C1163 C 0.12915 0.32016 0.359 0.0
C1164 C 0.15891 0.31737 0.35548 0.0
C1165 C 0.16108 0.28962 0.30957 0.0
H1166 H 0.21048 0.31474 0.32034 0.0
C1167 C 0.21679 0.264 0.27295 0.0
C1168 C 0.23003 0.27875 0.2691 0.0
C1169 C 0.20342 0.26844 0.28307 0.0
C1170 C 0.19668 0.30771 0.31707 0.0
H1171 H 0.11134 0.31404 0.33327 0.0
H1172 H 0.13323 0.30709 0.31341 0.0
H1173 H 0.18959 0.32592 0.33922 0.0
H1174 H 0.23902 0.30959 0.27169 0.0
H1175 H 0.21591 0.31713 0.28878 0.0
H1176 H 0.16822 0.27219 0.28663 0.0
C1177 C 0.1371 0.31101 0.32829 0.0
C1178 C 0.18475 0.31394 0.32805 0.0
C1179 C 0.12463 0.31519 0.33964 0.0
C1180 C 0.22909 0.29784 0.2744 0.0
C1181 C 0.21593 0.30222 0.28445 0.0
C1182 C 0.17299 0.28366 0.29831 0.0
C1183 C 0.1542 0.31145 0.33617 0.0
C1184 C 0.16683 0.305 0.32438 0.0
C1185 C 0.20337 0.28763 0.28943 0.0
C1186 C 0.19083 0.29281 0.30189 0.0
H1187 H 0.15021 0.32581 0.38172 0.0
H1188 H 0.17197 0.31777 0.362 0.0
H1189 H 0.14738 0.28213 0.30668 0.0
H1190 H 0.21719 0.24916 0.26891 0.0
H1191 H 0.19369 0.25695 0.28667 0.0
C1192 C 0.97139 0.07491 0.21442 0.0
C1193 C 0.95432 0.06339 0.21432 0.0
C1194 C 0.98069 0.07437 0.19834 0.0
C1195 C 0.97984 0.0454 0.1489 0.0
H1196 H 0.01586 0.08889 0.14314 0.0
C1197 C 0.01476 0.04704 0.07854 0.0
C1198 C 0.03175 0.05878 0.07895 0.0
C1199 C 1.00529 0.04745 0.0946 0.0
C1200 C 0.00604 0.07632 0.14428 0.0
H1201 H 0.93417 0.04205 0.1962 0.0
H1202 H 0.94989 0.0411 0.16869 0.0
H1203 H 1.00064 0.0898 0.17077 0.0
H1204 H 0.05158 0.08018 0.09758 0.0
H1205 H 0.03569 0.08086 0.12461 0.0
H1206 H 0.98529 0.03191 0.1224 0.0
C1207 C 0.95645 0.05062 0.18122 0.0
C1208 C 0.99708 0.07688 0.16056 0.0
C1209 C 0.94715 0.05126 0.19724 0.0
C1210 C 0.03857 0.07092 0.09617 0.0
C1211 C 0.02919 0.07139 0.11203 0.0
C1212 C 0.98882 0.04483 0.13261 0.0
C1213 C 0.97354 0.06216 0.18114 0.0
C1214 C 0.98359 0.06147 0.16345 0.0
C1215 C 0.01222 0.05967 0.11193 0.0
C1216 C 1.00223 0.06028 0.12968 0.0
H1217 H 0.97768 0.0845 0.22704 0.0
H1218 H 0.99372 0.0835 0.19963 0.0
H1219 H 0.97002 0.03285 0.1501 0.0
H1220 H 0.00883 0.03726 0.06591 0.0
H1221 H 0.99236 0.03811 0.09326 0.0
C1222 C 0.25793 0.6566 0.4675 0.0
C1223 C 0.2749 0.66391 0.47706 0.0
C1224 C 0.25136 0.66632 0.45443 0.0
C1225 C 0.26409 0.7029 0.42559 0.0
H1226 H 0.22036 0.71743 0.43595 0.0
C1227 C 0.24782 0.76845 0.4044 0.0
C1228 C 0.2369 0.76316 0.38739 0.0
C1229 C 0.24836 0.75523 0.41627 0.0
C1230 C 0.23244 0.71322 0.43289 0.0
H1231 H 0.29868 0.68609 0.48006 0.0
H1232 H 0.28743 0.70284 0.45666 0.0
H1233 H 0.23074 0.69407 0.45275 0.0
H1234 H 0.21696 0.74094 0.36994 0.0
H1235 H 0.21747 0.71773 0.39133 0.0
H1236 H 0.26618 0.72266 0.40638 0.0
C1237 C 0.2792 0.68972 0.45931 0.0
C1238 C 0.2383 0.69988 0.44229 0.0
C1239 C 0.28565 0.68022 0.47261 0.0
C1240 C 0.22519 0.74525 0.38321 0.0
C1241 C 0.2255 0.73208 0.39532 0.0
C1242 C 0.25828 0.71623 0.41631 0.0
C1243 C 0.26183 0.68317 0.45061 0.0
C1244 C 0.25434 0.69496 0.43891 0.0
C1245 C 0.23778 0.73678 0.41132 0.0
C1246 C 0.24264 0.72165 0.4202 0.0
H1247 H 0.24931 0.64422 0.47111 0.0
H1248 H 0.23793 0.66108 0.44783 0.0
H1249 H 0.27641 0.69918 0.42274 0.0
H1250 H 0.2573 0.78205 0.40752 0.0
H1251 H 0.25814 0.75882 0.42843 0.0
C1252 C 0.64888 0.05145 0.69035 0.0
C1253 C 0.64228 0.04221 0.7047 0.0
C1254 C 0.63817 0.04969 0.67378 0.0
C1255 C 0.60062 0.01846 0.6453 0.0
H1256 H 0.59334 0.06412 0.62689 0.0
C1257 C 0.54411 0.01975 0.5908 0.0
C1258 C 0.54853 0.03142 0.57746 0.0
C1259 C 0.55665 0.01983 0.60546 0.0
C1260 C 0.59551 0.05128 0.63177 0.0
H1261 H 0.61971 0.02411 0.71355 0.0
H1262 H 0.601 0.02097 0.68441 0.0
H1263 H 0.614 0.06716 0.65463 0.0
H1264 H 0.56915 0.05201 0.56837 0.0
H1265 H 0.5912 0.05146 0.59347 0.0
H1266 H 0.582 1.00257 0.62252 0.0
C1267 C 0.61439 0.02937 0.68593 0.0
C1268 C 0.60724 0.05304 0.64751 0.0
C1269 C 0.62501 0.03125 0.7025 0.0
C1270 C 0.56554 0.0428 0.57852 0.0
C1271 C 0.57809 0.0426 0.59288 0.0
C1272 C 0.58895 0.01668 0.62947 0.0
C1273 C 0.62098 0.03853 0.67156 0.0
C1274 C 0.60967 0.03663 0.65436 0.0
C1275 C 0.5736 0.03147 0.60661 0.0
C1276 C 0.58629 0.0331 0.62276 0.0
H1277 H 0.66214 0.06018 0.69201 0.0
H1278 H 0.64329 0.05689 0.6627 0.0
H1279 H 0.60254 1.0057 0.65053 0.0
H1280 H 0.53098 0.01093 0.59009 0.0
H1281 H 0.55298 0.0113 0.61614 0.0
C1282 C 0.30374 0.37639 0.96805 0.0
C1283 C 0.29755 0.36594 0.98187 0.0
C1284 C 0.30384 0.36711 0.95001 0.0
C1285 C 0.28458 0.32543 0.91559 0.0
H1286 H 0.33056 0.33351 0.89799 0.0
C1287 C 0.29335 0.28777 0.84355 0.0
C1288 C 0.30517 0.29814 0.83335 0.0
C1289 C 0.29323 0.29418 0.86247 0.0
C1290 C 0.31755 0.33128 0.90247 0.0
H1291 H 0.2857 0.33783 0.9875 0.0
H1292 H 0.28552 0.32159 0.95558 0.0
H1293 H 0.32725 0.34925 0.92874 0.0
H1294 H 0.32628 0.32298 0.83452 0.0
H1295 H 0.32546 0.33498 0.86718 0.0
H1296 H 0.27455 0.30839 0.88909 0.0
C1297 C 0.29048 0.33691 0.95891 0.0
C1298 C 0.31572 0.34022 0.92016 0.0
C1299 C 0.29066 0.34617 0.97711 0.0
C1300 C 0.31725 0.31466 0.84231 0.0
C1301 C 0.31676 0.32145 0.86108 0.0
C1302 C 0.28631 0.31683 0.89768 0.0
C1303 C 0.2975 0.34729 0.9454 0.0
C1304 C 0.29924 0.33743 0.9268 0.0
C1305 C 0.30451 0.31149 0.87135 0.0
C1306 C 0.30283 0.31971 0.89083 0.0
H1307 H 0.30907 0.39166 0.97133 0.0
H1308 H 0.30915 0.37538 0.93971 0.0
H1309 H 0.27173 0.32317 0.92048 0.0
H1310 H 0.28397 0.2749 0.83677 0.0
H1311 H 0.28399 0.28576 0.86997 0.0
C1312 C 0.97447 0.06326 0.31842 0.0
C1313 C 0.95608 0.06179 0.31645 0.0
C1314 C 0.98364 0.06061 0.3352 0.0
C1315 C 0.97743 0.05495 0.38623 0.0
H1316 H 0.02179 0.03939 0.38579 0.0
C1317 C 0.00884 0.03113 0.45245 0.0
C1318 C 0.02727 0.03485 0.45661 0.0
C1319 C 1.00085 0.03435 0.43539 0.0
C1320 C 0.00947 0.04387 0.38639 0.0
H1321 H 0.93323 0.05627 0.33128 0.0
H1322 H 0.94866 0.05116 0.35973 0.0
H1323 H 0.00715 0.04528 0.35707 0.0
H1324 H 0.05169 0.04468 0.44551 0.0
H1325 H 0.03795 0.0502 0.4158 0.0
H1326 H 0.97969 0.0534 0.41548 0.0
C1327 C 0.95642 0.05485 0.34868 0.0
C1328 C 1.00093 0.04736 0.36964 0.0
C1329 C 0.94734 0.05767 0.33202 0.0
C1330 C 0.03746 0.0416 0.44288 0.0
C1331 C 0.02947 0.0447 0.42568 0.0
C1332 C 0.98587 0.05132 0.40287 0.0
C1333 C 0.97485 0.0562 0.35083 0.0
C1334 C 0.98455 0.05288 0.36903 0.0
C1335 C 0.01092 0.04142 0.42159 0.0
C1336 C 1.00206 0.04556 0.40342 0.0
H1337 H 0.98185 0.0664 0.30691 0.0
H1338 H 0.99774 0.06219 0.33583 0.0
H1339 H 0.96528 0.05969 0.38715 0.0
H1340 H 1.0005 0.02594 0.4626 0.0
H1341 H 0.98662 0.03114 0.43304 0.0
C1342 C 0.27317 0.67376 0.59118 0.0
C1343 C 0.28483 0.67872 0.57819 0.0
C1344 C 0.27391 0.68627 0.60775 0.0
C1345 C 0.30351 0.72543 0.63942 0.0
H1346 H 0.26114 0.7411 0.6528 0.0
C1347 C 0.30656 0.78804 0.6974 0.0
C1348 C 0.29497 0.78401 0.71066 0.0
C1349 C 0.30436 0.77576 0.68045 0.0
C1350 C 0.27303 0.73673 0.64925 0.0
H1351 H 0.30654 0.70009 0.57215 0.0
H1352 H 0.30807 0.72174 0.60126 0.0
H1353 H 0.25938 0.71669 0.62547 0.0
H1354 H 0.27159 0.76508 0.71652 0.0
H1355 H 0.26754 0.74365 0.68689 0.0
H1356 H 0.31718 0.74529 0.66317 0.0
C1357 C 0.29836 0.70832 0.59866 0.0
C1358 C 0.272 0.72276 0.63375 0.0
C1359 C 0.29744 0.69602 0.58204 0.0
C1360 C 0.28065 0.76831 0.70647 0.0
C1361 C 0.27831 0.75616 0.68949 0.0
C1362 C 0.30453 0.73932 0.65492 0.0
C1363 C 0.28653 0.70361 0.61155 0.0
C1364 C 0.28727 0.71717 0.62867 0.0
C1365 C 0.29045 0.75948 0.67659 0.0
C1366 C 0.28933 0.74519 0.65986 0.0
H1367 H 0.26322 0.66052 0.5883 0.0
H1368 H 0.26468 0.68242 0.61758 0.0
H1369 H 0.31541 0.72113 0.63581 0.0
H1370 H 0.31785 0.80001 0.70053 0.0
H1371 H 0.31381 0.77868 0.67061 0.0
C1372 C 0.65462 0.0496 0.82008 0.0
C1373 C 0.65671 0.05893 0.80473 0.0
C1374 C 0.64658 0.05724 0.83472 0.0
C1375 C 0.63116 0.10056 0.85353 0.0
H1376 H 0.60029 0.06354 0.87625 0.0
C1377 C 0.5731 0.10179 0.90041 0.0
C1378 C 0.57727 0.09469 0.91674 0.0
C1379 C 0.58524 0.10409 0.88758 0.0
C1380 C 0.60889 0.07395 0.86991 0.0
H1381 H 0.65337 0.08352 0.79236 0.0
H1382 H 0.63861 0.09643 0.81734 0.0
H1383 H 0.61646 0.05239 0.85158 0.0
H1384 H 0.59803 0.08774 0.93425 0.0
H1385 H 0.61928 0.09174 0.91169 0.0
H1386 H 0.62266 0.12204 0.87158 0.0
C1387 C 0.64337 0.08366 0.81864 0.0
C1388 C 0.6183 0.06763 0.85602 0.0
C1389 C 0.65166 0.07623 0.80429 0.0
C1390 C 0.59456 0.09304 0.9216 0.0
C1391 C 0.60668 0.09537 0.9088 0.0
C1392 C 0.62142 0.10687 0.86724 0.0
C1393 C 0.64035 0.07401 0.8338 0.0
C1394 C 0.62992 0.08086 0.84805 0.0
C1395 C 0.60155 0.09952 0.89128 0.0
C1396 C 0.6107 0.09355 0.87577 0.0
H1397 H 0.6586 0.03621 0.82041 0.0
H1398 H 0.64486 0.04976 0.84649 0.0
H1399 H 0.63996 0.11112 0.84761 0.0
H1400 H 0.55981 0.10312 0.89644 0.0
H1401 H 0.58116 0.10716 0.87399 0.0
C1402 C 0.29925 0.34515 0.08069 0.0
C1403 C 0.29819 0.3644 0.08225 0.0
C1404 C 0.29575 0.33498 0.09544 0.0
C1405 C 0.27395 0.33553 0.13894 0.0
H1406 H 0.30432 0.30223 0.15158 0.0
C1407 C 0.27168 0.30422 0.20776 0.0
C1408 C 0.27513 0.28606 0.20784 0.0
C1409 C 0.27388 0.3132 0.19205 0.0
C1410 C 0.29549 0.31121 0.14814 0.0
H1411 H 0.29228 0.38793 0.1005 0.0
H1412 H 0.2863 0.37031 0.12623 0.0
H1413 H 0.30895 0.31855 0.12491 0.0
H1414 H 0.28312 0.26271 0.19158 0.0
H1415 H 0.28658 0.27803 0.16394 0.0
H1416 H 0.26039 0.32811 0.16204 0.0
C1417 C 0.28976 0.36298 0.11357 0.0
C1418 C 0.29819 0.32063 0.13278 0.0
C1419 C 0.29336 0.37317 0.09886 0.0
C1420 C 0.28054 0.27684 0.19187 0.0
C1421 C 0.28264 0.28572 0.17609 0.0
C1422 C 0.27117 0.326 0.15422 0.0
C1423 C 0.29097 0.34376 0.11212 0.0
C1424 C 0.28758 0.33308 0.12805 0.0
C1425 C 0.27942 0.30411 0.17594 0.0
C1426 C 0.282 0.31381 0.15919 0.0
H1427 H 0.30278 0.33789 0.06803 0.0
H1428 H 0.2966 0.32015 0.09368 0.0
H1429 H 0.2653 0.34472 0.13555 0.0
H1430 H 0.26724 0.31148 0.21983 0.0
H1431 H 0.27146 0.3274 0.19268 0.0
C1432 C 0.24779 0.94106 0.0119 0.0
C1433 C 0.26508 0.95171 0.01691 0.0
C1434 C 0.23389 0.94791 0.01859 0.0
C1435 C 0.22274 0.98479 0.0533 0.0
H1436 H 0.18114 0.97538 0.01742 0.0
C1437 C 0.16063 0.01453 0.06713 0.0
C1438 C 0.15323 0.02097 0.05174 0.0
C1439 C 0.17406 1.00463 0.06503 0.0
C1440 C 0.19269 0.97824 0.0276 0.0
H1441 H 0.28165 0.97777 0.03289 0.0
H1442 H 0.25708 0.99044 0.04376 0.0
H1443 H 0.20557 0.96189 0.00931 0.0
H1444 H 0.15441 0.02341 0.02263 0.0
H1445 H 0.17809 1.00701 0.01908 0.0
H1446 H 0.21011 1.00266 0.0709 0.0
C1447 C 0.25432 0.97652 0.03508 0.0
C1448 C 0.20662 0.9702 0.02307 0.0
C1449 C 0.26833 0.96948 0.02857 0.0
C1450 C 0.15969 0.0181 0.03453 0.0
C1451 C 0.17317 0.00862 0.03252 0.0
C1452 C 0.20885 0.99331 0.05767 0.0
C1453 C 0.23695 0.96578 0.03008 0.0
C1454 C 0.22189 0.97355 0.03574 0.0
C1455 C 0.18023 1.00139 0.04758 0.0
C1456 C 0.19392 0.99049 0.04458 0.0
H1457 H 0.24497 0.92719 1.0031 0.0
H1458 H 0.22073 0.93907 0.0148 0.0
H1459 H 0.23422 0.98729 0.0635 0.0
H1460 H 0.15582 0.01682 0.08057 0.0
H1461 H 0.17933 0.99924 0.07687 0.0
C1462 C 0.72664 0.63673 0.99059 0.0
C1463 C 0.73186 0.65489 1.0017 0.0
C1464 C 0.70995 0.62511 0.99093 0.0
C1465 C 0.67322 0.61657 0.01984 0.0
H1466 H 0.64653 0.58897 0.97332 0.0
C1467 C 0.60168 0.5713 0.01726 0.0
C1468 C 0.5958 0.55517 1.0033 0.0
C1469 C 0.61806 0.58383 0.01732 0.0
C1470 C 0.65382 0.59622 0.98655 0.0
H1471 H 0.72363 0.67499 0.02205 0.0
H1472 H 0.69452 0.65462 0.02281 0.0
H1473 H 0.67517 0.60973 0.97301 0.0
H1474 H 0.60285 0.53926 0.97879 0.0
H1475 H 0.63152 0.56034 0.9793 0.0
H1476 H 0.65215 0.60274 0.03348 0.0
C1477 C 0.70334 0.64938 0.01377 0.0
C1478 C 0.67032 0.60829 0.98632 0.0
C1479 C 0.71998 0.66112 0.01324 0.0
C1480 C 0.60684 0.5517 0.98961 0.0
C1481 C 0.62332 0.56398 0.98985 0.0
C1482 C 0.65679 0.60428 0.02011 0.0
C1483 C 0.69807 0.63121 1.00257 0.0
C1484 C 0.68029 0.61862 1.00294 0.0
C1485 C 0.62921 0.58041 0.00359 0.0
C1486 C 0.64678 0.59381 1.00345 0.0
H1487 H 0.73549 0.63146 0.98159 0.0
H1488 H 0.70647 0.61116 0.98226 0.0
H1489 H 0.68059 0.62414 0.03294 0.0
H1490 H 0.59353 0.57435 0.02807 0.0
H1491 H 0.62182 0.59635 0.02804 0.0
C1492 C 0.7054 0.46872 0.26304 0.0
C1493 C 0.68935 0.4673 0.27102 0.0
C1494 C 0.71454 0.4535 0.26123 0.0
C1495 C 0.7164 0.40492 0.27752 0.0
H1496 H 0.75001 0.40246 0.24181 0.0
C1497 C 0.75268 0.33961 0.26729 0.0
C1498 C 0.76985 0.34226 0.26172 0.0
C1499 C 0.74282 0.35422 0.26798 0.0
C1500 C 0.74087 0.40277 0.25212 0.0
H1501 H 0.67075 0.44746 0.28317 0.0
H1502 H 0.68635 0.42146 0.28027 0.0
H1503 H 0.73365 0.42765 0.24358 0.0
H1504 H 0.7894 0.36335 0.25208 0.0
H1505 H 0.77241 0.38816 0.25273 0.0
H1506 H 0.72356 0.37993 0.28593 0.0
C1507 C 0.69221 0.43446 0.27538 0.0
C1508 C 0.73126 0.4176 0.25318 0.0
C1509 C 0.68297 0.44961 0.27697 0.0
C1510 C 0.77639 0.36031 0.25653 0.0
C1511 C 0.7664 0.37478 0.25684 0.0
C1512 C 0.72595 0.39005 0.27639 0.0
C1513 C 0.70839 0.43583 0.26749 0.0
C1514 C 0.71871 0.41932 0.26601 0.0
C1515 C 0.74932 0.37236 0.26278 0.0
C1516 C 0.73862 0.38847 0.26373 0.0
H1517 H 0.71101 0.48177 0.25806 0.0
H1518 H 0.72677 0.45592 0.25513 0.0
H1519 H 0.70734 0.40519 0.28789 0.0
H1520 H 0.74685 0.32621 0.27152 0.0
H1521 H 0.72986 0.35106 0.27248 0.0
C1522 C 0.86855 0.44304 0.53076 0.0
C1523 C 0.8578 0.43501 0.51408 0.0
C1524 C 0.88532 0.45382 0.53014 0.0
C1525 C 0.8979 0.4876 0.50163 0.0
H1526 H 0.94316 0.50049 0.53181 0.0
C1527 C 0.96154 0.52921 0.48966 0.0
C1528 C 0.97397 0.53489 0.50552 0.0
C1529 C 0.94375 0.52515 0.49181 0.0
C1530 C 0.93028 0.49733 0.52378 0.0
H1531 H 0.85609 0.42901 0.484 0.0
H1532 H 0.88556 0.44809 0.48286 0.0
H1533 H 0.92367 0.4696 0.53148 0.0
H1534 H 0.97782 0.54521 0.53545 0.0
H1535 H 0.94683 0.5376 0.53902 0.0
H1536 H 0.90474 0.51516 0.49353 0.0
C1537 C 0.88121 0.44609 0.4963 0.0
C1538 C 0.91945 0.4795 0.52326 0.0
C1539 C 0.86447 0.43531 0.49693 0.0
C1540 C 0.96849 0.5399 0.52304 0.0
C1541 C 0.95072 0.53613 0.52507 0.0
C1542 C 0.90876 0.50546 0.50214 0.0
C1543 C 0.89094 0.45674 0.51282 0.0
C1544 C 0.90335 0.47447 0.51196 0.0
C1545 C 0.93864 0.52626 0.50983 0.0
C1546 C 0.92509 0.51032 0.51303 0.0
H1547 H 0.86334 0.44279 0.54404 0.0
H1548 H 0.89277 0.46193 0.54302 0.0
H1549 H 0.88516 0.4841 0.4933 0.0
H1550 H 0.96548 0.52633 0.47586 0.0
H1551 H 0.93445 0.51813 0.47972 0.0
C1552 C 0.3982 0.08365 0.28858 0.0
C1553 C 0.39174 0.06403 0.28259 0.0
C1554 C 0.38984 0.0966 0.28138 0.0
C1555 C 0.36125 0.10185 0.24123 0.0
H1556 H 0.3518 0.14347 0.27552 0.0
C1557 C 0.31218 0.1488 0.22675 0.0
C1558 C 0.31757 0.16821 0.23459 0.0
C1559 C 0.32329 0.13649 0.22935 0.0
C1560 C 0.35465 0.1321 0.26578 0.0
H1561 H 0.37171 0.0423 0.26447 0.0
H1562 H 0.3569 0.06508 0.25197 0.0
H1563 H 0.36642 0.12053 0.28759 0.0
H1564 H 0.33933 0.19045 0.24942 0.0
H1565 H 0.3586 0.16878 0.2543 0.0
H1566 H 0.34891 0.1133 0.21946 0.0
C1567 C 0.36843 0.07039 0.26217 0.0
C1568 C 0.36293 0.11899 0.27267 0.0
C1569 C 0.3767 0.05742 0.26952 0.0
C1570 C 0.33474 0.17544 0.24364 0.0
C1571 C 0.34576 0.16313 0.24633 0.0
C1572 C 0.35284 0.11498 0.23431 0.0
C1573 C 0.37502 0.09005 0.26801 0.0
C1574 C 0.3663 0.1038 0.26047 0.0
C1575 C 0.3398 0.1435 0.23989 0.0
C1576 C 0.34958 0.1302 0.24658 0.0
H1577 H 0.4099 0.08899 0.29854 0.0
H1578 H 0.3952 0.11174 0.28597 0.0
H1579 H 0.36388 0.09027 0.23159 0.0
H1580 H 0.29898 0.14288 0.21977 0.0
H1581 H 0.31845 0.12133 0.22437 0.0
C1582 C 0.32448 0.1475 0.51912 0.0
C1583 C 0.32699 0.16492 0.51232 0.0
C1584 C 0.33889 0.14037 0.52505 0.0
C1585 C 0.38552 0.14325 0.51919 0.0
H1586 H 0.38524 0.11754 0.56232 0.0
C1587 C 0.44324 0.11055 0.54039 0.0
C1588 C 0.43862 0.09189 0.54434 0.0
C1589 C 0.43073 0.12167 0.53964 0.0
C1590 C 0.38548 0.12461 0.5502 0.0
H1591 H 0.34658 0.18863 0.50654 0.0
H1592 H 0.37181 0.17609 0.51676 0.0
H1593 H 0.36111 0.13266 0.55442 0.0
H1594 H 0.41747 0.07058 0.55151 0.0
H1595 H 0.39559 0.08987 0.55 0.0
H1596 H 0.40957 0.13484 0.51461 0.0
C1597 C 0.35867 0.16788 0.51739 0.0
C1598 C 0.37166 0.13325 0.54566 0.0
C1599 C 0.34424 0.17507 0.51154 0.0
C1600 C 0.42148 0.08497 0.54854 0.0
C1601 C 0.40893 0.09606 0.5477 0.0
C1602 C 0.3993 0.13459 0.52369 0.0
C1603 C 0.35615 0.15046 0.52425 0.0
C1604 C 0.37141 0.14245 0.52995 0.0
C1605 C 0.41327 0.11434 0.54271 0.0
C1606 C 0.39936 0.12497 0.53911 0.0
H1607 H 0.31136 0.13943 0.52006 0.0
H1608 H 0.33646 0.1268 0.53002 0.0
H1609 H 0.38563 0.14996 0.50685 0.0
H1610 H 0.45645 0.11641 0.53747 0.0
H1611 H 0.43463 0.13587 0.53621 0.0
C1612 C 0.70924 0.58126 0.28943 0.0
C1613 C 0.69175 0.57432 0.28082 0.0
C1614 C 0.71872 0.60025 0.28914 0.0
C1615 C 0.71826 0.64445 0.26534 0.0
H1616 H 0.75464 0.66926 0.30571 0.0
C1617 C 0.75817 0.72567 0.26941 0.0
C1618 C 0.77577 0.7309 0.27811 0.0
C1619 C 0.74714 0.70725 0.26977 0.0
C1620 C 0.74478 0.66273 0.29401 0.0
H1621 H 0.67093 0.58274 0.26482 0.0
H1622 H 0.68712 0.61531 0.26427 0.0
H1623 H 0.73814 0.6371 0.30597 0.0
H1624 H 0.79491 0.72009 0.29413 0.0
H1625 H 0.77635 0.68914 0.29486 0.0
H1626 H 0.725 0.67026 0.25343 0.0
C1627 C 0.69377 0.60618 0.27132 0.0
C1628 C 0.73509 0.64386 0.29419 0.0
C1629 C 0.68427 0.58727 0.27176 0.0
C1630 C 0.78153 0.71705 0.28735 0.0
C1631 C 0.77062 0.69896 0.28786 0.0
C1632 C 0.72802 0.66339 0.26514 0.0
C1633 C 0.71128 0.61332 0.28006 0.0
C1634 C 0.72161 0.63403 0.27982 0.0
C1635 C 0.75311 0.69331 0.279 0.0
C1636 C 0.74172 0.67307 0.2794 0.0
H1637 H 0.71569 0.57199 0.29651 0.0
H1638 H 0.73211 0.60451 0.29588 0.0
H1639 H 0.70827 0.63785 0.25376 0.0
H1640 H 0.75307 0.73551 0.26181 0.0
H1641 H 0.73385 0.704 0.26275 0.0
C1642 C 0.90361 0.45915 0.77525 0.0
C1643 C 0.90839 0.4707 0.79276 0.0
C1644 C 0.89048 0.44256 0.77331 0.0
C1645 C 0.85155 0.43809 0.79379 0.0
H1646 H 0.83548 0.38831 0.76318 0.0
C1647 C 0.79748 0.37907 0.80076 0.0
C1648 C 0.7927 0.36477 0.78504 0.0
C1649 C 0.80604 0.39729 0.79861 0.0
C1650 C 0.83974 0.40253 0.77126 0.0
H1651 H 0.90633 0.47298 0.8223 0.0
H1652 H 0.88369 0.44359 0.81902 0.0
H1653 H 0.86684 0.40321 0.76809 0.0
H1654 H 0.788 0.35911 0.75476 0.0
H1655 H 0.80362 0.39073 0.75116 0.0
H1656 H 0.82458 0.43725 0.79741 0.0
C1657 C 0.88971 0.44736 0.80682 0.0
C1658 C 0.85767 0.41074 0.77439 0.0
C1659 C 0.90259 0.46408 0.80872 0.0
C1660 C 0.79257 0.36979 0.76714 0.0
C1661 C 0.80118 0.38797 0.76502 0.0
C1662 C 0.83365 0.42994 0.79063 0.0
C1663 C 0.8823 0.43785 0.78891 0.0
C1664 C 0.86367 0.42831 0.78609 0.0
C1665 C 0.81001 0.40078 0.78082 0.0
C1666 C 0.82765 0.41193 0.77969 0.0
H1667 H 0.90807 0.46429 0.76284 0.0
H1668 H 0.88499 0.43524 0.75939 0.0
H1669 H 0.85594 0.45208 0.80231 0.0
H1670 H 0.79694 0.37568 0.81472 0.0
H1671 H 0.81228 0.40727 0.81102 0.0
C1672 C 0.06898 0.8551 0.08092 0.0
C1673 C 0.07172 0.8561 0.10038 0.0
C1674 C 0.06688 0.87122 0.07306 0.0
C1675 C 0.07204 0.92473 0.08643 0.0
H1676 H 0.0469 0.9195 0.03726 0.0
C1677 C 0.07016 0.99135 0.05275 0.0
C1678 C 0.05542 0.99178 0.04053 0.0
C1679 C 0.0719 0.97452 0.05919 0.0
C1680 C 0.05373 0.92131 0.05115 0.0
H1681 H 0.07405 0.87482 0.12678 0.0
H1682 H 0.06957 0.90226 0.11348 0.0
H1683 H 0.04975 0.89111 0.05015 0.0
H1684 H 0.03093 0.97456 0.02538 0.0
H1685 H 0.03371 0.94522 0.03692 0.0
H1686 H 0.07486 0.95474 0.08811 0.0
C1687 C 0.06974 0.88948 0.10395 0.0
C1688 C 0.0557 0.90487 0.05849 0.0
C1689 C 0.07214 0.87353 0.11173 0.0
C1690 C 0.04247 0.97478 0.0348 0.0
C1691 C 0.04416 0.95786 0.04135 0.0
C1692 C 0.06964 0.94103 0.07935 0.0
C1693 C 0.0672 0.88877 0.08445 0.0
C1694 C 0.06498 0.90626 0.07629 0.0
C1695 C 0.05886 0.95749 0.05382 0.0
C1696 C 0.06067 0.93971 0.06149 0.0
H1697 H 0.06845 0.84184 0.07173 0.0
H1698 H 0.06521 0.86984 0.05802 0.0
H1699 H 0.07968 0.92686 0.09992 0.0
H1700 H 0.08042 1.00411 0.05756 0.0
H1701 H 0.08367 0.97498 0.06833 0.0
C1702 C 0.9613 0.28455 0.87288 0.0
C1703 C 0.96137 0.27271 0.88659 0.0
C1704 C 0.94561 0.28895 0.86569 0.0
C1705 C 0.89629 0.27288 0.85989 0.0
H1706 H 0.89824 0.32401 0.84933 0.0
C1707 C 0.83318 0.2951 0.82761 0.0
C1708 C 0.83585 0.30773 0.8146 0.0
C1709 C 0.84768 0.29147 0.83848 0.0
C1710 C 0.89731 0.30953 0.85186 0.0
H1711 H 0.94458 0.25626 0.9034 0.0
H1712 H 0.91714 0.26348 0.89052 0.0
H1713 H 0.92453 0.31606 0.86317 0.0
H1714 H 0.85593 0.32648 0.80314 0.0
H1715 H 0.88072 0.3206 0.82182 0.0
H1716 H 0.86911 0.26623 0.84816 0.0
C1717 C 0.9293 0.26942 0.8853 0.0
C1718 C 0.91258 0.30496 0.85994 0.0
C1719 C 0.9451 0.26527 0.89275 0.0
C1720 C 0.85329 0.31701 0.81329 0.0
C1721 C 0.86764 0.31356 0.82413 0.0
C1722 C 0.88099 0.27741 0.8516 0.0
C1723 C 0.92927 0.2815 0.87172 0.0
C1724 C 0.91248 0.28648 0.8639 0.0
C1725 C 0.86529 0.30043 0.83674 0.0
C1726 C 0.88122 0.29579 0.84713 0.0
H1727 H 0.97351 0.29079 0.86791 0.0
H1728 H 0.94632 0.29815 0.85519 0.0
H1729 H 0.89553 0.25847 0.86259 0.0
H1730 H 0.82 0.28722 0.82864 0.0
H1731 H 0.84506 0.28135 0.84802 0.0
C1732 C 0.558 0.23652 0.60765 0.0
C1733 C 0.56319 0.25129 0.59739 0.0
C1734 C 0.55447 0.21747 0.59916 0.0
C1735 C 0.56412 0.1865 0.55856 0.0
H1736 H 0.52902 0.14831 0.57525 0.0
C1737 C 0.54895 0.10582 0.52748 0.0
C1738 C 0.5469 0.09335 0.5405 0.0
C1739 C 0.55037 0.12536 0.5332 0.0
C1740 C 0.53894 0.15881 0.57053 0.0
H1741 H 0.56811 0.25772 0.56996 0.0
H1742 H 0.56161 0.22424 0.55489 0.0
H1743 H 0.53135 0.18201 0.58674 0.0
H1744 H 0.54475 0.09091 0.56946 0.0
H1745 H 0.54735 0.12507 0.57959 0.0
H1746 H 0.57168 0.16317 0.54236 0.0
C1747 C 0.56067 0.22745 0.56967 0.0
C1748 C 0.54029 0.17814 0.57711 0.0
C1749 C 0.56434 0.24661 0.57826 0.0
C1750 C 0.54649 0.10048 0.55928 0.0
C1751 C 0.54778 0.11993 0.565 0.0
C1752 C 0.56267 0.16716 0.55187 0.0
C1753 C 0.55587 0.21264 0.58009 0.0
C1754 C 0.55315 0.19223 0.57151 0.0
C1755 C 0.54953 0.13255 0.55198 0.0
C1756 C 0.5503 0.15311 0.55807 0.0
H1757 H 0.55694 0.23965 0.62243 0.0
H1758 H 0.55112 0.20653 0.60773 0.0
H1759 H 0.5743 0.19691 0.55411 0.0
H1760 H 0.54907 0.1004 0.51288 0.0
H1761 H 0.55161 0.13474 0.52287 0.0
C1762 C 0.56261 0.76886 0.37486 0.0
C1763 C 0.56078 0.77774 0.39272 0.0
C1764 C 0.57905 0.77159 0.36805 0.0
C1765 C 0.62612 0.80151 0.37798 0.0
H1766 H 0.63279 0.76206 0.33951 0.0
C1767 C 0.68922 0.81017 0.33869 0.0
C1768 C 0.69401 0.79364 0.33 0.0
C1769 C 0.67388 0.80887 0.34773 0.0
C1770 C 0.63157 0.77317 0.35053 0.0
H1771 H 0.57505 0.79665 0.41746 0.0
H1772 H 0.60374 0.80081 0.40604 0.0
H1773 H 0.60567 0.75808 0.35292 0.0
H1774 H 0.6862 0.76269 0.32486 0.0
H1775 H 0.66077 0.76039 0.34146 0.0
H1776 H 0.65275 0.81588 0.37639 0.0
C1777 C 0.59248 0.79203 0.39691 0.0
C1778 C 0.61549 0.7711 0.358 0.0
C1779 C 0.57593 0.78949 0.40362 0.0
C1780 C 0.68331 0.77584 0.33142 0.0
C1781 C 0.66824 0.77453 0.3407 0.0
C1782 C 0.64249 0.80335 0.37082 0.0
C1783 C 0.59443 0.78305 0.37897 0.0
C1784 C 0.61222 0.7853 0.37166 0.0
C1785 C 0.66284 0.79098 0.34858 0.0
C1786 C 0.64552 0.78921 0.35684 0.0
H1787 H 0.55125 0.75981 0.36603 0.0
H1788 H 0.57949 0.76479 0.35398 0.0
H1789 H 0.62439 0.81301 0.38831 0.0
H1790 H 0.69721 0.8242 0.33833 0.0
H1791 H 0.67049 0.822 0.35355 0.0
C1792 C 0.08165 0.2729 0.43199 0.0
C1793 C 0.08208 0.27307 0.41284 0.0
C1794 C 0.07561 0.25575 0.43838 0.0
C1795 C 0.06862 0.20391 0.42571 0.0
H1796 H 0.03578 0.2031 0.46263 0.0
C1797 C 0.04316 0.13551 0.45581 0.0
C1798 C 0.042 0.13824 0.47506 0.0
C1799 C 0.04549 0.1511 0.4463 0.0
C1800 C 0.04508 0.20309 0.45246 0.0
H1801 H 0.07698 0.25556 0.38538 0.0
H1802 H 0.0665 0.22569 0.39659 0.0
H1803 H 0.04626 0.23244 0.45056 0.0
H1804 H 0.0425 0.15924 0.49949 0.0
H1805 H 0.04718 0.18631 0.48328 0.0
H1806 H 0.06813 0.17488 0.42811 0.0
C1807 C 0.07088 0.23872 0.40663 0.0
C1808 C 0.05104 0.2199 0.44555 0.0
C1809 C 0.07686 0.25582 0.40025 0.0
C1810 C 0.04298 0.15669 0.48457 0.0
C1811 C 0.04558 0.17223 0.47519 0.0
C1812 C 0.06288 0.18714 0.43283 0.0
C1813 C 0.07 0.23857 0.42572 0.0
C1814 C 0.06309 0.22053 0.43236 0.0
C1815 C 0.04702 0.1697 0.45598 0.0
C1816 C 0.05132 0.18665 0.4466 0.0
H1817 H 0.08555 0.28603 0.44195 0.0
H1818 H 0.07527 0.25593 0.45321 0.0
H1819 H 0.07792 0.20406 0.41551 0.0
H1820 H 0.04238 0.12136 0.44818 0.0
H1821 H 0.04628 0.14859 0.43144 0.0
C1822 C 0.55726 0.25224 0.17854 0.0
C1823 C 0.54675 0.26474 0.18474 0.0
C1824 C 0.57511 0.25646 0.18486 0.0
C1825 C 0.60791 0.285 0.22251 0.0
H1826 H 0.64035 0.27372 0.18744 0.0
C1827 C 0.68278 0.29686 0.24357 0.0
C1828 C 0.68937 0.28095 0.23707 0.0
C1829 C 0.66584 0.29782 0.23668 0.0
C1830 C 0.63142 0.277 0.19734 0.0
H1831 H 0.54636 0.29138 0.20223 0.0
H1832 H 0.57778 0.29893 0.21318 0.0
H1833 H 0.60931 0.26937 0.17635 0.0
H1834 H 0.68402 0.25358 0.21898 0.0
H1835 H 0.65436 0.25495 0.20728 0.0
H1836 H 0.63003 0.29217 0.24357 0.0
C1837 C 0.57215 0.28571 0.20374 0.0
C1838 C 0.61369 0.27443 0.19104 0.0
C1839 C 0.55422 0.28138 0.19755 0.0
C1840 C 0.67906 0.26602 0.22391 0.0
C1841 C 0.66223 0.2669 0.21715 0.0
C1842 C 0.62568 0.28761 0.22881 0.0
C1843 C 0.58275 0.27337 0.19731 0.0
C1844 C 0.60173 0.27793 0.20366 0.0
C1845 C 0.65552 0.28284 0.22336 0.0
C1846 C 0.63745 0.28312 0.21635 0.0
H1847 H 0.55173 0.23934 0.1686 0.0
H1848 H 0.58293 0.2465 0.17998 0.0
H1849 H 0.59892 0.2877 0.23253 0.0
H1850 H 0.69075 0.30847 0.25375 0.0
H1851 H 0.66086 0.31023 0.24163 0.0
C1852 C 0.58949 0.8898 0.9065 0.0
C1853 C 0.59138 0.87574 0.91745 0.0
C1854 C 0.58284 0.90534 0.91361 0.0
C1855 C 0.57601 0.93214 0.95772 0.0
H1856 H 0.53993 0.94788 0.92774 0.0
C1857 C 0.53895 0.98357 0.99142 0.0
C1858 C 0.53904 0.99968 0.98297 0.0
C1859 C 0.54296 0.9675 0.98164 0.0
C1860 C 0.55004 0.9436 0.93616 0.0
H1861 H 0.58811 0.86693 0.94434 0.0
H1862 H 0.5765 0.89401 0.95675 0.0
H1863 H 0.5531 0.92206 0.91418 0.0
H1864 H 0.54283 0.01199 0.95789 0.0
H1865 H 0.55008 0.98371 0.94059 0.0
H1866 H 0.573 0.95344 0.97967 0.0
C1867 C 0.58038 0.8932 0.94281 0.0
C1868 C 0.55762 0.92898 0.92843 0.0
C1869 C 0.58709 0.87775 0.93576 0.0
C1870 C 0.54232 0.99941 0.96438 0.0
C1871 C 0.54649 0.98332 0.95457 0.0
C1872 C 0.56842 0.94658 0.96541 0.0
C1873 C 0.57804 0.90702 0.93175 0.0
C1874 C 0.57054 0.92304 0.93927 0.0
C1875 C 0.54745 0.96756 0.96342 0.0
C1876 C 0.55524 0.95226 0.9548 0.0
H1877 H 0.59253 0.88845 0.89223 0.0
H1878 H 0.58133 0.91593 0.90489 0.0
H1879 H 0.58622 0.92812 0.96623 0.0
H1880 H 0.5365 0.98372 0.00584 0.0
H1881 H 0.5434 0.95537 0.98863 0.0
C1882 C 0.95175 0.75626 0.70097 0.0
C1883 C 0.95141 0.75474 0.68163 0.0
C1884 C 0.93616 0.75441 0.70891 0.0
C1885 C 0.89146 0.76037 0.69862 0.0
H1886 H 0.88751 0.74441 0.74691 0.0
C1887 C 0.84334 0.78435 0.74495 0.0
C1888 C 0.83347 0.77039 0.7537 0.0
C1889 C 0.8578 0.78078 0.73659 0.0
C1890 C 0.88826 0.74863 0.73329 0.0
H1891 H 0.93485 0.74887 0.65513 0.0
H1892 H 0.90735 0.7449 0.66901 0.0
H1893 H 0.91089 0.73731 0.7293 0.0
H1894 H 0.83146 0.74265 0.76206 0.0
H1895 H 0.85683 0.73627 0.74734 0.0
H1896 H 0.86831 0.77085 0.70222 0.0
C1897 C 0.91965 0.74815 0.67809 0.0
C1898 C 0.90174 0.74476 0.72331 0.0
C1899 C 0.93532 0.75041 0.67017 0.0
C1900 C 0.83893 0.75349 0.75526 0.0
C1901 C 0.85342 0.74991 0.74688 0.0
C1902 C 0.87768 0.76374 0.70837 0.0
C1903 C 0.91999 0.75061 0.69756 0.0
C1904 C 0.90385 0.75124 0.70624 0.0
C1905 C 0.86252 0.76322 0.73689 0.0
C1906 C 0.87634 0.75846 0.72605 0.0
H1907 H 0.96408 0.75952 0.71003 0.0
H1908 H 0.93691 0.7568 0.72397 0.0
H1909 H 0.8928 0.7657 0.68557 0.0
H1910 H 0.83925 0.79748 0.74343 0.0
H1911 H 0.86488 0.79147 0.72935 0.0
C1912 C 0.11977 0.02691 0.831 0.0
C1913 C 0.13502 0.01935 0.82945 0.0
C1914 C 0.1119 0.02898 0.84804 0.0
C1915 C 0.11216 0.01442 0.89759 0.0
H1916 H 0.08533 0.05302 0.90739 0.0
C1917 C 0.08441 0.02857 0.97173 0.0
C1918 C 0.07 0.03744 0.97349 0.0
C1919 C 0.09236 0.02653 0.95469 0.0
C1920 C 0.09254 0.04189 0.90519 0.0
H1921 H 0.15325 0.00774 0.84583 0.0
H1922 H 0.13977 0.01096 0.87483 0.0
H1923 H 0.09786 0.04891 0.87812 0.0
H1924 H 0.05287 0.05065 0.9575 0.0
H1925 H 0.0665 0.04769 0.92879 0.0
H1926 H 0.10674 1.00728 0.92457 0.0
C1927 C 0.13369 0.0155 0.8629 0.0
C1928 C 0.09994 0.03949 0.88791 0.0
C1929 C 0.14168 0.01371 0.84596 0.0
C1930 C 0.06416 0.04419 0.95731 0.0
C1931 C 0.07215 0.04238 0.94044 0.0
C1932 C 0.10471 0.01677 0.91485 0.0
C1933 C 0.11857 0.02335 0.86467 0.0
C1934 C 0.11012 0.02573 0.88347 0.0
C1935 C 0.08643 0.03326 0.93833 0.0
C1936 C 0.09466 0.03065 0.91938 0.0
H1937 H 0.11393 0.03154 0.81897 0.0
H1938 H 0.10032 0.03489 0.84799 0.0
H1939 H 0.1194 1.00331 0.89531 0.0
H1940 H 0.08917 0.02247 0.98332 0.0
H1941 H 0.10321 0.01946 0.95445 0.0
C1942 C 0.80126 0.41667 0.57559 0.0
C1943 C 0.80227 0.40377 0.55973 0.0
C1944 C 0.80604 0.41295 0.59315 0.0
C1945 C 0.83438 0.38854 0.61694 0.0
H1946 H 0.8039 0.39198 0.65593 0.0
C1947 C 0.83681 0.35161 0.67976 0.0
C1948 C 0.83031 0.35891 0.6959 0.0
C1949 C 0.83796 0.36155 0.66489 0.0
C1950 C 0.81282 0.39156 0.64539 0.0
H1951 H 0.80864 0.37684 0.54936 0.0
H1952 H 0.81694 0.37014 0.58046 0.0
H1953 H 0.79476 0.39858 0.62538 0.0
H1954 H 0.82183 0.38304 0.71027 0.0
H1955 H 0.82427 0.40084 0.68421 0.0
H1956 H 0.85235 0.38122 0.63688 0.0
C1957 C 0.81246 0.3831 0.57918 0.0
C1958 C 0.80746 0.39507 0.62788 0.0
C1959 C 0.80747 0.38674 0.56154 0.0
C1960 C 0.82679 0.37719 0.69783 0.0
C1961 C 0.82811 0.38726 0.68296 0.0
C1962 C 0.83985 0.38521 0.63455 0.0
C1963 C 0.81202 0.39637 0.595 0.0
C1964 C 0.81804 0.39321 0.61351 0.0
C1965 C 0.83274 0.37898 0.66605 0.0
C1966 C 0.82893 0.38629 0.64879 0.0
H1967 H 0.79743 0.43 0.57436 0.0
H1968 H 0.80573 0.42337 0.60525 0.0
H1969 H 0.84282 0.38737 0.60601 0.0
H1970 H 0.83932 0.33739 0.67787 0.0
H1971 H 0.84129 0.35465 0.65195 0.0
C1972 C 0.43705 0.0359 0.35929 0.0
C1973 C 0.44603 0.03278 0.34373 0.0
C1974 C 0.44373 0.03273 0.37649 0.0
C1975 C 0.47293 0.00829 0.39968 0.0
H1976 H 0.48338 0.0537 0.43745 0.0
C1977 C 0.52469 0.02062 0.46312 0.0
C1978 C 0.52141 0.03087 0.47964 0.0
C1979 C 0.51287 0.0179 0.44711 0.0
C1980 C 0.48015 0.04071 0.42729 0.0
H1981 H 0.46846 0.02325 0.33343 0.0
H1982 H 0.48033 0.01792 0.36378 0.0
H1983 H 0.46663 0.05375 0.40803 0.0
H1984 H 0.50425 0.04695 0.49279 0.0
H1985 H 0.48276 0.04107 0.46532 0.0
H1986 H 0.48668 0.9953 0.41896 0.0
C1987 C 0.46817 0.02279 0.36258 0.0
C1988 C 0.47064 0.04081 0.41046 0.0
C1989 C 0.46162 0.02622 0.34543 0.0
C1990 C 0.50641 0.03833 0.48026 0.0
C1991 C 0.4944 0.03527 0.46448 0.0
C1992 C 0.48228 0.00808 0.41671 0.0
C1993 C 0.45929 0.02616 0.37816 0.0
C1994 C 0.46729 0.02477 0.3965 0.0
C1995 C 0.49768 0.02532 0.44768 0.0
C1996 C 0.48622 0.02445 0.43048 0.0
H1997 H 0.42482 0.04065 0.35811 0.0
H1998 H 0.43681 0.03542 0.38849 0.0
H1999 H 0.47035 0.9958 0.38892 0.0
H2000 H 0.5363 0.01472 0.46265 0.0
H2001 H 0.51587 0.01049 0.43425 0.0
C2002 C 0.78887 0.73497 0.06359 0.0
C2003 C 0.79166 0.71654 0.05846 0.0
C2004 C 0.7903 0.74302 0.08247 0.0
C2005 C 0.8076 0.73823 0.13028 0.0
H2006 H 0.76944 0.76114 0.14541 0.0
C2007 C 0.79734 0.75319 0.20765 0.0
C2008 C 0.79098 0.76931 0.21417 0.0
C2009 C 0.79758 0.74751 0.18859 0.0
C2010 C 0.78039 0.7551 0.1415 0.0
H2011 H 0.79901 0.6925 0.0691 0.0
H2012 H 0.80141 0.70642 0.10181 0.0
H2013 H 0.77095 0.75103 0.11246 0.0
H2014 H 0.77976 0.79211 0.20597 0.0
H2015 H 0.78082 0.78277 0.17258 0.0
H2016 H 0.81719 0.7424 0.1592 0.0
C2017 C 0.79814 0.71474 0.09136 0.0
C2018 C 0.78124 0.74928 0.12253 0.0
C2019 C 0.79663 0.70669 0.07256 0.0
C2020 C 0.78454 0.7795 0.20124 0.0
C2021 C 0.78515 0.77408 0.18211 0.0
C2022 C 0.80686 0.74423 0.14923 0.0
C2023 C 0.79468 0.73286 0.09659 0.0
C2024 C 0.79471 0.74053 0.11668 0.0
C2025 C 0.79187 0.7581 0.17551 0.0
C2026 C 0.79308 0.7525 0.15518 0.0
H2027 H 0.78519 0.74299 0.05305 0.0
H2028 H 0.78782 0.75714 0.08603 0.0
H2029 H 0.8183 0.73179 0.12626 0.0
H2030 H 0.80222 0.74497 0.21737 0.0
H2031 H 0.80232 0.73481 0.18418 0.0
C2032 C 0.11672 1.00167 0.71459 0.0
C2033 C 0.13397 0.0123 0.72147 0.0
C2034 C 0.10849 1.00276 0.69663 0.0
C2035 C 0.11329 0.03291 0.6569 0.0
H2036 H 0.07645 0.99168 0.62954 0.0
C2037 C 0.07661 0.04173 0.5853 0.0
C2038 C 0.06863 0.02566 0.57167 0.0
C2039 C 0.08397 0.03989 0.60327 0.0
C2040 C 0.08683 1.00342 0.63669 0.0
H2041 H 0.15571 0.03245 0.71391 0.0
H2042 H 0.14187 0.03424 0.68334 0.0
H2043 H 0.09007 0.98862 0.65991 0.0
H2044 H 0.06231 0.99476 0.56721 0.0
H2045 H 0.07498 0.99147 0.59802 0.0
H2046 H 0.11054 0.04749 0.63357 0.0
C2047 C 0.13431 0.02513 0.69169 0.0
C2048 C 0.09463 1.00173 0.65459 0.0
C2049 C 0.1425 0.02395 0.70948 0.0
C2050 C 0.06826 0.00761 0.57703 0.0
C2051 C 0.07555 1.00574 0.59506 0.0
C2052 C 0.10558 0.03456 0.63902 0.0
C2053 C 0.11701 0.01468 0.68467 0.0
C2054 C 0.10818 0.01642 0.66526 0.0
C2055 C 0.08375 0.02183 0.60874 0.0
C2056 C 0.09209 0.0199 0.62829 0.0
H2057 H 0.1095 0.99245 0.72311 0.0
H2058 H 0.09522 0.99441 0.69233 0.0
H2059 H 0.12328 0.04493 0.66422 0.0
H2060 H 0.07734 0.05595 0.58204 0.0
H2061 H 0.08968 0.05288 0.61296 0.0
C2062 C 0.80944 0.37927 0.45435 0.0
C2063 C 0.80589 0.39755 0.4567 0.0
C2064 C 0.81348 0.37132 0.43725 0.0
C2065 C 0.80295 0.37212 0.38877 0.0
H2066 H 0.83799 0.34181 0.38169 0.0
C2067 C 0.80867 0.33338 0.31737 0.0
C2068 C 0.80716 0.31365 0.31647 0.0
C2069 C 0.81216 0.34536 0.33445 0.0
C2070 C 0.82819 0.35025 0.38358 0.0
H2071 H 0.80458 0.42234 0.44367 0.0
H2072 H 0.81107 0.40808 0.41338 0.0
H2073 H 0.83803 0.36094 0.41226 0.0
H2074 H 0.80911 0.29098 0.33233 0.0
H2075 H 0.81541 0.31221 0.36261 0.0
H2076 H 0.79272 0.36108 0.36042 0.0
C2077 C 0.81075 0.39999 0.42478 0.0
C2078 C 0.82824 0.36117 0.40092 0.0
C2079 C 0.80692 0.40803 0.44196 0.0
C2080 C 0.81013 0.30615 0.33281 0.0
C2081 C 0.81383 0.31825 0.35 0.0
C2082 C 0.80291 0.36127 0.37152 0.0
C2083 C 0.81383 0.38149 0.42228 0.0
C2084 C 0.81545 0.37194 0.40364 0.0
C2085 C 0.81437 0.33783 0.35088 0.0
C2086 C 0.8154 0.35012 0.36887 0.0
H2087 H 0.80922 0.37118 0.46575 0.0
H2088 H 0.81572 0.35698 0.43556 0.0
H2089 H 0.79272 0.37998 0.39069 0.0
H2090 H 0.80648 0.33954 0.30493 0.0
H2091 H 0.81263 0.36044 0.33486 0.0
C2092 C 0.4519 0.03419 0.23494 0.0
C2093 C 0.43575 0.02393 0.23884 0.0
C2094 C 0.45648 0.03161 0.21691 0.0
C2095 C 0.44757 0.99713 0.17387 0.0
H2096 H 0.46934 0.04102 0.15259 0.0
C2097 C 0.46803 1.00282 0.09826 0.0
C2098 C 0.48618 0.01058 0.09978 0.0
C2099 C 0.45985 1.00114 0.11443 0.0
C2100 C 0.4631 0.02871 0.15839 0.0
H2101 H 0.41164 1.00306 0.2273 0.0
H2102 H 0.41965 0.99873 0.19582 0.0
H2103 H 0.45894 0.04593 0.18309 0.0
H2104 H 0.51021 0.022 0.11856 0.0
H2105 H 0.49589 0.01949 0.14674 0.0
H2106 H 0.45209 0.97997 0.14907 0.0
C2107 C 0.42878 0.00859 0.20663 0.0
C2108 C 0.45734 0.03149 0.17579 0.0
C2109 C 0.42418 0.0112 0.22458 0.0
C2110 C 0.49623 0.01569 0.11727 0.0
C2111 C 0.48809 0.01434 0.13327 0.0
C2112 C 0.45329 0.99435 0.15634 0.0
C2113 C 0.44496 0.01871 0.2027 0.0
C2114 C 0.44989 0.01572 0.1838 0.0
C2115 C 0.46985 0.00766 0.13192 0.0
C2116 C 0.46139 0.01015 0.1488 0.0
H2117 H 0.46099 0.04404 0.24579 0.0
H2118 H 0.46914 0.03943 0.21415 0.0
H2119 H 0.44194 0.98477 0.17992 0.0
H2120 H 0.46017 0.99902 0.08476 0.0
H2121 H 0.44571 0.99601 0.11335 0.0
C2122 C 0.77972 0.69735 0.93552 0.0
C2123 C 0.78512 0.71007 0.95244 0.0
C2124 C 0.77999 0.70397 0.9184 0.0
C2125 C 0.7998 0.74508 0.8961 0.0
H2126 H 0.76176 0.72255 0.85648 0.0
C2127 C 0.79272 0.77841 0.82958 0.0
C2128 C 0.78574 0.76681 0.81234 0.0
C2129 C 0.79294 0.77083 0.8461 0.0
C2130 C 0.77266 0.72882 0.86722 0.0
H2131 H 0.79518 0.73982 0.96454 0.0
H2132 H 0.79563 0.75146 0.93463 0.0
H2133 H 0.76145 0.71124 0.88636 0.0
H2134 H 0.77356 0.73793 0.79898 0.0
H2135 H 0.77412 0.72437 0.82803 0.0
H2136 H 0.81117 0.76251 0.87702 0.0
C2137 C 0.79126 0.73628 0.9346 0.0
C2138 C 0.77245 0.72236 0.88447 0.0
C2139 C 0.79091 0.72963 0.95178 0.0
C2140 C 0.77904 0.74723 0.81203 0.0
C2141 C 0.77927 0.73954 0.82874 0.0
C2142 C 0.80008 0.75145 0.87883 0.0
C2143 C 0.78573 0.72353 0.91764 0.0
C2144 C 0.78597 0.73046 0.89921 0.0
C2145 C 0.78627 0.75128 0.84606 0.0
C2146 C 0.78643 0.74356 0.86413 0.0
H2147 H 0.77523 0.68218 0.93547 0.0
H2148 H 0.7759 0.69366 0.90572 0.0
H2149 H 0.81062 0.75146 0.90692 0.0
H2150 H 0.79801 0.79358 0.83041 0.0
H2151 H 0.79807 0.78053 0.859 0.0
C2152 C 0.84021 0.13995 0.01944 0.0
C2153 C 0.82541 0.12767 0.0241 0.0
C2154 C 0.8553 0.13342 0.01633 0.0
C2155 C 0.87878 0.0984 0.02854 0.0
H2156 H 0.90319 0.10829 0.98553 0.0
C2157 C 0.93304 0.06168 0.00892 0.0
C2158 C 0.94856 0.07298 0.00478 0.0
C2159 C 0.91823 0.06911 0.01051 0.0
C2160 C 0.89658 0.1057 0.99769 0.0
H2161 H 0.81453 0.09909 0.02919 0.0
H2162 H 0.84127 0.08763 0.02396 0.0
H2163 H 0.87595 0.11918 0.98956 0.0
H2164 H 0.96117 0.10056 0.99861 0.0
H2165 H 0.93483 0.1139 1.00147 0.0
H2166 H 0.89929 0.08501 0.03676 0.0
C2167 C 0.84108 0.10229 0.02273 0.0
C2168 C 0.88105 0.1118 0.99994 0.0
C2169 C 0.82588 0.1088 0.02572 0.0
C2170 C 0.94919 0.09178 1.00192 0.0
C2171 C 0.93422 0.09927 1.00343 0.0
C2172 C 0.89426 0.09238 0.02633 0.0
C2173 C 0.85583 0.11458 0.01796 0.0
C2174 C 0.87202 0.10802 0.01531 0.0
C2175 C 0.91875 0.088 0.00802 0.0
C2176 C 0.90315 0.09577 0.0108 0.0
H2177 H 0.84011 0.15457 0.01797 0.0
H2178 H 0.86663 0.14317 0.01289 0.0
H2179 H 0.87218 0.09573 0.04068 0.0
H2180 H 0.93245 0.0471 0.01108 0.0
H2181 H 0.90635 0.06008 0.01373 0.0
C2182 C 0.36612 0.41733 0.01915 0.0
C2183 C 0.35765 0.42324 0.03452 0.0
C2184 C 0.38331 0.42687 0.01702 0.0
C2185 C 0.42426 0.45777 0.0443 0.0
H2186 H 0.43734 0.46985 0.9966 0.0
C2187 C 0.49112 0.5085 0.04012 0.0
C2188 C 0.50001 0.50647 0.02426 0.0
C2189 C 0.47409 0.4976 0.04049 0.0
C2190 C 0.4341 0.46639 0.01002 0.0
H2191 H 0.36086 0.44389 0.05972 0.0
H2192 H 0.39098 0.46015 0.0564 0.0
H2193 H 0.40736 0.45254 0.9989 0.0
H2194 H 0.49765 0.49107 0.99616 0.0
H2195 H 0.468 0.47163 0.99684 0.0
H2196 H 0.45086 0.47103 0.05546 0.0
C2197 C 0.38427 0.4482 0.04583 0.0
C2198 C 0.41677 0.45646 0.01135 0.0
C2199 C 0.36692 0.43894 0.04773 0.0
C2200 C 0.49128 0.493 0.00867 0.0
C2201 C 0.47414 0.48194 0.00905 0.0
C2202 C 0.44156 0.46745 0.04296 0.0
C2203 C 0.39278 0.44237 0.03043 0.0
C2204 C 0.41147 0.45226 0.0286 0.0
C2205 C 0.4652 0.48401 0.02504 0.0
C2206 C 0.44681 0.47233 0.02589 0.0
H2207 H 0.35935 0.40539 0.0086 0.0
H2208 H 0.38931 0.42182 0.00501 0.0
H2209 H 0.42095 0.45442 0.05774 0.0
H2210 H 0.49728 0.51878 0.05236 0.0
H2211 H 0.46779 0.5002 0.05294 0.0
C2212 C 0.40721 0.63126 0.77711 0.0
C2213 C 0.39982 0.61346 0.76538 0.0
C2214 C 0.39935 0.64755 0.77753 0.0
C2215 C 0.3611 0.66615 0.75251 0.0
H2216 H 0.3763 0.71013 0.79151 0.0
C2217 C 0.3225 0.72946 0.75775 0.0
C2218 C 0.33066 0.74856 0.76598 0.0
C2219 C 0.33118 0.71395 0.75786 0.0
C2220 C 0.37176 0.69817 0.78028 0.0
H2221 H 0.37752 0.60009 0.74482 0.0
H2222 H 0.36404 0.62751 0.74546 0.0
H2223 H 0.38998 0.68284 0.79151 0.0
H2224 H 0.35528 0.76518 0.78128 0.0
H2225 H 0.37015 0.73847 0.78187 0.0
H2226 H 0.34289 0.68145 0.74133 0.0
C2227 C 0.37616 0.62938 0.75448 0.0
C2228 C 0.37981 0.68204 0.78025 0.0
C2229 C 0.384 0.61312 0.75414 0.0
C2230 C 0.34819 0.75104 0.77457 0.0
C2231 C 0.35682 0.73536 0.775 0.0
C2232 C 0.35301 0.68217 0.75262 0.0
C2233 C 0.38349 0.64734 0.76616 0.0
C2234 C 0.37479 0.66528 0.76636 0.0
C2235 C 0.34866 0.7162 0.76652 0.0
C2236 C 0.35794 0.69881 0.76651 0.0
H2237 H 0.41927 0.6327 0.78618 0.0
H2238 H 0.40605 0.66046 0.78684 0.0
H2239 H 0.3565 0.65444 0.7411 0.0
H2240 H 0.30915 0.72637 0.75092 0.0
H2241 H 0.3238 0.69992 0.75127 0.0
C2242 C 0.21838 0.60893 0.51246 0.0
C2243 C 0.22665 0.62824 0.51807 0.0
C2244 C 0.20037 0.60377 0.50673 0.0
C2245 C 0.16178 0.61913 0.51719 0.0
H2246 H 0.13845 0.58202 0.47406 0.0
C2247 C 0.08766 0.59124 0.50788 0.0
C2248 C 0.08202 0.57153 0.50222 0.0
C2249 C 0.10488 0.60015 0.50657 0.0
C2250 C 0.14485 0.59236 0.48616 0.0
H2251 H 0.22301 0.65736 0.5216 0.0
H2252 H 0.19148 0.6482 0.51197 0.0
H2253 H 0.17036 0.59405 0.47708 0.0
H2254 H 0.08904 0.54528 0.49109 0.0
H2255 H 0.11977 0.56064 0.4899 0.0
H2256 H 0.13675 0.61663 0.52705 0.0
C2257 C 0.19892 0.63717 0.51194 0.0
C2258 C 0.16296 0.59925 0.4878 0.0
C2259 C 0.21686 0.64233 0.51757 0.0
C2260 C 0.09345 0.56061 0.49532 0.0
C2261 C 0.11083 0.56941 0.49448 0.0
C2262 C 0.14378 0.61204 0.51572 0.0
C2263 C 0.19059 0.61789 0.50671 0.0
C2264 C 0.17147 0.61239 0.50349 0.0
C2265 C 0.11665 0.58926 0.50008 0.0
C2266 C 0.13524 0.59833 0.50039 0.0
H2267 H 0.22578 0.59789 0.51247 0.0
H2268 H 0.194 0.58877 0.50294 0.0
H2269 H 0.16825 0.6291 0.52952 0.0
H2270 H 0.07869 0.59972 0.51309 0.0
H2271 H 0.10901 0.61549 0.51074 0.0
C2272 C 0.70328 0.9967 0.74405 0.0
C2273 C 0.69117 1.00316 0.75484 0.0
C2274 C 0.7095 0.98104 0.74817 0.0
C2275 C 0.71817 0.95665 0.78578 0.0
H2276 H 0.71247 0.9121 0.74761 0.0
C2277 C 0.73958 0.88726 0.79692 0.0
C2278 C 0.75012 0.88226 0.78338 0.0
C2279 C 0.73066 0.90164 0.79478 0.0
C2280 C 0.71398 0.92446 0.75836 0.0
H2281 H 0.67638 0.99965 0.7785 0.0
H2282 H 0.68755 0.97249 0.78585 0.0
H2283 H 0.7011 0.93939 0.74036 0.0
H2284 H 0.76061 0.88806 0.75771 0.0
H2285 H 0.74527 0.91334 0.75407 0.0
H2286 H 0.73167 0.94202 0.80357 0.0
C2287 C 0.69198 0.97917 0.77419 0.0
C2288 C 0.70768 0.93994 0.75418 0.0
C2289 C 0.68557 0.99447 0.7699 0.0
C2290 C 0.75228 0.89183 0.76812 0.0
C2291 C 0.74348 0.90605 0.76599 0.0
C2292 C 0.72462 0.9412 0.78993 0.0
C2293 C 0.70385 0.97241 0.7633 0.0
C2294 C 0.71011 0.95613 0.76778 0.0
C2295 C 0.73237 0.91071 0.77908 0.0
C2296 C 0.7229 0.9253 0.77606 0.0
H2297 H 0.7076 1.0035 0.73243 0.0
H2298 H 0.71876 0.97576 0.73976 0.0
H2299 H 0.71994 0.9692 0.79636 0.0
H2300 H 0.73799 0.87984 0.80875 0.0
H2301 H 0.72219 0.90538 0.80502 0.0
C2302 C 0.75092 0.92369 0.5467 0.0
C2303 C 0.75764 0.91464 0.53153 0.0
C2304 C 0.73475 0.92907 0.54418 0.0
C2305 C 0.70448 0.94181 0.50892 0.0
H2306 H 0.67067 0.93253 0.54427 0.0
C2307 C 0.63855 0.96732 0.50276 0.0
C2308 C 0.63274 0.97432 0.51958 0.0
C2309 C 0.65252 0.95786 0.50282 0.0
C2310 C 0.68002 0.93552 0.53436 0.0
H2311 H 0.75275 0.90427 0.50179 0.0
H2312 H 0.72491 0.91428 0.49729 0.0
H2313 H 0.69762 0.92092 0.54739 0.0
H2314 H 0.63744 0.97694 0.54965 0.0
H2315 H 0.66159 0.96092 0.54982 0.0
H2316 H 0.68724 0.95699 0.49624 0.0
C2317 C 0.73199 0.91703 0.51117 0.0
C2318 C 0.69549 0.92876 0.53615 0.0
C2319 C 0.74792 0.91125 0.51377 0.0
C2320 C 0.64119 0.97141 0.53638 0.0
C2321 C 0.65514 0.96211 0.53646 0.0
C2322 C 0.68909 0.94883 0.50727 0.0
C2323 C 0.72511 0.92592 0.52635 0.0
C2324 C 0.70809 0.93209 0.52366 0.0
C2325 C 0.66115 0.95524 0.51972 0.0
C2326 C 0.67675 0.94613 0.52021 0.0
H2327 H 0.758 0.92631 0.56057 0.0
H2328 H 0.72989 0.93596 0.55617 0.0
H2329 H 0.71389 0.94465 0.49904 0.0
H2330 H 0.63229 0.96912 0.48952 0.0
H2331 H 0.6565 0.95258 0.4896 0.0
C2332 C 0.38263 0.4994 0.77819 0.0
C2333 C 0.3952 0.50382 0.76568 0.0
C2334 C 0.37454 0.48015 0.77968 0.0
C2335 C 0.36969 0.42697 0.75645 0.0
H2336 H 0.34583 0.41653 0.79933 0.0
C2337 C 0.33516 0.34647 0.76444 0.0
C2338 C 0.32062 0.34348 0.77487 0.0
C2339 C 0.34535 0.36533 0.76392 0.0
C2340 C 0.35212 0.41881 0.78696 0.0
H2341 H 0.40898 0.49018 0.74521 0.0
H2342 H 0.39548 0.45735 0.74787 0.0
H2343 H 0.36024 0.44894 0.79726 0.0
H2344 H 0.30621 0.35896 0.79313 0.0
H2345 H 0.32345 0.39068 0.79253 0.0
H2346 H 0.3616 0.39665 0.74629 0.0
C2347 C 0.39131 0.46861 0.75644 0.0
C2348 C 0.36064 0.43797 0.78575 0.0
C2349 C 0.39932 0.48784 0.75491 0.0
C2350 C 0.31726 0.3602 0.78504 0.0
C2351 C 0.32742 0.37882 0.7847 0.0
C2352 C 0.36118 0.40776 0.7577 0.0
C2353 C 0.37855 0.46399 0.76884 0.0
C2354 C 0.3696 0.44284 0.77036 0.0
C2355 C 0.34166 0.38219 0.7739 0.0
C2356 C 0.35189 0.403 0.77289 0.0
H2357 H 0.37896 0.51093 0.78695 0.0
H2358 H 0.36487 0.47813 0.78937 0.0
H2359 H 0.37605 0.42922 0.74413 0.0
H2360 H 0.33825 0.33434 0.75603 0.0
H2361 H 0.35611 0.36659 0.75546 0.0
C2362 C 0.17607 0.61801 0.2675 0.0
C2363 C 0.18727 0.60616 0.27209 0.0
C2364 C 0.18088 0.63742 0.27415 0.0
C2365 C 0.21395 0.67628 0.30226 0.0
H2366 H 0.22446 0.68984 0.2542 0.0
C2367 C 0.2719 0.73612 0.29699 0.0
C2368 C 0.2693 0.74782 0.2839 0.0
C2369 C 0.2597 0.71912 0.29652 0.0
C2370 C 0.22132 0.68663 0.26774 0.0
H2371 H 0.211 0.60445 0.2888 0.0
H2372 H 0.21981 0.63873 0.29993 0.0
H2373 H 0.20261 0.66134 0.2554 0.0
H2374 H 0.25277 0.75156 0.25994 0.0
H2375 H 0.23094 0.72258 0.25972 0.0
H2376 H 0.23284 0.70164 0.3146 0.0
C2377 C 0.20724 0.63295 0.29146 0.0
C2378 C 0.20871 0.67039 0.26841 0.0
C2379 C 0.20248 0.61352 0.28471 0.0
C2380 C 0.25508 0.74228 0.26985 0.0
C2381 C 0.24258 0.72575 0.2698 0.0
C2382 C 0.22627 0.69293 0.30161 0.0
C2383 C 0.19691 0.64502 0.28538 0.0
C2384 C 0.20549 0.66478 0.28562 0.0
C2385 C 0.24455 0.7143 0.28343 0.0
C2386 C 0.2305 0.69777 0.2843 0.0
H2387 H 0.16405 0.61247 0.25806 0.0
H2388 H 0.17294 0.64669 0.26922 0.0
H2389 H 0.21168 0.67188 0.31559 0.0
H2390 H 0.28288 0.74052 0.30794 0.0
H2391 H 0.26177 0.71018 0.3068 0.0
C2392 C 0.51778 0.72724 0.46178 0.0
C2393 C 0.5157 0.72446 0.44216 0.0
C2394 C 0.52231 0.71322 0.47143 0.0
C2395 C 0.54003 0.66862 0.46403 0.0
H2396 H 0.52476 0.66292 0.51244 0.0
C2397 C 0.56031 0.61228 0.50473 0.0
C2398 C 0.54741 0.60223 0.51412 0.0
C2399 C 0.5577 0.62849 0.4975 0.0
C2400 C 0.52902 0.66414 0.49884 0.0
H2401 H 0.51648 0.70454 0.41736 0.0
H2402 H 0.52353 0.67984 0.43394 0.0
H2403 H 0.51672 0.68745 0.49634 0.0
H2404 H 0.52208 0.60164 0.52408 0.0
H2405 H 0.51749 0.62993 0.51171 0.0
H2406 H 0.55138 0.64456 0.46603 0.0
C2407 C 0.52225 0.69305 0.44207 0.0
C2408 C 0.52462 0.67852 0.48965 0.0
C2409 C 0.51792 0.70715 0.43245 0.0
C2410 C 0.53219 0.6091 0.51681 0.0
C2411 C 0.52966 0.62544 0.5098 0.0
C2412 C 0.54416 0.65407 0.47306 0.0
C2413 C 0.52475 0.6959 0.46174 0.0
C2414 C 0.52991 0.68091 0.47197 0.0
C2415 C 0.54218 0.63516 0.49965 0.0
C2416 C 0.53862 0.65148 0.49056 0.0
H2417 H 0.51629 0.74047 0.46974 0.0
H2418 H 0.52431 0.71627 0.48651 0.0
H2419 H 0.54483 0.67014 0.45073 0.0
H2420 H 0.57211 0.60716 0.50232 0.0
H2421 H 0.5678 0.63567 0.49005 0.0
C2422 C 0.63531 0.30268 0.65166 0.0
C2423 C 0.62249 0.31198 0.65849 0.0
C2424 C 0.6505 0.30218 0.66331 0.0
C2425 C 0.67728 0.3258 0.70931 0.0
H2426 H 0.69719 0.28101 0.70399 0.0
C2427 C 0.72711 0.31425 0.76737 0.0
C2428 C 0.74113 0.30564 0.76301 0.0
C2429 C 0.7139 0.31534 0.7536 0.0
C2430 C 0.692 0.29376 0.70557 0.0
H2431 H 0.61578 0.32807 0.68309 0.0
H2432 H 0.6419 0.32715 0.7033 0.0
H2433 H 0.67191 0.28223 0.68242 0.0
H2434 H 0.75178 0.29101 0.7403 0.0
H2435 H 0.72863 0.29297 0.71596 0.0
H2436 H 0.69715 0.33727 0.73251 0.0
C2437 C 0.64053 0.32042 0.68888 0.0
C2438 C 0.67739 0.29449 0.69312 0.0
C2439 C 0.62538 0.32088 0.67725 0.0
C2440 C 0.74144 0.29805 0.7442 0.0
C2441 C 0.72799 0.29899 0.73027 0.0
C2442 C 0.69179 0.32505 0.72173 0.0
C2443 C 0.6534 0.31103 0.68219 0.0
C2444 C 0.66959 0.31044 0.6949 0.0
C2445 C 0.71398 0.30775 0.73477 0.0
C2446 C 0.6993 0.30892 0.72031 0.0
H2447 H 0.63354 0.29556 0.63732 0.0
H2448 H 0.66003 0.29497 0.65741 0.0
H2449 H 0.67217 0.3386 0.71102 0.0
H2450 H 0.72628 0.32023 0.78164 0.0
H2451 H 0.70334 0.32187 0.7579 0.0
C2452 C 0.02675 0.32889 0.96334 0.0
C2453 C 0.01899 0.32447 0.94472 0.0
C2454 C 0.02829 0.34713 0.97339 0.0
C2455 C 1.0052 0.38471 0.97657 0.0
H2456 H 0.04828 0.41859 1.00207 0.0
C2457 C 0.00888 0.46311 0.00466 0.0
C2458 C 0.02106 0.47212 0.02016 0.0
C2459 C 0.00817 0.44426 0.99708 0.0
C2460 C 0.03607 0.40912 0.99539 0.0
H2461 H 0.00729 0.3355 0.92178 0.0
H2462 H 0.00957 0.36715 0.93954 0.0
H2463 H 0.04927 0.38736 0.98517 0.0
H2464 H 0.04109 0.46853 0.04086 0.0
H2465 H 0.03912 0.43506 0.02832 0.0
H2466 H 0.99181 0.40596 0.98697 0.0
C2467 C 0.01453 0.35661 0.94625 0.0
C2468 C 0.03672 0.39138 0.98562 0.0
C2469 C 0.01325 0.33857 0.93615 0.0
C2470 C 0.03165 0.46175 0.02882 0.0
C2471 C 0.03066 0.44273 0.0215 0.0
C2472 C 1.00448 0.40222 0.98659 0.0
C2473 C 0.02179 0.36089 0.96498 0.0
C2474 C 0.02131 0.37924 0.97597 0.0
C2475 C 0.01934 0.434 0.00518 0.0
C2476 C 0.01993 0.41474 0.9959 0.0
H2477 H 0.03143 0.31826 0.97013 0.0
H2478 H 0.03393 0.35028 0.98788 0.0
H2479 H 0.99314 0.37536 0.96933 0.0
H2480 H 1.00079 0.471 0.99759 0.0
H2481 H 0.99952 0.43811 0.98432 0.0
C2482 C 0.02365 0.78843 0.16382 0.0
C2483 C 0.02483 0.79671 0.14757 0.0
C2484 C 0.0074 0.78306 0.17055 0.0
C2485 C 0.96358 0.79426 0.16959 0.0
H2486 H 0.95126 0.74862 0.19198 0.0
C2487 C 0.89849 0.77709 0.20165 0.0
C2488 C 0.89942 0.77108 0.21914 0.0
C2489 C 0.91245 0.77748 0.19083 0.0
C2490 C 0.95454 0.76149 0.18589 0.0
H2491 H 0.00978 0.80546 0.12537 0.0
H2492 H 0.98143 0.7964 0.13727 0.0
H2493 H 0.97822 0.75461 0.17698 0.0
H2494 H 0.91561 0.75996 0.23851 0.0
H2495 H 0.93997 0.76072 0.21972 0.0
H2496 H 0.94028 0.80147 0.17886 0.0
C2497 C 0.9931 0.79412 0.14489 0.0
C2498 C 0.97 0.76492 0.17728 0.0
C2499 C 0.00934 0.7993 0.13805 0.0
C2500 C 0.91435 0.76457 0.22508 0.0
C2501 C 0.92836 0.76499 0.21426 0.0
C2502 C 0.94819 0.79087 0.17824 0.0
C2503 C 0.99193 0.78602 0.16129 0.0
C2504 C 0.97484 0.78149 0.16923 0.0
C2505 C 0.92779 0.77191 0.19719 0.0
C2506 C 0.94354 0.77457 0.18673 0.0
H2507 H 0.03531 0.786 0.17134 0.0
H2508 H 0.00705 0.77701 0.18329 0.0
H2509 H 0.96697 0.80729 0.16378 0.0
H2510 H 0.88703 0.78178 0.19642 0.0
H2511 H 0.91132 0.78243 0.17756 0.0
C2512 C 0.53018 0.3172 0.1382 0.0
C2513 C 0.51296 0.30637 0.13264 0.0
C2514 C 0.53712 0.33193 0.12883 0.0
C2515 C 0.52366 0.36514 0.10128 0.0
H2516 H 0.56822 0.36784 0.08088 0.0
C2517 C 0.53999 0.40845 0.04486 0.0
C2518 C 0.55623 0.42156 0.04755 0.0
C2519 C 0.53685 0.39436 0.05586 0.0
C2520 C 0.55592 0.36735 0.08678 0.0
H2521 H 0.48939 0.30212 0.11326 0.0
H2522 H 0.50138 0.32836 0.0971 0.0
H2523 H 0.55816 0.34315 0.09979 0.0
H2524 H 0.58235 0.42998 0.06282 0.0
H2525 H 0.57673 0.40501 0.08261 0.0
H2526 H 0.52117 0.38902 0.08819 0.0
C2527 C 0.5095 0.32537 0.1086 0.0
C2528 C 0.55018 0.35332 0.0975 0.0
C2529 C 0.50267 0.31043 0.11775 0.0
C2530 C 0.56973 0.41988 0.06069 0.0
C2531 C 0.56654 0.40571 0.07189 0.0
C2532 C 0.52938 0.37912 0.09069 0.0
C2533 C 0.52677 0.33615 0.11407 0.0
C2534 C 0.5338 0.35189 0.10437 0.0
C2535 C 0.54986 0.39329 0.06987 0.0
C2536 C 0.54528 0.37997 0.08292 0.0
H2537 H 0.53839 0.31402 0.14952 0.0
H2538 H 0.55045 0.34013 0.13322 0.0
H2539 H 0.51115 0.36448 0.1068 0.0
H2540 H 0.52954 0.4095 0.03458 0.0
H2541 H 0.52403 0.38461 0.05381 0.0
C2542 C 0.03615 0.33581 0.36283 0.0
C2543 C 0.03882 0.31966 0.37002 0.0
C2544 C 0.02037 0.33516 0.35229 0.0
C2545 C 0.97527 0.30711 0.33773 0.0
H2546 H 0.98238 0.32751 0.29185 0.0
C2547 C 0.91765 0.29777 0.28266 0.0
C2548 C 0.91551 0.31524 0.27786 0.0
C2549 C 0.93386 0.29632 0.29097 0.0
C2550 C 0.98024 0.32174 0.30458 0.0
H2551 H 0.02752 0.29055 0.37298 0.0
H2552 H 0.9998 0.28905 0.35387 0.0
H2553 H 0.00746 0.33053 0.31509 0.0
H2554 H 0.92855 0.34425 0.27611 0.0
H2555 H 0.95688 0.34186 0.29086 0.0
H2556 H 0.94801 0.29857 0.32734 0.0
C2557 C 0.00966 0.30235 0.35672 0.0
C2558 C 0.99451 0.32361 0.31794 0.0
C2559 C 0.0254 0.30314 0.36757 0.0
C2560 C 0.93007 0.33061 0.27959 0.0
C2561 C 0.94624 0.32922 0.28805 0.0
C2562 C 0.96099 0.30524 0.32437 0.0
C2563 C 0.00732 0.31816 0.34849 0.0
C2564 C 0.9921 0.31643 0.33465 0.0
C2565 C 0.94796 0.31239 0.29468 0.0
C2566 C 0.96337 0.31261 0.30773 0.0
H2567 H 0.04653 0.34868 0.3648 0.0
H2568 H 0.01868 0.34766 0.34645 0.0
H2569 H 0.9731 0.30159 0.35058 0.0
H2570 H 0.90648 0.28576 0.28129 0.0
H2571 H 0.93504 0.28308 0.29565 0.0
C2572 C 0.00843 0.71211 0.61367 0.0
C2573 C 0.99618 0.70996 0.62652 0.0
C2574 C 0.01169 0.69625 0.603 0.0
C2575 C 0.00663 0.64473 0.5968 0.0
H2576 H 0.0085 0.65174 0.54514 0.0
C2577 C 1.00474 0.58783 0.53141 0.0
C2578 C 0.01899 0.59243 0.52123 0.0
C2579 C 1.00277 0.60062 0.54671 0.0
C2580 C 0.00809 0.64971 0.55954 0.0
H2581 H 0.97838 0.68995 0.63939 0.0
H2582 H 0.98333 0.66159 0.6195 0.0
H2583 H 1.00229 0.67679 0.56756 0.0
H2584 H 0.04243 0.61332 0.5186 0.0
H2585 H 0.03816 0.63665 0.54464 0.0
H2586 H 0.01197 0.61716 0.58823 0.0
C2587 C 0.99058 0.67565 0.61805 0.0
C2588 C 1.00456 0.66394 0.57234 0.0
C2589 C 0.98763 0.69172 0.62919 0.0
C2590 C 0.0313 0.60977 0.52635 0.0
C2591 C 0.02898 0.62287 0.54122 0.0
C2592 C 0.0099 0.63023 0.5838 0.0
C2593 C 1.00234 0.67797 0.60458 0.0
C2594 C 1.00426 0.66179 0.59113 0.0
C2595 C 0.01469 0.61831 0.55139 0.0
C2596 C 0.01098 0.63294 0.56525 0.0
H2597 H 0.01565 0.72611 0.61193 0.0
H2598 H 0.02128 0.69834 0.59318 0.0
H2599 H 0.00645 0.64286 0.61125 0.0
H2600 H 0.9952 0.57445 0.52757 0.0
H2601 H 0.99158 0.59707 0.55438 0.0
C2602 C 0.64421 0.8311 0.85591 0.0
C2603 C 0.63364 0.81649 0.86314 0.0
C2604 C 0.65553 0.82658 0.8431 0.0
C2605 C 0.6608 0.78559 0.80971 0.0
H2606 H 0.70718 0.8172 0.80889 0.0
C2607 C 0.71827 0.76319 0.77506 0.0
C2608 C 0.72868 0.77702 0.76663 0.0
C2609 C 0.70385 0.76729 0.78339 0.0
C2610 C 0.69412 0.80844 0.80883 0.0
H2611 H 0.62659 0.78617 0.86376 0.0
H2612 H 0.64707 0.77826 0.84221 0.0
H2613 H 0.68906 0.82651 0.83248 0.0
H2614 H 0.73105 0.80473 0.75794 0.0
H2615 H 0.70593 0.81193 0.77266 0.0
H2616 H 0.66639 0.76704 0.78655 0.0
C2617 C 0.64637 0.79306 0.8458 0.0
C2618 C 0.68378 0.81375 0.8223 0.0
C2619 C 0.6349 0.79755 0.8583 0.0
C2620 C 0.72344 0.79406 0.76479 0.0
C2621 C 0.70909 0.79816 0.77311 0.0
C2622 C 0.67127 0.78015 0.7964 0.0
C2623 C 0.65636 0.80744 0.83762 0.0
C2624 C 0.6671 0.80226 0.82297 0.0
C2625 C 0.69981 0.7852 0.78323 0.0
C2626 C 0.68798 0.79153 0.79596 0.0
H2627 H 0.643 0.84575 0.85936 0.0
H2628 H 0.663 0.83793 0.83691 0.0
H2629 H 0.64781 0.77669 0.80965 0.0
H2630 H 0.72204 0.7499 0.77656 0.0
H2631 H 0.69681 0.75716 0.79122 0.0
C2632 C 0.44626 0.55381 0.69661 0.0
C2633 C 0.4542 0.56403 0.71432 0.0
C2634 C 0.45557 0.5532 0.68059 0.0
C2635 C 0.49898 0.57589 0.66197 0.0
H2636 H 0.48209 0.53506 0.62009 0.0
C2637 C 0.53982 0.56937 0.59703 0.0
C2638 C 0.53232 0.55888 0.57922 0.0
C2639 C 0.53038 0.56993 0.61285 0.0
C2640 C 0.48713 0.54684 0.63137 0.0
H2641 H 0.47898 0.58169 0.72821 0.0
H2642 H 0.49507 0.58061 0.70086 0.0
H2643 H 0.46667 0.53606 0.6476 0.0
H2644 H 0.50802 0.54049 0.56507 0.0
H2645 H 0.49143 0.5416 0.59228 0.0
H2646 H 0.51942 0.58671 0.64581 0.0
C2647 C 0.48141 0.57307 0.69902 0.0
C2648 C 0.47805 0.54746 0.64759 0.0
C2649 C 0.47207 0.57365 0.71507 0.0
C2650 C 0.51455 0.54892 0.57819 0.0
C2651 C 0.50498 0.54947 0.59418 0.0
C2652 C 0.50805 0.57529 0.64576 0.0
C2653 C 0.47349 0.56277 0.68117 0.0
C2654 C 0.4836 0.56202 0.66349 0.0
C2655 C 0.5126 0.56002 0.61212 0.0
C2656 C 0.50248 0.56073 0.62982 0.0
H2657 H 0.43264 0.54611 0.69503 0.0
H2658 H 0.44837 0.54525 0.66758 0.0
H2659 H 0.50405 0.58767 0.67325 0.0
H2660 H 0.55341 0.57723 0.59895 0.0
H2661 H 0.53744 0.57801 0.62586 0.0
C2662 C 0.75712 0.15815 0.9672 0.0
C2663 C 0.77473 0.16418 0.97505 0.0
C2664 C 0.75023 0.16848 0.95499 0.0
C2665 C 0.76009 0.21728 0.94383 0.0
H2666 H 0.71955 0.19662 0.90673 0.0
C2667 C 0.73632 0.26724 0.90184 0.0
C2668 C 0.73563 0.26065 0.88272 0.0
C2669 C 0.73495 0.25433 0.91431 0.0
C2670 C 0.73087 0.2026 0.91706 0.0
H2671 H 0.79954 0.18412 0.97525 0.0
H2672 H 0.78802 0.20115 0.9523 0.0
H2673 H 0.73266 0.17511 0.92292 0.0
H2674 H 0.7301 0.23563 0.86125 0.0
H2675 H 0.72848 0.21315 0.88287 0.0
H2676 H 0.75944 0.24449 0.93674 0.0
C2677 C 0.77917 0.18925 0.95641 0.0
C2678 C 0.73832 0.19028 0.92646 0.0
C2679 C 0.78589 0.17936 0.96922 0.0
C2680 C 0.73098 0.24097 0.87602 0.0
C2681 C 0.72992 0.2281 0.88847 0.0
C2682 C 0.75298 0.22949 0.93405 0.0
C2683 C 0.76105 0.1846 0.95003 0.0
C2684 C 0.75317 0.19748 0.93977 0.0
C2685 C 0.7332 0.23479 0.90776 0.0
C2686 C 0.73843 0.22225 0.92037 0.0
H2687 H 0.74825 0.14663 0.97188 0.0
H2688 H 0.73621 0.16457 0.9506 0.0
H2689 H 0.77112 0.22345 0.95445 0.0
H2690 H 0.73984 0.28238 0.90734 0.0
H2691 H 0.73696 0.25983 0.92912 0.0
C2692 C 0.15082 0.55258 0.18972 0.0
C2693 C 0.14414 0.54275 0.20369 0.0
C2694 C 0.14024 0.55113 0.17306 0.0
C2695 C 0.10251 0.51992 0.1442 0.0
H2696 H 0.09403 0.56577 0.12714 0.0
C2697 C 0.04446 0.52077 0.09135 0.0
C2698 C 0.04872 0.532 0.07763 0.0
C2699 C 0.05711 0.52138 0.10612 0.0
C2700 C 0.0965 0.55289 0.13169 0.0
H2701 H 0.12154 0.52388 0.21167 0.0
H2702 H 0.10315 0.52143 0.18267 0.0
H2703 H 0.11573 0.56861 0.15403 0.0
H2704 H 0.06911 0.55249 0.06808 0.0
H2705 H 0.09129 0.5529 0.09338 0.0
H2706 H 0.08308 0.5042 0.12208 0.0
C2707 C 0.11651 0.52997 0.18443 0.0
C2708 C 0.10888 0.55453 0.14689 0.0
C2709 C 0.12697 0.53147 0.20097 0.0
C2710 C 0.06562 0.54358 0.07851 0.0
C2711 C 0.07824 0.54398 0.093 0.0
C2712 C 0.09016 0.51827 0.12899 0.0
C2713 C 0.12312 0.53969 0.17042 0.0
C2714 C 0.11174 0.53804 0.15328 0.0
C2715 C 0.07396 0.53315 0.107 0.0
C2716 C 0.08704 0.53476 0.12281 0.0
H2717 H 0.164 0.56156 0.19178 0.0
H2718 H 0.14537 0.5588 0.16228 0.0
H2719 H 0.10471 0.50708 0.14907 0.0
H2720 H 0.03142 0.5118 0.09079 0.0
H2721 H 0.05364 0.51304 0.11699 0.0
C2722 C 0.80329 0.84347 0.48202 0.0
C2723 C 0.80006 0.8619 0.48484 0.0
C2724 C 0.80262 0.83368 0.46388 0.0
C2725 C 0.78891 0.83715 0.41392 0.0
H2726 H 0.81867 0.80138 0.40346 0.0
C2727 C 0.78575 0.79882 0.3405 0.0
C2728 C 0.80161 0.79759 0.33319 0.0
C2729 C 0.78548 0.80403 0.35946 0.0
C2730 C 0.81049 0.81155 0.4062 0.0
H2731 H 0.79307 0.88431 0.4711 0.0
H2732 H 0.79301 0.86822 0.44007 0.0
H2733 H 0.81797 0.81579 0.4356 0.0
H2734 H 0.8295 0.79964 0.34035 0.0
H2735 H 0.82909 0.80934 0.37393 0.0
H2736 H 0.78257 0.83422 0.3846 0.0
C2737 C 0.79546 0.86066 0.45141 0.0
C2738 C 0.80979 0.81957 0.42468 0.0
C2739 C 0.79578 0.87017 0.46937 0.0
C2740 C 0.81713 0.80074 0.34554 0.0
C2741 C 0.81686 0.80616 0.36474 0.0
C2742 C 0.79005 0.82966 0.3956 0.0
C2743 C 0.79891 0.84227 0.44827 0.0
C2744 C 0.79904 0.83262 0.42881 0.0
C2745 C 0.80107 0.80843 0.37176 0.0
C2746 C 0.80068 0.81662 0.39148 0.0
H2747 H 0.80658 0.83675 0.49377 0.0
H2748 H 0.80504 0.81944 0.4622 0.0
H2749 H 0.77998 0.84654 0.41623 0.0
H2750 H 0.77341 0.79615 0.33156 0.0
H2751 H 0.77299 0.80502 0.36443 0.0
C2752 C 0.45553 0.57052 0.83258 0.0
C2753 C 0.45721 0.56047 0.81503 0.0
C2754 C 0.46469 0.56783 0.8493 0.0
C2755 C 0.49033 0.53406 0.86932 0.0
H2756 H 0.50085 0.57419 0.91224 0.0
C2757 C 0.51994 0.52046 0.94244 0.0
C2758 C 0.52837 0.53595 0.95647 0.0
C2759 C 0.51203 0.52335 0.92513 0.0
C2760 C 0.4984 0.5627 0.90052 0.0
H2761 H 0.47028 0.53954 0.80188 0.0
H2762 H 0.48616 0.53492 0.83055 0.0
H2763 H 0.48693 0.57963 0.88329 0.0
H2764 H 0.53542 0.56684 0.96237 0.0
H2765 H 0.52266 0.57191 0.93256 0.0
H2766 H 0.50246 0.51738 0.88627 0.0
C2767 C 0.47763 0.54487 0.83166 0.0
C2768 C 0.48992 0.56579 0.88364 0.0
C2769 C 0.46856 0.54769 0.81495 0.0
C2770 C 0.52897 0.55442 0.95221 0.0
C2771 C 0.52133 0.55733 0.93486 0.0
C2772 C 0.49901 0.53102 0.88617 0.0
C2773 C 0.47591 0.5548 0.84935 0.0
C2774 C 0.48551 0.55153 0.86756 0.0
C2775 C 0.51233 0.54191 0.92087 0.0
C2776 C 0.50323 0.54522 0.90234 0.0
H2777 H 0.447 0.5805 0.83346 0.0
H2778 H 0.46255 0.57577 0.86228 0.0
H2779 H 0.48721 0.52239 0.8577 0.0
H2780 H 0.51907 0.50597 0.94497 0.0
H2781 H 0.50529 0.51082 0.91531 0.0
C2782 C 0.77798 0.19863 0.07625 0.0
C2783 C 0.78121 0.18032 0.07609 0.0
C2784 C 0.77779 0.21021 0.09306 0.0
C2785 C 0.7978 0.21832 0.14064 0.0
H2786 H 0.76504 0.25105 0.14995 0.0
C2787 C 0.79665 0.26056 0.21185 0.0
C2788 C 0.7973 0.28013 0.21275 0.0
C2789 C 0.79376 0.24867 0.19477 0.0
C2790 C 0.77433 0.2421 0.14733 0.0
H2791 H 0.78575 0.15918 0.09302 0.0
H2792 H 0.78567 0.17967 0.12265 0.0
H2793 H 0.76012 0.22796 0.121 0.0
H2794 H 0.79505 0.30271 0.19684 0.0
H2795 H 0.78951 0.28148 0.16649 0.0
H2796 H 0.81198 0.23236 0.16692 0.0
C2797 C 0.78343 0.18504 0.10974 0.0
C2798 C 0.77149 0.2289 0.13094 0.0
C2799 C 0.78348 0.17338 0.09289 0.0
C2800 C 0.79457 0.28762 0.19635 0.0
C2801 C 0.79141 0.27557 0.17914 0.0
C2802 C 0.8006 0.23144 0.15698 0.0
C2803 C 0.78095 0.20367 0.10991 0.0
C2804 C 0.78319 0.21688 0.12755 0.0
C2805 C 0.79127 0.2561 0.17833 0.0
C2806 C 0.78883 0.24331 0.16046 0.0
H2807 H 0.77585 0.20412 0.06341 0.0
H2808 H 0.77592 0.22455 0.09287 0.0
H2809 H 0.80723 0.20952 0.13809 0.0
H2810 H 0.79878 0.25443 0.22432 0.0
H2811 H 0.79353 0.23364 0.1944 0.0
C2812 C 0.12983 0.55127 0.30121 0.0
C2813 C 0.14799 0.55225 0.30251 0.0
C2814 C 0.12269 0.55994 0.31598 0.0
C2815 C 0.1303 0.57804 0.3656 0.0
H2816 H 0.09822 0.6097 0.35296 0.0
C2817 C 0.09271 0.60356 0.42114 0.0
C2818 C 0.07465 0.59744 0.41507 0.0
C2819 C 0.10462 0.60655 0.40813 0.0
C2820 C 0.10726 0.60105 0.35672 0.0
H2821 H 0.17281 0.56174 0.32049 0.0
H2822 H 0.16022 0.57672 0.34646 0.0
H2823 H 0.11234 0.59427 0.3285 0.0
H2824 H 0.05457 0.59202 0.39143 0.0
H2825 H 0.0751 0.5963 0.36875 0.0
H2826 H 0.1245 0.58357 0.39347 0.0
C2827 C 0.15158 0.56938 0.334 0.0
C2828 C 0.11521 0.59214 0.34274 0.0
C2829 C 0.15873 0.56072 0.31922 0.0
C2830 C 0.06848 0.59686 0.39637 0.0
C2831 C 0.08034 0.59937 0.38335 0.0
C2832 C 0.12221 0.58674 0.37953 0.0
C2833 C 0.13364 0.56958 0.3322 0.0
C2834 C 0.1264 0.5802 0.34707 0.0
C2835 C 0.09851 0.60283 0.38899 0.0
C2836 C 0.11021 0.59789 0.37516 0.0
H2837 H 0.1213 0.54477 0.28843 0.0
H2838 H 0.10872 0.55956 0.31453 0.0
H2839 H 0.13886 0.56882 0.36919 0.0
H2840 H 0.09765 0.6042 0.4356 0.0
H2841 H 0.11858 0.60979 0.41288 0.0
C2842 C 0.78789 0.87229 0.59691 0.0
C2843 C 0.79616 0.86525 0.58195 0.0
C2844 C 0.78468 0.86209 0.61166 0.0
C2845 C 0.79916 0.82407 0.63436 0.0
H2846 H 0.75827 0.82625 0.66035 0.0
C2847 C 0.79279 0.79732 0.705 0.0
C2848 C 0.77599 0.7889 0.70907 0.0
C2849 C 0.79478 0.80589 0.68905 0.0
C2850 C 0.76967 0.82522 0.65317 0.0
H2851 H 0.80737 0.84183 0.57063 0.0
H2852 H 0.80175 0.82398 0.59623 0.0
H2853 H 0.76193 0.84142 0.63292 0.0
H2854 H 0.74808 0.78295 0.6998 0.0
H2855 H 0.75143 0.79777 0.67195 0.0
H2856 H 0.80654 0.8072 0.65413 0.0
C2857 C 0.79789 0.8375 0.59677 0.0
C2858 C 0.77192 0.83424 0.63752 0.0
C2859 C 0.80101 0.84768 0.58198 0.0
C2860 C 0.7612 0.78938 0.697 0.0
C2861 C 0.76316 0.798 0.68107 0.0
C2862 C 0.7968 0.81485 0.64988 0.0
C2863 C 0.78973 0.84459 0.6119 0.0
C2864 C 0.78683 0.83404 0.62801 0.0
C2865 C 0.77999 0.80632 0.67677 0.0
C2866 C 0.78214 0.81549 0.6597 0.0
H2867 H 0.78385 0.8857 0.59721 0.0
H2868 H 0.77856 0.86819 0.62307 0.0
H2869 H 0.8109 0.82367 0.6276 0.0
H2870 H 0.80446 0.79703 0.714 0.0
H2871 H 0.80795 0.81234 0.68649 0.0
C2872 C 0.74854 0.44346 0.50898 0.0
C2873 C 0.76587 0.45151 0.517 0.0
C2874 C 0.73488 0.45143 0.51483 0.0
C2875 C 0.72216 0.48112 0.55371 0.0
H2876 H 0.68705 0.48724 0.51557 0.0
C2877 C 0.66964 0.52634 0.56299 0.0
C2878 C 0.6528 0.51815 0.55334 0.0
C2879 C 0.68316 0.5166 0.56154 0.0
C2880 C 0.69663 0.48534 0.52635 0.0
H2881 H 0.78273 0.47398 0.53752 0.0
H2882 H 0.75866 0.48815 0.54769 0.0
H2883 H 0.71205 0.47466 0.50642 0.0
H2884 H 0.63647 0.49253 0.53624 0.0
H2885 H 0.66032 0.47587 0.53318 0.0
H2886 H 0.70674 0.49237 0.57362 0.0
C2887 C 0.75571 0.47567 0.5369 0.0
C2888 C 0.71093 0.47822 0.52114 0.0
C2889 C 0.76944 0.46775 0.53091 0.0
C2890 C 0.64942 0.49947 0.54338 0.0
C2891 C 0.66298 0.48985 0.54175 0.0
C2892 C 0.70784 0.48843 0.55895 0.0
C2893 C 0.73833 0.46753 0.52887 0.0
C2894 C 0.72371 0.47588 0.53473 0.0
C2895 C 0.68005 0.49865 0.55027 0.0
C2896 C 0.69492 0.49037 0.54526 0.0
H2897 H 0.7455 0.43081 0.49837 0.0
H2898 H 0.72155 0.44477 0.50859 0.0
H2899 H 0.73185 0.4793 0.56443 0.0
H2900 H 0.67273 0.54074 0.5707 0.0
H2901 H 0.69628 0.52365 0.56814 0.0
C2902 C 0.2201 0.16083 0.51283 0.0
C2903 C 0.23232 0.15464 0.50181 0.0
C2904 C 0.2036 0.14883 0.51341 0.0
C2905 C 0.17779 0.09729 0.4976 0.0
H2906 H 0.13928 0.11856 0.51433 0.0
C2907 C 0.106 0.05216 0.48849 0.0
C2908 C 0.09581 0.05449 0.50326 0.0
C2909 C 0.12251 0.06442 0.48867 0.0
C2910 C 0.14991 0.11233 0.50971 0.0
H2911 H 0.23657 0.13112 0.48232 0.0
H2912 H 0.20775 0.11085 0.48213 0.0
H2913 H 0.16751 0.13964 0.51336 0.0
H2914 H 0.09503 0.07173 0.52982 0.0
H2915 H 0.12376 0.0933 0.53008 0.0
H2916 H 0.15968 0.07002 0.49324 0.0
C2917 C 0.21085 0.12451 0.49121 0.0
C2918 C 0.16637 0.1245 0.50924 0.0
C2919 C 0.2275 0.13632 0.49106 0.0
C2920 C 0.1025 0.06957 0.51817 0.0
C2921 C 0.11896 0.08198 0.51828 0.0
C2922 C 0.16124 0.08522 0.49766 0.0
C2923 C 0.19854 0.13034 0.50259 0.0
C2924 C 0.18074 0.11728 0.50316 0.0
C2925 C 0.12928 0.07952 0.50357 0.0
C2926 C 0.14702 0.09252 0.50372 0.0
H2927 H 0.22343 0.17485 0.52138 0.0
H2928 H 0.19506 0.15413 0.52272 0.0
H2929 H 0.18827 0.09064 0.49337 0.0
H2930 H 0.10129 0.04071 0.47678 0.0
H2931 H 0.1299 0.06217 0.47698 0.0
C2932 C 0.18284 0.94922 0.77651 0.0
C2933 C 0.18936 0.96705 0.77089 0.0
C2934 C 0.19215 0.93412 0.77497 0.0
C2935 C 0.23173 0.91777 0.75345 0.0
H2936 H 0.22351 0.8796 0.78563 0.0
C2937 C 0.27699 0.86058 0.75714 0.0
C2938 C 0.2703 0.84239 0.76198 0.0
C2939 C 0.26698 0.87504 0.7574 0.0
C2940 C 0.22606 0.88986 0.77625 0.0
H2941 H 0.21134 0.98184 0.75859 0.0
H2942 H 0.2272 0.95608 0.75572 0.0
H2943 H 0.20716 0.90476 0.78749 0.0
H2944 H 0.24702 0.82609 0.77108 0.0
H2945 H 0.23002 0.85092 0.77199 0.0
H2946 H 0.25076 0.90288 0.74234 0.0
C2947 C 0.21481 0.9535 0.76152 0.0
C2948 C 0.21643 0.90467 0.77732 0.0
C2949 C 0.20561 0.96867 0.7633 0.0
C2950 C 0.25298 0.83961 0.76716 0.0
C2951 C 0.24311 0.8542 0.76781 0.0
C2952 C 0.24142 0.903 0.75244 0.0
C2953 C 0.20853 0.93569 0.76745 0.0
C2954 C 0.21892 0.91924 0.76602 0.0
C2955 C 0.24974 0.87246 0.76296 0.0
C2956 C 0.23898 0.88853 0.76385 0.0
H2957 H 0.17048 0.94692 0.78242 0.0
H2958 H 0.1862 0.92101 0.7796 0.0
H2959 H 0.23428 0.92797 0.74401 0.0
H2960 H 0.29011 0.86371 0.75296 0.0
H2961 H 0.27309 0.88852 0.75355 0.0
C2962 C 0.36345 0.94617 0.99058 0.0
C2963 C 0.35761 0.9387 0.00613 0.0
C2964 C 0.38046 0.95693 0.99187 0.0
C2965 C 0.42061 0.97972 0.02246 0.0
H2966 H 0.40668 0.02573 0.01125 0.0
C2967 C 0.47273 0.03485 0.02811 0.0
C2968 C 0.47505 0.03218 0.00906 0.0
C2969 C 0.45621 0.03449 0.03352 0.0
C2970 C 0.41047 0.01309 0.01498 0.0
H2971 H 0.36487 0.93329 0.03384 0.0
H2972 H 0.39459 0.95314 0.03653 0.0
H2973 H 0.38531 0.99516 0.00467 0.0
H2974 H 0.46269 0.03096 0.98102 0.0
H2975 H 0.43321 0.02779 0.9904 0.0
H2976 H 0.44588 0.99727 0.03209 0.0
C2977 C 0.38631 0.95046 0.02332 0.0
C2978 C 0.39856 0.99562 0.01074 0.0
C2979 C 0.36937 0.9393 0.02186 0.0
C2980 C 0.461 0.03168 0.99567 0.0
C2981 C 0.44431 0.03079 1.00115 0.0
C2982 C 0.43248 0.99717 0.02682 0.0
C2983 C 0.39114 0.96072 0.00898 0.0
C2984 C 0.40386 0.97883 0.01375 0.0
C2985 C 0.44176 0.02945 0.0198 0.0
C2986 C 0.42767 0.01382 0.02234 0.0
H2987 H 0.35441 0.94528 0.9782 0.0
H2988 H 0.38434 0.96446 0.98054 0.0
H2989 H 0.4247 0.96689 0.02517 0.0
H2990 H 0.48346 0.0362 0.03892 0.0
H2991 H 0.45444 0.03408 0.04805 0.0
C2992 C 0.88219 0.57208 0.79092 0.0
C2993 C 0.89653 0.56809 0.78221 0.0
C2994 C 0.87271 0.5843 0.784 0.0
C2995 C 0.8599 0.60128 0.74216 0.0
H2996 H 0.85231 0.644 0.77641 0.0
C2997 C 0.8242 0.66034 0.72348 0.0
C2998 C 0.81238 0.66422 0.7361 0.0
C2999 C 0.8348 0.64765 0.72684 0.0
C3000 C 0.85432 0.63208 0.76674 0.0
H3001 H 0.9121 0.57268 0.75938 0.0
H3002 H 0.89512 0.59378 0.74694 0.0
H3003 H 0.87075 0.62371 0.78739 0.0
H3004 H 0.801 0.65725 0.76097 0.0
H3005 H 0.81926 0.6349 0.76672 0.0
H3006 H 0.84299 0.60948 0.72162 0.0
C3007 C 0.89148 0.58783 0.75923 0.0
C3008 C 0.8648 0.62056 0.77301 0.0
C3009 C 0.90121 0.57602 0.76643 0.0
C3010 C 0.81031 0.65454 0.7513 0.0
C3011 C 0.82072 0.64188 0.75457 0.0
C3012 C 0.84926 0.61281 0.73588 0.0
C3013 C 0.87728 0.59209 0.76807 0.0
C3014 C 0.86732 0.60491 0.76088 0.0
C3015 C 0.83346 0.63892 0.74279 0.0
C3016 C 0.8461 0.62795 0.74832 0.0
H3017 H 0.87843 0.56587 0.80305 0.0
H3018 H 0.86168 0.58746 0.79089 0.0
H3019 H 0.86181 0.58919 0.73267 0.0
H3020 H 0.82579 0.66776 0.71164 0.0
H3021 H 0.84457 0.64541 0.7176 0.0
C3022 C 0.84416 0.67618 0.01587 0.0
C3023 C 0.82713 0.66443 0.01165 0.0
C3024 C 0.85833 0.66876 0.02207 0.0
C3025 C 0.86874 0.6281 0.04293 0.0
H3026 H 0.91283 0.64121 0.02221 0.0
C3027 C 0.92061 0.58272 0.04615 0.0
C3028 C 0.93834 0.59104 0.04518 0.0
C3029 C 0.90784 0.5935 0.04527 0.0
C3030 C 0.9008 0.63766 0.02854 0.0
H3031 H 0.81164 0.63569 0.01051 0.0
H3032 H 0.83636 0.62268 0.02092 0.0
H3033 H 0.88913 0.65648 0.01414 0.0
H3034 H 0.95683 0.61744 0.04388 0.0
H3035 H 0.93468 0.63657 0.04316 0.0
H3036 H 0.88036 0.60931 0.05737 0.0
C3037 C 0.83875 0.63769 0.01976 0.0
C3038 C 0.88713 0.64639 0.02379 0.0
C3039 C 0.82461 0.6451 0.01358 0.0
C3040 C 0.9432 0.61062 0.04438 0.0
C3041 C 0.93045 0.62152 0.04384 0.0
C3042 C 0.88248 0.6195 0.04785 0.0
C3043 C 0.85577 0.64944 0.02418 0.0
C3044 C 0.8708 0.6414 0.03058 0.0
C3045 C 0.9125 0.61298 0.04368 0.0
C3046 C 0.89859 0.62382 0.04037 0.0
H3047 H 0.84648 0.69119 0.01472 0.0
H3048 H 0.87125 0.67824 0.02551 0.0
H3049 H 0.85644 0.62423 0.04873 0.0
H3050 H 0.91646 0.5676 0.04659 0.0
H3051 H 0.89421 0.58624 0.04492 0.0
C3052 C 0.20794 0.08221 0.79184 0.0
C3053 C 0.19181 0.07421 0.78047 0.0
C3054 C 0.21743 0.10122 0.7917 0.0
C3055 C 0.22102 0.14295 0.76388 0.0
H3056 H 0.25009 0.17161 0.80854 0.0
C3057 C 0.25944 0.22439 0.76761 0.0
C3058 C 0.27572 0.23097 0.7791 0.0
C3059 C 0.24847 0.20594 0.76777 0.0
C3060 C 0.24232 0.16397 0.7957 0.0
H3061 H 0.17346 0.08074 0.75977 0.0
H3062 H 0.18975 0.11331 0.7594 0.0
H3063 H 0.23357 0.13934 0.80864 0.0
H3064 H 0.29267 0.22257 0.7998 0.0
H3065 H 0.27397 0.19149 0.80043 0.0
H3066 H 0.22985 0.1677 0.75096 0.0
C3067 C 0.19529 0.10501 0.76854 0.0
C3068 C 0.23264 0.14506 0.79578 0.0
C3069 C 0.18572 0.08611 0.76885 0.0
C3070 C 0.28023 0.21845 0.79091 0.0
C3071 C 0.26927 0.20031 0.79128 0.0
C3072 C 0.23076 0.16191 0.76379 0.0
C3073 C 0.21142 0.11321 0.78002 0.0
C3074 C 0.22177 0.1339 0.77986 0.0
C3075 C 0.25315 0.19329 0.77958 0.0
C3076 C 0.24183 0.17297 0.77968 0.0
H3077 H 0.21327 0.07376 0.80099 0.0
H3078 H 0.22976 0.10637 0.80067 0.0
H3079 H 0.21315 0.13525 0.7511 0.0
H3080 H 0.25549 0.23313 0.75791 0.0
H3081 H 0.23628 0.20159 0.75849 0.0
C3082 C 0.40313 0.95792 0.27192 0.0
C3083 C 0.41016 0.96843 0.2895 0.0
C3084 C 0.39009 0.94136 0.27066 0.0
C3085 C 0.35502 0.93605 0.29729 0.0
H3086 H 0.33437 0.88916 0.26331 0.0
C3087 C 0.2991 0.87886 0.30507 0.0
C3088 C 0.29268 0.86552 0.28885 0.0
C3089 C 0.30856 0.89691 0.30349 0.0
C3090 C 0.33986 0.90262 0.27245 0.0
H3091 H 0.4122 0.9688 0.31927 0.0
H3092 H 0.38971 0.93946 0.31711 0.0
H3093 H 0.36583 0.90271 0.26513 0.0
H3094 H 0.28609 0.8618 0.25885 0.0
H3095 H 0.303 0.89322 0.25613 0.0
H3096 H 0.32918 0.93592 0.3048 0.0
C3097 C 0.39392 0.944 0.30437 0.0
C3098 C 0.35789 0.91001 0.27379 0.0
C3099 C 0.40676 0.96068 0.30563 0.0
C3100 C 0.29189 0.87168 0.27147 0.0
C3101 C 0.30131 0.88973 0.26992 0.0
C3102 C 0.33701 0.92874 0.29589 0.0
C3103 C 0.38421 0.93564 0.28705 0.0
C3104 C 0.36561 0.92652 0.28652 0.0
C3105 C 0.31164 0.90123 0.28572 0.0
C3106 C 0.32933 0.91181 0.28371 0.0
H3107 H 0.40568 0.96394 0.25938 0.0
H3108 H 0.38283 0.93496 0.25715 0.0
H3109 H 0.36066 0.94929 0.30671 0.0
H3110 H 0.29916 0.87461 0.31872 0.0
H3111 H 0.31595 0.90587 0.31599 0.0
C3112 C 0.57771 0.37399 0.60983 0.0
C3113 C 0.57191 0.35547 0.59964 0.0
C3114 C 0.57544 0.38993 0.60193 0.0
C3115 C 0.55046 0.40485 0.56252 0.0
H3116 H 0.5856 0.4517 0.5787 0.0
C3117 C 0.54112 0.47519 0.53661 0.0
C3118 C 0.55512 0.49138 0.53989 0.0
C3119 C 0.5429 0.4583 0.54318 0.0
C3120 C 0.5756 0.43896 0.57341 0.0
H3121 H 0.559 0.33918 0.57304 0.0
H3122 H 0.55533 0.36701 0.55905 0.0
H3123 H 0.58953 0.42339 0.58963 0.0
H3124 H 0.58213 0.50225 0.55249 0.0
H3125 H 0.58571 0.47347 0.56269 0.0
H3126 H 0.53704 0.41985 0.54528 0.0
C3127 C 0.56149 0.36927 0.57329 0.0
C3128 C 0.57778 0.42247 0.58026 0.0
C3129 C 0.56378 0.35328 0.58124 0.0
C3130 C 0.57099 0.49011 0.5496 0.0
C3131 C 0.5729 0.47326 0.55584 0.0
C3132 C 0.54847 0.42129 0.5552 0.0
C3133 C 0.56733 0.38789 0.58351 0.0
C3134 C 0.56516 0.40519 0.5752 0.0
C3135 C 0.55886 0.45691 0.55307 0.0
C3136 C 0.56096 0.43887 0.56057 0.0
H3137 H 0.58393 0.37622 0.62405 0.0
H3138 H 0.57981 0.40387 0.6105 0.0
H3139 H 0.54028 0.39191 0.55836 0.0
H3140 H 0.52865 0.47561 0.52918 0.0
H3141 H 0.53147 0.4466 0.5406 0.0
C3142 C 0.46063 0.78154 0.37141 0.0
C3143 C 0.46127 0.77321 0.38767 0.0
C3144 C 0.44503 0.78596 0.36397 0.0
C3145 C 0.3958 0.77557 0.36399 0.0
H3146 H 0.40033 0.8223 0.34323 0.0
C3147 C 0.33365 0.79882 0.32997 0.0
C3148 C 0.33619 0.80833 0.31452 0.0
C3149 C 0.34823 0.79534 0.34091 0.0
C3150 C 0.39862 0.80898 0.34861 0.0
H3151 H 0.44554 0.76294 0.40873 0.0
H3152 H 0.41827 0.77029 0.3956 0.0
H3153 H 0.42634 0.81408 0.35721 0.0
H3154 H 0.35621 0.82174 0.29887 0.0
H3155 H 0.38091 0.8157 0.3172 0.0
H3156 H 0.36803 0.7703 0.35498 0.0
C3157 C 0.42989 0.77341 0.38852 0.0
C3158 C 0.41375 0.80426 0.35679 0.0
C3159 C 0.44562 0.7692 0.39611 0.0
C3160 C 0.35363 0.81464 0.31078 0.0
C3161 C 0.368 0.81119 0.32151 0.0
C3162 C 0.38059 0.7802 0.35557 0.0
C3163 C 0.42934 0.78207 0.37239 0.0
C3164 C 0.41274 0.78734 0.36442 0.0
C3165 C 0.36576 0.80128 0.33673 0.0
C3166 C 0.3817 0.79688 0.34738 0.0
H3167 H 0.47235 0.78503 0.36454 0.0
H3168 H 0.44529 0.79237 0.35145 0.0
H3169 H 0.3943 0.7624 0.36964 0.0
H3170 H 0.32044 0.79333 0.33309 0.0
H3171 H 0.3457 0.78777 0.3525 0.0
C3172 C 0.06468 0.74659 0.07812 0.0
C3173 C 0.06266 0.75125 0.09705 0.0
C3174 C 0.06128 0.72743 0.06957 0.0
C3175 C 0.03981 0.67821 0.07591 0.0
H3176 H 0.07376 0.66314 0.04452 0.0
C3177 C 0.04476 0.60014 0.05912 0.0
C3178 C 0.04728 0.59324 0.04087 0.0
C3179 C 0.04622 0.61962 0.0648 0.0
C3180 C 0.06403 0.66713 0.05305 0.0
H3181 H 0.05502 0.73957 0.12168 0.0
H3182 H 0.04952 0.70644 0.107 0.0
H3183 H 0.07603 0.69688 0.05595 0.0
H3184 H 0.05339 0.60072 0.01418 0.0
H3185 H 0.0559 0.63505 0.02402 0.0
H3186 H 0.028 0.64846 0.07328 0.0
C3187 C 0.05345 0.71742 0.0986 0.0
C3188 C 0.06529 0.68648 0.05956 0.0
C3189 C 0.05678 0.73647 0.10709 0.0
C3190 C 0.05161 0.60595 0.02839 0.0
C3191 C 0.05303 0.62551 0.03405 0.0
C3192 C 0.03857 0.65889 0.06943 0.0
C3193 C 0.05581 0.71263 0.07979 0.0
C3194 C 0.05338 0.69224 0.07133 0.0
C3195 C 0.05009 0.63251 0.05225 0.0
C3196 C 0.05084 0.65311 0.05818 0.0
H3197 H 0.06901 0.7577 0.06999 0.0
H3198 H 0.06298 0.72421 0.05498 0.0
H3199 H 0.0302 0.68215 0.08464 0.0
H3200 H 0.04135 0.5904 0.06889 0.0
H3201 H 0.04424 0.62456 0.07901 0.0
C3202 C 0.06232 0.26872 0.87467 0.0
C3203 C 0.06053 0.27782 0.89242 0.0
C3204 C 0.07873 0.27135 0.86782 0.0
C3205 C 0.12672 0.29993 0.87919 0.0
H3206 H 0.13158 0.26412 0.83645 0.0
C3207 C 0.19017 0.30909 0.84047 0.0
C3208 C 0.19409 0.29267 0.83043 0.0
C3209 C 0.17477 0.3079 0.84938 0.0
C3210 C 0.13081 0.27412 0.84867 0.0
H3211 H 0.07481 0.29689 0.91704 0.0
H3212 H 0.10341 0.30069 0.90579 0.0
H3213 H 0.10444 0.25996 0.84946 0.0
H3214 H 0.1847 0.26196 0.82276 0.0
H3215 H 0.15907 0.25973 0.83908 0.0
H3216 H 0.154 0.31302 0.87899 0.0
C3217 C 0.09223 0.29191 0.89658 0.0
C3218 C 0.11469 0.27206 0.856 0.0
C3219 C 0.07568 0.28957 0.90325 0.0
C3220 C 0.18248 0.27499 0.83038 0.0
C3221 C 0.16734 0.27377 0.83951 0.0
C3222 C 0.14313 0.30162 0.87216 0.0
C3223 C 0.09421 0.28281 0.87866 0.0
C3224 C 0.11206 0.28501 0.87129 0.0
C3225 C 0.16284 0.29022 0.8487 0.0
C3226 C 0.14547 0.28872 0.8567 0.0
H3227 H 0.05095 0.25962 0.86591 0.0
H3228 H 0.07891 0.26441 0.85378 0.0
H3229 H 0.12571 0.31057 0.89075 0.0
H3230 H 0.19887 0.32298 0.84127 0.0
H3231 H 0.17202 0.32099 0.85628 0.0
C3232 C 0.58055 0.75482 0.90022 0.0
C3233 C 0.58249 0.77217 0.91232 0.0
C3234 C 0.57438 0.73756 0.90627 0.0
C3235 C 0.54889 0.7169 0.94111 0.0
H3236 H 0.57371 0.67615 0.93196 0.0
C3237 C 0.54189 0.65592 0.98323 0.0
C3238 C 0.54332 0.63775 0.97487 0.0
C3239 C 0.54429 0.67111 0.97335 0.0
C3240 C 0.56637 0.68719 0.93428 0.0
H3241 H 0.57956 0.78526 0.94014 0.0
H3242 H 0.56887 0.75496 0.95083 0.0
H3243 H 0.58302 0.70542 0.9193 0.0
H3244 H 0.54776 0.62102 0.94937 0.0
H3245 H 0.55176 0.64767 0.93189 0.0
H3246 H 0.53227 0.69879 0.95615 0.0
C3247 C 0.57204 0.75476 0.93664 0.0
C3248 C 0.57178 0.70399 0.92712 0.0
C3249 C 0.57834 0.77204 0.93063 0.0
C3250 C 0.54673 0.63494 0.9562 0.0
C3251 C 0.54905 0.65018 0.94623 0.0
C3252 C 0.54337 0.70005 0.94812 0.0
C3253 C 0.56994 0.7374 0.92447 0.0
C3254 C 0.56334 0.71913 0.93084 0.0
C3255 C 0.54811 0.66849 0.95483 0.0
C3256 C 0.55233 0.6852 0.94519 0.0
H3257 H 0.58357 0.75457 0.88598 0.0
H3258 H 0.57276 0.72437 0.8966 0.0
H3259 H 0.54195 0.72826 0.94383 0.0
H3260 H 0.53964 0.65863 0.99771 0.0
H3261 H 0.54388 0.68508 0.98056 0.0
C3262 C 0.05734 0.75384 0.67856 0.0
C3263 C 0.04748 0.76725 0.68413 0.0
C3264 C 0.07511 0.75731 0.68504 0.0
C3265 C 0.10847 0.78586 0.72217 0.0
H3266 H 0.14048 0.77175 0.68776 0.0
C3267 C 0.18309 0.7973 0.7435 0.0
C3268 C 0.18956 0.78109 0.73791 0.0
C3269 C 0.16622 0.7981 0.73628 0.0
C3270 C 0.13167 0.77579 0.69748 0.0
H3271 H 0.04813 0.7947 0.70068 0.0
H3272 H 0.07944 0.801 0.71182 0.0
H3273 H 0.10956 0.76793 0.67649 0.0
H3274 H 0.18417 0.75306 0.72102 0.0
H3275 H 0.15457 0.75415 0.70871 0.0
H3276 H 0.13059 0.79335 0.74323 0.0
C3277 C 0.07335 0.78765 0.70277 0.0
C3278 C 0.11401 0.77352 0.69108 0.0
C3279 C 0.0555 0.78406 0.69644 0.0
C3280 C 0.17926 0.76573 0.72523 0.0
C3281 C 0.16248 0.76644 0.71814 0.0
C3282 C 0.12617 0.78817 0.72857 0.0
C3283 C 0.08331 0.77437 0.69699 0.0
C3284 C 0.1022 0.77817 0.70346 0.0
C3285 C 0.15584 0.78263 0.72354 0.0
C3286 C 0.13778 0.78274 0.71635 0.0
H3287 H 0.05135 0.74073 0.66908 0.0
H3288 H 0.08241 0.74665 0.68068 0.0
H3289 H 0.09958 0.7894 0.73202 0.0
H3290 H 0.19107 0.80924 0.75332 0.0
H3291 H 0.16131 0.81073 0.74057 0.0
C3292 C 0.09633 0.38798 0.43035 0.0
C3293 C 0.08924 0.3782 0.41253 0.0
C3294 C 0.09034 0.40387 0.43785 0.0
C3295 C 0.06309 0.4379 0.42639 0.0
H3296 H 0.05826 0.44154 0.47914 0.0
C3297 C 0.02954 0.49074 0.47192 0.0
C3298 C 0.04145 0.50096 0.48727 0.0
C3299 C 0.03392 0.47569 0.46044 0.0
C3300 C 0.0594 0.44051 0.46434 0.0
H3301 H 0.0707 0.37727 0.3883 0.0
H3302 H 0.05966 0.40424 0.40171 0.0
H3303 H 0.06995 0.41575 0.46382 0.0
H3304 H 0.06758 0.50458 0.50201 0.0
H3305 H 0.07502 0.47847 0.48222 0.0
H3306 H 0.0523 0.46282 0.42722 0.0
C3307 C 0.07025 0.4003 0.40969 0.0
C3308 C 0.06634 0.42598 0.45563 0.0
C3309 C 0.07658 0.38481 0.40203 0.0
C3310 C 0.05799 0.49667 0.49049 0.0
C3311 C 0.06229 0.48178 0.47919 0.0
C3312 C 0.05593 0.45239 0.43513 0.0
C3313 C 0.07678 0.40973 0.42783 0.0
C3314 C 0.06872 0.42482 0.4367 0.0
C3315 C 0.05016 0.4709 0.46444 0.0
C3316 C 0.05453 0.45401 0.45425 0.0
H3317 H 0.10614 0.38309 0.43859 0.0
H3318 H 0.09598 0.41123 0.45169 0.0
H3319 H 0.06475 0.43735 0.41175 0.0
H3320 H 0.01679 0.49405 0.46912 0.0
H3321 H 0.02449 0.4674 0.44897 0.0
C3322 C 0.44734 0.24625 0.19322 0.0
C3323 C 0.45139 0.25778 0.17962 0.0
C3324 C 0.43179 0.24572 0.20113 0.0
C3325 C 0.406 0.27678 0.21645 0.0
H3326 H 0.36885 0.23262 0.21837 0.0
C3327 C 0.34333 0.28438 0.24667 0.0
C3328 C 0.33305 0.26894 0.2532 0.0
C3329 C 0.35865 0.28256 0.2393 0.0
C3330 C 0.37935 0.24499 0.2184 0.0
H3331 H 0.44241 0.27713 0.16289 0.0
H3332 H 0.41531 0.27673 0.17742 0.0
H3333 H 0.3927 0.22907 0.19972 0.0
H3334 H 0.3313 0.24017 0.25884 0.0
H3335 H 0.3592 0.23741 0.24723 0.0
H3336 H 0.39372 0.29261 0.23593 0.0
C3337 C 0.42409 0.26797 0.18164 0.0
C3338 C 0.39273 0.24297 0.20746 0.0
C3339 C 0.43951 0.26825 0.17348 0.0
C3340 C 0.33903 0.25216 0.2537 0.0
C3341 C 0.35484 0.25056 0.24687 0.0
C3342 C 0.39302 0.27871 0.22786 0.0
C3343 C 0.4204 0.25694 0.19567 0.0
C3344 C 0.40588 0.25893 0.20629 0.0
C3345 C 0.3644 0.2655 0.23892 0.0
C3346 C 0.37936 0.26291 0.2287 0.0
H3347 H 0.45629 0.23788 0.19792 0.0
H3348 H 0.42906 0.2373 0.21211 0.0
H3349 H 0.41639 0.28913 0.21588 0.0
H3350 H 0.33896 0.2975 0.24594 0.0
H3351 H 0.3653 0.29422 0.23292 0.0
C3352 C 0.61965 0.52665 0.33136 0.0
C3353 C 0.63508 0.51941 0.32988 0.0
C3354 C 0.61178 0.52869 0.3484 0.0
C3355 C 0.61223 0.51436 0.39801 0.0
H3356 H 0.58513 0.55273 0.40765 0.0
C3357 C 0.5839 0.52816 0.4719 0.0
C3358 C 0.56939 0.5369 0.47351 0.0
C3359 C 0.59199 0.5262 0.45494 0.0
C3360 C 0.59241 0.54165 0.40548 0.0
H3361 H 0.65363 0.50832 0.34637 0.0
H3362 H 0.64011 0.51142 0.37538 0.0
H3363 H 0.59778 0.54871 0.37845 0.0
H3364 H 0.55232 0.55006 0.45739 0.0
H3365 H 0.56618 0.54723 0.42884 0.0
H3366 H 0.60675 0.50718 0.42496 0.0
C3367 C 0.63391 0.51576 0.36339 0.0
C3368 C 0.59987 0.53931 0.38825 0.0
C3369 C 0.64192 0.51404 0.34645 0.0
C3370 C 0.56363 0.54364 0.45729 0.0
C3371 C 0.57177 0.54192 0.44052 0.0
C3372 C 0.6047 0.51664 0.41522 0.0
C3373 C 0.61862 0.52331 0.36508 0.0
C3374 C 0.61014 0.52563 0.38387 0.0
C3375 C 0.58614 0.53292 0.43854 0.0
C3376 C 0.59452 0.53042 0.41968 0.0
H3377 H 0.61367 0.53107 0.31928 0.0
H3378 H 0.60006 0.53436 0.3483 0.0
H3379 H 0.61957 0.50333 0.39576 0.0
H3380 H 0.58863 0.52212 0.48354 0.0
H3381 H 0.6029 0.51921 0.4548 0.0
C3382 C 0.31975 0.92194 0.07349 0.0
C3383 C 0.30793 0.90943 0.05932 0.0
C3384 C 0.32288 0.9165 0.09065 0.0
C3385 C 0.30307 0.88533 0.12087 0.0
H3386 H 0.35106 0.89076 0.14344 0.0
C3387 C 0.31971 0.84529 0.17734 0.0
C3388 C 0.32827 0.85642 0.19415 0.0
C3389 C 0.31865 0.85348 0.1615 0.0
C3390 C 0.33768 0.88956 0.13733 0.0
H3391 H 0.29003 0.88164 0.05163 0.0
H3392 H 0.29546 0.8721 0.08198 0.0
H3393 H 0.34584 0.90117 0.11335 0.0
H3394 H 0.34264 0.88436 0.20815 0.0
H3395 H 0.34127 0.89894 0.17961 0.0
H3396 H 0.29491 0.87318 0.14452 0.0
C3397 C 0.30221 0.88608 0.07972 0.0
C3398 C 0.33469 0.89536 0.12026 0.0
C3399 C 0.29914 0.89149 0.06247 0.0
C3400 C 0.33628 0.8757 0.19506 0.0
C3401 C 0.33544 0.88391 0.17896 0.0
C3402 C 0.30606 0.87951 0.13786 0.0
C3403 C 0.31414 0.89858 0.0938 0.0
C3404 C 0.31737 0.89302 0.11191 0.0
C3405 C 0.3262 0.87285 0.16236 0.0
C3406 C 0.32335 0.88137 0.14594 0.0
H3407 H 0.3268 0.93582 0.07127 0.0
H3408 H 0.33202 0.92633 0.10148 0.0
H3409 H 0.28964 0.88373 0.11469 0.0
H3410 H 0.31315 0.83044 0.1767 0.0
H3411 H 0.31153 0.84483 0.14869 0.0
C3412 C 0.96231 0.52642 0.84598 0.0
C3413 C 0.94774 0.53475 0.84442 0.0
C3414 C 0.9682 0.5223 0.86306 0.0
C3415 C 0.97212 0.54178 0.91038 0.0
H3416 H 0.98423 0.49473 0.92045 0.0
C3417 C 0.00714 0.53971 0.98024 0.0
C3418 C 0.02137 0.53098 0.97978 0.0
C3419 C 0.99493 0.53657 0.96464 0.0
C3420 C 0.98089 0.50791 0.91774 0.0
H3421 H 0.92753 0.54488 0.85889 0.0
H3422 H 0.9384 0.53839 0.88911 0.0
H3423 H 0.96816 0.49542 0.89028 0.0
H3424 H 0.03468 0.5124 0.9634 0.0
H3425 H 0.01404 0.50813 0.93516 0.0
H3426 H 0.98574 0.55483 0.9369 0.0
C3427 C 0.94502 0.53488 0.87707 0.0
C3428 C 0.9717 0.50825 0.90067 0.0
C3429 C 0.93904 0.53883 0.85998 0.0
C3430 C 0.02369 0.51932 0.96367 0.0
C3431 C 0.01173 0.51658 0.94779 0.0
C3432 C 0.98147 0.54155 0.9272 0.0
C3433 C 0.95965 0.5267 0.87865 0.0
C3434 C 0.96746 0.52527 0.89698 0.0
C3435 C 0.99734 0.52534 0.94817 0.0
C3436 C 0.98606 0.52469 0.93097 0.0
H3437 H 0.96884 0.52264 0.83394 0.0
H3438 H 0.97968 0.5162 0.86423 0.0
H3439 H 0.96925 0.55513 0.90749 0.0
H3440 H 0.0057 0.54925 0.9925 0.0
H3441 H 0.98387 0.54337 0.96531 0.0
C3442 C 0.28383 0.23439 0.56364 0.0
C3443 C 0.29113 0.21862 0.55838 0.0
C3444 C 0.28456 0.24207 0.58254 0.0
C3445 C 0.30725 0.24336 0.62973 0.0
H3446 H 0.26397 0.25343 0.64675 0.0
C3447 C 0.29977 0.25567 0.70781 0.0
C3448 C 0.2905 0.26929 0.71469 0.0
C3449 C 0.29954 0.25006 0.68869 0.0
C3450 C 0.27626 0.25099 0.64226 0.0
H3451 H 0.30569 0.19913 0.56877 0.0
H3452 H 0.30699 0.21248 0.60153 0.0
H3453 H 0.26519 0.24372 0.61359 0.0
H3454 H 0.27326 0.28731 0.70685 0.0
H3455 H 0.27319 0.27789 0.67318 0.0
H3456 H 0.31842 0.2507 0.65827 0.0
C3457 C 0.30068 0.21896 0.59116 0.0
C3458 C 0.27696 0.24541 0.6232 0.0
C3459 C 0.29984 0.21123 0.57234 0.0
C3460 C 0.28049 0.27675 0.70194 0.0
C3461 C 0.28045 0.27131 0.68266 0.0
C3462 C 0.30661 0.24908 0.64875 0.0
C3463 C 0.29275 0.23424 0.59655 0.0
C3464 C 0.2924 0.24135 0.61671 0.0
C3465 C 0.29024 0.25809 0.67579 0.0
C3466 C 0.29104 0.25277 0.65535 0.0
H3467 H 0.27712 0.24045 0.55321 0.0
H3468 H 0.27857 0.25404 0.5862 0.0
H3469 H 0.31944 0.24059 0.62522 0.0
H3470 H 0.30736 0.24934 0.71727 0.0
H3471 H 0.30675 0.2394 0.68407 0.0
C3472 C 0.63933 0.52818 0.21238 0.0
C3473 C 0.63363 0.51283 0.22199 0.0
C3474 C 0.63107 0.52922 0.19459 0.0
C3475 C 0.59939 0.50009 0.15237 0.0
H3476 H 0.60126 0.55005 0.13906 0.0
C3477 C 0.5701 0.50739 0.07622 0.0
C3478 C 0.56851 0.52525 0.07159 0.0
C3479 C 0.57744 0.50554 0.09424 0.0
C3480 C 0.60025 0.53577 0.14207 0.0
H3481 H 0.61425 0.48621 0.21936 0.0
H3482 H 0.59997 0.48781 0.1884 0.0
H3483 H 0.61369 0.54725 0.16952 0.0
H3484 H 0.57373 0.55526 0.08324 0.0
H3485 H 0.58587 0.55231 0.11398 0.0
H3486 H 0.58547 0.48851 0.12523 0.0
C3487 C 0.61099 0.49928 0.1947 0.0
C3488 C 0.60785 0.53417 0.16 0.0
C3489 C 0.61918 0.49838 0.21274 0.0
C3490 C 0.57454 0.54116 0.08593 0.0
C3491 C 0.58181 0.53935 0.10394 0.0
C3492 C 0.59166 0.50167 0.1344 0.0
C3493 C 0.61664 0.51484 0.18515 0.0
C3494 C 0.6078 0.51631 0.1657 0.0
C3495 C 0.58363 0.52148 0.10879 0.0
C3496 C 0.59187 0.5196 0.12853 0.0
H3497 H 0.65031 0.5397 0.21873 0.0
H3498 H 0.63636 0.54137 0.18813 0.0
H3499 H 0.59894 0.48593 0.15564 0.0
H3500 H 0.56572 0.49465 0.06582 0.0
H3501 H 0.57833 0.49137 0.09643 0.0
C3502 C 0.31275 0.90616 0.94341 0.0
C3503 C 0.30463 0.89594 0.95651 0.0
C3504 C 0.31578 0.89648 0.92658 0.0
C3505 C 0.29673 0.85259 0.89531 0.0
H3506 H 0.33962 0.86187 0.87163 0.0
C3507 C 0.30566 0.80213 0.83245 0.0
C3508 C 0.30886 0.81081 0.81676 0.0
C3509 C 0.30785 0.81333 0.84994 0.0
C3510 C 0.32761 0.85929 0.87818 0.0
H3511 H 0.29442 0.86781 0.96312 0.0
H3512 H 0.29953 0.85085 0.93357 0.0
H3513 H 0.33847 0.88049 0.90222 0.0
H3514 H 0.31758 0.83769 0.80687 0.0
H3515 H 0.32186 0.85723 0.83768 0.0
H3516 H 0.28583 0.83147 0.87151 0.0
C3517 C 0.30325 0.86632 0.93619 0.0
C3518 C 0.32693 0.86987 0.8955 0.0
C3519 C 0.30025 0.87597 0.95298 0.0
C3520 C 0.31527 0.83067 0.81885 0.0
C3521 C 0.3177 0.84184 0.83639 0.0
C3522 C 0.29743 0.84203 0.87817 0.0
C3523 C 0.31064 0.87652 0.92275 0.0
C3524 C 0.31156 0.86627 0.90426 0.0
C3525 C 0.31346 0.83325 0.85189 0.0
C3526 C 0.31295 0.84505 0.86969 0.0
H3527 H 0.31675 0.92161 0.94613 0.0
H3528 H 0.32156 0.90457 0.91638 0.0
H3529 H 0.28457 0.85004 0.90161 0.0
H3530 H 0.30059 0.78687 0.8311 0.0
H3531 H 0.30453 0.80653 0.86186 0.0
C3532 C 0.95149 0.53269 0.73523 0.0
C3533 C 0.93553 0.52248 0.73963 0.0
C3534 C 0.95553 0.53006 0.71703 0.0
C3535 C 0.94564 0.49576 0.67412 0.0
H3536 H 0.9659 0.53987 0.6523 0.0
C3537 C 0.96393 0.50023 0.5979 0.0
C3538 C 0.982 0.5081 0.59895 0.0
C3539 C 0.95612 0.49921 0.61434 0.0
C3540 C 0.96004 0.52751 0.65825 0.0
H3541 H 0.91124 0.50159 0.72891 0.0
H3542 H 0.91832 0.49713 0.69701 0.0
H3543 H 0.95642 0.54459 0.68328 0.0
H3544 H 0.00625 0.52075 0.61715 0.0
H3545 H 0.99255 0.51932 0.64574 0.0
H3546 H 0.94968 0.47875 0.64904 0.0
C3547 C 0.92769 0.50701 0.70759 0.0
C3548 C 0.95482 0.53018 0.6759 0.0
C3549 C 0.92363 0.50967 0.72575 0.0
C3550 C 0.99233 0.51424 0.61624 0.0
C3551 C 0.98455 0.51355 0.63247 0.0
C3552 C 0.9508 0.4931 0.65635 0.0
C3553 C 0.94364 0.51718 0.70316 0.0
C3554 C 0.94793 0.51432 0.68406 0.0
C3555 C 0.9664 0.50654 0.63155 0.0
C3556 C 0.95832 0.50898 0.64862 0.0
H3557 H 0.96081 0.54265 0.7458 0.0
H3558 H 0.96801 0.5379 0.71385 0.0
H3559 H 0.94047 0.48336 0.68033 0.0
H3560 H 0.95588 0.49573 0.58454 0.0
H3561 H 0.94204 0.49381 0.61364 0.0
C3562 C 0.28 0.19731 0.43561 0.0
C3563 C 0.28551 0.2102 0.45241 0.0
C3564 C 0.28011 0.2037 0.41837 0.0
C3565 C 0.29919 0.24481 0.39548 0.0
H3566 H 0.26119 0.22113 0.35611 0.0
C3567 C 0.29054 0.27753 0.32888 0.0
C3568 C 0.2841 0.26574 0.31161 0.0
C3569 C 0.29091 0.27003 0.34544 0.0
C3570 C 0.27207 0.22773 0.36679 0.0
H3571 H 0.29565 0.24003 0.46414 0.0
H3572 H 0.29574 0.25129 0.43405 0.0
H3573 H 0.2614 0.2101 0.38613 0.0
H3574 H 0.27292 0.23662 0.29827 0.0
H3575 H 0.27368 0.22322 0.32744 0.0
H3576 H 0.30994 0.26236 0.3762 0.0
C3577 C 0.29144 0.23613 0.43419 0.0
C3578 C 0.27218 0.22142 0.38412 0.0
C3579 C 0.29129 0.22971 0.45149 0.0
C3580 C 0.27796 0.24607 0.31134 0.0
C3581 C 0.27834 0.23846 0.3281 0.0
C3582 C 0.29913 0.25105 0.37815 0.0
C3583 C 0.28576 0.22322 0.41734 0.0
C3584 C 0.28569 0.22994 0.39879 0.0
C3585 C 0.28493 0.25038 0.34543 0.0
C3586 C 0.28548 0.24276 0.36355 0.0
H3587 H 0.27554 0.18217 0.43574 0.0
H3588 H 0.27595 0.19324 0.4058 0.0
H3589 H 0.31001 0.25151 0.40621 0.0
H3590 H 0.29536 0.29278 0.32971 0.0
H3591 H 0.29568 0.27984 0.35835 0.0
C3592 C 0.33866 0.63229 0.53726 0.0
C3593 C 0.32309 0.62236 0.52613 0.0
C3594 C 0.35451 0.6276 0.53393 0.0
C3595 C 0.37769 0.60826 0.49828 0.0
H3596 H 0.40618 0.59713 0.53961 0.0
C3597 C 0.43737 0.57464 0.48953 0.0
C3598 C 0.45007 0.57694 0.50503 0.0
C3599 C 0.42306 0.58318 0.49083 0.0
C3600 C 0.3987 0.6007 0.52798 0.0
H3601 H 0.31149 0.5999 0.50286 0.0
H3602 H 0.33961 0.59154 0.49697 0.0
H3603 H 0.37812 0.6048 0.54445 0.0
H3604 H 0.45867 0.59211 0.53335 0.0
H3605 H 0.43484 0.60836 0.53486 0.0
H3606 H 0.39846 0.60466 0.48185 0.0
C3607 C 0.33939 0.60288 0.50827 0.0
C3608 C 0.38251 0.60481 0.53076 0.0
C3609 C 0.3234 0.60742 0.5118 0.0
C3610 C 0.44921 0.5898 0.52108 0.0
C3611 C 0.43527 0.59889 0.52211 0.0
C3612 C 0.39413 0.60449 0.49554 0.0
C3613 C 0.355 0.61306 0.51929 0.0
C3614 C 0.37189 0.60847 0.51593 0.0
C3615 C 0.4215 0.59475 0.50745 0.0
C3616 C 0.40477 0.60054 0.51037 0.0
H3617 H 0.33863 0.64401 0.54826 0.0
H3618 H 0.36647 0.63563 0.54251 0.0
H3619 H 0.36965 0.6113 0.48674 0.0
H3620 H 0.43798 0.56554 0.47662 0.0
H3621 H 0.41279 0.57973 0.47916 0.0
C3622 C 0.87167 0.92198 0.54528 0.0
C3623 C 0.8572 0.92647 0.53554 0.0
C3624 C 0.88905 0.93026 0.54265 0.0
C3625 C 0.91626 0.95919 0.51133 0.0
H3626 H 0.95196 0.96784 0.55363 0.0
C3627 C 0.99051 0.99528 0.50743 0.0
C3628 C 1.0001 1.00685 0.52375 0.0
C3629 C 0.97339 0.98419 0.50775 0.0
C3630 C 0.94224 0.96587 0.54164 0.0
H3631 H 0.84987 0.94294 0.51487 0.0
H3632 H 0.87999 0.95776 0.51059 0.0
H3633 H 0.9221 0.95228 0.5564 0.0
H3634 H 0.99911 0.01562 0.55316 0.0
H3635 H 0.96967 0.99694 0.55376 0.0
H3636 H 0.93645 0.97382 0.49694 0.0
C3637 C 0.87806 0.94769 0.52024 0.0
C3638 C 0.92492 0.95645 0.54312 0.0
C3639 C 0.86065 0.93936 0.52288 0.0
C3640 C 0.99219 1.00687 0.54033 0.0
C3641 C 0.9752 0.99589 0.54066 0.0
C3642 C 0.93363 0.96891 0.50992 0.0
C3643 C 0.89267 0.94344 0.53019 0.0
C3644 C 0.91147 0.95302 0.52809 0.0
C3645 C 0.96538 0.98428 0.52443 0.0
C3646 C 0.94694 0.97271 0.52518 0.0
H3647 H 0.86959 0.91192 0.55495 0.0
H3648 H 0.89963 0.92604 0.55032 0.0
H3649 H 0.90659 0.95659 0.49919 0.0
H3650 H 0.99613 0.99498 0.49436 0.0
H3651 H 0.96653 0.97544 0.49491 0.0
C3652 C 0.8852 0.1144 0.25359 0.0
C3653 C 0.90031 0.11422 0.26573 0.0
C3654 C 0.87742 0.13069 0.254 0.0
C3655 C 0.87998 0.18249 0.28139 0.0
H3656 H 0.84458 0.18329 0.2414 0.0
C3657 C 0.84876 0.25189 0.27671 0.0
C3658 C 0.83148 0.24962 0.26757 0.0
C3659 C 0.85738 0.23618 0.27691 0.0
C3660 C 0.85427 0.1836 0.25299 0.0
H3661 H 0.91858 0.13258 0.28817 0.0
H3662 H 0.90548 0.1604 0.28893 0.0
H3663 H 0.8581 0.1562 0.24094 0.0
H3664 H 0.81046 0.22783 0.2511 0.0
H3665 H 0.82511 0.20136 0.25105 0.0
H3666 H 0.87612 0.21027 0.2932 0.0
C3667 C 0.89927 0.14788 0.27887 0.0
C3668 C 0.86231 0.16754 0.25274 0.0
C3669 C 0.90707 0.13155 0.2784 0.0
C3670 C 0.8236 0.23074 0.25845 0.0
C3671 C 0.83228 0.21521 0.25832 0.0
C3672 C 0.87199 0.19867 0.28156 0.0
C3673 C 0.8841 0.14818 0.26664 0.0
C3674 C 0.87545 0.16617 0.26697 0.0
C3675 C 0.84947 0.21722 0.2676 0.0
C3676 C 0.85871 0.1998 0.26741 0.0
H3677 H 0.87924 0.10175 0.24351 0.0
H3678 H 0.86585 0.12921 0.24424 0.0
H3679 H 0.88971 0.18292 0.29296 0.0
H3680 H 0.85562 0.26586 0.28408 0.0
H3681 H 0.8705 0.23909 0.28428 0.0
C3682 C 0.71654 0.13945 0.02324 0.0
C3683 C 0.72724 0.12673 0.01818 0.0
C3684 C 0.69842 0.13368 0.01914 0.0
C3685 C 0.66321 0.10113 0.98859 0.0
H3686 H 0.63648 0.10549 0.0308 0.0
C3687 C 0.59002 0.06536 0.98494 0.0
C3688 C 0.57986 0.07504 0.99591 0.0
C3689 C 0.60806 0.0727 0.98616 0.0
C3690 C 0.64372 0.10452 0.01881 0.0
H3691 H 0.72773 0.09838 0.00443 0.0
H3692 H 0.69562 0.08818 0.9972 0.0
H3693 H 0.66833 0.11653 0.03559 0.0
H3694 H 0.57965 0.1001 0.01585 0.0
H3695 H 0.61103 0.1136 0.01717 0.0
H3696 H 0.63859 0.08947 0.9717 0.0
C3697 C 0.70142 0.10254 0.00439 0.0
C3698 C 0.66188 0.1107 0.02161 0.0
C3699 C 0.71963 0.10825 0.0087 0.0
C3700 C 0.58748 0.09254 0.00728 0.0
C3701 C 0.60537 0.10009 0.00818 0.0
C3702 C 0.64496 0.09519 0.98572 0.0
C3703 C 0.6908 0.11521 0.00978 0.0
C3704 C 0.67168 0.10894 0.00654 0.0
C3705 C 0.6159 0.08994 0.99806 0.0
C3706 C 0.6351 0.09679 1.00083 0.0
H3707 H 0.72217 0.15385 0.03042 0.0
H3708 H 0.69033 0.14363 0.02327 0.0
H3709 H 0.67069 0.09985 0.97682 0.0
H3710 H 0.58423 0.05161 0.97641 0.0
H3711 H 0.61593 0.06444 0.97846 0.0
C3712 C 0.18421 0.49163 0.26715 0.0
C3713 C 0.19201 0.50331 0.25501 0.0
C3714 C 0.19097 0.4764 0.27099 0.0
C3715 C 0.21423 0.44255 0.2526 0.0
H3716 H 0.22703 0.43892 0.30443 0.0
C3717 C 0.25801 0.39546 0.27321 0.0
C3718 C 0.25168 0.38247 0.28482 0.0
C3719 C 0.24959 0.4099 0.27062 0.0
C3720 C 0.22317 0.43969 0.28999 0.0
H3721 H 0.21266 0.50865 0.23718 0.0
H3722 H 0.22453 0.48109 0.24368 0.0
H3723 H 0.21517 0.46593 0.29691 0.0
H3724 H 0.23228 0.37408 0.30329 0.0
H3725 H 0.21744 0.40029 0.29908 0.0
H3726 H 0.2224 0.41647 0.24563 0.0
C3727 C 0.21324 0.48404 0.2502 0.0
C3728 C 0.21662 0.45506 0.2857 0.0
C3729 C 0.20659 0.49964 0.24656 0.0
C3730 C 0.23727 0.38429 0.29446 0.0
C3731 C 0.22886 0.39903 0.292 0.0
C3732 C 0.22072 0.42717 0.25687 0.0
C3733 C 0.20549 0.47259 0.26259 0.0
C3734 C 0.21242 0.45661 0.267 0.0
C3735 C 0.23479 0.41147 0.27965 0.0
C3736 C 0.22552 0.42595 0.27554 0.0
H3737 H 0.17307 0.4945 0.27401 0.0
H3738 H 0.18485 0.46755 0.28049 0.0
H3739 H 0.21065 0.44349 0.23813 0.0
H3740 H 0.26907 0.39392 0.26558 0.0
H3741 H 0.25441 0.41963 0.26126 0.0
C3742 C 0.24339 0.40325 0.01851 0.0
C3743 C 0.25811 0.41458 0.03042 0.0
C3744 C 0.22768 0.40953 0.01616 0.0
C3745 C 0.20292 0.44148 0.04027 0.0
H3746 H 0.17764 0.43942 0.99169 0.0
C3747 C 0.14826 0.48233 0.03363 0.0
C3748 C 0.13387 0.47577 0.01974 0.0
C3749 C 0.16261 0.47372 0.03382 0.0
C3750 C 0.18431 0.43986 0.00541 0.0
H3751 H 0.2678 0.44139 0.04915 0.0
H3752 H 0.24031 0.45222 0.04537 0.0
H3753 H 0.20402 0.4264 0.99414 0.0
H3754 H 0.12338 0.45513 0.9948 0.0
H3755 H 0.1482 0.43928 0.99556 0.0
H3756 H 0.18319 0.45414 0.05179 0.0
C3757 C 0.24094 0.43849 0.03777 0.0
C3758 C 0.19954 0.43245 0.00679 0.0
C3759 C 0.25674 0.43234 0.03988 0.0
C3760 C 0.13428 0.46042 0.00577 0.0
C3761 C 0.14859 0.45143 0.00617 0.0
C3762 C 0.18763 0.44852 0.03895 0.0
C3763 C 0.22619 0.42716 0.02592 0.0
C3764 C 0.20928 0.43364 0.02423 0.0
C3765 C 0.16295 0.45786 0.02038 0.0
C3766 C 0.17831 0.44841 0.0215 0.0
H3767 H 0.24402 0.38949 0.01094 0.0
H3768 H 0.21657 0.40041 0.00702 0.0
H3769 H 0.2098 0.44215 0.05395 0.0
H3770 H 0.14853 0.49443 0.04431 0.0
H3771 H 0.17355 0.47977 0.04456 0.0
C3772 C 0.90158 0.98777 0.25572 0.0
C3773 C 0.89621 1.00381 0.26487 0.0
C3774 C 0.89326 0.96856 0.2571 0.0
C3775 C 0.86005 0.93842 0.28426 0.0
H3776 H 0.86253 0.89653 0.2461 0.0
C3777 C 0.81595 0.86095 0.28337 0.0
C3778 C 0.81968 0.84402 0.27404 0.0
C3779 C 0.82626 0.87948 0.28295 0.0
C3780 C 0.86167 0.90781 0.25715 0.0
H3781 H 0.8774 0.01104 0.28313 0.0
H3782 H 0.863 0.97828 0.28545 0.0
H3783 H 0.87752 0.92907 0.24399 0.0
H3784 H 0.83813 0.83448 0.25651 0.0
H3785 H 0.8562 0.8666 0.25576 0.0
H3786 H 0.84437 0.91731 0.29751 0.0
C3787 C 0.87381 0.98027 0.2771 0.0
C3788 C 0.87048 0.92695 0.25592 0.0
C3789 C 0.8821 0.99948 0.27563 0.0
C3790 C 0.83471 0.84677 0.26429 0.0
C3791 C 0.84505 0.86555 0.26366 0.0
C3792 C 0.85128 0.91935 0.28548 0.0
C3793 C 0.87905 0.96407 0.26785 0.0
C3794 C 0.86983 0.94301 0.26934 0.0
C3795 C 0.84105 0.8826 0.27288 0.0
C3796 C 0.85156 0.90333 0.27187 0.0
H3797 H 0.9124 0.99003 0.24737 0.0
H3798 H 0.89832 0.9572 0.24981 0.0
H3799 H 0.85921 0.94961 0.2954 0.0
H3800 H 0.80452 0.85991 0.2909 0.0
H3801 H 0.822 0.89149 0.29015 0.0
C3802 C 0.70174 0.11345 0.78164 0.0
C3803 C 0.68669 0.10626 0.76877 0.0
C3804 C 0.70622 0.13271 0.789 0.0
C3805 C 0.70821 0.17088 0.76742 0.0
H3806 H 0.73108 0.20083 0.81473 0.0
C3807 C 0.75417 0.24315 0.77143 0.0
C3808 C 0.76842 0.24837 0.78545 0.0
C3809 C 0.7416 0.22664 0.77111 0.0
C3810 C 0.72486 0.19249 0.80145 0.0
H3811 H 0.66348 0.11254 0.75478 0.0
H3812 H 0.67207 0.14673 0.7668 0.0
H3813 H 0.70972 0.17082 0.81432 0.0
H3814 H 0.78176 0.24075 0.80946 0.0
H3815 H 0.76042 0.2104 0.80789 0.0
H3816 H 0.72455 0.1909 0.7543 0.0
C3817 C 0.68001 0.13738 0.77155 0.0
C3818 C 0.7124 0.17572 0.80129 0.0
C3819 C 0.6754 0.11806 0.76439 0.0
C3820 C 0.77077 0.23656 0.7985 0.0
C3821 C 0.75847 0.21956 0.79777 0.0
C3822 C 0.72094 0.18723 0.76755 0.0
C3823 C 0.69583 0.14484 0.78321 0.0
C3824 C 0.70436 0.16473 0.78424 0.0
C3825 C 0.7435 0.21485 0.78444 0.0
C3826 C 0.72959 0.19798 0.78453 0.0
H3827 H 0.71023 0.10432 0.78565 0.0
H3828 H 0.71863 0.13837 0.79779 0.0
H3829 H 0.70251 0.16218 0.75411 0.0
H3830 H 0.75203 0.25255 0.76158 0.0
H3831 H 0.73005 0.22362 0.76094 0.0
loop_
_geom_bond_atom_site_label_1
_geom_bond_atom_site_label_2
_geom_bond_distance
_geom_bond_site_symmetry_2
_ccdc_geom_bond_type
In0 O1 2.294 . S
In0 O2 2.326 . S
In0 O6 2.266 . S
In0 O7 2.326 . S
In0 O8 2.266 . S
In0 O9 2.326 . S
In0 O11 2.294 . S
In0 O12 2.326 . S
O1 In0 2.294 . S
O1 C10 1.240 . S
O2 In0 2.326 . S
O2 C10 1.252 . S
C3 O6 1.252 . S
C3 O7 1.260 . S
C4 O11 1.240 . S
C4 O12 1.252 . S
C5 O8 1.252 . S
C5 O9 1.260 . S
O6 In0 2.266 . S
O6 C3 1.252 . S
O7 In0 2.326 . S
O7 C3 1.260 . S
O8 In0 2.266 . S
O8 C5 1.252 . S
O9 In0 2.326 . S
O9 C5 1.260 . S
C10 O1 1.240 . S
C10 O2 1.252 . S
O11 In0 2.294 . S
O11 C4 1.240 . S
O12 In0 2.326 . S
O12 C4 1.252 . S
In13 O14 2.294 . S
In13 O15 2.326 . S
In13 O19 2.266 1_455 S
In13 O20 2.326 1_455 S
In13 O21 2.264 1_455 S
In13 O22 2.322 1_455 S
In13 O24 2.296 . S
In13 O25 2.330 . S
O14 In13 2.294 . S
O14 C23 1.240 . S
O15 In13 2.326 . S
O15 C23 1.252 . S
C16 O19 1.252 . S
C16 O20 1.260 . S
C17 O24 1.240 . S
C17 O25 1.252 . S
C18 O21 1.252 . S
C18 O22 1.260 . S
O19 In13 2.266 1_655 S
O19 C16 1.252 . S
O20 In13 2.326 1_655 S
O20 C16 1.260 . S
O21 In13 2.264 1_655 S
O21 C18 1.252 . S
O22 In13 2.322 1_655 S
O22 C18 1.260 . S
C23 O14 1.240 . S
C23 O15 1.252 . S
O24 In13 2.296 . S
O24 C17 1.240 . S
O25 In13 2.330 . S
O25 C17 1.252 . S
In26 O27 2.294 . S
In26 O28 2.326 . S
In26 O32 2.266 . S
In26 O33 2.326 . S
In26 O34 2.266 . S
In26 O35 2.326 . S
In26 O37 2.294 . S
In26 O38 2.326 . S
O27 In26 2.294 . S
O27 C36 1.240 . S
O28 In26 2.326 . S
O28 C36 1.252 . S
C29 O32 1.252 . S
C29 O33 1.260 . S
C30 O37 1.240 . S
C30 O38 1.252 . S
C31 O34 1.252 . S
C31 O35 1.260 . S
O32 In26 2.266 . S
O32 C29 1.252 . S
O33 In26 2.326 . S
O33 C29 1.260 . S
O34 In26 2.266 . S
O34 C31 1.252 . S
O35 In26 2.326 . S
O35 C31 1.260 . S
C36 O27 1.240 . S
C36 O28 1.252 . S
O37 In26 2.294 . S
O37 C30 1.240 . S
O38 In26 2.326 . S
O38 C30 1.252 . S
In39 O40 2.294 . S
In39 O41 2.326 . S
In39 O45 2.266 . S
In39 O46 2.326 . S
In39 O47 2.266 . S
In39 O48 2.326 . S
In39 O50 2.294 . S
In39 O51 2.326 . S
O40 In39 2.294 . S
O40 C49 1.240 . S
O41 In39 2.326 . S
O41 C49 1.252 . S
C42 O45 1.252 . S
C42 O46 1.260 . S
C43 O50 1.240 . S
C43 O51 1.252 . S
C44 O47 1.252 . S
C44 O48 1.260 . S
O45 In39 2.266 . S
O45 C42 1.252 . S
O46 In39 2.326 . S
O46 C42 1.260 . S
O47 In39 2.266 . S
O47 C44 1.252 . S
O48 In39 2.326 . S
O48 C44 1.260 . S
C49 O40 1.240 . S
C49 O41 1.252 . S
O50 In39 2.294 . S
O50 C43 1.240 . S
O51 In39 2.326 . S
O51 C43 1.252 . S
In52 O53 2.294 . S
In52 O54 2.326 . S
In52 O58 2.266 . S
In52 O59 2.326 . S
In52 O60 2.266 . S
In52 O61 2.326 . S
In52 O63 2.294 . S
In52 O64 2.326 . S
O53 In52 2.294 . S
O53 C62 1.240 . S
O54 In52 2.326 . S
O54 C62 1.252 . S
C55 O58 1.252 . S
C55 O59 1.260 . S
C56 O63 1.240 . S
C56 O64 1.252 . S
C57 O60 1.252 . S
C57 O61 1.260 . S
O58 In52 2.266 . S
O58 C55 1.252 . S
O59 In52 2.326 . S
O59 C55 1.260 . S
O60 In52 2.266 . S
O60 C57 1.252 . S
O61 In52 2.326 . S
O61 C57 1.260 . S
C62 O53 1.240 . S
C62 O54 1.252 . S
O63 In52 2.294 . S
O63 C56 1.240 . S
O64 In52 2.326 . S
O64 C56 1.252 . S
In65 O66 2.294 . S
In65 O67 2.326 . S
In65 O71 2.266 . S
In65 O72 2.326 . S
In65 O73 2.266 . S
In65 O74 2.326 . S
In65 O76 2.294 . S
In65 O77 2.326 . S
O66 In65 2.294 . S
O66 C75 1.240 . S
O67 In65 2.326 . S
O67 C75 1.252 . S
C68 O71 1.252 . S
C68 O72 1.260 . S
C69 O76 1.240 . S
C69 O77 1.252 . S
C70 O73 1.252 . S
C70 O74 1.260 . S
O71 In65 2.266 . S
O71 C68 1.252 . S
O72 In65 2.326 . S
O72 C68 1.260 . S
O73 In65 2.266 . S
O73 C70 1.252 . S
O74 In65 2.326 . S
O74 C70 1.260 . S
C75 O66 1.240 . S
C75 O67 1.252 . S
O76 In65 2.294 . S
O76 C69 1.240 . S
O77 In65 2.326 . S
O77 C69 1.252 . S
In78 O79 2.294 . S
In78 O80 2.326 . S
In78 O84 2.266 . S
In78 O85 2.326 . S
In78 O86 2.266 . S
In78 O87 2.326 . S
In78 O89 2.294 . S
In78 O90 2.326 . S
O79 In78 2.294 . S
O79 C88 1.240 . S
O80 In78 2.326 . S
O80 C88 1.252 . S
C81 O84 1.252 . S
C81 O85 1.260 . S
C82 O89 1.240 . S
C82 O90 1.252 . S
C83 O86 1.252 . S
C83 O87 1.260 . S
O84 In78 2.266 . S
O84 C81 1.252 . S
O85 In78 2.326 . S
O85 C81 1.260 . S
O86 In78 2.266 . S
O86 C83 1.252 . S
O87 In78 2.326 . S
O87 C83 1.260 . S
C88 O79 1.240 . S
C88 O80 1.252 . S
O89 In78 2.294 . S
O89 C82 1.240 . S
O90 In78 2.326 . S
O90 C82 1.252 . S
In91 O92 2.294 . S
In91 O93 2.326 . S
In91 O97 2.266 . S
In91 O98 2.326 . S
In91 O99 2.266 1_455 S
In91 O100 2.326 1_455 S
In91 O102 2.294 . S
In91 O103 2.326 . S
O92 In91 2.294 . S
O92 C101 1.240 . S
O93 In91 2.326 . S
O93 C101 1.252 . S
C94 O97 1.252 . S
C94 O98 1.260 . S
C95 O102 1.240 . S
C95 O103 1.252 . S
C96 O99 1.252 . S
C96 O100 1.260 . S
O97 In91 2.266 . S
O97 C94 1.252 . S
O98 In91 2.326 . S
O98 C94 1.260 . S
O99 In91 2.266 1_655 S
O99 C96 1.252 . S
O100 In91 2.326 1_655 S
O100 C96 1.260 . S
C101 O92 1.240 . S
C101 O93 1.252 . S
O102 In91 2.294 . S
O102 C95 1.240 . S
O103 In91 2.326 . S
O103 C95 1.252 . S
In104 O105 2.294 . S
In104 O106 2.326 . S
In104 O110 2.266 . S
In104 O111 2.326 . S
In104 O112 2.266 1_545 S
In104 O113 2.326 1_545 S
In104 O115 2.294 . S
In104 O116 2.326 . S
O105 In104 2.294 . S
O105 C114 1.240 . S
O106 In104 2.326 . S
O106 C114 1.252 . S
C107 O110 1.252 . S
C107 O111 1.260 . S
C108 O115 1.240 . S
C108 O116 1.252 . S
C109 O112 1.252 . S
C109 O113 1.260 . S
O110 In104 2.266 . S
O110 C107 1.252 . S
O111 In104 2.326 . S
O111 C107 1.260 . S
O112 In104 2.266 1_565 S
O112 C109 1.252 . S
O113 In104 2.326 1_565 S
O113 C109 1.260 . S
C114 O105 1.240 . S
C114 O106 1.252 . S
O115 In104 2.294 . S
O115 C108 1.240 . S
O116 In104 2.326 . S
O116 C108 1.252 . S
In117 O118 2.294 . S
In117 O119 2.326 . S
In117 O123 2.266 . S
In117 O124 2.326 . S
In117 O125 2.266 . S
In117 O126 2.326 . S
In117 O128 2.294 . S
In117 O129 2.326 . S
O118 In117 2.294 . S
O118 C127 1.240 . S
O119 In117 2.326 . S
O119 C127 1.252 . S
C120 O123 1.252 . S
C120 O124 1.260 . S
C121 O128 1.240 . S
C121 O129 1.252 . S
C122 O125 1.252 . S
C122 O126 1.260 . S
O123 In117 2.266 . S
O123 C120 1.252 . S
O124 In117 2.326 . S
O124 C120 1.260 . S
O125 In117 2.266 . S
O125 C122 1.252 . S
O126 In117 2.326 . S
O126 C122 1.260 . S
C127 O118 1.240 . S
C127 O119 1.252 . S
O128 In117 2.294 . S
O128 C121 1.240 . S
O129 In117 2.326 . S
O129 C121 1.252 . S
In130 O131 2.294 1_545 S
In130 O132 2.326 1_545 S
In130 O136 2.266 . S
In130 O137 2.326 . S
In130 O138 2.266 . S
In130 O139 2.326 . S
In130 O141 2.294 1_545 S
In130 O142 2.326 1_545 S
O131 In130 2.294 1_565 S
O131 C140 1.240 . S
O132 In130 2.326 1_565 S
O132 C140 1.252 . S
C133 O136 1.252 . S
C133 O137 1.260 . S
C134 O141 1.240 . S
C134 O142 1.252 . S
C135 O138 1.252 . S
C135 O139 1.260 . S
O136 In130 2.266 . S
O136 C133 1.252 . S
O137 In130 2.326 . S
O137 C133 1.260 . S
O138 In130 2.266 . S
O138 C135 1.252 . S
O139 In130 2.326 . S
O139 C135 1.260 . S
C140 O131 1.240 . S
C140 O132 1.252 . S
O141 In130 2.294 1_565 S
O141 C134 1.240 . S
O142 In130 2.326 1_565 S
O142 C134 1.252 . S
In143 O144 2.294 . S
In143 O145 2.326 . S
In143 O149 2.266 1_554 S
In143 O150 2.326 1_554 S
In143 O151 2.266 . S
In143 O152 2.326 . S
In143 O154 2.294 . S
In143 O155 2.326 . S
O144 In143 2.294 . S
O144 C153 1.240 . S
O145 In143 2.326 . S
O145 C153 1.252 . S
C146 O149 1.252 . S
C146 O150 1.260 . S
C147 O154 1.240 . S
C147 O155 1.252 . S
C148 O151 1.252 . S
C148 O152 1.260 . S
O149 In143 2.266 1_556 S
O149 C146 1.252 . S
O150 In143 2.326 1_556 S
O150 C146 1.260 . S
O151 In143 2.266 . S
O151 C148 1.252 . S
O152 In143 2.326 . S
O152 C148 1.260 . S
C153 O144 1.240 . S
C153 O145 1.252 . S
O154 In143 2.294 . S
O154 C147 1.240 . S
O155 In143 2.326 . S
O155 C147 1.252 . S
In156 O157 2.294 . S
In156 O158 2.326 . S
In156 O162 2.230 1_554 S
In156 O163 2.326 1_554 S
In156 O164 2.266 . S
In156 O165 2.326 . S
In156 O167 2.294 . S
In156 O168 2.326 . S
O157 In156 2.294 . S
O157 C166 1.240 . S
O158 In156 2.326 . S
O158 C166 1.252 . S
C159 O162 1.302 . S
C159 O163 1.260 . S
C160 O167 1.240 . S
C160 O168 1.252 . S
C161 O164 1.252 . S
C161 O165 1.260 . S
O162 In156 2.230 1_556 S
O162 C159 1.302 . S
O163 In156 2.326 1_556 S
O163 C159 1.260 . S
O164 In156 2.266 . S
O164 C161 1.252 . S
O165 In156 2.326 . S
O165 C161 1.260 . S
C166 O157 1.240 . S
C166 O158 1.252 . S
O167 In156 2.294 . S
O167 C160 1.240 . S
O168 In156 2.326 . S
O168 C160 1.252 . S
In169 O170 2.294 . S
In169 O171 2.326 . S
In169 O175 2.266 . S
In169 O176 2.326 . S
In169 O177 2.283 . S
In169 O178 2.326 1_554 S
In169 O180 2.294 . S
In169 O181 2.326 . S
O170 In169 2.294 . S
O170 C179 1.240 . S
O171 In169 2.326 . S
O171 C179 1.252 . S
C172 O175 1.252 . S
C172 O176 1.260 . S
C173 O180 1.240 . S
C173 O181 1.252 . S
C174 O177 1.233 1_556 S
C174 O178 1.260 . S
O175 In169 2.266 . S
O175 C172 1.252 . S
O176 In169 2.326 . S
O176 C172 1.260 . S
O177 In169 2.283 . S
O177 C174 1.233 1_554 S
O178 In169 2.326 1_556 S
O178 C174 1.260 . S
C179 O170 1.240 . S
C179 O171 1.252 . S
O180 In169 2.294 . S
O180 C173 1.240 . S
O181 In169 2.326 . S
O181 C173 1.252 . S
In182 O183 2.294 . S
In182 O184 2.326 . S
In182 O188 2.266 . S
In182 O189 2.326 . S
In182 O190 2.266 . S
In182 O191 2.326 . S
In182 O193 2.294 . S
In182 O194 2.326 . S
O183 In182 2.294 . S
O183 C192 1.240 . S
O184 In182 2.326 . S
O184 C192 1.252 . S
C185 O188 1.252 . S
C185 O189 1.260 . S
C186 O193 1.240 . S
C186 O194 1.252 . S
C187 O190 1.252 . S
C187 O191 1.260 . S
O188 In182 2.266 . S
O188 C185 1.252 . S
O189 In182 2.326 . S
O189 C185 1.260 . S
O190 In182 2.266 . S
O190 C187 1.252 . S
O191 In182 2.326 . S
O191 C187 1.260 . S
C192 O183 1.240 . S
C192 O184 1.252 . S
O193 In182 2.294 . S
O193 C186 1.240 . S
O194 In182 2.326 . S
O194 C186 1.252 . S
In195 O196 2.294 . S
In195 O197 2.326 . S
In195 O201 2.266 . S
In195 O202 2.326 . S
In195 O203 2.266 . S
In195 O204 2.326 . S
In195 O206 2.294 . S
In195 O207 2.326 . S
O196 In195 2.294 . S
O196 C205 1.240 . S
O197 In195 2.326 . S
O197 C205 1.252 . S
C198 O201 1.252 . S
C198 O202 1.260 . S
C199 O206 1.240 . S
C199 O207 1.252 . S
C200 O203 1.252 . S
C200 O204 1.260 . S
O201 In195 2.266 . S
O201 C198 1.252 . S
O202 In195 2.326 . S
O202 C198 1.260 . S
O203 In195 2.266 . S
O203 C200 1.252 . S
O204 In195 2.326 . S
O204 C200 1.260 . S
C205 O196 1.240 . S
C205 O197 1.252 . S
O206 In195 2.294 . S
O206 C199 1.240 . S
O207 In195 2.326 . S
O207 C199 1.252 . S
In208 O209 2.294 . S
In208 O210 2.326 . S
In208 O214 2.266 . S
In208 O215 2.326 . S
In208 O216 2.266 . S
In208 O217 2.326 . S
In208 O219 2.294 . S
In208 O220 2.326 . S
O209 In208 2.294 . S
O209 C218 1.240 . S
O210 In208 2.326 . S
O210 C218 1.252 . S
C211 O214 1.252 . S
C211 O215 1.260 . S
C212 O219 1.240 . S
C212 O220 1.252 . S
C213 O216 1.252 . S
C213 O217 1.260 . S
O214 In208 2.266 . S
O214 C211 1.252 . S
O215 In208 2.326 . S
O215 C211 1.260 . S
O216 In208 2.266 . S
O216 C213 1.252 . S
O217 In208 2.326 . S
O217 C213 1.260 . S
C218 O209 1.240 . S
C218 O210 1.252 . S
O219 In208 2.294 . S
O219 C212 1.240 . S
O220 In208 2.326 . S
O220 C212 1.252 . S
In221 O222 2.294 . S
In221 O223 2.326 . S
In221 O227 2.266 . S
In221 O228 2.326 . S
In221 O229 2.266 . S
In221 O230 2.326 . S
In221 O232 2.294 . S
In221 O233 2.326 . S
O222 In221 2.294 . S
O222 C231 1.240 . S
O223 In221 2.326 . S
O223 C231 1.252 . S
C224 O227 1.252 . S
C224 O228 1.260 . S
C225 O232 1.240 . S
C225 O233 1.252 . S
C226 O229 1.252 . S
C226 O230 1.260 . S
O227 In221 2.266 . S
O227 C224 1.252 . S
O228 In221 2.326 . S
O228 C224 1.260 . S
O229 In221 2.266 . S
O229 C226 1.252 . S
O230 In221 2.326 . S
O230 C226 1.260 . S
C231 O222 1.240 . S
C231 O223 1.252 . S
O232 In221 2.294 . S
O232 C225 1.240 . S
O233 In221 2.326 . S
O233 C225 1.252 . S
In234 O235 2.294 . S
In234 O236 2.326 . S
In234 O240 2.266 . S
In234 O241 2.326 . S
In234 O242 2.266 . S
In234 O243 2.326 . S
In234 O245 2.294 . S
In234 O246 2.326 . S
O235 In234 2.294 . S
O235 C244 1.240 . S
O236 In234 2.326 . S
O236 C244 1.252 . S
C237 O240 1.252 . S
C237 O241 1.260 . S
C238 O245 1.240 . S
C238 O246 1.252 . S
C239 O242 1.252 . S
C239 O243 1.260 . S
O240 In234 2.266 . S
O240 C237 1.252 . S
O241 In234 2.326 . S
O241 C237 1.260 . S
O242 In234 2.266 . S
O242 C239 1.252 . S
O243 In234 2.326 . S
O243 C239 1.260 . S
C244 O235 1.240 . S
C244 O236 1.252 . S
O245 In234 2.294 . S
O245 C238 1.240 . S
O246 In234 2.326 . S
O246 C238 1.252 . S
In247 O248 2.294 . S
In247 O249 2.326 . S
In247 O253 2.266 . S
In247 O254 2.326 . S
In247 O255 2.266 . S
In247 O256 2.326 . S
In247 O258 2.294 . S
In247 O259 2.326 . S
O248 In247 2.294 . S
O248 C257 1.240 . S
O249 In247 2.326 . S
O249 C257 1.252 . S
C250 O253 1.252 . S
C250 O254 1.260 . S
C251 O258 1.240 . S
C251 O259 1.252 . S
C252 O255 1.252 . S
C252 O256 1.260 . S
O253 In247 2.266 . S
O253 C250 1.252 . S
O254 In247 2.326 . S
O254 C250 1.260 . S
O255 In247 2.266 . S
O255 C252 1.252 . S
O256 In247 2.326 . S
O256 C252 1.260 . S
C257 O248 1.240 . S
C257 O249 1.252 . S
O258 In247 2.294 . S
O258 C251 1.240 . S
O259 In247 2.326 . S
O259 C251 1.252 . S
In260 O261 2.294 . S
In260 O262 2.326 . S
In260 O266 2.270 . S
In260 O267 2.326 . S
In260 O268 2.266 1_554 S
In260 O269 2.326 1_554 S
In260 O271 2.294 . S
In260 O272 2.326 . S
O261 In260 2.294 . S
O261 C270 1.240 . S
O262 In260 2.326 . S
O262 C270 1.252 . S
C263 O266 1.254 . S
C263 O267 1.260 . S
C264 O271 1.240 . S
C264 O272 1.252 . S
C265 O268 1.252 . S
C265 O269 1.260 . S
O266 In260 2.270 . S
O266 C263 1.254 . S
O267 In260 2.326 . S
O267 C263 1.260 . S
O268 In260 2.266 1_556 S
O268 C265 1.252 . S
O269 In260 2.326 1_556 S
O269 C265 1.260 . S
C270 O261 1.240 . S
C270 O262 1.252 . S
O271 In260 2.294 . S
O271 C264 1.240 . S
O272 In260 2.326 . S
O272 C264 1.252 . S
In273 O274 2.294 . S
In273 O275 2.326 . S
In273 O279 2.266 . S
In273 O280 2.326 . S
In273 O281 2.266 . S
In273 O282 2.326 . S
In273 O284 2.294 . S
In273 O285 2.326 . S
O274 In273 2.294 . S
O274 C283 1.240 . S
O275 In273 2.326 . S
O275 C283 1.252 . S
C276 O279 1.252 . S
C276 O280 1.260 . S
C277 O284 1.240 . S
C277 O285 1.252 . S
C278 O281 1.252 . S
C278 O282 1.260 . S
O279 In273 2.266 . S
O279 C276 1.252 . S
O280 In273 2.326 . S
O280 C276 1.260 . S
O281 In273 2.266 . S
O281 C278 1.252 . S
O282 In273 2.326 . S
O282 C278 1.260 . S
C283 O274 1.240 . S
C283 O275 1.252 . S
O284 In273 2.294 . S
O284 C277 1.240 . S
O285 In273 2.326 . S
O285 C277 1.252 . S
In286 O287 2.294 . S
In286 O288 2.326 . S
In286 O292 2.266 . S
In286 O293 2.326 . S
In286 O294 2.266 . S
In286 O295 2.326 . S
In286 O297 2.294 . S
In286 O298 2.326 . S
O287 In286 2.294 . S
O287 C296 1.240 . S
O288 In286 2.326 . S
O288 C296 1.252 . S
C289 O292 1.252 . S
C289 O293 1.260 . S
C290 O297 1.240 . S
C290 O298 1.252 . S
C291 O294 1.252 . S
C291 O295 1.260 . S
O292 In286 2.266 . S
O292 C289 1.252 . S
O293 In286 2.326 . S
O293 C289 1.260 . S
O294 In286 2.266 . S
O294 C291 1.252 . S
O295 In286 2.326 . S
O295 C291 1.260 . S
C296 O287 1.240 . S
C296 O288 1.252 . S
O297 In286 2.294 . S
O297 C290 1.240 . S
O298 In286 2.326 . S
O298 C290 1.252 . S
In299 O300 2.294 . S
In299 O301 2.326 . S
In299 O305 2.266 . S
In299 O306 2.326 . S
In299 O307 2.266 . S
In299 O308 2.326 . S
In299 O310 2.294 . S
In299 O311 2.326 . S
O300 In299 2.294 . S
O300 C309 1.240 . S
O301 In299 2.326 . S
O301 C309 1.252 . S
C302 O305 1.252 . S
C302 O306 1.260 . S
C303 O310 1.240 . S
C303 O311 1.252 . S
C304 O307 1.252 . S
C304 O308 1.260 . S
O305 In299 2.266 . S
O305 C302 1.252 . S
O306 In299 2.326 . S
O306 C302 1.260 . S
O307 In299 2.266 . S
O307 C304 1.252 . S
O308 In299 2.326 . S
O308 C304 1.260 . S
C309 O300 1.240 . S
C309 O301 1.252 . S
O310 In299 2.294 . S
O310 C303 1.240 . S
O311 In299 2.326 . S
O311 C303 1.252 . S
Gd312 C315 2.818 1_455 S
Gd312 O332 2.377 . S
Gd312 O334 2.448 1_454 S
Gd312 O335 2.469 1_455 S
Gd312 O336 2.435 1_554 S
Gd312 O337 2.717 . S
Gd312 O339 2.395 . S
Gd312 O343 2.327 . S
Gd313 C324 2.818 . S
Gd313 O333 2.395 . S
Gd313 O337 2.327 . S
Gd313 O338 2.377 . S
Gd313 O340 2.448 . S
Gd313 O341 2.506 . S
Gd313 O342 2.435 . S
Gd313 O343 2.717 . S
C314 O332 1.240 . S
C314 O333 1.240 . S
C315 Gd312 2.818 1_655 S
C315 C316 1.510 . S
C315 O334 1.249 1_554 S
C315 O335 1.267 . S
C316 C315 1.510 . S
C316 C317 1.404 1_554 S
C316 C318 1.352 . S
C317 C316 1.404 1_556 S
C317 C321 1.389 . S
C317 H344 0.930 . S
C318 C316 1.352 . S
C318 C320 1.374 . S
C318 H345 0.931 . S
C319 C320 1.359 1_556 S
C319 C321 1.364 . S
C320 C318 1.374 . S
C320 C319 1.359 1_554 S
C320 H346 0.931 . S
C321 C317 1.389 . S
C321 C319 1.364 . S
C321 H347 0.931 . S
C322 O336 1.256 . S
C322 O337 1.257 1_556 S
C323 O338 1.240 . S
C323 O339 1.240 . S
C324 Gd313 2.818 . S
C324 C325 1.510 . S
C324 O340 1.249 . S
C324 O341 1.252 . S
C325 C324 1.510 . S
C325 C326 1.404 . S
C325 C327 1.352 . S
C326 C325 1.404 . S
C326 C330 1.389 . S
C326 H348 0.930 . S
C327 C325 1.352 . S
C327 C329 1.374 . S
C327 H349 0.931 . S
C328 C329 1.359 . S
C328 C330 1.364 . S
C329 C327 1.374 . S
C329 C328 1.359 . S
C329 H350 0.923 1_545 S
C330 C326 1.389 . S
C330 C328 1.364 . S
C330 H351 0.931 . S
C331 O342 1.256 . S
C331 O343 1.257 . S
O332 Gd312 2.377 . S
O332 C314 1.240 . S
O333 Gd313 2.395 . S
O333 C314 1.240 . S
O334 Gd312 2.448 1_656 S
O334 C315 1.249 1_556 S
O335 Gd312 2.469 1_655 S
O335 C315 1.267 . S
O336 Gd312 2.435 1_556 S
O336 C322 1.256 . S
O337 Gd312 2.717 . S
O337 Gd313 2.327 . S
O337 C322 1.257 1_554 S
O338 Gd313 2.377 . S
O338 C323 1.240 . S
O339 Gd312 2.395 . S
O339 C323 1.240 . S
O340 Gd313 2.448 . S
O340 C324 1.249 . S
O341 Gd313 2.506 . S
O341 C324 1.252 . S
O342 Gd313 2.435 . S
O342 C331 1.256 . S
O343 Gd312 2.327 . S
O343 Gd313 2.717 . S
O343 C331 1.257 . S
H344 C317 0.930 . S
H345 C318 0.931 . S
H346 C320 0.931 . S
H347 C321 0.931 . S
H348 C326 0.930 . S
H349 C327 0.931 . S
H350 C329 0.923 1_565 S
H351 C330 0.931 . S
Gd352 C355 2.818 . S
Gd352 O372 2.377 . S
Gd352 O374 2.448 . S
Gd352 O375 2.506 . S
Gd352 O376 2.435 . S
Gd352 O377 2.717 . S
Gd352 O379 2.395 . S
Gd352 O383 2.327 . S
Gd353 C364 2.818 . S
Gd353 O373 2.395 . S
Gd353 O377 2.327 . S
Gd353 O378 2.377 . S
Gd353 O380 2.448 . S
Gd353 O381 2.506 . S
Gd353 O382 2.435 . S
Gd353 O383 2.717 . S
C354 O372 1.240 . S
C354 O373 1.240 . S
C355 Gd352 2.818 . S
C355 C356 1.510 . S
C355 O374 1.249 . S
C355 O375 1.252 . S
C356 C355 1.510 . S
C356 C357 1.404 . S
C356 C358 1.352 . S
C357 C356 1.404 . S
C357 C361 1.389 . S
C357 H384 0.930 . S
C358 C356 1.352 . S
C358 C360 1.374 . S
C358 H385 0.931 . S
C359 C360 1.359 . S
C359 C361 1.364 . S
C360 C358 1.374 . S
C360 C359 1.359 . S
C360 H386 0.931 . S
C361 C357 1.389 . S
C361 C359 1.364 . S
C361 H387 0.931 . S
C362 O376 1.256 . S
C362 O377 1.257 . S
C363 O378 1.240 . S
C363 O379 1.240 . S
C364 Gd353 2.818 . S
C364 C365 1.510 . S
C364 O380 1.249 . S
C364 O381 1.252 . S
C365 C364 1.510 . S
C365 C366 1.404 . S
C365 C367 1.352 . S
C366 C365 1.404 . S
C366 C370 1.389 . S
C366 H388 0.930 . S
C367 C365 1.352 . S
C367 C369 1.374 . S
C367 H389 0.931 . S
C368 C369 1.359 . S
C368 C370 1.364 . S
C369 C367 1.374 . S
C369 C368 1.359 . S
C369 H390 0.931 . S
C370 C366 1.389 . S
C370 C368 1.364 . S
C370 H391 0.931 . S
C371 O382 1.256 . S
C371 O383 1.257 . S
O372 Gd352 2.377 . S
O372 C354 1.240 . S
O373 Gd353 2.395 . S
O373 C354 1.240 . S
O374 Gd352 2.448 . S
O374 C355 1.249 . S
O375 Gd352 2.506 . S
O375 C355 1.252 . S
O376 Gd352 2.435 . S
O376 C362 1.256 . S
O377 Gd352 2.717 . S
O377 Gd353 2.327 . S
O377 C362 1.257 . S
O378 Gd353 2.377 . S
O378 C363 1.240 . S
O379 Gd352 2.395 . S
O379 C363 1.240 . S
O380 Gd353 2.448 . S
O380 C364 1.249 . S
O381 Gd353 2.506 . S
O381 C364 1.252 . S
O382 Gd353 2.435 . S
O382 C371 1.256 . S
O383 Gd352 2.327 . S
O383 Gd353 2.717 . S
O383 C371 1.257 . S
H384 C357 0.930 . S
H385 C358 0.931 . S
H386 C360 0.931 . S
H387 C361 0.931 . S
H388 C366 0.930 . S
H389 C367 0.931 . S
H390 C369 0.931 . S
H391 C370 0.931 . S
Gd392 C395 2.818 . S
Gd392 O412 2.377 1_545 S
Gd392 O414 2.448 . S
Gd392 O415 2.506 . S
Gd392 O416 2.435 . S
Gd392 O417 2.717 . S
Gd392 O419 2.395 . S
Gd392 O423 2.327 . S
Gd393 C404 2.818 . S
Gd393 O413 2.395 1_545 S
Gd393 O417 2.327 . S
Gd393 O418 2.377 . S
Gd393 O420 2.448 . S
Gd393 O421 2.506 . S
Gd393 O422 2.435 . S
Gd393 O423 2.717 . S
C394 O412 1.240 . S
C394 O413 1.240 . S
C395 Gd392 2.818 . S
C395 C396 1.510 1_545 S
C395 O414 1.249 . S
C395 O415 1.252 . S
C396 C395 1.510 1_565 S
C396 C397 1.404 . S
C396 C398 1.352 . S
C397 C396 1.404 . S
C397 C401 1.389 . S
C397 H424 0.930 . S
C398 C396 1.352 . S
C398 C400 1.374 . S
C398 H425 0.931 . S
C399 C400 1.359 . S
C399 C401 1.364 . S
C400 C398 1.374 . S
C400 C399 1.359 . S
C400 H426 0.931 . S
C401 C397 1.389 . S
C401 C399 1.364 . S
C401 H427 0.931 . S
C402 O416 1.256 . S
C402 O417 1.257 . S
C403 O418 1.240 . S
C403 O419 1.240 . S
C404 Gd393 2.818 . S
C404 C405 1.510 . S
C404 O420 1.249 . S
C404 O421 1.252 . S
C405 C404 1.510 . S
C405 C406 1.404 . S
C405 C407 1.352 . S
C406 C405 1.404 . S
C406 C410 1.389 . S
C406 H428 0.930 . S
C407 C405 1.352 . S
C407 C409 1.374 . S
C407 H429 0.931 . S
C408 C409 1.359 . S
C408 C410 1.364 . S
C409 C407 1.374 . S
C409 C408 1.359 . S
C409 H430 0.931 . S
C410 C406 1.389 . S
C410 C408 1.364 . S
C410 H431 0.931 . S
C411 O422 1.256 . S
C411 O423 1.257 . S
O412 Gd392 2.377 1_565 S
O412 C394 1.240 . S
O413 Gd393 2.395 1_565 S
O413 C394 1.240 . S
O414 Gd392 2.448 . S
O414 C395 1.249 . S
O415 Gd392 2.506 . S
O415 C395 1.252 . S
O416 Gd392 2.435 . S
O416 C402 1.256 . S
O417 Gd392 2.717 . S
O417 Gd393 2.327 . S
O417 C402 1.257 . S
O418 Gd393 2.377 . S
O418 C403 1.240 . S
O419 Gd392 2.395 . S
O419 C403 1.240 . S
O420 Gd393 2.448 . S
O420 C404 1.249 . S
O421 Gd393 2.506 . S
O421 C404 1.252 . S
O422 Gd393 2.435 . S
O422 C411 1.256 . S
O423 Gd392 2.327 . S
O423 Gd393 2.717 . S
O423 C411 1.257 . S
H424 C397 0.930 . S
H425 C398 0.931 . S
H426 C400 0.931 . S
H427 C401 0.931 . S
H428 C406 0.930 . S
H429 C407 0.931 . S
H430 C409 0.931 . S
H431 C410 0.931 . S
Gd432 C435 2.818 . S
Gd432 O452 2.377 . S
Gd432 O454 2.448 . S
Gd432 O455 2.506 . S
Gd432 O456 2.435 . S
Gd432 O457 2.717 . S
Gd432 O459 2.395 . S
Gd432 O463 2.327 . S
Gd433 C444 2.818 . S
Gd433 O453 2.395 . S
Gd433 O457 2.327 . S
Gd433 O458 2.377 . S
Gd433 O460 2.448 . S
Gd433 O461 2.506 . S
Gd433 O462 2.435 . S
Gd433 O463 2.717 . S
C434 O452 1.240 . S
C434 O453 1.240 . S
C435 Gd432 2.818 . S
C435 C436 1.510 . S
C435 O454 1.249 . S
C435 O455 1.252 . S
C436 C435 1.510 . S
C436 C437 1.404 . S
C436 C438 1.352 . S
C437 C436 1.404 . S
C437 C441 1.389 . S
C437 H464 0.930 . S
C438 C436 1.352 . S
C438 C440 1.374 . S
C438 H465 0.931 . S
C439 C440 1.359 . S
C439 C441 1.364 . S
C440 C438 1.374 . S
C440 C439 1.359 . S
C440 H466 0.931 . S
C441 C437 1.389 . S
C441 C439 1.364 . S
C441 H467 0.931 . S
C442 O456 1.256 . S
C442 O457 1.257 . S
C443 O458 1.240 . S
C443 O459 1.240 . S
C444 Gd433 2.818 . S
C444 C445 1.510 . S
C444 O460 1.249 . S
C444 O461 1.252 . S
C445 C444 1.510 . S
C445 C446 1.404 . S
C445 C447 1.352 . S
C446 C445 1.404 . S
C446 C450 1.389 . S
C446 H468 0.930 . S
C447 C445 1.352 . S
C447 C449 1.374 . S
C447 H469 0.931 . S
C448 C449 1.359 . S
C448 C450 1.364 . S
C449 C447 1.374 . S
C449 C448 1.359 . S
C449 H470 0.931 . S
C450 C446 1.389 . S
C450 C448 1.364 . S
C450 H471 0.931 . S
C451 O462 1.256 . S
C451 O463 1.257 . S
O452 Gd432 2.377 . S
O452 C434 1.240 . S
O453 Gd433 2.395 . S
O453 C434 1.240 . S
O454 Gd432 2.448 . S
O454 C435 1.249 . S
O455 Gd432 2.506 . S
O455 C435 1.252 . S
O456 Gd432 2.435 . S
O456 C442 1.256 . S
O457 Gd432 2.717 . S
O457 Gd433 2.327 . S
O457 C442 1.257 . S
O458 Gd433 2.377 . S
O458 C443 1.240 . S
O459 Gd432 2.395 . S
O459 C443 1.240 . S
O460 Gd433 2.448 . S
O460 C444 1.249 . S
O461 Gd433 2.506 . S
O461 C444 1.252 . S
O462 Gd433 2.435 . S
O462 C451 1.256 . S
O463 Gd432 2.327 . S
O463 Gd433 2.717 . S
O463 C451 1.257 . S
H464 C437 0.930 . S
H465 C438 0.931 . S
H466 C440 0.931 . S
H467 C441 0.931 . S
H468 C446 0.930 . S
H469 C447 0.931 . S
H470 C449 0.931 . S
H471 C450 0.931 . S
Gd472 C475 2.818 . S
Gd472 O492 2.377 . S
Gd472 O494 2.448 . S
Gd472 O495 2.506 . S
Gd472 O496 2.435 . S
Gd472 O497 2.717 . S
Gd472 O499 2.395 . S
Gd472 O503 2.327 . S
Gd473 C484 2.818 . S
Gd473 O493 2.395 1_565 S
Gd473 O497 2.327 1_565 S
Gd473 O498 2.377 1_565 S
Gd473 O500 2.448 . S
Gd473 O501 2.506 . S
Gd473 O502 2.435 1_565 S
Gd473 O503 2.717 1_565 S
C474 O492 1.240 . S
C474 O493 1.240 . S
C475 Gd472 2.818 . S
C475 C476 1.510 . S
C475 O494 1.249 . S
C475 O495 1.252 . S
C476 C475 1.510 . S
C476 C477 1.404 . S
C476 C478 1.352 . S
C477 C476 1.404 . S
C477 C481 1.389 . S
C477 H504 0.930 . S
C478 C476 1.352 . S
C478 C480 1.374 . S
C478 H505 0.931 . S
C479 C480 1.359 . S
C479 C481 1.364 . S
C480 C478 1.374 . S
C480 C479 1.359 . S
C480 H506 0.931 . S
C481 C477 1.389 . S
C481 C479 1.364 . S
C481 H507 0.931 . S
C482 O496 1.256 . S
C482 O497 1.257 . S
C483 O498 1.240 . S
C483 O499 1.240 . S
C484 Gd473 2.818 . S
C484 C485 1.510 . S
C484 O500 1.249 . S
C484 O501 1.252 . S
C485 C484 1.510 . S
C485 C486 1.404 . S
C485 C487 1.352 . S
C486 C485 1.404 . S
C486 C490 1.389 . S
C486 H508 0.930 . S
C487 C485 1.352 . S
C487 C489 1.374 . S
C487 H509 0.931 . S
C488 C489 1.359 . S
C488 C490 1.364 . S
C489 C487 1.374 . S
C489 C488 1.359 . S
C489 H510 0.931 . S
C490 C486 1.389 . S
C490 C488 1.364 . S
C490 H511 0.931 . S
C491 O502 1.256 . S
C491 O503 1.257 . S
O492 Gd472 2.377 . S
O492 C474 1.240 . S
O493 Gd473 2.395 1_545 S
O493 C474 1.240 . S
O494 Gd472 2.448 . S
O494 C475 1.249 . S
O495 Gd472 2.506 . S
O495 C475 1.252 . S
O496 Gd472 2.435 . S
O496 C482 1.256 . S
O497 Gd472 2.717 . S
O497 Gd473 2.327 1_545 S
O497 C482 1.257 . S
O498 Gd473 2.377 1_545 S
O498 C483 1.240 . S
O499 Gd472 2.395 . S
O499 C483 1.240 . S
O500 Gd473 2.448 . S
O500 C484 1.249 . S
O501 Gd473 2.506 . S
O501 C484 1.252 . S
O502 Gd473 2.435 1_545 S
O502 C491 1.256 . S
O503 Gd472 2.327 . S
O503 Gd473 2.717 1_545 S
O503 C491 1.257 . S
H504 C477 0.930 . S
H505 C478 0.931 . S
H506 C480 0.931 . S
H507 C481 0.931 . S
H508 C486 0.930 . S
H509 C487 0.931 . S
H510 C489 0.931 . S
H511 C490 0.931 . S
Gd512 C515 2.818 . S
Gd512 O532 2.377 . S
Gd512 O534 2.448 . S
Gd512 O535 2.506 . S
Gd512 O536 2.435 . S
Gd512 O537 2.717 . S
Gd512 O539 2.395 . S
Gd512 O543 2.327 . S
Gd513 C524 2.818 . S
Gd513 O533 2.395 . S
Gd513 O537 2.327 . S
Gd513 O538 2.377 . S
Gd513 O540 2.448 . S
Gd513 O541 2.506 . S
Gd513 O542 2.435 . S
Gd513 O543 2.717 . S
C514 O532 1.240 . S
C514 O533 1.240 . S
C515 Gd512 2.818 . S
C515 C516 1.510 . S
C515 O534 1.249 . S
C515 O535 1.252 . S
C516 C515 1.510 . S
C516 C517 1.404 . S
C516 C518 1.352 . S
C517 C516 1.404 . S
C517 C521 1.389 . S
C517 H544 0.930 . S
C518 C516 1.352 . S
C518 C520 1.374 . S
C518 H545 0.931 . S
C519 C520 1.359 . S
C519 C521 1.364 . S
C520 C518 1.374 . S
C520 C519 1.359 . S
C520 H546 0.931 . S
C521 C517 1.389 . S
C521 C519 1.364 . S
C521 H547 0.931 . S
C522 O536 1.256 . S
C522 O537 1.257 . S
C523 O538 1.240 . S
C523 O539 1.240 . S
C524 Gd513 2.818 . S
C524 C525 1.510 . S
C524 O540 1.249 . S
C524 O541 1.252 . S
C525 C524 1.510 . S
C525 C526 1.404 . S
C525 C527 1.352 . S
C526 C525 1.404 . S
C526 C530 1.389 . S
C526 H548 0.930 . S
C527 C525 1.352 . S
C527 C529 1.374 . S
C527 H549 0.931 . S
C528 C529 1.359 . S
C528 C530 1.364 . S
C529 C527 1.374 . S
C529 C528 1.359 . S
C529 H550 0.931 . S
C530 C526 1.389 . S
C530 C528 1.364 . S
C530 H551 0.931 . S
C531 O542 1.256 . S
C531 O543 1.257 . S
O532 Gd512 2.377 . S
O532 C514 1.240 . S
O533 Gd513 2.395 . S
O533 C514 1.240 . S
O534 Gd512 2.448 . S
O534 C515 1.249 . S
O535 Gd512 2.506 . S
O535 C515 1.252 . S
O536 Gd512 2.435 . S
O536 C522 1.256 . S
O537 Gd512 2.717 . S
O537 Gd513 2.327 . S
O537 C522 1.257 . S
O538 Gd513 2.377 . S
O538 C523 1.240 . S
O539 Gd512 2.395 . S
O539 C523 1.240 . S
O540 Gd513 2.448 . S
O540 C524 1.249 . S
O541 Gd513 2.506 . S
O541 C524 1.252 . S
O542 Gd513 2.435 . S
O542 C531 1.256 . S
O543 Gd512 2.327 . S
O543 Gd513 2.717 . S
O543 C531 1.257 . S
H544 C517 0.930 . S
H545 C518 0.931 . S
H546 C520 0.931 . S
H547 C521 0.931 . S
H548 C526 0.930 . S
H549 C527 0.931 . S
H550 C529 0.931 . S
H551 C530 0.931 . S
Gd552 C555 2.818 . S
Gd552 O572 2.377 . S
Gd552 O574 2.448 . S
Gd552 O575 2.506 . S
Gd552 O576 2.435 . S
Gd552 O577 2.717 1_554 S
Gd552 O579 2.395 . S
Gd552 O583 2.327 . S
Gd553 C564 2.818 . S
Gd553 O573 2.395 . S
Gd553 O577 2.327 . S
Gd553 O578 2.377 . S
Gd553 O580 2.448 . S
Gd553 O581 2.506 . S
Gd553 O582 2.435 . S
Gd553 O583 2.717 1_556 S
C554 O572 1.240 . S
C554 O573 1.240 1_554 S
C555 Gd552 2.818 . S
C555 C556 1.510 . S
C555 O574 1.249 . S
C555 O575 1.252 . S
C556 C555 1.510 . S
C556 C557 1.404 . S
C556 C558 1.352 . S
C557 C556 1.404 . S
C557 C561 1.389 1_545 S
C557 H584 0.930 1_545 S
C558 C556 1.352 . S
C558 C560 1.374 . S
C558 H585 0.931 . S
C559 C560 1.359 . S
C559 C561 1.364 1_545 S
C560 C558 1.374 . S
C560 C559 1.359 . S
C560 H586 0.931 . S
C561 C557 1.389 1_565 S
C561 C559 1.364 1_565 S
C561 H587 0.931 . S
C562 O576 1.256 1_556 S
C562 O577 1.257 . S
C563 O578 1.240 1_554 S
C563 O579 1.240 . S
C564 Gd553 2.818 . S
C564 C565 1.510 . S
C564 O580 1.249 . S
C564 O581 1.252 . S
C565 C564 1.510 . S
C565 C566 1.404 . S
C565 C567 1.352 . S
C566 C565 1.404 . S
C566 C570 1.389 . S
C566 H588 0.930 . S
C567 C565 1.352 . S
C567 C569 1.374 . S
C567 H589 0.931 . S
C568 C569 1.359 . S
C568 C570 1.364 . S
C569 C567 1.374 . S
C569 C568 1.359 . S
C569 H590 0.931 . S
C570 C566 1.389 . S
C570 C568 1.364 . S
C570 H591 0.931 . S
C571 O582 1.256 1_554 S
C571 O583 1.257 . S
O572 Gd552 2.377 . S
O572 C554 1.240 . S
O573 Gd553 2.395 . S
O573 C554 1.240 1_556 S
O574 Gd552 2.448 . S
O574 C555 1.249 . S
O575 Gd552 2.506 . S
O575 C555 1.252 . S
O576 Gd552 2.435 . S
O576 C562 1.256 1_554 S
O577 Gd552 2.717 1_556 S
O577 Gd553 2.327 . S
O577 C562 1.257 . S
O578 Gd553 2.377 . S
O578 C563 1.240 1_556 S
O579 Gd552 2.395 . S
O579 C563 1.240 . S
O580 Gd553 2.448 . S
O580 C564 1.249 . S
O581 Gd553 2.506 . S
O581 C564 1.252 . S
O582 Gd553 2.435 . S
O582 C571 1.256 1_556 S
O583 Gd552 2.327 . S
O583 Gd553 2.717 1_554 S
O583 C571 1.257 . S
H584 C557 0.930 1_565 S
H585 C558 0.931 . S
H586 C560 0.931 . S
H587 C561 0.931 . S
H588 C566 0.930 . S
H589 C567 0.931 . S
H590 C569 0.931 . S
H591 C570 0.931 . S
Gd592 C595 2.818 . S
Gd592 O612 2.377 . S
Gd592 O614 2.448 . S
Gd592 O615 2.506 . S
Gd592 O616 2.435 . S
Gd592 O617 2.717 . S
Gd592 O619 2.395 . S
Gd592 O623 2.327 . S
Gd593 C604 2.818 . S
Gd593 O613 2.395 . S
Gd593 O617 2.327 . S
Gd593 O618 2.377 . S
Gd593 O620 2.448 . S
Gd593 O621 2.506 . S
Gd593 O622 2.435 . S
Gd593 O623 2.717 . S
C594 O612 1.240 . S
C594 O613 1.240 . S
C595 Gd592 2.818 . S
C595 C596 1.510 . S
C595 O614 1.249 . S
C595 O615 1.252 . S
C596 C595 1.510 . S
C596 C597 1.404 . S
C596 C598 1.352 . S
C597 C596 1.404 . S
C597 C601 1.389 . S
C597 H624 0.930 . S
C598 C596 1.352 . S
C598 C600 1.374 . S
C598 H625 0.931 . S
C599 C600 1.359 . S
C599 C601 1.364 . S
C600 C598 1.374 . S
C600 C599 1.359 . S
C600 H626 0.931 . S
C601 C597 1.389 . S
C601 C599 1.364 . S
C601 H627 0.931 . S
C602 O616 1.256 . S
C602 O617 1.257 . S
C603 O618 1.240 . S
C603 O619 1.240 . S
C604 Gd593 2.818 . S
C604 C605 1.510 . S
C604 O620 1.249 . S
C604 O621 1.252 . S
C605 C604 1.510 . S
C605 C606 1.404 . S
C605 C607 1.352 . S
C606 C605 1.404 . S
C606 C610 1.389 . S
C606 H628 0.930 . S
C607 C605 1.352 . S
C607 C609 1.374 . S
C607 H629 0.931 . S
C608 C609 1.359 . S
C608 C610 1.364 . S
C609 C607 1.374 . S
C609 C608 1.359 . S
C609 H630 0.931 . S
C610 C606 1.389 . S
C610 C608 1.364 . S
C610 H631 0.931 . S
C611 O622 1.256 . S
C611 O623 1.257 . S
O612 Gd592 2.377 . S
O612 C594 1.240 . S
O613 Gd593 2.395 . S
O613 C594 1.240 . S
O614 Gd592 2.448 . S
O614 C595 1.249 . S
O615 Gd592 2.506 . S
O615 C595 1.252 . S
O616 Gd592 2.435 . S
O616 C602 1.256 . S
O617 Gd592 2.717 . S
O617 Gd593 2.327 . S
O617 C602 1.257 . S
O618 Gd593 2.377 . S
O618 C603 1.240 . S
O619 Gd592 2.395 . S
O619 C603 1.240 . S
O620 Gd593 2.448 . S
O620 C604 1.249 . S
O621 Gd593 2.506 . S
O621 C604 1.252 . S
O622 Gd593 2.435 . S
O622 C611 1.256 . S
O623 Gd592 2.327 . S
O623 Gd593 2.717 . S
O623 C611 1.257 . S
H624 C597 0.930 . S
H625 C598 0.931 . S
H626 C600 0.931 . S
H627 C601 0.931 . S
H628 C606 0.930 . S
H629 C607 0.931 . S
H630 C609 0.931 . S
H631 C610 0.931 . S
Gd632 C635 2.818 1_554 S
Gd632 O652 2.377 1_554 S
Gd632 O654 2.448 . S
Gd632 O655 2.506 1_554 S
Gd632 O656 2.435 . S
Gd632 O657 2.717 . S
Gd632 O659 2.395 . S
Gd632 O663 2.327 . S
Gd633 C644 2.818 1_556 S
Gd633 O653 2.395 . S
Gd633 O657 2.327 1_556 S
Gd633 O658 2.377 1_556 S
Gd633 O660 2.448 1_556 S
Gd633 O661 2.506 1_556 S
Gd633 O662 2.435 . S
Gd633 O663 2.717 1_556 S
C634 O652 1.240 . S
C634 O653 1.240 . S
C635 Gd632 2.818 1_556 S
C635 C636 1.510 . S
C635 O654 1.249 1_556 S
C635 O655 1.252 . S
C636 C635 1.510 . S
C636 C637 1.404 . S
C636 C638 1.352 . S
C637 C636 1.404 . S
C637 C641 1.389 . S
C637 H664 0.930 . S
C638 C636 1.352 . S
C638 C640 1.374 . S
C638 H665 0.931 . S
C639 C640 1.359 . S
C639 C641 1.364 . S
C640 C638 1.374 . S
C640 C639 1.359 . S
C640 H666 0.931 . S
C641 C637 1.389 . S
C641 C639 1.364 . S
C641 H667 0.931 . S
C642 O656 1.256 . S
C642 O657 1.257 . S
C643 O658 1.240 . S
C643 O659 1.240 . S
C644 Gd633 2.818 1_554 S
C644 C645 1.510 . S
C644 O660 1.249 . S
C644 O661 1.252 . S
C645 C644 1.510 . S
C645 C646 1.404 . S
C645 C647 1.352 . S
C646 C645 1.404 . S
C646 C650 1.389 . S
C646 H668 0.930 . S
C647 C645 1.352 . S
C647 C649 1.374 . S
C647 H669 0.931 . S
C648 C649 1.359 . S
C648 C650 1.364 . S
C649 C647 1.374 . S
C649 C648 1.359 . S
C649 H670 0.931 . S
C650 C646 1.389 . S
C650 C648 1.364 . S
C650 H671 0.931 . S
C651 O662 1.257 1_554 S
C651 O663 1.265 . S
O652 Gd632 2.377 1_556 S
O652 C634 1.240 . S
O653 Gd633 2.395 . S
O653 C634 1.240 . S
O654 Gd632 2.448 . S
O654 C635 1.249 1_554 S
O655 Gd632 2.506 1_556 S
O655 C635 1.252 . S
O656 Gd632 2.435 . S
O656 C642 1.256 . S
O657 Gd632 2.717 . S
O657 Gd633 2.327 1_554 S
O657 C642 1.257 . S
O658 Gd633 2.377 1_554 S
O658 C643 1.240 . S
O659 Gd632 2.395 . S
O659 C643 1.240 . S
O660 Gd633 2.448 1_554 S
O660 C644 1.249 . S
O661 Gd633 2.506 1_554 S
O661 C644 1.252 . S
O662 Gd633 2.435 . S
O662 C651 1.257 1_556 S
O663 Gd632 2.327 . S
O663 Gd633 2.717 1_554 S
O663 C651 1.265 . S
H664 C637 0.930 . S
H665 C638 0.931 . S
H666 C640 0.931 . S
H667 C641 0.931 . S
H668 C646 0.930 . S
H669 C647 0.931 . S
H670 C649 0.931 . S
H671 C650 0.931 . S
Gd672 C675 2.818 . S
Gd672 O692 2.377 . S
Gd672 O694 2.448 . S
Gd672 O695 2.506 . S
Gd672 O696 2.435 . S
Gd672 O697 2.717 . S
Gd672 O699 2.395 . S
Gd672 O703 2.327 . S
Gd673 C684 2.818 . S
Gd673 O693 2.395 . S
Gd673 O697 2.327 . S
Gd673 O698 2.377 . S
Gd673 O700 2.448 . S
Gd673 O701 2.506 . S
Gd673 O702 2.435 . S
Gd673 O703 2.717 . S
C674 O692 1.240 . S
C674 O693 1.240 . S
C675 Gd672 2.818 . S
C675 C676 1.510 . S
C675 O694 1.249 . S
C675 O695 1.252 . S
C676 C675 1.510 . S
C676 C677 1.404 . S
C676 C678 1.352 . S
C677 C676 1.404 . S
C677 C681 1.389 . S
C677 H704 0.930 . S
C678 C676 1.352 . S
C678 C680 1.374 . S
C678 H705 0.931 . S
C679 C680 1.359 . S
C679 C681 1.364 . S
C680 C678 1.374 . S
C680 C679 1.359 . S
C680 H706 0.931 . S
C681 C677 1.389 . S
C681 C679 1.364 . S
C681 H707 0.931 . S
C682 O696 1.256 . S
C682 O697 1.257 . S
C683 O698 1.240 . S
C683 O699 1.240 . S
C684 Gd673 2.818 . S
C684 C685 1.510 . S
C684 O700 1.249 . S
C684 O701 1.252 . S
C685 C684 1.510 . S
C685 C686 1.404 . S
C685 C687 1.352 . S
C686 C685 1.404 . S
C686 C690 1.389 . S
C686 H708 0.930 . S
C687 C685 1.352 . S
C687 C689 1.374 . S
C687 H709 0.931 . S
C688 C689 1.359 . S
C688 C690 1.364 . S
C689 C687 1.374 . S
C689 C688 1.359 . S
C689 H710 0.931 . S
C690 C686 1.389 . S
C690 C688 1.364 . S
C690 H711 0.931 . S
C691 O702 1.256 . S
C691 O703 1.257 . S
O692 Gd672 2.377 . S
O692 C674 1.240 . S
O693 Gd673 2.395 . S
O693 C674 1.240 . S
O694 Gd672 2.448 . S
O694 C675 1.249 . S
O695 Gd672 2.506 . S
O695 C675 1.252 . S
O696 Gd672 2.435 . S
O696 C682 1.256 . S
O697 Gd672 2.717 . S
O697 Gd673 2.327 . S
O697 C682 1.257 . S
O698 Gd673 2.377 . S
O698 C683 1.240 . S
O699 Gd672 2.395 . S
O699 C683 1.240 . S
O700 Gd673 2.448 . S
O700 C684 1.249 . S
O701 Gd673 2.506 . S
O701 C684 1.252 . S
O702 Gd673 2.435 . S
O702 C691 1.256 . S
O703 Gd672 2.327 . S
O703 Gd673 2.717 . S
O703 C691 1.257 . S
H704 C677 0.930 . S
H705 C678 0.931 . S
H706 C680 0.931 . S
H707 C681 0.931 . S
H708 C686 0.930 . S
H709 C687 0.931 . S
H710 C689 0.931 . S
H711 C690 0.931 . S
Gd712 C715 2.818 . S
Gd712 O732 2.377 1_455 S
Gd712 O734 2.448 . S
Gd712 O735 2.506 . S
Gd712 O736 2.435 . S
Gd712 O737 2.717 . S
Gd712 O739 2.395 . S
Gd712 O743 2.327 . S
Gd713 C724 2.818 . S
Gd713 O733 2.395 1_455 S
Gd713 O737 2.327 . S
Gd713 O738 2.377 . S
Gd713 O740 2.448 . S
Gd713 O741 2.506 . S
Gd713 O742 2.435 . S
Gd713 O743 2.717 . S
C714 O732 1.240 . S
C714 O733 1.240 . S
C715 Gd712 2.818 . S
C715 C716 1.510 1_455 S
C715 O734 1.249 . S
C715 O735 1.252 . S
C716 C715 1.510 1_655 S
C716 C717 1.404 . S
C716 C718 1.352 . S
C717 C716 1.404 . S
C717 C721 1.389 . S
C717 H744 0.930 1_655 S
C718 C716 1.352 . S
C718 C720 1.374 . S
C718 H745 0.931 . S
C719 C720 1.359 . S
C719 C721 1.364 . S
C720 C718 1.374 . S
C720 C719 1.359 . S
C720 H746 0.931 . S
C721 C717 1.389 . S
C721 C719 1.364 . S
C721 H747 0.931 . S
C722 O736 1.256 . S
C722 O737 1.257 . S
C723 O738 1.240 . S
C723 O739 1.240 . S
C724 Gd713 2.818 . S
C724 C725 1.510 . S
C724 O740 1.249 . S
C724 O741 1.252 . S
C725 C724 1.510 . S
C725 C726 1.404 . S
C725 C727 1.352 . S
C726 C725 1.404 . S
C726 C730 1.389 . S
C726 H748 0.930 . S
C727 C725 1.352 . S
C727 C729 1.374 . S
C727 H749 0.931 . S
C728 C729 1.359 . S
C728 C730 1.364 . S
C729 C727 1.374 . S
C729 C728 1.359 . S
C729 H750 0.931 . S
C730 C726 1.389 . S
C730 C728 1.364 . S
C730 H751 0.931 . S
C731 O742 1.256 . S
C731 O743 1.257 . S
O732 Gd712 2.377 1_655 S
O732 C714 1.240 . S
O733 Gd713 2.395 1_655 S
O733 C714 1.240 . S
O734 Gd712 2.448 . S
O734 C715 1.249 . S
O735 Gd712 2.506 . S
O735 C715 1.252 . S
O736 Gd712 2.435 . S
O736 C722 1.256 . S
O737 Gd712 2.717 . S
O737 Gd713 2.327 . S
O737 C722 1.257 . S
O738 Gd713 2.377 . S
O738 C723 1.240 . S
O739 Gd712 2.395 . S
O739 C723 1.240 . S
O740 Gd713 2.448 . S
O740 C724 1.249 . S
O741 Gd713 2.506 . S
O741 C724 1.252 . S
O742 Gd713 2.435 . S
O742 C731 1.256 . S
O743 Gd712 2.327 . S
O743 Gd713 2.717 . S
O743 C731 1.257 . S
H744 C717 0.930 1_455 S
H745 C718 0.931 . S
H746 C720 0.931 . S
H747 C721 0.931 . S
H748 C726 0.930 . S
H749 C727 0.931 . S
H750 C729 0.931 . S
H751 C730 0.931 . S
Gd752 C755 2.818 . S
Gd752 O772 2.377 . S
Gd752 O774 2.448 . S
Gd752 O775 2.506 . S
Gd752 O776 2.435 . S
Gd752 O777 2.717 . S
Gd752 O779 2.395 . S
Gd752 O783 2.327 . S
Gd753 C764 2.818 . S
Gd753 O773 2.395 . S
Gd753 O777 2.327 . S
Gd753 O778 2.377 . S
Gd753 O780 2.448 . S
Gd753 O781 2.506 . S
Gd753 O782 2.435 . S
Gd753 O783 2.717 . S
C754 O772 1.240 . S
C754 O773 1.240 . S
C755 Gd752 2.818 . S
C755 C756 1.510 . S
C755 O774 1.249 . S
C755 O775 1.252 . S
C756 C755 1.510 . S
C756 C757 1.404 . S
C756 C758 1.352 . S
C757 C756 1.404 . S
C757 C761 1.389 . S
C757 H784 0.930 . S
C758 C756 1.352 . S
C758 C760 1.374 . S
C758 H785 0.931 . S
C759 C760 1.359 . S
C759 C761 1.364 . S
C760 C758 1.374 . S
C760 C759 1.359 . S
C760 H786 0.931 . S
C761 C757 1.389 . S
C761 C759 1.364 . S
C761 H787 0.931 . S
C762 O776 1.256 . S
C762 O777 1.257 . S
C763 O778 1.240 . S
C763 O779 1.240 . S
C764 Gd753 2.818 . S
C764 C765 1.510 . S
C764 O780 1.249 . S
C764 O781 1.252 . S
C765 C764 1.510 . S
C765 C766 1.404 . S
C765 C767 1.352 . S
C766 C765 1.404 . S
C766 C770 1.389 . S
C766 H788 0.930 . S
C767 C765 1.352 . S
C767 C769 1.374 . S
C767 H789 0.931 . S
C768 C769 1.359 . S
C768 C770 1.364 . S
C769 C767 1.374 . S
C769 C768 1.359 . S
C769 H790 0.931 . S
C770 C766 1.389 . S
C770 C768 1.364 . S
C770 H791 0.931 . S
C771 O782 1.256 . S
C771 O783 1.257 . S
O772 Gd752 2.377 . S
O772 C754 1.240 . S
O773 Gd753 2.395 . S
O773 C754 1.240 . S
O774 Gd752 2.448 . S
O774 C755 1.249 . S
O775 Gd752 2.506 . S
O775 C755 1.252 . S
O776 Gd752 2.435 . S
O776 C762 1.256 . S
O777 Gd752 2.717 . S
O777 Gd753 2.327 . S
O777 C762 1.257 . S
O778 Gd753 2.377 . S
O778 C763 1.240 . S
O779 Gd752 2.395 . S
O779 C763 1.240 . S
O780 Gd753 2.448 . S
O780 C764 1.249 . S
O781 Gd753 2.506 . S
O781 C764 1.252 . S
O782 Gd753 2.435 . S
O782 C771 1.256 . S
O783 Gd752 2.327 . S
O783 Gd753 2.717 . S
O783 C771 1.257 . S
H784 C757 0.930 . S
H785 C758 0.931 . S
H786 C760 0.931 . S
H787 C761 0.931 . S
H788 C766 0.930 . S
H789 C767 0.931 . S
H790 C769 0.931 . S
H791 C770 0.931 . S
Gd792 C795 2.818 . S
Gd792 O812 2.377 . S
Gd792 O814 2.448 . S
Gd792 O815 2.506 . S
Gd792 O816 2.435 . S
Gd792 O817 2.717 . S
Gd792 O819 2.395 . S
Gd792 O823 2.327 . S
Gd793 C804 2.818 . S
Gd793 O813 2.395 . S
Gd793 O817 2.327 . S
Gd793 O818 2.377 . S
Gd793 O820 2.448 . S
Gd793 O821 2.506 . S
Gd793 O822 2.435 . S
Gd793 O823 2.717 . S
C794 O812 1.240 . S
C794 O813 1.240 . S
C795 Gd792 2.818 . S
C795 C796 1.510 . S
C795 O814 1.249 . S
C795 O815 1.252 . S
C796 C795 1.510 . S
C796 C797 1.404 . S
C796 C798 1.352 . S
C797 C796 1.404 . S
C797 C801 1.389 . S
C797 H824 0.930 . S
C798 C796 1.352 . S
C798 C800 1.374 . S
C798 H825 0.931 . S
C799 C800 1.359 . S
C799 C801 1.364 . S
C800 C798 1.374 . S
C800 C799 1.359 . S
C800 H826 0.931 . S
C801 C797 1.389 . S
C801 C799 1.364 . S
C801 H827 0.931 . S
C802 O816 1.256 . S
C802 O817 1.257 . S
C803 O818 1.240 . S
C803 O819 1.240 . S
C804 Gd793 2.818 . S
C804 C805 1.510 . S
C804 O820 1.249 . S
C804 O821 1.252 . S
C805 C804 1.510 . S
C805 C806 1.404 . S
C805 C807 1.352 . S
C806 C805 1.404 . S
C806 C810 1.389 . S
C806 H828 0.930 . S
C807 C805 1.352 . S
C807 C809 1.374 . S
C807 H829 0.931 . S
C808 C809 1.359 . S
C808 C810 1.364 . S
C809 C807 1.374 . S
C809 C808 1.359 . S
C809 H830 0.931 . S
C810 C806 1.389 . S
C810 C808 1.364 . S
C810 H831 0.931 . S
C811 O822 1.256 . S
C811 O823 1.257 . S
O812 Gd792 2.377 . S
O812 C794 1.240 . S
O813 Gd793 2.395 . S
O813 C794 1.240 . S
O814 Gd792 2.448 . S
O814 C795 1.249 . S
O815 Gd792 2.506 . S
O815 C795 1.252 . S
O816 Gd792 2.435 . S
O816 C802 1.256 . S
O817 Gd792 2.717 . S
O817 Gd793 2.327 . S
O817 C802 1.257 . S
O818 Gd793 2.377 . S
O818 C803 1.240 . S
O819 Gd792 2.395 . S
O819 C803 1.240 . S
O820 Gd793 2.448 . S
O820 C804 1.249 . S
O821 Gd793 2.506 . S
O821 C804 1.252 . S
O822 Gd793 2.435 . S
O822 C811 1.256 . S
O823 Gd792 2.327 . S
O823 Gd793 2.717 . S
O823 C811 1.257 . S
H824 C797 0.930 . S
H825 C798 0.931 . S
H826 C800 0.931 . S
H827 C801 0.931 . S
H828 C806 0.930 . S
H829 C807 0.931 . S
H830 C809 0.931 . S
H831 C810 0.931 . S
Gd832 C835 2.818 . S
Gd832 O852 2.377 . S
Gd832 O854 2.448 . S
Gd832 O855 2.506 . S
Gd832 O856 2.435 . S
Gd832 O857 2.717 . S
Gd832 O859 2.395 . S
Gd832 O863 2.327 . S
Gd833 C844 2.818 . S
Gd833 O853 2.395 . S
Gd833 O857 2.327 . S
Gd833 O858 2.377 . S
Gd833 O860 2.448 . S
Gd833 O861 2.506 . S
Gd833 O862 2.435 . S
Gd833 O863 2.717 . S
C834 O852 1.240 . S
C834 O853 1.240 . S
C835 Gd832 2.818 . S
C835 C836 1.510 . S
C835 O854 1.249 . S
C835 O855 1.252 . S
C836 C835 1.510 . S
C836 C837 1.404 . S
C836 C838 1.352 . S
C837 C836 1.404 . S
C837 C841 1.389 . S
C837 H864 0.930 . S
C838 C836 1.352 . S
C838 C840 1.374 . S
C838 H865 0.931 . S
C839 C840 1.359 . S
C839 C841 1.364 . S
C840 C838 1.374 . S
C840 C839 1.359 . S
C840 H866 0.931 . S
C841 C837 1.389 . S
C841 C839 1.364 . S
C841 H867 0.931 . S
C842 O856 1.256 . S
C842 O857 1.257 . S
C843 O858 1.240 . S
C843 O859 1.240 . S
C844 Gd833 2.818 . S
C844 C845 1.510 . S
C844 O860 1.249 . S
C844 O861 1.252 . S
C845 C844 1.510 . S
C845 C846 1.404 . S
C845 C847 1.352 . S
C846 C845 1.404 . S
C846 C850 1.389 . S
C846 H868 0.930 . S
C847 C845 1.352 . S
C847 C849 1.374 . S
C847 H869 0.931 . S
C848 C849 1.359 . S
C848 C850 1.364 . S
C849 C847 1.374 . S
C849 C848 1.359 . S
C849 H870 0.931 . S
C850 C846 1.389 . S
C850 C848 1.364 . S
C850 H871 0.931 . S
C851 O862 1.256 . S
C851 O863 1.257 . S
O852 Gd832 2.377 . S
O852 C834 1.240 . S
O853 Gd833 2.395 . S
O853 C834 1.240 . S
O854 Gd832 2.448 . S
O854 C835 1.249 . S
O855 Gd832 2.506 . S
O855 C835 1.252 . S
O856 Gd832 2.435 . S
O856 C842 1.256 . S
O857 Gd832 2.717 . S
O857 Gd833 2.327 . S
O857 C842 1.257 . S
O858 Gd833 2.377 . S
O858 C843 1.240 . S
O859 Gd832 2.395 . S
O859 C843 1.240 . S
O860 Gd833 2.448 . S
O860 C844 1.249 . S
O861 Gd833 2.506 . S
O861 C844 1.252 . S
O862 Gd833 2.435 . S
O862 C851 1.256 . S
O863 Gd832 2.327 . S
O863 Gd833 2.717 . S
O863 C851 1.257 . S
H864 C837 0.930 . S
H865 C838 0.931 . S
H866 C840 0.931 . S
H867 C841 0.931 . S
H868 C846 0.930 . S
H869 C847 0.931 . S
H870 C849 0.931 . S
H871 C850 0.931 . S
Gd872 C875 2.818 . S
Gd872 O892 2.377 . S
Gd872 O894 2.448 . S
Gd872 O895 2.506 . S
Gd872 O896 2.435 . S
Gd872 O897 2.717 . S
Gd872 O899 2.395 . S
Gd872 O903 2.327 . S
Gd873 C884 2.818 . S
Gd873 O893 2.395 . S
Gd873 O897 2.327 . S
Gd873 O898 2.377 . S
Gd873 O900 2.448 . S
Gd873 O901 2.506 . S
Gd873 O902 2.435 . S
Gd873 O903 2.717 . S
C874 O892 1.240 . S
C874 O893 1.240 . S
C875 Gd872 2.818 . S
C875 C876 1.510 . S
C875 O894 1.249 . S
C875 O895 1.252 . S
C876 C875 1.510 . S
C876 C877 1.404 . S
C876 C878 1.352 . S
C877 C876 1.404 . S
C877 C881 1.389 . S
C877 H904 0.930 . S
C878 C876 1.352 . S
C878 C880 1.374 . S
C878 H905 0.931 . S
C879 C880 1.359 . S
C879 C881 1.364 . S
C880 C878 1.374 . S
C880 C879 1.359 . S
C880 H906 0.931 . S
C881 C877 1.389 . S
C881 C879 1.364 . S
C881 H907 0.931 . S
C882 O896 1.256 . S
C882 O897 1.257 . S
C883 O898 1.240 . S
C883 O899 1.240 . S
C884 Gd873 2.818 . S
C884 C885 1.510 . S
C884 O900 1.249 . S
C884 O901 1.252 . S
C885 C884 1.510 . S
C885 C886 1.404 . S
C885 C887 1.352 . S
C886 C885 1.404 . S
C886 C890 1.389 . S
C886 H908 0.930 . S
C887 C885 1.352 . S
C887 C889 1.374 . S
C887 H909 0.931 . S
C888 C889 1.359 . S
C888 C890 1.364 . S
C889 C887 1.374 . S
C889 C888 1.359 . S
C889 H910 0.931 . S
C890 C886 1.389 . S
C890 C888 1.364 . S
C890 H911 0.931 . S
C891 O902 1.256 . S
C891 O903 1.257 . S
O892 Gd872 2.377 . S
O892 C874 1.240 . S
O893 Gd873 2.395 . S
O893 C874 1.240 . S
O894 Gd872 2.448 . S
O894 C875 1.249 . S
O895 Gd872 2.506 . S
O895 C875 1.252 . S
O896 Gd872 2.435 . S
O896 C882 1.256 . S
O897 Gd872 2.717 . S
O897 Gd873 2.327 . S
O897 C882 1.257 . S
O898 Gd873 2.377 . S
O898 C883 1.240 . S
O899 Gd872 2.395 . S
O899 C883 1.240 . S
O900 Gd873 2.448 . S
O900 C884 1.249 . S
O901 Gd873 2.506 . S
O901 C884 1.252 . S
O902 Gd873 2.435 . S
O902 C891 1.256 . S
O903 Gd872 2.327 . S
O903 Gd873 2.717 . S
O903 C891 1.257 . S
H904 C877 0.930 . S
H905 C878 0.931 . S
H906 C880 0.931 . S
H907 C881 0.931 . S
H908 C886 0.930 . S
H909 C887 0.931 . S
H910 C889 0.931 . S
H911 C890 0.931 . S
Gd912 C915 2.818 . S
Gd912 O932 2.377 . S
Gd912 O934 2.484 . S
Gd912 O935 2.506 . S
Gd912 O936 2.435 1_554 S
Gd912 O937 2.717 . S
Gd912 O939 2.395 . S
Gd912 O943 2.327 . S
Gd913 C924 2.818 1_455 S
Gd913 O933 2.395 . S
Gd913 O937 2.327 . S
Gd913 O938 2.377 . S
Gd913 O940 2.448 1_455 S
Gd913 O941 2.506 1_455 S
Gd913 O942 2.435 . S
Gd913 O943 2.717 . S
C914 O932 1.240 . S
C914 O933 1.240 . S
C915 Gd912 2.818 . S
C915 C916 1.510 . S
C915 O934 1.302 . S
C915 O935 1.252 . S
C916 C915 1.510 . S
C916 C917 1.404 1_554 S
C916 C918 1.352 . S
C917 C916 1.404 1_556 S
C917 C921 1.389 . S
C917 H944 0.930 . S
C918 C916 1.352 . S
C918 C920 1.374 . S
C918 H945 0.931 . S
C919 C920 1.359 . S
C919 C921 1.364 1_554 S
C920 C918 1.374 . S
C920 C919 1.359 . S
C920 H946 0.931 . S
C921 C917 1.389 . S
C921 C919 1.364 1_556 S
C921 H947 0.931 . S
C922 O936 1.256 . S
C922 O937 1.257 1_556 S
C923 O938 1.240 . S
C923 O939 1.240 . S
C924 Gd913 2.818 1_655 S
C924 C925 1.510 . S
C924 O940 1.249 . S
C924 O941 1.252 . S
C925 C924 1.510 . S
C925 C926 1.404 . S
C925 C927 1.352 . S
C926 C925 1.404 . S
C926 C930 1.389 . S
C926 H948 0.930 . S
C927 C925 1.352 . S
C927 C929 1.374 . S
C927 H949 0.931 . S
C928 C929 1.359 . S
C928 C930 1.364 . S
C929 C927 1.374 . S
C929 C928 1.359 . S
C929 H950 0.931 . S
C930 C926 1.389 . S
C930 C928 1.364 . S
C930 H951 0.931 . S
C931 O942 1.256 . S
C931 O943 1.257 . S
O932 Gd912 2.377 . S
O932 C914 1.240 . S
O933 Gd913 2.395 . S
O933 C914 1.240 . S
O934 Gd912 2.484 . S
O934 C915 1.302 . S
O935 Gd912 2.506 . S
O935 C915 1.252 . S
O936 Gd912 2.435 1_556 S
O936 C922 1.256 . S
O937 Gd912 2.717 . S
O937 Gd913 2.327 . S
O937 C922 1.257 1_554 S
O938 Gd913 2.377 . S
O938 C923 1.240 . S
O939 Gd912 2.395 . S
O939 C923 1.240 . S
O940 Gd913 2.448 1_655 S
O940 C924 1.249 . S
O941 Gd913 2.506 1_655 S
O941 C924 1.252 . S
O942 Gd913 2.435 . S
O942 C931 1.256 . S
O943 Gd912 2.327 . S
O943 Gd913 2.717 . S
O943 C931 1.257 . S
H944 C917 0.930 . S
H945 C918 0.931 . S
H946 C920 0.931 . S
H947 C921 0.931 . S
H948 C926 0.930 . S
H949 C927 0.931 . S
H950 C929 0.931 . S
H951 C930 0.931 . S
C952 C953 1.349 . S
C952 C954 1.327 . S
C952 H977 0.950 1_455 S
C953 C952 1.349 . S
C953 C969 1.349 . S
C954 C952 1.327 . S
C954 C973 1.429 . S
C954 H978 0.950 1_455 S
C955 C972 1.574 . S
C955 C974 1.368 . S
C955 H979 0.949 . S
H956 C960 0.949 . S
C957 C958 1.349 . S
C957 C959 1.327 1_554 S
C957 H980 0.950 . S
C958 C957 1.349 . S
C958 C970 1.349 . S
C959 C957 1.327 1_556 S
C959 C975 1.429 . S
C959 H981 0.950 . S
C960 H956 0.949 . S
C960 C968 1.574 . S
C960 C976 1.368 . S
H961 C969 0.950 . S
H962 C967 0.950 . S
H963 C968 0.968 . S
H964 C970 0.950 . S
H965 C971 0.950 . S
H966 C972 0.949 . S
C967 H962 0.950 . S
C967 C969 1.327 . S
C967 C973 1.429 . S
C968 C960 1.574 . S
C968 H963 0.968 . S
C968 C974 1.368 . S
C969 C953 1.349 . S
C969 H961 0.950 . S
C969 C967 1.327 . S
C970 C958 1.349 . S
C970 H964 0.950 . S
C970 C971 1.327 . S
C971 H965 0.950 . S
C971 C970 1.327 . S
C971 C975 1.429 1_554 S
C972 C955 1.574 . S
C972 H966 0.949 . S
C972 C976 1.368 . S
C973 C954 1.429 . S
C973 C967 1.429 . S
C973 C974 1.523 . S
C974 C955 1.368 . S
C974 C968 1.368 . S
C974 C973 1.523 . S
C975 C959 1.429 . S
C975 C971 1.429 1_556 S
C975 C976 1.523 . S
C976 C960 1.368 . S
C976 C972 1.368 . S
C976 C975 1.523 . S
H977 C952 0.950 1_655 S
H978 C954 0.950 1_655 S
H979 C955 0.949 . S
H980 C957 0.950 . S
H981 C959 0.950 . S
C982 C983 1.349 . S
C982 C984 1.327 . S
C982 H1007 0.950 . S
C983 C982 1.349 . S
C983 C999 1.349 . S
C984 C982 1.327 . S
C984 C1003 1.429 . S
C984 H1008 0.950 . S
C985 C1002 1.574 . S
C985 C1004 1.368 . S
C985 H1009 0.949 . S
H986 C990 0.949 . S
C987 C988 1.349 . S
C987 C989 1.327 . S
C987 H1010 0.950 . S
C988 C987 1.349 . S
C988 C1000 1.349 . S
C989 C987 1.327 . S
C989 C1005 1.429 . S
C989 H1011 0.950 . S
C990 H986 0.949 . S
C990 C998 1.574 . S
C990 C1006 1.368 . S
H991 C999 0.950 . S
H992 C997 0.950 . S
H993 C998 0.949 . S
H994 C1000 0.950 . S
H995 C1001 0.950 . S
H996 C1002 0.949 . S
C997 H992 0.950 . S
C997 C999 1.327 . S
C997 C1003 1.429 . S
C998 C990 1.574 . S
C998 H993 0.949 . S
C998 C1004 1.368 . S
C999 C983 1.349 . S
C999 H991 0.950 . S
C999 C997 1.327 . S
C1000 C988 1.349 . S
C1000 H994 0.950 . S
C1000 C1001 1.327 . S
C1001 H995 0.950 . S
C1001 C1000 1.327 . S
C1001 C1005 1.429 . S
C1002 C985 1.574 . S
C1002 H996 0.949 . S
C1002 C1006 1.368 . S
C1003 C984 1.429 . S
C1003 C997 1.429 . S
C1003 C1004 1.523 . S
C1004 C985 1.368 . S
C1004 C998 1.368 . S
C1004 C1003 1.523 . S
C1005 C989 1.429 . S
C1005 C1001 1.429 . S
C1005 C1006 1.523 . S
C1006 C990 1.368 . S
C1006 C1002 1.368 . S
C1006 C1005 1.523 . S
H1007 C982 0.950 . S
H1008 C984 0.950 . S
H1009 C985 0.949 . S
H1010 C987 0.950 . S
H1011 C989 0.950 . S
C1012 C1013 1.349 . S
C1012 C1014 1.327 . S
C1012 H1037 0.950 . S
C1013 C1012 1.349 . S
C1013 C1029 1.349 . S
C1014 C1012 1.327 . S
C1014 C1033 1.429 . S
C1014 H1038 0.950 . S
C1015 C1032 1.574 . S
C1015 C1034 1.368 . S
C1015 H1039 0.949 . S
H1016 C1020 0.949 . S
C1017 C1018 1.349 . S
C1017 C1019 1.327 . S
C1017 H1040 0.950 . S
C1018 C1017 1.349 . S
C1018 C1030 1.349 . S
C1019 C1017 1.327 . S
C1019 C1035 1.429 . S
C1019 H1041 0.950 . S
C1020 H1016 0.949 . S
C1020 C1028 1.574 . S
C1020 C1036 1.368 . S
H1021 C1029 0.950 . S
H1022 C1027 0.950 . S
H1023 C1028 0.949 . S
H1024 C1030 0.950 . S
H1025 C1031 0.950 . S
H1026 C1032 0.949 . S
C1027 H1022 0.950 . S
C1027 C1029 1.327 . S
C1027 C1033 1.429 . S
C1028 C1020 1.574 . S
C1028 H1023 0.949 . S
C1028 C1034 1.368 . S
C1029 C1013 1.349 . S
C1029 H1021 0.950 . S
C1029 C1027 1.327 . S
C1030 C1018 1.349 . S
C1030 H1024 0.950 . S
C1030 C1031 1.327 . S
C1031 H1025 0.950 . S
C1031 C1030 1.327 . S
C1031 C1035 1.429 . S
C1032 C1015 1.574 . S
C1032 H1026 0.949 . S
C1032 C1036 1.368 . S
C1033 C1014 1.429 . S
C1033 C1027 1.429 . S
C1033 C1034 1.523 . S
C1034 C1015 1.368 . S
C1034 C1028 1.368 . S
C1034 C1033 1.523 . S
C1035 C1019 1.429 . S
C1035 C1031 1.429 . S
C1035 C1036 1.523 . S
C1036 C1020 1.368 . S
C1036 C1032 1.368 . S
C1036 C1035 1.523 . S
H1037 C1012 0.950 . S
H1038 C1014 0.950 . S
H1039 C1015 0.949 . S
H1040 C1017 0.950 . S
H1041 C1019 0.950 . S
C1042 C1043 1.349 . S
C1042 C1044 1.327 . S
C1042 H1067 0.950 . S
C1043 C1042 1.349 . S
C1043 C1059 1.349 . S
C1044 C1042 1.327 . S
C1044 C1063 1.429 . S
C1044 H1068 0.950 . S
C1045 C1062 1.574 . S
C1045 C1064 1.368 . S
C1045 H1069 0.949 . S
H1046 C1050 0.949 . S
C1047 C1048 1.349 . S
C1047 C1049 1.327 . S
C1047 H1070 0.950 . S
C1048 C1047 1.349 . S
C1048 C1060 1.349 . S
C1049 C1047 1.327 . S
C1049 C1065 1.429 . S
C1049 H1071 0.950 . S
C1050 H1046 0.949 . S
C1050 C1058 1.574 . S
C1050 C1066 1.368 . S
H1051 C1059 0.950 . S
H1052 C1057 0.950 . S
H1053 C1058 0.949 . S
H1054 C1060 0.950 . S
H1055 C1061 0.950 . S
H1056 C1062 0.949 . S
C1057 H1052 0.950 . S
C1057 C1059 1.327 . S
C1057 C1063 1.429 . S
C1058 C1050 1.574 . S
C1058 H1053 0.949 . S
C1058 C1064 1.368 . S
C1059 C1043 1.349 . S
C1059 H1051 0.950 . S
C1059 C1057 1.327 . S
C1060 C1048 1.349 . S
C1060 H1054 0.950 . S
C1060 C1061 1.327 . S
C1061 H1055 0.950 . S
C1061 C1060 1.327 . S
C1061 C1065 1.429 . S
C1062 C1045 1.574 . S
C1062 H1056 0.949 . S
C1062 C1066 1.368 . S
C1063 C1044 1.429 . S
C1063 C1057 1.429 . S
C1063 C1064 1.523 . S
C1064 C1045 1.368 . S
C1064 C1058 1.368 . S
C1064 C1063 1.523 . S
C1065 C1049 1.429 . S
C1065 C1061 1.429 . S
C1065 C1066 1.523 . S
C1066 C1050 1.368 . S
C1066 C1062 1.368 . S
C1066 C1065 1.523 . S
H1067 C1042 0.950 . S
H1068 C1044 0.950 . S
H1069 C1045 0.949 . S
H1070 C1047 0.950 . S
H1071 C1049 0.950 . S
C1072 C1073 1.349 . S
C1072 C1074 1.327 . S
C1072 H1097 0.950 . S
C1073 C1072 1.349 . S
C1073 C1089 1.349 . S
C1074 C1072 1.327 . S
C1074 C1093 1.429 . S
C1074 H1098 0.950 . S
C1075 C1092 1.574 . S
C1075 C1094 1.368 . S
C1075 H1099 0.949 . S
H1076 C1080 0.949 . S
C1077 C1078 1.349 . S
C1077 C1079 1.327 . S
C1077 H1100 0.950 . S
C1078 C1077 1.349 . S
C1078 C1090 1.349 . S
C1079 C1077 1.327 . S
C1079 C1095 1.429 . S
C1079 H1101 0.950 . S
C1080 H1076 0.949 . S
C1080 C1088 1.574 . S
C1080 C1096 1.368 . S
H1081 C1089 0.950 1_655 S
H1082 C1087 0.950 . S
H1083 C1088 0.949 . S
H1084 C1090 0.950 . S
H1085 C1091 0.950 . S
H1086 C1092 0.949 . S
C1087 H1082 0.950 . S
C1087 C1089 1.327 . S
C1087 C1093 1.429 . S
C1088 C1080 1.574 . S
C1088 H1083 0.949 . S
C1088 C1094 1.368 . S
C1089 C1073 1.349 . S
C1089 H1081 0.950 1_455 S
C1089 C1087 1.327 . S
C1090 C1078 1.349 . S
C1090 H1084 0.950 . S
C1090 C1091 1.327 . S
C1091 H1085 0.950 . S
C1091 C1090 1.327 . S
C1091 C1095 1.429 . S
C1092 C1075 1.574 . S
C1092 H1086 0.949 . S
C1092 C1096 1.368 . S
C1093 C1074 1.429 . S
C1093 C1087 1.429 . S
C1093 C1094 1.523 . S
C1094 C1075 1.368 . S
C1094 C1088 1.368 . S
C1094 C1093 1.523 . S
C1095 C1079 1.429 . S
C1095 C1091 1.429 . S
C1095 C1096 1.523 . S
C1096 C1080 1.368 . S
C1096 C1092 1.368 . S
C1096 C1095 1.523 . S
H1097 C1072 0.950 . S
H1098 C1074 0.950 . S
H1099 C1075 0.949 . S
H1100 C1077 0.950 . S
H1101 C1079 0.950 . S
C1102 C1103 1.349 . S
C1102 C1104 1.327 . S
C1102 H1127 0.950 . S
C1103 C1102 1.349 . S
C1103 C1119 1.349 . S
C1104 C1102 1.327 . S
C1104 C1123 1.429 . S
C1104 H1128 0.950 . S
C1105 C1122 1.574 . S
C1105 C1124 1.368 . S
C1105 H1129 0.949 . S
H1106 C1110 0.949 . S
C1107 C1108 1.349 . S
C1107 C1109 1.327 . S
C1107 H1130 0.950 . S
C1108 C1107 1.349 . S
C1108 C1120 1.349 . S
C1109 C1107 1.327 . S
C1109 C1125 1.429 . S
C1109 H1131 0.950 . S
C1110 H1106 0.949 . S
C1110 C1118 1.574 . S
C1110 C1126 1.368 . S
H1111 C1119 0.950 . S
H1112 C1117 0.950 . S
H1113 C1118 0.949 . S
H1114 C1120 0.950 . S
H1115 C1121 0.950 . S
H1116 C1122 0.949 . S
C1117 H1112 0.950 . S
C1117 C1119 1.327 . S
C1117 C1123 1.429 . S
C1118 C1110 1.574 . S
C1118 H1113 0.949 . S
C1118 C1124 1.368 . S
C1119 C1103 1.349 . S
C1119 H1111 0.950 . S
C1119 C1117 1.327 . S
C1120 C1108 1.349 . S
C1120 H1114 0.950 . S
C1120 C1121 1.327 . S
C1121 H1115 0.950 . S
C1121 C1120 1.327 . S
C1121 C1125 1.429 . S
C1122 C1105 1.574 . S
C1122 H1116 0.949 . S
C1122 C1126 1.368 . S
C1123 C1104 1.429 . S
C1123 C1117 1.429 . S
C1123 C1124 1.523 . S
C1124 C1105 1.368 . S
C1124 C1118 1.368 . S
C1124 C1123 1.523 . S
C1125 C1109 1.429 . S
C1125 C1121 1.429 . S
C1125 C1126 1.523 . S
C1126 C1110 1.368 . S
C1126 C1122 1.368 . S
C1126 C1125 1.523 . S
H1127 C1102 0.950 . S
H1128 C1104 0.950 . S
H1129 C1105 0.949 . S
H1130 C1107 0.950 . S
H1131 C1109 0.950 . S
C1132 C1133 1.349 . S
C1132 C1134 1.327 . S
C1132 H1157 0.950 . S
C1133 C1132 1.349 . S
C1133 C1149 1.349 . S
C1134 C1132 1.327 . S
C1134 C1153 1.429 . S
C1134 H1158 0.950 . S
C1135 C1152 1.574 . S
C1135 C1154 1.368 . S
C1135 H1159 0.949 . S
H1136 C1140 0.949 . S
C1137 C1138 1.349 . S
C1137 C1139 1.327 . S
C1137 H1160 0.950 . S
C1138 C1137 1.349 . S
C1138 C1150 1.349 . S
C1139 C1137 1.327 . S
C1139 C1155 1.429 . S
C1139 H1161 0.950 . S
C1140 H1136 0.949 . S
C1140 C1148 1.574 . S
C1140 C1156 1.368 . S
H1141 C1149 0.950 . S
H1142 C1147 0.950 . S
H1143 C1148 0.949 . S
H1144 C1150 0.950 . S
H1145 C1151 0.950 . S
H1146 C1152 0.949 . S
C1147 H1142 0.950 . S
C1147 C1149 1.327 . S
C1147 C1153 1.429 . S
C1148 C1140 1.574 . S
C1148 H1143 0.949 . S
C1148 C1154 1.368 . S
C1149 C1133 1.349 . S
C1149 H1141 0.950 . S
C1149 C1147 1.327 . S
C1150 C1138 1.349 . S
C1150 H1144 0.950 . S
C1150 C1151 1.327 . S
C1151 H1145 0.950 . S
C1151 C1150 1.327 . S
C1151 C1155 1.429 . S
C1152 C1135 1.574 . S
C1152 H1146 0.949 . S
C1152 C1156 1.368 . S
C1153 C1134 1.429 . S
C1153 C1147 1.429 . S
C1153 C1154 1.523 . S
C1154 C1135 1.368 . S
C1154 C1148 1.368 . S
C1154 C1153 1.523 . S
C1155 C1139 1.429 . S
C1155 C1151 1.429 . S
C1155 C1156 1.523 . S
C1156 C1140 1.368 . S
C1156 C1152 1.368 . S
C1156 C1155 1.523 . S
H1157 C1132 0.950 . S
H1158 C1134 0.950 . S
H1159 C1135 0.949 . S
H1160 C1137 0.950 . S
H1161 C1139 0.950 . S
C1162 C1163 1.349 . S
C1162 C1164 1.327 . S
C1162 H1187 0.950 . S
C1163 C1162 1.349 . S
C1163 C1179 1.349 . S
C1164 C1162 1.327 . S
C1164 C1183 1.429 . S
C1164 H1188 0.950 . S
C1165 C1182 1.574 . S
C1165 C1184 1.368 . S
C1165 H1189 0.949 . S
H1166 C1170 0.949 . S
C1167 C1168 1.349 . S
C1167 C1169 1.327 . S
C1167 H1190 0.950 . S
C1168 C1167 1.349 . S
C1168 C1180 1.349 . S
C1169 C1167 1.327 . S
C1169 C1185 1.429 . S
C1169 H1191 0.950 . S
C1170 H1166 0.949 . S
C1170 C1178 1.574 . S
C1170 C1186 1.368 . S
H1171 C1179 0.950 . S
H1172 C1177 0.950 . S
H1173 C1178 0.949 . S
H1174 C1180 0.950 . S
H1175 C1181 0.950 . S
H1176 C1182 0.949 . S
C1177 H1172 0.950 . S
C1177 C1179 1.327 . S
C1177 C1183 1.429 . S
C1178 C1170 1.574 . S
C1178 H1173 0.949 . S
C1178 C1184 1.368 . S
C1179 C1163 1.349 . S
C1179 H1171 0.950 . S
C1179 C1177 1.327 . S
C1180 C1168 1.349 . S
C1180 H1174 0.950 . S
C1180 C1181 1.327 . S
C1181 H1175 0.950 . S
C1181 C1180 1.327 . S
C1181 C1185 1.429 . S
C1182 C1165 1.574 . S
C1182 H1176 0.949 . S
C1182 C1186 1.368 . S
C1183 C1164 1.429 . S
C1183 C1177 1.429 . S
C1183 C1184 1.523 . S
C1184 C1165 1.368 . S
C1184 C1178 1.368 . S
C1184 C1183 1.523 . S
C1185 C1169 1.429 . S
C1185 C1181 1.429 . S
C1185 C1186 1.523 . S
C1186 C1170 1.368 . S
C1186 C1182 1.368 . S
C1186 C1185 1.523 . S
H1187 C1162 0.950 . S
H1188 C1164 0.950 . S
H1189 C1165 0.949 . S
H1190 C1167 0.950 . S
H1191 C1169 0.950 . S
C1192 C1193 1.349 . S
C1192 C1194 1.327 . S
C1192 H1217 0.950 . S
C1193 C1192 1.349 . S
C1193 C1209 1.349 . S
C1194 C1192 1.327 . S
C1194 C1213 1.429 . S
C1194 H1218 0.950 . S
C1195 C1212 1.574 . S
C1195 C1214 1.368 . S
C1195 H1219 0.949 . S
H1196 C1200 0.949 . S
C1197 C1198 1.349 . S
C1197 C1199 1.327 . S
C1197 H1220 0.950 . S
C1198 C1197 1.349 . S
C1198 C1210 1.349 . S
C1199 C1197 1.327 . S
C1199 C1215 1.429 . S
C1199 H1221 0.950 1_455 S
C1200 H1196 0.949 . S
C1200 C1208 1.574 1_455 S
C1200 C1216 1.371 . S
H1201 C1209 0.950 . S
H1202 C1207 0.950 . S
H1203 C1208 0.949 1_455 S
H1204 C1210 0.950 . S
H1205 C1211 0.950 . S
H1206 C1212 0.949 . S
C1207 H1202 0.950 . S
C1207 C1209 1.327 . S
C1207 C1213 1.429 . S
C1208 C1200 1.574 1_655 S
C1208 H1203 0.949 1_655 S
C1208 C1214 1.368 . S
C1209 C1193 1.349 . S
C1209 H1201 0.950 . S
C1209 C1207 1.327 . S
C1210 C1198 1.349 . S
C1210 H1204 0.950 . S
C1210 C1211 1.327 . S
C1211 H1205 0.950 . S
C1211 C1210 1.327 . S
C1211 C1215 1.429 . S
C1212 C1195 1.574 . S
C1212 H1206 0.949 . S
C1212 C1216 1.359 1_655 S
C1213 C1194 1.429 . S
C1213 C1207 1.429 . S
C1213 C1214 1.523 . S
C1214 C1195 1.368 . S
C1214 C1208 1.368 . S
C1214 C1213 1.523 . S
C1215 C1199 1.429 . S
C1215 C1211 1.429 . S
C1215 C1216 1.533 . S
C1216 C1200 1.371 . S
C1216 C1212 1.359 1_455 S
C1216 C1215 1.533 . S
H1217 C1192 0.950 . S
H1218 C1194 0.950 . S
H1219 C1195 0.949 . S
H1220 C1197 0.950 . S
H1221 C1199 0.950 1_655 S
C1222 C1223 1.349 . S
C1222 C1224 1.327 . S
C1222 H1247 0.950 . S
C1223 C1222 1.349 . S
C1223 C1239 1.349 . S
C1224 C1222 1.327 . S
C1224 C1243 1.429 . S
C1224 H1248 0.950 . S
C1225 C1242 1.574 . S
C1225 C1244 1.368 . S
C1225 H1249 0.949 . S
H1226 C1230 0.949 . S
C1227 C1228 1.349 . S
C1227 C1229 1.327 . S
C1227 H1250 0.950 . S
C1228 C1227 1.349 . S
C1228 C1240 1.349 . S
C1229 C1227 1.327 . S
C1229 C1245 1.429 . S
C1229 H1251 0.950 . S
C1230 H1226 0.949 . S
C1230 C1238 1.574 . S
C1230 C1246 1.368 . S
H1231 C1239 0.950 . S
H1232 C1237 0.950 . S
H1233 C1238 0.949 . S
H1234 C1240 0.950 . S
H1235 C1241 0.950 . S
H1236 C1242 0.949 . S
C1237 H1232 0.950 . S
C1237 C1239 1.327 . S
C1237 C1243 1.429 . S
C1238 C1230 1.574 . S
C1238 H1233 0.949 . S
C1238 C1244 1.368 . S
C1239 C1223 1.349 . S
C1239 H1231 0.950 . S
C1239 C1237 1.327 . S
C1240 C1228 1.349 . S
C1240 H1234 0.950 . S
C1240 C1241 1.327 . S
C1241 H1235 0.950 . S
C1241 C1240 1.327 . S
C1241 C1245 1.429 . S
C1242 C1225 1.574 . S
C1242 H1236 0.949 . S
C1242 C1246 1.368 . S
C1243 C1224 1.429 . S
C1243 C1237 1.429 . S
C1243 C1244 1.523 . S
C1244 C1225 1.368 . S
C1244 C1238 1.368 . S
C1244 C1243 1.523 . S
C1245 C1229 1.429 . S
C1245 C1241 1.429 . S
C1245 C1246 1.523 . S
C1246 C1230 1.368 . S
C1246 C1242 1.368 . S
C1246 C1245 1.523 . S
H1247 C1222 0.950 . S
H1248 C1224 0.950 . S
H1249 C1225 0.949 . S
H1250 C1227 0.950 . S
H1251 C1229 0.950 . S
C1252 C1253 1.349 . S
C1252 C1254 1.327 . S
C1252 H1277 0.950 . S
C1253 C1252 1.349 . S
C1253 C1269 1.349 . S
C1254 C1252 1.327 . S
C1254 C1273 1.429 . S
C1254 H1278 0.950 . S
C1255 C1272 1.574 . S
C1255 C1274 1.368 . S
C1255 H1279 0.949 . S
H1256 C1260 0.949 . S
C1257 C1258 1.349 . S
C1257 C1259 1.327 . S
C1257 H1280 0.950 1_545 S
C1258 C1257 1.349 . S
C1258 C1270 1.349 . S
C1259 C1257 1.327 . S
C1259 C1275 1.429 . S
C1259 H1281 0.950 . S
C1260 H1256 0.949 . S
C1260 C1268 1.574 . S
C1260 C1276 1.368 . S
H1261 C1269 0.950 . S
H1262 C1267 0.950 . S
H1263 C1268 0.949 . S
H1264 C1270 0.950 . S
H1265 C1271 0.950 . S
H1266 C1272 0.949 . S
C1267 H1262 0.950 . S
C1267 C1269 1.327 . S
C1267 C1273 1.429 . S
C1268 C1260 1.574 . S
C1268 H1263 0.949 . S
C1268 C1274 1.368 . S
C1269 C1253 1.349 . S
C1269 H1261 0.950 . S
C1269 C1267 1.327 . S
C1270 C1258 1.349 . S
C1270 H1264 0.950 . S
C1270 C1271 1.327 . S
C1271 H1265 0.950 . S
C1271 C1270 1.327 . S
C1271 C1275 1.429 . S
C1272 C1255 1.574 . S
C1272 H1266 0.949 . S
C1272 C1276 1.368 . S
C1273 C1254 1.429 . S
C1273 C1267 1.429 . S
C1273 C1274 1.523 . S
C1274 C1255 1.368 . S
C1274 C1268 1.368 . S
C1274 C1273 1.523 . S
C1275 C1259 1.429 . S
C1275 C1271 1.429 . S
C1275 C1276 1.523 . S
C1276 C1260 1.368 . S
C1276 C1272 1.368 . S
C1276 C1275 1.523 . S
H1277 C1252 0.950 . S
H1278 C1254 0.950 . S
H1279 C1255 0.949 . S
H1280 C1257 0.950 1_565 S
H1281 C1259 0.950 . S
C1282 C1283 1.349 . S
C1282 C1284 1.327 . S
C1282 H1307 0.950 . S
C1283 C1282 1.349 . S
C1283 C1299 1.349 . S
C1284 C1282 1.327 . S
C1284 C1303 1.429 . S
C1284 H1308 0.950 . S
C1285 C1302 1.574 . S
C1285 C1304 1.368 . S
C1285 H1309 0.949 . S
H1286 C1290 0.949 . S
C1287 C1288 1.349 . S
C1287 C1289 1.327 . S
C1287 H1310 0.950 . S
C1288 C1287 1.349 . S
C1288 C1300 1.349 . S
C1289 C1287 1.327 . S
C1289 C1305 1.429 . S
C1289 H1311 0.950 . S
C1290 H1286 0.949 . S
C1290 C1298 1.574 . S
C1290 C1306 1.368 . S
H1291 C1299 0.950 . S
H1292 C1297 0.950 . S
H1293 C1298 0.949 . S
H1294 C1300 0.950 . S
H1295 C1301 0.950 . S
H1296 C1302 0.949 . S
C1297 H1292 0.950 . S
C1297 C1299 1.327 . S
C1297 C1303 1.429 . S
C1298 C1290 1.574 . S
C1298 H1293 0.949 . S
C1298 C1304 1.368 . S
C1299 C1283 1.349 . S
C1299 H1291 0.950 . S
C1299 C1297 1.327 . S
C1300 C1288 1.349 . S
C1300 H1294 0.950 . S
C1300 C1301 1.327 . S
C1301 H1295 0.950 . S
C1301 C1300 1.327 . S
C1301 C1305 1.429 . S
C1302 C1285 1.574 . S
C1302 H1296 0.949 . S
C1302 C1306 1.368 . S
C1303 C1284 1.429 . S
C1303 C1297 1.429 . S
C1303 C1304 1.523 . S
C1304 C1285 1.368 . S
C1304 C1298 1.368 . S
C1304 C1303 1.523 . S
C1305 C1289 1.429 . S
C1305 C1301 1.429 . S
C1305 C1306 1.523 . S
C1306 C1290 1.368 . S
C1306 C1302 1.368 . S
C1306 C1305 1.523 . S
H1307 C1282 0.950 . S
H1308 C1284 0.950 . S
H1309 C1285 0.949 . S
H1310 C1287 0.950 . S
H1311 C1289 0.950 . S
C1312 C1313 1.349 . S
C1312 C1314 1.327 . S
C1312 H1337 0.950 . S
C1313 C1312 1.349 . S
C1313 C1329 1.349 . S
C1314 C1312 1.327 . S
C1314 C1333 1.429 . S
C1314 H1338 0.950 . S
C1315 C1332 1.574 . S
C1315 C1334 1.368 . S
C1315 H1339 0.949 . S
H1316 C1320 0.949 . S
C1317 C1318 1.349 . S
C1317 C1319 1.327 . S
C1317 H1340 0.950 . S
C1318 C1317 1.349 . S
C1318 C1330 1.349 . S
C1319 C1317 1.327 . S
C1319 C1335 1.429 . S
C1319 H1341 0.950 1_455 S
C1320 H1316 0.949 . S
C1320 C1328 1.574 . S
C1320 C1336 1.368 . S
H1321 C1329 0.950 . S
H1322 C1327 0.950 . S
H1323 C1328 0.949 . S
H1324 C1330 0.950 . S
H1325 C1331 0.950 . S
H1326 C1332 0.949 . S
C1327 H1322 0.950 . S
C1327 C1329 1.327 . S
C1327 C1333 1.429 . S
C1328 C1320 1.574 . S
C1328 H1323 0.949 . S
C1328 C1334 1.368 1_455 S
C1329 C1313 1.349 . S
C1329 H1321 0.950 . S
C1329 C1327 1.327 . S
C1330 C1318 1.349 . S
C1330 H1324 0.950 . S
C1330 C1331 1.327 . S
C1331 H1325 0.950 . S
C1331 C1330 1.327 . S
C1331 C1335 1.429 . S
C1332 C1315 1.574 . S
C1332 H1326 0.949 . S
C1332 C1336 1.368 1_655 S
C1333 C1314 1.429 . S
C1333 C1327 1.429 . S
C1333 C1334 1.523 . S
C1334 C1315 1.368 . S
C1334 C1328 1.368 1_655 S
C1334 C1333 1.523 . S
C1335 C1319 1.429 . S
C1335 C1331 1.429 . S
C1335 C1336 1.523 . S
C1336 C1320 1.368 . S
C1336 C1332 1.368 1_455 S
C1336 C1335 1.523 . S
H1337 C1312 0.950 . S
H1338 C1314 0.950 . S
H1339 C1315 0.949 . S
H1340 C1317 0.950 . S
H1341 C1319 0.950 1_655 S
C1342 C1343 1.349 . S
C1342 C1344 1.327 . S
C1342 H1367 0.950 . S
C1343 C1342 1.349 . S
C1343 C1359 1.349 . S
C1344 C1342 1.327 . S
C1344 C1363 1.429 . S
C1344 H1368 0.950 . S
C1345 C1362 1.574 . S
C1345 C1364 1.368 . S
C1345 H1369 0.949 . S
H1346 C1350 0.949 . S
C1347 C1348 1.349 . S
C1347 C1349 1.327 . S
C1347 H1370 0.950 . S
C1348 C1347 1.349 . S
C1348 C1360 1.349 . S
C1349 C1347 1.327 . S
C1349 C1365 1.429 . S
C1349 H1371 0.950 . S
C1350 H1346 0.949 . S
C1350 C1358 1.574 . S
C1350 C1366 1.368 . S
H1351 C1359 0.950 . S
H1352 C1357 0.950 . S
H1353 C1358 0.949 . S
H1354 C1360 0.950 . S
H1355 C1361 0.950 . S
H1356 C1362 0.949 . S
C1357 H1352 0.950 . S
C1357 C1359 1.327 . S
C1357 C1363 1.429 . S
C1358 C1350 1.574 . S
C1358 H1353 0.949 . S
C1358 C1364 1.368 . S
C1359 C1343 1.349 . S
C1359 H1351 0.950 . S
C1359 C1357 1.327 . S
C1360 C1348 1.349 . S
C1360 H1354 0.950 . S
C1360 C1361 1.327 . S
C1361 H1355 0.950 . S
C1361 C1360 1.327 . S
C1361 C1365 1.429 . S
C1362 C1345 1.574 . S
C1362 H1356 0.949 . S
C1362 C1366 1.368 . S
C1363 C1344 1.429 . S
C1363 C1357 1.429 . S
C1363 C1364 1.523 . S
C1364 C1345 1.368 . S
C1364 C1358 1.368 . S
C1364 C1363 1.523 . S
C1365 C1349 1.429 . S
C1365 C1361 1.429 . S
C1365 C1366 1.523 . S
C1366 C1350 1.368 . S
C1366 C1362 1.368 . S
C1366 C1365 1.523 . S
H1367 C1342 0.950 . S
H1368 C1344 0.950 . S
H1369 C1345 0.949 . S
H1370 C1347 0.950 . S
H1371 C1349 0.950 . S
C1372 C1373 1.349 . S
C1372 C1374 1.327 . S
C1372 H1397 0.950 . S
C1373 C1372 1.349 . S
C1373 C1389 1.349 . S
C1374 C1372 1.327 . S
C1374 C1393 1.429 . S
C1374 H1398 0.950 . S
C1375 C1392 1.574 . S
C1375 C1394 1.368 . S
C1375 H1399 0.949 . S
H1376 C1380 0.949 . S
C1377 C1378 1.349 . S
C1377 C1379 1.327 . S
C1377 H1400 0.950 . S
C1378 C1377 1.349 . S
C1378 C1390 1.349 . S
C1379 C1377 1.327 . S
C1379 C1395 1.429 . S
C1379 H1401 0.950 . S
C1380 H1376 0.949 . S
C1380 C1388 1.574 . S
C1380 C1396 1.368 . S
H1381 C1389 0.950 . S
H1382 C1387 0.950 . S
H1383 C1388 0.949 . S
H1384 C1390 0.950 . S
H1385 C1391 0.950 . S
H1386 C1392 0.949 . S
C1387 H1382 0.950 . S
C1387 C1389 1.327 . S
C1387 C1393 1.429 . S
C1388 C1380 1.574 . S
C1388 H1383 0.949 . S
C1388 C1394 1.368 . S
C1389 C1373 1.349 . S
C1389 H1381 0.950 . S
C1389 C1387 1.327 . S
C1390 C1378 1.349 . S
C1390 H1384 0.950 . S
C1390 C1391 1.327 . S
C1391 H1385 0.950 . S
C1391 C1390 1.327 . S
C1391 C1395 1.429 . S
C1392 C1375 1.574 . S
C1392 H1386 0.949 . S
C1392 C1396 1.368 . S
C1393 C1374 1.429 . S
C1393 C1387 1.429 . S
C1393 C1394 1.523 . S
C1394 C1375 1.368 . S
C1394 C1388 1.368 . S
C1394 C1393 1.523 . S
C1395 C1379 1.429 . S
C1395 C1391 1.429 . S
C1395 C1396 1.523 . S
C1396 C1380 1.368 . S
C1396 C1392 1.368 . S
C1396 C1395 1.523 . S
H1397 C1372 0.950 . S
H1398 C1374 0.950 . S
H1399 C1375 0.949 . S
H1400 C1377 0.950 . S
H1401 C1379 0.950 . S
C1402 C1403 1.349 . S
C1402 C1404 1.327 . S
C1402 H1427 0.950 . S
C1403 C1402 1.349 . S
C1403 C1419 1.349 . S
C1404 C1402 1.327 . S
C1404 C1423 1.429 . S
C1404 H1428 0.950 . S
C1405 C1422 1.574 . S
C1405 C1424 1.368 . S
C1405 H1429 0.949 . S
H1406 C1410 0.949 . S
C1407 C1408 1.349 . S
C1407 C1409 1.327 . S
C1407 H1430 0.950 . S
C1408 C1407 1.349 . S
C1408 C1420 1.349 . S
C1409 C1407 1.327 . S
C1409 C1425 1.429 . S
C1409 H1431 0.950 . S
C1410 H1406 0.949 . S
C1410 C1418 1.574 . S
C1410 C1426 1.368 . S
H1411 C1419 0.950 . S
H1412 C1417 0.950 . S
H1413 C1418 0.949 . S
H1414 C1420 0.950 . S
H1415 C1421 0.950 . S
H1416 C1422 0.949 . S
C1417 H1412 0.950 . S
C1417 C1419 1.327 . S
C1417 C1423 1.429 . S
C1418 C1410 1.574 . S
C1418 H1413 0.949 . S
C1418 C1424 1.368 . S
C1419 C1403 1.349 . S
C1419 H1411 0.950 . S
C1419 C1417 1.327 . S
C1420 C1408 1.349 . S
C1420 H1414 0.950 . S
C1420 C1421 1.327 . S
C1421 H1415 0.950 . S
C1421 C1420 1.327 . S
C1421 C1425 1.429 . S
C1422 C1405 1.574 . S
C1422 H1416 0.949 . S
C1422 C1426 1.368 . S
C1423 C1404 1.429 . S
C1423 C1417 1.429 . S
C1423 C1424 1.523 . S
C1424 C1405 1.368 . S
C1424 C1418 1.368 . S
C1424 C1423 1.523 . S
C1425 C1409 1.429 . S
C1425 C1421 1.429 . S
C1425 C1426 1.523 . S
C1426 C1410 1.368 . S
C1426 C1422 1.368 . S
C1426 C1425 1.523 . S
H1427 C1402 0.950 . S
H1428 C1404 0.950 . S
H1429 C1405 0.949 . S
H1430 C1407 0.950 . S
H1431 C1409 0.950 . S
C1432 C1433 1.349 . S
C1432 C1434 1.327 . S
C1432 H1457 0.950 1_554 S
C1433 C1432 1.349 . S
C1433 C1449 1.349 . S
C1434 C1432 1.327 . S
C1434 C1453 1.429 . S
C1434 H1458 0.950 . S
C1435 C1452 1.574 . S
C1435 C1454 1.368 . S
C1435 H1459 0.949 . S
H1436 C1440 0.949 . S
C1437 C1438 1.349 . S
C1437 C1439 1.311 1_545 S
C1437 H1460 0.950 . S
C1438 C1437 1.349 . S
C1438 C1450 1.349 1_545 S
C1439 C1437 1.311 1_565 S
C1439 C1455 1.440 . S
C1439 H1461 0.966 1_565 S
C1440 H1436 0.949 . S
C1440 C1448 1.574 . S
C1440 C1456 1.368 . S
H1441 C1449 0.950 . S
H1442 C1447 0.950 . S
H1443 C1448 0.949 . S
H1444 C1450 0.950 . S
H1445 C1451 0.950 . S
H1446 C1452 0.949 . S
C1447 H1442 0.950 . S
C1447 C1449 1.327 . S
C1447 C1453 1.429 . S
C1448 C1440 1.574 . S
C1448 H1443 0.949 . S
C1448 C1454 1.368 . S
C1449 C1433 1.349 . S
C1449 H1441 0.950 . S
C1449 C1447 1.327 . S
C1450 C1438 1.349 1_565 S
C1450 H1444 0.950 . S
C1450 C1451 1.327 . S
C1451 H1445 0.950 . S
C1451 C1450 1.327 . S
C1451 C1455 1.429 . S
C1452 C1435 1.574 . S
C1452 H1446 0.949 . S
C1452 C1456 1.368 . S
C1453 C1434 1.429 . S
C1453 C1447 1.429 . S
C1453 C1454 1.523 . S
C1454 C1435 1.368 . S
C1454 C1448 1.368 . S
C1454 C1453 1.523 . S
C1455 C1439 1.440 . S
C1455 C1451 1.429 . S
C1455 C1456 1.523 . S
C1456 C1440 1.368 . S
C1456 C1452 1.368 . S
C1456 C1455 1.523 . S
H1457 C1432 0.950 1_556 S
H1458 C1434 0.950 . S
H1459 C1435 0.949 . S
H1460 C1437 0.950 . S
H1461 C1439 0.966 1_545 S
C1462 C1463 1.354 . S
C1462 C1464 1.327 . S
C1462 H1487 0.950 . S
C1463 C1462 1.354 . S
C1463 C1479 1.342 1_556 S
C1464 C1462 1.327 . S
C1464 C1483 1.430 . S
C1464 H1488 0.950 . S
C1465 C1482 1.574 . S
C1465 C1484 1.370 1_554 S
C1465 H1489 0.949 . S
H1466 C1470 0.949 . S
C1467 C1468 1.352 . S
C1467 C1469 1.327 . S
C1467 H1490 0.950 . S
C1468 C1467 1.352 . S
C1468 C1480 1.345 1_554 S
C1469 C1467 1.327 . S
C1469 C1485 1.427 . S
C1469 H1491 0.950 . S
C1470 H1466 0.949 . S
C1470 C1478 1.574 . S
C1470 C1486 1.373 1_556 S
H1471 C1479 0.950 . S
H1472 C1477 0.950 . S
H1473 C1478 0.949 . S
H1474 C1480 0.950 . S
H1475 C1481 0.950 . S
H1476 C1482 0.949 . S
C1477 H1472 0.950 . S
C1477 C1479 1.327 . S
C1477 C1483 1.428 1_554 S
C1478 C1470 1.574 . S
C1478 H1473 0.949 . S
C1478 C1484 1.367 . S
C1479 C1463 1.342 1_554 S
C1479 H1471 0.950 . S
C1479 C1477 1.327 . S
C1480 C1468 1.345 1_556 S
C1480 H1474 0.950 . S
C1480 C1481 1.327 . S
C1481 H1475 0.950 . S
C1481 C1480 1.327 . S
C1481 C1485 1.430 1_556 S
C1482 C1465 1.574 . S
C1482 H1476 0.949 . S
C1482 C1486 1.364 . S
C1483 C1464 1.430 . S
C1483 C1477 1.428 1_556 S
C1483 C1484 1.522 . S
C1484 C1465 1.370 1_556 S
C1484 C1478 1.367 . S
C1484 C1483 1.522 . S
C1485 C1469 1.427 . S
C1485 C1481 1.430 1_554 S
C1485 C1486 1.522 . S
C1486 C1470 1.373 1_554 S
C1486 C1482 1.364 . S
C1486 C1485 1.522 . S
H1487 C1462 0.950 . S
H1488 C1464 0.950 . S
H1489 C1465 0.949 . S
H1490 C1467 0.950 . S
H1491 C1469 0.950 . S
C1492 C1493 1.349 . S
C1492 C1494 1.327 . S
C1492 H1517 0.950 . S
C1493 C1492 1.349 . S
C1493 C1509 1.349 . S
C1494 C1492 1.327 . S
C1494 C1513 1.429 . S
C1494 H1518 0.950 . S
C1495 C1512 1.574 . S
C1495 C1514 1.368 . S
C1495 H1519 0.949 . S
H1496 C1500 0.949 . S
C1497 C1498 1.349 . S
C1497 C1499 1.327 . S
C1497 H1520 0.950 . S
C1498 C1497 1.349 . S
C1498 C1510 1.349 . S
C1499 C1497 1.327 . S
C1499 C1515 1.429 . S
C1499 H1521 0.950 . S
C1500 H1496 0.949 . S
C1500 C1508 1.574 . S
C1500 C1516 1.368 . S
H1501 C1509 0.950 . S
H1502 C1507 0.950 . S
H1503 C1508 0.949 . S
H1504 C1510 0.950 . S
H1505 C1511 0.950 . S
H1506 C1512 0.949 . S
C1507 H1502 0.950 . S
C1507 C1509 1.327 . S
C1507 C1513 1.429 . S
C1508 C1500 1.574 . S
C1508 H1503 0.949 . S
C1508 C1514 1.368 . S
C1509 C1493 1.349 . S
C1509 H1501 0.950 . S
C1509 C1507 1.327 . S
C1510 C1498 1.349 . S
C1510 H1504 0.950 . S
C1510 C1511 1.327 . S
C1511 H1505 0.950 . S
C1511 C1510 1.327 . S
C1511 C1515 1.429 . S
C1512 C1495 1.574 . S
C1512 H1506 0.949 . S
C1512 C1516 1.368 . S
C1513 C1494 1.429 . S
C1513 C1507 1.429 . S
C1513 C1514 1.523 . S
C1514 C1495 1.368 . S
C1514 C1508 1.368 . S
C1514 C1513 1.523 . S
C1515 C1499 1.429 . S
C1515 C1511 1.429 . S
C1515 C1516 1.523 . S
C1516 C1500 1.368 . S
C1516 C1512 1.368 . S
C1516 C1515 1.523 . S
H1517 C1492 0.950 . S
H1518 C1494 0.950 . S
H1519 C1495 0.949 . S
H1520 C1497 0.950 . S
H1521 C1499 0.950 . S
C1522 C1523 1.349 . S
C1522 C1524 1.327 . S
C1522 H1547 0.950 . S
C1523 C1522 1.349 . S
C1523 C1539 1.349 . S
C1524 C1522 1.327 . S
C1524 C1543 1.429 . S
C1524 H1548 0.950 . S
C1525 C1542 1.574 . S
C1525 C1544 1.368 . S
C1525 H1549 0.949 . S
H1526 C1530 0.949 . S
C1527 C1528 1.349 . S
C1527 C1529 1.327 . S
C1527 H1550 0.950 . S
C1528 C1527 1.349 . S
C1528 C1540 1.349 . S
C1529 C1527 1.327 . S
C1529 C1545 1.429 . S
C1529 H1551 0.950 . S
C1530 H1526 0.949 . S
C1530 C1538 1.574 . S
C1530 C1546 1.368 . S
H1531 C1539 0.950 . S
H1532 C1537 0.950 . S
H1533 C1538 0.949 . S
H1534 C1540 0.950 . S
H1535 C1541 0.950 . S
H1536 C1542 0.949 . S
C1537 H1532 0.950 . S
C1537 C1539 1.327 . S
C1537 C1543 1.429 . S
C1538 C1530 1.574 . S
C1538 H1533 0.949 . S
C1538 C1544 1.368 . S
C1539 C1523 1.349 . S
C1539 H1531 0.950 . S
C1539 C1537 1.327 . S
C1540 C1528 1.349 . S
C1540 H1534 0.950 . S
C1540 C1541 1.327 . S
C1541 H1535 0.950 . S
C1541 C1540 1.327 . S
C1541 C1545 1.429 . S
C1542 C1525 1.574 . S
C1542 H1536 0.949 . S
C1542 C1546 1.368 . S
C1543 C1524 1.429 . S
C1543 C1537 1.429 . S
C1543 C1544 1.523 . S
C1544 C1525 1.368 . S
C1544 C1538 1.368 . S
C1544 C1543 1.523 . S
C1545 C1529 1.429 . S
C1545 C1541 1.429 . S
C1545 C1546 1.523 . S
C1546 C1530 1.368 . S
C1546 C1542 1.368 . S
C1546 C1545 1.523 . S
H1547 C1522 0.950 . S
H1548 C1524 0.950 . S
H1549 C1525 0.949 . S
H1550 C1527 0.950 . S
H1551 C1529 0.950 . S
C1552 C1553 1.349 . S
C1552 C1554 1.327 . S
C1552 H1577 0.950 . S
C1553 C1552 1.349 . S
C1553 C1569 1.349 . S
C1554 C1552 1.327 . S
C1554 C1573 1.429 . S
C1554 H1578 0.950 . S
C1555 C1572 1.574 . S
C1555 C1574 1.368 . S
C1555 H1579 0.949 . S
H1556 C1560 0.949 . S
C1557 C1558 1.349 . S
C1557 C1559 1.327 . S
C1557 H1580 0.950 . S
C1558 C1557 1.349 . S
C1558 C1570 1.349 . S
C1559 C1557 1.327 . S
C1559 C1575 1.429 . S
C1559 H1581 0.950 . S
C1560 H1556 0.949 . S
C1560 C1568 1.574 . S
C1560 C1576 1.368 . S
H1561 C1569 0.950 . S
H1562 C1567 0.950 . S
H1563 C1568 0.949 . S
H1564 C1570 0.950 . S
H1565 C1571 0.950 . S
H1566 C1572 0.949 . S
C1567 H1562 0.950 . S
C1567 C1569 1.327 . S
C1567 C1573 1.429 . S
C1568 C1560 1.574 . S
C1568 H1563 0.949 . S
C1568 C1574 1.368 . S
C1569 C1553 1.349 . S
C1569 H1561 0.950 . S
C1569 C1567 1.327 . S
C1570 C1558 1.349 . S
C1570 H1564 0.950 . S
C1570 C1571 1.327 . S
C1571 H1565 0.950 . S
C1571 C1570 1.327 . S
C1571 C1575 1.429 . S
C1572 C1555 1.574 . S
C1572 H1566 0.949 . S
C1572 C1576 1.368 . S
C1573 C1554 1.429 . S
C1573 C1567 1.429 . S
C1573 C1574 1.523 . S
C1574 C1555 1.368 . S
C1574 C1568 1.368 . S
C1574 C1573 1.523 . S
C1575 C1559 1.429 . S
C1575 C1571 1.429 . S
C1575 C1576 1.523 . S
C1576 C1560 1.368 . S
C1576 C1572 1.368 . S
C1576 C1575 1.523 . S
H1577 C1552 0.950 . S
H1578 C1554 0.950 . S
H1579 C1555 0.949 . S
H1580 C1557 0.950 . S
H1581 C1559 0.950 . S
C1582 C1583 1.349 . S
C1582 C1584 1.327 . S
C1582 H1607 0.950 . S
C1583 C1582 1.349 . S
C1583 C1599 1.349 . S
C1584 C1582 1.327 . S
C1584 C1603 1.429 . S
C1584 H1608 0.950 . S
C1585 C1602 1.574 . S
C1585 C1604 1.368 . S
C1585 H1609 0.949 . S
H1586 C1590 0.949 . S
C1587 C1588 1.349 . S
C1587 C1589 1.327 . S
C1587 H1610 0.950 . S
C1588 C1587 1.349 . S
C1588 C1600 1.349 . S
C1589 C1587 1.327 . S
C1589 C1605 1.429 . S
C1589 H1611 0.950 . S
C1590 H1586 0.949 . S
C1590 C1598 1.574 . S
C1590 C1606 1.368 . S
H1591 C1599 0.950 . S
H1592 C1597 0.950 . S
H1593 C1598 0.949 . S
H1594 C1600 0.950 . S
H1595 C1601 0.950 . S
H1596 C1602 0.949 . S
C1597 H1592 0.950 . S
C1597 C1599 1.327 . S
C1597 C1603 1.429 . S
C1598 C1590 1.574 . S
C1598 H1593 0.949 . S
C1598 C1604 1.368 . S
C1599 C1583 1.349 . S
C1599 H1591 0.950 . S
C1599 C1597 1.327 . S
C1600 C1588 1.349 . S
C1600 H1594 0.950 . S
C1600 C1601 1.327 . S
C1601 H1595 0.950 . S
C1601 C1600 1.327 . S
C1601 C1605 1.429 . S
C1602 C1585 1.574 . S
C1602 H1596 0.949 . S
C1602 C1606 1.368 . S
C1603 C1584 1.429 . S
C1603 C1597 1.429 . S
C1603 C1604 1.523 . S
C1604 C1585 1.368 . S
C1604 C1598 1.368 . S
C1604 C1603 1.523 . S
C1605 C1589 1.429 . S
C1605 C1601 1.429 . S
C1605 C1606 1.523 . S
C1606 C1590 1.368 . S
C1606 C1602 1.368 . S
C1606 C1605 1.523 . S
H1607 C1582 0.950 . S
H1608 C1584 0.950 . S
H1609 C1585 0.949 . S
H1610 C1587 0.950 . S
H1611 C1589 0.950 . S
C1612 C1613 1.349 . S
C1612 C1614 1.327 . S
C1612 H1637 0.950 . S
C1613 C1612 1.349 . S
C1613 C1629 1.349 . S
C1614 C1612 1.327 . S
C1614 C1633 1.429 . S
C1614 H1638 0.950 . S
C1615 C1632 1.574 . S
C1615 C1634 1.368 . S
C1615 H1639 0.949 . S
H1616 C1620 0.949 . S
C1617 C1618 1.349 . S
C1617 C1619 1.327 . S
C1617 H1640 0.950 . S
C1618 C1617 1.349 . S
C1618 C1630 1.349 . S
C1619 C1617 1.327 . S
C1619 C1635 1.429 . S
C1619 H1641 0.950 . S
C1620 H1616 0.949 . S
C1620 C1628 1.574 . S
C1620 C1636 1.368 . S
H1621 C1629 0.950 . S
H1622 C1627 0.950 . S
H1623 C1628 0.949 . S
H1624 C1630 0.950 . S
H1625 C1631 0.950 . S
H1626 C1632 0.949 . S
C1627 H1622 0.950 . S
C1627 C1629 1.327 . S
C1627 C1633 1.429 . S
C1628 C1620 1.574 . S
C1628 H1623 0.949 . S
C1628 C1634 1.368 . S
C1629 C1613 1.349 . S
C1629 H1621 0.950 . S
C1629 C1627 1.327 . S
C1630 C1618 1.349 . S
C1630 H1624 0.950 . S
C1630 C1631 1.327 . S
C1631 H1625 0.950 . S
C1631 C1630 1.327 . S
C1631 C1635 1.429 . S
C1632 C1615 1.574 . S
C1632 H1626 0.949 . S
C1632 C1636 1.368 . S
C1633 C1614 1.429 . S
C1633 C1627 1.429 . S
C1633 C1634 1.523 . S
C1634 C1615 1.368 . S
C1634 C1628 1.368 . S
C1634 C1633 1.523 . S
C1635 C1619 1.429 . S
C1635 C1631 1.429 . S
C1635 C1636 1.523 . S
C1636 C1620 1.368 . S
C1636 C1632 1.368 . S
C1636 C1635 1.523 . S
H1637 C1612 0.950 . S
H1638 C1614 0.950 . S
H1639 C1615 0.949 . S
H1640 C1617 0.950 . S
H1641 C1619 0.950 . S
C1642 C1643 1.349 . S
C1642 C1644 1.327 . S
C1642 H1667 0.950 . S
C1643 C1642 1.349 . S
C1643 C1659 1.349 . S
C1644 C1642 1.327 . S
C1644 C1663 1.429 . S
C1644 H1668 0.950 . S
C1645 C1662 1.574 . S
C1645 C1664 1.368 . S
C1645 H1669 0.949 . S
H1646 C1650 0.949 . S
C1647 C1648 1.349 . S
C1647 C1649 1.327 . S
C1647 H1670 0.950 . S
C1648 C1647 1.349 . S
C1648 C1660 1.349 . S
C1649 C1647 1.327 . S
C1649 C1665 1.429 . S
C1649 H1671 0.950 . S
C1650 H1646 0.949 . S
C1650 C1658 1.574 . S
C1650 C1666 1.368 . S
H1651 C1659 0.950 . S
H1652 C1657 0.950 . S
H1653 C1658 0.949 . S
H1654 C1660 0.950 . S
H1655 C1661 0.950 . S
H1656 C1662 0.949 . S
C1657 H1652 0.950 . S
C1657 C1659 1.327 . S
C1657 C1663 1.429 . S
C1658 C1650 1.574 . S
C1658 H1653 0.949 . S
C1658 C1664 1.368 . S
C1659 C1643 1.349 . S
C1659 H1651 0.950 . S
C1659 C1657 1.327 . S
C1660 C1648 1.349 . S
C1660 H1654 0.950 . S
C1660 C1661 1.327 . S
C1661 H1655 0.950 . S
C1661 C1660 1.327 . S
C1661 C1665 1.429 . S
C1662 C1645 1.574 . S
C1662 H1656 0.949 . S
C1662 C1666 1.368 . S
C1663 C1644 1.429 . S
C1663 C1657 1.429 . S
C1663 C1664 1.523 . S
C1664 C1645 1.368 . S
C1664 C1658 1.368 . S
C1664 C1663 1.523 . S
C1665 C1649 1.429 . S
C1665 C1661 1.429 . S
C1665 C1666 1.523 . S
C1666 C1650 1.368 . S
C1666 C1662 1.368 . S
C1666 C1665 1.523 . S
H1667 C1642 0.950 . S
H1668 C1644 0.950 . S
H1669 C1645 0.949 . S
H1670 C1647 0.950 . S
H1671 C1649 0.950 . S
C1672 C1673 1.349 . S
C1672 C1674 1.327 . S
C1672 H1697 0.950 . S
C1673 C1672 1.349 . S
C1673 C1689 1.349 . S
C1674 C1672 1.327 . S
C1674 C1693 1.429 . S
C1674 H1698 0.950 . S
C1675 C1692 1.574 . S
C1675 C1694 1.368 . S
C1675 H1699 0.949 . S
H1676 C1680 0.949 . S
C1677 C1678 1.349 . S
C1677 C1679 1.327 . S
C1677 H1700 0.950 . S
C1678 C1677 1.349 . S
C1678 C1690 1.349 . S
C1679 C1677 1.327 . S
C1679 C1695 1.429 . S
C1679 H1701 0.950 . S
C1680 H1676 0.949 . S
C1680 C1688 1.574 . S
C1680 C1696 1.368 . S
H1681 C1689 0.950 . S
H1682 C1687 0.950 . S
H1683 C1688 0.949 . S
H1684 C1690 0.950 . S
H1685 C1691 0.950 . S
H1686 C1692 0.949 . S
C1687 H1682 0.950 . S
C1687 C1689 1.327 . S
C1687 C1693 1.429 . S
C1688 C1680 1.574 . S
C1688 H1683 0.949 . S
C1688 C1694 1.368 . S
C1689 C1673 1.349 . S
C1689 H1681 0.950 . S
C1689 C1687 1.327 . S
C1690 C1678 1.349 . S
C1690 H1684 0.950 . S
C1690 C1691 1.327 . S
C1691 H1685 0.950 . S
C1691 C1690 1.327 . S
C1691 C1695 1.429 . S
C1692 C1675 1.574 . S
C1692 H1686 0.949 . S
C1692 C1696 1.368 . S
C1693 C1674 1.429 . S
C1693 C1687 1.429 . S
C1693 C1694 1.523 . S
C1694 C1675 1.368 . S
C1694 C1688 1.368 . S
C1694 C1693 1.523 . S
C1695 C1679 1.429 . S
C1695 C1691 1.429 . S
C1695 C1696 1.523 . S
C1696 C1680 1.368 . S
C1696 C1692 1.368 . S
C1696 C1695 1.523 . S
H1697 C1672 0.950 . S
H1698 C1674 0.950 . S
H1699 C1675 0.949 . S
H1700 C1677 0.950 . S
H1701 C1679 0.950 . S
C1702 C1703 1.349 . S
C1702 C1704 1.327 . S
C1702 H1727 0.950 . S
C1703 C1702 1.349 . S
C1703 C1719 1.349 . S
C1704 C1702 1.327 . S
C1704 C1723 1.429 . S
C1704 H1728 0.950 . S
C1705 C1722 1.574 . S
C1705 C1724 1.368 . S
C1705 H1729 0.949 . S
H1706 C1710 0.949 . S
C1707 C1708 1.349 . S
C1707 C1709 1.327 . S
C1707 H1730 0.950 . S
C1708 C1707 1.349 . S
C1708 C1720 1.349 . S
C1709 C1707 1.327 . S
C1709 C1725 1.429 . S
C1709 H1731 0.950 . S
C1710 H1706 0.949 . S
C1710 C1718 1.574 . S
C1710 C1726 1.368 . S
H1711 C1719 0.950 . S
H1712 C1717 0.950 . S
H1713 C1718 0.949 . S
H1714 C1720 0.950 . S
H1715 C1721 0.950 . S
H1716 C1722 0.949 . S
C1717 H1712 0.950 . S
C1717 C1719 1.327 . S
C1717 C1723 1.429 . S
C1718 C1710 1.574 . S
C1718 H1713 0.949 . S
C1718 C1724 1.368 . S
C1719 C1703 1.349 . S
C1719 H1711 0.950 . S
C1719 C1717 1.327 . S
C1720 C1708 1.349 . S
C1720 H1714 0.950 . S
C1720 C1721 1.327 . S
C1721 H1715 0.950 . S
C1721 C1720 1.327 . S
C1721 C1725 1.429 . S
C1722 C1705 1.574 . S
C1722 H1716 0.949 . S
C1722 C1726 1.368 . S
C1723 C1704 1.429 . S
C1723 C1717 1.429 . S
C1723 C1724 1.523 . S
C1724 C1705 1.368 . S
C1724 C1718 1.368 . S
C1724 C1723 1.523 . S
C1725 C1709 1.429 . S
C1725 C1721 1.429 . S
C1725 C1726 1.523 . S
C1726 C1710 1.368 . S
C1726 C1722 1.368 . S
C1726 C1725 1.523 . S
H1727 C1702 0.950 . S
H1728 C1704 0.950 . S
H1729 C1705 0.949 . S
H1730 C1707 0.950 . S
H1731 C1709 0.950 . S
C1732 C1733 1.349 . S
C1732 C1734 1.327 . S
C1732 H1757 0.950 . S
C1733 C1732 1.349 . S
C1733 C1749 1.349 . S
C1734 C1732 1.327 . S
C1734 C1753 1.429 . S
C1734 H1758 0.950 . S
C1735 C1752 1.574 . S
C1735 C1754 1.368 . S
C1735 H1759 0.949 . S
H1736 C1740 0.949 . S
C1737 C1738 1.349 . S
C1737 C1739 1.327 . S
C1737 H1760 0.950 . S
C1738 C1737 1.349 . S
C1738 C1750 1.349 . S
C1739 C1737 1.327 . S
C1739 C1755 1.429 . S
C1739 H1761 0.950 . S
C1740 H1736 0.949 . S
C1740 C1748 1.574 . S
C1740 C1756 1.368 . S
H1741 C1749 0.950 . S
H1742 C1747 0.950 . S
H1743 C1748 0.949 . S
H1744 C1750 0.950 . S
H1745 C1751 0.950 . S
H1746 C1752 0.949 . S
C1747 H1742 0.950 . S
C1747 C1749 1.327 . S
C1747 C1753 1.429 . S
C1748 C1740 1.574 . S
C1748 H1743 0.949 . S
C1748 C1754 1.368 . S
C1749 C1733 1.349 . S
C1749 H1741 0.950 . S
C1749 C1747 1.327 . S
C1750 C1738 1.349 . S
C1750 H1744 0.950 . S
C1750 C1751 1.327 . S
C1751 H1745 0.950 . S
C1751 C1750 1.327 . S
C1751 C1755 1.429 . S
C1752 C1735 1.574 . S
C1752 H1746 0.949 . S
C1752 C1756 1.368 . S
C1753 C1734 1.429 . S
C1753 C1747 1.429 . S
C1753 C1754 1.523 . S
C1754 C1735 1.368 . S
C1754 C1748 1.368 . S
C1754 C1753 1.523 . S
C1755 C1739 1.429 . S
C1755 C1751 1.429 . S
C1755 C1756 1.523 . S
C1756 C1740 1.368 . S
C1756 C1752 1.368 . S
C1756 C1755 1.523 . S
H1757 C1732 0.950 . S
H1758 C1734 0.950 . S
H1759 C1735 0.949 . S
H1760 C1737 0.950 . S
H1761 C1739 0.950 . S
C1762 C1763 1.349 . S
C1762 C1764 1.327 . S
C1762 H1787 0.950 . S
C1763 C1762 1.349 . S
C1763 C1779 1.349 . S
C1764 C1762 1.327 . S
C1764 C1783 1.429 . S
C1764 H1788 0.950 . S
C1765 C1782 1.574 . S
C1765 C1784 1.368 . S
C1765 H1789 0.949 . S
H1766 C1770 0.949 . S
C1767 C1768 1.349 . S
C1767 C1769 1.327 . S
C1767 H1790 0.950 . S
C1768 C1767 1.349 . S
C1768 C1780 1.349 . S
C1769 C1767 1.327 . S
C1769 C1785 1.429 . S
C1769 H1791 0.950 . S
C1770 H1766 0.949 . S
C1770 C1778 1.574 . S
C1770 C1786 1.368 . S
H1771 C1779 0.950 . S
H1772 C1777 0.950 . S
H1773 C1778 0.949 . S
H1774 C1780 0.950 . S
H1775 C1781 0.950 . S
H1776 C1782 0.949 . S
C1777 H1772 0.950 . S
C1777 C1779 1.327 . S
C1777 C1783 1.429 . S
C1778 C1770 1.574 . S
C1778 H1773 0.949 . S
C1778 C1784 1.368 . S
C1779 C1763 1.349 . S
C1779 H1771 0.950 . S
C1779 C1777 1.327 . S
C1780 C1768 1.349 . S
C1780 H1774 0.950 . S
C1780 C1781 1.327 . S
C1781 H1775 0.950 . S
C1781 C1780 1.327 . S
C1781 C1785 1.429 . S
C1782 C1765 1.574 . S
C1782 H1776 0.949 . S
C1782 C1786 1.368 . S
C1783 C1764 1.429 . S
C1783 C1777 1.429 . S
C1783 C1784 1.523 . S
C1784 C1765 1.368 . S
C1784 C1778 1.368 . S
C1784 C1783 1.523 . S
C1785 C1769 1.429 . S
C1785 C1781 1.429 . S
C1785 C1786 1.523 . S
C1786 C1770 1.368 . S
C1786 C1782 1.368 . S
C1786 C1785 1.523 . S
H1787 C1762 0.950 . S
H1788 C1764 0.950 . S
H1789 C1765 0.949 . S
H1790 C1767 0.950 . S
H1791 C1769 0.950 . S
C1792 C1793 1.349 . S
C1792 C1794 1.327 . S
C1792 H1817 0.950 . S
C1793 C1792 1.349 . S
C1793 C1809 1.349 . S
C1794 C1792 1.327 . S
C1794 C1813 1.429 . S
C1794 H1818 0.950 . S
C1795 C1812 1.574 . S
C1795 C1814 1.368 . S
C1795 H1819 0.949 . S
H1796 C1800 0.949 . S
C1797 C1798 1.349 . S
C1797 C1799 1.327 . S
C1797 H1820 0.950 . S
C1798 C1797 1.349 . S
C1798 C1810 1.349 . S
C1799 C1797 1.327 . S
C1799 C1815 1.429 . S
C1799 H1821 0.950 . S
C1800 H1796 0.949 . S
C1800 C1808 1.574 . S
C1800 C1816 1.368 . S
H1801 C1809 0.950 . S
H1802 C1807 0.950 . S
H1803 C1808 0.949 . S
H1804 C1810 0.950 . S
H1805 C1811 0.950 . S
H1806 C1812 0.949 . S
C1807 H1802 0.950 . S
C1807 C1809 1.327 . S
C1807 C1813 1.429 . S
C1808 C1800 1.574 . S
C1808 H1803 0.949 . S
C1808 C1814 1.368 . S
C1809 C1793 1.349 . S
C1809 H1801 0.950 . S
C1809 C1807 1.327 . S
C1810 C1798 1.349 . S
C1810 H1804 0.950 . S
C1810 C1811 1.327 . S
C1811 H1805 0.950 . S
C1811 C1810 1.327 . S
C1811 C1815 1.429 . S
C1812 C1795 1.574 . S
C1812 H1806 0.949 . S
C1812 C1816 1.368 . S
C1813 C1794 1.429 . S
C1813 C1807 1.429 . S
C1813 C1814 1.523 . S
C1814 C1795 1.368 . S
C1814 C1808 1.368 . S
C1814 C1813 1.523 . S
C1815 C1799 1.429 . S
C1815 C1811 1.429 . S
C1815 C1816 1.523 . S
C1816 C1800 1.368 . S
C1816 C1812 1.368 . S
C1816 C1815 1.523 . S
H1817 C1792 0.950 . S
H1818 C1794 0.950 . S
H1819 C1795 0.949 . S
H1820 C1797 0.950 . S
H1821 C1799 0.950 . S
C1822 C1823 1.349 . S
C1822 C1824 1.327 . S
C1822 H1847 0.950 . S
C1823 C1822 1.349 . S
C1823 C1839 1.349 . S
C1824 C1822 1.327 . S
C1824 C1843 1.429 . S
C1824 H1848 0.950 . S
C1825 C1842 1.574 . S
C1825 C1844 1.368 . S
C1825 H1849 0.949 . S
H1826 C1830 0.949 . S
C1827 C1828 1.349 . S
C1827 C1829 1.327 . S
C1827 H1850 0.950 . S
C1828 C1827 1.349 . S
C1828 C1840 1.349 . S
C1829 C1827 1.327 . S
C1829 C1845 1.429 . S
C1829 H1851 0.950 . S
C1830 H1826 0.949 . S
C1830 C1838 1.574 . S
C1830 C1846 1.368 . S
H1831 C1839 0.950 . S
H1832 C1837 0.950 . S
H1833 C1838 0.949 . S
H1834 C1840 0.950 . S
H1835 C1841 0.950 . S
H1836 C1842 0.949 . S
C1837 H1832 0.950 . S
C1837 C1839 1.327 . S
C1837 C1843 1.429 . S
C1838 C1830 1.574 . S
C1838 H1833 0.949 . S
C1838 C1844 1.368 . S
C1839 C1823 1.349 . S
C1839 H1831 0.950 . S
C1839 C1837 1.327 . S
C1840 C1828 1.349 . S
C1840 H1834 0.950 . S
C1840 C1841 1.327 . S
C1841 H1835 0.950 . S
C1841 C1840 1.327 . S
C1841 C1845 1.429 . S
C1842 C1825 1.574 . S
C1842 H1836 0.949 . S
C1842 C1846 1.368 . S
C1843 C1824 1.429 . S
C1843 C1837 1.429 . S
C1843 C1844 1.523 . S
C1844 C1825 1.368 . S
C1844 C1838 1.368 . S
C1844 C1843 1.523 . S
C1845 C1829 1.429 . S
C1845 C1841 1.429 . S
C1845 C1846 1.523 . S
C1846 C1830 1.368 . S
C1846 C1842 1.368 . S
C1846 C1845 1.523 . S
H1847 C1822 0.950 . S
H1848 C1824 0.950 . S
H1849 C1825 0.949 . S
H1850 C1827 0.950 . S
H1851 C1829 0.950 . S
C1852 C1853 1.349 . S
C1852 C1854 1.327 . S
C1852 H1877 0.950 . S
C1853 C1852 1.349 . S
C1853 C1869 1.349 . S
C1854 C1852 1.327 . S
C1854 C1873 1.429 . S
C1854 H1878 0.950 . S
C1855 C1872 1.574 . S
C1855 C1874 1.368 . S
C1855 H1879 0.949 . S
H1856 C1860 0.949 . S
C1857 C1858 1.349 . S
C1857 C1859 1.327 . S
C1857 H1880 0.950 1_556 S
C1858 C1857 1.349 . S
C1858 C1870 1.349 . S
C1859 C1857 1.327 . S
C1859 C1875 1.429 . S
C1859 H1881 0.950 . S
C1860 H1856 0.949 . S
C1860 C1868 1.574 . S
C1860 C1876 1.368 . S
H1861 C1869 0.950 . S
H1862 C1867 0.950 . S
H1863 C1868 0.949 . S
H1864 C1870 0.950 1_545 S
H1865 C1871 0.950 . S
H1866 C1872 0.949 . S
C1867 H1862 0.950 . S
C1867 C1869 1.327 . S
C1867 C1873 1.429 . S
C1868 C1860 1.574 . S
C1868 H1863 0.949 . S
C1868 C1874 1.368 . S
C1869 C1853 1.349 . S
C1869 H1861 0.950 . S
C1869 C1867 1.327 . S
C1870 C1858 1.349 . S
C1870 H1864 0.950 1_565 S
C1870 C1871 1.327 . S
C1871 H1865 0.950 . S
C1871 C1870 1.327 . S
C1871 C1875 1.429 . S
C1872 C1855 1.574 . S
C1872 H1866 0.949 . S
C1872 C1876 1.368 . S
C1873 C1854 1.429 . S
C1873 C1867 1.429 . S
C1873 C1874 1.523 . S
C1874 C1855 1.368 . S
C1874 C1868 1.368 . S
C1874 C1873 1.523 . S
C1875 C1859 1.429 . S
C1875 C1871 1.429 . S
C1875 C1876 1.523 . S
C1876 C1860 1.368 . S
C1876 C1872 1.368 . S
C1876 C1875 1.523 . S
H1877 C1852 0.950 . S
H1878 C1854 0.950 . S
H1879 C1855 0.949 . S
H1880 C1857 0.950 1_554 S
H1881 C1859 0.950 . S
C1882 C1883 1.349 . S
C1882 C1884 1.327 . S
C1882 H1907 0.950 . S
C1883 C1882 1.349 . S
C1883 C1899 1.349 . S
C1884 C1882 1.327 . S
C1884 C1903 1.429 . S
C1884 H1908 0.950 . S
C1885 C1902 1.574 . S
C1885 C1904 1.368 . S
C1885 H1909 0.949 . S
H1886 C1890 0.949 . S
C1887 C1888 1.349 . S
C1887 C1889 1.327 . S
C1887 H1910 0.950 . S
C1888 C1887 1.349 . S
C1888 C1900 1.349 . S
C1889 C1887 1.327 . S
C1889 C1905 1.429 . S
C1889 H1911 0.950 . S
C1890 H1886 0.949 . S
C1890 C1898 1.574 . S
C1890 C1906 1.368 . S
H1891 C1899 0.950 . S
H1892 C1897 0.950 . S
H1893 C1898 0.949 . S
H1894 C1900 0.950 . S
H1895 C1901 0.950 . S
H1896 C1902 0.949 . S
C1897 H1892 0.950 . S
C1897 C1899 1.327 . S
C1897 C1903 1.429 . S
C1898 C1890 1.574 . S
C1898 H1893 0.949 . S
C1898 C1904 1.368 . S
C1899 C1883 1.349 . S
C1899 H1891 0.950 . S
C1899 C1897 1.327 . S
C1900 C1888 1.349 . S
C1900 H1894 0.950 . S
C1900 C1901 1.327 . S
C1901 H1895 0.950 . S
C1901 C1900 1.327 . S
C1901 C1905 1.429 . S
C1902 C1885 1.574 . S
C1902 H1896 0.949 . S
C1902 C1906 1.368 . S
C1903 C1884 1.429 . S
C1903 C1897 1.429 . S
C1903 C1904 1.523 . S
C1904 C1885 1.368 . S
C1904 C1898 1.368 . S
C1904 C1903 1.523 . S
C1905 C1889 1.429 . S
C1905 C1901 1.429 . S
C1905 C1906 1.523 . S
C1906 C1890 1.368 . S
C1906 C1902 1.368 . S
C1906 C1905 1.523 . S
H1907 C1882 0.950 . S
H1908 C1884 0.950 . S
H1909 C1885 0.949 . S
H1910 C1887 0.950 . S
H1911 C1889 0.950 . S
C1912 C1913 1.349 . S
C1912 C1914 1.327 . S
C1912 H1937 0.950 . S
C1913 C1912 1.349 . S
C1913 C1929 1.395 . S
C1914 C1912 1.327 . S
C1914 C1933 1.429 . S
C1914 H1938 0.950 . S
C1915 C1932 1.574 . S
C1915 C1934 1.368 . S
C1915 H1939 0.949 1_545 S
H1916 C1920 0.949 . S
C1917 C1918 1.349 . S
C1917 C1919 1.327 . S
C1917 H1940 0.950 . S
C1918 C1917 1.349 . S
C1918 C1930 1.349 . S
C1919 C1917 1.327 . S
C1919 C1935 1.429 . S
C1919 H1941 0.950 . S
C1920 H1916 0.949 . S
C1920 C1928 1.574 . S
C1920 C1936 1.368 . S
H1921 C1929 0.902 1_565 S
H1922 C1927 0.950 1_565 S
H1923 C1928 0.949 . S
H1924 C1930 0.950 . S
H1925 C1931 0.950 . S
H1926 C1932 0.949 . S
C1927 H1922 0.950 1_545 S
C1927 C1929 1.331 . S
C1927 C1933 1.429 . S
C1928 C1920 1.574 . S
C1928 H1923 0.949 . S
C1928 C1934 1.368 . S
C1929 C1913 1.395 . S
C1929 H1921 0.902 1_545 S
C1929 C1927 1.331 . S
C1930 C1918 1.349 . S
C1930 H1924 0.950 . S
C1930 C1931 1.327 . S
C1931 H1925 0.950 . S
C1931 C1930 1.327 . S
C1931 C1935 1.429 . S
C1932 C1915 1.574 . S
C1932 H1926 0.949 . S
C1932 C1936 1.368 . S
C1933 C1914 1.429 . S
C1933 C1927 1.429 . S
C1933 C1934 1.523 . S
C1934 C1915 1.368 . S
C1934 C1928 1.368 . S
C1934 C1933 1.523 . S
C1935 C1919 1.429 . S
C1935 C1931 1.429 . S
C1935 C1936 1.523 . S
C1936 C1920 1.368 . S
C1936 C1932 1.368 . S
C1936 C1935 1.523 . S
H1937 C1912 0.950 . S
H1938 C1914 0.950 . S
H1939 C1915 0.949 1_565 S
H1940 C1917 0.950 . S
H1941 C1919 0.950 . S
C1942 C1943 1.349 . S
C1942 C1944 1.327 . S
C1942 H1967 0.950 . S
C1943 C1942 1.349 . S
C1943 C1959 1.349 . S
C1944 C1942 1.327 . S
C1944 C1963 1.429 . S
C1944 H1968 0.950 . S
C1945 C1962 1.574 . S
C1945 C1964 1.368 . S
C1945 H1969 0.949 . S
H1946 C1950 0.949 . S
C1947 C1948 1.349 . S
C1947 C1949 1.327 . S
C1947 H1970 0.950 . S
C1948 C1947 1.349 . S
C1948 C1960 1.349 . S
C1949 C1947 1.327 . S
C1949 C1965 1.429 . S
C1949 H1971 0.950 . S
C1950 H1946 0.949 . S
C1950 C1958 1.574 . S
C1950 C1966 1.368 . S
H1951 C1959 0.950 . S
H1952 C1957 0.950 . S
H1953 C1958 0.949 . S
H1954 C1960 0.950 . S
H1955 C1961 0.950 . S
H1956 C1962 0.949 . S
C1957 H1952 0.950 . S
C1957 C1959 1.327 . S
C1957 C1963 1.429 . S
C1958 C1950 1.574 . S
C1958 H1953 0.949 . S
C1958 C1964 1.368 . S
C1959 C1943 1.349 . S
C1959 H1951 0.950 . S
C1959 C1957 1.327 . S
C1960 C1948 1.349 . S
C1960 H1954 0.950 . S
C1960 C1961 1.327 . S
C1961 H1955 0.950 . S
C1961 C1960 1.327 . S
C1961 C1965 1.429 . S
C1962 C1945 1.574 . S
C1962 H1956 0.949 . S
C1962 C1966 1.368 . S
C1963 C1944 1.429 . S
C1963 C1957 1.429 . S
C1963 C1964 1.523 . S
C1964 C1945 1.368 . S
C1964 C1958 1.368 . S
C1964 C1963 1.523 . S
C1965 C1949 1.429 . S
C1965 C1961 1.429 . S
C1965 C1966 1.523 . S
C1966 C1950 1.368 . S
C1966 C1962 1.368 . S
C1966 C1965 1.523 . S
H1967 C1942 0.950 . S
H1968 C1944 0.950 . S
H1969 C1945 0.949 . S
H1970 C1947 0.950 . S
H1971 C1949 0.950 . S
C1972 C1973 1.349 . S
C1972 C1974 1.327 . S
C1972 H1997 0.950 . S
C1973 C1972 1.349 . S
C1973 C1989 1.375 . S
C1974 C1972 1.327 . S
C1974 C1993 1.429 . S
C1974 H1998 0.950 . S
C1975 C1992 1.574 . S
C1975 C1994 1.368 . S
C1975 H1999 0.949 1_545 S
H1976 C1980 0.949 . S
C1977 C1978 1.349 . S
C1977 C1979 1.327 . S
C1977 H2000 0.950 . S
C1978 C1977 1.349 . S
C1978 C1990 1.349 . S
C1979 C1977 1.327 . S
C1979 C1995 1.429 . S
C1979 H2001 0.942 1_545 S
C1980 H1976 0.949 . S
C1980 C1988 1.574 . S
C1980 C1996 1.368 . S
H1981 C1989 0.931 1_565 S
H1982 C1987 0.950 1_565 S
H1983 C1988 0.949 . S
H1984 C1990 0.950 . S
H1985 C1991 0.950 . S
H1986 C1992 0.949 1_565 S
C1987 H1982 0.950 1_545 S
C1987 C1989 1.321 . S
C1987 C1993 1.429 . S
C1988 C1980 1.574 . S
C1988 H1983 0.949 . S
C1988 C1994 1.368 . S
C1989 C1973 1.375 . S
C1989 H1981 0.931 1_545 S
C1989 C1987 1.321 . S
C1990 C1978 1.349 . S
C1990 H1984 0.950 . S
C1990 C1991 1.327 . S
C1991 H1985 0.950 . S
C1991 C1990 1.327 . S
C1991 C1995 1.429 . S
C1992 C1975 1.574 . S
C1992 H1986 0.949 1_545 S
C1992 C1996 1.368 . S
C1993 C1974 1.429 . S
C1993 C1987 1.429 . S
C1993 C1994 1.523 . S
C1994 C1975 1.368 . S
C1994 C1988 1.368 . S
C1994 C1993 1.523 . S
C1995 C1979 1.429 . S
C1995 C1991 1.429 . S
C1995 C1996 1.523 . S
C1996 C1980 1.368 . S
C1996 C1992 1.368 . S
C1996 C1995 1.523 . S
H1997 C1972 0.950 . S
H1998 C1974 0.950 . S
H1999 C1975 0.949 1_565 S
H2000 C1977 0.950 . S
H2001 C1979 0.942 1_565 S
C2002 C2003 1.349 . S
C2002 C2004 1.327 . S
C2002 H2027 0.950 . S
C2003 C2002 1.349 . S
C2003 C2019 1.349 . S
C2004 C2002 1.327 . S
C2004 C2023 1.429 . S
C2004 H2028 0.950 . S
C2005 C2022 1.574 . S
C2005 C2024 1.368 . S
C2005 H2029 0.949 . S
H2006 C2010 0.949 . S
C2007 C2008 1.349 . S
C2007 C2009 1.327 . S
C2007 H2030 0.950 . S
C2008 C2007 1.349 . S
C2008 C2020 1.349 . S
C2009 C2007 1.327 . S
C2009 C2025 1.429 . S
C2009 H2031 0.950 . S
C2010 H2006 0.949 . S
C2010 C2018 1.574 . S
C2010 C2026 1.368 . S
H2011 C2019 0.950 . S
H2012 C2017 0.950 . S
H2013 C2018 0.949 . S
H2014 C2020 0.950 . S
H2015 C2021 0.950 . S
H2016 C2022 0.949 . S
C2017 H2012 0.950 . S
C2017 C2019 1.327 . S
C2017 C2023 1.429 . S
C2018 C2010 1.574 . S
C2018 H2013 0.949 . S
C2018 C2024 1.368 . S
C2019 C2003 1.349 . S
C2019 H2011 0.950 . S
C2019 C2017 1.327 . S
C2020 C2008 1.349 . S
C2020 H2014 0.950 . S
C2020 C2021 1.327 . S
C2021 H2015 0.950 . S
C2021 C2020 1.327 . S
C2021 C2025 1.429 . S
C2022 C2005 1.574 . S
C2022 H2016 0.949 . S
C2022 C2026 1.368 . S
C2023 C2004 1.429 . S
C2023 C2017 1.429 . S
C2023 C2024 1.523 . S
C2024 C2005 1.368 . S
C2024 C2018 1.368 . S
C2024 C2023 1.523 . S
C2025 C2009 1.429 . S
C2025 C2021 1.429 . S
C2025 C2026 1.523 . S
C2026 C2010 1.368 . S
C2026 C2022 1.368 . S
C2026 C2025 1.523 . S
H2027 C2002 0.950 . S
H2028 C2004 0.950 . S
H2029 C2005 0.949 . S
H2030 C2007 0.950 . S
H2031 C2009 0.950 . S
C2032 C2033 1.349 . S
C2032 C2034 1.327 . S
C2032 H2057 0.950 . S
C2033 C2032 1.349 . S
C2033 C2049 1.349 1_565 S
C2034 C2032 1.327 . S
C2034 C2053 1.435 . S
C2034 H2058 0.950 . S
C2035 C2052 1.574 . S
C2035 C2054 1.368 . S
C2035 H2059 0.949 . S
H2036 C2040 0.949 . S
C2037 C2038 1.349 . S
C2037 C2039 1.327 . S
C2037 H2060 0.950 . S
C2038 C2037 1.349 . S
C2038 C2050 1.310 1_545 S
C2039 C2037 1.327 . S
C2039 C2055 1.429 . S
C2039 H2061 0.950 . S
C2040 H2036 0.949 . S
C2040 C2048 1.574 . S
C2040 C2056 1.368 1_565 S
H2041 C2049 0.950 . S
H2042 C2047 0.950 . S
H2043 C2048 0.949 . S
H2044 C2050 0.972 . S
H2045 C2051 0.950 . S
H2046 C2052 0.949 . S
C2047 H2042 0.950 . S
C2047 C2049 1.327 . S
C2047 C2053 1.425 1_545 S
C2048 C2040 1.574 . S
C2048 H2043 0.949 . S
C2048 C2054 1.368 1_565 S
C2049 C2033 1.349 1_545 S
C2049 H2041 0.950 . S
C2049 C2047 1.327 . S
C2050 C2038 1.310 1_565 S
C2050 H2044 0.972 . S
C2050 C2051 1.345 . S
C2051 H2045 0.950 . S
C2051 C2050 1.345 . S
C2051 C2055 1.429 1_565 S
C2052 C2035 1.574 . S
C2052 H2046 0.949 . S
C2052 C2056 1.368 . S
C2053 C2034 1.435 . S
C2053 C2047 1.425 1_565 S
C2053 C2054 1.520 1_565 S
C2054 C2035 1.368 . S
C2054 C2048 1.368 1_545 S
C2054 C2053 1.520 1_545 S
C2055 C2039 1.429 . S
C2055 C2051 1.429 1_545 S
C2055 C2056 1.523 . S
C2056 C2040 1.368 1_545 S
C2056 C2052 1.368 . S
C2056 C2055 1.523 . S
H2057 C2032 0.950 . S
H2058 C2034 0.950 . S
H2059 C2035 0.949 . S
H2060 C2037 0.950 . S
H2061 C2039 0.950 . S
C2062 C2063 1.349 . S
C2062 C2064 1.327 . S
C2062 H2087 0.950 . S
C2063 C2062 1.349 . S
C2063 C2079 1.349 . S
C2064 C2062 1.327 . S
C2064 C2083 1.429 . S
C2064 H2088 0.950 . S
C2065 C2082 1.574 . S
C2065 C2084 1.368 . S
C2065 H2089 0.949 . S
H2066 C2070 0.949 . S
C2067 C2068 1.349 . S
C2067 C2069 1.327 . S
C2067 H2090 0.950 . S
C2068 C2067 1.349 . S
C2068 C2080 1.349 . S
C2069 C2067 1.327 . S
C2069 C2085 1.429 . S
C2069 H2091 0.950 . S
C2070 H2066 0.949 . S
C2070 C2078 1.574 . S
C2070 C2086 1.368 . S
H2071 C2079 0.950 . S
H2072 C2077 0.950 . S
H2073 C2078 0.949 . S
H2074 C2080 0.950 . S
H2075 C2081 0.950 . S
H2076 C2082 0.949 . S
C2077 H2072 0.950 . S
C2077 C2079 1.327 . S
C2077 C2083 1.429 . S
C2078 C2070 1.574 . S
C2078 H2073 0.949 . S
C2078 C2084 1.368 . S
C2079 C2063 1.349 . S
C2079 H2071 0.950 . S
C2079 C2077 1.327 . S
C2080 C2068 1.349 . S
C2080 H2074 0.950 . S
C2080 C2081 1.327 . S
C2081 H2075 0.950 . S
C2081 C2080 1.327 . S
C2081 C2085 1.429 . S
C2082 C2065 1.574 . S
C2082 H2076 0.949 . S
C2082 C2086 1.368 . S
C2083 C2064 1.429 . S
C2083 C2077 1.429 . S
C2083 C2084 1.523 . S
C2084 C2065 1.368 . S
C2084 C2078 1.368 . S
C2084 C2083 1.523 . S
C2085 C2069 1.429 . S
C2085 C2081 1.429 . S
C2085 C2086 1.523 . S
C2086 C2070 1.368 . S
C2086 C2082 1.368 . S
C2086 C2085 1.523 . S
H2087 C2062 0.950 . S
H2088 C2064 0.950 . S
H2089 C2065 0.949 . S
H2090 C2067 0.950 . S
H2091 C2069 0.950 . S
C2092 C2093 1.349 . S
C2092 C2094 1.327 . S
C2092 H2117 0.950 . S
C2093 C2092 1.349 . S
C2093 C2109 1.349 1_545 S
C2094 C2092 1.327 . S
C2094 C2113 1.429 . S
C2094 H2118 0.950 . S
C2095 C2112 1.574 . S
C2095 C2114 1.368 1_565 S
C2095 H2119 0.949 . S
H2096 C2100 0.949 . S
C2097 C2098 1.349 1_565 S
C2097 C2099 1.327 . S
C2097 H2120 0.950 . S
C2098 C2097 1.349 1_545 S
C2098 C2110 1.349 . S
C2099 C2097 1.327 . S
C2099 C2115 1.429 1_565 S
C2099 H2121 0.950 . S
C2100 H2096 0.949 . S
C2100 C2108 1.574 . S
C2100 C2116 1.368 . S
H2101 C2109 0.950 . S
H2102 C2107 0.950 . S
H2103 C2108 0.949 . S
H2104 C2110 0.950 . S
H2105 C2111 0.950 . S
H2106 C2112 0.949 . S
C2107 H2102 0.950 . S
C2107 C2109 1.327 . S
C2107 C2113 1.429 1_565 S
C2108 C2100 1.574 . S
C2108 H2103 0.949 . S
C2108 C2114 1.368 . S
C2109 C2093 1.349 1_565 S
C2109 H2101 0.950 . S
C2109 C2107 1.327 . S
C2110 C2098 1.349 . S
C2110 H2104 0.950 . S
C2110 C2111 1.327 . S
C2111 H2105 0.950 . S
C2111 C2110 1.327 . S
C2111 C2115 1.429 . S
C2112 C2095 1.574 . S
C2112 H2106 0.949 . S
C2112 C2116 1.368 1_565 S
C2113 C2094 1.429 . S
C2113 C2107 1.429 1_545 S
C2113 C2114 1.523 . S
C2114 C2095 1.368 1_545 S
C2114 C2108 1.368 . S
C2114 C2113 1.523 . S
C2115 C2099 1.429 1_545 S
C2115 C2111 1.429 . S
C2115 C2116 1.523 . S
C2116 C2100 1.368 . S
C2116 C2112 1.368 1_545 S
C2116 C2115 1.523 . S
H2117 C2092 0.950 . S
H2118 C2094 0.950 . S
H2119 C2095 0.949 . S
H2120 C2097 0.950 . S
H2121 C2099 0.950 . S
C2122 C2123 1.349 . S
C2122 C2124 1.327 . S
C2122 H2147 0.950 . S
C2123 C2122 1.349 . S
C2123 C2139 1.349 . S
C2124 C2122 1.327 . S
C2124 C2143 1.429 . S
C2124 H2148 0.950 . S
C2125 C2142 1.574 . S
C2125 C2144 1.368 . S
C2125 H2149 0.949 . S
H2126 C2130 0.949 . S
C2127 C2128 1.349 . S
C2127 C2129 1.327 . S
C2127 H2150 0.950 . S
C2128 C2127 1.349 . S
C2128 C2140 1.349 . S
C2129 C2127 1.327 . S
C2129 C2145 1.429 . S
C2129 H2151 0.950 . S
C2130 H2126 0.949 . S
C2130 C2138 1.574 . S
C2130 C2146 1.368 . S
H2131 C2139 0.950 . S
H2132 C2137 0.950 . S
H2133 C2138 0.949 . S
H2134 C2140 0.950 . S
H2135 C2141 0.950 . S
H2136 C2142 0.949 . S
C2137 H2132 0.950 . S
C2137 C2139 1.327 . S
C2137 C2143 1.429 . S
C2138 C2130 1.574 . S
C2138 H2133 0.949 . S
C2138 C2144 1.368 . S
C2139 C2123 1.349 . S
C2139 H2131 0.950 . S
C2139 C2137 1.327 . S
C2140 C2128 1.349 . S
C2140 H2134 0.950 . S
C2140 C2141 1.327 . S
C2141 H2135 0.950 . S
C2141 C2140 1.327 . S
C2141 C2145 1.429 . S
C2142 C2125 1.574 . S
C2142 H2136 0.949 . S
C2142 C2146 1.368 . S
C2143 C2124 1.429 . S
C2143 C2137 1.429 . S
C2143 C2144 1.523 . S
C2144 C2125 1.368 . S
C2144 C2138 1.368 . S
C2144 C2143 1.523 . S
C2145 C2129 1.429 . S
C2145 C2141 1.429 . S
C2145 C2146 1.523 . S
C2146 C2130 1.368 . S
C2146 C2142 1.368 . S
C2146 C2145 1.523 . S
H2147 C2122 0.950 . S
H2148 C2124 0.950 . S
H2149 C2125 0.949 . S
H2150 C2127 0.950 . S
H2151 C2129 0.950 . S
C2152 C2153 1.349 . S
C2152 C2154 1.327 . S
C2152 H2177 0.950 . S
C2153 C2152 1.349 . S
C2153 C2169 1.349 . S
C2154 C2152 1.327 . S
C2154 C2173 1.429 . S
C2154 H2178 0.950 1_554 S
C2155 C2172 1.574 . S
C2155 C2174 1.368 . S
C2155 H2179 0.949 . S
H2156 C2160 0.949 . S
C2157 C2158 1.349 1_554 S
C2157 C2159 1.327 . S
C2157 H2180 0.950 . S
C2158 C2157 1.349 1_556 S
C2158 C2170 1.349 . S
C2159 C2157 1.327 . S
C2159 C2175 1.429 . S
C2159 H2181 0.950 . S
C2160 H2156 0.949 . S
C2160 C2168 1.566 1_556 S
C2160 C2176 1.368 1_556 S
H2161 C2169 0.950 . S
H2162 C2167 0.950 . S
H2163 C2168 0.927 1_556 S
H2164 C2170 0.950 . S
H2165 C2171 0.950 . S
H2166 C2172 0.949 . S
C2167 H2162 0.950 . S
C2167 C2169 1.327 . S
C2167 C2173 1.429 . S
C2168 C2160 1.566 1_554 S
C2168 H2163 0.927 1_554 S
C2168 C2174 1.402 . S
C2169 C2153 1.349 . S
C2169 H2161 0.950 . S
C2169 C2167 1.327 . S
C2170 C2158 1.349 . S
C2170 H2164 0.950 . S
C2170 C2171 1.327 . S
C2171 H2165 0.950 . S
C2171 C2170 1.327 . S
C2171 C2175 1.429 1_556 S
C2172 C2155 1.574 . S
C2172 H2166 0.949 . S
C2172 C2176 1.368 . S
C2173 C2154 1.429 . S
C2173 C2167 1.429 . S
C2173 C2174 1.523 . S
C2174 C2155 1.368 . S
C2174 C2168 1.402 . S
C2174 C2173 1.523 . S
C2175 C2159 1.429 . S
C2175 C2171 1.429 1_554 S
C2175 C2176 1.523 . S
C2176 C2160 1.368 1_554 S
C2176 C2172 1.368 . S
C2176 C2175 1.523 . S
H2177 C2152 0.950 . S
H2178 C2154 0.950 1_556 S
H2179 C2155 0.949 . S
H2180 C2157 0.950 . S
H2181 C2159 0.950 . S
C2182 C2183 1.349 . S
C2182 C2184 1.327 . S
C2182 H2207 0.950 1_554 S
C2183 C2182 1.349 . S
C2183 C2199 1.349 . S
C2184 C2182 1.327 . S
C2184 C2203 1.429 . S
C2184 H2208 0.950 1_554 S
C2185 C2202 1.574 . S
C2185 C2204 1.368 . S
C2185 H2209 0.949 . S
H2186 C2190 0.984 . S
C2187 C2188 1.349 . S
C2187 C2189 1.327 . S
C2187 H2210 0.950 . S
C2188 C2187 1.349 . S
C2188 C2200 1.349 1_554 S
C2189 C2187 1.327 . S
C2189 C2205 1.429 . S
C2189 H2211 0.950 . S
C2190 H2186 0.984 . S
C2190 C2198 1.561 1_556 S
C2190 C2206 1.339 1_556 S
H2191 C2199 0.950 . S
H2192 C2197 0.950 . S
H2193 C2198 0.933 1_556 S
H2194 C2200 0.950 . S
H2195 C2201 0.950 . S
H2196 C2202 0.949 . S
C2197 H2192 0.950 . S
C2197 C2199 1.327 . S
C2197 C2203 1.429 . S
C2198 C2190 1.561 1_554 S
C2198 H2193 0.933 1_554 S
C2198 C2204 1.392 . S
C2199 C2183 1.349 . S
C2199 H2191 0.950 . S
C2199 C2197 1.327 . S
C2200 C2188 1.349 1_556 S
C2200 H2194 0.950 . S
C2200 C2201 1.327 . S
C2201 H2195 0.950 . S
C2201 C2200 1.327 . S
C2201 C2205 1.429 1_556 S
C2202 C2185 1.574 . S
C2202 H2196 0.949 . S
C2202 C2206 1.368 . S
C2203 C2184 1.429 . S
C2203 C2197 1.429 . S
C2203 C2204 1.523 . S
C2204 C2185 1.368 . S
C2204 C2198 1.392 . S
C2204 C2203 1.523 . S
C2205 C2189 1.429 . S
C2205 C2201 1.429 1_554 S
C2205 C2206 1.523 . S
C2206 C2190 1.339 1_554 S
C2206 C2202 1.368 . S
C2206 C2205 1.523 . S
H2207 C2182 0.950 1_556 S
H2208 C2184 0.950 1_556 S
H2209 C2185 0.949 . S
H2210 C2187 0.950 . S
H2211 C2189 0.950 . S
C2212 C2213 1.349 . S
C2212 C2214 1.327 . S
C2212 H2237 0.950 . S
C2213 C2212 1.349 . S
C2213 C2229 1.349 . S
C2214 C2212 1.327 . S
C2214 C2233 1.429 . S
C2214 H2238 0.950 . S
C2215 C2232 1.574 . S
C2215 C2234 1.368 . S
C2215 H2239 0.949 . S
H2216 C2220 0.949 . S
C2217 C2218 1.349 . S
C2217 C2219 1.327 . S
C2217 H2240 0.950 . S
C2218 C2217 1.349 . S
C2218 C2230 1.349 . S
C2219 C2217 1.327 . S
C2219 C2235 1.429 . S
C2219 H2241 0.950 . S
C2220 H2216 0.949 . S
C2220 C2228 1.574 . S
C2220 C2236 1.368 . S
H2221 C2229 0.950 . S
H2222 C2227 0.950 . S
H2223 C2228 0.949 . S
H2224 C2230 0.950 . S
H2225 C2231 0.950 . S
H2226 C2232 0.949 . S
C2227 H2222 0.950 . S
C2227 C2229 1.327 . S
C2227 C2233 1.429 . S
C2228 C2220 1.574 . S
C2228 H2223 0.949 . S
C2228 C2234 1.368 . S
C2229 C2213 1.349 . S
C2229 H2221 0.950 . S
C2229 C2227 1.327 . S
C2230 C2218 1.349 . S
C2230 H2224 0.950 . S
C2230 C2231 1.327 . S
C2231 H2225 0.950 . S
C2231 C2230 1.327 . S
C2231 C2235 1.429 . S
C2232 C2215 1.574 . S
C2232 H2226 0.949 . S
C2232 C2236 1.368 . S
C2233 C2214 1.429 . S
C2233 C2227 1.429 . S
C2233 C2234 1.523 . S
C2234 C2215 1.368 . S
C2234 C2228 1.368 . S
C2234 C2233 1.523 . S
C2235 C2219 1.429 . S
C2235 C2231 1.429 . S
C2235 C2236 1.523 . S
C2236 C2220 1.368 . S
C2236 C2232 1.368 . S
C2236 C2235 1.523 . S
H2237 C2212 0.950 . S
H2238 C2214 0.950 . S
H2239 C2215 0.949 . S
H2240 C2217 0.950 . S
H2241 C2219 0.950 . S
C2242 C2243 1.349 . S
C2242 C2244 1.327 . S
C2242 H2267 0.950 . S
C2243 C2242 1.349 . S
C2243 C2259 1.349 . S
C2244 C2242 1.327 . S
C2244 C2263 1.429 . S
C2244 H2268 0.950 . S
C2245 C2262 1.574 . S
C2245 C2264 1.368 . S
C2245 H2269 0.949 . S
H2246 C2250 0.949 . S
C2247 C2248 1.349 . S
C2247 C2249 1.327 . S
C2247 H2270 0.950 . S
C2248 C2247 1.349 . S
C2248 C2260 1.349 . S
C2249 C2247 1.327 . S
C2249 C2265 1.429 . S
C2249 H2271 0.950 . S
C2250 H2246 0.949 . S
C2250 C2258 1.574 . S
C2250 C2266 1.368 . S
H2251 C2259 0.950 . S
H2252 C2257 0.950 . S
H2253 C2258 0.949 . S
H2254 C2260 0.950 . S
H2255 C2261 0.950 . S
H2256 C2262 0.949 . S
C2257 H2252 0.950 . S
C2257 C2259 1.327 . S
C2257 C2263 1.429 . S
C2258 C2250 1.574 . S
C2258 H2253 0.949 . S
C2258 C2264 1.368 . S
C2259 C2243 1.349 . S
C2259 H2251 0.950 . S
C2259 C2257 1.327 . S
C2260 C2248 1.349 . S
C2260 H2254 0.950 . S
C2260 C2261 1.327 . S
C2261 H2255 0.950 . S
C2261 C2260 1.327 . S
C2261 C2265 1.429 . S
C2262 C2245 1.574 . S
C2262 H2256 0.949 . S
C2262 C2266 1.368 . S
C2263 C2244 1.429 . S
C2263 C2257 1.429 . S
C2263 C2264 1.523 . S
C2264 C2245 1.368 . S
C2264 C2258 1.368 . S
C2264 C2263 1.523 . S
C2265 C2249 1.429 . S
C2265 C2261 1.429 . S
C2265 C2266 1.523 . S
C2266 C2250 1.368 . S
C2266 C2262 1.368 . S
C2266 C2265 1.523 . S
H2267 C2242 0.950 . S
H2268 C2244 0.950 . S
H2269 C2245 0.949 . S
H2270 C2247 0.950 . S
H2271 C2249 0.950 . S
C2272 C2273 1.349 1_565 S
C2272 C2274 1.327 . S
C2272 H2297 0.950 . S
C2273 C2272 1.349 1_545 S
C2273 C2289 1.349 . S
C2274 C2272 1.327 . S
C2274 C2293 1.429 . S
C2274 H2298 0.950 . S
C2275 C2292 1.574 . S
C2275 C2294 1.368 . S
C2275 H2299 0.949 . S
H2276 C2280 0.949 . S
C2277 C2278 1.349 . S
C2277 C2279 1.327 . S
C2277 H2300 0.950 . S
C2278 C2277 1.349 . S
C2278 C2290 1.349 . S
C2279 C2277 1.327 . S
C2279 C2295 1.429 . S
C2279 H2301 0.950 . S
C2280 H2276 0.949 . S
C2280 C2288 1.574 . S
C2280 C2296 1.368 . S
H2281 C2289 0.950 . S
H2282 C2287 0.950 . S
H2283 C2288 0.949 . S
H2284 C2290 0.950 . S
H2285 C2291 0.950 . S
H2286 C2292 0.949 . S
C2287 H2282 0.950 . S
C2287 C2289 1.327 1_565 S
C2287 C2293 1.429 . S
C2288 C2280 1.574 . S
C2288 H2283 0.949 . S
C2288 C2294 1.368 . S
C2289 C2273 1.349 . S
C2289 H2281 0.950 . S
C2289 C2287 1.327 1_545 S
C2290 C2278 1.349 . S
C2290 H2284 0.950 . S
C2290 C2291 1.327 . S
C2291 H2285 0.950 . S
C2291 C2290 1.327 . S
C2291 C2295 1.429 . S
C2292 C2275 1.574 . S
C2292 H2286 0.949 . S
C2292 C2296 1.368 . S
C2293 C2274 1.429 . S
C2293 C2287 1.429 . S
C2293 C2294 1.523 . S
C2294 C2275 1.368 . S
C2294 C2288 1.368 . S
C2294 C2293 1.523 . S
C2295 C2279 1.429 . S
C2295 C2291 1.429 . S
C2295 C2296 1.523 . S
C2296 C2280 1.368 . S
C2296 C2292 1.368 . S
C2296 C2295 1.523 . S
H2297 C2272 0.950 . S
H2298 C2274 0.950 . S
H2299 C2275 0.949 . S
H2300 C2277 0.950 . S
H2301 C2279 0.950 . S
C2302 C2303 1.349 . S
C2302 C2304 1.327 . S
C2302 H2327 0.950 . S
C2303 C2302 1.349 . S
C2303 C2319 1.349 . S
C2304 C2302 1.327 . S
C2304 C2323 1.429 . S
C2304 H2328 0.950 . S
C2305 C2322 1.574 . S
C2305 C2324 1.368 . S
C2305 H2329 0.949 . S
H2306 C2310 0.949 . S
C2307 C2308 1.349 . S
C2307 C2309 1.327 . S
C2307 H2330 0.950 . S
C2308 C2307 1.349 . S
C2308 C2320 1.349 . S
C2309 C2307 1.327 . S
C2309 C2325 1.429 . S
C2309 H2331 0.950 . S
C2310 H2306 0.949 . S
C2310 C2318 1.574 . S
C2310 C2326 1.368 . S
H2311 C2319 0.950 . S
H2312 C2317 0.950 . S
H2313 C2318 0.949 . S
H2314 C2320 0.950 . S
H2315 C2321 0.950 . S
H2316 C2322 0.949 . S
C2317 H2312 0.950 . S
C2317 C2319 1.327 . S
C2317 C2323 1.429 . S
C2318 C2310 1.574 . S
C2318 H2313 0.949 . S
C2318 C2324 1.368 . S
C2319 C2303 1.349 . S
C2319 H2311 0.950 . S
C2319 C2317 1.327 . S
C2320 C2308 1.349 . S
C2320 H2314 0.950 . S
C2320 C2321 1.327 . S
C2321 H2315 0.950 . S
C2321 C2320 1.327 . S
C2321 C2325 1.429 . S
C2322 C2305 1.574 . S
C2322 H2316 0.949 . S
C2322 C2326 1.368 . S
C2323 C2304 1.429 . S
C2323 C2317 1.429 . S
C2323 C2324 1.523 . S
C2324 C2305 1.368 . S
C2324 C2318 1.368 . S
C2324 C2323 1.523 . S
C2325 C2309 1.429 . S
C2325 C2321 1.429 . S
C2325 C2326 1.523 . S
C2326 C2310 1.368 . S
C2326 C2322 1.368 . S
C2326 C2325 1.523 . S
H2327 C2302 0.950 . S
H2328 C2304 0.950 . S
H2329 C2305 0.949 . S
H2330 C2307 0.950 . S
H2331 C2309 0.950 . S
C2332 C2333 1.349 . S
C2332 C2334 1.327 . S
C2332 H2357 0.950 . S
C2333 C2332 1.349 . S
C2333 C2349 1.349 . S
C2334 C2332 1.327 . S
C2334 C2353 1.429 . S
C2334 H2358 0.950 . S
C2335 C2352 1.574 . S
C2335 C2354 1.368 . S
C2335 H2359 0.949 . S
H2336 C2340 0.949 . S
C2337 C2338 1.349 . S
C2337 C2339 1.327 . S
C2337 H2360 0.950 . S
C2338 C2337 1.349 . S
C2338 C2350 1.349 . S
C2339 C2337 1.327 . S
C2339 C2355 1.429 . S
C2339 H2361 0.950 . S
C2340 H2336 0.949 . S
C2340 C2348 1.574 . S
C2340 C2356 1.368 . S
H2341 C2349 0.950 . S
H2342 C2347 0.950 . S
H2343 C2348 0.949 . S
H2344 C2350 0.950 . S
H2345 C2351 0.950 . S
H2346 C2352 0.949 . S
C2347 H2342 0.950 . S
C2347 C2349 1.327 . S
C2347 C2353 1.429 . S
C2348 C2340 1.574 . S
C2348 H2343 0.949 . S
C2348 C2354 1.368 . S
C2349 C2333 1.349 . S
C2349 H2341 0.950 . S
C2349 C2347 1.327 . S
C2350 C2338 1.349 . S
C2350 H2344 0.950 . S
C2350 C2351 1.327 . S
C2351 H2345 0.950 . S
C2351 C2350 1.327 . S
C2351 C2355 1.429 . S
C2352 C2335 1.574 . S
C2352 H2346 0.949 . S
C2352 C2356 1.368 . S
C2353 C2334 1.429 . S
C2353 C2347 1.429 . S
C2353 C2354 1.523 . S
C2354 C2335 1.368 . S
C2354 C2348 1.368 . S
C2354 C2353 1.523 . S
C2355 C2339 1.429 . S
C2355 C2351 1.429 . S
C2355 C2356 1.523 . S
C2356 C2340 1.368 . S
C2356 C2352 1.368 . S
C2356 C2355 1.523 . S
H2357 C2332 0.950 . S
H2358 C2334 0.950 . S
H2359 C2335 0.949 . S
H2360 C2337 0.950 . S
H2361 C2339 0.950 . S
C2362 C2363 1.349 . S
C2362 C2364 1.327 . S
C2362 H2387 0.950 . S
C2363 C2362 1.349 . S
C2363 C2379 1.349 . S
C2364 C2362 1.327 . S
C2364 C2383 1.429 . S
C2364 H2388 0.950 . S
C2365 C2382 1.574 . S
C2365 C2384 1.368 . S
C2365 H2389 0.949 . S
H2366 C2370 0.949 . S
C2367 C2368 1.349 . S
C2367 C2369 1.327 . S
C2367 H2390 0.950 . S
C2368 C2367 1.349 . S
C2368 C2380 1.349 . S
C2369 C2367 1.327 . S
C2369 C2385 1.429 . S
C2369 H2391 0.950 . S
C2370 H2366 0.949 . S
C2370 C2378 1.574 . S
C2370 C2386 1.368 . S
H2371 C2379 0.950 . S
H2372 C2377 0.950 . S
H2373 C2378 0.949 . S
H2374 C2380 0.950 . S
H2375 C2381 0.950 . S
H2376 C2382 0.949 . S
C2377 H2372 0.950 . S
C2377 C2379 1.327 . S
C2377 C2383 1.429 . S
C2378 C2370 1.574 . S
C2378 H2373 0.949 . S
C2378 C2384 1.368 . S
C2379 C2363 1.349 . S
C2379 H2371 0.950 . S
C2379 C2377 1.327 . S
C2380 C2368 1.349 . S
C2380 H2374 0.950 . S
C2380 C2381 1.327 . S
C2381 H2375 0.950 . S
C2381 C2380 1.327 . S
C2381 C2385 1.429 . S
C2382 C2365 1.574 . S
C2382 H2376 0.949 . S
C2382 C2386 1.368 . S
C2383 C2364 1.429 . S
C2383 C2377 1.429 . S
C2383 C2384 1.523 . S
C2384 C2365 1.368 . S
C2384 C2378 1.368 . S
C2384 C2383 1.523 . S
C2385 C2369 1.429 . S
C2385 C2381 1.429 . S
C2385 C2386 1.523 . S
C2386 C2370 1.368 . S
C2386 C2382 1.368 . S
C2386 C2385 1.523 . S
H2387 C2362 0.950 . S
H2388 C2364 0.950 . S
H2389 C2365 0.949 . S
H2390 C2367 0.950 . S
H2391 C2369 0.950 . S
C2392 C2393 1.349 . S
C2392 C2394 1.327 . S
C2392 H2417 0.950 . S
C2393 C2392 1.349 . S
C2393 C2409 1.349 . S
C2394 C2392 1.327 . S
C2394 C2413 1.429 . S
C2394 H2418 0.950 . S
C2395 C2412 1.574 . S
C2395 C2414 1.368 . S
C2395 H2419 0.949 . S
H2396 C2400 0.949 . S
C2397 C2398 1.349 . S
C2397 C2399 1.327 . S
C2397 H2420 0.950 . S
C2398 C2397 1.349 . S
C2398 C2410 1.349 . S
C2399 C2397 1.327 . S
C2399 C2415 1.429 . S
C2399 H2421 0.950 . S
C2400 H2396 0.949 . S
C2400 C2408 1.574 . S
C2400 C2416 1.368 . S
H2401 C2409 0.950 . S
H2402 C2407 0.950 . S
H2403 C2408 0.949 . S
H2404 C2410 0.950 . S
H2405 C2411 0.950 . S
H2406 C2412 0.949 . S
C2407 H2402 0.950 . S
C2407 C2409 1.327 . S
C2407 C2413 1.429 . S
C2408 C2400 1.574 . S
C2408 H2403 0.949 . S
C2408 C2414 1.368 . S
C2409 C2393 1.349 . S
C2409 H2401 0.950 . S
C2409 C2407 1.327 . S
C2410 C2398 1.349 . S
C2410 H2404 0.950 . S
C2410 C2411 1.327 . S
C2411 H2405 0.950 . S
C2411 C2410 1.327 . S
C2411 C2415 1.429 . S
C2412 C2395 1.574 . S
C2412 H2406 0.949 . S
C2412 C2416 1.368 . S
C2413 C2394 1.429 . S
C2413 C2407 1.429 . S
C2413 C2414 1.523 . S
C2414 C2395 1.368 . S
C2414 C2408 1.368 . S
C2414 C2413 1.523 . S
C2415 C2399 1.429 . S
C2415 C2411 1.429 . S
C2415 C2416 1.523 . S
C2416 C2400 1.368 . S
C2416 C2412 1.368 . S
C2416 C2415 1.523 . S
H2417 C2392 0.950 . S
H2418 C2394 0.950 . S
H2419 C2395 0.949 . S
H2420 C2397 0.950 . S
H2421 C2399 0.950 . S
C2422 C2423 1.349 . S
C2422 C2424 1.327 . S
C2422 H2447 0.950 . S
C2423 C2422 1.349 . S
C2423 C2439 1.349 . S
C2424 C2422 1.327 . S
C2424 C2443 1.429 . S
C2424 H2448 0.950 . S
C2425 C2442 1.574 . S
C2425 C2444 1.368 . S
C2425 H2449 0.949 . S
H2426 C2430 0.949 . S
C2427 C2428 1.349 . S
C2427 C2429 1.327 . S
C2427 H2450 0.950 . S
C2428 C2427 1.349 . S
C2428 C2440 1.349 . S
C2429 C2427 1.327 . S
C2429 C2445 1.429 . S
C2429 H2451 0.950 . S
C2430 H2426 0.949 . S
C2430 C2438 1.574 . S
C2430 C2446 1.368 . S
H2431 C2439 0.950 . S
H2432 C2437 0.950 . S
H2433 C2438 0.949 . S
H2434 C2440 0.950 . S
H2435 C2441 0.950 . S
H2436 C2442 0.949 . S
C2437 H2432 0.950 . S
C2437 C2439 1.327 . S
C2437 C2443 1.429 . S
C2438 C2430 1.574 . S
C2438 H2433 0.949 . S
C2438 C2444 1.368 . S
C2439 C2423 1.349 . S
C2439 H2431 0.950 . S
C2439 C2437 1.327 . S
C2440 C2428 1.349 . S
C2440 H2434 0.950 . S
C2440 C2441 1.327 . S
C2441 H2435 0.950 . S
C2441 C2440 1.327 . S
C2441 C2445 1.429 . S
C2442 C2425 1.574 . S
C2442 H2436 0.949 . S
C2442 C2446 1.368 . S
C2443 C2424 1.429 . S
C2443 C2437 1.429 . S
C2443 C2444 1.523 . S
C2444 C2425 1.368 . S
C2444 C2438 1.368 . S
C2444 C2443 1.523 . S
C2445 C2429 1.429 . S
C2445 C2441 1.429 . S
C2445 C2446 1.523 . S
C2446 C2430 1.368 . S
C2446 C2442 1.368 . S
C2446 C2445 1.523 . S
H2447 C2422 0.950 . S
H2448 C2424 0.950 . S
H2449 C2425 0.949 . S
H2450 C2427 0.950 . S
H2451 C2429 0.950 . S
C2452 C2453 1.349 . S
C2452 C2454 1.327 . S
C2452 H2477 0.950 . S
C2453 C2452 1.349 . S
C2453 C2469 1.349 . S
C2454 C2452 1.327 . S
C2454 C2473 1.429 . S
C2454 H2478 0.950 . S
C2455 C2472 1.574 . S
C2455 C2474 1.368 . S
C2455 H2479 0.949 1_455 S
H2456 C2460 0.949 1_554 S
C2457 C2458 1.349 . S
C2457 C2459 1.327 1_554 S
C2457 H2480 0.950 . S
C2458 C2457 1.349 . S
C2458 C2470 1.349 . S
C2459 C2457 1.327 1_556 S
C2459 C2475 1.415 1_556 S
C2459 H2481 0.950 . S
C2460 H2456 0.949 1_556 S
C2460 C2468 1.574 . S
C2460 C2476 1.368 . S
H2461 C2469 0.950 1_655 S
H2462 C2467 0.950 1_655 S
H2463 C2468 0.949 . S
H2464 C2470 0.950 . S
H2465 C2471 0.950 . S
H2466 C2472 0.954 . S
C2467 H2462 0.950 1_455 S
C2467 C2469 1.327 . S
C2467 C2473 1.429 . S
C2468 C2460 1.574 . S
C2468 H2463 0.949 . S
C2468 C2474 1.368 . S
C2469 C2453 1.349 . S
C2469 H2461 0.950 1_455 S
C2469 C2467 1.327 . S
C2470 C2458 1.349 . S
C2470 H2464 0.950 . S
C2470 C2471 1.327 . S
C2471 H2465 0.950 . S
C2471 C2470 1.327 . S
C2471 C2475 1.461 . S
C2472 C2455 1.574 . S
C2472 H2466 0.954 . S
C2472 C2476 1.368 . S
C2473 C2454 1.429 . S
C2473 C2467 1.429 . S
C2473 C2474 1.523 . S
C2474 C2455 1.368 . S
C2474 C2468 1.368 . S
C2474 C2473 1.523 . S
C2475 C2459 1.415 1_554 S
C2475 C2471 1.461 . S
C2475 C2476 1.507 1_554 S
C2476 C2460 1.368 . S
C2476 C2472 1.368 . S
C2476 C2475 1.507 1_556 S
H2477 C2452 0.950 . S
H2478 C2454 0.950 . S
H2479 C2455 0.949 1_655 S
H2480 C2457 0.950 . S
H2481 C2459 0.950 . S
C2482 C2483 1.349 . S
C2482 C2484 1.327 1_455 S
C2482 H2507 0.950 . S
C2483 C2482 1.349 . S
C2483 C2499 1.349 . S
C2484 C2482 1.327 1_655 S
C2484 C2503 1.429 . S
C2484 H2508 0.950 . S
C2485 C2502 1.574 . S
C2485 C2504 1.368 . S
C2485 H2509 0.949 . S
H2486 C2490 0.949 . S
C2487 C2488 1.349 . S
C2487 C2489 1.327 . S
C2487 H2510 0.950 . S
C2488 C2487 1.349 . S
C2488 C2500 1.349 . S
C2489 C2487 1.327 . S
C2489 C2505 1.429 . S
C2489 H2511 0.950 . S
C2490 H2486 0.949 . S
C2490 C2498 1.574 . S
C2490 C2506 1.368 . S
H2491 C2499 0.950 . S
H2492 C2497 0.950 . S
H2493 C2498 0.949 . S
H2494 C2500 0.950 . S
H2495 C2501 0.950 . S
H2496 C2502 0.949 . S
C2497 H2492 0.950 . S
C2497 C2499 1.327 1_655 S
C2497 C2503 1.429 . S
C2498 C2490 1.574 . S
C2498 H2493 0.949 . S
C2498 C2504 1.368 . S
C2499 C2483 1.349 . S
C2499 H2491 0.950 . S
C2499 C2497 1.327 1_455 S
C2500 C2488 1.349 . S
C2500 H2494 0.950 . S
C2500 C2501 1.327 . S
C2501 H2495 0.950 . S
C2501 C2500 1.327 . S
C2501 C2505 1.429 . S
C2502 C2485 1.574 . S
C2502 H2496 0.949 . S
C2502 C2506 1.368 . S
C2503 C2484 1.429 . S
C2503 C2497 1.429 . S
C2503 C2504 1.523 . S
C2504 C2485 1.368 . S
C2504 C2498 1.368 . S
C2504 C2503 1.523 . S
C2505 C2489 1.429 . S
C2505 C2501 1.429 . S
C2505 C2506 1.523 . S
C2506 C2490 1.368 . S
C2506 C2502 1.368 . S
C2506 C2505 1.523 . S
H2507 C2482 0.950 . S
H2508 C2484 0.950 . S
H2509 C2485 0.949 . S
H2510 C2487 0.950 . S
H2511 C2489 0.950 . S
C2512 C2513 1.349 . S
C2512 C2514 1.327 . S
C2512 H2537 0.950 . S
C2513 C2512 1.349 . S
C2513 C2529 1.349 . S
C2514 C2512 1.327 . S
C2514 C2533 1.429 . S
C2514 H2538 0.950 . S
C2515 C2532 1.574 . S
C2515 C2534 1.368 . S
C2515 H2539 0.949 . S
H2516 C2520 0.949 . S
C2517 C2518 1.349 . S
C2517 C2519 1.327 . S
C2517 H2540 0.950 . S
C2518 C2517 1.349 . S
C2518 C2530 1.349 . S
C2519 C2517 1.327 . S
C2519 C2535 1.429 . S
C2519 H2541 0.950 . S
C2520 H2516 0.949 . S
C2520 C2528 1.574 . S
C2520 C2536 1.368 . S
H2521 C2529 0.950 . S
H2522 C2527 0.950 . S
H2523 C2528 0.949 . S
H2524 C2530 0.950 . S
H2525 C2531 0.950 . S
H2526 C2532 0.949 . S
C2527 H2522 0.950 . S
C2527 C2529 1.327 . S
C2527 C2533 1.429 . S
C2528 C2520 1.574 . S
C2528 H2523 0.949 . S
C2528 C2534 1.368 . S
C2529 C2513 1.349 . S
C2529 H2521 0.950 . S
C2529 C2527 1.327 . S
C2530 C2518 1.349 . S
C2530 H2524 0.950 . S
C2530 C2531 1.327 . S
C2531 H2525 0.950 . S
C2531 C2530 1.327 . S
C2531 C2535 1.429 . S
C2532 C2515 1.574 . S
C2532 H2526 0.949 . S
C2532 C2536 1.368 . S
C2533 C2514 1.429 . S
C2533 C2527 1.429 . S
C2533 C2534 1.523 . S
C2534 C2515 1.368 . S
C2534 C2528 1.368 . S
C2534 C2533 1.523 . S
C2535 C2519 1.429 . S
C2535 C2531 1.429 . S
C2535 C2536 1.523 . S
C2536 C2520 1.368 . S
C2536 C2532 1.368 . S
C2536 C2535 1.523 . S
H2537 C2512 0.950 . S
H2538 C2514 0.950 . S
H2539 C2515 0.949 . S
H2540 C2517 0.950 . S
H2541 C2519 0.950 . S
C2542 C2543 1.349 . S
C2542 C2544 1.327 . S
C2542 H2567 0.950 . S
C2543 C2542 1.349 . S
C2543 C2559 1.349 . S
C2544 C2542 1.327 . S
C2544 C2563 1.429 . S
C2544 H2568 0.950 . S
C2545 C2562 1.574 . S
C2545 C2564 1.368 . S
C2545 H2569 0.949 . S
H2546 C2550 0.949 . S
C2547 C2548 1.349 . S
C2547 C2549 1.327 . S
C2547 H2570 0.950 . S
C2548 C2547 1.349 . S
C2548 C2560 1.349 . S
C2549 C2547 1.327 . S
C2549 C2565 1.429 . S
C2549 H2571 0.950 . S
C2550 H2546 0.949 . S
C2550 C2558 1.574 . S
C2550 C2566 1.368 . S
H2551 C2559 0.950 . S
H2552 C2557 0.950 . S
H2553 C2558 0.949 1_455 S
H2554 C2560 0.950 . S
H2555 C2561 0.950 . S
H2556 C2562 0.949 . S
C2557 H2552 0.950 . S
C2557 C2559 1.327 . S
C2557 C2563 1.429 . S
C2558 C2550 1.574 . S
C2558 H2553 0.949 1_655 S
C2558 C2564 1.368 . S
C2559 C2543 1.349 . S
C2559 H2551 0.950 . S
C2559 C2557 1.327 . S
C2560 C2548 1.349 . S
C2560 H2554 0.950 . S
C2560 C2561 1.327 . S
C2561 H2555 0.950 . S
C2561 C2560 1.327 . S
C2561 C2565 1.429 . S
C2562 C2545 1.574 . S
C2562 H2556 0.949 . S
C2562 C2566 1.368 . S
C2563 C2544 1.429 . S
C2563 C2557 1.429 . S
C2563 C2564 1.523 1_455 S
C2564 C2545 1.368 . S
C2564 C2558 1.368 . S
C2564 C2563 1.523 1_655 S
C2565 C2549 1.429 . S
C2565 C2561 1.429 . S
C2565 C2566 1.523 . S
C2566 C2550 1.368 . S
C2566 C2562 1.368 . S
C2566 C2565 1.523 . S
H2567 C2542 0.950 . S
H2568 C2544 0.950 . S
H2569 C2545 0.949 . S
H2570 C2547 0.950 . S
H2571 C2549 0.950 . S
C2572 C2573 1.349 . S
C2572 C2574 1.327 1_655 S
C2572 H2597 0.950 1_655 S
C2573 C2572 1.349 . S
C2573 C2589 1.349 . S
C2574 C2572 1.327 1_455 S
C2574 C2593 1.429 1_455 S
C2574 H2598 0.950 . S
C2575 C2592 1.574 . S
C2575 C2594 1.371 . S
C2575 H2599 0.949 . S
H2576 C2580 0.949 . S
C2577 C2578 1.349 . S
C2577 C2579 1.327 . S
C2577 H2600 0.950 . S
C2578 C2577 1.349 . S
C2578 C2590 1.349 . S
C2579 C2577 1.327 . S
C2579 C2595 1.429 . S
C2579 H2601 0.950 1_455 S
C2580 H2576 0.949 . S
C2580 C2588 1.574 . S
C2580 C2596 1.368 . S
H2581 C2589 0.950 . S
H2582 C2587 0.950 . S
H2583 C2588 0.949 . S
H2584 C2590 0.950 . S
H2585 C2591 0.950 . S
H2586 C2592 0.949 . S
C2587 H2582 0.950 . S
C2587 C2589 1.327 . S
C2587 C2593 1.429 . S
C2588 C2580 1.574 . S
C2588 H2583 0.949 . S
C2588 C2594 1.360 1_455 S
C2589 C2573 1.349 . S
C2589 H2581 0.950 . S
C2589 C2587 1.327 . S
C2590 C2578 1.349 . S
C2590 H2584 0.950 . S
C2590 C2591 1.327 . S
C2591 H2585 0.950 . S
C2591 C2590 1.327 . S
C2591 C2595 1.429 . S
C2592 C2575 1.574 . S
C2592 H2586 0.949 . S
C2592 C2596 1.368 1_655 S
C2593 C2574 1.429 1_655 S
C2593 C2587 1.429 . S
C2593 C2594 1.531 . S
C2594 C2575 1.371 . S
C2594 C2588 1.360 1_655 S
C2594 C2593 1.531 . S
C2595 C2579 1.429 . S
C2595 C2591 1.429 . S
C2595 C2596 1.523 . S
C2596 C2580 1.368 . S
C2596 C2592 1.368 1_455 S
C2596 C2595 1.523 . S
H2597 C2572 0.950 1_455 S
H2598 C2574 0.950 . S
H2599 C2575 0.949 . S
H2600 C2577 0.950 . S
H2601 C2579 0.950 1_655 S
C2602 C2603 1.349 . S
C2602 C2604 1.327 . S
C2602 H2627 0.950 . S
C2603 C2602 1.349 . S
C2603 C2619 1.349 . S
C2604 C2602 1.327 . S
C2604 C2623 1.429 . S
C2604 H2628 0.950 . S
C2605 C2622 1.574 . S
C2605 C2624 1.368 . S
C2605 H2629 0.949 . S
H2606 C2610 0.949 . S
C2607 C2608 1.349 . S
C2607 C2609 1.327 . S
C2607 H2630 0.950 . S
C2608 C2607 1.349 . S
C2608 C2620 1.349 . S
C2609 C2607 1.327 . S
C2609 C2625 1.429 . S
C2609 H2631 0.950 . S
C2610 H2606 0.949 . S
C2610 C2618 1.574 . S
C2610 C2626 1.368 . S
H2611 C2619 0.950 . S
H2612 C2617 0.950 . S
H2613 C2618 0.949 . S
H2614 C2620 0.950 . S
H2615 C2621 0.950 . S
H2616 C2622 0.949 . S
C2617 H2612 0.950 . S
C2617 C2619 1.327 . S
C2617 C2623 1.429 . S
C2618 C2610 1.574 . S
C2618 H2613 0.949 . S
C2618 C2624 1.368 . S
C2619 C2603 1.349 . S
C2619 H2611 0.950 . S
C2619 C2617 1.327 . S
C2620 C2608 1.349 . S
C2620 H2614 0.950 . S
C2620 C2621 1.327 . S
C2621 H2615 0.950 . S
C2621 C2620 1.327 . S
C2621 C2625 1.429 . S
C2622 C2605 1.574 . S
C2622 H2616 0.949 . S
C2622 C2626 1.368 . S
C2623 C2604 1.429 . S
C2623 C2617 1.429 . S
C2623 C2624 1.523 . S
C2624 C2605 1.368 . S
C2624 C2618 1.368 . S
C2624 C2623 1.523 . S
C2625 C2609 1.429 . S
C2625 C2621 1.429 . S
C2625 C2626 1.523 . S
C2626 C2610 1.368 . S
C2626 C2622 1.368 . S
C2626 C2625 1.523 . S
H2627 C2602 0.950 . S
H2628 C2604 0.950 . S
H2629 C2605 0.949 . S
H2630 C2607 0.950 . S
H2631 C2609 0.950 . S
C2632 C2633 1.349 . S
C2632 C2634 1.327 . S
C2632 H2657 0.950 . S
C2633 C2632 1.349 . S
C2633 C2649 1.349 . S
C2634 C2632 1.327 . S
C2634 C2653 1.429 . S
C2634 H2658 0.950 . S
C2635 C2652 1.574 . S
C2635 C2654 1.368 . S
C2635 H2659 0.949 . S
H2636 C2640 0.949 . S
C2637 C2638 1.349 . S
C2637 C2639 1.327 . S
C2637 H2660 0.950 . S
C2638 C2637 1.349 . S
C2638 C2650 1.349 . S
C2639 C2637 1.327 . S
C2639 C2655 1.429 . S
C2639 H2661 0.950 . S
C2640 H2636 0.949 . S
C2640 C2648 1.574 . S
C2640 C2656 1.368 . S
H2641 C2649 0.950 . S
H2642 C2647 0.950 . S
H2643 C2648 0.949 . S
H2644 C2650 0.950 . S
H2645 C2651 0.950 . S
H2646 C2652 0.949 . S
C2647 H2642 0.950 . S
C2647 C2649 1.327 . S
C2647 C2653 1.429 . S
C2648 C2640 1.574 . S
C2648 H2643 0.949 . S
C2648 C2654 1.368 . S
C2649 C2633 1.349 . S
C2649 H2641 0.950 . S
C2649 C2647 1.327 . S
C2650 C2638 1.349 . S
C2650 H2644 0.950 . S
C2650 C2651 1.327 . S
C2651 H2645 0.950 . S
C2651 C2650 1.327 . S
C2651 C2655 1.429 . S
C2652 C2635 1.574 . S
C2652 H2646 0.949 . S
C2652 C2656 1.368 . S
C2653 C2634 1.429 . S
C2653 C2647 1.429 . S
C2653 C2654 1.523 . S
C2654 C2635 1.368 . S
C2654 C2648 1.368 . S
C2654 C2653 1.523 . S
C2655 C2639 1.429 . S
C2655 C2651 1.429 . S
C2655 C2656 1.523 . S
C2656 C2640 1.368 . S
C2656 C2652 1.368 . S
C2656 C2655 1.523 . S
H2657 C2632 0.950 . S
H2658 C2634 0.950 . S
H2659 C2635 0.949 . S
H2660 C2637 0.950 . S
H2661 C2639 0.950 . S
C2662 C2663 1.349 . S
C2662 C2664 1.327 . S
C2662 H2687 0.950 . S
C2663 C2662 1.349 . S
C2663 C2679 1.349 . S
C2664 C2662 1.327 . S
C2664 C2683 1.429 . S
C2664 H2688 0.950 . S
C2665 C2682 1.574 . S
C2665 C2684 1.368 . S
C2665 H2689 0.949 . S
H2666 C2670 0.949 . S
C2667 C2668 1.349 . S
C2667 C2669 1.327 . S
C2667 H2690 0.950 . S
C2668 C2667 1.349 . S
C2668 C2680 1.349 . S
C2669 C2667 1.327 . S
C2669 C2685 1.429 . S
C2669 H2691 0.950 . S
C2670 H2666 0.949 . S
C2670 C2678 1.574 . S
C2670 C2686 1.368 . S
H2671 C2679 0.950 . S
H2672 C2677 0.950 . S
H2673 C2678 0.949 . S
H2674 C2680 0.950 . S
H2675 C2681 0.950 . S
H2676 C2682 0.949 . S
C2677 H2672 0.950 . S
C2677 C2679 1.327 . S
C2677 C2683 1.429 . S
C2678 C2670 1.574 . S
C2678 H2673 0.949 . S
C2678 C2684 1.368 . S
C2679 C2663 1.349 . S
C2679 H2671 0.950 . S
C2679 C2677 1.327 . S
C2680 C2668 1.349 . S
C2680 H2674 0.950 . S
C2680 C2681 1.327 . S
C2681 H2675 0.950 . S
C2681 C2680 1.327 . S
C2681 C2685 1.429 . S
C2682 C2665 1.574 . S
C2682 H2676 0.949 . S
C2682 C2686 1.368 . S
C2683 C2664 1.429 . S
C2683 C2677 1.429 . S
C2683 C2684 1.523 . S
C2684 C2665 1.368 . S
C2684 C2678 1.368 . S
C2684 C2683 1.523 . S
C2685 C2669 1.429 . S
C2685 C2681 1.429 . S
C2685 C2686 1.523 . S
C2686 C2670 1.368 . S
C2686 C2682 1.368 . S
C2686 C2685 1.523 . S
H2687 C2662 0.950 . S
H2688 C2664 0.950 . S
H2689 C2665 0.949 . S
H2690 C2667 0.950 . S
H2691 C2669 0.950 . S
C2692 C2693 1.349 . S
C2692 C2694 1.327 . S
C2692 H2717 0.950 . S
C2693 C2692 1.349 . S
C2693 C2709 1.349 . S
C2694 C2692 1.327 . S
C2694 C2713 1.429 . S
C2694 H2718 0.950 . S
C2695 C2712 1.574 . S
C2695 C2714 1.368 . S
C2695 H2719 0.949 . S
H2696 C2700 0.949 . S
C2697 C2698 1.349 . S
C2697 C2699 1.327 . S
C2697 H2720 0.950 . S
C2698 C2697 1.349 . S
C2698 C2710 1.349 . S
C2699 C2697 1.327 . S
C2699 C2715 1.429 . S
C2699 H2721 0.950 . S
C2700 H2696 0.949 . S
C2700 C2708 1.574 . S
C2700 C2716 1.368 . S
H2701 C2709 0.950 . S
H2702 C2707 0.950 . S
H2703 C2708 0.949 . S
H2704 C2710 0.950 . S
H2705 C2711 0.950 . S
H2706 C2712 0.949 . S
C2707 H2702 0.950 . S
C2707 C2709 1.327 . S
C2707 C2713 1.429 . S
C2708 C2700 1.574 . S
C2708 H2703 0.949 . S
C2708 C2714 1.368 . S
C2709 C2693 1.349 . S
C2709 H2701 0.950 . S
C2709 C2707 1.327 . S
C2710 C2698 1.349 . S
C2710 H2704 0.950 . S
C2710 C2711 1.327 . S
C2711 H2705 0.950 . S
C2711 C2710 1.327 . S
C2711 C2715 1.429 . S
C2712 C2695 1.574 . S
C2712 H2706 0.949 . S
C2712 C2716 1.368 . S
C2713 C2694 1.429 . S
C2713 C2707 1.429 . S
C2713 C2714 1.523 . S
C2714 C2695 1.368 . S
C2714 C2708 1.368 . S
C2714 C2713 1.523 . S
C2715 C2699 1.429 . S
C2715 C2711 1.429 . S
C2715 C2716 1.523 . S
C2716 C2700 1.368 . S
C2716 C2712 1.368 . S
C2716 C2715 1.523 . S
H2717 C2692 0.950 . S
H2718 C2694 0.950 . S
H2719 C2695 0.949 . S
H2720 C2697 0.950 . S
H2721 C2699 0.950 . S
C2722 C2723 1.349 . S
C2722 C2724 1.327 . S
C2722 H2747 0.950 . S
C2723 C2722 1.349 . S
C2723 C2739 1.349 . S
C2724 C2722 1.327 . S
C2724 C2743 1.429 . S
C2724 H2748 0.950 . S
C2725 C2742 1.574 . S
C2725 C2744 1.368 . S
C2725 H2749 0.949 . S
H2726 C2730 0.949 . S
C2727 C2728 1.349 . S
C2727 C2729 1.327 . S
C2727 H2750 0.950 . S
C2728 C2727 1.349 . S
C2728 C2740 1.349 . S
C2729 C2727 1.327 . S
C2729 C2745 1.429 . S
C2729 H2751 0.950 . S
C2730 H2726 0.949 . S
C2730 C2738 1.574 . S
C2730 C2746 1.368 . S
H2731 C2739 0.950 . S
H2732 C2737 0.950 . S
H2733 C2738 0.949 . S
H2734 C2740 0.950 . S
H2735 C2741 0.950 . S
H2736 C2742 0.949 . S
C2737 H2732 0.950 . S
C2737 C2739 1.327 . S
C2737 C2743 1.429 . S
C2738 C2730 1.574 . S
C2738 H2733 0.949 . S
C2738 C2744 1.368 . S
C2739 C2723 1.349 . S
C2739 H2731 0.950 . S
C2739 C2737 1.327 . S
C2740 C2728 1.349 . S
C2740 H2734 0.950 . S
C2740 C2741 1.327 . S
C2741 H2735 0.950 . S
C2741 C2740 1.327 . S
C2741 C2745 1.429 . S
C2742 C2725 1.574 . S
C2742 H2736 0.949 . S
C2742 C2746 1.368 . S
C2743 C2724 1.429 . S
C2743 C2737 1.429 . S
C2743 C2744 1.523 . S
C2744 C2725 1.368 . S
C2744 C2738 1.368 . S
C2744 C2743 1.523 . S
C2745 C2729 1.429 . S
C2745 C2741 1.429 . S
C2745 C2746 1.523 . S
C2746 C2730 1.368 . S
C2746 C2742 1.368 . S
C2746 C2745 1.523 . S
H2747 C2722 0.950 . S
H2748 C2724 0.950 . S
H2749 C2725 0.949 . S
H2750 C2727 0.950 . S
H2751 C2729 0.950 . S
C2752 C2753 1.349 . S
C2752 C2754 1.327 . S
C2752 H2777 0.950 . S
C2753 C2752 1.349 . S
C2753 C2769 1.349 . S
C2754 C2752 1.327 . S
C2754 C2773 1.429 . S
C2754 H2778 0.950 . S
C2755 C2772 1.574 . S
C2755 C2774 1.368 . S
C2755 H2779 0.949 . S
H2756 C2760 0.949 . S
C2757 C2758 1.349 . S
C2757 C2759 1.327 . S
C2757 H2780 0.950 . S
C2758 C2757 1.349 . S
C2758 C2770 1.349 . S
C2759 C2757 1.327 . S
C2759 C2775 1.429 . S
C2759 H2781 0.950 . S
C2760 H2756 0.949 . S
C2760 C2768 1.574 . S
C2760 C2776 1.368 . S
H2761 C2769 0.950 . S
H2762 C2767 0.950 . S
H2763 C2768 0.949 . S
H2764 C2770 0.950 . S
H2765 C2771 0.950 . S
H2766 C2772 0.949 . S
C2767 H2762 0.950 . S
C2767 C2769 1.327 . S
C2767 C2773 1.429 . S
C2768 C2760 1.574 . S
C2768 H2763 0.949 . S
C2768 C2774 1.368 . S
C2769 C2753 1.349 . S
C2769 H2761 0.950 . S
C2769 C2767 1.327 . S
C2770 C2758 1.349 . S
C2770 H2764 0.950 . S
C2770 C2771 1.327 . S
C2771 H2765 0.950 . S
C2771 C2770 1.327 . S
C2771 C2775 1.429 . S
C2772 C2755 1.574 . S
C2772 H2766 0.949 . S
C2772 C2776 1.368 . S
C2773 C2754 1.429 . S
C2773 C2767 1.429 . S
C2773 C2774 1.523 . S
C2774 C2755 1.368 . S
C2774 C2768 1.368 . S
C2774 C2773 1.523 . S
C2775 C2759 1.429 . S
C2775 C2771 1.429 . S
C2775 C2776 1.523 . S
C2776 C2760 1.368 . S
C2776 C2772 1.368 . S
C2776 C2775 1.523 . S
H2777 C2752 0.950 . S
H2778 C2754 0.950 . S
H2779 C2755 0.949 . S
H2780 C2757 0.950 . S
H2781 C2759 0.950 . S
C2782 C2783 1.349 . S
C2782 C2784 1.327 . S
C2782 H2807 0.950 . S
C2783 C2782 1.349 . S
C2783 C2799 1.349 . S
C2784 C2782 1.327 . S
C2784 C2803 1.429 . S
C2784 H2808 0.950 . S
C2785 C2802 1.574 . S
C2785 C2804 1.368 . S
C2785 H2809 0.949 . S
H2786 C2790 0.949 . S
C2787 C2788 1.349 . S
C2787 C2789 1.327 . S
C2787 H2810 0.950 . S
C2788 C2787 1.349 . S
C2788 C2800 1.349 . S
C2789 C2787 1.327 . S
C2789 C2805 1.429 . S
C2789 H2811 0.950 . S
C2790 H2786 0.949 . S
C2790 C2798 1.574 . S
C2790 C2806 1.368 . S
H2791 C2799 0.950 . S
H2792 C2797 0.950 . S
H2793 C2798 0.949 . S
H2794 C2800 0.950 . S
H2795 C2801 0.950 . S
H2796 C2802 0.949 . S
C2797 H2792 0.950 . S
C2797 C2799 1.327 . S
C2797 C2803 1.429 . S
C2798 C2790 1.574 . S
C2798 H2793 0.949 . S
C2798 C2804 1.368 . S
C2799 C2783 1.349 . S
C2799 H2791 0.950 . S
C2799 C2797 1.327 . S
C2800 C2788 1.349 . S
C2800 H2794 0.950 . S
C2800 C2801 1.327 . S
C2801 H2795 0.950 . S
C2801 C2800 1.327 . S
C2801 C2805 1.429 . S
C2802 C2785 1.574 . S
C2802 H2796 0.949 . S
C2802 C2806 1.368 . S
C2803 C2784 1.429 . S
C2803 C2797 1.429 . S
C2803 C2804 1.523 . S
C2804 C2785 1.368 . S
C2804 C2798 1.368 . S
C2804 C2803 1.523 . S
C2805 C2789 1.429 . S
C2805 C2801 1.429 . S
C2805 C2806 1.523 . S
C2806 C2790 1.368 . S
C2806 C2802 1.368 . S
C2806 C2805 1.523 . S
H2807 C2782 0.950 . S
H2808 C2784 0.950 . S
H2809 C2785 0.949 . S
H2810 C2787 0.950 . S
H2811 C2789 0.950 . S
C2812 C2813 1.349 . S
C2812 C2814 1.327 . S
C2812 H2837 0.950 . S
C2813 C2812 1.349 . S
C2813 C2829 1.349 . S
C2814 C2812 1.327 . S
C2814 C2833 1.429 . S
C2814 H2838 0.950 . S
C2815 C2832 1.574 . S
C2815 C2834 1.368 . S
C2815 H2839 0.949 . S
H2816 C2820 0.949 . S
C2817 C2818 1.349 . S
C2817 C2819 1.327 . S
C2817 H2840 0.950 . S
C2818 C2817 1.349 . S
C2818 C2830 1.349 . S
C2819 C2817 1.327 . S
C2819 C2835 1.429 . S
C2819 H2841 0.950 . S
C2820 H2816 0.949 . S
C2820 C2828 1.574 . S
C2820 C2836 1.368 . S
H2821 C2829 0.950 . S
H2822 C2827 0.950 . S
H2823 C2828 0.949 . S
H2824 C2830 0.950 . S
H2825 C2831 0.950 . S
H2826 C2832 0.949 . S
C2827 H2822 0.950 . S
C2827 C2829 1.327 . S
C2827 C2833 1.429 . S
C2828 C2820 1.574 . S
C2828 H2823 0.949 . S
C2828 C2834 1.368 . S
C2829 C2813 1.349 . S
C2829 H2821 0.950 . S
C2829 C2827 1.327 . S
C2830 C2818 1.349 . S
C2830 H2824 0.950 . S
C2830 C2831 1.327 . S
C2831 H2825 0.950 . S
C2831 C2830 1.327 . S
C2831 C2835 1.429 . S
C2832 C2815 1.574 . S
C2832 H2826 0.949 . S
C2832 C2836 1.368 . S
C2833 C2814 1.429 . S
C2833 C2827 1.429 . S
C2833 C2834 1.523 . S
C2834 C2815 1.368 . S
C2834 C2828 1.368 . S
C2834 C2833 1.523 . S
C2835 C2819 1.429 . S
C2835 C2831 1.429 . S
C2835 C2836 1.523 . S
C2836 C2820 1.368 . S
C2836 C2832 1.368 . S
C2836 C2835 1.523 . S
H2837 C2812 0.950 . S
H2838 C2814 0.950 . S
H2839 C2815 0.949 . S
H2840 C2817 0.950 . S
H2841 C2819 0.950 . S
C2842 C2843 1.349 . S
C2842 C2844 1.327 . S
C2842 H2867 0.950 . S
C2843 C2842 1.349 . S
C2843 C2859 1.349 . S
C2844 C2842 1.327 . S
C2844 C2863 1.429 . S
C2844 H2868 0.950 . S
C2845 C2862 1.574 . S
C2845 C2864 1.368 . S
C2845 H2869 0.949 . S
H2846 C2850 0.949 . S
C2847 C2848 1.349 . S
C2847 C2849 1.327 . S
C2847 H2870 0.950 . S
C2848 C2847 1.349 . S
C2848 C2860 1.349 . S
C2849 C2847 1.327 . S
C2849 C2865 1.429 . S
C2849 H2871 0.950 . S
C2850 H2846 0.949 . S
C2850 C2858 1.574 . S
C2850 C2866 1.368 . S
H2851 C2859 0.950 . S
H2852 C2857 0.950 . S
H2853 C2858 0.949 . S
H2854 C2860 0.950 . S
H2855 C2861 0.950 . S
H2856 C2862 0.949 . S
C2857 H2852 0.950 . S
C2857 C2859 1.327 . S
C2857 C2863 1.429 . S
C2858 C2850 1.574 . S
C2858 H2853 0.949 . S
C2858 C2864 1.368 . S
C2859 C2843 1.349 . S
C2859 H2851 0.950 . S
C2859 C2857 1.327 . S
C2860 C2848 1.349 . S
C2860 H2854 0.950 . S
C2860 C2861 1.327 . S
C2861 H2855 0.950 . S
C2861 C2860 1.327 . S
C2861 C2865 1.429 . S
C2862 C2845 1.574 . S
C2862 H2856 0.949 . S
C2862 C2866 1.368 . S
C2863 C2844 1.429 . S
C2863 C2857 1.429 . S
C2863 C2864 1.523 . S
C2864 C2845 1.368 . S
C2864 C2858 1.368 . S
C2864 C2863 1.523 . S
C2865 C2849 1.429 . S
C2865 C2861 1.429 . S
C2865 C2866 1.523 . S
C2866 C2850 1.368 . S
C2866 C2862 1.368 . S
C2866 C2865 1.523 . S
H2867 C2842 0.950 . S
H2868 C2844 0.950 . S
H2869 C2845 0.949 . S
H2870 C2847 0.950 . S
H2871 C2849 0.950 . S
C2872 C2873 1.349 . S
C2872 C2874 1.327 . S
C2872 H2897 0.950 . S
C2873 C2872 1.349 . S
C2873 C2889 1.349 . S
C2874 C2872 1.327 . S
C2874 C2893 1.429 . S
C2874 H2898 0.950 . S
C2875 C2892 1.574 . S
C2875 C2894 1.368 . S
C2875 H2899 0.949 . S
H2876 C2880 0.949 . S
C2877 C2878 1.349 . S
C2877 C2879 1.327 . S
C2877 H2900 0.950 . S
C2878 C2877 1.349 . S
C2878 C2890 1.349 . S
C2879 C2877 1.327 . S
C2879 C2895 1.429 . S
C2879 H2901 0.950 . S
C2880 H2876 0.949 . S
C2880 C2888 1.574 . S
C2880 C2896 1.368 . S
H2881 C2889 0.950 . S
H2882 C2887 0.950 . S
H2883 C2888 0.949 . S
H2884 C2890 0.950 . S
H2885 C2891 0.950 . S
H2886 C2892 0.949 . S
C2887 H2882 0.950 . S
C2887 C2889 1.327 . S
C2887 C2893 1.429 . S
C2888 C2880 1.574 . S
C2888 H2883 0.949 . S
C2888 C2894 1.368 . S
C2889 C2873 1.349 . S
C2889 H2881 0.950 . S
C2889 C2887 1.327 . S
C2890 C2878 1.349 . S
C2890 H2884 0.950 . S
C2890 C2891 1.327 . S
C2891 H2885 0.950 . S
C2891 C2890 1.327 . S
C2891 C2895 1.429 . S
C2892 C2875 1.574 . S
C2892 H2886 0.949 . S
C2892 C2896 1.368 . S
C2893 C2874 1.429 . S
C2893 C2887 1.429 . S
C2893 C2894 1.523 . S
C2894 C2875 1.368 . S
C2894 C2888 1.368 . S
C2894 C2893 1.523 . S
C2895 C2879 1.429 . S
C2895 C2891 1.429 . S
C2895 C2896 1.523 . S
C2896 C2880 1.368 . S
C2896 C2892 1.368 . S
C2896 C2895 1.523 . S
H2897 C2872 0.950 . S
H2898 C2874 0.950 . S
H2899 C2875 0.949 . S
H2900 C2877 0.950 . S
H2901 C2879 0.950 . S
C2902 C2903 1.349 . S
C2902 C2904 1.327 . S
C2902 H2927 0.950 . S
C2903 C2902 1.349 . S
C2903 C2919 1.349 . S
C2904 C2902 1.327 . S
C2904 C2923 1.429 . S
C2904 H2928 0.950 . S
C2905 C2922 1.574 . S
C2905 C2924 1.368 . S
C2905 H2929 0.949 . S
H2906 C2910 0.949 . S
C2907 C2908 1.349 . S
C2907 C2909 1.327 . S
C2907 H2930 0.950 . S
C2908 C2907 1.349 . S
C2908 C2920 1.349 . S
C2909 C2907 1.327 . S
C2909 C2925 1.429 . S
C2909 H2931 0.950 . S
C2910 H2906 0.949 . S
C2910 C2918 1.574 . S
C2910 C2926 1.368 . S
H2911 C2919 0.950 . S
H2912 C2917 0.950 . S
H2913 C2918 0.949 . S
H2914 C2920 0.950 . S
H2915 C2921 0.950 . S
H2916 C2922 0.949 . S
C2917 H2912 0.950 . S
C2917 C2919 1.327 . S
C2917 C2923 1.429 . S
C2918 C2910 1.574 . S
C2918 H2913 0.949 . S
C2918 C2924 1.368 . S
C2919 C2903 1.349 . S
C2919 H2911 0.950 . S
C2919 C2917 1.327 . S
C2920 C2908 1.349 . S
C2920 H2914 0.950 . S
C2920 C2921 1.327 . S
C2921 H2915 0.950 . S
C2921 C2920 1.327 . S
C2921 C2925 1.429 . S
C2922 C2905 1.574 . S
C2922 H2916 0.949 . S
C2922 C2926 1.368 . S
C2923 C2904 1.429 . S
C2923 C2917 1.429 . S
C2923 C2924 1.523 . S
C2924 C2905 1.368 . S
C2924 C2918 1.368 . S
C2924 C2923 1.523 . S
C2925 C2909 1.429 . S
C2925 C2921 1.429 . S
C2925 C2926 1.523 . S
C2926 C2910 1.368 . S
C2926 C2922 1.368 . S
C2926 C2925 1.523 . S
H2927 C2902 0.950 . S
H2928 C2904 0.950 . S
H2929 C2905 0.949 . S
H2930 C2907 0.950 . S
H2931 C2909 0.950 . S
C2932 C2933 1.349 . S
C2932 C2934 1.327 . S
C2932 H2957 0.950 . S
C2933 C2932 1.349 . S
C2933 C2949 1.349 . S
C2934 C2932 1.327 . S
C2934 C2953 1.429 . S
C2934 H2958 0.950 . S
C2935 C2952 1.574 . S
C2935 C2954 1.368 . S
C2935 H2959 0.949 . S
H2936 C2940 0.949 . S
C2937 C2938 1.349 . S
C2937 C2939 1.327 . S
C2937 H2960 0.950 . S
C2938 C2937 1.349 . S
C2938 C2950 1.349 . S
C2939 C2937 1.327 . S
C2939 C2955 1.429 . S
C2939 H2961 0.950 . S
C2940 H2936 0.949 . S
C2940 C2948 1.574 . S
C2940 C2956 1.368 . S
H2941 C2949 0.950 . S
H2942 C2947 0.950 . S
H2943 C2948 0.949 . S
H2944 C2950 0.950 . S
H2945 C2951 0.950 . S
H2946 C2952 0.949 . S
C2947 H2942 0.950 . S
C2947 C2949 1.327 . S
C2947 C2953 1.429 . S
C2948 C2940 1.574 . S
C2948 H2943 0.949 . S
C2948 C2954 1.368 . S
C2949 C2933 1.349 . S
C2949 H2941 0.950 . S
C2949 C2947 1.327 . S
C2950 C2938 1.349 . S
C2950 H2944 0.950 . S
C2950 C2951 1.327 . S
C2951 H2945 0.950 . S
C2951 C2950 1.327 . S
C2951 C2955 1.429 . S
C2952 C2935 1.574 . S
C2952 H2946 0.949 . S
C2952 C2956 1.368 . S
C2953 C2934 1.429 . S
C2953 C2947 1.429 . S
C2953 C2954 1.523 . S
C2954 C2935 1.368 . S
C2954 C2948 1.368 . S
C2954 C2953 1.523 . S
C2955 C2939 1.429 . S
C2955 C2951 1.429 . S
C2955 C2956 1.523 . S
C2956 C2940 1.368 . S
C2956 C2952 1.368 . S
C2956 C2955 1.523 . S
H2957 C2932 0.950 . S
H2958 C2934 0.950 . S
H2959 C2935 0.949 . S
H2960 C2937 0.950 . S
H2961 C2939 0.950 . S
C2962 C2963 1.349 . S
C2962 C2964 1.327 . S
C2962 H2987 0.950 1_554 S
C2963 C2962 1.349 . S
C2963 C2979 1.349 . S
C2964 C2962 1.327 . S
C2964 C2983 1.429 . S
C2964 H2988 0.950 1_554 S
C2965 C2982 1.574 . S
C2965 C2984 1.368 . S
C2965 H2989 0.949 . S
H2966 C2970 0.949 1_545 S
C2967 C2968 1.349 . S
C2967 C2969 1.327 . S
C2967 H2990 0.950 . S
C2968 C2967 1.349 . S
C2968 C2980 1.349 1_554 S
C2969 C2967 1.327 . S
C2969 C2985 1.429 . S
C2969 H2991 0.950 1_545 S
C2970 H2966 0.949 1_565 S
C2970 C2978 1.577 . S
C2970 C2986 1.368 1_556 S
H2971 C2979 0.950 . S
H2972 C2977 0.950 . S
H2973 C2978 0.954 . S
H2974 C2980 0.950 . S
H2975 C2981 0.950 . S
H2976 C2982 0.949 . S
C2977 H2972 0.950 . S
C2977 C2979 1.327 . S
C2977 C2983 1.429 . S
C2978 C2970 1.577 . S
C2978 H2973 0.954 . S
C2978 C2984 1.360 1_556 S
C2979 C2963 1.349 . S
C2979 H2971 0.950 . S
C2979 C2977 1.327 . S
C2980 C2968 1.349 1_556 S
C2980 H2974 0.950 . S
C2980 C2981 1.327 . S
C2981 H2975 0.950 . S
C2981 C2980 1.327 . S
C2981 C2985 1.429 1_556 S
C2982 C2965 1.574 . S
C2982 H2976 0.949 . S
C2982 C2986 1.368 . S
C2983 C2964 1.429 . S
C2983 C2977 1.429 . S
C2983 C2984 1.523 . S
C2984 C2965 1.368 . S
C2984 C2978 1.360 1_554 S
C2984 C2983 1.523 . S
C2985 C2969 1.429 . S
C2985 C2981 1.429 1_554 S
C2985 C2986 1.523 1_545 S
C2986 C2970 1.368 1_554 S
C2986 C2982 1.368 . S
C2986 C2985 1.523 1_565 S
H2987 C2962 0.950 1_556 S
H2988 C2964 0.950 1_556 S
H2989 C2965 0.949 . S
H2990 C2967 0.950 . S
H2991 C2969 0.950 1_565 S
C2992 C2993 1.349 . S
C2992 C2994 1.327 . S
C2992 H3017 0.950 . S
C2993 C2992 1.349 . S
C2993 C3009 1.349 . S
C2994 C2992 1.327 . S
C2994 C3013 1.429 . S
C2994 H3018 0.950 . S
C2995 C3012 1.574 . S
C2995 C3014 1.368 . S
C2995 H3019 0.949 . S
H2996 C3000 0.949 . S
C2997 C2998 1.349 . S
C2997 C2999 1.327 . S
C2997 H3020 0.950 . S
C2998 C2997 1.349 . S
C2998 C3010 1.349 . S
C2999 C2997 1.327 . S
C2999 C3015 1.429 . S
C2999 H3021 0.950 . S
C3000 H2996 0.949 . S
C3000 C3008 1.574 . S
C3000 C3016 1.368 . S
H3001 C3009 0.950 . S
H3002 C3007 0.950 . S
H3003 C3008 0.949 . S
H3004 C3010 0.950 . S
H3005 C3011 0.950 . S
H3006 C3012 0.949 . S
C3007 H3002 0.950 . S
C3007 C3009 1.327 . S
C3007 C3013 1.429 . S
C3008 C3000 1.574 . S
C3008 H3003 0.949 . S
C3008 C3014 1.368 . S
C3009 C2993 1.349 . S
C3009 H3001 0.950 . S
C3009 C3007 1.327 . S
C3010 C2998 1.349 . S
C3010 H3004 0.950 . S
C3010 C3011 1.327 . S
C3011 H3005 0.950 . S
C3011 C3010 1.327 . S
C3011 C3015 1.429 . S
C3012 C2995 1.574 . S
C3012 H3006 0.949 . S
C3012 C3016 1.368 . S
C3013 C2994 1.429 . S
C3013 C3007 1.429 . S
C3013 C3014 1.523 . S
C3014 C2995 1.368 . S
C3014 C3008 1.368 . S
C3014 C3013 1.523 . S
C3015 C2999 1.429 . S
C3015 C3011 1.429 . S
C3015 C3016 1.523 . S
C3016 C3000 1.368 . S
C3016 C3012 1.368 . S
C3016 C3015 1.523 . S
H3017 C2992 0.950 . S
H3018 C2994 0.950 . S
H3019 C2995 0.949 . S
H3020 C2997 0.950 . S
H3021 C2999 0.950 . S
C3022 C3023 1.349 . S
C3022 C3024 1.327 . S
C3022 H3047 0.950 . S
C3023 C3022 1.349 . S
C3023 C3039 1.349 . S
C3024 C3022 1.327 . S
C3024 C3043 1.429 . S
C3024 H3048 0.950 . S
C3025 C3042 1.574 . S
C3025 C3044 1.368 . S
C3025 H3049 0.949 . S
H3026 C3030 0.949 . S
C3027 C3028 1.349 . S
C3027 C3029 1.327 . S
C3027 H3050 0.950 . S
C3028 C3027 1.349 . S
C3028 C3040 1.349 . S
C3029 C3027 1.327 . S
C3029 C3045 1.429 . S
C3029 H3051 0.950 . S
C3030 H3026 0.949 . S
C3030 C3038 1.574 . S
C3030 C3046 1.368 . S
H3031 C3039 0.950 . S
H3032 C3037 0.950 . S
H3033 C3038 0.949 . S
H3034 C3040 0.950 . S
H3035 C3041 0.950 . S
H3036 C3042 0.949 . S
C3037 H3032 0.950 . S
C3037 C3039 1.327 . S
C3037 C3043 1.429 . S
C3038 C3030 1.574 . S
C3038 H3033 0.949 . S
C3038 C3044 1.368 . S
C3039 C3023 1.349 . S
C3039 H3031 0.950 . S
C3039 C3037 1.327 . S
C3040 C3028 1.349 . S
C3040 H3034 0.950 . S
C3040 C3041 1.327 . S
C3041 H3035 0.950 . S
C3041 C3040 1.327 . S
C3041 C3045 1.429 . S
C3042 C3025 1.574 . S
C3042 H3036 0.949 . S
C3042 C3046 1.368 . S
C3043 C3024 1.429 . S
C3043 C3037 1.429 . S
C3043 C3044 1.523 . S
C3044 C3025 1.368 . S
C3044 C3038 1.368 . S
C3044 C3043 1.523 . S
C3045 C3029 1.429 . S
C3045 C3041 1.429 . S
C3045 C3046 1.523 . S
C3046 C3030 1.368 . S
C3046 C3042 1.368 . S
C3046 C3045 1.523 . S
H3047 C3022 0.950 . S
H3048 C3024 0.950 . S
H3049 C3025 0.949 . S
H3050 C3027 0.950 . S
H3051 C3029 0.950 . S
C3052 C3053 1.349 . S
C3052 C3054 1.327 . S
C3052 H3077 0.950 . S
C3053 C3052 1.349 . S
C3053 C3069 1.349 . S
C3054 C3052 1.327 . S
C3054 C3073 1.429 . S
C3054 H3078 0.950 . S
C3055 C3072 1.574 . S
C3055 C3074 1.368 . S
C3055 H3079 0.949 . S
H3056 C3060 0.949 . S
C3057 C3058 1.349 . S
C3057 C3059 1.327 . S
C3057 H3080 0.950 . S
C3058 C3057 1.349 . S
C3058 C3070 1.349 . S
C3059 C3057 1.327 . S
C3059 C3075 1.429 . S
C3059 H3081 0.950 . S
C3060 H3056 0.949 . S
C3060 C3068 1.574 . S
C3060 C3076 1.368 . S
H3061 C3069 0.950 . S
H3062 C3067 0.950 . S
H3063 C3068 0.949 . S
H3064 C3070 0.950 . S
H3065 C3071 0.950 . S
H3066 C3072 0.949 . S
C3067 H3062 0.950 . S
C3067 C3069 1.327 . S
C3067 C3073 1.429 . S
C3068 C3060 1.574 . S
C3068 H3063 0.949 . S
C3068 C3074 1.368 . S
C3069 C3053 1.349 . S
C3069 H3061 0.950 . S
C3069 C3067 1.327 . S
C3070 C3058 1.349 . S
C3070 H3064 0.950 . S
C3070 C3071 1.327 . S
C3071 H3065 0.950 . S
C3071 C3070 1.327 . S
C3071 C3075 1.429 . S
C3072 C3055 1.574 . S
C3072 H3066 0.949 . S
C3072 C3076 1.368 . S
C3073 C3054 1.429 . S
C3073 C3067 1.429 . S
C3073 C3074 1.523 . S
C3074 C3055 1.368 . S
C3074 C3068 1.368 . S
C3074 C3073 1.523 . S
C3075 C3059 1.429 . S
C3075 C3071 1.429 . S
C3075 C3076 1.523 . S
C3076 C3060 1.368 . S
C3076 C3072 1.368 . S
C3076 C3075 1.523 . S
H3077 C3052 0.950 . S
H3078 C3054 0.950 . S
H3079 C3055 0.949 . S
H3080 C3057 0.950 . S
H3081 C3059 0.950 . S
C3082 C3083 1.349 . S
C3082 C3084 1.327 . S
C3082 H3107 0.950 . S
C3083 C3082 1.349 . S
C3083 C3099 1.349 . S
C3084 C3082 1.327 . S
C3084 C3103 1.429 . S
C3084 H3108 0.950 . S
C3085 C3102 1.574 . S
C3085 C3104 1.368 . S
C3085 H3109 0.949 . S
H3086 C3090 0.949 . S
C3087 C3088 1.349 . S
C3087 C3089 1.327 . S
C3087 H3110 0.950 . S
C3088 C3087 1.349 . S
C3088 C3100 1.349 . S
C3089 C3087 1.327 . S
C3089 C3105 1.429 . S
C3089 H3111 0.950 . S
C3090 H3086 0.949 . S
C3090 C3098 1.574 . S
C3090 C3106 1.368 . S
H3091 C3099 0.950 . S
H3092 C3097 0.950 . S
H3093 C3098 0.949 . S
H3094 C3100 0.950 . S
H3095 C3101 0.950 . S
H3096 C3102 0.949 . S
C3097 H3092 0.950 . S
C3097 C3099 1.327 . S
C3097 C3103 1.429 . S
C3098 C3090 1.574 . S
C3098 H3093 0.949 . S
C3098 C3104 1.368 . S
C3099 C3083 1.349 . S
C3099 H3091 0.950 . S
C3099 C3097 1.327 . S
C3100 C3088 1.349 . S
C3100 H3094 0.950 . S
C3100 C3101 1.327 . S
C3101 H3095 0.950 . S
C3101 C3100 1.327 . S
C3101 C3105 1.429 . S
C3102 C3085 1.574 . S
C3102 H3096 0.949 . S
C3102 C3106 1.368 . S
C3103 C3084 1.429 . S
C3103 C3097 1.429 . S
C3103 C3104 1.523 . S
C3104 C3085 1.368 . S
C3104 C3098 1.368 . S
C3104 C3103 1.523 . S
C3105 C3089 1.429 . S
C3105 C3101 1.429 . S
C3105 C3106 1.523 . S
C3106 C3090 1.368 . S
C3106 C3102 1.368 . S
C3106 C3105 1.523 . S
H3107 C3082 0.950 . S
H3108 C3084 0.950 . S
H3109 C3085 0.949 . S
H3110 C3087 0.950 . S
H3111 C3089 0.950 . S
C3112 C3113 1.349 . S
C3112 C3114 1.327 . S
C3112 H3137 0.950 . S
C3113 C3112 1.349 . S
C3113 C3129 1.349 . S
C3114 C3112 1.327 . S
C3114 C3133 1.429 . S
C3114 H3138 0.950 . S
C3115 C3132 1.574 . S
C3115 C3134 1.368 . S
C3115 H3139 0.949 . S
H3116 C3120 0.949 . S
C3117 C3118 1.349 . S
C3117 C3119 1.327 . S
C3117 H3140 0.950 . S
C3118 C3117 1.349 . S
C3118 C3130 1.349 . S
C3119 C3117 1.327 . S
C3119 C3135 1.429 . S
C3119 H3141 0.950 . S
C3120 H3116 0.949 . S
C3120 C3128 1.574 . S
C3120 C3136 1.368 . S
H3121 C3129 0.950 . S
H3122 C3127 0.950 . S
H3123 C3128 0.949 . S
H3124 C3130 0.950 . S
H3125 C3131 0.950 . S
H3126 C3132 0.949 . S
C3127 H3122 0.950 . S
C3127 C3129 1.327 . S
C3127 C3133 1.429 . S
C3128 C3120 1.574 . S
C3128 H3123 0.949 . S
C3128 C3134 1.368 . S
C3129 C3113 1.349 . S
C3129 H3121 0.950 . S
C3129 C3127 1.327 . S
C3130 C3118 1.349 . S
C3130 H3124 0.950 . S
C3130 C3131 1.327 . S
C3131 H3125 0.950 . S
C3131 C3130 1.327 . S
C3131 C3135 1.429 . S
C3132 C3115 1.574 . S
C3132 H3126 0.949 . S
C3132 C3136 1.368 . S
C3133 C3114 1.429 . S
C3133 C3127 1.429 . S
C3133 C3134 1.523 . S
C3134 C3115 1.368 . S
C3134 C3128 1.368 . S
C3134 C3133 1.523 . S
C3135 C3119 1.429 . S
C3135 C3131 1.429 . S
C3135 C3136 1.523 . S
C3136 C3120 1.368 . S
C3136 C3132 1.368 . S
C3136 C3135 1.523 . S
H3137 C3112 0.950 . S
H3138 C3114 0.950 . S
H3139 C3115 0.949 . S
H3140 C3117 0.950 . S
H3141 C3119 0.950 . S
C3142 C3143 1.349 . S
C3142 C3144 1.327 . S
C3142 H3167 0.950 . S
C3143 C3142 1.349 . S
C3143 C3159 1.349 . S
C3144 C3142 1.327 . S
C3144 C3163 1.429 . S
C3144 H3168 0.950 . S
C3145 C3162 1.574 . S
C3145 C3164 1.368 . S
C3145 H3169 0.949 . S
H3146 C3150 0.949 . S
C3147 C3148 1.349 . S
C3147 C3149 1.327 . S
C3147 H3170 0.950 . S
C3148 C3147 1.349 . S
C3148 C3160 1.349 . S
C3149 C3147 1.327 . S
C3149 C3165 1.429 . S
C3149 H3171 0.950 . S
C3150 H3146 0.949 . S
C3150 C3158 1.574 . S
C3150 C3166 1.368 . S
H3151 C3159 0.950 . S
H3152 C3157 0.950 . S
H3153 C3158 0.949 . S
H3154 C3160 0.950 . S
H3155 C3161 0.950 . S
H3156 C3162 0.949 . S
C3157 H3152 0.950 . S
C3157 C3159 1.327 . S
C3157 C3163 1.429 . S
C3158 C3150 1.574 . S
C3158 H3153 0.949 . S
C3158 C3164 1.368 . S
C3159 C3143 1.349 . S
C3159 H3151 0.950 . S
C3159 C3157 1.327 . S
C3160 C3148 1.349 . S
C3160 H3154 0.950 . S
C3160 C3161 1.327 . S
C3161 H3155 0.950 . S
C3161 C3160 1.327 . S
C3161 C3165 1.429 . S
C3162 C3145 1.574 . S
C3162 H3156 0.949 . S
C3162 C3166 1.368 . S
C3163 C3144 1.429 . S
C3163 C3157 1.429 . S
C3163 C3164 1.523 . S
C3164 C3145 1.368 . S
C3164 C3158 1.368 . S
C3164 C3163 1.523 . S
C3165 C3149 1.429 . S
C3165 C3161 1.429 . S
C3165 C3166 1.523 . S
C3166 C3150 1.368 . S
C3166 C3162 1.368 . S
C3166 C3165 1.523 . S
H3167 C3142 0.950 . S
H3168 C3144 0.950 . S
H3169 C3145 0.949 . S
H3170 C3147 0.950 . S
H3171 C3149 0.950 . S
C3172 C3173 1.349 . S
C3172 C3174 1.327 . S
C3172 H3197 0.950 . S
C3173 C3172 1.349 . S
C3173 C3189 1.349 . S
C3174 C3172 1.327 . S
C3174 C3193 1.429 . S
C3174 H3198 0.950 . S
C3175 C3192 1.574 . S
C3175 C3194 1.368 . S
C3175 H3199 0.949 . S
H3176 C3180 0.949 . S
C3177 C3178 1.349 . S
C3177 C3179 1.327 . S
C3177 H3200 0.950 . S
C3178 C3177 1.349 . S
C3178 C3190 1.349 . S
C3179 C3177 1.327 . S
C3179 C3195 1.429 . S
C3179 H3201 0.950 . S
C3180 H3176 0.949 . S
C3180 C3188 1.574 . S
C3180 C3196 1.368 . S
H3181 C3189 0.950 . S
H3182 C3187 0.950 . S
H3183 C3188 0.949 . S
H3184 C3190 0.950 . S
H3185 C3191 0.950 . S
H3186 C3192 0.949 . S
C3187 H3182 0.950 . S
C3187 C3189 1.327 . S
C3187 C3193 1.429 . S
C3188 C3180 1.574 . S
C3188 H3183 0.949 . S
C3188 C3194 1.368 . S
C3189 C3173 1.349 . S
C3189 H3181 0.950 . S
C3189 C3187 1.327 . S
C3190 C3178 1.349 . S
C3190 H3184 0.950 . S
C3190 C3191 1.327 . S
C3191 H3185 0.950 . S
C3191 C3190 1.327 . S
C3191 C3195 1.429 . S
C3192 C3175 1.574 . S
C3192 H3186 0.949 . S
C3192 C3196 1.368 . S
C3193 C3174 1.429 . S
C3193 C3187 1.429 . S
C3193 C3194 1.523 . S
C3194 C3175 1.368 . S
C3194 C3188 1.368 . S
C3194 C3193 1.523 . S
C3195 C3179 1.429 . S
C3195 C3191 1.429 . S
C3195 C3196 1.523 . S
C3196 C3180 1.368 . S
C3196 C3192 1.368 . S
C3196 C3195 1.523 . S
H3197 C3172 0.950 . S
H3198 C3174 0.950 . S
H3199 C3175 0.949 . S
H3200 C3177 0.950 . S
H3201 C3179 0.950 . S
C3202 C3203 1.349 . S
C3202 C3204 1.327 . S
C3202 H3227 0.950 . S
C3203 C3202 1.349 . S
C3203 C3219 1.349 . S
C3204 C3202 1.327 . S
C3204 C3223 1.429 . S
C3204 H3228 0.950 . S
C3205 C3222 1.574 . S
C3205 C3224 1.368 . S
C3205 H3229 0.949 . S
H3206 C3210 0.949 . S
C3207 C3208 1.349 . S
C3207 C3209 1.327 . S
C3207 H3230 0.950 . S
C3208 C3207 1.349 . S
C3208 C3220 1.349 . S
C3209 C3207 1.327 . S
C3209 C3225 1.429 . S
C3209 H3231 0.950 . S
C3210 H3206 0.949 . S
C3210 C3218 1.574 . S
C3210 C3226 1.368 . S
H3211 C3219 0.950 . S
H3212 C3217 0.950 . S
H3213 C3218 0.949 . S
H3214 C3220 0.950 . S
H3215 C3221 0.950 . S
H3216 C3222 0.949 . S
C3217 H3212 0.950 . S
C3217 C3219 1.327 . S
C3217 C3223 1.429 . S
C3218 C3210 1.574 . S
C3218 H3213 0.949 . S
C3218 C3224 1.368 . S
C3219 C3203 1.349 . S
C3219 H3211 0.950 . S
C3219 C3217 1.327 . S
C3220 C3208 1.349 . S
C3220 H3214 0.950 . S
C3220 C3221 1.327 . S
C3221 H3215 0.950 . S
C3221 C3220 1.327 . S
C3221 C3225 1.429 . S
C3222 C3205 1.574 . S
C3222 H3216 0.949 . S
C3222 C3226 1.368 . S
C3223 C3204 1.429 . S
C3223 C3217 1.429 . S
C3223 C3224 1.523 . S
C3224 C3205 1.368 . S
C3224 C3218 1.368 . S
C3224 C3223 1.523 . S
C3225 C3209 1.429 . S
C3225 C3221 1.429 . S
C3225 C3226 1.523 . S
C3226 C3210 1.368 . S
C3226 C3222 1.368 . S
C3226 C3225 1.523 . S
H3227 C3202 0.950 . S
H3228 C3204 0.950 . S
H3229 C3205 0.949 . S
H3230 C3207 0.950 . S
H3231 C3209 0.950 . S
C3232 C3233 1.349 . S
C3232 C3234 1.327 . S
C3232 H3257 0.950 . S
C3233 C3232 1.349 . S
C3233 C3249 1.349 . S
C3234 C3232 1.327 . S
C3234 C3253 1.429 . S
C3234 H3258 0.950 . S
C3235 C3252 1.574 . S
C3235 C3254 1.368 . S
C3235 H3259 0.949 . S
H3236 C3240 0.949 . S
C3237 C3238 1.349 . S
C3237 C3239 1.327 . S
C3237 H3260 0.950 . S
C3238 C3237 1.349 . S
C3238 C3250 1.349 . S
C3239 C3237 1.327 . S
C3239 C3255 1.429 . S
C3239 H3261 0.950 . S
C3240 H3236 0.949 . S
C3240 C3248 1.574 . S
C3240 C3256 1.368 . S
H3241 C3249 0.950 . S
H3242 C3247 0.950 . S
H3243 C3248 0.949 . S
H3244 C3250 0.950 . S
H3245 C3251 0.950 . S
H3246 C3252 0.949 . S
C3247 H3242 0.950 . S
C3247 C3249 1.327 . S
C3247 C3253 1.429 . S
C3248 C3240 1.574 . S
C3248 H3243 0.949 . S
C3248 C3254 1.368 . S
C3249 C3233 1.349 . S
C3249 H3241 0.950 . S
C3249 C3247 1.327 . S
C3250 C3238 1.349 . S
C3250 H3244 0.950 . S
C3250 C3251 1.327 . S
C3251 H3245 0.950 . S
C3251 C3250 1.327 . S
C3251 C3255 1.429 . S
C3252 C3235 1.574 . S
C3252 H3246 0.949 . S
C3252 C3256 1.368 . S
C3253 C3234 1.429 . S
C3253 C3247 1.429 . S
C3253 C3254 1.523 . S
C3254 C3235 1.368 . S
C3254 C3248 1.368 . S
C3254 C3253 1.523 . S
C3255 C3239 1.429 . S
C3255 C3251 1.429 . S
C3255 C3256 1.523 . S
C3256 C3240 1.368 . S
C3256 C3252 1.368 . S
C3256 C3255 1.523 . S
H3257 C3232 0.950 . S
H3258 C3234 0.950 . S
H3259 C3235 0.949 . S
H3260 C3237 0.950 . S
H3261 C3239 0.950 . S
C3262 C3263 1.349 . S
C3262 C3264 1.327 . S
C3262 H3287 0.950 . S
C3263 C3262 1.349 . S
C3263 C3279 1.349 . S
C3264 C3262 1.327 . S
C3264 C3283 1.429 . S
C3264 H3288 0.950 . S
C3265 C3282 1.574 . S
C3265 C3284 1.368 . S
C3265 H3289 0.949 . S
H3266 C3270 0.949 . S
C3267 C3268 1.349 . S
C3267 C3269 1.327 . S
C3267 H3290 0.950 . S
C3268 C3267 1.349 . S
C3268 C3280 1.349 . S
C3269 C3267 1.327 . S
C3269 C3285 1.429 . S
C3269 H3291 0.950 . S
C3270 H3266 0.949 . S
C3270 C3278 1.574 . S
C3270 C3286 1.368 . S
H3271 C3279 0.950 . S
H3272 C3277 0.950 . S
H3273 C3278 0.949 . S
H3274 C3280 0.950 . S
H3275 C3281 0.950 . S
H3276 C3282 0.949 . S
C3277 H3272 0.950 . S
C3277 C3279 1.327 . S
C3277 C3283 1.429 . S
C3278 C3270 1.574 . S
C3278 H3273 0.949 . S
C3278 C3284 1.368 . S
C3279 C3263 1.349 . S
C3279 H3271 0.950 . S
C3279 C3277 1.327 . S
C3280 C3268 1.349 . S
C3280 H3274 0.950 . S
C3280 C3281 1.327 . S
C3281 H3275 0.950 . S
C3281 C3280 1.327 . S
C3281 C3285 1.429 . S
C3282 C3265 1.574 . S
C3282 H3276 0.949 . S
C3282 C3286 1.368 . S
C3283 C3264 1.429 . S
C3283 C3277 1.429 . S
C3283 C3284 1.523 . S
C3284 C3265 1.368 . S
C3284 C3278 1.368 . S
C3284 C3283 1.523 . S
C3285 C3269 1.429 . S
C3285 C3281 1.429 . S
C3285 C3286 1.523 . S
C3286 C3270 1.368 . S
C3286 C3282 1.368 . S
C3286 C3285 1.523 . S
H3287 C3262 0.950 . S
H3288 C3264 0.950 . S
H3289 C3265 0.949 . S
H3290 C3267 0.950 . S
H3291 C3269 0.950 . S
C3292 C3293 1.349 . S
C3292 C3294 1.327 . S
C3292 H3317 0.950 . S
C3293 C3292 1.349 . S
C3293 C3309 1.349 . S
C3294 C3292 1.327 . S
C3294 C3313 1.429 . S
C3294 H3318 0.950 . S
C3295 C3312 1.574 . S
C3295 C3314 1.368 . S
C3295 H3319 0.949 . S
H3296 C3300 0.949 . S
C3297 C3298 1.349 . S
C3297 C3299 1.327 . S
C3297 H3320 0.950 . S
C3298 C3297 1.349 . S
C3298 C3310 1.349 . S
C3299 C3297 1.327 . S
C3299 C3315 1.429 . S
C3299 H3321 0.950 . S
C3300 H3296 0.949 . S
C3300 C3308 1.574 . S
C3300 C3316 1.368 . S
H3301 C3309 0.950 . S
H3302 C3307 0.950 . S
H3303 C3308 0.949 . S
H3304 C3310 0.950 . S
H3305 C3311 0.950 . S
H3306 C3312 0.949 . S
C3307 H3302 0.950 . S
C3307 C3309 1.327 . S
C3307 C3313 1.429 . S
C3308 C3300 1.574 . S
C3308 H3303 0.949 . S
C3308 C3314 1.368 . S
C3309 C3293 1.349 . S
C3309 H3301 0.950 . S
C3309 C3307 1.327 . S
C3310 C3298 1.349 . S
C3310 H3304 0.950 . S
C3310 C3311 1.327 . S
C3311 H3305 0.950 . S
C3311 C3310 1.327 . S
C3311 C3315 1.429 . S
C3312 C3295 1.574 . S
C3312 H3306 0.949 . S
C3312 C3316 1.368 . S
C3313 C3294 1.429 . S
C3313 C3307 1.429 . S
C3313 C3314 1.523 . S
C3314 C3295 1.368 . S
C3314 C3308 1.368 . S
C3314 C3313 1.523 . S
C3315 C3299 1.429 . S
C3315 C3311 1.429 . S
C3315 C3316 1.523 . S
C3316 C3300 1.368 . S
C3316 C3312 1.368 . S
C3316 C3315 1.523 . S
H3317 C3292 0.950 . S
H3318 C3294 0.950 . S
H3319 C3295 0.949 . S
H3320 C3297 0.950 . S
H3321 C3299 0.950 . S
C3322 C3323 1.349 . S
C3322 C3324 1.327 . S
C3322 H3347 0.950 . S
C3323 C3322 1.349 . S
C3323 C3339 1.349 . S
C3324 C3322 1.327 . S
C3324 C3343 1.429 . S
C3324 H3348 0.950 . S
C3325 C3342 1.574 . S
C3325 C3344 1.368 . S
C3325 H3349 0.949 . S
H3326 C3330 0.949 . S
C3327 C3328 1.349 . S
C3327 C3329 1.327 . S
C3327 H3350 0.950 . S
C3328 C3327 1.349 . S
C3328 C3340 1.349 . S
C3329 C3327 1.327 . S
C3329 C3345 1.429 . S
C3329 H3351 0.950 . S
C3330 H3326 0.949 . S
C3330 C3338 1.574 . S
C3330 C3346 1.368 . S
H3331 C3339 0.950 . S
H3332 C3337 0.950 . S
H3333 C3338 0.949 . S
H3334 C3340 0.950 . S
H3335 C3341 0.950 . S
H3336 C3342 0.949 . S
C3337 H3332 0.950 . S
C3337 C3339 1.327 . S
C3337 C3343 1.429 . S
C3338 C3330 1.574 . S
C3338 H3333 0.949 . S
C3338 C3344 1.368 . S
C3339 C3323 1.349 . S
C3339 H3331 0.950 . S
C3339 C3337 1.327 . S
C3340 C3328 1.349 . S
C3340 H3334 0.950 . S
C3340 C3341 1.327 . S
C3341 H3335 0.950 . S
C3341 C3340 1.327 . S
C3341 C3345 1.429 . S
C3342 C3325 1.574 . S
C3342 H3336 0.949 . S
C3342 C3346 1.368 . S
C3343 C3324 1.429 . S
C3343 C3337 1.429 . S
C3343 C3344 1.523 . S
C3344 C3325 1.368 . S
C3344 C3338 1.368 . S
C3344 C3343 1.523 . S
C3345 C3329 1.429 . S
C3345 C3341 1.429 . S
C3345 C3346 1.523 . S
C3346 C3330 1.368 . S
C3346 C3342 1.368 . S
C3346 C3345 1.523 . S
H3347 C3322 0.950 . S
H3348 C3324 0.950 . S
H3349 C3325 0.949 . S
H3350 C3327 0.950 . S
H3351 C3329 0.950 . S
C3352 C3353 1.349 . S
C3352 C3354 1.327 . S
C3352 H3377 0.950 . S
C3353 C3352 1.349 . S
C3353 C3369 1.349 . S
C3354 C3352 1.327 . S
C3354 C3373 1.429 . S
C3354 H3378 0.950 . S
C3355 C3372 1.574 . S
C3355 C3374 1.368 . S
C3355 H3379 0.949 . S
H3356 C3360 0.949 . S
C3357 C3358 1.349 . S
C3357 C3359 1.327 . S
C3357 H3380 0.950 . S
C3358 C3357 1.349 . S
C3358 C3370 1.349 . S
C3359 C3357 1.327 . S
C3359 C3375 1.429 . S
C3359 H3381 0.950 . S
C3360 H3356 0.949 . S
C3360 C3368 1.574 . S
C3360 C3376 1.368 . S
H3361 C3369 0.950 . S
H3362 C3367 0.950 . S
H3363 C3368 0.949 . S
H3364 C3370 0.950 . S
H3365 C3371 0.950 . S
H3366 C3372 0.949 . S
C3367 H3362 0.950 . S
C3367 C3369 1.327 . S
C3367 C3373 1.429 . S
C3368 C3360 1.574 . S
C3368 H3363 0.949 . S
C3368 C3374 1.368 . S
C3369 C3353 1.349 . S
C3369 H3361 0.950 . S
C3369 C3367 1.327 . S
C3370 C3358 1.349 . S
C3370 H3364 0.950 . S
C3370 C3371 1.327 . S
C3371 H3365 0.950 . S
C3371 C3370 1.327 . S
C3371 C3375 1.429 . S
C3372 C3355 1.574 . S
C3372 H3366 0.949 . S
C3372 C3376 1.368 . S
C3373 C3354 1.429 . S
C3373 C3367 1.429 . S
C3373 C3374 1.523 . S
C3374 C3355 1.368 . S
C3374 C3368 1.368 . S
C3374 C3373 1.523 . S
C3375 C3359 1.429 . S
C3375 C3371 1.429 . S
C3375 C3376 1.523 . S
C3376 C3360 1.368 . S
C3376 C3372 1.368 . S
C3376 C3375 1.523 . S
H3377 C3352 0.950 . S
H3378 C3354 0.950 . S
H3379 C3355 0.949 . S
H3380 C3357 0.950 . S
H3381 C3359 0.950 . S
C3382 C3383 1.349 . S
C3382 C3384 1.327 . S
C3382 H3407 0.950 . S
C3383 C3382 1.349 . S
C3383 C3399 1.349 . S
C3384 C3382 1.327 . S
C3384 C3403 1.429 . S
C3384 H3408 0.950 . S
C3385 C3402 1.574 . S
C3385 C3404 1.368 . S
C3385 H3409 0.949 . S
H3386 C3390 0.949 . S
C3387 C3388 1.349 . S
C3387 C3389 1.327 . S
C3387 H3410 0.950 . S
C3388 C3387 1.349 . S
C3388 C3400 1.349 . S
C3389 C3387 1.327 . S
C3389 C3405 1.429 . S
C3389 H3411 0.950 . S
C3390 H3386 0.949 . S
C3390 C3398 1.574 . S
C3390 C3406 1.368 . S
H3391 C3399 0.950 . S
H3392 C3397 0.950 . S
H3393 C3398 0.949 . S
H3394 C3400 0.950 . S
H3395 C3401 0.950 . S
H3396 C3402 0.949 . S
C3397 H3392 0.950 . S
C3397 C3399 1.327 . S
C3397 C3403 1.429 . S
C3398 C3390 1.574 . S
C3398 H3393 0.949 . S
C3398 C3404 1.368 . S
C3399 C3383 1.349 . S
C3399 H3391 0.950 . S
C3399 C3397 1.327 . S
C3400 C3388 1.349 . S
C3400 H3394 0.950 . S
C3400 C3401 1.327 . S
C3401 H3395 0.950 . S
C3401 C3400 1.327 . S
C3401 C3405 1.429 . S
C3402 C3385 1.574 . S
C3402 H3396 0.949 . S
C3402 C3406 1.368 . S
C3403 C3384 1.429 . S
C3403 C3397 1.429 . S
C3403 C3404 1.523 . S
C3404 C3385 1.368 . S
C3404 C3398 1.368 . S
C3404 C3403 1.523 . S
C3405 C3389 1.429 . S
C3405 C3401 1.429 . S
C3405 C3406 1.523 . S
C3406 C3390 1.368 . S
C3406 C3402 1.368 . S
C3406 C3405 1.523 . S
H3407 C3382 0.950 . S
H3408 C3384 0.950 . S
H3409 C3385 0.949 . S
H3410 C3387 0.950 . S
H3411 C3389 0.950 . S
C3412 C3413 1.349 . S
C3412 C3414 1.327 . S
C3412 H3437 0.950 . S
C3413 C3412 1.349 . S
C3413 C3429 1.349 . S
C3414 C3412 1.327 . S
C3414 C3433 1.429 . S
C3414 H3438 0.950 . S
C3415 C3432 1.574 . S
C3415 C3434 1.368 . S
C3415 H3439 0.949 . S
H3416 C3420 0.949 . S
C3417 C3418 1.349 1_655 S
C3417 C3419 1.327 . S
C3417 H3440 0.950 . S
C3418 C3417 1.349 1_455 S
C3418 C3430 1.349 . S
C3419 C3417 1.327 . S
C3419 C3435 1.429 . S
C3419 H3441 0.950 . S
C3420 H3416 0.949 . S
C3420 C3428 1.574 . S
C3420 C3436 1.368 . S
H3421 C3429 0.950 . S
H3422 C3427 0.950 . S
H3423 C3428 0.949 . S
H3424 C3430 0.950 . S
H3425 C3431 0.950 . S
H3426 C3432 0.949 . S
C3427 H3422 0.950 . S
C3427 C3429 1.327 . S
C3427 C3433 1.429 . S
C3428 C3420 1.574 . S
C3428 H3423 0.949 . S
C3428 C3434 1.368 . S
C3429 C3413 1.349 . S
C3429 H3421 0.950 . S
C3429 C3427 1.327 . S
C3430 C3418 1.349 . S
C3430 H3424 0.950 . S
C3430 C3431 1.327 . S
C3431 H3425 0.950 . S
C3431 C3430 1.327 . S
C3431 C3435 1.429 1_455 S
C3432 C3415 1.574 . S
C3432 H3426 0.949 . S
C3432 C3436 1.368 . S
C3433 C3414 1.429 . S
C3433 C3427 1.429 . S
C3433 C3434 1.523 . S
C3434 C3415 1.368 . S
C3434 C3428 1.368 . S
C3434 C3433 1.523 . S
C3435 C3419 1.429 . S
C3435 C3431 1.429 1_655 S
C3435 C3436 1.523 . S
C3436 C3420 1.368 . S
C3436 C3432 1.368 . S
C3436 C3435 1.523 . S
H3437 C3412 0.950 . S
H3438 C3414 0.950 . S
H3439 C3415 0.949 . S
H3440 C3417 0.950 . S
H3441 C3419 0.950 . S
C3442 C3443 1.349 . S
C3442 C3444 1.327 . S
C3442 H3467 0.950 . S
C3443 C3442 1.349 . S
C3443 C3459 1.349 . S
C3444 C3442 1.327 . S
C3444 C3463 1.429 . S
C3444 H3468 0.950 . S
C3445 C3462 1.574 . S
C3445 C3464 1.368 . S
C3445 H3469 0.949 . S
H3446 C3450 0.949 . S
C3447 C3448 1.349 . S
C3447 C3449 1.327 . S
C3447 H3470 0.950 . S
C3448 C3447 1.349 . S
C3448 C3460 1.349 . S
C3449 C3447 1.327 . S
C3449 C3465 1.429 . S
C3449 H3471 0.950 . S
C3450 H3446 0.949 . S
C3450 C3458 1.574 . S
C3450 C3466 1.368 . S
H3451 C3459 0.950 . S
H3452 C3457 0.950 . S
H3453 C3458 0.949 . S
H3454 C3460 0.950 . S
H3455 C3461 0.950 . S
H3456 C3462 0.949 . S
C3457 H3452 0.950 . S
C3457 C3459 1.327 . S
C3457 C3463 1.429 . S
C3458 C3450 1.574 . S
C3458 H3453 0.949 . S
C3458 C3464 1.368 . S
C3459 C3443 1.349 . S
C3459 H3451 0.950 . S
C3459 C3457 1.327 . S
C3460 C3448 1.349 . S
C3460 H3454 0.950 . S
C3460 C3461 1.327 . S
C3461 H3455 0.950 . S
C3461 C3460 1.327 . S
C3461 C3465 1.429 . S
C3462 C3445 1.574 . S
C3462 H3456 0.949 . S
C3462 C3466 1.368 . S
C3463 C3444 1.429 . S
C3463 C3457 1.429 . S
C3463 C3464 1.523 . S
C3464 C3445 1.368 . S
C3464 C3458 1.368 . S
C3464 C3463 1.523 . S
C3465 C3449 1.429 . S
C3465 C3461 1.429 . S
C3465 C3466 1.523 . S
C3466 C3450 1.368 . S
C3466 C3462 1.368 . S
C3466 C3465 1.523 . S
H3467 C3442 0.950 . S
H3468 C3444 0.950 . S
H3469 C3445 0.949 . S
H3470 C3447 0.950 . S
H3471 C3449 0.950 . S
C3472 C3473 1.349 . S
C3472 C3474 1.327 . S
C3472 H3497 0.950 . S
C3473 C3472 1.349 . S
C3473 C3489 1.349 . S
C3474 C3472 1.327 . S
C3474 C3493 1.429 . S
C3474 H3498 0.950 . S
C3475 C3492 1.574 . S
C3475 C3494 1.368 . S
C3475 H3499 0.949 . S
H3476 C3480 0.949 . S
C3477 C3478 1.349 . S
C3477 C3479 1.327 . S
C3477 H3500 0.950 . S
C3478 C3477 1.349 . S
C3478 C3490 1.349 . S
C3479 C3477 1.327 . S
C3479 C3495 1.429 . S
C3479 H3501 0.950 . S
C3480 H3476 0.949 . S
C3480 C3488 1.574 . S
C3480 C3496 1.368 . S
H3481 C3489 0.950 . S
H3482 C3487 0.950 . S
H3483 C3488 0.949 . S
H3484 C3490 0.950 . S
H3485 C3491 0.950 . S
H3486 C3492 0.949 . S
C3487 H3482 0.950 . S
C3487 C3489 1.327 . S
C3487 C3493 1.429 . S
C3488 C3480 1.574 . S
C3488 H3483 0.949 . S
C3488 C3494 1.368 . S
C3489 C3473 1.349 . S
C3489 H3481 0.950 . S
C3489 C3487 1.327 . S
C3490 C3478 1.349 . S
C3490 H3484 0.950 . S
C3490 C3491 1.327 . S
C3491 H3485 0.950 . S
C3491 C3490 1.327 . S
C3491 C3495 1.429 . S
C3492 C3475 1.574 . S
C3492 H3486 0.949 . S
C3492 C3496 1.368 . S
C3493 C3474 1.429 . S
C3493 C3487 1.429 . S
C3493 C3494 1.523 . S
C3494 C3475 1.368 . S
C3494 C3488 1.368 . S
C3494 C3493 1.523 . S
C3495 C3479 1.429 . S
C3495 C3491 1.429 . S
C3495 C3496 1.523 . S
C3496 C3480 1.368 . S
C3496 C3492 1.368 . S
C3496 C3495 1.523 . S
H3497 C3472 0.950 . S
H3498 C3474 0.950 . S
H3499 C3475 0.949 . S
H3500 C3477 0.950 . S
H3501 C3479 0.950 . S
C3502 C3503 1.349 . S
C3502 C3504 1.327 . S
C3502 H3527 0.950 . S
C3503 C3502 1.349 . S
C3503 C3519 1.349 . S
C3504 C3502 1.327 . S
C3504 C3523 1.429 . S
C3504 H3528 0.950 . S
C3505 C3522 1.574 . S
C3505 C3524 1.368 . S
C3505 H3529 0.949 . S
H3506 C3510 0.949 . S
C3507 C3508 1.349 . S
C3507 C3509 1.327 . S
C3507 H3530 0.950 . S
C3508 C3507 1.349 . S
C3508 C3520 1.349 . S
C3509 C3507 1.327 . S
C3509 C3525 1.429 . S
C3509 H3531 0.950 . S
C3510 H3506 0.949 . S
C3510 C3518 1.574 . S
C3510 C3526 1.368 . S
H3511 C3519 0.950 . S
H3512 C3517 0.950 . S
H3513 C3518 0.949 . S
H3514 C3520 0.950 . S
H3515 C3521 0.950 . S
H3516 C3522 0.949 . S
C3517 H3512 0.950 . S
C3517 C3519 1.327 . S
C3517 C3523 1.429 . S
C3518 C3510 1.574 . S
C3518 H3513 0.949 . S
C3518 C3524 1.368 . S
C3519 C3503 1.349 . S
C3519 H3511 0.950 . S
C3519 C3517 1.327 . S
C3520 C3508 1.349 . S
C3520 H3514 0.950 . S
C3520 C3521 1.327 . S
C3521 H3515 0.950 . S
C3521 C3520 1.327 . S
C3521 C3525 1.429 . S
C3522 C3505 1.574 . S
C3522 H3516 0.949 . S
C3522 C3526 1.368 . S
C3523 C3504 1.429 . S
C3523 C3517 1.429 . S
C3523 C3524 1.523 . S
C3524 C3505 1.368 . S
C3524 C3518 1.368 . S
C3524 C3523 1.523 . S
C3525 C3509 1.429 . S
C3525 C3521 1.429 . S
C3525 C3526 1.523 . S
C3526 C3510 1.368 . S
C3526 C3522 1.368 . S
C3526 C3525 1.523 . S
H3527 C3502 0.950 . S
H3528 C3504 0.950 . S
H3529 C3505 0.949 . S
H3530 C3507 0.950 . S
H3531 C3509 0.950 . S
C3532 C3533 1.349 . S
C3532 C3534 1.327 . S
C3532 H3557 0.950 . S
C3533 C3532 1.349 . S
C3533 C3549 1.349 . S
C3534 C3532 1.327 . S
C3534 C3553 1.429 . S
C3534 H3558 0.950 . S
C3535 C3552 1.574 . S
C3535 C3554 1.368 . S
C3535 H3559 0.949 . S
H3536 C3540 0.949 . S
C3537 C3538 1.349 . S
C3537 C3539 1.327 . S
C3537 H3560 0.950 . S
C3538 C3537 1.349 . S
C3538 C3550 1.349 . S
C3539 C3537 1.327 . S
C3539 C3555 1.429 . S
C3539 H3561 0.950 . S
C3540 H3536 0.949 . S
C3540 C3548 1.574 . S
C3540 C3556 1.368 . S
H3541 C3549 0.950 . S
H3542 C3547 0.950 . S
H3543 C3548 0.949 . S
H3544 C3550 0.950 . S
H3545 C3551 0.950 . S
H3546 C3552 0.949 . S
C3547 H3542 0.950 . S
C3547 C3549 1.327 . S
C3547 C3553 1.429 . S
C3548 C3540 1.574 . S
C3548 H3543 0.949 . S
C3548 C3554 1.368 . S
C3549 C3533 1.349 . S
C3549 H3541 0.950 . S
C3549 C3547 1.327 . S
C3550 C3538 1.349 . S
C3550 H3544 0.950 . S
C3550 C3551 1.327 . S
C3551 H3545 0.950 . S
C3551 C3550 1.327 . S
C3551 C3555 1.429 . S
C3552 C3535 1.574 . S
C3552 H3546 0.949 . S
C3552 C3556 1.368 . S
C3553 C3534 1.429 . S
C3553 C3547 1.429 . S
C3553 C3554 1.523 . S
C3554 C3535 1.368 . S
C3554 C3548 1.368 . S
C3554 C3553 1.523 . S
C3555 C3539 1.429 . S
C3555 C3551 1.429 . S
C3555 C3556 1.523 . S
C3556 C3540 1.368 . S
C3556 C3552 1.368 . S
C3556 C3555 1.523 . S
H3557 C3532 0.950 . S
H3558 C3534 0.950 . S
H3559 C3535 0.949 . S
H3560 C3537 0.950 . S
H3561 C3539 0.950 . S
C3562 C3563 1.349 . S
C3562 C3564 1.327 . S
C3562 H3587 0.950 . S
C3563 C3562 1.349 . S
C3563 C3579 1.349 . S
C3564 C3562 1.327 . S
C3564 C3583 1.429 . S
C3564 H3588 0.950 . S
C3565 C3582 1.574 . S
C3565 C3584 1.368 . S
C3565 H3589 0.949 . S
H3566 C3570 0.949 . S
C3567 C3568 1.349 . S
C3567 C3569 1.327 . S
C3567 H3590 0.950 . S
C3568 C3567 1.349 . S
C3568 C3580 1.349 . S
C3569 C3567 1.327 . S
C3569 C3585 1.429 . S
C3569 H3591 0.950 . S
C3570 H3566 0.949 . S
C3570 C3578 1.574 . S
C3570 C3586 1.368 . S
H3571 C3579 0.950 . S
H3572 C3577 0.950 . S
H3573 C3578 0.949 . S
H3574 C3580 0.950 . S
H3575 C3581 0.950 . S
H3576 C3582 0.949 . S
C3577 H3572 0.950 . S
C3577 C3579 1.327 . S
C3577 C3583 1.429 . S
C3578 C3570 1.574 . S
C3578 H3573 0.949 . S
C3578 C3584 1.368 . S
C3579 C3563 1.349 . S
C3579 H3571 0.950 . S
C3579 C3577 1.327 . S
C3580 C3568 1.349 . S
C3580 H3574 0.950 . S
C3580 C3581 1.327 . S
C3581 H3575 0.950 . S
C3581 C3580 1.327 . S
C3581 C3585 1.429 . S
C3582 C3565 1.574 . S
C3582 H3576 0.949 . S
C3582 C3586 1.368 . S
C3583 C3564 1.429 . S
C3583 C3577 1.429 . S
C3583 C3584 1.523 . S
C3584 C3565 1.368 . S
C3584 C3578 1.368 . S
C3584 C3583 1.523 . S
C3585 C3569 1.429 . S
C3585 C3581 1.429 . S
C3585 C3586 1.523 . S
C3586 C3570 1.368 . S
C3586 C3582 1.368 . S
C3586 C3585 1.523 . S
H3587 C3562 0.950 . S
H3588 C3564 0.950 . S
H3589 C3565 0.949 . S
H3590 C3567 0.950 . S
H3591 C3569 0.950 . S
C3592 C3593 1.349 . S
C3592 C3594 1.327 . S
C3592 H3617 0.950 . S
C3593 C3592 1.349 . S
C3593 C3609 1.349 . S
C3594 C3592 1.327 . S
C3594 C3613 1.429 . S
C3594 H3618 0.950 . S
C3595 C3612 1.574 . S
C3595 C3614 1.368 . S
C3595 H3619 0.949 . S
H3596 C3600 0.949 . S
C3597 C3598 1.349 . S
C3597 C3599 1.327 . S
C3597 H3620 0.950 . S
C3598 C3597 1.349 . S
C3598 C3610 1.349 . S
C3599 C3597 1.327 . S
C3599 C3615 1.429 . S
C3599 H3621 0.950 . S
C3600 H3596 0.949 . S
C3600 C3608 1.574 . S
C3600 C3616 1.368 . S
H3601 C3609 0.950 . S
H3602 C3607 0.950 . S
H3603 C3608 0.949 . S
H3604 C3610 0.950 . S
H3605 C3611 0.950 . S
H3606 C3612 0.949 . S
C3607 H3602 0.950 . S
C3607 C3609 1.327 . S
C3607 C3613 1.429 . S
C3608 C3600 1.574 . S
C3608 H3603 0.949 . S
C3608 C3614 1.368 . S
C3609 C3593 1.349 . S
C3609 H3601 0.950 . S
C3609 C3607 1.327 . S
C3610 C3598 1.349 . S
C3610 H3604 0.950 . S
C3610 C3611 1.327 . S
C3611 H3605 0.950 . S
C3611 C3610 1.327 . S
C3611 C3615 1.429 . S
C3612 C3595 1.574 . S
C3612 H3606 0.949 . S
C3612 C3616 1.368 . S
C3613 C3594 1.429 . S
C3613 C3607 1.429 . S
C3613 C3614 1.523 . S
C3614 C3595 1.368 . S
C3614 C3608 1.368 . S
C3614 C3613 1.523 . S
C3615 C3599 1.429 . S
C3615 C3611 1.429 . S
C3615 C3616 1.523 . S
C3616 C3600 1.368 . S
C3616 C3612 1.368 . S
C3616 C3615 1.523 . S
H3617 C3592 0.950 . S
H3618 C3594 0.950 . S
H3619 C3595 0.949 . S
H3620 C3597 0.950 . S
H3621 C3599 0.950 . S
C3622 C3623 1.349 . S
C3622 C3624 1.327 . S
C3622 H3647 0.950 . S
C3623 C3622 1.349 . S
C3623 C3639 1.349 . S
C3624 C3622 1.327 . S
C3624 C3643 1.429 . S
C3624 H3648 0.950 . S
C3625 C3642 1.574 . S
C3625 C3644 1.368 . S
C3625 H3649 0.949 . S
H3626 C3630 0.949 . S
C3627 C3628 1.349 . S
C3627 C3629 1.327 . S
C3627 H3650 0.950 . S
C3628 C3627 1.349 . S
C3628 C3640 1.349 . S
C3629 C3627 1.327 . S
C3629 C3645 1.429 . S
C3629 H3651 0.950 . S
C3630 H3626 0.949 . S
C3630 C3638 1.574 . S
C3630 C3646 1.368 . S
H3631 C3639 0.950 . S
H3632 C3637 0.950 . S
H3633 C3638 0.949 . S
H3634 C3640 0.950 . S
H3635 C3641 0.950 . S
H3636 C3642 0.949 . S
C3637 H3632 0.950 . S
C3637 C3639 1.327 . S
C3637 C3643 1.429 . S
C3638 C3630 1.574 . S
C3638 H3633 0.949 . S
C3638 C3644 1.368 . S
C3639 C3623 1.349 . S
C3639 H3631 0.950 . S
C3639 C3637 1.327 . S
C3640 C3628 1.349 . S
C3640 H3634 0.950 . S
C3640 C3641 1.327 . S
C3641 H3635 0.950 . S
C3641 C3640 1.327 . S
C3641 C3645 1.429 . S
C3642 C3625 1.574 . S
C3642 H3636 0.949 . S
C3642 C3646 1.368 . S
C3643 C3624 1.429 . S
C3643 C3637 1.429 . S
C3643 C3644 1.523 . S
C3644 C3625 1.368 . S
C3644 C3638 1.368 . S
C3644 C3643 1.523 . S
C3645 C3629 1.429 . S
C3645 C3641 1.429 . S
C3645 C3646 1.523 . S
C3646 C3630 1.368 . S
C3646 C3642 1.368 . S
C3646 C3645 1.523 . S
H3647 C3622 0.950 . S
H3648 C3624 0.950 . S
H3649 C3625 0.949 . S
H3650 C3627 0.950 . S
H3651 C3629 0.950 . S
C3652 C3653 1.349 . S
C3652 C3654 1.327 . S
C3652 H3677 0.950 . S
C3653 C3652 1.349 . S
C3653 C3669 1.349 . S
C3654 C3652 1.327 . S
C3654 C3673 1.429 . S
C3654 H3678 0.950 . S
C3655 C3672 1.574 . S
C3655 C3674 1.368 . S
C3655 H3679 0.949 . S
H3656 C3660 0.949 . S
C3657 C3658 1.349 . S
C3657 C3659 1.327 . S
C3657 H3680 0.950 . S
C3658 C3657 1.349 . S
C3658 C3670 1.349 . S
C3659 C3657 1.327 . S
C3659 C3675 1.429 . S
C3659 H3681 0.950 . S
C3660 H3656 0.949 . S
C3660 C3668 1.574 . S
C3660 C3676 1.368 . S
H3661 C3669 0.950 . S
H3662 C3667 0.950 . S
H3663 C3668 0.949 . S
H3664 C3670 0.950 . S
H3665 C3671 0.950 . S
H3666 C3672 0.949 . S
C3667 H3662 0.950 . S
C3667 C3669 1.327 . S
C3667 C3673 1.429 . S
C3668 C3660 1.574 . S
C3668 H3663 0.949 . S
C3668 C3674 1.368 . S
C3669 C3653 1.349 . S
C3669 H3661 0.950 . S
C3669 C3667 1.327 . S
C3670 C3658 1.349 . S
C3670 H3664 0.950 . S
C3670 C3671 1.327 . S
C3671 H3665 0.950 . S
C3671 C3670 1.327 . S
C3671 C3675 1.429 . S
C3672 C3655 1.574 . S
C3672 H3666 0.949 . S
C3672 C3676 1.368 . S
C3673 C3654 1.429 . S
C3673 C3667 1.429 . S
C3673 C3674 1.523 . S
C3674 C3655 1.368 . S
C3674 C3668 1.368 . S
C3674 C3673 1.523 . S
C3675 C3659 1.429 . S
C3675 C3671 1.429 . S
C3675 C3676 1.523 . S
C3676 C3660 1.368 . S
C3676 C3672 1.368 . S
C3676 C3675 1.523 . S
H3677 C3652 0.950 . S
H3678 C3654 0.950 . S
H3679 C3655 0.949 . S
H3680 C3657 0.950 . S
H3681 C3659 0.950 . S
C3682 C3683 1.349 . S
C3682 C3684 1.327 . S
C3682 H3707 0.950 . S
C3683 C3682 1.349 . S
C3683 C3699 1.349 1_554 S
C3684 C3682 1.327 . S
C3684 C3703 1.429 . S
C3684 H3708 0.950 . S
C3685 C3702 1.574 . S
C3685 C3704 1.368 1_556 S
C3685 H3709 0.949 . S
H3686 C3690 0.949 . S
C3687 C3688 1.349 1_556 S
C3687 C3689 1.327 . S
C3687 H3710 0.950 . S
C3688 C3687 1.349 1_554 S
C3688 C3700 1.349 . S
C3689 C3687 1.327 . S
C3689 C3705 1.429 1_556 S
C3689 H3711 0.950 . S
C3690 H3686 0.949 . S
C3690 C3698 1.574 . S
C3690 C3706 1.368 . S
H3691 C3699 0.950 . S
H3692 C3697 0.950 . S
H3693 C3698 0.949 . S
H3694 C3700 0.950 . S
H3695 C3701 0.950 . S
H3696 C3702 0.949 . S
C3697 H3692 0.950 . S
C3697 C3699 1.327 . S
C3697 C3703 1.429 1_556 S
C3698 C3690 1.574 . S
C3698 H3693 0.949 . S
C3698 C3704 1.368 . S
C3699 C3683 1.349 1_556 S
C3699 H3691 0.950 . S
C3699 C3697 1.327 . S
C3700 C3688 1.349 . S
C3700 H3694 0.950 . S
C3700 C3701 1.327 . S
C3701 H3695 0.950 . S
C3701 C3700 1.327 . S
C3701 C3705 1.429 . S
C3702 C3685 1.574 . S
C3702 H3696 0.949 . S
C3702 C3706 1.368 1_556 S
C3703 C3684 1.429 . S
C3703 C3697 1.429 1_554 S
C3703 C3704 1.523 . S
C3704 C3685 1.368 1_554 S
C3704 C3698 1.368 . S
C3704 C3703 1.523 . S
C3705 C3689 1.429 1_554 S
C3705 C3701 1.429 . S
C3705 C3706 1.523 . S
C3706 C3690 1.368 . S
C3706 C3702 1.368 1_554 S
C3706 C3705 1.523 . S
H3707 C3682 0.950 . S
H3708 C3684 0.950 . S
H3709 C3685 0.949 . S
H3710 C3687 0.950 . S
H3711 C3689 0.950 . S
C3712 C3713 1.349 . S
C3712 C3714 1.327 . S
C3712 H3737 0.950 . S
C3713 C3712 1.349 . S
C3713 C3729 1.349 . S
C3714 C3712 1.327 . S
C3714 C3733 1.429 . S
C3714 H3738 0.950 . S
C3715 C3732 1.574 . S
C3715 C3734 1.368 . S
C3715 H3739 0.949 . S
H3716 C3720 0.949 . S
C3717 C3718 1.349 . S
C3717 C3719 1.327 . S
C3717 H3740 0.950 . S
C3718 C3717 1.349 . S
C3718 C3730 1.349 . S
C3719 C3717 1.327 . S
C3719 C3735 1.429 . S
C3719 H3741 0.950 . S
C3720 H3716 0.949 . S
C3720 C3728 1.574 . S
C3720 C3736 1.368 . S
H3721 C3729 0.950 . S
H3722 C3727 0.950 . S
H3723 C3728 0.949 . S
H3724 C3730 0.950 . S
H3725 C3731 0.950 . S
H3726 C3732 0.949 . S
C3727 H3722 0.950 . S
C3727 C3729 1.327 . S
C3727 C3733 1.429 . S
C3728 C3720 1.574 . S
C3728 H3723 0.949 . S
C3728 C3734 1.368 . S
C3729 C3713 1.349 . S
C3729 H3721 0.950 . S
C3729 C3727 1.327 . S
C3730 C3718 1.349 . S
C3730 H3724 0.950 . S
C3730 C3731 1.327 . S
C3731 H3725 0.950 . S
C3731 C3730 1.327 . S
C3731 C3735 1.429 . S
C3732 C3715 1.574 . S
C3732 H3726 0.949 . S
C3732 C3736 1.368 . S
C3733 C3714 1.429 . S
C3733 C3727 1.429 . S
C3733 C3734 1.523 . S
C3734 C3715 1.368 . S
C3734 C3728 1.368 . S
C3734 C3733 1.523 . S
C3735 C3719 1.429 . S
C3735 C3731 1.429 . S
C3735 C3736 1.523 . S
C3736 C3720 1.368 . S
C3736 C3732 1.368 . S
C3736 C3735 1.523 . S
H3737 C3712 0.950 . S
H3738 C3714 0.950 . S
H3739 C3715 0.949 . S
H3740 C3717 0.950 . S
H3741 C3719 0.950 . S
C3742 C3743 1.349 . S
C3742 C3744 1.327 . S
C3742 H3767 0.957 . S
C3743 C3742 1.349 . S
C3743 C3759 1.349 . S
C3744 C3742 1.327 . S
C3744 C3763 1.429 . S
C3744 H3768 0.950 1_554 S
C3745 C3762 1.574 . S
C3745 C3764 1.368 . S
C3745 H3769 0.949 . S
H3746 C3750 0.949 . S
C3747 C3748 1.349 . S
C3747 C3749 1.327 . S
C3747 H3770 0.950 . S
C3748 C3747 1.349 . S
C3748 C3760 1.349 1_554 S
C3749 C3747 1.327 . S
C3749 C3765 1.429 . S
C3749 H3771 0.950 . S
C3750 H3746 0.949 . S
C3750 C3758 1.572 1_556 S
C3750 C3766 1.368 1_556 S
H3751 C3759 0.950 . S
H3752 C3757 0.950 . S
H3753 C3758 0.944 1_556 S
H3754 C3760 0.950 . S
H3755 C3761 0.950 . S
H3756 C3762 0.949 . S
C3757 H3752 0.950 . S
C3757 C3759 1.327 . S
C3757 C3763 1.429 . S
C3758 C3750 1.572 1_554 S
C3758 H3753 0.944 1_554 S
C3758 C3764 1.375 . S
C3759 C3743 1.349 . S
C3759 H3751 0.950 . S
C3759 C3757 1.327 . S
C3760 C3748 1.349 1_556 S
C3760 H3754 0.950 . S
C3760 C3761 1.327 . S
C3761 H3755 0.950 . S
C3761 C3760 1.327 . S
C3761 C3765 1.429 1_556 S
C3762 C3745 1.574 . S
C3762 H3756 0.949 . S
C3762 C3766 1.368 . S
C3763 C3744 1.429 . S
C3763 C3757 1.429 . S
C3763 C3764 1.523 . S
C3764 C3745 1.368 . S
C3764 C3758 1.375 . S
C3764 C3763 1.523 . S
C3765 C3749 1.429 . S
C3765 C3761 1.429 1_554 S
C3765 C3766 1.523 . S
C3766 C3750 1.368 1_554 S
C3766 C3762 1.368 . S
C3766 C3765 1.523 . S
H3767 C3742 0.957 . S
H3768 C3744 0.950 1_556 S
H3769 C3745 0.949 . S
H3770 C3747 0.950 . S
H3771 C3749 0.950 . S
C3772 C3773 1.349 . S
C3772 C3774 1.327 . S
C3772 H3797 0.950 . S
C3773 C3772 1.349 . S
C3773 C3789 1.349 . S
C3774 C3772 1.327 . S
C3774 C3793 1.429 . S
C3774 H3798 0.950 . S
C3775 C3792 1.574 . S
C3775 C3794 1.368 . S
C3775 H3799 0.949 . S
H3776 C3780 0.949 . S
C3777 C3778 1.349 . S
C3777 C3779 1.327 . S
C3777 H3800 0.950 . S
C3778 C3777 1.349 . S
C3778 C3790 1.349 . S
C3779 C3777 1.327 . S
C3779 C3795 1.429 . S
C3779 H3801 0.950 . S
C3780 H3776 0.949 . S
C3780 C3788 1.574 . S
C3780 C3796 1.368 . S
H3781 C3789 0.950 . S
H3782 C3787 0.950 . S
H3783 C3788 0.949 . S
H3784 C3790 0.950 . S
H3785 C3791 0.950 . S
H3786 C3792 0.949 . S
C3787 H3782 0.950 . S
C3787 C3789 1.327 . S
C3787 C3793 1.429 . S
C3788 C3780 1.574 . S
C3788 H3783 0.949 . S
C3788 C3794 1.368 . S
C3789 C3773 1.349 . S
C3789 H3781 0.950 . S
C3789 C3787 1.327 . S
C3790 C3778 1.349 . S
C3790 H3784 0.950 . S
C3790 C3791 1.327 . S
C3791 H3785 0.950 . S
C3791 C3790 1.327 . S
C3791 C3795 1.429 . S
C3792 C3775 1.574 . S
C3792 H3786 0.949 . S
C3792 C3796 1.368 . S
C3793 C3774 1.429 . S
C3793 C3787 1.429 . S
C3793 C3794 1.523 . S
C3794 C3775 1.368 . S
C3794 C3788 1.368 . S
C3794 C3793 1.523 . S
C3795 C3779 1.429 . S
C3795 C3791 1.429 . S
C3795 C3796 1.523 . S
C3796 C3780 1.368 . S
C3796 C3792 1.368 . S
C3796 C3795 1.523 . S
H3797 C3772 0.950 . S
H3798 C3774 0.950 . S
H3799 C3775 0.949 . S
H3800 C3777 0.950 . S
H3801 C3779 0.950 . S
C3802 C3803 1.349 . S
C3802 C3804 1.327 . S
C3802 H3827 0.950 . S
C3803 C3802 1.349 . S
C3803 C3819 1.349 . S
C3804 C3802 1.327 . S
C3804 C3823 1.429 . S
C3804 H3828 0.950 . S
C3805 C3822 1.574 . S
C3805 C3824 1.368 . S
C3805 H3829 0.949 . S
H3806 C3810 0.949 . S
C3807 C3808 1.349 . S
C3807 C3809 1.327 . S
C3807 H3830 0.950 . S
C3808 C3807 1.349 . S
C3808 C3820 1.349 . S
C3809 C3807 1.327 . S
C3809 C3825 1.429 . S
C3809 H3831 0.950 . S
C3810 H3806 0.949 . S
C3810 C3818 1.574 . S
C3810 C3826 1.368 . S
H3811 C3819 0.950 . S
H3812 C3817 0.950 . S
H3813 C3818 0.949 . S
H3814 C3820 0.950 . S
H3815 C3821 0.950 . S
H3816 C3822 0.949 . S
C3817 H3812 0.950 . S
C3817 C3819 1.327 . S
C3817 C3823 1.429 . S
C3818 C3810 1.574 . S
C3818 H3813 0.949 . S
C3818 C3824 1.368 . S
C3819 C3803 1.349 . S
C3819 H3811 0.950 . S
C3819 C3817 1.327 . S
C3820 C3808 1.349 . S
C3820 H3814 0.950 . S
C3820 C3821 1.327 . S
C3821 H3815 0.950 . S
C3821 C3820 1.327 . S
C3821 C3825 1.429 . S
C3822 C3805 1.574 . S
C3822 H3816 0.949 . S
C3822 C3826 1.368 . S
C3823 C3804 1.429 . S
C3823 C3817 1.429 . S
C3823 C3824 1.523 . S
C3824 C3805 1.368 . S
C3824 C3818 1.368 . S
C3824 C3823 1.523 . S
C3825 C3809 1.429 . S
C3825 C3821 1.429 . S
C3825 C3826 1.523 . S
C3826 C3810 1.368 . S
C3826 C3822 1.368 . S
C3826 C3825 1.523 . S
H3827 C3802 0.950 . S
H3828 C3804 0.950 . S
H3829 C3805 0.949 . S
H3830 C3807 0.950 . S
H3831 C3809 0.950 . S
C953 C101 2.071 . S
C958 C314 2.034 . S
C983 C57 2.000 . S
C988 C371 2.030 . S
C1013 C70 0.819 . S
C1018 C394 0.812 . S
C1048 C448 1.385 . S
C1043 C82 1.399 . S
C1073 C23 1.296 . S
C1078 C488 1.264 . S
C1108 C519 0.320 . S
C1103 C29 0.207 . S
C1138 C571 0.996 . S
C1133 C49 0.973 . S
C1163 C10 1.700 . S
C1168 C594 1.644 . S
C1198 C331 2.312 . S
C1193 C218 2.315 . S
C1223 C226 0.334 . S
C1228 C368 0.449 . S
C1258 C411 1.288 . S
C1253 C251 1.284 . S
C1288 C434 1.037 . S
C1283 C159 1.052 . S
C1313 C211 1.695 . S
C1318 C474 1.668 . S
C1348 C522 1.411 . S
C1343 C225 1.428 . S
C1378 C568 0.376 . S
C1373 C252 0.194 . S
C1408 C611 1.874 . S
C1403 C166 1.891 . S
C1438 C328 1.435 . S
C1433 C147 1.474 . S
C1463 C263 1.911 1_556 S
C1468 C651 1.921 . S
C1498 C683 2.536 . S
C1493 C309 2.568 . S
C1528 C714 0.352 . S
C1523 C291 0.291 . S
C1553 C108 1.362 . S
C1558 C608 1.327 . S
C1583 C121 1.535 . S
C1588 C408 1.511 . S
C1613 C302 2.223 . S
C1618 C771 2.219 . S
C1648 C794 0.452 . S
C1643 C276 0.360 . S
C1678 C323 2.276 1_565 S
C1673 C55 2.295 . S
C1708 C802 2.367 . S
C1703 C96 2.378 . S
C1733 C88 1.320 . S
C1738 C403 1.303 . S
C1763 C75 1.673 . S
C1768 C759 1.656 . S
C1798 C479 1.353 . S
C1793 C4 1.378 . S
C1823 C44 0.525 . S
C1828 C688 0.532 . S
C1858 C562 1.486 1_565 S
C1853 C31 1.483 . S
C1888 C843 1.835 . S
C1883 C18 1.875 . S
C1918 C322 2.608 . S
C1913 C133 2.630 . S
C1948 C799 0.511 . S
C1943 C296 0.478 . S
C1973 C107 1.620 . S
C1978 C402 1.600 . S
C2003 C264 1.500 . S
C2008 C763 1.491 . S
C2033 C140 1.993 . S
C2038 C483 1.991 . S
C2068 C691 1.600 . S
C2063 C289 1.637 . S
C2093 C114 0.399 . S
C2098 C559 0.443 . S
C2123 C265 2.197 . S
C2128 C842 2.167 . S
C2153 C179 1.599 . S
C2158 C319 1.568 . S
C2183 C161 2.258 . S
C2188 C642 2.245 . S
C2213 C244 2.862 . S
C2218 C514 2.828 . S
C2243 C224 0.930 . S
C2248 C723 0.928 . S
C2278 C839 1.334 . S
C2273 C257 1.356 . S
C2303 C199 1.674 . S
C2308 C399 1.653 . S
C2338 C442 2.542 . S
C2333 C237 2.571 . S
C2368 C363 0.750 . S
C2363 C185 0.750 . S
C2393 C69 2.073 . S
C2398 C874 2.035 . S
C2428 C811 2.030 . S
C2423 C83 1.999 . S
C2453 C94 0.820 . S
C2458 C914 0.814 . S
C2483 C56 1.400 . S
C2488 C768 1.385 . S
C2513 C42 1.312 . S
C2518 C648 1.274 . S
C2548 C679 0.321 . S
C2543 C3 0.209 . S
C2578 C731 1.007 . S
C2573 C16 0.980 . S
C2608 C834 1.643 . S
C2603 C36 1.700 . S
C2638 C891 2.312 . S
C2633 C238 2.315 . S
C2663 C174 0.333 . S
C2668 C808 0.448 . S
C2698 C931 1.288 . S
C2693 C186 1.284 . S
C2728 C754 1.036 . S
C2723 C198 1.051 . S
C2758 C634 1.670 . S
C2753 C239 1.697 . S
C2783 C173 1.427 . S
C2788 C682 1.410 . S
C2818 C728 0.377 . S
C2813 C187 0.195 . S
C2843 C205 1.891 . S
C2848 C851 1.874 . S
C2878 C888 1.433 . S
C2873 C290 1.472 . S
C2903 C122 1.912 . S
C2908 C491 1.929 . S
C2938 C523 2.543 . S
C2933 C134 2.575 . S
C2968 C554 0.351 . S
C2963 C148 0.291 . S
C2998 C848 1.325 . S
C2993 C283 1.359 . S
C3023 C270 1.533 . S
C3028 C928 1.509 . S
C3058 C451 2.218 . S
C3053 C135 2.222 . S
C3088 C354 0.452 . S
C3083 C109 0.359 . S
C3113 C81 2.295 . S
C3118 C883 2.276 . S
C3148 C362 2.365 . S
C3143 C68 2.377 . S
C3173 C62 1.320 . S
C3178 C923 1.303 . S
C3203 C95 1.672 . S
C3208 C439 1.656 . S
C3233 C30 1.377 . S
C3238 C639 1.352 . S
C3268 C528 0.520 . S
C3263 C17 0.504 . S
C3293 C5 1.485 . S
C3298 C722 1.487 . S
C3323 C43 1.861 . S
C3328 C603 1.824 . S
C3358 C882 2.607 . S
C3353 C304 2.630 . S
C3383 C153 0.477 . S
C3388 C359 0.510 . S
C3418 C922 1.601 . S
C3413 C278 1.621 . S
C3443 C127 1.499 . S
C3448 C443 1.490 . S
C3473 C303 1.985 . S
C3478 C643 1.984 . S
C3508 C531 1.597 . S
C3503 C146 1.634 . S
C3533 C277 0.396 . S
C3538 C719 0.440 . S
C3568 C602 2.165 . S
C3563 C120 2.194 . S
C3598 C879 1.568 . S
C3593 C231 1.598 . S
C3628 C482 2.245 1_665 S
C3623 C200 2.257 . S
C3653 C212 2.866 . S
C3658 C674 2.832 . S
C3688 C563 0.928 . S
C3683 C172 0.930 . S
C3713 C192 1.355 . S
C3718 C599 1.333 . S
C3743 C160 1.674 . S
C3748 C919 1.654 . S
C3778 C762 2.544 . S
C3773 C213 2.573 1_565 S
C3808 C803 0.752 . S
C3803 C250 0.752 . S
