# Generated by pormake.
# Topology gar, (4,6)-cn, num edge types: 1
# Building blocks:
#     Node 0, Type 0, BuildingBlock: CEKHIL_clean_sbu_0, # of connection points: 4
#     Node 1, Type 0, BuildingBlock: CEKHIL_clean_sbu_0, # of connection points: 4
#     Node 2, Type 0, BuildingBlock: CEKHIL_clean_sbu_0, # of connection points: 4
#     Node 3, Type 0, BuildingBlock: CEKHIL_clean_sbu_0, # of connection points: 4
#     Node 4, Type 0, BuildingBlock: CEKHIL_clean_sbu_0, # of connection points: 4
#     Node 5, Type 0, BuildingBlock: CEKHIL_clean_sbu_0, # of connection points: 4
#     Node 6, Type 0, BuildingBlock: CEKHIL_clean_sbu_0, # of connection points: 4
#     Node 7, Type 0, BuildingBlock: CEKHIL_clean_sbu_0, # of connection points: 4
#     Node 8, Type 0, BuildingBlock: CEKHIL_clean_sbu_0, # of connection points: 4
#     Node 9, Type 0, BuildingBlock: CEKHIL_clean_sbu_0, # of connection points: 4
#     Node 10, Type 0, BuildingBlock: CEKHIL_clean_sbu_0, # of connection points: 4
#     Node 11, Type 0, BuildingBlock: CEKHIL_clean_sbu_0, # of connection points: 4
#     Node 12, Type 0, BuildingBlock: CEKHIL_clean_sbu_0, # of connection points: 4
#     Node 13, Type 0, BuildingBlock: CEKHIL_clean_sbu_0, # of connection points: 4
#     Node 14, Type 0, BuildingBlock: CEKHIL_clean_sbu_0, # of connection points: 4
#     Node 15, Type 0, BuildingBlock: CEKHIL_clean_sbu_0, # of connection points: 4
#     Node 16, Type 0, BuildingBlock: CEKHIL_clean_sbu_0, # of connection points: 4
#     Node 17, Type 0, BuildingBlock: CEKHIL_clean_sbu_0, # of connection points: 4
#     Node 18, Type 0, BuildingBlock: CEKHIL_clean_sbu_0, # of connection points: 4
#     Node 19, Type 0, BuildingBlock: CEKHIL_clean_sbu_0, # of connection points: 4
#     Node 20, Type 0, BuildingBlock: CEKHIL_clean_sbu_0, # of connection points: 4
#     Node 21, Type 0, BuildingBlock: CEKHIL_clean_sbu_0, # of connection points: 4
#     Node 22, Type 0, BuildingBlock: CEKHIL_clean_sbu_0, # of connection points: 4
#     Node 23, Type 0, BuildingBlock: CEKHIL_clean_sbu_0, # of connection points: 4
#     Node 24, Type 1, BuildingBlock: KUMJIN_clean_sbu_0, # of connection points: 6
#     Node 25, Type 1, BuildingBlock: KUMJIN_clean_sbu_0, # of connection points: 6
#     Node 26, Type 1, BuildingBlock: KUMJIN_clean_sbu_0, # of connection points: 6
#     Node 27, Type 1, BuildingBlock: KUMJIN_clean_sbu_0, # of connection points: 6
#     Node 28, Type 1, BuildingBlock: KUMJIN_clean_sbu_0, # of connection points: 6
#     Node 29, Type 1, BuildingBlock: KUMJIN_clean_sbu_0, # of connection points: 6
#     Node 30, Type 1, BuildingBlock: KUMJIN_clean_sbu_0, # of connection points: 6
#     Node 31, Type 1, BuildingBlock: KUMJIN_clean_sbu_0, # of connection points: 6
#     Node 32, Type 1, BuildingBlock: KUMJIN_clean_sbu_0, # of connection points: 6
#     Node 33, Type 1, BuildingBlock: KUMJIN_clean_sbu_0, # of connection points: 6
#     Node 34, Type 1, BuildingBlock: KUMJIN_clean_sbu_0, # of connection points: 6
#     Node 35, Type 1, BuildingBlock: KUMJIN_clean_sbu_0, # of connection points: 6
#     Node 36, Type 1, BuildingBlock: KUMJIN_clean_sbu_0, # of connection points: 6
#     Node 37, Type 1, BuildingBlock: KUMJIN_clean_sbu_0, # of connection points: 6
#     Node 38, Type 1, BuildingBlock: KUMJIN_clean_sbu_0, # of connection points: 6
#     Node 39, Type 1, BuildingBlock: KUMJIN_clean_sbu_0, # of connection points: 6
#     Edge 40, Type (0, 1), BuildingBlock: XUDNAN_clean_linker_2, # of connection points: 2
#     Edge 41, Type (0, 1), BuildingBlock: XUDNAN_clean_linker_2, # of connection points: 2
#     Edge 42, Type (0, 1), BuildingBlock: XUDNAN_clean_linker_2, # of connection points: 2
#     Edge 43, Type (0, 1), BuildingBlock: XUDNAN_clean_linker_2, # of connection points: 2
#     Edge 44, Type (0, 1), BuildingBlock: XUDNAN_clean_linker_2, # of connection points: 2
#     Edge 45, Type (0, 1), BuildingBlock: XUDNAN_clean_linker_2, # of connection points: 2
#     Edge 46, Type (0, 1), BuildingBlock: XUDNAN_clean_linker_2, # of connection points: 2
#     Edge 47, Type (0, 1), BuildingBlock: XUDNAN_clean_linker_2, # of connection points: 2
#     Edge 48, Type (0, 1), BuildingBlock: XUDNAN_clean_linker_2, # of connection points: 2
#     Edge 49, Type (0, 1), BuildingBlock: XUDNAN_clean_linker_2, # of connection points: 2
#     Edge 50, Type (0, 1), BuildingBlock: XUDNAN_clean_linker_2, # of connection points: 2
#     Edge 51, Type (0, 1), BuildingBlock: XUDNAN_clean_linker_2, # of connection points: 2
#     Edge 52, Type (0, 1), BuildingBlock: XUDNAN_clean_linker_2, # of connection points: 2
#     Edge 53, Type (0, 1), BuildingBlock: XUDNAN_clean_linker_2, # of connection points: 2
#     Edge 54, Type (0, 1), BuildingBlock: XUDNAN_clean_linker_2, # of connection points: 2
#     Edge 55, Type (0, 1), BuildingBlock: XUDNAN_clean_linker_2, # of connection points: 2
#     Edge 56, Type (0, 1), BuildingBlock: XUDNAN_clean_linker_2, # of connection points: 2
#     Edge 57, Type (0, 1), BuildingBlock: XUDNAN_clean_linker_2, # of connection points: 2
#     Edge 58, Type (0, 1), BuildingBlock: XUDNAN_clean_linker_2, # of connection points: 2
#     Edge 59, Type (0, 1), BuildingBlock: XUDNAN_clean_linker_2, # of connection points: 2
#     Edge 60, Type (0, 1), BuildingBlock: XUDNAN_clean_linker_2, # of connection points: 2
#     Edge 61, Type (0, 1), BuildingBlock: XUDNAN_clean_linker_2, # of connection points: 2
#     Edge 62, Type (0, 1), BuildingBlock: XUDNAN_clean_linker_2, # of connection points: 2
#     Edge 63, Type (0, 1), BuildingBlock: XUDNAN_clean_linker_2, # of connection points: 2
#     Edge 64, Type (0, 1), BuildingBlock: XUDNAN_clean_linker_2, # of connection points: 2
#     Edge 65, Type (0, 1), BuildingBlock: XUDNAN_clean_linker_2, # of connection points: 2
#     Edge 66, Type (0, 1), BuildingBlock: XUDNAN_clean_linker_2, # of connection points: 2
#     Edge 67, Type (0, 1), BuildingBlock: XUDNAN_clean_linker_2, # of connection points: 2
#     Edge 68, Type (0, 1), BuildingBlock: XUDNAN_clean_linker_2, # of connection points: 2
#     Edge 69, Type (0, 1), BuildingBlock: XUDNAN_clean_linker_2, # of connection points: 2
#     Edge 70, Type (0, 1), BuildingBlock: XUDNAN_clean_linker_2, # of connection points: 2
#     Edge 71, Type (0, 1), BuildingBlock: XUDNAN_clean_linker_2, # of connection points: 2
#     Edge 72, Type (0, 1), BuildingBlock: XUDNAN_clean_linker_2, # of connection points: 2
#     Edge 73, Type (0, 1), BuildingBlock: XUDNAN_clean_linker_2, # of connection points: 2
#     Edge 74, Type (0, 1), BuildingBlock: XUDNAN_clean_linker_2, # of connection points: 2
#     Edge 75, Type (0, 1), BuildingBlock: XUDNAN_clean_linker_2, # of connection points: 2
#     Edge 76, Type (0, 1), BuildingBlock: XUDNAN_clean_linker_2, # of connection points: 2
#     Edge 77, Type (0, 1), BuildingBlock: XUDNAN_clean_linker_2, # of connection points: 2
#     Edge 78, Type (0, 1), BuildingBlock: XUDNAN_clean_linker_2, # of connection points: 2
#     Edge 79, Type (0, 1), BuildingBlock: XUDNAN_clean_linker_2, # of connection points: 2
#     Edge 80, Type (0, 1), BuildingBlock: XUDNAN_clean_linker_2, # of connection points: 2
#     Edge 81, Type (0, 1), BuildingBlock: XUDNAN_clean_linker_2, # of connection points: 2
#     Edge 82, Type (0, 1), BuildingBlock: XUDNAN_clean_linker_2, # of connection points: 2
#     Edge 83, Type (0, 1), BuildingBlock: XUDNAN_clean_linker_2, # of connection points: 2
#     Edge 84, Type (0, 1), BuildingBlock: XUDNAN_clean_linker_2, # of connection points: 2
#     Edge 85, Type (0, 1), BuildingBlock: XUDNAN_clean_linker_2, # of connection points: 2
#     Edge 86, Type (0, 1), BuildingBlock: XUDNAN_clean_linker_2, # of connection points: 2
#     Edge 87, Type (0, 1), BuildingBlock: XUDNAN_clean_linker_2, # of connection points: 2
#     Edge 88, Type (0, 1), BuildingBlock: XUDNAN_clean_linker_2, # of connection points: 2
#     Edge 89, Type (0, 1), BuildingBlock: XUDNAN_clean_linker_2, # of connection points: 2
#     Edge 90, Type (0, 1), BuildingBlock: XUDNAN_clean_linker_2, # of connection points: 2
#     Edge 91, Type (0, 1), BuildingBlock: XUDNAN_clean_linker_2, # of connection points: 2
#     Edge 92, Type (0, 1), BuildingBlock: XUDNAN_clean_linker_2, # of connection points: 2
#     Edge 93, Type (0, 1), BuildingBlock: XUDNAN_clean_linker_2, # of connection points: 2
#     Edge 94, Type (0, 1), BuildingBlock: XUDNAN_clean_linker_2, # of connection points: 2
#     Edge 95, Type (0, 1), BuildingBlock: XUDNAN_clean_linker_2, # of connection points: 2
#     Edge 96, Type (0, 1), BuildingBlock: XUDNAN_clean_linker_2, # of connection points: 2
#     Edge 97, Type (0, 1), BuildingBlock: XUDNAN_clean_linker_2, # of connection points: 2
#     Edge 98, Type (0, 1), BuildingBlock: XUDNAN_clean_linker_2, # of connection points: 2
#     Edge 99, Type (0, 1), BuildingBlock: XUDNAN_clean_linker_2, # of connection points: 2
#     Edge 100, Type (0, 1), BuildingBlock: XUDNAN_clean_linker_2, # of connection points: 2
#     Edge 101, Type (0, 1), BuildingBlock: XUDNAN_clean_linker_2, # of connection points: 2
#     Edge 102, Type (0, 1), BuildingBlock: XUDNAN_clean_linker_2, # of connection points: 2
#     Edge 103, Type (0, 1), BuildingBlock: XUDNAN_clean_linker_2, # of connection points: 2
#     Edge 104, Type (0, 1), BuildingBlock: XUDNAN_clean_linker_2, # of connection points: 2
#     Edge 105, Type (0, 1), BuildingBlock: XUDNAN_clean_linker_2, # of connection points: 2
#     Edge 106, Type (0, 1), BuildingBlock: XUDNAN_clean_linker_2, # of connection points: 2
#     Edge 107, Type (0, 1), BuildingBlock: XUDNAN_clean_linker_2, # of connection points: 2
#     Edge 108, Type (0, 1), BuildingBlock: XUDNAN_clean_linker_2, # of connection points: 2
#     Edge 109, Type (0, 1), BuildingBlock: XUDNAN_clean_linker_2, # of connection points: 2
#     Edge 110, Type (0, 1), BuildingBlock: XUDNAN_clean_linker_2, # of connection points: 2
#     Edge 111, Type (0, 1), BuildingBlock: XUDNAN_clean_linker_2, # of connection points: 2
#     Edge 112, Type (0, 1), BuildingBlock: XUDNAN_clean_linker_2, # of connection points: 2
#     Edge 113, Type (0, 1), BuildingBlock: XUDNAN_clean_linker_2, # of connection points: 2
#     Edge 114, Type (0, 1), BuildingBlock: XUDNAN_clean_linker_2, # of connection points: 2
#     Edge 115, Type (0, 1), BuildingBlock: XUDNAN_clean_linker_2, # of connection points: 2
#     Edge 116, Type (0, 1), BuildingBlock: XUDNAN_clean_linker_2, # of connection points: 2
#     Edge 117, Type (0, 1), BuildingBlock: XUDNAN_clean_linker_2, # of connection points: 2
#     Edge 118, Type (0, 1), BuildingBlock: XUDNAN_clean_linker_2, # of connection points: 2
#     Edge 119, Type (0, 1), BuildingBlock: XUDNAN_clean_linker_2, # of connection points: 2
#     Edge 120, Type (0, 1), BuildingBlock: XUDNAN_clean_linker_2, # of connection points: 2
#     Edge 121, Type (0, 1), BuildingBlock: XUDNAN_clean_linker_2, # of connection points: 2
#     Edge 122, Type (0, 1), BuildingBlock: XUDNAN_clean_linker_2, # of connection points: 2
#     Edge 123, Type (0, 1), BuildingBlock: XUDNAN_clean_linker_2, # of connection points: 2
#     Edge 124, Type (0, 1), BuildingBlock: XUDNAN_clean_linker_2, # of connection points: 2
#     Edge 125, Type (0, 1), BuildingBlock: XUDNAN_clean_linker_2, # of connection points: 2
#     Edge 126, Type (0, 1), BuildingBlock: XUDNAN_clean_linker_2, # of connection points: 2
#     Edge 127, Type (0, 1), BuildingBlock: XUDNAN_clean_linker_2, # of connection points: 2
#     Edge 128, Type (0, 1), BuildingBlock: XUDNAN_clean_linker_2, # of connection points: 2
#     Edge 129, Type (0, 1), BuildingBlock: XUDNAN_clean_linker_2, # of connection points: 2
#     Edge 130, Type (0, 1), BuildingBlock: XUDNAN_clean_linker_2, # of connection points: 2
#     Edge 131, Type (0, 1), BuildingBlock: XUDNAN_clean_linker_2, # of connection points: 2
#     Edge 132, Type (0, 1), BuildingBlock: XUDNAN_clean_linker_2, # of connection points: 2
#     Edge 133, Type (0, 1), BuildingBlock: XUDNAN_clean_linker_2, # of connection points: 2
#     Edge 134, Type (0, 1), BuildingBlock: XUDNAN_clean_linker_2, # of connection points: 2
#     Edge 135, Type (0, 1), BuildingBlock: XUDNAN_clean_linker_2, # of connection points: 2
# Relax obj value: 0.122
# Max RMSD: 0.322
# Mean RMSD: 0.150
data_MOF--net-gar--node1-CEKHIL_clean_sbu_0--node2-KUMJIN_clean_sbu_0--edge1-XUDNAN_clean_linker_2
_symmetry_space_group_name_H-M    P1
_symmetry_Int_Tables_number       1
_symmetry_cell_setting            triclinic
loop_
_symmetry_equiv_pos_as_xyz
'x, y, z'
_cell_length_a     61.482619
_cell_length_b     55.636936
_cell_length_c     55.138778
_cell_angle_alpha  100.11896
_cell_angle_beta   93.788912
_cell_angle_gamma 101.66273
loop_
_atom_site_label
_atom_site_type_symbol
_atom_site_fract_x
_atom_site_fract_y
_atom_site_fract_z
_atom_type_partial_charge
Co0 Co 0.13277 0.34349 0.39121 0.0
O1 O 0.16358 0.34573 0.38785 0.0
O2 O 0.13588 0.32653 0.3584 0.0
C3 C 0.13682 0.38394 0.40733 0.0
O4 O 0.09905 0.33936 0.38808 0.0
Co5 Co 0.11738 0.35635 0.44374 0.0
O6 O 0.0894 0.35764 0.4243 0.0
C7 C 0.13102 0.30875 0.42743 0.0
C8 C 0.15719 0.3347 0.36505 0.0
C9 C 0.08476 0.34777 0.40135 0.0
O10 O 0.13071 0.31213 0.40498 0.0
O11 O 0.12834 0.32509 0.4458 0.0
O12 O 0.13547 0.37649 0.38353 0.0
O13 O 0.13765 0.36712 0.42058 0.0
Co14 Co 1.00973 0.77437 0.67301 0.0
O15 O 0.97867 0.7745 0.67478 0.0
O16 O 1.00214 0.77051 0.70554 0.0
C17 C 0.01733 0.80761 0.65466 0.0
O18 O 0.04237 0.77325 0.67852 0.0
Co19 Co 0.03122 0.76766 0.62334 0.0
O20 O 0.0601 0.77316 0.64417 0.0
C21 C 1.00199 0.72479 0.63856 0.0
C22 C 0.98222 0.77215 0.69765 0.0
C23 C 0.05999 0.77324 0.66725 0.0
O24 O 1.0024 0.73721 0.66061 0.0
O25 O 1.01017 0.7344 0.62078 0.0
O26 O 0.01694 0.81093 0.67853 0.0
O27 O 1.01196 0.7848 0.64278 0.0
Co28 Co 0.63361 0.84427 0.89168 0.0
O29 O 0.66457 0.84383 0.89234 0.0
O30 O 0.63895 0.82972 0.85941 0.0
C31 C 0.63914 0.88378 0.91133 0.0
O32 O 0.60094 0.84244 0.88346 0.0
Co33 Co 0.60966 0.8547 0.93906 0.0
O34 O 0.58356 0.85547 0.91616 0.0
C35 C 0.61927 0.80472 0.92158 0.0
C36 C 0.65965 0.83484 0.8688 0.0
C37 C 0.58358 0.84741 0.89308 0.0
O38 O 0.62614 0.81075 0.90153 0.0
O39 O 0.61401 0.82 0.93926 0.0
O40 O 0.64064 0.8788 0.88771 0.0
O41 O 0.63576 0.86502 0.92251 0.0
Co42 Co 0.5089 0.2726 0.16956 0.0
O43 O 0.47796 0.27169 0.17248 0.0
O44 O 0.50328 0.27191 0.20341 0.0
C45 C 0.5139 0.30161 0.14533 0.0
O46 O 0.54207 0.27303 0.17341 0.0
Co47 Co 0.52556 0.25847 0.11743 0.0
O48 O 0.55551 0.26534 0.13637 0.0
C49 C 0.4949 0.22366 0.13852 0.0
C50 C 0.48259 0.27054 0.1955 0.0
C51 C 0.55806 0.27014 0.16001 0.0
O52 O 0.50199 0.23528 0.16073 0.0
O53 O 0.49659 0.23526 0.12046 0.0
O54 O 0.51515 0.30907 0.16929 0.0
O55 O 0.50851 0.27795 0.13772 0.0
Co56 Co 0.10217 0.82643 0.12197 0.0
O57 O 0.06982 0.82247 0.11513 0.0
O58 O 0.0868 0.81924 0.15042 0.0
C59 C 0.10866 0.86322 0.10536 0.0
O60 O 0.13416 0.82936 0.13928 0.0
Co61 Co 0.13662 0.82765 0.08798 0.0
O62 O 0.16148 0.83537 0.11515 0.0
C63 C 0.10831 0.77801 0.0895 0.0
C64 C 0.06829 0.81922 0.13775 0.0
C65 C 0.1552 0.83291 0.1362 0.0
O66 O 0.09982 0.78878 0.10823 0.0
O67 O 0.12217 0.79077 0.07771 0.0
O68 O 0.10492 0.86322 0.12826 0.0
O69 O 0.10981 0.84133 0.0931 0.0
Co70 Co 0.53501 0.78244 0.43194 0.0
O71 O 0.56743 0.78926 0.43844 0.0
O72 O 0.54855 0.77124 0.40222 0.0
C73 C 0.53204 0.82192 0.45151 0.0
O74 O 0.50184 0.77492 0.41578 0.0
Co75 Co 0.50495 0.77953 0.47114 0.0
O76 O 0.48199 0.78528 0.44681 0.0
C77 C 0.52822 0.73864 0.46148 0.0
C78 C 0.5678 0.77965 0.41533 0.0
C79 C 0.48375 0.78055 0.42366 0.0
O80 O 0.53341 0.74763 0.44188 0.0
O81 O 0.51744 0.74982 0.47728 0.0
O82 O 0.53669 0.81726 0.42879 0.0
O83 O 0.5306 0.80294 0.4627 0.0
Co84 Co 0.60249 0.3266 0.62577 0.0
O85 O 0.57048 0.32454 0.61903 0.0
O86 O 0.58643 0.31813 0.65349 0.0
C87 C 0.61029 0.36528 0.61234 0.0
O88 O 0.63409 0.32732 0.64297 0.0
Co89 Co 0.63571 0.32737 0.59231 0.0
O90 O 0.66113 0.33347 0.6187 0.0
C91 C 0.6072 0.27796 0.59196 0.0
C92 C 0.56835 0.31973 0.64102 0.0
C93 C 0.65505 0.33053 0.6397 0.0
O94 O 0.59858 0.28905 0.61035 0.0
O95 O 0.62163 0.29048 0.58065 0.0
O96 O 0.60697 0.36321 0.63492 0.0
O97 O 0.61039 0.34403 0.59788 0.0
Co98 Co 0.03628 0.28112 0.93249 0.0
O99 O 0.06908 0.28712 0.93454 0.0
O100 O 0.04615 0.26662 0.90183 0.0
C101 C 0.03476 0.32222 0.9484 0.0
O102 O 1.00275 0.27322 0.91884 0.0
Co103 Co 1.00759 0.28461 0.97278 0.0
O104 O 0.98244 0.28599 0.94844 0.0
C105 C 0.03082 0.24288 0.96767 0.0
C106 C 0.06656 0.27595 0.9114 0.0
C107 C 0.98436 0.27873 0.92567 0.0
O108 O 0.03532 0.24824 0.9463 0.0
O109 O 0.02094 0.25665 0.98228 0.0
O110 O 0.03761 0.31444 0.92552 0.0
O111 O 0.03399 0.30531 0.96219 0.0
Co112 Co 0.43116 0.05994 0.33155 0.0
O113 O 0.43605 0.09496 0.33296 0.0
O114 O 0.40538 0.06656 0.31526 0.0
C115 C 0.44278 0.06224 0.37077 0.0
O116 O 0.42145 0.02229 0.32676 0.0
Co117 Co 0.47398 0.03939 0.34229 0.0
O118 O 0.45168 1.00739 0.33664 0.0
C119 C 0.46049 0.04578 0.29178 0.0
C120 C 0.41652 0.08971 0.32061 0.0
C121 C 0.4311 1.00421 0.32886 0.0
O122 O 0.44425 0.05534 0.29918 0.0
O123 O 0.47444 0.03902 0.30598 0.0
O124 O 0.42227 0.06341 0.36511 0.0
O125 O 0.45578 0.06258 0.3534 0.0
Co126 Co 0.3061 0.19637 0.51059 0.0
O127 O 0.33858 0.20285 0.51499 0.0
O128 O 0.31579 0.16737 0.51771 0.0
C129 C 0.30462 0.21245 0.4751 0.0
O130 O 0.27262 0.18029 0.506 0.0
Co131 Co 0.27767 0.2353 0.5099 0.0
O132 O 0.25089 0.20747 0.50203 0.0
C133 C 0.30143 0.23222 0.55741 0.0
C134 C 0.33606 0.17976 0.51777 0.0
C135 C 0.25331 0.18538 0.50241 0.0
O136 O 0.30544 0.21089 0.54743 0.0
O137 O 0.29252 0.24561 0.54476 0.0
O138 O 0.30691 0.18963 0.47435 0.0
O139 O 0.30373 0.22489 0.49702 0.0
Co140 Co 0.19212 0.01634 0.78538 0.0
O141 O 0.18857 0.97832 0.78289 0.0
O142 O 0.21926 1.00084 0.77716 0.0
C143 C 0.17463 0.02317 0.82465 0.0
O144 O 0.20796 0.05503 0.78825 0.0
Co145 Co 0.15951 0.04993 0.78851 0.0
O146 O 0.18421 0.08049 0.79414 0.0
C147 C 0.16241 0.02384 0.73753 0.0
C148 C 0.20932 0.97846 0.77911 0.0
C149 C 0.204 0.07764 0.79162 0.0
O150 O 0.17924 1.01511 0.74687 0.0
O151 O 0.1514 0.03612 0.75209 0.0
O152 O 0.1949 0.01977 0.82334 0.0
O153 O 0.16523 0.02162 0.80257 0.0
Co154 Co 0.33732 0.94988 0.0197 0.0
O155 O 0.30559 0.94034 0.0106 0.0
O156 O 0.32547 0.97926 0.02413 0.0
C157 C 0.34584 0.92567 0.98677 0.0
O158 O 0.36966 0.96746 0.02961 0.0
Co159 Co 0.36763 0.91285 0.02828 0.0
O160 O 0.39048 0.93931 0.0191 0.0
C161 C 0.33391 0.92471 0.06225 0.0
C162 C 0.30637 0.9642 0.01595 0.0
C163 C 0.38793 0.96174 0.02333 0.0
O164 O 0.33238 0.94461 0.0541 0.0
O165 O 0.34563 0.90937 0.05326 0.0
O166 O 0.3422 0.94756 0.98495 0.0
O167 O 0.34344 0.91899 1.00776 0.0
Co168 Co 0.32955 0.40368 0.03943 0.0
O169 O 0.29721 0.3964 0.03614 0.0
O170 O 0.31912 0.43315 0.05283 0.0
C171 C 0.33191 0.38433 0.9999 0.0
O172 O 0.36282 0.42039 0.04498 0.0
Co173 Co 0.35763 0.36538 0.03682 0.0
O174 O 0.38372 0.3925 0.03466 0.0
C175 C 0.33386 0.37444 0.08072 0.0
C176 C 0.29904 0.41971 0.0464 0.0
C177 C 0.38181 0.41504 0.04093 0.0
O178 O 0.32986 0.39383 0.07307 0.0
O179 O 0.34341 0.35893 0.06783 0.0
O180 O 0.32915 0.40714 1.00498 0.0
O181 O 0.33228 0.37318 0.01868 0.0
Co182 Co 0.80509 0.14781 0.03556 0.0
O183 O 0.83646 0.15941 0.04525 0.0
O184 O 0.81739 0.11992 0.04022 0.0
C185 C 0.80551 0.17027 1.00578 0.0
O186 O 0.77332 0.12847 0.02536 0.0
Co187 Co 0.77157 0.18283 0.03483 0.0
O188 O 0.75155 0.15316 0.01393 0.0
C189 C 0.78795 0.16918 0.08165 0.0
C190 C 0.83629 0.13612 0.04558 0.0
C191 C 0.75484 0.13166 0.01571 0.0
O192 O 0.79894 0.15402 0.07074 0.0
O193 O 0.77753 0.18279 0.07091 0.0
O194 O 0.81032 0.1483 1.00106 0.0
O195 O 0.80075 0.17771 0.0278 0.0
Co196 Co 0.21114 0.54502 0.25012 0.0
O197 O 0.20315 0.51009 0.23574 0.0
O198 O 0.23617 0.53528 0.23582 0.0
C199 C 0.19662 0.54123 0.28553 0.0
O200 O 0.22606 0.58098 0.26358 0.0
Co201 Co 0.17674 0.57733 0.26569 0.0
O202 O 0.20299 0.60221 0.28354 0.0
C203 C 0.18423 0.56317 0.21289 0.0
C204 C 0.22373 0.5128 0.23055 0.0
C205 C 0.2223 0.60014 0.27788 0.0
O206 O 0.20054 0.55338 0.2185 0.0
O207 O 0.17221 0.57224 0.22868 0.0
O208 O 0.21641 0.53706 0.28276 0.0
O209 O 0.18586 0.54611 0.26675 0.0
Co210 Co 0.83132 0.90255 0.53937 0.0
O211 O 0.79893 0.89784 0.53443 0.0
O212 O 0.8225 0.93335 0.55127 0.0
C213 C 0.83459 0.88255 0.50055 0.0
O214 O 0.86487 0.91716 0.54618 0.0
Co215 Co 0.85867 0.86215 0.53615 0.0
O216 O 0.88529 0.88885 0.53517 0.0
C217 C 0.83291 0.87184 0.57911 0.0
C218 C 0.80215 0.92169 0.5433 0.0
C219 C 0.88372 0.91142 0.54209 0.0
O220 O 0.82949 0.89211 0.5728 0.0
O221 O 0.84238 0.85653 0.56582 0.0
O222 O 0.83277 0.90574 0.50484 0.0
O223 O 0.83371 0.87176 0.51954 0.0
Co224 Co 0.94749 0.08523 0.28728 0.0
O225 O 0.9502 0.12389 0.29177 0.0
O226 O 0.9202 0.09839 0.27623 0.0
C227 C 0.96532 0.08271 0.32827 0.0
O228 O 0.93052 0.04647 0.28234 0.0
Co229 Co 0.97877 0.04967 0.28851 0.0
O230 O 0.95347 0.02084 0.28759 0.0
C231 C 0.97774 0.07177 0.24272 0.0
C232 C 0.92935 0.12186 0.28348 0.0
C233 C 0.93378 0.02408 0.28375 0.0
O234 O 0.96075 0.08168 0.25055 0.0
O235 O 0.98707 0.06 0.25684 0.0
O236 O 0.94574 0.08801 0.32487 0.0
O237 O 0.97421 0.08093 0.30764 0.0
Co238 Co 0.3013 0.64397 0.54022 0.0
O239 O 0.33278 0.6553 0.55081 0.0
O240 O 0.31405 0.61573 0.54212 0.0
C241 C 0.3019 0.66956 0.51304 0.0
O242 O 0.26974 0.62445 0.5279 0.0
Co243 Co 0.26578 0.67702 0.54091 0.0
O244 O 0.25086 0.6499 0.51307 0.0
C245 C 0.2803 0.66001 0.58402 0.0
C246 C 0.33302 0.63169 0.54827 0.0
C247 C 0.25316 0.62799 0.51463 0.0
O248 O 0.29474 0.64795 0.57561 0.0
O249 O 0.26292 0.65986 0.57011 0.0
O250 O 0.30715 0.64797 0.50658 0.0
O251 O 0.29626 0.67479 0.53513 0.0
Co252 Co 0.44615 0.58513 0.78603 0.0
O253 O 0.44927 0.62371 0.79186 0.0
O254 O 0.41876 0.59893 0.7763 0.0
C255 C 0.46385 0.58061 0.82629 0.0
O256 O 0.43025 0.54609 0.77845 0.0
Co257 Co 0.47906 0.5514 0.78392 0.0
O258 O 0.45443 0.52324 0.78788 0.0
C259 C 0.47491 0.57402 0.73935 0.0
C260 C 0.42847 0.62228 0.78376 0.0
C261 C 0.4344 0.52475 0.78231 0.0
O262 O 0.45898 0.58398 0.74977 0.0
O263 O 0.48545 0.56111 0.75097 0.0
O264 O 0.44383 0.58483 0.82297 0.0
O265 O 0.47318 0.58074 0.80587 0.0
Co266 Co 0.70953 0.04484 0.75102 0.0
O267 O 0.70526 1.00957 0.74169 0.0
O268 O 0.73465 0.03723 0.73478 0.0
C269 C 0.69995 0.04405 0.78945 0.0
O270 O 0.7193 0.08247 0.75805 0.0
Co271 Co 0.66905 0.0682 0.76786 0.0
O272 O 0.69085 0.10009 0.77021 0.0
C273 C 0.67802 0.05757 0.71491 0.0
C274 C 0.72479 1.01399 0.73378 0.0
C275 C 0.71064 0.10151 0.76414 0.0
O276 O 0.69398 0.0468 0.71907 0.0
O277 O 0.66625 0.06607 0.73128 0.0
O278 O 0.72036 0.04368 0.78501 0.0
O279 O 0.68612 0.04337 0.77069 0.0
Co280 Co 0.80947 0.70039 0.01408 0.0
O281 O 0.84166 0.71215 0.01991 0.0
O282 O 0.82314 0.67494 0.0243 0.0
C283 C 0.80645 0.71313 0.97722 0.0
O284 O 0.77689 0.68028 1.00938 0.0
Co285 Co 0.77612 0.73402 1.00873 0.0
O286 O 0.7523 0.70311 1.00073 0.0
C287 C 0.79944 0.73589 0.05821 0.0
C288 C 0.8422 0.69029 0.02485 0.0
C289 C 0.75669 0.68243 1.00397 0.0
O290 O 0.80648 0.716 0.0497 0.0
O291 O 0.78891 0.74685 0.04424 0.0
O292 O 0.81191 0.69197 0.97835 0.0
O293 O 0.80375 0.72621 0.99814 0.0
Co294 Co 0.92765 0.56012 0.83295 0.0
O295 O 0.93727 0.59566 0.838 0.0
O296 O 0.90416 0.57308 0.81961 0.0
C297 C 0.93885 0.55535 0.87036 0.0
O298 O 0.91239 0.52384 0.82437 0.0
Co299 Co 0.96372 0.5279 0.83758 0.0
O300 O 0.93824 0.50009 0.8225 0.0
C301 C 0.95921 0.55144 0.79472 0.0
C302 C 0.91787 0.59471 0.82658 0.0
C303 C 0.9183 0.50293 0.81898 0.0
O304 O 0.94041 0.55643 0.80015 0.0
O305 O 0.97271 0.5454 0.81005 0.0
O306 O 0.91986 0.56179 0.86708 0.0
O307 O 0.95102 0.55508 0.85235 0.0
Co308 Co 0.83739 0.45595 0.51459 0.0
O309 O 0.80643 0.45127 0.50449 0.0
O310 O 0.82818 0.48599 0.5276 0.0
C311 C 0.84638 0.44082 0.47776 0.0
O312 O 0.86989 0.46689 0.52726 0.0
Co313 Co 0.85838 0.40912 0.51108 0.0
O314 O 0.88571 0.43528 0.51145 0.0
C315 C 0.82755 0.4197 0.54812 0.0
C316 C 0.80877 0.4741 0.51618 0.0
C317 C 0.88684 0.45819 0.52085 0.0
O318 O 0.83013 0.44222 0.54478 0.0
O319 O 0.83565 0.40293 0.53502 0.0
O320 O 0.8446 0.46397 0.483 0.0
O321 O 0.8407 0.4272 0.49395 0.0
Co322 Co 0.69221 0.51634 0.28281 0.0
O323 O 0.68961 0.47794 0.27985 0.0
O324 O 0.7196 0.50176 0.27438 0.0
C325 C 0.67376 0.52277 0.32166 0.0
O326 O 0.70851 0.55484 0.28582 0.0
Co327 Co 0.6607 0.552 0.28661 0.0
O328 O 0.68629 0.58171 0.29414 0.0
C329 C 0.66331 0.52592 0.23505 0.0
C330 C 0.71056 0.47911 0.2762 0.0
C331 C 0.7056 0.57785 0.29046 0.0
O332 O 0.67918 0.51561 0.24429 0.0
O333 O 0.65335 0.53949 0.24976 0.0
O334 O 0.69398 0.519 0.32095 0.0
O335 O 0.6654 0.52256 0.29945 0.0
Eu336 Eu 0.04574 0.03475 0.01416 0.0
C337 C 0.11733 0.12385 0.07501 0.0
C338 C 0.12635 0.15015 0.04485 0.0
C339 C 0.13434 0.16815 0.0887 0.0
C340 C 0.11766 0.1265 0.05061 0.0
C341 C 0.126 0.14459 0.09435 0.0
C342 C 0.13446 0.17092 0.064 0.0
C343 C 0.11922 0.117 0.12354 0.0
N344 N 0.10947 0.10082 0.07992 0.0
C345 C 0.11101 0.09702 0.10378 0.0
C346 C 0.12662 0.14095 0.11882 0.0
Eu347 Eu 0.09785 0.06692 0.04573 0.0
N348 N 0.11004 0.10594 0.03251 0.0
C349 C 0.11145 0.10795 1.00817 0.0
C350 C 0.12704 0.1522 0.02002 0.0
C351 C 0.11961 0.13098 1.00162 0.0
H352 H 0.10592 0.07839 0.10759 0.0
H353 H 0.12012 0.1323 0.9823 0.0
H354 H 0.14119 0.18915 0.05988 0.0
H355 H 0.12012 0.11383 0.14235 0.0
H356 H 0.1055 0.09226 0.99324 0.0
H357 H 0.02254 0.97136 0.07925 0.0
H358 H 0.1335 0.17001 0.01488 0.0
H359 H 0.03831 0.02177 0.95221 0.0
H360 H 0.03733 1.01092 0.06744 0.0
H361 H 0.02397 0.98568 0.91811 0.0
H362 H 0.14104 0.18425 0.1033 0.0
H363 H 1.00949 0.93303 0.04739 0.0
H364 H 1.00201 0.91292 1.00264 0.0
H365 H 0.13324 0.15638 0.13414 0.0
H366 H 1.00237 0.91673 0.95895 0.0
N367 N 0.03333 0.9963 0.02836 0.0
C368 C 0.03157 0.99493 0.05279 0.0
C369 C 0.01608 0.9506 0.04185 0.0
C370 C 0.01706 0.95202 0.0169 0.0
C371 C 0.0233 0.97218 0.05985 0.0
C372 C 0.02594 0.97538 0.01062 0.0
H373 H 1.01047 0.94365 0.92736 0.0
N374 N 0.03424 1.00021 0.98057 0.0
C375 C 0.02471 0.98303 0.9371 0.0
C376 C 0.02635 0.97742 0.98603 0.0
C377 C 0.03295 1.00337 0.95648 0.0
C378 C 0.01712 0.95936 0.9424 0.0
C379 C 0.01764 0.95634 0.96707 0.0
O380 O 0.02085 0.04409 0.98974 0.0
O381 O 0.06607 0.0738 0.02875 0.0
O382 O 0.07286 0.07306 0.0756 0.0
O383 O 0.03917 0.04872 0.05568 0.0
O384 O 0.05365 0.06524 0.99172 0.0
O385 O 1.01323 0.03796 0.02645 0.0
O386 O 0.12231 0.05527 0.06865 0.0
O387 O 0.0775 0.02788 0.03105 0.0
O388 O 0.07108 0.02684 0.98519 0.0
O389 O 0.10389 0.05406 1.0038 0.0
O390 O 0.08938 0.03637 0.06817 0.0
O391 O 0.13088 0.06528 0.03366 0.0
C392 C 0.06347 0.08324 1.00946 0.0
C393 C 0.98279 0.03388 0.99626 0.0
C394 C 0.94528 0.04048 0.99867 0.0
C395 C 0.96755 0.04562 1.00847 0.0
C396 C 0.93802 0.02298 0.97655 0.0
C397 C 0.9756 1.01601 0.97437 0.0
C398 C 0.95316 1.0105 0.96464 0.0
C399 C 0.05115 0.06328 0.07613 0.0
C400 C 1.0062 0.04335 1.00566 0.0
C401 C 1.00914 0.93308 0.97326 0.0
C402 C 1.00891 0.93092 0.99812 0.0
C403 C 0.07955 0.01841 0.05041 0.0
C404 C 0.16064 0.0671 0.06426 0.0
C405 C 0.17671 0.05683 0.05202 0.0
C406 C 0.19842 0.06094 0.06342 0.0
C407 C 0.20436 0.07608 0.08703 0.0
C408 C 0.1666 0.08265 0.08774 0.0
C409 C 0.1885 0.08724 0.09899 0.0
C410 C 0.09225 0.03824 0.98386 0.0
C411 C 0.13748 0.05787 0.05348 0.0
H412 H 0.97332 0.05987 0.02507 0.0
H413 H 0.9208 0.01905 0.96859 0.0
H414 H 0.9873 1.00686 0.96458 0.0
H415 H 0.94759 0.99697 0.94761 0.0
H416 H 0.172 0.0443 0.03415 0.0
H417 H 0.22109 0.07906 0.09618 0.0
H418 H 0.15431 0.09055 0.09766 0.0
H419 H 0.19302 0.09888 0.11724 0.0
Eu420 Eu 0.33341 0.79001 0.24841 0.0
C421 C 0.2924 0.86304 0.32576 0.0
C422 C 0.32541 0.88906 0.35078 0.0
C423 C 0.28985 0.90142 0.35343 0.0
C424 C 0.31488 0.8674 0.33331 0.0
C425 C 0.27956 0.88002 0.33575 0.0
C426 C 0.31273 0.90591 0.36097 0.0
C427 C 0.24702 0.85256 0.31151 0.0
N428 N 0.28294 0.84182 0.30918 0.0
C429 C 0.26036 0.8361 0.30253 0.0
C430 C 0.25666 0.87464 0.32821 0.0
Eu431 Eu 0.30497 0.81121 0.30123 0.0
N432 N 0.32649 0.85045 0.32354 0.0
C433 C 0.34917 0.85533 0.32886 0.0
C434 C 0.34839 0.89319 0.35743 0.0
C435 C 0.36043 0.87663 0.34581 0.0
H436 H 0.25245 0.81838 0.29072 0.0
H437 H 0.37837 0.88013 0.35002 0.0
H438 H 0.3205 0.92253 0.37455 0.0
H439 H 0.22921 0.84787 0.30605 0.0
H440 H 0.35889 0.84305 0.31989 0.0
H441 H 0.25725 0.73306 0.18862 0.0
H442 H 0.35709 0.90951 0.37087 0.0
H443 H 0.38001 0.77004 0.26509 0.0
H444 H 0.27669 0.76569 0.22204 0.0
H445 H 0.39645 0.73396 0.25477 0.0
H446 H 0.28022 0.91452 0.36148 0.0
H447 H 0.27547 0.69954 0.17052 0.0
H448 H 0.30795 0.67943 0.17171 0.0
H449 H 0.24622 0.88712 0.33555 0.0
H450 H 0.34457 0.67834 0.1914 0.0
N451 N 0.30804 0.75443 0.22201 0.0
C452 C 0.28614 0.75303 0.21372 0.0
C453 C 0.28466 0.71465 0.18498 0.0
C454 C 0.30614 0.71463 0.19477 0.0
C455 C 0.27441 0.7336 0.19499 0.0
C456 C 0.31744 0.73472 0.21381 0.0
H457 H 0.37685 0.69769 0.2231 0.0
N458 N 0.34857 0.75331 0.24339 0.0
C459 C 0.37979 0.7334 0.24665 0.0
C460 C 0.33797 0.73389 0.22517 0.0
C461 C 0.36979 0.75366 0.2532 0.0
C462 C 0.36877 0.71309 0.22866 0.0
C463 C 0.34787 0.71334 0.21729 0.0
O464 O 0.36851 0.80536 0.2452 0.0
O465 O 0.33238 0.82197 0.27847 0.0
O466 O 0.28651 0.82057 0.26796 0.0
O467 O 0.30157 0.80205 0.23313 0.0
O468 O 0.33306 0.82949 0.24344 0.0
O469 O 0.34595 0.78764 0.21235 0.0
O470 O 0.275 0.79175 0.31341 0.0
O471 O 0.315 0.7786 0.27836 0.0
O472 O 0.3549 0.78924 0.28509 0.0
O473 O 0.336 0.80159 0.31884 0.0
O474 O 0.2816 0.77608 0.27956 0.0
O475 O 0.30516 0.80445 0.33982 0.0
C476 C 0.33367 0.83952 0.26653 0.0
C477 C 0.37502 0.82122 0.20891 0.0
C478 C 0.36923 0.84991 0.1819 0.0
C479 C 0.36076 0.83049 0.1939 0.0
C480 C 0.39226 0.86045 0.1852 0.0
C481 C 0.39801 0.8317 0.21208 0.0
C482 C 0.40657 0.8513 0.20025 0.0
C483 C 0.28619 0.81337 0.24367 0.0
C484 C 0.3659 0.80063 0.22114 0.0
C485 C 0.33704 0.694 0.19782 0.0
C486 C 0.3163 0.69472 0.18647 0.0
C487 C 0.29652 0.76372 0.27306 0.0
C488 C 0.27036 0.78354 0.35393 0.0
C489 C 0.27976 0.77359 0.37261 0.0
C490 C 0.26609 0.76247 0.38868 0.0
C491 C 0.24306 0.76144 0.38627 0.0
C492 C 0.24723 0.78243 0.35154 0.0
C493 C 0.23368 0.77144 0.3677 0.0
C494 C 0.35336 0.79392 0.30949 0.0
C495 C 0.28408 0.79322 0.33563 0.0
H496 H 0.34291 0.82277 0.19163 0.0
H497 H 0.39916 0.87545 0.17593 0.0
H498 H 0.40926 0.82472 0.22365 0.0
H499 H 0.42433 0.85933 0.20268 0.0
H500 H 0.29756 0.77424 0.3745 0.0
H501 H 0.23245 0.75312 0.39888 0.0
H502 H 0.23962 0.78994 0.33709 0.0
H503 H 0.2159 0.77066 0.36581 0.0
Eu504 Eu 0.59735 0.05092 0.52085 0.0
C505 C 0.51355 1.00746 0.56921 0.0
C506 C 0.49449 0.97057 0.53925 0.0
C507 C 0.4912 0.97207 0.58311 0.0
C508 C 0.50851 0.99473 0.54482 0.0
C509 C 0.50461 0.99638 0.58856 0.0
C510 C 0.48619 0.95919 0.55853 0.0
C511 C 0.5218 0.03469 0.61725 0.0
N512 N 0.52667 0.03091 0.574 0.0
C513 C 0.53029 0.04493 0.5975 0.0
C514 C 0.5091 1.01023 0.6128 0.0
Eu515 Eu 0.54062 0.04627 0.53931 0.0
N516 N 0.51672 1.00618 0.52649 0.0
C517 C 0.51041 0.9951 0.50218 0.0
C518 C 0.48892 0.95869 0.51441 0.0
C519 C 0.49672 0.97114 0.4958 0.0
H520 H 0.54006 0.06388 0.60099 0.0
H521 H 0.49223 0.96229 0.47652 0.0
H522 H 0.47556 0.94059 0.55459 0.0
H523 H 0.52503 0.04568 0.63587 0.0
H524 H 0.51613 1.00434 0.48749 0.0
H525 H 0.64318 0.13407 0.58739 0.0
H526 H 0.47829 0.94011 0.5094 0.0
H527 H 0.60685 0.03517 0.46088 0.0
H528 H 0.62288 0.09061 0.57458 0.0
H529 H 0.62136 0.05654 0.42768 0.0
H530 H 0.48434 0.9632 0.59776 0.0
H531 H 0.65186 0.16049 0.55617 0.0
H532 H 0.65239 0.16362 0.51152 0.0
H533 H 0.50251 1.00237 0.62814 0.0
H534 H 0.64667 0.14238 0.46787 0.0
N535 N 0.61857 0.09213 0.53609 0.0
C536 C 0.626 0.10169 0.56052 0.0
C537 C 0.64264 0.14131 0.55031 0.0
C538 C 0.6368 0.13079 0.52518 0.0
C539 C 0.63782 0.12646 0.56798 0.0
C540 C 0.62496 0.10563 0.51847 0.0
H541 H 0.63581 0.10236 0.43658 0.0
N542 N 0.61242 0.06873 0.48797 0.0
C543 C 0.62142 0.0672 0.44611 0.0
C544 C 0.6218 0.0936 0.49374 0.0
C545 C 0.61341 0.05514 0.46496 0.0
C546 C 0.62945 0.09308 0.45119 0.0
C547 C 0.6303 0.10652 0.47534 0.0
O548 O 0.61118 0.02062 0.53212 0.0
O549 O 0.56591 0.02424 0.52522 0.0
O550 O 0.56008 0.03238 0.56733 0.0
O551 O 0.59495 0.05492 0.56168 0.0
O552 O 0.58179 1.01443 0.49418 0.0
O553 O 0.63295 0.05091 0.52087 0.0
O554 O 0.52689 0.07951 0.54819 0.0
O555 O 0.57167 0.07319 0.53296 0.0
O556 O 0.57722 0.05501 0.48726 0.0
O557 O 0.54094 0.04382 0.49824 0.0
O558 O 0.55782 0.08282 0.56537 0.0
O559 O 0.50671 0.047 0.52398 0.0
C560 C 0.56521 1.00697 0.50636 0.0
C561 C 0.64176 1.01143 0.51134 0.0
C562 C 0.67318 0.99141 0.50415 0.0
C563 C 0.66228 1.00674 0.51992 0.0
C564 C 0.66334 0.98064 0.47996 0.0
C565 C 0.63209 1.00023 0.48717 0.0
C566 C 0.64281 0.9849 0.47162 0.0
C567 C 0.58113 0.0425 0.57473 0.0
C568 C 0.63123 0.02917 0.52696 0.0
C569 C 0.64038 0.13208 0.48182 0.0
C570 C 0.64362 0.14419 0.50669 0.0
C571 C 0.57323 0.09061 0.55192 0.0
C572 C 0.48825 0.07545 0.54793 0.0
C573 C 0.47352 0.08743 0.5365 0.0
C574 C 0.45701 0.09652 0.54961 0.0
C575 C 0.45524 0.09328 0.57414 0.0
C576 C 0.48589 0.07199 0.5723 0.0
C577 C 0.46949 0.08086 0.5853 0.0
C578 C 0.55546 0.04914 0.48237 0.0
C579 C 0.50765 0.06977 0.53554 0.0
H580 H 0.67005 1.01555 0.53844 0.0
H581 H 0.67163 0.96903 0.46748 0.0
H582 H 0.61644 1.00357 0.4801 0.0
H583 H 0.63533 0.97656 0.45293 0.0
H584 H 0.4753 0.09034 0.51772 0.0
H585 H 0.44255 0.09994 0.5845 0.0
H586 H 0.49703 0.06302 0.5815 0.0
H587 H 0.46795 0.07829 0.60418 0.0
Eu588 Eu 0.29302 0.308 0.77848 0.0
C589 C 0.37442 0.27226 0.82481 0.0
C590 C 0.39441 0.30836 0.85485 0.0
C591 C 0.39922 0.26697 0.85887 0.0
C592 C 0.37888 0.29772 0.83374 0.0
C593 C 0.38479 0.25662 0.83709 0.0
C594 C 0.40418 0.29284 0.8676 0.0
C595 C 0.36865 0.22225 0.80351 0.0
N596 N 0.36125 0.26299 0.80315 0.0
C597 C 0.35935 0.23866 0.79172 0.0
C598 C 0.38119 0.23121 0.8265 0.0
Eu599 Eu 0.34713 0.29172 0.78281 0.0
N600 N 0.36885 0.31222 0.82124 0.0
C601 C 0.37383 0.33769 0.8292 0.0
C602 C 0.4001 0.33435 0.86223 0.0
C603 C 0.3896 0.34906 0.84949 0.0
H604 H 0.35085 0.23204 0.77324 0.0
H605 H 0.3934 0.36919 0.85548 0.0
H606 H 0.41589 0.3007 0.884 0.0
H607 H 0.3666 0.20287 0.79457 0.0
H608 H 0.36547 0.34971 0.82069 0.0
H609 H 0.25274 0.22549 0.7068 0.0
H610 H 0.41227 0.34322 0.87801 0.0
H611 H 0.28844 0.36776 0.77994 0.0
H612 H 0.2706 0.24714 0.74738 0.0
H613 H 0.27675 0.39367 0.75184 0.0
H614 H 0.40724 0.25525 0.86859 0.0
H615 H 0.24445 0.24925 0.67485 0.0
H616 H 0.2443 0.29049 0.6631 0.0
H617 H 0.38881 0.2186 0.83539 0.0
H618 H 0.25091 0.33622 0.67522 0.0
N619 N 0.2733 0.28409 0.7398 0.0
C620 C 0.26721 0.25845 0.73437 0.0
C621 C 0.25238 0.25918 0.69297 0.0
C622 C 0.25755 0.28528 0.69876 0.0
C623 C 0.25695 0.24574 0.71098 0.0
C624 C 0.268 0.29738 0.72264 0.0
H625 H 0.26252 0.37468 0.70828 0.0
N626 N 0.28148 0.33421 0.75249 0.0
C627 C 0.27554 0.37391 0.74512 0.0
C628 C 0.27218 0.32316 0.72921 0.0
C629 C 0.28205 0.35906 0.761 0.0
C630 C 0.2676 0.36314 0.72057 0.0
C631 C 0.26541 0.33743 0.71244 0.0
O632 O 0.27604 0.33192 0.80124 0.0
O633 O 0.31942 0.30085 0.80548 0.0
O634 O 0.32189 0.2565 0.7891 0.0
O635 O 0.28695 0.26694 0.78592 0.0
O636 O 0.3112 0.3349 0.81268 0.0
O637 O 0.25875 0.29305 0.78935 0.0
O638 O 0.36474 0.27426 0.75379 0.0
O639 O 0.3203 0.29796 0.75673 0.0
O640 O 0.31812 0.34196 0.76981 0.0
O641 O 0.35281 0.33399 0.78016 0.0
O642 O 0.33055 0.26431 0.74838 0.0
O643 O 0.37929 0.31161 0.7732 0.0
C644 C 0.32156 0.32029 0.82229 0.0
C645 C 0.23989 0.32266 0.81595 0.0
C646 C 0.20447 0.31447 0.83463 0.0
C647 C 0.22018 0.30575 0.81942 0.0
C648 C 0.20854 0.33984 0.84584 0.0
C649 C 0.24304 0.34804 0.82741 0.0
C650 C 0.22757 0.35645 0.84213 0.0
C651 C 0.29959 0.25033 0.78845 0.0
C652 C 0.25811 0.31518 0.80159 0.0
C653 C 0.25592 0.32553 0.68841 0.0
C654 C 0.25209 0.2995 0.68154 0.0
C655 C 0.31835 0.27819 0.74046 0.0
C656 C 0.40398 0.28718 0.75464 0.0
C657 C 0.4184 0.29685 0.73799 0.0
C658 C 0.43859 0.28881 0.73437 0.0
C659 C 0.44414 0.27125 0.7478 0.0
C660 C 0.41035 0.27014 0.76815 0.0
C661 C 0.43023 0.2622 0.76467 0.0
C662 C 0.34027 0.34942 0.77412 0.0
C663 C 0.38159 0.29315 0.75616 0.0
H664 H 0.21718 0.2862 0.81063 0.0
H665 H 0.19663 0.34694 0.85721 0.0
H666 H 0.25768 0.36169 0.82518 0.0
H667 H 0.23035 0.37602 0.85071 0.0
H668 H 0.41368 0.31006 0.72746 0.0
H669 H 0.45955 0.26487 0.74561 0.0
H670 H 0.39983 0.26262 0.78113 0.0
H671 H 0.43483 0.24885 0.77505 0.0
Eu672 Eu 0.06278 0.07827 0.54082 0.0
C673 C 0.08303 1.00244 0.45751 0.0
C674 C 0.04685 0.98434 0.43387 0.0
C675 C 0.08061 0.98319 0.41378 0.0
C676 C 0.05979 0.99736 0.4563 0.0
C677 C 0.09354 0.99491 0.43623 0.0
C678 C 0.05736 0.97782 0.41264 0.0
C679 C 0.12901 1.00747 0.46129 0.0
N680 N 0.09534 1.01291 0.47967 0.0
C681 C 0.11798 1.01404 0.48192 0.0
C682 C 0.11678 0.99819 0.43826 0.0
Eu683 Eu 0.07444 0.02065 0.51427 0.0
N684 N 0.04979 1.00374 0.47711 0.0
C685 C 0.02696 0.99727 0.47647 0.0
C686 C 0.02366 0.97752 0.43345 0.0
C687 C 0.0137 0.98399 0.45485 0.0
H688 H 0.1277 0.02011 0.49986 0.0
H689 H 0.99573 0.97899 0.45468 0.0
H690 H 0.04763 0.96806 0.39533 0.0
H691 H 0.1469 1.00909 0.46329 0.0
H692 H 0.01839 1.00223 0.49231 0.0
H693 H 0.1438 0.11811 0.59494 0.0
H694 H 1.01328 0.96735 0.41668 0.0
H695 H 1.01151 0.0821 0.55609 0.0
H696 H 0.11793 0.08905 0.56182 0.0
H697 H 0.9936 0.09995 0.59169 0.0
H698 H 0.08846 0.97741 0.39736 0.0
H699 H 0.129 0.14104 0.63043 0.0
H700 H 0.09585 0.14891 0.65215 0.0
H701 H 0.12534 0.99261 0.42235 0.0
H702 H 0.05508 0.14214 0.65223 0.0
N703 N 0.08863 0.09807 0.57592 0.0
C704 C 0.1112 0.10045 0.57587 0.0
C705 C 0.11754 0.12912 0.61525 0.0
C706 C 0.09442 0.12565 0.61591 0.0
C707 C 0.12596 0.11633 0.5952 0.0
C708 C 0.08018 0.11006 0.59556 0.0
H709 H 0.01687 0.12351 0.63009 0.0
N710 N 0.04413 0.09207 0.57532 0.0
C711 C 1.0115 0.1015 0.59327 0.0
C712 C 0.05727 0.10628 0.5956 0.0
C713 C 0.02162 0.09086 0.57339 0.0
C714 C 0.02469 0.11487 0.61484 0.0
C715 C 0.04791 0.11797 0.61598 0.0
O716 O 0.04174 0.10354 0.53238 0.0
O717 O 0.06191 0.05399 0.50201 0.0
O718 O 0.10426 0.04999 0.50895 0.0
O719 O 0.09561 0.088 0.52426 0.0
O720 O 0.03313 0.0641 0.51074 0.0
O721 O 0.07826 0.11593 0.53571 0.0
O722 O 0.09496 0.99359 0.51765 0.0
O723 O 0.07923 0.04771 0.55195 0.0
O724 O 0.03726 0.04962 0.55463 0.0
O725 O 0.04061 1.01328 0.52879 0.0
O726 O 0.09271 0.01736 0.5508 0.0
O727 O 0.05812 0.98185 0.51447 0.0
C728 C 0.04226 0.0546 0.49194 0.0
C729 C 0.05621 0.14584 0.52753 0.0
C730 C 0.06813 0.18128 0.50789 0.0
C731 C 0.07155 0.15902 0.51435 0.0
C732 C 0.04959 0.19073 0.51541 0.0
C733 C 0.03772 0.15534 0.53497 0.0
C734 C 0.03456 0.17786 0.52908 0.0
C735 C 0.10891 0.07458 0.51345 0.0
C736 C 0.05884 0.1215 0.53217 0.0
C737 C 0.06198 0.13307 0.63643 0.0
C738 C 0.08518 0.13703 0.63633 0.0
C739 C 0.08953 0.03601 0.56635 0.0
C740 C 0.07964 0.95019 0.51805 0.0
C741 C 0.06669 0.93699 0.53338 0.0
C742 C 0.07206 0.91532 0.53967 0.0
C743 C 0.08974 0.90623 0.52893 0.0
C744 C 0.09711 0.94087 0.50748 0.0
C745 C 0.10189 0.91874 0.51264 0.0
C746 C 0.02992 0.02566 0.54482 0.0
C747 C 0.07749 0.97563 0.51689 0.0
H748 H 0.08562 0.15143 0.5082 0.0
H749 H 0.04679 0.20807 0.51076 0.0
H750 H 0.02572 0.14531 0.54522 0.0
H751 H 0.02032 0.18522 0.53487 0.0
H752 H 0.05326 0.94445 0.54144 0.0
H753 H 0.09482 0.88999 0.53372 0.0
H754 H 0.10747 0.95111 0.49588 0.0
H755 H 0.11562 0.91179 0.50477 0.0
Eu756 Eu 0.34562 0.82068 0.7766 0.0
C757 C 0.2866 0.75152 0.82368 0.0
C758 C 0.29285 0.7101 0.80815 0.0
C759 C 0.28165 0.71999 0.84953 0.0
C760 C 0.29246 0.73462 0.80485 0.0
C761 C 0.28065 0.74415 0.84598 0.0
C762 C 0.28779 0.70305 0.8307 0.0
C763 C 0.27121 0.7843 0.85887 0.0
N764 N 0.28584 0.77489 0.81986 0.0
C765 C 0.2771 0.79078 0.83644 0.0
C766 C 0.27327 0.76103 0.8638 0.0
Eu767 Eu 0.29588 0.78369 0.78099 0.0
N768 N 0.29683 0.74171 0.78299 0.0
C769 C 0.30087 0.72491 0.76346 0.0
C770 C 0.29783 0.69316 0.78849 0.0
C771 C 0.30167 0.70056 0.766 0.0
H772 H 0.27553 0.80878 0.83258 0.0
H773 H 0.30519 0.68748 0.75055 0.0
H774 H 0.28812 0.68435 0.83357 0.0
H775 H 0.26501 0.79721 0.87231 0.0
H776 H 0.30363 0.73005 0.74582 0.0
H777 H 0.33425 0.91679 0.80074 0.0
H778 H 0.29833 0.6742 0.79034 0.0
H779 H 0.36996 0.79479 0.72909 0.0
H780 H 0.33512 0.87462 0.80763 0.0
H781 H 0.38329 0.80474 0.68975 0.0
H782 H 0.27728 0.71406 0.8666 0.0
H783 H 0.34373 0.92863 0.76096 0.0
H784 H 0.35656 0.91705 0.71913 0.0
H785 H 0.26857 0.75603 0.88115 0.0
H786 H 0.36974 0.88659 0.68889 0.0
N787 N 0.34414 0.86187 0.77171 0.0
C788 C 0.33902 0.87921 0.79003 0.0
C789 C 0.34389 0.90986 0.76375 0.0
C790 C 0.34994 0.89239 0.74539 0.0
C791 C 0.3386 0.90329 0.78625 0.0
C792 C 0.34997 0.86821 0.74997 0.0
H793 H 0.37988 0.84478 0.67785 0.0
N794 N 0.35816 0.82824 0.73831 0.0
C795 C 0.37587 0.8178 0.70162 0.0
C796 C 0.35733 0.851 0.73283 0.0
C797 C 0.36837 0.81222 0.7238 0.0
C798 C 0.37388 0.84042 0.69494 0.0
C799 C 0.36493 0.85756 0.71082 0.0
O800 O 0.37937 0.81454 0.78048 0.0
O801 O 0.33048 0.77786 0.77079 0.0
O802 O 0.31617 0.79466 0.81906 0.0
O803 O 0.33386 0.8325 0.81286 0.0
O804 O 0.35829 0.79043 0.79433 0.0
O805 O 0.3728 0.84983 0.79833 0.0
O806 O 0.26296 0.79206 0.78279 0.0
O807 O 0.3109 0.82624 0.78674 0.0
O808 O 0.32743 0.80906 0.73787 0.0
O809 O 0.30559 0.77225 0.74301 0.0
O810 O 0.28414 0.81349 0.7618 0.0
O811 O 0.26622 0.75693 0.76075 0.0
C812 C 0.34486 0.76978 0.78391 0.0
C813 C 0.40948 0.84887 0.78745 0.0
C814 C 0.44957 0.85253 0.79152 0.0
C815 C 0.4286 0.84411 0.79911 0.0
C816 C 0.45146 0.86594 0.7722 0.0
C817 C 0.41147 0.86287 0.76858 0.0
C818 C 0.43243 0.87131 0.76095 0.0
C819 C 0.32801 0.81722 0.82784 0.0
C820 C 0.38781 0.83661 0.79374 0.0
C821 C 0.3641 0.88127 0.70578 0.0
C822 C 0.3566 0.89862 0.72301 0.0
C823 C 0.29683 0.83424 0.7732 0.0
C824 C 0.23076 0.75989 0.77495 0.0
C825 C 0.21159 0.75953 0.75944 0.0
C826 C 0.19021 0.75108 0.76637 0.0
C827 C 0.1883 0.74348 0.78932 0.0
C828 C 0.2285 0.75175 0.79749 0.0
C829 C 0.20735 0.74376 0.80469 0.0
C830 C 0.31485 0.78698 0.72869 0.0
C831 C 0.25264 0.77127 0.76828 0.0
H832 H 0.42712 0.83312 0.8136 0.0
H833 H 0.46761 0.87239 0.76604 0.0
H834 H 0.39695 0.86701 0.75958 0.0
H835 H 0.4339 0.88182 0.74616 0.0
H836 H 0.21336 0.76576 0.74196 0.0
H837 H 0.17207 0.7374 0.79545 0.0
H838 H 0.24295 0.75189 0.80968 0.0
H839 H 0.20571 0.73787 0.8223 0.0
Eu840 Eu 0.5761 0.042 0.0602 0.0
C841 C 0.52249 0.07618 0.97531 0.0
C842 C 0.50809 0.03732 0.94603 0.0
C843 C 0.48964 0.07201 0.94635 0.0
C844 C 0.52376 0.05181 0.96576 0.0
C845 C 0.50556 0.08662 0.96545 0.0
C846 C 0.49096 0.04747 0.9366 0.0
C847 C 0.52282 0.1262 0.99188 0.0
N848 N 0.53852 0.0902 0.99317 0.0
C849 C 0.53949 0.11519 1.00065 0.0
C850 C 0.50564 0.11179 0.97435 0.0
Eu851 Eu 0.56789 0.07156 1.00496 0.0
N852 N 0.54073 0.04258 0.97498 0.0
C853 C 0.54268 0.01877 0.96521 0.0
C854 C 0.51032 1.0132 0.93593 0.0
C855 C 0.52763 1.00387 0.94563 0.0
H856 H 0.55322 0.12666 0.01359 0.0
H857 H 0.52935 0.9851 0.93813 0.0
H858 H 0.4788 0.03657 0.92153 0.0
H859 H 0.52345 0.14588 0.99834 0.0
H860 H 0.55547 1.01054 0.97237 0.0
H861 H 0.63071 0.12404 0.12139 0.0
H862 H 0.49873 1.00161 0.92069 0.0
H863 H 0.58056 0.98271 0.0504 0.0
H864 H 0.60062 0.10253 0.08932 0.0
H865 H 0.60459 0.9564 0.06528 0.0
H866 H 0.47655 0.07973 0.93858 0.0
H867 H 0.65501 0.10041 0.14012 0.0
H868 H 0.66546 0.05945 0.14152 0.0
H869 H 0.49294 0.12046 0.96724 0.0
H870 H 0.65901 1.01417 0.12561 0.0
N871 N 0.60648 0.0659 0.08972 0.0
C872 C 0.61041 0.09135 0.09732 0.0
C873 C 0.64146 0.09055 0.12609 0.0
C874 C 0.63781 0.06468 0.11799 0.0
C875 C 0.6278 0.10394 0.11556 0.0
C876 C 0.61995 0.05271 0.09962 0.0
H877 H 0.63671 0.97574 0.09689 0.0
N878 N 0.59988 0.01661 0.07203 0.0
C879 C 0.60835 0.97638 0.07226 0.0
C880 C 0.61676 0.02738 0.09019 0.0
C881 C 0.59495 0.99131 0.0637 0.0
C882 C 0.62641 0.98735 0.09016 0.0
C883 C 0.63067 1.01309 0.09956 0.0
O884 O 0.55365 1.01274 0.07356 0.0
O885 O 0.55364 0.04724 0.02961 0.0
O886 O 0.54972 0.08875 0.03549 0.0
O887 O 0.56652 0.07927 0.07091 0.0
O888 O 0.54836 1.01196 0.03616 0.0
O889 O 0.55951 0.0513 0.09308 0.0
O890 O 0.58281 0.10443 0.99036 0.0
O891 O 0.59073 0.06581 0.03469 0.0
O892 O 0.59452 0.02346 0.03106 0.0
O893 O 0.58475 0.03892 0.99559 0.0
O894 O 0.59627 0.10103 0.02824 0.0
O895 O 0.58618 0.06712 0.97286 0.0
C896 C 0.54057 0.02639 0.0235 0.0
C897 C 0.54986 0.01988 0.1162 0.0
C898 C 0.5301 1.01108 0.15119 0.0
C899 C 0.53093 0.01956 0.12884 0.0
C900 C 0.5485 1.00326 0.16117 0.0
C901 C 0.5683 1.01219 0.12621 0.0
C902 C 0.56761 1.00399 0.14873 0.0
C903 C 0.55356 0.09125 0.05984 0.0
C904 C 0.54965 0.02814 0.09257 0.0
C905 C 0.64815 0.02483 0.11819 0.0
C906 C 0.65175 0.05058 0.12734 0.0
C907 C 0.60517 0.0858 0.03885 0.0
C908 C 0.58841 0.09706 0.94756 0.0
C909 C 0.60543 0.09284 0.9331 0.0
C910 C 0.60547 0.0978 0.90928 0.0
C911 C 0.5876 0.10641 0.89926 0.0
C912 C 0.57058 0.10595 0.93785 0.0
C913 C 0.57021 0.11055 0.91363 0.0
C914 C 0.59433 0.02412 1.00713 0.0
C915 C 0.59014 0.09093 0.97217 0.0
H916 H 0.5167 0.02561 0.12115 0.0
H917 H 0.54815 0.99693 0.17866 0.0
H918 H 0.58306 1.0124 0.11669 0.0
H919 H 0.58186 0.99814 0.1565 0.0
H920 H 0.61844 0.08482 0.94017 0.0
H921 H 0.58715 0.10993 0.88055 0.0
H922 H 0.55704 0.10904 0.94874 0.0
H923 H 0.55643 0.11724 0.90596 0.0
Eu924 Eu 0.33416 0.32736 0.29527 0.0
C925 C 0.24888 0.24435 0.24208 0.0
C926 C 0.23157 0.22685 0.27517 0.0
C927 C 0.21114 0.21832 0.23438 0.0
C928 C 0.24999 0.24139 0.26648 0.0
C929 C 0.22934 0.23281 0.22578 0.0
C930 C 0.21231 0.21521 0.25897 0.0
C931 C 0.24772 0.24857 0.19279 0.0
N932 N 0.267 0.25787 0.23405 0.0
C933 C 0.26682 0.25907 0.20935 0.0
C934 C 0.22883 0.23547 0.20105 0.0
Eu935 Eu 0.30073 0.26831 0.26167 0.0
N936 N 0.2686 0.25355 0.28199 0.0
C937 C 0.26862 0.25347 0.30693 0.0
C938 C 0.23282 0.22469 0.30003 0.0
C939 C 0.25117 0.23864 0.3161 0.0
H940 H 0.28183 0.26675 0.20177 0.0
H941 H 0.2517 0.23839 0.33572 0.0
H942 H 0.1981 0.204 0.26538 0.0
H943 H 0.24791 0.24975 0.17341 0.0
H944 H 0.28151 0.2653 0.32039 0.0
H945 H 0.37683 0.35168 0.21534 0.0
H946 H 0.21915 0.21351 0.30729 0.0
H947 H 0.35715 0.32961 0.3537 0.0
H948 H 0.34843 0.32634 0.23455 0.0
H949 H 0.39237 0.34848 0.37943 0.0
H950 H 0.19614 0.20924 0.22207 0.0
H951 H 0.41014 0.37903 0.24088 0.0
H952 H 0.43339 0.392 0.28183 0.0
H953 H 0.21421 0.22681 0.18802 0.0
H954 H 0.43864 0.38878 0.32558 0.0
N955 N 0.36411 0.34007 0.27153 0.0
C956 C 0.36232 0.33848 0.24637 0.0
C957 C 0.39743 0.36812 0.24964 0.0
C958 C 0.40034 0.36783 0.27495 0.0
C959 C 0.3787 0.35267 0.23517 0.0
C960 C 0.38324 0.35336 0.28551 0.0
H961 H 0.42393 0.37183 0.36168 0.0
N962 N 0.36928 0.33779 0.31999 0.0
C963 C 0.39107 0.34902 0.35987 0.0
C964 C 0.3862 0.35144 0.31019 0.0
C965 C 0.37123 0.33749 0.34485 0.0
C966 C 0.40876 0.36234 0.34983 0.0
C967 C 0.40635 0.36411 0.32488 0.0
O968 O 0.3315 0.35486 0.32839 0.0
O969 O 0.29897 0.30628 0.28128 0.0
O970 O 0.29813 0.29664 0.23696 0.0
O971 O 0.31891 0.33488 0.25917 0.0
O972 O 0.30505 0.32216 0.31812 0.0
O973 O 0.33914 0.36662 0.29368 0.0
O974 O 0.30095 0.23965 0.22944 0.0
O975 O 0.33608 0.28913 0.27568 0.0
O976 O 0.33922 0.29912 0.31879 0.0
O977 O 0.31243 0.26339 0.30068 0.0
O978 O 0.32931 0.27435 0.23846 0.0
O979 O 0.30457 0.23107 0.26677 0.0
C980 C 0.28954 0.31058 0.30066 0.0
C981 C 0.32911 0.39655 0.32439 0.0
C982 C 0.30896 0.42704 0.31358 0.0
C983 C 0.31383 0.40329 0.3084 0.0
C984 C 0.3195 0.44419 0.33494 0.0
C985 C 0.33937 0.41359 0.3459 0.0
C986 C 0.33453 0.43734 0.35116 0.0
C987 C 0.30676 0.32078 0.239 0.0
C988 C 0.3371 0.37359 0.31712 0.0
C989 C 0.4232 0.37879 0.3145 0.0
C990 C 0.42014 0.38078 0.28964 0.0
C991 C 0.3451 0.28471 0.25594 0.0
C992 C 0.30205 0.19731 0.23143 0.0
C993 C 0.31699 0.18543 0.24185 0.0
C994 C 0.31868 0.16159 0.23048 0.0
C995 C 0.30486 0.14906 0.20887 0.0
C996 C 0.28796 0.18494 0.20988 0.0
C997 C 0.28925 0.16069 0.19877 0.0
C998 C 0.32665 0.27705 0.31959 0.0
C999 C 0.30209 0.2229 0.24285 0.0
H1000 H 0.30642 0.39045 0.29135 0.0
H1001 H 0.31609 0.46276 0.33903 0.0
H1002 H 0.35166 0.40883 0.35815 0.0
H1003 H 0.34276 0.45058 0.36756 0.0
H1004 H 0.32812 0.19524 0.25828 0.0
H1005 H 0.30621 0.13054 0.19992 0.0
H1006 H 0.27611 0.19401 0.2017 0.0
H1007 H 0.27842 0.1511 0.18216 0.0
Eu1008 Eu 0.56655 0.57935 0.03802 0.0
C1009 C 0.58611 0.50362 0.95922 0.0
C1010 C 0.55101 0.48811 0.93305 0.0
C1011 C 0.58582 0.4878 0.91496 0.0
C1012 C 0.56298 0.49895 0.95658 0.0
C1013 C 0.59767 0.49737 0.93842 0.0
C1014 C 0.56255 0.48318 0.91228 0.0
C1015 C 0.63163 0.50634 0.96579 0.0
N1016 N 0.59719 0.51195 0.98228 0.0
C1017 C 0.6195 0.51176 0.98578 0.0
C1018 C 0.62074 0.49952 0.94192 0.0
Eu1019 Eu 0.57483 0.51887 0.01584 0.0
N1020 N 0.55211 0.50313 0.97711 0.0
C1021 C 0.52931 0.49587 0.97515 0.0
C1022 C 0.52775 0.48135 0.93114 0.0
C1023 C 0.5169 0.48486 0.95236 0.0
H1024 H 0.62822 0.51548 1.00412 0.0
H1025 H 0.49887 0.47945 0.95117 0.0
H1026 H 0.55358 0.47495 0.89418 0.0
H1027 H 0.64929 0.50683 0.96891 0.0
H1028 H 0.52008 0.49888 0.99073 0.0
H1029 H 0.64118 0.60587 0.10468 0.0
H1030 H 0.51805 0.47286 0.91348 0.0
H1031 H 0.51557 0.59039 0.04616 0.0
H1032 H 0.61985 0.59247 0.0634 0.0
H1033 H 0.49408 0.60384 0.0805 0.0
H1034 H 0.59447 0.483 0.8989 0.0
H1035 H 0.62153 0.61464 0.14187 0.0
H1036 H 0.58578 0.6189 0.15986 0.0
H1037 H 0.6301 0.49475 0.92647 0.0
H1038 H 0.54569 0.6182 0.1533 0.0
N1039 N 0.58828 0.59231 0.07705 0.0
C1040 C 0.61104 0.59592 0.07947 0.0
C1041 C 0.61205 0.60846 0.12379 0.0
C1042 C 0.58888 0.60614 0.12105 0.0
C1043 C 0.62321 0.6036 0.10285 0.0
C1044 C 0.57728 0.59792 0.09709 0.0
H1045 H 0.51148 0.613 0.12379 0.0
N1046 N 0.54433 0.59064 0.06995 0.0
C1047 C 0.51102 0.60178 0.08443 0.0
C1048 C 0.55465 0.59716 0.09343 0.0
C1049 C 0.5232 0.59416 0.06508 0.0
C1050 C 0.52088 0.60687 0.10884 0.0
C1051 C 0.5431 0.60513 0.11357 0.0
O1052 O 0.5533 0.60991 0.02815 0.0
O1053 O 0.5583 0.54878 1.00309 0.0
O1054 O 0.60797 0.54675 0.01847 0.0
O1055 O 0.59755 0.58388 0.01764 0.0
O1056 O 0.54404 0.57897 1.00324 0.0
O1057 O 0.58894 0.61588 0.03947 0.0
O1058 O 0.59856 0.49825 0.02781 0.0
O1059 O 0.58614 0.55083 0.04926 0.0
O1060 O 0.53564 0.55221 0.04628 0.0
O1061 O 0.54047 0.51276 0.02843 0.0
O1062 O 0.57191 0.51704 0.05683 0.0
O1063 O 0.56411 0.47826 0.01426 0.0
C1064 C 0.54622 0.55897 0.98886 0.0
C1065 C 0.5732 0.6517 0.03845 0.0
C1066 C 0.57504 0.69026 0.02338 0.0
C1067 C 0.57898 0.66619 0.0207 0.0
C1068 C 0.56618 0.70043 0.04465 0.0
C1069 C 0.56449 0.66174 0.05986 0.0
C1070 C 0.5613 0.68629 0.06307 0.0
C1071 C 0.6125 0.57006 0.01532 0.0
C1072 C 0.57272 0.62519 0.0313 0.0
C1073 C 0.55434 0.61224 0.13759 0.0
C1074 C 0.57718 0.61268 0.14133 0.0
C1075 C 0.58298 0.53901 0.0676 0.0
C1076 C 0.59024 0.45417 0.02744 0.0
C1077 C 0.57579 0.43699 0.03798 0.0
C1078 C 0.5828 0.41624 0.04421 0.0
C1079 C 0.60418 0.41253 0.0396 0.0
C1080 C 0.61173 0.45054 0.02323 0.0
C1081 C 0.6186 0.42969 0.02919 0.0
C1082 C 0.52853 0.52758 0.03984 0.0
C1083 C 0.58394 0.47723 0.0235 0.0
H1084 H 0.58506 0.65805 1.00379 0.0
H1085 H 0.56283 0.71902 0.04682 0.0
H1086 H 0.55951 0.65042 0.07349 0.0
H1087 H 0.55433 0.69405 0.07941 0.0
H1088 H 0.55931 0.43993 0.04169 0.0
H1089 H 0.60971 0.39642 0.0442 0.0
H1090 H 0.62324 0.46394 0.01552 0.0
H1091 H 0.63516 0.42693 0.02589 0.0
Eu1092 Eu 0.84589 0.31697 0.27521 0.0
C1093 C 0.78985 0.24167 0.31776 0.0
C1094 C 0.7972 0.20414 0.29279 0.0
C1095 C 0.78838 0.20408 0.33507 0.0
C1096 C 0.79545 0.22938 0.29555 0.0
C1097 C 0.7856 0.22879 0.33743 0.0
C1098 C 0.7942 0.19181 0.31284 0.0
C1099 C 0.77335 0.26449 0.35926 0.0
N1100 N 0.78703 0.26553 0.31957 0.0
C1101 C 0.77752 0.27642 0.33923 0.0
C1102 C 0.77776 0.24074 0.35854 0.0
Eu1103 Eu 0.79438 0.28362 0.28433 0.0
N1104 N 0.79788 0.24151 0.2762 0.0
C1105 C 0.80075 0.22913 0.25336 0.0
C1106 C 0.80111 0.1917 0.26966 0.0
C1107 C 0.80252 0.20414 0.24977 0.0
H1108 H 0.77392 0.29473 0.33967 0.0
H1109 H 0.80517 0.19459 0.2317 0.0
H1110 H 0.79567 0.17251 0.31108 0.0
H1111 H 0.76658 0.27353 0.37514 0.0
H1112 H 0.80215 0.23866 0.23803 0.0
H1113 H 0.83693 0.41238 0.31461 0.0
H1114 H 0.80252 0.17233 0.26683 0.0
H1115 H 0.86633 0.29898 0.22056 0.0
H1116 H 0.84216 0.37071 0.31623 0.0
H1117 H 0.87193 0.31355 0.18142 0.0
H1118 H 0.7854 0.19401 0.35008 0.0
H1119 H 0.83647 0.42708 0.27495 0.0
H1120 H 0.84144 0.41944 0.23001 0.0
H1121 H 0.7743 0.23144 0.37399 0.0
H1122 H 0.85099 0.39264 0.19379 0.0
N1123 N 0.843 0.35957 0.27702 0.0
C1124 C 0.84148 0.37583 0.29836 0.0
C1125 C 0.83845 0.40823 0.27533 0.0
C1126 C 0.84173 0.39243 0.25388 0.0
C1127 C 0.83872 0.40002 0.29772 0.0
C1128 C 0.84409 0.3679 0.25526 0.0
H1129 H 0.86277 0.35355 0.1757 0.0
N1130 N 0.85285 0.32979 0.23682 0.0
C1131 C 0.86531 0.32463 0.19611 0.0
C1132 C 0.8492 0.35264 0.23466 0.0
C1133 C 0.86204 0.31646 0.2184 0.0
C1134 C 0.86006 0.34715 0.19294 0.0
C1135 C 0.8524 0.36174 0.21247 0.0
O1136 O 0.87766 0.30839 0.26601 0.0
O1137 O 0.82899 0.27587 0.27432 0.0
O1138 O 0.81383 0.2964 0.32207 0.0
O1139 O 0.83956 0.32929 0.31426 0.0
O1140 O 0.85724 0.28958 0.29796 0.0
O1141 O 0.87736 0.34043 0.29488 0.0
O1142 O 0.76071 0.28829 0.28853 0.0
O1143 O 0.80886 0.32146 0.27385 0.0
O1144 O 0.83014 0.29065 0.23959 0.0
O1145 O 0.79408 0.29113 0.24579 0.0
O1146 O 0.78623 0.32131 0.2997 0.0
O1147 O 0.76567 0.25733 0.26117 0.0
C1148 C 0.84377 0.26873 0.28796 0.0
C1149 C 0.91202 0.33786 0.27811 0.0
C1150 C 0.95175 0.34723 0.29223 0.0
C1151 C 0.9294 0.33916 0.2963 0.0
C1152 C 0.95657 0.3539 0.26943 0.0
C1153 C 0.91693 0.3449 0.25555 0.0
C1154 C 0.93919 0.35288 0.25127 0.0
C1155 C 0.8284 0.31748 0.32956 0.0
C1156 C 0.8894 0.32662 0.28274 0.0
C1157 C 0.84885 0.38554 0.21076 0.0
C1158 C 0.84345 0.40081 0.23139 0.0
C1159 C 0.79742 0.3358 0.2867 0.0
C1160 C 0.72901 0.25603 0.2746 0.0
C1161 C 0.71199 0.25517 0.25621 0.0
C1162 C 0.68954 0.25201 0.2613 0.0
C1163 C 0.68435 0.24643 0.28453 0.0
C1164 C 0.72358 0.25031 0.29751 0.0
C1165 C 0.70123 0.24495 0.30218 0.0
C1166 C 0.80906 0.28697 0.23091 0.0
C1167 C 0.7514 0.26928 0.27127 0.0
H1168 H 0.92549 0.33316 0.3135 0.0
H1169 H 0.97368 0.36024 0.26582 0.0
H1170 H 0.90371 0.34392 0.24123 0.0
H1171 H 0.94298 0.35818 0.23379 0.0
H1172 H 0.71672 0.25888 0.23844 0.0
H1173 H 0.66749 0.24416 0.28965 0.0
H1174 H 0.73654 0.25111 0.31206 0.0
H1175 H 0.69707 0.24102 0.32006 0.0
Eu1176 Eu 0.07522 0.54409 0.55612 0.0
C1177 C 0.0207 0.5807 0.47436 0.0
C1178 C 1.00432 0.54244 0.44496 0.0
C1179 C 0.9862 0.57761 0.44845 0.0
C1180 C 0.0212 0.55633 0.46377 0.0
C1181 C 1.00337 0.59171 0.46647 0.0
C1182 C 0.98669 0.55305 0.43771 0.0
C1183 C 0.02228 0.63067 0.49299 0.0
N1184 N 0.0377 0.59414 0.49139 0.0
C1185 C 0.03918 0.61908 0.50001 0.0
C1186 C 1.00418 0.61687 0.47631 0.0
Eu1187 Eu 0.06653 0.57395 0.50136 0.0
N1188 N 0.03859 0.54658 0.47099 0.0
C1189 C 0.04003 0.52302 0.45963 0.0
C1190 C 1.00591 0.5185 0.43345 0.0
C1191 C 0.02384 0.50879 0.44081 0.0
H1192 H 0.05338 0.6299 0.51267 0.0
H1193 H 0.02517 0.49019 0.4321 0.0
H1194 H 0.97357 0.54256 0.42344 0.0
H1195 H 0.02334 0.6503 0.50025 0.0
H1196 H 0.05328 0.51443 0.46484 0.0
H1197 H 0.12676 0.62826 0.61692 0.0
H1198 H 0.99344 0.50741 0.41878 0.0
H1199 H 0.08234 0.48568 0.54658 0.0
H1200 H 0.09727 0.60509 0.5846 0.0
H1201 H 0.10678 0.46076 0.56326 0.0
H1202 H 0.97274 0.58574 0.44226 0.0
H1203 H 0.15174 0.60619 0.63695 0.0
H1204 H 0.16315 0.56599 0.64006 0.0
H1205 H 0.99121 0.62597 0.47066 0.0
H1206 H 0.15804 0.52065 0.62524 0.0
N1207 N 0.10469 0.56935 0.58585 0.0
C1208 C 0.10761 0.59473 0.59305 0.0
C1209 C 0.1386 0.59567 0.62273 0.0
C1210 C 0.13574 0.56979 0.61524 0.0
C1211 C 0.12455 0.60819 0.61146 0.0
C1212 C 0.11843 0.55698 0.59654 0.0
H1213 H 0.13735 0.48139 0.59639 0.0
N1214 N 0.09978 0.52009 0.56904 0.0
C1215 C 0.10966 0.4807 0.57019 0.0
C1216 C 0.11591 0.53158 0.58781 0.0
C1217 C 0.09603 0.49486 0.56064 0.0
C1218 C 0.12684 0.4924 0.58895 0.0
C1219 C 0.1301 0.51812 0.59808 0.0
O1220 O 0.051 0.51417 0.56562 0.0
O1221 O 0.05275 0.5489 0.52545 0.0
O1222 O 0.04622 0.58834 0.53068 0.0
O1223 O 0.06284 0.58024 0.56694 0.0
O1224 O 0.04942 0.5132 0.53062 0.0
O1225 O 0.05971 0.55029 0.59075 0.0
O1226 O 0.08233 0.6066 0.48689 0.0
O1227 O 0.08939 0.56844 0.53106 0.0
O1228 O 0.09415 0.52585 0.52684 0.0
O1229 O 0.08127 0.53989 0.49189 0.0
O1230 O 0.09429 0.60384 0.52522 0.0
O1231 O 0.08533 0.56908 0.46985 0.0
C1232 C 0.04066 0.5275 0.51861 0.0
C1233 C 0.04566 0.51415 0.60736 0.0
C1234 C 0.02476 0.50626 0.6422 0.0
C1235 C 0.03181 0.52139 0.62507 0.0
C1236 C 0.0326 0.484 0.6416 0.0
C1237 C 0.05396 0.49249 0.60769 0.0
C1238 C 0.0475 0.47757 0.62487 0.0
C1239 C 0.04937 0.59118 0.55502 0.0
C1240 C 0.04812 0.52729 0.58665 0.0
C1241 C 0.147 0.53068 0.6171 0.0
C1242 C 0.14986 0.55648 0.6256 0.0
C1243 C 0.10341 0.58869 0.53569 0.0
C1244 C 0.08742 0.59834 0.44391 0.0
C1245 C 0.09917 0.58663 0.42638 0.0
C1246 C 0.09875 0.59152 0.40247 0.0
C1247 C 0.08648 0.60851 0.39589 0.0
C1248 C 0.07473 0.615 0.43732 0.0
C1249 C 0.07432 0.62003 0.41329 0.0
C1250 C 0.09206 0.52553 0.50264 0.0
C1251 C 0.08955 0.59281 0.4688 0.0
H1252 H 0.02625 0.53863 0.62492 0.0
H1253 H 0.0271 0.47117 0.6537 0.0
H1254 H 0.06465 0.48654 0.59412 0.0
H1255 H 0.05349 0.46055 0.62472 0.0
H1256 H 0.10908 0.57383 0.4315 0.0
H1257 H 0.08619 0.61263 0.3774 0.0
H1258 H 0.06534 0.62414 0.45061 0.0
H1259 H 0.06466 0.63297 0.40818 0.0
Eu1260 Eu 0.79284 0.80651 0.27954 0.0
C1261 C 0.87124 0.77006 0.32661 0.0
C1262 C 0.88619 0.80445 0.3609 0.0
C1263 C 0.88916 0.7623 0.36431 0.0
C1264 C 0.87495 0.79523 0.33684 0.0
C1265 C 0.87892 0.75342 0.33996 0.0
C1266 C 0.89275 0.78777 0.37478 0.0
C1267 C 0.86812 0.72104 0.30331 0.0
N1268 N 0.86149 0.7621 0.30299 0.0
C1269 C 0.86094 0.73828 0.2908 0.0
C1270 C 0.87682 0.72854 0.32814 0.0
Eu1271 Eu 0.84877 0.79206 0.28312 0.0
N1272 N 0.86849 0.81088 0.32289 0.0
C1273 C 0.87445 0.83623 0.33132 0.0
C1274 C 0.891 0.83022 0.3701 0.0
C1275 C 0.88539 0.8462 0.35508 0.0
H1276 H 0.85444 0.73252 0.27147 0.0
H1277 H 0.88938 0.86622 0.36182 0.0
H1278 H 0.90116 0.79448 0.39336 0.0
H1279 H 0.86706 0.70205 0.29374 0.0
H1280 H 0.87024 0.84915 0.32039 0.0
H1281 H 0.75514 0.72926 0.2023 0.0
H1282 H 0.89947 0.838 0.38851 0.0
H1283 H 0.78653 0.86561 0.28869 0.0
H1284 H 0.7751 0.74843 0.24297 0.0
H1285 H 0.77146 0.89411 0.26579 0.0
H1286 H 0.89493 0.74975 0.37495 0.0
H1287 H 0.74126 0.75537 0.17555 0.0
H1288 H 0.73622 0.79767 0.16992 0.0
H1289 H 0.88254 0.71521 0.33776 0.0
H1290 H 0.7409 0.84254 0.18699 0.0
N1291 N 0.77327 0.78581 0.24009 0.0
C1292 C 0.7691 0.76041 0.23205 0.0
C1293 C 0.75003 0.76406 0.19365 0.0
C1294 C 0.75331 0.78982 0.20231 0.0
C1295 C 0.75779 0.74928 0.2087 0.0
C1296 C 0.76501 0.80026 0.22597 0.0
H1297 H 0.75386 0.87858 0.22272 0.0
N1298 N 0.77873 0.83472 0.25838 0.0
C1299 C 0.77058 0.87493 0.25688 0.0
C1300 C 0.76796 0.82551 0.23535 0.0
C1301 C 0.77919 0.85879 0.26972 0.0
C1302 C 0.76065 0.8661 0.2326 0.0
C1303 C 0.75889 0.84102 0.22167 0.0
O1304 O 0.77428 0.8225 0.30849 0.0
O1305 O 0.82112 0.80179 0.30497 0.0
O1306 O 0.82433 0.75584 0.28836 0.0
O1307 O 0.78896 0.76497 0.28415 0.0
O1308 O 0.80858 0.83412 0.31361 0.0
O1309 O 0.76059 0.78554 0.28771 0.0
O1310 O 0.86624 0.77856 0.25195 0.0
O1311 O 0.82087 0.79762 0.25795 0.0
O1312 O 0.81715 0.84294 0.27439 0.0
O1313 O 0.85249 0.83421 0.28068 0.0
O1314 O 0.83305 0.76523 0.24832 0.0
O1315 O 0.88265 0.81168 0.27781 0.0
C1316 C 0.82225 0.82153 0.32111 0.0
C1317 C 0.73501 0.80885 0.30573 0.0
C1318 C 0.70013 0.80811 0.32543 0.0
C1319 C 0.72087 0.80088 0.32339 0.0
C1320 C 0.69386 0.82322 0.30946 0.0
C1321 C 0.72794 0.82343 0.28977 0.0
C1322 C 0.70758 0.83063 0.29172 0.0
C1323 C 0.80207 0.74907 0.28715 0.0
C1324 C 0.75761 0.80332 0.3051 0.0
C1325 C 0.7478 0.83088 0.19786 0.0
C1326 C 0.74508 0.80533 0.18818 0.0
C1327 C 0.81985 0.7785 0.24108 0.0
C1328 C 0.90564 0.78825 0.25434 0.0
C1329 C 0.92019 0.79833 0.238 0.0
C1330 C 0.93926 0.78861 0.23235 0.0
C1331 C 0.94352 0.76889 0.24341 0.0
C1332 C 0.91078 0.76904 0.26552 0.0
C1333 C 0.9295 0.75938 0.26 0.0
C1334 C 0.83945 0.85 0.27692 0.0
C1335 C 0.88419 0.79612 0.25774 0.0
H1336 H 0.72615 0.78952 0.33576 0.0
H1337 H 0.67801 0.82884 0.31028 0.0
H1338 H 0.73823 0.82948 0.27592 0.0
H1339 H 0.70238 0.84202 0.27938 0.0
H1340 H 0.91643 0.81322 0.22927 0.0
H1341 H 0.95805 0.76118 0.23966 0.0
H1342 H 0.90015 0.76122 0.27827 0.0
H1343 H 0.93315 0.74437 0.26857 0.0
Eu1344 Eu 0.8331 0.29445 0.75743 0.0
C1345 C 0.79866 0.36386 0.84307 0.0
C1346 C 0.83119 0.38001 0.87299 0.0
C1347 C 0.79924 0.39933 0.87625 0.0
C1348 C 0.81954 0.36219 0.85237 0.0
C1349 C 0.78845 0.38282 0.85462 0.0
C1350 C 0.82057 0.39787 0.88548 0.0
C1351 C 0.75772 0.36801 0.82255 0.0
N1352 N 0.78886 0.34771 0.82198 0.0
C1353 C 0.76828 0.34931 0.81201 0.0
C1354 C 0.76777 0.38477 0.84403 0.0
Eu1355 Eu 0.804 0.31139 0.81118 0.0
N1356 N 0.82955 0.34538 0.83908 0.0
C1357 C 0.85232 0.34882 0.8429 0.0
C1358 C 0.85378 0.38082 0.87905 0.0
C1359 C 0.8646 0.36588 0.86325 0.0
H1360 H 0.759 0.33552 0.79671 0.0
H1361 H 0.88248 0.36775 0.86648 0.0
H1362 H 0.82917 0.41149 0.9015 0.0
H1363 H 0.74144 0.36896 0.8145 0.0
H1364 H 0.86137 0.33892 0.83022 0.0
H1365 H 0.76464 0.22579 0.69861 0.0
H1366 H 0.86338 0.39433 0.89458 0.0
H1367 H 0.88631 0.28928 0.76893 0.0
H1368 H 0.78301 0.26596 0.72384 0.0
H1369 H 0.90905 0.2575 0.76243 0.0
H1370 H 0.79151 0.41376 0.88554 0.0
H1371 H 0.78428 0.19098 0.69266 0.0
H1372 H 0.8192 0.17575 0.69967 0.0
H1373 H 0.75939 0.39904 0.85234 0.0
H1374 H 0.85818 0.18405 0.71773 0.0
N1375 N 0.81311 0.25492 0.73386 0.0
C1376 C 0.79209 0.25139 0.72206 0.0
C1377 C 0.7925 0.20875 0.70422 0.0
C1378 C 0.81428 0.21253 0.71542 0.0
C1379 C 0.78142 0.22834 0.70746 0.0
C1380 C 0.82424 0.23604 0.73049 0.0
H1381 H 0.89167 0.21428 0.74121 0.0
N1382 N 0.85558 0.26382 0.75399 0.0
C1383 C 0.8913 0.25235 0.7566 0.0
C1384 C 0.84609 0.24061 0.74088 0.0
C1385 C 0.87825 0.27023 0.76044 0.0
C1386 C 0.88143 0.22801 0.74464 0.0
C1387 C 0.85873 0.22202 0.73603 0.0
O1388 O 0.86333 0.31278 0.74361 0.0
O1389 O 0.82172 0.32572 0.78129 0.0
O1390 O 0.78207 0.31326 0.77601 0.0
O1391 O 0.80167 0.30608 0.74157 0.0
O1392 O 0.85526 0.33042 0.77816 0.0
O1393 O 0.83203 0.29908 0.71895 0.0
O1394 O 0.76858 0.2942 0.81039 0.0
O1395 O 0.80631 0.28212 0.77944 0.0
O1396 O 0.85268 0.28792 0.79179 0.0
O1397 O 0.83546 0.29987 0.82731 0.0
O1398 O 0.80517 0.27122 0.81312 0.0
O1399 O 0.78905 0.30832 0.8454 0.0
C1400 C 0.8398 0.34157 0.78567 0.0
C1401 C 0.86459 0.31821 0.70134 0.0
C1402 C 0.86328 0.33962 0.66707 0.0
C1403 C 0.85253 0.32752 0.68441 0.0
C1404 C 0.88632 0.34166 0.66602 0.0
C1405 C 0.88762 0.32004 0.70042 0.0
C1406 C 0.8984 0.33152 0.68252 0.0
C1407 C 0.78367 0.31129 0.75181 0.0
C1408 C 0.85323 0.30965 0.72154 0.0
C1409 C 0.84872 0.19849 0.72162 0.0
C1410 C 0.82656 0.19379 0.71128 0.0
C1411 C 0.80533 0.26353 0.78962 0.0
C1412 C 0.75848 0.2743 0.84373 0.0
C1413 C 0.76941 0.2662 0.86281 0.0
C1414 C 0.75838 0.24652 0.87309 0.0
C1415 C 0.73638 0.23432 0.86385 0.0
C1416 C 0.73634 0.26225 0.83475 0.0
C1417 C 0.72541 0.24224 0.84471 0.0
C1418 C 0.85196 0.29155 0.81614 0.0
C1419 C 0.76952 0.29624 0.83431 0.0
H1420 H 0.8349 0.32689 0.68582 0.0
H1421 H 0.89488 0.35116 0.65267 0.0
H1422 H 0.89724 0.31306 0.71371 0.0
H1423 H 0.91618 0.33309 0.68183 0.0
H1424 H 0.78645 0.27542 0.87011 0.0
H1425 H 0.72757 0.21922 0.87188 0.0
H1426 H 0.72746 0.26851 0.82026 0.0
H1427 H 0.70829 0.23313 0.83788 0.0
Eu1428 Eu 0.83053 0.81869 0.78968 0.0
C1429 C 0.74491 0.74655 0.74723 0.0
C1430 C 0.72731 0.72661 0.77867 0.0
C1431 C 0.70432 0.73415 0.74451 0.0
C1432 C 0.74681 0.73809 0.76929 0.0
C1433 C 0.72364 0.74328 0.73397 0.0
C1434 C 0.70616 0.72551 0.76665 0.0
C1435 C 0.74187 0.74862 0.69745 0.0
N1436 N 0.76375 0.75319 0.7364 0.0
C1437 C 0.76223 0.75063 0.71122 0.0
C1438 C 0.72245 0.74607 0.70922 0.0
Eu1439 Eu 0.79847 0.75603 0.75918 0.0
N1440 N 0.76754 0.7377 0.77949 0.0
C1441 C 0.76932 0.72353 0.7973 0.0
C1442 C 0.72954 0.71499 0.7989 0.0
C1443 C 0.75063 0.71321 0.80807 0.0
H1444 H 0.77673 0.74904 0.70161 0.0
H1445 H 0.75244 0.70299 0.8228 0.0
H1446 H 0.6911 0.71682 0.77369 0.0
H1447 H 0.74109 0.74779 0.67764 0.0
H1448 H 0.78511 0.71951 0.80315 0.0
H1449 H 0.88846 0.82302 0.71821 0.0
H1450 H 0.71499 0.70606 0.80666 0.0
H1451 H 0.84236 0.83272 0.85129 0.0
H1452 H 0.85367 0.80748 0.73517 0.0
H1453 H 0.87351 0.85678 0.88221 0.0
H1454 H 0.68793 0.73173 0.73468 0.0
H1455 H 0.92058 0.85046 0.74578 0.0
H1456 H 0.93701 0.8724 0.78884 0.0
H1457 H 0.7065 0.74345 0.69837 0.0
H1458 H 0.93312 0.88113 0.8335 0.0
N1459 N 0.86522 0.82653 0.77228 0.0
C1460 C 0.86724 0.81974 0.74758 0.0
C1461 C 0.90522 0.84377 0.75341 0.0
C1462 C 0.9034 0.84995 0.77878 0.0
C1463 C 0.88714 0.82829 0.73781 0.0
C1464 C 0.883 0.84071 0.78775 0.0
H1465 H 0.90974 0.8748 0.86853 0.0
N1466 N 0.86129 0.8352 0.82054 0.0
C1467 C 0.87594 0.85342 0.86274 0.0
C1468 C 0.88097 0.84516 0.81275 0.0
C1469 C 0.85845 0.83942 0.84519 0.0
C1470 C 0.89631 0.86368 0.85494 0.0
C1471 C 0.89905 0.85962 0.82968 0.0
O1472 O 0.82114 0.84885 0.81473 0.0
O1473 O 0.79651 0.79451 0.77511 0.0
O1474 O 0.80001 0.78339 0.73192 0.0
O1475 O 0.82186 0.82255 0.75033 0.0
O1476 O 0.80121 0.81251 0.81186 0.0
O1477 O 0.82722 0.85304 0.77725 0.0
O1478 O 0.81047 0.73794 0.72559 0.0
O1479 O 0.83173 0.78202 0.76669 0.0
O1480 O 0.83393 0.79368 0.81778 0.0
O1481 O 0.8057 0.75826 0.80112 0.0
O1482 O 0.83047 0.74565 0.77177 0.0
O1483 O 0.78622 0.71639 0.74466 0.0
C1484 C 0.78689 0.79871 0.79429 0.0
C1485 C 0.83142 0.89014 0.80738 0.0
C1486 C 0.82924 0.93171 0.80157 0.0
C1487 C 0.82535 0.90604 0.79256 0.0
C1488 C 0.84016 0.94185 0.82541 0.0
C1489 C 0.84277 0.90022 0.83111 0.0
C1490 C 0.84734 0.92611 0.83994 0.0
C1491 C 0.80971 0.80691 0.73121 0.0
C1492 C 0.8223 0.86339 0.79865 0.0
C1493 C 0.91914 0.86971 0.82083 0.0
C1494 C 0.92133 0.86481 0.79541 0.0
C1495 C 0.84335 0.76736 0.77287 0.0
C1496 C 0.80611 0.69381 0.71804 0.0
C1497 C 0.82379 0.68901 0.7322 0.0
C1498 C 0.83071 0.66658 0.72557 0.0
C1499 C 0.81986 0.64878 0.70484 0.0
C1500 C 0.79508 0.67596 0.69743 0.0
C1501 C 0.80196 0.65347 0.69086 0.0
C1502 C 0.82036 0.77235 0.81951 0.0
C1503 C 0.79759 0.71621 0.7256 0.0
H1504 H 0.81579 0.89817 0.77464 0.0
H1505 H 0.84258 0.96166 0.8329 0.0
H1506 H 0.84736 0.88819 0.84308 0.0
H1507 H 0.85564 0.93386 0.8584 0.0
H1508 H 0.8321 0.70253 0.74839 0.0
H1509 H 0.82503 0.63123 0.69976 0.0
H1510 H 0.78097 0.67929 0.68666 0.0
H1511 H 0.79332 0.63964 0.67506 0.0
Eu1512 Eu 0.54555 0.53581 0.51603 0.0
C1513 C 0.60935 0.62296 0.57052 0.0
C1514 C 0.6176 0.64806 0.53909 0.0
C1515 C 0.62025 0.66849 0.58209 0.0
C1516 C 0.61111 0.6244 0.5458 0.0
C1517 C 0.61495 0.64507 0.58895 0.0
C1518 C 0.62143 0.66998 0.5572 0.0
C1519 C 0.61345 0.61953 0.62003 0.0
N1520 N 0.60448 0.60008 0.57687 0.0
C1521 C 0.60784 0.59823 0.60129 0.0
C1522 C 0.61647 0.64307 0.61388 0.0
Eu1523 Eu 0.59818 0.56462 0.54371 0.0
N1524 N 0.60831 0.60286 0.52865 0.0
C1525 C 0.61321 0.60409 0.50494 0.0
C1526 C 0.62123 0.64912 0.51454 0.0
C1527 C 0.61941 0.62703 0.49752 0.0
H1528 H 0.60554 0.58018 0.60664 0.0
H1529 H 0.62273 0.62761 0.47857 0.0
H1530 H 0.62631 0.68819 0.55227 0.0
H1531 H 0.61543 0.61771 0.63924 0.0
H1532 H 0.61208 0.58774 0.4911 0.0
H1533 H 0.52666 0.47477 0.58444 0.0
H1534 H 0.62622 0.66688 0.50874 0.0
H1535 H 0.54096 0.51872 0.45312 0.0
H1536 H 0.53988 0.51384 0.57114 0.0
H1537 H 0.5298 0.48093 0.42125 0.0
H1538 H 0.62436 0.68555 0.59599 0.0
H1539 H 0.5151 0.43538 0.55381 0.0
H1540 H 0.50943 0.4134 0.50987 0.0
H1541 H 0.62096 0.65957 0.62846 0.0
H1542 H 0.51109 0.41492 0.46587 0.0
N1543 N 0.5359 0.49809 0.53232 0.0
C1544 C 0.53458 0.49743 0.55698 0.0
C1545 C 0.52096 0.45276 0.5476 0.0
C1546 C 0.5223 0.45321 0.52251 0.0
C1547 C 0.52732 0.47494 0.5649 0.0
C1548 C 0.53023 0.47636 0.51527 0.0
H1549 H 0.51882 0.43971 0.4329 0.0
N1550 N 0.53906 0.49952 0.48368 0.0
C1551 C 0.5307 0.47947 0.44059 0.0
C1552 C 0.53179 0.4771 0.4904 0.0
C1553 C 0.53746 0.50092 0.45899 0.0
C1554 C 0.52445 0.45629 0.44725 0.0
C1555 C 0.52455 0.45488 0.47229 0.0
O1556 O 0.52559 0.54498 0.48585 0.0
O1557 O 0.57163 0.57099 0.51699 0.0
O1558 O 0.57232 0.56824 0.57438 0.0
O1559 O 0.53657 0.54959 0.55586 0.0
O1560 O 0.54116 0.57564 0.52818 0.0
O1561 O 0.50915 0.52655 0.51385 0.0
O1562 O 0.61894 0.55535 0.57277 0.0
O1563 O 0.57216 0.52936 0.54286 0.0
O1564 O 0.57109 0.53537 0.48473 0.0
O1565 O 0.60694 0.55004 0.50395 0.0
O1566 O 0.60228 0.52434 0.53267 0.0
O1567 O 0.63454 0.57486 0.54474 0.0
C1568 C 0.55985 0.58732 0.52251 0.0
C1569 C 0.48551 0.53849 0.48364 0.0
C1570 C 0.45221 0.55531 0.48857 0.0
C1571 C 0.47279 0.552 0.49861 0.0
C1572 C 0.44467 0.54501 0.46351 0.0
C1573 C 0.47781 0.52842 0.45872 0.0
C1574 C 0.45745 0.53165 0.44872 0.0
C1575 C 0.55014 0.56171 0.5761 0.0
C1576 C 0.50694 0.53447 0.49313 0.0
C1577 C 0.51673 0.43203 0.47954 0.0
C1578 C 0.51568 0.43119 0.50457 0.0
C1579 C 0.5835 0.51244 0.53793 0.0
C1580 C 0.65905 0.56689 0.57706 0.0
C1581 C 0.67495 0.5589 0.56272 0.0
C1582 C 0.69506 0.5564 0.57412 0.0
C1583 C 0.69972 0.56305 0.59999 0.0
C1584 C 0.66356 0.57355 0.60291 0.0
C1585 C 0.68406 0.57195 0.61432 0.0
C1586 C 0.59331 0.54008 0.48326 0.0
C1587 C 0.63718 0.566 0.56486 0.0
H1588 H 0.47876 0.55965 0.51792 0.0
H1589 H 0.42901 0.54753 0.45525 0.0
H1590 H 0.48758 0.518 0.447 0.0
H1591 H 0.45159 0.52384 0.42945 0.0
H1592 H 0.6711 0.55306 0.54278 0.0
H1593 H 0.71528 0.56108 0.60902 0.0
H1594 H 0.65121 0.5797 0.6142 0.0
H1595 H 0.68759 0.57702 0.63426 0.0
Eu1596 Eu 0.09614 0.54706 0.01966 0.0
C1597 C 1.01356 0.50774 0.06351 0.0
C1598 C 0.99701 0.47189 0.03122 0.0
C1599 C 0.99223 0.47003 0.07433 0.0
C1600 C 1.01001 0.4964 0.0387 0.0
C1601 C 1.00405 0.495 0.0815 0.0
C1602 C 0.98877 0.45847 0.04923 0.0
C1603 C 0.01641 0.53341 0.11179 0.0
N1604 N 0.02505 0.53188 0.06983 0.0
C1605 C 0.02552 0.54527 0.09327 0.0
C1606 C 1.00601 0.50803 0.10599 0.0
Eu1607 Eu 0.04117 0.54968 0.03744 0.0
N1608 N 0.01798 0.50995 0.02175 0.0
C1609 C 1.01196 0.50111 0.99707 0.0
C1610 C 0.99196 0.462 1.00583 0.0
C1611 C 0.999 0.47692 0.98869 0.0
H1612 H 0.03372 0.56486 0.09774 0.0
H1613 H 0.9947 0.4697 0.96904 0.0
H1614 H 0.97905 0.43947 0.04387 0.0
H1615 H 0.01744 0.54381 0.13051 0.0
H1616 H 0.01756 0.51255 0.98386 0.0
H1617 H 0.14676 0.62367 0.09091 0.0
H1618 H 0.98204 0.44323 0.99931 0.0
H1619 H 0.10027 0.54018 0.95724 0.0
H1620 H 0.12676 0.58074 0.07432 0.0
H1621 H 0.11008 0.56692 0.92692 0.0
H1622 H 0.9851 0.45977 0.08794 0.0
H1623 H 0.15329 0.65446 0.06358 0.0
H1624 H 0.15048 0.66354 0.02083 0.0
H1625 H 0.99891 0.4989 0.12037 0.0
H1626 H 0.14018 0.64823 0.97615 0.0
N1627 N 0.11995 0.58683 0.0375 0.0
C1628 C 0.12867 0.59373 0.06187 0.0
C1629 C 0.14417 0.63552 0.05602 0.0
C1630 C 0.13688 0.62793 0.03079 0.0
C1631 C 0.14046 0.61819 0.07151 0.0
C1632 C 0.12482 0.60309 0.02188 0.0
H1633 H 0.12551 0.61223 0.94099 0.0
N1634 N 0.10823 0.57029 0.9886 0.0
C1635 C 0.11224 0.57508 0.94648 0.0
C1636 C 0.11868 0.59461 0.99674 0.0
C1637 C 0.10649 0.56003 0.96386 0.0
C1638 C 0.12094 0.60061 0.95449 0.0
C1639 C 0.12488 0.61057 0.97988 0.0
O1640 O 0.11018 0.5206 0.99515 0.0
O1641 O 0.06095 0.52383 0.01696 0.0
O1642 O 0.05878 0.53617 0.06766 0.0
O1643 O 0.09578 0.54939 0.06046 0.0
O1644 O 0.08613 0.50922 0.03087 0.0
O1645 O 0.12833 0.53873 0.03107 0.0
O1646 O 0.0258 0.58084 0.05113 0.0
O1647 O 0.07362 0.57383 0.03137 0.0
O1648 O 0.07208 0.53801 0.98508 0.0
O1649 O 0.04573 0.55935 0.99974 0.0
O1650 O 0.06095 0.58338 0.06489 0.0
O1651 O 1.00947 0.55331 0.01931 0.0
C1652 C 0.06512 0.50413 0.02351 0.0
C1653 C 0.14847 0.51862 1.00065 0.0
C1654 C 0.18098 0.50006 1.00374 0.0
C1655 C 0.16298 0.50822 0.01434 0.0
C1656 C 0.18469 0.5029 0.97944 0.0
C1657 C 0.15258 0.5217 0.97651 0.0
C1658 C 0.17069 0.51394 0.96604 0.0
C1659 C 0.08033 0.54117 0.07418 0.0
C1660 C 0.12764 0.52251 0.01068 0.0
C1661 C 0.13568 0.63563 0.98881 0.0
C1662 C 0.14162 0.64432 0.01423 0.0
C1663 C 0.07613 0.59071 0.05102 0.0
C1664 C 0.98685 0.57485 0.04434 0.0
C1665 C 0.97671 0.59461 0.04063 0.0
C1666 C 0.95654 0.5968 0.05042 0.0
C1667 C 0.94669 0.57929 0.06414 0.0
C1668 C 0.97675 0.5574 0.05797 0.0
C1669 C 0.95681 0.55973 0.06793 0.0
C1670 C 0.05611 0.54983 0.9815 0.0
C1671 C 1.00841 0.57347 0.03484 0.0
H1672 H 0.15969 0.50545 0.03286 0.0
H1673 H 0.19853 0.49677 0.97094 0.0
H1674 H 0.14149 0.52945 0.96554 0.0
H1675 H 0.17367 0.5161 0.94734 0.0
H1676 H 0.98444 0.60817 0.0301 0.0
H1677 H 0.93117 0.58078 0.0719 0.0
H1678 H 0.98424 0.54206 0.06097 0.0
H1679 H 0.94916 0.54633 0.07859 0.0
H1680 H 0.03127 0.19337 0.94302 0.0
H1681 H 0.04703 0.24291 0.01481 0.0
H1682 H 0.05802 0.20916 0.03306 0.0
H1683 H 1.00733 0.13837 0.96828 0.0
H1684 H 0.01726 0.11661 0.94581 0.0
H1685 H 1.01148 0.14492 0.93785 0.0
H1686 H 0.0517 0.15688 0.92589 0.0
H1687 H 0.05754 0.12857 0.93378 0.0
H1688 H 0.07507 0.15844 0.94812 0.0
H1689 H 0.06633 0.16839 0.04467 0.0
H1690 H 0.07068 0.12551 0.04748 0.0
H1691 H 0.05033 0.10178 0.96871 0.0
C1692 C 0.03731 0.19724 0.9625 0.0
C1693 C 0.03836 0.22136 0.97727 0.0
C1694 C 0.04595 0.22494 1.00286 0.0
C1695 C 0.05231 0.20573 0.01352 0.0
C1696 C 0.05087 0.18225 0.99868 0.0
C1697 C 0.04342 0.17787 0.97369 0.0
C1698 C 0.04244 0.15047 0.96225 0.0
C1699 C 0.01819 0.13679 0.95299 0.0
C1700 C 0.0576 0.14849 0.94126 0.0
C1701 C 0.05117 0.1405 0.98435 0.0
C1702 C 0.05571 0.15905 1.00532 0.0
C1703 C 0.063 0.15389 0.02817 0.0
C1704 C 0.06563 0.12937 0.02964 0.0
C1705 C 0.06152 0.10999 1.00835 0.0
C1706 C 0.05411 0.11601 0.98544 0.0
H1707 H 0.19878 0.86052 0.154 0.0
H1708 H 0.14971 0.7954 0.16232 0.0
H1709 H 0.17743 0.78408 0.19025 0.0
H1710 H 0.24743 0.83721 0.15467 0.0
H1711 H 0.26545 0.86382 0.17486 0.0
H1712 H 0.2416 0.86795 0.15656 0.0
H1713 H 0.227 0.88865 0.19615 0.0
H1714 H 0.25095 0.88478 0.21457 0.0
H1715 H 0.22319 0.8723 0.22152 0.0
H1716 H 0.21095 0.77854 0.21622 0.0
H1717 H 0.24702 0.77993 0.23933 0.0
H1718 H 0.27598 0.84857 0.21564 0.0
C1719 C 0.19381 0.84409 0.16202 0.0
C1720 C 0.17178 0.8289 0.15585 0.0
C1721 C 0.16614 0.80759 0.16688 0.0
C1722 C 0.18192 0.80091 0.18274 0.0
C1723 C 0.20343 0.81601 0.18822 0.0
C1724 C 0.20929 0.83752 0.1787 0.0
C1725 C 0.23342 0.85083 0.18857 0.0
C1726 C 0.24782 0.85519 0.16738 0.0
C1727 C 0.23366 0.87562 0.20623 0.0
C1728 C 0.24086 0.83221 0.20298 0.0
C1729 C 0.22294 0.81267 0.2031 0.0
C1730 C 0.22507 0.79363 0.21592 0.0
C1731 C 0.24584 0.79442 0.22882 0.0
C1732 C 0.26487 0.81359 0.22842 0.0
C1733 C 0.26212 0.83306 0.21557 0.0
H1734 H 0.54135 0.86515 0.43254 0.0
H1735 H 0.52649 0.8396 0.50067 0.0
H1736 H 0.53101 0.88374 0.52228 0.0
H1737 H 0.58383 0.91859 0.46014 0.0
H1738 H 0.57647 0.93776 0.43912 0.0
H1739 H 0.57091 0.9043 0.42927 0.0
H1740 H 0.52912 0.90363 0.418 0.0
H1741 H 0.5346 0.93711 0.4279 0.0
H1742 H 0.51355 0.91739 0.44119 0.0
H1743 H 0.53963 0.933 0.53702 0.0
H1744 H 0.55119 0.97929 0.54231 0.0
H1745 H 0.55933 0.97154 0.46416 0.0
C1746 C 0.53878 0.86869 0.45197 0.0
C1747 C 0.53341 0.84854 0.46474 0.0
C1748 C 0.53049 0.85444 0.49028 0.0
C1749 C 0.53306 0.8796 0.50275 0.0
C1750 C 0.53856 0.89899 0.48958 0.0
C1751 C 0.54133 0.89364 0.46466 0.0
C1752 C 0.54796 0.91756 0.45463 0.0
C1753 C 0.57116 0.91967 0.44523 0.0
C1754 C 0.53025 0.919 0.43422 0.0
C1755 C 0.54851 0.93735 0.47762 0.0
C1756 C 0.54307 0.92648 0.49773 0.0
C1757 C 0.54357 0.94146 0.52116 0.0
C1758 C 0.54996 0.96788 0.52402 0.0
C1759 C 0.5555 0.97934 0.50354 0.0
C1760 C 0.55466 0.96357 0.48012 0.0
H1761 H 0.53407 0.28003 0.6436 0.0
H1762 H 0.55602 0.36042 0.66571 0.0
H1763 H 0.52266 0.362 0.68833 0.0
H1764 H 0.47289 0.27966 0.63673 0.0
H1765 H 0.46551 0.25105 0.64829 0.0
H1766 H 0.48975 0.25661 0.63167 0.0
H1767 H 0.51443 0.24971 0.66867 0.0
H1768 H 0.49029 0.24405 0.68529 0.0
H1769 H 0.51439 0.26806 0.69908 0.0
H1770 H 0.48805 0.35437 0.71103 0.0
H1771 H 0.45671 0.33789 0.73382 0.0
H1772 H 0.45738 0.2624 0.69755 0.0
C1773 C 0.53155 0.29794 0.65288 0.0
C1774 C 0.54743 0.32017 0.65281 0.0
C1775 C 0.54387 0.34326 0.6654 0.0
C1776 C 0.52495 0.34432 0.67823 0.0
C1777 C 0.50958 0.32209 0.67815 0.0
C1778 C 0.51263 0.29932 0.66571 0.0
C1779 C 0.49423 0.27807 0.66965 0.0
C1780 C 0.47974 0.26561 0.64513 0.0
C1781 C 0.50393 0.25885 0.68138 0.0
C1782 C 0.48119 0.29222 0.68741 0.0
C1783 C 0.48991 0.31768 0.69152 0.0
C1784 C 0.48098 0.33448 0.70774 0.0
C1785 C 0.46309 0.32499 0.72053 0.0
C1786 C 0.45455 0.29891 0.71743 0.0
C1787 C 0.46352 0.28245 0.70024 0.0
H1788 H 0.03385 0.80418 0.61024 0.0
H1789 H 0.01615 0.85711 0.66915 0.0
H1790 H 0.02609 0.89069 0.64493 0.0
H1791 H 0.08155 0.84675 0.59691 0.0
H1792 H 0.07739 0.83362 0.56424 0.0
H1793 H 0.06835 0.81424 0.58619 0.0
H1794 H 0.0283 0.8024 0.56334 0.0
H1795 H 0.03713 0.82191 0.54144 0.0
H1796 H 0.01401 0.82681 0.55876 0.0
H1797 H 0.03931 0.91833 0.61428 0.0
H1798 H 0.05584 0.93809 0.58125 0.0
H1799 H 0.06265 0.86546 0.54206 0.0
C1800 C 0.032 0.82279 0.61811 0.0
C1801 C 0.02423 0.82816 0.64148 0.0
C1802 C 0.02228 0.8528 0.65128 0.0
C1803 C 0.02773 0.87186 0.63761 0.0
C1804 C 0.03526 0.86581 0.61445 0.0
C1805 C 0.03756 0.84188 0.60495 0.0
C1806 C 0.04691 0.84022 0.58025 0.0
C1807 C 0.06991 0.8333 0.58201 0.0
C1808 C 0.0306 0.82175 0.55974 0.0
C1809 C 0.04903 0.86686 0.57689 0.0
C1810 C 0.04244 0.88145 0.59684 0.0
C1811 C 0.04426 0.90702 0.59843 0.0
C1812 C 0.05348 0.91802 0.57935 0.0
C1813 C 0.0605 0.90336 0.55878 0.0
C1814 C 0.05774 0.87736 0.55751 0.0
H1815 H 0.54694 0.86838 0.89906 0.0
H1816 H 0.57374 0.81491 0.84905 0.0
H1817 H 0.54079 0.8081 0.8189 0.0
H1818 H 0.48736 0.83619 0.88339 0.0
H1819 H 0.47823 0.86521 0.88525 0.0
H1820 H 0.5028 0.86394 0.90429 0.0
H1821 H 0.52591 0.89998 0.88659 0.0
H1822 H 0.50153 0.90133 0.86739 0.0
H1823 H 0.52649 0.89675 0.85354 0.0
H1824 H 0.5076 0.81042 0.7923 0.0
H1825 H 0.47451 0.82056 0.77158 0.0
H1826 H 0.4685 0.87155 0.83863 0.0
C1827 C 0.54561 0.85491 0.88197 0.0
C1828 C 0.56289 0.84231 0.87631 0.0
C1829 C 0.56077 0.82501 0.85364 0.0
C1830 C 0.54206 0.82086 0.83643 0.0
C1831 C 0.5256 0.83408 0.84221 0.0
C1832 C 0.52703 0.8506 0.86446 0.0
C1833 C 0.50765 0.86359 0.86526 0.0
C1834 C 0.49315 0.85681 0.88576 0.0
C1835 C 0.5159 0.89209 0.86837 0.0
C1836 C 0.49551 0.85225 0.83976 0.0
C1837 C 0.50611 0.83517 0.82683 0.0
C1838 C 0.49893 0.82349 0.80229 0.0
C1839 C 0.48035 0.82945 0.79064 0.0
C1840 C 0.4693 0.84678 0.80365 0.0
C1841 C 0.47679 0.85812 0.82851 0.0
H1842 H 0.48595 0.19537 0.09245 0.0
H1843 H 0.49917 0.19076 0.16963 0.0
H1844 H 0.50964 0.15028 0.15648 0.0
H1845 H 0.47207 0.12749 0.06181 0.0
H1846 H 0.48903 0.13452 0.03743 0.0
H1847 H 0.47446 0.15719 0.05217 0.0
H1848 H 0.51197 0.1899 0.06208 0.0
H1849 H 0.52673 0.16721 0.0482 0.0
H1850 H 0.53491 0.18316 0.07985 0.0
H1851 H 0.52879 0.11824 0.13603 0.0
H1852 H 0.55091 0.0943 0.10984 0.0
H1853 H 0.52782 0.12237 0.04644 0.0
C1854 C 0.48993 0.18532 0.10669 0.0
C1855 C 0.492 0.19632 0.13208 0.0
C1856 C 0.49747 0.18265 0.15006 0.0
C1857 C 0.50356 0.1597 0.14273 0.0
C1858 C 0.50406 0.15099 0.11749 0.0
C1859 C 0.49711 0.16329 0.0997 0.0
C1860 C 0.50403 0.15394 0.07458 0.0
C1861 C 0.48367 0.14258 0.05537 0.0
C1862 C 0.52036 0.17478 0.06569 0.0
C1863 C 0.51581 0.13432 0.08094 0.0
C1864 C 0.51574 0.13287 0.1057 0.0
C1865 C 0.52832 0.1186 0.11645 0.0
C1866 C 0.54102 0.10523 0.10138 0.0
C1867 C 0.54097 0.10622 0.07583 0.0
C1868 C 0.52805 0.12085 0.06565 0.0
H1869 H 0.16634 0.29716 0.33102 0.0
H1870 H 0.18504 0.37674 0.36027 0.0
H1871 H 0.21743 0.38043 0.33624 0.0
H1872 H 0.21734 0.28889 0.34131 0.0
H1873 H 0.21666 0.26459 0.31494 0.0
H1874 H 0.19115 0.26892 0.3268 0.0
H1875 H 0.17563 0.27383 0.28356 0.0
H1876 H 0.20134 0.26927 0.27143 0.0
H1877 H 0.19113 0.29687 0.26828 0.0
H1878 H 0.25185 0.37406 0.32051 0.0
H1879 H 0.28563 0.35841 0.31143 0.0
H1880 H 0.24543 0.2833 0.29168 0.0
C1881 C 0.1767 0.31541 0.33116 0.0
C1882 C 0.17337 0.33668 0.34701 0.0
C1883 C 0.18753 0.36029 0.34795 0.0
C1884 C 0.2058 0.3626 0.3342 0.0
C1885 C 0.20961 0.34107 0.31968 0.0
C1886 C 0.19535 0.3179 0.3178 0.0
C1887 C 0.20581 0.29715 0.30569 0.0
C1888 C 0.20786 0.27886 0.32327 0.0
C1889 C 0.19269 0.28348 0.28075 0.0
C1890 C 0.22844 0.31213 0.30215 0.0
C1891 C 0.23012 0.33743 0.30996 0.0
C1892 C 0.2505 0.35449 0.31287 0.0
C1893 C 0.26966 0.3454 0.30791 0.0
C1894 C 0.26844 0.31948 0.30043 0.0
C1895 C 0.24738 0.30295 0.29667 0.0
H1896 H 0.96931 0.08857 0.19307 0.0
H1897 H 0.01517 0.05444 0.23228 0.0
H1898 H 0.03553 0.04968 0.19701 0.0
H1899 H 0.96972 0.05046 0.13077 0.0
H1900 H 0.97147 0.07549 0.1137 0.0
H1901 H 0.95877 0.0775 0.14235 0.0
H1902 H 0.98594 0.11972 0.1597 0.0
H1903 H 0.99871 0.11778 0.13107 0.0
H1904 H 0.01559 0.12174 0.16006 0.0
H1905 H 0.05391 0.0477 0.15783 0.0
H1906 H 0.06709 0.0482 0.1167 0.0
H1907 H 1.01253 0.08169 0.09592 0.0
C1908 C 0.98361 0.08014 0.1945 0.0
C1909 C 0.98938 0.07185 0.21738 0.0
C1910 C 1.00886 0.06113 0.21656 0.0
C1911 C 0.02123 0.05819 0.19596 0.0
C1912 C 0.0152 0.06608 0.17446 0.0
C1913 C 0.99692 0.07701 0.17324 0.0
C1914 C 0.99522 0.08395 0.14695 0.0
C1915 C 0.97242 0.07108 0.13258 0.0
C1916 C 0.99907 0.11249 0.14959 0.0
C1917 C 0.01454 0.07419 0.13389 0.0
C1918 C 0.02598 0.0645 0.15081 0.0
C1919 C 0.0449 0.05522 0.14449 0.0
C1920 C 0.05246 0.05563 0.1207 0.0
C1921 C 0.04135 0.06476 0.10199 0.0
C1922 C 0.02175 0.0742 0.1091 0.0
H1923 H 0.29707 0.6608 0.46181 0.0
H1924 H 0.30514 0.71885 0.52771 0.0
H1925 H 0.30114 0.74966 0.50196 0.0
H1926 H 0.32566 0.70259 0.42124 0.0
H1927 H 0.3063 0.68711 0.39443 0.0
H1928 H 0.31309 0.66979 0.41755 0.0
H1929 H 0.27108 0.65607 0.4227 0.0
H1930 H 0.26421 0.67328 0.39962 0.0
H1931 H 0.2549 0.67956 0.42997 0.0
H1932 H 0.29228 0.77308 0.47109 0.0
H1933 H 0.2782 0.78838 0.43501 0.0
H1934 H 0.27538 0.71639 0.38809 0.0
C1935 C 0.29857 0.68014 0.47062 0.0
C1936 C 0.30154 0.68755 0.49665 0.0
C1937 C 0.30288 0.71283 0.50775 0.0
C1938 C 0.30078 0.73054 0.49331 0.0
C1939 C 0.29742 0.72271 0.46778 0.0
C1940 C 0.29634 0.69821 0.45637 0.0
C1941 C 0.29056 0.69465 0.42861 0.0
C1942 C 0.31007 0.68816 0.41463 0.0
C1943 C 0.2689 0.67472 0.41972 0.0
C1944 C 0.28747 0.72064 0.42664 0.0
C1945 C 0.29201 0.73656 0.44947 0.0
C1946 C 0.28905 0.76104 0.45298 0.0
C1947 C 0.28102 0.76954 0.43255 0.0
C1948 C 0.27602 0.75351 0.40917 0.0
C1949 C 0.27948 0.72891 0.40595 0.0
H1950 H 0.66638 0.02162 0.67385 0.0
H1951 H 0.67632 0.10123 0.70186 0.0
H1952 H 0.65153 0.10518 0.66665 0.0
H1953 H 0.65597 0.02633 0.60285 0.0
H1954 H 0.6359 0.997 0.59796 0.0
H1955 H 0.66052 1.00234 0.6195 0.0
H1956 H 0.63448 0.9907 0.65269 0.0
H1957 H 0.60975 0.98763 0.63212 0.0
H1958 H 0.61428 1.00923 0.66138 0.0
H1959 H 0.61715 0.09822 0.64026 0.0
H1960 H 0.58483 0.08395 0.60857 0.0
H1961 H 0.59735 1.00909 0.59601 0.0
C1962 C 0.66449 0.04001 0.67138 0.0
C1963 C 0.67268 0.06109 0.69014 0.0
C1964 C 0.66982 0.085 0.68731 0.0
C1965 C 0.65578 0.08738 0.66753 0.0
C1966 C 0.6454 0.06568 0.65093 0.0
C1967 C 0.65051 0.04264 0.65159 0.0
C1968 C 0.63495 0.02196 0.63317 0.0
C1969 C 0.64759 1.0113 0.61212 0.0
C1970 C 0.62266 1.00118 0.64562 0.0
C1971 C 0.61914 0.03667 0.62415 0.0
C1972 C 0.62546 0.06179 0.63475 0.0
C1973 C 0.61247 0.0788 0.63103 0.0
C1974 C 0.59378 0.0704 0.61373 0.0
C1975 C 0.58904 0.04559 0.60025 0.0
C1976 C 0.60076 0.02808 0.60653 0.0
H1977 H 0.35761 0.35985 0.9689 0.0
H1978 H 0.29218 0.37711 0.97291 0.0
H1979 H 0.28095 0.35508 0.92956 0.0
H1980 H 0.3639 0.37263 0.90968 0.0
H1981 H 0.37872 0.34834 0.9004 0.0
H1982 H 0.37964 0.36153 0.93254 0.0
H1983 H 0.36547 0.31645 0.94033 0.0
H1984 H 0.36374 0.30377 0.90763 0.0
H1985 H 0.33946 0.29779 0.9241 0.0
H1986 H 0.27697 0.3323 0.88586 0.0
H1987 H 0.28254 0.31904 0.84264 0.0
H1988 H 0.35175 0.32023 0.86402 0.0
C1989 C 0.34078 0.35836 0.96071 0.0
C1990 C 0.32558 0.36978 0.9743 0.0
C1991 C 0.30394 0.36824 0.96286 0.0
C1992 C 0.29736 0.35557 0.93832 0.0
C1993 C 0.31269 0.34463 0.92526 0.0
C1994 C 0.33404 0.34612 0.93587 0.0
C1995 C 0.34807 0.33578 0.91654 0.0
C1996 C 0.36878 0.3558 0.91468 0.0
C1997 C 0.35458 0.31204 0.92252 0.0
C1998 C 0.33165 0.32949 0.89317 0.0
C1999 C 0.3111 0.33372 0.89907 0.0
C2000 C 0.29312 0.32926 0.88106 0.0
C2001 C 0.29651 0.32173 0.85627 0.0
C2002 C 0.31788 0.31958 0.849 0.0
C2003 C 0.33541 0.32236 0.86813 0.0
H2004 H 0.98249 0.04341 0.34699 0.0
H2005 H 0.97744 0.12044 0.36984 0.0
H2006 H 0.99834 0.12214 0.41029 0.0
H2007 H 0.97426 0.02698 0.40881 0.0
H2008 H 0.99307 1.00588 0.40672 0.0
H2009 H 0.97877 1.01068 0.37894 0.0
H2010 H 0.01661 0.02301 0.36182 0.0
H2011 H 0.03095 0.01839 0.38968 0.0
H2012 H 0.03805 0.04796 0.3798 0.0
H2013 H 0.02187 0.11601 0.45009 0.0
H2014 H 0.03941 0.10176 0.48463 0.0
H2015 H 0.02827 0.02745 0.44019 0.0
C2016 C 0.98573 0.06074 0.36044 0.0
C2017 C 0.97783 0.08202 0.35412 0.0
C2018 C 0.98275 0.1038 0.37322 0.0
C2019 C 0.99492 0.10495 0.39662 0.0
C2020 C 1.00234 0.08396 0.40214 0.0
C2021 C 0.99754 0.06199 0.38465 0.0
C2022 C 1.0064 0.04172 0.39619 0.0
C2023 C 0.98697 0.02001 0.39775 0.0
C2024 C 0.02405 0.03219 0.38095 0.0
C2025 C 0.01708 0.05563 0.42258 0.0
C2026 C 0.01471 0.08012 0.42533 0.0
C2027 C 0.02338 0.09671 0.44773 0.0
C2028 C 0.03371 0.08827 0.4677 0.0
C2029 C 0.03595 0.06303 0.46666 0.0
C2030 C 0.02744 0.04674 0.4429 0.0
H2031 H 0.30401 0.66659 0.62924 0.0
H2032 H 0.27713 0.70662 0.5778 0.0
H2033 H 0.29103 0.74629 0.60713 0.0
H2034 H 0.2867 0.698 0.68051 0.0
H2035 H 0.31055 0.69881 0.70172 0.0
H2036 H 0.30302 0.67445 0.67467 0.0
H2037 H 0.343 0.68682 0.66161 0.0
H2038 H 0.35037 0.71154 0.68861 0.0
H2039 H 0.35373 0.71856 0.65821 0.0
H2040 H 0.30203 0.78031 0.64375 0.0
H2041 H 0.30657 0.80486 0.68667 0.0
H2042 H 0.32627 0.74337 0.71425 0.0
C2043 C 0.30159 0.68384 0.62406 0.0
C2044 C 0.28947 0.6836 0.60148 0.0
C2045 C 0.28619 0.70638 0.59524 0.0
C2046 C 0.29432 0.72909 0.61159 0.0
C2047 C 0.30576 0.72876 0.63404 0.0
C2048 C 0.30939 0.70673 0.64037 0.0
C2049 C 0.31903 0.711 0.66706 0.0
C2050 C 0.30392 0.69461 0.68184 0.0
C2051 C 0.34296 0.70673 0.66896 0.0
C2052 C 0.3189 0.73835 0.67496 0.0
C2053 C 0.31189 0.74855 0.65553 0.0
C2054 C 0.30801 0.77277 0.65907 0.0
C2055 C 0.31054 0.78653 0.68333 0.0
C2056 C 0.31635 0.77555 0.70328 0.0
C2057 C 0.32156 0.75182 0.69901 0.0
H2058 H 0.65959 0.02612 0.80165 0.0
H2059 H 0.72368 0.07412 0.83177 0.0
H2060 H 0.70681 0.09071 0.86912 0.0
H2061 H 0.62957 0.06883 0.81459 0.0
H2062 H 0.60507 0.04886 0.82221 0.0
H2063 H 0.62301 0.03578 0.80171 0.0
H2064 H 0.62858 1.00445 0.82998 0.0
H2065 H 0.61002 0.01678 0.85035 0.0
H2066 H 0.63773 1.01582 0.86246 0.0
H2067 H 0.68115 0.1066 0.89937 0.0
H2068 H 0.6497 0.11918 0.92058 0.0
H2069 H 0.60254 0.0627 0.86775 0.0
C2070 C 0.67027 0.03933 0.81666 0.0
C2071 C 0.69284 0.04874 0.81425 0.0
C2072 C 0.7064 0.06637 0.83376 0.0
C2073 C 0.69691 0.07595 0.85486 0.0
C2074 C 0.67405 0.06738 0.85593 0.0
C2075 C 0.66104 0.04911 0.83744 0.0
C2076 C 0.63653 0.04527 0.84093 0.0
C2077 C 0.62276 0.04998 0.81853 0.0
C2078 C 0.62769 0.01903 0.84626 0.0
C2079 C 0.63747 0.06527 0.86347 0.0
C2080 C 0.65924 0.07741 0.87231 0.0
C2081 C 0.66409 0.09714 0.89263 0.0
C2082 C 0.64621 0.10438 0.90429 0.0
C2083 C 0.62388 0.09233 0.89512 0.0
C2084 C 0.6195 0.07257 0.87456 0.0
H2085 H 0.32726 0.33047 0.09908 0.0
H2086 H 0.32556 0.40907 0.11871 0.0
H2087 H 0.31534 0.40308 0.16008 0.0
H2088 H 0.27947 0.30818 0.13256 0.0
H2089 H 0.29141 0.28379 0.14195 0.0
H2090 H 0.29779 0.29383 0.11337 0.0
H2091 H 0.34009 0.30314 0.12796 0.0
H2092 H 0.33379 0.29288 0.15638 0.0
H2093 H 0.35065 0.32364 0.1573 0.0
H2094 H 0.30841 0.38953 0.20067 0.0
H2095 H 0.30437 0.36895 0.23693 0.0
H2096 H 0.30858 0.29878 0.19079 0.0
C2097 C 0.3247 0.34641 0.11206 0.0
C2098 C 0.32739 0.37033 0.10556 0.0
C2099 C 0.32362 0.39059 0.12311 0.0
C2100 C 0.31776 0.38736 0.14671 0.0
C2101 C 0.3153 0.36364 0.15254 0.0
C2102 C 0.31844 0.34343 0.13566 0.0
C2103 C 0.31492 0.31997 0.14679 0.0
C2104 C 0.2947 0.30028 0.13283 0.0
C2105 C 0.33613 0.3093 0.14713 0.0
C2106 C 0.31019 0.3304 0.17282 0.0
C2107 C 0.31033 0.3556 0.17568 0.0
C2108 C 0.30784 0.3697 0.19851 0.0
C2109 C 0.3055 0.35786 0.21901 0.0
C2110 C 0.30541 0.33209 0.21659 0.0
C2111 C 0.30753 0.31821 0.19304 0.0
H2112 H 0.27319 0.96042 0.0453 0.0
H2113 H 0.29676 0.99221 0.98316 0.0
H2114 H 0.26769 0.01724 0.98551 0.0
H2115 H 0.21185 0.96285 0.03349 0.0
H2116 H 0.21019 0.97171 0.06625 0.0
H2117 H 0.22844 0.95149 0.05528 0.0
H2118 H 0.26159 0.98216 0.08327 0.0
H2119 H 0.24374 1.00284 0.09384 0.0
H2120 H 0.26842 1.01438 0.0798 0.0
H2121 H 0.24067 0.04316 0.99854 0.0
H2122 H 0.21684 0.06835 0.02131 0.0
H2123 H 0.21332 0.02228 0.07723 0.0
C2124 C 0.27135 0.97177 0.03153 0.0
C2125 C 0.28647 0.97418 0.01367 0.0
C2126 C 0.28474 0.98997 0.99656 0.0
C2127 C 0.26835 1.00415 0.99778 0.0
C2128 C 0.2542 1.00236 0.0164 0.0
C2129 C 0.25541 0.98643 0.0329 0.0
C2130 C 0.24077 0.99084 0.05347 0.0
C2131 C 0.22167 0.96786 0.05202 0.0
C2132 C 0.25446 0.99799 0.07909 0.0
C2133 C 0.23216 1.01265 0.04676 0.0
C2134 C 0.2396 0.01853 0.02495 0.0
C2135 C 0.23456 0.03863 0.01551 0.0
C2136 C 0.22134 0.05296 0.02862 0.0
C2137 C 0.21393 0.04739 0.0511 0.0
C2138 C 0.2193 0.02702 0.06025 0.0
H2139 H 0.71159 0.68002 0.9938 0.0
H2140 H 0.75823 0.63584 0.01375 0.0
H2141 H 0.72651 0.60164 0.0168 0.0
H2142 H 0.67216 0.66296 0.03474 0.0
H2143 H 0.648 0.6618 0.0138 0.0
H2144 H 0.67426 0.68204 0.01136 0.0
H2145 H 0.67272 0.66102 0.96531 0.0
H2146 H 0.64637 0.64078 0.9676 0.0
H2147 H 0.66935 0.62755 0.95712 0.0
H2148 H 0.68952 0.57342 0.02083 0.0
H2149 H 0.65068 0.55316 0.02432 0.0
H2150 H 0.62779 0.61509 1.00079 0.0
C2151 C 0.71523 0.66304 0.99847 0.0
C2152 C 0.7376 0.66076 1.00346 0.0
C2153 C 0.74139 0.63816 1.0097 0.0
C2154 C 0.72342 0.61859 0.01152 0.0
C2155 C 0.70166 0.62169 1.00691 0.0
C2156 C 0.6975 0.6433 1.00033 0.0
C2157 C 0.67255 0.64228 0.99709 0.0
C2158 C 0.66639 0.66353 0.01534 0.0
C2159 C 0.6648 0.64294 0.97018 0.0
C2160 C 0.66331 0.61694 1.0034 0.0
C2161 C 0.68038 0.60531 1.00886 0.0
C2162 C 0.67605 0.58218 0.01612 0.0
C2163 C 0.65379 0.57065 0.01782 0.0
C2164 C 0.63592 0.58206 0.01217 0.0
C2165 C 0.64093 0.60561 1.0049 0.0
H2166 H 0.72297 0.44795 0.31065 0.0
H2167 H 0.73039 0.45878 0.23562 0.0
H2168 H 0.75261 0.42605 0.22978 0.0
H2169 H 0.78072 0.43788 0.32206 0.0
H2170 H 0.77307 0.41534 0.34151 0.0
H2171 H 0.75723 0.43908 0.33978 0.0
H2172 H 0.72109 0.40496 0.32704 0.0
H2173 H 0.73685 0.3812 0.3289 0.0
H2174 H 0.71982 0.38021 0.30068 0.0
H2175 H 0.77614 0.38883 0.23211 0.0
H2176 H 0.79498 0.35575 0.24234 0.0
H2177 H 0.77436 0.36848 0.31616 0.0
C2178 C 0.72891 0.44333 0.29275 0.0
C2179 C 0.72367 0.45668 0.27337 0.0
C2180 C 0.73314 0.44954 0.25091 0.0
C2181 C 0.74616 0.43057 0.24741 0.0
C2182 C 0.75091 0.41799 0.26662 0.0
C2183 C 0.74256 0.42441 0.28906 0.0
C2184 C 0.75087 0.4088 0.30714 0.0
C2185 C 0.76637 0.42631 0.32893 0.0
C2186 C 0.73097 0.39285 0.3165 0.0
C2187 C 0.76421 0.39191 0.29139 0.0
C2188 C 0.76435 0.39775 0.26804 0.0
C2189 C 0.77588 0.38466 0.25054 0.0
C2190 C 0.78698 0.36558 0.25664 0.0
C2191 C 0.78728 0.35867 0.2804 0.0
C2192 C 0.77531 0.37265 0.29779 0.0
H2193 H 0.91603 0.45746 0.48672 0.0
H2194 H 0.90439 0.49879 0.55717 0.0
H2195 H 0.94106 0.52768 0.55923 0.0
H2196 H 0.96836 0.45549 0.49871 0.0
H2197 H 0.97832 0.46101 0.4697 0.0
H2198 H 0.94936 0.44785 0.47072 0.0
H2199 H 0.93759 0.48421 0.45234 0.0
H2200 H 0.96672 0.49562 0.4499 0.0
H2201 H 0.95092 0.51608 0.46613 0.0
H2202 H 0.98044 0.5444 0.55849 0.0
H2203 H 0.02035 0.5492 0.55505 0.0
H2204 H 1.00706 0.49817 0.48435 0.0
C2205 C 0.9212 0.47286 0.50237 0.0
C2206 C 0.90795 0.4759 0.52203 0.0
C2207 C 0.91465 0.4963 0.54208 0.0
C2208 C 0.93521 0.51288 0.5432 0.0
C2209 C 0.94825 0.50906 0.52371 0.0
C2210 C 0.94138 0.48978 0.50347 0.0
C2211 C 0.95946 0.48804 0.48642 0.0
C2212 C 0.96415 0.46153 0.48113 0.0
C2213 C 0.95331 0.49653 0.46229 0.0
C2214 C 0.97861 0.50687 0.50205 0.0
C2215 C 0.97139 0.5197 0.52281 0.0
C2216 C 0.98616 0.53556 0.54175 0.0
C2217 C 1.00886 0.53828 0.53955 0.0
C2218 C 0.01663 0.52546 0.51853 0.0
C2219 C 1.0014 0.50941 0.49965 0.0
H2220 H 0.38142 0.11012 0.33148 0.0
H2221 H 0.43483 0.1098 0.2842 0.0
H2222 H 0.41722 0.13362 0.25782 0.0
H2223 H 0.33959 0.09746 0.29032 0.0
H2224 H 0.32276 0.11835 0.30371 0.0
H2225 H 0.34233 0.10859 0.32338 0.0
H2226 H 0.3621 0.15444 0.34164 0.0
H2227 H 0.34197 0.16468 0.32287 0.0
H2228 H 0.37141 0.17545 0.32117 0.0
H2229 H 0.38946 0.14557 0.23129 0.0
H2230 H 0.35602 0.1542 0.20985 0.0
H2231 H 0.32129 0.1485 0.27517 0.0
C2232 C 0.38974 0.11624 0.31621 0.0
C2233 C 0.40912 0.1085 0.30944 0.0
C2234 C 0.4199 0.11606 0.28939 0.0
C2235 C 0.4101 0.12957 0.27447 0.0
C2236 C 0.39006 0.13574 0.28058 0.0
C2237 C 0.38043 0.13027 0.30156 0.0
C2238 C 0.35771 0.13652 0.30242 0.0
C2239 C 0.33955 0.11387 0.30508 0.0
C2240 C 0.35834 0.15912 0.32325 0.0
C2241 C 0.35499 0.14326 0.27725 0.0
C2242 C 0.37401 0.14329 0.26521 0.0
C2243 C 0.37467 0.1464 0.24073 0.0
C2244 C 0.35557 0.15062 0.22852 0.0
C2245 C 0.33632 0.15143 0.24092 0.0
C2246 C 0.33593 0.1476 0.26543 0.0
H2247 H 0.37696 0.19272 0.54626 0.0
H2248 H 0.33647 0.13676 0.487 0.0
H2249 H 0.36603 0.1126 0.48487 0.0
H2250 H 0.43289 0.18686 0.5253 0.0
H2251 H 0.44548 0.19012 0.55649 0.0
H2252 H 0.42307 0.20551 0.55064 0.0
H2253 H 0.40063 0.18368 0.58187 0.0
H2254 H 0.42297 0.16834 0.58779 0.0
H2255 H 0.39509 0.15005 0.57782 0.0
H2256 H 0.39836 0.09308 0.49051 0.0
H2257 H 0.42937 0.07657 0.50733 0.0
H2258 H 0.44785 0.14269 0.56548 0.0
C2259 C 0.37465 0.17564 0.53256 0.0
C2260 C 0.35462 0.1666 0.51661 0.0
C2261 C 0.35177 0.14391 0.49932 0.0
C2262 C 0.36853 0.13019 0.49783 0.0
C2263 C 0.38798 0.13925 0.51399 0.0
C2264 C 0.39109 0.16129 0.53126 0.0
C2265 C 0.41239 0.16509 0.54839 0.0
C2266 C 0.42947 0.18827 0.54499 0.0
C2267 C 0.40746 0.16688 0.57557 0.0
C2268 C 0.42009 0.14124 0.53873 0.0
C2269 C 0.40618 0.12709 0.5183 0.0
C2270 C 0.40948 0.10404 0.50639 0.0
C2271 C 0.42712 0.09483 0.516 0.0
C2272 C 0.44088 0.10838 0.5376 0.0
C2273 C 0.43753 0.13206 0.54886 0.0
H2274 H 0.71222 0.62816 0.31531 0.0
H2275 H 0.74124 0.58068 0.26171 0.0
H2276 H 0.76857 0.61802 0.25565 0.0
H2277 H 0.71705 0.68155 0.28776 0.0
H2278 H 0.72575 0.70446 0.31601 0.0
H2279 H 0.70918 0.67406 0.31695 0.0
H2280 H 0.73915 0.66749 0.34875 0.0
H2281 H 0.75579 0.69798 0.348 0.0
H2282 H 0.76762 0.67073 0.34151 0.0
H2283 H 0.79331 0.66254 0.2548 0.0
H2284 H 0.81164 0.70726 0.2592 0.0
H2285 H 0.76683 0.72719 0.31288 0.0
C2286 C 0.72448 0.62545 0.30247 0.0
C2287 C 0.72427 0.60074 0.28915 0.0
C2288 C 0.74087 0.59878 0.27258 0.0
C2289 C 0.75653 0.62018 0.26889 0.0
C2290 C 0.75614 0.64408 0.28216 0.0
C2291 C 0.74065 0.64673 0.29893 0.0
C2292 C 0.74416 0.67445 0.31138 0.0
C2293 C 0.72275 0.6842 0.30779 0.0
C2294 C 0.75213 0.67787 0.33905 0.0
C2295 C 0.76285 0.68732 0.29779 0.0
C2296 C 0.76998 0.66931 0.28149 0.0
C2297 C 0.78767 0.67651 0.26761 0.0
C2298 C 0.79818 0.70222 0.27032 0.0
C2299 C 0.79106 0.72139 0.2864 0.0
C2300 C 0.77289 0.71343 0.30025 0.0
H2301 H 0.88149 0.48048 0.83682 0.0
H2302 H 0.9179 0.47812 0.77232 0.0
H2303 H 0.88993 0.44098 0.75045 0.0
H2304 H 0.87622 0.42083 0.83793 0.0
H2305 H 0.84907 0.41611 0.84902 0.0
H2306 H 0.86655 0.44663 0.85524 0.0
H2307 H 0.83376 0.46199 0.83483 0.0
H2308 H 0.81703 0.43051 0.8279 0.0
H2309 H 0.82227 0.44789 0.80342 0.0
H2310 H 0.86457 0.40067 0.73938 0.0
H2311 H 0.85066 0.35726 0.74347 0.0
H2312 H 0.83241 0.38279 0.81624 0.0
C2313 C 0.8829 0.47242 0.81778 0.0
C2314 C 0.90138 0.48171 0.80598 0.0
C2315 C 0.9036 0.47084 0.78144 0.0
C2316 C 0.88759 0.45016 0.76878 0.0
C2317 C 0.8697 0.44061 0.78114 0.0
C2318 C 0.86744 0.45125 0.80528 0.0
C2319 C 0.85084 0.43393 0.8168 0.0
C2320 C 0.86139 0.4291 0.84114 0.0
C2321 C 0.82971 0.4442 0.82096 0.0
C2322 C 0.84601 0.41093 0.79642 0.0
C2323 C 0.85578 0.41579 0.77538 0.0
C2324 C 0.85654 0.39676 0.75557 0.0
C2325 C 0.84882 0.37211 0.75817 0.0
C2326 C 0.84102 0.36677 0.78061 0.0
C2327 C 0.83817 0.38631 0.79909 0.0
H2328 H 0.09455 0.90741 0.12383 0.0
H2329 H 0.11474 0.86807 0.05702 0.0
H2330 H 0.10766 0.90129 0.0349 0.0
H2331 H 0.0499 0.92923 0.09199 0.0
H2332 H 0.05474 0.95876 0.11327 0.0
H2333 H 0.06093 0.93168 0.12366 0.0
H2334 H 0.1016 0.95589 0.13844 0.0
H2335 H 0.09537 0.983 0.12824 0.0
H2336 H 0.11826 0.97014 0.11689 0.0
H2337 H 0.09703 0.94019 0.01917 0.0
H2338 H 0.08814 0.98079 0.01383 0.0
H2339 H 0.07635 0.99564 0.09101 0.0
C2340 C 0.09768 0.90579 0.10458 0.0
C2341 C 0.10546 0.88472 0.09244 0.0
C2342 C 0.10892 0.8837 0.06706 0.0
C2343 C 0.10481 0.90261 0.0542 0.0
C2344 C 0.09698 0.92289 0.06662 0.0
C2345 C 0.09356 0.92458 0.09137 0.0
C2346 C 0.08517 0.94831 0.10057 0.0
C2347 C 0.06128 0.94159 0.10782 0.0
C2348 C 0.10106 0.96534 0.12232 0.0
C2349 C 0.08534 0.96029 0.07763 0.0
C2350 C 0.09159 0.94507 0.05794 0.0
C2351 C 0.09224 0.95212 0.03466 0.0
C2352 C 0.08698 0.97528 0.03167 0.0
C2353 C 0.08144 0.99175 0.05187 0.0
C2354 C 0.0805 0.98369 0.07506 0.0
H2355 H 0.93996 0.25139 0.91148 0.0
H2356 H 0.98911 0.31335 0.89672 0.0
H2357 H 0.96105 0.32243 0.86747 0.0
H2358 H 0.91355 0.23362 0.84485 0.0
H2359 H 0.88594 0.22328 0.85344 0.0
H2360 H 0.91007 0.22061 0.8724 0.0
H2361 H 0.897 0.24596 0.9105 0.0
H2362 H 0.87296 0.24885 0.89164 0.0
H2363 H 0.89182 0.27651 0.90915 0.0
H2364 H 0.92785 0.32535 0.83988 0.0
H2365 H 0.89171 0.32261 0.81638 0.0
H2366 H 0.86175 0.25978 0.84864 0.0
C2367 C 0.9448 0.26668 0.90186 0.0
C2368 C 0.96697 0.28164 0.90642 0.0
C2369 C 0.9725 0.30145 0.8934 0.0
C2370 C 0.95657 0.3068 0.87675 0.0
C2371 C 0.93496 0.29192 0.87269 0.0
C2372 C 0.92904 0.272 0.88454 0.0
C2373 C 0.90462 0.25877 0.87608 0.0
C2374 C 0.90347 0.23251 0.8608 0.0
C2375 C 0.89079 0.25747 0.89818 0.0
C2376 C 0.89725 0.27569 0.85949 0.0
C2377 C 0.9154 0.29412 0.8572 0.0
C2378 C 0.91352 0.31118 0.84186 0.0
C2379 C 0.89275 0.30959 0.82866 0.0
C2380 C 0.87345 0.2917 0.83126 0.0
C2381 C 0.87588 0.27427 0.84683 0.0
H2382 H 0.60856 0.23797 0.61663 0.0
H2383 H 0.5904 0.25437 0.54503 0.0
H2384 H 0.58137 0.20915 0.52684 0.0
H2385 H 0.6347 0.18661 0.59076 0.0
H2386 H 0.62615 0.16798 0.61351 0.0
H2387 H 0.63083 0.2016 0.62139 0.0
H2388 H 0.5909 0.19825 0.6345 0.0
H2389 H 0.58627 0.16466 0.62701 0.0
H2390 H 0.56739 0.18049 0.61301 0.0
H2391 H 0.5758 0.16135 0.51549 0.0
H2392 H 0.57041 0.11561 0.51338 0.0
H2393 H 0.59058 0.12882 0.59218 0.0
C2394 C 0.60231 0.23198 0.59722 0.0
C2395 C 0.5999 0.25002 0.58236 0.0
C2396 C 0.59229 0.24117 0.55688 0.0
C2397 C 0.5872 0.21539 0.54632 0.0
C2398 C 0.59011 0.19816 0.56122 0.0
C2399 C 0.59742 0.20607 0.58619 0.0
C2400 C 0.59965 0.18353 0.59781 0.0
C2401 C 0.62429 0.18502 0.60638 0.0
C2402 C 0.58517 0.18163 0.61935 0.0
C2403 C 0.59115 0.16175 0.57594 0.0
C2404 C 0.58649 0.17069 0.55479 0.0
C2405 C 0.57938 0.15426 0.53203 0.0
C2406 C 0.5765 0.12819 0.53092 0.0
C2407 C 0.58023 0.11838 0.55248 0.0
C2408 C 0.58766 0.13562 0.57529 0.0
H2409 H 0.6003 0.81932 0.40979 0.0
H2410 H 0.58288 0.73839 0.39552 0.0
H2411 H 0.61792 0.737 0.37589 0.0
H2412 H 0.6201 0.82396 0.35196 0.0
H2413 H 0.64212 0.85118 0.36348 0.0
H2414 H 0.61756 0.84569 0.37947 0.0
H2415 H 0.64233 0.84782 0.41998 0.0
H2416 H 0.667 0.85316 0.40402 0.0
H2417 H 0.66171 0.82748 0.42026 0.0
H2418 H 0.65428 0.74465 0.35591 0.0
H2419 H 0.68562 0.76018 0.3327 0.0
H2420 H 0.67793 0.8361 0.35731 0.0
C2421 C 0.60414 0.80136 0.40288 0.0
C2422 C 0.58911 0.77891 0.40438 0.0
C2423 C 0.59429 0.75573 0.39462 0.0
C2424 C 0.6142 0.75481 0.38359 0.0
C2425 C 0.62865 0.77727 0.38212 0.0
C2426 C 0.6237 0.80013 0.39127 0.0
C2427 C 0.64073 0.82144 0.38504 0.0
C2428 C 0.62945 0.83644 0.36903 0.0
C2429 C 0.65371 0.83848 0.40873 0.0
C2430 C 0.65571 0.80702 0.37044 0.0
C2431 C 0.64883 0.78161 0.36953 0.0
C2432 C 0.6598 0.76452 0.35658 0.0
C2433 C 0.6777 0.77351 0.34355 0.0
C2434 C 0.68425 0.79932 0.3431 0.0
C2435 C 0.67334 0.81625 0.35727 0.0
H2436 H 0.09632 0.27011 0.41423 0.0
H2437 H 0.16241 0.29296 0.45389 0.0
H2438 H 0.15558 0.25487 0.47211 0.0
H2439 H 0.07147 0.25743 0.46226 0.0
H2440 H 0.04977 0.23115 0.44713 0.0
H2441 H 0.06209 0.2539 0.42988 0.0
H2442 H 0.0728 0.21928 0.398 0.0
H2443 H 0.0601 0.19616 0.41496 0.0
H2444 H 0.08873 0.19849 0.4085 0.0
H2445 H 0.1389 0.22098 0.49318 0.0
H2446 H 0.11358 0.1952 0.51636 0.0
H2447 H 0.05719 0.19664 0.4656 0.0
C2448 C 0.10975 0.26609 0.4255 0.0
C2449 C 0.13012 0.28362 0.43209 0.0
C2450 C 0.147 0.27907 0.44815 0.0
C2451 C 0.14322 0.25754 0.45852 0.0
C2452 C 0.12236 0.24114 0.45285 0.0
C2453 C 0.10589 0.24514 0.43657 0.0
C2454 C 0.08349 0.22834 0.43779 0.0
C2455 C 0.0657 0.24363 0.44469 0.0
C2456 C 0.07584 0.20944 0.41336 0.0
C2457 C 0.08957 0.21555 0.45842 0.0
C2458 C 0.11219 0.22244 0.46626 0.0
C2459 C 0.12127 0.21498 0.48683 0.0
C2460 C 0.10681 0.20051 0.49995 0.0
C2461 C 0.08356 0.19425 0.49271 0.0
C2462 C 0.07497 0.20132 0.4714 0.0
H2463 H 0.56676 0.24883 0.19944 0.0
H2464 H 0.59875 0.29197 0.14824 0.0
H2465 H 0.63582 0.2922 0.1689 0.0
H2466 H 0.60577 0.27672 0.2537 0.0
H2467 H 0.60504 0.24766 0.26413 0.0
H2468 H 0.58101 0.252 0.24628 0.0
H2469 H 0.58152 0.21201 0.21427 0.0
H2470 H 0.60553 0.20759 0.23207 0.0
H2471 H 0.60664 0.20941 0.19985 0.0
H2472 H 0.66866 0.2905 0.19696 0.0
H2473 H 0.69613 0.28285 0.22684 0.0
H2474 H 0.64327 0.23429 0.25556 0.0
C2475 C 0.58161 0.25855 0.19282 0.0
C2476 C 0.58008 0.27084 0.17261 0.0
C2477 C 0.59973 0.28273 0.16387 0.0
C2478 C 0.62077 0.28295 0.17549 0.0
C2479 C 0.62174 0.27067 0.19537 0.0
C2480 C 0.60274 0.25831 0.20373 0.0
C2481 C 0.60857 0.24544 0.22457 0.0
C2482 C 0.59956 0.2561 0.24859 0.0
C2483 C 0.60006 0.21692 0.21724 0.0
C2484 C 0.63383 0.25267 0.22672 0.0
C2485 C 0.64097 0.26758 0.21 0.0
C2486 C 0.66336 0.27817 0.20961 0.0
C2487 C 0.67897 0.27323 0.2266 0.0
C2488 C 0.67236 0.25696 0.24332 0.0
C2489 C 0.64928 0.24665 0.24321 0.0
H2490 H 0.62378 0.89552 0.95565 0.0
H2491 H 0.65112 0.9278 0.89505 0.0
H2492 H 0.64606 0.96929 0.91565 0.0
H2493 H 0.58094 0.9284 0.95966 0.0
H2494 H 0.58094 0.93122 0.99273 0.0
H2495 H 0.58956 0.90517 0.97481 0.0
H2496 H 0.6274 0.91672 1.00255 0.0
H2497 H 0.61885 0.94288 0.02051 0.0
H2498 H 0.64457 0.94779 1.00632 0.0
H2499 H 0.63516 1.00594 0.94116 0.0
H2500 H 0.61793 0.03494 0.96899 0.0
H2501 H 0.59663 0.9771 0.01116 0.0
C2502 C 0.62912 0.91134 0.94688 0.0
C2503 C 0.63797 0.9087 0.92396 0.0
C2504 C 0.64437 0.92969 0.91278 0.0
C2505 C 0.64165 0.95323 0.92434 0.0
C2506 C 0.63243 0.95507 0.94681 0.0
C2507 C 0.62613 0.93463 0.95784 0.0
C2508 C 0.6143 0.94071 0.98042 0.0
C2509 C 0.59 0.92548 0.97667 0.0
C2510 C 0.62706 0.9368 1.00383 0.0
C2511 C 0.61524 0.96796 0.98068 0.0
C2512 C 0.62574 0.97596 0.96118 0.0
C2513 C 0.62713 1.00001 0.95665 0.0
C2514 C 0.61724 1.01621 0.97239 0.0
C2515 C 0.60624 1.00804 0.99217 0.0
C2516 C 0.60551 0.98386 0.99657 0.0
H2517 H 0.93822 0.75066 0.68604 0.0
H2518 H 0.9867 0.79482 0.74615 0.0
H2519 H 0.95638 0.79793 0.77328 0.0
H2520 H 0.89458 0.78146 0.69671 0.0
H2521 H 0.87255 0.75367 0.69009 0.0
H2522 H 0.89802 0.75408 0.67572 0.0
H2523 H 0.90379 0.71517 0.69302 0.0
H2524 H 0.87818 0.71432 0.70728 0.0
H2525 H 0.90382 0.7157 0.7258 0.0
H2526 H 0.92017 0.79681 0.79333 0.0
H2527 H 0.88104 0.79118 0.80426 0.0
H2528 H 0.85744 0.74758 0.73083 0.0
C2529 C 0.94239 0.76081 0.70498 0.0
C2530 C 0.96459 0.77251 0.7142 0.0
C2531 C 0.96967 0.78554 0.73902 0.0
C2532 C 0.95261 0.78745 0.75446 0.0
C2533 C 0.93078 0.77568 0.74483 0.0
C2534 C 0.9257 0.76234 0.72075 0.0
C2535 C 0.90103 0.75115 0.71488 0.0
C2536 C 0.89096 0.76068 0.69307 0.0
C2537 C 0.89645 0.72239 0.70995 0.0
C2538 C 0.89288 0.7612 0.73899 0.0
C2539 C 0.91022 0.77501 0.75625 0.0
C2540 C 0.90648 0.78596 0.77998 0.0
C2541 C 0.88436 0.7828 0.78601 0.0
C2542 C 0.86661 0.76941 0.76812 0.0
C2543 C 0.87093 0.75812 0.74463 0.0
H2544 H 0.17334 0.06003 0.86905 0.0
H2545 H 0.14404 0.98324 0.83421 0.0
H2546 H 0.12123 0.97893 0.8692 0.0
H2547 H 0.17548 0.05221 0.93372 0.0
H2548 H 0.16709 0.08088 0.94567 0.0
H2549 H 0.18126 0.07829 0.91803 0.0
H2550 H 0.14883 0.0904 0.89428 0.0
H2551 H 0.13456 0.09299 0.92187 0.0
H2552 H 0.12075 0.07263 0.89362 0.0
H2553 H 0.09944 0.98307 0.90929 0.0
H2554 H 0.08339 0.9944 0.94856 0.0
H2555 H 0.12637 0.06836 0.96076 0.0
C2556 C 0.16229 0.04216 0.86877 0.0
C2557 C 0.16121 0.02176 0.84801 0.0
C2558 C 0.14582 0.99921 0.84917 0.0
C2559 C 0.13255 0.99659 0.86931 0.0
C2560 C 0.13399 0.01677 0.88919 0.0
C2561 C 0.14853 0.03925 0.88904 0.0
C2562 C 0.14629 0.05817 0.9126 0.0
C2563 C 0.16889 0.06797 0.92845 0.0
C2564 C 0.13709 0.07985 0.90516 0.0
C2565 C 0.12917 0.0427 0.92654 0.0
C2566 C 0.12194 0.01895 0.91225 0.0
C2567 C 0.10538 1.00163 0.92041 0.0
C2568 C 0.09617 1.00834 0.94316 0.0
C2569 C 0.10331 0.03228 0.95903 0.0
C2570 C 0.12036 0.04965 0.95003 0.0
H2571 H 0.84535 0.44101 0.59396 0.0
H2572 H 0.79206 0.38332 0.55144 0.0
H2573 H 0.78836 0.36191 0.58676 0.0
H2574 H 0.87385 0.40674 0.60867 0.0
H2575 H 0.88511 0.42069 0.64018 0.0
H2576 H 0.87594 0.43964 0.62035 0.0
H2577 H 0.84858 0.45328 0.65081 0.0
H2578 H 0.8584 0.43519 0.67163 0.0
H2579 H 0.82898 0.43002 0.66193 0.0
H2580 H 0.8006 0.33871 0.61523 0.0
H2581 H 0.82428 0.31801 0.6386 0.0
H2582 H 0.87247 0.38821 0.66235 0.0
C2583 C 0.83183 0.42493 0.59312 0.0
C2584 C 0.81875 0.41376 0.57061 0.0
C2585 C 0.80186 0.39214 0.56896 0.0
C2586 C 0.7997 0.37994 0.58898 0.0
C2587 C 0.81489 0.38949 0.61007 0.0
C2588 C 0.83034 0.41203 0.61268 0.0
C2589 C 0.84857 0.41476 0.63352 0.0
C2590 C 0.87222 0.42076 0.62512 0.0
C2591 C 0.84596 0.43447 0.6558 0.0
C2592 C 0.84296 0.38886 0.63931 0.0
C2593 C 0.82287 0.3751 0.62662 0.0
C2594 C 0.81585 0.34957 0.62604 0.0
C2595 C 0.82956 0.33787 0.63891 0.0
C2596 C 0.85013 0.35167 0.65185 0.0
C2597 C 0.8568 0.37743 0.65232 0.0
H2598 H 0.46859 0.09453 0.40779 0.0
H2599 H 0.43644 0.01655 0.38271 0.0
H2600 H 0.46735 1.00414 0.40487 0.0
H2601 H 0.52042 0.08978 0.39889 0.0
H2602 H 0.53492 0.11138 0.42612 0.0
H2603 H 0.50838 0.11501 0.41324 0.0
H2604 H 0.49099 0.1123 0.45472 0.0
H2605 H 0.5181 0.11111 0.46827 0.0
H2606 H 0.49412 0.08709 0.47027 0.0
H2607 H 0.50454 1.0007 0.42297 0.0
H2608 H 0.5396 1.00623 0.44989 0.0
H2609 H 0.5473 0.08658 0.46185 0.0
C2610 C 0.46735 0.07496 0.40853 0.0
C2611 C 0.45053 0.05639 0.39377 0.0
C2612 C 0.44938 0.03089 0.39425 0.0
C2613 C 0.46703 0.02372 0.40631 0.0
C2614 C 0.48497 0.04252 0.41813 0.0
C2615 C 0.48472 0.06762 0.42049 0.0
C2616 C 0.50628 0.08416 0.43351 0.0
C2617 C 0.51818 0.10107 0.41693 0.0
C2618 C 0.50213 0.09956 0.45816 0.0
C2619 C 0.51892 0.06446 0.43756 0.0
C2620 C 0.50649 0.04056 0.42817 0.0
C2621 C 0.51439 0.01928 0.43054 0.0
C2622 C 0.53451 0.02257 0.44526 0.0
C2623 C 0.54577 0.04682 0.45746 0.0
C2624 C 0.53905 0.068 0.452 0.0
H2625 H 0.81451 0.71614 0.09768 0.0
H2626 H 0.79239 0.78117 0.08035 0.0
H2627 H 0.79605 0.79957 0.12465 0.0
H2628 H 0.78611 0.71089 0.15047 0.0
H2629 H 0.80825 0.70281 0.16834 0.0
H2630 H 0.8059 0.69536 0.13503 0.0
H2631 H 0.84662 0.71977 0.13554 0.0
H2632 H 0.84909 0.72721 0.16891 0.0
H2633 H 0.85472 0.7519 0.1515 0.0
H2634 H 0.80286 0.81188 0.17131 0.0
H2635 H 0.8096 0.81488 0.21669 0.0
H2636 H 0.82268 0.74023 0.20405 0.0
C2637 C 0.81063 0.73433 0.10318 0.0
C2638 C 0.80308 0.74704 0.08527 0.0
C2639 C 0.79813 0.77084 0.09347 0.0
C2640 C 0.80023 0.78161 0.11871 0.0
C2641 C 0.80734 0.76851 0.13584 0.0
C2642 C 0.81249 0.7454 0.12848 0.0
C2643 C 0.81913 0.73502 0.15088 0.0
C2644 C 0.80392 0.70951 0.15118 0.0
C2645 C 0.84385 0.73337 0.15175 0.0
C2646 C 0.81559 0.75519 0.17175 0.0
C2647 C 0.8096 0.77479 0.16274 0.0
C2648 C 0.80705 0.79636 0.17859 0.0
C2649 C 0.81056 0.7978 0.20434 0.0
C2650 C 0.81536 0.7773 0.21398 0.0
C2651 C 0.81815 0.7559 0.19731 0.0
H2652 H 0.13975 0.98869 0.69161 0.0
H2653 H 0.16975 0.06686 0.7204 0.0
H2654 H 0.15244 0.07819 0.68377 0.0
H2655 H 0.14846 0.9923 0.62477 0.0
H2656 H 0.12238 0.97098 0.61221 0.0
H2657 H 0.13642 0.96823 0.64103 0.0
H2658 H 0.1007 0.97153 0.66219 0.0
H2659 H 0.08673 0.97469 0.63348 0.0
H2660 H 0.08846 0.99817 0.661 0.0
H2661 H 0.12298 0.08199 0.64761 0.0
H2662 H 0.09896 0.07699 0.60921 0.0
H2663 H 0.09827 0.99863 0.59273 0.0
C2664 C 0.14361 1.00812 0.68986 0.0
C2665 C 0.1572 0.0267 0.7099 0.0
C2666 C 0.16026 0.05185 0.70604 0.0
C2667 C 0.15001 0.05866 0.68509 0.0
C2668 C 0.13653 0.04035 0.6664 0.0
C2669 C 0.13418 1.01537 0.66786 0.0
C2670 C 0.11974 0.99965 0.64388 0.0
C2671 C 0.13252 0.98172 0.62962 0.0
C2672 C 0.0976 0.98513 0.65053 0.0
C2673 C 0.11519 0.01957 0.62868 0.0
C2674 C 0.12387 0.04289 0.64298 0.0
C2675 C 0.11809 0.06384 0.63545 0.0
C2676 C 0.10483 0.06123 0.61243 0.0
C2677 C 0.09874 0.03859 0.59469 0.0
C2678 C 0.10358 0.01711 0.60418 0.0
H2679 H 0.86671 0.40224 0.46325 0.0
H2680 H 0.82866 0.45198 0.43667 0.0
H2681 H 0.81917 0.42318 0.39651 0.0
H2682 H 0.88792 0.38263 0.40033 0.0
H2683 H 0.88684 0.35139 0.40572 0.0
H2684 H 0.89322 0.37756 0.43139 0.0
H2685 H 0.8607 0.35531 0.45258 0.0
H2686 H 0.85351 0.32966 0.42647 0.0
H2687 H 0.83283 0.34686 0.43674 0.0
H2688 H 0.80472 0.38535 0.36703 0.0
H2689 H 0.79949 0.34764 0.3365 0.0
H2690 H 0.85284 0.32414 0.3752 0.0
C2691 C 0.85733 0.4075 0.44845 0.0
C2692 C 0.84819 0.42899 0.45271 0.0
C2693 C 0.83585 0.4356 0.43342 0.0
C2694 C 0.83016 0.41925 0.41076 0.0
C2695 C 0.83785 0.39721 0.40774 0.0
C2696 C 0.85228 0.39186 0.42523 0.0
C2697 C 0.858 0.36664 0.41654 0.0
C2698 C 0.88298 0.36975 0.41328 0.0
C2699 C 0.85083 0.34857 0.43415 0.0
C2700 C 0.8437 0.35844 0.3919 0.0
C2701 C 0.83164 0.37612 0.3881 0.0
C2702 C 0.81493 0.37192 0.36893 0.0
C2703 C 0.81189 0.35 0.35167 0.0
C2704 C 0.82616 0.3332 0.35288 0.0
C2705 C 0.84183 0.33687 0.37375 0.0
H2706 H 0.47189 0.07314 0.25615 0.0
H2707 H 0.4488 0.99807 0.26884 0.0
H2708 H 0.45408 0.98064 0.22602 0.0
H2709 H 0.45218 0.05577 0.18337 0.0
H2710 H 0.47663 0.07748 0.17816 0.0
H2711 H 0.46277 0.08439 0.20556 0.0
H2712 H 0.50012 0.09013 0.2327 0.0
H2713 H 0.51392 0.08299 0.20562 0.0
H2714 H 0.51483 0.06495 0.22971 0.0
H2715 H 0.47294 0.97129 0.19015 0.0
H2716 H 0.50279 0.97081 0.16243 0.0
H2717 H 0.51384 0.05123 0.17029 0.0
C2718 C 0.46706 0.05315 0.24926 0.0
C2719 C 0.46007 0.03678 0.2653 0.0
C2720 C 0.45426 1.0107 0.25646 0.0
C2721 C 0.45693 1.0007 0.23213 0.0
C2722 C 0.46529 0.0171 0.21692 0.0
C2723 C 0.46985 0.04288 0.22487 0.0
C2724 C 0.48265 0.05603 0.20665 0.0
C2725 C 0.46766 0.06919 0.1926 0.0
C2726 C 0.50415 0.07457 0.21945 0.0
C2727 C 0.48756 0.0337 0.18961 0.0
C2728 C 0.47636 1.0114 0.19507 0.0
C2729 C 0.48112 0.98847 0.18495 0.0
C2730 C 0.49822 0.98834 0.16951 0.0
C2731 C 0.5102 1.01096 0.16439 0.0
C2732 C 0.50431 0.03374 0.17369 0.0
H2733 H 0.83547 0.71299 0.9411 0.0
H2734 H 0.77513 0.73659 0.96185 0.0
H2735 H 0.77344 0.75554 0.92464 0.0
H2736 H 0.85829 0.77055 0.91891 0.0
H2737 H 0.87134 0.75502 0.89427 0.0
H2738 H 0.86781 0.74259 0.92217 0.0
H2739 H 0.84648 0.69988 0.8963 0.0
H2740 H 0.85019 0.71213 0.86837 0.0
H2741 H 0.82253 0.69867 0.87501 0.0
H2742 H 0.77707 0.77022 0.88493 0.0
H2743 H 0.7864 0.7812 0.84494 0.0
H2744 H 0.84602 0.75127 0.84995 0.0
C2745 C 0.82177 0.72188 0.93751 0.0
C2746 C 0.80511 0.72296 0.95403 0.0
C2747 C 0.78786 0.73539 0.94928 0.0
C2748 C 0.78683 0.74625 0.92825 0.0
C2749 C 0.80352 0.74509 0.91243 0.0
C2750 C 0.82083 0.73348 0.91684 0.0
C2751 C 0.83705 0.73593 0.8972 0.0
C2752 C 0.85998 0.75197 0.90883 0.0
C2753 C 0.83917 0.71011 0.8834 0.0
C2754 C 0.82542 0.74949 0.88038 0.0
C2755 C 0.80624 0.75477 0.88982 0.0
C2756 C 0.79215 0.76642 0.87749 0.0
C2757 C 0.79756 0.77257 0.85477 0.0
C2758 C 0.81692 0.76723 0.84453 0.0
C2759 C 0.83124 0.75579 0.8576 0.0
H2760 H 0.86211 0.13201 1.00911 0.0
H2761 H 0.85487 0.11914 0.08357 0.0
H2762 H 0.88612 0.09699 0.08122 0.0
H2763 H 0.86674 0.07349 0.98542 0.0
H2764 H 0.88637 0.08136 0.96367 0.0
H2765 H 0.86801 0.10174 0.97329 0.0
H2766 H 0.90178 0.13894 0.98792 0.0
H2767 H 0.9204 0.11885 0.9779 0.0
H2768 H 0.92406 0.13597 1.00938 0.0
H2769 H 0.91391 0.07173 0.06857 0.0
H2770 H 0.93625 0.04422 0.04653 0.0
H2771 H 0.92247 0.07065 0.97892 0.0
C2772 C 0.86791 0.12543 0.02522 0.0
C2773 C 0.85694 0.12759 0.04674 0.0
C2774 C 0.86375 0.11792 0.06723 0.0
C2775 C 0.88138 0.10543 0.066 0.0
C2776 C 0.89144 0.10265 0.04402 0.0
C2777 C 0.88497 0.11243 0.02399 0.0
C2778 C 0.89577 0.10359 1.00125 0.0
C2779 C 0.87817 0.08919 0.97966 0.0
C2780 C 0.91145 0.12565 0.99368 0.0
C2781 C 0.9086 0.08643 0.01129 0.0
C2782 C 0.90635 0.08665 0.03613 0.0
C2783 C 0.91595 0.0715 0.04919 0.0
C2784 C 0.92831 0.0558 0.03653 0.0
C2785 C 0.93048 0.05511 0.01105 0.0
C2786 C 0.92057 0.0706 0.99831 0.0
H2787 H 0.42125 0.41478 0.02008 0.0
H2788 H 0.38816 0.46249 0.06881 0.0
H2789 H 0.42181 0.4968 0.07444 0.0
H2790 H 0.4759 0.4346 0.05124 0.0
H2791 H 0.48964 0.43394 0.02331 0.0
H2792 H 0.46282 0.41356 0.02301 0.0
H2793 H 0.44699 0.43154 0.98698 0.0
H2794 H 0.47379 0.45206 0.98725 0.0
H2795 H 0.44922 0.46481 0.99065 0.0
H2796 H 0.46031 0.52631 0.07475 0.0
H2797 H 0.49876 0.54724 0.06922 0.0
H2798 H 0.50594 0.47926 0.02117 0.0
C2799 C 0.42108 0.43239 0.03203 0.0
C2800 C 0.40204 0.43579 0.04414 0.0
C2801 C 0.40248 0.45936 0.05929 0.0
C2802 C 0.42157 0.479 0.06263 0.0
C2803 C 0.44008 0.47499 0.05043 0.0
C2804 C 0.43985 0.45227 0.03528 0.0
C2805 C 0.4616 0.45277 0.0238 0.0
C2806 C 0.47317 0.43252 0.03078 0.0
C2807 C 0.45766 0.45013 0.9955 0.0
C2808 C 0.47453 0.47882 0.03573 0.0
C2809 C 0.46181 0.49165 0.05066 0.0
C2810 C 0.47032 0.51635 0.06299 0.0
C2811 C 0.49223 0.52818 0.0597 0.0
C2812 C 0.50555 0.51528 0.04444 0.0
C2813 C 0.49642 0.49009 0.03272 0.0
H2814 H 0.39693 0.64648 0.81205 0.0
H2815 H 0.4328 0.65189 0.74762 0.0
H2816 H 0.41467 0.68605 0.73951 0.0
H2817 H 0.34465 0.66149 0.78696 0.0
H2818 H 0.34019 0.68005 0.81568 0.0
H2819 H 0.35515 0.65535 0.81605 0.0
H2820 H 0.38845 0.68699 0.84249 0.0
H2821 H 0.37342 0.71161 0.84205 0.0
H2822 H 0.40081 0.7148 0.83151 0.0
H2823 H 0.38975 0.72122 0.73693 0.0
H2824 H 0.36719 0.75359 0.74354 0.0
H2825 H 0.34879 0.73038 0.81159 0.0
C2826 C 0.40118 0.65479 0.79619 0.0
C2827 C 0.41705 0.64529 0.78055 0.0
C2828 C 0.42128 0.65778 0.76024 0.0
C2829 C 0.41072 0.67759 0.75536 0.0
C2830 C 0.39537 0.68625 0.77086 0.0
C2831 C 0.39088 0.67535 0.79124 0.0
C2832 C 0.37433 0.68896 0.80557 0.0
C2833 C 0.35227 0.67034 0.80611 0.0
C2834 C 0.38488 0.70132 0.83198 0.0
C2835 C 0.37027 0.70915 0.79043 0.0
C2836 C 0.38228 0.70683 0.7701 0.0
C2837 C 0.3806 0.7228 0.75303 0.0
C2838 C 0.36726 0.74142 0.75683 0.0
C2839 C 0.35507 0.74536 0.77782 0.0
C2840 C 0.35709 0.72842 0.79487 0.0
H2841 H 0.21727 0.62639 0.48267 0.0
H2842 H 0.24343 0.58469 0.53272 0.0
H2843 H 0.20541 0.56197 0.53561 0.0
H2844 H 0.18173 0.64362 0.51222 0.0
H2845 H 0.15811 0.63986 0.4896 0.0
H2846 H 0.18557 0.6431 0.47995 0.0
H2847 H 0.1741 0.60106 0.44854 0.0
H2848 H 0.14605 0.59845 0.45717 0.0
H2849 H 0.16026 0.57336 0.45866 0.0
H2850 H 0.16571 0.55353 0.54316 0.0
H2851 H 0.12837 0.55831 0.5524 0.0
H2852 H 0.12952 0.61228 0.50479 0.0
C2853 C 0.21498 0.61136 0.49298 0.0
C2854 C 0.23311 0.60758 0.50775 0.0
C2855 C 0.22976 0.5879 0.52118 0.0
C2856 C 0.20813 0.57481 0.5229 0.0
C2857 C 0.19024 0.58131 0.51067 0.0
C2858 C 0.19343 0.59855 0.49517 0.0
C2859 C 0.17187 0.60628 0.48854 0.0
C2860 C 0.17452 0.63491 0.4929 0.0
C2861 C 0.16252 0.59406 0.46164 0.0
C2862 C 0.15749 0.5947 0.50641 0.0
C2863 C 0.16769 0.57877 0.51737 0.0
C2864 C 0.15773 0.56615 0.53476 0.0
C2865 C 0.13682 0.56985 0.54092 0.0
C2866 C 0.12667 0.58733 0.53133 0.0
C2867 C 0.13718 0.59964 0.51349 0.0
H2868 H 0.72656 0.98729 0.76838 0.0
H2869 H 0.7545 1.00156 0.70093 0.0
H2870 H 0.78392 0.97849 0.7096 0.0
H2871 H 0.7769 1.00596 0.80165 0.0
H2872 H 0.77135 0.9855 0.82354 0.0
H2873 H 0.74873 0.99538 0.8086 0.0
H2874 H 0.72815 0.94948 0.79169 0.0
H2875 H 0.75013 0.93921 0.80746 0.0
H2876 H 0.74265 0.92802 0.77464 0.0
H2877 H 0.8122 0.95783 0.72862 0.0
H2878 H 0.8374 0.94229 0.75624 0.0
H2879 H 0.79369 0.95027 0.81421 0.0
C2880 C 0.73814 0.98434 0.75472 0.0
C2881 C 0.73808 0.99521 0.7336 0.0
C2882 C 0.75419 0.99259 0.71685 0.0
C2883 C 0.7709 0.97969 0.72174 0.0
C2884 C 0.77141 0.97067 0.74383 0.0
C2885 C 0.75545 0.97304 0.76008 0.0
C2886 C 0.76184 0.9668 0.78471 0.0
C2887 C 0.76488 0.98977 0.80585 0.0
C2888 C 0.74469 0.94453 0.7899 0.0
C2889 C 0.78388 0.96014 0.7798 0.0
C2890 C 0.78901 0.96209 0.75605 0.0
C2891 C 0.8085 0.95652 0.74733 0.0
C2892 C 0.82284 0.94816 0.76316 0.0
C2893 C 0.81775 0.9462 0.78747 0.0
C2894 C 0.79826 0.95261 0.79598 0.0
H2895 H 0.75916 0.91842 0.55775 0.0
H2896 H 0.80768 0.95748 0.51649 0.0
H2897 H 0.78083 0.98194 0.5049 0.0
H2898 H 0.7105 0.91395 0.51787 0.0
H2899 H 0.6929 0.92078 0.5419 0.0
H2900 H 0.71615 0.90681 0.54802 0.0
H2901 H 0.73146 0.94303 0.58539 0.0
H2902 H 0.70834 0.95726 0.57916 0.0
H2903 H 0.73659 0.97488 0.58076 0.0
H2904 H 0.74856 0.99953 0.4947 0.0
H2905 H 0.71192 1.01022 0.48715 0.0
H2906 H 0.6841 0.96282 0.53699 0.0
C2907 C 0.76404 0.9323 0.54648 0.0
C2908 C 0.78546 0.93624 0.53802 0.0
C2909 C 0.79141 0.95448 0.52332 0.0
C2910 C 0.77629 0.96845 0.51665 0.0
C2911 C 0.75539 0.96441 0.52531 0.0
C2912 C 0.74922 0.94705 0.54014 0.0
C2913 C 0.72553 0.94667 0.54672 0.0
C2914 C 0.71039 0.92049 0.53809 0.0
C2915 C 0.72548 0.95601 0.57467 0.0
C2916 C 0.71906 0.96533 0.53203 0.0
C2917 C 0.73674 0.97554 0.52013 0.0
C2918 C 0.73469 0.99207 0.50427 0.0
C2919 C 0.7139 0.99806 0.50011 0.0
C2920 C 0.6955 0.98765 0.51183 0.0
C2921 C 0.69816 0.97141 0.52831 0.0
H2922 H 0.43445 0.48196 0.80288 0.0
H2923 H 0.3926 0.51109 0.75417 0.0
H2924 H 0.36486 0.47063 0.74671 0.0
H2925 H 0.42455 0.41884 0.77043 0.0
H2926 H 0.42315 0.40494 0.79762 0.0
H2927 H 0.43927 0.43622 0.79963 0.0
H2928 H 0.41697 0.45266 0.83462 0.0
H2929 H 0.40085 0.42136 0.8328 0.0
H2930 H 0.38694 0.44635 0.82953 0.0
H2931 H 0.3412 0.42445 0.74368 0.0
H2932 H 0.32483 0.38072 0.74644 0.0
H2933 H 0.38156 0.3808 0.79741 0.0
C2934 C 0.41941 0.48001 0.79067 0.0
C2935 C 0.41615 0.50043 0.7791 0.0
C2936 C 0.39588 0.49642 0.7635 0.0
C2937 C 0.37992 0.47318 0.75907 0.0
C2938 C 0.38383 0.45354 0.77056 0.0
C2939 C 0.40306 0.45696 0.78636 0.0
C2940 C 0.40309 0.43319 0.79701 0.0
C2941 C 0.42375 0.42268 0.79079 0.0
C2942 C 0.40191 0.43872 0.82516 0.0
C2943 C 0.38155 0.41529 0.78383 0.0
C2944 C 0.37045 0.42757 0.76896 0.0
C2945 C 0.34994 0.41503 0.75544 0.0
C2946 C 0.34059 0.38988 0.75721 0.0
C2947 C 0.35143 0.37651 0.77222 0.0
C2948 C 0.37249 0.38982 0.78557 0.0
H2949 H 0.24483 0.62121 0.2449 0.0
H2950 H 0.2383 0.62916 0.32338 0.0
H2951 H 0.26605 0.66959 0.33125 0.0
H2952 H 0.30454 0.6581 0.24808 0.0
H2953 H 0.29691 0.67215 0.22272 0.0
H2954 H 0.28314 0.64063 0.22384 0.0
H2955 H 0.24458 0.65276 0.22052 0.0
H2956 H 0.25826 0.6839 0.21877 0.0
H2957 H 0.23983 0.6789 0.24238 0.0
H2958 H 0.29004 0.7111 0.32962 0.0
H2959 H 0.30173 0.75262 0.31858 0.0
H2960 H 0.28469 0.71887 0.24112 0.0
C2961 C 0.25008 0.63106 0.26381 0.0
C2962 C 0.24026 0.62223 0.28368 0.0
C2963 C 0.24626 0.6358 0.30813 0.0
C2964 C 0.26209 0.6585 0.3127 0.0
C2965 C 0.27116 0.66722 0.29249 0.0
C2966 C 0.26499 0.65403 0.26845 0.0
C2967 C 0.27247 0.66962 0.24957 0.0
C2968 C 0.29033 0.6595 0.23522 0.0
C2969 C 0.2526 0.67141 0.23182 0.0
C2970 C 0.28239 0.6942 0.26664 0.0
C2971 C 0.28279 0.69213 0.29129 0.0
C2972 C 0.29001 0.71285 0.31037 0.0
C2973 C 0.29629 0.73632 0.30397 0.0
C2974 C 0.2941 0.73881 0.27889 0.0
C2975 C 0.28744 0.71753 0.26016 0.0
H2976 H 0.524 0.71625 0.5033 0.0
H2977 H 0.54853 0.70637 0.43104 0.0
H2978 H 0.56022 0.66814 0.43896 0.0
H2979 H 0.56833 0.6956 0.53554 0.0
H2980 H 0.55022 0.68005 0.55509 0.0
H2981 H 0.54358 0.70646 0.54374 0.0
H2982 H 0.5047 0.6797 0.52469 0.0
H2983 H 0.51125 0.65332 0.53613 0.0
H2984 H 0.50291 0.65049 0.50363 0.0
H2985 H 0.568 0.62864 0.45457 0.0
H2986 H 0.57165 0.59407 0.4763 0.0
H2987 H 0.54449 0.63037 0.53952 0.0
C2988 C 0.53176 0.70608 0.489 0.0
C2989 C 0.53506 0.71475 0.46628 0.0
C2990 C 0.54555 0.70053 0.44848 0.0
C2991 C 0.55233 0.67862 0.45288 0.0
C2992 C 0.54884 0.67073 0.47539 0.0
C2993 C 0.53884 0.68417 0.4932 0.0
C2994 C 0.5371 0.6718 0.51593 0.0
C2995 C 0.55061 0.68954 0.53894 0.0
C2996 C 0.51253 0.66333 0.52036 0.0
C2997 C 0.54757 0.64929 0.50821 0.0
C2998 C 0.55417 0.64893 0.48468 0.0
C2999 C 0.56328 0.62927 0.47319 0.0
C3000 C 0.56564 0.60971 0.48587 0.0
C3001 C 0.5596 0.60981 0.51028 0.0
C3002 C 0.55016 0.62997 0.52131 0.0
H3003 H 0.69607 0.3606 0.66393 0.0
H3004 H 0.65194 0.288 0.65807 0.0
H3005 H 0.67959 0.27578 0.68539 0.0
H3006 H 0.74839 0.34329 0.66592 0.0
H3007 H 0.76281 0.36885 0.69008 0.0
H3008 H 0.73948 0.37258 0.67063 0.0
H3009 H 0.7197 0.38515 0.70935 0.0
H3010 H 0.74307 0.38162 0.72894 0.0
H3011 H 0.71531 0.36463 0.73132 0.0
H3012 H 0.71279 0.2703 0.712 0.0
H3013 H 0.74774 0.27275 0.7377 0.0
H3014 H 0.77151 0.34928 0.72915 0.0
C3015 C 0.69216 0.34225 0.66865 0.0
C3016 C 0.67154 0.32527 0.65871 0.0
C3017 C 0.66727 0.30148 0.66552 0.0
C3018 C 0.68302 0.2943 0.68101 0.0
C3019 C 0.70311 0.31126 0.69036 0.0
C3020 C 0.70759 0.33498 0.68491 0.0
C3021 C 0.73023 0.34978 0.69845 0.0
C3022 C 0.74617 0.35917 0.68016 0.0
C3023 C 0.72689 0.3716 0.71817 0.0
C3024 C 0.73847 0.33014 0.71076 0.0
C3025 C 0.72224 0.30822 0.70614 0.0
C3026 C 0.72551 0.28743 0.71569 0.0
C3027 C 0.74562 0.28898 0.73033 0.0
C3028 C 0.76281 0.31097 0.73535 0.0
C3029 C 0.759 0.33196 0.72541 0.0
H3030 H 0.04233 0.35184 0.99729 0.0
H3031 H 0.02839 0.35556 0.91996 0.0
H3032 H 0.032 0.4009 0.93141 0.0
H3033 H 1.01263 0.40248 0.02211 0.0
H3034 H 0.03281 0.41522 0.04881 0.0
H3035 H 0.02755 0.38232 0.0354 0.0
H3036 H 0.06965 0.38622 0.03056 0.0
H3037 H 0.07493 0.41907 0.04392 0.0
H3038 H 0.08348 0.40896 0.01385 0.0
H3039 H 0.04032 0.44631 0.94965 0.0
H3040 H 0.05168 0.48902 0.97444 0.0
H3041 H 0.05933 0.45918 0.04097 0.0
C3042 C 0.03965 0.36216 0.98286 0.0
C3043 C 0.03503 0.34965 0.95751 0.0
C3044 C 0.03199 0.36425 0.93939 0.0
C3045 C 0.03397 0.39023 0.94572 0.0
C3046 C 0.03891 0.40201 0.9705 0.0
C3047 C 0.04156 0.38859 0.98894 0.0
C3048 C 0.04749 0.40663 0.01407 0.0
C3049 C 0.02902 0.40133 0.03111 0.0
C3050 C 0.07024 0.40513 0.02632 0.0
C3051 C 0.04843 0.43207 1.00658 0.0
C3052 C 0.04316 0.42871 0.98131 0.0
C3053 C 0.04389 0.44908 0.96955 0.0
C3054 C 0.05016 0.47343 0.98381 0.0
C3055 C 0.05524 0.47781 1.00979 0.0
C3056 C 0.05459 0.45662 0.02127 0.0
H3057 H 0.03125 0.78111 0.13655 0.0
H3058 H 0.05944 0.85915 0.16763 0.0
H3059 H 0.02689 0.8612 0.19146 0.0
H3060 H 0.97126 0.78627 0.13379 0.0
H3061 H 0.96216 0.75627 0.14228 0.0
H3062 H 0.98608 0.76176 0.12514 0.0
H3063 H 1.01015 0.74886 0.15892 0.0
H3064 H 0.98634 0.74328 0.17606 0.0
H3065 H 1.01177 0.76458 0.19073 0.0
H3066 H 0.99236 0.8541 0.21407 0.0
H3067 H 0.96064 0.8375 0.23625 0.0
H3068 H 0.95545 0.76355 0.19223 0.0
C3069 C 0.03023 0.7987 0.14798 0.0
C3070 C 0.04764 0.82013 0.15003 0.0
C3071 C 0.0461 0.84267 0.16563 0.0
C3072 C 0.02765 0.844 0.17916 0.0
C3073 C 1.01078 0.82256 0.17701 0.0
C3074 C 1.0119 0.80029 0.16183 0.0
C3075 C 0.99241 0.77953 0.16441 0.0
C3076 C 0.97707 0.77042 0.13995 0.0
C3077 C 1.00067 0.75779 0.17306 0.0
C3078 C 0.98085 0.79326 0.18425 0.0
C3079 C 0.99132 0.81825 0.19071 0.0
C3080 C 0.98395 0.8346 0.209 0.0
C3081 C 0.96583 0.82505 0.22144 0.0
C3082 C 0.95551 0.79929 0.21596 0.0
C3083 C 0.96295 0.78337 0.19676 0.0
H3084 H 0.52939 0.35365 0.15218 0.0
H3085 H 0.51168 0.28525 0.0962 0.0
H3086 H 0.52373 0.30845 0.06439 0.0
H3087 H 0.51147 0.39336 0.10833 0.0
H3088 H 0.53356 0.42001 0.12151 0.0
H3089 H 0.52152 0.39874 0.14069 0.0
H3090 H 0.56074 0.39173 0.15341 0.0
H3091 H 0.57284 0.41308 0.13448 0.0
H3092 H 0.57759 0.38172 0.12966 0.0
H3093 H 0.5415 0.33607 0.0393 0.0
H3094 H 0.56388 0.36924 0.02133 0.0
H3095 H 0.56866 0.42171 0.09064 0.0
C3096 C 0.52777 0.34377 0.13318 0.0
C3097 C 0.51985 0.31755 0.12694 0.0
C3098 C 0.51795 0.30524 0.10179 0.0
C3099 C 0.52457 0.31827 0.08331 0.0
C3100 C 0.5326 0.34384 0.08994 0.0
C3101 C 0.53401 0.35672 0.11406 0.0
C3102 C 0.5441 0.3843 0.11563 0.0
C3103 C 0.52663 0.40004 0.12191 0.0
C3104 C 0.56507 0.39321 0.1344 0.0
C3105 C 0.54975 0.38413 0.08914 0.0
C3106 C 0.54238 0.36058 0.07465 0.0
C3107 C 0.54694 0.35481 0.05016 0.0
C3108 C 0.55969 0.37361 0.04015 0.0
C3109 C 0.56762 0.39776 0.05461 0.0
C3110 C 0.56231 0.40334 0.07924 0.0
H3111 H 0.06813 0.32953 0.35242 0.0
H3112 H 0.05062 0.36491 0.42302 0.0
H3113 H 0.01447 0.36716 0.40272 0.0
H3114 H 0.04516 0.36537 0.31549 0.0
H3115 H 0.03455 0.34004 0.28958 0.0
H3116 H 0.05848 0.33916 0.30978 0.0
H3117 H 0.0384 0.29623 0.31809 0.0
H3118 H 0.01442 0.29687 0.29775 0.0
H3119 H 1.01122 0.29295 0.32917 0.0
H3120 H 0.98162 0.36837 0.37497 0.0
H3121 H 0.95289 0.36705 0.34114 0.0
H3122 H 0.99098 0.33067 0.28819 0.0
C3123 C 0.05658 0.33743 0.3637 0.0
C3124 C 0.06229 0.34702 0.38937 0.0
C3125 C 0.0467 0.35736 0.40337 0.0
C3126 C 0.02608 0.35875 0.39202 0.0
C3127 C 0.0212 0.34958 0.36668 0.0
C3128 C 0.03585 0.33892 0.35267 0.0
C3129 C 0.02661 0.33116 0.32558 0.0
C3130 C 0.04213 0.34476 0.30915 0.0
C3131 C 0.02241 0.30261 0.31716 0.0
C3132 C 1.00485 0.33998 0.32651 0.0
C3133 C 1.00202 0.35027 0.35047 0.0
C3134 C 0.9835 0.36013 0.35615 0.0
C3135 C 0.96729 0.35929 0.33682 0.0
C3136 C 0.96969 0.34872 0.3121 0.0
C3137 C 0.98881 0.33904 0.3069 0.0
H3138 H 0.02581 0.69568 0.65671 0.0
H3139 H 0.96779 0.69414 0.60733 0.0
H3140 H 0.96888 0.65165 0.58613 0.0
H3141 H 0.05463 0.6779 0.61471 0.0
H3142 H 0.06948 0.65843 0.62917 0.0
H3143 H 0.05911 0.68237 0.64802 0.0
H3144 H 0.03653 0.65004 0.67044 0.0
H3145 H 0.04749 0.62585 0.65224 0.0
H3146 H 0.01774 0.62252 0.6526 0.0
H3147 H 0.98334 0.61883 0.56205 0.0
H3148 H 1.00768 0.59506 0.53927 0.0
H3149 H 0.05792 0.61731 0.6027 0.0
C3150 C 1.01238 0.68542 0.64272 0.0
C3151 C 0.99629 0.69752 0.63402 0.0
C3152 C 0.97973 0.68462 0.61463 0.0
C3153 C 0.98035 0.66054 0.60245 0.0
C3154 C 0.99778 0.6499 0.60983 0.0
C3155 C 1.0133 0.66166 0.62995 0.0
C3156 C 0.03315 0.64931 0.63057 0.0
C3157 C 0.05536 0.66813 0.6306 0.0
C3158 C 0.03375 0.63614 0.65278 0.0
C3159 C 0.02739 0.63049 0.60649 0.0
C3160 C 1.00664 0.63064 0.59521 0.0
C3161 C 0.99921 0.61786 0.57109 0.0
C3162 C 1.01333 0.60474 0.55815 0.0
C3163 C 0.03465 0.60448 0.56935 0.0
C3164 C 0.04151 0.61695 0.59399 0.0
H3165 H 0.67924 0.79601 0.86053 0.0
H3166 H 0.6788 0.86843 0.84231 0.0
H3167 H 0.70818 0.86328 0.81416 0.0
H3168 H 0.73628 0.7992 0.86367 0.0
H3169 H 0.73343 0.76676 0.84964 0.0
H3170 H 0.71151 0.77638 0.86619 0.0
H3171 H 0.68116 0.75963 0.82612 0.0
H3172 H 0.70349 0.7467 0.81473 0.0
H3173 H 0.69048 0.76546 0.797 0.0
H3174 H 0.73851 0.85061 0.79011 0.0
H3175 H 0.77173 0.83511 0.77729 0.0
H3176 H 0.75308 0.77261 0.81408 0.0
C3177 C 0.68538 0.81062 0.85045 0.0
C3178 C 0.67704 0.83232 0.85293 0.0
C3179 C 0.68515 0.85145 0.83996 0.0
C3180 C 0.7016 0.84861 0.82395 0.0
C3181 C 0.70924 0.82645 0.82127 0.0
C3182 C 0.70168 0.80811 0.83456 0.0
C3183 C 0.71314 0.78668 0.82961 0.0
C3184 C 0.72427 0.78204 0.85372 0.0
C3185 C 0.69611 0.76328 0.81593 0.0
C3186 C 0.72997 0.79672 0.81307 0.0
C3187 C 0.72668 0.81913 0.80747 0.0
C3188 C 0.74097 0.83282 0.7938 0.0
C3189 C 0.75966 0.82384 0.7865 0.0
C3190 C 0.76411 0.80206 0.79377 0.0
C3191 C 0.74909 0.7883 0.80698 0.0
H3192 H 0.46301 0.54982 0.68726 0.0
H3193 H 0.51279 0.60783 0.73526 0.0
H3194 H 0.53608 0.61082 0.70065 0.0
H3195 H 0.49974 0.51914 0.65189 0.0
H3196 H 0.48383 0.51358 0.62202 0.0
H3197 H 0.46993 0.5166 0.64983 0.0
H3198 H 0.45347 0.55215 0.6369 0.0
H3199 H 0.46714 0.54905 0.6089 0.0
H3200 H 0.47192 0.5789 0.62966 0.0
H3201 H 0.55647 0.60585 0.66001 0.0
H3202 H 0.56941 0.59601 0.61899 0.0
H3203 H 0.5076 0.54175 0.59363 0.0
C3204 C 0.47837 0.56395 0.69036 0.0
C3205 C 0.48504 0.57949 0.71484 0.0
C3206 C 0.5062 0.59642 0.71726 0.0
C3207 C 0.51993 0.59802 0.69741 0.0
C3208 C 0.51296 0.58262 0.67396 0.0
C3209 C 0.49237 0.56618 0.67015 0.0
C3210 C 0.48901 0.55195 0.64277 0.0
C3211 C 0.4854 0.52362 0.64156 0.0
C3212 C 0.4692 0.55837 0.62872 0.0
C3213 C 0.51111 0.56206 0.63215 0.0
C3214 C 0.52458 0.5799 0.65066 0.0
C3215 C 0.54576 0.59187 0.64568 0.0
C3216 C 0.5533 0.58585 0.62185 0.0
C3217 C 0.54037 0.56768 0.60191 0.0
C3218 C 0.51855 0.55579 0.6077 0.0
H3219 H 0.79686 0.15612 0.95529 0.0
H3220 H 0.81151 0.22037 0.01578 0.0
H3221 H 0.80555 0.2478 0.98676 0.0
H3222 H 0.82068 0.19121 0.90644 0.0
H3223 H 0.79881 0.17322 0.88303 0.0
H3224 H 0.80858 0.15913 0.90751 0.0
H3225 H 0.76811 0.14739 0.9191 0.0
H3226 H 0.75821 0.16149 0.89483 0.0
H3227 H 0.75266 0.1716 0.92627 0.0
H3228 H 0.79358 0.26727 0.95331 0.0
H3229 H 0.77529 0.27773 0.91652 0.0
H3230 H 0.76668 0.20107 0.87756 0.0
C3231 C 0.79952 0.17607 0.96213 0.0
C3232 C 0.80477 0.18627 0.98754 0.0
C3233 C 0.80752 0.21231 0.99623 0.0
C3234 C 0.80434 0.22807 0.97991 0.0
C3235 C 0.79847 0.21744 0.95502 0.0
C3236 C 0.79615 0.19211 0.94604 0.0
C3237 C 0.78719 0.18521 0.91894 0.0
C3238 C 0.80487 0.17669 0.90304 0.0
C3239 C 0.76524 0.16525 0.91455 0.0
C3240 C 0.78341 0.21024 0.91469 0.0
C3241 C 0.79073 0.22871 0.93555 0.0
C3242 C 0.7881 0.25312 0.93668 0.0
C3243 C 0.77763 0.25884 0.91586 0.0
C3244 C 0.76964 0.24008 0.89453 0.0
C3245 C 0.77266 0.21557 0.89383 0.0
H3246 H 0.16398 0.59383 0.19085 0.0
H3247 H 0.18482 0.52311 0.17718 0.0
H3248 H 0.15754 0.50858 0.14012 0.0
H3249 H 0.11033 0.57286 0.18022 0.0
H3250 H 0.10257 0.59534 0.16332 0.0
H3251 H 0.12755 0.60398 0.18461 0.0
H3252 H 0.15214 0.6162 0.15048 0.0
H3253 H 0.12712 0.60947 0.12931 0.0
H3254 H 0.14985 0.59453 0.12153 0.0
H3255 H 0.12279 0.49839 0.11133 0.0
H3256 H 0.09039 0.49841 0.08228 0.0
H3257 H 0.09207 0.57532 0.11562 0.0
C3258 C 0.16354 0.57583 0.17927 0.0
C3259 C 0.17602 0.55938 0.18683 0.0
C3260 C 0.17528 0.53594 0.1715 0.0
C3261 C 0.15969 0.52741 0.15062 0.0
C3262 C 0.14571 0.54298 0.14529 0.0
C3263 C 0.14828 0.5672 0.1583 0.0
C3264 C 0.13034 0.5796 0.1496 0.0
C3265 C 0.11692 0.58845 0.17071 0.0
C3266 C 0.14046 0.60122 0.13697 0.0
C3267 C 0.11637 0.55794 0.1311 0.0
C3268 C 0.12553 0.53702 0.1288 0.0
C3269 C 0.11558 0.51472 0.11269 0.0
C3270 C 0.09689 0.51463 0.09684 0.0
C3271 C 0.08879 0.53671 0.09745 0.0
C3272 C 0.09768 0.55805 0.11564 0.0
H3273 H 0.83119 0.89962 0.45724 0.0
H3274 H 0.83968 0.83416 0.48624 0.0
H3275 H 0.83942 0.81095 0.44343 0.0
H3276 H 0.79332 0.86571 0.40452 0.0
H3277 H 0.8039 0.88698 0.38476 0.0
H3278 H 0.80537 0.89808 0.41765 0.0
H3279 H 0.84819 0.91452 0.41921 0.0
H3280 H 0.8468 0.90334 0.38633 0.0
H3281 H 0.86531 0.89331 0.40727 0.0
H3282 H 0.8354 0.79409 0.39582 0.0
H3283 H 0.82939 0.78665 0.34975 0.0
H3284 H 0.8265 0.86439 0.35384 0.0
C3285 C 0.83329 0.88051 0.45468 0.0
C3286 C 0.83565 0.8688 0.47513 0.0
C3287 C 0.83797 0.84359 0.47085 0.0
C3288 C 0.83781 0.83024 0.44658 0.0
C3289 C 0.83533 0.84236 0.42677 0.0
C3290 C 0.83314 0.86699 0.43071 0.0
C3291 C 0.82992 0.87571 0.40654 0.0
C3292 C 0.80677 0.88199 0.40318 0.0
C3293 C 0.84869 0.89804 0.40474 0.0
C3294 C 0.83131 0.85249 0.38834 0.0
C3295 C 0.83399 0.83316 0.4001 0.0
C3296 C 0.83378 0.80932 0.38652 0.0
C3297 C 0.83058 0.80526 0.36038 0.0
C3298 C 0.82831 0.82515 0.34821 0.0
C3299 C 0.82883 0.84896 0.36256 0.0
H3300 H 0.50858 0.59435 0.85333 0.0
H3301 H 0.44258 0.55028 0.8565 0.0
H3302 H 0.45651 0.53741 0.89432 0.0
H3303 H 0.54233 0.55491 0.87724 0.0
H3304 H 0.56248 0.58016 0.8967 0.0
H3305 H 0.54783 0.58557 0.86944 0.0
H3306 H 0.53408 0.62137 0.896 0.0
H3307 H 0.54887 0.6162 0.9233 0.0
H3308 H 0.51939 0.61543 0.92229 0.0
H3309 H 0.47823 0.53012 0.93548 0.0
H3310 H 0.50318 0.53118 0.97281 0.0
H3311 H 0.5564 0.57901 0.94549 0.0
C3312 C 0.49695 0.58181 0.86176 0.0
C3313 C 0.47394 0.57332 0.85062 0.0
C3314 C 0.45997 0.55737 0.86362 0.0
C3315 C 0.46794 0.54979 0.88552 0.0
C3316 C 0.49038 0.55837 0.89583 0.0
C3317 C 0.50465 0.57445 0.88445 0.0
C3318 C 0.52768 0.58225 0.90044 0.0
C3319 C 0.54618 0.57531 0.88502 0.0
C3320 C 0.53283 0.61049 0.91112 0.0
C3321 C 0.52461 0.56717 0.92168 0.0
C3322 C 0.50276 0.55376 0.91876 0.0
C3323 C 0.49548 0.53999 0.937 0.0
C3324 C 0.51027 0.54005 0.9583 0.0
C3325 C 0.53327 0.55256 0.96197 0.0
C3326 C 0.5399 0.56699 0.94303 0.0
H3327 H 0.82402 0.19775 0.10903 0.0
H3328 H 0.75663 0.15724 0.11216 0.0
H3329 H 0.75486 0.18494 0.1519 0.0
H3330 H 0.84272 0.21776 0.17795 0.0
H3331 H 0.85699 0.24793 0.17314 0.0
H3332 H 0.8548 0.22062 0.14936 0.0
H3333 H 0.83747 0.24387 0.11872 0.0
H3334 H 0.83797 0.27034 0.14294 0.0
H3335 H 0.81201 0.25404 0.12493 0.0
H3336 H 0.75642 0.223 0.18295 0.0
H3337 H 0.76633 0.26126 0.2148 0.0
H3338 H 0.83326 0.27634 0.19207 0.0
C3339 C 0.8096 0.19366 0.11913 0.0
C3340 C 0.79063 0.17531 0.10831 0.0
C3341 C 0.77141 0.171 0.12087 0.0
C3342 C 0.77016 0.18685 0.14309 0.0
C3343 C 0.78828 0.20665 0.15195 0.0
C3344 C 0.808 0.20964 0.14097 0.0
C3345 C 0.82386 0.23412 0.15243 0.0
C3346 C 0.84588 0.22982 0.16393 0.0
C3347 C 0.82807 0.2516 0.13363 0.0
C3348 C 0.81013 0.244 0.17185 0.0
C3349 C 0.7894 0.22838 0.17061 0.0
C3350 C 0.77297 0.23486 0.18492 0.0
C3351 C 0.77874 0.2568 0.20276 0.0
C3352 C 0.80104 0.27101 0.20673 0.0
C3353 C 0.81641 0.26544 0.19005 0.0
H3354 H 0.19843 0.58251 0.32023 0.0
H3355 H 0.17159 0.5027 0.30153 0.0
H3356 H 0.14525 0.50663 0.33329 0.0
H3357 H 0.18816 0.59281 0.38795 0.0
H3358 H 0.18012 0.62186 0.3859 0.0
H3359 H 0.2008 0.61186 0.36717 0.0
H3360 H 0.17731 0.61583 0.328 0.0
H3361 H 0.15617 0.62506 0.34628 0.0
H3362 H 0.14879 0.59842 0.32113 0.0
H3363 H 0.11798 0.52001 0.36102 0.0
H3364 H 0.09278 0.54172 0.3854 0.0
H3365 H 0.13515 0.6134 0.38265 0.0
C3366 C 0.18757 0.56584 0.32354 0.0
C3367 C 0.18705 0.54228 0.30898 0.0
C3368 C 0.17246 0.52076 0.31324 0.0
C3369 C 0.15741 0.52289 0.33104 0.0
C3370 C 0.15723 0.54671 0.34405 0.0
C3371 C 0.17214 0.56782 0.34078 0.0
C3372 C 0.16647 0.59152 0.35428 0.0
C3373 C 0.18499 0.60532 0.37507 0.0
C3374 C 0.16191 0.60869 0.33634 0.0
C3375 C 0.1454 0.58048 0.36462 0.0
C3376 C 0.14065 0.55461 0.35895 0.0
C3377 C 0.12161 0.54023 0.36578 0.0
C3378 C 0.1073 0.55264 0.37925 0.0
C3379 C 0.11196 0.57907 0.38522 0.0
C3380 C 0.13113 0.59316 0.37774 0.0
H3381 H 0.84353 0.89198 0.62948 0.0
H3382 H 0.80058 0.83126 0.57661 0.0
H3383 H 0.78701 0.81117 0.6107 0.0
H3384 H 0.86122 0.85628 0.66856 0.0
H3385 H 0.8608 0.87677 0.69766 0.0
H3386 H 0.86446 0.88947 0.66999 0.0
H3387 H 0.83036 0.90966 0.67688 0.0
H3388 H 0.82676 0.89717 0.70477 0.0
H3389 H 0.80394 0.89041 0.68062 0.0
H3390 H 0.78157 0.79486 0.64817 0.0
H3391 H 0.7839 0.78259 0.68796 0.0
H3392 H 0.83066 0.85226 0.71945 0.0
C3393 C 0.83067 0.87495 0.62534 0.0
C3394 C 0.82271 0.86329 0.60047 0.0
C3395 C 0.80654 0.84058 0.59554 0.0
C3396 C 0.79872 0.82907 0.61478 0.0
C3397 C 0.80722 0.84049 0.639 0.0
C3398 C 0.82266 0.86301 0.64458 0.0
C3399 C 0.83024 0.86972 0.67234 0.0
C3400 C 0.85569 0.87325 0.67742 0.0
C3401 C 0.82236 0.89313 0.68436 0.0
C3402 C 0.81787 0.84658 0.68089 0.0
C3403 C 0.80428 0.8305 0.6613 0.0
C3404 C 0.7919 0.80748 0.66377 0.0
C3405 C 0.79346 0.80047 0.68677 0.0
C3406 C 0.8074 0.81603 0.70736 0.0
C3407 C 0.81962 0.83975 0.70431 0.0
H3408 H 0.775 0.46434 0.54352 0.0
H3409 H 0.80071 0.50936 0.49096 0.0
H3410 H 0.76896 0.53058 0.49454 0.0
H3411 H 0.71332 0.46169 0.52749 0.0
H3412 H 0.70848 0.46456 0.55965 0.0
H3413 H 0.72947 0.44848 0.54803 0.0
H3414 H 0.75908 0.47775 0.5817 0.0
H3415 H 0.7384 0.49403 0.59334 0.0
H3416 H 0.76354 0.51115 0.58392 0.0
H3417 H 0.73884 0.551 0.50867 0.0
H3418 H 0.71343 0.57122 0.53417 0.0
H3419 H 0.70911 0.51457 0.57953 0.0
C3420 C 0.77341 0.47822 0.53235 0.0
C3421 C 0.78977 0.48554 0.51702 0.0
C3422 C 0.78799 0.5039 0.50284 0.0
C3423 C 0.76998 0.5157 0.50454 0.0
C3424 C 0.75426 0.50873 0.52053 0.0
C3425 C 0.7558 0.49039 0.53421 0.0
C3426 C 0.73913 0.48928 0.55306 0.0
C3427 C 0.72155 0.46454 0.54666 0.0
C3428 C 0.75075 0.49331 0.57955 0.0
C3429 C 0.72917 0.5111 0.54915 0.0
C3430 C 0.73745 0.52142 0.52966 0.0
C3431 C 0.73196 0.54293 0.52374 0.0
C3432 C 0.71782 0.5544 0.53839 0.0
C3433 C 0.70995 0.54455 0.5589 0.0
C3434 C 0.71533 0.52249 0.56407 0.0
H3435 H 0.22418 0.17672 0.53664 0.0
H3436 H 0.23707 0.14844 0.46193 0.0
H3437 H 0.20208 0.11568 0.45662 0.0
H3438 H 0.19959 0.11336 0.54918 0.0
H3439 H 0.18017 0.12529 0.56853 0.0
H3440 H 0.20704 0.14486 0.56683 0.0
H3441 H 0.1875 0.17856 0.55399 0.0
H3442 H 0.16069 0.15908 0.55565 0.0
H3443 H 0.16679 0.17007 0.52743 0.0
H3444 H 0.16456 0.08627 0.45972 0.0
H3445 H 0.12806 0.06458 0.47034 0.0
H3446 H 0.1392 0.11481 0.54172 0.0
C3447 C 0.21963 0.16348 0.51925 0.0
C3448 C 0.23313 0.16504 0.49961 0.0
C3449 C 0.22688 0.1474 0.47716 0.0
C3450 C 0.20708 0.12876 0.47404 0.0
C3451 C 0.19391 0.12781 0.49371 0.0
C3452 C 0.20009 0.14463 0.51597 0.0
C3453 C 0.18302 0.13986 0.53415 0.0
C3454 C 0.19305 0.13029 0.55596 0.0
C3455 C 0.17396 0.16329 0.54331 0.0
C3456 C 0.16534 0.11927 0.51801 0.0
C3457 C 0.17227 0.11175 0.49512 0.0
C3458 C 0.15904 0.0921 0.47763 0.0
C3459 C 0.13832 0.07987 0.48379 0.0
C3460 C 0.13068 0.0878 0.50692 0.0
C3461 C 0.14438 0.10801 0.52399 0.0
H3462 H 0.24402 0.95894 0.75189 0.0
H3463 H 0.20305 0.9447 0.81089 0.0
H3464 H 0.22173 0.91059 0.81744 0.0
H3465 H 0.24167 0.89134 0.72743 0.0
H3466 H 0.2697 0.89627 0.7186 0.0
H3467 H 0.25422 0.92062 0.71921 0.0
H3468 H 0.28602 0.95139 0.74898 0.0
H3469 H 0.30142 0.92696 0.74802 0.0
H3470 H 0.29544 0.94295 0.77735 0.0
H3471 H 0.24774 0.87688 0.81946 0.0
H3472 H 0.27156 0.84585 0.81212 0.0
H3473 H 0.29356 0.87583 0.74846 0.0
C3474 C 0.23883 0.94875 0.76627 0.0
C3475 C 0.22144 0.9558 0.78099 0.0
C3476 C 0.21581 0.94075 0.79911 0.0
C3477 C 0.22667 0.92097 0.80312 0.0
C3478 C 0.2435 0.91472 0.78859 0.0
C3479 C 0.24918 0.92791 0.77001 0.0
C3480 C 0.26677 0.91602 0.75584 0.0
C3481 C 0.25755 0.90544 0.72865 0.0
C3482 C 0.28871 0.9355 0.75765 0.0
C3483 C 0.27035 0.89454 0.76937 0.0
C3484 C 0.257 0.89452 0.7886 0.0
C3485 C 0.25794 0.87705 0.80421 0.0
C3486 C 0.27198 0.85924 0.80001 0.0
C3487 C 0.28553 0.85765 0.77999 0.0
C3488 C 0.2842 0.87604 0.76441 0.0
H3489 H 0.41531 0.96262 0.98741 0.0
H3490 H 0.40344 1.00495 0.05708 0.0
H3491 H 0.44009 0.03379 0.05896 0.0
H3492 H 0.46492 0.95842 0.99951 0.0
H3493 H 0.47693 0.9639 0.97146 0.0
H3494 H 0.44744 0.95265 0.97055 0.0
H3495 H 0.43878 0.99095 0.95294 0.0
H3496 H 0.46833 0.99947 0.95133 0.0
H3497 H 0.45414 0.02192 0.96726 0.0
H3498 H 0.48015 0.04858 0.05975 0.0
H3499 H 0.52019 0.05069 0.05828 0.0
H3500 H 0.50695 0.99846 0.98831 0.0
C3501 C 0.42023 0.97861 1.00251 0.0
C3502 C 0.40705 0.9817 0.02222 0.0
C3503 C 0.41352 1.00257 0.04181 0.0
C3504 C 0.43418 0.01907 0.04288 0.0
C3505 C 0.44757 1.01471 0.0238 0.0
C3506 C 0.44059 0.99538 1.00357 0.0
C3507 C 0.45919 0.99241 0.98746 0.0
C3508 C 0.4623 0.96525 0.982 0.0
C3509 C 0.45488 1.0018 0.96335 0.0
C3510 C 0.47861 1.00995 1.00402 0.0
C3511 C 0.47128 0.02378 0.02407 0.0
C3512 C 0.48604 0.03888 0.04356 0.0
C3513 C 0.50878 0.03992 0.04258 0.0
C3514 C 0.51662 0.02582 0.02242 0.0
C3515 C 0.50138 1.01051 1.00304 0.0
H3516 H 0.88342 0.61746 0.83488 0.0
H3517 H 0.94125 0.61665 0.79435 0.0
H3518 H 0.92738 0.64191 0.76683 0.0
H3519 H 0.84525 0.60777 0.78941 0.0
H3520 H 0.82827 0.62912 0.80138 0.0
H3521 H 0.8453 0.61764 0.82238 0.0
H3522 H 0.86515 0.66273 0.84343 0.0
H3523 H 0.84766 0.67461 0.82299 0.0
H3524 H 0.87761 0.68437 0.82488 0.0
H3525 H 0.90286 0.65496 0.73763 0.0
H3526 H 0.87155 0.66302 0.71196 0.0
H3527 H 0.83064 0.65913 0.77276 0.0
C3528 C 0.89367 0.62405 0.82113 0.0
C3529 C 0.91345 0.61587 0.81675 0.0
C3530 C 0.92635 0.62363 0.79819 0.0
C3531 C 0.91857 0.63784 0.78248 0.0
C3532 C 0.89832 0.64468 0.78633 0.0
C3533 C 0.88642 0.63894 0.8058 0.0
C3534 C 0.86402 0.64618 0.80416 0.0
C3535 C 0.84459 0.62383 0.80431 0.0
C3536 C 0.86359 0.66829 0.8251 0.0
C3537 C 0.86421 0.65408 0.7793 0.0
C3538 C 0.88431 0.65353 0.76957 0.0
C3539 C 0.88739 0.65658 0.74538 0.0
C3540 C 0.86955 0.66076 0.73086 0.0
C3541 C 0.84914 0.66186 0.74073 0.0
C3542 C 0.84643 0.65878 0.76523 0.0
H3543 H 0.85257 0.64652 1.00428 0.0
H3544 H 0.8796 0.71667 0.05504 0.0
H3545 H 0.91437 0.70217 0.06412 0.0
H3546 H 0.87184 0.60612 0.03592 0.0
H3547 H 0.8794 0.58655 1.00956 0.0
H3548 H 0.85793 0.60353 1.00542 0.0
H3549 H 0.87951 0.62425 0.97292 0.0
H3550 H 0.90114 0.6073 0.97705 0.0
H3551 H 0.90813 0.6409 0.98113 0.0
H3552 H 0.94414 0.67755 0.07114 0.0
H3553 H 0.96652 0.64554 0.07451 0.0
H3554 H 0.92062 0.59265 0.01751 0.0
C3555 C 0.86594 0.65886 0.01714 0.0
C3556 C 0.86345 0.68252 0.02928 0.0
C3557 C 0.8813 0.69844 0.04566 0.0
C3558 C 0.90107 0.69038 0.05082 0.0
C3559 C 0.90294 0.66672 0.03876 0.0
C3560 C 0.88599 0.65142 0.02185 0.0
C3561 C 0.89191 0.62672 0.01166 0.0
C3562 C 0.87422 0.60443 0.01593 0.0
C3563 C 0.89537 0.62468 0.98405 0.0
C3564 C 0.91384 0.62952 0.02715 0.0
C3565 C 0.9203 0.65298 0.04219 0.0
C3566 C 0.93945 0.65934 0.0591 0.0
C3567 C 0.95204 0.64113 0.06091 0.0
C3568 C 0.94526 0.61692 0.04608 0.0
C3569 C 0.92618 0.61122 0.02877 0.0
H3570 H 0.20224 0.12876 0.80335 0.0
H3571 H 0.24757 0.08145 0.77838 0.0
H3572 H 0.27587 0.11922 0.77536 0.0
H3573 H 0.21664 0.1745 0.76484 0.0
H3574 H 0.21497 0.20104 0.78811 0.0
H3575 H 0.19849 0.17052 0.7889 0.0
H3576 H 0.21568 0.17394 0.83374 0.0
H3577 H 0.23218 0.20451 0.8331 0.0
H3578 H 0.24561 0.18036 0.84047 0.0
H3579 H 0.29993 0.16372 0.77439 0.0
H3580 H 0.31644 0.20802 0.77553 0.0
H3581 H 0.25634 0.22839 0.80114 0.0
C3582 C 0.21816 0.12616 0.79736 0.0
C3583 C 0.22225 0.10131 0.79123 0.0
C3584 C 0.24359 0.09964 0.78346 0.0
C3585 C 0.25991 0.12128 0.78161 0.0
C3586 C 0.25523 0.14522 0.78768 0.0
C3587 C 0.23482 0.14775 0.79555 0.0
C3588 C 0.23403 0.1757 0.80114 0.0
C3589 C 0.21489 0.18073 0.78477 0.0
C3590 C 0.23172 0.18412 0.82875 0.0
C3591 C 0.25688 0.18858 0.7946 0.0
C3592 C 0.26891 0.17055 0.78714 0.0
C3593 C 0.29049 0.17772 0.78043 0.0
C3594 C 0.29998 0.20341 0.78138 0.0
C3595 C 0.28837 0.22274 0.78888 0.0
C3596 C 0.26617 0.21471 0.79542 0.0
H3597 H 0.38533 0.98582 0.31809 0.0
H3598 H 0.44953 0.96425 0.31611 0.0
H3599 H 0.43071 0.92129 0.29811 0.0
H3600 H 0.35723 0.93373 0.33624 0.0
H3601 H 0.33084 0.92706 0.31716 0.0
H3602 H 0.34702 0.95865 0.3261 0.0
H3603 H 0.35025 0.96547 0.2821 0.0
H3604 H 0.33177 0.9353 0.27145 0.0
H3605 H 0.3584 0.94235 0.2594 0.0
H3606 H 0.40693 0.88138 0.28475 0.0
H3607 H 0.37761 0.84375 0.27349 0.0
H3608 H 0.32688 0.88786 0.28044 0.0
C3609 C 0.39533 0.97199 0.31378 0.0
C3610 C 0.4189 0.97835 0.319 0.0
C3611 C 0.43147 0.95982 0.31296 0.0
C3612 C 0.42096 0.93535 0.30243 0.0
C3613 C 0.39787 0.9296 0.29796 0.0
C3614 C 0.38504 0.94717 0.30309 0.0
C3615 C 0.36029 0.93503 0.29721 0.0
C3616 C 0.34808 0.93877 0.32054 0.0
C3617 C 0.34956 0.94514 0.27628 0.0
C3618 C 0.36152 0.90783 0.28873 0.0
C3619 C 0.38352 0.90559 0.28926 0.0
C3620 C 0.38962 0.8828 0.28361 0.0
C3621 C 0.37279 0.86147 0.27691 0.0
C3622 C 0.35011 0.86296 0.27527 0.0
C3623 C 0.34421 0.88641 0.28127 0.0
H3624 H 0.5917 0.37348 0.56611 0.0
H3625 H 0.62332 0.41279 0.63878 0.0
H3626 H 0.6179 0.45266 0.62837 0.0
H3627 H 0.6128 0.42089 0.5306 0.0
H3628 H 0.58696 0.41696 0.51134 0.0
H3629 H 0.59312 0.39115 0.52415 0.0
H3630 H 0.55595 0.38674 0.54417 0.0
H3631 H 0.5499 0.41242 0.53104 0.0
H3632 H 0.55008 0.41361 0.56391 0.0
H3633 H 0.60687 0.48889 0.61149 0.0
H3634 H 0.59638 0.51898 0.5875 0.0
H3635 H 0.5745 0.45928 0.52342 0.0
C3636 C 0.59784 0.39052 0.57969 0.0
C3637 C 0.60831 0.38952 0.60346 0.0
C3638 C 0.61539 0.41256 0.62058 0.0
C3639 C 0.61225 0.4355 0.61482 0.0
C3640 C 0.60162 0.43583 0.59169 0.0
C3641 C 0.59463 0.41398 0.57422 0.0
C3642 C 0.58332 0.41997 0.55089 0.0
C3643 C 0.59475 0.41176 0.52788 0.0
C3644 C 0.55833 0.40743 0.54729 0.0
C3645 C 0.58647 0.44864 0.55735 0.0
C3646 C 0.59625 0.45709 0.58146 0.0
C3647 C 0.59956 0.48238 0.59247 0.0
C3648 C 0.59352 0.49955 0.57855 0.0
C3649 C 0.58482 0.49213 0.55323 0.0
C3650 C 0.58109 0.46596 0.54265 0.0
H3651 H 0.46151 0.75354 0.376 0.0
H3652 H 0.46363 0.81911 0.43276 0.0
H3653 H 0.43202 0.82855 0.40967 0.0
H3654 H 0.44543 0.78009 0.32231 0.0
H3655 H 0.4259 0.75214 0.30646 0.0
H3656 H 0.44935 0.7498 0.32667 0.0
H3657 H 0.42248 0.72438 0.35166 0.0
H3658 H 0.39896 0.72669 0.33152 0.0
H3659 H 0.40013 0.73722 0.3645 0.0
H3660 H 0.39798 0.82923 0.38429 0.0
H3661 H 0.36588 0.82485 0.35425 0.0
H3662 H 0.38485 0.76205 0.30861 0.0
C3663 C 0.45548 0.77004 0.38334 0.0
C3664 C 0.46535 0.78552 0.40663 0.0
C3665 C 0.45651 0.80671 0.4154 0.0
C3666 C 0.43842 0.81232 0.40232 0.0
C3667 C 0.42876 0.79663 0.38006 0.0
C3668 C 0.43694 0.77603 0.37028 0.0
C3669 C 0.42248 0.76238 0.34595 0.0
C3670 C 0.43665 0.76103 0.32404 0.0
C3671 C 0.41031 0.7361 0.34856 0.0
C3672 C 0.40566 0.77913 0.34343 0.0
C3673 C 0.40948 0.79826 0.36392 0.0
C3674 C 0.39528 0.81481 0.36776 0.0
C3675 C 0.37695 0.81224 0.35022 0.0
C3676 C 0.37298 0.79402 0.32797 0.0
C3677 C 0.38766 0.77695 0.32473 0.0
H3678 H 0.10106 0.738 0.11554 0.0
H3679 H 0.10183 0.75412 0.04142 0.0
H3680 H 0.09471 0.70902 0.02384 0.0
H3681 H 0.12979 0.68674 0.10329 0.0
H3682 H 0.11399 0.66796 0.12232 0.0
H3683 H 0.1181 0.70155 0.12957 0.0
H3684 H 0.07531 0.69772 0.12774 0.0
H3685 H 0.07116 0.66413 0.12071 0.0
H3686 H 0.05774 0.68003 0.10033 0.0
H3687 H 0.0872 0.66147 0.01356 0.0
H3688 H 0.07988 0.61578 0.012 0.0
H3689 H 0.08605 0.62896 0.09222 0.0
C3690 C 0.09938 0.732 0.09561 0.0
C3691 C 0.10184 0.75 0.07993 0.0
C3692 C 0.09999 0.74103 0.05395 0.0
C3693 C 0.09595 0.71529 0.0437 0.0
C3694 C 0.09402 0.69813 0.0595 0.0
C3695 C 0.09569 0.70605 0.08494 0.0
C3696 C 0.0936 0.68346 0.09761 0.0
C3697 C 0.11515 0.68504 0.11419 0.0
C3698 C 0.07324 0.68121 0.11248 0.0
C3699 C 0.09028 0.6618 0.0754 0.0
C3700 C 0.09057 0.67074 0.05358 0.0
C3701 C 0.08723 0.65437 0.03061 0.0
C3702 C 0.08331 0.62832 0.02986 0.0
C3703 C 0.08318 0.61851 0.05191 0.0
C3704 C 0.08665 0.63573 0.07497 0.0
H3705 H 0.11182 0.27693 0.92323 0.0
H3706 H 0.0634 0.27834 0.86288 0.0
H3707 H 0.09309 0.28252 0.83514 0.0
H3708 H 0.15694 0.32064 0.91038 0.0
H3709 H 0.17824 0.30395 0.91684 0.0
H3710 H 0.15292 0.29925 0.93159 0.0
H3711 H 0.14623 0.25161 0.91454 0.0
H3712 H 0.17142 0.25632 0.89932 0.0
H3713 H 0.14518 0.2404 0.88169 0.0
H3714 H 0.12809 0.28965 0.81435 0.0
H3715 H 0.16651 0.30208 0.8032 0.0
H3716 H 0.19304 0.29527 0.87575 0.0
C3717 C 0.10751 0.27781 0.9041 0.0
C3718 C 0.08515 0.27706 0.89522 0.0
C3719 C 0.08025 0.2784 0.87007 0.0
C3720 C 0.09704 0.28078 0.85408 0.0
C3721 C 0.11881 0.28122 0.86319 0.0
C3722 C 0.12415 0.27961 0.88755 0.0
C3723 C 0.14909 0.28104 0.89249 0.0
C3724 C 0.15993 0.30252 0.91409 0.0
C3725 C 0.15323 0.25585 0.89731 0.0
C3726 C 0.15705 0.28586 0.86784 0.0
C3727 C 0.13916 0.285 0.85094 0.0
C3728 C 0.14221 0.28984 0.82724 0.0
C3729 C 0.1641 0.29659 0.82091 0.0
C3730 C 0.18273 0.29876 0.83824 0.0
C3731 C 0.17908 0.29279 0.86182 0.0
H3732 H 0.64254 0.77634 0.94373 0.0
H3733 H 0.5791 0.77615 0.90482 0.0
H3734 H 0.56102 0.74037 0.92233 0.0
H3735 H 0.62804 0.70213 0.94112 0.0
H3736 H 0.64376 0.70713 0.971 0.0
H3737 H 0.653 0.7265 0.94903 0.0
H3738 H 0.65325 0.76574 0.98213 0.0
H3739 H 0.64326 0.74679 1.00391 0.0
H3740 H 0.6279 0.76914 0.99582 0.0
H3741 H 0.54832 0.71689 0.95427 0.0
H3742 H 0.5429 0.69836 0.99169 0.0
H3743 H 0.61455 0.71016 1.008 0.0
C3744 C 0.62525 0.7674 0.93755 0.0
C3745 C 0.61217 0.77838 0.92271 0.0
C3746 C 0.58935 0.76733 0.91569 0.0
C3747 C 0.57895 0.74712 0.92566 0.0
C3748 C 0.59185 0.7378 0.94191 0.0
C3749 C 0.61477 0.74666 0.94686 0.0
C3750 C 0.6242 0.73533 0.96718 0.0
C3751 C 0.63807 0.71666 0.95644 0.0
C3752 C 0.63793 0.75547 0.98851 0.0
C3753 C 0.60278 0.72185 0.97518 0.0
C3754 C 0.58434 0.72297 0.95999 0.0
C3755 C 0.56262 0.71495 0.96571 0.0
C3756 C 0.55967 0.70497 0.98717 0.0
C3757 C 0.57836 0.70322 1.00253 0.0
C3758 C 0.6001 0.71143 0.99634 0.0
H3759 H 0.10413 0.79897 0.67975 0.0
H3760 H 0.05698 0.73067 0.68369 0.0
H3761 H 0.08622 0.71644 0.70641 0.0
H3762 H 0.15404 0.77135 0.67416 0.0
H3763 H 0.17238 0.79803 0.69385 0.0
H3764 H 0.14846 0.80212 0.67557 0.0
H3765 H 0.13461 0.82395 0.71516 0.0
H3766 H 0.15847 0.81996 0.73354 0.0
H3767 H 0.13068 0.80809 0.74091 0.0
H3768 H 0.1188 0.71022 0.7301 0.0
H3769 H 0.15374 0.71274 0.75573 0.0
H3770 H 0.18065 0.78575 0.7391 0.0
C3771 C 0.10023 0.78095 0.68521 0.0
C3772 C 0.07846 0.76578 0.68007 0.0
C3773 C 0.07363 0.74246 0.68764 0.0
C3774 C 0.09012 0.73418 0.7004 0.0
C3775 C 0.11134 0.74956 0.70562 0.0
C3776 C 0.11656 0.77248 0.69844 0.0
C3777 C 0.14044 0.78586 0.70815 0.0
C3778 C 0.15467 0.78955 0.68665 0.0
C3779 C 0.14108 0.81094 0.72547 0.0
C3780 C 0.14746 0.76704 0.72226 0.0
C3781 C 0.13042 0.74615 0.72014 0.0
C3782 C 0.13235 0.72643 0.73193 0.0
C3783 C 0.15219 0.72813 0.74661 0.0
C3784 C 0.16984 0.74949 0.74962 0.0
C3785 C 0.16752 0.76908 0.73698 0.0
H3786 H 0.13938 0.4047 0.45645 0.0
H3787 H 0.12786 0.41915 0.38227 0.0
H3788 H 0.11939 0.45952 0.39981 0.0
H3789 H 0.09599 0.42687 0.48078 0.0
H3790 H 0.11016 0.44175 0.51099 0.0
H3791 H 0.11905 0.41573 0.49338 0.0
H3792 H 0.15925 0.44242 0.49645 0.0
H3793 H 0.15053 0.46848 0.51445 0.0
H3794 H 0.16365 0.47212 0.48664 0.0
H3795 H 0.10803 0.49464 0.42376 0.0
H3796 H 0.09427 0.52434 0.45332 0.0
H3797 H 0.11276 0.48825 0.51315 0.0
C3798 C 0.13559 0.41668 0.44401 0.0
C3799 C 0.1343 0.409 0.41808 0.0
C3800 C 0.12907 0.42487 0.40221 0.0
C3801 C 0.12431 0.44784 0.41198 0.0
C3802 C 0.12524 0.45467 0.43758 0.0
C3803 C 0.13093 0.43981 0.45348 0.0
C3804 C 0.12891 0.45092 0.48016 0.0
C3805 C 0.11254 0.43273 0.492 0.0
C3806 C 0.15196 0.45896 0.49532 0.0
C3807 C 0.11978 0.47344 0.47644 0.0
C3808 C 0.11837 0.47541 0.45177 0.0
C3809 C 0.1094 0.49365 0.44321 0.0
C3810 C 0.10149 0.51039 0.46031 0.0
C3811 C 0.10231 0.50863 0.48573 0.0
C3812 C 0.11196 0.49014 0.49394 0.0
H3813 H 0.47105 0.30202 0.23334 0.0
H3814 H 0.45281 0.22685 0.19005 0.0
H3815 H 0.41782 0.21909 0.20986 0.0
H3816 H 0.44156 0.2909 0.29072 0.0
H3817 H 0.43245 0.31994 0.29247 0.0
H3818 H 0.45876 0.31704 0.28094 0.0
H3819 H 0.44631 0.33026 0.24013 0.0
H3820 H 0.42072 0.3334 0.25241 0.0
H3821 H 0.42003 0.31356 0.22277 0.0
H3822 H 0.38223 0.22254 0.22664 0.0
H3823 H 0.34846 0.23725 0.23758 0.0
H3824 H 0.38916 0.30994 0.271 0.0
C3825 C 0.46011 0.2836 0.22914 0.0
C3826 C 0.46453 0.26479 0.21083 0.0
C3827 C 0.44962 0.24123 0.20451 0.0
C3828 C 0.42984 0.23666 0.21576 0.0
C3829 C 0.42532 0.25593 0.23316 0.0
C3830 C 0.44012 0.27892 0.23997 0.0
C3831 C 0.42943 0.29798 0.25492 0.0
C3832 C 0.44126 0.30698 0.28134 0.0
C3833 C 0.42911 0.32005 0.24167 0.0
C3834 C 0.40614 0.28246 0.25482 0.0
C3835 C 0.40424 0.25815 0.24249 0.0
C3836 C 0.38367 0.24137 0.23688 0.0
C3837 C 0.36451 0.24997 0.24312 0.0
C3838 C 0.36593 0.27513 0.2549 0.0
C3839 C 0.38718 0.29099 0.2619 0.0
H3840 H 0.66842 0.49959 0.36556 0.0
H3841 H 0.64839 0.55812 0.33294 0.0
H3842 H 0.62674 0.56781 0.36823 0.0
H3843 H 0.61238 0.48055 0.38874 0.0
H3844 H 0.62358 0.47201 0.41622 0.0
H3845 H 0.63799 0.46954 0.38872 0.0
H3846 H 0.67377 0.4977 0.41373 0.0
H3847 H 0.65949 0.50017 0.44128 0.0
H3848 H 0.67277 0.52808 0.43104 0.0
H3849 H 0.60514 0.57117 0.40857 0.0
H3850 H 0.58843 0.56865 0.44781 0.0
H3851 H 0.62141 0.50881 0.45783 0.0
C3852 C 0.65977 0.51473 0.36587 0.0
C3853 C 0.66108 0.52833 0.34556 0.0
C3854 C 0.64841 0.54729 0.34745 0.0
C3855 C 0.63579 0.55299 0.36781 0.0
C3856 C 0.63482 0.53941 0.38716 0.0
C3857 C 0.6464 0.52042 0.38626 0.0
C3858 C 0.64143 0.50793 0.40905 0.0
C3859 C 0.62808 0.48089 0.40017 0.0
C3860 C 0.66317 0.50851 0.42471 0.0
C3861 C 0.6268 0.52389 0.42383 0.0
C3862 C 0.62266 0.54147 0.41024 0.0
C3863 C 0.60865 0.55746 0.41909 0.0
C3864 C 0.59897 0.55585 0.44185 0.0
C3865 C 0.60315 0.53881 0.45721 0.0
C3866 C 0.61756 0.52248 0.44744 0.0
H3867 H 0.3404 0.94685 0.11057 0.0
H3868 H 0.30096 0.88434 0.05752 0.0
H3869 H 0.297 0.8588 0.0895 0.0
H3870 H 0.37273 0.92459 0.13488 0.0
H3871 H 0.37415 0.93593 0.1678 0.0
H3872 H 0.36415 0.95324 0.14675 0.0
H3873 H 0.32698 0.95107 0.16643 0.0
H3874 H 0.33716 0.93441 0.18849 0.0
H3875 H 0.3108 0.92128 0.16996 0.0
H3876 H 0.3127 0.83661 0.11759 0.0
H3877 H 0.33796 0.8217 0.14518 0.0
H3878 H 0.36608 0.89801 0.18255 0.0
C3879 C 0.3292 0.92861 0.10657 0.0
C3880 C 0.32098 0.91737 0.08197 0.0
C3881 C 0.30708 0.89317 0.07655 0.0
C3882 C 0.30484 0.87848 0.09463 0.0
C3883 C 0.31583 0.88878 0.11819 0.0
C3884 C 0.32655 0.91387 0.12479 0.0
C3885 C 0.3402 0.91903 0.14981 0.0
C3886 C 0.36422 0.93402 0.14973 0.0
C3887 C 0.32807 0.93223 0.16986 0.0
C3888 C 0.33963 0.89256 0.15312 0.0
C3889 C 0.3245 0.87544 0.13549 0.0
C3890 C 0.32361 0.84981 0.13236 0.0
C3891 C 0.33821 0.84152 0.14786 0.0
C3892 C 0.35372 0.85884 0.16598 0.0
C3893 C 0.3542 0.88455 0.16885 0.0
H3894 H 0.9605 0.5867 0.91061 0.0
H3895 H 0.93857 0.50844 0.8767 0.0
H3896 H 0.97184 0.49923 0.89768 0.0
H3897 H 0.01486 0.59069 0.90095 0.0
H3898 H 0.02695 0.61195 0.92937 0.0
H3899 H 0.99943 0.6122 0.91619 0.0
H3900 H 0.98203 0.60382 0.95657 0.0
H3901 H 1.00984 0.60591 0.97038 0.0
H3902 H 0.98829 0.57862 0.97042 0.0
H3903 H 1.01066 0.50036 0.91605 0.0
H3904 H 0.0456 0.50886 0.94383 0.0
H3905 H 0.04191 0.58655 0.96424 0.0
C3906 C 0.96189 0.56739 0.90916 0.0
C3907 C 0.94707 0.54818 0.89254 0.0
C3908 C 0.94969 0.52321 0.88998 0.0
C3909 C 0.96881 0.51797 0.9012 0.0
C3910 C 0.98468 0.53798 0.91499 0.0
C3911 C 0.98099 0.56201 0.91989 0.0
C3912 C 1.00099 0.58041 0.93433 0.0
C3913 C 1.01113 0.59996 0.9193 0.0
C3914 C 0.99493 0.5929 0.95942 0.0
C3915 C 0.01628 0.5629 0.93728 0.0
C3916 C 1.00692 0.53865 0.92533 0.0
C3917 C 0.01796 0.51918 0.9259 0.0
C3918 C 0.03791 0.52421 0.94147 0.0
C3919 C 0.04557 0.54808 0.95672 0.0
C3920 C 0.03601 0.56811 0.95278 0.0
H3921 H 0.30108 0.2076 0.59776 0.0
H3922 H 0.31397 0.28125 0.57867 0.0
H3923 H 0.31833 0.30079 0.62279 0.0
H3924 H 0.26906 0.22278 0.6479 0.0
H3925 H 0.27992 0.20457 0.66782 0.0
H3926 H 0.27883 0.19541 0.63467 0.0
H3927 H 0.32125 0.19668 0.63803 0.0
H3928 H 0.32242 0.2051 0.67124 0.0
H3929 H 0.34046 0.22455 0.65455 0.0
H3930 H 0.31885 0.31297 0.66899 0.0
H3931 H 0.32035 0.31644 0.71453 0.0
H3932 H 0.30818 0.23565 0.7048 0.0
C3933 C 0.30524 0.22781 0.60293 0.0
C3934 C 0.30706 0.24281 0.58454 0.0
C3935 C 0.31226 0.26925 0.59224 0.0
C3936 C 0.31474 0.28062 0.61734 0.0
C3937 C 0.31203 0.26545 0.63493 0.0
C3938 C 0.30775 0.23962 0.62819 0.0
C3939 C 0.30551 0.22787 0.65108 0.0
C3940 C 0.28193 0.21169 0.65031 0.0
C3941 C 0.32349 0.21266 0.65389 0.0
C3942 C 0.30938 0.25107 0.6715 0.0
C3943 C 0.31279 0.27255 0.66173 0.0
C3944 C 0.31631 0.29625 0.67687 0.0
C3945 C 0.31695 0.29808 0.70272 0.0
C3946 C 0.31414 0.27635 0.71321 0.0
C3947 C 0.31021 0.25259 0.69727 0.0
H3948 H 0.62406 0.53671 0.2138 0.0
H3949 H 0.68351 0.51316 0.19008 0.0
H3950 H 0.67117 0.51604 0.14685 0.0
H3951 H 0.58573 0.50321 0.15937 0.0
H3952 H 0.57035 0.5276 0.15963 0.0
H3953 H 0.58408 0.52367 0.18811 0.0
H3954 H 0.60545 0.56984 0.19593 0.0
H3955 H 0.59173 0.57366 0.16739 0.0
H3956 H 0.62178 0.58097 0.17258 0.0
H3957 H 0.65119 0.52435 0.10327 0.0
H3958 H 0.62645 0.53105 0.0688 0.0
H3959 H 0.57847 0.54663 0.11995 0.0
C3960 C 0.63468 0.53183 0.19968 0.0
C3961 C 0.65522 0.52439 0.20667 0.0
C3962 C 0.66783 0.51856 0.18647 0.0
C3963 C 0.66083 0.52042 0.16142 0.0
C3964 C 0.64077 0.5281 0.15561 0.0
C3965 C 0.62777 0.53337 0.17449 0.0
C3966 C 0.60668 0.54085 0.16382 0.0
C3967 C 0.58545 0.52276 0.16799 0.0
C3968 C 0.60639 0.56793 0.17565 0.0
C3969 C 0.60931 0.5387 0.13589 0.0
C3970 C 0.62938 0.53183 0.13151 0.0
C3971 C 0.63557 0.52957 0.10714 0.0
C3972 C 0.62125 0.53372 0.08728 0.0
C3973 C 0.60011 0.54003 0.09067 0.0
C3974 C 0.59441 0.54236 0.1159 0.0
H3975 H 0.34442 0.93042 0.93865 0.0
H3976 H 0.35683 0.88087 0.98808 0.0
H3977 H 0.35532 0.84698 0.95223 0.0
H3978 H 0.30446 0.88901 0.90007 0.0
H3979 H 0.31209 0.89844 0.87159 0.0
H3980 H 0.31908 0.92062 0.90032 0.0
H3981 H 0.36106 0.92926 0.89329 0.0
H3982 H 0.35409 0.90779 0.86397 0.0
H3983 H 0.37471 0.90342 0.88662 0.0
H3984 H 0.34603 0.81656 0.91119 0.0
H3985 H 0.33526 0.79443 0.86731 0.0
H3986 H 0.32739 0.86436 0.8472 0.0
C3987 C 0.34768 0.91277 0.94187 0.0
C3988 C 0.35055 0.90809 0.9659 0.0
C3989 C 0.35449 0.88469 0.9696 0.0
C3990 C 0.35366 0.86532 0.94942 0.0
C3991 C 0.34918 0.86994 0.92586 0.0
C3992 C 0.34681 0.89329 0.922 0.0
C3993 C 0.3401 0.89294 0.89522 0.0
C3994 C 0.3176 0.9007 0.89162 0.0
C3995 C 0.3586 0.90931 0.88412 0.0
C3996 C 0.33807 0.86562 0.88493 0.0
C3997 C 0.34358 0.85253 0.9026 0.0
C3998 C 0.34208 0.8267 0.89704 0.0
C3999 C 0.3357 0.81425 0.87235 0.0
C4000 C 0.33096 0.82793 0.85414 0.0
C4001 C 0.33149 0.85361 0.86075 0.0
H4002 H 0.98252 0.51894 0.77425 0.0
H4003 H 0.94572 0.57346 0.7564 0.0
H4004 H 0.95521 0.56491 0.71288 0.0
H4005 H 0.0271 0.5346 0.74273 0.0
H4006 H 0.03044 0.50301 0.7329 0.0
H4007 H 0.01791 0.51112 0.76081 0.0
H4008 H 0.98264 0.47608 0.74407 0.0
H4009 H 0.99517 0.46767 0.71606 0.0
H4010 H 0.96808 0.47534 0.7144 0.0
H4011 H 0.9713 0.55089 0.67167 0.0
H4012 H 0.99307 0.5355 0.63875 0.0
H4013 H 0.02165 0.49442 0.68823 0.0
C4014 C 0.97646 0.5293 0.76134 0.0
C4015 C 0.96394 0.54737 0.76873 0.0
C4016 C 0.95566 0.55979 0.75103 0.0
C4017 C 0.96083 0.55489 0.72636 0.0
C4018 C 0.97379 0.53722 0.71994 0.0
C4019 C 0.98128 0.52459 0.73708 0.0
C4020 C 0.99605 0.50772 0.72669 0.0
C4021 C 0.01924 0.51455 0.74165 0.0
C4022 C 0.98481 0.48007 0.72522 0.0
C4023 C 0.99705 0.5139 0.70132 0.0
C4024 C 0.98355 0.53019 0.69724 0.0
C4025 C 0.98199 0.53824 0.67482 0.0
C4026 C 0.99479 0.52963 0.65633 0.0
C4027 C 1.00959 0.51383 0.66073 0.0
C4028 C 1.01038 0.50591 0.68361 0.0
H4029 H 0.30941 0.19262 0.42589 0.0
H4030 H 0.30453 0.26115 0.47487 0.0
H4031 H 0.3105 0.284 0.44077 0.0
H4032 H 0.35225 0.22067 0.39142 0.0
H4033 H 0.34073 0.20153 0.36171 0.0
H4034 H 0.33577 0.18955 0.38963 0.0
H4035 H 0.2931 0.18061 0.37763 0.0
H4036 H 0.29794 0.19221 0.34949 0.0
H4037 H 0.28043 0.20547 0.37065 0.0
H4038 H 0.31766 0.30012 0.40273 0.0
H4039 H 0.32331 0.30859 0.36125 0.0
H4040 H 0.32324 0.23048 0.33424 0.0
C4041 C 0.30939 0.21238 0.42932 0.0
C4042 C 0.30646 0.22503 0.45326 0.0
C4043 C 0.30665 0.25093 0.45688 0.0
C4044 C 0.31012 0.26416 0.43758 0.0
C4045 C 0.31323 0.25134 0.41446 0.0
C4046 C 0.31267 0.226 0.40999 0.0
C4047 C 0.31625 0.21708 0.383 0.0
C4048 C 0.33751 0.20658 0.38135 0.0
C4049 C 0.2957 0.19769 0.36939 0.0
C4050 C 0.319 0.24141 0.3732 0.0
C4051 C 0.31733 0.26083 0.39193 0.0
C4052 C 0.31927 0.28513 0.38799 0.0
C4053 C 0.32291 0.28985 0.36435 0.0
C4054 C 0.32477 0.27052 0.34461 0.0
C4055 C 0.32244 0.24578 0.34905 0.0
H4056 H 0.33825 0.58587 0.52767 0.0
H4057 H 0.37521 0.65871 0.56686 0.0
H4058 H 0.41075 0.64535 0.55967 0.0
H4059 H 0.37633 0.54731 0.54477 0.0
H4060 H 0.37188 0.52827 0.51408 0.0
H4061 H 0.34993 0.54231 0.52628 0.0
H4062 H 0.34756 0.56321 0.48799 0.0
H4063 H 0.36961 0.54952 0.47575 0.0
H4064 H 0.37229 0.58292 0.48058 0.0
H4065 H 0.442 0.62505 0.54405 0.0
H4066 H 0.46591 0.60038 0.52077 0.0
H4067 H 0.40739 0.54212 0.49064 0.0
C4068 C 0.35378 0.59875 0.53557 0.0
C4069 C 0.35408 0.62311 0.54822 0.0
C4070 C 0.37473 0.63978 0.55741 0.0
C4071 C 0.39493 0.63237 0.5534 0.0
C4072 C 0.39401 0.60837 0.54002 0.0
C4073 C 0.37389 0.59189 0.53124 0.0
C4074 C 0.37705 0.56848 0.51471 0.0
C4075 C 0.36829 0.54522 0.52563 0.0
C4076 C 0.36598 0.5659 0.4882 0.0
C4077 C 0.40215 0.57417 0.51559 0.0
C4078 C 0.41173 0.59716 0.53036 0.0
C4079 C 0.43469 0.60687 0.53274 0.0
C4080 C 0.44813 0.59274 0.51953 0.0
C4081 C 0.43844 0.56937 0.50401 0.0
C4082 C 0.41522 0.55996 0.50234 0.0
H4083 H 0.92698 0.90813 0.53326 0.0
H4084 H 0.88666 0.96153 0.5584 0.0
H4085 H 0.9199 0.99588 0.56373 0.0
H4086 H 0.97716 0.93962 0.57476 0.0
H4087 H 0.99591 0.93251 0.5521 0.0
H4088 H 0.96911 0.91173 0.55108 0.0
H4089 H 0.9595 0.91567 0.50564 0.0
H4090 H 0.98628 0.93637 0.50651 0.0
H4091 H 0.96107 0.94627 0.4983 0.0
H4092 H 0.95768 0.02446 0.56759 0.0
H4093 H 0.99627 0.04566 0.56552 0.0
H4094 H 1.01218 0.97474 0.53513 0.0
C4095 C 0.92514 0.92701 0.54005 0.0
C4096 C 0.9041 0.93196 0.54562 0.0
C4097 C 0.90251 0.95707 0.55418 0.0
C4098 C 0.92135 0.97679 0.55732 0.0
C4099 C 0.94178 0.97123 0.55181 0.0
C4100 C 0.94381 0.94702 0.54318 0.0
C4101 C 0.96765 0.94636 0.5379 0.0
C4102 C 0.97807 0.93168 0.55497 0.0
C4103 C 0.96868 0.93553 0.51046 0.0
C4104 C 0.97857 0.97403 0.54445 0.0
C4105 C 0.96341 0.98793 0.5529 0.0
C4106 C 0.96963 1.01375 0.56076 0.0
C4107 C 0.99178 0.02576 0.55947 0.0
C4108 C 1.00749 1.01225 0.54974 0.0
C4109 C 1.00069 0.98585 0.54249 0.0
H4110 H 0.91613 0.16139 0.31923 0.0
H4111 H 0.91136 0.13325 0.24033 0.0
H4112 H 0.88982 0.16482 0.23288 0.0
H4113 H 0.85848 0.17364 0.31763 0.0
H4114 H 0.86561 0.20119 0.34174 0.0
H4115 H 0.88121 0.17694 0.34121 0.0
H4116 H 0.91779 0.20922 0.34128 0.0
H4117 H 0.90227 0.23353 0.34191 0.0
H4118 H 0.92017 0.2282 0.31782 0.0
H4119 H 0.86693 0.20239 0.2336 0.0
H4120 H 0.84804 0.23789 0.24262 0.0
H4121 H 0.86529 0.24313 0.32098 0.0
C4122 C 0.91092 0.16192 0.30024 0.0
C4123 C 0.9167 0.14399 0.28035 0.0
C4124 C 0.90817 0.14606 0.25621 0.0
C4125 C 0.89555 0.16433 0.25173 0.0
C4126 C 0.89026 0.1814 0.27143 0.0
C4127 C 0.89767 0.18017 0.29538 0.0
C4128 C 0.88888 0.20017 0.31334 0.0
C4129 C 0.8726 0.18722 0.32946 0.0
C4130 C 0.90845 0.2189 0.32956 0.0
C4131 C 0.87627 0.21347 0.29606 0.0
C4132 C 0.87702 0.20203 0.27184 0.0
C4133 C 0.8664 0.21093 0.2527 0.0
C4134 C 0.85523 0.23143 0.25807 0.0
C4135 C 0.85383 0.24403 0.28266 0.0
C4136 C 0.86507 0.23438 0.30179 0.0
H4137 H 0.71755 0.12519 0.9844 0.0
H4138 H 0.74757 0.09298 0.04059 0.0
H4139 H 0.71058 0.06856 0.04557 0.0
H4140 H 0.67706 0.14023 1.00763 0.0
H4141 H 0.65487 0.12929 0.98255 0.0
H4142 H 0.68327 0.1355 0.97579 0.0
H4143 H 0.67714 0.09114 0.95046 0.0
H4144 H 0.64901 0.08257 0.95817 0.0
H4145 H 0.66864 0.06442 0.96474 0.0
H4146 H 0.67006 0.0559 0.05131 0.0
H4147 H 0.63139 0.05757 0.05773 0.0
H4148 H 0.62969 0.10532 1.00439 0.0
C4149 C 0.71637 0.11194 0.99674 0.0
C4150 C 0.73519 0.11093 0.01208 0.0
C4151 C 0.7333 0.09369 0.02833 0.0
C4152 C 0.71233 0.07971 0.03129 0.0
C4153 C 0.69368 0.08279 0.0174 0.0
C4154 C 0.69562 0.098 0.99993 0.0
C4155 C 0.67307 0.10083 0.98995 0.0
C4156 C 0.67206 0.1281 0.98901 0.0
C4157 C 0.66662 0.08378 0.96429 0.0
C4158 C 0.65904 0.09047 1.00877 0.0
C4159 C 0.67064 0.07783 0.02262 0.0
C4160 C 0.66111 0.06633 0.04094 0.0
C4161 C 0.63943 0.06845 0.04557 0.0
C4162 C 0.62829 0.08394 0.03401 0.0
C4163 C 0.63811 0.09443 0.0147 0.0
H4164 H 0.26787 0.51387 0.23132 0.0
H4165 H 0.20298 0.46338 0.22276 0.0
H4166 H 0.22034 0.43173 0.23739 0.0
H4167 H 0.30423 0.46356 0.22316 0.0
H4168 H 0.32447 0.48349 0.24726 0.0
H4169 H 0.30903 0.49707 0.22636 0.0
H4170 H 0.29678 0.52339 0.26441 0.0
H4171 H 0.31078 0.50891 0.28546 0.0
H4172 H 0.2813 0.50773 0.28596 0.0
H4173 H 0.24147 0.41197 0.26445 0.0
H4174 H 0.26676 0.40205 0.29607 0.0
H4175 H 0.31708 0.46723 0.29094 0.0
C4176 C 0.25754 0.49556 0.23099 0.0
C4177 C 0.23412 0.49112 0.22636 0.0
C4178 C 0.221 0.46711 0.22632 0.0
C4179 C 0.23073 0.44905 0.23475 0.0
C4180 C 0.25352 0.45534 0.24264 0.0
C4181 C 0.26695 0.47777 0.24016 0.0
C4182 C 0.28974 0.4823 0.2545 0.0
C4183 C 0.30795 0.48154 0.23676 0.0
C4184 C 0.29491 0.50702 0.27371 0.0
C4185 C 0.28643 0.45992 0.2669 0.0
C4186 C 0.26566 0.44429 0.25933 0.0
C4187 C 0.25804 0.42359 0.26987 0.0
C4188 C 0.27232 0.41826 0.288 0.0
C4189 C 0.29366 0.4339 0.29576 0.0
C4190 C 0.30076 0.45504 0.28521 0.0
H4191 H 0.25908 0.40529 0.01755 0.0
H4192 H 0.29553 0.46075 0.07977 0.0
H4193 H 0.26513 0.48377 0.07983 0.0
H4194 H 0.24361 0.44611 0.98504 0.0
H4195 H 0.21617 0.42795 0.97265 0.0
H4196 H 0.23763 0.41248 0.98121 0.0
H4197 H 0.21226 0.39105 0.01045 0.0
H4198 H 0.19057 0.40641 1.00185 0.0
H4199 H 0.2006 0.40989 0.03401 0.0
H4200 H 0.23373 0.50374 0.06971 0.0
H4201 H 0.2052 0.52062 0.04832 0.0
H4202 H 0.1906 0.45395 0.99079 0.0
C4203 C 0.2602 0.42176 0.03176 0.0
C4204 C 0.27944 0.43112 0.04887 0.0
C4205 C 0.2808 0.45321 0.06664 0.0
C4206 C 0.26356 0.46631 0.0669 0.0
C4207 C 0.24513 0.45712 0.04919 0.0
C4208 C 0.2433 0.43531 0.03194 0.0
C4209 C 0.22346 0.43141 0.01274 0.0
C4210 C 0.23067 0.42939 0.98636 0.0
C4211 C 0.20567 0.40832 0.0149 0.0
C4212 C 0.21541 0.45528 0.02086 0.0
C4213 C 0.22756 0.46936 0.04249 0.0
C4214 C 0.22391 0.49274 0.05295 0.0
C4215 C 0.20776 0.5022 0.04069 0.0
C4216 C 0.19594 0.48859 0.01795 0.0
C4217 C 0.19952 0.46466 1.00818 0.0
H4218 H 0.91959 0.97839 0.24911 0.0
H4219 H 0.90609 0.01648 0.32008 0.0
H4220 H 0.88079 0.97746 0.32551 0.0
H4221 H 0.8602 0.93972 0.23291 0.0
H4222 H 0.86913 0.91313 0.21634 0.0
H4223 H 0.88515 0.94434 0.21738 0.0
H4224 H 0.92031 0.9318 0.23493 0.0
H4225 H 0.90439 0.90066 0.23414 0.0
H4226 H 0.9196 0.9189 0.26276 0.0
H4227 H 0.85767 0.93217 0.32432 0.0
H4228 H 0.8388 0.88735 0.31606 0.0
H4229 H 0.86601 0.87688 0.24548 0.0
C4230 C 0.9108 0.97878 0.26549 0.0
C4231 C 0.91467 1.0014 0.28387 0.0
C4232 C 0.90313 1.00022 0.30527 0.0
C4233 C 0.88876 0.9778 0.30862 0.0
C4234 C 0.8854 0.95601 0.2903 0.0
C4235 C 0.89581 0.95646 0.26887 0.0
C4236 C 0.88898 0.93044 0.25188 0.0
C4237 C 0.87506 0.932 0.22821 0.0
C4238 C 0.90956 0.91982 0.24557 0.0
C4239 C 0.87442 0.91481 0.26769 0.0
C4240 C 0.8722 0.93018 0.28961 0.0
C4241 C 0.8593 0.92029 0.30707 0.0
C4242 C 0.84847 0.89455 0.30216 0.0
C4243 C 0.85045 0.87801 0.28006 0.0
C4244 C 0.86386 0.88863 0.26261 0.0
H4245 H 0.75598 0.11929 0.76977 0.0
H4246 H 0.69283 0.13801 0.74985 0.0
H4247 H 0.71266 0.17949 0.74494 0.0
H4248 H 0.77927 0.17265 0.80786 0.0
H4249 H 0.80745 0.17616 0.7995 0.0
H4250 H 0.78953 0.1456 0.7946 0.0
H4251 H 0.79594 0.13838 0.74828 0.0
H4252 H 0.81393 0.16907 0.75291 0.0
H4253 H 0.79016 0.16035 0.72968 0.0
H4254 H 0.73629 0.22006 0.75229 0.0
H4255 H 0.76368 0.25869 0.77014 0.0
H4256 H 0.81305 0.21612 0.7848 0.0
C4257 C 0.74651 0.13205 0.76387 0.0
C4258 C 0.72297 0.12583 0.76067 0.0
C4259 C 0.7109 0.14277 0.753 0.0
C4260 C 0.72203 0.16616 0.74969 0.0
C4261 C 0.74519 0.17223 0.75399 0.0
C4262 C 0.75743 0.15571 0.76072 0.0
C4263 C 0.78181 0.16841 0.76788 0.0
C4264 C 0.78996 0.16554 0.79402 0.0
C4265 C 0.79633 0.15848 0.74852 0.0
C4266 C 0.78068 0.19516 0.76696 0.0
C4267 C 0.75953 0.19659 0.75784 0.0
C4268 C 0.75315 0.21921 0.75845 0.0
C4269 C 0.7687 0.24101 0.76875 0.0
C4270 C 0.79041 0.24005 0.77792 0.0
C4271 C 0.79664 0.217 0.77707 0.0
loop_
_geom_bond_atom_site_label_1
_geom_bond_atom_site_label_2
_geom_bond_distance
_geom_bond_site_symmetry_2
_ccdc_geom_bond_type
Co0 O1 2.216 . S
Co0 O2 2.091 . S
Co0 O4 2.004 . S
Co0 O10 2.021 . S
Co0 O12 2.137 . S
Co0 O13 2.244 . S
O1 Co0 2.216 . S
O1 C8 1.247 . S
O2 Co0 2.091 . S
O2 C8 1.261 . S
C3 O12 1.247 . S
C3 O13 1.272 . S
O4 Co0 2.004 . S
O4 C9 1.259 . S
Co5 O6 2.061 . S
Co5 O11 2.052 . S
Co5 O13 2.135 . S
O6 Co5 2.061 . S
O6 C9 1.235 . S
C7 O10 1.238 . S
C7 O11 1.241 . S
C8 O1 1.247 . S
C8 O2 1.261 . S
C9 O4 1.259 . S
C9 O6 1.235 . S
O10 Co0 2.021 . S
O10 C7 1.238 . S
O11 Co5 2.052 . S
O11 C7 1.241 . S
O12 Co0 2.137 . S
O12 C3 1.247 . S
O13 Co0 2.244 . S
O13 C3 1.272 . S
O13 Co5 2.135 . S
Co14 O15 2.216 . S
Co14 O16 2.091 . S
Co14 O18 2.004 1_655 S
Co14 O24 2.021 . S
Co14 O26 2.137 . S
Co14 O27 2.244 1_655 S
O15 Co14 2.216 . S
O15 C22 1.247 . S
O16 Co14 2.091 . S
O16 C22 1.261 . S
C17 O26 1.247 1_455 S
C17 O27 1.272 . S
O18 Co14 2.004 1_455 S
O18 C23 1.259 . S
Co19 O20 2.061 . S
Co19 O25 2.052 . S
Co19 O27 2.135 . S
O20 Co19 2.061 . S
O20 C23 1.235 . S
C21 O24 1.238 . S
C21 O25 1.241 1_655 S
C22 O15 1.247 . S
C22 O16 1.261 . S
C23 O18 1.259 . S
C23 O20 1.235 . S
O24 Co14 2.021 . S
O24 C21 1.238 . S
O25 Co19 2.052 . S
O25 C21 1.241 1_455 S
O26 Co14 2.137 . S
O26 C17 1.247 1_655 S
O27 Co14 2.244 1_455 S
O27 C17 1.272 . S
O27 Co19 2.135 . S
Co28 O29 2.216 . S
Co28 O30 2.091 . S
Co28 O32 2.004 . S
Co28 O38 2.021 . S
Co28 O40 2.137 . S
Co28 O41 2.244 . S
O29 Co28 2.216 . S
O29 C36 1.247 . S
O30 Co28 2.091 . S
O30 C36 1.261 . S
C31 O40 1.247 . S
C31 O41 1.272 . S
O32 Co28 2.004 . S
O32 C37 1.259 . S
Co33 O34 2.061 . S
Co33 O39 2.052 . S
Co33 O41 2.135 . S
O34 Co33 2.061 . S
O34 C37 1.235 . S
C35 O38 1.238 . S
C35 O39 1.241 . S
C36 O29 1.247 . S
C36 O30 1.261 . S
C37 O32 1.259 . S
C37 O34 1.235 . S
O38 Co28 2.021 . S
O38 C35 1.238 . S
O39 Co33 2.052 . S
O39 C35 1.241 . S
O40 Co28 2.137 . S
O40 C31 1.247 . S
O41 Co28 2.244 . S
O41 C31 1.272 . S
O41 Co33 2.135 . S
Co42 O43 2.216 . S
Co42 O44 2.091 . S
Co42 O46 2.004 . S
Co42 O52 2.021 . S
Co42 O54 2.137 . S
Co42 O55 2.244 . S
O43 Co42 2.216 . S
O43 C50 1.247 . S
O44 Co42 2.091 . S
O44 C50 1.261 . S
C45 O54 1.247 . S
C45 O55 1.272 . S
O46 Co42 2.004 . S
O46 C51 1.259 . S
Co47 O48 2.061 . S
Co47 O53 2.052 . S
Co47 O55 2.135 . S
O48 Co47 2.061 . S
O48 C51 1.235 . S
C49 O52 1.238 . S
C49 O53 1.241 . S
C50 O43 1.247 . S
C50 O44 1.261 . S
C51 O46 1.259 . S
C51 O48 1.235 . S
O52 Co42 2.021 . S
O52 C49 1.238 . S
O53 Co47 2.052 . S
O53 C49 1.241 . S
O54 Co42 2.137 . S
O54 C45 1.247 . S
O55 Co42 2.244 . S
O55 C45 1.272 . S
O55 Co47 2.135 . S
Co56 O57 2.216 . S
Co56 O58 2.091 . S
Co56 O60 2.004 . S
Co56 O66 2.021 . S
Co56 O68 2.137 . S
Co56 O69 2.244 . S
O57 Co56 2.216 . S
O57 C64 1.247 . S
O58 Co56 2.091 . S
O58 C64 1.261 . S
C59 O68 1.247 . S
C59 O69 1.272 . S
O60 Co56 2.004 . S
O60 C65 1.259 . S
Co61 O62 2.061 . S
Co61 O67 2.052 . S
Co61 O69 2.135 . S
O62 Co61 2.061 . S
O62 C65 1.235 . S
C63 O66 1.238 . S
C63 O67 1.241 . S
C64 O57 1.247 . S
C64 O58 1.261 . S
C65 O60 1.259 . S
C65 O62 1.235 . S
O66 Co56 2.021 . S
O66 C63 1.238 . S
O67 Co61 2.052 . S
O67 C63 1.241 . S
O68 Co56 2.137 . S
O68 C59 1.247 . S
O69 Co56 2.244 . S
O69 C59 1.272 . S
O69 Co61 2.135 . S
Co70 O71 2.216 . S
Co70 O72 2.091 . S
Co70 O74 2.004 . S
Co70 O80 2.021 . S
Co70 O82 2.137 . S
Co70 O83 2.244 . S
O71 Co70 2.216 . S
O71 C78 1.247 . S
O72 Co70 2.091 . S
O72 C78 1.261 . S
C73 O82 1.247 . S
C73 O83 1.272 . S
O74 Co70 2.004 . S
O74 C79 1.259 . S
Co75 O76 2.061 . S
Co75 O81 2.052 . S
Co75 O83 2.135 . S
O76 Co75 2.061 . S
O76 C79 1.235 . S
C77 O80 1.238 . S
C77 O81 1.241 . S
C78 O71 1.247 . S
C78 O72 1.261 . S
C79 O74 1.259 . S
C79 O76 1.235 . S
O80 Co70 2.021 . S
O80 C77 1.238 . S
O81 Co75 2.052 . S
O81 C77 1.241 . S
O82 Co70 2.137 . S
O82 C73 1.247 . S
O83 Co70 2.244 . S
O83 C73 1.272 . S
O83 Co75 2.135 . S
Co84 O85 2.216 . S
Co84 O86 2.091 . S
Co84 O88 2.004 . S
Co84 O94 2.021 . S
Co84 O96 2.137 . S
Co84 O97 2.244 . S
O85 Co84 2.216 . S
O85 C92 1.247 . S
O86 Co84 2.091 . S
O86 C92 1.261 . S
C87 O96 1.247 . S
C87 O97 1.272 . S
O88 Co84 2.004 . S
O88 C93 1.259 . S
Co89 O90 2.061 . S
Co89 O95 2.052 . S
Co89 O97 2.135 . S
O90 Co89 2.061 . S
O90 C93 1.235 . S
C91 O94 1.238 . S
C91 O95 1.241 . S
C92 O85 1.247 . S
C92 O86 1.261 . S
C93 O88 1.259 . S
C93 O90 1.235 . S
O94 Co84 2.021 . S
O94 C91 1.238 . S
O95 Co89 2.052 . S
O95 C91 1.241 . S
O96 Co84 2.137 . S
O96 C87 1.247 . S
O97 Co84 2.244 . S
O97 C87 1.272 . S
O97 Co89 2.135 . S
Co98 O99 2.216 . S
Co98 O100 2.091 . S
Co98 O102 2.004 1_455 S
Co98 O108 2.021 . S
Co98 O110 2.137 . S
Co98 O111 2.244 . S
O99 Co98 2.216 . S
O99 C106 1.247 . S
O100 Co98 2.091 . S
O100 C106 1.261 . S
C101 O110 1.247 . S
C101 O111 1.272 . S
O102 Co98 2.004 1_655 S
O102 C107 1.259 . S
Co103 O104 2.061 . S
Co103 O109 2.052 1_655 S
Co103 O111 2.135 1_655 S
O104 Co103 2.061 . S
O104 C107 1.235 . S
C105 O108 1.238 . S
C105 O109 1.241 . S
C106 O99 1.247 . S
C106 O100 1.261 . S
C107 O102 1.259 . S
C107 O104 1.235 . S
O108 Co98 2.021 . S
O108 C105 1.238 . S
O109 Co103 2.052 1_455 S
O109 C105 1.241 . S
O110 Co98 2.137 . S
O110 C101 1.247 . S
O111 Co98 2.244 . S
O111 C101 1.272 . S
O111 Co103 2.135 1_455 S
Co112 O113 2.216 . S
Co112 O114 2.091 . S
Co112 O116 2.004 1_545 S
Co112 O122 2.021 . S
Co112 O124 2.137 . S
Co112 O125 2.244 . S
O113 Co112 2.216 . S
O113 C120 1.247 . S
O114 Co112 2.091 . S
O114 C120 1.261 . S
C115 O124 1.247 . S
C115 O125 1.272 . S
O116 Co112 2.004 1_565 S
O116 C121 1.259 . S
Co117 O118 2.061 . S
Co117 O123 2.052 1_565 S
Co117 O125 2.135 1_565 S
O118 Co117 2.061 . S
O118 C121 1.235 . S
C119 O122 1.238 . S
C119 O123 1.241 . S
C120 O113 1.247 . S
C120 O114 1.261 . S
C121 O116 1.259 . S
C121 O118 1.235 . S
O122 Co112 2.021 . S
O122 C119 1.238 . S
O123 Co117 2.052 1_545 S
O123 C119 1.241 . S
O124 Co112 2.137 . S
O124 C115 1.247 . S
O125 Co112 2.244 . S
O125 C115 1.272 . S
O125 Co117 2.135 1_545 S
Co126 O127 2.216 . S
Co126 O128 2.091 . S
Co126 O130 2.004 . S
Co126 O136 2.021 . S
Co126 O138 2.137 . S
Co126 O139 2.244 . S
O127 Co126 2.216 . S
O127 C134 1.247 . S
O128 Co126 2.091 . S
O128 C134 1.261 . S
C129 O138 1.247 . S
C129 O139 1.272 . S
O130 Co126 2.004 . S
O130 C135 1.259 . S
Co131 O132 2.061 . S
Co131 O137 2.052 . S
Co131 O139 2.135 . S
O132 Co131 2.061 . S
O132 C135 1.235 . S
C133 O136 1.238 . S
C133 O137 1.241 . S
C134 O127 1.247 . S
C134 O128 1.261 . S
C135 O130 1.259 . S
C135 O132 1.235 . S
O136 Co126 2.021 . S
O136 C133 1.238 . S
O137 Co131 2.052 . S
O137 C133 1.241 . S
O138 Co126 2.137 . S
O138 C129 1.247 . S
O139 Co126 2.244 . S
O139 C129 1.272 . S
O139 Co131 2.135 . S
Co140 O141 2.216 . S
Co140 O142 2.091 . S
Co140 O144 2.004 1_565 S
Co140 O150 2.021 . S
Co140 O152 2.137 . S
Co140 O153 2.244 1_565 S
O141 Co140 2.216 . S
O141 C148 1.247 . S
O142 Co140 2.091 . S
O142 C148 1.261 . S
C143 O152 1.247 1_545 S
C143 O153 1.272 . S
O144 Co140 2.004 1_545 S
O144 C149 1.259 . S
Co145 O146 2.061 . S
Co145 O151 2.052 . S
Co145 O153 2.135 . S
O146 Co145 2.061 . S
O146 C149 1.235 . S
C147 O150 1.238 . S
C147 O151 1.241 1_565 S
C148 O141 1.247 . S
C148 O142 1.261 . S
C149 O144 1.259 . S
C149 O146 1.235 . S
O150 Co140 2.021 . S
O150 C147 1.238 . S
O151 Co145 2.052 . S
O151 C147 1.241 1_545 S
O152 Co140 2.137 . S
O152 C143 1.247 1_565 S
O153 Co140 2.244 1_545 S
O153 C143 1.272 . S
O153 Co145 2.135 . S
Co154 O155 2.216 . S
Co154 O156 2.091 . S
Co154 O158 2.004 . S
Co154 O164 2.021 . S
Co154 O166 2.137 1_554 S
Co154 O167 2.244 1_554 S
O155 Co154 2.216 . S
O155 C162 1.247 . S
O156 Co154 2.091 . S
O156 C162 1.261 . S
C157 O166 1.247 . S
C157 O167 1.272 . S
O158 Co154 2.004 . S
O158 C163 1.259 . S
Co159 O160 2.061 . S
Co159 O165 2.052 . S
Co159 O167 2.135 1_554 S
O160 Co159 2.061 . S
O160 C163 1.235 . S
C161 O164 1.238 . S
C161 O165 1.241 . S
C162 O155 1.247 . S
C162 O156 1.261 . S
C163 O158 1.259 . S
C163 O160 1.235 . S
O164 Co154 2.021 . S
O164 C161 1.238 . S
O165 Co159 2.052 . S
O165 C161 1.241 . S
O166 Co154 2.137 1_556 S
O166 C157 1.247 . S
O167 Co154 2.244 1_556 S
O167 C157 1.272 . S
O167 Co159 2.135 1_556 S
Co168 O169 2.216 . S
Co168 O170 2.091 . S
Co168 O172 2.004 . S
Co168 O178 2.021 . S
Co168 O180 2.137 1_554 S
Co168 O181 2.244 . S
O169 Co168 2.216 . S
O169 C176 1.247 . S
O170 Co168 2.091 . S
O170 C176 1.261 . S
C171 O180 1.247 . S
C171 O181 1.272 1_556 S
O172 Co168 2.004 . S
O172 C177 1.259 . S
Co173 O174 2.061 . S
Co173 O179 2.052 . S
Co173 O181 2.135 . S
O174 Co173 2.061 . S
O174 C177 1.235 . S
C175 O178 1.238 . S
C175 O179 1.241 . S
C176 O169 1.247 . S
C176 O170 1.261 . S
C177 O172 1.259 . S
C177 O174 1.235 . S
O178 Co168 2.021 . S
O178 C175 1.238 . S
O179 Co173 2.052 . S
O179 C175 1.241 . S
O180 Co168 2.137 1_556 S
O180 C171 1.247 . S
O181 Co168 2.244 . S
O181 C171 1.272 1_554 S
O181 Co173 2.135 . S
Co182 O183 2.216 . S
Co182 O184 2.091 . S
Co182 O186 2.004 . S
Co182 O192 2.021 . S
Co182 O194 2.137 1_554 S
Co182 O195 2.244 . S
O183 Co182 2.216 . S
O183 C190 1.247 . S
O184 Co182 2.091 . S
O184 C190 1.261 . S
C185 O194 1.247 . S
C185 O195 1.272 1_556 S
O186 Co182 2.004 . S
O186 C191 1.259 . S
Co187 O188 2.061 . S
Co187 O193 2.052 . S
Co187 O195 2.135 . S
O188 Co187 2.061 . S
O188 C191 1.235 . S
C189 O192 1.238 . S
C189 O193 1.241 . S
C190 O183 1.247 . S
C190 O184 1.261 . S
C191 O186 1.259 . S
C191 O188 1.235 . S
O192 Co182 2.021 . S
O192 C189 1.238 . S
O193 Co187 2.052 . S
O193 C189 1.241 . S
O194 Co182 2.137 1_556 S
O194 C185 1.247 . S
O195 Co182 2.244 . S
O195 C185 1.272 1_554 S
O195 Co187 2.135 . S
Co196 O197 2.216 . S
Co196 O198 2.091 . S
Co196 O200 2.004 . S
Co196 O206 2.021 . S
Co196 O208 2.137 . S
Co196 O209 2.244 . S
O197 Co196 2.216 . S
O197 C204 1.247 . S
O198 Co196 2.091 . S
O198 C204 1.261 . S
C199 O208 1.247 . S
C199 O209 1.272 . S
O200 Co196 2.004 . S
O200 C205 1.259 . S
Co201 O202 2.061 . S
Co201 O207 2.052 . S
Co201 O209 2.135 . S
O202 Co201 2.061 . S
O202 C205 1.235 . S
C203 O206 1.238 . S
C203 O207 1.241 . S
C204 O197 1.247 . S
C204 O198 1.261 . S
C205 O200 1.259 . S
C205 O202 1.235 . S
O206 Co196 2.021 . S
O206 C203 1.238 . S
O207 Co201 2.052 . S
O207 C203 1.241 . S
O208 Co196 2.137 . S
O208 C199 1.247 . S
O209 Co196 2.244 . S
O209 C199 1.272 . S
O209 Co201 2.135 . S
Co210 O211 2.216 . S
Co210 O212 2.091 . S
Co210 O214 2.004 . S
Co210 O220 2.021 . S
Co210 O222 2.137 . S
Co210 O223 2.244 . S
O211 Co210 2.216 . S
O211 C218 1.247 . S
O212 Co210 2.091 . S
O212 C218 1.261 . S
C213 O222 1.247 . S
C213 O223 1.272 . S
O214 Co210 2.004 . S
O214 C219 1.259 . S
Co215 O216 2.061 . S
Co215 O221 2.052 . S
Co215 O223 2.135 . S
O216 Co215 2.061 . S
O216 C219 1.235 . S
C217 O220 1.238 . S
C217 O221 1.241 . S
C218 O211 1.247 . S
C218 O212 1.261 . S
C219 O214 1.259 . S
C219 O216 1.235 . S
O220 Co210 2.021 . S
O220 C217 1.238 . S
O221 Co215 2.052 . S
O221 C217 1.241 . S
O222 Co210 2.137 . S
O222 C213 1.247 . S
O223 Co210 2.244 . S
O223 C213 1.272 . S
O223 Co215 2.135 . S
Co224 O225 2.216 . S
Co224 O226 2.091 . S
Co224 O228 2.004 . S
Co224 O234 2.021 . S
Co224 O236 2.137 . S
Co224 O237 2.244 . S
O225 Co224 2.216 . S
O225 C232 1.247 . S
O226 Co224 2.091 . S
O226 C232 1.261 . S
C227 O236 1.247 . S
C227 O237 1.272 . S
O228 Co224 2.004 . S
O228 C233 1.259 . S
Co229 O230 2.061 . S
Co229 O235 2.052 . S
Co229 O237 2.135 . S
O230 Co229 2.061 . S
O230 C233 1.235 . S
C231 O234 1.238 . S
C231 O235 1.241 . S
C232 O225 1.247 . S
C232 O226 1.261 . S
C233 O228 1.259 . S
C233 O230 1.235 . S
O234 Co224 2.021 . S
O234 C231 1.238 . S
O235 Co229 2.052 . S
O235 C231 1.241 . S
O236 Co224 2.137 . S
O236 C227 1.247 . S
O237 Co224 2.244 . S
O237 C227 1.272 . S
O237 Co229 2.135 . S
Co238 O239 2.216 . S
Co238 O240 2.091 . S
Co238 O242 2.004 . S
Co238 O248 2.021 . S
Co238 O250 2.137 . S
Co238 O251 2.244 . S
O239 Co238 2.216 . S
O239 C246 1.247 . S
O240 Co238 2.091 . S
O240 C246 1.261 . S
C241 O250 1.247 . S
C241 O251 1.272 . S
O242 Co238 2.004 . S
O242 C247 1.259 . S
Co243 O244 2.061 . S
Co243 O249 2.052 . S
Co243 O251 2.135 . S
O244 Co243 2.061 . S
O244 C247 1.235 . S
C245 O248 1.238 . S
C245 O249 1.241 . S
C246 O239 1.247 . S
C246 O240 1.261 . S
C247 O242 1.259 . S
C247 O244 1.235 . S
O248 Co238 2.021 . S
O248 C245 1.238 . S
O249 Co243 2.052 . S
O249 C245 1.241 . S
O250 Co238 2.137 . S
O250 C241 1.247 . S
O251 Co238 2.244 . S
O251 C241 1.272 . S
O251 Co243 2.135 . S
Co252 O253 2.216 . S
Co252 O254 2.091 . S
Co252 O256 2.004 . S
Co252 O262 2.021 . S
Co252 O264 2.137 . S
Co252 O265 2.244 . S
O253 Co252 2.216 . S
O253 C260 1.247 . S
O254 Co252 2.091 . S
O254 C260 1.261 . S
C255 O264 1.247 . S
C255 O265 1.272 . S
O256 Co252 2.004 . S
O256 C261 1.259 . S
Co257 O258 2.061 . S
Co257 O263 2.052 . S
Co257 O265 2.135 . S
O258 Co257 2.061 . S
O258 C261 1.235 . S
C259 O262 1.238 . S
C259 O263 1.241 . S
C260 O253 1.247 . S
C260 O254 1.261 . S
C261 O256 1.259 . S
C261 O258 1.235 . S
O262 Co252 2.021 . S
O262 C259 1.238 . S
O263 Co257 2.052 . S
O263 C259 1.241 . S
O264 Co252 2.137 . S
O264 C255 1.247 . S
O265 Co252 2.244 . S
O265 C255 1.272 . S
O265 Co257 2.135 . S
Co266 O267 2.216 . S
Co266 O268 2.091 . S
Co266 O270 2.004 . S
Co266 O276 2.021 . S
Co266 O278 2.137 . S
Co266 O279 2.244 . S
O267 Co266 2.216 . S
O267 C274 1.247 . S
O268 Co266 2.091 . S
O268 C274 1.261 . S
C269 O278 1.247 . S
C269 O279 1.272 . S
O270 Co266 2.004 . S
O270 C275 1.259 . S
Co271 O272 2.061 . S
Co271 O277 2.052 . S
Co271 O279 2.135 . S
O272 Co271 2.061 . S
O272 C275 1.235 . S
C273 O276 1.238 . S
C273 O277 1.241 . S
C274 O267 1.247 . S
C274 O268 1.261 . S
C275 O270 1.259 . S
C275 O272 1.235 . S
O276 Co266 2.021 . S
O276 C273 1.238 . S
O277 Co271 2.052 . S
O277 C273 1.241 . S
O278 Co266 2.137 . S
O278 C269 1.247 . S
O279 Co266 2.244 . S
O279 C269 1.272 . S
O279 Co271 2.135 . S
Co280 O281 2.216 . S
Co280 O282 2.091 . S
Co280 O284 2.004 . S
Co280 O290 2.021 1_556 S
Co280 O292 2.137 . S
Co280 O293 2.244 . S
O281 Co280 2.216 . S
O281 C288 1.246 . S
O282 Co280 2.091 . S
O282 C288 1.261 . S
C283 O292 1.247 . S
C283 O293 1.272 . S
O284 Co280 2.004 . S
O284 C289 1.259 . S
Co285 O286 2.061 . S
Co285 O291 2.052 . S
Co285 O293 2.135 1_554 S
O286 Co285 2.061 . S
O286 C289 1.235 1_554 S
C287 O290 1.238 . S
C287 O291 1.241 . S
C288 O281 1.246 . S
C288 O282 1.261 . S
C289 O284 1.259 . S
C289 O286 1.235 1_556 S
O290 Co280 2.021 1_554 S
O290 C287 1.238 . S
O291 Co285 2.052 . S
O291 C287 1.241 . S
O292 Co280 2.137 . S
O292 C283 1.247 . S
O293 Co280 2.244 . S
O293 C283 1.272 . S
O293 Co285 2.135 1_556 S
Co294 O295 2.216 . S
Co294 O296 2.091 . S
Co294 O298 2.004 . S
Co294 O304 2.021 . S
Co294 O306 2.137 . S
Co294 O307 2.244 . S
O295 Co294 2.216 . S
O295 C302 1.247 . S
O296 Co294 2.091 . S
O296 C302 1.261 . S
C297 O306 1.247 . S
C297 O307 1.272 . S
O298 Co294 2.004 . S
O298 C303 1.259 . S
Co299 O300 2.061 . S
Co299 O305 2.052 . S
Co299 O307 2.135 . S
O300 Co299 2.061 . S
O300 C303 1.235 . S
C301 O304 1.238 . S
C301 O305 1.241 . S
C302 O295 1.247 . S
C302 O296 1.261 . S
C303 O298 1.259 . S
C303 O300 1.235 . S
O304 Co294 2.021 . S
O304 C301 1.238 . S
O305 Co299 2.052 . S
O305 C301 1.241 . S
O306 Co294 2.137 . S
O306 C297 1.247 . S
O307 Co294 2.244 . S
O307 C297 1.272 . S
O307 Co299 2.135 . S
Co308 O309 2.216 . S
Co308 O310 2.091 . S
Co308 O312 2.004 . S
Co308 O318 2.021 . S
Co308 O320 2.137 . S
Co308 O321 2.244 . S
O309 Co308 2.216 . S
O309 C316 1.247 . S
O310 Co308 2.091 . S
O310 C316 1.261 . S
C311 O320 1.247 . S
C311 O321 1.272 . S
O312 Co308 2.004 . S
O312 C317 1.259 . S
Co313 O314 2.061 . S
Co313 O319 2.052 . S
Co313 O321 2.135 . S
O314 Co313 2.061 . S
O314 C317 1.235 . S
C315 O318 1.238 . S
C315 O319 1.241 . S
C316 O309 1.247 . S
C316 O310 1.261 . S
C317 O312 1.259 . S
C317 O314 1.235 . S
O318 Co308 2.021 . S
O318 C315 1.238 . S
O319 Co313 2.052 . S
O319 C315 1.241 . S
O320 Co308 2.137 . S
O320 C311 1.247 . S
O321 Co308 2.244 . S
O321 C311 1.272 . S
O321 Co313 2.135 . S
Co322 O323 2.216 . S
Co322 O324 2.091 . S
Co322 O326 2.004 . S
Co322 O332 2.021 . S
Co322 O334 2.137 . S
Co322 O335 2.244 . S
O323 Co322 2.216 . S
O323 C330 1.247 . S
O324 Co322 2.091 . S
O324 C330 1.261 . S
C325 O334 1.247 . S
C325 O335 1.272 . S
O326 Co322 2.004 . S
O326 C331 1.259 . S
Co327 O328 2.061 . S
Co327 O333 2.052 . S
Co327 O335 2.135 . S
O328 Co327 2.061 . S
O328 C331 1.235 . S
C329 O332 1.238 . S
C329 O333 1.241 . S
C330 O323 1.247 . S
C330 O324 1.261 . S
C331 O326 1.259 . S
C331 O328 1.235 . S
O332 Co322 2.021 . S
O332 C329 1.238 . S
O333 Co327 2.052 . S
O333 C329 1.241 . S
O334 Co322 2.137 . S
O334 C325 1.247 . S
O335 Co322 2.244 . S
O335 C325 1.272 . S
O335 Co327 2.135 . S
Eu336 N367 2.657 1_545 S
Eu336 N374 2.609 1_544 S
Eu336 O380 2.558 1_454 S
Eu336 O381 2.612 . S
Eu336 O383 2.339 . S
Eu336 O384 2.563 . S
Eu336 O385 2.419 1_455 S
Eu336 O387 2.380 . S
Eu336 O388 2.432 1_554 S
Eu336 C400 2.848 1_454 S
C337 C340 1.429 . S
C337 C341 1.411 . S
C337 N344 1.377 . S
C338 C340 1.420 . S
C338 C342 1.423 . S
C338 C350 1.392 . S
C339 C341 1.420 . S
C339 C342 1.351 . S
C339 H362 0.931 . S
C340 C337 1.429 . S
C340 C338 1.420 . S
C340 N348 1.362 . S
C341 C337 1.411 . S
C341 C339 1.420 . S
C341 C346 1.395 . S
C342 C338 1.423 . S
C342 C339 1.351 . S
C342 H354 0.930 . S
C343 C345 1.400 . S
C343 C346 1.386 . S
C343 H355 0.930 . S
N344 C337 1.377 . S
N344 C345 1.321 . S
N344 Eu347 2.609 . S
C345 C343 1.400 . S
C345 N344 1.321 . S
C345 H352 0.930 . S
C346 C341 1.395 . S
C346 C343 1.386 . S
C346 H365 0.930 . S
Eu347 N344 2.609 . S
Eu347 N348 2.657 . S
Eu347 O381 2.380 . S
Eu347 O382 2.432 . S
Eu347 O386 2.558 . S
Eu347 O387 2.612 . S
Eu347 O389 2.339 1_554 S
Eu347 O390 2.563 . S
Eu347 O391 2.419 . S
Eu347 C411 2.848 . S
N348 C340 1.362 . S
N348 Eu347 2.657 . S
N348 C349 1.334 1_554 S
C349 N348 1.334 1_556 S
C349 C351 1.413 . S
C349 H356 0.929 . S
C350 C338 1.392 . S
C350 C351 1.367 1_554 S
C350 H358 0.930 1_554 S
C351 C349 1.413 . S
C351 C350 1.367 1_556 S
C351 H353 0.930 . S
H352 C345 0.930 . S
H353 C351 0.930 . S
H354 C342 0.930 . S
H355 C343 0.930 . S
H356 C349 0.929 . S
H357 C371 0.930 . S
H358 C350 0.930 1_556 S
H359 C377 0.930 . S
H360 C368 0.929 . S
H361 C375 0.929 . S
H362 C339 0.931 . S
H363 C369 0.930 . S
H364 C402 0.930 1_554 S
H365 C346 0.930 . S
H366 C401 0.931 . S
N367 Eu336 2.657 1_565 S
N367 C368 1.334 . S
N367 C372 1.368 . S
C368 H360 0.929 . S
C368 N367 1.334 . S
C368 C371 1.413 . S
C369 H363 0.930 . S
C369 C370 1.392 . S
C369 C371 1.367 1_655 S
C370 C369 1.392 . S
C370 C372 1.414 1_655 S
C370 C402 1.423 1_554 S
C371 H357 0.930 . S
C371 C368 1.413 . S
C371 C369 1.367 1_455 S
C372 N367 1.368 . S
C372 C370 1.414 1_455 S
C372 C376 1.431 1_554 S
H373 C378 0.930 . S
N374 Eu336 2.609 1_566 S
N374 C376 1.377 . S
N374 C377 1.321 . S
C375 H361 0.929 . S
C375 C377 1.395 1_655 S
C375 C378 1.392 . S
C376 C372 1.431 1_556 S
C376 N374 1.377 . S
C376 C379 1.411 1_455 S
C377 H359 0.930 . S
C377 N374 1.321 . S
C377 C375 1.395 1_455 S
C378 H373 0.930 . S
C378 C375 1.392 . S
C378 C379 1.395 . S
C379 C376 1.411 1_655 S
C379 C378 1.395 . S
C379 C401 1.420 . S
O380 Eu336 2.558 1_656 S
O380 C400 1.257 . S
O381 Eu336 2.612 . S
O381 Eu347 2.380 . S
O381 C392 1.276 . S
O382 Eu347 2.432 . S
O382 C399 1.264 . S
O383 Eu336 2.339 . S
O383 C399 1.254 . S
O384 Eu336 2.563 . S
O384 C392 1.235 . S
O385 Eu336 2.419 1_655 S
O385 C400 1.249 1_554 S
O386 Eu347 2.558 . S
O386 C411 1.257 . S
O387 Eu336 2.380 . S
O387 Eu347 2.612 . S
O387 C403 1.276 1_545 S
O388 Eu336 2.432 1_556 S
O388 C410 1.264 . S
O389 Eu347 2.339 1_556 S
O389 C410 1.254 . S
O390 Eu347 2.563 . S
O390 C403 1.235 1_545 S
O391 Eu347 2.419 . S
O391 C411 1.249 . S
C392 O381 1.276 . S
C392 O384 1.235 . S
C393 C395 1.393 1_556 S
C393 C397 1.395 . S
C393 C400 1.492 . S
C394 C395 1.386 1_556 S
C394 C396 1.414 . S
C395 C393 1.393 1_554 S
C395 C394 1.386 1_554 S
C395 H412 0.930 . S
C396 C394 1.414 . S
C396 C398 1.395 . S
C396 H413 0.930 . S
C397 C393 1.395 . S
C397 C398 1.379 . S
C397 H414 0.930 . S
C398 C396 1.395 . S
C398 C397 1.379 . S
C398 H415 0.930 . S
C399 O382 1.264 . S
C399 O383 1.254 . S
C400 Eu336 2.848 1_656 S
C400 O380 1.257 . S
C400 O385 1.249 1_556 S
C400 C393 1.492 . S
C401 H366 0.931 . S
C401 C379 1.420 . S
C401 C402 1.351 . S
C402 H364 0.930 1_556 S
C402 C370 1.423 1_556 S
C402 C401 1.351 . S
C403 O387 1.276 1_565 S
C403 O390 1.235 1_565 S
C404 C405 1.393 . S
C404 C408 1.395 . S
C404 C411 1.492 . S
C405 C404 1.393 . S
C405 C406 1.392 . S
C405 H416 0.930 . S
C406 C405 1.392 . S
C406 C407 1.386 . S
C407 C406 1.386 . S
C407 C409 1.395 . S
C407 H417 0.930 . S
C408 C404 1.395 . S
C408 C409 1.379 . S
C408 H418 0.930 . S
C409 C407 1.395 . S
C409 C408 1.379 . S
C409 H419 0.930 . S
C410 O388 1.264 . S
C410 O389 1.254 . S
C411 Eu347 2.848 . S
C411 O386 1.257 . S
C411 O391 1.249 . S
C411 C404 1.492 . S
H412 C395 0.930 . S
H413 C396 0.930 . S
H414 C397 0.930 . S
H415 C398 0.930 . S
H416 C405 0.930 . S
H417 C407 0.930 . S
H418 C408 0.930 . S
H419 C409 0.930 . S
Eu420 N451 2.657 . S
Eu420 N458 2.609 . S
Eu420 O464 2.558 . S
Eu420 O465 2.612 . S
Eu420 O467 2.339 . S
Eu420 O468 2.563 . S
Eu420 O469 2.419 . S
Eu420 O471 2.380 . S
Eu420 O472 2.432 . S
Eu420 C484 2.848 . S
C421 C424 1.429 . S
C421 C425 1.411 . S
C421 N428 1.377 . S
C422 C424 1.420 . S
C422 C426 1.423 . S
C422 C434 1.392 . S
C423 C425 1.420 . S
C423 C426 1.351 . S
C423 H446 0.931 . S
C424 C421 1.429 . S
C424 C422 1.420 . S
C424 N432 1.362 . S
C425 C421 1.411 . S
C425 C423 1.420 . S
C425 C430 1.395 . S
C426 C422 1.423 . S
C426 C423 1.351 . S
C426 H438 0.930 . S
C427 C429 1.400 . S
C427 C430 1.386 . S
C427 H439 0.930 . S
N428 C421 1.377 . S
N428 C429 1.321 . S
N428 Eu431 2.609 . S
C429 C427 1.400 . S
C429 N428 1.321 . S
C429 H436 0.930 . S
C430 C425 1.395 . S
C430 C427 1.386 . S
C430 H449 0.930 . S
Eu431 N428 2.609 . S
Eu431 N432 2.657 . S
Eu431 O465 2.380 . S
Eu431 O466 2.432 . S
Eu431 O470 2.558 . S
Eu431 O471 2.612 . S
Eu431 O473 2.339 . S
Eu431 O474 2.563 . S
Eu431 O475 2.419 . S
Eu431 C495 2.848 . S
N432 C424 1.362 . S
N432 Eu431 2.657 . S
N432 C433 1.334 . S
C433 N432 1.334 . S
C433 C435 1.413 . S
C433 H440 0.929 . S
C434 C422 1.392 . S
C434 C435 1.367 . S
C434 H442 0.930 . S
C435 C433 1.413 . S
C435 C434 1.367 . S
C435 H437 0.930 . S
H436 C429 0.930 . S
H437 C435 0.930 . S
H438 C426 0.930 . S
H439 C427 0.930 . S
H440 C433 0.929 . S
H441 C455 0.930 . S
H442 C434 0.930 . S
H443 C461 0.930 . S
H444 C452 0.929 . S
H445 C459 0.930 . S
H446 C423 0.931 . S
H447 C453 0.930 . S
H448 C486 0.930 . S
H449 C430 0.930 . S
H450 C485 0.931 . S
N451 Eu420 2.657 . S
N451 C452 1.334 . S
N451 C456 1.362 . S
C452 H444 0.929 . S
C452 N451 1.334 . S
C452 C455 1.413 . S
C453 H447 0.930 . S
C453 C454 1.392 . S
C453 C455 1.367 . S
C454 C453 1.392 . S
C454 C456 1.420 . S
C454 C486 1.423 . S
C455 H441 0.930 . S
C455 C452 1.413 . S
C455 C453 1.367 . S
C456 N451 1.362 . S
C456 C454 1.420 . S
C456 C460 1.429 . S
H457 C462 0.930 . S
N458 Eu420 2.609 . S
N458 C460 1.377 . S
N458 C461 1.321 . S
C459 H445 0.930 . S
C459 C461 1.400 . S
C459 C462 1.386 . S
C460 C456 1.429 . S
C460 N458 1.377 . S
C460 C463 1.411 . S
C461 H443 0.930 . S
C461 N458 1.321 . S
C461 C459 1.400 . S
C462 H457 0.930 . S
C462 C459 1.386 . S
C462 C463 1.395 . S
C463 C460 1.411 . S
C463 C462 1.395 . S
C463 C485 1.420 . S
O464 Eu420 2.558 . S
O464 C484 1.257 . S
O465 Eu420 2.612 . S
O465 Eu431 2.380 . S
O465 C476 1.276 . S
O466 Eu431 2.432 . S
O466 C483 1.264 . S
O467 Eu420 2.339 . S
O467 C483 1.254 . S
O468 Eu420 2.563 . S
O468 C476 1.235 . S
O469 Eu420 2.419 . S
O469 C484 1.249 . S
O470 Eu431 2.558 . S
O470 C495 1.257 . S
O471 Eu420 2.380 . S
O471 Eu431 2.612 . S
O471 C487 1.276 . S
O472 Eu420 2.432 . S
O472 C494 1.264 . S
O473 Eu431 2.339 . S
O473 C494 1.254 . S
O474 Eu431 2.563 . S
O474 C487 1.235 . S
O475 Eu431 2.419 . S
O475 C495 1.249 . S
C476 O465 1.276 . S
C476 O468 1.235 . S
C477 C479 1.393 . S
C477 C481 1.395 . S
C477 C484 1.492 . S
C478 C479 1.392 . S
C478 C480 1.386 . S
C479 C477 1.393 . S
C479 C478 1.392 . S
C479 H496 0.930 . S
C480 C478 1.386 . S
C480 C482 1.395 . S
C480 H497 0.930 . S
C481 C477 1.395 . S
C481 C482 1.379 . S
C481 H498 0.930 . S
C482 C480 1.395 . S
C482 C481 1.379 . S
C482 H499 0.930 . S
C483 O466 1.264 . S
C483 O467 1.254 . S
C484 Eu420 2.848 . S
C484 O464 1.257 . S
C484 O469 1.249 . S
C484 C477 1.492 . S
C485 H450 0.931 . S
C485 C463 1.420 . S
C485 C486 1.351 . S
C486 H448 0.930 . S
C486 C454 1.423 . S
C486 C485 1.351 . S
C487 O471 1.276 . S
C487 O474 1.235 . S
C488 C489 1.393 . S
C488 C492 1.395 . S
C488 C495 1.492 . S
C489 C488 1.393 . S
C489 C490 1.392 . S
C489 H500 0.930 . S
C490 C489 1.392 . S
C490 C491 1.386 . S
C491 C490 1.386 . S
C491 C493 1.395 . S
C491 H501 0.930 . S
C492 C488 1.395 . S
C492 C493 1.379 . S
C492 H502 0.930 . S
C493 C491 1.395 . S
C493 C492 1.379 . S
C493 H503 0.930 . S
C494 O472 1.264 . S
C494 O473 1.254 . S
C495 Eu431 2.848 . S
C495 O470 1.257 . S
C495 O475 1.249 . S
C495 C488 1.492 . S
H496 C479 0.930 . S
H497 C480 0.930 . S
H498 C481 0.930 . S
H499 C482 0.930 . S
H500 C489 0.930 . S
H501 C491 0.930 . S
H502 C492 0.930 . S
H503 C493 0.930 . S
Eu504 N535 2.657 . S
Eu504 N542 2.609 . S
Eu504 O548 2.558 . S
Eu504 O549 2.612 . S
Eu504 O551 2.339 . S
Eu504 O552 2.563 1_545 S
Eu504 O553 2.419 . S
Eu504 O555 2.380 . S
Eu504 O556 2.432 . S
Eu504 C568 2.848 . S
C505 C508 1.429 . S
C505 C509 1.411 . S
C505 N512 1.377 1_565 S
C506 C508 1.420 . S
C506 C510 1.423 . S
C506 C518 1.392 . S
C507 C509 1.420 . S
C507 C510 1.351 . S
C507 H530 0.931 . S
C508 C505 1.429 . S
C508 C506 1.420 . S
C508 N516 1.362 . S
C509 C505 1.411 . S
C509 C507 1.420 . S
C509 C514 1.395 . S
C510 C506 1.423 . S
C510 C507 1.351 . S
C510 H522 0.930 . S
C511 C513 1.381 1_565 S
C511 C514 1.409 . S
C511 H523 0.926 1_565 S
N512 C505 1.377 1_545 S
N512 C513 1.321 . S
N512 Eu515 2.609 . S
C513 C511 1.381 1_545 S
C513 N512 1.321 . S
C513 H520 0.930 . S
C514 C509 1.395 . S
C514 C511 1.409 . S
C514 H533 0.930 . S
Eu515 N512 2.609 . S
Eu515 N516 2.657 1_545 S
Eu515 O549 2.380 . S
Eu515 O550 2.432 . S
Eu515 O554 2.558 . S
Eu515 O555 2.612 . S
Eu515 O557 2.339 . S
Eu515 O558 2.563 . S
Eu515 O559 2.419 . S
Eu515 C579 2.848 . S
N516 C508 1.362 . S
N516 Eu515 2.657 1_565 S
N516 C517 1.334 . S
C517 N516 1.334 . S
C517 C519 1.413 . S
C517 H524 0.929 . S
C518 C506 1.392 . S
C518 C519 1.367 . S
C518 H526 0.930 . S
C519 C517 1.413 . S
C519 C518 1.367 . S
C519 H521 0.930 . S
H520 C513 0.930 . S
H521 C519 0.930 . S
H522 C510 0.930 . S
H523 C511 0.926 1_545 S
H524 C517 0.929 . S
H525 C539 0.930 . S
H526 C518 0.930 . S
H527 C545 0.930 . S
H528 C536 0.929 . S
H529 C543 0.930 . S
H530 C507 0.931 . S
H531 C537 0.930 . S
H532 C570 0.930 . S
H533 C514 0.930 . S
H534 C569 0.931 . S
N535 Eu504 2.657 . S
N535 C536 1.334 . S
N535 C540 1.362 . S
C536 H528 0.929 . S
C536 N535 1.334 . S
C536 C539 1.413 . S
C537 H531 0.930 . S
C537 C538 1.392 . S
C537 C539 1.367 . S
C538 C537 1.392 . S
C538 C540 1.420 . S
C538 C570 1.423 . S
C539 H525 0.930 . S
C539 C536 1.413 . S
C539 C537 1.367 . S
C540 N535 1.362 . S
C540 C538 1.420 . S
C540 C544 1.429 . S
H541 C546 0.930 . S
N542 Eu504 2.609 . S
N542 C544 1.377 . S
N542 C545 1.321 . S
C543 H529 0.930 . S
C543 C545 1.400 . S
C543 C546 1.386 . S
C544 C540 1.429 . S
C544 N542 1.377 . S
C544 C547 1.411 . S
C545 H527 0.930 . S
C545 N542 1.321 . S
C545 C543 1.400 . S
C546 H541 0.930 . S
C546 C543 1.386 . S
C546 C547 1.395 . S
C547 C544 1.411 . S
C547 C546 1.395 . S
C547 C569 1.420 . S
O548 Eu504 2.558 . S
O548 C568 1.257 . S
O549 Eu504 2.612 . S
O549 Eu515 2.380 . S
O549 C560 1.276 1_545 S
O550 Eu515 2.432 . S
O550 C567 1.264 . S
O551 Eu504 2.339 . S
O551 C567 1.254 . S
O552 Eu504 2.563 1_565 S
O552 C560 1.235 . S
O553 Eu504 2.419 . S
O553 C568 1.249 . S
O554 Eu515 2.558 . S
O554 C579 1.257 . S
O555 Eu504 2.380 . S
O555 Eu515 2.612 . S
O555 C571 1.276 . S
O556 Eu504 2.432 . S
O556 C578 1.264 . S
O557 Eu515 2.339 . S
O557 C578 1.254 . S
O558 Eu515 2.563 . S
O558 C571 1.235 . S
O559 Eu515 2.419 . S
O559 C579 1.249 . S
C560 O549 1.276 1_565 S
C560 O552 1.235 . S
C561 C563 1.393 1_545 S
C561 C565 1.395 . S
C561 C568 1.492 . S
C562 C563 1.392 . S
C562 C564 1.386 . S
C563 C561 1.393 1_565 S
C563 C562 1.392 . S
C563 H580 0.930 . S
C564 C562 1.386 . S
C564 C566 1.395 . S
C564 H581 0.930 . S
C565 C561 1.395 . S
C565 C566 1.379 1_545 S
C565 H582 0.930 . S
C566 C564 1.395 . S
C566 C565 1.379 1_565 S
C566 H583 0.930 . S
C567 O550 1.264 . S
C567 O551 1.254 . S
C568 Eu504 2.848 . S
C568 O548 1.257 . S
C568 O553 1.249 . S
C568 C561 1.492 . S
C569 H534 0.931 . S
C569 C547 1.420 . S
C569 C570 1.351 . S
C570 H532 0.930 . S
C570 C538 1.423 . S
C570 C569 1.351 . S
C571 O555 1.276 . S
C571 O558 1.235 . S
C572 C573 1.393 . S
C572 C576 1.395 . S
C572 C579 1.492 . S
C573 C572 1.393 . S
C573 C574 1.392 . S
C573 H584 0.930 . S
C574 C573 1.392 . S
C574 C575 1.386 . S
C575 C574 1.386 . S
C575 C577 1.395 . S
C575 H585 0.930 . S
C576 C572 1.395 . S
C576 C577 1.379 . S
C576 H586 0.930 . S
C577 C575 1.395 . S
C577 C576 1.379 . S
C577 H587 0.930 . S
C578 O556 1.264 . S
C578 O557 1.254 . S
C579 Eu515 2.848 . S
C579 O554 1.257 . S
C579 O559 1.249 . S
C579 C572 1.492 . S
H580 C563 0.930 . S
H581 C564 0.930 . S
H582 C565 0.930 . S
H583 C566 0.930 . S
H584 C573 0.930 . S
H585 C575 0.930 . S
H586 C576 0.930 . S
H587 C577 0.930 . S
Eu588 N619 2.657 . S
Eu588 N626 2.609 . S
Eu588 O632 2.558 . S
Eu588 O633 2.612 . S
Eu588 O635 2.339 . S
Eu588 O636 2.563 . S
Eu588 O637 2.419 . S
Eu588 O639 2.380 . S
Eu588 O640 2.432 . S
Eu588 C652 2.848 . S
C589 C592 1.429 . S
C589 C593 1.411 . S
C589 N596 1.377 . S
C590 C592 1.420 . S
C590 C594 1.423 . S
C590 C602 1.392 . S
C591 C593 1.420 . S
C591 C594 1.351 . S
C591 H614 0.931 . S
C592 C589 1.429 . S
C592 C590 1.420 . S
C592 N600 1.362 . S
C593 C589 1.411 . S
C593 C591 1.420 . S
C593 C598 1.395 . S
C594 C590 1.423 . S
C594 C591 1.351 . S
C594 H606 0.930 . S
C595 C597 1.400 . S
C595 C598 1.386 . S
C595 H607 0.930 . S
N596 C589 1.377 . S
N596 C597 1.321 . S
N596 Eu599 2.609 . S
C597 C595 1.400 . S
C597 N596 1.321 . S
C597 H604 0.930 . S
C598 C593 1.395 . S
C598 C595 1.386 . S
C598 H617 0.930 . S
Eu599 N596 2.609 . S
Eu599 N600 2.657 . S
Eu599 O633 2.380 . S
Eu599 O634 2.432 . S
Eu599 O638 2.558 . S
Eu599 O639 2.612 . S
Eu599 O641 2.339 . S
Eu599 O642 2.563 . S
Eu599 O643 2.419 . S
Eu599 C663 2.848 . S
N600 C592 1.362 . S
N600 Eu599 2.657 . S
N600 C601 1.334 . S
C601 N600 1.334 . S
C601 C603 1.413 . S
C601 H608 0.929 . S
C602 C590 1.392 . S
C602 C603 1.367 . S
C602 H610 0.930 . S
C603 C601 1.413 . S
C603 C602 1.367 . S
C603 H605 0.930 . S
H604 C597 0.930 . S
H605 C603 0.930 . S
H606 C594 0.930 . S
H607 C595 0.930 . S
H608 C601 0.929 . S
H609 C623 0.930 . S
H610 C602 0.930 . S
H611 C629 0.930 . S
H612 C620 0.929 . S
H613 C627 0.930 . S
H614 C591 0.931 . S
H615 C621 0.930 . S
H616 C654 0.930 . S
H617 C598 0.930 . S
H618 C653 0.931 . S
N619 Eu588 2.657 . S
N619 C620 1.334 . S
N619 C624 1.362 . S
C620 H612 0.929 . S
C620 N619 1.334 . S
C620 C623 1.413 . S
C621 H615 0.930 . S
C621 C622 1.392 . S
C621 C623 1.367 . S
C622 C621 1.392 . S
C622 C624 1.420 . S
C622 C654 1.423 . S
C623 H609 0.930 . S
C623 C620 1.413 . S
C623 C621 1.367 . S
C624 N619 1.362 . S
C624 C622 1.420 . S
C624 C628 1.429 . S
H625 C630 0.930 . S
N626 Eu588 2.609 . S
N626 C628 1.377 . S
N626 C629 1.321 . S
C627 H613 0.930 . S
C627 C629 1.400 . S
C627 C630 1.386 . S
C628 C624 1.429 . S
C628 N626 1.377 . S
C628 C631 1.411 . S
C629 H611 0.930 . S
C629 N626 1.321 . S
C629 C627 1.400 . S
C630 H625 0.930 . S
C630 C627 1.386 . S
C630 C631 1.395 . S
C631 C628 1.411 . S
C631 C630 1.395 . S
C631 C653 1.420 . S
O632 Eu588 2.558 . S
O632 C652 1.257 . S
O633 Eu588 2.612 . S
O633 Eu599 2.380 . S
O633 C644 1.276 . S
O634 Eu599 2.432 . S
O634 C651 1.264 . S
O635 Eu588 2.339 . S
O635 C651 1.254 . S
O636 Eu588 2.563 . S
O636 C644 1.235 . S
O637 Eu588 2.419 . S
O637 C652 1.249 . S
O638 Eu599 2.558 . S
O638 C663 1.257 . S
O639 Eu588 2.380 . S
O639 Eu599 2.612 . S
O639 C655 1.276 . S
O640 Eu588 2.432 . S
O640 C662 1.264 . S
O641 Eu599 2.339 . S
O641 C662 1.254 . S
O642 Eu599 2.563 . S
O642 C655 1.235 . S
O643 Eu599 2.419 . S
O643 C663 1.249 . S
C644 O633 1.276 . S
C644 O636 1.235 . S
C645 C647 1.393 . S
C645 C649 1.395 . S
C645 C652 1.492 . S
C646 C647 1.392 . S
C646 C648 1.386 . S
C647 C645 1.393 . S
C647 C646 1.392 . S
C647 H664 0.930 . S
C648 C646 1.386 . S
C648 C650 1.395 . S
C648 H665 0.930 . S
C649 C645 1.395 . S
C649 C650 1.379 . S
C649 H666 0.930 . S
C650 C648 1.395 . S
C650 C649 1.379 . S
C650 H667 0.930 . S
C651 O634 1.264 . S
C651 O635 1.254 . S
C652 Eu588 2.848 . S
C652 O632 1.257 . S
C652 O637 1.249 . S
C652 C645 1.492 . S
C653 H618 0.931 . S
C653 C631 1.420 . S
C653 C654 1.351 . S
C654 H616 0.930 . S
C654 C622 1.423 . S
C654 C653 1.351 . S
C655 O639 1.276 . S
C655 O642 1.235 . S
C656 C657 1.393 . S
C656 C660 1.395 . S
C656 C663 1.492 . S
C657 C656 1.393 . S
C657 C658 1.392 . S
C657 H668 0.930 . S
C658 C657 1.392 . S
C658 C659 1.386 . S
C659 C658 1.386 . S
C659 C661 1.395 . S
C659 H669 0.930 . S
C660 C656 1.395 . S
C660 C661 1.379 . S
C660 H670 0.930 . S
C661 C659 1.395 . S
C661 C660 1.379 . S
C661 H671 0.930 . S
C662 O640 1.264 . S
C662 O641 1.254 . S
C663 Eu599 2.848 . S
C663 O638 1.257 . S
C663 O643 1.249 . S
C663 C656 1.492 . S
H664 C647 0.930 . S
H665 C648 0.930 . S
H666 C649 0.930 . S
H667 C650 0.930 . S
H668 C657 0.930 . S
H669 C659 0.930 . S
H670 C660 0.930 . S
H671 C661 0.930 . S
Eu672 N703 2.657 . S
Eu672 N710 2.609 . S
Eu672 O716 2.558 . S
Eu672 O717 2.612 . S
Eu672 O719 2.339 . S
Eu672 O720 2.563 . S
Eu672 O721 2.419 . S
Eu672 O723 2.380 . S
Eu672 O724 2.432 . S
Eu672 C736 2.848 . S
C673 C676 1.429 . S
C673 C677 1.411 . S
C673 N680 1.377 . S
C674 C676 1.420 . S
C674 C678 1.423 . S
C674 C686 1.392 . S
C675 C677 1.420 . S
C675 C678 1.351 . S
C675 H698 0.931 . S
C676 C673 1.429 . S
C676 C674 1.420 . S
C676 N684 1.362 . S
C677 C673 1.411 . S
C677 C675 1.420 . S
C677 C682 1.395 . S
C678 C674 1.423 . S
C678 C675 1.351 . S
C678 H690 0.930 . S
C679 C681 1.400 . S
C679 C682 1.386 . S
C679 H691 0.930 . S
N680 C673 1.377 . S
N680 C681 1.321 . S
N680 Eu683 2.614 . S
C681 C679 1.400 . S
C681 N680 1.321 . S
C681 H688 0.930 . S
C682 C677 1.395 . S
C682 C679 1.386 . S
C682 H701 0.930 . S
Eu683 N680 2.614 . S
Eu683 N684 2.659 . S
Eu683 O717 2.364 1_565 S
Eu683 O718 2.422 1_565 S
Eu683 O722 2.574 . S
Eu683 O723 2.601 1_565 S
Eu683 O725 2.338 . S
Eu683 O726 2.567 1_565 S
Eu683 O727 2.436 . S
Eu683 C747 2.866 . S
N684 C676 1.362 . S
N684 Eu683 2.659 . S
N684 C685 1.334 . S
C685 N684 1.334 . S
C685 C687 1.415 . S
C685 H692 0.929 . S
C686 C674 1.392 . S
C686 C687 1.369 . S
C686 H694 0.916 1_455 S
C687 C685 1.415 . S
C687 C686 1.369 . S
C687 H689 0.928 1_455 S
H688 C681 0.930 . S
H689 C687 0.928 1_655 S
H690 C678 0.930 . S
H691 C679 0.930 . S
H692 C685 0.929 . S
H693 C707 0.930 . S
H694 C686 0.916 1_655 S
H695 C713 0.930 . S
H696 C704 0.929 . S
H697 C711 0.930 1_655 S
H698 C675 0.931 . S
H699 C705 0.930 . S
H700 C738 0.930 . S
H701 C682 0.930 . S
H702 C737 0.931 . S
N703 Eu672 2.657 . S
N703 C704 1.334 . S
N703 C708 1.362 . S
C704 H696 0.929 . S
C704 N703 1.334 . S
C704 C707 1.413 . S
C705 H699 0.930 . S
C705 C706 1.392 . S
C705 C707 1.367 . S
C706 C705 1.392 . S
C706 C708 1.420 . S
C706 C738 1.423 . S
C707 H693 0.930 . S
C707 C704 1.413 . S
C707 C705 1.367 . S
C708 N703 1.362 . S
C708 C706 1.420 . S
C708 C712 1.429 . S
H709 C714 0.930 . S
N710 Eu672 2.609 . S
N710 C712 1.377 . S
N710 C713 1.321 . S
C711 H697 0.930 1_455 S
C711 C713 1.400 . S
C711 C714 1.386 . S
C712 C708 1.429 . S
C712 N710 1.377 . S
C712 C715 1.411 . S
C713 H695 0.930 . S
C713 N710 1.321 . S
C713 C711 1.400 . S
C714 H709 0.930 . S
C714 C711 1.386 . S
C714 C715 1.395 . S
C715 C712 1.411 . S
C715 C714 1.395 . S
C715 C737 1.420 . S
O716 Eu672 2.558 . S
O716 C736 1.257 . S
O717 Eu672 2.612 . S
O717 Eu683 2.364 1_545 S
O717 C728 1.276 . S
O718 Eu683 2.422 1_545 S
O718 C735 1.264 . S
O719 Eu672 2.339 . S
O719 C735 1.254 . S
O720 Eu672 2.563 . S
O720 C728 1.235 . S
O721 Eu672 2.419 . S
O721 C736 1.249 . S
O722 Eu683 2.574 . S
O722 C747 1.257 . S
O723 Eu672 2.380 . S
O723 Eu683 2.601 1_545 S
O723 C739 1.276 . S
O724 Eu672 2.432 . S
O724 C746 1.264 . S
O725 Eu683 2.338 . S
O725 C746 1.243 1_565 S
O726 Eu683 2.567 1_545 S
O726 C739 1.235 . S
O727 Eu683 2.436 . S
O727 C747 1.249 . S
C728 O717 1.276 . S
C728 O720 1.235 . S
C729 C731 1.393 . S
C729 C733 1.395 . S
C729 C736 1.492 . S
C730 C731 1.392 . S
C730 C732 1.386 . S
C731 C729 1.393 . S
C731 C730 1.392 . S
C731 H748 0.930 . S
C732 C730 1.386 . S
C732 C734 1.395 . S
C732 H749 0.930 . S
C733 C729 1.395 . S
C733 C734 1.379 . S
C733 H750 0.930 . S
C734 C732 1.395 . S
C734 C733 1.379 . S
C734 H751 0.930 . S
C735 O718 1.264 . S
C735 O719 1.254 . S
C736 Eu672 2.848 . S
C736 O716 1.257 . S
C736 O721 1.249 . S
C736 C729 1.492 . S
C737 H702 0.931 . S
C737 C715 1.420 . S
C737 C738 1.351 . S
C738 H700 0.930 . S
C738 C706 1.423 . S
C738 C737 1.351 . S
C739 O723 1.276 . S
C739 O726 1.235 . S
C740 C741 1.393 . S
C740 C744 1.395 . S
C740 C747 1.492 . S
C741 C740 1.393 . S
C741 C742 1.392 . S
C741 H752 0.930 . S
C742 C741 1.392 . S
C742 C743 1.386 . S
C743 C742 1.386 . S
C743 C745 1.395 . S
C743 H753 0.930 . S
C744 C740 1.395 . S
C744 C745 1.379 . S
C744 H754 0.930 . S
C745 C743 1.395 . S
C745 C744 1.379 . S
C745 H755 0.930 . S
C746 O724 1.264 . S
C746 O725 1.243 1_545 S
C747 Eu683 2.866 . S
C747 O722 1.257 . S
C747 O727 1.249 . S
C747 C740 1.492 . S
H748 C731 0.930 . S
H749 C732 0.930 . S
H750 C733 0.930 . S
H751 C734 0.930 . S
H752 C741 0.930 . S
H753 C743 0.930 . S
H754 C744 0.930 . S
H755 C745 0.930 . S
Eu756 N787 2.657 . S
Eu756 N794 2.609 . S
Eu756 O800 2.558 . S
Eu756 O801 2.612 . S
Eu756 O803 2.339 . S
Eu756 O804 2.563 . S
Eu756 O805 2.419 . S
Eu756 O807 2.380 . S
Eu756 O808 2.432 . S
Eu756 C820 2.848 . S
C757 C760 1.429 . S
C757 C761 1.411 . S
C757 N764 1.377 . S
C758 C760 1.420 . S
C758 C762 1.423 . S
C758 C770 1.392 . S
C759 C761 1.420 . S
C759 C762 1.351 . S
C759 H782 0.931 . S
C760 C757 1.429 . S
C760 C758 1.420 . S
C760 N768 1.362 . S
C761 C757 1.411 . S
C761 C759 1.420 . S
C761 C766 1.395 . S
C762 C758 1.423 . S
C762 C759 1.351 . S
C762 H774 0.930 . S
C763 C765 1.400 . S
C763 C766 1.386 . S
C763 H775 0.930 . S
N764 C757 1.377 . S
N764 C765 1.321 . S
N764 Eu767 2.609 . S
C765 C763 1.400 . S
C765 N764 1.321 . S
C765 H772 0.930 . S
C766 C761 1.395 . S
C766 C763 1.386 . S
C766 H785 0.930 . S
Eu767 N764 2.609 . S
Eu767 N768 2.657 . S
Eu767 O801 2.380 . S
Eu767 O802 2.432 . S
Eu767 O806 2.558 . S
Eu767 O807 2.612 . S
Eu767 O809 2.339 . S
Eu767 O810 2.563 . S
Eu767 O811 2.419 . S
Eu767 C831 2.848 . S
N768 C760 1.362 . S
N768 Eu767 2.657 . S
N768 C769 1.334 . S
C769 N768 1.334 . S
C769 C771 1.413 . S
C769 H776 0.929 . S
C770 C758 1.392 . S
C770 C771 1.367 . S
C770 H778 0.930 . S
C771 C769 1.413 . S
C771 C770 1.367 . S
C771 H773 0.930 . S
H772 C765 0.930 . S
H773 C771 0.930 . S
H774 C762 0.930 . S
H775 C763 0.930 . S
H776 C769 0.929 . S
H777 C791 0.930 . S
H778 C770 0.930 . S
H779 C797 0.930 . S
H780 C788 0.929 . S
H781 C795 0.930 . S
H782 C759 0.931 . S
H783 C789 0.930 . S
H784 C822 0.930 . S
H785 C766 0.930 . S
H786 C821 0.931 . S
N787 Eu756 2.657 . S
N787 C788 1.334 . S
N787 C792 1.362 . S
C788 H780 0.929 . S
C788 N787 1.334 . S
C788 C791 1.413 . S
C789 H783 0.930 . S
C789 C790 1.392 . S
C789 C791 1.367 . S
C790 C789 1.392 . S
C790 C792 1.420 . S
C790 C822 1.423 . S
C791 H777 0.930 . S
C791 C788 1.413 . S
C791 C789 1.367 . S
C792 N787 1.362 . S
C792 C790 1.420 . S
C792 C796 1.429 . S
H793 C798 0.930 . S
N794 Eu756 2.609 . S
N794 C796 1.377 . S
N794 C797 1.321 . S
C795 H781 0.930 . S
C795 C797 1.400 . S
C795 C798 1.386 . S
C796 C792 1.429 . S
C796 N794 1.377 . S
C796 C799 1.411 . S
C797 H779 0.930 . S
C797 N794 1.321 . S
C797 C795 1.400 . S
C798 H793 0.930 . S
C798 C795 1.386 . S
C798 C799 1.395 . S
C799 C796 1.411 . S
C799 C798 1.395 . S
C799 C821 1.420 . S
O800 Eu756 2.558 . S
O800 C820 1.257 . S
O801 Eu756 2.612 . S
O801 Eu767 2.380 . S
O801 C812 1.276 . S
O802 Eu767 2.432 . S
O802 C819 1.264 . S
O803 Eu756 2.339 . S
O803 C819 1.254 . S
O804 Eu756 2.563 . S
O804 C812 1.235 . S
O805 Eu756 2.419 . S
O805 C820 1.249 . S
O806 Eu767 2.558 . S
O806 C831 1.257 . S
O807 Eu756 2.380 . S
O807 Eu767 2.612 . S
O807 C823 1.276 . S
O808 Eu756 2.432 . S
O808 C830 1.264 . S
O809 Eu767 2.339 . S
O809 C830 1.254 . S
O810 Eu767 2.563 . S
O810 C823 1.235 . S
O811 Eu767 2.419 . S
O811 C831 1.249 . S
C812 O801 1.276 . S
C812 O804 1.235 . S
C813 C815 1.393 . S
C813 C817 1.395 . S
C813 C820 1.492 . S
C814 C815 1.392 . S
C814 C816 1.386 . S
C815 C813 1.393 . S
C815 C814 1.392 . S
C815 H832 0.930 . S
C816 C814 1.386 . S
C816 C818 1.395 . S
C816 H833 0.930 . S
C817 C813 1.395 . S
C817 C818 1.379 . S
C817 H834 0.930 . S
C818 C816 1.395 . S
C818 C817 1.379 . S
C818 H835 0.930 . S
C819 O802 1.264 . S
C819 O803 1.254 . S
C820 Eu756 2.848 . S
C820 O800 1.257 . S
C820 O805 1.249 . S
C820 C813 1.492 . S
C821 H786 0.931 . S
C821 C799 1.420 . S
C821 C822 1.351 . S
C822 H784 0.930 . S
C822 C790 1.423 . S
C822 C821 1.351 . S
C823 O807 1.276 . S
C823 O810 1.235 . S
C824 C825 1.393 . S
C824 C828 1.395 . S
C824 C831 1.492 . S
C825 C824 1.393 . S
C825 C826 1.392 . S
C825 H836 0.930 . S
C826 C825 1.392 . S
C826 C827 1.386 . S
C827 C826 1.386 . S
C827 C829 1.395 . S
C827 H837 0.930 . S
C828 C824 1.395 . S
C828 C829 1.379 . S
C828 H838 0.930 . S
C829 C827 1.395 . S
C829 C828 1.379 . S
C829 H839 0.930 . S
C830 O808 1.264 . S
C830 O809 1.254 . S
C831 Eu767 2.848 . S
C831 O806 1.257 . S
C831 O811 1.249 . S
C831 C824 1.492 . S
H832 C815 0.930 . S
H833 C816 0.930 . S
H834 C817 0.930 . S
H835 C818 0.930 . S
H836 C825 0.930 . S
H837 C827 0.930 . S
H838 C828 0.930 . S
H839 C829 0.930 . S
Eu840 N871 2.657 . S
Eu840 N878 2.609 . S
Eu840 O884 2.558 1_545 S
Eu840 O885 2.612 . S
Eu840 O887 2.339 . S
Eu840 O888 2.563 . S
Eu840 O889 2.419 . S
Eu840 O891 2.380 . S
Eu840 O892 2.432 1_545 S
Eu840 C904 2.848 . S
C841 C844 1.429 . S
C841 C845 1.411 . S
C841 N848 1.377 . S
C842 C844 1.420 . S
C842 C846 1.423 . S
C842 C854 1.392 1_545 S
C843 C845 1.420 . S
C843 C846 1.351 . S
C843 H866 0.931 . S
C844 C841 1.429 . S
C844 C842 1.420 . S
C844 N852 1.362 . S
C845 C841 1.411 . S
C845 C843 1.420 . S
C845 C850 1.395 . S
C846 C842 1.423 . S
C846 C843 1.351 . S
C846 H858 0.930 . S
C847 C849 1.400 . S
C847 C850 1.386 . S
C847 H859 0.930 . S
N848 C841 1.377 . S
N848 C849 1.321 . S
N848 Eu851 2.609 . S
C849 C847 1.400 . S
C849 N848 1.321 . S
C849 H856 0.930 . S
C850 C845 1.395 . S
C850 C847 1.386 . S
C850 H869 0.930 . S
Eu851 N848 2.609 . S
Eu851 N852 2.657 . S
Eu851 O885 2.380 1_556 S
Eu851 O886 2.432 1_556 S
Eu851 O890 2.558 . S
Eu851 O891 2.612 1_556 S
Eu851 O893 2.339 . S
Eu851 O894 2.563 . S
Eu851 O895 2.419 . S
Eu851 C915 2.848 . S
N852 C844 1.362 . S
N852 Eu851 2.657 . S
N852 C853 1.334 1_545 S
C853 N852 1.334 1_565 S
C853 C855 1.413 . S
C853 H860 0.929 . S
C854 C842 1.392 1_565 S
C854 C855 1.367 . S
C854 H862 0.930 . S
C855 C853 1.413 . S
C855 C854 1.367 . S
C855 H857 0.930 . S
H856 C849 0.930 . S
H857 C855 0.930 . S
H858 C846 0.930 . S
H859 C847 0.930 . S
H860 C853 0.929 . S
H861 C875 0.930 . S
H862 C854 0.930 . S
H863 C881 0.930 . S
H864 C872 0.929 . S
H865 C879 0.930 . S
H866 C843 0.931 . S
H867 C873 0.930 . S
H868 C906 0.930 . S
H869 C850 0.930 . S
H870 C905 0.931 . S
N871 Eu840 2.657 . S
N871 C872 1.334 . S
N871 C876 1.362 . S
C872 H864 0.929 . S
C872 N871 1.334 . S
C872 C875 1.413 . S
C873 H867 0.930 . S
C873 C874 1.392 . S
C873 C875 1.367 . S
C874 C873 1.392 . S
C874 C876 1.420 . S
C874 C906 1.423 . S
C875 H861 0.930 . S
C875 C872 1.413 . S
C875 C873 1.367 . S
C876 N871 1.362 . S
C876 C874 1.420 . S
C876 C880 1.429 . S
H877 C882 0.930 . S
N878 Eu840 2.609 . S
N878 C880 1.377 . S
N878 C881 1.321 1_545 S
C879 H865 0.930 . S
C879 C881 1.400 . S
C879 C882 1.386 . S
C880 C876 1.429 . S
C880 N878 1.377 . S
C880 C883 1.411 . S
C881 H863 0.930 . S
C881 N878 1.321 1_565 S
C881 C879 1.400 . S
C882 H877 0.930 . S
C882 C879 1.386 . S
C882 C883 1.395 1_565 S
C883 C880 1.411 . S
C883 C882 1.395 1_545 S
C883 C905 1.420 . S
O884 Eu840 2.558 1_565 S
O884 C904 1.257 1_565 S
O885 Eu840 2.612 . S
O885 Eu851 2.380 1_554 S
O885 C896 1.276 . S
O886 Eu851 2.432 1_554 S
O886 C903 1.264 . S
O887 Eu840 2.339 . S
O887 C903 1.254 . S
O888 Eu840 2.563 . S
O888 C896 1.235 . S
O889 Eu840 2.419 . S
O889 C904 1.249 . S
O890 Eu851 2.558 . S
O890 C915 1.257 . S
O891 Eu840 2.380 . S
O891 Eu851 2.612 1_554 S
O891 C907 1.276 . S
O892 Eu840 2.432 1_565 S
O892 C914 1.264 1_554 S
O893 Eu851 2.339 . S
O893 C914 1.254 1_545 S
O894 Eu851 2.563 . S
O894 C907 1.235 1_556 S
O895 Eu851 2.419 . S
O895 C915 1.249 . S
C896 O885 1.276 . S
C896 O888 1.235 . S
C897 C899 1.393 . S
C897 C901 1.395 1_545 S
C897 C904 1.492 . S
C898 C899 1.392 . S
C898 C900 1.386 1_545 S
C899 C897 1.393 . S
C899 C898 1.392 . S
C899 H916 0.930 . S
C900 C898 1.386 1_565 S
C900 C902 1.395 . S
C900 H917 0.930 . S
C901 C897 1.395 1_565 S
C901 C902 1.379 . S
C901 H918 0.930 . S
C902 C900 1.395 . S
C902 C901 1.379 . S
C902 H919 0.930 . S
C903 O886 1.264 . S
C903 O887 1.254 . S
C904 Eu840 2.848 . S
C904 O884 1.257 1_545 S
C904 O889 1.249 . S
C904 C897 1.492 . S
C905 H870 0.931 . S
C905 C883 1.420 . S
C905 C906 1.351 . S
C906 H868 0.930 . S
C906 C874 1.423 . S
C906 C905 1.351 . S
C907 O891 1.276 . S
C907 O894 1.235 1_554 S
C908 C909 1.393 . S
C908 C912 1.395 . S
C908 C915 1.492 . S
C909 C908 1.393 . S
C909 C910 1.392 . S
C909 H920 0.930 . S
C910 C909 1.392 . S
C910 C911 1.386 . S
C911 C910 1.386 . S
C911 C913 1.395 . S
C911 H921 0.930 . S
C912 C908 1.395 . S
C912 C913 1.379 . S
C912 H922 0.930 . S
C913 C911 1.395 . S
C913 C912 1.379 . S
C913 H923 0.930 . S
C914 O892 1.264 1_556 S
C914 O893 1.254 1_565 S
C915 Eu851 2.848 . S
C915 O890 1.257 . S
C915 O895 1.249 . S
C915 C908 1.492 . S
H916 C899 0.930 . S
H917 C900 0.930 . S
H918 C901 0.930 . S
H919 C902 0.930 . S
H920 C909 0.930 . S
H921 C911 0.930 . S
H922 C912 0.930 . S
H923 C913 0.930 . S
Eu924 N955 2.657 . S
Eu924 N962 2.609 . S
Eu924 O968 2.558 . S
Eu924 O969 2.612 . S
Eu924 O971 2.339 . S
Eu924 O972 2.563 . S
Eu924 O973 2.419 . S
Eu924 O975 2.380 . S
Eu924 O976 2.432 . S
Eu924 C988 2.848 . S
C925 C928 1.429 . S
C925 C929 1.411 . S
C925 N932 1.377 . S
C926 C928 1.420 . S
C926 C930 1.423 . S
C926 C938 1.392 . S
C927 C929 1.420 . S
C927 C930 1.351 . S
C927 H950 0.931 . S
C928 C925 1.429 . S
C928 C926 1.420 . S
C928 N936 1.362 . S
C929 C925 1.411 . S
C929 C927 1.420 . S
C929 C934 1.395 . S
C930 C926 1.423 . S
C930 C927 1.351 . S
C930 H942 0.930 . S
C931 C933 1.400 . S
C931 C934 1.386 . S
C931 H943 0.930 . S
N932 C925 1.377 . S
N932 C933 1.321 . S
N932 Eu935 2.609 . S
C933 C931 1.400 . S
C933 N932 1.321 . S
C933 H940 0.930 . S
C934 C929 1.395 . S
C934 C931 1.386 . S
C934 H953 0.930 . S
Eu935 N932 2.609 . S
Eu935 N936 2.657 . S
Eu935 O969 2.380 . S
Eu935 O970 2.432 . S
Eu935 O974 2.558 . S
Eu935 O975 2.612 . S
Eu935 O977 2.339 . S
Eu935 O978 2.563 . S
Eu935 O979 2.419 . S
Eu935 C999 2.848 . S
N936 C928 1.362 . S
N936 Eu935 2.657 . S
N936 C937 1.334 . S
C937 N936 1.334 . S
C937 C939 1.413 . S
C937 H944 0.929 . S
C938 C926 1.392 . S
C938 C939 1.367 . S
C938 H946 0.930 . S
C939 C937 1.413 . S
C939 C938 1.367 . S
C939 H941 0.930 . S
H940 C933 0.930 . S
H941 C939 0.930 . S
H942 C930 0.930 . S
H943 C931 0.930 . S
H944 C937 0.929 . S
H945 C959 0.930 . S
H946 C938 0.930 . S
H947 C965 0.930 . S
H948 C956 0.929 . S
H949 C963 0.930 . S
H950 C927 0.931 . S
H951 C957 0.930 . S
H952 C990 0.930 . S
H953 C934 0.930 . S
H954 C989 0.931 . S
N955 Eu924 2.657 . S
N955 C956 1.334 . S
N955 C960 1.362 . S
C956 H948 0.929 . S
C956 N955 1.334 . S
C956 C959 1.413 . S
C957 H951 0.930 . S
C957 C958 1.392 . S
C957 C959 1.367 . S
C958 C957 1.392 . S
C958 C960 1.420 . S
C958 C990 1.423 . S
C959 H945 0.930 . S
C959 C956 1.413 . S
C959 C957 1.367 . S
C960 N955 1.362 . S
C960 C958 1.420 . S
C960 C964 1.429 . S
H961 C966 0.930 . S
N962 Eu924 2.609 . S
N962 C964 1.377 . S
N962 C965 1.321 . S
C963 H949 0.930 . S
C963 C965 1.400 . S
C963 C966 1.386 . S
C964 C960 1.429 . S
C964 N962 1.377 . S
C964 C967 1.411 . S
C965 H947 0.930 . S
C965 N962 1.321 . S
C965 C963 1.400 . S
C966 H961 0.930 . S
C966 C963 1.386 . S
C966 C967 1.395 . S
C967 C964 1.411 . S
C967 C966 1.395 . S
C967 C989 1.420 . S
O968 Eu924 2.558 . S
O968 C988 1.257 . S
O969 Eu924 2.612 . S
O969 Eu935 2.380 . S
O969 C980 1.276 . S
O970 Eu935 2.432 . S
O970 C987 1.264 . S
O971 Eu924 2.339 . S
O971 C987 1.254 . S
O972 Eu924 2.563 . S
O972 C980 1.235 . S
O973 Eu924 2.419 . S
O973 C988 1.249 . S
O974 Eu935 2.558 . S
O974 C999 1.257 . S
O975 Eu924 2.380 . S
O975 Eu935 2.612 . S
O975 C991 1.276 . S
O976 Eu924 2.432 . S
O976 C998 1.264 . S
O977 Eu935 2.339 . S
O977 C998 1.254 . S
O978 Eu935 2.563 . S
O978 C991 1.235 . S
O979 Eu935 2.419 . S
O979 C999 1.249 . S
C980 O969 1.276 . S
C980 O972 1.235 . S
C981 C983 1.393 . S
C981 C985 1.395 . S
C981 C988 1.492 . S
C982 C983 1.392 . S
C982 C984 1.386 . S
C983 C981 1.393 . S
C983 C982 1.392 . S
C983 H1000 0.930 . S
C984 C982 1.386 . S
C984 C986 1.395 . S
C984 H1001 0.930 . S
C985 C981 1.395 . S
C985 C986 1.379 . S
C985 H1002 0.930 . S
C986 C984 1.395 . S
C986 C985 1.379 . S
C986 H1003 0.930 . S
C987 O970 1.264 . S
C987 O971 1.254 . S
C988 Eu924 2.848 . S
C988 O968 1.257 . S
C988 O973 1.249 . S
C988 C981 1.492 . S
C989 H954 0.931 . S
C989 C967 1.420 . S
C989 C990 1.351 . S
C990 H952 0.930 . S
C990 C958 1.423 . S
C990 C989 1.351 . S
C991 O975 1.276 . S
C991 O978 1.235 . S
C992 C993 1.393 . S
C992 C996 1.395 . S
C992 C999 1.492 . S
C993 C992 1.393 . S
C993 C994 1.392 . S
C993 H1004 0.930 . S
C994 C993 1.392 . S
C994 C995 1.386 . S
C995 C994 1.386 . S
C995 C997 1.395 . S
C995 H1005 0.930 . S
C996 C992 1.395 . S
C996 C997 1.379 . S
C996 H1006 0.930 . S
C997 C995 1.395 . S
C997 C996 1.379 . S
C997 H1007 0.930 . S
C998 O976 1.264 . S
C998 O977 1.254 . S
C999 Eu935 2.848 . S
C999 O974 1.257 . S
C999 O979 1.249 . S
C999 C992 1.492 . S
H1000 C983 0.930 . S
H1001 C984 0.930 . S
H1002 C985 0.930 . S
H1003 C986 0.930 . S
H1004 C993 0.930 . S
H1005 C995 0.930 . S
H1006 C996 0.930 . S
H1007 C997 0.930 . S
Eu1008 N1039 2.657 . S
Eu1008 N1046 2.609 . S
Eu1008 O1052 2.558 . S
Eu1008 O1053 2.612 1_554 S
Eu1008 O1055 2.339 . S
Eu1008 O1056 2.563 1_554 S
Eu1008 O1057 2.419 . S
Eu1008 O1059 2.380 . S
Eu1008 O1060 2.432 . S
Eu1008 C1072 2.848 . S
C1009 C1012 1.429 . S
C1009 C1013 1.411 . S
C1009 N1016 1.377 . S
C1010 C1012 1.420 . S
C1010 C1014 1.423 . S
C1010 C1022 1.392 . S
C1011 C1013 1.420 . S
C1011 C1014 1.351 . S
C1011 H1034 0.931 . S
C1012 C1009 1.429 . S
C1012 C1010 1.420 . S
C1012 N1020 1.362 . S
C1013 C1009 1.411 . S
C1013 C1011 1.420 . S
C1013 C1018 1.395 . S
C1014 C1010 1.423 . S
C1014 C1011 1.351 . S
C1014 H1026 0.930 . S
C1015 C1017 1.400 . S
C1015 C1018 1.386 . S
C1015 H1027 0.930 . S
N1016 C1009 1.377 . S
N1016 C1017 1.321 . S
N1016 Eu1019 2.609 1_556 S
C1017 C1015 1.400 . S
C1017 N1016 1.321 . S
C1017 H1024 0.930 . S
C1018 C1013 1.395 . S
C1018 C1015 1.386 . S
C1018 H1037 0.930 . S
Eu1019 N1016 2.609 1_554 S
Eu1019 N1020 2.657 1_554 S
Eu1019 O1053 2.380 1_554 S
Eu1019 O1054 2.432 . S
Eu1019 O1058 2.558 . S
Eu1019 O1059 2.612 . S
Eu1019 O1061 2.339 . S
Eu1019 O1062 2.563 . S
Eu1019 O1063 2.419 . S
Eu1019 C1083 2.848 . S
N1020 C1012 1.362 . S
N1020 Eu1019 2.657 1_556 S
N1020 C1021 1.334 . S
C1021 N1020 1.334 . S
C1021 C1023 1.413 . S
C1021 H1028 0.929 . S
C1022 C1010 1.392 . S
C1022 C1023 1.367 . S
C1022 H1030 0.930 . S
C1023 C1021 1.413 . S
C1023 C1022 1.367 . S
C1023 H1025 0.930 . S
H1024 C1017 0.930 . S
H1025 C1023 0.930 . S
H1026 C1014 0.930 . S
H1027 C1015 0.930 . S
H1028 C1021 0.929 . S
H1029 C1043 0.930 . S
H1030 C1022 0.930 . S
H1031 C1049 0.930 . S
H1032 C1040 0.929 . S
H1033 C1047 0.930 . S
H1034 C1011 0.931 . S
H1035 C1041 0.930 . S
H1036 C1074 0.930 . S
H1037 C1018 0.930 . S
H1038 C1073 0.931 . S
N1039 Eu1008 2.657 . S
N1039 C1040 1.334 . S
N1039 C1044 1.362 . S
C1040 H1032 0.929 . S
C1040 N1039 1.334 . S
C1040 C1043 1.413 . S
C1041 H1035 0.930 . S
C1041 C1042 1.392 . S
C1041 C1043 1.367 . S
C1042 C1041 1.392 . S
C1042 C1044 1.420 . S
C1042 C1074 1.423 . S
C1043 H1029 0.930 . S
C1043 C1040 1.413 . S
C1043 C1041 1.367 . S
C1044 N1039 1.362 . S
C1044 C1042 1.420 . S
C1044 C1048 1.429 . S
H1045 C1050 0.930 . S
N1046 Eu1008 2.609 . S
N1046 C1048 1.377 . S
N1046 C1049 1.321 . S
C1047 H1033 0.930 . S
C1047 C1049 1.400 . S
C1047 C1050 1.386 . S
C1048 C1044 1.429 . S
C1048 N1046 1.377 . S
C1048 C1051 1.411 . S
C1049 H1031 0.930 . S
C1049 N1046 1.321 . S
C1049 C1047 1.400 . S
C1050 H1045 0.930 . S
C1050 C1047 1.386 . S
C1050 C1051 1.395 . S
C1051 C1048 1.411 . S
C1051 C1050 1.395 . S
C1051 C1073 1.420 . S
O1052 Eu1008 2.558 . S
O1052 C1072 1.257 . S
O1053 Eu1008 2.612 1_556 S
O1053 Eu1019 2.380 1_556 S
O1053 C1064 1.276 . S
O1054 Eu1019 2.432 . S
O1054 C1071 1.264 . S
O1055 Eu1008 2.339 . S
O1055 C1071 1.254 . S
O1056 Eu1008 2.563 1_556 S
O1056 C1064 1.235 . S
O1057 Eu1008 2.419 . S
O1057 C1072 1.249 . S
O1058 Eu1019 2.558 . S
O1058 C1083 1.257 . S
O1059 Eu1008 2.380 . S
O1059 Eu1019 2.612 . S
O1059 C1075 1.276 . S
O1060 Eu1008 2.432 . S
O1060 C1082 1.264 . S
O1061 Eu1019 2.339 . S
O1061 C1082 1.254 . S
O1062 Eu1019 2.563 . S
O1062 C1075 1.235 . S
O1063 Eu1019 2.419 . S
O1063 C1083 1.249 . S
C1064 O1053 1.276 . S
C1064 O1056 1.235 . S
C1065 C1067 1.393 . S
C1065 C1069 1.395 . S
C1065 C1072 1.492 . S
C1066 C1067 1.392 1_556 S
C1066 C1068 1.386 1_556 S
C1067 C1065 1.393 . S
C1067 C1066 1.392 1_554 S
C1067 H1084 0.930 1_554 S
C1068 C1066 1.386 1_554 S
C1068 C1070 1.395 . S
C1068 H1085 0.924 1_554 S
C1069 C1065 1.395 . S
C1069 C1070 1.379 . S
C1069 H1086 0.930 . S
C1070 C1068 1.395 . S
C1070 C1069 1.379 . S
C1070 H1087 0.930 . S
C1071 O1054 1.264 . S
C1071 O1055 1.254 . S
C1072 Eu1008 2.848 . S
C1072 O1052 1.257 . S
C1072 O1057 1.249 . S
C1072 C1065 1.492 . S
C1073 H1038 0.931 . S
C1073 C1051 1.420 . S
C1073 C1074 1.351 . S
C1074 H1036 0.930 . S
C1074 C1042 1.423 . S
C1074 C1073 1.351 . S
C1075 O1059 1.276 . S
C1075 O1062 1.235 . S
C1076 C1077 1.393 . S
C1076 C1080 1.395 . S
C1076 C1083 1.492 . S
C1077 C1076 1.393 . S
C1077 C1078 1.392 . S
C1077 H1088 0.930 . S
C1078 C1077 1.392 . S
C1078 C1079 1.386 . S
C1079 C1078 1.386 . S
C1079 C1081 1.395 . S
C1079 H1089 0.930 . S
C1080 C1076 1.395 . S
C1080 C1081 1.379 . S
C1080 H1090 0.930 . S
C1081 C1079 1.395 . S
C1081 C1080 1.379 . S
C1081 H1091 0.930 . S
C1082 O1060 1.264 . S
C1082 O1061 1.254 . S
C1083 Eu1019 2.848 . S
C1083 O1058 1.257 . S
C1083 O1063 1.249 . S
C1083 C1076 1.492 . S
H1084 C1067 0.930 1_556 S
H1085 C1068 0.924 1_556 S
H1086 C1069 0.930 . S
H1087 C1070 0.930 . S
H1088 C1077 0.930 . S
H1089 C1079 0.930 . S
H1090 C1080 0.930 . S
H1091 C1081 0.930 . S
Eu1092 N1123 2.657 . S
Eu1092 N1130 2.609 . S
Eu1092 O1136 2.558 . S
Eu1092 O1137 2.612 . S
Eu1092 O1139 2.339 . S
Eu1092 O1140 2.563 . S
Eu1092 O1141 2.419 . S
Eu1092 O1143 2.380 . S
Eu1092 O1144 2.432 . S
Eu1092 C1156 2.848 . S
C1093 C1096 1.429 . S
C1093 C1097 1.411 . S
C1093 N1100 1.377 . S
C1094 C1096 1.420 . S
C1094 C1098 1.423 . S
C1094 C1106 1.392 . S
C1095 C1097 1.420 . S
C1095 C1098 1.351 . S
C1095 H1118 0.931 . S
C1096 C1093 1.429 . S
C1096 C1094 1.420 . S
C1096 N1104 1.362 . S
C1097 C1093 1.411 . S
C1097 C1095 1.420 . S
C1097 C1102 1.395 . S
C1098 C1094 1.423 . S
C1098 C1095 1.351 . S
C1098 H1110 0.930 . S
C1099 C1101 1.400 . S
C1099 C1102 1.386 . S
C1099 H1111 0.930 . S
N1100 C1093 1.377 . S
N1100 C1101 1.321 . S
N1100 Eu1103 2.609 . S
C1101 C1099 1.400 . S
C1101 N1100 1.321 . S
C1101 H1108 0.930 . S
C1102 C1097 1.395 . S
C1102 C1099 1.386 . S
C1102 H1121 0.930 . S
Eu1103 N1100 2.609 . S
Eu1103 N1104 2.657 . S
Eu1103 O1137 2.380 . S
Eu1103 O1138 2.432 . S
Eu1103 O1142 2.558 . S
Eu1103 O1143 2.612 . S
Eu1103 O1145 2.339 . S
Eu1103 O1146 2.563 . S
Eu1103 O1147 2.419 . S
Eu1103 C1167 2.848 . S
N1104 C1096 1.362 . S
N1104 Eu1103 2.657 . S
N1104 C1105 1.334 . S
C1105 N1104 1.334 . S
C1105 C1107 1.413 . S
C1105 H1112 0.929 . S
C1106 C1094 1.392 . S
C1106 C1107 1.367 . S
C1106 H1114 0.930 . S
C1107 C1105 1.413 . S
C1107 C1106 1.367 . S
C1107 H1109 0.930 . S
H1108 C1101 0.930 . S
H1109 C1107 0.930 . S
H1110 C1098 0.930 . S
H1111 C1099 0.930 . S
H1112 C1105 0.929 . S
H1113 C1127 0.930 . S
H1114 C1106 0.930 . S
H1115 C1133 0.930 . S
H1116 C1124 0.929 . S
H1117 C1131 0.930 . S
H1118 C1095 0.931 . S
H1119 C1125 0.930 . S
H1120 C1158 0.930 . S
H1121 C1102 0.930 . S
H1122 C1157 0.931 . S
N1123 Eu1092 2.657 . S
N1123 C1124 1.334 . S
N1123 C1128 1.362 . S
C1124 H1116 0.929 . S
C1124 N1123 1.334 . S
C1124 C1127 1.413 . S
C1125 H1119 0.930 . S
C1125 C1126 1.392 . S
C1125 C1127 1.367 . S
C1126 C1125 1.392 . S
C1126 C1128 1.420 . S
C1126 C1158 1.423 . S
C1127 H1113 0.930 . S
C1127 C1124 1.413 . S
C1127 C1125 1.367 . S
C1128 N1123 1.362 . S
C1128 C1126 1.420 . S
C1128 C1132 1.429 . S
H1129 C1134 0.930 . S
N1130 Eu1092 2.609 . S
N1130 C1132 1.377 . S
N1130 C1133 1.321 . S
C1131 H1117 0.930 . S
C1131 C1133 1.400 . S
C1131 C1134 1.386 . S
C1132 C1128 1.429 . S
C1132 N1130 1.377 . S
C1132 C1135 1.411 . S
C1133 H1115 0.930 . S
C1133 N1130 1.321 . S
C1133 C1131 1.400 . S
C1134 H1129 0.930 . S
C1134 C1131 1.386 . S
C1134 C1135 1.395 . S
C1135 C1132 1.411 . S
C1135 C1134 1.395 . S
C1135 C1157 1.420 . S
O1136 Eu1092 2.558 . S
O1136 C1156 1.257 . S
O1137 Eu1092 2.612 . S
O1137 Eu1103 2.380 . S
O1137 C1148 1.276 . S
O1138 Eu1103 2.432 . S
O1138 C1155 1.264 . S
O1139 Eu1092 2.339 . S
O1139 C1155 1.254 . S
O1140 Eu1092 2.563 . S
O1140 C1148 1.235 . S
O1141 Eu1092 2.419 . S
O1141 C1156 1.249 . S
O1142 Eu1103 2.558 . S
O1142 C1167 1.257 . S
O1143 Eu1092 2.380 . S
O1143 Eu1103 2.612 . S
O1143 C1159 1.276 . S
O1144 Eu1092 2.432 . S
O1144 C1166 1.264 . S
O1145 Eu1103 2.339 . S
O1145 C1166 1.254 . S
O1146 Eu1103 2.563 . S
O1146 C1159 1.235 . S
O1147 Eu1103 2.419 . S
O1147 C1167 1.249 . S
C1148 O1137 1.276 . S
C1148 O1140 1.235 . S
C1149 C1151 1.393 . S
C1149 C1153 1.395 . S
C1149 C1156 1.492 . S
C1150 C1151 1.392 . S
C1150 C1152 1.386 . S
C1151 C1149 1.393 . S
C1151 C1150 1.392 . S
C1151 H1168 0.930 . S
C1152 C1150 1.386 . S
C1152 C1154 1.395 . S
C1152 H1169 0.930 . S
C1153 C1149 1.395 . S
C1153 C1154 1.379 . S
C1153 H1170 0.930 . S
C1154 C1152 1.395 . S
C1154 C1153 1.379 . S
C1154 H1171 0.930 . S
C1155 O1138 1.264 . S
C1155 O1139 1.254 . S
C1156 Eu1092 2.848 . S
C1156 O1136 1.257 . S
C1156 O1141 1.249 . S
C1156 C1149 1.492 . S
C1157 H1122 0.931 . S
C1157 C1135 1.420 . S
C1157 C1158 1.351 . S
C1158 H1120 0.930 . S
C1158 C1126 1.423 . S
C1158 C1157 1.351 . S
C1159 O1143 1.276 . S
C1159 O1146 1.235 . S
C1160 C1161 1.393 . S
C1160 C1164 1.395 . S
C1160 C1167 1.492 . S
C1161 C1160 1.393 . S
C1161 C1162 1.392 . S
C1161 H1172 0.930 . S
C1162 C1161 1.392 . S
C1162 C1163 1.386 . S
C1163 C1162 1.386 . S
C1163 C1165 1.395 . S
C1163 H1173 0.930 . S
C1164 C1160 1.395 . S
C1164 C1165 1.379 . S
C1164 H1174 0.930 . S
C1165 C1163 1.395 . S
C1165 C1164 1.379 . S
C1165 H1175 0.930 . S
C1166 O1144 1.264 . S
C1166 O1145 1.254 . S
C1167 Eu1103 2.848 . S
C1167 O1142 1.257 . S
C1167 O1147 1.249 . S
C1167 C1160 1.492 . S
H1168 C1151 0.930 . S
H1169 C1152 0.930 . S
H1170 C1153 0.930 . S
H1171 C1154 0.930 . S
H1172 C1161 0.930 . S
H1173 C1163 0.930 . S
H1174 C1164 0.930 . S
H1175 C1165 0.930 . S
Eu1176 N1207 2.657 . S
Eu1176 N1214 2.609 . S
Eu1176 O1220 2.558 . S
Eu1176 O1221 2.612 . S
Eu1176 O1223 2.339 . S
Eu1176 O1224 2.563 . S
Eu1176 O1225 2.419 . S
Eu1176 O1227 2.380 . S
Eu1176 O1228 2.432 . S
Eu1176 C1240 2.848 . S
C1177 C1180 1.425 . S
C1177 C1181 1.411 1_455 S
C1177 N1184 1.377 . S
C1178 C1180 1.402 1_655 S
C1178 C1182 1.423 . S
C1178 C1190 1.392 . S
C1179 C1181 1.420 . S
C1179 C1182 1.351 . S
C1179 H1202 0.931 . S
C1180 C1177 1.425 . S
C1180 C1178 1.402 1_455 S
C1180 N1188 1.384 . S
C1181 C1177 1.411 1_655 S
C1181 C1179 1.420 . S
C1181 C1186 1.395 . S
C1182 C1178 1.423 . S
C1182 C1179 1.351 . S
C1182 H1194 0.930 . S
C1183 C1185 1.400 . S
C1183 C1186 1.386 1_455 S
C1183 H1195 0.930 . S
N1184 C1177 1.377 . S
N1184 C1185 1.321 . S
N1184 Eu1187 2.609 . S
C1185 C1183 1.400 . S
C1185 N1184 1.321 . S
C1185 H1192 0.930 . S
C1186 C1181 1.395 . S
C1186 C1183 1.386 1_655 S
C1186 H1205 0.930 . S
Eu1187 N1184 2.609 . S
Eu1187 N1188 2.657 . S
Eu1187 O1221 2.380 . S
Eu1187 O1222 2.432 . S
Eu1187 O1226 2.558 . S
Eu1187 O1227 2.612 . S
Eu1187 O1229 2.339 . S
Eu1187 O1230 2.563 . S
Eu1187 O1231 2.419 . S
Eu1187 C1251 2.848 . S
N1188 C1180 1.384 . S
N1188 Eu1187 2.657 . S
N1188 C1189 1.334 . S
C1189 N1188 1.334 . S
C1189 C1191 1.413 1_455 S
C1189 H1196 0.929 . S
C1190 C1178 1.392 . S
C1190 C1191 1.367 . S
C1190 H1198 0.930 . S
C1191 C1189 1.413 1_655 S
C1191 C1190 1.367 . S
C1191 H1193 0.930 . S
H1192 C1185 0.930 . S
H1193 C1191 0.930 . S
H1194 C1182 0.930 . S
H1195 C1183 0.930 . S
H1196 C1189 0.929 . S
H1197 C1211 0.930 . S
H1198 C1190 0.930 . S
H1199 C1217 0.930 . S
H1200 C1208 0.929 . S
H1201 C1215 0.930 . S
H1202 C1179 0.931 . S
H1203 C1209 0.930 . S
H1204 C1242 0.930 . S
H1205 C1186 0.930 . S
H1206 C1241 0.931 . S
N1207 Eu1176 2.657 . S
N1207 C1208 1.334 . S
N1207 C1212 1.362 . S
C1208 H1200 0.929 . S
C1208 N1207 1.334 . S
C1208 C1211 1.413 . S
C1209 H1203 0.930 . S
C1209 C1210 1.392 . S
C1209 C1211 1.367 . S
C1210 C1209 1.392 . S
C1210 C1212 1.420 . S
C1210 C1242 1.423 . S
C1211 H1197 0.930 . S
C1211 C1208 1.413 . S
C1211 C1209 1.367 . S
C1212 N1207 1.362 . S
C1212 C1210 1.420 . S
C1212 C1216 1.429 . S
H1213 C1218 0.930 . S
N1214 Eu1176 2.609 . S
N1214 C1216 1.377 . S
N1214 C1217 1.321 . S
C1215 H1201 0.930 . S
C1215 C1217 1.400 . S
C1215 C1218 1.386 . S
C1216 C1212 1.429 . S
C1216 N1214 1.377 . S
C1216 C1219 1.411 . S
C1217 H1199 0.930 . S
C1217 N1214 1.321 . S
C1217 C1215 1.400 . S
C1218 H1213 0.930 . S
C1218 C1215 1.386 . S
C1218 C1219 1.395 . S
C1219 C1216 1.411 . S
C1219 C1218 1.395 . S
C1219 C1241 1.420 . S
O1220 Eu1176 2.558 . S
O1220 C1240 1.257 . S
O1221 Eu1176 2.612 . S
O1221 Eu1187 2.380 . S
O1221 C1232 1.276 . S
O1222 Eu1187 2.432 . S
O1222 C1239 1.264 . S
O1223 Eu1176 2.339 . S
O1223 C1239 1.254 . S
O1224 Eu1176 2.563 . S
O1224 C1232 1.235 . S
O1225 Eu1176 2.419 . S
O1225 C1240 1.249 . S
O1226 Eu1187 2.558 . S
O1226 C1251 1.257 . S
O1227 Eu1176 2.380 . S
O1227 Eu1187 2.612 . S
O1227 C1243 1.276 . S
O1228 Eu1176 2.432 . S
O1228 C1250 1.264 . S
O1229 Eu1187 2.339 . S
O1229 C1250 1.254 . S
O1230 Eu1187 2.563 . S
O1230 C1243 1.235 . S
O1231 Eu1187 2.419 . S
O1231 C1251 1.249 . S
C1232 O1221 1.276 . S
C1232 O1224 1.235 . S
C1233 C1235 1.393 . S
C1233 C1237 1.395 . S
C1233 C1240 1.492 . S
C1234 C1235 1.392 . S
C1234 C1236 1.386 . S
C1235 C1233 1.393 . S
C1235 C1234 1.392 . S
C1235 H1252 0.930 . S
C1236 C1234 1.386 . S
C1236 C1238 1.395 . S
C1236 H1253 0.930 . S
C1237 C1233 1.395 . S
C1237 C1238 1.379 . S
C1237 H1254 0.930 . S
C1238 C1236 1.395 . S
C1238 C1237 1.379 . S
C1238 H1255 0.930 . S
C1239 O1222 1.264 . S
C1239 O1223 1.254 . S
C1240 Eu1176 2.848 . S
C1240 O1220 1.257 . S
C1240 O1225 1.249 . S
C1240 C1233 1.492 . S
C1241 H1206 0.931 . S
C1241 C1219 1.420 . S
C1241 C1242 1.351 . S
C1242 H1204 0.930 . S
C1242 C1210 1.423 . S
C1242 C1241 1.351 . S
C1243 O1227 1.276 . S
C1243 O1230 1.235 . S
C1244 C1245 1.393 . S
C1244 C1248 1.395 . S
C1244 C1251 1.492 . S
C1245 C1244 1.393 . S
C1245 C1246 1.392 . S
C1245 H1256 0.930 . S
C1246 C1245 1.392 . S
C1246 C1247 1.386 . S
C1247 C1246 1.386 . S
C1247 C1249 1.395 . S
C1247 H1257 0.930 . S
C1248 C1244 1.395 . S
C1248 C1249 1.379 . S
C1248 H1258 0.930 . S
C1249 C1247 1.395 . S
C1249 C1248 1.379 . S
C1249 H1259 0.930 . S
C1250 O1228 1.264 . S
C1250 O1229 1.254 . S
C1251 Eu1187 2.848 . S
C1251 O1226 1.257 . S
C1251 O1231 1.249 . S
C1251 C1244 1.492 . S
H1252 C1235 0.930 . S
H1253 C1236 0.930 . S
H1254 C1237 0.930 . S
H1255 C1238 0.930 . S
H1256 C1245 0.930 . S
H1257 C1247 0.930 . S
H1258 C1248 0.930 . S
H1259 C1249 0.930 . S
Eu1260 N1291 2.657 . S
Eu1260 N1298 2.609 . S
Eu1260 O1304 2.558 . S
Eu1260 O1305 2.612 . S
Eu1260 O1307 2.339 . S
Eu1260 O1308 2.563 . S
Eu1260 O1309 2.419 . S
Eu1260 O1311 2.380 . S
Eu1260 O1312 2.432 . S
Eu1260 C1324 2.848 . S
C1261 C1264 1.429 . S
C1261 C1265 1.411 . S
C1261 N1268 1.377 . S
C1262 C1264 1.420 . S
C1262 C1266 1.423 . S
C1262 C1274 1.392 . S
C1263 C1265 1.420 . S
C1263 C1266 1.351 . S
C1263 H1286 0.931 . S
C1264 C1261 1.429 . S
C1264 C1262 1.420 . S
C1264 N1272 1.362 . S
C1265 C1261 1.411 . S
C1265 C1263 1.420 . S
C1265 C1270 1.395 . S
C1266 C1262 1.423 . S
C1266 C1263 1.351 . S
C1266 H1278 0.930 . S
C1267 C1269 1.400 . S
C1267 C1270 1.386 . S
C1267 H1279 0.930 . S
N1268 C1261 1.377 . S
N1268 C1269 1.321 . S
N1268 Eu1271 2.609 . S
C1269 C1267 1.400 . S
C1269 N1268 1.321 . S
C1269 H1276 0.930 . S
C1270 C1265 1.395 . S
C1270 C1267 1.386 . S
C1270 H1289 0.930 . S
Eu1271 N1268 2.609 . S
Eu1271 N1272 2.657 . S
Eu1271 O1305 2.380 . S
Eu1271 O1306 2.432 . S
Eu1271 O1310 2.558 . S
Eu1271 O1311 2.612 . S
Eu1271 O1313 2.339 . S
Eu1271 O1314 2.563 . S
Eu1271 O1315 2.419 . S
Eu1271 C1335 2.848 . S
N1272 C1264 1.362 . S
N1272 Eu1271 2.657 . S
N1272 C1273 1.334 . S
C1273 N1272 1.334 . S
C1273 C1275 1.413 . S
C1273 H1280 0.929 . S
C1274 C1262 1.392 . S
C1274 C1275 1.367 . S
C1274 H1282 0.930 . S
C1275 C1273 1.413 . S
C1275 C1274 1.367 . S
C1275 H1277 0.930 . S
H1276 C1269 0.930 . S
H1277 C1275 0.930 . S
H1278 C1266 0.930 . S
H1279 C1267 0.930 . S
H1280 C1273 0.929 . S
H1281 C1295 0.930 . S
H1282 C1274 0.930 . S
H1283 C1301 0.930 . S
H1284 C1292 0.929 . S
H1285 C1299 0.930 . S
H1286 C1263 0.931 . S
H1287 C1293 0.930 . S
H1288 C1326 0.930 . S
H1289 C1270 0.930 . S
H1290 C1325 0.931 . S
N1291 Eu1260 2.657 . S
N1291 C1292 1.334 . S
N1291 C1296 1.362 . S
C1292 H1284 0.929 . S
C1292 N1291 1.334 . S
C1292 C1295 1.413 . S
C1293 H1287 0.930 . S
C1293 C1294 1.392 . S
C1293 C1295 1.367 . S
C1294 C1293 1.392 . S
C1294 C1296 1.420 . S
C1294 C1326 1.423 . S
C1295 H1281 0.930 . S
C1295 C1292 1.413 . S
C1295 C1293 1.367 . S
C1296 N1291 1.362 . S
C1296 C1294 1.420 . S
C1296 C1300 1.429 . S
H1297 C1302 0.930 . S
N1298 Eu1260 2.609 . S
N1298 C1300 1.377 . S
N1298 C1301 1.321 . S
C1299 H1285 0.930 . S
C1299 C1301 1.400 . S
C1299 C1302 1.386 . S
C1300 C1296 1.429 . S
C1300 N1298 1.377 . S
C1300 C1303 1.411 . S
C1301 H1283 0.930 . S
C1301 N1298 1.321 . S
C1301 C1299 1.400 . S
C1302 H1297 0.930 . S
C1302 C1299 1.386 . S
C1302 C1303 1.395 . S
C1303 C1300 1.411 . S
C1303 C1302 1.395 . S
C1303 C1325 1.420 . S
O1304 Eu1260 2.558 . S
O1304 C1324 1.257 . S
O1305 Eu1260 2.612 . S
O1305 Eu1271 2.380 . S
O1305 C1316 1.276 . S
O1306 Eu1271 2.432 . S
O1306 C1323 1.264 . S
O1307 Eu1260 2.339 . S
O1307 C1323 1.254 . S
O1308 Eu1260 2.563 . S
O1308 C1316 1.235 . S
O1309 Eu1260 2.419 . S
O1309 C1324 1.249 . S
O1310 Eu1271 2.558 . S
O1310 C1335 1.257 . S
O1311 Eu1260 2.380 . S
O1311 Eu1271 2.612 . S
O1311 C1327 1.276 . S
O1312 Eu1260 2.432 . S
O1312 C1334 1.264 . S
O1313 Eu1271 2.339 . S
O1313 C1334 1.254 . S
O1314 Eu1271 2.563 . S
O1314 C1327 1.235 . S
O1315 Eu1271 2.419 . S
O1315 C1335 1.249 . S
C1316 O1305 1.276 . S
C1316 O1308 1.235 . S
C1317 C1319 1.393 . S
C1317 C1321 1.395 . S
C1317 C1324 1.492 . S
C1318 C1319 1.392 . S
C1318 C1320 1.386 . S
C1319 C1317 1.393 . S
C1319 C1318 1.392 . S
C1319 H1336 0.930 . S
C1320 C1318 1.386 . S
C1320 C1322 1.395 . S
C1320 H1337 0.930 . S
C1321 C1317 1.395 . S
C1321 C1322 1.379 . S
C1321 H1338 0.930 . S
C1322 C1320 1.395 . S
C1322 C1321 1.379 . S
C1322 H1339 0.930 . S
C1323 O1306 1.264 . S
C1323 O1307 1.254 . S
C1324 Eu1260 2.848 . S
C1324 O1304 1.257 . S
C1324 O1309 1.249 . S
C1324 C1317 1.492 . S
C1325 H1290 0.931 . S
C1325 C1303 1.420 . S
C1325 C1326 1.351 . S
C1326 H1288 0.930 . S
C1326 C1294 1.423 . S
C1326 C1325 1.351 . S
C1327 O1311 1.276 . S
C1327 O1314 1.235 . S
C1328 C1329 1.393 . S
C1328 C1332 1.395 . S
C1328 C1335 1.492 . S
C1329 C1328 1.393 . S
C1329 C1330 1.392 . S
C1329 H1340 0.930 . S
C1330 C1329 1.392 . S
C1330 C1331 1.386 . S
C1331 C1330 1.386 . S
C1331 C1333 1.395 . S
C1331 H1341 0.930 . S
C1332 C1328 1.395 . S
C1332 C1333 1.379 . S
C1332 H1342 0.930 . S
C1333 C1331 1.395 . S
C1333 C1332 1.379 . S
C1333 H1343 0.930 . S
C1334 O1312 1.264 . S
C1334 O1313 1.254 . S
C1335 Eu1271 2.848 . S
C1335 O1310 1.257 . S
C1335 O1315 1.249 . S
C1335 C1328 1.492 . S
H1336 C1319 0.930 . S
H1337 C1320 0.930 . S
H1338 C1321 0.930 . S
H1339 C1322 0.930 . S
H1340 C1329 0.930 . S
H1341 C1331 0.930 . S
H1342 C1332 0.930 . S
H1343 C1333 0.930 . S
Eu1344 N1375 2.657 . S
Eu1344 N1382 2.609 . S
Eu1344 O1388 2.558 . S
Eu1344 O1389 2.612 . S
Eu1344 O1391 2.339 . S
Eu1344 O1392 2.563 . S
Eu1344 O1393 2.419 . S
Eu1344 O1395 2.380 . S
Eu1344 O1396 2.432 . S
Eu1344 C1408 2.848 . S
C1345 C1348 1.429 . S
C1345 C1349 1.411 . S
C1345 N1352 1.377 . S
C1346 C1348 1.420 . S
C1346 C1350 1.423 . S
C1346 C1358 1.392 . S
C1347 C1349 1.420 . S
C1347 C1350 1.351 . S
C1347 H1370 0.931 . S
C1348 C1345 1.429 . S
C1348 C1346 1.420 . S
C1348 N1356 1.362 . S
C1349 C1345 1.411 . S
C1349 C1347 1.420 . S
C1349 C1354 1.395 . S
C1350 C1346 1.423 . S
C1350 C1347 1.351 . S
C1350 H1362 0.930 . S
C1351 C1353 1.400 . S
C1351 C1354 1.386 . S
C1351 H1363 0.930 . S
N1352 C1345 1.377 . S
N1352 C1353 1.321 . S
N1352 Eu1355 2.609 . S
C1353 C1351 1.400 . S
C1353 N1352 1.321 . S
C1353 H1360 0.930 . S
C1354 C1349 1.395 . S
C1354 C1351 1.386 . S
C1354 H1373 0.930 . S
Eu1355 N1352 2.609 . S
Eu1355 N1356 2.657 . S
Eu1355 O1389 2.380 . S
Eu1355 O1390 2.432 . S
Eu1355 O1394 2.558 . S
Eu1355 O1395 2.612 . S
Eu1355 O1397 2.339 . S
Eu1355 O1398 2.563 . S
Eu1355 O1399 2.419 . S
Eu1355 C1419 2.848 . S
N1356 C1348 1.362 . S
N1356 Eu1355 2.657 . S
N1356 C1357 1.334 . S
C1357 N1356 1.334 . S
C1357 C1359 1.413 . S
C1357 H1364 0.929 . S
C1358 C1346 1.392 . S
C1358 C1359 1.367 . S
C1358 H1366 0.930 . S
C1359 C1357 1.413 . S
C1359 C1358 1.367 . S
C1359 H1361 0.930 . S
H1360 C1353 0.930 . S
H1361 C1359 0.930 . S
H1362 C1350 0.930 . S
H1363 C1351 0.930 . S
H1364 C1357 0.929 . S
H1365 C1379 0.930 . S
H1366 C1358 0.930 . S
H1367 C1385 0.930 . S
H1368 C1376 0.929 . S
H1369 C1383 0.930 . S
H1370 C1347 0.931 . S
H1371 C1377 0.930 . S
H1372 C1410 0.930 . S
H1373 C1354 0.930 . S
H1374 C1409 0.931 . S
N1375 Eu1344 2.657 . S
N1375 C1376 1.334 . S
N1375 C1380 1.362 . S
C1376 H1368 0.929 . S
C1376 N1375 1.334 . S
C1376 C1379 1.413 . S
C1377 H1371 0.930 . S
C1377 C1378 1.392 . S
C1377 C1379 1.367 . S
C1378 C1377 1.392 . S
C1378 C1380 1.420 . S
C1378 C1410 1.423 . S
C1379 H1365 0.930 . S
C1379 C1376 1.413 . S
C1379 C1377 1.367 . S
C1380 N1375 1.362 . S
C1380 C1378 1.420 . S
C1380 C1384 1.429 . S
H1381 C1386 0.930 . S
N1382 Eu1344 2.609 . S
N1382 C1384 1.377 . S
N1382 C1385 1.321 . S
C1383 H1369 0.930 . S
C1383 C1385 1.400 . S
C1383 C1386 1.386 . S
C1384 C1380 1.429 . S
C1384 N1382 1.377 . S
C1384 C1387 1.411 . S
C1385 H1367 0.930 . S
C1385 N1382 1.321 . S
C1385 C1383 1.400 . S
C1386 H1381 0.930 . S
C1386 C1383 1.386 . S
C1386 C1387 1.395 . S
C1387 C1384 1.411 . S
C1387 C1386 1.395 . S
C1387 C1409 1.420 . S
O1388 Eu1344 2.558 . S
O1388 C1408 1.257 . S
O1389 Eu1344 2.612 . S
O1389 Eu1355 2.380 . S
O1389 C1400 1.276 . S
O1390 Eu1355 2.432 . S
O1390 C1407 1.264 . S
O1391 Eu1344 2.339 . S
O1391 C1407 1.254 . S
O1392 Eu1344 2.563 . S
O1392 C1400 1.235 . S
O1393 Eu1344 2.419 . S
O1393 C1408 1.249 . S
O1394 Eu1355 2.558 . S
O1394 C1419 1.257 . S
O1395 Eu1344 2.380 . S
O1395 Eu1355 2.612 . S
O1395 C1411 1.276 . S
O1396 Eu1344 2.432 . S
O1396 C1418 1.264 . S
O1397 Eu1355 2.339 . S
O1397 C1418 1.254 . S
O1398 Eu1355 2.563 . S
O1398 C1411 1.235 . S
O1399 Eu1355 2.419 . S
O1399 C1419 1.249 . S
C1400 O1389 1.276 . S
C1400 O1392 1.235 . S
C1401 C1403 1.393 . S
C1401 C1405 1.395 . S
C1401 C1408 1.492 . S
C1402 C1403 1.392 . S
C1402 C1404 1.386 . S
C1403 C1401 1.393 . S
C1403 C1402 1.392 . S
C1403 H1420 0.930 . S
C1404 C1402 1.386 . S
C1404 C1406 1.395 . S
C1404 H1421 0.930 . S
C1405 C1401 1.395 . S
C1405 C1406 1.379 . S
C1405 H1422 0.930 . S
C1406 C1404 1.395 . S
C1406 C1405 1.379 . S
C1406 H1423 0.930 . S
C1407 O1390 1.264 . S
C1407 O1391 1.254 . S
C1408 Eu1344 2.848 . S
C1408 O1388 1.257 . S
C1408 O1393 1.249 . S
C1408 C1401 1.492 . S
C1409 H1374 0.931 . S
C1409 C1387 1.420 . S
C1409 C1410 1.351 . S
C1410 H1372 0.930 . S
C1410 C1378 1.423 . S
C1410 C1409 1.351 . S
C1411 O1395 1.276 . S
C1411 O1398 1.235 . S
C1412 C1413 1.393 . S
C1412 C1416 1.395 . S
C1412 C1419 1.492 . S
C1413 C1412 1.393 . S
C1413 C1414 1.392 . S
C1413 H1424 0.930 . S
C1414 C1413 1.392 . S
C1414 C1415 1.386 . S
C1415 C1414 1.386 . S
C1415 C1417 1.395 . S
C1415 H1425 0.930 . S
C1416 C1412 1.395 . S
C1416 C1417 1.379 . S
C1416 H1426 0.930 . S
C1417 C1415 1.395 . S
C1417 C1416 1.379 . S
C1417 H1427 0.930 . S
C1418 O1396 1.264 . S
C1418 O1397 1.254 . S
C1419 Eu1355 2.848 . S
C1419 O1394 1.257 . S
C1419 O1399 1.249 . S
C1419 C1412 1.492 . S
H1420 C1403 0.930 . S
H1421 C1404 0.930 . S
H1422 C1405 0.930 . S
H1423 C1406 0.930 . S
H1424 C1413 0.930 . S
H1425 C1415 0.930 . S
H1426 C1416 0.930 . S
H1427 C1417 0.930 . S
Eu1428 N1459 2.657 . S
Eu1428 N1466 2.609 . S
Eu1428 O1472 2.558 . S
Eu1428 O1473 2.612 . S
Eu1428 O1475 2.339 . S
Eu1428 O1476 2.563 . S
Eu1428 O1477 2.419 . S
Eu1428 O1479 2.380 . S
Eu1428 O1480 2.432 . S
Eu1428 C1492 2.848 . S
C1429 C1432 1.429 . S
C1429 C1433 1.411 . S
C1429 N1436 1.377 . S
C1430 C1432 1.420 . S
C1430 C1434 1.423 . S
C1430 C1442 1.392 . S
C1431 C1433 1.420 . S
C1431 C1434 1.351 . S
C1431 H1454 0.931 . S
C1432 C1429 1.429 . S
C1432 C1430 1.420 . S
C1432 N1440 1.362 . S
C1433 C1429 1.411 . S
C1433 C1431 1.420 . S
C1433 C1438 1.395 . S
C1434 C1430 1.423 . S
C1434 C1431 1.351 . S
C1434 H1446 0.930 . S
C1435 C1437 1.400 . S
C1435 C1438 1.386 . S
C1435 H1447 0.930 . S
N1436 C1429 1.377 . S
N1436 C1437 1.321 . S
N1436 Eu1439 2.609 . S
C1437 C1435 1.400 . S
C1437 N1436 1.321 . S
C1437 H1444 0.930 . S
C1438 C1433 1.395 . S
C1438 C1435 1.386 . S
C1438 H1457 0.930 . S
Eu1439 N1436 2.609 . S
Eu1439 N1440 2.657 . S
Eu1439 O1473 2.380 . S
Eu1439 O1474 2.432 . S
Eu1439 O1478 2.558 . S
Eu1439 O1479 2.612 . S
Eu1439 O1481 2.339 . S
Eu1439 O1482 2.563 . S
Eu1439 O1483 2.419 . S
Eu1439 C1503 2.848 . S
N1440 C1432 1.362 . S
N1440 Eu1439 2.657 . S
N1440 C1441 1.334 . S
C1441 N1440 1.334 . S
C1441 C1443 1.413 . S
C1441 H1448 0.929 . S
C1442 C1430 1.392 . S
C1442 C1443 1.367 . S
C1442 H1450 0.930 . S
C1443 C1441 1.413 . S
C1443 C1442 1.367 . S
C1443 H1445 0.930 . S
H1444 C1437 0.930 . S
H1445 C1443 0.930 . S
H1446 C1434 0.930 . S
H1447 C1435 0.930 . S
H1448 C1441 0.929 . S
H1449 C1463 0.930 . S
H1450 C1442 0.930 . S
H1451 C1469 0.930 . S
H1452 C1460 0.929 . S
H1453 C1467 0.930 . S
H1454 C1431 0.931 . S
H1455 C1461 0.930 . S
H1456 C1494 0.930 . S
H1457 C1438 0.930 . S
H1458 C1493 0.931 . S
N1459 Eu1428 2.657 . S
N1459 C1460 1.334 . S
N1459 C1464 1.362 . S
C1460 H1452 0.929 . S
C1460 N1459 1.334 . S
C1460 C1463 1.413 . S
C1461 H1455 0.930 . S
C1461 C1462 1.392 . S
C1461 C1463 1.367 . S
C1462 C1461 1.392 . S
C1462 C1464 1.420 . S
C1462 C1494 1.423 . S
C1463 H1449 0.930 . S
C1463 C1460 1.413 . S
C1463 C1461 1.367 . S
C1464 N1459 1.362 . S
C1464 C1462 1.420 . S
C1464 C1468 1.429 . S
H1465 C1470 0.930 . S
N1466 Eu1428 2.609 . S
N1466 C1468 1.377 . S
N1466 C1469 1.321 . S
C1467 H1453 0.930 . S
C1467 C1469 1.400 . S
C1467 C1470 1.386 . S
C1468 C1464 1.429 . S
C1468 N1466 1.377 . S
C1468 C1471 1.411 . S
C1469 H1451 0.930 . S
C1469 N1466 1.321 . S
C1469 C1467 1.400 . S
C1470 H1465 0.930 . S
C1470 C1467 1.386 . S
C1470 C1471 1.395 . S
C1471 C1468 1.411 . S
C1471 C1470 1.395 . S
C1471 C1493 1.420 . S
O1472 Eu1428 2.558 . S
O1472 C1492 1.257 . S
O1473 Eu1428 2.612 . S
O1473 Eu1439 2.380 . S
O1473 C1484 1.276 . S
O1474 Eu1439 2.432 . S
O1474 C1491 1.264 . S
O1475 Eu1428 2.339 . S
O1475 C1491 1.254 . S
O1476 Eu1428 2.563 . S
O1476 C1484 1.235 . S
O1477 Eu1428 2.419 . S
O1477 C1492 1.249 . S
O1478 Eu1439 2.558 . S
O1478 C1503 1.257 . S
O1479 Eu1428 2.380 . S
O1479 Eu1439 2.612 . S
O1479 C1495 1.276 . S
O1480 Eu1428 2.432 . S
O1480 C1502 1.264 . S
O1481 Eu1439 2.339 . S
O1481 C1502 1.254 . S
O1482 Eu1439 2.563 . S
O1482 C1495 1.235 . S
O1483 Eu1439 2.419 . S
O1483 C1503 1.249 . S
C1484 O1473 1.276 . S
C1484 O1476 1.235 . S
C1485 C1487 1.393 . S
C1485 C1489 1.395 . S
C1485 C1492 1.492 . S
C1486 C1487 1.392 . S
C1486 C1488 1.386 . S
C1487 C1485 1.393 . S
C1487 C1486 1.392 . S
C1487 H1504 0.930 . S
C1488 C1486 1.386 . S
C1488 C1490 1.395 . S
C1488 H1505 0.930 . S
C1489 C1485 1.395 . S
C1489 C1490 1.379 . S
C1489 H1506 0.930 . S
C1490 C1488 1.395 . S
C1490 C1489 1.379 . S
C1490 H1507 0.930 . S
C1491 O1474 1.264 . S
C1491 O1475 1.254 . S
C1492 Eu1428 2.848 . S
C1492 O1472 1.257 . S
C1492 O1477 1.249 . S
C1492 C1485 1.492 . S
C1493 H1458 0.931 . S
C1493 C1471 1.420 . S
C1493 C1494 1.351 . S
C1494 H1456 0.930 . S
C1494 C1462 1.423 . S
C1494 C1493 1.351 . S
C1495 O1479 1.276 . S
C1495 O1482 1.235 . S
C1496 C1497 1.393 . S
C1496 C1500 1.395 . S
C1496 C1503 1.492 . S
C1497 C1496 1.393 . S
C1497 C1498 1.392 . S
C1497 H1508 0.930 . S
C1498 C1497 1.392 . S
C1498 C1499 1.386 . S
C1499 C1498 1.386 . S
C1499 C1501 1.395 . S
C1499 H1509 0.930 . S
C1500 C1496 1.395 . S
C1500 C1501 1.379 . S
C1500 H1510 0.930 . S
C1501 C1499 1.395 . S
C1501 C1500 1.379 . S
C1501 H1511 0.930 . S
C1502 O1480 1.264 . S
C1502 O1481 1.254 . S
C1503 Eu1439 2.848 . S
C1503 O1478 1.257 . S
C1503 O1483 1.249 . S
C1503 C1496 1.492 . S
H1504 C1487 0.930 . S
H1505 C1488 0.930 . S
H1506 C1489 0.930 . S
H1507 C1490 0.930 . S
H1508 C1497 0.930 . S
H1509 C1499 0.930 . S
H1510 C1500 0.930 . S
H1511 C1501 0.930 . S
Eu1512 N1543 2.657 . S
Eu1512 N1550 2.609 . S
Eu1512 O1556 2.558 . S
Eu1512 O1557 2.612 . S
Eu1512 O1559 2.339 . S
Eu1512 O1560 2.563 . S
Eu1512 O1561 2.419 . S
Eu1512 O1563 2.380 . S
Eu1512 O1564 2.432 . S
Eu1512 C1576 2.848 . S
C1513 C1516 1.429 . S
C1513 C1517 1.411 . S
C1513 N1520 1.377 . S
C1514 C1516 1.420 . S
C1514 C1518 1.423 . S
C1514 C1526 1.392 . S
C1515 C1517 1.420 . S
C1515 C1518 1.351 . S
C1515 H1538 0.931 . S
C1516 C1513 1.429 . S
C1516 C1514 1.420 . S
C1516 N1524 1.362 . S
C1517 C1513 1.411 . S
C1517 C1515 1.420 . S
C1517 C1522 1.395 . S
C1518 C1514 1.423 . S
C1518 C1515 1.351 . S
C1518 H1530 0.930 . S
C1519 C1521 1.400 . S
C1519 C1522 1.386 . S
C1519 H1531 0.930 . S
N1520 C1513 1.377 . S
N1520 C1521 1.321 . S
N1520 Eu1523 2.609 . S
C1521 C1519 1.400 . S
C1521 N1520 1.321 . S
C1521 H1528 0.930 . S
C1522 C1517 1.395 . S
C1522 C1519 1.386 . S
C1522 H1541 0.930 . S
Eu1523 N1520 2.609 . S
Eu1523 N1524 2.657 . S
Eu1523 O1557 2.380 . S
Eu1523 O1558 2.432 . S
Eu1523 O1562 2.558 . S
Eu1523 O1563 2.612 . S
Eu1523 O1565 2.339 . S
Eu1523 O1566 2.563 . S
Eu1523 O1567 2.419 . S
Eu1523 C1587 2.848 . S
N1524 C1516 1.362 . S
N1524 Eu1523 2.657 . S
N1524 C1525 1.334 . S
C1525 N1524 1.334 . S
C1525 C1527 1.413 . S
C1525 H1532 0.929 . S
C1526 C1514 1.392 . S
C1526 C1527 1.367 . S
C1526 H1534 0.930 . S
C1527 C1525 1.413 . S
C1527 C1526 1.367 . S
C1527 H1529 0.930 . S
H1528 C1521 0.930 . S
H1529 C1527 0.930 . S
H1530 C1518 0.930 . S
H1531 C1519 0.930 . S
H1532 C1525 0.929 . S
H1533 C1547 0.930 . S
H1534 C1526 0.930 . S
H1535 C1553 0.930 . S
H1536 C1544 0.929 . S
H1537 C1551 0.930 . S
H1538 C1515 0.931 . S
H1539 C1545 0.930 . S
H1540 C1578 0.930 . S
H1541 C1522 0.930 . S
H1542 C1577 0.931 . S
N1543 Eu1512 2.657 . S
N1543 C1544 1.334 . S
N1543 C1548 1.362 . S
C1544 H1536 0.929 . S
C1544 N1543 1.334 . S
C1544 C1547 1.413 . S
C1545 H1539 0.930 . S
C1545 C1546 1.392 . S
C1545 C1547 1.367 . S
C1546 C1545 1.392 . S
C1546 C1548 1.420 . S
C1546 C1578 1.423 . S
C1547 H1533 0.930 . S
C1547 C1544 1.413 . S
C1547 C1545 1.367 . S
C1548 N1543 1.362 . S
C1548 C1546 1.420 . S
C1548 C1552 1.429 . S
H1549 C1554 0.930 . S
N1550 Eu1512 2.609 . S
N1550 C1552 1.377 . S
N1550 C1553 1.321 . S
C1551 H1537 0.930 . S
C1551 C1553 1.400 . S
C1551 C1554 1.386 . S
C1552 C1548 1.429 . S
C1552 N1550 1.377 . S
C1552 C1555 1.411 . S
C1553 H1535 0.930 . S
C1553 N1550 1.321 . S
C1553 C1551 1.400 . S
C1554 H1549 0.930 . S
C1554 C1551 1.386 . S
C1554 C1555 1.395 . S
C1555 C1552 1.411 . S
C1555 C1554 1.395 . S
C1555 C1577 1.420 . S
O1556 Eu1512 2.558 . S
O1556 C1576 1.257 . S
O1557 Eu1512 2.612 . S
O1557 Eu1523 2.380 . S
O1557 C1568 1.276 . S
O1558 Eu1523 2.432 . S
O1558 C1575 1.264 . S
O1559 Eu1512 2.339 . S
O1559 C1575 1.254 . S
O1560 Eu1512 2.563 . S
O1560 C1568 1.235 . S
O1561 Eu1512 2.419 . S
O1561 C1576 1.249 . S
O1562 Eu1523 2.558 . S
O1562 C1587 1.257 . S
O1563 Eu1512 2.380 . S
O1563 Eu1523 2.612 . S
O1563 C1579 1.276 . S
O1564 Eu1512 2.432 . S
O1564 C1586 1.264 . S
O1565 Eu1523 2.339 . S
O1565 C1586 1.254 . S
O1566 Eu1523 2.563 . S
O1566 C1579 1.235 . S
O1567 Eu1523 2.419 . S
O1567 C1587 1.249 . S
C1568 O1557 1.276 . S
C1568 O1560 1.235 . S
C1569 C1571 1.393 . S
C1569 C1573 1.395 . S
C1569 C1576 1.492 . S
C1570 C1571 1.392 . S
C1570 C1572 1.386 . S
C1571 C1569 1.393 . S
C1571 C1570 1.392 . S
C1571 H1588 0.930 . S
C1572 C1570 1.386 . S
C1572 C1574 1.395 . S
C1572 H1589 0.930 . S
C1573 C1569 1.395 . S
C1573 C1574 1.379 . S
C1573 H1590 0.930 . S
C1574 C1572 1.395 . S
C1574 C1573 1.379 . S
C1574 H1591 0.930 . S
C1575 O1558 1.264 . S
C1575 O1559 1.254 . S
C1576 Eu1512 2.848 . S
C1576 O1556 1.257 . S
C1576 O1561 1.249 . S
C1576 C1569 1.492 . S
C1577 H1542 0.931 . S
C1577 C1555 1.420 . S
C1577 C1578 1.351 . S
C1578 H1540 0.930 . S
C1578 C1546 1.423 . S
C1578 C1577 1.351 . S
C1579 O1563 1.276 . S
C1579 O1566 1.235 . S
C1580 C1581 1.393 . S
C1580 C1584 1.395 . S
C1580 C1587 1.492 . S
C1581 C1580 1.393 . S
C1581 C1582 1.392 . S
C1581 H1592 0.930 . S
C1582 C1581 1.392 . S
C1582 C1583 1.386 . S
C1583 C1582 1.386 . S
C1583 C1585 1.395 . S
C1583 H1593 0.930 . S
C1584 C1580 1.395 . S
C1584 C1585 1.379 . S
C1584 H1594 0.930 . S
C1585 C1583 1.395 . S
C1585 C1584 1.379 . S
C1585 H1595 0.930 . S
C1586 O1564 1.264 . S
C1586 O1565 1.254 . S
C1587 Eu1523 2.848 . S
C1587 O1562 1.257 . S
C1587 O1567 1.249 . S
C1587 C1580 1.492 . S
H1588 C1571 0.930 . S
H1589 C1572 0.930 . S
H1590 C1573 0.930 . S
H1591 C1574 0.930 . S
H1592 C1581 0.930 . S
H1593 C1583 0.930 . S
H1594 C1584 0.930 . S
H1595 C1585 0.930 . S
Eu1596 N1627 2.657 . S
Eu1596 N1634 2.609 1_554 S
Eu1596 O1640 2.558 1_554 S
Eu1596 O1641 2.612 . S
Eu1596 O1643 2.339 . S
Eu1596 O1644 2.563 . S
Eu1596 O1645 2.419 . S
Eu1596 O1647 2.380 . S
Eu1596 O1648 2.432 1_554 S
Eu1596 C1660 2.848 1_554 S
C1597 C1600 1.429 . S
C1597 C1601 1.411 . S
C1597 N1604 1.377 1_655 S
C1598 C1600 1.420 . S
C1598 C1602 1.423 . S
C1598 C1610 1.392 1_554 S
C1599 C1601 1.420 . S
C1599 C1602 1.351 . S
C1599 H1622 0.931 . S
C1600 C1597 1.429 . S
C1600 C1598 1.420 . S
C1600 N1608 1.364 . S
C1601 C1597 1.411 . S
C1601 C1599 1.420 . S
C1601 C1606 1.395 . S
C1602 C1598 1.423 . S
C1602 C1599 1.351 . S
C1602 H1614 0.930 . S
C1603 C1605 1.400 . S
C1603 C1606 1.386 1_455 S
C1603 H1615 0.930 . S
N1604 C1597 1.377 1_455 S
N1604 C1605 1.321 . S
N1604 Eu1607 2.609 . S
C1605 C1603 1.400 . S
C1605 N1604 1.321 . S
C1605 H1612 0.930 . S
C1606 C1601 1.395 . S
C1606 C1603 1.386 1_655 S
C1606 H1625 0.930 . S
Eu1607 N1604 2.609 . S
Eu1607 N1608 2.654 1_455 S
Eu1607 O1641 2.380 . S
Eu1607 O1642 2.432 . S
Eu1607 O1646 2.558 . S
Eu1607 O1647 2.612 . S
Eu1607 O1649 2.339 1_554 S
Eu1607 O1650 2.563 . S
Eu1607 O1651 2.419 1_455 S
Eu1607 C1671 2.848 1_455 S
N1608 C1600 1.364 . S
N1608 Eu1607 2.654 1_655 S
N1608 C1609 1.335 1_554 S
C1609 N1608 1.335 1_556 S
C1609 C1611 1.413 . S
C1609 H1616 0.915 1_655 S
C1610 C1598 1.392 1_556 S
C1610 C1611 1.367 . S
C1610 H1618 0.930 . S
C1611 C1609 1.413 . S
C1611 C1610 1.367 . S
C1611 H1613 0.930 . S
H1612 C1605 0.930 . S
H1613 C1611 0.930 . S
H1614 C1602 0.930 . S
H1615 C1603 0.930 . S
H1616 C1609 0.915 1_455 S
H1617 C1631 0.930 . S
H1618 C1610 0.930 . S
H1619 C1637 0.930 . S
H1620 C1628 0.929 . S
H1621 C1635 0.930 . S
H1622 C1599 0.931 . S
H1623 C1629 0.930 . S
H1624 C1662 0.930 . S
H1625 C1606 0.930 . S
H1626 C1661 0.931 . S
N1627 Eu1596 2.657 . S
N1627 C1628 1.334 . S
N1627 C1632 1.362 . S
C1628 H1620 0.929 . S
C1628 N1627 1.334 . S
C1628 C1631 1.413 . S
C1629 H1623 0.930 . S
C1629 C1630 1.392 . S
C1629 C1631 1.367 . S
C1630 C1629 1.392 . S
C1630 C1632 1.420 . S
C1630 C1662 1.423 . S
C1631 H1617 0.930 . S
C1631 C1628 1.413 . S
C1631 C1629 1.367 . S
C1632 N1627 1.362 . S
C1632 C1630 1.420 . S
C1632 C1636 1.429 1_554 S
H1633 C1638 0.930 . S
N1634 Eu1596 2.609 1_556 S
N1634 C1636 1.377 . S
N1634 C1637 1.321 . S
C1635 H1621 0.930 . S
C1635 C1637 1.400 . S
C1635 C1638 1.386 . S
C1636 C1632 1.429 1_556 S
C1636 N1634 1.377 . S
C1636 C1639 1.411 . S
C1637 H1619 0.930 . S
C1637 N1634 1.321 . S
C1637 C1635 1.400 . S
C1638 H1633 0.930 . S
C1638 C1635 1.386 . S
C1638 C1639 1.395 . S
C1639 C1636 1.411 . S
C1639 C1638 1.395 . S
C1639 C1661 1.420 . S
O1640 Eu1596 2.558 1_556 S
O1640 C1660 1.257 . S
O1641 Eu1596 2.612 . S
O1641 Eu1607 2.380 . S
O1641 C1652 1.276 . S
O1642 Eu1607 2.432 . S
O1642 C1659 1.264 . S
O1643 Eu1596 2.339 . S
O1643 C1659 1.254 . S
O1644 Eu1596 2.563 . S
O1644 C1652 1.235 . S
O1645 Eu1596 2.419 . S
O1645 C1660 1.249 1_554 S
O1646 Eu1607 2.558 . S
O1646 C1671 1.257 1_455 S
O1647 Eu1596 2.380 . S
O1647 Eu1607 2.612 . S
O1647 C1663 1.276 . S
O1648 Eu1596 2.432 1_556 S
O1648 C1670 1.264 . S
O1649 Eu1607 2.339 1_556 S
O1649 C1670 1.254 . S
O1650 Eu1607 2.563 . S
O1650 C1663 1.235 . S
O1651 Eu1607 2.419 1_655 S
O1651 C1671 1.249 . S
C1652 O1641 1.276 . S
C1652 O1644 1.235 . S
C1653 C1655 1.393 1_556 S
C1653 C1657 1.395 . S
C1653 C1660 1.492 . S
C1654 C1655 1.392 1_556 S
C1654 C1656 1.386 . S
C1655 C1653 1.393 1_554 S
C1655 C1654 1.392 1_554 S
C1655 H1672 0.930 . S
C1656 C1654 1.386 . S
C1656 C1658 1.395 . S
C1656 H1673 0.930 . S
C1657 C1653 1.395 . S
C1657 C1658 1.379 . S
C1657 H1674 0.930 . S
C1658 C1656 1.395 . S
C1658 C1657 1.379 . S
C1658 H1675 0.930 . S
C1659 O1642 1.264 . S
C1659 O1643 1.254 . S
C1660 Eu1596 2.848 1_556 S
C1660 O1640 1.257 . S
C1660 O1645 1.249 1_556 S
C1660 C1653 1.492 . S
C1661 H1626 0.931 . S
C1661 C1639 1.420 . S
C1661 C1662 1.351 1_556 S
C1662 H1624 0.930 . S
C1662 C1630 1.423 . S
C1662 C1661 1.351 1_554 S
C1663 O1647 1.276 . S
C1663 O1650 1.235 . S
C1664 C1665 1.393 . S
C1664 C1668 1.395 . S
C1664 C1671 1.492 . S
C1665 C1664 1.393 . S
C1665 C1666 1.392 . S
C1665 H1676 0.930 . S
C1666 C1665 1.392 . S
C1666 C1667 1.386 . S
C1667 C1666 1.386 . S
C1667 C1669 1.395 . S
C1667 H1677 0.930 . S
C1668 C1664 1.395 . S
C1668 C1669 1.379 . S
C1668 H1678 0.930 . S
C1669 C1667 1.395 . S
C1669 C1668 1.379 . S
C1669 H1679 0.930 . S
C1670 O1648 1.264 . S
C1670 O1649 1.254 . S
C1671 Eu1607 2.848 1_655 S
C1671 O1646 1.257 1_655 S
C1671 O1651 1.249 . S
C1671 C1664 1.492 . S
H1672 C1655 0.930 . S
H1673 C1656 0.930 . S
H1674 C1657 0.930 . S
H1675 C1658 0.930 . S
H1676 C1665 0.930 . S
H1677 C1667 0.930 . S
H1678 C1668 0.930 . S
H1679 C1669 0.930 . S
H1680 C1692 0.930 . S
H1681 C1694 0.930 . S
H1682 C1695 0.930 . S
H1683 C1699 0.959 1_655 S
H1684 C1699 0.950 . S
H1685 C1699 0.961 1_655 S
H1686 C1700 0.960 . S
H1687 C1700 0.961 . S
H1688 C1700 0.959 . S
H1689 C1703 0.929 . S
H1690 C1704 0.931 . S
H1691 C1706 0.930 . S
C1692 H1680 0.930 . S
C1692 C1693 1.399 . S
C1692 C1697 1.399 . S
C1693 C1692 1.399 . S
C1693 C1694 1.376 . S
C1694 H1681 0.930 . S
C1694 C1693 1.376 . S
C1694 C1695 1.388 1_556 S
C1695 H1682 0.930 . S
C1695 C1694 1.388 1_554 S
C1695 C1696 1.390 1_554 S
C1696 C1695 1.390 1_556 S
C1696 C1697 1.394 . S
C1696 C1702 1.465 1_556 S
C1697 C1692 1.399 . S
C1697 C1696 1.394 . S
C1697 C1698 1.516 . S
C1698 C1697 1.516 . S
C1698 C1699 1.502 . S
C1698 C1700 1.561 . S
C1698 C1701 1.526 . S
C1699 H1683 0.959 1_455 S
C1699 H1684 0.950 . S
C1699 H1685 0.961 1_455 S
C1699 C1698 1.502 . S
C1700 H1686 0.960 . S
C1700 H1687 0.961 . S
C1700 H1688 0.959 . S
C1700 C1698 1.561 . S
C1701 C1698 1.526 . S
C1701 C1702 1.396 1_556 S
C1701 C1706 1.390 . S
C1702 C1696 1.465 1_554 S
C1702 C1701 1.396 1_554 S
C1702 C1703 1.399 . S
C1703 H1689 0.929 . S
C1703 C1702 1.399 . S
C1703 C1704 1.385 . S
C1704 H1690 0.931 . S
C1704 C1703 1.385 . S
C1704 C1705 1.389 . S
C1705 C1704 1.389 . S
C1705 C1706 1.387 1_554 S
C1706 H1691 0.930 . S
C1706 C1701 1.390 . S
C1706 C1705 1.387 1_556 S
H1707 C1719 0.930 . S
H1708 C1721 0.930 . S
H1709 C1722 0.930 . S
H1710 C1726 0.959 . S
H1711 C1726 0.959 . S
H1712 C1726 0.961 . S
H1713 C1727 0.960 . S
H1714 C1727 0.961 . S
H1715 C1727 0.959 . S
H1716 C1730 0.929 . S
H1717 C1731 0.931 . S
H1718 C1733 0.930 . S
C1719 H1707 0.930 . S
C1719 C1720 1.399 . S
C1719 C1724 1.399 . S
C1720 C1719 1.399 . S
C1720 C1721 1.376 . S
C1721 H1708 0.930 . S
C1721 C1720 1.376 . S
C1721 C1722 1.388 . S
C1722 H1709 0.930 . S
C1722 C1721 1.388 . S
C1722 C1723 1.390 . S
C1723 C1722 1.390 . S
C1723 C1724 1.394 . S
C1723 C1729 1.465 . S
C1724 C1719 1.399 . S
C1724 C1723 1.394 . S
C1724 C1725 1.516 . S
C1725 C1724 1.516 . S
C1725 C1726 1.502 . S
C1725 C1727 1.561 . S
C1725 C1728 1.526 . S
C1726 H1710 0.959 . S
C1726 H1711 0.959 . S
C1726 H1712 0.961 . S
C1726 C1725 1.502 . S
C1727 H1713 0.960 . S
C1727 H1714 0.961 . S
C1727 H1715 0.959 . S
C1727 C1725 1.561 . S
C1728 C1725 1.526 . S
C1728 C1729 1.396 . S
C1728 C1733 1.390 . S
C1729 C1723 1.465 . S
C1729 C1728 1.396 . S
C1729 C1730 1.399 . S
C1730 H1716 0.929 . S
C1730 C1729 1.399 . S
C1730 C1731 1.385 . S
C1731 H1717 0.931 . S
C1731 C1730 1.385 . S
C1731 C1732 1.389 . S
C1732 C1731 1.389 . S
C1732 C1733 1.387 . S
C1733 H1718 0.930 . S
C1733 C1728 1.390 . S
C1733 C1732 1.387 . S
H1734 C1746 0.930 . S
H1735 C1748 0.930 . S
H1736 C1749 0.930 . S
H1737 C1753 0.959 . S
H1738 C1753 0.959 . S
H1739 C1753 0.961 . S
H1740 C1754 0.960 . S
H1741 C1754 0.961 . S
H1742 C1754 0.959 . S
H1743 C1757 0.929 . S
H1744 C1758 0.931 . S
H1745 C1760 0.930 . S
C1746 H1734 0.930 . S
C1746 C1747 1.399 . S
C1746 C1751 1.399 . S
C1747 C1746 1.399 . S
C1747 C1748 1.376 . S
C1748 H1735 0.930 . S
C1748 C1747 1.376 . S
C1748 C1749 1.388 . S
C1749 H1736 0.930 . S
C1749 C1748 1.388 . S
C1749 C1750 1.390 . S
C1750 C1749 1.390 . S
C1750 C1751 1.394 . S
C1750 C1756 1.465 . S
C1751 C1746 1.399 . S
C1751 C1750 1.394 . S
C1751 C1752 1.516 . S
C1752 C1751 1.516 . S
C1752 C1753 1.502 . S
C1752 C1754 1.561 . S
C1752 C1755 1.526 . S
C1753 H1737 0.959 . S
C1753 H1738 0.959 . S
C1753 H1739 0.961 . S
C1753 C1752 1.502 . S
C1754 H1740 0.960 . S
C1754 H1741 0.961 . S
C1754 H1742 0.959 . S
C1754 C1752 1.561 . S
C1755 C1752 1.526 . S
C1755 C1756 1.396 . S
C1755 C1760 1.390 . S
C1756 C1750 1.465 . S
C1756 C1755 1.396 . S
C1756 C1757 1.399 . S
C1757 H1743 0.929 . S
C1757 C1756 1.399 . S
C1757 C1758 1.385 . S
C1758 H1744 0.931 . S
C1758 C1757 1.385 . S
C1758 C1759 1.389 . S
C1759 C1758 1.389 . S
C1759 C1760 1.387 . S
C1760 H1745 0.930 . S
C1760 C1755 1.390 . S
C1760 C1759 1.387 . S
H1761 C1773 0.930 . S
H1762 C1775 0.930 . S
H1763 C1776 0.930 . S
H1764 C1780 0.959 . S
H1765 C1780 0.959 . S
H1766 C1780 0.961 . S
H1767 C1781 0.960 . S
H1768 C1781 0.961 . S
H1769 C1781 0.959 . S
H1770 C1784 0.929 . S
H1771 C1785 0.931 . S
H1772 C1787 0.930 . S
C1773 H1761 0.930 . S
C1773 C1774 1.399 . S
C1773 C1778 1.399 . S
C1774 C1773 1.399 . S
C1774 C1775 1.376 . S
C1775 H1762 0.930 . S
C1775 C1774 1.376 . S
C1775 C1776 1.388 . S
C1776 H1763 0.930 . S
C1776 C1775 1.388 . S
C1776 C1777 1.390 . S
C1777 C1776 1.390 . S
C1777 C1778 1.394 . S
C1777 C1783 1.465 . S
C1778 C1773 1.399 . S
C1778 C1777 1.394 . S
C1778 C1779 1.516 . S
C1779 C1778 1.516 . S
C1779 C1780 1.502 . S
C1779 C1781 1.561 . S
C1779 C1782 1.526 . S
C1780 H1764 0.959 . S
C1780 H1765 0.959 . S
C1780 H1766 0.961 . S
C1780 C1779 1.502 . S
C1781 H1767 0.960 . S
C1781 H1768 0.961 . S
C1781 H1769 0.959 . S
C1781 C1779 1.561 . S
C1782 C1779 1.526 . S
C1782 C1783 1.396 . S
C1782 C1787 1.390 . S
C1783 C1777 1.465 . S
C1783 C1782 1.396 . S
C1783 C1784 1.399 . S
C1784 H1770 0.929 . S
C1784 C1783 1.399 . S
C1784 C1785 1.385 . S
C1785 H1771 0.931 . S
C1785 C1784 1.385 . S
C1785 C1786 1.389 . S
C1786 C1785 1.389 . S
C1786 C1787 1.387 . S
C1787 H1772 0.930 . S
C1787 C1782 1.390 . S
C1787 C1786 1.387 . S
H1788 C1800 0.930 . S
H1789 C1802 0.930 . S
H1790 C1803 0.924 1_655 S
H1791 C1807 0.959 . S
H1792 C1807 0.959 . S
H1793 C1807 0.961 . S
H1794 C1808 0.960 . S
H1795 C1808 0.961 . S
H1796 C1808 0.959 . S
H1797 C1811 0.929 . S
H1798 C1812 0.931 . S
H1799 C1814 0.930 . S
C1800 H1788 0.930 . S
C1800 C1801 1.399 . S
C1800 C1805 1.399 . S
C1801 C1800 1.399 . S
C1801 C1802 1.376 1_455 S
C1802 H1789 0.930 . S
C1802 C1801 1.376 1_655 S
C1802 C1803 1.389 1_655 S
C1803 H1790 0.924 1_455 S
C1803 C1802 1.389 1_455 S
C1803 C1804 1.395 . S
C1804 C1803 1.395 . S
C1804 C1805 1.394 . S
C1804 C1810 1.465 . S
C1805 C1800 1.399 . S
C1805 C1804 1.394 . S
C1805 C1806 1.516 . S
C1806 C1805 1.516 . S
C1806 C1807 1.502 . S
C1806 C1808 1.561 . S
C1806 C1809 1.526 . S
C1807 H1791 0.959 . S
C1807 H1792 0.959 . S
C1807 H1793 0.961 . S
C1807 C1806 1.502 . S
C1808 H1794 0.960 . S
C1808 H1795 0.961 . S
C1808 H1796 0.959 . S
C1808 C1806 1.561 . S
C1809 C1806 1.526 . S
C1809 C1810 1.396 . S
C1809 C1814 1.390 . S
C1810 C1804 1.465 . S
C1810 C1809 1.396 . S
C1810 C1811 1.399 . S
C1811 H1797 0.929 . S
C1811 C1810 1.399 . S
C1811 C1812 1.385 . S
C1812 H1798 0.931 . S
C1812 C1811 1.385 . S
C1812 C1813 1.389 . S
C1813 C1812 1.389 . S
C1813 C1814 1.387 . S
C1814 H1799 0.930 . S
C1814 C1809 1.390 . S
C1814 C1813 1.387 . S
H1815 C1827 0.930 . S
H1816 C1829 0.930 . S
H1817 C1830 0.930 . S
H1818 C1834 0.959 . S
H1819 C1834 0.959 . S
H1820 C1834 0.961 . S
H1821 C1835 0.960 . S
H1822 C1835 0.961 . S
H1823 C1835 0.959 . S
H1824 C1838 0.929 . S
H1825 C1839 0.931 . S
H1826 C1841 0.930 . S
C1827 H1815 0.930 . S
C1827 C1828 1.399 . S
C1827 C1832 1.399 . S
C1828 C1827 1.399 . S
C1828 C1829 1.376 . S
C1829 H1816 0.930 . S
C1829 C1828 1.376 . S
C1829 C1830 1.388 . S
C1830 H1817 0.930 . S
C1830 C1829 1.388 . S
C1830 C1831 1.390 . S
C1831 C1830 1.390 . S
C1831 C1832 1.394 . S
C1831 C1837 1.465 . S
C1832 C1827 1.399 . S
C1832 C1831 1.394 . S
C1832 C1833 1.516 . S
C1833 C1832 1.516 . S
C1833 C1834 1.502 . S
C1833 C1835 1.561 . S
C1833 C1836 1.526 . S
C1834 H1818 0.959 . S
C1834 H1819 0.959 . S
C1834 H1820 0.961 . S
C1834 C1833 1.502 . S
C1835 H1821 0.960 . S
C1835 H1822 0.961 . S
C1835 H1823 0.959 . S
C1835 C1833 1.561 . S
C1836 C1833 1.526 . S
C1836 C1837 1.396 . S
C1836 C1841 1.390 . S
C1837 C1831 1.465 . S
C1837 C1836 1.396 . S
C1837 C1838 1.399 . S
C1838 H1824 0.929 . S
C1838 C1837 1.399 . S
C1838 C1839 1.385 . S
C1839 H1825 0.931 . S
C1839 C1838 1.385 . S
C1839 C1840 1.389 . S
C1840 C1839 1.389 . S
C1840 C1841 1.387 . S
C1841 H1826 0.930 . S
C1841 C1836 1.390 . S
C1841 C1840 1.387 . S
H1842 C1854 0.930 . S
H1843 C1856 0.930 . S
H1844 C1857 0.930 . S
H1845 C1861 0.959 . S
H1846 C1861 0.959 . S
H1847 C1861 0.961 . S
H1848 C1862 0.960 . S
H1849 C1862 0.961 . S
H1850 C1862 0.959 . S
H1851 C1865 0.929 . S
H1852 C1866 0.931 . S
H1853 C1868 0.930 . S
C1854 H1842 0.930 . S
C1854 C1855 1.399 . S
C1854 C1859 1.399 . S
C1855 C1854 1.399 . S
C1855 C1856 1.376 . S
C1856 H1843 0.930 . S
C1856 C1855 1.376 . S
C1856 C1857 1.388 . S
C1857 H1844 0.930 . S
C1857 C1856 1.388 . S
C1857 C1858 1.390 . S
C1858 C1857 1.390 . S
C1858 C1859 1.394 . S
C1858 C1864 1.465 . S
C1859 C1854 1.399 . S
C1859 C1858 1.394 . S
C1859 C1860 1.516 . S
C1860 C1859 1.516 . S
C1860 C1861 1.502 . S
C1860 C1862 1.561 . S
C1860 C1863 1.526 . S
C1861 H1845 0.959 . S
C1861 H1846 0.959 . S
C1861 H1847 0.961 . S
C1861 C1860 1.502 . S
C1862 H1848 0.960 . S
C1862 H1849 0.961 . S
C1862 H1850 0.959 . S
C1862 C1860 1.561 . S
C1863 C1860 1.526 . S
C1863 C1864 1.396 . S
C1863 C1868 1.390 . S
C1864 C1858 1.465 . S
C1864 C1863 1.396 . S
C1864 C1865 1.399 . S
C1865 H1851 0.929 . S
C1865 C1864 1.399 . S
C1865 C1866 1.385 . S
C1866 H1852 0.931 . S
C1866 C1865 1.385 . S
C1866 C1867 1.389 . S
C1867 C1866 1.389 . S
C1867 C1868 1.387 . S
C1868 H1853 0.930 . S
C1868 C1863 1.390 . S
C1868 C1867 1.387 . S
H1869 C1881 0.930 . S
H1870 C1883 0.930 . S
H1871 C1884 0.930 . S
H1872 C1888 0.959 . S
H1873 C1888 0.959 . S
H1874 C1888 0.961 . S
H1875 C1889 0.960 . S
H1876 C1889 0.961 . S
H1877 C1889 0.959 . S
H1878 C1892 0.929 . S
H1879 C1893 0.931 . S
H1880 C1895 0.930 . S
C1881 H1869 0.930 . S
C1881 C1882 1.399 . S
C1881 C1886 1.399 . S
C1882 C1881 1.399 . S
C1882 C1883 1.376 . S
C1883 H1870 0.930 . S
C1883 C1882 1.376 . S
C1883 C1884 1.388 . S
C1884 H1871 0.930 . S
C1884 C1883 1.388 . S
C1884 C1885 1.390 . S
C1885 C1884 1.390 . S
C1885 C1886 1.394 . S
C1885 C1891 1.465 . S
C1886 C1881 1.399 . S
C1886 C1885 1.394 . S
C1886 C1887 1.516 . S
C1887 C1886 1.516 . S
C1887 C1888 1.502 . S
C1887 C1889 1.561 . S
C1887 C1890 1.526 . S
C1888 H1872 0.959 . S
C1888 H1873 0.959 . S
C1888 H1874 0.961 . S
C1888 C1887 1.502 . S
C1889 H1875 0.960 . S
C1889 H1876 0.961 . S
C1889 H1877 0.959 . S
C1889 C1887 1.561 . S
C1890 C1887 1.526 . S
C1890 C1891 1.396 . S
C1890 C1895 1.390 . S
C1891 C1885 1.465 . S
C1891 C1890 1.396 . S
C1891 C1892 1.399 . S
C1892 H1878 0.929 . S
C1892 C1891 1.399 . S
C1892 C1893 1.385 . S
C1893 H1879 0.931 . S
C1893 C1892 1.385 . S
C1893 C1894 1.389 . S
C1894 C1893 1.389 . S
C1894 C1895 1.387 . S
C1895 H1880 0.930 . S
C1895 C1890 1.390 . S
C1895 C1894 1.387 . S
H1896 C1908 0.930 . S
H1897 C1910 0.930 . S
H1898 C1911 0.930 . S
H1899 C1915 0.959 . S
H1900 C1915 0.959 . S
H1901 C1915 0.961 . S
H1902 C1916 0.960 . S
H1903 C1916 0.961 . S
H1904 C1916 0.959 1_455 S
H1905 C1919 0.929 . S
H1906 C1920 0.931 . S
H1907 C1922 0.930 . S
C1908 H1896 0.930 . S
C1908 C1909 1.399 . S
C1908 C1913 1.399 . S
C1909 C1908 1.399 . S
C1909 C1910 1.376 . S
C1910 H1897 0.930 . S
C1910 C1909 1.376 . S
C1910 C1911 1.388 1_655 S
C1911 H1898 0.930 . S
C1911 C1910 1.388 1_455 S
C1911 C1912 1.390 . S
C1912 C1911 1.390 . S
C1912 C1913 1.394 1_455 S
C1912 C1918 1.465 . S
C1913 C1908 1.399 . S
C1913 C1912 1.394 1_655 S
C1913 C1914 1.516 . S
C1914 C1913 1.516 . S
C1914 C1915 1.502 . S
C1914 C1916 1.561 . S
C1914 C1917 1.526 1_655 S
C1915 H1899 0.959 . S
C1915 H1900 0.959 . S
C1915 H1901 0.961 . S
C1915 C1914 1.502 . S
C1916 H1902 0.960 . S
C1916 H1903 0.961 . S
C1916 H1904 0.959 1_655 S
C1916 C1914 1.561 . S
C1917 C1914 1.526 1_455 S
C1917 C1918 1.396 . S
C1917 C1922 1.390 . S
C1918 C1912 1.465 . S
C1918 C1917 1.396 . S
C1918 C1919 1.399 . S
C1919 H1905 0.929 . S
C1919 C1918 1.399 . S
C1919 C1920 1.385 . S
C1920 H1906 0.931 . S
C1920 C1919 1.385 . S
C1920 C1921 1.389 . S
C1921 C1920 1.389 . S
C1921 C1922 1.387 . S
C1922 H1907 0.930 . S
C1922 C1917 1.390 . S
C1922 C1921 1.387 . S
H1923 C1935 0.930 . S
H1924 C1937 0.930 . S
H1925 C1938 0.930 . S
H1926 C1942 0.959 . S
H1927 C1942 0.959 . S
H1928 C1942 0.961 . S
H1929 C1943 0.960 . S
H1930 C1943 0.961 . S
H1931 C1943 0.959 . S
H1932 C1946 0.929 . S
H1933 C1947 0.931 . S
H1934 C1949 0.930 . S
C1935 H1923 0.930 . S
C1935 C1936 1.399 . S
C1935 C1940 1.399 . S
C1936 C1935 1.399 . S
C1936 C1937 1.376 . S
C1937 H1924 0.930 . S
C1937 C1936 1.376 . S
C1937 C1938 1.388 . S
C1938 H1925 0.930 . S
C1938 C1937 1.388 . S
C1938 C1939 1.390 . S
C1939 C1938 1.390 . S
C1939 C1940 1.394 . S
C1939 C1945 1.465 . S
C1940 C1935 1.399 . S
C1940 C1939 1.394 . S
C1940 C1941 1.516 . S
C1941 C1940 1.516 . S
C1941 C1942 1.502 . S
C1941 C1943 1.561 . S
C1941 C1944 1.526 . S
C1942 H1926 0.959 . S
C1942 H1927 0.959 . S
C1942 H1928 0.961 . S
C1942 C1941 1.502 . S
C1943 H1929 0.960 . S
C1943 H1930 0.961 . S
C1943 H1931 0.959 . S
C1943 C1941 1.561 . S
C1944 C1941 1.526 . S
C1944 C1945 1.396 . S
C1944 C1949 1.390 . S
C1945 C1939 1.465 . S
C1945 C1944 1.396 . S
C1945 C1946 1.399 . S
C1946 H1932 0.929 . S
C1946 C1945 1.399 . S
C1946 C1947 1.385 . S
C1947 H1933 0.931 . S
C1947 C1946 1.385 . S
C1947 C1948 1.389 . S
C1948 C1947 1.389 . S
C1948 C1949 1.387 . S
C1949 H1934 0.930 . S
C1949 C1944 1.390 . S
C1949 C1948 1.387 . S
H1950 C1962 0.930 . S
H1951 C1964 0.930 . S
H1952 C1965 0.930 . S
H1953 C1969 0.959 1_545 S
H1954 C1969 0.959 . S
H1955 C1969 0.961 . S
H1956 C1970 0.960 . S
H1957 C1970 0.961 . S
H1958 C1970 0.959 . S
H1959 C1973 0.929 . S
H1960 C1974 0.931 . S
H1961 C1976 0.930 1_565 S
C1962 H1950 0.930 . S
C1962 C1963 1.399 . S
C1962 C1967 1.399 . S
C1963 C1962 1.399 . S
C1963 C1964 1.376 . S
C1964 H1951 0.930 . S
C1964 C1963 1.376 . S
C1964 C1965 1.388 . S
C1965 H1952 0.930 . S
C1965 C1964 1.388 . S
C1965 C1966 1.390 . S
C1966 C1965 1.390 . S
C1966 C1967 1.394 . S
C1966 C1972 1.465 . S
C1967 C1962 1.399 . S
C1967 C1966 1.394 . S
C1967 C1968 1.516 . S
C1968 C1967 1.516 . S
C1968 C1969 1.502 1_545 S
C1968 C1970 1.561 1_545 S
C1968 C1971 1.526 . S
C1969 H1953 0.959 1_565 S
C1969 H1954 0.959 . S
C1969 H1955 0.961 . S
C1969 C1968 1.502 1_565 S
C1970 H1956 0.960 . S
C1970 H1957 0.961 . S
C1970 H1958 0.959 . S
C1970 C1968 1.561 1_565 S
C1971 C1968 1.526 . S
C1971 C1972 1.396 . S
C1971 C1976 1.390 . S
C1972 C1966 1.465 . S
C1972 C1971 1.396 . S
C1972 C1973 1.399 . S
C1973 H1959 0.929 . S
C1973 C1972 1.399 . S
C1973 C1974 1.385 . S
C1974 H1960 0.931 . S
C1974 C1973 1.385 . S
C1974 C1975 1.389 . S
C1975 C1974 1.389 . S
C1975 C1976 1.387 . S
C1976 H1961 0.930 1_545 S
C1976 C1971 1.390 . S
C1976 C1975 1.387 . S
H1977 C1989 0.930 . S
H1978 C1991 0.930 . S
H1979 C1992 0.930 . S
H1980 C1996 0.959 . S
H1981 C1996 0.959 . S
H1982 C1996 0.961 . S
H1983 C1997 0.960 . S
H1984 C1997 0.961 . S
H1985 C1997 0.959 . S
H1986 C2000 0.929 . S
H1987 C2001 0.931 . S
H1988 C2003 0.930 . S
C1989 H1977 0.930 . S
C1989 C1990 1.399 . S
C1989 C1994 1.399 . S
C1990 C1989 1.399 . S
C1990 C1991 1.376 . S
C1991 H1978 0.930 . S
C1991 C1990 1.376 . S
C1991 C1992 1.388 . S
C1992 H1979 0.930 . S
C1992 C1991 1.388 . S
C1992 C1993 1.390 . S
C1993 C1992 1.390 . S
C1993 C1994 1.394 . S
C1993 C1999 1.465 . S
C1994 C1989 1.399 . S
C1994 C1993 1.394 . S
C1994 C1995 1.516 . S
C1995 C1994 1.516 . S
C1995 C1996 1.502 . S
C1995 C1997 1.561 . S
C1995 C1998 1.526 . S
C1996 H1980 0.959 . S
C1996 H1981 0.959 . S
C1996 H1982 0.961 . S
C1996 C1995 1.502 . S
C1997 H1983 0.960 . S
C1997 H1984 0.961 . S
C1997 H1985 0.959 . S
C1997 C1995 1.561 . S
C1998 C1995 1.526 . S
C1998 C1999 1.396 . S
C1998 C2003 1.390 . S
C1999 C1993 1.465 . S
C1999 C1998 1.396 . S
C1999 C2000 1.399 . S
C2000 H1986 0.929 . S
C2000 C1999 1.399 . S
C2000 C2001 1.385 . S
C2001 H1987 0.931 . S
C2001 C2000 1.385 . S
C2001 C2002 1.389 . S
C2002 C2001 1.389 . S
C2002 C2003 1.387 . S
C2003 H1988 0.930 . S
C2003 C1998 1.390 . S
C2003 C2002 1.387 . S
H2004 C2016 0.930 . S
H2005 C2018 0.930 . S
H2006 C2019 0.930 . S
H2007 C2023 0.959 . S
H2008 C2023 0.959 1_565 S
H2009 C2023 0.961 . S
H2010 C2024 0.960 . S
H2011 C2024 0.961 . S
H2012 C2024 0.959 . S
H2013 C2027 0.929 . S
H2014 C2028 0.931 . S
H2015 C2030 0.930 . S
C2016 H2004 0.930 . S
C2016 C2017 1.399 . S
C2016 C2021 1.399 . S
C2017 C2016 1.399 . S
C2017 C2018 1.376 . S
C2018 H2005 0.930 . S
C2018 C2017 1.376 . S
C2018 C2019 1.388 1_655 S
C2019 H2006 0.930 . S
C2019 C2018 1.388 1_455 S
C2019 C2020 1.390 . S
C2020 C2019 1.390 . S
C2020 C2021 1.394 1_455 S
C2020 C2026 1.465 . S
C2021 C2016 1.399 . S
C2021 C2020 1.394 1_655 S
C2021 C2022 1.516 1_655 S
C2022 C2021 1.516 1_455 S
C2022 C2023 1.502 1_455 S
C2022 C2024 1.561 . S
C2022 C2025 1.526 . S
C2023 H2007 0.959 . S
C2023 H2008 0.959 1_545 S
C2023 H2009 0.961 . S
C2023 C2022 1.502 1_655 S
C2024 H2010 0.960 . S
C2024 H2011 0.961 . S
C2024 H2012 0.959 . S
C2024 C2022 1.561 . S
C2025 C2022 1.526 . S
C2025 C2026 1.396 . S
C2025 C2030 1.390 . S
C2026 C2020 1.465 . S
C2026 C2025 1.396 . S
C2026 C2027 1.399 . S
C2027 H2013 0.929 . S
C2027 C2026 1.399 . S
C2027 C2028 1.385 . S
C2028 H2014 0.931 . S
C2028 C2027 1.385 . S
C2028 C2029 1.389 . S
C2029 C2028 1.389 . S
C2029 C2030 1.387 . S
C2030 H2015 0.930 . S
C2030 C2025 1.390 . S
C2030 C2029 1.387 . S
H2031 C2043 0.930 . S
H2032 C2045 0.930 . S
H2033 C2046 0.930 . S
H2034 C2050 0.959 . S
H2035 C2050 0.959 . S
H2036 C2050 0.961 . S
H2037 C2051 0.960 . S
H2038 C2051 0.961 . S
H2039 C2051 0.959 . S
H2040 C2054 0.929 . S
H2041 C2055 0.931 . S
H2042 C2057 0.930 . S
C2043 H2031 0.930 . S
C2043 C2044 1.399 . S
C2043 C2048 1.399 . S
C2044 C2043 1.399 . S
C2044 C2045 1.376 . S
C2045 H2032 0.930 . S
C2045 C2044 1.376 . S
C2045 C2046 1.388 . S
C2046 H2033 0.930 . S
C2046 C2045 1.388 . S
C2046 C2047 1.390 . S
C2047 C2046 1.390 . S
C2047 C2048 1.394 . S
C2047 C2053 1.465 . S
C2048 C2043 1.399 . S
C2048 C2047 1.394 . S
C2048 C2049 1.516 . S
C2049 C2048 1.516 . S
C2049 C2050 1.502 . S
C2049 C2051 1.561 . S
C2049 C2052 1.526 . S
C2050 H2034 0.959 . S
C2050 H2035 0.959 . S
C2050 H2036 0.961 . S
C2050 C2049 1.502 . S
C2051 H2037 0.960 . S
C2051 H2038 0.961 . S
C2051 H2039 0.959 . S
C2051 C2049 1.561 . S
C2052 C2049 1.526 . S
C2052 C2053 1.396 . S
C2052 C2057 1.390 . S
C2053 C2047 1.465 . S
C2053 C2052 1.396 . S
C2053 C2054 1.399 . S
C2054 H2040 0.929 . S
C2054 C2053 1.399 . S
C2054 C2055 1.385 . S
C2055 H2041 0.931 . S
C2055 C2054 1.385 . S
C2055 C2056 1.389 . S
C2056 C2055 1.389 . S
C2056 C2057 1.387 . S
C2057 H2042 0.930 . S
C2057 C2052 1.390 . S
C2057 C2056 1.387 . S
H2058 C2070 0.930 . S
H2059 C2072 0.930 . S
H2060 C2073 0.930 . S
H2061 C2077 0.959 . S
H2062 C2077 0.959 . S
H2063 C2077 0.961 . S
H2064 C2078 0.960 1_565 S
H2065 C2078 0.961 1_565 S
H2066 C2078 0.959 . S
H2067 C2081 0.929 . S
H2068 C2082 0.931 . S
H2069 C2084 0.930 . S
C2070 H2058 0.930 . S
C2070 C2071 1.399 . S
C2070 C2075 1.399 . S
C2071 C2070 1.399 . S
C2071 C2072 1.376 . S
C2072 H2059 0.930 . S
C2072 C2071 1.376 . S
C2072 C2073 1.388 . S
C2073 H2060 0.930 . S
C2073 C2072 1.388 . S
C2073 C2074 1.390 . S
C2074 C2073 1.390 . S
C2074 C2075 1.394 . S
C2074 C2080 1.465 . S
C2075 C2070 1.399 . S
C2075 C2074 1.394 . S
C2075 C2076 1.516 . S
C2076 C2075 1.516 . S
C2076 C2077 1.502 . S
C2076 C2078 1.561 . S
C2076 C2079 1.526 . S
C2077 H2061 0.959 . S
C2077 H2062 0.959 . S
C2077 H2063 0.961 . S
C2077 C2076 1.502 . S
C2078 H2064 0.960 1_545 S
C2078 H2065 0.961 1_545 S
C2078 H2066 0.959 . S
C2078 C2076 1.561 . S
C2079 C2076 1.526 . S
C2079 C2080 1.396 . S
C2079 C2084 1.390 . S
C2080 C2074 1.465 . S
C2080 C2079 1.396 . S
C2080 C2081 1.399 . S
C2081 H2067 0.929 . S
C2081 C2080 1.399 . S
C2081 C2082 1.385 . S
C2082 H2068 0.931 . S
C2082 C2081 1.385 . S
C2082 C2083 1.389 . S
C2083 C2082 1.389 . S
C2083 C2084 1.387 . S
C2084 H2069 0.930 . S
C2084 C2079 1.390 . S
C2084 C2083 1.387 . S
H2085 C2097 0.930 . S
H2086 C2099 0.930 . S
H2087 C2100 0.930 . S
H2088 C2104 0.959 . S
H2089 C2104 0.959 . S
H2090 C2104 0.961 . S
H2091 C2105 0.960 . S
H2092 C2105 0.961 . S
H2093 C2105 0.959 . S
H2094 C2108 0.929 . S
H2095 C2109 0.931 . S
H2096 C2111 0.930 . S
C2097 H2085 0.930 . S
C2097 C2098 1.399 . S
C2097 C2102 1.399 . S
C2098 C2097 1.399 . S
C2098 C2099 1.376 . S
C2099 H2086 0.930 . S
C2099 C2098 1.376 . S
C2099 C2100 1.388 . S
C2100 H2087 0.930 . S
C2100 C2099 1.388 . S
C2100 C2101 1.390 . S
C2101 C2100 1.390 . S
C2101 C2102 1.394 . S
C2101 C2107 1.465 . S
C2102 C2097 1.399 . S
C2102 C2101 1.394 . S
C2102 C2103 1.516 . S
C2103 C2102 1.516 . S
C2103 C2104 1.502 . S
C2103 C2105 1.561 . S
C2103 C2106 1.526 . S
C2104 H2088 0.959 . S
C2104 H2089 0.959 . S
C2104 H2090 0.961 . S
C2104 C2103 1.502 . S
C2105 H2091 0.960 . S
C2105 H2092 0.961 . S
C2105 H2093 0.959 . S
C2105 C2103 1.561 . S
C2106 C2103 1.526 . S
C2106 C2107 1.396 . S
C2106 C2111 1.390 . S
C2107 C2101 1.465 . S
C2107 C2106 1.396 . S
C2107 C2108 1.399 . S
C2108 H2094 0.929 . S
C2108 C2107 1.399 . S
C2108 C2109 1.385 . S
C2109 H2095 0.931 . S
C2109 C2108 1.385 . S
C2109 C2110 1.389 . S
C2110 C2109 1.389 . S
C2110 C2111 1.387 . S
C2111 H2096 0.930 . S
C2111 C2106 1.390 . S
C2111 C2110 1.387 . S
H2112 C2124 0.930 . S
H2113 C2126 0.930 . S
H2114 C2127 0.930 1_545 S
H2115 C2131 0.959 . S
H2116 C2131 0.959 . S
H2117 C2131 0.961 . S
H2118 C2132 0.960 . S
H2119 C2132 0.961 . S
H2120 C2132 0.959 . S
H2121 C2135 0.929 1_556 S
H2122 C2136 0.931 . S
H2123 C2138 0.930 . S
C2124 H2112 0.930 . S
C2124 C2125 1.399 . S
C2124 C2129 1.399 . S
C2125 C2124 1.399 . S
C2125 C2126 1.376 1_554 S
C2126 H2113 0.930 . S
C2126 C2125 1.376 1_556 S
C2126 C2127 1.388 . S
C2127 H2114 0.930 1_565 S
C2127 C2126 1.388 . S
C2127 C2128 1.390 1_556 S
C2128 C2127 1.390 1_554 S
C2128 C2129 1.394 . S
C2128 C2134 1.465 . S
C2129 C2124 1.399 . S
C2129 C2128 1.394 . S
C2129 C2130 1.516 . S
C2130 C2129 1.516 . S
C2130 C2131 1.502 . S
C2130 C2132 1.561 . S
C2130 C2133 1.526 . S
C2131 H2115 0.959 . S
C2131 H2116 0.959 . S
C2131 H2117 0.961 . S
C2131 C2130 1.502 . S
C2132 H2118 0.960 . S
C2132 H2119 0.961 . S
C2132 H2120 0.959 . S
C2132 C2130 1.561 . S
C2133 C2130 1.526 . S
C2133 C2134 1.396 . S
C2133 C2138 1.390 . S
C2134 C2128 1.465 . S
C2134 C2133 1.396 . S
C2134 C2135 1.399 1_565 S
C2135 H2121 0.929 1_554 S
C2135 C2134 1.399 1_545 S
C2135 C2136 1.385 . S
C2136 H2122 0.931 . S
C2136 C2135 1.385 . S
C2136 C2137 1.389 . S
C2137 C2136 1.389 . S
C2137 C2138 1.387 1_545 S
C2138 H2123 0.930 . S
C2138 C2133 1.390 . S
C2138 C2137 1.387 1_565 S
H2139 C2151 0.930 . S
H2140 C2153 0.938 . S
H2141 C2154 0.930 . S
H2142 C2158 0.959 1_554 S
H2143 C2158 0.959 . S
H2144 C2158 0.961 . S
H2145 C2159 0.960 . S
H2146 C2159 0.961 . S
H2147 C2159 0.959 . S
H2148 C2162 0.929 . S
H2149 C2163 0.931 . S
H2150 C2165 0.930 . S
C2151 H2139 0.930 . S
C2151 C2152 1.399 . S
C2151 C2156 1.399 . S
C2152 C2151 1.399 . S
C2152 C2153 1.358 1_556 S
C2153 H2140 0.938 . S
C2153 C2152 1.358 1_554 S
C2153 C2154 1.401 . S
C2154 H2141 0.930 . S
C2154 C2153 1.401 . S
C2154 C2155 1.390 1_554 S
C2155 C2154 1.390 1_556 S
C2155 C2156 1.394 . S
C2155 C2161 1.477 . S
C2156 C2151 1.399 . S
C2156 C2155 1.394 . S
C2156 C2157 1.516 . S
C2157 C2156 1.516 . S
C2157 C2158 1.502 . S
C2157 C2159 1.561 . S
C2157 C2160 1.526 . S
C2158 H2142 0.959 1_556 S
C2158 H2143 0.959 . S
C2158 H2144 0.961 . S
C2158 C2157 1.502 . S
C2159 H2145 0.960 . S
C2159 H2146 0.961 . S
C2159 H2147 0.959 . S
C2159 C2157 1.561 . S
C2160 C2157 1.526 . S
C2160 C2161 1.413 . S
C2160 C2165 1.390 . S
C2161 C2155 1.477 . S
C2161 C2160 1.413 . S
C2161 C2162 1.377 1_556 S
C2162 H2148 0.929 . S
C2162 C2161 1.377 1_554 S
C2162 C2163 1.385 . S
C2163 H2149 0.931 . S
C2163 C2162 1.385 . S
C2163 C2164 1.383 1_554 S
C2164 C2163 1.383 1_556 S
C2164 C2165 1.397 . S
C2165 H2150 0.930 . S
C2165 C2160 1.390 . S
C2165 C2164 1.397 . S
H2166 C2178 0.930 . S
H2167 C2180 0.930 . S
H2168 C2181 0.930 . S
H2169 C2185 0.959 . S
H2170 C2185 0.959 . S
H2171 C2185 0.961 . S
H2172 C2186 0.960 . S
H2173 C2186 0.961 . S
H2174 C2186 0.959 . S
H2175 C2189 0.929 . S
H2176 C2190 0.931 . S
H2177 C2192 0.930 . S
C2178 H2166 0.930 . S
C2178 C2179 1.399 . S
C2178 C2183 1.399 . S
C2179 C2178 1.399 . S
C2179 C2180 1.376 . S
C2180 H2167 0.930 . S
C2180 C2179 1.376 . S
C2180 C2181 1.388 . S
C2181 H2168 0.930 . S
C2181 C2180 1.388 . S
C2181 C2182 1.390 . S
C2182 C2181 1.390 . S
C2182 C2183 1.394 . S
C2182 C2188 1.465 . S
C2183 C2178 1.399 . S
C2183 C2182 1.394 . S
C2183 C2184 1.516 . S
C2184 C2183 1.516 . S
C2184 C2185 1.502 . S
C2184 C2186 1.561 . S
C2184 C2187 1.526 . S
C2185 H2169 0.959 . S
C2185 H2170 0.959 . S
C2185 H2171 0.961 . S
C2185 C2184 1.502 . S
C2186 H2172 0.960 . S
C2186 H2173 0.961 . S
C2186 H2174 0.959 . S
C2186 C2184 1.561 . S
C2187 C2184 1.526 . S
C2187 C2188 1.396 . S
C2187 C2192 1.390 . S
C2188 C2182 1.465 . S
C2188 C2187 1.396 . S
C2188 C2189 1.399 . S
C2189 H2175 0.929 . S
C2189 C2188 1.399 . S
C2189 C2190 1.385 . S
C2190 H2176 0.931 . S
C2190 C2189 1.385 . S
C2190 C2191 1.389 . S
C2191 C2190 1.389 . S
C2191 C2192 1.387 . S
C2192 H2177 0.930 . S
C2192 C2187 1.390 . S
C2192 C2191 1.387 . S
H2193 C2205 0.930 . S
H2194 C2207 0.930 . S
H2195 C2208 0.930 . S
H2196 C2212 0.959 . S
H2197 C2212 0.959 . S
H2198 C2212 0.961 . S
H2199 C2213 0.960 . S
H2200 C2213 0.961 . S
H2201 C2213 0.959 . S
H2202 C2216 0.929 . S
H2203 C2217 0.931 1_455 S
H2204 C2219 0.930 . S
C2205 H2193 0.930 . S
C2205 C2206 1.399 . S
C2205 C2210 1.399 . S
C2206 C2205 1.399 . S
C2206 C2207 1.376 . S
C2207 H2194 0.930 . S
C2207 C2206 1.376 . S
C2207 C2208 1.388 . S
C2208 H2195 0.930 . S
C2208 C2207 1.388 . S
C2208 C2209 1.390 . S
C2209 C2208 1.390 . S
C2209 C2210 1.394 . S
C2209 C2215 1.465 . S
C2210 C2205 1.399 . S
C2210 C2209 1.394 . S
C2210 C2211 1.516 . S
C2211 C2210 1.516 . S
C2211 C2212 1.502 . S
C2211 C2213 1.561 . S
C2211 C2214 1.526 . S
C2212 H2196 0.959 . S
C2212 H2197 0.959 . S
C2212 H2198 0.961 . S
C2212 C2211 1.502 . S
C2213 H2199 0.960 . S
C2213 H2200 0.961 . S
C2213 H2201 0.959 . S
C2213 C2211 1.561 . S
C2214 C2211 1.526 . S
C2214 C2215 1.396 . S
C2214 C2219 1.390 . S
C2215 C2209 1.465 . S
C2215 C2214 1.396 . S
C2215 C2216 1.399 . S
C2216 H2202 0.929 . S
C2216 C2215 1.399 . S
C2216 C2217 1.385 . S
C2217 H2203 0.931 1_655 S
C2217 C2216 1.385 . S
C2217 C2218 1.389 1_655 S
C2218 C2217 1.389 1_455 S
C2218 C2219 1.387 1_455 S
C2219 H2204 0.930 . S
C2219 C2214 1.390 . S
C2219 C2218 1.387 1_655 S
H2220 C2232 0.930 . S
H2221 C2234 0.930 . S
H2222 C2235 0.930 . S
H2223 C2239 0.959 . S
H2224 C2239 0.959 . S
H2225 C2239 0.961 . S
H2226 C2240 0.960 . S
H2227 C2240 0.961 . S
H2228 C2240 0.959 . S
H2229 C2243 0.929 . S
H2230 C2244 0.931 . S
H2231 C2246 0.930 . S
C2232 H2220 0.930 . S
C2232 C2233 1.399 . S
C2232 C2237 1.399 . S
C2233 C2232 1.399 . S
C2233 C2234 1.376 . S
C2234 H2221 0.930 . S
C2234 C2233 1.376 . S
C2234 C2235 1.388 . S
C2235 H2222 0.930 . S
C2235 C2234 1.388 . S
C2235 C2236 1.390 . S
C2236 C2235 1.390 . S
C2236 C2237 1.394 . S
C2236 C2242 1.465 . S
C2237 C2232 1.399 . S
C2237 C2236 1.394 . S
C2237 C2238 1.516 . S
C2238 C2237 1.516 . S
C2238 C2239 1.502 . S
C2238 C2240 1.561 . S
C2238 C2241 1.526 . S
C2239 H2223 0.959 . S
C2239 H2224 0.959 . S
C2239 H2225 0.961 . S
C2239 C2238 1.502 . S
C2240 H2226 0.960 . S
C2240 H2227 0.961 . S
C2240 H2228 0.959 . S
C2240 C2238 1.561 . S
C2241 C2238 1.526 . S
C2241 C2242 1.396 . S
C2241 C2246 1.390 . S
C2242 C2236 1.465 . S
C2242 C2241 1.396 . S
C2242 C2243 1.399 . S
C2243 H2229 0.929 . S
C2243 C2242 1.399 . S
C2243 C2244 1.385 . S
C2244 H2230 0.931 . S
C2244 C2243 1.385 . S
C2244 C2245 1.389 . S
C2245 C2244 1.389 . S
C2245 C2246 1.387 . S
C2246 H2231 0.930 . S
C2246 C2241 1.390 . S
C2246 C2245 1.387 . S
H2247 C2259 0.930 . S
H2248 C2261 0.930 . S
H2249 C2262 0.930 . S
H2250 C2266 0.959 . S
H2251 C2266 0.959 . S
H2252 C2266 0.961 . S
H2253 C2267 0.960 . S
H2254 C2267 0.961 . S
H2255 C2267 0.959 . S
H2256 C2270 0.929 . S
H2257 C2271 0.931 . S
H2258 C2273 0.930 . S
C2259 H2247 0.930 . S
C2259 C2260 1.399 . S
C2259 C2264 1.399 . S
C2260 C2259 1.399 . S
C2260 C2261 1.376 . S
C2261 H2248 0.930 . S
C2261 C2260 1.376 . S
C2261 C2262 1.388 . S
C2262 H2249 0.930 . S
C2262 C2261 1.388 . S
C2262 C2263 1.390 . S
C2263 C2262 1.390 . S
C2263 C2264 1.394 . S
C2263 C2269 1.465 . S
C2264 C2259 1.399 . S
C2264 C2263 1.394 . S
C2264 C2265 1.516 . S
C2265 C2264 1.516 . S
C2265 C2266 1.502 . S
C2265 C2267 1.561 . S
C2265 C2268 1.526 . S
C2266 H2250 0.959 . S
C2266 H2251 0.959 . S
C2266 H2252 0.961 . S
C2266 C2265 1.502 . S
C2267 H2253 0.960 . S
C2267 H2254 0.961 . S
C2267 H2255 0.959 . S
C2267 C2265 1.561 . S
C2268 C2265 1.526 . S
C2268 C2269 1.396 . S
C2268 C2273 1.390 . S
C2269 C2263 1.465 . S
C2269 C2268 1.396 . S
C2269 C2270 1.399 . S
C2270 H2256 0.929 . S
C2270 C2269 1.399 . S
C2270 C2271 1.385 . S
C2271 H2257 0.931 . S
C2271 C2270 1.385 . S
C2271 C2272 1.389 . S
C2272 C2271 1.389 . S
C2272 C2273 1.387 . S
C2273 H2258 0.930 . S
C2273 C2268 1.390 . S
C2273 C2272 1.387 . S
H2274 C2286 0.930 . S
H2275 C2288 0.930 . S
H2276 C2289 0.930 . S
H2277 C2293 0.959 . S
H2278 C2293 0.959 . S
H2279 C2293 0.961 . S
H2280 C2294 0.960 . S
H2281 C2294 0.961 . S
H2282 C2294 0.959 . S
H2283 C2297 0.929 . S
H2284 C2298 0.931 . S
H2285 C2300 0.930 . S
C2286 H2274 0.930 . S
C2286 C2287 1.399 . S
C2286 C2291 1.399 . S
C2287 C2286 1.399 . S
C2287 C2288 1.376 . S
C2288 H2275 0.930 . S
C2288 C2287 1.376 . S
C2288 C2289 1.388 . S
C2289 H2276 0.930 . S
C2289 C2288 1.388 . S
C2289 C2290 1.390 . S
C2290 C2289 1.390 . S
C2290 C2291 1.394 . S
C2290 C2296 1.465 . S
C2291 C2286 1.399 . S
C2291 C2290 1.394 . S
C2291 C2292 1.516 . S
C2292 C2291 1.516 . S
C2292 C2293 1.502 . S
C2292 C2294 1.561 . S
C2292 C2295 1.526 . S
C2293 H2277 0.959 . S
C2293 H2278 0.959 . S
C2293 H2279 0.961 . S
C2293 C2292 1.502 . S
C2294 H2280 0.960 . S
C2294 H2281 0.961 . S
C2294 H2282 0.959 . S
C2294 C2292 1.561 . S
C2295 C2292 1.526 . S
C2295 C2296 1.396 . S
C2295 C2300 1.390 . S
C2296 C2290 1.465 . S
C2296 C2295 1.396 . S
C2296 C2297 1.399 . S
C2297 H2283 0.929 . S
C2297 C2296 1.399 . S
C2297 C2298 1.385 . S
C2298 H2284 0.931 . S
C2298 C2297 1.385 . S
C2298 C2299 1.389 . S
C2299 C2298 1.389 . S
C2299 C2300 1.387 . S
C2300 H2285 0.930 . S
C2300 C2295 1.390 . S
C2300 C2299 1.387 . S
H2301 C2313 0.930 . S
H2302 C2315 0.930 . S
H2303 C2316 0.930 . S
H2304 C2320 0.959 . S
H2305 C2320 0.959 . S
H2306 C2320 0.961 . S
H2307 C2321 0.960 . S
H2308 C2321 0.961 . S
H2309 C2321 0.959 . S
H2310 C2324 0.929 . S
H2311 C2325 0.931 . S
H2312 C2327 0.930 . S
C2313 H2301 0.930 . S
C2313 C2314 1.399 . S
C2313 C2318 1.399 . S
C2314 C2313 1.399 . S
C2314 C2315 1.376 . S
C2315 H2302 0.930 . S
C2315 C2314 1.376 . S
C2315 C2316 1.388 . S
C2316 H2303 0.930 . S
C2316 C2315 1.388 . S
C2316 C2317 1.390 . S
C2317 C2316 1.390 . S
C2317 C2318 1.394 . S
C2317 C2323 1.465 . S
C2318 C2313 1.399 . S
C2318 C2317 1.394 . S
C2318 C2319 1.516 . S
C2319 C2318 1.516 . S
C2319 C2320 1.502 . S
C2319 C2321 1.561 . S
C2319 C2322 1.526 . S
C2320 H2304 0.959 . S
C2320 H2305 0.959 . S
C2320 H2306 0.961 . S
C2320 C2319 1.502 . S
C2321 H2307 0.960 . S
C2321 H2308 0.961 . S
C2321 H2309 0.959 . S
C2321 C2319 1.561 . S
C2322 C2319 1.526 . S
C2322 C2323 1.396 . S
C2322 C2327 1.390 . S
C2323 C2317 1.465 . S
C2323 C2322 1.396 . S
C2323 C2324 1.399 . S
C2324 H2310 0.929 . S
C2324 C2323 1.399 . S
C2324 C2325 1.385 . S
C2325 H2311 0.931 . S
C2325 C2324 1.385 . S
C2325 C2326 1.389 . S
C2326 C2325 1.389 . S
C2326 C2327 1.387 . S
C2327 H2312 0.930 . S
C2327 C2322 1.390 . S
C2327 C2326 1.387 . S
H2328 C2340 0.930 . S
H2329 C2342 0.930 . S
H2330 C2343 0.930 . S
H2331 C2347 0.959 . S
H2332 C2347 0.959 . S
H2333 C2347 0.961 . S
H2334 C2348 0.960 . S
H2335 C2348 0.961 . S
H2336 C2348 0.959 . S
H2337 C2351 0.929 . S
H2338 C2352 0.931 1_556 S
H2339 C2354 0.930 . S
C2340 H2328 0.930 . S
C2340 C2341 1.399 . S
C2340 C2345 1.399 . S
C2341 C2340 1.399 . S
C2341 C2342 1.376 . S
C2342 H2329 0.930 . S
C2342 C2341 1.376 . S
C2342 C2343 1.388 . S
C2343 H2330 0.930 . S
C2343 C2342 1.388 . S
C2343 C2344 1.390 . S
C2344 C2343 1.390 . S
C2344 C2345 1.394 . S
C2344 C2350 1.465 . S
C2345 C2340 1.399 . S
C2345 C2344 1.394 . S
C2345 C2346 1.516 . S
C2346 C2345 1.516 . S
C2346 C2347 1.502 . S
C2346 C2348 1.561 . S
C2346 C2349 1.526 . S
C2347 H2331 0.959 . S
C2347 H2332 0.959 . S
C2347 H2333 0.961 . S
C2347 C2346 1.502 . S
C2348 H2334 0.960 . S
C2348 H2335 0.961 . S
C2348 H2336 0.959 . S
C2348 C2346 1.561 . S
C2349 C2346 1.526 . S
C2349 C2350 1.396 . S
C2349 C2354 1.390 . S
C2350 C2344 1.465 . S
C2350 C2349 1.396 . S
C2350 C2351 1.399 . S
C2351 H2337 0.929 . S
C2351 C2350 1.399 . S
C2351 C2352 1.385 . S
C2352 H2338 0.931 1_554 S
C2352 C2351 1.385 . S
C2352 C2353 1.389 . S
C2353 C2352 1.389 . S
C2353 C2354 1.387 . S
C2354 H2339 0.930 . S
C2354 C2349 1.390 . S
C2354 C2353 1.387 . S
H2355 C2367 0.930 . S
H2356 C2369 0.930 . S
H2357 C2370 0.930 . S
H2358 C2374 0.959 . S
H2359 C2374 0.959 . S
H2360 C2374 0.961 . S
H2361 C2375 0.960 . S
H2362 C2375 0.961 . S
H2363 C2375 0.959 . S
H2364 C2378 0.929 . S
H2365 C2379 0.931 . S
H2366 C2381 0.930 . S
C2367 H2355 0.930 . S
C2367 C2368 1.399 . S
C2367 C2372 1.399 . S
C2368 C2367 1.399 . S
C2368 C2369 1.376 . S
C2369 H2356 0.930 . S
C2369 C2368 1.376 . S
C2369 C2370 1.388 . S
C2370 H2357 0.930 . S
C2370 C2369 1.388 . S
C2370 C2371 1.390 . S
C2371 C2370 1.390 . S
C2371 C2372 1.394 . S
C2371 C2377 1.465 . S
C2372 C2367 1.399 . S
C2372 C2371 1.394 . S
C2372 C2373 1.516 . S
C2373 C2372 1.516 . S
C2373 C2374 1.502 . S
C2373 C2375 1.561 . S
C2373 C2376 1.526 . S
C2374 H2358 0.959 . S
C2374 H2359 0.959 . S
C2374 H2360 0.961 . S
C2374 C2373 1.502 . S
C2375 H2361 0.960 . S
C2375 H2362 0.961 . S
C2375 H2363 0.959 . S
C2375 C2373 1.561 . S
C2376 C2373 1.526 . S
C2376 C2377 1.396 . S
C2376 C2381 1.390 . S
C2377 C2371 1.465 . S
C2377 C2376 1.396 . S
C2377 C2378 1.399 . S
C2378 H2364 0.929 . S
C2378 C2377 1.399 . S
C2378 C2379 1.385 . S
C2379 H2365 0.931 . S
C2379 C2378 1.385 . S
C2379 C2380 1.389 . S
C2380 C2379 1.389 . S
C2380 C2381 1.387 . S
C2381 H2366 0.930 . S
C2381 C2376 1.390 . S
C2381 C2380 1.387 . S
H2382 C2394 0.930 . S
H2383 C2396 0.930 . S
H2384 C2397 0.930 . S
H2385 C2401 0.959 . S
H2386 C2401 0.959 . S
H2387 C2401 0.961 . S
H2388 C2402 0.960 . S
H2389 C2402 0.961 . S
H2390 C2402 0.959 . S
H2391 C2405 0.929 . S
H2392 C2406 0.931 . S
H2393 C2408 0.930 . S
C2394 H2382 0.930 . S
C2394 C2395 1.399 . S
C2394 C2399 1.399 . S
C2395 C2394 1.399 . S
C2395 C2396 1.376 . S
C2396 H2383 0.930 . S
C2396 C2395 1.376 . S
C2396 C2397 1.388 . S
C2397 H2384 0.930 . S
C2397 C2396 1.388 . S
C2397 C2398 1.390 . S
C2398 C2397 1.390 . S
C2398 C2399 1.394 . S
C2398 C2404 1.465 . S
C2399 C2394 1.399 . S
C2399 C2398 1.394 . S
C2399 C2400 1.516 . S
C2400 C2399 1.516 . S
C2400 C2401 1.502 . S
C2400 C2402 1.561 . S
C2400 C2403 1.526 . S
C2401 H2385 0.959 . S
C2401 H2386 0.959 . S
C2401 H2387 0.961 . S
C2401 C2400 1.502 . S
C2402 H2388 0.960 . S
C2402 H2389 0.961 . S
C2402 H2390 0.959 . S
C2402 C2400 1.561 . S
C2403 C2400 1.526 . S
C2403 C2404 1.396 . S
C2403 C2408 1.390 . S
C2404 C2398 1.465 . S
C2404 C2403 1.396 . S
C2404 C2405 1.399 . S
C2405 H2391 0.929 . S
C2405 C2404 1.399 . S
C2405 C2406 1.385 . S
C2406 H2392 0.931 . S
C2406 C2405 1.385 . S
C2406 C2407 1.389 . S
C2407 C2406 1.389 . S
C2407 C2408 1.387 . S
C2408 H2393 0.930 . S
C2408 C2403 1.390 . S
C2408 C2407 1.387 . S
H2409 C2421 0.930 . S
H2410 C2423 0.930 . S
H2411 C2424 0.930 . S
H2412 C2428 0.959 . S
H2413 C2428 0.959 . S
H2414 C2428 0.961 . S
H2415 C2429 0.960 . S
H2416 C2429 0.961 . S
H2417 C2429 0.959 . S
H2418 C2432 0.929 . S
H2419 C2433 0.931 . S
H2420 C2435 0.930 . S
C2421 H2409 0.930 . S
C2421 C2422 1.399 . S
C2421 C2426 1.399 . S
C2422 C2421 1.399 . S
C2422 C2423 1.376 . S
C2423 H2410 0.930 . S
C2423 C2422 1.376 . S
C2423 C2424 1.388 . S
C2424 H2411 0.930 . S
C2424 C2423 1.388 . S
C2424 C2425 1.390 . S
C2425 C2424 1.390 . S
C2425 C2426 1.394 . S
C2425 C2431 1.465 . S
C2426 C2421 1.399 . S
C2426 C2425 1.394 . S
C2426 C2427 1.516 . S
C2427 C2426 1.516 . S
C2427 C2428 1.502 . S
C2427 C2429 1.561 . S
C2427 C2430 1.526 . S
C2428 H2412 0.959 . S
C2428 H2413 0.959 . S
C2428 H2414 0.961 . S
C2428 C2427 1.502 . S
C2429 H2415 0.960 . S
C2429 H2416 0.961 . S
C2429 H2417 0.959 . S
C2429 C2427 1.561 . S
C2430 C2427 1.526 . S
C2430 C2431 1.396 . S
C2430 C2435 1.390 . S
C2431 C2425 1.465 . S
C2431 C2430 1.396 . S
C2431 C2432 1.399 . S
C2432 H2418 0.929 . S
C2432 C2431 1.399 . S
C2432 C2433 1.385 . S
C2433 H2419 0.931 . S
C2433 C2432 1.385 . S
C2433 C2434 1.389 . S
C2434 C2433 1.389 . S
C2434 C2435 1.387 . S
C2435 H2420 0.930 . S
C2435 C2430 1.390 . S
C2435 C2434 1.387 . S
H2436 C2448 0.930 . S
H2437 C2450 0.930 . S
H2438 C2451 0.930 . S
H2439 C2455 0.959 . S
H2440 C2455 0.959 . S
H2441 C2455 0.961 . S
H2442 C2456 0.960 . S
H2443 C2456 0.961 . S
H2444 C2456 0.959 . S
H2445 C2459 0.929 . S
H2446 C2460 0.931 . S
H2447 C2462 0.930 . S
C2448 H2436 0.930 . S
C2448 C2449 1.399 . S
C2448 C2453 1.399 . S
C2449 C2448 1.399 . S
C2449 C2450 1.376 . S
C2450 H2437 0.930 . S
C2450 C2449 1.376 . S
C2450 C2451 1.388 . S
C2451 H2438 0.930 . S
C2451 C2450 1.388 . S
C2451 C2452 1.390 . S
C2452 C2451 1.390 . S
C2452 C2453 1.394 . S
C2452 C2458 1.465 . S
C2453 C2448 1.399 . S
C2453 C2452 1.394 . S
C2453 C2454 1.516 . S
C2454 C2453 1.516 . S
C2454 C2455 1.502 . S
C2454 C2456 1.561 . S
C2454 C2457 1.526 . S
C2455 H2439 0.959 . S
C2455 H2440 0.959 . S
C2455 H2441 0.961 . S
C2455 C2454 1.502 . S
C2456 H2442 0.960 . S
C2456 H2443 0.961 . S
C2456 H2444 0.959 . S
C2456 C2454 1.561 . S
C2457 C2454 1.526 . S
C2457 C2458 1.396 . S
C2457 C2462 1.390 . S
C2458 C2452 1.465 . S
C2458 C2457 1.396 . S
C2458 C2459 1.399 . S
C2459 H2445 0.929 . S
C2459 C2458 1.399 . S
C2459 C2460 1.385 . S
C2460 H2446 0.931 . S
C2460 C2459 1.385 . S
C2460 C2461 1.389 . S
C2461 C2460 1.389 . S
C2461 C2462 1.387 . S
C2462 H2447 0.930 . S
C2462 C2457 1.390 . S
C2462 C2461 1.387 . S
H2463 C2475 0.930 . S
H2464 C2477 0.930 . S
H2465 C2478 0.930 . S
H2466 C2482 0.959 . S
H2467 C2482 0.959 . S
H2468 C2482 0.961 . S
H2469 C2483 0.960 . S
H2470 C2483 0.961 . S
H2471 C2483 0.959 . S
H2472 C2486 0.929 . S
H2473 C2487 0.931 . S
H2474 C2489 0.930 . S
C2475 H2463 0.930 . S
C2475 C2476 1.399 . S
C2475 C2480 1.399 . S
C2476 C2475 1.399 . S
C2476 C2477 1.376 . S
C2477 H2464 0.930 . S
C2477 C2476 1.376 . S
C2477 C2478 1.388 . S
C2478 H2465 0.930 . S
C2478 C2477 1.388 . S
C2478 C2479 1.390 . S
C2479 C2478 1.390 . S
C2479 C2480 1.394 . S
C2479 C2485 1.465 . S
C2480 C2475 1.399 . S
C2480 C2479 1.394 . S
C2480 C2481 1.516 . S
C2481 C2480 1.516 . S
C2481 C2482 1.502 . S
C2481 C2483 1.561 . S
C2481 C2484 1.526 . S
C2482 H2466 0.959 . S
C2482 H2467 0.959 . S
C2482 H2468 0.961 . S
C2482 C2481 1.502 . S
C2483 H2469 0.960 . S
C2483 H2470 0.961 . S
C2483 H2471 0.959 . S
C2483 C2481 1.561 . S
C2484 C2481 1.526 . S
C2484 C2485 1.396 . S
C2484 C2489 1.390 . S
C2485 C2479 1.465 . S
C2485 C2484 1.396 . S
C2485 C2486 1.399 . S
C2486 H2472 0.929 . S
C2486 C2485 1.399 . S
C2486 C2487 1.385 . S
C2487 H2473 0.931 . S
C2487 C2486 1.385 . S
C2487 C2488 1.389 . S
C2488 C2487 1.389 . S
C2488 C2489 1.387 . S
C2489 H2474 0.930 . S
C2489 C2484 1.390 . S
C2489 C2488 1.387 . S
H2490 C2502 0.930 . S
H2491 C2504 0.930 . S
H2492 C2505 0.930 . S
H2493 C2509 0.959 . S
H2494 C2509 0.959 . S
H2495 C2509 0.961 . S
H2496 C2510 0.960 . S
H2497 C2510 0.961 1_554 S
H2498 C2510 0.959 . S
H2499 C2513 0.929 . S
H2500 C2514 0.931 1_545 S
H2501 C2516 0.930 . S
C2502 H2490 0.930 . S
C2502 C2503 1.399 . S
C2502 C2507 1.399 . S
C2503 C2502 1.399 . S
C2503 C2504 1.376 . S
C2504 H2491 0.930 . S
C2504 C2503 1.376 . S
C2504 C2505 1.388 . S
C2505 H2492 0.930 . S
C2505 C2504 1.388 . S
C2505 C2506 1.390 . S
C2506 C2505 1.390 . S
C2506 C2507 1.394 . S
C2506 C2512 1.465 . S
C2507 C2502 1.399 . S
C2507 C2506 1.394 . S
C2507 C2508 1.516 . S
C2508 C2507 1.516 . S
C2508 C2509 1.502 . S
C2508 C2510 1.561 . S
C2508 C2511 1.526 . S
C2509 H2493 0.959 . S
C2509 H2494 0.959 . S
C2509 H2495 0.961 . S
C2509 C2508 1.502 . S
C2510 H2496 0.960 . S
C2510 H2497 0.961 1_556 S
C2510 H2498 0.959 . S
C2510 C2508 1.561 . S
C2511 C2508 1.526 . S
C2511 C2512 1.396 . S
C2511 C2516 1.390 . S
C2512 C2506 1.465 . S
C2512 C2511 1.396 . S
C2512 C2513 1.399 . S
C2513 H2499 0.929 . S
C2513 C2512 1.399 . S
C2513 C2514 1.385 . S
C2514 H2500 0.931 1_565 S
C2514 C2513 1.385 . S
C2514 C2515 1.389 . S
C2515 C2514 1.389 . S
C2515 C2516 1.387 . S
C2516 H2501 0.930 . S
C2516 C2511 1.390 . S
C2516 C2515 1.387 . S
H2517 C2529 0.930 . S
H2518 C2531 0.930 . S
H2519 C2532 0.930 . S
H2520 C2536 0.959 . S
H2521 C2536 0.959 . S
H2522 C2536 0.961 . S
H2523 C2537 0.960 . S
H2524 C2537 0.961 . S
H2525 C2537 0.959 . S
H2526 C2540 0.929 . S
H2527 C2541 0.931 . S
H2528 C2543 0.930 . S
C2529 H2517 0.930 . S
C2529 C2530 1.399 . S
C2529 C2534 1.399 . S
C2530 C2529 1.399 . S
C2530 C2531 1.376 . S
C2531 H2518 0.930 . S
C2531 C2530 1.376 . S
C2531 C2532 1.388 . S
C2532 H2519 0.930 . S
C2532 C2531 1.388 . S
C2532 C2533 1.390 . S
C2533 C2532 1.390 . S
C2533 C2534 1.394 . S
C2533 C2539 1.465 . S
C2534 C2529 1.399 . S
C2534 C2533 1.394 . S
C2534 C2535 1.516 . S
C2535 C2534 1.516 . S
C2535 C2536 1.502 . S
C2535 C2537 1.561 . S
C2535 C2538 1.526 . S
C2536 H2520 0.959 . S
C2536 H2521 0.959 . S
C2536 H2522 0.961 . S
C2536 C2535 1.502 . S
C2537 H2523 0.960 . S
C2537 H2524 0.961 . S
C2537 H2525 0.959 . S
C2537 C2535 1.561 . S
C2538 C2535 1.526 . S
C2538 C2539 1.396 . S
C2538 C2543 1.390 . S
C2539 C2533 1.465 . S
C2539 C2538 1.396 . S
C2539 C2540 1.399 . S
C2540 H2526 0.929 . S
C2540 C2539 1.399 . S
C2540 C2541 1.385 . S
C2541 H2527 0.931 . S
C2541 C2540 1.385 . S
C2541 C2542 1.389 . S
C2542 C2541 1.389 . S
C2542 C2543 1.387 . S
C2543 H2528 0.930 . S
C2543 C2538 1.390 . S
C2543 C2542 1.387 . S
H2544 C2556 0.930 . S
H2545 C2558 0.930 . S
H2546 C2559 0.930 . S
H2547 C2563 0.959 . S
H2548 C2563 0.959 . S
H2549 C2563 0.961 . S
H2550 C2564 0.960 . S
H2551 C2564 0.961 . S
H2552 C2564 0.959 . S
H2553 C2567 0.929 . S
H2554 C2568 0.931 . S
H2555 C2570 0.930 . S
C2556 H2544 0.930 . S
C2556 C2557 1.399 . S
C2556 C2561 1.399 . S
C2557 C2556 1.399 . S
C2557 C2558 1.376 1_545 S
C2558 H2545 0.930 . S
C2558 C2557 1.376 1_565 S
C2558 C2559 1.388 . S
C2559 H2546 0.930 . S
C2559 C2558 1.388 . S
C2559 C2560 1.390 . S
C2560 C2559 1.390 . S
C2560 C2561 1.394 1_565 S
C2560 C2566 1.465 . S
C2561 C2556 1.399 . S
C2561 C2560 1.394 1_545 S
C2561 C2562 1.516 . S
C2562 C2561 1.516 . S
C2562 C2563 1.502 . S
C2562 C2564 1.561 . S
C2562 C2565 1.526 . S
C2563 H2547 0.959 . S
C2563 H2548 0.959 . S
C2563 H2549 0.961 . S
C2563 C2562 1.502 . S
C2564 H2550 0.960 . S
C2564 H2551 0.961 . S
C2564 H2552 0.959 . S
C2564 C2562 1.561 . S
C2565 C2562 1.526 . S
C2565 C2566 1.396 1_545 S
C2565 C2570 1.390 . S
C2566 C2560 1.465 . S
C2566 C2565 1.396 1_565 S
C2566 C2567 1.399 . S
C2567 H2553 0.929 . S
C2567 C2566 1.399 . S
C2567 C2568 1.385 . S
C2568 H2554 0.931 . S
C2568 C2567 1.385 . S
C2568 C2569 1.389 1_565 S
C2569 C2568 1.389 1_545 S
C2569 C2570 1.387 . S
C2570 H2555 0.930 . S
C2570 C2565 1.390 . S
C2570 C2569 1.387 . S
H2571 C2583 0.930 . S
H2572 C2585 0.930 . S
H2573 C2586 0.930 . S
H2574 C2590 0.959 . S
H2575 C2590 0.959 . S
H2576 C2590 0.961 . S
H2577 C2591 0.960 . S
H2578 C2591 0.961 . S
H2579 C2591 0.959 . S
H2580 C2594 0.929 . S
H2581 C2595 0.931 . S
H2582 C2597 0.930 . S
C2583 H2571 0.930 . S
C2583 C2584 1.399 . S
C2583 C2588 1.399 . S
C2584 C2583 1.399 . S
C2584 C2585 1.376 . S
C2585 H2572 0.930 . S
C2585 C2584 1.376 . S
C2585 C2586 1.388 . S
C2586 H2573 0.930 . S
C2586 C2585 1.388 . S
C2586 C2587 1.390 . S
C2587 C2586 1.390 . S
C2587 C2588 1.394 . S
C2587 C2593 1.465 . S
C2588 C2583 1.399 . S
C2588 C2587 1.394 . S
C2588 C2589 1.516 . S
C2589 C2588 1.516 . S
C2589 C2590 1.502 . S
C2589 C2591 1.561 . S
C2589 C2592 1.526 . S
C2590 H2574 0.959 . S
C2590 H2575 0.959 . S
C2590 H2576 0.961 . S
C2590 C2589 1.502 . S
C2591 H2577 0.960 . S
C2591 H2578 0.961 . S
C2591 H2579 0.959 . S
C2591 C2589 1.561 . S
C2592 C2589 1.526 . S
C2592 C2593 1.396 . S
C2592 C2597 1.390 . S
C2593 C2587 1.465 . S
C2593 C2592 1.396 . S
C2593 C2594 1.399 . S
C2594 H2580 0.929 . S
C2594 C2593 1.399 . S
C2594 C2595 1.385 . S
C2595 H2581 0.931 . S
C2595 C2594 1.385 . S
C2595 C2596 1.389 . S
C2596 C2595 1.389 . S
C2596 C2597 1.387 . S
C2597 H2582 0.930 . S
C2597 C2592 1.390 . S
C2597 C2596 1.387 . S
H2598 C2610 0.930 . S
H2599 C2612 0.930 1_565 S
H2600 C2613 0.930 . S
H2601 C2617 0.959 . S
H2602 C2617 0.959 . S
H2603 C2617 0.961 . S
H2604 C2618 0.960 . S
H2605 C2618 0.961 . S
H2606 C2618 0.959 . S
H2607 C2621 0.929 1_565 S
H2608 C2622 0.964 . S
H2609 C2624 0.930 . S
C2610 H2598 0.930 . S
C2610 C2611 1.399 . S
C2610 C2615 1.399 . S
C2611 C2610 1.399 . S
C2611 C2612 1.376 . S
C2612 H2599 0.930 1_545 S
C2612 C2611 1.376 . S
C2612 C2613 1.388 1_545 S
C2613 H2600 0.930 . S
C2613 C2612 1.388 1_565 S
C2613 C2614 1.390 1_565 S
C2614 C2613 1.390 1_545 S
C2614 C2615 1.394 . S
C2614 C2620 1.465 . S
C2615 C2610 1.399 . S
C2615 C2614 1.394 . S
C2615 C2616 1.516 . S
C2616 C2615 1.516 . S
C2616 C2617 1.502 . S
C2616 C2618 1.561 . S
C2616 C2619 1.526 . S
C2617 H2601 0.959 . S
C2617 H2602 0.959 . S
C2617 H2603 0.961 . S
C2617 C2616 1.502 . S
C2618 H2604 0.960 . S
C2618 H2605 0.961 . S
C2618 H2606 0.959 . S
C2618 C2616 1.561 . S
C2619 C2616 1.526 . S
C2619 C2620 1.396 . S
C2619 C2624 1.390 . S
C2620 C2614 1.465 . S
C2620 C2619 1.396 . S
C2620 C2621 1.399 . S
C2621 H2607 0.929 1_545 S
C2621 C2620 1.399 . S
C2621 C2622 1.385 . S
C2622 H2608 0.964 . S
C2622 C2621 1.385 . S
C2622 C2623 1.389 . S
C2623 C2622 1.389 . S
C2623 C2624 1.387 . S
C2624 H2609 0.930 . S
C2624 C2619 1.390 . S
C2624 C2623 1.387 . S
H2625 C2637 0.930 . S
H2626 C2639 0.930 . S
H2627 C2640 0.930 . S
H2628 C2644 0.959 . S
H2629 C2644 0.959 . S
H2630 C2644 0.961 . S
H2631 C2645 0.960 . S
H2632 C2645 0.961 . S
H2633 C2645 0.959 . S
H2634 C2648 0.929 . S
H2635 C2649 0.931 . S
H2636 C2651 0.930 . S
C2637 H2625 0.930 . S
C2637 C2638 1.399 . S
C2637 C2642 1.399 . S
C2638 C2637 1.399 . S
C2638 C2639 1.376 . S
C2639 H2626 0.930 . S
C2639 C2638 1.376 . S
C2639 C2640 1.388 . S
C2640 H2627 0.930 . S
C2640 C2639 1.388 . S
C2640 C2641 1.390 . S
C2641 C2640 1.390 . S
C2641 C2642 1.394 . S
C2641 C2647 1.465 . S
C2642 C2637 1.399 . S
C2642 C2641 1.394 . S
C2642 C2643 1.516 . S
C2643 C2642 1.516 . S
C2643 C2644 1.502 . S
C2643 C2645 1.561 . S
C2643 C2646 1.526 . S
C2644 H2628 0.959 . S
C2644 H2629 0.959 . S
C2644 H2630 0.961 . S
C2644 C2643 1.502 . S
C2645 H2631 0.960 . S
C2645 H2632 0.961 . S
C2645 H2633 0.959 . S
C2645 C2643 1.561 . S
C2646 C2643 1.526 . S
C2646 C2647 1.396 . S
C2646 C2651 1.390 . S
C2647 C2641 1.465 . S
C2647 C2646 1.396 . S
C2647 C2648 1.399 . S
C2648 H2634 0.929 . S
C2648 C2647 1.399 . S
C2648 C2649 1.385 . S
C2649 H2635 0.931 . S
C2649 C2648 1.385 . S
C2649 C2650 1.389 . S
C2650 C2649 1.389 . S
C2650 C2651 1.387 . S
C2651 H2636 0.930 . S
C2651 C2646 1.390 . S
C2651 C2650 1.387 . S
H2652 C2664 0.930 . S
H2653 C2666 0.930 . S
H2654 C2667 0.930 . S
H2655 C2671 0.959 . S
H2656 C2671 0.959 . S
H2657 C2671 0.961 . S
H2658 C2672 0.960 . S
H2659 C2672 0.961 . S
H2660 C2672 0.959 . S
H2661 C2675 0.929 . S
H2662 C2676 0.931 . S
H2663 C2678 0.930 1_565 S
C2664 H2652 0.930 . S
C2664 C2665 1.399 . S
C2664 C2669 1.399 . S
C2665 C2664 1.399 . S
C2665 C2666 1.376 1_565 S
C2666 H2653 0.930 . S
C2666 C2665 1.376 1_545 S
C2666 C2667 1.388 . S
C2667 H2654 0.930 . S
C2667 C2666 1.388 . S
C2667 C2668 1.390 . S
C2668 C2667 1.390 . S
C2668 C2669 1.394 1_545 S
C2668 C2674 1.465 . S
C2669 C2664 1.399 . S
C2669 C2668 1.394 1_565 S
C2669 C2670 1.516 . S
C2670 C2669 1.516 . S
C2670 C2671 1.502 . S
C2670 C2672 1.561 . S
C2670 C2673 1.526 1_565 S
C2671 H2655 0.959 . S
C2671 H2656 0.959 . S
C2671 H2657 0.961 . S
C2671 C2670 1.502 . S
C2672 H2658 0.960 . S
C2672 H2659 0.961 . S
C2672 H2660 0.959 . S
C2672 C2670 1.561 . S
C2673 C2670 1.526 1_545 S
C2673 C2674 1.396 . S
C2673 C2678 1.390 . S
C2674 C2668 1.465 . S
C2674 C2673 1.396 . S
C2674 C2675 1.399 . S
C2675 H2661 0.929 . S
C2675 C2674 1.399 . S
C2675 C2676 1.385 . S
C2676 H2662 0.931 . S
C2676 C2675 1.385 . S
C2676 C2677 1.389 . S
C2677 C2676 1.389 . S
C2677 C2678 1.387 . S
C2678 H2663 0.930 1_545 S
C2678 C2673 1.390 . S
C2678 C2677 1.387 . S
H2679 C2691 0.930 . S
H2680 C2693 0.930 . S
H2681 C2694 0.930 . S
H2682 C2698 0.959 . S
H2683 C2698 0.959 . S
H2684 C2698 0.961 . S
H2685 C2699 0.960 . S
H2686 C2699 0.961 . S
H2687 C2699 0.959 . S
H2688 C2702 0.929 . S
H2689 C2703 0.931 . S
H2690 C2705 0.930 . S
C2691 H2679 0.930 . S
C2691 C2692 1.399 . S
C2691 C2696 1.399 . S
C2692 C2691 1.399 . S
C2692 C2693 1.376 . S
C2693 H2680 0.930 . S
C2693 C2692 1.376 . S
C2693 C2694 1.388 . S
C2694 H2681 0.930 . S
C2694 C2693 1.388 . S
C2694 C2695 1.390 . S
C2695 C2694 1.390 . S
C2695 C2696 1.394 . S
C2695 C2701 1.465 . S
C2696 C2691 1.399 . S
C2696 C2695 1.394 . S
C2696 C2697 1.516 . S
C2697 C2696 1.516 . S
C2697 C2698 1.502 . S
C2697 C2699 1.561 . S
C2697 C2700 1.526 . S
C2698 H2682 0.959 . S
C2698 H2683 0.959 . S
C2698 H2684 0.961 . S
C2698 C2697 1.502 . S
C2699 H2685 0.960 . S
C2699 H2686 0.961 . S
C2699 H2687 0.959 . S
C2699 C2697 1.561 . S
C2700 C2697 1.526 . S
C2700 C2701 1.396 . S
C2700 C2705 1.390 . S
C2701 C2695 1.465 . S
C2701 C2700 1.396 . S
C2701 C2702 1.399 . S
C2702 H2688 0.929 . S
C2702 C2701 1.399 . S
C2702 C2703 1.385 . S
C2703 H2689 0.931 . S
C2703 C2702 1.385 . S
C2703 C2704 1.389 . S
C2704 C2703 1.389 . S
C2704 C2705 1.387 . S
C2705 H2690 0.930 . S
C2705 C2700 1.390 . S
C2705 C2704 1.387 . S
H2706 C2718 0.930 . S
H2707 C2720 0.930 . S
H2708 C2721 0.930 . S
H2709 C2725 0.959 . S
H2710 C2725 0.959 . S
H2711 C2725 0.961 . S
H2712 C2726 0.960 . S
H2713 C2726 0.961 . S
H2714 C2726 0.959 . S
H2715 C2729 0.929 . S
H2716 C2730 0.931 . S
H2717 C2732 0.930 . S
C2718 H2706 0.930 . S
C2718 C2719 1.399 . S
C2718 C2723 1.399 . S
C2719 C2718 1.399 . S
C2719 C2720 1.376 1_545 S
C2720 H2707 0.930 . S
C2720 C2719 1.376 1_565 S
C2720 C2721 1.388 . S
C2721 H2708 0.930 . S
C2721 C2720 1.388 . S
C2721 C2722 1.390 1_565 S
C2722 C2721 1.390 1_545 S
C2722 C2723 1.394 . S
C2722 C2728 1.465 . S
C2723 C2718 1.399 . S
C2723 C2722 1.394 . S
C2723 C2724 1.516 . S
C2724 C2723 1.516 . S
C2724 C2725 1.502 . S
C2724 C2726 1.561 . S
C2724 C2727 1.526 . S
C2725 H2709 0.959 . S
C2725 H2710 0.959 . S
C2725 H2711 0.961 . S
C2725 C2724 1.502 . S
C2726 H2712 0.960 . S
C2726 H2713 0.961 . S
C2726 H2714 0.959 . S
C2726 C2724 1.561 . S
C2727 C2724 1.526 . S
C2727 C2728 1.396 . S
C2727 C2732 1.390 . S
C2728 C2722 1.465 . S
C2728 C2727 1.396 . S
C2728 C2729 1.399 1_545 S
C2729 H2715 0.929 . S
C2729 C2728 1.399 1_565 S
C2729 C2730 1.385 . S
C2730 H2716 0.931 . S
C2730 C2729 1.385 . S
C2730 C2731 1.389 1_565 S
C2731 C2730 1.389 1_545 S
C2731 C2732 1.387 . S
C2732 H2717 0.930 . S
C2732 C2727 1.390 . S
C2732 C2731 1.387 . S
H2733 C2745 0.930 . S
H2734 C2747 0.930 . S
H2735 C2748 0.930 . S
H2736 C2752 0.959 . S
H2737 C2752 0.959 . S
H2738 C2752 0.961 . S
H2739 C2753 0.960 . S
H2740 C2753 0.961 . S
H2741 C2753 0.959 . S
H2742 C2756 0.929 . S
H2743 C2757 0.931 . S
H2744 C2759 0.930 . S
C2745 H2733 0.930 . S
C2745 C2746 1.399 . S
C2745 C2750 1.399 . S
C2746 C2745 1.399 . S
C2746 C2747 1.376 . S
C2747 H2734 0.930 . S
C2747 C2746 1.376 . S
C2747 C2748 1.388 . S
C2748 H2735 0.930 . S
C2748 C2747 1.388 . S
C2748 C2749 1.390 . S
C2749 C2748 1.390 . S
C2749 C2750 1.394 . S
C2749 C2755 1.465 . S
C2750 C2745 1.399 . S
C2750 C2749 1.394 . S
C2750 C2751 1.516 . S
C2751 C2750 1.516 . S
C2751 C2752 1.502 . S
C2751 C2753 1.561 . S
C2751 C2754 1.526 . S
C2752 H2736 0.959 . S
C2752 H2737 0.959 . S
C2752 H2738 0.961 . S
C2752 C2751 1.502 . S
C2753 H2739 0.960 . S
C2753 H2740 0.961 . S
C2753 H2741 0.959 . S
C2753 C2751 1.561 . S
C2754 C2751 1.526 . S
C2754 C2755 1.396 . S
C2754 C2759 1.390 . S
C2755 C2749 1.465 . S
C2755 C2754 1.396 . S
C2755 C2756 1.399 . S
C2756 H2742 0.929 . S
C2756 C2755 1.399 . S
C2756 C2757 1.385 . S
C2757 H2743 0.931 . S
C2757 C2756 1.385 . S
C2757 C2758 1.389 . S
C2758 C2757 1.389 . S
C2758 C2759 1.387 . S
C2759 H2744 0.930 . S
C2759 C2754 1.390 . S
C2759 C2758 1.387 . S
H2760 C2772 0.930 1_556 S
H2761 C2774 0.930 . S
H2762 C2775 0.930 . S
H2763 C2779 0.959 . S
H2764 C2779 0.959 . S
H2765 C2779 0.961 . S
H2766 C2780 0.960 . S
H2767 C2780 0.961 . S
H2768 C2780 0.975 . S
H2769 C2783 0.929 . S
H2770 C2784 0.931 . S
H2771 C2786 0.930 . S
C2772 H2760 0.930 1_554 S
C2772 C2773 1.399 . S
C2772 C2777 1.399 . S
C2773 C2772 1.399 . S
C2773 C2774 1.376 . S
C2774 H2761 0.930 . S
C2774 C2773 1.376 . S
C2774 C2775 1.388 . S
C2775 H2762 0.930 . S
C2775 C2774 1.388 . S
C2775 C2776 1.390 . S
C2776 C2775 1.390 . S
C2776 C2777 1.394 . S
C2776 C2782 1.465 . S
C2777 C2772 1.399 . S
C2777 C2776 1.394 . S
C2777 C2778 1.516 1_554 S
C2778 C2777 1.516 1_556 S
C2778 C2779 1.502 . S
C2778 C2780 1.561 . S
C2778 C2781 1.526 1_556 S
C2779 H2763 0.959 . S
C2779 H2764 0.959 . S
C2779 H2765 0.961 . S
C2779 C2778 1.502 . S
C2780 H2766 0.960 . S
C2780 H2767 0.961 . S
C2780 H2768 0.975 . S
C2780 C2778 1.561 . S
C2781 C2778 1.526 1_554 S
C2781 C2782 1.396 . S
C2781 C2786 1.390 1_554 S
C2782 C2776 1.465 . S
C2782 C2781 1.396 . S
C2782 C2783 1.399 . S
C2783 H2769 0.929 . S
C2783 C2782 1.399 . S
C2783 C2784 1.385 . S
C2784 H2770 0.931 . S
C2784 C2783 1.385 . S
C2784 C2785 1.389 . S
C2785 C2784 1.389 . S
C2785 C2786 1.387 1_554 S
C2786 H2771 0.930 . S
C2786 C2781 1.390 1_556 S
C2786 C2785 1.387 1_556 S
H2787 C2799 0.930 . S
H2788 C2801 0.930 . S
H2789 C2802 0.930 . S
H2790 C2806 0.959 . S
H2791 C2806 0.970 . S
H2792 C2806 0.961 . S
H2793 C2807 0.960 . S
H2794 C2807 0.961 . S
H2795 C2807 0.959 . S
H2796 C2810 0.929 . S
H2797 C2811 0.931 . S
H2798 C2813 0.930 . S
C2799 H2787 0.930 . S
C2799 C2800 1.399 . S
C2799 C2804 1.399 . S
C2800 C2799 1.399 . S
C2800 C2801 1.376 . S
C2801 H2788 0.930 . S
C2801 C2800 1.376 . S
C2801 C2802 1.388 . S
C2802 H2789 0.930 . S
C2802 C2801 1.388 . S
C2802 C2803 1.390 . S
C2803 C2802 1.390 . S
C2803 C2804 1.394 . S
C2803 C2809 1.465 . S
C2804 C2799 1.399 . S
C2804 C2803 1.394 . S
C2804 C2805 1.516 . S
C2805 C2804 1.516 . S
C2805 C2806 1.502 . S
C2805 C2807 1.561 1_554 S
C2805 C2808 1.526 . S
C2806 H2790 0.959 . S
C2806 H2791 0.970 . S
C2806 H2792 0.961 . S
C2806 C2805 1.502 . S
C2807 H2793 0.960 . S
C2807 H2794 0.961 . S
C2807 H2795 0.959 . S
C2807 C2805 1.561 1_556 S
C2808 C2805 1.526 . S
C2808 C2809 1.396 . S
C2808 C2813 1.390 . S
C2809 C2803 1.465 . S
C2809 C2808 1.396 . S
C2809 C2810 1.399 . S
C2810 H2796 0.929 . S
C2810 C2809 1.399 . S
C2810 C2811 1.385 . S
C2811 H2797 0.931 . S
C2811 C2810 1.385 . S
C2811 C2812 1.389 . S
C2812 C2811 1.389 . S
C2812 C2813 1.387 . S
C2813 H2798 0.930 . S
C2813 C2808 1.390 . S
C2813 C2812 1.387 . S
H2814 C2826 0.930 . S
H2815 C2828 0.930 . S
H2816 C2829 0.930 . S
H2817 C2833 0.959 . S
H2818 C2833 0.959 . S
H2819 C2833 0.961 . S
H2820 C2834 0.960 . S
H2821 C2834 0.961 . S
H2822 C2834 0.959 . S
H2823 C2837 0.929 . S
H2824 C2838 0.931 . S
H2825 C2840 0.930 . S
C2826 H2814 0.930 . S
C2826 C2827 1.399 . S
C2826 C2831 1.399 . S
C2827 C2826 1.399 . S
C2827 C2828 1.376 . S
C2828 H2815 0.930 . S
C2828 C2827 1.376 . S
C2828 C2829 1.388 . S
C2829 H2816 0.930 . S
C2829 C2828 1.388 . S
C2829 C2830 1.390 . S
C2830 C2829 1.390 . S
C2830 C2831 1.394 . S
C2830 C2836 1.465 . S
C2831 C2826 1.399 . S
C2831 C2830 1.394 . S
C2831 C2832 1.516 . S
C2832 C2831 1.516 . S
C2832 C2833 1.502 . S
C2832 C2834 1.561 . S
C2832 C2835 1.526 . S
C2833 H2817 0.959 . S
C2833 H2818 0.959 . S
C2833 H2819 0.961 . S
C2833 C2832 1.502 . S
C2834 H2820 0.960 . S
C2834 H2821 0.961 . S
C2834 H2822 0.959 . S
C2834 C2832 1.561 . S
C2835 C2832 1.526 . S
C2835 C2836 1.396 . S
C2835 C2840 1.390 . S
C2836 C2830 1.465 . S
C2836 C2835 1.396 . S
C2836 C2837 1.399 . S
C2837 H2823 0.929 . S
C2837 C2836 1.399 . S
C2837 C2838 1.385 . S
C2838 H2824 0.931 . S
C2838 C2837 1.385 . S
C2838 C2839 1.389 . S
C2839 C2838 1.389 . S
C2839 C2840 1.387 . S
C2840 H2825 0.930 . S
C2840 C2835 1.390 . S
C2840 C2839 1.387 . S
H2841 C2853 0.930 . S
H2842 C2855 0.930 . S
H2843 C2856 0.930 . S
H2844 C2860 0.959 . S
H2845 C2860 0.959 . S
H2846 C2860 0.961 . S
H2847 C2861 0.960 . S
H2848 C2861 0.961 . S
H2849 C2861 0.959 . S
H2850 C2864 0.929 . S
H2851 C2865 0.931 . S
H2852 C2867 0.930 . S
C2853 H2841 0.930 . S
C2853 C2854 1.399 . S
C2853 C2858 1.399 . S
C2854 C2853 1.399 . S
C2854 C2855 1.376 . S
C2855 H2842 0.930 . S
C2855 C2854 1.376 . S
C2855 C2856 1.388 . S
C2856 H2843 0.930 . S
C2856 C2855 1.388 . S
C2856 C2857 1.390 . S
C2857 C2856 1.390 . S
C2857 C2858 1.394 . S
C2857 C2863 1.465 . S
C2858 C2853 1.399 . S
C2858 C2857 1.394 . S
C2858 C2859 1.516 . S
C2859 C2858 1.516 . S
C2859 C2860 1.502 . S
C2859 C2861 1.561 . S
C2859 C2862 1.526 . S
C2860 H2844 0.959 . S
C2860 H2845 0.959 . S
C2860 H2846 0.961 . S
C2860 C2859 1.502 . S
C2861 H2847 0.960 . S
C2861 H2848 0.961 . S
C2861 H2849 0.959 . S
C2861 C2859 1.561 . S
C2862 C2859 1.526 . S
C2862 C2863 1.396 . S
C2862 C2867 1.390 . S
C2863 C2857 1.465 . S
C2863 C2862 1.396 . S
C2863 C2864 1.399 . S
C2864 H2850 0.929 . S
C2864 C2863 1.399 . S
C2864 C2865 1.385 . S
C2865 H2851 0.931 . S
C2865 C2864 1.385 . S
C2865 C2866 1.389 . S
C2866 C2865 1.389 . S
C2866 C2867 1.387 . S
C2867 H2852 0.930 . S
C2867 C2862 1.390 . S
C2867 C2866 1.387 . S
H2868 C2880 0.930 . S
H2869 C2882 0.930 . S
H2870 C2883 0.930 . S
H2871 C2887 0.959 . S
H2872 C2887 0.959 . S
H2873 C2887 0.961 . S
H2874 C2888 0.960 . S
H2875 C2888 0.961 . S
H2876 C2888 0.959 . S
H2877 C2891 0.929 . S
H2878 C2892 0.931 . S
H2879 C2894 0.930 . S
C2880 H2868 0.930 . S
C2880 C2881 1.399 . S
C2880 C2885 1.399 . S
C2881 C2880 1.399 . S
C2881 C2882 1.376 . S
C2882 H2869 0.930 . S
C2882 C2881 1.376 . S
C2882 C2883 1.388 . S
C2883 H2870 0.930 . S
C2883 C2882 1.388 . S
C2883 C2884 1.390 . S
C2884 C2883 1.390 . S
C2884 C2885 1.394 . S
C2884 C2890 1.465 . S
C2885 C2880 1.399 . S
C2885 C2884 1.394 . S
C2885 C2886 1.516 . S
C2886 C2885 1.516 . S
C2886 C2887 1.502 . S
C2886 C2888 1.561 . S
C2886 C2889 1.526 . S
C2887 H2871 0.959 . S
C2887 H2872 0.959 . S
C2887 H2873 0.961 . S
C2887 C2886 1.502 . S
C2888 H2874 0.960 . S
C2888 H2875 0.961 . S
C2888 H2876 0.959 . S
C2888 C2886 1.561 . S
C2889 C2886 1.526 . S
C2889 C2890 1.396 . S
C2889 C2894 1.390 . S
C2890 C2884 1.465 . S
C2890 C2889 1.396 . S
C2890 C2891 1.399 . S
C2891 H2877 0.929 . S
C2891 C2890 1.399 . S
C2891 C2892 1.385 . S
C2892 H2878 0.931 . S
C2892 C2891 1.385 . S
C2892 C2893 1.389 . S
C2893 C2892 1.389 . S
C2893 C2894 1.387 . S
C2894 H2879 0.930 . S
C2894 C2889 1.390 . S
C2894 C2893 1.387 . S
H2895 C2907 0.930 . S
H2896 C2909 0.930 . S
H2897 C2910 0.930 . S
H2898 C2914 0.959 . S
H2899 C2914 0.959 . S
H2900 C2914 0.961 . S
H2901 C2915 0.960 . S
H2902 C2915 0.961 . S
H2903 C2915 0.959 . S
H2904 C2918 0.929 . S
H2905 C2919 0.931 . S
H2906 C2921 0.930 . S
C2907 H2895 0.930 . S
C2907 C2908 1.399 . S
C2907 C2912 1.399 . S
C2908 C2907 1.399 . S
C2908 C2909 1.376 . S
C2909 H2896 0.930 . S
C2909 C2908 1.376 . S
C2909 C2910 1.388 . S
C2910 H2897 0.930 . S
C2910 C2909 1.388 . S
C2910 C2911 1.390 . S
C2911 C2910 1.390 . S
C2911 C2912 1.394 . S
C2911 C2917 1.465 . S
C2912 C2907 1.399 . S
C2912 C2911 1.394 . S
C2912 C2913 1.516 . S
C2913 C2912 1.516 . S
C2913 C2914 1.502 . S
C2913 C2915 1.561 . S
C2913 C2916 1.526 . S
C2914 H2898 0.959 . S
C2914 H2899 0.959 . S
C2914 H2900 0.961 . S
C2914 C2913 1.502 . S
C2915 H2901 0.960 . S
C2915 H2902 0.961 . S
C2915 H2903 0.959 . S
C2915 C2913 1.561 . S
C2916 C2913 1.526 . S
C2916 C2917 1.396 . S
C2916 C2921 1.390 . S
C2917 C2911 1.465 . S
C2917 C2916 1.396 . S
C2917 C2918 1.399 . S
C2918 H2904 0.929 . S
C2918 C2917 1.399 . S
C2918 C2919 1.385 . S
C2919 H2905 0.931 . S
C2919 C2918 1.385 . S
C2919 C2920 1.389 . S
C2920 C2919 1.389 . S
C2920 C2921 1.387 . S
C2921 H2906 0.930 . S
C2921 C2916 1.390 . S
C2921 C2920 1.387 . S
H2922 C2934 0.930 . S
H2923 C2936 0.930 . S
H2924 C2937 0.930 . S
H2925 C2941 0.959 . S
H2926 C2941 0.959 . S
H2927 C2941 0.961 . S
H2928 C2942 0.960 . S
H2929 C2942 0.961 . S
H2930 C2942 0.959 . S
H2931 C2945 0.929 . S
H2932 C2946 0.931 . S
H2933 C2948 0.930 . S
C2934 H2922 0.930 . S
C2934 C2935 1.399 . S
C2934 C2939 1.399 . S
C2935 C2934 1.399 . S
C2935 C2936 1.376 . S
C2936 H2923 0.930 . S
C2936 C2935 1.376 . S
C2936 C2937 1.388 . S
C2937 H2924 0.930 . S
C2937 C2936 1.388 . S
C2937 C2938 1.390 . S
C2938 C2937 1.390 . S
C2938 C2939 1.394 . S
C2938 C2944 1.465 . S
C2939 C2934 1.399 . S
C2939 C2938 1.394 . S
C2939 C2940 1.516 . S
C2940 C2939 1.516 . S
C2940 C2941 1.502 . S
C2940 C2942 1.561 . S
C2940 C2943 1.526 . S
C2941 H2925 0.959 . S
C2941 H2926 0.959 . S
C2941 H2927 0.961 . S
C2941 C2940 1.502 . S
C2942 H2928 0.960 . S
C2942 H2929 0.961 . S
C2942 H2930 0.959 . S
C2942 C2940 1.561 . S
C2943 C2940 1.526 . S
C2943 C2944 1.396 . S
C2943 C2948 1.390 . S
C2944 C2938 1.465 . S
C2944 C2943 1.396 . S
C2944 C2945 1.399 . S
C2945 H2931 0.929 . S
C2945 C2944 1.399 . S
C2945 C2946 1.385 . S
C2946 H2932 0.931 . S
C2946 C2945 1.385 . S
C2946 C2947 1.389 . S
C2947 C2946 1.389 . S
C2947 C2948 1.387 . S
C2948 H2933 0.930 . S
C2948 C2943 1.390 . S
C2948 C2947 1.387 . S
H2949 C2961 0.930 . S
H2950 C2963 0.930 . S
H2951 C2964 0.930 . S
H2952 C2968 0.959 . S
H2953 C2968 0.959 . S
H2954 C2968 0.961 . S
H2955 C2969 0.960 . S
H2956 C2969 0.961 . S
H2957 C2969 0.959 . S
H2958 C2972 0.929 . S
H2959 C2973 0.931 . S
H2960 C2975 0.930 . S
C2961 H2949 0.930 . S
C2961 C2962 1.399 . S
C2961 C2966 1.399 . S
C2962 C2961 1.399 . S
C2962 C2963 1.376 . S
C2963 H2950 0.930 . S
C2963 C2962 1.376 . S
C2963 C2964 1.388 . S
C2964 H2951 0.930 . S
C2964 C2963 1.388 . S
C2964 C2965 1.390 . S
C2965 C2964 1.390 . S
C2965 C2966 1.394 . S
C2965 C2971 1.465 . S
C2966 C2961 1.399 . S
C2966 C2965 1.394 . S
C2966 C2967 1.516 . S
C2967 C2966 1.516 . S
C2967 C2968 1.502 . S
C2967 C2969 1.561 . S
C2967 C2970 1.526 . S
C2968 H2952 0.959 . S
C2968 H2953 0.959 . S
C2968 H2954 0.961 . S
C2968 C2967 1.502 . S
C2969 H2955 0.960 . S
C2969 H2956 0.961 . S
C2969 H2957 0.959 . S
C2969 C2967 1.561 . S
C2970 C2967 1.526 . S
C2970 C2971 1.396 . S
C2970 C2975 1.390 . S
C2971 C2965 1.465 . S
C2971 C2970 1.396 . S
C2971 C2972 1.399 . S
C2972 H2958 0.929 . S
C2972 C2971 1.399 . S
C2972 C2973 1.385 . S
C2973 H2959 0.931 . S
C2973 C2972 1.385 . S
C2973 C2974 1.389 . S
C2974 C2973 1.389 . S
C2974 C2975 1.387 . S
C2975 H2960 0.930 . S
C2975 C2970 1.390 . S
C2975 C2974 1.387 . S
H2976 C2988 0.930 . S
H2977 C2990 0.930 . S
H2978 C2991 0.930 . S
H2979 C2995 0.959 . S
H2980 C2995 0.959 . S
H2981 C2995 0.961 . S
H2982 C2996 0.960 . S
H2983 C2996 0.961 . S
H2984 C2996 0.959 . S
H2985 C2999 0.929 . S
H2986 C3000 0.931 . S
H2987 C3002 0.930 . S
C2988 H2976 0.930 . S
C2988 C2989 1.399 . S
C2988 C2993 1.399 . S
C2989 C2988 1.399 . S
C2989 C2990 1.376 . S
C2990 H2977 0.930 . S
C2990 C2989 1.376 . S
C2990 C2991 1.388 . S
C2991 H2978 0.930 . S
C2991 C2990 1.388 . S
C2991 C2992 1.390 . S
C2992 C2991 1.390 . S
C2992 C2993 1.394 . S
C2992 C2998 1.465 . S
C2993 C2988 1.399 . S
C2993 C2992 1.394 . S
C2993 C2994 1.516 . S
C2994 C2993 1.516 . S
C2994 C2995 1.502 . S
C2994 C2996 1.561 . S
C2994 C2997 1.526 . S
C2995 H2979 0.959 . S
C2995 H2980 0.959 . S
C2995 H2981 0.961 . S
C2995 C2994 1.502 . S
C2996 H2982 0.960 . S
C2996 H2983 0.961 . S
C2996 H2984 0.959 . S
C2996 C2994 1.561 . S
C2997 C2994 1.526 . S
C2997 C2998 1.396 . S
C2997 C3002 1.390 . S
C2998 C2992 1.465 . S
C2998 C2997 1.396 . S
C2998 C2999 1.399 . S
C2999 H2985 0.929 . S
C2999 C2998 1.399 . S
C2999 C3000 1.385 . S
C3000 H2986 0.931 . S
C3000 C2999 1.385 . S
C3000 C3001 1.389 . S
C3001 C3000 1.389 . S
C3001 C3002 1.387 . S
C3002 H2987 0.930 . S
C3002 C2997 1.390 . S
C3002 C3001 1.387 . S
H3003 C3015 0.930 . S
H3004 C3017 0.930 . S
H3005 C3018 0.930 . S
H3006 C3022 0.959 . S
H3007 C3022 0.959 . S
H3008 C3022 0.961 . S
H3009 C3023 0.960 . S
H3010 C3023 0.961 . S
H3011 C3023 0.959 . S
H3012 C3026 0.929 . S
H3013 C3027 0.931 . S
H3014 C3029 0.930 . S
C3015 H3003 0.930 . S
C3015 C3016 1.399 . S
C3015 C3020 1.399 . S
C3016 C3015 1.399 . S
C3016 C3017 1.376 . S
C3017 H3004 0.930 . S
C3017 C3016 1.376 . S
C3017 C3018 1.388 . S
C3018 H3005 0.930 . S
C3018 C3017 1.388 . S
C3018 C3019 1.390 . S
C3019 C3018 1.390 . S
C3019 C3020 1.394 . S
C3019 C3025 1.465 . S
C3020 C3015 1.399 . S
C3020 C3019 1.394 . S
C3020 C3021 1.516 . S
C3021 C3020 1.516 . S
C3021 C3022 1.502 . S
C3021 C3023 1.561 . S
C3021 C3024 1.526 . S
C3022 H3006 0.959 . S
C3022 H3007 0.959 . S
C3022 H3008 0.961 . S
C3022 C3021 1.502 . S
C3023 H3009 0.960 . S
C3023 H3010 0.961 . S
C3023 H3011 0.959 . S
C3023 C3021 1.561 . S
C3024 C3021 1.526 . S
C3024 C3025 1.396 . S
C3024 C3029 1.390 . S
C3025 C3019 1.465 . S
C3025 C3024 1.396 . S
C3025 C3026 1.399 . S
C3026 H3012 0.929 . S
C3026 C3025 1.399 . S
C3026 C3027 1.385 . S
C3027 H3013 0.931 . S
C3027 C3026 1.385 . S
C3027 C3028 1.389 . S
C3028 C3027 1.389 . S
C3028 C3029 1.387 . S
C3029 H3014 0.930 . S
C3029 C3024 1.390 . S
C3029 C3028 1.387 . S
H3030 C3042 0.930 1_554 S
H3031 C3044 0.930 . S
H3032 C3045 0.930 . S
H3033 C3049 0.959 . S
H3034 C3049 0.959 . S
H3035 C3049 0.961 . S
H3036 C3050 0.960 . S
H3037 C3050 0.961 . S
H3038 C3050 0.959 . S
H3039 C3053 0.929 . S
H3040 C3054 0.931 . S
H3041 C3056 0.930 . S
C3042 H3030 0.930 1_556 S
C3042 C3043 1.399 . S
C3042 C3047 1.399 . S
C3043 C3042 1.399 . S
C3043 C3044 1.376 . S
C3044 H3031 0.930 . S
C3044 C3043 1.376 . S
C3044 C3045 1.388 . S
C3045 H3032 0.930 . S
C3045 C3044 1.388 . S
C3045 C3046 1.390 . S
C3046 C3045 1.390 . S
C3046 C3047 1.394 . S
C3046 C3052 1.465 . S
C3047 C3042 1.399 . S
C3047 C3046 1.394 . S
C3047 C3048 1.516 1_556 S
C3048 C3047 1.516 1_554 S
C3048 C3049 1.502 . S
C3048 C3050 1.561 . S
C3048 C3051 1.526 . S
C3049 H3033 0.959 . S
C3049 H3034 0.959 . S
C3049 H3035 0.961 . S
C3049 C3048 1.502 . S
C3050 H3036 0.960 . S
C3050 H3037 0.961 . S
C3050 H3038 0.959 . S
C3050 C3048 1.561 . S
C3051 C3048 1.526 . S
C3051 C3052 1.396 1_554 S
C3051 C3056 1.390 . S
C3052 C3046 1.465 . S
C3052 C3051 1.396 1_556 S
C3052 C3053 1.399 . S
C3053 H3039 0.929 . S
C3053 C3052 1.399 . S
C3053 C3054 1.385 . S
C3054 H3040 0.931 . S
C3054 C3053 1.385 . S
C3054 C3055 1.389 1_556 S
C3055 C3054 1.389 1_554 S
C3055 C3056 1.387 . S
C3056 H3041 0.930 . S
C3056 C3051 1.390 . S
C3056 C3055 1.387 . S
H3057 C3069 0.930 . S
H3058 C3071 0.930 . S
H3059 C3072 0.930 . S
H3060 C3076 0.959 . S
H3061 C3076 0.959 . S
H3062 C3076 0.961 . S
H3063 C3077 0.960 . S
H3064 C3077 0.961 . S
H3065 C3077 0.959 . S
H3066 C3080 0.929 . S
H3067 C3081 0.931 . S
H3068 C3083 0.930 . S
C3069 H3057 0.930 . S
C3069 C3070 1.399 . S
C3069 C3074 1.399 1_455 S
C3070 C3069 1.399 . S
C3070 C3071 1.376 . S
C3071 H3058 0.930 . S
C3071 C3070 1.376 . S
C3071 C3072 1.388 . S
C3072 H3059 0.930 . S
C3072 C3071 1.388 . S
C3072 C3073 1.390 1_455 S
C3073 C3072 1.390 1_655 S
C3073 C3074 1.394 . S
C3073 C3079 1.465 . S
C3074 C3069 1.399 1_655 S
C3074 C3073 1.394 . S
C3074 C3075 1.516 . S
C3075 C3074 1.516 . S
C3075 C3076 1.502 . S
C3075 C3077 1.561 . S
C3075 C3078 1.526 . S
C3076 H3060 0.959 . S
C3076 H3061 0.959 . S
C3076 H3062 0.961 . S
C3076 C3075 1.502 . S
C3077 H3063 0.960 . S
C3077 H3064 0.961 . S
C3077 H3065 0.959 . S
C3077 C3075 1.561 . S
C3078 C3075 1.526 . S
C3078 C3079 1.396 . S
C3078 C3083 1.390 . S
C3079 C3073 1.465 . S
C3079 C3078 1.396 . S
C3079 C3080 1.399 . S
C3080 H3066 0.929 . S
C3080 C3079 1.399 . S
C3080 C3081 1.385 . S
C3081 H3067 0.931 . S
C3081 C3080 1.385 . S
C3081 C3082 1.389 . S
C3082 C3081 1.389 . S
C3082 C3083 1.387 . S
C3083 H3068 0.930 . S
C3083 C3078 1.390 . S
C3083 C3082 1.387 . S
H3084 C3096 0.930 . S
H3085 C3098 0.930 . S
H3086 C3099 0.930 . S
H3087 C3103 0.959 . S
H3088 C3103 0.959 . S
H3089 C3103 0.961 . S
H3090 C3104 0.960 . S
H3091 C3104 0.961 . S
H3092 C3104 0.959 . S
H3093 C3107 0.929 . S
H3094 C3108 0.931 . S
H3095 C3110 0.930 . S
C3096 H3084 0.930 . S
C3096 C3097 1.399 . S
C3096 C3101 1.399 . S
C3097 C3096 1.399 . S
C3097 C3098 1.376 . S
C3098 H3085 0.930 . S
C3098 C3097 1.376 . S
C3098 C3099 1.388 . S
C3099 H3086 0.930 . S
C3099 C3098 1.388 . S
C3099 C3100 1.390 . S
C3100 C3099 1.390 . S
C3100 C3101 1.394 . S
C3100 C3106 1.465 . S
C3101 C3096 1.399 . S
C3101 C3100 1.394 . S
C3101 C3102 1.516 . S
C3102 C3101 1.516 . S
C3102 C3103 1.502 . S
C3102 C3104 1.561 . S
C3102 C3105 1.526 . S
C3103 H3087 0.959 . S
C3103 H3088 0.959 . S
C3103 H3089 0.961 . S
C3103 C3102 1.502 . S
C3104 H3090 0.960 . S
C3104 H3091 0.961 . S
C3104 H3092 0.959 . S
C3104 C3102 1.561 . S
C3105 C3102 1.526 . S
C3105 C3106 1.396 . S
C3105 C3110 1.390 . S
C3106 C3100 1.465 . S
C3106 C3105 1.396 . S
C3106 C3107 1.399 . S
C3107 H3093 0.929 . S
C3107 C3106 1.399 . S
C3107 C3108 1.385 . S
C3108 H3094 0.931 . S
C3108 C3107 1.385 . S
C3108 C3109 1.389 . S
C3109 C3108 1.389 . S
C3109 C3110 1.387 . S
C3110 H3095 0.930 . S
C3110 C3105 1.390 . S
C3110 C3109 1.387 . S
H3111 C3123 0.930 . S
H3112 C3125 0.930 . S
H3113 C3126 0.930 . S
H3114 C3130 0.959 . S
H3115 C3130 0.959 . S
H3116 C3130 0.961 . S
H3117 C3131 0.954 1_455 S
H3118 C3131 0.964 . S
H3119 C3131 0.962 . S
H3120 C3134 0.929 . S
H3121 C3135 0.931 . S
H3122 C3137 0.930 . S
C3123 H3111 0.930 . S
C3123 C3124 1.399 . S
C3123 C3128 1.399 . S
C3124 C3123 1.399 . S
C3124 C3125 1.376 . S
C3125 H3112 0.930 . S
C3125 C3124 1.376 . S
C3125 C3126 1.388 . S
C3126 H3113 0.930 . S
C3126 C3125 1.388 . S
C3126 C3127 1.390 . S
C3127 C3126 1.390 . S
C3127 C3128 1.394 . S
C3127 C3133 1.465 1_455 S
C3128 C3123 1.399 . S
C3128 C3127 1.394 . S
C3128 C3129 1.516 . S
C3129 C3128 1.516 . S
C3129 C3130 1.502 . S
C3129 C3131 1.561 1_455 S
C3129 C3132 1.526 1_455 S
C3130 H3114 0.959 . S
C3130 H3115 0.959 . S
C3130 H3116 0.961 . S
C3130 C3129 1.502 . S
C3131 H3117 0.954 1_655 S
C3131 H3118 0.964 . S
C3131 H3119 0.962 . S
C3131 C3129 1.561 1_655 S
C3132 C3129 1.526 1_655 S
C3132 C3133 1.396 . S
C3132 C3137 1.390 . S
C3133 C3127 1.465 1_655 S
C3133 C3132 1.396 . S
C3133 C3134 1.399 . S
C3134 H3120 0.929 . S
C3134 C3133 1.399 . S
C3134 C3135 1.385 . S
C3135 H3121 0.931 . S
C3135 C3134 1.385 . S
C3135 C3136 1.389 . S
C3136 C3135 1.389 . S
C3136 C3137 1.387 . S
C3137 H3122 0.930 . S
C3137 C3132 1.390 . S
C3137 C3136 1.387 . S
H3138 C3150 0.930 . S
H3139 C3152 0.930 . S
H3140 C3153 0.930 . S
H3141 C3157 0.959 . S
H3142 C3157 0.959 . S
H3143 C3157 0.961 . S
H3144 C3158 0.960 . S
H3145 C3158 0.961 . S
H3146 C3158 0.959 . S
H3147 C3161 0.929 1_655 S
H3148 C3162 0.931 . S
H3149 C3164 0.930 . S
C3150 H3138 0.930 . S
C3150 C3151 1.399 1_455 S
C3150 C3155 1.399 . S
C3151 C3150 1.399 1_655 S
C3151 C3152 1.376 . S
C3152 H3139 0.930 . S
C3152 C3151 1.376 . S
C3152 C3153 1.388 . S
C3153 H3140 0.930 . S
C3153 C3152 1.388 . S
C3153 C3154 1.370 1_655 S
C3154 C3153 1.370 1_455 S
C3154 C3155 1.405 . S
C3154 C3160 1.478 . S
C3155 C3150 1.399 . S
C3155 C3154 1.405 . S
C3155 C3156 1.516 . S
C3156 C3155 1.516 . S
C3156 C3157 1.502 . S
C3156 C3158 1.561 . S
C3156 C3159 1.526 . S
C3157 H3141 0.959 . S
C3157 H3142 0.959 . S
C3157 H3143 0.961 . S
C3157 C3156 1.502 . S
C3158 H3144 0.960 . S
C3158 H3145 0.961 . S
C3158 H3146 0.959 . S
C3158 C3156 1.561 . S
C3159 C3156 1.526 . S
C3159 C3160 1.396 . S
C3159 C3164 1.390 . S
C3160 C3154 1.478 . S
C3160 C3159 1.396 . S
C3160 C3161 1.399 . S
C3161 H3147 0.929 1_455 S
C3161 C3160 1.399 . S
C3161 C3162 1.385 . S
C3162 H3148 0.931 . S
C3162 C3161 1.385 . S
C3162 C3163 1.389 . S
C3163 C3162 1.389 . S
C3163 C3164 1.387 . S
C3164 H3149 0.930 . S
C3164 C3159 1.390 . S
C3164 C3163 1.387 . S
H3165 C3177 0.930 . S
H3166 C3179 0.930 . S
H3167 C3180 0.930 . S
H3168 C3184 0.959 . S
H3169 C3184 0.959 . S
H3170 C3184 0.961 . S
H3171 C3185 0.960 . S
H3172 C3185 0.961 . S
H3173 C3185 0.959 . S
H3174 C3188 0.929 . S
H3175 C3189 0.931 . S
H3176 C3191 0.930 . S
C3177 H3165 0.930 . S
C3177 C3178 1.399 . S
C3177 C3182 1.399 . S
C3178 C3177 1.399 . S
C3178 C3179 1.376 . S
C3179 H3166 0.930 . S
C3179 C3178 1.376 . S
C3179 C3180 1.388 . S
C3180 H3167 0.930 . S
C3180 C3179 1.388 . S
C3180 C3181 1.390 . S
C3181 C3180 1.390 . S
C3181 C3182 1.394 . S
C3181 C3187 1.465 . S
C3182 C3177 1.399 . S
C3182 C3181 1.394 . S
C3182 C3183 1.516 . S
C3183 C3182 1.516 . S
C3183 C3184 1.502 . S
C3183 C3185 1.561 . S
C3183 C3186 1.526 . S
C3184 H3168 0.959 . S
C3184 H3169 0.959 . S
C3184 H3170 0.961 . S
C3184 C3183 1.502 . S
C3185 H3171 0.960 . S
C3185 H3172 0.961 . S
C3185 H3173 0.959 . S
C3185 C3183 1.561 . S
C3186 C3183 1.526 . S
C3186 C3187 1.396 . S
C3186 C3191 1.390 . S
C3187 C3181 1.465 . S
C3187 C3186 1.396 . S
C3187 C3188 1.399 . S
C3188 H3174 0.929 . S
C3188 C3187 1.399 . S
C3188 C3189 1.385 . S
C3189 H3175 0.931 . S
C3189 C3188 1.385 . S
C3189 C3190 1.389 . S
C3190 C3189 1.389 . S
C3190 C3191 1.387 . S
C3191 H3176 0.930 . S
C3191 C3186 1.390 . S
C3191 C3190 1.387 . S
H3192 C3204 0.930 . S
H3193 C3206 0.930 . S
H3194 C3207 0.930 . S
H3195 C3211 0.959 . S
H3196 C3211 0.959 . S
H3197 C3211 0.961 . S
H3198 C3212 0.960 . S
H3199 C3212 0.961 . S
H3200 C3212 0.959 . S
H3201 C3215 0.929 . S
H3202 C3216 0.931 . S
H3203 C3218 0.930 . S
C3204 H3192 0.930 . S
C3204 C3205 1.399 . S
C3204 C3209 1.399 . S
C3205 C3204 1.399 . S
C3205 C3206 1.376 . S
C3206 H3193 0.930 . S
C3206 C3205 1.376 . S
C3206 C3207 1.388 . S
C3207 H3194 0.930 . S
C3207 C3206 1.388 . S
C3207 C3208 1.390 . S
C3208 C3207 1.390 . S
C3208 C3209 1.394 . S
C3208 C3214 1.465 . S
C3209 C3204 1.399 . S
C3209 C3208 1.394 . S
C3209 C3210 1.516 . S
C3210 C3209 1.516 . S
C3210 C3211 1.502 . S
C3210 C3212 1.561 . S
C3210 C3213 1.526 . S
C3211 H3195 0.959 . S
C3211 H3196 0.959 . S
C3211 H3197 0.961 . S
C3211 C3210 1.502 . S
C3212 H3198 0.960 . S
C3212 H3199 0.961 . S
C3212 H3200 0.959 . S
C3212 C3210 1.561 . S
C3213 C3210 1.526 . S
C3213 C3214 1.396 . S
C3213 C3218 1.390 . S
C3214 C3208 1.465 . S
C3214 C3213 1.396 . S
C3214 C3215 1.399 . S
C3215 H3201 0.929 . S
C3215 C3214 1.399 . S
C3215 C3216 1.385 . S
C3216 H3202 0.931 . S
C3216 C3215 1.385 . S
C3216 C3217 1.389 . S
C3217 C3216 1.389 . S
C3217 C3218 1.387 . S
C3218 H3203 0.930 . S
C3218 C3213 1.390 . S
C3218 C3217 1.387 . S
H3219 C3231 0.930 . S
H3220 C3233 0.930 1_554 S
H3221 C3234 0.930 . S
H3222 C3238 0.959 . S
H3223 C3238 0.959 . S
H3224 C3238 0.961 . S
H3225 C3239 0.960 . S
H3226 C3239 0.961 . S
H3227 C3239 0.959 . S
H3228 C3242 0.929 . S
H3229 C3243 0.931 . S
H3230 C3245 0.930 . S
C3231 H3219 0.930 . S
C3231 C3232 1.399 . S
C3231 C3236 1.399 . S
C3232 C3231 1.399 . S
C3232 C3233 1.376 . S
C3233 H3220 0.930 1_556 S
C3233 C3232 1.376 . S
C3233 C3234 1.388 . S
C3234 H3221 0.930 . S
C3234 C3233 1.388 . S
C3234 C3235 1.390 . S
C3235 C3234 1.390 . S
C3235 C3236 1.394 . S
C3235 C3241 1.465 . S
C3236 C3231 1.399 . S
C3236 C3235 1.394 . S
C3236 C3237 1.516 . S
C3237 C3236 1.516 . S
C3237 C3238 1.502 . S
C3237 C3239 1.561 . S
C3237 C3240 1.526 . S
C3238 H3222 0.959 . S
C3238 H3223 0.959 . S
C3238 H3224 0.961 . S
C3238 C3237 1.502 . S
C3239 H3225 0.960 . S
C3239 H3226 0.961 . S
C3239 H3227 0.959 . S
C3239 C3237 1.561 . S
C3240 C3237 1.526 . S
C3240 C3241 1.396 . S
C3240 C3245 1.390 . S
C3241 C3235 1.465 . S
C3241 C3240 1.396 . S
C3241 C3242 1.399 . S
C3242 H3228 0.929 . S
C3242 C3241 1.399 . S
C3242 C3243 1.385 . S
C3243 H3229 0.931 . S
C3243 C3242 1.385 . S
C3243 C3244 1.389 . S
C3244 C3243 1.389 . S
C3244 C3245 1.387 . S
C3245 H3230 0.930 . S
C3245 C3240 1.390 . S
C3245 C3244 1.387 . S
H3246 C3258 0.930 . S
H3247 C3260 0.930 . S
H3248 C3261 0.930 . S
H3249 C3265 0.959 . S
H3250 C3265 0.959 . S
H3251 C3265 0.961 . S
H3252 C3266 0.960 . S
H3253 C3266 0.961 . S
H3254 C3266 0.959 . S
H3255 C3269 0.929 . S
H3256 C3270 0.931 . S
H3257 C3272 0.930 . S
C3258 H3246 0.930 . S
C3258 C3259 1.399 . S
C3258 C3263 1.399 . S
C3259 C3258 1.399 . S
C3259 C3260 1.376 . S
C3260 H3247 0.930 . S
C3260 C3259 1.376 . S
C3260 C3261 1.388 . S
C3261 H3248 0.930 . S
C3261 C3260 1.388 . S
C3261 C3262 1.390 . S
C3262 C3261 1.390 . S
C3262 C3263 1.394 . S
C3262 C3268 1.465 . S
C3263 C3258 1.399 . S
C3263 C3262 1.394 . S
C3263 C3264 1.516 . S
C3264 C3263 1.516 . S
C3264 C3265 1.502 . S
C3264 C3266 1.561 . S
C3264 C3267 1.526 . S
C3265 H3249 0.959 . S
C3265 H3250 0.959 . S
C3265 H3251 0.961 . S
C3265 C3264 1.502 . S
C3266 H3252 0.960 . S
C3266 H3253 0.961 . S
C3266 H3254 0.959 . S
C3266 C3264 1.561 . S
C3267 C3264 1.526 . S
C3267 C3268 1.396 . S
C3267 C3272 1.390 . S
C3268 C3262 1.465 . S
C3268 C3267 1.396 . S
C3268 C3269 1.399 . S
C3269 H3255 0.929 . S
C3269 C3268 1.399 . S
C3269 C3270 1.385 . S
C3270 H3256 0.931 . S
C3270 C3269 1.385 . S
C3270 C3271 1.389 . S
C3271 C3270 1.389 . S
C3271 C3272 1.387 . S
C3272 H3257 0.930 . S
C3272 C3267 1.390 . S
C3272 C3271 1.387 . S
H3273 C3285 0.930 . S
H3274 C3287 0.930 . S
H3275 C3288 0.930 . S
H3276 C3292 0.959 . S
H3277 C3292 0.959 . S
H3278 C3292 0.961 . S
H3279 C3293 0.960 . S
H3280 C3293 0.961 . S
H3281 C3293 0.959 . S
H3282 C3296 0.929 . S
H3283 C3297 0.931 . S
H3284 C3299 0.930 . S
C3285 H3273 0.930 . S
C3285 C3286 1.399 . S
C3285 C3290 1.399 . S
C3286 C3285 1.399 . S
C3286 C3287 1.376 . S
C3287 H3274 0.930 . S
C3287 C3286 1.376 . S
C3287 C3288 1.388 . S
C3288 H3275 0.930 . S
C3288 C3287 1.388 . S
C3288 C3289 1.390 . S
C3289 C3288 1.390 . S
C3289 C3290 1.394 . S
C3289 C3295 1.465 . S
C3290 C3285 1.399 . S
C3290 C3289 1.394 . S
C3290 C3291 1.516 . S
C3291 C3290 1.516 . S
C3291 C3292 1.502 . S
C3291 C3293 1.561 . S
C3291 C3294 1.526 . S
C3292 H3276 0.959 . S
C3292 H3277 0.959 . S
C3292 H3278 0.961 . S
C3292 C3291 1.502 . S
C3293 H3279 0.960 . S
C3293 H3280 0.961 . S
C3293 H3281 0.959 . S
C3293 C3291 1.561 . S
C3294 C3291 1.526 . S
C3294 C3295 1.396 . S
C3294 C3299 1.390 . S
C3295 C3289 1.465 . S
C3295 C3294 1.396 . S
C3295 C3296 1.399 . S
C3296 H3282 0.929 . S
C3296 C3295 1.399 . S
C3296 C3297 1.385 . S
C3297 H3283 0.931 . S
C3297 C3296 1.385 . S
C3297 C3298 1.389 . S
C3298 C3297 1.389 . S
C3298 C3299 1.387 . S
C3299 H3284 0.930 . S
C3299 C3294 1.390 . S
C3299 C3298 1.387 . S
H3300 C3312 0.930 . S
H3301 C3314 0.930 . S
H3302 C3315 0.930 . S
H3303 C3319 0.959 . S
H3304 C3319 0.959 . S
H3305 C3319 0.961 . S
H3306 C3320 0.960 . S
H3307 C3320 0.961 . S
H3308 C3320 0.959 . S
H3309 C3323 0.929 . S
H3310 C3324 0.931 . S
H3311 C3326 0.930 . S
C3312 H3300 0.930 . S
C3312 C3313 1.399 . S
C3312 C3317 1.399 . S
C3313 C3312 1.399 . S
C3313 C3314 1.376 . S
C3314 H3301 0.930 . S
C3314 C3313 1.376 . S
C3314 C3315 1.388 . S
C3315 H3302 0.930 . S
C3315 C3314 1.388 . S
C3315 C3316 1.390 . S
C3316 C3315 1.390 . S
C3316 C3317 1.394 . S
C3316 C3322 1.465 . S
C3317 C3312 1.399 . S
C3317 C3316 1.394 . S
C3317 C3318 1.516 . S
C3318 C3317 1.516 . S
C3318 C3319 1.502 . S
C3318 C3320 1.561 . S
C3318 C3321 1.526 . S
C3319 H3303 0.959 . S
C3319 H3304 0.959 . S
C3319 H3305 0.961 . S
C3319 C3318 1.502 . S
C3320 H3306 0.960 . S
C3320 H3307 0.961 . S
C3320 H3308 0.959 . S
C3320 C3318 1.561 . S
C3321 C3318 1.526 . S
C3321 C3322 1.396 . S
C3321 C3326 1.390 . S
C3322 C3316 1.465 . S
C3322 C3321 1.396 . S
C3322 C3323 1.399 . S
C3323 H3309 0.929 . S
C3323 C3322 1.399 . S
C3323 C3324 1.385 . S
C3324 H3310 0.931 . S
C3324 C3323 1.385 . S
C3324 C3325 1.389 . S
C3325 C3324 1.389 . S
C3325 C3326 1.387 . S
C3326 H3311 0.930 . S
C3326 C3321 1.390 . S
C3326 C3325 1.387 . S
H3327 C3339 0.930 . S
H3328 C3341 0.930 . S
H3329 C3342 0.930 . S
H3330 C3346 0.959 . S
H3331 C3346 0.959 . S
H3332 C3346 0.961 . S
H3333 C3347 0.960 . S
H3334 C3347 0.961 . S
H3335 C3347 0.959 . S
H3336 C3350 0.929 . S
H3337 C3351 0.931 . S
H3338 C3353 0.930 . S
C3339 H3327 0.930 . S
C3339 C3340 1.399 . S
C3339 C3344 1.399 . S
C3340 C3339 1.399 . S
C3340 C3341 1.376 . S
C3341 H3328 0.930 . S
C3341 C3340 1.376 . S
C3341 C3342 1.388 . S
C3342 H3329 0.930 . S
C3342 C3341 1.388 . S
C3342 C3343 1.390 . S
C3343 C3342 1.390 . S
C3343 C3344 1.394 . S
C3343 C3349 1.465 . S
C3344 C3339 1.399 . S
C3344 C3343 1.394 . S
C3344 C3345 1.516 . S
C3345 C3344 1.516 . S
C3345 C3346 1.502 . S
C3345 C3347 1.561 . S
C3345 C3348 1.526 . S
C3346 H3330 0.959 . S
C3346 H3331 0.959 . S
C3346 H3332 0.961 . S
C3346 C3345 1.502 . S
C3347 H3333 0.960 . S
C3347 H3334 0.961 . S
C3347 H3335 0.959 . S
C3347 C3345 1.561 . S
C3348 C3345 1.526 . S
C3348 C3349 1.396 . S
C3348 C3353 1.390 . S
C3349 C3343 1.465 . S
C3349 C3348 1.396 . S
C3349 C3350 1.399 . S
C3350 H3336 0.929 . S
C3350 C3349 1.399 . S
C3350 C3351 1.385 . S
C3351 H3337 0.931 . S
C3351 C3350 1.385 . S
C3351 C3352 1.389 . S
C3352 C3351 1.389 . S
C3352 C3353 1.387 . S
C3353 H3338 0.930 . S
C3353 C3348 1.390 . S
C3353 C3352 1.387 . S
H3354 C3366 0.930 . S
H3355 C3368 0.930 . S
H3356 C3369 0.930 . S
H3357 C3373 0.959 . S
H3358 C3373 0.959 . S
H3359 C3373 0.961 . S
H3360 C3374 0.960 . S
H3361 C3374 0.961 . S
H3362 C3374 0.959 . S
H3363 C3377 0.929 . S
H3364 C3378 0.931 . S
H3365 C3380 0.930 . S
C3366 H3354 0.930 . S
C3366 C3367 1.399 . S
C3366 C3371 1.399 . S
C3367 C3366 1.399 . S
C3367 C3368 1.376 . S
C3368 H3355 0.930 . S
C3368 C3367 1.376 . S
C3368 C3369 1.388 . S
C3369 H3356 0.930 . S
C3369 C3368 1.388 . S
C3369 C3370 1.390 . S
C3370 C3369 1.390 . S
C3370 C3371 1.394 . S
C3370 C3376 1.465 . S
C3371 C3366 1.399 . S
C3371 C3370 1.394 . S
C3371 C3372 1.516 . S
C3372 C3371 1.516 . S
C3372 C3373 1.502 . S
C3372 C3374 1.561 . S
C3372 C3375 1.526 . S
C3373 H3357 0.959 . S
C3373 H3358 0.959 . S
C3373 H3359 0.961 . S
C3373 C3372 1.502 . S
C3374 H3360 0.960 . S
C3374 H3361 0.961 . S
C3374 H3362 0.959 . S
C3374 C3372 1.561 . S
C3375 C3372 1.526 . S
C3375 C3376 1.396 . S
C3375 C3380 1.390 . S
C3376 C3370 1.465 . S
C3376 C3375 1.396 . S
C3376 C3377 1.399 . S
C3377 H3363 0.929 . S
C3377 C3376 1.399 . S
C3377 C3378 1.385 . S
C3378 H3364 0.931 . S
C3378 C3377 1.385 . S
C3378 C3379 1.389 . S
C3379 C3378 1.389 . S
C3379 C3380 1.387 . S
C3380 H3365 0.930 . S
C3380 C3375 1.390 . S
C3380 C3379 1.387 . S
H3381 C3393 0.930 . S
H3382 C3395 0.930 . S
H3383 C3396 0.930 . S
H3384 C3400 0.959 . S
H3385 C3400 0.959 . S
H3386 C3400 0.961 . S
H3387 C3401 0.960 . S
H3388 C3401 0.961 . S
H3389 C3401 0.959 . S
H3390 C3404 0.929 . S
H3391 C3405 0.931 . S
H3392 C3407 0.930 . S
C3393 H3381 0.930 . S
C3393 C3394 1.399 . S
C3393 C3398 1.399 . S
C3394 C3393 1.399 . S
C3394 C3395 1.376 . S
C3395 H3382 0.930 . S
C3395 C3394 1.376 . S
C3395 C3396 1.388 . S
C3396 H3383 0.930 . S
C3396 C3395 1.388 . S
C3396 C3397 1.390 . S
C3397 C3396 1.390 . S
C3397 C3398 1.394 . S
C3397 C3403 1.465 . S
C3398 C3393 1.399 . S
C3398 C3397 1.394 . S
C3398 C3399 1.516 . S
C3399 C3398 1.516 . S
C3399 C3400 1.502 . S
C3399 C3401 1.561 . S
C3399 C3402 1.526 . S
C3400 H3384 0.959 . S
C3400 H3385 0.959 . S
C3400 H3386 0.961 . S
C3400 C3399 1.502 . S
C3401 H3387 0.960 . S
C3401 H3388 0.961 . S
C3401 H3389 0.959 . S
C3401 C3399 1.561 . S
C3402 C3399 1.526 . S
C3402 C3403 1.396 . S
C3402 C3407 1.390 . S
C3403 C3397 1.465 . S
C3403 C3402 1.396 . S
C3403 C3404 1.399 . S
C3404 H3390 0.929 . S
C3404 C3403 1.399 . S
C3404 C3405 1.385 . S
C3405 H3391 0.931 . S
C3405 C3404 1.385 . S
C3405 C3406 1.389 . S
C3406 C3405 1.389 . S
C3406 C3407 1.387 . S
C3407 H3392 0.930 . S
C3407 C3402 1.390 . S
C3407 C3406 1.387 . S
H3408 C3420 0.930 . S
H3409 C3422 0.930 . S
H3410 C3423 0.930 . S
H3411 C3427 0.959 . S
H3412 C3427 0.959 . S
H3413 C3427 0.961 . S
H3414 C3428 0.960 . S
H3415 C3428 0.961 . S
H3416 C3428 0.959 . S
H3417 C3431 0.929 . S
H3418 C3432 0.931 . S
H3419 C3434 0.930 . S
C3420 H3408 0.930 . S
C3420 C3421 1.399 . S
C3420 C3425 1.399 . S
C3421 C3420 1.399 . S
C3421 C3422 1.376 . S
C3422 H3409 0.930 . S
C3422 C3421 1.376 . S
C3422 C3423 1.388 . S
C3423 H3410 0.930 . S
C3423 C3422 1.388 . S
C3423 C3424 1.390 . S
C3424 C3423 1.390 . S
C3424 C3425 1.394 . S
C3424 C3430 1.465 . S
C3425 C3420 1.399 . S
C3425 C3424 1.394 . S
C3425 C3426 1.516 . S
C3426 C3425 1.516 . S
C3426 C3427 1.502 . S
C3426 C3428 1.561 . S
C3426 C3429 1.526 . S
C3427 H3411 0.959 . S
C3427 H3412 0.959 . S
C3427 H3413 0.961 . S
C3427 C3426 1.502 . S
C3428 H3414 0.960 . S
C3428 H3415 0.961 . S
C3428 H3416 0.959 . S
C3428 C3426 1.561 . S
C3429 C3426 1.526 . S
C3429 C3430 1.396 . S
C3429 C3434 1.390 . S
C3430 C3424 1.465 . S
C3430 C3429 1.396 . S
C3430 C3431 1.399 . S
C3431 H3417 0.929 . S
C3431 C3430 1.399 . S
C3431 C3432 1.385 . S
C3432 H3418 0.931 . S
C3432 C3431 1.385 . S
C3432 C3433 1.389 . S
C3433 C3432 1.389 . S
C3433 C3434 1.387 . S
C3434 H3419 0.930 . S
C3434 C3429 1.390 . S
C3434 C3433 1.387 . S
H3435 C3447 0.930 . S
H3436 C3449 0.930 . S
H3437 C3450 0.930 . S
H3438 C3454 0.959 . S
H3439 C3454 0.959 . S
H3440 C3454 0.961 . S
H3441 C3455 0.960 . S
H3442 C3455 0.961 . S
H3443 C3455 0.959 . S
H3444 C3458 0.929 . S
H3445 C3459 0.931 . S
H3446 C3461 0.930 . S
C3447 H3435 0.930 . S
C3447 C3448 1.399 . S
C3447 C3452 1.399 . S
C3448 C3447 1.399 . S
C3448 C3449 1.376 . S
C3449 H3436 0.930 . S
C3449 C3448 1.376 . S
C3449 C3450 1.388 . S
C3450 H3437 0.930 . S
C3450 C3449 1.388 . S
C3450 C3451 1.390 . S
C3451 C3450 1.390 . S
C3451 C3452 1.394 . S
C3451 C3457 1.465 . S
C3452 C3447 1.399 . S
C3452 C3451 1.394 . S
C3452 C3453 1.516 . S
C3453 C3452 1.516 . S
C3453 C3454 1.502 . S
C3453 C3455 1.561 . S
C3453 C3456 1.526 . S
C3454 H3438 0.959 . S
C3454 H3439 0.959 . S
C3454 H3440 0.961 . S
C3454 C3453 1.502 . S
C3455 H3441 0.960 . S
C3455 H3442 0.961 . S
C3455 H3443 0.959 . S
C3455 C3453 1.561 . S
C3456 C3453 1.526 . S
C3456 C3457 1.396 . S
C3456 C3461 1.390 . S
C3457 C3451 1.465 . S
C3457 C3456 1.396 . S
C3457 C3458 1.399 . S
C3458 H3444 0.929 . S
C3458 C3457 1.399 . S
C3458 C3459 1.385 . S
C3459 H3445 0.931 . S
C3459 C3458 1.385 . S
C3459 C3460 1.389 . S
C3460 C3459 1.389 . S
C3460 C3461 1.387 . S
C3461 H3446 0.930 . S
C3461 C3456 1.390 . S
C3461 C3460 1.387 . S
H3462 C3474 0.930 . S
H3463 C3476 0.930 . S
H3464 C3477 0.930 . S
H3465 C3481 0.959 . S
H3466 C3481 0.959 . S
H3467 C3481 0.961 . S
H3468 C3482 0.960 . S
H3469 C3482 0.961 . S
H3470 C3482 0.959 . S
H3471 C3485 0.929 . S
H3472 C3486 0.931 . S
H3473 C3488 0.930 . S
C3474 H3462 0.930 . S
C3474 C3475 1.399 . S
C3474 C3479 1.399 . S
C3475 C3474 1.399 . S
C3475 C3476 1.376 . S
C3476 H3463 0.930 . S
C3476 C3475 1.376 . S
C3476 C3477 1.388 . S
C3477 H3464 0.930 . S
C3477 C3476 1.388 . S
C3477 C3478 1.390 . S
C3478 C3477 1.390 . S
C3478 C3479 1.394 . S
C3478 C3484 1.465 . S
C3479 C3474 1.399 . S
C3479 C3478 1.394 . S
C3479 C3480 1.516 . S
C3480 C3479 1.516 . S
C3480 C3481 1.502 . S
C3480 C3482 1.561 . S
C3480 C3483 1.526 . S
C3481 H3465 0.959 . S
C3481 H3466 0.959 . S
C3481 H3467 0.961 . S
C3481 C3480 1.502 . S
C3482 H3468 0.960 . S
C3482 H3469 0.961 . S
C3482 H3470 0.959 . S
C3482 C3480 1.561 . S
C3483 C3480 1.526 . S
C3483 C3484 1.396 . S
C3483 C3488 1.390 . S
C3484 C3478 1.465 . S
C3484 C3483 1.396 . S
C3484 C3485 1.399 . S
C3485 H3471 0.929 . S
C3485 C3484 1.399 . S
C3485 C3486 1.385 . S
C3486 H3472 0.931 . S
C3486 C3485 1.385 . S
C3486 C3487 1.389 . S
C3487 C3486 1.389 . S
C3487 C3488 1.387 . S
C3488 H3473 0.930 . S
C3488 C3483 1.390 . S
C3488 C3487 1.387 . S
H3489 C3501 0.930 . S
H3490 C3503 0.930 . S
H3491 C3504 0.930 . S
H3492 C3508 0.959 . S
H3493 C3508 0.959 . S
H3494 C3508 0.961 . S
H3495 C3509 0.960 . S
H3496 C3509 0.961 1_545 S
H3497 C3509 0.959 1_545 S
H3498 C3512 0.929 . S
H3499 C3513 0.931 . S
H3500 C3515 0.925 . S
C3501 H3489 0.930 . S
C3501 C3502 1.399 1_556 S
C3501 C3506 1.399 1_556 S
C3502 C3501 1.399 1_554 S
C3502 C3503 1.376 . S
C3503 H3490 0.930 . S
C3503 C3502 1.376 . S
C3503 C3504 1.388 . S
C3504 H3491 0.930 . S
C3504 C3503 1.388 . S
C3504 C3505 1.390 . S
C3505 C3504 1.390 . S
C3505 C3506 1.394 . S
C3505 C3511 1.465 1_565 S
C3506 C3501 1.399 1_554 S
C3506 C3505 1.394 . S
C3506 C3507 1.516 1_554 S
C3507 C3506 1.516 1_556 S
C3507 C3508 1.502 . S
C3507 C3509 1.561 . S
C3507 C3510 1.526 1_556 S
C3508 H3492 0.959 . S
C3508 H3493 0.959 . S
C3508 H3494 0.961 . S
C3508 C3507 1.502 . S
C3509 H3495 0.960 . S
C3509 H3496 0.961 1_565 S
C3509 H3497 0.959 1_565 S
C3509 C3507 1.561 . S
C3510 C3507 1.526 1_554 S
C3510 C3511 1.396 1_565 S
C3510 C3515 1.391 1_564 S
C3511 C3505 1.465 1_545 S
C3511 C3510 1.396 1_545 S
C3511 C3512 1.399 . S
C3512 H3498 0.929 . S
C3512 C3511 1.399 . S
C3512 C3513 1.385 . S
C3513 H3499 0.931 . S
C3513 C3512 1.385 . S
C3513 C3514 1.389 . S
C3514 C3513 1.389 . S
C3514 C3515 1.390 1_554 S
C3515 H3500 0.925 . S
C3515 C3510 1.391 1_546 S
C3515 C3514 1.390 1_556 S
H3516 C3528 0.930 . S
H3517 C3530 0.930 . S
H3518 C3531 0.930 . S
H3519 C3535 0.959 . S
H3520 C3535 0.959 . S
H3521 C3535 0.961 . S
H3522 C3536 0.960 . S
H3523 C3536 0.961 . S
H3524 C3536 0.959 . S
H3525 C3539 0.929 . S
H3526 C3540 0.931 . S
H3527 C3542 0.930 . S
C3528 H3516 0.930 . S
C3528 C3529 1.399 . S
C3528 C3533 1.399 . S
C3529 C3528 1.399 . S
C3529 C3530 1.376 . S
C3530 H3517 0.930 . S
C3530 C3529 1.376 . S
C3530 C3531 1.388 . S
C3531 H3518 0.930 . S
C3531 C3530 1.388 . S
C3531 C3532 1.390 . S
C3532 C3531 1.390 . S
C3532 C3533 1.394 . S
C3532 C3538 1.465 . S
C3533 C3528 1.399 . S
C3533 C3532 1.394 . S
C3533 C3534 1.516 . S
C3534 C3533 1.516 . S
C3534 C3535 1.502 . S
C3534 C3536 1.561 . S
C3534 C3537 1.526 . S
C3535 H3519 0.959 . S
C3535 H3520 0.959 . S
C3535 H3521 0.961 . S
C3535 C3534 1.502 . S
C3536 H3522 0.960 . S
C3536 H3523 0.961 . S
C3536 H3524 0.959 . S
C3536 C3534 1.561 . S
C3537 C3534 1.526 . S
C3537 C3538 1.396 . S
C3537 C3542 1.390 . S
C3538 C3532 1.465 . S
C3538 C3537 1.396 . S
C3538 C3539 1.399 . S
C3539 H3525 0.929 . S
C3539 C3538 1.399 . S
C3539 C3540 1.385 . S
C3540 H3526 0.931 . S
C3540 C3539 1.385 . S
C3540 C3541 1.389 . S
C3541 C3540 1.389 . S
C3541 C3542 1.387 . S
C3542 H3527 0.930 . S
C3542 C3537 1.390 . S
C3542 C3541 1.387 . S
H3543 C3555 0.930 . S
H3544 C3557 0.930 . S
H3545 C3558 0.930 . S
H3546 C3562 0.959 1_554 S
H3547 C3562 0.959 . S
H3548 C3562 0.961 . S
H3549 C3563 0.960 . S
H3550 C3563 0.961 . S
H3551 C3563 0.959 . S
H3552 C3566 0.929 . S
H3553 C3567 0.931 . S
H3554 C3569 0.930 . S
C3555 H3543 0.930 . S
C3555 C3556 1.399 1_556 S
C3555 C3560 1.399 1_556 S
C3556 C3555 1.399 1_554 S
C3556 C3557 1.376 . S
C3557 H3544 0.930 . S
C3557 C3556 1.376 . S
C3557 C3558 1.388 . S
C3558 H3545 0.930 . S
C3558 C3557 1.388 . S
C3558 C3559 1.390 . S
C3559 C3558 1.390 . S
C3559 C3560 1.394 . S
C3559 C3565 1.465 . S
C3560 C3555 1.399 1_554 S
C3560 C3559 1.394 . S
C3560 C3561 1.516 1_554 S
C3561 C3560 1.516 1_556 S
C3561 C3562 1.502 . S
C3561 C3563 1.561 . S
C3561 C3564 1.526 1_556 S
C3562 H3546 0.959 1_556 S
C3562 H3547 0.959 . S
C3562 H3548 0.961 . S
C3562 C3561 1.502 . S
C3563 H3549 0.960 . S
C3563 H3550 0.961 . S
C3563 H3551 0.959 . S
C3563 C3561 1.561 . S
C3564 C3561 1.526 1_554 S
C3564 C3565 1.396 . S
C3564 C3569 1.390 . S
C3565 C3559 1.465 . S
C3565 C3564 1.396 . S
C3565 C3566 1.399 . S
C3566 H3552 0.929 . S
C3566 C3565 1.399 . S
C3566 C3567 1.385 . S
C3567 H3553 0.931 . S
C3567 C3566 1.385 . S
C3567 C3568 1.389 . S
C3568 C3567 1.389 . S
C3568 C3569 1.387 . S
C3569 H3554 0.930 . S
C3569 C3564 1.390 . S
C3569 C3568 1.387 . S
H3570 C3582 0.930 . S
H3571 C3584 0.930 . S
H3572 C3585 0.930 . S
H3573 C3589 0.959 . S
H3574 C3589 0.959 . S
H3575 C3589 0.961 . S
H3576 C3590 0.960 . S
H3577 C3590 0.961 . S
H3578 C3590 0.959 . S
H3579 C3593 0.929 . S
H3580 C3594 0.931 . S
H3581 C3596 0.930 . S
C3582 H3570 0.930 . S
C3582 C3583 1.399 . S
C3582 C3587 1.399 . S
C3583 C3582 1.399 . S
C3583 C3584 1.376 . S
C3584 H3571 0.930 . S
C3584 C3583 1.376 . S
C3584 C3585 1.388 . S
C3585 H3572 0.930 . S
C3585 C3584 1.388 . S
C3585 C3586 1.390 . S
C3586 C3585 1.390 . S
C3586 C3587 1.394 . S
C3586 C3592 1.465 . S
C3587 C3582 1.399 . S
C3587 C3586 1.394 . S
C3587 C3588 1.516 . S
C3588 C3587 1.516 . S
C3588 C3589 1.502 . S
C3588 C3590 1.561 . S
C3588 C3591 1.526 . S
C3589 H3573 0.959 . S
C3589 H3574 0.959 . S
C3589 H3575 0.961 . S
C3589 C3588 1.502 . S
C3590 H3576 0.960 . S
C3590 H3577 0.961 . S
C3590 H3578 0.959 . S
C3590 C3588 1.561 . S
C3591 C3588 1.526 . S
C3591 C3592 1.396 . S
C3591 C3596 1.390 . S
C3592 C3586 1.465 . S
C3592 C3591 1.396 . S
C3592 C3593 1.399 . S
C3593 H3579 0.929 . S
C3593 C3592 1.399 . S
C3593 C3594 1.385 . S
C3594 H3580 0.931 . S
C3594 C3593 1.385 . S
C3594 C3595 1.389 . S
C3595 C3594 1.389 . S
C3595 C3596 1.387 . S
C3596 H3581 0.930 . S
C3596 C3591 1.390 . S
C3596 C3595 1.387 . S
H3597 C3609 0.930 . S
H3598 C3611 0.930 . S
H3599 C3612 0.930 . S
H3600 C3616 0.959 . S
H3601 C3616 0.959 . S
H3602 C3616 0.961 . S
H3603 C3617 0.960 . S
H3604 C3617 0.961 . S
H3605 C3617 0.959 . S
H3606 C3620 0.929 . S
H3607 C3621 0.931 . S
H3608 C3623 0.930 . S
C3609 H3597 0.930 . S
C3609 C3610 1.399 . S
C3609 C3614 1.399 . S
C3610 C3609 1.399 . S
C3610 C3611 1.376 . S
C3611 H3598 0.930 . S
C3611 C3610 1.376 . S
C3611 C3612 1.388 . S
C3612 H3599 0.930 . S
C3612 C3611 1.388 . S
C3612 C3613 1.390 . S
C3613 C3612 1.390 . S
C3613 C3614 1.394 . S
C3613 C3619 1.465 . S
C3614 C3609 1.399 . S
C3614 C3613 1.394 . S
C3614 C3615 1.516 . S
C3615 C3614 1.516 . S
C3615 C3616 1.502 . S
C3615 C3617 1.561 . S
C3615 C3618 1.526 . S
C3616 H3600 0.959 . S
C3616 H3601 0.959 . S
C3616 H3602 0.961 . S
C3616 C3615 1.502 . S
C3617 H3603 0.960 . S
C3617 H3604 0.961 . S
C3617 H3605 0.959 . S
C3617 C3615 1.561 . S
C3618 C3615 1.526 . S
C3618 C3619 1.396 . S
C3618 C3623 1.390 . S
C3619 C3613 1.465 . S
C3619 C3618 1.396 . S
C3619 C3620 1.399 . S
C3620 H3606 0.929 . S
C3620 C3619 1.399 . S
C3620 C3621 1.385 . S
C3621 H3607 0.931 . S
C3621 C3620 1.385 . S
C3621 C3622 1.389 . S
C3622 C3621 1.389 . S
C3622 C3623 1.387 . S
C3623 H3608 0.930 . S
C3623 C3618 1.390 . S
C3623 C3622 1.387 . S
H3624 C3636 0.930 . S
H3625 C3638 0.930 . S
H3626 C3639 0.930 . S
H3627 C3643 0.959 . S
H3628 C3643 0.959 . S
H3629 C3643 0.961 . S
H3630 C3644 0.960 . S
H3631 C3644 0.961 . S
H3632 C3644 0.959 . S
H3633 C3647 0.929 . S
H3634 C3648 0.931 . S
H3635 C3650 0.930 . S
C3636 H3624 0.930 . S
C3636 C3637 1.399 . S
C3636 C3641 1.399 . S
C3637 C3636 1.399 . S
C3637 C3638 1.376 . S
C3638 H3625 0.930 . S
C3638 C3637 1.376 . S
C3638 C3639 1.388 . S
C3639 H3626 0.930 . S
C3639 C3638 1.388 . S
C3639 C3640 1.390 . S
C3640 C3639 1.390 . S
C3640 C3641 1.394 . S
C3640 C3646 1.465 . S
C3641 C3636 1.399 . S
C3641 C3640 1.394 . S
C3641 C3642 1.516 . S
C3642 C3641 1.516 . S
C3642 C3643 1.502 . S
C3642 C3644 1.561 . S
C3642 C3645 1.526 . S
C3643 H3627 0.959 . S
C3643 H3628 0.959 . S
C3643 H3629 0.961 . S
C3643 C3642 1.502 . S
C3644 H3630 0.960 . S
C3644 H3631 0.961 . S
C3644 H3632 0.959 . S
C3644 C3642 1.561 . S
C3645 C3642 1.526 . S
C3645 C3646 1.396 . S
C3645 C3650 1.390 . S
C3646 C3640 1.465 . S
C3646 C3645 1.396 . S
C3646 C3647 1.399 . S
C3647 H3633 0.929 . S
C3647 C3646 1.399 . S
C3647 C3648 1.385 . S
C3648 H3634 0.931 . S
C3648 C3647 1.385 . S
C3648 C3649 1.389 . S
C3649 C3648 1.389 . S
C3649 C3650 1.387 . S
C3650 H3635 0.930 . S
C3650 C3645 1.390 . S
C3650 C3649 1.387 . S
H3651 C3663 0.930 . S
H3652 C3665 0.930 . S
H3653 C3666 0.930 . S
H3654 C3670 0.959 . S
H3655 C3670 0.959 . S
H3656 C3670 0.961 . S
H3657 C3671 0.960 . S
H3658 C3671 0.961 . S
H3659 C3671 0.959 . S
H3660 C3674 0.929 . S
H3661 C3675 0.931 . S
H3662 C3677 0.930 . S
C3663 H3651 0.930 . S
C3663 C3664 1.399 . S
C3663 C3668 1.399 . S
C3664 C3663 1.399 . S
C3664 C3665 1.376 . S
C3665 H3652 0.930 . S
C3665 C3664 1.376 . S
C3665 C3666 1.388 . S
C3666 H3653 0.930 . S
C3666 C3665 1.388 . S
C3666 C3667 1.390 . S
C3667 C3666 1.390 . S
C3667 C3668 1.394 . S
C3667 C3673 1.465 . S
C3668 C3663 1.399 . S
C3668 C3667 1.394 . S
C3668 C3669 1.516 . S
C3669 C3668 1.516 . S
C3669 C3670 1.502 . S
C3669 C3671 1.561 . S
C3669 C3672 1.526 . S
C3670 H3654 0.959 . S
C3670 H3655 0.959 . S
C3670 H3656 0.961 . S
C3670 C3669 1.502 . S
C3671 H3657 0.960 . S
C3671 H3658 0.961 . S
C3671 H3659 0.959 . S
C3671 C3669 1.561 . S
C3672 C3669 1.526 . S
C3672 C3673 1.396 . S
C3672 C3677 1.390 . S
C3673 C3667 1.465 . S
C3673 C3672 1.396 . S
C3673 C3674 1.399 . S
C3674 H3660 0.929 . S
C3674 C3673 1.399 . S
C3674 C3675 1.385 . S
C3675 H3661 0.931 . S
C3675 C3674 1.385 . S
C3675 C3676 1.389 . S
C3676 C3675 1.389 . S
C3676 C3677 1.387 . S
C3677 H3662 0.930 . S
C3677 C3672 1.390 . S
C3677 C3676 1.387 . S
H3678 C3690 0.930 . S
H3679 C3692 0.930 . S
H3680 C3693 0.930 . S
H3681 C3697 0.959 . S
H3682 C3697 0.959 . S
H3683 C3697 0.961 . S
H3684 C3698 0.960 . S
H3685 C3698 0.961 . S
H3686 C3698 0.959 . S
H3687 C3701 0.929 1_556 S
H3688 C3702 0.931 1_556 S
H3689 C3704 0.930 . S
C3690 H3678 0.930 . S
C3690 C3691 1.399 . S
C3690 C3695 1.399 . S
C3691 C3690 1.399 . S
C3691 C3692 1.376 . S
C3692 H3679 0.930 . S
C3692 C3691 1.376 . S
C3692 C3693 1.388 . S
C3693 H3680 0.930 . S
C3693 C3692 1.388 . S
C3693 C3694 1.390 . S
C3694 C3693 1.390 . S
C3694 C3695 1.394 . S
C3694 C3700 1.465 . S
C3695 C3690 1.399 . S
C3695 C3694 1.394 . S
C3695 C3696 1.516 . S
C3696 C3695 1.516 . S
C3696 C3697 1.502 . S
C3696 C3698 1.561 . S
C3696 C3699 1.526 . S
C3697 H3681 0.959 . S
C3697 H3682 0.959 . S
C3697 H3683 0.961 . S
C3697 C3696 1.502 . S
C3698 H3684 0.960 . S
C3698 H3685 0.961 . S
C3698 H3686 0.959 . S
C3698 C3696 1.561 . S
C3699 C3696 1.526 . S
C3699 C3700 1.396 . S
C3699 C3704 1.390 . S
C3700 C3694 1.465 . S
C3700 C3699 1.396 . S
C3700 C3701 1.399 . S
C3701 H3687 0.929 1_554 S
C3701 C3700 1.399 . S
C3701 C3702 1.385 . S
C3702 H3688 0.931 1_554 S
C3702 C3701 1.385 . S
C3702 C3703 1.389 . S
C3703 C3702 1.389 . S
C3703 C3704 1.387 . S
C3704 H3689 0.930 . S
C3704 C3699 1.390 . S
C3704 C3703 1.387 . S
H3705 C3717 0.930 . S
H3706 C3719 0.930 . S
H3707 C3720 0.930 . S
H3708 C3724 0.959 . S
H3709 C3724 0.959 . S
H3710 C3724 0.961 . S
H3711 C3725 0.960 . S
H3712 C3725 0.961 . S
H3713 C3725 0.959 . S
H3714 C3728 0.929 . S
H3715 C3729 0.931 . S
H3716 C3731 0.930 . S
C3717 H3705 0.930 . S
C3717 C3718 1.399 . S
C3717 C3722 1.399 . S
C3718 C3717 1.399 . S
C3718 C3719 1.376 . S
C3719 H3706 0.930 . S
C3719 C3718 1.376 . S
C3719 C3720 1.388 . S
C3720 H3707 0.930 . S
C3720 C3719 1.388 . S
C3720 C3721 1.390 . S
C3721 C3720 1.390 . S
C3721 C3722 1.394 . S
C3721 C3727 1.465 . S
C3722 C3717 1.399 . S
C3722 C3721 1.394 . S
C3722 C3723 1.516 . S
C3723 C3722 1.516 . S
C3723 C3724 1.502 . S
C3723 C3725 1.561 . S
C3723 C3726 1.526 . S
C3724 H3708 0.959 . S
C3724 H3709 0.959 . S
C3724 H3710 0.961 . S
C3724 C3723 1.502 . S
C3725 H3711 0.960 . S
C3725 H3712 0.961 . S
C3725 H3713 0.959 . S
C3725 C3723 1.561 . S
C3726 C3723 1.526 . S
C3726 C3727 1.396 . S
C3726 C3731 1.390 . S
C3727 C3721 1.465 . S
C3727 C3726 1.396 . S
C3727 C3728 1.399 . S
C3728 H3714 0.929 . S
C3728 C3727 1.399 . S
C3728 C3729 1.385 . S
C3729 H3715 0.931 . S
C3729 C3728 1.385 . S
C3729 C3730 1.389 . S
C3730 C3729 1.389 . S
C3730 C3731 1.387 . S
C3731 H3716 0.930 . S
C3731 C3726 1.390 . S
C3731 C3730 1.387 . S
H3732 C3744 0.930 . S
H3733 C3746 0.930 . S
H3734 C3747 0.930 . S
H3735 C3751 0.959 . S
H3736 C3751 0.959 . S
H3737 C3751 0.961 . S
H3738 C3752 0.960 . S
H3739 C3752 0.961 . S
H3740 C3752 0.959 . S
H3741 C3755 0.929 . S
H3742 C3756 0.931 . S
H3743 C3758 0.930 . S
C3744 H3732 0.930 . S
C3744 C3745 1.399 . S
C3744 C3749 1.399 . S
C3745 C3744 1.399 . S
C3745 C3746 1.376 . S
C3746 H3733 0.930 . S
C3746 C3745 1.376 . S
C3746 C3747 1.388 . S
C3747 H3734 0.930 . S
C3747 C3746 1.388 . S
C3747 C3748 1.390 . S
C3748 C3747 1.390 . S
C3748 C3749 1.394 . S
C3748 C3754 1.465 . S
C3749 C3744 1.399 . S
C3749 C3748 1.394 . S
C3749 C3750 1.516 . S
C3750 C3749 1.516 . S
C3750 C3751 1.502 . S
C3750 C3752 1.561 . S
C3750 C3753 1.526 . S
C3751 H3735 0.959 . S
C3751 H3736 0.959 . S
C3751 H3737 0.961 . S
C3751 C3750 1.502 . S
C3752 H3738 0.960 . S
C3752 H3739 0.961 . S
C3752 H3740 0.959 . S
C3752 C3750 1.561 . S
C3753 C3750 1.526 . S
C3753 C3754 1.396 . S
C3753 C3758 1.390 . S
C3754 C3748 1.465 . S
C3754 C3753 1.396 . S
C3754 C3755 1.399 . S
C3755 H3741 0.929 . S
C3755 C3754 1.399 . S
C3755 C3756 1.385 . S
C3756 H3742 0.931 . S
C3756 C3755 1.385 . S
C3756 C3757 1.389 . S
C3757 C3756 1.389 . S
C3757 C3758 1.387 . S
C3758 H3743 0.930 . S
C3758 C3753 1.390 . S
C3758 C3757 1.387 . S
H3759 C3771 0.930 . S
H3760 C3773 0.930 . S
H3761 C3774 0.930 . S
H3762 C3778 0.959 . S
H3763 C3778 0.959 . S
H3764 C3778 0.961 . S
H3765 C3779 0.960 . S
H3766 C3779 0.961 . S
H3767 C3779 0.959 . S
H3768 C3782 0.929 . S
H3769 C3783 0.931 . S
H3770 C3785 0.930 . S
C3771 H3759 0.930 . S
C3771 C3772 1.399 . S
C3771 C3776 1.399 . S
C3772 C3771 1.399 . S
C3772 C3773 1.376 . S
C3773 H3760 0.930 . S
C3773 C3772 1.376 . S
C3773 C3774 1.388 . S
C3774 H3761 0.930 . S
C3774 C3773 1.388 . S
C3774 C3775 1.390 . S
C3775 C3774 1.390 . S
C3775 C3776 1.394 . S
C3775 C3781 1.465 . S
C3776 C3771 1.399 . S
C3776 C3775 1.394 . S
C3776 C3777 1.516 . S
C3777 C3776 1.516 . S
C3777 C3778 1.502 . S
C3777 C3779 1.561 . S
C3777 C3780 1.526 . S
C3778 H3762 0.959 . S
C3778 H3763 0.959 . S
C3778 H3764 0.961 . S
C3778 C3777 1.502 . S
C3779 H3765 0.960 . S
C3779 H3766 0.961 . S
C3779 H3767 0.959 . S
C3779 C3777 1.561 . S
C3780 C3777 1.526 . S
C3780 C3781 1.396 . S
C3780 C3785 1.390 . S
C3781 C3775 1.465 . S
C3781 C3780 1.396 . S
C3781 C3782 1.399 . S
C3782 H3768 0.929 . S
C3782 C3781 1.399 . S
C3782 C3783 1.385 . S
C3783 H3769 0.931 . S
C3783 C3782 1.385 . S
C3783 C3784 1.389 . S
C3784 C3783 1.389 . S
C3784 C3785 1.387 . S
C3785 H3770 0.930 . S
C3785 C3780 1.390 . S
C3785 C3784 1.387 . S
H3786 C3798 0.930 . S
H3787 C3800 0.930 . S
H3788 C3801 0.930 . S
H3789 C3805 0.959 . S
H3790 C3805 0.959 . S
H3791 C3805 0.961 . S
H3792 C3806 0.960 . S
H3793 C3806 0.961 . S
H3794 C3806 0.959 . S
H3795 C3809 0.929 . S
H3796 C3810 0.931 . S
H3797 C3812 0.930 . S
C3798 H3786 0.930 . S
C3798 C3799 1.399 . S
C3798 C3803 1.399 . S
C3799 C3798 1.399 . S
C3799 C3800 1.376 . S
C3800 H3787 0.930 . S
C3800 C3799 1.376 . S
C3800 C3801 1.388 . S
C3801 H3788 0.930 . S
C3801 C3800 1.388 . S
C3801 C3802 1.390 . S
C3802 C3801 1.390 . S
C3802 C3803 1.394 . S
C3802 C3808 1.465 . S
C3803 C3798 1.399 . S
C3803 C3802 1.394 . S
C3803 C3804 1.516 . S
C3804 C3803 1.516 . S
C3804 C3805 1.502 . S
C3804 C3806 1.561 . S
C3804 C3807 1.526 . S
C3805 H3789 0.959 . S
C3805 H3790 0.959 . S
C3805 H3791 0.961 . S
C3805 C3804 1.502 . S
C3806 H3792 0.960 . S
C3806 H3793 0.961 . S
C3806 H3794 0.959 . S
C3806 C3804 1.561 . S
C3807 C3804 1.526 . S
C3807 C3808 1.396 . S
C3807 C3812 1.390 . S
C3808 C3802 1.465 . S
C3808 C3807 1.396 . S
C3808 C3809 1.399 . S
C3809 H3795 0.929 . S
C3809 C3808 1.399 . S
C3809 C3810 1.385 . S
C3810 H3796 0.931 . S
C3810 C3809 1.385 . S
C3810 C3811 1.389 . S
C3811 C3810 1.389 . S
C3811 C3812 1.387 . S
C3812 H3797 0.930 . S
C3812 C3807 1.390 . S
C3812 C3811 1.387 . S
H3813 C3825 0.930 . S
H3814 C3827 0.930 . S
H3815 C3828 0.930 . S
H3816 C3832 0.959 . S
H3817 C3832 0.959 . S
H3818 C3832 0.961 . S
H3819 C3833 0.960 . S
H3820 C3833 0.961 . S
H3821 C3833 0.959 . S
H3822 C3836 0.929 . S
H3823 C3837 0.931 . S
H3824 C3839 0.930 . S
C3825 H3813 0.930 . S
C3825 C3826 1.399 . S
C3825 C3830 1.399 . S
C3826 C3825 1.399 . S
C3826 C3827 1.376 . S
C3827 H3814 0.930 . S
C3827 C3826 1.376 . S
C3827 C3828 1.388 . S
C3828 H3815 0.930 . S
C3828 C3827 1.388 . S
C3828 C3829 1.390 . S
C3829 C3828 1.390 . S
C3829 C3830 1.394 . S
C3829 C3835 1.465 . S
C3830 C3825 1.399 . S
C3830 C3829 1.394 . S
C3830 C3831 1.516 . S
C3831 C3830 1.516 . S
C3831 C3832 1.502 . S
C3831 C3833 1.561 . S
C3831 C3834 1.526 . S
C3832 H3816 0.959 . S
C3832 H3817 0.959 . S
C3832 H3818 0.961 . S
C3832 C3831 1.502 . S
C3833 H3819 0.960 . S
C3833 H3820 0.961 . S
C3833 H3821 0.959 . S
C3833 C3831 1.561 . S
C3834 C3831 1.526 . S
C3834 C3835 1.396 . S
C3834 C3839 1.390 . S
C3835 C3829 1.465 . S
C3835 C3834 1.396 . S
C3835 C3836 1.399 . S
C3836 H3822 0.929 . S
C3836 C3835 1.399 . S
C3836 C3837 1.385 . S
C3837 H3823 0.931 . S
C3837 C3836 1.385 . S
C3837 C3838 1.389 . S
C3838 C3837 1.389 . S
C3838 C3839 1.387 . S
C3839 H3824 0.930 . S
C3839 C3834 1.390 . S
C3839 C3838 1.387 . S
H3840 C3852 0.930 . S
H3841 C3854 0.930 . S
H3842 C3855 0.930 . S
H3843 C3859 0.959 . S
H3844 C3859 0.959 . S
H3845 C3859 0.961 . S
H3846 C3860 0.960 . S
H3847 C3860 0.961 . S
H3848 C3860 0.959 . S
H3849 C3863 0.929 . S
H3850 C3864 0.931 . S
H3851 C3866 0.930 . S
C3852 H3840 0.930 . S
C3852 C3853 1.399 . S
C3852 C3857 1.399 . S
C3853 C3852 1.399 . S
C3853 C3854 1.376 . S
C3854 H3841 0.930 . S
C3854 C3853 1.376 . S
C3854 C3855 1.388 . S
C3855 H3842 0.930 . S
C3855 C3854 1.388 . S
C3855 C3856 1.390 . S
C3856 C3855 1.390 . S
C3856 C3857 1.394 . S
C3856 C3862 1.465 . S
C3857 C3852 1.399 . S
C3857 C3856 1.394 . S
C3857 C3858 1.516 . S
C3858 C3857 1.516 . S
C3858 C3859 1.502 . S
C3858 C3860 1.561 . S
C3858 C3861 1.526 . S
C3859 H3843 0.959 . S
C3859 H3844 0.959 . S
C3859 H3845 0.961 . S
C3859 C3858 1.502 . S
C3860 H3846 0.960 . S
C3860 H3847 0.961 . S
C3860 H3848 0.959 . S
C3860 C3858 1.561 . S
C3861 C3858 1.526 . S
C3861 C3862 1.396 . S
C3861 C3866 1.390 . S
C3862 C3856 1.465 . S
C3862 C3861 1.396 . S
C3862 C3863 1.399 . S
C3863 H3849 0.929 . S
C3863 C3862 1.399 . S
C3863 C3864 1.385 . S
C3864 H3850 0.931 . S
C3864 C3863 1.385 . S
C3864 C3865 1.389 . S
C3865 C3864 1.389 . S
C3865 C3866 1.387 . S
C3866 H3851 0.930 . S
C3866 C3861 1.390 . S
C3866 C3865 1.387 . S
H3867 C3879 0.930 . S
H3868 C3881 0.930 . S
H3869 C3882 0.930 . S
H3870 C3886 0.959 . S
H3871 C3886 0.959 . S
H3872 C3886 0.961 . S
H3873 C3887 0.960 . S
H3874 C3887 0.961 . S
H3875 C3887 0.959 . S
H3876 C3890 0.929 . S
H3877 C3891 0.931 . S
H3878 C3893 0.930 . S
C3879 H3867 0.930 . S
C3879 C3880 1.399 . S
C3879 C3884 1.399 . S
C3880 C3879 1.399 . S
C3880 C3881 1.376 . S
C3881 H3868 0.930 . S
C3881 C3880 1.376 . S
C3881 C3882 1.388 . S
C3882 H3869 0.930 . S
C3882 C3881 1.388 . S
C3882 C3883 1.390 . S
C3883 C3882 1.390 . S
C3883 C3884 1.394 . S
C3883 C3889 1.465 . S
C3884 C3879 1.399 . S
C3884 C3883 1.394 . S
C3884 C3885 1.516 . S
C3885 C3884 1.516 . S
C3885 C3886 1.502 . S
C3885 C3887 1.561 . S
C3885 C3888 1.526 . S
C3886 H3870 0.959 . S
C3886 H3871 0.959 . S
C3886 H3872 0.961 . S
C3886 C3885 1.502 . S
C3887 H3873 0.960 . S
C3887 H3874 0.961 . S
C3887 H3875 0.959 . S
C3887 C3885 1.561 . S
C3888 C3885 1.526 . S
C3888 C3889 1.396 . S
C3888 C3893 1.390 . S
C3889 C3883 1.465 . S
C3889 C3888 1.396 . S
C3889 C3890 1.399 . S
C3890 H3876 0.929 . S
C3890 C3889 1.399 . S
C3890 C3891 1.385 . S
C3891 H3877 0.931 . S
C3891 C3890 1.385 . S
C3891 C3892 1.389 . S
C3892 C3891 1.389 . S
C3892 C3893 1.387 . S
C3893 H3878 0.930 . S
C3893 C3888 1.390 . S
C3893 C3892 1.387 . S
H3894 C3906 0.930 . S
H3895 C3908 0.930 . S
H3896 C3909 0.930 . S
H3897 C3913 0.959 . S
H3898 C3913 0.959 . S
H3899 C3913 0.961 . S
H3900 C3914 0.960 . S
H3901 C3914 0.961 . S
H3902 C3914 0.959 . S
H3903 C3917 0.929 . S
H3904 C3918 0.931 . S
H3905 C3920 0.930 . S
C3906 H3894 0.930 . S
C3906 C3907 1.399 . S
C3906 C3911 1.399 . S
C3907 C3906 1.399 . S
C3907 C3908 1.376 . S
C3908 H3895 0.930 . S
C3908 C3907 1.376 . S
C3908 C3909 1.388 . S
C3909 H3896 0.930 . S
C3909 C3908 1.388 . S
C3909 C3910 1.390 . S
C3910 C3909 1.390 . S
C3910 C3911 1.394 . S
C3910 C3916 1.465 . S
C3911 C3906 1.399 . S
C3911 C3910 1.394 . S
C3911 C3912 1.516 . S
C3912 C3911 1.516 . S
C3912 C3913 1.502 1_655 S
C3912 C3914 1.561 . S
C3912 C3915 1.519 1_655 S
C3913 H3897 0.959 . S
C3913 H3898 0.959 . S
C3913 H3899 0.961 . S
C3913 C3912 1.502 1_455 S
C3914 H3900 0.960 . S
C3914 H3901 0.961 . S
C3914 H3902 0.959 . S
C3914 C3912 1.561 . S
C3915 C3912 1.519 1_455 S
C3915 C3916 1.393 1_455 S
C3915 C3920 1.398 . S
C3916 C3910 1.465 . S
C3916 C3915 1.393 1_655 S
C3916 C3917 1.399 . S
C3917 H3903 0.929 . S
C3917 C3916 1.399 . S
C3917 C3918 1.385 1_655 S
C3918 H3904 0.931 . S
C3918 C3917 1.385 1_455 S
C3918 C3919 1.389 . S
C3919 C3918 1.389 . S
C3919 C3920 1.387 . S
C3920 H3905 0.930 . S
C3920 C3915 1.398 . S
C3920 C3919 1.387 . S
H3921 C3933 0.930 . S
H3922 C3935 0.930 . S
H3923 C3936 0.930 . S
H3924 C3940 0.959 . S
H3925 C3940 0.959 . S
H3926 C3940 0.961 . S
H3927 C3941 0.960 . S
H3928 C3941 0.961 . S
H3929 C3941 0.959 . S
H3930 C3944 0.929 . S
H3931 C3945 0.931 . S
H3932 C3947 0.930 . S
C3933 H3921 0.930 . S
C3933 C3934 1.399 . S
C3933 C3938 1.399 . S
C3934 C3933 1.399 . S
C3934 C3935 1.376 . S
C3935 H3922 0.930 . S
C3935 C3934 1.376 . S
C3935 C3936 1.388 . S
C3936 H3923 0.930 . S
C3936 C3935 1.388 . S
C3936 C3937 1.390 . S
C3937 C3936 1.390 . S
C3937 C3938 1.394 . S
C3937 C3943 1.465 . S
C3938 C3933 1.399 . S
C3938 C3937 1.394 . S
C3938 C3939 1.516 . S
C3939 C3938 1.516 . S
C3939 C3940 1.502 . S
C3939 C3941 1.561 . S
C3939 C3942 1.526 . S
C3940 H3924 0.959 . S
C3940 H3925 0.959 . S
C3940 H3926 0.961 . S
C3940 C3939 1.502 . S
C3941 H3927 0.960 . S
C3941 H3928 0.961 . S
C3941 H3929 0.959 . S
C3941 C3939 1.561 . S
C3942 C3939 1.526 . S
C3942 C3943 1.396 . S
C3942 C3947 1.390 . S
C3943 C3937 1.465 . S
C3943 C3942 1.396 . S
C3943 C3944 1.399 . S
C3944 H3930 0.929 . S
C3944 C3943 1.399 . S
C3944 C3945 1.385 . S
C3945 H3931 0.931 . S
C3945 C3944 1.385 . S
C3945 C3946 1.389 . S
C3946 C3945 1.389 . S
C3946 C3947 1.387 . S
C3947 H3932 0.930 . S
C3947 C3942 1.390 . S
C3947 C3946 1.387 . S
H3948 C3960 0.930 . S
H3949 C3962 0.930 . S
H3950 C3963 0.930 . S
H3951 C3967 0.959 . S
H3952 C3967 0.959 . S
H3953 C3967 0.961 . S
H3954 C3968 0.960 . S
H3955 C3968 0.961 . S
H3956 C3968 0.959 . S
H3957 C3971 0.929 . S
H3958 C3972 0.931 . S
H3959 C3974 0.930 . S
C3960 H3948 0.930 . S
C3960 C3961 1.399 . S
C3960 C3965 1.399 . S
C3961 C3960 1.399 . S
C3961 C3962 1.376 . S
C3962 H3949 0.930 . S
C3962 C3961 1.376 . S
C3962 C3963 1.388 . S
C3963 H3950 0.930 . S
C3963 C3962 1.388 . S
C3963 C3964 1.390 . S
C3964 C3963 1.390 . S
C3964 C3965 1.394 . S
C3964 C3970 1.465 . S
C3965 C3960 1.399 . S
C3965 C3964 1.394 . S
C3965 C3966 1.516 . S
C3966 C3965 1.516 . S
C3966 C3967 1.502 . S
C3966 C3968 1.561 . S
C3966 C3969 1.526 . S
C3967 H3951 0.959 . S
C3967 H3952 0.959 . S
C3967 H3953 0.961 . S
C3967 C3966 1.502 . S
C3968 H3954 0.960 . S
C3968 H3955 0.961 . S
C3968 H3956 0.959 . S
C3968 C3966 1.561 . S
C3969 C3966 1.526 . S
C3969 C3970 1.396 . S
C3969 C3974 1.390 . S
C3970 C3964 1.465 . S
C3970 C3969 1.396 . S
C3970 C3971 1.399 . S
C3971 H3957 0.929 . S
C3971 C3970 1.399 . S
C3971 C3972 1.385 . S
C3972 H3958 0.931 . S
C3972 C3971 1.385 . S
C3972 C3973 1.389 . S
C3973 C3972 1.389 . S
C3973 C3974 1.387 . S
C3974 H3959 0.930 . S
C3974 C3969 1.390 . S
C3974 C3973 1.387 . S
H3975 C3987 0.930 . S
H3976 C3989 0.930 . S
H3977 C3990 0.930 . S
H3978 C3994 0.959 . S
H3979 C3994 0.959 . S
H3980 C3994 0.961 . S
H3981 C3995 0.960 . S
H3982 C3995 0.961 . S
H3983 C3995 0.959 . S
H3984 C3998 0.929 . S
H3985 C3999 0.931 . S
H3986 C4001 0.930 . S
C3987 H3975 0.930 . S
C3987 C3988 1.399 . S
C3987 C3992 1.399 . S
C3988 C3987 1.399 . S
C3988 C3989 1.376 . S
C3989 H3976 0.930 . S
C3989 C3988 1.376 . S
C3989 C3990 1.388 . S
C3990 H3977 0.930 . S
C3990 C3989 1.388 . S
C3990 C3991 1.390 . S
C3991 C3990 1.390 . S
C3991 C3992 1.394 . S
C3991 C3997 1.465 . S
C3992 C3987 1.399 . S
C3992 C3991 1.394 . S
C3992 C3993 1.516 . S
C3993 C3992 1.516 . S
C3993 C3994 1.502 . S
C3993 C3995 1.561 . S
C3993 C3996 1.526 . S
C3994 H3978 0.959 . S
C3994 H3979 0.959 . S
C3994 H3980 0.961 . S
C3994 C3993 1.502 . S
C3995 H3981 0.960 . S
C3995 H3982 0.961 . S
C3995 H3983 0.959 . S
C3995 C3993 1.561 . S
C3996 C3993 1.526 . S
C3996 C3997 1.396 . S
C3996 C4001 1.390 . S
C3997 C3991 1.465 . S
C3997 C3996 1.396 . S
C3997 C3998 1.399 . S
C3998 H3984 0.929 . S
C3998 C3997 1.399 . S
C3998 C3999 1.385 . S
C3999 H3985 0.931 . S
C3999 C3998 1.385 . S
C3999 C4000 1.389 . S
C4000 C3999 1.389 . S
C4000 C4001 1.387 . S
C4001 H3986 0.930 . S
C4001 C3996 1.390 . S
C4001 C4000 1.387 . S
H4002 C4014 0.930 . S
H4003 C4016 0.930 . S
H4004 C4017 0.930 . S
H4005 C4021 0.952 1_455 S
H4006 C4021 0.923 1_455 S
H4007 C4021 0.969 . S
H4008 C4022 0.960 . S
H4009 C4022 0.961 . S
H4010 C4022 0.959 . S
H4011 C4025 0.929 . S
H4012 C4026 0.931 . S
H4013 C4028 0.930 1_455 S
C4014 H4002 0.930 . S
C4014 C4015 1.399 . S
C4014 C4019 1.399 . S
C4015 C4014 1.399 . S
C4015 C4016 1.376 . S
C4016 H4003 0.930 . S
C4016 C4015 1.376 . S
C4016 C4017 1.388 . S
C4017 H4004 0.930 . S
C4017 C4016 1.388 . S
C4017 C4018 1.390 . S
C4018 C4017 1.390 . S
C4018 C4019 1.394 . S
C4018 C4024 1.465 . S
C4019 C4014 1.399 . S
C4019 C4018 1.394 . S
C4019 C4020 1.516 . S
C4020 C4019 1.516 . S
C4020 C4021 1.541 . S
C4020 C4022 1.561 . S
C4020 C4023 1.526 . S
C4021 H4005 0.952 1_655 S
C4021 H4006 0.923 1_655 S
C4021 H4007 0.969 . S
C4021 C4020 1.541 . S
C4022 H4008 0.960 . S
C4022 H4009 0.961 . S
C4022 H4010 0.959 . S
C4022 C4020 1.561 . S
C4023 C4020 1.526 . S
C4023 C4024 1.396 . S
C4023 C4028 1.390 . S
C4024 C4018 1.465 . S
C4024 C4023 1.396 . S
C4024 C4025 1.399 . S
C4025 H4011 0.929 . S
C4025 C4024 1.399 . S
C4025 C4026 1.385 . S
C4026 H4012 0.931 . S
C4026 C4025 1.385 . S
C4026 C4027 1.389 . S
C4027 C4026 1.389 . S
C4027 C4028 1.387 . S
C4028 H4013 0.930 1_655 S
C4028 C4023 1.390 . S
C4028 C4027 1.387 . S
H4029 C4041 0.930 . S
H4030 C4043 0.930 . S
H4031 C4044 0.930 . S
H4032 C4048 0.959 . S
H4033 C4048 0.959 . S
H4034 C4048 0.961 . S
H4035 C4049 0.960 . S
H4036 C4049 0.961 . S
H4037 C4049 0.959 . S
H4038 C4052 0.929 . S
H4039 C4053 0.931 . S
H4040 C4055 0.930 . S
C4041 H4029 0.930 . S
C4041 C4042 1.399 . S
C4041 C4046 1.399 . S
C4042 C4041 1.399 . S
C4042 C4043 1.376 . S
C4043 H4030 0.930 . S
C4043 C4042 1.376 . S
C4043 C4044 1.388 . S
C4044 H4031 0.930 . S
C4044 C4043 1.388 . S
C4044 C4045 1.390 . S
C4045 C4044 1.390 . S
C4045 C4046 1.394 . S
C4045 C4051 1.465 . S
C4046 C4041 1.399 . S
C4046 C4045 1.394 . S
C4046 C4047 1.516 . S
C4047 C4046 1.516 . S
C4047 C4048 1.502 . S
C4047 C4049 1.561 . S
C4047 C4050 1.526 . S
C4048 H4032 0.959 . S
C4048 H4033 0.959 . S
C4048 H4034 0.961 . S
C4048 C4047 1.502 . S
C4049 H4035 0.960 . S
C4049 H4036 0.961 . S
C4049 H4037 0.959 . S
C4049 C4047 1.561 . S
C4050 C4047 1.526 . S
C4050 C4051 1.396 . S
C4050 C4055 1.390 . S
C4051 C4045 1.465 . S
C4051 C4050 1.396 . S
C4051 C4052 1.399 . S
C4052 H4038 0.929 . S
C4052 C4051 1.399 . S
C4052 C4053 1.385 . S
C4053 H4039 0.931 . S
C4053 C4052 1.385 . S
C4053 C4054 1.389 . S
C4054 C4053 1.389 . S
C4054 C4055 1.387 . S
C4055 H4040 0.930 . S
C4055 C4050 1.390 . S
C4055 C4054 1.387 . S
H4056 C4068 0.930 . S
H4057 C4070 0.930 . S
H4058 C4071 0.930 . S
H4059 C4075 0.959 . S
H4060 C4075 0.959 . S
H4061 C4075 0.961 . S
H4062 C4076 0.960 . S
H4063 C4076 0.961 . S
H4064 C4076 0.959 . S
H4065 C4079 0.929 . S
H4066 C4080 0.931 . S
H4067 C4082 0.930 . S
C4068 H4056 0.930 . S
C4068 C4069 1.399 . S
C4068 C4073 1.399 . S
C4069 C4068 1.399 . S
C4069 C4070 1.376 . S
C4070 H4057 0.930 . S
C4070 C4069 1.376 . S
C4070 C4071 1.388 . S
C4071 H4058 0.930 . S
C4071 C4070 1.388 . S
C4071 C4072 1.390 . S
C4072 C4071 1.390 . S
C4072 C4073 1.394 . S
C4072 C4078 1.465 . S
C4073 C4068 1.399 . S
C4073 C4072 1.394 . S
C4073 C4074 1.516 . S
C4074 C4073 1.516 . S
C4074 C4075 1.502 . S
C4074 C4076 1.561 . S
C4074 C4077 1.526 . S
C4075 H4059 0.959 . S
C4075 H4060 0.959 . S
C4075 H4061 0.961 . S
C4075 C4074 1.502 . S
C4076 H4062 0.960 . S
C4076 H4063 0.961 . S
C4076 H4064 0.959 . S
C4076 C4074 1.561 . S
C4077 C4074 1.526 . S
C4077 C4078 1.396 . S
C4077 C4082 1.390 . S
C4078 C4072 1.465 . S
C4078 C4077 1.396 . S
C4078 C4079 1.399 . S
C4079 H4065 0.929 . S
C4079 C4078 1.399 . S
C4079 C4080 1.385 . S
C4080 H4066 0.931 . S
C4080 C4079 1.385 . S
C4080 C4081 1.389 . S
C4081 C4080 1.389 . S
C4081 C4082 1.387 . S
C4082 H4067 0.930 . S
C4082 C4077 1.390 . S
C4082 C4081 1.387 . S
H4083 C4095 0.930 . S
H4084 C4097 0.930 . S
H4085 C4098 0.930 . S
H4086 C4102 0.959 . S
H4087 C4102 0.959 . S
H4088 C4102 0.961 . S
H4089 C4103 0.960 . S
H4090 C4103 0.961 . S
H4091 C4103 0.959 . S
H4092 C4106 0.925 . S
H4093 C4107 0.931 . S
H4094 C4109 0.930 . S
C4095 H4083 0.930 . S
C4095 C4096 1.399 . S
C4095 C4100 1.399 . S
C4096 C4095 1.399 . S
C4096 C4097 1.376 . S
C4097 H4084 0.930 . S
C4097 C4096 1.376 . S
C4097 C4098 1.388 . S
C4098 H4085 0.930 . S
C4098 C4097 1.388 . S
C4098 C4099 1.390 . S
C4099 C4098 1.390 . S
C4099 C4100 1.394 . S
C4099 C4105 1.465 . S
C4100 C4095 1.399 . S
C4100 C4099 1.394 . S
C4100 C4101 1.516 . S
C4101 C4100 1.516 . S
C4101 C4102 1.502 . S
C4101 C4103 1.561 . S
C4101 C4104 1.526 . S
C4102 H4086 0.959 . S
C4102 H4087 0.959 . S
C4102 H4088 0.961 . S
C4102 C4101 1.502 . S
C4103 H4089 0.960 . S
C4103 H4090 0.961 . S
C4103 H4091 0.959 . S
C4103 C4101 1.561 . S
C4104 C4101 1.526 . S
C4104 C4105 1.396 . S
C4104 C4109 1.390 . S
C4105 C4099 1.465 . S
C4105 C4104 1.396 . S
C4105 C4106 1.404 1_565 S
C4106 H4092 0.925 . S
C4106 C4105 1.404 1_545 S
C4106 C4107 1.384 . S
C4107 H4093 0.931 . S
C4107 C4106 1.384 . S
C4107 C4108 1.389 1_545 S
C4108 C4107 1.389 1_565 S
C4108 C4109 1.387 . S
C4109 H4094 0.930 . S
C4109 C4104 1.390 . S
C4109 C4108 1.387 . S
H4110 C4122 0.930 . S
H4111 C4124 0.930 . S
H4112 C4125 0.930 . S
H4113 C4129 0.959 . S
H4114 C4129 0.959 . S
H4115 C4129 0.961 . S
H4116 C4130 0.960 . S
H4117 C4130 0.961 . S
H4118 C4130 0.959 . S
H4119 C4133 0.929 . S
H4120 C4134 0.931 . S
H4121 C4136 0.930 . S
C4122 H4110 0.930 . S
C4122 C4123 1.399 . S
C4122 C4127 1.399 . S
C4123 C4122 1.399 . S
C4123 C4124 1.376 . S
C4124 H4111 0.930 . S
C4124 C4123 1.376 . S
C4124 C4125 1.388 . S
C4125 H4112 0.930 . S
C4125 C4124 1.388 . S
C4125 C4126 1.390 . S
C4126 C4125 1.390 . S
C4126 C4127 1.394 . S
C4126 C4132 1.465 . S
C4127 C4122 1.399 . S
C4127 C4126 1.394 . S
C4127 C4128 1.516 . S
C4128 C4127 1.516 . S
C4128 C4129 1.502 . S
C4128 C4130 1.561 . S
C4128 C4131 1.526 . S
C4129 H4113 0.959 . S
C4129 H4114 0.959 . S
C4129 H4115 0.961 . S
C4129 C4128 1.502 . S
C4130 H4116 0.960 . S
C4130 H4117 0.961 . S
C4130 H4118 0.959 . S
C4130 C4128 1.561 . S
C4131 C4128 1.526 . S
C4131 C4132 1.396 . S
C4131 C4136 1.390 . S
C4132 C4126 1.465 . S
C4132 C4131 1.396 . S
C4132 C4133 1.399 . S
C4133 H4119 0.929 . S
C4133 C4132 1.399 . S
C4133 C4134 1.385 . S
C4134 H4120 0.931 . S
C4134 C4133 1.385 . S
C4134 C4135 1.389 . S
C4135 C4134 1.389 . S
C4135 C4136 1.387 . S
C4136 H4121 0.930 . S
C4136 C4131 1.390 . S
C4136 C4135 1.387 . S
H4137 C4149 0.930 1_556 S
H4138 C4151 0.930 . S
H4139 C4152 0.930 . S
H4140 C4156 0.959 . S
H4141 C4156 0.959 . S
H4142 C4156 0.961 . S
H4143 C4157 0.960 . S
H4144 C4157 0.961 . S
H4145 C4157 0.959 . S
H4146 C4160 0.929 . S
H4147 C4161 0.931 . S
H4148 C4163 0.930 1_556 S
C4149 H4137 0.930 1_554 S
C4149 C4150 1.399 . S
C4149 C4154 1.399 . S
C4150 C4149 1.399 . S
C4150 C4151 1.376 . S
C4151 H4138 0.930 . S
C4151 C4150 1.376 . S
C4151 C4152 1.388 . S
C4152 H4139 0.930 . S
C4152 C4151 1.388 . S
C4152 C4153 1.390 . S
C4153 C4152 1.390 . S
C4153 C4154 1.394 . S
C4153 C4159 1.465 . S
C4154 C4149 1.399 . S
C4154 C4153 1.394 . S
C4154 C4155 1.516 1_554 S
C4155 C4154 1.516 1_556 S
C4155 C4156 1.502 . S
C4155 C4157 1.561 . S
C4155 C4158 1.526 1_556 S
C4156 H4140 0.959 . S
C4156 H4141 0.959 . S
C4156 H4142 0.961 . S
C4156 C4155 1.502 . S
C4157 H4143 0.960 . S
C4157 H4144 0.961 . S
C4157 H4145 0.959 . S
C4157 C4155 1.561 . S
C4158 C4155 1.526 1_554 S
C4158 C4159 1.396 . S
C4158 C4163 1.390 . S
C4159 C4153 1.465 . S
C4159 C4158 1.396 . S
C4159 C4160 1.399 . S
C4160 H4146 0.929 . S
C4160 C4159 1.399 . S
C4160 C4161 1.385 . S
C4161 H4147 0.931 . S
C4161 C4160 1.385 . S
C4161 C4162 1.389 . S
C4162 C4161 1.389 . S
C4162 C4163 1.387 . S
C4163 H4148 0.930 1_554 S
C4163 C4158 1.390 . S
C4163 C4162 1.387 . S
H4164 C4176 0.930 . S
H4165 C4178 0.930 . S
H4166 C4179 0.930 . S
H4167 C4183 0.959 . S
H4168 C4183 0.959 . S
H4169 C4183 0.961 . S
H4170 C4184 0.960 . S
H4171 C4184 0.961 . S
H4172 C4184 0.959 . S
H4173 C4187 0.929 . S
H4174 C4188 0.931 . S
H4175 C4190 0.930 . S
C4176 H4164 0.930 . S
C4176 C4177 1.399 . S
C4176 C4181 1.399 . S
C4177 C4176 1.399 . S
C4177 C4178 1.376 . S
C4178 H4165 0.930 . S
C4178 C4177 1.376 . S
C4178 C4179 1.388 . S
C4179 H4166 0.930 . S
C4179 C4178 1.388 . S
C4179 C4180 1.390 . S
C4180 C4179 1.390 . S
C4180 C4181 1.394 . S
C4180 C4186 1.465 . S
C4181 C4176 1.399 . S
C4181 C4180 1.394 . S
C4181 C4182 1.516 . S
C4182 C4181 1.516 . S
C4182 C4183 1.502 . S
C4182 C4184 1.561 . S
C4182 C4185 1.526 . S
C4183 H4167 0.959 . S
C4183 H4168 0.959 . S
C4183 H4169 0.961 . S
C4183 C4182 1.502 . S
C4184 H4170 0.960 . S
C4184 H4171 0.961 . S
C4184 H4172 0.959 . S
C4184 C4182 1.561 . S
C4185 C4182 1.526 . S
C4185 C4186 1.396 . S
C4185 C4190 1.390 . S
C4186 C4180 1.465 . S
C4186 C4185 1.396 . S
C4186 C4187 1.399 . S
C4187 H4173 0.929 . S
C4187 C4186 1.399 . S
C4187 C4188 1.385 . S
C4188 H4174 0.931 . S
C4188 C4187 1.385 . S
C4188 C4189 1.389 . S
C4189 C4188 1.389 . S
C4189 C4190 1.387 . S
C4190 H4175 0.930 . S
C4190 C4185 1.390 . S
C4190 C4189 1.387 . S
H4191 C4203 0.930 . S
H4192 C4205 0.930 . S
H4193 C4206 0.930 . S
H4194 C4210 0.959 . S
H4195 C4210 0.959 . S
H4196 C4210 0.961 . S
H4197 C4211 0.960 . S
H4198 C4211 0.961 1_556 S
H4199 C4211 0.959 . S
H4200 C4214 0.929 . S
H4201 C4215 0.931 . S
H4202 C4217 0.930 1_556 S
C4203 H4191 0.930 . S
C4203 C4204 1.399 . S
C4203 C4208 1.399 . S
C4204 C4203 1.399 . S
C4204 C4205 1.376 . S
C4205 H4192 0.930 . S
C4205 C4204 1.376 . S
C4205 C4206 1.388 . S
C4206 H4193 0.930 . S
C4206 C4205 1.388 . S
C4206 C4207 1.390 . S
C4207 C4206 1.390 . S
C4207 C4208 1.394 . S
C4207 C4213 1.465 . S
C4208 C4203 1.399 . S
C4208 C4207 1.394 . S
C4208 C4209 1.516 . S
C4209 C4208 1.516 . S
C4209 C4210 1.502 1_554 S
C4209 C4211 1.561 . S
C4209 C4212 1.526 . S
C4210 H4194 0.959 . S
C4210 H4195 0.959 . S
C4210 H4196 0.961 . S
C4210 C4209 1.502 1_556 S
C4211 H4197 0.960 . S
C4211 H4198 0.961 1_554 S
C4211 H4199 0.959 . S
C4211 C4209 1.561 . S
C4212 C4209 1.526 . S
C4212 C4213 1.396 . S
C4212 C4217 1.390 . S
C4213 C4207 1.465 . S
C4213 C4212 1.396 . S
C4213 C4214 1.399 . S
C4214 H4200 0.929 . S
C4214 C4213 1.399 . S
C4214 C4215 1.385 . S
C4215 H4201 0.931 . S
C4215 C4214 1.385 . S
C4215 C4216 1.389 . S
C4216 C4215 1.389 . S
C4216 C4217 1.387 . S
C4217 H4202 0.930 1_554 S
C4217 C4212 1.390 . S
C4217 C4216 1.387 . S
H4218 C4230 0.930 . S
H4219 C4232 0.930 . S
H4220 C4233 0.930 . S
H4221 C4237 0.959 . S
H4222 C4237 0.959 . S
H4223 C4237 0.961 . S
H4224 C4238 0.960 . S
H4225 C4238 0.961 . S
H4226 C4238 0.959 . S
H4227 C4241 0.929 . S
H4228 C4242 0.931 . S
H4229 C4244 0.930 . S
C4230 H4218 0.930 . S
C4230 C4231 1.399 . S
C4230 C4235 1.399 . S
C4231 C4230 1.399 . S
C4231 C4232 1.376 . S
C4232 H4219 0.930 . S
C4232 C4231 1.376 . S
C4232 C4233 1.388 . S
C4233 H4220 0.930 . S
C4233 C4232 1.388 . S
C4233 C4234 1.390 . S
C4234 C4233 1.390 . S
C4234 C4235 1.394 . S
C4234 C4240 1.465 . S
C4235 C4230 1.399 . S
C4235 C4234 1.394 . S
C4235 C4236 1.516 . S
C4236 C4235 1.516 . S
C4236 C4237 1.502 . S
C4236 C4238 1.561 . S
C4236 C4239 1.526 . S
C4237 H4221 0.959 . S
C4237 H4222 0.959 . S
C4237 H4223 0.961 . S
C4237 C4236 1.502 . S
C4238 H4224 0.960 . S
C4238 H4225 0.961 . S
C4238 H4226 0.959 . S
C4238 C4236 1.561 . S
C4239 C4236 1.526 . S
C4239 C4240 1.396 . S
C4239 C4244 1.390 . S
C4240 C4234 1.465 . S
C4240 C4239 1.396 . S
C4240 C4241 1.399 . S
C4241 H4227 0.929 . S
C4241 C4240 1.399 . S
C4241 C4242 1.385 . S
C4242 H4228 0.931 . S
C4242 C4241 1.385 . S
C4242 C4243 1.389 . S
C4243 C4242 1.389 . S
C4243 C4244 1.387 . S
C4244 H4229 0.930 . S
C4244 C4239 1.390 . S
C4244 C4243 1.387 . S
H4245 C4257 0.930 . S
H4246 C4259 0.930 . S
H4247 C4260 0.930 . S
H4248 C4264 0.959 . S
H4249 C4264 0.959 . S
H4250 C4264 0.961 . S
H4251 C4265 0.960 . S
H4252 C4265 0.961 . S
H4253 C4265 0.959 . S
H4254 C4268 0.929 . S
H4255 C4269 0.931 . S
H4256 C4271 0.930 . S
C4257 H4245 0.930 . S
C4257 C4258 1.399 . S
C4257 C4262 1.399 . S
C4258 C4257 1.399 . S
C4258 C4259 1.376 . S
C4259 H4246 0.930 . S
C4259 C4258 1.376 . S
C4259 C4260 1.388 . S
C4260 H4247 0.930 . S
C4260 C4259 1.388 . S
C4260 C4261 1.390 . S
C4261 C4260 1.390 . S
C4261 C4262 1.394 . S
C4261 C4267 1.465 . S
C4262 C4257 1.399 . S
C4262 C4261 1.394 . S
C4262 C4263 1.516 . S
C4263 C4262 1.516 . S
C4263 C4264 1.502 . S
C4263 C4265 1.561 . S
C4263 C4266 1.526 . S
C4264 H4248 0.959 . S
C4264 H4249 0.959 . S
C4264 H4250 0.961 . S
C4264 C4263 1.502 . S
C4265 H4251 0.960 . S
C4265 H4252 0.961 . S
C4265 H4253 0.959 . S
C4265 C4263 1.561 . S
C4266 C4263 1.526 . S
C4266 C4267 1.396 . S
C4266 C4271 1.390 . S
C4267 C4261 1.465 . S
C4267 C4266 1.396 . S
C4267 C4268 1.399 . S
C4268 H4254 0.929 . S
C4268 C4267 1.399 . S
C4268 C4269 1.385 . S
C4269 H4255 0.931 . S
C4269 C4268 1.385 . S
C4269 C4270 1.389 . S
C4270 C4269 1.389 . S
C4270 C4271 1.387 . S
C4271 H4256 0.930 . S
C4271 C4266 1.390 . S
C4271 C4270 1.387 . S
C1693 C105 1.848 . S
C1705 C392 1.757 . S
C1720 C65 2.233 . S
C1732 C483 2.147 . S
C1747 C73 1.602 . S
C1759 C560 1.550 . S
C1786 C658 1.493 . S
C1774 C92 1.563 . S
C1801 C17 1.610 . S
C1813 C742 1.581 . S
C1840 C814 0.874 . S
C1828 C37 1.034 . S
C1867 C903 0.923 . S
C1855 C49 0.887 . S
C1882 C8 1.538 . S
C1894 C980 1.296 . S
C1921 C399 2.004 . S
C1909 C231 2.061 . S
C1936 C241 0.727 . S
C1948 C490 0.660 . S
C1975 C567 1.169 . S
C1963 C273 1.153 . S
C2002 C644 1.496 . S
C1990 C171 1.633 . S
C2017 C227 2.140 . S
C2029 C728 1.923 . S
C2056 C830 1.204 . S
C2044 C245 1.153 . S
C2083 C910 0.799 . S
C2071 C269 0.814 . S
C2110 C987 1.505 . S
C2098 C175 1.641 . S
C2137 C406 1.404 . S
C2125 C162 1.471 . S
C2152 C289 1.988 . S
C2164 C1071 1.883 1_556 S
C2191 C1159 2.236 . S
C2179 C330 2.406 . S
C2218 C1232 0.569 . S
C2206 C317 0.581 . S
C2233 C120 0.962 . S
C2245 C994 0.948 . S
C2260 C134 1.465 . S
C2272 C574 1.451 . S
C2287 C331 2.227 . S
C2299 C1323 2.114 . S
C2326 C1400 0.644 . S
C2314 C303 0.698 . S
C2353 C403 1.743 . S
C2341 C59 1.876 . S
C2380 C1418 2.180 . S
C2368 C107 2.249 . S
C2395 C91 1.654 . S
C2407 C571 1.564 . S
C2422 C78 1.623 . S
C2434 C1318 1.542 . S
C2461 C730 1.578 . S
C2449 C7 1.563 . S
C2476 C51 0.988 . S
C2488 C1162 1.048 . S
C2515 C914 1.018 . S
C2503 C31 1.031 . S
C2542 C1495 1.431 . S
C2530 C22 1.483 . S
C2569 C410 2.086 . S
C2557 C143 2.163 . S
C2596 C1402 0.757 . S
C2584 C315 0.743 . S
C2611 C115 1.289 . S
C2623 C578 1.181 . S
C2638 C287 1.645 . S
C2650 C1327 1.620 . S
C2665 C147 2.013 . S
C2677 C739 2.017 . S
C2704 C1155 1.090 . S
C2692 C311 1.256 . S
C2719 C119 0.771 . S
C2731 C898 0.714 . S
C2746 C283 1.676 . S
C2758 C1502 1.500 . S
C2773 C190 1.496 . S
C2785 C394 1.426 1_554 S
C2800 C177 2.019 . S
C2812 C1082 1.956 . S
C2827 C260 2.436 . S
C2839 C812 2.212 . S
C2854 C247 0.617 . S
C2866 C1243 0.715 . S
C2893 C1486 0.967 . S
C2881 C274 0.978 1_565 S
C2908 C218 1.448 . S
C2920 C562 1.409 . S
C2947 C662 2.197 . S
C2935 C261 2.266 . S
C2974 C487 0.659 . S
C2962 C205 0.710 . S
C2989 C77 1.870 . S
C3001 C1568 1.685 . S
C3028 C1407 2.146 . S
C3016 C93 2.232 . S
C3043 C101 1.561 . S
C3055 C1652 1.462 . S
C3070 C64 1.562 . S
C3082 C1330 1.487 . S
C3097 C45 1.583 . S
C3109 C1078 1.513 . S
C3136 C1150 1.028 . S
C3124 C9 0.965 . S
C3163 C1239 0.968 . S
C3151 C21 0.952 . S
C3190 C1484 1.316 . S
C3178 C36 1.529 . S
C3217 C1575 2.041 . S
C3205 C259 2.086 . S
C3232 C185 0.726 . S
C3244 C1414 0.666 . S
C3271 C1659 1.241 . S
C3259 C203 1.260 . S
C3298 C1316 1.580 . S
C3286 C213 1.640 . S
C3325 C1064 1.950 . S
C3313 C255 2.117 . S
C3340 C189 1.178 . S
C3352 C1166 1.142 . S
C3379 C1246 0.834 . S
C3367 C199 0.794 . S
C3394 C217 1.628 . S
C3406 C1491 1.535 . S
C3433 C1582 1.400 . S
C3421 C316 1.470 . S
C3448 C135 1.986 . S
C3460 C735 1.936 . S
C3487 C823 2.182 . S
C3475 C148 2.399 . S
C3514 C896 0.545 . S
C3502 C163 0.578 . S
C3541 C1498 0.942 . S
C3529 C302 0.951 . S
C3556 C288 1.496 1_554 S
C3568 C1666 1.430 . S
C3595 C651 2.127 . S
C3583 C149 2.226 . S
C3622 C476 0.601 . S
C3610 C121 0.688 . S
C3637 C87 1.851 . S
C3649 C1579 1.691 . S
C3676 C494 2.184 . S
C3664 C79 2.253 . S
C3691 C63 1.648 . S
C3703 C1663 1.584 . S
C3718 C106 1.587 . S
C3730 C646 1.443 . S
C3745 C35 1.486 . S
C3757 C1066 1.521 . S
C3784 C826 0.917 . S
C3772 C23 1.049 . S
C3799 C3 0.990 . S
C3811 C1250 0.983 . S
C3826 C50 1.539 . S
C3838 C991 1.301 . S
C3865 C1586 2.030 . S
C3853 C325 2.161 . S
C3880 C161 0.707 . S
C3892 C478 0.705 . S
C3919 C1670 1.180 . S
C3907 C297 1.289 . S
C3934 C133 1.668 . S
C3946 C655 1.599 . S
C3961 C329 2.065 . S
C3973 C1075 1.953 . S
C4000 C819 1.222 . S
C3988 C157 1.250 . S
C4015 C301 0.885 . S
C4027 C1234 0.905 1_655 S
C4054 C998 1.523 . S
C4042 C129 1.682 . S
C4081 C1570 1.441 . S
C4069 C246 1.487 . S
C4108 C746 1.932 1_665 S
C4096 C219 2.011 . S
C4123 C232 2.433 . S
C4135 C1148 2.216 . S
C4162 C907 0.710 . S
C4150 C191 0.611 . S
C4177 C204 0.904 . S
C4189 C982 0.932 . S
C4204 C176 1.495 . S
C4216 C1654 1.468 1_554 S
C4243 C1334 2.149 . S
C4231 C233 2.245 1_565 S
C4270 C1411 0.668 . S
C4258 C275 0.723 . S
