# Generated by pormake.
# Topology gar, (4,6)-cn, num edge types: 1
# Building blocks:
#     Node 0, Type 0, BuildingBlock: KUFVIS_clean_sbu_0, # of connection points: 4
#     Node 1, Type 0, BuildingBlock: KUFVIS_clean_sbu_0, # of connection points: 4
#     Node 2, Type 0, BuildingBlock: KUFVIS_clean_sbu_0, # of connection points: 4
#     Node 3, Type 0, BuildingBlock: KUFVIS_clean_sbu_0, # of connection points: 4
#     Node 4, Type 0, BuildingBlock: KUFVIS_clean_sbu_0, # of connection points: 4
#     Node 5, Type 0, BuildingBlock: KUFVIS_clean_sbu_0, # of connection points: 4
#     Node 6, Type 0, BuildingBlock: KUFVIS_clean_sbu_0, # of connection points: 4
#     Node 7, Type 0, BuildingBlock: KUFVIS_clean_sbu_0, # of connection points: 4
#     Node 8, Type 0, BuildingBlock: KUFVIS_clean_sbu_0, # of connection points: 4
#     Node 9, Type 0, BuildingBlock: KUFVIS_clean_sbu_0, # of connection points: 4
#     Node 10, Type 0, BuildingBlock: KUFVIS_clean_sbu_0, # of connection points: 4
#     Node 11, Type 0, BuildingBlock: KUFVIS_clean_sbu_0, # of connection points: 4
#     Node 12, Type 0, BuildingBlock: KUFVIS_clean_sbu_0, # of connection points: 4
#     Node 13, Type 0, BuildingBlock: KUFVIS_clean_sbu_0, # of connection points: 4
#     Node 14, Type 0, BuildingBlock: KUFVIS_clean_sbu_0, # of connection points: 4
#     Node 15, Type 0, BuildingBlock: KUFVIS_clean_sbu_0, # of connection points: 4
#     Node 16, Type 0, BuildingBlock: KUFVIS_clean_sbu_0, # of connection points: 4
#     Node 17, Type 0, BuildingBlock: KUFVIS_clean_sbu_0, # of connection points: 4
#     Node 18, Type 0, BuildingBlock: KUFVIS_clean_sbu_0, # of connection points: 4
#     Node 19, Type 0, BuildingBlock: KUFVIS_clean_sbu_0, # of connection points: 4
#     Node 20, Type 0, BuildingBlock: KUFVIS_clean_sbu_0, # of connection points: 4
#     Node 21, Type 0, BuildingBlock: KUFVIS_clean_sbu_0, # of connection points: 4
#     Node 22, Type 0, BuildingBlock: KUFVIS_clean_sbu_0, # of connection points: 4
#     Node 23, Type 0, BuildingBlock: KUFVIS_clean_sbu_0, # of connection points: 4
#     Node 24, Type 1, BuildingBlock: KUMBOL_clean_sbu_0, # of connection points: 6
#     Node 25, Type 1, BuildingBlock: KUMBOL_clean_sbu_0, # of connection points: 6
#     Node 26, Type 1, BuildingBlock: KUMBOL_clean_sbu_0, # of connection points: 6
#     Node 27, Type 1, BuildingBlock: KUMBOL_clean_sbu_0, # of connection points: 6
#     Node 28, Type 1, BuildingBlock: KUMBOL_clean_sbu_0, # of connection points: 6
#     Node 29, Type 1, BuildingBlock: KUMBOL_clean_sbu_0, # of connection points: 6
#     Node 30, Type 1, BuildingBlock: KUMBOL_clean_sbu_0, # of connection points: 6
#     Node 31, Type 1, BuildingBlock: KUMBOL_clean_sbu_0, # of connection points: 6
#     Node 32, Type 1, BuildingBlock: KUMBOL_clean_sbu_0, # of connection points: 6
#     Node 33, Type 1, BuildingBlock: KUMBOL_clean_sbu_0, # of connection points: 6
#     Node 34, Type 1, BuildingBlock: KUMBOL_clean_sbu_0, # of connection points: 6
#     Node 35, Type 1, BuildingBlock: KUMBOL_clean_sbu_0, # of connection points: 6
#     Node 36, Type 1, BuildingBlock: KUMBOL_clean_sbu_0, # of connection points: 6
#     Node 37, Type 1, BuildingBlock: KUMBOL_clean_sbu_0, # of connection points: 6
#     Node 38, Type 1, BuildingBlock: KUMBOL_clean_sbu_0, # of connection points: 6
#     Node 39, Type 1, BuildingBlock: KUMBOL_clean_sbu_0, # of connection points: 6
#     Edge 40, Type (0, 1), BuildingBlock: MIFKUJ_clean_linker_0, # of connection points: 2
#     Edge 41, Type (0, 1), BuildingBlock: MIFKUJ_clean_linker_0, # of connection points: 2
#     Edge 42, Type (0, 1), BuildingBlock: MIFKUJ_clean_linker_0, # of connection points: 2
#     Edge 43, Type (0, 1), BuildingBlock: MIFKUJ_clean_linker_0, # of connection points: 2
#     Edge 44, Type (0, 1), BuildingBlock: MIFKUJ_clean_linker_0, # of connection points: 2
#     Edge 45, Type (0, 1), BuildingBlock: MIFKUJ_clean_linker_0, # of connection points: 2
#     Edge 46, Type (0, 1), BuildingBlock: MIFKUJ_clean_linker_0, # of connection points: 2
#     Edge 47, Type (0, 1), BuildingBlock: MIFKUJ_clean_linker_0, # of connection points: 2
#     Edge 48, Type (0, 1), BuildingBlock: MIFKUJ_clean_linker_0, # of connection points: 2
#     Edge 49, Type (0, 1), BuildingBlock: MIFKUJ_clean_linker_0, # of connection points: 2
#     Edge 50, Type (0, 1), BuildingBlock: MIFKUJ_clean_linker_0, # of connection points: 2
#     Edge 51, Type (0, 1), BuildingBlock: MIFKUJ_clean_linker_0, # of connection points: 2
#     Edge 52, Type (0, 1), BuildingBlock: MIFKUJ_clean_linker_0, # of connection points: 2
#     Edge 53, Type (0, 1), BuildingBlock: MIFKUJ_clean_linker_0, # of connection points: 2
#     Edge 54, Type (0, 1), BuildingBlock: MIFKUJ_clean_linker_0, # of connection points: 2
#     Edge 55, Type (0, 1), BuildingBlock: MIFKUJ_clean_linker_0, # of connection points: 2
#     Edge 56, Type (0, 1), BuildingBlock: MIFKUJ_clean_linker_0, # of connection points: 2
#     Edge 57, Type (0, 1), BuildingBlock: MIFKUJ_clean_linker_0, # of connection points: 2
#     Edge 58, Type (0, 1), BuildingBlock: MIFKUJ_clean_linker_0, # of connection points: 2
#     Edge 59, Type (0, 1), BuildingBlock: MIFKUJ_clean_linker_0, # of connection points: 2
#     Edge 60, Type (0, 1), BuildingBlock: MIFKUJ_clean_linker_0, # of connection points: 2
#     Edge 61, Type (0, 1), BuildingBlock: MIFKUJ_clean_linker_0, # of connection points: 2
#     Edge 62, Type (0, 1), BuildingBlock: MIFKUJ_clean_linker_0, # of connection points: 2
#     Edge 63, Type (0, 1), BuildingBlock: MIFKUJ_clean_linker_0, # of connection points: 2
#     Edge 64, Type (0, 1), BuildingBlock: MIFKUJ_clean_linker_0, # of connection points: 2
#     Edge 65, Type (0, 1), BuildingBlock: MIFKUJ_clean_linker_0, # of connection points: 2
#     Edge 66, Type (0, 1), BuildingBlock: MIFKUJ_clean_linker_0, # of connection points: 2
#     Edge 67, Type (0, 1), BuildingBlock: MIFKUJ_clean_linker_0, # of connection points: 2
#     Edge 68, Type (0, 1), BuildingBlock: MIFKUJ_clean_linker_0, # of connection points: 2
#     Edge 69, Type (0, 1), BuildingBlock: MIFKUJ_clean_linker_0, # of connection points: 2
#     Edge 70, Type (0, 1), BuildingBlock: MIFKUJ_clean_linker_0, # of connection points: 2
#     Edge 71, Type (0, 1), BuildingBlock: MIFKUJ_clean_linker_0, # of connection points: 2
#     Edge 72, Type (0, 1), BuildingBlock: MIFKUJ_clean_linker_0, # of connection points: 2
#     Edge 73, Type (0, 1), BuildingBlock: MIFKUJ_clean_linker_0, # of connection points: 2
#     Edge 74, Type (0, 1), BuildingBlock: MIFKUJ_clean_linker_0, # of connection points: 2
#     Edge 75, Type (0, 1), BuildingBlock: MIFKUJ_clean_linker_0, # of connection points: 2
#     Edge 76, Type (0, 1), BuildingBlock: MIFKUJ_clean_linker_0, # of connection points: 2
#     Edge 77, Type (0, 1), BuildingBlock: MIFKUJ_clean_linker_0, # of connection points: 2
#     Edge 78, Type (0, 1), BuildingBlock: MIFKUJ_clean_linker_0, # of connection points: 2
#     Edge 79, Type (0, 1), BuildingBlock: MIFKUJ_clean_linker_0, # of connection points: 2
#     Edge 80, Type (0, 1), BuildingBlock: MIFKUJ_clean_linker_0, # of connection points: 2
#     Edge 81, Type (0, 1), BuildingBlock: MIFKUJ_clean_linker_0, # of connection points: 2
#     Edge 82, Type (0, 1), BuildingBlock: MIFKUJ_clean_linker_0, # of connection points: 2
#     Edge 83, Type (0, 1), BuildingBlock: MIFKUJ_clean_linker_0, # of connection points: 2
#     Edge 84, Type (0, 1), BuildingBlock: MIFKUJ_clean_linker_0, # of connection points: 2
#     Edge 85, Type (0, 1), BuildingBlock: MIFKUJ_clean_linker_0, # of connection points: 2
#     Edge 86, Type (0, 1), BuildingBlock: MIFKUJ_clean_linker_0, # of connection points: 2
#     Edge 87, Type (0, 1), BuildingBlock: MIFKUJ_clean_linker_0, # of connection points: 2
#     Edge 88, Type (0, 1), BuildingBlock: MIFKUJ_clean_linker_0, # of connection points: 2
#     Edge 89, Type (0, 1), BuildingBlock: MIFKUJ_clean_linker_0, # of connection points: 2
#     Edge 90, Type (0, 1), BuildingBlock: MIFKUJ_clean_linker_0, # of connection points: 2
#     Edge 91, Type (0, 1), BuildingBlock: MIFKUJ_clean_linker_0, # of connection points: 2
#     Edge 92, Type (0, 1), BuildingBlock: MIFKUJ_clean_linker_0, # of connection points: 2
#     Edge 93, Type (0, 1), BuildingBlock: MIFKUJ_clean_linker_0, # of connection points: 2
#     Edge 94, Type (0, 1), BuildingBlock: MIFKUJ_clean_linker_0, # of connection points: 2
#     Edge 95, Type (0, 1), BuildingBlock: MIFKUJ_clean_linker_0, # of connection points: 2
#     Edge 96, Type (0, 1), BuildingBlock: MIFKUJ_clean_linker_0, # of connection points: 2
#     Edge 97, Type (0, 1), BuildingBlock: MIFKUJ_clean_linker_0, # of connection points: 2
#     Edge 98, Type (0, 1), BuildingBlock: MIFKUJ_clean_linker_0, # of connection points: 2
#     Edge 99, Type (0, 1), BuildingBlock: MIFKUJ_clean_linker_0, # of connection points: 2
#     Edge 100, Type (0, 1), BuildingBlock: MIFKUJ_clean_linker_0, # of connection points: 2
#     Edge 101, Type (0, 1), BuildingBlock: MIFKUJ_clean_linker_0, # of connection points: 2
#     Edge 102, Type (0, 1), BuildingBlock: MIFKUJ_clean_linker_0, # of connection points: 2
#     Edge 103, Type (0, 1), BuildingBlock: MIFKUJ_clean_linker_0, # of connection points: 2
#     Edge 104, Type (0, 1), BuildingBlock: MIFKUJ_clean_linker_0, # of connection points: 2
#     Edge 105, Type (0, 1), BuildingBlock: MIFKUJ_clean_linker_0, # of connection points: 2
#     Edge 106, Type (0, 1), BuildingBlock: MIFKUJ_clean_linker_0, # of connection points: 2
#     Edge 107, Type (0, 1), BuildingBlock: MIFKUJ_clean_linker_0, # of connection points: 2
#     Edge 108, Type (0, 1), BuildingBlock: MIFKUJ_clean_linker_0, # of connection points: 2
#     Edge 109, Type (0, 1), BuildingBlock: MIFKUJ_clean_linker_0, # of connection points: 2
#     Edge 110, Type (0, 1), BuildingBlock: MIFKUJ_clean_linker_0, # of connection points: 2
#     Edge 111, Type (0, 1), BuildingBlock: MIFKUJ_clean_linker_0, # of connection points: 2
#     Edge 112, Type (0, 1), BuildingBlock: MIFKUJ_clean_linker_0, # of connection points: 2
#     Edge 113, Type (0, 1), BuildingBlock: MIFKUJ_clean_linker_0, # of connection points: 2
#     Edge 114, Type (0, 1), BuildingBlock: MIFKUJ_clean_linker_0, # of connection points: 2
#     Edge 115, Type (0, 1), BuildingBlock: MIFKUJ_clean_linker_0, # of connection points: 2
#     Edge 116, Type (0, 1), BuildingBlock: MIFKUJ_clean_linker_0, # of connection points: 2
#     Edge 117, Type (0, 1), BuildingBlock: MIFKUJ_clean_linker_0, # of connection points: 2
#     Edge 118, Type (0, 1), BuildingBlock: MIFKUJ_clean_linker_0, # of connection points: 2
#     Edge 119, Type (0, 1), BuildingBlock: MIFKUJ_clean_linker_0, # of connection points: 2
#     Edge 120, Type (0, 1), BuildingBlock: MIFKUJ_clean_linker_0, # of connection points: 2
#     Edge 121, Type (0, 1), BuildingBlock: MIFKUJ_clean_linker_0, # of connection points: 2
#     Edge 122, Type (0, 1), BuildingBlock: MIFKUJ_clean_linker_0, # of connection points: 2
#     Edge 123, Type (0, 1), BuildingBlock: MIFKUJ_clean_linker_0, # of connection points: 2
#     Edge 124, Type (0, 1), BuildingBlock: MIFKUJ_clean_linker_0, # of connection points: 2
#     Edge 125, Type (0, 1), BuildingBlock: MIFKUJ_clean_linker_0, # of connection points: 2
#     Edge 126, Type (0, 1), BuildingBlock: MIFKUJ_clean_linker_0, # of connection points: 2
#     Edge 127, Type (0, 1), BuildingBlock: MIFKUJ_clean_linker_0, # of connection points: 2
#     Edge 128, Type (0, 1), BuildingBlock: MIFKUJ_clean_linker_0, # of connection points: 2
#     Edge 129, Type (0, 1), BuildingBlock: MIFKUJ_clean_linker_0, # of connection points: 2
#     Edge 130, Type (0, 1), BuildingBlock: MIFKUJ_clean_linker_0, # of connection points: 2
#     Edge 131, Type (0, 1), BuildingBlock: MIFKUJ_clean_linker_0, # of connection points: 2
#     Edge 132, Type (0, 1), BuildingBlock: MIFKUJ_clean_linker_0, # of connection points: 2
#     Edge 133, Type (0, 1), BuildingBlock: MIFKUJ_clean_linker_0, # of connection points: 2
#     Edge 134, Type (0, 1), BuildingBlock: MIFKUJ_clean_linker_0, # of connection points: 2
#     Edge 135, Type (0, 1), BuildingBlock: MIFKUJ_clean_linker_0, # of connection points: 2
# Relax obj value: 0.112
# Max RMSD: 0.313
# Mean RMSD: 0.146
data_MOF--net-gar--node1-KUFVIS_clean_sbu_0--node2-KUMBOL_clean_sbu_0--edge1-MIFKUJ_clean_linker_0
_symmetry_space_group_name_H-M    P1
_symmetry_Int_Tables_number       1
_symmetry_cell_setting            triclinic
loop_
_symmetry_equiv_pos_as_xyz
'x, y, z'
_cell_length_a     76.143487
_cell_length_b     71.900779
_cell_length_c     73.245354
_cell_angle_alpha  99.67345
_cell_angle_beta   93.053896
_cell_angle_gamma 102.21195
loop_
_atom_site_label
_atom_site_type_symbol
_atom_site_fract_x
_atom_site_fract_y
_atom_site_fract_z
_atom_type_partial_charge
Mn0 Mn 0.09258 0.31894 0.39455 0.0
Mn1 Mn 0.09302 0.3449 0.36008 0.0
C2 C 0.06665 0.32776 0.3852 0.0
C3 C 0.09044 0.28978 0.40453 0.0
C4 C 0.10867 0.36197 0.39966 0.0
O5 O 0.11589 0.31674 0.3833 0.0
O6 O 0.11281 0.33126 0.3587 0.0
C7 C 0.08388 0.31247 0.32791 0.0
N8 N 0.08075 0.32917 0.33754 0.0
C9 C 0.05812 0.3302 0.3138 0.0
C10 C 0.0613 0.31317 0.30343 0.0
C11 C 0.07414 0.30418 0.3106 0.0
C12 C 0.06817 0.33769 0.33099 0.0
H13 H 0.0937 0.30556 0.33344 0.0
C14 C 0.12104 0.32203 0.36838 0.0
O15 O 0.09915 0.30598 0.41473 0.0
O16 O 0.08306 0.29045 0.3883 0.0
N17 N 0.07462 0.35915 0.35931 0.0
C18 C 0.07247 0.37482 0.37158 0.0
C19 C 0.06021 0.38557 0.36656 0.0
C20 C 0.05048 0.38017 0.34895 0.0
C21 C 0.05247 0.36366 0.33682 0.0
C22 C 0.06509 0.35374 0.34243 0.0
H23 H 0.08035 0.37933 0.38489 0.0
O24 O 0.06841 0.32259 0.40123 0.0
O25 O 0.07979 0.32683 0.37467 0.0
O26 O 0.10378 0.3467 0.40636 0.0
O27 O 0.10583 0.36269 0.3825 0.0
C28 C 0.04255 0.35678 0.3193 0.0
C29 C 0.04525 0.33994 0.30787 0.0
H30 H 0.05384 0.30677 0.29005 0.0
H31 H 0.07656 0.29094 0.30277 0.0
H32 H 0.05859 0.39825 0.37603 0.0
H33 H 0.04179 0.38898 0.34466 0.0
H34 H 0.03264 0.36417 0.31461 0.0
H35 H 0.03733 0.33458 0.29457 0.0
Mn36 Mn 0.01211 0.77005 0.65753 0.0
Mn37 Mn 0.02589 0.8067 0.69412 0.0
C38 C 0.04172 0.77876 0.6696 0.0
C39 C 1.00081 0.7376 0.64544 0.0
C40 C 0.01864 0.81278 0.65493 0.0
O41 O 0.98873 0.77299 0.66797 0.0
O42 O 0.9993 0.79741 0.69223 0.0
C43 C 0.01628 0.78422 0.72393 0.0
N44 N 0.02888 0.79594 0.71593 0.0
C45 C 0.05214 0.79573 0.73941 0.0
C46 C 0.03941 0.78374 0.74793 0.0
C47 C 0.02142 0.77793 0.74013 0.0
C48 C 0.04624 0.80156 0.72329 0.0
H49 H 1.00244 0.77963 0.71797 0.0
C50 C 0.98647 0.78473 0.68226 0.0
O51 O 0.99924 0.75081 0.63572 0.0
O52 O 0.00838 0.74337 0.66231 0.0
N53 N 0.05147 0.81668 0.69776 0.0
C54 C 0.06232 0.82728 0.68724 0.0
C55 C 0.08081 0.83396 0.69296 0.0
C56 C 0.08795 0.8297 0.70944 0.0
C57 C 0.07652 0.81879 0.72006 0.0
C58 C 0.05818 0.81269 0.71376 0.0
H59 H 0.05697 0.83034 0.67444 0.0
O60 O 0.03754 0.76956 0.65258 0.0
O61 O 0.02851 0.78261 0.67888 0.0
O62 O 0.01385 0.79494 0.64752 0.0
O63 O 0.02365 0.81895 0.6722 0.0
C64 C 0.08267 0.81349 0.73649 0.0
C65 C 0.07051 0.80187 0.7461 0.0
H66 H 0.04332 0.77879 0.76039 0.0
H67 H 0.01157 0.76858 0.74658 0.0
H68 H 0.08956 0.84225 0.68461 0.0
H69 H 0.10226 0.83469 0.7137 0.0
H70 H 0.09679 0.81799 0.74169 0.0
H71 H 0.07548 0.79758 0.75853 0.0
Mn72 Mn 0.59462 0.81667 0.88881 0.0
Mn73 Mn 0.59219 0.84021 0.85282 0.0
C74 C 0.56766 0.82332 0.87938 0.0
C75 C 0.59359 0.78931 0.90175 0.0
C76 C 0.60651 0.86058 0.89149 0.0
O77 O 0.61765 0.81406 0.8771 0.0
O78 O 0.61482 0.83148 0.85484 0.0
C79 C 0.59022 0.80645 0.82281 0.0
N80 N 0.58335 0.82158 0.83072 0.0
C81 C 0.56094 0.81607 0.80484 0.0
C82 C 0.56776 0.80042 0.79638 0.0
C83 C 0.58242 0.79554 0.80545 0.0
C84 C 0.56916 0.82628 0.82221 0.0
H85 H 0.60164 0.80283 0.82963 0.0
C86 C 0.62358 0.82204 0.86375 0.0
O87 O 0.60232 0.80627 0.91036 0.0
O88 O 0.58592 0.78806 0.88517 0.0
N89 N 0.57124 0.84998 0.84861 0.0
C90 C 0.56631 0.86543 0.85873 0.0
C91 C 0.55219 0.87252 0.85145 0.0
C92 C 0.54339 0.86375 0.83378 0.0
C93 C 0.54863 0.84781 0.82368 0.0
C94 C 0.56297 0.84156 0.83154 0.0
H95 H 0.57326 0.87243 0.87215 0.0
O96 O 0.57064 0.82003 0.896 0.0
O97 O 0.58035 0.82206 0.86824 0.0
O98 O 0.60538 0.84535 0.89847 0.0
O99 O 0.6012 0.86044 0.87468 0.0
C100 C 0.54027 0.83796 0.80607 0.0
C101 C 0.54635 0.82201 0.7967 0.0
H102 H 0.56185 0.79206 0.78293 0.0
H103 H 0.5878 0.78352 0.799 0.0
H104 H 0.54841 0.88495 0.8593 0.0
H105 H 0.53282 0.8695 0.82792 0.0
H106 H 0.52911 0.84245 0.79965 0.0
H107 H 0.53975 0.81447 0.78322 0.0
Mn108 Mn 0.51088 0.26698 0.15634 0.0
Mn109 Mn 0.47705 0.24923 0.12222 0.0
C110 C 0.49979 0.23406 0.14867 0.0
C111 C 0.5411 0.27668 0.1663 0.0
C112 C 0.47171 0.26605 0.16151 0.0
O113 O 0.51132 0.28969 0.14359 0.0
O114 O 0.48887 0.27629 0.12105 0.0
C115 C 0.49768 0.24947 0.08912 0.0
N116 N 0.48647 0.23949 0.09981 0.0
C117 C 0.48193 0.21017 0.07706 0.0
C118 C 0.49347 0.22012 0.06586 0.0
C119 C 0.50128 0.23989 0.07187 0.0
C120 C 0.47879 0.22049 0.0941 0.0
H121 H 0.50368 0.26468 0.09361 0.0
C122 C 0.50133 0.29047 0.12942 0.0
O123 O 0.5291 0.28275 0.17622 0.0
O124 O 0.53558 0.26587 0.15014 0.0
N125 N 0.46406 0.22316 0.12117 0.0
C126 C 0.45088 0.21654 0.13191 0.0
C127 C 0.4409 0.19733 0.12721 0.0
C128 C 0.44427 0.18523 0.11126 0.0
C129 C 0.45729 0.19261 0.09993 0.0
C130 C 0.46683 0.21188 0.10533 0.0
H131 H 0.4481 0.22574 0.1441 0.0
O132 O 0.50807 0.24212 0.16489 0.0
O133 O 0.49809 0.24573 0.13713 0.0
O134 O 0.48819 0.27082 0.16778 0.0
O135 O 0.46615 0.25829 0.14468 0.0
C136 C 0.46075 0.18176 0.08317 0.0
C137 C 0.47308 0.19053 0.07175 0.0
H138 H 0.4963 0.21277 0.05255 0.0
H139 H 0.51013 0.2477 0.06326 0.0
H140 H 0.43063 0.19187 0.13584 0.0
H141 H 0.43652 0.17044 0.10764 0.0
H142 H 0.45371 0.16677 0.07874 0.0
H143 H 0.47536 0.18214 0.05873 0.0
Mn144 Mn 0.08822 0.81278 0.12425 0.0
Mn145 Mn 0.05727 0.8015 0.08671 0.0
C146 C 0.07743 0.78025 0.10943 0.0
C147 C 0.11828 0.81966 0.13886 0.0
C148 C 0.04722 0.81073 0.12625 0.0
O149 O 0.08993 0.83949 0.11577 0.0
O150 O 0.06897 0.82957 0.09116 0.0
C151 C 0.08321 0.80808 0.0585 0.0
N152 N 0.06963 0.79614 0.06509 0.0
C153 C 0.06896 0.77035 0.03928 0.0
C154 C 0.08289 0.78238 0.03218 0.0
C155 C 0.09013 0.80128 0.0419 0.0
C156 C 0.06294 0.77775 0.05613 0.0
H157 H 0.0887 0.82267 0.06585 0.0
C158 C 0.08065 0.84282 0.10194 0.0
O159 O 0.10502 0.8243 0.14762 0.0
O160 O 0.11447 0.81269 0.12122 0.0
N161 N 0.04438 0.77508 0.08023 0.0
C162 C 0.02953 0.76622 0.08769 0.0
C163 C 0.0203 0.7474 0.07934 0.0
C164 C 0.02604 0.73814 0.06303 0.0
C165 C 0.04068 0.74798 0.055 0.0
C166 C 0.04941 0.76668 0.06402 0.0
H167 H 0.0248 0.77339 0.1 0.0
O168 O 0.08445 0.78472 0.12652 0.0
O169 O 0.07691 0.795 0.10136 0.0
O170 O 0.06331 0.81396 0.13406 0.0
O171 O 0.04351 0.80618 0.10861 0.0
C172 C 0.04647 0.74025 0.03801 0.0
C173 C 0.06059 0.75143 0.03015 0.0
H174 H 0.0881 0.77727 0.01925 0.0
H175 H 0.1009 0.81065 0.03652 0.0
H176 H 0.00874 0.7401 0.08539 0.0
H177 H 0.01884 0.72367 0.05657 0.0
H178 H 0.03999 0.72583 0.03072 0.0
H179 H 0.06472 0.74542 0.01694 0.0
Mn180 Mn 0.5179 0.76859 0.42644 0.0
Mn181 Mn 0.52059 0.79999 0.39618 0.0
C182 C 0.49143 0.77157 0.40857 0.0
C183 C 0.51977 0.73859 0.43624 0.0
C184 C 0.52315 0.81309 0.43792 0.0
O185 O 0.54512 0.77359 0.42147 0.0
O186 O 0.54389 0.79322 0.40087 0.0
C187 C 0.52866 0.77564 0.36236 0.0
N188 N 0.51833 0.78716 0.37095 0.0
C189 C 0.50645 0.79251 0.34177 0.0
C190 C 0.51686 0.78062 0.3325 0.0
C191 C 0.52776 0.77185 0.34285 0.0
C192 C 0.50705 0.79475 0.36111 0.0
H193 H 0.53781 0.76981 0.37035 0.0
C194 C 0.55248 0.78363 0.40981 0.0
O195 O 0.52253 0.755 0.44751 0.0
O196 O 0.51549 0.73924 0.41893 0.0
N197 N 0.49919 0.80812 0.38981 0.0
C198 C 0.48981 0.81887 0.4009 0.0
C199 C 0.4775 0.82781 0.39277 0.0
C200 C 0.47575 0.82646 0.37338 0.0
C201 C 0.48584 0.81557 0.36231 0.0
C202 C 0.49694 0.80594 0.37113 0.0
H203 H 0.49178 0.8206 0.41579 0.0
O204 O 0.49033 0.76497 0.42406 0.0
O205 O 0.50774 0.77611 0.40387 0.0
O206 O 0.52124 0.79631 0.44217 0.0
O207 O 0.52319 0.81581 0.42125 0.0
C208 C 0.48609 0.81471 0.34302 0.0
C209 C 0.49628 0.80307 0.33272 0.0
H210 H 0.51674 0.77833 0.31749 0.0
H211 H 0.53594 0.76278 0.33583 0.0
H212 H 0.46986 0.83625 0.40146 0.0
H213 H 0.4668 0.834 0.36716 0.0
H214 H 0.47863 0.82313 0.33601 0.0
H215 H 0.4965 0.80263 0.31789 0.0
Mn216 Mn 0.58818 0.31105 0.6221 0.0
Mn217 Mn 0.55637 0.29838 0.58538 0.0
C218 C 0.57788 0.27829 0.6072 0.0
C219 C 0.61836 0.31838 0.63669 0.0
C220 C 0.54704 0.30699 0.62515 0.0
O221 O 0.58909 0.33785 0.61356 0.0
O222 O 0.56693 0.3264 0.59042 0.0
C223 C 0.58098 0.30754 0.55652 0.0
N224 N 0.56806 0.29476 0.56304 0.0
C225 C 0.5664 0.27069 0.53552 0.0
C226 C 0.57965 0.2836 0.52846 0.0
C227 C 0.58703 0.30208 0.53906 0.0
C228 C 0.56107 0.27688 0.55309 0.0
H229 H 0.58659 0.32181 0.56455 0.0
C230 C 0.57857 0.34042 0.60024 0.0
O231 O 0.60495 0.32263 0.64543 0.0
O232 O 0.61463 0.31165 0.61899 0.0
N233 N 0.54476 0.27169 0.57847 0.0
C234 C 0.53222 0.26097 0.58738 0.0
C235 C 0.52319 0.24232 0.57847 0.0
C236 C 0.52702 0.2351 0.56047 0.0
C237 C 0.54012 0.24625 0.55168 0.0
C238 C 0.54852 0.26479 0.56114 0.0
H239 H 0.52896 0.2667 0.60105 0.0
O240 O 0.58487 0.28289 0.6243 0.0
O241 O 0.57696 0.29291 0.59916 0.0
O242 O 0.56338 0.31174 0.63248 0.0
O243 O 0.54296 0.30147 0.60766 0.0
C244 C 0.54498 0.23979 0.53381 0.0
C245 C 0.55825 0.25194 0.5258 0.0
H246 H 0.58426 0.27948 0.51495 0.0
H247 H 0.59727 0.31213 0.53374 0.0
H248 H 0.51307 0.23368 0.58529 0.0
H249 H 0.51957 0.22118 0.55332 0.0
H250 H 0.53866 0.22549 0.52613 0.0
H251 H 0.56201 0.24677 0.51213 0.0
Mn252 Mn 0.01726 0.26824 0.9272 0.0
Mn253 Mn 0.01837 0.29578 0.89381 0.0
C254 C 0.98965 0.27047 0.91129 0.0
C255 C 0.01979 0.23903 0.93799 0.0
C256 C 0.02599 0.3126 0.93509 0.0
O257 O 0.04399 0.27266 0.92019 0.0
O258 O 0.04039 0.28574 0.8948 0.0
C259 C 0.01696 0.26648 0.85982 0.0
N260 N 0.01044 0.28101 0.86955 0.0
C261 C 0.99033 0.28143 0.84324 0.0
C262 C 0.99687 0.26652 0.83287 0.0
C263 C 0.01015 0.25892 0.84125 0.0
C264 C 0.99746 0.28819 0.86175 0.0
H265 H 0.0273 0.26079 0.86621 0.0
C266 C 0.04976 0.2784 0.90542 0.0
O267 O 0.0232 0.25581 0.94879 0.0
O268 O 0.01473 0.23896 0.92072 0.0
N269 N 0.99786 0.30673 0.8911 0.0
C270 C 0.99236 0.32034 0.90336 0.0
C271 C 0.97958 0.32987 0.89713 0.0
C272 C 0.97266 0.32534 0.87838 0.0
C273 C 0.97788 0.31068 0.86622 0.0
C274 C 0.99097 0.30202 0.87312 0.0
H275 H 0.99809 0.32435 0.91763 0.0
O276 O 0.98992 0.26478 0.92722 0.0
O277 O 0.0054 0.27424 0.90495 0.0
O278 O 0.02104 0.29672 0.94095 0.0
O279 O 0.02692 0.31332 0.91791 0.0
C280 C 0.97086 0.30455 0.84747 0.0
C281 C 0.97692 0.28977 0.83604 0.0
H282 H 0.99173 0.26072 0.81851 0.0
H283 H 0.01523 0.24737 0.83335 0.0
H284 H 0.97547 0.34107 0.90662 0.0
H285 H 0.96365 0.33351 0.87337 0.0
H286 H 0.96063 0.31095 0.84176 0.0
H287 H 0.9712 0.28493 0.82174 0.0
Mn288 Mn 0.41653 0.0461 0.29875 0.0
Mn289 Mn 0.38514 0.03855 0.3292 0.0
C290 C 0.4043 0.01531 0.30271 0.0
C291 C 0.42644 0.05028 0.27035 0.0
C292 C 0.42491 0.05227 0.34063 0.0
O293 O 0.4086 0.07134 0.303 0.0
O294 O 0.38773 0.06464 0.323 0.0
C295 C 0.35324 0.03868 0.30429 0.0
N296 N 0.36172 0.02985 0.31601 0.0
C297 C 0.33577 1.00346 0.3132 0.0
C298 C 0.32669 0.01233 0.30119 0.0
C299 C 0.3355 0.02997 0.29666 0.0
C300 C 0.35344 0.0128 0.32032 0.0
H301 H 0.35996 0.05225 0.30079 0.0
C302 C 0.39669 0.07592 0.31333 0.0
O303 O 0.43678 0.057 0.28568 0.0
O304 O 0.40972 0.04186 0.27146 0.0
N305 N 0.38086 0.01385 0.33655 0.0
C306 C 0.39189 0.00667 0.34742 0.0
C307 C 0.38512 0.98918 0.35335 0.0
C308 C 0.3671 0.97936 0.34811 0.0
C309 C 0.35614 0.9868 0.33659 0.0
C310 C 0.36351 1.00447 0.33143 0.0
H311 H 0.40567 0.01434 0.3517 0.0
O312 O 0.4199 0.01935 0.29619 0.0
O313 O 0.39598 0.02937 0.3065 0.0
O314 O 0.42956 0.0527 0.32436 0.0
O315 O 0.40861 0.04707 0.34425 0.0
C316 C 0.33822 0.97735 0.32998 0.0
C317 C 0.32808 0.9856 0.31817 0.0
H318 H 0.31302 1.00565 0.29527 0.0
H319 H 0.32862 0.03685 0.28733 0.0
H320 H 0.3937 0.98344 0.36215 0.0
H321 H 0.3617 0.9662 0.35311 0.0
H322 H 0.33219 0.9636 0.33369 0.0
H323 H 0.31442 0.97805 0.31292 0.0
Mn324 Mn 0.29368 0.19486 0.51191 0.0
Mn325 Mn 0.28677 0.15488 0.47853 0.0
C326 C 0.26418 0.17712 0.50158 0.0
C327 C 0.29831 0.20972 0.54359 0.0
C328 C 0.29825 0.19578 0.47077 0.0
O329 O 0.31865 0.18763 0.51194 0.0
O330 O 0.31083 0.15894 0.4921 0.0
C331 C 0.28577 0.12419 0.50103 0.0
N332 N 0.27783 0.13178 0.48783 0.0
C333 C 0.25262 0.10434 0.48165 0.0
C334 C 0.26056 0.09616 0.49512 0.0
C335 C 0.27717 0.10618 0.50491 0.0
C336 C 0.2618 0.12234 0.47842 0.0
H337 H 0.29855 0.13184 0.50852 0.0
C338 C 0.32218 0.17173 0.50376 0.0
O339 O 0.30272 0.21951 0.53053 0.0
O340 O 0.29191 0.19127 0.53837 0.0
N341 N 0.26381 0.14943 0.46453 0.0
C342 C 0.2574 0.16001 0.45301 0.0
C343 C 0.24078 0.15227 0.44242 0.0
C344 C 0.23102 0.13374 0.44371 0.0
C345 C 0.2377 0.12328 0.45594 0.0
C346 C 0.2544 0.13169 0.46605 0.0
H347 H 0.26498 0.17414 0.45174 0.0
O348 O 0.26719 0.19515 0.50961 0.0
O349 O 0.2785 0.17012 0.49972 0.0
O350 O 0.29719 0.20487 0.4871 0.0
O351 O 0.29559 0.1774 0.46687 0.0
C352 C 0.22849 0.10486 0.45849 0.0
C353 C 0.23587 0.09547 0.47145 0.0
H354 H 0.25397 0.08227 0.49816 0.0
H355 H 0.28334 0.09999 0.51538 0.0
H356 H 0.23563 0.16045 0.43309 0.0
H357 H 0.2185 0.12767 0.43514 0.0
H358 H 0.21569 0.09783 0.45064 0.0
H359 H 0.2285 0.08146 0.47352 0.0
Mn360 Mn 0.16954 0.01611 0.76576 0.0
Mn361 Mn 0.20283 0.02427 0.801 0.0
C362 C 0.18671 0.04901 0.77793 0.0
C363 C 0.15614 0.01283 0.73271 0.0
C364 C 0.16275 0.01463 0.80835 0.0
O365 O 0.17784 0.98829 0.76391 0.0
O366 O 0.20035 0.99689 0.78716 0.0
C367 C 0.23472 0.02225 0.77989 0.0
N368 N 0.22627 0.03196 0.79299 0.0
C369 C 0.25337 0.05652 0.80305 0.0
C370 C 0.26244 0.04673 0.78977 0.0
C371 C 0.25301 0.02964 0.77798 0.0
C372 C 0.23505 0.04872 0.80397 0.0
H373 H 0.22758 0.00895 0.77108 0.0
C374 C 0.19111 0.98421 0.77368 0.0
O375 O 0.14711 0.00706 0.74599 0.0
O376 O 0.17331 0.01851 0.73793 0.0
N377 N 0.20736 0.04975 0.81555 0.0
C378 C 0.19621 0.05836 0.82636 0.0
C379 C 0.20329 0.07612 0.83831 0.0
C380 C 0.2218 0.08457 0.83935 0.0
C381 C 0.23293 0.07545 0.82799 0.0
C382 C 0.22503 0.05812 0.81596 0.0
H383 H 0.18208 0.05166 0.82601 0.0
O384 O 0.1703 0.0452 0.77025 0.0
O385 O 0.19243 0.03328 0.77925 0.0
O386 O 0.15675 0.01385 0.79129 0.0
O387 O 0.17965 0.01696 0.81265 0.0
C388 C 0.25162 0.08268 0.82837 0.0
C389 C 0.26181 0.07351 0.81565 0.0
H390 H 0.27662 0.05223 0.78846 0.0
H391 H 0.25988 0.02202 0.76764 0.0
H392 H 0.19457 0.08309 0.84695 0.0
H393 H 0.22731 0.09811 0.84882 0.0
H394 H 0.25827 0.09505 0.83867 0.0
H395 H 0.27613 0.07951 0.81582 0.0
Mn396 Mn 0.31907 0.93037 0.01694 0.0
Mn397 Mn 0.32127 0.96471 0.99053 0.0
C398 C 0.34636 0.94524 0.00844 0.0
C399 C 0.31866 0.92113 0.04533 0.0
C400 C 0.30934 0.92176 0.97524 0.0
O401 O 0.29461 0.93693 0.0187 0.0
O402 O 0.29857 0.96145 1.00268 0.0
C403 C 0.32456 0.99795 0.02146 0.0
N404 N 0.33059 0.9896 1.00564 0.0
C405 C 0.35433 0.01779 0.00639 0.0
C406 C 0.34801 0.02696 0.02234 0.0
C407 C 0.33317 0.0169 0.03003 0.0
C408 C 0.34522 0.99887 0.99852 0.0
H409 H 0.31342 0.9901 0.02759 0.0
C410 C 0.28936 0.95053 0.01249 0.0
O411 O 0.31193 0.9088 0.03029 0.0
O412 O 0.32519 0.939 0.04404 0.0
N413 N 0.34266 0.96978 0.97801 0.0
C414 C 0.34827 0.95811 0.96395 0.0
C415 C 0.3633 0.96566 0.95504 0.0
C416 C 0.37234 0.98512 0.96068 0.0
C417 C 0.36667 0.99669 0.97555 0.0
C418 C 0.35147 0.98844 0.98372 0.0
H419 H 0.34143 0.94314 0.95968 0.0
O420 O 0.34451 0.92868 0.01378 0.0
O421 O 0.3324 0.95291 0.00882 0.0
O422 O 0.31152 0.91611 0.99056 0.0
O423 O 0.31213 0.93956 0.97369 0.0
C424 C 0.37553 0.01605 0.98263 0.0
C425 C 0.3695 0.02652 0.99818 0.0
H426 H 0.35464 0.04157 0.02899 0.0
H427 H 0.32844 0.02372 0.04255 0.0
H428 H 0.36783 0.95657 0.94378 0.0
H429 H 0.38357 0.99104 0.95349 0.0
H430 H 0.38712 0.02296 0.9764 0.0
H431 H 0.37671 0.04123 1.0038 0.0
Mn432 Mn 0.31205 0.39148 0.03829 0.0
Mn433 Mn 0.32039 0.42833 0.01428 0.0
C434 C 0.34198 0.40783 0.03614 0.0
C435 C 0.30597 0.38002 0.06636 0.0
C436 C 0.3113 0.386 0.9954 0.0
O437 O 0.28711 0.3984 0.0359 0.0
O438 O 0.29523 0.42285 0.02051 0.0
C439 C 0.31581 0.45931 0.04466 0.0
N440 N 0.32564 0.45255 0.0311 0.0
C441 C 0.34738 0.48293 0.03622 0.0
C442 C 0.33738 0.49033 0.05009 0.0
C443 C 0.32159 0.47842 0.05443 0.0
C444 C 0.341 0.46375 0.02708 0.0
H445 H 0.30364 0.45021 0.04796 0.0
C446 C 0.28357 0.41217 0.02839 0.0
O447 O 0.30195 0.36868 0.05023 0.0
O448 O 0.31317 0.39801 0.06617 0.0
N449 N 0.34415 0.4361 0.0071 0.0
C450 C 0.35302 0.42619 0.99461 0.0
C451 C 0.36894 0.43599 0.98854 0.0
C452 C 0.37562 0.45583 0.99552 0.0
C453 C 0.36666 0.46553 0.00891 0.0
C454 C 0.35061 0.45513 0.01406 0.0
H455 H 0.34795 0.41097 0.98932 0.0
O456 O 0.33836 0.39058 0.04008 0.0
O457 O 0.32806 0.4153 0.03383 0.0
O458 O 0.30906 0.3787 0.01017 0.0
O459 O 0.31548 0.40421 0.9957 0.0
C460 C 0.37307 0.48508 0.01744 0.0
C461 C 0.36352 0.49372 0.03122 0.0
H462 H 0.34178 0.50508 0.05761 0.0
H463 H 0.31386 0.48397 0.06519 0.0
H464 H 0.37584 0.4283 0.97832 0.0
H465 H 0.38756 0.46357 0.99048 0.0
H466 H 0.38549 0.49349 0.01375 0.0
H467 H 0.36875 0.50865 0.03795 0.0
Mn468 Mn 0.79078 0.15983 0.02389 0.0
Mn469 Mn 0.77591 0.12044 0.99019 0.0
C470 C 0.76043 0.14821 0.01601 0.0
C471 C 0.79902 0.17463 0.05445 0.0
C472 C 0.79136 0.16033 0.98253 0.0
O473 O 0.81256 0.14809 0.02196 0.0
O474 O 0.801 0.12176 0.99989 0.0
C475 C 0.77569 0.08998 0.0129 0.0
N476 N 0.76695 0.09811 1.00074 0.0
C477 C 0.7399 0.07324 0.9989 0.0
C478 C 0.7487 0.06445 0.01121 0.0
C479 C 0.76665 0.07291 0.01829 0.0
C480 C 0.74966 0.09013 0.99388 0.0
H481 H 0.78942 0.09652 0.01851 0.0
C482 C 0.81372 0.13234 0.01167 0.0
O483 O 0.80459 0.18321 0.0409 0.0
O484 O 0.78953 0.15697 0.05019 0.0
N485 N 0.75161 0.11717 0.97987 0.0
C486 C 0.74457 0.1285 0.96966 0.0
C487 C 0.7265 0.12251 0.96212 0.0
C488 C 0.71592 0.10494 0.96511 0.0
C489 C 0.72339 0.09369 0.97589 0.0
C490 C 0.74153 0.10024 0.98281 0.0
H491 H 0.75269 0.14196 0.96725 0.0
O492 O 0.76673 0.16618 0.02374 0.0
O493 O 0.77216 0.13751 0.01286 0.0
O494 O 0.79462 0.16881 0.9994 0.0
O495 O 0.78444 0.14229 0.97753 0.0
C496 C 0.71345 0.0764 0.9803 0.0
C497 C 0.72168 0.06621 0.99185 0.0
H498 H 0.74172 0.05138 0.01554 0.0
H499 H 0.77347 0.06633 0.02795 0.0
H500 H 0.72076 0.13136 0.95395 0.0
H501 H 0.70204 0.10025 0.95916 0.0
H502 H 0.69936 0.071 0.97517 0.0
H503 H 0.7138 0.05316 0.99546 0.0
Mn504 Mn 0.1867 0.54309 0.24746 0.0
Mn505 Mn 0.22351 0.55901 0.27824 0.0
C506 C 0.2014 0.57493 0.25316 0.0
C507 C 0.17236 0.53187 0.2182 0.0
C508 C 0.1857 0.54933 0.28948 0.0
O509 O 0.19447 0.51832 0.24918 0.0
O510 O 0.21902 0.53066 0.26976 0.0
C511 C 0.25158 0.5505 0.25365 0.0
N512 N 0.24495 0.56333 0.26568 0.0
C513 C 0.27177 0.58825 0.26645 0.0
C514 C 0.2789 0.57532 0.25405 0.0
C515 C 0.26869 0.55641 0.2475 0.0
C516 C 0.25449 0.58167 0.27175 0.0
H517 H 0.24393 0.53585 0.24889 0.0
C518 C 0.20818 0.51654 0.25893 0.0
O519 O 0.16394 0.52942 0.23285 0.0
O520 O 0.18951 0.5397 0.22044 0.0
N521 N 0.22944 0.58635 0.28718 0.0
C522 C 0.21991 0.59752 0.29762 0.0
C523 C 0.22781 0.61712 0.3045 0.0
C524 C 0.24557 0.62489 0.30095 0.0
C525 C 0.25509 0.61308 0.29018 0.0
C526 C 0.24631 0.59383 0.28323 0.0
H527 H 0.20635 0.59153 0.30055 0.0
O528 O 0.18441 0.57006 0.24722 0.0
O529 O 0.20914 0.56118 0.25613 0.0
O530 O 0.17788 0.54402 0.27313 0.0
O531 O 0.20267 0.55557 0.29306 0.0
C532 C 0.27294 0.61963 0.28604 0.0
C533 C 0.28117 0.60735 0.2739 0.0
H534 H 0.29218 0.57975 0.24946 0.0
H535 H 0.27411 0.54635 0.23794 0.0
H536 H 0.22031 0.62616 0.3127 0.0
H537 H 0.2517 0.63997 0.30643 0.0
H538 H 0.28027 0.63428 0.29167 0.0
H539 H 0.29468 0.61279 0.27033 0.0
Mn540 Mn 0.81205 0.8907 0.53749 0.0
Mn541 Mn 0.82083 0.92604 0.51197 0.0
C542 C 0.84194 0.90621 0.53491 0.0
C543 C 0.80547 0.88081 0.56594 0.0
C544 C 0.80839 0.88331 0.4949 0.0
O545 O 0.78754 0.89851 0.53426 0.0
O546 O 0.7968 0.92472 0.52116 0.0
C547 C 0.82299 0.96013 0.54164 0.0
N548 N 0.83051 0.95057 0.52757 0.0
C549 C 0.85653 0.97693 0.53089 0.0
C550 C 0.84895 0.98721 0.54523 0.0
C551 C 0.83218 0.9787 0.55073 0.0
C552 C 0.84684 0.9584 0.52249 0.0
H553 H 0.81013 0.95361 0.5459 0.0
C554 C 0.78487 0.91371 0.52855 0.0
O555 O 0.80135 0.86884 0.5502 0.0
O556 O 0.81305 0.89858 0.56525 0.0
N557 N 0.8439 0.92903 0.50229 0.0
C558 C 0.84977 0.91675 0.48894 0.0
C559 C 0.86668 0.92274 0.48241 0.0
C560 C 0.87721 0.94138 0.48941 0.0
C561 C 0.87077 0.95385 0.50294 0.0
C562 C 0.85388 0.94704 0.50901 0.0
H563 H 0.84165 0.90251 0.48332 0.0
O564 O 0.83836 0.88942 0.5399 0.0
O565 O 0.82805 0.91337 0.53183 0.0
O566 O 0.80923 0.87676 0.51003 0.0
O567 O 0.81127 0.90136 0.49438 0.0
C568 C 0.88046 0.97273 0.51068 0.0
C569 C 0.87338 0.98424 0.52471 0.0
H570 H 0.85598 1.00156 0.55224 0.0
H571 H 0.82632 0.98646 0.56191 0.0
H572 H 0.87154 0.91303 0.47194 0.0
H573 H 0.89025 0.94594 0.48434 0.0
H574 H 0.89352 0.97844 0.50619 0.0
H575 H 0.88114 0.99859 0.53084 0.0
Mn576 Mn 0.93518 0.06507 0.26834 0.0
Mn577 Mn 0.90165 0.06185 0.2976 0.0
C578 C 0.91753 0.03327 0.27218 0.0
C579 C 0.94832 0.06626 0.23736 0.0
C580 C 0.9416 0.06854 0.31277 0.0
O581 O 0.92799 0.09333 0.27093 0.0
O582 O 0.90708 0.08836 0.29102 0.0
C583 C 0.87222 0.06618 0.27137 0.0
N584 N 0.87856 0.05638 0.28371 0.0
C585 C 0.84924 0.0355 0.28304 0.0
C586 C 0.84236 0.04546 0.27046 0.0
C587 C 0.85394 0.06077 0.26449 0.0
C588 C 0.86762 0.04138 0.28921 0.0
H589 H 0.88097 0.07809 0.26687 0.0
C590 C 0.91551 0.09914 0.28054 0.0
O591 O 0.95762 0.07194 0.25339 0.0
O592 O 0.93119 0.06078 0.23908 0.0
N593 N 0.8935 0.03774 0.30531 0.0
C594 C 0.90256 0.02859 0.31618 0.0
C595 C 0.8929 0.01333 0.32376 0.0
C596 C 0.8741 0.00768 0.31991 0.0
C597 C 0.86521 0.0164 0.30775 0.0
C598 C 0.87547 0.03179 0.30096 0.0
H599 H 0.91701 0.03292 0.31905 0.0
O600 O 0.93356 0.03579 0.26647 0.0
O601 O 0.91199 0.04948 0.27549 0.0
O602 O 0.9479 0.06959 0.29671 0.0
O603 O 0.92465 0.06677 0.3142 0.0
C604 C 0.84656 0.01054 0.30223 0.0
C605 C 0.83861 0.01996 0.28971 0.0
H606 H 0.82823 0.04144 0.26525 0.0
H607 H 0.84876 0.06848 0.25473 0.0
H608 H 0.89985 1.00622 0.33281 0.0
H609 H 0.8665 0.99681 0.32648 0.0
H610 H 0.83827 0.99865 0.30734 0.0
H611 H 0.82431 0.01515 0.28532 0.0
Mn612 Mn 0.28937 0.65582 0.52346 0.0
Mn613 Mn 0.28094 0.61672 0.48917 0.0
C614 C 0.26005 0.64042 0.51249 0.0
C615 C 0.29437 0.67101 0.55418 0.0
C616 C 0.29367 0.65767 0.48291 0.0
O617 O 0.3132 0.64729 0.5238 0.0
O618 O 0.30514 0.61995 0.50217 0.0
C619 C 0.27971 0.58569 0.51134 0.0
N620 N 0.27185 0.59356 0.49831 0.0
C621 C 0.24699 0.56584 0.49113 0.0
C622 C 0.25489 0.5573 0.50433 0.0
C623 C 0.27123 0.56737 0.51462 0.0
C624 C 0.25588 0.58426 0.48874 0.0
H625 H 0.29234 0.59332 0.51913 0.0
C626 C 0.31637 0.63177 0.51468 0.0
O627 O 0.29993 0.68001 0.54093 0.0
O628 O 0.28668 0.65271 0.54967 0.0
N629 N 0.25775 0.6119 0.47572 0.0
C630 C 0.25119 0.62287 0.46473 0.0
C631 C 0.23449 0.61534 0.45417 0.0
C632 C 0.22494 0.59648 0.45471 0.0
C633 C 0.232 0.58553 0.46617 0.0
C634 C 0.24845 0.59397 0.47673 0.0
H635 H 0.25868 0.6372 0.46393 0.0
O636 O 0.26389 0.65842 0.52078 0.0
O637 O 0.27347 0.63194 0.51089 0.0
O638 O 0.29389 0.66586 0.49965 0.0
O639 O 0.28976 0.63937 0.47763 0.0
C640 C 0.22348 0.56647 0.46737 0.0
C641 C 0.23075 0.55673 0.48009 0.0
H642 H 0.24849 0.54308 0.50673 0.0
H643 H 0.27736 0.56094 0.52491 0.0
H644 H 0.22912 0.62393 0.44541 0.0
H645 H 0.21218 0.59059 0.44634 0.0
H646 H 0.21148 0.55914 0.45837 0.0
H647 H 0.22382 0.54221 0.48116 0.0
Mn648 Mn 0.43584 0.56422 0.76828 0.0
Mn649 Mn 0.40242 0.55912 0.79782 0.0
C650 C 0.41913 0.53217 0.77139 0.0
C651 C 0.44889 0.56648 0.73742 0.0
C652 C 0.44256 0.56783 0.81267 0.0
O653 O 0.42741 0.59173 0.77146 0.0
O654 O 0.40604 0.58583 0.79114 0.0
C655 C 0.37157 0.56085 0.77216 0.0
N656 N 0.37918 0.55153 0.7841 0.0
C657 C 0.35208 0.52647 0.78103 0.0
C658 C 0.34393 0.5359 0.76883 0.0
C659 C 0.35374 0.55312 0.76432 0.0
C660 C 0.36988 0.53488 0.78845 0.0
H661 H 0.37901 0.57409 0.76862 0.0
C662 C 0.41452 0.59693 0.78085 0.0
O663 O 0.45804 0.57264 0.75351 0.0
O664 O 0.43185 0.56006 0.73906 0.0
N665 N 0.39648 0.53446 0.80539 0.0
C666 C 0.40673 0.5263 0.81617 0.0
C667 C 0.3991 0.50861 0.82134 0.0
C668 C 0.38098 0.49958 0.81557 0.0
C669 C 0.37067 0.50827 0.80456 0.0
C670 C 0.37899 0.52594 0.79986 0.0
H671 H 0.42065 0.53311 0.82072 0.0
O672 O 0.43519 0.53517 0.76576 0.0
O673 O 0.41321 0.54806 0.77535 0.0
O674 O 0.44865 0.56851 0.79649 0.0
O675 O 0.42565 0.56604 0.81431 0.0
C676 C 0.35261 0.49983 0.79767 0.0
C677 C 0.34334 0.50889 0.78586 0.0
H678 H 0.33019 0.52996 0.76272 0.0
H679 H 0.34758 0.56042 0.75484 0.0
H680 H 0.40717 0.50196 0.82977 0.0
H681 H 0.37518 0.48589 0.81952 0.0
H682 H 0.34581 0.4862 0.8011 0.0
H683 H 0.32956 0.50209 0.78039 0.0
Mn684 Mn 0.68992 0.04123 0.74507 0.0
Mn685 Mn 0.72638 0.05791 0.77627 0.0
C686 C 0.704 0.07335 0.75067 0.0
C687 C 0.67584 0.02877 0.71575 0.0
C688 C 0.68854 0.04854 0.78711 0.0
O689 O 0.69799 0.01677 0.74713 0.0
O690 O 0.72153 0.02938 0.76878 0.0
C691 C 0.75425 0.04784 0.7521 0.0
N692 N 0.74791 0.06121 0.76381 0.0
C693 C 0.77534 0.08525 0.76443 0.0
C694 C 0.78217 0.07176 0.75238 0.0
C695 C 0.77151 0.05302 0.74607 0.0
C696 C 0.75791 0.07937 0.76967 0.0
H697 H 0.74625 0.03331 0.74752 0.0
C698 C 0.71109 0.01512 0.75778 0.0
O699 O 0.66743 0.02648 0.73043 0.0
O700 O 0.69277 0.03762 0.71812 0.0
N701 N 0.73292 0.08532 0.7846 0.0
C702 C 0.72373 0.09704 0.79484 0.0
C703 C 0.73221 0.11649 0.80169 0.0
C704 C 0.75017 0.12354 0.7983 0.0
C705 C 0.75932 0.11119 0.78766 0.0
C706 C 0.75003 0.0921 0.78085 0.0
H707 H 0.71003 0.09157 0.79769 0.0
O708 O 0.68706 0.06794 0.74451 0.0
O709 O 0.71216 0.05991 0.75382 0.0
O710 O 0.681 0.04221 0.77073 0.0
O711 O 0.7054 0.05549 0.79088 0.0
C712 C 0.77726 0.1171 0.78341 0.0
C713 C 0.78516 0.10426 0.77155 0.0
H714 H 0.79556 0.07563 0.74786 0.0
H715 H 0.77668 0.04254 0.73675 0.0
H716 H 0.725 0.12596 0.80974 0.0
H717 H 0.75673 0.13851 0.80374 0.0
H718 H 0.78496 0.13163 0.78887 0.0
H719 H 0.79878 0.10915 0.768 0.0
Mn720 Mn 0.79338 0.6966 0.01194 0.0
Mn721 Mn 0.78529 0.65658 0.97821 0.0
C722 C 0.76394 0.67866 1.00283 0.0
C723 C 0.79903 0.71171 0.04349 0.0
C724 C 0.79514 0.6974 0.97006 0.0
O725 O 0.81808 0.68945 0.01127 0.0
O726 O 0.81075 0.66222 0.98929 0.0
C727 C 0.78887 0.62692 1.00091 0.0
N728 N 0.77894 0.63361 0.98852 0.0
C729 C 0.75473 0.60534 0.98545 0.0
C730 C 0.76473 0.59811 0.99812 0.0
C731 C 0.78184 0.60899 0.00594 0.0
C732 C 0.76244 0.62329 0.98096 0.0
H733 H 0.80205 0.63521 0.00689 0.0
C734 C 0.82202 0.67467 1.00136 0.0
O735 O 0.8029 0.72138 0.03024 0.0
O736 O 0.79245 0.69327 0.03854 0.0
N737 N 0.76111 0.64953 0.96662 0.0
C738 C 0.75243 0.65951 0.95629 0.0
C739 C 0.7348 0.6511 0.94818 0.0
C740 C 0.72631 0.6325 0.95073 0.0
C741 C 0.73547 0.62258 0.96156 0.0
C742 C 0.75301 0.63171 0.96931 0.0
H743 H 0.75878 0.6739 0.9545 0.0
O744 O 0.76695 0.6968 0.01051 0.0
O745 O 0.77822 0.6717 1.0003 0.0
O746 O 0.79636 0.70638 0.98688 0.0
O747 O 0.79123 0.67899 0.96564 0.0
C748 C 0.72775 0.60416 0.96529 0.0
C749 C 0.73731 0.5956 0.97733 0.0
H750 H 0.75934 0.58431 1.00207 0.0
H751 H 0.78961 0.60353 0.01578 0.0
H752 H 0.72775 0.65897 0.94004 0.0
H753 H 0.71267 0.62611 0.94455 0.0
H754 H 0.71431 0.59661 0.95924 0.0
H755 H 0.73104 0.58164 0.98044 0.0
Mn756 Mn 0.921 0.54003 0.79842 0.0
Mn757 Mn 0.88967 0.54346 0.82902 0.0
C758 C 0.90382 0.51264 0.80592 0.0
C759 C 0.93068 0.53896 0.7691 0.0
C760 C 0.92975 0.55285 0.83989 0.0
O761 O 0.91773 0.56728 0.79957 0.0
O762 O 0.89435 0.56679 0.81748 0.0
C763 C 0.85758 0.54229 0.80378 0.0
N764 N 0.86576 0.5348 0.81691 0.0
C765 C 0.83862 0.51089 0.81795 0.0
C766 C 0.82991 0.51834 0.80444 0.0
C767 C 0.83945 0.53408 0.7973 0.0
C768 C 0.8567 0.51968 0.8239 0.0
H769 H 0.86484 0.55444 0.79834 0.0
C770 C 0.90573 0.57487 0.80734 0.0
O771 O 0.94185 0.54489 0.78393 0.0
O772 O 0.91357 0.53381 0.77116 0.0
N773 N 0.88396 0.52136 0.84073 0.0
C774 C 0.89474 0.51493 0.85256 0.0
C775 C 0.88741 0.49892 0.86056 0.0
C776 C 0.86908 0.48978 0.8564 0.0
C777 C 0.85831 0.49653 0.84402 0.0
C778 C 0.86634 0.51258 0.83654 0.0
H779 H 0.90881 0.52195 0.85587 0.0
O780 O 0.91916 0.5122 0.79907 0.0
O781 O 0.89886 0.52899 0.80787 0.0
O782 O 0.93438 0.54751 0.82385 0.0
O783 O 0.91348 0.55251 0.84334 0.0
C784 C 0.83997 0.48788 0.83871 0.0
C785 C 0.83016 0.49493 0.82558 0.0
H786 H 0.81593 0.51202 0.79937 0.0
H787 H 0.83282 0.5399 0.78685 0.0
H788 H 0.89583 0.49371 0.87 0.0
H789 H 0.86345 0.4776 0.86277 0.0
H790 H 0.8333 0.47576 0.84459 0.0
H791 H 0.81615 0.48792 0.82137 0.0
Mn792 Mn 0.81965 0.42876 0.52104 0.0
Mn793 Mn 0.82066 0.46068 0.49196 0.0
C794 C 0.84681 0.44415 0.51207 0.0
C795 C 0.81957 0.42056 0.55017 0.0
C796 C 0.81066 0.41737 0.4791 0.0
O797 O 0.79469 0.43476 0.52228 0.0
O798 O 0.79789 0.4569 0.50366 0.0
C799 C 0.82122 0.49571 0.52 0.0
N800 N 0.82848 0.48651 0.50548 0.0
C801 C 0.85035 0.51559 0.50401 0.0
C802 C 0.84308 0.52544 0.5189 0.0
C803 C 0.82854 0.51541 0.52702 0.0
C804 C 0.84269 0.4959 0.49783 0.0
H805 H 0.80991 0.48807 0.52611 0.0
C806 C 0.78887 0.44713 0.51445 0.0
O807 O 0.81318 0.40779 0.53535 0.0
O808 O 0.82558 0.43837 0.54828 0.0
N809 N 0.84202 0.46596 0.47953 0.0
C810 C 0.84814 0.45401 0.4661 0.0
C811 C 0.86258 0.46171 0.45651 0.0
C812 C 0.87039 0.48161 0.46068 0.0
C813 C 0.86413 0.49355 0.47484 0.0
C814 C 0.84968 0.48507 0.48388 0.0
H815 H 0.84197 0.43876 0.46264 0.0
O816 O 0.84547 0.42807 0.51826 0.0
O817 O 0.83241 0.45109 0.51174 0.0
O818 O 0.81257 0.41284 0.49501 0.0
O819 O 0.8129 0.43478 0.47657 0.0
C820 C 0.87148 0.51355 0.48021 0.0
C821 C 0.86483 0.52451 0.495 0.0
H822 H 0.84859 0.54068 0.52424 0.0
H823 H 0.82288 0.52289 0.53854 0.0
H824 H 0.86747 0.4524 0.44571 0.0
H825 H 0.88104 0.48755 0.45277 0.0
H826 H 0.8822 0.52064 0.47305 0.0
H827 H 0.87087 0.53981 0.49922 0.0
Mn828 Mn 0.66986 0.51648 0.26598 0.0
Mn829 Mn 0.70329 0.52615 0.30124 0.0
C830 C 0.68689 0.54969 0.27754 0.0
C831 C 0.65653 0.51268 0.23288 0.0
C832 C 0.66319 0.5165 0.30879 0.0
O833 O 0.67838 0.48868 0.2648 0.0
O834 O 0.70067 0.49868 0.28812 0.0
C835 C 0.73471 0.52344 0.2795 0.0
N836 N 0.7266 0.53336 0.29278 0.0
C837 C 0.75394 0.55766 0.30232 0.0
C838 C 0.76275 0.54752 0.28904 0.0
C839 C 0.75301 0.53048 0.27738 0.0
C840 C 0.73561 0.5502 0.30346 0.0
H841 H 0.72728 0.51028 0.27065 0.0
C842 C 0.69186 0.48537 0.27491 0.0
O843 O 0.64743 0.50733 0.24628 0.0
O844 O 0.67371 0.51815 0.23803 0.0
N845 N 0.70807 0.55193 0.31512 0.0
C846 C 0.6971 0.56095 0.32579 0.0
C847 C 0.7044 0.57891 0.33734 0.0
C848 C 0.72296 0.5871 0.33816 0.0
C849 C 0.73391 0.57752 0.32698 0.0
C850 C 0.72578 0.56002 0.31532 0.0
H851 H 0.68294 0.55444 0.32562 0.0
O852 O 0.67049 0.54565 0.26985 0.0
O853 O 0.69269 0.53414 0.27917 0.0
O854 O 0.65707 0.51471 0.29159 0.0
O855 O 0.68017 0.51949 0.31312 0.0
C856 C 0.75263 0.58444 0.3272 0.0
C857 C 0.76262 0.57473 0.31466 0.0
H858 H 0.77693 0.55276 0.28756 0.0
H859 H 0.75965 0.52267 0.26695 0.0
H860 H 0.69583 0.58622 0.34587 0.0
H861 H 0.72863 0.60079 0.34734 0.0
H862 H 0.75944 0.59703 0.33718 0.0
H863 H 0.77699 0.5804 0.31474 0.0
Gd864 Gd 0.07379 0.05534 0.03123 0.0
Gd865 Gd 0.03208 0.02677 0.00844 0.0
C866 C 0.01053 0.96175 1.00458 0.0
C867 C 0.00694 0.94999 0.97121 0.0
C868 C 0.01928 0.98412 0.98372 0.0
C869 C 0.01799 0.98058 1.00159 0.0
C870 C 0.01361 0.9689 0.96829 0.0
C871 C 0.00524 0.94646 0.98932 0.0
C872 C 0.00777 0.95903 0.02274 0.0
C873 C 0.0123 0.97477 0.03736 0.0
N874 N 0.0227 0.99577 0.01599 0.0
C875 C 0.01947 0.99315 0.03368 0.0
H876 H 0.02254 1.00509 0.04522 0.0
C877 C 0.02439 0.00711 0.96393 0.0
N878 N 0.02489 1.00267 0.98139 0.0
C879 C 0.01936 0.9925 0.94821 0.0
C880 C 0.01406 0.97327 0.95039 0.0
H881 H 0.02816 0.02198 0.96209 0.0
H882 H 0.99934 0.93195 0.99133 0.0
H883 H 0.08318 0.08311 0.99894 0.0
H884 H 1.00151 0.94503 0.02559 0.0
H885 H 0.00999 0.97283 0.05144 0.0
H886 H 1.00248 0.93813 0.95955 0.0
H887 H 0.08569 0.05489 0.07646 0.0
H888 H 0.09009 0.14233 0.0249 0.0
H889 H 0.08901 0.11762 0.99671 0.0
H890 H 0.09189 0.13931 0.08963 0.0
H891 H 0.01936 0.9961 0.93445 0.0
H892 H 0.00986 0.96198 0.93819 0.0
H893 H 0.09084 0.15025 0.05963 0.0
H894 H 0.09201 0.0777 0.10625 0.0
N895 N 0.07935 0.08796 0.02779 0.0
C896 C 0.08722 0.12714 0.02591 0.0
C897 C 0.08668 0.11326 0.00998 0.0
C898 C 0.08532 0.12132 0.04313 0.0
C899 C 0.08163 0.10134 0.04368 0.0
C900 C 0.08321 0.09367 0.01129 0.0
N901 N 0.08118 0.07602 0.06053 0.0
C902 C 0.08255 0.09518 0.06059 0.0
C903 C 0.08919 0.08278 0.09354 0.0
C904 C 0.08951 0.10232 0.09398 0.0
C905 C 0.08546 0.06985 0.07657 0.0
C906 C 0.0867 0.10884 0.07735 0.0
H907 H 0.09269 0.11235 0.10713 0.0
O908 O 0.09497 0.03915 0.0312 0.0
O909 O 0.05776 0.02481 0.02282 0.0
O910 O 0.02808 0.03693 0.03991 0.0
O911 O 0.05432 0.05839 0.0544 0.0
O912 O 0.07051 0.0328 0.04952 0.0
O913 O 0.10135 0.06903 0.02804 0.0
O914 O 0.01077 0.03512 0.9933 0.0
O915 O 0.04792 0.05744 0.01688 0.0
O916 O 0.07583 0.04844 0.99902 0.0
O917 O 0.05395 0.02033 0.98869 0.0
O918 O 0.03641 0.04874 0.98971 0.0
O919 O 0.0061 0.02555 0.01964 0.0
C920 C 0.06041 0.01863 0.03787 0.0
C921 C 0.08886 0.12864 0.07689 0.0
C922 C 0.08822 0.13487 0.05981 0.0
C923 C 0.10759 0.054 0.02994 0.0
C924 C 0.12411 0.05733 0.04224 0.0
C925 C 0.12874 0.0727 0.05748 0.0
C926 C 0.1357 0.04489 0.03814 0.0
C927 C 0.15181 0.0473 0.04931 0.0
C928 C 0.14488 0.07537 0.06858 0.0
C929 C 0.15639 0.06273 0.06458 0.0
C930 C 0.03727 0.049 0.05496 0.0
C931 C 0.04537 0.06328 1.00163 0.0
C932 C 0.99944 0.03168 1.00563 0.0
C933 C 0.9807 0.02331 0.99869 0.0
C934 C 0.97532 0.00634 0.9853 0.0
C935 C 0.96819 0.03407 1.00455 0.0
C936 C 0.95037 0.02884 0.99644 0.0
C937 C 0.95735 1.00046 0.97768 0.0
C938 C 0.94492 0.01173 0.98305 0.0
C939 C 0.06888 0.0328 0.98597 0.0
H940 H 0.12001 0.08265 0.06072 0.0
H941 H 0.13218 0.03341 0.02601 0.0
H942 H 0.14846 0.08721 0.08033 0.0
H943 H 0.16869 0.06488 0.07355 0.0
H944 H 0.98499 0.99795 0.98055 0.0
H945 H 0.9726 0.04697 0.01518 0.0
H946 H 0.95315 0.98742 0.96725 0.0
H947 H 0.93128 0.00733 0.9764 0.0
Gd948 Gd 0.29788 0.80527 0.29037 0.0
Gd949 Gd 0.31093 0.7768 0.24882 0.0
C950 C 0.29501 0.71144 0.22818 0.0
C951 C 0.3241 0.70268 0.22858 0.0
C952 C 0.3222 0.73605 0.23955 0.0
C953 C 0.30355 0.73083 0.23589 0.0
C954 C 0.33265 0.72202 0.23571 0.0
C955 C 0.30534 0.69742 0.22474 0.0
C956 C 0.2763 0.70661 0.22421 0.0
C957 C 0.26644 0.72075 0.22853 0.0
N958 N 0.29377 0.7446 0.2399 0.0
C959 C 0.27533 0.73961 0.23665 0.0
H960 H 0.26706 0.74979 0.24036 0.0
C961 C 0.34863 0.76086 0.24789 0.0
N962 N 0.33019 0.75493 0.24612 0.0
C963 C 0.35948 0.74746 0.24454 0.0
C964 C 0.35146 0.72792 0.23861 0.0
H965 H 0.35507 0.77599 0.25215 0.0
H966 H 0.29895 0.68246 0.21904 0.0
H967 H 0.34522 0.8212 0.30326 0.0
H968 H 0.2693 0.69195 0.21809 0.0
H969 H 0.2519 0.7171 0.22576 0.0
H970 H 0.3319 0.69173 0.22566 0.0
H971 H 0.26048 0.82125 0.28237 0.0
H972 H 0.35548 0.87919 0.33121 0.0
H973 H 0.36559 0.84906 0.32122 0.0
H974 H 0.30056 0.89865 0.31985 0.0
H975 H 0.37403 0.75227 0.24637 0.0
H976 H 0.35991 0.71757 0.23583 0.0
H977 H 0.33154 0.89765 0.3299 0.0
H978 H 0.24974 0.85123 0.28807 0.0
N979 N 0.32139 0.83289 0.30503 0.0
C980 C 0.34588 0.86641 0.32388 0.0
C981 C 0.35158 0.84942 0.31843 0.0
C982 C 0.32814 0.86704 0.31889 0.0
C983 C 0.31605 0.84993 0.30938 0.0
C984 C 0.33935 0.83301 0.30869 0.0
N985 N 0.28756 0.83435 0.29377 0.0
C986 C 0.29874 0.85069 0.30339 0.0
C987 C 0.26362 0.85139 0.29229 0.0
C988 C 0.2752 0.86847 0.30136 0.0
C989 C 0.26994 0.83439 0.2889 0.0
C990 C 0.29292 0.86827 0.30721 0.0
H991 H 0.27026 0.88165 0.30405 0.0
O992 O 0.26961 0.79448 0.29334 0.0
O993 O 0.29293 0.7766 0.27132 0.0
O994 O 0.28249 0.78086 0.24306 0.0
O995 O 0.28319 0.80936 0.26352 0.0
O996 O 0.29719 0.77717 0.30001 0.0
O997 O 0.28815 0.80804 0.31785 0.0
O998 O 0.30977 0.79505 0.22804 0.0
O999 O 0.31184 0.80569 0.26492 0.0
O1000 O 0.32255 0.79513 0.30041 0.0
O1001 O 0.32976 0.77521 0.27413 0.0
O1002 O 0.33612 0.80052 0.25565 0.0
O1003 O 0.31649 0.76747 0.22033 0.0
C1004 C 0.2935 0.76645 0.28373 0.0
C1005 C 0.30481 0.88508 0.31686 0.0
C1006 C 0.32239 0.88447 0.32268 0.0
C1007 C 0.27195 0.79793 0.31147 0.0
C1008 C 0.26416 0.78142 0.32032 0.0
C1009 C 0.24622 0.77148 0.31481 0.0
C1010 C 0.27467 0.7744 0.33285 0.0
C1011 C 0.26749 0.75719 0.33914 0.0
C1012 C 0.23903 0.75448 0.32116 0.0
C1013 C 0.24961 0.74727 0.33314 0.0
C1014 C 0.27599 0.79641 0.24837 0.0
C1015 C 0.32821 0.81317 0.26424 0.0
C1016 C 0.31597 0.78386 0.21549 0.0
C1017 C 0.33175 0.79329 0.20713 0.0
C1018 C 0.34908 0.79059 0.21165 0.0
C1019 C 0.32956 0.80605 0.19523 0.0
C1020 C 0.34457 0.81643 0.18808 0.0
C1021 C 0.36406 0.80085 0.20465 0.0
C1022 C 0.36188 0.81382 0.19301 0.0
C1023 C 0.33267 0.7837 0.29209 0.0
H1024 H 0.2379 0.77659 0.30517 0.0
H1025 H 0.28855 0.78187 0.33724 0.0
H1026 H 0.22525 0.74679 0.31667 0.0
H1027 H 0.24372 0.7341 0.33798 0.0
H1028 H 0.35111 0.78069 0.22064 0.0
H1029 H 0.31609 0.80774 0.19149 0.0
H1030 H 0.3774 0.79883 0.20833 0.0
H1031 H 0.37375 0.82187 0.18798 0.0
Gd1032 Gd 0.53365 0.04396 0.53418 0.0
Gd1033 Gd 0.57762 0.04782 0.51476 0.0
C1034 C 0.61477 0.10532 0.51016 0.0
C1035 C 0.61467 0.10318 0.47668 0.0
C1036 C 0.59749 0.07666 0.48952 0.0
C1037 C 0.60302 0.08687 0.50732 0.0
C1038 C 0.60351 0.08452 0.47398 0.0
C1039 C 0.62027 0.11358 0.49475 0.0
C1040 C 0.62108 0.11465 0.52838 0.0
C1041 C 0.6162 0.10525 0.54316 0.0
N1042 N 0.5977 0.07833 0.52187 0.0
C1043 C 0.60468 0.08685 0.53959 0.0
H1044 H 0.60104 0.07976 0.55114 0.0
C1045 C 0.58249 0.04721 0.4702 0.0
N1046 N 0.58684 0.05862 0.48744 0.0
C1047 C 0.58808 0.05439 0.45435 0.0
C1048 C 0.59849 0.0732 0.45623 0.0
H1049 H 0.57443 0.03267 0.46854 0.0
H1050 H 0.6292 0.1278 0.49665 0.0
H1051 H 0.51096 0.01314 0.49672 0.0
H1052 H 0.63008 0.12883 0.5311 0.0
H1053 H 0.62128 0.11214 0.55729 0.0
H1054 H 0.61934 0.10954 0.46492 0.0
H1055 H 0.53625 0.05738 0.58046 0.0
H1056 H 0.47964 0.96391 0.51461 0.0
H1057 H 0.48992 0.98127 0.48933 0.0
H1058 H 0.48875 0.98108 0.58106 0.0
H1059 H 0.58433 0.04541 0.44071 0.0
H1060 H 0.60285 0.07871 0.44393 0.0
H1061 H 0.47894 0.96421 0.54888 0.0
H1062 H 0.5253 0.04382 0.60756 0.0
N1063 N 0.51351 0.01354 0.52588 0.0
C1064 C 0.48907 0.97784 0.51794 0.0
C1065 C 0.49481 0.98762 0.50365 0.0
C1066 C 0.49507 0.98651 0.5364 0.0
C1067 C 0.50747 1.00459 0.53996 0.0
C1068 C 0.50684 1.00569 0.50792 0.0
N1069 N 0.5238 0.03205 0.56078 0.0
C1070 C 0.51279 0.01416 0.55801 0.0
C1071 C 0.52174 0.03528 0.59371 0.0
C1072 C 0.51085 0.01663 0.59112 0.0
C1073 C 0.52792 0.04292 0.57829 0.0
C1074 C 0.50599 1.00594 0.57309 0.0
H1075 H 0.50591 0.01082 0.60308 0.0
O1076 O 0.52132 0.06751 0.54565 0.0
O1077 O 0.55856 0.06413 0.52868 0.0
O1078 O 0.57922 0.04854 0.54564 0.0
O1079 O 0.5513 0.03211 0.55265 0.0
O1080 O 0.54866 0.0707 0.55405 0.0
O1081 O 0.50928 0.04833 0.52017 0.0
O1082 O 0.5899 0.02413 0.50377 0.0
O1083 O 0.55293 0.0277 0.5208 0.0
O1084 O 0.53262 0.04382 0.50329 0.0
O1085 O 0.56051 0.06073 0.49696 0.0
O1086 O 0.56219 0.02077 0.49535 0.0
O1087 O 0.60233 0.04423 0.52871 0.0
C1088 C 0.56098 0.07653 0.54364 0.0
C1089 C 0.4941 0.98766 0.56967 0.0
C1090 C 0.48855 0.97803 0.55135 0.0
C1091 C 0.50794 0.06298 0.53272 0.0
C1092 C 0.48989 0.06299 0.53909 0.0
C1093 C 0.48268 0.05014 0.5506 0.0
C1094 C 0.47985 0.07603 0.53391 0.0
C1095 C 0.4626 0.07605 0.54014 0.0
C1096 C 0.4658 0.05027 0.557 0.0
C1097 C 0.45585 0.06309 0.55188 0.0
C1098 C 0.56894 0.03865 0.55634 0.0
C1099 C 0.55021 0.01496 0.50611 0.0
C1100 C 0.60349 0.02922 0.51648 0.0
C1101 C 0.62134 0.02889 0.50989 0.0
C1102 C 0.62859 0.0413 0.49801 0.0
C1103 C 0.63108 0.01573 0.5152 0.0
C1104 C 0.64808 0.01501 0.50869 0.0
C1105 C 0.64529 0.04056 0.49138 0.0
C1106 C 0.65496 0.02752 0.49661 0.0
C1107 C 0.54288 0.05461 0.49326 0.0
H1108 H 0.49014 0.04008 0.55473 0.0
H1109 H 0.48535 0.08588 0.52489 0.0
H1110 H 0.4604 0.0404 0.56601 0.0
H1111 H 0.44286 0.06295 0.55727 0.0
H1112 H 0.62129 0.05147 0.49378 0.0
H1113 H 0.62551 1.00629 0.52454 0.0
H1114 H 0.65076 0.05009 0.48209 0.0
H1115 H 0.66779 0.02713 0.49102 0.0
Gd1116 Gd 0.32383 0.28489 0.77407 0.0
Gd1117 Gd 0.27979 0.29685 0.76997 0.0
C1118 C 0.25017 0.2918 0.71272 0.0
C1119 C 0.24709 0.3248 0.71302 0.0
C1120 C 0.26212 0.31661 0.73973 0.0
C1121 C 0.25938 0.29764 0.73069 0.0
C1122 C 0.2555 0.33029 0.73124 0.0
C1123 C 0.24447 0.30559 0.70376 0.0
C1124 C 0.24643 0.27219 0.70455 0.0
C1125 C 0.25122 0.25887 0.71456 0.0
N1126 N 0.26482 0.28466 0.73989 0.0
C1127 C 0.26018 0.26534 0.7324 0.0
H1128 H 0.26369 0.25473 0.73982 0.0
C1129 C 0.27008 0.33893 0.76805 0.0
N1130 N 0.26992 0.32131 0.75743 0.0
C1131 C 0.26387 0.35306 0.76021 0.0
C1132 C 0.25682 0.34883 0.74162 0.0
H1133 H 0.27538 0.34219 0.78249 0.0
H1134 H 0.23751 0.30141 0.6899 0.0
H1135 H 0.34333 0.32776 0.80176 0.0
H1136 H 0.23943 0.26713 0.69076 0.0
H1137 H 0.248 0.2436 0.70858 0.0
H1138 H 0.24208 0.33515 0.7062 0.0
H1139 H 0.32851 0.23943 0.76345 0.0
H1140 H 0.36453 0.3169 0.85299 0.0
H1141 H 0.35893 0.33984 0.83292 0.0
H1142 H 0.35813 0.24821 0.84138 0.0
H1143 H 0.26446 0.36716 0.76854 0.0
H1144 H 0.25186 0.35974 0.73562 0.0
H1145 H 0.36422 0.28263 0.85597 0.0
H1146 H 0.33774 0.21464 0.77907 0.0
N1147 N 0.33921 0.29793 0.80393 0.0
C1148 C 0.35753 0.31143 0.83924 0.0
C1149 C 0.35448 0.32441 0.82793 0.0
C1150 C 0.35243 0.29156 0.83225 0.0
C1151 C 0.34329 0.2852 0.81427 0.0
C1152 C 0.34551 0.31739 0.81014 0.0
N1153 N 0.33327 0.26099 0.78801 0.0
C1154 C 0.34015 0.266 0.80602 0.0
C1155 C 0.33838 0.22899 0.78687 0.0
C1156 C 0.34441 0.23359 0.80576 0.0
C1157 C 0.3332 0.24307 0.77807 0.0
C1158 C 0.34586 0.25244 0.81545 0.0
H1159 H 0.34863 0.22275 0.8125 0.0
O1160 O 0.33992 0.27379 0.75277 0.0
O1161 O 0.3021 0.28836 0.75368 0.0
O1162 O 0.27588 0.26432 0.77128 0.0
O1163 O 0.30362 0.25801 0.78006 0.0
O1164 O 0.31126 0.26288 0.74954 0.0
O1165 O 0.34952 0.30237 0.76867 0.0
O1166 O 0.26466 0.30581 0.7931 0.0
O1167 O 0.30159 0.29315 0.78969 0.0
O1168 O 0.32731 0.31736 0.77233 0.0
O1169 O 0.29955 0.32401 0.76416 0.0
O1170 O 0.29221 0.31834 0.79555 0.0
O1171 O 0.25275 0.28041 0.77297 0.0
C1172 C 0.30131 0.27262 0.74225 0.0
C1173 C 0.3538 0.25842 0.83383 0.0
C1174 C 0.3572 0.278 0.84216 0.0
C1175 C 0.35304 0.28908 0.75595 0.0
C1176 C 0.37158 0.28572 0.75717 0.0
C1177 C 0.37722 0.27731 0.77171 0.0
C1178 C 0.38374 0.29079 0.74385 0.0
C1179 C 0.40147 0.28752 0.74526 0.0
C1180 C 0.39446 0.27369 0.77295 0.0
C1181 C 0.40643 0.27866 0.75989 0.0
C1182 C 0.28569 0.25241 0.77634 0.0
C1183 C 0.30292 0.30857 0.80153 0.0
C1184 C 0.25042 0.29195 0.7879 0.0
C1185 C 0.23277 0.29759 0.78881 0.0
C1186 C 0.22789 0.3089 0.77644 0.0
C1187 C 0.22093 0.29225 0.80233 0.0
C1188 C 0.2044 0.29842 0.80346 0.0
C1189 C 0.21204 0.31552 0.77782 0.0
C1190 C 0.20053 0.31055 0.79125 0.0
C1191 C 0.31748 0.32947 0.76767 0.0
H1192 H 0.36828 0.27349 0.78212 0.0
H1193 H 0.37952 0.2975 0.73269 0.0
H1194 H 0.39858 0.26698 0.78414 0.0
H1195 H 0.41964 0.27539 0.7612 0.0
H1196 H 0.23639 0.31277 0.76574 0.0
H1197 H 0.22445 0.28315 0.81167 0.0
H1198 H 0.20864 0.3246 0.76841 0.0
H1199 H 0.18851 0.31632 0.79202 0.0
Gd1200 Gd 0.05884 0.02281 0.51233 0.0
Gd1201 Gd 0.04668 0.06532 0.53224 0.0
C1202 C 0.0496 0.08863 0.59466 0.0
C1203 C 0.01829 0.0889 0.59926 0.0
C1204 C 0.02689 0.07791 0.56845 0.0
C1205 C 0.04463 0.0811 0.57559 0.0
C1206 C 0.01352 0.08197 0.58016 0.0
C1207 C 0.03631 0.09224 0.60649 0.0
C1208 C 0.06784 0.09284 0.6012 0.0
C1209 C 0.08067 0.09013 0.58872 0.0
N1210 N 0.05717 0.07777 0.56373 0.0
C1211 C 0.07509 0.08285 0.56991 0.0
H1212 H 0.08527 0.08111 0.56051 0.0
C1213 C 0.00564 0.06955 0.54206 0.0
N1214 N 0.02281 0.07149 0.54991 0.0
C1215 C 0.99189 0.07317 0.55312 0.0
C1216 C 0.99582 0.0793 0.57228 0.0
H1217 H 1.00231 0.06488 0.52729 0.0
H1218 H 0.03987 0.09795 0.62119 0.0
H1219 H 0.01998 0.00655 0.4844 0.0
H1220 H 0.07215 0.09863 0.61574 0.0
H1221 H 0.09488 0.09373 0.59351 0.0
H1222 H 0.00821 0.09205 0.60848 0.0
H1223 H 0.10287 0.02209 0.51676 0.0
H1224 H 0.03269 0.99164 0.42855 0.0
H1225 H 0.01015 0.99506 0.45125 0.0
H1226 H 0.09674 0.99823 0.43511 0.0
H1227 H 0.97829 0.07128 0.54684 0.0
H1228 H 0.98517 0.08222 0.58081 0.0
H1229 H 0.06505 0.99276 0.42268 0.0
H1230 H 0.12675 0.01599 0.49683 0.0
N1231 N 0.04806 0.01071 0.48081 0.0
C1232 C 0.03714 0.99687 0.44316 0.0
C1233 C 0.02439 0.99874 0.45593 0.0
C1234 C 0.05544 1.00108 0.44952 0.0
C1235 C 0.06052 0.00797 0.46868 0.0
C1236 C 0.0301 1.00536 0.47481 0.0
N1237 N 0.08243 0.01665 0.49425 0.0
C1238 C 0.07828 0.01094 0.47564 0.0
C1239 C 0.11318 0.01458 0.49066 0.0
C1240 C 0.10923 0.00933 0.47143 0.0
C1241 C 0.09954 0.01802 0.50194 0.0
C1242 C 0.09156 0.00722 0.46369 0.0
H1243 H 0.11981 0.0066 0.46273 0.0
O1244 O 0.06903 1.00101 0.52412 0.0
O1245 O 0.05741 0.04062 0.5408 0.0
O1246 O 0.07661 0.07051 0.52803 0.0
O1247 O 0.07917 0.0466 0.50374 0.0
O1248 O 0.0809 0.03187 0.5364 0.0
O1249 O 0.0414 0.99468 0.5117 0.0
O1250 O 0.03673 0.08652 0.51924 0.0
O1251 O 0.04826 0.04755 0.50385 0.0
O1252 O 0.02898 0.0177 0.51677 0.0
O1253 O 0.02645 0.04158 0.54111 0.0
O1254 O 0.02463 0.05598 0.50816 0.0
O1255 O 0.06369 0.09388 0.53348 0.0
C1256 C 0.07282 0.04048 0.54905 0.0
C1257 C 0.08672 1.00107 0.44452 0.0
C1258 C 0.06868 0.998 0.43744 0.0
C1259 C 0.0538 0.98834 0.52009 0.0
C1260 C 0.05464 0.96828 0.5138 0.0
C1261 C 0.05794 0.96119 0.49559 0.0
C1262 C 0.05139 0.95585 0.52655 0.0
C1263 C 0.05099 0.93618 0.52122 0.0
C1264 C 0.05769 0.94151 0.49021 0.0
C1265 C 0.05406 0.92895 0.50292 0.0
C1266 C 0.08545 0.06374 0.51431 0.0
C1267 C 0.03285 0.04751 0.49555 0.0
C1268 C 0.05161 0.09963 0.52395 0.0
C1269 C 0.04996 0.11958 0.52936 0.0
C1270 C 0.0457 0.12691 0.54713 0.0
C1271 C 0.05307 0.13157 0.51617 0.0
C1272 C 0.05237 0.15105 0.52069 0.0
C1273 C 0.04486 0.14639 0.55166 0.0
C1274 C 0.04835 0.15851 0.53855 0.0
C1275 C 0.02018 0.02442 0.53057 0.0
H1276 H 0.06051 0.97077 0.48562 0.0
H1277 H 0.04869 0.96142 0.54059 0.0
H1278 H 0.06017 0.93594 0.47614 0.0
H1279 H 0.05375 0.91372 0.49856 0.0
H1280 H 0.04316 0.11768 0.5574 0.0
H1281 H 0.0564 0.12582 0.50244 0.0
H1282 H 0.04161 0.15213 0.56538 0.0
H1283 H 0.04776 0.17358 0.54226 0.0
Gd1284 Gd 0.28188 0.77396 0.77765 0.0
Gd1285 Gd 0.32069 0.80193 0.76567 0.0
C1286 C 0.32638 0.86187 0.75071 0.0
C1287 C 0.33484 0.8565 0.71906 0.0
C1288 C 0.32895 0.82984 0.73604 0.0
C1289 C 0.32516 0.84211 0.75127 0.0
C1290 C 0.3341 0.83698 0.71986 0.0
C1291 C 0.33099 0.86892 0.73445 0.0
C1292 C 0.32326 0.87405 0.76663 0.0
C1293 C 0.31935 0.86655 0.78268 0.0
N1294 N 0.32087 0.8349 0.76684 0.0
C1295 C 0.31832 0.84689 0.78259 0.0
H1296 H 0.31536 0.84146 0.79519 0.0
C1297 C 0.33375 0.79902 0.72331 0.0
N1298 N 0.32838 0.81111 0.73731 0.0
C1299 C 0.33878 0.80539 0.70694 0.0
C1300 C 0.33881 0.82441 0.70513 0.0
H1301 H 0.33387 0.78431 0.72459 0.0
H1302 H 0.33191 0.88402 0.73375 0.0
H1303 H 0.28815 0.73327 0.75126 0.0
H1304 H 0.32406 0.8893 0.76675 0.0
H1305 H 0.31709 0.87588 0.79514 0.0
H1306 H 0.33869 0.86223 0.70672 0.0
H1307 H 0.2658 0.79326 0.81695 0.0
H1308 H 0.28035 0.68849 0.78337 0.0
H1309 H 0.28751 0.6996 0.75399 0.0
H1310 H 0.26473 0.71899 0.84148 0.0
H1311 H 0.34268 0.79564 0.69576 0.0
H1312 H 0.34283 0.82935 0.69248 0.0
H1313 H 0.27285 0.69601 0.81629 0.0
H1314 H 0.25692 0.78402 0.84641 0.0
N1315 N 0.28255 0.74171 0.77928 0.0
C1316 C 0.28125 0.70348 0.78249 0.0
C1317 C 0.28508 0.70966 0.76582 0.0
C1318 C 0.27784 0.71652 0.79758 0.0
C1319 C 0.27842 0.73577 0.79547 0.0
C1320 C 0.28548 0.72886 0.76438 0.0
N1321 N 0.27316 0.76667 0.80654 0.0
C1322 C 0.27362 0.74864 0.80955 0.0
C1323 C 0.26166 0.77395 0.8362 0.0
C1324 C 0.26264 0.75572 0.83973 0.0
C1325 C 0.26679 0.77914 0.81938 0.0
C1326 C 0.26841 0.74269 0.82625 0.0
H1327 H 0.25854 0.75169 0.85274 0.0
O1328 O 0.25462 0.77819 0.77661 0.0
O1329 O 0.29101 0.80275 0.76745 0.0
O1330 O 0.31713 0.80899 0.79624 0.0
O1331 O 0.30062 0.78104 0.80353 0.0
O1332 O 0.27649 0.80334 0.78984 0.0
O1333 O 0.26072 0.75335 0.75902 0.0
O1334 O 0.34744 0.79675 0.76387 0.0
O1335 O 0.31145 0.77343 0.77571 0.0
O1336 O 0.28642 0.76563 0.74755 0.0
O1337 O 0.30166 0.79389 0.73986 0.0
O1338 O 0.32618 0.77248 0.75336 0.0
O1339 O 0.34319 0.82093 0.784 0.0
C1340 C 0.28318 0.81402 0.77834 0.0
C1341 C 0.2686 0.72379 0.82872 0.0
C1342 C 0.27324 0.7107 0.81439 0.0
C1343 C 0.24834 0.76246 0.76444 0.0
C1344 C 0.23092 0.75101 0.76759 0.0
C1345 C 0.22877 0.74018 0.78185 0.0
C1346 C 0.21585 0.75295 0.75712 0.0
C1347 C 0.19839 0.74536 0.76147 0.0
C1348 C 0.21143 0.73171 0.78575 0.0
C1349 C 0.19627 0.73446 0.7758 0.0
C1350 C 0.31231 0.79767 0.80834 0.0
C1351 C 0.31921 0.76204 0.76497 0.0
C1352 C 0.35479 0.81159 0.77672 0.0
C1353 C 0.37234 0.82269 0.77341 0.0
C1354 C 0.37576 0.8282 0.75626 0.0
C1355 C 0.38654 0.82507 0.78702 0.0
C1356 C 0.4045 0.83135 0.78324 0.0
C1357 C 0.39346 0.83547 0.75264 0.0
C1358 C 0.40781 0.83671 0.76586 0.0
C1359 C 0.29101 0.77659 0.73513 0.0
H1360 H 0.24033 0.73857 0.7901 0.0
H1361 H 0.21786 0.76106 0.74589 0.0
H1362 H 0.20973 0.72348 0.79688 0.0
H1363 H 0.183 0.72855 0.77968 0.0
H1364 H 0.36493 0.82631 0.74551 0.0
H1365 H 0.38345 0.82118 0.80034 0.0
H1366 H 0.39614 0.83946 0.73928 0.0
H1367 H 0.42141 0.84129 0.76216 0.0
Gd1368 Gd 0.54961 0.04809 0.00587 0.0
Gd1369 Gd 0.56374 0.03259 0.04943 0.0
C1370 C 0.61753 0.0486 0.08522 0.0
C1371 C 0.62606 0.01761 0.08241 0.0
C1372 C 0.59862 0.02027 0.06551 0.0
C1373 C 0.60212 0.03982 0.07274 0.0
C1374 C 0.61056 0.00891 0.07022 0.0
C1375 C 0.62938 0.03735 0.09011 0.0
C1376 C 0.62024 0.06827 0.09291 0.0
C1377 C 0.60756 0.07858 0.08839 0.0
N1378 N 0.58998 0.05006 0.06833 0.0
C1379 C 0.59228 0.0691 0.07632 0.0
H1380 H 0.5825 0.07721 0.07334 0.0
C1381 C 0.57844 0.99264 0.04807 0.0
N1382 N 0.58312 0.01217 0.05447 0.0
C1383 C 0.59004 0.98085 0.05199 0.0
C1384 C 0.60622 0.98903 0.06306 0.0
H1385 H 0.56589 0.98617 0.03962 0.0
H1386 H 0.64087 0.04365 0.1002 0.0
H1387 H 0.53114 1.0026 0.98437 0.0
H1388 H 0.63181 0.07553 0.10264 0.0
H1389 H 0.6094 0.09375 0.09441 0.0
H1390 H 0.6353 0.0091 0.08639 0.0
H1391 H 0.54685 0.09441 0.01101 0.0
H1392 H 0.476 0.99923 0.96636 0.0
H1393 H 0.50165 0.98345 0.96927 0.0
H1394 H 0.4703 0.06509 0.98158 0.0
H1395 H 0.58643 0.96544 0.04659 0.0
H1396 H 0.61508 0.97982 0.06629 0.0
H1397 H 0.46434 0.02976 0.97122 0.0
H1398 H 0.52376 0.11333 0.0069 0.0
N1399 N 0.5222 0.02888 0.9905 0.0
C1400 C 0.48892 0.00771 0.97305 0.0
C1401 C 0.50337 0.99876 0.97463 0.0
C1402 C 0.49143 0.02759 0.97973 0.0
C1403 C 0.50851 0.03792 0.98837 0.0
C1404 C 0.52009 0.00968 0.98321 0.0
N1405 N 0.52865 0.06717 1.00174 0.0
C1406 C 0.51183 0.05772 0.9942 0.0
C1407 C 0.5202 0.09769 1.00337 0.0
C1408 C 0.50256 0.08809 0.9965 0.0
C1409 C 0.53323 0.08697 1.00564 0.0
C1410 C 0.49824 0.06787 0.99154 0.0
H1411 H 0.4925 0.09643 0.99468 0.0
O1412 O 0.56586 0.06704 0.99027 0.0
O1413 O 0.571 0.05 0.02786 0.0
O1414 O 0.55518 0.06118 0.05467 0.0
O1415 O 0.53606 0.06204 0.02881 0.0
O1416 O 0.57105 0.07517 0.01786 0.0
O1417 O 0.55461 0.03688 0.97772 0.0
O1418 O 0.54667 0.01296 0.06372 0.0
O1419 O 0.5424 0.03091 0.02758 0.0
O1420 O 0.56041 0.02063 1.00101 0.0
O1421 O 0.57984 0.02182 0.02718 0.0
O1422 O 0.54295 1.00547 0.03633 0.0
O1423 O 0.55492 0.04375 0.07587 0.0
C1424 C 0.5792 0.06732 0.02933 0.0
C1425 C 0.48099 0.05759 0.9836 0.0
C1426 C 0.47759 0.03747 0.97769 0.0
C1427 C 0.5636 0.05374 0.97537 0.0
C1428 C 0.55932 0.05973 0.95795 0.0
C1429 C 0.54564 0.06976 0.95578 0.0
C1430 C 0.57012 0.05631 0.94357 0.0
C1431 C 0.56777 0.06334 0.92717 0.0
C1432 C 0.54316 0.0767 0.93933 0.0
C1433 C 0.55433 0.07371 0.92509 0.0
C1434 C 0.54248 0.0678 0.0464 0.0
C1435 C 0.53402 0.01363 0.02586 0.0
C1436 C 0.54624 0.02658 0.07777 0.0
C1437 C 0.54781 0.02167 0.09612 0.0
C1438 C 0.55937 0.01007 0.10083 0.0
C1439 C 0.53612 0.02761 0.10863 0.0
C1440 C 0.53493 0.02121 0.12562 0.0
C1441 C 0.55876 1.00411 0.11803 0.0
C1442 C 0.54646 0.00944 0.13032 0.0
C1443 C 0.57436 0.01594 0.00932 0.0
H1444 H 0.53713 0.07249 0.96682 0.0
H1445 H 0.58081 0.04873 0.94539 0.0
H1446 H 0.53273 0.08461 0.93771 0.0
H1447 H 0.55247 0.07934 0.91248 0.0
H1448 H 0.56853 1.00538 0.09116 0.0
H1449 H 0.52768 0.03703 0.10484 0.0
H1450 H 0.56752 0.995 0.12167 0.0
H1451 H 0.54577 1.00404 0.14325 0.0
Gd1452 Gd 0.2862 0.26674 0.25825 0.0
Gd1453 Gd 0.31254 0.31414 0.28241 0.0
C1454 C 0.36998 0.33438 0.26683 0.0
C1455 C 0.38794 0.3377 0.29596 0.0
C1456 C 0.35545 0.32437 0.29327 0.0
C1457 C 0.35425 0.32683 0.275 0.0
C1458 C 0.37242 0.32963 0.3039 0.0
C1459 C 0.3867 0.34018 0.27748 0.0
C1460 C 0.36859 0.33522 0.24797 0.0
C1461 C 0.35232 0.32675 0.23733 0.0
N1462 N 0.33797 0.32053 0.26485 0.0
C1463 C 0.33728 0.3191 0.24594 0.0
H1464 H 0.3256 0.3114 0.23701 0.0
C1465 C 0.34111 0.31483 0.31896 0.0
N1466 N 0.34017 0.31644 0.30053 0.0
C1467 C 0.35759 0.31944 0.32985 0.0
C1468 C 0.37335 0.32681 0.32227 0.0
H1469 H 0.3292 0.31107 0.32598 0.0
H1470 H 0.39884 0.34608 0.27139 0.0
H1471 H 0.27243 0.24506 0.29615 0.0
H1472 H 0.3802 0.34159 0.24144 0.0
H1473 H 0.35127 0.32582 0.22242 0.0
H1474 H 0.401 0.34194 0.30397 0.0
H1475 H 0.27078 0.27095 0.21508 0.0
H1476 H 0.2159 0.23142 0.29234 0.0
H1477 H 0.24509 0.23273 0.30883 0.0
H1478 H 0.19762 0.2498 0.23644 0.0
H1479 H 0.35802 0.31793 0.34431 0.0
H1480 H 0.38609 0.33067 0.33084 0.0
H1481 H 0.19843 0.23757 0.26541 0.0
H1482 H 0.24276 0.27074 0.19763 0.0
N1483 N 0.26011 0.25512 0.27353 0.0
C1484 C 0.22806 0.23861 0.28732 0.0
C1485 C 0.24455 0.2391 0.29649 0.0
C1486 C 0.22746 0.24635 0.27118 0.0
C1487 C 0.24385 0.25483 0.26457 0.0
C1488 C 0.26039 0.24684 0.28916 0.0
N1489 N 0.25921 0.26763 0.24071 0.0
C1490 C 0.2434 0.26142 0.24786 0.0
C1491 C 0.24269 0.26867 0.21193 0.0
C1492 C 0.22649 0.26404 0.2197 0.0
C1493 C 0.25879 0.26951 0.22232 0.0
C1494 C 0.22663 0.25953 0.23749 0.0
H1495 H 0.21393 0.26266 0.21136 0.0
O1496 O 0.29126 0.25414 0.23067 0.0
O1497 O 0.3128 0.28762 0.26237 0.0
O1498 O 0.30217 0.32171 0.25599 0.0
O1499 O 0.28954 0.2903 0.24011 0.0
O1500 O 0.31283 0.25918 0.26394 0.0
O1501 O 0.27886 0.23559 0.24917 0.0
O1502 O 0.30948 0.32931 0.30976 0.0
O1503 O 0.28651 0.29246 0.27906 0.0
O1504 O 0.29672 0.26126 0.28595 0.0
O1505 O 0.3085 0.29272 0.30215 0.0
O1506 O 0.28476 0.32064 0.27905 0.0
O1507 O 0.32081 0.34537 0.28885 0.0
C1508 C 0.32287 0.27625 0.26482 0.0
C1509 C 0.2105 0.25165 0.24438 0.0
C1510 C 0.21095 0.24482 0.26102 0.0
C1511 C 0.28525 0.23647 0.23305 0.0
C1512 C 0.29631 0.22286 0.22639 0.0
C1513 C 0.29772 0.21815 0.20723 0.0
C1514 C 0.30578 0.21491 0.23882 0.0
C1515 C 0.31667 0.20232 0.23215 0.0
C1516 C 0.30862 0.20565 0.20056 0.0
C1517 C 0.31813 0.19777 0.21296 0.0
C1518 C 0.294 0.30938 0.24095 0.0
C1519 C 0.27564 0.30313 0.27805 0.0
C1520 C 0.31546 0.34629 0.30559 0.0
C1521 C 0.30513 0.3608 0.31168 0.0
C1522 C 0.30422 0.36692 0.33076 0.0
C1523 C 0.29633 0.36875 0.29872 0.0
C1524 C 0.28698 0.38307 0.30473 0.0
C1525 C 0.29469 0.38103 0.33681 0.0
C1526 C 0.28616 0.38919 0.32387 0.0
C1527 C 0.30359 0.27379 0.3014 0.0
H1528 H 0.29045 0.22422 0.19746 0.0
H1529 H 0.30484 0.21861 0.25366 0.0
H1530 H 0.30966 0.20203 0.18577 0.0
H1531 H 0.32635 0.18789 0.20756 0.0
H1532 H 0.31094 0.36083 0.34095 0.0
H1533 H 0.2971 0.36416 0.28395 0.0
H1534 H 0.29401 0.38574 0.35154 0.0
H1535 H 0.27889 0.40021 0.32877 0.0
Gd1536 Gd 0.5588 0.52092 0.01149 0.0
Gd1537 Gd 0.54884 0.56468 0.03148 0.0
C1538 C 0.55589 0.58542 0.09453 0.0
C1539 C 0.52545 0.58774 0.10132 0.0
C1540 C 0.53202 0.57782 0.06948 0.0
C1541 C 0.54979 0.57917 0.07551 0.0
C1542 C 0.51972 0.58256 0.08225 0.0
C1543 C 0.54352 0.58916 0.10746 0.0
C1544 C 0.57433 0.58852 0.09989 0.0
C1545 C 0.58627 0.58628 0.08632 0.0
N1546 N 0.56141 0.5758 0.0626 0.0
C1547 C 0.57958 0.58025 0.06763 0.0
H1548 H 0.58907 0.57871 0.05738 0.0
C1549 C 0.51032 0.57427 0.04411 0.0
N1550 N 0.52703 0.57309 0.05095 0.0
C1551 C 0.4976 0.57874 0.05622 0.0
C1552 C 0.50223 0.58262 0.0754 0.0
H1553 H 0.5066 0.5713 0.02931 0.0
H1554 H 0.54791 0.59378 0.12215 0.0
H1555 H 0.51662 0.50648 0.98956 0.0
H1556 H 0.57955 0.5933 0.11436 0.0
H1557 H 0.60063 0.58918 0.09023 0.0
H1558 H 0.51617 0.59124 0.11137 0.0
H1559 H 0.60161 0.5171 0.00949 0.0
H1560 H 0.52041 0.48568 0.93236 0.0
H1561 H 0.50204 0.49274 0.95823 0.0
H1562 H 0.5837 0.48999 0.92863 0.0
H1563 H 0.48424 0.5792 0.05075 0.0
H1564 H 0.49238 0.58618 0.08475 0.0
H1565 H 0.55099 0.48524 0.92124 0.0
H1566 H 0.62202 0.5088 0.98583 0.0
N1567 N 0.54346 0.50846 0.98165 0.0
C1568 C 0.52705 0.49223 0.94602 0.0
C1569 C 0.51661 0.49602 0.96065 0.0
C1570 C 0.54583 0.49613 0.94939 0.0
C1571 C 0.55374 0.5042 0.96764 0.0
C1572 C 0.52504 0.50386 0.97849 0.0
N1573 N 0.57893 0.51289 0.9898 0.0
C1574 C 0.57207 0.50659 0.97184 0.0
C1575 C 0.60803 0.50823 0.98168 0.0
C1576 C 0.60137 0.50254 0.96299 0.0
C1577 C 0.59647 0.51298 0.99502 0.0
C1578 C 0.5831 0.50125 0.9579 0.0
H1579 H 0.61029 0.49862 0.95269 0.0
O1580 O 0.57067 0.50002 0.0228 0.0
O1581 O 0.55888 0.5394 0.03989 0.0
O1582 O 0.57812 0.56938 0.0251 0.0
O1583 O 0.58031 0.54341 1.00263 0.0
O1584 O 0.58196 0.5299 0.03421 0.0
O1585 O 0.5425 0.49234 0.01174 0.0
O1586 O 0.54021 0.58549 0.01687 0.0
O1587 O 0.54886 0.54606 1.00304 0.0
O1588 O 0.53035 0.51566 0.02028 0.0
O1589 O 0.52649 0.54286 0.04022 0.0
O1590 O 0.52579 0.55545 0.00854 0.0
O1591 O 0.56534 0.59384 0.0345 0.0
C1592 C 0.57444 0.53861 0.04739 0.0
C1593 C 0.57544 0.49411 0.93954 0.0
C1594 C 0.55682 0.49146 0.93531 0.0
C1595 C 0.55576 0.48679 0.01958 0.0
C1596 C 0.55732 0.46696 0.01354 0.0
C1597 C 0.5649 0.46097 0.99718 0.0
C1598 C 0.55184 0.45402 0.0254 0.0
C1599 C 0.55438 0.4351 0.0215 0.0
C1600 C 0.56711 0.44195 0.99291 0.0
C1601 C 0.56198 0.42907 1.00504 0.0
C1602 C 0.58665 0.56112 0.01196 0.0
C1603 C 0.53327 0.54658 0.99542 0.0
C1604 C 0.55425 0.59917 0.02341 0.0
C1605 C 0.55111 0.61862 0.02835 0.0
C1606 C 0.5434 0.62464 0.04461 0.0
C1607 C 0.5554 0.63112 0.01577 0.0
C1608 C 0.55183 0.64967 0.01906 0.0
C1609 C 0.53999 0.64321 0.04816 0.0
C1610 C 0.54414 0.65569 0.03546 0.0
C1611 C 0.5211 0.52445 0.03235 0.0
H1612 H 0.56923 0.47095 0.98792 0.0
H1613 H 0.5457 0.45887 0.03783 0.0
H1614 H 0.57304 0.43727 0.98033 0.0
H1615 H 0.56426 0.41456 1.0017 0.0
H1616 H 0.53996 0.61503 0.05442 0.0
H1617 H 0.56161 0.62631 1.00337 0.0
H1618 H 0.53398 0.6479 0.06069 0.0
H1619 H 0.54109 0.66988 0.03834 0.0
Gd1620 Gd 0.78244 0.27579 0.27689 0.0
Gd1621 Gd 0.82225 0.30319 0.26639 0.0
C1622 C 0.8338 0.3672 0.26247 0.0
C1623 C 0.84227 0.36646 0.2309 0.0
C1624 C 0.83292 0.33641 0.2425 0.0
C1625 C 0.8303 0.34676 0.2595 0.0
C1626 C 0.83906 0.34618 0.22807 0.0
C1627 C 0.83969 0.37694 0.24807 0.0
C1628 C 0.83132 0.37729 0.27985 0.0
C1629 C 0.82533 0.36705 0.29373 0.0
N1630 N 0.82447 0.33695 0.27316 0.0
C1631 C 0.82193 0.34684 0.29016 0.0
H1632 H 0.81699 0.33946 0.3011 0.0
C1633 C 0.83406 0.30628 0.22429 0.0
N1634 N 0.83006 0.31686 0.24023 0.0
C1635 C 0.8397 0.31529 0.20946 0.0
C1636 C 0.84216 0.33532 0.21133 0.0
H1637 H 0.83261 0.29082 0.22299 0.0
H1638 H 0.84239 0.39259 0.25011 0.0
H1639 H 0.78854 0.23496 0.25038 0.0
H1640 H 0.83388 0.39295 0.28266 0.0
H1641 H 0.82322 0.37471 0.30718 0.0
H1642 H 0.84698 0.37419 0.21997 0.0
H1643 H 0.76442 0.29419 0.31496 0.0
H1644 H 0.78153 0.19021 0.28275 0.0
H1645 H 0.7884 0.2014 0.25325 0.0
H1646 H 0.763 0.22001 0.33978 0.0
H1647 H 0.84228 0.30685 0.19665 0.0
H1648 H 0.84678 0.34229 0.19989 0.0
H1649 H 0.77224 0.19735 0.31508 0.0
H1650 H 0.75466 0.28486 0.34418 0.0
N1651 N 0.78246 0.24325 0.27824 0.0
C1652 C 0.78168 0.20508 0.28162 0.0
C1653 C 0.78551 0.21132 0.26494 0.0
C1654 C 0.77753 0.21793 0.29645 0.0
C1655 C 0.77792 0.23714 0.29427 0.0
C1656 C 0.78565 0.23047 0.26342 0.0
N1657 N 0.77232 0.26788 0.30511 0.0
C1658 C 0.77264 0.24983 0.30812 0.0
C1659 C 0.75978 0.27489 0.33422 0.0
C1660 C 0.7607 0.25666 0.33784 0.0
C1661 C 0.76544 0.28019 0.31761 0.0
C1662 C 0.76694 0.24376 0.32461 0.0
H1663 H 0.75622 0.25255 0.35068 0.0
O1664 O 0.75529 0.28053 0.27559 0.0
O1665 O 0.79271 0.3047 0.26736 0.0
O1666 O 0.82044 0.30795 0.29742 0.0
O1667 O 0.79971 0.28191 0.3036 0.0
O1668 O 0.77782 0.30554 0.2893 0.0
O1669 O 0.76145 0.25635 0.25716 0.0
O1670 O 0.84767 0.29629 0.26003 0.0
O1671 O 0.81211 0.2744 0.27561 0.0
O1672 O 0.78759 0.26772 0.24706 0.0
O1673 O 0.80311 0.29635 0.24052 0.0
O1674 O 0.82634 0.2737 0.25275 0.0
O1675 O 0.84672 0.31826 0.28419 0.0
C1676 C 0.78507 0.31628 0.27808 0.0
C1677 C 0.76722 0.2249 0.32716 0.0
C1678 C 0.77249 0.212 0.3131 0.0
C1679 C 0.74904 0.26537 0.26275 0.0
C1680 C 0.73149 0.2536 0.26522 0.0
C1681 C 0.7295 0.2404 0.27745 0.0
C1682 C 0.71627 0.25646 0.25557 0.0
C1683 C 0.69897 0.24636 0.25809 0.0
C1684 C 0.71228 0.23034 0.28012 0.0
C1685 C 0.69703 0.23336 0.27057 0.0
C1686 C 0.81288 0.29722 0.30904 0.0
C1687 C 0.81973 0.26316 0.26447 0.0
C1688 C 0.85676 0.30897 0.27392 0.0
C1689 C 0.8746 0.31947 0.27056 0.0
C1690 C 0.87855 0.32375 0.25304 0.0
C1691 C 0.88854 0.32242 0.2846 0.0
C1692 C 0.90665 0.32815 0.28104 0.0
C1693 C 0.89642 0.33028 0.24952 0.0
C1694 C 0.91043 0.33213 0.26327 0.0
C1695 C 0.79247 0.27909 0.23509 0.0
H1696 H 0.74113 0.23797 0.28496 0.0
H1697 H 0.71789 0.2669 0.24632 0.0
H1698 H 0.71075 0.22022 0.28963 0.0
H1699 H 0.68378 0.2254 0.27274 0.0
H1700 H 0.868 0.32145 0.24193 0.0
H1701 H 0.88511 0.3195 0.29816 0.0
H1702 H 0.89945 0.33325 0.23588 0.0
H1703 H 0.92416 0.33617 0.25973 0.0
Gd1704 Gd 0.04824 0.54542 0.5133 0.0
Gd1705 Gd 0.06597 0.53631 0.55881 0.0
C1706 C 0.11851 0.57199 0.59212 0.0
C1707 C 0.13749 0.54867 0.58948 0.0
C1708 C 0.10682 0.53965 0.57439 0.0
C1709 C 0.10419 0.55805 0.58125 0.0
C1710 C 0.12344 0.53479 0.57865 0.0
C1711 C 0.13505 0.56721 0.59615 0.0
C1712 C 0.11597 0.59051 0.59855 0.0
C1713 C 0.09969 0.59507 0.59384 0.0
N1714 N 0.08805 0.56253 0.57694 0.0
C1715 C 0.08589 0.58099 0.58303 0.0
H1716 H 0.07385 0.58569 0.57973 0.0
C1717 C 0.09499 0.5078 0.55789 0.0
N1718 N 0.09329 0.52651 0.56347 0.0
C1719 C 0.11113 0.50243 0.56177 0.0
C1720 C 0.1255 0.51603 0.57205 0.0
H1721 H 0.08394 0.49692 0.55007 0.0
H1722 H 0.14609 0.5778 0.60443 0.0
H1723 H 0.03299 0.49944 0.48873 0.0
H1724 H 0.12653 0.60143 0.60711 0.0
H1725 H 0.09774 0.60952 0.59856 0.0
H1726 H 0.15032 0.54518 0.59279 0.0
H1727 H 0.04311 0.58971 0.51171 0.0
H1728 H 0.97768 0.49137 0.4699 0.0
H1729 H 0.00514 0.47857 0.47289 0.0
H1730 H 0.967 0.55514 0.48385 0.0
H1731 H 0.11242 0.48775 0.55691 0.0
H1732 H 0.13804 0.51182 0.57508 0.0
H1733 H 0.96349 0.52 0.47426 0.0
H1734 H 0.01896 0.6066 0.50516 0.0
N1735 N 0.02167 0.52413 0.49683 0.0
C1736 C 0.9899 0.50065 0.47743 0.0
C1737 C 0.00534 0.49338 0.4791 0.0
C1738 C 0.99072 0.5201 0.48462 0.0
C1739 C 0.007 0.5316 0.49432 0.0
C1740 C 0.0212 0.50541 0.48856 0.0
N1741 N 0.02554 0.56183 0.50669 0.0
C1742 C 0.00899 0.55121 0.49956 0.0
C1743 C 0.01588 0.59099 0.50373 0.0
C1744 C 0.99831 0.58032 0.49816 0.0
C1745 C 0.02951 0.5814 0.50746 0.0
C1746 C 0.99482 0.56011 0.49529 0.0
H1747 H 0.98782 0.58773 0.49509 0.0
O1748 O 0.06533 0.56282 0.4968 0.0
O1749 O 0.07161 0.54972 0.53437 0.0
O1750 O 0.05217 0.56127 0.56479 0.0
O1751 O 0.03715 0.56367 0.53626 0.0
O1752 O 0.0687 0.57376 0.52374 0.0
O1753 O 0.05539 0.5325 0.48636 0.0
O1754 O 0.05677 0.50632 0.56166 0.0
O1755 O 0.0443 0.52794 0.53554 0.0
O1756 O 0.05381 0.51577 0.51297 0.0
O1757 O 0.07852 0.52354 0.53395 0.0
O1758 O 0.03621 0.53095 0.5625 0.0
O1759 O 0.06525 0.52917 0.58628 0.0
C1760 C 0.07855 0.56729 0.53494 0.0
C1761 C 0.97813 0.54862 0.48699 0.0
C1762 C 0.97614 0.52863 0.48149 0.0
C1763 C 0.06403 0.54884 0.48282 0.0
C1764 C 0.0595 0.55335 0.46464 0.0
C1765 C 0.04444 0.56114 0.46137 0.0
C1766 C 0.07115 0.55107 0.45075 0.0
C1767 C 0.06812 0.55705 0.43387 0.0
C1768 C 0.04139 0.56707 0.4445 0.0
C1769 C 0.0533 0.56521 0.4308 0.0
C1770 C 0.04149 0.56891 0.55459 0.0
C1771 C 0.03092 0.52604 0.54499 0.0
C1772 C 0.05889 0.51068 0.57982 0.0
C1773 C 0.04544 0.49988 0.59005 0.0
C1774 C 0.04422 0.47994 0.58855 0.0
C1775 C 0.03519 0.50916 0.60251 0.0
C1776 C 0.0243 0.49856 0.61383 0.0
C1777 C 0.03316 0.46936 0.59953 0.0
C1778 C 0.02335 0.47861 0.61222 0.0
C1779 C 0.06945 0.51292 0.51872 0.0
H1780 H 0.03523 0.5629 0.4719 0.0
H1781 H 0.08284 0.54513 0.45324 0.0
H1782 H 0.02988 0.57326 0.4421 0.0
H1783 H 0.05091 0.56999 0.41781 0.0
H1784 H 0.05219 0.47262 0.57917 0.0
H1785 H 0.03624 0.52463 0.60397 0.0
H1786 H 0.03244 0.45401 0.59845 0.0
H1787 H 0.01505 0.47021 0.62086 0.0
Gd1788 Gd 0.82358 0.78562 0.27441 0.0
Gd1789 Gd 0.77944 0.79729 0.2702 0.0
C1790 C 0.74878 0.79093 0.21323 0.0
C1791 C 0.74563 0.82381 0.21294 0.0
C1792 C 0.76113 0.81625 0.23972 0.0
C1793 C 0.75826 0.79715 0.23106 0.0
C1794 C 0.75436 0.8297 0.23102 0.0
C1795 C 0.74288 0.80445 0.20405 0.0
C1796 C 0.74508 0.77123 0.20539 0.0
C1797 C 0.75026 0.75822 0.21554 0.0
N1798 N 0.76402 0.78446 0.24041 0.0
C1799 C 0.75951 0.76506 0.23321 0.0
H1800 H 0.76335 0.75469 0.24074 0.0
C1801 C 0.76971 0.83921 0.26755 0.0
N1802 N 0.7693 0.82136 0.25727 0.0
C1803 C 0.76336 0.85311 0.2595 0.0
C1804 C 0.75591 0.84844 0.24103 0.0
H1805 H 0.77533 0.84283 0.2819 0.0
H1806 H 0.73572 0.79998 0.19029 0.0
H1807 H 0.84211 0.82788 0.30313 0.0
H1808 H 0.73787 0.76589 0.19172 0.0
H1809 H 0.74716 0.74289 0.20978 0.0
H1810 H 0.7405 0.83397 0.20595 0.0
H1811 H 0.8286 0.74031 0.26254 0.0
H1812 H 0.86312 0.81546 0.35378 0.0
H1813 H 0.85714 0.83922 0.33477 0.0
H1814 H 0.85716 0.747 0.34054 0.0
H1815 H 0.76414 0.86738 0.26756 0.0
H1816 H 0.75085 0.85918 0.23486 0.0
H1817 H 0.86243 0.78105 0.3562 0.0
H1818 H 0.83795 0.71511 0.27745 0.0
N1819 N 0.83858 0.79791 0.30443 0.0
C1820 C 0.85623 0.81047 0.34001 0.0
C1821 C 0.85302 0.82386 0.32924 0.0
C1822 C 0.85143 0.79072 0.33248 0.0
C1823 C 0.8427 0.78485 0.31433 0.0
C1824 C 0.84447 0.81731 0.31123 0.0
N1825 N 0.833 0.76123 0.28755 0.0
C1826 C 0.83975 0.76581 0.3056 0.0
C1827 C 0.83838 0.72926 0.28559 0.0
C1828 C 0.84423 0.73337 0.30452 0.0
C1829 C 0.83312 0.74356 0.27719 0.0
C1830 C 0.84542 0.75198 0.31467 0.0
H1831 H 0.84847 0.72234 0.31097 0.0
O1832 O 0.83948 0.77582 0.25228 0.0
O1833 O 0.80171 0.78873 0.25398 0.0
O1834 O 0.77583 0.76494 0.27202 0.0
O1835 O 0.80367 0.75872 0.28062 0.0
O1836 O 0.81111 0.76342 0.24991 0.0
O1837 O 0.84997 0.8029 0.27061 0.0
O1838 O 0.7644 0.80672 0.29322 0.0
O1839 O 0.80149 0.79433 0.29018 0.0
O1840 O 0.82697 0.81797 0.27251 0.0
O1841 O 0.79916 0.82398 0.26339 0.0
O1842 O 0.79175 0.81942 0.29525 0.0
O1843 O 0.75265 0.78069 0.27383 0.0
C1844 C 0.80094 0.77295 0.24263 0.0
C1845 C 0.85293 0.75745 0.33323 0.0
C1846 C 0.85594 0.77683 0.34214 0.0
C1847 C 0.85311 0.79052 0.25677 0.0
C1848 C 0.87128 0.78611 0.25732 0.0
C1849 C 0.87626 0.77597 0.27073 0.0
C1850 C 0.88366 0.79172 0.24435 0.0
C1851 C 0.90089 0.78706 0.24487 0.0
C1852 C 0.89293 0.77093 0.27106 0.0
C1853 C 0.90504 0.77625 0.25824 0.0
C1854 C 0.78574 0.75311 0.27707 0.0
C1855 C 0.80258 0.81002 0.30166 0.0
C1856 C 0.7503 0.7926 0.28849 0.0
C1857 C 0.73252 0.79795 0.28928 0.0
C1858 C 0.72745 0.809 0.27676 0.0
C1859 C 0.72078 0.79267 0.30291 0.0
C1860 C 0.70416 0.79865 0.304 0.0
C1861 C 0.71148 0.8154 0.27806 0.0
C1862 C 0.70007 0.81051 0.2916 0.0
C1863 C 0.81708 0.82966 0.26709 0.0
H1864 H 0.86724 0.77182 0.28095 0.0
H1865 H 0.87998 0.79986 0.23415 0.0
H1866 H 0.89648 0.7628 0.28131 0.0
H1867 H 0.9177 0.7717 0.25878 0.0
H1868 H 0.73589 0.81287 0.26603 0.0
H1869 H 0.72448 0.78379 0.31239 0.0
H1870 H 0.70793 0.82429 0.26853 0.0
H1871 H 0.68799 0.81617 0.29233 0.0
Gd1872 Gd 0.79968 0.30688 0.78876 0.0
Gd1873 Gd 0.81515 0.28 0.74763 0.0
C1874 C 0.78668 0.21725 0.72264 0.0
C1875 C 0.81076 0.20033 0.72553 0.0
C1876 C 0.81585 0.23488 0.73803 0.0
C1877 C 0.79834 0.23478 0.73178 0.0
C1878 C 0.82219 0.21757 0.735 0.0
C1879 C 0.79306 0.20017 0.71933 0.0
C1880 C 0.76872 0.21717 0.71769 0.0
C1881 C 0.76238 0.23383 0.72309 0.0
N1882 N 0.79234 0.25142 0.73572 0.0
C1883 C 0.77426 0.25069 0.73246 0.0
H1884 H 0.7684 0.26264 0.7375 0.0
C1885 C 0.8442 0.25224 0.753 0.0
N1886 N 0.8265 0.25167 0.74757 0.0
C1887 C 0.85093 0.23548 0.7505 0.0
C1888 C 0.83986 0.21802 0.74158 0.0
H1889 H 0.85356 0.26571 0.75887 0.0
H1890 H 0.78427 0.18666 0.71237 0.0
H1891 H 0.84629 0.32288 0.79014 0.0
H1892 H 0.75944 0.20407 0.71052 0.0
H1893 H 0.74822 0.23362 0.72033 0.0
H1894 H 0.81543 0.18697 0.72309 0.0
H1895 H 0.76398 0.32638 0.78071 0.0
H1896 H 0.86079 0.37714 0.82757 0.0
H1897 H 0.86957 0.3495 0.80821 0.0
H1898 H 0.80438 0.39626 0.83182 0.0
H1899 H 0.86483 0.23615 0.75509 0.0
H1900 H 0.84517 0.20506 0.73954 0.0
H1901 H 0.83605 0.39404 0.83725 0.0
H1902 H 0.75377 0.3559 0.79202 0.0
N1903 N 0.82417 0.33398 0.80041 0.0
C1904 C 0.85046 0.36524 0.81987 0.0
C1905 C 0.85545 0.34964 0.80905 0.0
C1906 C 0.83226 0.36589 0.8195 0.0
C1907 C 0.81943 0.35016 0.80894 0.0
C1908 C 0.84209 0.33425 0.79914 0.0
N1909 N 0.79073 0.33687 0.7937 0.0
C1910 C 0.802 0.35166 0.80542 0.0
C1911 C 0.76747 0.35501 0.7958 0.0
C1912 C 0.77892 0.37015 0.8081 0.0
C1913 C 0.77352 0.33835 0.78898 0.0
C1914 C 0.79644 0.3686 0.81308 0.0
H1915 H 0.77413 0.38294 0.81362 0.0
O1916 O 0.77158 0.29902 0.79354 0.0
O1917 O 0.79606 0.2791 0.769 0.0
O1918 O 0.79078 0.28927 0.73569 0.0
O1919 O 0.78161 0.30689 0.76227 0.0
O1920 O 0.79742 0.27789 0.7973 0.0
O1921 O 0.79209 0.30885 0.81707 0.0
O1922 O 0.84258 0.28836 0.74056 0.0
O1923 O 0.81796 0.30779 0.76673 0.0
O1924 O 0.82379 0.29807 0.80149 0.0
O1925 O 0.83262 0.28027 0.77492 0.0
O1926 O 0.81839 0.30892 0.73857 0.0
O1927 O 0.82081 0.27417 0.71876 0.0
C1928 C 0.79538 0.26805 0.78067 0.0
C1929 C 0.80858 0.38342 0.82535 0.0
C1930 C 0.82654 0.38209 0.82855 0.0
C1931 C 0.77508 0.30105 0.8115 0.0
C1932 C 0.76603 0.28458 0.8197 0.0
C1933 C 0.74792 0.2756 0.81365 0.0
C1934 C 0.7754 0.27702 0.83268 0.0
C1935 C 0.76691 0.2604 0.83915 0.0
C1936 C 0.73946 0.25909 0.82009 0.0
C1937 C 0.74891 0.25142 0.8327 0.0
C1938 C 0.7797 0.29945 0.74404 0.0
C1939 C 0.8191 0.31881 0.75502 0.0
C1940 C 0.83812 0.2815 0.72287 0.0
C1941 C 0.84818 0.29187 0.70974 0.0
C1942 C 0.86466 0.28735 0.70538 0.0
C1943 C 0.84188 0.3058 0.70147 0.0
C1944 C 0.8521 0.31512 0.68876 0.0
C1945 C 0.87475 0.29642 0.69277 0.0
C1946 C 0.86852 0.31012 0.68442 0.0
C1947 C 0.83444 0.2874 0.79319 0.0
H1948 H 0.7404 0.2812 0.8037 0.0
H1949 H 0.78937 0.28375 0.83748 0.0
H1950 H 0.72555 0.2522 0.81528 0.0
H1951 H 0.74205 0.2387 0.8377 0.0
H1952 H 0.86967 0.27665 0.71168 0.0
H1953 H 0.8292 0.30937 0.70496 0.0
H1954 H 0.88737 0.29269 0.68931 0.0
H1955 H 0.87645 0.31652 0.67429 0.0
Gd1956 Gd 0.78898 0.77489 0.76124 0.0
Gd1957 Gd 0.82305 0.81868 0.78311 0.0
C1958 C 0.87912 0.83954 0.76373 0.0
C1959 C 0.89774 0.84987 0.79312 0.0
C1960 C 0.86602 0.83404 0.7922 0.0
C1961 C 0.864 0.83313 0.77328 0.0
C1962 C 0.88298 0.84218 0.80235 0.0
C1963 C 0.89582 0.84851 0.7738 0.0
C1964 C 0.87725 0.83579 0.74432 0.0
C1965 C 0.86113 0.82443 0.73504 0.0
N1966 N 0.84774 0.82384 0.76406 0.0
C1967 C 0.84685 0.81779 0.74524 0.0
H1968 H 0.83524 0.80758 0.73802 0.0
C1969 C 0.85315 0.8262 0.81922 0.0
N1970 N 0.85157 0.82596 0.80049 0.0
C1971 C 0.86964 0.83405 0.82989 0.0
C1972 C 0.88464 0.84215 0.82144 0.0
H1973 H 0.84148 0.82137 0.82629 0.0
H1974 H 0.90749 0.85379 0.76672 0.0
H1975 H 0.76469 0.76055 0.79579 0.0
H1976 H 0.88846 0.84053 0.73644 0.0
H1977 H 0.85983 0.82037 0.72004 0.0
H1978 H 0.9108 0.85638 0.80071 0.0
H1979 H 0.78236 0.76859 0.71456 0.0
H1980 H 0.71137 0.7689 0.78687 0.0
H1981 H 0.73447 0.75928 0.806 0.0
H1982 H 0.709 0.78099 0.72472 0.0
H1983 H 0.87065 0.83427 0.84473 0.0
H1984 H 0.89739 0.84833 0.82974 0.0
H1985 H 0.7022 0.77787 0.75668 0.0
H1986 H 0.75924 0.7709 0.69055 0.0
N1987 N 0.7596 0.77182 0.77142 0.0
C1988 C 0.72479 0.76965 0.78235 0.0
C1989 C 0.73775 0.76414 0.79313 0.0
C1990 C 0.72897 0.77482 0.76527 0.0
C1991 C 0.74664 0.77548 0.76002 0.0
C1992 C 0.75507 0.7651 0.78732 0.0
N1993 N 0.76691 0.77532 0.73719 0.0
C1994 C 0.75045 0.77731 0.7422 0.0
C1995 C 0.75664 0.77296 0.70506 0.0
C1996 C 0.74027 0.77694 0.71029 0.0
C1997 C 0.76964 0.77156 0.71867 0.0
C1998 C 0.73674 0.77847 0.72897 0.0
H1999 H 0.7301 0.77773 0.6997 0.0
O2000 O 0.7887 0.74885 0.74108 0.0
O2001 O 0.81813 0.78743 0.77078 0.0
O2002 O 0.8152 0.82436 0.75447 0.0
O2003 O 0.79102 0.79794 0.74278 0.0
O2004 O 0.81179 0.77201 0.74391 0.0
O2005 O 0.78492 0.74704 0.77024 0.0
O2006 O 0.81626 0.83039 0.81052 0.0
O2007 O 0.79489 0.80209 0.78104 0.0
O2008 O 0.7948 0.77494 0.79223 0.0
O2009 O 0.82331 0.79523 0.80073 0.0
O2010 O 0.79822 0.83055 0.77808 0.0
O2011 O 0.83149 0.84941 0.79394 0.0
C2012 C 0.82468 0.78024 0.75663 0.0
C2013 C 0.71962 0.77974 0.73459 0.0
C2014 C 0.71574 0.77795 0.75278 0.0
C2015 C 0.78606 0.73802 0.75356 0.0
C2016 C 0.78437 0.71717 0.74918 0.0
C2017 C 0.77458 0.70624 0.73274 0.0
C2018 C 0.79495 0.70876 0.76005 0.0
C2019 C 0.79672 0.68975 0.75404 0.0
C2020 C 0.77546 0.68694 0.72719 0.0
C2021 C 0.78664 0.67875 0.73764 0.0
C2022 C 0.80222 0.81442 0.74141 0.0
C2023 C 0.78659 0.81512 0.77953 0.0
C2024 C 0.82355 0.84818 0.80921 0.0
C2025 C 0.81313 0.86272 0.81519 0.0
C2026 C 0.81204 0.86873 0.83424 0.0
C2027 C 0.8047 0.87106 0.80222 0.0
C2028 C 0.79506 0.88515 0.80819 0.0
C2029 C 0.80267 0.88302 0.84026 0.0
C2030 C 0.79408 0.89111 0.82732 0.0
C2031 C 0.80956 0.78172 0.80405 0.0
H2032 H 0.7666 0.71274 0.72402 0.0
H2033 H 0.80267 0.71747 0.77261 0.0
H2034 H 0.76802 0.67855 0.7144 0.0
H2035 H 0.78793 0.66413 0.73245 0.0
H2036 H 0.81858 0.86252 0.84445 0.0
H2037 H 0.80596 0.86698 0.78751 0.0
H2038 H 0.80203 0.8878 0.85497 0.0
H2039 H 0.78666 0.90198 0.83223 0.0
Gd2040 Gd 0.57225 0.55466 0.52948 0.0
Gd2041 Gd 0.52953 0.52844 0.50879 0.0
C2042 C 0.51124 0.46627 0.51957 0.0
C2043 C 0.51089 0.44709 0.48899 0.0
C2044 C 0.52062 0.48234 0.49393 0.0
C2045 C 0.51749 0.48351 0.51258 0.0
C2046 C 0.51696 0.46403 0.48194 0.0
C2047 C 0.50807 0.44821 0.50773 0.0
C2048 C 0.50855 0.46751 0.53836 0.0
C2049 C 0.51214 0.48551 0.54986 0.0
N2050 N 0.52096 0.50121 0.52399 0.0
C2051 C 0.51826 0.50216 0.54253 0.0
H2052 H 0.52122 0.51537 0.55241 0.0
C2053 C 0.52675 0.49792 0.46834 0.0
N2054 N 0.52655 0.49891 0.48727 0.0
C2055 C 0.52351 0.48021 0.45614 0.0
C2056 C 0.51889 0.46315 0.463 0.0
H2057 H 0.52873 0.51068 0.4621 0.0
H2058 H 0.50334 0.43496 0.51295 0.0
H2059 H 0.57683 0.57644 0.49255 0.0
H2060 H 0.50386 0.45463 0.54417 0.0
H2061 H 0.51032 0.48663 0.56453 0.0
H2062 H 0.50811 0.43302 0.47996 0.0
H2063 H 0.58426 0.55947 0.57489 0.0
H2064 H 0.58945 0.63771 0.51164 0.0
H2065 H 0.58382 0.60953 0.48584 0.0
H2066 H 0.59628 0.64383 0.57789 0.0
H2067 H 0.52408 0.47977 0.44134 0.0
H2068 H 0.51612 0.44941 0.45344 0.0
H2069 H 0.59373 0.65038 0.54606 0.0
H2070 H 0.59355 0.58557 0.60237 0.0
N2071 N 0.57758 0.58569 0.5218 0.0
C2072 C 0.58624 0.62319 0.51466 0.0
C2073 C 0.58313 0.60733 0.50006 0.0
C2074 C 0.58591 0.62011 0.53303 0.0
C2075 C 0.58162 0.60091 0.5362 0.0
C2076 C 0.57913 0.58858 0.50393 0.0
N2077 N 0.58056 0.57855 0.55644 0.0
C2078 C 0.5831 0.59722 0.5541 0.0
C2079 C 0.59044 0.58905 0.58892 0.0
C2080 C 0.59206 0.6083 0.58697 0.0
C2081 C 0.58505 0.57429 0.57335 0.0
C2082 C 0.58882 0.61263 0.56933 0.0
H2083 H 0.59651 0.61973 0.599 0.0
O2084 O 0.59302 0.53874 0.53426 0.0
O2085 O 0.55547 0.52395 0.5217 0.0
O2086 O 0.52449 0.54144 0.53891 0.0
O2087 O 0.55268 0.5594 0.55286 0.0
O2088 O 0.56611 0.5346 0.5493 0.0
O2089 O 0.60019 0.56628 0.5256 0.0
O2090 O 0.51399 0.53184 0.48426 0.0
O2091 O 0.54928 0.55651 0.51024 0.0
O2092 O 0.57743 0.54348 0.49936 0.0
O2093 O 0.54879 0.5311 0.48484 0.0
O2094 O 0.52354 0.55808 0.5167 0.0
O2095 O 0.50033 0.51926 0.50622 0.0
C2096 C 0.55787 0.51928 0.53771 0.0
C2097 C 0.59201 0.6318 0.56635 0.0
C2098 C 0.59056 0.63554 0.54822 0.0
C2099 C 0.60596 0.55197 0.53048 0.0
C2100 C 0.62295 0.55659 0.54234 0.0
C2101 C 0.62877 0.57425 0.55479 0.0
C2102 C 0.63415 0.54341 0.54004 0.0
C2103 C 0.65129 0.54785 0.54979 0.0
C2104 C 0.64577 0.57868 0.5647 0.0
C2105 C 0.65706 0.56563 0.56214 0.0
C2106 C 0.53499 0.5523 0.55386 0.0
C2107 C 0.53901 0.56825 0.51418 0.0
C2108 C 0.49875 0.52366 0.48974 0.0
C2109 C 0.48211 0.52876 0.48336 0.0
C2110 C 0.47609 0.52291 0.46442 0.0
C2111 C 0.47154 0.53778 0.4956 0.0
C2112 C 0.45482 0.54062 0.48883 0.0
C2113 C 0.45965 0.52584 0.45768 0.0
C2114 C 0.44903 0.53459 0.46977 0.0
C2115 C 0.56664 0.53566 0.484 0.0
H2116 H 0.62036 0.58471 0.55663 0.0
H2117 H 0.62975 0.52993 0.53013 0.0
H2118 H 0.65029 0.59234 0.57422 0.0
H2119 H 0.67024 0.56937 0.56984 0.0
H2120 H 0.48403 0.51576 0.45487 0.0
H2121 H 0.4761 0.54223 0.51027 0.0
H2122 H 0.45508 0.52125 0.44304 0.0
H2123 H 0.43641 0.53696 0.46414 0.0
Gd2124 Gd 0.03138 0.54473 0.03494 0.0
Gd2125 Gd 0.07577 0.5466 0.01701 0.0
C2126 C 0.11509 0.6042 0.01735 0.0
C2127 C 0.11727 0.60402 0.98433 0.0
C2128 C 0.0983 0.57685 0.99474 0.0
C2129 C 0.10292 0.58599 0.01303 0.0
C2130 C 0.10576 0.58551 0.98018 0.0
C2131 C 0.12189 0.61337 1.00289 0.0
C2132 C 0.12055 0.61229 0.03606 0.0
C2133 C 0.1145 0.60188 0.04983 0.0
N2134 N 0.09641 0.57651 0.02662 0.0
C2135 C 0.10261 0.58376 0.04481 0.0
H2136 H 0.09808 0.57585 0.0556 0.0
C2137 C 0.08413 0.54827 0.97364 0.0
N2138 N 0.08734 0.5589 0.99127 0.0
C2139 C 0.09121 0.55624 0.95872 0.0
C2140 C 0.10188 0.57505 0.96196 0.0
H2141 H 0.07586 0.53376 0.97101 0.0
H2142 H 0.13115 0.62742 0.00592 0.0
H2143 H 0.00625 0.5175 0.99703 0.0
H2144 H 0.12984 0.62628 0.03997 0.0
H2145 H 0.11898 0.60778 0.06432 0.0
H2146 H 0.12302 0.61101 0.97333 0.0
H2147 H 0.0327 0.55707 0.08125 0.0
H2148 H 0.97292 0.46806 0.01275 0.0
H2149 H 0.9832 0.48705 0.9886 0.0
H2150 H 0.98383 0.48092 0.07917 0.0
H2151 H 0.08839 0.5479 0.94473 0.0
H2152 H 0.10739 0.58117 0.95039 0.0
H2153 H 0.97354 0.46569 0.04662 0.0
H2154 H 0.02119 0.54261 0.10771 0.0
N2155 N 0.0095 0.51565 0.02566 0.0
C2156 C 0.98311 0.48142 0.01655 0.0
C2157 C 0.98883 0.49213 1.0029 0.0
C2158 C 0.99001 0.48855 0.03507 0.0
C2159 C 1.00319 0.50607 0.03925 0.0
C2160 C 1.002 0.50938 0.00775 0.0
N2161 N 0.02033 0.5323 0.0609 0.0
C2162 C 0.00882 0.51467 0.0575 0.0
C2163 C 0.01771 0.53452 0.09366 0.0
C2164 C 0.00655 0.51597 0.09045 0.0
C2165 C 0.02425 0.54265 0.07863 0.0
C2166 C 1.00166 0.50596 0.07217 0.0
H2167 H 1.00135 0.50978 0.10211 0.0
O2168 O 0.02048 0.5691 0.04718 0.0
O2169 O 0.05725 0.56399 0.03031 0.0
O2170 O 0.07592 0.54494 0.04749 0.0
O2171 O 0.04673 0.53025 0.05291 0.0
O2172 O 0.04754 0.57011 0.05573 0.0
O2173 O 0.00796 0.55127 0.02119 0.0
O2174 O 0.08801 0.5232 1.00504 0.0
O2175 O 0.04985 0.52733 0.02133 0.0
O2176 O 0.03139 0.5455 1.00426 0.0
O2177 O 0.06027 0.56079 0.99884 0.0
O2178 O 0.05988 0.52074 0.99638 0.0
O2179 O 0.09906 0.5408 0.03172 0.0
C2180 C 0.06003 0.576 0.0455 0.0
C2181 C 0.98936 0.48794 0.0681 0.0
C2182 C 0.98352 0.47925 0.04957 0.0
C2183 C 0.00721 0.56571 0.03425 0.0
C2184 C 0.98932 0.56641 0.04066 0.0
C2185 C 0.98171 0.55396 0.05237 0.0
C2186 C 0.97994 0.57993 0.03548 0.0
C2187 C 0.96319 0.58124 0.04232 0.0
C2188 C 0.96509 0.55509 0.05905 0.0
C2189 C 0.95591 0.56864 0.05414 0.0
C2190 C 0.06436 0.53483 0.05692 0.0
C2191 C 0.04705 0.515 0.00631 0.0
C2192 C 0.10077 0.52681 0.01857 0.0
C2193 C 0.11913 0.52704 0.0131 0.0
C2194 C 0.12715 0.5404 1.00242 0.0
C2195 C 0.12865 0.51366 0.01834 0.0
C2196 C 0.14615 0.51362 0.01286 0.0
C2197 C 0.14434 0.54034 0.99681 0.0
C2198 C 0.15375 0.52705 1.0019 0.0
C2199 C 0.04261 0.55599 0.99477 0.0
H2200 H 0.98863 0.54345 0.05644 0.0
H2201 H 0.98583 0.58963 0.02647 0.0
H2202 H 0.95931 0.54543 0.06809 0.0
H2203 H 0.94296 0.5691 0.05942 0.0
H2204 H 0.12011 0.55079 0.9983 0.0
H2205 H 0.12253 0.50351 0.02681 0.0
H2206 H 0.15037 0.55058 0.98841 0.0
H2207 H 0.16696 0.52719 0.99704 0.0
H2208 H 0.01932 0.23308 0.974 0.0
H2209 H 0.02324 0.20467 0.98649 0.0
H2210 H 0.03035 0.17622 0.93153 0.0
H2211 H 0.02509 0.20428 0.91884 0.0
H2212 H 0.01326 0.15034 0.94629 0.0
H2213 H 0.06683 0.19975 0.97245 0.0
H2214 H 0.08328 0.23133 0.99056 0.0
H2215 H 0.05742 0.21823 0.03901 0.0
H2216 H 0.0407 0.18667 0.02114 0.0
H2217 H 0.05103 0.07607 0.96959 0.0
H2218 H 0.04759 0.1065 0.96105 0.0
H2219 H 0.03467 0.12617 0.01657 0.0
H2220 H 0.03885 0.09554 0.02542 0.0
H2221 H 0.05347 0.15645 1.00355 0.0
H2222 H 1.00108 0.10734 0.97874 0.0
H2223 H 0.98477 0.07524 0.9617 0.0
H2224 H 0.00784 0.08774 0.91168 0.0
H2225 H 0.02448 0.11983 0.92849 0.0
C2226 C 0.02167 0.22076 0.96452 0.0
C2227 C 0.02192 0.22115 0.94534 0.0
C2228 C 0.02418 0.20444 0.97177 0.0
C2229 C 0.02775 0.18811 0.96025 0.0
C2230 C 0.02776 0.18843 0.94099 0.0
C2231 C 0.02476 0.20459 0.93365 0.0
C2232 C 0.03101 0.17061 0.96803 0.0
C2233 C 0.02232 0.15187 0.95866 0.0
C2234 C 0.04223 0.17204 0.98468 0.0
C2235 C 0.0524 0.19094 0.99541 0.0
C2236 C 0.0646 0.20366 0.98694 0.0
C2237 C 0.07398 0.22154 0.99717 0.0
C2238 C 0.07136 0.2268 0.01591 0.0
C2239 C 0.05942 0.21416 0.02449 0.0
C2240 C 0.05001 0.19626 0.01432 0.0
C2241 C 0.04765 0.08695 0.98011 0.0
C2242 C 0.04525 0.08328 0.99821 0.0
C2243 C 0.04553 0.10439 0.97514 0.0
C2244 C 0.04028 0.11869 0.98788 0.0
C2245 C 0.03853 0.11544 0.0063 0.0
C2246 C 0.04093 0.09791 0.01141 0.0
C2247 C 0.03607 0.13643 0.98151 0.0
C2248 C 0.04448 0.15508 0.99116 0.0
C2249 C 0.02451 0.13499 0.96519 0.0
C2250 C 0.01409 0.11595 0.9549 0.0
C2251 C 1.0027 0.10323 0.96411 0.0
C2252 C 0.99341 0.08503 0.9545 0.0
C2253 C 0.99529 0.07944 0.93562 0.0
C2254 C 0.0064 0.09209 0.9263 0.0
C2255 C 0.01574 0.1103 0.93586 0.0
H2256 H 0.98811 0.06533 0.92821 0.0
H2257 H 0.07862 0.24066 0.02379 0.0
H2258 H 0.14324 0.79858 0.12763 0.0
H2259 H 0.17023 0.79539 0.14564 0.0
H2260 H 0.16065 0.83721 0.19124 0.0
H2261 H 0.13326 0.84 0.17351 0.0
H2262 H 0.1995 0.84145 0.18085 0.0
H2263 H 0.14909 0.79477 0.19653 0.0
H2264 H 0.12263 0.76741 0.18878 0.0
H2265 H 0.15554 0.73154 0.16159 0.0
H2266 H 0.18217 0.75881 0.16893 0.0
H2267 H 0.26075 0.8284 0.25131 0.0
H2268 H 0.23459 0.83261 0.2332 0.0
H2269 H 0.23023 0.77646 0.19912 0.0
H2270 H 0.25558 0.77157 0.21823 0.0
H2271 H 0.1984 0.77958 0.2027 0.0
H2272 H 0.24811 0.82274 0.18523 0.0
H2273 H 0.27581 0.84866 0.18992 0.0
H2274 H 0.24658 0.88939 0.21568 0.0
H2275 H 0.21875 0.86364 0.21139 0.0
C2276 C 0.14698 0.80734 0.14139 0.0
C2277 C 0.13602 0.81967 0.149 0.0
C2278 C 0.16243 0.80542 0.15174 0.0
C2279 C 0.16762 0.81603 0.16989 0.0
C2280 C 0.15707 0.82888 0.17728 0.0
C2281 C 0.14137 0.83048 0.16709 0.0
C2282 C 0.18352 0.81309 0.18138 0.0
C2283 C 0.19918 0.82802 0.18584 0.0
C2284 C 0.18354 0.79533 0.18736 0.0
C2285 C 0.16757 0.7789 0.1831 0.0
C2286 C 0.15065 0.78111 0.18875 0.0
C2287 C 0.13563 0.7656 0.18446 0.0
C2288 C 0.13739 0.74777 0.17465 0.0
C2289 C 0.15419 0.74538 0.16916 0.0
C2290 C 0.16925 0.76085 0.17339 0.0
C2291 C 0.25406 0.81672 0.24027 0.0
C2292 C 0.26029 0.79947 0.23666 0.0
C2293 C 0.23916 0.81931 0.22955 0.0
C2294 C 0.2303 0.80504 0.21435 0.0
C2295 C 0.23658 0.78781 0.21066 0.0
C2296 C 0.25128 0.78506 0.22163 0.0
C2297 C 0.21457 0.80803 0.20242 0.0
C2298 C 0.19888 0.79308 0.19779 0.0
C2299 C 0.21475 0.82559 0.19581 0.0
C2300 C 0.23137 0.84122 0.19813 0.0
C2301 C 0.2476 0.83721 0.19198 0.0
C2302 C 0.26333 0.85186 0.19456 0.0
C2303 C 0.26296 0.87065 0.20313 0.0
C2304 C 0.24685 0.87482 0.20907 0.0
C2305 C 0.23108 0.86021 0.20654 0.0
H2306 H 0.27515 0.88197 0.20512 0.0
H2307 H 0.12574 0.73578 0.17134 0.0
H2308 H 0.49803 0.83431 0.44604 0.0
H2309 H 0.50344 0.86766 0.46291 0.0
H2310 H 0.55801 0.86565 0.47958 0.0
H2311 H 0.55283 0.8323 0.46186 0.0
H2312 H 0.52957 0.8878 0.50754 0.0
H2313 H 0.56583 0.88687 0.45363 0.0
H2314 H 0.56898 0.87418 0.4208 0.0
H2315 H 0.52167 0.8928 0.40382 0.0
H2316 H 0.5181 0.90532 0.43662 0.0
H2317 H 0.55849 0.99238 0.53054 0.0
H2318 H 0.55509 0.95723 0.52383 0.0
H2319 H 0.52402 0.95445 0.47193 0.0
H2320 H 0.52945 0.98966 0.47776 0.0
H2321 H 0.54389 0.93338 0.46379 0.0
H2322 H 0.50768 0.93536 0.51756 0.0
H2323 H 0.50277 0.9456 0.55043 0.0
H2324 H 0.5486 0.92504 0.56813 0.0
H2325 H 0.5536 0.91428 0.53539 0.0
C2326 C 0.51109 0.84079 0.45353 0.0
C2327 C 0.52501 0.83065 0.45253 0.0
C2328 C 0.51414 0.85986 0.4633 0.0
C2329 C 0.53113 0.86923 0.4725 0.0
C2330 C 0.54474 0.85869 0.47269 0.0
C2331 C 0.54174 0.8396 0.46265 0.0
C2332 C 0.53507 0.8906 0.47954 0.0
C2333 C 0.53293 0.89787 0.4981 0.0
C2334 C 0.53917 0.90373 0.46724 0.0
C2335 C 0.54162 0.89684 0.44753 0.0
C2336 C 0.55605 0.88814 0.44289 0.0
C2337 C 0.55791 0.88099 0.4243 0.0
C2338 C 0.5455 0.88263 0.41023 0.0
C2339 C 0.53125 0.89151 0.41473 0.0
C2340 C 0.52931 0.89865 0.43331 0.0
C2341 C 0.55048 0.98413 0.51798 0.0
C2342 C 0.54374 0.99375 0.50493 0.0
C2343 C 0.54846 0.96387 0.5141 0.0
C2344 C 0.53899 0.95263 0.49738 0.0
C2345 C 0.53152 0.9624 0.48486 0.0
C2346 C 0.53432 0.98262 0.48833 0.0
C2347 C 0.53789 0.93112 0.49199 0.0
C2348 C 0.54056 0.92363 0.47351 0.0
C2349 C 0.53425 0.91787 0.50447 0.0
C2350 C 0.53108 0.92417 0.52407 0.0
C2351 C 0.51672 0.93306 0.52847 0.0
C2352 C 0.51393 0.93897 0.54706 0.0
C2353 C 0.52546 0.93618 0.56134 0.0
C2354 C 0.53971 0.92725 0.55706 0.0
C2355 C 0.54247 0.92114 0.5385 0.0
H2356 H 0.52329 0.94086 0.57571 0.0
H2357 H 0.54695 0.87706 0.39585 0.0
H2358 H 0.51079 0.30014 0.61445 0.0
H2359 H 0.48575 0.29881 0.63394 0.0
H2360 H 0.52323 0.31274 0.68306 0.0
H2361 H 0.54851 0.31394 0.66357 0.0
H2362 H 0.49568 0.28345 0.6858 0.0
H2363 H 0.50071 0.34616 0.66969 0.0
H2364 H 0.50238 0.36961 0.64849 0.0
H2365 H 0.44987 0.34001 0.62214 0.0
H2366 H 0.44798 0.31621 0.64303 0.0
H2367 H 0.43741 0.30421 0.75335 0.0
H2368 H 0.46073 0.30892 0.73199 0.0
H2369 H 0.42035 0.28873 0.68533 0.0
H2370 H 0.39671 0.28357 0.70683 0.0
H2371 H 0.4483 0.32068 0.68032 0.0
H2372 H 0.44325 0.25805 0.69609 0.0
H2373 H 0.44133 0.23453 0.71722 0.0
H2374 H 0.49384 0.2638 0.7438 0.0
H2375 H 0.49596 0.2877 0.72299 0.0
C2376 C 0.51383 0.30308 0.6294 0.0
C2377 C 0.53184 0.30722 0.63734 0.0
C2378 C 0.4994 0.30238 0.64058 0.0
C2379 C 0.50247 0.30587 0.66007 0.0
C2380 C 0.52041 0.31003 0.66808 0.0
C2381 C 0.53491 0.3108 0.65689 0.0
C2382 C 0.48696 0.30454 0.67199 0.0
C2383 C 0.48551 0.29184 0.68475 0.0
C2384 C 0.47323 0.31495 0.67032 0.0
C2385 C 0.47428 0.3293 0.65781 0.0
C2386 C 0.48957 0.34456 0.65928 0.0
C2387 C 0.49055 0.35793 0.64734 0.0
C2388 C 0.47626 0.35627 0.63394 0.0
C2389 C 0.46094 0.34127 0.63251 0.0
C2390 C 0.4599 0.32784 0.64441 0.0
C2391 C 0.43338 0.30075 0.73855 0.0
C2392 C 0.41512 0.29309 0.73189 0.0
C2393 C 0.4468 0.30354 0.72632 0.0
C2394 C 0.44243 0.29886 0.70699 0.0
C2395 C 0.42411 0.29236 0.70018 0.0
C2396 C 0.41058 0.28947 0.71251 0.0
C2397 C 0.45723 0.29978 0.69421 0.0
C2398 C 0.45851 0.31232 0.68131 0.0
C2399 C 0.47082 0.28919 0.69567 0.0
C2400 C 0.46969 0.27476 0.7081 0.0
C2401 C 0.45433 0.25956 0.70654 0.0
C2402 C 0.45321 0.24615 0.71844 0.0
C2403 C 0.46743 0.2477 0.73187 0.0
C2404 C 0.48283 0.26264 0.7334 0.0
C2405 C 0.484 0.27611 0.72154 0.0
H2406 H 0.46654 0.2373 0.74108 0.0
H2407 H 0.47705 0.36664 0.62471 0.0
H2408 H 0.04105 0.84848 0.65918 0.0
H2409 H 0.04474 0.86988 0.63658 0.0
H2410 H 1.0005 0.83107 0.60067 0.0
H2411 H 0.9978 0.80876 0.62261 0.0
H2412 H 0.02606 0.84095 0.58117 0.0
H2413 H 0.99702 0.87765 0.62635 0.0
H2414 H 0.99318 0.89194 0.65854 0.0
H2415 H 0.04676 0.92745 0.66401 0.0
H2416 H 0.05088 0.91359 0.6317 0.0
H2417 H 0.0233 0.9048 0.51819 0.0
H2418 H 0.01487 0.88513 0.54195 0.0
H2419 H 0.06079 0.91948 0.57863 0.0
H2420 H 0.06866 0.93971 0.5552 0.0
H2421 H 0.03251 0.91204 0.59765 0.0
H2422 H 0.06089 0.87376 0.55177 0.0
H2423 H 0.06401 0.85801 0.51984 0.0
H2424 H 0.00991 0.82387 0.5161 0.0
H2425 H 0.00642 0.83957 0.54793 0.0
C2426 C 0.03206 0.84455 0.64653 0.0
C2427 C 0.01925 0.82691 0.64255 0.0
C2428 C 0.03404 0.85691 0.63369 0.0
C2429 C 0.02268 0.85226 0.61706 0.0
C2430 C 0.00943 0.83494 0.6134 0.0
C2431 C 0.00785 0.82226 0.62595 0.0
C2432 C 0.02531 0.86489 0.60301 0.0
C2433 C 0.0271 0.85644 0.58471 0.0
C2434 C 0.02705 0.88514 0.60772 0.0
C2435 C 0.02423 0.8946 0.62662 0.0
C2436 C 0.00792 0.88864 0.63436 0.0
C2437 C 0.0057 0.89668 0.6526 0.0
C2438 C 0.0197 0.91069 0.66325 0.0
C2439 C 0.03589 0.91678 0.65562 0.0
C2440 C 0.03814 0.90892 0.63732 0.0
C2441 C 0.03163 0.90794 0.53127 0.0
C2442 C 0.04678 0.9234 0.53484 0.0
C2443 C 0.02682 0.8968 0.54483 0.0
C2444 C 0.03742 0.90064 0.56191 0.0
C2445 C 0.05246 0.91625 0.56553 0.0
C2446 C 0.05705 0.92764 0.55213 0.0
C2447 C 0.03318 0.88803 0.57581 0.0
C2448 C 0.0312 0.89651 0.5941 0.0
C2449 C 0.03105 0.86773 0.57107 0.0
C2450 C 0.03336 0.85793 0.55215 0.0
C2451 C 0.04966 0.86292 0.5441 0.0
C2452 C 0.05149 0.85401 0.52603 0.0
C2453 C 0.03716 0.83998 0.51593 0.0
C2454 C 0.021 0.83475 0.52393 0.0
C2455 C 0.0191 0.84363 0.54199 0.0
H2456 H 0.03858 0.83313 0.50193 0.0
H2457 H 0.01802 0.91677 0.67743 0.0
H2458 H 0.54816 0.80758 0.84638 0.0
H2459 H 0.5186 0.81199 0.83605 0.0
H2460 H 0.51506 0.84358 0.89081 0.0
H2461 H 0.54594 0.84214 0.8999 0.0
H2462 H 0.48873 0.79862 0.848 0.0
H2463 H 0.4958 0.86379 0.89266 0.0
H2464 H 0.51273 0.89685 0.9064 0.0
H2465 H 0.52241 0.90867 0.85184 0.0
H2466 H 0.50599 0.87543 0.83796 0.0
H2467 H 0.40483 0.80695 0.80855 0.0
H2468 H 0.42885 0.80736 0.83161 0.0
H2469 H 0.46345 0.85325 0.81064 0.0
H2470 H 0.43859 0.85502 0.78934 0.0
H2471 H 0.46975 0.85991 0.84511 0.0
H2472 H 0.46245 0.8 0.79904 0.0
H2473 H 0.44562 0.76815 0.78179 0.0
H2474 H 0.43602 0.74831 0.83326 0.0
H2475 H 0.45267 0.7801 0.8508 0.0
C2476 C 0.54144 0.8165 0.85575 0.0
C2477 C 0.54975 0.82574 0.87335 0.0
C2478 C 0.5244 0.81873 0.85004 0.0
C2479 C 0.51476 0.82911 0.86232 0.0
C2480 C 0.52257 0.83704 0.8805 0.0
C2481 C 0.54008 0.8357 0.88586 0.0
C2482 C 0.49605 0.82971 0.85613 0.0
C2483 C 0.48454 0.81207 0.84753 0.0
C2484 C 0.49025 0.84717 0.85584 0.0
C2485 C 0.50114 0.86659 0.86439 0.0
C2486 C 0.50233 0.87313 0.88368 0.0
C2487 C 0.5116 0.892 0.89149 0.0
C2488 C 0.51907 0.90472 0.88004 0.0
C2489 C 0.51701 0.89868 0.86075 0.0
C2490 C 0.50796 0.87975 0.85294 0.0
C2491 C 0.41727 0.81768 0.80915 0.0
C2492 C 0.41954 0.83115 0.79701 0.0
C2493 C 0.43123 0.81751 0.82215 0.0
C2494 C 0.44813 0.83 0.82263 0.0
C2495 C 0.45051 0.84341 0.81056 0.0
C2496 C 0.43632 0.84418 0.79809 0.0
C2497 C 0.46353 0.82908 0.8354 0.0
C2498 C 0.47397 0.8465 0.84566 0.0
C2499 C 0.46863 0.81151 0.8368 0.0
C2500 C 0.45858 0.79247 0.82621 0.0
C2501 C 0.45664 0.78887 0.80666 0.0
C2502 C 0.44715 0.77083 0.79684 0.0
C2503 C 0.4397 0.75624 0.80642 0.0
C2504 C 0.44176 0.75964 0.82585 0.0
C2505 C 0.45122 0.77765 0.83574 0.0
H2506 H 0.43237 0.74228 0.79879 0.0
H2507 H 0.52614 0.91935 0.88609 0.0
H2508 H 0.53195 0.22558 0.14474 0.0
H2509 H 0.5382 0.19469 0.13102 0.0
H2510 H 0.48093 0.16946 0.12217 0.0
H2511 H 0.47546 0.19898 0.1406 0.0
H2512 H 0.49551 0.14305 0.12378 0.0
H2513 H 0.51192 0.19712 0.09027 0.0
H2514 H 0.52949 0.22968 0.08803 0.0
H2515 H 0.57883 0.21085 0.09434 0.0
H2516 H 0.56175 0.17853 0.09743 0.0
H2517 H 0.50914 0.07549 0.0434 0.0
H2518 H 0.49937 0.10298 0.06138 0.0
H2519 H 0.55276 0.12367 0.09008 0.0
H2520 H 0.56251 0.09653 0.07237 0.0
H2521 H 0.53773 0.15152 0.07493 0.0
H2522 H 0.52437 0.10148 0.11232 0.0
H2523 H 0.50983 0.06862 0.11658 0.0
H2524 H 0.45769 0.07931 0.10317 0.0
H2525 H 0.47198 0.11218 0.09856 0.0
C2526 C 0.52075 0.21328 0.14006 0.0
C2527 C 0.50288 0.21501 0.14159 0.0
C2528 C 0.5243 0.19575 0.13204 0.0
C2529 C 0.50997 0.18037 0.1239 0.0
C2530 C 0.49223 0.18149 0.12739 0.0
C2531 C 0.48888 0.19857 0.13706 0.0
C2532 C 0.51337 0.16374 0.11101 0.0
C2533 C 0.50449 0.14501 0.11291 0.0
C2534 C 0.52538 0.1662 0.09696 0.0
C2535 C 0.5355 0.1854 0.09406 0.0
C2536 C 0.52649 0.19992 0.09104 0.0
C2537 C 0.53635 0.21833 0.0897 0.0
C2538 C 0.55517 0.22225 0.09083 0.0
C2539 C 0.56423 0.20779 0.09339 0.0
C2540 C 0.55448 0.18944 0.09501 0.0
C2541 C 0.51869 0.08594 0.05361 0.0
C2542 C 0.53644 0.08387 0.0569 0.0
C2543 C 0.51313 0.10148 0.06377 0.0
C2544 C 0.52542 0.11503 0.07696 0.0
C2545 C 0.54319 0.11315 0.07993 0.0
C2546 C 0.54865 0.09759 0.07001 0.0
C2547 C 0.52 0.13132 0.08796 0.0
C2548 C 0.52844 0.14985 0.08559 0.0
C2549 C 0.50786 0.12871 0.10163 0.0
C2550 C 0.49924 0.10918 0.10489 0.0
C2551 C 0.50981 0.09677 0.11016 0.0
C2552 C 0.50162 0.07816 0.11266 0.0
C2553 C 0.48285 0.07186 0.11008 0.0
C2554 C 0.47223 0.08421 0.10512 0.0
C2555 C 0.48037 0.10283 0.10258 0.0
H2556 H 0.47652 0.05742 0.11193 0.0
H2557 H 0.56273 0.23653 0.08981 0.0
H2558 H 0.15455 0.33099 0.38679 0.0
H2559 H 0.18273 0.32731 0.37281 0.0
H2560 H 0.15184 0.30018 0.32044 0.0
H2561 H 0.1241 0.30395 0.33411 0.0
H2562 H 0.17633 0.27989 0.33566 0.0
H2563 H 0.17041 0.34263 0.32296 0.0
H2564 H 0.16953 0.37701 0.33181 0.0
H2565 H 0.22287 0.38937 0.35968 0.0
H2566 H 0.22393 0.35493 0.3513 0.0
H2567 H 0.24473 0.31099 0.26442 0.0
H2568 H 0.21665 0.30932 0.27981 0.0
H2569 H 0.23953 0.28583 0.32354 0.0
H2570 H 0.26752 0.28772 0.30839 0.0
H2571 H 0.22102 0.33202 0.31626 0.0
H2572 H 0.21091 0.26045 0.33789 0.0
H2573 H 0.1992 0.22501 0.3309 0.0
H2574 H 0.16877 0.23023 0.28168 0.0
H2575 H 0.18062 0.26561 0.28826 0.0
C2576 C 0.15395 0.32396 0.3724 0.0
C2577 C 0.13739 0.31748 0.36145 0.0
C2578 C 0.1699 0.32218 0.36444 0.0
C2579 C 0.16913 0.31373 0.34566 0.0
C2580 C 0.15253 0.30689 0.33494 0.0
C2581 C 0.13676 0.30888 0.34276 0.0
C2582 C 0.18526 0.3105 0.33697 0.0
C2583 C 0.18637 0.29129 0.33166 0.0
C2584 C 0.19788 0.32549 0.3316 0.0
C2585 C 0.19712 0.34613 0.3368 0.0
C2586 C 0.18184 0.3526 0.33123 0.0
C2587 C 0.18133 0.37212 0.3361 0.0
C2588 C 0.1961 0.38535 0.34639 0.0
C2589 C 0.21142 0.37909 0.35178 0.0
C2590 C 0.21197 0.35957 0.34699 0.0
C2591 C 0.24346 0.30501 0.27704 0.0
C2592 C 0.25797 0.29924 0.28518 0.0
C2593 C 0.22749 0.3039 0.2857 0.0
C2594 C 0.22604 0.29717 0.30261 0.0
C2595 C 0.24027 0.29056 0.31025 0.0
C2596 C 0.25622 0.29174 0.30166 0.0
C2597 C 0.21168 0.30112 0.31423 0.0
C2598 C 0.21121 0.3206 0.32047 0.0
C2599 C 0.19923 0.28634 0.32012 0.0
C2600 C 0.19722 0.26552 0.31315 0.0
C2601 C 0.20235 0.2539 0.32517 0.0
C2602 C 0.19542 0.23388 0.32147 0.0
C2603 C 0.18326 0.22535 0.30584 0.0
C2604 C 0.17825 0.23681 0.29374 0.0
C2605 C 0.18529 0.25681 0.29728 0.0
H2606 H 0.17776 0.20989 0.30307 0.0
H2607 H 0.19569 0.40047 0.35011 0.0
H2608 H 0.93796 0.07681 0.2036 0.0
H2609 H 0.95253 0.0761 0.17465 0.0
H2610 H 0.99272 0.05022 0.19762 0.0
H2611 H 0.97926 0.05328 0.2273 0.0
H2612 H 0.01 0.06453 0.1764 0.0
H2613 H 0.94751 0.02943 0.15469 0.0
H2614 H 0.91454 0.02631 0.15042 0.0
H2615 H 0.92265 0.07683 0.12514 0.0
H2616 H 0.95563 0.08032 0.12939 0.0
H2617 H 0.04603 0.03792 0.0885 0.0
H2618 H 0.03121 0.03964 0.11735 0.0
H2619 H 0.9934 0.06819 0.09406 0.0
H2620 H 0.00726 0.0645 0.06448 0.0
H2621 H 0.97509 0.05329 0.11516 0.0
H2622 H 0.03665 0.08803 0.13522 0.0
H2623 H 0.0697 0.09164 0.13831 0.0
H2624 H 0.06362 0.04311 0.16638 0.0
H2625 H 0.03054 0.03907 0.16324 0.0
C2626 C 0.94991 0.07092 0.20259 0.0
C2627 C 0.95705 0.06504 0.21842 0.0
C2628 C 0.95831 0.07008 0.18543 0.0
C2629 C 0.9739 0.06222 0.18241 0.0
C2630 C 0.98094 0.05638 0.19844 0.0
C2631 C 0.97299 0.05802 0.21583 0.0
C2632 C 0.98306 0.06039 0.16335 0.0
C2633 C 1.00198 0.06173 0.16316 0.0
C2634 C 0.97375 0.05743 0.14511 0.0
C2635 C 0.95398 0.05522 0.14251 0.0
C2636 C 0.94223 0.03987 0.14826 0.0
C2637 C 0.92356 0.03806 0.14586 0.0
C2638 C 0.91651 0.05139 0.13756 0.0
C2639 C 0.92812 0.06654 0.13159 0.0
C2640 C 0.94679 0.06843 0.13398 0.0
C2641 C 0.03458 0.04467 0.08943 0.0
C2642 C 0.02827 0.05121 0.07364 0.0
C2643 C 0.02604 0.04602 0.10646 0.0
C2644 C 0.01108 0.0549 0.10931 0.0
C2645 C 0.00475 0.06132 0.09329 0.0
C2646 C 0.01291 0.05932 0.07602 0.0
C2647 C 1.0019 0.05715 0.12828 0.0
C2648 C 0.98304 0.05597 0.12843 0.0
C2649 C 0.01128 0.06037 0.14648 0.0
C2650 C 0.03114 0.06318 0.14887 0.0
C2651 C 0.04238 0.07815 0.14205 0.0
C2652 C 0.06111 0.08024 0.14378 0.0
C2653 C 0.06875 0.06759 0.15251 0.0
C2654 C 0.05768 0.05288 0.15961 0.0
C2655 C 0.03895 0.05069 0.15787 0.0
H2656 H 0.08324 0.06921 0.1538 0.0
H2657 H 0.90206 0.04997 0.13573 0.0
H2658 H 0.29645 0.69674 0.48784 0.0
H2659 H 0.2969 0.71642 0.46373 0.0
H2660 H 0.29649 0.66635 0.42183 0.0
H2661 H 0.29609 0.64647 0.44578 0.0
H2662 H 0.32086 0.69891 0.41711 0.0
H2663 H 0.25847 0.68027 0.42921 0.0
H2664 H 0.23296 0.67784 0.44871 0.0
H2665 H 0.24334 0.73982 0.46303 0.0
H2666 H 0.26911 0.74262 0.44384 0.0
H2667 H 0.27228 0.72042 0.33662 0.0
H2668 H 0.28401 0.70646 0.36152 0.0
H2669 H 0.29842 0.76284 0.39667 0.0
H2670 H 0.28628 0.7769 0.37186 0.0
H2671 H 0.27002 0.73018 0.40654 0.0
H2672 H 0.34376 0.73588 0.41075 0.0
H2673 H 0.37079 0.73375 0.39409 0.0
H2674 H 0.33774 0.69492 0.34809 0.0
H2675 H 0.31068 0.69626 0.36481 0.0
C2676 C 0.29671 0.68993 0.47352 0.0
C2677 C 0.2962 0.67 0.46869 0.0
C2678 C 0.29683 0.70119 0.4598 0.0
C2679 C 0.2965 0.69271 0.44109 0.0
C2680 C 0.2967 0.67306 0.43626 0.0
C2681 C 0.29649 0.66175 0.44995 0.0
C2682 C 0.29575 0.70421 0.42639 0.0
C2683 C 0.30973 0.70575 0.41474 0.0
C2684 C 0.28135 0.71332 0.42366 0.0
C2685 C 0.26587 0.71165 0.43526 0.0
C2686 C 0.25543 0.69338 0.43666 0.0
C2687 C 0.2409 0.69194 0.44763 0.0
C2688 C 0.23656 0.70867 0.45715 0.0
C2689 C 0.24673 0.72688 0.45568 0.0
C2690 C 0.26131 0.7284 0.44476 0.0
C2691 C 0.27848 0.72993 0.34945 0.0
C2692 C 0.27825 0.74968 0.35242 0.0
C2693 C 0.28552 0.722 0.36353 0.0
C2694 C 0.29269 0.73374 0.38068 0.0
C2695 C 0.29344 0.75368 0.3833 0.0
C2696 C 0.28645 0.76166 0.36917 0.0
C2697 C 0.29502 0.72457 0.39691 0.0
C2698 C 0.28129 0.72358 0.40902 0.0
C2699 C 0.30956 0.71576 0.39997 0.0
C2700 C 0.3251 0.71688 0.38866 0.0
C2701 C 0.34225 0.72715 0.39694 0.0
C2702 C 0.35762 0.72581 0.38764 0.0
C2703 C 0.35598 0.71424 0.37002 0.0
C2704 C 0.33896 0.70403 0.36166 0.0
C2705 C 0.32358 0.70515 0.37102 0.0
H2706 H 0.36788 0.71325 0.36281 0.0
H2707 H 0.22529 0.70752 0.46561 0.0
H2708 H 0.64271 1.00509 0.7057 0.0
H2709 H 0.62307 1.00377 0.6778 0.0
H2710 H 0.66611 0.04168 0.65707 0.0
H2711 H 0.6859 0.043 0.68488 0.0
H2712 H 0.63428 0.05523 0.66032 0.0
H2713 H 0.65369 0.99827 0.63442 0.0
H2714 H 0.65995 0.96588 0.63342 0.0
H2715 H 0.60388 0.94215 0.6374 0.0
H2716 H 0.59733 0.97451 0.63868 0.0
H2717 H 0.60374 0.05412 0.56976 0.0
H2718 H 0.6192 0.04984 0.59782 0.0
H2719 H 0.57043 0.01338 0.61065 0.0
H2720 H 0.55457 0.01725 0.58191 0.0
H2721 H 0.60191 0.99849 0.61344 0.0
H2722 H 0.58302 0.0572 0.63513 0.0
H2723 H 0.57863 0.0898 0.63301 0.0
H2724 H 0.63591 0.1109 0.63451 0.0
H2725 H 0.64065 0.07835 0.63633 0.0
C2726 C 0.64813 0.01269 0.69494 0.0
C2727 C 0.66574 0.02423 0.69741 0.0
C2728 C 0.63692 0.01193 0.67908 0.0
C2729 C 0.64321 0.02275 0.6656 0.0
C2730 C 0.66113 0.0333 0.66746 0.0
C2731 C 0.67241 0.03391 0.68323 0.0
C2732 C 0.63058 0.02453 0.65053 0.0
C2733 C 0.62727 0.04289 0.64996 0.0
C2734 C 0.62117 0.00827 0.6375 0.0
C2735 C 0.62506 0.98884 0.6369 0.0
C2736 C 0.64273 0.98619 0.6353 0.0
C2737 C 0.64633 0.96783 0.63462 0.0
C2738 C 0.63234 0.95198 0.63542 0.0
C2739 C 0.61471 0.95445 0.63683 0.0
C2740 C 0.61104 0.9728 0.63752 0.0
C2741 C 0.59613 0.04522 0.57846 0.0
C2742 C 0.57784 0.03611 0.57367 0.0
C2743 C 0.60502 0.0429 0.59457 0.0
C2744 C 0.5958 0.03162 0.60634 0.0
C2745 C 0.5776 0.02231 0.60168 0.0
C2746 C 0.5686 0.02459 0.58539 0.0
C2747 C 0.60577 0.02921 0.62309 0.0
C2748 C 0.60861 0.01077 0.62403 0.0
C2749 C 0.61495 0.04548 0.63633 0.0
C2750 C 0.61218 0.06527 0.63584 0.0
C2751 C 0.59469 0.06877 0.63495 0.0
C2752 C 0.59213 0.08724 0.63379 0.0
C2753 C 0.60698 0.10241 0.63362 0.0
C2754 C 0.62442 0.09914 0.63467 0.0
C2755 C 0.62705 0.08068 0.63581 0.0
H2756 H 0.60498 0.11669 0.63268 0.0
H2757 H 0.63514 0.93776 0.63488 0.0
H2758 H 0.32755 0.39524 0.96502 0.0
H2759 H 0.32491 0.37646 0.93412 0.0
H2760 H 0.28791 0.32948 0.95089 0.0
H2761 H 0.29171 0.34805 0.98302 0.0
H2762 H 0.30827 0.31517 0.92516 0.0
H2763 H 0.27204 0.36163 0.92703 0.0
H2764 H 0.26509 0.39383 0.93525 0.0
H2765 H 0.30659 0.41747 0.90273 0.0
H2766 H 0.31393 0.38548 0.89448 0.0
H2767 H 0.29176 0.28222 0.82415 0.0
H2768 H 0.29012 0.28991 0.85785 0.0
H2769 H 0.32059 0.34807 0.85853 0.0
H2770 H 0.31986 0.341 0.82487 0.0
H2771 H 0.29561 0.35195 0.8764 0.0
H2772 H 0.33443 0.30346 0.87989 0.0
H2773 H 0.3389 0.26999 0.87285 0.0
H2774 H 0.28852 0.24878 0.89394 0.0
H2775 H 0.2839 0.28206 0.90153 0.0
C2776 C 0.31908 0.3808 0.96249 0.0
C2777 C 0.30982 0.37329 0.97673 0.0
C2778 C 0.31742 0.37006 0.94455 0.0
C2779 C 0.30574 0.35173 0.93983 0.0
C2780 C 0.29689 0.34368 0.95407 0.0
C2781 C 0.29902 0.35433 0.97243 0.0
C2782 C 0.3025 0.34191 0.91981 0.0
C2783 C 0.30539 0.32316 0.91448 0.0
C2784 C 0.2983 0.35199 0.9057 0.0
C2785 C 0.29355 0.37115 0.91017 0.0
C2786 C 0.27969 0.3737 0.92165 0.0
C2787 C 0.2757 0.39192 0.92633 0.0
C2788 C 0.2854 0.40768 0.91953 0.0
C2789 C 0.29907 0.40524 0.90797 0.0
C2790 C 0.30312 0.38706 0.90325 0.0
C2791 C 0.29854 0.29644 0.83169 0.0
C2792 C 0.30649 0.31085 0.82197 0.0
C2793 C 0.29766 0.30088 0.85108 0.0
C2794 C 0.30541 0.31964 0.8612 0.0
C2795 C 0.31427 0.33355 0.85136 0.0
C2796 C 0.31419 0.32943 0.83205 0.0
C2797 C 0.30319 0.32587 0.88151 0.0
C2798 C 0.29876 0.34392 0.88695 0.0
C2799 C 0.30571 0.31499 0.89556 0.0
C2800 C 0.30878 0.29518 0.89116 0.0
C2801 C 0.32433 0.29164 0.88301 0.0
C2802 C 0.32688 0.27273 0.87891 0.0
C2803 C 0.31395 0.2573 0.88275 0.0
C2804 C 0.29851 0.26074 0.89092 0.0
C2805 C 0.29596 0.27961 0.89523 0.0
H2806 H 0.31594 0.24268 0.87947 0.0
H2807 H 0.28232 0.42178 0.9232 0.0
H2808 H 0.93019 0.05547 0.34461 0.0
H2809 H 0.94639 0.05016 0.37156 0.0
H2810 H 0.99669 0.07595 0.35237 0.0
H2811 H 0.98013 0.0785 0.32322 0.0
H2812 H 0.00786 0.05694 0.37266 0.0
H2813 H 0.9668 0.09619 0.39558 0.0
H2814 H 0.9374 0.10508 0.39912 0.0
H2815 H 0.91663 0.05185 0.41778 0.0
H2816 H 0.94585 0.04261 0.41425 0.0
H2817 H 0.05189 0.06274 0.46667 0.0
H2818 H 0.03931 0.06758 0.43658 0.0
H2819 H 0.98668 0.03738 0.44699 0.0
H2820 H 0.99906 0.03395 0.47733 0.0
H2821 H 0.97866 0.06135 0.43149 0.0
H2822 H 0.02202 0.02333 0.40883 0.0
H2823 H 0.05289 0.01783 0.4077 0.0
H2824 H 0.07096 0.07274 0.39115 0.0
H2825 H 0.04022 0.07861 0.39228 0.0
C2826 C 0.94474 0.05992 0.34561 0.0
C2827 C 0.95332 0.06743 0.33077 0.0
C2828 C 0.95431 0.05738 0.36194 0.0
C2829 C 0.97334 0.06353 0.36572 0.0
C2830 C 0.98215 0.0711 0.35087 0.0
C2831 C 0.97249 0.07275 0.33386 0.0
C2832 C 0.98355 0.0617 0.38461 0.0
C2833 C 1.00126 0.05813 0.38541 0.0
C2834 C 0.97591 0.06303 0.4022 0.0
C2835 C 0.95843 0.06866 0.4045 0.0
C2836 C 0.95593 0.08638 0.4004 0.0
C2837 C 0.93931 0.09147 0.4024 0.0
C2838 C 0.92515 0.07901 0.40863 0.0
C2839 C 0.9276 0.06148 0.41295 0.0
C2840 C 0.94419 0.05632 0.41098 0.0
C2841 C 0.03772 0.05668 0.46241 0.0
C2842 C 0.02682 0.04739 0.47484 0.0
C2843 C 0.03029 0.05944 0.44478 0.0
C2844 C 0.01158 0.05267 0.43828 0.0
C2845 C 1.00098 0.04309 0.45075 0.0
C2846 C 0.00826 0.04081 0.4684 0.0
C2847 C 1.00262 0.05595 0.41942 0.0
C2848 C 0.98516 0.05993 0.41868 0.0
C2849 C 0.01064 0.05533 0.40209 0.0
C2850 C 0.02887 0.05143 0.40072 0.0
C2851 C 0.03258 0.0342 0.40491 0.0
C2852 C 0.05006 0.03104 0.40432 0.0
C2853 C 0.06389 0.04494 0.3994 0.0
C2854 C 0.06025 0.06199 0.39496 0.0
C2855 C 0.04279 0.06522 0.39553 0.0
H2856 H 0.07742 0.0425 0.39902 0.0
H2857 H 0.91228 0.08297 0.41013 0.0
H2858 H 0.30696 0.70963 0.56605 0.0
H2859 H 0.30429 0.72851 0.59616 0.0
H2860 H 0.28021 0.67619 0.61538 0.0
H2861 H 0.28232 0.65709 0.58487 0.0
H2862 H 0.26158 0.70377 0.62405 0.0
H2863 H 0.32387 0.70013 0.62977 0.0
H2864 H 0.35476 0.70321 0.62021 0.0
H2865 H 0.35958 0.76409 0.62192 0.0
H2866 H 0.32861 0.76132 0.63125 0.0
H2867 H 0.27474 0.73915 0.7207 0.0
H2868 H 0.27267 0.72298 0.68857 0.0
H2869 H 0.29549 0.77741 0.67242 0.0
H2870 H 0.2977 0.79386 0.70481 0.0
H2871 H 0.31391 0.75017 0.66133 0.0
H2872 H 0.25204 0.75397 0.65819 0.0
H2873 H 0.22149 0.75058 0.66867 0.0
H2874 H 0.21597 0.68916 0.66304 0.0
H2875 H 0.24662 0.6922 0.6528 0.0
C2876 C 0.30131 0.70206 0.57673 0.0
C2877 C 0.29492 0.68186 0.57316 0.0
C2878 C 0.29981 0.7129 0.59394 0.0
C2879 C 0.2922 0.70371 0.608 0.0
C2880 C 0.28612 0.6835 0.60464 0.0
C2881 C 0.28748 0.67262 0.58731 0.0
C2882 C 0.29028 0.71536 0.62607 0.0
C2883 C 0.27303 0.71375 0.63235 0.0
C2884 C 0.30518 0.72877 0.63652 0.0
C2885 C 0.32386 0.73048 0.63104 0.0
C2886 C 0.33147 0.71415 0.62798 0.0
C2887 C 0.349 0.71584 0.62262 0.0
C2888 C 0.35911 0.73382 0.62041 0.0
C2889 C 0.35172 0.75016 0.62361 0.0
C2890 C 0.33419 0.74854 0.62895 0.0
C2891 C 0.27905 0.74782 0.71033 0.0
C2892 C 0.28686 0.76772 0.71535 0.0
C2893 C 0.27771 0.73853 0.69192 0.0
C2894 C 0.28391 0.74902 0.67817 0.0
C2895 C 0.29069 0.7691 0.68292 0.0
C2896 C 0.29202 0.77844 0.7014 0.0
C2897 C 0.28522 0.73857 0.65938 0.0
C2898 C 0.3024 0.74034 0.65296 0.0
C2899 C 0.27027 0.72527 0.6489 0.0
C2900 C 0.2517 0.72334 0.65482 0.0
C2901 C 0.24437 0.73975 0.65929 0.0
C2902 C 0.22702 0.73789 0.66518 0.0
C2903 C 0.2168 0.71967 0.66655 0.0
C2904 C 0.2239 0.70327 0.66198 0.0
C2905 C 0.24126 0.70505 0.6561 0.0
H2906 H 0.20338 0.71827 0.67112 0.0
H2907 H 0.37268 0.7351 0.61626 0.0
H2908 H 0.69162 0.07556 0.81847 0.0
H2909 H 0.67135 0.07553 0.84307 0.0
H2910 H 0.64009 0.01946 0.81552 0.0
H2911 H 0.65958 0.02028 0.79006 0.0
H2912 H 0.61839 0.03922 0.82651 0.0
H2913 H 0.67031 0.02721 0.8568 0.0
H2914 H 0.70264 0.03205 0.86677 0.0
H2915 H 0.7026 0.08797 0.89851 0.0
H2916 H 0.67032 0.08363 0.88847 0.0
H2917 H 0.5736 0.0291 0.90994 0.0
H2918 H 0.5956 0.02413 0.88733 0.0
H2919 H 0.61227 0.08589 0.89062 0.0
H2920 H 0.59 0.09091 0.91296 0.0
H2921 H 0.64105 0.05936 0.89328 0.0
H2922 H 0.58861 0.07031 0.8568 0.0
H2923 H 0.55581 0.06232 0.84793 0.0
H2924 H 0.55721 1.00277 0.82941 0.0
H2925 H 0.59002 0.0104 0.83843 0.0
C2926 C 0.68045 0.06323 0.81773 0.0
C2927 C 0.67708 0.04793 0.80247 0.0
C2928 C 0.66897 0.06311 0.83187 0.0
C2929 C 0.65443 0.04727 0.83139 0.0
C2930 C 0.65124 0.03182 0.81622 0.0
C2931 C 0.66236 0.03226 0.80174 0.0
C2932 C 0.64208 0.04733 0.84626 0.0
C2933 C 0.62344 0.04329 0.84109 0.0
C2934 C 0.64855 0.05261 0.86535 0.0
C2935 C 0.66789 0.05513 0.87179 0.0
C2936 C 0.6772 0.04058 0.86584 0.0
C2937 C 0.69553 0.04324 0.8715 0.0
C2938 C 0.70468 0.06032 0.88324 0.0
C2939 C 0.6955 0.07475 0.8894 0.0
C2940 C 0.67717 0.07219 0.88376 0.0
C2941 C 0.58189 0.04154 0.90567 0.0
C2942 C 0.58004 0.06035 0.91277 0.0
C2943 C 0.59447 0.03871 0.89297 0.0
C2944 C 0.60545 0.05468 0.88755 0.0
C2945 C 0.60386 0.07348 0.89485 0.0
C2946 C 0.59105 0.07631 0.90731 0.0
C2947 C 0.61781 0.0517 0.87327 0.0
C2948 C 0.63628 0.0551 0.87863 0.0
C2949 C 0.61123 0.04532 0.85443 0.0
C2950 C 0.59169 0.04089 0.8484 0.0
C2951 C 0.58189 0.0555 0.85092 0.0
C2952 C 0.56331 0.05104 0.84586 0.0
C2953 C 0.55442 0.03204 0.83814 0.0
C2954 C 0.56412 0.01748 0.83539 0.0
C2955 C 0.5827 0.02187 0.84045 0.0
H2956 H 0.54003 0.02861 0.83427 0.0
H2957 H 0.71887 0.06235 0.88758 0.0
H2958 H 0.29806 0.34235 0.07186 0.0
H2959 H 0.29496 0.33072 0.1013 0.0
H2960 H 0.3036 0.38964 0.13074 0.0
H2961 H 0.30763 0.40129 0.10142 0.0
H2962 H 0.32056 0.37305 0.1502 0.0
H2963 H 0.26005 0.35437 0.12218 0.0
H2964 H 0.23483 0.33904 0.09821 0.0
H2965 H 0.24584 0.28323 0.10022 0.0
H2966 H 0.27129 0.29826 0.12405 0.0
H2967 H 0.29221 0.34605 0.23591 0.0
H2968 H 0.29285 0.35856 0.20668 0.0
H2969 H 0.29526 0.30234 0.1766 0.0
H2970 H 0.2951 0.29001 0.20561 0.0
H2971 H 0.27175 0.31808 0.15816 0.0
H2972 H 0.33238 0.33957 0.1887 0.0
H2973 H 0.35579 0.35712 0.21394 0.0
H2974 H 0.34124 0.4106 0.20896 0.0
H2975 H 0.3177 0.39347 0.18378 0.0
C2976 C 0.2992 0.35283 0.08459 0.0
C2977 C 0.30304 0.37278 0.08419 0.0
C2978 C 0.2973 0.34614 0.10151 0.0
C2979 C 0.2987 0.35919 0.11849 0.0
C2980 C 0.30244 0.37914 0.11801 0.0
C2981 C 0.30467 0.38583 0.10115 0.0
C2982 C 0.29684 0.3522 0.13674 0.0
C2983 C 0.30966 0.36123 0.15192 0.0
C2984 C 0.28283 0.33657 0.13925 0.0
C2985 C 0.26771 0.32748 0.12475 0.0
C2986 C 0.2572 0.33885 0.11738 0.0
C2987 C 0.24284 0.33021 0.10385 0.0
C2988 C 0.23877 0.31018 0.09766 0.0
C2989 C 0.24903 0.29874 0.10501 0.0
C2990 C 0.26342 0.30732 0.11854 0.0
C2991 C 0.29268 0.33631 0.22304 0.0
C2992 C 0.293 0.31683 0.22314 0.0
C2993 C 0.29312 0.3435 0.20631 0.0
C2994 C 0.2941 0.33142 0.18931 0.0
C2995 C 0.29427 0.31194 0.1894 0.0
C2996 C 0.29391 0.3048 0.20607 0.0
C2997 C 0.29539 0.33899 0.17145 0.0
C2998 C 0.28253 0.32999 0.15635 0.0
C2999 C 0.30908 0.35496 0.16917 0.0
C3000 C 0.32322 0.3652 0.18439 0.0
C3001 C 0.33412 0.35506 0.19303 0.0
C3002 C 0.3474 0.36491 0.20733 0.0
C3003 C 0.34994 0.38489 0.21308 0.0
C3004 C 0.33924 0.39511 0.20451 0.0
C3005 C 0.32595 0.38535 0.1902 0.0
H3006 H 0.36023 0.39247 0.22415 0.0
H3007 H 0.22764 0.30351 0.08719 0.0
H3008 H 0.28256 0.98596 0.02134 0.0
H3009 H 0.2541 0.99411 0.02869 0.0
H3010 H 0.22848 0.93346 0.02135 0.0
H3011 H 0.2576 0.92505 0.01469 0.0
H3012 H 0.21434 0.96546 0.99964 0.0
H3013 H 0.22523 0.94626 0.05802 0.0
H3014 H 0.24408 0.94384 0.08557 0.0
H3015 H 0.25794 1.0058 0.10117 0.0
H3016 H 0.23944 0.00861 0.07352 0.0
H3017 H 0.14154 0.00812 0.03732 0.0
H3018 H 0.16098 0.98549 0.02953 0.0
H3019 H 0.20798 0.03235 0.0442 0.0
H3020 H 0.18868 0.05537 0.05113 0.0
H3021 H 0.20535 0.99803 0.06262 0.0
H3022 H 0.20114 0.01811 1.00323 0.0
H3023 H 0.18641 0.02309 0.97421 0.0
H3024 H 0.16315 0.96213 0.95939 0.0
H3025 H 0.17753 0.95684 0.98851 0.0
C3026 C 0.27099 0.97432 0.02153 0.0
C3027 C 0.2722 0.9549 0.01756 0.0
C3028 C 0.25478 0.979 0.02571 0.0
C3029 C 0.23942 0.96435 0.02558 0.0
C3030 C 0.24039 0.94486 0.02159 0.0
C3031 C 0.2569 0.94013 0.01788 0.0
C3032 C 0.22245 0.97018 0.02895 0.0
C3033 C 0.21176 0.97191 0.01344 0.0
C3034 C 0.21985 0.97917 0.04693 0.0
C3035 C 0.23099 0.97762 0.06364 0.0
C3036 C 0.23242 0.95937 0.06723 0.0
C3037 C 0.24302 0.95794 0.08289 0.0
C3038 C 0.25221 0.97466 0.09511 0.0
C3039 C 0.25081 0.99286 0.0917 0.0
C3040 C 0.24024 0.99438 0.07605 0.0
C3041 C 0.156 0.01372 0.03856 0.0
C3042 C 0.1636 0.03356 0.04488 0.0
C3043 C 0.16702 1.00074 0.03415 0.0
C3044 C 0.18575 0.00739 0.03629 0.0
C3045 C 0.19345 0.0271 0.04253 0.0
C3046 C 0.18244 0.04015 0.04666 0.0
C3047 C 0.19746 0.99363 0.03327 0.0
C3048 C 0.20723 0.99074 0.04888 0.0
C3049 C 0.19939 0.98384 0.01534 0.0
C3050 C 0.19007 0.98714 0.99827 0.0
C3051 C 0.19259 1.00582 0.99398 0.0
C3052 C 0.1844 0.00869 0.97745 0.0
C3053 C 0.17376 0.99296 0.96502 0.0
C3054 C 0.17131 0.97432 0.96908 0.0
C3055 C 0.17947 0.97138 0.9856 0.0
H3056 H 0.16748 0.99519 0.9522 0.0
H3057 H 0.2604 0.97352 0.10723 0.0
H3058 H 0.73177 0.68488 0.98967 0.0
H3059 H 0.70147 0.66438 0.98968 0.0
H3060 H 0.7248 0.62413 0.015 0.0
H3061 H 0.75491 0.64481 0.01541 0.0
H3062 H 0.69823 0.60552 0.98612 0.0
H3063 H 0.7055 0.65375 0.04151 0.0
H3064 H 0.71265 0.68723 0.05913 0.0
H3065 H 0.66949 0.70032 0.02717 0.0
H3066 H 0.66206 0.66689 0.00925 0.0
H3067 H 0.61886 0.55032 0.01421 0.0
H3068 H 0.64882 0.56979 0.01178 0.0
H3069 H 0.6248 0.61621 0.99975 0.0
H3070 H 0.59495 0.59709 1.00353 0.0
H3071 H 0.6522 0.63177 0.02109 0.0
H3072 H 0.64364 0.58251 0.96615 0.0
H3073 H 0.63713 0.54914 0.94833 0.0
H3074 H 0.68329 0.53819 0.97736 0.0
H3075 H 0.68989 0.57137 0.99562 0.0
C3076 C 0.73037 0.67159 0.99511 0.0
C3077 C 0.74569 0.66605 1.00194 0.0
C3078 C 0.71309 0.6599 0.99514 0.0
C3079 C 0.71083 0.64262 1.00226 0.0
C3080 C 0.72617 0.63723 0.00923 0.0
C3081 C 0.74338 0.64898 0.00935 0.0
C3082 C 0.69248 0.63051 1.00309 0.0
C3083 C 0.68816 0.6112 0.99376 0.0
C3084 C 0.67925 0.63795 0.01296 0.0
C3085 C 0.68333 0.65788 0.02396 0.0
C3086 C 0.69756 0.66379 0.03819 0.0
C3087 C 0.70163 0.68273 0.04825 0.0
C3088 C 0.6915 0.69587 0.04426 0.0
C3089 C 0.67724 0.69007 0.03025 0.0
C3090 C 0.67307 0.67113 0.02017 0.0
C3091 C 0.61999 0.56452 0.01071 0.0
C3092 C 0.60459 0.57205 0.00864 0.0
C3093 C 0.63717 0.57571 0.00928 0.0
C3094 C 0.63927 0.59445 1.00509 0.0
C3095 C 0.62373 0.60185 1.00292 0.0
C3096 C 0.60663 0.59088 1.00493 0.0
C3097 C 0.6576 0.60663 1.00364 0.0
C3098 C 0.66204 0.62602 0.01305 0.0
C3099 C 0.6709 0.59925 0.99363 0.0
C3100 C 0.66712 0.57938 0.98242 0.0
C3101 C 0.65233 0.57295 0.96882 0.0
C3102 C 0.64863 0.55406 0.95864 0.0
C3103 C 0.65975 0.54153 0.96176 0.0
C3104 C 0.67466 0.5479 0.975 0.0
C3105 C 0.67838 0.56674 0.98527 0.0
H3106 H 0.65684 0.52691 0.95388 0.0
H3107 H 0.69469 0.71055 0.05202 0.0
H3108 H 0.72667 0.48186 0.2838 0.0
H3109 H 0.74052 0.45423 0.28216 0.0
H3110 H 0.68996 0.41619 0.25921 0.0
H3111 H 0.67583 0.44448 0.26025 0.0
H3112 H 0.70912 0.4005 0.28819 0.0
H3113 H 0.72655 0.42543 0.23214 0.0
H3114 H 0.74032 0.45151 0.21586 0.0
H3115 H 0.7902 0.46075 0.24986 0.0
H3116 H 0.77667 0.43489 0.26647 0.0
H3117 H 0.74898 0.31768 0.28017 0.0
H3118 H 0.73277 0.3425 0.2765 0.0
H3119 H 0.78161 0.37912 0.26447 0.0
H3120 H 0.7968 0.35247 0.26465 0.0
H3121 H 0.76267 0.39659 0.25352 0.0
H3122 H 0.74983 0.37975 0.31214 0.0
H3123 H 0.74005 0.35813 0.33429 0.0
H3124 H 0.6873 0.33983 0.3048 0.0
H3125 H 0.69688 0.36134 0.28233 0.0
C3126 C 0.71818 0.46781 0.27801 0.0
C3127 C 0.69971 0.46641 0.2719 0.0
C3128 C 0.72641 0.45156 0.27715 0.0
C3129 C 0.71684 0.43224 0.27048 0.0
C3130 C 0.69825 0.4305 0.26447 0.0
C3131 C 0.69 0.44703 0.26493 0.0
C3132 C 0.72639 0.41456 0.27001 0.0
C3133 C 0.72062 0.39961 0.28023 0.0
C3134 C 0.74237 0.41306 0.26086 0.0
C3135 C 0.75057 0.42829 0.25059 0.0
C3136 C 0.74043 0.43308 0.23618 0.0
C3137 C 0.7482 0.44782 0.22689 0.0
C3138 C 0.76612 0.4578 0.23183 0.0
C3139 C 0.77633 0.45301 0.24603 0.0
C3140 C 0.76863 0.43829 0.25536 0.0
C3141 C 0.75651 0.33086 0.27649 0.0
C3142 C 0.77501 0.33234 0.27335 0.0
C3143 C 0.74704 0.3459 0.27497 0.0
C3144 C 0.75551 0.36453 0.27155 0.0
C3145 C 0.77392 0.3658 0.2677 0.0
C3146 C 0.78312 0.35018 0.26814 0.0
C3147 C 0.74536 0.38195 0.27157 0.0
C3148 C 0.75111 0.39709 0.2614 0.0
C3149 C 0.72999 0.38429 0.28173 0.0
C3150 C 0.72406 0.37195 0.29549 0.0
C3151 C 0.73614 0.37113 0.31039 0.0
C3152 C 0.73066 0.35888 0.32296 0.0
C3153 C 0.71308 0.34757 0.32088 0.0
C3154 C 0.70091 0.34859 0.30632 0.0
C3155 C 0.70633 0.3608 0.29369 0.0
H3156 H 0.70887 0.33805 0.33059 0.0
H3157 H 0.77209 0.46922 0.22465 0.0
H3158 H 0.86105 0.48207 0.52536 0.0
H3159 H 0.8919 0.49991 0.52369 0.0
H3160 H 0.90405 0.4484 0.49262 0.0
H3161 H 0.87281 0.43075 0.49343 0.0
H3162 H 0.92173 0.46414 0.53063 0.0
H3163 H 0.9188 0.48132 0.47047 0.0
H3164 H 0.91423 0.49556 0.4427 0.0
H3165 H 0.91834 0.55106 0.4773 0.0
H3166 H 0.92318 0.53717 0.50525 0.0
H3167 H 0.01369 0.49263 0.52358 0.0
H3168 H 0.98116 0.48192 0.51482 0.0
H3169 H 0.97336 0.53694 0.54298 0.0
H3170 H 0.00585 0.54752 0.55195 0.0
H3171 H 0.95311 0.52218 0.50761 0.0
H3172 H 0.96425 0.50348 0.56534 0.0
H3173 H 0.98199 0.49013 0.58694 0.0
H3174 H 0.96831 0.43469 0.55064 0.0
H3175 H 0.95073 0.44781 0.52863 0.0
C3176 C 0.87007 0.47487 0.51737 0.0
C3177 C 0.86455 0.45528 0.50906 0.0
C3178 C 0.88763 0.48506 0.51637 0.0
C3179 C 0.90007 0.47555 0.50767 0.0
C3180 C 0.89445 0.45607 0.49895 0.0
C3181 C 0.87677 0.44597 0.49965 0.0
C3182 C 0.91941 0.4842 0.5122 0.0
C3183 C 0.92869 0.47656 0.5252 0.0
C3184 C 0.92825 0.50088 0.50577 0.0
C3185 C 0.9208 0.50806 0.48997 0.0
C3186 C 0.91814 0.49641 0.47219 0.0
C3187 C 0.91589 0.50452 0.4564 0.0
C3188 C 0.91592 0.52418 0.45823 0.0
C3189 C 0.91822 0.53581 0.47588 0.0
C3190 C 0.92065 0.52781 0.49171 0.0
C3191 C 0.00501 0.50252 0.52745 0.0
C3192 C 0.01209 0.52103 0.5378 0.0
C3193 C 0.98655 0.4964 0.52266 0.0
C3194 C 0.97505 0.50867 0.52842 0.0
C3195 C 0.98216 0.5274 0.53838 0.0
C3196 C 1.00064 0.53343 0.54339 0.0
C3197 C 0.95552 0.50135 0.52476 0.0
C3198 C 0.9461 0.50958 0.51264 0.0
C3199 C 0.94671 0.48496 0.53155 0.0
C3200 C 0.9562 0.47663 0.54532 0.0
C3201 C 0.96501 0.48843 0.56197 0.0
C3202 C 0.97507 0.48093 0.57426 0.0
C3203 C 0.97629 0.46159 0.57015 0.0
C3204 C 0.96733 0.44967 0.5538 0.0
C3205 C 0.95728 0.45712 0.54143 0.0
H3206 H 0.98417 0.45583 0.57965 0.0
H3207 H 0.91416 0.53041 0.44598 0.0
H3208 H 0.41368 0.10585 0.29741 0.0
H3209 H 0.40116 0.13283 0.29068 0.0
H3210 H 0.35505 0.11408 0.32017 0.0
H3211 H 0.36737 0.08726 0.32717 0.0
H3212 H 0.348 0.11444 0.28149 0.0
H3213 H 0.37904 0.15506 0.33728 0.0
H3214 H 0.40545 0.17023 0.35982 0.0
H3215 H 0.43183 0.19861 0.31831 0.0
H3216 H 0.40567 0.18335 0.29542 0.0
H3217 H 0.30231 0.18407 0.25927 0.0
H3218 H 0.31735 0.16706 0.27937 0.0
H3219 H 0.36706 0.18378 0.25452 0.0
H3220 H 0.35208 0.20088 0.23438 0.0
H3221 H 0.37137 0.18569 0.29387 0.0
H3222 H 0.34323 0.1429 0.23754 0.0
H3223 H 0.31847 0.12642 0.21343 0.0
H3224 H 0.28839 0.10058 0.25425 0.0
H3225 H 0.31286 0.11724 0.27871 0.0
C3226 C 0.40112 0.10777 0.30289 0.0
C3227 C 0.39137 0.09426 0.31254 0.0
C3228 C 0.39407 0.12322 0.29913 0.0
C3229 C 0.37724 0.12524 0.30495 0.0
C3230 C 0.36811 0.11265 0.31569 0.0
C3231 C 0.3752 0.09734 0.31962 0.0
C3232 C 0.36789 0.13842 0.29729 0.0
C3233 C 0.35281 0.13006 0.28451 0.0
C3234 C 0.37473 0.15863 0.30085 0.0
C3235 C 0.39044 0.16795 0.31459 0.0
C3236 C 0.39053 0.16441 0.33291 0.0
C3237 C 0.40545 0.17305 0.34576 0.0
C3238 C 0.42032 0.18535 0.34049 0.0
C3239 C 0.42029 0.18907 0.32237 0.0
C3240 C 0.40541 0.18045 0.30945 0.0
C3241 C 0.31652 0.18436 0.25834 0.0
C3242 C 0.32608 0.1935 0.24521 0.0
C3243 C 0.32504 0.17469 0.26978 0.0
C3244 C 0.34319 0.17418 0.26823 0.0
C3245 C 0.35302 0.18414 0.25583 0.0
C3246 C 0.34445 0.19366 0.24426 0.0
C3247 C 0.35143 0.16167 0.27818 0.0
C3248 C 0.36636 0.1701 0.29118 0.0
C3249 C 0.34462 0.14142 0.27466 0.0
C3250 C 0.32975 0.13161 0.26003 0.0
C3251 C 0.33123 0.13394 0.24144 0.0
C3252 C 0.31727 0.12452 0.2277 0.0
C3253 C 0.30183 0.11253 0.23232 0.0
C3254 C 0.30033 0.10993 0.25071 0.0
C3255 C 0.31423 0.11938 0.26452 0.0
H3256 H 0.29106 0.10521 0.22166 0.0
H3257 H 0.43186 0.19203 0.35047 0.0
H3258 H 0.32996 0.1362 0.49609 0.0
H3259 H 0.35785 0.12672 0.50326 0.0
H3260 H 0.38297 0.18567 0.52814 0.0
H3261 H 0.35451 0.19555 0.52124 0.0
H3262 H 0.40308 0.15748 0.49879 0.0
H3263 H 0.3789 0.16747 0.55832 0.0
H3264 H 0.35426 0.16547 0.57893 0.0
H3265 H 0.3411 0.10352 0.5632 0.0
H3266 H 0.36549 0.10519 0.54224 0.0
H3267 H 0.47291 0.11498 0.53836 0.0
H3268 H 0.45309 0.13683 0.53279 0.0
H3269 H 0.40698 0.08868 0.52411 0.0
H3270 H 0.42653 0.06697 0.52942 0.0
H3271 H 0.40139 0.11869 0.54891 0.0
H3272 H 0.42656 0.10897 0.48988 0.0
H3273 H 0.45167 0.11111 0.46999 0.0
H3274 H 0.46295 0.17312 0.48355 0.0
H3275 H 0.43874 0.1714 0.50469 0.0
C3276 C 0.34133 0.14736 0.503 0.0
C3277 C 0.33983 0.16673 0.50812 0.0
C3278 C 0.35736 0.14182 0.50702 0.0
C3279 C 0.37252 0.15545 0.51611 0.0
C3280 C 0.37142 0.17494 0.52098 0.0
C3281 C 0.35512 0.18053 0.51716 0.0
C3282 C 0.38876 0.14846 0.52148 0.0
C3283 C 0.40307 0.14946 0.51008 0.0
C3284 C 0.38848 0.13763 0.53591 0.0
C3285 C 0.37392 0.13648 0.5486 0.0
C3286 C 0.37064 0.15344 0.55913 0.0
C3287 C 0.35675 0.15236 0.5709 0.0
C3288 C 0.3461 0.13438 0.57234 0.0
C3289 C 0.34936 0.11743 0.56205 0.0
C3290 C 0.36323 0.11844 0.55024 0.0
C3291 C 0.45858 0.10904 0.53497 0.0
C3292 C 0.45129 0.08924 0.53463 0.0
C3293 C 0.44725 0.12156 0.53187 0.0
C3294 C 0.42847 0.11447 0.52824 0.0
C3295 C 0.42136 0.0946 0.52716 0.0
C3296 C 0.43259 0.08217 0.53022 0.0
C3297 C 0.41582 0.12744 0.52612 0.0
C3298 C 0.4019 0.12724 0.53799 0.0
C3299 C 0.41665 0.13907 0.51219 0.0
C3300 C 0.43098 0.14004 0.49916 0.0
C3301 C 0.43454 0.12308 0.48888 0.0
C3302 C 0.4486 0.12421 0.47732 0.0
C3303 C 0.45879 0.14222 0.47534 0.0
C3304 C 0.45505 0.15916 0.48509 0.0
C3305 C 0.44125 0.15812 0.49699 0.0
H3306 H 0.46958 0.14304 0.46627 0.0
H3307 H 0.33535 0.13357 0.58147 0.0
H3308 H 0.72343 0.56287 0.27242 0.0
H3309 H 0.74071 0.59608 0.27383 0.0
H3310 H 0.69363 0.61766 0.28783 0.0
H3311 H 0.67655 0.58446 0.28687 0.0
H3312 H 0.70737 0.6363 0.26317 0.0
H3313 H 0.74686 0.64334 0.32629 0.0
H3314 H 0.77066 0.63719 0.34716 0.0
H3315 H 0.79485 0.61283 0.29991 0.0
H3316 H 0.77158 0.61961 0.27882 0.0
H3317 H 0.7494 0.73844 0.28022 0.0
H3318 H 0.73342 0.70534 0.28099 0.0
H3319 H 0.78316 0.68629 0.27501 0.0
H3320 H 0.79922 0.71959 0.27535 0.0
H3321 H 0.76818 0.66611 0.29508 0.0
H3322 H 0.74105 0.67738 0.23879 0.0
H3323 H 0.72488 0.69407 0.21896 0.0
H3324 H 0.67932 0.68524 0.25115 0.0
H3325 H 0.69531 0.66872 0.27133 0.0
C3326 C 0.71691 0.57467 0.27668 0.0
C3327 C 0.69855 0.5705 0.28033 0.0
C3328 C 0.72692 0.59401 0.27737 0.0
C3329 C 0.71899 0.61024 0.28135 0.0
C3330 C 0.70057 0.60597 0.28486 0.0
C3331 C 0.69067 0.5867 0.28436 0.0
C3332 C 0.72903 0.63119 0.2804 0.0
C3333 C 0.72062 0.64272 0.27039 0.0
C3334 C 0.74668 0.6403 0.28908 0.0
C3335 C 0.75707 0.63119 0.30104 0.0
C3336 C 0.75692 0.63608 0.32041 0.0
C3337 C 0.77061 0.63301 0.33225 0.0
C3338 C 0.78429 0.62465 0.32486 0.0
C3339 C 0.78423 0.61924 0.30562 0.0
C3340 C 0.77078 0.62268 0.29372 0.0
C3341 C 0.75706 0.72727 0.27913 0.0
C3342 C 0.77592 0.73226 0.27785 0.0
C3343 C 0.74771 0.70795 0.2793 0.0
C3344 C 0.75659 0.69237 0.27761 0.0
C3345 C 0.77549 0.69744 0.27639 0.0
C3346 C 0.78489 0.71683 0.2766 0.0
C3347 C 0.74666 0.6712 0.27783 0.0
C3348 C 0.75498 0.6597 0.28772 0.0
C3349 C 0.7291 0.6621 0.26878 0.0
C3350 C 0.71945 0.67199 0.25668 0.0
C3351 C 0.72763 0.67911 0.24171 0.0
C3352 C 0.71849 0.68853 0.2304 0.0
C3353 C 0.7011 0.69076 0.23382 0.0
C3354 C 0.6928 0.68353 0.24853 0.0
C3355 C 0.70189 0.67413 0.25991 0.0
H3356 H 0.69405 0.69805 0.22505 0.0
H3357 H 0.79485 0.62223 0.33405 0.0
H3358 H 0.86935 0.50271 0.79118 0.0
H3359 H 0.84913 0.47077 0.78645 0.0
H3360 H 0.89071 0.44874 0.81226 0.0
H3361 H 0.91041 0.48128 0.81865 0.0
H3362 H 0.8708 0.44016 0.76573 0.0
H3363 H 0.87054 0.43195 0.83066 0.0
H3364 H 0.86521 0.4382 0.86375 0.0
H3365 H 0.80993 0.43818 0.84872 0.0
H3366 H 0.81513 0.43245 0.81546 0.0
H3367 H 0.85261 0.34025 0.75944 0.0
H3368 H 0.86194 0.37552 0.76724 0.0
H3369 H 0.80606 0.37937 0.76647 0.0
H3370 H 0.79674 0.34384 0.75825 0.0
H3371 H 0.82738 0.39931 0.79864 0.0
H3372 H 0.82891 0.39494 0.73362 0.0
H3373 H 0.83607 0.3828 0.70198 0.0
H3374 H 0.89271 0.40151 0.71947 0.0
H3375 H 0.88595 0.41341 0.75128 0.0
C3376 C 0.87367 0.49135 0.79701 0.0
C3377 C 0.89102 0.49448 0.80603 0.0
C3378 C 0.86219 0.47314 0.7942 0.0
C3379 C 0.86826 0.45768 0.79962 0.0
C3380 C 0.88553 0.46077 0.80883 0.0
C3381 C 0.89683 0.47919 0.81219 0.0
C3382 C 0.85854 0.43803 0.79137 0.0
C3383 C 0.86147 0.43104 0.773 0.0
C3384 C 0.84603 0.42665 0.80077 0.0
C3385 C 0.84341 0.43251 0.8206 0.0
C3386 C 0.85744 0.434 0.8344 0.0
C3387 C 0.85437 0.43716 0.85319 0.0
C3388 C 0.83727 0.43874 0.85835 0.0
C3389 C 0.8232 0.43711 0.84472 0.0
C3390 C 0.82624 0.43403 0.82589 0.0
C3391 C 0.8424 0.34873 0.76086 0.0
C3392 C 0.82409 0.33972 0.75911 0.0
C3393 C 0.84767 0.36875 0.76511 0.0
C3394 C 0.83463 0.37989 0.76723 0.0
C3395 C 0.81623 0.37087 0.7648 0.0
C3396 C 0.81096 0.35074 0.76038 0.0
C3397 C 0.84061 0.40082 0.77366 0.0
C3398 C 0.83673 0.40836 0.79147 0.0
C3399 C 0.85279 0.41237 0.76404 0.0
C3400 C 0.8569 0.40511 0.74488 0.0
C3401 C 0.8429 0.39635 0.73077 0.0
C3402 C 0.84689 0.38951 0.71279 0.0
C3403 C 0.86483 0.39147 0.70874 0.0
C3404 C 0.87882 0.40009 0.72264 0.0
C3405 C 0.87492 0.4069 0.74063 0.0
H3406 H 0.86795 0.38642 0.69481 0.0
H3407 H 0.8349 0.44112 0.87291 0.0
H3408 H 0.1064 0.86502 0.08452 0.0
H3409 H 0.10363 0.89392 0.07169 0.0
H3410 H 0.05339 0.89376 0.09624 0.0
H3411 H 0.05605 0.8648 0.10861 0.0
H3412 H 0.04862 0.89804 0.06213 0.0
H3413 H 0.0965 0.92924 0.1115 0.0
H3414 H 0.12675 0.93411 0.12789 0.0
H3415 H 0.15122 0.94462 0.07802 0.0
H3416 H 0.12112 0.93959 0.06129 0.0
H3417 H 0.05673 1.00624 0.07046 0.0
H3418 H 0.05997 0.97543 0.07849 0.0
H3419 H 0.06642 0.95403 0.02128 0.0
H3420 H 0.06269 0.98504 0.01303 0.0
H3421 H 0.09437 0.95952 0.06831 0.0
H3422 H 0.04905 0.92119 0.01739 0.0
H3423 H 0.01986 0.90922 0.99842 0.0
H3424 H 0.99223 0.90892 0.04802 0.0
H3425 H 0.02135 0.92106 0.06727 0.0
C3426 C 0.09513 0.87161 0.08775 0.0
C3427 C 0.08177 0.86292 0.0982 0.0
C3428 C 0.09344 0.88815 0.08026 0.0
C3429 C 0.07832 0.89647 0.08298 0.0
C3430 C 0.06523 0.88793 0.09381 0.0
C3431 C 0.06689 0.87144 0.10117 0.0
C3432 C 0.07535 0.91321 0.07387 0.0
C3433 C 0.05869 0.9115 0.06366 0.0
C3434 C 0.08853 0.93073 0.07498 0.0
C3435 C 0.10657 0.93387 0.08512 0.0
C3436 C 0.10833 0.93247 0.10401 0.0
C3437 C 0.12545 0.93528 0.11336 0.0
C3438 C 0.14089 0.93962 0.10399 0.0
C3439 C 0.13925 0.94123 0.08526 0.0
C3440 C 0.12217 0.93842 0.07585 0.0
C3441 C 0.0584 0.99484 0.05942 0.0
C3442 C 0.05926 0.99821 0.04104 0.0
C3443 C 0.06029 0.97713 0.06408 0.0
C3444 C 0.06328 0.96206 0.05059 0.0
C3445 C 0.06372 0.9651 0.03201 0.0
C3446 C 0.06161 0.98292 0.02725 0.0
C3447 C 0.06761 0.9443 0.05673 0.0
C3448 C 0.08442 0.94596 0.06666 0.0
C3449 C 0.05479 0.92651 0.05496 0.0
C3450 C 0.0373 0.92255 0.04372 0.0
C3451 C 0.03671 0.91917 0.02423 0.0
C3452 C 0.0202 0.91205 0.01344 0.0
C3453 C 1.0042 0.90819 0.022 0.0
C3454 C 0.00464 0.91183 0.0414 0.0
C3455 C 0.02113 0.91892 0.05225 0.0
H3456 H 0.99144 0.9026 0.01362 0.0
H3457 H 0.15412 0.94179 0.11125 0.0
H3458 H 0.97878 0.25673 0.87423 0.0
H3459 H 0.95181 0.25934 0.8563 0.0
H3460 H 0.93118 0.28106 0.90741 0.0
H3461 H 0.95966 0.2819 0.92454 0.0
H3462 H 0.92153 0.24559 0.84951 0.0
H3463 H 0.89951 0.28998 0.90609 0.0
H3464 H 0.90714 0.31806 0.932 0.0
H3465 H 0.94204 0.35018 0.89843 0.0
H3466 H 0.93404 0.32221 0.87228 0.0
H3467 H 0.83669 0.25361 0.80522 0.0
H3468 H 0.86028 0.24818 0.82669 0.0
H3469 H 0.88976 0.30699 0.82946 0.0
H3470 H 0.86614 0.31243 0.80868 0.0
H3471 H 0.89115 0.30021 0.86239 0.0
H3472 H 0.90247 0.26284 0.8037 0.0
H3473 H 0.89285 0.2373 0.77582 0.0
H3474 H 0.87761 0.19497 0.81043 0.0
H3475 H 0.88725 0.22029 0.83851 0.0
C3476 C 0.96891 0.26321 0.88144 0.0
C3477 C 0.97219 0.27062 0.90062 0.0
C3478 C 0.95301 0.26422 0.8712 0.0
C3479 C 0.93905 0.27148 0.87993 0.0
C3480 C 0.94176 0.2771 0.89953 0.0
C3481 C 0.9581 0.27702 0.90961 0.0
C3482 C 0.92186 0.27228 0.8684 0.0
C3483 C 0.91518 0.25776 0.8525 0.0
C3484 C 0.91234 0.28746 0.87198 0.0
C3485 C 0.91746 0.3037 0.88787 0.0
C3486 C 0.90908 0.30294 0.90444 0.0
C3487 C 0.91332 0.31883 0.9191 0.0
C3488 C 0.92543 0.33574 0.91704 0.0
C3489 C 0.93305 0.3369 0.90021 0.0
C3490 C 0.92886 0.321 0.88558 0.0
C3491 C 0.8483 0.26531 0.81032 0.0
C3492 C 0.8494 0.28349 0.80515 0.0
C3493 C 0.8619 0.26219 0.82261 0.0
C3494 C 0.87718 0.2771 0.82982 0.0
C3495 C 0.87825 0.29517 0.82439 0.0
C3496 C 0.86461 0.29831 0.81235 0.0
C3497 C 0.89197 0.27437 0.84319 0.0
C3498 C 0.89785 0.28828 0.85946 0.0
C3499 C 0.90069 0.2587 0.83995 0.0
C3500 C 0.89546 0.24343 0.82314 0.0
C3501 C 0.89707 0.24808 0.80533 0.0
C3502 C 0.89161 0.23365 0.7895 0.0
C3503 C 0.88455 0.21453 0.79134 0.0
C3504 C 0.88308 0.20978 0.80902 0.0
C3505 C 0.8886 0.22414 0.82489 0.0
H3506 H 0.88026 0.2034 0.77907 0.0
H3507 H 0.92867 0.34805 0.92837 0.0
H3508 H 0.58838 0.26451 0.57331 0.0
H3509 H 0.58525 0.23061 0.55821 0.0
H3510 H 0.55829 0.21167 0.60425 0.0
H3511 H 0.56096 0.24559 0.61914 0.0
H3512 H 0.5989 0.20275 0.58634 0.0
H3513 H 0.53221 0.18799 0.58357 0.0
H3514 H 0.50003 0.18514 0.57409 0.0
H3515 H 0.5117 0.18339 0.51717 0.0
H3516 H 0.54395 0.18625 0.52641 0.0
H3517 H 0.57464 0.09993 0.57609 0.0
H3518 H 0.58078 0.13519 0.58305 0.0
H3519 H 0.57107 0.13627 0.52472 0.0
H3520 H 0.56477 0.10064 0.51773 0.0
H3521 H 0.55005 0.15514 0.54536 0.0
H3522 H 0.61408 0.15798 0.54994 0.0
H3523 H 0.64215 0.14964 0.56097 0.0
H3524 H 0.63255 0.16845 0.61757 0.0
H3525 H 0.60456 0.1771 0.60694 0.0
C3526 C 0.58118 0.25313 0.57988 0.0
C3527 C 0.57439 0.25778 0.59714 0.0
C3528 C 0.57942 0.23372 0.57124 0.0
C3529 C 0.57105 0.21846 0.57978 0.0
C3530 C 0.56427 0.22309 0.59705 0.0
C3531 C 0.56596 0.2425 0.60564 0.0
C3532 C 0.57233 0.19812 0.57237 0.0
C3533 C 0.58818 0.19235 0.57738 0.0
C3534 C 0.55852 0.18444 0.5605 0.0
C3535 C 0.54056 0.18797 0.55577 0.0
C3536 C 0.52801 0.18771 0.56915 0.0
C3537 C 0.50969 0.18568 0.56377 0.0
C3538 C 0.50378 0.18393 0.54501 0.0
C3539 C 0.51626 0.18466 0.53168 0.0
C3540 C 0.53456 0.18662 0.537 0.0
C3541 C 0.57443 0.10772 0.56466 0.0
C3542 C 0.56935 0.09753 0.54636 0.0
C3543 C 0.57802 0.12796 0.56866 0.0
C3544 C 0.57652 0.13859 0.55446 0.0
C3545 C 0.57243 0.12846 0.53595 0.0
C3546 C 0.56895 0.1081 0.53191 0.0
C3547 C 0.57653 0.15971 0.55936 0.0
C3548 C 0.56098 0.16568 0.55392 0.0
C3549 C 0.59037 0.17333 0.57126 0.0
C3550 C 0.60719 0.16812 0.57764 0.0
C3551 C 0.61792 0.16027 0.56474 0.0
C3552 C 0.63383 0.15553 0.57091 0.0
C3553 C 0.63906 0.15842 0.58993 0.0
C3554 C 0.62848 0.16621 0.60284 0.0
C3555 C 0.61265 0.17114 0.59675 0.0
H3556 H 0.65134 0.15466 0.59467 0.0
H3557 H 0.48959 0.18221 0.54085 0.0
H3558 H 0.57857 0.76523 0.42276 0.0
H3559 H 0.60789 0.76371 0.41009 0.0
H3560 H 0.59723 0.79916 0.3708 0.0
H3561 H 0.56899 0.80136 0.38328 0.0
H3562 H 0.60684 0.75659 0.35876 0.0
H3563 H 0.62271 0.82322 0.39662 0.0
H3564 H 0.62775 0.84533 0.42697 0.0
H3565 H 0.66637 0.81547 0.446 0.0
H3566 H 0.66122 0.79288 0.41586 0.0
H3567 H 0.66722 0.79051 0.29846 0.0
H3568 H 0.6453 0.78502 0.32071 0.0
H3569 H 0.68765 0.78595 0.3626 0.0
H3570 H 0.71021 0.79338 0.34051 0.0
H3571 H 0.66517 0.80362 0.37882 0.0
H3572 H 0.65531 0.74214 0.33956 0.0
H3573 H 0.65078 0.71859 0.31012 0.0
H3574 H 0.60179 0.73518 0.29511 0.0
H3575 H 0.60613 0.75901 0.32432 0.0
C3576 C 0.58265 0.77296 0.41166 0.0
C3577 C 0.57118 0.78343 0.40422 0.0
C3578 C 0.59939 0.77205 0.4044 0.0
C3579 C 0.60478 0.78142 0.38951 0.0
C3580 C 0.59347 0.79193 0.38233 0.0
C3581 C 0.57717 0.79313 0.38965 0.0
C3582 C 0.62147 0.77969 0.38014 0.0
C3583 C 0.61968 0.76671 0.3632 0.0
C3584 C 0.63835 0.79259 0.3861 0.0
C3585 C 0.64132 0.80614 0.40414 0.0
C3586 C 0.63204 0.82116 0.40738 0.0
C3587 C 0.63497 0.83383 0.42452 0.0
C3588 C 0.6473 0.83175 0.43844 0.0
C3589 C 0.65676 0.81702 0.43523 0.0
C3590 C 0.65383 0.80427 0.41814 0.0
C3591 C 0.6721 0.78983 0.31243 0.0
C3592 C 0.69074 0.79277 0.31758 0.0
C3593 C 0.65934 0.78623 0.32517 0.0
C3594 C 0.66454 0.78454 0.34342 0.0
C3595 C 0.68311 0.78704 0.34863 0.0
C3596 C 0.69605 0.79108 0.33587 0.0
C3597 C 0.65043 0.78091 0.35688 0.0
C3598 C 0.65262 0.79298 0.3745 0.0
C3599 C 0.63391 0.76693 0.35165 0.0
C3600 C 0.63109 0.75241 0.33414 0.0
C3601 C 0.6436 0.74082 0.32995 0.0
C3602 C 0.64107 0.72742 0.3133 0.0
C3603 C 0.62601 0.7254 0.30075 0.0
C3604 C 0.61343 0.73674 0.30485 0.0
C3605 C 0.6159 0.75017 0.32148 0.0
H3606 H 0.62409 0.71503 0.28786 0.0
H3607 H 0.64959 0.8416 0.45168 0.0
H3608 H 0.11066 0.28263 0.43304 0.0
H3609 H 0.10465 0.25433 0.44795 0.0
H3610 H 0.05898 0.2279 0.40773 0.0
H3611 H 0.06502 0.25627 0.39257 0.0
H3612 H 0.0509 0.23072 0.44463 0.0
H3613 H 0.09351 0.20757 0.40693 0.0
H3614 H 0.12221 0.20932 0.39255 0.0
H3615 H 0.15119 0.21975 0.44652 0.0
H3616 H 0.12269 0.21838 0.46127 0.0
H3617 H 0.03397 0.14691 0.48696 0.0
H3618 H 0.04101 0.167 0.46315 0.0
H3619 H 0.08717 0.20227 0.49877 0.0
H3620 H 0.07991 0.18242 0.52276 0.0
H3621 H 0.09377 0.19131 0.46044 0.0
H3622 H 0.05293 0.21952 0.498 0.0
H3623 H 0.025 0.21967 0.5135 0.0
H3624 H 0.99359 0.20166 0.46058 0.0
H3625 H 0.02135 0.20105 0.44477 0.0
C3626 C 0.09953 0.27065 0.42717 0.0
C3627 C 0.08822 0.27164 0.41175 0.0
C3628 C 0.09619 0.25445 0.43562 0.0
C3629 C 0.08144 0.23905 0.42886 0.0
C3630 C 0.07048 0.23966 0.41305 0.0
C3631 C 0.07397 0.2558 0.40441 0.0
C3632 C 0.07647 0.22343 0.43962 0.0
C3633 C 0.06005 0.22172 0.44769 0.0
C3634 C 0.08873 0.21222 0.44402 0.0
C3635 C 0.10594 0.21298 0.43522 0.0
C3636 C 0.10601 0.21039 0.41576 0.0
C3637 C 0.12225 0.21129 0.40753 0.0
C3638 C 0.13852 0.21467 0.41861 0.0
C3639 C 0.13857 0.21713 0.43795 0.0
C3640 C 0.12237 0.21627 0.44625 0.0
C3641 C 0.04554 0.15904 0.48967 0.0
C3642 C 0.05626 0.16346 0.50669 0.0
C3643 C 0.04959 0.17038 0.4761 0.0
C3644 C 0.06458 0.18606 0.47929 0.0
C3645 C 0.07556 0.19018 0.49611 0.0
C3646 C 0.07132 0.17905 0.50982 0.0
C3647 C 0.06829 0.19878 0.46547 0.0
C3648 C 0.08447 0.20001 0.45698 0.0
C3649 C 0.05591 0.20973 0.46078 0.0
C3650 C 0.03919 0.20994 0.47023 0.0
C3651 C 0.04005 0.21535 0.48968 0.0
C3652 C 0.02426 0.21557 0.49852 0.0
C3653 C 0.00752 0.2106 0.48804 0.0
C3654 C 0.00656 0.20544 0.46869 0.0
C3655 C 0.02232 0.20515 0.45978 0.0
H3656 H 0.99531 0.21081 0.49491 0.0
H3657 H 0.15107 0.21535 0.41222 0.0
H3658 H 0.57016 0.27048 0.14794 0.0
H3659 H 0.5992 0.2679 0.16202 0.0
H3660 H 0.5821 0.28372 0.21666 0.0
H3661 H 0.55361 0.28732 0.20271 0.0
H3662 H 0.61535 0.29872 0.2172 0.0
H3663 H 0.57815 0.23521 0.19373 0.0
H3664 H 0.55991 0.20928 0.16948 0.0
H3665 H 0.60629 0.20808 0.13881 0.0
H3666 H 0.62474 0.23423 0.16273 0.0
H3667 H 0.66811 0.25391 0.27189 0.0
H3668 H 0.6427 0.26154 0.25488 0.0
H3669 H 0.66909 0.25464 0.20427 0.0
H3670 H 0.69438 0.24684 0.22113 0.0
H3671 H 0.63288 0.2359 0.19983 0.0
H3672 H 0.66989 0.29949 0.22736 0.0
H3673 H 0.68542 0.32657 0.25218 0.0
H3674 H 0.6359 0.32582 0.27776 0.0
H3675 H 0.62015 0.29863 0.25331 0.0
C3676 C 0.57285 0.27391 0.16294 0.0
C3677 C 0.55967 0.27901 0.17428 0.0
C3678 C 0.58933 0.27222 0.17096 0.0
C3679 C 0.59258 0.27508 0.19037 0.0
C3680 C 0.57984 0.28134 0.20164 0.0
C3681 C 0.56357 0.28346 0.19365 0.0
C3682 C 0.60882 0.27083 0.19917 0.0
C3683 C 0.61908 0.2849 0.21352 0.0
C3684 C 0.61378 0.25287 0.19412 0.0
C3685 C 0.60278 0.23685 0.17992 0.0
C3686 C 0.58444 0.22949 0.18176 0.0
C3687 C 0.57406 0.21475 0.16808 0.0
C3688 C 0.58192 0.20709 0.15258 0.0
C3689 C 0.6002 0.21407 0.1508 0.0
C3690 C 0.61063 0.22885 0.16441 0.0
C3691 C 0.66835 0.25383 0.2571 0.0
C3692 C 0.68313 0.2498 0.24779 0.0
C3693 C 0.65397 0.25836 0.24747 0.0
C3694 C 0.6542 0.25885 0.22841 0.0
C3695 C 0.66876 0.25442 0.21901 0.0
C3696 C 0.68317 0.25003 0.22864 0.0
C3697 C 0.6391 0.26367 0.21815 0.0
C3698 C 0.62914 0.24971 0.20345 0.0
C3699 C 0.63402 0.28149 0.22325 0.0
C3700 C 0.64388 0.29693 0.23859 0.0
C3701 C 0.66239 0.30491 0.23844 0.0
C3702 C 0.67121 0.32033 0.2524 0.0
C3703 C 0.66162 0.32789 0.26649 0.0
C3704 C 0.64329 0.31994 0.26682 0.0
C3705 C 0.63442 0.30454 0.25294 0.0
H3706 H 0.66828 0.34 0.27711 0.0
H3707 H 0.57386 0.19571 0.14198 0.0
H3708 H 0.62388 0.8681 0.92653 0.0
H3709 H 0.6289 0.89845 0.94888 0.0
H3710 H 0.60745 0.92551 0.90705 0.0
H3711 H 0.60324 0.89575 0.88453 0.0
H3712 H 0.63069 0.95152 0.92897 0.0
H3713 H 0.58019 0.90143 0.93561 0.0
H3714 H 0.56399 0.86931 0.9403 0.0
H3715 H 0.59354 0.87829 0.99383 0.0
H3716 H 0.61015 0.91037 0.98929 0.0
H3717 H 0.56741 1.00004 0.97244 0.0
H3718 H 0.58279 0.97751 0.95464 0.0
H3719 H 0.61837 0.98027 1.00332 0.0
H3720 H 0.60362 1.00336 0.02117 0.0
H3721 H 0.59518 0.94145 0.98278 0.0
H3722 H 0.6386 0.9987 0.97426 0.0
H3723 H 0.64591 0.03127 0.96625 0.0
H3724 H 0.61912 0.0085 0.91149 0.0
H3725 H 0.61147 0.97582 0.91924 0.0
C3726 C 0.62067 0.88068 0.92199 0.0
C3727 C 0.61272 0.87943 0.90393 0.0
C3728 C 0.62357 0.89798 0.93475 0.0
C3729 C 0.61812 0.91402 0.92971 0.0
C3730 C 0.61171 0.91327 0.91125 0.0
C3731 C 0.60915 0.89615 0.89841 0.0
C3732 C 0.61645 0.93047 0.94395 0.0
C3733 C 0.62312 0.94934 0.94086 0.0
C3734 C 0.60635 0.92756 0.95933 0.0
C3735 C 0.59667 0.90812 0.96195 0.0
C3736 C 0.5834 0.89645 0.94828 0.0
C3737 C 0.57411 0.87827 0.95093 0.0
C3738 C 0.5778 0.87172 0.96731 0.0
C3739 C 0.59077 0.88335 0.9811 0.0
C3740 C 0.60014 0.90151 0.97848 0.0
C3741 C 0.57862 0.99606 0.97934 0.0
C3742 C 0.58406 1.00315 0.99829 0.0
C3743 C 0.58743 0.98331 0.96914 0.0
C3744 C 0.60165 0.97748 0.9778 0.0
C3745 C 0.60741 0.9848 0.99654 0.0
C3746 C 0.59883 0.99779 0.0067 0.0
C3747 C 0.6092 0.96224 0.96757 0.0
C3748 C 0.60347 0.94361 0.97137 0.0
C3749 C 0.6192 0.9653 0.95229 0.0
C3750 C 0.62448 0.9848 0.94734 0.0
C3751 C 0.63426 1.00064 0.96052 0.0
C3752 C 0.63845 0.01912 0.95603 0.0
C3753 C 0.63299 0.02195 0.93837 0.0
C3754 C 0.62338 1.00627 0.92514 0.0
C3755 C 0.61917 0.98776 0.92956 0.0
H3756 H 0.6362 0.03628 0.93493 0.0
H3757 H 0.57057 0.85766 0.96936 0.0
H3758 H 0.97421 0.81001 0.70771 0.0
H3759 H 0.94658 0.80331 0.72312 0.0
H3760 H 0.93089 0.74658 0.68857 0.0
H3761 H 0.95837 0.75322 0.67279 0.0
H3762 H 0.90297 0.76463 0.69317 0.0
H3763 H 0.94878 0.74992 0.73256 0.0
H3764 H 0.97912 0.75731 0.74921 0.0
H3765 H 0.96815 0.80818 0.78218 0.0
H3766 H 0.93767 0.80104 0.7657 0.0
H3767 H 0.82962 0.746 0.73829 0.0
H3768 H 0.8584 0.73813 0.73163 0.0
H3769 H 0.88618 0.791 0.7681 0.0
H3770 H 0.85704 0.7961 0.77795 0.0
H3771 H 0.90882 0.7701 0.76187 0.0
H3772 H 0.86707 0.78909 0.72002 0.0
H3773 H 0.8372 0.7851 0.70294 0.0
H3774 H 0.84151 0.72949 0.67362 0.0
H3775 H 0.87131 0.73329 0.69068 0.0
C3776 C 0.96477 0.79621 0.7032 0.0
C3777 C 0.96852 0.78207 0.68917 0.0
C3778 C 0.9491 0.79236 0.71212 0.0
C3779 C 0.93708 0.77426 0.7073 0.0
C3780 C 0.9402 0.76054 0.69258 0.0
C3781 C 0.95583 0.76442 0.68353 0.0
C3782 C 0.92128 0.76969 0.71778 0.0
C3783 C 0.90419 0.76536 0.70812 0.0
C3784 C 0.92305 0.7711 0.73731 0.0
C3785 C 0.94099 0.77495 0.74789 0.0
C3786 C 0.95284 0.76267 0.74339 0.0
C3787 C 0.97007 0.76682 0.75277 0.0
C3788 C 0.97561 0.78325 0.76671 0.0
C3789 C 0.96384 0.79545 0.7714 0.0
C3790 C 0.94655 0.7913 0.7621 0.0
C3791 C 0.84188 0.75563 0.74537 0.0
C3792 C 0.84144 0.77318 0.75695 0.0
C3793 C 0.85832 0.7511 0.74156 0.0
C3794 C 0.87435 0.76492 0.74794 0.0
C3795 C 0.87393 0.78059 0.76213 0.0
C3796 C 0.85734 0.78409 0.76721 0.0
C3797 C 0.89034 0.76522 0.73729 0.0
C3798 C 0.90752 0.76887 0.74687 0.0
C3799 C 0.88871 0.76349 0.71761 0.0
C3800 C 0.87126 0.76149 0.70666 0.0
C3801 C 0.8616 0.77615 0.70983 0.0
C3802 C 0.8447 0.77387 0.70022 0.0
C3803 C 0.83745 0.75704 0.68721 0.0
C3804 C 0.84714 0.74252 0.68371 0.0
C3805 C 0.86404 0.74475 0.69333 0.0
H3806 H 0.82432 0.75524 0.67983 0.0
H3807 H 0.98901 0.78651 0.77388 0.0
H3808 H 0.13441 0.03358 0.817 0.0
H3809 H 0.11844 0.03621 0.84553 0.0
H3810 H 0.14716 0.99766 0.86651 0.0
H3811 H 0.16366 0.99574 0.83852 0.0
H3812 H 0.10734 0.98968 0.87291 0.0
H3813 H 0.16 0.04261 0.88435 0.0
H3814 H 0.17966 0.07197 0.87728 0.0
H3815 H 0.13579 0.10098 0.88116 0.0
H3816 H 0.11577 0.07165 0.88793 0.0
H3817 H 0.07774 0.99978 0.96573 0.0
H3818 H 0.09303 0.99597 0.9373 0.0
H3819 H 0.09386 0.05528 0.93324 0.0
H3820 H 0.08061 0.05951 0.96301 0.0
H3821 H 0.11842 0.05228 0.91664 0.0
H3822 H 0.06462 1.00173 0.90242 0.0
H3823 H 0.04224 0.97279 0.90657 0.0
H3824 H 0.08334 0.93995 0.90424 0.0
H3825 H 0.106 0.96877 0.90034 0.0
C3826 C 0.13718 0.02532 0.82745 0.0
C3827 C 0.1504 0.01407 0.82469 0.0
C3828 C 0.12801 0.02698 0.84412 0.0
C3829 C 0.13117 0.01713 0.85885 0.0
C3830 C 0.14399 1.00548 0.85582 0.0
C3831 C 0.15353 1.00431 0.83949 0.0
C3832 C 0.12178 0.01935 0.8774 0.0
C3833 C 0.10994 1.00341 0.88248 0.0
C3834 C 0.12425 0.03718 0.89025 0.0
C3835 C 0.13634 0.05487 0.88645 0.0
C3836 C 0.1545 0.05519 0.88354 0.0
C3837 C 0.16572 0.07184 0.8796 0.0
C3838 C 0.15896 0.08831 0.87871 0.0
C3839 C 0.14099 0.0882 0.88182 0.0
C3840 C 0.12971 0.07157 0.88571 0.0
C3841 C 0.08114 0.01208 0.95883 0.0
C3842 C 0.07759 0.02999 0.9672 0.0
C3843 C 0.08979 0.00981 0.94192 0.0
C3844 C 0.09452 0.02498 0.93152 0.0
C3845 C 0.0908 0.0429 0.94005 0.0
C3846 C 0.0829 0.04539 0.9574 0.0
C3847 C 0.10349 0.02256 0.91246 0.0
C3848 C 0.11545 0.03848 0.90721 0.0
C3849 C 0.10061 1.00481 0.89911 0.0
C3850 C 0.08702 0.98745 0.90128 0.0
C3851 C 0.06888 0.98835 0.90286 0.0
C3852 C 0.05616 0.97197 0.90518 0.0
C3853 C 0.06138 0.95456 0.90571 0.0
C3854 C 0.07933 0.95346 0.90386 0.0
C3855 C 0.09211 0.9698 0.9016 0.0
H3856 H 0.05152 0.9419 0.90751 0.0
H3857 H 0.16767 0.10118 0.87566 0.0
H3858 H 0.79921 0.42255 0.57967 0.0
H3859 H 0.80204 0.40725 0.60703 0.0
H3860 H 0.84901 0.3888 0.58683 0.0
H3861 H 0.84587 0.40362 0.55949 0.0
H3862 H 0.82598 0.35949 0.59491 0.0
H3863 H 0.85248 0.42498 0.62478 0.0
H3864 H 0.85399 0.45981 0.63496 0.0
H3865 H 0.80779 0.44646 0.66551 0.0
H3866 H 0.8059 0.41153 0.65535 0.0
H3867 H 0.87215 0.34836 0.68038 0.0
H3868 H 0.86261 0.36863 0.66 0.0
H3869 H 0.80781 0.33579 0.65631 0.0
H3870 H 0.81736 0.3145 0.67578 0.0
H3871 H 0.83093 0.39019 0.6615 0.0
H3872 H 0.80323 0.32192 0.62201 0.0
H3873 H 0.80688 0.28841 0.6126 0.0
H3874 H 0.86149 0.30988 0.60123 0.0
H3875 H 0.85817 0.3435 0.61086 0.0
C3876 C 0.81028 0.41553 0.58141 0.0
C3877 C 0.82243 0.41424 0.56778 0.0
C3878 C 0.81191 0.40682 0.59695 0.0
C3879 C 0.82574 0.39689 0.59894 0.0
C3880 C 0.8382 0.39629 0.58552 0.0
C3881 C 0.83649 0.40482 0.57002 0.0
C3882 C 0.8267 0.38595 0.61421 0.0
C3883 C 0.82685 0.36625 0.60944 0.0
C3884 C 0.82791 0.39469 0.63319 0.0
C3885 C 0.8289 0.41566 0.63911 0.0
C3886 C 0.84253 0.42947 0.63351 0.0
C3887 C 0.84349 0.44923 0.63932 0.0
C3888 C 0.83095 0.45535 0.65082 0.0
C3889 C 0.81746 0.44171 0.65657 0.0
C3890 C 0.81645 0.42193 0.65081 0.0
C3891 C 0.85805 0.34538 0.67525 0.0
C3892 C 0.84561 0.32948 0.67934 0.0
C3893 C 0.85261 0.35715 0.66382 0.0
C3894 C 0.83459 0.35353 0.65661 0.0
C3895 C 0.82182 0.33865 0.66173 0.0
C3896 C 0.8273 0.32662 0.67296 0.0
C3897 C 0.82987 0.3639 0.64204 0.0
C3898 C 0.82933 0.38346 0.64691 0.0
C3899 C 0.82858 0.35521 0.62313 0.0
C3900 C 0.83052 0.3351 0.61731 0.0
C3901 C 0.81603 0.31944 0.61762 0.0
C3902 C 0.81804 0.30046 0.61224 0.0
C3903 C 0.83442 0.29702 0.60637 0.0
C3904 C 0.84883 0.31256 0.60584 0.0
C3905 C 0.8469 0.33156 0.61127 0.0
H3906 H 0.83594 0.28231 0.60219 0.0
H3907 H 0.83172 0.47065 0.65531 0.0
H3908 H 0.42278 0.04517 0.37595 0.0
H3909 H 0.44759 0.05144 0.40021 0.0
H3910 H 0.48463 0.07667 0.3638 0.0
H3911 H 0.46002 0.0701 0.33924 0.0
H3912 H 0.49754 0.05064 0.3825 0.0
H3913 H 0.47425 0.10865 0.39883 0.0
H3914 H 0.44868 0.12468 0.40256 0.0
H3915 H 0.42912 0.09008 0.44276 0.0
H3916 H 0.45482 0.07419 0.43958 0.0
H3917 H 0.55853 0.07409 0.46693 0.0
H3918 H 0.54302 0.08037 0.43916 0.0
H3919 H 0.49193 0.05221 0.45541 0.0
H3920 H 0.50704 0.04541 0.48255 0.0
H3921 H 0.49196 0.08796 0.44462 0.0
H3922 H 0.51046 0.02704 0.4257 0.0
H3923 H 0.53337 0.00741 0.42148 0.0
H3924 H 0.55965 0.04368 0.38545 0.0
H3925 H 0.53701 0.06372 0.38971 0.0
C3926 C 0.43615 0.05221 0.37315 0.0
C3927 C 0.43944 0.05722 0.35576 0.0
C3928 C 0.45028 0.05577 0.38698 0.0
C3929 C 0.46778 0.06474 0.38373 0.0
C3930 C 0.47115 0.06979 0.36645 0.0
C3931 C 0.45706 0.06608 0.35254 0.0
C3932 C 0.48247 0.06873 0.39857 0.0
C3933 C 0.49672 0.05928 0.39595 0.0
C3934 C 0.48115 0.07985 0.41603 0.0
C3935 C 0.46649 0.09037 0.41906 0.0
C3936 C 0.46459 0.10464 0.40862 0.0
C3937 C 0.45009 0.1137 0.41064 0.0
C3938 C 0.43733 0.10846 0.42296 0.0
C3939 C 0.43909 0.09422 0.43333 0.0
C3940 C 0.45372 0.08533 0.43157 0.0
C3941 C 0.54402 0.06916 0.4645 0.0
C3942 C 0.53404 0.05906 0.4768 0.0
C3943 C 0.53524 0.07289 0.44877 0.0
C3944 C 0.51643 0.06682 0.4455 0.0
C3945 C 0.50647 0.05713 0.45793 0.0
C3946 C 0.51519 0.05318 0.47338 0.0
C3947 C 0.50675 0.06944 0.42871 0.0
C3948 C 0.49336 0.08011 0.43095 0.0
C3949 C 0.50878 0.05923 0.411 0.0
C3950 C 0.52222 0.04704 0.40823 0.0
C3951 C 0.52121 0.03093 0.417 0.0
C3952 C 0.53413 0.01971 0.41459 0.0
C3953 C 0.548 0.02435 0.40326 0.0
C3954 C 0.54893 0.04015 0.39427 0.0
C3955 C 0.53606 0.05145 0.39667 0.0
H3956 H 0.55799 0.01566 0.40141 0.0
H3957 H 0.42605 0.1154 0.42443 0.0
H3958 H 0.8191 0.70505 0.07265 0.0
H3959 H 0.8199 0.71908 0.10566 0.0
H3960 H 0.78194 0.75267 0.09205 0.0
H3961 H 0.78243 0.7398 0.05886 0.0
H3962 H 0.80362 0.77312 0.12018 0.0
H3963 H 0.77002 0.70495 0.10785 0.0
H3964 H 0.76803 0.67013 0.0966 0.0
H3965 H 0.81343 0.6719 0.13476 0.0
H3966 H 0.81573 0.7067 0.14614 0.0
H3967 H 0.79005 0.79549 0.21784 0.0
H3968 H 0.78576 0.78684 0.18386 0.0
H3969 H 0.80997 0.73797 0.18676 0.0
H3970 H 0.80926 0.74346 0.21963 0.0
H3971 H 0.79015 0.72539 0.16178 0.0
H3972 H 0.82881 0.79249 0.17177 0.0
H3973 H 0.83388 0.82775 0.18312 0.0
H3974 H 0.78522 0.82909 0.15138 0.0
H3975 H 0.77988 0.79388 0.13991 0.0
C3976 C 0.81117 0.71566 0.07674 0.0
C3977 C 0.80068 0.72133 0.06326 0.0
C3978 C 0.81145 0.72356 0.09565 0.0
C3979 C 0.80047 0.73652 0.10163 0.0
C3980 C 0.79046 0.74266 0.08799 0.0
C3981 C 0.7907 0.73527 0.06901 0.0
C3982 C 0.79874 0.74289 0.12196 0.0
C3983 C 0.80082 0.7627 0.12937 0.0
C3984 C 0.79506 0.7295 0.13415 0.0
C3985 C 0.79305 0.7084 0.12779 0.0
C3986 C 0.77953 0.69787 0.11386 0.0
C3987 C 0.77837 0.67816 0.10744 0.0
C3988 C 0.7906 0.66882 0.11495 0.0
C3989 C 0.80395 0.67914 0.12897 0.0
C3990 C 0.80515 0.69883 0.13544 0.0
C3991 C 0.79333 0.78228 0.2111 0.0
C3992 C 0.79895 0.76969 0.22175 0.0
C3993 C 0.79171 0.7777 0.19143 0.0
C3994 C 0.79768 0.76161 0.18196 0.0
C3995 C 0.80448 0.75 0.19296 0.0
C3996 C 0.80439 0.75346 0.2122 0.0
C3997 C 0.79696 0.75602 0.16093 0.0
C3998 C 0.7937 0.73614 0.15307 0.0
C3999 C 0.80036 0.76945 0.1486 0.0
C4000 C 0.8039 0.79061 0.15511 0.0
C4001 C 0.81924 0.80035 0.16721 0.0
C4002 C 0.82213 0.8203 0.17368 0.0
C4003 C 0.80986 0.83064 0.16801 0.0
C4004 C 0.79471 0.82107 0.15577 0.0
C4005 C 0.79176 0.80115 0.14926 0.0
H4006 H 0.81209 0.84606 0.17307 0.0
H4007 H 0.78973 0.65358 0.10991 0.0
H4008 H 0.11991 1.00044 0.71759 0.0
H4009 H 0.10523 1.00514 0.68857 0.0
H4010 H 0.15642 0.03506 0.67451 0.0
H4011 H 0.17108 0.03042 0.70366 0.0
H4012 H 0.13416 0.05352 0.66297 0.0
H4013 H 0.12858 0.98483 0.6523 0.0
H4014 H 0.11944 0.95105 0.65693 0.0
H4015 H 0.06381 0.95463 0.65339 0.0
H4016 H 0.07262 0.98849 0.64927 0.0
H4017 H 0.10694 0.05284 0.56677 0.0
H4018 H 0.11941 0.04882 0.59692 0.0
H4019 H 0.06625 0.02234 0.60911 0.0
H4020 H 0.05364 0.02666 0.57859 0.0
H4021 H 0.08841 1.00223 0.62184 0.0
H4022 H 0.09337 0.07075 0.63589 0.0
H4023 H 0.10157 0.10488 0.632 0.0
H4024 H 0.15681 0.10116 0.62837 0.0
H4025 H 0.14906 0.06717 0.63274 0.0
C4026 C 0.12825 0.00784 0.70832 0.0
C4027 C 0.14708 0.01471 0.71355 0.0
C4028 C 0.11968 0.01053 0.6913 0.0
C4029 C 0.12931 0.02036 0.67827 0.0
C4030 C 0.14812 0.02735 0.68362 0.0
C4031 C 0.15672 0.02453 0.70058 0.0
C4032 C 0.11998 0.02374 0.65969 0.0
C4033 C 0.12437 0.04199 0.65403 0.0
C4034 C 0.1065 0.00943 0.64742 0.0
C4035 C 0.10129 0.98931 0.65073 0.0
C4036 C 0.11442 0.97849 0.6528 0.0
C4037 C 0.10929 0.9593 0.65531 0.0
C4038 C 0.09105 0.95069 0.65557 0.0
C4039 C 0.07793 0.96128 0.65334 0.0
C4040 C 0.08299 0.98049 0.65095 0.0
C4041 C 0.09765 0.0466 0.57596 0.0
C4042 C 0.07897 0.04069 0.56979 0.0
C4043 C 0.10495 0.04423 0.59358 0.0
C4044 C 0.09416 0.03536 0.60632 0.0
C4045 C 0.07536 0.02936 0.60021 0.0
C4046 C 0.06795 0.03208 0.58255 0.0
C4047 C 0.10265 0.03192 0.62524 0.0
C4048 C 0.09817 0.01369 0.63088 0.0
C4049 C 0.11596 0.04623 0.63759 0.0
C4050 C 0.12062 0.0664 0.63445 0.0
C4051 C 0.10725 0.07719 0.63414 0.0
C4052 C 0.11181 0.09651 0.63193 0.0
C4053 C 0.12964 0.10511 0.62976 0.0
C4054 C 0.143 0.09446 0.63 0.0
C4055 C 0.13856 0.07521 0.63247 0.0
H4056 H 0.13312 0.12005 0.62798 0.0
H4057 H 0.08709 0.93579 0.6574 0.0
H4058 H 0.80296 0.37803 0.47755 0.0
H4059 H 0.80333 0.35319 0.45039 0.0
H4060 H 0.81435 0.39737 0.4166 0.0
H4061 H 0.81289 0.42189 0.44311 0.0
H4062 H 0.79322 0.36894 0.39744 0.0
H4063 H 0.84798 0.37705 0.43624 0.0
H4064 H 0.86728 0.37762 0.46455 0.0
H4065 H 0.84418 0.31737 0.46282 0.0
H4066 H 0.82456 0.31652 0.43462 0.0
H4067 H 0.83682 0.3303 0.32577 0.0
H4068 H 0.83822 0.3461 0.35807 0.0
H4069 H 0.80142 0.29615 0.37004 0.0
H4070 H 0.80018 0.2799 0.33775 0.0
H4071 H 0.83403 0.32384 0.40067 0.0
H4072 H 0.77655 0.32163 0.36027 0.0
H4073 H 0.76277 0.32526 0.33009 0.0
H4074 H 0.79993 0.37987 0.33319 0.0
H4075 H 0.81356 0.37684 0.36362 0.0
C4076 C 0.80509 0.38236 0.46423 0.0
C4077 C 0.80806 0.40196 0.46253 0.0
C4078 C 0.80549 0.36819 0.44879 0.0
C4079 C 0.80927 0.37348 0.43158 0.0
C4080 C 0.81143 0.39292 0.42974 0.0
C4081 C 0.81062 0.40697 0.44498 0.0
C4082 C 0.81134 0.35907 0.4154 0.0
C4083 C 0.80213 0.3591 0.3983 0.0
C4084 C 0.82306 0.34624 0.41636 0.0
C4085 C 0.8346 0.3468 0.43349 0.0
C4086 C 0.84687 0.36398 0.44202 0.0
C4087 C 0.8579 0.36434 0.45801 0.0
C4088 C 0.8569 0.34756 0.46552 0.0
C4089 C 0.84489 0.33037 0.45702 0.0
C4090 C 0.83381 0.32995 0.44104 0.0
C4091 C 0.82944 0.32237 0.33534 0.0
C4092 C 0.81771 0.30421 0.32907 0.0
C4093 C 0.8304 0.33138 0.35381 0.0
C4094 C 0.81972 0.32229 0.36615 0.0
C4095 C 0.80971 0.30328 0.36055 0.0
C4096 C 0.80882 0.29418 0.34207 0.0
C4097 C 0.81603 0.33408 0.38319 0.0
C4098 C 0.82489 0.33349 0.40022 0.0
C4099 C 0.80461 0.34702 0.38215 0.0
C4100 C 0.79604 0.349 0.36414 0.0
C4101 C 0.78174 0.33441 0.3545 0.0
C4102 C 0.77398 0.33634 0.33736 0.0
C4103 C 0.78061 0.35265 0.32963 0.0
C4104 C 0.79484 0.36722 0.33916 0.0
C4105 C 0.80248 0.36548 0.35641 0.0
H4106 H 0.77464 0.35406 0.31632 0.0
H4107 H 0.86547 0.34786 0.47789 0.0
H4108 H 0.46069 0.04931 0.26485 0.0
H4109 H 0.4748 0.04853 0.23603 0.0
H4110 H 0.42472 0.0507 0.20677 0.0
H4111 H 0.41 0.05035 0.23598 0.0
H4112 H 0.44088 0.02565 0.18714 0.0
H4113 H 0.46041 0.09161 0.21691 0.0
H4114 H 0.47198 0.1185 0.24326 0.0
H4115 H 0.52148 0.09949 0.24864 0.0
H4116 H 0.51014 0.07234 0.22254 0.0
H4117 H 0.50089 0.0253 0.11555 0.0
H4118 H 0.47937 0.03612 0.13578 0.0
H4119 H 0.51576 0.03857 0.18382 0.0
H4120 H 0.53816 0.02959 0.16364 0.0
H4121 H 0.50133 0.06871 0.18818 0.0
H4122 H 0.47801 0.99861 0.16484 0.0
H4123 H 0.46715 0.97118 0.13877 0.0
H4124 H 0.4254 0.9981 0.12157 0.0
H4125 H 0.43616 0.0258 0.1474 0.0
C4126 C 0.45266 0.04982 0.25235 0.0
C4127 C 0.43437 0.0503 0.25261 0.0
C4128 C 0.46078 0.04947 0.23588 0.0
C4129 C 0.45099 0.05036 0.21943 0.0
C4130 C 0.43255 0.05039 0.21946 0.0
C4131 C 0.4242 0.05022 0.23604 0.0
C4132 C 0.46033 0.05046 0.20231 0.0
C4133 C 0.45388 0.03538 0.18711 0.0
C4134 C 0.47728 0.06321 0.20231 0.0
C4135 C 0.48441 0.07995 0.21768 0.0
C4136 C 0.47376 0.09316 0.22371 0.0
C4137 C 0.48027 0.10844 0.23863 0.0
C4138 C 0.49746 0.11072 0.2476 0.0
C4139 C 0.50819 0.09775 0.24165 0.0
C4140 C 0.50174 0.08244 0.22675 0.0
C4141 C 0.50454 0.02851 0.13041 0.0
C4142 C 0.52137 0.02664 0.13798 0.0
C4143 C 0.49207 0.03448 0.14194 0.0
C4144 C 0.49588 0.03792 0.16126 0.0
C4145 C 0.51258 0.03598 0.16889 0.0
C4146 C 0.52526 0.03054 0.15736 0.0
C4147 C 0.48248 0.04309 0.17382 0.0
C4148 C 0.48809 0.05935 0.18798 0.0
C4149 C 0.46486 0.03139 0.17289 0.0
C4150 C 0.45796 0.01432 0.15793 0.0
C4151 C 0.46651 0.99866 0.15548 0.0
C4152 C 0.4604 0.98309 0.14074 0.0
C4153 C 0.44562 0.98292 0.1285 0.0
C4154 C 0.43685 0.99826 0.13104 0.0
C4155 C 0.44294 0.01389 0.14574 0.0
H4156 H 0.44095 0.97089 0.11705 0.0
H4157 H 0.50245 0.12252 0.25918 0.0
H4158 H 0.81703 0.73346 0.97002 0.0
H4159 H 0.82294 0.7495 0.94318 0.0
H4160 H 0.78468 0.70233 0.90824 0.0
H4161 H 0.78002 0.68579 0.93437 0.0
H4162 H 0.80952 0.71012 0.88922 0.0
H4163 H 0.77805 0.75237 0.92701 0.0
H4164 H 0.77322 0.77426 0.95513 0.0
H4165 H 0.82439 0.81226 0.95246 0.0
H4166 H 0.8296 0.79048 0.92444 0.0
H4167 H 0.78514 0.75247 0.81467 0.0
H4168 H 0.78523 0.74105 0.84407 0.0
H4169 H 0.83602 0.78106 0.86315 0.0
H4170 H 0.8362 0.79238 0.83353 0.0
H4171 H 0.80917 0.77925 0.89057 0.0
H4172 H 0.83827 0.73668 0.8503 0.0
H4173 H 0.83893 0.71692 0.81942 0.0
H4174 H 0.78793 0.68037 0.82539 0.0
H4175 H 0.78692 0.69998 0.85625 0.0
C4176 C 0.80984 0.72662 0.95661 0.0
C4177 C 0.79794 0.70837 0.95446 0.0
C4178 C 0.81314 0.73585 0.94121 0.0
C4179 C 0.80411 0.72737 0.92346 0.0
C4180 C 0.79202 0.7093 0.92155 0.0
C4181 C 0.78919 0.69986 0.93669 0.0
C4182 C 0.80719 0.73678 0.90668 0.0
C4183 C 0.80929 0.72522 0.88969 0.0
C4184 C 0.80742 0.75665 0.90693 0.0
C4185 C 0.80431 0.76968 0.92379 0.0
C4186 C 0.78832 0.76532 0.93251 0.0
C4187 C 0.78551 0.77772 0.94841 0.0
C4188 C 0.79852 0.7946 0.95561 0.0
C4189 C 0.81435 0.79916 0.94689 0.0
C4190 C 0.81723 0.7868 0.93101 0.0
C4191 C 0.79624 0.75916 0.8251 0.0
C4192 C 0.81033 0.77401 0.82175 0.0
C4193 C 0.7963 0.75248 0.84197 0.0
C4194 C 0.81053 0.76034 0.85595 0.0
C4195 C 0.82473 0.775 0.8527 0.0
C4196 C 0.82476 0.78156 0.8357 0.0
C4197 C 0.81086 0.75241 0.87348 0.0
C4198 C 0.80954 0.76422 0.89043 0.0
C4199 C 0.81104 0.73275 0.87319 0.0
C4200 C 0.81251 0.7198 0.85556 0.0
C4201 C 0.82724 0.72437 0.84505 0.0
C4202 C 0.82762 0.71329 0.82751 0.0
C4203 C 0.81339 0.69754 0.82039 0.0
C4204 C 0.79888 0.69267 0.83089 0.0
C4205 C 0.79845 0.70368 0.84845 0.0
H4206 H 0.8137 0.68893 0.80686 0.0
H4207 H 0.79632 0.80418 0.96792 0.0
H4208 H 0.84705 0.15254 0.02806 0.0
H4209 H 0.87397 0.13944 0.03243 0.0
H4210 H 0.84377 0.08258 0.00621 0.0
H4211 H 0.81718 0.09537 1.0014 0.0
H4212 H 0.8668 0.08545 0.04133 0.0
H4213 H 0.86644 0.10566 0.97951 0.0
H4214 H 0.86661 0.13117 0.96074 0.0
H4215 H 0.91496 0.16559 0.99275 0.0
H4216 H 0.91492 0.14033 0.01182 0.0
H4217 H 0.91413 0.01905 1.00054 0.0
H4218 H 0.89428 0.041 0.00921 0.0
H4219 H 0.93929 0.09004 0.01398 0.0
H4220 H 0.95872 0.06842 1.00359 0.0
H4221 H 0.91343 0.09794 0.99738 0.0
H4222 H 0.91916 0.07512 0.05366 0.0
H4223 H 0.91976 0.05197 0.07487 0.0
H4224 H 0.86389 0.02575 0.05809 0.0
H4225 H 0.86298 0.04862 0.03664 0.0
C4226 C 0.8462 0.13725 0.02328 0.0
C4227 C 0.83008 0.125 0.01428 0.0
C4228 C 0.86148 0.12983 0.02589 0.0
C4229 C 0.86061 0.11009 0.01979 0.0
C4230 C 0.8445 0.09782 0.01117 0.0
C4231 C 0.8294 0.10523 0.00827 0.0
C4232 C 0.87671 0.10209 0.02074 0.0
C4233 C 0.87716 0.08817 0.0319 0.0
C4234 C 0.89039 0.10633 0.00889 0.0
C4235 C 0.89059 0.12123 0.99715 0.0
C4236 C 0.87704 0.11872 0.98258 0.0
C4237 C 0.87713 0.13311 0.97189 0.0
C4238 C 0.89077 0.15001 0.97557 0.0
C4239 C 0.90439 0.1525 0.98992 0.0
C4240 C 0.90435 0.13816 1.00066 0.0
C4241 C 0.91974 0.0345 1.00322 0.0
C4242 C 0.93806 0.04191 1.00158 0.0
C4243 C 0.90847 0.04704 0.00856 0.0
C4244 C 0.91543 0.06716 0.01277 0.0
C4245 C 0.93367 0.07457 0.01103 0.0
C4246 C 0.94481 0.06212 1.00526 0.0
C4247 C 0.90336 0.08051 0.01756 0.0
C4248 C 0.90359 0.09547 0.0074 0.0
C4249 C 0.89058 0.07751 0.03073 0.0
C4250 C 0.89104 0.06354 0.04346 0.0
C4251 C 0.90703 0.06433 0.05439 0.0
C4252 C 0.90742 0.05128 0.06648 0.0
C4253 C 0.89188 0.03738 0.0678 0.0
C4254 C 0.87591 0.03653 0.05705 0.0
C4255 C 0.87544 0.04957 0.04496 0.0
H4256 H 0.89221 0.0273 0.07718 0.0
H4257 H 0.8908 0.16115 0.9673 0.0
H4258 H 0.3567 0.44565 0.05139 0.0
H4259 H 0.38741 0.46399 0.05028 0.0
H4260 H 0.4022 0.41116 0.02613 0.0
H4261 H 0.37085 0.39374 0.02422 0.0
H4262 H 0.41651 0.46477 0.0661 0.0
H4263 H 0.4286 0.4119 0.01191 0.0
H4264 H 0.4203 0.39156 0.98071 0.0
H4265 H 0.40837 0.44002 0.95936 0.0
H4266 H 0.41646 0.46041 0.99059 0.0
H4267 H 0.51281 0.48581 0.03258 0.0
H4268 H 0.48351 0.46536 0.03567 0.0
H4269 H 0.46028 0.51552 0.04324 0.0
H4270 H 0.48976 0.53618 0.04061 0.0
H4271 H 0.45244 0.46174 0.01168 0.0
H4272 H 0.43844 0.51358 0.06733 0.0
H4273 H 0.45142 0.53461 0.09733 0.0
H4274 H 0.47279 0.48848 0.11351 0.0
H4275 H 0.46029 0.46741 0.0834 0.0
C4276 C 0.36635 0.43826 0.04482 0.0
C4277 C 0.36102 0.41864 0.03654 0.0
C4278 C 0.3841 0.44865 0.0445 0.0
C4279 C 0.3974 0.43945 0.03691 0.0
C4280 C 0.39231 0.41932 0.03029 0.0
C4281 C 0.37432 0.40913 0.02979 0.0
C4282 C 0.41658 0.45087 0.03751 0.0
C4283 C 0.42408 0.4641 0.05397 0.0
C4284 C 0.42736 0.44985 0.02218 0.0
C4285 C 0.42126 0.43711 1.00392 0.0
C4286 C 0.4234 0.41793 1.00072 0.0
C4287 C 0.419 0.40646 0.98299 0.0
C4288 C 0.41327 0.41432 0.96815 0.0
C4289 C 0.41228 0.43376 0.97096 0.0
C4290 C 0.41648 0.44517 0.98873 0.0
C4291 C 0.50154 0.49258 0.0352 0.0
C4292 C 0.50368 0.5127 0.03641 0.0
C4293 C 0.48478 0.48084 0.03701 0.0
C4294 C 0.46968 0.48886 0.04 0.0
C4295 C 0.47181 0.50901 0.04155 0.0
C4296 C 0.48869 0.52085 0.03996 0.0
C4297 C 0.45152 0.47588 0.03974 0.0
C4298 C 0.44451 0.46235 0.02357 0.0
C4299 C 0.44126 0.47649 0.0552 0.0
C4300 C 0.44865 0.48909 0.07317 0.0
C4301 C 0.44601 0.50802 0.07728 0.0
C4302 C 0.4533 0.51994 0.09426 0.0
C4303 C 0.46296 0.5129 0.1073 0.0
C4304 C 0.46539 0.49395 0.10337 0.0
C4305 C 0.45829 0.48206 0.08633 0.0
H4306 H 0.46854 0.52212 0.12046 0.0
H4307 H 0.40997 0.40547 0.95441 0.0
H4308 H 0.41429 0.61969 0.75212 0.0
H4309 H 0.39878 0.64604 0.74979 0.0
H4310 H 0.38206 0.64419 0.80481 0.0
H4311 H 0.39652 0.6173 0.80654 0.0
H4312 H 0.3574 0.65455 0.79276 0.0
H4313 H 0.41743 0.68596 0.78438 0.0
H4314 H 0.44658 0.69109 0.77067 0.0
H4315 H 0.41924 0.68896 0.71728 0.0
H4316 H 0.3899 0.68368 0.73068 0.0
H4317 H 0.32245 0.74368 0.79705 0.0
H4318 H 0.33835 0.71789 0.80093 0.0
H4319 H 0.35144 0.71385 0.74417 0.0
H4320 H 0.33613 0.73972 0.7406 0.0
H4321 H 0.3785 0.70733 0.7583 0.0
H4322 H 0.31767 0.66648 0.76995 0.0
H4323 H 0.29058 0.66054 0.78712 0.0
H4324 H 0.32297 0.68512 0.83878 0.0
H4325 H 0.35039 0.69003 0.82195 0.0
C4326 C 0.40764 0.62503 0.76396 0.0
C4327 C 0.40739 0.61584 0.77972 0.0
C4328 C 0.39857 0.6406 0.76268 0.0
C4329 C 0.3889 0.64847 0.77724 0.0
C4330 C 0.38892 0.63927 0.79299 0.0
C4331 C 0.39763 0.62358 0.7941 0.0
C4332 C 0.3785 0.6654 0.77621 0.0
C4333 C 0.36248 0.66606 0.78528 0.0
C4334 C 0.38399 0.68126 0.76664 0.0
C4335 C 0.40149 0.6842 0.75848 0.0
C4336 C 0.41764 0.68646 0.76969 0.0
C4337 C 0.43419 0.68942 0.76199 0.0
C4338 C 0.43475 0.69028 0.7431 0.0
C4339 C 0.41877 0.68824 0.7319 0.0
C4340 C 0.40219 0.68529 0.73954 0.0
C4341 C 0.32847 0.73721 0.78525 0.0
C4342 C 0.32746 0.74439 0.76835 0.0
C4343 C 0.3377 0.72192 0.7874 0.0
C4344 C 0.34652 0.71267 0.77283 0.0
C4345 C 0.34529 0.71996 0.75605 0.0
C4346 C 0.33617 0.73509 0.75393 0.0
C4347 C 0.35737 0.69627 0.77463 0.0
C4348 C 0.37348 0.69572 0.76568 0.0
C4349 C 0.35231 0.68085 0.78479 0.0
C4350 C 0.33591 0.67898 0.79472 0.0
C4351 C 0.31894 0.67073 0.78495 0.0
C4352 C 0.30359 0.6674 0.79463 0.0
C4353 C 0.305 0.6728 0.81399 0.0
C4354 C 0.32186 0.6811 0.82377 0.0
C4355 C 0.33733 0.68393 0.81421 0.0
H4356 H 0.29305 0.67038 0.82142 0.0
H4357 H 0.44758 0.69258 0.73716 0.0
H4358 H 0.24794 0.60561 0.52223 0.0
H4359 H 0.2168 0.59085 0.52634 0.0
H4360 H 0.19899 0.63735 0.50602 0.0
H4361 H 0.23018 0.6517 0.50105 0.0
H4362 H 0.19178 0.63314 0.54359 0.0
H4363 H 0.17449 0.59017 0.47934 0.0
H4364 H 0.1747 0.56323 0.45357 0.0
H4365 H 0.18699 0.52855 0.49278 0.0
H4366 H 0.18647 0.55518 0.51873 0.0
H4367 H 0.09566 0.60537 0.53888 0.0
H4368 H 0.12826 0.61807 0.53961 0.0
H4369 H 0.13731 0.56156 0.54376 0.0
H4370 H 0.10539 0.54861 0.53959 0.0
H4371 H 0.1507 0.57028 0.51651 0.0
H4372 H 0.15604 0.60575 0.57846 0.0
H4373 H 0.14972 0.62826 0.60537 0.0
H4374 H 0.15964 0.67474 0.57475 0.0
H4375 H 0.16635 0.65267 0.54776 0.0
C4376 C 0.23727 0.61202 0.51756 0.0
C4377 C 0.24131 0.62944 0.51078 0.0
C4378 C 0.21952 0.60371 0.52013 0.0
C4379 C 0.20569 0.61302 0.51642 0.0
C4380 C 0.20956 0.62993 0.50882 0.0
C4381 C 0.22729 0.63808 0.50598 0.0
C4382 C 0.18791 0.60693 0.52317 0.0
C4383 C 0.18262 0.61946 0.53766 0.0
C4384 C 0.17653 0.58874 0.51613 0.0
C4385 C 0.1808 0.57471 0.50086 0.0
C4386 C 0.17765 0.57694 0.48239 0.0
C4387 C 0.17746 0.56161 0.46779 0.0
C4388 C 0.18062 0.5441 0.47156 0.0
C4389 C 0.18441 0.54205 0.48989 0.0
C4390 C 0.18438 0.55726 0.50453 0.0
C4391 C 0.10472 0.59584 0.54029 0.0
C4392 C 0.09789 0.57601 0.53976 0.0
C4393 C 0.12337 0.60316 0.54103 0.0
C4394 C 0.13534 0.59079 0.54182 0.0
C4395 C 0.12843 0.57143 0.54307 0.0
C4396 C 0.10998 0.564 0.54108 0.0
C4397 C 0.15417 0.59644 0.53712 0.0
C4398 C 0.15977 0.58387 0.52295 0.0
C4399 C 0.16595 0.61431 0.54495 0.0
C4400 C 0.16154 0.62751 0.56102 0.0
C4401 C 0.15673 0.62073 0.5774 0.0
C4402 C 0.15311 0.63341 0.59268 0.0
C4403 C 0.15408 0.65282 0.59169 0.0
C4404 C 0.15884 0.65967 0.57548 0.0
C4405 C 0.16265 0.64712 0.56022 0.0
H4406 H 0.15123 0.66259 0.60353 0.0
H4407 H 0.18042 0.53223 0.46024 0.0
H4408 H 0.73456 1.00484 0.78121 0.0
H4409 H 0.74557 0.97528 0.7768 0.0
H4410 H 0.70935 0.95264 0.72698 0.0
H4411 H 0.69811 0.98255 0.73116 0.0
H4412 H 0.7138 0.92697 0.75719 0.0
H4413 H 0.7462 0.96304 0.71535 0.0
H4414 H 0.76189 0.99316 0.70597 0.0
H4415 H 0.80166 1.00357 0.7525 0.0
H4416 H 0.78608 0.97372 0.76235 0.0
H4417 H 0.77367 0.86669 0.7765 0.0
H4418 H 0.75755 0.88146 0.75494 0.0
H4419 H 0.78121 0.93799 0.78747 0.0
H4420 H 0.79726 0.92337 0.80885 0.0
H4421 H 0.77938 0.93789 0.74973 0.0
H4422 H 0.74209 0.91529 0.7974 0.0
H4423 H 0.72695 0.88994 0.81378 0.0
H4424 H 0.69707 0.8584 0.76256 0.0
H4425 H 0.7123 0.8835 0.74582 0.0
C4426 C 0.72874 0.99358 0.76939 0.0
C4427 C 0.71562 0.99611 0.75641 0.0
C4428 C 0.73507 0.97673 0.76689 0.0
C4429 C 0.72844 0.96214 0.75139 0.0
C4430 C 0.71464 0.96397 0.7389 0.0
C4431 C 0.70825 0.98097 0.74137 0.0
C4432 C 0.73675 0.94542 0.74858 0.0
C4433 C 0.72791 0.92872 0.7546 0.0
C4434 C 0.75524 0.94824 0.74564 0.0
C4435 C 0.765 0.96601 0.7395 0.0
C4436 C 0.75828 0.97176 0.7236 0.0
C4437 C 0.76715 0.98881 0.71821 0.0
C4438 C 0.78279 1.00023 0.72859 0.0
C4439 C 0.78958 0.99466 0.74441 0.0
C4440 C 0.78076 0.97763 0.74987 0.0
C4441 C 0.77555 0.88227 0.77882 0.0
C4442 C 0.78637 0.89393 0.79446 0.0
C4443 C 0.76644 0.89064 0.76651 0.0
C4444 C 0.76824 0.91074 0.7697 0.0
C4445 C 0.77978 0.92243 0.78476 0.0
C4446 C 0.78872 0.91409 0.7971 0.0
C4447 C 0.75661 0.91982 0.75906 0.0
C4448 C 0.76493 0.93516 0.75073 0.0
C4449 C 0.73776 0.91606 0.76036 0.0
C4450 C 0.72855 0.90103 0.77033 0.0
C4451 C 0.73242 0.90285 0.78961 0.0
C4452 C 0.72381 0.88856 0.79896 0.0
C4453 C 0.71114 0.87252 0.7892 0.0
C4454 C 0.70697 0.87079 0.77008 0.0
C4455 C 0.7156 0.88502 0.76065 0.0
H4456 H 0.70454 0.8615 0.79651 0.0
H4457 H 0.78966 0.01339 0.72437 0.0
H4458 H 0.75055 0.89194 0.53159 0.0
H4459 H 0.72226 0.90365 0.5327 0.0
H4460 H 0.75234 0.96137 0.53146 0.0
H4461 H 0.78 0.95009 0.53039 0.0
H4462 H 0.72819 0.96182 0.55703 0.0
H4463 H 0.72993 0.9302 0.49235 0.0
H4464 H 0.72913 0.90178 0.46793 0.0
H4465 H 0.67786 0.87375 0.48318 0.0
H4466 H 0.67851 0.90191 0.50789 0.0
H4467 H 0.68441 0.02254 0.51798 0.0
H4468 H 0.70261 1.00034 0.52537 0.0
H4469 H 0.6547 0.95474 0.52065 0.0
H4470 H 0.63628 0.97689 0.51243 0.0
H4471 H 0.68134 0.94136 0.50354 0.0
H4472 H 0.67666 0.97566 0.56362 0.0
H4473 H 0.67694 1.00416 0.58773 0.0
H4474 H 0.73285 0.02661 0.58188 0.0
H4475 H 0.73287 0.99838 0.55756 0.0
C4476 C 0.75106 0.90714 0.53178 0.0
C4477 C 0.76758 0.92001 0.53081 0.0
C4478 C 0.73491 0.91379 0.53231 0.0
C4479 C 0.73517 0.93342 0.5321 0.0
C4480 C 0.75173 0.94621 0.53171 0.0
C4481 C 0.76762 0.93964 0.53101 0.0
C4482 C 0.71854 0.94123 0.53176 0.0
C4483 C 0.71787 0.95726 0.54539 0.0
C4484 C 0.70468 0.9349 0.51695 0.0
C4485 C 0.7044 0.91801 0.50214 0.0
C4486 C 0.71858 0.91789 0.49062 0.0
C4487 C 0.71814 0.90185 0.47671 0.0
C4488 C 0.70349 0.88593 0.47406 0.0
C4489 C 0.68923 0.88605 0.48529 0.0
C4490 C 0.68964 0.90204 0.49926 0.0
C4491 C 0.67767 0.00778 0.51839 0.0
C4492 C 0.65886 1.00152 0.51447 0.0
C4493 C 0.68811 0.99511 0.52286 0.0
C4494 C 0.68005 0.97588 0.52384 0.0
C4495 C 0.66124 0.96953 0.52008 0.0
C4496 C 0.65072 0.98226 0.51553 0.0
C4497 C 0.69161 0.96259 0.5283 0.0
C4498 C 0.6913 0.94557 0.5155 0.0
C4499 C 0.70458 0.96795 0.54394 0.0
C4500 C 0.70474 0.98489 0.55873 0.0
C4501 C 0.689 0.98671 0.56742 0.0
C4502 C 0.68911 1.00282 0.58113 0.0
C4503 C 0.7049 0.01719 0.58633 0.0
C4504 C 0.72063 0.01546 0.57785 0.0
C4505 C 0.7206 0.99938 0.56414 0.0
H4506 H 0.70495 0.02966 0.59694 0.0
H4507 H 0.70317 0.87353 0.46327 0.0
H4508 H 0.43018 0.50107 0.78238 0.0
H4509 H 0.41295 0.46767 0.7811 0.0
H4510 H 0.36584 0.48222 0.75749 0.0
H4511 H 0.38334 0.51535 0.75786 0.0
H4512 H 0.36173 0.45872 0.79147 0.0
H4513 H 0.37946 0.45725 0.72926 0.0
H4514 H 0.40114 0.46245 0.70579 0.0
H4515 H 0.43075 0.42458 0.72658 0.0
H4516 H 0.40938 0.41942 0.75041 0.0
H4517 H 0.30381 0.36269 0.76671 0.0
H4518 H 0.32009 0.39615 0.76736 0.0
H4519 H 0.37051 0.37815 0.76832 0.0
H4520 H 0.35428 0.34475 0.76788 0.0
H4521 H 0.37294 0.40399 0.74618 0.0
H4522 H 0.35559 0.40419 0.80739 0.0
H4523 H 0.33546 0.39949 0.83229 0.0
H4524 H 0.30674 0.44007 0.81547 0.0
H4525 H 0.32651 0.44478 0.79024 0.0
C4526 C 0.41612 0.49727 0.77697 0.0
C4527 C 0.40811 0.51155 0.77103 0.0
C4528 C 0.40618 0.47798 0.77625 0.0
C4529 C 0.38774 0.47201 0.76952 0.0
C4530 C 0.37983 0.48612 0.76311 0.0
C4531 C 0.38989 0.50532 0.76351 0.0
C4532 C 0.37703 0.4511 0.7687 0.0
C4533 C 0.36401 0.44687 0.78133 0.0
C4534 C 0.38009 0.43508 0.75599 0.0
C4535 C 0.39297 0.43816 0.74177 0.0
C4536 C 0.39072 0.45022 0.72897 0.0
C4537 C 0.40292 0.45311 0.71558 0.0
C4538 C 0.41736 0.4439 0.71474 0.0
C4539 C 0.41959 0.43174 0.72728 0.0
C4540 C 0.40743 0.42882 0.74073 0.0
C4541 C 0.31833 0.36567 0.767 0.0
C4542 C 0.32741 0.35042 0.76721 0.0
C4543 C 0.32781 0.38513 0.7675 0.0
C4544 C 0.34688 0.39036 0.76807 0.0
C4545 C 0.35593 0.37507 0.7679 0.0
C4546 C 0.34648 0.35569 0.76768 0.0
C4547 C 0.35732 0.41148 0.76883 0.0
C4548 C 0.37045 0.41579 0.75627 0.0
C4549 C 0.35444 0.42756 0.78174 0.0
C4550 C 0.34236 0.42461 0.79672 0.0
C4551 C 0.34484 0.41194 0.80885 0.0
C4552 C 0.33353 0.40931 0.82306 0.0
C4553 C 0.31978 0.41942 0.82541 0.0
C4554 C 0.31735 0.43221 0.81359 0.0
C4555 C 0.32861 0.43486 0.79932 0.0
H4556 H 0.31106 0.41739 0.83645 0.0
H4557 H 0.42678 0.44614 0.70434 0.0
H4558 H 0.19384 0.60998 0.26394 0.0
H4559 H 0.21254 0.64131 0.26114 0.0
H4560 H 0.25094 0.61256 0.23356 0.0
H4561 H 0.23225 0.58124 0.23657 0.0
H4562 H 0.26727 0.63908 0.26055 0.0
H4563 H 0.2291 0.63877 0.20978 0.0
H4564 H 0.20109 0.63352 0.18931 0.0
H4565 H 0.18308 0.67661 0.22701 0.0
H4566 H 0.21082 0.68191 0.24791 0.0
H4567 H 0.31293 0.73884 0.27821 0.0
H4568 H 0.30049 0.70438 0.26767 0.0
H4569 H 0.247 0.71343 0.27734 0.0
H4570 H 0.2594 0.74818 0.28468 0.0
H4571 H 0.24349 0.69452 0.24698 0.0
H4572 H 0.27692 0.68585 0.30287 0.0
H4573 H 0.30426 0.68949 0.32403 0.0
H4574 H 0.32953 0.66188 0.27936 0.0
H4575 H 0.30241 0.6583 0.25791 0.0
C4576 C 0.20619 0.61047 0.25715 0.0
C4577 C 0.21208 0.59358 0.25105 0.0
C4578 C 0.21672 0.62824 0.25531 0.0
C4579 C 0.23297 0.62914 0.24687 0.0
C4580 C 0.2384 0.61209 0.23999 0.0
C4581 C 0.22791 0.59435 0.24196 0.0
C4582 C 0.24525 0.64806 0.24783 0.0
C4583 C 0.26217 0.65128 0.25771 0.0
C4584 C 0.23889 0.66373 0.24299 0.0
C4585 C 0.22211 0.66074 0.23045 0.0
C4586 C 0.21913 0.64707 0.21379 0.0
C4587 C 0.20329 0.64408 0.20209 0.0
C4588 C 0.19032 0.65473 0.20685 0.0
C4589 C 0.19317 0.6684 0.22332 0.0
C4590 C 0.20898 0.67143 0.23509 0.0
C4591 C 0.29853 0.73326 0.27793 0.0
C4592 C 0.28685 0.74577 0.28113 0.0
C4593 C 0.2914 0.71348 0.27238 0.0
C4594 C 0.27265 0.70609 0.27142 0.0
C4595 C 0.26141 0.71873 0.27723 0.0
C4596 C 0.26843 0.73852 0.28162 0.0
C4597 C 0.26429 0.68583 0.26267 0.0
C4598 C 0.24853 0.68245 0.25048 0.0
C4599 C 0.27152 0.66996 0.26584 0.0
C4600 C 0.28774 0.672 0.27877 0.0
C4601 C 0.28835 0.68065 0.29756 0.0
C4602 C 0.3038 0.6827 0.3096 0.0
C4603 C 0.31864 0.67597 0.30302 0.0
C4604 C 0.31804 0.66712 0.28442 0.0
C4605 C 0.30264 0.66507 0.27232 0.0
H4606 H 0.33059 0.67758 0.31235 0.0
H4607 H 0.17806 0.6524 0.19777 0.0
H4608 H 0.53288 0.7359 0.471 0.0
H4609 H 0.5371 0.70743 0.48316 0.0
H4610 H 0.51619 0.67132 0.43014 0.0
H4611 H 0.51188 0.70008 0.41779 0.0
H4612 H 0.50274 0.65354 0.45805 0.0
H4613 H 0.56206 0.6832 0.44518 0.0
H4614 H 0.58901 0.7095 0.44636 0.0
H4615 H 0.59614 0.71573 0.50579 0.0
H4616 H 0.56906 0.68965 0.50501 0.0
H4617 H 0.53646 0.57144 0.47747 0.0
H4618 H 0.5341 0.60006 0.46401 0.0
H4619 H 0.53974 0.63438 0.51905 0.0
H4620 H 0.54141 0.60551 0.53255 0.0
H4621 H 0.56183 0.65244 0.48947 0.0
H4622 H 0.50011 0.62948 0.50293 0.0
H4623 H 0.47391 0.60309 0.5038 0.0
H4624 H 0.473 0.58379 0.44491 0.0
H4625 H 0.49903 0.61063 0.44367 0.0
C4626 C 0.52915 0.72195 0.4618 0.0
C4627 C 0.52205 0.72052 0.44327 0.0
C4628 C 0.53169 0.70554 0.46882 0.0
C4629 C 0.52726 0.68695 0.45765 0.0
C4630 C 0.51986 0.68537 0.43919 0.0
C4631 C 0.51742 0.7019 0.43206 0.0
C4632 C 0.53029 0.66941 0.46536 0.0
C4633 C 0.51581 0.65333 0.46457 0.0
C4634 C 0.54714 0.66887 0.4745 0.0
C4635 C 0.56341 0.6846 0.47505 0.0
C4636 C 0.56927 0.69029 0.45852 0.0
C4637 C 0.58459 0.70514 0.45912 0.0
C4638 C 0.59425 0.71431 0.47615 0.0
C4639 C 0.58863 0.70863 0.49262 0.0
C4640 C 0.5733 0.6938 0.4921 0.0
C4641 C 0.53739 0.58513 0.4867 0.0
C4642 C 0.53945 0.58622 0.5061 0.0
C4643 C 0.536 0.60153 0.47898 0.0
C4644 C 0.53683 0.6196 0.49042 0.0
C4645 C 0.53917 0.62076 0.50983 0.0
C4646 C 0.54012 0.60422 0.51756 0.0
C4647 C 0.53434 0.63685 0.48206 0.0
C4648 C 0.54887 0.65277 0.48277 0.0
C4649 C 0.51761 0.63736 0.47294 0.0
C4650 C 0.50151 0.62187 0.47324 0.0
C4651 C 0.4943 0.61959 0.49018 0.0
C4652 C 0.47953 0.6045 0.49074 0.0
C4653 C 0.47201 0.59144 0.47448 0.0
C4654 C 0.47897 0.59379 0.45752 0.0
C4655 C 0.49364 0.60904 0.45685 0.0
H4656 H 0.4606 0.57971 0.47495 0.0
H4657 H 0.60612 0.7258 0.47657 0.0
H4658 H 0.62846 0.32874 0.67427 0.0
H4659 H 0.65584 0.32582 0.69144 0.0
H4660 H 0.67623 0.30517 0.6399 0.0
H4661 H 0.6485 0.30758 0.62265 0.0
H4662 H 0.68368 0.28429 0.66374 0.0
H4663 H 0.69311 0.35299 0.66781 0.0
H4664 H 0.68587 0.38516 0.6746 0.0
H4665 H 0.68165 0.38003 0.73186 0.0
H4666 H 0.68867 0.34773 0.72536 0.0
H4667 H 0.77401 0.29461 0.70572 0.0
H4668 H 0.7476 0.29805 0.68694 0.0
H4669 H 0.72228 0.31292 0.73689 0.0
H4670 H 0.74814 0.30874 0.75552 0.0
H4671 H 0.7182 0.33713 0.71315 0.0
H4672 H 0.70873 0.26859 0.70918 0.0
H4673 H 0.71678 0.23682 0.70281 0.0
H4674 H 0.72165 0.24186 0.64561 0.0
H4675 H 0.71389 0.27384 0.65172 0.0
C4676 C 0.63884 0.32383 0.66649 0.0
C4677 C 0.63617 0.31864 0.64694 0.0
C4678 C 0.65465 0.32218 0.6764 0.0
C4679 C 0.66855 0.31552 0.66715 0.0
C4680 C 0.66593 0.31041 0.64758 0.0
C4681 C 0.65004 0.31196 0.63764 0.0
C4682 C 0.68549 0.31354 0.67787 0.0
C4683 C 0.69134 0.29603 0.67431 0.0
C4684 C 0.69555 0.32851 0.69212 0.0
C4685 C 0.69124 0.34787 0.69605 0.0
C4686 C 0.6905 0.35867 0.68181 0.0
C4687 C 0.68646 0.37694 0.68562 0.0
C4688 C 0.68325 0.38461 0.70363 0.0
C4689 C 0.68412 0.37406 0.7179 0.0
C4690 C 0.68814 0.35578 0.71417 0.0
C4691 C 0.76287 0.29867 0.71277 0.0
C4692 C 0.7637 0.302 0.73238 0.0
C4693 C 0.74766 0.30059 0.70194 0.0
C4694 C 0.73275 0.30586 0.71036 0.0
C4695 C 0.73356 0.30912 0.7299 0.0
C4696 C 0.74863 0.307 0.74067 0.0
C4697 C 0.71633 0.30796 0.69899 0.0
C4698 C 0.71057 0.32546 0.70249 0.0
C4699 C 0.7064 0.293 0.68472 0.0
C4700 C 0.71091 0.27371 0.68095 0.0
C4701 C 0.71166 0.263 0.69528 0.0
C4702 C 0.71615 0.24494 0.69171 0.0
C4703 C 0.71978 0.23735 0.67383 0.0
C4704 C 0.71887 0.24778 0.65947 0.0
C4705 C 0.71441 0.26587 0.66297 0.0
H4706 H 0.72326 0.22337 0.6711 0.0
H4707 H 0.68014 0.39876 0.70655 0.0
H4708 H 0.05292 0.3442 0.93511 0.0
H4709 H 0.05571 0.37723 0.95213 0.0
H4710 H 0.00876 0.35766 0.98004 0.0
H4711 H 0.00639 0.32434 0.96358 0.0
H4712 H 0.02427 0.39569 0.94858 0.0
H4713 H 0.0204 0.37137 0.01127 0.0
H4714 H 0.03348 0.35383 0.03277 0.0
H4715 H 0.08647 0.38737 0.02865 0.0
H4716 H 0.0737 0.40471 0.00674 0.0
H4717 H 0.0196 0.49011 0.98332 0.0
H4718 H 0.01233 0.45502 0.97801 0.0
H4719 H 0.05925 0.45668 0.01472 0.0
H4720 H 0.06312 0.49166 0.02382 0.0
H4721 H 0.04321 0.42565 0.01461 0.0
H4722 H 0.05296 0.45218 0.95848 0.0
H4723 H 0.04703 0.47102 0.93449 0.0
H4724 H 0.99325 0.43588 0.9218 0.0
H4725 H 0.99881 0.41698 0.94582 0.0
C4726 C 0.04355 0.34681 0.94536 0.0
C4727 C 0.02959 0.33156 0.94818 0.0
C4728 C 0.04515 0.36573 0.95508 0.0
C4729 C 0.03269 0.37002 0.96771 0.0
C4730 C 0.01896 0.35473 0.97093 0.0
C4731 C 0.01757 0.33564 0.96145 0.0
C4732 C 0.03277 0.39072 0.9754 0.0
C4733 C 0.02818 0.40225 0.96308 0.0
C4734 C 0.03866 0.39956 0.99407 0.0
C4735 C 0.04615 0.38901 0.00711 0.0
C4736 C 0.03486 0.37474 0.01469 0.0
C4737 C 0.04221 0.36489 0.02701 0.0
C4738 C 0.06081 0.3694 0.032 0.0
C4739 C 0.07209 0.3838 0.02471 0.0
C4740 C 0.06481 0.3936 0.01232 0.0
C4741 C 0.02731 0.48291 0.9915 0.0
C4742 C 0.04099 0.49372 1.00507 0.0
C4743 C 0.02387 0.46263 0.98761 0.0
C4744 C 0.0358 0.45258 0.99495 0.0
C4745 C 0.0496 0.4635 0.00863 0.0
C4746 C 0.05188 0.48369 0.0139 0.0
C4747 C 0.0345 0.43117 0.9878 0.0
C4748 C 0.03906 0.41939 1.00011 0.0
C4749 C 0.02941 0.42225 0.96878 0.0
C4750 C 0.02625 0.43331 0.95404 0.0
C4751 C 0.03988 0.4485 0.95056 0.0
C4752 C 0.03657 0.4592 0.93699 0.0
C4753 C 0.01976 0.45468 0.92667 0.0
C4754 C 0.00626 0.43939 0.92982 0.0
C4755 C 0.00948 0.42867 0.94339 0.0
H4756 H 0.01722 0.46302 0.9162 0.0
H4757 H 0.06647 0.36181 0.04157 0.0
H4758 H 0.04713 0.81131 0.16398 0.0
H4759 H 0.02126 0.80918 0.18262 0.0
H4760 H 0.98634 0.80877 0.13421 0.0
H4761 H 0.01209 0.81082 0.11544 0.0
H4762 H 0.97749 0.83121 0.16523 0.0
H4763 H 0.9862 0.76751 0.14784 0.0
H4764 H 1.00294 0.74149 0.14368 0.0
H4765 H 0.01549 0.75018 0.20277 0.0
H4766 H 0.99906 0.7765 0.20728 0.0
H4767 H 0.89608 0.78939 0.20743 0.0
H4768 H 0.91961 0.79575 0.18604 0.0
H4769 H 0.9607 0.80403 0.23124 0.0
H4770 H 0.93762 0.7987 0.25268 0.0
H4771 H 0.9645 0.77653 0.19937 0.0
H4772 H 0.95473 0.84143 0.21542 0.0
H4773 H 0.93638 0.86603 0.21773 0.0
H4774 H 0.92352 0.85289 0.15853 0.0
H4775 H 0.94155 0.82796 0.1559 0.0
C4776 C 0.03401 0.81099 0.15729 0.0
C4777 C 0.03181 0.81118 0.13811 0.0
C4778 C 0.01916 0.80968 0.16799 0.0
C4779 C 1.00172 0.80864 0.15985 0.0
C4780 C 0.99959 0.80955 0.14088 0.0
C4781 C 0.01439 0.81066 0.13013 0.0
C4782 C 0.98568 0.80571 0.17096 0.0
C4783 C 0.97454 0.81912 0.1725 0.0
C4784 C 0.98165 0.78992 0.18047 0.0
C4785 C 0.99157 0.77413 0.17788 0.0
C4786 C 0.99267 0.764 0.15994 0.0
C4787 C 1.00208 0.74918 0.15752 0.0
C4788 C 0.01031 0.74422 0.17295 0.0
C4789 C 0.00913 0.75406 0.19083 0.0
C4790 C 0.99977 0.76893 0.19333 0.0
C4791 C 0.91011 0.79295 0.21291 0.0
C4792 C 0.9148 0.79308 0.23184 0.0
C4793 C 0.92358 0.79648 0.20061 0.0
C4794 C 0.94199 0.80012 0.20696 0.0
C4795 C 0.94664 0.80098 0.22591 0.0
C4796 C 0.93332 0.79778 0.23817 0.0
C4797 C 0.95658 0.80226 0.19401 0.0
C4798 C 0.96743 0.78861 0.19206 0.0
C4799 C 0.96009 0.81762 0.18392 0.0
C4800 C 0.9493 0.83264 0.18549 0.0
C4801 C 0.94783 0.84363 0.20292 0.0
C4802 C 0.93752 0.85767 0.20428 0.0
C4803 C 0.92873 0.86097 0.18829 0.0
C4804 C 0.93029 0.85028 0.1709 0.0
C4805 C 0.94056 0.8362 0.16947 0.0
H4806 H 0.92076 0.87185 0.18936 0.0
H4807 H 0.01758 0.73272 0.17105 0.0
H4808 H 0.52169 0.32613 0.14567 0.0
H4809 H 0.53038 0.35437 0.13075 0.0
H4810 H 0.49876 0.32274 0.08021 0.0
H4811 H 0.48963 0.29467 0.09492 0.0
H4812 H 0.54204 0.34183 0.08323 0.0
H4813 H 0.48029 0.35036 0.09298 0.0
H4814 H 0.45643 0.35445 0.11378 0.0
H4815 H 0.49161 0.40514 0.14646 0.0
H4816 H 0.5158 0.40113 0.12597 0.0
H4817 H 0.53838 0.39652 0.01375 0.0
H4818 H 0.52972 0.37514 0.03595 0.0
H4819 H 0.54916 0.42285 0.08158 0.0
H4820 H 0.55856 0.44421 0.05958 0.0
H4821 H 0.5148 0.39905 0.08566 0.0
H4822 H 0.57466 0.39444 0.07461 0.0
H4823 H 0.60016 0.39105 0.05593 0.0
H4824 H 0.57142 0.33425 0.02882 0.0
H4825 H 0.5456 0.33744 0.04714 0.0
C4826 C 0.51637 0.3253 0.13147 0.0
C4827 C 0.50509 0.30815 0.12141 0.0
C4828 C 0.5213 0.34141 0.12306 0.0
C4829 C 0.51511 0.34042 0.10452 0.0
C4830 C 0.5035 0.32361 0.09461 0.0
C4831 C 0.49834 0.30764 0.10305 0.0
C4832 C 0.52197 0.35622 0.09477 0.0
C4833 C 0.53608 0.35432 0.08365 0.0
C4834 C 0.51452 0.3727 0.09604 0.0
C4835 C 0.4999 0.37532 0.10809 0.0
C4836 C 0.48299 0.36226 0.1047 0.0
C4837 C 0.4694 0.36459 0.11641 0.0
C4838 C 0.47252 0.38001 0.13147 0.0
C4839 C 0.48922 0.39318 0.1348 0.0
C4840 C 0.50287 0.3909 0.12314 0.0
C4841 C 0.54103 0.40242 0.02848 0.0
C4842 C 0.54922 0.42202 0.03486 0.0
C4843 C 0.53591 0.39027 0.04112 0.0
C4844 C 0.53886 0.39753 0.0603 0.0
C4845 C 0.54671 0.41711 0.06679 0.0
C4846 C 0.55202 0.42924 0.05417 0.0
C4847 C 0.53444 0.38428 0.07347 0.0
C4848 C 0.52091 0.38669 0.08535 0.0
C4849 C 0.54262 0.36835 0.07314 0.0
C4850 C 0.55813 0.36625 0.06213 0.0
C4851 C 0.57371 0.38129 0.06455 0.0
C4852 C 0.58824 0.3794 0.05404 0.0
C4853 C 0.5874 0.36246 0.04116 0.0
C4854 C 0.57204 0.34737 0.03879 0.0
C4855 C 0.55746 0.3492 0.04925 0.0
H4856 H 0.59866 0.36102 0.03304 0.0
H4857 H 0.46198 0.38178 0.14053 0.0
H4858 H 0.04863 0.31392 0.35134 0.0
H4859 H 0.01966 0.31905 0.34012 0.0
H4860 H 0.01418 0.3489 0.39505 0.0
H4861 H 0.04467 0.34676 0.40523 0.0
H4862 H 0.98944 0.30383 0.35491 0.0
H4863 H 0.99729 0.37052 0.39358 0.0
H4864 H 0.01374 0.40419 0.40535 0.0
H4865 H 0.01976 0.4132 0.34936 0.0
H4866 H 0.00477 0.37904 0.33739 0.0
H4867 H 0.90641 0.3063 0.30866 0.0
H4868 H 0.9297 0.30927 0.33337 0.0
H4869 H 0.96483 0.35266 0.30976 0.0
H4870 H 0.9406 0.35205 0.28668 0.0
H4871 H 0.96994 0.36283 0.34395 0.0
H4872 H 0.96644 0.29895 0.30426 0.0
H4873 H 0.95088 0.26571 0.28934 0.0
H4874 H 0.93566 0.25311 0.34232 0.0
H4875 H 0.95136 0.28622 0.35756 0.0
C4876 C 0.04178 0.32283 0.36055 0.0
C4877 C 0.04936 0.33123 0.37861 0.0
C4878 C 0.02508 0.32545 0.35431 0.0
C4879 C 0.015 0.3353 0.36648 0.0
C4880 C 0.02212 0.34268 0.38496 0.0
C4881 C 0.03936 0.34098 0.39091 0.0
C4882 C 0.99623 0.33503 0.35996 0.0
C4883 C 0.98504 0.31678 0.35278 0.0
C4884 C 0.99037 0.3519 0.35736 0.0
C4885 C 1.00096 0.37182 0.36468 0.0
C4886 C 1.00305 0.37933 0.38384 0.0
C4887 C 0.01196 0.39858 0.39054 0.0
C4888 C 0.01812 0.41075 0.37813 0.0
C4889 C 0.01525 0.4037 0.359 0.0
C4890 C 0.0068 0.3843 0.35227 0.0
C4891 C 0.91882 0.317 0.30896 0.0
C4892 C 0.92138 0.32913 0.29561 0.0
C4893 C 0.93238 0.31829 0.32294 0.0
C4894 C 0.94921 0.33089 0.32328 0.0
C4895 C 0.95193 0.34282 0.30987 0.0
C4896 C 0.93811 0.34218 0.29638 0.0
C4897 C 0.9642 0.33168 0.33734 0.0
C4898 C 0.97428 0.34991 0.34628 0.0
C4899 C 0.96937 0.31484 0.34115 0.0
C4900 C 0.95986 0.29506 0.33198 0.0
C4901 C 0.95972 0.28909 0.31268 0.0
C4902 C 0.95094 0.27026 0.3042 0.0
C4903 C 0.94221 0.25733 0.31486 0.0
C4904 C 0.94239 0.26315 0.33407 0.0
C4905 C 0.95129 0.2819 0.34265 0.0
H4906 H 0.93532 0.24281 0.30824 0.0
H4907 H 0.02486 0.42569 0.38332 0.0
H4908 H 0.00649 0.7079 0.66169 0.0
H4909 H 0.00644 0.67527 0.64597 0.0
H4910 H 0.98545 0.68755 0.59456 0.0
H4911 H 0.98583 0.72066 0.61013 0.0
H4912 H 0.9728 0.64647 0.60158 0.0
H4913 H 0.02163 0.69143 0.59114 0.0
H4914 H 0.04843 0.7176 0.59179 0.0
H4915 H 0.07709 0.69405 0.63106 0.0
H4916 H 0.05017 0.66797 0.63107 0.0
H4917 H 0.02656 0.59554 0.54092 0.0
H4918 H 0.01143 0.61877 0.5573 0.0
H4919 H 0.02195 0.59911 0.60837 0.0
H4920 H 0.03637 0.57478 0.59162 0.0
H4921 H 0.03694 0.64198 0.60076 0.0
H4922 H 0.98307 0.59009 0.59753 0.0
H4923 H 0.9607 0.56312 0.57829 0.0
H4924 H 0.94415 0.60244 0.54644 0.0
H4925 H 0.96673 0.62959 0.5652 0.0
C4926 C 1.00139 0.70358 0.64716 0.0
C4927 C 0.99648 0.71692 0.63703 0.0
C4928 C 1.00133 0.6849 0.63824 0.0
C4929 C 0.9961 0.67921 0.61916 0.0
C4930 C 0.98947 0.6918 0.60934 0.0
C4931 C 0.98978 0.71068 0.61823 0.0
C4932 C 1.00054 0.66153 0.60927 0.0
C4933 C 0.98678 0.64541 0.60142 0.0
C4934 C 0.0188 0.66049 0.60842 0.0
C4935 C 0.03372 0.67799 0.61144 0.0
C4936 C 0.03338 0.69224 0.60049 0.0
C4937 C 0.04866 0.70693 0.60056 0.0
C4938 C 0.06445 0.70742 0.61136 0.0
C4939 C 0.06482 0.69363 0.62267 0.0
C4940 C 0.04951 0.67895 0.62274 0.0
C4941 C 0.0251 0.59552 0.55536 0.0
C4942 C 0.03245 0.58308 0.56476 0.0
C4943 C 0.01645 0.60886 0.56475 0.0
C4944 C 0.01524 0.61017 0.58384 0.0
C4945 C 0.02249 0.59786 0.59348 0.0
C4946 C 0.03092 0.58423 0.58394 0.0
C4947 C 0.00932 0.62668 0.594 0.0
C4948 C 0.02292 0.64281 0.60166 0.0
C4949 C 0.99106 0.62801 0.59317 0.0
C4950 C 0.97663 0.61189 0.58278 0.0
C4951 C 0.97469 0.59299 0.58641 0.0
C4952 C 0.96199 0.57766 0.57556 0.0
C4953 C 0.95101 0.58106 0.56115 0.0
C4954 C 0.95265 0.59983 0.55763 0.0
C4955 C 0.96538 0.6152 0.56839 0.0
H4956 H 0.94124 0.56916 0.55272 0.0
H4957 H 0.07644 0.71838 0.61076 0.0
H4958 H 0.64416 0.84654 0.84519 0.0
H4959 H 0.67245 0.84372 0.83258 0.0
H4960 H 0.67244 0.79293 0.85667 0.0
H4961 H 0.64365 0.79557 0.86954 0.0
H4962 H 0.70672 0.8221 0.86012 0.0
H4963 H 0.6589 0.78511 0.81457 0.0
H4964 H 0.62991 0.78106 0.79603 0.0
H4965 H 0.65327 0.82735 0.76852 0.0
H4966 H 0.68228 0.83192 0.78713 0.0
H4967 H 0.7775 0.80076 0.81005 0.0
H4968 H 0.74996 0.80014 0.82493 0.0
H4969 H 0.73283 0.83466 0.78737 0.0
H4970 H 0.75964 0.83261 0.77051 0.0
H4971 H 0.7059 0.81072 0.79129 0.0
H4972 H 0.75152 0.85153 0.8387 0.0
H4973 H 0.77972 0.85926 0.85944 0.0
H4974 H 0.76066 0.80959 0.88412 0.0
H4975 H 0.73228 0.80156 0.86366 0.0
C4976 C 0.6501 0.83473 0.84788 0.0
C4977 C 0.64154 0.82099 0.858 0.0
C4978 C 0.66628 0.83322 0.8407 0.0
C4979 C 0.67415 0.81791 0.84342 0.0
C4980 C 0.66629 0.80472 0.85437 0.0
C4981 C 0.64995 0.80624 0.86167 0.0
C4982 C 0.69031 0.81566 0.83411 0.0
C4983 C 0.70664 0.81929 0.84508 0.0
C4984 C 0.68994 0.81261 0.81451 0.0
C4985 C 0.67277 0.80901 0.80244 0.0
C4986 C 0.65785 0.79449 0.80463 0.0
C4987 C 0.64139 0.7921 0.79411 0.0
C4988 C 0.63973 0.80398 0.78115 0.0
C4989 C 0.65456 0.81817 0.77859 0.0
C4990 C 0.67103 0.82066 0.78912 0.0
C4991 C 0.76772 0.80794 0.80475 0.0
C4992 C 0.77028 0.81623 0.78884 0.0
C4993 C 0.75215 0.8081 0.81366 0.0
C4994 C 0.73944 0.81785 0.80773 0.0
C4995 C 0.7424 0.82695 0.79221 0.0
C4996 C 0.75772 0.82599 0.7827 0.0
C4997 C 0.72277 0.81775 0.81728 0.0
C4998 C 0.70621 0.81355 0.80633 0.0
C4999 C 0.72295 0.82071 0.83697 0.0
C5000 C 0.73984 0.8259 0.84958 0.0
C5001 C 0.75335 0.84226 0.84854 0.0
C5002 C 0.76937 0.84667 0.86022 0.0
C5003 C 0.77204 0.83488 0.87297 0.0
C5004 C 0.7586 0.81871 0.87422 0.0
C5005 C 0.74251 0.81426 0.86266 0.0
H5006 H 0.7845 0.83832 0.88192 0.0
H5007 H 0.62696 0.80215 0.77307 0.0
H5008 H 0.48526 0.57714 0.73068 0.0
H5009 H 0.49958 0.57506 0.70148 0.0
H5010 H 0.44749 0.55228 0.67085 0.0
H5011 H 0.4332 0.55379 0.70029 0.0
H5012 H 0.46776 0.53483 0.65172 0.0
H5013 H 0.4797 0.60364 0.67487 0.0
H5014 H 0.49135 0.63381 0.69765 0.0
H5015 H 0.54461 0.62275 0.69799 0.0
H5016 H 0.53324 0.59241 0.67537 0.0
H5017 H 0.49874 0.54311 0.56137 0.0
H5018 H 0.48498 0.54618 0.5908 0.0
H5019 H 0.53738 0.5705 0.62032 0.0
H5020 H 0.55111 0.56812 0.59061 0.0
H5021 H 0.51743 0.5871 0.64028 0.0
H5022 H 0.50671 0.51906 0.61811 0.0
H5023 H 0.49618 0.48836 0.59581 0.0
H5024 H 0.44206 0.49701 0.59437 0.0
H5025 H 0.45231 0.52786 0.61657 0.0
C5026 C 0.47666 0.5718 0.71781 0.0
C5027 C 0.45772 0.56588 0.71854 0.0
C5028 C 0.48503 0.57073 0.70067 0.0
C5029 C 0.47505 0.5639 0.68294 0.0
C5030 C 0.45608 0.55777 0.68371 0.0
C5031 C 0.44771 0.55875 0.70089 0.0
C5032 C 0.48414 0.56283 0.66399 0.0
C5033 C 0.47841 0.54657 0.64937 0.0
C5034 C 0.49872 0.57744 0.66005 0.0
C5035 C 0.50558 0.59568 0.67357 0.0
C5036 C 0.49388 0.6076 0.67989 0.0
C5037 C 0.50043 0.62473 0.69276 0.0
C5038 C 0.5187 0.63017 0.6993 0.0
C5039 C 0.53046 0.61851 0.69294 0.0
C5040 C 0.52397 0.60135 0.68008 0.0
C5041 C 0.50753 0.54924 0.57402 0.0
C5042 C 0.52639 0.55534 0.57284 0.0
C5043 C 0.49949 0.55078 0.59131 0.0
C5044 C 0.50973 0.55814 0.60883 0.0
C5045 C 0.52859 0.56462 0.60764 0.0
C5046 C 0.53664 0.56324 0.59027 0.0
C5047 C 0.50093 0.55918 0.62795 0.0
C5048 C 0.50673 0.57539 0.64261 0.0
C5049 C 0.48656 0.54444 0.63202 0.0
C5050 C 0.48031 0.52585 0.61884 0.0
C5051 C 0.49258 0.51445 0.61296 0.0
C5052 C 0.48666 0.49703 0.60034 0.0
C5053 C 0.46848 0.49078 0.59361 0.0
C5054 C 0.45615 0.50189 0.59957 0.0
C5055 C 0.462 0.51933 0.61219 0.0
H5056 H 0.46393 0.4773 0.58382 0.0
H5057 H 0.52375 0.64343 0.70927 0.0
H5058 H 0.80388 0.19953 0.98758 0.0
H5059 H 0.80603 0.21968 0.9638 0.0
H5060 H 0.78804 0.16872 0.92122 0.0
H5061 H 0.7859 0.14832 0.94483 0.0
H5062 H 0.81636 0.1959 0.91184 0.0
H5063 H 0.7584 0.19341 0.93719 0.0
H5064 H 0.73853 0.19776 0.96234 0.0
H5065 H 0.76404 0.25822 0.97628 0.0
H5066 H 0.78424 0.25417 0.95136 0.0
H5067 H 0.7697 0.22312 0.8381 0.0
H5068 H 0.78194 0.20975 0.8633 0.0
H5069 H 0.79781 0.26701 0.89685 0.0
H5070 H 0.78558 0.28045 0.87166 0.0
H5071 H 0.77526 0.24113 0.91336 0.0
H5072 H 0.82947 0.24487 0.88456 0.0
H5073 H 0.85064 0.24098 0.86064 0.0
H5074 H 0.83369 0.17916 0.85392 0.0
H5075 H 0.81198 0.18264 0.87733 0.0
C5076 C 0.80059 0.19253 0.97314 0.0
C5077 C 0.79458 0.17231 0.96809 0.0
C5078 C 0.8018 0.2041 0.95962 0.0
C5079 C 0.79701 0.19562 0.94089 0.0
C5080 C 0.79179 0.17544 0.93568 0.0
C5081 C 0.79053 0.16384 0.94918 0.0
C5082 C 0.79648 0.20778 0.92673 0.0
C5083 C 0.80731 0.20571 0.912 0.0
C5084 C 0.78512 0.22104 0.92755 0.0
C5085 C 0.77298 0.22344 0.94256 0.0
C5086 C 0.75989 0.20759 0.94573 0.0
C5087 C 0.74854 0.21001 0.95992 0.0
C5088 C 0.75006 0.22824 0.97094 0.0
C5089 C 0.7629 0.2441 0.96776 0.0
C5090 C 0.7743 0.24175 0.9536 0.0
C5091 C 0.77609 0.23285 0.85075 0.0
C5092 C 0.77655 0.25273 0.85312 0.0
C5093 C 0.78322 0.22526 0.86502 0.0
C5094 C 0.79079 0.23745 0.88185 0.0
C5095 C 0.79208 0.25745 0.88389 0.0
C5096 C 0.78512 0.26507 0.86954 0.0
C5097 C 0.79484 0.22892 0.89805 0.0
C5098 C 0.78458 0.2316 0.91323 0.0
C5099 C 0.80673 0.21623 0.89761 0.0
C5100 C 0.81897 0.21404 0.88265 0.0
C5101 C 0.83 0.23044 0.87776 0.0
C5102 C 0.84215 0.22831 0.86432 0.0
C5103 C 0.84353 0.20985 0.8558 0.0
C5104 C 0.83265 0.19347 0.86058 0.0
C5105 C 0.82036 0.19551 0.87387 0.0
H5106 H 0.85299 0.20822 0.84544 0.0
H5107 H 0.74125 0.23009 0.9819 0.0
H5108 H 0.14619 0.55014 0.21286 0.0
H5109 H 0.12831 0.54879 0.18391 0.0
H5110 H 0.15708 0.50872 0.15512 0.0
H5111 H 0.17607 0.51126 0.1842 0.0
H5112 H 0.15025 0.53412 0.13403 0.0
H5113 H 0.11462 0.49276 0.1712 0.0
H5114 H 0.10126 0.48614 0.20006 0.0
H5115 H 0.07243 0.53126 0.19883 0.0
H5116 H 0.08576 0.53827 0.17009 0.0
H5117 H 0.08539 0.5094 0.05717 0.0
H5118 H 0.10324 0.50497 0.08429 0.0
H5119 H 0.07943 0.54544 0.11971 0.0
H5120 H 0.06128 0.54939 0.09265 0.0
H5121 H 0.08381 0.51649 0.13628 0.0
H5122 H 0.11949 0.56039 0.10248 0.0
H5123 H 0.13163 0.56927 0.0738 0.0
H5124 H 0.15975 0.52307 0.06915 0.0
H5125 H 0.14757 0.51376 0.09772 0.0
C5126 C 0.14864 0.54104 0.20032 0.0
C5127 C 0.16201 0.53037 0.20058 0.0
C5128 C 0.13847 0.54027 0.18385 0.0
C5129 C 0.14097 0.52811 0.16759 0.0
C5130 C 0.15484 0.51796 0.16766 0.0
C5131 C 0.16552 0.51927 0.18415 0.0
C5132 C 0.12857 0.52565 0.15083 0.0
C5133 C 0.13574 0.5299 0.13438 0.0
C5134 C 0.10963 0.52068 0.15154 0.0
C5135 C 0.10122 0.51605 0.16853 0.0
C5136 C 0.10545 0.50127 0.17711 0.0
C5137 C 0.09789 0.49747 0.19345 0.0
C5138 C 0.08602 0.50828 0.20128 0.0
C5139 C 0.08161 0.52288 0.19274 0.0
C5140 C 0.08913 0.52674 0.17641 0.0
C5141 C 0.08364 0.51679 0.0709 0.0
C5142 C 0.0719 0.5294 0.07319 0.0
C5143 C 0.09388 0.51442 0.08625 0.0
C5144 C 0.0928 0.52513 0.10383 0.0
C5145 C 0.08035 0.53702 0.10619 0.0
C5146 C 0.06992 0.53916 0.09086 0.0
C5147 C 0.10546 0.52506 0.11959 0.0
C5148 C 0.09833 0.52039 0.13585 0.0
C5149 C 0.12437 0.53004 0.11877 0.0
C5150 C 0.1325 0.53627 0.10216 0.0
C5151 C 0.12825 0.55211 0.09534 0.0
C5152 C 0.13512 0.55721 0.07909 0.0
C5153 C 0.14642 0.5467 0.06964 0.0
C5154 C 0.15099 0.53118 0.0765 0.0
C5155 C 0.14413 0.526 0.09274 0.0
H5156 H 0.15164 0.55059 0.057 0.0
H5157 H 0.08022 0.50534 0.21395 0.0
H5158 H 0.78778 0.88491 0.46389 0.0
H5159 H 0.78683 0.86625 0.43244 0.0
H5160 H 0.82262 0.83371 0.45284 0.0
H5161 H 0.82309 0.85193 0.48454 0.0
H5162 H 0.83408 0.85406 0.42193 0.0
H5163 H 0.78454 0.80912 0.4387 0.0
H5164 H 0.75515 0.79867 0.45075 0.0
H5165 H 0.72887 0.81991 0.40787 0.0
H5166 H 0.75816 0.8308 0.39573 0.0
H5167 H 0.80422 0.78387 0.32551 0.0
H5168 H 0.80694 0.79138 0.3599 0.0
H5169 H 0.81135 0.85175 0.35804 0.0
H5170 H 0.80959 0.84458 0.32427 0.0
H5171 H 0.78158 0.81212 0.38109 0.0
H5172 H 0.83531 0.87098 0.37894 0.0
H5173 H 0.86538 0.8829 0.36885 0.0
H5174 H 0.88373 0.83551 0.38612 0.0
H5175 H 0.85341 0.82277 0.39536 0.0
C5176 C 0.79506 0.87342 0.46176 0.0
C5177 C 0.80541 0.86979 0.47671 0.0
C5178 C 0.79451 0.86276 0.44377 0.0
C5179 C 0.80463 0.84855 0.44025 0.0
C5180 C 0.81461 0.84452 0.45525 0.0
C5181 C 0.81478 0.85485 0.47337 0.0
C5182 C 0.80617 0.83944 0.4207 0.0
C5183 C 0.82263 0.84467 0.4131 0.0
C5184 C 0.79124 0.82731 0.40906 0.0
C5185 C 0.7736 0.82094 0.41641 0.0
C5186 C 0.77253 0.81177 0.43196 0.0
C5187 C 0.75587 0.80571 0.43878 0.0
C5188 C 0.74016 0.80866 0.43011 0.0
C5189 C 0.74106 0.81765 0.41458 0.0
C5190 C 0.75769 0.82375 0.40772 0.0
C5191 C 0.80645 0.7988 0.33254 0.0
C5192 C 0.80705 0.81369 0.32218 0.0
C5193 C 0.80787 0.80308 0.35216 0.0
C5194 C 0.80988 0.82227 0.36167 0.0
C5195 C 0.81063 0.83701 0.35123 0.0
C5196 C 0.8094 0.83282 0.33183 0.0
C5197 C 0.80941 0.82704 0.38229 0.0
C5198 C 0.79309 0.82117 0.39005 0.0
C5199 C 0.82435 0.83885 0.39411 0.0
C5200 C 0.84199 0.84558 0.38718 0.0
C5201 C 0.84561 0.86279 0.38002 0.0
C5202 C 0.8627 0.86973 0.37453 0.0
C5203 C 0.87642 0.85986 0.37667 0.0
C5204 C 0.87306 0.84306 0.38433 0.0
C5205 C 0.85586 0.83582 0.38945 0.0
H5206 H 0.88969 0.86532 0.37253 0.0
H5207 H 0.72727 0.80394 0.4354 0.0
H5208 H 0.43303 0.56802 0.84881 0.0
H5209 H 0.44949 0.56431 0.87679 0.0
H5210 H 0.49657 0.56238 0.84722 0.0
H5211 H 0.47962 0.56548 0.81853 0.0
H5212 H 0.49921 0.54017 0.8704 0.0
H5213 H 0.49004 0.60342 0.88554 0.0
H5214 H 0.47435 0.63032 0.88944 0.0
H5215 H 0.44057 0.60317 0.92702 0.0
H5216 H 0.45595 0.57598 0.9232 0.0
H5217 H 0.55094 0.5458 0.96118 0.0
H5218 H 0.53874 0.54942 0.93031 0.0
H5219 H 0.48748 0.55163 0.95162 0.0
H5220 H 0.49958 0.54828 0.98197 0.0
H5221 H 0.4901 0.57599 0.93171 0.0
H5222 H 0.49806 0.50814 0.90719 0.0
H5223 H 0.51605 0.48337 0.90007 0.0
H5224 H 0.55718 0.52474 0.88136 0.0
H5225 H 0.53897 0.5494 0.88739 0.0
C5226 C 0.44698 0.5671 0.84797 0.0
C5227 C 0.45462 0.56749 0.83067 0.0
C5228 C 0.45668 0.56504 0.86449 0.0
C5229 C 0.47496 0.56344 0.86522 0.0
C5230 C 0.48271 0.56367 0.84791 0.0
C5231 C 0.47289 0.56568 0.83119 0.0
C5232 C 0.4854 0.56123 0.88371 0.0
C5233 C 0.49715 0.54828 0.88368 0.0
C5234 C 0.48356 0.5715 0.90181 0.0
C5235 C 0.47401 0.58756 0.90391 0.0
C5236 C 0.47915 0.6031 0.89451 0.0
C5237 C 0.47034 0.61842 0.89673 0.0
C5238 C 0.45643 0.61843 0.90843 0.0
C5239 C 0.45132 0.60312 0.91794 0.0
C5240 C 0.46009 0.58776 0.91576 0.0
C5241 C 0.53698 0.54677 0.95931 0.0
C5242 C 0.5265 0.54661 0.97481 0.0
C5243 C 0.52977 0.5488 0.94125 0.0
C5244 C 0.51167 0.55085 0.93759 0.0
C5245 C 0.50137 0.55035 0.95313 0.0
C5246 C 0.50847 0.54828 0.97091 0.0
C5247 C 0.50333 0.55435 0.91854 0.0
C5248 C 0.49198 0.56769 0.91846 0.0
C5249 C 0.50597 0.54489 0.90037 0.0
C5250 C 0.51735 0.53061 0.898 0.0
C5251 C 0.51102 0.51195 0.90171 0.0
C5252 C 0.52117 0.49792 0.89775 0.0
C5253 C 0.53786 0.50257 0.89056 0.0
C5254 C 0.54431 0.52119 0.88704 0.0
C5255 C 0.534 0.53513 0.89054 0.0
H5256 H 0.54572 0.4917 0.88758 0.0
H5257 H 0.44965 0.63032 0.91016 0.0
H5258 H 0.78787 0.16093 0.0854 0.0
H5259 H 0.78598 0.18021 0.11576 0.0
H5260 H 0.81163 0.23209 0.09673 0.0
H5261 H 0.81398 0.21291 0.06652 0.0
H5262 H 0.82365 0.23234 0.1318 0.0
H5263 H 0.76538 0.21833 0.09617 0.0
H5264 H 0.7381 0.19699 0.07817 0.0
H5265 H 0.72569 0.16947 0.12505 0.0
H5266 H 0.75303 0.19044 0.14323 0.0
H5267 H 0.8 0.29699 0.20517 0.0
H5268 H 0.80007 0.28073 0.17298 0.0
H5269 H 0.7762 0.22597 0.18787 0.0
H5270 H 0.77645 0.24184 0.21984 0.0
H5271 H 0.76274 0.22886 0.1539 0.0
H5272 H 0.82013 0.23907 0.18871 0.0
H5273 H 0.84806 0.25745 0.20765 0.0
H5274 H 0.86275 0.28894 0.16382 0.0
H5275 H 0.83465 0.27106 0.14478 0.0
C5276 C 0.79344 0.17639 0.08782 0.0
C5277 C 0.80095 0.18546 0.07359 0.0
C5278 C 0.79219 0.18738 0.10508 0.0
C5279 C 0.79823 0.20758 0.10823 0.0
C5280 C 0.80674 0.21652 0.09445 0.0
C5281 C 0.80812 0.20553 0.07723 0.0
C5282 C 0.79526 0.21951 0.1257 0.0
C5283 C 0.81031 0.23186 0.13649 0.0
C5284 C 0.77785 0.21841 0.13195 0.0
C5285 C 0.76136 0.20585 0.121 0.0
C5286 C 0.75691 0.20763 0.10259 0.0
C5287 C 0.74142 0.19561 0.09236 0.0
C5288 C 0.73019 0.18185 0.10045 0.0
C5289 C 0.73441 0.18012 0.11879 0.0
C5290 C 0.74989 0.19207 0.12907 0.0
C5291 C 0.79477 0.28151 0.20154 0.0
C5292 C 0.78901 0.27058 0.21518 0.0
C5293 C 0.79468 0.27229 0.18317 0.0
C5294 C 0.78852 0.25214 0.17827 0.0
C5295 C 0.78115 0.24153 0.19147 0.0
C5296 C 0.78139 0.25066 0.20978 0.0
C5297 C 0.79113 0.24169 0.15993 0.0
C5298 C 0.77604 0.22957 0.14903 0.0
C5299 C 0.80852 0.24272 0.15374 0.0
C5300 C 0.82516 0.2539 0.1654 0.0
C5301 C 0.82919 0.25009 0.1832 0.0
C5302 C 0.84509 0.26036 0.19393 0.0
C5303 C 0.85721 0.2743 0.18691 0.0
C5304 C 0.85338 0.27809 0.16921 0.0
C5305 C 0.83744 0.26794 0.15846 0.0
H5306 H 0.86951 0.28224 0.19524 0.0
H5307 H 0.71821 0.17257 0.09251 0.0
H5308 H 0.19063 0.5743 0.32252 0.0
H5309 H 0.17093 0.57366 0.34764 0.0
H5310 H 0.13646 0.52066 0.31715 0.0
H5311 H 0.15541 0.52222 0.2913 0.0
H5312 H 0.11646 0.54131 0.33082 0.0
H5313 H 0.16741 0.52339 0.35682 0.0
H5314 H 0.19958 0.5256 0.36566 0.0
H5315 H 0.20271 0.57978 0.40223 0.0
H5316 H 0.17063 0.57809 0.39334 0.0
H5317 H 0.07295 0.5238 0.41349 0.0
H5318 H 0.0942 0.52044 0.38968 0.0
H5319 H 0.1132 0.58251 0.39923 0.0
H5320 H 0.09164 0.58591 0.42276 0.0
H5321 H 0.14066 0.55417 0.39711 0.0
H5322 H 0.089 0.57151 0.36534 0.0
H5323 H 0.05625 0.56603 0.35702 0.0
H5324 H 0.05456 0.50706 0.33226 0.0
H5325 H 0.0873 0.51218 0.34064 0.0
C5326 C 0.17886 0.56253 0.32122 0.0
C5327 C 0.17446 0.54834 0.30505 0.0
C5328 C 0.16769 0.56205 0.33565 0.0
C5329 C 0.15241 0.54686 0.3345 0.0
C5330 C 0.14817 0.53251 0.31838 0.0
C5331 C 0.159 0.53338 0.30367 0.0
C5332 C 0.14046 0.54644 0.34977 0.0
C5333 C 0.12183 0.54379 0.34525 0.0
C5334 C 0.14735 0.54971 0.36869 0.0
C5335 C 0.16662 0.55067 0.3743 0.0
C5336 C 0.17497 0.53583 0.36666 0.0
C5337 C 0.1932 0.537 0.37168 0.0
C5338 C 0.20319 0.55284 0.38447 0.0
C5339 C 0.19496 0.56753 0.39231 0.0
C5340 C 0.17675 0.56646 0.38729 0.0
C5341 C 0.08172 0.53664 0.41046 0.0
C5342 C 0.08075 0.55509 0.41966 0.0
C5343 C 0.09381 0.53473 0.39701 0.0
C5344 C 0.10518 0.55125 0.39292 0.0
C5345 C 0.10451 0.56967 0.4024 0.0
C5346 C 0.09219 0.5716 0.41562 0.0
C5347 C 0.11707 0.54937 0.37794 0.0
C5348 C 0.13554 0.55152 0.38258 0.0
C5349 C 0.11005 0.5451 0.35915 0.0
C5350 C 0.09051 0.54218 0.35374 0.0
C5351 C 0.08161 0.55735 0.35822 0.0
C5352 C 0.06306 0.55432 0.35348 0.0
C5353 C 0.05332 0.5362 0.34416 0.0
C5354 C 0.06212 0.52109 0.33949 0.0
C5355 C 0.08067 0.52405 0.34421 0.0
H5356 H 0.03896 0.53387 0.34052 0.0
H5357 H 0.2173 0.55371 0.38833 0.0
H5358 H 0.82748 0.86315 0.58361 0.0
H5359 H 0.8243 0.85222 0.61341 0.0
H5360 H 0.77475 0.872 0.61837 0.0
H5361 H 0.7785 0.88379 0.58881 0.0
H5362 H 0.79215 0.87995 0.65106 0.0
H5363 H 0.77638 0.82177 0.60506 0.0
H5364 H 0.78026 0.79816 0.57782 0.0
H5365 H 0.82861 0.79057 0.60567 0.0
H5366 H 0.82513 0.81429 0.63299 0.0
H5367 H 0.77425 0.82847 0.72795 0.0
H5368 H 0.77104 0.83941 0.698 0.0
H5369 H 0.82234 0.82678 0.68496 0.0
H5370 H 0.8251 0.81544 0.71373 0.0
H5371 H 0.79939 0.81395 0.65582 0.0
H5372 H 0.81649 0.87426 0.70053 0.0
H5373 H 0.81182 0.89629 0.7286 0.0
H5374 H 0.76022 0.89864 0.70362 0.0
H5375 H 0.76449 0.87639 0.67545 0.0
C5376 C 0.81592 0.86513 0.5911 0.0
C5377 C 0.80315 0.87413 0.5839 0.0
C5378 C 0.81401 0.85876 0.6081 0.0
C5379 C 0.79901 0.86078 0.61811 0.0
C5380 C 0.78638 0.87011 0.61098 0.0
C5381 C 0.78846 0.87677 0.59406 0.0
C5382 C 0.79665 0.85317 0.63592 0.0
C5383 C 0.79345 0.8654 0.65196 0.0
C5384 C 0.79844 0.83422 0.63741 0.0
C5385 C 0.80055 0.81992 0.62101 0.0
C5386 C 0.78789 0.81515 0.60532 0.0
C5387 C 0.79002 0.80174 0.58988 0.0
C5388 C 0.80469 0.7929 0.59 0.0
C5389 C 0.81726 0.79743 0.60559 0.0
C5390 C 0.8152 0.81084 0.62107 0.0
C5391 C 0.78487 0.82825 0.7187 0.0
C5392 C 0.80031 0.82178 0.72376 0.0
C5393 C 0.78306 0.83451 0.7016 0.0
C5394 C 0.79662 0.83424 0.68922 0.0
C5395 C 0.81175 0.82736 0.69421 0.0
C5396 C 0.81351 0.82117 0.71111 0.0
C5397 C 0.79542 0.84088 0.67096 0.0
C5398 C 0.79791 0.82844 0.65483 0.0
C5399 C 0.79298 0.85956 0.66943 0.0
C5400 C 0.79074 0.87356 0.68597 0.0
C5401 C 0.80414 0.87945 0.70104 0.0
C5402 C 0.80156 0.89195 0.71696 0.0
C5403 C 0.78572 0.89879 0.71789 0.0
C5404 C 0.77247 0.89328 0.70286 0.0
C5405 C 0.77497 0.88075 0.68691 0.0
H5406 H 0.78373 0.90835 0.73027 0.0
H5407 H 0.80631 0.78253 0.57802 0.0
H5408 H 0.77472 0.47491 0.5023 0.0
H5409 H 0.74782 0.48552 0.51103 0.0
H5410 H 0.73592 0.44136 0.54456 0.0
H5411 H 0.7635 0.43046 0.53608 0.0
H5412 H 0.70617 0.45346 0.51336 0.0
H5413 H 0.74654 0.47312 0.57132 0.0
H5414 H 0.77685 0.48629 0.58788 0.0
H5415 H 0.78106 0.53819 0.56515 0.0
H5416 H 0.75091 0.52518 0.54819 0.0
H5417 H 0.64291 0.50887 0.5492 0.0
H5418 H 0.66305 0.4864 0.5444 0.0
H5419 H 0.70645 0.53345 0.53747 0.0
H5420 H 0.6865 0.55594 0.54268 0.0
H5421 H 0.718 0.51424 0.5601 0.0
H5422 H 0.68402 0.49776 0.50052 0.0
H5423 H 0.6575 0.48688 0.47738 0.0
H5424 H 0.64423 0.43257 0.49614 0.0
H5425 H 0.67058 0.44322 0.51953 0.0
C5426 C 0.76642 0.46714 0.51138 0.0
C5427 C 0.77139 0.45184 0.5186 0.0
C5428 C 0.75099 0.47328 0.51629 0.0
C5429 C 0.74008 0.46424 0.52841 0.0
C5430 C 0.74434 0.44843 0.53514 0.0
C5431 C 0.76005 0.4423 0.53033 0.0
C5432 C 0.72505 0.47273 0.5347 0.0
C5433 C 0.70836 0.46635 0.52406 0.0
C5434 C 0.72854 0.4901 0.54789 0.0
C5435 C 0.74651 0.49812 0.55842 0.0
C5436 C 0.75399 0.48728 0.56975 0.0
C5437 C 0.77113 0.49473 0.57922 0.0
C5438 C 0.78089 0.51306 0.57755 0.0
C5439 C 0.77349 0.524 0.56644 0.0
C5440 C 0.75637 0.5166 0.55692 0.0
C5441 C 0.65675 0.51434 0.54658 0.0
C5442 C 0.66327 0.53416 0.54655 0.0
C5443 C 0.66819 0.5015 0.54375 0.0
C5444 C 0.68625 0.50825 0.54059 0.0
C5445 C 0.69261 0.52796 0.54011 0.0
C5446 C 0.68126 0.54082 0.54314 0.0
C5447 C 0.69889 0.49513 0.53866 0.0
C5448 C 0.71527 0.50087 0.54996 0.0
C5449 C 0.69531 0.47755 0.52558 0.0
C5450 C 0.67907 0.47143 0.51202 0.0
C5451 C 0.67529 0.48361 0.49991 0.0
C5452 C 0.66034 0.47746 0.48668 0.0
C5453 C 0.64913 0.45909 0.48536 0.0
C5454 C 0.65287 0.44683 0.49723 0.0
C5455 C 0.66781 0.45292 0.51048 0.0
H5456 H 0.63759 0.45433 0.47508 0.0
H5457 H 0.79416 0.51879 0.58489 0.0
H5458 H 0.25362 0.14231 0.51218 0.0
H5459 H 0.22312 0.1225 0.5108 0.0
H5460 H 0.20192 0.16648 0.48951 0.0
H5461 H 0.23266 0.18516 0.48883 0.0
H5462 H 0.19763 0.13096 0.53012 0.0
H5463 H 0.17378 0.15687 0.47213 0.0
H5464 H 0.17522 0.16118 0.43948 0.0
H5465 H 0.18505 0.10419 0.4243 0.0
H5466 H 0.18464 0.10008 0.45709 0.0
H5467 H 0.10338 0.09872 0.53477 0.0
H5468 H 0.13312 0.11769 0.53114 0.0
H5469 H 0.13874 0.07416 0.48493 0.0
H5470 H 0.10863 0.05531 0.48808 0.0
H5471 H 0.15028 0.1091 0.47719 0.0
H5472 H 0.16053 0.07862 0.5291 0.0
H5473 H 0.15479 0.06994 0.55976 0.0
H5474 H 0.16847 0.13007 0.58524 0.0
H5475 H 0.17402 0.13914 0.55467 0.0
C5476 C 0.24251 0.14718 0.50616 0.0
C5477 C 0.24564 0.16472 0.49955 0.0
C5478 C 0.22497 0.136 0.50567 0.0
C5479 C 0.20994 0.14244 0.49933 0.0
C5480 C 0.21306 0.16037 0.49332 0.0
C5481 C 0.2307 0.1713 0.49329 0.0
C5482 C 0.19124 0.13137 0.50116 0.0
C5483 C 0.1873 0.1263 0.5185 0.0
C5484 C 0.17753 0.12503 0.48615 0.0
C5485 C 0.18026 0.12864 0.46716 0.0
C5486 C 0.17704 0.14563 0.46194 0.0
C5487 C 0.17752 0.14798 0.4434 0.0
C5488 C 0.1805 0.13309 0.42985 0.0
C5489 C 0.18299 0.11583 0.43484 0.0
C5490 C 0.183 0.11364 0.45344 0.0
C5491 C 0.11087 0.09311 0.52379 0.0
C5492 C 0.10357 0.07531 0.51182 0.0
C5493 C 0.128 0.10398 0.52181 0.0
C5494 C 0.1384 0.09727 0.50796 0.0
C5495 C 0.13106 0.07964 0.4958 0.0
C5496 C 0.11384 0.0688 0.49769 0.0
C5497 C 0.15681 0.10873 0.50604 0.0
C5498 C 0.16064 0.11383 0.48879 0.0
C5499 C 0.17041 0.11502 0.5211 0.0
C5500 C 0.16754 0.10957 0.53957 0.0
C5501 C 0.16223 0.09 0.54123 0.0
C5502 C 0.15901 0.08501 0.55859 0.0
C5503 C 0.16122 0.09944 0.57443 0.0
C5504 C 0.16674 0.1189 0.57295 0.0
C5505 C 0.16994 0.12398 0.55562 0.0
H5506 H 0.15868 0.09555 0.58785 0.0
H5507 H 0.18068 0.13483 0.41546 0.0
H5508 H 0.22079 0.97599 0.75548 0.0
H5509 H 0.23581 0.9491 0.75527 0.0
H5510 H 0.19368 0.92063 0.78448 0.0
H5511 H 0.17904 0.94822 0.78533 0.0
H5512 H 0.22106 0.91141 0.79788 0.0
H5513 H 0.20635 0.90645 0.73158 0.0
H5514 H 0.20682 0.91873 0.70206 0.0
H5515 H 0.26477 0.93303 0.70833 0.0
H5516 H 0.26462 0.92099 0.73795 0.0
H5517 H 0.25424 0.8248 0.79485 0.0
H5518 H 0.23821 0.84972 0.79169 0.0
H5519 H 0.27421 0.86992 0.75232 0.0
H5520 H 0.2885 0.84232 0.75325 0.0
H5521 H 0.25059 0.88454 0.74419 0.0
H5522 H 0.2671 0.89171 0.80958 0.0
H5523 H 0.26884 0.88148 0.83998 0.0
H5524 H 0.211 0.86713 0.83787 0.0
H5525 H 0.20891 0.87667 0.80714 0.0
C5526 C 0.21424 0.96385 0.76145 0.0
C5527 C 0.19781 0.9647 0.76966 0.0
C5528 C 0.22306 0.94796 0.7613 0.0
C5529 C 0.21623 0.93148 0.7694 0.0
C5530 C 0.19982 0.93239 0.77777 0.0
C5531 C 0.19102 0.94839 0.77799 0.0
C5532 C 0.22622 0.91409 0.76981 0.0
C5533 C 0.2272 0.90552 0.78586 0.0
C5534 C 0.2354 0.90591 0.75485 0.0
C5535 C 0.23546 0.91296 0.73702 0.0
C5536 C 0.21918 0.91228 0.72667 0.0
C5537 C 0.21939 0.91919 0.70993 0.0
C5538 C 0.23581 0.92669 0.70334 0.0
C5539 C 0.25206 0.92723 0.71345 0.0
C5540 C 0.25192 0.92034 0.7302 0.0
C5541 C 0.25907 0.83438 0.78538 0.0
C5542 C 0.27373 0.83103 0.77492 0.0
C5543 C 0.24984 0.84958 0.78392 0.0
C5544 C 0.25507 0.86386 0.77274 0.0
C5545 C 0.26943 0.86022 0.76168 0.0
C5546 C 0.27813 0.84417 0.76242 0.0
C5547 C 0.24539 0.88161 0.7723 0.0
C5548 C 0.24446 0.89029 0.75625 0.0
C5549 C 0.23664 0.89028 0.78748 0.0
C5550 C 0.23786 0.88476 0.806 0.0
C5551 C 0.25476 0.88633 0.81559 0.0
C5552 C 0.25581 0.88065 0.83287 0.0
C5553 C 0.24005 0.87376 0.84092 0.0
C5554 C 0.2232 0.87248 0.83164 0.0
C5555 C 0.22207 0.87797 0.81426 0.0
H5556 H 0.24091 0.86941 0.85432 0.0
H5557 H 0.23595 0.93206 0.69039 0.0
H5558 H 0.3623 0.9816 0.02538 0.0
H5559 H 0.39396 0.99795 0.02526 0.0
H5560 H 0.40275 0.94854 0.98757 0.0
H5561 H 0.37092 0.9323 0.98735 0.0
H5562 H 0.41901 0.96942 0.03548 0.0
H5563 H 0.42106 0.96886 0.96533 0.0
H5564 H 0.4158 0.97937 0.93548 0.0
H5565 H 0.42174 0.03786 0.96427 0.0
H5566 H 0.42718 0.02764 0.99421 0.0
H5567 H 0.51297 0.97725 0.01769 0.0
H5568 H 0.47979 0.96817 0.01609 0.0
H5569 H 0.47808 0.02848 0.02925 0.0
H5570 H 0.51064 0.03741 0.03164 0.0
H5571 H 0.45791 1.00547 0.99503 0.0
H5572 H 0.46687 0.00885 0.0602 0.0
H5573 H 0.479 1.00211 0.08965 0.0
H5574 H 0.45432 0.94172 0.07245 0.0
H5575 H 0.44221 0.94806 0.04274 0.0
C5576 C 0.37084 0.97466 0.01643 0.0
C5577 C 0.3643 0.95601 0.006 0.0
C5578 C 0.38881 0.98398 0.01634 0.0
C5579 C 0.40041 0.97455 0.00605 0.0
C5580 C 0.39375 0.95618 0.99512 0.0
C5581 C 0.37575 0.94686 0.99519 0.0
C5582 C 0.41988 0.98154 0.01042 0.0
C5583 C 0.42761 0.97719 0.02659 0.0
C5584 C 0.43083 0.99213 0.99911 0.0
C5585 C 0.4239 0.99739 0.98197 0.0
C5586 C 0.42071 0.98384 0.9653 0.0
C5587 C 0.41804 0.98981 0.94834 0.0
C5588 C 0.41839 0.00927 0.94798 0.0
C5589 C 0.42137 0.02278 0.96456 0.0
C5590 C 0.42419 0.0169 0.98152 0.0
C5591 C 0.50542 0.98846 0.02022 0.0
C5592 C 0.5143 0.00806 0.02398 0.0
C5593 C 0.48664 0.9833 0.01951 0.0
C5594 C 0.47677 0.99775 0.02265 0.0
C5595 C 0.48562 0.01722 0.02683 0.0
C5596 C 0.50426 0.02231 0.02779 0.0
C5597 C 0.45713 0.99279 0.01961 0.0
C5598 C 0.44936 0.99767 1.0039 0.0
C5599 C 0.44623 0.98287 0.03145 0.0
C5600 C 0.45384 0.97889 0.0491 0.0
C5601 C 0.46424 0.99408 0.06256 0.0
C5602 C 0.47105 0.99035 0.07934 0.0
C5603 C 0.4675 0.97148 0.08289 0.0
C5604 C 0.4571 0.95632 0.06966 0.0
C5605 C 0.45025 0.95998 0.05285 0.0
H5606 H 0.47275 0.96863 0.09592 0.0
H5607 H 0.41632 0.01386 0.93485 0.0
H5608 H 0.88325 0.57396 0.77824 0.0
H5609 H 0.87116 0.60062 0.77062 0.0
H5610 H 0.9076 0.64025 0.81431 0.0
H5611 H 0.91882 0.61284 0.82284 0.0
H5612 H 0.87497 0.64417 0.81749 0.0
H5613 H 0.91077 0.64238 0.766 0.0
H5614 H 0.9238 0.62609 0.73942 0.0
H5615 H 0.87082 0.60288 0.71121 0.0
H5616 H 0.85743 0.61878 0.7377 0.0
H5617 H 0.83062 0.70944 0.76885 0.0
H5618 H 0.85443 0.69623 0.78188 0.0
H5619 H 0.81854 0.63983 0.77296 0.0
H5620 H 0.79421 0.65302 0.76074 0.0
H5621 H 0.85794 0.65306 0.75374 0.0
H5622 H 0.82434 0.64233 0.80904 0.0
H5623 H 0.81031 0.65236 0.83759 0.0
H5624 H 0.8582 0.69619 0.858 0.0
H5625 H 0.87251 0.68632 0.82954 0.0
C5626 C 0.88893 0.58847 0.78589 0.0
C5627 C 0.90189 0.59167 0.80097 0.0
C5628 C 0.88221 0.60373 0.78141 0.0
C5629 C 0.88884 0.62253 0.79156 0.0
C5630 C 0.90252 0.62586 0.80617 0.0
C5631 C 0.90895 0.61037 0.81097 0.0
C5632 C 0.87947 0.6378 0.78846 0.0
C5633 C 0.87177 0.64665 0.80361 0.0
C5634 C 0.87501 0.64068 0.77029 0.0
C5635 C 0.8831 0.63191 0.75385 0.0
C5636 C 0.90189 0.63385 0.75411 0.0
C5637 C 0.90934 0.62464 0.73907 0.0
C5638 C 0.89815 0.61349 0.72363 0.0
C5639 C 0.87948 0.61159 0.72316 0.0
C5640 C 0.87196 0.62077 0.73816 0.0
C5641 C 0.82752 0.69437 0.77026 0.0
C5642 C 0.81048 0.68222 0.76375 0.0
C5643 C 0.84118 0.6869 0.77765 0.0
C5644 C 0.83803 0.66722 0.77848 0.0
C5645 C 0.82098 0.65516 0.77261 0.0
C5646 C 0.80722 0.66265 0.76543 0.0
C5647 C 0.85315 0.65859 0.78264 0.0
C5648 C 0.86187 0.65117 0.76765 0.0
C5649 C 0.85842 0.6568 0.80085 0.0
C5650 C 0.84932 0.66386 0.81707 0.0
C5651 C 0.83174 0.65431 0.81949 0.0
C5652 C 0.82383 0.65979 0.83575 0.0
C5653 C 0.83338 0.67487 0.84963 0.0
C5654 C 0.85084 0.6845 0.84726 0.0
C5655 C 0.85885 0.67897 0.83107 0.0
H5656 H 0.82721 0.67916 0.86217 0.0
H5657 H 0.90394 0.6063 0.71203 0.0
H5658 H 0.84361 0.68194 0.03413 0.0
H5659 H 0.87069 0.66975 0.03993 0.0
H5660 H 0.86845 0.64603 0.98143 0.0
H5661 H 0.84092 0.65728 0.97584 0.0
H5662 H 0.87338 0.62019 0.99858 0.0
H5663 H 0.90264 0.68707 0.00646 0.0
H5664 H 0.90827 0.72206 0.019 0.0
H5665 H 0.91792 0.71139 0.07419 0.0
H5666 H 0.91212 0.6763 0.06201 0.0
H5667 H 0.95541 0.58878 0.00761 0.0
H5668 H 0.9349 0.60877 0.99912 0.0
H5669 H 0.92707 0.62525 0.05699 0.0
H5670 H 0.94763 0.60554 0.0655 0.0
H5671 H 0.92895 0.65572 0.03852 0.0
H5672 H 0.89737 0.58817 0.02942 0.0
H5673 H 0.89259 0.55349 0.01585 0.0
H5674 H 0.8885 0.56657 0.9609 0.0
H5675 H 0.89349 0.60137 0.97416 0.0
C5676 C 0.84914 0.67448 0.02247 0.0
C5677 C 0.84013 0.67057 1.00453 0.0
C5678 C 0.86469 0.66752 0.02578 0.0
C5679 C 0.87184 0.65699 0.01111 0.0
C5680 C 0.86325 0.65395 0.99305 0.0
C5681 C 0.84754 0.6605 0.98983 0.0
C5682 C 0.88735 0.64786 0.01464 0.0
C5683 C 0.88565 0.62818 0.00701 0.0
C5684 C 0.90335 0.65797 0.02595 0.0
C5685 C 0.90679 0.67904 0.03333 0.0
C5686 C 0.90583 0.69218 0.02129 0.0
C5687 C 0.90907 0.71203 0.02833 0.0
C5688 C 0.91341 0.71894 0.04738 0.0
C5689 C 0.91454 0.70601 0.05944 0.0
C5690 C 0.9113 0.68614 0.05247 0.0
C5691 C 0.94958 0.59698 0.01852 0.0
C5692 C 0.95294 0.5954 0.0372 0.0
C5693 C 0.93778 0.6083 0.01366 0.0
C5694 C 0.9292 0.61827 0.0274 0.0
C5695 C 0.93343 0.61762 0.04613 0.0
C5696 C 0.9451 0.60626 0.05097 0.0
C5697 C 0.91487 0.62828 0.02237 0.0
C5698 C 0.91674 0.64798 0.02984 0.0
C5699 C 0.89912 0.6183 0.01072 0.0
C5700 C 0.89598 0.59737 1.00277 0.0
C5701 C 0.89557 0.58366 0.01444 0.0
C5702 C 0.89281 0.56398 0.00681 0.0
C5703 C 0.89029 0.55783 0.98752 0.0
C5704 C 0.89048 0.57135 0.97583 0.0
C5705 C 0.89326 0.59105 0.9834 0.0
H5706 H 0.88815 0.54259 0.98164 0.0
H5707 H 0.91592 0.73431 0.0528 0.0
H5708 H 0.22366 0.06248 0.77403 0.0
H5709 H 0.24088 0.09583 0.77556 0.0
H5710 H 0.19287 0.11683 0.78639 0.0
H5711 H 0.17601 0.08365 0.78588 0.0
H5712 H 0.20796 0.13485 0.76119 0.0
H5713 H 0.23998 0.14066 0.82596 0.0
H5714 H 0.26127 0.13564 0.8503 0.0
H5715 H 0.29478 0.11736 0.80864 0.0
H5716 H 0.2739 0.12284 0.78417 0.0
H5717 H 0.249 0.23728 0.77737 0.0
H5718 H 0.233 0.20419 0.77817 0.0
H5719 H 0.28333 0.18588 0.77644 0.0
H5720 H 0.29937 0.21919 0.77666 0.0
H5721 H 0.26704 0.16612 0.79638 0.0
H5722 H 0.24345 0.17531 0.73763 0.0
H5723 H 0.22858 0.19115 0.71586 0.0
H5724 H 0.18073 0.18283 0.74477 0.0
H5725 H 0.1954 0.16715 0.76686 0.0
C5726 C 0.21692 0.07419 0.77776 0.0
C5727 C 0.19838 0.06987 0.78076 0.0
C5728 C 0.22685 0.09359 0.77837 0.0
C5729 C 0.21861 0.10967 0.78138 0.0
C5730 C 0.20003 0.10526 0.78416 0.0
C5731 C 0.19026 0.08598 0.78394 0.0
C5732 C 0.22863 0.13059 0.78025 0.0
C5733 C 0.22082 0.1416 0.76911 0.0
C5734 C 0.24579 0.14009 0.78985 0.0
C5735 C 0.25515 0.13157 0.80326 0.0
C5736 C 0.25161 0.13499 0.82199 0.0
C5737 C 0.26383 0.13256 0.83583 0.0
C5738 C 0.27949 0.12641 0.83103 0.0
C5739 C 0.28271 0.12222 0.81235 0.0
C5740 C 0.27068 0.12495 0.79849 0.0
C5741 C 0.25679 0.22629 0.77719 0.0
C5742 C 0.27581 0.23151 0.77704 0.0
C5743 C 0.24744 0.20695 0.7774 0.0
C5744 C 0.25649 0.19158 0.77693 0.0
C5745 C 0.27553 0.19687 0.77683 0.0
C5746 C 0.2849 0.21627 0.77696 0.0
C5747 C 0.24654 0.17041 0.77726 0.0
C5748 C 0.25427 0.15937 0.78826 0.0
C5749 C 0.22946 0.16089 0.76728 0.0
C5750 C 0.22059 0.17023 0.754 0.0
C5751 C 0.2298 0.17697 0.73941 0.0
C5752 C 0.2214 0.1859 0.72701 0.0
C5753 C 0.20374 0.18804 0.72896 0.0
C5754 C 0.19442 0.18119 0.74329 0.0
C5755 C 0.20276 0.17227 0.75575 0.0
H5756 H 0.19727 0.19497 0.71935 0.0
H5757 H 0.28896 0.12458 0.84177 0.0
H5758 H 0.36957 0.99803 0.29077 0.0
H5759 H 0.3552 0.96385 0.28767 0.0
H5760 H 0.40673 0.95234 0.3039 0.0
H5761 H 0.42005 0.98686 0.31024 0.0
H5762 H 0.35892 0.93733 0.26482 0.0
H5763 H 0.40892 0.91717 0.3127 0.0
H5764 H 0.42443 0.92575 0.34447 0.0
H5765 H 0.37833 0.94462 0.36548 0.0
H5766 H 0.36272 0.93644 0.33363 0.0
H5767 H 0.3635 0.83091 0.2691 0.0
H5768 H 0.37632 0.86583 0.27507 0.0
H5769 H 0.32262 0.8765 0.27132 0.0
H5770 H 0.30989 0.84168 0.26445 0.0
H5771 H 0.37116 0.89105 0.30433 0.0
H5772 H 0.32305 0.91689 0.25642 0.0
H5773 H 0.30429 0.90397 0.22659 0.0
H5774 H 0.3426 0.87049 0.20803 0.0
H5775 H 0.36143 0.88312 0.23763 0.0
C5776 C 0.37739 0.98827 0.29496 0.0
C5777 C 0.39549 0.99506 0.30194 0.0
C5778 C 0.36934 0.96867 0.29274 0.0
C5779 C 0.37968 0.95535 0.29613 0.0
C5780 C 0.39806 0.96219 0.30236 0.0
C5781 C 0.40581 0.98193 0.30559 0.0
C5782 C 0.37179 0.93432 0.29095 0.0
C5783 C 0.36128 0.92736 0.27378 0.0
C5784 C 0.37529 0.92097 0.30208 0.0
C5785 C 0.38497 0.9269 0.32086 0.0
C5786 C 0.40224 0.92343 0.3241 0.0
C5787 C 0.41103 0.92821 0.34206 0.0
C5788 C 0.40245 0.936 0.35693 0.0
C5789 C 0.38506 0.93894 0.35387 0.0
C5790 C 0.37633 0.93445 0.33586 0.0
C5791 C 0.35454 0.84079 0.26932 0.0
C5792 C 0.33578 0.83388 0.26694 0.0
C5793 C 0.36181 0.86061 0.27277 0.0
C5794 C 0.35037 0.87359 0.2736 0.0
C5795 C 0.33164 0.86664 0.27048 0.0
C5796 C 0.32439 0.84683 0.26685 0.0
C5797 C 0.35803 0.89444 0.27875 0.0
C5798 C 0.36858 0.90123 0.29571 0.0
C5799 C 0.3543 0.90757 0.26759 0.0
C5800 C 0.34356 0.90084 0.24928 0.0
C5801 C 0.32748 0.90685 0.24589 0.0
C5802 C 0.31676 0.89946 0.22907 0.0
C5803 C 0.32207 0.88615 0.21549 0.0
C5804 C 0.33825 0.88047 0.21861 0.0
C5805 C 0.34898 0.88777 0.2354 0.0
H5806 H 0.31376 0.88044 0.20248 0.0
H5807 H 0.40921 0.93958 0.37086 0.0
H5808 H 0.60142 0.3774 0.61353 0.0
H5809 H 0.60031 0.40791 0.60257 0.0
H5810 H 0.55484 0.37775 0.56348 0.0
H5811 H 0.55591 0.348 0.5738 0.0
H5812 H 0.57647 0.40074 0.54649 0.0
H5813 H 0.55191 0.40855 0.60755 0.0
H5814 H 0.55481 0.41127 0.64169 0.0
H5815 H 0.60055 0.45898 0.64625 0.0
H5816 H 0.59798 0.45643 0.61215 0.0
H5817 H 0.55127 0.48182 0.51531 0.0
H5818 H 0.55229 0.45162 0.52569 0.0
H5819 H 0.5793 0.48464 0.57833 0.0
H5820 H 0.57259 0.51325 0.57003 0.0
H5821 H 0.56755 0.45847 0.58886 0.0
H5822 H 0.59628 0.45119 0.52936 0.0
H5823 H 0.5963 0.44856 0.49528 0.0
H5824 H 0.54919 0.40201 0.48726 0.0
H5825 H 0.54892 0.40439 0.52125 0.0
C5826 C 0.59121 0.3773 0.60263 0.0
C5827 C 0.57882 0.35989 0.59474 0.0
C5828 C 0.59053 0.39482 0.59634 0.0
C5829 C 0.5774 0.39537 0.58207 0.0
C5830 C 0.56521 0.37801 0.57431 0.0
C5831 C 0.56587 0.36078 0.58046 0.0
C5832 C 0.57569 0.41363 0.57505 0.0
C5833 C 0.57475 0.41355 0.55578 0.0
C5834 C 0.57361 0.43055 0.58688 0.0
C5835 C 0.57483 0.4322 0.60735 0.0
C5836 C 0.5626 0.41957 0.61585 0.0
C5837 C 0.56419 0.42109 0.63519 0.0
C5838 C 0.57788 0.43526 0.64613 0.0
C5839 C 0.58996 0.448 0.63777 0.0
C5840 C 0.58843 0.44654 0.61846 0.0
C5841 C 0.55608 0.48235 0.52954 0.0
C5842 C 0.56036 0.50008 0.54209 0.0
C5843 C 0.55782 0.46492 0.53532 0.0
C5844 C 0.56636 0.46491 0.55308 0.0
C5845 C 0.57198 0.48312 0.56491 0.0
C5846 C 0.56842 0.49999 0.55986 0.0
C5847 C 0.56946 0.44667 0.55992 0.0
C5848 C 0.57015 0.44638 0.57927 0.0
C5849 C 0.57209 0.4297 0.54813 0.0
C5850 C 0.57251 0.42808 0.52778 0.0
C5851 C 0.58596 0.44041 0.52029 0.0
C5852 C 0.586 0.43896 0.50101 0.0
C5853 C 0.57273 0.42517 0.48912 0.0
C5854 C 0.55945 0.4127 0.49648 0.0
C5855 C 0.55937 0.41405 0.51573 0.0
H5856 H 0.57275 0.42412 0.47421 0.0
H5857 H 0.57911 0.43639 0.66108 0.0
H5858 H 0.48393 0.75632 0.37145 0.0
H5859 H 0.45731 0.75471 0.35117 0.0
H5860 H 0.43552 0.78687 0.39621 0.0
H5861 H 0.46138 0.78607 0.41712 0.0
H5862 H 0.40931 0.76698 0.38075 0.0
H5863 H 0.44397 0.80474 0.3289 0.0
H5864 H 0.46315 0.8067 0.3029 0.0
H5865 H 0.46182 0.74603 0.29698 0.0
H5866 H 0.44108 0.74341 0.32164 0.0
H5867 H 0.34655 0.80222 0.32762 0.0
H5868 H 0.37259 0.7981 0.34601 0.0
H5869 H 0.37933 0.75224 0.30268 0.0
H5870 H 0.3535 0.75665 0.28396 0.0
H5871 H 0.41057 0.77428 0.31484 0.0
H5872 H 0.36073 0.74589 0.34344 0.0
H5873 H 0.33185 0.74654 0.35684 0.0
H5874 H 0.35929 0.78927 0.40334 0.0
H5875 H 0.38825 0.78982 0.38969 0.0
C5876 C 0.47342 0.76306 0.37702 0.0
C5877 C 0.475 0.77145 0.39599 0.0
C5878 C 0.45809 0.76261 0.36507 0.0
C5879 C 0.44393 0.77127 0.37129 0.0
C5880 C 0.44573 0.7798 0.39045 0.0
C5881 C 0.46071 0.77947 0.40261 0.0
C5882 C 0.4269 0.77069 0.35868 0.0
C5883 C 0.41004 0.76907 0.36648 0.0
C5884 C 0.42655 0.77212 0.33936 0.0
C5885 C 0.44227 0.7742 0.3283 0.0
C5886 C 0.44828 0.79195 0.32248 0.0
C5887 C 0.45887 0.79304 0.3075 0.0
C5888 C 0.4641 0.7766 0.29861 0.0
C5889 C 0.45817 0.75887 0.30421 0.0
C5890 C 0.4468 0.75754 0.31854 0.0
C5891 C 0.35358 0.79131 0.32181 0.0
C5892 C 0.34802 0.78016 0.30386 0.0
C5893 C 0.3685 0.78886 0.33253 0.0
C5894 C 0.37807 0.77474 0.32595 0.0
C5895 C 0.37238 0.76335 0.30817 0.0
C5896 C 0.35756 0.76596 0.29735 0.0
C5897 C 0.39414 0.77207 0.33742 0.0
C5898 C 0.41036 0.77265 0.32931 0.0
C5899 C 0.39385 0.76973 0.35623 0.0
C5900 C 0.37674 0.76808 0.36539 0.0
C5901 C 0.36063 0.75563 0.35642 0.0
C5902 C 0.34419 0.75591 0.36396 0.0
C5903 C 0.34374 0.76806 0.38085 0.0
C5904 C 0.35969 0.77992 0.39022 0.0
C5905 C 0.37612 0.78002 0.38253 0.0
H5906 H 0.33108 0.76815 0.3868 0.0
H5907 H 0.47255 0.77756 0.28723 0.0
H5908 H 0.10336 0.76561 0.09194 0.0
H5909 H 0.10304 0.73204 0.07969 0.0
H5910 H 0.04672 0.71629 0.08964 0.0
H5911 H 0.04936 0.74877 0.10684 0.0
H5912 H 0.05276 0.68846 0.09081 0.0
H5913 H 0.07497 0.71892 0.03956 0.0
H5914 H 0.09513 0.74156 0.02361 0.0
H5915 H 0.14056 0.72059 0.04168 0.0
H5916 H 0.12081 0.698 0.05776 0.0
H5917 H 0.06285 0.59993 0.01922 0.0
H5918 H 0.06751 0.63553 0.0259 0.0
H5919 H 0.07794 0.63534 0.08429 0.0
H5920 H 0.07303 0.60013 0.07773 0.0
H5921 H 0.09284 0.66894 0.04364 0.0
H5922 H 0.05253 0.65757 0.10772 0.0
H5923 H 0.02761 0.63271 0.11526 0.0
H5924 H 0.0085 0.61532 0.05739 0.0
H5925 H 0.03324 0.64006 0.04955 0.0
C5926 C 0.0909 0.75484 0.09129 0.0
C5927 C 0.07584 0.76018 0.09908 0.0
C5928 C 0.0905 0.7354 0.08373 0.0
C5929 C 0.07451 0.72076 0.08221 0.0
C5930 C 0.05947 0.72648 0.09018 0.0
C5931 C 0.06056 0.74552 0.09942 0.0
C5932 C 0.07365 0.69956 0.07378 0.0
C5933 C 0.06145 0.68481 0.08022 0.0
C5934 C 0.08458 0.69338 0.05964 0.0
C5935 C 0.09644 0.70698 0.05001 0.0
C5936 C 0.08927 0.71928 0.0402 0.0
C5937 C 0.1006 0.73206 0.03115 0.0
C5938 C 0.11906 0.73257 0.03173 0.0
C5939 C 0.12626 0.72023 0.04128 0.0
C5940 C 0.11501 0.70741 0.05033 0.0
C5941 C 0.06672 0.6076 0.03338 0.0
C5942 C 0.06757 0.59723 0.04798 0.0
C5943 C 0.06932 0.62796 0.03721 0.0
C5944 C 0.07274 0.6382 0.05568 0.0
C5945 C 0.07503 0.62786 0.06997 0.0
C5946 C 0.07233 0.6077 0.0662 0.0
C5947 C 0.07205 0.65915 0.06068 0.0
C5948 C 0.08399 0.67343 0.0538 0.0
C5949 C 0.05993 0.66502 0.07318 0.0
C5950 C 0.04477 0.65059 0.07808 0.0
C5951 C 0.04294 0.64852 0.09665 0.0
C5952 C 0.02888 0.63441 0.10096 0.0
C5953 C 0.0165 0.62242 0.08681 0.0
C5954 C 0.01812 0.62456 0.06833 0.0
C5955 C 0.03216 0.63858 0.06395 0.0
H5956 H 0.00565 0.6115 0.09017 0.0
H5957 H 0.12778 0.74249 0.02473 0.0
H5958 H 0.08072 0.27325 0.92501 0.0
H5959 H 0.11038 0.27248 0.91284 0.0
H5960 H 0.08891 0.27914 0.85924 0.0
H5961 H 0.06005 0.27954 0.87077 0.0
H5962 H 0.10704 0.2516 0.85504 0.0
H5963 H 0.11644 0.31719 0.89246 0.0
H5964 H 0.11936 0.34003 0.92223 0.0
H5965 H 0.16202 0.31651 0.94324 0.0
H5966 H 0.15919 0.29339 0.91366 0.0
H5967 H 0.16754 0.29012 0.79731 0.0
H5968 H 0.1452 0.2838 0.81902 0.0
H5969 H 0.18698 0.28479 0.86152 0.0
H5970 H 0.20996 0.29284 0.83994 0.0
H5971 H 0.16273 0.30213 0.8771 0.0
H5972 H 0.15713 0.24089 0.83774 0.0
H5973 H 0.15449 0.21791 0.80813 0.0
H5974 H 0.10462 0.23179 0.79138 0.0
H5975 H 0.10707 0.25504 0.82076 0.0
C5976 C 0.08236 0.27435 0.91061 0.0
C5977 C 0.06782 0.27652 0.89901 0.0
C5978 C 0.09936 0.27406 0.90368 0.0
C5979 C 0.10201 0.27582 0.88504 0.0
C5980 C 0.08739 0.27767 0.8736 0.0
C5981 C 0.07072 0.27797 0.88038 0.0
C5982 C 0.11956 0.27566 0.87663 0.0
C5983 C 0.11923 0.26265 0.85993 0.0
C5984 C 0.13582 0.2895 0.88327 0.0
C5985 C 0.13744 0.30341 0.90097 0.0
C5986 C 0.12633 0.31679 0.90349 0.0
C5987 C 0.128 0.32981 0.92031 0.0
C5988 C 0.14082 0.32967 0.93464 0.0
C5989 C 0.15205 0.31657 0.93216 0.0
C5990 C 0.15043 0.30351 0.91537 0.0
C5991 C 0.17221 0.28929 0.81131 0.0
C5992 C 0.19079 0.29233 0.81677 0.0
C5993 C 0.15923 0.28528 0.82374 0.0
C5994 C 0.16416 0.28335 0.84197 0.0
C5995 C 0.18268 0.28607 0.84754 0.0
C5996 C 0.19585 0.29047 0.83509 0.0
C5997 C 0.14974 0.2788 0.85488 0.0
C5998 C 0.15072 0.2908 0.8724 0.0
C5999 C 0.13397 0.26394 0.84906 0.0
C6000 C 0.13231 0.24974 0.83146 0.0
C6001 C 0.14563 0.23909 0.82772 0.0
C6002 C 0.14417 0.22601 0.81097 0.0
C6003 C 0.1294 0.22339 0.79788 0.0
C6004 C 0.11604 0.23381 0.80154 0.0
C6005 C 0.11744 0.24691 0.81825 0.0
H6006 H 0.12831 0.21328 0.78492 0.0
H6007 H 0.1421 0.33977 0.94765 0.0
H6008 H 0.58069 0.75091 0.88662 0.0
H6009 H 0.57515 0.72374 0.9034 0.0
H6010 H 0.59469 0.76334 0.95512 0.0
H6011 H 0.60103 0.79012 0.93845 0.0
H6012 H 0.60663 0.73285 0.95531 0.0
H6013 H 0.54757 0.74476 0.93851 0.0
H6014 H 0.52271 0.74698 0.91652 0.0
H6015 H 0.5184 0.68796 0.8901 0.0
H6016 H 0.54335 0.68547 0.91183 0.0
H6017 H 0.56658 0.68862 0.02581 0.0
H6018 H 0.57475 0.70939 1.003 0.0
H6019 H 0.55609 0.66039 0.95841 0.0
H6020 H 0.54702 0.63973 0.98108 0.0
H6021 H 0.54515 0.69107 0.95078 0.0
H6022 H 0.60177 0.67849 0.9712 0.0
H6023 H 0.62574 0.67667 0.99444 0.0
H6024 H 0.63414 0.73773 0.01501 0.0
H6025 H 0.61011 0.73988 0.99204 0.0
C6026 C 0.58398 0.7537 0.90154 0.0
C6027 C 0.59129 0.77259 0.91125 0.0
C6028 C 0.58069 0.73822 0.91112 0.0
C6029 C 0.58424 0.74154 0.93056 0.0
C6030 C 0.59188 0.76038 0.94013 0.0
C6031 C 0.59548 0.77571 0.93057 0.0
C6032 C 0.57979 0.72573 0.94132 0.0
C6033 C 0.59315 0.72379 0.95437 0.0
C6034 C 0.56238 0.71345 0.9397 0.0
C6035 C 0.54745 0.71501 0.92663 0.0
C6036 C 0.54139 0.73231 0.92792 0.0
C6037 C 0.52728 0.7336 0.91552 0.0
C6038 C 0.51902 0.71764 0.90188 0.0
C6039 C 0.52483 0.70033 0.90064 0.0
C6040 C 0.53895 0.69896 0.91299 0.0
C6041 C 0.56399 0.68232 0.01116 0.0
C6042 C 0.55624 0.66251 1.00528 0.0
C6043 C 0.56889 0.69414 0.99814 0.0
C6044 C 0.56636 0.68633 0.97903 0.0
C6045 C 0.55831 0.66666 0.9731 0.0
C6046 C 0.55326 0.65486 0.98609 0.0
C6047 C 0.57179 0.69882 0.96526 0.0
C6048 C 0.55868 0.69998 0.95155 0.0
C6049 C 0.58939 0.71052 0.96638 0.0
C6050 C 0.60405 0.7093 0.97998 0.0
C6051 C 0.60867 0.6915 0.98074 0.0
C6052 C 0.62228 0.69042 0.99384 0.0
C6053 C 0.63139 0.70706 0.00622 0.0
C6054 C 0.62704 0.72485 1.00542 0.0
C6055 C 0.61346 0.72602 0.99234 0.0
H6056 H 0.6418 0.70619 0.01644 0.0
H6057 H 0.50809 0.71867 0.8923 0.0
H6058 H 0.07566 0.79388 0.66134 0.0
H6059 H 0.10411 0.79219 0.67783 0.0
H6060 H 0.07393 0.75939 0.71478 0.0
H6061 H 0.0458 0.76205 0.69901 0.0
H6062 H 0.10146 0.78285 0.73382 0.0
H6063 H 0.09076 0.7389 0.67578 0.0
H6064 H 0.08415 0.73127 0.64205 0.0
H6065 H 0.13583 0.76602 0.6352 0.0
H6066 H 0.14231 0.77494 0.66934 0.0
H6067 H 0.16438 0.72232 0.75135 0.0
H6068 H 0.13875 0.73077 0.73556 0.0
H6069 H 0.17177 0.78662 0.73267 0.0
H6070 H 0.19688 0.7792 0.74969 0.0
H6071 H 0.14473 0.75364 0.69664 0.0
H6072 H 0.15244 0.80055 0.75639 0.0
H6073 H 0.15704 0.80759 0.79066 0.0
H6074 H 0.10988 0.76348 0.79331 0.0
H6075 H 0.10525 0.75597 0.75899 0.0
C6076 C 0.07529 0.78656 0.67313 0.0
C6077 C 0.05882 0.77842 0.67927 0.0
C6078 C 0.09142 0.78556 0.6825 0.0
C6079 C 0.09109 0.77554 0.69745 0.0
C6080 C 0.07451 0.76734 0.70342 0.0
C6081 C 0.05849 0.76877 0.69438 0.0
C6082 C 0.10783 0.77229 0.70617 0.0
C6083 C 0.11094 0.77663 0.72562 0.0
C6084 C 0.12017 0.76394 0.69553 0.0
C6085 C 0.11691 0.75776 0.67509 0.0
C6086 C 0.1007 0.74499 0.66711 0.0
C6087 C 0.09696 0.74046 0.64786 0.0
C6088 C 0.10959 0.74799 0.63632 0.0
C6089 C 0.12603 0.76019 0.64413 0.0
C6090 C 0.1297 0.76511 0.66346 0.0
C6091 C 0.16613 0.7365 0.74762 0.0
C6092 C 0.18276 0.74999 0.75171 0.0
C6093 C 0.15157 0.74118 0.73844 0.0
C6094 C 0.1536 0.75925 0.73305 0.0
C6095 C 0.17013 0.7726 0.73676 0.0
C6096 C 0.18449 0.76817 0.74632 0.0
C6097 C 0.13822 0.76452 0.72405 0.0
C6098 C 0.13538 0.76035 0.70464 0.0
C6099 C 0.12606 0.7729 0.73466 0.0
C6100 C 0.12869 0.77751 0.75521 0.0
C6101 C 0.1432 0.79221 0.7643 0.0
C6102 C 0.14578 0.79631 0.78371 0.0
C6103 C 0.1338 0.78593 0.79416 0.0
C6104 C 0.11918 0.77147 0.7852 0.0
C6105 C 0.11658 0.76727 0.76578 0.0
H6106 H 0.13582 0.78913 0.8092 0.0
H6107 H 0.10664 0.74441 0.62137 0.0
H6108 H 0.12204 0.39772 0.39148 0.0
H6109 H 0.12511 0.4286 0.41249 0.0
H6110 H 0.11293 0.39845 0.45811 0.0
H6111 H 0.11045 0.36774 0.43752 0.0
H6112 H 0.09574 0.43532 0.42627 0.0
H6113 H 0.12384 0.42571 0.49838 0.0
H6114 H 0.14878 0.41391 0.51198 0.0
H6115 H 0.18003 0.427 0.46679 0.0
H6116 H 0.15531 0.43899 0.45298 0.0
H6117 H 0.0523 0.47865 0.49757 0.0
H6118 H 0.06597 0.45628 0.47717 0.0
H6119 H 0.11845 0.49459 0.49304 0.0
H6120 H 0.10488 0.51647 0.51416 0.0
H6121 H 0.12099 0.45936 0.49187 0.0
H6122 H 0.09262 0.49239 0.45106 0.0
H6123 H 0.06719 0.50398 0.43826 0.0
H6124 H 0.03755 0.44533 0.41983 0.0
H6125 H 0.06256 0.43337 0.43302 0.0
C6126 C 0.12069 0.39771 0.40613 0.0
C6127 C 0.11555 0.3803 0.41277 0.0
C6128 C 0.12249 0.41537 0.4181 0.0
C6129 C 0.11913 0.41578 0.43678 0.0
C6130 C 0.11585 0.39851 0.4438 0.0
C6131 C 0.11426 0.38089 0.43192 0.0
C6132 C 0.1153 0.43327 0.44785 0.0
C6133 C 0.10153 0.44089 0.4405 0.0
C6134 C 0.12277 0.44036 0.4664 0.0
C6135 C 0.13771 0.43321 0.47464 0.0
C6136 C 0.13607 0.42617 0.4914 0.0
C6137 C 0.15015 0.41941 0.49912 0.0
C6138 C 0.16597 0.4197 0.49025 0.0
C6139 C 0.16774 0.42674 0.47362 0.0
C6140 C 0.15369 0.43347 0.46581 0.0
C6141 C 0.06673 0.48222 0.49662 0.0
C6142 C 0.0776 0.49921 0.50713 0.0
C6143 C 0.07451 0.46954 0.48497 0.0
C6144 C 0.09313 0.4741 0.48327 0.0
C6145 C 0.10403 0.49093 0.4941 0.0
C6146 C 0.09631 0.50336 0.50611 0.0
C6147 C 0.10129 0.46115 0.47036 0.0
C6148 C 0.11565 0.45426 0.47745 0.0
C6149 C 0.09441 0.4548 0.4515 0.0
C6150 C 0.07949 0.46198 0.4431 0.0
C6151 C 0.08066 0.48196 0.44434 0.0
C6152 C 0.0663 0.4886 0.43702 0.0
C6153 C 0.05079 0.47541 0.42818 0.0
C6154 C 0.04958 0.45553 0.42666 0.0
C6155 C 0.06385 0.44882 0.43407 0.0
H6156 H 0.03969 0.48059 0.42252 0.0
H6157 H 0.17687 0.41448 0.49626 0.0
H6158 H 0.47762 0.28275 0.19838 0.0
H6159 H 0.45479 0.28491 0.22042 0.0
H6160 H 0.41314 0.25433 0.17701 0.0
H6161 H 0.43542 0.2529 0.1548 0.0
H6162 H 0.40978 0.29021 0.19282 0.0
H6163 H 0.42365 0.23302 0.21172 0.0
H6164 H 0.44331 0.21436 0.22473 0.0
H6165 H 0.45355 0.25568 0.27587 0.0
H6166 H 0.43414 0.27476 0.26307 0.0
H6167 H 0.32688 0.2675 0.22888 0.0
H6168 H 0.35481 0.26788 0.21455 0.0
H6169 H 0.38513 0.29006 0.2681 0.0
H6170 H 0.35667 0.28609 0.2829 0.0
H6171 H 0.39831 0.26428 0.25067 0.0
H6172 H 0.39888 0.32664 0.22057 0.0
H6173 H 0.38494 0.34692 0.20279 0.0
H6174 H 0.34997 0.29598 0.17036 0.0
H6175 H 0.36439 0.27553 0.18733 0.0
C6176 C 0.46358 0.2765 0.19355 0.0
C6177 C 0.45826 0.26786 0.1748 0.0
C6178 C 0.45069 0.27746 0.20622 0.0
C6179 C 0.4325 0.26957 0.20022 0.0
C6180 C 0.42725 0.26034 0.18176 0.0
C6181 C 0.43999 0.25971 0.16908 0.0
C6182 C 0.41847 0.27365 0.21199 0.0
C6183 C 0.40715 0.28448 0.20547 0.0
C6184 C 0.4158 0.26684 0.22878 0.0
C6185 C 0.42764 0.25547 0.23634 0.0
C6186 C 0.43027 0.23827 0.22565 0.0
C6187 C 0.44132 0.22757 0.23301 0.0
C6188 C 0.44973 0.23386 0.25109 0.0
C6189 C 0.44707 0.25085 0.26186 0.0
C6190 C 0.43604 0.2616 0.25456 0.0
C6191 C 0.33956 0.27261 0.23752 0.0
C6192 C 0.33993 0.27772 0.25681 0.0
C6193 C 0.35553 0.27349 0.22923 0.0
C6194 C 0.37212 0.28056 0.23997 0.0
C6195 C 0.37245 0.28524 0.25945 0.0
C6196 C 0.35634 0.28319 0.26788 0.0
C6197 C 0.3889 0.28023 0.23105 0.0
C6198 C 0.40099 0.27032 0.23822 0.0
C6199 C 0.39232 0.28774 0.21459 0.0
C6200 C 0.38157 0.29966 0.2064 0.0
C6201 C 0.38774 0.31985 0.21012 0.0
C6202 C 0.38007 0.33136 0.19987 0.0
C6203 C 0.36629 0.32277 0.18572 0.0
C6204 C 0.36033 0.30265 0.18164 0.0
C6205 C 0.36824 0.29111 0.19161 0.0
H6206 H 0.36051 0.33167 0.17767 0.0
H6207 H 0.45825 0.22555 0.25677 0.0
H6208 H 0.67 0.50844 0.34395 0.0
H6209 H 0.653 0.51072 0.3713 0.0
H6210 H 0.61142 0.5277 0.34025 0.0
H6211 H 0.6285 0.52514 0.31246 0.0
H6212 H 0.61552 0.54935 0.37515 0.0
H6213 H 0.60534 0.4818 0.35451 0.0
H6214 H 0.61225 0.44994 0.34404 0.0
H6215 H 0.64369 0.45547 0.3959 0.0
H6216 H 0.63717 0.48752 0.4066 0.0
H6217 H 0.55258 0.53519 0.44735 0.0
H6218 H 0.56713 0.5316 0.41801 0.0
H6219 H 0.61493 0.52481 0.44768 0.0
H6220 H 0.60075 0.52919 0.47704 0.0
H6221 H 0.60612 0.49743 0.41274 0.0
H6222 H 0.61558 0.56589 0.43277 0.0
H6223 H 0.60614 0.59643 0.44306 0.0
H6224 H 0.57339 0.58765 0.39144 0.0
H6225 H 0.5824 0.55685 0.38097 0.0
C6226 C 0.65712 0.51241 0.3426 0.0
C6227 C 0.6509 0.51625 0.32525 0.0
C6228 C 0.64719 0.51374 0.35861 0.0
C6229 C 0.63041 0.51931 0.35859 0.0
C6230 C 0.62414 0.52332 0.34131 0.0
C6231 C 0.63398 0.52164 0.32507 0.0
C6232 C 0.61985 0.52095 0.37645 0.0
C6233 C 0.61334 0.53773 0.38305 0.0
C6234 C 0.61671 0.50628 0.38768 0.0
C6235 C 0.62095 0.48718 0.38127 0.0
C6236 C 0.61389 0.47632 0.36361 0.0
C6237 C 0.6177 0.45821 0.35765 0.0
C6238 C 0.62845 0.45071 0.36927 0.0
C6239 C 0.63539 0.46132 0.3869 0.0
C6240 C 0.63164 0.47946 0.39292 0.0
C6241 C 0.56619 0.5329 0.44778 0.0
C6242 C 0.5752 0.53256 0.46516 0.0
C6243 C 0.57467 0.53087 0.43073 0.0
C6244 C 0.5925 0.52783 0.42993 0.0
C6245 C 0.60131 0.52704 0.44724 0.0
C6246 C 0.59305 0.52964 0.46432 0.0
C6247 C 0.60198 0.52583 0.41145 0.0
C6248 C 0.60831 0.50901 0.40479 0.0
C6249 C 0.60475 0.54035 0.40008 0.0
C6250 C 0.59951 0.55896 0.40616 0.0
C6251 C 0.60625 0.57039 0.42367 0.0
C6252 C 0.601 0.58776 0.42953 0.0
C6253 C 0.58913 0.59395 0.41793 0.0
C6254 C 0.58255 0.58282 0.40042 0.0
C6255 C 0.58774 0.5654 0.39451 0.0
H6256 H 0.58507 0.6074 0.42249 0.0
H6257 H 0.63136 0.43667 0.36464 0.0
H6258 H 0.34532 0.90449 0.05381 0.0
H6259 H 0.34915 0.88957 0.08097 0.0
H6260 H 0.30206 0.90697 0.10209 0.0
H6261 H 0.29845 0.92234 0.07485 0.0
H6262 H 0.33149 0.91071 0.12974 0.0
H6263 H 0.29608 0.86315 0.0794 0.0
H6264 H 0.28968 0.84554 0.04698 0.0
H6265 H 0.33867 0.82539 0.05149 0.0
H6266 H 0.34548 0.84309 0.08386 0.0
H6267 H 0.32102 0.84058 0.1896 0.0
H6268 H 0.316 0.86109 0.16736 0.0
H6269 H 0.35757 0.84296 0.13563 0.0
H6270 H 0.36216 0.82182 0.15728 0.0
H6271 H 0.32776 0.83999 0.11416 0.0
H6272 H 0.36471 0.88762 0.16265 0.0
H6273 H 0.37369 0.90654 0.19432 0.0
H6274 H 0.32485 0.92733 0.19321 0.0
H6275 H 0.31542 0.90825 0.16163 0.0
C6276 C 0.33601 0.90535 0.06445 0.0
C6277 C 0.32159 0.9143 0.06251 0.0
C6278 C 0.33817 0.89687 0.07985 0.0
C6279 C 0.32571 0.897 0.09326 0.0
C6280 C 0.31174 0.90678 0.09177 0.0
C6281 C 0.30965 0.91543 0.07633 0.0
C6282 C 0.32667 0.88558 0.10795 0.0
C6283 C 0.33036 0.89519 0.12648 0.0
C6284 C 0.32556 0.86545 0.10342 0.0
C6285 C 0.32133 0.85454 0.08402 0.0
C6286 C 0.30553 0.85505 0.07344 0.0
C6287 C 0.30183 0.84504 0.05508 0.0
C6288 C 0.31377 0.83438 0.04717 0.0
C6289 C 0.32943 0.83366 0.05763 0.0
C6290 C 0.3332 0.84365 0.07599 0.0
C6291 C 0.32905 0.84089 0.17785 0.0
C6292 C 0.34207 0.82964 0.17525 0.0
C6293 C 0.32631 0.8528 0.16531 0.0
C6294 C 0.33656 0.85363 0.15004 0.0
C6295 C 0.34962 0.84254 0.14746 0.0
C6296 C 0.35233 0.83062 0.15993 0.0
C6297 C 0.33305 0.86514 0.13604 0.0
C6298 C 0.32873 0.85548 0.11756 0.0
C6299 C 0.33383 0.88522 0.14066 0.0
C6300 C 0.33928 0.89635 0.15983 0.0
C6301 C 0.35579 0.89606 0.16922 0.0
C6302 C 0.36101 0.9069 0.18713 0.0
C6303 C 0.34989 0.91822 0.19573 0.0
C6304 C 0.33349 0.91865 0.18648 0.0
C6305 C 0.32819 0.9078 0.16859 0.0
H6306 H 0.35392 0.92654 0.20962 0.0
H6307 H 0.31089 0.82665 0.03295 0.0
H6308 H 0.92613 0.55535 0.87699 0.0
H6309 H 0.95042 0.5633 0.90202 0.0
H6310 H 0.98984 0.57298 0.8624 0.0
H6311 H 0.96571 0.56458 0.83722 0.0
H6312 H 0.99749 0.54916 0.88485 0.0
H6313 H 0.9816 0.61133 0.89283 0.0
H6314 H 0.96023 0.63287 0.89607 0.0
H6315 H 0.94348 0.61271 0.94573 0.0
H6316 H 0.96456 0.59088 0.94266 0.0
H6317 H 0.0602 0.57202 0.96744 0.0
H6318 H 0.04614 0.57883 0.93914 0.0
H6319 H 0.99354 0.56091 0.95801 0.0
H6320 H 0.00715 0.55328 0.98556 0.0
H6321 H 0.99931 0.59602 0.94338 0.0
H6322 H 0.00509 0.52901 0.93126 0.0
H6323 H 0.02234 0.50342 0.92929 0.0
H6324 H 0.05401 0.52868 0.88917 0.0
H6325 H 0.03709 0.55462 0.89115 0.0
C6326 C 0.93995 0.55943 0.87366 0.0
C6327 C 0.94406 0.55927 0.85521 0.0
C6328 C 0.95378 0.56405 0.88794 0.0
C6329 C 0.97183 0.56898 0.88397 0.0
C6330 C 0.97595 0.56929 0.86564 0.0
C6331 C 0.96216 0.56446 0.85133 0.0
C6332 C 0.9864 0.57237 0.89886 0.0
C6333 C 0.99831 0.55984 0.89743 0.0
C6334 C 0.98704 0.58598 0.91535 0.0
C6335 C 0.97468 0.59948 0.9175 0.0
C6336 C 0.97333 0.61147 0.90442 0.0
C6337 C 0.96126 0.62372 0.90623 0.0
C6338 C 0.95051 0.62416 0.9211 0.0
C6339 C 0.95184 0.61239 0.93424 0.0
C6340 C 0.96388 0.60011 0.93249 0.0
C6341 C 0.04567 0.56943 0.96547 0.0
C6342 C 0.03477 0.56166 0.97847 0.0
C6343 C 0.03772 0.57352 0.94947 0.0
C6344 C 0.01892 0.57035 0.94674 0.0
C6345 C 0.00812 0.56351 0.96009 0.0
C6346 C 0.01596 0.55903 0.97576 0.0
C6347 C 0.00996 0.57258 0.92942 0.0
C6348 C 0.99906 0.58605 0.93043 0.0
C6349 C 0.00983 0.55945 0.91276 0.0
C6350 C 0.02005 0.54393 0.91158 0.0
C6351 C 0.01588 0.52924 0.92218 0.0
C6352 C 0.02555 0.51464 0.92103 0.0
C6353 C 0.03932 0.51447 0.90917 0.0
C6354 C 0.04339 0.52887 0.8984 0.0
C6355 C 0.03377 0.54353 0.89954 0.0
H6356 H 0.04678 0.50315 0.90827 0.0
H6357 H 0.94115 0.63363 0.92245 0.0
H6358 H 0.2883 0.24323 0.55763 0.0
H6359 H 0.28649 0.2567 0.5903 0.0
H6360 H 0.30958 0.21148 0.60692 0.0
H6361 H 0.30974 0.19712 0.57422 0.0
H6362 H 0.28473 0.21452 0.6264 0.0
H6363 H 0.33179 0.26636 0.61031 0.0
H6364 H 0.34259 0.29176 0.59206 0.0
H6365 H 0.29949 0.31925 0.60817 0.0
H6366 H 0.28838 0.29395 0.62637 0.0
H6367 H 0.30903 0.24275 0.7193 0.0
H6368 H 0.30934 0.23695 0.68624 0.0
H6369 H 0.28825 0.28759 0.68317 0.0
H6370 H 0.29188 0.29599 0.71749 0.0
H6371 H 0.30641 0.28352 0.65602 0.0
H6372 H 0.26102 0.23434 0.6744 0.0
H6373 H 0.24978 0.20956 0.69315 0.0
H6374 H 0.28784 0.17687 0.67215 0.0
H6375 H 0.29939 0.20147 0.6534 0.0
C6376 C 0.29316 0.23634 0.56833 0.0
C6377 C 0.29927 0.21919 0.5634 0.0
C6378 C 0.29226 0.24415 0.5871 0.0
C6379 C 0.29822 0.23548 0.60145 0.0
C6380 C 0.3048 0.21858 0.59635 0.0
C6381 C 0.30502 0.21038 0.57761 0.0
C6382 C 0.29679 0.24302 0.62169 0.0
C6383 C 0.28973 0.2296 0.63281 0.0
C6384 C 0.30222 0.26288 0.63023 0.0
C6385 C 0.30919 0.27821 0.61957 0.0
C6386 C 0.32461 0.27781 0.60991 0.0
C6387 C 0.33078 0.29218 0.59958 0.0
C6388 C 0.32171 0.30708 0.59893 0.0
C6389 C 0.3065 0.3077 0.60867 0.0
C6390 C 0.30028 0.29337 0.61902 0.0
C6391 C 0.30446 0.25291 0.71186 0.0
C6392 C 0.29947 0.26945 0.72139 0.0
C6393 C 0.30429 0.24923 0.69261 0.0
C6394 C 0.29742 0.26081 0.68172 0.0
C6395 C 0.29299 0.27787 0.69104 0.0
C6396 C 0.29459 0.28247 0.71073 0.0
C6397 C 0.29532 0.25479 0.66083 0.0
C6398 C 0.30141 0.26845 0.64957 0.0
C6399 C 0.28877 0.23511 0.65202 0.0
C6400 C 0.28105 0.21976 0.66247 0.0
C6401 C 0.26692 0.22182 0.67372 0.0
C6402 C 0.26054 0.20783 0.68439 0.0
C6403 C 0.2681 0.19167 0.68386 0.0
C6404 C 0.28197 0.18937 0.67253 0.0
C6405 C 0.28839 0.20329 0.66182 0.0
H6406 H 0.26321 0.18093 0.69222 0.0
H6407 H 0.32648 0.31816 0.59089 0.0
H6408 H 0.67191 0.51914 0.19961 0.0
H6409 H 0.65783 0.52299 0.17003 0.0
H6410 H 0.6062 0.51589 0.19245 0.0
H6411 H 0.62021 0.51075 0.22162 0.0
H6412 H 0.59657 0.50338 0.15953 0.0
H6413 H 0.63896 0.56379 0.1815 0.0
H6414 H 0.6687 0.58533 0.19271 0.0
H6415 H 0.69032 0.56379 0.14251 0.0
H6416 H 0.66075 0.542 0.13108 0.0
H6417 H 0.55599 0.5367 0.08082 0.0
H6418 H 0.56814 0.53312 0.11174 0.0
H6419 H 0.62035 0.53442 0.0915 0.0
H6420 H 0.60847 0.53855 0.06127 0.0
H6421 H 0.62854 0.55092 0.1241 0.0
H6422 H 0.58505 0.49029 0.10247 0.0
H6423 H 0.55467 0.47003 0.09163 0.0
H6424 H 0.53428 0.49391 0.14173 0.0
H6425 H 0.56452 0.51442 0.1528 0.0
C6426 C 0.65752 0.51826 0.19837 0.0
C6427 C 0.64754 0.51449 0.21368 0.0
C6428 C 0.64927 0.52085 0.18115 0.0
C6429 C 0.63052 0.52056 0.17818 0.0
C6430 C 0.62054 0.51646 0.19347 0.0
C6431 C 0.62874 0.51348 0.21056 0.0
C6432 C 0.62145 0.52433 0.15957 0.0
C6433 C 0.60373 0.51404 0.15212 0.0
C6434 C 0.63 0.53799 0.14878 0.0
C6435 C 0.64771 0.55115 0.15553 0.0
C6436 C 0.65009 0.5636 0.1729 0.0
C6437 C 0.6669 0.57586 0.17929 0.0
C6438 C 0.6814 0.57589 0.16835 0.0
C6439 C 0.67909 0.56373 0.15097 0.0
C6440 C 0.6623 0.55144 0.14453 0.0
C6441 C 0.57011 0.53642 0.08292 0.0
C6442 C 0.58102 0.53806 0.06787 0.0
C6443 C 0.57719 0.53406 0.10087 0.0
C6444 C 0.59554 0.53297 0.1048 0.0
C6445 C 0.6063 0.53507 0.08976 0.0
C6446 C 0.5993 0.53744 0.07205 0.0
C6447 C 0.60383 0.52981 0.12397 0.0
C6448 C 0.62142 0.54024 0.13153 0.0
C6449 C 0.59507 0.51645 0.13491 0.0
C6450 C 0.57699 0.504 0.12838 0.0
C6451 C 0.57406 0.49126 0.11113 0.0
C6452 C 0.55688 0.47974 0.10496 0.0
C6453 C 0.54255 0.48072 0.11596 0.0
C6454 C 0.54539 0.49318 0.13321 0.0
C6455 C 0.56255 0.50474 0.13945 0.0
H6456 H 0.52925 0.47181 0.11115 0.0
H6457 H 0.69441 0.58537 0.17333 0.0
H6458 H 0.31569 0.92711 0.94009 0.0
H6459 H 0.31728 0.90238 0.91387 0.0
H6460 H 0.29553 0.8579 0.94474 0.0
H6461 H 0.29584 0.88284 0.97199 0.0
H6462 H 0.32129 0.84783 0.92843 0.0
H6463 H 0.27014 0.8694 0.90576 0.0
H6464 H 0.25293 0.89333 0.89903 0.0
H6465 H 0.29285 0.91497 0.86395 0.0
H6466 H 0.31025 0.89115 0.87041 0.0
H6467 H 0.3016 0.78141 0.83842 0.0
H6468 H 0.30303 0.79922 0.87019 0.0
H6469 H 0.33745 0.849 0.85495 0.0
H6470 H 0.33557 0.83172 0.82318 0.0
H6471 H 0.30234 0.85287 0.86396 0.0
H6472 H 0.35305 0.82977 0.88715 0.0
H6473 H 0.36838 0.80411 0.89305 0.0
H6474 H 0.32657 0.78301 0.9264 0.0
H6475 H 0.31083 0.80839 0.92048 0.0
C6476 C 0.31112 0.91211 0.94134 0.0
C6477 C 0.30593 0.90694 0.95821 0.0
C6478 C 0.31181 0.89791 0.92619 0.0
C6479 C 0.30621 0.87823 0.92717 0.0
C6480 C 0.29996 0.873 0.94367 0.0
C6481 C 0.29997 0.88725 0.95915 0.0
C6482 C 0.30787 0.8633 0.91125 0.0
C6483 C 0.31683 0.84871 0.91435 0.0
C6484 C 0.30218 0.86448 0.89287 0.0
C6485 C 0.29151 0.87853 0.88862 0.0
C6486 C 0.27524 0.87928 0.89662 0.0
C6487 C 0.26545 0.89282 0.89284 0.0
C6488 C 0.27181 0.90569 0.88111 0.0
C6489 C 0.28795 0.90502 0.87307 0.0
C6490 C 0.29772 0.89142 0.87668 0.0
C6491 C 0.3097 0.79604 0.84192 0.0
C6492 C 0.3176 0.8056 0.82815 0.0
C6493 C 0.31073 0.80605 0.86012 0.0
C6494 C 0.32006 0.82545 0.86464 0.0
C6495 C 0.33003 0.83405 0.85153 0.0
C6496 C 0.32883 0.82418 0.83336 0.0
C6497 C 0.31623 0.838 0.88117 0.0
C6498 C 0.30664 0.85195 0.87809 0.0
C6499 C 0.32103 0.83592 0.89943 0.0
C6500 C 0.33067 0.82088 0.90323 0.0
C6501 C 0.34704 0.81957 0.89562 0.0
C6502 C 0.35583 0.80509 0.89899 0.0
C6503 C 0.34843 0.79191 0.91005 0.0
C6504 C 0.33227 0.79322 0.91782 0.0
C6505 C 0.32343 0.80767 0.91448 0.0
H6506 H 0.35524 0.7807 0.91263 0.0
H6507 H 0.26421 0.91615 0.8782 0.0
H6508 H 0.916 0.54633 0.73676 0.0
H6509 H 0.93009 0.54637 0.70726 0.0
H6510 H 0.97475 0.52731 0.73127 0.0
H6511 H 0.96133 0.52838 0.76064 0.0
H6512 H 0.9872 0.55504 0.71445 0.0
H6513 H 0.93734 0.49692 0.6992 0.0
H6514 H 0.90498 0.48086 0.69487 0.0
H6515 H 0.89582 0.51594 0.65487 0.0
H6516 H 0.9281 0.53233 0.65913 0.0
H6517 H 0.02639 0.49741 0.65058 0.0
H6518 H 0.00896 0.51133 0.67413 0.0
H6519 H 0.98288 0.53536 0.63288 0.0
H6520 H 1.00054 0.52144 0.60913 0.0
H6521 H 0.95879 0.51465 0.65424 0.0
H6522 H 0.01146 0.56573 0.6646 0.0
H6523 H 0.04399 0.58078 0.66943 0.0
H6524 H 0.04832 0.55791 0.71958 0.0
H6525 H 0.01589 0.54242 0.7149 0.0
C6526 C 0.92877 0.54207 0.73553 0.0
C6527 C 0.9377 0.53743 0.75083 0.0
C6528 C 0.93679 0.54208 0.71875 0.0
C6529 C 0.95351 0.53686 0.71705 0.0
C6530 C 0.962 0.53166 0.73228 0.0
C6531 C 0.95429 0.53216 0.74904 0.0
C6532 C 0.96268 0.53679 0.69972 0.0
C6533 C 0.98099 0.54619 0.70127 0.0
C6534 C 0.95435 0.52606 0.6823 0.0
C6535 C 0.93506 0.51597 0.67961 0.0
C6536 C 0.9284 0.50125 0.68955 0.0
C6537 C 0.91008 0.49209 0.6871 0.0
C6538 C 0.89834 0.49741 0.67463 0.0
C6539 C 0.90491 0.51186 0.66454 0.0
C6540 C 0.92321 0.52107 0.66695 0.0
C6541 C 0.01702 0.50577 0.64658 0.0
C6542 C 0.01465 0.50829 0.6281 0.0
C6543 C 0.00717 0.51381 0.66002 0.0
C6544 C 0.99475 0.52447 0.65522 0.0
C6545 C 0.99248 0.52724 0.63681 0.0
C6546 C 1.00256 0.51937 0.62333 0.0
C6547 C 0.98358 0.53165 0.66949 0.0
C6548 C 0.96491 0.52384 0.66729 0.0
C6549 C 0.99162 0.54359 0.68647 0.0
C6550 C 0.0112 0.55285 0.68934 0.0
C6551 C 0.01936 0.56378 0.67658 0.0
C6552 C 0.03779 0.57241 0.67931 0.0
C6553 C 0.04821 0.57029 0.6948 0.0
C6554 C 0.04023 0.55954 0.70759 0.0
C6555 C 0.02181 0.55086 0.70492 0.0
H6556 H 0.06248 0.577 0.69689 0.0
H6557 H 0.88417 0.49032 0.67276 0.0
H6558 H 0.30234 0.23506 0.47033 0.0
H6559 H 0.30593 0.25101 0.44314 0.0
H6560 H 0.30468 0.19607 0.40813 0.0
H6561 H 0.30171 0.18033 0.43487 0.0
H6562 H 0.32919 0.22221 0.39796 0.0
H6563 H 0.26673 0.21846 0.41236 0.0
H6564 H 0.24301 0.22559 0.43236 0.0
H6565 H 0.26454 0.28657 0.43677 0.0
H6566 H 0.2885 0.27978 0.41696 0.0
H6567 H 0.30549 0.23731 0.30711 0.0
H6568 H 0.30677 0.22616 0.33693 0.0
H6569 H 0.30594 0.28338 0.36589 0.0
H6570 H 0.30347 0.29412 0.33631 0.0
H6571 H 0.28481 0.2592 0.38071 0.0
H6572 H 0.34545 0.26428 0.36505 0.0
H6573 H 0.3699 0.25866 0.34553 0.0
H6574 H 0.35347 0.19749 0.34424 0.0
H6575 H 0.32876 0.20273 0.36359 0.0
C6576 C 0.30302 0.22644 0.45687 0.0
C6577 C 0.30166 0.20635 0.45493 0.0
C6578 C 0.30495 0.23555 0.44128 0.0
C6579 C 0.30535 0.22473 0.42343 0.0
C6580 C 0.30444 0.20482 0.42165 0.0
C6581 C 0.30266 0.1958 0.43709 0.0
C6582 C 0.30628 0.23363 0.40634 0.0
C6583 C 0.31939 0.23019 0.39414 0.0
C6584 C 0.29391 0.24459 0.40149 0.0
C6585 C 0.2795 0.24861 0.41337 0.0
C6586 C 0.26647 0.23338 0.41771 0.0
C6587 C 0.25297 0.23736 0.42899 0.0
C6588 C 0.2523 0.25652 0.43587 0.0
C6589 C 0.2651 0.27174 0.43145 0.0
C6590 C 0.27862 0.26784 0.4202 0.0
C6591 C 0.3056 0.24748 0.31986 0.0
C6592 C 0.30482 0.26674 0.31929 0.0
C6593 C 0.3065 0.24116 0.33694 0.0
C6594 C 0.30682 0.25401 0.35382 0.0
C6595 C 0.30587 0.27317 0.35318 0.0
C6596 C 0.30474 0.2794 0.33618 0.0
C6597 C 0.3075 0.24746 0.37213 0.0
C6598 C 0.29472 0.25136 0.38455 0.0
C6599 C 0.32031 0.23712 0.37727 0.0
C6600 C 0.33516 0.23389 0.36564 0.0
C6601 C 0.34697 0.24962 0.3605 0.0
C6602 C 0.36089 0.2465 0.34949 0.0
C6603 C 0.36321 0.22773 0.34362 0.0
C6604 C 0.35164 0.21203 0.34879 0.0
C6605 C 0.33769 0.21506 0.3598 0.0
H6606 H 0.37399 0.22534 0.33509 0.0
H6607 H 0.24185 0.25957 0.4446 0.0
H6608 H 0.32258 0.59565 0.50809 0.0
H6609 H 0.35029 0.58568 0.51491 0.0
H6610 H 0.37678 0.64478 0.53816 0.0
H6611 H 0.34854 0.65506 0.53171 0.0
H6612 H 0.39421 0.62392 0.50909 0.0
H6613 H 0.37312 0.61745 0.56778 0.0
H6614 H 0.35052 0.60879 0.58959 0.0
H6615 H 0.34154 0.54888 0.56403 0.0
H6616 H 0.3639 0.55719 0.54187 0.0
H6617 H 0.46569 0.57392 0.51451 0.0
H6618 H 0.44617 0.5944 0.52875 0.0
H6619 H 0.39921 0.54981 0.50577 0.0
H6620 H 0.41855 0.52978 0.49086 0.0
H6621 H 0.39781 0.5711 0.54395 0.0
H6622 H 0.40803 0.57921 0.48024 0.0
H6623 H 0.42612 0.58661 0.45434 0.0
H6624 H 0.45262 0.64178 0.48698 0.0
H6625 H 0.43469 0.63463 0.51313 0.0
C6626 C 0.33418 0.60661 0.51481 0.0
C6627 C 0.33338 0.62619 0.51931 0.0
C6628 C 0.34998 0.60082 0.51884 0.0
C6629 C 0.36543 0.61446 0.52727 0.0
C6630 C 0.36484 0.63406 0.53185 0.0
C6631 C 0.34879 0.63988 0.52812 0.0
C6632 C 0.38237 0.60791 0.5294 0.0
C6633 C 0.39548 0.61298 0.51733 0.0
C6634 C 0.38356 0.5932 0.53972 0.0
C6635 C 0.37024 0.58797 0.55316 0.0
C6636 C 0.36628 0.60243 0.56675 0.0
C6637 C 0.35351 0.59758 0.57918 0.0
C6638 C 0.34461 0.5783 0.5782 0.0
C6639 C 0.34848 0.56381 0.56479 0.0
C6640 C 0.36124 0.56858 0.55232 0.0
C6641 C 0.45122 0.56844 0.51277 0.0
C6642 C 0.44357 0.55063 0.50112 0.0
C6643 C 0.44013 0.58007 0.52094 0.0
C6644 C 0.42132 0.57362 0.51811 0.0
C6645 C 0.41373 0.555 0.50806 0.0
C6646 C 0.42476 0.54365 0.49949 0.0
C6647 C 0.4094 0.58693 0.5234 0.0
C6648 C 0.39714 0.58285 0.53658 0.0
C6649 C 0.40878 0.60239 0.51392 0.0
C6650 C 0.42026 0.60629 0.49869 0.0
C6651 C 0.41789 0.59281 0.48196 0.0
C6652 C 0.42798 0.59702 0.46719 0.0
C6653 C 0.44042 0.61471 0.46898 0.0
C6654 C 0.44291 0.62814 0.4856 0.0
C6655 C 0.4328 0.62401 0.5004 0.0
H6656 H 0.44823 0.61796 0.45753 0.0
H6657 H 0.33472 0.57457 0.58783 0.0
H6658 H 0.87004 0.89767 0.51601 0.0
H6659 H 0.90045 0.91791 0.51747 0.0
H6660 H 0.88691 0.96007 0.56058 0.0
H6661 H 0.85605 0.94055 0.55773 0.0
H6662 H 0.90522 0.97931 0.54184 0.0
H6663 H 0.91702 0.92603 0.56669 0.0
H6664 H 0.91607 0.8919 0.56854 0.0
H6665 H 0.94305 0.88528 0.51863 0.0
H6666 H 0.94395 0.9193 0.51634 0.0
H6667 H 0.99745 0.03164 0.55778 0.0
H6668 H 0.9678 0.01186 0.56134 0.0
H6669 H 0.97243 0.97084 0.51259 0.0
H6670 H 1.00196 0.99018 0.50915 0.0
H6671 H 0.95969 0.95204 0.53851 0.0
H6672 H 0.94594 1.00553 0.5128 0.0
H6673 H 0.94735 0.04002 0.51227 0.0
H6674 H 0.92383 0.04606 0.56433 0.0
H6675 H 0.92257 0.01168 0.56533 0.0
C6676 C 0.87366 0.91127 0.52577 0.0
C6677 C 0.86069 0.91776 0.53649 0.0
C6678 C 0.89116 0.92279 0.52684 0.0
C6679 C 0.89642 0.94055 0.53946 0.0
C6680 C 0.88344 0.94659 0.55065 0.0
C6681 C 0.86578 0.93539 0.54909 0.0
C6682 C 0.91507 0.95317 0.54042 0.0
C6683 C 0.91702 0.97319 0.5411 0.0
C6684 C 0.93086 0.94562 0.5399 0.0
C6685 C 0.93043 0.92518 0.54128 0.0
C6686 C 0.92266 0.91726 0.55605 0.0
C6687 C 0.92214 0.89794 0.55718 0.0
C6688 C 0.92947 0.88642 0.5437 0.0
C6689 C 0.93737 0.89422 0.52907 0.0
C6690 C 0.93791 0.91352 0.52785 0.0
C6691 C 0.99214 0.01843 0.5478 0.0
C6692 C 1.00216 0.01263 0.53312 0.0
C6693 C 0.97513 0.00713 0.54982 0.0
C6694 C 0.96769 0.98986 0.53712 0.0
C6695 C 0.97778 0.98402 0.52261 0.0
C6696 C 0.99474 0.99522 0.52063 0.0
C6697 C 0.94944 0.97776 0.53872 0.0
C6698 C 0.94769 0.95792 0.53885 0.0
C6699 C 0.93382 0.98547 0.53996 0.0
C6700 C 0.93439 1.0061 0.53926 0.0
C6701 C 0.94121 0.01425 0.52421 0.0
C6702 C 0.94196 0.03378 0.52382 0.0
C6703 C 0.93575 0.04524 0.53829 0.0
C6704 C 0.92869 0.03718 0.55315 0.0
C6705 C 0.92795 0.01768 0.55364 0.0
H6706 H 0.93636 0.06036 0.53797 0.0
H6707 H 0.92905 0.87147 0.5446 0.0
H6708 H 0.88878 0.11241 0.29967 0.0
H6709 H 0.87419 0.13889 0.29755 0.0
H6710 H 0.90891 0.15666 0.25633 0.0
H6711 H 0.92391 0.12948 0.25836 0.0
H6712 H 0.9026 0.19004 0.27702 0.0
H6713 H 0.86115 0.13271 0.24657 0.0
H6714 H 0.84297 0.09935 0.24273 0.0
H6715 H 0.81465 0.11609 0.28971 0.0
H6716 H 0.83285 0.14954 0.29399 0.0
H6717 H 0.84389 0.24748 0.24353 0.0
H6718 H 0.86005 0.22227 0.24727 0.0
H6719 H 0.83367 0.21316 0.29644 0.0
H6720 H 0.81804 0.23963 0.29338 0.0
H6721 H 0.83571 0.17572 0.27171 0.0
H6722 H 0.87716 0.23349 0.30161 0.0
H6723 H 0.89457 0.26703 0.30415 0.0
H6724 H 0.92237 0.24946 0.25704 0.0
H6725 H 0.90493 0.21582 0.25404 0.0
C6726 C 0.89372 0.12177 0.29005 0.0
C6727 C 0.90808 0.11792 0.27928 0.0
C6728 C 0.88494 0.13728 0.28874 0.0
C6729 C 0.88966 0.15045 0.27649 0.0
C6730 C 0.9044 0.14718 0.26598 0.0
C6731 C 0.91322 0.13133 0.26718 0.0
C6732 C 0.879 0.16692 0.27482 0.0
C6733 C 0.88797 0.18656 0.2756 0.0
C6734 C 0.85964 0.16359 0.27333 0.0
C6735 C 0.84851 0.14359 0.27072 0.0
C6736 C 0.85113 0.12925 0.25616 0.0
C6737 C 0.84081 0.11033 0.2539 0.0
C6738 C 0.82772 0.10558 0.26602 0.0
C6739 C 0.82484 0.11978 0.28037 0.0
C6740 C 0.83514 0.13874 0.28271 0.0
C6741 C 0.84133 0.24036 0.25534 0.0
C6742 C 0.82901 0.24622 0.26793 0.0
C6743 C 0.85084 0.22557 0.25746 0.0
C6744 C 0.84855 0.21498 0.27214 0.0
C6745 C 0.83608 0.22052 0.28477 0.0
C6746 C 0.82689 0.23591 0.28296 0.0
C6747 C 0.85931 0.19873 0.27404 0.0
C6748 C 0.85034 0.17915 0.27321 0.0
C6749 C 0.87863 0.20211 0.2754 0.0
C6750 C 0.88955 0.22217 0.27743 0.0
C6751 C 0.88689 0.23679 0.29169 0.0
C6752 C 0.89675 0.25583 0.29321 0.0
C6753 C 0.90941 0.26041 0.28063 0.0
C6754 C 0.91244 0.24591 0.26667 0.0
C6755 C 0.90259 0.22684 0.26508 0.0
H6756 H 0.917 0.27517 0.2818 0.0
H6757 H 0.81977 0.09091 0.26427 0.0
H6758 H 0.74657 0.11362 0.02482 0.0
H6759 H 0.71534 0.09924 0.02727 0.0
H6760 H 0.70147 0.15318 0.02032 0.0
H6761 H 0.73213 0.16534 0.01293 0.0
H6762 H 0.69736 0.10432 0.05063 0.0
H6763 H 0.65865 0.152 0.01532 0.0
H6764 H 0.65869 0.1671 0.98745 0.0
H6765 H 0.68419 0.12441 0.95876 0.0
H6766 H 0.68431 0.109 0.98655 0.0
H6767 H 0.59387 0.10445 0.04502 0.0
H6768 H 0.62617 0.11946 0.05051 0.0
H6769 H 0.63847 0.06341 0.03441 0.0
H6770 H 0.60657 0.04851 0.0295 0.0
H6771 H 0.64259 0.11521 0.01853 0.0
H6772 H 0.67327 0.06144 0.04129 0.0
H6773 H 0.6763 0.04051 0.06421 0.0
H6774 H 0.66729 0.08443 0.10791 0.0
H6775 H 0.66366 0.10538 0.08505 0.0
C6776 C 0.7365 0.12156 0.02199 0.0
C6777 C 0.74137 0.1397 0.0169 0.0
C6778 C 0.71868 0.11375 0.02428 0.0
C6779 C 0.70563 0.12489 0.0237 0.0
C6780 C 0.7108 0.1437 0.01981 0.0
C6781 C 0.72842 0.15082 0.01589 0.0
C6782 C 0.68722 0.11727 0.02878 0.0
C6783 C 0.68547 0.10653 0.04323 0.0
C6784 C 0.67146 0.12029 0.01968 0.0
C6785 C 0.67171 0.12954 1.00304 0.0
C6786 C 0.6643 0.14586 1.00307 0.0
C6787 C 0.66432 0.15447 0.98732 0.0
C6788 C 0.67157 0.14677 0.97141 0.0
C6789 C 0.67877 0.13041 0.97119 0.0
C6790 C 0.67885 0.12178 0.98693 0.0
C6791 C 0.60357 0.09534 0.04347 0.0
C6792 C 0.59786 0.07538 0.03698 0.0
C6793 C 0.62192 0.10385 0.04672 0.0
C6794 C 0.63469 0.09251 0.04305 0.0
C6795 C 0.62893 0.07236 0.03794 0.0
C6796 C 0.61059 0.06384 0.03495 0.0
C6797 C 0.65303 0.1019 0.03972 0.0
C6798 C 0.65467 0.11314 0.02573 0.0
C6799 C 0.6686 0.09812 0.04818 0.0
C6800 C 0.66799 0.0848 0.06152 0.0
C6801 C 0.6716 0.06644 0.05576 0.0
C6802 C 0.67349 0.05463 0.06871 0.0
C6803 C 0.67217 0.06124 0.08752 0.0
C6804 C 0.66838 0.0794 0.09332 0.0
C6805 C 0.66617 0.09115 0.08035 0.0
H6806 H 0.67399 0.05222 0.0976 0.0
H6807 H 0.67153 0.15342 0.95921 0.0
H6808 H 0.19278 0.48361 0.2335 0.0
H6809 H 0.20384 0.45363 0.22762 0.0
H6810 H 0.24569 0.47731 0.27261 0.0
H6811 H 0.23485 0.50684 0.27876 0.0
H6812 H 0.25766 0.46136 0.23765 0.0
H6813 H 0.21137 0.44779 0.28223 0.0
H6814 H 0.17981 0.44331 0.29013 0.0
H6815 H 0.1628 0.39982 0.24092 0.0
H6816 H 0.19428 0.40421 0.23269 0.0
H6817 H 0.29046 0.42138 0.30521 0.0
H6818 H 0.27607 0.43654 0.28305 0.0
H6819 H 0.25098 0.38028 0.25074 0.0
H6820 H 0.26526 0.36493 0.27319 0.0
H6821 H 0.22704 0.40303 0.26085 0.0
H6822 H 0.28004 0.40969 0.22948 0.0
H6823 H 0.3127 0.416 0.22624 0.0
H6824 H 0.31877 0.47482 0.25411 0.0
H6825 H 0.28621 0.46882 0.25779 0.0
C6826 C 0.20421 0.4823 0.24225 0.0
C6827 C 0.21303 0.49763 0.25652 0.0
C6828 C 0.21055 0.4653 0.23874 0.0
C6829 C 0.22576 0.46365 0.24941 0.0
C6830 C 0.23415 0.47863 0.26398 0.0
C6831 C 0.22783 0.49542 0.26757 0.0
C6832 C 0.23298 0.44618 0.24639 0.0
C6833 C 0.25097 0.4483 0.24226 0.0
C6834 C 0.22388 0.42907 0.2518 0.0
C6835 C 0.20505 0.42646 0.25674 0.0
C6836 C 0.20085 0.43737 0.27305 0.0
C6837 C 0.18301 0.43484 0.2776 0.0
C6838 C 0.1693 0.42133 0.266 0.0
C6839 C 0.17342 0.41031 0.24986 0.0
C6840 C 0.19125 0.41281 0.24525 0.0
C6841 C 0.28193 0.41227 0.29335 0.0
C6842 C 0.27872 0.39207 0.29096 0.0
C6843 C 0.274 0.4209 0.28053 0.0
C6844 C 0.26279 0.40947 0.26509 0.0
C6845 C 0.25983 0.38926 0.26243 0.0
C6846 C 0.26788 0.38059 0.27525 0.0
C6847 C 0.25228 0.41892 0.25364 0.0
C6848 C 0.23359 0.4153 0.25496 0.0
C6849 C 0.26091 0.43492 0.24607 0.0
C6850 C 0.28058 0.43879 0.24378 0.0
C6851 C 0.28833 0.42396 0.23495 0.0
C6852 C 0.30685 0.42749 0.23305 0.0
C6853 C 0.3178 0.44582 0.23991 0.0
C6854 C 0.31026 0.46065 0.24872 0.0
C6855 C 0.29174 0.4572 0.25067 0.0
H6856 H 0.33214 0.44851 0.23842 0.0
H6857 H 0.15549 0.41938 0.26955 0.0
H6858 H 0.27649 0.44637 0.02327 0.0
H6859 H 0.24853 0.45697 0.02489 0.0
H6860 H 0.22173 0.40224 0.03763 0.0
H6861 H 0.25039 0.39118 0.03624 0.0
H6862 H 0.20349 0.41977 0.00717 0.0
H6863 H 0.22632 0.43409 0.07148 0.0
H6864 H 0.25008 0.44587 0.09756 0.0
H6865 H 0.26068 0.50244 0.0832 0.0
H6866 H 0.23715 0.49094 0.05687 0.0
H6867 H 0.13424 0.47485 0.01433 0.0
H6868 H 0.15256 0.45211 0.02112 0.0
H6869 H 0.20031 0.49839 0.02975 0.0
H6870 H 0.18211 0.52113 0.02403 0.0
H6871 H 0.20248 0.47765 0.05437 0.0
H6872 H 0.18628 0.46299 0.98745 0.0
H6873 H 0.16525 0.45244 0.95897 0.0
H6874 H 0.14444 0.39826 0.97588 0.0
H6875 H 0.16522 0.4086 1.00458 0.0
C6876 C 0.26477 0.43634 0.02638 0.0
C6877 C 0.26582 0.41778 0.02958 0.0
C6878 C 0.24872 0.44256 0.02733 0.0
C6879 C 0.23307 0.43047 0.03142 0.0
C6880 C 0.23373 0.41179 0.03445 0.0
C6881 C 0.25009 0.40553 0.03373 0.0
C6882 C 0.21644 0.43818 0.03263 0.0
C6883 C 0.20287 0.43204 0.0178 0.0
C6884 C 0.21596 0.45453 0.0462 0.0
C6885 C 0.22997 0.46162 0.06218 0.0
C6886 C 0.23378 0.44902 0.07383 0.0
C6887 C 0.2472 0.45565 0.08866 0.0
C6888 C 0.25688 0.47489 0.09204 0.0
C6889 C 0.25315 0.48755 0.08059 0.0
C6890 C 0.23974 0.48098 0.06573 0.0
C6891 C 0.1486 0.48021 0.01799 0.0
C6892 C 0.15672 0.49981 0.01836 0.0
C6893 C 0.15911 0.46713 0.02166 0.0
C6894 C 0.17794 0.47338 0.02565 0.0
C6895 C 0.18587 0.49308 0.02665 0.0
C6896 C 0.17542 0.5061 0.02317 0.0
C6897 C 0.18976 0.45975 0.0285 0.0
C6898 C 0.20257 0.46494 0.04406 0.0
C6899 C 0.18967 0.44276 0.0154 0.0
C6900 C 0.17709 0.43667 0.99827 0.0
C6901 C 0.17709 0.4489 0.98517 0.0
C6902 C 0.16525 0.44295 0.96898 0.0
C6903 C 0.15346 0.42473 0.96566 0.0
C6904 C 0.15353 0.4124 0.9785 0.0
C6905 C 0.16533 0.41829 0.99473 0.0
H6906 H 0.14432 0.42014 0.95311 0.0
H6907 H 0.26727 0.47999 0.10353 0.0
H6908 H 0.88057 0.01655 0.26285 0.0
H6909 H 0.86356 0.98357 0.26393 0.0
H6910 H 0.91268 0.96865 0.28163 0.0
H6911 H 0.92945 1.00198 0.28179 0.0
H6912 H 0.88772 0.94195 0.24666 0.0
H6913 H 0.89131 0.95826 0.31209 0.0
H6914 H 0.88782 0.96723 0.34549 0.0
H6915 H 0.83136 0.96387 0.33291 0.0
H6916 H 0.83459 0.95498 0.29944 0.0
H6917 H 0.85372 0.84452 0.26577 0.0
H6918 H 0.86992 0.87781 0.26555 0.0
H6919 H 0.81967 0.89615 0.26638 0.0
H6920 H 0.80339 0.8628 0.26627 0.0
H6921 H 0.84529 0.92074 0.2919 0.0
H6922 H 0.84486 0.89355 0.22699 0.0
H6923 H 0.85123 0.86999 0.20103 0.0
H6924 H 0.90779 0.88713 0.21928 0.0
H6925 H 0.90173 0.9106 0.24549 0.0
C6926 C 0.88771 0.00659 0.26777 0.0
C6927 C 0.90649 0.01277 0.27312 0.0
C6928 C 0.8779 0.9874 0.26819 0.0
C6929 C 0.88646 0.97309 0.27327 0.0
C6930 C 0.90532 0.97905 0.27801 0.0
C6931 C 0.91504 0.99835 0.27801 0.0
C6932 C 0.87623 0.95177 0.27173 0.0
C6933 C 0.87851 0.93751 0.25671 0.0
C6934 C 0.86408 0.94505 0.28464 0.0
C6935 C 0.86331 0.95647 0.3032 0.0
C6936 C 0.87832 0.96018 0.31639 0.0
C6937 C 0.87629 0.96481 0.33538 0.0
C6938 C 0.85933 0.96587 0.34136 0.0
C6939 C 0.84446 0.9629 0.3283 0.0
C6940 C 0.84643 0.95828 0.30931 0.0
C6941 C 0.84595 0.8555 0.2657 0.0
C6942 C 0.82693 0.8504 0.26595 0.0
C6943 C 0.85537 0.87478 0.26548 0.0
C6944 C 0.84629 0.89006 0.26574 0.0
C6945 C 0.82731 0.88501 0.26604 0.0
C6946 C 0.81786 0.86566 0.26593 0.0
C6947 C 0.85648 0.91125 0.26681 0.0
C6948 C 0.85416 0.92542 0.28164 0.0
C6949 C 0.86915 0.91759 0.25425 0.0
C6950 C 0.87282 0.90375 0.23828 0.0
C6951 C 0.85864 0.89222 0.22552 0.0
C6952 C 0.8622 0.87889 0.21075 0.0
C6953 C 0.8799 0.87705 0.20851 0.0
C6954 C 0.89409 0.88857 0.22101 0.0
C6955 C 0.8906 0.90191 0.23582 0.0
H6956 H 0.88264 0.86671 0.19708 0.0
H6957 H 0.85777 0.9693 0.35606 0.0
H6958 H 0.69351 0.10731 0.75909 0.0
H6959 H 0.71108 0.13959 0.75703 0.0
H6960 H 0.75434 0.11436 0.73605 0.0
H6961 H 0.73649 0.08209 0.73734 0.0
H6962 H 0.76364 0.14254 0.76856 0.0
H6963 H 0.73636 0.13441 0.70826 0.0
H6964 H 0.71218 0.12619 0.68261 0.0
H6965 H 0.68857 0.17185 0.70876 0.0
H6966 H 0.7124 0.18012 0.7348 0.0
H6967 H 0.81318 0.23913 0.77841 0.0
H6968 H 0.8001 0.20484 0.76704 0.0
H6969 H 0.74668 0.21677 0.76622 0.0
H6970 H 0.76023 0.25135 0.77486 0.0
H6971 H 0.74624 0.19308 0.7381 0.0
H6972 H 0.76995 0.19419 0.80247 0.0
H6973 H 0.79475 0.20211 0.82765 0.0
H6974 H 0.82511 0.16854 0.79331 0.0
H6975 H 0.80059 0.16055 0.76793 0.0
C6976 C 0.70669 0.10875 0.75388 0.0
C6977 C 0.71413 0.09257 0.74918 0.0
C6978 C 0.71658 0.12704 0.75252 0.0
C6979 C 0.73389 0.12917 0.74631 0.0
C6980 C 0.74096 0.11287 0.7408 0.0
C6981 C 0.73096 0.0946 0.74191 0.0
C6982 C 0.74546 0.14858 0.74823 0.0
C6983 C 0.76011 0.15355 0.76173 0.0
C6984 C 0.74066 0.16279 0.73913 0.0
C6985 C 0.72612 0.15778 0.72361 0.0
C6986 C 0.7259 0.14257 0.70868 0.0
C6987 C 0.71227 0.13792 0.69404 0.0
C6988 C 0.69883 0.14846 0.69408 0.0
C6989 C 0.69899 0.16368 0.70876 0.0
C6990 C 0.71257 0.16836 0.72347 0.0
C6991 C 0.79869 0.23425 0.77556 0.0
C6992 C 0.78763 0.2475 0.77657 0.0
C6993 C 0.79114 0.21465 0.76944 0.0
C6994 C 0.77231 0.20805 0.76591 0.0
C6995 C 0.76124 0.22145 0.76845 0.0
C6996 C 0.76889 0.24111 0.77356 0.0
C6997 C 0.76396 0.1873 0.75945 0.0
C6998 C 0.75 0.18206 0.7449 0.0
C6999 C 0.76926 0.17272 0.76774 0.0
C7000 C 0.78354 0.1769 0.78331 0.0
C7001 C 0.78191 0.18849 0.80034 0.0
C7002 C 0.79591 0.19301 0.81461 0.0
C7003 C 0.81148 0.18588 0.812 0.0
C7004 C 0.81304 0.17407 0.79525 0.0
C7005 C 0.79912 0.16953 0.78095 0.0
H7006 H 0.82238 0.18952 0.82289 0.0
H7007 H 0.6883 0.14487 0.68271 0.0
loop_
_geom_bond_atom_site_label_1
_geom_bond_atom_site_label_2
_geom_bond_distance
_geom_bond_site_symmetry_2
_ccdc_geom_bond_type
Mn0 O5 2.095 . S
Mn0 O15 2.162 . S
Mn0 O16 2.297 . S
Mn0 O24 2.385 . S
Mn0 O25 2.209 . S
Mn0 O26 2.094 . S
Mn1 O6 2.121 . S
Mn1 N8 2.257 . S
Mn1 N17 2.282 . S
Mn1 O25 2.215 . S
Mn1 O27 2.117 . S
C2 O24 1.234 . S
C2 O25 1.283 . S
C3 O15 1.281 . S
C3 O16 1.236 . S
C4 O26 1.240 . S
C4 O27 1.264 . S
O5 Mn0 2.095 . S
O5 C14 1.250 . S
O6 Mn1 2.121 . S
O6 C14 1.258 . S
C7 N8 1.326 . S
C7 C11 1.460 . S
C7 H13 0.929 . S
N8 Mn1 2.257 . S
N8 C7 1.326 . S
N8 C12 1.362 . S
C9 C10 1.258 . S
C9 C12 1.431 . S
C9 C29 1.449 . S
C10 C9 1.258 . S
C10 C11 1.477 . S
C10 H30 0.931 . S
C11 C7 1.460 . S
C11 C10 1.477 . S
C11 H31 0.930 . S
C12 N8 1.362 . S
C12 C9 1.431 . S
C12 C22 1.476 . S
H13 C7 0.929 . S
C14 O5 1.250 . S
C14 O6 1.258 . S
O15 Mn0 2.162 . S
O15 C3 1.281 . S
O16 Mn0 2.297 . S
O16 C3 1.236 . S
N17 Mn1 2.282 . S
N17 C18 1.328 . S
N17 C22 1.318 . S
C18 N17 1.328 . S
C18 C19 1.457 . S
C18 H23 0.929 . S
C19 C18 1.457 . S
C19 C20 1.291 . S
C19 H32 0.931 . S
C20 C19 1.291 . S
C20 C21 1.373 . S
C20 H33 0.929 . S
C21 C20 1.373 . S
C21 C22 1.396 . S
C21 C28 1.403 . S
C22 C12 1.476 . S
C22 N17 1.318 . S
C22 C21 1.396 . S
H23 C18 0.929 . S
O24 Mn0 2.385 . S
O24 C2 1.234 . S
O25 Mn0 2.209 . S
O25 Mn1 2.215 . S
O25 C2 1.283 . S
O26 Mn0 2.094 . S
O26 C4 1.240 . S
O27 Mn1 2.117 . S
O27 C4 1.264 . S
C28 C21 1.403 . S
C28 C29 1.399 . S
C28 H34 0.929 . S
C29 C9 1.449 . S
C29 C28 1.399 . S
C29 H35 0.930 . S
H30 C10 0.931 . S
H31 C11 0.930 . S
H32 C19 0.931 . S
H33 C20 0.929 . S
H34 C28 0.929 . S
H35 C29 0.930 . S
Mn36 O41 2.065 1_455 S
Mn36 O51 2.163 1_455 S
Mn36 O52 2.301 1_455 S
Mn36 O60 2.417 . S
Mn36 O61 2.222 . S
Mn36 O62 2.092 . S
Mn37 O42 2.121 1_455 S
Mn37 N44 2.257 . S
Mn37 N53 2.282 . S
Mn37 O61 2.215 . S
Mn37 O63 2.117 . S
C38 O60 1.234 . S
C38 O61 1.283 . S
C39 O51 1.281 . S
C39 O52 1.236 . S
C40 O62 1.240 . S
C40 O63 1.264 . S
O41 Mn36 2.065 1_655 S
O41 C50 1.250 . S
O42 Mn37 2.121 1_655 S
O42 C50 1.258 . S
C43 N44 1.326 . S
C43 C47 1.460 . S
C43 H49 0.929 1_455 S
N44 Mn37 2.257 . S
N44 C43 1.326 . S
N44 C48 1.362 . S
C45 C46 1.258 . S
C45 C48 1.431 . S
C45 C65 1.449 . S
C46 C45 1.258 . S
C46 C47 1.477 . S
C46 H66 0.931 . S
C47 C43 1.460 . S
C47 C46 1.477 . S
C47 H67 0.930 . S
C48 N44 1.362 . S
C48 C45 1.431 . S
C48 C58 1.476 . S
H49 C43 0.929 1_655 S
C50 O41 1.250 . S
C50 O42 1.258 . S
O51 Mn36 2.163 1_655 S
O51 C39 1.281 . S
O52 Mn36 2.301 1_655 S
O52 C39 1.236 . S
N53 Mn37 2.282 . S
N53 C54 1.328 . S
N53 C58 1.318 . S
C54 N53 1.328 . S
C54 C55 1.457 . S
C54 H59 0.929 . S
C55 C54 1.457 . S
C55 C56 1.291 . S
C55 H68 0.931 . S
C56 C55 1.291 . S
C56 C57 1.373 . S
C56 H69 0.929 . S
C57 C56 1.373 . S
C57 C58 1.396 . S
C57 C64 1.403 . S
C58 C48 1.476 . S
C58 N53 1.318 . S
C58 C57 1.396 . S
H59 C54 0.929 . S
O60 Mn36 2.417 . S
O60 C38 1.234 . S
O61 Mn36 2.222 . S
O61 Mn37 2.215 . S
O61 C38 1.283 . S
O62 Mn36 2.092 . S
O62 C40 1.240 . S
O63 Mn37 2.117 . S
O63 C40 1.264 . S
C64 C57 1.403 . S
C64 C65 1.399 . S
C64 H70 0.929 . S
C65 C45 1.449 . S
C65 C64 1.399 . S
C65 H71 0.930 . S
H66 C46 0.931 . S
H67 C47 0.930 . S
H68 C55 0.931 . S
H69 C56 0.929 . S
H70 C64 0.929 . S
H71 C65 0.930 . S
Mn72 O77 2.095 . S
Mn72 O87 2.162 . S
Mn72 O88 2.297 . S
Mn72 O96 2.385 . S
Mn72 O97 2.209 . S
Mn72 O98 2.094 . S
Mn73 O78 2.121 . S
Mn73 N80 2.257 . S
Mn73 N89 2.282 . S
Mn73 O97 2.215 . S
Mn73 O99 2.117 . S
C74 O96 1.234 . S
C74 O97 1.283 . S
C75 O87 1.281 . S
C75 O88 1.236 . S
C76 O98 1.240 . S
C76 O99 1.264 . S
O77 Mn72 2.095 . S
O77 C86 1.250 . S
O78 Mn73 2.121 . S
O78 C86 1.258 . S
C79 N80 1.326 . S
C79 C83 1.460 . S
C79 H85 0.929 . S
N80 Mn73 2.257 . S
N80 C79 1.326 . S
N80 C84 1.362 . S
C81 C82 1.258 . S
C81 C84 1.431 . S
C81 C101 1.449 . S
C82 C81 1.258 . S
C82 C83 1.477 . S
C82 H102 0.931 . S
C83 C79 1.460 . S
C83 C82 1.477 . S
C83 H103 0.930 . S
C84 N80 1.362 . S
C84 C81 1.431 . S
C84 C94 1.476 . S
H85 C79 0.929 . S
C86 O77 1.250 . S
C86 O78 1.258 . S
O87 Mn72 2.162 . S
O87 C75 1.281 . S
O88 Mn72 2.297 . S
O88 C75 1.236 . S
N89 Mn73 2.282 . S
N89 C90 1.328 . S
N89 C94 1.318 . S
C90 N89 1.328 . S
C90 C91 1.457 . S
C90 H95 0.929 . S
C91 C90 1.457 . S
C91 C92 1.291 . S
C91 H104 0.931 . S
C92 C91 1.291 . S
C92 C93 1.373 . S
C92 H105 0.929 . S
C93 C92 1.373 . S
C93 C94 1.396 . S
C93 C100 1.403 . S
C94 C84 1.476 . S
C94 N89 1.318 . S
C94 C93 1.396 . S
H95 C90 0.929 . S
O96 Mn72 2.385 . S
O96 C74 1.234 . S
O97 Mn72 2.209 . S
O97 Mn73 2.215 . S
O97 C74 1.283 . S
O98 Mn72 2.094 . S
O98 C76 1.240 . S
O99 Mn73 2.117 . S
O99 C76 1.264 . S
C100 C93 1.403 . S
C100 C101 1.399 . S
C100 H106 0.929 . S
C101 C81 1.449 . S
C101 C100 1.399 . S
C101 H107 0.930 . S
H102 C82 0.931 . S
H103 C83 0.930 . S
H104 C91 0.931 . S
H105 C92 0.929 . S
H106 C100 0.929 . S
H107 C101 0.930 . S
Mn108 O113 2.095 . S
Mn108 O123 2.162 . S
Mn108 O124 2.297 . S
Mn108 O132 2.385 . S
Mn108 O133 2.209 . S
Mn108 O134 2.094 . S
Mn109 O114 2.121 . S
Mn109 N116 2.257 . S
Mn109 N125 2.282 . S
Mn109 O133 2.215 . S
Mn109 O135 2.117 . S
C110 O132 1.234 . S
C110 O133 1.283 . S
C111 O123 1.281 . S
C111 O124 1.236 . S
C112 O134 1.240 . S
C112 O135 1.264 . S
O113 Mn108 2.095 . S
O113 C122 1.250 . S
O114 Mn109 2.121 . S
O114 C122 1.258 . S
C115 N116 1.326 . S
C115 C119 1.460 . S
C115 H121 0.929 . S
N116 Mn109 2.257 . S
N116 C115 1.326 . S
N116 C120 1.362 . S
C117 C118 1.258 . S
C117 C120 1.431 . S
C117 C137 1.449 . S
C118 C117 1.258 . S
C118 C119 1.477 . S
C118 H138 0.931 . S
C119 C115 1.460 . S
C119 C118 1.477 . S
C119 H139 0.930 . S
C120 N116 1.362 . S
C120 C117 1.431 . S
C120 C130 1.476 . S
H121 C115 0.929 . S
C122 O113 1.250 . S
C122 O114 1.258 . S
O123 Mn108 2.162 . S
O123 C111 1.281 . S
O124 Mn108 2.297 . S
O124 C111 1.236 . S
N125 Mn109 2.282 . S
N125 C126 1.328 . S
N125 C130 1.318 . S
C126 N125 1.328 . S
C126 C127 1.457 . S
C126 H131 0.929 . S
C127 C126 1.457 . S
C127 C128 1.291 . S
C127 H140 0.931 . S
C128 C127 1.291 . S
C128 C129 1.373 . S
C128 H141 0.929 . S
C129 C128 1.373 . S
C129 C130 1.396 . S
C129 C136 1.403 . S
C130 C120 1.476 . S
C130 N125 1.318 . S
C130 C129 1.396 . S
H131 C126 0.929 . S
O132 Mn108 2.385 . S
O132 C110 1.234 . S
O133 Mn108 2.209 . S
O133 Mn109 2.215 . S
O133 C110 1.283 . S
O134 Mn108 2.094 . S
O134 C112 1.240 . S
O135 Mn109 2.117 . S
O135 C112 1.264 . S
C136 C129 1.403 . S
C136 C137 1.399 . S
C136 H142 0.929 . S
C137 C117 1.449 . S
C137 C136 1.399 . S
C137 H143 0.930 . S
H138 C118 0.931 . S
H139 C119 0.930 . S
H140 C127 0.931 . S
H141 C128 0.929 . S
H142 C136 0.929 . S
H143 C137 0.930 . S
Mn144 O149 2.095 . S
Mn144 O159 2.162 . S
Mn144 O160 2.297 . S
Mn144 O168 2.385 . S
Mn144 O169 2.209 . S
Mn144 O170 2.094 . S
Mn145 O150 2.121 . S
Mn145 N152 2.257 . S
Mn145 N161 2.282 . S
Mn145 O169 2.215 . S
Mn145 O171 2.117 . S
C146 O168 1.234 . S
C146 O169 1.283 . S
C147 O159 1.281 . S
C147 O160 1.236 . S
C148 O170 1.240 . S
C148 O171 1.264 . S
O149 Mn144 2.095 . S
O149 C158 1.250 . S
O150 Mn145 2.121 . S
O150 C158 1.258 . S
C151 N152 1.326 . S
C151 C155 1.460 . S
C151 H157 0.929 . S
N152 Mn145 2.257 . S
N152 C151 1.326 . S
N152 C156 1.362 . S
C153 C154 1.258 . S
C153 C156 1.431 . S
C153 C173 1.449 . S
C154 C153 1.258 . S
C154 C155 1.477 . S
C154 H174 0.931 1_554 S
C155 C151 1.460 . S
C155 C154 1.477 . S
C155 H175 0.930 . S
C156 N152 1.362 . S
C156 C153 1.431 . S
C156 C166 1.476 . S
H157 C151 0.929 . S
C158 O149 1.250 . S
C158 O150 1.258 . S
O159 Mn144 2.162 . S
O159 C147 1.281 . S
O160 Mn144 2.297 . S
O160 C147 1.236 . S
N161 Mn145 2.282 . S
N161 C162 1.328 . S
N161 C166 1.318 . S
C162 N161 1.328 . S
C162 C163 1.457 . S
C162 H167 0.929 . S
C163 C162 1.457 . S
C163 C164 1.291 . S
C163 H176 0.931 . S
C164 C163 1.291 . S
C164 C165 1.373 . S
C164 H177 0.929 . S
C165 C164 1.373 . S
C165 C166 1.396 . S
C165 C172 1.403 . S
C166 C156 1.476 . S
C166 N161 1.318 . S
C166 C165 1.396 . S
H167 C162 0.929 . S
O168 Mn144 2.385 . S
O168 C146 1.234 . S
O169 Mn144 2.209 . S
O169 Mn145 2.215 . S
O169 C146 1.283 . S
O170 Mn144 2.094 . S
O170 C148 1.240 . S
O171 Mn145 2.117 . S
O171 C148 1.264 . S
C172 C165 1.403 . S
C172 C173 1.399 . S
C172 H178 0.929 . S
C173 C153 1.449 . S
C173 C172 1.399 . S
C173 H179 0.930 1_554 S
H174 C154 0.931 1_556 S
H175 C155 0.930 . S
H176 C163 0.931 . S
H177 C164 0.929 . S
H178 C172 0.929 . S
H179 C173 0.930 1_556 S
Mn180 O185 2.095 . S
Mn180 O195 2.162 . S
Mn180 O196 2.297 . S
Mn180 O204 2.385 . S
Mn180 O205 2.209 . S
Mn180 O206 2.094 . S
Mn181 O186 2.121 . S
Mn181 N188 2.257 . S
Mn181 N197 2.282 . S
Mn181 O205 2.215 . S
Mn181 O207 2.117 . S
C182 O204 1.234 . S
C182 O205 1.283 . S
C183 O195 1.281 . S
C183 O196 1.236 . S
C184 O206 1.240 . S
C184 O207 1.264 . S
O185 Mn180 2.095 . S
O185 C194 1.250 . S
O186 Mn181 2.121 . S
O186 C194 1.258 . S
C187 N188 1.326 . S
C187 C191 1.460 . S
C187 H193 0.929 . S
N188 Mn181 2.257 . S
N188 C187 1.326 . S
N188 C192 1.362 . S
C189 C190 1.258 . S
C189 C192 1.431 . S
C189 C209 1.449 . S
C190 C189 1.258 . S
C190 C191 1.477 . S
C190 H210 0.931 . S
C191 C187 1.460 . S
C191 C190 1.477 . S
C191 H211 0.930 . S
C192 N188 1.362 . S
C192 C189 1.431 . S
C192 C202 1.476 . S
H193 C187 0.929 . S
C194 O185 1.250 . S
C194 O186 1.258 . S
O195 Mn180 2.162 . S
O195 C183 1.281 . S
O196 Mn180 2.297 . S
O196 C183 1.236 . S
N197 Mn181 2.282 . S
N197 C198 1.328 . S
N197 C202 1.318 . S
C198 N197 1.328 . S
C198 C199 1.457 . S
C198 H203 0.929 . S
C199 C198 1.457 . S
C199 C200 1.291 . S
C199 H212 0.931 . S
C200 C199 1.291 . S
C200 C201 1.373 . S
C200 H213 0.929 . S
C201 C200 1.373 . S
C201 C202 1.396 . S
C201 C208 1.403 . S
C202 C192 1.476 . S
C202 N197 1.318 . S
C202 C201 1.396 . S
H203 C198 0.929 . S
O204 Mn180 2.385 . S
O204 C182 1.234 . S
O205 Mn180 2.209 . S
O205 Mn181 2.215 . S
O205 C182 1.283 . S
O206 Mn180 2.094 . S
O206 C184 1.240 . S
O207 Mn181 2.117 . S
O207 C184 1.264 . S
C208 C201 1.403 . S
C208 C209 1.399 . S
C208 H214 0.929 . S
C209 C189 1.449 . S
C209 C208 1.399 . S
C209 H215 0.930 . S
H210 C190 0.931 . S
H211 C191 0.930 . S
H212 C199 0.931 . S
H213 C200 0.929 . S
H214 C208 0.929 . S
H215 C209 0.930 . S
Mn216 O221 2.095 . S
Mn216 O231 2.162 . S
Mn216 O232 2.297 . S
Mn216 O240 2.385 . S
Mn216 O241 2.209 . S
Mn216 O242 2.094 . S
Mn217 O222 2.121 . S
Mn217 N224 2.257 . S
Mn217 N233 2.282 . S
Mn217 O241 2.215 . S
Mn217 O243 2.117 . S
C218 O240 1.234 . S
C218 O241 1.283 . S
C219 O231 1.281 . S
C219 O232 1.236 . S
C220 O242 1.240 . S
C220 O243 1.264 . S
O221 Mn216 2.095 . S
O221 C230 1.250 . S
O222 Mn217 2.121 . S
O222 C230 1.258 . S
C223 N224 1.326 . S
C223 C227 1.460 . S
C223 H229 0.929 . S
N224 Mn217 2.257 . S
N224 C223 1.326 . S
N224 C228 1.362 . S
C225 C226 1.258 . S
C225 C228 1.431 . S
C225 C245 1.449 . S
C226 C225 1.258 . S
C226 C227 1.477 . S
C226 H246 0.931 . S
C227 C223 1.460 . S
C227 C226 1.477 . S
C227 H247 0.930 . S
C228 N224 1.362 . S
C228 C225 1.431 . S
C228 C238 1.476 . S
H229 C223 0.929 . S
C230 O221 1.250 . S
C230 O222 1.258 . S
O231 Mn216 2.162 . S
O231 C219 1.281 . S
O232 Mn216 2.297 . S
O232 C219 1.236 . S
N233 Mn217 2.282 . S
N233 C234 1.328 . S
N233 C238 1.318 . S
C234 N233 1.328 . S
C234 C235 1.457 . S
C234 H239 0.929 . S
C235 C234 1.457 . S
C235 C236 1.291 . S
C235 H248 0.931 . S
C236 C235 1.291 . S
C236 C237 1.373 . S
C236 H249 0.929 . S
C237 C236 1.373 . S
C237 C238 1.396 . S
C237 C244 1.403 . S
C238 C228 1.476 . S
C238 N233 1.318 . S
C238 C237 1.396 . S
H239 C234 0.929 . S
O240 Mn216 2.385 . S
O240 C218 1.234 . S
O241 Mn216 2.209 . S
O241 Mn217 2.215 . S
O241 C218 1.283 . S
O242 Mn216 2.094 . S
O242 C220 1.240 . S
O243 Mn217 2.117 . S
O243 C220 1.264 . S
C244 C237 1.403 . S
C244 C245 1.399 . S
C244 H250 0.929 . S
C245 C225 1.449 . S
C245 C244 1.399 . S
C245 H251 0.930 . S
H246 C226 0.931 . S
H247 C227 0.930 . S
H248 C235 0.931 . S
H249 C236 0.929 . S
H250 C244 0.929 . S
H251 C245 0.930 . S
Mn252 O257 2.095 . S
Mn252 O267 2.162 . S
Mn252 O268 2.297 . S
Mn252 O276 2.385 1_455 S
Mn252 O277 2.209 . S
Mn252 O278 2.094 . S
Mn253 O258 2.121 . S
Mn253 N260 2.257 . S
Mn253 N269 2.282 1_455 S
Mn253 O277 2.215 . S
Mn253 O279 2.117 . S
C254 O276 1.234 . S
C254 O277 1.283 1_655 S
C255 O267 1.281 . S
C255 O268 1.236 . S
C256 O278 1.240 . S
C256 O279 1.264 . S
O257 Mn252 2.095 . S
O257 C266 1.250 . S
O258 Mn253 2.121 . S
O258 C266 1.258 . S
C259 N260 1.326 . S
C259 C263 1.460 . S
C259 H265 0.929 . S
N260 Mn253 2.257 . S
N260 C259 1.326 . S
N260 C264 1.362 1_455 S
C261 C262 1.258 . S
C261 C264 1.431 . S
C261 C281 1.449 . S
C262 C261 1.258 . S
C262 C263 1.477 1_655 S
C262 H282 0.931 . S
C263 C259 1.460 . S
C263 C262 1.477 1_455 S
C263 H283 0.930 . S
C264 N260 1.362 1_655 S
C264 C261 1.431 . S
C264 C274 1.476 . S
H265 C259 0.929 . S
C266 O257 1.250 . S
C266 O258 1.258 . S
O267 Mn252 2.162 . S
O267 C255 1.281 . S
O268 Mn252 2.297 . S
O268 C255 1.236 . S
N269 Mn253 2.282 1_655 S
N269 C270 1.328 . S
N269 C274 1.318 . S
C270 N269 1.328 . S
C270 C271 1.457 . S
C270 H275 0.929 . S
C271 C270 1.457 . S
C271 C272 1.291 . S
C271 H284 0.931 . S
C272 C271 1.291 . S
C272 C273 1.373 . S
C272 H285 0.929 . S
C273 C272 1.373 . S
C273 C274 1.396 . S
C273 C280 1.403 . S
C274 C264 1.476 . S
C274 N269 1.318 . S
C274 C273 1.396 . S
H275 C270 0.929 . S
O276 Mn252 2.385 1_655 S
O276 C254 1.234 . S
O277 Mn252 2.209 . S
O277 Mn253 2.215 . S
O277 C254 1.283 1_455 S
O278 Mn252 2.094 . S
O278 C256 1.240 . S
O279 Mn253 2.117 . S
O279 C256 1.264 . S
C280 C273 1.403 . S
C280 C281 1.399 . S
C280 H286 0.929 . S
C281 C261 1.449 . S
C281 C280 1.399 . S
C281 H287 0.930 . S
H282 C262 0.931 . S
H283 C263 0.930 . S
H284 C271 0.931 . S
H285 C272 0.929 . S
H286 C280 0.929 . S
H287 C281 0.930 . S
Mn288 O293 2.095 . S
Mn288 O303 2.162 . S
Mn288 O304 2.297 . S
Mn288 O312 2.385 1_545 S
Mn288 O313 2.209 . S
Mn288 O314 2.094 . S
Mn289 O294 2.121 . S
Mn289 N296 2.257 . S
Mn289 N305 2.282 1_545 S
Mn289 O313 2.215 . S
Mn289 O315 2.117 . S
C290 O312 1.234 . S
C290 O313 1.283 1_565 S
C291 O303 1.281 . S
C291 O304 1.236 . S
C292 O314 1.240 . S
C292 O315 1.264 . S
O293 Mn288 2.095 . S
O293 C302 1.250 . S
O294 Mn289 2.121 . S
O294 C302 1.258 . S
C295 N296 1.326 . S
C295 C299 1.460 . S
C295 H301 0.929 . S
N296 Mn289 2.257 . S
N296 C295 1.326 . S
N296 C300 1.362 1_545 S
C297 C298 1.258 . S
C297 C300 1.431 . S
C297 C317 1.449 . S
C298 C297 1.258 . S
C298 C299 1.477 1_565 S
C298 H318 0.931 . S
C299 C295 1.460 . S
C299 C298 1.477 1_545 S
C299 H319 0.930 . S
C300 N296 1.362 1_565 S
C300 C297 1.431 . S
C300 C310 1.476 . S
H301 C295 0.929 . S
C302 O293 1.250 . S
C302 O294 1.258 . S
O303 Mn288 2.162 . S
O303 C291 1.281 . S
O304 Mn288 2.297 . S
O304 C291 1.236 . S
N305 Mn289 2.282 1_565 S
N305 C306 1.328 . S
N305 C310 1.318 . S
C306 N305 1.328 . S
C306 C307 1.457 . S
C306 H311 0.929 . S
C307 C306 1.457 . S
C307 C308 1.291 . S
C307 H320 0.931 . S
C308 C307 1.291 . S
C308 C309 1.373 . S
C308 H321 0.929 . S
C309 C308 1.373 . S
C309 C310 1.396 . S
C309 C316 1.403 . S
C310 C300 1.476 . S
C310 N305 1.318 . S
C310 C309 1.396 . S
H311 C306 0.929 . S
O312 Mn288 2.385 1_565 S
O312 C290 1.234 . S
O313 Mn288 2.209 . S
O313 Mn289 2.215 . S
O313 C290 1.283 1_545 S
O314 Mn288 2.094 . S
O314 C292 1.240 . S
O315 Mn289 2.117 . S
O315 C292 1.264 . S
C316 C309 1.403 . S
C316 C317 1.399 . S
C316 H322 0.929 . S
C317 C297 1.449 . S
C317 C316 1.399 . S
C317 H323 0.930 . S
H318 C298 0.931 . S
H319 C299 0.930 . S
H320 C307 0.931 . S
H321 C308 0.929 . S
H322 C316 0.929 . S
H323 C317 0.930 . S
Mn324 O329 2.095 . S
Mn324 O339 2.162 . S
Mn324 O340 2.297 . S
Mn324 O348 2.385 . S
Mn324 O349 2.209 . S
Mn324 O350 2.094 . S
Mn325 O330 2.121 . S
Mn325 N332 2.257 . S
Mn325 N341 2.282 . S
Mn325 O349 2.215 . S
Mn325 O351 2.117 . S
C326 O348 1.234 . S
C326 O349 1.283 . S
C327 O339 1.281 . S
C327 O340 1.236 . S
C328 O350 1.240 . S
C328 O351 1.264 . S
O329 Mn324 2.095 . S
O329 C338 1.250 . S
O330 Mn325 2.121 . S
O330 C338 1.258 . S
C331 N332 1.326 . S
C331 C335 1.460 . S
C331 H337 0.929 . S
N332 Mn325 2.257 . S
N332 C331 1.326 . S
N332 C336 1.362 . S
C333 C334 1.258 . S
C333 C336 1.431 . S
C333 C353 1.449 . S
C334 C333 1.258 . S
C334 C335 1.477 . S
C334 H354 0.931 . S
C335 C331 1.460 . S
C335 C334 1.477 . S
C335 H355 0.930 . S
C336 N332 1.362 . S
C336 C333 1.431 . S
C336 C346 1.476 . S
H337 C331 0.929 . S
C338 O329 1.250 . S
C338 O330 1.258 . S
O339 Mn324 2.162 . S
O339 C327 1.281 . S
O340 Mn324 2.297 . S
O340 C327 1.236 . S
N341 Mn325 2.282 . S
N341 C342 1.328 . S
N341 C346 1.318 . S
C342 N341 1.328 . S
C342 C343 1.457 . S
C342 H347 0.929 . S
C343 C342 1.457 . S
C343 C344 1.291 . S
C343 H356 0.931 . S
C344 C343 1.291 . S
C344 C345 1.373 . S
C344 H357 0.929 . S
C345 C344 1.373 . S
C345 C346 1.396 . S
C345 C352 1.403 . S
C346 C336 1.476 . S
C346 N341 1.318 . S
C346 C345 1.396 . S
H347 C342 0.929 . S
O348 Mn324 2.385 . S
O348 C326 1.234 . S
O349 Mn324 2.209 . S
O349 Mn325 2.215 . S
O349 C326 1.283 . S
O350 Mn324 2.094 . S
O350 C328 1.240 . S
O351 Mn325 2.117 . S
O351 C328 1.264 . S
C352 C345 1.403 . S
C352 C353 1.399 . S
C352 H358 0.929 . S
C353 C333 1.449 . S
C353 C352 1.399 . S
C353 H359 0.930 . S
H354 C334 0.931 . S
H355 C335 0.930 . S
H356 C343 0.931 . S
H357 C344 0.929 . S
H358 C352 0.929 . S
H359 C353 0.930 . S
Mn360 O365 2.103 . S
Mn360 O375 2.161 . S
Mn360 O376 2.296 . S
Mn360 O384 2.377 1_565 S
Mn360 O385 2.206 1_565 S
Mn360 O386 2.093 . S
Mn361 O366 2.121 1_545 S
Mn361 N368 2.257 . S
Mn361 N377 2.282 . S
Mn361 O385 2.215 . S
Mn361 O387 2.117 . S
C362 O384 1.234 . S
C362 O385 1.283 . S
C363 O375 1.281 . S
C363 O376 1.236 . S
C364 O386 1.245 1_545 S
C364 O387 1.264 . S
O365 Mn360 2.103 . S
O365 C374 1.250 . S
O366 Mn361 2.121 1_565 S
O366 C374 1.258 . S
C367 N368 1.326 . S
C367 C371 1.460 . S
C367 H373 0.919 1_545 S
N368 Mn361 2.257 . S
N368 C367 1.326 . S
N368 C372 1.362 . S
C369 C370 1.258 . S
C369 C372 1.431 . S
C369 C389 1.449 . S
C370 C369 1.258 . S
C370 C371 1.477 . S
C370 H390 0.931 . S
C371 C367 1.460 . S
C371 C370 1.477 . S
C371 H391 0.930 . S
C372 N368 1.362 . S
C372 C369 1.431 . S
C372 C382 1.476 . S
H373 C367 0.919 1_565 S
C374 O365 1.250 . S
C374 O366 1.258 . S
O375 Mn360 2.161 . S
O375 C363 1.281 . S
O376 Mn360 2.296 . S
O376 C363 1.236 . S
N377 Mn361 2.282 . S
N377 C378 1.328 . S
N377 C382 1.318 . S
C378 N377 1.328 . S
C378 C379 1.457 . S
C378 H383 0.929 . S
C379 C378 1.457 . S
C379 C380 1.291 . S
C379 H392 0.931 . S
C380 C379 1.291 . S
C380 C381 1.373 . S
C380 H393 0.929 . S
C381 C380 1.373 . S
C381 C382 1.396 . S
C381 C388 1.403 . S
C382 C372 1.476 . S
C382 N377 1.318 . S
C382 C381 1.396 . S
H383 C378 0.929 . S
O384 Mn360 2.377 1_545 S
O384 C362 1.234 . S
O385 Mn360 2.206 1_545 S
O385 Mn361 2.215 . S
O385 C362 1.283 . S
O386 Mn360 2.093 . S
O386 C364 1.245 1_565 S
O387 Mn361 2.117 . S
O387 C364 1.264 . S
C388 C381 1.403 . S
C388 C389 1.399 . S
C388 H394 0.929 . S
C389 C369 1.449 . S
C389 C388 1.399 . S
C389 H395 0.930 . S
H390 C370 0.931 . S
H391 C371 0.930 . S
H392 C379 0.931 . S
H393 C380 0.929 . S
H394 C388 0.929 . S
H395 C389 0.930 . S
Mn396 O401 2.095 . S
Mn396 O411 2.162 . S
Mn396 O412 2.297 . S
Mn396 O420 2.385 . S
Mn396 O421 2.209 . S
Mn396 O422 2.094 1_554 S
Mn397 O402 2.121 1_556 S
Mn397 N404 2.257 . S
Mn397 N413 2.282 . S
Mn397 O421 2.215 1_556 S
Mn397 O423 2.117 . S
C398 O420 1.234 . S
C398 O421 1.283 . S
C399 O411 1.281 . S
C399 O412 1.236 . S
C400 O422 1.240 . S
C400 O423 1.264 . S
O401 Mn396 2.095 . S
O401 C410 1.250 . S
O402 Mn397 2.121 1_554 S
O402 C410 1.258 . S
C403 N404 1.326 1_554 S
C403 C407 1.460 1_565 S
C403 H409 0.929 . S
N404 Mn397 2.257 . S
N404 C403 1.326 1_556 S
N404 C408 1.362 . S
C405 C406 1.238 1_556 S
C405 C408 1.431 1_545 S
C405 C425 1.449 . S
C406 C405 1.238 1_554 S
C406 C407 1.503 . S
C406 H426 0.927 . S
C407 C403 1.460 1_545 S
C407 C406 1.503 . S
C407 H427 0.930 . S
C408 N404 1.362 . S
C408 C405 1.431 1_565 S
C408 C418 1.476 . S
H409 C403 0.929 . S
C410 O401 1.250 . S
C410 O402 1.258 . S
O411 Mn396 2.162 . S
O411 C399 1.281 . S
O412 Mn396 2.297 . S
O412 C399 1.236 . S
N413 Mn397 2.282 . S
N413 C414 1.328 . S
N413 C418 1.318 . S
C414 N413 1.328 . S
C414 C415 1.457 . S
C414 H419 0.929 . S
C415 C414 1.457 . S
C415 C416 1.291 . S
C415 H428 0.931 . S
C416 C415 1.291 . S
C416 C417 1.373 . S
C416 H429 0.929 . S
C417 C416 1.373 . S
C417 C418 1.396 . S
C417 C424 1.403 1_565 S
C418 C408 1.476 . S
C418 N413 1.318 . S
C418 C417 1.396 . S
H419 C414 0.929 . S
O420 Mn396 2.385 . S
O420 C398 1.234 . S
O421 Mn396 2.209 . S
O421 Mn397 2.215 1_554 S
O421 C398 1.283 . S
O422 Mn396 2.094 1_556 S
O422 C400 1.240 . S
O423 Mn397 2.117 . S
O423 C400 1.264 . S
C424 C417 1.403 1_545 S
C424 C425 1.399 . S
C424 H430 0.929 . S
C425 C405 1.449 . S
C425 C424 1.399 . S
C425 H431 0.930 . S
H426 C406 0.927 . S
H427 C407 0.930 . S
H428 C415 0.931 . S
H429 C416 0.929 . S
H430 C424 0.929 . S
H431 C425 0.930 . S
Mn432 O437 2.095 . S
Mn432 O447 2.162 . S
Mn432 O448 2.297 . S
Mn432 O456 2.385 . S
Mn432 O457 2.209 . S
Mn432 O458 2.094 . S
Mn433 O438 2.121 . S
Mn433 N440 2.257 . S
Mn433 N449 2.282 1_554 S
Mn433 O457 2.215 . S
Mn433 O459 2.117 1_554 S
C434 O456 1.234 . S
C434 O457 1.283 . S
C435 O447 1.281 . S
C435 O448 1.236 . S
C436 O458 1.240 1_556 S
C436 O459 1.264 . S
O437 Mn432 2.095 . S
O437 C446 1.250 . S
O438 Mn433 2.121 . S
O438 C446 1.258 . S
C439 N440 1.326 . S
C439 C443 1.460 . S
C439 H445 0.929 . S
N440 Mn433 2.257 . S
N440 C439 1.326 . S
N440 C444 1.362 . S
C441 C442 1.258 . S
C441 C444 1.431 . S
C441 C461 1.449 . S
C442 C441 1.258 . S
C442 C443 1.477 . S
C442 H462 0.931 . S
C443 C439 1.460 . S
C443 C442 1.477 . S
C443 H463 0.930 . S
C444 N440 1.362 . S
C444 C441 1.431 . S
C444 C454 1.476 . S
H445 C439 0.929 . S
C446 O437 1.250 . S
C446 O438 1.258 . S
O447 Mn432 2.162 . S
O447 C435 1.281 . S
O448 Mn432 2.297 . S
O448 C435 1.236 . S
N449 Mn433 2.282 1_556 S
N449 C450 1.328 . S
N449 C454 1.318 1_556 S
C450 N449 1.328 . S
C450 C451 1.457 . S
C450 H455 0.929 . S
C451 C450 1.457 . S
C451 C452 1.291 . S
C451 H464 0.931 . S
C452 C451 1.291 . S
C452 C453 1.373 . S
C452 H465 0.929 . S
C453 C452 1.373 . S
C453 C454 1.396 1_556 S
C453 C460 1.403 . S
C454 C444 1.476 . S
C454 N449 1.318 1_554 S
C454 C453 1.396 1_554 S
H455 C450 0.929 . S
O456 Mn432 2.385 . S
O456 C434 1.234 . S
O457 Mn432 2.209 . S
O457 Mn433 2.215 . S
O457 C434 1.283 . S
O458 Mn432 2.094 . S
O458 C436 1.240 1_554 S
O459 Mn433 2.117 1_556 S
O459 C436 1.264 . S
C460 C453 1.403 . S
C460 C461 1.399 1_556 S
C460 H466 0.929 . S
C461 C441 1.449 . S
C461 C460 1.399 1_554 S
C461 H467 0.930 . S
H462 C442 0.931 . S
H463 C443 0.930 . S
H464 C451 0.931 . S
H465 C452 0.929 . S
H466 C460 0.929 . S
H467 C461 0.930 . S
Mn468 O473 2.095 . S
Mn468 O483 2.162 . S
Mn468 O484 2.297 . S
Mn468 O492 2.385 . S
Mn468 O493 2.209 . S
Mn468 O494 2.094 . S
Mn469 O474 2.121 1_556 S
Mn469 N476 2.257 . S
Mn469 N485 2.282 . S
Mn469 O493 2.215 1_556 S
Mn469 O495 2.117 . S
C470 O492 1.234 . S
C470 O493 1.283 . S
C471 O483 1.281 . S
C471 O484 1.236 . S
C472 O494 1.240 1_556 S
C472 O495 1.264 . S
O473 Mn468 2.095 . S
O473 C482 1.250 . S
O474 Mn469 2.121 1_554 S
O474 C482 1.258 . S
C475 N476 1.326 . S
C475 C479 1.460 . S
C475 H481 0.929 1_556 S
N476 Mn469 2.257 . S
N476 C475 1.326 . S
N476 C480 1.362 . S
C477 C478 1.258 . S
C477 C480 1.431 . S
C477 C497 1.449 . S
C478 C477 1.258 . S
C478 C479 1.477 . S
C478 H498 0.931 . S
C479 C475 1.460 . S
C479 C478 1.477 . S
C479 H499 0.942 . S
C480 N476 1.362 . S
C480 C477 1.431 . S
C480 C490 1.476 . S
H481 C475 0.929 1_554 S
C482 O473 1.250 . S
C482 O474 1.258 . S
O483 Mn468 2.162 . S
O483 C471 1.281 . S
O484 Mn468 2.297 . S
O484 C471 1.236 . S
N485 Mn469 2.282 . S
N485 C486 1.328 . S
N485 C490 1.318 . S
C486 N485 1.328 . S
C486 C487 1.457 . S
C486 H491 0.929 . S
C487 C486 1.457 . S
C487 C488 1.291 . S
C487 H500 0.931 . S
C488 C487 1.291 . S
C488 C489 1.373 . S
C488 H501 0.929 . S
C489 C488 1.373 . S
C489 C490 1.396 . S
C489 C496 1.403 . S
C490 C480 1.476 . S
C490 N485 1.318 . S
C490 C489 1.396 . S
H491 C486 0.929 . S
O492 Mn468 2.385 . S
O492 C470 1.234 . S
O493 Mn468 2.209 . S
O493 Mn469 2.215 1_554 S
O493 C470 1.283 . S
O494 Mn468 2.094 . S
O494 C472 1.240 1_554 S
O495 Mn469 2.117 . S
O495 C472 1.264 . S
C496 C489 1.403 . S
C496 C497 1.399 . S
C496 H502 0.929 . S
C497 C477 1.449 . S
C497 C496 1.399 . S
C497 H503 0.930 . S
H498 C478 0.931 . S
H499 C479 0.942 . S
H500 C487 0.931 . S
H501 C488 0.929 . S
H502 C496 0.929 . S
H503 C497 0.930 . S
Mn504 O509 2.095 . S
Mn504 O519 2.162 . S
Mn504 O520 2.297 . S
Mn504 O528 2.385 . S
Mn504 O529 2.209 . S
Mn504 O530 2.094 . S
Mn505 O510 2.121 . S
Mn505 N512 2.257 . S
Mn505 N521 2.282 . S
Mn505 O529 2.215 . S
Mn505 O531 2.117 . S
C506 O528 1.234 . S
C506 O529 1.283 . S
C507 O519 1.281 . S
C507 O520 1.236 . S
C508 O530 1.240 . S
C508 O531 1.264 . S
O509 Mn504 2.095 . S
O509 C518 1.250 . S
O510 Mn505 2.121 . S
O510 C518 1.258 . S
C511 N512 1.326 . S
C511 C515 1.460 . S
C511 H517 0.929 . S
N512 Mn505 2.257 . S
N512 C511 1.326 . S
N512 C516 1.362 . S
C513 C514 1.258 . S
C513 C516 1.431 . S
C513 C533 1.449 . S
C514 C513 1.258 . S
C514 C515 1.477 . S
C514 H534 0.931 . S
C515 C511 1.460 . S
C515 C514 1.477 . S
C515 H535 0.930 . S
C516 N512 1.362 . S
C516 C513 1.431 . S
C516 C526 1.476 . S
H517 C511 0.929 . S
C518 O509 1.250 . S
C518 O510 1.258 . S
O519 Mn504 2.162 . S
O519 C507 1.281 . S
O520 Mn504 2.297 . S
O520 C507 1.236 . S
N521 Mn505 2.282 . S
N521 C522 1.328 . S
N521 C526 1.318 . S
C522 N521 1.328 . S
C522 C523 1.457 . S
C522 H527 0.929 . S
C523 C522 1.457 . S
C523 C524 1.291 . S
C523 H536 0.931 . S
C524 C523 1.291 . S
C524 C525 1.373 . S
C524 H537 0.929 . S
C525 C524 1.373 . S
C525 C526 1.396 . S
C525 C532 1.403 . S
C526 C516 1.476 . S
C526 N521 1.318 . S
C526 C525 1.396 . S
H527 C522 0.929 . S
O528 Mn504 2.385 . S
O528 C506 1.234 . S
O529 Mn504 2.209 . S
O529 Mn505 2.215 . S
O529 C506 1.283 . S
O530 Mn504 2.094 . S
O530 C508 1.240 . S
O531 Mn505 2.117 . S
O531 C508 1.264 . S
C532 C525 1.403 . S
C532 C533 1.399 . S
C532 H538 0.929 . S
C533 C513 1.449 . S
C533 C532 1.399 . S
C533 H539 0.930 . S
H534 C514 0.931 . S
H535 C515 0.930 . S
H536 C523 0.931 . S
H537 C524 0.929 . S
H538 C532 0.929 . S
H539 C533 0.930 . S
Mn540 O545 2.095 . S
Mn540 O555 2.162 . S
Mn540 O556 2.297 . S
Mn540 O564 2.385 . S
Mn540 O565 2.209 . S
Mn540 O566 2.094 . S
Mn541 O546 2.121 . S
Mn541 N548 2.257 . S
Mn541 N557 2.282 . S
Mn541 O565 2.215 . S
Mn541 O567 2.117 . S
C542 O564 1.234 . S
C542 O565 1.283 . S
C543 O555 1.281 . S
C543 O556 1.236 . S
C544 O566 1.240 . S
C544 O567 1.264 . S
O545 Mn540 2.095 . S
O545 C554 1.250 . S
O546 Mn541 2.121 . S
O546 C554 1.258 . S
C547 N548 1.326 . S
C547 C551 1.460 . S
C547 H553 0.929 . S
N548 Mn541 2.257 . S
N548 C547 1.326 . S
N548 C552 1.362 . S
C549 C550 1.258 . S
C549 C552 1.431 . S
C549 C569 1.449 . S
C550 C549 1.258 . S
C550 C551 1.477 . S
C550 H570 0.931 . S
C551 C547 1.460 . S
C551 C550 1.477 . S
C551 H571 0.930 . S
C552 N548 1.362 . S
C552 C549 1.431 . S
C552 C562 1.476 . S
H553 C547 0.929 . S
C554 O545 1.250 . S
C554 O546 1.258 . S
O555 Mn540 2.162 . S
O555 C543 1.281 . S
O556 Mn540 2.297 . S
O556 C543 1.236 . S
N557 Mn541 2.282 . S
N557 C558 1.328 . S
N557 C562 1.318 . S
C558 N557 1.328 . S
C558 C559 1.457 . S
C558 H563 0.929 . S
C559 C558 1.457 . S
C559 C560 1.291 . S
C559 H572 0.931 . S
C560 C559 1.291 . S
C560 C561 1.373 . S
C560 H573 0.929 . S
C561 C560 1.373 . S
C561 C562 1.396 . S
C561 C568 1.403 . S
C562 C552 1.476 . S
C562 N557 1.318 . S
C562 C561 1.396 . S
H563 C558 0.929 . S
O564 Mn540 2.385 . S
O564 C542 1.234 . S
O565 Mn540 2.209 . S
O565 Mn541 2.215 . S
O565 C542 1.283 . S
O566 Mn540 2.094 . S
O566 C544 1.240 . S
O567 Mn541 2.117 . S
O567 C544 1.264 . S
C568 C561 1.403 . S
C568 C569 1.399 . S
C568 H574 0.929 . S
C569 C549 1.449 . S
C569 C568 1.399 . S
C569 H575 0.930 . S
H570 C550 0.931 . S
H571 C551 0.930 . S
H572 C559 0.931 . S
H573 C560 0.929 . S
H574 C568 0.929 . S
H575 C569 0.930 . S
Mn576 O581 2.095 . S
Mn576 O591 2.162 . S
Mn576 O592 2.297 . S
Mn576 O600 2.385 . S
Mn576 O601 2.209 . S
Mn576 O602 2.094 . S
Mn577 O582 2.121 . S
Mn577 N584 2.257 . S
Mn577 N593 2.282 . S
Mn577 O601 2.215 . S
Mn577 O603 2.117 . S
C578 O600 1.234 . S
C578 O601 1.283 . S
C579 O591 1.281 . S
C579 O592 1.236 . S
C580 O602 1.240 . S
C580 O603 1.264 . S
O581 Mn576 2.095 . S
O581 C590 1.250 . S
O582 Mn577 2.121 . S
O582 C590 1.258 . S
C583 N584 1.326 . S
C583 C587 1.460 . S
C583 H589 0.929 . S
N584 Mn577 2.257 . S
N584 C583 1.326 . S
N584 C588 1.362 . S
C585 C586 1.258 . S
C585 C588 1.431 . S
C585 C605 1.449 . S
C586 C585 1.258 . S
C586 C587 1.477 . S
C586 H606 0.931 . S
C587 C583 1.460 . S
C587 C586 1.477 . S
C587 H607 0.930 . S
C588 N584 1.362 . S
C588 C585 1.431 . S
C588 C598 1.476 . S
H589 C583 0.929 . S
C590 O581 1.250 . S
C590 O582 1.258 . S
O591 Mn576 2.162 . S
O591 C579 1.281 . S
O592 Mn576 2.297 . S
O592 C579 1.236 . S
N593 Mn577 2.282 . S
N593 C594 1.328 . S
N593 C598 1.318 . S
C594 N593 1.328 . S
C594 C595 1.457 . S
C594 H599 0.929 . S
C595 C594 1.457 . S
C595 C596 1.291 . S
C595 H608 0.931 . S
C596 C595 1.291 . S
C596 C597 1.373 . S
C596 H609 0.929 1_545 S
C597 C596 1.373 . S
C597 C598 1.396 . S
C597 C604 1.403 . S
C598 C588 1.476 . S
C598 N593 1.318 . S
C598 C597 1.396 . S
H599 C594 0.929 . S
O600 Mn576 2.385 . S
O600 C578 1.234 . S
O601 Mn576 2.209 . S
O601 Mn577 2.215 . S
O601 C578 1.283 . S
O602 Mn576 2.094 . S
O602 C580 1.240 . S
O603 Mn577 2.117 . S
O603 C580 1.264 . S
C604 C597 1.403 . S
C604 C605 1.399 . S
C604 H610 0.929 1_545 S
C605 C585 1.449 . S
C605 C604 1.399 . S
C605 H611 0.930 . S
H606 C586 0.931 . S
H607 C587 0.930 . S
H608 C595 0.931 . S
H609 C596 0.929 1_565 S
H610 C604 0.929 1_565 S
H611 C605 0.930 . S
Mn612 O617 2.095 . S
Mn612 O627 2.162 . S
Mn612 O628 2.297 . S
Mn612 O636 2.385 . S
Mn612 O637 2.209 . S
Mn612 O638 2.094 . S
Mn613 O618 2.121 . S
Mn613 N620 2.257 . S
Mn613 N629 2.282 . S
Mn613 O637 2.215 . S
Mn613 O639 2.117 . S
C614 O636 1.234 . S
C614 O637 1.283 . S
C615 O627 1.281 . S
C615 O628 1.236 . S
C616 O638 1.240 . S
C616 O639 1.264 . S
O617 Mn612 2.095 . S
O617 C626 1.250 . S
O618 Mn613 2.121 . S
O618 C626 1.258 . S
C619 N620 1.326 . S
C619 C623 1.460 . S
C619 H625 0.929 . S
N620 Mn613 2.257 . S
N620 C619 1.326 . S
N620 C624 1.362 . S
C621 C622 1.258 . S
C621 C624 1.431 . S
C621 C641 1.449 . S
C622 C621 1.258 . S
C622 C623 1.477 . S
C622 H642 0.931 . S
C623 C619 1.460 . S
C623 C622 1.477 . S
C623 H643 0.930 . S
C624 N620 1.362 . S
C624 C621 1.431 . S
C624 C634 1.476 . S
H625 C619 0.929 . S
C626 O617 1.250 . S
C626 O618 1.258 . S
O627 Mn612 2.162 . S
O627 C615 1.281 . S
O628 Mn612 2.297 . S
O628 C615 1.236 . S
N629 Mn613 2.282 . S
N629 C630 1.328 . S
N629 C634 1.318 . S
C630 N629 1.328 . S
C630 C631 1.457 . S
C630 H635 0.929 . S
C631 C630 1.457 . S
C631 C632 1.291 . S
C631 H644 0.931 . S
C632 C631 1.291 . S
C632 C633 1.373 . S
C632 H645 0.929 . S
C633 C632 1.373 . S
C633 C634 1.396 . S
C633 C640 1.403 . S
C634 C624 1.476 . S
C634 N629 1.318 . S
C634 C633 1.396 . S
H635 C630 0.929 . S
O636 Mn612 2.385 . S
O636 C614 1.234 . S
O637 Mn612 2.209 . S
O637 Mn613 2.215 . S
O637 C614 1.283 . S
O638 Mn612 2.094 . S
O638 C616 1.240 . S
O639 Mn613 2.117 . S
O639 C616 1.264 . S
C640 C633 1.403 . S
C640 C641 1.399 . S
C640 H646 0.929 . S
C641 C621 1.449 . S
C641 C640 1.399 . S
C641 H647 0.930 . S
H642 C622 0.931 . S
H643 C623 0.930 . S
H644 C631 0.931 . S
H645 C632 0.929 . S
H646 C640 0.929 . S
H647 C641 0.930 . S
Mn648 O653 2.095 . S
Mn648 O663 2.162 . S
Mn648 O664 2.297 . S
Mn648 O672 2.385 . S
Mn648 O673 2.209 . S
Mn648 O674 2.094 . S
Mn649 O654 2.121 . S
Mn649 N656 2.257 . S
Mn649 N665 2.282 . S
Mn649 O673 2.215 . S
Mn649 O675 2.117 . S
C650 O672 1.234 . S
C650 O673 1.283 . S
C651 O663 1.281 . S
C651 O664 1.236 . S
C652 O674 1.240 . S
C652 O675 1.264 . S
O653 Mn648 2.095 . S
O653 C662 1.250 . S
O654 Mn649 2.121 . S
O654 C662 1.258 . S
C655 N656 1.326 . S
C655 C659 1.460 . S
C655 H661 0.929 . S
N656 Mn649 2.257 . S
N656 C655 1.326 . S
N656 C660 1.362 . S
C657 C658 1.258 . S
C657 C660 1.431 . S
C657 C677 1.449 . S
C658 C657 1.258 . S
C658 C659 1.477 . S
C658 H678 0.931 . S
C659 C655 1.460 . S
C659 C658 1.477 . S
C659 H679 0.930 . S
C660 N656 1.362 . S
C660 C657 1.431 . S
C660 C670 1.476 . S
H661 C655 0.929 . S
C662 O653 1.250 . S
C662 O654 1.258 . S
O663 Mn648 2.162 . S
O663 C651 1.281 . S
O664 Mn648 2.297 . S
O664 C651 1.236 . S
N665 Mn649 2.282 . S
N665 C666 1.328 . S
N665 C670 1.318 . S
C666 N665 1.328 . S
C666 C667 1.457 . S
C666 H671 0.929 . S
C667 C666 1.457 . S
C667 C668 1.291 . S
C667 H680 0.931 . S
C668 C667 1.291 . S
C668 C669 1.373 . S
C668 H681 0.929 . S
C669 C668 1.373 . S
C669 C670 1.396 . S
C669 C676 1.403 . S
C670 C660 1.476 . S
C670 N665 1.318 . S
C670 C669 1.396 . S
H671 C666 0.929 . S
O672 Mn648 2.385 . S
O672 C650 1.234 . S
O673 Mn648 2.209 . S
O673 Mn649 2.215 . S
O673 C650 1.283 . S
O674 Mn648 2.094 . S
O674 C652 1.240 . S
O675 Mn649 2.117 . S
O675 C652 1.264 . S
C676 C669 1.403 . S
C676 C677 1.399 . S
C676 H682 0.929 . S
C677 C657 1.449 . S
C677 C676 1.399 . S
C677 H683 0.930 . S
H678 C658 0.931 . S
H679 C659 0.930 . S
H680 C667 0.931 . S
H681 C668 0.929 . S
H682 C676 0.929 . S
H683 C677 0.930 . S
Mn684 O689 2.095 . S
Mn684 O699 2.162 . S
Mn684 O700 2.297 . S
Mn684 O708 2.385 . S
Mn684 O709 2.209 . S
Mn684 O710 2.094 . S
Mn685 O690 2.121 . S
Mn685 N692 2.257 . S
Mn685 N701 2.282 . S
Mn685 O709 2.215 . S
Mn685 O711 2.117 . S
C686 O708 1.234 . S
C686 O709 1.283 . S
C687 O699 1.281 . S
C687 O700 1.236 . S
C688 O710 1.240 . S
C688 O711 1.264 . S
O689 Mn684 2.095 . S
O689 C698 1.250 . S
O690 Mn685 2.121 . S
O690 C698 1.258 . S
C691 N692 1.326 . S
C691 C695 1.460 . S
C691 H697 0.929 . S
N692 Mn685 2.257 . S
N692 C691 1.326 . S
N692 C696 1.362 . S
C693 C694 1.258 . S
C693 C696 1.431 . S
C693 C713 1.449 . S
C694 C693 1.258 . S
C694 C695 1.477 . S
C694 H714 0.931 . S
C695 C691 1.460 . S
C695 C694 1.477 . S
C695 H715 0.930 . S
C696 N692 1.362 . S
C696 C693 1.431 . S
C696 C706 1.476 . S
H697 C691 0.929 . S
C698 O689 1.250 . S
C698 O690 1.258 . S
O699 Mn684 2.162 . S
O699 C687 1.281 . S
O700 Mn684 2.297 . S
O700 C687 1.236 . S
N701 Mn685 2.282 . S
N701 C702 1.328 . S
N701 C706 1.318 . S
C702 N701 1.328 . S
C702 C703 1.457 . S
C702 H707 0.929 . S
C703 C702 1.457 . S
C703 C704 1.291 . S
C703 H716 0.931 . S
C704 C703 1.291 . S
C704 C705 1.373 . S
C704 H717 0.929 . S
C705 C704 1.373 . S
C705 C706 1.396 . S
C705 C712 1.403 . S
C706 C696 1.476 . S
C706 N701 1.318 . S
C706 C705 1.396 . S
H707 C702 0.929 . S
O708 Mn684 2.385 . S
O708 C686 1.234 . S
O709 Mn684 2.209 . S
O709 Mn685 2.215 . S
O709 C686 1.283 . S
O710 Mn684 2.094 . S
O710 C688 1.240 . S
O711 Mn685 2.117 . S
O711 C688 1.264 . S
C712 C705 1.403 . S
C712 C713 1.399 . S
C712 H718 0.929 . S
C713 C693 1.449 . S
C713 C712 1.399 . S
C713 H719 0.930 . S
H714 C694 0.931 . S
H715 C695 0.930 . S
H716 C703 0.931 . S
H717 C704 0.929 . S
H718 C712 0.929 . S
H719 C713 0.930 . S
Mn720 O725 2.095 1_554 S
Mn720 O735 2.162 . S
Mn720 O736 2.297 . S
Mn720 O744 2.385 . S
Mn720 O745 2.209 1_554 S
Mn720 O746 2.094 1_554 S
Mn721 O726 2.121 . S
Mn721 N728 2.257 . S
Mn721 N737 2.282 . S
Mn721 O745 2.215 . S
Mn721 O747 2.117 . S
C722 O744 1.234 1_556 S
C722 O745 1.283 . S
C723 O735 1.281 . S
C723 O736 1.236 . S
C724 O746 1.240 . S
C724 O747 1.264 . S
O725 Mn720 2.095 1_556 S
O725 C734 1.250 . S
O726 Mn721 2.121 . S
O726 C734 1.258 . S
C727 N728 1.326 . S
C727 C731 1.460 . S
C727 H733 0.929 . S
N728 Mn721 2.257 . S
N728 C727 1.326 . S
N728 C732 1.362 . S
C729 C730 1.258 . S
C729 C732 1.431 . S
C729 C749 1.449 . S
C730 C729 1.258 . S
C730 C731 1.477 . S
C730 H750 0.931 . S
C731 C727 1.460 . S
C731 C730 1.477 . S
C731 H751 0.930 . S
C732 N728 1.362 . S
C732 C729 1.431 . S
C732 C742 1.476 . S
H733 C727 0.929 . S
C734 O725 1.250 . S
C734 O726 1.258 . S
O735 Mn720 2.162 . S
O735 C723 1.281 . S
O736 Mn720 2.297 . S
O736 C723 1.236 . S
N737 Mn721 2.282 . S
N737 C738 1.328 . S
N737 C742 1.318 . S
C738 N737 1.328 . S
C738 C739 1.457 . S
C738 H743 0.929 . S
C739 C738 1.457 . S
C739 C740 1.291 . S
C739 H752 0.931 . S
C740 C739 1.291 . S
C740 C741 1.373 . S
C740 H753 0.929 . S
C741 C740 1.373 . S
C741 C742 1.396 . S
C741 C748 1.403 . S
C742 C732 1.476 . S
C742 N737 1.318 . S
C742 C741 1.396 . S
H743 C738 0.929 . S
O744 Mn720 2.385 . S
O744 C722 1.234 1_554 S
O745 Mn720 2.209 1_556 S
O745 Mn721 2.215 . S
O745 C722 1.283 . S
O746 Mn720 2.094 1_556 S
O746 C724 1.240 . S
O747 Mn721 2.117 . S
O747 C724 1.264 . S
C748 C741 1.403 . S
C748 C749 1.399 . S
C748 H754 0.929 . S
C749 C729 1.449 . S
C749 C748 1.399 . S
C749 H755 0.930 . S
H750 C730 0.931 . S
H751 C731 0.930 . S
H752 C739 0.931 . S
H753 C740 0.929 . S
H754 C748 0.929 . S
H755 C749 0.930 . S
Mn756 O761 2.095 . S
Mn756 O771 2.162 . S
Mn756 O772 2.297 . S
Mn756 O780 2.385 . S
Mn756 O781 2.209 . S
Mn756 O782 2.094 . S
Mn757 O762 2.121 . S
Mn757 N764 2.257 . S
Mn757 N773 2.282 . S
Mn757 O781 2.215 . S
Mn757 O783 2.117 . S
C758 O780 1.234 . S
C758 O781 1.283 . S
C759 O771 1.281 . S
C759 O772 1.236 . S
C760 O782 1.240 . S
C760 O783 1.264 . S
O761 Mn756 2.095 . S
O761 C770 1.250 . S
O762 Mn757 2.121 . S
O762 C770 1.258 . S
C763 N764 1.326 . S
C763 C767 1.460 . S
C763 H769 0.929 . S
N764 Mn757 2.257 . S
N764 C763 1.326 . S
N764 C768 1.362 . S
C765 C766 1.258 . S
C765 C768 1.431 . S
C765 C785 1.449 . S
C766 C765 1.258 . S
C766 C767 1.477 . S
C766 H786 0.931 . S
C767 C763 1.460 . S
C767 C766 1.477 . S
C767 H787 0.930 . S
C768 N764 1.362 . S
C768 C765 1.431 . S
C768 C778 1.476 . S
H769 C763 0.929 . S
C770 O761 1.250 . S
C770 O762 1.258 . S
O771 Mn756 2.162 . S
O771 C759 1.281 . S
O772 Mn756 2.297 . S
O772 C759 1.236 . S
N773 Mn757 2.282 . S
N773 C774 1.328 . S
N773 C778 1.318 . S
C774 N773 1.328 . S
C774 C775 1.457 . S
C774 H779 0.929 . S
C775 C774 1.457 . S
C775 C776 1.291 . S
C775 H788 0.931 . S
C776 C775 1.291 . S
C776 C777 1.373 . S
C776 H789 0.929 . S
C777 C776 1.373 . S
C777 C778 1.396 . S
C777 C784 1.403 . S
C778 C768 1.476 . S
C778 N773 1.318 . S
C778 C777 1.396 . S
H779 C774 0.929 . S
O780 Mn756 2.385 . S
O780 C758 1.234 . S
O781 Mn756 2.209 . S
O781 Mn757 2.215 . S
O781 C758 1.283 . S
O782 Mn756 2.094 . S
O782 C760 1.240 . S
O783 Mn757 2.117 . S
O783 C760 1.264 . S
C784 C777 1.403 . S
C784 C785 1.399 . S
C784 H790 0.929 . S
C785 C765 1.449 . S
C785 C784 1.399 . S
C785 H791 0.930 . S
H786 C766 0.931 . S
H787 C767 0.930 . S
H788 C775 0.931 . S
H789 C776 0.929 . S
H790 C784 0.929 . S
H791 C785 0.930 . S
Mn792 O797 2.095 . S
Mn792 O807 2.162 . S
Mn792 O808 2.297 . S
Mn792 O816 2.385 . S
Mn792 O817 2.209 . S
Mn792 O818 2.094 . S
Mn793 O798 2.121 . S
Mn793 N800 2.257 . S
Mn793 N809 2.282 . S
Mn793 O817 2.215 . S
Mn793 O819 2.117 . S
C794 O816 1.234 . S
C794 O817 1.283 . S
C795 O807 1.281 . S
C795 O808 1.236 . S
C796 O818 1.240 . S
C796 O819 1.264 . S
O797 Mn792 2.095 . S
O797 C806 1.250 . S
O798 Mn793 2.121 . S
O798 C806 1.258 . S
C799 N800 1.326 . S
C799 C803 1.460 . S
C799 H805 0.929 . S
N800 Mn793 2.257 . S
N800 C799 1.326 . S
N800 C804 1.362 . S
C801 C802 1.258 . S
C801 C804 1.431 . S
C801 C821 1.449 . S
C802 C801 1.258 . S
C802 C803 1.477 . S
C802 H822 0.931 . S
C803 C799 1.460 . S
C803 C802 1.477 . S
C803 H823 0.930 . S
C804 N800 1.362 . S
C804 C801 1.431 . S
C804 C814 1.476 . S
H805 C799 0.929 . S
C806 O797 1.250 . S
C806 O798 1.258 . S
O807 Mn792 2.162 . S
O807 C795 1.281 . S
O808 Mn792 2.297 . S
O808 C795 1.236 . S
N809 Mn793 2.282 . S
N809 C810 1.328 . S
N809 C814 1.318 . S
C810 N809 1.328 . S
C810 C811 1.457 . S
C810 H815 0.929 . S
C811 C810 1.457 . S
C811 C812 1.291 . S
C811 H824 0.931 . S
C812 C811 1.291 . S
C812 C813 1.373 . S
C812 H825 0.929 . S
C813 C812 1.373 . S
C813 C814 1.396 . S
C813 C820 1.403 . S
C814 C804 1.476 . S
C814 N809 1.318 . S
C814 C813 1.396 . S
H815 C810 0.929 . S
O816 Mn792 2.385 . S
O816 C794 1.234 . S
O817 Mn792 2.209 . S
O817 Mn793 2.215 . S
O817 C794 1.283 . S
O818 Mn792 2.094 . S
O818 C796 1.240 . S
O819 Mn793 2.117 . S
O819 C796 1.264 . S
C820 C813 1.403 . S
C820 C821 1.399 . S
C820 H826 0.929 . S
C821 C801 1.449 . S
C821 C820 1.399 . S
C821 H827 0.930 . S
H822 C802 0.931 . S
H823 C803 0.930 . S
H824 C811 0.931 . S
H825 C812 0.929 . S
H826 C820 0.929 . S
H827 C821 0.930 . S
Mn828 O833 2.095 . S
Mn828 O843 2.162 . S
Mn828 O844 2.297 . S
Mn828 O852 2.385 . S
Mn828 O853 2.209 . S
Mn828 O854 2.094 . S
Mn829 O834 2.121 . S
Mn829 N836 2.257 . S
Mn829 N845 2.282 . S
Mn829 O853 2.215 . S
Mn829 O855 2.117 . S
C830 O852 1.234 . S
C830 O853 1.283 . S
C831 O843 1.281 . S
C831 O844 1.236 . S
C832 O854 1.240 . S
C832 O855 1.264 . S
O833 Mn828 2.095 . S
O833 C842 1.250 . S
O834 Mn829 2.121 . S
O834 C842 1.258 . S
C835 N836 1.326 . S
C835 C839 1.460 . S
C835 H841 0.929 . S
N836 Mn829 2.257 . S
N836 C835 1.326 . S
N836 C840 1.362 . S
C837 C838 1.258 . S
C837 C840 1.431 . S
C837 C857 1.449 . S
C838 C837 1.258 . S
C838 C839 1.477 . S
C838 H858 0.931 . S
C839 C835 1.460 . S
C839 C838 1.477 . S
C839 H859 0.930 . S
C840 N836 1.362 . S
C840 C837 1.431 . S
C840 C850 1.476 . S
H841 C835 0.929 . S
C842 O833 1.250 . S
C842 O834 1.258 . S
O843 Mn828 2.162 . S
O843 C831 1.281 . S
O844 Mn828 2.297 . S
O844 C831 1.236 . S
N845 Mn829 2.282 . S
N845 C846 1.328 . S
N845 C850 1.318 . S
C846 N845 1.328 . S
C846 C847 1.457 . S
C846 H851 0.929 . S
C847 C846 1.457 . S
C847 C848 1.291 . S
C847 H860 0.931 . S
C848 C847 1.291 . S
C848 C849 1.373 . S
C848 H861 0.929 . S
C849 C848 1.373 . S
C849 C850 1.396 . S
C849 C856 1.403 . S
C850 C840 1.476 . S
C850 N845 1.318 . S
C850 C849 1.396 . S
H851 C846 0.929 . S
O852 Mn828 2.385 . S
O852 C830 1.234 . S
O853 Mn828 2.209 . S
O853 Mn829 2.215 . S
O853 C830 1.283 . S
O854 Mn828 2.094 . S
O854 C832 1.240 . S
O855 Mn829 2.117 . S
O855 C832 1.264 . S
C856 C849 1.403 . S
C856 C857 1.399 . S
C856 H862 0.929 . S
C857 C837 1.449 . S
C857 C856 1.399 . S
C857 H863 0.930 . S
H858 C838 0.931 . S
H859 C839 0.930 . S
H860 C847 0.931 . S
H861 C848 0.929 . S
H862 C856 0.929 . S
H863 C857 0.930 . S
Gd864 N895 2.661 . S
Gd864 N901 2.601 . S
Gd864 O908 2.545 . S
Gd864 O909 2.606 . S
Gd864 O911 2.429 . S
Gd864 O912 2.545 . S
Gd864 O913 2.412 . S
Gd864 O915 2.362 . S
Gd864 O916 2.324 1_554 S
Gd864 C923 2.828 . S
Gd865 N874 2.661 1_545 S
Gd865 N878 2.601 1_544 S
Gd865 O909 2.362 . S
Gd865 O910 2.324 . S
Gd865 O914 2.545 1_454 S
Gd865 O915 2.606 . S
Gd865 O917 2.429 1_554 S
Gd865 O918 2.561 . S
Gd865 O919 2.412 1_455 S
Gd865 C932 2.828 1_454 S
C866 C869 1.423 . S
C866 C871 1.435 . S
C866 C872 1.412 . S
C867 C870 1.437 . S
C867 C871 1.308 1_556 S
C867 H886 0.929 . S
C868 C869 1.428 1_556 S
C868 C870 1.430 . S
C868 N878 1.340 1_655 S
C869 C866 1.423 . S
C869 C868 1.428 1_554 S
C869 N874 1.345 1_655 S
C870 C867 1.437 . S
C870 C868 1.430 . S
C870 C880 1.391 . S
C871 C866 1.435 . S
C871 C867 1.308 1_554 S
C871 H882 0.935 . S
C872 C866 1.412 . S
C872 C873 1.344 1_655 S
C872 H884 0.930 . S
C873 C872 1.344 1_455 S
C873 C875 1.416 . S
C873 H885 0.930 . S
N874 Gd865 2.661 1_565 S
N874 C869 1.345 1_455 S
N874 C875 1.307 . S
C875 C873 1.416 . S
C875 N874 1.307 . S
C875 H876 0.930 1_565 S
H876 C875 0.930 1_545 S
C877 N878 1.334 . S
C877 C879 1.394 1_455 S
C877 H881 0.956 . S
N878 Gd865 2.601 1_566 S
N878 C868 1.340 1_455 S
N878 C877 1.334 . S
C879 C877 1.394 1_655 S
C879 C880 1.359 . S
C879 H891 0.930 . S
C880 C870 1.391 . S
C880 C879 1.359 . S
C880 H892 0.929 . S
H881 C877 0.956 . S
H882 C871 0.935 . S
H883 C900 0.930 . S
H884 C872 0.930 . S
H885 C873 0.930 . S
H886 C867 0.929 . S
H887 C905 0.930 . S
H888 C896 0.930 . S
H889 C897 0.930 . S
H890 C921 0.929 . S
H891 C879 0.930 . S
H892 C880 0.929 . S
H893 C922 0.930 . S
H894 C903 0.930 . S
N895 Gd864 2.661 . S
N895 C899 1.350 . S
N895 C900 1.307 1_554 S
C896 H888 0.930 . S
C896 C897 1.355 . S
C896 C898 1.412 1_556 S
C897 H889 0.930 . S
C897 C896 1.355 . S
C897 C900 1.402 . S
C898 C896 1.412 1_554 S
C898 C899 1.417 . S
C898 C922 1.431 . S
C899 N895 1.350 . S
C899 C898 1.417 . S
C899 C902 1.426 . S
C900 H883 0.930 . S
C900 N895 1.307 1_556 S
C900 C897 1.402 . S
N901 Gd864 2.601 . S
N901 C902 1.359 . S
N901 C905 1.334 . S
C902 C899 1.426 . S
C902 N901 1.359 . S
C902 C906 1.413 . S
C903 H894 0.930 . S
C903 C904 1.359 . S
C903 C905 1.394 . S
C904 C903 1.359 . S
C904 C906 1.391 . S
C904 H907 0.929 . S
C905 H887 0.930 . S
C905 N901 1.334 . S
C905 C903 1.394 . S
C906 C902 1.413 . S
C906 C904 1.391 . S
C906 C921 1.437 . S
H907 C904 0.929 . S
O908 Gd864 2.545 . S
O908 C923 1.258 . S
O909 Gd864 2.606 . S
O909 Gd865 2.362 . S
O909 C920 1.274 1_545 S
O910 Gd865 2.324 . S
O910 C930 1.254 . S
O911 Gd864 2.429 . S
O911 C930 1.268 . S
O912 Gd864 2.545 . S
O912 C920 1.249 1_545 S
O913 Gd864 2.412 . S
O913 C923 1.252 . S
O914 Gd865 2.545 1_656 S
O914 C932 1.258 . S
O915 Gd864 2.362 . S
O915 Gd865 2.606 . S
O915 C931 1.284 . S
O916 Gd864 2.324 1_556 S
O916 C939 1.254 . S
O917 Gd865 2.429 1_556 S
O917 C939 1.268 . S
O918 Gd865 2.561 . S
O918 C931 1.276 . S
O919 Gd865 2.412 1_655 S
O919 C932 1.252 1_554 S
C920 O909 1.274 1_565 S
C920 O912 1.249 1_565 S
C921 H890 0.929 . S
C921 C906 1.437 . S
C921 C922 1.317 . S
C922 H893 0.930 . S
C922 C898 1.431 . S
C922 C921 1.317 . S
C923 Gd864 2.828 . S
C923 O908 1.258 . S
C923 O913 1.252 . S
C923 C924 1.497 . S
C924 C923 1.497 . S
C924 C925 1.395 . S
C924 C926 1.380 . S
C925 C924 1.395 . S
C925 C928 1.398 . S
C925 H940 0.930 . S
C926 C924 1.380 . S
C926 C927 1.391 . S
C926 H941 0.930 . S
C927 C926 1.391 . S
C927 C929 1.387 . S
C928 C925 1.398 . S
C928 C929 1.380 . S
C928 H942 0.930 . S
C929 C927 1.387 . S
C929 C928 1.380 . S
C929 H943 0.930 . S
C930 O910 1.254 . S
C930 O911 1.268 . S
C931 O915 1.284 . S
C931 O918 1.276 . S
C932 Gd865 2.828 1_656 S
C932 O914 1.258 . S
C932 O919 1.252 1_556 S
C932 C933 1.497 . S
C933 C932 1.497 . S
C933 C934 1.395 . S
C933 C935 1.380 1_556 S
C934 C933 1.395 . S
C934 C937 1.398 . S
C934 H944 0.930 . S
C935 C933 1.380 1_554 S
C935 C936 1.391 1_554 S
C935 H945 0.930 . S
C936 C935 1.391 1_556 S
C936 C938 1.387 . S
C937 C934 1.398 . S
C937 C938 1.380 . S
C937 H946 0.930 . S
C938 C936 1.387 . S
C938 C937 1.380 . S
C938 H947 0.930 . S
C939 O916 1.254 . S
C939 O917 1.268 . S
H940 C925 0.930 . S
H941 C926 0.930 . S
H942 C928 0.930 . S
H943 C929 0.930 . S
H944 C934 0.930 . S
H945 C935 0.930 . S
H946 C937 0.930 . S
H947 C938 0.930 . S
Gd948 N979 2.661 . S
Gd948 N985 2.601 . S
Gd948 O992 2.545 . S
Gd948 O993 2.606 . S
Gd948 O995 2.429 . S
Gd948 O996 2.545 . S
Gd948 O997 2.412 . S
Gd948 O999 2.362 . S
Gd948 O1000 2.324 . S
Gd948 C1007 2.828 . S
Gd949 N958 2.661 . S
Gd949 N962 2.601 . S
Gd949 O993 2.362 . S
Gd949 O994 2.324 . S
Gd949 O998 2.545 . S
Gd949 O999 2.606 . S
Gd949 O1001 2.429 . S
Gd949 O1002 2.545 . S
Gd949 O1003 2.412 . S
Gd949 C1016 2.828 . S
C950 C953 1.417 . S
C950 C955 1.431 . S
C950 C956 1.412 . S
C951 C954 1.437 . S
C951 C955 1.317 . S
C951 H970 0.929 . S
C952 C953 1.426 . S
C952 C954 1.413 . S
C952 N962 1.359 . S
C953 C950 1.417 . S
C953 C952 1.426 . S
C953 N958 1.350 . S
C954 C951 1.437 . S
C954 C952 1.413 . S
C954 C964 1.391 . S
C955 C950 1.431 . S
C955 C951 1.317 . S
C955 H966 0.930 . S
C956 C950 1.412 . S
C956 C957 1.355 . S
C956 H968 0.930 . S
C957 C956 1.355 . S
C957 C959 1.402 . S
C957 H969 0.930 . S
N958 Gd949 2.661 . S
N958 C953 1.350 . S
N958 C959 1.307 . S
C959 C957 1.402 . S
C959 N958 1.307 . S
C959 H960 0.930 . S
H960 C959 0.930 . S
C961 N962 1.334 . S
C961 C963 1.394 . S
C961 H965 0.930 . S
N962 Gd949 2.601 . S
N962 C952 1.359 . S
N962 C961 1.334 . S
C963 C961 1.394 . S
C963 C964 1.359 . S
C963 H975 0.930 . S
C964 C954 1.391 . S
C964 C963 1.359 . S
C964 H976 0.929 . S
H965 C961 0.930 . S
H966 C955 0.930 . S
H967 C984 0.930 . S
H968 C956 0.930 . S
H969 C957 0.930 . S
H970 C951 0.929 . S
H971 C989 0.930 . S
H972 C980 0.930 . S
H973 C981 0.930 . S
H974 C1005 0.929 . S
H975 C963 0.930 . S
H976 C964 0.929 . S
H977 C1006 0.930 . S
H978 C987 0.930 . S
N979 Gd948 2.661 . S
N979 C983 1.350 . S
N979 C984 1.307 . S
C980 H972 0.930 . S
C980 C981 1.355 . S
C980 C982 1.412 . S
C981 H973 0.930 . S
C981 C980 1.355 . S
C981 C984 1.402 . S
C982 C980 1.412 . S
C982 C983 1.417 . S
C982 C1006 1.431 . S
C983 N979 1.350 . S
C983 C982 1.417 . S
C983 C986 1.426 . S
C984 H967 0.930 . S
C984 N979 1.307 . S
C984 C981 1.402 . S
N985 Gd948 2.601 . S
N985 C986 1.359 . S
N985 C989 1.334 . S
C986 C983 1.426 . S
C986 N985 1.359 . S
C986 C990 1.413 . S
C987 H978 0.930 . S
C987 C988 1.359 . S
C987 C989 1.394 . S
C988 C987 1.359 . S
C988 C990 1.391 . S
C988 H991 0.929 . S
C989 H971 0.930 . S
C989 N985 1.334 . S
C989 C987 1.394 . S
C990 C986 1.413 . S
C990 C988 1.391 . S
C990 C1005 1.437 . S
H991 C988 0.929 . S
O992 Gd948 2.545 . S
O992 C1007 1.258 . S
O993 Gd948 2.606 . S
O993 Gd949 2.362 . S
O993 C1004 1.284 . S
O994 Gd949 2.324 . S
O994 C1014 1.254 . S
O995 Gd948 2.429 . S
O995 C1014 1.268 . S
O996 Gd948 2.545 . S
O996 C1004 1.250 . S
O997 Gd948 2.412 . S
O997 C1007 1.252 . S
O998 Gd949 2.545 . S
O998 C1016 1.258 . S
O999 Gd948 2.362 . S
O999 Gd949 2.606 . S
O999 C1015 1.284 . S
O1000 Gd948 2.324 . S
O1000 C1023 1.254 . S
O1001 Gd949 2.429 . S
O1001 C1023 1.268 . S
O1002 Gd949 2.545 . S
O1002 C1015 1.250 . S
O1003 Gd949 2.412 . S
O1003 C1016 1.252 . S
C1004 O993 1.284 . S
C1004 O996 1.250 . S
C1005 H974 0.929 . S
C1005 C990 1.437 . S
C1005 C1006 1.317 . S
C1006 H977 0.930 . S
C1006 C982 1.431 . S
C1006 C1005 1.317 . S
C1007 Gd948 2.828 . S
C1007 O992 1.258 . S
C1007 O997 1.252 . S
C1007 C1008 1.497 . S
C1008 C1007 1.497 . S
C1008 C1009 1.395 . S
C1008 C1010 1.380 . S
C1009 C1008 1.395 . S
C1009 C1012 1.398 . S
C1009 H1024 0.930 . S
C1010 C1008 1.380 . S
C1010 C1011 1.391 . S
C1010 H1025 0.930 . S
C1011 C1010 1.391 . S
C1011 C1013 1.387 . S
C1012 C1009 1.398 . S
C1012 C1013 1.380 . S
C1012 H1026 0.930 . S
C1013 C1011 1.387 . S
C1013 C1012 1.380 . S
C1013 H1027 0.930 . S
C1014 O994 1.254 . S
C1014 O995 1.268 . S
C1015 O999 1.284 . S
C1015 O1002 1.250 . S
C1016 Gd949 2.828 . S
C1016 O998 1.258 . S
C1016 O1003 1.252 . S
C1016 C1017 1.497 . S
C1017 C1016 1.497 . S
C1017 C1018 1.395 . S
C1017 C1019 1.380 . S
C1018 C1017 1.395 . S
C1018 C1021 1.398 . S
C1018 H1028 0.930 . S
C1019 C1017 1.380 . S
C1019 C1020 1.391 . S
C1019 H1029 0.930 . S
C1020 C1019 1.391 . S
C1020 C1022 1.387 . S
C1021 C1018 1.398 . S
C1021 C1022 1.380 . S
C1021 H1030 0.930 . S
C1022 C1020 1.387 . S
C1022 C1021 1.380 . S
C1022 H1031 0.930 . S
C1023 O1000 1.254 . S
C1023 O1001 1.268 . S
H1024 C1009 0.930 . S
H1025 C1010 0.930 . S
H1026 C1012 0.930 . S
H1027 C1013 0.930 . S
H1028 C1018 0.930 . S
H1029 C1019 0.930 . S
H1030 C1021 0.930 . S
H1031 C1022 0.930 . S
Gd1032 N1063 2.661 . S
Gd1032 N1069 2.601 . S
Gd1032 O1076 2.545 . S
Gd1032 O1077 2.606 . S
Gd1032 O1079 2.429 . S
Gd1032 O1080 2.545 . S
Gd1032 O1081 2.412 . S
Gd1032 O1083 2.362 . S
Gd1032 O1084 2.324 . S
Gd1032 C1091 2.828 . S
Gd1033 N1042 2.661 . S
Gd1033 N1046 2.601 . S
Gd1033 O1077 2.362 . S
Gd1033 O1078 2.324 . S
Gd1033 O1082 2.545 . S
Gd1033 O1083 2.606 . S
Gd1033 O1085 2.429 . S
Gd1033 O1086 2.545 . S
Gd1033 O1087 2.412 . S
Gd1033 C1100 2.828 . S
C1034 C1037 1.417 . S
C1034 C1039 1.431 . S
C1034 C1040 1.412 . S
C1035 C1038 1.437 . S
C1035 C1039 1.317 . S
C1035 H1054 0.929 . S
C1036 C1037 1.426 . S
C1036 C1038 1.413 . S
C1036 N1046 1.359 . S
C1037 C1034 1.417 . S
C1037 C1036 1.426 . S
C1037 N1042 1.350 . S
C1038 C1035 1.437 . S
C1038 C1036 1.413 . S
C1038 C1048 1.391 . S
C1039 C1034 1.431 . S
C1039 C1035 1.317 . S
C1039 H1050 0.930 . S
C1040 C1034 1.412 . S
C1040 C1041 1.355 . S
C1040 H1052 0.930 . S
C1041 C1040 1.355 . S
C1041 C1043 1.402 . S
C1041 H1053 0.930 . S
N1042 Gd1033 2.661 . S
N1042 C1037 1.350 . S
N1042 C1043 1.307 . S
C1043 C1041 1.402 . S
C1043 N1042 1.307 . S
C1043 H1044 0.930 . S
H1044 C1043 0.930 . S
C1045 N1046 1.334 . S
C1045 C1047 1.394 . S
C1045 H1049 0.930 . S
N1046 Gd1033 2.601 . S
N1046 C1036 1.359 . S
N1046 C1045 1.334 . S
C1047 C1045 1.394 . S
C1047 C1048 1.359 . S
C1047 H1059 0.930 . S
C1048 C1038 1.391 . S
C1048 C1047 1.359 . S
C1048 H1060 0.929 . S
H1049 C1045 0.930 . S
H1050 C1039 0.930 . S
H1051 C1068 0.969 . S
H1052 C1040 0.930 . S
H1053 C1041 0.930 . S
H1054 C1035 0.929 . S
H1055 C1073 0.930 . S
H1056 C1064 0.930 . S
H1057 C1065 0.930 . S
H1058 C1089 0.929 . S
H1059 C1047 0.930 . S
H1060 C1048 0.929 . S
H1061 C1090 0.930 . S
H1062 C1071 0.930 . S
N1063 Gd1032 2.661 . S
N1063 C1067 1.350 1_545 S
N1063 C1068 1.316 . S
C1064 H1056 0.930 . S
C1064 C1065 1.355 . S
C1064 C1066 1.412 . S
C1065 H1057 0.930 . S
C1065 C1064 1.355 . S
C1065 C1068 1.360 1_565 S
C1066 C1064 1.412 . S
C1066 C1067 1.417 . S
C1066 C1090 1.431 . S
C1067 N1063 1.350 1_565 S
C1067 C1066 1.417 . S
C1067 C1070 1.425 1_565 S
C1068 H1051 0.969 . S
C1068 N1063 1.316 . S
C1068 C1065 1.360 1_545 S
N1069 Gd1032 2.601 . S
N1069 C1070 1.373 . S
N1069 C1073 1.334 . S
C1070 C1067 1.425 1_545 S
C1070 N1069 1.373 . S
C1070 C1074 1.401 1_545 S
C1071 H1062 0.930 . S
C1071 C1072 1.359 1_545 S
C1071 C1073 1.394 . S
C1072 C1071 1.359 1_565 S
C1072 C1074 1.391 . S
C1072 H1075 0.929 . S
C1073 H1055 0.930 . S
C1073 N1069 1.334 . S
C1073 C1071 1.394 . S
C1074 C1070 1.401 1_565 S
C1074 C1072 1.391 . S
C1074 C1089 1.437 . S
H1075 C1072 0.929 . S
O1076 Gd1032 2.545 . S
O1076 C1091 1.258 . S
O1077 Gd1032 2.606 . S
O1077 Gd1033 2.362 . S
O1077 C1088 1.284 . S
O1078 Gd1033 2.324 . S
O1078 C1098 1.254 . S
O1079 Gd1032 2.429 . S
O1079 C1098 1.268 . S
O1080 Gd1032 2.545 . S
O1080 C1088 1.250 . S
O1081 Gd1032 2.412 . S
O1081 C1091 1.252 . S
O1082 Gd1033 2.545 . S
O1082 C1100 1.258 . S
O1083 Gd1032 2.362 . S
O1083 Gd1033 2.606 . S
O1083 C1099 1.284 . S
O1084 Gd1032 2.324 . S
O1084 C1107 1.254 . S
O1085 Gd1033 2.429 . S
O1085 C1107 1.268 . S
O1086 Gd1033 2.545 . S
O1086 C1099 1.250 . S
O1087 Gd1033 2.412 . S
O1087 C1100 1.252 . S
C1088 O1077 1.284 . S
C1088 O1080 1.250 . S
C1089 H1058 0.929 . S
C1089 C1074 1.437 . S
C1089 C1090 1.317 . S
C1090 H1061 0.930 . S
C1090 C1066 1.431 . S
C1090 C1089 1.317 . S
C1091 Gd1032 2.828 . S
C1091 O1076 1.258 . S
C1091 O1081 1.252 . S
C1091 C1092 1.497 . S
C1092 C1091 1.497 . S
C1092 C1093 1.395 . S
C1092 C1094 1.380 . S
C1093 C1092 1.395 . S
C1093 C1096 1.398 . S
C1093 H1108 0.930 . S
C1094 C1092 1.380 . S
C1094 C1095 1.391 . S
C1094 H1109 0.930 . S
C1095 C1094 1.391 . S
C1095 C1097 1.387 . S
C1096 C1093 1.398 . S
C1096 C1097 1.380 . S
C1096 H1110 0.930 . S
C1097 C1095 1.387 . S
C1097 C1096 1.380 . S
C1097 H1111 0.930 . S
C1098 O1078 1.254 . S
C1098 O1079 1.268 . S
C1099 O1083 1.284 . S
C1099 O1086 1.250 . S
C1100 Gd1033 2.828 . S
C1100 O1082 1.258 . S
C1100 O1087 1.252 . S
C1100 C1101 1.497 . S
C1101 C1100 1.497 . S
C1101 C1102 1.395 . S
C1101 C1103 1.380 . S
C1102 C1101 1.395 . S
C1102 C1105 1.398 . S
C1102 H1112 0.930 . S
C1103 C1101 1.380 . S
C1103 C1104 1.414 . S
C1103 H1113 0.930 . S
C1104 C1103 1.414 . S
C1104 C1106 1.391 . S
C1105 C1102 1.398 . S
C1105 C1106 1.380 . S
C1105 H1114 0.930 . S
C1106 C1104 1.391 . S
C1106 C1105 1.380 . S
C1106 H1115 0.930 1_545 S
C1107 O1084 1.254 . S
C1107 O1085 1.268 . S
H1108 C1093 0.930 . S
H1109 C1094 0.930 . S
H1110 C1096 0.930 . S
H1111 C1097 0.930 . S
H1112 C1102 0.930 . S
H1113 C1103 0.930 . S
H1114 C1105 0.930 . S
H1115 C1106 0.930 1_565 S
Gd1116 N1147 2.661 . S
Gd1116 N1153 2.601 . S
Gd1116 O1160 2.545 . S
Gd1116 O1161 2.606 . S
Gd1116 O1163 2.429 . S
Gd1116 O1164 2.545 . S
Gd1116 O1165 2.412 . S
Gd1116 O1167 2.362 . S
Gd1116 O1168 2.324 . S
Gd1116 C1175 2.828 . S
Gd1117 N1126 2.661 . S
Gd1117 N1130 2.601 . S
Gd1117 O1161 2.362 . S
Gd1117 O1162 2.324 . S
Gd1117 O1166 2.545 . S
Gd1117 O1167 2.606 . S
Gd1117 O1169 2.429 . S
Gd1117 O1170 2.545 . S
Gd1117 O1171 2.412 . S
Gd1117 C1184 2.828 . S
C1118 C1121 1.417 . S
C1118 C1123 1.431 . S
C1118 C1124 1.412 . S
C1119 C1122 1.437 . S
C1119 C1123 1.317 . S
C1119 H1138 0.929 . S
C1120 C1121 1.426 . S
C1120 C1122 1.413 . S
C1120 N1130 1.359 . S
C1121 C1118 1.417 . S
C1121 C1120 1.426 . S
C1121 N1126 1.350 . S
C1122 C1119 1.437 . S
C1122 C1120 1.413 . S
C1122 C1132 1.391 . S
C1123 C1118 1.431 . S
C1123 C1119 1.317 . S
C1123 H1134 0.930 . S
C1124 C1118 1.412 . S
C1124 C1125 1.355 . S
C1124 H1136 0.930 . S
C1125 C1124 1.355 . S
C1125 C1127 1.402 . S
C1125 H1137 0.930 . S
N1126 Gd1117 2.661 . S
N1126 C1121 1.350 . S
N1126 C1127 1.307 . S
C1127 C1125 1.402 . S
C1127 N1126 1.307 . S
C1127 H1128 0.930 . S
H1128 C1127 0.930 . S
C1129 N1130 1.334 . S
C1129 C1131 1.394 . S
C1129 H1133 0.930 . S
N1130 Gd1117 2.601 . S
N1130 C1120 1.359 . S
N1130 C1129 1.334 . S
C1131 C1129 1.394 . S
C1131 C1132 1.359 . S
C1131 H1143 0.930 . S
C1132 C1122 1.391 . S
C1132 C1131 1.359 . S
C1132 H1144 0.929 . S
H1133 C1129 0.930 . S
H1134 C1123 0.930 . S
H1135 C1152 0.930 . S
H1136 C1124 0.930 . S
H1137 C1125 0.930 . S
H1138 C1119 0.929 . S
H1139 C1157 0.930 . S
H1140 C1148 0.930 . S
H1141 C1149 0.930 . S
H1142 C1173 0.929 . S
H1143 C1131 0.930 . S
H1144 C1132 0.929 . S
H1145 C1174 0.930 . S
H1146 C1155 0.930 . S
N1147 Gd1116 2.661 . S
N1147 C1151 1.350 . S
N1147 C1152 1.307 . S
C1148 H1140 0.930 . S
C1148 C1149 1.355 . S
C1148 C1150 1.412 . S
C1149 H1141 0.930 . S
C1149 C1148 1.355 . S
C1149 C1152 1.402 . S
C1150 C1148 1.412 . S
C1150 C1151 1.417 . S
C1150 C1174 1.431 . S
C1151 N1147 1.350 . S
C1151 C1150 1.417 . S
C1151 C1154 1.426 . S
C1152 H1135 0.930 . S
C1152 N1147 1.307 . S
C1152 C1149 1.402 . S
N1153 Gd1116 2.601 . S
N1153 C1154 1.359 . S
N1153 C1157 1.334 . S
C1154 C1151 1.426 . S
C1154 N1153 1.359 . S
C1154 C1158 1.413 . S
C1155 H1146 0.930 . S
C1155 C1156 1.359 . S
C1155 C1157 1.394 . S
C1156 C1155 1.359 . S
C1156 C1158 1.391 . S
C1156 H1159 0.929 . S
C1157 H1139 0.930 . S
C1157 N1153 1.334 . S
C1157 C1155 1.394 . S
C1158 C1154 1.413 . S
C1158 C1156 1.391 . S
C1158 C1173 1.437 . S
H1159 C1156 0.929 . S
O1160 Gd1116 2.545 . S
O1160 C1175 1.258 . S
O1161 Gd1116 2.606 . S
O1161 Gd1117 2.362 . S
O1161 C1172 1.284 . S
O1162 Gd1117 2.324 . S
O1162 C1182 1.254 . S
O1163 Gd1116 2.429 . S
O1163 C1182 1.268 . S
O1164 Gd1116 2.545 . S
O1164 C1172 1.250 . S
O1165 Gd1116 2.412 . S
O1165 C1175 1.252 . S
O1166 Gd1117 2.545 . S
O1166 C1184 1.258 . S
O1167 Gd1116 2.362 . S
O1167 Gd1117 2.606 . S
O1167 C1183 1.284 . S
O1168 Gd1116 2.324 . S
O1168 C1191 1.254 . S
O1169 Gd1117 2.429 . S
O1169 C1191 1.268 . S
O1170 Gd1117 2.545 . S
O1170 C1183 1.250 . S
O1171 Gd1117 2.412 . S
O1171 C1184 1.252 . S
C1172 O1161 1.284 . S
C1172 O1164 1.250 . S
C1173 H1142 0.929 . S
C1173 C1158 1.437 . S
C1173 C1174 1.317 . S
C1174 H1145 0.930 . S
C1174 C1150 1.431 . S
C1174 C1173 1.317 . S
C1175 Gd1116 2.828 . S
C1175 O1160 1.258 . S
C1175 O1165 1.252 . S
C1175 C1176 1.497 . S
C1176 C1175 1.497 . S
C1176 C1177 1.395 . S
C1176 C1178 1.380 . S
C1177 C1176 1.395 . S
C1177 C1180 1.398 . S
C1177 H1192 0.930 . S
C1178 C1176 1.380 . S
C1178 C1179 1.391 . S
C1178 H1193 0.930 . S
C1179 C1178 1.391 . S
C1179 C1181 1.387 . S
C1180 C1177 1.398 . S
C1180 C1181 1.380 . S
C1180 H1194 0.930 . S
C1181 C1179 1.387 . S
C1181 C1180 1.380 . S
C1181 H1195 0.930 . S
C1182 O1162 1.254 . S
C1182 O1163 1.268 . S
C1183 O1167 1.284 . S
C1183 O1170 1.250 . S
C1184 Gd1117 2.828 . S
C1184 O1166 1.258 . S
C1184 O1171 1.252 . S
C1184 C1185 1.497 . S
C1185 C1184 1.497 . S
C1185 C1186 1.395 . S
C1185 C1187 1.380 . S
C1186 C1185 1.395 . S
C1186 C1189 1.398 . S
C1186 H1196 0.930 . S
C1187 C1185 1.380 . S
C1187 C1188 1.391 . S
C1187 H1197 0.930 . S
C1188 C1187 1.391 . S
C1188 C1190 1.387 . S
C1189 C1186 1.398 . S
C1189 C1190 1.380 . S
C1189 H1198 0.930 . S
C1190 C1188 1.387 . S
C1190 C1189 1.380 . S
C1190 H1199 0.930 . S
C1191 O1168 1.254 . S
C1191 O1169 1.268 . S
H1192 C1177 0.930 . S
H1193 C1178 0.930 . S
H1194 C1180 0.930 . S
H1195 C1181 0.930 . S
H1196 C1186 0.930 . S
H1197 C1187 0.930 . S
H1198 C1189 0.930 . S
H1199 C1190 0.930 . S
Gd1200 N1231 2.661 1_545 S
Gd1200 N1237 2.589 1_545 S
Gd1200 O1244 2.545 1_545 S
Gd1200 O1245 2.606 . S
Gd1200 O1247 2.429 . S
Gd1200 O1248 2.545 . S
Gd1200 O1249 2.412 1_545 S
Gd1200 O1251 2.362 . S
Gd1200 O1252 2.324 . S
Gd1200 C1259 2.828 1_545 S
Gd1201 N1210 2.661 . S
Gd1201 N1214 2.601 . S
Gd1201 O1245 2.362 . S
Gd1201 O1246 2.324 . S
Gd1201 O1250 2.545 . S
Gd1201 O1251 2.606 . S
Gd1201 O1253 2.429 . S
Gd1201 O1254 2.545 . S
Gd1201 O1255 2.412 . S
Gd1201 C1268 2.828 . S
C1202 C1205 1.417 . S
C1202 C1207 1.431 . S
C1202 C1208 1.412 . S
C1203 C1206 1.437 . S
C1203 C1207 1.317 . S
C1203 H1222 0.929 . S
C1204 C1205 1.426 . S
C1204 C1206 1.413 . S
C1204 N1214 1.359 . S
C1205 C1202 1.417 . S
C1205 C1204 1.426 . S
C1205 N1210 1.350 . S
C1206 C1203 1.437 . S
C1206 C1204 1.413 . S
C1206 C1216 1.391 . S
C1207 C1202 1.431 . S
C1207 C1203 1.317 . S
C1207 H1218 0.930 . S
C1208 C1202 1.412 . S
C1208 C1209 1.355 . S
C1208 H1220 0.930 . S
C1209 C1208 1.355 . S
C1209 C1211 1.402 . S
C1209 H1221 0.930 . S
N1210 Gd1201 2.661 . S
N1210 C1205 1.350 . S
N1210 C1211 1.307 . S
C1211 C1209 1.402 . S
C1211 N1210 1.307 . S
C1211 H1212 0.930 . S
H1212 C1211 0.930 . S
C1213 N1214 1.334 . S
C1213 C1215 1.391 . S
C1213 H1217 0.930 . S
N1214 Gd1201 2.601 . S
N1214 C1204 1.359 . S
N1214 C1213 1.334 . S
C1215 C1213 1.391 . S
C1215 C1216 1.357 . S
C1215 H1227 0.936 1_455 S
C1216 C1206 1.391 . S
C1216 C1215 1.357 . S
C1216 H1228 0.929 . S
H1217 C1213 0.930 . S
H1218 C1207 0.930 . S
H1219 C1236 0.930 . S
H1220 C1208 0.930 . S
H1221 C1209 0.930 . S
H1222 C1203 0.929 . S
H1223 C1241 0.930 . S
H1224 C1232 0.930 . S
H1225 C1233 0.930 1_655 S
H1226 C1257 0.929 . S
H1227 C1215 0.936 1_655 S
H1228 C1216 0.929 . S
H1229 C1258 0.930 . S
H1230 C1239 0.930 . S
N1231 Gd1200 2.661 1_565 S
N1231 C1235 1.350 . S
N1231 C1236 1.307 . S
C1232 H1224 0.930 . S
C1232 C1233 1.355 . S
C1232 C1234 1.412 . S
C1233 H1225 0.930 1_455 S
C1233 C1232 1.355 . S
C1233 C1236 1.402 . S
C1234 C1232 1.412 . S
C1234 C1235 1.417 . S
C1234 C1258 1.431 . S
C1235 N1231 1.350 . S
C1235 C1234 1.417 . S
C1235 C1238 1.426 . S
C1236 H1219 0.930 . S
C1236 N1231 1.307 . S
C1236 C1233 1.402 . S
N1237 Gd1200 2.589 1_565 S
N1237 C1238 1.372 . S
N1237 C1241 1.341 1_565 S
C1238 C1235 1.426 . S
C1238 N1237 1.372 . S
C1238 C1242 1.413 . S
C1239 H1230 0.930 . S
C1239 C1240 1.359 . S
C1239 C1241 1.394 1_565 S
C1240 C1239 1.359 . S
C1240 C1242 1.391 . S
C1240 H1243 0.929 . S
C1241 H1223 0.930 . S
C1241 N1237 1.341 1_545 S
C1241 C1239 1.394 1_545 S
C1242 C1238 1.413 . S
C1242 C1240 1.391 . S
C1242 C1257 1.437 . S
H1243 C1240 0.929 . S
O1244 Gd1200 2.545 1_565 S
O1244 C1259 1.258 . S
O1245 Gd1200 2.606 . S
O1245 Gd1201 2.362 . S
O1245 C1256 1.284 . S
O1246 Gd1201 2.324 . S
O1246 C1266 1.254 . S
O1247 Gd1200 2.429 . S
O1247 C1266 1.268 . S
O1248 Gd1200 2.545 . S
O1248 C1256 1.250 . S
O1249 Gd1200 2.412 1_565 S
O1249 C1259 1.252 . S
O1250 Gd1201 2.545 . S
O1250 C1268 1.258 . S
O1251 Gd1200 2.362 . S
O1251 Gd1201 2.606 . S
O1251 C1267 1.284 . S
O1252 Gd1200 2.324 . S
O1252 C1275 1.254 . S
O1253 Gd1201 2.429 . S
O1253 C1275 1.268 . S
O1254 Gd1201 2.545 . S
O1254 C1267 1.250 . S
O1255 Gd1201 2.412 . S
O1255 C1268 1.252 . S
C1256 O1245 1.284 . S
C1256 O1248 1.250 . S
C1257 H1226 0.929 . S
C1257 C1242 1.437 . S
C1257 C1258 1.317 . S
C1258 H1229 0.930 . S
C1258 C1234 1.431 . S
C1258 C1257 1.317 . S
C1259 Gd1200 2.828 1_565 S
C1259 O1244 1.258 . S
C1259 O1249 1.252 . S
C1259 C1260 1.497 . S
C1260 C1259 1.497 . S
C1260 C1261 1.395 . S
C1260 C1262 1.380 . S
C1261 C1260 1.395 . S
C1261 C1264 1.398 . S
C1261 H1276 0.930 . S
C1262 C1260 1.380 . S
C1262 C1263 1.391 . S
C1262 H1277 0.930 . S
C1263 C1262 1.391 . S
C1263 C1265 1.387 . S
C1264 C1261 1.398 . S
C1264 C1265 1.380 . S
C1264 H1278 0.930 . S
C1265 C1263 1.387 . S
C1265 C1264 1.380 . S
C1265 H1279 0.930 . S
C1266 O1246 1.254 . S
C1266 O1247 1.268 . S
C1267 O1251 1.284 . S
C1267 O1254 1.250 . S
C1268 Gd1201 2.828 . S
C1268 O1250 1.258 . S
C1268 O1255 1.252 . S
C1268 C1269 1.497 . S
C1269 C1268 1.497 . S
C1269 C1270 1.395 . S
C1269 C1271 1.380 . S
C1270 C1269 1.395 . S
C1270 C1273 1.398 . S
C1270 H1280 0.930 . S
C1271 C1269 1.380 . S
C1271 C1272 1.391 . S
C1271 H1281 0.930 . S
C1272 C1271 1.391 . S
C1272 C1274 1.387 . S
C1273 C1270 1.398 . S
C1273 C1274 1.380 . S
C1273 H1282 0.930 . S
C1274 C1272 1.387 . S
C1274 C1273 1.380 . S
C1274 H1283 0.930 . S
C1275 O1252 1.254 . S
C1275 O1253 1.268 . S
H1276 C1261 0.930 . S
H1277 C1262 0.930 . S
H1278 C1264 0.930 . S
H1279 C1265 0.930 . S
H1280 C1270 0.930 . S
H1281 C1271 0.930 . S
H1282 C1273 0.930 . S
H1283 C1274 0.930 . S
Gd1284 N1315 2.661 . S
Gd1284 N1321 2.601 . S
Gd1284 O1328 2.545 . S
Gd1284 O1329 2.606 . S
Gd1284 O1331 2.429 . S
Gd1284 O1332 2.545 . S
Gd1284 O1333 2.412 . S
Gd1284 O1335 2.362 . S
Gd1284 O1336 2.324 . S
Gd1284 C1343 2.828 . S
Gd1285 N1294 2.661 . S
Gd1285 N1298 2.601 . S
Gd1285 O1329 2.362 . S
Gd1285 O1330 2.324 . S
Gd1285 O1334 2.545 . S
Gd1285 O1335 2.606 . S
Gd1285 O1337 2.429 . S
Gd1285 O1338 2.545 . S
Gd1285 O1339 2.412 . S
Gd1285 C1352 2.828 . S
C1286 C1289 1.417 . S
C1286 C1291 1.431 . S
C1286 C1292 1.412 . S
C1287 C1290 1.437 . S
C1287 C1291 1.317 . S
C1287 H1306 0.929 . S
C1288 C1289 1.426 . S
C1288 C1290 1.413 . S
C1288 N1298 1.359 . S
C1289 C1286 1.417 . S
C1289 C1288 1.426 . S
C1289 N1294 1.350 . S
C1290 C1287 1.437 . S
C1290 C1288 1.413 . S
C1290 C1300 1.391 . S
C1291 C1286 1.431 . S
C1291 C1287 1.317 . S
C1291 H1302 0.930 . S
C1292 C1286 1.412 . S
C1292 C1293 1.355 . S
C1292 H1304 0.930 . S
C1293 C1292 1.355 . S
C1293 C1295 1.402 . S
C1293 H1305 0.930 . S
N1294 Gd1285 2.661 . S
N1294 C1289 1.350 . S
N1294 C1295 1.307 . S
C1295 C1293 1.402 . S
C1295 N1294 1.307 . S
C1295 H1296 0.930 . S
H1296 C1295 0.930 . S
C1297 N1298 1.334 . S
C1297 C1299 1.394 . S
C1297 H1301 0.930 . S
N1298 Gd1285 2.601 . S
N1298 C1288 1.359 . S
N1298 C1297 1.334 . S
C1299 C1297 1.394 . S
C1299 C1300 1.359 . S
C1299 H1311 0.930 . S
C1300 C1290 1.391 . S
C1300 C1299 1.359 . S
C1300 H1312 0.929 . S
H1301 C1297 0.930 . S
H1302 C1291 0.930 . S
H1303 C1320 0.930 . S
H1304 C1292 0.930 . S
H1305 C1293 0.930 . S
H1306 C1287 0.929 . S
H1307 C1325 0.930 . S
H1308 C1316 0.930 . S
H1309 C1317 0.930 . S
H1310 C1341 0.929 . S
H1311 C1299 0.930 . S
H1312 C1300 0.929 . S
H1313 C1342 0.930 . S
H1314 C1323 0.930 . S
N1315 Gd1284 2.661 . S
N1315 C1319 1.350 . S
N1315 C1320 1.307 . S
C1316 H1308 0.930 . S
C1316 C1317 1.355 . S
C1316 C1318 1.412 . S
C1317 H1309 0.930 . S
C1317 C1316 1.355 . S
C1317 C1320 1.402 . S
C1318 C1316 1.412 . S
C1318 C1319 1.417 . S
C1318 C1342 1.431 . S
C1319 N1315 1.350 . S
C1319 C1318 1.417 . S
C1319 C1322 1.426 . S
C1320 H1303 0.930 . S
C1320 N1315 1.307 . S
C1320 C1317 1.402 . S
N1321 Gd1284 2.601 . S
N1321 C1322 1.359 . S
N1321 C1325 1.334 . S
C1322 C1319 1.426 . S
C1322 N1321 1.359 . S
C1322 C1326 1.413 . S
C1323 H1314 0.930 . S
C1323 C1324 1.359 . S
C1323 C1325 1.394 . S
C1324 C1323 1.359 . S
C1324 C1326 1.391 . S
C1324 H1327 0.929 . S
C1325 H1307 0.930 . S
C1325 N1321 1.334 . S
C1325 C1323 1.394 . S
C1326 C1322 1.413 . S
C1326 C1324 1.391 . S
C1326 C1341 1.437 . S
H1327 C1324 0.929 . S
O1328 Gd1284 2.545 . S
O1328 C1343 1.258 . S
O1329 Gd1284 2.606 . S
O1329 Gd1285 2.362 . S
O1329 C1340 1.284 . S
O1330 Gd1285 2.324 . S
O1330 C1350 1.254 . S
O1331 Gd1284 2.429 . S
O1331 C1350 1.268 . S
O1332 Gd1284 2.545 . S
O1332 C1340 1.250 . S
O1333 Gd1284 2.412 . S
O1333 C1343 1.252 . S
O1334 Gd1285 2.545 . S
O1334 C1352 1.258 . S
O1335 Gd1284 2.362 . S
O1335 Gd1285 2.606 . S
O1335 C1351 1.284 . S
O1336 Gd1284 2.324 . S
O1336 C1359 1.254 . S
O1337 Gd1285 2.429 . S
O1337 C1359 1.268 . S
O1338 Gd1285 2.545 . S
O1338 C1351 1.250 . S
O1339 Gd1285 2.412 . S
O1339 C1352 1.252 . S
C1340 O1329 1.284 . S
C1340 O1332 1.250 . S
C1341 H1310 0.929 . S
C1341 C1326 1.437 . S
C1341 C1342 1.317 . S
C1342 H1313 0.930 . S
C1342 C1318 1.431 . S
C1342 C1341 1.317 . S
C1343 Gd1284 2.828 . S
C1343 O1328 1.258 . S
C1343 O1333 1.252 . S
C1343 C1344 1.497 . S
C1344 C1343 1.497 . S
C1344 C1345 1.395 . S
C1344 C1346 1.380 . S
C1345 C1344 1.395 . S
C1345 C1348 1.398 . S
C1345 H1360 0.930 . S
C1346 C1344 1.380 . S
C1346 C1347 1.391 . S
C1346 H1361 0.930 . S
C1347 C1346 1.391 . S
C1347 C1349 1.387 . S
C1348 C1345 1.398 . S
C1348 C1349 1.380 . S
C1348 H1362 0.930 . S
C1349 C1347 1.387 . S
C1349 C1348 1.380 . S
C1349 H1363 0.930 . S
C1350 O1330 1.254 . S
C1350 O1331 1.268 . S
C1351 O1335 1.284 . S
C1351 O1338 1.250 . S
C1352 Gd1285 2.828 . S
C1352 O1334 1.258 . S
C1352 O1339 1.252 . S
C1352 C1353 1.497 . S
C1353 C1352 1.497 . S
C1353 C1354 1.395 . S
C1353 C1355 1.380 . S
C1354 C1353 1.395 . S
C1354 C1357 1.398 . S
C1354 H1364 0.930 . S
C1355 C1353 1.380 . S
C1355 C1356 1.391 . S
C1355 H1365 0.930 . S
C1356 C1355 1.391 . S
C1356 C1358 1.387 . S
C1357 C1354 1.398 . S
C1357 C1358 1.380 . S
C1357 H1366 0.930 . S
C1358 C1356 1.387 . S
C1358 C1357 1.380 . S
C1358 H1367 0.930 . S
C1359 O1336 1.254 . S
C1359 O1337 1.268 . S
H1360 C1345 0.930 . S
H1361 C1346 0.930 . S
H1362 C1348 0.930 . S
H1363 C1349 0.930 . S
H1364 C1354 0.930 . S
H1365 C1355 0.930 . S
H1366 C1357 0.930 . S
H1367 C1358 0.930 . S
Gd1368 N1399 2.661 . S
Gd1368 N1405 2.601 . S
Gd1368 O1412 2.545 . S
Gd1368 O1413 2.606 1_556 S
Gd1368 O1415 2.429 1_556 S
Gd1368 O1416 2.547 . S
Gd1368 O1417 2.412 . S
Gd1368 O1419 2.362 1_556 S
Gd1368 O1420 2.324 . S
Gd1368 C1427 2.828 . S
Gd1369 N1378 2.661 . S
Gd1369 N1382 2.601 . S
Gd1369 O1413 2.362 . S
Gd1369 O1414 2.324 . S
Gd1369 O1418 2.545 . S
Gd1369 O1419 2.606 . S
Gd1369 O1421 2.429 . S
Gd1369 O1422 2.545 . S
Gd1369 O1423 2.412 . S
Gd1369 C1436 2.828 . S
C1370 C1373 1.417 . S
C1370 C1375 1.431 . S
C1370 C1376 1.412 . S
C1371 C1374 1.437 . S
C1371 C1375 1.317 . S
C1371 H1390 0.929 . S
C1372 C1373 1.426 . S
C1372 C1374 1.413 . S
C1372 N1382 1.359 . S
C1373 C1370 1.417 . S
C1373 C1372 1.426 . S
C1373 N1378 1.350 . S
C1374 C1371 1.437 . S
C1374 C1372 1.413 . S
C1374 C1384 1.391 . S
C1375 C1370 1.431 . S
C1375 C1371 1.317 . S
C1375 H1386 0.930 . S
C1376 C1370 1.412 . S
C1376 C1377 1.355 . S
C1376 H1388 0.930 . S
C1377 C1376 1.355 . S
C1377 C1379 1.402 . S
C1377 H1389 0.930 . S
N1378 Gd1369 2.661 . S
N1378 C1373 1.350 . S
N1378 C1379 1.307 . S
C1379 C1377 1.402 . S
C1379 N1378 1.307 . S
C1379 H1380 0.930 . S
H1380 C1379 0.930 . S
C1381 N1382 1.298 1_565 S
C1381 C1383 1.420 . S
C1381 H1385 0.942 . S
N1382 Gd1369 2.601 . S
N1382 C1372 1.359 . S
N1382 C1381 1.298 1_545 S
C1383 C1381 1.420 . S
C1383 C1384 1.359 1_565 S
C1383 H1395 0.930 . S
C1384 C1374 1.391 . S
C1384 C1383 1.359 1_545 S
C1384 H1396 0.929 1_545 S
H1385 C1381 0.942 . S
H1386 C1375 0.930 . S
H1387 C1404 0.930 . S
H1388 C1376 0.930 . S
H1389 C1377 0.930 . S
H1390 C1371 0.929 . S
H1391 C1409 0.930 . S
H1392 C1400 0.939 . S
H1393 C1401 0.930 . S
H1394 C1425 0.929 . S
H1395 C1383 0.930 . S
H1396 C1384 0.929 1_565 S
H1397 C1426 0.930 . S
H1398 C1407 0.930 . S
N1399 Gd1368 2.661 . S
N1399 C1403 1.350 . S
N1399 C1404 1.307 . S
C1400 H1392 0.939 . S
C1400 C1401 1.368 . S
C1400 C1402 1.389 1_565 S
C1401 H1393 0.930 . S
C1401 C1400 1.368 . S
C1401 C1404 1.402 1_565 S
C1402 C1400 1.389 1_545 S
C1402 C1403 1.417 . S
C1402 C1426 1.431 . S
C1403 N1399 1.350 . S
C1403 C1402 1.417 . S
C1403 C1406 1.426 . S
C1404 H1387 0.930 . S
C1404 N1399 1.307 . S
C1404 C1401 1.402 1_545 S
N1405 Gd1368 2.601 . S
N1405 C1406 1.359 . S
N1405 C1409 1.334 . S
C1406 C1403 1.426 . S
C1406 N1405 1.359 . S
C1406 C1410 1.413 . S
C1407 H1398 0.930 . S
C1407 C1408 1.359 . S
C1407 C1409 1.394 . S
C1408 C1407 1.359 . S
C1408 C1410 1.391 . S
C1408 H1411 0.929 . S
C1409 H1391 0.930 . S
C1409 N1405 1.334 . S
C1409 C1407 1.394 . S
C1410 C1406 1.413 . S
C1410 C1408 1.391 . S
C1410 C1425 1.437 . S
H1411 C1408 0.929 . S
O1412 Gd1368 2.545 . S
O1412 C1427 1.258 . S
O1413 Gd1368 2.606 1_554 S
O1413 Gd1369 2.362 . S
O1413 C1424 1.284 . S
O1414 Gd1369 2.324 . S
O1414 C1434 1.254 . S
O1415 Gd1368 2.429 1_554 S
O1415 C1434 1.268 . S
O1416 Gd1368 2.547 . S
O1416 C1424 1.207 1_556 S
O1417 Gd1368 2.412 . S
O1417 C1427 1.252 . S
O1418 Gd1369 2.545 . S
O1418 C1436 1.258 . S
O1419 Gd1368 2.362 1_554 S
O1419 Gd1369 2.606 . S
O1419 C1435 1.284 . S
O1420 Gd1368 2.324 . S
O1420 C1443 1.254 1_556 S
O1421 Gd1369 2.429 . S
O1421 C1443 1.268 . S
O1422 Gd1369 2.545 . S
O1422 C1435 1.250 . S
O1423 Gd1369 2.412 . S
O1423 C1436 1.252 . S
C1424 O1413 1.284 . S
C1424 O1416 1.207 1_554 S
C1425 H1394 0.929 . S
C1425 C1410 1.437 . S
C1425 C1426 1.317 . S
C1426 H1397 0.930 . S
C1426 C1402 1.431 . S
C1426 C1425 1.317 . S
C1427 Gd1368 2.828 . S
C1427 O1412 1.258 . S
C1427 O1417 1.252 . S
C1427 C1428 1.497 . S
C1428 C1427 1.497 . S
C1428 C1429 1.395 . S
C1428 C1430 1.380 . S
C1429 C1428 1.395 . S
C1429 C1432 1.398 . S
C1429 H1444 0.930 . S
C1430 C1428 1.380 . S
C1430 C1431 1.391 . S
C1430 H1445 0.930 . S
C1431 C1430 1.391 . S
C1431 C1433 1.387 . S
C1432 C1429 1.398 . S
C1432 C1433 1.380 . S
C1432 H1446 0.930 . S
C1433 C1431 1.387 . S
C1433 C1432 1.380 . S
C1433 H1447 0.930 . S
C1434 O1414 1.254 . S
C1434 O1415 1.268 . S
C1435 O1419 1.284 . S
C1435 O1422 1.250 . S
C1436 Gd1369 2.828 . S
C1436 O1418 1.258 . S
C1436 O1423 1.252 . S
C1436 C1437 1.497 . S
C1437 C1436 1.497 . S
C1437 C1438 1.395 . S
C1437 C1439 1.380 . S
C1438 C1437 1.395 . S
C1438 C1441 1.398 1_545 S
C1438 H1448 0.930 1_545 S
C1439 C1437 1.380 . S
C1439 C1440 1.391 . S
C1439 H1449 0.930 . S
C1440 C1439 1.391 . S
C1440 C1442 1.387 . S
C1441 C1438 1.398 1_565 S
C1441 C1442 1.380 1_565 S
C1441 H1450 0.930 . S
C1442 C1440 1.387 . S
C1442 C1441 1.380 1_545 S
C1442 H1451 0.930 . S
C1443 O1420 1.254 1_554 S
C1443 O1421 1.268 . S
H1444 C1429 0.930 . S
H1445 C1430 0.930 . S
H1446 C1432 0.930 . S
H1447 C1433 0.930 . S
H1448 C1438 0.930 1_565 S
H1449 C1439 0.930 . S
H1450 C1441 0.930 . S
H1451 C1442 0.930 . S
Gd1452 N1483 2.661 . S
Gd1452 N1489 2.601 . S
Gd1452 O1496 2.545 . S
Gd1452 O1497 2.606 . S
Gd1452 O1499 2.429 . S
Gd1452 O1500 2.545 . S
Gd1452 O1501 2.412 . S
Gd1452 O1503 2.362 . S
Gd1452 O1504 2.324 . S
Gd1452 C1511 2.828 . S
Gd1453 N1462 2.661 . S
Gd1453 N1466 2.601 . S
Gd1453 O1497 2.362 . S
Gd1453 O1498 2.324 . S
Gd1453 O1502 2.545 . S
Gd1453 O1503 2.606 . S
Gd1453 O1505 2.429 . S
Gd1453 O1506 2.545 . S
Gd1453 O1507 2.412 . S
Gd1453 C1520 2.828 . S
C1454 C1457 1.417 . S
C1454 C1459 1.431 . S
C1454 C1460 1.412 . S
C1455 C1458 1.437 . S
C1455 C1459 1.317 . S
C1455 H1474 0.929 . S
C1456 C1457 1.426 . S
C1456 C1458 1.413 . S
C1456 N1466 1.359 . S
C1457 C1454 1.417 . S
C1457 C1456 1.426 . S
C1457 N1462 1.350 . S
C1458 C1455 1.437 . S
C1458 C1456 1.413 . S
C1458 C1468 1.391 . S
C1459 C1454 1.431 . S
C1459 C1455 1.317 . S
C1459 H1470 0.930 . S
C1460 C1454 1.412 . S
C1460 C1461 1.355 . S
C1460 H1472 0.930 . S
C1461 C1460 1.355 . S
C1461 C1463 1.402 . S
C1461 H1473 0.930 . S
N1462 Gd1453 2.661 . S
N1462 C1457 1.350 . S
N1462 C1463 1.307 . S
C1463 C1461 1.402 . S
C1463 N1462 1.307 . S
C1463 H1464 0.930 . S
H1464 C1463 0.930 . S
C1465 N1466 1.334 . S
C1465 C1467 1.394 . S
C1465 H1469 0.930 . S
N1466 Gd1453 2.601 . S
N1466 C1456 1.359 . S
N1466 C1465 1.334 . S
C1467 C1465 1.394 . S
C1467 C1468 1.359 . S
C1467 H1479 0.930 . S
C1468 C1458 1.391 . S
C1468 C1467 1.359 . S
C1468 H1480 0.929 . S
H1469 C1465 0.930 . S
H1470 C1459 0.930 . S
H1471 C1488 0.930 . S
H1472 C1460 0.930 . S
H1473 C1461 0.930 . S
H1474 C1455 0.929 . S
H1475 C1493 0.930 . S
H1476 C1484 0.930 . S
H1477 C1485 0.930 . S
H1478 C1509 0.929 . S
H1479 C1467 0.930 . S
H1480 C1468 0.929 . S
H1481 C1510 0.930 . S
H1482 C1491 0.930 . S
N1483 Gd1452 2.661 . S
N1483 C1487 1.350 . S
N1483 C1488 1.307 . S
C1484 H1476 0.930 . S
C1484 C1485 1.355 . S
C1484 C1486 1.412 . S
C1485 H1477 0.930 . S
C1485 C1484 1.355 . S
C1485 C1488 1.402 . S
C1486 C1484 1.412 . S
C1486 C1487 1.417 . S
C1486 C1510 1.431 . S
C1487 N1483 1.350 . S
C1487 C1486 1.417 . S
C1487 C1490 1.426 . S
C1488 H1471 0.930 . S
C1488 N1483 1.307 . S
C1488 C1485 1.402 . S
N1489 Gd1452 2.601 . S
N1489 C1490 1.359 . S
N1489 C1493 1.334 . S
C1490 C1487 1.426 . S
C1490 N1489 1.359 . S
C1490 C1494 1.413 . S
C1491 H1482 0.930 . S
C1491 C1492 1.359 . S
C1491 C1493 1.394 . S
C1492 C1491 1.359 . S
C1492 C1494 1.391 . S
C1492 H1495 0.929 . S
C1493 H1475 0.930 . S
C1493 N1489 1.334 . S
C1493 C1491 1.394 . S
C1494 C1490 1.413 . S
C1494 C1492 1.391 . S
C1494 C1509 1.437 . S
H1495 C1492 0.929 . S
O1496 Gd1452 2.545 . S
O1496 C1511 1.258 . S
O1497 Gd1452 2.606 . S
O1497 Gd1453 2.362 . S
O1497 C1508 1.284 . S
O1498 Gd1453 2.324 . S
O1498 C1518 1.254 . S
O1499 Gd1452 2.429 . S
O1499 C1518 1.268 . S
O1500 Gd1452 2.545 . S
O1500 C1508 1.250 . S
O1501 Gd1452 2.412 . S
O1501 C1511 1.252 . S
O1502 Gd1453 2.545 . S
O1502 C1520 1.258 . S
O1503 Gd1452 2.362 . S
O1503 Gd1453 2.606 . S
O1503 C1519 1.284 . S
O1504 Gd1452 2.324 . S
O1504 C1527 1.254 . S
O1505 Gd1453 2.429 . S
O1505 C1527 1.268 . S
O1506 Gd1453 2.545 . S
O1506 C1519 1.250 . S
O1507 Gd1453 2.412 . S
O1507 C1520 1.252 . S
C1508 O1497 1.284 . S
C1508 O1500 1.250 . S
C1509 H1478 0.929 . S
C1509 C1494 1.437 . S
C1509 C1510 1.317 . S
C1510 H1481 0.930 . S
C1510 C1486 1.431 . S
C1510 C1509 1.317 . S
C1511 Gd1452 2.828 . S
C1511 O1496 1.258 . S
C1511 O1501 1.252 . S
C1511 C1512 1.497 . S
C1512 C1511 1.497 . S
C1512 C1513 1.395 . S
C1512 C1514 1.380 . S
C1513 C1512 1.395 . S
C1513 C1516 1.398 . S
C1513 H1528 0.930 . S
C1514 C1512 1.380 . S
C1514 C1515 1.391 . S
C1514 H1529 0.930 . S
C1515 C1514 1.391 . S
C1515 C1517 1.387 . S
C1516 C1513 1.398 . S
C1516 C1517 1.380 . S
C1516 H1530 0.930 . S
C1517 C1515 1.387 . S
C1517 C1516 1.380 . S
C1517 H1531 0.930 . S
C1518 O1498 1.254 . S
C1518 O1499 1.268 . S
C1519 O1503 1.284 . S
C1519 O1506 1.250 . S
C1520 Gd1453 2.828 . S
C1520 O1502 1.258 . S
C1520 O1507 1.252 . S
C1520 C1521 1.497 . S
C1521 C1520 1.497 . S
C1521 C1522 1.395 . S
C1521 C1523 1.380 . S
C1522 C1521 1.395 . S
C1522 C1525 1.398 . S
C1522 H1532 0.930 . S
C1523 C1521 1.380 . S
C1523 C1524 1.391 . S
C1523 H1533 0.930 . S
C1524 C1523 1.391 . S
C1524 C1526 1.387 . S
C1525 C1522 1.398 . S
C1525 C1526 1.380 . S
C1525 H1534 0.930 . S
C1526 C1524 1.387 . S
C1526 C1525 1.380 . S
C1526 H1535 0.930 . S
C1527 O1504 1.254 . S
C1527 O1505 1.268 . S
H1528 C1513 0.930 . S
H1529 C1514 0.930 . S
H1530 C1516 0.930 . S
H1531 C1517 0.930 . S
H1532 C1522 0.930 . S
H1533 C1523 0.930 . S
H1534 C1525 0.930 . S
H1535 C1526 0.930 . S
Gd1536 N1567 2.661 1_554 S
Gd1536 N1573 2.601 1_554 S
Gd1536 O1580 2.545 . S
Gd1536 O1581 2.606 . S
Gd1536 O1583 2.429 . S
Gd1536 O1584 2.545 . S
Gd1536 O1585 2.412 . S
Gd1536 O1587 2.362 1_554 S
Gd1536 O1588 2.324 . S
Gd1536 C1595 2.828 . S
Gd1537 N1546 2.661 . S
Gd1537 N1550 2.601 . S
Gd1537 O1581 2.362 . S
Gd1537 O1582 2.324 . S
Gd1537 O1586 2.545 . S
Gd1537 O1587 2.606 1_554 S
Gd1537 O1589 2.429 . S
Gd1537 O1590 2.545 1_554 S
Gd1537 O1591 2.412 . S
Gd1537 C1604 2.828 . S
C1538 C1541 1.417 . S
C1538 C1543 1.431 . S
C1538 C1544 1.412 . S
C1539 C1542 1.437 . S
C1539 C1543 1.317 . S
C1539 H1558 0.929 . S
C1540 C1541 1.426 . S
C1540 C1542 1.413 . S
C1540 N1550 1.359 . S
C1541 C1538 1.417 . S
C1541 C1540 1.426 . S
C1541 N1546 1.350 . S
C1542 C1539 1.437 . S
C1542 C1540 1.413 . S
C1542 C1552 1.391 . S
C1543 C1538 1.431 . S
C1543 C1539 1.317 . S
C1543 H1554 0.930 . S
C1544 C1538 1.412 . S
C1544 C1545 1.355 . S
C1544 H1556 0.930 . S
C1545 C1544 1.355 . S
C1545 C1547 1.402 . S
C1545 H1557 0.930 . S
N1546 Gd1537 2.661 . S
N1546 C1541 1.350 . S
N1546 C1547 1.307 . S
C1547 C1545 1.402 . S
C1547 N1546 1.307 . S
C1547 H1548 0.930 . S
H1548 C1547 0.930 . S
C1549 N1550 1.334 . S
C1549 C1551 1.394 . S
C1549 H1553 0.930 . S
N1550 Gd1537 2.601 . S
N1550 C1540 1.359 . S
N1550 C1549 1.334 . S
C1551 C1549 1.394 . S
C1551 C1552 1.359 . S
C1551 H1563 0.930 . S
C1552 C1542 1.391 . S
C1552 C1551 1.359 . S
C1552 H1564 0.929 . S
H1553 C1549 0.930 . S
H1554 C1543 0.930 . S
H1555 C1572 0.930 . S
H1556 C1544 0.930 . S
H1557 C1545 0.930 . S
H1558 C1539 0.929 . S
H1559 C1577 0.930 . S
H1560 C1568 0.930 . S
H1561 C1569 0.930 . S
H1562 C1593 0.929 . S
H1563 C1551 0.930 . S
H1564 C1552 0.929 . S
H1565 C1594 0.930 . S
H1566 C1575 0.930 . S
N1567 Gd1536 2.661 1_556 S
N1567 C1571 1.350 . S
N1567 C1572 1.307 . S
C1568 H1560 0.930 . S
C1568 C1569 1.355 . S
C1568 C1570 1.412 . S
C1569 H1561 0.930 . S
C1569 C1568 1.355 . S
C1569 C1572 1.402 . S
C1570 C1568 1.412 . S
C1570 C1571 1.417 . S
C1570 C1594 1.431 . S
C1571 N1567 1.350 . S
C1571 C1570 1.417 . S
C1571 C1574 1.426 . S
C1572 H1555 0.930 . S
C1572 N1567 1.307 . S
C1572 C1569 1.402 . S
N1573 Gd1536 2.601 1_556 S
N1573 C1574 1.359 . S
N1573 C1577 1.334 . S
C1574 C1571 1.426 . S
C1574 N1573 1.359 . S
C1574 C1578 1.413 . S
C1575 H1566 0.930 . S
C1575 C1576 1.359 . S
C1575 C1577 1.394 . S
C1576 C1575 1.359 . S
C1576 C1578 1.391 . S
C1576 H1579 0.929 . S
C1577 H1559 0.930 . S
C1577 N1573 1.334 . S
C1577 C1575 1.394 . S
C1578 C1574 1.413 . S
C1578 C1576 1.391 . S
C1578 C1593 1.437 . S
H1579 C1576 0.929 . S
O1580 Gd1536 2.545 . S
O1580 C1595 1.258 . S
O1581 Gd1536 2.606 . S
O1581 Gd1537 2.362 . S
O1581 C1592 1.284 . S
O1582 Gd1537 2.324 . S
O1582 C1602 1.254 . S
O1583 Gd1536 2.429 . S
O1583 C1602 1.268 . S
O1584 Gd1536 2.545 . S
O1584 C1592 1.250 . S
O1585 Gd1536 2.412 . S
O1585 C1595 1.252 . S
O1586 Gd1537 2.545 . S
O1586 C1604 1.258 . S
O1587 Gd1536 2.362 1_556 S
O1587 Gd1537 2.606 1_556 S
O1587 C1603 1.284 . S
O1588 Gd1536 2.324 . S
O1588 C1611 1.254 . S
O1589 Gd1537 2.429 . S
O1589 C1611 1.268 . S
O1590 Gd1537 2.545 1_556 S
O1590 C1603 1.250 . S
O1591 Gd1537 2.412 . S
O1591 C1604 1.252 . S
C1592 O1581 1.284 . S
C1592 O1584 1.250 . S
C1593 H1562 0.929 . S
C1593 C1578 1.437 . S
C1593 C1594 1.317 . S
C1594 H1565 0.930 . S
C1594 C1570 1.431 . S
C1594 C1593 1.317 . S
C1595 Gd1536 2.828 . S
C1595 O1580 1.258 . S
C1595 O1585 1.252 . S
C1595 C1596 1.497 . S
C1596 C1595 1.497 . S
C1596 C1597 1.395 . S
C1596 C1598 1.380 . S
C1597 C1596 1.395 . S
C1597 C1600 1.398 . S
C1597 H1612 0.930 . S
C1598 C1596 1.380 . S
C1598 C1599 1.391 . S
C1598 H1613 0.930 . S
C1599 C1598 1.391 . S
C1599 C1601 1.387 . S
C1600 C1597 1.398 . S
C1600 C1601 1.380 . S
C1600 H1614 0.930 . S
C1601 C1599 1.387 . S
C1601 C1600 1.380 . S
C1601 H1615 0.930 . S
C1602 O1582 1.254 . S
C1602 O1583 1.268 . S
C1603 O1587 1.284 . S
C1603 O1590 1.250 . S
C1604 Gd1537 2.828 . S
C1604 O1586 1.258 . S
C1604 O1591 1.252 . S
C1604 C1605 1.497 . S
C1605 C1604 1.497 . S
C1605 C1606 1.395 . S
C1605 C1607 1.380 . S
C1606 C1605 1.395 . S
C1606 C1609 1.398 . S
C1606 H1616 0.930 . S
C1607 C1605 1.380 . S
C1607 C1608 1.391 1_554 S
C1607 H1617 0.921 1_554 S
C1608 C1607 1.391 1_556 S
C1608 C1610 1.387 1_556 S
C1609 C1606 1.398 . S
C1609 C1610 1.380 . S
C1609 H1618 0.930 . S
C1610 C1608 1.387 1_554 S
C1610 C1609 1.380 . S
C1610 H1619 0.916 1_554 S
C1611 O1588 1.254 . S
C1611 O1589 1.268 . S
H1612 C1597 0.930 . S
H1613 C1598 0.930 . S
H1614 C1600 0.930 . S
H1615 C1601 0.930 . S
H1616 C1606 0.930 . S
H1617 C1607 0.921 1_556 S
H1618 C1609 0.930 . S
H1619 C1610 0.916 1_556 S
Gd1620 N1651 2.661 . S
Gd1620 N1657 2.601 . S
Gd1620 O1664 2.545 . S
Gd1620 O1665 2.606 . S
Gd1620 O1667 2.429 . S
Gd1620 O1668 2.545 . S
Gd1620 O1669 2.412 . S
Gd1620 O1671 2.362 . S
Gd1620 O1672 2.324 . S
Gd1620 C1679 2.828 . S
Gd1621 N1630 2.661 . S
Gd1621 N1634 2.601 . S
Gd1621 O1665 2.362 . S
Gd1621 O1666 2.324 . S
Gd1621 O1670 2.545 . S
Gd1621 O1671 2.606 . S
Gd1621 O1673 2.429 . S
Gd1621 O1674 2.545 . S
Gd1621 O1675 2.412 . S
Gd1621 C1688 2.828 . S
C1622 C1625 1.417 . S
C1622 C1627 1.431 . S
C1622 C1628 1.412 . S
C1623 C1626 1.437 . S
C1623 C1627 1.317 . S
C1623 H1642 0.929 . S
C1624 C1625 1.426 . S
C1624 C1626 1.413 . S
C1624 N1634 1.359 . S
C1625 C1622 1.417 . S
C1625 C1624 1.426 . S
C1625 N1630 1.350 . S
C1626 C1623 1.437 . S
C1626 C1624 1.413 . S
C1626 C1636 1.391 . S
C1627 C1622 1.431 . S
C1627 C1623 1.317 . S
C1627 H1638 0.930 . S
C1628 C1622 1.412 . S
C1628 C1629 1.355 . S
C1628 H1640 0.930 . S
C1629 C1628 1.355 . S
C1629 C1631 1.402 . S
C1629 H1641 0.930 . S
N1630 Gd1621 2.661 . S
N1630 C1625 1.350 . S
N1630 C1631 1.307 . S
C1631 C1629 1.402 . S
C1631 N1630 1.307 . S
C1631 H1632 0.930 . S
H1632 C1631 0.930 . S
C1633 N1634 1.334 . S
C1633 C1635 1.394 . S
C1633 H1637 0.930 . S
N1634 Gd1621 2.601 . S
N1634 C1624 1.359 . S
N1634 C1633 1.334 . S
C1635 C1633 1.394 . S
C1635 C1636 1.359 . S
C1635 H1647 0.930 . S
C1636 C1626 1.391 . S
C1636 C1635 1.359 . S
C1636 H1648 0.929 . S
H1637 C1633 0.930 . S
H1638 C1627 0.930 . S
H1639 C1656 0.930 . S
H1640 C1628 0.930 . S
H1641 C1629 0.930 . S
H1642 C1623 0.929 . S
H1643 C1661 0.930 . S
H1644 C1652 0.930 . S
H1645 C1653 0.930 . S
H1646 C1677 0.929 . S
H1647 C1635 0.930 . S
H1648 C1636 0.929 . S
H1649 C1678 0.930 . S
H1650 C1659 0.930 . S
N1651 Gd1620 2.661 . S
N1651 C1655 1.350 . S
N1651 C1656 1.307 . S
C1652 H1644 0.930 . S
C1652 C1653 1.355 . S
C1652 C1654 1.412 . S
C1653 H1645 0.930 . S
C1653 C1652 1.355 . S
C1653 C1656 1.402 . S
C1654 C1652 1.412 . S
C1654 C1655 1.417 . S
C1654 C1678 1.431 . S
C1655 N1651 1.350 . S
C1655 C1654 1.417 . S
C1655 C1658 1.426 . S
C1656 H1639 0.930 . S
C1656 N1651 1.307 . S
C1656 C1653 1.402 . S
N1657 Gd1620 2.601 . S
N1657 C1658 1.359 . S
N1657 C1661 1.334 . S
C1658 C1655 1.426 . S
C1658 N1657 1.359 . S
C1658 C1662 1.413 . S
C1659 H1650 0.930 . S
C1659 C1660 1.359 . S
C1659 C1661 1.394 . S
C1660 C1659 1.359 . S
C1660 C1662 1.391 . S
C1660 H1663 0.929 . S
C1661 H1643 0.930 . S
C1661 N1657 1.334 . S
C1661 C1659 1.394 . S
C1662 C1658 1.413 . S
C1662 C1660 1.391 . S
C1662 C1677 1.437 . S
H1663 C1660 0.929 . S
O1664 Gd1620 2.545 . S
O1664 C1679 1.258 . S
O1665 Gd1620 2.606 . S
O1665 Gd1621 2.362 . S
O1665 C1676 1.284 . S
O1666 Gd1621 2.324 . S
O1666 C1686 1.254 . S
O1667 Gd1620 2.429 . S
O1667 C1686 1.268 . S
O1668 Gd1620 2.545 . S
O1668 C1676 1.250 . S
O1669 Gd1620 2.412 . S
O1669 C1679 1.252 . S
O1670 Gd1621 2.545 . S
O1670 C1688 1.258 . S
O1671 Gd1620 2.362 . S
O1671 Gd1621 2.606 . S
O1671 C1687 1.284 . S
O1672 Gd1620 2.324 . S
O1672 C1695 1.254 . S
O1673 Gd1621 2.429 . S
O1673 C1695 1.268 . S
O1674 Gd1621 2.545 . S
O1674 C1687 1.250 . S
O1675 Gd1621 2.412 . S
O1675 C1688 1.252 . S
C1676 O1665 1.284 . S
C1676 O1668 1.250 . S
C1677 H1646 0.929 . S
C1677 C1662 1.437 . S
C1677 C1678 1.317 . S
C1678 H1649 0.930 . S
C1678 C1654 1.431 . S
C1678 C1677 1.317 . S
C1679 Gd1620 2.828 . S
C1679 O1664 1.258 . S
C1679 O1669 1.252 . S
C1679 C1680 1.497 . S
C1680 C1679 1.497 . S
C1680 C1681 1.395 . S
C1680 C1682 1.380 . S
C1681 C1680 1.395 . S
C1681 C1684 1.398 . S
C1681 H1696 0.930 . S
C1682 C1680 1.380 . S
C1682 C1683 1.391 . S
C1682 H1697 0.930 . S
C1683 C1682 1.391 . S
C1683 C1685 1.387 . S
C1684 C1681 1.398 . S
C1684 C1685 1.380 . S
C1684 H1698 0.930 . S
C1685 C1683 1.387 . S
C1685 C1684 1.380 . S
C1685 H1699 0.930 . S
C1686 O1666 1.254 . S
C1686 O1667 1.268 . S
C1687 O1671 1.284 . S
C1687 O1674 1.250 . S
C1688 Gd1621 2.828 . S
C1688 O1670 1.258 . S
C1688 O1675 1.252 . S
C1688 C1689 1.497 . S
C1689 C1688 1.497 . S
C1689 C1690 1.395 . S
C1689 C1691 1.380 . S
C1690 C1689 1.395 . S
C1690 C1693 1.398 . S
C1690 H1700 0.930 . S
C1691 C1689 1.380 . S
C1691 C1692 1.391 . S
C1691 H1701 0.930 . S
C1692 C1691 1.391 . S
C1692 C1694 1.387 . S
C1693 C1690 1.398 . S
C1693 C1694 1.380 . S
C1693 H1702 0.930 . S
C1694 C1692 1.387 . S
C1694 C1693 1.380 . S
C1694 H1703 0.930 . S
C1695 O1672 1.254 . S
C1695 O1673 1.268 . S
H1696 C1681 0.930 . S
H1697 C1682 0.930 . S
H1698 C1684 0.930 . S
H1699 C1685 0.930 . S
H1700 C1690 0.930 . S
H1701 C1691 0.930 . S
H1702 C1693 0.930 . S
H1703 C1694 0.930 . S
Gd1704 N1735 2.661 . S
Gd1704 N1741 2.601 . S
Gd1704 O1748 2.545 . S
Gd1704 O1749 2.606 . S
Gd1704 O1751 2.429 . S
Gd1704 O1752 2.545 . S
Gd1704 O1753 2.412 . S
Gd1704 O1755 2.362 . S
Gd1704 O1756 2.324 . S
Gd1704 C1763 2.828 . S
Gd1705 N1714 2.661 . S
Gd1705 N1718 2.601 . S
Gd1705 O1749 2.362 . S
Gd1705 O1750 2.324 . S
Gd1705 O1754 2.545 . S
Gd1705 O1755 2.606 . S
Gd1705 O1757 2.429 . S
Gd1705 O1758 2.545 . S
Gd1705 O1759 2.412 . S
Gd1705 C1772 2.828 . S
C1706 C1709 1.417 . S
C1706 C1711 1.431 . S
C1706 C1712 1.412 . S
C1707 C1710 1.437 . S
C1707 C1711 1.317 . S
C1707 H1726 0.929 . S
C1708 C1709 1.426 . S
C1708 C1710 1.413 . S
C1708 N1718 1.359 . S
C1709 C1706 1.417 . S
C1709 C1708 1.426 . S
C1709 N1714 1.350 . S
C1710 C1707 1.437 . S
C1710 C1708 1.413 . S
C1710 C1720 1.391 . S
C1711 C1706 1.431 . S
C1711 C1707 1.317 . S
C1711 H1722 0.930 . S
C1712 C1706 1.412 . S
C1712 C1713 1.355 . S
C1712 H1724 0.930 . S
C1713 C1712 1.355 . S
C1713 C1715 1.402 . S
C1713 H1725 0.930 . S
N1714 Gd1705 2.661 . S
N1714 C1709 1.350 . S
N1714 C1715 1.307 . S
C1715 C1713 1.402 . S
C1715 N1714 1.307 . S
C1715 H1716 0.930 . S
H1716 C1715 0.930 . S
C1717 N1718 1.334 . S
C1717 C1719 1.394 . S
C1717 H1721 0.930 . S
N1718 Gd1705 2.601 . S
N1718 C1708 1.359 . S
N1718 C1717 1.334 . S
C1719 C1717 1.394 . S
C1719 C1720 1.359 . S
C1719 H1731 0.930 . S
C1720 C1710 1.391 . S
C1720 C1719 1.359 . S
C1720 H1732 0.929 . S
H1721 C1717 0.930 . S
H1722 C1711 0.930 . S
H1723 C1740 0.930 . S
H1724 C1712 0.930 . S
H1725 C1713 0.930 . S
H1726 C1707 0.929 . S
H1727 C1745 0.930 . S
H1728 C1736 0.930 . S
H1729 C1737 0.930 . S
H1730 C1761 0.929 . S
H1731 C1719 0.930 . S
H1732 C1720 0.929 . S
H1733 C1762 0.930 . S
H1734 C1743 0.930 . S
N1735 Gd1704 2.661 . S
N1735 C1739 1.350 . S
N1735 C1740 1.307 . S
C1736 H1728 0.930 . S
C1736 C1737 1.355 1_655 S
C1736 C1738 1.412 . S
C1737 H1729 0.930 . S
C1737 C1736 1.355 1_455 S
C1737 C1740 1.402 . S
C1738 C1736 1.412 . S
C1738 C1739 1.417 1_655 S
C1738 C1762 1.431 . S
C1739 N1735 1.350 . S
C1739 C1738 1.417 1_455 S
C1739 C1742 1.426 . S
C1740 H1723 0.930 . S
C1740 N1735 1.307 . S
C1740 C1737 1.402 . S
N1741 Gd1704 2.601 . S
N1741 C1742 1.359 . S
N1741 C1745 1.334 . S
C1742 C1739 1.426 . S
C1742 N1741 1.359 . S
C1742 C1746 1.413 1_455 S
C1743 H1734 0.930 . S
C1743 C1744 1.359 1_455 S
C1743 C1745 1.394 . S
C1744 C1743 1.359 1_655 S
C1744 C1746 1.391 . S
C1744 H1747 0.929 . S
C1745 H1727 0.930 . S
C1745 N1741 1.334 . S
C1745 C1743 1.394 . S
C1746 C1742 1.413 1_655 S
C1746 C1744 1.391 . S
C1746 C1761 1.437 . S
H1747 C1744 0.929 . S
O1748 Gd1704 2.545 . S
O1748 C1763 1.258 . S
O1749 Gd1704 2.606 . S
O1749 Gd1705 2.362 . S
O1749 C1760 1.284 . S
O1750 Gd1705 2.324 . S
O1750 C1770 1.254 . S
O1751 Gd1704 2.429 . S
O1751 C1770 1.268 . S
O1752 Gd1704 2.545 . S
O1752 C1760 1.250 . S
O1753 Gd1704 2.412 . S
O1753 C1763 1.252 . S
O1754 Gd1705 2.545 . S
O1754 C1772 1.258 . S
O1755 Gd1704 2.362 . S
O1755 Gd1705 2.606 . S
O1755 C1771 1.284 . S
O1756 Gd1704 2.324 . S
O1756 C1779 1.254 . S
O1757 Gd1705 2.429 . S
O1757 C1779 1.268 . S
O1758 Gd1705 2.545 . S
O1758 C1771 1.250 . S
O1759 Gd1705 2.412 . S
O1759 C1772 1.252 . S
C1760 O1749 1.284 . S
C1760 O1752 1.250 . S
C1761 H1730 0.929 . S
C1761 C1746 1.437 . S
C1761 C1762 1.317 . S
C1762 H1733 0.930 . S
C1762 C1738 1.431 . S
C1762 C1761 1.317 . S
C1763 Gd1704 2.828 . S
C1763 O1748 1.258 . S
C1763 O1753 1.252 . S
C1763 C1764 1.497 . S
C1764 C1763 1.497 . S
C1764 C1765 1.395 . S
C1764 C1766 1.380 . S
C1765 C1764 1.395 . S
C1765 C1768 1.398 . S
C1765 H1780 0.930 . S
C1766 C1764 1.380 . S
C1766 C1767 1.391 . S
C1766 H1781 0.930 . S
C1767 C1766 1.391 . S
C1767 C1769 1.387 . S
C1768 C1765 1.398 . S
C1768 C1769 1.380 . S
C1768 H1782 0.930 . S
C1769 C1767 1.387 . S
C1769 C1768 1.380 . S
C1769 H1783 0.930 . S
C1770 O1750 1.254 . S
C1770 O1751 1.268 . S
C1771 O1755 1.284 . S
C1771 O1758 1.250 . S
C1772 Gd1705 2.828 . S
C1772 O1754 1.258 . S
C1772 O1759 1.252 . S
C1772 C1773 1.497 . S
C1773 C1772 1.497 . S
C1773 C1774 1.395 . S
C1773 C1775 1.380 . S
C1774 C1773 1.395 . S
C1774 C1777 1.398 . S
C1774 H1784 0.930 . S
C1775 C1773 1.380 . S
C1775 C1776 1.391 . S
C1775 H1785 0.930 . S
C1776 C1775 1.391 . S
C1776 C1778 1.387 . S
C1777 C1774 1.398 . S
C1777 C1778 1.380 . S
C1777 H1786 0.930 . S
C1778 C1776 1.387 . S
C1778 C1777 1.380 . S
C1778 H1787 0.930 . S
C1779 O1756 1.254 . S
C1779 O1757 1.268 . S
H1780 C1765 0.930 . S
H1781 C1766 0.930 . S
H1782 C1768 0.930 . S
H1783 C1769 0.930 . S
H1784 C1774 0.930 . S
H1785 C1775 0.930 . S
H1786 C1777 0.930 . S
H1787 C1778 0.930 . S
Gd1788 N1819 2.661 . S
Gd1788 N1825 2.601 . S
Gd1788 O1832 2.545 . S
Gd1788 O1833 2.606 . S
Gd1788 O1835 2.429 . S
Gd1788 O1836 2.545 . S
Gd1788 O1837 2.412 . S
Gd1788 O1839 2.362 . S
Gd1788 O1840 2.324 . S
Gd1788 C1847 2.828 . S
Gd1789 N1798 2.661 . S
Gd1789 N1802 2.601 . S
Gd1789 O1833 2.362 . S
Gd1789 O1834 2.324 . S
Gd1789 O1838 2.545 . S
Gd1789 O1839 2.606 . S
Gd1789 O1841 2.429 . S
Gd1789 O1842 2.545 . S
Gd1789 O1843 2.412 . S
Gd1789 C1856 2.828 . S
C1790 C1793 1.417 . S
C1790 C1795 1.431 . S
C1790 C1796 1.412 . S
C1791 C1794 1.437 . S
C1791 C1795 1.317 . S
C1791 H1810 0.929 . S
C1792 C1793 1.426 . S
C1792 C1794 1.413 . S
C1792 N1802 1.359 . S
C1793 C1790 1.417 . S
C1793 C1792 1.426 . S
C1793 N1798 1.350 . S
C1794 C1791 1.437 . S
C1794 C1792 1.413 . S
C1794 C1804 1.391 . S
C1795 C1790 1.431 . S
C1795 C1791 1.317 . S
C1795 H1806 0.930 . S
C1796 C1790 1.412 . S
C1796 C1797 1.355 . S
C1796 H1808 0.930 . S
C1797 C1796 1.355 . S
C1797 C1799 1.402 . S
C1797 H1809 0.930 . S
N1798 Gd1789 2.661 . S
N1798 C1793 1.350 . S
N1798 C1799 1.307 . S
C1799 C1797 1.402 . S
C1799 N1798 1.307 . S
C1799 H1800 0.930 . S
H1800 C1799 0.930 . S
C1801 N1802 1.334 . S
C1801 C1803 1.394 . S
C1801 H1805 0.930 . S
N1802 Gd1789 2.601 . S
N1802 C1792 1.359 . S
N1802 C1801 1.334 . S
C1803 C1801 1.394 . S
C1803 C1804 1.359 . S
C1803 H1815 0.930 . S
C1804 C1794 1.391 . S
C1804 C1803 1.359 . S
C1804 H1816 0.929 . S
H1805 C1801 0.930 . S
H1806 C1795 0.930 . S
H1807 C1824 0.930 . S
H1808 C1796 0.930 . S
H1809 C1797 0.930 . S
H1810 C1791 0.929 . S
H1811 C1829 0.930 . S
H1812 C1820 0.930 . S
H1813 C1821 0.930 . S
H1814 C1845 0.929 . S
H1815 C1803 0.930 . S
H1816 C1804 0.929 . S
H1817 C1846 0.930 . S
H1818 C1827 0.930 . S
N1819 Gd1788 2.661 . S
N1819 C1823 1.350 . S
N1819 C1824 1.307 . S
C1820 H1812 0.930 . S
C1820 C1821 1.355 . S
C1820 C1822 1.412 . S
C1821 H1813 0.930 . S
C1821 C1820 1.355 . S
C1821 C1824 1.402 . S
C1822 C1820 1.412 . S
C1822 C1823 1.417 . S
C1822 C1846 1.431 . S
C1823 N1819 1.350 . S
C1823 C1822 1.417 . S
C1823 C1826 1.426 . S
C1824 H1807 0.930 . S
C1824 N1819 1.307 . S
C1824 C1821 1.402 . S
N1825 Gd1788 2.601 . S
N1825 C1826 1.359 . S
N1825 C1829 1.334 . S
C1826 C1823 1.426 . S
C1826 N1825 1.359 . S
C1826 C1830 1.413 . S
C1827 H1818 0.930 . S
C1827 C1828 1.359 . S
C1827 C1829 1.394 . S
C1828 C1827 1.359 . S
C1828 C1830 1.391 . S
C1828 H1831 0.929 . S
C1829 H1811 0.930 . S
C1829 N1825 1.334 . S
C1829 C1827 1.394 . S
C1830 C1826 1.413 . S
C1830 C1828 1.391 . S
C1830 C1845 1.437 . S
H1831 C1828 0.929 . S
O1832 Gd1788 2.545 . S
O1832 C1847 1.258 . S
O1833 Gd1788 2.606 . S
O1833 Gd1789 2.362 . S
O1833 C1844 1.284 . S
O1834 Gd1789 2.324 . S
O1834 C1854 1.254 . S
O1835 Gd1788 2.429 . S
O1835 C1854 1.268 . S
O1836 Gd1788 2.545 . S
O1836 C1844 1.250 . S
O1837 Gd1788 2.412 . S
O1837 C1847 1.252 . S
O1838 Gd1789 2.545 . S
O1838 C1856 1.258 . S
O1839 Gd1788 2.362 . S
O1839 Gd1789 2.606 . S
O1839 C1855 1.284 . S
O1840 Gd1788 2.324 . S
O1840 C1863 1.254 . S
O1841 Gd1789 2.429 . S
O1841 C1863 1.268 . S
O1842 Gd1789 2.545 . S
O1842 C1855 1.250 . S
O1843 Gd1789 2.412 . S
O1843 C1856 1.252 . S
C1844 O1833 1.284 . S
C1844 O1836 1.250 . S
C1845 H1814 0.929 . S
C1845 C1830 1.437 . S
C1845 C1846 1.317 . S
C1846 H1817 0.930 . S
C1846 C1822 1.431 . S
C1846 C1845 1.317 . S
C1847 Gd1788 2.828 . S
C1847 O1832 1.258 . S
C1847 O1837 1.252 . S
C1847 C1848 1.497 . S
C1848 C1847 1.497 . S
C1848 C1849 1.395 . S
C1848 C1850 1.380 . S
C1849 C1848 1.395 . S
C1849 C1852 1.398 . S
C1849 H1864 0.930 . S
C1850 C1848 1.380 . S
C1850 C1851 1.391 . S
C1850 H1865 0.930 . S
C1851 C1850 1.391 . S
C1851 C1853 1.387 . S
C1852 C1849 1.398 . S
C1852 C1853 1.380 . S
C1852 H1866 0.930 . S
C1853 C1851 1.387 . S
C1853 C1852 1.380 . S
C1853 H1867 0.930 . S
C1854 O1834 1.254 . S
C1854 O1835 1.268 . S
C1855 O1839 1.284 . S
C1855 O1842 1.250 . S
C1856 Gd1789 2.828 . S
C1856 O1838 1.258 . S
C1856 O1843 1.252 . S
C1856 C1857 1.497 . S
C1857 C1856 1.497 . S
C1857 C1858 1.395 . S
C1857 C1859 1.380 . S
C1858 C1857 1.395 . S
C1858 C1861 1.398 . S
C1858 H1868 0.930 . S
C1859 C1857 1.380 . S
C1859 C1860 1.391 . S
C1859 H1869 0.930 . S
C1860 C1859 1.391 . S
C1860 C1862 1.387 . S
C1861 C1858 1.398 . S
C1861 C1862 1.380 . S
C1861 H1870 0.930 . S
C1862 C1860 1.387 . S
C1862 C1861 1.380 . S
C1862 H1871 0.930 . S
C1863 O1840 1.254 . S
C1863 O1841 1.268 . S
H1864 C1849 0.930 . S
H1865 C1850 0.930 . S
H1866 C1852 0.930 . S
H1867 C1853 0.930 . S
H1868 C1858 0.930 . S
H1869 C1859 0.930 . S
H1870 C1861 0.930 . S
H1871 C1862 0.930 . S
Gd1872 N1903 2.661 . S
Gd1872 N1909 2.601 . S
Gd1872 O1916 2.545 . S
Gd1872 O1917 2.606 . S
Gd1872 O1919 2.429 . S
Gd1872 O1920 2.545 . S
Gd1872 O1921 2.412 . S
Gd1872 O1923 2.362 . S
Gd1872 O1924 2.324 . S
Gd1872 C1931 2.828 . S
Gd1873 N1882 2.661 . S
Gd1873 N1886 2.601 . S
Gd1873 O1917 2.362 . S
Gd1873 O1918 2.324 . S
Gd1873 O1922 2.545 . S
Gd1873 O1923 2.606 . S
Gd1873 O1925 2.429 . S
Gd1873 O1926 2.545 . S
Gd1873 O1927 2.412 . S
Gd1873 C1940 2.828 . S
C1874 C1877 1.417 . S
C1874 C1879 1.431 . S
C1874 C1880 1.412 . S
C1875 C1878 1.437 . S
C1875 C1879 1.317 . S
C1875 H1894 0.929 . S
C1876 C1877 1.426 . S
C1876 C1878 1.413 . S
C1876 N1886 1.359 . S
C1877 C1874 1.417 . S
C1877 C1876 1.426 . S
C1877 N1882 1.350 . S
C1878 C1875 1.437 . S
C1878 C1876 1.413 . S
C1878 C1888 1.391 . S
C1879 C1874 1.431 . S
C1879 C1875 1.317 . S
C1879 H1890 0.930 . S
C1880 C1874 1.412 . S
C1880 C1881 1.355 . S
C1880 H1892 0.930 . S
C1881 C1880 1.355 . S
C1881 C1883 1.402 . S
C1881 H1893 0.930 . S
N1882 Gd1873 2.661 . S
N1882 C1877 1.350 . S
N1882 C1883 1.307 . S
C1883 C1881 1.402 . S
C1883 N1882 1.307 . S
C1883 H1884 0.930 . S
H1884 C1883 0.930 . S
C1885 N1886 1.334 . S
C1885 C1887 1.394 . S
C1885 H1889 0.930 . S
N1886 Gd1873 2.601 . S
N1886 C1876 1.359 . S
N1886 C1885 1.334 . S
C1887 C1885 1.394 . S
C1887 C1888 1.359 . S
C1887 H1899 0.930 . S
C1888 C1878 1.391 . S
C1888 C1887 1.359 . S
C1888 H1900 0.929 . S
H1889 C1885 0.930 . S
H1890 C1879 0.930 . S
H1891 C1908 0.930 . S
H1892 C1880 0.930 . S
H1893 C1881 0.930 . S
H1894 C1875 0.929 . S
H1895 C1913 0.930 . S
H1896 C1904 0.930 . S
H1897 C1905 0.930 . S
H1898 C1929 0.929 . S
H1899 C1887 0.930 . S
H1900 C1888 0.929 . S
H1901 C1930 0.930 . S
H1902 C1911 0.930 . S
N1903 Gd1872 2.661 . S
N1903 C1907 1.350 . S
N1903 C1908 1.307 . S
C1904 H1896 0.930 . S
C1904 C1905 1.355 . S
C1904 C1906 1.412 . S
C1905 H1897 0.930 . S
C1905 C1904 1.355 . S
C1905 C1908 1.402 . S
C1906 C1904 1.412 . S
C1906 C1907 1.417 . S
C1906 C1930 1.431 . S
C1907 N1903 1.350 . S
C1907 C1906 1.417 . S
C1907 C1910 1.426 . S
C1908 H1891 0.930 . S
C1908 N1903 1.307 . S
C1908 C1905 1.402 . S
N1909 Gd1872 2.601 . S
N1909 C1910 1.359 . S
N1909 C1913 1.334 . S
C1910 C1907 1.426 . S
C1910 N1909 1.359 . S
C1910 C1914 1.413 . S
C1911 H1902 0.930 . S
C1911 C1912 1.359 . S
C1911 C1913 1.394 . S
C1912 C1911 1.359 . S
C1912 C1914 1.391 . S
C1912 H1915 0.929 . S
C1913 H1895 0.930 . S
C1913 N1909 1.334 . S
C1913 C1911 1.394 . S
C1914 C1910 1.413 . S
C1914 C1912 1.391 . S
C1914 C1929 1.437 . S
H1915 C1912 0.929 . S
O1916 Gd1872 2.545 . S
O1916 C1931 1.258 . S
O1917 Gd1872 2.606 . S
O1917 Gd1873 2.362 . S
O1917 C1928 1.284 . S
O1918 Gd1873 2.324 . S
O1918 C1938 1.254 . S
O1919 Gd1872 2.429 . S
O1919 C1938 1.268 . S
O1920 Gd1872 2.545 . S
O1920 C1928 1.250 . S
O1921 Gd1872 2.412 . S
O1921 C1931 1.252 . S
O1922 Gd1873 2.545 . S
O1922 C1940 1.258 . S
O1923 Gd1872 2.362 . S
O1923 Gd1873 2.606 . S
O1923 C1939 1.284 . S
O1924 Gd1872 2.324 . S
O1924 C1947 1.254 . S
O1925 Gd1873 2.429 . S
O1925 C1947 1.268 . S
O1926 Gd1873 2.545 . S
O1926 C1939 1.250 . S
O1927 Gd1873 2.412 . S
O1927 C1940 1.252 . S
C1928 O1917 1.284 . S
C1928 O1920 1.250 . S
C1929 H1898 0.929 . S
C1929 C1914 1.437 . S
C1929 C1930 1.317 . S
C1930 H1901 0.930 . S
C1930 C1906 1.431 . S
C1930 C1929 1.317 . S
C1931 Gd1872 2.828 . S
C1931 O1916 1.258 . S
C1931 O1921 1.252 . S
C1931 C1932 1.497 . S
C1932 C1931 1.497 . S
C1932 C1933 1.395 . S
C1932 C1934 1.380 . S
C1933 C1932 1.395 . S
C1933 C1936 1.398 . S
C1933 H1948 0.930 . S
C1934 C1932 1.380 . S
C1934 C1935 1.391 . S
C1934 H1949 0.930 . S
C1935 C1934 1.391 . S
C1935 C1937 1.387 . S
C1936 C1933 1.398 . S
C1936 C1937 1.380 . S
C1936 H1950 0.930 . S
C1937 C1935 1.387 . S
C1937 C1936 1.380 . S
C1937 H1951 0.930 . S
C1938 O1918 1.254 . S
C1938 O1919 1.268 . S
C1939 O1923 1.284 . S
C1939 O1926 1.250 . S
C1940 Gd1873 2.828 . S
C1940 O1922 1.258 . S
C1940 O1927 1.252 . S
C1940 C1941 1.497 . S
C1941 C1940 1.497 . S
C1941 C1942 1.395 . S
C1941 C1943 1.380 . S
C1942 C1941 1.395 . S
C1942 C1945 1.398 . S
C1942 H1952 0.930 . S
C1943 C1941 1.380 . S
C1943 C1944 1.391 . S
C1943 H1953 0.930 . S
C1944 C1943 1.391 . S
C1944 C1946 1.387 . S
C1945 C1942 1.398 . S
C1945 C1946 1.380 . S
C1945 H1954 0.930 . S
C1946 C1944 1.387 . S
C1946 C1945 1.380 . S
C1946 H1955 0.930 . S
C1947 O1924 1.254 . S
C1947 O1925 1.268 . S
H1948 C1933 0.930 . S
H1949 C1934 0.930 . S
H1950 C1936 0.930 . S
H1951 C1937 0.930 . S
H1952 C1942 0.930 . S
H1953 C1943 0.930 . S
H1954 C1945 0.930 . S
H1955 C1946 0.930 . S
Gd1956 N1987 2.661 . S
Gd1956 N1993 2.601 . S
Gd1956 O2000 2.545 . S
Gd1956 O2001 2.606 . S
Gd1956 O2003 2.429 . S
Gd1956 O2004 2.545 . S
Gd1956 O2005 2.412 . S
Gd1956 O2007 2.362 . S
Gd1956 O2008 2.324 . S
Gd1956 C2015 2.828 . S
Gd1957 N1966 2.661 . S
Gd1957 N1970 2.601 . S
Gd1957 O2001 2.362 . S
Gd1957 O2002 2.324 . S
Gd1957 O2006 2.545 . S
Gd1957 O2007 2.606 . S
Gd1957 O2009 2.429 . S
Gd1957 O2010 2.545 . S
Gd1957 O2011 2.412 . S
Gd1957 C2024 2.828 . S
C1958 C1961 1.417 . S
C1958 C1963 1.431 . S
C1958 C1964 1.412 . S
C1959 C1962 1.437 . S
C1959 C1963 1.317 . S
C1959 H1978 0.929 . S
C1960 C1961 1.426 . S
C1960 C1962 1.413 . S
C1960 N1970 1.359 . S
C1961 C1958 1.417 . S
C1961 C1960 1.426 . S
C1961 N1966 1.350 . S
C1962 C1959 1.437 . S
C1962 C1960 1.413 . S
C1962 C1972 1.391 . S
C1963 C1958 1.431 . S
C1963 C1959 1.317 . S
C1963 H1974 0.930 . S
C1964 C1958 1.412 . S
C1964 C1965 1.355 . S
C1964 H1976 0.930 . S
C1965 C1964 1.355 . S
C1965 C1967 1.402 . S
C1965 H1977 0.930 . S
N1966 Gd1957 2.661 . S
N1966 C1961 1.350 . S
N1966 C1967 1.307 . S
C1967 C1965 1.402 . S
C1967 N1966 1.307 . S
C1967 H1968 0.930 . S
H1968 C1967 0.930 . S
C1969 N1970 1.334 . S
C1969 C1971 1.394 . S
C1969 H1973 0.930 . S
N1970 Gd1957 2.601 . S
N1970 C1960 1.359 . S
N1970 C1969 1.334 . S
C1971 C1969 1.394 . S
C1971 C1972 1.359 . S
C1971 H1983 0.930 . S
C1972 C1962 1.391 . S
C1972 C1971 1.359 . S
C1972 H1984 0.929 . S
H1973 C1969 0.930 . S
H1974 C1963 0.930 . S
H1975 C1992 0.930 . S
H1976 C1964 0.930 . S
H1977 C1965 0.930 . S
H1978 C1959 0.929 . S
H1979 C1997 0.930 . S
H1980 C1988 0.930 . S
H1981 C1989 0.930 . S
H1982 C2013 0.929 . S
H1983 C1971 0.930 . S
H1984 C1972 0.929 . S
H1985 C2014 0.930 . S
H1986 C1995 0.930 . S
N1987 Gd1956 2.661 . S
N1987 C1991 1.350 . S
N1987 C1992 1.307 . S
C1988 H1980 0.930 . S
C1988 C1989 1.355 . S
C1988 C1990 1.412 . S
C1989 H1981 0.930 . S
C1989 C1988 1.355 . S
C1989 C1992 1.402 . S
C1990 C1988 1.412 . S
C1990 C1991 1.417 . S
C1990 C2014 1.431 . S
C1991 N1987 1.350 . S
C1991 C1990 1.417 . S
C1991 C1994 1.426 . S
C1992 H1975 0.930 . S
C1992 N1987 1.307 . S
C1992 C1989 1.402 . S
N1993 Gd1956 2.601 . S
N1993 C1994 1.359 . S
N1993 C1997 1.334 . S
C1994 C1991 1.426 . S
C1994 N1993 1.359 . S
C1994 C1998 1.413 . S
C1995 H1986 0.930 . S
C1995 C1996 1.359 . S
C1995 C1997 1.394 . S
C1996 C1995 1.359 . S
C1996 C1998 1.391 . S
C1996 H1999 0.929 . S
C1997 H1979 0.930 . S
C1997 N1993 1.334 . S
C1997 C1995 1.394 . S
C1998 C1994 1.413 . S
C1998 C1996 1.391 . S
C1998 C2013 1.437 . S
H1999 C1996 0.929 . S
O2000 Gd1956 2.545 . S
O2000 C2015 1.258 . S
O2001 Gd1956 2.606 . S
O2001 Gd1957 2.362 . S
O2001 C2012 1.284 . S
O2002 Gd1957 2.324 . S
O2002 C2022 1.254 . S
O2003 Gd1956 2.429 . S
O2003 C2022 1.268 . S
O2004 Gd1956 2.545 . S
O2004 C2012 1.250 . S
O2005 Gd1956 2.412 . S
O2005 C2015 1.252 . S
O2006 Gd1957 2.545 . S
O2006 C2024 1.258 . S
O2007 Gd1956 2.362 . S
O2007 Gd1957 2.606 . S
O2007 C2023 1.284 . S
O2008 Gd1956 2.324 . S
O2008 C2031 1.254 . S
O2009 Gd1957 2.429 . S
O2009 C2031 1.268 . S
O2010 Gd1957 2.545 . S
O2010 C2023 1.250 . S
O2011 Gd1957 2.412 . S
O2011 C2024 1.252 . S
C2012 O2001 1.284 . S
C2012 O2004 1.250 . S
C2013 H1982 0.929 . S
C2013 C1998 1.437 . S
C2013 C2014 1.317 . S
C2014 H1985 0.930 . S
C2014 C1990 1.431 . S
C2014 C2013 1.317 . S
C2015 Gd1956 2.828 . S
C2015 O2000 1.258 . S
C2015 O2005 1.252 . S
C2015 C2016 1.497 . S
C2016 C2015 1.497 . S
C2016 C2017 1.395 . S
C2016 C2018 1.380 . S
C2017 C2016 1.395 . S
C2017 C2020 1.398 . S
C2017 H2032 0.930 . S
C2018 C2016 1.380 . S
C2018 C2019 1.391 . S
C2018 H2033 0.930 . S
C2019 C2018 1.391 . S
C2019 C2021 1.387 . S
C2020 C2017 1.398 . S
C2020 C2021 1.380 . S
C2020 H2034 0.930 . S
C2021 C2019 1.387 . S
C2021 C2020 1.380 . S
C2021 H2035 0.930 . S
C2022 O2002 1.254 . S
C2022 O2003 1.268 . S
C2023 O2007 1.284 . S
C2023 O2010 1.250 . S
C2024 Gd1957 2.828 . S
C2024 O2006 1.258 . S
C2024 O2011 1.252 . S
C2024 C2025 1.497 . S
C2025 C2024 1.497 . S
C2025 C2026 1.395 . S
C2025 C2027 1.380 . S
C2026 C2025 1.395 . S
C2026 C2029 1.398 . S
C2026 H2036 0.930 . S
C2027 C2025 1.380 . S
C2027 C2028 1.391 . S
C2027 H2037 0.930 . S
C2028 C2027 1.391 . S
C2028 C2030 1.387 . S
C2029 C2026 1.398 . S
C2029 C2030 1.380 . S
C2029 H2038 0.930 . S
C2030 C2028 1.387 . S
C2030 C2029 1.380 . S
C2030 H2039 0.930 . S
C2031 O2008 1.254 . S
C2031 O2009 1.268 . S
H2032 C2017 0.930 . S
H2033 C2018 0.930 . S
H2034 C2020 0.930 . S
H2035 C2021 0.930 . S
H2036 C2026 0.930 . S
H2037 C2027 0.930 . S
H2038 C2029 0.930 . S
H2039 C2030 0.930 . S
Gd2040 N2071 2.661 . S
Gd2040 N2077 2.601 . S
Gd2040 O2084 2.545 . S
Gd2040 O2085 2.606 . S
Gd2040 O2087 2.429 . S
Gd2040 O2088 2.545 . S
Gd2040 O2089 2.412 . S
Gd2040 O2091 2.362 . S
Gd2040 O2092 2.324 . S
Gd2040 C2099 2.828 . S
Gd2041 N2050 2.661 . S
Gd2041 N2054 2.601 . S
Gd2041 O2085 2.362 . S
Gd2041 O2086 2.324 . S
Gd2041 O2090 2.545 . S
Gd2041 O2091 2.606 . S
Gd2041 O2093 2.429 . S
Gd2041 O2094 2.545 . S
Gd2041 O2095 2.412 . S
Gd2041 C2108 2.828 . S
C2042 C2045 1.417 . S
C2042 C2047 1.431 . S
C2042 C2048 1.412 . S
C2043 C2046 1.437 . S
C2043 C2047 1.317 . S
C2043 H2062 0.929 . S
C2044 C2045 1.426 . S
C2044 C2046 1.413 . S
C2044 N2054 1.359 . S
C2045 C2042 1.417 . S
C2045 C2044 1.426 . S
C2045 N2050 1.350 . S
C2046 C2043 1.437 . S
C2046 C2044 1.413 . S
C2046 C2056 1.391 . S
C2047 C2042 1.431 . S
C2047 C2043 1.317 . S
C2047 H2058 0.930 . S
C2048 C2042 1.412 . S
C2048 C2049 1.355 . S
C2048 H2060 0.930 . S
C2049 C2048 1.355 . S
C2049 C2051 1.402 . S
C2049 H2061 0.930 . S
N2050 Gd2041 2.661 . S
N2050 C2045 1.350 . S
N2050 C2051 1.307 . S
C2051 C2049 1.402 . S
C2051 N2050 1.307 . S
C2051 H2052 0.930 . S
H2052 C2051 0.930 . S
C2053 N2054 1.334 . S
C2053 C2055 1.394 . S
C2053 H2057 0.930 . S
N2054 Gd2041 2.601 . S
N2054 C2044 1.359 . S
N2054 C2053 1.334 . S
C2055 C2053 1.394 . S
C2055 C2056 1.359 . S
C2055 H2067 0.930 . S
C2056 C2046 1.391 . S
C2056 C2055 1.359 . S
C2056 H2068 0.929 . S
H2057 C2053 0.930 . S
H2058 C2047 0.930 . S
H2059 C2076 0.930 . S
H2060 C2048 0.930 . S
H2061 C2049 0.930 . S
H2062 C2043 0.929 . S
H2063 C2081 0.930 . S
H2064 C2072 0.930 . S
H2065 C2073 0.930 . S
H2066 C2097 0.929 . S
H2067 C2055 0.930 . S
H2068 C2056 0.929 . S
H2069 C2098 0.930 . S
H2070 C2079 0.930 . S
N2071 Gd2040 2.661 . S
N2071 C2075 1.350 . S
N2071 C2076 1.307 . S
C2072 H2064 0.930 . S
C2072 C2073 1.355 . S
C2072 C2074 1.412 . S
C2073 H2065 0.930 . S
C2073 C2072 1.355 . S
C2073 C2076 1.402 . S
C2074 C2072 1.412 . S
C2074 C2075 1.417 . S
C2074 C2098 1.431 . S
C2075 N2071 1.350 . S
C2075 C2074 1.417 . S
C2075 C2078 1.426 . S
C2076 H2059 0.930 . S
C2076 N2071 1.307 . S
C2076 C2073 1.402 . S
N2077 Gd2040 2.601 . S
N2077 C2078 1.359 . S
N2077 C2081 1.334 . S
C2078 C2075 1.426 . S
C2078 N2077 1.359 . S
C2078 C2082 1.413 . S
C2079 H2070 0.930 . S
C2079 C2080 1.359 . S
C2079 C2081 1.394 . S
C2080 C2079 1.359 . S
C2080 C2082 1.391 . S
C2080 H2083 0.929 . S
C2081 H2063 0.930 . S
C2081 N2077 1.334 . S
C2081 C2079 1.394 . S
C2082 C2078 1.413 . S
C2082 C2080 1.391 . S
C2082 C2097 1.437 . S
H2083 C2080 0.929 . S
O2084 Gd2040 2.545 . S
O2084 C2099 1.258 . S
O2085 Gd2040 2.606 . S
O2085 Gd2041 2.362 . S
O2085 C2096 1.284 . S
O2086 Gd2041 2.324 . S
O2086 C2106 1.254 . S
O2087 Gd2040 2.429 . S
O2087 C2106 1.268 . S
O2088 Gd2040 2.545 . S
O2088 C2096 1.250 . S
O2089 Gd2040 2.412 . S
O2089 C2099 1.252 . S
O2090 Gd2041 2.545 . S
O2090 C2108 1.258 . S
O2091 Gd2040 2.362 . S
O2091 Gd2041 2.606 . S
O2091 C2107 1.284 . S
O2092 Gd2040 2.324 . S
O2092 C2115 1.254 . S
O2093 Gd2041 2.429 . S
O2093 C2115 1.268 . S
O2094 Gd2041 2.545 . S
O2094 C2107 1.250 . S
O2095 Gd2041 2.412 . S
O2095 C2108 1.252 . S
C2096 O2085 1.284 . S
C2096 O2088 1.250 . S
C2097 H2066 0.929 . S
C2097 C2082 1.437 . S
C2097 C2098 1.317 . S
C2098 H2069 0.930 . S
C2098 C2074 1.431 . S
C2098 C2097 1.317 . S
C2099 Gd2040 2.828 . S
C2099 O2084 1.258 . S
C2099 O2089 1.252 . S
C2099 C2100 1.497 . S
C2100 C2099 1.497 . S
C2100 C2101 1.395 . S
C2100 C2102 1.380 . S
C2101 C2100 1.395 . S
C2101 C2104 1.398 . S
C2101 H2116 0.930 . S
C2102 C2100 1.380 . S
C2102 C2103 1.391 . S
C2102 H2117 0.930 . S
C2103 C2102 1.391 . S
C2103 C2105 1.387 . S
C2104 C2101 1.398 . S
C2104 C2105 1.380 . S
C2104 H2118 0.930 . S
C2105 C2103 1.387 . S
C2105 C2104 1.380 . S
C2105 H2119 0.930 . S
C2106 O2086 1.254 . S
C2106 O2087 1.268 . S
C2107 O2091 1.284 . S
C2107 O2094 1.250 . S
C2108 Gd2041 2.828 . S
C2108 O2090 1.258 . S
C2108 O2095 1.252 . S
C2108 C2109 1.497 . S
C2109 C2108 1.497 . S
C2109 C2110 1.395 . S
C2109 C2111 1.380 . S
C2110 C2109 1.395 . S
C2110 C2113 1.398 . S
C2110 H2120 0.930 . S
C2111 C2109 1.380 . S
C2111 C2112 1.391 . S
C2111 H2121 0.930 . S
C2112 C2111 1.391 . S
C2112 C2114 1.387 . S
C2113 C2110 1.398 . S
C2113 C2114 1.380 . S
C2113 H2122 0.930 . S
C2114 C2112 1.387 . S
C2114 C2113 1.380 . S
C2114 H2123 0.930 . S
C2115 O2092 1.254 . S
C2115 O2093 1.268 . S
H2116 C2101 0.930 . S
H2117 C2102 0.930 . S
H2118 C2104 0.930 . S
H2119 C2105 0.930 . S
H2120 C2110 0.930 . S
H2121 C2111 0.930 . S
H2122 C2113 0.930 . S
H2123 C2114 0.930 . S
Gd2124 N2155 2.661 . S
Gd2124 N2161 2.601 . S
Gd2124 O2168 2.545 . S
Gd2124 O2169 2.606 . S
Gd2124 O2171 2.429 . S
Gd2124 O2172 2.545 . S
Gd2124 O2173 2.412 1_455 S
Gd2124 O2175 2.362 . S
Gd2124 O2176 2.324 1_554 S
Gd2124 C2183 2.828 1_455 S
Gd2125 N2134 2.661 . S
Gd2125 N2138 2.601 1_554 S
Gd2125 O2169 2.362 . S
Gd2125 O2170 2.324 . S
Gd2125 O2174 2.545 1_554 S
Gd2125 O2175 2.606 . S
Gd2125 O2177 2.429 1_554 S
Gd2125 O2178 2.545 . S
Gd2125 O2179 2.412 . S
Gd2125 C2192 2.828 1_554 S
C2126 C2129 1.417 . S
C2126 C2131 1.431 . S
C2126 C2132 1.412 . S
C2127 C2130 1.437 . S
C2127 C2131 1.317 1_556 S
C2127 H2146 0.929 . S
C2128 C2129 1.426 1_556 S
C2128 C2130 1.413 . S
C2128 N2138 1.359 . S
C2129 C2126 1.417 . S
C2129 C2128 1.426 1_554 S
C2129 N2134 1.350 . S
C2130 C2127 1.437 . S
C2130 C2128 1.413 . S
C2130 C2140 1.391 . S
C2131 C2126 1.431 . S
C2131 C2127 1.317 1_554 S
C2131 H2142 0.930 . S
C2132 C2126 1.412 . S
C2132 C2133 1.355 . S
C2132 H2144 0.930 . S
C2133 C2132 1.355 . S
C2133 C2135 1.402 . S
C2133 H2145 0.930 . S
N2134 Gd2125 2.661 . S
N2134 C2129 1.350 . S
N2134 C2135 1.307 . S
C2135 C2133 1.402 . S
C2135 N2134 1.307 . S
C2135 H2136 0.930 . S
H2136 C2135 0.930 . S
C2137 N2138 1.334 . S
C2137 C2139 1.394 . S
C2137 H2141 0.930 . S
N2138 Gd2125 2.601 1_556 S
N2138 C2128 1.359 . S
N2138 C2137 1.334 . S
C2139 C2137 1.394 . S
C2139 C2140 1.359 . S
C2139 H2151 0.930 . S
C2140 C2130 1.391 . S
C2140 C2139 1.359 . S
C2140 H2152 0.929 . S
H2141 C2137 0.930 . S
H2142 C2131 0.930 . S
H2143 C2160 0.930 . S
H2144 C2132 0.930 . S
H2145 C2133 0.930 . S
H2146 C2127 0.929 . S
H2147 C2165 0.930 . S
H2148 C2156 0.930 . S
H2149 C2157 0.930 . S
H2150 C2181 0.929 . S
H2151 C2139 0.930 . S
H2152 C2140 0.929 . S
H2153 C2182 0.930 . S
H2154 C2163 0.930 . S
N2155 Gd2124 2.661 . S
N2155 C2159 1.350 1_455 S
N2155 C2160 1.307 1_554 S
C2156 H2148 0.930 . S
C2156 C2157 1.355 . S
C2156 C2158 1.412 1_556 S
C2157 H2149 0.930 . S
C2157 C2156 1.355 . S
C2157 C2160 1.402 1_655 S
C2158 C2156 1.412 1_554 S
C2158 C2159 1.417 . S
C2158 C2182 1.431 . S
C2159 N2155 1.350 1_655 S
C2159 C2158 1.417 . S
C2159 C2162 1.426 1_655 S
C2160 H2143 0.930 . S
C2160 N2155 1.307 1_556 S
C2160 C2157 1.402 1_455 S
N2161 Gd2124 2.601 . S
N2161 C2162 1.361 . S
N2161 C2165 1.334 . S
C2162 C2159 1.426 1_455 S
C2162 N2161 1.361 . S
C2162 C2166 1.412 1_455 S
C2163 H2154 0.930 . S
C2163 C2164 1.359 1_455 S
C2163 C2165 1.394 . S
C2164 C2163 1.359 1_655 S
C2164 C2166 1.391 . S
C2164 H2167 0.929 . S
C2165 H2147 0.930 . S
C2165 N2161 1.334 . S
C2165 C2163 1.394 . S
C2166 C2162 1.412 1_655 S
C2166 C2164 1.391 . S
C2166 C2181 1.437 . S
H2167 C2164 0.929 . S
O2168 Gd2124 2.545 . S
O2168 C2183 1.258 1_455 S
O2169 Gd2124 2.606 . S
O2169 Gd2125 2.362 . S
O2169 C2180 1.284 . S
O2170 Gd2125 2.324 . S
O2170 C2190 1.254 . S
O2171 Gd2124 2.429 . S
O2171 C2190 1.268 . S
O2172 Gd2124 2.545 . S
O2172 C2180 1.250 . S
O2173 Gd2124 2.412 1_655 S
O2173 C2183 1.252 . S
O2174 Gd2125 2.545 1_556 S
O2174 C2192 1.258 . S
O2175 Gd2124 2.362 . S
O2175 Gd2125 2.606 . S
O2175 C2191 1.284 . S
O2176 Gd2124 2.324 1_556 S
O2176 C2199 1.254 . S
O2177 Gd2125 2.429 1_556 S
O2177 C2199 1.268 . S
O2178 Gd2125 2.545 . S
O2178 C2191 1.250 . S
O2179 Gd2125 2.412 . S
O2179 C2192 1.252 1_554 S
C2180 O2169 1.284 . S
C2180 O2172 1.250 . S
C2181 H2150 0.929 . S
C2181 C2166 1.437 . S
C2181 C2182 1.317 . S
C2182 H2153 0.930 . S
C2182 C2158 1.431 . S
C2182 C2181 1.317 . S
C2183 Gd2124 2.828 1_655 S
C2183 O2168 1.258 1_655 S
C2183 O2173 1.252 . S
C2183 C2184 1.497 . S
C2184 C2183 1.497 . S
C2184 C2185 1.395 . S
C2184 C2186 1.380 . S
C2185 C2184 1.395 . S
C2185 C2188 1.398 . S
C2185 H2200 0.930 . S
C2186 C2184 1.380 . S
C2186 C2187 1.391 . S
C2186 H2201 0.930 . S
C2187 C2186 1.391 . S
C2187 C2189 1.387 . S
C2188 C2185 1.398 . S
C2188 C2189 1.380 . S
C2188 H2202 0.930 . S
C2189 C2187 1.387 . S
C2189 C2188 1.380 . S
C2189 H2203 0.930 . S
C2190 O2170 1.254 . S
C2190 O2171 1.268 . S
C2191 O2175 1.284 . S
C2191 O2178 1.250 . S
C2192 Gd2125 2.828 1_556 S
C2192 O2174 1.258 . S
C2192 O2179 1.252 1_556 S
C2192 C2193 1.497 . S
C2193 C2192 1.497 . S
C2193 C2194 1.395 . S
C2193 C2195 1.380 1_556 S
C2194 C2193 1.395 . S
C2194 C2197 1.398 . S
C2194 H2204 0.930 . S
C2195 C2193 1.380 1_554 S
C2195 C2196 1.391 . S
C2195 H2205 0.930 . S
C2196 C2195 1.391 . S
C2196 C2198 1.387 1_554 S
C2197 C2194 1.398 . S
C2197 C2198 1.380 . S
C2197 H2206 0.930 . S
C2198 C2196 1.387 1_556 S
C2198 C2197 1.380 . S
C2198 H2207 0.930 . S
C2199 O2176 1.254 . S
C2199 O2177 1.268 . S
H2200 C2185 0.930 . S
H2201 C2186 0.930 . S
H2202 C2188 0.930 . S
H2203 C2189 0.930 . S
H2204 C2194 0.930 . S
H2205 C2195 0.930 . S
H2206 C2197 0.930 . S
H2207 C2198 0.930 . S
H2208 C2226 0.951 . S
H2209 C2228 0.951 . S
H2210 C2230 0.950 . S
H2211 C2231 0.950 . S
H2212 C2233 0.950 . S
H2213 C2236 0.968 . S
H2214 C2237 0.950 . S
H2215 C2239 0.950 . S
H2216 C2240 0.950 . S
H2217 C2241 0.951 . S
H2218 C2243 0.951 . S
H2219 C2245 0.950 . S
H2220 C2246 0.950 . S
H2221 C2248 0.955 1_554 S
H2222 C2251 0.950 1_655 S
H2223 C2252 0.950 . S
H2224 C2254 0.950 . S
H2225 C2255 0.950 . S
C2226 H2208 0.951 . S
C2226 C2227 1.366 . S
C2226 C2228 1.388 . S
C2227 C2226 1.366 . S
C2227 C2231 1.385 . S
C2228 H2209 0.951 . S
C2228 C2226 1.388 . S
C2228 C2229 1.366 . S
C2229 C2228 1.366 . S
C2229 C2230 1.414 . S
C2229 C2232 1.499 . S
C2230 H2210 0.950 . S
C2230 C2229 1.414 . S
C2230 C2231 1.374 . S
C2231 H2211 0.950 . S
C2231 C2227 1.385 . S
C2231 C2230 1.374 . S
C2232 C2229 1.499 . S
C2232 C2233 1.373 . S
C2232 C2234 1.389 . S
C2233 H2212 0.950 . S
C2233 C2232 1.373 . S
C2233 C2249 1.377 . S
C2234 C2232 1.389 . S
C2234 C2235 1.524 1_556 S
C2234 C2248 1.374 . S
C2235 C2234 1.524 1_554 S
C2235 C2236 1.386 1_554 S
C2235 C2240 1.363 . S
C2236 H2213 0.968 . S
C2236 C2235 1.386 1_556 S
C2236 C2237 1.326 1_556 S
C2237 H2214 0.950 . S
C2237 C2236 1.326 1_554 S
C2237 C2238 1.287 . S
C2238 C2237 1.287 . S
C2238 C2239 1.524 . S
C2238 H2257 0.913 . S
C2239 H2215 0.950 . S
C2239 C2238 1.524 . S
C2239 C2240 1.415 . S
C2240 H2216 0.950 . S
C2240 C2235 1.363 . S
C2240 C2239 1.415 . S
C2241 H2217 0.951 . S
C2241 C2242 1.366 1_556 S
C2241 C2243 1.388 . S
C2242 C2241 1.366 1_554 S
C2242 C2246 1.385 . S
C2243 H2218 0.951 . S
C2243 C2241 1.388 . S
C2243 C2244 1.366 . S
C2244 C2243 1.366 . S
C2244 C2245 1.414 1_556 S
C2244 C2247 1.499 . S
C2245 H2219 0.950 . S
C2245 C2244 1.414 1_554 S
C2245 C2246 1.374 . S
C2246 H2220 0.950 . S
C2246 C2242 1.385 . S
C2246 C2245 1.374 . S
C2247 C2244 1.499 . S
C2247 C2248 1.371 . S
C2247 C2249 1.389 . S
C2248 H2221 0.955 1_556 S
C2248 C2234 1.374 . S
C2248 C2247 1.371 . S
C2249 C2233 1.377 . S
C2249 C2247 1.389 . S
C2249 C2250 1.524 . S
C2250 C2249 1.524 . S
C2250 C2251 1.397 . S
C2250 C2255 1.363 . S
C2251 H2222 0.950 1_455 S
C2251 C2250 1.397 . S
C2251 C2252 1.334 1_455 S
C2252 H2223 0.950 . S
C2252 C2251 1.334 1_655 S
C2252 C2253 1.287 . S
C2253 C2252 1.287 . S
C2253 C2254 1.524 1_655 S
C2253 H2256 0.999 . S
C2254 H2224 0.950 . S
C2254 C2253 1.524 1_455 S
C2254 C2255 1.415 . S
C2255 H2225 0.950 . S
C2255 C2250 1.363 . S
C2255 C2254 1.415 . S
H2256 C2253 0.999 . S
H2257 C2238 0.913 . S
H2258 C2276 0.951 . S
H2259 C2278 0.951 . S
H2260 C2280 0.950 . S
H2261 C2281 0.950 . S
H2262 C2283 0.950 . S
H2263 C2286 0.950 . S
H2264 C2287 0.950 . S
H2265 C2289 0.950 . S
H2266 C2290 0.950 . S
H2267 C2291 0.951 . S
H2268 C2293 0.951 . S
H2269 C2295 0.950 . S
H2270 C2296 0.950 . S
H2271 C2298 0.950 . S
H2272 C2301 0.950 . S
H2273 C2302 0.950 . S
H2274 C2304 0.950 . S
H2275 C2305 0.950 . S
C2276 H2258 0.951 . S
C2276 C2277 1.366 . S
C2276 C2278 1.388 . S
C2277 C2276 1.366 . S
C2277 C2281 1.385 . S
C2278 H2259 0.951 . S
C2278 C2276 1.388 . S
C2278 C2279 1.366 . S
C2279 C2278 1.366 . S
C2279 C2280 1.414 . S
C2279 C2282 1.499 . S
C2280 H2260 0.950 . S
C2280 C2279 1.414 . S
C2280 C2281 1.374 . S
C2281 H2261 0.950 . S
C2281 C2277 1.385 . S
C2281 C2280 1.374 . S
C2282 C2279 1.499 . S
C2282 C2283 1.373 . S
C2282 C2284 1.389 . S
C2283 H2262 0.950 . S
C2283 C2282 1.373 . S
C2283 C2299 1.377 . S
C2284 C2282 1.389 . S
C2284 C2285 1.524 . S
C2284 C2298 1.377 . S
C2285 C2284 1.524 . S
C2285 C2286 1.397 . S
C2285 C2290 1.363 . S
C2286 H2263 0.950 . S
C2286 C2285 1.397 . S
C2286 C2287 1.334 . S
C2287 H2264 0.950 . S
C2287 C2286 1.334 . S
C2287 C2288 1.287 . S
C2288 C2287 1.287 . S
C2288 C2289 1.524 . S
C2288 H2307 0.913 . S
C2289 H2265 0.950 . S
C2289 C2288 1.524 . S
C2289 C2290 1.415 . S
C2290 H2266 0.950 . S
C2290 C2285 1.363 . S
C2290 C2289 1.415 . S
C2291 H2267 0.951 . S
C2291 C2292 1.366 . S
C2291 C2293 1.388 . S
C2292 C2291 1.366 . S
C2292 C2296 1.385 . S
C2293 H2268 0.951 . S
C2293 C2291 1.388 . S
C2293 C2294 1.366 . S
C2294 C2293 1.366 . S
C2294 C2295 1.414 . S
C2294 C2297 1.499 . S
C2295 H2269 0.950 . S
C2295 C2294 1.414 . S
C2295 C2296 1.374 . S
C2296 H2270 0.950 . S
C2296 C2292 1.385 . S
C2296 C2295 1.374 . S
C2297 C2294 1.499 . S
C2297 C2298 1.373 . S
C2297 C2299 1.389 . S
C2298 H2271 0.950 . S
C2298 C2284 1.377 . S
C2298 C2297 1.373 . S
C2299 C2283 1.377 . S
C2299 C2297 1.389 . S
C2299 C2300 1.524 . S
C2300 C2299 1.524 . S
C2300 C2301 1.397 . S
C2300 C2305 1.363 . S
C2301 H2272 0.950 . S
C2301 C2300 1.397 . S
C2301 C2302 1.334 . S
C2302 H2273 0.950 . S
C2302 C2301 1.334 . S
C2302 C2303 1.287 . S
C2303 C2302 1.287 . S
C2303 C2304 1.524 . S
C2303 H2306 0.999 . S
C2304 H2274 0.950 . S
C2304 C2303 1.524 . S
C2304 C2305 1.415 . S
C2305 H2275 0.950 . S
C2305 C2300 1.363 . S
C2305 C2304 1.415 . S
H2306 C2303 0.999 . S
H2307 C2288 0.913 . S
H2308 C2326 0.951 . S
H2309 C2328 0.951 . S
H2310 C2330 0.950 . S
H2311 C2331 0.950 . S
H2312 C2333 0.950 . S
H2313 C2336 0.950 . S
H2314 C2337 0.950 . S
H2315 C2339 0.950 . S
H2316 C2340 0.950 . S
H2317 C2341 0.951 . S
H2318 C2343 0.951 . S
H2319 C2345 0.950 . S
H2320 C2346 0.950 . S
H2321 C2348 0.950 . S
H2322 C2351 0.950 . S
H2323 C2352 0.950 . S
H2324 C2354 0.950 . S
H2325 C2355 0.950 . S
C2326 H2308 0.951 . S
C2326 C2327 1.366 . S
C2326 C2328 1.388 . S
C2327 C2326 1.366 . S
C2327 C2331 1.385 . S
C2328 H2309 0.951 . S
C2328 C2326 1.388 . S
C2328 C2329 1.366 . S
C2329 C2328 1.366 . S
C2329 C2330 1.414 . S
C2329 C2332 1.499 . S
C2330 H2310 0.950 . S
C2330 C2329 1.414 . S
C2330 C2331 1.374 . S
C2331 H2311 0.950 . S
C2331 C2327 1.385 . S
C2331 C2330 1.374 . S
C2332 C2329 1.499 . S
C2332 C2333 1.373 . S
C2332 C2334 1.389 . S
C2333 H2312 0.950 . S
C2333 C2332 1.373 . S
C2333 C2349 1.377 . S
C2334 C2332 1.389 . S
C2334 C2335 1.524 . S
C2334 C2348 1.377 . S
C2335 C2334 1.524 . S
C2335 C2336 1.397 . S
C2335 C2340 1.363 . S
C2336 H2313 0.950 . S
C2336 C2335 1.397 . S
C2336 C2337 1.334 . S
C2337 H2314 0.950 . S
C2337 C2336 1.334 . S
C2337 C2338 1.287 . S
C2338 C2337 1.287 . S
C2338 C2339 1.524 . S
C2338 H2357 0.913 . S
C2339 H2315 0.950 . S
C2339 C2338 1.524 . S
C2339 C2340 1.415 . S
C2340 H2316 0.950 . S
C2340 C2335 1.363 . S
C2340 C2339 1.415 . S
C2341 H2317 0.951 . S
C2341 C2342 1.366 . S
C2341 C2343 1.388 . S
C2342 C2341 1.366 . S
C2342 C2346 1.385 . S
C2343 H2318 0.951 . S
C2343 C2341 1.388 . S
C2343 C2344 1.366 . S
C2344 C2343 1.366 . S
C2344 C2345 1.414 . S
C2344 C2347 1.499 . S
C2345 H2319 0.950 . S
C2345 C2344 1.414 . S
C2345 C2346 1.374 . S
C2346 H2320 0.950 . S
C2346 C2342 1.385 . S
C2346 C2345 1.374 . S
C2347 C2344 1.499 . S
C2347 C2348 1.373 . S
C2347 C2349 1.389 . S
C2348 H2321 0.950 . S
C2348 C2334 1.377 . S
C2348 C2347 1.373 . S
C2349 C2333 1.377 . S
C2349 C2347 1.389 . S
C2349 C2350 1.524 . S
C2350 C2349 1.524 . S
C2350 C2351 1.397 . S
C2350 C2355 1.363 . S
C2351 H2322 0.950 . S
C2351 C2350 1.397 . S
C2351 C2352 1.334 . S
C2352 H2323 0.950 . S
C2352 C2351 1.334 . S
C2352 C2353 1.287 . S
C2353 C2352 1.287 . S
C2353 C2354 1.524 . S
C2353 H2356 0.999 . S
C2354 H2324 0.950 . S
C2354 C2353 1.524 . S
C2354 C2355 1.415 . S
C2355 H2325 0.950 . S
C2355 C2350 1.363 . S
C2355 C2354 1.415 . S
H2356 C2353 0.999 . S
H2357 C2338 0.913 . S
H2358 C2376 0.951 . S
H2359 C2378 0.951 . S
H2360 C2380 0.950 . S
H2361 C2381 0.950 . S
H2362 C2383 0.950 . S
H2363 C2386 0.950 . S
H2364 C2387 0.950 . S
H2365 C2389 0.950 . S
H2366 C2390 0.950 . S
H2367 C2391 0.951 . S
H2368 C2393 0.951 . S
H2369 C2395 0.950 . S
H2370 C2396 0.950 . S
H2371 C2398 0.950 . S
H2372 C2401 0.950 . S
H2373 C2402 0.950 . S
H2374 C2404 0.950 . S
H2375 C2405 0.950 . S
C2376 H2358 0.951 . S
C2376 C2377 1.366 . S
C2376 C2378 1.388 . S
C2377 C2376 1.366 . S
C2377 C2381 1.385 . S
C2378 H2359 0.951 . S
C2378 C2376 1.388 . S
C2378 C2379 1.366 . S
C2379 C2378 1.366 . S
C2379 C2380 1.414 . S
C2379 C2382 1.499 . S
C2380 H2360 0.950 . S
C2380 C2379 1.414 . S
C2380 C2381 1.374 . S
C2381 H2361 0.950 . S
C2381 C2377 1.385 . S
C2381 C2380 1.374 . S
C2382 C2379 1.499 . S
C2382 C2383 1.373 . S
C2382 C2384 1.389 . S
C2383 H2362 0.950 . S
C2383 C2382 1.373 . S
C2383 C2399 1.377 . S
C2384 C2382 1.389 . S
C2384 C2385 1.524 . S
C2384 C2398 1.377 . S
C2385 C2384 1.524 . S
C2385 C2386 1.397 . S
C2385 C2390 1.363 . S
C2386 H2363 0.950 . S
C2386 C2385 1.397 . S
C2386 C2387 1.334 . S
C2387 H2364 0.950 . S
C2387 C2386 1.334 . S
C2387 C2388 1.287 . S
C2388 C2387 1.287 . S
C2388 C2389 1.524 . S
C2388 H2407 0.913 . S
C2389 H2365 0.950 . S
C2389 C2388 1.524 . S
C2389 C2390 1.415 . S
C2390 H2366 0.950 . S
C2390 C2385 1.363 . S
C2390 C2389 1.415 . S
C2391 H2367 0.951 . S
C2391 C2392 1.366 . S
C2391 C2393 1.388 . S
C2392 C2391 1.366 . S
C2392 C2396 1.385 . S
C2393 H2368 0.951 . S
C2393 C2391 1.388 . S
C2393 C2394 1.366 . S
C2394 C2393 1.366 . S
C2394 C2395 1.414 . S
C2394 C2397 1.499 . S
C2395 H2369 0.950 . S
C2395 C2394 1.414 . S
C2395 C2396 1.374 . S
C2396 H2370 0.950 . S
C2396 C2392 1.385 . S
C2396 C2395 1.374 . S
C2397 C2394 1.499 . S
C2397 C2398 1.373 . S
C2397 C2399 1.389 . S
C2398 H2371 0.950 . S
C2398 C2384 1.377 . S
C2398 C2397 1.373 . S
C2399 C2383 1.377 . S
C2399 C2397 1.389 . S
C2399 C2400 1.524 . S
C2400 C2399 1.524 . S
C2400 C2401 1.397 . S
C2400 C2405 1.363 . S
C2401 H2372 0.950 . S
C2401 C2400 1.397 . S
C2401 C2402 1.334 . S
C2402 H2373 0.950 . S
C2402 C2401 1.334 . S
C2402 C2403 1.287 . S
C2403 C2402 1.287 . S
C2403 C2404 1.524 . S
C2403 H2406 0.999 . S
C2404 H2374 0.950 . S
C2404 C2403 1.524 . S
C2404 C2405 1.415 . S
C2405 H2375 0.950 . S
C2405 C2400 1.363 . S
C2405 C2404 1.415 . S
H2406 C2403 0.999 . S
H2407 C2388 0.913 . S
H2408 C2426 0.951 . S
H2409 C2428 0.951 . S
H2410 C2430 0.950 . S
H2411 C2431 0.950 . S
H2412 C2433 0.950 . S
H2413 C2436 0.950 1_655 S
H2414 C2437 0.950 1_655 S
H2415 C2439 0.950 . S
H2416 C2440 0.950 . S
H2417 C2441 0.951 . S
H2418 C2443 0.951 . S
H2419 C2445 0.950 . S
H2420 C2446 0.950 . S
H2421 C2448 0.950 . S
H2422 C2451 0.950 . S
H2423 C2452 0.950 . S
H2424 C2454 0.936 1_655 S
H2425 C2455 0.950 1_655 S
C2426 H2408 0.951 . S
C2426 C2427 1.366 . S
C2426 C2428 1.388 . S
C2427 C2426 1.366 . S
C2427 C2431 1.385 1_455 S
C2428 H2409 0.951 . S
C2428 C2426 1.388 . S
C2428 C2429 1.366 . S
C2429 C2428 1.366 . S
C2429 C2430 1.414 1_455 S
C2429 C2432 1.499 . S
C2430 H2410 0.950 . S
C2430 C2429 1.414 1_655 S
C2430 C2431 1.374 . S
C2431 H2411 0.950 . S
C2431 C2427 1.385 1_655 S
C2431 C2430 1.374 . S
C2432 C2429 1.499 . S
C2432 C2433 1.373 . S
C2432 C2434 1.389 . S
C2433 H2412 0.950 . S
C2433 C2432 1.373 . S
C2433 C2449 1.377 . S
C2434 C2432 1.389 . S
C2434 C2435 1.524 . S
C2434 C2448 1.377 . S
C2435 C2434 1.524 . S
C2435 C2436 1.397 . S
C2435 C2440 1.363 . S
C2436 H2413 0.950 1_455 S
C2436 C2435 1.397 . S
C2436 C2437 1.334 . S
C2437 H2414 0.950 1_455 S
C2437 C2436 1.334 . S
C2437 C2438 1.287 . S
C2438 C2437 1.287 . S
C2438 C2439 1.524 . S
C2438 H2457 0.913 . S
C2439 H2415 0.950 . S
C2439 C2438 1.524 . S
C2439 C2440 1.415 . S
C2440 H2416 0.950 . S
C2440 C2435 1.363 . S
C2440 C2439 1.415 . S
C2441 H2417 0.951 . S
C2441 C2442 1.366 . S
C2441 C2443 1.388 . S
C2442 C2441 1.366 . S
C2442 C2446 1.385 . S
C2443 H2418 0.951 . S
C2443 C2441 1.388 . S
C2443 C2444 1.366 . S
C2444 C2443 1.366 . S
C2444 C2445 1.414 . S
C2444 C2447 1.499 . S
C2445 H2419 0.950 . S
C2445 C2444 1.414 . S
C2445 C2446 1.374 . S
C2446 H2420 0.950 . S
C2446 C2442 1.385 . S
C2446 C2445 1.374 . S
C2447 C2444 1.499 . S
C2447 C2448 1.373 . S
C2447 C2449 1.389 . S
C2448 H2421 0.950 . S
C2448 C2434 1.377 . S
C2448 C2447 1.373 . S
C2449 C2433 1.377 . S
C2449 C2447 1.389 . S
C2449 C2450 1.524 . S
C2450 C2449 1.524 . S
C2450 C2451 1.397 . S
C2450 C2455 1.363 . S
C2451 H2422 0.950 . S
C2451 C2450 1.397 . S
C2451 C2452 1.334 . S
C2452 H2423 0.950 . S
C2452 C2451 1.334 . S
C2452 C2453 1.287 . S
C2453 C2452 1.287 . S
C2453 C2454 1.524 . S
C2453 H2456 0.999 . S
C2454 H2424 0.936 1_455 S
C2454 C2453 1.524 . S
C2454 C2455 1.415 . S
C2455 H2425 0.950 1_455 S
C2455 C2450 1.363 . S
C2455 C2454 1.415 . S
H2456 C2453 0.999 . S
H2457 C2438 0.913 . S
H2458 C2476 0.951 . S
H2459 C2478 0.951 . S
H2460 C2480 0.950 . S
H2461 C2481 0.950 . S
H2462 C2483 0.950 . S
H2463 C2486 0.950 . S
H2464 C2487 0.950 . S
H2465 C2489 0.950 . S
H2466 C2490 0.950 . S
H2467 C2491 0.951 . S
H2468 C2493 0.951 . S
H2469 C2495 0.950 . S
H2470 C2496 0.950 . S
H2471 C2498 0.950 . S
H2472 C2501 0.950 . S
H2473 C2502 0.950 . S
H2474 C2504 0.950 . S
H2475 C2505 0.950 . S
C2476 H2458 0.951 . S
C2476 C2477 1.366 . S
C2476 C2478 1.388 . S
C2477 C2476 1.366 . S
C2477 C2481 1.385 . S
C2478 H2459 0.951 . S
C2478 C2476 1.388 . S
C2478 C2479 1.366 . S
C2479 C2478 1.366 . S
C2479 C2480 1.414 . S
C2479 C2482 1.499 . S
C2480 H2460 0.950 . S
C2480 C2479 1.414 . S
C2480 C2481 1.374 . S
C2481 H2461 0.950 . S
C2481 C2477 1.385 . S
C2481 C2480 1.374 . S
C2482 C2479 1.499 . S
C2482 C2483 1.373 . S
C2482 C2484 1.389 . S
C2483 H2462 0.950 . S
C2483 C2482 1.373 . S
C2483 C2499 1.377 . S
C2484 C2482 1.389 . S
C2484 C2485 1.524 . S
C2484 C2498 1.377 . S
C2485 C2484 1.524 . S
C2485 C2486 1.397 . S
C2485 C2490 1.363 . S
C2486 H2463 0.950 . S
C2486 C2485 1.397 . S
C2486 C2487 1.334 . S
C2487 H2464 0.950 . S
C2487 C2486 1.334 . S
C2487 C2488 1.287 . S
C2488 C2487 1.287 . S
C2488 C2489 1.524 . S
C2488 H2507 0.913 . S
C2489 H2465 0.950 . S
C2489 C2488 1.524 . S
C2489 C2490 1.415 . S
C2490 H2466 0.950 . S
C2490 C2485 1.363 . S
C2490 C2489 1.415 . S
C2491 H2467 0.951 . S
C2491 C2492 1.366 . S
C2491 C2493 1.388 . S
C2492 C2491 1.366 . S
C2492 C2496 1.385 . S
C2493 H2468 0.951 . S
C2493 C2491 1.388 . S
C2493 C2494 1.366 . S
C2494 C2493 1.366 . S
C2494 C2495 1.414 . S
C2494 C2497 1.499 . S
C2495 H2469 0.950 . S
C2495 C2494 1.414 . S
C2495 C2496 1.374 . S
C2496 H2470 0.950 . S
C2496 C2492 1.385 . S
C2496 C2495 1.374 . S
C2497 C2494 1.499 . S
C2497 C2498 1.373 . S
C2497 C2499 1.389 . S
C2498 H2471 0.950 . S
C2498 C2484 1.377 . S
C2498 C2497 1.373 . S
C2499 C2483 1.377 . S
C2499 C2497 1.389 . S
C2499 C2500 1.524 . S
C2500 C2499 1.524 . S
C2500 C2501 1.397 . S
C2500 C2505 1.363 . S
C2501 H2472 0.950 . S
C2501 C2500 1.397 . S
C2501 C2502 1.334 . S
C2502 H2473 0.950 . S
C2502 C2501 1.334 . S
C2502 C2503 1.287 . S
C2503 C2502 1.287 . S
C2503 C2504 1.524 . S
C2503 H2506 0.999 . S
C2504 H2474 0.950 . S
C2504 C2503 1.524 . S
C2504 C2505 1.415 . S
C2505 H2475 0.950 . S
C2505 C2500 1.363 . S
C2505 C2504 1.415 . S
H2506 C2503 0.999 . S
H2507 C2488 0.913 . S
H2508 C2526 0.951 . S
H2509 C2528 0.951 . S
H2510 C2530 0.950 . S
H2511 C2531 0.950 . S
H2512 C2533 0.950 . S
H2513 C2536 0.950 . S
H2514 C2537 0.950 . S
H2515 C2539 0.950 . S
H2516 C2540 0.950 . S
H2517 C2541 0.951 . S
H2518 C2543 0.951 . S
H2519 C2545 0.950 . S
H2520 C2546 0.950 . S
H2521 C2548 0.950 . S
H2522 C2551 0.950 . S
H2523 C2552 0.950 . S
H2524 C2554 0.950 . S
H2525 C2555 0.950 . S
C2526 H2508 0.951 . S
C2526 C2527 1.366 . S
C2526 C2528 1.388 . S
C2527 C2526 1.366 . S
C2527 C2531 1.385 . S
C2528 H2509 0.951 . S
C2528 C2526 1.388 . S
C2528 C2529 1.366 . S
C2529 C2528 1.366 . S
C2529 C2530 1.414 . S
C2529 C2532 1.499 . S
C2530 H2510 0.950 . S
C2530 C2529 1.414 . S
C2530 C2531 1.374 . S
C2531 H2511 0.950 . S
C2531 C2527 1.385 . S
C2531 C2530 1.374 . S
C2532 C2529 1.499 . S
C2532 C2533 1.373 . S
C2532 C2534 1.389 . S
C2533 H2512 0.950 . S
C2533 C2532 1.373 . S
C2533 C2549 1.377 . S
C2534 C2532 1.389 . S
C2534 C2535 1.524 . S
C2534 C2548 1.377 . S
C2535 C2534 1.524 . S
C2535 C2536 1.397 . S
C2535 C2540 1.363 . S
C2536 H2513 0.950 . S
C2536 C2535 1.397 . S
C2536 C2537 1.334 . S
C2537 H2514 0.950 . S
C2537 C2536 1.334 . S
C2537 C2538 1.287 . S
C2538 C2537 1.287 . S
C2538 C2539 1.524 . S
C2538 H2557 0.913 . S
C2539 H2515 0.950 . S
C2539 C2538 1.524 . S
C2539 C2540 1.415 . S
C2540 H2516 0.950 . S
C2540 C2535 1.363 . S
C2540 C2539 1.415 . S
C2541 H2517 0.951 . S
C2541 C2542 1.366 . S
C2541 C2543 1.388 . S
C2542 C2541 1.366 . S
C2542 C2546 1.385 . S
C2543 H2518 0.951 . S
C2543 C2541 1.388 . S
C2543 C2544 1.366 . S
C2544 C2543 1.366 . S
C2544 C2545 1.414 . S
C2544 C2547 1.499 . S
C2545 H2519 0.950 . S
C2545 C2544 1.414 . S
C2545 C2546 1.374 . S
C2546 H2520 0.950 . S
C2546 C2542 1.385 . S
C2546 C2545 1.374 . S
C2547 C2544 1.499 . S
C2547 C2548 1.373 . S
C2547 C2549 1.389 . S
C2548 H2521 0.950 . S
C2548 C2534 1.377 . S
C2548 C2547 1.373 . S
C2549 C2533 1.377 . S
C2549 C2547 1.389 . S
C2549 C2550 1.524 . S
C2550 C2549 1.524 . S
C2550 C2551 1.397 . S
C2550 C2555 1.363 . S
C2551 H2522 0.950 . S
C2551 C2550 1.397 . S
C2551 C2552 1.334 . S
C2552 H2523 0.950 . S
C2552 C2551 1.334 . S
C2552 C2553 1.287 . S
C2553 C2552 1.287 . S
C2553 C2554 1.524 . S
C2553 H2556 0.999 . S
C2554 H2524 0.950 . S
C2554 C2553 1.524 . S
C2554 C2555 1.415 . S
C2555 H2525 0.950 . S
C2555 C2550 1.363 . S
C2555 C2554 1.415 . S
H2556 C2553 0.999 . S
H2557 C2538 0.913 . S
H2558 C2576 0.951 . S
H2559 C2578 0.951 . S
H2560 C2580 0.950 . S
H2561 C2581 0.950 . S
H2562 C2583 0.950 . S
H2563 C2586 0.950 . S
H2564 C2587 0.950 . S
H2565 C2589 0.950 . S
H2566 C2590 0.950 . S
H2567 C2591 0.951 . S
H2568 C2593 0.951 . S
H2569 C2595 0.950 . S
H2570 C2596 0.950 . S
H2571 C2598 0.950 . S
H2572 C2601 0.950 . S
H2573 C2602 0.950 . S
H2574 C2604 0.950 . S
H2575 C2605 0.950 . S
C2576 H2558 0.951 . S
C2576 C2577 1.366 . S
C2576 C2578 1.388 . S
C2577 C2576 1.366 . S
C2577 C2581 1.385 . S
C2578 H2559 0.951 . S
C2578 C2576 1.388 . S
C2578 C2579 1.366 . S
C2579 C2578 1.366 . S
C2579 C2580 1.414 . S
C2579 C2582 1.499 . S
C2580 H2560 0.950 . S
C2580 C2579 1.414 . S
C2580 C2581 1.374 . S
C2581 H2561 0.950 . S
C2581 C2577 1.385 . S
C2581 C2580 1.374 . S
C2582 C2579 1.499 . S
C2582 C2583 1.373 . S
C2582 C2584 1.389 . S
C2583 H2562 0.950 . S
C2583 C2582 1.373 . S
C2583 C2599 1.377 . S
C2584 C2582 1.389 . S
C2584 C2585 1.524 . S
C2584 C2598 1.377 . S
C2585 C2584 1.524 . S
C2585 C2586 1.397 . S
C2585 C2590 1.363 . S
C2586 H2563 0.950 . S
C2586 C2585 1.397 . S
C2586 C2587 1.334 . S
C2587 H2564 0.950 . S
C2587 C2586 1.334 . S
C2587 C2588 1.287 . S
C2588 C2587 1.287 . S
C2588 C2589 1.524 . S
C2588 H2607 0.913 . S
C2589 H2565 0.950 . S
C2589 C2588 1.524 . S
C2589 C2590 1.415 . S
C2590 H2566 0.950 . S
C2590 C2585 1.363 . S
C2590 C2589 1.415 . S
C2591 H2567 0.951 . S
C2591 C2592 1.366 . S
C2591 C2593 1.388 . S
C2592 C2591 1.366 . S
C2592 C2596 1.385 . S
C2593 H2568 0.951 . S
C2593 C2591 1.388 . S
C2593 C2594 1.366 . S
C2594 C2593 1.366 . S
C2594 C2595 1.414 . S
C2594 C2597 1.499 . S
C2595 H2569 0.950 . S
C2595 C2594 1.414 . S
C2595 C2596 1.374 . S
C2596 H2570 0.950 . S
C2596 C2592 1.385 . S
C2596 C2595 1.374 . S
C2597 C2594 1.499 . S
C2597 C2598 1.373 . S
C2597 C2599 1.389 . S
C2598 H2571 0.950 . S
C2598 C2584 1.377 . S
C2598 C2597 1.373 . S
C2599 C2583 1.377 . S
C2599 C2597 1.389 . S
C2599 C2600 1.524 . S
C2600 C2599 1.524 . S
C2600 C2601 1.397 . S
C2600 C2605 1.363 . S
C2601 H2572 0.950 . S
C2601 C2600 1.397 . S
C2601 C2602 1.334 . S
C2602 H2573 0.950 . S
C2602 C2601 1.334 . S
C2602 C2603 1.287 . S
C2603 C2602 1.287 . S
C2603 C2604 1.524 . S
C2603 H2606 0.999 . S
C2604 H2574 0.950 . S
C2604 C2603 1.524 . S
C2604 C2605 1.415 . S
C2605 H2575 0.950 . S
C2605 C2600 1.363 . S
C2605 C2604 1.415 . S
H2606 C2603 0.999 . S
H2607 C2588 0.913 . S
H2608 C2626 0.951 . S
H2609 C2628 0.951 . S
H2610 C2630 0.950 . S
H2611 C2631 0.950 . S
H2612 C2633 0.950 . S
H2613 C2636 0.950 . S
H2614 C2637 0.950 . S
H2615 C2639 0.950 . S
H2616 C2640 0.950 . S
H2617 C2641 0.951 . S
H2618 C2643 0.951 . S
H2619 C2645 0.950 . S
H2620 C2646 0.950 . S
H2621 C2648 0.950 . S
H2622 C2651 0.950 . S
H2623 C2652 0.950 . S
H2624 C2654 0.950 . S
H2625 C2655 0.950 . S
C2626 H2608 0.951 . S
C2626 C2627 1.366 . S
C2626 C2628 1.388 . S
C2627 C2626 1.366 . S
C2627 C2631 1.385 . S
C2628 H2609 0.951 . S
C2628 C2626 1.388 . S
C2628 C2629 1.366 . S
C2629 C2628 1.366 . S
C2629 C2630 1.414 . S
C2629 C2632 1.499 . S
C2630 H2610 0.950 . S
C2630 C2629 1.414 . S
C2630 C2631 1.374 . S
C2631 H2611 0.950 . S
C2631 C2627 1.385 . S
C2631 C2630 1.374 . S
C2632 C2629 1.499 . S
C2632 C2633 1.373 1_655 S
C2632 C2634 1.389 . S
C2633 H2612 0.950 . S
C2633 C2632 1.373 1_455 S
C2633 C2649 1.377 . S
C2634 C2632 1.389 . S
C2634 C2635 1.524 . S
C2634 C2648 1.377 . S
C2635 C2634 1.524 . S
C2635 C2636 1.397 . S
C2635 C2640 1.363 . S
C2636 H2613 0.950 . S
C2636 C2635 1.397 . S
C2636 C2637 1.334 . S
C2637 H2614 0.950 . S
C2637 C2636 1.334 . S
C2637 C2638 1.287 . S
C2638 C2637 1.287 . S
C2638 C2639 1.524 . S
C2638 H2657 0.913 . S
C2639 H2615 0.950 . S
C2639 C2638 1.524 . S
C2639 C2640 1.415 . S
C2640 H2616 0.950 . S
C2640 C2635 1.363 . S
C2640 C2639 1.415 . S
C2641 H2617 0.951 . S
C2641 C2642 1.366 . S
C2641 C2643 1.388 . S
C2642 C2641 1.366 . S
C2642 C2646 1.385 . S
C2643 H2618 0.951 . S
C2643 C2641 1.388 . S
C2643 C2644 1.366 . S
C2644 C2643 1.366 . S
C2644 C2645 1.414 . S
C2644 C2647 1.499 . S
C2645 H2619 0.950 . S
C2645 C2644 1.414 . S
C2645 C2646 1.374 . S
C2646 H2620 0.950 . S
C2646 C2642 1.385 . S
C2646 C2645 1.374 . S
C2647 C2644 1.499 . S
C2647 C2648 1.373 1_455 S
C2647 C2649 1.389 . S
C2648 H2621 0.950 . S
C2648 C2634 1.377 . S
C2648 C2647 1.373 1_655 S
C2649 C2633 1.377 . S
C2649 C2647 1.389 . S
C2649 C2650 1.524 . S
C2650 C2649 1.524 . S
C2650 C2651 1.397 . S
C2650 C2655 1.363 . S
C2651 H2622 0.950 . S
C2651 C2650 1.397 . S
C2651 C2652 1.334 . S
C2652 H2623 0.950 . S
C2652 C2651 1.334 . S
C2652 C2653 1.287 . S
C2653 C2652 1.287 . S
C2653 C2654 1.524 . S
C2653 H2656 0.999 . S
C2654 H2624 0.950 . S
C2654 C2653 1.524 . S
C2654 C2655 1.415 . S
C2655 H2625 0.950 . S
C2655 C2650 1.363 . S
C2655 C2654 1.415 . S
H2656 C2653 0.999 . S
H2657 C2638 0.913 . S
H2658 C2676 0.951 . S
H2659 C2678 0.951 . S
H2660 C2680 0.950 . S
H2661 C2681 0.950 . S
H2662 C2683 0.950 . S
H2663 C2686 0.950 . S
H2664 C2687 0.950 . S
H2665 C2689 0.950 . S
H2666 C2690 0.950 . S
H2667 C2691 0.951 . S
H2668 C2693 0.951 . S
H2669 C2695 0.950 . S
H2670 C2696 0.950 . S
H2671 C2698 0.950 . S
H2672 C2701 0.950 . S
H2673 C2702 0.950 . S
H2674 C2704 0.950 . S
H2675 C2705 0.950 . S
C2676 H2658 0.951 . S
C2676 C2677 1.366 . S
C2676 C2678 1.388 . S
C2677 C2676 1.366 . S
C2677 C2681 1.385 . S
C2678 H2659 0.951 . S
C2678 C2676 1.388 . S
C2678 C2679 1.366 . S
C2679 C2678 1.366 . S
C2679 C2680 1.414 . S
C2679 C2682 1.499 . S
C2680 H2660 0.950 . S
C2680 C2679 1.414 . S
C2680 C2681 1.374 . S
C2681 H2661 0.950 . S
C2681 C2677 1.385 . S
C2681 C2680 1.374 . S
C2682 C2679 1.499 . S
C2682 C2683 1.373 . S
C2682 C2684 1.389 . S
C2683 H2662 0.950 . S
C2683 C2682 1.373 . S
C2683 C2699 1.377 . S
C2684 C2682 1.389 . S
C2684 C2685 1.524 . S
C2684 C2698 1.377 . S
C2685 C2684 1.524 . S
C2685 C2686 1.397 . S
C2685 C2690 1.363 . S
C2686 H2663 0.950 . S
C2686 C2685 1.397 . S
C2686 C2687 1.334 . S
C2687 H2664 0.950 . S
C2687 C2686 1.334 . S
C2687 C2688 1.287 . S
C2688 C2687 1.287 . S
C2688 C2689 1.524 . S
C2688 H2707 0.913 . S
C2689 H2665 0.950 . S
C2689 C2688 1.524 . S
C2689 C2690 1.415 . S
C2690 H2666 0.950 . S
C2690 C2685 1.363 . S
C2690 C2689 1.415 . S
C2691 H2667 0.951 . S
C2691 C2692 1.366 . S
C2691 C2693 1.388 . S
C2692 C2691 1.366 . S
C2692 C2696 1.385 . S
C2693 H2668 0.951 . S
C2693 C2691 1.388 . S
C2693 C2694 1.366 . S
C2694 C2693 1.366 . S
C2694 C2695 1.414 . S
C2694 C2697 1.499 . S
C2695 H2669 0.950 . S
C2695 C2694 1.414 . S
C2695 C2696 1.374 . S
C2696 H2670 0.950 . S
C2696 C2692 1.385 . S
C2696 C2695 1.374 . S
C2697 C2694 1.499 . S
C2697 C2698 1.373 . S
C2697 C2699 1.389 . S
C2698 H2671 0.950 . S
C2698 C2684 1.377 . S
C2698 C2697 1.373 . S
C2699 C2683 1.377 . S
C2699 C2697 1.389 . S
C2699 C2700 1.524 . S
C2700 C2699 1.524 . S
C2700 C2701 1.397 . S
C2700 C2705 1.363 . S
C2701 H2672 0.950 . S
C2701 C2700 1.397 . S
C2701 C2702 1.334 . S
C2702 H2673 0.950 . S
C2702 C2701 1.334 . S
C2702 C2703 1.287 . S
C2703 C2702 1.287 . S
C2703 C2704 1.524 . S
C2703 H2706 0.999 . S
C2704 H2674 0.950 . S
C2704 C2703 1.524 . S
C2704 C2705 1.415 . S
C2705 H2675 0.950 . S
C2705 C2700 1.363 . S
C2705 C2704 1.415 . S
H2706 C2703 0.999 . S
H2707 C2688 0.913 . S
H2708 C2726 0.951 . S
H2709 C2728 0.951 . S
H2710 C2730 0.950 . S
H2711 C2731 0.950 . S
H2712 C2733 0.950 . S
H2713 C2736 0.950 1_545 S
H2714 C2737 0.950 . S
H2715 C2739 0.950 . S
H2716 C2740 0.950 . S
H2717 C2741 0.951 . S
H2718 C2743 0.951 . S
H2719 C2745 0.950 . S
H2720 C2746 0.950 . S
H2721 C2748 0.950 . S
H2722 C2751 0.950 . S
H2723 C2752 0.950 . S
H2724 C2754 0.950 . S
H2725 C2755 0.950 . S
C2726 H2708 0.951 . S
C2726 C2727 1.366 . S
C2726 C2728 1.388 . S
C2727 C2726 1.366 . S
C2727 C2731 1.385 . S
C2728 H2709 0.951 . S
C2728 C2726 1.388 . S
C2728 C2729 1.366 . S
C2729 C2728 1.366 . S
C2729 C2730 1.414 . S
C2729 C2732 1.499 . S
C2730 H2710 0.950 . S
C2730 C2729 1.414 . S
C2730 C2731 1.374 . S
C2731 H2711 0.950 . S
C2731 C2727 1.385 . S
C2731 C2730 1.374 . S
C2732 C2729 1.499 . S
C2732 C2733 1.373 . S
C2732 C2734 1.389 . S
C2733 H2712 0.950 . S
C2733 C2732 1.373 . S
C2733 C2749 1.377 . S
C2734 C2732 1.389 . S
C2734 C2735 1.560 . S
C2734 C2748 1.377 . S
C2735 C2734 1.560 . S
C2735 C2736 1.388 1_545 S
C2735 C2740 1.339 1_545 S
C2736 H2713 0.950 1_565 S
C2736 C2735 1.388 1_565 S
C2736 C2737 1.333 . S
C2737 H2714 0.950 . S
C2737 C2736 1.333 . S
C2737 C2738 1.287 . S
C2738 C2737 1.287 . S
C2738 C2739 1.524 . S
C2738 H2757 0.913 . S
C2739 H2715 0.950 . S
C2739 C2738 1.524 . S
C2739 C2740 1.415 . S
C2740 H2716 0.950 . S
C2740 C2735 1.339 1_565 S
C2740 C2739 1.415 . S
C2741 H2717 0.951 . S
C2741 C2742 1.366 . S
C2741 C2743 1.388 . S
C2742 C2741 1.366 . S
C2742 C2746 1.385 . S
C2743 H2718 0.951 . S
C2743 C2741 1.388 . S
C2743 C2744 1.366 . S
C2744 C2743 1.366 . S
C2744 C2745 1.414 . S
C2744 C2747 1.499 . S
C2745 H2719 0.950 . S
C2745 C2744 1.414 . S
C2745 C2746 1.374 . S
C2746 H2720 0.950 . S
C2746 C2742 1.385 . S
C2746 C2745 1.374 . S
C2747 C2744 1.499 . S
C2747 C2748 1.373 . S
C2747 C2749 1.389 . S
C2748 H2721 0.950 . S
C2748 C2734 1.377 . S
C2748 C2747 1.373 . S
C2749 C2733 1.377 . S
C2749 C2747 1.389 . S
C2749 C2750 1.524 . S
C2750 C2749 1.524 . S
C2750 C2751 1.397 . S
C2750 C2755 1.363 . S
C2751 H2722 0.950 . S
C2751 C2750 1.397 . S
C2751 C2752 1.334 . S
C2752 H2723 0.950 . S
C2752 C2751 1.334 . S
C2752 C2753 1.287 . S
C2753 C2752 1.287 . S
C2753 C2754 1.524 . S
C2753 H2756 0.999 . S
C2754 H2724 0.950 . S
C2754 C2753 1.524 . S
C2754 C2755 1.415 . S
C2755 H2725 0.950 . S
C2755 C2750 1.363 . S
C2755 C2754 1.415 . S
H2756 C2753 0.999 . S
H2757 C2738 0.913 . S
H2758 C2776 0.951 . S
H2759 C2778 0.951 . S
H2760 C2780 0.950 . S
H2761 C2781 0.950 . S
H2762 C2783 0.950 . S
H2763 C2786 0.950 . S
H2764 C2787 0.950 . S
H2765 C2789 0.950 . S
H2766 C2790 0.950 . S
H2767 C2791 0.951 . S
H2768 C2793 0.951 . S
H2769 C2795 0.950 . S
H2770 C2796 0.950 . S
H2771 C2798 0.950 . S
H2772 C2801 0.950 . S
H2773 C2802 0.950 . S
H2774 C2804 0.950 . S
H2775 C2805 0.950 . S
C2776 H2758 0.951 . S
C2776 C2777 1.366 . S
C2776 C2778 1.388 . S
C2777 C2776 1.366 . S
C2777 C2781 1.385 . S
C2778 H2759 0.951 . S
C2778 C2776 1.388 . S
C2778 C2779 1.366 . S
C2779 C2778 1.366 . S
C2779 C2780 1.414 . S
C2779 C2782 1.499 . S
C2780 H2760 0.950 . S
C2780 C2779 1.414 . S
C2780 C2781 1.374 . S
C2781 H2761 0.950 . S
C2781 C2777 1.385 . S
C2781 C2780 1.374 . S
C2782 C2779 1.499 . S
C2782 C2783 1.373 . S
C2782 C2784 1.389 . S
C2783 H2762 0.950 . S
C2783 C2782 1.373 . S
C2783 C2799 1.377 . S
C2784 C2782 1.389 . S
C2784 C2785 1.524 . S
C2784 C2798 1.377 . S
C2785 C2784 1.524 . S
C2785 C2786 1.397 . S
C2785 C2790 1.363 . S
C2786 H2763 0.950 . S
C2786 C2785 1.397 . S
C2786 C2787 1.334 . S
C2787 H2764 0.950 . S
C2787 C2786 1.334 . S
C2787 C2788 1.287 . S
C2788 C2787 1.287 . S
C2788 C2789 1.524 . S
C2788 H2807 0.913 . S
C2789 H2765 0.950 . S
C2789 C2788 1.524 . S
C2789 C2790 1.415 . S
C2790 H2766 0.950 . S
C2790 C2785 1.363 . S
C2790 C2789 1.415 . S
C2791 H2767 0.951 . S
C2791 C2792 1.366 . S
C2791 C2793 1.388 . S
C2792 C2791 1.366 . S
C2792 C2796 1.385 . S
C2793 H2768 0.951 . S
C2793 C2791 1.388 . S
C2793 C2794 1.366 . S
C2794 C2793 1.366 . S
C2794 C2795 1.414 . S
C2794 C2797 1.499 . S
C2795 H2769 0.950 . S
C2795 C2794 1.414 . S
C2795 C2796 1.374 . S
C2796 H2770 0.950 . S
C2796 C2792 1.385 . S
C2796 C2795 1.374 . S
C2797 C2794 1.499 . S
C2797 C2798 1.373 . S
C2797 C2799 1.389 . S
C2798 H2771 0.950 . S
C2798 C2784 1.377 . S
C2798 C2797 1.373 . S
C2799 C2783 1.377 . S
C2799 C2797 1.389 . S
C2799 C2800 1.524 . S
C2800 C2799 1.524 . S
C2800 C2801 1.397 . S
C2800 C2805 1.363 . S
C2801 H2772 0.950 . S
C2801 C2800 1.397 . S
C2801 C2802 1.334 . S
C2802 H2773 0.950 . S
C2802 C2801 1.334 . S
C2802 C2803 1.287 . S
C2803 C2802 1.287 . S
C2803 C2804 1.524 . S
C2803 H2806 0.999 . S
C2804 H2774 0.950 . S
C2804 C2803 1.524 . S
C2804 C2805 1.415 . S
C2805 H2775 0.950 . S
C2805 C2800 1.363 . S
C2805 C2804 1.415 . S
H2806 C2803 0.999 . S
H2807 C2788 0.913 . S
H2808 C2826 0.951 . S
H2809 C2828 0.951 . S
H2810 C2830 0.950 1_455 S
H2811 C2831 0.950 . S
H2812 C2833 0.950 . S
H2813 C2836 0.950 . S
H2814 C2837 0.950 . S
H2815 C2839 0.950 . S
H2816 C2840 0.950 . S
H2817 C2841 0.951 . S
H2818 C2843 0.951 . S
H2819 C2845 0.980 . S
H2820 C2846 0.950 . S
H2821 C2848 0.950 . S
H2822 C2851 0.950 . S
H2823 C2852 0.950 . S
H2824 C2854 0.950 . S
H2825 C2855 0.950 . S
C2826 H2808 0.951 . S
C2826 C2827 1.366 . S
C2826 C2828 1.388 . S
C2827 C2826 1.366 . S
C2827 C2831 1.385 . S
C2828 H2809 0.951 . S
C2828 C2826 1.388 . S
C2828 C2829 1.366 . S
C2829 C2828 1.366 . S
C2829 C2830 1.414 . S
C2829 C2832 1.499 . S
C2830 H2810 0.950 1_655 S
C2830 C2829 1.414 . S
C2830 C2831 1.374 . S
C2831 H2811 0.950 . S
C2831 C2827 1.385 . S
C2831 C2830 1.374 . S
C2832 C2829 1.499 . S
C2832 C2833 1.373 1_655 S
C2832 C2834 1.389 . S
C2833 H2812 0.950 . S
C2833 C2832 1.373 1_455 S
C2833 C2849 1.377 . S
C2834 C2832 1.389 . S
C2834 C2835 1.524 . S
C2834 C2848 1.377 . S
C2835 C2834 1.524 . S
C2835 C2836 1.397 . S
C2835 C2840 1.363 . S
C2836 H2813 0.950 . S
C2836 C2835 1.397 . S
C2836 C2837 1.334 . S
C2837 H2814 0.950 . S
C2837 C2836 1.334 . S
C2837 C2838 1.287 . S
C2838 C2837 1.287 . S
C2838 C2839 1.524 . S
C2838 H2857 0.913 . S
C2839 H2815 0.950 . S
C2839 C2838 1.524 . S
C2839 C2840 1.415 . S
C2840 H2816 0.950 . S
C2840 C2835 1.363 . S
C2840 C2839 1.415 . S
C2841 H2817 0.951 . S
C2841 C2842 1.366 . S
C2841 C2843 1.388 . S
C2842 C2841 1.366 . S
C2842 C2846 1.385 . S
C2843 H2818 0.951 . S
C2843 C2841 1.388 . S
C2843 C2844 1.366 . S
C2844 C2843 1.366 . S
C2844 C2845 1.414 . S
C2844 C2847 1.499 . S
C2845 H2819 0.980 . S
C2845 C2844 1.414 . S
C2845 C2846 1.374 . S
C2846 H2820 0.950 . S
C2846 C2842 1.385 . S
C2846 C2845 1.374 . S
C2847 C2844 1.499 . S
C2847 C2848 1.373 1_455 S
C2847 C2849 1.389 . S
C2848 H2821 0.950 . S
C2848 C2834 1.377 . S
C2848 C2847 1.373 1_655 S
C2849 C2833 1.377 . S
C2849 C2847 1.389 . S
C2849 C2850 1.524 . S
C2850 C2849 1.524 . S
C2850 C2851 1.397 . S
C2850 C2855 1.363 . S
C2851 H2822 0.950 . S
C2851 C2850 1.397 . S
C2851 C2852 1.334 . S
C2852 H2823 0.950 . S
C2852 C2851 1.334 . S
C2852 C2853 1.287 . S
C2853 C2852 1.287 . S
C2853 C2854 1.524 . S
C2853 H2856 0.999 . S
C2854 H2824 0.950 . S
C2854 C2853 1.524 . S
C2854 C2855 1.415 . S
C2855 H2825 0.950 . S
C2855 C2850 1.363 . S
C2855 C2854 1.415 . S
H2856 C2853 0.999 . S
H2857 C2838 0.913 . S
H2858 C2876 0.951 . S
H2859 C2878 0.951 . S
H2860 C2880 0.950 . S
H2861 C2881 0.950 . S
H2862 C2883 0.950 . S
H2863 C2886 0.950 . S
H2864 C2887 0.950 . S
H2865 C2889 0.950 . S
H2866 C2890 0.950 . S
H2867 C2891 0.951 . S
H2868 C2893 0.951 . S
H2869 C2895 0.950 . S
H2870 C2896 0.950 . S
H2871 C2898 0.950 . S
H2872 C2901 0.950 . S
H2873 C2902 0.950 . S
H2874 C2904 0.950 . S
H2875 C2905 0.950 . S
C2876 H2858 0.951 . S
C2876 C2877 1.366 . S
C2876 C2878 1.388 . S
C2877 C2876 1.366 . S
C2877 C2881 1.385 . S
C2878 H2859 0.951 . S
C2878 C2876 1.388 . S
C2878 C2879 1.366 . S
C2879 C2878 1.366 . S
C2879 C2880 1.414 . S
C2879 C2882 1.499 . S
C2880 H2860 0.950 . S
C2880 C2879 1.414 . S
C2880 C2881 1.374 . S
C2881 H2861 0.950 . S
C2881 C2877 1.385 . S
C2881 C2880 1.374 . S
C2882 C2879 1.499 . S
C2882 C2883 1.373 . S
C2882 C2884 1.389 . S
C2883 H2862 0.950 . S
C2883 C2882 1.373 . S
C2883 C2899 1.377 . S
C2884 C2882 1.389 . S
C2884 C2885 1.524 . S
C2884 C2898 1.377 . S
C2885 C2884 1.524 . S
C2885 C2886 1.397 . S
C2885 C2890 1.363 . S
C2886 H2863 0.950 . S
C2886 C2885 1.397 . S
C2886 C2887 1.334 . S
C2887 H2864 0.950 . S
C2887 C2886 1.334 . S
C2887 C2888 1.287 . S
C2888 C2887 1.287 . S
C2888 C2889 1.524 . S
C2888 H2907 0.913 . S
C2889 H2865 0.950 . S
C2889 C2888 1.524 . S
C2889 C2890 1.415 . S
C2890 H2866 0.950 . S
C2890 C2885 1.363 . S
C2890 C2889 1.415 . S
C2891 H2867 0.951 . S
C2891 C2892 1.366 . S
C2891 C2893 1.388 . S
C2892 C2891 1.366 . S
C2892 C2896 1.385 . S
C2893 H2868 0.951 . S
C2893 C2891 1.388 . S
C2893 C2894 1.366 . S
C2894 C2893 1.366 . S
C2894 C2895 1.414 . S
C2894 C2897 1.499 . S
C2895 H2869 0.950 . S
C2895 C2894 1.414 . S
C2895 C2896 1.374 . S
C2896 H2870 0.950 . S
C2896 C2892 1.385 . S
C2896 C2895 1.374 . S
C2897 C2894 1.499 . S
C2897 C2898 1.373 . S
C2897 C2899 1.389 . S
C2898 H2871 0.950 . S
C2898 C2884 1.377 . S
C2898 C2897 1.373 . S
C2899 C2883 1.377 . S
C2899 C2897 1.389 . S
C2899 C2900 1.524 . S
C2900 C2899 1.524 . S
C2900 C2901 1.397 . S
C2900 C2905 1.363 . S
C2901 H2872 0.950 . S
C2901 C2900 1.397 . S
C2901 C2902 1.334 . S
C2902 H2873 0.950 . S
C2902 C2901 1.334 . S
C2902 C2903 1.287 . S
C2903 C2902 1.287 . S
C2903 C2904 1.524 . S
C2903 H2906 0.999 . S
C2904 H2874 0.950 . S
C2904 C2903 1.524 . S
C2904 C2905 1.415 . S
C2905 H2875 0.950 . S
C2905 C2900 1.363 . S
C2905 C2904 1.415 . S
H2906 C2903 0.999 . S
H2907 C2888 0.913 . S
H2908 C2926 0.951 . S
H2909 C2928 0.951 . S
H2910 C2930 0.950 . S
H2911 C2931 0.950 . S
H2912 C2933 0.950 . S
H2913 C2936 0.950 . S
H2914 C2937 0.950 . S
H2915 C2939 0.950 . S
H2916 C2940 0.950 . S
H2917 C2941 0.951 . S
H2918 C2943 0.951 . S
H2919 C2945 0.950 . S
H2920 C2946 0.950 . S
H2921 C2948 0.950 . S
H2922 C2951 0.950 . S
H2923 C2952 0.950 . S
H2924 C2954 0.950 . S
H2925 C2955 0.950 . S
C2926 H2908 0.951 . S
C2926 C2927 1.366 . S
C2926 C2928 1.388 . S
C2927 C2926 1.366 . S
C2927 C2931 1.385 . S
C2928 H2909 0.951 . S
C2928 C2926 1.388 . S
C2928 C2929 1.366 . S
C2929 C2928 1.366 . S
C2929 C2930 1.414 . S
C2929 C2932 1.499 . S
C2930 H2910 0.950 . S
C2930 C2929 1.414 . S
C2930 C2931 1.374 . S
C2931 H2911 0.950 . S
C2931 C2927 1.385 . S
C2931 C2930 1.374 . S
C2932 C2929 1.499 . S
C2932 C2933 1.373 . S
C2932 C2934 1.389 . S
C2933 H2912 0.950 . S
C2933 C2932 1.373 . S
C2933 C2949 1.377 . S
C2934 C2932 1.389 . S
C2934 C2935 1.524 . S
C2934 C2948 1.377 . S
C2935 C2934 1.524 . S
C2935 C2936 1.397 . S
C2935 C2940 1.363 . S
C2936 H2913 0.950 . S
C2936 C2935 1.397 . S
C2936 C2937 1.334 . S
C2937 H2914 0.950 . S
C2937 C2936 1.334 . S
C2937 C2938 1.287 . S
C2938 C2937 1.287 . S
C2938 C2939 1.524 . S
C2938 H2957 0.913 . S
C2939 H2915 0.950 . S
C2939 C2938 1.524 . S
C2939 C2940 1.415 . S
C2940 H2916 0.950 . S
C2940 C2935 1.363 . S
C2940 C2939 1.415 . S
C2941 H2917 0.951 . S
C2941 C2942 1.366 . S
C2941 C2943 1.388 . S
C2942 C2941 1.366 . S
C2942 C2946 1.385 . S
C2943 H2918 0.951 . S
C2943 C2941 1.388 . S
C2943 C2944 1.366 . S
C2944 C2943 1.366 . S
C2944 C2945 1.414 . S
C2944 C2947 1.499 . S
C2945 H2919 0.950 . S
C2945 C2944 1.414 . S
C2945 C2946 1.374 . S
C2946 H2920 0.950 . S
C2946 C2942 1.385 . S
C2946 C2945 1.374 . S
C2947 C2944 1.499 . S
C2947 C2948 1.373 . S
C2947 C2949 1.389 . S
C2948 H2921 0.950 . S
C2948 C2934 1.377 . S
C2948 C2947 1.373 . S
C2949 C2933 1.377 . S
C2949 C2947 1.389 . S
C2949 C2950 1.524 . S
C2950 C2949 1.524 . S
C2950 C2951 1.397 . S
C2950 C2955 1.363 . S
C2951 H2922 0.950 . S
C2951 C2950 1.397 . S
C2951 C2952 1.334 . S
C2952 H2923 0.950 . S
C2952 C2951 1.334 . S
C2952 C2953 1.287 . S
C2953 C2952 1.287 . S
C2953 C2954 1.524 . S
C2953 H2956 0.999 . S
C2954 H2924 0.950 . S
C2954 C2953 1.524 . S
C2954 C2955 1.415 . S
C2955 H2925 0.950 . S
C2955 C2950 1.363 . S
C2955 C2954 1.415 . S
H2956 C2953 0.999 . S
H2957 C2938 0.913 . S
H2958 C2976 0.951 . S
H2959 C2978 0.951 . S
H2960 C2980 0.950 . S
H2961 C2981 0.950 . S
H2962 C2983 0.950 . S
H2963 C2986 0.950 . S
H2964 C2987 0.950 . S
H2965 C2989 0.950 . S
H2966 C2990 0.950 . S
H2967 C2991 0.951 . S
H2968 C2993 0.951 . S
H2969 C2995 0.950 . S
H2970 C2996 0.950 . S
H2971 C2998 0.950 . S
H2972 C3001 0.950 . S
H2973 C3002 0.950 . S
H2974 C3004 0.950 . S
H2975 C3005 0.950 . S
C2976 H2958 0.951 . S
C2976 C2977 1.366 . S
C2976 C2978 1.388 . S
C2977 C2976 1.366 . S
C2977 C2981 1.385 . S
C2978 H2959 0.951 . S
C2978 C2976 1.388 . S
C2978 C2979 1.366 . S
C2979 C2978 1.366 . S
C2979 C2980 1.414 . S
C2979 C2982 1.499 . S
C2980 H2960 0.950 . S
C2980 C2979 1.414 . S
C2980 C2981 1.374 . S
C2981 H2961 0.950 . S
C2981 C2977 1.385 . S
C2981 C2980 1.374 . S
C2982 C2979 1.499 . S
C2982 C2983 1.373 . S
C2982 C2984 1.389 . S
C2983 H2962 0.950 . S
C2983 C2982 1.373 . S
C2983 C2999 1.377 . S
C2984 C2982 1.389 . S
C2984 C2985 1.524 . S
C2984 C2998 1.377 . S
C2985 C2984 1.524 . S
C2985 C2986 1.397 . S
C2985 C2990 1.363 . S
C2986 H2963 0.950 . S
C2986 C2985 1.397 . S
C2986 C2987 1.334 . S
C2987 H2964 0.950 . S
C2987 C2986 1.334 . S
C2987 C2988 1.287 . S
C2988 C2987 1.287 . S
C2988 C2989 1.524 . S
C2988 H3007 0.913 . S
C2989 H2965 0.950 . S
C2989 C2988 1.524 . S
C2989 C2990 1.415 . S
C2990 H2966 0.950 . S
C2990 C2985 1.363 . S
C2990 C2989 1.415 . S
C2991 H2967 0.951 . S
C2991 C2992 1.366 . S
C2991 C2993 1.388 . S
C2992 C2991 1.366 . S
C2992 C2996 1.385 . S
C2993 H2968 0.951 . S
C2993 C2991 1.388 . S
C2993 C2994 1.366 . S
C2994 C2993 1.366 . S
C2994 C2995 1.414 . S
C2994 C2997 1.499 . S
C2995 H2969 0.950 . S
C2995 C2994 1.414 . S
C2995 C2996 1.374 . S
C2996 H2970 0.950 . S
C2996 C2992 1.385 . S
C2996 C2995 1.374 . S
C2997 C2994 1.499 . S
C2997 C2998 1.373 . S
C2997 C2999 1.389 . S
C2998 H2971 0.950 . S
C2998 C2984 1.377 . S
C2998 C2997 1.373 . S
C2999 C2983 1.377 . S
C2999 C2997 1.389 . S
C2999 C3000 1.524 . S
C3000 C2999 1.524 . S
C3000 C3001 1.397 . S
C3000 C3005 1.363 . S
C3001 H2972 0.950 . S
C3001 C3000 1.397 . S
C3001 C3002 1.334 . S
C3002 H2973 0.950 . S
C3002 C3001 1.334 . S
C3002 C3003 1.287 . S
C3003 C3002 1.287 . S
C3003 C3004 1.524 . S
C3003 H3006 0.999 . S
C3004 H2974 0.950 . S
C3004 C3003 1.524 . S
C3004 C3005 1.415 . S
C3005 H2975 0.950 . S
C3005 C3000 1.363 . S
C3005 C3004 1.415 . S
H3006 C3003 0.999 . S
H3007 C2988 0.913 . S
H3008 C3026 0.951 . S
H3009 C3028 0.951 . S
H3010 C3030 0.950 1_556 S
H3011 C3031 0.950 1_556 S
H3012 C3033 0.950 1_556 S
H3013 C3036 0.950 . S
H3014 C3037 0.950 . S
H3015 C3039 0.978 . S
H3016 C3040 0.950 1_545 S
H3017 C3041 0.951 . S
H3018 C3043 0.951 . S
H3019 C3045 0.950 . S
H3020 C3046 0.950 . S
H3021 C3048 0.950 . S
H3022 C3051 0.950 1_545 S
H3023 C3052 0.956 1_545 S
H3024 C3054 0.950 . S
H3025 C3055 0.950 . S
C3026 H3008 0.951 . S
C3026 C3027 1.366 . S
C3026 C3028 1.388 . S
C3027 C3026 1.366 . S
C3027 C3031 1.385 . S
C3028 H3009 0.951 . S
C3028 C3026 1.388 . S
C3028 C3029 1.366 . S
C3029 C3028 1.366 . S
C3029 C3030 1.414 . S
C3029 C3032 1.499 . S
C3030 H3010 0.950 1_554 S
C3030 C3029 1.414 . S
C3030 C3031 1.374 . S
C3031 H3011 0.950 1_554 S
C3031 C3027 1.385 . S
C3031 C3030 1.374 . S
C3032 C3029 1.499 . S
C3032 C3033 1.373 . S
C3032 C3034 1.389 . S
C3033 H3012 0.950 1_554 S
C3033 C3032 1.373 . S
C3033 C3049 1.377 . S
C3034 C3032 1.389 . S
C3034 C3035 1.524 . S
C3034 C3048 1.377 . S
C3035 C3034 1.524 . S
C3035 C3036 1.397 . S
C3035 C3040 1.363 . S
C3036 H3013 0.950 . S
C3036 C3035 1.397 . S
C3036 C3037 1.334 . S
C3037 H3014 0.950 . S
C3037 C3036 1.334 . S
C3037 C3038 1.287 . S
C3038 C3037 1.287 . S
C3038 C3039 1.524 . S
C3038 H3057 0.913 . S
C3039 H3015 0.978 . S
C3039 C3038 1.524 . S
C3039 C3040 1.415 . S
C3040 H3016 0.950 1_565 S
C3040 C3035 1.363 . S
C3040 C3039 1.415 . S
C3041 H3017 0.951 . S
C3041 C3042 1.366 1_565 S
C3041 C3043 1.388 . S
C3042 C3041 1.366 1_545 S
C3042 C3046 1.385 . S
C3043 H3018 0.951 . S
C3043 C3041 1.388 . S
C3043 C3044 1.366 . S
C3044 C3043 1.366 . S
C3044 C3045 1.414 1_565 S
C3044 C3047 1.499 . S
C3045 H3019 0.950 . S
C3045 C3044 1.414 1_545 S
C3045 C3046 1.374 . S
C3046 H3020 0.950 . S
C3046 C3042 1.385 . S
C3046 C3045 1.374 . S
C3047 C3044 1.499 . S
C3047 C3048 1.373 . S
C3047 C3049 1.389 . S
C3048 H3021 0.950 . S
C3048 C3034 1.377 . S
C3048 C3047 1.373 . S
C3049 C3033 1.377 . S
C3049 C3047 1.389 . S
C3049 C3050 1.524 1_554 S
C3050 C3049 1.524 1_556 S
C3050 C3051 1.397 . S
C3050 C3055 1.363 . S
C3051 H3022 0.950 1_565 S
C3051 C3050 1.397 . S
C3051 C3052 1.332 . S
C3052 H3023 0.956 1_565 S
C3052 C3051 1.332 . S
C3052 C3053 1.283 . S
C3053 C3052 1.283 . S
C3053 C3054 1.524 . S
C3053 H3056 0.999 . S
C3054 H3024 0.950 . S
C3054 C3053 1.524 . S
C3054 C3055 1.415 . S
C3055 H3025 0.950 . S
C3055 C3050 1.363 . S
C3055 C3054 1.415 . S
H3056 C3053 0.999 . S
H3057 C3038 0.913 . S
H3058 C3076 0.951 . S
H3059 C3078 0.951 . S
H3060 C3080 0.950 . S
H3061 C3081 0.950 . S
H3062 C3083 0.950 . S
H3063 C3086 0.950 . S
H3064 C3087 0.950 . S
H3065 C3089 0.950 . S
H3066 C3090 0.950 . S
H3067 C3091 0.951 . S
H3068 C3093 0.951 . S
H3069 C3095 0.950 . S
H3070 C3096 0.950 . S
H3071 C3098 0.950 . S
H3072 C3101 0.950 . S
H3073 C3102 0.950 . S
H3074 C3104 0.950 . S
H3075 C3105 0.950 . S
C3076 H3058 0.951 . S
C3076 C3077 1.366 . S
C3076 C3078 1.388 . S
C3077 C3076 1.366 . S
C3077 C3081 1.385 1_556 S
C3078 H3059 0.951 . S
C3078 C3076 1.388 . S
C3078 C3079 1.389 . S
C3079 C3078 1.389 . S
C3079 C3080 1.402 1_556 S
C3079 C3082 1.487 1_556 S
C3080 H3060 0.950 . S
C3080 C3079 1.402 1_554 S
C3080 C3081 1.374 . S
C3081 H3061 0.950 . S
C3081 C3077 1.385 1_554 S
C3081 C3080 1.374 . S
C3082 C3079 1.487 1_554 S
C3082 C3083 1.369 1_554 S
C3082 C3084 1.397 . S
C3083 H3062 0.950 . S
C3083 C3082 1.369 1_556 S
C3083 C3099 1.377 . S
C3084 C3082 1.397 . S
C3084 C3085 1.524 . S
C3084 C3098 1.377 . S
C3085 C3084 1.524 . S
C3085 C3086 1.397 . S
C3085 C3090 1.363 . S
C3086 H3063 0.950 . S
C3086 C3085 1.397 . S
C3086 C3087 1.334 . S
C3087 H3064 0.950 . S
C3087 C3086 1.334 . S
C3087 C3088 1.287 . S
C3088 C3087 1.287 . S
C3088 C3089 1.524 . S
C3088 H3107 0.913 . S
C3089 H3065 0.950 . S
C3089 C3088 1.524 . S
C3089 C3090 1.415 . S
C3090 H3066 0.950 . S
C3090 C3085 1.363 . S
C3090 C3089 1.415 . S
C3091 H3067 0.951 . S
C3091 C3092 1.366 . S
C3091 C3093 1.388 . S
C3092 C3091 1.366 . S
C3092 C3096 1.385 1_554 S
C3093 H3068 0.951 . S
C3093 C3091 1.388 . S
C3093 C3094 1.378 . S
C3094 C3093 1.378 . S
C3094 C3095 1.407 1_554 S
C3094 C3097 1.487 1_554 S
C3095 H3069 0.950 . S
C3095 C3094 1.407 1_556 S
C3095 C3096 1.374 . S
C3096 H3070 0.950 . S
C3096 C3092 1.385 1_556 S
C3096 C3095 1.374 . S
C3097 C3094 1.487 1_556 S
C3097 C3098 1.365 1_556 S
C3097 C3099 1.404 . S
C3098 H3071 0.950 . S
C3098 C3084 1.377 . S
C3098 C3097 1.365 1_554 S
C3099 C3083 1.377 . S
C3099 C3097 1.404 . S
C3099 C3100 1.524 . S
C3100 C3099 1.524 . S
C3100 C3101 1.397 . S
C3100 C3105 1.363 . S
C3101 H3072 0.950 . S
C3101 C3100 1.397 . S
C3101 C3102 1.334 . S
C3102 H3073 0.950 . S
C3102 C3101 1.334 . S
C3102 C3103 1.287 . S
C3103 C3102 1.287 . S
C3103 C3104 1.524 . S
C3103 H3106 0.999 . S
C3104 H3074 0.950 . S
C3104 C3103 1.524 . S
C3104 C3105 1.415 . S
C3105 H3075 0.950 . S
C3105 C3100 1.363 . S
C3105 C3104 1.415 . S
H3106 C3103 0.999 . S
H3107 C3088 0.913 . S
H3108 C3126 0.951 . S
H3109 C3128 0.951 . S
H3110 C3130 0.950 . S
H3111 C3131 0.950 . S
H3112 C3133 0.950 . S
H3113 C3136 0.950 . S
H3114 C3137 0.950 . S
H3115 C3139 0.950 . S
H3116 C3140 0.950 . S
H3117 C3141 0.951 . S
H3118 C3143 0.951 . S
H3119 C3145 0.950 . S
H3120 C3146 0.950 . S
H3121 C3148 0.950 . S
H3122 C3151 0.950 . S
H3123 C3152 0.950 . S
H3124 C3154 0.950 . S
H3125 C3155 0.950 . S
C3126 H3108 0.951 . S
C3126 C3127 1.366 . S
C3126 C3128 1.388 . S
C3127 C3126 1.366 . S
C3127 C3131 1.385 . S
C3128 H3109 0.951 . S
C3128 C3126 1.388 . S
C3128 C3129 1.366 . S
C3129 C3128 1.366 . S
C3129 C3130 1.414 . S
C3129 C3132 1.499 . S
C3130 H3110 0.950 . S
C3130 C3129 1.414 . S
C3130 C3131 1.374 . S
C3131 H3111 0.950 . S
C3131 C3127 1.385 . S
C3131 C3130 1.374 . S
C3132 C3129 1.499 . S
C3132 C3133 1.373 . S
C3132 C3134 1.389 . S
C3133 H3112 0.950 . S
C3133 C3132 1.373 . S
C3133 C3149 1.377 . S
C3134 C3132 1.389 . S
C3134 C3135 1.524 . S
C3134 C3148 1.377 . S
C3135 C3134 1.524 . S
C3135 C3136 1.397 . S
C3135 C3140 1.363 . S
C3136 H3113 0.950 . S
C3136 C3135 1.397 . S
C3136 C3137 1.334 . S
C3137 H3114 0.950 . S
C3137 C3136 1.334 . S
C3137 C3138 1.287 . S
C3138 C3137 1.287 . S
C3138 C3139 1.524 . S
C3138 H3157 0.913 . S
C3139 H3115 0.950 . S
C3139 C3138 1.524 . S
C3139 C3140 1.415 . S
C3140 H3116 0.950 . S
C3140 C3135 1.363 . S
C3140 C3139 1.415 . S
C3141 H3117 0.951 . S
C3141 C3142 1.366 . S
C3141 C3143 1.388 . S
C3142 C3141 1.366 . S
C3142 C3146 1.385 . S
C3143 H3118 0.951 . S
C3143 C3141 1.388 . S
C3143 C3144 1.366 . S
C3144 C3143 1.366 . S
C3144 C3145 1.414 . S
C3144 C3147 1.499 . S
C3145 H3119 0.950 . S
C3145 C3144 1.414 . S
C3145 C3146 1.374 . S
C3146 H3120 0.950 . S
C3146 C3142 1.385 . S
C3146 C3145 1.374 . S
C3147 C3144 1.499 . S
C3147 C3148 1.373 . S
C3147 C3149 1.389 . S
C3148 H3121 0.950 . S
C3148 C3134 1.377 . S
C3148 C3147 1.373 . S
C3149 C3133 1.377 . S
C3149 C3147 1.389 . S
C3149 C3150 1.524 . S
C3150 C3149 1.524 . S
C3150 C3151 1.397 . S
C3150 C3155 1.363 . S
C3151 H3122 0.950 . S
C3151 C3150 1.397 . S
C3151 C3152 1.334 . S
C3152 H3123 0.950 . S
C3152 C3151 1.334 . S
C3152 C3153 1.287 . S
C3153 C3152 1.287 . S
C3153 C3154 1.524 . S
C3153 H3156 0.999 . S
C3154 H3124 0.950 . S
C3154 C3153 1.524 . S
C3154 C3155 1.415 . S
C3155 H3125 0.950 . S
C3155 C3150 1.363 . S
C3155 C3154 1.415 . S
H3156 C3153 0.999 . S
H3157 C3138 0.913 . S
H3158 C3176 0.951 . S
H3159 C3178 0.951 . S
H3160 C3180 0.950 . S
H3161 C3181 0.950 . S
H3162 C3183 0.950 . S
H3163 C3186 0.950 . S
H3164 C3187 0.950 . S
H3165 C3189 0.950 . S
H3166 C3190 0.950 . S
H3167 C3191 0.951 . S
H3168 C3193 0.951 . S
H3169 C3195 0.950 . S
H3170 C3196 0.950 . S
H3171 C3198 0.950 . S
H3172 C3201 0.950 . S
H3173 C3202 0.950 . S
H3174 C3204 0.950 . S
H3175 C3205 0.950 . S
C3176 H3158 0.951 . S
C3176 C3177 1.366 . S
C3176 C3178 1.388 . S
C3177 C3176 1.366 . S
C3177 C3181 1.385 . S
C3178 H3159 0.951 . S
C3178 C3176 1.388 . S
C3178 C3179 1.366 . S
C3179 C3178 1.366 . S
C3179 C3180 1.414 . S
C3179 C3182 1.499 . S
C3180 H3160 0.950 . S
C3180 C3179 1.414 . S
C3180 C3181 1.374 . S
C3181 H3161 0.950 . S
C3181 C3177 1.385 . S
C3181 C3180 1.374 . S
C3182 C3179 1.499 . S
C3182 C3183 1.373 . S
C3182 C3184 1.389 . S
C3183 H3162 0.950 . S
C3183 C3182 1.373 . S
C3183 C3199 1.377 . S
C3184 C3182 1.389 . S
C3184 C3185 1.524 . S
C3184 C3198 1.377 . S
C3185 C3184 1.524 . S
C3185 C3186 1.397 . S
C3185 C3190 1.363 . S
C3186 H3163 0.950 . S
C3186 C3185 1.397 . S
C3186 C3187 1.334 . S
C3187 H3164 0.950 . S
C3187 C3186 1.334 . S
C3187 C3188 1.287 . S
C3188 C3187 1.287 . S
C3188 C3189 1.524 . S
C3188 H3207 0.913 . S
C3189 H3165 0.950 . S
C3189 C3188 1.524 . S
C3189 C3190 1.415 . S
C3190 H3166 0.950 . S
C3190 C3185 1.363 . S
C3190 C3189 1.415 . S
C3191 H3167 0.951 . S
C3191 C3192 1.366 . S
C3191 C3193 1.388 1_455 S
C3192 C3191 1.366 . S
C3192 C3196 1.385 . S
C3193 H3168 0.951 . S
C3193 C3191 1.388 1_655 S
C3193 C3194 1.366 . S
C3194 C3193 1.366 . S
C3194 C3195 1.414 . S
C3194 C3197 1.499 . S
C3195 H3169 0.950 . S
C3195 C3194 1.414 . S
C3195 C3196 1.374 1_655 S
C3196 H3170 0.950 . S
C3196 C3192 1.385 . S
C3196 C3195 1.374 1_455 S
C3197 C3194 1.499 . S
C3197 C3198 1.373 . S
C3197 C3199 1.389 . S
C3198 H3171 0.950 . S
C3198 C3184 1.377 . S
C3198 C3197 1.373 . S
C3199 C3183 1.377 . S
C3199 C3197 1.389 . S
C3199 C3200 1.524 . S
C3200 C3199 1.524 . S
C3200 C3201 1.397 . S
C3200 C3205 1.363 . S
C3201 H3172 0.950 . S
C3201 C3200 1.397 . S
C3201 C3202 1.334 . S
C3202 H3173 0.950 . S
C3202 C3201 1.334 . S
C3202 C3203 1.287 . S
C3203 C3202 1.287 . S
C3203 C3204 1.524 . S
C3203 H3206 0.999 . S
C3204 H3174 0.950 . S
C3204 C3203 1.524 . S
C3204 C3205 1.415 . S
C3205 H3175 0.950 . S
C3205 C3200 1.363 . S
C3205 C3204 1.415 . S
H3206 C3203 0.999 . S
H3207 C3188 0.913 . S
H3208 C3226 0.951 . S
H3209 C3228 0.951 . S
H3210 C3230 0.950 . S
H3211 C3231 0.950 . S
H3212 C3233 0.950 . S
H3213 C3236 0.950 . S
H3214 C3237 0.950 . S
H3215 C3239 0.950 . S
H3216 C3240 0.950 . S
H3217 C3241 0.951 . S
H3218 C3243 0.951 . S
H3219 C3245 0.950 . S
H3220 C3246 0.950 . S
H3221 C3248 0.950 . S
H3222 C3251 0.950 . S
H3223 C3252 0.950 . S
H3224 C3254 0.950 . S
H3225 C3255 0.950 . S
C3226 H3208 0.951 . S
C3226 C3227 1.366 . S
C3226 C3228 1.388 . S
C3227 C3226 1.366 . S
C3227 C3231 1.385 . S
C3228 H3209 0.951 . S
C3228 C3226 1.388 . S
C3228 C3229 1.366 . S
C3229 C3228 1.366 . S
C3229 C3230 1.414 . S
C3229 C3232 1.499 . S
C3230 H3210 0.950 . S
C3230 C3229 1.414 . S
C3230 C3231 1.374 . S
C3231 H3211 0.950 . S
C3231 C3227 1.385 . S
C3231 C3230 1.374 . S
C3232 C3229 1.499 . S
C3232 C3233 1.373 . S
C3232 C3234 1.389 . S
C3233 H3212 0.950 . S
C3233 C3232 1.373 . S
C3233 C3249 1.377 . S
C3234 C3232 1.389 . S
C3234 C3235 1.524 . S
C3234 C3248 1.377 . S
C3235 C3234 1.524 . S
C3235 C3236 1.397 . S
C3235 C3240 1.363 . S
C3236 H3213 0.950 . S
C3236 C3235 1.397 . S
C3236 C3237 1.334 . S
C3237 H3214 0.950 . S
C3237 C3236 1.334 . S
C3237 C3238 1.287 . S
C3238 C3237 1.287 . S
C3238 C3239 1.524 . S
C3238 H3257 0.913 . S
C3239 H3215 0.950 . S
C3239 C3238 1.524 . S
C3239 C3240 1.415 . S
C3240 H3216 0.950 . S
C3240 C3235 1.363 . S
C3240 C3239 1.415 . S
C3241 H3217 0.951 . S
C3241 C3242 1.366 . S
C3241 C3243 1.388 . S
C3242 C3241 1.366 . S
C3242 C3246 1.385 . S
C3243 H3218 0.951 . S
C3243 C3241 1.388 . S
C3243 C3244 1.366 . S
C3244 C3243 1.366 . S
C3244 C3245 1.414 . S
C3244 C3247 1.499 . S
C3245 H3219 0.950 . S
C3245 C3244 1.414 . S
C3245 C3246 1.374 . S
C3246 H3220 0.950 . S
C3246 C3242 1.385 . S
C3246 C3245 1.374 . S
C3247 C3244 1.499 . S
C3247 C3248 1.373 . S
C3247 C3249 1.389 . S
C3248 H3221 0.950 . S
C3248 C3234 1.377 . S
C3248 C3247 1.373 . S
C3249 C3233 1.377 . S
C3249 C3247 1.389 . S
C3249 C3250 1.524 . S
C3250 C3249 1.524 . S
C3250 C3251 1.397 . S
C3250 C3255 1.363 . S
C3251 H3222 0.950 . S
C3251 C3250 1.397 . S
C3251 C3252 1.334 . S
C3252 H3223 0.950 . S
C3252 C3251 1.334 . S
C3252 C3253 1.287 . S
C3253 C3252 1.287 . S
C3253 C3254 1.524 . S
C3253 H3256 0.999 . S
C3254 H3224 0.950 . S
C3254 C3253 1.524 . S
C3254 C3255 1.415 . S
C3255 H3225 0.950 . S
C3255 C3250 1.363 . S
C3255 C3254 1.415 . S
H3256 C3253 0.999 . S
H3257 C3238 0.913 . S
H3258 C3276 0.951 . S
H3259 C3278 0.951 . S
H3260 C3280 0.950 . S
H3261 C3281 0.950 . S
H3262 C3283 0.950 . S
H3263 C3286 0.950 . S
H3264 C3287 0.950 . S
H3265 C3289 0.950 . S
H3266 C3290 0.950 . S
H3267 C3291 0.951 . S
H3268 C3293 0.951 . S
H3269 C3295 0.950 . S
H3270 C3296 0.950 . S
H3271 C3298 0.950 . S
H3272 C3301 0.950 . S
H3273 C3302 0.950 . S
H3274 C3304 0.950 . S
H3275 C3305 0.950 . S
C3276 H3258 0.951 . S
C3276 C3277 1.366 . S
C3276 C3278 1.388 . S
C3277 C3276 1.366 . S
C3277 C3281 1.385 . S
C3278 H3259 0.951 . S
C3278 C3276 1.388 . S
C3278 C3279 1.366 . S
C3279 C3278 1.366 . S
C3279 C3280 1.414 . S
C3279 C3282 1.499 . S
C3280 H3260 0.950 . S
C3280 C3279 1.414 . S
C3280 C3281 1.374 . S
C3281 H3261 0.950 . S
C3281 C3277 1.385 . S
C3281 C3280 1.374 . S
C3282 C3279 1.499 . S
C3282 C3283 1.373 . S
C3282 C3284 1.389 . S
C3283 H3262 0.950 . S
C3283 C3282 1.373 . S
C3283 C3299 1.377 . S
C3284 C3282 1.389 . S
C3284 C3285 1.524 . S
C3284 C3298 1.377 . S
C3285 C3284 1.524 . S
C3285 C3286 1.397 . S
C3285 C3290 1.363 . S
C3286 H3263 0.950 . S
C3286 C3285 1.397 . S
C3286 C3287 1.334 . S
C3287 H3264 0.950 . S
C3287 C3286 1.334 . S
C3287 C3288 1.287 . S
C3288 C3287 1.287 . S
C3288 C3289 1.524 . S
C3288 H3307 0.913 . S
C3289 H3265 0.950 . S
C3289 C3288 1.524 . S
C3289 C3290 1.415 . S
C3290 H3266 0.950 . S
C3290 C3285 1.363 . S
C3290 C3289 1.415 . S
C3291 H3267 0.951 . S
C3291 C3292 1.366 . S
C3291 C3293 1.388 . S
C3292 C3291 1.366 . S
C3292 C3296 1.385 . S
C3293 H3268 0.951 . S
C3293 C3291 1.388 . S
C3293 C3294 1.366 . S
C3294 C3293 1.366 . S
C3294 C3295 1.414 . S
C3294 C3297 1.499 . S
C3295 H3269 0.950 . S
C3295 C3294 1.414 . S
C3295 C3296 1.374 . S
C3296 H3270 0.950 . S
C3296 C3292 1.385 . S
C3296 C3295 1.374 . S
C3297 C3294 1.499 . S
C3297 C3298 1.373 . S
C3297 C3299 1.389 . S
C3298 H3271 0.950 . S
C3298 C3284 1.377 . S
C3298 C3297 1.373 . S
C3299 C3283 1.377 . S
C3299 C3297 1.389 . S
C3299 C3300 1.524 . S
C3300 C3299 1.524 . S
C3300 C3301 1.397 . S
C3300 C3305 1.363 . S
C3301 H3272 0.950 . S
C3301 C3300 1.397 . S
C3301 C3302 1.334 . S
C3302 H3273 0.950 . S
C3302 C3301 1.334 . S
C3302 C3303 1.287 . S
C3303 C3302 1.287 . S
C3303 C3304 1.524 . S
C3303 H3306 0.999 . S
C3304 H3274 0.950 . S
C3304 C3303 1.524 . S
C3304 C3305 1.415 . S
C3305 H3275 0.950 . S
C3305 C3300 1.363 . S
C3305 C3304 1.415 . S
H3306 C3303 0.999 . S
H3307 C3288 0.913 . S
H3308 C3326 0.951 . S
H3309 C3328 0.951 . S
H3310 C3330 0.950 . S
H3311 C3331 0.950 . S
H3312 C3333 0.950 . S
H3313 C3336 0.950 . S
H3314 C3337 0.950 . S
H3315 C3339 0.950 . S
H3316 C3340 0.950 . S
H3317 C3341 0.951 . S
H3318 C3343 0.951 . S
H3319 C3345 0.950 . S
H3320 C3346 0.950 . S
H3321 C3348 0.950 . S
H3322 C3351 0.950 . S
H3323 C3352 0.950 . S
H3324 C3354 0.950 . S
H3325 C3355 0.950 . S
C3326 H3308 0.951 . S
C3326 C3327 1.366 . S
C3326 C3328 1.388 . S
C3327 C3326 1.366 . S
C3327 C3331 1.385 . S
C3328 H3309 0.951 . S
C3328 C3326 1.388 . S
C3328 C3329 1.366 . S
C3329 C3328 1.366 . S
C3329 C3330 1.414 . S
C3329 C3332 1.499 . S
C3330 H3310 0.950 . S
C3330 C3329 1.414 . S
C3330 C3331 1.374 . S
C3331 H3311 0.950 . S
C3331 C3327 1.385 . S
C3331 C3330 1.374 . S
C3332 C3329 1.499 . S
C3332 C3333 1.373 . S
C3332 C3334 1.389 . S
C3333 H3312 0.950 . S
C3333 C3332 1.373 . S
C3333 C3349 1.377 . S
C3334 C3332 1.389 . S
C3334 C3335 1.524 . S
C3334 C3348 1.377 . S
C3335 C3334 1.524 . S
C3335 C3336 1.397 . S
C3335 C3340 1.363 . S
C3336 H3313 0.950 . S
C3336 C3335 1.397 . S
C3336 C3337 1.334 . S
C3337 H3314 0.950 . S
C3337 C3336 1.334 . S
C3337 C3338 1.287 . S
C3338 C3337 1.287 . S
C3338 C3339 1.524 . S
C3338 H3357 0.913 . S
C3339 H3315 0.950 . S
C3339 C3338 1.524 . S
C3339 C3340 1.415 . S
C3340 H3316 0.950 . S
C3340 C3335 1.363 . S
C3340 C3339 1.415 . S
C3341 H3317 0.951 . S
C3341 C3342 1.366 . S
C3341 C3343 1.388 . S
C3342 C3341 1.366 . S
C3342 C3346 1.385 . S
C3343 H3318 0.951 . S
C3343 C3341 1.388 . S
C3343 C3344 1.366 . S
C3344 C3343 1.366 . S
C3344 C3345 1.414 . S
C3344 C3347 1.499 . S
C3345 H3319 0.950 . S
C3345 C3344 1.414 . S
C3345 C3346 1.374 . S
C3346 H3320 0.950 . S
C3346 C3342 1.385 . S
C3346 C3345 1.374 . S
C3347 C3344 1.499 . S
C3347 C3348 1.373 . S
C3347 C3349 1.389 . S
C3348 H3321 0.950 . S
C3348 C3334 1.377 . S
C3348 C3347 1.373 . S
C3349 C3333 1.377 . S
C3349 C3347 1.389 . S
C3349 C3350 1.524 . S
C3350 C3349 1.524 . S
C3350 C3351 1.397 . S
C3350 C3355 1.363 . S
C3351 H3322 0.950 . S
C3351 C3350 1.397 . S
C3351 C3352 1.334 . S
C3352 H3323 0.950 . S
C3352 C3351 1.334 . S
C3352 C3353 1.287 . S
C3353 C3352 1.287 . S
C3353 C3354 1.524 . S
C3353 H3356 0.999 . S
C3354 H3324 0.950 . S
C3354 C3353 1.524 . S
C3354 C3355 1.415 . S
C3355 H3325 0.950 . S
C3355 C3350 1.363 . S
C3355 C3354 1.415 . S
H3356 C3353 0.999 . S
H3357 C3338 0.913 . S
H3358 C3376 0.951 . S
H3359 C3378 0.951 . S
H3360 C3380 0.950 . S
H3361 C3381 0.950 . S
H3362 C3383 0.950 . S
H3363 C3386 0.950 . S
H3364 C3387 0.950 . S
H3365 C3389 0.950 . S
H3366 C3390 0.950 . S
H3367 C3391 0.951 . S
H3368 C3393 0.951 . S
H3369 C3395 0.950 . S
H3370 C3396 0.950 . S
H3371 C3398 0.950 . S
H3372 C3401 0.950 . S
H3373 C3402 0.950 . S
H3374 C3404 0.950 . S
H3375 C3405 0.950 . S
C3376 H3358 0.951 . S
C3376 C3377 1.366 . S
C3376 C3378 1.388 . S
C3377 C3376 1.366 . S
C3377 C3381 1.385 . S
C3378 H3359 0.951 . S
C3378 C3376 1.388 . S
C3378 C3379 1.366 . S
C3379 C3378 1.366 . S
C3379 C3380 1.414 . S
C3379 C3382 1.499 . S
C3380 H3360 0.950 . S
C3380 C3379 1.414 . S
C3380 C3381 1.374 . S
C3381 H3361 0.950 . S
C3381 C3377 1.385 . S
C3381 C3380 1.374 . S
C3382 C3379 1.499 . S
C3382 C3383 1.373 . S
C3382 C3384 1.389 . S
C3383 H3362 0.950 . S
C3383 C3382 1.373 . S
C3383 C3399 1.377 . S
C3384 C3382 1.389 . S
C3384 C3385 1.524 . S
C3384 C3398 1.377 . S
C3385 C3384 1.524 . S
C3385 C3386 1.397 . S
C3385 C3390 1.363 . S
C3386 H3363 0.950 . S
C3386 C3385 1.397 . S
C3386 C3387 1.334 . S
C3387 H3364 0.950 . S
C3387 C3386 1.334 . S
C3387 C3388 1.287 . S
C3388 C3387 1.287 . S
C3388 C3389 1.524 . S
C3388 H3407 0.913 . S
C3389 H3365 0.950 . S
C3389 C3388 1.524 . S
C3389 C3390 1.415 . S
C3390 H3366 0.950 . S
C3390 C3385 1.363 . S
C3390 C3389 1.415 . S
C3391 H3367 0.951 . S
C3391 C3392 1.366 . S
C3391 C3393 1.388 . S
C3392 C3391 1.366 . S
C3392 C3396 1.385 . S
C3393 H3368 0.951 . S
C3393 C3391 1.388 . S
C3393 C3394 1.366 . S
C3394 C3393 1.366 . S
C3394 C3395 1.414 . S
C3394 C3397 1.499 . S
C3395 H3369 0.950 . S
C3395 C3394 1.414 . S
C3395 C3396 1.374 . S
C3396 H3370 0.950 . S
C3396 C3392 1.385 . S
C3396 C3395 1.374 . S
C3397 C3394 1.499 . S
C3397 C3398 1.373 . S
C3397 C3399 1.389 . S
C3398 H3371 0.950 . S
C3398 C3384 1.377 . S
C3398 C3397 1.373 . S
C3399 C3383 1.377 . S
C3399 C3397 1.389 . S
C3399 C3400 1.524 . S
C3400 C3399 1.524 . S
C3400 C3401 1.397 . S
C3400 C3405 1.363 . S
C3401 H3372 0.950 . S
C3401 C3400 1.397 . S
C3401 C3402 1.334 . S
C3402 H3373 0.950 . S
C3402 C3401 1.334 . S
C3402 C3403 1.287 . S
C3403 C3402 1.287 . S
C3403 C3404 1.524 . S
C3403 H3406 0.999 . S
C3404 H3374 0.950 . S
C3404 C3403 1.524 . S
C3404 C3405 1.415 . S
C3405 H3375 0.950 . S
C3405 C3400 1.363 . S
C3405 C3404 1.415 . S
H3406 C3403 0.999 . S
H3407 C3388 0.913 . S
H3408 C3426 0.951 . S
H3409 C3428 0.951 . S
H3410 C3430 0.950 . S
H3411 C3431 0.950 . S
H3412 C3433 0.950 . S
H3413 C3436 0.950 . S
H3414 C3437 0.950 . S
H3415 C3439 0.950 . S
H3416 C3440 0.950 . S
H3417 C3441 0.951 . S
H3418 C3443 0.951 . S
H3419 C3445 0.950 . S
H3420 C3446 0.950 . S
H3421 C3448 0.950 . S
H3422 C3451 0.950 . S
H3423 C3452 0.950 1_556 S
H3424 C3454 0.956 . S
H3425 C3455 0.950 . S
C3426 H3408 0.951 . S
C3426 C3427 1.366 . S
C3426 C3428 1.388 . S
C3427 C3426 1.366 . S
C3427 C3431 1.385 . S
C3428 H3409 0.951 . S
C3428 C3426 1.388 . S
C3428 C3429 1.366 . S
C3429 C3428 1.366 . S
C3429 C3430 1.414 . S
C3429 C3432 1.499 . S
C3430 H3410 0.950 . S
C3430 C3429 1.414 . S
C3430 C3431 1.374 . S
C3431 H3411 0.950 . S
C3431 C3427 1.385 . S
C3431 C3430 1.374 . S
C3432 C3429 1.499 . S
C3432 C3433 1.373 . S
C3432 C3434 1.389 . S
C3433 H3412 0.950 . S
C3433 C3432 1.373 . S
C3433 C3449 1.377 . S
C3434 C3432 1.389 . S
C3434 C3435 1.524 . S
C3434 C3448 1.377 . S
C3435 C3434 1.524 . S
C3435 C3436 1.397 . S
C3435 C3440 1.363 . S
C3436 H3413 0.950 . S
C3436 C3435 1.397 . S
C3436 C3437 1.334 . S
C3437 H3414 0.950 . S
C3437 C3436 1.334 . S
C3437 C3438 1.287 . S
C3438 C3437 1.287 . S
C3438 C3439 1.524 . S
C3438 H3457 0.913 . S
C3439 H3415 0.950 . S
C3439 C3438 1.524 . S
C3439 C3440 1.415 . S
C3440 H3416 0.950 . S
C3440 C3435 1.363 . S
C3440 C3439 1.415 . S
C3441 H3417 0.951 . S
C3441 C3442 1.366 . S
C3441 C3443 1.388 . S
C3442 C3441 1.366 . S
C3442 C3446 1.385 . S
C3443 H3418 0.951 . S
C3443 C3441 1.388 . S
C3443 C3444 1.366 . S
C3444 C3443 1.366 . S
C3444 C3445 1.414 . S
C3444 C3447 1.499 . S
C3445 H3419 0.950 . S
C3445 C3444 1.414 . S
C3445 C3446 1.374 . S
C3446 H3420 0.950 . S
C3446 C3442 1.385 . S
C3446 C3445 1.374 . S
C3447 C3444 1.499 . S
C3447 C3448 1.373 . S
C3447 C3449 1.389 . S
C3448 H3421 0.950 . S
C3448 C3434 1.377 . S
C3448 C3447 1.373 . S
C3449 C3433 1.377 . S
C3449 C3447 1.389 . S
C3449 C3450 1.524 . S
C3450 C3449 1.524 . S
C3450 C3451 1.397 . S
C3450 C3455 1.363 . S
C3451 H3422 0.950 . S
C3451 C3450 1.397 . S
C3451 C3452 1.334 . S
C3452 H3423 0.950 1_554 S
C3452 C3451 1.334 . S
C3452 C3453 1.287 . S
C3453 C3452 1.287 . S
C3453 C3454 1.523 1_455 S
C3453 H3456 0.999 1_455 S
C3454 H3424 0.956 . S
C3454 C3453 1.523 1_655 S
C3454 C3455 1.409 1_655 S
C3455 H3425 0.950 . S
C3455 C3450 1.363 . S
C3455 C3454 1.409 1_455 S
H3456 C3453 0.999 1_655 S
H3457 C3438 0.913 . S
H3458 C3476 0.951 . S
H3459 C3478 0.951 . S
H3460 C3480 0.950 . S
H3461 C3481 0.950 . S
H3462 C3483 0.950 . S
H3463 C3486 0.950 . S
H3464 C3487 0.950 . S
H3465 C3489 0.950 . S
H3466 C3490 0.950 . S
H3467 C3491 0.951 . S
H3468 C3493 0.951 . S
H3469 C3495 0.950 . S
H3470 C3496 0.950 . S
H3471 C3498 0.950 . S
H3472 C3501 0.950 . S
H3473 C3502 0.950 . S
H3474 C3504 0.950 . S
H3475 C3505 0.950 . S
C3476 H3458 0.951 . S
C3476 C3477 1.366 . S
C3476 C3478 1.388 . S
C3477 C3476 1.366 . S
C3477 C3481 1.385 . S
C3478 H3459 0.951 . S
C3478 C3476 1.388 . S
C3478 C3479 1.366 . S
C3479 C3478 1.366 . S
C3479 C3480 1.414 . S
C3479 C3482 1.499 . S
C3480 H3460 0.950 . S
C3480 C3479 1.414 . S
C3480 C3481 1.374 . S
C3481 H3461 0.950 . S
C3481 C3477 1.385 . S
C3481 C3480 1.374 . S
C3482 C3479 1.499 . S
C3482 C3483 1.373 . S
C3482 C3484 1.389 . S
C3483 H3462 0.950 . S
C3483 C3482 1.373 . S
C3483 C3499 1.377 . S
C3484 C3482 1.389 . S
C3484 C3485 1.524 . S
C3484 C3498 1.377 . S
C3485 C3484 1.524 . S
C3485 C3486 1.397 . S
C3485 C3490 1.363 . S
C3486 H3463 0.950 . S
C3486 C3485 1.397 . S
C3486 C3487 1.334 . S
C3487 H3464 0.950 . S
C3487 C3486 1.334 . S
C3487 C3488 1.287 . S
C3488 C3487 1.287 . S
C3488 C3489 1.524 . S
C3488 H3507 0.913 . S
C3489 H3465 0.950 . S
C3489 C3488 1.524 . S
C3489 C3490 1.415 . S
C3490 H3466 0.950 . S
C3490 C3485 1.363 . S
C3490 C3489 1.415 . S
C3491 H3467 0.951 . S
C3491 C3492 1.366 . S
C3491 C3493 1.388 . S
C3492 C3491 1.366 . S
C3492 C3496 1.385 . S
C3493 H3468 0.951 . S
C3493 C3491 1.388 . S
C3493 C3494 1.366 . S
C3494 C3493 1.366 . S
C3494 C3495 1.414 . S
C3494 C3497 1.499 . S
C3495 H3469 0.950 . S
C3495 C3494 1.414 . S
C3495 C3496 1.374 . S
C3496 H3470 0.950 . S
C3496 C3492 1.385 . S
C3496 C3495 1.374 . S
C3497 C3494 1.499 . S
C3497 C3498 1.373 . S
C3497 C3499 1.389 . S
C3498 H3471 0.950 . S
C3498 C3484 1.377 . S
C3498 C3497 1.373 . S
C3499 C3483 1.377 . S
C3499 C3497 1.389 . S
C3499 C3500 1.524 . S
C3500 C3499 1.524 . S
C3500 C3501 1.397 . S
C3500 C3505 1.363 . S
C3501 H3472 0.950 . S
C3501 C3500 1.397 . S
C3501 C3502 1.334 . S
C3502 H3473 0.950 . S
C3502 C3501 1.334 . S
C3502 C3503 1.287 . S
C3503 C3502 1.287 . S
C3503 C3504 1.524 . S
C3503 H3506 0.999 . S
C3504 H3474 0.950 . S
C3504 C3503 1.524 . S
C3504 C3505 1.415 . S
C3505 H3475 0.950 . S
C3505 C3500 1.363 . S
C3505 C3504 1.415 . S
H3506 C3503 0.999 . S
H3507 C3488 0.913 . S
H3508 C3526 0.951 . S
H3509 C3528 0.951 . S
H3510 C3530 0.950 . S
H3511 C3531 0.950 . S
H3512 C3533 0.950 . S
H3513 C3536 0.950 . S
H3514 C3537 0.950 . S
H3515 C3539 0.950 . S
H3516 C3540 0.950 . S
H3517 C3541 0.951 . S
H3518 C3543 0.951 . S
H3519 C3545 0.950 . S
H3520 C3546 0.950 . S
H3521 C3548 0.950 . S
H3522 C3551 0.950 . S
H3523 C3552 0.950 . S
H3524 C3554 0.950 . S
H3525 C3555 0.950 . S
C3526 H3508 0.951 . S
C3526 C3527 1.366 . S
C3526 C3528 1.388 . S
C3527 C3526 1.366 . S
C3527 C3531 1.385 . S
C3528 H3509 0.951 . S
C3528 C3526 1.388 . S
C3528 C3529 1.366 . S
C3529 C3528 1.366 . S
C3529 C3530 1.414 . S
C3529 C3532 1.499 . S
C3530 H3510 0.950 . S
C3530 C3529 1.414 . S
C3530 C3531 1.374 . S
C3531 H3511 0.950 . S
C3531 C3527 1.385 . S
C3531 C3530 1.374 . S
C3532 C3529 1.499 . S
C3532 C3533 1.373 . S
C3532 C3534 1.389 . S
C3533 H3512 0.950 . S
C3533 C3532 1.373 . S
C3533 C3549 1.377 . S
C3534 C3532 1.389 . S
C3534 C3535 1.524 . S
C3534 C3548 1.377 . S
C3535 C3534 1.524 . S
C3535 C3536 1.397 . S
C3535 C3540 1.363 . S
C3536 H3513 0.950 . S
C3536 C3535 1.397 . S
C3536 C3537 1.334 . S
C3537 H3514 0.950 . S
C3537 C3536 1.334 . S
C3537 C3538 1.287 . S
C3538 C3537 1.287 . S
C3538 C3539 1.524 . S
C3538 H3557 0.913 . S
C3539 H3515 0.950 . S
C3539 C3538 1.524 . S
C3539 C3540 1.415 . S
C3540 H3516 0.950 . S
C3540 C3535 1.363 . S
C3540 C3539 1.415 . S
C3541 H3517 0.951 . S
C3541 C3542 1.366 . S
C3541 C3543 1.388 . S
C3542 C3541 1.366 . S
C3542 C3546 1.385 . S
C3543 H3518 0.951 . S
C3543 C3541 1.388 . S
C3543 C3544 1.366 . S
C3544 C3543 1.366 . S
C3544 C3545 1.414 . S
C3544 C3547 1.499 . S
C3545 H3519 0.950 . S
C3545 C3544 1.414 . S
C3545 C3546 1.374 . S
C3546 H3520 0.950 . S
C3546 C3542 1.385 . S
C3546 C3545 1.374 . S
C3547 C3544 1.499 . S
C3547 C3548 1.373 . S
C3547 C3549 1.389 . S
C3548 H3521 0.950 . S
C3548 C3534 1.377 . S
C3548 C3547 1.373 . S
C3549 C3533 1.377 . S
C3549 C3547 1.389 . S
C3549 C3550 1.524 . S
C3550 C3549 1.524 . S
C3550 C3551 1.397 . S
C3550 C3555 1.363 . S
C3551 H3522 0.950 . S
C3551 C3550 1.397 . S
C3551 C3552 1.334 . S
C3552 H3523 0.950 . S
C3552 C3551 1.334 . S
C3552 C3553 1.287 . S
C3553 C3552 1.287 . S
C3553 C3554 1.524 . S
C3553 H3556 0.999 . S
C3554 H3524 0.950 . S
C3554 C3553 1.524 . S
C3554 C3555 1.415 . S
C3555 H3525 0.950 . S
C3555 C3550 1.363 . S
C3555 C3554 1.415 . S
H3556 C3553 0.999 . S
H3557 C3538 0.913 . S
H3558 C3576 0.951 . S
H3559 C3578 0.951 . S
H3560 C3580 0.950 . S
H3561 C3581 0.950 . S
H3562 C3583 0.950 . S
H3563 C3586 0.950 . S
H3564 C3587 0.950 . S
H3565 C3589 0.950 . S
H3566 C3590 0.950 . S
H3567 C3591 0.951 . S
H3568 C3593 0.951 . S
H3569 C3595 0.950 . S
H3570 C3596 0.950 . S
H3571 C3598 0.950 . S
H3572 C3601 0.950 . S
H3573 C3602 0.950 . S
H3574 C3604 0.950 . S
H3575 C3605 0.950 . S
C3576 H3558 0.951 . S
C3576 C3577 1.366 . S
C3576 C3578 1.388 . S
C3577 C3576 1.366 . S
C3577 C3581 1.385 . S
C3578 H3559 0.951 . S
C3578 C3576 1.388 . S
C3578 C3579 1.366 . S
C3579 C3578 1.366 . S
C3579 C3580 1.414 . S
C3579 C3582 1.499 . S
C3580 H3560 0.950 . S
C3580 C3579 1.414 . S
C3580 C3581 1.374 . S
C3581 H3561 0.950 . S
C3581 C3577 1.385 . S
C3581 C3580 1.374 . S
C3582 C3579 1.499 . S
C3582 C3583 1.373 . S
C3582 C3584 1.389 . S
C3583 H3562 0.950 . S
C3583 C3582 1.373 . S
C3583 C3599 1.377 . S
C3584 C3582 1.389 . S
C3584 C3585 1.524 . S
C3584 C3598 1.377 . S
C3585 C3584 1.524 . S
C3585 C3586 1.397 . S
C3585 C3590 1.363 . S
C3586 H3563 0.950 . S
C3586 C3585 1.397 . S
C3586 C3587 1.334 . S
C3587 H3564 0.950 . S
C3587 C3586 1.334 . S
C3587 C3588 1.287 . S
C3588 C3587 1.287 . S
C3588 C3589 1.524 . S
C3588 H3607 0.913 . S
C3589 H3565 0.950 . S
C3589 C3588 1.524 . S
C3589 C3590 1.415 . S
C3590 H3566 0.950 . S
C3590 C3585 1.363 . S
C3590 C3589 1.415 . S
C3591 H3567 0.951 . S
C3591 C3592 1.366 . S
C3591 C3593 1.388 . S
C3592 C3591 1.366 . S
C3592 C3596 1.385 . S
C3593 H3568 0.951 . S
C3593 C3591 1.388 . S
C3593 C3594 1.366 . S
C3594 C3593 1.366 . S
C3594 C3595 1.414 . S
C3594 C3597 1.499 . S
C3595 H3569 0.950 . S
C3595 C3594 1.414 . S
C3595 C3596 1.374 . S
C3596 H3570 0.950 . S
C3596 C3592 1.385 . S
C3596 C3595 1.374 . S
C3597 C3594 1.499 . S
C3597 C3598 1.373 . S
C3597 C3599 1.389 . S
C3598 H3571 0.950 . S
C3598 C3584 1.377 . S
C3598 C3597 1.373 . S
C3599 C3583 1.377 . S
C3599 C3597 1.389 . S
C3599 C3600 1.524 . S
C3600 C3599 1.524 . S
C3600 C3601 1.397 . S
C3600 C3605 1.363 . S
C3601 H3572 0.950 . S
C3601 C3600 1.397 . S
C3601 C3602 1.334 . S
C3602 H3573 0.950 . S
C3602 C3601 1.334 . S
C3602 C3603 1.287 . S
C3603 C3602 1.287 . S
C3603 C3604 1.524 . S
C3603 H3606 0.999 . S
C3604 H3574 0.950 . S
C3604 C3603 1.524 . S
C3604 C3605 1.415 . S
C3605 H3575 0.950 . S
C3605 C3600 1.363 . S
C3605 C3604 1.415 . S
H3606 C3603 0.999 . S
H3607 C3588 0.913 . S
H3608 C3626 0.951 . S
H3609 C3628 0.951 . S
H3610 C3630 0.950 . S
H3611 C3631 0.950 . S
H3612 C3633 0.950 . S
H3613 C3636 0.950 . S
H3614 C3637 0.950 . S
H3615 C3639 0.950 . S
H3616 C3640 0.950 . S
H3617 C3641 0.951 . S
H3618 C3643 0.951 . S
H3619 C3645 0.950 . S
H3620 C3646 0.950 . S
H3621 C3648 0.950 . S
H3622 C3651 0.950 . S
H3623 C3652 0.950 . S
H3624 C3654 0.950 1_655 S
H3625 C3655 0.950 . S
C3626 H3608 0.951 . S
C3626 C3627 1.366 . S
C3626 C3628 1.388 . S
C3627 C3626 1.366 . S
C3627 C3631 1.385 . S
C3628 H3609 0.951 . S
C3628 C3626 1.388 . S
C3628 C3629 1.366 . S
C3629 C3628 1.366 . S
C3629 C3630 1.414 . S
C3629 C3632 1.499 . S
C3630 H3610 0.950 . S
C3630 C3629 1.414 . S
C3630 C3631 1.374 . S
C3631 H3611 0.950 . S
C3631 C3627 1.385 . S
C3631 C3630 1.374 . S
C3632 C3629 1.499 . S
C3632 C3633 1.373 . S
C3632 C3634 1.389 . S
C3633 H3612 0.950 . S
C3633 C3632 1.373 . S
C3633 C3649 1.377 . S
C3634 C3632 1.389 . S
C3634 C3635 1.524 . S
C3634 C3648 1.377 . S
C3635 C3634 1.524 . S
C3635 C3636 1.397 . S
C3635 C3640 1.363 . S
C3636 H3613 0.950 . S
C3636 C3635 1.397 . S
C3636 C3637 1.334 . S
C3637 H3614 0.950 . S
C3637 C3636 1.334 . S
C3637 C3638 1.287 . S
C3638 C3637 1.287 . S
C3638 C3639 1.524 . S
C3638 H3657 0.913 . S
C3639 H3615 0.950 . S
C3639 C3638 1.524 . S
C3639 C3640 1.415 . S
C3640 H3616 0.950 . S
C3640 C3635 1.363 . S
C3640 C3639 1.415 . S
C3641 H3617 0.951 . S
C3641 C3642 1.366 . S
C3641 C3643 1.388 . S
C3642 C3641 1.366 . S
C3642 C3646 1.385 . S
C3643 H3618 0.951 . S
C3643 C3641 1.388 . S
C3643 C3644 1.366 . S
C3644 C3643 1.366 . S
C3644 C3645 1.414 . S
C3644 C3647 1.499 . S
C3645 H3619 0.950 . S
C3645 C3644 1.414 . S
C3645 C3646 1.374 . S
C3646 H3620 0.950 . S
C3646 C3642 1.385 . S
C3646 C3645 1.374 . S
C3647 C3644 1.499 . S
C3647 C3648 1.373 . S
C3647 C3649 1.389 . S
C3648 H3621 0.950 . S
C3648 C3634 1.377 . S
C3648 C3647 1.373 . S
C3649 C3633 1.377 . S
C3649 C3647 1.389 . S
C3649 C3650 1.524 . S
C3650 C3649 1.524 . S
C3650 C3651 1.397 . S
C3650 C3655 1.363 . S
C3651 H3622 0.950 . S
C3651 C3650 1.397 . S
C3651 C3652 1.334 . S
C3652 H3623 0.950 . S
C3652 C3651 1.334 . S
C3652 C3653 1.287 . S
C3653 C3652 1.287 . S
C3653 C3654 1.524 . S
C3653 H3656 0.999 . S
C3654 H3624 0.950 1_455 S
C3654 C3653 1.524 . S
C3654 C3655 1.415 . S
C3655 H3625 0.950 . S
C3655 C3650 1.363 . S
C3655 C3654 1.415 . S
H3656 C3653 0.999 . S
H3657 C3638 0.913 . S
H3658 C3676 0.951 . S
H3659 C3678 0.951 . S
H3660 C3680 0.950 . S
H3661 C3681 0.950 . S
H3662 C3683 0.950 . S
H3663 C3686 0.950 . S
H3664 C3687 0.950 . S
H3665 C3689 0.950 . S
H3666 C3690 0.950 . S
H3667 C3691 0.951 . S
H3668 C3693 0.951 . S
H3669 C3695 0.950 . S
H3670 C3696 0.950 . S
H3671 C3698 0.950 . S
H3672 C3701 0.950 . S
H3673 C3702 0.950 . S
H3674 C3704 0.950 . S
H3675 C3705 0.950 . S
C3676 H3658 0.951 . S
C3676 C3677 1.366 . S
C3676 C3678 1.388 . S
C3677 C3676 1.366 . S
C3677 C3681 1.385 . S
C3678 H3659 0.951 . S
C3678 C3676 1.388 . S
C3678 C3679 1.366 . S
C3679 C3678 1.366 . S
C3679 C3680 1.414 . S
C3679 C3682 1.499 . S
C3680 H3660 0.950 . S
C3680 C3679 1.414 . S
C3680 C3681 1.374 . S
C3681 H3661 0.950 . S
C3681 C3677 1.385 . S
C3681 C3680 1.374 . S
C3682 C3679 1.499 . S
C3682 C3683 1.373 . S
C3682 C3684 1.389 . S
C3683 H3662 0.950 . S
C3683 C3682 1.373 . S
C3683 C3699 1.377 . S
C3684 C3682 1.389 . S
C3684 C3685 1.524 . S
C3684 C3698 1.377 . S
C3685 C3684 1.524 . S
C3685 C3686 1.397 . S
C3685 C3690 1.363 . S
C3686 H3663 0.950 . S
C3686 C3685 1.397 . S
C3686 C3687 1.334 . S
C3687 H3664 0.950 . S
C3687 C3686 1.334 . S
C3687 C3688 1.287 . S
C3688 C3687 1.287 . S
C3688 C3689 1.524 . S
C3688 H3707 0.913 . S
C3689 H3665 0.950 . S
C3689 C3688 1.524 . S
C3689 C3690 1.415 . S
C3690 H3666 0.950 . S
C3690 C3685 1.363 . S
C3690 C3689 1.415 . S
C3691 H3667 0.951 . S
C3691 C3692 1.366 . S
C3691 C3693 1.388 . S
C3692 C3691 1.366 . S
C3692 C3696 1.385 . S
C3693 H3668 0.951 . S
C3693 C3691 1.388 . S
C3693 C3694 1.366 . S
C3694 C3693 1.366 . S
C3694 C3695 1.414 . S
C3694 C3697 1.499 . S
C3695 H3669 0.950 . S
C3695 C3694 1.414 . S
C3695 C3696 1.374 . S
C3696 H3670 0.950 . S
C3696 C3692 1.385 . S
C3696 C3695 1.374 . S
C3697 C3694 1.499 . S
C3697 C3698 1.373 . S
C3697 C3699 1.389 . S
C3698 H3671 0.950 . S
C3698 C3684 1.377 . S
C3698 C3697 1.373 . S
C3699 C3683 1.377 . S
C3699 C3697 1.389 . S
C3699 C3700 1.524 . S
C3700 C3699 1.524 . S
C3700 C3701 1.397 . S
C3700 C3705 1.363 . S
C3701 H3672 0.950 . S
C3701 C3700 1.397 . S
C3701 C3702 1.334 . S
C3702 H3673 0.950 . S
C3702 C3701 1.334 . S
C3702 C3703 1.287 . S
C3703 C3702 1.287 . S
C3703 C3704 1.524 . S
C3703 H3706 0.999 . S
C3704 H3674 0.950 . S
C3704 C3703 1.524 . S
C3704 C3705 1.415 . S
C3705 H3675 0.950 . S
C3705 C3700 1.363 . S
C3705 C3704 1.415 . S
H3706 C3703 0.999 . S
H3707 C3688 0.913 . S
H3708 C3726 0.951 . S
H3709 C3728 0.951 . S
H3710 C3730 0.950 . S
H3711 C3731 0.950 . S
H3712 C3733 0.950 . S
H3713 C3736 0.950 . S
H3714 C3737 0.950 . S
H3715 C3739 0.950 . S
H3716 C3740 0.950 . S
H3717 C3741 0.947 . S
H3718 C3743 0.951 . S
H3719 C3745 0.950 1_554 S
H3720 C3746 0.950 . S
H3721 C3748 0.950 . S
H3722 C3751 0.950 . S
H3723 C3752 0.950 . S
H3724 C3754 0.930 1_545 S
H3725 C3755 0.950 . S
C3726 H3708 0.951 . S
C3726 C3727 1.366 . S
C3726 C3728 1.388 . S
C3727 C3726 1.366 . S
C3727 C3731 1.385 . S
C3728 H3709 0.951 . S
C3728 C3726 1.388 . S
C3728 C3729 1.366 . S
C3729 C3728 1.366 . S
C3729 C3730 1.414 . S
C3729 C3732 1.499 . S
C3730 H3710 0.950 . S
C3730 C3729 1.414 . S
C3730 C3731 1.374 . S
C3731 H3711 0.950 . S
C3731 C3727 1.385 . S
C3731 C3730 1.374 . S
C3732 C3729 1.499 . S
C3732 C3733 1.373 . S
C3732 C3734 1.389 . S
C3733 H3712 0.950 . S
C3733 C3732 1.373 . S
C3733 C3749 1.377 . S
C3734 C3732 1.389 . S
C3734 C3735 1.524 . S
C3734 C3748 1.377 . S
C3735 C3734 1.524 . S
C3735 C3736 1.397 . S
C3735 C3740 1.363 . S
C3736 H3713 0.950 . S
C3736 C3735 1.397 . S
C3736 C3737 1.334 . S
C3737 H3714 0.950 . S
C3737 C3736 1.334 . S
C3737 C3738 1.287 . S
C3738 C3737 1.287 . S
C3738 C3739 1.524 . S
C3738 H3757 0.913 . S
C3739 H3715 0.950 . S
C3739 C3738 1.524 . S
C3739 C3740 1.415 . S
C3740 H3716 0.950 . S
C3740 C3735 1.363 . S
C3740 C3739 1.415 . S
C3741 H3717 0.947 . S
C3741 C3742 1.366 . S
C3741 C3743 1.391 1_545 S
C3742 C3741 1.366 . S
C3742 C3746 1.385 1_546 S
C3743 H3718 0.951 . S
C3743 C3741 1.391 1_565 S
C3743 C3744 1.366 . S
C3744 C3743 1.366 . S
C3744 C3745 1.414 . S
C3744 C3747 1.499 . S
C3745 H3719 0.950 1_556 S
C3745 C3744 1.414 . S
C3745 C3746 1.374 1_556 S
C3746 H3720 0.950 . S
C3746 C3742 1.385 1_564 S
C3746 C3745 1.374 1_554 S
C3747 C3744 1.499 . S
C3747 C3748 1.373 . S
C3747 C3749 1.389 . S
C3748 H3721 0.950 . S
C3748 C3734 1.377 . S
C3748 C3747 1.373 . S
C3749 C3733 1.377 . S
C3749 C3747 1.389 . S
C3749 C3750 1.524 . S
C3750 C3749 1.524 . S
C3750 C3751 1.397 . S
C3750 C3755 1.363 . S
C3751 H3722 0.950 . S
C3751 C3750 1.397 . S
C3751 C3752 1.334 1_565 S
C3752 H3723 0.950 . S
C3752 C3751 1.334 1_545 S
C3752 C3753 1.287 . S
C3753 C3752 1.287 . S
C3753 C3754 1.524 1_545 S
C3753 H3756 0.999 . S
C3754 H3724 0.930 1_565 S
C3754 C3753 1.524 1_565 S
C3754 C3755 1.415 . S
C3755 H3725 0.950 . S
C3755 C3750 1.363 . S
C3755 C3754 1.415 . S
H3756 C3753 0.999 . S
H3757 C3738 0.913 . S
H3758 C3776 0.951 . S
H3759 C3778 0.951 . S
H3760 C3780 0.950 . S
H3761 C3781 0.950 . S
H3762 C3783 0.950 . S
H3763 C3786 0.950 . S
H3764 C3787 0.950 . S
H3765 C3789 0.950 . S
H3766 C3790 0.950 . S
H3767 C3791 0.951 . S
H3768 C3793 0.951 . S
H3769 C3795 0.950 . S
H3770 C3796 0.950 . S
H3771 C3798 0.950 . S
H3772 C3801 0.950 . S
H3773 C3802 0.950 . S
H3774 C3804 0.950 . S
H3775 C3805 0.950 . S
C3776 H3758 0.951 . S
C3776 C3777 1.366 . S
C3776 C3778 1.388 . S
C3777 C3776 1.366 . S
C3777 C3781 1.385 . S
C3778 H3759 0.951 . S
C3778 C3776 1.388 . S
C3778 C3779 1.366 . S
C3779 C3778 1.366 . S
C3779 C3780 1.414 . S
C3779 C3782 1.499 . S
C3780 H3760 0.950 . S
C3780 C3779 1.414 . S
C3780 C3781 1.374 . S
C3781 H3761 0.950 . S
C3781 C3777 1.385 . S
C3781 C3780 1.374 . S
C3782 C3779 1.499 . S
C3782 C3783 1.373 . S
C3782 C3784 1.389 . S
C3783 H3762 0.950 . S
C3783 C3782 1.373 . S
C3783 C3799 1.377 . S
C3784 C3782 1.389 . S
C3784 C3785 1.524 . S
C3784 C3798 1.377 . S
C3785 C3784 1.524 . S
C3785 C3786 1.397 . S
C3785 C3790 1.363 . S
C3786 H3763 0.950 . S
C3786 C3785 1.397 . S
C3786 C3787 1.334 . S
C3787 H3764 0.950 . S
C3787 C3786 1.334 . S
C3787 C3788 1.287 . S
C3788 C3787 1.287 . S
C3788 C3789 1.524 . S
C3788 H3807 0.913 . S
C3789 H3765 0.950 . S
C3789 C3788 1.524 . S
C3789 C3790 1.415 . S
C3790 H3766 0.950 . S
C3790 C3785 1.363 . S
C3790 C3789 1.415 . S
C3791 H3767 0.951 . S
C3791 C3792 1.366 . S
C3791 C3793 1.388 . S
C3792 C3791 1.366 . S
C3792 C3796 1.385 . S
C3793 H3768 0.951 . S
C3793 C3791 1.388 . S
C3793 C3794 1.366 . S
C3794 C3793 1.366 . S
C3794 C3795 1.414 . S
C3794 C3797 1.499 . S
C3795 H3769 0.950 . S
C3795 C3794 1.414 . S
C3795 C3796 1.374 . S
C3796 H3770 0.950 . S
C3796 C3792 1.385 . S
C3796 C3795 1.374 . S
C3797 C3794 1.499 . S
C3797 C3798 1.373 . S
C3797 C3799 1.389 . S
C3798 H3771 0.950 . S
C3798 C3784 1.377 . S
C3798 C3797 1.373 . S
C3799 C3783 1.377 . S
C3799 C3797 1.389 . S
C3799 C3800 1.524 . S
C3800 C3799 1.524 . S
C3800 C3801 1.397 . S
C3800 C3805 1.363 . S
C3801 H3772 0.950 . S
C3801 C3800 1.397 . S
C3801 C3802 1.334 . S
C3802 H3773 0.950 . S
C3802 C3801 1.334 . S
C3802 C3803 1.287 . S
C3803 C3802 1.287 . S
C3803 C3804 1.524 . S
C3803 H3806 0.999 . S
C3804 H3774 0.950 . S
C3804 C3803 1.524 . S
C3804 C3805 1.415 . S
C3805 H3775 0.950 . S
C3805 C3800 1.363 . S
C3805 C3804 1.415 . S
H3806 C3803 0.999 . S
H3807 C3788 0.913 . S
H3808 C3826 0.951 . S
H3809 C3828 0.951 . S
H3810 C3830 0.950 . S
H3811 C3831 0.950 . S
H3812 C3833 0.950 . S
H3813 C3836 0.950 . S
H3814 C3837 0.950 . S
H3815 C3839 0.950 . S
H3816 C3840 0.950 . S
H3817 C3841 0.951 . S
H3818 C3843 0.951 . S
H3819 C3845 0.950 . S
H3820 C3846 0.950 . S
H3821 C3848 0.950 . S
H3822 C3851 0.950 . S
H3823 C3852 0.950 . S
H3824 C3854 0.950 . S
H3825 C3855 0.950 . S
C3826 H3808 0.951 . S
C3826 C3827 1.366 . S
C3826 C3828 1.388 . S
C3827 C3826 1.366 . S
C3827 C3831 1.385 1_545 S
C3828 H3809 0.951 . S
C3828 C3826 1.388 . S
C3828 C3829 1.366 . S
C3829 C3828 1.366 . S
C3829 C3830 1.414 1_545 S
C3829 C3832 1.499 . S
C3830 H3810 0.950 . S
C3830 C3829 1.414 1_565 S
C3830 C3831 1.374 . S
C3831 H3811 0.950 . S
C3831 C3827 1.385 1_565 S
C3831 C3830 1.374 . S
C3832 C3829 1.499 . S
C3832 C3833 1.373 1_545 S
C3832 C3834 1.389 . S
C3833 H3812 0.950 . S
C3833 C3832 1.373 1_565 S
C3833 C3849 1.377 . S
C3834 C3832 1.389 . S
C3834 C3835 1.524 . S
C3834 C3848 1.377 . S
C3835 C3834 1.524 . S
C3835 C3836 1.397 . S
C3835 C3840 1.363 . S
C3836 H3813 0.950 . S
C3836 C3835 1.397 . S
C3836 C3837 1.334 . S
C3837 H3814 0.950 . S
C3837 C3836 1.334 . S
C3837 C3838 1.287 . S
C3838 C3837 1.287 . S
C3838 C3839 1.524 . S
C3838 H3857 0.913 . S
C3839 H3815 0.950 . S
C3839 C3838 1.524 . S
C3839 C3840 1.415 . S
C3840 H3816 0.950 . S
C3840 C3835 1.363 . S
C3840 C3839 1.415 . S
C3841 H3817 0.951 . S
C3841 C3842 1.366 1_565 S
C3841 C3843 1.388 . S
C3842 C3841 1.366 1_545 S
C3842 C3846 1.385 . S
C3843 H3818 0.951 . S
C3843 C3841 1.388 . S
C3843 C3844 1.366 1_565 S
C3844 C3843 1.366 1_545 S
C3844 C3845 1.414 . S
C3844 C3847 1.499 . S
C3845 H3819 0.950 . S
C3845 C3844 1.414 . S
C3845 C3846 1.374 . S
C3846 H3820 0.950 . S
C3846 C3842 1.385 . S
C3846 C3845 1.374 . S
C3847 C3844 1.499 . S
C3847 C3848 1.373 . S
C3847 C3849 1.389 1_545 S
C3848 H3821 0.950 . S
C3848 C3834 1.377 . S
C3848 C3847 1.373 . S
C3849 C3833 1.377 . S
C3849 C3847 1.389 1_565 S
C3849 C3850 1.524 . S
C3850 C3849 1.524 . S
C3850 C3851 1.397 . S
C3850 C3855 1.363 . S
C3851 H3822 0.950 . S
C3851 C3850 1.397 . S
C3851 C3852 1.334 . S
C3852 H3823 0.950 . S
C3852 C3851 1.334 . S
C3852 C3853 1.287 . S
C3853 C3852 1.287 . S
C3853 C3854 1.524 . S
C3853 H3856 0.999 . S
C3854 H3824 0.950 . S
C3854 C3853 1.524 . S
C3854 C3855 1.415 . S
C3855 H3825 0.950 . S
C3855 C3850 1.363 . S
C3855 C3854 1.415 . S
H3856 C3853 0.999 . S
H3857 C3838 0.913 . S
H3858 C3876 0.951 . S
H3859 C3878 0.951 . S
H3860 C3880 0.950 . S
H3861 C3881 0.950 . S
H3862 C3883 0.950 . S
H3863 C3886 0.950 . S
H3864 C3887 0.950 . S
H3865 C3889 0.950 . S
H3866 C3890 0.950 . S
H3867 C3891 0.951 . S
H3868 C3893 0.951 . S
H3869 C3895 0.950 . S
H3870 C3896 0.950 . S
H3871 C3898 0.950 . S
H3872 C3901 0.950 . S
H3873 C3902 0.950 . S
H3874 C3904 0.950 . S
H3875 C3905 0.950 . S
C3876 H3858 0.951 . S
C3876 C3877 1.366 . S
C3876 C3878 1.388 . S
C3877 C3876 1.366 . S
C3877 C3881 1.385 . S
C3878 H3859 0.951 . S
C3878 C3876 1.388 . S
C3878 C3879 1.366 . S
C3879 C3878 1.366 . S
C3879 C3880 1.414 . S
C3879 C3882 1.499 . S
C3880 H3860 0.950 . S
C3880 C3879 1.414 . S
C3880 C3881 1.374 . S
C3881 H3861 0.950 . S
C3881 C3877 1.385 . S
C3881 C3880 1.374 . S
C3882 C3879 1.499 . S
C3882 C3883 1.373 . S
C3882 C3884 1.389 . S
C3883 H3862 0.950 . S
C3883 C3882 1.373 . S
C3883 C3899 1.377 . S
C3884 C3882 1.389 . S
C3884 C3885 1.524 . S
C3884 C3898 1.377 . S
C3885 C3884 1.524 . S
C3885 C3886 1.397 . S
C3885 C3890 1.363 . S
C3886 H3863 0.950 . S
C3886 C3885 1.397 . S
C3886 C3887 1.334 . S
C3887 H3864 0.950 . S
C3887 C3886 1.334 . S
C3887 C3888 1.287 . S
C3888 C3887 1.287 . S
C3888 C3889 1.524 . S
C3888 H3907 0.913 . S
C3889 H3865 0.950 . S
C3889 C3888 1.524 . S
C3889 C3890 1.415 . S
C3890 H3866 0.950 . S
C3890 C3885 1.363 . S
C3890 C3889 1.415 . S
C3891 H3867 0.951 . S
C3891 C3892 1.366 . S
C3891 C3893 1.388 . S
C3892 C3891 1.366 . S
C3892 C3896 1.385 . S
C3893 H3868 0.951 . S
C3893 C3891 1.388 . S
C3893 C3894 1.366 . S
C3894 C3893 1.366 . S
C3894 C3895 1.414 . S
C3894 C3897 1.499 . S
C3895 H3869 0.950 . S
C3895 C3894 1.414 . S
C3895 C3896 1.374 . S
C3896 H3870 0.950 . S
C3896 C3892 1.385 . S
C3896 C3895 1.374 . S
C3897 C3894 1.499 . S
C3897 C3898 1.373 . S
C3897 C3899 1.389 . S
C3898 H3871 0.950 . S
C3898 C3884 1.377 . S
C3898 C3897 1.373 . S
C3899 C3883 1.377 . S
C3899 C3897 1.389 . S
C3899 C3900 1.524 . S
C3900 C3899 1.524 . S
C3900 C3901 1.397 . S
C3900 C3905 1.363 . S
C3901 H3872 0.950 . S
C3901 C3900 1.397 . S
C3901 C3902 1.334 . S
C3902 H3873 0.950 . S
C3902 C3901 1.334 . S
C3902 C3903 1.287 . S
C3903 C3902 1.287 . S
C3903 C3904 1.524 . S
C3903 H3906 0.999 . S
C3904 H3874 0.950 . S
C3904 C3903 1.524 . S
C3904 C3905 1.415 . S
C3905 H3875 0.950 . S
C3905 C3900 1.363 . S
C3905 C3904 1.415 . S
H3906 C3903 0.999 . S
H3907 C3888 0.913 . S
H3908 C3926 0.951 . S
H3909 C3928 0.951 . S
H3910 C3930 0.950 . S
H3911 C3931 0.950 . S
H3912 C3933 0.950 . S
H3913 C3936 0.950 . S
H3914 C3937 0.950 . S
H3915 C3939 0.950 . S
H3916 C3940 0.950 . S
H3917 C3941 0.951 . S
H3918 C3943 0.951 . S
H3919 C3945 0.950 . S
H3920 C3946 0.950 . S
H3921 C3948 0.950 . S
H3922 C3951 0.950 . S
H3923 C3952 0.964 . S
H3924 C3954 0.950 . S
H3925 C3955 0.950 . S
C3926 H3908 0.951 . S
C3926 C3927 1.366 . S
C3926 C3928 1.388 . S
C3927 C3926 1.366 . S
C3927 C3931 1.385 . S
C3928 H3909 0.951 . S
C3928 C3926 1.388 . S
C3928 C3929 1.366 . S
C3929 C3928 1.366 . S
C3929 C3930 1.414 . S
C3929 C3932 1.499 . S
C3930 H3910 0.950 . S
C3930 C3929 1.414 . S
C3930 C3931 1.374 . S
C3931 H3911 0.950 . S
C3931 C3927 1.385 . S
C3931 C3930 1.374 . S
C3932 C3929 1.499 . S
C3932 C3933 1.373 . S
C3932 C3934 1.389 . S
C3933 H3912 0.950 . S
C3933 C3932 1.373 . S
C3933 C3949 1.377 . S
C3934 C3932 1.389 . S
C3934 C3935 1.524 . S
C3934 C3948 1.377 . S
C3935 C3934 1.524 . S
C3935 C3936 1.397 . S
C3935 C3940 1.363 . S
C3936 H3913 0.950 . S
C3936 C3935 1.397 . S
C3936 C3937 1.334 . S
C3937 H3914 0.950 . S
C3937 C3936 1.334 . S
C3937 C3938 1.287 . S
C3938 C3937 1.287 . S
C3938 C3939 1.524 . S
C3938 H3957 0.913 . S
C3939 H3915 0.950 . S
C3939 C3938 1.524 . S
C3939 C3940 1.415 . S
C3940 H3916 0.950 . S
C3940 C3935 1.363 . S
C3940 C3939 1.415 . S
C3941 H3917 0.951 . S
C3941 C3942 1.366 . S
C3941 C3943 1.388 . S
C3942 C3941 1.366 . S
C3942 C3946 1.385 . S
C3943 H3918 0.951 . S
C3943 C3941 1.388 . S
C3943 C3944 1.366 . S
C3944 C3943 1.366 . S
C3944 C3945 1.414 . S
C3944 C3947 1.499 . S
C3945 H3919 0.950 . S
C3945 C3944 1.414 . S
C3945 C3946 1.374 . S
C3946 H3920 0.950 . S
C3946 C3942 1.385 . S
C3946 C3945 1.374 . S
C3947 C3944 1.499 . S
C3947 C3948 1.373 . S
C3947 C3949 1.389 . S
C3948 H3921 0.950 . S
C3948 C3934 1.377 . S
C3948 C3947 1.373 . S
C3949 C3933 1.377 . S
C3949 C3947 1.389 . S
C3949 C3950 1.524 . S
C3950 C3949 1.524 . S
C3950 C3951 1.397 . S
C3950 C3955 1.363 . S
C3951 H3922 0.950 . S
C3951 C3950 1.397 . S
C3951 C3952 1.322 1_545 S
C3952 H3923 0.964 . S
C3952 C3951 1.322 1_565 S
C3952 C3953 1.284 1_565 S
C3953 C3952 1.284 1_545 S
C3953 C3954 1.524 . S
C3953 H3956 0.999 1_545 S
C3954 H3924 0.950 . S
C3954 C3953 1.524 . S
C3954 C3955 1.415 . S
C3955 H3925 0.950 . S
C3955 C3950 1.363 . S
C3955 C3954 1.415 . S
H3956 C3953 0.999 1_565 S
H3957 C3938 0.913 . S
H3958 C3976 0.951 . S
H3959 C3978 0.951 . S
H3960 C3980 0.950 . S
H3961 C3981 0.950 . S
H3962 C3983 0.950 . S
H3963 C3986 0.950 . S
H3964 C3987 0.950 . S
H3965 C3989 0.950 . S
H3966 C3990 0.950 . S
H3967 C3991 0.951 . S
H3968 C3993 0.951 . S
H3969 C3995 0.950 . S
H3970 C3996 0.950 . S
H3971 C3998 0.950 . S
H3972 C4001 0.950 . S
H3973 C4002 0.950 . S
H3974 C4004 0.950 . S
H3975 C4005 0.950 . S
C3976 H3958 0.951 . S
C3976 C3977 1.366 . S
C3976 C3978 1.388 . S
C3977 C3976 1.366 . S
C3977 C3981 1.385 . S
C3978 H3959 0.951 . S
C3978 C3976 1.388 . S
C3978 C3979 1.366 . S
C3979 C3978 1.366 . S
C3979 C3980 1.414 . S
C3979 C3982 1.499 . S
C3980 H3960 0.950 . S
C3980 C3979 1.414 . S
C3980 C3981 1.374 . S
C3981 H3961 0.950 . S
C3981 C3977 1.385 . S
C3981 C3980 1.374 . S
C3982 C3979 1.499 . S
C3982 C3983 1.373 . S
C3982 C3984 1.389 . S
C3983 H3962 0.950 . S
C3983 C3982 1.373 . S
C3983 C3999 1.377 . S
C3984 C3982 1.389 . S
C3984 C3985 1.524 . S
C3984 C3998 1.377 . S
C3985 C3984 1.524 . S
C3985 C3986 1.397 . S
C3985 C3990 1.363 . S
C3986 H3963 0.950 . S
C3986 C3985 1.397 . S
C3986 C3987 1.334 . S
C3987 H3964 0.950 . S
C3987 C3986 1.334 . S
C3987 C3988 1.287 . S
C3988 C3987 1.287 . S
C3988 C3989 1.524 . S
C3988 H4007 0.913 . S
C3989 H3965 0.950 . S
C3989 C3988 1.524 . S
C3989 C3990 1.415 . S
C3990 H3966 0.950 . S
C3990 C3985 1.363 . S
C3990 C3989 1.415 . S
C3991 H3967 0.951 . S
C3991 C3992 1.366 . S
C3991 C3993 1.388 . S
C3992 C3991 1.366 . S
C3992 C3996 1.385 . S
C3993 H3968 0.951 . S
C3993 C3991 1.388 . S
C3993 C3994 1.366 . S
C3994 C3993 1.366 . S
C3994 C3995 1.414 . S
C3994 C3997 1.499 . S
C3995 H3969 0.950 . S
C3995 C3994 1.414 . S
C3995 C3996 1.374 . S
C3996 H3970 0.950 . S
C3996 C3992 1.385 . S
C3996 C3995 1.374 . S
C3997 C3994 1.499 . S
C3997 C3998 1.373 . S
C3997 C3999 1.389 . S
C3998 H3971 0.950 . S
C3998 C3984 1.377 . S
C3998 C3997 1.373 . S
C3999 C3983 1.377 . S
C3999 C3997 1.389 . S
C3999 C4000 1.524 . S
C4000 C3999 1.524 . S
C4000 C4001 1.397 . S
C4000 C4005 1.363 . S
C4001 H3972 0.950 . S
C4001 C4000 1.397 . S
C4001 C4002 1.334 . S
C4002 H3973 0.950 . S
C4002 C4001 1.334 . S
C4002 C4003 1.287 . S
C4003 C4002 1.287 . S
C4003 C4004 1.524 . S
C4003 H4006 0.999 . S
C4004 H3974 0.950 . S
C4004 C4003 1.524 . S
C4004 C4005 1.415 . S
C4005 H3975 0.950 . S
C4005 C4000 1.363 . S
C4005 C4004 1.415 . S
H4006 C4003 0.999 . S
H4007 C3988 0.913 . S
H4008 C4026 0.951 . S
H4009 C4028 0.951 . S
H4010 C4030 0.950 . S
H4011 C4031 0.950 . S
H4012 C4033 0.950 . S
H4013 C4036 0.950 . S
H4014 C4037 0.950 . S
H4015 C4039 0.950 . S
H4016 C4040 0.950 . S
H4017 C4041 0.951 . S
H4018 C4043 0.951 . S
H4019 C4045 0.950 . S
H4020 C4046 0.950 . S
H4021 C4048 0.960 . S
H4022 C4051 0.950 . S
H4023 C4052 0.950 . S
H4024 C4054 0.950 . S
H4025 C4055 0.950 . S
C4026 H4008 0.951 . S
C4026 C4027 1.366 . S
C4026 C4028 1.388 . S
C4027 C4026 1.366 . S
C4027 C4031 1.385 1_565 S
C4028 H4009 0.951 . S
C4028 C4026 1.388 . S
C4028 C4029 1.366 1_565 S
C4029 C4028 1.366 1_545 S
C4029 C4030 1.414 . S
C4029 C4032 1.499 . S
C4030 H4010 0.950 . S
C4030 C4029 1.414 . S
C4030 C4031 1.374 . S
C4031 H4011 0.950 . S
C4031 C4027 1.385 1_545 S
C4031 C4030 1.374 . S
C4032 C4029 1.499 . S
C4032 C4033 1.373 . S
C4032 C4034 1.389 1_545 S
C4033 H4012 0.950 . S
C4033 C4032 1.373 . S
C4033 C4049 1.377 . S
C4034 C4032 1.389 1_565 S
C4034 C4035 1.524 . S
C4034 C4048 1.387 . S
C4035 C4034 1.524 . S
C4035 C4036 1.397 . S
C4035 C4040 1.363 . S
C4036 H4013 0.950 . S
C4036 C4035 1.397 . S
C4036 C4037 1.334 . S
C4037 H4014 0.950 . S
C4037 C4036 1.334 . S
C4037 C4038 1.287 . S
C4038 C4037 1.287 . S
C4038 C4039 1.524 . S
C4038 H4057 0.913 . S
C4039 H4015 0.950 . S
C4039 C4038 1.524 . S
C4039 C4040 1.415 . S
C4040 H4016 0.950 . S
C4040 C4035 1.363 . S
C4040 C4039 1.415 . S
C4041 H4017 0.951 . S
C4041 C4042 1.366 . S
C4041 C4043 1.388 . S
C4042 C4041 1.366 . S
C4042 C4046 1.385 . S
C4043 H4018 0.951 . S
C4043 C4041 1.388 . S
C4043 C4044 1.366 . S
C4044 C4043 1.366 . S
C4044 C4045 1.414 . S
C4044 C4047 1.499 . S
C4045 H4019 0.950 . S
C4045 C4044 1.414 . S
C4045 C4046 1.374 . S
C4046 H4020 0.950 . S
C4046 C4042 1.385 . S
C4046 C4045 1.374 . S
C4047 C4044 1.499 . S
C4047 C4048 1.354 1_545 S
C4047 C4049 1.389 . S
C4048 H4021 0.960 . S
C4048 C4034 1.387 . S
C4048 C4047 1.354 1_565 S
C4049 C4033 1.377 . S
C4049 C4047 1.389 . S
C4049 C4050 1.524 . S
C4050 C4049 1.524 . S
C4050 C4051 1.397 . S
C4050 C4055 1.363 . S
C4051 H4022 0.950 . S
C4051 C4050 1.397 . S
C4051 C4052 1.334 . S
C4052 H4023 0.950 . S
C4052 C4051 1.334 . S
C4052 C4053 1.287 . S
C4053 C4052 1.287 . S
C4053 C4054 1.524 . S
C4053 H4056 0.999 . S
C4054 H4024 0.950 . S
C4054 C4053 1.524 . S
C4054 C4055 1.415 . S
C4055 H4025 0.950 . S
C4055 C4050 1.363 . S
C4055 C4054 1.415 . S
H4056 C4053 0.999 . S
H4057 C4038 0.913 . S
H4058 C4076 0.951 . S
H4059 C4078 0.951 . S
H4060 C4080 0.950 . S
H4061 C4081 0.950 . S
H4062 C4083 0.950 . S
H4063 C4086 0.950 . S
H4064 C4087 0.950 . S
H4065 C4089 0.950 . S
H4066 C4090 0.950 . S
H4067 C4091 0.951 . S
H4068 C4093 0.951 . S
H4069 C4095 0.950 . S
H4070 C4096 0.950 . S
H4071 C4098 0.950 . S
H4072 C4101 0.950 . S
H4073 C4102 0.950 . S
H4074 C4104 0.950 . S
H4075 C4105 0.950 . S
C4076 H4058 0.951 . S
C4076 C4077 1.366 . S
C4076 C4078 1.388 . S
C4077 C4076 1.366 . S
C4077 C4081 1.385 . S
C4078 H4059 0.951 . S
C4078 C4076 1.388 . S
C4078 C4079 1.366 . S
C4079 C4078 1.366 . S
C4079 C4080 1.414 . S
C4079 C4082 1.499 . S
C4080 H4060 0.950 . S
C4080 C4079 1.414 . S
C4080 C4081 1.374 . S
C4081 H4061 0.950 . S
C4081 C4077 1.385 . S
C4081 C4080 1.374 . S
C4082 C4079 1.499 . S
C4082 C4083 1.373 . S
C4082 C4084 1.389 . S
C4083 H4062 0.950 . S
C4083 C4082 1.373 . S
C4083 C4099 1.377 . S
C4084 C4082 1.389 . S
C4084 C4085 1.524 . S
C4084 C4098 1.377 . S
C4085 C4084 1.524 . S
C4085 C4086 1.397 . S
C4085 C4090 1.363 . S
C4086 H4063 0.950 . S
C4086 C4085 1.397 . S
C4086 C4087 1.334 . S
C4087 H4064 0.950 . S
C4087 C4086 1.334 . S
C4087 C4088 1.287 . S
C4088 C4087 1.287 . S
C4088 C4089 1.524 . S
C4088 H4107 0.913 . S
C4089 H4065 0.950 . S
C4089 C4088 1.524 . S
C4089 C4090 1.415 . S
C4090 H4066 0.950 . S
C4090 C4085 1.363 . S
C4090 C4089 1.415 . S
C4091 H4067 0.951 . S
C4091 C4092 1.366 . S
C4091 C4093 1.388 . S
C4092 C4091 1.366 . S
C4092 C4096 1.385 . S
C4093 H4068 0.951 . S
C4093 C4091 1.388 . S
C4093 C4094 1.366 . S
C4094 C4093 1.366 . S
C4094 C4095 1.414 . S
C4094 C4097 1.499 . S
C4095 H4069 0.950 . S
C4095 C4094 1.414 . S
C4095 C4096 1.374 . S
C4096 H4070 0.950 . S
C4096 C4092 1.385 . S
C4096 C4095 1.374 . S
C4097 C4094 1.499 . S
C4097 C4098 1.373 . S
C4097 C4099 1.389 . S
C4098 H4071 0.950 . S
C4098 C4084 1.377 . S
C4098 C4097 1.373 . S
C4099 C4083 1.377 . S
C4099 C4097 1.389 . S
C4099 C4100 1.524 . S
C4100 C4099 1.524 . S
C4100 C4101 1.397 . S
C4100 C4105 1.363 . S
C4101 H4072 0.950 . S
C4101 C4100 1.397 . S
C4101 C4102 1.334 . S
C4102 H4073 0.950 . S
C4102 C4101 1.334 . S
C4102 C4103 1.287 . S
C4103 C4102 1.287 . S
C4103 C4104 1.524 . S
C4103 H4106 0.999 . S
C4104 H4074 0.950 . S
C4104 C4103 1.524 . S
C4104 C4105 1.415 . S
C4105 H4075 0.950 . S
C4105 C4100 1.363 . S
C4105 C4104 1.415 . S
H4106 C4103 0.999 . S
H4107 C4088 0.913 . S
H4108 C4126 0.951 . S
H4109 C4128 0.951 . S
H4110 C4130 0.950 . S
H4111 C4131 0.950 . S
H4112 C4133 0.950 . S
H4113 C4136 0.950 . S
H4114 C4137 0.950 . S
H4115 C4139 0.950 . S
H4116 C4140 0.950 . S
H4117 C4141 0.951 . S
H4118 C4143 0.951 . S
H4119 C4145 0.950 . S
H4120 C4146 0.950 . S
H4121 C4148 0.950 . S
H4122 C4151 0.950 . S
H4123 C4152 0.950 . S
H4124 C4154 0.950 . S
H4125 C4155 0.945 1_545 S
C4126 H4108 0.951 . S
C4126 C4127 1.366 . S
C4126 C4128 1.388 . S
C4127 C4126 1.366 . S
C4127 C4131 1.385 . S
C4128 H4109 0.951 . S
C4128 C4126 1.388 . S
C4128 C4129 1.366 . S
C4129 C4128 1.366 . S
C4129 C4130 1.414 . S
C4129 C4132 1.499 . S
C4130 H4110 0.950 . S
C4130 C4129 1.414 . S
C4130 C4131 1.374 . S
C4131 H4111 0.950 . S
C4131 C4127 1.385 . S
C4131 C4130 1.374 . S
C4132 C4129 1.499 . S
C4132 C4133 1.373 . S
C4132 C4134 1.389 . S
C4133 H4112 0.950 . S
C4133 C4132 1.373 . S
C4133 C4149 1.377 . S
C4134 C4132 1.389 . S
C4134 C4135 1.524 . S
C4134 C4148 1.377 . S
C4135 C4134 1.524 . S
C4135 C4136 1.397 . S
C4135 C4140 1.363 . S
C4136 H4113 0.950 . S
C4136 C4135 1.397 . S
C4136 C4137 1.334 . S
C4137 H4114 0.950 . S
C4137 C4136 1.334 . S
C4137 C4138 1.287 . S
C4138 C4137 1.287 . S
C4138 C4139 1.524 . S
C4138 H4157 0.913 . S
C4139 H4115 0.950 . S
C4139 C4138 1.524 . S
C4139 C4140 1.415 . S
C4140 H4116 0.950 . S
C4140 C4135 1.363 . S
C4140 C4139 1.415 . S
C4141 H4117 0.951 . S
C4141 C4142 1.366 . S
C4141 C4143 1.388 . S
C4142 C4141 1.366 . S
C4142 C4146 1.385 . S
C4143 H4118 0.951 . S
C4143 C4141 1.388 . S
C4143 C4144 1.366 . S
C4144 C4143 1.366 . S
C4144 C4145 1.414 . S
C4144 C4147 1.499 . S
C4145 H4119 0.950 . S
C4145 C4144 1.414 . S
C4145 C4146 1.374 . S
C4146 H4120 0.950 . S
C4146 C4142 1.385 . S
C4146 C4145 1.374 . S
C4147 C4144 1.499 . S
C4147 C4148 1.373 . S
C4147 C4149 1.389 . S
C4148 H4121 0.950 . S
C4148 C4134 1.377 . S
C4148 C4147 1.373 . S
C4149 C4133 1.377 . S
C4149 C4147 1.389 . S
C4149 C4150 1.524 . S
C4150 C4149 1.524 . S
C4150 C4151 1.397 1_545 S
C4150 C4155 1.364 1_545 S
C4151 H4122 0.950 . S
C4151 C4150 1.397 1_565 S
C4151 C4152 1.334 . S
C4152 H4123 0.950 . S
C4152 C4151 1.334 . S
C4152 C4153 1.287 . S
C4153 C4152 1.287 . S
C4153 C4154 1.524 . S
C4153 H4156 0.999 . S
C4154 H4124 0.950 . S
C4154 C4153 1.524 . S
C4154 C4155 1.418 . S
C4155 H4125 0.945 1_565 S
C4155 C4150 1.364 1_565 S
C4155 C4154 1.418 . S
H4156 C4153 0.999 . S
H4157 C4138 0.913 . S
H4158 C4176 0.951 . S
H4159 C4178 0.951 . S
H4160 C4180 0.950 . S
H4161 C4181 0.950 . S
H4162 C4183 0.950 . S
H4163 C4186 0.950 . S
H4164 C4187 0.950 . S
H4165 C4189 0.950 . S
H4166 C4190 0.950 . S
H4167 C4191 0.951 . S
H4168 C4193 0.951 . S
H4169 C4195 0.950 . S
H4170 C4196 0.950 . S
H4171 C4198 0.950 . S
H4172 C4201 0.950 . S
H4173 C4202 0.950 . S
H4174 C4204 0.950 . S
H4175 C4205 0.950 . S
C4176 H4158 0.951 . S
C4176 C4177 1.366 . S
C4176 C4178 1.388 . S
C4177 C4176 1.366 . S
C4177 C4181 1.385 . S
C4178 H4159 0.951 . S
C4178 C4176 1.388 . S
C4178 C4179 1.366 . S
C4179 C4178 1.366 . S
C4179 C4180 1.414 . S
C4179 C4182 1.499 . S
C4180 H4160 0.950 . S
C4180 C4179 1.414 . S
C4180 C4181 1.374 . S
C4181 H4161 0.950 . S
C4181 C4177 1.385 . S
C4181 C4180 1.374 . S
C4182 C4179 1.499 . S
C4182 C4183 1.373 . S
C4182 C4184 1.389 . S
C4183 H4162 0.950 . S
C4183 C4182 1.373 . S
C4183 C4199 1.377 . S
C4184 C4182 1.389 . S
C4184 C4185 1.524 . S
C4184 C4198 1.377 . S
C4185 C4184 1.524 . S
C4185 C4186 1.397 . S
C4185 C4190 1.363 . S
C4186 H4163 0.950 . S
C4186 C4185 1.397 . S
C4186 C4187 1.334 . S
C4187 H4164 0.950 . S
C4187 C4186 1.334 . S
C4187 C4188 1.287 . S
C4188 C4187 1.287 . S
C4188 C4189 1.524 . S
C4188 H4207 0.913 . S
C4189 H4165 0.950 . S
C4189 C4188 1.524 . S
C4189 C4190 1.415 . S
C4190 H4166 0.950 . S
C4190 C4185 1.363 . S
C4190 C4189 1.415 . S
C4191 H4167 0.951 . S
C4191 C4192 1.366 . S
C4191 C4193 1.388 . S
C4192 C4191 1.366 . S
C4192 C4196 1.385 . S
C4193 H4168 0.951 . S
C4193 C4191 1.388 . S
C4193 C4194 1.366 . S
C4194 C4193 1.366 . S
C4194 C4195 1.414 . S
C4194 C4197 1.499 . S
C4195 H4169 0.950 . S
C4195 C4194 1.414 . S
C4195 C4196 1.374 . S
C4196 H4170 0.950 . S
C4196 C4192 1.385 . S
C4196 C4195 1.374 . S
C4197 C4194 1.499 . S
C4197 C4198 1.373 . S
C4197 C4199 1.389 . S
C4198 H4171 0.950 . S
C4198 C4184 1.377 . S
C4198 C4197 1.373 . S
C4199 C4183 1.377 . S
C4199 C4197 1.389 . S
C4199 C4200 1.524 . S
C4200 C4199 1.524 . S
C4200 C4201 1.397 . S
C4200 C4205 1.363 . S
C4201 H4172 0.950 . S
C4201 C4200 1.397 . S
C4201 C4202 1.334 . S
C4202 H4173 0.950 . S
C4202 C4201 1.334 . S
C4202 C4203 1.287 . S
C4203 C4202 1.287 . S
C4203 C4204 1.524 . S
C4203 H4206 0.999 . S
C4204 H4174 0.950 . S
C4204 C4203 1.524 . S
C4204 C4205 1.415 . S
C4205 H4175 0.950 . S
C4205 C4200 1.363 . S
C4205 C4204 1.415 . S
H4206 C4203 0.999 . S
H4207 C4188 0.913 . S
H4208 C4226 0.951 . S
H4209 C4228 0.951 . S
H4210 C4230 0.950 . S
H4211 C4231 0.950 . S
H4212 C4233 0.950 . S
H4213 C4236 0.950 . S
H4214 C4237 0.950 . S
H4215 C4239 0.950 . S
H4216 C4240 0.950 1_554 S
H4217 C4241 0.952 1_556 S
H4218 C4243 0.951 . S
H4219 C4245 0.950 . S
H4220 C4246 0.950 . S
H4221 C4248 0.950 1_556 S
H4222 C4251 0.950 . S
H4223 C4252 0.950 . S
H4224 C4254 0.950 . S
H4225 C4255 0.950 . S
C4226 H4208 0.951 . S
C4226 C4227 1.366 . S
C4226 C4228 1.388 . S
C4227 C4226 1.366 . S
C4227 C4231 1.385 . S
C4228 H4209 0.951 . S
C4228 C4226 1.388 . S
C4228 C4229 1.366 . S
C4229 C4228 1.366 . S
C4229 C4230 1.414 . S
C4229 C4232 1.499 . S
C4230 H4210 0.950 . S
C4230 C4229 1.414 . S
C4230 C4231 1.374 . S
C4231 H4211 0.950 . S
C4231 C4227 1.385 . S
C4231 C4230 1.374 . S
C4232 C4229 1.499 . S
C4232 C4233 1.373 . S
C4232 C4234 1.389 . S
C4233 H4212 0.950 . S
C4233 C4232 1.373 . S
C4233 C4249 1.377 . S
C4234 C4232 1.389 . S
C4234 C4235 1.524 1_554 S
C4234 C4248 1.377 . S
C4235 C4234 1.524 1_556 S
C4235 C4236 1.397 . S
C4235 C4240 1.363 . S
C4236 H4213 0.950 . S
C4236 C4235 1.397 . S
C4236 C4237 1.334 . S
C4237 H4214 0.950 . S
C4237 C4236 1.334 . S
C4237 C4238 1.287 . S
C4238 C4237 1.287 . S
C4238 C4239 1.524 . S
C4238 H4257 0.913 . S
C4239 H4215 0.950 . S
C4239 C4238 1.524 . S
C4239 C4240 1.415 . S
C4240 H4216 0.950 1_556 S
C4240 C4235 1.363 . S
C4240 C4239 1.415 . S
C4241 H4217 0.952 1_554 S
C4241 C4242 1.366 . S
C4241 C4243 1.388 . S
C4242 C4241 1.366 . S
C4242 C4246 1.385 . S
C4243 H4218 0.951 . S
C4243 C4241 1.388 . S
C4243 C4244 1.366 . S
C4244 C4243 1.366 . S
C4244 C4245 1.414 . S
C4244 C4247 1.499 . S
C4245 H4219 0.950 . S
C4245 C4244 1.414 . S
C4245 C4246 1.374 . S
C4246 H4220 0.950 . S
C4246 C4242 1.385 . S
C4246 C4245 1.374 . S
C4247 C4244 1.499 . S
C4247 C4248 1.373 . S
C4247 C4249 1.389 . S
C4248 H4221 0.950 1_554 S
C4248 C4234 1.377 . S
C4248 C4247 1.373 . S
C4249 C4233 1.377 . S
C4249 C4247 1.389 . S
C4249 C4250 1.524 . S
C4250 C4249 1.524 . S
C4250 C4251 1.397 . S
C4250 C4255 1.363 . S
C4251 H4222 0.950 . S
C4251 C4250 1.397 . S
C4251 C4252 1.334 . S
C4252 H4223 0.950 . S
C4252 C4251 1.334 . S
C4252 C4253 1.287 . S
C4253 C4252 1.287 . S
C4253 C4254 1.524 . S
C4253 H4256 0.999 . S
C4254 H4224 0.950 . S
C4254 C4253 1.524 . S
C4254 C4255 1.415 . S
C4255 H4225 0.950 . S
C4255 C4250 1.363 . S
C4255 C4254 1.415 . S
H4256 C4253 0.999 . S
H4257 C4238 0.913 . S
H4258 C4276 0.951 . S
H4259 C4278 0.951 . S
H4260 C4280 0.950 . S
H4261 C4281 0.950 . S
H4262 C4283 0.950 . S
H4263 C4286 0.950 1_554 S
H4264 C4287 0.950 . S
H4265 C4289 0.950 . S
H4266 C4290 0.950 . S
H4267 C4291 0.951 . S
H4268 C4293 0.951 . S
H4269 C4295 0.950 . S
H4270 C4296 0.950 . S
H4271 C4298 0.950 . S
H4272 C4301 0.950 . S
H4273 C4302 0.950 . S
H4274 C4304 0.950 . S
H4275 C4305 0.950 . S
C4276 H4258 0.951 . S
C4276 C4277 1.366 . S
C4276 C4278 1.388 . S
C4277 C4276 1.366 . S
C4277 C4281 1.385 . S
C4278 H4259 0.951 . S
C4278 C4276 1.388 . S
C4278 C4279 1.366 . S
C4279 C4278 1.366 . S
C4279 C4280 1.414 . S
C4279 C4282 1.499 . S
C4280 H4260 0.950 . S
C4280 C4279 1.414 . S
C4280 C4281 1.374 . S
C4281 H4261 0.950 . S
C4281 C4277 1.385 . S
C4281 C4280 1.374 . S
C4282 C4279 1.499 . S
C4282 C4283 1.373 . S
C4282 C4284 1.389 . S
C4283 H4262 0.950 . S
C4283 C4282 1.373 . S
C4283 C4299 1.377 . S
C4284 C4282 1.389 . S
C4284 C4285 1.520 1_554 S
C4284 C4298 1.377 . S
C4285 C4284 1.520 1_556 S
C4285 C4286 1.396 . S
C4285 C4290 1.367 . S
C4286 H4263 0.950 1_556 S
C4286 C4285 1.396 . S
C4286 C4287 1.334 . S
C4287 H4264 0.950 . S
C4287 C4286 1.334 . S
C4287 C4288 1.287 . S
C4288 C4287 1.287 . S
C4288 C4289 1.524 . S
C4288 H4307 0.913 . S
C4289 H4265 0.950 . S
C4289 C4288 1.524 . S
C4289 C4290 1.415 . S
C4290 H4266 0.950 . S
C4290 C4285 1.367 . S
C4290 C4289 1.415 . S
C4291 H4267 0.951 . S
C4291 C4292 1.366 . S
C4291 C4293 1.388 . S
C4292 C4291 1.366 . S
C4292 C4296 1.385 . S
C4293 H4268 0.951 . S
C4293 C4291 1.388 . S
C4293 C4294 1.366 . S
C4294 C4293 1.366 . S
C4294 C4295 1.414 . S
C4294 C4297 1.499 . S
C4295 H4269 0.950 . S
C4295 C4294 1.414 . S
C4295 C4296 1.374 . S
C4296 H4270 0.950 . S
C4296 C4292 1.385 . S
C4296 C4295 1.374 . S
C4297 C4294 1.499 . S
C4297 C4298 1.373 . S
C4297 C4299 1.389 . S
C4298 H4271 0.950 . S
C4298 C4284 1.377 . S
C4298 C4297 1.373 . S
C4299 C4283 1.377 . S
C4299 C4297 1.389 . S
C4299 C4300 1.524 . S
C4300 C4299 1.524 . S
C4300 C4301 1.397 . S
C4300 C4305 1.363 . S
C4301 H4272 0.950 . S
C4301 C4300 1.397 . S
C4301 C4302 1.334 . S
C4302 H4273 0.950 . S
C4302 C4301 1.334 . S
C4302 C4303 1.287 . S
C4303 C4302 1.287 . S
C4303 C4304 1.524 . S
C4303 H4306 0.999 . S
C4304 H4274 0.950 . S
C4304 C4303 1.524 . S
C4304 C4305 1.415 . S
C4305 H4275 0.950 . S
C4305 C4300 1.363 . S
C4305 C4304 1.415 . S
H4306 C4303 0.999 . S
H4307 C4288 0.913 . S
H4308 C4326 0.951 . S
H4309 C4328 0.951 . S
H4310 C4330 0.950 . S
H4311 C4331 0.950 . S
H4312 C4333 0.950 . S
H4313 C4336 0.950 . S
H4314 C4337 0.950 . S
H4315 C4339 0.950 . S
H4316 C4340 0.950 . S
H4317 C4341 0.951 . S
H4318 C4343 0.951 . S
H4319 C4345 0.950 . S
H4320 C4346 0.950 . S
H4321 C4348 0.950 . S
H4322 C4351 0.950 . S
H4323 C4352 0.950 . S
H4324 C4354 0.950 . S
H4325 C4355 0.950 . S
C4326 H4308 0.951 . S
C4326 C4327 1.366 . S
C4326 C4328 1.388 . S
C4327 C4326 1.366 . S
C4327 C4331 1.385 . S
C4328 H4309 0.951 . S
C4328 C4326 1.388 . S
C4328 C4329 1.366 . S
C4329 C4328 1.366 . S
C4329 C4330 1.414 . S
C4329 C4332 1.499 . S
C4330 H4310 0.950 . S
C4330 C4329 1.414 . S
C4330 C4331 1.374 . S
C4331 H4311 0.950 . S
C4331 C4327 1.385 . S
C4331 C4330 1.374 . S
C4332 C4329 1.499 . S
C4332 C4333 1.373 . S
C4332 C4334 1.389 . S
C4333 H4312 0.950 . S
C4333 C4332 1.373 . S
C4333 C4349 1.377 . S
C4334 C4332 1.389 . S
C4334 C4335 1.524 . S
C4334 C4348 1.377 . S
C4335 C4334 1.524 . S
C4335 C4336 1.397 . S
C4335 C4340 1.363 . S
C4336 H4313 0.950 . S
C4336 C4335 1.397 . S
C4336 C4337 1.334 . S
C4337 H4314 0.950 . S
C4337 C4336 1.334 . S
C4337 C4338 1.287 . S
C4338 C4337 1.287 . S
C4338 C4339 1.524 . S
C4338 H4357 0.913 . S
C4339 H4315 0.950 . S
C4339 C4338 1.524 . S
C4339 C4340 1.415 . S
C4340 H4316 0.950 . S
C4340 C4335 1.363 . S
C4340 C4339 1.415 . S
C4341 H4317 0.951 . S
C4341 C4342 1.366 . S
C4341 C4343 1.388 . S
C4342 C4341 1.366 . S
C4342 C4346 1.385 . S
C4343 H4318 0.951 . S
C4343 C4341 1.388 . S
C4343 C4344 1.366 . S
C4344 C4343 1.366 . S
C4344 C4345 1.414 . S
C4344 C4347 1.499 . S
C4345 H4319 0.950 . S
C4345 C4344 1.414 . S
C4345 C4346 1.374 . S
C4346 H4320 0.950 . S
C4346 C4342 1.385 . S
C4346 C4345 1.374 . S
C4347 C4344 1.499 . S
C4347 C4348 1.373 . S
C4347 C4349 1.389 . S
C4348 H4321 0.950 . S
C4348 C4334 1.377 . S
C4348 C4347 1.373 . S
C4349 C4333 1.377 . S
C4349 C4347 1.389 . S
C4349 C4350 1.524 . S
C4350 C4349 1.524 . S
C4350 C4351 1.397 . S
C4350 C4355 1.363 . S
C4351 H4322 0.950 . S
C4351 C4350 1.397 . S
C4351 C4352 1.334 . S
C4352 H4323 0.950 . S
C4352 C4351 1.334 . S
C4352 C4353 1.287 . S
C4353 C4352 1.287 . S
C4353 C4354 1.524 . S
C4353 H4356 0.999 . S
C4354 H4324 0.950 . S
C4354 C4353 1.524 . S
C4354 C4355 1.415 . S
C4355 H4325 0.950 . S
C4355 C4350 1.363 . S
C4355 C4354 1.415 . S
H4356 C4353 0.999 . S
H4357 C4338 0.913 . S
H4358 C4376 0.951 . S
H4359 C4378 0.951 . S
H4360 C4380 0.950 . S
H4361 C4381 0.950 . S
H4362 C4383 0.950 . S
H4363 C4386 0.950 . S
H4364 C4387 0.950 . S
H4365 C4389 0.950 . S
H4366 C4390 0.950 . S
H4367 C4391 0.951 . S
H4368 C4393 0.951 . S
H4369 C4395 0.950 . S
H4370 C4396 0.950 . S
H4371 C4398 0.950 . S
H4372 C4401 0.950 . S
H4373 C4402 0.950 . S
H4374 C4404 0.950 . S
H4375 C4405 0.950 . S
C4376 H4358 0.951 . S
C4376 C4377 1.366 . S
C4376 C4378 1.388 . S
C4377 C4376 1.366 . S
C4377 C4381 1.385 . S
C4378 H4359 0.951 . S
C4378 C4376 1.388 . S
C4378 C4379 1.366 . S
C4379 C4378 1.366 . S
C4379 C4380 1.414 . S
C4379 C4382 1.499 . S
C4380 H4360 0.950 . S
C4380 C4379 1.414 . S
C4380 C4381 1.374 . S
C4381 H4361 0.950 . S
C4381 C4377 1.385 . S
C4381 C4380 1.374 . S
C4382 C4379 1.499 . S
C4382 C4383 1.373 . S
C4382 C4384 1.389 . S
C4383 H4362 0.950 . S
C4383 C4382 1.373 . S
C4383 C4399 1.377 . S
C4384 C4382 1.389 . S
C4384 C4385 1.524 . S
C4384 C4398 1.377 . S
C4385 C4384 1.524 . S
C4385 C4386 1.397 . S
C4385 C4390 1.363 . S
C4386 H4363 0.950 . S
C4386 C4385 1.397 . S
C4386 C4387 1.334 . S
C4387 H4364 0.950 . S
C4387 C4386 1.334 . S
C4387 C4388 1.287 . S
C4388 C4387 1.287 . S
C4388 C4389 1.524 . S
C4388 H4407 0.913 . S
C4389 H4365 0.950 . S
C4389 C4388 1.524 . S
C4389 C4390 1.415 . S
C4390 H4366 0.950 . S
C4390 C4385 1.363 . S
C4390 C4389 1.415 . S
C4391 H4367 0.951 . S
C4391 C4392 1.366 . S
C4391 C4393 1.388 . S
C4392 C4391 1.366 . S
C4392 C4396 1.385 . S
C4393 H4368 0.951 . S
C4393 C4391 1.388 . S
C4393 C4394 1.366 . S
C4394 C4393 1.366 . S
C4394 C4395 1.414 . S
C4394 C4397 1.499 . S
C4395 H4369 0.950 . S
C4395 C4394 1.414 . S
C4395 C4396 1.374 . S
C4396 H4370 0.950 . S
C4396 C4392 1.385 . S
C4396 C4395 1.374 . S
C4397 C4394 1.499 . S
C4397 C4398 1.373 . S
C4397 C4399 1.389 . S
C4398 H4371 0.950 . S
C4398 C4384 1.377 . S
C4398 C4397 1.373 . S
C4399 C4383 1.377 . S
C4399 C4397 1.389 . S
C4399 C4400 1.524 . S
C4400 C4399 1.524 . S
C4400 C4401 1.397 . S
C4400 C4405 1.363 . S
C4401 H4372 0.950 . S
C4401 C4400 1.397 . S
C4401 C4402 1.334 . S
C4402 H4373 0.950 . S
C4402 C4401 1.334 . S
C4402 C4403 1.287 . S
C4403 C4402 1.287 . S
C4403 C4404 1.524 . S
C4403 H4406 0.999 . S
C4404 H4374 0.950 . S
C4404 C4403 1.524 . S
C4404 C4405 1.415 . S
C4405 H4375 0.950 . S
C4405 C4400 1.363 . S
C4405 C4404 1.415 . S
H4406 C4403 0.999 . S
H4407 C4388 0.913 . S
H4408 C4426 0.951 . S
H4409 C4428 0.952 . S
H4410 C4430 0.950 . S
H4411 C4431 0.950 . S
H4412 C4433 0.950 . S
H4413 C4436 0.950 . S
H4414 C4437 0.950 . S
H4415 C4439 0.950 . S
H4416 C4440 0.950 . S
H4417 C4441 0.951 . S
H4418 C4443 0.951 . S
H4419 C4445 0.950 . S
H4420 C4446 0.950 . S
H4421 C4448 0.950 . S
H4422 C4451 0.950 . S
H4423 C4452 0.950 . S
H4424 C4454 0.950 . S
H4425 C4455 0.950 . S
C4426 H4408 0.951 . S
C4426 C4427 1.366 . S
C4426 C4428 1.415 . S
C4427 C4426 1.366 . S
C4427 C4431 1.385 1_545 S
C4428 H4409 0.952 . S
C4428 C4426 1.415 . S
C4428 C4429 1.338 1_545 S
C4429 C4428 1.338 1_565 S
C4429 C4430 1.414 . S
C4429 C4432 1.499 . S
C4430 H4410 0.950 . S
C4430 C4429 1.414 . S
C4430 C4431 1.374 . S
C4431 H4411 0.950 . S
C4431 C4427 1.385 1_565 S
C4431 C4430 1.374 . S
C4432 C4429 1.499 . S
C4432 C4433 1.373 . S
C4432 C4434 1.389 . S
C4433 H4412 0.950 . S
C4433 C4432 1.373 . S
C4433 C4449 1.377 . S
C4434 C4432 1.389 . S
C4434 C4435 1.524 . S
C4434 C4448 1.377 . S
C4435 C4434 1.524 . S
C4435 C4436 1.397 . S
C4435 C4440 1.363 . S
C4436 H4413 0.950 . S
C4436 C4435 1.397 . S
C4436 C4437 1.334 1_565 S
C4437 H4414 0.950 . S
C4437 C4436 1.334 1_545 S
C4437 C4438 1.287 . S
C4438 C4437 1.287 . S
C4438 C4439 1.524 . S
C4438 H4457 0.913 . S
C4439 H4415 0.950 . S
C4439 C4438 1.524 . S
C4439 C4440 1.415 1_545 S
C4440 H4416 0.950 . S
C4440 C4435 1.363 . S
C4440 C4439 1.415 1_565 S
C4441 H4417 0.951 . S
C4441 C4442 1.366 . S
C4441 C4443 1.388 . S
C4442 C4441 1.366 . S
C4442 C4446 1.385 . S
C4443 H4418 0.951 . S
C4443 C4441 1.388 . S
C4443 C4444 1.366 . S
C4444 C4443 1.366 . S
C4444 C4445 1.414 . S
C4444 C4447 1.499 . S
C4445 H4419 0.950 . S
C4445 C4444 1.414 . S
C4445 C4446 1.374 . S
C4446 H4420 0.950 . S
C4446 C4442 1.385 . S
C4446 C4445 1.374 . S
C4447 C4444 1.499 . S
C4447 C4448 1.373 . S
C4447 C4449 1.389 . S
C4448 H4421 0.950 . S
C4448 C4434 1.377 . S
C4448 C4447 1.373 . S
C4449 C4433 1.377 . S
C4449 C4447 1.389 . S
C4449 C4450 1.524 . S
C4450 C4449 1.524 . S
C4450 C4451 1.397 . S
C4450 C4455 1.363 . S
C4451 H4422 0.950 . S
C4451 C4450 1.397 . S
C4451 C4452 1.334 . S
C4452 H4423 0.950 . S
C4452 C4451 1.334 . S
C4452 C4453 1.287 . S
C4453 C4452 1.287 . S
C4453 C4454 1.524 . S
C4453 H4456 0.999 . S
C4454 H4424 0.950 . S
C4454 C4453 1.524 . S
C4454 C4455 1.415 . S
C4455 H4425 0.950 . S
C4455 C4450 1.363 . S
C4455 C4454 1.415 . S
H4456 C4453 0.999 . S
H4457 C4438 0.913 . S
H4458 C4476 0.951 . S
H4459 C4478 0.951 . S
H4460 C4480 0.950 . S
H4461 C4481 0.950 . S
H4462 C4483 0.950 . S
H4463 C4486 0.950 . S
H4464 C4487 0.950 . S
H4465 C4489 0.950 . S
H4466 C4490 0.950 . S
H4467 C4491 0.951 1_545 S
H4468 C4493 0.951 . S
H4469 C4495 0.950 . S
H4470 C4496 0.950 . S
H4471 C4498 0.950 . S
H4472 C4501 0.950 . S
H4473 C4502 0.951 . S
H4474 C4504 0.950 . S
H4475 C4505 0.950 . S
C4476 H4458 0.951 . S
C4476 C4477 1.366 . S
C4476 C4478 1.388 . S
C4477 C4476 1.366 . S
C4477 C4481 1.385 . S
C4478 H4459 0.951 . S
C4478 C4476 1.388 . S
C4478 C4479 1.366 . S
C4479 C4478 1.366 . S
C4479 C4480 1.414 . S
C4479 C4482 1.499 . S
C4480 H4460 0.950 . S
C4480 C4479 1.414 . S
C4480 C4481 1.374 . S
C4481 H4461 0.950 . S
C4481 C4477 1.385 . S
C4481 C4480 1.374 . S
C4482 C4479 1.499 . S
C4482 C4483 1.373 . S
C4482 C4484 1.389 . S
C4483 H4462 0.950 . S
C4483 C4482 1.373 . S
C4483 C4499 1.377 . S
C4484 C4482 1.389 . S
C4484 C4485 1.524 . S
C4484 C4498 1.377 . S
C4485 C4484 1.524 . S
C4485 C4486 1.397 . S
C4485 C4490 1.363 . S
C4486 H4463 0.950 . S
C4486 C4485 1.397 . S
C4486 C4487 1.334 . S
C4487 H4464 0.950 . S
C4487 C4486 1.334 . S
C4487 C4488 1.287 . S
C4488 C4487 1.287 . S
C4488 C4489 1.524 . S
C4488 H4507 0.913 . S
C4489 H4465 0.950 . S
C4489 C4488 1.524 . S
C4489 C4490 1.415 . S
C4490 H4466 0.950 . S
C4490 C4485 1.363 . S
C4490 C4489 1.415 . S
C4491 H4467 0.951 1_565 S
C4491 C4492 1.366 . S
C4491 C4493 1.388 . S
C4492 C4491 1.366 . S
C4492 C4496 1.385 . S
C4493 H4468 0.951 . S
C4493 C4491 1.388 . S
C4493 C4494 1.366 . S
C4494 C4493 1.366 . S
C4494 C4495 1.414 . S
C4494 C4497 1.499 . S
C4495 H4469 0.950 . S
C4495 C4494 1.414 . S
C4495 C4496 1.374 . S
C4496 H4470 0.950 . S
C4496 C4492 1.385 . S
C4496 C4495 1.374 . S
C4497 C4494 1.499 . S
C4497 C4498 1.373 . S
C4497 C4499 1.389 . S
C4498 H4471 0.950 . S
C4498 C4484 1.377 . S
C4498 C4497 1.373 . S
C4499 C4483 1.377 . S
C4499 C4497 1.389 . S
C4499 C4500 1.524 . S
C4500 C4499 1.524 . S
C4500 C4501 1.397 . S
C4500 C4505 1.363 . S
C4501 H4472 0.950 . S
C4501 C4500 1.397 . S
C4501 C4502 1.333 1_565 S
C4502 H4473 0.951 . S
C4502 C4501 1.333 1_545 S
C4502 C4503 1.287 . S
C4503 C4502 1.287 . S
C4503 C4504 1.524 . S
C4503 H4506 0.999 . S
C4504 H4474 0.950 . S
C4504 C4503 1.524 . S
C4504 C4505 1.415 1_545 S
C4505 H4475 0.950 . S
C4505 C4500 1.363 . S
C4505 C4504 1.415 1_565 S
H4506 C4503 0.999 . S
H4507 C4488 0.913 . S
H4508 C4526 0.951 . S
H4509 C4528 0.951 . S
H4510 C4530 0.950 . S
H4511 C4531 0.950 . S
H4512 C4533 0.950 . S
H4513 C4536 0.950 . S
H4514 C4537 0.950 . S
H4515 C4539 0.950 . S
H4516 C4540 0.950 . S
H4517 C4541 0.951 . S
H4518 C4543 0.951 . S
H4519 C4545 0.950 . S
H4520 C4546 0.950 . S
H4521 C4548 0.950 . S
H4522 C4551 0.950 . S
H4523 C4552 0.950 . S
H4524 C4554 0.950 . S
H4525 C4555 0.950 . S
C4526 H4508 0.951 . S
C4526 C4527 1.366 . S
C4526 C4528 1.388 . S
C4527 C4526 1.366 . S
C4527 C4531 1.385 . S
C4528 H4509 0.951 . S
C4528 C4526 1.388 . S
C4528 C4529 1.366 . S
C4529 C4528 1.366 . S
C4529 C4530 1.414 . S
C4529 C4532 1.499 . S
C4530 H4510 0.950 . S
C4530 C4529 1.414 . S
C4530 C4531 1.374 . S
C4531 H4511 0.950 . S
C4531 C4527 1.385 . S
C4531 C4530 1.374 . S
C4532 C4529 1.499 . S
C4532 C4533 1.373 . S
C4532 C4534 1.389 . S
C4533 H4512 0.950 . S
C4533 C4532 1.373 . S
C4533 C4549 1.377 . S
C4534 C4532 1.389 . S
C4534 C4535 1.524 . S
C4534 C4548 1.377 . S
C4535 C4534 1.524 . S
C4535 C4536 1.397 . S
C4535 C4540 1.363 . S
C4536 H4513 0.950 . S
C4536 C4535 1.397 . S
C4536 C4537 1.334 . S
C4537 H4514 0.950 . S
C4537 C4536 1.334 . S
C4537 C4538 1.287 . S
C4538 C4537 1.287 . S
C4538 C4539 1.524 . S
C4538 H4557 0.913 . S
C4539 H4515 0.950 . S
C4539 C4538 1.524 . S
C4539 C4540 1.415 . S
C4540 H4516 0.950 . S
C4540 C4535 1.363 . S
C4540 C4539 1.415 . S
C4541 H4517 0.951 . S
C4541 C4542 1.366 . S
C4541 C4543 1.388 . S
C4542 C4541 1.366 . S
C4542 C4546 1.385 . S
C4543 H4518 0.951 . S
C4543 C4541 1.388 . S
C4543 C4544 1.366 . S
C4544 C4543 1.366 . S
C4544 C4545 1.414 . S
C4544 C4547 1.499 . S
C4545 H4519 0.950 . S
C4545 C4544 1.414 . S
C4545 C4546 1.374 . S
C4546 H4520 0.950 . S
C4546 C4542 1.385 . S
C4546 C4545 1.374 . S
C4547 C4544 1.499 . S
C4547 C4548 1.373 . S
C4547 C4549 1.389 . S
C4548 H4521 0.950 . S
C4548 C4534 1.377 . S
C4548 C4547 1.373 . S
C4549 C4533 1.377 . S
C4549 C4547 1.389 . S
C4549 C4550 1.524 . S
C4550 C4549 1.524 . S
C4550 C4551 1.397 . S
C4550 C4555 1.363 . S
C4551 H4522 0.950 . S
C4551 C4550 1.397 . S
C4551 C4552 1.334 . S
C4552 H4523 0.950 . S
C4552 C4551 1.334 . S
C4552 C4553 1.287 . S
C4553 C4552 1.287 . S
C4553 C4554 1.524 . S
C4553 H4556 0.999 . S
C4554 H4524 0.950 . S
C4554 C4553 1.524 . S
C4554 C4555 1.415 . S
C4555 H4525 0.950 . S
C4555 C4550 1.363 . S
C4555 C4554 1.415 . S
H4556 C4553 0.999 . S
H4557 C4538 0.913 . S
H4558 C4576 0.951 . S
H4559 C4578 0.951 . S
H4560 C4580 0.950 . S
H4561 C4581 0.950 . S
H4562 C4583 0.950 . S
H4563 C4586 0.950 . S
H4564 C4587 0.950 . S
H4565 C4589 0.950 . S
H4566 C4590 0.950 . S
H4567 C4591 0.951 . S
H4568 C4593 0.951 . S
H4569 C4595 0.950 . S
H4570 C4596 0.950 . S
H4571 C4598 0.950 . S
H4572 C4601 0.950 . S
H4573 C4602 0.950 . S
H4574 C4604 0.950 . S
H4575 C4605 0.950 . S
C4576 H4558 0.951 . S
C4576 C4577 1.366 . S
C4576 C4578 1.388 . S
C4577 C4576 1.366 . S
C4577 C4581 1.385 . S
C4578 H4559 0.951 . S
C4578 C4576 1.388 . S
C4578 C4579 1.366 . S
C4579 C4578 1.366 . S
C4579 C4580 1.414 . S
C4579 C4582 1.499 . S
C4580 H4560 0.950 . S
C4580 C4579 1.414 . S
C4580 C4581 1.374 . S
C4581 H4561 0.950 . S
C4581 C4577 1.385 . S
C4581 C4580 1.374 . S
C4582 C4579 1.499 . S
C4582 C4583 1.373 . S
C4582 C4584 1.389 . S
C4583 H4562 0.950 . S
C4583 C4582 1.373 . S
C4583 C4599 1.377 . S
C4584 C4582 1.389 . S
C4584 C4585 1.524 . S
C4584 C4598 1.377 . S
C4585 C4584 1.524 . S
C4585 C4586 1.397 . S
C4585 C4590 1.363 . S
C4586 H4563 0.950 . S
C4586 C4585 1.397 . S
C4586 C4587 1.334 . S
C4587 H4564 0.950 . S
C4587 C4586 1.334 . S
C4587 C4588 1.287 . S
C4588 C4587 1.287 . S
C4588 C4589 1.524 . S
C4588 H4607 0.913 . S
C4589 H4565 0.950 . S
C4589 C4588 1.524 . S
C4589 C4590 1.415 . S
C4590 H4566 0.950 . S
C4590 C4585 1.363 . S
C4590 C4589 1.415 . S
C4591 H4567 0.951 . S
C4591 C4592 1.366 . S
C4591 C4593 1.388 . S
C4592 C4591 1.366 . S
C4592 C4596 1.385 . S
C4593 H4568 0.951 . S
C4593 C4591 1.388 . S
C4593 C4594 1.366 . S
C4594 C4593 1.366 . S
C4594 C4595 1.414 . S
C4594 C4597 1.499 . S
C4595 H4569 0.950 . S
C4595 C4594 1.414 . S
C4595 C4596 1.374 . S
C4596 H4570 0.950 . S
C4596 C4592 1.385 . S
C4596 C4595 1.374 . S
C4597 C4594 1.499 . S
C4597 C4598 1.373 . S
C4597 C4599 1.389 . S
C4598 H4571 0.950 . S
C4598 C4584 1.377 . S
C4598 C4597 1.373 . S
C4599 C4583 1.377 . S
C4599 C4597 1.389 . S
C4599 C4600 1.524 . S
C4600 C4599 1.524 . S
C4600 C4601 1.397 . S
C4600 C4605 1.363 . S
C4601 H4572 0.950 . S
C4601 C4600 1.397 . S
C4601 C4602 1.334 . S
C4602 H4573 0.950 . S
C4602 C4601 1.334 . S
C4602 C4603 1.287 . S
C4603 C4602 1.287 . S
C4603 C4604 1.524 . S
C4603 H4606 0.999 . S
C4604 H4574 0.950 . S
C4604 C4603 1.524 . S
C4604 C4605 1.415 . S
C4605 H4575 0.950 . S
C4605 C4600 1.363 . S
C4605 C4604 1.415 . S
H4606 C4603 0.999 . S
H4607 C4588 0.913 . S
H4608 C4626 0.951 . S
H4609 C4628 0.951 . S
H4610 C4630 0.950 . S
H4611 C4631 0.950 . S
H4612 C4633 0.950 . S
H4613 C4636 0.950 . S
H4614 C4637 0.950 . S
H4615 C4639 0.950 . S
H4616 C4640 0.950 . S
H4617 C4641 0.951 . S
H4618 C4643 0.951 . S
H4619 C4645 0.950 . S
H4620 C4646 0.950 . S
H4621 C4648 0.950 . S
H4622 C4651 0.950 . S
H4623 C4652 0.950 . S
H4624 C4654 0.950 . S
H4625 C4655 0.950 . S
C4626 H4608 0.951 . S
C4626 C4627 1.366 . S
C4626 C4628 1.388 . S
C4627 C4626 1.366 . S
C4627 C4631 1.385 . S
C4628 H4609 0.951 . S
C4628 C4626 1.388 . S
C4628 C4629 1.366 . S
C4629 C4628 1.366 . S
C4629 C4630 1.414 . S
C4629 C4632 1.499 . S
C4630 H4610 0.950 . S
C4630 C4629 1.414 . S
C4630 C4631 1.374 . S
C4631 H4611 0.950 . S
C4631 C4627 1.385 . S
C4631 C4630 1.374 . S
C4632 C4629 1.499 . S
C4632 C4633 1.373 . S
C4632 C4634 1.389 . S
C4633 H4612 0.950 . S
C4633 C4632 1.373 . S
C4633 C4649 1.377 . S
C4634 C4632 1.389 . S
C4634 C4635 1.524 . S
C4634 C4648 1.377 . S
C4635 C4634 1.524 . S
C4635 C4636 1.397 . S
C4635 C4640 1.363 . S
C4636 H4613 0.950 . S
C4636 C4635 1.397 . S
C4636 C4637 1.334 . S
C4637 H4614 0.950 . S
C4637 C4636 1.334 . S
C4637 C4638 1.287 . S
C4638 C4637 1.287 . S
C4638 C4639 1.524 . S
C4638 H4657 0.913 . S
C4639 H4615 0.950 . S
C4639 C4638 1.524 . S
C4639 C4640 1.415 . S
C4640 H4616 0.950 . S
C4640 C4635 1.363 . S
C4640 C4639 1.415 . S
C4641 H4617 0.951 . S
C4641 C4642 1.366 . S
C4641 C4643 1.388 . S
C4642 C4641 1.366 . S
C4642 C4646 1.385 . S
C4643 H4618 0.951 . S
C4643 C4641 1.388 . S
C4643 C4644 1.366 . S
C4644 C4643 1.366 . S
C4644 C4645 1.414 . S
C4644 C4647 1.499 . S
C4645 H4619 0.950 . S
C4645 C4644 1.414 . S
C4645 C4646 1.374 . S
C4646 H4620 0.950 . S
C4646 C4642 1.385 . S
C4646 C4645 1.374 . S
C4647 C4644 1.499 . S
C4647 C4648 1.373 . S
C4647 C4649 1.389 . S
C4648 H4621 0.950 . S
C4648 C4634 1.377 . S
C4648 C4647 1.373 . S
C4649 C4633 1.377 . S
C4649 C4647 1.389 . S
C4649 C4650 1.524 . S
C4650 C4649 1.524 . S
C4650 C4651 1.397 . S
C4650 C4655 1.363 . S
C4651 H4622 0.950 . S
C4651 C4650 1.397 . S
C4651 C4652 1.334 . S
C4652 H4623 0.950 . S
C4652 C4651 1.334 . S
C4652 C4653 1.287 . S
C4653 C4652 1.287 . S
C4653 C4654 1.524 . S
C4653 H4656 0.999 . S
C4654 H4624 0.950 . S
C4654 C4653 1.524 . S
C4654 C4655 1.415 . S
C4655 H4625 0.950 . S
C4655 C4650 1.363 . S
C4655 C4654 1.415 . S
H4656 C4653 0.999 . S
H4657 C4638 0.913 . S
H4658 C4676 0.951 . S
H4659 C4678 0.951 . S
H4660 C4680 0.950 . S
H4661 C4681 0.950 . S
H4662 C4683 0.950 . S
H4663 C4686 0.950 . S
H4664 C4687 0.950 . S
H4665 C4689 0.950 . S
H4666 C4690 0.950 . S
H4667 C4691 0.951 . S
H4668 C4693 0.951 . S
H4669 C4695 0.950 . S
H4670 C4696 0.950 . S
H4671 C4698 0.950 . S
H4672 C4701 0.950 . S
H4673 C4702 0.950 . S
H4674 C4704 0.950 . S
H4675 C4705 0.950 . S
C4676 H4658 0.951 . S
C4676 C4677 1.366 . S
C4676 C4678 1.388 . S
C4677 C4676 1.366 . S
C4677 C4681 1.385 . S
C4678 H4659 0.951 . S
C4678 C4676 1.388 . S
C4678 C4679 1.366 . S
C4679 C4678 1.366 . S
C4679 C4680 1.414 . S
C4679 C4682 1.499 . S
C4680 H4660 0.950 . S
C4680 C4679 1.414 . S
C4680 C4681 1.374 . S
C4681 H4661 0.950 . S
C4681 C4677 1.385 . S
C4681 C4680 1.374 . S
C4682 C4679 1.499 . S
C4682 C4683 1.373 . S
C4682 C4684 1.389 . S
C4683 H4662 0.950 . S
C4683 C4682 1.373 . S
C4683 C4699 1.377 . S
C4684 C4682 1.389 . S
C4684 C4685 1.524 . S
C4684 C4698 1.377 . S
C4685 C4684 1.524 . S
C4685 C4686 1.397 . S
C4685 C4690 1.363 . S
C4686 H4663 0.950 . S
C4686 C4685 1.397 . S
C4686 C4687 1.334 . S
C4687 H4664 0.950 . S
C4687 C4686 1.334 . S
C4687 C4688 1.287 . S
C4688 C4687 1.287 . S
C4688 C4689 1.524 . S
C4688 H4707 0.913 . S
C4689 H4665 0.950 . S
C4689 C4688 1.524 . S
C4689 C4690 1.415 . S
C4690 H4666 0.950 . S
C4690 C4685 1.363 . S
C4690 C4689 1.415 . S
C4691 H4667 0.951 . S
C4691 C4692 1.366 . S
C4691 C4693 1.388 . S
C4692 C4691 1.366 . S
C4692 C4696 1.385 . S
C4693 H4668 0.951 . S
C4693 C4691 1.388 . S
C4693 C4694 1.366 . S
C4694 C4693 1.366 . S
C4694 C4695 1.414 . S
C4694 C4697 1.499 . S
C4695 H4669 0.950 . S
C4695 C4694 1.414 . S
C4695 C4696 1.374 . S
C4696 H4670 0.950 . S
C4696 C4692 1.385 . S
C4696 C4695 1.374 . S
C4697 C4694 1.499 . S
C4697 C4698 1.373 . S
C4697 C4699 1.389 . S
C4698 H4671 0.950 . S
C4698 C4684 1.377 . S
C4698 C4697 1.373 . S
C4699 C4683 1.377 . S
C4699 C4697 1.389 . S
C4699 C4700 1.524 . S
C4700 C4699 1.524 . S
C4700 C4701 1.397 . S
C4700 C4705 1.363 . S
C4701 H4672 0.950 . S
C4701 C4700 1.397 . S
C4701 C4702 1.334 . S
C4702 H4673 0.950 . S
C4702 C4701 1.334 . S
C4702 C4703 1.287 . S
C4703 C4702 1.287 . S
C4703 C4704 1.524 . S
C4703 H4706 0.999 . S
C4704 H4674 0.950 . S
C4704 C4703 1.524 . S
C4704 C4705 1.415 . S
C4705 H4675 0.950 . S
C4705 C4700 1.363 . S
C4705 C4704 1.415 . S
H4706 C4703 0.999 . S
H4707 C4688 0.913 . S
H4708 C4726 0.951 . S
H4709 C4728 0.951 . S
H4710 C4730 0.950 . S
H4711 C4731 0.970 . S
H4712 C4733 0.950 . S
H4713 C4736 0.950 . S
H4714 C4737 0.950 . S
H4715 C4739 0.950 . S
H4716 C4740 0.950 . S
H4717 C4741 0.951 . S
H4718 C4743 0.951 . S
H4719 C4745 0.950 . S
H4720 C4746 0.950 . S
H4721 C4748 0.985 . S
H4722 C4751 0.950 . S
H4723 C4752 0.950 . S
H4724 C4754 0.950 . S
H4725 C4755 0.950 1_655 S
C4726 H4708 0.951 . S
C4726 C4727 1.366 . S
C4726 C4728 1.388 . S
C4727 C4726 1.366 . S
C4727 C4731 1.385 . S
C4728 H4709 0.951 . S
C4728 C4726 1.388 . S
C4728 C4729 1.366 . S
C4729 C4728 1.366 . S
C4729 C4730 1.414 . S
C4729 C4732 1.499 . S
C4730 H4710 0.950 . S
C4730 C4729 1.414 . S
C4730 C4731 1.374 . S
C4731 H4711 0.970 . S
C4731 C4727 1.385 . S
C4731 C4730 1.374 . S
C4732 C4729 1.499 . S
C4732 C4733 1.373 . S
C4732 C4734 1.389 . S
C4733 H4712 0.950 . S
C4733 C4732 1.373 . S
C4733 C4749 1.377 . S
C4734 C4732 1.389 . S
C4734 C4735 1.524 1_556 S
C4734 C4748 1.374 1_556 S
C4735 C4734 1.524 1_554 S
C4735 C4736 1.397 . S
C4735 C4740 1.363 . S
C4736 H4713 0.950 . S
C4736 C4735 1.397 . S
C4736 C4737 1.334 . S
C4737 H4714 0.950 . S
C4737 C4736 1.334 . S
C4737 C4738 1.287 . S
C4738 C4737 1.287 . S
C4738 C4739 1.524 . S
C4738 H4757 0.913 . S
C4739 H4715 0.950 . S
C4739 C4738 1.524 . S
C4739 C4740 1.415 . S
C4740 H4716 0.950 . S
C4740 C4735 1.363 . S
C4740 C4739 1.415 . S
C4741 H4717 0.951 . S
C4741 C4742 1.366 . S
C4741 C4743 1.388 1_554 S
C4742 C4741 1.366 . S
C4742 C4746 1.385 . S
C4743 H4718 0.951 . S
C4743 C4741 1.388 1_556 S
C4743 C4744 1.366 . S
C4744 C4743 1.366 . S
C4744 C4745 1.414 1_556 S
C4744 C4747 1.499 . S
C4745 H4719 0.950 . S
C4745 C4744 1.414 1_554 S
C4745 C4746 1.374 . S
C4746 H4720 0.950 . S
C4746 C4742 1.385 . S
C4746 C4745 1.374 . S
C4747 C4744 1.499 . S
C4747 C4748 1.343 1_556 S
C4747 C4749 1.389 . S
C4748 H4721 0.985 . S
C4748 C4734 1.374 1_554 S
C4748 C4747 1.343 1_554 S
C4749 C4733 1.377 . S
C4749 C4747 1.389 . S
C4749 C4750 1.524 . S
C4750 C4749 1.524 . S
C4750 C4751 1.397 . S
C4750 C4755 1.363 . S
C4751 H4722 0.950 . S
C4751 C4750 1.397 . S
C4751 C4752 1.334 . S
C4752 H4723 0.950 . S
C4752 C4751 1.334 . S
C4752 C4753 1.287 . S
C4753 C4752 1.287 . S
C4753 C4754 1.524 1_455 S
C4753 H4756 0.999 . S
C4754 H4724 0.950 . S
C4754 C4753 1.524 1_655 S
C4754 C4755 1.415 1_655 S
C4755 H4725 0.950 1_455 S
C4755 C4750 1.363 . S
C4755 C4754 1.415 1_455 S
H4756 C4753 0.999 . S
H4757 C4738 0.913 . S
H4758 C4776 0.951 . S
H4759 C4778 0.951 . S
H4760 C4780 0.950 . S
H4761 C4781 0.950 . S
H4762 C4783 0.950 . S
H4763 C4786 0.950 . S
H4764 C4787 0.950 . S
H4765 C4789 0.950 1_455 S
H4766 C4790 0.950 . S
H4767 C4791 0.951 . S
H4768 C4793 0.951 . S
H4769 C4795 0.950 . S
H4770 C4796 0.950 . S
H4771 C4798 0.950 . S
H4772 C4801 0.950 . S
H4773 C4802 0.950 . S
H4774 C4804 0.950 . S
H4775 C4805 0.950 . S
C4776 H4758 0.951 . S
C4776 C4777 1.366 . S
C4776 C4778 1.388 . S
C4777 C4776 1.366 . S
C4777 C4781 1.385 . S
C4778 H4759 0.951 . S
C4778 C4776 1.388 . S
C4778 C4779 1.366 1_455 S
C4779 C4778 1.366 1_655 S
C4779 C4780 1.414 . S
C4779 C4782 1.499 . S
C4780 H4760 0.950 . S
C4780 C4779 1.414 . S
C4780 C4781 1.374 1_655 S
C4781 H4761 0.950 . S
C4781 C4777 1.385 . S
C4781 C4780 1.374 1_455 S
C4782 C4779 1.499 . S
C4782 C4783 1.373 . S
C4782 C4784 1.389 . S
C4783 H4762 0.950 . S
C4783 C4782 1.373 . S
C4783 C4799 1.377 . S
C4784 C4782 1.389 . S
C4784 C4785 1.524 . S
C4784 C4798 1.377 . S
C4785 C4784 1.524 . S
C4785 C4786 1.397 . S
C4785 C4790 1.363 . S
C4786 H4763 0.950 . S
C4786 C4785 1.397 . S
C4786 C4787 1.334 . S
C4787 H4764 0.950 . S
C4787 C4786 1.334 . S
C4787 C4788 1.287 . S
C4788 C4787 1.287 . S
C4788 C4789 1.524 . S
C4788 H4807 0.913 1_655 S
C4789 H4765 0.950 1_655 S
C4789 C4788 1.524 . S
C4789 C4790 1.415 . S
C4790 H4766 0.950 . S
C4790 C4785 1.363 . S
C4790 C4789 1.415 . S
C4791 H4767 0.951 . S
C4791 C4792 1.366 . S
C4791 C4793 1.388 . S
C4792 C4791 1.366 . S
C4792 C4796 1.385 . S
C4793 H4768 0.951 . S
C4793 C4791 1.388 . S
C4793 C4794 1.366 . S
C4794 C4793 1.366 . S
C4794 C4795 1.414 . S
C4794 C4797 1.499 . S
C4795 H4769 0.950 . S
C4795 C4794 1.414 . S
C4795 C4796 1.374 . S
C4796 H4770 0.950 . S
C4796 C4792 1.385 . S
C4796 C4795 1.374 . S
C4797 C4794 1.499 . S
C4797 C4798 1.373 . S
C4797 C4799 1.389 . S
C4798 H4771 0.950 . S
C4798 C4784 1.377 . S
C4798 C4797 1.373 . S
C4799 C4783 1.377 . S
C4799 C4797 1.389 . S
C4799 C4800 1.524 . S
C4800 C4799 1.524 . S
C4800 C4801 1.397 . S
C4800 C4805 1.363 . S
C4801 H4772 0.950 . S
C4801 C4800 1.397 . S
C4801 C4802 1.334 . S
C4802 H4773 0.950 . S
C4802 C4801 1.334 . S
C4802 C4803 1.287 . S
C4803 C4802 1.287 . S
C4803 C4804 1.524 . S
C4803 H4806 0.999 . S
C4804 H4774 0.950 . S
C4804 C4803 1.524 . S
C4804 C4805 1.415 . S
C4805 H4775 0.950 . S
C4805 C4800 1.363 . S
C4805 C4804 1.415 . S
H4806 C4803 0.999 . S
H4807 C4788 0.913 1_455 S
H4808 C4826 0.951 . S
H4809 C4828 0.951 . S
H4810 C4830 0.950 . S
H4811 C4831 0.950 . S
H4812 C4833 0.950 . S
H4813 C4836 0.950 . S
H4814 C4837 0.950 . S
H4815 C4839 0.950 . S
H4816 C4840 0.950 . S
H4817 C4841 0.951 . S
H4818 C4843 0.951 . S
H4819 C4845 0.950 . S
H4820 C4846 0.950 . S
H4821 C4848 0.950 . S
H4822 C4851 0.950 . S
H4823 C4852 0.950 . S
H4824 C4854 0.950 . S
H4825 C4855 0.950 . S
C4826 H4808 0.951 . S
C4826 C4827 1.366 . S
C4826 C4828 1.388 . S
C4827 C4826 1.366 . S
C4827 C4831 1.385 . S
C4828 H4809 0.951 . S
C4828 C4826 1.388 . S
C4828 C4829 1.366 . S
C4829 C4828 1.366 . S
C4829 C4830 1.414 . S
C4829 C4832 1.499 . S
C4830 H4810 0.950 . S
C4830 C4829 1.414 . S
C4830 C4831 1.374 . S
C4831 H4811 0.950 . S
C4831 C4827 1.385 . S
C4831 C4830 1.374 . S
C4832 C4829 1.499 . S
C4832 C4833 1.373 . S
C4832 C4834 1.389 . S
C4833 H4812 0.950 . S
C4833 C4832 1.373 . S
C4833 C4849 1.377 . S
C4834 C4832 1.389 . S
C4834 C4835 1.524 . S
C4834 C4848 1.377 . S
C4835 C4834 1.524 . S
C4835 C4836 1.397 . S
C4835 C4840 1.363 . S
C4836 H4813 0.950 . S
C4836 C4835 1.397 . S
C4836 C4837 1.334 . S
C4837 H4814 0.950 . S
C4837 C4836 1.334 . S
C4837 C4838 1.287 . S
C4838 C4837 1.287 . S
C4838 C4839 1.524 . S
C4838 H4857 0.913 . S
C4839 H4815 0.950 . S
C4839 C4838 1.524 . S
C4839 C4840 1.415 . S
C4840 H4816 0.950 . S
C4840 C4835 1.363 . S
C4840 C4839 1.415 . S
C4841 H4817 0.951 . S
C4841 C4842 1.366 . S
C4841 C4843 1.388 . S
C4842 C4841 1.366 . S
C4842 C4846 1.385 . S
C4843 H4818 0.951 . S
C4843 C4841 1.388 . S
C4843 C4844 1.366 . S
C4844 C4843 1.366 . S
C4844 C4845 1.414 . S
C4844 C4847 1.499 . S
C4845 H4819 0.950 . S
C4845 C4844 1.414 . S
C4845 C4846 1.374 . S
C4846 H4820 0.950 . S
C4846 C4842 1.385 . S
C4846 C4845 1.374 . S
C4847 C4844 1.499 . S
C4847 C4848 1.373 . S
C4847 C4849 1.389 . S
C4848 H4821 0.950 . S
C4848 C4834 1.377 . S
C4848 C4847 1.373 . S
C4849 C4833 1.377 . S
C4849 C4847 1.389 . S
C4849 C4850 1.524 . S
C4850 C4849 1.524 . S
C4850 C4851 1.397 . S
C4850 C4855 1.363 . S
C4851 H4822 0.950 . S
C4851 C4850 1.397 . S
C4851 C4852 1.334 . S
C4852 H4823 0.950 . S
C4852 C4851 1.334 . S
C4852 C4853 1.287 . S
C4853 C4852 1.287 . S
C4853 C4854 1.524 . S
C4853 H4856 0.999 . S
C4854 H4824 0.950 . S
C4854 C4853 1.524 . S
C4854 C4855 1.415 . S
C4855 H4825 0.950 . S
C4855 C4850 1.363 . S
C4855 C4854 1.415 . S
H4856 C4853 0.999 . S
H4857 C4838 0.913 . S
H4858 C4876 0.951 . S
H4859 C4878 0.951 . S
H4860 C4880 0.950 . S
H4861 C4881 0.950 . S
H4862 C4883 0.950 . S
H4863 C4886 0.950 . S
H4864 C4887 0.950 . S
H4865 C4889 0.950 . S
H4866 C4890 0.950 . S
H4867 C4891 0.951 . S
H4868 C4893 0.951 . S
H4869 C4895 0.950 . S
H4870 C4896 0.950 . S
H4871 C4898 0.950 . S
H4872 C4901 0.950 . S
H4873 C4902 0.950 . S
H4874 C4904 0.950 . S
H4875 C4905 0.950 . S
C4876 H4858 0.951 . S
C4876 C4877 1.366 . S
C4876 C4878 1.388 . S
C4877 C4876 1.366 . S
C4877 C4881 1.385 . S
C4878 H4859 0.951 . S
C4878 C4876 1.388 . S
C4878 C4879 1.366 . S
C4879 C4878 1.366 . S
C4879 C4880 1.414 . S
C4879 C4882 1.499 . S
C4880 H4860 0.950 . S
C4880 C4879 1.414 . S
C4880 C4881 1.374 . S
C4881 H4861 0.950 . S
C4881 C4877 1.385 . S
C4881 C4880 1.374 . S
C4882 C4879 1.499 . S
C4882 C4883 1.373 1_455 S
C4882 C4884 1.389 1_455 S
C4883 H4862 0.950 . S
C4883 C4882 1.373 1_655 S
C4883 C4899 1.377 . S
C4884 C4882 1.389 1_655 S
C4884 C4885 1.524 1_655 S
C4884 C4898 1.377 . S
C4885 C4884 1.524 1_455 S
C4885 C4886 1.397 . S
C4885 C4890 1.363 . S
C4886 H4863 0.950 . S
C4886 C4885 1.397 . S
C4886 C4887 1.334 . S
C4887 H4864 0.950 . S
C4887 C4886 1.334 . S
C4887 C4888 1.287 . S
C4888 C4887 1.287 . S
C4888 C4889 1.524 . S
C4888 H4907 0.913 . S
C4889 H4865 0.950 . S
C4889 C4888 1.524 . S
C4889 C4890 1.415 . S
C4890 H4866 0.950 . S
C4890 C4885 1.363 . S
C4890 C4889 1.415 . S
C4891 H4867 0.951 . S
C4891 C4892 1.366 . S
C4891 C4893 1.388 . S
C4892 C4891 1.366 . S
C4892 C4896 1.385 . S
C4893 H4868 0.951 . S
C4893 C4891 1.388 . S
C4893 C4894 1.366 . S
C4894 C4893 1.366 . S
C4894 C4895 1.414 . S
C4894 C4897 1.499 . S
C4895 H4869 0.950 . S
C4895 C4894 1.414 . S
C4895 C4896 1.374 . S
C4896 H4870 0.950 . S
C4896 C4892 1.385 . S
C4896 C4895 1.374 . S
C4897 C4894 1.499 . S
C4897 C4898 1.373 . S
C4897 C4899 1.389 . S
C4898 H4871 0.950 . S
C4898 C4884 1.377 . S
C4898 C4897 1.373 . S
C4899 C4883 1.377 . S
C4899 C4897 1.389 . S
C4899 C4900 1.524 . S
C4900 C4899 1.524 . S
C4900 C4901 1.397 . S
C4900 C4905 1.363 . S
C4901 H4872 0.950 . S
C4901 C4900 1.397 . S
C4901 C4902 1.334 . S
C4902 H4873 0.950 . S
C4902 C4901 1.334 . S
C4902 C4903 1.287 . S
C4903 C4902 1.287 . S
C4903 C4904 1.524 . S
C4903 H4906 0.999 . S
C4904 H4874 0.950 . S
C4904 C4903 1.524 . S
C4904 C4905 1.415 . S
C4905 H4875 0.950 . S
C4905 C4900 1.363 . S
C4905 C4904 1.415 . S
H4906 C4903 0.999 . S
H4907 C4888 0.913 . S
H4908 C4926 0.951 . S
H4909 C4928 0.951 . S
H4910 C4930 0.950 . S
H4911 C4931 0.950 . S
H4912 C4933 0.950 . S
H4913 C4936 0.950 . S
H4914 C4937 0.950 . S
H4915 C4939 0.950 . S
H4916 C4940 0.950 . S
H4917 C4941 0.951 . S
H4918 C4943 0.951 . S
H4919 C4945 0.950 . S
H4920 C4946 0.950 . S
H4921 C4948 0.950 . S
H4922 C4951 0.950 . S
H4923 C4952 0.950 . S
H4924 C4954 0.950 . S
H4925 C4955 0.950 . S
C4926 H4908 0.951 . S
C4926 C4927 1.366 1_455 S
C4926 C4928 1.388 . S
C4927 C4926 1.366 1_655 S
C4927 C4931 1.385 . S
C4928 H4909 0.951 . S
C4928 C4926 1.388 . S
C4928 C4929 1.366 . S
C4929 C4928 1.366 . S
C4929 C4930 1.414 1_455 S
C4929 C4932 1.499 . S
C4930 H4910 0.950 . S
C4930 C4929 1.414 1_655 S
C4930 C4931 1.374 . S
C4931 H4911 0.950 . S
C4931 C4927 1.385 . S
C4931 C4930 1.374 . S
C4932 C4929 1.499 . S
C4932 C4933 1.373 1_455 S
C4932 C4934 1.389 . S
C4933 H4912 0.950 . S
C4933 C4932 1.373 1_655 S
C4933 C4949 1.377 1_655 S
C4934 C4932 1.389 . S
C4934 C4935 1.524 . S
C4934 C4948 1.377 . S
C4935 C4934 1.524 . S
C4935 C4936 1.397 . S
C4935 C4940 1.363 . S
C4936 H4913 0.950 . S
C4936 C4935 1.397 . S
C4936 C4937 1.334 . S
C4937 H4914 0.950 . S
C4937 C4936 1.334 . S
C4937 C4938 1.287 . S
C4938 C4937 1.287 . S
C4938 C4939 1.524 . S
C4938 H4957 0.913 . S
C4939 H4915 0.950 . S
C4939 C4938 1.524 . S
C4939 C4940 1.415 . S
C4940 H4916 0.950 . S
C4940 C4935 1.363 . S
C4940 C4939 1.415 . S
C4941 H4917 0.951 . S
C4941 C4942 1.366 . S
C4941 C4943 1.388 . S
C4942 C4941 1.366 . S
C4942 C4946 1.385 . S
C4943 H4918 0.951 . S
C4943 C4941 1.388 . S
C4943 C4944 1.366 . S
C4944 C4943 1.366 . S
C4944 C4945 1.414 . S
C4944 C4947 1.499 . S
C4945 H4919 0.950 . S
C4945 C4944 1.414 . S
C4945 C4946 1.374 . S
C4946 H4920 0.950 . S
C4946 C4942 1.385 . S
C4946 C4945 1.374 . S
C4947 C4944 1.499 . S
C4947 C4948 1.373 . S
C4947 C4949 1.389 . S
C4948 H4921 0.950 . S
C4948 C4934 1.377 . S
C4948 C4947 1.373 . S
C4949 C4933 1.377 1_455 S
C4949 C4947 1.389 . S
C4949 C4950 1.524 1_455 S
C4950 C4949 1.524 1_655 S
C4950 C4951 1.397 . S
C4950 C4955 1.363 . S
C4951 H4922 0.950 . S
C4951 C4950 1.397 . S
C4951 C4952 1.334 . S
C4952 H4923 0.950 . S
C4952 C4951 1.334 . S
C4952 C4953 1.287 . S
C4953 C4952 1.287 . S
C4953 C4954 1.524 . S
C4953 H4956 0.999 . S
C4954 H4924 0.950 . S
C4954 C4953 1.524 . S
C4954 C4955 1.415 . S
C4955 H4925 0.950 . S
C4955 C4950 1.363 . S
C4955 C4954 1.415 . S
H4956 C4953 0.999 . S
H4957 C4938 0.913 . S
H4958 C4976 0.951 . S
H4959 C4978 0.951 . S
H4960 C4980 0.950 . S
H4961 C4981 0.950 . S
H4962 C4983 0.950 . S
H4963 C4986 0.950 . S
H4964 C4987 0.950 . S
H4965 C4989 0.950 . S
H4966 C4990 0.950 . S
H4967 C4991 0.951 . S
H4968 C4993 0.951 . S
H4969 C4995 0.950 . S
H4970 C4996 0.950 . S
H4971 C4998 0.950 . S
H4972 C5001 0.950 . S
H4973 C5002 0.950 . S
H4974 C5004 0.950 . S
H4975 C5005 0.950 . S
C4976 H4958 0.951 . S
C4976 C4977 1.366 . S
C4976 C4978 1.388 . S
C4977 C4976 1.366 . S
C4977 C4981 1.385 . S
C4978 H4959 0.951 . S
C4978 C4976 1.388 . S
C4978 C4979 1.366 . S
C4979 C4978 1.366 . S
C4979 C4980 1.414 . S
C4979 C4982 1.499 . S
C4980 H4960 0.950 . S
C4980 C4979 1.414 . S
C4980 C4981 1.374 . S
C4981 H4961 0.950 . S
C4981 C4977 1.385 . S
C4981 C4980 1.374 . S
C4982 C4979 1.499 . S
C4982 C4983 1.373 . S
C4982 C4984 1.389 . S
C4983 H4962 0.950 . S
C4983 C4982 1.373 . S
C4983 C4999 1.377 . S
C4984 C4982 1.389 . S
C4984 C4985 1.524 . S
C4984 C4998 1.377 . S
C4985 C4984 1.524 . S
C4985 C4986 1.397 . S
C4985 C4990 1.363 . S
C4986 H4963 0.950 . S
C4986 C4985 1.397 . S
C4986 C4987 1.334 . S
C4987 H4964 0.950 . S
C4987 C4986 1.334 . S
C4987 C4988 1.287 . S
C4988 C4987 1.287 . S
C4988 C4989 1.524 . S
C4988 H5007 0.913 . S
C4989 H4965 0.950 . S
C4989 C4988 1.524 . S
C4989 C4990 1.415 . S
C4990 H4966 0.950 . S
C4990 C4985 1.363 . S
C4990 C4989 1.415 . S
C4991 H4967 0.951 . S
C4991 C4992 1.366 . S
C4991 C4993 1.388 . S
C4992 C4991 1.366 . S
C4992 C4996 1.385 . S
C4993 H4968 0.951 . S
C4993 C4991 1.388 . S
C4993 C4994 1.366 . S
C4994 C4993 1.366 . S
C4994 C4995 1.414 . S
C4994 C4997 1.499 . S
C4995 H4969 0.950 . S
C4995 C4994 1.414 . S
C4995 C4996 1.374 . S
C4996 H4970 0.950 . S
C4996 C4992 1.385 . S
C4996 C4995 1.374 . S
C4997 C4994 1.499 . S
C4997 C4998 1.373 . S
C4997 C4999 1.389 . S
C4998 H4971 0.950 . S
C4998 C4984 1.377 . S
C4998 C4997 1.373 . S
C4999 C4983 1.377 . S
C4999 C4997 1.389 . S
C4999 C5000 1.524 . S
C5000 C4999 1.524 . S
C5000 C5001 1.397 . S
C5000 C5005 1.363 . S
C5001 H4972 0.950 . S
C5001 C5000 1.397 . S
C5001 C5002 1.334 . S
C5002 H4973 0.950 . S
C5002 C5001 1.334 . S
C5002 C5003 1.287 . S
C5003 C5002 1.287 . S
C5003 C5004 1.524 . S
C5003 H5006 0.999 . S
C5004 H4974 0.950 . S
C5004 C5003 1.524 . S
C5004 C5005 1.415 . S
C5005 H4975 0.950 . S
C5005 C5000 1.363 . S
C5005 C5004 1.415 . S
H5006 C5003 0.999 . S
H5007 C4988 0.913 . S
H5008 C5026 0.951 . S
H5009 C5028 0.951 . S
H5010 C5030 0.950 . S
H5011 C5031 0.950 . S
H5012 C5033 0.950 . S
H5013 C5036 0.950 . S
H5014 C5037 0.950 . S
H5015 C5039 0.950 . S
H5016 C5040 0.950 . S
H5017 C5041 0.951 . S
H5018 C5043 0.951 . S
H5019 C5045 0.950 . S
H5020 C5046 0.950 . S
H5021 C5048 0.950 . S
H5022 C5051 0.950 . S
H5023 C5052 0.950 . S
H5024 C5054 0.950 . S
H5025 C5055 0.950 . S
C5026 H5008 0.951 . S
C5026 C5027 1.366 . S
C5026 C5028 1.388 . S
C5027 C5026 1.366 . S
C5027 C5031 1.385 . S
C5028 H5009 0.951 . S
C5028 C5026 1.388 . S
C5028 C5029 1.366 . S
C5029 C5028 1.366 . S
C5029 C5030 1.414 . S
C5029 C5032 1.499 . S
C5030 H5010 0.950 . S
C5030 C5029 1.414 . S
C5030 C5031 1.374 . S
C5031 H5011 0.950 . S
C5031 C5027 1.385 . S
C5031 C5030 1.374 . S
C5032 C5029 1.499 . S
C5032 C5033 1.373 . S
C5032 C5034 1.389 . S
C5033 H5012 0.950 . S
C5033 C5032 1.373 . S
C5033 C5049 1.377 . S
C5034 C5032 1.389 . S
C5034 C5035 1.524 . S
C5034 C5048 1.377 . S
C5035 C5034 1.524 . S
C5035 C5036 1.397 . S
C5035 C5040 1.363 . S
C5036 H5013 0.950 . S
C5036 C5035 1.397 . S
C5036 C5037 1.334 . S
C5037 H5014 0.950 . S
C5037 C5036 1.334 . S
C5037 C5038 1.287 . S
C5038 C5037 1.287 . S
C5038 C5039 1.524 . S
C5038 H5057 0.913 . S
C5039 H5015 0.950 . S
C5039 C5038 1.524 . S
C5039 C5040 1.415 . S
C5040 H5016 0.950 . S
C5040 C5035 1.363 . S
C5040 C5039 1.415 . S
C5041 H5017 0.951 . S
C5041 C5042 1.366 . S
C5041 C5043 1.388 . S
C5042 C5041 1.366 . S
C5042 C5046 1.385 . S
C5043 H5018 0.951 . S
C5043 C5041 1.388 . S
C5043 C5044 1.366 . S
C5044 C5043 1.366 . S
C5044 C5045 1.414 . S
C5044 C5047 1.499 . S
C5045 H5019 0.950 . S
C5045 C5044 1.414 . S
C5045 C5046 1.374 . S
C5046 H5020 0.950 . S
C5046 C5042 1.385 . S
C5046 C5045 1.374 . S
C5047 C5044 1.499 . S
C5047 C5048 1.373 . S
C5047 C5049 1.389 . S
C5048 H5021 0.950 . S
C5048 C5034 1.377 . S
C5048 C5047 1.373 . S
C5049 C5033 1.377 . S
C5049 C5047 1.389 . S
C5049 C5050 1.524 . S
C5050 C5049 1.524 . S
C5050 C5051 1.397 . S
C5050 C5055 1.363 . S
C5051 H5022 0.950 . S
C5051 C5050 1.397 . S
C5051 C5052 1.334 . S
C5052 H5023 0.950 . S
C5052 C5051 1.334 . S
C5052 C5053 1.287 . S
C5053 C5052 1.287 . S
C5053 C5054 1.524 . S
C5053 H5056 0.999 . S
C5054 H5024 0.950 . S
C5054 C5053 1.524 . S
C5054 C5055 1.415 . S
C5055 H5025 0.950 . S
C5055 C5050 1.363 . S
C5055 C5054 1.415 . S
H5056 C5053 0.999 . S
H5057 C5038 0.913 . S
H5058 C5076 0.951 . S
H5059 C5078 0.951 . S
H5060 C5080 0.950 . S
H5061 C5081 0.950 . S
H5062 C5083 0.950 . S
H5063 C5086 0.950 . S
H5064 C5087 0.950 . S
H5065 C5089 0.950 . S
H5066 C5090 0.950 . S
H5067 C5091 0.951 . S
H5068 C5093 0.951 . S
H5069 C5095 0.950 . S
H5070 C5096 0.950 . S
H5071 C5098 0.950 . S
H5072 C5101 0.950 . S
H5073 C5102 0.950 . S
H5074 C5104 0.950 . S
H5075 C5105 0.950 . S
C5076 H5058 0.951 . S
C5076 C5077 1.366 . S
C5076 C5078 1.388 . S
C5077 C5076 1.366 . S
C5077 C5081 1.385 . S
C5078 H5059 0.951 . S
C5078 C5076 1.388 . S
C5078 C5079 1.366 . S
C5079 C5078 1.366 . S
C5079 C5080 1.414 . S
C5079 C5082 1.499 . S
C5080 H5060 0.950 . S
C5080 C5079 1.414 . S
C5080 C5081 1.374 . S
C5081 H5061 0.950 . S
C5081 C5077 1.385 . S
C5081 C5080 1.374 . S
C5082 C5079 1.499 . S
C5082 C5083 1.373 . S
C5082 C5084 1.389 . S
C5083 H5062 0.950 . S
C5083 C5082 1.373 . S
C5083 C5099 1.377 . S
C5084 C5082 1.389 . S
C5084 C5085 1.524 . S
C5084 C5098 1.377 . S
C5085 C5084 1.524 . S
C5085 C5086 1.397 . S
C5085 C5090 1.363 . S
C5086 H5063 0.950 . S
C5086 C5085 1.397 . S
C5086 C5087 1.334 . S
C5087 H5064 0.950 . S
C5087 C5086 1.334 . S
C5087 C5088 1.287 . S
C5088 C5087 1.287 . S
C5088 C5089 1.524 . S
C5088 H5107 0.913 . S
C5089 H5065 0.950 . S
C5089 C5088 1.524 . S
C5089 C5090 1.415 . S
C5090 H5066 0.950 . S
C5090 C5085 1.363 . S
C5090 C5089 1.415 . S
C5091 H5067 0.951 . S
C5091 C5092 1.366 . S
C5091 C5093 1.388 . S
C5092 C5091 1.366 . S
C5092 C5096 1.385 . S
C5093 H5068 0.951 . S
C5093 C5091 1.388 . S
C5093 C5094 1.366 . S
C5094 C5093 1.366 . S
C5094 C5095 1.414 . S
C5094 C5097 1.499 . S
C5095 H5069 0.950 . S
C5095 C5094 1.414 . S
C5095 C5096 1.374 . S
C5096 H5070 0.950 . S
C5096 C5092 1.385 . S
C5096 C5095 1.374 . S
C5097 C5094 1.499 . S
C5097 C5098 1.373 . S
C5097 C5099 1.389 . S
C5098 H5071 0.950 . S
C5098 C5084 1.377 . S
C5098 C5097 1.373 . S
C5099 C5083 1.377 . S
C5099 C5097 1.389 . S
C5099 C5100 1.524 . S
C5100 C5099 1.524 . S
C5100 C5101 1.397 . S
C5100 C5105 1.363 . S
C5101 H5072 0.950 . S
C5101 C5100 1.397 . S
C5101 C5102 1.334 . S
C5102 H5073 0.950 . S
C5102 C5101 1.334 . S
C5102 C5103 1.287 . S
C5103 C5102 1.287 . S
C5103 C5104 1.524 . S
C5103 H5106 0.999 . S
C5104 H5074 0.950 . S
C5104 C5103 1.524 . S
C5104 C5105 1.415 . S
C5105 H5075 0.950 . S
C5105 C5100 1.363 . S
C5105 C5104 1.415 . S
H5106 C5103 0.999 . S
H5107 C5088 0.913 . S
H5108 C5126 0.951 . S
H5109 C5128 0.951 . S
H5110 C5130 0.950 . S
H5111 C5131 0.950 . S
H5112 C5133 0.950 . S
H5113 C5136 0.950 . S
H5114 C5137 0.950 . S
H5115 C5139 0.950 . S
H5116 C5140 0.950 . S
H5117 C5141 0.951 . S
H5118 C5143 0.951 . S
H5119 C5145 0.950 . S
H5120 C5146 0.950 . S
H5121 C5148 0.950 . S
H5122 C5151 0.950 . S
H5123 C5152 0.950 . S
H5124 C5154 0.950 . S
H5125 C5155 0.950 . S
C5126 H5108 0.951 . S
C5126 C5127 1.366 . S
C5126 C5128 1.388 . S
C5127 C5126 1.366 . S
C5127 C5131 1.385 . S
C5128 H5109 0.951 . S
C5128 C5126 1.388 . S
C5128 C5129 1.366 . S
C5129 C5128 1.366 . S
C5129 C5130 1.414 . S
C5129 C5132 1.499 . S
C5130 H5110 0.950 . S
C5130 C5129 1.414 . S
C5130 C5131 1.374 . S
C5131 H5111 0.950 . S
C5131 C5127 1.385 . S
C5131 C5130 1.374 . S
C5132 C5129 1.499 . S
C5132 C5133 1.373 . S
C5132 C5134 1.389 . S
C5133 H5112 0.950 . S
C5133 C5132 1.373 . S
C5133 C5149 1.377 . S
C5134 C5132 1.389 . S
C5134 C5135 1.524 . S
C5134 C5148 1.377 . S
C5135 C5134 1.524 . S
C5135 C5136 1.397 . S
C5135 C5140 1.363 . S
C5136 H5113 0.950 . S
C5136 C5135 1.397 . S
C5136 C5137 1.334 . S
C5137 H5114 0.950 . S
C5137 C5136 1.334 . S
C5137 C5138 1.287 . S
C5138 C5137 1.287 . S
C5138 C5139 1.524 . S
C5138 H5157 0.913 . S
C5139 H5115 0.950 . S
C5139 C5138 1.524 . S
C5139 C5140 1.415 . S
C5140 H5116 0.950 . S
C5140 C5135 1.363 . S
C5140 C5139 1.415 . S
C5141 H5117 0.951 . S
C5141 C5142 1.366 . S
C5141 C5143 1.388 . S
C5142 C5141 1.366 . S
C5142 C5146 1.385 . S
C5143 H5118 0.951 . S
C5143 C5141 1.388 . S
C5143 C5144 1.366 . S
C5144 C5143 1.366 . S
C5144 C5145 1.414 . S
C5144 C5147 1.499 . S
C5145 H5119 0.950 . S
C5145 C5144 1.414 . S
C5145 C5146 1.374 . S
C5146 H5120 0.950 . S
C5146 C5142 1.385 . S
C5146 C5145 1.374 . S
C5147 C5144 1.499 . S
C5147 C5148 1.373 . S
C5147 C5149 1.389 . S
C5148 H5121 0.950 . S
C5148 C5134 1.377 . S
C5148 C5147 1.373 . S
C5149 C5133 1.377 . S
C5149 C5147 1.389 . S
C5149 C5150 1.524 . S
C5150 C5149 1.524 . S
C5150 C5151 1.397 . S
C5150 C5155 1.363 . S
C5151 H5122 0.950 . S
C5151 C5150 1.397 . S
C5151 C5152 1.334 . S
C5152 H5123 0.950 . S
C5152 C5151 1.334 . S
C5152 C5153 1.287 . S
C5153 C5152 1.287 . S
C5153 C5154 1.524 . S
C5153 H5156 0.999 . S
C5154 H5124 0.950 . S
C5154 C5153 1.524 . S
C5154 C5155 1.415 . S
C5155 H5125 0.950 . S
C5155 C5150 1.363 . S
C5155 C5154 1.415 . S
H5156 C5153 0.999 . S
H5157 C5138 0.913 . S
H5158 C5176 0.951 . S
H5159 C5178 0.951 . S
H5160 C5180 0.950 . S
H5161 C5181 0.950 . S
H5162 C5183 0.950 . S
H5163 C5186 0.950 . S
H5164 C5187 0.950 . S
H5165 C5189 0.950 . S
H5166 C5190 0.950 . S
H5167 C5191 0.951 . S
H5168 C5193 0.951 . S
H5169 C5195 0.950 . S
H5170 C5196 0.950 . S
H5171 C5198 0.950 . S
H5172 C5201 0.950 . S
H5173 C5202 0.950 . S
H5174 C5204 0.950 . S
H5175 C5205 0.950 . S
C5176 H5158 0.951 . S
C5176 C5177 1.366 . S
C5176 C5178 1.388 . S
C5177 C5176 1.366 . S
C5177 C5181 1.385 . S
C5178 H5159 0.951 . S
C5178 C5176 1.388 . S
C5178 C5179 1.366 . S
C5179 C5178 1.366 . S
C5179 C5180 1.414 . S
C5179 C5182 1.499 . S
C5180 H5160 0.950 . S
C5180 C5179 1.414 . S
C5180 C5181 1.374 . S
C5181 H5161 0.950 . S
C5181 C5177 1.385 . S
C5181 C5180 1.374 . S
C5182 C5179 1.499 . S
C5182 C5183 1.373 . S
C5182 C5184 1.389 . S
C5183 H5162 0.950 . S
C5183 C5182 1.373 . S
C5183 C5199 1.377 . S
C5184 C5182 1.389 . S
C5184 C5185 1.524 . S
C5184 C5198 1.377 . S
C5185 C5184 1.524 . S
C5185 C5186 1.397 . S
C5185 C5190 1.363 . S
C5186 H5163 0.950 . S
C5186 C5185 1.397 . S
C5186 C5187 1.334 . S
C5187 H5164 0.950 . S
C5187 C5186 1.334 . S
C5187 C5188 1.287 . S
C5188 C5187 1.287 . S
C5188 C5189 1.524 . S
C5188 H5207 0.913 . S
C5189 H5165 0.950 . S
C5189 C5188 1.524 . S
C5189 C5190 1.415 . S
C5190 H5166 0.950 . S
C5190 C5185 1.363 . S
C5190 C5189 1.415 . S
C5191 H5167 0.951 . S
C5191 C5192 1.366 . S
C5191 C5193 1.388 . S
C5192 C5191 1.366 . S
C5192 C5196 1.385 . S
C5193 H5168 0.951 . S
C5193 C5191 1.388 . S
C5193 C5194 1.366 . S
C5194 C5193 1.366 . S
C5194 C5195 1.414 . S
C5194 C5197 1.499 . S
C5195 H5169 0.950 . S
C5195 C5194 1.414 . S
C5195 C5196 1.374 . S
C5196 H5170 0.950 . S
C5196 C5192 1.385 . S
C5196 C5195 1.374 . S
C5197 C5194 1.499 . S
C5197 C5198 1.373 . S
C5197 C5199 1.389 . S
C5198 H5171 0.950 . S
C5198 C5184 1.377 . S
C5198 C5197 1.373 . S
C5199 C5183 1.377 . S
C5199 C5197 1.389 . S
C5199 C5200 1.524 . S
C5200 C5199 1.524 . S
C5200 C5201 1.397 . S
C5200 C5205 1.363 . S
C5201 H5172 0.950 . S
C5201 C5200 1.397 . S
C5201 C5202 1.334 . S
C5202 H5173 0.950 . S
C5202 C5201 1.334 . S
C5202 C5203 1.287 . S
C5203 C5202 1.287 . S
C5203 C5204 1.524 . S
C5203 H5206 0.999 . S
C5204 H5174 0.950 . S
C5204 C5203 1.524 . S
C5204 C5205 1.415 . S
C5205 H5175 0.950 . S
C5205 C5200 1.363 . S
C5205 C5204 1.415 . S
H5206 C5203 0.999 . S
H5207 C5188 0.913 . S
H5208 C5226 0.951 . S
H5209 C5228 0.951 . S
H5210 C5230 0.950 . S
H5211 C5231 0.950 . S
H5212 C5233 0.950 . S
H5213 C5236 0.950 . S
H5214 C5237 0.950 . S
H5215 C5239 0.950 . S
H5216 C5240 0.950 . S
H5217 C5241 0.951 . S
H5218 C5243 0.951 . S
H5219 C5245 0.950 . S
H5220 C5246 0.950 . S
H5221 C5248 0.950 . S
H5222 C5251 0.950 . S
H5223 C5252 0.950 . S
H5224 C5254 0.950 . S
H5225 C5255 0.950 . S
C5226 H5208 0.951 . S
C5226 C5227 1.366 . S
C5226 C5228 1.388 . S
C5227 C5226 1.366 . S
C5227 C5231 1.385 . S
C5228 H5209 0.951 . S
C5228 C5226 1.388 . S
C5228 C5229 1.366 . S
C5229 C5228 1.366 . S
C5229 C5230 1.414 . S
C5229 C5232 1.499 . S
C5230 H5210 0.950 . S
C5230 C5229 1.414 . S
C5230 C5231 1.374 . S
C5231 H5211 0.950 . S
C5231 C5227 1.385 . S
C5231 C5230 1.374 . S
C5232 C5229 1.499 . S
C5232 C5233 1.373 . S
C5232 C5234 1.389 . S
C5233 H5212 0.950 . S
C5233 C5232 1.373 . S
C5233 C5249 1.377 . S
C5234 C5232 1.389 . S
C5234 C5235 1.524 . S
C5234 C5248 1.377 . S
C5235 C5234 1.524 . S
C5235 C5236 1.397 . S
C5235 C5240 1.363 . S
C5236 H5213 0.950 . S
C5236 C5235 1.397 . S
C5236 C5237 1.334 . S
C5237 H5214 0.950 . S
C5237 C5236 1.334 . S
C5237 C5238 1.287 . S
C5238 C5237 1.287 . S
C5238 C5239 1.524 . S
C5238 H5257 0.913 . S
C5239 H5215 0.950 . S
C5239 C5238 1.524 . S
C5239 C5240 1.415 . S
C5240 H5216 0.950 . S
C5240 C5235 1.363 . S
C5240 C5239 1.415 . S
C5241 H5217 0.951 . S
C5241 C5242 1.366 . S
C5241 C5243 1.388 . S
C5242 C5241 1.366 . S
C5242 C5246 1.385 . S
C5243 H5218 0.951 . S
C5243 C5241 1.388 . S
C5243 C5244 1.366 . S
C5244 C5243 1.366 . S
C5244 C5245 1.414 . S
C5244 C5247 1.499 . S
C5245 H5219 0.950 . S
C5245 C5244 1.414 . S
C5245 C5246 1.374 . S
C5246 H5220 0.950 . S
C5246 C5242 1.385 . S
C5246 C5245 1.374 . S
C5247 C5244 1.499 . S
C5247 C5248 1.373 . S
C5247 C5249 1.389 . S
C5248 H5221 0.950 . S
C5248 C5234 1.377 . S
C5248 C5247 1.373 . S
C5249 C5233 1.377 . S
C5249 C5247 1.389 . S
C5249 C5250 1.524 . S
C5250 C5249 1.524 . S
C5250 C5251 1.397 . S
C5250 C5255 1.363 . S
C5251 H5222 0.950 . S
C5251 C5250 1.397 . S
C5251 C5252 1.334 . S
C5252 H5223 0.950 . S
C5252 C5251 1.334 . S
C5252 C5253 1.287 . S
C5253 C5252 1.287 . S
C5253 C5254 1.524 . S
C5253 H5256 0.999 . S
C5254 H5224 0.950 . S
C5254 C5253 1.524 . S
C5254 C5255 1.415 . S
C5255 H5225 0.950 . S
C5255 C5250 1.363 . S
C5255 C5254 1.415 . S
H5256 C5253 0.999 . S
H5257 C5238 0.913 . S
H5258 C5276 0.951 . S
H5259 C5278 0.951 . S
H5260 C5280 0.950 . S
H5261 C5281 0.950 . S
H5262 C5283 0.950 . S
H5263 C5286 0.950 . S
H5264 C5287 0.950 . S
H5265 C5289 0.950 . S
H5266 C5290 0.950 . S
H5267 C5291 0.951 . S
H5268 C5293 0.951 . S
H5269 C5295 0.950 . S
H5270 C5296 0.950 . S
H5271 C5298 0.950 . S
H5272 C5301 0.950 . S
H5273 C5302 0.950 . S
H5274 C5304 0.950 . S
H5275 C5305 0.950 . S
C5276 H5258 0.951 . S
C5276 C5277 1.366 . S
C5276 C5278 1.388 . S
C5277 C5276 1.366 . S
C5277 C5281 1.385 . S
C5278 H5259 0.951 . S
C5278 C5276 1.388 . S
C5278 C5279 1.366 . S
C5279 C5278 1.366 . S
C5279 C5280 1.414 . S
C5279 C5282 1.499 . S
C5280 H5260 0.950 . S
C5280 C5279 1.414 . S
C5280 C5281 1.374 . S
C5281 H5261 0.950 . S
C5281 C5277 1.385 . S
C5281 C5280 1.374 . S
C5282 C5279 1.499 . S
C5282 C5283 1.373 . S
C5282 C5284 1.389 . S
C5283 H5262 0.950 . S
C5283 C5282 1.373 . S
C5283 C5299 1.377 . S
C5284 C5282 1.389 . S
C5284 C5285 1.524 . S
C5284 C5298 1.377 . S
C5285 C5284 1.524 . S
C5285 C5286 1.397 . S
C5285 C5290 1.363 . S
C5286 H5263 0.950 . S
C5286 C5285 1.397 . S
C5286 C5287 1.334 . S
C5287 H5264 0.950 . S
C5287 C5286 1.334 . S
C5287 C5288 1.287 . S
C5288 C5287 1.287 . S
C5288 C5289 1.524 . S
C5288 H5307 0.913 . S
C5289 H5265 0.950 . S
C5289 C5288 1.524 . S
C5289 C5290 1.415 . S
C5290 H5266 0.950 . S
C5290 C5285 1.363 . S
C5290 C5289 1.415 . S
C5291 H5267 0.951 . S
C5291 C5292 1.366 . S
C5291 C5293 1.388 . S
C5292 C5291 1.366 . S
C5292 C5296 1.385 . S
C5293 H5268 0.951 . S
C5293 C5291 1.388 . S
C5293 C5294 1.366 . S
C5294 C5293 1.366 . S
C5294 C5295 1.414 . S
C5294 C5297 1.499 . S
C5295 H5269 0.950 . S
C5295 C5294 1.414 . S
C5295 C5296 1.374 . S
C5296 H5270 0.950 . S
C5296 C5292 1.385 . S
C5296 C5295 1.374 . S
C5297 C5294 1.499 . S
C5297 C5298 1.373 . S
C5297 C5299 1.389 . S
C5298 H5271 0.950 . S
C5298 C5284 1.377 . S
C5298 C5297 1.373 . S
C5299 C5283 1.377 . S
C5299 C5297 1.389 . S
C5299 C5300 1.524 . S
C5300 C5299 1.524 . S
C5300 C5301 1.397 . S
C5300 C5305 1.363 . S
C5301 H5272 0.950 . S
C5301 C5300 1.397 . S
C5301 C5302 1.334 . S
C5302 H5273 0.950 . S
C5302 C5301 1.334 . S
C5302 C5303 1.287 . S
C5303 C5302 1.287 . S
C5303 C5304 1.524 . S
C5303 H5306 0.999 . S
C5304 H5274 0.950 . S
C5304 C5303 1.524 . S
C5304 C5305 1.415 . S
C5305 H5275 0.950 . S
C5305 C5300 1.363 . S
C5305 C5304 1.415 . S
H5306 C5303 0.999 . S
H5307 C5288 0.913 . S
H5308 C5326 0.951 . S
H5309 C5328 0.951 . S
H5310 C5330 0.950 . S
H5311 C5331 0.950 . S
H5312 C5333 0.950 . S
H5313 C5336 0.950 . S
H5314 C5337 0.950 . S
H5315 C5339 0.950 . S
H5316 C5340 0.950 . S
H5317 C5341 0.951 . S
H5318 C5343 0.951 . S
H5319 C5345 0.950 . S
H5320 C5346 0.950 . S
H5321 C5348 0.950 . S
H5322 C5351 0.950 . S
H5323 C5352 0.950 . S
H5324 C5354 0.950 . S
H5325 C5355 0.950 . S
C5326 H5308 0.951 . S
C5326 C5327 1.366 . S
C5326 C5328 1.388 . S
C5327 C5326 1.366 . S
C5327 C5331 1.385 . S
C5328 H5309 0.951 . S
C5328 C5326 1.388 . S
C5328 C5329 1.366 . S
C5329 C5328 1.366 . S
C5329 C5330 1.414 . S
C5329 C5332 1.499 . S
C5330 H5310 0.950 . S
C5330 C5329 1.414 . S
C5330 C5331 1.374 . S
C5331 H5311 0.950 . S
C5331 C5327 1.385 . S
C5331 C5330 1.374 . S
C5332 C5329 1.499 . S
C5332 C5333 1.373 . S
C5332 C5334 1.389 . S
C5333 H5312 0.950 . S
C5333 C5332 1.373 . S
C5333 C5349 1.377 . S
C5334 C5332 1.389 . S
C5334 C5335 1.524 . S
C5334 C5348 1.377 . S
C5335 C5334 1.524 . S
C5335 C5336 1.397 . S
C5335 C5340 1.363 . S
C5336 H5313 0.950 . S
C5336 C5335 1.397 . S
C5336 C5337 1.334 . S
C5337 H5314 0.950 . S
C5337 C5336 1.334 . S
C5337 C5338 1.287 . S
C5338 C5337 1.287 . S
C5338 C5339 1.524 . S
C5338 H5357 0.913 . S
C5339 H5315 0.950 . S
C5339 C5338 1.524 . S
C5339 C5340 1.415 . S
C5340 H5316 0.950 . S
C5340 C5335 1.363 . S
C5340 C5339 1.415 . S
C5341 H5317 0.951 . S
C5341 C5342 1.366 . S
C5341 C5343 1.388 . S
C5342 C5341 1.366 . S
C5342 C5346 1.385 . S
C5343 H5318 0.951 . S
C5343 C5341 1.388 . S
C5343 C5344 1.366 . S
C5344 C5343 1.366 . S
C5344 C5345 1.414 . S
C5344 C5347 1.499 . S
C5345 H5319 0.950 . S
C5345 C5344 1.414 . S
C5345 C5346 1.374 . S
C5346 H5320 0.950 . S
C5346 C5342 1.385 . S
C5346 C5345 1.374 . S
C5347 C5344 1.499 . S
C5347 C5348 1.373 . S
C5347 C5349 1.389 . S
C5348 H5321 0.950 . S
C5348 C5334 1.377 . S
C5348 C5347 1.373 . S
C5349 C5333 1.377 . S
C5349 C5347 1.389 . S
C5349 C5350 1.524 . S
C5350 C5349 1.524 . S
C5350 C5351 1.397 . S
C5350 C5355 1.363 . S
C5351 H5322 0.950 . S
C5351 C5350 1.397 . S
C5351 C5352 1.334 . S
C5352 H5323 0.950 . S
C5352 C5351 1.334 . S
C5352 C5353 1.287 . S
C5353 C5352 1.287 . S
C5353 C5354 1.524 . S
C5353 H5356 0.999 . S
C5354 H5324 0.950 . S
C5354 C5353 1.524 . S
C5354 C5355 1.415 . S
C5355 H5325 0.950 . S
C5355 C5350 1.363 . S
C5355 C5354 1.415 . S
H5356 C5353 0.999 . S
H5357 C5338 0.913 . S
H5358 C5376 0.951 . S
H5359 C5378 0.951 . S
H5360 C5380 0.950 . S
H5361 C5381 0.950 . S
H5362 C5383 0.950 . S
H5363 C5386 0.950 . S
H5364 C5387 0.950 . S
H5365 C5389 0.950 . S
H5366 C5390 0.950 . S
H5367 C5391 0.951 . S
H5368 C5393 0.951 . S
H5369 C5395 0.950 . S
H5370 C5396 0.950 . S
H5371 C5398 0.950 . S
H5372 C5401 0.950 . S
H5373 C5402 0.950 . S
H5374 C5404 0.950 . S
H5375 C5405 0.950 . S
C5376 H5358 0.951 . S
C5376 C5377 1.366 . S
C5376 C5378 1.388 . S
C5377 C5376 1.366 . S
C5377 C5381 1.385 . S
C5378 H5359 0.951 . S
C5378 C5376 1.388 . S
C5378 C5379 1.366 . S
C5379 C5378 1.366 . S
C5379 C5380 1.414 . S
C5379 C5382 1.499 . S
C5380 H5360 0.950 . S
C5380 C5379 1.414 . S
C5380 C5381 1.374 . S
C5381 H5361 0.950 . S
C5381 C5377 1.385 . S
C5381 C5380 1.374 . S
C5382 C5379 1.499 . S
C5382 C5383 1.373 . S
C5382 C5384 1.389 . S
C5383 H5362 0.950 . S
C5383 C5382 1.373 . S
C5383 C5399 1.377 . S
C5384 C5382 1.389 . S
C5384 C5385 1.524 . S
C5384 C5398 1.377 . S
C5385 C5384 1.524 . S
C5385 C5386 1.397 . S
C5385 C5390 1.363 . S
C5386 H5363 0.950 . S
C5386 C5385 1.397 . S
C5386 C5387 1.334 . S
C5387 H5364 0.950 . S
C5387 C5386 1.334 . S
C5387 C5388 1.287 . S
C5388 C5387 1.287 . S
C5388 C5389 1.524 . S
C5388 H5407 0.913 . S
C5389 H5365 0.950 . S
C5389 C5388 1.524 . S
C5389 C5390 1.415 . S
C5390 H5366 0.950 . S
C5390 C5385 1.363 . S
C5390 C5389 1.415 . S
C5391 H5367 0.951 . S
C5391 C5392 1.366 . S
C5391 C5393 1.388 . S
C5392 C5391 1.366 . S
C5392 C5396 1.385 . S
C5393 H5368 0.951 . S
C5393 C5391 1.388 . S
C5393 C5394 1.366 . S
C5394 C5393 1.366 . S
C5394 C5395 1.414 . S
C5394 C5397 1.499 . S
C5395 H5369 0.950 . S
C5395 C5394 1.414 . S
C5395 C5396 1.374 . S
C5396 H5370 0.950 . S
C5396 C5392 1.385 . S
C5396 C5395 1.374 . S
C5397 C5394 1.499 . S
C5397 C5398 1.373 . S
C5397 C5399 1.389 . S
C5398 H5371 0.950 . S
C5398 C5384 1.377 . S
C5398 C5397 1.373 . S
C5399 C5383 1.377 . S
C5399 C5397 1.389 . S
C5399 C5400 1.524 . S
C5400 C5399 1.524 . S
C5400 C5401 1.397 . S
C5400 C5405 1.363 . S
C5401 H5372 0.950 . S
C5401 C5400 1.397 . S
C5401 C5402 1.334 . S
C5402 H5373 0.950 . S
C5402 C5401 1.334 . S
C5402 C5403 1.287 . S
C5403 C5402 1.287 . S
C5403 C5404 1.524 . S
C5403 H5406 0.999 . S
C5404 H5374 0.950 . S
C5404 C5403 1.524 . S
C5404 C5405 1.415 . S
C5405 H5375 0.950 . S
C5405 C5400 1.363 . S
C5405 C5404 1.415 . S
H5406 C5403 0.999 . S
H5407 C5388 0.913 . S
H5408 C5426 0.951 . S
H5409 C5428 0.951 . S
H5410 C5430 0.950 . S
H5411 C5431 0.950 . S
H5412 C5433 0.950 . S
H5413 C5436 0.950 . S
H5414 C5437 0.950 . S
H5415 C5439 0.950 . S
H5416 C5440 0.950 . S
H5417 C5441 0.951 . S
H5418 C5443 0.951 . S
H5419 C5445 0.950 . S
H5420 C5446 0.950 . S
H5421 C5448 0.950 . S
H5422 C5451 0.950 . S
H5423 C5452 0.950 . S
H5424 C5454 0.950 . S
H5425 C5455 0.950 . S
C5426 H5408 0.951 . S
C5426 C5427 1.366 . S
C5426 C5428 1.388 . S
C5427 C5426 1.366 . S
C5427 C5431 1.385 . S
C5428 H5409 0.951 . S
C5428 C5426 1.388 . S
C5428 C5429 1.366 . S
C5429 C5428 1.366 . S
C5429 C5430 1.414 . S
C5429 C5432 1.499 . S
C5430 H5410 0.950 . S
C5430 C5429 1.414 . S
C5430 C5431 1.374 . S
C5431 H5411 0.950 . S
C5431 C5427 1.385 . S
C5431 C5430 1.374 . S
C5432 C5429 1.499 . S
C5432 C5433 1.373 . S
C5432 C5434 1.389 . S
C5433 H5412 0.950 . S
C5433 C5432 1.373 . S
C5433 C5449 1.377 . S
C5434 C5432 1.389 . S
C5434 C5435 1.524 . S
C5434 C5448 1.377 . S
C5435 C5434 1.524 . S
C5435 C5436 1.397 . S
C5435 C5440 1.363 . S
C5436 H5413 0.950 . S
C5436 C5435 1.397 . S
C5436 C5437 1.334 . S
C5437 H5414 0.950 . S
C5437 C5436 1.334 . S
C5437 C5438 1.287 . S
C5438 C5437 1.287 . S
C5438 C5439 1.524 . S
C5438 H5457 0.913 . S
C5439 H5415 0.950 . S
C5439 C5438 1.524 . S
C5439 C5440 1.415 . S
C5440 H5416 0.950 . S
C5440 C5435 1.363 . S
C5440 C5439 1.415 . S
C5441 H5417 0.951 . S
C5441 C5442 1.366 . S
C5441 C5443 1.388 . S
C5442 C5441 1.366 . S
C5442 C5446 1.385 . S
C5443 H5418 0.951 . S
C5443 C5441 1.388 . S
C5443 C5444 1.366 . S
C5444 C5443 1.366 . S
C5444 C5445 1.414 . S
C5444 C5447 1.499 . S
C5445 H5419 0.950 . S
C5445 C5444 1.414 . S
C5445 C5446 1.374 . S
C5446 H5420 0.950 . S
C5446 C5442 1.385 . S
C5446 C5445 1.374 . S
C5447 C5444 1.499 . S
C5447 C5448 1.373 . S
C5447 C5449 1.389 . S
C5448 H5421 0.950 . S
C5448 C5434 1.377 . S
C5448 C5447 1.373 . S
C5449 C5433 1.377 . S
C5449 C5447 1.389 . S
C5449 C5450 1.524 . S
C5450 C5449 1.524 . S
C5450 C5451 1.397 . S
C5450 C5455 1.363 . S
C5451 H5422 0.950 . S
C5451 C5450 1.397 . S
C5451 C5452 1.334 . S
C5452 H5423 0.950 . S
C5452 C5451 1.334 . S
C5452 C5453 1.287 . S
C5453 C5452 1.287 . S
C5453 C5454 1.524 . S
C5453 H5456 0.999 . S
C5454 H5424 0.950 . S
C5454 C5453 1.524 . S
C5454 C5455 1.415 . S
C5455 H5425 0.950 . S
C5455 C5450 1.363 . S
C5455 C5454 1.415 . S
H5456 C5453 0.999 . S
H5457 C5438 0.913 . S
H5458 C5476 0.951 . S
H5459 C5478 0.951 . S
H5460 C5480 0.950 . S
H5461 C5481 0.950 . S
H5462 C5483 0.950 . S
H5463 C5486 0.950 . S
H5464 C5487 0.950 . S
H5465 C5489 0.950 . S
H5466 C5490 0.950 . S
H5467 C5491 0.951 . S
H5468 C5493 0.951 . S
H5469 C5495 0.950 . S
H5470 C5496 0.950 . S
H5471 C5498 0.950 . S
H5472 C5501 0.950 . S
H5473 C5502 0.950 . S
H5474 C5504 0.950 . S
H5475 C5505 0.950 . S
C5476 H5458 0.951 . S
C5476 C5477 1.366 . S
C5476 C5478 1.388 . S
C5477 C5476 1.366 . S
C5477 C5481 1.385 . S
C5478 H5459 0.951 . S
C5478 C5476 1.388 . S
C5478 C5479 1.366 . S
C5479 C5478 1.366 . S
C5479 C5480 1.414 . S
C5479 C5482 1.499 . S
C5480 H5460 0.950 . S
C5480 C5479 1.414 . S
C5480 C5481 1.374 . S
C5481 H5461 0.950 . S
C5481 C5477 1.385 . S
C5481 C5480 1.374 . S
C5482 C5479 1.499 . S
C5482 C5483 1.373 . S
C5482 C5484 1.389 . S
C5483 H5462 0.950 . S
C5483 C5482 1.373 . S
C5483 C5499 1.377 . S
C5484 C5482 1.389 . S
C5484 C5485 1.524 . S
C5484 C5498 1.377 . S
C5485 C5484 1.524 . S
C5485 C5486 1.397 . S
C5485 C5490 1.363 . S
C5486 H5463 0.950 . S
C5486 C5485 1.397 . S
C5486 C5487 1.334 . S
C5487 H5464 0.950 . S
C5487 C5486 1.334 . S
C5487 C5488 1.287 . S
C5488 C5487 1.287 . S
C5488 C5489 1.524 . S
C5488 H5507 0.913 . S
C5489 H5465 0.950 . S
C5489 C5488 1.524 . S
C5489 C5490 1.415 . S
C5490 H5466 0.950 . S
C5490 C5485 1.363 . S
C5490 C5489 1.415 . S
C5491 H5467 0.951 . S
C5491 C5492 1.366 . S
C5491 C5493 1.388 . S
C5492 C5491 1.366 . S
C5492 C5496 1.385 . S
C5493 H5468 0.951 . S
C5493 C5491 1.388 . S
C5493 C5494 1.366 . S
C5494 C5493 1.366 . S
C5494 C5495 1.414 . S
C5494 C5497 1.499 . S
C5495 H5469 0.950 . S
C5495 C5494 1.414 . S
C5495 C5496 1.374 . S
C5496 H5470 0.950 . S
C5496 C5492 1.385 . S
C5496 C5495 1.374 . S
C5497 C5494 1.499 . S
C5497 C5498 1.373 . S
C5497 C5499 1.389 . S
C5498 H5471 0.950 . S
C5498 C5484 1.377 . S
C5498 C5497 1.373 . S
C5499 C5483 1.377 . S
C5499 C5497 1.389 . S
C5499 C5500 1.524 . S
C5500 C5499 1.524 . S
C5500 C5501 1.397 . S
C5500 C5505 1.363 . S
C5501 H5472 0.950 . S
C5501 C5500 1.397 . S
C5501 C5502 1.334 . S
C5502 H5473 0.950 . S
C5502 C5501 1.334 . S
C5502 C5503 1.287 . S
C5503 C5502 1.287 . S
C5503 C5504 1.524 . S
C5503 H5506 0.999 . S
C5504 H5474 0.950 . S
C5504 C5503 1.524 . S
C5504 C5505 1.415 . S
C5505 H5475 0.950 . S
C5505 C5500 1.363 . S
C5505 C5504 1.415 . S
H5506 C5503 0.999 . S
H5507 C5488 0.913 . S
H5508 C5526 0.951 . S
H5509 C5528 0.951 . S
H5510 C5530 0.950 . S
H5511 C5531 0.950 . S
H5512 C5533 0.950 . S
H5513 C5536 0.950 . S
H5514 C5537 0.950 . S
H5515 C5539 0.950 . S
H5516 C5540 0.950 . S
H5517 C5541 0.951 . S
H5518 C5543 0.951 . S
H5519 C5545 0.950 . S
H5520 C5546 0.950 . S
H5521 C5548 0.950 . S
H5522 C5551 0.950 . S
H5523 C5552 0.950 . S
H5524 C5554 0.950 . S
H5525 C5555 0.950 . S
C5526 H5508 0.951 . S
C5526 C5527 1.366 . S
C5526 C5528 1.388 . S
C5527 C5526 1.366 . S
C5527 C5531 1.385 . S
C5528 H5509 0.951 . S
C5528 C5526 1.388 . S
C5528 C5529 1.366 . S
C5529 C5528 1.366 . S
C5529 C5530 1.414 . S
C5529 C5532 1.499 . S
C5530 H5510 0.950 . S
C5530 C5529 1.414 . S
C5530 C5531 1.374 . S
C5531 H5511 0.950 . S
C5531 C5527 1.385 . S
C5531 C5530 1.374 . S
C5532 C5529 1.499 . S
C5532 C5533 1.373 . S
C5532 C5534 1.389 . S
C5533 H5512 0.950 . S
C5533 C5532 1.373 . S
C5533 C5549 1.377 . S
C5534 C5532 1.389 . S
C5534 C5535 1.524 . S
C5534 C5548 1.377 . S
C5535 C5534 1.524 . S
C5535 C5536 1.397 . S
C5535 C5540 1.363 . S
C5536 H5513 0.950 . S
C5536 C5535 1.397 . S
C5536 C5537 1.334 . S
C5537 H5514 0.950 . S
C5537 C5536 1.334 . S
C5537 C5538 1.287 . S
C5538 C5537 1.287 . S
C5538 C5539 1.524 . S
C5538 H5557 0.913 . S
C5539 H5515 0.950 . S
C5539 C5538 1.524 . S
C5539 C5540 1.415 . S
C5540 H5516 0.950 . S
C5540 C5535 1.363 . S
C5540 C5539 1.415 . S
C5541 H5517 0.951 . S
C5541 C5542 1.366 . S
C5541 C5543 1.388 . S
C5542 C5541 1.366 . S
C5542 C5546 1.385 . S
C5543 H5518 0.951 . S
C5543 C5541 1.388 . S
C5543 C5544 1.366 . S
C5544 C5543 1.366 . S
C5544 C5545 1.414 . S
C5544 C5547 1.499 . S
C5545 H5519 0.950 . S
C5545 C5544 1.414 . S
C5545 C5546 1.374 . S
C5546 H5520 0.950 . S
C5546 C5542 1.385 . S
C5546 C5545 1.374 . S
C5547 C5544 1.499 . S
C5547 C5548 1.373 . S
C5547 C5549 1.389 . S
C5548 H5521 0.950 . S
C5548 C5534 1.377 . S
C5548 C5547 1.373 . S
C5549 C5533 1.377 . S
C5549 C5547 1.389 . S
C5549 C5550 1.524 . S
C5550 C5549 1.524 . S
C5550 C5551 1.397 . S
C5550 C5555 1.363 . S
C5551 H5522 0.950 . S
C5551 C5550 1.397 . S
C5551 C5552 1.334 . S
C5552 H5523 0.950 . S
C5552 C5551 1.334 . S
C5552 C5553 1.287 . S
C5553 C5552 1.287 . S
C5553 C5554 1.524 . S
C5553 H5556 0.999 . S
C5554 H5524 0.950 . S
C5554 C5553 1.524 . S
C5554 C5555 1.415 . S
C5555 H5525 0.950 . S
C5555 C5550 1.363 . S
C5555 C5554 1.415 . S
H5556 C5553 0.999 . S
H5557 C5538 0.913 . S
H5558 C5576 0.951 . S
H5559 C5578 0.951 . S
H5560 C5580 0.950 . S
H5561 C5581 0.950 . S
H5562 C5583 0.950 . S
H5563 C5586 0.950 . S
H5564 C5587 0.950 . S
H5565 C5589 0.950 . S
H5566 C5590 0.950 . S
H5567 C5591 0.951 . S
H5568 C5593 0.966 . S
H5569 C5595 0.950 . S
H5570 C5596 0.950 . S
H5571 C5598 0.950 1_556 S
H5572 C5601 0.981 . S
H5573 C5602 0.954 1_545 S
H5574 C5604 0.950 . S
H5575 C5605 0.950 . S
C5576 H5558 0.951 . S
C5576 C5577 1.366 . S
C5576 C5578 1.388 . S
C5577 C5576 1.366 . S
C5577 C5581 1.385 . S
C5578 H5559 0.951 . S
C5578 C5576 1.388 . S
C5578 C5579 1.366 . S
C5579 C5578 1.366 . S
C5579 C5580 1.414 . S
C5579 C5582 1.499 . S
C5580 H5560 0.950 . S
C5580 C5579 1.414 . S
C5580 C5581 1.374 . S
C5581 H5561 0.950 . S
C5581 C5577 1.385 . S
C5581 C5580 1.374 . S
C5582 C5579 1.499 . S
C5582 C5583 1.373 . S
C5582 C5584 1.389 . S
C5583 H5562 0.950 . S
C5583 C5582 1.373 . S
C5583 C5599 1.377 . S
C5584 C5582 1.389 . S
C5584 C5585 1.524 1_554 S
C5584 C5598 1.377 1_565 S
C5585 C5584 1.524 1_556 S
C5585 C5586 1.397 . S
C5585 C5590 1.363 1_565 S
C5586 H5563 0.950 . S
C5586 C5585 1.397 . S
C5586 C5587 1.334 . S
C5587 H5564 0.950 . S
C5587 C5586 1.334 . S
C5587 C5588 1.287 . S
C5588 C5587 1.287 . S
C5588 C5589 1.524 1_565 S
C5588 H5607 0.913 . S
C5589 H5565 0.950 . S
C5589 C5588 1.524 1_545 S
C5589 C5590 1.415 . S
C5590 H5566 0.950 . S
C5590 C5585 1.363 1_545 S
C5590 C5589 1.415 . S
C5591 H5567 0.951 . S
C5591 C5592 1.366 . S
C5591 C5593 1.383 1_545 S
C5592 C5591 1.366 . S
C5592 C5596 1.385 . S
C5593 H5568 0.966 . S
C5593 C5591 1.383 1_565 S
C5593 C5594 1.355 1_565 S
C5594 C5593 1.355 1_545 S
C5594 C5595 1.414 . S
C5594 C5597 1.499 1_545 S
C5595 H5569 0.950 . S
C5595 C5594 1.414 . S
C5595 C5596 1.374 . S
C5596 H5570 0.950 . S
C5596 C5592 1.385 . S
C5596 C5595 1.374 . S
C5597 C5594 1.499 1_565 S
C5597 C5598 1.373 1_565 S
C5597 C5599 1.389 . S
C5598 H5571 0.950 1_554 S
C5598 C5584 1.377 1_545 S
C5598 C5597 1.373 1_545 S
C5599 C5583 1.377 . S
C5599 C5597 1.389 . S
C5599 C5600 1.524 . S
C5600 C5599 1.524 . S
C5600 C5601 1.376 1_565 S
C5600 C5605 1.363 . S
C5601 H5572 0.981 . S
C5601 C5600 1.376 1_545 S
C5601 C5602 1.326 1_545 S
C5602 H5573 0.954 1_565 S
C5602 C5601 1.326 1_565 S
C5602 C5603 1.281 . S
C5603 C5602 1.281 . S
C5603 C5604 1.524 . S
C5603 H5606 0.999 . S
C5604 H5574 0.950 . S
C5604 C5603 1.524 . S
C5604 C5605 1.415 . S
C5605 H5575 0.950 . S
C5605 C5600 1.363 . S
C5605 C5604 1.415 . S
H5606 C5603 0.999 . S
H5607 C5588 0.913 . S
H5608 C5626 0.951 . S
H5609 C5628 0.951 . S
H5610 C5630 0.950 . S
H5611 C5631 0.950 . S
H5612 C5633 0.950 . S
H5613 C5636 0.950 . S
H5614 C5637 0.950 . S
H5615 C5639 0.950 . S
H5616 C5640 0.950 . S
H5617 C5641 0.951 . S
H5618 C5643 0.951 . S
H5619 C5645 0.950 . S
H5620 C5646 0.950 . S
H5621 C5648 0.950 . S
H5622 C5651 0.950 . S
H5623 C5652 0.950 . S
H5624 C5654 0.950 . S
H5625 C5655 0.950 . S
C5626 H5608 0.951 . S
C5626 C5627 1.366 . S
C5626 C5628 1.388 . S
C5627 C5626 1.366 . S
C5627 C5631 1.385 . S
C5628 H5609 0.951 . S
C5628 C5626 1.388 . S
C5628 C5629 1.366 . S
C5629 C5628 1.366 . S
C5629 C5630 1.414 . S
C5629 C5632 1.499 . S
C5630 H5610 0.950 . S
C5630 C5629 1.414 . S
C5630 C5631 1.374 . S
C5631 H5611 0.950 . S
C5631 C5627 1.385 . S
C5631 C5630 1.374 . S
C5632 C5629 1.499 . S
C5632 C5633 1.373 . S
C5632 C5634 1.389 . S
C5633 H5612 0.950 . S
C5633 C5632 1.373 . S
C5633 C5649 1.377 . S
C5634 C5632 1.389 . S
C5634 C5635 1.524 . S
C5634 C5648 1.377 . S
C5635 C5634 1.524 . S
C5635 C5636 1.397 . S
C5635 C5640 1.363 . S
C5636 H5613 0.950 . S
C5636 C5635 1.397 . S
C5636 C5637 1.334 . S
C5637 H5614 0.950 . S
C5637 C5636 1.334 . S
C5637 C5638 1.287 . S
C5638 C5637 1.287 . S
C5638 C5639 1.524 . S
C5638 H5657 0.913 . S
C5639 H5615 0.950 . S
C5639 C5638 1.524 . S
C5639 C5640 1.415 . S
C5640 H5616 0.950 . S
C5640 C5635 1.363 . S
C5640 C5639 1.415 . S
C5641 H5617 0.951 . S
C5641 C5642 1.366 . S
C5641 C5643 1.388 . S
C5642 C5641 1.366 . S
C5642 C5646 1.385 . S
C5643 H5618 0.951 . S
C5643 C5641 1.388 . S
C5643 C5644 1.366 . S
C5644 C5643 1.366 . S
C5644 C5645 1.414 . S
C5644 C5647 1.499 . S
C5645 H5619 0.950 . S
C5645 C5644 1.414 . S
C5645 C5646 1.374 . S
C5646 H5620 0.950 . S
C5646 C5642 1.385 . S
C5646 C5645 1.374 . S
C5647 C5644 1.499 . S
C5647 C5648 1.373 . S
C5647 C5649 1.389 . S
C5648 H5621 0.950 . S
C5648 C5634 1.377 . S
C5648 C5647 1.373 . S
C5649 C5633 1.377 . S
C5649 C5647 1.389 . S
C5649 C5650 1.524 . S
C5650 C5649 1.524 . S
C5650 C5651 1.397 . S
C5650 C5655 1.363 . S
C5651 H5622 0.950 . S
C5651 C5650 1.397 . S
C5651 C5652 1.334 . S
C5652 H5623 0.950 . S
C5652 C5651 1.334 . S
C5652 C5653 1.287 . S
C5653 C5652 1.287 . S
C5653 C5654 1.524 . S
C5653 H5656 0.999 . S
C5654 H5624 0.950 . S
C5654 C5653 1.524 . S
C5654 C5655 1.415 . S
C5655 H5625 0.950 . S
C5655 C5650 1.363 . S
C5655 C5654 1.415 . S
H5656 C5653 0.999 . S
H5657 C5638 0.913 . S
H5658 C5676 0.951 . S
H5659 C5678 0.951 . S
H5660 C5680 0.950 . S
H5661 C5681 0.950 . S
H5662 C5683 0.980 . S
H5663 C5686 0.950 . S
H5664 C5687 0.950 . S
H5665 C5689 0.950 . S
H5666 C5690 0.950 . S
H5667 C5691 0.951 1_556 S
H5668 C5693 0.951 1_556 S
H5669 C5695 0.950 . S
H5670 C5696 0.950 . S
H5671 C5698 0.950 . S
H5672 C5701 0.950 . S
H5673 C5702 0.950 1_554 S
H5674 C5704 0.950 . S
H5675 C5705 0.950 . S
C5676 H5658 0.951 . S
C5676 C5677 1.356 1_554 S
C5676 C5678 1.388 . S
C5677 C5676 1.356 1_556 S
C5677 C5681 1.392 . S
C5678 H5659 0.951 . S
C5678 C5676 1.388 . S
C5678 C5679 1.366 . S
C5679 C5678 1.366 . S
C5679 C5680 1.414 1_554 S
C5679 C5682 1.499 . S
C5680 H5660 0.950 . S
C5680 C5679 1.414 1_556 S
C5680 C5681 1.374 . S
C5681 H5661 0.950 . S
C5681 C5677 1.392 . S
C5681 C5680 1.374 . S
C5682 C5679 1.499 . S
C5682 C5683 1.359 1_554 S
C5682 C5684 1.389 . S
C5683 H5662 0.980 . S
C5683 C5682 1.359 1_556 S
C5683 C5699 1.364 1_556 S
C5684 C5682 1.389 . S
C5684 C5685 1.524 . S
C5684 C5698 1.377 . S
C5685 C5684 1.524 . S
C5685 C5686 1.397 . S
C5685 C5690 1.363 . S
C5686 H5663 0.950 . S
C5686 C5685 1.397 . S
C5686 C5687 1.334 . S
C5687 H5664 0.950 . S
C5687 C5686 1.334 . S
C5687 C5688 1.287 . S
C5688 C5687 1.287 . S
C5688 C5689 1.524 . S
C5688 H5707 0.913 . S
C5689 H5665 0.950 . S
C5689 C5688 1.524 . S
C5689 C5690 1.415 . S
C5690 H5666 0.950 . S
C5690 C5685 1.363 . S
C5690 C5689 1.415 . S
C5691 H5667 0.951 1_554 S
C5691 C5692 1.366 . S
C5691 C5693 1.388 . S
C5692 C5691 1.366 . S
C5692 C5696 1.385 . S
C5693 H5668 0.951 1_554 S
C5693 C5691 1.388 . S
C5693 C5694 1.366 . S
C5694 C5693 1.366 . S
C5694 C5695 1.414 . S
C5694 C5697 1.499 . S
C5695 H5669 0.950 . S
C5695 C5694 1.414 . S
C5695 C5696 1.374 . S
C5696 H5670 0.950 . S
C5696 C5692 1.385 . S
C5696 C5695 1.374 . S
C5697 C5694 1.499 . S
C5697 C5698 1.373 . S
C5697 C5699 1.389 . S
C5698 H5671 0.950 . S
C5698 C5684 1.377 . S
C5698 C5697 1.373 . S
C5699 C5683 1.364 1_554 S
C5699 C5697 1.389 . S
C5699 C5700 1.524 1_554 S
C5700 C5699 1.524 1_556 S
C5700 C5701 1.397 1_556 S
C5700 C5705 1.363 . S
C5701 H5672 0.950 . S
C5701 C5700 1.397 1_554 S
C5701 C5702 1.334 1_554 S
C5702 H5673 0.950 1_556 S
C5702 C5701 1.334 1_556 S
C5702 C5703 1.287 . S
C5703 C5702 1.287 . S
C5703 C5704 1.524 . S
C5703 H5706 0.999 . S
C5704 H5674 0.950 . S
C5704 C5703 1.524 . S
C5704 C5705 1.415 . S
C5705 H5675 0.950 . S
C5705 C5700 1.363 . S
C5705 C5704 1.415 . S
H5706 C5703 0.999 . S
H5707 C5688 0.913 . S
H5708 C5726 0.951 . S
H5709 C5728 0.951 . S
H5710 C5730 0.950 . S
H5711 C5731 0.950 . S
H5712 C5733 0.950 . S
H5713 C5736 0.950 . S
H5714 C5737 0.950 . S
H5715 C5739 0.950 . S
H5716 C5740 0.950 . S
H5717 C5741 0.951 . S
H5718 C5743 0.951 . S
H5719 C5745 0.950 . S
H5720 C5746 0.950 . S
H5721 C5748 0.950 . S
H5722 C5751 0.950 . S
H5723 C5752 0.950 . S
H5724 C5754 0.950 . S
H5725 C5755 0.950 . S
C5726 H5708 0.951 . S
C5726 C5727 1.366 . S
C5726 C5728 1.388 . S
C5727 C5726 1.366 . S
C5727 C5731 1.385 . S
C5728 H5709 0.951 . S
C5728 C5726 1.388 . S
C5728 C5729 1.366 . S
C5729 C5728 1.366 . S
C5729 C5730 1.414 . S
C5729 C5732 1.499 . S
C5730 H5710 0.950 . S
C5730 C5729 1.414 . S
C5730 C5731 1.374 . S
C5731 H5711 0.950 . S
C5731 C5727 1.385 . S
C5731 C5730 1.374 . S
C5732 C5729 1.499 . S
C5732 C5733 1.373 . S
C5732 C5734 1.389 . S
C5733 H5712 0.950 . S
C5733 C5732 1.373 . S
C5733 C5749 1.377 . S
C5734 C5732 1.389 . S
C5734 C5735 1.524 . S
C5734 C5748 1.377 . S
C5735 C5734 1.524 . S
C5735 C5736 1.397 . S
C5735 C5740 1.363 . S
C5736 H5713 0.950 . S
C5736 C5735 1.397 . S
C5736 C5737 1.334 . S
C5737 H5714 0.950 . S
C5737 C5736 1.334 . S
C5737 C5738 1.287 . S
C5738 C5737 1.287 . S
C5738 C5739 1.524 . S
C5738 H5757 0.913 . S
C5739 H5715 0.950 . S
C5739 C5738 1.524 . S
C5739 C5740 1.415 . S
C5740 H5716 0.950 . S
C5740 C5735 1.363 . S
C5740 C5739 1.415 . S
C5741 H5717 0.951 . S
C5741 C5742 1.366 . S
C5741 C5743 1.388 . S
C5742 C5741 1.366 . S
C5742 C5746 1.385 . S
C5743 H5718 0.951 . S
C5743 C5741 1.388 . S
C5743 C5744 1.366 . S
C5744 C5743 1.366 . S
C5744 C5745 1.414 . S
C5744 C5747 1.499 . S
C5745 H5719 0.950 . S
C5745 C5744 1.414 . S
C5745 C5746 1.374 . S
C5746 H5720 0.950 . S
C5746 C5742 1.385 . S
C5746 C5745 1.374 . S
C5747 C5744 1.499 . S
C5747 C5748 1.373 . S
C5747 C5749 1.389 . S
C5748 H5721 0.950 . S
C5748 C5734 1.377 . S
C5748 C5747 1.373 . S
C5749 C5733 1.377 . S
C5749 C5747 1.389 . S
C5749 C5750 1.524 . S
C5750 C5749 1.524 . S
C5750 C5751 1.397 . S
C5750 C5755 1.363 . S
C5751 H5722 0.950 . S
C5751 C5750 1.397 . S
C5751 C5752 1.334 . S
C5752 H5723 0.950 . S
C5752 C5751 1.334 . S
C5752 C5753 1.287 . S
C5753 C5752 1.287 . S
C5753 C5754 1.524 . S
C5753 H5756 0.999 . S
C5754 H5724 0.950 . S
C5754 C5753 1.524 . S
C5754 C5755 1.415 . S
C5755 H5725 0.950 . S
C5755 C5750 1.363 . S
C5755 C5754 1.415 . S
H5756 C5753 0.999 . S
H5757 C5738 0.913 . S
H5758 C5776 0.951 . S
H5759 C5778 0.951 . S
H5760 C5780 0.950 . S
H5761 C5781 0.950 . S
H5762 C5783 0.950 . S
H5763 C5786 0.950 . S
H5764 C5787 0.950 . S
H5765 C5789 0.950 . S
H5766 C5790 0.950 . S
H5767 C5791 0.951 . S
H5768 C5793 0.951 . S
H5769 C5795 0.950 . S
H5770 C5796 0.950 . S
H5771 C5798 0.950 . S
H5772 C5801 0.950 . S
H5773 C5802 0.950 . S
H5774 C5804 0.950 . S
H5775 C5805 0.950 . S
C5776 H5758 0.951 . S
C5776 C5777 1.366 . S
C5776 C5778 1.388 . S
C5777 C5776 1.366 . S
C5777 C5781 1.385 . S
C5778 H5759 0.951 . S
C5778 C5776 1.388 . S
C5778 C5779 1.366 . S
C5779 C5778 1.366 . S
C5779 C5780 1.414 . S
C5779 C5782 1.499 . S
C5780 H5760 0.950 . S
C5780 C5779 1.414 . S
C5780 C5781 1.374 . S
C5781 H5761 0.950 . S
C5781 C5777 1.385 . S
C5781 C5780 1.374 . S
C5782 C5779 1.499 . S
C5782 C5783 1.373 . S
C5782 C5784 1.389 . S
C5783 H5762 0.950 . S
C5783 C5782 1.373 . S
C5783 C5799 1.377 . S
C5784 C5782 1.389 . S
C5784 C5785 1.524 . S
C5784 C5798 1.377 . S
C5785 C5784 1.524 . S
C5785 C5786 1.397 . S
C5785 C5790 1.363 . S
C5786 H5763 0.950 . S
C5786 C5785 1.397 . S
C5786 C5787 1.334 . S
C5787 H5764 0.950 . S
C5787 C5786 1.334 . S
C5787 C5788 1.287 . S
C5788 C5787 1.287 . S
C5788 C5789 1.524 . S
C5788 H5807 0.913 . S
C5789 H5765 0.950 . S
C5789 C5788 1.524 . S
C5789 C5790 1.415 . S
C5790 H5766 0.950 . S
C5790 C5785 1.363 . S
C5790 C5789 1.415 . S
C5791 H5767 0.951 . S
C5791 C5792 1.366 . S
C5791 C5793 1.388 . S
C5792 C5791 1.366 . S
C5792 C5796 1.385 . S
C5793 H5768 0.951 . S
C5793 C5791 1.388 . S
C5793 C5794 1.366 . S
C5794 C5793 1.366 . S
C5794 C5795 1.414 . S
C5794 C5797 1.499 . S
C5795 H5769 0.950 . S
C5795 C5794 1.414 . S
C5795 C5796 1.374 . S
C5796 H5770 0.950 . S
C5796 C5792 1.385 . S
C5796 C5795 1.374 . S
C5797 C5794 1.499 . S
C5797 C5798 1.373 . S
C5797 C5799 1.389 . S
C5798 H5771 0.950 . S
C5798 C5784 1.377 . S
C5798 C5797 1.373 . S
C5799 C5783 1.377 . S
C5799 C5797 1.389 . S
C5799 C5800 1.524 . S
C5800 C5799 1.524 . S
C5800 C5801 1.397 . S
C5800 C5805 1.363 . S
C5801 H5772 0.950 . S
C5801 C5800 1.397 . S
C5801 C5802 1.334 . S
C5802 H5773 0.950 . S
C5802 C5801 1.334 . S
C5802 C5803 1.287 . S
C5803 C5802 1.287 . S
C5803 C5804 1.524 . S
C5803 H5806 0.999 . S
C5804 H5774 0.950 . S
C5804 C5803 1.524 . S
C5804 C5805 1.415 . S
C5805 H5775 0.950 . S
C5805 C5800 1.363 . S
C5805 C5804 1.415 . S
H5806 C5803 0.999 . S
H5807 C5788 0.913 . S
H5808 C5826 0.951 . S
H5809 C5828 0.951 . S
H5810 C5830 0.950 . S
H5811 C5831 0.950 . S
H5812 C5833 0.950 . S
H5813 C5836 0.950 . S
H5814 C5837 0.950 . S
H5815 C5839 0.950 . S
H5816 C5840 0.950 . S
H5817 C5841 0.951 . S
H5818 C5843 0.951 . S
H5819 C5845 0.950 . S
H5820 C5846 0.950 . S
H5821 C5848 0.950 . S
H5822 C5851 0.950 . S
H5823 C5852 0.950 . S
H5824 C5854 0.950 . S
H5825 C5855 0.950 . S
C5826 H5808 0.951 . S
C5826 C5827 1.366 . S
C5826 C5828 1.388 . S
C5827 C5826 1.366 . S
C5827 C5831 1.385 . S
C5828 H5809 0.951 . S
C5828 C5826 1.388 . S
C5828 C5829 1.366 . S
C5829 C5828 1.366 . S
C5829 C5830 1.414 . S
C5829 C5832 1.499 . S
C5830 H5810 0.950 . S
C5830 C5829 1.414 . S
C5830 C5831 1.374 . S
C5831 H5811 0.950 . S
C5831 C5827 1.385 . S
C5831 C5830 1.374 . S
C5832 C5829 1.499 . S
C5832 C5833 1.373 . S
C5832 C5834 1.389 . S
C5833 H5812 0.950 . S
C5833 C5832 1.373 . S
C5833 C5849 1.377 . S
C5834 C5832 1.389 . S
C5834 C5835 1.524 . S
C5834 C5848 1.377 . S
C5835 C5834 1.524 . S
C5835 C5836 1.397 . S
C5835 C5840 1.363 . S
C5836 H5813 0.950 . S
C5836 C5835 1.397 . S
C5836 C5837 1.334 . S
C5837 H5814 0.950 . S
C5837 C5836 1.334 . S
C5837 C5838 1.287 . S
C5838 C5837 1.287 . S
C5838 C5839 1.524 . S
C5838 H5857 0.913 . S
C5839 H5815 0.950 . S
C5839 C5838 1.524 . S
C5839 C5840 1.415 . S
C5840 H5816 0.950 . S
C5840 C5835 1.363 . S
C5840 C5839 1.415 . S
C5841 H5817 0.951 . S
C5841 C5842 1.366 . S
C5841 C5843 1.388 . S
C5842 C5841 1.366 . S
C5842 C5846 1.385 . S
C5843 H5818 0.951 . S
C5843 C5841 1.388 . S
C5843 C5844 1.366 . S
C5844 C5843 1.366 . S
C5844 C5845 1.414 . S
C5844 C5847 1.499 . S
C5845 H5819 0.950 . S
C5845 C5844 1.414 . S
C5845 C5846 1.374 . S
C5846 H5820 0.950 . S
C5846 C5842 1.385 . S
C5846 C5845 1.374 . S
C5847 C5844 1.499 . S
C5847 C5848 1.373 . S
C5847 C5849 1.389 . S
C5848 H5821 0.950 . S
C5848 C5834 1.377 . S
C5848 C5847 1.373 . S
C5849 C5833 1.377 . S
C5849 C5847 1.389 . S
C5849 C5850 1.524 . S
C5850 C5849 1.524 . S
C5850 C5851 1.397 . S
C5850 C5855 1.363 . S
C5851 H5822 0.950 . S
C5851 C5850 1.397 . S
C5851 C5852 1.334 . S
C5852 H5823 0.950 . S
C5852 C5851 1.334 . S
C5852 C5853 1.287 . S
C5853 C5852 1.287 . S
C5853 C5854 1.524 . S
C5853 H5856 0.999 . S
C5854 H5824 0.950 . S
C5854 C5853 1.524 . S
C5854 C5855 1.415 . S
C5855 H5825 0.950 . S
C5855 C5850 1.363 . S
C5855 C5854 1.415 . S
H5856 C5853 0.999 . S
H5857 C5838 0.913 . S
H5858 C5876 0.951 . S
H5859 C5878 0.951 . S
H5860 C5880 0.950 . S
H5861 C5881 0.950 . S
H5862 C5883 0.950 . S
H5863 C5886 0.950 . S
H5864 C5887 0.950 . S
H5865 C5889 0.950 . S
H5866 C5890 0.950 . S
H5867 C5891 0.951 . S
H5868 C5893 0.951 . S
H5869 C5895 0.950 . S
H5870 C5896 0.950 . S
H5871 C5898 0.950 . S
H5872 C5901 0.950 . S
H5873 C5902 0.950 . S
H5874 C5904 0.950 . S
H5875 C5905 0.950 . S
C5876 H5858 0.951 . S
C5876 C5877 1.366 . S
C5876 C5878 1.388 . S
C5877 C5876 1.366 . S
C5877 C5881 1.385 . S
C5878 H5859 0.951 . S
C5878 C5876 1.388 . S
C5878 C5879 1.366 . S
C5879 C5878 1.366 . S
C5879 C5880 1.414 . S
C5879 C5882 1.499 . S
C5880 H5860 0.950 . S
C5880 C5879 1.414 . S
C5880 C5881 1.374 . S
C5881 H5861 0.950 . S
C5881 C5877 1.385 . S
C5881 C5880 1.374 . S
C5882 C5879 1.499 . S
C5882 C5883 1.373 . S
C5882 C5884 1.389 . S
C5883 H5862 0.950 . S
C5883 C5882 1.373 . S
C5883 C5899 1.377 . S
C5884 C5882 1.389 . S
C5884 C5885 1.524 . S
C5884 C5898 1.377 . S
C5885 C5884 1.524 . S
C5885 C5886 1.397 . S
C5885 C5890 1.363 . S
C5886 H5863 0.950 . S
C5886 C5885 1.397 . S
C5886 C5887 1.334 . S
C5887 H5864 0.950 . S
C5887 C5886 1.334 . S
C5887 C5888 1.287 . S
C5888 C5887 1.287 . S
C5888 C5889 1.524 . S
C5888 H5907 0.913 . S
C5889 H5865 0.950 . S
C5889 C5888 1.524 . S
C5889 C5890 1.415 . S
C5890 H5866 0.950 . S
C5890 C5885 1.363 . S
C5890 C5889 1.415 . S
C5891 H5867 0.951 . S
C5891 C5892 1.366 . S
C5891 C5893 1.388 . S
C5892 C5891 1.366 . S
C5892 C5896 1.385 . S
C5893 H5868 0.951 . S
C5893 C5891 1.388 . S
C5893 C5894 1.366 . S
C5894 C5893 1.366 . S
C5894 C5895 1.414 . S
C5894 C5897 1.499 . S
C5895 H5869 0.950 . S
C5895 C5894 1.414 . S
C5895 C5896 1.374 . S
C5896 H5870 0.950 . S
C5896 C5892 1.385 . S
C5896 C5895 1.374 . S
C5897 C5894 1.499 . S
C5897 C5898 1.373 . S
C5897 C5899 1.389 . S
C5898 H5871 0.950 . S
C5898 C5884 1.377 . S
C5898 C5897 1.373 . S
C5899 C5883 1.377 . S
C5899 C5897 1.389 . S
C5899 C5900 1.524 . S
C5900 C5899 1.524 . S
C5900 C5901 1.397 . S
C5900 C5905 1.363 . S
C5901 H5872 0.950 . S
C5901 C5900 1.397 . S
C5901 C5902 1.334 . S
C5902 H5873 0.950 . S
C5902 C5901 1.334 . S
C5902 C5903 1.287 . S
C5903 C5902 1.287 . S
C5903 C5904 1.524 . S
C5903 H5906 0.999 . S
C5904 H5874 0.950 . S
C5904 C5903 1.524 . S
C5904 C5905 1.415 . S
C5905 H5875 0.950 . S
C5905 C5900 1.363 . S
C5905 C5904 1.415 . S
H5906 C5903 0.999 . S
H5907 C5888 0.913 . S
H5908 C5926 0.951 . S
H5909 C5928 0.951 . S
H5910 C5930 0.950 . S
H5911 C5931 0.950 . S
H5912 C5933 0.950 . S
H5913 C5936 0.950 . S
H5914 C5937 0.950 . S
H5915 C5939 0.950 . S
H5916 C5940 0.950 . S
H5917 C5941 0.951 . S
H5918 C5943 0.951 . S
H5919 C5945 0.950 . S
H5920 C5946 0.950 . S
H5921 C5948 0.950 . S
H5922 C5951 0.950 . S
H5923 C5952 0.950 . S
H5924 C5954 0.950 1_655 S
H5925 C5955 0.950 . S
C5926 H5908 0.951 . S
C5926 C5927 1.366 . S
C5926 C5928 1.388 . S
C5927 C5926 1.366 . S
C5927 C5931 1.385 . S
C5928 H5909 0.951 . S
C5928 C5926 1.388 . S
C5928 C5929 1.366 . S
C5929 C5928 1.366 . S
C5929 C5930 1.414 . S
C5929 C5932 1.499 . S
C5930 H5910 0.950 . S
C5930 C5929 1.414 . S
C5930 C5931 1.374 . S
C5931 H5911 0.950 . S
C5931 C5927 1.385 . S
C5931 C5930 1.374 . S
C5932 C5929 1.499 . S
C5932 C5933 1.373 . S
C5932 C5934 1.389 . S
C5933 H5912 0.950 . S
C5933 C5932 1.373 . S
C5933 C5949 1.377 . S
C5934 C5932 1.389 . S
C5934 C5935 1.524 . S
C5934 C5948 1.377 . S
C5935 C5934 1.524 . S
C5935 C5936 1.397 . S
C5935 C5940 1.363 . S
C5936 H5913 0.950 . S
C5936 C5935 1.397 . S
C5936 C5937 1.334 . S
C5937 H5914 0.950 . S
C5937 C5936 1.334 . S
C5937 C5938 1.287 . S
C5938 C5937 1.287 . S
C5938 C5939 1.524 . S
C5938 H5957 0.913 . S
C5939 H5915 0.950 . S
C5939 C5938 1.524 . S
C5939 C5940 1.415 . S
C5940 H5916 0.950 . S
C5940 C5935 1.363 . S
C5940 C5939 1.415 . S
C5941 H5917 0.951 . S
C5941 C5942 1.366 . S
C5941 C5943 1.388 . S
C5942 C5941 1.366 . S
C5942 C5946 1.385 . S
C5943 H5918 0.951 . S
C5943 C5941 1.388 . S
C5943 C5944 1.366 . S
C5944 C5943 1.366 . S
C5944 C5945 1.414 . S
C5944 C5947 1.499 . S
C5945 H5919 0.950 . S
C5945 C5944 1.414 . S
C5945 C5946 1.374 . S
C5946 H5920 0.950 . S
C5946 C5942 1.385 . S
C5946 C5945 1.374 . S
C5947 C5944 1.499 . S
C5947 C5948 1.373 . S
C5947 C5949 1.389 . S
C5948 H5921 0.950 . S
C5948 C5934 1.377 . S
C5948 C5947 1.373 . S
C5949 C5933 1.377 . S
C5949 C5947 1.389 . S
C5949 C5950 1.524 . S
C5950 C5949 1.524 . S
C5950 C5951 1.397 . S
C5950 C5955 1.363 . S
C5951 H5922 0.950 . S
C5951 C5950 1.397 . S
C5951 C5952 1.334 . S
C5952 H5923 0.950 . S
C5952 C5951 1.334 . S
C5952 C5953 1.287 . S
C5953 C5952 1.287 . S
C5953 C5954 1.524 . S
C5953 H5956 0.999 1_455 S
C5954 H5924 0.950 1_455 S
C5954 C5953 1.524 . S
C5954 C5955 1.415 . S
C5955 H5925 0.950 . S
C5955 C5950 1.363 . S
C5955 C5954 1.415 . S
H5956 C5953 0.999 1_655 S
H5957 C5938 0.913 . S
H5958 C5976 0.951 . S
H5959 C5978 0.951 . S
H5960 C5980 0.950 . S
H5961 C5981 0.950 . S
H5962 C5983 0.950 . S
H5963 C5986 0.950 . S
H5964 C5987 0.950 . S
H5965 C5989 0.950 . S
H5966 C5990 0.950 . S
H5967 C5991 0.951 . S
H5968 C5993 0.951 . S
H5969 C5995 0.950 . S
H5970 C5996 0.950 . S
H5971 C5998 0.950 . S
H5972 C6001 0.950 . S
H5973 C6002 0.950 . S
H5974 C6004 0.950 . S
H5975 C6005 0.950 . S
C5976 H5958 0.951 . S
C5976 C5977 1.366 . S
C5976 C5978 1.388 . S
C5977 C5976 1.366 . S
C5977 C5981 1.385 . S
C5978 H5959 0.951 . S
C5978 C5976 1.388 . S
C5978 C5979 1.366 . S
C5979 C5978 1.366 . S
C5979 C5980 1.414 . S
C5979 C5982 1.499 . S
C5980 H5960 0.950 . S
C5980 C5979 1.414 . S
C5980 C5981 1.374 . S
C5981 H5961 0.950 . S
C5981 C5977 1.385 . S
C5981 C5980 1.374 . S
C5982 C5979 1.499 . S
C5982 C5983 1.373 . S
C5982 C5984 1.389 . S
C5983 H5962 0.950 . S
C5983 C5982 1.373 . S
C5983 C5999 1.377 . S
C5984 C5982 1.389 . S
C5984 C5985 1.524 . S
C5984 C5998 1.377 . S
C5985 C5984 1.524 . S
C5985 C5986 1.397 . S
C5985 C5990 1.363 . S
C5986 H5963 0.950 . S
C5986 C5985 1.397 . S
C5986 C5987 1.334 . S
C5987 H5964 0.950 . S
C5987 C5986 1.334 . S
C5987 C5988 1.287 . S
C5988 C5987 1.287 . S
C5988 C5989 1.524 . S
C5988 H6007 0.913 . S
C5989 H5965 0.950 . S
C5989 C5988 1.524 . S
C5989 C5990 1.415 . S
C5990 H5966 0.950 . S
C5990 C5985 1.363 . S
C5990 C5989 1.415 . S
C5991 H5967 0.951 . S
C5991 C5992 1.366 . S
C5991 C5993 1.388 . S
C5992 C5991 1.366 . S
C5992 C5996 1.385 . S
C5993 H5968 0.951 . S
C5993 C5991 1.388 . S
C5993 C5994 1.366 . S
C5994 C5993 1.366 . S
C5994 C5995 1.414 . S
C5994 C5997 1.499 . S
C5995 H5969 0.950 . S
C5995 C5994 1.414 . S
C5995 C5996 1.374 . S
C5996 H5970 0.950 . S
C5996 C5992 1.385 . S
C5996 C5995 1.374 . S
C5997 C5994 1.499 . S
C5997 C5998 1.373 . S
C5997 C5999 1.389 . S
C5998 H5971 0.950 . S
C5998 C5984 1.377 . S
C5998 C5997 1.373 . S
C5999 C5983 1.377 . S
C5999 C5997 1.389 . S
C5999 C6000 1.524 . S
C6000 C5999 1.524 . S
C6000 C6001 1.397 . S
C6000 C6005 1.363 . S
C6001 H5972 0.950 . S
C6001 C6000 1.397 . S
C6001 C6002 1.334 . S
C6002 H5973 0.950 . S
C6002 C6001 1.334 . S
C6002 C6003 1.287 . S
C6003 C6002 1.287 . S
C6003 C6004 1.524 . S
C6003 H6006 0.999 . S
C6004 H5974 0.950 . S
C6004 C6003 1.524 . S
C6004 C6005 1.415 . S
C6005 H5975 0.950 . S
C6005 C6000 1.363 . S
C6005 C6004 1.415 . S
H6006 C6003 0.999 . S
H6007 C5988 0.913 . S
H6008 C6026 0.951 . S
H6009 C6028 0.951 . S
H6010 C6030 0.950 . S
H6011 C6031 0.950 . S
H6012 C6033 0.950 . S
H6013 C6036 0.950 . S
H6014 C6037 0.950 . S
H6015 C6039 0.950 . S
H6016 C6040 0.950 . S
H6017 C6041 0.951 1_554 S
H6018 C6043 0.951 . S
H6019 C6045 0.950 . S
H6020 C6046 0.950 . S
H6021 C6048 0.950 . S
H6022 C6051 0.950 . S
H6023 C6052 0.950 . S
H6024 C6054 0.991 . S
H6025 C6055 0.950 . S
C6026 H6008 0.951 . S
C6026 C6027 1.366 . S
C6026 C6028 1.388 . S
C6027 C6026 1.366 . S
C6027 C6031 1.385 . S
C6028 H6009 0.951 . S
C6028 C6026 1.388 . S
C6028 C6029 1.366 . S
C6029 C6028 1.366 . S
C6029 C6030 1.414 . S
C6029 C6032 1.499 . S
C6030 H6010 0.950 . S
C6030 C6029 1.414 . S
C6030 C6031 1.374 . S
C6031 H6011 0.950 . S
C6031 C6027 1.385 . S
C6031 C6030 1.374 . S
C6032 C6029 1.499 . S
C6032 C6033 1.373 . S
C6032 C6034 1.389 . S
C6033 H6012 0.950 . S
C6033 C6032 1.373 . S
C6033 C6049 1.377 . S
C6034 C6032 1.389 . S
C6034 C6035 1.524 . S
C6034 C6048 1.377 . S
C6035 C6034 1.524 . S
C6035 C6036 1.397 . S
C6035 C6040 1.363 . S
C6036 H6013 0.950 . S
C6036 C6035 1.397 . S
C6036 C6037 1.334 . S
C6037 H6014 0.950 . S
C6037 C6036 1.334 . S
C6037 C6038 1.287 . S
C6038 C6037 1.287 . S
C6038 C6039 1.524 . S
C6038 H6057 0.913 . S
C6039 H6015 0.950 . S
C6039 C6038 1.524 . S
C6039 C6040 1.415 . S
C6040 H6016 0.950 . S
C6040 C6035 1.363 . S
C6040 C6039 1.415 . S
C6041 H6017 0.951 1_556 S
C6041 C6042 1.366 . S
C6041 C6043 1.388 . S
C6042 C6041 1.366 . S
C6042 C6046 1.385 . S
C6043 H6018 0.951 . S
C6043 C6041 1.388 . S
C6043 C6044 1.366 . S
C6044 C6043 1.366 . S
C6044 C6045 1.414 . S
C6044 C6047 1.499 . S
C6045 H6019 0.950 . S
C6045 C6044 1.414 . S
C6045 C6046 1.374 . S
C6046 H6020 0.950 . S
C6046 C6042 1.385 . S
C6046 C6045 1.374 . S
C6047 C6044 1.499 . S
C6047 C6048 1.373 . S
C6047 C6049 1.389 . S
C6048 H6021 0.950 . S
C6048 C6034 1.377 . S
C6048 C6047 1.373 . S
C6049 C6033 1.377 . S
C6049 C6047 1.389 . S
C6049 C6050 1.524 . S
C6050 C6049 1.524 . S
C6050 C6051 1.397 . S
C6050 C6055 1.363 . S
C6051 H6022 0.950 . S
C6051 C6050 1.397 . S
C6051 C6052 1.334 . S
C6052 H6023 0.950 . S
C6052 C6051 1.334 . S
C6052 C6053 1.287 . S
C6053 C6052 1.287 . S
C6053 C6054 1.520 1_556 S
C6053 H6056 0.999 1_556 S
C6054 H6024 0.991 . S
C6054 C6053 1.520 1_554 S
C6054 C6055 1.375 1_554 S
C6055 H6025 0.950 . S
C6055 C6050 1.363 . S
C6055 C6054 1.375 1_556 S
H6056 C6053 0.999 1_554 S
H6057 C6038 0.913 . S
H6058 C6076 0.951 . S
H6059 C6078 0.951 . S
H6060 C6080 0.950 . S
H6061 C6081 0.950 . S
H6062 C6083 0.950 . S
H6063 C6086 0.950 . S
H6064 C6087 0.950 . S
H6065 C6089 0.950 . S
H6066 C6090 0.950 . S
H6067 C6091 0.951 . S
H6068 C6093 0.951 . S
H6069 C6095 0.950 . S
H6070 C6096 0.950 . S
H6071 C6098 0.950 . S
H6072 C6101 0.950 . S
H6073 C6102 0.950 . S
H6074 C6104 0.950 . S
H6075 C6105 0.950 . S
C6076 H6058 0.951 . S
C6076 C6077 1.366 . S
C6076 C6078 1.388 . S
C6077 C6076 1.366 . S
C6077 C6081 1.385 . S
C6078 H6059 0.951 . S
C6078 C6076 1.388 . S
C6078 C6079 1.366 . S
C6079 C6078 1.366 . S
C6079 C6080 1.414 . S
C6079 C6082 1.499 . S
C6080 H6060 0.950 . S
C6080 C6079 1.414 . S
C6080 C6081 1.374 . S
C6081 H6061 0.950 . S
C6081 C6077 1.385 . S
C6081 C6080 1.374 . S
C6082 C6079 1.499 . S
C6082 C6083 1.373 . S
C6082 C6084 1.389 . S
C6083 H6062 0.950 . S
C6083 C6082 1.373 . S
C6083 C6099 1.377 . S
C6084 C6082 1.389 . S
C6084 C6085 1.524 . S
C6084 C6098 1.377 . S
C6085 C6084 1.524 . S
C6085 C6086 1.397 . S
C6085 C6090 1.363 . S
C6086 H6063 0.950 . S
C6086 C6085 1.397 . S
C6086 C6087 1.334 . S
C6087 H6064 0.950 . S
C6087 C6086 1.334 . S
C6087 C6088 1.287 . S
C6088 C6087 1.287 . S
C6088 C6089 1.524 . S
C6088 H6107 0.913 . S
C6089 H6065 0.950 . S
C6089 C6088 1.524 . S
C6089 C6090 1.415 . S
C6090 H6066 0.950 . S
C6090 C6085 1.363 . S
C6090 C6089 1.415 . S
C6091 H6067 0.951 . S
C6091 C6092 1.366 . S
C6091 C6093 1.388 . S
C6092 C6091 1.366 . S
C6092 C6096 1.385 . S
C6093 H6068 0.951 . S
C6093 C6091 1.388 . S
C6093 C6094 1.366 . S
C6094 C6093 1.366 . S
C6094 C6095 1.414 . S
C6094 C6097 1.499 . S
C6095 H6069 0.950 . S
C6095 C6094 1.414 . S
C6095 C6096 1.374 . S
C6096 H6070 0.950 . S
C6096 C6092 1.385 . S
C6096 C6095 1.374 . S
C6097 C6094 1.499 . S
C6097 C6098 1.373 . S
C6097 C6099 1.389 . S
C6098 H6071 0.950 . S
C6098 C6084 1.377 . S
C6098 C6097 1.373 . S
C6099 C6083 1.377 . S
C6099 C6097 1.389 . S
C6099 C6100 1.524 . S
C6100 C6099 1.524 . S
C6100 C6101 1.397 . S
C6100 C6105 1.363 . S
C6101 H6072 0.950 . S
C6101 C6100 1.397 . S
C6101 C6102 1.334 . S
C6102 H6073 0.950 . S
C6102 C6101 1.334 . S
C6102 C6103 1.287 . S
C6103 C6102 1.287 . S
C6103 C6104 1.524 . S
C6103 H6106 0.999 . S
C6104 H6074 0.950 . S
C6104 C6103 1.524 . S
C6104 C6105 1.415 . S
C6105 H6075 0.950 . S
C6105 C6100 1.363 . S
C6105 C6104 1.415 . S
H6106 C6103 0.999 . S
H6107 C6088 0.913 . S
H6108 C6126 0.951 . S
H6109 C6128 0.951 . S
H6110 C6130 0.950 . S
H6111 C6131 0.950 . S
H6112 C6133 0.950 . S
H6113 C6136 0.950 . S
H6114 C6137 0.950 . S
H6115 C6139 0.950 . S
H6116 C6140 0.950 . S
H6117 C6141 0.951 . S
H6118 C6143 0.951 . S
H6119 C6145 0.950 . S
H6120 C6146 0.950 . S
H6121 C6148 0.950 . S
H6122 C6151 0.950 . S
H6123 C6152 0.950 . S
H6124 C6154 0.950 . S
H6125 C6155 0.950 . S
C6126 H6108 0.951 . S
C6126 C6127 1.366 . S
C6126 C6128 1.388 . S
C6127 C6126 1.366 . S
C6127 C6131 1.385 . S
C6128 H6109 0.951 . S
C6128 C6126 1.388 . S
C6128 C6129 1.366 . S
C6129 C6128 1.366 . S
C6129 C6130 1.414 . S
C6129 C6132 1.499 . S
C6130 H6110 0.950 . S
C6130 C6129 1.414 . S
C6130 C6131 1.374 . S
C6131 H6111 0.950 . S
C6131 C6127 1.385 . S
C6131 C6130 1.374 . S
C6132 C6129 1.499 . S
C6132 C6133 1.373 . S
C6132 C6134 1.389 . S
C6133 H6112 0.950 . S
C6133 C6132 1.373 . S
C6133 C6149 1.377 . S
C6134 C6132 1.389 . S
C6134 C6135 1.524 . S
C6134 C6148 1.377 . S
C6135 C6134 1.524 . S
C6135 C6136 1.397 . S
C6135 C6140 1.363 . S
C6136 H6113 0.950 . S
C6136 C6135 1.397 . S
C6136 C6137 1.334 . S
C6137 H6114 0.950 . S
C6137 C6136 1.334 . S
C6137 C6138 1.287 . S
C6138 C6137 1.287 . S
C6138 C6139 1.524 . S
C6138 H6157 0.913 . S
C6139 H6115 0.950 . S
C6139 C6138 1.524 . S
C6139 C6140 1.415 . S
C6140 H6116 0.950 . S
C6140 C6135 1.363 . S
C6140 C6139 1.415 . S
C6141 H6117 0.951 . S
C6141 C6142 1.366 . S
C6141 C6143 1.388 . S
C6142 C6141 1.366 . S
C6142 C6146 1.385 . S
C6143 H6118 0.951 . S
C6143 C6141 1.388 . S
C6143 C6144 1.366 . S
C6144 C6143 1.366 . S
C6144 C6145 1.414 . S
C6144 C6147 1.499 . S
C6145 H6119 0.950 . S
C6145 C6144 1.414 . S
C6145 C6146 1.374 . S
C6146 H6120 0.950 . S
C6146 C6142 1.385 . S
C6146 C6145 1.374 . S
C6147 C6144 1.499 . S
C6147 C6148 1.373 . S
C6147 C6149 1.389 . S
C6148 H6121 0.950 . S
C6148 C6134 1.377 . S
C6148 C6147 1.373 . S
C6149 C6133 1.377 . S
C6149 C6147 1.389 . S
C6149 C6150 1.524 . S
C6150 C6149 1.524 . S
C6150 C6151 1.397 . S
C6150 C6155 1.363 . S
C6151 H6122 0.950 . S
C6151 C6150 1.397 . S
C6151 C6152 1.334 . S
C6152 H6123 0.950 . S
C6152 C6151 1.334 . S
C6152 C6153 1.287 . S
C6153 C6152 1.287 . S
C6153 C6154 1.524 . S
C6153 H6156 0.999 . S
C6154 H6124 0.950 . S
C6154 C6153 1.524 . S
C6154 C6155 1.415 . S
C6155 H6125 0.950 . S
C6155 C6150 1.363 . S
C6155 C6154 1.415 . S
H6156 C6153 0.999 . S
H6157 C6138 0.913 . S
H6158 C6176 0.951 . S
H6159 C6178 0.951 . S
H6160 C6180 0.950 . S
H6161 C6181 0.950 . S
H6162 C6183 0.950 . S
H6163 C6186 0.950 . S
H6164 C6187 0.950 . S
H6165 C6189 0.950 . S
H6166 C6190 0.950 . S
H6167 C6191 0.951 . S
H6168 C6193 0.951 . S
H6169 C6195 0.950 . S
H6170 C6196 0.950 . S
H6171 C6198 0.950 . S
H6172 C6201 0.950 . S
H6173 C6202 0.950 . S
H6174 C6204 0.950 . S
H6175 C6205 0.950 . S
C6176 H6158 0.951 . S
C6176 C6177 1.366 . S
C6176 C6178 1.388 . S
C6177 C6176 1.366 . S
C6177 C6181 1.385 . S
C6178 H6159 0.951 . S
C6178 C6176 1.388 . S
C6178 C6179 1.366 . S
C6179 C6178 1.366 . S
C6179 C6180 1.414 . S
C6179 C6182 1.499 . S
C6180 H6160 0.950 . S
C6180 C6179 1.414 . S
C6180 C6181 1.374 . S
C6181 H6161 0.950 . S
C6181 C6177 1.385 . S
C6181 C6180 1.374 . S
C6182 C6179 1.499 . S
C6182 C6183 1.373 . S
C6182 C6184 1.389 . S
C6183 H6162 0.950 . S
C6183 C6182 1.373 . S
C6183 C6199 1.377 . S
C6184 C6182 1.389 . S
C6184 C6185 1.524 . S
C6184 C6198 1.377 . S
C6185 C6184 1.524 . S
C6185 C6186 1.397 . S
C6185 C6190 1.363 . S
C6186 H6163 0.950 . S
C6186 C6185 1.397 . S
C6186 C6187 1.334 . S
C6187 H6164 0.950 . S
C6187 C6186 1.334 . S
C6187 C6188 1.287 . S
C6188 C6187 1.287 . S
C6188 C6189 1.524 . S
C6188 H6207 0.913 . S
C6189 H6165 0.950 . S
C6189 C6188 1.524 . S
C6189 C6190 1.415 . S
C6190 H6166 0.950 . S
C6190 C6185 1.363 . S
C6190 C6189 1.415 . S
C6191 H6167 0.951 . S
C6191 C6192 1.366 . S
C6191 C6193 1.388 . S
C6192 C6191 1.366 . S
C6192 C6196 1.385 . S
C6193 H6168 0.951 . S
C6193 C6191 1.388 . S
C6193 C6194 1.366 . S
C6194 C6193 1.366 . S
C6194 C6195 1.414 . S
C6194 C6197 1.499 . S
C6195 H6169 0.950 . S
C6195 C6194 1.414 . S
C6195 C6196 1.374 . S
C6196 H6170 0.950 . S
C6196 C6192 1.385 . S
C6196 C6195 1.374 . S
C6197 C6194 1.499 . S
C6197 C6198 1.373 . S
C6197 C6199 1.389 . S
C6198 H6171 0.950 . S
C6198 C6184 1.377 . S
C6198 C6197 1.373 . S
C6199 C6183 1.377 . S
C6199 C6197 1.389 . S
C6199 C6200 1.524 . S
C6200 C6199 1.524 . S
C6200 C6201 1.397 . S
C6200 C6205 1.363 . S
C6201 H6172 0.950 . S
C6201 C6200 1.397 . S
C6201 C6202 1.334 . S
C6202 H6173 0.950 . S
C6202 C6201 1.334 . S
C6202 C6203 1.287 . S
C6203 C6202 1.287 . S
C6203 C6204 1.524 . S
C6203 H6206 0.999 . S
C6204 H6174 0.950 . S
C6204 C6203 1.524 . S
C6204 C6205 1.415 . S
C6205 H6175 0.950 . S
C6205 C6200 1.363 . S
C6205 C6204 1.415 . S
H6206 C6203 0.999 . S
H6207 C6188 0.913 . S
H6208 C6226 0.951 . S
H6209 C6228 0.951 . S
H6210 C6230 0.950 . S
H6211 C6231 0.950 . S
H6212 C6233 0.950 . S
H6213 C6236 0.950 . S
H6214 C6237 0.950 . S
H6215 C6239 0.950 . S
H6216 C6240 0.950 . S
H6217 C6241 0.951 . S
H6218 C6243 0.951 . S
H6219 C6245 0.950 . S
H6220 C6246 0.950 . S
H6221 C6248 0.950 . S
H6222 C6251 0.950 . S
H6223 C6252 0.950 . S
H6224 C6254 0.950 . S
H6225 C6255 0.950 . S
C6226 H6208 0.951 . S
C6226 C6227 1.366 . S
C6226 C6228 1.388 . S
C6227 C6226 1.366 . S
C6227 C6231 1.385 . S
C6228 H6209 0.951 . S
C6228 C6226 1.388 . S
C6228 C6229 1.366 . S
C6229 C6228 1.366 . S
C6229 C6230 1.414 . S
C6229 C6232 1.499 . S
C6230 H6210 0.950 . S
C6230 C6229 1.414 . S
C6230 C6231 1.374 . S
C6231 H6211 0.950 . S
C6231 C6227 1.385 . S
C6231 C6230 1.374 . S
C6232 C6229 1.499 . S
C6232 C6233 1.373 . S
C6232 C6234 1.389 . S
C6233 H6212 0.950 . S
C6233 C6232 1.373 . S
C6233 C6249 1.377 . S
C6234 C6232 1.389 . S
C6234 C6235 1.524 . S
C6234 C6248 1.377 . S
C6235 C6234 1.524 . S
C6235 C6236 1.397 . S
C6235 C6240 1.363 . S
C6236 H6213 0.950 . S
C6236 C6235 1.397 . S
C6236 C6237 1.334 . S
C6237 H6214 0.950 . S
C6237 C6236 1.334 . S
C6237 C6238 1.287 . S
C6238 C6237 1.287 . S
C6238 C6239 1.524 . S
C6238 H6257 0.913 . S
C6239 H6215 0.950 . S
C6239 C6238 1.524 . S
C6239 C6240 1.415 . S
C6240 H6216 0.950 . S
C6240 C6235 1.363 . S
C6240 C6239 1.415 . S
C6241 H6217 0.951 . S
C6241 C6242 1.366 . S
C6241 C6243 1.388 . S
C6242 C6241 1.366 . S
C6242 C6246 1.385 . S
C6243 H6218 0.951 . S
C6243 C6241 1.388 . S
C6243 C6244 1.366 . S
C6244 C6243 1.366 . S
C6244 C6245 1.414 . S
C6244 C6247 1.499 . S
C6245 H6219 0.950 . S
C6245 C6244 1.414 . S
C6245 C6246 1.374 . S
C6246 H6220 0.950 . S
C6246 C6242 1.385 . S
C6246 C6245 1.374 . S
C6247 C6244 1.499 . S
C6247 C6248 1.373 . S
C6247 C6249 1.389 . S
C6248 H6221 0.950 . S
C6248 C6234 1.377 . S
C6248 C6247 1.373 . S
C6249 C6233 1.377 . S
C6249 C6247 1.389 . S
C6249 C6250 1.524 . S
C6250 C6249 1.524 . S
C6250 C6251 1.397 . S
C6250 C6255 1.363 . S
C6251 H6222 0.950 . S
C6251 C6250 1.397 . S
C6251 C6252 1.334 . S
C6252 H6223 0.950 . S
C6252 C6251 1.334 . S
C6252 C6253 1.287 . S
C6253 C6252 1.287 . S
C6253 C6254 1.524 . S
C6253 H6256 0.999 . S
C6254 H6224 0.950 . S
C6254 C6253 1.524 . S
C6254 C6255 1.415 . S
C6255 H6225 0.950 . S
C6255 C6250 1.363 . S
C6255 C6254 1.415 . S
H6256 C6253 0.999 . S
H6257 C6238 0.913 . S
H6258 C6276 0.951 . S
H6259 C6278 0.951 . S
H6260 C6280 0.950 . S
H6261 C6281 0.950 . S
H6262 C6283 0.950 . S
H6263 C6286 0.950 . S
H6264 C6287 0.950 . S
H6265 C6289 0.950 . S
H6266 C6290 0.950 . S
H6267 C6291 0.951 . S
H6268 C6293 0.951 . S
H6269 C6295 0.950 . S
H6270 C6296 0.950 . S
H6271 C6298 0.950 . S
H6272 C6301 0.950 . S
H6273 C6302 0.950 . S
H6274 C6304 0.950 . S
H6275 C6305 0.950 . S
C6276 H6258 0.951 . S
C6276 C6277 1.366 . S
C6276 C6278 1.388 . S
C6277 C6276 1.366 . S
C6277 C6281 1.385 . S
C6278 H6259 0.951 . S
C6278 C6276 1.388 . S
C6278 C6279 1.366 . S
C6279 C6278 1.366 . S
C6279 C6280 1.414 . S
C6279 C6282 1.499 . S
C6280 H6260 0.950 . S
C6280 C6279 1.414 . S
C6280 C6281 1.374 . S
C6281 H6261 0.950 . S
C6281 C6277 1.385 . S
C6281 C6280 1.374 . S
C6282 C6279 1.499 . S
C6282 C6283 1.373 . S
C6282 C6284 1.389 . S
C6283 H6262 0.950 . S
C6283 C6282 1.373 . S
C6283 C6299 1.377 . S
C6284 C6282 1.389 . S
C6284 C6285 1.524 . S
C6284 C6298 1.377 . S
C6285 C6284 1.524 . S
C6285 C6286 1.397 . S
C6285 C6290 1.363 . S
C6286 H6263 0.950 . S
C6286 C6285 1.397 . S
C6286 C6287 1.334 . S
C6287 H6264 0.950 . S
C6287 C6286 1.334 . S
C6287 C6288 1.287 . S
C6288 C6287 1.287 . S
C6288 C6289 1.524 . S
C6288 H6307 0.913 . S
C6289 H6265 0.950 . S
C6289 C6288 1.524 . S
C6289 C6290 1.415 . S
C6290 H6266 0.950 . S
C6290 C6285 1.363 . S
C6290 C6289 1.415 . S
C6291 H6267 0.951 . S
C6291 C6292 1.366 . S
C6291 C6293 1.388 . S
C6292 C6291 1.366 . S
C6292 C6296 1.385 . S
C6293 H6268 0.951 . S
C6293 C6291 1.388 . S
C6293 C6294 1.366 . S
C6294 C6293 1.366 . S
C6294 C6295 1.414 . S
C6294 C6297 1.499 . S
C6295 H6269 0.950 . S
C6295 C6294 1.414 . S
C6295 C6296 1.374 . S
C6296 H6270 0.950 . S
C6296 C6292 1.385 . S
C6296 C6295 1.374 . S
C6297 C6294 1.499 . S
C6297 C6298 1.373 . S
C6297 C6299 1.389 . S
C6298 H6271 0.950 . S
C6298 C6284 1.377 . S
C6298 C6297 1.373 . S
C6299 C6283 1.377 . S
C6299 C6297 1.389 . S
C6299 C6300 1.524 . S
C6300 C6299 1.524 . S
C6300 C6301 1.397 . S
C6300 C6305 1.363 . S
C6301 H6272 0.950 . S
C6301 C6300 1.397 . S
C6301 C6302 1.334 . S
C6302 H6273 0.950 . S
C6302 C6301 1.334 . S
C6302 C6303 1.287 . S
C6303 C6302 1.287 . S
C6303 C6304 1.524 . S
C6303 H6306 0.999 . S
C6304 H6274 0.950 . S
C6304 C6303 1.524 . S
C6304 C6305 1.415 . S
C6305 H6275 0.950 . S
C6305 C6300 1.363 . S
C6305 C6304 1.415 . S
H6306 C6303 0.999 . S
H6307 C6288 0.913 . S
H6308 C6326 0.951 . S
H6309 C6328 0.951 . S
H6310 C6330 0.950 . S
H6311 C6331 0.950 . S
H6312 C6333 0.950 . S
H6313 C6336 0.950 . S
H6314 C6337 0.950 . S
H6315 C6339 0.950 . S
H6316 C6340 0.950 . S
H6317 C6341 0.951 . S
H6318 C6343 0.951 . S
H6319 C6345 0.979 . S
H6320 C6346 0.950 . S
H6321 C6348 0.950 . S
H6322 C6351 0.950 1_655 S
H6323 C6352 0.950 . S
H6324 C6354 0.950 . S
H6325 C6355 0.950 . S
C6326 H6308 0.951 . S
C6326 C6327 1.366 . S
C6326 C6328 1.388 . S
C6327 C6326 1.366 . S
C6327 C6331 1.385 . S
C6328 H6309 0.951 . S
C6328 C6326 1.388 . S
C6328 C6329 1.366 . S
C6329 C6328 1.366 . S
C6329 C6330 1.414 . S
C6329 C6332 1.499 . S
C6330 H6310 0.950 . S
C6330 C6329 1.414 . S
C6330 C6331 1.374 . S
C6331 H6311 0.950 . S
C6331 C6327 1.385 . S
C6331 C6330 1.374 . S
C6332 C6329 1.499 . S
C6332 C6333 1.373 . S
C6332 C6334 1.389 . S
C6333 H6312 0.950 . S
C6333 C6332 1.373 . S
C6333 C6349 1.377 . S
C6334 C6332 1.389 . S
C6334 C6335 1.524 . S
C6334 C6348 1.377 . S
C6335 C6334 1.524 . S
C6335 C6336 1.397 . S
C6335 C6340 1.363 . S
C6336 H6313 0.950 . S
C6336 C6335 1.397 . S
C6336 C6337 1.334 . S
C6337 H6314 0.950 . S
C6337 C6336 1.334 . S
C6337 C6338 1.287 . S
C6338 C6337 1.287 . S
C6338 C6339 1.524 . S
C6338 H6357 0.913 . S
C6339 H6315 0.950 . S
C6339 C6338 1.524 . S
C6339 C6340 1.415 . S
C6340 H6316 0.950 . S
C6340 C6335 1.363 . S
C6340 C6339 1.415 . S
C6341 H6317 0.951 . S
C6341 C6342 1.366 . S
C6341 C6343 1.388 . S
C6342 C6341 1.366 . S
C6342 C6346 1.385 . S
C6343 H6318 0.951 . S
C6343 C6341 1.388 . S
C6343 C6344 1.366 . S
C6344 C6343 1.366 . S
C6344 C6345 1.402 1_455 S
C6344 C6347 1.499 1_455 S
C6345 H6319 0.979 . S
C6345 C6344 1.402 1_655 S
C6345 C6346 1.357 1_655 S
C6346 H6320 0.950 . S
C6346 C6342 1.385 . S
C6346 C6345 1.357 1_455 S
C6347 C6344 1.499 1_655 S
C6347 C6348 1.373 . S
C6347 C6349 1.389 . S
C6348 H6321 0.950 . S
C6348 C6334 1.377 . S
C6348 C6347 1.373 . S
C6349 C6333 1.377 . S
C6349 C6347 1.389 . S
C6349 C6350 1.524 1_655 S
C6350 C6349 1.524 1_455 S
C6350 C6351 1.397 . S
C6350 C6355 1.363 . S
C6351 H6322 0.950 1_455 S
C6351 C6350 1.397 . S
C6351 C6352 1.334 . S
C6352 H6323 0.950 . S
C6352 C6351 1.334 . S
C6352 C6353 1.287 . S
C6353 C6352 1.287 . S
C6353 C6354 1.524 . S
C6353 H6356 0.999 . S
C6354 H6324 0.950 . S
C6354 C6353 1.524 . S
C6354 C6355 1.415 . S
C6355 H6325 0.950 . S
C6355 C6350 1.363 . S
C6355 C6354 1.415 . S
H6356 C6353 0.999 . S
H6357 C6338 0.913 . S
H6358 C6376 0.951 . S
H6359 C6378 0.951 . S
H6360 C6380 0.950 . S
H6361 C6381 0.950 . S
H6362 C6383 0.950 . S
H6363 C6386 0.950 . S
H6364 C6387 0.950 . S
H6365 C6389 0.950 . S
H6366 C6390 0.950 . S
H6367 C6391 0.951 . S
H6368 C6393 0.951 . S
H6369 C6395 0.950 . S
H6370 C6396 0.950 . S
H6371 C6398 0.950 . S
H6372 C6401 0.950 . S
H6373 C6402 0.950 . S
H6374 C6404 0.950 . S
H6375 C6405 0.950 . S
C6376 H6358 0.951 . S
C6376 C6377 1.366 . S
C6376 C6378 1.388 . S
C6377 C6376 1.366 . S
C6377 C6381 1.385 . S
C6378 H6359 0.951 . S
C6378 C6376 1.388 . S
C6378 C6379 1.366 . S
C6379 C6378 1.366 . S
C6379 C6380 1.414 . S
C6379 C6382 1.499 . S
C6380 H6360 0.950 . S
C6380 C6379 1.414 . S
C6380 C6381 1.374 . S
C6381 H6361 0.950 . S
C6381 C6377 1.385 . S
C6381 C6380 1.374 . S
C6382 C6379 1.499 . S
C6382 C6383 1.373 . S
C6382 C6384 1.389 . S
C6383 H6362 0.950 . S
C6383 C6382 1.373 . S
C6383 C6399 1.377 . S
C6384 C6382 1.389 . S
C6384 C6385 1.524 . S
C6384 C6398 1.377 . S
C6385 C6384 1.524 . S
C6385 C6386 1.397 . S
C6385 C6390 1.363 . S
C6386 H6363 0.950 . S
C6386 C6385 1.397 . S
C6386 C6387 1.334 . S
C6387 H6364 0.950 . S
C6387 C6386 1.334 . S
C6387 C6388 1.287 . S
C6388 C6387 1.287 . S
C6388 C6389 1.524 . S
C6388 H6407 0.913 . S
C6389 H6365 0.950 . S
C6389 C6388 1.524 . S
C6389 C6390 1.415 . S
C6390 H6366 0.950 . S
C6390 C6385 1.363 . S
C6390 C6389 1.415 . S
C6391 H6367 0.951 . S
C6391 C6392 1.366 . S
C6391 C6393 1.388 . S
C6392 C6391 1.366 . S
C6392 C6396 1.385 . S
C6393 H6368 0.951 . S
C6393 C6391 1.388 . S
C6393 C6394 1.366 . S
C6394 C6393 1.366 . S
C6394 C6395 1.414 . S
C6394 C6397 1.499 . S
C6395 H6369 0.950 . S
C6395 C6394 1.414 . S
C6395 C6396 1.374 . S
C6396 H6370 0.950 . S
C6396 C6392 1.385 . S
C6396 C6395 1.374 . S
C6397 C6394 1.499 . S
C6397 C6398 1.373 . S
C6397 C6399 1.389 . S
C6398 H6371 0.950 . S
C6398 C6384 1.377 . S
C6398 C6397 1.373 . S
C6399 C6383 1.377 . S
C6399 C6397 1.389 . S
C6399 C6400 1.524 . S
C6400 C6399 1.524 . S
C6400 C6401 1.397 . S
C6400 C6405 1.363 . S
C6401 H6372 0.950 . S
C6401 C6400 1.397 . S
C6401 C6402 1.334 . S
C6402 H6373 0.950 . S
C6402 C6401 1.334 . S
C6402 C6403 1.287 . S
C6403 C6402 1.287 . S
C6403 C6404 1.524 . S
C6403 H6406 0.999 . S
C6404 H6374 0.950 . S
C6404 C6403 1.524 . S
C6404 C6405 1.415 . S
C6405 H6375 0.950 . S
C6405 C6400 1.363 . S
C6405 C6404 1.415 . S
H6406 C6403 0.999 . S
H6407 C6388 0.913 . S
H6408 C6426 0.951 . S
H6409 C6428 0.951 . S
H6410 C6430 0.950 . S
H6411 C6431 0.950 . S
H6412 C6433 0.950 . S
H6413 C6436 0.950 . S
H6414 C6437 0.950 . S
H6415 C6439 0.950 . S
H6416 C6440 0.950 . S
H6417 C6441 0.951 . S
H6418 C6443 0.951 . S
H6419 C6445 0.950 . S
H6420 C6446 0.950 . S
H6421 C6448 0.950 . S
H6422 C6451 0.950 . S
H6423 C6452 0.950 . S
H6424 C6454 0.950 . S
H6425 C6455 0.950 . S
C6426 H6408 0.951 . S
C6426 C6427 1.366 . S
C6426 C6428 1.388 . S
C6427 C6426 1.366 . S
C6427 C6431 1.385 . S
C6428 H6409 0.951 . S
C6428 C6426 1.388 . S
C6428 C6429 1.366 . S
C6429 C6428 1.366 . S
C6429 C6430 1.414 . S
C6429 C6432 1.499 . S
C6430 H6410 0.950 . S
C6430 C6429 1.414 . S
C6430 C6431 1.374 . S
C6431 H6411 0.950 . S
C6431 C6427 1.385 . S
C6431 C6430 1.374 . S
C6432 C6429 1.499 . S
C6432 C6433 1.373 . S
C6432 C6434 1.389 . S
C6433 H6412 0.950 . S
C6433 C6432 1.373 . S
C6433 C6449 1.377 . S
C6434 C6432 1.389 . S
C6434 C6435 1.524 . S
C6434 C6448 1.377 . S
C6435 C6434 1.524 . S
C6435 C6436 1.397 . S
C6435 C6440 1.363 . S
C6436 H6413 0.950 . S
C6436 C6435 1.397 . S
C6436 C6437 1.334 . S
C6437 H6414 0.950 . S
C6437 C6436 1.334 . S
C6437 C6438 1.287 . S
C6438 C6437 1.287 . S
C6438 C6439 1.524 . S
C6438 H6457 0.913 . S
C6439 H6415 0.950 . S
C6439 C6438 1.524 . S
C6439 C6440 1.415 . S
C6440 H6416 0.950 . S
C6440 C6435 1.363 . S
C6440 C6439 1.415 . S
C6441 H6417 0.951 . S
C6441 C6442 1.366 . S
C6441 C6443 1.388 . S
C6442 C6441 1.366 . S
C6442 C6446 1.385 . S
C6443 H6418 0.951 . S
C6443 C6441 1.388 . S
C6443 C6444 1.366 . S
C6444 C6443 1.366 . S
C6444 C6445 1.414 . S
C6444 C6447 1.499 . S
C6445 H6419 0.950 . S
C6445 C6444 1.414 . S
C6445 C6446 1.374 . S
C6446 H6420 0.950 . S
C6446 C6442 1.385 . S
C6446 C6445 1.374 . S
C6447 C6444 1.499 . S
C6447 C6448 1.373 . S
C6447 C6449 1.389 . S
C6448 H6421 0.950 . S
C6448 C6434 1.377 . S
C6448 C6447 1.373 . S
C6449 C6433 1.377 . S
C6449 C6447 1.389 . S
C6449 C6450 1.524 . S
C6450 C6449 1.524 . S
C6450 C6451 1.397 . S
C6450 C6455 1.363 . S
C6451 H6422 0.950 . S
C6451 C6450 1.397 . S
C6451 C6452 1.334 . S
C6452 H6423 0.950 . S
C6452 C6451 1.334 . S
C6452 C6453 1.287 . S
C6453 C6452 1.287 . S
C6453 C6454 1.524 . S
C6453 H6456 0.999 . S
C6454 H6424 0.950 . S
C6454 C6453 1.524 . S
C6454 C6455 1.415 . S
C6455 H6425 0.950 . S
C6455 C6450 1.363 . S
C6455 C6454 1.415 . S
H6456 C6453 0.999 . S
H6457 C6438 0.913 . S
H6458 C6476 0.951 . S
H6459 C6478 0.951 . S
H6460 C6480 0.950 . S
H6461 C6481 0.950 . S
H6462 C6483 0.950 . S
H6463 C6486 0.950 . S
H6464 C6487 0.950 . S
H6465 C6489 0.950 . S
H6466 C6490 0.950 . S
H6467 C6491 0.951 . S
H6468 C6493 0.951 . S
H6469 C6495 0.950 . S
H6470 C6496 0.950 . S
H6471 C6498 0.950 . S
H6472 C6501 0.950 . S
H6473 C6502 0.950 . S
H6474 C6504 0.950 . S
H6475 C6505 0.950 . S
C6476 H6458 0.951 . S
C6476 C6477 1.366 . S
C6476 C6478 1.388 . S
C6477 C6476 1.366 . S
C6477 C6481 1.385 . S
C6478 H6459 0.951 . S
C6478 C6476 1.388 . S
C6478 C6479 1.366 . S
C6479 C6478 1.366 . S
C6479 C6480 1.414 . S
C6479 C6482 1.499 . S
C6480 H6460 0.950 . S
C6480 C6479 1.414 . S
C6480 C6481 1.374 . S
C6481 H6461 0.950 . S
C6481 C6477 1.385 . S
C6481 C6480 1.374 . S
C6482 C6479 1.499 . S
C6482 C6483 1.373 . S
C6482 C6484 1.389 . S
C6483 H6462 0.950 . S
C6483 C6482 1.373 . S
C6483 C6499 1.377 . S
C6484 C6482 1.389 . S
C6484 C6485 1.524 . S
C6484 C6498 1.377 . S
C6485 C6484 1.524 . S
C6485 C6486 1.397 . S
C6485 C6490 1.363 . S
C6486 H6463 0.950 . S
C6486 C6485 1.397 . S
C6486 C6487 1.334 . S
C6487 H6464 0.950 . S
C6487 C6486 1.334 . S
C6487 C6488 1.287 . S
C6488 C6487 1.287 . S
C6488 C6489 1.524 . S
C6488 H6507 0.913 . S
C6489 H6465 0.950 . S
C6489 C6488 1.524 . S
C6489 C6490 1.415 . S
C6490 H6466 0.950 . S
C6490 C6485 1.363 . S
C6490 C6489 1.415 . S
C6491 H6467 0.951 . S
C6491 C6492 1.366 . S
C6491 C6493 1.388 . S
C6492 C6491 1.366 . S
C6492 C6496 1.385 . S
C6493 H6468 0.951 . S
C6493 C6491 1.388 . S
C6493 C6494 1.366 . S
C6494 C6493 1.366 . S
C6494 C6495 1.414 . S
C6494 C6497 1.499 . S
C6495 H6469 0.950 . S
C6495 C6494 1.414 . S
C6495 C6496 1.374 . S
C6496 H6470 0.950 . S
C6496 C6492 1.385 . S
C6496 C6495 1.374 . S
C6497 C6494 1.499 . S
C6497 C6498 1.373 . S
C6497 C6499 1.389 . S
C6498 H6471 0.950 . S
C6498 C6484 1.377 . S
C6498 C6497 1.373 . S
C6499 C6483 1.377 . S
C6499 C6497 1.389 . S
C6499 C6500 1.524 . S
C6500 C6499 1.524 . S
C6500 C6501 1.397 . S
C6500 C6505 1.363 . S
C6501 H6472 0.950 . S
C6501 C6500 1.397 . S
C6501 C6502 1.334 . S
C6502 H6473 0.950 . S
C6502 C6501 1.334 . S
C6502 C6503 1.287 . S
C6503 C6502 1.287 . S
C6503 C6504 1.524 . S
C6503 H6506 0.999 . S
C6504 H6474 0.950 . S
C6504 C6503 1.524 . S
C6504 C6505 1.415 . S
C6505 H6475 0.950 . S
C6505 C6500 1.363 . S
C6505 C6504 1.415 . S
H6506 C6503 0.999 . S
H6507 C6488 0.913 . S
H6508 C6526 0.951 . S
H6509 C6528 0.951 . S
H6510 C6530 0.950 . S
H6511 C6531 0.950 . S
H6512 C6533 0.950 . S
H6513 C6536 0.950 . S
H6514 C6537 0.950 . S
H6515 C6539 0.950 . S
H6516 C6540 0.950 . S
H6517 C6541 0.951 . S
H6518 C6543 0.951 . S
H6519 C6545 0.950 . S
H6520 C6546 0.950 . S
H6521 C6548 0.950 . S
H6522 C6551 0.950 . S
H6523 C6552 0.950 . S
H6524 C6554 0.950 . S
H6525 C6555 0.950 . S
C6526 H6508 0.951 . S
C6526 C6527 1.366 . S
C6526 C6528 1.388 . S
C6527 C6526 1.366 . S
C6527 C6531 1.385 . S
C6528 H6509 0.951 . S
C6528 C6526 1.388 . S
C6528 C6529 1.366 . S
C6529 C6528 1.366 . S
C6529 C6530 1.414 . S
C6529 C6532 1.499 . S
C6530 H6510 0.950 . S
C6530 C6529 1.414 . S
C6530 C6531 1.374 . S
C6531 H6511 0.950 . S
C6531 C6527 1.385 . S
C6531 C6530 1.374 . S
C6532 C6529 1.499 . S
C6532 C6533 1.373 . S
C6532 C6534 1.389 . S
C6533 H6512 0.950 . S
C6533 C6532 1.373 . S
C6533 C6549 1.377 . S
C6534 C6532 1.389 . S
C6534 C6535 1.524 . S
C6534 C6548 1.377 . S
C6535 C6534 1.524 . S
C6535 C6536 1.397 . S
C6535 C6540 1.363 . S
C6536 H6513 0.950 . S
C6536 C6535 1.397 . S
C6536 C6537 1.334 . S
C6537 H6514 0.950 . S
C6537 C6536 1.334 . S
C6537 C6538 1.287 . S
C6538 C6537 1.287 . S
C6538 C6539 1.524 . S
C6538 H6557 0.913 . S
C6539 H6515 0.950 . S
C6539 C6538 1.524 . S
C6539 C6540 1.415 . S
C6540 H6516 0.950 . S
C6540 C6535 1.363 . S
C6540 C6539 1.415 . S
C6541 H6517 0.951 . S
C6541 C6542 1.366 . S
C6541 C6543 1.388 . S
C6542 C6541 1.366 . S
C6542 C6546 1.385 1_455 S
C6543 H6518 0.951 . S
C6543 C6541 1.388 . S
C6543 C6544 1.366 1_455 S
C6544 C6543 1.366 1_655 S
C6544 C6545 1.414 . S
C6544 C6547 1.499 . S
C6545 H6519 0.950 . S
C6545 C6544 1.414 . S
C6545 C6546 1.374 . S
C6546 H6520 0.950 . S
C6546 C6542 1.385 1_655 S
C6546 C6545 1.374 . S
C6547 C6544 1.499 . S
C6547 C6548 1.373 . S
C6547 C6549 1.389 . S
C6548 H6521 0.950 . S
C6548 C6534 1.377 . S
C6548 C6547 1.373 . S
C6549 C6533 1.377 . S
C6549 C6547 1.389 . S
C6549 C6550 1.524 1_655 S
C6550 C6549 1.524 1_455 S
C6550 C6551 1.397 . S
C6550 C6555 1.363 . S
C6551 H6522 0.950 . S
C6551 C6550 1.397 . S
C6551 C6552 1.334 . S
C6552 H6523 0.950 . S
C6552 C6551 1.334 . S
C6552 C6553 1.287 . S
C6553 C6552 1.287 . S
C6553 C6554 1.524 . S
C6553 H6556 0.999 . S
C6554 H6524 0.950 . S
C6554 C6553 1.524 . S
C6554 C6555 1.415 . S
C6555 H6525 0.950 . S
C6555 C6550 1.363 . S
C6555 C6554 1.415 . S
H6556 C6553 0.999 . S
H6557 C6538 0.913 . S
H6558 C6576 0.951 . S
H6559 C6578 0.951 . S
H6560 C6580 0.950 . S
H6561 C6581 0.950 . S
H6562 C6583 0.950 . S
H6563 C6586 0.950 . S
H6564 C6587 0.950 . S
H6565 C6589 0.950 . S
H6566 C6590 0.950 . S
H6567 C6591 0.951 . S
H6568 C6593 0.951 . S
H6569 C6595 0.950 . S
H6570 C6596 0.950 . S
H6571 C6598 0.950 . S
H6572 C6601 0.950 . S
H6573 C6602 0.950 . S
H6574 C6604 0.950 . S
H6575 C6605 0.950 . S
C6576 H6558 0.951 . S
C6576 C6577 1.366 . S
C6576 C6578 1.388 . S
C6577 C6576 1.366 . S
C6577 C6581 1.385 . S
C6578 H6559 0.951 . S
C6578 C6576 1.388 . S
C6578 C6579 1.366 . S
C6579 C6578 1.366 . S
C6579 C6580 1.414 . S
C6579 C6582 1.499 . S
C6580 H6560 0.950 . S
C6580 C6579 1.414 . S
C6580 C6581 1.374 . S
C6581 H6561 0.950 . S
C6581 C6577 1.385 . S
C6581 C6580 1.374 . S
C6582 C6579 1.499 . S
C6582 C6583 1.373 . S
C6582 C6584 1.389 . S
C6583 H6562 0.950 . S
C6583 C6582 1.373 . S
C6583 C6599 1.377 . S
C6584 C6582 1.389 . S
C6584 C6585 1.524 . S
C6584 C6598 1.377 . S
C6585 C6584 1.524 . S
C6585 C6586 1.397 . S
C6585 C6590 1.363 . S
C6586 H6563 0.950 . S
C6586 C6585 1.397 . S
C6586 C6587 1.334 . S
C6587 H6564 0.950 . S
C6587 C6586 1.334 . S
C6587 C6588 1.287 . S
C6588 C6587 1.287 . S
C6588 C6589 1.524 . S
C6588 H6607 0.913 . S
C6589 H6565 0.950 . S
C6589 C6588 1.524 . S
C6589 C6590 1.415 . S
C6590 H6566 0.950 . S
C6590 C6585 1.363 . S
C6590 C6589 1.415 . S
C6591 H6567 0.951 . S
C6591 C6592 1.366 . S
C6591 C6593 1.388 . S
C6592 C6591 1.366 . S
C6592 C6596 1.385 . S
C6593 H6568 0.951 . S
C6593 C6591 1.388 . S
C6593 C6594 1.366 . S
C6594 C6593 1.366 . S
C6594 C6595 1.414 . S
C6594 C6597 1.499 . S
C6595 H6569 0.950 . S
C6595 C6594 1.414 . S
C6595 C6596 1.374 . S
C6596 H6570 0.950 . S
C6596 C6592 1.385 . S
C6596 C6595 1.374 . S
C6597 C6594 1.499 . S
C6597 C6598 1.373 . S
C6597 C6599 1.389 . S
C6598 H6571 0.950 . S
C6598 C6584 1.377 . S
C6598 C6597 1.373 . S
C6599 C6583 1.377 . S
C6599 C6597 1.389 . S
C6599 C6600 1.524 . S
C6600 C6599 1.524 . S
C6600 C6601 1.397 . S
C6600 C6605 1.363 . S
C6601 H6572 0.950 . S
C6601 C6600 1.397 . S
C6601 C6602 1.334 . S
C6602 H6573 0.950 . S
C6602 C6601 1.334 . S
C6602 C6603 1.287 . S
C6603 C6602 1.287 . S
C6603 C6604 1.524 . S
C6603 H6606 0.999 . S
C6604 H6574 0.950 . S
C6604 C6603 1.524 . S
C6604 C6605 1.415 . S
C6605 H6575 0.950 . S
C6605 C6600 1.363 . S
C6605 C6604 1.415 . S
H6606 C6603 0.999 . S
H6607 C6588 0.913 . S
H6608 C6626 0.951 . S
H6609 C6628 0.951 . S
H6610 C6630 0.950 . S
H6611 C6631 0.950 . S
H6612 C6633 0.950 . S
H6613 C6636 0.950 . S
H6614 C6637 0.950 . S
H6615 C6639 0.950 . S
H6616 C6640 0.950 . S
H6617 C6641 0.951 . S
H6618 C6643 0.951 . S
H6619 C6645 0.950 . S
H6620 C6646 0.950 . S
H6621 C6648 0.950 . S
H6622 C6651 0.950 . S
H6623 C6652 0.950 . S
H6624 C6654 0.950 . S
H6625 C6655 0.950 . S
C6626 H6608 0.951 . S
C6626 C6627 1.366 . S
C6626 C6628 1.388 . S
C6627 C6626 1.366 . S
C6627 C6631 1.385 . S
C6628 H6609 0.951 . S
C6628 C6626 1.388 . S
C6628 C6629 1.366 . S
C6629 C6628 1.366 . S
C6629 C6630 1.414 . S
C6629 C6632 1.499 . S
C6630 H6610 0.950 . S
C6630 C6629 1.414 . S
C6630 C6631 1.374 . S
C6631 H6611 0.950 . S
C6631 C6627 1.385 . S
C6631 C6630 1.374 . S
C6632 C6629 1.499 . S
C6632 C6633 1.373 . S
C6632 C6634 1.389 . S
C6633 H6612 0.950 . S
C6633 C6632 1.373 . S
C6633 C6649 1.377 . S
C6634 C6632 1.389 . S
C6634 C6635 1.524 . S
C6634 C6648 1.377 . S
C6635 C6634 1.524 . S
C6635 C6636 1.397 . S
C6635 C6640 1.363 . S
C6636 H6613 0.950 . S
C6636 C6635 1.397 . S
C6636 C6637 1.334 . S
C6637 H6614 0.950 . S
C6637 C6636 1.334 . S
C6637 C6638 1.287 . S
C6638 C6637 1.287 . S
C6638 C6639 1.524 . S
C6638 H6657 0.913 . S
C6639 H6615 0.950 . S
C6639 C6638 1.524 . S
C6639 C6640 1.415 . S
C6640 H6616 0.950 . S
C6640 C6635 1.363 . S
C6640 C6639 1.415 . S
C6641 H6617 0.951 . S
C6641 C6642 1.366 . S
C6641 C6643 1.388 . S
C6642 C6641 1.366 . S
C6642 C6646 1.385 . S
C6643 H6618 0.951 . S
C6643 C6641 1.388 . S
C6643 C6644 1.366 . S
C6644 C6643 1.366 . S
C6644 C6645 1.414 . S
C6644 C6647 1.499 . S
C6645 H6619 0.950 . S
C6645 C6644 1.414 . S
C6645 C6646 1.374 . S
C6646 H6620 0.950 . S
C6646 C6642 1.385 . S
C6646 C6645 1.374 . S
C6647 C6644 1.499 . S
C6647 C6648 1.373 . S
C6647 C6649 1.389 . S
C6648 H6621 0.950 . S
C6648 C6634 1.377 . S
C6648 C6647 1.373 . S
C6649 C6633 1.377 . S
C6649 C6647 1.389 . S
C6649 C6650 1.524 . S
C6650 C6649 1.524 . S
C6650 C6651 1.397 . S
C6650 C6655 1.363 . S
C6651 H6622 0.950 . S
C6651 C6650 1.397 . S
C6651 C6652 1.334 . S
C6652 H6623 0.950 . S
C6652 C6651 1.334 . S
C6652 C6653 1.287 . S
C6653 C6652 1.287 . S
C6653 C6654 1.524 . S
C6653 H6656 0.999 . S
C6654 H6624 0.950 . S
C6654 C6653 1.524 . S
C6654 C6655 1.415 . S
C6655 H6625 0.950 . S
C6655 C6650 1.363 . S
C6655 C6654 1.415 . S
H6656 C6653 0.999 . S
H6657 C6638 0.913 . S
H6658 C6676 0.951 . S
H6659 C6678 0.951 . S
H6660 C6680 0.950 . S
H6661 C6681 0.950 . S
H6662 C6683 0.950 . S
H6663 C6686 0.950 . S
H6664 C6687 0.950 . S
H6665 C6689 0.950 . S
H6666 C6690 0.950 . S
H6667 C6691 0.951 . S
H6668 C6693 0.951 1_545 S
H6669 C6695 0.950 . S
H6670 C6696 0.950 . S
H6671 C6698 0.950 . S
H6672 C6701 0.950 . S
H6673 C6702 0.950 . S
H6674 C6704 0.950 . S
H6675 C6705 0.950 . S
C6676 H6658 0.951 . S
C6676 C6677 1.366 . S
C6676 C6678 1.388 . S
C6677 C6676 1.366 . S
C6677 C6681 1.385 . S
C6678 H6659 0.951 . S
C6678 C6676 1.388 . S
C6678 C6679 1.366 . S
C6679 C6678 1.366 . S
C6679 C6680 1.414 . S
C6679 C6682 1.499 . S
C6680 H6660 0.950 . S
C6680 C6679 1.414 . S
C6680 C6681 1.374 . S
C6681 H6661 0.950 . S
C6681 C6677 1.385 . S
C6681 C6680 1.374 . S
C6682 C6679 1.499 . S
C6682 C6683 1.373 . S
C6682 C6684 1.389 . S
C6683 H6662 0.950 . S
C6683 C6682 1.373 . S
C6683 C6699 1.377 . S
C6684 C6682 1.389 . S
C6684 C6685 1.524 . S
C6684 C6698 1.377 . S
C6685 C6684 1.524 . S
C6685 C6686 1.397 . S
C6685 C6690 1.363 . S
C6686 H6663 0.950 . S
C6686 C6685 1.397 . S
C6686 C6687 1.334 . S
C6687 H6664 0.950 . S
C6687 C6686 1.334 . S
C6687 C6688 1.287 . S
C6688 C6687 1.287 . S
C6688 C6689 1.524 . S
C6688 H6707 0.913 . S
C6689 H6665 0.950 . S
C6689 C6688 1.524 . S
C6689 C6690 1.415 . S
C6690 H6666 0.950 . S
C6690 C6685 1.363 . S
C6690 C6689 1.415 . S
C6691 H6667 0.951 . S
C6691 C6692 1.366 . S
C6691 C6693 1.388 1_545 S
C6692 C6691 1.366 . S
C6692 C6696 1.385 1_545 S
C6693 H6668 0.951 1_565 S
C6693 C6691 1.388 1_565 S
C6693 C6694 1.366 . S
C6694 C6693 1.366 . S
C6694 C6695 1.414 . S
C6694 C6697 1.499 . S
C6695 H6669 0.950 . S
C6695 C6694 1.414 . S
C6695 C6696 1.374 . S
C6696 H6670 0.950 . S
C6696 C6692 1.385 1_565 S
C6696 C6695 1.374 . S
C6697 C6694 1.499 . S
C6697 C6698 1.373 . S
C6697 C6699 1.389 . S
C6698 H6671 0.950 . S
C6698 C6684 1.377 . S
C6698 C6697 1.373 . S
C6699 C6683 1.377 . S
C6699 C6697 1.389 . S
C6699 C6700 1.509 1_565 S
C6700 C6699 1.509 1_545 S
C6700 C6701 1.405 . S
C6700 C6705 1.370 . S
C6701 H6672 0.950 . S
C6701 C6700 1.405 . S
C6701 C6702 1.334 . S
C6702 H6673 0.950 . S
C6702 C6701 1.334 . S
C6702 C6703 1.287 . S
C6703 C6702 1.287 . S
C6703 C6704 1.524 . S
C6703 H6706 0.999 . S
C6704 H6674 0.950 . S
C6704 C6703 1.524 . S
C6704 C6705 1.415 . S
C6705 H6675 0.950 . S
C6705 C6700 1.370 . S
C6705 C6704 1.415 . S
H6706 C6703 0.999 . S
H6707 C6688 0.913 . S
H6708 C6726 0.951 . S
H6709 C6728 0.951 . S
H6710 C6730 0.950 . S
H6711 C6731 0.950 . S
H6712 C6733 0.950 . S
H6713 C6736 0.950 . S
H6714 C6737 0.950 . S
H6715 C6739 0.950 . S
H6716 C6740 0.950 . S
H6717 C6741 0.951 . S
H6718 C6743 0.951 . S
H6719 C6745 0.950 . S
H6720 C6746 0.950 . S
H6721 C6748 0.950 . S
H6722 C6751 0.950 . S
H6723 C6752 0.950 . S
H6724 C6754 0.950 . S
H6725 C6755 0.950 . S
C6726 H6708 0.951 . S
C6726 C6727 1.366 . S
C6726 C6728 1.388 . S
C6727 C6726 1.366 . S
C6727 C6731 1.385 . S
C6728 H6709 0.951 . S
C6728 C6726 1.388 . S
C6728 C6729 1.366 . S
C6729 C6728 1.366 . S
C6729 C6730 1.414 . S
C6729 C6732 1.499 . S
C6730 H6710 0.950 . S
C6730 C6729 1.414 . S
C6730 C6731 1.374 . S
C6731 H6711 0.950 . S
C6731 C6727 1.385 . S
C6731 C6730 1.374 . S
C6732 C6729 1.499 . S
C6732 C6733 1.373 . S
C6732 C6734 1.389 . S
C6733 H6712 0.950 . S
C6733 C6732 1.373 . S
C6733 C6749 1.377 . S
C6734 C6732 1.389 . S
C6734 C6735 1.524 . S
C6734 C6748 1.377 . S
C6735 C6734 1.524 . S
C6735 C6736 1.397 . S
C6735 C6740 1.363 . S
C6736 H6713 0.950 . S
C6736 C6735 1.397 . S
C6736 C6737 1.334 . S
C6737 H6714 0.950 . S
C6737 C6736 1.334 . S
C6737 C6738 1.287 . S
C6738 C6737 1.287 . S
C6738 C6739 1.524 . S
C6738 H6757 0.913 . S
C6739 H6715 0.950 . S
C6739 C6738 1.524 . S
C6739 C6740 1.415 . S
C6740 H6716 0.950 . S
C6740 C6735 1.363 . S
C6740 C6739 1.415 . S
C6741 H6717 0.951 . S
C6741 C6742 1.366 . S
C6741 C6743 1.388 . S
C6742 C6741 1.366 . S
C6742 C6746 1.385 . S
C6743 H6718 0.951 . S
C6743 C6741 1.388 . S
C6743 C6744 1.366 . S
C6744 C6743 1.366 . S
C6744 C6745 1.414 . S
C6744 C6747 1.499 . S
C6745 H6719 0.950 . S
C6745 C6744 1.414 . S
C6745 C6746 1.374 . S
C6746 H6720 0.950 . S
C6746 C6742 1.385 . S
C6746 C6745 1.374 . S
C6747 C6744 1.499 . S
C6747 C6748 1.373 . S
C6747 C6749 1.389 . S
C6748 H6721 0.950 . S
C6748 C6734 1.377 . S
C6748 C6747 1.373 . S
C6749 C6733 1.377 . S
C6749 C6747 1.389 . S
C6749 C6750 1.524 . S
C6750 C6749 1.524 . S
C6750 C6751 1.397 . S
C6750 C6755 1.363 . S
C6751 H6722 0.950 . S
C6751 C6750 1.397 . S
C6751 C6752 1.334 . S
C6752 H6723 0.950 . S
C6752 C6751 1.334 . S
C6752 C6753 1.287 . S
C6753 C6752 1.287 . S
C6753 C6754 1.524 . S
C6753 H6756 0.999 . S
C6754 H6724 0.950 . S
C6754 C6753 1.524 . S
C6754 C6755 1.415 . S
C6755 H6725 0.950 . S
C6755 C6750 1.363 . S
C6755 C6754 1.415 . S
H6756 C6753 0.999 . S
H6757 C6738 0.913 . S
H6758 C6776 0.951 1_556 S
H6759 C6778 0.951 1_556 S
H6760 C6780 0.950 . S
H6761 C6781 0.950 . S
H6762 C6783 0.950 . S
H6763 C6786 0.950 1_554 S
H6764 C6787 0.950 . S
H6765 C6789 0.950 . S
H6766 C6790 0.950 . S
H6767 C6791 0.951 . S
H6768 C6793 0.951 . S
H6769 C6795 0.950 1_556 S
H6770 C6796 0.950 1_556 S
H6771 C6798 0.950 1_556 S
H6772 C6801 0.950 . S
H6773 C6802 0.950 . S
H6774 C6804 0.950 . S
H6775 C6805 0.950 . S
C6776 H6758 0.951 1_554 S
C6776 C6777 1.366 . S
C6776 C6778 1.388 . S
C6777 C6776 1.366 . S
C6777 C6781 1.385 . S
C6778 H6759 0.951 1_554 S
C6778 C6776 1.388 . S
C6778 C6779 1.366 . S
C6779 C6778 1.366 . S
C6779 C6780 1.414 . S
C6779 C6782 1.499 . S
C6780 H6760 0.950 . S
C6780 C6779 1.414 . S
C6780 C6781 1.374 . S
C6781 H6761 0.950 . S
C6781 C6777 1.385 . S
C6781 C6780 1.374 . S
C6782 C6779 1.499 . S
C6782 C6783 1.373 . S
C6782 C6784 1.389 . S
C6783 H6762 0.950 . S
C6783 C6782 1.373 . S
C6783 C6799 1.377 . S
C6784 C6782 1.389 . S
C6784 C6785 1.524 1_554 S
C6784 C6798 1.377 . S
C6785 C6784 1.524 1_556 S
C6785 C6786 1.397 . S
C6785 C6790 1.363 . S
C6786 H6763 0.950 1_556 S
C6786 C6785 1.397 . S
C6786 C6787 1.334 . S
C6787 H6764 0.950 . S
C6787 C6786 1.334 . S
C6787 C6788 1.287 . S
C6788 C6787 1.287 . S
C6788 C6789 1.524 . S
C6788 H6807 0.913 . S
C6789 H6765 0.950 . S
C6789 C6788 1.524 . S
C6789 C6790 1.415 . S
C6790 H6766 0.950 . S
C6790 C6785 1.363 . S
C6790 C6789 1.415 . S
C6791 H6767 0.951 . S
C6791 C6792 1.366 . S
C6791 C6793 1.388 . S
C6792 C6791 1.366 . S
C6792 C6796 1.385 . S
C6793 H6768 0.951 . S
C6793 C6791 1.388 . S
C6793 C6794 1.366 . S
C6794 C6793 1.366 . S
C6794 C6795 1.414 . S
C6794 C6797 1.499 . S
C6795 H6769 0.950 1_554 S
C6795 C6794 1.414 . S
C6795 C6796 1.374 . S
C6796 H6770 0.950 1_554 S
C6796 C6792 1.385 . S
C6796 C6795 1.374 . S
C6797 C6794 1.499 . S
C6797 C6798 1.373 . S
C6797 C6799 1.389 . S
C6798 H6771 0.950 1_554 S
C6798 C6784 1.377 . S
C6798 C6797 1.373 . S
C6799 C6783 1.377 . S
C6799 C6797 1.389 . S
C6799 C6800 1.524 . S
C6800 C6799 1.524 . S
C6800 C6801 1.397 . S
C6800 C6805 1.363 . S
C6801 H6772 0.950 . S
C6801 C6800 1.397 . S
C6801 C6802 1.334 . S
C6802 H6773 0.950 . S
C6802 C6801 1.334 . S
C6802 C6803 1.287 . S
C6803 C6802 1.287 . S
C6803 C6804 1.524 . S
C6803 H6806 0.999 . S
C6804 H6774 0.950 . S
C6804 C6803 1.524 . S
C6804 C6805 1.415 . S
C6805 H6775 0.950 . S
C6805 C6800 1.363 . S
C6805 C6804 1.415 . S
H6806 C6803 0.999 . S
H6807 C6788 0.913 . S
H6808 C6826 0.951 . S
H6809 C6828 0.951 . S
H6810 C6830 0.950 . S
H6811 C6831 0.950 . S
H6812 C6833 0.950 . S
H6813 C6836 0.950 . S
H6814 C6837 0.950 . S
H6815 C6839 0.950 . S
H6816 C6840 0.950 . S
H6817 C6841 0.951 . S
H6818 C6843 0.951 . S
H6819 C6845 0.950 . S
H6820 C6846 0.950 . S
H6821 C6848 0.950 . S
H6822 C6851 0.950 . S
H6823 C6852 0.950 . S
H6824 C6854 0.950 . S
H6825 C6855 0.950 . S
C6826 H6808 0.951 . S
C6826 C6827 1.366 . S
C6826 C6828 1.388 . S
C6827 C6826 1.366 . S
C6827 C6831 1.385 . S
C6828 H6809 0.951 . S
C6828 C6826 1.388 . S
C6828 C6829 1.366 . S
C6829 C6828 1.366 . S
C6829 C6830 1.414 . S
C6829 C6832 1.499 . S
C6830 H6810 0.950 . S
C6830 C6829 1.414 . S
C6830 C6831 1.374 . S
C6831 H6811 0.950 . S
C6831 C6827 1.385 . S
C6831 C6830 1.374 . S
C6832 C6829 1.499 . S
C6832 C6833 1.373 . S
C6832 C6834 1.389 . S
C6833 H6812 0.950 . S
C6833 C6832 1.373 . S
C6833 C6849 1.377 . S
C6834 C6832 1.389 . S
C6834 C6835 1.524 . S
C6834 C6848 1.377 . S
C6835 C6834 1.524 . S
C6835 C6836 1.397 . S
C6835 C6840 1.363 . S
C6836 H6813 0.950 . S
C6836 C6835 1.397 . S
C6836 C6837 1.334 . S
C6837 H6814 0.950 . S
C6837 C6836 1.334 . S
C6837 C6838 1.287 . S
C6838 C6837 1.287 . S
C6838 C6839 1.524 . S
C6838 H6857 0.913 . S
C6839 H6815 0.950 . S
C6839 C6838 1.524 . S
C6839 C6840 1.415 . S
C6840 H6816 0.950 . S
C6840 C6835 1.363 . S
C6840 C6839 1.415 . S
C6841 H6817 0.951 . S
C6841 C6842 1.366 . S
C6841 C6843 1.388 . S
C6842 C6841 1.366 . S
C6842 C6846 1.385 . S
C6843 H6818 0.951 . S
C6843 C6841 1.388 . S
C6843 C6844 1.366 . S
C6844 C6843 1.366 . S
C6844 C6845 1.414 . S
C6844 C6847 1.499 . S
C6845 H6819 0.950 . S
C6845 C6844 1.414 . S
C6845 C6846 1.374 . S
C6846 H6820 0.950 . S
C6846 C6842 1.385 . S
C6846 C6845 1.374 . S
C6847 C6844 1.499 . S
C6847 C6848 1.373 . S
C6847 C6849 1.389 . S
C6848 H6821 0.950 . S
C6848 C6834 1.377 . S
C6848 C6847 1.373 . S
C6849 C6833 1.377 . S
C6849 C6847 1.389 . S
C6849 C6850 1.524 . S
C6850 C6849 1.524 . S
C6850 C6851 1.397 . S
C6850 C6855 1.363 . S
C6851 H6822 0.950 . S
C6851 C6850 1.397 . S
C6851 C6852 1.334 . S
C6852 H6823 0.950 . S
C6852 C6851 1.334 . S
C6852 C6853 1.287 . S
C6853 C6852 1.287 . S
C6853 C6854 1.524 . S
C6853 H6856 0.999 . S
C6854 H6824 0.950 . S
C6854 C6853 1.524 . S
C6854 C6855 1.415 . S
C6855 H6825 0.950 . S
C6855 C6850 1.363 . S
C6855 C6854 1.415 . S
H6856 C6853 0.999 . S
H6857 C6838 0.913 . S
H6858 C6876 0.951 . S
H6859 C6878 0.951 . S
H6860 C6880 0.950 . S
H6861 C6881 0.950 . S
H6862 C6883 0.950 . S
H6863 C6886 0.950 . S
H6864 C6887 0.950 . S
H6865 C6889 0.950 . S
H6866 C6890 0.950 . S
H6867 C6891 0.951 . S
H6868 C6893 0.951 . S
H6869 C6895 0.950 . S
H6870 C6896 0.950 . S
H6871 C6898 0.950 . S
H6872 C6901 0.950 . S
H6873 C6902 0.950 . S
H6874 C6904 0.950 . S
H6875 C6905 0.950 . S
C6876 H6858 0.951 . S
C6876 C6877 1.366 . S
C6876 C6878 1.388 . S
C6877 C6876 1.366 . S
C6877 C6881 1.385 . S
C6878 H6859 0.951 . S
C6878 C6876 1.388 . S
C6878 C6879 1.366 . S
C6879 C6878 1.366 . S
C6879 C6880 1.414 . S
C6879 C6882 1.499 . S
C6880 H6860 0.950 . S
C6880 C6879 1.414 . S
C6880 C6881 1.374 . S
C6881 H6861 0.950 . S
C6881 C6877 1.385 . S
C6881 C6880 1.374 . S
C6882 C6879 1.499 . S
C6882 C6883 1.373 . S
C6882 C6884 1.389 . S
C6883 H6862 0.950 . S
C6883 C6882 1.373 . S
C6883 C6899 1.377 . S
C6884 C6882 1.389 . S
C6884 C6885 1.524 . S
C6884 C6898 1.377 . S
C6885 C6884 1.524 . S
C6885 C6886 1.397 . S
C6885 C6890 1.363 . S
C6886 H6863 0.950 . S
C6886 C6885 1.397 . S
C6886 C6887 1.334 . S
C6887 H6864 0.950 . S
C6887 C6886 1.334 . S
C6887 C6888 1.287 . S
C6888 C6887 1.287 . S
C6888 C6889 1.524 . S
C6888 H6907 0.913 . S
C6889 H6865 0.950 . S
C6889 C6888 1.524 . S
C6889 C6890 1.415 . S
C6890 H6866 0.950 . S
C6890 C6885 1.363 . S
C6890 C6889 1.415 . S
C6891 H6867 0.951 . S
C6891 C6892 1.366 . S
C6891 C6893 1.388 . S
C6892 C6891 1.366 . S
C6892 C6896 1.385 . S
C6893 H6868 0.951 . S
C6893 C6891 1.388 . S
C6893 C6894 1.366 . S
C6894 C6893 1.366 . S
C6894 C6895 1.414 . S
C6894 C6897 1.499 . S
C6895 H6869 0.950 . S
C6895 C6894 1.414 . S
C6895 C6896 1.374 . S
C6896 H6870 0.950 . S
C6896 C6892 1.385 . S
C6896 C6895 1.374 . S
C6897 C6894 1.499 . S
C6897 C6898 1.373 . S
C6897 C6899 1.389 . S
C6898 H6871 0.950 . S
C6898 C6884 1.377 . S
C6898 C6897 1.373 . S
C6899 C6883 1.377 . S
C6899 C6897 1.389 . S
C6899 C6900 1.524 1_554 S
C6900 C6899 1.524 1_556 S
C6900 C6901 1.397 . S
C6900 C6905 1.363 . S
C6901 H6872 0.950 . S
C6901 C6900 1.397 . S
C6901 C6902 1.334 . S
C6902 H6873 0.950 . S
C6902 C6901 1.334 . S
C6902 C6903 1.287 . S
C6903 C6902 1.287 . S
C6903 C6904 1.524 . S
C6903 H6906 0.999 . S
C6904 H6874 0.950 . S
C6904 C6903 1.524 . S
C6904 C6905 1.415 . S
C6905 H6875 0.950 . S
C6905 C6900 1.363 . S
C6905 C6904 1.415 . S
H6906 C6903 0.999 . S
H6907 C6888 0.913 . S
H6908 C6926 0.951 . S
H6909 C6928 0.951 . S
H6910 C6930 0.950 . S
H6911 C6931 0.950 . S
H6912 C6933 0.950 . S
H6913 C6936 0.950 . S
H6914 C6937 0.950 . S
H6915 C6939 0.950 . S
H6916 C6940 0.950 . S
H6917 C6941 0.951 . S
H6918 C6943 0.951 . S
H6919 C6945 0.950 . S
H6920 C6946 0.950 . S
H6921 C6948 0.950 . S
H6922 C6951 0.950 . S
H6923 C6952 0.950 . S
H6924 C6954 0.950 . S
H6925 C6955 0.950 . S
C6926 H6908 0.951 . S
C6926 C6927 1.366 . S
C6926 C6928 1.388 1_545 S
C6927 C6926 1.366 . S
C6927 C6931 1.385 1_545 S
C6928 H6909 0.951 . S
C6928 C6926 1.388 1_565 S
C6928 C6929 1.366 . S
C6929 C6928 1.366 . S
C6929 C6930 1.414 . S
C6929 C6932 1.499 . S
C6930 H6910 0.950 . S
C6930 C6929 1.414 . S
C6930 C6931 1.374 . S
C6931 H6911 0.950 . S
C6931 C6927 1.385 1_565 S
C6931 C6930 1.374 . S
C6932 C6929 1.499 . S
C6932 C6933 1.373 . S
C6932 C6934 1.389 . S
C6933 H6912 0.950 . S
C6933 C6932 1.373 . S
C6933 C6949 1.377 . S
C6934 C6932 1.389 . S
C6934 C6935 1.524 . S
C6934 C6948 1.377 . S
C6935 C6934 1.524 . S
C6935 C6936 1.397 . S
C6935 C6940 1.363 . S
C6936 H6913 0.950 . S
C6936 C6935 1.397 . S
C6936 C6937 1.334 . S
C6937 H6914 0.950 . S
C6937 C6936 1.334 . S
C6937 C6938 1.287 . S
C6938 C6937 1.287 . S
C6938 C6939 1.524 . S
C6938 H6957 0.913 . S
C6939 H6915 0.950 . S
C6939 C6938 1.524 . S
C6939 C6940 1.415 . S
C6940 H6916 0.950 . S
C6940 C6935 1.363 . S
C6940 C6939 1.415 . S
C6941 H6917 0.951 . S
C6941 C6942 1.366 . S
C6941 C6943 1.388 . S
C6942 C6941 1.366 . S
C6942 C6946 1.385 . S
C6943 H6918 0.951 . S
C6943 C6941 1.388 . S
C6943 C6944 1.366 . S
C6944 C6943 1.366 . S
C6944 C6945 1.414 . S
C6944 C6947 1.499 . S
C6945 H6919 0.950 . S
C6945 C6944 1.414 . S
C6945 C6946 1.374 . S
C6946 H6920 0.950 . S
C6946 C6942 1.385 . S
C6946 C6945 1.374 . S
C6947 C6944 1.499 . S
C6947 C6948 1.373 . S
C6947 C6949 1.389 . S
C6948 H6921 0.950 . S
C6948 C6934 1.377 . S
C6948 C6947 1.373 . S
C6949 C6933 1.377 . S
C6949 C6947 1.389 . S
C6949 C6950 1.524 . S
C6950 C6949 1.524 . S
C6950 C6951 1.397 . S
C6950 C6955 1.363 . S
C6951 H6922 0.950 . S
C6951 C6950 1.397 . S
C6951 C6952 1.334 . S
C6952 H6923 0.950 . S
C6952 C6951 1.334 . S
C6952 C6953 1.287 . S
C6953 C6952 1.287 . S
C6953 C6954 1.524 . S
C6953 H6956 0.999 . S
C6954 H6924 0.950 . S
C6954 C6953 1.524 . S
C6954 C6955 1.415 . S
C6955 H6925 0.950 . S
C6955 C6950 1.363 . S
C6955 C6954 1.415 . S
H6956 C6953 0.999 . S
H6957 C6938 0.913 . S
H6958 C6976 0.951 . S
H6959 C6978 0.951 . S
H6960 C6980 0.950 . S
H6961 C6981 0.950 . S
H6962 C6983 0.950 . S
H6963 C6986 0.950 . S
H6964 C6987 0.950 . S
H6965 C6989 0.950 . S
H6966 C6990 0.950 . S
H6967 C6991 0.951 . S
H6968 C6993 0.951 . S
H6969 C6995 0.950 . S
H6970 C6996 0.950 . S
H6971 C6998 0.950 . S
H6972 C7001 0.950 . S
H6973 C7002 0.950 . S
H6974 C7004 0.950 . S
H6975 C7005 0.950 . S
C6976 H6958 0.951 . S
C6976 C6977 1.366 . S
C6976 C6978 1.388 . S
C6977 C6976 1.366 . S
C6977 C6981 1.385 . S
C6978 H6959 0.951 . S
C6978 C6976 1.388 . S
C6978 C6979 1.366 . S
C6979 C6978 1.366 . S
C6979 C6980 1.414 . S
C6979 C6982 1.499 . S
C6980 H6960 0.950 . S
C6980 C6979 1.414 . S
C6980 C6981 1.374 . S
C6981 H6961 0.950 . S
C6981 C6977 1.385 . S
C6981 C6980 1.374 . S
C6982 C6979 1.499 . S
C6982 C6983 1.373 . S
C6982 C6984 1.389 . S
C6983 H6962 0.950 . S
C6983 C6982 1.373 . S
C6983 C6999 1.377 . S
C6984 C6982 1.389 . S
C6984 C6985 1.524 . S
C6984 C6998 1.377 . S
C6985 C6984 1.524 . S
C6985 C6986 1.397 . S
C6985 C6990 1.363 . S
C6986 H6963 0.950 . S
C6986 C6985 1.397 . S
C6986 C6987 1.334 . S
C6987 H6964 0.950 . S
C6987 C6986 1.334 . S
C6987 C6988 1.287 . S
C6988 C6987 1.287 . S
C6988 C6989 1.524 . S
C6988 H7007 0.913 . S
C6989 H6965 0.950 . S
C6989 C6988 1.524 . S
C6989 C6990 1.415 . S
C6990 H6966 0.950 . S
C6990 C6985 1.363 . S
C6990 C6989 1.415 . S
C6991 H6967 0.951 . S
C6991 C6992 1.366 . S
C6991 C6993 1.388 . S
C6992 C6991 1.366 . S
C6992 C6996 1.385 . S
C6993 H6968 0.951 . S
C6993 C6991 1.388 . S
C6993 C6994 1.366 . S
C6994 C6993 1.366 . S
C6994 C6995 1.414 . S
C6994 C6997 1.499 . S
C6995 H6969 0.950 . S
C6995 C6994 1.414 . S
C6995 C6996 1.374 . S
C6996 H6970 0.950 . S
C6996 C6992 1.385 . S
C6996 C6995 1.374 . S
C6997 C6994 1.499 . S
C6997 C6998 1.373 . S
C6997 C6999 1.389 . S
C6998 H6971 0.950 . S
C6998 C6984 1.377 . S
C6998 C6997 1.373 . S
C6999 C6983 1.377 . S
C6999 C6997 1.389 . S
C6999 C7000 1.524 . S
C7000 C6999 1.524 . S
C7000 C7001 1.397 . S
C7000 C7005 1.363 . S
C7001 H6972 0.950 . S
C7001 C7000 1.397 . S
C7001 C7002 1.334 . S
C7002 H6973 0.950 . S
C7002 C7001 1.334 . S
C7002 C7003 1.287 . S
C7003 C7002 1.287 . S
C7003 C7004 1.524 . S
C7003 H7006 0.999 . S
C7004 H6974 0.950 . S
C7004 C7003 1.524 . S
C7004 C7005 1.415 . S
C7005 H6975 0.950 . S
C7005 C7000 1.363 . S
C7005 C7004 1.415 . S
H7006 C7003 0.999 . S
H7007 C6988 0.913 . S
C2227 C255 1.570 . S
C2242 C931 1.462 . S
C2277 C147 2.181 . S
C2292 C1014 2.136 . S
C2327 C184 1.380 . S
C2342 C1099 1.316 1_565 S
C2392 C1179 1.580 . S
C2377 C220 1.729 . S
C2427 C40 1.549 . S
C2442 C1263 1.476 . S
C2492 C1356 0.931 . S
C2477 C74 0.986 . S
C2542 C1434 0.670 . S
C2527 C110 0.668 . S
C2577 C14 1.194 . S
C2592 C1519 1.084 . S
C2642 C930 1.986 . S
C2627 C579 2.087 . S
C2677 C616 0.592 . S
C2692 C1011 0.645 . S
C2742 C1098 1.219 . S
C2727 C687 1.260 . S
C2792 C1183 1.542 . S
C2777 C436 1.624 . S
C2827 C580 2.037 . S
C2842 C1267 1.904 . S
C2892 C1359 1.062 . S
C2877 C615 1.131 . S
C2942 C1431 0.748 . S
C2927 C688 0.746 . S
C2992 C1518 1.372 . S
C2977 C435 1.481 . S
C3042 C927 1.437 . S
C3027 C410 1.521 . S
C3077 C722 2.063 . S
C3092 C1602 1.986 . S
C3142 C1676 2.222 . S
C3127 C842 2.319 . S
C3192 C1771 0.507 . S
C3177 C794 0.386 . S
C3227 C302 0.705 . S
C3242 C1515 0.711 . S
C3277 C338 1.433 . S
C3292 C1095 1.374 . S
C3327 C830 2.423 . S
C3342 C1854 2.347 . S
C3392 C1939 0.784 . S
C3377 C758 0.791 . S
C3442 C920 1.408 . S
C3427 C158 1.431 . S
C3492 C1947 2.112 . S
C3477 C254 2.174 . S
C3527 C218 1.374 . S
C3542 C1088 1.313 . S
C3577 C194 1.619 . S
C3592 C1860 1.550 . S
C3642 C1272 1.477 . S
C3627 C3 1.545 . S
C3677 C111 0.847 . S
C3692 C1683 0.817 . S
C3742 C1443 0.663 1_556 S
C3727 C76 0.664 . S
C3792 C2012 1.159 . S
C3777 C50 1.202 . S
C3842 C939 1.924 . S
C3827 C364 2.021 . S
C3892 C1944 0.606 . S
C3877 C795 0.544 . S
C3927 C292 1.200 . S
C3942 C1107 1.156 . S
C3977 C723 1.572 . S
C3992 C1844 1.460 . S
C4027 C363 2.036 . S
C4042 C1256 1.869 . S
C4092 C1686 1.040 . S
C4077 C796 1.110 . S
C4127 C291 0.712 . S
C4142 C1440 0.724 . S
C4177 C724 1.461 . S
C4192 C2031 1.360 . S
C4227 C482 1.485 . S
C4242 C936 1.428 1_554 S
C4277 C434 2.025 . S
C4292 C1611 1.954 . S
C4327 C662 2.273 . S
C4342 C1351 2.173 . S
C4377 C614 0.337 . S
C4392 C1760 0.498 . S
C4442 C2028 0.689 . S
C4427 C698 0.701 . S
C4477 C554 1.367 . S
C4492 C1104 1.358 1_565 S
C4542 C1191 2.272 . S
C4527 C650 2.346 . S
C4592 C1004 0.723 . S
C4577 C506 0.713 . S
C4627 C183 1.568 . S
C4642 C2107 1.459 . S
C4692 C1938 2.135 . S
C4677 C219 2.181 . S
C4727 C256 1.374 . S
C4742 C2191 1.313 . S
C4777 C148 1.726 . S
C4792 C1851 1.576 . S
C4827 C122 1.581 . S
C4842 C1599 1.533 . S
C4892 C1692 0.890 . S
C4877 C2 0.936 . S
C4942 C1770 0.610 . S
C4927 C39 0.610 . S
C4992 C2023 1.174 . S
C4977 C86 1.285 . S
C5042 C2106 1.997 . S
C5027 C651 2.098 . S
C5077 C472 0.593 . S
C5092 C1935 0.645 . S
C5142 C2190 1.204 . S
C5127 C507 1.246 . S
C5192 C1855 1.548 . S
C5177 C544 1.629 . S
C5242 C1603 1.907 . S
C5227 C652 2.043 . S
C5277 C471 1.119 . S
C5292 C1695 1.054 . S
C5342 C1767 0.747 . S
C5327 C508 0.744 . S
C5377 C543 1.507 . S
C5392 C2022 1.401 . S
C5442 C2103 1.456 . S
C5427 C806 1.542 . S
C5477 C326 2.034 . S
C5492 C1266 1.963 . S
C5542 C1340 2.195 . S
C5527 C374 2.296 . S
C5592 C1435 0.529 . S
C5577 C398 0.412 . S
C5642 C2019 0.691 . S
C5627 C770 0.683 . S
C5677 C734 1.424 . S
C5692 C2187 1.362 . S
C5742 C1182 2.337 . S
C5727 C362 2.404 . S
C5792 C1015 0.802 . S
C5777 C290 0.814 . S
C5827 C230 1.427 . S
C5842 C2096 1.390 . S
C5892 C1023 2.118 . S
C5877 C182 2.181 . S
C5927 C146 1.373 . S
C5942 C2180 1.315 . S
C5977 C266 1.623 . S
C5992 C1188 1.554 . S
C6027 C75 1.587 . S
C6042 C1608 1.513 . S
C6092 C1347 0.918 . S
C6077 C38 0.970 . S
C6127 C4 0.577 . S
C6142 C1779 0.576 . S
C6177 C112 1.230 . S
C6192 C1508 1.111 . S
C6242 C2115 1.925 . S
C6227 C832 2.020 . S
C6277 C399 0.565 . S
C6292 C1020 0.616 . S
C6342 C2199 1.147 . S
C6327 C760 1.191 . S
C6377 C327 1.569 . S
C6392 C1172 1.461 . S
C6427 C831 2.074 . S
C6442 C1592 1.909 . S
C6492 C1350 1.038 . S
C6477 C400 1.109 . S
C6527 C759 0.723 . S
C6542 C1776 0.731 . S
C6592 C1527 1.374 . S
C6577 C328 1.472 . S
C6642 C2112 1.434 . S
C6627 C626 1.489 . S
C6692 C1275 1.957 1_655 S
C6677 C542 2.029 . S
C6727 C590 2.235 . S
C6742 C1687 2.137 . S
C6792 C1424 0.485 . S
C6777 C470 0.342 . S
C6827 C518 0.672 . S
C6842 C1524 0.656 . S
C6877 C446 1.355 . S
C6892 C2196 1.374 . S
C6942 C1863 2.283 . S
C6927 C578 2.359 . S
C6992 C1928 0.706 . S
C6977 C686 0.689 . S
