# Generated by pormake.
# Topology pto, (3,4)-cn, num edge types: 1
# Building blocks:
#     Node 0, Type 0, BuildingBlock: WUSLED_clean_sbu_0, # of connection points: 3
#     Node 1, Type 0, BuildingBlock: WUSLED_clean_sbu_0, # of connection points: 3
#     Node 2, Type 0, BuildingBlock: WUSLED_clean_sbu_0, # of connection points: 3
#     Node 3, Type 0, BuildingBlock: WUSLED_clean_sbu_0, # of connection points: 3
#     Node 4, Type 0, BuildingBlock: WUSLED_clean_sbu_0, # of connection points: 3
#     Node 5, Type 0, BuildingBlock: WUSLED_clean_sbu_0, # of connection points: 3
#     Node 6, Type 0, BuildingBlock: WUSLED_clean_sbu_0, # of connection points: 3
#     Node 7, Type 0, BuildingBlock: WUSLED_clean_sbu_0, # of connection points: 3
#     Node 8, Type 1, BuildingBlock: NAWXER_clean_sbu_0, # of connection points: 4
#     Node 9, Type 1, BuildingBlock: NAWXER_clean_sbu_0, # of connection points: 4
#     Node 10, Type 1, BuildingBlock: NAWXER_clean_sbu_0, # of connection points: 4
#     Node 11, Type 1, BuildingBlock: NAWXER_clean_sbu_0, # of connection points: 4
#     Node 12, Type 1, BuildingBlock: NAWXER_clean_sbu_0, # of connection points: 4
#     Node 13, Type 1, BuildingBlock: NAWXER_clean_sbu_0, # of connection points: 4
#     Edge 14, Type (0, 1), BuildingBlock: EZIPEK_clean_linker_0, # of connection points: 2
#     Edge 15, Type (0, 1), BuildingBlock: EZIPEK_clean_linker_0, # of connection points: 2
#     Edge 16, Type (0, 1), BuildingBlock: EZIPEK_clean_linker_0, # of connection points: 2
#     Edge 17, Type (0, 1), BuildingBlock: EZIPEK_clean_linker_0, # of connection points: 2
#     Edge 18, Type (0, 1), BuildingBlock: EZIPEK_clean_linker_0, # of connection points: 2
#     Edge 19, Type (0, 1), BuildingBlock: EZIPEK_clean_linker_0, # of connection points: 2
#     Edge 20, Type (0, 1), BuildingBlock: EZIPEK_clean_linker_0, # of connection points: 2
#     Edge 21, Type (0, 1), BuildingBlock: EZIPEK_clean_linker_0, # of connection points: 2
#     Edge 22, Type (0, 1), BuildingBlock: EZIPEK_clean_linker_0, # of connection points: 2
#     Edge 23, Type (0, 1), BuildingBlock: EZIPEK_clean_linker_0, # of connection points: 2
#     Edge 24, Type (0, 1), BuildingBlock: EZIPEK_clean_linker_0, # of connection points: 2
#     Edge 25, Type (0, 1), BuildingBlock: EZIPEK_clean_linker_0, # of connection points: 2
#     Edge 26, Type (0, 1), BuildingBlock: EZIPEK_clean_linker_0, # of connection points: 2
#     Edge 27, Type (0, 1), BuildingBlock: EZIPEK_clean_linker_0, # of connection points: 2
#     Edge 28, Type (0, 1), BuildingBlock: EZIPEK_clean_linker_0, # of connection points: 2
#     Edge 29, Type (0, 1), BuildingBlock: EZIPEK_clean_linker_0, # of connection points: 2
#     Edge 30, Type (0, 1), BuildingBlock: EZIPEK_clean_linker_0, # of connection points: 2
#     Edge 31, Type (0, 1), BuildingBlock: EZIPEK_clean_linker_0, # of connection points: 2
#     Edge 32, Type (0, 1), BuildingBlock: EZIPEK_clean_linker_0, # of connection points: 2
#     Edge 33, Type (0, 1), BuildingBlock: EZIPEK_clean_linker_0, # of connection points: 2
#     Edge 34, Type (0, 1), BuildingBlock: EZIPEK_clean_linker_0, # of connection points: 2
#     Edge 35, Type (0, 1), BuildingBlock: EZIPEK_clean_linker_0, # of connection points: 2
#     Edge 36, Type (0, 1), BuildingBlock: EZIPEK_clean_linker_0, # of connection points: 2
#     Edge 37, Type (0, 1), BuildingBlock: EZIPEK_clean_linker_0, # of connection points: 2
# Relax obj value: 0.000
# Max RMSD: 0.007
# Mean RMSD: 0.004
data_MOF--net-pto--node1-WUSLED_clean_sbu_0--node2-NAWXER_clean_sbu_0--edge1-EZIPEK_clean_linker_0
_symmetry_space_group_name_H-M    P1
_symmetry_Int_Tables_number       1
_symmetry_cell_setting            triclinic
loop_
_symmetry_equiv_pos_as_xyz
'x, y, z'
_cell_length_a     43.907268
_cell_length_b     41.296654
_cell_length_c     38.803145
_cell_angle_alpha  89.383703
_cell_angle_beta   90.496768
_cell_angle_gamma 90.436868
loop_
_atom_site_label
_atom_site_type_symbol
_atom_site_fract_x
_atom_site_fract_y
_atom_site_fract_z
_atom_type_partial_charge
C0 C 0.27331 0.24881 0.3518 0.0
C1 C 0.29399 0.22512 0.34123 0.0
C2 C 0.28786 0.19616 0.39572 0.0
C3 C 0.3011 0.19889 0.36299 0.0
C4 C 0.2682 0.22053 0.40681 0.0
C5 C 0.26096 0.24664 0.38498 0.0
U6 U 0.28708 0.30349 0.27358 0.0
O7 O 0.25654 0.31798 0.23093 0.0
O8 O 0.27744 0.35504 0.26391 0.0
C9 C 0.25892 0.34896 0.23793 0.0
C10 C 0.26346 0.27502 0.32809 0.0
C11 C 0.23064 0.36781 0.23615 0.0
C12 C 0.18197 0.38449 0.25921 0.0
C13 C 0.20803 0.36508 0.2614 0.0
C14 C 0.20076 0.40893 0.20635 0.0
C15 C 0.17837 0.40673 0.2318 0.0
C16 C 0.22668 0.38959 0.20852 0.0
C17 C 0.36154 0.2957 0.22411 0.0
C18 C 0.38933 0.33661 0.19104 0.0
C19 C 0.39531 0.27972 0.17818 0.0
C20 C 0.37485 0.27152 0.20426 0.0
C21 C 0.40294 0.31227 0.17163 0.0
C22 C 0.36859 0.32841 0.21699 0.0
C23 C 0.34105 0.28612 0.25248 0.0
O24 O 0.27922 0.30217 0.32968 0.0
O25 O 0.25729 0.26614 0.29632 0.0
O26 O 0.31584 0.27105 0.24328 0.0
O27 O 0.33693 0.30766 0.27667 0.0
H28 H 0.30394 0.22642 0.3158 0.0
H29 H 0.31609 0.18017 0.3539 0.0
H30 H 0.25755 0.21864 0.43184 0.0
H31 H 0.24504 0.26468 0.39366 0.0
H32 H 0.16493 0.38266 0.27917 0.0
H33 H 0.21074 0.34836 0.28289 0.0
H34 H 0.19841 0.42605 0.18517 0.0
H35 H 0.2439 0.39197 0.1888 0.0
H36 H 0.39514 0.36182 0.18647 0.0
H37 H 0.40577 0.26062 0.16357 0.0
H38 H 0.36973 0.2462 0.20927 0.0
H39 H 0.3585 0.3476 0.23177 0.0
C40 C 0.27841 0.81639 0.6924 0.0
C41 C 0.29786 0.84082 0.70514 0.0
C42 C 0.29234 0.87139 0.6515 0.0
C43 C 0.30463 0.8682 0.68488 0.0
C44 C 0.27405 0.84635 0.63824 0.0
C45 C 0.26711 0.81909 0.65856 0.0
U46 U 0.29205 0.7551 0.76559 0.0
O47 O 0.26242 0.73945 0.80815 0.0
O48 O 0.2789 0.70375 0.77129 0.0
C49 C 0.26151 0.70915 0.79802 0.0
C50 C 0.26833 0.789 0.71451 0.0
C51 C 0.23172 0.69206 0.79898 0.0
C52 C 0.17815 0.68935 0.81492 0.0
C53 C 0.20524 0.70712 0.81103 0.0
C54 C 0.20342 0.64128 0.79477 0.0
C55 C 0.17711 0.65629 0.80687 0.0
C56 C 0.23047 0.65896 0.79099 0.0
C57 C 0.36875 0.75416 0.81317 0.0
C58 C 0.38362 0.74845 0.87352 0.0
C59 C 0.4177 0.73072 0.82883 0.0
C60 C 0.39641 0.74002 0.80369 0.0
C61 C 0.41178 0.73577 0.86384 0.0
C62 C 0.36221 0.75751 0.84841 0.0
C63 C 0.34803 0.76691 0.78607 0.0
O64 O 0.28222 0.76129 0.71 0.0
O65 O 0.2641 0.79573 0.74717 0.0
O66 O 0.32447 0.78354 0.79651 0.0
O67 O 0.34138 0.74705 0.7608 0.0
H68 H 0.30702 0.83921 0.73111 0.0
H69 H 0.31858 0.88741 0.69563 0.0
H70 H 0.26412 0.84854 0.61267 0.0
H71 H 0.25213 0.80056 0.64821 0.0
H72 H 0.15799 0.70132 0.8242 0.0
H73 H 0.20549 0.73247 0.8179 0.0
H74 H 0.20301 0.61581 0.78835 0.0
H75 H 0.25062 0.64657 0.78229 0.0
H76 H 0.3788 0.75271 0.90042 0.0
H77 H 0.43945 0.72121 0.82094 0.0
H78 H 0.402 0.73718 0.77675 0.0
H79 H 0.34104 0.76813 0.85664 0.0
C80 C 0.70854 0.77124 0.2297 0.0
C81 C 0.71574 0.77313 0.19444 0.0
C82 C 0.66568 0.75197 0.17934 0.0
C83 C 0.69442 0.76365 0.16948 0.0
C84 C 0.65888 0.74879 0.21448 0.0
C85 C 0.68008 0.75852 0.23945 0.0
U86 U 0.78451 0.7669 0.27775 0.0
O87 O 0.81531 0.80518 0.29657 0.0
O88 O 0.79463 0.77093 0.33328 0.0
C89 C 0.81058 0.79774 0.32914 0.0
C90 C 0.72987 0.78312 0.25654 0.0
C91 C 0.80191 0.82498 0.35118 0.0
C92 C 0.76906 0.87055 0.36374 0.0
C93 C 0.77647 0.84417 0.34306 0.0
C94 C 0.81209 0.85852 0.40115 0.0
C95 C 0.78696 0.878 0.39281 0.0
C96 C 0.81952 0.83223 0.38045 0.0
C97 C 0.83831 0.69876 0.24743 0.0
C98 C 0.88412 0.67994 0.27636 0.0
C99 C 0.86642 0.65342 0.22496 0.0
C100 C 0.84244 0.67536 0.22222 0.0
C101 C 0.88596 0.65288 0.25418 0.0
C102 C 0.86001 0.70188 0.27374 0.0
C103 C 0.81067 0.71856 0.24621 0.0
O104 O 0.73469 0.7632 0.28262 0.0
O105 O 0.7548 0.79779 0.2458 0.0
O106 O 0.81388 0.74895 0.23637 0.0
O107 O 0.79218 0.71475 0.27242 0.0
H108 H 0.73753 0.78263 0.18603 0.0
H109 H 0.69992 0.76648 0.14244 0.0
H110 H 0.63668 0.74006 0.2225 0.0
H111 H 0.67398 0.75678 0.26641 0.0
H112 H 0.74958 0.88532 0.35695 0.0
H113 H 0.76254 0.83888 0.32059 0.0
H114 H 0.82614 0.86393 0.42347 0.0
H115 H 0.83918 0.81769 0.38715 0.0
H116 H 0.90107 0.685 0.29582 0.0
H117 H 0.86919 0.63687 0.20388 0.0
H118 H 0.82679 0.67369 0.20055 0.0
H119 H 0.85818 0.72109 0.29241 0.0
C120 C 0.75442 0.22139 0.72402 0.0
C121 C 0.7833 0.20986 0.71513 0.0
C122 C 0.76001 0.17253 0.67423 0.0
C123 C 0.78606 0.18553 0.69044 0.0
C124 C 0.73121 0.18423 0.68301 0.0
C125 C 0.72846 0.20842 0.70776 0.0
U126 U 0.78203 0.29423 0.77812 0.0
O127 O 0.75667 0.33737 0.79349 0.0
O128 O 0.77465 0.30409 0.83302 0.0
C129 C 0.75767 0.32955 0.82642 0.0
C130 C 0.75064 0.24646 0.75044 0.0
C131 C 0.7289 0.33159 0.84584 0.0
C132 C 0.67515 0.34525 0.84946 0.0
C133 C 0.70175 0.34249 0.83015 0.0
C134 C 0.70234 0.32661 0.90044 0.0
C135 C 0.67527 0.3371 0.88466 0.0
C136 C 0.72895 0.32404 0.88124 0.0
C137 C 0.86018 0.33357 0.76938 0.0
C138 C 0.89084 0.36119 0.813 0.0
C139 C 0.89365 0.37828 0.75319 0.0
C140 C 0.87247 0.35433 0.74416 0.0
C141 C 0.9031 0.38182 0.78762 0.0
C142 C 0.86939 0.33736 0.804 0.0
C143 C 0.83767 0.30853 0.75901 0.0
O144 O 0.76723 0.24322 0.77863 0.0
O145 O 0.74933 0.27652 0.73907 0.0
O146 O 0.81341 0.31937 0.74262 0.0
O147 O 0.83136 0.28585 0.78199 0.0
H148 H 0.80365 0.21959 0.72729 0.0
H149 H 0.80848 0.17692 0.68385 0.0
H150 H 0.71089 0.17464 0.67065 0.0
H151 H 0.70599 0.217 0.71426 0.0
H152 H 0.65439 0.35338 0.83693 0.0
H153 H 0.70098 0.34889 0.80303 0.0
H154 H 0.7028 0.32022 0.92759 0.0
H155 H 0.74963 0.3161 0.8941 0.0
H156 H 0.89808 0.36337 0.83964 0.0
H157 H 0.90306 0.39381 0.73321 0.0
H158 H 0.86575 0.35195 0.71736 0.0
H159 H 0.8602 0.32186 0.82412 0.0
C160 C 0.83454 0.69205 0.7859 0.0
C161 C 0.85727 0.70339 0.76341 0.0
C162 C 0.88295 0.65151 0.76733 0.0
C163 C 0.88138 0.68329 0.75429 0.0
C164 C 0.85959 0.63976 0.78872 0.0
C165 C 0.83555 0.65994 0.79797 0.0
U166 U 0.79545 0.77295 0.77879 0.0
O167 O 0.74727 0.78715 0.78081 0.0
O168 O 0.78004 0.80714 0.81807 0.0
C169 C 0.75144 0.80553 0.80794 0.0
C170 C 0.81063 0.71405 0.79787 0.0
C171 C 0.72848 0.80259 0.83531 0.0
C172 C 0.70144 0.77161 0.87922 0.0
C173 C 0.72434 0.77378 0.85428 0.0
C174 C 0.68703 0.82709 0.86682 0.0
C175 C 0.68246 0.79819 0.88546 0.0
C176 C 0.70988 0.82925 0.84199 0.0
C177 C 0.82595 0.83101 0.70786 0.0
C178 C 0.84816 0.8842 0.69586 0.0
C179 C 0.80936 0.86238 0.65771 0.0
C180 C 0.8075 0.83445 0.67822 0.0
C181 C 0.82978 0.88732 0.6663 0.0
C182 C 0.84633 0.85621 0.71643 0.0
C183 C 0.82577 0.80027 0.728 0.0
O184 O 0.82073 0.74017 0.81349 0.0
O185 O 0.78867 0.72011 0.77554 0.0
O186 O 0.8022 0.78093 0.72333 0.0
O187 O 0.83462 0.80176 0.76041 0.0
H188 H 0.85683 0.7281 0.75374 0.0
H189 H 0.89936 0.69285 0.73808 0.0
H190 H 0.86065 0.61542 0.79933 0.0
H191 H 0.81821 0.65076 0.81529 0.0
H192 H 0.69812 0.74904 0.89322 0.0
H193 H 0.73848 0.75296 0.84947 0.0
H194 H 0.67252 0.84774 0.87107 0.0
H195 H 0.71276 0.85168 0.8276 0.0
H196 H 0.86417 0.90321 0.70269 0.0
H197 H 0.79514 0.8644 0.63484 0.0
H198 H 0.79193 0.81535 0.67046 0.0
H199 H 0.86124 0.8541 0.73871 0.0
C200 C 0.72931 0.26034 0.20106 0.0
C201 C 0.73463 0.27282 0.16775 0.0
C202 C 0.68081 0.26644 0.15319 0.0
C203 C 0.71051 0.27584 0.14398 0.0
C204 C 0.67552 0.25422 0.18648 0.0
C205 C 0.69956 0.25114 0.21014 0.0
U206 U 0.80354 0.28233 0.25212 0.0
O207 O 0.81345 0.27392 0.30699 0.0
O208 O 0.84049 0.24935 0.26797 0.0
C209 C 0.83473 0.25258 0.30092 0.0
C210 C 0.75422 0.25487 0.22634 0.0
C211 C 0.83276 0.22255 0.32139 0.0
C212 C 0.80334 0.17769 0.34509 0.0
C213 C 0.80578 0.20414 0.32241 0.0
C214 C 0.8552 0.18709 0.36481 0.0
C215 C 0.82787 0.16943 0.36685 0.0
C216 C 0.85761 0.21353 0.34219 0.0
C217 C 0.8494 0.35926 0.24428 0.0
C218 C 0.89351 0.36617 0.28204 0.0
C219 C 0.88022 0.4083 0.24073 0.0
C220 C 0.8553 0.38974 0.22943 0.0
C221 C 0.89956 0.39658 0.26699 0.0
C222 C 0.86861 0.34763 0.27073 0.0
C223 C 0.82319 0.33969 0.23246 0.0
O224 O 0.78169 0.25031 0.21411 0.0
O225 O 0.75407 0.27287 0.25408 0.0
O226 O 0.80163 0.33543 0.25538 0.0
O227 O 0.83017 0.3129 0.21639 0.0
H228 H 0.75735 0.28006 0.16005 0.0
H229 H 0.71495 0.28558 0.11847 0.0
H230 H 0.65275 0.24705 0.19411 0.0
H231 H 0.69494 0.24129 0.23558 0.0
H232 H 0.78204 0.16435 0.34655 0.0
H233 H 0.78636 0.21085 0.30653 0.0
H234 H 0.87424 0.18111 0.38158 0.0
H235 H 0.87856 0.22757 0.34175 0.0
H236 H 0.90815 0.35678 0.30235 0.0
H237 H 0.88456 0.43173 0.22886 0.0
H238 H 0.84069 0.39914 0.20909 0.0
H239 H 0.86435 0.32417 0.28257 0.0
C240 C 0.24015 0.23494 0.70274 0.0
C241 C 0.26667 0.22116 0.68938 0.0
C242 C 0.23627 0.17956 0.66113 0.0
C243 C 0.2647 0.19374 0.66865 0.0
C244 C 0.20985 0.19274 0.67524 0.0
C245 C 0.21179 0.22035 0.69575 0.0
U246 U 0.27426 0.29311 0.77058 0.0
O247 O 0.28006 0.34601 0.76566 0.0
O248 O 0.25037 0.3256 0.80564 0.0
C249 C 0.25927 0.35182 0.78891 0.0
C250 C 0.24125 0.26541 0.72221 0.0
C251 C 0.23448 0.37339 0.77754 0.0
C252 C 0.1865 0.38155 0.7469 0.0
C253 C 0.21137 0.36194 0.75543 0.0
C254 C 0.20822 0.42483 0.78117 0.0
C255 C 0.18452 0.41293 0.76019 0.0
C256 C 0.23305 0.40515 0.78981 0.0
C257 C 0.34466 0.26626 0.82527 0.0
C258 C 0.36179 0.28082 0.88306 0.0
C259 C 0.39728 0.25732 0.84315 0.0
C260 C 0.37417 0.25545 0.81817 0.0
C261 C 0.39124 0.26987 0.87582 0.0
C262 C 0.33864 0.27907 0.85797 0.0
C263 C 0.3205 0.26211 0.79877 0.0
O264 O 0.23458 0.26333 0.75512 0.0
O265 O 0.26438 0.2849 0.71582 0.0
O266 O 0.32291 0.27997 0.77064 0.0
O267 O 0.29233 0.25937 0.80976 0.0
H268 H 0.28883 0.23184 0.69449 0.0
H269 H 0.28534 0.1837 0.65818 0.0
H270 H 0.18777 0.18193 0.66992 0.0
H271 H 0.19108 0.23063 0.70577 0.0
H272 H 0.16825 0.37186 0.73102 0.0
H273 H 0.21213 0.33748 0.74564 0.0
H274 H 0.20685 0.44885 0.79198 0.0
H275 H 0.25068 0.4144 0.80684 0.0
H276 H 0.3568 0.29085 0.90804 0.0
H277 H 0.41991 0.24896 0.83703 0.0
H278 H 0.37932 0.24531 0.79326 0.0
H279 H 0.31608 0.28754 0.86419 0.0
C280 C 0.21816 0.71599 0.29672 0.0
C281 C 0.20761 0.70173 0.2661 0.0
C282 C 0.17586 0.6644 0.29927 0.0
C283 C 0.18656 0.67608 0.2674 0.0
C284 C 0.18737 0.67776 0.32982 0.0
C285 C 0.20837 0.70335 0.32852 0.0
U286 U 0.28096 0.7763 0.26398 0.0
O287 O 0.27822 0.82935 0.26175 0.0
O288 O 0.31125 0.80603 0.29663 0.0
C289 C 0.29774 0.83308 0.28731 0.0
C290 C 0.23683 0.74582 0.2966 0.0
C291 C 0.28803 0.85407 0.31571 0.0
C292 C 0.24879 0.88284 0.34689 0.0
C293 C 0.25715 0.86155 0.32083 0.0
C294 C 0.30179 0.88843 0.3639 0.0
C295 C 0.2711 0.89658 0.36842 0.0
C296 C 0.31017 0.86743 0.3377 0.0
C297 C 0.33339 0.76201 0.18743 0.0
C298 C 0.38221 0.78906 0.1783 0.0
C299 C 0.35937 0.75734 0.13257 0.0
C300 C 0.33443 0.75023 0.15367 0.0
C301 C 0.38369 0.7763 0.14496 0.0
C302 C 0.35716 0.78209 0.19935 0.0
C303 C 0.30818 0.75188 0.21024 0.0
O304 O 0.26571 0.74283 0.30516 0.0
O305 O 0.23216 0.76655 0.27116 0.0
O306 O 0.28312 0.769 0.20779 0.0
O307 O 0.3159 0.74485 0.24226 0.0
H308 H 0.21482 0.71109 0.24127 0.0
H309 H 0.17777 0.66611 0.24356 0.0
H310 H 0.17923 0.66918 0.35459 0.0
H311 H 0.21613 0.71412 0.35242 0.0
H312 H 0.22504 0.88906 0.34987 0.0
H313 H 0.23954 0.8514 0.3044 0.0
H314 H 0.31933 0.899 0.38016 0.0
H315 H 0.33406 0.86199 0.33428 0.0
H316 H 0.40088 0.80352 0.18837 0.0
H317 H 0.36025 0.74705 0.10704 0.0
H318 H 0.31632 0.73476 0.14396 0.0
H319 H 0.35677 0.79162 0.22525 0.0
C320 C 1.00014 0.48324 0.29169 0.0
C321 C 0.07681 0.57065 0.29577 0.0
O322 O 1.01358 0.49327 0.31884 0.0
Zn323 Zn 0.03795 0.52687 0.29626 0.0
O324 O 1.0065 0.49583 0.2623 0.0
Zn325 Zn 0.03508 0.53304 0.24107 0.0
O326 O 0.06174 0.50786 0.21181 0.0
O327 O 0.06929 0.49885 0.26757 0.0
O328 O 0.06737 0.56398 0.26538 0.0
O329 O 0.06535 0.55587 0.3216 0.0
O330 O 1.00256 0.55799 0.27904 0.0
O331 O 1.00513 0.56384 0.22265 0.0
C332 C 0.07612 0.49354 0.23615 0.0
C333 C 0.99224 0.57041 0.25099 0.0
C334 C 0.99511 0.48238 0.80158 0.0
C335 C 0.07084 0.57192 0.80751 0.0
O336 O 1.00736 0.49311 0.82917 0.0
Zn337 Zn 0.03215 0.52774 0.80809 0.0
O338 O 1.0023 0.49516 0.7726 0.0
Zn339 Zn 0.03243 0.53075 0.75226 0.0
O340 O 0.0616 0.50296 0.72807 0.0
O341 O 0.06647 0.49996 0.78458 0.0
O342 O 0.06327 0.56297 0.77715 0.0
O343 O 0.0575 0.55907 0.83342 0.0
O344 O 0.99817 0.55821 0.7867 0.0
O345 O 1.00346 0.56108 0.7303 0.0
C346 C 0.07545 0.49181 0.75468 0.0
C347 C 0.98951 0.56952 0.75744 0.0
C348 C 0.29452 0.98848 0.56686 0.0
C349 C 0.29329 0.08099 0.48351 0.0
O350 O 0.2683 0.99584 0.55461 0.0
Zn351 Zn 0.24793 0.03117 0.52168 0.0
O352 O 0.31765 1.00547 0.55815 0.0
Zn353 Zn 0.29684 0.03519 0.52566 0.0
O354 O 0.27257 0.06583 0.5595 0.0
O355 O 0.22336 0.05555 0.55399 0.0
O356 O 0.3172 0.06784 0.49609 0.0
O357 O 0.26719 0.0696 0.49187 0.0
O358 O 0.2307 1.00404 0.48525 0.0
O359 O 0.28088 1.00218 0.4878 0.0
C360 C 0.24506 0.0713 0.56823 0.0
C361 C 0.25572 0.99284 0.4742 0.0
C362 C 0.57437 0.73987 0.07113 0.0
C363 C 0.50304 0.7333 0.97236 0.0
O364 O 0.56312 0.71376 0.059 0.0
Zn365 Zn 0.5387 0.73355 0.02196 0.0
O366 O 0.56642 0.76706 0.05796 0.0
Zn367 Zn 0.53637 0.7858 1.01992 0.0
O368 O 0.50557 0.80666 0.04868 0.0
O369 O 0.50238 0.75342 0.05076 0.0
O370 O 0.50869 0.76185 0.98325 0.0
O371 O 0.51613 0.70915 0.9867 0.0
O372 O 0.5731 0.75616 0.99126 0.0
O373 O 0.56479 0.80869 0.98914 0.0
C374 C 0.4923 0.78104 0.05973 0.0
C375 C 0.58026 0.78433 0.97977 0.0
C376 C 0.82505 0.99364 0.56935 0.0
C377 C 0.816 0.074 0.47662 0.0
O378 O 0.79737 1.00004 0.5612 0.0
Zn379 Zn 0.77322 0.03076 0.52548 0.0
O380 O 0.84684 1.0084 0.55433 0.0
Zn381 Zn 0.82164 0.03468 0.52425 0.0
O382 O 0.80091 0.06626 0.56025 0.0
O383 O 0.75119 0.06 0.55551 0.0
O384 O 0.8402 0.06472 0.49187 0.0
O385 O 0.79022 0.06261 0.48626 0.0
O386 O 0.75195 0.99852 0.49785 0.0
O387 O 0.80197 0.9983 0.49133 0.0
C388 C 0.77402 0.07408 0.56932 0.0
C389 C 0.77554 0.98681 0.48391 0.0
C390 C 0.57629 0.28015 0.0603 0.0
C391 C 0.49118 0.28059 0.97522 0.0
O392 O 0.56232 0.25539 0.04852 0.0
Zn393 Zn 0.53345 0.2781 1.01817 0.0
O394 O 0.56741 0.30839 0.05091 0.0
Zn395 Zn 0.53213 0.32986 1.01977 0.0
O396 O 0.50695 0.35029 0.05441 0.0
O397 O 0.50272 0.29698 0.05489 0.0
O398 O 0.49856 0.30861 0.98653 0.0
O399 O 0.50584 0.25592 0.98602 0.0
O400 O 0.5639 0.30233 0.98376 0.0
O401 O 0.55634 0.35497 0.98702 0.0
C402 C 0.49499 0.32451 0.06669 0.0
C403 C 0.57045 0.33125 0.97402 0.0
C404 C 0.12371 0.41923 0.21664 0.0
C405 C 0.15216 0.42935 0.23072 0.0
C406 C 0.13191 0.48375 0.23971 0.0
C407 C 0.10261 0.4726 0.22945 0.0
N408 N 0.06947 0.42944 0.21064 0.0
N409 N 0.18282 0.46994 0.25916 0.0
C410 C 0.09821 0.4403 0.21827 0.0
C411 C 0.15616 0.46133 0.24308 0.0
N412 N 0.12128 0.38968 0.20127 0.0
N413 N 0.1366 0.51602 0.24555 0.0
H414 H 0.2013 0.45435 0.26178 0.0
H415 H 0.18589 0.49159 0.27229 0.0
H416 H 0.11937 0.53314 0.24274 0.0
H417 H 0.15796 0.52634 0.24996 0.0
H418 H 0.10216 0.38217 0.18736 0.0
H419 H 0.13932 0.37343 0.2003 0.0
H420 H 0.06408 0.40521 0.2064 0.0
H421 H 0.05051 0.44451 0.21053 0.0
C422 C 0.14535 0.6133 0.83613 0.0
C423 C 0.14829 0.63729 0.80994 0.0
C424 C 0.09745 0.62325 0.78813 0.0
C425 C 0.09622 0.59607 0.81115 0.0
N426 N 0.12289 0.56187 0.85245 0.0
N427 N 0.12914 0.66207 0.75765 0.0
C428 C 0.12104 0.59033 0.83427 0.0
C429 C 0.12481 0.64159 0.78515 0.0
N430 N 0.16578 0.61249 0.86287 0.0
N431 N 0.07233 0.63205 0.76935 0.0
H432 H 0.14877 0.6761 0.75442 0.0
H433 H 0.11442 0.66308 0.73647 0.0
H434 H 0.05192 0.61924 0.76987 0.0
H435 H 0.07087 0.65378 0.75556 0.0
H436 H 0.16302 0.59768 0.88455 0.0
H437 H 0.18392 0.62885 0.8649 0.0
H438 H 0.14211 0.55516 0.86666 0.0
H439 H 0.10684 0.54328 0.8506 0.0
C440 C 0.93228 0.62757 0.2851 0.0
C441 C 0.90956 0.62614 0.25913 0.0
C442 C 0.93779 0.58179 0.23247 0.0
C443 C 0.96396 0.59019 0.25258 0.0
N444 N 0.98546 0.62293 0.29859 0.0
N445 N 0.8828 0.5839 0.22907 0.0
C446 C 0.96101 0.61359 0.27905 0.0
C447 C 0.90982 0.59818 0.23812 0.0
N448 N 0.92476 0.63615 0.31776 0.0
N449 N 0.93904 0.55765 0.20874 0.0
H450 H 0.8621 0.59209 0.23858 0.0
H451 H 0.88112 0.56168 0.21673 0.0
H452 H 0.95745 0.54215 0.20631 0.0
H453 H 0.92191 0.55385 0.19042 0.0
H454 H 0.94003 0.63478 0.33846 0.0
H455 H 0.9021 0.63927 0.32486 0.0
H456 H 0.98434 0.64203 0.31592 0.0
H457 H 1.00719 0.61367 0.29556 0.0
C458 C 0.92069 0.43484 0.81369 0.0
C459 C 0.92747 0.40581 0.79616 0.0
C460 C 0.97814 0.4268 0.78226 0.0
C461 C 0.97252 0.45516 0.80184 0.0
N462 N 0.9393 0.48447 0.83969 0.0
N463 N 0.96524 0.37052 0.77276 0.0
C464 C 0.9442 0.45842 0.81908 0.0
C465 C 0.95707 0.40066 0.78344 0.0
N466 N 0.89142 0.44071 0.82343 0.0
N467 N 1.00277 0.42504 0.76108 0.0
H468 H 0.95042 0.35064 0.77356 0.0
H469 H 0.98755 0.36449 0.76666 0.0
H470 H 1.01871 0.44349 0.75805 0.0
H471 H 1.00573 0.40641 0.74356 0.0
H472 H 0.88411 0.46292 0.83259 0.0
H473 H 0.87373 0.42403 0.82004 0.0
H474 H 0.92073 0.48618 0.85605 0.0
H475 H 0.95463 0.5037 0.84209 0.0
C476 C 0.31316 0.16425 0.44379 0.0
C477 C 0.29139 0.16592 0.41666 0.0
C478 C 0.27511 0.1102 0.42959 0.0
C479 C 0.29449 0.1096 0.45936 0.0
N480 N 0.32753 0.13929 0.49824 0.0
N481 N 0.2486 0.1424 0.38645 0.0
C482 C 0.31262 0.13738 0.46725 0.0
C483 C 0.27162 0.13939 0.41027 0.0
N484 N 0.33442 0.18837 0.44712 0.0
N485 N 0.26047 0.08269 0.41897 0.0
H486 H 0.2457 0.16289 0.37086 0.0
H487 H 0.23089 0.12565 0.38398 0.0
H488 H 0.26092 0.06091 0.43251 0.0
H489 H 0.24971 0.08065 0.39505 0.0
H490 H 0.35296 0.18692 0.46398 0.0
H491 H 0.33497 0.20866 0.43085 0.0
H492 H 0.33834 0.16028 0.50684 0.0
H493 H 0.32659 0.12117 0.51707 0.0
C494 C 0.46027 0.75586 0.89048 0.0
C495 C 0.43657 0.73244 0.8899 0.0
C496 C 0.45657 0.70804 0.94339 0.0
C497 C 0.48174 0.72997 0.94243 0.0
N498 N 0.51086 0.76972 0.90982 0.0
N499 N 0.41507 0.68256 0.91166 0.0
C500 C 0.48462 0.75222 0.91429 0.0
C501 C 0.43572 0.70726 0.91501 0.0
N502 N 0.45882 0.78269 0.86952 0.0
N503 N 0.45121 0.68961 0.97219 0.0
H504 H 0.39935 0.68155 0.89137 0.0
H505 H 0.41533 0.66181 0.92716 0.0
H506 H 0.46507 0.69014 0.99409 0.0
H507 H 0.43141 0.67598 0.97566 0.0
H508 H 0.47355 0.80244 0.87197 0.0
H509 H 0.4412 0.78682 0.85186 0.0
H510 H 0.51547 0.78312 0.88754 0.0
H511 H 0.52928 0.7686 0.92673 0.0
C512 C 0.76522 0.90227 0.44639 0.0
C513 C 0.78005 0.90669 0.41431 0.0
C514 C 0.78426 0.96506 0.42494 0.0
C515 C 0.77335 0.95989 0.4589 0.0
N516 N 0.75611 0.92317 0.50353 0.0
N517 N 0.80601 0.94163 0.37374 0.0
C518 C 0.76415 0.92845 0.46997 0.0
C519 C 0.78999 0.93798 0.40361 0.0
N520 N 0.75193 0.87309 0.45413 0.0
N521 N 0.7886 0.996 0.41292 0.0
H522 H 0.81019 0.92252 0.35711 0.0
H523 H 0.81702 0.96304 0.36657 0.0
H524 H 0.78422 1.01634 0.42777 0.0
H525 H 0.79376 1.00165 0.38742 0.0
H526 H 0.73807 0.86923 0.47545 0.0
H527 H 0.75257 0.85337 0.43756 0.0
H528 H 0.75276 0.9002 0.51422 0.0
H529 H 0.75491 0.94163 0.52157 0.0
C530 C 0.64358 0.36172 0.93102 0.0
C531 C 0.6468 0.33819 0.90501 0.0
C532 C 0.59676 0.31563 0.9194 0.0
C533 C 0.59545 0.33608 0.94869 0.0
N534 N 0.62141 0.37427 0.98599 0.0
N535 N 0.62869 0.28938 0.87776 0.0
C536 C 0.61971 0.35828 0.95536 0.0
C537 C 0.62392 0.31432 0.89994 0.0
N538 N 0.66329 0.38745 0.93239 0.0
N539 N 0.57187 0.29778 0.90965 0.0
H540 H 0.64831 0.28731 0.86303 0.0
H541 H 0.6144 0.26918 0.87622 0.0
H542 H 0.55153 0.2976 0.92313 0.0
H543 H 0.57046 0.2855 0.88638 0.0
H544 H 0.66019 0.40708 0.94861 0.0
H545 H 0.68108 0.39064 0.91499 0.0
H546 H 0.64033 0.38795 0.99347 0.0
H547 H 0.6056 0.3713 1.00563 0.0
C548 C 0.3185 0.90699 0.60725 0.0
C549 C 0.29524 0.90256 0.63201 0.0
C550 C 0.27575 0.9568 0.61853 0.0
C551 C 0.29682 0.95993 0.59089 0.0
N552 N 0.33495 0.93507 0.55541 0.0
N553 N 0.24954 0.92147 0.65896 0.0
C554 C 0.31761 0.9344 0.58451 0.0
C555 C 0.27337 0.92705 0.63713 0.0
N556 N 0.34148 0.88496 0.6055 0.0
N557 N 0.25835 0.98254 0.62773 0.0
H558 H 0.24747 0.9006 0.67418 0.0
H559 H 0.23059 0.9364 0.66024 0.0
H560 H 0.2582 1.00439 0.6143 0.0
H561 H 0.24579 0.98322 0.65035 0.0
H562 H 0.36089 0.88851 0.59065 0.0
H563 H 0.34234 0.86431 0.62121 0.0
H564 H 0.34792 0.91557 0.54744 0.0
H565 H 0.3343 0.95387 0.53731 0.0
C566 C 0.64272 0.72052 0.13002 0.0
C567 C 0.64147 0.74699 0.15291 0.0
C568 C 0.59331 0.764 0.12665 0.0
C569 C 0.59643 0.74012 0.10064 0.0
N570 N 0.62819 0.69983 0.07411 0.0
N571 N 0.61893 0.79791 0.1683 0.0
C572 C 0.6221 0.71923 0.10148 0.0
C573 C 0.61767 0.76979 0.14997 0.0
N574 N 0.66346 0.69651 0.13566 0.0
N575 N 0.56683 0.78085 0.12986 0.0
H576 H 0.63657 0.80356 0.18542 0.0
H577 H 0.60405 0.81709 0.16396 0.0
H578 H 0.5482 0.77814 0.11348 0.0
H579 H 0.56225 0.79542 0.15093 0.0
H580 H 0.66337 0.67496 0.12194 0.0
H581 H 0.67902 0.69691 0.15614 0.0
H582 H 0.64827 0.68677 0.072 0.0
H583 H 0.61488 0.69926 0.05178 0.0
C584 C 0.75464 0.1146 0.65466 0.0
C585 C 0.76298 0.14724 0.64732 0.0
C586 C 0.7811 0.13137 0.59036 0.0
C587 C 0.77004 0.09926 0.5962 0.0
N588 N 0.74469 0.06045 0.63333 0.0
N589 N 0.77858 0.18792 0.60602 0.0
C590 C 0.75609 0.091 0.62811 0.0
C591 C 0.77464 0.15594 0.61455 0.0
N592 N 0.74666 0.1059 0.68749 0.0
N593 N 0.7984 0.13847 0.56211 0.0
H594 H 0.77405 0.20669 0.62296 0.0
H595 H 0.78356 0.19601 0.58117 0.0
H596 H 0.80365 0.12167 0.54338 0.0
H597 H 0.80995 0.16038 0.55876 0.0
H598 H 0.74358 0.08203 0.69569 0.0
H599 H 0.7454 0.12245 0.70754 0.0
H600 H 0.73092 0.05403 0.65404 0.0
H601 H 0.74772 0.04162 0.61605 0.0
C602 C 0.45737 0.31105 0.15388 0.0
C603 C 0.42706 0.32018 0.14616 0.0
C604 C 0.443 0.33892 0.08871 0.0
C605 C 0.47228 0.3254 0.09485 0.0
N606 N 0.5055 0.29342 0.13175 0.0
N607 N 0.38983 0.34035 0.1055 0.0
C608 C 0.479 0.3101 0.12703 0.0
C609 C 0.41956 0.33386 0.11349 0.0
N610 N 0.46561 0.30372 0.18711 0.0
N611 N 0.4373 0.35585 0.05891 0.0
H612 H 0.37217 0.33712 0.12303 0.0
H613 H 0.38227 0.34674 0.08087 0.0
H614 H 0.45305 0.35821 0.03908 0.0
H615 H 0.41765 0.36932 0.05468 0.0
H616 H 0.48812 0.30021 0.19491 0.0
H617 H 0.45036 0.30446 0.20756 0.0
H618 H 0.50984 0.27882 0.15327 0.0
H619 H 0.52203 0.29152 0.11291 0.0
C620 C 0.93577 0.63617 0.7856 0.0
C621 C 0.91096 0.63202 0.76247 0.0
C622 C 0.93753 0.58705 0.73493 0.0
C623 C 0.96334 0.59256 0.75664 0.0
N624 N 0.98881 0.62675 0.79845 0.0
N625 N 0.88994 0.60776 0.71136 0.0
C626 C 0.96294 0.61843 0.78071 0.0
C627 C 0.91246 0.60885 0.73584 0.0
N628 N 0.93302 0.65632 0.81317 0.0
N629 N 0.9359 0.55984 0.71522 0.0
H630 H 0.87098 0.62283 0.71184 0.0
H631 H 0.89126 0.59388 0.68918 0.0
H632 H 0.95307 0.54261 0.71458 0.0
H633 H 0.91632 0.55273 0.7019 0.0
H634 H 0.94861 0.65703 0.83353 0.0
H635 H 0.91394 0.67063 0.81726 0.0
H636 H 0.99103 0.6479 0.81265 0.0
H637 H 1.00904 0.61405 0.79687 0.0
C638 C 0.95593 0.40849 0.26632 0.0
C639 C 0.9264 0.41617 0.2783 0.0
C640 C 0.94646 0.46584 0.30464 0.0
C641 C 0.97601 0.45798 0.29292 0.0
N642 N 1.01041 0.41891 0.26984 0.0
N643 N 0.89463 0.44769 0.3153 0.0
C644 C 0.98119 0.42824 0.27614 0.0
C645 C 0.92205 0.44344 0.29962 0.0
N646 N 0.95959 0.38328 0.24421 0.0
N647 N 0.94134 0.4955 0.31873 0.0
H648 H 0.87626 0.43183 0.31196 0.0
H649 H 0.8909 0.46522 0.33385 0.0
H650 H 0.95871 0.51226 0.32353 0.0
H651 H 0.91969 0.50434 0.32369 0.0
H652 H 0.97983 0.37873 0.23142 0.0
H653 H 0.94173 0.36808 0.23666 0.0
H654 H 1.01611 0.39623 0.2605 0.0
H655 H 0.02928 0.4329 0.27703 0.0
C656 C 0.13164 0.42529 0.77933 0.0
C657 C 0.1558 0.43159 0.75625 0.0
C658 C 0.12752 0.47739 0.73117 0.0
C659 C 0.10221 0.46965 0.75258 0.0
N660 N 0.07863 0.43184 0.79278 0.0
N661 N 0.17497 0.45947 0.70611 0.0
C662 C 0.10384 0.44228 0.77533 0.0
C663 C 0.15309 0.45626 0.73076 0.0
N664 N 0.13563 0.40386 0.80613 0.0
N665 N 0.12832 0.50603 0.7132 0.0
H666 H 0.19425 0.44486 0.70562 0.0
H667 H 0.17273 0.47464 0.68463 0.0
H668 H 0.11098 0.52306 0.71386 0.0
H669 H 0.14755 0.51447 0.70028 0.0
H670 H 0.12049 0.40154 0.82654 0.0
H671 H 0.15529 0.39015 0.80966 0.0
H672 H 0.0774 0.40963 0.80568 0.0
H673 H 0.05798 0.44387 0.79231 0.0
C674 C 0.15598 0.60757 0.30938 0.0
C675 C 0.15039 0.64044 0.30056 0.0
C676 C 0.09682 0.62755 0.28854 0.0
C677 C 0.10168 0.59506 0.29973 0.0
N678 N 0.13529 0.55442 0.32363 0.0
N679 N 0.1145 0.68321 0.28919 0.0
C680 C 0.13106 0.58523 0.31135 0.0
C681 C 0.1205 0.65085 0.29238 0.0
N682 N 0.1853 0.59746 0.31437 0.0
N683 N 0.0699 0.63612 0.27318 0.0
H684 H 0.13121 0.70114 0.29175 0.0
H685 H 0.09255 0.69248 0.28723 0.0
H686 H 0.0517 0.62017 0.27005 0.0
H687 H 0.0665 0.65831 0.26078 0.0
H688 H 0.19147 0.57328 0.31702 0.0
H689 H 0.20396 0.61322 0.3134 0.0
H690 H 0.15512 0.54681 0.33605 0.0
H691 H 0.11832 0.53664 0.32319 0.0
C692 C 0.8481 0.91393 0.61191 0.0
C693 C 0.83229 0.9163 0.64349 0.0
C694 C 0.81884 0.97241 0.62938 0.0
C695 C 0.83089 0.9684 0.59589 0.0
N696 N 0.85386 0.9341 0.55348 0.0
N697 N 0.80041 0.94652 0.68166 0.0
C698 C 0.84505 0.93897 0.58673 0.0
C699 C 0.81724 0.94531 0.65223 0.0
N700 N 0.86625 0.88781 0.60615 0.0
N701 N 0.80943 1.00232 0.63946 0.0
H702 H 0.79913 0.92735 0.69933 0.0
H703 H 0.78601 0.96559 0.68745 0.0
H704 H 0.81071 1.02275 0.62345 0.0
H705 H 0.80303 1.0076 0.66455 0.0
H706 H 0.88081 0.88627 0.5852 0.0
H707 H 0.86882 0.86891 0.62397 0.0
H708 H 0.86086 0.91176 0.54436 0.0
H709 H 0.85192 0.95168 0.53412 0.0
C710 C 0.63436 0.29644 0.13293 0.0
C711 C 0.65481 0.27051 0.12856 0.0
C712 C 0.62647 0.25387 0.07678 0.0
C713 C 0.60344 0.27694 0.08386 0.0
N714 N 0.58417 0.31782 0.12251 0.0
N715 N 0.66815 0.22152 0.09931 0.0
C716 C 0.60708 0.29769 0.11289 0.0
C717 C 0.65019 0.2483 0.10138 0.0
N718 N 0.64139 0.32052 0.15566 0.0
N719 N 0.627 0.23877 0.04561 0.0
H720 H 0.68605 0.21691 0.11648 0.0
H721 H 0.66364 0.20263 0.08239 0.0
H722 H 0.61158 0.24379 0.02574 0.0
H723 H 0.64489 0.22416 0.03792 0.0
H724 H 0.62929 0.34206 0.157 0.0
H725 H 0.66103 0.3204 0.17099 0.0
H726 H 0.58411 0.32988 0.14594 0.0
H727 H 0.56397 0.32073 0.10881 0.0
C728 C 0.24685 0.1211 0.65067 0.0
C729 C 0.23456 0.15069 0.63856 0.0
C730 C 0.22332 0.12586 0.58253 0.0
C731 C 0.2393 0.09758 0.59331 0.0
N732 N 0.27167 0.07137 0.63601 0.0
N733 N 0.2143 0.18303 0.59176 0.0
C734 C 0.25253 0.09601 0.62695 0.0
C735 C 0.22328 0.15349 0.60427 0.0
N736 N 0.25278 0.11681 0.68507 0.0
N737 N 0.20898 0.12685 0.55111 0.0
H738 H 0.21403 0.20383 0.60675 0.0
H739 H 0.20937 0.18764 0.56589 0.0
H740 H 0.21065 0.10862 0.53291 0.0
H741 H 0.19388 0.14503 0.54377 0.0
H742 H 0.25873 0.09454 0.69596 0.0
H743 H 0.24872 0.13467 0.70325 0.0
H744 H 0.28449 0.07114 0.65873 0.0
H745 H 0.27727 0.05274 0.61955 0.0
C746 C 0.43616 0.75735 0.13074 0.0
C747 C 0.41217 0.77942 0.1245 0.0
C748 C 0.43992 0.8023 0.07504 0.0
C749 C 0.46523 0.78207 0.08301 0.0
N750 N 0.48903 0.7442 0.12305 0.0
N751 N 0.39303 0.82657 0.09479 0.0
C752 C 0.46379 0.76072 0.11218 0.0
C753 C 0.4147 0.80314 0.09798 0.0
N754 N 0.43221 0.73227 0.15365 0.0
N755 N 0.43881 0.81895 0.04442 0.0
H756 H 0.37402 0.82742 0.1107 0.0
H757 H 0.39524 0.84661 0.07845 0.0
H758 H 0.4558 0.8178 0.02592 0.0
H759 H 0.41959 0.83129 0.03569 0.0
H760 H 0.44717 0.71289 0.15589 0.0
H761 H 0.41272 0.72928 0.16856 0.0
H762 H 0.49035 0.73199 0.14663 0.0
H763 H 0.50965 0.74468 0.1102 0.0
C764 C 0.80816 0.15224 0.42452 0.0
C765 C 0.824 0.14431 0.39414 0.0
C766 C 0.83451 0.09001 0.41752 0.0
C767 C 0.81744 0.09754 0.44738 0.0
N768 N 0.7816 0.13312 0.47502 0.0
N769 N 0.84843 0.10482 0.35883 0.0
C770 C 0.80223 0.12776 0.44955 0.0
C771 C 0.83618 0.11293 0.38983 0.0
N772 N 0.79976 0.18358 0.43014 0.0
N773 N 0.84877 0.06077 0.41545 0.0
H774 H 0.8502 0.12118 0.33825 0.0
H775 H 0.8549 0.08147 0.35247 0.0
H776 H 0.84557 0.04206 0.43333 0.0
H777 H 0.86463 0.05527 0.39666 0.0
H778 H 0.79168 0.19165 0.45368 0.0
H779 H 0.80337 0.20231 0.41237 0.0
H780 H 0.76739 0.15319 0.4753 0.0
H781 H 0.7763 0.11635 0.49422 0.0
C782 C 0.43752 0.29865 0.89897 0.0
C783 C 0.4163 0.27281 0.90184 0.0
C784 C 0.44198 0.25411 0.95489 0.0
C785 C 0.46545 0.27761 0.94977 0.0
N786 N 0.48747 0.31953 0.91322 0.0
N787 N 0.40044 0.2231 0.92958 0.0
C788 C 0.46368 0.29923 0.92086 0.0
C789 C 0.41918 0.24966 0.92893 0.0
N790 N 0.43228 0.32326 0.87584 0.0
N791 N 0.44024 0.23741 0.98543 0.0
H792 H 0.3831 0.21939 0.91146 0.0
H793 H 0.40366 0.20355 0.94638 0.0
H794 H 0.45534 0.24109 1.0059 0.0
H795 H 0.42191 0.22246 0.99192 0.0
H796 H 0.44486 0.34474 0.87541 0.0
H797 H 0.41361 0.32356 0.85904 0.0
H798 H 0.48905 0.33251 0.89013 0.0
H799 H 0.50698 0.3216 0.92836 0.0
C800 C 0.24848 0.91321 0.42526 0.0
C801 C 0.2631 0.9217 0.39393 0.0
C802 C 0.27325 0.9762 0.41528 0.0
C803 C 0.25665 0.96884 0.44583 0.0
N804 N 0.22559 0.93104 0.47842 0.0
N805 N 0.28151 0.96341 0.35542 0.0
C806 C 0.243 0.93767 0.45014 0.0
C807 C 0.27288 0.95392 0.3878 0.0
N808 N 0.24137 0.8815 0.43202 0.0
N809 N 0.29059 1.00373 0.41273 0.0
H810 H 0.28126 0.94776 0.33448 0.0
H811 H 0.28575 0.98749 0.3486 0.0
H812 H 0.29267 1.02069 0.43216 0.0
H813 H 0.30562 1.00814 0.39256 0.0
H814 H 0.234 0.87301 0.45591 0.0
H815 H 0.24492 0.86306 0.41438 0.0
H816 H 0.21215 0.91028 0.48092 0.0
H817 H 0.22311 0.94705 0.49875 0.0
C818 C 0.63074 0.77624 0.90028 0.0
C819 C 0.65643 0.7951 0.90979 0.0
C820 C 0.6315 0.80896 0.96426 0.0
C821 C 0.60673 0.78788 0.95585 0.0
N822 N 0.58738 0.74494 0.91894 0.0
N823 N 0.68367 0.82583 0.95262 0.0
C824 C 0.60771 0.76953 0.92488 0.0
C825 C 0.65742 0.81065 0.94223 0.0
N826 N 0.6277 0.76556 0.86716 0.0
N827 N 0.63069 0.82682 0.9937 0.0
H828 H 0.70297 0.82749 0.93719 0.0
H829 H 0.68731 0.83459 0.97737 0.0
H830 H 0.61413 0.82374 1.01254 0.0
H831 H 0.64584 0.84569 0.99894 0.0
H832 H 0.6077 0.75516 0.85756 0.0
H833 H 0.64395 0.76997 0.8482 0.0
H834 H 0.58968 0.72861 0.89886 0.0
H835 H 0.56989 0.73838 0.93548 0.0
loop_
_geom_bond_atom_site_label_1
_geom_bond_atom_site_label_2
_geom_bond_distance
_geom_bond_site_symmetry_2
_ccdc_geom_bond_type
C0 C1 1.264 . S
C0 C5 1.479 . S
C0 C10 1.465 . S
C1 C0 1.264 . S
C1 C3 1.339 . S
C1 H28 0.931 . S
C2 C3 1.395 . S
C2 C4 1.320 . S
C3 C1 1.339 . S
C3 C2 1.395 . S
C3 H29 0.929 . S
C4 C2 1.320 . S
C4 C5 1.405 . S
C4 H30 0.930 . S
C5 C0 1.479 . S
C5 C4 1.405 . S
C5 H31 0.931 . S
U6 O7 2.454 . S
U6 O8 2.458 . S
U6 C9 2.984 . S
U6 C10 2.847 . S
U6 C23 2.882 . S
U6 O24 2.441 . S
U6 O25 2.420 . S
U6 O26 2.455 . S
U6 O27 2.449 . S
O7 U6 2.454 . S
O7 C9 1.353 . S
O8 U6 2.458 . S
O8 C9 1.286 . S
C9 U6 2.984 . S
C9 O7 1.353 . S
C9 O8 1.286 . S
C9 C11 1.363 . S
C10 C0 1.465 . S
C10 U6 2.847 . S
C10 O24 1.249 . S
C10 O25 1.202 . S
C11 C9 1.363 . S
C11 C13 1.408 . S
C11 C16 1.342 . S
C12 C13 1.310 . S
C12 C15 1.461 . S
C12 H32 0.932 . S
C13 C11 1.408 . S
C13 C12 1.310 . S
C13 H33 0.930 . S
C14 C15 1.474 . S
C14 C16 1.285 . S
C14 H34 0.929 . S
C15 C12 1.461 . S
C15 C14 1.474 . S
C16 C11 1.342 . S
C16 C14 1.285 . S
C16 H35 0.930 . S
C17 C20 1.424 . S
C17 C22 1.245 . S
C17 C23 1.428 . S
C18 C21 1.260 . S
C18 C22 1.477 . S
C18 H36 0.932 . S
C19 C20 1.384 . S
C19 C21 1.479 . S
C19 H37 0.929 . S
C20 C17 1.424 . S
C20 C19 1.384 . S
C20 H38 0.928 . S
C21 C18 1.260 . S
C21 C19 1.479 . S
C22 C17 1.245 . S
C22 C18 1.477 . S
C22 H39 0.932 . S
C23 U6 2.882 . S
C23 C17 1.428 . S
C23 O26 1.301 . S
C23 O27 1.282 . S
O24 U6 2.441 . S
O24 C10 1.249 . S
O25 U6 2.420 . S
O25 C10 1.202 . S
O26 U6 2.455 . S
O26 C23 1.301 . S
O27 U6 2.449 . S
O27 C23 1.282 . S
H28 C1 0.931 . S
H29 C3 0.929 . S
H30 C4 0.930 . S
H31 C5 0.931 . S
H32 C12 0.932 . S
H33 C13 0.930 . S
H34 C14 0.929 . S
H35 C16 0.930 . S
H36 C18 0.932 . S
H37 C19 0.929 . S
H38 C20 0.928 . S
H39 C22 0.932 . S
C40 C41 1.264 . S
C40 C45 1.479 . S
C40 C50 1.465 . S
C41 C40 1.264 . S
C41 C43 1.339 . S
C41 H68 0.931 . S
C42 C43 1.395 . S
C42 C44 1.320 . S
C43 C41 1.339 . S
C43 C42 1.395 . S
C43 H69 0.929 . S
C44 C42 1.320 . S
C44 C45 1.405 . S
C44 H70 0.930 . S
C45 C40 1.479 . S
C45 C44 1.405 . S
C45 H71 0.931 . S
U46 O47 2.454 . S
U46 O48 2.458 . S
U46 C49 2.984 . S
U46 C50 2.847 . S
U46 C63 2.882 . S
U46 O64 2.441 . S
U46 O65 2.420 . S
U46 O66 2.455 . S
U46 O67 2.449 . S
O47 U46 2.454 . S
O47 C49 1.353 . S
O48 U46 2.458 . S
O48 C49 1.286 . S
C49 U46 2.984 . S
C49 O47 1.353 . S
C49 O48 1.286 . S
C49 C51 1.363 . S
C50 C40 1.465 . S
C50 U46 2.847 . S
C50 O64 1.249 . S
C50 O65 1.202 . S
C51 C49 1.363 . S
C51 C53 1.408 . S
C51 C56 1.342 . S
C52 C53 1.310 . S
C52 C55 1.461 . S
C52 H72 0.932 . S
C53 C51 1.408 . S
C53 C52 1.310 . S
C53 H73 0.930 . S
C54 C55 1.474 . S
C54 C56 1.285 . S
C54 H74 0.929 . S
C55 C52 1.461 . S
C55 C54 1.474 . S
C56 C51 1.342 . S
C56 C54 1.285 . S
C56 H75 0.930 . S
C57 C60 1.424 . S
C57 C62 1.245 . S
C57 C63 1.428 . S
C58 C61 1.260 . S
C58 C62 1.477 . S
C58 H76 0.932 . S
C59 C60 1.384 . S
C59 C61 1.479 . S
C59 H77 0.929 . S
C60 C57 1.424 . S
C60 C59 1.384 . S
C60 H78 0.928 . S
C61 C58 1.260 . S
C61 C59 1.479 . S
C62 C57 1.245 . S
C62 C58 1.477 . S
C62 H79 0.932 . S
C63 U46 2.882 . S
C63 C57 1.428 . S
C63 O66 1.301 . S
C63 O67 1.282 . S
O64 U46 2.441 . S
O64 C50 1.249 . S
O65 U46 2.420 . S
O65 C50 1.202 . S
O66 U46 2.455 . S
O66 C63 1.301 . S
O67 U46 2.449 . S
O67 C63 1.282 . S
H68 C41 0.931 . S
H69 C43 0.929 . S
H70 C44 0.930 . S
H71 C45 0.931 . S
H72 C52 0.932 . S
H73 C53 0.930 . S
H74 C54 0.929 . S
H75 C56 0.930 . S
H76 C58 0.932 . S
H77 C59 0.929 . S
H78 C60 0.928 . S
H79 C62 0.932 . S
C80 C81 1.264 . S
C80 C85 1.479 . S
C80 C90 1.465 . S
C81 C80 1.264 . S
C81 C83 1.339 . S
C81 H108 0.931 . S
C82 C83 1.395 . S
C82 C84 1.320 . S
C83 C81 1.339 . S
C83 C82 1.395 . S
C83 H109 0.929 . S
C84 C82 1.320 . S
C84 C85 1.405 . S
C84 H110 0.930 . S
C85 C80 1.479 . S
C85 C84 1.405 . S
C85 H111 0.931 . S
U86 O87 2.454 . S
U86 O88 2.458 . S
U86 C89 2.984 . S
U86 C90 2.847 . S
U86 C103 2.882 . S
U86 O104 2.441 . S
U86 O105 2.420 . S
U86 O106 2.455 . S
U86 O107 2.449 . S
O87 U86 2.454 . S
O87 C89 1.353 . S
O88 U86 2.458 . S
O88 C89 1.286 . S
C89 U86 2.984 . S
C89 O87 1.353 . S
C89 O88 1.286 . S
C89 C91 1.363 . S
C90 C80 1.465 . S
C90 U86 2.847 . S
C90 O104 1.249 . S
C90 O105 1.202 . S
C91 C89 1.363 . S
C91 C93 1.408 . S
C91 C96 1.342 . S
C92 C93 1.310 . S
C92 C95 1.461 . S
C92 H112 0.932 . S
C93 C91 1.408 . S
C93 C92 1.310 . S
C93 H113 0.930 . S
C94 C95 1.474 . S
C94 C96 1.285 . S
C94 H114 0.929 . S
C95 C92 1.461 . S
C95 C94 1.474 . S
C96 C91 1.342 . S
C96 C94 1.285 . S
C96 H115 0.930 . S
C97 C100 1.424 . S
C97 C102 1.245 . S
C97 C103 1.428 . S
C98 C101 1.260 . S
C98 C102 1.477 . S
C98 H116 0.932 . S
C99 C100 1.384 . S
C99 C101 1.479 . S
C99 H117 0.929 . S
C100 C97 1.424 . S
C100 C99 1.384 . S
C100 H118 0.928 . S
C101 C98 1.260 . S
C101 C99 1.479 . S
C102 C97 1.245 . S
C102 C98 1.477 . S
C102 H119 0.932 . S
C103 U86 2.882 . S
C103 C97 1.428 . S
C103 O106 1.301 . S
C103 O107 1.282 . S
O104 U86 2.441 . S
O104 C90 1.249 . S
O105 U86 2.420 . S
O105 C90 1.202 . S
O106 U86 2.455 . S
O106 C103 1.301 . S
O107 U86 2.449 . S
O107 C103 1.282 . S
H108 C81 0.931 . S
H109 C83 0.929 . S
H110 C84 0.930 . S
H111 C85 0.931 . S
H112 C92 0.932 . S
H113 C93 0.930 . S
H114 C94 0.929 . S
H115 C96 0.930 . S
H116 C98 0.932 . S
H117 C99 0.929 . S
H118 C100 0.928 . S
H119 C102 0.932 . S
C120 C121 1.264 . S
C120 C125 1.479 . S
C120 C130 1.465 . S
C121 C120 1.264 . S
C121 C123 1.339 . S
C121 H148 0.931 . S
C122 C123 1.395 . S
C122 C124 1.320 . S
C123 C121 1.339 . S
C123 C122 1.395 . S
C123 H149 0.929 . S
C124 C122 1.320 . S
C124 C125 1.405 . S
C124 H150 0.930 . S
C125 C120 1.479 . S
C125 C124 1.405 . S
C125 H151 0.931 . S
U126 O127 2.454 . S
U126 O128 2.458 . S
U126 C129 2.984 . S
U126 C130 2.847 . S
U126 C143 2.882 . S
U126 O144 2.441 . S
U126 O145 2.420 . S
U126 O146 2.455 . S
U126 O147 2.449 . S
O127 U126 2.454 . S
O127 C129 1.353 . S
O128 U126 2.458 . S
O128 C129 1.286 . S
C129 U126 2.984 . S
C129 O127 1.353 . S
C129 O128 1.286 . S
C129 C131 1.363 . S
C130 C120 1.465 . S
C130 U126 2.847 . S
C130 O144 1.249 . S
C130 O145 1.202 . S
C131 C129 1.363 . S
C131 C133 1.408 . S
C131 C136 1.342 . S
C132 C133 1.310 . S
C132 C135 1.461 . S
C132 H152 0.932 . S
C133 C131 1.408 . S
C133 C132 1.310 . S
C133 H153 0.930 . S
C134 C135 1.474 . S
C134 C136 1.285 . S
C134 H154 0.929 . S
C135 C132 1.461 . S
C135 C134 1.474 . S
C136 C131 1.342 . S
C136 C134 1.285 . S
C136 H155 0.930 . S
C137 C140 1.424 . S
C137 C142 1.245 . S
C137 C143 1.428 . S
C138 C141 1.260 . S
C138 C142 1.477 . S
C138 H156 0.932 . S
C139 C140 1.384 . S
C139 C141 1.479 . S
C139 H157 0.929 . S
C140 C137 1.424 . S
C140 C139 1.384 . S
C140 H158 0.928 . S
C141 C138 1.260 . S
C141 C139 1.479 . S
C142 C137 1.245 . S
C142 C138 1.477 . S
C142 H159 0.932 . S
C143 U126 2.882 . S
C143 C137 1.428 . S
C143 O146 1.301 . S
C143 O147 1.282 . S
O144 U126 2.441 . S
O144 C130 1.249 . S
O145 U126 2.420 . S
O145 C130 1.202 . S
O146 U126 2.455 . S
O146 C143 1.301 . S
O147 U126 2.449 . S
O147 C143 1.282 . S
H148 C121 0.931 . S
H149 C123 0.929 . S
H150 C124 0.930 . S
H151 C125 0.931 . S
H152 C132 0.932 . S
H153 C133 0.930 . S
H154 C134 0.929 . S
H155 C136 0.930 . S
H156 C138 0.932 . S
H157 C139 0.929 . S
H158 C140 0.928 . S
H159 C142 0.932 . S
C160 C161 1.264 . S
C160 C165 1.479 . S
C160 C170 1.465 . S
C161 C160 1.264 . S
C161 C163 1.339 . S
C161 H188 0.931 . S
C162 C163 1.395 . S
C162 C164 1.320 . S
C163 C161 1.339 . S
C163 C162 1.395 . S
C163 H189 0.929 . S
C164 C162 1.320 . S
C164 C165 1.405 . S
C164 H190 0.930 . S
C165 C160 1.479 . S
C165 C164 1.405 . S
C165 H191 0.931 . S
U166 O167 2.454 . S
U166 O168 2.458 . S
U166 C169 2.984 . S
U166 C170 2.847 . S
U166 C183 2.882 . S
U166 O184 2.441 . S
U166 O185 2.420 . S
U166 O186 2.455 . S
U166 O187 2.449 . S
O167 U166 2.454 . S
O167 C169 1.353 . S
O168 U166 2.458 . S
O168 C169 1.286 . S
C169 U166 2.984 . S
C169 O167 1.353 . S
C169 O168 1.286 . S
C169 C171 1.363 . S
C170 C160 1.465 . S
C170 U166 2.847 . S
C170 O184 1.249 . S
C170 O185 1.202 . S
C171 C169 1.363 . S
C171 C173 1.408 . S
C171 C176 1.342 . S
C172 C173 1.310 . S
C172 C175 1.461 . S
C172 H192 0.932 . S
C173 C171 1.408 . S
C173 C172 1.310 . S
C173 H193 0.930 . S
C174 C175 1.474 . S
C174 C176 1.285 . S
C174 H194 0.929 . S
C175 C172 1.461 . S
C175 C174 1.474 . S
C176 C171 1.342 . S
C176 C174 1.285 . S
C176 H195 0.930 . S
C177 C180 1.424 . S
C177 C182 1.245 . S
C177 C183 1.428 . S
C178 C181 1.260 . S
C178 C182 1.477 . S
C178 H196 0.932 . S
C179 C180 1.384 . S
C179 C181 1.479 . S
C179 H197 0.929 . S
C180 C177 1.424 . S
C180 C179 1.384 . S
C180 H198 0.928 . S
C181 C178 1.260 . S
C181 C179 1.479 . S
C182 C177 1.245 . S
C182 C178 1.477 . S
C182 H199 0.932 . S
C183 U166 2.882 . S
C183 C177 1.428 . S
C183 O186 1.301 . S
C183 O187 1.282 . S
O184 U166 2.441 . S
O184 C170 1.249 . S
O185 U166 2.420 . S
O185 C170 1.202 . S
O186 U166 2.455 . S
O186 C183 1.301 . S
O187 U166 2.449 . S
O187 C183 1.282 . S
H188 C161 0.931 . S
H189 C163 0.929 . S
H190 C164 0.930 . S
H191 C165 0.931 . S
H192 C172 0.932 . S
H193 C173 0.930 . S
H194 C174 0.929 . S
H195 C176 0.930 . S
H196 C178 0.932 . S
H197 C179 0.929 . S
H198 C180 0.928 . S
H199 C182 0.932 . S
C200 C201 1.264 . S
C200 C205 1.479 . S
C200 C210 1.465 . S
C201 C200 1.264 . S
C201 C203 1.339 . S
C201 H228 0.931 . S
C202 C203 1.395 . S
C202 C204 1.320 . S
C203 C201 1.339 . S
C203 C202 1.395 . S
C203 H229 0.929 . S
C204 C202 1.320 . S
C204 C205 1.405 . S
C204 H230 0.930 . S
C205 C200 1.479 . S
C205 C204 1.405 . S
C205 H231 0.931 . S
U206 O207 2.454 . S
U206 O208 2.458 . S
U206 C209 2.984 . S
U206 C210 2.847 . S
U206 C223 2.882 . S
U206 O224 2.441 . S
U206 O225 2.420 . S
U206 O226 2.455 . S
U206 O227 2.449 . S
O207 U206 2.454 . S
O207 C209 1.353 . S
O208 U206 2.458 . S
O208 C209 1.286 . S
C209 U206 2.984 . S
C209 O207 1.353 . S
C209 O208 1.286 . S
C209 C211 1.363 . S
C210 C200 1.465 . S
C210 U206 2.847 . S
C210 O224 1.249 . S
C210 O225 1.202 . S
C211 C209 1.363 . S
C211 C213 1.408 . S
C211 C216 1.342 . S
C212 C213 1.310 . S
C212 C215 1.461 . S
C212 H232 0.932 . S
C213 C211 1.408 . S
C213 C212 1.310 . S
C213 H233 0.930 . S
C214 C215 1.474 . S
C214 C216 1.285 . S
C214 H234 0.929 . S
C215 C212 1.461 . S
C215 C214 1.474 . S
C216 C211 1.342 . S
C216 C214 1.285 . S
C216 H235 0.930 . S
C217 C220 1.424 . S
C217 C222 1.245 . S
C217 C223 1.428 . S
C218 C221 1.260 . S
C218 C222 1.477 . S
C218 H236 0.932 . S
C219 C220 1.384 . S
C219 C221 1.479 . S
C219 H237 0.929 . S
C220 C217 1.424 . S
C220 C219 1.384 . S
C220 H238 0.928 . S
C221 C218 1.260 . S
C221 C219 1.479 . S
C222 C217 1.245 . S
C222 C218 1.477 . S
C222 H239 0.932 . S
C223 U206 2.882 . S
C223 C217 1.428 . S
C223 O226 1.301 . S
C223 O227 1.282 . S
O224 U206 2.441 . S
O224 C210 1.249 . S
O225 U206 2.420 . S
O225 C210 1.202 . S
O226 U206 2.455 . S
O226 C223 1.301 . S
O227 U206 2.449 . S
O227 C223 1.282 . S
H228 C201 0.931 . S
H229 C203 0.929 . S
H230 C204 0.930 . S
H231 C205 0.931 . S
H232 C212 0.932 . S
H233 C213 0.930 . S
H234 C214 0.929 . S
H235 C216 0.930 . S
H236 C218 0.932 . S
H237 C219 0.929 . S
H238 C220 0.928 . S
H239 C222 0.932 . S
C240 C241 1.264 . S
C240 C245 1.479 . S
C240 C250 1.465 . S
C241 C240 1.264 . S
C241 C243 1.339 . S
C241 H268 0.931 . S
C242 C243 1.395 . S
C242 C244 1.320 . S
C243 C241 1.339 . S
C243 C242 1.395 . S
C243 H269 0.929 . S
C244 C242 1.320 . S
C244 C245 1.405 . S
C244 H270 0.930 . S
C245 C240 1.479 . S
C245 C244 1.405 . S
C245 H271 0.931 . S
U246 O247 2.454 . S
U246 O248 2.458 . S
U246 C249 2.984 . S
U246 C250 2.847 . S
U246 C263 2.882 . S
U246 O264 2.441 . S
U246 O265 2.420 . S
U246 O266 2.455 . S
U246 O267 2.449 . S
O247 U246 2.454 . S
O247 C249 1.353 . S
O248 U246 2.458 . S
O248 C249 1.286 . S
C249 U246 2.984 . S
C249 O247 1.353 . S
C249 O248 1.286 . S
C249 C251 1.363 . S
C250 C240 1.465 . S
C250 U246 2.847 . S
C250 O264 1.249 . S
C250 O265 1.202 . S
C251 C249 1.363 . S
C251 C253 1.408 . S
C251 C256 1.342 . S
C252 C253 1.310 . S
C252 C255 1.461 . S
C252 H272 0.932 . S
C253 C251 1.408 . S
C253 C252 1.310 . S
C253 H273 0.930 . S
C254 C255 1.474 . S
C254 C256 1.285 . S
C254 H274 0.929 . S
C255 C252 1.461 . S
C255 C254 1.474 . S
C256 C251 1.342 . S
C256 C254 1.285 . S
C256 H275 0.930 . S
C257 C260 1.424 . S
C257 C262 1.245 . S
C257 C263 1.428 . S
C258 C261 1.260 . S
C258 C262 1.477 . S
C258 H276 0.932 . S
C259 C260 1.384 . S
C259 C261 1.479 . S
C259 H277 0.929 . S
C260 C257 1.424 . S
C260 C259 1.384 . S
C260 H278 0.928 . S
C261 C258 1.260 . S
C261 C259 1.479 . S
C262 C257 1.245 . S
C262 C258 1.477 . S
C262 H279 0.932 . S
C263 U246 2.882 . S
C263 C257 1.428 . S
C263 O266 1.301 . S
C263 O267 1.282 . S
O264 U246 2.441 . S
O264 C250 1.249 . S
O265 U246 2.420 . S
O265 C250 1.202 . S
O266 U246 2.455 . S
O266 C263 1.301 . S
O267 U246 2.449 . S
O267 C263 1.282 . S
H268 C241 0.931 . S
H269 C243 0.929 . S
H270 C244 0.930 . S
H271 C245 0.931 . S
H272 C252 0.932 . S
H273 C253 0.930 . S
H274 C254 0.929 . S
H275 C256 0.930 . S
H276 C258 0.932 . S
H277 C259 0.929 . S
H278 C260 0.928 . S
H279 C262 0.932 . S
C280 C281 1.264 . S
C280 C285 1.479 . S
C280 C290 1.465 . S
C281 C280 1.264 . S
C281 C283 1.339 . S
C281 H308 0.931 . S
C282 C283 1.395 . S
C282 C284 1.320 . S
C283 C281 1.339 . S
C283 C282 1.395 . S
C283 H309 0.929 . S
C284 C282 1.320 . S
C284 C285 1.405 . S
C284 H310 0.930 . S
C285 C280 1.479 . S
C285 C284 1.405 . S
C285 H311 0.931 . S
U286 O287 2.454 . S
U286 O288 2.458 . S
U286 C289 2.984 . S
U286 C290 2.847 . S
U286 C303 2.882 . S
U286 O304 2.441 . S
U286 O305 2.420 . S
U286 O306 2.455 . S
U286 O307 2.449 . S
O287 U286 2.454 . S
O287 C289 1.353 . S
O288 U286 2.458 . S
O288 C289 1.286 . S
C289 U286 2.984 . S
C289 O287 1.353 . S
C289 O288 1.286 . S
C289 C291 1.363 . S
C290 C280 1.465 . S
C290 U286 2.847 . S
C290 O304 1.249 . S
C290 O305 1.202 . S
C291 C289 1.363 . S
C291 C293 1.408 . S
C291 C296 1.342 . S
C292 C293 1.310 . S
C292 C295 1.461 . S
C292 H312 0.932 . S
C293 C291 1.408 . S
C293 C292 1.310 . S
C293 H313 0.930 . S
C294 C295 1.474 . S
C294 C296 1.285 . S
C294 H314 0.929 . S
C295 C292 1.461 . S
C295 C294 1.474 . S
C296 C291 1.342 . S
C296 C294 1.285 . S
C296 H315 0.930 . S
C297 C300 1.424 . S
C297 C302 1.245 . S
C297 C303 1.428 . S
C298 C301 1.260 . S
C298 C302 1.477 . S
C298 H316 0.932 . S
C299 C300 1.384 . S
C299 C301 1.479 . S
C299 H317 0.929 . S
C300 C297 1.424 . S
C300 C299 1.384 . S
C300 H318 0.928 . S
C301 C298 1.260 . S
C301 C299 1.479 . S
C302 C297 1.245 . S
C302 C298 1.477 . S
C302 H319 0.932 . S
C303 U286 2.882 . S
C303 C297 1.428 . S
C303 O306 1.301 . S
C303 O307 1.282 . S
O304 U286 2.441 . S
O304 C290 1.249 . S
O305 U286 2.420 . S
O305 C290 1.202 . S
O306 U286 2.455 . S
O306 C303 1.301 . S
O307 U286 2.449 . S
O307 C303 1.282 . S
H308 C281 0.931 . S
H309 C283 0.929 . S
H310 C284 0.930 . S
H311 C285 0.931 . S
H312 C292 0.932 . S
H313 C293 0.930 . S
H314 C294 0.929 . S
H315 C296 0.930 . S
H316 C298 0.932 . S
H317 C299 0.929 . S
H318 C300 0.928 . S
H319 C302 0.932 . S
C320 O322 1.247 . S
C320 O324 1.258 . S
C321 O328 1.247 . S
C321 O329 1.258 . S
O322 C320 1.247 . S
O322 Zn323 2.028 1_655 S
Zn323 O322 2.028 1_455 S
Zn323 O327 2.035 . S
Zn323 O329 2.035 . S
Zn323 O330 2.028 1_455 S
O324 C320 1.258 . S
O324 Zn325 2.035 1_655 S
Zn325 O324 2.035 1_455 S
Zn325 O326 2.028 . S
Zn325 O328 2.028 . S
Zn325 O331 2.035 1_455 S
O326 Zn325 2.028 . S
O326 C332 1.247 . S
O327 Zn323 2.035 . S
O327 C332 1.258 . S
O328 C321 1.247 . S
O328 Zn325 2.028 . S
O329 C321 1.258 . S
O329 Zn323 2.035 . S
O330 Zn323 2.028 1_655 S
O330 C333 1.247 . S
O331 Zn325 2.035 1_655 S
O331 C333 1.258 . S
C332 O326 1.247 . S
C332 O327 1.258 . S
C333 O330 1.247 . S
C333 O331 1.258 . S
C334 O336 1.247 . S
C334 O338 1.258 . S
C335 O342 1.247 . S
C335 O343 1.258 . S
O336 C334 1.247 . S
O336 Zn337 2.028 1_655 S
Zn337 O336 2.028 1_455 S
Zn337 O341 2.035 . S
Zn337 O343 2.035 . S
Zn337 O344 2.028 1_455 S
O338 C334 1.258 . S
O338 Zn339 2.035 1_655 S
Zn339 O338 2.035 1_455 S
Zn339 O340 2.028 . S
Zn339 O342 2.028 . S
Zn339 O345 2.035 1_455 S
O340 Zn339 2.028 . S
O340 C346 1.247 . S
O341 Zn337 2.035 . S
O341 C346 1.258 . S
O342 C335 1.247 . S
O342 Zn339 2.028 . S
O343 C335 1.258 . S
O343 Zn337 2.035 . S
O344 Zn337 2.028 1_655 S
O344 C347 1.247 . S
O345 Zn339 2.035 1_655 S
O345 C347 1.258 . S
C346 O340 1.247 . S
C346 O341 1.258 . S
C347 O344 1.247 . S
C347 O345 1.258 . S
C348 O350 1.247 . S
C348 O352 1.258 . S
C349 O356 1.247 . S
C349 O357 1.258 . S
O350 C348 1.247 . S
O350 Zn351 2.028 1_565 S
Zn351 O350 2.028 1_545 S
Zn351 O355 2.035 . S
Zn351 O357 2.035 . S
Zn351 O358 2.028 1_545 S
O352 C348 1.258 . S
O352 Zn353 2.035 1_565 S
Zn353 O352 2.035 1_545 S
Zn353 O354 2.028 . S
Zn353 O356 2.028 . S
Zn353 O359 2.035 1_545 S
O354 Zn353 2.028 . S
O354 C360 1.247 . S
O355 Zn351 2.035 . S
O355 C360 1.258 . S
O356 C349 1.247 . S
O356 Zn353 2.028 . S
O357 C349 1.258 . S
O357 Zn351 2.035 . S
O358 Zn351 2.028 1_565 S
O358 C361 1.247 . S
O359 Zn353 2.035 1_565 S
O359 C361 1.258 . S
C360 O354 1.247 . S
C360 O355 1.258 . S
C361 O358 1.247 . S
C361 O359 1.258 . S
C362 O364 1.247 . S
C362 O366 1.258 . S
C363 O370 1.247 . S
C363 O371 1.258 . S
O364 C362 1.247 . S
O364 Zn365 2.028 . S
Zn365 O364 2.028 . S
Zn365 O369 2.035 . S
Zn365 O371 2.035 1_554 S
Zn365 O372 2.028 1_554 S
O366 C362 1.258 . S
O366 Zn367 2.035 . S
Zn367 O366 2.035 . S
Zn367 O368 2.028 . S
Zn367 O370 2.028 1_554 S
Zn367 O373 2.035 1_554 S
O368 Zn367 2.028 . S
O368 C374 1.247 . S
O369 Zn365 2.035 . S
O369 C374 1.258 . S
O370 C363 1.247 . S
O370 Zn367 2.028 1_556 S
O371 C363 1.258 . S
O371 Zn365 2.035 1_556 S
O372 Zn365 2.028 1_556 S
O372 C375 1.247 . S
O373 Zn367 2.035 1_556 S
O373 C375 1.258 . S
C374 O368 1.247 . S
C374 O369 1.258 . S
C375 O372 1.247 . S
C375 O373 1.258 . S
C376 O378 1.247 . S
C376 O380 1.258 . S
C377 O384 1.247 . S
C377 O385 1.258 . S
O378 C376 1.247 . S
O378 Zn379 2.017 1_565 S
Zn379 O378 2.017 1_545 S
Zn379 O383 2.047 . S
Zn379 O385 2.047 . S
Zn379 O386 2.017 1_545 S
O380 C376 1.258 . S
O380 Zn381 2.035 1_565 S
Zn381 O380 2.035 1_545 S
Zn381 O382 2.028 . S
Zn381 O384 2.028 . S
Zn381 O387 2.035 1_545 S
O382 Zn381 2.028 . S
O382 C388 1.247 . S
O383 Zn379 2.047 . S
O383 C388 1.258 . S
O384 C377 1.247 . S
O384 Zn381 2.028 . S
O385 C377 1.258 . S
O385 Zn379 2.047 . S
O386 Zn379 2.017 1_565 S
O386 C389 1.247 . S
O387 Zn381 2.035 1_565 S
O387 C389 1.258 . S
C388 O382 1.247 . S
C388 O383 1.258 . S
C389 O386 1.247 . S
C389 O387 1.258 . S
C390 O392 1.247 . S
C390 O394 1.258 . S
C391 O398 1.247 . S
C391 O399 1.258 . S
O392 C390 1.247 . S
O392 Zn393 2.028 . S
Zn393 O392 2.028 . S
Zn393 O397 2.035 . S
Zn393 O399 2.035 1_554 S
Zn393 O400 2.028 1_554 S
O394 C390 1.258 . S
O394 Zn395 2.055 . S
Zn395 O394 2.055 . S
Zn395 O396 2.048 . S
Zn395 O398 2.008 1_554 S
Zn395 O401 2.016 1_554 S
O396 Zn395 2.048 . S
O396 C402 1.247 . S
O397 Zn393 2.035 . S
O397 C402 1.258 . S
O398 C391 1.247 . S
O398 Zn395 2.008 1_556 S
O399 C391 1.258 . S
O399 Zn393 2.035 1_556 S
O400 Zn393 2.028 1_556 S
O400 C403 1.247 . S
O401 Zn395 2.016 1_556 S
O401 C403 1.258 . S
C402 O396 1.247 . S
C402 O397 1.258 . S
C403 O400 1.247 . S
C403 O401 1.258 . S
C404 C405 1.363 . S
C404 C410 1.379 . S
C404 N412 1.356 . S
C405 C404 1.363 . S
C405 C411 1.363 . S
C406 C407 1.363 . S
C406 C411 1.379 . S
C406 N413 1.356 . S
C407 C406 1.363 . S
C407 C410 1.363 . S
N408 C410 1.356 . S
N408 H420 0.984 . S
N408 H421 0.985 . S
N409 C411 1.356 . S
N409 H414 0.984 . S
N409 H415 0.985 . S
C410 C404 1.379 . S
C410 C407 1.363 . S
C410 N408 1.356 . S
C411 C405 1.363 . S
C411 C406 1.379 . S
C411 N409 1.356 . S
N412 C404 1.356 . S
N412 H418 0.984 . S
N412 H419 0.984 . S
N413 C406 1.356 . S
N413 H416 0.984 . S
N413 H417 0.985 . S
H414 N409 0.984 . S
H415 N409 0.985 . S
H416 N413 0.984 . S
H417 N413 0.985 . S
H418 N412 0.984 . S
H419 N412 0.984 . S
H420 N408 0.984 . S
H421 N408 0.985 . S
C422 C423 1.363 . S
C422 C428 1.379 . S
C422 N430 1.356 . S
C423 C422 1.363 . S
C423 C429 1.363 . S
C424 C425 1.363 . S
C424 C429 1.379 . S
C424 N431 1.356 . S
C425 C424 1.363 . S
C425 C428 1.363 . S
N426 C428 1.356 . S
N426 H438 0.984 . S
N426 H439 0.985 . S
N427 C429 1.356 . S
N427 H432 0.984 . S
N427 H433 0.985 . S
C428 C422 1.379 . S
C428 C425 1.363 . S
C428 N426 1.356 . S
C429 C423 1.363 . S
C429 C424 1.379 . S
C429 N427 1.356 . S
N430 C422 1.356 . S
N430 H436 0.984 . S
N430 H437 0.984 . S
N431 C424 1.356 . S
N431 H434 0.984 . S
N431 H435 0.985 . S
H432 N427 0.984 . S
H433 N427 0.985 . S
H434 N431 0.984 . S
H435 N431 0.985 . S
H436 N430 0.984 . S
H437 N430 0.984 . S
H438 N426 0.984 . S
H439 N426 0.985 . S
C440 C441 1.363 . S
C440 C446 1.379 . S
C440 N448 1.356 . S
C441 C440 1.363 . S
C441 C447 1.363 . S
C442 C443 1.363 . S
C442 C447 1.379 . S
C442 N449 1.356 . S
C443 C442 1.363 . S
C443 C446 1.363 . S
N444 C446 1.356 . S
N444 H456 0.984 . S
N444 H457 0.985 . S
N445 C447 1.356 . S
N445 H450 0.984 . S
N445 H451 0.985 . S
C446 C440 1.379 . S
C446 C443 1.363 . S
C446 N444 1.356 . S
C447 C441 1.363 . S
C447 C442 1.379 . S
C447 N445 1.356 . S
N448 C440 1.356 . S
N448 H454 0.984 . S
N448 H455 0.984 . S
N449 C442 1.356 . S
N449 H452 0.984 . S
N449 H453 0.985 . S
H450 N445 0.984 . S
H451 N445 0.985 . S
H452 N449 0.984 . S
H453 N449 0.985 . S
H454 N448 0.984 . S
H455 N448 0.984 . S
H456 N444 0.984 . S
H457 N444 0.985 . S
C458 C459 1.363 . S
C458 C464 1.379 . S
C458 N466 1.356 . S
C459 C458 1.363 . S
C459 C465 1.363 . S
C460 C461 1.363 . S
C460 C465 1.379 . S
C460 N467 1.356 . S
C461 C460 1.363 . S
C461 C464 1.363 . S
N462 C464 1.356 . S
N462 H474 0.984 . S
N462 H475 0.985 . S
N463 C465 1.356 . S
N463 H468 0.984 . S
N463 H469 0.985 . S
C464 C458 1.379 . S
C464 C461 1.363 . S
C464 N462 1.356 . S
C465 C459 1.363 . S
C465 C460 1.379 . S
C465 N463 1.356 . S
N466 C458 1.356 . S
N466 H472 0.984 . S
N466 H473 0.984 . S
N467 C460 1.356 . S
N467 H470 0.984 . S
N467 H471 0.985 . S
H468 N463 0.984 . S
H469 N463 0.985 . S
H470 N467 0.984 . S
H471 N467 0.985 . S
H472 N466 0.984 . S
H473 N466 0.984 . S
H474 N462 0.984 . S
H475 N462 0.985 . S
C476 C477 1.363 . S
C476 C482 1.379 . S
C476 N484 1.356 . S
C477 C476 1.363 . S
C477 C483 1.363 . S
C478 C479 1.363 . S
C478 C483 1.379 . S
C478 N485 1.356 . S
C479 C478 1.363 . S
C479 C482 1.363 . S
N480 C482 1.356 . S
N480 H492 0.984 . S
N480 H493 0.985 . S
N481 C483 1.356 . S
N481 H486 0.984 . S
N481 H487 0.985 . S
C482 C476 1.379 . S
C482 C479 1.363 . S
C482 N480 1.356 . S
C483 C477 1.363 . S
C483 C478 1.379 . S
C483 N481 1.356 . S
N484 C476 1.356 . S
N484 H490 0.984 . S
N484 H491 0.984 . S
N485 C478 1.356 . S
N485 H488 0.984 . S
N485 H489 0.985 . S
H486 N481 0.984 . S
H487 N481 0.985 . S
H488 N485 0.984 . S
H489 N485 0.985 . S
H490 N484 0.984 . S
H491 N484 0.984 . S
H492 N480 0.984 . S
H493 N480 0.985 . S
C494 C495 1.363 . S
C494 C500 1.379 . S
C494 N502 1.356 . S
C495 C494 1.363 . S
C495 C501 1.363 . S
C496 C497 1.363 . S
C496 C501 1.379 . S
C496 N503 1.356 . S
C497 C496 1.363 . S
C497 C500 1.363 . S
N498 C500 1.356 . S
N498 H510 0.984 . S
N498 H511 0.985 . S
N499 C501 1.356 . S
N499 H504 0.984 . S
N499 H505 0.985 . S
C500 C494 1.379 . S
C500 C497 1.363 . S
C500 N498 1.356 . S
C501 C495 1.363 . S
C501 C496 1.379 . S
C501 N499 1.356 . S
N502 C494 1.356 . S
N502 H508 0.984 . S
N502 H509 0.984 . S
N503 C496 1.356 . S
N503 H506 0.984 . S
N503 H507 0.985 . S
H504 N499 0.984 . S
H505 N499 0.985 . S
H506 N503 0.984 . S
H507 N503 0.985 . S
H508 N502 0.984 . S
H509 N502 0.984 . S
H510 N498 0.984 . S
H511 N498 0.985 . S
C512 C513 1.363 . S
C512 C518 1.379 . S
C512 N520 1.356 . S
C513 C512 1.363 . S
C513 C519 1.363 . S
C514 C515 1.363 . S
C514 C519 1.379 . S
C514 N521 1.356 . S
C515 C514 1.363 . S
C515 C518 1.363 . S
N516 C518 1.356 . S
N516 H528 0.984 . S
N516 H529 0.985 . S
N517 C519 1.356 . S
N517 H522 0.984 . S
N517 H523 0.985 . S
C518 C512 1.379 . S
C518 C515 1.363 . S
C518 N516 1.356 . S
C519 C513 1.363 . S
C519 C514 1.379 . S
C519 N517 1.356 . S
N520 C512 1.356 . S
N520 H526 0.984 . S
N520 H527 0.984 . S
N521 C514 1.356 . S
N521 H524 0.984 . S
N521 H525 0.985 . S
H522 N517 0.984 . S
H523 N517 0.985 . S
H524 N521 0.984 . S
H525 N521 0.985 . S
H526 N520 0.984 . S
H527 N520 0.984 . S
H528 N516 0.984 . S
H529 N516 0.985 . S
C530 C531 1.363 . S
C530 C536 1.379 . S
C530 N538 1.356 . S
C531 C530 1.363 . S
C531 C537 1.363 . S
C532 C533 1.363 . S
C532 C537 1.379 . S
C532 N539 1.356 . S
C533 C532 1.363 . S
C533 C536 1.363 . S
N534 C536 1.356 . S
N534 H546 0.984 . S
N534 H547 0.985 . S
N535 C537 1.356 . S
N535 H540 0.984 . S
N535 H541 0.985 . S
C536 C530 1.379 . S
C536 C533 1.363 . S
C536 N534 1.356 . S
C537 C531 1.363 . S
C537 C532 1.379 . S
C537 N535 1.356 . S
N538 C530 1.356 . S
N538 H544 0.984 . S
N538 H545 0.984 . S
N539 C532 1.356 . S
N539 H542 0.984 . S
N539 H543 0.985 . S
H540 N535 0.984 . S
H541 N535 0.985 . S
H542 N539 0.984 . S
H543 N539 0.985 . S
H544 N538 0.984 . S
H545 N538 0.984 . S
H546 N534 0.984 . S
H547 N534 0.985 . S
C548 C549 1.363 . S
C548 C554 1.379 . S
C548 N556 1.356 . S
C549 C548 1.363 . S
C549 C555 1.363 . S
C550 C551 1.363 . S
C550 C555 1.379 . S
C550 N557 1.356 . S
C551 C550 1.363 . S
C551 C554 1.363 . S
N552 C554 1.356 . S
N552 H564 0.984 . S
N552 H565 0.985 . S
N553 C555 1.356 . S
N553 H558 0.984 . S
N553 H559 0.985 . S
C554 C548 1.379 . S
C554 C551 1.363 . S
C554 N552 1.356 . S
C555 C549 1.363 . S
C555 C550 1.379 . S
C555 N553 1.356 . S
N556 C548 1.356 . S
N556 H562 0.984 . S
N556 H563 0.984 . S
N557 C550 1.356 . S
N557 H560 0.984 . S
N557 H561 0.985 . S
H558 N553 0.984 . S
H559 N553 0.985 . S
H560 N557 0.984 . S
H561 N557 0.985 . S
H562 N556 0.984 . S
H563 N556 0.984 . S
H564 N552 0.984 . S
H565 N552 0.985 . S
C566 C567 1.363 . S
C566 C572 1.379 . S
C566 N574 1.356 . S
C567 C566 1.363 . S
C567 C573 1.363 . S
C568 C569 1.363 . S
C568 C573 1.379 . S
C568 N575 1.356 . S
C569 C568 1.363 . S
C569 C572 1.363 . S
N570 C572 1.356 . S
N570 H582 0.984 . S
N570 H583 0.985 . S
N571 C573 1.356 . S
N571 H576 0.984 . S
N571 H577 0.985 . S
C572 C566 1.379 . S
C572 C569 1.363 . S
C572 N570 1.356 . S
C573 C567 1.363 . S
C573 C568 1.379 . S
C573 N571 1.356 . S
N574 C566 1.356 . S
N574 H580 0.984 . S
N574 H581 0.984 . S
N575 C568 1.356 . S
N575 H578 0.984 . S
N575 H579 0.985 . S
H576 N571 0.984 . S
H577 N571 0.985 . S
H578 N575 0.984 . S
H579 N575 0.985 . S
H580 N574 0.984 . S
H581 N574 0.984 . S
H582 N570 0.984 . S
H583 N570 0.985 . S
C584 C585 1.363 . S
C584 C590 1.379 . S
C584 N592 1.356 . S
C585 C584 1.363 . S
C585 C591 1.363 . S
C586 C587 1.363 . S
C586 C591 1.379 . S
C586 N593 1.356 . S
C587 C586 1.363 . S
C587 C590 1.363 . S
N588 C590 1.356 . S
N588 H600 0.984 . S
N588 H601 0.985 . S
N589 C591 1.356 . S
N589 H594 0.984 . S
N589 H595 0.985 . S
C590 C584 1.379 . S
C590 C587 1.363 . S
C590 N588 1.356 . S
C591 C585 1.363 . S
C591 C586 1.379 . S
C591 N589 1.356 . S
N592 C584 1.356 . S
N592 H598 0.984 . S
N592 H599 0.984 . S
N593 C586 1.356 . S
N593 H596 0.984 . S
N593 H597 0.985 . S
H594 N589 0.984 . S
H595 N589 0.985 . S
H596 N593 0.984 . S
H597 N593 0.985 . S
H598 N592 0.984 . S
H599 N592 0.984 . S
H600 N588 0.984 . S
H601 N588 0.985 . S
C602 C603 1.363 . S
C602 C608 1.379 . S
C602 N610 1.356 . S
C603 C602 1.363 . S
C603 C609 1.363 . S
C604 C605 1.363 . S
C604 C609 1.379 . S
C604 N611 1.356 . S
C605 C604 1.363 . S
C605 C608 1.363 . S
N606 C608 1.356 . S
N606 H618 0.984 . S
N606 H619 0.985 . S
N607 C609 1.356 . S
N607 H612 0.984 . S
N607 H613 0.985 . S
C608 C602 1.379 . S
C608 C605 1.363 . S
C608 N606 1.356 . S
C609 C603 1.363 . S
C609 C604 1.379 . S
C609 N607 1.356 . S
N610 C602 1.356 . S
N610 H616 0.984 . S
N610 H617 0.984 . S
N611 C604 1.356 . S
N611 H614 0.984 . S
N611 H615 0.985 . S
H612 N607 0.984 . S
H613 N607 0.985 . S
H614 N611 0.984 . S
H615 N611 0.985 . S
H616 N610 0.984 . S
H617 N610 0.984 . S
H618 N606 0.984 . S
H619 N606 0.985 . S
C620 C621 1.363 . S
C620 C626 1.379 . S
C620 N628 1.356 . S
C621 C620 1.363 . S
C621 C627 1.363 . S
C622 C623 1.363 . S
C622 C627 1.379 . S
C622 N629 1.356 . S
C623 C622 1.363 . S
C623 C626 1.363 . S
N624 C626 1.356 . S
N624 H636 0.984 . S
N624 H637 0.985 . S
N625 C627 1.356 . S
N625 H630 0.984 . S
N625 H631 0.985 . S
C626 C620 1.379 . S
C626 C623 1.363 . S
C626 N624 1.356 . S
C627 C621 1.363 . S
C627 C622 1.379 . S
C627 N625 1.356 . S
N628 C620 1.356 . S
N628 H634 0.984 . S
N628 H635 0.984 . S
N629 C622 1.356 . S
N629 H632 0.984 . S
N629 H633 0.985 . S
H630 N625 0.984 . S
H631 N625 0.985 . S
H632 N629 0.984 . S
H633 N629 0.985 . S
H634 N628 0.984 . S
H635 N628 0.984 . S
H636 N624 0.984 . S
H637 N624 0.985 . S
C638 C639 1.363 . S
C638 C644 1.379 . S
C638 N646 1.356 . S
C639 C638 1.363 . S
C639 C645 1.363 . S
C640 C641 1.363 . S
C640 C645 1.379 . S
C640 N647 1.356 . S
C641 C640 1.363 . S
C641 C644 1.363 . S
N642 C644 1.356 . S
N642 H654 0.984 . S
N642 H655 0.985 . S
N643 C645 1.356 . S
N643 H648 0.984 . S
N643 H649 0.985 . S
C644 C638 1.379 . S
C644 C641 1.363 . S
C644 N642 1.356 . S
C645 C639 1.363 . S
C645 C640 1.379 . S
C645 N643 1.356 . S
N646 C638 1.356 . S
N646 H652 0.984 . S
N646 H653 0.984 . S
N647 C640 1.356 . S
N647 H650 0.984 . S
N647 H651 0.985 . S
H648 N643 0.984 . S
H649 N643 0.985 . S
H650 N647 0.984 . S
H651 N647 0.985 . S
H652 N646 0.984 . S
H653 N646 0.984 . S
H654 N642 0.984 . S
H655 N642 0.985 . S
C656 C657 1.363 . S
C656 C662 1.379 . S
C656 N664 1.356 . S
C657 C656 1.363 . S
C657 C663 1.363 . S
C658 C659 1.363 . S
C658 C663 1.379 . S
C658 N665 1.356 . S
C659 C658 1.363 . S
C659 C662 1.363 . S
N660 C662 1.356 . S
N660 H672 0.984 . S
N660 H673 0.985 . S
N661 C663 1.356 . S
N661 H666 0.984 . S
N661 H667 0.985 . S
C662 C656 1.379 . S
C662 C659 1.363 . S
C662 N660 1.356 . S
C663 C657 1.363 . S
C663 C658 1.379 . S
C663 N661 1.356 . S
N664 C656 1.356 . S
N664 H670 0.984 . S
N664 H671 0.984 . S
N665 C658 1.356 . S
N665 H668 0.984 . S
N665 H669 0.985 . S
H666 N661 0.984 . S
H667 N661 0.985 . S
H668 N665 0.984 . S
H669 N665 0.985 . S
H670 N664 0.984 . S
H671 N664 0.984 . S
H672 N660 0.984 . S
H673 N660 0.985 . S
C674 C675 1.363 . S
C674 C680 1.379 . S
C674 N682 1.356 . S
C675 C674 1.363 . S
C675 C681 1.363 . S
C676 C677 1.363 . S
C676 C681 1.379 . S
C676 N683 1.356 . S
C677 C676 1.363 . S
C677 C680 1.363 . S
N678 C680 1.356 . S
N678 H690 0.984 . S
N678 H691 0.985 . S
N679 C681 1.356 . S
N679 H684 0.984 . S
N679 H685 0.985 . S
C680 C674 1.379 . S
C680 C677 1.363 . S
C680 N678 1.356 . S
C681 C675 1.363 . S
C681 C676 1.379 . S
C681 N679 1.356 . S
N682 C674 1.356 . S
N682 H688 0.984 . S
N682 H689 0.984 . S
N683 C676 1.356 . S
N683 H686 0.984 . S
N683 H687 0.985 . S
H684 N679 0.984 . S
H685 N679 0.985 . S
H686 N683 0.984 . S
H687 N683 0.985 . S
H688 N682 0.984 . S
H689 N682 0.984 . S
H690 N678 0.984 . S
H691 N678 0.985 . S
C692 C693 1.363 . S
C692 C698 1.379 . S
C692 N700 1.356 . S
C693 C692 1.363 . S
C693 C699 1.363 . S
C694 C695 1.363 . S
C694 C699 1.379 . S
C694 N701 1.356 . S
C695 C694 1.363 . S
C695 C698 1.363 . S
N696 C698 1.356 . S
N696 H708 0.984 . S
N696 H709 0.985 . S
N697 C699 1.356 . S
N697 H702 0.984 . S
N697 H703 0.985 . S
C698 C692 1.379 . S
C698 C695 1.363 . S
C698 N696 1.356 . S
C699 C693 1.363 . S
C699 C694 1.379 . S
C699 N697 1.356 . S
N700 C692 1.356 . S
N700 H706 0.984 . S
N700 H707 0.984 . S
N701 C694 1.356 . S
N701 H704 0.984 . S
N701 H705 0.985 . S
H702 N697 0.984 . S
H703 N697 0.985 . S
H704 N701 0.984 . S
H705 N701 0.985 . S
H706 N700 0.984 . S
H707 N700 0.984 . S
H708 N696 0.984 . S
H709 N696 0.985 . S
C710 C711 1.363 . S
C710 C716 1.379 . S
C710 N718 1.356 . S
C711 C710 1.363 . S
C711 C717 1.363 . S
C712 C713 1.363 . S
C712 C717 1.379 . S
C712 N719 1.356 . S
C713 C712 1.363 . S
C713 C716 1.363 . S
N714 C716 1.356 . S
N714 H726 0.984 . S
N714 H727 0.985 . S
N715 C717 1.356 . S
N715 H720 0.984 . S
N715 H721 0.985 . S
C716 C710 1.379 . S
C716 C713 1.363 . S
C716 N714 1.356 . S
C717 C711 1.363 . S
C717 C712 1.379 . S
C717 N715 1.356 . S
N718 C710 1.356 . S
N718 H724 0.984 . S
N718 H725 0.984 . S
N719 C712 1.356 . S
N719 H722 0.984 . S
N719 H723 0.985 . S
H720 N715 0.984 . S
H721 N715 0.985 . S
H722 N719 0.984 . S
H723 N719 0.985 . S
H724 N718 0.984 . S
H725 N718 0.984 . S
H726 N714 0.984 . S
H727 N714 0.985 . S
C728 C729 1.363 . S
C728 C734 1.379 . S
C728 N736 1.356 . S
C729 C728 1.363 . S
C729 C735 1.363 . S
C730 C731 1.363 . S
C730 C735 1.379 . S
C730 N737 1.356 . S
C731 C730 1.363 . S
C731 C734 1.363 . S
N732 C734 1.356 . S
N732 H744 0.984 . S
N732 H745 0.985 . S
N733 C735 1.356 . S
N733 H738 0.984 . S
N733 H739 0.985 . S
C734 C728 1.379 . S
C734 C731 1.363 . S
C734 N732 1.356 . S
C735 C729 1.363 . S
C735 C730 1.379 . S
C735 N733 1.356 . S
N736 C728 1.356 . S
N736 H742 0.984 . S
N736 H743 0.984 . S
N737 C730 1.356 . S
N737 H740 0.984 . S
N737 H741 0.985 . S
H738 N733 0.984 . S
H739 N733 0.985 . S
H740 N737 0.984 . S
H741 N737 0.985 . S
H742 N736 0.984 . S
H743 N736 0.984 . S
H744 N732 0.984 . S
H745 N732 0.985 . S
C746 C747 1.363 . S
C746 C752 1.379 . S
C746 N754 1.356 . S
C747 C746 1.363 . S
C747 C753 1.363 . S
C748 C749 1.363 . S
C748 C753 1.379 . S
C748 N755 1.356 . S
C749 C748 1.363 . S
C749 C752 1.363 . S
N750 C752 1.356 . S
N750 H762 0.984 . S
N750 H763 0.985 . S
N751 C753 1.356 . S
N751 H756 0.984 . S
N751 H757 0.985 . S
C752 C746 1.379 . S
C752 C749 1.363 . S
C752 N750 1.356 . S
C753 C747 1.363 . S
C753 C748 1.379 . S
C753 N751 1.356 . S
N754 C746 1.356 . S
N754 H760 0.984 . S
N754 H761 0.984 . S
N755 C748 1.356 . S
N755 H758 0.984 . S
N755 H759 0.985 . S
H756 N751 0.984 . S
H757 N751 0.985 . S
H758 N755 0.984 . S
H759 N755 0.985 . S
H760 N754 0.984 . S
H761 N754 0.984 . S
H762 N750 0.984 . S
H763 N750 0.985 . S
C764 C765 1.363 . S
C764 C770 1.379 . S
C764 N772 1.356 . S
C765 C764 1.363 . S
C765 C771 1.363 . S
C766 C767 1.363 . S
C766 C771 1.379 . S
C766 N773 1.356 . S
C767 C766 1.363 . S
C767 C770 1.363 . S
N768 C770 1.356 . S
N768 H780 0.984 . S
N768 H781 0.985 . S
N769 C771 1.356 . S
N769 H774 0.984 . S
N769 H775 0.985 . S
C770 C764 1.379 . S
C770 C767 1.363 . S
C770 N768 1.356 . S
C771 C765 1.363 . S
C771 C766 1.379 . S
C771 N769 1.356 . S
N772 C764 1.356 . S
N772 H778 0.984 . S
N772 H779 0.984 . S
N773 C766 1.356 . S
N773 H776 0.984 . S
N773 H777 0.985 . S
H774 N769 0.984 . S
H775 N769 0.985 . S
H776 N773 0.984 . S
H777 N773 0.985 . S
H778 N772 0.984 . S
H779 N772 0.984 . S
H780 N768 0.984 . S
H781 N768 0.985 . S
C782 C783 1.363 . S
C782 C788 1.379 . S
C782 N790 1.356 . S
C783 C782 1.363 . S
C783 C789 1.363 . S
C784 C785 1.363 . S
C784 C789 1.379 . S
C784 N791 1.356 . S
C785 C784 1.363 . S
C785 C788 1.363 . S
N786 C788 1.356 . S
N786 H798 0.984 . S
N786 H799 0.985 . S
N787 C789 1.356 . S
N787 H792 0.984 . S
N787 H793 0.985 . S
C788 C782 1.379 . S
C788 C785 1.363 . S
C788 N786 1.356 . S
C789 C783 1.363 . S
C789 C784 1.379 . S
C789 N787 1.356 . S
N790 C782 1.356 . S
N790 H796 0.984 . S
N790 H797 0.984 . S
N791 C784 1.356 . S
N791 H794 0.984 . S
N791 H795 0.985 . S
H792 N787 0.984 . S
H793 N787 0.985 . S
H794 N791 0.984 . S
H795 N791 0.985 . S
H796 N790 0.984 . S
H797 N790 0.984 . S
H798 N786 0.984 . S
H799 N786 0.985 . S
C800 C801 1.363 . S
C800 C806 1.379 . S
C800 N808 1.356 . S
C801 C800 1.363 . S
C801 C807 1.363 . S
C802 C803 1.363 . S
C802 C807 1.379 . S
C802 N809 1.356 . S
C803 C802 1.363 . S
C803 C806 1.363 . S
N804 C806 1.356 . S
N804 H816 0.984 . S
N804 H817 0.985 . S
N805 C807 1.356 . S
N805 H810 0.984 . S
N805 H811 0.985 . S
C806 C800 1.379 . S
C806 C803 1.363 . S
C806 N804 1.356 . S
C807 C801 1.363 . S
C807 C802 1.379 . S
C807 N805 1.356 . S
N808 C800 1.356 . S
N808 H814 0.984 . S
N808 H815 0.984 . S
N809 C802 1.356 . S
N809 H812 0.984 . S
N809 H813 0.985 . S
H810 N805 0.984 . S
H811 N805 0.985 . S
H812 N809 0.984 . S
H813 N809 0.985 . S
H814 N808 0.984 . S
H815 N808 0.984 . S
H816 N804 0.984 . S
H817 N804 0.985 . S
C818 C819 1.363 . S
C818 C824 1.379 . S
C818 N826 1.356 . S
C819 C818 1.363 . S
C819 C825 1.363 . S
C820 C821 1.363 . S
C820 C825 1.379 . S
C820 N827 1.356 . S
C821 C820 1.363 . S
C821 C824 1.363 . S
N822 C824 1.356 . S
N822 H834 0.984 . S
N822 H835 0.985 . S
N823 C825 1.356 . S
N823 H828 0.984 . S
N823 H829 0.985 . S
C824 C818 1.379 . S
C824 C821 1.363 . S
C824 N822 1.356 . S
C825 C819 1.363 . S
C825 C820 1.379 . S
C825 N823 1.356 . S
N826 C818 1.356 . S
N826 H832 0.984 . S
N826 H833 0.984 . S
N827 C820 1.356 . S
N827 H830 0.984 . S
N827 H831 0.985 . S
H828 N823 0.984 . S
H829 N823 0.985 . S
H830 N827 0.984 . S
H831 N827 0.985 . S
H832 N826 0.984 . S
H833 N826 0.984 . S
H834 N822 0.984 . S
H835 N822 0.985 . S
C407 C332 1.516 . S
C405 C15 1.517 . S
C425 C335 1.478 . S
C423 C55 1.479 . S
C443 C333 1.536 . S
C441 C101 1.515 . S
C461 C334 1.501 . S
C459 C141 1.494 . S
C479 C349 1.502 . S
C477 C2 1.487 . S
C497 C363 1.499 . S
C495 C61 1.492 . S
C513 C95 1.517 . S
C515 C389 1.516 . S
C533 C403 1.496 . S
C531 C135 1.500 . S
C551 C348 1.491 . S
C549 C42 1.477 . S
C567 C82 1.505 . S
C569 C362 1.518 . S
C587 C388 1.508 . S
C585 C122 1.504 . S
C605 C402 1.522 . S
C603 C21 1.513 . S
C621 C162 1.492 . S
C623 C347 1.498 . S
C641 C320 1.533 . S
C639 C221 1.534 . S
C657 C255 1.483 . S
C659 C346 1.482 . S
C675 C282 1.502 . S
C677 C321 1.517 . S
C695 C376 1.519 . S
C693 C181 1.518 . S
C713 C390 1.513 . S
C711 C202 1.510 . S
C731 C360 1.496 . S
C729 C242 1.487 . S
C747 C301 1.513 . S
C749 C374 1.521 . S
C767 C377 1.520 . S
C765 C215 1.521 . S
C785 C391 1.508 . S
C783 C261 1.501 . S
C803 C361 1.500 . S
C801 C295 1.501 . S
C819 C175 1.499 . S
C821 C375 1.495 . S
