# Generated by pormake.
# Topology ocu, (6,8)-cn, num edge types: 1
# Building blocks:
#     Node 0, Type 0, BuildingBlock: KUMBOL_clean_sbu_0, # of connection points: 6
#     Node 1, Type 0, BuildingBlock: KUMBOL_clean_sbu_0, # of connection points: 6
#     Node 2, Type 0, BuildingBlock: KUMBOL_clean_sbu_0, # of connection points: 6
#     Node 3, Type 0, BuildingBlock: KUMBOL_clean_sbu_0, # of connection points: 6
#     Node 4, Type 0, BuildingBlock: KUMBOL_clean_sbu_0, # of connection points: 6
#     Node 5, Type 0, BuildingBlock: KUMBOL_clean_sbu_0, # of connection points: 6
#     Node 6, Type 0, BuildingBlock: KUMBOL_clean_sbu_0, # of connection points: 6
#     Node 7, Type 0, BuildingBlock: KUMBOL_clean_sbu_0, # of connection points: 6
#     Node 8, Type 1, BuildingBlock: GIZVER_clean_sbu_0, # of connection points: 8
#     Node 9, Type 1, BuildingBlock: GIZVER_clean_sbu_0, # of connection points: 8
#     Node 10, Type 1, BuildingBlock: GIZVER_clean_sbu_0, # of connection points: 8
#     Node 11, Type 1, BuildingBlock: GIZVER_clean_sbu_0, # of connection points: 8
#     Node 12, Type 1, BuildingBlock: GIZVER_clean_sbu_0, # of connection points: 8
#     Node 13, Type 1, BuildingBlock: GIZVER_clean_sbu_0, # of connection points: 8
#     Edge 14, Type (0, 1), BuildingBlock: CIFDUS_clean_linker_0, # of connection points: 2
#     Edge 15, Type (0, 1), BuildingBlock: CIFDUS_clean_linker_0, # of connection points: 2
#     Edge 16, Type (0, 1), BuildingBlock: CIFDUS_clean_linker_0, # of connection points: 2
#     Edge 17, Type (0, 1), BuildingBlock: CIFDUS_clean_linker_0, # of connection points: 2
#     Edge 18, Type (0, 1), BuildingBlock: CIFDUS_clean_linker_0, # of connection points: 2
#     Edge 19, Type (0, 1), BuildingBlock: CIFDUS_clean_linker_0, # of connection points: 2
#     Edge 20, Type (0, 1), BuildingBlock: CIFDUS_clean_linker_0, # of connection points: 2
#     Edge 21, Type (0, 1), BuildingBlock: CIFDUS_clean_linker_0, # of connection points: 2
#     Edge 22, Type (0, 1), BuildingBlock: CIFDUS_clean_linker_0, # of connection points: 2
#     Edge 23, Type (0, 1), BuildingBlock: CIFDUS_clean_linker_0, # of connection points: 2
#     Edge 24, Type (0, 1), BuildingBlock: CIFDUS_clean_linker_0, # of connection points: 2
#     Edge 25, Type (0, 1), BuildingBlock: CIFDUS_clean_linker_0, # of connection points: 2
#     Edge 26, Type (0, 1), BuildingBlock: CIFDUS_clean_linker_0, # of connection points: 2
#     Edge 27, Type (0, 1), BuildingBlock: CIFDUS_clean_linker_0, # of connection points: 2
#     Edge 28, Type (0, 1), BuildingBlock: CIFDUS_clean_linker_0, # of connection points: 2
#     Edge 29, Type (0, 1), BuildingBlock: CIFDUS_clean_linker_0, # of connection points: 2
#     Edge 30, Type (0, 1), BuildingBlock: CIFDUS_clean_linker_0, # of connection points: 2
#     Edge 31, Type (0, 1), BuildingBlock: CIFDUS_clean_linker_0, # of connection points: 2
#     Edge 32, Type (0, 1), BuildingBlock: CIFDUS_clean_linker_0, # of connection points: 2
#     Edge 33, Type (0, 1), BuildingBlock: CIFDUS_clean_linker_0, # of connection points: 2
#     Edge 34, Type (0, 1), BuildingBlock: CIFDUS_clean_linker_0, # of connection points: 2
#     Edge 35, Type (0, 1), BuildingBlock: CIFDUS_clean_linker_0, # of connection points: 2
#     Edge 36, Type (0, 1), BuildingBlock: CIFDUS_clean_linker_0, # of connection points: 2
#     Edge 37, Type (0, 1), BuildingBlock: CIFDUS_clean_linker_0, # of connection points: 2
#     Edge 38, Type (0, 1), BuildingBlock: CIFDUS_clean_linker_0, # of connection points: 2
#     Edge 39, Type (0, 1), BuildingBlock: CIFDUS_clean_linker_0, # of connection points: 2
#     Edge 40, Type (0, 1), BuildingBlock: CIFDUS_clean_linker_0, # of connection points: 2
#     Edge 41, Type (0, 1), BuildingBlock: CIFDUS_clean_linker_0, # of connection points: 2
#     Edge 42, Type (0, 1), BuildingBlock: CIFDUS_clean_linker_0, # of connection points: 2
#     Edge 43, Type (0, 1), BuildingBlock: CIFDUS_clean_linker_0, # of connection points: 2
#     Edge 44, Type (0, 1), BuildingBlock: CIFDUS_clean_linker_0, # of connection points: 2
#     Edge 45, Type (0, 1), BuildingBlock: CIFDUS_clean_linker_0, # of connection points: 2
#     Edge 46, Type (0, 1), BuildingBlock: CIFDUS_clean_linker_0, # of connection points: 2
#     Edge 47, Type (0, 1), BuildingBlock: CIFDUS_clean_linker_0, # of connection points: 2
#     Edge 48, Type (0, 1), BuildingBlock: CIFDUS_clean_linker_0, # of connection points: 2
#     Edge 49, Type (0, 1), BuildingBlock: CIFDUS_clean_linker_0, # of connection points: 2
#     Edge 50, Type (0, 1), BuildingBlock: CIFDUS_clean_linker_0, # of connection points: 2
#     Edge 51, Type (0, 1), BuildingBlock: CIFDUS_clean_linker_0, # of connection points: 2
#     Edge 52, Type (0, 1), BuildingBlock: CIFDUS_clean_linker_0, # of connection points: 2
#     Edge 53, Type (0, 1), BuildingBlock: CIFDUS_clean_linker_0, # of connection points: 2
#     Edge 54, Type (0, 1), BuildingBlock: CIFDUS_clean_linker_0, # of connection points: 2
#     Edge 55, Type (0, 1), BuildingBlock: CIFDUS_clean_linker_0, # of connection points: 2
#     Edge 56, Type (0, 1), BuildingBlock: CIFDUS_clean_linker_0, # of connection points: 2
#     Edge 57, Type (0, 1), BuildingBlock: CIFDUS_clean_linker_0, # of connection points: 2
#     Edge 58, Type (0, 1), BuildingBlock: CIFDUS_clean_linker_0, # of connection points: 2
#     Edge 59, Type (0, 1), BuildingBlock: CIFDUS_clean_linker_0, # of connection points: 2
#     Edge 60, Type (0, 1), BuildingBlock: CIFDUS_clean_linker_0, # of connection points: 2
#     Edge 61, Type (0, 1), BuildingBlock: CIFDUS_clean_linker_0, # of connection points: 2
# Relax obj value: 0.199
# Max RMSD: 0.298
# Mean RMSD: 0.217
data_MOF--net-ocu--node1-KUMBOL_clean_sbu_0--node2-GIZVER_clean_sbu_0--edge1-CIFDUS_clean_linker_0
_symmetry_space_group_name_H-M    P1
_symmetry_Int_Tables_number       1
_symmetry_cell_setting            triclinic
loop_
_symmetry_equiv_pos_as_xyz
'x, y, z'
_cell_length_a     38.615044
_cell_length_b     38.162409
_cell_length_c     30.982244
_cell_angle_alpha  82.85401
_cell_angle_beta   96.323609
_cell_angle_gamma 113.13535
loop_
_atom_site_label
_atom_site_type_symbol
_atom_site_fract_x
_atom_site_fract_y
_atom_site_fract_z
_atom_type_partial_charge
Gd0 Gd 0.32166 0.34519 0.315 0.0
Gd1 Gd 0.27529 0.2744 0.2433 0.0
C2 C 0.15131 0.22684 0.19465 0.0
C3 C 0.1259 0.16757 0.24118 0.0
C4 C 0.19233 0.2089 0.25005 0.0
C5 C 0.18709 0.23439 0.21666 0.0
C6 C 0.16156 0.17562 0.26338 0.0
C7 C 0.12082 0.19306 0.20678 0.0
C8 C 0.14722 0.25365 0.16139 0.0
C9 C 0.17836 0.28706 0.15104 0.0
N10 N 0.21684 0.26734 0.2068 0.0
C11 C 0.2132 0.29348 0.17426 0.0
H12 H 0.2373 0.31929 0.16612 0.0
C13 C 0.2325 0.19572 0.30733 0.0
N14 N 0.22705 0.21808 0.27135 0.0
C15 C 0.20286 0.16233 0.32168 0.0
C16 C 0.16733 0.15201 0.29938 0.0
H17 H 0.25934 0.20387 0.32588 0.0
H18 H 0.0931 0.18666 0.19021 0.0
H19 H 0.34381 0.29094 0.39615 0.0
H20 H 0.12021 0.24886 0.1436 0.0
H21 H 0.17555 0.30792 0.12531 0.0
H22 H 0.10196 0.14202 0.25078 0.0
H23 H 0.35021 0.42461 0.24543 0.0
H24 H 0.46261 0.34301 0.43006 0.0
H25 H 0.40026 0.29137 0.443 0.0
H26 H 0.50336 0.45535 0.32921 0.0
H27 H 0.20736 0.14474 0.3502 0.0
H28 H 0.14437 0.12627 0.3108 0.0
H29 H 0.50098 0.4041 0.38706 0.0
H30 H 0.40943 0.47928 0.22863 0.0
N31 N 0.37425 0.34151 0.35732 0.0
C32 C 0.43797 0.34305 0.40964 0.0
C33 C 0.40279 0.31391 0.41718 0.0
C34 C 0.44082 0.3722 0.37623 0.0
C35 C 0.40785 0.371 0.35082 0.0
C36 C 0.37099 0.31359 0.39049 0.0
N37 N 0.37627 0.39866 0.2963 0.0
C38 C 0.40892 0.4006 0.31946 0.0
C39 C 0.40961 0.45743 0.25441 0.0
C40 C 0.44341 0.4598 0.27786 0.0
C41 C 0.37604 0.42656 0.26423 0.0
C42 C 0.44337 0.4312 0.31091 0.0
H43 H 0.46935 0.48369 0.27007 0.0
O44 O 0.325 0.39206 0.35041 0.0
O45 O 0.27704 0.33248 0.25745 0.0
O46 O 0.31981 0.32772 0.21177 0.0
O47 O 0.36263 0.34374 0.26997 0.0
O48 O 0.29071 0.38355 0.27885 0.0
O49 O 0.30404 0.3337 0.38116 0.0
O50 O 0.27921 0.23095 0.20801 0.0
O51 O 0.32091 0.28755 0.30032 0.0
O52 O 0.27459 0.29286 0.34389 0.0
O53 O 0.23341 0.27943 0.28401 0.0
O54 O 0.30849 0.23747 0.27665 0.0
O55 O 0.2841 0.28605 0.17389 0.0
C56 C 0.26713 0.3621 0.25085 0.0
C57 C 0.47657 0.43206 0.33528 0.0
C58 C 0.47526 0.40277 0.36808 0.0
C59 C 0.31244 0.3697 0.38543 0.0
C60 C 0.32943 0.38383 0.42767 0.0
C61 C 0.36744 0.39207 0.44146 0.0
C62 C 0.30626 0.39041 0.4543 0.0
C63 C 0.32057 0.40579 0.49425 0.0
C64 C 0.38179 0.40665 0.48184 0.0
C65 C 0.35854 0.41388 0.50813 0.0
C66 C 0.35502 0.3432 0.22775 0.0
C67 C 0.33132 0.25816 0.3057 0.0
C68 C 0.28343 0.25204 0.17106 0.0
C69 C 0.26589 0.23247 0.13192 0.0
C70 C 0.22871 0.22536 0.11517 0.0
C71 C 0.28794 0.2188 0.11207 0.0
C72 C 0.27391 0.19824 0.07543 0.0
C73 C 0.2143 0.20474 0.07836 0.0
C74 C 0.23677 0.19091 0.05853 0.0
C75 C 0.23969 0.28034 0.32635 0.0
H76 H 0.3861 0.38789 0.42119 0.0
H77 H 0.27715 0.38498 0.44292 0.0
H78 H 0.41113 0.41301 0.49238 0.0
H79 H 0.37013 0.42604 0.53885 0.0
H80 H 0.21079 0.23508 0.13041 0.0
H81 H 0.31633 0.22354 0.12603 0.0
H82 H 0.18562 0.19923 0.06543 0.0
H83 H 0.2254 0.17484 0.03026 0.0
Gd84 Gd 0.76617 0.33007 0.29962 0.0
Gd85 Gd 0.82644 0.27611 0.28992 0.0
C86 C 0.95243 0.32701 0.26617 0.0
C87 C 0.95225 0.34423 0.18808 0.0
C88 C 0.8929 0.31286 0.22325 0.0
C89 C 0.91258 0.31235 0.26313 0.0
C90 C 0.91262 0.32865 0.18513 0.0
C91 C 0.97213 0.34335 0.22852 0.0
C92 C 0.97131 0.3245 0.30692 0.0
C93 C 0.9505 0.30697 0.34319 0.0
N94 N 0.8928 0.29708 0.29897 0.0
C95 C 0.9111 0.29297 0.33852 0.0
H96 H 0.89513 0.2794 0.3668 0.0
C97 C 0.83442 0.29735 0.18226 0.0
N98 N 0.85455 0.29829 0.22174 0.0
C99 C 0.85275 0.31241 0.1437 0.0
C100 C 0.89201 0.32841 0.14513 0.0
H101 H 0.80415 0.28635 0.1796 0.0
H102 H 1.00271 0.35508 0.23027 0.0
H103 H 0.71591 0.34822 0.21086 0.0
H104 H 1.00186 0.33544 0.31059 0.0
H105 H 0.96477 0.30431 0.37477 0.0
H106 H 0.96779 0.35676 0.15922 0.0
H107 H 0.76404 0.31413 0.41078 0.0
H108 H 0.5984 0.28703 0.23086 0.0
H109 H 0.64894 0.32933 0.18358 0.0
H110 H 0.59892 0.23856 0.38107 0.0
H111 H 0.83648 0.31206 0.11287 0.0
H112 H 0.90609 0.34037 0.1152 0.0
H113 H 0.58001 0.25226 0.30443 0.0
H114 H 0.7177 0.28057 0.46469 0.0
N115 N 0.70316 0.31678 0.27274 0.0
C116 C 0.62767 0.29544 0.24302 0.0
C117 C 0.65609 0.31947 0.21632 0.0
C118 C 0.63733 0.28376 0.28568 0.0
C119 C 0.67587 0.29549 0.29992 0.0
C120 C 0.69389 0.3303 0.23193 0.0
N121 N 0.7239 0.30237 0.35587 0.0
C122 C 0.68658 0.28789 0.34289 0.0
C123 C 0.70853 0.28217 0.43047 0.0
C124 C 0.67044 0.26465 0.41715 0.0
C125 C 0.73491 0.30143 0.39938 0.0
C126 C 0.65889 0.2682 0.37303 0.0
H127 H 0.65009 0.24973 0.44132 0.0
O128 O 0.79827 0.38198 0.33218 0.0
O129 O 0.81697 0.3293 0.27515 0.0
O130 O 0.85546 0.31907 0.34083 0.0
O131 O 0.80821 0.33804 0.35844 0.0
O132 O 0.79034 0.35818 0.23415 0.0
O133 O 0.75391 0.38115 0.28358 0.0
O134 O 0.79592 0.21899 0.2686 0.0
O135 O 0.77574 0.27622 0.31666 0.0
O136 O 0.73513 0.28708 0.25016 0.0
O137 O 0.7749 0.25546 0.24201 0.0
O138 O 0.81051 0.25611 0.35899 0.0
O139 O 0.8447 0.22987 0.31395 0.0
C140 C 0.82007 0.35017 0.24021 0.0
C141 C 0.62052 0.2542 0.3585 0.0
C142 C 0.60975 0.26202 0.31488 0.0
C143 C 0.78449 0.40251 0.30464 0.0
C144 C 0.81195 0.43428 0.27815 0.0
C145 C 0.84993 0.45224 0.29323 0.0
C146 C 0.80133 0.44268 0.23466 0.0
C147 C 0.82809 0.46598 0.20537 0.0
C148 C 0.87652 0.47742 0.26478 0.0
C149 C 0.86576 0.48419 0.22086 0.0
C150 C 0.84249 0.33722 0.36496 0.0
C151 C 0.77876 0.26049 0.35432 0.0
C152 C 0.81432 0.20394 0.29756 0.0
C153 C 0.79134 0.1729 0.3287 0.0
C154 C 0.75565 0.1463 0.3156 0.0
C155 C 0.80442 0.1708 0.37263 0.0
C156 C 0.78259 0.14294 0.4034 0.0
C157 C 0.73374 0.11827 0.34603 0.0
C158 C 0.74712 0.11645 0.38976 0.0
C159 C 0.74317 0.26152 0.23252 0.0
H160 H 0.85923 0.44603 0.32652 0.0
H161 H 0.77199 0.42971 0.22281 0.0
H162 H 0.90575 0.49091 0.27655 0.0
H163 H 0.88679 0.50286 0.19898 0.0
H164 H 0.74467 0.14719 0.28198 0.0
H165 H 0.8324 0.19034 0.38289 0.0
H166 H 0.70637 0.09777 0.33562 0.0
H167 H 0.73015 0.09412 0.4127 0.0
Gd168 Gd 0.79554 0.77479 0.32226 0.0
Gd169 Gd 0.82095 0.85071 0.24808 0.0
C170 C 0.92573 0.86985 0.17716 0.0
C171 C 0.97107 0.92893 0.20409 0.0
C172 C 0.90672 0.90212 0.22689 0.0
C173 C 0.89852 0.87089 0.20343 0.0
C174 C 0.94276 0.93209 0.22626 0.0
C175 C 0.96248 0.89798 0.17928 0.0
C176 C 0.91455 0.84222 0.14725 0.0
C177 C 0.87676 0.81759 0.1428 0.0
N178 N 0.86262 0.84424 0.20182 0.0
C179 C 0.85104 0.8192 0.17019 0.0
H180 H 0.82205 0.79976 0.16605 0.0
C181 C 0.88284 0.93939 0.26073 0.0
N182 N 0.87818 0.90531 0.24592 0.0
C183 C 0.9183 0.96937 0.26202 0.0
C184 C 0.94863 0.96538 0.2456 0.0
H185 H 0.85951 0.94307 0.27304 0.0
H186 H 0.98392 0.89711 0.1601 0.0
H187 H 0.85622 0.78774 0.41368 0.0
H188 H 0.93445 0.84074 0.12617 0.0
H189 H 0.86745 0.79698 0.11867 0.0
H190 H 0.99905 0.95139 0.20382 0.0
H191 H 0.70292 0.75565 0.28443 0.0
H192 H 0.80846 0.81973 0.51206 0.0
H193 H 0.86128 0.80865 0.48634 0.0
H194 H 0.68296 0.79721 0.45384 0.0
H195 H 0.92213 0.99563 0.2754 0.0
H196 H 0.97594 0.98891 0.24596 0.0
H197 H 0.74216 0.81504 0.49964 0.0
H198 H 0.6456 0.75353 0.31177 0.0
N199 N 0.8035 0.79325 0.39418 0.0
C200 C 0.80663 0.81201 0.47913 0.0
C201 C 0.83653 0.80595 0.46471 0.0
C202 C 0.77371 0.80542 0.45199 0.0
C203 C 0.77263 0.79542 0.40923 0.0
C204 C 0.83386 0.79508 0.42272 0.0
N205 N 0.73818 0.77549 0.34202 0.0
C206 C 0.73899 0.78531 0.38311 0.0
C207 C 0.67166 0.76259 0.33214 0.0
C208 C 0.67228 0.77335 0.37358 0.0
C209 C 0.70485 0.76394 0.31673 0.0
C210 C 0.7061 0.7851 0.39951 0.0
H211 H 0.64653 0.77271 0.38514 0.0
O212 O 0.75809 0.71851 0.34812 0.0
O213 O 0.83835 0.79873 0.26903 0.0
O214 O 0.7782 0.80115 0.21263 0.0
O215 O 0.75634 0.75079 0.26521 0.0
O216 O 0.8073 0.74087 0.27297 0.0
O217 O 0.81887 0.73638 0.35846 0.0
O218 O 0.82657 0.89296 0.19267 0.0
O219 O 0.77843 0.82668 0.30157 0.0
O220 O 0.85595 0.81439 0.34126 0.0
O221 O 0.85807 0.87184 0.30722 0.0
O222 O 0.80961 0.88384 0.29917 0.0
O223 O 0.77144 0.85861 0.21601 0.0
C224 C 0.83436 0.76705 0.25226 0.0
C225 C 0.70778 0.79664 0.44119 0.0
C226 C 0.74152 0.80696 0.46721 0.0
C227 C 0.78599 0.71034 0.36739 0.0
C228 C 0.78305 0.69321 0.41244 0.0
C229 C 0.75428 0.68993 0.43867 0.0
C230 C 0.81059 0.67934 0.42913 0.0
C231 C 0.81015 0.66221 0.47152 0.0
C232 C 0.75326 0.67206 0.48117 0.0
C233 C 0.7809 0.65772 0.49751 0.0
C234 C 0.75538 0.76604 0.22493 0.0
C235 C 0.78305 0.85757 0.32063 0.0
C236 C 0.79035 0.88248 0.18518 0.0
C237 C 0.77464 0.87425 0.14059 0.0
C238 C 0.79106 0.86107 0.11119 0.0
C239 C 0.74213 0.88077 0.12713 0.0
C240 C 0.72685 0.87651 0.08416 0.0
C241 C 0.77397 0.85359 0.06918 0.0
C242 C 0.7418 0.86146 0.05544 0.0
C243 C 0.8708 0.8521 0.33749 0.0
H244 H 0.73273 0.70085 0.42643 0.0
H245 H 0.83263 0.68161 0.40867 0.0
H246 H 0.73103 0.66929 0.5014 0.0
H247 H 0.77993 0.64396 0.53037 0.0
H248 H 0.81708 0.85712 0.1202 0.0
H249 H 0.72993 0.8918 0.14954 0.0
H250 H 0.78648 0.84308 0.04677 0.0
H251 H 0.72982 0.85755 0.02229 0.0
Gd252 Gd 0.26955 0.8216 0.27213 0.0
Gd253 Gd 0.31437 0.75337 0.2917 0.0
C254 C 0.23509 0.6334 0.34387 0.0
C255 C 0.26217 0.62819 0.41754 0.0
C256 C 0.28764 0.6877 0.37084 0.0
C257 C 0.26217 0.67122 0.33701 0.0
C258 C 0.28721 0.6665 0.41183 0.0
C259 C 0.23614 0.61167 0.38361 0.0
C260 C 0.20611 0.61927 0.3118 0.0
C261 C 0.20273 0.64357 0.27579 0.0
N262 N 0.26075 0.69363 0.2996 0.0
C263 C 0.22956 0.68095 0.27096 0.0
H264 H 0.22321 0.69946 0.24547 0.0
C265 C 0.33314 0.74328 0.39953 0.0
N266 N 0.31035 0.72537 0.36501 0.0
C267 C 0.33358 0.72341 0.44046 0.0
C268 C 0.31085 0.68477 0.44656 0.0
H269 H 0.35226 0.77266 0.39618 0.0
H270 H 0.2158 0.5826 0.38912 0.0
H271 H 0.34811 0.9005 0.27682 0.0
H272 H 0.18478 0.59056 0.31596 0.0
H273 H 0.17876 0.63395 0.25231 0.0
H274 H 0.26171 0.61155 0.44864 0.0
H275 H 0.18204 0.78373 0.22686 0.0
H276 H 0.35099 0.9725 0.15875 0.0
H277 H 0.3794 0.96071 0.23181 0.0
H278 H 0.23215 0.90617 0.08342 0.0
H279 H 0.3519 0.73793 0.46723 0.0
H280 H 0.31118 0.6695 0.47843 0.0
H281 H 0.29648 0.95116 0.10272 0.0
H282 H 0.14433 0.79626 0.16142 0.0
N283 N 0.30307 0.87766 0.22919 0.0
C284 C 0.33719 0.94591 0.1783 0.0
C285 C 0.35325 0.93941 0.21956 0.0
C286 C 0.30276 0.91865 0.16349 0.0
C287 C 0.28592 0.88454 0.1903 0.0
C288 C 0.3355 0.90513 0.2449 0.0
N289 N 0.23323 0.82862 0.20805 0.0
C290 C 0.24981 0.8592 0.17934 0.0
C291 C 0.17406 0.81392 0.16582 0.0
C292 C 0.19132 0.84376 0.13454 0.0
C293 C 0.19547 0.80683 0.20273 0.0
C294 C 0.22947 0.86727 0.14141 0.0
H295 H 0.17465 0.8492 0.10599 0.0
O296 O 0.22268 0.83232 0.29234 0.0
O297 O 0.27263 0.77167 0.31603 0.0
O298 O 0.28291 0.74124 0.22669 0.0
O299 O 0.25718 0.78829 0.21185 0.0
O300 O 0.21928 0.76985 0.29698 0.0
O301 O 0.2803 0.86847 0.3111 0.0
O302 O 0.36653 0.75117 0.3216 0.0
O303 O 0.32117 0.81241 0.26344 0.0
O304 O 0.3163 0.84152 0.32571 0.0
O305 O 0.3513 0.80369 0.32758 0.0
O306 O 0.34416 0.78569 0.22992 0.0
O307 O 0.33848 0.71738 0.26734 0.0
C308 C 0.23794 0.75219 0.32069 0.0
C309 C 0.24714 0.89975 0.11301 0.0
C310 C 0.28377 0.92539 0.12401 0.0
C311 C 0.24505 0.8639 0.30884 0.0
C312 C 0.23788 0.89873 0.29488 0.0
C313 C 0.22104 0.9047 0.25363 0.0
C314 C 0.24836 0.92669 0.32413 0.0
C315 C 0.23884 0.95888 0.31454 0.0
C316 C 0.21471 0.93835 0.24215 0.0
C317 C 0.22303 0.96513 0.27258 0.0
C318 C 0.26341 0.75858 0.20127 0.0
C319 C 0.3391 0.81723 0.22979 0.0
C320 C 0.36915 0.73049 0.29288 0.0
C321 C 0.40523 0.74511 0.27246 0.0
C322 C 0.43216 0.78226 0.27786 0.0
C323 C 0.41307 0.72123 0.24784 0.0
C324 C 0.448 0.73351 0.22955 0.0
C325 C 0.46692 0.79473 0.25977 0.0
C326 C 0.47506 0.77044 0.23612 0.0
C327 C 0.34528 0.83217 0.3408 0.0
H328 H 0.21226 0.88337 0.23059 0.0
H329 H 0.26187 0.92203 0.35568 0.0
H330 H 0.20169 0.94282 0.2103 0.0
H331 H 0.21485 0.98933 0.26407 0.0
H332 H 0.42659 0.80158 0.2963 0.0
H333 H 0.39167 0.69312 0.24278 0.0
H334 H 0.48774 0.82316 0.26442 0.0
H335 H 0.50267 0.78052 0.22344 0.0
Gd336 Gd 0.28622 0.83854 0.77839 0.0
Gd337 Gd 0.32541 0.76818 0.8042 0.0
C338 C 0.40708 0.76847 0.70746 0.0
C339 C 0.37286 0.70782 0.67624 0.0
C340 C 0.34674 0.72596 0.73362 0.0
C341 C 0.37729 0.76015 0.73456 0.0
C342 C 0.34464 0.69873 0.70554 0.0
C343 C 0.40409 0.74271 0.67719 0.0
C344 C 0.4396 0.80148 0.71307 0.0
C345 C 0.44248 0.82399 0.74658 0.0
N346 N 0.37937 0.7837 0.76487 0.0
C347 C 0.41215 0.81427 0.77276 0.0
H348 H 0.4147 0.83201 0.79841 0.0
C349 C 0.29378 0.682 0.76925 0.0
N350 N 0.32045 0.7182 0.76281 0.0
C351 C 0.2901 0.65403 0.74187 0.0
C352 C 0.31516 0.6627 0.70918 0.0
H353 H 0.27482 0.67481 0.795 0.0
H354 H 0.42641 0.74881 0.65563 0.0
H355 H 0.26084 0.85154 0.67152 0.0
H356 H 0.46312 0.809 0.69289 0.0
H357 H 0.46793 0.84897 0.75211 0.0
H358 H 0.37154 0.68752 0.65395 0.0
H359 H 0.26179 0.82888 0.88377 0.0
H360 H 0.14446 0.83502 0.65951 0.0
H361 H 0.20398 0.84874 0.62569 0.0
H362 H 0.11109 0.81584 0.80718 0.0
H363 H 0.26811 0.62577 0.74616 0.0
H364 H 0.31246 0.64093 0.68822 0.0
H365 H 0.11011 0.82266 0.72722 0.0
H366 H 0.20642 0.8203 0.92131 0.0
N367 N 0.23368 0.83732 0.73131 0.0
C368 C 0.16933 0.83576 0.67998 0.0
C369 C 0.20285 0.84351 0.66076 0.0
C370 C 0.16854 0.8301 0.72541 0.0
C371 C 0.2017 0.83137 0.75068 0.0
C372 C 0.23508 0.84484 0.68701 0.0
N373 N 0.23493 0.82969 0.81961 0.0
C374 C 0.20243 0.82781 0.79595 0.0
C375 C 0.20494 0.82248 0.88604 0.0
C376 C 0.17132 0.81974 0.86229 0.0
C377 C 0.23664 0.82767 0.86419 0.0
C378 C 0.16973 0.82252 0.81677 0.0
H379 H 0.14679 0.81552 0.87941 0.0
O380 O 0.33436 0.89217 0.78529 0.0
O381 O 0.33764 0.82703 0.76982 0.0
O382 O 0.35943 0.82135 0.83765 0.0
O383 O 0.31503 0.84566 0.84626 0.0
O384 O 0.31241 0.8434 0.71432 0.0
O385 O 0.27966 0.89318 0.76699 0.0
O386 O 0.31323 0.72853 0.86233 0.0
O387 O 0.28102 0.78705 0.82463 0.0
O388 O 0.25072 0.78775 0.73973 0.0
O389 O 0.28896 0.75286 0.74222 0.0
O390 O 0.26578 0.72939 0.82056 0.0
O391 O 0.37085 0.75927 0.84616 0.0
C392 C 0.34221 0.83721 0.72908 0.0
C393 C 0.13645 0.82019 0.79166 0.0
C394 C 0.13586 0.82398 0.74613 0.0
C395 C 0.31579 0.91314 0.76959 0.0
C396 C 0.33206 0.94067 0.73215 0.0
C397 C 0.37135 0.95979 0.73057 0.0
C398 C 0.30859 0.94695 0.69693 0.0
C399 C 0.32376 0.97125 0.65987 0.0
C400 C 0.38676 0.98322 0.69344 0.0
C401 C 0.36315 0.9889 0.65812 0.0
C402 C 0.3476 0.84238 0.85802 0.0
C403 C 0.25334 0.75432 0.82904 0.0
C404 C 0.34838 0.73727 0.87523 0.0
C405 C 0.35929 0.7461 0.9207 0.0
C406 C 0.3388 0.75937 0.94481 0.0
C407 C 0.39054 0.73961 0.94074 0.0
C408 C 0.40084 0.74458 0.98494 0.0
C409 C 0.34956 0.76524 0.98889 0.0
C410 C 0.38023 0.75728 0.00926 0.0
C411 C 0.25859 0.75974 0.72766 0.0
H412 H 0.39013 0.95621 0.75783 0.0
H413 H 0.27829 0.93387 0.69911 0.0
H414 H 0.41708 0.99734 0.69223 0.0
H415 H 0.37563 1.00777 0.63001 0.0
H416 H 0.31462 0.76501 0.92975 0.0
H417 H 0.40587 0.72861 0.92235 0.0
H418 H 0.33356 0.77512 0.00751 0.0
H419 H 0.38732 0.76019 0.04379 0.0
Gd420 Gd 0.33692 0.31083 0.74017 0.0
Gd421 Gd 0.28241 0.27795 0.84058 0.0
C422 C 0.27698 0.16956 0.92537 0.0
C423 C 0.21221 0.12601 0.91039 0.0
C424 C 0.23436 0.19184 0.87825 0.0
C425 C 0.26956 0.1987 0.89849 0.0
C426 C 0.20487 0.15568 0.88465 0.0
C427 C 0.24836 0.13288 0.93052 0.0
C428 C 0.31283 0.17841 0.94657 0.0
C429 C 0.33877 0.21628 0.94409 0.0
N430 N 0.29618 0.23457 0.89335 0.0
C431 C 0.32937 0.24438 0.91828 0.0
H432 H 0.34979 0.27338 0.91619 0.0
C433 C 0.19329 0.21693 0.83609 0.0
N434 N 0.22871 0.22113 0.85341 0.0
C435 C 0.163 0.18164 0.84153 0.0
C436 C 0.16889 0.15072 0.8655 0.0
H437 H 0.18844 0.24033 0.81686 0.0
H438 H 0.25361 0.11002 0.95085 0.0
H439 H 0.26794 0.30959 0.66341 0.0
H440 H 0.32052 0.15636 0.96507 0.0
H441 H 0.36646 0.22375 0.96072 0.0
H442 H 0.19005 0.09788 0.91541 0.0
H443 H 0.43044 0.35329 0.76176 0.0
H444 H 0.29038 0.42472 0.61168 0.0
H445 H 0.24845 0.35603 0.61584 0.0
H446 H 0.41942 0.49143 0.66154 0.0
H447 H 0.1352 0.17826 0.82695 0.0
H448 H 0.14542 0.1234 0.86958 0.0
H449 H 0.35528 0.47488 0.62603 0.0
H450 H 0.48116 0.41726 0.75015 0.0
N451 N 0.31977 0.35147 0.68651 0.0
C452 C 0.29956 0.40412 0.63096 0.0
C453 C 0.27573 0.36549 0.63374 0.0
C454 C 0.33531 0.41561 0.65279 0.0
C455 C 0.34465 0.38814 0.68067 0.0
C456 C 0.28678 0.33923 0.66115 0.0
N457 N 0.38798 0.36952 0.726 0.0
C458 C 0.38018 0.39745 0.70086 0.0
C459 C 0.45282 0.41213 0.73616 0.0
C460 C 0.44466 0.44176 0.71209 0.0
C461 C 0.42409 0.37585 0.74243 0.0
C462 C 0.40805 0.4345 0.69353 0.0
H463 H 0.46693 0.46984 0.70729 0.0
O464 O 0.37592 0.29221 0.71274 0.0
O465 O 0.32356 0.27087 0.80035 0.0
O466 O 0.34318 0.31753 0.85428 0.0
O467 O 0.36204 0.35543 0.78917 0.0
O468 O 0.3781 0.2898 0.7809 0.0
O469 O 0.31811 0.27491 0.68624 0.0
O470 O 0.2466 0.30291 0.86416 0.0
O471 O 0.29667 0.31834 0.78078 0.0
O472 O 0.27603 0.26998 0.72746 0.0
O473 O 0.25804 0.23258 0.79309 0.0
O474 O 0.24186 0.2994 0.79901 0.0
O475 O 0.30064 0.30949 0.89818 0.0
C476 C 0.35534 0.26815 0.80933 0.0
C477 C 0.39858 0.46263 0.66722 0.0
C478 C 0.3621 0.45324 0.64704 0.0
C479 C 0.35091 0.27338 0.68349 0.0
C480 C 0.36329 0.27627 0.63927 0.0
C481 C 0.36149 0.30527 0.60764 0.0
C482 C 0.37567 0.24856 0.62811 0.0
C483 C 0.38573 0.24933 0.58539 0.0
C484 C 0.37148 0.30633 0.56535 0.0
C485 C 0.38334 0.27857 0.5542 0.0
C486 C 0.36569 0.34872 0.83215 0.0
C487 C 0.26508 0.32119 0.77109 0.0
C488 C 0.2707 0.31766 0.89622 0.0
C489 C 0.25634 0.32084 0.93734 0.0
C490 C 0.2641 0.30235 0.97705 0.0
C491 C 0.23747 0.3459 0.93727 0.0
C492 C 0.22723 0.3533 0.9765 0.0
C493 C 0.25378 0.30931 0.01603 0.0
C494 C 0.23578 0.33481 0.01589 0.0
C495 C 0.2537 0.23905 0.75025 0.0
H496 H 0.3521 0.32684 0.61556 0.0
H497 H 0.37678 0.22598 0.6525 0.0
H498 H 0.36998 0.32875 0.54103 0.0
H499 H 0.39127 0.28037 0.52133 0.0
H500 H 0.27865 0.28305 0.97805 0.0
H501 H 0.23166 0.3605 0.90673 0.0
H502 H 0.26003 0.29511 0.04656 0.0
H503 H 0.22795 0.33958 0.04651 0.0
Gd504 Gd 0.80396 0.31193 0.76733 0.0
Gd505 Gd 0.83674 0.2398 0.82591 0.0
C506 C 0.76553 0.1617 0.93521 0.0
C507 C 0.80634 0.1835 1.00001 0.0
C508 C 0.82683 0.21297 0.9281 0.0
C509 C 0.79288 0.18972 0.90917 0.0
C510 C 0.83459 0.20912 0.97363 0.0
C511 C 0.77181 0.15977 0.98079 0.0
C512 C 0.73365 0.13522 0.91459 0.0
C513 C 0.73053 0.13605 0.86923 0.0
N514 N 0.78822 0.19184 0.86503 0.0
C515 C 0.75849 0.1643 0.84488 0.0
H516 H 0.75548 0.16422 0.80994 0.0
C517 C 0.89024 0.25379 0.91793 0.0
N518 N 0.85375 0.23639 0.9015 0.0
C519 C 0.89934 0.2511 0.96287 0.0
C520 C 0.87116 0.22939 0.99097 0.0
H521 H 0.91205 0.27088 0.89624 0.0
H522 H 0.75087 0.13889 1.00133 0.0
H523 H 0.88087 0.38515 0.73339 0.0
H524 H 0.71202 0.11324 0.93337 0.0
H525 H 0.70654 0.11501 0.85293 0.0
H526 H 0.81155 0.18054 0.0351 0.0
H527 H 0.71137 0.26909 0.74686 0.0
H528 H 0.86683 0.40822 0.59527 0.0
H529 H 0.90542 0.42286 0.66485 0.0
H530 H 0.73757 0.32819 0.56249 0.0
H531 H 0.92799 0.26593 0.97577 0.0
H532 H 0.87828 0.22716 0.02575 0.0
H533 H 0.80401 0.37211 0.55709 0.0
H534 H 0.66426 0.2585 0.68367 0.0
N535 N 0.83019 0.34762 0.70273 0.0
C536 C 0.85614 0.39125 0.62521 0.0
C537 C 0.87803 0.39953 0.66438 0.0
C538 C 0.81964 0.36299 0.62572 0.0
C539 C 0.80702 0.3421 0.66573 0.0
C540 C 0.86427 0.37768 0.7031 0.0
N541 N 0.75783 0.30181 0.70883 0.0
C542 C 0.76948 0.31858 0.66893 0.0
C543 C 0.6938 0.27534 0.67904 0.0
C544 C 0.70557 0.29113 0.6374 0.0
C545 C 0.72043 0.28132 0.7147 0.0
C546 C 0.74375 0.31355 0.63202 0.0
H547 H 0.68489 0.28653 0.60985 0.0
O548 O 0.76759 0.3396 0.78162 0.0
O549 O 0.78799 0.25699 0.8105 0.0
O550 O 0.79813 0.21421 0.7658 0.0
O551 O 0.7828 0.26144 0.72237 0.0
O552 O 0.75902 0.28976 0.81657 0.0
O553 O 0.82868 0.37101 0.78223 0.0
O554 O 0.88023 0.21621 0.8389 0.0
O555 O 0.84853 0.28817 0.77422 0.0
O556 O 0.85467 0.34059 0.81678 0.0
O557 O 0.85124 0.29012 0.86846 0.0
O558 O 0.89524 0.2814 0.80605 0.0
O559 O 0.83436 0.1931 0.7909 0.0
C560 C 0.76361 0.25928 0.8331 0.0
C561 C 0.75679 0.33193 0.59136 0.0
C562 C 0.79467 0.35678 0.58825 0.0
C563 C 0.79593 0.37222 0.78657 0.0
C564 C 0.79036 0.40703 0.76834 0.0
C565 C 0.79262 0.41958 0.72384 0.0
C566 C 0.78169 0.42767 0.79675 0.0
C567 C 0.77406 0.46008 0.78103 0.0
C568 C 0.78564 0.45236 0.70804 0.0
C569 C 0.77587 0.47233 0.73641 0.0
C570 C 0.78179 0.22565 0.72958 0.0
C571 C 0.88427 0.30151 0.77539 0.0
C572 C 0.86324 0.18916 0.81321 0.0
C573 C 0.85781 0.14988 0.83054 0.0
C574 C 0.84772 0.13566 0.87331 0.0
C575 C 0.86225 0.12595 0.80288 0.0
C576 C 0.85765 0.08817 0.8176 0.0
C577 C 0.84274 0.0979 0.88814 0.0
C578 C 0.84809 0.07428 0.86058 0.0
C579 C 0.86272 0.32766 0.85716 0.0
H580 H 0.79929 0.40397 0.7014 0.0
H581 H 0.77929 0.41751 0.83104 0.0
H582 H 0.78708 0.46185 0.67364 0.0
H583 H 0.76928 0.49689 0.72359 0.0
H584 H 0.84396 0.15365 0.89522 0.0
H585 H 0.87055 0.13726 0.77004 0.0
H586 H 0.83518 0.08709 0.92122 0.0
H587 H 0.84502 0.04542 0.87278 0.0
Gd588 Gd 0.81799 0.82873 0.83094 0.0
Gd589 Gd 0.80084 0.77252 0.73896 0.0
C590 C 0.72065 0.77993 0.62116 0.0
C591 C 0.66854 0.7182 0.62956 0.0
C592 C 0.72356 0.73383 0.68112 0.0
C593 C 0.73946 0.76953 0.65913 0.0
C594 C 0.68824 0.7074 0.66616 0.0
C595 C 0.68472 0.75444 0.6071 0.0
C596 C 0.73902 0.8151 0.59773 0.0
C597 C 0.77593 0.83795 0.61106 0.0
N598 N 0.77434 0.79322 0.67342 0.0
C599 C 0.79342 0.82622 0.64881 0.0
H600 H 0.8219 0.84413 0.65848 0.0
C601 C 0.73086 0.68788 0.736 0.0
N602 N 0.74349 0.72434 0.71612 0.0
C603 C 0.69586 0.66073 0.72258 0.0
C604 C 0.67423 0.67066 0.68781 0.0
H605 H 0.74722 0.6801 0.7632 0.0
H606 H 0.6697 0.76207 0.57825 0.0
H607 H 0.80155 0.75772 0.91153 0.0
H608 H 0.72533 0.82442 0.56881 0.0
H609 H 0.79085 0.86472 0.59249 0.0
H610 H 0.64122 0.69843 0.61776 0.0
H611 H 0.86862 0.92196 0.80345 0.0
H612 H 0.89802 0.78512 1.00242 0.0
H613 H 0.83405 0.74093 0.97879 0.0
H614 H 0.97749 0.91165 0.94917 0.0
H615 H 0.68555 0.63222 0.73915 0.0
H616 H 0.64717 0.64954 0.67738 0.0
H617 H 0.95172 0.84864 0.99065 0.0
H618 H 0.9289 0.97218 0.82611 0.0
N619 N 0.84693 0.81052 0.89602 0.0
C620 C 0.88389 0.79264 0.97271 0.0
C621 C 0.84776 0.76769 0.95955 0.0
C622 C 0.90084 0.82753 0.94806 0.0
C623 C 0.88123 0.83592 0.90961 0.0
C624 C 0.82945 0.77732 0.9212 0.0
N625 N 0.87463 0.87918 0.85141 0.0
C626 C 0.89555 0.87142 0.88658 0.0
C627 C 0.91993 0.94392 0.84332 0.0
C628 C 0.9425 0.93585 0.87829 0.0
C629 C 0.88564 0.91532 0.83066 0.0
C630 C 0.93014 0.89945 0.90088 0.0
H631 H 0.96894 0.95814 0.8882 0.0
O632 O 0.794 0.86964 0.84034 0.0
O633 O 0.78629 0.81713 0.76449 0.0
O634 O 0.8476 0.83123 0.73023 0.0
O635 O 0.8728 0.84645 0.80009 0.0
O636 O 0.80976 0.87292 0.77889 0.0
O637 O 0.78291 0.8187 0.8851 0.0
O638 O 0.81657 0.72718 0.72265 0.0
O639 O 0.83184 0.78366 0.80544 0.0
O640 O 0.77181 0.76968 0.84059 0.0
O641 O 0.74641 0.75526 0.77074 0.0
O642 O 0.80914 0.72814 0.79075 0.0
O643 O 0.84371 0.7852 0.69332 0.0
C644 C 0.78944 0.85108 0.74951 0.0
C645 C 0.95071 0.8906 0.93788 0.0
C646 C 0.93606 0.85472 0.96147 0.0
C647 C 0.77892 0.85122 0.87612 0.0
C648 C 0.78464 0.87478 0.9122 0.0
C649 C 0.81735 0.88462 0.9404 0.0
C650 C 0.75725 0.88916 0.91692 0.0
C651 C 0.76186 0.91305 0.94992 0.0
C652 C 0.82249 0.90883 0.97295 0.0
C653 C 0.79499 0.92311 0.97771 0.0
C654 C 0.8753 0.85077 0.75759 0.0
C655 C 0.82922 0.74992 0.82028 0.0
C656 C 0.83993 0.74959 0.69436 0.0
C657 C 0.83837 0.73447 0.65246 0.0
C658 C 0.82652 0.75061 0.61331 0.0
C659 C 0.85149 0.70504 0.65134 0.0
C660 C 0.8547 0.69328 0.61131 0.0
C661 C 0.82961 0.73887 0.57355 0.0
C662 C 0.84465 0.71122 0.57252 0.0
C663 C 0.74422 0.74996 0.81328 0.0
H664 H 0.83885 0.87383 0.93719 0.0
H665 H 0.73235 0.88191 0.89445 0.0
H666 H 0.84772 0.91631 0.99477 0.0
H667 H 0.79912 0.94102 0.00386 0.0
H668 H 0.81588 0.77294 0.61331 0.0
H669 H 0.86079 0.69253 0.68143 0.0
H670 H 0.82117 0.75186 0.5434 0.0
H671 H 0.84879 0.70416 0.54145 0.0
Co672 Co 0.10247 1.01862 0.51217 0.0
Co673 Co 0.10475 0.03302 0.59283 0.0
Co674 Co 0.05352 0.06825 0.53713 0.0
O675 O 0.09975 0.05885 0.53976 0.0
H676 H 0.12181 0.08226 0.53626 0.0
O677 O 1.00676 0.07711 0.53368 0.0
Co678 Co 0.99522 0.09415 0.58268 0.0
Co679 Co 1.00503 0.1209 0.50703 0.0
H680 H 0.9856 0.05556 0.52293 0.0
O681 O 0.15156 0.03781 0.61477 0.0
O682 O 0.1113 0.99381 0.57071 0.0
O683 O 0.06369 1.01471 0.63044 0.0
O684 O 1.02491 1.02065 0.57432 0.0
O685 O 0.07493 0.09585 0.59042 0.0
O686 O 0.98061 0.10516 0.62927 0.0
O687 O 0.94812 0.05791 0.58562 0.0
O688 O 1.04401 0.13418 0.58642 0.0
O689 O 0.08183 0.11653 0.49993 0.0
O690 O 0.05229 0.15746 0.48595 0.0
O691 O 0.97631 0.12992 0.54461 0.0
O692 O 0.9616 0.1129 0.47488 0.0
C693 C 0.1445 1.00962 0.48856 0.0
C694 C 1.02761 1.00391 0.48592 0.0
C695 C 1.03063 1.00777 0.61326 0.0
C696 C 0.14342 1.00789 0.59359 0.0
C697 C 0.95091 0.07486 0.62056 0.0
C698 C 0.0731 0.12682 0.5985 0.0
C699 C 0.08083 0.14889 0.48439 0.0
C700 C 0.95198 0.11967 0.51104 0.0
O701 O 0.11022 0.98404 0.48675 0.0
O702 O 0.15248 0.0413 0.50633 0.0
O703 O 1.03325 0.03927 0.48476 0.0
O704 O 1.04877 0.99043 0.51114 0.0
Co705 Co 0.57712 1.01498 0.02435 0.0
Co706 Co 0.57139 0.02468 0.10543 0.0
Co707 Co 0.53369 0.07245 0.0361 0.0
O708 O 0.57447 0.05438 0.05355 0.0
H709 H 0.59858 0.07568 0.05503 0.0
O710 O 0.4937 0.09149 0.01663 0.0
Co711 Co 0.49269 0.13646 0.03453 0.0
Co712 Co 0.50004 0.1158 0.95998 0.0
H713 H 0.46919 0.07077 0.01742 0.0
O714 O 0.61471 1.02057 0.1347 0.0
O715 O 0.57769 0.9862 0.08123 0.0
O716 O 0.52347 1.00376 0.1286 0.0
O717 O 0.49393 0.02934 0.07531 0.0
O718 O 0.55379 0.10757 0.08421 0.0
O719 O 0.48612 0.17614 0.05072 0.0
O720 O 0.44268 0.1208 0.028 0.0
O721 O 0.54643 0.15786 0.04638 0.0
O722 O 0.57385 0.11315 0.99812 0.0
O723 O 0.54819 0.12838 0.93452 0.0
O724 O 0.4966 0.16047 0.97262 0.0
O725 O 0.45859 0.11886 0.92551 0.0
C726 C 0.62015 1.00469 0.00345 0.0
C727 C 0.50389 1.00302 0.99345 0.0
C728 C 0.49334 1.00574 0.10973 0.0
C729 C 0.60695 0.99395 0.10863 0.0
C730 C 0.45106 0.15426 0.04165 0.0
C731 C 0.56377 0.14386 0.07673 0.0
C732 C 0.57708 0.129 0.95886 0.0
C733 C 0.46874 0.15114 0.94256 0.0
O734 O 0.58531 0.98084 0.99755 0.0
O735 O 0.62768 0.03481 0.02422 0.0
O736 O 0.51357 0.03901 0.9871 0.0
O737 O 0.52401 0.98926 0.01948 0.0
Co738 Co 0.08338 0.5035 0.04455 0.0
Co739 Co 0.08182 0.51207 0.12244 0.0
Co740 Co 1.0375 0.57076 0.05867 0.0
O741 O 0.08119 0.54798 0.07187 0.0
H742 H 0.1056 0.56888 0.07124 0.0
O743 O 0.99344 0.5946 0.05154 0.0
Co744 Co 0.99024 0.64193 0.08282 0.0
Co745 Co 0.9997 0.63323 0.00419 0.0
H746 H 0.96873 0.57441 0.04842 0.0
O747 O 0.12701 0.50776 0.15572 0.0
O748 O 0.09353 0.47049 0.10419 0.0
O749 O 1.0315 0.49367 0.14424 0.0
O750 O 1.00558 0.5327 0.10451 0.0
O751 O 0.06332 0.61102 0.10044 0.0
O752 O 0.98577 0.68287 0.11372 0.0
O753 O 0.93673 0.63317 0.09504 0.0
O754 O 1.04459 0.66063 0.08136 0.0
O755 O 0.07178 0.60905 0.01115 0.0
O756 O 1.04916 0.65178 0.97649 0.0
O757 O 0.98496 0.67163 0.02256 0.0
O758 O 0.95682 0.63241 0.96909 0.0
C759 C 0.12413 0.48902 0.02218 0.0
C760 C 1.00615 0.49386 0.01481 0.0
C761 C 1.00406 0.50458 0.13305 0.0
C762 C 0.12184 0.478 0.13561 0.0
C763 C 0.94936 0.66514 0.11487 0.0
C764 C 0.07054 0.64697 0.09052 0.0
C765 C 0.07517 0.63847 0.98315 0.0
C766 C 0.96023 0.66204 0.98842 0.0
O767 O 0.08842 0.46807 0.01647 0.0
O768 O 0.13441 0.52094 0.0408 0.0
O769 O 1.01017 0.52958 0.01446 0.0
O770 O 1.02744 0.48017 0.04066 0.0
Co771 Co 0.61383 0.47805 0.99733 0.0
Co772 Co 0.61599 0.46962 0.07551 0.0
Co773 Co 0.57723 0.52932 0.03993 0.0
O774 O 0.61758 0.51047 0.04001 0.0
H775 H 0.64221 0.53078 0.04247 0.0
O776 O 0.53824 0.55037 0.04025 0.0
Co777 Co 0.5534 0.60089 0.05849 0.0
Co778 Co 0.52949 0.56955 0.98348 0.0
H779 H 0.51504 0.5321 0.05196 0.0
O780 O 0.66073 0.47625 0.10174 0.0
O781 O 0.63329 0.4452 0.04064 0.0
O782 O 0.57146 0.44448 0.10732 0.0
O783 O 0.54834 0.49009 0.08767 0.0
O784 O 0.60974 0.56479 0.08388 0.0
O785 O 0.56365 0.64599 0.07559 0.0
O786 O 0.50877 0.59426 0.07774 0.0
O787 O 0.60336 0.614 0.04451 0.0
O788 O 0.6056 0.56725 0.99216 0.0
O789 O 0.56444 0.57614 0.94056 0.0
O790 O 0.53756 0.61731 0.99895 0.0
O791 O 0.48432 0.57441 0.96847 0.0
C792 C 0.64642 0.47885 0.95007 0.0
C793 C 0.53859 0.45974 0.99471 0.0
C794 C 0.54684 0.45856 0.10923 0.0
C795 C 0.66204 0.45821 0.06926 0.0
C796 C 0.52886 0.62967 0.08574 0.0
C797 C 0.62099 0.60099 0.0752 0.0
C798 C 0.5978 0.57957 0.95362 0.0
C799 C 0.50219 0.60708 0.98474 0.0
O800 O 0.61351 0.45143 0.95479 0.0
O801 O 0.66035 0.50448 0.97825 0.0
O802 O 0.54429 0.49488 0.99528 0.0
O803 O 0.56371 0.44717 0.01049 0.0
Co804 Co 0.13932 0.48911 0.61789 0.0
Co805 Co 0.15256 0.52816 0.54739 0.0
Co806 Co 0.07325 0.52442 0.56147 0.0
O807 O 0.10704 0.4958 0.56663 0.0
H808 H 0.09654 0.47348 0.5504 0.0
O809 O 1.04082 0.55409 0.55576 0.0
Co810 Co 0.98883 0.53384 0.53681 0.0
Co811 Co 1.02624 0.5536 0.61114 0.0
H812 H 0.05372 0.58015 0.5438 0.0
O813 O 0.17365 0.5067 0.51469 0.0
O814 O 0.18606 0.51755 0.5864 0.0
O815 O 0.16027 0.58064 0.52929 0.0
O816 O 0.09929 0.56067 0.50842 0.0
O817 O 1.03686 0.48725 0.52177 0.0
O818 O 0.9409 0.51801 0.51871 0.0
O819 O 0.98499 0.57808 0.51514 0.0
O820 O 0.987 0.48358 0.55424 0.0
O821 O 1.04635 0.48597 0.61256 0.0
O822 O 1.0288 0.51634 0.65698 0.0
O823 O 0.97649 0.54395 0.59508 0.0
O824 O 1.02205 0.59579 0.6243 0.0
C825 C 0.16033 0.44799 0.64159 0.0
C826 C 0.13329 0.56319 0.63018 0.0
C827 C 0.13358 0.58513 0.50474 0.0
C828 C 0.19365 0.50698 0.55135 0.0
C829 C 0.94988 0.55446 0.50939 0.0
C830 C 1.00161 0.47065 0.52798 0.0
C831 C 1.03241 0.48657 0.64821 0.0
C832 C 0.9876 0.57837 0.6086 0.0
O833 O 0.16806 0.47803 0.66245 0.0
O834 O 0.13841 0.4436 0.60573 0.0
O835 O 0.10732 0.5629 0.60114 0.0
O836 O 0.14478 0.53595 0.63775 0.0
Co837 Co 0.64451 0.98893 0.54129 0.0
Co838 Co 0.62277 0.99025 0.46029 0.0
Co839 Co 0.56883 0.03255 0.50815 0.0
O840 O 0.59361 0.98928 0.50953 0.0
H841 H 0.57405 0.96407 0.51389 0.0
O842 O 0.547 0.07877 0.50163 0.0
Co843 Co 0.49901 0.08983 0.46473 0.0
Co844 Co 0.51406 0.07025 0.54538 0.0
H845 H 0.56791 0.10297 0.50482 0.0
O846 O 0.62727 0.94843 0.43345 0.0
O847 O 0.66988 0.98367 0.48208 0.0
O848 O 0.63273 0.03896 0.42603 0.0
O849 O 0.60058 0.06493 0.45977 0.0
O850 O 0.52487 1.0057 0.46667 0.0
O851 O 0.45424 0.0967 0.43164 0.0
O852 O 0.50075 0.14637 0.4517 0.0
O853 O 0.48319 0.03538 0.46455 0.0
O854 O 0.53423 0.99631 0.55801 0.0
O855 O 0.49471 1.02068 0.57755 0.0
O856 O 0.47601 0.08648 0.52061 0.0
O857 O 0.52094 0.11077 0.57451 0.0
C858 C 0.66701 0.94784 0.57682 0.0
C859 C 0.64866 0.06793 0.55654 0.0
C860 C 0.62227 0.06602 0.43076 0.0
C861 C 0.66114 0.95786 0.45206 0.0
C862 C 0.46678 0.13354 0.43147 0.0
C863 C 0.49106 1.00571 0.46314 0.0
C864 C 0.50605 0.9935 0.57999 0.0
C865 C 0.49043 0.11003 0.55145 0.0
O866 O 0.68614 0.98461 0.57374 0.0
O867 O 0.63336 0.93579 0.5559 0.0
O868 O 0.61272 0.06113 0.55118 0.0
O869 O 0.66341 0.04702 0.5408 0.0
H870 H 0.23891 0.24653 0.40914 0.0
H871 H 0.1671 0.27124 0.30336 0.0
H872 H 0.11167 0.23583 0.34474 0.0
H873 H 0.08294 0.19428 0.40924 0.0
H874 H 0.15397 0.16447 0.51195 0.0
H875 H 0.21024 0.2056 0.47407 0.0
C876 C 0.21118 0.24461 0.39554 0.0
C877 C 0.2071 0.26166 0.35348 0.0
C878 C 0.17922 0.22314 0.41898 0.0
C879 C 0.17094 0.25839 0.3358 0.0
C880 C 0.13921 0.23812 0.35939 0.0
C881 C 0.11082 0.19735 0.4235 0.0
C882 C 0.11448 0.17667 0.46326 0.0
C883 C 0.14291 0.21992 0.40078 0.0
C884 C 0.15062 0.18019 0.48122 0.0
C885 C 0.18275 0.20363 0.45959 0.0
H886 H 0.78859 0.07877 0.44376 0.0
H887 H 0.81891 0.19789 0.4599 0.0
H888 H 0.87358 0.19861 0.5082 0.0
H889 H 0.92207 0.17068 0.52454 0.0
H890 H 0.89339 0.05324 0.50155 0.0
H891 H 0.82865 0.04595 0.47852 0.0
C892 C 0.80599 0.10429 0.45976 0.0
C893 C 0.80079 0.13855 0.44717 0.0
C894 C 0.83845 0.10496 0.48539 0.0
C895 C 0.82311 0.17137 0.4685 0.0
C896 C 0.85466 0.17191 0.49564 0.0
C897 C 0.90105 0.14317 0.51634 0.0
C898 C 0.91217 0.11276 0.51367 0.0
C899 C 0.8643 0.13977 0.50111 0.0
C900 C 0.88514 0.07711 0.50305 0.0
C901 C 0.84823 0.07299 0.48972 0.0
H902 H 0.8887 0.92453 0.35576 0.0
H903 H 0.92187 0.82859 0.38995 0.0
H904 H 0.97282 0.86654 0.44023 0.0
H905 H 1.00901 0.92823 0.47287 0.0
H906 H 0.97419 0.02314 0.4361 0.0
H907 H 0.92321 0.98438 0.38806 0.0
C908 C 0.90726 0.91186 0.37375 0.0
C909 C 0.90169 0.87385 0.36862 0.0
C910 C 0.93634 0.93379 0.40217 0.0
C911 C 0.92549 0.85777 0.39324 0.0
C912 C 0.95469 0.87953 0.42189 0.0
C913 C 0.99016 0.94035 0.45448 0.0
C914 C 0.99576 0.97878 0.45814 0.0
C915 C 0.96054 0.91774 0.42647 0.0
C916 C 0.97093 0.99388 0.43397 0.0
C917 C 0.94162 0.97169 0.4064 0.0
H918 H 0.22139 0.93015 0.39676 0.0
H919 H 0.25226 0.03582 0.3134 0.0
H920 H 0.23252 0.06486 0.36729 0.0
H921 H 0.19421 0.05475 0.43035 0.0
H922 H 0.15808 0.94555 0.5064 0.0
H923 H 0.19433 0.92393 0.46442 0.0
C924 C 0.22561 0.96009 0.39078 0.0
C925 C 0.23777 0.98053 0.35063 0.0
C926 C 0.21313 0.97591 0.42089 0.0
C927 C 0.24212 1.01913 0.34363 0.0
C928 C 0.23087 0.03574 0.37443 0.0
C929 C 0.19556 0.0268 0.4384 0.0
C930 C 0.17384 1.00159 0.47112 0.0
C931 C 0.21438 1.01362 0.41203 0.0
C932 C 0.17496 0.96527 0.48139 0.0
C933 C 0.19534 0.95283 0.45715 0.0
H934 H 0.25513 0.92472 0.62599 0.0
H935 H 0.33411 0.04235 0.62046 0.0
H936 H 0.28398 0.06347 0.59039 0.0
H937 H 0.21642 0.04983 0.58423 0.0
H938 H 0.13596 0.93335 0.59794 0.0
H939 H 0.18762 0.91029 0.60737 0.0
C940 C 0.26142 0.95492 0.61737 0.0
C941 C 0.29792 0.982 0.62703 0.0
C942 C 0.23194 0.96707 0.60318 0.0
C943 C 0.30621 1.02087 0.6139 0.0
C944 C 0.27739 0.03307 0.59735 0.0
C945 C 0.21031 1.01936 0.58875 0.0
C946 C 0.17293 0.99319 0.59181 0.0
C947 C 0.23994 1.00665 0.59499 0.0
C948 C 0.16482 0.95382 0.59631 0.0
C949 C 0.19428 0.94076 0.60164 0.0
H950 H 0.21134 0.2579 0.68341 0.0
H951 H 0.21948 0.16161 0.76631 0.0
H952 H 0.16389 0.11815 0.72641 0.0
H953 H 0.11411 0.10777 0.66665 0.0
H954 H 0.10286 0.20473 0.58811 0.0
H955 H 0.15868 0.24812 0.62781 0.0
C956 C 0.20107 0.2274 0.69256 0.0
C957 C 0.21986 0.21278 0.72703 0.0
C958 C 0.16858 0.20293 0.67039 0.0
C959 C 0.20564 0.17335 0.7395 0.0
C960 C 0.17391 0.14859 0.71675 0.0
C961 C 0.12387 0.13845 0.65844 0.0
C962 C 0.10475 0.15321 0.62444 0.0
C963 C 0.15534 0.16307 0.68196 0.0
C964 C 0.11716 0.1929 0.61433 0.0
C965 C 0.1491 0.21759 0.63683 0.0
H966 H 0.82956 0.07317 0.73497 0.0
H967 H 0.90881 0.05496 0.83548 0.0
H968 H 0.94145 0.0405 0.78115 0.0
H969 H 0.95626 0.04957 0.70437 0.0
H970 H 0.87894 0.07067 0.60349 0.0
H971 H 0.83622 0.06703 0.65838 0.0
C972 C 0.85313 0.0646 0.74498 0.0
C973 C 0.86741 0.06589 0.78876 0.0
C974 C 0.87247 0.05772 0.71338 0.0
C975 C 0.89754 0.0543 0.80184 0.0
C976 C 0.91646 0.04651 0.77073 0.0
C977 C 0.92937 0.05201 0.69456 0.0
C978 C 0.92066 0.06092 0.65051 0.0
C979 C 0.9056 0.05065 0.72627 0.0
C980 C 0.88592 0.06383 0.63747 0.0
C981 C 0.86175 0.06205 0.66884 0.0
H982 H 0.87595 0.89304 0.68169 0.0
H983 H 0.9479 0.87891 0.79334 0.0
H984 H 1.00293 0.92826 0.75931 0.0
H985 H 1.03046 0.97221 0.69544 0.0
H986 H 0.95668 0.98501 0.58442 0.0
H987 H 0.90225 0.93908 0.62077 0.0
C988 C 0.90371 0.90036 0.69836 0.0
C989 C 0.90826 0.88167 0.73913 0.0
C990 C 0.93476 0.92843 0.67874 0.0
C991 C 0.94404 0.89267 0.76145 0.0
C992 C 0.97537 0.92077 0.74203 0.0
C993 C 1.00248 0.96501 0.67927 0.0
C994 C 0.99778 0.98159 0.63699 0.0
C995 C 0.97111 0.93833 0.70028 0.0
C996 C 0.96124 0.9724 0.61674 0.0
C997 C 0.93002 0.94612 0.63746 0.0
H998 H 0.3439 0.24003 0.05251 0.0
H999 H 0.26069 0.12466 0.06139 0.0
H1000 H 0.30914 0.10019 0.05151 0.0
H1001 H 0.37613 0.11213 0.04563 0.0
H1002 H 0.45916 0.22801 0.04239 0.0
H1003 H 0.40976 0.25198 0.04596 0.0
C1004 C 0.33637 0.20955 0.05157 0.0
C1005 C 0.2991 0.18406 0.05748 0.0
C1006 C 0.36444 0.19589 0.04833 0.0
C1007 C 0.28926 0.1447 0.05616 0.0
C1008 C 0.31703 0.13076 0.05147 0.0
C1009 C 0.38331 0.1426 0.0457 0.0
C1010 C 0.42113 0.1683 0.04416 0.0
C1011 C 0.35485 0.15614 0.04838 0.0
C1012 C 0.43025 0.20769 0.04421 0.0
C1013 C 0.40208 0.22142 0.04607 0.0
H1014 H 0.83607 0.39145 0.1616 0.0
H1015 H 0.88715 0.37309 0.2885 0.0
H1016 H 0.94828 0.41849 0.26707 0.0
H1017 H 0.98802 0.46379 0.21188 0.0
H1018 H 0.93603 0.48912 0.088 0.0
H1019 H 0.87462 0.44216 0.10895 0.0
C1020 C 0.86053 0.39776 0.18454 0.0
C1021 C 0.85711 0.3779 0.2261 0.0
C1022 C 0.89557 0.42565 0.17264 0.0
C1023 C 0.88904 0.38667 0.25575 0.0
C1024 C 0.92413 0.41313 0.24369 0.0
C1025 C 0.96315 0.45928 0.18972 0.0
C1026 C 0.96657 0.4799 0.1486 0.0
C1027 C 0.9278 0.43274 0.20217 0.0
C1028 C 0.93408 0.47391 0.12017 0.0
C1029 C 0.89899 0.44677 0.13189 0.0
H1030 H 0.74181 0.95018 0.08078 0.0
H1031 H 0.65162 0.84167 0.05995 0.0
H1032 H 0.6049 0.86971 0.06537 0.0
H1033 H 0.59102 0.92302 0.08626 0.0
H1034 H 0.68293 0.02744 0.11943 0.0
H1035 H 0.7284 1.00238 0.1018 0.0
C1036 C 0.71181 0.93307 0.07634 0.0
C1037 C 0.69973 0.89424 0.06996 0.0
C1038 C 0.68589 0.94803 0.0843 0.0
C1039 C 0.66116 0.87182 0.06434 0.0
C1040 C 0.63471 0.88759 0.06856 0.0
C1041 C 0.62107 0.93993 0.09014 0.0
C1042 C 0.63394 0.97665 0.10463 0.0
C1043 C 0.64691 0.92511 0.08063 0.0
C1044 C 0.67269 0.99871 0.10932 0.0
C1045 C 0.69854 0.98468 0.0986 0.0
H1046 H 0.22128 0.78263 0.1364 0.0
H1047 H 0.25562 0.68849 0.17834 0.0
H1048 H 0.19924 0.64503 0.14123 0.0
H1049 H 0.13349 0.6313 0.114 0.0
H1050 H 0.09739 0.72501 0.07506 0.0
H1051 H 0.16067 0.7706 0.09329 0.0
C1052 C 0.21643 0.75268 0.13727 0.0
C1053 C 0.2408 0.73831 0.16339 0.0
C1054 C 0.18299 0.72741 0.11743 0.0
C1055 C 0.23632 0.70019 0.16037 0.0
C1056 C 0.20377 0.67504 0.1395 0.0
C1057 C 0.1394 0.66169 0.10933 0.0
C1058 C 0.11016 0.67454 0.09535 0.0
C1059 C 0.17562 0.68787 0.12102 0.0
C1060 C 0.11891 0.71414 0.08758 0.0
C1061 C 0.15516 0.74035 0.09802 0.0
H1062 H 0.35766 0.91439 0.87566 0.0
H1063 H 0.39952 0.82463 0.91154 0.0
H1064 H 0.44867 0.86485 0.96026 0.0
H1065 H 0.48368 0.92725 0.98746 0.0
H1066 H 0.44755 1.02044 0.9459 0.0
H1067 H 0.39294 0.9777 0.90421 0.0
C1068 C 0.37715 0.90353 0.89484 0.0
C1069 C 0.37429 0.86615 0.89086 0.0
C1070 C 0.40702 0.92783 0.92102 0.0
C1071 C 0.4004 0.85282 0.9149 0.0
C1072 C 0.42889 0.87602 0.94242 0.0
C1073 C 0.46374 0.93824 0.96959 0.0
C1074 C 0.46985 0.97703 0.96966 0.0
C1075 C 0.43303 0.91383 0.94496 0.0
C1076 C 0.44371 0.99073 0.94614 0.0
C1077 C 0.41241 0.96628 0.92236 0.0
H1078 H 0.24416 0.41374 0.02559 0.0
H1079 H 0.16382 0.35092 0.92699 0.0
H1080 H 0.12659 0.38958 0.92975 0.0
H1081 H 0.11437 0.43802 0.96376 0.0
H1082 H 0.19571 0.50362 0.05962 0.0
H1083 H 0.23519 0.46752 0.05419 0.0
C1084 C 0.21861 0.40874 0.00456 0.0
C1085 C 0.2066 0.37922 0.97633 0.0
C1086 C 0.19754 0.4316 0.00586 0.0
C1087 C 0.17372 0.37344 0.94887 0.0
C1088 C 0.15236 0.39549 0.95053 0.0
C1089 C 0.14108 0.44492 0.98294 0.0
C1090 C 0.15185 0.47327 0.01245 0.0
C1091 C 0.16369 0.42426 0.97931 0.0
C1092 C 0.1867 0.48199 0.03672 0.0
C1093 C 0.20917 0.46113 0.03379 0.0
H1094 H 0.74582 0.24074 0.91867 0.0
H1095 H 0.7046 0.20838 0.78879 0.0
H1096 H 0.64329 0.16584 0.81536 0.0
H1097 H 0.59962 0.14038 0.8751 0.0
H1098 H 0.64225 0.16832 0.00624 0.0
H1099 H 0.70432 0.209 0.98009 0.0
C1100 C 0.72372 0.22355 0.89646 0.0
C1101 C 0.73027 0.22723 0.85181 0.0
C1102 C 0.68841 0.19846 0.91225 0.0
C1103 C 0.70075 0.20561 0.82333 0.0
C1104 C 0.6655 0.18138 0.83854 0.0
C1105 C 0.62253 0.1552 0.89803 0.0
C1106 C 0.61579 0.15148 0.94267 0.0
C1107 C 0.65868 0.178 0.88284 0.0
C1108 C 0.64627 0.17055 0.97179 0.0
C1109 C 0.68189 0.19402 0.95678 0.0
H1110 H 0.90297 0.78155 0.86539 0.0
H1111 H 0.80071 0.67996 0.86149 0.0
H1112 H 0.83029 0.64499 0.9129 0.0
H1113 H 0.88641 0.6401 0.9554 0.0
H1114 H 0.98785 0.74104 0.96704 0.0
H1115 H 0.95774 0.77861 0.91819 0.0
C1116 C 0.88678 0.7521 0.87661 0.0
C1117 C 0.84884 0.73395 0.85892 0.0
C1118 C 0.90415 0.73145 0.9079 0.0
C1119 C 0.82944 0.69528 0.87398 0.0
C1120 C 0.84651 0.67491 0.90364 0.0
C1121 C 0.90188 0.67053 0.94813 0.0
C1122 C 0.93972 0.68725 0.9657 0.0
C1123 C 0.88403 0.69224 0.92032 0.0
C1124 C 0.95876 0.72694 0.95504 0.0
C1125 C 0.94148 0.74853 0.92645 0.0
H1126 H 0.27004 0.43423 0.2075 0.0
H1127 H 0.18676 0.32162 0.23661 0.0
H1128 H 0.13705 0.34321 0.20245 0.0
H1129 H 0.11397 0.39665 0.16603 0.0
H1130 H 0.19915 0.50982 0.14315 0.0
H1131 H 0.24801 0.48603 0.17149 0.0
C1132 C 0.24121 0.41353 0.20568 0.0
C1133 C 0.23459 0.37437 0.22342 0.0
C1134 C 0.2114 0.42703 0.18647 0.0
C1135 C 0.19534 0.35063 0.2216 0.0
C1136 C 0.16598 0.36364 0.20226 0.0
C1137 C 0.14316 0.41642 0.16595 0.0
C1138 C 0.15091 0.45638 0.14957 0.0
C1139 C 0.17304 0.40208 0.18432 0.0
C1140 C 0.1902 0.47955 0.15331 0.0
C1141 C 0.21903 0.46564 0.17029 0.0
H1142 H 0.2431 0.72063 0.91374 0.0
H1143 H 0.18199 0.75009 0.80036 0.0
H1144 H 0.12307 0.71999 0.83747 0.0
H1145 H 0.08714 0.68164 0.90178 0.0
H1146 H 0.1474 0.6442 0.01098 0.0
H1147 H 0.20696 0.67986 0.9765 0.0
C1148 C 0.21709 0.72161 0.89759 0.0
C1149 C 0.21825 0.74119 0.85509 0.0
C1150 C 0.18236 0.7015 0.91846 0.0
C1151 C 0.18321 0.73875 0.83403 0.0
C1152 C 0.14904 0.72041 0.85511 0.0
C1153 C 0.11322 0.68112 0.9182 0.0
C1154 C 0.11185 0.65954 0.95958 0.0
C1155 C 0.14798 0.70132 0.89734 0.0
C1156 C 0.14664 0.65969 0.97936 0.0
C1157 C 0.1811 0.6805 0.95956 0.0
H1158 H 0.41728 0.28514 0.86404 0.0
H1159 H 0.3188 0.19055 0.82124 0.0
H1160 H 0.34485 0.1453 0.86046 0.0
H1161 H 0.39839 0.13331 0.90172 0.0
H1162 H 0.49522 0.22836 0.94762 0.0
H1163 H 0.46666 0.27286 0.91349 0.0
C1164 C 0.40113 0.25456 0.86438 0.0
C1165 C 0.36592 0.24103 0.84058 0.0
C1166 C 0.41617 0.22895 0.88723 0.0
C1167 C 0.34553 0.20147 0.84022 0.0
C1168 C 0.36065 0.17571 0.86225 0.0
C1169 C 0.41315 0.16376 0.90448 0.0
C1170 C 0.44936 0.17757 0.92636 0.0
C1171 C 0.39633 0.18917 0.88509 0.0
C1172 C 0.46761 0.21699 0.93058 0.0
C1173 C 0.45132 0.24247 0.91095 0.0
H1174 H 0.90353 0.40851 0.84897 0.0
H1175 H 0.87538 0.3115 0.94502 0.0
H1176 H 0.91719 0.35147 0.99972 0.0
H1177 H 0.96335 0.41473 0.02226 0.0
H1178 H 0.98501 0.51404 0.93023 0.0
H1179 H 0.94472 0.47358 0.87402 0.0
C1180 C 0.90635 0.39592 0.88182 0.0
C1181 C 0.88692 0.35556 0.89123 0.0
C1182 C 0.92965 0.42013 0.91483 0.0
C1183 C 0.89102 0.34123 0.93499 0.0
C1184 C 0.91478 0.36457 0.96703 0.0
C1185 C 0.95922 0.42777 0.99002 0.0
C1186 C 0.97807 0.46814 0.98132 0.0
C1187 C 0.9347 0.4041 0.95753 0.0
C1188 C 0.97131 0.48358 0.93885 0.0
C1189 C 0.94812 0.46016 0.90625 0.0
H1190 H 0.76853 0.98356 0.9691 0.0
H1191 H 0.68626 0.87095 0.94517 0.0
H1192 H 0.63535 0.89098 0.95486 0.0
H1193 H 0.61415 0.93876 0.97403 0.0
H1194 H 0.69551 0.05028 0.00325 0.0
H1195 H 0.74681 0.03239 0.98748 0.0
C1196 C 0.73946 0.96342 0.96616 0.0
C1197 C 0.73127 0.92591 0.95605 0.0
C1198 C 0.71016 0.97491 0.97257 0.0
C1199 C 0.6934 0.90023 0.95198 0.0
C1200 C 0.66421 0.91157 0.95772 0.0
C1201 C 0.64304 0.95941 0.97641 0.0
C1202 C 0.65101 0.99569 0.98998 0.0
C1203 C 0.67228 0.94868 0.96835 0.0
C1204 C 0.68864 1.02203 0.99308 0.0
C1205 C 0.71799 1.0118 0.98417 0.0
H1206 H 0.81868 0.70344 0.20188 0.0
H1207 H 0.9147 0.79969 0.24567 0.0
H1208 H 0.95619 0.77897 0.20929 0.0
H1209 H 0.96747 0.73228 0.16395 0.0
H1210 H 0.87068 0.63559 0.1219 0.0
H1211 H 0.82972 0.65723 0.15723 0.0
C1212 C 0.84871 0.72049 0.20364 0.0
C1213 C 0.86196 0.7547 0.22719 0.0
C1214 C 0.87341 0.70775 0.18213 0.0
C1215 C 0.90186 0.77432 0.22817 0.0
C1216 C 0.92617 0.76197 0.20699 0.0
C1217 C 0.93739 0.71552 0.16204 0.0
C1218 C 0.92367 0.68112 0.1385 0.0
C1219 C 0.91272 0.72859 0.18355 0.0
C1220 C 0.88382 0.66152 0.1384 0.0
C1221 C 0.85976 0.67424 0.15918 0.0
H1222 H 0.34289 0.85759 0.14775 0.0
H1223 H 0.40316 0.86015 0.27372 0.0
H1224 H 0.45358 0.91968 0.24915 0.0
H1225 H 0.4821 0.97029 0.19185 0.0
H1226 H 0.42379 0.97009 0.06496 0.0
H1227 H 0.37102 0.91171 0.09001 0.0
C1228 C 0.36702 0.87137 0.16978 0.0
C1229 C 0.36869 0.85452 0.2131 0.0
C1230 C 0.3963 0.9064 0.15526 0.0
C1231 C 0.40054 0.87262 0.24081 0.0
C1232 C 0.42954 0.90678 0.22663 0.0
C1233 C 0.45765 0.95797 0.1696 0.0
C1234 C 0.45726 0.97527 0.12638 0.0
C1235 C 0.42781 0.92398 0.18403 0.0
C1236 C 0.42501 0.95829 0.09848 0.0
C1237 C 0.39497 0.92436 0.11271 0.0
H1238 H 0.6893 0.27702 0.17756 0.0
H1239 H 0.73013 0.18755 0.2201 0.0
H1240 H 0.67861 0.14316 0.17668 0.0
H1241 H 0.62028 0.12892 0.12785 0.0
H1242 H 0.58045 0.2193 0.08456 0.0
H1243 H 0.6324 0.26359 0.12741 0.0
C1244 C 0.68671 0.24776 0.17778 0.0
C1245 C 0.71342 0.23572 0.20284 0.0
C1246 C 0.65685 0.22228 0.15256 0.0
C1247 C 0.71021 0.19785 0.20125 0.0
C1248 C 0.6805 0.17227 0.17652 0.0
C1249 C 0.62291 0.15827 0.12785 0.0
C1250 C 0.59611 0.17049 0.10303 0.0
C1251 C 0.65337 0.18402 0.1523 0.0
C1252 C 0.60046 0.20889 0.10316 0.0
C1253 C 0.63026 0.23437 0.12776 0.0
H1254 H 0.74792 0.70269 0.88371 0.0
H1255 H 0.67066 0.72213 0.7814 0.0
H1256 H 0.61817 0.66773 0.81338 0.0
H1257 H 0.59413 0.61813 0.87387 0.0
H1258 H 0.67297 0.59816 0.97439 0.0
H1259 H 0.7252 0.64893 0.939 0.0
C1260 C 0.71952 0.69514 0.86864 0.0
C1261 C 0.71269 0.71688 0.83125 0.0
C1262 C 0.68995 0.66365 0.88663 0.0
C1263 C 0.6762 0.70605 0.81082 0.0
C1264 C 0.64634 0.67497 0.82897 0.0
C1265 C 0.62276 0.62444 0.88769 0.0
C1266 C 0.62943 0.6048 0.92723 0.0
C1267 C 0.65282 0.65398 0.86736 0.0
C1268 C 0.66684 0.61306 0.9443 0.0
C1269 C 0.6968 0.64226 0.92424 0.0
H1270 H 0.38572 0.6744 0.022 0.0
H1271 H 0.47732 0.78007 0.98704 0.0
H1272 H 0.51931 0.7458 0.98665 0.0
H1273 H 0.5258 0.68431 0.98279 0.0
H1274 H 0.43062 0.57868 0.00868 0.0
H1275 H 0.39377 0.61398 0.02515 0.0
C1276 C 0.41541 0.68995 0.01644 0.0
C1277 C 0.4288 0.72944 0.00508 0.0
C1278 C 0.43807 0.66976 0.01249 0.0
C1279 C 0.46688 0.74962 0.99667 0.0
C1280 C 0.49048 0.72992 0.99532 0.0
C1281 C 0.49698 0.66924 0.99201 0.0
C1282 C 0.48054 0.62919 0.99366 0.0
C1283 C 0.47567 0.68978 1.00062 0.0
C1284 C 0.44342 0.60965 0.00616 0.0
C1285 C 0.42253 0.62974 0.01614 0.0
H1286 H 0.40091 0.33095 0.90656 0.0
H1287 H 0.40444 0.42572 0.81299 0.0
H1288 H 0.45736 0.46912 0.85653 0.0
H1289 H 0.50239 0.47967 0.9216 0.0
H1290 H 0.50054 0.38332 0.01178 0.0
H1291 H 0.44651 0.34073 0.96935 0.0
C1292 C 0.41293 0.36113 0.89579 0.0
C1293 C 0.39837 0.37522 0.85699 0.0
C1294 C 0.44346 0.38551 0.92052 0.0
C1295 C 0.41507 0.41425 0.84288 0.0
C1296 C 0.44521 0.43902 0.86782 0.0
C1297 C 0.48986 0.44939 0.93209 0.0
C1298 C 0.50504 0.43458 0.96996 0.0
C1299 C 0.4595 0.42495 0.90683 0.0
C1300 C 0.48919 0.39525 0.9828 0.0
C1301 C 0.45839 0.37097 0.95857 0.0
H1302 H 0.70405 0.45851 0.77719 0.0
H1303 H 0.81031 0.49651 0.8531 0.0
H1304 H 0.78075 0.5104 0.9115 0.0
H1305 H 0.72254 0.50344 0.9445 0.0
H1306 H 0.61559 0.45825 0.87033 0.0
H1307 H 0.64722 0.4555 0.80777 0.0
C1308 C 0.72082 0.47096 0.80599 0.0
C1309 C 0.75917 0.47705 0.81092 0.0
C1310 C 0.70325 0.4768 0.84009 0.0
C1311 C 0.78072 0.49215 0.84871 0.0
C1312 C 0.76376 0.49969 0.88215 0.0
C1313 C 0.70641 0.49354 0.91437 0.0
C1314 C 0.66689 0.48068 0.912 0.0
C1315 C 0.72473 0.49084 0.87884 0.0
C1316 C 0.64607 0.46772 0.873 0.0
C1317 C 0.6641 0.46628 0.83716 0.0
H1318 H 0.78513 0.41053 0.15384 0.0
H1319 H 0.83978 0.53301 0.15476 0.0
H1320 H 0.79564 0.5411 0.09532 0.0
H1321 H 0.73059 0.51294 0.06388 0.0
H1322 H 0.67121 0.39064 0.07311 0.0
H1323 H 0.72829 0.38233 0.10648 0.0
C1324 C 0.78853 0.43899 0.13947 0.0
C1325 C 0.81477 0.47115 0.15932 0.0
C1326 C 0.76143 0.44317 0.10772 0.0
C1327 C 0.81939 0.50789 0.14037 0.0
C1328 C 0.79381 0.51244 0.10676 0.0
C1329 C 0.73095 0.4845 0.0712 0.0
C1330 C 0.69704 0.4524 0.06708 0.0
C1331 C 0.76293 0.48028 0.09312 0.0
C1332 C 0.69719 0.41561 0.07619 0.0
C1333 C 0.72967 0.41098 0.09586 0.0
H1334 H 0.72756 0.68851 0.23012 0.0
H1335 H 0.72832 0.78685 0.14429 0.0
H1336 H 0.68773 0.74471 0.08976 0.0
H1337 H 0.65086 0.67947 0.06722 0.0
H1338 H 0.65253 0.58182 0.15309 0.0
H1339 H 0.69348 0.62418 0.20658 0.0
C1340 C 0.71871 0.70083 0.1996 0.0
C1341 C 0.73066 0.74086 0.19157 0.0
C1342 C 0.69587 0.67647 0.16826 0.0
C1343 C 0.7195 0.7562 0.1514 0.0
C1344 C 0.69624 0.73207 0.12021 0.0
C1345 C 0.66031 0.66744 0.09755 0.0
C1346 C 0.64826 0.62733 0.10609 0.0
C1347 C 0.68413 0.69209 0.12835 0.0
C1348 C 0.66113 0.61242 0.14551 0.0
C1349 C 0.68452 0.63666 0.17628 0.0
H1350 H 0.48818 0.75336 0.15783 0.0
H1351 H 0.42578 0.65539 0.24341 0.0
H1352 H 0.44034 0.61355 0.20161 0.0
H1353 H 0.47567 0.60551 0.14469 0.0
H1354 H 0.54705 0.70553 0.0689 0.0
H1355 H 0.52443 0.74587 0.10305 0.0
C1356 C 0.47814 0.72296 0.16785 0.0
C1357 C 0.4561 0.70774 0.20384 0.0
C1358 C 0.48828 0.69936 0.14533 0.0
C1359 C 0.4424 0.66799 0.21542 0.0
C1360 C 0.45095 0.64398 0.19178 0.0
C1361 C 0.48578 0.63606 0.13548 0.0
C1362 C 0.51254 0.65262 0.10427 0.0
C1363 C 0.47443 0.65945 0.15715 0.0
C1364 C 0.52628 0.69228 0.09297 0.0
C1365 C 0.51346 0.71535 0.11246 0.0
H1366 H 0.42962 0.36058 0.24768 0.0
H1367 H 0.35087 0.37401 0.14337 0.0
H1368 H 0.40343 0.41282 0.09826 0.0
H1369 H 0.47225 0.44328 0.0887 0.0
H1370 H 0.54993 0.4252 0.19142 0.0
H1371 H 0.49745 0.3884 0.23723 0.0
C1372 C 0.4239 0.37191 0.21501 0.0
C1373 C 0.38634 0.36448 0.19894 0.0
C1374 C 0.45417 0.39368 0.18916 0.0
C1375 C 0.37946 0.3791 0.15642 0.0
C1376 C 0.40954 0.40148 0.13073 0.0
C1377 C 0.47755 0.43143 0.12123 0.0
C1378 C 0.51488 0.43724 0.13695 0.0
C1379 C 0.44705 0.4091 0.14681 0.0
C1380 C 0.52144 0.42114 0.17876 0.0
C1381 C 0.49146 0.40008 0.20488 0.0
H1382 H 0.92257 0.70731 0.58356 0.0
H1383 H 0.82528 0.61644 0.6361 0.0
H1384 H 0.85574 0.57064 0.63579 0.0
H1385 H 0.91265 0.55773 0.62449 0.0
H1386 H 1.01062 0.65148 0.57636 0.0
H1387 H 0.9776 0.69464 0.57093 0.0
C1388 C 0.90809 0.67742 0.59478 0.0
C1389 C 0.87198 0.66508 0.60985 0.0
C1390 C 0.92611 0.65179 0.59557 0.0
C1391 C 0.85329 0.6264 0.62447 0.0
C1392 C 0.87069 0.60031 0.62425 0.0
C1393 C 0.92637 0.58746 0.6123 0.0
C1394 C 0.96404 0.60144 0.60098 0.0
C1395 C 0.90742 0.61275 0.61036 0.0
C1396 C 0.98174 0.64014 0.58567 0.0
C1397 C 0.96295 0.66493 0.5826 0.0
H1398 H 0.36687 0.8431 0.64574 0.0
H1399 H 0.40219 0.89426 0.76762 0.0
H1400 H 0.45641 0.945 0.73429 0.0
H1401 H 0.49153 0.97923 0.66811 0.0
H1402 H 0.46052 0.92503 0.54811 0.0
H1403 H 0.40827 0.87204 0.58255 0.0
C1404 C 0.3868 0.86488 0.66539 0.0
C1405 C 0.37955 0.8642 0.70976 0.0
C1406 C 0.41921 0.89403 0.64596 0.0
C1407 C 0.40627 0.89329 0.73384 0.0
C1408 C 0.4376 0.92266 0.71455 0.0
C1409 C 0.47428 0.95519 0.64977 0.0
C1410 C 0.48135 0.95639 0.60524 0.0
C1411 C 0.44414 0.92397 0.67034 0.0
C1412 C 0.45725 0.92499 0.58241 0.0
C1413 C 0.42673 0.89466 0.60216 0.0
H1414 H 0.20264 0.308 0.71805 0.0
H1415 H 0.30501 0.3984 0.76066 0.0
H1416 H 0.28172 0.44635 0.72314 0.0
H1417 H 0.22964 0.46195 0.68303 0.0
H1418 H 0.1294 0.37098 0.63624 0.0
H1419 H 0.15474 0.3236 0.66962 0.0
C1420 C 0.22025 0.33823 0.71797 0.0
C1421 C 0.25576 0.34982 0.74116 0.0
C1422 C 0.20684 0.36534 0.69598 0.0
C1423 C 0.27801 0.38896 0.74204 0.0
C1424 C 0.26448 0.41627 0.72101 0.0
C1425 C 0.21347 0.43173 0.68006 0.0
C1426 C 0.1773 0.4198 0.65814 0.0
C1427 C 0.22858 0.40475 0.69864 0.0
C1428 C 0.15708 0.38074 0.65336 0.0
C1429 C 0.17152 0.35369 0.67252 0.0
H1430 H 0.72349 0.22002 0.66219 0.0
H1431 H 0.79417 0.16083 0.72076 0.0
H1432 H 0.76301 0.10998 0.67278 0.0
H1433 H 0.71327 0.07895 0.61486 0.0
H1434 H 0.63969 0.13564 0.55914 0.0
H1435 H 0.67367 0.18901 0.60381 0.0
C1436 C 0.73238 0.19625 0.6645 0.0
C1437 C 0.76192 0.19545 0.69626 0.0
C1438 C 0.71332 0.16562 0.63661 0.0
C1439 C 0.77192 0.16333 0.6977 0.0
C1440 C 0.75388 0.1337 0.6698 0.0
C1441 C 0.70482 0.10312 0.61188 0.0
C1442 C 0.67345 0.10242 0.58247 0.0
C1443 C 0.72421 0.13405 0.63916 0.0
C1444 C 0.66333 0.13446 0.58076 0.0
C1445 C 0.68293 0.1654 0.60669 0.0
H1446 H 0.91935 0.36053 0.37921 0.0
H1447 H 0.82153 0.36223 0.43285 0.0
H1448 H 0.86151 0.40055 0.48977 0.0
H1449 H 0.92448 0.43721 0.52208 0.0
H1450 H 1.02282 0.43764 0.46755 0.0
H1451 H 0.9825 0.39459 0.41414 0.0
C1452 C 0.90669 0.36866 0.40376 0.0
C1453 C 0.86727 0.35807 0.40157 0.0
C1454 C 0.93005 0.39145 0.43636 0.0
C1455 C 0.85163 0.36969 0.43341 0.0
C1456 C 0.87455 0.39179 0.46614 0.0
C1457 C 0.93718 0.4277 0.4988 0.0
C1458 C 0.97677 0.4411 0.49878 0.0
C1459 C 0.91384 0.40337 0.46757 0.0
C1460 C 0.9925 0.42811 0.46833 0.0
C1461 C 0.96944 0.40348 0.4376 0.0
H1462 H 0.79572 0.90642 0.39142 0.0
H1463 H 0.70489 0.84261 0.30343 0.0
H1464 H 0.66238 0.86511 0.33466 0.0
H1465 H 0.64875 0.90517 0.38623 0.0
H1466 H 0.73953 0.97073 0.47341 0.0
H1467 H 0.78173 0.9463 0.44416 0.0
C1468 C 0.76644 0.89653 0.37908 0.0
C1469 C 0.7547 0.87001 0.34486 0.0
C1470 C 0.74107 0.91088 0.39751 0.0
C1471 C 0.71614 0.86048 0.33019 0.0
C1472 C 0.69131 0.87425 0.34816 0.0
C1473 C 0.67772 0.91448 0.3996 0.0
C1474 C 0.68915 0.94107 0.4337 0.0
C1475 C 0.70298 0.8997 0.3819 0.0
C1476 C 0.72788 0.95113 0.44826 0.0
C1477 C 0.75268 0.93673 0.43098 0.0
H1478 H 0.1704 0.69003 0.32494 0.0
H1479 H 0.26708 0.75588 0.40489 0.0
H1480 H 0.24306 0.71111 0.46851 0.0
H1481 H 0.19599 0.65161 0.50112 0.0
H1482 H 0.09674 0.58714 0.42333 0.0
H1483 H 0.11996 0.63276 0.35966 0.0
C1484 C 0.18623 0.69439 0.3563 0.0
C1485 C 0.22178 0.72513 0.35951 0.0
C1486 C 0.17161 0.66873 0.39327 0.0
C1487 C 0.24093 0.73131 0.40085 0.0
C1488 C 0.22687 0.70593 0.43743 0.0
C1489 C 0.1791 0.64766 0.47039 0.0
C1490 C 0.1445 0.61567 0.46734 0.0
C1491 C 0.19257 0.67417 0.43395 0.0
C1492 C 0.12318 0.61146 0.42705 0.0
C1493 C 0.13666 0.63749 0.39044 0.0
H1494 H 0.32527 0.18421 0.34541 0.0
H1495 H 0.41157 0.29666 0.32649 0.0
H1496 H 0.45877 0.2723 0.36306 0.0
H1497 H 0.47858 0.21654 0.40025 0.0
H1498 H 0.39009 0.10403 0.41266 0.0
H1499 H 0.34412 0.13023 0.38059 0.0
C1500 C 0.3542 0.20425 0.34987 0.0
C1501 C 0.36235 0.24418 0.33429 0.0
C1502 C 0.38254 0.18915 0.37035 0.0
C1503 C 0.40174 0.26701 0.33955 0.0
C1504 C 0.42964 0.25241 0.36035 0.0
C1505 C 0.44932 0.19724 0.39651 0.0
C1506 C 0.4399 0.15652 0.41077 0.0
C1507 C 0.42098 0.21317 0.37622 0.0
C1508 C 0.40055 0.13451 0.40339 0.0
C1509 C 0.37327 0.14989 0.38449 0.0
H1510 H 0.71383 0.82419 0.70866 0.0
H1511 H 0.82236 0.91783 0.70286 0.0
H1512 H 0.79562 0.95466 0.65014 0.0
H1513 H 0.74109 0.9637 0.60837 0.0
H1514 H 0.63189 0.87136 0.61007 0.0
H1515 H 0.65879 0.83162 0.65996 0.0
C1516 C 0.73186 0.85222 0.6951 0.0
C1517 C 0.77086 0.86751 0.71018 0.0
C1518 C 0.71587 0.87424 0.66387 0.0
C1519 C 0.79275 0.90461 0.69226 0.0
C1520 C 0.77729 0.92608 0.66192 0.0
C1521 C 0.72291 0.93478 0.61921 0.0
C1522 C 0.68393 0.92128 0.60487 0.0
C1523 C 0.73879 0.91173 0.64796 0.0
C1524 C 0.66174 0.88324 0.61985 0.0
C1525 C 0.67728 0.8603 0.64883 0.0
H1526 H 0.71261 0.21523 0.31656 0.0
H1527 H 0.77545 0.24016 0.4405 0.0
H1528 H 0.72824 0.18343 0.47623 0.0
H1529 H 0.67421 0.12304 0.47021 0.0
H1530 H 0.61725 0.09217 0.34482 0.0
H1531 H 0.65692 0.15519 0.31094 0.0
C1532 C 0.71518 0.20874 0.35156 0.0
C1533 C 0.74673 0.23185 0.37634 0.0
C1534 C 0.68935 0.17489 0.37115 0.0
C1535 C 0.75088 0.22274 0.4213 0.0
C1536 C 0.72413 0.19034 0.44153 0.0
C1537 C 0.67029 0.13051 0.43555 0.0
C1538 C 0.64329 0.10371 0.40969 0.0
C1539 C 0.69407 0.16562 0.41649 0.0
C1540 C 0.63821 0.11282 0.3649 0.0
C1541 C 0.6607 0.14869 0.34578 0.0
H1542 H 0.80298 0.58965 0.49591 0.0
H1543 H 0.88494 0.70492 0.47636 0.0
H1544 H 0.93594 0.68154 0.48285 0.0
H1545 H 0.95667 0.62812 0.49077 0.0
H1546 H 0.87431 0.51245 0.5086 0.0
H1547 H 0.82396 0.53608 0.50499 0.0
C1548 C 0.83215 0.6095 0.49441 0.0
C1549 C 0.84054 0.64873 0.48641 0.0
C1550 C 0.86107 0.5958 0.49657 0.0
C1551 C 0.8782 0.67448 0.48316 0.0
C1552 C 0.90719 0.66116 0.48616 0.0
C1553 C 0.92768 0.6081 0.49338 0.0
C1554 C 0.91934 0.56872 0.4999 0.0
C1555 C 0.89885 0.62181 0.49197 0.0
C1556 C 0.88158 0.54304 0.50329 0.0
C1557 C 0.85273 0.55646 0.50175 0.0
H1558 H 0.3405 0.88577 0.38659 0.0
H1559 H 0.41715 0.83538 0.35873 0.0
H1560 H 0.46882 0.88261 0.39833 0.0
H1561 H 0.4935 0.94213 0.43424 0.0
H1562 H 0.41628 0.99192 0.46234 0.0
H1563 H 0.36367 0.94065 0.42981 0.0
C1564 C 0.36844 0.88495 0.38949 0.0
C1565 C 0.37514 0.85771 0.36909 0.0
C1566 C 0.39805 0.91217 0.41218 0.0
C1567 C 0.4113 0.8564 0.37383 0.0
C1568 C 0.44094 0.88342 0.39641 0.0
C1569 C 0.46513 0.94152 0.43376 0.0
C1570 C 0.45909 0.97142 0.44947 0.0
C1571 C 0.43484 0.91205 0.41473 0.0
C1572 C 0.42198 0.96978 0.44935 0.0
C1573 C 0.39175 0.94045 0.43084 0.0
H1574 H 0.3352 0.47509 0.52152 0.0
H1575 H 0.25033 0.36068 0.51815 0.0
H1576 H 0.2035 0.38191 0.54029 0.0
H1577 H 0.18506 0.43452 0.55036 0.0
H1578 H 0.269 0.54896 0.5547 0.0
H1579 H 0.31838 0.52636 0.54284 0.0
C1580 C 0.30673 0.45474 0.52692 0.0
C1581 C 0.29593 0.41653 0.51814 0.0
C1582 C 0.27986 0.4673 0.53893 0.0
C1583 C 0.25895 0.39029 0.52463 0.0
C1584 C 0.2322 0.40242 0.53697 0.0
C1585 C 0.21436 0.45418 0.54977 0.0
C1586 C 0.22388 0.49306 0.55321 0.0
C1587 C 0.24207 0.44104 0.54269 0.0
C1588 C 0.26157 0.51875 0.55226 0.0
C1589 C 0.28955 0.50591 0.54518 0.0
H1590 H 0.43633 0.22331 0.63154 0.0
H1591 H 0.36627 0.21057 0.51157 0.0
H1592 H 0.39046 0.16496 0.49083 0.0
H1593 H 0.43257 0.12882 0.50683 0.0
H1594 H 0.50512 0.14619 0.62535 0.0
H1595 H 0.47819 0.18844 0.64686 0.0
C1596 C 0.42598 0.21022 0.60109 0.0
C1597 C 0.39935 0.22032 0.57339 0.0
C1598 C 0.44046 0.1845 0.58903 0.0
C1599 C 0.38689 0.20353 0.53356 0.0
C1600 C 0.40065 0.1773 0.5217 0.0
C1601 C 0.44274 0.14211 0.53707 0.0
C1602 C 0.47148 0.13451 0.5638 0.0
C1603 C 0.4277 0.16765 0.54908 0.0
C1604 C 0.48349 0.15157 0.60353 0.0
C1605 C 0.46804 0.17589 0.61609 0.0
H1606 H 0.9434 0.36606 0.79717 0.0
H1607 H 0.8864 0.3026 0.68725 0.0
H1608 H 0.93134 0.35084 0.63857 0.0
H1609 H 0.98345 0.41497 0.62619 0.0
H1610 H 1.03764 0.47928 0.73656 0.0
H1611 H 0.99766 0.42751 0.78562 0.0
C1612 C 0.94075 0.36297 0.76248 0.0
C1613 C 0.91063 0.33156 0.74559 0.0
C1614 C 0.96639 0.39123 0.73461 0.0
C1615 C 0.90847 0.32716 0.70084 0.0
C1616 C 0.93443 0.35466 0.67305 0.0
C1617 C 0.98732 0.41707 0.66111 0.0
C1618 C 1.01419 0.45098 0.67761 0.0
C1619 C 0.96309 0.38738 0.68933 0.0
C1620 C 1.01772 0.45352 0.72293 0.0
C1621 C 0.99455 0.42396 0.75105 0.0
H1622 H 0.22363 0.68771 0.75935 0.0
H1623 H 0.22662 0.76382 0.64392 0.0
H1624 H 0.18424 0.70911 0.60383 0.0
H1625 H 0.15185 0.63842 0.60064 0.0
H1626 H 0.15721 0.56363 0.71549 0.0
H1627 H 0.19198 0.61888 0.75682 0.0
C1628 C 0.21548 0.69225 0.72525 0.0
C1629 C 0.22897 0.7293 0.70415 0.0
C1630 C 0.19298 0.66078 0.70243 0.0
C1631 C 0.21668 0.73532 0.66061 0.0
C1632 C 0.19276 0.70404 0.63777 0.0
C1633 C 0.1603 0.6344 0.63486 0.0
C1634 C 0.15198 0.59705 0.65516 0.0
C1635 C 0.18154 0.66646 0.6581 0.0
C1636 C 0.16345 0.59207 0.69926 0.0
C1637 C 0.18322 0.62361 0.72288 0.0
loop_
_geom_bond_atom_site_label_1
_geom_bond_atom_site_label_2
_geom_bond_distance
_geom_bond_site_symmetry_2
_ccdc_geom_bond_type
Gd0 N31 2.661 . S
Gd0 N37 2.601 . S
Gd0 O44 2.545 . S
Gd0 O45 2.606 . S
Gd0 O47 2.429 . S
Gd0 O48 2.545 . S
Gd0 O49 2.412 . S
Gd0 O51 2.362 . S
Gd0 O52 2.324 . S
Gd0 C59 2.828 . S
Gd1 N10 2.661 . S
Gd1 N14 2.601 . S
Gd1 O45 2.362 . S
Gd1 O46 2.324 . S
Gd1 O50 2.545 . S
Gd1 O51 2.606 . S
Gd1 O53 2.429 . S
Gd1 O54 2.545 . S
Gd1 O55 2.412 . S
Gd1 C68 2.828 . S
C2 C5 1.417 . S
C2 C7 1.431 . S
C2 C8 1.412 . S
C3 C6 1.437 . S
C3 C7 1.317 . S
C3 H22 0.929 . S
C4 C5 1.426 . S
C4 C6 1.413 . S
C4 N14 1.359 . S
C5 C2 1.417 . S
C5 C4 1.426 . S
C5 N10 1.350 . S
C6 C3 1.437 . S
C6 C4 1.413 . S
C6 C16 1.391 . S
C7 C2 1.431 . S
C7 C3 1.317 . S
C7 H18 0.930 . S
C8 C2 1.412 . S
C8 C9 1.355 . S
C8 H20 0.930 . S
C9 C8 1.355 . S
C9 C11 1.402 . S
C9 H21 0.930 . S
N10 Gd1 2.661 . S
N10 C5 1.350 . S
N10 C11 1.307 . S
C11 C9 1.402 . S
C11 N10 1.307 . S
C11 H12 0.930 . S
H12 C11 0.930 . S
C13 N14 1.334 . S
C13 C15 1.394 . S
C13 H17 0.930 . S
N14 Gd1 2.601 . S
N14 C4 1.359 . S
N14 C13 1.334 . S
C15 C13 1.394 . S
C15 C16 1.359 . S
C15 H27 0.930 . S
C16 C6 1.391 . S
C16 C15 1.359 . S
C16 H28 0.929 . S
H17 C13 0.930 . S
H18 C7 0.930 . S
H19 C36 0.930 . S
H20 C8 0.930 . S
H21 C9 0.930 . S
H22 C3 0.929 . S
H23 C41 0.930 . S
H24 C32 0.930 . S
H25 C33 0.930 . S
H26 C57 0.929 . S
H27 C15 0.930 . S
H28 C16 0.929 . S
H29 C58 0.930 . S
H30 C39 0.930 . S
N31 Gd0 2.661 . S
N31 C35 1.350 . S
N31 C36 1.307 . S
C32 H24 0.930 . S
C32 C33 1.355 . S
C32 C34 1.412 . S
C33 H25 0.930 . S
C33 C32 1.355 . S
C33 C36 1.402 . S
C34 C32 1.412 . S
C34 C35 1.417 . S
C34 C58 1.431 . S
C35 N31 1.350 . S
C35 C34 1.417 . S
C35 C38 1.426 . S
C36 H19 0.930 . S
C36 N31 1.307 . S
C36 C33 1.402 . S
N37 Gd0 2.601 . S
N37 C38 1.359 . S
N37 C41 1.334 . S
C38 C35 1.426 . S
C38 N37 1.359 . S
C38 C42 1.413 . S
C39 H30 0.930 . S
C39 C40 1.359 . S
C39 C41 1.394 . S
C40 C39 1.359 . S
C40 C42 1.391 . S
C40 H43 0.929 . S
C41 H23 0.930 . S
C41 N37 1.334 . S
C41 C39 1.394 . S
C42 C38 1.413 . S
C42 C40 1.391 . S
C42 C57 1.437 . S
H43 C40 0.929 . S
O44 Gd0 2.545 . S
O44 C59 1.258 . S
O45 Gd0 2.606 . S
O45 Gd1 2.362 . S
O45 C56 1.284 . S
O46 Gd1 2.324 . S
O46 C66 1.254 . S
O47 Gd0 2.429 . S
O47 C66 1.268 . S
O48 Gd0 2.545 . S
O48 C56 1.250 . S
O49 Gd0 2.412 . S
O49 C59 1.252 . S
O50 Gd1 2.545 . S
O50 C68 1.258 . S
O51 Gd0 2.362 . S
O51 Gd1 2.606 . S
O51 C67 1.284 . S
O52 Gd0 2.324 . S
O52 C75 1.254 . S
O53 Gd1 2.429 . S
O53 C75 1.268 . S
O54 Gd1 2.545 . S
O54 C67 1.250 . S
O55 Gd1 2.412 . S
O55 C68 1.252 . S
C56 O45 1.284 . S
C56 O48 1.250 . S
C57 H26 0.929 . S
C57 C42 1.437 . S
C57 C58 1.317 . S
C58 H29 0.930 . S
C58 C34 1.431 . S
C58 C57 1.317 . S
C59 Gd0 2.828 . S
C59 O44 1.258 . S
C59 O49 1.252 . S
C59 C60 1.497 . S
C60 C59 1.497 . S
C60 C61 1.395 . S
C60 C62 1.380 . S
C61 C60 1.395 . S
C61 C64 1.398 . S
C61 H76 0.930 . S
C62 C60 1.380 . S
C62 C63 1.391 . S
C62 H77 0.930 . S
C63 C62 1.391 . S
C63 C65 1.387 . S
C64 C61 1.398 . S
C64 C65 1.380 . S
C64 H78 0.930 . S
C65 C63 1.387 . S
C65 C64 1.380 . S
C65 H79 0.930 . S
C66 O46 1.254 . S
C66 O47 1.268 . S
C67 O51 1.284 . S
C67 O54 1.250 . S
C68 Gd1 2.828 . S
C68 O50 1.258 . S
C68 O55 1.252 . S
C68 C69 1.497 . S
C69 C68 1.497 . S
C69 C70 1.395 . S
C69 C71 1.380 . S
C70 C69 1.395 . S
C70 C73 1.398 . S
C70 H80 0.930 . S
C71 C69 1.380 . S
C71 C72 1.391 . S
C71 H81 0.930 . S
C72 C71 1.391 . S
C72 C74 1.387 . S
C73 C70 1.398 . S
C73 C74 1.380 . S
C73 H82 0.930 . S
C74 C72 1.387 . S
C74 C73 1.380 . S
C74 H83 0.930 . S
C75 O52 1.254 . S
C75 O53 1.268 . S
H76 C61 0.930 . S
H77 C62 0.930 . S
H78 C64 0.930 . S
H79 C65 0.930 . S
H80 C70 0.930 . S
H81 C71 0.930 . S
H82 C73 0.930 . S
H83 C74 0.930 . S
Gd84 N115 2.661 . S
Gd84 N121 2.601 . S
Gd84 O128 2.545 . S
Gd84 O129 2.606 . S
Gd84 O131 2.429 . S
Gd84 O132 2.545 . S
Gd84 O133 2.412 . S
Gd84 O135 2.362 . S
Gd84 O136 2.324 . S
Gd84 C143 2.828 . S
Gd85 N94 2.661 . S
Gd85 N98 2.601 . S
Gd85 O129 2.362 . S
Gd85 O130 2.324 . S
Gd85 O134 2.545 . S
Gd85 O135 2.606 . S
Gd85 O137 2.429 . S
Gd85 O138 2.545 . S
Gd85 O139 2.412 . S
Gd85 C152 2.828 . S
C86 C89 1.417 . S
C86 C91 1.431 . S
C86 C92 1.412 . S
C87 C90 1.437 . S
C87 C91 1.317 . S
C87 H106 0.929 . S
C88 C89 1.426 . S
C88 C90 1.413 . S
C88 N98 1.359 . S
C89 C86 1.417 . S
C89 C88 1.426 . S
C89 N94 1.350 . S
C90 C87 1.437 . S
C90 C88 1.413 . S
C90 C100 1.391 . S
C91 C86 1.431 . S
C91 C87 1.317 . S
C91 H102 0.930 . S
C92 C86 1.412 . S
C92 C93 1.355 . S
C92 H104 0.930 . S
C93 C92 1.355 . S
C93 C95 1.402 . S
C93 H105 0.930 . S
N94 Gd85 2.661 . S
N94 C89 1.350 . S
N94 C95 1.307 . S
C95 C93 1.402 . S
C95 N94 1.307 . S
C95 H96 0.930 . S
H96 C95 0.930 . S
C97 N98 1.334 . S
C97 C99 1.394 . S
C97 H101 0.930 . S
N98 Gd85 2.601 . S
N98 C88 1.359 . S
N98 C97 1.334 . S
C99 C97 1.394 . S
C99 C100 1.359 . S
C99 H111 0.930 . S
C100 C90 1.391 . S
C100 C99 1.359 . S
C100 H112 0.929 . S
H101 C97 0.930 . S
H102 C91 0.930 . S
H103 C120 0.930 . S
H104 C92 0.930 . S
H105 C93 0.930 . S
H106 C87 0.929 . S
H107 C125 0.930 . S
H108 C116 0.930 . S
H109 C117 0.930 . S
H110 C141 0.929 . S
H111 C99 0.930 . S
H112 C100 0.929 . S
H113 C142 0.930 . S
H114 C123 0.930 . S
N115 Gd84 2.661 . S
N115 C119 1.350 . S
N115 C120 1.307 . S
C116 H108 0.930 . S
C116 C117 1.355 . S
C116 C118 1.412 . S
C117 H109 0.930 . S
C117 C116 1.355 . S
C117 C120 1.402 . S
C118 C116 1.412 . S
C118 C119 1.417 . S
C118 C142 1.431 . S
C119 N115 1.350 . S
C119 C118 1.417 . S
C119 C122 1.426 . S
C120 H103 0.930 . S
C120 N115 1.307 . S
C120 C117 1.402 . S
N121 Gd84 2.601 . S
N121 C122 1.359 . S
N121 C125 1.334 . S
C122 C119 1.426 . S
C122 N121 1.359 . S
C122 C126 1.413 . S
C123 H114 0.930 . S
C123 C124 1.359 . S
C123 C125 1.394 . S
C124 C123 1.359 . S
C124 C126 1.391 . S
C124 H127 0.929 . S
C125 H107 0.930 . S
C125 N121 1.334 . S
C125 C123 1.394 . S
C126 C122 1.413 . S
C126 C124 1.391 . S
C126 C141 1.437 . S
H127 C124 0.929 . S
O128 Gd84 2.545 . S
O128 C143 1.258 . S
O129 Gd84 2.606 . S
O129 Gd85 2.362 . S
O129 C140 1.284 . S
O130 Gd85 2.324 . S
O130 C150 1.254 . S
O131 Gd84 2.429 . S
O131 C150 1.268 . S
O132 Gd84 2.545 . S
O132 C140 1.250 . S
O133 Gd84 2.412 . S
O133 C143 1.252 . S
O134 Gd85 2.545 . S
O134 C152 1.258 . S
O135 Gd84 2.362 . S
O135 Gd85 2.606 . S
O135 C151 1.284 . S
O136 Gd84 2.324 . S
O136 C159 1.254 . S
O137 Gd85 2.429 . S
O137 C159 1.268 . S
O138 Gd85 2.545 . S
O138 C151 1.250 . S
O139 Gd85 2.412 . S
O139 C152 1.252 . S
C140 O129 1.284 . S
C140 O132 1.250 . S
C141 H110 0.929 . S
C141 C126 1.437 . S
C141 C142 1.317 . S
C142 H113 0.930 . S
C142 C118 1.431 . S
C142 C141 1.317 . S
C143 Gd84 2.828 . S
C143 O128 1.258 . S
C143 O133 1.252 . S
C143 C144 1.497 . S
C144 C143 1.497 . S
C144 C145 1.395 . S
C144 C146 1.380 . S
C145 C144 1.395 . S
C145 C148 1.398 . S
C145 H160 0.930 . S
C146 C144 1.380 . S
C146 C147 1.391 . S
C146 H161 0.930 . S
C147 C146 1.391 . S
C147 C149 1.387 . S
C148 C145 1.398 . S
C148 C149 1.380 . S
C148 H162 0.930 . S
C149 C147 1.387 . S
C149 C148 1.380 . S
C149 H163 0.930 . S
C150 O130 1.254 . S
C150 O131 1.268 . S
C151 O135 1.284 . S
C151 O138 1.250 . S
C152 Gd85 2.828 . S
C152 O134 1.258 . S
C152 O139 1.252 . S
C152 C153 1.497 . S
C153 C152 1.497 . S
C153 C154 1.395 . S
C153 C155 1.380 . S
C154 C153 1.395 . S
C154 C157 1.398 . S
C154 H164 0.930 . S
C155 C153 1.380 . S
C155 C156 1.391 . S
C155 H165 0.930 . S
C156 C155 1.391 . S
C156 C158 1.387 . S
C157 C154 1.398 . S
C157 C158 1.380 . S
C157 H166 0.930 . S
C158 C156 1.387 . S
C158 C157 1.380 . S
C158 H167 0.930 . S
C159 O136 1.254 . S
C159 O137 1.268 . S
H160 C145 0.930 . S
H161 C146 0.930 . S
H162 C148 0.930 . S
H163 C149 0.930 . S
H164 C154 0.930 . S
H165 C155 0.930 . S
H166 C157 0.930 . S
H167 C158 0.930 . S
Gd168 N199 2.661 . S
Gd168 N205 2.601 . S
Gd168 O212 2.545 . S
Gd168 O213 2.606 . S
Gd168 O215 2.429 . S
Gd168 O216 2.545 . S
Gd168 O217 2.412 . S
Gd168 O219 2.362 . S
Gd168 O220 2.324 . S
Gd168 C227 2.828 . S
Gd169 N178 2.661 . S
Gd169 N182 2.601 . S
Gd169 O213 2.362 . S
Gd169 O214 2.324 . S
Gd169 O218 2.545 . S
Gd169 O219 2.606 . S
Gd169 O221 2.429 . S
Gd169 O222 2.545 . S
Gd169 O223 2.412 . S
Gd169 C236 2.828 . S
C170 C173 1.417 . S
C170 C175 1.431 . S
C170 C176 1.412 . S
C171 C174 1.437 . S
C171 C175 1.317 . S
C171 H190 0.929 . S
C172 C173 1.426 . S
C172 C174 1.413 . S
C172 N182 1.359 . S
C173 C170 1.417 . S
C173 C172 1.426 . S
C173 N178 1.350 . S
C174 C171 1.437 . S
C174 C172 1.413 . S
C174 C184 1.391 . S
C175 C170 1.431 . S
C175 C171 1.317 . S
C175 H186 0.930 . S
C176 C170 1.412 . S
C176 C177 1.355 . S
C176 H188 0.930 . S
C177 C176 1.355 . S
C177 C179 1.402 . S
C177 H189 0.930 . S
N178 Gd169 2.661 . S
N178 C173 1.350 . S
N178 C179 1.307 . S
C179 C177 1.402 . S
C179 N178 1.307 . S
C179 H180 0.930 . S
H180 C179 0.930 . S
C181 N182 1.334 . S
C181 C183 1.394 . S
C181 H185 0.930 . S
N182 Gd169 2.601 . S
N182 C172 1.359 . S
N182 C181 1.334 . S
C183 C181 1.394 . S
C183 C184 1.359 . S
C183 H195 0.930 . S
C184 C174 1.391 . S
C184 C183 1.359 . S
C184 H196 0.929 . S
H185 C181 0.930 . S
H186 C175 0.930 . S
H187 C204 0.930 . S
H188 C176 0.930 . S
H189 C177 0.930 . S
H190 C171 0.929 . S
H191 C209 0.930 . S
H192 C200 0.930 . S
H193 C201 0.930 . S
H194 C225 0.929 . S
H195 C183 0.930 . S
H196 C184 0.929 . S
H197 C226 0.930 . S
H198 C207 0.930 . S
N199 Gd168 2.661 . S
N199 C203 1.350 . S
N199 C204 1.307 . S
C200 H192 0.930 . S
C200 C201 1.355 . S
C200 C202 1.412 . S
C201 H193 0.930 . S
C201 C200 1.355 . S
C201 C204 1.402 . S
C202 C200 1.412 . S
C202 C203 1.417 . S
C202 C226 1.431 . S
C203 N199 1.350 . S
C203 C202 1.417 . S
C203 C206 1.426 . S
C204 H187 0.930 . S
C204 N199 1.307 . S
C204 C201 1.402 . S
N205 Gd168 2.601 . S
N205 C206 1.359 . S
N205 C209 1.334 . S
C206 C203 1.426 . S
C206 N205 1.359 . S
C206 C210 1.413 . S
C207 H198 0.930 . S
C207 C208 1.359 . S
C207 C209 1.394 . S
C208 C207 1.359 . S
C208 C210 1.391 . S
C208 H211 0.929 . S
C209 H191 0.930 . S
C209 N205 1.334 . S
C209 C207 1.394 . S
C210 C206 1.413 . S
C210 C208 1.391 . S
C210 C225 1.437 . S
H211 C208 0.929 . S
O212 Gd168 2.545 . S
O212 C227 1.258 . S
O213 Gd168 2.606 . S
O213 Gd169 2.362 . S
O213 C224 1.284 . S
O214 Gd169 2.324 . S
O214 C234 1.254 . S
O215 Gd168 2.429 . S
O215 C234 1.268 . S
O216 Gd168 2.545 . S
O216 C224 1.250 . S
O217 Gd168 2.412 . S
O217 C227 1.252 . S
O218 Gd169 2.545 . S
O218 C236 1.258 . S
O219 Gd168 2.362 . S
O219 Gd169 2.606 . S
O219 C235 1.284 . S
O220 Gd168 2.324 . S
O220 C243 1.254 . S
O221 Gd169 2.429 . S
O221 C243 1.268 . S
O222 Gd169 2.545 . S
O222 C235 1.250 . S
O223 Gd169 2.412 . S
O223 C236 1.252 . S
C224 O213 1.284 . S
C224 O216 1.250 . S
C225 H194 0.929 . S
C225 C210 1.437 . S
C225 C226 1.317 . S
C226 H197 0.930 . S
C226 C202 1.431 . S
C226 C225 1.317 . S
C227 Gd168 2.828 . S
C227 O212 1.258 . S
C227 O217 1.252 . S
C227 C228 1.497 . S
C228 C227 1.497 . S
C228 C229 1.395 . S
C228 C230 1.380 . S
C229 C228 1.395 . S
C229 C232 1.398 . S
C229 H244 0.930 . S
C230 C228 1.380 . S
C230 C231 1.391 . S
C230 H245 0.930 . S
C231 C230 1.391 . S
C231 C233 1.387 . S
C232 C229 1.398 . S
C232 C233 1.380 . S
C232 H246 0.930 . S
C233 C231 1.387 . S
C233 C232 1.380 . S
C233 H247 0.930 . S
C234 O214 1.254 . S
C234 O215 1.268 . S
C235 O219 1.284 . S
C235 O222 1.250 . S
C236 Gd169 2.828 . S
C236 O218 1.258 . S
C236 O223 1.252 . S
C236 C237 1.497 . S
C237 C236 1.497 . S
C237 C238 1.395 . S
C237 C239 1.380 . S
C238 C237 1.395 . S
C238 C241 1.398 . S
C238 H248 0.930 . S
C239 C237 1.380 . S
C239 C240 1.391 . S
C239 H249 0.930 . S
C240 C239 1.391 . S
C240 C242 1.387 . S
C241 C238 1.398 . S
C241 C242 1.380 . S
C241 H250 0.930 . S
C242 C240 1.387 . S
C242 C241 1.380 . S
C242 H251 0.930 . S
C243 O220 1.254 . S
C243 O221 1.268 . S
H244 C229 0.930 . S
H245 C230 0.930 . S
H246 C232 0.930 . S
H247 C233 0.930 . S
H248 C238 0.930 . S
H249 C239 0.930 . S
H250 C241 0.930 . S
H251 C242 0.930 . S
Gd252 N283 2.661 . S
Gd252 N289 2.601 . S
Gd252 O296 2.545 . S
Gd252 O297 2.606 . S
Gd252 O299 2.429 . S
Gd252 O300 2.545 . S
Gd252 O301 2.412 . S
Gd252 O303 2.362 . S
Gd252 O304 2.324 . S
Gd252 C311 2.828 . S
Gd253 N262 2.661 . S
Gd253 N266 2.601 . S
Gd253 O297 2.362 . S
Gd253 O298 2.324 . S
Gd253 O302 2.545 . S
Gd253 O303 2.606 . S
Gd253 O305 2.429 . S
Gd253 O306 2.545 . S
Gd253 O307 2.412 . S
Gd253 C320 2.828 . S
C254 C257 1.417 . S
C254 C259 1.431 . S
C254 C260 1.412 . S
C255 C258 1.437 . S
C255 C259 1.317 . S
C255 H274 0.929 . S
C256 C257 1.426 . S
C256 C258 1.413 . S
C256 N266 1.359 . S
C257 C254 1.417 . S
C257 C256 1.426 . S
C257 N262 1.350 . S
C258 C255 1.437 . S
C258 C256 1.413 . S
C258 C268 1.391 . S
C259 C254 1.431 . S
C259 C255 1.317 . S
C259 H270 0.930 . S
C260 C254 1.412 . S
C260 C261 1.355 . S
C260 H272 0.930 . S
C261 C260 1.355 . S
C261 C263 1.402 . S
C261 H273 0.930 . S
N262 Gd253 2.661 . S
N262 C257 1.350 . S
N262 C263 1.307 . S
C263 C261 1.402 . S
C263 N262 1.307 . S
C263 H264 0.930 . S
H264 C263 0.930 . S
C265 N266 1.334 . S
C265 C267 1.394 . S
C265 H269 0.930 . S
N266 Gd253 2.601 . S
N266 C256 1.359 . S
N266 C265 1.334 . S
C267 C265 1.394 . S
C267 C268 1.359 . S
C267 H279 0.930 . S
C268 C258 1.391 . S
C268 C267 1.359 . S
C268 H280 0.929 . S
H269 C265 0.930 . S
H270 C259 0.930 . S
H271 C288 0.930 . S
H272 C260 0.930 . S
H273 C261 0.930 . S
H274 C255 0.929 . S
H275 C293 0.930 . S
H276 C284 0.930 . S
H277 C285 0.930 . S
H278 C309 0.929 . S
H279 C267 0.930 . S
H280 C268 0.929 . S
H281 C310 0.930 . S
H282 C291 0.930 . S
N283 Gd252 2.661 . S
N283 C287 1.350 . S
N283 C288 1.307 . S
C284 H276 0.930 . S
C284 C285 1.355 . S
C284 C286 1.412 . S
C285 H277 0.930 . S
C285 C284 1.355 . S
C285 C288 1.402 . S
C286 C284 1.412 . S
C286 C287 1.417 . S
C286 C310 1.431 . S
C287 N283 1.350 . S
C287 C286 1.417 . S
C287 C290 1.426 . S
C288 H271 0.930 . S
C288 N283 1.307 . S
C288 C285 1.402 . S
N289 Gd252 2.601 . S
N289 C290 1.359 . S
N289 C293 1.334 . S
C290 C287 1.426 . S
C290 N289 1.359 . S
C290 C294 1.413 . S
C291 H282 0.930 . S
C291 C292 1.359 . S
C291 C293 1.394 . S
C292 C291 1.359 . S
C292 C294 1.391 . S
C292 H295 0.929 . S
C293 H275 0.930 . S
C293 N289 1.334 . S
C293 C291 1.394 . S
C294 C290 1.413 . S
C294 C292 1.391 . S
C294 C309 1.437 . S
H295 C292 0.929 . S
O296 Gd252 2.545 . S
O296 C311 1.258 . S
O297 Gd252 2.606 . S
O297 Gd253 2.362 . S
O297 C308 1.284 . S
O298 Gd253 2.324 . S
O298 C318 1.254 . S
O299 Gd252 2.429 . S
O299 C318 1.268 . S
O300 Gd252 2.545 . S
O300 C308 1.250 . S
O301 Gd252 2.412 . S
O301 C311 1.252 . S
O302 Gd253 2.545 . S
O302 C320 1.258 . S
O303 Gd252 2.362 . S
O303 Gd253 2.606 . S
O303 C319 1.284 . S
O304 Gd252 2.324 . S
O304 C327 1.254 . S
O305 Gd253 2.429 . S
O305 C327 1.268 . S
O306 Gd253 2.545 . S
O306 C319 1.250 . S
O307 Gd253 2.412 . S
O307 C320 1.252 . S
C308 O297 1.284 . S
C308 O300 1.250 . S
C309 H278 0.929 . S
C309 C294 1.437 . S
C309 C310 1.317 . S
C310 H281 0.930 . S
C310 C286 1.431 . S
C310 C309 1.317 . S
C311 Gd252 2.828 . S
C311 O296 1.258 . S
C311 O301 1.252 . S
C311 C312 1.497 . S
C312 C311 1.497 . S
C312 C313 1.395 . S
C312 C314 1.380 . S
C313 C312 1.395 . S
C313 C316 1.398 . S
C313 H328 0.930 . S
C314 C312 1.380 . S
C314 C315 1.391 . S
C314 H329 0.930 . S
C315 C314 1.391 . S
C315 C317 1.387 . S
C316 C313 1.398 . S
C316 C317 1.380 . S
C316 H330 0.930 . S
C317 C315 1.387 . S
C317 C316 1.380 . S
C317 H331 0.930 . S
C318 O298 1.254 . S
C318 O299 1.268 . S
C319 O303 1.284 . S
C319 O306 1.250 . S
C320 Gd253 2.828 . S
C320 O302 1.258 . S
C320 O307 1.252 . S
C320 C321 1.497 . S
C321 C320 1.497 . S
C321 C322 1.395 . S
C321 C323 1.380 . S
C322 C321 1.395 . S
C322 C325 1.398 . S
C322 H332 0.930 . S
C323 C321 1.380 . S
C323 C324 1.391 . S
C323 H333 0.930 . S
C324 C323 1.391 . S
C324 C326 1.387 . S
C325 C322 1.398 . S
C325 C326 1.380 . S
C325 H334 0.930 . S
C326 C324 1.387 . S
C326 C325 1.380 . S
C326 H335 0.930 . S
C327 O304 1.254 . S
C327 O305 1.268 . S
H328 C313 0.930 . S
H329 C314 0.930 . S
H330 C316 0.930 . S
H331 C317 0.930 . S
H332 C322 0.930 . S
H333 C323 0.930 . S
H334 C325 0.930 . S
H335 C326 0.930 . S
Gd336 N367 2.661 . S
Gd336 N373 2.601 . S
Gd336 O380 2.545 . S
Gd336 O381 2.606 . S
Gd336 O383 2.429 . S
Gd336 O384 2.545 . S
Gd336 O385 2.412 . S
Gd336 O387 2.362 . S
Gd336 O388 2.324 . S
Gd336 C395 2.828 . S
Gd337 N346 2.661 . S
Gd337 N350 2.601 . S
Gd337 O381 2.362 . S
Gd337 O382 2.324 . S
Gd337 O386 2.545 . S
Gd337 O387 2.606 . S
Gd337 O389 2.429 . S
Gd337 O390 2.545 . S
Gd337 O391 2.412 . S
Gd337 C404 2.828 . S
C338 C341 1.417 . S
C338 C343 1.431 . S
C338 C344 1.412 . S
C339 C342 1.437 . S
C339 C343 1.317 . S
C339 H358 0.929 . S
C340 C341 1.426 . S
C340 C342 1.413 . S
C340 N350 1.359 . S
C341 C338 1.417 . S
C341 C340 1.426 . S
C341 N346 1.350 . S
C342 C339 1.437 . S
C342 C340 1.413 . S
C342 C352 1.391 . S
C343 C338 1.431 . S
C343 C339 1.317 . S
C343 H354 0.930 . S
C344 C338 1.412 . S
C344 C345 1.355 . S
C344 H356 0.930 . S
C345 C344 1.355 . S
C345 C347 1.402 . S
C345 H357 0.930 . S
N346 Gd337 2.661 . S
N346 C341 1.350 . S
N346 C347 1.307 . S
C347 C345 1.402 . S
C347 N346 1.307 . S
C347 H348 0.930 . S
H348 C347 0.930 . S
C349 N350 1.334 . S
C349 C351 1.394 . S
C349 H353 0.930 . S
N350 Gd337 2.601 . S
N350 C340 1.359 . S
N350 C349 1.334 . S
C351 C349 1.394 . S
C351 C352 1.359 . S
C351 H363 0.930 . S
C352 C342 1.391 . S
C352 C351 1.359 . S
C352 H364 0.929 . S
H353 C349 0.930 . S
H354 C343 0.930 . S
H355 C372 0.930 . S
H356 C344 0.930 . S
H357 C345 0.930 . S
H358 C339 0.929 . S
H359 C377 0.930 . S
H360 C368 0.930 . S
H361 C369 0.930 . S
H362 C393 0.929 . S
H363 C351 0.930 . S
H364 C352 0.929 . S
H365 C394 0.930 . S
H366 C375 0.930 . S
N367 Gd336 2.661 . S
N367 C371 1.350 . S
N367 C372 1.307 . S
C368 H360 0.930 . S
C368 C369 1.355 . S
C368 C370 1.412 . S
C369 H361 0.930 . S
C369 C368 1.355 . S
C369 C372 1.402 . S
C370 C368 1.412 . S
C370 C371 1.417 . S
C370 C394 1.431 . S
C371 N367 1.350 . S
C371 C370 1.417 . S
C371 C374 1.426 . S
C372 H355 0.930 . S
C372 N367 1.307 . S
C372 C369 1.402 . S
N373 Gd336 2.601 . S
N373 C374 1.359 . S
N373 C377 1.334 . S
C374 C371 1.426 . S
C374 N373 1.359 . S
C374 C378 1.413 . S
C375 H366 0.930 . S
C375 C376 1.359 . S
C375 C377 1.394 . S
C376 C375 1.359 . S
C376 C378 1.391 . S
C376 H379 0.929 . S
C377 H359 0.930 . S
C377 N373 1.334 . S
C377 C375 1.394 . S
C378 C374 1.413 . S
C378 C376 1.391 . S
C378 C393 1.437 . S
H379 C376 0.929 . S
O380 Gd336 2.545 . S
O380 C395 1.258 . S
O381 Gd336 2.606 . S
O381 Gd337 2.362 . S
O381 C392 1.284 . S
O382 Gd337 2.324 . S
O382 C402 1.254 . S
O383 Gd336 2.429 . S
O383 C402 1.268 . S
O384 Gd336 2.545 . S
O384 C392 1.250 . S
O385 Gd336 2.412 . S
O385 C395 1.252 . S
O386 Gd337 2.545 . S
O386 C404 1.258 . S
O387 Gd336 2.362 . S
O387 Gd337 2.606 . S
O387 C403 1.284 . S
O388 Gd336 2.324 . S
O388 C411 1.254 . S
O389 Gd337 2.429 . S
O389 C411 1.268 . S
O390 Gd337 2.545 . S
O390 C403 1.250 . S
O391 Gd337 2.412 . S
O391 C404 1.252 . S
C392 O381 1.284 . S
C392 O384 1.250 . S
C393 H362 0.929 . S
C393 C378 1.437 . S
C393 C394 1.317 . S
C394 H365 0.930 . S
C394 C370 1.431 . S
C394 C393 1.317 . S
C395 Gd336 2.828 . S
C395 O380 1.258 . S
C395 O385 1.252 . S
C395 C396 1.497 . S
C396 C395 1.497 . S
C396 C397 1.395 . S
C396 C398 1.380 . S
C397 C396 1.395 . S
C397 C400 1.398 . S
C397 H412 0.930 . S
C398 C396 1.380 . S
C398 C399 1.391 . S
C398 H413 0.930 . S
C399 C398 1.391 . S
C399 C401 1.387 . S
C400 C397 1.398 . S
C400 C401 1.380 . S
C400 H414 0.930 . S
C401 C399 1.387 . S
C401 C400 1.380 . S
C401 H415 0.930 . S
C402 O382 1.254 . S
C402 O383 1.268 . S
C403 O387 1.284 . S
C403 O390 1.250 . S
C404 Gd337 2.828 . S
C404 O386 1.258 . S
C404 O391 1.252 . S
C404 C405 1.497 . S
C405 C404 1.497 . S
C405 C406 1.395 . S
C405 C407 1.380 . S
C406 C405 1.395 . S
C406 C409 1.398 . S
C406 H416 0.930 . S
C407 C405 1.380 . S
C407 C408 1.391 . S
C407 H417 0.930 . S
C408 C407 1.391 . S
C408 C410 1.387 . S
C409 C406 1.398 . S
C409 C410 1.380 . S
C409 H418 0.930 . S
C410 C408 1.387 . S
C410 C409 1.380 . S
C410 H419 0.930 . S
C411 O388 1.254 . S
C411 O389 1.268 . S
H412 C397 0.930 . S
H413 C398 0.930 . S
H414 C400 0.930 . S
H415 C401 0.930 . S
H416 C406 0.930 . S
H417 C407 0.930 . S
H418 C409 0.930 . S
H419 C410 0.930 . S
Gd420 N451 2.661 . S
Gd420 N457 2.601 . S
Gd420 O464 2.545 . S
Gd420 O465 2.606 . S
Gd420 O467 2.429 . S
Gd420 O468 2.545 . S
Gd420 O469 2.412 . S
Gd420 O471 2.362 . S
Gd420 O472 2.324 . S
Gd420 C479 2.828 . S
Gd421 N430 2.661 . S
Gd421 N434 2.601 . S
Gd421 O465 2.362 . S
Gd421 O466 2.324 . S
Gd421 O470 2.545 . S
Gd421 O471 2.606 . S
Gd421 O473 2.429 . S
Gd421 O474 2.545 . S
Gd421 O475 2.412 . S
Gd421 C488 2.828 . S
C422 C425 1.417 . S
C422 C427 1.431 . S
C422 C428 1.412 . S
C423 C426 1.437 . S
C423 C427 1.317 . S
C423 H442 0.929 . S
C424 C425 1.426 . S
C424 C426 1.413 . S
C424 N434 1.359 . S
C425 C422 1.417 . S
C425 C424 1.426 . S
C425 N430 1.350 . S
C426 C423 1.437 . S
C426 C424 1.413 . S
C426 C436 1.391 . S
C427 C422 1.431 . S
C427 C423 1.317 . S
C427 H438 0.930 1_556 S
C428 C422 1.412 . S
C428 C429 1.355 . S
C428 H440 0.930 1_556 S
C429 C428 1.355 . S
C429 C431 1.402 . S
C429 H441 0.930 . S
N430 Gd421 2.661 . S
N430 C425 1.350 . S
N430 C431 1.307 . S
C431 C429 1.402 . S
C431 N430 1.307 . S
C431 H432 0.930 . S
H432 C431 0.930 . S
C433 N434 1.334 . S
C433 C435 1.394 . S
C433 H437 0.930 . S
N434 Gd421 2.601 . S
N434 C424 1.359 . S
N434 C433 1.334 . S
C435 C433 1.394 . S
C435 C436 1.359 . S
C435 H447 0.930 . S
C436 C426 1.391 . S
C436 C435 1.359 . S
C436 H448 0.929 . S
H437 C433 0.930 . S
H438 C427 0.930 1_554 S
H439 C456 0.930 . S
H440 C428 0.930 1_554 S
H441 C429 0.930 . S
H442 C423 0.929 . S
H443 C461 0.930 . S
H444 C452 0.930 . S
H445 C453 0.930 . S
H446 C477 0.929 . S
H447 C435 0.930 . S
H448 C436 0.929 . S
H449 C478 0.930 . S
H450 C459 0.930 . S
N451 Gd420 2.661 . S
N451 C455 1.350 . S
N451 C456 1.307 . S
C452 H444 0.930 . S
C452 C453 1.355 . S
C452 C454 1.412 . S
C453 H445 0.930 . S
C453 C452 1.355 . S
C453 C456 1.402 . S
C454 C452 1.412 . S
C454 C455 1.417 . S
C454 C478 1.431 . S
C455 N451 1.350 . S
C455 C454 1.417 . S
C455 C458 1.426 . S
C456 H439 0.930 . S
C456 N451 1.307 . S
C456 C453 1.402 . S
N457 Gd420 2.601 . S
N457 C458 1.359 . S
N457 C461 1.334 . S
C458 C455 1.426 . S
C458 N457 1.359 . S
C458 C462 1.413 . S
C459 H450 0.930 . S
C459 C460 1.359 . S
C459 C461 1.394 . S
C460 C459 1.359 . S
C460 C462 1.391 . S
C460 H463 0.929 . S
C461 H443 0.930 . S
C461 N457 1.334 . S
C461 C459 1.394 . S
C462 C458 1.413 . S
C462 C460 1.391 . S
C462 C477 1.437 . S
H463 C460 0.929 . S
O464 Gd420 2.545 . S
O464 C479 1.258 . S
O465 Gd420 2.606 . S
O465 Gd421 2.362 . S
O465 C476 1.284 . S
O466 Gd421 2.324 . S
O466 C486 1.254 . S
O467 Gd420 2.429 . S
O467 C486 1.268 . S
O468 Gd420 2.545 . S
O468 C476 1.250 . S
O469 Gd420 2.412 . S
O469 C479 1.252 . S
O470 Gd421 2.545 . S
O470 C488 1.258 . S
O471 Gd420 2.362 . S
O471 Gd421 2.606 . S
O471 C487 1.284 . S
O472 Gd420 2.324 . S
O472 C495 1.254 . S
O473 Gd421 2.429 . S
O473 C495 1.268 . S
O474 Gd421 2.545 . S
O474 C487 1.250 . S
O475 Gd421 2.412 . S
O475 C488 1.252 . S
C476 O465 1.284 . S
C476 O468 1.250 . S
C477 H446 0.929 . S
C477 C462 1.437 . S
C477 C478 1.317 . S
C478 H449 0.930 . S
C478 C454 1.431 . S
C478 C477 1.317 . S
C479 Gd420 2.828 . S
C479 O464 1.258 . S
C479 O469 1.252 . S
C479 C480 1.497 . S
C480 C479 1.497 . S
C480 C481 1.395 . S
C480 C482 1.380 . S
C481 C480 1.395 . S
C481 C484 1.398 . S
C481 H496 0.930 . S
C482 C480 1.380 . S
C482 C483 1.391 . S
C482 H497 0.930 . S
C483 C482 1.391 . S
C483 C485 1.387 . S
C484 C481 1.398 . S
C484 C485 1.380 . S
C484 H498 0.930 . S
C485 C483 1.387 . S
C485 C484 1.380 . S
C485 H499 0.930 . S
C486 O466 1.254 . S
C486 O467 1.268 . S
C487 O471 1.284 . S
C487 O474 1.250 . S
C488 Gd421 2.828 . S
C488 O470 1.258 . S
C488 O475 1.252 . S
C488 C489 1.497 . S
C489 C488 1.497 . S
C489 C490 1.395 . S
C489 C491 1.380 . S
C490 C489 1.395 . S
C490 C493 1.398 . S
C490 H500 0.930 . S
C491 C489 1.380 . S
C491 C492 1.391 . S
C491 H501 0.930 . S
C492 C491 1.391 . S
C492 C494 1.387 . S
C493 C490 1.398 . S
C493 C494 1.380 . S
C493 H502 0.930 . S
C494 C492 1.387 . S
C494 C493 1.380 . S
C494 H503 0.930 . S
C495 O472 1.254 . S
C495 O473 1.268 . S
H496 C481 0.930 . S
H497 C482 0.930 . S
H498 C484 0.930 . S
H499 C485 0.930 . S
H500 C490 0.930 . S
H501 C491 0.930 . S
H502 C493 0.930 . S
H503 C494 0.930 . S
Gd504 N535 2.661 . S
Gd504 N541 2.601 . S
Gd504 O548 2.545 . S
Gd504 O549 2.606 . S
Gd504 O551 2.429 . S
Gd504 O552 2.545 . S
Gd504 O553 2.412 . S
Gd504 O555 2.362 . S
Gd504 O556 2.324 . S
Gd504 C563 2.828 . S
Gd505 N514 2.661 . S
Gd505 N518 2.601 . S
Gd505 O549 2.362 . S
Gd505 O550 2.324 . S
Gd505 O554 2.545 . S
Gd505 O555 2.606 . S
Gd505 O557 2.429 . S
Gd505 O558 2.545 . S
Gd505 O559 2.412 . S
Gd505 C572 2.828 . S
C506 C509 1.417 . S
C506 C511 1.431 . S
C506 C512 1.412 . S
C507 C510 1.437 . S
C507 C511 1.317 . S
C507 H526 0.929 . S
C508 C509 1.426 . S
C508 C510 1.413 . S
C508 N518 1.359 . S
C509 C506 1.417 . S
C509 C508 1.426 . S
C509 N514 1.350 . S
C510 C507 1.437 . S
C510 C508 1.413 . S
C510 C520 1.391 . S
C511 C506 1.431 . S
C511 C507 1.317 . S
C511 H522 0.930 . S
C512 C506 1.412 . S
C512 C513 1.355 . S
C512 H524 0.930 . S
C513 C512 1.355 . S
C513 C515 1.402 . S
C513 H525 0.930 . S
N514 Gd505 2.661 . S
N514 C509 1.350 . S
N514 C515 1.307 . S
C515 C513 1.402 . S
C515 N514 1.307 . S
C515 H516 0.930 . S
H516 C515 0.930 . S
C517 N518 1.334 . S
C517 C519 1.394 . S
C517 H521 0.930 . S
N518 Gd505 2.601 . S
N518 C508 1.359 . S
N518 C517 1.334 . S
C519 C517 1.394 . S
C519 C520 1.359 . S
C519 H531 0.930 . S
C520 C510 1.391 . S
C520 C519 1.359 . S
C520 H532 0.928 . S
H521 C517 0.930 . S
H522 C511 0.930 . S
H523 C540 0.930 . S
H524 C512 0.930 . S
H525 C513 0.930 . S
H526 C507 0.929 . S
H527 C545 0.930 . S
H528 C536 0.930 . S
H529 C537 0.930 . S
H530 C561 0.929 . S
H531 C519 0.930 . S
H532 C520 0.928 . S
H533 C562 0.930 . S
H534 C543 0.930 . S
N535 Gd504 2.661 . S
N535 C539 1.350 . S
N535 C540 1.307 . S
C536 H528 0.930 . S
C536 C537 1.355 . S
C536 C538 1.412 . S
C537 H529 0.930 . S
C537 C536 1.355 . S
C537 C540 1.402 . S
C538 C536 1.412 . S
C538 C539 1.417 . S
C538 C562 1.431 . S
C539 N535 1.350 . S
C539 C538 1.417 . S
C539 C542 1.426 . S
C540 H523 0.930 . S
C540 N535 1.307 . S
C540 C537 1.402 . S
N541 Gd504 2.601 . S
N541 C542 1.359 . S
N541 C545 1.334 . S
C542 C539 1.426 . S
C542 N541 1.359 . S
C542 C546 1.413 . S
C543 H534 0.930 . S
C543 C544 1.359 . S
C543 C545 1.394 . S
C544 C543 1.359 . S
C544 C546 1.391 . S
C544 H547 0.929 . S
C545 H527 0.930 . S
C545 N541 1.334 . S
C545 C543 1.394 . S
C546 C542 1.413 . S
C546 C544 1.391 . S
C546 C561 1.437 . S
H547 C544 0.929 . S
O548 Gd504 2.545 . S
O548 C563 1.258 . S
O549 Gd504 2.606 . S
O549 Gd505 2.362 . S
O549 C560 1.284 . S
O550 Gd505 2.324 . S
O550 C570 1.254 . S
O551 Gd504 2.429 . S
O551 C570 1.268 . S
O552 Gd504 2.545 . S
O552 C560 1.250 . S
O553 Gd504 2.412 . S
O553 C563 1.252 . S
O554 Gd505 2.545 . S
O554 C572 1.258 . S
O555 Gd504 2.362 . S
O555 Gd505 2.606 . S
O555 C571 1.284 . S
O556 Gd504 2.324 . S
O556 C579 1.254 . S
O557 Gd505 2.429 . S
O557 C579 1.268 . S
O558 Gd505 2.545 . S
O558 C571 1.250 . S
O559 Gd505 2.412 . S
O559 C572 1.252 . S
C560 O549 1.284 . S
C560 O552 1.250 . S
C561 H530 0.929 . S
C561 C546 1.437 . S
C561 C562 1.317 . S
C562 H533 0.930 . S
C562 C538 1.431 . S
C562 C561 1.317 . S
C563 Gd504 2.828 . S
C563 O548 1.258 . S
C563 O553 1.252 . S
C563 C564 1.497 . S
C564 C563 1.497 . S
C564 C565 1.395 . S
C564 C566 1.380 . S
C565 C564 1.395 . S
C565 C568 1.398 . S
C565 H580 0.930 . S
C566 C564 1.380 . S
C566 C567 1.391 . S
C566 H581 0.930 . S
C567 C566 1.391 . S
C567 C569 1.387 . S
C568 C565 1.398 . S
C568 C569 1.380 . S
C568 H582 0.930 . S
C569 C567 1.387 . S
C569 C568 1.380 . S
C569 H583 0.930 . S
C570 O550 1.254 . S
C570 O551 1.268 . S
C571 O555 1.284 . S
C571 O558 1.250 . S
C572 Gd505 2.828 . S
C572 O554 1.258 . S
C572 O559 1.252 . S
C572 C573 1.497 . S
C573 C572 1.497 . S
C573 C574 1.395 . S
C573 C575 1.380 . S
C574 C573 1.395 . S
C574 C577 1.398 . S
C574 H584 0.930 . S
C575 C573 1.380 . S
C575 C576 1.391 . S
C575 H585 0.930 . S
C576 C575 1.391 . S
C576 C578 1.387 . S
C577 C574 1.398 . S
C577 C578 1.380 . S
C577 H586 0.930 . S
C578 C576 1.387 . S
C578 C577 1.380 . S
C578 H587 0.930 . S
C579 O556 1.254 . S
C579 O557 1.268 . S
H580 C565 0.930 . S
H581 C566 0.930 . S
H582 C568 0.930 . S
H583 C569 0.930 . S
H584 C574 0.930 . S
H585 C575 0.930 . S
H586 C577 0.930 . S
H587 C578 0.930 . S
Gd588 N619 2.661 . S
Gd588 N625 2.601 . S
Gd588 O632 2.545 . S
Gd588 O633 2.606 . S
Gd588 O635 2.429 . S
Gd588 O636 2.545 . S
Gd588 O637 2.412 . S
Gd588 O639 2.362 . S
Gd588 O640 2.324 . S
Gd588 C647 2.828 . S
Gd589 N598 2.661 . S
Gd589 N602 2.601 . S
Gd589 O633 2.362 . S
Gd589 O634 2.324 . S
Gd589 O638 2.545 . S
Gd589 O639 2.606 . S
Gd589 O641 2.429 . S
Gd589 O642 2.545 . S
Gd589 O643 2.412 . S
Gd589 C656 2.828 . S
C590 C593 1.417 . S
C590 C595 1.431 . S
C590 C596 1.412 . S
C591 C594 1.437 . S
C591 C595 1.317 . S
C591 H610 0.929 . S
C592 C593 1.426 . S
C592 C594 1.413 . S
C592 N602 1.359 . S
C593 C590 1.417 . S
C593 C592 1.426 . S
C593 N598 1.350 . S
C594 C591 1.437 . S
C594 C592 1.413 . S
C594 C604 1.391 . S
C595 C590 1.431 . S
C595 C591 1.317 . S
C595 H606 0.930 . S
C596 C590 1.412 . S
C596 C597 1.355 . S
C596 H608 0.930 . S
C597 C596 1.355 . S
C597 C599 1.402 . S
C597 H609 0.930 . S
N598 Gd589 2.661 . S
N598 C593 1.350 . S
N598 C599 1.307 . S
C599 C597 1.402 . S
C599 N598 1.307 . S
C599 H600 0.930 . S
H600 C599 0.930 . S
C601 N602 1.334 . S
C601 C603 1.394 . S
C601 H605 0.930 . S
N602 Gd589 2.601 . S
N602 C592 1.359 . S
N602 C601 1.334 . S
C603 C601 1.394 . S
C603 C604 1.359 . S
C603 H615 0.930 . S
C604 C594 1.391 . S
C604 C603 1.359 . S
C604 H616 0.929 . S
H605 C601 0.930 . S
H606 C595 0.930 . S
H607 C624 0.930 . S
H608 C596 0.930 . S
H609 C597 0.930 . S
H610 C591 0.929 . S
H611 C629 0.930 . S
H612 C620 0.930 1_554 S
H613 C621 0.930 . S
H614 C645 0.929 . S
H615 C603 0.930 . S
H616 C604 0.929 . S
H617 C646 0.930 1_554 S
H618 C627 0.930 . S
N619 Gd588 2.661 . S
N619 C623 1.350 . S
N619 C624 1.307 . S
C620 H612 0.930 1_556 S
C620 C621 1.355 . S
C620 C622 1.412 . S
C621 H613 0.930 . S
C621 C620 1.355 . S
C621 C624 1.402 . S
C622 C620 1.412 . S
C622 C623 1.417 . S
C622 C646 1.431 . S
C623 N619 1.350 . S
C623 C622 1.417 . S
C623 C626 1.426 . S
C624 H607 0.930 . S
C624 N619 1.307 . S
C624 C621 1.402 . S
N625 Gd588 2.601 . S
N625 C626 1.359 . S
N625 C629 1.334 . S
C626 C623 1.426 . S
C626 N625 1.359 . S
C626 C630 1.413 . S
C627 H618 0.930 . S
C627 C628 1.359 . S
C627 C629 1.394 . S
C628 C627 1.359 . S
C628 C630 1.391 . S
C628 H631 0.929 . S
C629 H611 0.930 . S
C629 N625 1.334 . S
C629 C627 1.394 . S
C630 C626 1.413 . S
C630 C628 1.391 . S
C630 C645 1.437 . S
H631 C628 0.929 . S
O632 Gd588 2.545 . S
O632 C647 1.258 . S
O633 Gd588 2.606 . S
O633 Gd589 2.362 . S
O633 C644 1.284 . S
O634 Gd589 2.324 . S
O634 C654 1.254 . S
O635 Gd588 2.429 . S
O635 C654 1.268 . S
O636 Gd588 2.545 . S
O636 C644 1.250 . S
O637 Gd588 2.412 . S
O637 C647 1.252 . S
O638 Gd589 2.545 . S
O638 C656 1.258 . S
O639 Gd588 2.362 . S
O639 Gd589 2.606 . S
O639 C655 1.284 . S
O640 Gd588 2.324 . S
O640 C663 1.254 . S
O641 Gd589 2.429 . S
O641 C663 1.268 . S
O642 Gd589 2.545 . S
O642 C655 1.250 . S
O643 Gd589 2.412 . S
O643 C656 1.252 . S
C644 O633 1.284 . S
C644 O636 1.250 . S
C645 H614 0.929 . S
C645 C630 1.437 . S
C645 C646 1.317 . S
C646 H617 0.930 1_556 S
C646 C622 1.431 . S
C646 C645 1.317 . S
C647 Gd588 2.828 . S
C647 O632 1.258 . S
C647 O637 1.252 . S
C647 C648 1.497 . S
C648 C647 1.497 . S
C648 C649 1.395 . S
C648 C650 1.380 . S
C649 C648 1.395 . S
C649 C652 1.398 . S
C649 H664 0.930 . S
C650 C648 1.380 . S
C650 C651 1.391 . S
C650 H665 0.930 . S
C651 C650 1.391 . S
C651 C653 1.387 . S
C652 C649 1.398 . S
C652 C653 1.380 . S
C652 H666 0.930 . S
C653 C651 1.387 . S
C653 C652 1.380 . S
C653 H667 0.930 . S
C654 O634 1.254 . S
C654 O635 1.268 . S
C655 O639 1.284 . S
C655 O642 1.250 . S
C656 Gd589 2.828 . S
C656 O638 1.258 . S
C656 O643 1.252 . S
C656 C657 1.497 . S
C657 C656 1.497 . S
C657 C658 1.395 . S
C657 C659 1.380 . S
C658 C657 1.395 . S
C658 C661 1.398 . S
C658 H668 0.930 . S
C659 C657 1.380 . S
C659 C660 1.391 . S
C659 H669 0.930 . S
C660 C659 1.391 . S
C660 C662 1.387 . S
C661 C658 1.398 . S
C661 C662 1.380 . S
C661 H670 0.930 . S
C662 C660 1.387 . S
C662 C661 1.380 . S
C662 H671 0.930 . S
C663 O640 1.254 . S
C663 O641 1.268 . S
H664 C649 0.930 . S
H665 C650 0.930 . S
H666 C652 0.930 . S
H667 C653 0.930 . S
H668 C658 0.930 . S
H669 C659 0.930 . S
H670 C661 0.930 . S
H671 C662 0.930 . S
Co672 O675 2.042 . S
Co672 O682 2.264 . S
Co672 O701 2.286 . S
Co672 O702 2.069 . S
Co672 O704 2.015 1_455 S
Co673 O675 2.122 . S
Co673 O681 2.073 . S
Co673 O682 2.327 . S
Co673 O683 1.976 1_455 S
Co674 O675 2.087 1_545 S
Co674 O677 2.087 1_455 S
Co674 O684 2.111 1_445 S
Co674 O685 2.143 . S
Co674 O689 2.111 . S
Co674 O703 2.143 1_445 S
O675 Co672 2.042 . S
O675 Co673 2.122 . S
O675 Co674 2.087 1_565 S
O675 H676 0.980 1_565 S
H676 O675 0.980 1_545 S
O677 Co674 2.087 1_655 S
O677 Co678 2.042 . S
O677 Co679 2.122 . S
O677 H680 0.980 . S
Co678 O677 2.042 . S
Co678 O686 2.286 . S
Co678 O687 2.069 . S
Co678 O688 2.015 1_655 S
Co678 O691 2.264 . S
Co679 O677 2.122 . S
Co679 O690 1.976 1_655 S
Co679 O691 2.327 . S
Co679 O692 2.073 . S
H680 O677 0.980 . S
O681 Co673 2.073 . S
O681 C696 1.245 . S
O682 Co672 2.264 . S
O682 Co673 2.327 . S
O682 C696 1.257 . S
O683 Co673 1.976 1_655 S
O683 C695 1.251 . S
O684 Co674 2.111 1_665 S
O684 C695 1.274 . S
O685 Co674 2.143 . S
O685 C698 1.246 . S
O686 Co678 2.286 . S
O686 C697 1.259 . S
O687 Co678 2.069 . S
O687 C697 1.289 . S
O688 Co678 2.015 1_455 S
O688 C698 1.257 . S
O689 Co674 2.111 . S
O689 C699 1.274 . S
O690 Co679 1.976 1_455 S
O690 C699 1.251 . S
O691 Co678 2.264 . S
O691 Co679 2.327 . S
O691 C700 1.257 . S
O692 Co679 2.073 . S
O692 C700 1.245 . S
C693 O701 1.259 . S
C693 O702 1.289 . S
C694 O703 1.246 . S
C694 O704 1.257 . S
C695 O683 1.251 . S
C695 O684 1.274 . S
C696 O681 1.245 . S
C696 O682 1.257 . S
C697 O686 1.259 . S
C697 O687 1.289 . S
C698 O685 1.246 . S
C698 O688 1.257 . S
C699 O689 1.274 . S
C699 O690 1.251 . S
C700 O691 1.257 . S
C700 O692 1.245 . S
O701 Co672 2.286 . S
O701 C693 1.259 . S
O702 Co672 2.069 . S
O702 C693 1.289 . S
O703 Co674 2.143 1_665 S
O703 C694 1.246 . S
O704 Co672 2.015 1_655 S
O704 C694 1.257 . S
Co705 O708 2.042 1_566 S
Co705 O715 2.264 1_556 S
Co705 O734 2.286 . S
Co705 O735 2.069 . S
Co705 O737 2.015 . S
Co706 O708 2.122 1_565 S
Co706 O714 2.073 . S
Co706 O715 2.327 . S
Co706 O716 1.976 . S
Co707 O708 2.087 . S
Co707 O710 2.087 1_554 S
Co707 O717 2.111 . S
Co707 O718 2.143 . S
Co707 O722 2.111 1_554 S
Co707 O736 2.162 1_554 S
O708 Co705 2.042 1_544 S
O708 Co706 2.122 1_545 S
O708 Co707 2.087 . S
O708 H709 0.980 . S
H709 O708 0.980 . S
O710 Co707 2.087 1_556 S
O710 Co711 2.042 1_556 S
O710 Co712 2.122 . S
O710 H713 0.980 . S
Co711 O710 2.042 1_554 S
Co711 O719 2.286 . S
Co711 O720 2.069 . S
Co711 O721 2.015 . S
Co711 O724 2.264 1_554 S
Co712 O710 2.122 . S
Co712 O723 1.976 . S
Co712 O724 2.327 . S
Co712 O725 2.073 . S
H713 O710 0.980 . S
O714 Co706 2.073 . S
O714 C729 1.245 . S
O715 Co705 2.264 1_554 S
O715 Co706 2.327 . S
O715 C729 1.257 . S
O716 Co706 1.976 . S
O716 C728 1.251 . S
O717 Co707 2.111 . S
O717 C728 1.274 1_545 S
O718 Co707 2.143 . S
O718 C731 1.246 . S
O719 Co711 2.286 . S
O719 C730 1.259 . S
O720 Co711 2.069 . S
O720 C730 1.289 . S
O721 Co711 2.015 . S
O721 C731 1.257 . S
O722 Co707 2.111 1_556 S
O722 C732 1.274 . S
O723 Co712 1.976 . S
O723 C732 1.251 . S
O724 Co711 2.264 1_556 S
O724 Co712 2.327 . S
O724 C733 1.257 . S
O725 Co712 2.073 . S
O725 C733 1.245 . S
C726 O734 1.259 . S
C726 O735 1.289 . S
C727 O736 1.212 1_565 S
C727 O737 1.257 . S
C728 O716 1.251 . S
C728 O717 1.274 1_565 S
C729 O714 1.245 . S
C729 O715 1.257 . S
C730 O719 1.259 . S
C730 O720 1.289 . S
C731 O718 1.246 . S
C731 O721 1.257 . S
C732 O722 1.274 . S
C732 O723 1.251 . S
C733 O724 1.257 . S
C733 O725 1.245 . S
O734 Co705 2.286 . S
O734 C726 1.259 . S
O735 Co705 2.069 . S
O735 C726 1.289 . S
O736 Co707 2.162 1_556 S
O736 C727 1.212 1_545 S
O737 Co705 2.015 . S
O737 C727 1.257 . S
Co738 O741 2.042 . S
Co738 O748 2.264 . S
Co738 O767 2.286 . S
Co738 O768 2.069 . S
Co738 O770 2.015 1_455 S
Co739 O741 2.122 . S
Co739 O747 2.073 . S
Co739 O748 2.327 . S
Co739 O749 1.976 1_455 S
Co740 O741 2.114 . S
Co740 O743 2.060 1_455 S
Co740 O750 2.095 1_455 S
Co740 O751 2.152 . S
Co740 O755 2.128 . S
Co740 O769 2.135 1_455 S
O741 Co738 2.042 . S
O741 Co739 2.122 . S
O741 Co740 2.114 . S
O741 H742 0.980 . S
H742 O741 0.980 . S
O743 Co740 2.060 1_655 S
O743 Co744 2.042 . S
O743 Co745 2.122 1_554 S
O743 H746 0.980 . S
Co744 O743 2.042 . S
Co744 O752 2.286 . S
Co744 O753 2.069 . S
Co744 O754 2.015 1_655 S
Co744 O757 2.264 . S
Co745 O743 2.122 1_556 S
Co745 O756 1.976 1_655 S
Co745 O757 2.327 1_556 S
Co745 O758 2.073 . S
H746 O743 0.980 . S
O747 Co739 2.073 . S
O747 C762 1.245 . S
O748 Co738 2.264 . S
O748 Co739 2.327 . S
O748 C762 1.257 . S
O749 Co739 1.976 1_655 S
O749 C761 1.251 . S
O750 Co740 2.095 1_655 S
O750 C761 1.274 . S
O751 Co740 2.152 . S
O751 C764 1.246 . S
O752 Co744 2.286 . S
O752 C763 1.259 . S
O753 Co744 2.069 . S
O753 C763 1.289 . S
O754 Co744 2.015 1_455 S
O754 C764 1.257 . S
O755 Co740 2.128 . S
O755 C765 1.277 . S
O756 Co745 1.976 1_455 S
O756 C765 1.247 1_556 S
O757 Co744 2.264 . S
O757 Co745 2.327 1_554 S
O757 C766 1.257 1_554 S
O758 Co745 2.073 . S
O758 C766 1.245 . S
C759 O767 1.259 . S
C759 O768 1.289 . S
C760 O769 1.246 . S
C760 O770 1.257 . S
C761 O749 1.251 . S
C761 O750 1.274 . S
C762 O747 1.245 . S
C762 O748 1.257 . S
C763 O752 1.259 . S
C763 O753 1.289 . S
C764 O751 1.246 . S
C764 O754 1.257 . S
C765 O755 1.277 . S
C765 O756 1.247 1_554 S
C766 O757 1.257 1_556 S
C766 O758 1.245 . S
O767 Co738 2.286 . S
O767 C759 1.259 . S
O768 Co738 2.069 . S
O768 C759 1.289 . S
O769 Co740 2.135 1_655 S
O769 C760 1.246 . S
O770 Co738 2.015 1_655 S
O770 C760 1.257 . S
Co771 O774 2.042 . S
Co771 O781 2.264 . S
Co771 O800 2.286 1_554 S
Co771 O801 2.069 1_554 S
Co771 O803 2.015 1_554 S
Co772 O774 2.122 . S
Co772 O780 2.073 . S
Co772 O781 2.327 . S
Co772 O782 1.976 . S
Co773 O774 2.087 . S
Co773 O776 2.087 . S
Co773 O783 2.111 . S
Co773 O784 2.143 . S
Co773 O788 2.111 1_554 S
Co773 O802 2.143 1_554 S
O774 Co771 2.042 . S
O774 Co772 2.122 . S
O774 Co773 2.087 . S
O774 H775 0.980 . S
H775 O774 0.980 . S
O776 Co773 2.087 . S
O776 Co777 2.042 . S
O776 Co778 2.122 1_554 S
O776 H779 0.980 . S
Co777 O776 2.042 . S
Co777 O785 2.286 . S
Co777 O786 2.069 . S
Co777 O787 2.015 . S
Co777 O790 2.264 1_554 S
Co778 O776 2.122 1_556 S
Co778 O789 1.976 . S
Co778 O790 2.327 . S
Co778 O791 2.073 . S
H779 O776 0.980 . S
O780 Co772 2.073 . S
O780 C795 1.245 . S
O781 Co771 2.264 . S
O781 Co772 2.327 . S
O781 C795 1.257 . S
O782 Co772 1.976 . S
O782 C794 1.251 . S
O783 Co773 2.111 . S
O783 C794 1.274 . S
O784 Co773 2.143 . S
O784 C797 1.246 . S
O785 Co777 2.286 . S
O785 C796 1.259 . S
O786 Co777 2.069 . S
O786 C796 1.289 . S
O787 Co777 2.015 . S
O787 C797 1.257 . S
O788 Co773 2.111 1_556 S
O788 C798 1.274 . S
O789 Co778 1.976 . S
O789 C798 1.251 . S
O790 Co777 2.264 1_556 S
O790 Co778 2.327 . S
O790 C799 1.257 . S
O791 Co778 2.073 . S
O791 C799 1.245 . S
C792 O800 1.259 . S
C792 O801 1.289 . S
C793 O802 1.246 . S
C793 O803 1.257 . S
C794 O782 1.251 . S
C794 O783 1.274 . S
C795 O780 1.245 . S
C795 O781 1.257 . S
C796 O785 1.259 . S
C796 O786 1.289 . S
C797 O784 1.246 . S
C797 O787 1.257 . S
C798 O788 1.274 . S
C798 O789 1.251 . S
C799 O790 1.257 . S
C799 O791 1.245 . S
O800 Co771 2.286 1_556 S
O800 C792 1.259 . S
O801 Co771 2.069 1_556 S
O801 C792 1.289 . S
O802 Co773 2.143 1_556 S
O802 C793 1.246 . S
O803 Co771 2.015 1_556 S
O803 C793 1.257 . S
Co804 O807 2.042 . S
Co804 O814 2.264 . S
Co804 O833 2.286 . S
Co804 O834 2.069 . S
Co804 O836 2.015 . S
Co805 O807 2.122 . S
Co805 O813 2.073 . S
Co805 O814 2.327 . S
Co805 O815 1.976 . S
Co806 O807 2.087 . S
Co806 O809 2.087 . S
Co806 O816 2.111 . S
Co806 O817 2.143 1_455 S
Co806 O821 2.111 . S
Co806 O835 2.143 . S
O807 Co804 2.042 . S
O807 Co805 2.122 . S
O807 Co806 2.087 . S
O807 H808 0.980 . S
H808 O807 0.980 . S
O809 Co806 2.087 . S
O809 Co810 2.042 1_455 S
O809 Co811 2.122 1_455 S
O809 H812 0.980 . S
Co810 O809 2.042 1_655 S
Co810 O818 2.286 . S
Co810 O819 2.069 . S
Co810 O820 2.015 . S
Co810 O823 2.264 . S
Co811 O809 2.122 1_655 S
Co811 O822 1.976 . S
Co811 O823 2.327 . S
Co811 O824 2.073 . S
H812 O809 0.980 . S
O813 Co805 2.073 . S
O813 C828 1.245 . S
O814 Co804 2.264 . S
O814 Co805 2.327 . S
O814 C828 1.257 . S
O815 Co805 1.976 . S
O815 C827 1.251 . S
O816 Co806 2.111 . S
O816 C827 1.274 . S
O817 Co806 2.143 1_655 S
O817 C830 1.246 . S
O818 Co810 2.286 . S
O818 C829 1.259 . S
O819 Co810 2.069 . S
O819 C829 1.289 . S
O820 Co810 2.015 . S
O820 C830 1.257 . S
O821 Co806 2.111 . S
O821 C831 1.274 1_455 S
O822 Co811 1.976 . S
O822 C831 1.251 . S
O823 Co810 2.264 . S
O823 Co811 2.327 . S
O823 C832 1.257 . S
O824 Co811 2.073 . S
O824 C832 1.245 . S
C825 O833 1.259 . S
C825 O834 1.289 . S
C826 O835 1.246 . S
C826 O836 1.257 . S
C827 O815 1.251 . S
C827 O816 1.274 . S
C828 O813 1.245 . S
C828 O814 1.257 . S
C829 O818 1.259 . S
C829 O819 1.289 . S
C830 O817 1.246 . S
C830 O820 1.257 . S
C831 O821 1.274 1_655 S
C831 O822 1.251 . S
C832 O823 1.257 . S
C832 O824 1.245 . S
O833 Co804 2.286 . S
O833 C825 1.259 . S
O834 Co804 2.069 . S
O834 C825 1.289 . S
O835 Co806 2.143 . S
O835 C826 1.246 . S
O836 Co804 2.015 . S
O836 C826 1.257 . S
Co837 O840 2.042 . S
Co837 O847 2.264 . S
Co837 O866 2.286 . S
Co837 O867 2.069 . S
Co837 O869 2.015 1_565 S
Co838 O840 2.121 . S
Co838 O846 2.102 . S
Co838 O847 2.341 . S
Co838 O848 1.951 1_565 S
Co839 O840 2.087 1_545 S
Co839 O842 2.087 . S
Co839 O849 2.111 . S
Co839 O850 2.143 1_545 S
Co839 O854 2.111 1_545 S
Co839 O868 2.143 . S
O840 Co837 2.042 . S
O840 Co838 2.121 . S
O840 Co839 2.087 1_565 S
O840 H841 0.980 . S
H841 O840 0.980 . S
O842 Co839 2.087 . S
O842 Co843 2.042 . S
O842 Co844 2.122 . S
O842 H845 0.980 . S
Co843 O842 2.042 . S
Co843 O851 2.286 . S
Co843 O852 2.069 . S
Co843 O853 2.015 1_545 S
Co843 O856 2.264 . S
Co844 O842 2.122 . S
Co844 O855 1.976 1_545 S
Co844 O856 2.327 . S
Co844 O857 2.073 . S
H845 O842 0.980 . S
O846 Co838 2.102 . S
O846 C861 1.245 . S
O847 Co837 2.264 . S
O847 Co838 2.341 . S
O847 C861 1.257 . S
O848 Co838 1.951 1_545 S
O848 C860 1.251 . S
O849 Co839 2.111 . S
O849 C860 1.274 . S
O850 Co839 2.143 1_565 S
O850 C863 1.246 . S
O851 Co843 2.286 . S
O851 C862 1.259 . S
O852 Co843 2.069 . S
O852 C862 1.289 . S
O853 Co843 2.015 1_565 S
O853 C863 1.257 . S
O854 Co839 2.111 1_565 S
O854 C864 1.274 . S
O855 Co844 1.976 1_565 S
O855 C864 1.251 . S
O856 Co843 2.264 . S
O856 Co844 2.327 . S
O856 C865 1.257 . S
O857 Co844 2.073 . S
O857 C865 1.245 . S
C858 O866 1.259 . S
C858 O867 1.289 . S
C859 O868 1.246 . S
C859 O869 1.257 . S
C860 O848 1.251 . S
C860 O849 1.274 . S
C861 O846 1.245 . S
C861 O847 1.257 . S
C862 O851 1.259 . S
C862 O852 1.289 . S
C863 O850 1.246 . S
C863 O853 1.257 . S
C864 O854 1.274 . S
C864 O855 1.251 . S
C865 O856 1.257 . S
C865 O857 1.245 . S
O866 Co837 2.286 . S
O866 C858 1.259 . S
O867 Co837 2.069 . S
O867 C858 1.289 . S
O868 Co839 2.143 . S
O868 C859 1.246 . S
O869 Co837 2.015 1_545 S
O869 C859 1.257 . S
H870 C876 0.930 . S
H871 C879 0.930 . S
H872 C880 0.930 . S
H873 C881 0.930 . S
H874 C884 0.930 . S
H875 C885 0.930 . S
C876 H870 0.930 . S
C876 C877 1.355 . S
C876 C878 1.415 . S
C877 C876 1.355 . S
C877 C879 1.419 . S
C878 C876 1.415 . S
C878 C883 1.425 . S
C878 C885 1.409 . S
C879 H871 0.930 . S
C879 C877 1.419 . S
C879 C880 1.362 . S
C880 H872 0.930 . S
C880 C879 1.362 . S
C880 C883 1.409 . S
C881 H873 0.930 . S
C881 C882 1.355 . S
C881 C883 1.415 . S
C882 C881 1.355 . S
C882 C884 1.419 . S
C883 C878 1.425 . S
C883 C880 1.409 . S
C883 C881 1.415 . S
C884 H874 0.930 . S
C884 C882 1.419 . S
C884 C885 1.362 . S
C885 H875 0.930 . S
C885 C878 1.409 . S
C885 C884 1.362 . S
H886 C892 0.930 . S
H887 C895 0.930 . S
H888 C896 0.930 . S
H889 C897 0.930 . S
H890 C900 0.930 . S
H891 C901 0.930 . S
C892 H886 0.930 . S
C892 C893 1.355 . S
C892 C894 1.415 . S
C893 C892 1.355 . S
C893 C895 1.419 . S
C894 C892 1.415 . S
C894 C899 1.425 . S
C894 C901 1.409 . S
C895 H887 0.930 . S
C895 C893 1.419 . S
C895 C896 1.362 . S
C896 H888 0.930 . S
C896 C895 1.362 . S
C896 C899 1.409 . S
C897 H889 0.930 . S
C897 C898 1.355 . S
C897 C899 1.415 . S
C898 C897 1.355 . S
C898 C900 1.419 . S
C899 C894 1.425 . S
C899 C896 1.409 . S
C899 C897 1.415 . S
C900 H890 0.930 . S
C900 C898 1.419 . S
C900 C901 1.362 . S
C901 H891 0.930 . S
C901 C894 1.409 . S
C901 C900 1.362 . S
H902 C908 0.930 . S
H903 C911 0.930 . S
H904 C912 0.930 . S
H905 C913 0.930 . S
H906 C916 0.930 . S
H907 C917 0.930 . S
C908 H902 0.930 . S
C908 C909 1.355 . S
C908 C910 1.415 . S
C909 C908 1.355 . S
C909 C911 1.419 . S
C910 C908 1.415 . S
C910 C915 1.425 . S
C910 C917 1.409 . S
C911 H903 0.930 . S
C911 C909 1.419 . S
C911 C912 1.362 . S
C912 H904 0.930 . S
C912 C911 1.362 . S
C912 C915 1.409 . S
C913 H905 0.930 . S
C913 C914 1.355 . S
C913 C915 1.415 . S
C914 C913 1.355 . S
C914 C916 1.419 . S
C915 C910 1.425 . S
C915 C912 1.409 . S
C915 C913 1.415 . S
C916 H906 0.930 . S
C916 C914 1.419 . S
C916 C917 1.362 . S
C917 H907 0.930 . S
C917 C910 1.409 . S
C917 C916 1.362 . S
H918 C924 0.930 . S
H919 C927 0.930 . S
H920 C928 0.930 . S
H921 C929 0.930 . S
H922 C932 0.930 . S
H923 C933 0.930 . S
C924 H918 0.930 . S
C924 C925 1.355 . S
C924 C926 1.415 . S
C925 C924 1.355 . S
C925 C927 1.419 . S
C926 C924 1.415 . S
C926 C931 1.425 . S
C926 C933 1.409 . S
C927 H919 0.930 . S
C927 C925 1.419 . S
C927 C928 1.362 . S
C928 H920 0.930 . S
C928 C927 1.362 . S
C928 C931 1.409 . S
C929 H921 0.930 . S
C929 C930 1.355 . S
C929 C931 1.415 . S
C930 C929 1.355 . S
C930 C932 1.419 . S
C931 C926 1.425 . S
C931 C928 1.409 . S
C931 C929 1.415 . S
C932 H922 0.930 . S
C932 C930 1.419 . S
C932 C933 1.362 . S
C933 H923 0.930 . S
C933 C926 1.409 . S
C933 C932 1.362 . S
H934 C940 0.930 . S
H935 C943 0.930 . S
H936 C944 0.930 . S
H937 C945 0.930 . S
H938 C948 0.930 . S
H939 C949 0.930 . S
C940 H934 0.930 . S
C940 C941 1.355 . S
C940 C942 1.415 . S
C941 C940 1.355 . S
C941 C943 1.419 . S
C942 C940 1.415 . S
C942 C947 1.425 . S
C942 C949 1.409 . S
C943 H935 0.930 . S
C943 C941 1.419 . S
C943 C944 1.362 . S
C944 H936 0.930 . S
C944 C943 1.362 . S
C944 C947 1.409 . S
C945 H937 0.930 . S
C945 C946 1.355 . S
C945 C947 1.415 . S
C946 C945 1.355 . S
C946 C948 1.419 . S
C947 C942 1.425 . S
C947 C944 1.409 . S
C947 C945 1.415 . S
C948 H938 0.930 . S
C948 C946 1.419 . S
C948 C949 1.362 . S
C949 H939 0.930 . S
C949 C942 1.409 . S
C949 C948 1.362 . S
H950 C956 0.930 . S
H951 C959 0.930 . S
H952 C960 0.930 . S
H953 C961 0.930 . S
H954 C964 0.930 . S
H955 C965 0.930 . S
C956 H950 0.930 . S
C956 C957 1.355 . S
C956 C958 1.415 . S
C957 C956 1.355 . S
C957 C959 1.419 . S
C958 C956 1.415 . S
C958 C963 1.425 . S
C958 C965 1.409 . S
C959 H951 0.930 . S
C959 C957 1.419 . S
C959 C960 1.362 . S
C960 H952 0.930 . S
C960 C959 1.362 . S
C960 C963 1.409 . S
C961 H953 0.930 . S
C961 C962 1.355 . S
C961 C963 1.415 . S
C962 C961 1.355 . S
C962 C964 1.419 . S
C963 C958 1.425 . S
C963 C960 1.409 . S
C963 C961 1.415 . S
C964 H954 0.930 . S
C964 C962 1.419 . S
C964 C965 1.362 . S
C965 H955 0.930 . S
C965 C958 1.409 . S
C965 C964 1.362 . S
H966 C972 0.930 . S
H967 C975 0.930 . S
H968 C976 0.930 . S
H969 C977 0.930 . S
H970 C980 0.930 . S
H971 C981 0.930 . S
C972 H966 0.930 . S
C972 C973 1.355 . S
C972 C974 1.415 . S
C973 C972 1.355 . S
C973 C975 1.419 . S
C974 C972 1.415 . S
C974 C979 1.425 . S
C974 C981 1.409 . S
C975 H967 0.930 . S
C975 C973 1.419 . S
C975 C976 1.362 . S
C976 H968 0.930 . S
C976 C975 1.362 . S
C976 C979 1.409 . S
C977 H969 0.930 . S
C977 C978 1.355 . S
C977 C979 1.415 . S
C978 C977 1.355 . S
C978 C980 1.419 . S
C979 C974 1.425 . S
C979 C976 1.409 . S
C979 C977 1.415 . S
C980 H970 0.930 . S
C980 C978 1.419 . S
C980 C981 1.362 . S
C981 H971 0.930 . S
C981 C974 1.409 . S
C981 C980 1.362 . S
H982 C988 0.930 . S
H983 C991 0.930 . S
H984 C992 0.930 . S
H985 C993 0.930 . S
H986 C996 0.930 . S
H987 C997 0.930 . S
C988 H982 0.930 . S
C988 C989 1.355 . S
C988 C990 1.415 . S
C989 C988 1.355 . S
C989 C991 1.419 . S
C990 C988 1.415 . S
C990 C995 1.425 . S
C990 C997 1.409 . S
C991 H983 0.930 . S
C991 C989 1.419 . S
C991 C992 1.362 . S
C992 H984 0.930 . S
C992 C991 1.362 . S
C992 C995 1.409 . S
C993 H985 0.930 . S
C993 C994 1.355 . S
C993 C995 1.415 . S
C994 C993 1.355 . S
C994 C996 1.419 . S
C995 C990 1.425 . S
C995 C992 1.409 . S
C995 C993 1.415 . S
C996 H986 0.930 . S
C996 C994 1.419 . S
C996 C997 1.362 . S
C997 H987 0.930 . S
C997 C990 1.409 . S
C997 C996 1.362 . S
H998 C1004 0.930 . S
H999 C1007 0.930 . S
H1000 C1008 0.930 . S
H1001 C1009 0.930 . S
H1002 C1012 0.930 . S
H1003 C1013 0.930 . S
C1004 H998 0.930 . S
C1004 C1005 1.355 . S
C1004 C1006 1.415 . S
C1005 C1004 1.355 . S
C1005 C1007 1.419 . S
C1006 C1004 1.415 . S
C1006 C1011 1.425 . S
C1006 C1013 1.409 . S
C1007 H999 0.930 . S
C1007 C1005 1.419 . S
C1007 C1008 1.362 . S
C1008 H1000 0.930 . S
C1008 C1007 1.362 . S
C1008 C1011 1.409 . S
C1009 H1001 0.930 . S
C1009 C1010 1.355 . S
C1009 C1011 1.415 . S
C1010 C1009 1.355 . S
C1010 C1012 1.419 . S
C1011 C1006 1.425 . S
C1011 C1008 1.409 . S
C1011 C1009 1.415 . S
C1012 H1002 0.930 . S
C1012 C1010 1.419 . S
C1012 C1013 1.362 . S
C1013 H1003 0.930 . S
C1013 C1006 1.409 . S
C1013 C1012 1.362 . S
H1014 C1020 0.930 . S
H1015 C1023 0.930 . S
H1016 C1024 0.930 . S
H1017 C1025 0.930 . S
H1018 C1028 0.930 . S
H1019 C1029 0.930 . S
C1020 H1014 0.930 . S
C1020 C1021 1.355 . S
C1020 C1022 1.415 . S
C1021 C1020 1.355 . S
C1021 C1023 1.419 . S
C1022 C1020 1.415 . S
C1022 C1027 1.425 . S
C1022 C1029 1.409 . S
C1023 H1015 0.930 . S
C1023 C1021 1.419 . S
C1023 C1024 1.362 . S
C1024 H1016 0.930 . S
C1024 C1023 1.362 . S
C1024 C1027 1.409 . S
C1025 H1017 0.930 . S
C1025 C1026 1.355 . S
C1025 C1027 1.415 . S
C1026 C1025 1.355 . S
C1026 C1028 1.419 . S
C1027 C1022 1.425 . S
C1027 C1024 1.409 . S
C1027 C1025 1.415 . S
C1028 H1018 0.930 . S
C1028 C1026 1.419 . S
C1028 C1029 1.362 . S
C1029 H1019 0.930 . S
C1029 C1022 1.409 . S
C1029 C1028 1.362 . S
H1030 C1036 0.930 . S
H1031 C1039 0.930 . S
H1032 C1040 0.930 . S
H1033 C1041 0.930 . S
H1034 C1044 0.930 . S
H1035 C1045 0.930 . S
C1036 H1030 0.930 . S
C1036 C1037 1.355 . S
C1036 C1038 1.415 . S
C1037 C1036 1.355 . S
C1037 C1039 1.419 . S
C1038 C1036 1.415 . S
C1038 C1043 1.425 . S
C1038 C1045 1.409 . S
C1039 H1031 0.930 . S
C1039 C1037 1.419 . S
C1039 C1040 1.362 . S
C1040 H1032 0.930 . S
C1040 C1039 1.362 . S
C1040 C1043 1.409 . S
C1041 H1033 0.930 . S
C1041 C1042 1.355 . S
C1041 C1043 1.415 . S
C1042 C1041 1.355 . S
C1042 C1044 1.419 . S
C1043 C1038 1.425 . S
C1043 C1040 1.409 . S
C1043 C1041 1.415 . S
C1044 H1034 0.930 . S
C1044 C1042 1.419 . S
C1044 C1045 1.362 . S
C1045 H1035 0.930 . S
C1045 C1038 1.409 . S
C1045 C1044 1.362 . S
H1046 C1052 0.930 . S
H1047 C1055 0.930 . S
H1048 C1056 0.930 . S
H1049 C1057 0.930 . S
H1050 C1060 0.930 . S
H1051 C1061 0.930 . S
C1052 H1046 0.930 . S
C1052 C1053 1.355 . S
C1052 C1054 1.415 . S
C1053 C1052 1.355 . S
C1053 C1055 1.419 . S
C1054 C1052 1.415 . S
C1054 C1059 1.425 . S
C1054 C1061 1.409 . S
C1055 H1047 0.930 . S
C1055 C1053 1.419 . S
C1055 C1056 1.362 . S
C1056 H1048 0.930 . S
C1056 C1055 1.362 . S
C1056 C1059 1.409 . S
C1057 H1049 0.930 . S
C1057 C1058 1.355 . S
C1057 C1059 1.415 . S
C1058 C1057 1.355 . S
C1058 C1060 1.419 . S
C1059 C1054 1.425 . S
C1059 C1056 1.409 . S
C1059 C1057 1.415 . S
C1060 H1050 0.930 . S
C1060 C1058 1.419 . S
C1060 C1061 1.362 . S
C1061 H1051 0.930 . S
C1061 C1054 1.409 . S
C1061 C1060 1.362 . S
H1062 C1068 0.930 . S
H1063 C1071 0.930 . S
H1064 C1072 0.930 . S
H1065 C1073 0.930 . S
H1066 C1076 0.930 . S
H1067 C1077 0.930 . S
C1068 H1062 0.930 . S
C1068 C1069 1.355 . S
C1068 C1070 1.415 . S
C1069 C1068 1.355 . S
C1069 C1071 1.419 . S
C1070 C1068 1.415 . S
C1070 C1075 1.425 . S
C1070 C1077 1.409 . S
C1071 H1063 0.930 . S
C1071 C1069 1.419 . S
C1071 C1072 1.362 . S
C1072 H1064 0.930 . S
C1072 C1071 1.362 . S
C1072 C1075 1.409 . S
C1073 H1065 0.930 . S
C1073 C1074 1.355 . S
C1073 C1075 1.415 . S
C1074 C1073 1.355 . S
C1074 C1076 1.419 . S
C1075 C1070 1.425 . S
C1075 C1072 1.409 . S
C1075 C1073 1.415 . S
C1076 H1066 0.930 . S
C1076 C1074 1.419 . S
C1076 C1077 1.362 . S
C1077 H1067 0.930 . S
C1077 C1070 1.409 . S
C1077 C1076 1.362 . S
H1078 C1084 0.930 . S
H1079 C1087 0.930 . S
H1080 C1088 0.930 . S
H1081 C1089 0.930 . S
H1082 C1092 0.930 . S
H1083 C1093 0.930 . S
C1084 H1078 0.930 . S
C1084 C1085 1.355 . S
C1084 C1086 1.415 . S
C1085 C1084 1.355 . S
C1085 C1087 1.419 . S
C1086 C1084 1.415 . S
C1086 C1091 1.425 . S
C1086 C1093 1.409 1_556 S
C1087 H1079 0.930 . S
C1087 C1085 1.419 . S
C1087 C1088 1.362 . S
C1088 H1080 0.930 . S
C1088 C1087 1.362 . S
C1088 C1091 1.409 . S
C1089 H1081 0.930 . S
C1089 C1090 1.355 . S
C1089 C1091 1.415 . S
C1090 C1089 1.355 . S
C1090 C1092 1.419 1_556 S
C1091 C1086 1.425 . S
C1091 C1088 1.409 . S
C1091 C1089 1.415 . S
C1092 H1082 0.930 . S
C1092 C1090 1.419 1_554 S
C1092 C1093 1.362 . S
C1093 H1083 0.930 . S
C1093 C1086 1.409 1_554 S
C1093 C1092 1.362 . S
H1094 C1100 0.930 . S
H1095 C1103 0.930 . S
H1096 C1104 0.930 . S
H1097 C1105 0.930 . S
H1098 C1108 0.930 . S
H1099 C1109 0.930 . S
C1100 H1094 0.930 . S
C1100 C1101 1.355 . S
C1100 C1102 1.415 . S
C1101 C1100 1.355 . S
C1101 C1103 1.419 . S
C1102 C1100 1.415 . S
C1102 C1107 1.425 . S
C1102 C1109 1.409 . S
C1103 H1095 0.930 . S
C1103 C1101 1.419 . S
C1103 C1104 1.362 . S
C1104 H1096 0.930 . S
C1104 C1103 1.362 . S
C1104 C1107 1.409 . S
C1105 H1097 0.930 . S
C1105 C1106 1.355 . S
C1105 C1107 1.415 . S
C1106 C1105 1.355 . S
C1106 C1108 1.419 . S
C1107 C1102 1.425 . S
C1107 C1104 1.409 . S
C1107 C1105 1.415 . S
C1108 H1098 0.930 . S
C1108 C1106 1.419 . S
C1108 C1109 1.362 . S
C1109 H1099 0.930 . S
C1109 C1102 1.409 . S
C1109 C1108 1.362 . S
H1110 C1116 0.930 . S
H1111 C1119 0.930 . S
H1112 C1120 0.930 . S
H1113 C1121 0.930 . S
H1114 C1124 0.930 . S
H1115 C1125 0.930 . S
C1116 H1110 0.930 . S
C1116 C1117 1.355 . S
C1116 C1118 1.415 . S
C1117 C1116 1.355 . S
C1117 C1119 1.419 . S
C1118 C1116 1.415 . S
C1118 C1123 1.425 . S
C1118 C1125 1.409 . S
C1119 H1111 0.930 . S
C1119 C1117 1.419 . S
C1119 C1120 1.362 . S
C1120 H1112 0.930 . S
C1120 C1119 1.362 . S
C1120 C1123 1.409 . S
C1121 H1113 0.930 . S
C1121 C1122 1.355 . S
C1121 C1123 1.415 . S
C1122 C1121 1.355 . S
C1122 C1124 1.419 . S
C1123 C1118 1.425 . S
C1123 C1120 1.409 . S
C1123 C1121 1.415 . S
C1124 H1114 0.930 . S
C1124 C1122 1.419 . S
C1124 C1125 1.362 . S
C1125 H1115 0.930 . S
C1125 C1118 1.409 . S
C1125 C1124 1.362 . S
H1126 C1132 0.930 . S
H1127 C1135 0.930 . S
H1128 C1136 0.930 . S
H1129 C1137 0.930 . S
H1130 C1140 0.930 . S
H1131 C1141 0.930 . S
C1132 H1126 0.930 . S
C1132 C1133 1.355 . S
C1132 C1134 1.415 . S
C1133 C1132 1.355 . S
C1133 C1135 1.419 . S
C1134 C1132 1.415 . S
C1134 C1139 1.425 . S
C1134 C1141 1.409 . S
C1135 H1127 0.930 . S
C1135 C1133 1.419 . S
C1135 C1136 1.362 . S
C1136 H1128 0.930 . S
C1136 C1135 1.362 . S
C1136 C1139 1.409 . S
C1137 H1129 0.930 . S
C1137 C1138 1.355 . S
C1137 C1139 1.415 . S
C1138 C1137 1.355 . S
C1138 C1140 1.419 . S
C1139 C1134 1.425 . S
C1139 C1136 1.409 . S
C1139 C1137 1.415 . S
C1140 H1130 0.930 . S
C1140 C1138 1.419 . S
C1140 C1141 1.362 . S
C1141 H1131 0.930 . S
C1141 C1134 1.409 . S
C1141 C1140 1.362 . S
H1142 C1148 0.930 . S
H1143 C1151 0.930 . S
H1144 C1152 0.930 . S
H1145 C1153 0.930 . S
H1146 C1156 0.930 . S
H1147 C1157 0.930 . S
C1148 H1142 0.930 . S
C1148 C1149 1.355 . S
C1148 C1150 1.415 . S
C1149 C1148 1.355 . S
C1149 C1151 1.419 . S
C1150 C1148 1.415 . S
C1150 C1155 1.425 . S
C1150 C1157 1.409 . S
C1151 H1143 0.930 . S
C1151 C1149 1.419 . S
C1151 C1152 1.362 . S
C1152 H1144 0.930 . S
C1152 C1151 1.362 . S
C1152 C1155 1.409 . S
C1153 H1145 0.930 . S
C1153 C1154 1.355 . S
C1153 C1155 1.415 . S
C1154 C1153 1.355 . S
C1154 C1156 1.419 1_556 S
C1155 C1150 1.425 . S
C1155 C1152 1.409 . S
C1155 C1153 1.415 . S
C1156 H1146 0.930 . S
C1156 C1154 1.419 1_554 S
C1156 C1157 1.362 1_554 S
C1157 H1147 0.930 . S
C1157 C1150 1.409 . S
C1157 C1156 1.362 1_556 S
H1158 C1164 0.930 . S
H1159 C1167 0.930 . S
H1160 C1168 0.930 . S
H1161 C1169 0.930 . S
H1162 C1172 0.930 . S
H1163 C1173 0.930 . S
C1164 H1158 0.930 . S
C1164 C1165 1.355 . S
C1164 C1166 1.415 . S
C1165 C1164 1.355 . S
C1165 C1167 1.419 . S
C1166 C1164 1.415 . S
C1166 C1171 1.425 . S
C1166 C1173 1.409 . S
C1167 H1159 0.930 . S
C1167 C1165 1.419 . S
C1167 C1168 1.362 . S
C1168 H1160 0.930 . S
C1168 C1167 1.362 . S
C1168 C1171 1.409 . S
C1169 H1161 0.930 . S
C1169 C1170 1.355 . S
C1169 C1171 1.415 . S
C1170 C1169 1.355 . S
C1170 C1172 1.419 . S
C1171 C1166 1.425 . S
C1171 C1168 1.409 . S
C1171 C1169 1.415 . S
C1172 H1162 0.930 . S
C1172 C1170 1.419 . S
C1172 C1173 1.362 . S
C1173 H1163 0.930 . S
C1173 C1166 1.409 . S
C1173 C1172 1.362 . S
H1174 C1180 0.930 . S
H1175 C1183 0.930 . S
H1176 C1184 0.930 . S
H1177 C1185 0.930 1_554 S
H1178 C1188 0.930 . S
H1179 C1189 0.930 . S
C1180 H1174 0.930 . S
C1180 C1181 1.355 . S
C1180 C1182 1.415 . S
C1181 C1180 1.355 . S
C1181 C1183 1.419 . S
C1182 C1180 1.415 . S
C1182 C1187 1.425 . S
C1182 C1189 1.409 . S
C1183 H1175 0.930 . S
C1183 C1181 1.419 . S
C1183 C1184 1.362 . S
C1184 H1176 0.930 . S
C1184 C1183 1.362 . S
C1184 C1187 1.409 . S
C1185 H1177 0.930 1_556 S
C1185 C1186 1.355 . S
C1185 C1187 1.415 . S
C1186 C1185 1.355 . S
C1186 C1188 1.419 . S
C1187 C1182 1.425 . S
C1187 C1184 1.409 . S
C1187 C1185 1.415 . S
C1188 H1178 0.930 . S
C1188 C1186 1.419 . S
C1188 C1189 1.362 . S
C1189 H1179 0.930 . S
C1189 C1182 1.409 . S
C1189 C1188 1.362 . S
H1190 C1196 0.930 . S
H1191 C1199 0.930 . S
H1192 C1200 0.930 . S
H1193 C1201 0.930 . S
H1194 C1204 0.930 . S
H1195 C1205 0.930 . S
C1196 H1190 0.930 . S
C1196 C1197 1.355 . S
C1196 C1198 1.415 . S
C1197 C1196 1.355 . S
C1197 C1199 1.419 . S
C1198 C1196 1.415 . S
C1198 C1203 1.425 . S
C1198 C1205 1.409 . S
C1199 H1191 0.930 . S
C1199 C1197 1.419 . S
C1199 C1200 1.362 . S
C1200 H1192 0.930 . S
C1200 C1199 1.362 . S
C1200 C1203 1.409 . S
C1201 H1193 0.930 . S
C1201 C1202 1.355 . S
C1201 C1203 1.415 . S
C1202 C1201 1.355 . S
C1202 C1204 1.419 . S
C1203 C1198 1.425 . S
C1203 C1200 1.409 . S
C1203 C1201 1.415 . S
C1204 H1194 0.930 . S
C1204 C1202 1.419 . S
C1204 C1205 1.362 . S
C1205 H1195 0.930 . S
C1205 C1198 1.409 . S
C1205 C1204 1.362 . S
H1206 C1212 0.930 . S
H1207 C1215 0.930 . S
H1208 C1216 0.930 . S
H1209 C1217 0.930 . S
H1210 C1220 0.930 . S
H1211 C1221 0.930 . S
C1212 H1206 0.930 . S
C1212 C1213 1.355 . S
C1212 C1214 1.415 . S
C1213 C1212 1.355 . S
C1213 C1215 1.419 . S
C1214 C1212 1.415 . S
C1214 C1219 1.425 . S
C1214 C1221 1.409 . S
C1215 H1207 0.930 . S
C1215 C1213 1.419 . S
C1215 C1216 1.362 . S
C1216 H1208 0.930 . S
C1216 C1215 1.362 . S
C1216 C1219 1.409 . S
C1217 H1209 0.930 . S
C1217 C1218 1.355 . S
C1217 C1219 1.415 . S
C1218 C1217 1.355 . S
C1218 C1220 1.419 . S
C1219 C1214 1.425 . S
C1219 C1216 1.409 . S
C1219 C1217 1.415 . S
C1220 H1210 0.930 . S
C1220 C1218 1.419 . S
C1220 C1221 1.362 . S
C1221 H1211 0.930 . S
C1221 C1214 1.409 . S
C1221 C1220 1.362 . S
H1222 C1228 0.930 . S
H1223 C1231 0.930 . S
H1224 C1232 0.930 . S
H1225 C1233 0.930 . S
H1226 C1236 0.930 . S
H1227 C1237 0.930 . S
C1228 H1222 0.930 . S
C1228 C1229 1.355 . S
C1228 C1230 1.415 . S
C1229 C1228 1.355 . S
C1229 C1231 1.419 . S
C1230 C1228 1.415 . S
C1230 C1235 1.425 . S
C1230 C1237 1.409 . S
C1231 H1223 0.930 . S
C1231 C1229 1.419 . S
C1231 C1232 1.362 . S
C1232 H1224 0.930 . S
C1232 C1231 1.362 . S
C1232 C1235 1.409 . S
C1233 H1225 0.930 . S
C1233 C1234 1.355 . S
C1233 C1235 1.415 . S
C1234 C1233 1.355 . S
C1234 C1236 1.419 . S
C1235 C1230 1.425 . S
C1235 C1232 1.409 . S
C1235 C1233 1.415 . S
C1236 H1226 0.930 . S
C1236 C1234 1.419 . S
C1236 C1237 1.362 . S
C1237 H1227 0.930 . S
C1237 C1230 1.409 . S
C1237 C1236 1.362 . S
H1238 C1244 0.930 . S
H1239 C1247 0.930 . S
H1240 C1248 0.930 . S
H1241 C1249 0.930 . S
H1242 C1252 0.930 . S
H1243 C1253 0.930 . S
C1244 H1238 0.930 . S
C1244 C1245 1.355 . S
C1244 C1246 1.415 . S
C1245 C1244 1.355 . S
C1245 C1247 1.419 . S
C1246 C1244 1.415 . S
C1246 C1251 1.425 . S
C1246 C1253 1.409 . S
C1247 H1239 0.930 . S
C1247 C1245 1.419 . S
C1247 C1248 1.362 . S
C1248 H1240 0.930 . S
C1248 C1247 1.362 . S
C1248 C1251 1.409 . S
C1249 H1241 0.930 . S
C1249 C1250 1.355 . S
C1249 C1251 1.415 . S
C1250 C1249 1.355 . S
C1250 C1252 1.419 . S
C1251 C1246 1.425 . S
C1251 C1248 1.409 . S
C1251 C1249 1.415 . S
C1252 H1242 0.930 . S
C1252 C1250 1.419 . S
C1252 C1253 1.362 . S
C1253 H1243 0.930 . S
C1253 C1246 1.409 . S
C1253 C1252 1.362 . S
H1254 C1260 0.930 . S
H1255 C1263 0.930 . S
H1256 C1264 0.930 . S
H1257 C1265 0.930 . S
H1258 C1268 0.930 1_554 S
H1259 C1269 0.930 . S
C1260 H1254 0.930 . S
C1260 C1261 1.355 . S
C1260 C1262 1.415 . S
C1261 C1260 1.355 . S
C1261 C1263 1.419 . S
C1262 C1260 1.415 . S
C1262 C1267 1.425 . S
C1262 C1269 1.409 . S
C1263 H1255 0.930 . S
C1263 C1261 1.419 . S
C1263 C1264 1.362 . S
C1264 H1256 0.930 . S
C1264 C1263 1.362 . S
C1264 C1267 1.409 . S
C1265 H1257 0.930 . S
C1265 C1266 1.355 . S
C1265 C1267 1.415 . S
C1266 C1265 1.355 . S
C1266 C1268 1.419 . S
C1267 C1262 1.425 . S
C1267 C1264 1.409 . S
C1267 C1265 1.415 . S
C1268 H1258 0.930 1_556 S
C1268 C1266 1.419 . S
C1268 C1269 1.362 . S
C1269 H1259 0.930 . S
C1269 C1262 1.409 . S
C1269 C1268 1.362 . S
H1270 C1276 0.930 . S
H1271 C1279 0.930 . S
H1272 C1280 0.930 . S
H1273 C1281 0.930 . S
H1274 C1284 0.930 . S
H1275 C1285 0.930 . S
C1276 H1270 0.930 . S
C1276 C1277 1.355 . S
C1276 C1278 1.415 . S
C1277 C1276 1.355 . S
C1277 C1279 1.419 . S
C1278 C1276 1.415 . S
C1278 C1283 1.425 . S
C1278 C1285 1.409 . S
C1279 H1271 0.930 . S
C1279 C1277 1.419 . S
C1279 C1280 1.362 . S
C1280 H1272 0.930 . S
C1280 C1279 1.362 . S
C1280 C1283 1.409 . S
C1281 H1273 0.930 . S
C1281 C1282 1.355 . S
C1281 C1283 1.415 . S
C1282 C1281 1.355 . S
C1282 C1284 1.419 . S
C1283 C1278 1.425 . S
C1283 C1280 1.409 . S
C1283 C1281 1.415 . S
C1284 H1274 0.930 . S
C1284 C1282 1.419 . S
C1284 C1285 1.362 . S
C1285 H1275 0.930 . S
C1285 C1278 1.409 . S
C1285 C1284 1.362 . S
H1286 C1292 0.930 . S
H1287 C1295 0.930 . S
H1288 C1296 0.930 . S
H1289 C1297 0.930 . S
H1290 C1300 0.930 . S
H1291 C1301 0.930 . S
C1292 H1286 0.930 . S
C1292 C1293 1.355 . S
C1292 C1294 1.415 . S
C1293 C1292 1.355 . S
C1293 C1295 1.419 . S
C1294 C1292 1.415 . S
C1294 C1299 1.425 . S
C1294 C1301 1.409 . S
C1295 H1287 0.930 . S
C1295 C1293 1.419 . S
C1295 C1296 1.362 . S
C1296 H1288 0.930 . S
C1296 C1295 1.362 . S
C1296 C1299 1.409 . S
C1297 H1289 0.930 . S
C1297 C1298 1.355 . S
C1297 C1299 1.415 . S
C1298 C1297 1.355 . S
C1298 C1300 1.419 . S
C1299 C1294 1.425 . S
C1299 C1296 1.409 . S
C1299 C1297 1.415 . S
C1300 H1290 0.930 . S
C1300 C1298 1.419 . S
C1300 C1301 1.362 . S
C1301 H1291 0.930 . S
C1301 C1294 1.409 . S
C1301 C1300 1.362 . S
H1302 C1308 0.930 . S
H1303 C1311 0.930 . S
H1304 C1312 0.930 . S
H1305 C1313 0.930 . S
H1306 C1316 0.930 . S
H1307 C1317 0.930 . S
C1308 H1302 0.930 . S
C1308 C1309 1.355 . S
C1308 C1310 1.415 . S
C1309 C1308 1.355 . S
C1309 C1311 1.419 . S
C1310 C1308 1.415 . S
C1310 C1315 1.425 . S
C1310 C1317 1.409 . S
C1311 H1303 0.930 . S
C1311 C1309 1.419 . S
C1311 C1312 1.362 . S
C1312 H1304 0.930 . S
C1312 C1311 1.362 . S
C1312 C1315 1.409 . S
C1313 H1305 0.930 . S
C1313 C1314 1.355 . S
C1313 C1315 1.415 . S
C1314 C1313 1.355 . S
C1314 C1316 1.419 . S
C1315 C1310 1.425 . S
C1315 C1312 1.409 . S
C1315 C1313 1.415 . S
C1316 H1306 0.930 . S
C1316 C1314 1.419 . S
C1316 C1317 1.362 . S
C1317 H1307 0.930 . S
C1317 C1310 1.409 . S
C1317 C1316 1.362 . S
H1318 C1324 0.930 . S
H1319 C1327 0.930 . S
H1320 C1328 0.930 . S
H1321 C1329 0.930 . S
H1322 C1332 0.930 . S
H1323 C1333 0.930 . S
C1324 H1318 0.930 . S
C1324 C1325 1.355 . S
C1324 C1326 1.415 . S
C1325 C1324 1.355 . S
C1325 C1327 1.419 . S
C1326 C1324 1.415 . S
C1326 C1331 1.425 . S
C1326 C1333 1.409 . S
C1327 H1319 0.930 . S
C1327 C1325 1.419 . S
C1327 C1328 1.362 . S
C1328 H1320 0.930 . S
C1328 C1327 1.362 . S
C1328 C1331 1.409 . S
C1329 H1321 0.930 . S
C1329 C1330 1.355 . S
C1329 C1331 1.415 . S
C1330 C1329 1.355 . S
C1330 C1332 1.419 . S
C1331 C1326 1.425 . S
C1331 C1328 1.409 . S
C1331 C1329 1.415 . S
C1332 H1322 0.930 . S
C1332 C1330 1.419 . S
C1332 C1333 1.362 . S
C1333 H1323 0.930 . S
C1333 C1326 1.409 . S
C1333 C1332 1.362 . S
H1334 C1340 0.930 . S
H1335 C1343 0.930 . S
H1336 C1344 0.930 . S
H1337 C1345 0.930 . S
H1338 C1348 0.930 . S
H1339 C1349 0.930 . S
C1340 H1334 0.930 . S
C1340 C1341 1.355 . S
C1340 C1342 1.415 . S
C1341 C1340 1.355 . S
C1341 C1343 1.419 . S
C1342 C1340 1.415 . S
C1342 C1347 1.425 . S
C1342 C1349 1.409 . S
C1343 H1335 0.930 . S
C1343 C1341 1.419 . S
C1343 C1344 1.362 . S
C1344 H1336 0.930 . S
C1344 C1343 1.362 . S
C1344 C1347 1.409 . S
C1345 H1337 0.930 . S
C1345 C1346 1.355 . S
C1345 C1347 1.415 . S
C1346 C1345 1.355 . S
C1346 C1348 1.419 . S
C1347 C1342 1.425 . S
C1347 C1344 1.409 . S
C1347 C1345 1.415 . S
C1348 H1338 0.930 . S
C1348 C1346 1.419 . S
C1348 C1349 1.362 . S
C1349 H1339 0.930 . S
C1349 C1342 1.409 . S
C1349 C1348 1.362 . S
H1350 C1356 0.930 . S
H1351 C1359 0.930 . S
H1352 C1360 0.930 . S
H1353 C1361 0.930 . S
H1354 C1364 0.930 . S
H1355 C1365 0.930 . S
C1356 H1350 0.930 . S
C1356 C1357 1.355 . S
C1356 C1358 1.415 . S
C1357 C1356 1.355 . S
C1357 C1359 1.419 . S
C1358 C1356 1.415 . S
C1358 C1363 1.425 . S
C1358 C1365 1.409 . S
C1359 H1351 0.930 . S
C1359 C1357 1.419 . S
C1359 C1360 1.362 . S
C1360 H1352 0.930 . S
C1360 C1359 1.362 . S
C1360 C1363 1.409 . S
C1361 H1353 0.930 . S
C1361 C1362 1.355 . S
C1361 C1363 1.415 . S
C1362 C1361 1.355 . S
C1362 C1364 1.419 . S
C1363 C1358 1.425 . S
C1363 C1360 1.409 . S
C1363 C1361 1.415 . S
C1364 H1354 0.930 . S
C1364 C1362 1.419 . S
C1364 C1365 1.362 . S
C1365 H1355 0.930 . S
C1365 C1358 1.409 . S
C1365 C1364 1.362 . S
H1366 C1372 0.930 . S
H1367 C1375 0.930 . S
H1368 C1376 0.930 . S
H1369 C1377 0.930 . S
H1370 C1380 0.930 . S
H1371 C1381 0.930 . S
C1372 H1366 0.930 . S
C1372 C1373 1.355 . S
C1372 C1374 1.415 . S
C1373 C1372 1.355 . S
C1373 C1375 1.419 . S
C1374 C1372 1.415 . S
C1374 C1379 1.425 . S
C1374 C1381 1.409 . S
C1375 H1367 0.930 . S
C1375 C1373 1.419 . S
C1375 C1376 1.362 . S
C1376 H1368 0.930 . S
C1376 C1375 1.362 . S
C1376 C1379 1.409 . S
C1377 H1369 0.930 . S
C1377 C1378 1.355 . S
C1377 C1379 1.415 . S
C1378 C1377 1.355 . S
C1378 C1380 1.419 . S
C1379 C1374 1.425 . S
C1379 C1376 1.409 . S
C1379 C1377 1.415 . S
C1380 H1370 0.930 . S
C1380 C1378 1.419 . S
C1380 C1381 1.362 . S
C1381 H1371 0.930 . S
C1381 C1374 1.409 . S
C1381 C1380 1.362 . S
H1382 C1388 0.930 . S
H1383 C1391 0.930 . S
H1384 C1392 0.930 . S
H1385 C1393 0.930 . S
H1386 C1396 0.930 . S
H1387 C1397 0.930 . S
C1388 H1382 0.930 . S
C1388 C1389 1.355 . S
C1388 C1390 1.415 . S
C1389 C1388 1.355 . S
C1389 C1391 1.419 . S
C1390 C1388 1.415 . S
C1390 C1395 1.425 . S
C1390 C1397 1.409 . S
C1391 H1383 0.930 . S
C1391 C1389 1.419 . S
C1391 C1392 1.362 . S
C1392 H1384 0.930 . S
C1392 C1391 1.362 . S
C1392 C1395 1.409 . S
C1393 H1385 0.930 . S
C1393 C1394 1.355 . S
C1393 C1395 1.415 . S
C1394 C1393 1.355 . S
C1394 C1396 1.419 . S
C1395 C1390 1.425 . S
C1395 C1392 1.409 . S
C1395 C1393 1.415 . S
C1396 H1386 0.930 . S
C1396 C1394 1.419 . S
C1396 C1397 1.362 . S
C1397 H1387 0.930 . S
C1397 C1390 1.409 . S
C1397 C1396 1.362 . S
H1398 C1404 0.930 . S
H1399 C1407 0.930 . S
H1400 C1408 0.930 . S
H1401 C1409 0.930 . S
H1402 C1412 0.930 . S
H1403 C1413 0.930 . S
C1404 H1398 0.930 . S
C1404 C1405 1.355 . S
C1404 C1406 1.415 . S
C1405 C1404 1.355 . S
C1405 C1407 1.419 . S
C1406 C1404 1.415 . S
C1406 C1411 1.425 . S
C1406 C1413 1.409 . S
C1407 H1399 0.930 . S
C1407 C1405 1.419 . S
C1407 C1408 1.362 . S
C1408 H1400 0.930 . S
C1408 C1407 1.362 . S
C1408 C1411 1.409 . S
C1409 H1401 0.930 . S
C1409 C1410 1.355 . S
C1409 C1411 1.415 . S
C1410 C1409 1.355 . S
C1410 C1412 1.419 . S
C1411 C1406 1.425 . S
C1411 C1408 1.409 . S
C1411 C1409 1.415 . S
C1412 H1402 0.930 . S
C1412 C1410 1.419 . S
C1412 C1413 1.362 . S
C1413 H1403 0.930 . S
C1413 C1406 1.409 . S
C1413 C1412 1.362 . S
H1414 C1420 0.930 . S
H1415 C1423 0.930 . S
H1416 C1424 0.930 . S
H1417 C1425 0.930 . S
H1418 C1428 0.930 . S
H1419 C1429 0.930 . S
C1420 H1414 0.930 . S
C1420 C1421 1.355 . S
C1420 C1422 1.415 . S
C1421 C1420 1.355 . S
C1421 C1423 1.419 . S
C1422 C1420 1.415 . S
C1422 C1427 1.425 . S
C1422 C1429 1.409 . S
C1423 H1415 0.930 . S
C1423 C1421 1.419 . S
C1423 C1424 1.362 . S
C1424 H1416 0.930 . S
C1424 C1423 1.362 . S
C1424 C1427 1.409 . S
C1425 H1417 0.930 . S
C1425 C1426 1.355 . S
C1425 C1427 1.415 . S
C1426 C1425 1.355 . S
C1426 C1428 1.419 . S
C1427 C1422 1.425 . S
C1427 C1424 1.409 . S
C1427 C1425 1.415 . S
C1428 H1418 0.930 . S
C1428 C1426 1.419 . S
C1428 C1429 1.362 . S
C1429 H1419 0.930 . S
C1429 C1422 1.409 . S
C1429 C1428 1.362 . S
H1430 C1436 0.930 . S
H1431 C1439 0.930 . S
H1432 C1440 0.930 . S
H1433 C1441 0.930 . S
H1434 C1444 0.930 . S
H1435 C1445 0.930 . S
C1436 H1430 0.930 . S
C1436 C1437 1.355 . S
C1436 C1438 1.415 . S
C1437 C1436 1.355 . S
C1437 C1439 1.419 . S
C1438 C1436 1.415 . S
C1438 C1443 1.425 . S
C1438 C1445 1.409 . S
C1439 H1431 0.930 . S
C1439 C1437 1.419 . S
C1439 C1440 1.362 . S
C1440 H1432 0.930 . S
C1440 C1439 1.362 . S
C1440 C1443 1.409 . S
C1441 H1433 0.930 . S
C1441 C1442 1.355 . S
C1441 C1443 1.415 . S
C1442 C1441 1.355 . S
C1442 C1444 1.419 . S
C1443 C1438 1.425 . S
C1443 C1440 1.409 . S
C1443 C1441 1.415 . S
C1444 H1434 0.930 . S
C1444 C1442 1.419 . S
C1444 C1445 1.362 . S
C1445 H1435 0.930 . S
C1445 C1438 1.409 . S
C1445 C1444 1.362 . S
H1446 C1452 0.930 . S
H1447 C1455 0.930 . S
H1448 C1456 0.930 . S
H1449 C1457 0.930 . S
H1450 C1460 0.930 . S
H1451 C1461 0.930 . S
C1452 H1446 0.930 . S
C1452 C1453 1.355 . S
C1452 C1454 1.415 . S
C1453 C1452 1.355 . S
C1453 C1455 1.419 . S
C1454 C1452 1.415 . S
C1454 C1459 1.425 . S
C1454 C1461 1.409 . S
C1455 H1447 0.930 . S
C1455 C1453 1.419 . S
C1455 C1456 1.362 . S
C1456 H1448 0.930 . S
C1456 C1455 1.362 . S
C1456 C1459 1.409 . S
C1457 H1449 0.930 . S
C1457 C1458 1.355 . S
C1457 C1459 1.415 . S
C1458 C1457 1.355 . S
C1458 C1460 1.419 . S
C1459 C1454 1.425 . S
C1459 C1456 1.409 . S
C1459 C1457 1.415 . S
C1460 H1450 0.930 . S
C1460 C1458 1.419 . S
C1460 C1461 1.362 . S
C1461 H1451 0.930 . S
C1461 C1454 1.409 . S
C1461 C1460 1.362 . S
H1462 C1468 0.930 . S
H1463 C1471 0.930 . S
H1464 C1472 0.930 . S
H1465 C1473 0.930 . S
H1466 C1476 0.930 . S
H1467 C1477 0.930 . S
C1468 H1462 0.930 . S
C1468 C1469 1.355 . S
C1468 C1470 1.415 . S
C1469 C1468 1.355 . S
C1469 C1471 1.419 . S
C1470 C1468 1.415 . S
C1470 C1475 1.425 . S
C1470 C1477 1.409 . S
C1471 H1463 0.930 . S
C1471 C1469 1.419 . S
C1471 C1472 1.362 . S
C1472 H1464 0.930 . S
C1472 C1471 1.362 . S
C1472 C1475 1.409 . S
C1473 H1465 0.930 . S
C1473 C1474 1.355 . S
C1473 C1475 1.415 . S
C1474 C1473 1.355 . S
C1474 C1476 1.419 . S
C1475 C1470 1.425 . S
C1475 C1472 1.409 . S
C1475 C1473 1.415 . S
C1476 H1466 0.930 . S
C1476 C1474 1.419 . S
C1476 C1477 1.362 . S
C1477 H1467 0.930 . S
C1477 C1470 1.409 . S
C1477 C1476 1.362 . S
H1478 C1484 0.930 . S
H1479 C1487 0.930 . S
H1480 C1488 0.930 . S
H1481 C1489 0.930 . S
H1482 C1492 0.930 . S
H1483 C1493 0.930 . S
C1484 H1478 0.930 . S
C1484 C1485 1.355 . S
C1484 C1486 1.415 . S
C1485 C1484 1.355 . S
C1485 C1487 1.419 . S
C1486 C1484 1.415 . S
C1486 C1491 1.425 . S
C1486 C1493 1.409 . S
C1487 H1479 0.930 . S
C1487 C1485 1.419 . S
C1487 C1488 1.362 . S
C1488 H1480 0.930 . S
C1488 C1487 1.362 . S
C1488 C1491 1.409 . S
C1489 H1481 0.930 . S
C1489 C1490 1.355 . S
C1489 C1491 1.415 . S
C1490 C1489 1.355 . S
C1490 C1492 1.419 . S
C1491 C1486 1.425 . S
C1491 C1488 1.409 . S
C1491 C1489 1.415 . S
C1492 H1482 0.930 . S
C1492 C1490 1.419 . S
C1492 C1493 1.362 . S
C1493 H1483 0.930 . S
C1493 C1486 1.409 . S
C1493 C1492 1.362 . S
H1494 C1500 0.930 . S
H1495 C1503 0.930 . S
H1496 C1504 0.930 . S
H1497 C1505 0.930 . S
H1498 C1508 0.930 . S
H1499 C1509 0.930 . S
C1500 H1494 0.930 . S
C1500 C1501 1.355 . S
C1500 C1502 1.415 . S
C1501 C1500 1.355 . S
C1501 C1503 1.419 . S
C1502 C1500 1.415 . S
C1502 C1507 1.425 . S
C1502 C1509 1.409 . S
C1503 H1495 0.930 . S
C1503 C1501 1.419 . S
C1503 C1504 1.362 . S
C1504 H1496 0.930 . S
C1504 C1503 1.362 . S
C1504 C1507 1.409 . S
C1505 H1497 0.930 . S
C1505 C1506 1.355 . S
C1505 C1507 1.415 . S
C1506 C1505 1.355 . S
C1506 C1508 1.419 . S
C1507 C1502 1.425 . S
C1507 C1504 1.409 . S
C1507 C1505 1.415 . S
C1508 H1498 0.930 . S
C1508 C1506 1.419 . S
C1508 C1509 1.362 . S
C1509 H1499 0.930 . S
C1509 C1502 1.409 . S
C1509 C1508 1.362 . S
H1510 C1516 0.930 . S
H1511 C1519 0.930 . S
H1512 C1520 0.930 . S
H1513 C1521 0.930 . S
H1514 C1524 0.930 . S
H1515 C1525 0.930 . S
C1516 H1510 0.930 . S
C1516 C1517 1.355 . S
C1516 C1518 1.415 . S
C1517 C1516 1.355 . S
C1517 C1519 1.419 . S
C1518 C1516 1.415 . S
C1518 C1523 1.425 . S
C1518 C1525 1.409 . S
C1519 H1511 0.930 . S
C1519 C1517 1.419 . S
C1519 C1520 1.362 . S
C1520 H1512 0.930 . S
C1520 C1519 1.362 . S
C1520 C1523 1.409 . S
C1521 H1513 0.930 . S
C1521 C1522 1.355 . S
C1521 C1523 1.415 . S
C1522 C1521 1.355 . S
C1522 C1524 1.419 . S
C1523 C1518 1.425 . S
C1523 C1520 1.409 . S
C1523 C1521 1.415 . S
C1524 H1514 0.930 . S
C1524 C1522 1.419 . S
C1524 C1525 1.362 . S
C1525 H1515 0.930 . S
C1525 C1518 1.409 . S
C1525 C1524 1.362 . S
H1526 C1532 0.930 . S
H1527 C1535 0.930 . S
H1528 C1536 0.930 . S
H1529 C1537 0.930 . S
H1530 C1540 0.930 . S
H1531 C1541 0.930 . S
C1532 H1526 0.930 . S
C1532 C1533 1.355 . S
C1532 C1534 1.415 . S
C1533 C1532 1.355 . S
C1533 C1535 1.419 . S
C1534 C1532 1.415 . S
C1534 C1539 1.425 . S
C1534 C1541 1.409 . S
C1535 H1527 0.930 . S
C1535 C1533 1.419 . S
C1535 C1536 1.362 . S
C1536 H1528 0.930 . S
C1536 C1535 1.362 . S
C1536 C1539 1.409 . S
C1537 H1529 0.930 . S
C1537 C1538 1.355 . S
C1537 C1539 1.415 . S
C1538 C1537 1.355 . S
C1538 C1540 1.419 . S
C1539 C1534 1.425 . S
C1539 C1536 1.409 . S
C1539 C1537 1.415 . S
C1540 H1530 0.930 . S
C1540 C1538 1.419 . S
C1540 C1541 1.362 . S
C1541 H1531 0.930 . S
C1541 C1534 1.409 . S
C1541 C1540 1.362 . S
H1542 C1548 0.930 . S
H1543 C1551 0.930 . S
H1544 C1552 0.930 . S
H1545 C1553 0.930 . S
H1546 C1556 0.930 . S
H1547 C1557 0.930 . S
C1548 H1542 0.930 . S
C1548 C1549 1.355 . S
C1548 C1550 1.415 . S
C1549 C1548 1.355 . S
C1549 C1551 1.419 . S
C1550 C1548 1.415 . S
C1550 C1555 1.425 . S
C1550 C1557 1.409 . S
C1551 H1543 0.930 . S
C1551 C1549 1.419 . S
C1551 C1552 1.362 . S
C1552 H1544 0.930 . S
C1552 C1551 1.362 . S
C1552 C1555 1.409 . S
C1553 H1545 0.930 . S
C1553 C1554 1.355 . S
C1553 C1555 1.415 . S
C1554 C1553 1.355 . S
C1554 C1556 1.419 . S
C1555 C1550 1.425 . S
C1555 C1552 1.409 . S
C1555 C1553 1.415 . S
C1556 H1546 0.930 . S
C1556 C1554 1.419 . S
C1556 C1557 1.362 . S
C1557 H1547 0.930 . S
C1557 C1550 1.409 . S
C1557 C1556 1.362 . S
H1558 C1564 0.930 . S
H1559 C1567 0.930 . S
H1560 C1568 0.930 . S
H1561 C1569 0.930 . S
H1562 C1572 0.930 . S
H1563 C1573 0.930 . S
C1564 H1558 0.930 . S
C1564 C1565 1.355 . S
C1564 C1566 1.415 . S
C1565 C1564 1.355 . S
C1565 C1567 1.419 . S
C1566 C1564 1.415 . S
C1566 C1571 1.425 . S
C1566 C1573 1.409 . S
C1567 H1559 0.930 . S
C1567 C1565 1.419 . S
C1567 C1568 1.362 . S
C1568 H1560 0.930 . S
C1568 C1567 1.362 . S
C1568 C1571 1.409 . S
C1569 H1561 0.930 . S
C1569 C1570 1.355 . S
C1569 C1571 1.415 . S
C1570 C1569 1.355 . S
C1570 C1572 1.419 . S
C1571 C1566 1.425 . S
C1571 C1568 1.409 . S
C1571 C1569 1.415 . S
C1572 H1562 0.930 . S
C1572 C1570 1.419 . S
C1572 C1573 1.362 . S
C1573 H1563 0.930 . S
C1573 C1566 1.409 . S
C1573 C1572 1.362 . S
H1574 C1580 0.930 . S
H1575 C1583 0.930 . S
H1576 C1584 0.930 . S
H1577 C1585 0.930 . S
H1578 C1588 0.930 . S
H1579 C1589 0.930 . S
C1580 H1574 0.930 . S
C1580 C1581 1.355 . S
C1580 C1582 1.415 . S
C1581 C1580 1.355 . S
C1581 C1583 1.419 . S
C1582 C1580 1.415 . S
C1582 C1587 1.425 . S
C1582 C1589 1.409 . S
C1583 H1575 0.930 . S
C1583 C1581 1.419 . S
C1583 C1584 1.362 . S
C1584 H1576 0.930 . S
C1584 C1583 1.362 . S
C1584 C1587 1.409 . S
C1585 H1577 0.930 . S
C1585 C1586 1.355 . S
C1585 C1587 1.415 . S
C1586 C1585 1.355 . S
C1586 C1588 1.419 . S
C1587 C1582 1.425 . S
C1587 C1584 1.409 . S
C1587 C1585 1.415 . S
C1588 H1578 0.930 . S
C1588 C1586 1.419 . S
C1588 C1589 1.362 . S
C1589 H1579 0.930 . S
C1589 C1582 1.409 . S
C1589 C1588 1.362 . S
H1590 C1596 0.930 . S
H1591 C1599 0.930 . S
H1592 C1600 0.930 . S
H1593 C1601 0.930 . S
H1594 C1604 0.930 . S
H1595 C1605 0.930 . S
C1596 H1590 0.930 . S
C1596 C1597 1.355 . S
C1596 C1598 1.415 . S
C1597 C1596 1.355 . S
C1597 C1599 1.419 . S
C1598 C1596 1.415 . S
C1598 C1603 1.425 . S
C1598 C1605 1.409 . S
C1599 H1591 0.930 . S
C1599 C1597 1.419 . S
C1599 C1600 1.362 . S
C1600 H1592 0.930 . S
C1600 C1599 1.362 . S
C1600 C1603 1.409 . S
C1601 H1593 0.930 . S
C1601 C1602 1.355 . S
C1601 C1603 1.415 . S
C1602 C1601 1.355 . S
C1602 C1604 1.419 . S
C1603 C1598 1.425 . S
C1603 C1600 1.409 . S
C1603 C1601 1.415 . S
C1604 H1594 0.930 . S
C1604 C1602 1.419 . S
C1604 C1605 1.362 . S
C1605 H1595 0.930 . S
C1605 C1598 1.409 . S
C1605 C1604 1.362 . S
H1606 C1612 0.930 . S
H1607 C1615 0.930 . S
H1608 C1616 0.930 . S
H1609 C1617 0.930 . S
H1610 C1620 0.930 . S
H1611 C1621 0.930 . S
C1612 H1606 0.930 . S
C1612 C1613 1.355 . S
C1612 C1614 1.415 . S
C1613 C1612 1.355 . S
C1613 C1615 1.419 . S
C1614 C1612 1.415 . S
C1614 C1619 1.425 . S
C1614 C1621 1.409 . S
C1615 H1607 0.930 . S
C1615 C1613 1.419 . S
C1615 C1616 1.362 . S
C1616 H1608 0.930 . S
C1616 C1615 1.362 . S
C1616 C1619 1.409 . S
C1617 H1609 0.930 . S
C1617 C1618 1.355 . S
C1617 C1619 1.415 . S
C1618 C1617 1.355 . S
C1618 C1620 1.419 . S
C1619 C1614 1.425 . S
C1619 C1616 1.409 . S
C1619 C1617 1.415 . S
C1620 H1610 0.930 . S
C1620 C1618 1.419 . S
C1620 C1621 1.362 . S
C1621 H1611 0.930 . S
C1621 C1614 1.409 . S
C1621 C1620 1.362 . S
H1622 C1628 0.930 . S
H1623 C1631 0.930 . S
H1624 C1632 0.930 . S
H1625 C1633 0.930 . S
H1626 C1636 0.930 . S
H1627 C1637 0.930 . S
C1628 H1622 0.930 . S
C1628 C1629 1.355 . S
C1628 C1630 1.415 . S
C1629 C1628 1.355 . S
C1629 C1631 1.419 . S
C1630 C1628 1.415 . S
C1630 C1635 1.425 . S
C1630 C1637 1.409 . S
C1631 H1623 0.930 . S
C1631 C1629 1.419 . S
C1631 C1632 1.362 . S
C1632 H1624 0.930 . S
C1632 C1631 1.362 . S
C1632 C1635 1.409 . S
C1633 H1625 0.930 . S
C1633 C1634 1.355 . S
C1633 C1635 1.415 . S
C1634 C1633 1.355 . S
C1634 C1636 1.419 . S
C1635 C1630 1.425 . S
C1635 C1632 1.409 . S
C1635 C1633 1.415 . S
C1636 H1626 0.930 . S
C1636 C1634 1.419 . S
C1636 C1637 1.362 . S
C1637 H1627 0.930 . S
C1637 C1630 1.409 . S
C1637 C1636 1.362 . S
C882 C699 1.377 . S
C877 C75 1.392 . S
C898 C700 0.926 . S
C893 C156 0.920 . S
C914 C694 1.530 . S
C909 C243 1.508 . S
C925 C315 0.693 . S
C930 C693 0.612 . S
C941 C399 0.737 . S
C946 C696 0.582 . S
C962 C698 1.275 . S
C957 C495 1.278 . S
C973 C576 0.971 . S
C978 C697 1.081 . S
C989 C654 1.364 . S
C994 C695 1.321 . S
C1010 C730 0.992 . S
C1005 C72 0.874 . S
C1021 C140 1.487 . S
C1026 C761 1.483 . S
C1042 C729 1.059 . S
C1037 C240 1.069 . S
C1058 C764 0.953 . S
C1053 C318 0.922 . S
C1069 C402 1.128 . S
C1074 C727 1.224 . S
C1090 C759 1.733 1_556 S
C1085 C492 1.554 . S
C1101 C560 1.124 . S
C1106 C732 1.331 . S
C1117 C655 2.668 . S
C1122 C766 2.671 . S
C1133 C56 3.110 . S
C1138 C762 3.221 . S
C1149 C403 1.887 . S
C1154 C765 1.855 1_556 S
C1170 C733 2.267 . S
C1165 C476 2.178 . S
C1186 C760 1.666 1_556 S
C1181 C579 1.576 . S
C1197 C651 1.448 . S
C1202 C726 1.512 . S
C1213 C224 3.034 . S
C1218 C763 3.196 . S
C1234 C728 1.511 . S
C1229 C319 1.469 . S
C1245 C159 1.925 . S
C1250 C731 1.930 . S
C1261 C663 1.349 . S
C1266 C798 1.327 . S
C1277 C408 0.992 . S
C1282 C799 0.181 . S
C1298 C793 1.399 . S
C1293 C486 1.379 . S
C1314 C792 1.309 . S
C1309 C567 1.182 . S
C1325 C147 0.749 . S
C1330 C795 0.553 . S
C1346 C797 1.343 . S
C1341 C234 1.296 . S
C1357 C324 0.902 . S
C1362 C796 0.926 . S
C1373 C66 1.286 . S
C1378 C794 1.198 . S
C1389 C660 1.390 . S
C1394 C832 1.532 . S
C1410 C864 1.449 . S
C1405 C392 1.475 . S
C1421 C487 2.069 . S
C1426 C825 2.186 . S
C1437 C570 1.883 . S
C1442 C859 1.957 . S
C1458 C830 1.750 . S
C1453 C150 1.609 . S
C1469 C235 3.281 . S
C1474 C861 3.370 . S
C1490 C827 1.733 . S
C1485 C308 1.821 . S
C1506 C862 3.142 . S
C1501 C67 2.922 . S
C1522 C858 2.614 . S
C1517 C644 2.396 . S
C1533 C151 1.222 . S
C1538 C860 1.166 . S
C1549 C231 0.977 . S
C1554 C829 0.921 . S
C1570 C863 1.247 . S
C1565 C327 1.139 . S
C1581 C63 1.060 . S
C1586 C828 0.998 . S
C1597 C483 1.760 . S
C1602 C865 1.818 . S
C1618 C831 1.393 . S
C1613 C571 1.459 . S
C1634 C826 1.022 . S
C1629 C411 1.024 . S
