# Generated by pormake.
# Topology bcu-b, (8,8)-cn, num edge types: 1
# Building blocks:
#     Node 0, Type 0, BuildingBlock: TAGTUT_clean_sbu_1, # of connection points: 8
#     Node 1, Type 1, BuildingBlock: GIZVER_clean_sbu_0, # of connection points: 8
#     Edge 2, Type (0, 1), BuildingBlock: XUDNAN_clean_linker_2, # of connection points: 2
#     Edge 3, Type (0, 1), BuildingBlock: XUDNAN_clean_linker_2, # of connection points: 2
#     Edge 4, Type (0, 1), BuildingBlock: XUDNAN_clean_linker_2, # of connection points: 2
#     Edge 5, Type (0, 1), BuildingBlock: XUDNAN_clean_linker_2, # of connection points: 2
#     Edge 6, Type (0, 1), BuildingBlock: XUDNAN_clean_linker_2, # of connection points: 2
#     Edge 7, Type (0, 1), BuildingBlock: XUDNAN_clean_linker_2, # of connection points: 2
#     Edge 8, Type (0, 1), BuildingBlock: XUDNAN_clean_linker_2, # of connection points: 2
#     Edge 9, Type (0, 1), BuildingBlock: XUDNAN_clean_linker_2, # of connection points: 2
# Relax obj value: 0.105
# Max RMSD: 0.175
# Mean RMSD: 0.169
data_MOF--net-bcu-b--node1-TAGTUT_clean_sbu_1--node2-GIZVER_clean_sbu_0--edge1-XUDNAN_clean_linker_2
_symmetry_space_group_name_H-M    P1
_symmetry_Int_Tables_number       1
_symmetry_cell_setting            triclinic
loop_
_symmetry_equiv_pos_as_xyz
'x, y, z'
_cell_length_a     20.924012
_cell_length_b     22.146675
_cell_length_c     17.532491
_cell_angle_alpha  88.868535
_cell_angle_beta   94.92509
_cell_angle_gamma 108.19199
loop_
_atom_site_label
_atom_site_type_symbol
_atom_site_fract_x
_atom_site_fract_y
_atom_site_fract_z
_atom_type_partial_charge
C0 C 0.88101 0.15411 0.11 0.0
C1 C 0.93766 0.1628 0.87622 0.0
C2 C 0.87496 0.90764 0.90398 0.0
Mg3 Mg 1.00939 0.15389 0.03396 0.0
O4 O 0.96582 0.066 0.03966 0.0
Mg5 Mg 0.8724 0.03481 0.98693 0.0
Mg6 Mg 1.00676 1.00605 0.99462 0.0
O7 O 0.04654 0.94551 0.95021 0.0
Mg8 Mg 0.99882 0.85982 0.96651 0.0
Mg9 Mg 0.14054 0.97482 0.00143 0.0
C10 C 0.13653 0.10447 0.08801 0.0
C11 C 0.12448 0.08822 0.88816 0.0
O12 O 0.84808 0.10366 0.07098 0.0
O13 O 0.94427 0.18212 0.10566 0.0
O14 O 0.89254 0.11219 0.89466 0.0
O15 O 0.99213 0.18594 0.91904 0.0
O16 O 0.10893 0.14875 0.07637 0.0
O17 O 0.10445 0.04547 0.07281 0.0
C18 C 0.88973 0.92301 0.10107 0.0
O19 O 0.95001 0.93163 0.08233 0.0
O20 O 0.85464 0.95778 0.07426 0.0
O21 O 0.16025 0.89894 0.91918 0.0
O22 O 0.05805 0.82529 0.89735 0.0
O23 O 0.12201 0.89947 0.09612 0.0
C24 C 0.12092 0.84701 0.88684 0.0
O25 O 0.01944 0.82936 0.08166 0.0
O26 O 0.8992 0.86204 0.92156 0.0
C27 C 0.07692 0.85095 0.11936 0.0
O28 O 0.90921 0.96653 0.91556 0.0
O29 O 0.06456 0.08055 0.90776 0.0
O30 O 0.15856 0.05176 0.91271 0.0
Co31 Co 0.59231 0.39503 0.4884 0.0
Co32 Co 0.60142 0.45021 0.61851 0.0
Co33 Co 0.51004 0.50425 0.49738 0.0
O34 O 0.59331 0.47837 0.51918 0.0
H35 H 0.63398 0.51142 0.50783 0.0
O36 O 0.427 0.53012 0.47549 0.0
Co37 Co 0.42501 0.60962 0.51552 0.0
Co38 Co 0.41796 0.56528 0.38164 0.0
H39 H 0.38642 0.49564 0.48335 0.0
O40 O 0.68689 0.46169 0.66305 0.0
O41 O 0.61903 0.37628 0.59575 0.0
O42 O 0.52229 0.42789 0.67487 0.0
O43 O 0.45653 0.45033 0.57899 0.0
O44 O 0.54865 0.57579 0.57199 0.0
O45 O 0.41677 0.67912 0.55628 0.0
O46 O 0.33836 0.58307 0.5376 0.0
O47 O 0.51745 0.64655 0.50146 0.0
O48 O 0.56293 0.55862 0.41555 0.0
O49 O 0.49711 0.58998 0.32665 0.0
O50 O 0.3977 0.63659 0.41143 0.0
O51 O 0.33244 0.55405 0.33736 0.0
C52 C 0.65809 0.35371 0.44868 0.0
C53 C 0.46502 0.37436 0.4444 0.0
C54 C 0.46445 0.42665 0.64485 0.0
C55 C 0.67656 0.40561 0.63385 0.0
C56 C 0.35633 0.64113 0.56439 0.0
C57 C 0.55406 0.63362 0.55692 0.0
C58 C 0.55453 0.58686 0.35285 0.0
C59 C 0.34151 0.6087 0.36984 0.0
O60 O 0.59618 0.32123 0.45904 0.0
O61 O 0.6801 0.41455 0.46494 0.0
O62 O 0.47117 0.43151 0.42422 0.0
O63 O 0.50009 0.36406 0.50317 0.0
H64 H 0.23231 0.21797 0.07752 0.0
H65 H 0.19117 0.03684 0.19315 0.0
H66 H 0.28606 0.08449 0.29015 0.0
H67 H 0.42248 0.27953 0.13217 0.0
H68 H 0.41801 0.35869 0.14462 0.0
H69 H 0.36193 0.30633 0.07312 0.0
H70 H 0.25974 0.32283 0.13235 0.0
H71 H 0.31443 0.37385 0.20526 0.0
H72 H 0.24816 0.30457 0.23191 0.0
H73 H 0.36657 0.15767 0.3891 0.0
H74 H 0.43129 0.24687 0.47518 0.0
H75 H 0.41359 0.38071 0.29677 0.0
C76 C 0.24538 0.1876 0.12128 0.0
C77 C 0.20473 0.12387 0.12811 0.0
C78 C 0.22243 0.08556 0.18641 0.0
C79 C 0.27598 0.11245 0.24199 0.0
C80 C 0.31144 0.17719 0.23735 0.0
C81 C 0.29771 0.2139 0.17727 0.0
C82 C 0.33529 0.28377 0.19058 0.0
C83 C 0.38758 0.30852 0.13164 0.0
C84 C 0.28647 0.3235 0.19002 0.0
C85 C 0.36914 0.28134 0.26963 0.0
C86 C 0.35625 0.2195 0.2951 0.0
C87 C 0.37818 0.2061 0.36896 0.0
C88 C 0.41444 0.25711 0.41764 0.0
C89 C 0.42735 0.32077 0.3927 0.0
C90 C 0.40466 0.33264 0.31752 0.0
H91 H 0.88902 0.27687 0.14788 0.0
H92 H 0.79596 0.07921 0.20564 0.0
H93 H 0.74281 0.1122 0.31078 0.0
H94 H 0.91641 0.3439 0.34231 0.0
H95 H 0.8929 0.41319 0.31361 0.0
H96 H 0.9301 0.37547 0.2474 0.0
H97 H 0.82753 0.36275 0.14814 0.0
H98 H 0.79066 0.40122 0.21359 0.0
H99 H 0.74359 0.32346 0.17574 0.0
H100 H 0.69933 0.16438 0.40746 0.0
H101 H 0.64899 0.23143 0.47614 0.0
H102 H 0.76145 0.39687 0.35252 0.0
C103 C 0.85771 0.24082 0.18316 0.0
C104 C 0.8467 0.1755 0.16919 0.0
C105 C 0.80463 0.12942 0.21534 0.0
C106 C 0.77493 0.14772 0.27567 0.0
C107 C 0.78695 0.21234 0.28846 0.0
C108 C 0.82598 0.2583 0.24267 0.0
C109 C 0.8245 0.324 0.26428 0.0
C110 C 0.8952 0.36665 0.29364 0.0
C111 C 0.79478 0.35464 0.19641 0.0
C112 C 0.77763 0.30743 0.32843 0.0
C113 C 0.75832 0.24281 0.34243 0.0
C114 C 0.71383 0.21498 0.39693 0.0
C115 C 0.68555 0.25355 0.43566 0.0
C116 C 0.70105 0.3192 0.41928 0.0
C117 C 0.74949 0.347 0.36683 0.0
H118 H 0.75499 0.87514 0.10912 0.0
H119 H 0.94303 0.84382 0.19425 0.0
H120 H 0.87768 0.74811 0.26319 0.0
H121 H 0.66823 0.83104 0.27505 0.0
H122 H 0.58814 0.7947 0.22172 0.0
H123 H 0.65107 0.85903 0.18062 0.0
H124 H 0.64535 0.78829 0.06241 0.0
H125 H 0.58297 0.7233 0.10354 0.0
H126 H 0.65976 0.71256 0.07591 0.0
H127 H 0.7876 0.65783 0.32799 0.0
H128 H 0.68562 0.58435 0.37999 0.0
H129 H 0.56081 0.67653 0.24269 0.0
C130 C 0.78319 0.84878 0.14244 0.0
C131 C 0.8544 0.86729 0.14646 0.0
C132 C 0.8885 0.83045 0.19015 0.0
C133 C 0.85172 0.7761 0.22937 0.0
C134 C 0.78118 0.7592 0.2232 0.0
C135 C 0.74771 0.79472 0.18034 0.0
C136 C 0.67214 0.76795 0.18169 0.0
C137 C 0.64324 0.81603 0.21689 0.0
C138 C 0.63808 0.74675 0.10111 0.0
C139 C 0.66749 0.71186 0.23331 0.0
C140 C 0.73059 0.70721 0.25708 0.0
C141 C 0.7381 0.66081 0.3089 0.0
C142 C 0.67985 0.61923 0.33803 0.0
C143 C 0.61499 0.62423 0.31492 0.0
C144 C 0.60925 0.67047 0.26068 0.0
H145 H 0.19874 0.87945 0.2049 0.0
H146 H 1.00246 0.73537 0.17431 0.0
H147 H 0.04629 0.6622 0.25512 0.0
H148 H 0.29185 0.78383 0.18161 0.0
H149 H 0.36053 0.81989 0.25214 0.0
H150 H 0.31084 0.86621 0.20815 0.0
H151 H 0.28286 0.89453 0.34129 0.0
H152 H 0.33354 0.84897 0.38609 0.0
H153 H 0.2468 0.83183 0.40685 0.0
H154 H 0.11678 0.59805 0.31369 0.0
H155 H 0.20619 0.5503 0.35379 0.0
H156 H 0.35693 0.7359 0.35051 0.0
C157 C 0.16405 0.83341 0.21754 0.0
C158 C 0.09697 0.81329 0.18295 0.0
C159 C 0.05382 0.75218 0.20022 0.0
C160 C 0.07837 0.7102 0.24617 0.0
C161 C 0.14586 0.73031 0.27558 0.0
C162 C 0.18778 0.79102 0.26328 0.0
C163 C 0.26004 0.79868 0.29397 0.0
C164 C 0.30861 0.81827 0.23015 0.0
C165 C 0.2821 0.84633 0.36105 0.0
C166 C 0.2531 0.73173 0.32123 0.0
C167 C 0.18658 0.6933 0.31114 0.0
C168 C 0.16862 0.62805 0.32379 0.0
C169 C 0.21981 0.60128 0.34608 0.0
C170 C 0.28825 0.63956 0.3559 0.0
C171 C 0.30481 0.70586 0.34524 0.0
H172 H 0.25053 0.87192 0.83944 0.0
H173 H 0.04845 0.73577 0.81512 0.0
H174 H 0.08604 0.67164 0.72794 0.0
H175 H 0.28721 0.8613 0.64189 0.0
H176 H 0.37429 0.86665 0.66618 0.0
H177 H 0.33207 0.90406 0.72673 0.0
H178 H 0.36267 0.84153 0.84328 0.0
H179 H 0.40507 0.80411 0.78304 0.0
H180 H 0.33883 0.75605 0.83796 0.0
H181 H 0.14365 0.61974 0.64536 0.0
H182 H 0.2209 0.5831 0.57285 0.0
H183 H 0.38567 0.75121 0.64778 0.0
C184 C 0.21428 0.82873 0.8157 0.0
C185 C 0.14647 0.80942 0.83458 0.0
C186 C 0.10072 0.75224 0.80204 0.0
C187 C 0.12141 0.71513 0.75206 0.0
C188 C 0.18814 0.73539 0.73455 0.0
C189 C 0.2341 0.79067 0.76517 0.0
C190 C 0.30318 0.80046 0.73712 0.0
C191 C 0.32548 0.86176 0.69019 0.0
C192 C 0.35552 0.80052 0.80436 0.0
C193 C 0.28846 0.74189 0.68677 0.0
C194 C 0.22169 0.70516 0.68604 0.0
C195 C 0.19614 0.64811 0.64514 0.0
C196 C 0.24034 0.62762 0.60423 0.0
C197 C 0.30914 0.66422 0.60454 0.0
C198 C 0.33316 0.72235 0.64591 0.0
H199 H 0.25972 0.14212 0.89342 0.0
H200 H 0.07288 0.16534 0.79011 0.0
H201 H 0.13944 0.26137 0.72253 0.0
H202 H 0.34883 0.30944 0.9229 0.0
H203 H 0.42857 0.30008 0.90412 0.0
H204 H 0.36523 0.23549 0.94466 0.0
H205 H 0.36949 0.16147 0.83343 0.0
H206 H 0.43285 0.22574 0.79288 0.0
H207 H 0.35602 0.1851 0.7359 0.0
H208 H 0.23026 0.35097 0.65926 0.0
H209 H 0.333 0.42449 0.60927 0.0
H210 H 0.45708 0.34191 0.76199 0.0
C211 C 0.23228 0.16683 0.85618 0.0
C212 C 0.16099 0.14541 0.84574 0.0
C213 C 0.12748 0.18052 0.79823 0.0
C214 C 0.16493 0.23513 0.75995 0.0
C215 C 0.23549 0.25438 0.77134 0.0
C216 C 0.26843 0.22128 0.81906 0.0
C217 C 0.34423 0.25041 0.82228 0.0
C218 C 0.37342 0.27533 0.90329 0.0
C219 C 0.37757 0.20286 0.79443 0.0
C220 C 0.34964 0.30434 0.76676 0.0
C221 C 0.28661 0.30637 0.73806 0.0
C222 C 0.27966 0.35013 0.68225 0.0
C223 C 0.3384 0.39173 0.65421 0.0
C224 C 0.40334 0.3894 0.68209 0.0
C225 C 0.40851 0.34587 0.7403 0.0
H226 H 0.82069 0.13318 0.78176 0.0
H227 H 0.01351 0.27989 0.82747 0.0
H228 H 0.97158 0.35387 0.74639 0.0
H229 H 0.77992 0.19018 0.57801 0.0
H230 H 0.69193 0.16886 0.59489 0.0
H231 H 0.74314 0.12282 0.63714 0.0
H232 H 0.70763 0.14108 0.7707 0.0
H233 H 0.65811 0.18839 0.72921 0.0
H234 H 0.7235 0.22126 0.8045 0.0
H235 H 0.90155 0.41808 0.69099 0.0
H236 H 0.81145 0.46573 0.65558 0.0
H237 H 0.66327 0.27818 0.64169 0.0
C238 C 0.85523 0.17997 0.77203 0.0
C239 C 0.92039 0.20073 0.81147 0.0
C240 C 0.96351 0.26271 0.79799 0.0
C241 C 0.94009 0.30513 0.75178 0.0
C242 C 0.87394 0.28451 0.71815 0.0
C243 C 0.83256 0.22281 0.72601 0.0
C244 C 0.76095 0.21495 0.69267 0.0
C245 C 0.74295 0.17164 0.62144 0.0
C246 C 0.7096 0.19 0.75289 0.0
C247 C 0.76718 0.28297 0.67095 0.0
C248 C 0.83318 0.32199 0.68443 0.0
C249 C 0.85018 0.38779 0.67804 0.0
C250 C 0.79851 0.41446 0.65862 0.0
C251 C 0.73051 0.37554 0.6458 0.0
C252 C 0.71502 0.30886 0.64985 0.0
H253 H 0.83592 0.92303 0.75589 0.0
H254 H 0.7624 0.84216 0.97009 0.0
H255 H 0.65728 0.77529 0.90126 0.0
H256 H 0.65937 0.90502 0.64737 0.0
H257 H 0.68852 0.8842 0.56082 0.0
H258 H 0.74624 0.94051 0.62747 0.0
H259 H 0.82622 0.87167 0.63333 0.0
H260 H 0.76832 0.81427 0.56892 0.0
H261 H 0.79508 0.78959 0.66155 0.0
H262 H 0.57959 0.6978 0.81129 0.0
H263 H 0.52674 0.62202 0.70549 0.0
H264 H 0.64718 0.75114 0.5458 0.0
C265 C 0.79538 0.89449 0.78818 0.0
C266 C 0.80566 0.88908 0.86823 0.0
C267 C 0.75398 0.84836 0.90904 0.0
C268 C 0.69435 0.80994 0.8702 0.0
C269 C 0.68738 0.81289 0.7905 0.0
C270 C 0.73575 0.8552 0.74975 0.0
C271 C 0.7214 0.84148 0.66435 0.0
C272 C 0.70275 0.89605 0.62253 0.0
C273 C 0.7813 0.82846 0.63013 0.0
C274 C 0.66084 0.78202 0.66407 0.0
C275 C 0.64133 0.76714 0.73737 0.0
C276 C 0.5928 0.71004 0.75338 0.0
C277 C 0.56363 0.667 0.69323 0.0
C278 C 0.58284 0.68135 0.61796 0.0
C279 C 0.63088 0.74006 0.60284 0.0
loop_
_geom_bond_atom_site_label_1
_geom_bond_atom_site_label_2
_geom_bond_distance
_geom_bond_site_symmetry_2
_ccdc_geom_bond_type
C0 O12 1.241 . S
C0 O13 1.280 . S
C1 O14 1.277 . S
C1 O15 1.245 . S
C2 O26 1.247 . S
C2 O28 1.289 . S
Mg3 O4 1.926 . S
Mg3 O13 1.984 . S
Mg3 O15 1.988 1_554 S
Mg3 O16 2.061 1_655 S
O4 Mg3 1.926 . S
O4 Mg5 1.986 1_544 S
O4 Mg6 1.917 1_655 S
Mg5 O4 1.986 1_566 S
Mg5 O12 2.041 1_566 S
Mg5 O14 2.040 1_565 S
Mg5 O20 2.040 1_556 S
Mg5 O28 2.239 . S
Mg6 O4 1.917 1_455 S
Mg6 O7 1.917 1_544 S
Mg6 O17 2.107 . S
Mg6 O19 2.079 1_445 S
Mg6 O28 2.106 1_444 S
Mg6 O29 2.079 1_554 S
O7 Mg6 1.917 1_566 S
O7 Mg8 1.926 . S
O7 Mg9 1.985 1_566 S
Mg8 O7 1.926 . S
Mg8 O22 1.984 . S
Mg8 O25 1.988 1_556 S
Mg8 O26 2.061 1_455 S
Mg9 O7 1.985 1_544 S
Mg9 O17 2.242 . S
Mg9 O21 2.038 1_544 S
Mg9 O23 2.037 1_545 S
Mg9 O30 2.043 1_554 S
C10 O16 1.247 . S
C10 O17 1.289 . S
C11 O29 1.245 . S
C11 O30 1.274 . S
O12 C0 1.241 . S
O12 Mg5 2.041 1_544 S
O13 C0 1.280 . S
O13 Mg3 1.984 . S
O14 C1 1.277 . S
O14 Mg5 2.040 1_545 S
O15 C1 1.245 . S
O15 Mg3 1.988 1_556 S
O16 Mg3 2.061 1_455 S
O16 C10 1.247 . S
O17 Mg6 2.107 . S
O17 Mg9 2.242 . S
O17 C10 1.289 . S
C18 O19 1.245 . S
C18 O20 1.274 . S
O19 Mg6 2.079 1_665 S
O19 C18 1.245 . S
O20 Mg5 2.040 1_554 S
O20 C18 1.274 . S
O21 Mg9 2.038 1_566 S
O21 C24 1.241 . S
O22 Mg8 1.984 . S
O22 C24 1.280 . S
O23 Mg9 2.037 1_565 S
O23 C27 1.277 . S
C24 O21 1.241 . S
C24 O22 1.280 . S
O25 Mg8 1.988 1_554 S
O25 C27 1.245 . S
O26 C2 1.247 . S
O26 Mg8 2.061 1_655 S
C27 O23 1.277 . S
C27 O25 1.245 . S
O28 C2 1.289 . S
O28 Mg5 2.239 . S
O28 Mg6 2.106 1_666 S
O29 Mg6 2.079 1_556 S
O29 C11 1.245 . S
O30 Mg9 2.043 1_556 S
O30 C11 1.274 . S
Co31 O34 2.042 . S
Co31 O41 2.264 . S
Co31 O60 2.286 . S
Co31 O61 2.069 . S
Co31 O63 2.015 . S
Co32 O34 2.122 . S
Co32 O40 2.073 . S
Co32 O41 2.327 . S
Co32 O42 1.976 . S
Co33 O34 2.087 . S
Co33 O36 2.087 . S
Co33 O43 2.111 . S
Co33 O44 2.143 . S
Co33 O48 2.111 . S
Co33 O62 2.143 . S
O34 Co31 2.042 . S
O34 Co32 2.122 . S
O34 Co33 2.087 . S
O34 H35 0.980 . S
H35 O34 0.980 . S
O36 Co33 2.087 . S
O36 Co37 2.042 . S
O36 Co38 2.122 . S
O36 H39 0.980 . S
Co37 O36 2.042 . S
Co37 O45 2.286 . S
Co37 O46 2.069 . S
Co37 O47 2.015 . S
Co37 O50 2.264 . S
Co38 O36 2.122 . S
Co38 O49 1.976 . S
Co38 O50 2.327 . S
Co38 O51 2.073 . S
H39 O36 0.980 . S
O40 Co32 2.073 . S
O40 C55 1.245 . S
O41 Co31 2.264 . S
O41 Co32 2.327 . S
O41 C55 1.257 . S
O42 Co32 1.976 . S
O42 C54 1.251 . S
O43 Co33 2.111 . S
O43 C54 1.274 . S
O44 Co33 2.143 . S
O44 C57 1.246 . S
O45 Co37 2.286 . S
O45 C56 1.259 . S
O46 Co37 2.069 . S
O46 C56 1.289 . S
O47 Co37 2.015 . S
O47 C57 1.257 . S
O48 Co33 2.111 . S
O48 C58 1.274 . S
O49 Co38 1.976 . S
O49 C58 1.251 . S
O50 Co37 2.264 . S
O50 Co38 2.327 . S
O50 C59 1.257 . S
O51 Co38 2.073 . S
O51 C59 1.245 . S
C52 O60 1.259 . S
C52 O61 1.289 . S
C53 O62 1.246 . S
C53 O63 1.257 . S
C54 O42 1.251 . S
C54 O43 1.274 . S
C55 O40 1.245 . S
C55 O41 1.257 . S
C56 O45 1.259 . S
C56 O46 1.289 . S
C57 O44 1.246 . S
C57 O47 1.257 . S
C58 O48 1.274 . S
C58 O49 1.251 . S
C59 O50 1.257 . S
C59 O51 1.245 . S
O60 Co31 2.286 . S
O60 C52 1.259 . S
O61 Co31 2.069 . S
O61 C52 1.289 . S
O62 Co33 2.143 . S
O62 C53 1.246 . S
O63 Co31 2.015 . S
O63 C53 1.257 . S
H64 C76 0.930 . S
H65 C78 0.930 . S
H66 C79 0.930 . S
H67 C83 0.959 . S
H68 C83 0.959 . S
H69 C83 0.961 . S
H70 C84 0.960 . S
H71 C84 0.961 . S
H72 C84 0.959 . S
H73 C87 0.929 . S
H74 C88 0.931 . S
H75 C90 0.930 . S
C76 H64 0.930 . S
C76 C77 1.399 . S
C76 C81 1.399 . S
C77 C76 1.399 . S
C77 C78 1.376 . S
C78 H65 0.930 . S
C78 C77 1.376 . S
C78 C79 1.388 . S
C79 H66 0.930 . S
C79 C78 1.388 . S
C79 C80 1.390 . S
C80 C79 1.390 . S
C80 C81 1.394 . S
C80 C86 1.465 . S
C81 C76 1.399 . S
C81 C80 1.394 . S
C81 C82 1.516 . S
C82 C81 1.516 . S
C82 C83 1.502 . S
C82 C84 1.561 . S
C82 C85 1.526 . S
C83 H67 0.959 . S
C83 H68 0.959 . S
C83 H69 0.961 . S
C83 C82 1.502 . S
C84 H70 0.960 . S
C84 H71 0.961 . S
C84 H72 0.959 . S
C84 C82 1.561 . S
C85 C82 1.526 . S
C85 C86 1.396 . S
C85 C90 1.390 . S
C86 C80 1.465 . S
C86 C85 1.396 . S
C86 C87 1.399 . S
C87 H73 0.929 . S
C87 C86 1.399 . S
C87 C88 1.385 . S
C88 H74 0.931 . S
C88 C87 1.385 . S
C88 C89 1.389 . S
C89 C88 1.389 . S
C89 C90 1.387 . S
C90 H75 0.930 . S
C90 C85 1.390 . S
C90 C89 1.387 . S
H91 C103 0.930 . S
H92 C105 0.930 . S
H93 C106 0.930 . S
H94 C110 0.959 . S
H95 C110 0.959 . S
H96 C110 0.961 . S
H97 C111 0.960 . S
H98 C111 0.961 . S
H99 C111 0.959 . S
H100 C114 0.929 . S
H101 C115 0.931 . S
H102 C117 0.930 . S
C103 H91 0.930 . S
C103 C104 1.399 . S
C103 C108 1.399 . S
C104 C103 1.399 . S
C104 C105 1.376 . S
C105 H92 0.930 . S
C105 C104 1.376 . S
C105 C106 1.388 . S
C106 H93 0.930 . S
C106 C105 1.388 . S
C106 C107 1.390 . S
C107 C106 1.390 . S
C107 C108 1.394 . S
C107 C113 1.465 . S
C108 C103 1.399 . S
C108 C107 1.394 . S
C108 C109 1.516 . S
C109 C108 1.516 . S
C109 C110 1.502 . S
C109 C111 1.561 . S
C109 C112 1.526 . S
C110 H94 0.959 . S
C110 H95 0.959 . S
C110 H96 0.961 . S
C110 C109 1.502 . S
C111 H97 0.960 . S
C111 H98 0.961 . S
C111 H99 0.959 . S
C111 C109 1.561 . S
C112 C109 1.526 . S
C112 C113 1.396 . S
C112 C117 1.390 . S
C113 C107 1.465 . S
C113 C112 1.396 . S
C113 C114 1.399 . S
C114 H100 0.929 . S
C114 C113 1.399 . S
C114 C115 1.385 . S
C115 H101 0.931 . S
C115 C114 1.385 . S
C115 C116 1.389 . S
C116 C115 1.389 . S
C116 C117 1.387 . S
C117 H102 0.930 . S
C117 C112 1.390 . S
C117 C116 1.387 . S
H118 C130 0.930 . S
H119 C132 0.930 . S
H120 C133 0.930 . S
H121 C137 0.959 . S
H122 C137 0.959 . S
H123 C137 0.961 . S
H124 C138 0.960 . S
H125 C138 0.961 . S
H126 C138 0.959 . S
H127 C141 0.929 . S
H128 C142 0.931 . S
H129 C144 0.930 . S
C130 H118 0.930 . S
C130 C131 1.399 . S
C130 C135 1.399 . S
C131 C130 1.399 . S
C131 C132 1.376 . S
C132 H119 0.930 . S
C132 C131 1.376 . S
C132 C133 1.388 . S
C133 H120 0.930 . S
C133 C132 1.388 . S
C133 C134 1.390 . S
C134 C133 1.390 . S
C134 C135 1.394 . S
C134 C140 1.465 . S
C135 C130 1.399 . S
C135 C134 1.394 . S
C135 C136 1.516 . S
C136 C135 1.516 . S
C136 C137 1.502 . S
C136 C138 1.561 . S
C136 C139 1.526 . S
C137 H121 0.959 . S
C137 H122 0.959 . S
C137 H123 0.961 . S
C137 C136 1.502 . S
C138 H124 0.960 . S
C138 H125 0.961 . S
C138 H126 0.959 . S
C138 C136 1.561 . S
C139 C136 1.526 . S
C139 C140 1.396 . S
C139 C144 1.390 . S
C140 C134 1.465 . S
C140 C139 1.396 . S
C140 C141 1.399 . S
C141 H127 0.929 . S
C141 C140 1.399 . S
C141 C142 1.385 . S
C142 H128 0.931 . S
C142 C141 1.385 . S
C142 C143 1.389 . S
C143 C142 1.389 . S
C143 C144 1.387 . S
C144 H129 0.930 . S
C144 C139 1.390 . S
C144 C143 1.387 . S
H145 C157 0.930 . S
H146 C159 0.930 . S
H147 C160 0.930 . S
H148 C164 0.959 . S
H149 C164 0.959 . S
H150 C164 0.961 . S
H151 C165 0.960 . S
H152 C165 0.961 . S
H153 C165 0.959 . S
H154 C168 0.929 . S
H155 C169 0.931 . S
H156 C171 0.930 . S
C157 H145 0.930 . S
C157 C158 1.399 . S
C157 C162 1.399 . S
C158 C157 1.399 . S
C158 C159 1.376 . S
C159 H146 0.930 . S
C159 C158 1.376 . S
C159 C160 1.388 . S
C160 H147 0.930 . S
C160 C159 1.388 . S
C160 C161 1.390 . S
C161 C160 1.390 . S
C161 C162 1.394 . S
C161 C167 1.465 . S
C162 C157 1.399 . S
C162 C161 1.394 . S
C162 C163 1.516 . S
C163 C162 1.516 . S
C163 C164 1.502 . S
C163 C165 1.561 . S
C163 C166 1.526 . S
C164 H148 0.959 . S
C164 H149 0.959 . S
C164 H150 0.961 . S
C164 C163 1.502 . S
C165 H151 0.960 . S
C165 H152 0.961 . S
C165 H153 0.959 . S
C165 C163 1.561 . S
C166 C163 1.526 . S
C166 C167 1.396 . S
C166 C171 1.390 . S
C167 C161 1.465 . S
C167 C166 1.396 . S
C167 C168 1.399 . S
C168 H154 0.929 . S
C168 C167 1.399 . S
C168 C169 1.385 . S
C169 H155 0.931 . S
C169 C168 1.385 . S
C169 C170 1.389 . S
C170 C169 1.389 . S
C170 C171 1.387 . S
C171 H156 0.930 . S
C171 C166 1.390 . S
C171 C170 1.387 . S
H172 C184 0.930 . S
H173 C186 0.930 . S
H174 C187 0.930 . S
H175 C191 0.959 . S
H176 C191 0.959 . S
H177 C191 0.961 . S
H178 C192 0.960 . S
H179 C192 0.961 . S
H180 C192 0.959 . S
H181 C195 0.929 . S
H182 C196 0.931 . S
H183 C198 0.930 . S
C184 H172 0.930 . S
C184 C185 1.399 . S
C184 C189 1.399 . S
C185 C184 1.399 . S
C185 C186 1.376 . S
C186 H173 0.930 . S
C186 C185 1.376 . S
C186 C187 1.388 . S
C187 H174 0.930 . S
C187 C186 1.388 . S
C187 C188 1.390 . S
C188 C187 1.390 . S
C188 C189 1.394 . S
C188 C194 1.465 . S
C189 C184 1.399 . S
C189 C188 1.394 . S
C189 C190 1.516 . S
C190 C189 1.516 . S
C190 C191 1.502 . S
C190 C192 1.561 . S
C190 C193 1.526 . S
C191 H175 0.959 . S
C191 H176 0.959 . S
C191 H177 0.961 . S
C191 C190 1.502 . S
C192 H178 0.960 . S
C192 H179 0.961 . S
C192 H180 0.959 . S
C192 C190 1.561 . S
C193 C190 1.526 . S
C193 C194 1.396 . S
C193 C198 1.390 . S
C194 C188 1.465 . S
C194 C193 1.396 . S
C194 C195 1.399 . S
C195 H181 0.929 . S
C195 C194 1.399 . S
C195 C196 1.385 . S
C196 H182 0.931 . S
C196 C195 1.385 . S
C196 C197 1.389 . S
C197 C196 1.389 . S
C197 C198 1.387 . S
C198 H183 0.930 . S
C198 C193 1.390 . S
C198 C197 1.387 . S
H199 C211 0.930 . S
H200 C213 0.930 . S
H201 C214 0.930 . S
H202 C218 0.959 . S
H203 C218 0.959 . S
H204 C218 0.961 . S
H205 C219 0.960 . S
H206 C219 0.961 . S
H207 C219 0.959 . S
H208 C222 0.929 . S
H209 C223 0.931 . S
H210 C225 0.930 . S
C211 H199 0.930 . S
C211 C212 1.399 . S
C211 C216 1.399 . S
C212 C211 1.399 . S
C212 C213 1.376 . S
C213 H200 0.930 . S
C213 C212 1.376 . S
C213 C214 1.388 . S
C214 H201 0.930 . S
C214 C213 1.388 . S
C214 C215 1.390 . S
C215 C214 1.390 . S
C215 C216 1.394 . S
C215 C221 1.465 . S
C216 C211 1.399 . S
C216 C215 1.394 . S
C216 C217 1.516 . S
C217 C216 1.516 . S
C217 C218 1.502 . S
C217 C219 1.561 . S
C217 C220 1.526 . S
C218 H202 0.959 . S
C218 H203 0.959 . S
C218 H204 0.961 . S
C218 C217 1.502 . S
C219 H205 0.960 . S
C219 H206 0.961 . S
C219 H207 0.959 . S
C219 C217 1.561 . S
C220 C217 1.526 . S
C220 C221 1.396 . S
C220 C225 1.390 . S
C221 C215 1.465 . S
C221 C220 1.396 . S
C221 C222 1.399 . S
C222 H208 0.929 . S
C222 C221 1.399 . S
C222 C223 1.385 . S
C223 H209 0.931 . S
C223 C222 1.385 . S
C223 C224 1.389 . S
C224 C223 1.389 . S
C224 C225 1.387 . S
C225 H210 0.930 . S
C225 C220 1.390 . S
C225 C224 1.387 . S
H226 C238 0.930 . S
H227 C240 0.930 . S
H228 C241 0.930 . S
H229 C245 0.959 . S
H230 C245 0.959 . S
H231 C245 0.961 . S
H232 C246 0.960 . S
H233 C246 0.961 . S
H234 C246 0.959 . S
H235 C249 0.929 . S
H236 C250 0.931 . S
H237 C252 0.930 . S
C238 H226 0.930 . S
C238 C239 1.399 . S
C238 C243 1.399 . S
C239 C238 1.399 . S
C239 C240 1.376 . S
C240 H227 0.930 . S
C240 C239 1.376 . S
C240 C241 1.388 . S
C241 H228 0.930 . S
C241 C240 1.388 . S
C241 C242 1.390 . S
C242 C241 1.390 . S
C242 C243 1.394 . S
C242 C248 1.465 . S
C243 C238 1.399 . S
C243 C242 1.394 . S
C243 C244 1.516 . S
C244 C243 1.516 . S
C244 C245 1.502 . S
C244 C246 1.561 . S
C244 C247 1.526 . S
C245 H229 0.959 . S
C245 H230 0.959 . S
C245 H231 0.961 . S
C245 C244 1.502 . S
C246 H232 0.960 . S
C246 H233 0.961 . S
C246 H234 0.959 . S
C246 C244 1.561 . S
C247 C244 1.526 . S
C247 C248 1.396 . S
C247 C252 1.390 . S
C248 C242 1.465 . S
C248 C247 1.396 . S
C248 C249 1.399 . S
C249 H235 0.929 . S
C249 C248 1.399 . S
C249 C250 1.385 . S
C250 H236 0.931 . S
C250 C249 1.385 . S
C250 C251 1.389 . S
C251 C250 1.389 . S
C251 C252 1.387 . S
C252 H237 0.930 . S
C252 C247 1.390 . S
C252 C251 1.387 . S
H253 C265 0.930 . S
H254 C267 0.930 . S
H255 C268 0.930 . S
H256 C272 0.959 . S
H257 C272 0.959 . S
H258 C272 0.961 . S
H259 C273 0.960 . S
H260 C273 0.961 . S
H261 C273 0.959 . S
H262 C276 0.929 . S
H263 C277 0.931 . S
H264 C279 0.930 . S
C265 H253 0.930 . S
C265 C266 1.399 . S
C265 C270 1.399 . S
C266 C265 1.399 . S
C266 C267 1.376 . S
C267 H254 0.930 . S
C267 C266 1.376 . S
C267 C268 1.388 . S
C268 H255 0.930 . S
C268 C267 1.388 . S
C268 C269 1.390 . S
C269 C268 1.390 . S
C269 C270 1.394 . S
C269 C275 1.465 . S
C270 C265 1.399 . S
C270 C269 1.394 . S
C270 C271 1.516 . S
C271 C270 1.516 . S
C271 C272 1.502 . S
C271 C273 1.561 . S
C271 C274 1.526 . S
C272 H256 0.959 . S
C272 H257 0.959 . S
C272 H258 0.961 . S
C272 C271 1.502 . S
C273 H259 0.960 . S
C273 H260 0.961 . S
C273 H261 0.959 . S
C273 C271 1.561 . S
C274 C271 1.526 . S
C274 C275 1.396 . S
C274 C279 1.390 . S
C275 C269 1.465 . S
C275 C274 1.396 . S
C275 C276 1.399 . S
C276 H262 0.929 . S
C276 C275 1.399 . S
C276 C277 1.385 . S
C277 H263 0.931 . S
C277 C276 1.385 . S
C277 C278 1.389 . S
C278 C277 1.389 . S
C278 C279 1.387 . S
C279 H264 0.930 . S
C279 C274 1.390 . S
C279 C278 1.387 . S
C77 C10 1.157 . S
C89 C53 1.214 . S
C104 C0 1.667 . S
C116 C52 1.693 . S
C131 C18 1.460 . S
C143 C58 1.441 . S
C158 C27 1.558 . S
C170 C59 1.517 . S
C185 C24 1.591 . S
C197 C56 1.687 . S
C224 C54 1.507 . S
C212 C11 1.534 . S
C239 C1 1.550 . S
C251 C55 1.513 . S
C278 C57 1.201 . S
C266 C2 1.108 . S
