# Generated by pormake.
# Topology pyr, (3,6)-cn, num edge types: 1
# Building blocks:
#     Node 0, Type 0, BuildingBlock: OLANEW_clean_sbu_2, # of connection points: 3
#     Node 1, Type 0, BuildingBlock: OLANEW_clean_sbu_2, # of connection points: 3
#     Node 2, Type 0, BuildingBlock: OLANEW_clean_sbu_2, # of connection points: 3
#     Node 3, Type 0, BuildingBlock: OLANEW_clean_sbu_2, # of connection points: 3
#     Node 4, Type 0, BuildingBlock: OLANEW_clean_sbu_2, # of connection points: 3
#     Node 5, Type 0, BuildingBlock: OLANEW_clean_sbu_2, # of connection points: 3
#     Node 6, Type 0, BuildingBlock: OLANEW_clean_sbu_2, # of connection points: 3
#     Node 7, Type 0, BuildingBlock: OLANEW_clean_sbu_2, # of connection points: 3
#     Node 8, Type 1, BuildingBlock: BETFAJ_clean_sbu_0, # of connection points: 6
#     Node 9, Type 1, BuildingBlock: BETFAJ_clean_sbu_0, # of connection points: 6
#     Node 10, Type 1, BuildingBlock: BETFAJ_clean_sbu_0, # of connection points: 6
#     Node 11, Type 1, BuildingBlock: BETFAJ_clean_sbu_0, # of connection points: 6
#     Edge 12, Type (0, 1), BuildingBlock: UVAHIK_clean_linker_0, # of connection points: 2
#     Edge 13, Type (0, 1), BuildingBlock: UVAHIK_clean_linker_0, # of connection points: 2
#     Edge 14, Type (0, 1), BuildingBlock: UVAHIK_clean_linker_0, # of connection points: 2
#     Edge 15, Type (0, 1), BuildingBlock: UVAHIK_clean_linker_0, # of connection points: 2
#     Edge 16, Type (0, 1), BuildingBlock: UVAHIK_clean_linker_0, # of connection points: 2
#     Edge 17, Type (0, 1), BuildingBlock: UVAHIK_clean_linker_0, # of connection points: 2
#     Edge 18, Type (0, 1), BuildingBlock: UVAHIK_clean_linker_0, # of connection points: 2
#     Edge 19, Type (0, 1), BuildingBlock: UVAHIK_clean_linker_0, # of connection points: 2
#     Edge 20, Type (0, 1), BuildingBlock: UVAHIK_clean_linker_0, # of connection points: 2
#     Edge 21, Type (0, 1), BuildingBlock: UVAHIK_clean_linker_0, # of connection points: 2
#     Edge 22, Type (0, 1), BuildingBlock: UVAHIK_clean_linker_0, # of connection points: 2
#     Edge 23, Type (0, 1), BuildingBlock: UVAHIK_clean_linker_0, # of connection points: 2
#     Edge 24, Type (0, 1), BuildingBlock: UVAHIK_clean_linker_0, # of connection points: 2
#     Edge 25, Type (0, 1), BuildingBlock: UVAHIK_clean_linker_0, # of connection points: 2
#     Edge 26, Type (0, 1), BuildingBlock: UVAHIK_clean_linker_0, # of connection points: 2
#     Edge 27, Type (0, 1), BuildingBlock: UVAHIK_clean_linker_0, # of connection points: 2
#     Edge 28, Type (0, 1), BuildingBlock: UVAHIK_clean_linker_0, # of connection points: 2
#     Edge 29, Type (0, 1), BuildingBlock: UVAHIK_clean_linker_0, # of connection points: 2
#     Edge 30, Type (0, 1), BuildingBlock: UVAHIK_clean_linker_0, # of connection points: 2
#     Edge 31, Type (0, 1), BuildingBlock: UVAHIK_clean_linker_0, # of connection points: 2
#     Edge 32, Type (0, 1), BuildingBlock: UVAHIK_clean_linker_0, # of connection points: 2
#     Edge 33, Type (0, 1), BuildingBlock: UVAHIK_clean_linker_0, # of connection points: 2
#     Edge 34, Type (0, 1), BuildingBlock: UVAHIK_clean_linker_0, # of connection points: 2
#     Edge 35, Type (0, 1), BuildingBlock: UVAHIK_clean_linker_0, # of connection points: 2
# Relax obj value: 0.096
# Max RMSD: 0.162
# Mean RMSD: 0.119
data_MOF--net-pyr--node1-OLANEW_clean_sbu_2--node2-BETFAJ_clean_sbu_0--edge1-UVAHIK_clean_linker_0
_symmetry_space_group_name_H-M    P1
_symmetry_Int_Tables_number       1
_symmetry_cell_setting            triclinic
loop_
_symmetry_equiv_pos_as_xyz
'x, y, z'
_cell_length_a     51.644559
_cell_length_b     56.094514
_cell_length_c     49.37997
_cell_angle_alpha  95.168834
_cell_angle_beta   88.235565
_cell_angle_gamma 102.25735
loop_
_atom_site_label
_atom_site_type_symbol
_atom_site_fract_x
_atom_site_fract_y
_atom_site_fract_z
_atom_type_partial_charge
O0 O 0.36396 0.28256 0.17378 0.0
Cd1 Cd 0.35412 0.32295 0.18731 0.0
O2 O 0.34141 0.26863 0.20934 0.0
Cd3 Cd 0.3224 0.24114 0.23647 0.0
O4 O 0.29536 0.21812 0.26304 0.0
C5 C 0.29335 0.22516 0.28806 0.0
O6 O 0.3084 0.24593 0.29771 0.0
C7 C 0.35594 0.26509 0.18873 0.0
C8 C 0.31015 0.33475 0.16425 0.0
O9 O 0.33291 0.33876 0.1524 0.0
O10 O 0.30796 0.32438 0.18656 0.0
O11 O 0.3183 0.88889 0.67461 0.0
Cd12 Cd 0.29779 0.88342 0.62968 0.0
O13 O 0.29822 0.85317 0.68815 0.0
Cd14 Cd 0.27041 0.84723 0.65499 0.0
O15 O 0.23897 0.85648 0.6325 0.0
C16 C 0.22481 0.86889 0.64678 0.0
O17 O 0.22983 0.874 0.67284 0.0
C18 C 0.31523 0.87313 0.69211 0.0
C19 C 0.31981 0.84932 0.59726 0.0
O20 O 0.29788 0.84291 0.61011 0.0
O21 O 0.33091 0.87211 0.59884 0.0
O22 O 0.69611 0.39414 0.86981 0.0
Cd23 Cd 0.65325 0.38021 0.84548 0.0
O24 O 0.6967 0.36446 0.89685 0.0
Cd25 Cd 0.66006 0.33535 0.89393 0.0
O26 O 0.63437 0.30126 0.90777 0.0
C27 C 0.64555 0.28531 0.91658 0.0
O28 O 0.67157 0.28948 0.91638 0.0
C29 C 0.70757 0.38482 0.88757 0.0
C30 C 0.64133 0.40835 0.80413 0.0
O31 O 0.63507 0.41291 0.8291 0.0
O32 O 0.65396 0.3911 0.79867 0.0
O33 O 0.8947 0.72401 0.37104 0.0
Cd34 Cd 0.87091 0.68324 0.35285 0.0
O35 O 0.89912 0.71095 0.411 0.0
Cd36 Cd 0.87327 0.67508 0.40221 0.0
O37 O 0.83445 0.65353 0.41268 0.0
C38 C 0.81681 0.66612 0.41754 0.0
O39 O 0.82305 0.68969 0.41446 0.0
C40 C 0.90341 0.72812 0.39523 0.0
C41 C 0.89341 0.66177 0.3071 0.0
O42 O 0.87672 0.67539 0.30462 0.0
O43 O 0.9 0.65883 0.3312 0.0
O44 O 0.71923 0.75494 0.78817 0.0
Cd45 Cd 0.69111 0.72441 0.81446 0.0
O46 O 0.70455 0.78388 0.81261 0.0
Cd47 Cd 0.69861 0.82047 0.82703 0.0
O48 O 0.68306 0.85028 0.84875 0.0
C49 C 0.65802 0.84776 0.85027 0.0
O50 O 0.64309 0.82802 0.83813 0.0
C51 C 0.71989 0.77761 0.79389 0.0
C52 C 0.72355 0.70299 0.84443 0.0
O53 O 0.71518 0.69327 0.82097 0.0
O54 O 0.71607 0.7225 0.85392 0.0
O55 O 0.69827 0.16339 0.47281 0.0
Cd56 Cd 0.71366 0.17691 0.51891 0.0
O57 O 0.73405 0.18506 0.45463 0.0
Cd58 Cd 0.74252 0.20917 0.49186 0.0
O59 O 0.73303 0.24187 0.51361 0.0
C60 C 0.71007 0.24011 0.52428 0.0
O61 O 0.69412 0.21846 0.52378 0.0
C62 C 0.71268 0.16893 0.45201 0.0
C63 C 0.7539 0.15294 0.52893 0.0
O64 O 0.72966 0.14361 0.53449 0.0
O65 O 0.75915 0.17392 0.51932 0.0
O66 O 0.40671 0.76116 0.23444 0.0
Cd67 Cd 0.38966 0.72007 0.25175 0.0
O68 O 0.37287 0.75905 0.2071 0.0
Cd69 Cd 0.34734 0.72237 0.20976 0.0
O70 O 0.31254 0.6942 0.19514 0.0
C71 C 0.3088 0.69088 0.16957 0.0
O72 O 0.32621 0.70353 0.15351 0.0
C73 C 0.39477 0.77078 0.21737 0.0
C74 C 0.41418 0.70296 0.29483 0.0
O75 O 0.4211 0.69897 0.26994 0.0
O76 O 0.39667 0.716 0.2996 0.0
O77 O 0.17358 0.41026 0.75229 0.0
Cd78 Cd 0.19389 0.38709 0.71613 0.0
O79 O 0.14403 0.37749 0.76187 0.0
Cd80 Cd 0.15489 0.35163 0.7299 0.0
O81 O 0.14999 0.31729 0.70383 0.0
C82 C 0.14877 0.29753 0.71502 0.0
O83 O 0.15182 0.29868 0.74147 0.0
C84 C 0.15412 0.40018 0.76667 0.0
C85 C 0.23755 0.41471 0.69003 0.0
O86 O 0.21421 0.41126 0.68024 0.0
O87 O 0.24018 0.40544 0.71232 0.0
Sm88 Sm 0.01032 0.02572 0.52741 0.0
Sm89 Sm 0.00468 1.00716 0.58318 0.0
C90 C 0.01272 0.0506 0.48398 0.0
C91 C 0.0337 0.06799 0.47112 0.0
C92 C 0.03022 0.07428 0.44489 0.0
C93 C 0.05113 0.08883 0.43141 0.0
C94 C 0.07588 0.09723 0.44397 0.0
C95 C 0.07898 0.09143 0.47066 0.0
C96 C 0.05806 0.07688 0.4841 0.0
C97 C 0.0497 1.00251 0.54026 0.0
C98 C 0.03789 0.0617 0.57982 0.0
C99 C 1.00076 0.98209 0.6266 0.0
C100 C 0.97871 0.96693 0.64111 0.0
C101 C 0.97963 0.94273 0.64538 0.0
C102 C 0.95839 0.92783 0.65806 0.0
C103 C 0.93592 0.93693 0.6669 0.0
C104 C 0.93518 0.96126 0.66291 0.0
C105 C 0.95628 0.97608 0.65003 0.0
C106 C 0.96513 0.03032 0.57087 0.0
C107 C 0.98063 0.97048 0.5298 0.0
O108 O 0.00405 0.05813 0.50772 0.0
O109 O 0.01656 0.02826 0.48309 0.0
O110 O 0.0399 0.01718 0.55595 0.0
O111 O 0.04035 1.001 0.516 0.0
O112 O 0.02634 0.06045 0.55606 0.0
O113 O 0.03668 0.04183 0.59263 0.0
O114 O 0.00671 0.97316 0.60238 0.0
O115 O 1.00141 1.00558 0.62785 0.0
O116 O 0.97455 0.01564 0.55464 0.0
O117 O 0.975 0.03164 0.59482 0.0
O118 O 0.99203 0.97234 0.5537 0.0
O119 O 0.98002 0.99017 0.51737 0.0
H120 H 0.01153 0.06749 0.43459 0.0
H121 H 0.04801 0.09326 0.41103 0.0
H122 H 0.09784 0.09736 0.48079 0.0
H123 H 0.06111 0.07198 0.50432 0.0
H124 H 0.99669 0.93529 0.63867 0.0
H125 H 0.95961 0.90921 0.66109 0.0
H126 H 0.918 0.96868 0.6692 0.0
H127 H 0.95484 0.99459 0.6468 0.0
Sm128 Sm 0.53137 0.04448 0.08306 0.0
Sm129 Sm 0.48023 0.02324 0.0576 0.0
C130 C 0.57456 0.07238 0.10569 0.0
C131 C 0.58522 0.079 0.13314 0.0
C132 C 0.60432 0.10059 0.13836 0.0
C133 C 0.61519 0.1068 0.16424 0.0
C134 C 0.60716 0.09143 0.18531 0.0
C135 C 0.58771 0.0699 0.17998 0.0
C136 C 0.57677 0.06378 0.15413 0.0
C137 C 0.50639 1.00136 0.10449 0.0
C138 C 0.47789 0.0632 0.10616 0.0
C139 C 0.43784 0.99436 0.03467 0.0
C140 C 0.43211 0.98129 1.0078 0.0
C141 C 0.40716 0.96624 1.00264 0.0
C142 C 0.40136 0.95428 0.9768 0.0
C143 C 0.42047 0.95727 0.95575 0.0
C144 C 0.44563 0.97214 0.96121 0.0
C145 C 0.45141 0.98404 0.98706 0.0
C146 C 0.5059 0.06651 0.03687 0.0
C147 C 0.53335 1.00704 0.031 0.0
O148 O 0.55374 0.08079 0.10024 0.0
O149 O 0.57292 0.04963 0.09623 0.0
O150 O 0.49496 0.01809 0.09888 0.0
O151 O 0.53165 1.00787 0.10051 0.0
O152 O 0.50373 0.06941 0.1019 0.0
O153 O 0.46413 0.04241 0.09496 0.0
O154 O 0.45433 0.98643 0.04936 0.0
O155 O 0.44253 0.01822 0.03538 0.0
O156 O 0.51673 0.04932 0.04201 0.0
O157 O 0.48059 0.06077 0.04137 0.0
O158 O 0.50778 0.99992 0.03585 0.0
O159 O 0.54689 0.02734 0.0436 0.0
H160 H 0.61091 0.1126 0.12237 0.0
H161 H 0.62976 0.12372 0.16777 0.0
H162 H 0.58129 0.05752 0.19564 0.0
H163 H 0.56193 0.04704 0.15043 0.0
H164 H 0.39207 0.96398 0.01849 0.0
H165 H 0.38171 0.94319 0.97312 0.0
H166 H 0.46083 0.97456 0.94549 0.0
H167 H 0.47085 0.99555 0.99082 0.0
Sm168 Sm 0.52704 0.53172 0.52795 0.0
Sm169 Sm 0.51599 0.57034 0.57063 0.0
C170 C 0.54917 0.50031 0.49711 0.0
C171 C 0.56089 0.4797 0.50278 0.0
C172 C 0.57846 0.47129 0.48398 0.0
C173 C 0.59095 0.45265 0.49004 0.0
C174 C 0.5861 0.44222 0.51506 0.0
C175 C 0.56831 0.45068 0.53379 0.0
C176 C 0.55583 0.46928 0.52769 0.0
C177 C 0.47726 0.52144 0.551 0.0
C178 C 0.54308 0.52941 0.59264 0.0
C179 C 0.49343 0.60156 0.60114 0.0
C180 C 0.4821 0.62226 0.59496 0.0
C181 C 0.48911 0.63358 0.57079 0.0
C182 C 0.47692 0.65216 0.56401 0.0
C183 C 0.45741 0.65961 0.58124 0.0
C184 C 0.45063 0.64833 0.60555 0.0
C185 C 0.46288 0.62978 0.61233 0.0
C186 C 0.56588 0.58031 0.54809 0.0
C187 C 0.50143 0.57369 0.50576 0.0
O188 O 0.56224 0.52184 0.50671 0.0
O189 O 0.52354 0.49739 0.50095 0.0
O190 O 0.49847 0.53019 0.56358 0.0
O191 O 0.48183 0.51696 0.52522 0.0
O192 O 0.54752 0.52341 0.56658 0.0
O193 O 0.52824 0.54543 0.60002 0.0
O194 O 0.48044 0.58006 0.5913 0.0
O195 O 0.51914 0.60437 0.59804 0.0
O196 O 0.54475 0.57174 0.53532 0.0
O197 O 0.56111 0.58527 0.57374 0.0
O198 O 0.4966 0.57952 0.53177 0.0
O199 O 0.51574 0.5572 0.49854 0.0
H200 H 0.58267 0.47927 0.46473 0.0
H201 H 0.60429 0.44631 0.47507 0.0
H202 H 0.56442 0.44326 0.55336 0.0
H203 H 0.54248 0.47575 0.54257 0.0
H204 H 0.50372 0.62779 0.55696 0.0
H205 H 0.48233 0.66031 0.54502 0.0
H206 H 0.43589 0.65391 0.61937 0.0
H207 H 0.45714 0.6211 0.63097 0.0
Sm208 Sm 0.01608 0.5047 0.03572 0.0
Sm209 Sm 0.00721 0.5547 0.0224 0.0
C210 C 0.03488 0.46459 0.03895 0.0
C211 C 0.05741 0.45613 0.04972 0.0
C212 C 0.071 0.44167 0.03234 0.0
C213 C 0.09191 0.4327 0.04199 0.0
C214 C 0.09961 0.4379 0.06931 0.0
C215 C 0.08607 0.45255 0.0867 0.0
C216 C 0.06521 0.46167 0.07698 0.0
C217 C 0.99073 0.52872 0.07581 0.0
C218 C 0.06244 0.55488 0.05139 0.0
C219 C 0.98792 0.59435 0.01883 0.0
C220 C 0.96636 0.60157 1.00487 0.0
C221 C 0.95027 0.6154 0.0197 0.0
C222 C 0.92965 0.6225 1.00705 0.0
C223 C 0.92479 0.61605 0.97918 0.0
C224 C 0.94087 0.60197 0.9644 0.0
C225 C 0.96138 0.59471 0.97715 0.0
C226 C 0.03354 0.53142 0.98275 0.0
C227 C 0.96054 0.50471 1.00674 0.0
O228 O 0.04003 0.47826 0.01852 0.0
O229 O 0.01771 0.4715 0.05637 0.0
O230 O 0.01011 0.53831 0.06158 0.0
O231 O 0.98474 0.50511 0.07025 0.0
O232 O 0.05691 0.53076 0.04589 0.0
O233 O 0.04486 0.56819 0.04741 0.0
O234 O 0.98067 0.57938 0.03784 0.0
O235 O 0.00777 0.58934 1.00382 0.0
O236 O 0.01384 0.52135 0.99639 0.0
O237 O 0.03899 0.555 0.98852 0.0
O238 O 0.96683 0.52889 0.01099 0.0
O239 O 0.97728 0.49097 0.01217 0.0
H240 H 0.06526 0.43709 0.01128 0.0
H241 H 0.1017 0.42124 0.02815 0.0
H242 H 0.09173 0.45711 0.10778 0.0
H243 H 0.05516 0.47292 0.0908 0.0
H244 H 0.95364 0.62068 0.04117 0.0
H245 H 0.91737 0.6329 0.01921 0.0
H246 H 0.93791 0.59689 0.94287 0.0
H247 H 0.97341 0.58385 0.96529 0.0
C248 C 0.25567 0.18976 0.29484 0.0
C249 C 0.27313 0.21099 0.30565 0.0
C250 C 0.23561 0.17716 0.31103 0.0
C251 C 0.19594 0.18609 0.37303 0.0
H252 H 0.17652 0.11516 0.36582 0.0
C253 C 0.11653 0.13093 0.44176 0.0
C254 C 0.09875 0.11094 0.42884 0.0
C255 C 0.13853 0.14319 0.42765 0.0
C256 C 0.18156 0.13498 0.36789 0.0
H257 H 0.28363 0.23525 0.3422 0.0
H258 H 0.24882 0.21307 0.37053 0.0
H259 H 0.21414 0.13607 0.33987 0.0
H260 H 0.0903 0.08806 0.39102 0.0
H261 H 0.12833 0.10971 0.3663 0.0
H262 H 0.16324 0.18497 0.40094 0.0
C263 C 0.25038 0.20641 0.3494 0.0
C264 C 0.20312 0.14696 0.35303 0.0
C265 C 0.27043 0.21903 0.33319 0.0
C266 C 0.10341 0.10358 0.40148 0.0
C267 C 0.12541 0.11578 0.38741 0.0
C268 C 0.17438 0.17409 0.38792 0.0
C269 C 0.23257 0.18546 0.33844 0.0
C270 C 0.21044 0.17266 0.35524 0.0
C271 C 0.1433 0.13565 0.40035 0.0
C272 C 0.1668 0.14841 0.38533 0.0
H273 H 0.25715 0.18308 0.27369 0.0
H274 H 0.22205 0.16126 0.30185 0.0
H275 H 0.20081 0.20591 0.37492 0.0
H276 H 0.11339 0.13716 0.46277 0.0
H277 H 0.15204 0.15833 0.43825 0.0
C278 C 0.34837 0.90104 0.72287 0.0
C279 C 0.33043 0.87855 0.71765 0.0
C280 C 0.3611 0.90695 0.74788 0.0
C281 C 0.35188 0.89283 0.81896 0.0
H282 H 0.42461 0.92875 0.82635 0.0
C283 C 0.39916 0.92146 0.92408 0.0
C284 C 0.41378 0.94564 0.92798 0.0
C285 C 0.39148 0.91107 0.89802 0.0
C286 C 0.40423 0.91884 0.8246 0.0
H287 H 0.31266 0.84419 0.73423 0.0
H288 H 0.33502 0.85449 0.77778 0.0
H289 H 0.40683 0.9144 0.78112 0.0
H290 H 0.4321 0.97778 0.9076 0.0
H291 H 0.41854 0.95975 0.86218 0.0
H292 H 0.34897 0.89773 0.86227 0.0
C293 C 0.33893 0.86768 0.76265 0.0
C294 C 0.39407 0.91061 0.79872 0.0
C295 C 0.32621 0.86175 0.73764 0.0
C296 C 0.42113 0.959 0.90521 0.0
C297 C 0.41339 0.94865 0.87917 0.0
C298 C 0.362 0.90108 0.84479 0.0
C299 C 0.35616 0.8905 0.76821 0.0
C300 C 0.36769 0.89774 0.79563 0.0
C301 C 0.39819 0.92467 0.87531 0.0
C302 C 0.38819 0.91442 0.84791 0.0
H303 H 0.3521 0.91439 0.7079 0.0
H304 H 0.37407 0.92478 0.75163 0.0
H305 H 0.33135 0.88332 0.81725 0.0
H306 H 0.39357 0.91059 0.9412 0.0
H307 H 0.38016 0.89242 0.89567 0.0
C308 C 0.63938 0.41613 0.75471 0.0
C309 C 0.63333 0.42193 0.78219 0.0
C310 C 0.63077 0.4281 0.73401 0.0
C311 C 0.60538 0.48376 0.72153 0.0
H312 H 0.57996 0.44617 0.65429 0.0
C313 C 0.54965 0.52325 0.64175 0.0
C314 C 0.5544 0.51742 0.61396 0.0
C315 C 0.56002 0.51189 0.66184 0.0
C316 C 0.58729 0.45708 0.67276 0.0
H317 H 0.61356 0.44519 0.80926 0.0
H318 H 0.59844 0.46588 0.77332 0.0
H319 H 0.59676 0.42619 0.6898 0.0
H320 H 0.57407 0.49493 0.58574 0.0
H321 H 0.59224 0.47528 0.62069 0.0
H322 H 0.59582 0.51461 0.70455 0.0
C323 C 0.61012 0.45226 0.76769 0.0
C324 C 0.59698 0.44557 0.69322 0.0
C325 C 0.61871 0.44027 0.78838 0.0
C326 C 0.56987 0.49988 0.60688 0.0
C327 C 0.58021 0.48847 0.62699 0.0
C328 C 0.5957 0.49525 0.70109 0.0
C329 C 0.61587 0.44628 0.74015 0.0
C330 C 0.60607 0.4587 0.718 0.0
C331 C 0.57546 0.4943 0.65481 0.0
C332 C 0.58637 0.48208 0.67641 0.0
H333 H 0.65061 0.40214 0.74911 0.0
H334 H 0.63596 0.42318 0.71315 0.0
H335 H 0.61262 0.49466 0.74004 0.0
H336 H 0.53777 0.53656 0.64808 0.0
H337 H 0.55553 0.51665 0.68294 0.0
C338 C 0.92236 0.6343 0.28582 0.0
C339 C 0.904 0.64912 0.2829 0.0
C340 C 0.9314 0.62146 0.26311 0.0
C341 C 0.93691 0.61946 0.18787 0.0
H342 H 0.94617 0.55335 0.19403 0.0
C343 C 0.95899 0.53029 0.1151 0.0
C344 C 0.97935 0.5423 0.09858 0.0
C345 C 0.94899 0.54323 0.13717 0.0
C346 C 0.94345 0.5717 0.19186 0.0
H347 H 0.88089 0.66219 0.25373 0.0
H348 H 0.8964 0.63964 0.21423 0.0
H349 H 0.93038 0.57612 0.23322 0.0
H350 H 0.00508 0.57727 0.09199 0.0
H351 H 0.98792 0.59974 0.1305 0.0
H352 H 0.94948 0.61487 0.14638 0.0
C353 C 0.90412 0.63816 0.23401 0.0
C354 C 0.93473 0.5849 0.21447 0.0
C355 C 0.89512 0.65103 0.25671 0.0
C356 C 0.98931 0.56751 0.10432 0.0
C357 C 0.97935 0.58043 0.12633 0.0
C358 C 0.94561 0.60626 0.16527 0.0
C359 C 0.92226 0.62308 0.23692 0.0
C360 C 0.93143 0.60898 0.2128 0.0
C361 C 0.95914 0.56846 0.14313 0.0
C362 C 0.94909 0.58224 0.16699 0.0
H363 H 0.92967 0.63246 0.30568 0.0
H364 H 0.94569 0.61035 0.26608 0.0
H365 H 0.93483 0.63803 0.18588 0.0
H366 H 0.95088 0.51088 0.11107 0.0
H367 H 0.93318 0.53349 0.14945 0.0
C368 C 0.36979 0.23369 0.15544 0.0
C369 C 0.36423 0.24148 0.18242 0.0
C370 C 0.37975 0.21246 0.14953 0.0
C371 C 0.41772 0.17349 0.18015 0.0
H372 H 0.39437 0.12834 0.11726 0.0
C373 C 0.47783 0.1041 0.13142 0.0
C374 C 0.46379 0.08101 0.12088 0.0
C375 C 0.46432 0.12209 0.14197 0.0
C376 C 0.40093 0.1406 0.13508 0.0
H377 H 0.36555 0.23349 0.22443 0.0
H378 H 0.38244 0.19619 0.21411 0.0
H379 H 0.37239 0.16231 0.12934 0.0
H380 H 0.42444 0.05838 0.11441 0.0
H381 H 0.40097 0.08971 0.13293 0.0
H382 H 0.44643 0.15186 0.18574 0.0
C383 C 0.37891 0.2064 0.1975 0.0
C384 C 0.38851 0.16022 0.14182 0.0
C385 C 0.36876 0.22755 0.20337 0.0
C386 C 0.43593 0.07598 0.12225 0.0
C387 C 0.42244 0.094 0.13269 0.0
C388 C 0.43027 0.15394 0.1733 0.0
C389 C 0.38472 0.19871 0.17052 0.0
C390 C 0.3969 0.17703 0.16429 0.0
C391 C 0.43646 0.11744 0.14213 0.0
C392 C 0.42216 0.13737 0.15055 0.0
H393 H 0.36673 0.24419 0.13889 0.0
H394 H 0.38434 0.20724 0.12857 0.0
H395 H 0.42482 0.18623 0.19745 0.0
H396 H 0.49929 0.10861 0.13068 0.0
H397 H 0.47573 0.14 0.14892 0.0
C398 C 0.18929 0.89305 0.65033 0.0
C399 C 0.2041 0.8787 0.63424 0.0
C400 C 0.17076 0.90359 0.63851 0.0
C401 C 0.15476 0.92379 0.57354 0.0
H402 H 0.08909 0.9296 0.61122 0.0
C403 C 0.07693 0.97079 0.5305 0.0
C404 C 0.06703 0.98712 0.5492 0.0
C405 C 0.09255 0.95556 0.53938 0.0
C406 C 0.10741 0.92819 0.60053 0.0
H407 H 0.21062 0.86363 0.59319 0.0
H408 H 0.17794 0.88192 0.57253 0.0
H409 H 0.11772 0.90559 0.62932 0.0
H410 H 0.0656 1.00048 0.5917 0.0
H411 H 0.09289 0.97399 0.60718 0.0
H412 H 0.14449 0.94666 0.5449 0.0
C413 C 0.18097 0.88524 0.59426 0.0
C414 C 0.1238 0.91447 0.61089 0.0
C415 C 0.19956 0.87467 0.60612 0.0
C416 C 0.07303 0.98807 0.57685 0.0
C417 C 0.08845 0.97277 0.58573 0.0
C418 C 0.13829 0.93746 0.56311 0.0
C419 C 0.16653 0.89999 0.61032 0.0
C420 C 0.14791 0.9125 0.59781 0.0
C421 C 0.09829 0.95629 0.56712 0.0
C422 C 0.11471 0.94018 0.57681 0.0
H423 H 0.19232 0.89656 0.67205 0.0
H424 H 0.16027 0.91516 0.65141 0.0
H425 H 0.17334 0.92285 0.56315 0.0
H426 H 0.07246 0.96967 0.50908 0.0
H427 H 0.09977 0.94293 0.52463 0.0
C428 C 0.74916 0.38548 0.9131 0.0
C429 C 0.73411 0.39779 0.89812 0.0
C430 C 0.77383 0.39748 0.92363 0.0
C431 C 0.81353 0.45852 0.94534 0.0
H432 H 0.87242 0.42542 0.93984 0.0
C433 C 0.91872 0.50699 0.983 0.0
C434 C 0.93447 0.4929 0.99434 0.0
C435 C 0.89454 0.49584 0.97066 0.0
C436 C 0.85615 0.43487 0.942 0.0
H437 H 0.7335 0.43262 0.88259 0.0
H438 H 0.77654 0.45369 0.90133 0.0
H439 H 0.8302 0.40541 0.91936 0.0
H440 H 0.93671 0.45593 1.00192 0.0
H441 H 0.89437 0.4366 0.98127 0.0
H442 H 0.83915 0.48774 0.96855 0.0
C443 C 0.76912 0.43465 0.90484 0.0
C444 C 0.8319 0.42338 0.93008 0.0
C445 C 0.74451 0.42252 0.89396 0.0
C446 C 0.92523 0.46738 0.99326 0.0
C447 C 0.90094 0.45625 0.98117 0.0
C448 C 0.83772 0.46994 0.95753 0.0
C449 C 0.78411 0.42225 0.9198 0.0
C450 C 0.81022 0.43499 0.93167 0.0
C451 C 0.88524 0.47027 0.9695 0.0
C452 C 0.85942 0.45826 0.95616 0.0
H453 H 0.7419 0.36645 0.91673 0.0
H454 H 0.78466 0.38743 0.93527 0.0
H455 H 0.79716 0.46788 0.94724 0.0
H456 H 0.92523 0.52668 0.98325 0.0
H457 H 0.8834 0.50733 0.96159 0.0
C458 C 0.78411 0.63049 0.43446 0.0
C459 C 0.79046 0.65517 0.42871 0.0
C460 C 0.75987 0.62089 0.4469 0.0
C461 C 0.70758 0.64062 0.49018 0.0
H462 H 0.66549 0.57639 0.46776 0.0
C463 C 0.61458 0.59765 0.55036 0.0
C464 C 0.59216 0.58667 0.53491 0.0
C465 C 0.63929 0.60448 0.53769 0.0
C466 C 0.677 0.5944 0.47419 0.0
H467 H 0.77593 0.68888 0.4307 0.0
H468 H 0.73377 0.67212 0.45211 0.0
H469 H 0.70726 0.59147 0.4441 0.0
H470 H 0.57797 0.57374 0.49423 0.0
H471 H 0.62109 0.58579 0.47206 0.0
H472 H 0.67721 0.64383 0.51986 0.0
C473 C 0.74766 0.66028 0.44744 0.0
C474 C 0.70102 0.60293 0.4608 0.0
C475 C 0.77178 0.66983 0.43499 0.0
C476 C 0.59496 0.58218 0.50664 0.0
C477 C 0.61968 0.58895 0.49397 0.0
C478 C 0.68368 0.63207 0.5036 0.0
C479 C 0.74156 0.63581 0.45391 0.0
C480 C 0.71644 0.62624 0.4685 0.0
C481 C 0.64208 0.60041 0.50932 0.0
C482 C 0.66802 0.60893 0.49566 0.0
H483 H 0.79808 0.61871 0.42988 0.0
H484 H 0.75578 0.60199 0.45174 0.0
H485 H 0.71918 0.65852 0.49684 0.0
H486 H 0.61298 0.60118 0.57221 0.0
H487 H 0.65624 0.61298 0.55011 0.0
C488 C 0.29006 0.35413 0.1286 0.0
C489 C 0.28747 0.34305 0.15325 0.0
C490 C 0.26938 0.36362 0.11921 0.0
C491 C 0.19732 0.36218 0.12788 0.0
H492 H 0.21579 0.42442 0.09611 0.0
C493 C 0.11895 0.41745 0.10473 0.0
C494 C 0.12143 0.42773 0.07959 0.0
C495 C 0.13907 0.40702 0.11385 0.0
C496 C 0.2103 0.40692 0.1047 0.0
H497 H 0.26086 0.33284 0.18708 0.0
H498 H 0.22493 0.34965 0.17088 0.0
H499 H 0.25075 0.4058 0.11124 0.0
H500 H 0.14727 0.4356 0.04463 0.0
H501 H 0.18227 0.4173 0.06044 0.0
H502 H 0.15681 0.3635 0.12151 0.0
C503 C 0.24282 0.35075 0.15861 0.0
C504 C 0.23036 0.39619 0.11332 0.0
C505 C 0.26348 0.34118 0.16796 0.0
C506 C 0.14464 0.42764 0.06397 0.0
C507 C 0.16481 0.41735 0.07315 0.0
C508 C 0.17725 0.37298 0.11934 0.0
C509 C 0.24561 0.36235 0.13426 0.0
C510 C 0.22415 0.37364 0.12495 0.0
C511 C 0.16221 0.40679 0.09812 0.0
C512 C 0.18351 0.39545 0.10759 0.0
H513 H 0.30822 0.35577 0.11669 0.0
H514 H 0.27205 0.37201 0.10013 0.0
H515 H 0.1918 0.34466 0.13641 0.0
H516 H 0.10122 0.41704 0.11713 0.0
H517 H 0.13657 0.39926 0.1333 0.0
C518 C 0.60219 0.25843 0.93057 0.0
C519 C 0.62994 0.2626 0.92761 0.0
C520 C 0.588 0.23721 0.9417 0.0
C521 C 0.59362 0.17427 0.95575 0.0
H522 H 0.53637 0.17849 1.00736 0.0
C523 C 0.54715 0.09345 0.01931 0.0
C524 C 0.51967 0.08893 0.02423 0.0
C525 C 0.56005 0.11457 1.00724 0.0
C526 C 0.55208 0.17685 0.99273 0.0
H527 H 0.66438 0.24746 0.93404 0.0
H528 H 0.63984 0.21085 0.95335 0.0
H529 H 0.55925 0.21504 0.98635 0.0
H530 H 0.48421 0.10314 0.02048 0.0
H531 H 0.50652 0.13973 0.99912 0.0
H532 H 0.5865 0.13613 0.96203 0.0
C533 C 0.6289 0.22376 0.94686 0.0
C534 C 0.56523 0.19789 0.98064 0.0
C535 C 0.64304 0.24493 0.93589 0.0
C536 C 0.50541 0.10609 0.01696 0.0
C537 C 0.51828 0.12718 1.00486 0.0
C538 C 0.58045 0.15325 0.96777 0.0
C539 C 0.60117 0.21956 0.95 0.0
C540 C 0.58633 0.19695 0.96211 0.0
C541 C 0.54581 0.13175 0.99974 0.0
C542 C 0.55958 0.15421 0.98659 0.0
H543 H 0.59143 0.27161 0.92444 0.0
H544 H 0.56665 0.23453 0.94355 0.0
H545 H 0.60943 0.17266 0.94123 0.0
H546 H 0.55873 0.08068 0.02485 0.0
H547 H 0.58129 0.11755 1.0041 0.0
C548 C 0.92588 0.75741 0.43282 0.0
C549 C 0.91577 0.75332 0.4063 0.0
C550 C 0.93382 0.78118 0.44508 0.0
C551 C 0.95136 0.84676 0.43212 0.0
H552 H 0.92788 0.85622 0.50694 0.0
C553 C 0.9612 0.94313 0.48909 0.0
C554 C 0.97036 0.94584 0.51595 0.0
C555 C 0.95388 0.91985 0.47525 0.0
C556 C 0.93481 0.85388 0.48615 0.0
H557 H 0.90738 0.77116 0.37137 0.0
H558 H 0.9212 0.81273 0.39287 0.0
H559 H 0.91823 0.81545 0.48319 0.0
H560 H 0.97843 0.92611 0.5495 0.0
H561 H 0.96578 0.8857 0.5254 0.0
H562 H 0.96797 0.88529 0.43518 0.0
C563 C 0.92305 0.7975 0.40413 0.0
C564 C 0.92934 0.83048 0.47252 0.0
C565 C 0.91511 0.77365 0.39181 0.0
C566 C 0.97139 0.92473 0.52886 0.0
C567 C 0.96403 0.9015 0.51506 0.0
C568 C 0.95686 0.87023 0.44578 0.0
C569 C 0.93183 0.8015 0.43118 0.0
C570 C 0.9377 0.82657 0.44541 0.0
C571 C 0.95547 0.89877 0.48798 0.0
C572 C 0.94878 0.87404 0.47303 0.0
H573 H 0.9269 0.74221 0.44452 0.0
H574 H 0.9411 0.78362 0.4657 0.0
H575 H 0.95826 0.84436 0.41132 0.0
H576 H 0.96017 0.95899 0.47852 0.0
H577 H 0.94702 0.91837 0.45454 0.0
C578 C 0.35869 0.83733 0.57227 0.0
C579 C 0.33301 0.83065 0.58325 0.0
C580 C 0.37277 0.81938 0.56313 0.0
C581 C 0.36656 0.75208 0.54772 0.0
H582 H 0.43669 0.76491 0.57886 0.0
C583 C 0.4165 0.67627 0.57743 0.0
C584 C 0.44402 0.67897 0.57385 0.0
C585 C 0.40396 0.69491 0.57165 0.0
C586 C 0.41738 0.76115 0.56951 0.0
H587 H 0.30125 0.79994 0.59146 0.0
H588 H 0.32582 0.76879 0.57595 0.0
H589 H 0.41256 0.79776 0.57984 0.0
H590 H 0.47994 0.70308 0.56081 0.0
H591 H 0.45796 0.73572 0.55063 0.0
H592 H 0.37103 0.7151 0.53856 0.0
C593 C 0.33511 0.7878 0.57413 0.0
C594 C 0.40354 0.78002 0.57001 0.0
C595 C 0.32106 0.8057 0.58323 0.0
C596 C 0.45867 0.70046 0.56368 0.0
C597 C 0.44614 0.71918 0.55801 0.0
C598 C 0.38038 0.73317 0.5473 0.0
C599 C 0.36142 0.79443 0.56478 0.0
C600 C 0.37766 0.77553 0.55983 0.0
C601 C 0.41869 0.7167 0.56224 0.0
C602 C 0.40563 0.73737 0.5589 0.0
H603 H 0.36838 0.85642 0.57183 0.0
H604 H 0.39287 0.82506 0.55563 0.0
H605 H 0.34684 0.74814 0.53929 0.0
H606 H 0.40465 0.65977 0.58489 0.0
H607 H 0.38284 0.69256 0.57542 0.0
C608 C 0.74922 0.81937 0.79159 0.0
C609 C 0.73888 0.79583 0.77927 0.0
C610 C 0.76919 0.83547 0.77859 0.0
C611 C 0.8235 0.83472 0.72928 0.0
H612 H 0.82425 0.90374 0.72681 0.0
C613 C 0.90332 0.89698 0.66856 0.0
C614 C 0.91309 0.92101 0.67979 0.0
C615 C 0.88148 0.88213 0.68034 0.0
C616 C 0.82452 0.88457 0.72762 0.0
H617 H 0.74107 0.77087 0.7435 0.0
H618 H 0.7759 0.7989 0.72091 0.0
H619 H 0.78664 0.87738 0.74781 0.0
H620 H 0.9079 0.94821 0.7124 0.0
H621 H 0.8701 0.92215 0.73333 0.0
H622 H 0.86148 0.8418 0.70967 0.0
C623 C 0.76864 0.80489 0.74063 0.0
C624 C 0.80292 0.86948 0.73957 0.0
C625 C 0.74862 0.78889 0.75353 0.0
C626 C 0.90062 0.92984 0.70313 0.0
C627 C 0.87889 0.91493 0.71504 0.0
C628 C 0.84515 0.8498 0.71753 0.0
C629 C 0.77942 0.82822 0.7532 0.0
C630 C 0.80215 0.84438 0.74042 0.0
C631 C 0.86901 0.89088 0.70377 0.0
C632 C 0.84593 0.87491 0.71646 0.0
H633 H 0.74294 0.82499 0.81179 0.0
H634 H 0.7774 0.85321 0.78895 0.0
H635 H 0.8237 0.81552 0.73008 0.0
H636 H 0.91226 0.88981 0.65034 0.0
H637 H 0.87414 0.86389 0.67079 0.0
C638 C 0.72061 0.16223 0.40188 0.0
C639 C 0.70391 0.15769 0.42468 0.0
C640 C 0.71161 0.15311 0.37583 0.0
C641 C 0.65833 0.10834 0.3386 0.0
H642 H 0.67618 0.15248 0.28155 0.0
C643 C 0.60357 0.09365 0.23628 0.0
C644 C 0.61919 0.09774 0.21264 0.0
C645 C 0.61492 0.09966 0.26197 0.0
C646 C 0.67128 0.13984 0.29719 0.0
H647 H 0.66487 0.13952 0.43807 0.0
H648 H 0.649 0.12407 0.39264 0.0
H649 H 0.69444 0.16491 0.32675 0.0
H650 H 0.65912 0.11084 0.19752 0.0
H651 H 0.67879 0.12169 0.24239 0.0
H652 H 0.63463 0.08353 0.30902 0.0
C653 C 0.6692 0.13431 0.39487 0.0
C654 C 0.6818 0.14692 0.32309 0.0
C655 C 0.67827 0.14329 0.42094 0.0
C656 C 0.64643 0.10788 0.2153 0.0
C657 C 0.65773 0.11402 0.24098 0.0
C658 C 0.64767 0.10133 0.31272 0.0
C659 C 0.68565 0.13939 0.37197 0.0
C660 C 0.67536 0.1313 0.34415 0.0
C661 C 0.64208 0.11001 0.26456 0.0
C662 C 0.65394 0.11707 0.29181 0.0
H663 H 0.74056 0.1731 0.40409 0.0
H664 H 0.72495 0.15697 0.35868 0.0
H665 H 0.65329 0.09572 0.35424 0.0
H666 H 0.58247 0.08621 0.23498 0.0
H667 H 0.60231 0.09669 0.27982 0.0
C668 C 0.44208 0.67541 0.31133 0.0
C669 C 0.42496 0.69171 0.31716 0.0
C670 C 0.45077 0.66351 0.33204 0.0
C671 C 0.43399 0.64627 0.40289 0.0
H672 H 0.50444 0.63236 0.39999 0.0
C673 C 0.47658 0.60468 0.49141 0.0
C674 C 0.49191 0.587 0.48444 0.0
C675 C 0.46846 0.61775 0.47142 0.0
C676 C 0.48458 0.63584 0.40102 0.0
H677 H 0.40405 0.70855 0.34974 0.0
H678 H 0.41956 0.68827 0.38584 0.0
H679 H 0.4909 0.65494 0.36494 0.0
H680 H 0.51049 0.56925 0.45063 0.0
H681 H 0.49624 0.59181 0.41594 0.0
H682 H 0.42777 0.62722 0.43908 0.0
C683 C 0.42592 0.68426 0.36515 0.0
C684 C 0.47676 0.64883 0.38082 0.0
C685 C 0.41717 0.69611 0.34441 0.0
C686 C 0.49873 0.58269 0.45687 0.0
C687 C 0.49071 0.59582 0.43692 0.0
C688 C 0.44185 0.63334 0.42316 0.0
C689 C 0.44267 0.66757 0.35929 0.0
C690 C 0.45128 0.65418 0.38132 0.0
C691 C 0.47552 0.61362 0.44387 0.0
C692 C 0.46722 0.62781 0.42247 0.0
H693 H 0.4484 0.67142 0.2906 0.0
H694 H 0.46333 0.65061 0.3265 0.0
H695 H 0.41407 0.64958 0.40387 0.0
H696 H 0.47096 0.6086 0.51238 0.0
H697 H 0.45704 0.63145 0.47767 0.0
C698 C 0.12175 0.40304 0.80504 0.0
C699 C 0.14303 0.41456 0.78915 0.0
C700 C 0.11117 0.41626 0.82632 0.0
C701 C 0.10588 0.47888 0.85214 0.0
H702 H 0.08524 0.44866 0.91933 0.0
C703 C 0.06872 0.53123 0.94684 0.0
C704 C 0.04703 0.51842 0.96116 0.0
C705 C 0.08142 0.51902 0.92626 0.0
C706 C 0.09065 0.45728 0.90061 0.0
H707 H 0.16984 0.44916 0.78325 0.0
H708 H 0.1514 0.47227 0.82063 0.0
H709 H 0.10587 0.42678 0.88278 0.0
H710 H 0.02153 0.48286 0.96521 0.0
H711 H 0.04358 0.46151 0.92922 0.0
H712 H 0.09049 0.50933 0.86996 0.0
C713 C 0.14278 0.45299 0.81639 0.0
C714 C 0.1025 0.44473 0.87965 0.0
C715 C 0.15344 0.43971 0.79505 0.0
C716 C 0.03831 0.49317 0.9546 0.0
C717 C 0.05103 0.48093 0.93406 0.0
C718 C 0.09402 0.49144 0.87313 0.0
C719 C 0.12156 0.44138 0.83233 0.0
C720 C 0.11005 0.45528 0.85505 0.0
C721 C 0.07272 0.49371 0.9196 0.0
C722 C 0.08607 0.4807 0.89755 0.0
H723 H 0.11313 0.38372 0.80106 0.0
H724 H 0.09455 0.40681 0.83787 0.0
H725 H 0.11115 0.48741 0.83335 0.0
H726 H 0.07592 0.55071 0.95156 0.0
H727 H 0.09825 0.52936 0.91577 0.0
C728 C 0.61801 0.86239 0.86899 0.0
C729 C 0.64574 0.86594 0.86672 0.0
C730 C 0.60625 0.87868 0.88565 0.0
C731 C 0.6185 0.94099 0.92075 0.0
H732 H 0.55957 0.91279 0.96647 0.0
C733 C 0.57424 0.99786 1.0072 0.0
C734 C 0.54658 0.99226 0.01088 0.0
C735 C 0.58665 0.98324 0.98884 0.0
C736 C 0.57577 0.92101 0.9536 0.0
H737 H 0.68286 0.88977 0.87972 0.0
H738 H 0.66227 0.91818 0.90897 0.0
H739 H 0.58058 0.88606 0.93568 0.0
H740 H 0.51019 0.96733 0.99756 0.0
H741 H 0.53176 0.94216 0.96539 0.0
H742 H 0.61363 0.97599 0.93877 0.0
C743 C 0.64965 0.90285 0.89768 0.0
C744 C 0.58784 0.90567 0.93594 0.0
C745 C 0.66144 0.8865 0.88102 0.0
C746 C 0.53157 0.97205 0.99544 0.0
C747 C 0.54395 0.95751 0.97707 0.0
C748 C 0.60637 0.95638 0.93842 0.0
C749 C 0.62192 0.89893 0.90045 0.0
C750 C 0.60928 0.91545 0.91924 0.0
C751 C 0.57166 0.96276 0.97374 0.0
C752 C 0.5848 0.94656 0.95499 0.0
H753 H 0.60531 0.84684 0.85814 0.0
H754 H 0.58483 0.87537 0.88697 0.0
H755 H 0.63482 0.9491 0.90796 0.0
H756 H 0.58637 0.01329 0.01881 0.0
H757 H 0.60805 0.98767 0.98696 0.0
C758 C 0.76906 0.11622 0.54246 0.0
C759 C 0.77511 0.13957 0.53273 0.0
C760 C 0.789 0.10329 0.54531 0.0
C761 C 0.85696 0.09973 0.52229 0.0
H762 H 0.85733 0.06584 0.58728 0.0
C763 C 0.93285 0.0561 0.58565 0.0
C764 C 0.9431 0.04184 0.5649 0.0
C765 C 0.91182 0.06699 0.5806 0.0
C766 C 0.85755 0.07528 0.56905 0.0
H767 H 0.80686 0.1677 0.51842 0.0
H768 H 0.8417 0.14527 0.52378 0.0
H769 H 0.8219 0.08724 0.58087 0.0
H770 H 0.93977 0.02798 0.52248 0.0
H771 H 0.90267 0.04704 0.51356 0.0
H772 H 0.89307 0.08825 0.51087 0.0
C773 C 0.82148 0.13681 0.52882 0.0
C774 C 0.83709 0.08732 0.56525 0.0
C775 C 0.80154 0.14974 0.52597 0.0
C776 C 0.93213 0.03885 0.53884 0.0
C777 C 0.91104 0.04984 0.53373 0.0
C778 C 0.87743 0.08762 0.52608 0.0
C779 C 0.81543 0.11344 0.5385 0.0
C780 C 0.83669 0.09988 0.54195 0.0
C781 C 0.90057 0.0639 0.55465 0.0
C782 C 0.87809 0.07551 0.54966 0.0
H783 H 0.74887 0.10781 0.5477 0.0
H784 H 0.78366 0.08521 0.55255 0.0
H785 H 0.85701 0.109 0.50396 0.0
H786 H 0.94107 0.05886 0.6059 0.0
H787 H 0.90455 0.07808 0.59699 0.0
C788 C 0.26437 0.66212 0.17451 0.0
C789 C 0.28461 0.67425 0.15783 0.0
C790 C 0.24101 0.64769 0.16309 0.0
C791 C 0.20076 0.63998 0.10081 0.0
H792 H 0.16471 0.57898 0.12853 0.0
C793 C 0.09453 0.59301 0.06861 0.0
C794 C 0.08841 0.56737 0.06343 0.0
C795 C 0.1187 0.60503 0.08014 0.0
C796 C 0.17464 0.59588 0.12041 0.0
H797 H 0.29639 0.67998 0.11595 0.0
H798 H 0.25607 0.65481 0.09621 0.0
H799 H 0.20665 0.60128 0.14856 0.0
H800 H 0.10314 0.53429 0.06659 0.0
H801 H 0.14552 0.55537 0.08663 0.0
H802 H 0.16907 0.63459 0.07253 0.0
C803 C 0.25793 0.65674 0.11812 0.0
C804 C 0.19854 0.60881 0.1321 0.0
C805 C 0.28119 0.6711 0.12949 0.0
C806 C 0.10717 0.55405 0.07023 0.0
C807 C 0.13141 0.56613 0.0819 0.0
C808 C 0.1769 0.62714 0.08924 0.0
C809 C 0.23734 0.64509 0.13474 0.0
C810 C 0.21193 0.63105 0.12244 0.0
C811 C 0.13753 0.59181 0.0869 0.0
C812 C 0.16342 0.60497 0.09892 0.0
H813 H 0.26632 0.66414 0.19641 0.0
H814 H 0.22553 0.63913 0.17654 0.0
H815 H 0.21027 0.65716 0.09301 0.0
H816 H 0.08061 0.60394 0.0638 0.0
H817 H 0.12249 0.62477 0.08407 0.0
C818 C 0.28547 0.43578 0.68869 0.0
C819 C 0.26088 0.42838 0.67566 0.0
C820 C 0.30774 0.44789 0.67483 0.0
C821 C 0.33609 0.45449 0.60655 0.0
H822 H 0.38326 0.51189 0.64027 0.0
C823 C 0.42836 0.5044 0.54941 0.0
C824 C 0.45143 0.51332 0.56463 0.0
C825 C 0.40414 0.49583 0.56243 0.0
C826 C 0.37051 0.4957 0.63064 0.0
H827 H 0.24038 0.42807 0.6379 0.0
H828 H 0.27945 0.44892 0.61359 0.0
H829 H 0.34301 0.4934 0.6642 0.0
H830 H 0.46731 0.52056 0.60536 0.0
H831 H 0.42545 0.50494 0.62802 0.0
H832 H 0.36386 0.4561 0.57342 0.0
C833 C 0.2814 0.44537 0.63456 0.0
C834 C 0.34737 0.48519 0.64435 0.0
C835 C 0.25903 0.43355 0.64853 0.0
C836 C 0.44981 0.51383 0.5931 0.0
C837 C 0.4257 0.50503 0.6061 0.0
C838 C 0.35938 0.4648 0.59296 0.0
C839 C 0.30601 0.45259 0.64754 0.0
C840 C 0.33 0.46439 0.63252 0.0
C841 C 0.40252 0.49576 0.59097 0.0
C842 C 0.37704 0.48547 0.60489 0.0
H843 H 0.28756 0.4321 0.70958 0.0
H844 H 0.3265 0.45306 0.68529 0.0
H845 H 0.32321 0.43829 0.59706 0.0
H846 H 0.42904 0.50397 0.52743 0.0
H847 H 0.38668 0.48928 0.55009 0.0
C848 C 0.75473 0.70567 0.88293 0.0
C849 C 0.74219 0.6926 0.85961 0.0
C850 C 0.77364 0.6967 0.89628 0.0
C851 C 0.79749 0.64091 0.90607 0.0
H852 H 0.86373 0.68613 0.92424 0.0
C853 C 0.88776 0.60887 0.94542 0.0
C854 C 0.90327 0.62426 0.96558 0.0
C855 C 0.86773 0.61677 0.93255 0.0
C856 C 0.84523 0.67331 0.9197 0.0
H857 H 0.73912 0.65952 0.83245 0.0
H858 H 0.77204 0.64374 0.856 0.0
H859 H 0.82892 0.70049 0.90247 0.0
H860 H 0.90987 0.66017 0.98781 0.0
H861 H 0.87441 0.67352 0.96624 0.0
H862 H 0.81358 0.61378 0.92365 0.0
C863 C 0.76721 0.66094 0.86388 0.0
C864 C 0.82531 0.68156 0.90715 0.0
C865 C 0.74846 0.67004 0.85035 0.0
C866 C 0.89813 0.64768 0.97265 0.0
C867 C 0.87801 0.65549 0.95995 0.0
C868 C 0.81734 0.63268 0.91886 0.0
C869 C 0.78025 0.67435 0.88676 0.0
C870 C 0.80123 0.66546 0.90023 0.0
C871 C 0.86262 0.6402 0.93964 0.0
C872 C 0.84147 0.6488 0.92586 0.0
H873 H 0.75033 0.7231 0.8906 0.0
H874 H 0.78316 0.70728 0.91406 0.0
H875 H 0.77902 0.62815 0.90115 0.0
H876 H 0.89093 0.59061 0.93968 0.0
H877 H 0.85649 0.60459 0.9168 0.0
C878 C 0.38992 0.80826 0.19539 0.0
C879 C 0.4061 0.79575 0.20862 0.0
C880 C 0.40027 0.8311 0.1857 0.0
C881 C 0.45917 0.88356 0.18978 0.0
H882 H 0.43041 0.89819 0.12305 0.0
C883 C 0.50991 0.96486 0.1287 0.0
C884 C 0.49384 0.97894 0.11788 0.0
C885 C 0.4987 0.94338 0.14088 0.0
C886 C 0.43847 0.89455 0.14187 0.0
H887 H 0.44606 0.79789 0.22221 0.0
H888 H 0.46442 0.83749 0.20464 0.0
H889 H 0.41275 0.85923 0.14176 0.0
H890 H 0.45326 0.98136 0.11132 0.0
H891 H 0.43353 0.94348 0.13232 0.0
H892 H 0.48545 0.91874 0.18927 0.0
C893 C 0.44346 0.82984 0.20222 0.0
C894 C 0.42829 0.87213 0.15274 0.0
C895 C 0.43297 0.807 0.21225 0.0
C896 C 0.46617 0.97097 0.11952 0.0
C897 C 0.4549 0.9492 0.13144 0.0
C898 C 0.46955 0.90588 0.17873 0.0
C899 C 0.4273 0.84218 0.18854 0.0
C900 C 0.43841 0.86623 0.17693 0.0
C901 C 0.47105 0.93513 0.14231 0.0
C902 C 0.45936 0.91169 0.15461 0.0
H903 H 0.36906 0.80038 0.19245 0.0
H904 H 0.38689 0.84009 0.17603 0.0
H905 H 0.46729 0.88008 0.20863 0.0
H906 H 0.5313 0.97041 0.12772 0.0
H907 H 0.51177 0.93292 0.14868 0.0
C908 C 0.13563 0.27187 0.6713 0.0
C909 C 0.14178 0.27344 0.69903 0.0
C910 C 0.12703 0.24906 0.65683 0.0
C911 C 0.12434 0.1826 0.65857 0.0
H912 H 0.06326 0.17553 0.6125 0.0
C913 C 0.06269 0.08817 0.61837 0.0
C914 C 0.05255 0.08572 0.59194 0.0
C915 C 0.07551 0.11108 0.63017 0.0
C916 C 0.08057 0.17723 0.62494 0.0
H917 H 0.14449 0.2522 0.73306 0.0
H918 H 0.1294 0.21252 0.70789 0.0
H919 H 0.08266 0.21549 0.63495 0.0
H920 H 0.04861 0.10537 0.5569 0.0
H921 H 0.07123 0.14518 0.57733 0.0
H922 H 0.12208 0.14425 0.64872 0.0
C923 C 0.13139 0.22889 0.69726 0.0
C924 C 0.09171 0.20018 0.63782 0.0
C925 C 0.13991 0.25168 0.71173 0.0
C926 C 0.05598 0.10661 0.57739 0.0
C927 C 0.06885 0.12949 0.58916 0.0
C928 C 0.11323 0.15964 0.64563 0.0
C929 C 0.12448 0.22731 0.66974 0.0
C930 C 0.1136 0.20312 0.65495 0.0
C931 C 0.07855 0.13206 0.6158 0.0
C932 C 0.09108 0.15663 0.6288 0.0
H933 H 0.13695 0.28826 0.66085 0.0
H934 H 0.12222 0.24846 0.63555 0.0
H935 H 0.14142 0.18431 0.67135 0.0
H936 H 0.06033 0.07246 0.63017 0.0
H937 H 0.08244 0.11242 0.65084 0.0
C938 C 0.71414 0.28557 0.527 0.0
C939 C 0.69979 0.26233 0.53284 0.0
C940 C 0.70252 0.30598 0.53093 0.0
C941 C 0.63634 0.32013 0.53213 0.0
H942 H 0.67433 0.38649 0.55212 0.0
C943 C 0.58541 0.40212 0.53412 0.0
C944 C 0.59952 0.42258 0.5216 0.0
C945 C 0.59785 0.3833 0.53958 0.0
C946 C 0.66351 0.36805 0.5464 0.0
H947 H 0.66282 0.24262 0.5494 0.0
H948 H 0.64277 0.27829 0.55673 0.0
H949 H 0.69612 0.35228 0.55585 0.0
H950 H 0.63797 0.43972 0.50582 0.0
H951 H 0.65957 0.40663 0.51488 0.0
H952 H 0.60396 0.33582 0.52217 0.0
C953 C 0.66273 0.28063 0.54844 0.0
C954 C 0.67597 0.34848 0.54856 0.0
C955 C 0.67429 0.26022 0.54439 0.0
C956 C 0.62648 0.42403 0.51515 0.0
C957 C 0.63894 0.40524 0.52067 0.0
C958 C 0.6239 0.33965 0.53004 0.0
C959 C 0.67637 0.30358 0.54091 0.0
C960 C 0.66262 0.32431 0.54113 0.0
C961 C 0.62469 0.38455 0.5327 0.0
C962 C 0.63744 0.36384 0.53682 0.0
H963 H 0.73385 0.28782 0.51811 0.0
H964 H 0.71353 0.32334 0.52476 0.0
H965 H 0.62564 0.30182 0.5257 0.0
H966 H 0.56457 0.4004 0.53918 0.0
H967 H 0.5864 0.3677 0.54909 0.0
loop_
_geom_bond_atom_site_label_1
_geom_bond_atom_site_label_2
_geom_bond_distance
_geom_bond_site_symmetry_2
_ccdc_geom_bond_type
O0 Cd1 2.300 . S
O0 C7 1.275 . S
Cd1 O0 2.300 . S
Cd1 O9 2.381 . S
Cd1 O10 2.378 . S
O2 Cd3 2.385 . S
O2 C7 1.255 . S
Cd3 O2 2.385 . S
Cd3 O4 2.317 . S
O4 Cd3 2.317 . S
O4 C5 1.232 . S
C5 O4 1.232 . S
C5 O6 1.218 . S
O6 C5 1.218 . S
C7 O0 1.275 . S
C7 O2 1.255 . S
C8 O9 1.258 . S
C8 O10 1.256 . S
O9 Cd1 2.381 . S
O9 C8 1.258 . S
O10 Cd1 2.378 . S
O10 C8 1.256 . S
O11 Cd12 2.300 . S
O11 C18 1.275 . S
Cd12 O11 2.300 . S
Cd12 O20 2.381 . S
Cd12 O21 2.378 . S
O13 Cd14 2.385 . S
O13 C18 1.255 . S
Cd14 O13 2.385 . S
Cd14 O15 2.317 . S
O15 Cd14 2.317 . S
O15 C16 1.232 . S
C16 O15 1.232 . S
C16 O17 1.218 . S
O17 C16 1.218 . S
C18 O11 1.275 . S
C18 O13 1.255 . S
C19 O20 1.258 . S
C19 O21 1.256 . S
O20 Cd12 2.381 . S
O20 C19 1.258 . S
O21 Cd12 2.378 . S
O21 C19 1.256 . S
O22 Cd23 2.300 . S
O22 C29 1.275 . S
Cd23 O22 2.300 . S
Cd23 O31 2.381 . S
Cd23 O32 2.378 . S
O24 Cd25 2.385 . S
O24 C29 1.255 . S
Cd25 O24 2.385 . S
Cd25 O26 2.317 . S
O26 Cd25 2.317 . S
O26 C27 1.232 . S
C27 O26 1.232 . S
C27 O28 1.218 . S
O28 C27 1.218 . S
C29 O22 1.275 . S
C29 O24 1.255 . S
C30 O31 1.258 . S
C30 O32 1.256 . S
O31 Cd23 2.381 . S
O31 C30 1.258 . S
O32 Cd23 2.378 . S
O32 C30 1.256 . S
O33 Cd34 2.300 . S
O33 C40 1.275 . S
Cd34 O33 2.300 . S
Cd34 O42 2.381 . S
Cd34 O43 2.378 . S
O35 Cd36 2.385 . S
O35 C40 1.255 . S
Cd36 O35 2.385 . S
Cd36 O37 2.317 . S
O37 Cd36 2.317 . S
O37 C38 1.232 . S
C38 O37 1.232 . S
C38 O39 1.218 . S
O39 C38 1.218 . S
C40 O33 1.275 . S
C40 O35 1.255 . S
C41 O42 1.258 . S
C41 O43 1.256 . S
O42 Cd34 2.381 . S
O42 C41 1.258 . S
O43 Cd34 2.378 . S
O43 C41 1.256 . S
O44 Cd45 2.300 . S
O44 C51 1.275 . S
Cd45 O44 2.300 . S
Cd45 O53 2.381 . S
Cd45 O54 2.378 . S
O46 Cd47 2.385 . S
O46 C51 1.255 . S
Cd47 O46 2.385 . S
Cd47 O48 2.317 . S
O48 Cd47 2.317 . S
O48 C49 1.232 . S
C49 O48 1.232 . S
C49 O50 1.218 . S
O50 C49 1.218 . S
C51 O44 1.275 . S
C51 O46 1.255 . S
C52 O53 1.258 . S
C52 O54 1.256 . S
O53 Cd45 2.381 . S
O53 C52 1.258 . S
O54 Cd45 2.378 . S
O54 C52 1.256 . S
O55 Cd56 2.300 . S
O55 C62 1.275 . S
Cd56 O55 2.300 . S
Cd56 O64 2.381 . S
Cd56 O65 2.378 . S
O57 Cd58 2.385 . S
O57 C62 1.255 . S
Cd58 O57 2.385 . S
Cd58 O59 2.317 . S
O59 Cd58 2.317 . S
O59 C60 1.232 . S
C60 O59 1.232 . S
C60 O61 1.218 . S
O61 C60 1.218 . S
C62 O55 1.275 . S
C62 O57 1.255 . S
C63 O64 1.258 . S
C63 O65 1.256 . S
O64 Cd56 2.381 . S
O64 C63 1.258 . S
O65 Cd56 2.378 . S
O65 C63 1.256 . S
O66 Cd67 2.300 . S
O66 C73 1.275 . S
Cd67 O66 2.300 . S
Cd67 O75 2.381 . S
Cd67 O76 2.378 . S
O68 Cd69 2.385 . S
O68 C73 1.255 . S
Cd69 O68 2.385 . S
Cd69 O70 2.317 . S
O70 Cd69 2.317 . S
O70 C71 1.232 . S
C71 O70 1.232 . S
C71 O72 1.218 . S
O72 C71 1.218 . S
C73 O66 1.275 . S
C73 O68 1.255 . S
C74 O75 1.258 . S
C74 O76 1.256 . S
O75 Cd67 2.381 . S
O75 C74 1.258 . S
O76 Cd67 2.378 . S
O76 C74 1.256 . S
O77 Cd78 2.300 . S
O77 C84 1.275 . S
Cd78 O77 2.300 . S
Cd78 O86 2.381 . S
Cd78 O87 2.378 . S
O79 Cd80 2.385 . S
O79 C84 1.255 . S
Cd80 O79 2.385 . S
Cd80 O81 2.317 . S
O81 Cd80 2.317 . S
O81 C82 1.232 . S
C82 O81 1.232 . S
C82 O83 1.218 . S
O83 C82 1.218 . S
C84 O77 1.275 . S
C84 O79 1.255 . S
C85 O86 1.258 . S
C85 O87 1.256 . S
O86 Cd78 2.381 . S
O86 C85 1.258 . S
O87 Cd78 2.378 . S
O87 C85 1.256 . S
Sm88 C90 2.846 . S
Sm88 O108 2.543 . S
Sm88 O109 2.450 . S
Sm88 O110 2.681 1_545 S
Sm88 O111 2.464 1_545 S
Sm88 O112 2.396 . S
Sm88 O116 2.386 1_455 S
Sm88 O119 2.408 1_445 S
Sm89 C99 2.846 1_545 S
Sm89 O110 2.386 1_645 S
Sm89 O113 2.408 1_655 S
Sm89 O114 2.543 1_545 S
Sm89 O115 2.450 1_545 S
Sm89 O116 2.681 . S
Sm89 O117 2.464 . S
Sm89 O118 2.396 1_545 S
C90 Sm88 2.846 . S
C90 C91 1.506 . S
C90 O108 1.261 . S
C90 O109 1.242 . S
C91 C90 1.506 . S
C91 C92 1.358 . S
C91 C96 1.382 . S
C92 C91 1.358 . S
C92 C93 1.385 . S
C92 H120 0.930 . S
C93 C92 1.385 . S
C93 C94 1.395 . S
C93 H121 0.929 . S
C94 C93 1.395 . S
C94 C95 1.335 . S
C95 C94 1.335 . S
C95 C96 1.398 . S
C95 H122 0.930 . S
C96 C91 1.382 . S
C96 C95 1.398 . S
C96 H123 0.929 . S
C97 O110 1.271 . S
C97 O111 1.251 . S
C98 O112 1.252 . S
C98 O113 1.272 . S
C99 Sm89 2.846 1_565 S
C99 C100 1.506 . S
C99 O114 1.261 . S
C99 O115 1.242 . S
C100 C99 1.506 . S
C100 C101 1.358 . S
C100 C105 1.382 . S
C101 C100 1.358 . S
C101 C102 1.385 . S
C101 H124 0.930 . S
C102 C101 1.385 . S
C102 C103 1.395 . S
C102 H125 0.929 . S
C103 C102 1.395 . S
C103 C104 1.335 . S
C104 C103 1.335 . S
C104 C105 1.398 . S
C104 H126 0.930 . S
C105 C100 1.382 . S
C105 C104 1.398 . S
C105 H127 0.929 . S
C106 O116 1.271 . S
C106 O117 1.251 . S
C107 O118 1.252 . S
C107 O119 1.272 . S
O108 Sm88 2.543 . S
O108 C90 1.261 . S
O109 Sm88 2.450 . S
O109 C90 1.242 . S
O110 Sm88 2.681 1_565 S
O110 Sm89 2.386 1_465 S
O110 C97 1.271 . S
O111 Sm88 2.464 1_565 S
O111 C97 1.251 . S
O112 Sm88 2.396 . S
O112 C98 1.252 . S
O113 Sm89 2.408 1_455 S
O113 C98 1.272 . S
O114 Sm89 2.543 1_565 S
O114 C99 1.261 . S
O115 Sm89 2.450 1_565 S
O115 C99 1.242 . S
O116 Sm88 2.386 1_655 S
O116 Sm89 2.681 . S
O116 C106 1.271 . S
O117 Sm89 2.464 . S
O117 C106 1.251 . S
O118 Sm89 2.396 1_565 S
O118 C107 1.252 . S
O119 Sm88 2.408 1_665 S
O119 C107 1.272 . S
H120 C92 0.930 . S
H121 C93 0.929 . S
H122 C95 0.930 . S
H123 C96 0.929 . S
H124 C101 0.930 . S
H125 C102 0.929 . S
H126 C104 0.930 . S
H127 C105 0.929 . S
Sm128 C130 2.846 . S
Sm128 O148 2.543 . S
Sm128 O149 2.450 . S
Sm128 O150 2.681 . S
Sm128 O151 2.464 1_545 S
Sm128 O152 2.396 . S
Sm128 O156 2.386 . S
Sm128 O159 2.408 . S
Sm129 C139 2.846 1_544 S
Sm129 O150 2.386 . S
Sm129 O153 2.408 . S
Sm129 O154 2.530 1_544 S
Sm129 O155 2.450 1_554 S
Sm129 O156 2.681 . S
Sm129 O157 2.464 . S
Sm129 O158 2.396 . S
C130 Sm128 2.846 . S
C130 C131 1.506 . S
C130 O148 1.261 . S
C130 O149 1.242 . S
C131 C130 1.506 . S
C131 C132 1.358 . S
C131 C136 1.382 . S
C132 C131 1.358 . S
C132 C133 1.385 . S
C132 H160 0.930 . S
C133 C132 1.385 . S
C133 C134 1.395 . S
C133 H161 0.929 . S
C134 C133 1.395 . S
C134 C135 1.335 . S
C135 C134 1.335 . S
C135 C136 1.398 . S
C135 H162 0.930 . S
C136 C131 1.382 . S
C136 C135 1.398 . S
C136 H163 0.929 . S
C137 O150 1.271 1_565 S
C137 O151 1.251 . S
C138 O152 1.252 . S
C138 O153 1.272 . S
C139 Sm129 2.846 1_566 S
C139 C140 1.506 . S
C139 O154 1.289 . S
C139 O155 1.242 1_565 S
C140 C139 1.506 . S
C140 C141 1.358 . S
C140 C145 1.382 . S
C141 C140 1.358 . S
C141 C142 1.385 . S
C141 H164 0.930 . S
C142 C141 1.385 . S
C142 C143 1.395 . S
C142 H165 0.929 . S
C143 C142 1.395 . S
C143 C144 1.335 . S
C144 C143 1.335 . S
C144 C145 1.398 . S
C144 H166 0.930 . S
C145 C140 1.382 . S
C145 C144 1.398 . S
C145 H167 0.929 1_565 S
C146 O156 1.271 . S
C146 O157 1.251 . S
C147 O158 1.252 1_565 S
C147 O159 1.272 1_565 S
O148 Sm128 2.543 . S
O148 C130 1.261 . S
O149 Sm128 2.450 . S
O149 C130 1.242 . S
O150 Sm128 2.681 . S
O150 Sm129 2.386 . S
O150 C137 1.271 1_545 S
O151 Sm128 2.464 1_565 S
O151 C137 1.251 . S
O152 Sm128 2.396 . S
O152 C138 1.252 . S
O153 Sm129 2.408 . S
O153 C138 1.272 . S
O154 Sm129 2.530 1_566 S
O154 C139 1.289 . S
O155 Sm129 2.450 1_556 S
O155 C139 1.242 1_545 S
O156 Sm128 2.386 . S
O156 Sm129 2.681 . S
O156 C146 1.271 . S
O157 Sm129 2.464 . S
O157 C146 1.251 . S
O158 Sm129 2.396 . S
O158 C147 1.252 1_545 S
O159 Sm128 2.408 . S
O159 C147 1.272 1_545 S
H160 C132 0.930 . S
H161 C133 0.929 . S
H162 C135 0.930 . S
H163 C136 0.929 . S
H164 C141 0.930 . S
H165 C142 0.929 . S
H166 C144 0.930 . S
H167 C145 0.929 1_545 S
Sm168 C170 2.846 . S
Sm168 O188 2.543 . S
Sm168 O189 2.450 . S
Sm168 O190 2.681 . S
Sm168 O191 2.464 . S
Sm168 O192 2.396 . S
Sm168 O196 2.386 . S
Sm168 O199 2.408 . S
Sm169 C179 2.846 . S
Sm169 O190 2.386 . S
Sm169 O193 2.408 . S
Sm169 O194 2.543 . S
Sm169 O195 2.450 . S
Sm169 O196 2.681 . S
Sm169 O197 2.464 . S
Sm169 O198 2.396 . S
C170 Sm168 2.846 . S
C170 C171 1.506 . S
C170 O188 1.261 . S
C170 O189 1.242 . S
C171 C170 1.506 . S
C171 C172 1.358 . S
C171 C176 1.382 . S
C172 C171 1.358 . S
C172 C173 1.385 . S
C172 H200 0.930 . S
C173 C172 1.385 . S
C173 C174 1.395 . S
C173 H201 0.929 . S
C174 C173 1.395 . S
C174 C175 1.335 . S
C175 C174 1.335 . S
C175 C176 1.398 . S
C175 H202 0.930 . S
C176 C171 1.382 . S
C176 C175 1.398 . S
C176 H203 0.929 . S
C177 O190 1.271 . S
C177 O191 1.251 . S
C178 O192 1.252 . S
C178 O193 1.272 . S
C179 Sm169 2.846 . S
C179 C180 1.506 . S
C179 O194 1.261 . S
C179 O195 1.242 . S
C180 C179 1.506 . S
C180 C181 1.358 . S
C180 C185 1.382 . S
C181 C180 1.358 . S
C181 C182 1.385 . S
C181 H204 0.930 . S
C182 C181 1.385 . S
C182 C183 1.395 . S
C182 H205 0.929 . S
C183 C182 1.395 . S
C183 C184 1.335 . S
C184 C183 1.335 . S
C184 C185 1.398 . S
C184 H206 0.930 . S
C185 C180 1.382 . S
C185 C184 1.398 . S
C185 H207 0.929 . S
C186 O196 1.271 . S
C186 O197 1.251 . S
C187 O198 1.252 . S
C187 O199 1.272 . S
O188 Sm168 2.543 . S
O188 C170 1.261 . S
O189 Sm168 2.450 . S
O189 C170 1.242 . S
O190 Sm168 2.681 . S
O190 Sm169 2.386 . S
O190 C177 1.271 . S
O191 Sm168 2.464 . S
O191 C177 1.251 . S
O192 Sm168 2.396 . S
O192 C178 1.252 . S
O193 Sm169 2.408 . S
O193 C178 1.272 . S
O194 Sm169 2.543 . S
O194 C179 1.261 . S
O195 Sm169 2.450 . S
O195 C179 1.242 . S
O196 Sm168 2.386 . S
O196 Sm169 2.681 . S
O196 C186 1.271 . S
O197 Sm169 2.464 . S
O197 C186 1.251 . S
O198 Sm169 2.396 . S
O198 C187 1.252 . S
O199 Sm168 2.408 . S
O199 C187 1.272 . S
H200 C172 0.930 . S
H201 C173 0.929 . S
H202 C175 0.930 . S
H203 C176 0.929 . S
H204 C181 0.930 . S
H205 C182 0.929 . S
H206 C184 0.930 . S
H207 C185 0.929 . S
Sm208 C210 2.846 . S
Sm208 O228 2.543 . S
Sm208 O229 2.450 . S
Sm208 O230 2.681 . S
Sm208 O231 2.482 . S
Sm208 O232 2.396 . S
Sm208 O236 2.386 1_554 S
Sm208 O239 2.408 1_455 S
Sm209 C219 2.846 1_455 S
Sm209 O230 2.386 1_556 S
Sm209 O233 2.408 1_556 S
Sm209 O234 2.543 1_455 S
Sm209 O235 2.435 1_455 S
Sm209 O236 2.681 . S
Sm209 O237 2.464 . S
Sm209 O238 2.396 1_455 S
C210 Sm208 2.846 . S
C210 C211 1.506 . S
C210 O228 1.261 . S
C210 O229 1.242 . S
C211 C210 1.506 . S
C211 C212 1.358 . S
C211 C216 1.382 . S
C212 C211 1.358 . S
C212 C213 1.385 . S
C212 H240 0.930 . S
C213 C212 1.385 . S
C213 C214 1.395 . S
C213 H241 0.929 . S
C214 C213 1.395 . S
C214 C215 1.335 . S
C215 C214 1.335 . S
C215 C216 1.398 . S
C215 H242 0.930 . S
C216 C211 1.382 . S
C216 C215 1.398 . S
C216 H243 0.929 . S
C217 O230 1.271 1_655 S
C217 O231 1.238 1_655 S
C218 O232 1.252 . S
C218 O233 1.272 . S
C219 Sm209 2.846 1_655 S
C219 C220 1.506 . S
C219 O234 1.261 . S
C219 O235 1.267 . S
C220 C219 1.506 . S
C220 C221 1.358 . S
C220 C225 1.382 . S
C221 C220 1.358 . S
C221 C222 1.385 . S
C221 H244 0.930 . S
C222 C221 1.385 . S
C222 C223 1.395 . S
C222 H245 0.929 . S
C223 C222 1.395 . S
C223 C224 1.335 . S
C224 C223 1.335 . S
C224 C225 1.398 . S
C224 H246 0.930 . S
C225 C220 1.382 . S
C225 C224 1.398 . S
C225 H247 0.929 . S
C226 O236 1.271 . S
C226 O237 1.251 . S
C227 O238 1.252 . S
C227 O239 1.272 1_556 S
O228 Sm208 2.543 . S
O228 C210 1.261 . S
O229 Sm208 2.450 . S
O229 C210 1.242 . S
O230 Sm208 2.681 . S
O230 Sm209 2.386 1_554 S
O230 C217 1.271 1_455 S
O231 Sm208 2.482 . S
O231 C217 1.238 1_455 S
O232 Sm208 2.396 . S
O232 C218 1.252 . S
O233 Sm209 2.408 1_554 S
O233 C218 1.272 . S
O234 Sm209 2.543 1_655 S
O234 C219 1.261 . S
O235 Sm209 2.435 1_655 S
O235 C219 1.267 . S
O236 Sm208 2.386 1_556 S
O236 Sm209 2.681 . S
O236 C226 1.271 . S
O237 Sm209 2.464 . S
O237 C226 1.251 . S
O238 Sm209 2.396 1_655 S
O238 C227 1.252 . S
O239 Sm208 2.408 1_655 S
O239 C227 1.272 1_554 S
H240 C212 0.930 . S
H241 C213 0.929 . S
H242 C215 0.930 . S
H243 C216 0.929 . S
H244 C221 0.930 . S
H245 C222 0.929 . S
H246 C224 0.930 . S
H247 C225 0.929 . S
C248 C249 1.349 . S
C248 C250 1.327 . S
C248 H273 0.950 . S
C249 C248 1.349 . S
C249 C265 1.349 . S
C250 C248 1.327 . S
C250 C269 1.429 . S
C250 H274 0.950 . S
C251 C268 1.574 . S
C251 C270 1.368 . S
C251 H275 0.949 . S
H252 C256 0.949 . S
C253 C254 1.349 . S
C253 C255 1.327 . S
C253 H276 0.950 . S
C254 C253 1.349 . S
C254 C266 1.349 . S
C255 C253 1.327 . S
C255 C271 1.429 . S
C255 H277 0.950 . S
C256 H252 0.949 . S
C256 C264 1.574 . S
C256 C272 1.368 . S
H257 C265 0.950 . S
H258 C263 0.950 . S
H259 C264 0.949 . S
H260 C266 0.950 . S
H261 C267 0.950 . S
H262 C268 0.949 . S
C263 H258 0.950 . S
C263 C265 1.327 . S
C263 C269 1.429 . S
C264 C256 1.574 . S
C264 H259 0.949 . S
C264 C270 1.368 . S
C265 C249 1.349 . S
C265 H257 0.950 . S
C265 C263 1.327 . S
C266 C254 1.349 . S
C266 H260 0.950 . S
C266 C267 1.327 . S
C267 H261 0.950 . S
C267 C266 1.327 . S
C267 C271 1.429 . S
C268 C251 1.574 . S
C268 H262 0.949 . S
C268 C272 1.368 . S
C269 C250 1.429 . S
C269 C263 1.429 . S
C269 C270 1.523 . S
C270 C251 1.368 . S
C270 C264 1.368 . S
C270 C269 1.523 . S
C271 C255 1.429 . S
C271 C267 1.429 . S
C271 C272 1.523 . S
C272 C256 1.368 . S
C272 C268 1.368 . S
C272 C271 1.523 . S
H273 C248 0.950 . S
H274 C250 0.950 . S
H275 C251 0.949 . S
H276 C253 0.950 . S
H277 C255 0.950 . S
C278 C279 1.349 . S
C278 C280 1.327 . S
C278 H303 0.950 . S
C279 C278 1.349 . S
C279 C295 1.349 . S
C280 C278 1.327 . S
C280 C299 1.429 . S
C280 H304 0.950 . S
C281 C298 1.574 . S
C281 C300 1.368 . S
C281 H305 0.949 . S
H282 C286 0.949 . S
C283 C284 1.349 . S
C283 C285 1.327 . S
C283 H306 0.950 . S
C284 C283 1.349 . S
C284 C296 1.349 . S
C285 C283 1.327 . S
C285 C301 1.429 . S
C285 H307 0.950 . S
C286 H282 0.949 . S
C286 C294 1.574 . S
C286 C302 1.368 . S
H287 C295 0.950 . S
H288 C293 0.950 . S
H289 C294 0.949 . S
H290 C296 0.950 . S
H291 C297 0.950 . S
H292 C298 0.949 . S
C293 H288 0.950 . S
C293 C295 1.327 . S
C293 C299 1.429 . S
C294 C286 1.574 . S
C294 H289 0.949 . S
C294 C300 1.368 . S
C295 C279 1.349 . S
C295 H287 0.950 . S
C295 C293 1.327 . S
C296 C284 1.349 . S
C296 H290 0.950 . S
C296 C297 1.327 . S
C297 H291 0.950 . S
C297 C296 1.327 . S
C297 C301 1.429 . S
C298 C281 1.574 . S
C298 H292 0.949 . S
C298 C302 1.368 . S
C299 C280 1.429 . S
C299 C293 1.429 . S
C299 C300 1.523 . S
C300 C281 1.368 . S
C300 C294 1.368 . S
C300 C299 1.523 . S
C301 C285 1.429 . S
C301 C297 1.429 . S
C301 C302 1.523 . S
C302 C286 1.368 . S
C302 C298 1.368 . S
C302 C301 1.523 . S
H303 C278 0.950 . S
H304 C280 0.950 . S
H305 C281 0.949 . S
H306 C283 0.950 . S
H307 C285 0.950 . S
C308 C309 1.349 . S
C308 C310 1.327 . S
C308 H333 0.950 . S
C309 C308 1.349 . S
C309 C325 1.349 . S
C310 C308 1.327 . S
C310 C329 1.429 . S
C310 H334 0.950 . S
C311 C328 1.574 . S
C311 C330 1.368 . S
C311 H335 0.949 . S
H312 C316 0.949 . S
C313 C314 1.349 . S
C313 C315 1.327 . S
C313 H336 0.950 . S
C314 C313 1.349 . S
C314 C326 1.349 . S
C315 C313 1.327 . S
C315 C331 1.429 . S
C315 H337 0.950 . S
C316 H312 0.949 . S
C316 C324 1.574 . S
C316 C332 1.368 . S
H317 C325 0.950 . S
H318 C323 0.950 . S
H319 C324 0.949 . S
H320 C326 0.950 . S
H321 C327 0.950 . S
H322 C328 0.949 . S
C323 H318 0.950 . S
C323 C325 1.327 . S
C323 C329 1.429 . S
C324 C316 1.574 . S
C324 H319 0.949 . S
C324 C330 1.368 . S
C325 C309 1.349 . S
C325 H317 0.950 . S
C325 C323 1.327 . S
C326 C314 1.349 . S
C326 H320 0.950 . S
C326 C327 1.327 . S
C327 H321 0.950 . S
C327 C326 1.327 . S
C327 C331 1.429 . S
C328 C311 1.574 . S
C328 H322 0.949 . S
C328 C332 1.368 . S
C329 C310 1.429 . S
C329 C323 1.429 . S
C329 C330 1.523 . S
C330 C311 1.368 . S
C330 C324 1.368 . S
C330 C329 1.523 . S
C331 C315 1.429 . S
C331 C327 1.429 . S
C331 C332 1.523 . S
C332 C316 1.368 . S
C332 C328 1.368 . S
C332 C331 1.523 . S
H333 C308 0.950 . S
H334 C310 0.950 . S
H335 C311 0.949 . S
H336 C313 0.950 . S
H337 C315 0.950 . S
C338 C339 1.349 . S
C338 C340 1.327 . S
C338 H363 0.950 . S
C339 C338 1.349 . S
C339 C355 1.349 . S
C340 C338 1.327 . S
C340 C359 1.429 . S
C340 H364 0.950 . S
C341 C358 1.574 . S
C341 C360 1.368 . S
C341 H365 0.949 . S
H342 C346 0.949 . S
C343 C344 1.349 . S
C343 C345 1.327 . S
C343 H366 0.950 . S
C344 C343 1.349 . S
C344 C356 1.348 . S
C345 C343 1.327 . S
C345 C361 1.429 . S
C345 H367 0.950 . S
C346 H342 0.949 . S
C346 C354 1.574 . S
C346 C362 1.368 . S
H347 C355 0.950 . S
H348 C353 0.950 . S
H349 C354 0.949 . S
H350 C356 0.951 1_455 S
H351 C357 0.950 1_455 S
H352 C358 0.949 . S
C353 H348 0.950 . S
C353 C355 1.327 . S
C353 C359 1.429 . S
C354 C346 1.574 . S
C354 H349 0.949 . S
C354 C360 1.368 . S
C355 C339 1.349 . S
C355 H347 0.950 . S
C355 C353 1.327 . S
C356 C344 1.348 . S
C356 H350 0.951 1_655 S
C356 C357 1.327 . S
C357 H351 0.950 1_655 S
C357 C356 1.327 . S
C357 C361 1.429 . S
C358 C341 1.574 . S
C358 H352 0.949 . S
C358 C362 1.368 . S
C359 C340 1.429 . S
C359 C353 1.429 . S
C359 C360 1.523 . S
C360 C341 1.368 . S
C360 C354 1.368 . S
C360 C359 1.523 . S
C361 C345 1.429 . S
C361 C357 1.429 . S
C361 C362 1.523 . S
C362 C346 1.368 . S
C362 C358 1.368 . S
C362 C361 1.523 . S
H363 C338 0.950 . S
H364 C340 0.950 . S
H365 C341 0.949 . S
H366 C343 0.950 . S
H367 C345 0.950 . S
C368 C369 1.349 . S
C368 C370 1.327 . S
C368 H393 0.950 . S
C369 C368 1.349 . S
C369 C385 1.349 . S
C370 C368 1.327 . S
C370 C389 1.429 . S
C370 H394 0.950 . S
C371 C388 1.574 . S
C371 C390 1.368 . S
C371 H395 0.949 . S
H372 C376 0.949 . S
C373 C374 1.349 . S
C373 C375 1.327 . S
C373 H396 0.950 . S
C374 C373 1.349 . S
C374 C386 1.349 . S
C375 C373 1.327 . S
C375 C391 1.429 . S
C375 H397 0.950 . S
C376 H372 0.949 . S
C376 C384 1.574 . S
C376 C392 1.368 . S
H377 C385 0.950 . S
H378 C383 0.950 . S
H379 C384 0.949 . S
H380 C386 0.950 . S
H381 C387 0.950 . S
H382 C388 0.949 . S
C383 H378 0.950 . S
C383 C385 1.327 . S
C383 C389 1.429 . S
C384 C376 1.574 . S
C384 H379 0.949 . S
C384 C390 1.368 . S
C385 C369 1.349 . S
C385 H377 0.950 . S
C385 C383 1.327 . S
C386 C374 1.349 . S
C386 H380 0.950 . S
C386 C387 1.327 . S
C387 H381 0.950 . S
C387 C386 1.327 . S
C387 C391 1.429 . S
C388 C371 1.574 . S
C388 H382 0.949 . S
C388 C392 1.368 . S
C389 C370 1.429 . S
C389 C383 1.429 . S
C389 C390 1.523 . S
C390 C371 1.368 . S
C390 C384 1.368 . S
C390 C389 1.523 . S
C391 C375 1.429 . S
C391 C387 1.429 . S
C391 C392 1.523 . S
C392 C376 1.368 . S
C392 C388 1.368 . S
C392 C391 1.523 . S
H393 C368 0.950 . S
H394 C370 0.950 . S
H395 C371 0.949 . S
H396 C373 0.950 . S
H397 C375 0.950 . S
C398 C399 1.349 . S
C398 C400 1.327 . S
C398 H423 0.950 . S
C399 C398 1.349 . S
C399 C415 1.349 . S
C400 C398 1.327 . S
C400 C419 1.429 . S
C400 H424 0.950 . S
C401 C418 1.574 . S
C401 C420 1.368 . S
C401 H425 0.949 . S
H402 C406 0.949 . S
C403 C404 1.349 . S
C403 C405 1.327 . S
C403 H426 0.950 . S
C404 C403 1.349 . S
C404 C416 1.349 . S
C405 C403 1.327 . S
C405 C421 1.429 . S
C405 H427 0.950 . S
C406 H402 0.949 . S
C406 C414 1.574 . S
C406 C422 1.368 . S
H407 C415 0.950 . S
H408 C413 0.950 . S
H409 C414 0.949 . S
H410 C416 0.950 1_545 S
H411 C417 0.950 . S
H412 C418 0.949 . S
C413 H408 0.950 . S
C413 C415 1.327 . S
C413 C419 1.429 . S
C414 C406 1.574 . S
C414 H409 0.949 . S
C414 C420 1.368 . S
C415 C399 1.349 . S
C415 H407 0.950 . S
C415 C413 1.327 . S
C416 C404 1.349 . S
C416 H410 0.950 1_565 S
C416 C417 1.327 . S
C417 H411 0.950 . S
C417 C416 1.327 . S
C417 C421 1.429 . S
C418 C401 1.574 . S
C418 H412 0.949 . S
C418 C422 1.368 . S
C419 C400 1.429 . S
C419 C413 1.429 . S
C419 C420 1.523 . S
C420 C401 1.368 . S
C420 C414 1.368 . S
C420 C419 1.523 . S
C421 C405 1.429 . S
C421 C417 1.429 . S
C421 C422 1.523 . S
C422 C406 1.368 . S
C422 C418 1.368 . S
C422 C421 1.523 . S
H423 C398 0.950 . S
H424 C400 0.950 . S
H425 C401 0.949 . S
H426 C403 0.950 . S
H427 C405 0.950 . S
C428 C429 1.349 . S
C428 C430 1.327 . S
C428 H453 0.950 . S
C429 C428 1.349 . S
C429 C445 1.349 . S
C430 C428 1.327 . S
C430 C449 1.429 . S
C430 H454 0.950 . S
C431 C448 1.574 . S
C431 C450 1.368 . S
C431 H455 0.949 . S
H432 C436 0.949 . S
C433 C434 1.349 . S
C433 C435 1.327 . S
C433 H456 0.950 . S
C434 C433 1.349 . S
C434 C446 1.349 . S
C435 C433 1.327 . S
C435 C451 1.429 . S
C435 H457 0.950 . S
C436 H432 0.949 . S
C436 C444 1.574 . S
C436 C452 1.368 . S
H437 C445 0.950 . S
H438 C443 0.950 . S
H439 C444 0.949 . S
H440 C446 0.950 . S
H441 C447 0.950 . S
H442 C448 0.949 . S
C443 H438 0.950 . S
C443 C445 1.327 . S
C443 C449 1.429 . S
C444 C436 1.574 . S
C444 H439 0.949 . S
C444 C450 1.368 . S
C445 C429 1.349 . S
C445 H437 0.950 . S
C445 C443 1.327 . S
C446 C434 1.349 . S
C446 H440 0.950 . S
C446 C447 1.327 . S
C447 H441 0.950 . S
C447 C446 1.327 . S
C447 C451 1.429 . S
C448 C431 1.574 . S
C448 H442 0.949 . S
C448 C452 1.368 . S
C449 C430 1.429 . S
C449 C443 1.429 . S
C449 C450 1.523 . S
C450 C431 1.368 . S
C450 C444 1.368 . S
C450 C449 1.523 . S
C451 C435 1.429 . S
C451 C447 1.429 . S
C451 C452 1.523 . S
C452 C436 1.368 . S
C452 C448 1.368 . S
C452 C451 1.523 . S
H453 C428 0.950 . S
H454 C430 0.950 . S
H455 C431 0.949 . S
H456 C433 0.950 . S
H457 C435 0.950 . S
C458 C459 1.349 . S
C458 C460 1.327 . S
C458 H483 0.950 . S
C459 C458 1.349 . S
C459 C475 1.349 . S
C460 C458 1.327 . S
C460 C479 1.429 . S
C460 H484 0.950 . S
C461 C478 1.574 . S
C461 C480 1.368 . S
C461 H485 0.949 . S
H462 C466 0.949 . S
C463 C464 1.349 . S
C463 C465 1.327 . S
C463 H486 0.950 . S
C464 C463 1.349 . S
C464 C476 1.349 . S
C465 C463 1.327 . S
C465 C481 1.429 . S
C465 H487 0.950 . S
C466 H462 0.949 . S
C466 C474 1.574 . S
C466 C482 1.368 . S
H467 C475 0.950 . S
H468 C473 0.950 . S
H469 C474 0.949 . S
H470 C476 0.950 . S
H471 C477 0.950 . S
H472 C478 0.949 . S
C473 H468 0.950 . S
C473 C475 1.327 . S
C473 C479 1.429 . S
C474 C466 1.574 . S
C474 H469 0.949 . S
C474 C480 1.368 . S
C475 C459 1.349 . S
C475 H467 0.950 . S
C475 C473 1.327 . S
C476 C464 1.349 . S
C476 H470 0.950 . S
C476 C477 1.327 . S
C477 H471 0.950 . S
C477 C476 1.327 . S
C477 C481 1.429 . S
C478 C461 1.574 . S
C478 H472 0.949 . S
C478 C482 1.368 . S
C479 C460 1.429 . S
C479 C473 1.429 . S
C479 C480 1.523 . S
C480 C461 1.368 . S
C480 C474 1.368 . S
C480 C479 1.523 . S
C481 C465 1.429 . S
C481 C477 1.429 . S
C481 C482 1.523 . S
C482 C466 1.368 . S
C482 C478 1.368 . S
C482 C481 1.523 . S
H483 C458 0.950 . S
H484 C460 0.950 . S
H485 C461 0.949 . S
H486 C463 0.950 . S
H487 C465 0.950 . S
C488 C489 1.349 . S
C488 C490 1.327 . S
C488 H513 0.950 . S
C489 C488 1.349 . S
C489 C505 1.349 . S
C490 C488 1.327 . S
C490 C509 1.429 . S
C490 H514 0.950 . S
C491 C508 1.574 . S
C491 C510 1.368 . S
C491 H515 0.949 . S
H492 C496 0.949 . S
C493 C494 1.349 . S
C493 C495 1.327 . S
C493 H516 0.950 . S
C494 C493 1.349 . S
C494 C506 1.349 . S
C495 C493 1.327 . S
C495 C511 1.429 . S
C495 H517 0.950 . S
C496 H492 0.949 . S
C496 C504 1.574 . S
C496 C512 1.368 . S
H497 C505 0.950 . S
H498 C503 0.950 . S
H499 C504 0.949 . S
H500 C506 0.950 . S
H501 C507 0.950 . S
H502 C508 0.949 . S
C503 H498 0.950 . S
C503 C505 1.327 . S
C503 C509 1.429 . S
C504 C496 1.574 . S
C504 H499 0.949 . S
C504 C510 1.368 . S
C505 C489 1.349 . S
C505 H497 0.950 . S
C505 C503 1.327 . S
C506 C494 1.349 . S
C506 H500 0.950 . S
C506 C507 1.327 . S
C507 H501 0.950 . S
C507 C506 1.327 . S
C507 C511 1.429 . S
C508 C491 1.574 . S
C508 H502 0.949 . S
C508 C512 1.368 . S
C509 C490 1.429 . S
C509 C503 1.429 . S
C509 C510 1.523 . S
C510 C491 1.368 . S
C510 C504 1.368 . S
C510 C509 1.523 . S
C511 C495 1.429 . S
C511 C507 1.429 . S
C511 C512 1.523 . S
C512 C496 1.368 . S
C512 C508 1.368 . S
C512 C511 1.523 . S
H513 C488 0.950 . S
H514 C490 0.950 . S
H515 C491 0.949 . S
H516 C493 0.950 . S
H517 C495 0.950 . S
C518 C519 1.349 . S
C518 C520 1.327 . S
C518 H543 0.950 . S
C519 C518 1.349 . S
C519 C535 1.349 . S
C520 C518 1.327 . S
C520 C539 1.429 . S
C520 H544 0.950 . S
C521 C538 1.574 . S
C521 C540 1.368 . S
C521 H545 0.949 . S
H522 C526 0.949 . S
C523 C524 1.336 1_556 S
C523 C525 1.348 . S
C523 H546 0.939 1_556 S
C524 C523 1.336 1_554 S
C524 C536 1.349 . S
C525 C523 1.348 . S
C525 C541 1.429 . S
C525 H547 0.950 . S
C526 H522 0.949 . S
C526 C534 1.574 . S
C526 C542 1.368 . S
H527 C535 0.950 . S
H528 C533 0.950 . S
H529 C534 0.949 . S
H530 C536 0.950 . S
H531 C537 0.950 . S
H532 C538 0.949 . S
C533 H528 0.950 . S
C533 C535 1.327 . S
C533 C539 1.429 . S
C534 C526 1.574 . S
C534 H529 0.949 . S
C534 C540 1.368 . S
C535 C519 1.349 . S
C535 H527 0.950 . S
C535 C533 1.327 . S
C536 C524 1.349 . S
C536 H530 0.950 . S
C536 C537 1.327 1_554 S
C537 H531 0.950 . S
C537 C536 1.327 1_556 S
C537 C541 1.429 . S
C538 C521 1.574 . S
C538 H532 0.949 . S
C538 C542 1.368 . S
C539 C520 1.429 . S
C539 C533 1.429 . S
C539 C540 1.523 . S
C540 C521 1.368 . S
C540 C534 1.368 . S
C540 C539 1.523 . S
C541 C525 1.429 . S
C541 C537 1.429 . S
C541 C542 1.523 . S
C542 C526 1.368 . S
C542 C538 1.368 . S
C542 C541 1.523 . S
H543 C518 0.950 . S
H544 C520 0.950 . S
H545 C521 0.949 . S
H546 C523 0.939 1_554 S
H547 C525 0.950 . S
C548 C549 1.349 . S
C548 C550 1.327 . S
C548 H573 0.950 . S
C549 C548 1.349 . S
C549 C565 1.349 . S
C550 C548 1.327 . S
C550 C569 1.429 . S
C550 H574 0.950 . S
C551 C568 1.574 . S
C551 C570 1.368 . S
C551 H575 0.949 . S
H552 C556 0.949 . S
C553 C554 1.349 . S
C553 C555 1.327 . S
C553 H576 0.950 . S
C554 C553 1.349 . S
C554 C566 1.349 . S
C555 C553 1.327 . S
C555 C571 1.429 . S
C555 H577 0.950 . S
C556 H552 0.949 . S
C556 C564 1.574 . S
C556 C572 1.368 . S
H557 C565 0.950 . S
H558 C563 0.950 . S
H559 C564 0.949 . S
H560 C566 0.950 . S
H561 C567 0.950 . S
H562 C568 0.949 . S
C563 H558 0.950 . S
C563 C565 1.327 . S
C563 C569 1.429 . S
C564 C556 1.574 . S
C564 H559 0.949 . S
C564 C570 1.368 . S
C565 C549 1.349 . S
C565 H557 0.950 . S
C565 C563 1.327 . S
C566 C554 1.349 . S
C566 H560 0.950 . S
C566 C567 1.327 . S
C567 H561 0.950 . S
C567 C566 1.327 . S
C567 C571 1.429 . S
C568 C551 1.574 . S
C568 H562 0.949 . S
C568 C572 1.368 . S
C569 C550 1.429 . S
C569 C563 1.429 . S
C569 C570 1.523 . S
C570 C551 1.368 . S
C570 C564 1.368 . S
C570 C569 1.523 . S
C571 C555 1.429 . S
C571 C567 1.429 . S
C571 C572 1.523 . S
C572 C556 1.368 . S
C572 C568 1.368 . S
C572 C571 1.523 . S
H573 C548 0.950 . S
H574 C550 0.950 . S
H575 C551 0.949 . S
H576 C553 0.950 . S
H577 C555 0.950 . S
C578 C579 1.349 . S
C578 C580 1.327 . S
C578 H603 0.950 . S
C579 C578 1.349 . S
C579 C595 1.349 . S
C580 C578 1.327 . S
C580 C599 1.429 . S
C580 H604 0.950 . S
C581 C598 1.574 . S
C581 C600 1.368 . S
C581 H605 0.949 . S
H582 C586 0.949 . S
C583 C584 1.349 . S
C583 C585 1.327 . S
C583 H606 0.950 . S
C584 C583 1.349 . S
C584 C596 1.349 . S
C585 C583 1.327 . S
C585 C601 1.429 . S
C585 H607 0.950 . S
C586 H582 0.949 . S
C586 C594 1.574 . S
C586 C602 1.368 . S
H587 C595 0.950 . S
H588 C593 0.950 . S
H589 C594 0.949 . S
H590 C596 0.950 . S
H591 C597 0.950 . S
H592 C598 0.949 . S
C593 H588 0.950 . S
C593 C595 1.327 . S
C593 C599 1.429 . S
C594 C586 1.574 . S
C594 H589 0.949 . S
C594 C600 1.368 . S
C595 C579 1.349 . S
C595 H587 0.950 . S
C595 C593 1.327 . S
C596 C584 1.349 . S
C596 H590 0.950 . S
C596 C597 1.327 . S
C597 H591 0.950 . S
C597 C596 1.327 . S
C597 C601 1.429 . S
C598 C581 1.574 . S
C598 H592 0.949 . S
C598 C602 1.368 . S
C599 C580 1.429 . S
C599 C593 1.429 . S
C599 C600 1.523 . S
C600 C581 1.368 . S
C600 C594 1.368 . S
C600 C599 1.523 . S
C601 C585 1.429 . S
C601 C597 1.429 . S
C601 C602 1.523 . S
C602 C586 1.368 . S
C602 C598 1.368 . S
C602 C601 1.523 . S
H603 C578 0.950 . S
H604 C580 0.950 . S
H605 C581 0.949 . S
H606 C583 0.950 . S
H607 C585 0.950 . S
C608 C609 1.349 . S
C608 C610 1.327 . S
C608 H633 0.950 . S
C609 C608 1.349 . S
C609 C625 1.349 . S
C610 C608 1.327 . S
C610 C629 1.429 . S
C610 H634 0.950 . S
C611 C628 1.574 . S
C611 C630 1.368 . S
C611 H635 0.949 . S
H612 C616 0.949 . S
C613 C614 1.349 . S
C613 C615 1.327 . S
C613 H636 0.950 . S
C614 C613 1.349 . S
C614 C626 1.349 . S
C615 C613 1.327 . S
C615 C631 1.429 . S
C615 H637 0.950 . S
C616 H612 0.949 . S
C616 C624 1.574 . S
C616 C632 1.368 . S
H617 C625 0.950 . S
H618 C623 0.950 . S
H619 C624 0.949 . S
H620 C626 0.950 . S
H621 C627 0.950 . S
H622 C628 0.949 . S
C623 H618 0.950 . S
C623 C625 1.327 . S
C623 C629 1.429 . S
C624 C616 1.574 . S
C624 H619 0.949 . S
C624 C630 1.368 . S
C625 C609 1.349 . S
C625 H617 0.950 . S
C625 C623 1.327 . S
C626 C614 1.349 . S
C626 H620 0.950 . S
C626 C627 1.327 . S
C627 H621 0.950 . S
C627 C626 1.327 . S
C627 C631 1.429 . S
C628 C611 1.574 . S
C628 H622 0.949 . S
C628 C632 1.368 . S
C629 C610 1.429 . S
C629 C623 1.429 . S
C629 C630 1.523 . S
C630 C611 1.368 . S
C630 C624 1.368 . S
C630 C629 1.523 . S
C631 C615 1.429 . S
C631 C627 1.429 . S
C631 C632 1.523 . S
C632 C616 1.368 . S
C632 C628 1.368 . S
C632 C631 1.523 . S
H633 C608 0.950 . S
H634 C610 0.950 . S
H635 C611 0.949 . S
H636 C613 0.950 . S
H637 C615 0.950 . S
C638 C639 1.349 . S
C638 C640 1.327 . S
C638 H663 0.950 . S
C639 C638 1.349 . S
C639 C655 1.349 . S
C640 C638 1.327 . S
C640 C659 1.429 . S
C640 H664 0.950 . S
C641 C658 1.574 . S
C641 C660 1.368 . S
C641 H665 0.949 . S
H642 C646 0.949 . S
C643 C644 1.349 . S
C643 C645 1.327 . S
C643 H666 0.950 . S
C644 C643 1.349 . S
C644 C656 1.349 . S
C645 C643 1.327 . S
C645 C661 1.429 . S
C645 H667 0.950 . S
C646 H642 0.949 . S
C646 C654 1.574 . S
C646 C662 1.368 . S
H647 C655 0.950 . S
H648 C653 0.950 . S
H649 C654 0.949 . S
H650 C656 0.950 . S
H651 C657 0.950 . S
H652 C658 0.949 . S
C653 H648 0.950 . S
C653 C655 1.327 . S
C653 C659 1.429 . S
C654 C646 1.574 . S
C654 H649 0.949 . S
C654 C660 1.368 . S
C655 C639 1.349 . S
C655 H647 0.950 . S
C655 C653 1.327 . S
C656 C644 1.349 . S
C656 H650 0.950 . S
C656 C657 1.327 . S
C657 H651 0.950 . S
C657 C656 1.327 . S
C657 C661 1.429 . S
C658 C641 1.574 . S
C658 H652 0.949 . S
C658 C662 1.368 . S
C659 C640 1.429 . S
C659 C653 1.429 . S
C659 C660 1.523 . S
C660 C641 1.368 . S
C660 C654 1.368 . S
C660 C659 1.523 . S
C661 C645 1.429 . S
C661 C657 1.429 . S
C661 C662 1.523 . S
C662 C646 1.368 . S
C662 C658 1.368 . S
C662 C661 1.523 . S
H663 C638 0.950 . S
H664 C640 0.950 . S
H665 C641 0.949 . S
H666 C643 0.950 . S
H667 C645 0.950 . S
C668 C669 1.349 . S
C668 C670 1.327 . S
C668 H693 0.950 . S
C669 C668 1.349 . S
C669 C685 1.349 . S
C670 C668 1.327 . S
C670 C689 1.429 . S
C670 H694 0.950 . S
C671 C688 1.574 . S
C671 C690 1.368 . S
C671 H695 0.949 . S
H672 C676 0.949 . S
C673 C674 1.349 . S
C673 C675 1.327 . S
C673 H696 0.950 . S
C674 C673 1.349 . S
C674 C686 1.349 . S
C675 C673 1.327 . S
C675 C691 1.429 . S
C675 H697 0.950 . S
C676 H672 0.949 . S
C676 C684 1.574 . S
C676 C692 1.368 . S
H677 C685 0.950 . S
H678 C683 0.950 . S
H679 C684 0.949 . S
H680 C686 0.950 . S
H681 C687 0.950 . S
H682 C688 0.949 . S
C683 H678 0.950 . S
C683 C685 1.327 . S
C683 C689 1.429 . S
C684 C676 1.574 . S
C684 H679 0.949 . S
C684 C690 1.368 . S
C685 C669 1.349 . S
C685 H677 0.950 . S
C685 C683 1.327 . S
C686 C674 1.349 . S
C686 H680 0.950 . S
C686 C687 1.327 . S
C687 H681 0.950 . S
C687 C686 1.327 . S
C687 C691 1.429 . S
C688 C671 1.574 . S
C688 H682 0.949 . S
C688 C692 1.368 . S
C689 C670 1.429 . S
C689 C683 1.429 . S
C689 C690 1.523 . S
C690 C671 1.368 . S
C690 C684 1.368 . S
C690 C689 1.523 . S
C691 C675 1.429 . S
C691 C687 1.429 . S
C691 C692 1.523 . S
C692 C676 1.368 . S
C692 C688 1.368 . S
C692 C691 1.523 . S
H693 C668 0.950 . S
H694 C670 0.950 . S
H695 C671 0.949 . S
H696 C673 0.950 . S
H697 C675 0.950 . S
C698 C699 1.349 . S
C698 C700 1.327 . S
C698 H723 0.950 . S
C699 C698 1.349 . S
C699 C715 1.349 . S
C700 C698 1.327 . S
C700 C719 1.429 . S
C700 H724 0.950 . S
C701 C718 1.574 . S
C701 C720 1.368 . S
C701 H725 0.949 . S
H702 C706 0.949 . S
C703 C704 1.349 . S
C703 C705 1.327 . S
C703 H726 0.950 . S
C704 C703 1.349 . S
C704 C716 1.349 . S
C705 C703 1.327 . S
C705 C721 1.429 . S
C705 H727 0.950 . S
C706 H702 0.949 . S
C706 C714 1.574 . S
C706 C722 1.368 . S
H707 C715 0.950 . S
H708 C713 0.950 . S
H709 C714 0.949 . S
H710 C716 0.950 . S
H711 C717 0.950 . S
H712 C718 0.949 . S
C713 H708 0.950 . S
C713 C715 1.327 . S
C713 C719 1.429 . S
C714 C706 1.574 . S
C714 H709 0.949 . S
C714 C720 1.368 . S
C715 C699 1.349 . S
C715 H707 0.950 . S
C715 C713 1.327 . S
C716 C704 1.349 . S
C716 H710 0.950 . S
C716 C717 1.327 . S
C717 H711 0.950 . S
C717 C716 1.327 . S
C717 C721 1.429 . S
C718 C701 1.574 . S
C718 H712 0.949 . S
C718 C722 1.368 . S
C719 C700 1.429 . S
C719 C713 1.429 . S
C719 C720 1.523 . S
C720 C701 1.368 . S
C720 C714 1.368 . S
C720 C719 1.523 . S
C721 C705 1.429 . S
C721 C717 1.429 . S
C721 C722 1.523 . S
C722 C706 1.368 . S
C722 C718 1.368 . S
C722 C721 1.523 . S
H723 C698 0.950 . S
H724 C700 0.950 . S
H725 C701 0.949 . S
H726 C703 0.950 . S
H727 C705 0.950 . S
C728 C729 1.349 . S
C728 C730 1.327 . S
C728 H753 0.950 . S
C729 C728 1.349 . S
C729 C745 1.349 . S
C730 C728 1.327 . S
C730 C749 1.429 . S
C730 H754 0.950 . S
C731 C748 1.574 . S
C731 C750 1.368 . S
C731 H755 0.949 . S
H732 C736 0.949 . S
C733 C734 1.349 . S
C733 C735 1.327 . S
C733 H756 0.950 1_556 S
C734 C733 1.349 . S
C734 C746 1.349 . S
C735 C733 1.327 . S
C735 C751 1.429 . S
C735 H757 0.950 . S
C736 H732 0.949 . S
C736 C744 1.574 . S
C736 C752 1.368 . S
H737 C745 0.950 . S
H738 C743 0.950 . S
H739 C744 0.949 . S
H740 C746 0.950 . S
H741 C747 0.950 . S
H742 C748 0.949 . S
C743 H738 0.950 . S
C743 C745 1.327 . S
C743 C749 1.429 . S
C744 C736 1.574 . S
C744 H739 0.949 . S
C744 C750 1.368 . S
C745 C729 1.349 . S
C745 H737 0.950 . S
C745 C743 1.327 . S
C746 C734 1.349 . S
C746 H740 0.950 . S
C746 C747 1.327 . S
C747 H741 0.950 . S
C747 C746 1.327 . S
C747 C751 1.429 . S
C748 C731 1.574 . S
C748 H742 0.949 . S
C748 C752 1.368 . S
C749 C730 1.429 . S
C749 C743 1.429 . S
C749 C750 1.523 . S
C750 C731 1.368 . S
C750 C744 1.368 . S
C750 C749 1.523 . S
C751 C735 1.429 . S
C751 C747 1.429 . S
C751 C752 1.523 . S
C752 C736 1.368 . S
C752 C748 1.368 . S
C752 C751 1.523 . S
H753 C728 0.950 . S
H754 C730 0.950 . S
H755 C731 0.949 . S
H756 C733 0.950 1_554 S
H757 C735 0.950 . S
C758 C759 1.349 . S
C758 C760 1.327 . S
C758 H783 0.950 . S
C759 C758 1.349 . S
C759 C775 1.349 . S
C760 C758 1.327 . S
C760 C779 1.429 . S
C760 H784 0.950 . S
C761 C778 1.574 . S
C761 C780 1.368 . S
C761 H785 0.949 . S
H762 C766 0.949 . S
C763 C764 1.349 . S
C763 C765 1.327 . S
C763 H786 0.950 . S
C764 C763 1.349 . S
C764 C776 1.349 . S
C765 C763 1.327 . S
C765 C781 1.429 . S
C765 H787 0.950 . S
C766 H762 0.949 . S
C766 C774 1.574 . S
C766 C782 1.368 . S
H767 C775 0.950 . S
H768 C773 0.950 . S
H769 C774 0.949 . S
H770 C776 0.950 . S
H771 C777 0.950 . S
H772 C778 0.949 . S
C773 H768 0.950 . S
C773 C775 1.327 . S
C773 C779 1.429 . S
C774 C766 1.574 . S
C774 H769 0.949 . S
C774 C780 1.368 . S
C775 C759 1.349 . S
C775 H767 0.950 . S
C775 C773 1.327 . S
C776 C764 1.349 . S
C776 H770 0.950 . S
C776 C777 1.327 . S
C777 H771 0.950 . S
C777 C776 1.327 . S
C777 C781 1.429 . S
C778 C761 1.574 . S
C778 H772 0.949 . S
C778 C782 1.368 . S
C779 C760 1.429 . S
C779 C773 1.429 . S
C779 C780 1.523 . S
C780 C761 1.368 . S
C780 C774 1.368 . S
C780 C779 1.523 . S
C781 C765 1.429 . S
C781 C777 1.429 . S
C781 C782 1.523 . S
C782 C766 1.368 . S
C782 C778 1.368 . S
C782 C781 1.523 . S
H783 C758 0.950 . S
H784 C760 0.950 . S
H785 C761 0.949 . S
H786 C763 0.950 . S
H787 C765 0.950 . S
C788 C789 1.349 . S
C788 C790 1.327 . S
C788 H813 0.950 . S
C789 C788 1.349 . S
C789 C805 1.349 . S
C790 C788 1.327 . S
C790 C809 1.429 . S
C790 H814 0.950 . S
C791 C808 1.574 . S
C791 C810 1.368 . S
C791 H815 0.949 . S
H792 C796 0.949 . S
C793 C794 1.349 . S
C793 C795 1.327 . S
C793 H816 0.950 . S
C794 C793 1.349 . S
C794 C806 1.349 . S
C795 C793 1.327 . S
C795 C811 1.429 . S
C795 H817 0.950 . S
C796 H792 0.949 . S
C796 C804 1.574 . S
C796 C812 1.368 . S
H797 C805 0.950 . S
H798 C803 0.950 . S
H799 C804 0.949 . S
H800 C806 0.950 . S
H801 C807 0.950 . S
H802 C808 0.949 . S
C803 H798 0.950 . S
C803 C805 1.327 . S
C803 C809 1.429 . S
C804 C796 1.574 . S
C804 H799 0.949 . S
C804 C810 1.368 . S
C805 C789 1.349 . S
C805 H797 0.950 . S
C805 C803 1.327 . S
C806 C794 1.349 . S
C806 H800 0.950 . S
C806 C807 1.327 . S
C807 H801 0.950 . S
C807 C806 1.327 . S
C807 C811 1.429 . S
C808 C791 1.574 . S
C808 H802 0.949 . S
C808 C812 1.368 . S
C809 C790 1.429 . S
C809 C803 1.429 . S
C809 C810 1.523 . S
C810 C791 1.368 . S
C810 C804 1.368 . S
C810 C809 1.523 . S
C811 C795 1.429 . S
C811 C807 1.429 . S
C811 C812 1.523 . S
C812 C796 1.368 . S
C812 C808 1.368 . S
C812 C811 1.523 . S
H813 C788 0.950 . S
H814 C790 0.950 . S
H815 C791 0.949 . S
H816 C793 0.950 . S
H817 C795 0.950 . S
C818 C819 1.349 . S
C818 C820 1.327 . S
C818 H843 0.950 . S
C819 C818 1.349 . S
C819 C835 1.349 . S
C820 C818 1.327 . S
C820 C839 1.429 . S
C820 H844 0.950 . S
C821 C838 1.574 . S
C821 C840 1.368 . S
C821 H845 0.949 . S
H822 C826 0.949 . S
C823 C824 1.349 . S
C823 C825 1.327 . S
C823 H846 0.950 . S
C824 C823 1.349 . S
C824 C836 1.349 . S
C825 C823 1.327 . S
C825 C841 1.429 . S
C825 H847 0.950 . S
C826 H822 0.949 . S
C826 C834 1.574 . S
C826 C842 1.368 . S
H827 C835 0.950 . S
H828 C833 0.950 . S
H829 C834 0.949 . S
H830 C836 0.950 . S
H831 C837 0.950 . S
H832 C838 0.949 . S
C833 H828 0.950 . S
C833 C835 1.327 . S
C833 C839 1.429 . S
C834 C826 1.574 . S
C834 H829 0.949 . S
C834 C840 1.368 . S
C835 C819 1.349 . S
C835 H827 0.950 . S
C835 C833 1.327 . S
C836 C824 1.349 . S
C836 H830 0.950 . S
C836 C837 1.327 . S
C837 H831 0.950 . S
C837 C836 1.327 . S
C837 C841 1.429 . S
C838 C821 1.574 . S
C838 H832 0.949 . S
C838 C842 1.368 . S
C839 C820 1.429 . S
C839 C833 1.429 . S
C839 C840 1.523 . S
C840 C821 1.368 . S
C840 C834 1.368 . S
C840 C839 1.523 . S
C841 C825 1.429 . S
C841 C837 1.429 . S
C841 C842 1.523 . S
C842 C826 1.368 . S
C842 C838 1.368 . S
C842 C841 1.523 . S
H843 C818 0.950 . S
H844 C820 0.950 . S
H845 C821 0.949 . S
H846 C823 0.950 . S
H847 C825 0.950 . S
C848 C849 1.349 . S
C848 C850 1.327 . S
C848 H873 0.950 . S
C849 C848 1.349 . S
C849 C865 1.349 . S
C850 C848 1.327 . S
C850 C869 1.429 . S
C850 H874 0.950 . S
C851 C868 1.574 . S
C851 C870 1.368 . S
C851 H875 0.949 . S
H852 C856 0.949 . S
C853 C854 1.349 . S
C853 C855 1.327 . S
C853 H876 0.950 . S
C854 C853 1.349 . S
C854 C866 1.349 . S
C855 C853 1.327 . S
C855 C871 1.429 . S
C855 H877 0.950 . S
C856 H852 0.949 . S
C856 C864 1.574 . S
C856 C872 1.368 . S
H857 C865 0.950 . S
H858 C863 0.950 . S
H859 C864 0.949 . S
H860 C866 0.950 . S
H861 C867 0.950 . S
H862 C868 0.949 . S
C863 H858 0.950 . S
C863 C865 1.327 . S
C863 C869 1.429 . S
C864 C856 1.574 . S
C864 H859 0.949 . S
C864 C870 1.368 . S
C865 C849 1.349 . S
C865 H857 0.950 . S
C865 C863 1.327 . S
C866 C854 1.349 . S
C866 H860 0.950 . S
C866 C867 1.327 . S
C867 H861 0.950 . S
C867 C866 1.327 . S
C867 C871 1.429 . S
C868 C851 1.574 . S
C868 H862 0.949 . S
C868 C872 1.368 . S
C869 C850 1.429 . S
C869 C863 1.429 . S
C869 C870 1.523 . S
C870 C851 1.368 . S
C870 C864 1.368 . S
C870 C869 1.523 . S
C871 C855 1.429 . S
C871 C867 1.429 . S
C871 C872 1.523 . S
C872 C856 1.368 . S
C872 C868 1.368 . S
C872 C871 1.523 . S
H873 C848 0.950 . S
H874 C850 0.950 . S
H875 C851 0.949 . S
H876 C853 0.950 . S
H877 C855 0.950 . S
C878 C879 1.349 . S
C878 C880 1.327 . S
C878 H903 0.950 . S
C879 C878 1.349 . S
C879 C895 1.349 . S
C880 C878 1.327 . S
C880 C899 1.429 . S
C880 H904 0.950 . S
C881 C898 1.574 . S
C881 C900 1.368 . S
C881 H905 0.949 . S
H882 C886 0.949 . S
C883 C884 1.349 . S
C883 C885 1.327 . S
C883 H906 0.950 . S
C884 C883 1.349 . S
C884 C896 1.349 . S
C885 C883 1.327 . S
C885 C901 1.429 . S
C885 H907 0.950 . S
C886 H882 0.949 . S
C886 C894 1.574 . S
C886 C902 1.368 . S
H887 C895 0.950 . S
H888 C893 0.950 . S
H889 C894 0.949 . S
H890 C896 0.950 . S
H891 C897 0.950 . S
H892 C898 0.949 . S
C893 H888 0.950 . S
C893 C895 1.327 . S
C893 C899 1.429 . S
C894 C886 1.574 . S
C894 H889 0.949 . S
C894 C900 1.368 . S
C895 C879 1.349 . S
C895 H887 0.950 . S
C895 C893 1.327 . S
C896 C884 1.349 . S
C896 H890 0.950 . S
C896 C897 1.327 . S
C897 H891 0.950 . S
C897 C896 1.327 . S
C897 C901 1.429 . S
C898 C881 1.574 . S
C898 H892 0.949 . S
C898 C902 1.368 . S
C899 C880 1.429 . S
C899 C893 1.429 . S
C899 C900 1.523 . S
C900 C881 1.368 . S
C900 C894 1.368 . S
C900 C899 1.523 . S
C901 C885 1.429 . S
C901 C897 1.429 . S
C901 C902 1.523 . S
C902 C886 1.368 . S
C902 C898 1.368 . S
C902 C901 1.523 . S
H903 C878 0.950 . S
H904 C880 0.950 . S
H905 C881 0.949 . S
H906 C883 0.950 . S
H907 C885 0.950 . S
C908 C909 1.349 . S
C908 C910 1.327 . S
C908 H933 0.950 . S
C909 C908 1.349 . S
C909 C925 1.349 . S
C910 C908 1.327 . S
C910 C929 1.429 . S
C910 H934 0.950 . S
C911 C928 1.574 . S
C911 C930 1.368 . S
C911 H935 0.949 . S
H912 C916 0.949 . S
C913 C914 1.349 . S
C913 C915 1.327 . S
C913 H936 0.950 . S
C914 C913 1.349 . S
C914 C926 1.349 . S
C915 C913 1.327 . S
C915 C931 1.429 . S
C915 H937 0.950 . S
C916 H912 0.949 . S
C916 C924 1.574 . S
C916 C932 1.368 . S
H917 C925 0.950 . S
H918 C923 0.950 . S
H919 C924 0.949 . S
H920 C926 0.950 . S
H921 C927 0.950 . S
H922 C928 0.949 . S
C923 H918 0.950 . S
C923 C925 1.327 . S
C923 C929 1.429 . S
C924 C916 1.574 . S
C924 H919 0.949 . S
C924 C930 1.368 . S
C925 C909 1.349 . S
C925 H917 0.950 . S
C925 C923 1.327 . S
C926 C914 1.349 . S
C926 H920 0.950 . S
C926 C927 1.327 . S
C927 H921 0.950 . S
C927 C926 1.327 . S
C927 C931 1.429 . S
C928 C911 1.574 . S
C928 H922 0.949 . S
C928 C932 1.368 . S
C929 C910 1.429 . S
C929 C923 1.429 . S
C929 C930 1.523 . S
C930 C911 1.368 . S
C930 C924 1.368 . S
C930 C929 1.523 . S
C931 C915 1.429 . S
C931 C927 1.429 . S
C931 C932 1.523 . S
C932 C916 1.368 . S
C932 C928 1.368 . S
C932 C931 1.523 . S
H933 C908 0.950 . S
H934 C910 0.950 . S
H935 C911 0.949 . S
H936 C913 0.950 . S
H937 C915 0.950 . S
C938 C939 1.349 . S
C938 C940 1.327 . S
C938 H963 0.950 . S
C939 C938 1.349 . S
C939 C955 1.349 . S
C940 C938 1.327 . S
C940 C959 1.429 . S
C940 H964 0.950 . S
C941 C958 1.574 . S
C941 C960 1.368 . S
C941 H965 0.949 . S
H942 C946 0.949 . S
C943 C944 1.349 . S
C943 C945 1.327 . S
C943 H966 0.950 . S
C944 C943 1.349 . S
C944 C956 1.349 . S
C945 C943 1.327 . S
C945 C961 1.429 . S
C945 H967 0.950 . S
C946 H942 0.949 . S
C946 C954 1.574 . S
C946 C962 1.368 . S
H947 C955 0.950 . S
H948 C953 0.950 . S
H949 C954 0.949 . S
H950 C956 0.950 . S
H951 C957 0.950 . S
H952 C958 0.949 . S
C953 H948 0.950 . S
C953 C955 1.327 . S
C953 C959 1.429 . S
C954 C946 1.574 . S
C954 H949 0.949 . S
C954 C960 1.368 . S
C955 C939 1.349 . S
C955 H947 0.950 . S
C955 C953 1.327 . S
C956 C944 1.349 . S
C956 H950 0.950 . S
C956 C957 1.327 . S
C957 H951 0.950 . S
C957 C956 1.327 . S
C957 C961 1.429 . S
C958 C941 1.574 . S
C958 H952 0.949 . S
C958 C962 1.368 . S
C959 C940 1.429 . S
C959 C953 1.429 . S
C959 C960 1.523 . S
C960 C941 1.368 . S
C960 C954 1.368 . S
C960 C959 1.523 . S
C961 C945 1.429 . S
C961 C957 1.429 . S
C961 C962 1.523 . S
C962 C946 1.368 . S
C962 C958 1.368 . S
C962 C961 1.523 . S
H963 C938 0.950 . S
H964 C940 0.950 . S
H965 C941 0.949 . S
H966 C943 0.950 . S
H967 C945 0.950 . S
C249 C5 1.018 . S
C254 C94 1.273 . S
C279 C18 1.001 . S
C284 C143 1.063 . S
C314 C178 2.275 . S
C309 C30 2.305 . S
C339 C41 1.940 . S
C344 C217 1.893 . S
C374 C138 2.457 . S
C369 C7 2.288 . S
C404 C97 1.066 . S
C399 C16 0.960 . S
C434 C227 1.912 . S
C429 C29 1.868 . S
C464 C186 1.063 . S
C459 C38 0.986 . S
C489 C8 1.583 . S
C494 C214 1.657 . S
C524 C146 2.566 . S
C519 C27 2.392 . S
C549 C40 2.418 . S
C554 C107 2.446 . S
C579 C19 0.504 . S
C584 C183 0.486 . S
C614 C103 1.109 . S
C609 C51 0.997 . S
C639 C62 1.353 . S
C644 C134 1.350 . S
C669 C74 2.397 . S
C674 C187 2.378 . S
C699 C84 2.084 . S
C704 C226 2.134 . S
C729 C49 2.148 . S
C734 C147 2.690 1_556 S
C764 C106 1.022 . S
C759 C63 1.039 . S
C794 C218 1.776 . S
C789 C71 1.637 . S
C824 C177 1.196 . S
C819 C85 1.205 . S
C849 C52 1.553 . S
C854 C223 1.634 . S
C884 C137 2.626 . S
C879 C73 2.672 . S
C914 C98 1.881 . S
C909 C82 1.611 . S
C939 C60 0.745 . S
C944 C174 0.738 . S
