# Generated by pormake.
# Topology eea, (3,6)-cn, num edge types: 1
# Building blocks:
#     Node 0, Type 0, BuildingBlock: WUSLED_clean_sbu_0, # of connection points: 3
#     Node 1, Type 0, BuildingBlock: WUSLED_clean_sbu_0, # of connection points: 3
#     Node 2, Type 0, BuildingBlock: WUSLED_clean_sbu_0, # of connection points: 3
#     Node 3, Type 0, BuildingBlock: WUSLED_clean_sbu_0, # of connection points: 3
#     Node 4, Type 0, BuildingBlock: WUSLED_clean_sbu_0, # of connection points: 3
#     Node 5, Type 0, BuildingBlock: WUSLED_clean_sbu_0, # of connection points: 3
#     Node 6, Type 0, BuildingBlock: WUSLED_clean_sbu_0, # of connection points: 3
#     Node 7, Type 0, BuildingBlock: WUSLED_clean_sbu_0, # of connection points: 3
#     Node 8, Type 0, BuildingBlock: WUSLED_clean_sbu_0, # of connection points: 3
#     Node 9, Type 0, BuildingBlock: WUSLED_clean_sbu_0, # of connection points: 3
#     Node 10, Type 0, BuildingBlock: WUSLED_clean_sbu_0, # of connection points: 3
#     Node 11, Type 0, BuildingBlock: WUSLED_clean_sbu_0, # of connection points: 3
#     Node 12, Type 0, BuildingBlock: WUSLED_clean_sbu_0, # of connection points: 3
#     Node 13, Type 0, BuildingBlock: WUSLED_clean_sbu_0, # of connection points: 3
#     Node 14, Type 0, BuildingBlock: WUSLED_clean_sbu_0, # of connection points: 3
#     Node 15, Type 0, BuildingBlock: WUSLED_clean_sbu_0, # of connection points: 3
#     Node 16, Type 0, BuildingBlock: WUSLED_clean_sbu_0, # of connection points: 3
#     Node 17, Type 0, BuildingBlock: WUSLED_clean_sbu_0, # of connection points: 3
#     Node 18, Type 1, BuildingBlock: KUMBOL_clean_sbu_0, # of connection points: 6
#     Node 19, Type 1, BuildingBlock: KUMBOL_clean_sbu_0, # of connection points: 6
#     Node 20, Type 1, BuildingBlock: KUMBOL_clean_sbu_0, # of connection points: 6
#     Node 21, Type 1, BuildingBlock: KUMBOL_clean_sbu_0, # of connection points: 6
#     Node 22, Type 1, BuildingBlock: KUMBOL_clean_sbu_0, # of connection points: 6
#     Node 23, Type 1, BuildingBlock: KUMBOL_clean_sbu_0, # of connection points: 6
#     Node 24, Type 1, BuildingBlock: KUMBOL_clean_sbu_0, # of connection points: 6
#     Node 25, Type 1, BuildingBlock: KUMBOL_clean_sbu_0, # of connection points: 6
#     Node 26, Type 1, BuildingBlock: KUMBOL_clean_sbu_0, # of connection points: 6
#     Edge 27, Type (0, 1), BuildingBlock: ZUJKAS_clean_linker_0, # of connection points: 2
#     Edge 28, Type (0, 1), BuildingBlock: ZUJKAS_clean_linker_0, # of connection points: 2
#     Edge 29, Type (0, 1), BuildingBlock: ZUJKAS_clean_linker_0, # of connection points: 2
#     Edge 30, Type (0, 1), BuildingBlock: ZUJKAS_clean_linker_0, # of connection points: 2
#     Edge 31, Type (0, 1), BuildingBlock: ZUJKAS_clean_linker_0, # of connection points: 2
#     Edge 32, Type (0, 1), BuildingBlock: ZUJKAS_clean_linker_0, # of connection points: 2
#     Edge 33, Type (0, 1), BuildingBlock: ZUJKAS_clean_linker_0, # of connection points: 2
#     Edge 34, Type (0, 1), BuildingBlock: ZUJKAS_clean_linker_0, # of connection points: 2
#     Edge 35, Type (0, 1), BuildingBlock: ZUJKAS_clean_linker_0, # of connection points: 2
#     Edge 36, Type (0, 1), BuildingBlock: ZUJKAS_clean_linker_0, # of connection points: 2
#     Edge 37, Type (0, 1), BuildingBlock: ZUJKAS_clean_linker_0, # of connection points: 2
#     Edge 38, Type (0, 1), BuildingBlock: ZUJKAS_clean_linker_0, # of connection points: 2
#     Edge 39, Type (0, 1), BuildingBlock: ZUJKAS_clean_linker_0, # of connection points: 2
#     Edge 40, Type (0, 1), BuildingBlock: ZUJKAS_clean_linker_0, # of connection points: 2
#     Edge 41, Type (0, 1), BuildingBlock: ZUJKAS_clean_linker_0, # of connection points: 2
#     Edge 42, Type (0, 1), BuildingBlock: ZUJKAS_clean_linker_0, # of connection points: 2
#     Edge 43, Type (0, 1), BuildingBlock: ZUJKAS_clean_linker_0, # of connection points: 2
#     Edge 44, Type (0, 1), BuildingBlock: ZUJKAS_clean_linker_0, # of connection points: 2
#     Edge 45, Type (0, 1), BuildingBlock: ZUJKAS_clean_linker_0, # of connection points: 2
#     Edge 46, Type (0, 1), BuildingBlock: ZUJKAS_clean_linker_0, # of connection points: 2
#     Edge 47, Type (0, 1), BuildingBlock: ZUJKAS_clean_linker_0, # of connection points: 2
#     Edge 48, Type (0, 1), BuildingBlock: ZUJKAS_clean_linker_0, # of connection points: 2
#     Edge 49, Type (0, 1), BuildingBlock: ZUJKAS_clean_linker_0, # of connection points: 2
#     Edge 50, Type (0, 1), BuildingBlock: ZUJKAS_clean_linker_0, # of connection points: 2
#     Edge 51, Type (0, 1), BuildingBlock: ZUJKAS_clean_linker_0, # of connection points: 2
#     Edge 52, Type (0, 1), BuildingBlock: ZUJKAS_clean_linker_0, # of connection points: 2
#     Edge 53, Type (0, 1), BuildingBlock: ZUJKAS_clean_linker_0, # of connection points: 2
#     Edge 54, Type (0, 1), BuildingBlock: ZUJKAS_clean_linker_0, # of connection points: 2
#     Edge 55, Type (0, 1), BuildingBlock: ZUJKAS_clean_linker_0, # of connection points: 2
#     Edge 56, Type (0, 1), BuildingBlock: ZUJKAS_clean_linker_0, # of connection points: 2
#     Edge 57, Type (0, 1), BuildingBlock: ZUJKAS_clean_linker_0, # of connection points: 2
#     Edge 58, Type (0, 1), BuildingBlock: ZUJKAS_clean_linker_0, # of connection points: 2
#     Edge 59, Type (0, 1), BuildingBlock: ZUJKAS_clean_linker_0, # of connection points: 2
#     Edge 60, Type (0, 1), BuildingBlock: ZUJKAS_clean_linker_0, # of connection points: 2
#     Edge 61, Type (0, 1), BuildingBlock: ZUJKAS_clean_linker_0, # of connection points: 2
#     Edge 62, Type (0, 1), BuildingBlock: ZUJKAS_clean_linker_0, # of connection points: 2
#     Edge 63, Type (0, 1), BuildingBlock: ZUJKAS_clean_linker_0, # of connection points: 2
#     Edge 64, Type (0, 1), BuildingBlock: ZUJKAS_clean_linker_0, # of connection points: 2
#     Edge 65, Type (0, 1), BuildingBlock: ZUJKAS_clean_linker_0, # of connection points: 2
#     Edge 66, Type (0, 1), BuildingBlock: ZUJKAS_clean_linker_0, # of connection points: 2
#     Edge 67, Type (0, 1), BuildingBlock: ZUJKAS_clean_linker_0, # of connection points: 2
#     Edge 68, Type (0, 1), BuildingBlock: ZUJKAS_clean_linker_0, # of connection points: 2
#     Edge 69, Type (0, 1), BuildingBlock: ZUJKAS_clean_linker_0, # of connection points: 2
#     Edge 70, Type (0, 1), BuildingBlock: ZUJKAS_clean_linker_0, # of connection points: 2
#     Edge 71, Type (0, 1), BuildingBlock: ZUJKAS_clean_linker_0, # of connection points: 2
#     Edge 72, Type (0, 1), BuildingBlock: ZUJKAS_clean_linker_0, # of connection points: 2
#     Edge 73, Type (0, 1), BuildingBlock: ZUJKAS_clean_linker_0, # of connection points: 2
#     Edge 74, Type (0, 1), BuildingBlock: ZUJKAS_clean_linker_0, # of connection points: 2
#     Edge 75, Type (0, 1), BuildingBlock: ZUJKAS_clean_linker_0, # of connection points: 2
#     Edge 76, Type (0, 1), BuildingBlock: ZUJKAS_clean_linker_0, # of connection points: 2
#     Edge 77, Type (0, 1), BuildingBlock: ZUJKAS_clean_linker_0, # of connection points: 2
#     Edge 78, Type (0, 1), BuildingBlock: ZUJKAS_clean_linker_0, # of connection points: 2
#     Edge 79, Type (0, 1), BuildingBlock: ZUJKAS_clean_linker_0, # of connection points: 2
#     Edge 80, Type (0, 1), BuildingBlock: ZUJKAS_clean_linker_0, # of connection points: 2
# Relax obj value: 0.010
# Max RMSD: 0.096
# Mean RMSD: 0.055
data_MOF--net-eea--node1-WUSLED_clean_sbu_0--node2-KUMBOL_clean_sbu_0--edge1-ZUJKAS_clean_linker_0
_symmetry_space_group_name_H-M    P1
_symmetry_Int_Tables_number       1
_symmetry_cell_setting            triclinic
loop_
_symmetry_equiv_pos_as_xyz
'x, y, z'
_cell_length_a     82.531048
_cell_length_b     84.11447
_cell_length_c     108.98196
_cell_angle_alpha  89.860338
_cell_angle_beta   90.09498
_cell_angle_gamma 120.00219
loop_
_atom_site_label
_atom_site_type_symbol
_atom_site_fract_x
_atom_site_fract_y
_atom_site_fract_z
_atom_type_partial_charge
C0 C 0.2266 0.14373 0.41409 0.0
C1 C 0.23909 0.16218 0.41702 0.0
C2 C 0.22011 0.17182 0.40544 0.0
C3 C 0.23591 0.17608 0.41271 0.0
C4 C 0.2075 0.15326 0.40274 0.0
C5 C 0.21075 0.13941 0.40699 0.0
U6 U 0.24262 0.12049 0.43777 0.0
O7 O 0.23 0.0912 0.44252 0.0
O8 O 0.25849 0.10616 0.43508 0.0
C9 C 0.24439 0.09016 0.43839 0.0
C10 C 0.22989 0.12881 0.41813 0.0
C11 C 0.23987 0.07475 0.43004 0.0
C12 C 0.23249 0.06093 0.40973 0.0
C13 C 0.23672 0.0758 0.41748 0.0
C14 C 0.23438 0.04383 0.42705 0.0
C15 C 0.2312 0.04473 0.41444 0.0
C16 C 0.23868 0.05869 0.43476 0.0
C17 C 0.26087 0.14312 0.4692 0.0
C18 C 0.26881 0.12896 0.48587 0.0
C19 C 0.27422 0.15989 0.4881 0.0
C20 C 0.26717 0.15899 0.4763 0.0
C21 C 0.2751 0.14487 0.49308 0.0
C22 C 0.26175 0.12809 0.47403 0.0
C23 C 0.25334 0.14252 0.45685 0.0
O24 O 0.24745 0.13308 0.41947 0.0
O25 O 0.21896 0.11824 0.42696 0.0
O26 O 0.23594 0.12952 0.45501 0.0
O27 O 0.26448 0.14448 0.44765 0.0
H28 H 0.2514 0.16587 0.42254 0.0
H29 H 0.24604 0.19019 0.41488 0.0
H30 H 0.195 0.14938 0.3974 0.0
H31 H 0.20089 0.12526 0.40469 0.0
H32 H 0.22994 0.06201 0.4001 0.0
H33 H 0.23751 0.08808 0.41368 0.0
H34 H 0.23376 0.03169 0.43096 0.0
H35 H 0.24111 0.05765 0.44443 0.0
H36 H 0.2691 0.11708 0.48944 0.0
H37 H 0.27922 0.17247 0.49328 0.0
H38 H 0.26665 0.17075 0.47269 0.0
H39 H 0.25692 0.1157 0.46867 0.0
C40 C 0.9438 0.14681 0.41517 0.0
C41 C 0.95198 0.16426 0.42061 0.0
C42 C 0.97794 0.17591 0.40603 0.0
C43 C 0.96887 0.17868 0.41605 0.0
C44 C 0.96972 0.15832 0.40074 0.0
C45 C 0.95284 0.14396 0.40526 0.0
U46 U 0.90493 0.12256 0.43939 0.0
O47 O 0.87436 0.10716 0.43694 0.0
O48 O 0.88878 0.09322 0.44423 0.0
C49 C 0.87285 0.09153 0.4405 0.0
C50 C 0.92576 0.13149 0.41951 0.0
C51 C 0.86099 0.0754 0.43282 0.0
C52 C 0.85364 0.05871 0.4135 0.0
C53 C 0.86547 0.0742 0.42057 0.0
C54 C 0.83288 0.04553 0.43091 0.0
C55 C 0.83711 0.04422 0.41858 0.0
C56 C 0.84468 0.06094 0.43793 0.0
C57 C 0.9092 0.14514 0.47082 0.0
C58 C 0.88555 0.13183 0.48684 0.0
C59 C 0.91395 0.16078 0.49036 0.0
C60 C 0.92018 0.15997 0.47857 0.0
C61 C 0.89655 0.14672 0.49468 0.0
C62 C 0.89184 0.13103 0.47503 0.0
C63 C 0.91614 0.14474 0.45843 0.0
O64 O 0.92672 0.1214 0.4284 0.0
O65 O 0.91219 0.1352 0.42105 0.0
O66 O 0.90659 0.14615 0.44925 0.0
O67 O 0.92097 0.13223 0.45659 0.0
H68 H 0.94528 0.16674 0.42832 0.0
H69 H 0.9749 0.19197 0.42046 0.0
H70 H 0.97614 0.15571 0.39292 0.0
H71 H 0.94673 0.13061 0.40092 0.0
H72 H 0.85728 0.05824 0.40402 0.0
H73 H 0.87802 0.08525 0.41646 0.0
H74 H 0.8205 0.03454 0.43521 0.0
H75 H 0.84103 0.06158 0.44739 0.0
H76 H 0.87219 0.12067 0.48989 0.0
H77 H 0.92267 0.1726 0.49602 0.0
H78 H 0.9336 0.17102 0.47547 0.0
H79 H 0.88317 0.11943 0.46918 0.0
C80 C 0.87469 0.80171 0.41525 0.0
C81 C 0.85695 0.79155 0.42067 0.0
C82 C 0.84466 0.80648 0.40734 0.0
C83 C 0.84206 0.79387 0.41673 0.0
C84 C 0.86256 0.81678 0.40208 0.0
C85 C 0.87738 0.8144 0.40598 0.0
U86 U 0.90079 0.78754 0.43822 0.0
O87 O 0.91551 0.77209 0.43499 0.0
O88 O 0.93096 0.80031 0.44195 0.0
C89 C 0.93193 0.78611 0.43786 0.0
C90 C 0.89046 0.79906 0.41886 0.0
C91 C 0.94767 0.78993 0.42953 0.0
C92 C 0.973 0.81005 0.41574 0.0
C93 C 0.95719 0.80631 0.42273 0.0
C94 C 0.9697 0.78096 0.42198 0.0
C95 C 0.97964 0.79753 0.41541 0.0
C96 C 0.95398 0.77725 0.42897 0.0
C97 C 0.87849 0.77006 0.47036 0.0
C98 C 0.88929 0.75714 0.48627 0.0
C99 C 0.86253 0.76095 0.49004 0.0
C100 C 0.86434 0.76834 0.47828 0.0
C101 C 0.87485 0.75508 0.49417 0.0
C102 C 0.89107 0.76454 0.47444 0.0
C103 C 0.8794 0.7773 0.45788 0.0
O104 O 0.90169 0.81016 0.42737 0.0
O105 O 0.8865 0.78197 0.42037 0.0
O106 O 0.87716 0.76618 0.44877 0.0
O107 O 0.89266 0.79431 0.45585 0.0
H108 H 0.85457 0.78174 0.42789 0.0
H109 H 0.82855 0.78587 0.42109 0.0
H110 H 0.86505 0.82644 0.39473 0.0
H111 H 0.89094 0.82234 0.40165 0.0
H112 H 0.98033 0.82301 0.41088 0.0
H113 H 0.95266 0.81636 0.42299 0.0
H114 H 0.97411 0.77081 0.42178 0.0
H115 H 0.94687 0.76453 0.43411 0.0
H116 H 0.89894 0.75265 0.48911 0.0
H117 H 0.85147 0.75991 0.49591 0.0
H118 H 0.85455 0.77261 0.47532 0.0
H119 H 0.9021 0.76576 0.46845 0.0
C120 C 0.08115 0.21311 0.62272 0.0
C121 C 0.07267 0.22198 0.61689 0.0
C122 C 0.04689 0.2087 0.63166 0.0
C123 C 0.05572 0.21983 0.62133 0.0
C124 C 0.05546 0.19975 0.63737 0.0
C125 C 0.07238 0.20195 0.63295 0.0
U126 U 0.12114 0.22763 0.59913 0.0
O127 O 0.15151 0.24147 0.60237 0.0
O128 O 0.13705 0.2138 0.59444 0.0
C129 C 0.15285 0.22726 0.59876 0.0
C130 C 0.09924 0.21546 0.61852 0.0
C131 C 0.16403 0.22192 0.60658 0.0
C132 C 0.17581 0.21892 0.62647 0.0
C133 C 0.16419 0.22317 0.61944 0.0
C134 C 0.18694 0.21182 0.6079 0.0
C135 C 0.18742 0.21326 0.62078 0.0
C136 C 0.1754 0.2161 0.60091 0.0
C137 C 0.11854 0.24796 0.56775 0.0
C138 C 0.13812 0.25251 0.54987 0.0
C139 C 0.11776 0.26552 0.5502 0.0
C140 C 0.11156 0.25818 0.56193 0.0
C141 C 0.13112 0.2628 0.54399 0.0
C142 C 0.13192 0.24521 0.56166 0.0
C143 C 0.11132 0.24013 0.58002 0.0
O144 O 0.09847 0.2048 0.60947 0.0
O145 O 0.11303 0.23246 0.61736 0.0
O146 O 0.1206 0.25041 0.58944 0.0
O147 O 0.10614 0.22273 0.58158 0.0
H148 H 0.07918 0.23062 0.60894 0.0
H149 H 0.04944 0.22675 0.6166 0.0
H150 H 0.04928 0.19129 0.64542 0.0
H151 H 0.07873 0.19502 0.63761 0.0
H152 H 0.17566 0.22001 0.63636 0.0
H153 H 0.15549 0.22758 0.62404 0.0
H154 H 0.19586 0.20782 0.60315 0.0
H155 H 0.17558 0.21514 0.591 0.0
H156 H 0.14855 0.2503 0.54543 0.0
H157 H 0.11183 0.2731 0.54592 0.0
H158 H 0.10116 0.2604 0.56644 0.0
H159 H 0.13754 0.23739 0.566 0.0
C160 C 0.80011 0.87107 0.62144 0.0
C161 C 0.79388 0.85501 0.61451 0.0
C162 C 0.80512 0.8422 0.63028 0.0
C163 C 0.79636 0.84069 0.61889 0.0
C164 C 0.81145 0.85844 0.63711 0.0
C165 C 0.80895 0.87271 0.63272 0.0
U166 U 0.78471 0.89398 0.59722 0.0
O167 O 0.76902 0.90861 0.59963 0.0
O168 O 0.79742 0.92304 0.59196 0.0
C169 C 0.78324 0.92443 0.59615 0.0
C170 C 0.79732 0.88614 0.61715 0.0
C171 C 0.78772 0.94034 0.60413 0.0
C172 C 0.8096 0.96667 0.61631 0.0
C173 C 0.80553 0.9511 0.60937 0.0
C174 C 0.77802 0.96071 0.61313 0.0
C175 C 0.79594 0.97178 0.6182 0.0
C176 C 0.774 0.94524 0.60615 0.0
C177 C 0.76543 0.87036 0.56625 0.0
C178 C 0.75982 0.88493 0.54872 0.0
C179 C 0.74837 0.85221 0.54851 0.0
C180 C 0.75592 0.85343 0.5602 0.0
C181 C 0.75023 0.86793 0.54261 0.0
C182 C 0.7673 0.88612 0.56046 0.0
C183 C 0.77327 0.87122 0.57854 0.0
O184 O 0.80822 0.89614 0.60812 0.0
O185 O 0.77982 0.88198 0.61573 0.0
O186 O 0.76242 0.86971 0.58781 0.0
O187 O 0.7908 0.88407 0.58015 0.0
H188 H 0.78698 0.8535 0.60577 0.0
H189 H 0.79114 0.82833 0.61345 0.0
H190 H 0.81852 0.86023 0.6458 0.0
H191 H 0.81391 0.88504 0.63817 0.0
H192 H 0.82361 0.97494 0.61994 0.0
H193 H 0.81643 0.94768 0.60798 0.0
H194 H 0.76702 0.96397 0.61457 0.0
H195 H 0.76015 0.93715 0.60222 0.0
H196 H 0.76132 0.89726 0.54449 0.0
H197 H 0.74129 0.83896 0.54403 0.0
H198 H 0.75436 0.84112 0.56452 0.0
H199 H 0.77452 0.89931 0.56502 0.0
C200 C 0.07895 0.86629 0.62185 0.0
C201 C 0.07296 0.84804 0.61856 0.0
C202 C 0.04536 0.83715 0.63165 0.0
C203 C 0.05635 0.83361 0.62342 0.0
C204 C 0.05132 0.85551 0.63472 0.0
C205 C 0.06793 0.86988 0.62989 0.0
U206 U 0.1179 0.89131 0.59762 0.0
O207 O 0.13321 0.92072 0.59281 0.0
O208 O 0.1484 0.9076 0.60019 0.0
C209 C 0.14924 0.92306 0.59692 0.0
C210 C 0.09681 0.88178 0.61739 0.0
C211 C 0.16036 0.93936 0.60482 0.0
C212 C 0.17506 0.97246 0.60765 0.0
C213 C 0.16333 0.95657 0.60099 0.0
C214 C 0.181 0.95427 0.62227 0.0
C215 C 0.18427 0.97158 0.6183 0.0
C216 C 0.16921 0.93836 0.61561 0.0
C217 C 0.11449 0.86897 0.56616 0.0
C218 C 0.13705 0.88345 0.54963 0.0
C219 C 0.11078 0.8527 0.54701 0.0
C220 C 0.10457 0.85333 0.55884 0.0
C221 C 0.12708 0.86776 0.54221 0.0
C222 C 0.13079 0.88405 0.56149 0.0
C223 C 0.10748 0.86921 0.57855 0.0
O224 O 0.11075 0.87859 0.61593 0.0
O225 O 0.09556 0.89167 0.60848 0.0
O226 O 0.10209 0.88131 0.58037 0.0
O227 O 0.11726 0.86818 0.58774 0.0
H228 H 0.08121 0.84491 0.61235 0.0
H229 H 0.05233 0.81967 0.62092 0.0
H230 H 0.04311 0.85885 0.64082 0.0
H231 H 0.07225 0.88386 0.63252 0.0
H232 H 0.17696 0.98546 0.60441 0.0
H233 H 0.1568 0.9578 0.59268 0.0
H234 H 0.18799 0.95306 0.63033 0.0
H235 H 0.16736 0.92535 0.61879 0.0
H236 H 0.14955 0.89535 0.54621 0.0
H237 H 0.10292 0.84028 0.54169 0.0
H238 H 0.09199 0.84153 0.5623 0.0
H239 H 0.13863 0.89628 0.56701 0.0
C240 C 0.88944 0.47614 0.74881 0.0
C241 C 0.89114 0.49007 0.75667 0.0
C242 C 0.8839 0.50457 0.73975 0.0
C243 C 0.88838 0.50417 0.75219 0.0
C244 C 0.88238 0.4906 0.73192 0.0
C245 C 0.88512 0.47653 0.73642 0.0
U246 U 0.90364 0.45324 0.77373 0.0
O247 O 0.89034 0.42415 0.77911 0.0
O248 O 0.9191 0.43833 0.7721 0.0
C249 C 0.90473 0.42264 0.77561 0.0
C250 C 0.89205 0.46107 0.75334 0.0
C251 C 0.90035 0.40668 0.76786 0.0
C252 C 0.8916 0.39076 0.74826 0.0
C253 C 0.89552 0.40608 0.75545 0.0
C254 C 0.8972 0.37652 0.76587 0.0
C255 C 0.89249 0.37581 0.75338 0.0
C256 C 0.9011 0.3918 0.77301 0.0
C257 C 0.92147 0.47658 0.80483 0.0
C258 C 0.93105 0.46313 0.82106 0.0
C259 C 0.93322 0.49265 0.82416 0.0
C260 C 0.92612 0.49174 0.81235 0.0
C261 C 0.93581 0.47837 0.82866 0.0
C262 C 0.92393 0.46225 0.80924 0.0
C263 C 0.91427 0.47603 0.79238 0.0
O264 O 0.90948 0.46523 0.75517 0.0
O265 O 0.88072 0.45104 0.76219 0.0
O266 O 0.89679 0.46328 0.79047 0.0
O267 O 0.9255 0.47747 0.78338 0.0
H268 H 0.89448 0.48998 0.76628 0.0
H269 H 0.88947 0.51458 0.7585 0.0
H270 H 0.87926 0.49062 0.72227 0.0
H271 H 0.88385 0.46593 0.7302 0.0
H272 H 0.88817 0.39075 0.73867 0.0
H273 H 0.89487 0.41748 0.75132 0.0
H274 H 0.89768 0.36515 0.77018 0.0
H275 H 0.90471 0.39199 0.7826 0.0
H276 H 0.93266 0.45181 0.82427 0.0
H277 H 0.93699 0.50471 0.82966 0.0
H278 H 0.92437 0.50296 0.80907 0.0
H279 H 0.92038 0.4504 0.80354 0.0
C280 C 0.60762 0.48178 0.74793 0.0
C281 C 0.6236 0.49093 0.75538 0.0
C282 C 0.64148 0.5107 0.73822 0.0
C283 C 0.64035 0.50521 0.75057 0.0
C284 C 0.62529 0.50168 0.7309 0.0
C285 C 0.60861 0.48738 0.73569 0.0
U286 U 0.56989 0.45617 0.77273 0.0
O287 O 0.53927 0.44007 0.77073 0.0
O288 O 0.55464 0.42672 0.77736 0.0
C289 C 0.53838 0.4246 0.77397 0.0
C290 C 0.58998 0.46607 0.75251 0.0
C291 C 0.5267 0.40855 0.76618 0.0
C292 C 0.51927 0.39252 0.7466 0.0
C293 C 0.53092 0.40793 0.75378 0.0
C294 C 0.49923 0.37824 0.76419 0.0
C295 C 0.50318 0.37751 0.75171 0.0
C296 C 0.51086 0.39358 0.77132 0.0
C297 C 0.57457 0.47817 0.80444 0.0
C298 C 0.55141 0.46436 0.8207 0.0
C299 C 0.57941 0.49372 0.82401 0.0
C300 C 0.58546 0.49311 0.81213 0.0
C301 C 0.56229 0.47938 0.82848 0.0
C302 C 0.55751 0.46376 0.80879 0.0
C303 C 0.5812 0.47809 0.79189 0.0
O304 O 0.5915 0.45588 0.76111 0.0
O305 O 0.57613 0.46923 0.75445 0.0
O306 O 0.57113 0.47928 0.78296 0.0
O307 O 0.58644 0.46595 0.78973 0.0
H308 H 0.62322 0.4869 0.76488 0.0
H309 H 0.65253 0.51167 0.75648 0.0
H310 H 0.62545 0.50571 0.72143 0.0
H311 H 0.59645 0.48057 0.72979 0.0
H312 H 0.52266 0.3925 0.73701 0.0
H313 H 0.54311 0.41938 0.74964 0.0
H314 H 0.4872 0.36685 0.76851 0.0
H315 H 0.50743 0.39377 0.7809 0.0
H316 H 0.53827 0.45298 0.82386 0.0
H317 H 0.58802 0.50564 0.82963 0.0
H318 H 0.59863 0.5044 0.80891 0.0
H319 H 0.54891 0.45209 0.80297 0.0
C320 C 0.5416 0.13523 0.74674 0.0
C321 C 0.52434 0.12683 0.75289 0.0
C322 C 0.51167 0.13954 0.73797 0.0
C323 C 0.5095 0.12894 0.74853 0.0
C324 C 0.52907 0.14799 0.73192 0.0
C325 C 0.54384 0.14584 0.73626 0.0
U326 U 0.56729 0.12158 0.77054 0.0
O327 O 0.5834 0.10753 0.76763 0.0
O328 O 0.5974 0.13555 0.77499 0.0
C329 C 0.59934 0.1219 0.77091 0.0
C330 C 0.55738 0.13299 0.75091 0.0
C331 C 0.61574 0.1269 0.76295 0.0
C332 C 0.62978 0.12728 0.74318 0.0
C333 C 0.61403 0.12352 0.75025 0.0
C334 C 0.6492 0.13828 0.76134 0.0
C335 C 0.64756 0.13448 0.74868 0.0
C336 C 0.63349 0.13449 0.76837 0.0
C337 C 0.54401 0.10275 0.80226 0.0
C338 C 0.55588 0.0915 0.8186 0.0
C339 C 0.52707 0.09201 0.82152 0.0
C340 C 0.52884 0.09937 0.80975 0.0
C341 C 0.54046 0.08782 0.8261 0.0
C342 C 0.55761 0.09887 0.80676 0.0
C343 C 0.54501 0.11008 0.78978 0.0
O344 O 0.56777 0.14401 0.75973 0.0
O345 O 0.55381 0.11602 0.75239 0.0
O346 O 0.54371 0.09935 0.78063 0.0
O347 O 0.55774 0.12735 0.78797 0.0
H348 H 0.52235 0.11863 0.76103 0.0
H349 H 0.4964 0.12241 0.75351 0.0
H350 H 0.53121 0.15603 0.72368 0.0
H351 H 0.55702 0.15239 0.73136 0.0
H352 H 0.62794 0.12408 0.73349 0.0
H353 H 0.60048 0.11768 0.74582 0.0
H354 H 0.66266 0.14416 0.76587 0.0
H355 H 0.63518 0.13728 0.77813 0.0
H356 H 0.56638 0.08833 0.82177 0.0
H357 H 0.51521 0.08971 0.82707 0.0
H358 H 0.51824 0.10236 0.80647 0.0
H359 H 0.56945 0.10139 0.8011 0.0
C360 C 0.74755 0.5463 0.95596 0.0
C361 C 0.74176 0.55891 0.95282 0.0
C362 C 0.71355 0.54206 0.96532 0.0
C363 C 0.72495 0.55682 0.95746 0.0
C364 C 0.71929 0.5293 0.96821 0.0
C365 C 0.73608 0.53143 0.96359 0.0
U366 U 0.78779 0.55989 0.93255 0.0
O367 O 0.81813 0.57365 0.93591 0.0
O368 O 0.8035 0.54568 0.92847 0.0
C369 C 0.81935 0.55924 0.93264 0.0
C370 C 0.7657 0.54861 0.95187 0.0
C371 C 0.83044 0.55408 0.94067 0.0
C372 C 0.84188 0.55128 0.96074 0.0
C373 C 0.8304 0.55548 0.95352 0.0
C374 C 0.85329 0.54395 0.94239 0.0
C375 C 0.85354 0.54551 0.95526 0.0
C376 C 0.84189 0.54819 0.93521 0.0
C377 C 0.78574 0.57845 0.90028 0.0
C378 C 0.80802 0.60228 0.88651 0.0
C379 C 0.7812 0.57541 0.8781 0.0
C380 C 0.77538 0.56854 0.88998 0.0
C381 C 0.7975 0.59248 0.87618 0.0
C382 C 0.80222 0.59536 0.89841 0.0
C383 C 0.77837 0.57146 0.91278 0.0
O384 O 0.76501 0.53751 0.94315 0.0
O385 O 0.77957 0.56554 0.95049 0.0
O386 O 0.78736 0.58215 0.92213 0.0
O387 O 0.77277 0.55407 0.9149 0.0
H388 H 0.75035 0.57051 0.94693 0.0
H389 H 0.72111 0.56702 0.95511 0.0
H390 H 0.71077 0.51758 0.97401 0.0
H391 H 0.74023 0.5215 0.96611 0.0
H392 H 0.84157 0.55247 0.97062 0.0
H393 H 0.82163 0.55996 0.95795 0.0
H394 H 0.86227 0.53988 0.9378 0.0
H395 H 0.84222 0.5471 0.92532 0.0
H396 H 0.82051 0.61556 0.88545 0.0
H397 H 0.77287 0.5673 0.87041 0.0
H398 H 0.76257 0.55553 0.89113 0.0
H399 H 0.8105 0.60346 0.90612 0.0
C400 C 0.4671 0.20528 0.95366 0.0
C401 C 0.46515 0.19127 0.94578 0.0
C402 C 0.47312 0.17706 0.96253 0.0
C403 C 0.46814 0.17727 0.95018 0.0
C404 C 0.47496 0.19116 0.97035 0.0
C405 C 0.47199 0.20512 0.96595 0.0
U406 U 0.45179 0.22823 0.92932 0.0
O407 O 0.43561 0.24238 0.93177 0.0
O408 O 0.46421 0.2574 0.92448 0.0
C409 C 0.44979 0.25842 0.92861 0.0
C410 C 0.46397 0.22011 0.94933 0.0
C411 C 0.45391 0.27394 0.93686 0.0
C412 C 0.47539 0.29986 0.94951 0.0
C413 C 0.47159 0.2846 0.94232 0.0
C414 C 0.44379 0.29378 0.94619 0.0
C415 C 0.46158 0.30476 0.95146 0.0
C416 C 0.44004 0.27862 0.93895 0.0
C417 C 0.43419 0.20611 0.89769 0.0
C418 C 0.41178 0.2077 0.88391 0.0
C419 C 0.43536 0.20157 0.87574 0.0
C420 C 0.44238 0.20257 0.88758 0.0
C421 C 0.41986 0.20397 0.87374 0.0
C422 C 0.4189 0.20883 0.89574 0.0
C423 C 0.44155 0.20649 0.91014 0.0
O424 O 0.47508 0.23051 0.9405 0.0
O425 O 0.4464 0.21554 0.94764 0.0
O426 O 0.43034 0.20412 0.91939 0.0
O427 O 0.45895 0.21939 0.91213 0.0
H428 H 0.46136 0.19119 0.93625 0.0
H429 H 0.46678 0.16674 0.94387 0.0
H430 H 0.47846 0.1913 0.97995 0.0
H431 H 0.47344 0.21578 0.97218 0.0
H432 H 0.48931 0.30808 0.95328 0.0
H433 H 0.48259 0.28135 0.9409 0.0
H434 H 0.43269 0.29688 0.94766 0.0
H435 H 0.4263 0.2706 0.93486 0.0
H436 H 0.39969 0.20939 0.88278 0.0
H437 H 0.44218 0.199 0.86814 0.0
H438 H 0.45422 0.20049 0.88885 0.0
H439 H 0.4123 0.21163 0.90336 0.0
C440 C 0.74747 0.20141 0.95493 0.0
C441 C 0.74044 0.18331 0.95084 0.0
C442 C 0.71354 0.17253 0.96458 0.0
C443 C 0.72366 0.16901 0.95562 0.0
C444 C 0.72056 0.19078 0.96846 0.0
C445 C 0.73732 0.20501 0.96371 0.0
U446 U 0.78659 0.22551 0.93075 0.0
O447 O 0.80271 0.25482 0.92579 0.0
O448 O 0.81713 0.24105 0.93336 0.0
C449 C 0.81864 0.2566 0.92962 0.0
C450 C 0.76551 0.21668 0.9505 0.0
C451 C 0.83055 0.27292 0.93714 0.0
C452 C 0.8379 0.2903 0.95618 0.0
C453 C 0.82598 0.27463 0.94928 0.0
C454 C 0.85891 0.30263 0.93882 0.0
C455 C 0.85461 0.30446 0.95104 0.0
C456 C 0.84703 0.28705 0.93198 0.0
C457 C 0.78288 0.20252 0.89951 0.0
C458 C 0.8029 0.21745 0.88184 0.0
C459 C 0.78182 0.18457 0.88174 0.0
C460 C 0.77556 0.18561 0.89347 0.0
C461 C 0.79556 0.20046 0.87575 0.0
C462 C 0.79666 0.21846 0.89363 0.0
C463 C 0.7758 0.20313 0.91183 0.0
O464 O 0.77919 0.21309 0.94914 0.0
O465 O 0.76456 0.22663 0.94151 0.0
O466 O 0.77083 0.21558 0.91348 0.0
O467 O 0.78522 0.20183 0.92113 0.0
H468 H 0.74802 0.18019 0.94405 0.0
H469 H 0.71883 0.15515 0.95248 0.0
H470 H 0.71304 0.19412 0.97515 0.0
H471 H 0.74244 0.21889 0.96695 0.0
H472 H 0.83419 0.29118 0.96558 0.0
H473 H 0.8133 0.26384 0.95344 0.0
H474 H 0.87142 0.31335 0.93447 0.0
H475 H 0.85075 0.28601 0.9226 0.0
H476 H 0.81363 0.22992 0.87757 0.0
H477 H 0.77565 0.17131 0.87728 0.0
H478 H 0.76488 0.17317 0.89783 0.0
H479 H 0.80256 0.23165 0.89816 0.0
C480 C 0.55485 0.81075 0.08285 0.0
C481 C 0.56657 0.82884 0.08687 0.0
C482 C 0.54954 0.83948 0.07413 0.0
C483 C 0.56399 0.8431 0.08249 0.0
C484 C 0.53771 0.82129 0.07027 0.0
C485 C 0.54038 0.80709 0.07457 0.0
U486 U 0.56976 0.78731 0.10698 0.0
O487 O 0.55635 0.75812 0.11219 0.0
O488 O 0.5849 0.77215 0.1048 0.0
C489 C 0.57039 0.75642 0.10811 0.0
C490 C 0.55749 0.79553 0.08708 0.0
C491 C 0.5654 0.74031 0.10017 0.0
C492 C 0.54628 0.70739 0.0967 0.0
C493 C 0.55059 0.72301 0.10361 0.0
C494 C 0.57148 0.72603 0.08268 0.0
C495 C 0.55679 0.70865 0.08621 0.0
C496 C 0.57575 0.74168 0.08958 0.0
C497 C 0.58858 0.81055 0.13812 0.0
C498 C 0.60488 0.80173 0.15283 0.0
C499 C 0.59451 0.82293 0.1588 0.0
C500 C 0.58709 0.82168 0.14707 0.0
C501 C 0.60365 0.8131 0.16182 0.0
C502 C 0.59738 0.80044 0.14109 0.0
C503 C 0.58104 0.80987 0.12575 0.0
O504 O 0.5749 0.79936 0.08849 0.0
O505 O 0.54642 0.78544 0.09601 0.0
O506 O 0.56349 0.79717 0.12404 0.0
O507 O 0.59198 0.81134 0.11654 0.0
H508 H 0.57774 0.83196 0.09334 0.0
H509 H 0.5732 0.85693 0.08575 0.0
H510 H 0.52658 0.81806 0.06374 0.0
H511 H 0.53119 0.79322 0.07137 0.0
H512 H 0.53469 0.69431 0.0996 0.0
H513 H 0.54243 0.72151 0.11176 0.0
H514 H 0.58003 0.7275 0.07476 0.0
H515 H 0.58736 0.75476 0.0867 0.0
H516 H 0.61197 0.79411 0.15478 0.0
H517 H 0.59299 0.83154 0.16553 0.0
H518 H 0.58023 0.82948 0.14497 0.0
H519 H 0.59861 0.79172 0.13431 0.0
C520 C 0.27606 0.81551 0.08092 0.0
C521 C 0.28236 0.83381 0.08426 0.0
C522 C 0.30989 0.84436 0.07112 0.0
C523 C 0.29908 0.84809 0.07939 0.0
C524 C 0.30361 0.82594 0.06801 0.0
C525 C 0.28689 0.81172 0.07284 0.0
U526 U 0.23702 0.7915 0.10519 0.0
O527 O 0.20649 0.77558 0.10264 0.0
O528 O 0.22126 0.76226 0.11039 0.0
C529 C 0.20524 0.76017 0.10648 0.0
C530 C 0.25808 0.80019 0.08543 0.0
C531 C 0.1936 0.74372 0.09899 0.0
C532 C 0.18543 0.72714 0.0796 0.0
C533 C 0.19718 0.74287 0.08649 0.0
C534 C 0.16661 0.71296 0.09768 0.0
C535 C 0.16988 0.71203 0.0851 0.0
C536 C 0.17833 0.72862 0.10452 0.0
C537 C 0.24103 0.8152 0.13625 0.0
C538 C 0.21666 0.80407 0.15185 0.0
C539 C 0.24696 0.83063 0.15596 0.0
C540 C 0.25304 0.82916 0.14427 0.0
C541 C 0.22868 0.81814 0.15993 0.0
C542 C 0.22279 0.80259 0.14012 0.0
C543 C 0.24784 0.81426 0.12391 0.0
O544 O 0.25915 0.79044 0.09451 0.0
O545 O 0.24426 0.8036 0.08669 0.0
O546 O 0.23816 0.81516 0.11461 0.0
O547 O 0.2529 0.80186 0.12241 0.0
H548 H 0.27426 0.83709 0.0905 0.0
H549 H 0.30332 0.86207 0.08192 0.0
H550 H 0.31166 0.82245 0.06188 0.0
H551 H 0.28234 0.7977 0.07018 0.0
H552 H 0.18831 0.72697 0.06993 0.0
H553 H 0.20892 0.75441 0.08205 0.0
H554 H 0.15503 0.70151 0.10229 0.0
H555 H 0.17539 0.72898 0.11417 0.0
H556 H 0.20256 0.79409 0.15463 0.0
H557 H 0.25653 0.8418 0.16182 0.0
H558 H 0.26715 0.83905 0.14144 0.0
H559 H 0.21331 0.79166 0.13407 0.0
C560 C 0.20845 0.4682 0.08083 0.0
C561 C 0.19021 0.45697 0.08529 0.0
C562 C 0.17851 0.47238 0.07187 0.0
C563 C 0.17538 0.45902 0.08084 0.0
C564 C 0.19691 0.48376 0.06763 0.0
C565 C 0.21167 0.48167 0.07205 0.0
U566 U 0.23469 0.45499 0.10452 0.0
O567 O 0.25101 0.44115 0.10156 0.0
O568 O 0.26486 0.46923 0.10878 0.0
C569 C 0.26691 0.45564 0.10474 0.0
C570 C 0.2243 0.46599 0.08493 0.0
C571 C 0.28316 0.46075 0.09664 0.0
C572 C 0.29712 0.46364 0.07647 0.0
C573 C 0.28146 0.45936 0.0838 0.0
C574 C 0.31633 0.47103 0.09471 0.0
C575 C 0.31477 0.4695 0.08184 0.0
C576 C 0.30072 0.46671 0.10199 0.0
C577 C 0.21265 0.43701 0.13656 0.0
C578 C 0.22282 0.42279 0.15194 0.0
C579 C 0.19951 0.43109 0.15714 0.0
C580 C 0.20055 0.43778 0.14524 0.0
C581 C 0.21059 0.42345 0.16068 0.0
C582 C 0.22388 0.42955 0.14 0.0
C583 C 0.21295 0.44382 0.12401 0.0
O584 O 0.23492 0.47721 0.09361 0.0
O585 O 0.22085 0.44907 0.08649 0.0
O586 O 0.2115 0.4329 0.11495 0.0
O587 O 0.22538 0.46111 0.12192 0.0
H588 H 0.18739 0.44649 0.0921 0.0
H589 H 0.16141 0.44989 0.08426 0.0
H590 H 0.19998 0.49442 0.06092 0.0
H591 H 0.22565 0.49054 0.06853 0.0
H592 H 0.29543 0.46247 0.0666 0.0
H593 H 0.26805 0.45485 0.07945 0.0
H594 H 0.32956 0.47519 0.0992 0.0
H595 H 0.30233 0.4678 0.11188 0.0
H596 H 0.23169 0.41718 0.15437 0.0
H597 H 0.18972 0.43159 0.16352 0.0
H598 H 0.19171 0.44342 0.14276 0.0
H599 H 0.23339 0.4289 0.13345 0.0
C600 C 0.41765 0.8828 0.28965 0.0
C601 C 0.40885 0.89166 0.28419 0.0
C602 C 0.38314 0.87729 0.29897 0.0
C603 C 0.39178 0.88895 0.28882 0.0
C604 C 0.39202 0.86837 0.30429 0.0
C605 C 0.40905 0.87111 0.29968 0.0
U606 U 0.45727 0.89696 0.26566 0.0
O607 O 0.48781 0.91245 0.26861 0.0
O608 O 0.47431 0.88407 0.26195 0.0
C609 C 0.48987 0.89838 0.26579 0.0
C610 C 0.43597 0.88582 0.28536 0.0
C611 C 0.5017 0.89463 0.27417 0.0
C612 C 0.50571 0.87784 0.29105 0.0
C613 C 0.49405 0.88155 0.28363 0.0
C614 C 0.53274 0.90041 0.27976 0.0
C615 C 0.52523 0.88719 0.28919 0.0
C616 C 0.52111 0.90406 0.27236 0.0
C617 C 0.45276 0.91358 0.23332 0.0
C618 C 0.47616 0.92338 0.21712 0.0
C619 C 0.4473 0.92356 0.21355 0.0
C620 C 0.4414 0.91701 0.22547 0.0
C621 C 0.46475 0.92684 0.20917 0.0
C622 C 0.47021 0.9168 0.22909 0.0
C623 C 0.44605 0.90674 0.24585 0.0
O624 O 0.43554 0.87458 0.27685 0.0
O625 O 0.44906 0.90295 0.28349 0.0
O626 O 0.45522 0.91807 0.25487 0.0
O627 O 0.44181 0.88975 0.24816 0.0
H628 H 0.41521 0.90071 0.27641 0.0
H629 H 0.38526 0.89588 0.28439 0.0
H630 H 0.386 0.85952 0.3122 0.0
H631 H 0.41564 0.86421 0.30406 0.0
H632 H 0.49944 0.86772 0.29829 0.0
H633 H 0.47909 0.87414 0.28523 0.0
H634 H 0.54762 0.90769 0.2779 0.0
H635 H 0.5273 0.91413 0.26507 0.0
H636 H 0.4896 0.92556 0.21406 0.0
H637 H 0.43825 0.92634 0.20782 0.0
H638 H 0.42792 0.91469 0.22858 0.0
H639 H 0.47919 0.9142 0.23502 0.0
C640 C 0.13369 0.5374 0.28819 0.0
C641 C 0.12779 0.52158 0.28106 0.0
C642 C 0.13836 0.50828 0.29692 0.0
C643 C 0.13011 0.50714 0.28539 0.0
C644 C 0.14429 0.52426 0.30398 0.0
C645 C 0.14196 0.53865 0.29965 0.0
U646 U 0.1194 0.56117 0.26391 0.0
O647 O 0.10454 0.57658 0.26616 0.0
O648 O 0.13312 0.59042 0.25882 0.0
C649 C 0.11904 0.59219 0.26269 0.0
C650 C 0.13132 0.55271 0.2839 0.0
C651 C 0.12397 0.60809 0.27065 0.0
C652 C 0.1307 0.6226 0.29073 0.0
C653 C 0.12646 0.60738 0.28334 0.0
C654 C 0.13028 0.63941 0.27276 0.0
C655 C 0.13252 0.63877 0.28553 0.0
C656 C 0.12602 0.62421 0.26542 0.0
C657 C 0.10029 0.53861 0.23249 0.0
C658 C 0.10437 0.54024 0.21029 0.0
C659 C 0.07469 0.53375 0.21893 0.0
C660 C 0.0818 0.53483 0.23076 0.0
C661 C 0.08585 0.53637 0.20853 0.0
C662 C 0.11146 0.54127 0.22211 0.0
C663 C 0.1078 0.53895 0.24495 0.0
O664 O 0.14247 0.56264 0.27494 0.0
O665 O 0.11395 0.54892 0.28236 0.0
O666 O 0.09701 0.5373 0.25431 0.0
O667 O 0.12548 0.55125 0.2468 0.0
H668 H 0.12134 0.52039 0.27219 0.0
H669 H 0.1252 0.49498 0.27977 0.0
H670 H 0.15097 0.52577 0.3128 0.0
H671 H 0.14667 0.55081 0.30525 0.0
H672 H 0.13218 0.62157 0.30053 0.0
H673 H 0.12497 0.59503 0.28754 0.0
H674 H 0.13192 0.65171 0.2684 0.0
H675 H 0.12426 0.62504 0.25563 0.0
H676 H 0.11345 0.54255 0.20251 0.0
H677 H 0.06028 0.53045 0.21794 0.0
H678 H 0.07269 0.53249 0.23852 0.0
H679 H 0.1257 0.54404 0.22313 0.0
C680 C 0.41391 0.53409 0.28912 0.0
C681 C 0.40113 0.52034 0.28123 0.0
C682 C 0.38011 0.50473 0.29846 0.0
C683 C 0.38436 0.50581 0.28585 0.0
C684 C 0.39304 0.51858 0.30628 0.0
C685 C 0.40973 0.53308 0.30165 0.0
U686 U 0.45214 0.55853 0.26452 0.0
O687 O 0.46767 0.58778 0.25941 0.0
O688 O 0.48274 0.57456 0.26682 0.0
C689 C 0.48381 0.58993 0.26312 0.0
C690 C 0.43162 0.5496 0.28455 0.0
C691 C 0.49551 0.60633 0.27063 0.0
C692 C 0.50101 0.62506 0.28886 0.0
C693 C 0.48952 0.60914 0.28205 0.0
C694 C 0.52454 0.63533 0.27291 0.0
C695 C 0.51865 0.63842 0.28433 0.0
C696 C 0.51309 0.61949 0.26615 0.0
C697 C 0.44814 0.53524 0.23338 0.0
C698 C 0.46854 0.55 0.21585 0.0
C699 C 0.4465 0.51733 0.21545 0.0
C700 C 0.4403 0.51842 0.22719 0.0
C701 C 0.46071 0.53309 0.20961 0.0
C702 C 0.46234 0.55105 0.22765 0.0
C703 C 0.44124 0.53588 0.24575 0.0
O704 O 0.44544 0.54627 0.28302 0.0
O705 O 0.43019 0.55926 0.27555 0.0
O706 O 0.43601 0.54814 0.24742 0.0
O707 O 0.45102 0.53495 0.25496 0.0
H708 H 0.40415 0.52083 0.27152 0.0
H709 H 0.37485 0.4953 0.27958 0.0
H710 H 0.39015 0.51838 0.31599 0.0
H711 H 0.41939 0.54359 0.30789 0.0
H712 H 0.49594 0.62702 0.29756 0.0
H713 H 0.47597 0.59911 0.28566 0.0
H714 H 0.53813 0.64508 0.26922 0.0
H715 H 0.51799 0.61751 0.25738 0.0
H716 H 0.47963 0.56237 0.21169 0.0
H717 H 0.43996 0.50414 0.21088 0.0
H718 H 0.42929 0.50607 0.23145 0.0
H719 H 0.46864 0.56418 0.2323 0.0
Gd720 Gd 0.51992 0.01994 0.033 0.0
Gd721 Gd 0.50393 0.99675 1.00286 0.0
C722 C 0.44691 0.94487 0.99859 0.0
C723 C 0.45562 0.92184 0.99411 0.0
C724 C 0.47962 0.95369 0.99718 0.0
C725 C 0.46602 0.95834 0.99928 0.0
C726 C 0.4746 0.93548 0.99428 0.0
C727 C 0.4418 0.92653 0.99628 0.0
C728 C 0.43355 0.95034 0.99993 0.0
C729 C 0.4394 0.96892 1.00143 0.0
N730 N 0.47149 0.97622 1.00137 0.0
C731 C 0.45853 0.98178 1.00195 0.0
H732 H 0.4628 0.99606 1.00319 0.0
C733 C 0.51161 0.96379 0.99381 0.0
N734 N 0.49777 0.96724 0.99733 0.0
C735 C 0.50737 0.94592 0.99091 0.0
C736 C 0.48879 0.93165 0.99129 0.0
H737 H 0.526 0.97476 0.99359 0.0
H738 H 0.42719 0.91595 0.99584 0.0
H739 H 0.56121 0.02105 0.03274 0.0
H740 H 0.41873 0.94042 0.99952 0.0
H741 H 0.42919 0.97335 1.00224 0.0
H742 H 0.45148 0.90772 0.99202 0.0
H743 H 0.49726 0.0416 0.04186 0.0
H744 H 0.60484 0.07664 0.03763 0.0
H745 H 0.59473 0.04389 0.03431 0.0
H746 H 0.57149 0.10881 0.04474 0.0
H747 H 0.51841 0.94317 0.9884 0.0
H748 H 0.48553 0.91783 0.98901 0.0
H749 H 0.59605 0.10084 0.04126 0.0
H750 H 0.50447 0.07303 0.04715 0.0
N751 N 0.55226 0.04067 0.03473 0.0
C752 C 0.59007 0.06666 0.03688 0.0
C753 C 0.58441 0.04819 0.03506 0.0
C754 C 0.57657 0.07198 0.03806 0.0
C755 C 0.55753 0.05845 0.03704 0.0
C756 C 0.56534 0.03526 0.03417 0.0
N757 N 0.52566 0.04932 0.03858 0.0
C758 C 0.54378 0.06293 0.039 0.0
C759 C 0.51566 0.0704 0.04483 0.0
C760 C 0.53421 0.08473 0.04477 0.0
C761 C 0.51163 0.05262 0.04186 0.0
C762 C 0.54857 0.08105 0.04202 0.0
H763 H 0.53731 0.09848 0.04712 0.0
O764 O 0.50568 0.01371 0.05063 0.0
O765 O 0.49724 0.99695 0.02256 0.0
O766 O 0.49556 0.0185 1.00601 0.0
O767 O 0.51674 0.0393 0.02019 0.0
O768 O 0.48894 0.00958 0.03516 0.0
O769 O 0.52978 0.01032 0.04826 0.0
O770 O 0.51791 1.00257 0.98515 0.0
O771 O 0.52664 0.01966 1.01333 0.0
O772 O 0.52844 0.99832 0.02986 0.0
O773 O 0.50741 0.97751 0.01561 0.0
O774 O 0.53492 0.00713 1.00064 0.0
O775 O 0.49422 1.00658 0.98764 0.0
C776 C 0.48306 0.99637 0.02736 0.0
C777 C 0.56751 0.09476 0.04253 0.0
C778 C 0.58149 0.09023 0.04056 0.0
C779 C 0.51734 0.00968 0.05593 0.0
C780 C 0.52421 0.01776 0.06815 0.0
C781 C 0.53701 0.03656 0.06932 0.0
C782 C 0.51787 1.00667 0.07876 0.0
C783 C 0.52432 0.01433 0.09053 0.0
C784 C 0.54336 0.04426 0.08088 0.0
C785 C 0.53707 0.03331 0.09139 0.0
C786 C 0.50444 0.03499 1.01118 0.0
C787 C 0.54082 0.02028 1.0085 0.0
C788 C 0.50637 0.0068 0.9799 0.0
C789 C 0.49909 0.99849 0.96778 0.0
C790 C 0.48592 0.97975 0.96687 0.0
C791 C 0.50528 0.00929 0.95704 0.0
C792 C 0.49822 1.0014 0.94542 0.0
C793 C 0.47903 0.97181 0.95544 0.0
C794 C 0.4851 0.98249 0.94481 0.0
C795 C 0.51964 0.98184 0.02467 0.0
H796 H 0.54206 0.04529 0.06132 0.0
H797 H 0.50812 0.99209 0.07782 0.0
H798 H 0.55315 0.05882 0.08171 0.0
H799 H 0.54204 0.0398 0.10024 0.0
H800 H 0.48098 0.97125 0.97498 0.0
H801 H 0.51533 0.02383 0.95776 0.0
H802 H 0.46894 0.9573 0.95482 0.0
H803 H 0.47964 0.97585 0.93606 0.0
Gd804 Gd 0.999 0.50366 0.03254 0.0
Gd805 Gd 0.02594 0.51245 1.00375 0.0
C806 C 0.07941 0.50917 1.00088 0.0
C807 C 0.10295 0.54101 0.99715 0.0
C808 C 0.07025 0.53232 0.99948 0.0
C809 C 0.06554 0.51428 1.00137 0.0
C810 C 0.08895 0.54586 0.99709 0.0
C811 C 0.09819 0.52269 0.99903 0.0
C812 C 0.07391 0.49057 1.0019 0.0
C813 C 0.05495 0.47757 1.00305 0.0
N814 N 0.04725 0.50157 1.00303 0.0
C815 C 0.04172 0.48332 1.00345 0.0
H816 H 0.02714 0.4731 1.00437 0.0
C817 C 0.05996 0.55362 0.99605 0.0
N818 N 0.05634 0.53644 0.99931 0.0
C819 C 0.0783 0.56756 0.99371 0.0
C820 C 0.0929 0.56372 0.99437 0.0
H821 H 0.04874 0.55669 0.99557 0.0
H822 H 0.10906 0.51906 0.99875 0.0
H823 H 0.9984 0.54336 0.03197 0.0
H824 H 0.08413 0.48609 1.00153 0.0
H825 H 0.05051 0.46312 1.00366 0.0
H826 H 0.11743 0.55124 0.99544 0.0
H827 H 0.97554 0.45949 0.04082 0.0
H828 H 0.94146 0.53092 0.03302 0.0
H829 H 0.97525 0.55366 0.03181 0.0
H830 H 0.9073 0.46572 0.0391 0.0
H831 H 0.08116 0.58124 0.9914 0.0
H832 H 0.10709 0.57451 0.9925 0.0
H833 H 0.91615 0.498 0.0356 0.0
H834 H 0.94282 0.43512 0.04445 0.0
N835 N 0.97801 0.51494 0.03297 0.0
C836 C 0.95158 0.52629 0.03312 0.0
C837 C 0.97064 0.53917 0.03246 0.0
C838 C 0.94585 0.50764 0.03426 0.0
C839 C 0.9596 0.50236 0.03426 0.0
C840 C 0.98375 0.53324 0.03257 0.0
N841 N 0.96837 0.47994 0.03671 0.0
C842 C 0.95461 0.48425 0.03619 0.0
C843 C 0.94593 0.44887 0.04209 0.0
C844 C 0.93149 0.4529 0.04101 0.0
C845 C 0.96443 0.46269 0.04007 0.0
C846 C 0.93576 0.47084 0.03821 0.0
H847 H 0.91718 0.44218 0.04261 0.0
O848 O 1.00296 0.4949 0.05052 0.0
O849 O 0.02356 0.50482 0.02341 0.0
O850 O 1.00363 0.48225 1.00607 0.0
O851 O 0.98081 0.48158 0.01901 0.0
O852 O 1.00934 0.48355 0.03557 0.0
O853 O 1.00712 0.52226 0.04805 0.0
O854 O 0.02159 0.52089 0.98576 0.0
O855 O 1.00143 0.51129 1.01291 0.0
O856 O 0.0216 0.5338 0.03038 0.0
O857 O 0.04428 0.53449 0.01726 0.0
O858 O 0.0156 0.53256 1.00079 0.0
O859 O 0.01749 0.49358 0.98837 0.0
C860 C 0.02362 0.4913 0.02839 0.0
C861 C 0.92189 0.47585 0.03769 0.0
C862 C 0.92693 0.49423 0.03571 0.0
C863 C 1.00658 0.51019 0.05583 0.0
C864 C 0.99697 0.50844 0.06753 0.0
C865 C 0.97797 0.5032 0.06777 0.0
C866 C 1.00694 0.51193 0.0786 0.0
C867 C 0.998 0.51021 0.08994 0.0
C868 C 0.969 0.50143 0.07895 0.0
C869 C 0.97888 0.50488 0.08996 0.0
C870 C 0.98626 0.47417 1.01041 0.0
C871 C 1.00133 0.52481 1.00798 0.0
C872 C 0.01787 0.50551 0.98053 0.0
C873 C 0.02728 0.50706 0.96878 0.0
C874 C 0.04632 0.51248 0.96843 0.0
C875 C 0.01709 0.50313 0.95777 0.0
C876 C 0.02586 0.50458 0.94639 0.0
C877 C 0.05513 0.514 0.95722 0.0
C878 C 0.04503 0.51011 0.94628 0.0
C879 C 0.03893 0.54188 0.02595 0.0
H880 H 0.97009 0.50048 0.05935 0.0
H881 H 0.02169 0.51619 0.07834 0.0
H882 H 0.95429 0.4973 0.07909 0.0
H883 H 0.97147 0.50311 0.0985 0.0
H884 H 0.05437 0.51553 0.97679 0.0
H885 H 1.00231 0.49874 0.9581 0.0
H886 H 0.06987 0.51828 0.95701 0.0
H887 H 0.05232 0.51169 0.93771 0.0
Gd888 Gd 0.5032 0.51168 1.00391 0.0
Gd889 Gd 0.51994 0.50327 0.03347 0.0
C890 C 0.57692 0.50702 0.03702 0.0
C891 C 0.56816 0.47535 0.04133 0.0
C892 C 0.54421 0.48383 0.03863 0.0
C893 C 0.55782 0.50182 0.03653 0.0
C894 C 0.5492 0.47044 0.04135 0.0
C895 C 0.582 0.49361 0.03915 0.0
C896 C 0.59032 0.52559 0.03569 0.0
C897 C 0.58453 0.53851 0.03439 0.0
N898 N 0.55239 0.51442 0.03462 0.0
C899 C 0.56541 0.53268 0.03405 0.0
H900 H 0.56119 0.54284 0.03297 0.0
C901 C 0.51225 0.46257 0.04217 0.0
N902 N 0.52608 0.47963 0.03866 0.0
C903 C 0.51648 0.44878 0.04489 0.0
C904 C 0.53501 0.45267 0.04432 0.0
H905 H 0.49788 0.45947 0.04253 0.0
H906 H 0.5966 0.4973 0.03944 0.0
H907 H 0.46194 0.47215 1.00432 0.0
H908 H 0.60514 0.53014 0.03595 0.0
H909 H 0.59477 0.55295 0.03359 0.0
H910 H 0.57228 0.46522 0.04327 0.0
H911 H 0.52533 0.55558 0.99504 0.0
H912 H 0.41805 0.48498 1.00164 0.0
H913 H 0.42836 0.46209 1.00381 0.0
H914 H 0.45099 0.54996 0.99458 0.0
H915 H 0.50544 0.43517 0.04739 0.0
H916 H 0.53826 0.44198 0.04647 0.0
H917 H 0.42664 0.51787 0.99832 0.0
H918 H 0.51783 0.57997 0.99039 0.0
N919 N 0.47077 0.50059 1.0028 0.0
C920 C 0.43286 0.48949 1.00185 0.0
C921 C 0.43862 0.47654 1.00305 0.0
C922 C 0.44628 0.50807 1.00056 0.0
C923 C 0.46537 0.51322 1.00099 0.0
C924 C 0.45773 0.48233 1.00332 0.0
N925 N 0.49713 0.5354 0.99886 0.0
C926 C 0.479 0.53123 0.99894 0.0
C927 C 0.50678 0.56633 0.99283 0.0
C928 C 0.48825 0.56247 0.99344 0.0
C929 C 0.51097 0.5525 0.99543 0.0
C930 C 0.47404 0.54467 0.99635 0.0
H931 H 0.48502 0.5732 0.99139 0.0
O932 O 0.51687 0.51992 0.98612 0.0
O933 O 0.52609 0.51051 1.01379 0.0
O934 O 0.52847 0.53336 0.03072 0.0
O935 O 0.50707 0.53403 0.017 0.0
O936 O 0.53416 0.53166 1.00145 0.0
O937 O 0.49294 0.49272 0.98855 0.0
O938 O 0.50596 0.49508 0.05117 0.0
O939 O 0.49702 0.50438 0.02358 0.0
O940 O 0.49473 0.4816 1.00662 0.0
O941 O 0.51593 0.48076 0.02045 0.0
O942 O 0.48903 0.48313 0.03582 0.0
O943 O 0.53016 0.52212 0.04889 0.0
C944 C 0.54017 0.52391 1.00895 0.0
C945 C 0.45509 0.5398 0.99642 0.0
C946 C 0.44123 0.52153 0.99855 0.0
C947 C 0.50511 0.50451 0.98084 0.0
C948 C 0.49788 0.50597 0.96878 0.0
C949 C 0.48444 0.51144 0.96789 0.0
C950 C 0.50453 0.50189 0.95803 0.0
C951 C 0.49776 0.50321 0.94639 0.0
C952 C 0.47772 0.51287 0.95643 0.0
C953 C 0.4843 0.50882 0.94576 0.0
C954 C 0.51962 0.54144 0.0259 0.0
C955 C 0.48296 0.49087 0.02835 0.0
C956 C 0.51781 0.51037 0.05654 0.0
C957 C 0.5248 0.50861 0.06861 0.0
C958 C 0.5389 0.50399 0.06948 0.0
C959 C 0.5171 0.51128 0.0794 0.0
C960 C 0.52334 0.50921 0.09105 0.0
C961 C 0.54522 0.50202 0.08094 0.0
C962 C 0.53752 0.50457 0.09165 0.0
C963 C 0.50345 0.47344 1.0115 0.0
H964 H 0.47916 0.51462 0.97604 0.0
H965 H 0.51479 0.49747 0.95878 0.0
H966 H 0.4674 0.5172 0.9558 0.0
H967 H 0.47902 0.51033 0.93699 0.0
H968 H 0.545 0.50192 0.0613 0.0
H969 H 0.50606 0.51466 0.07872 0.0
H970 H 0.55614 0.4985 0.08154 0.0
H971 H 0.54285 0.50312 0.10042 0.0
Gd972 Gd 0.18604 0.35136 0.36678 0.0
Gd973 Gd 0.17134 0.32862 0.33649 0.0
C974 C 0.11421 0.27747 0.3306 0.0
C975 C 0.1227 0.25428 0.32611 0.0
C976 C 0.14684 0.28579 0.33015 0.0
C977 C 0.13332 0.29062 0.33202 0.0
C978 C 0.14173 0.26767 0.32688 0.0
C979 C 0.10896 0.25917 0.32795 0.0
C980 C 0.10103 0.28323 0.33143 0.0
C981 C 0.10703 0.30174 0.33343 0.0
N982 N 0.13891 0.30845 0.33443 0.0
C983 C 0.12613 0.31426 0.33475 0.0
H984 H 0.13049 0.3285 0.33627 0.0
C985 C 0.17889 0.29564 0.32734 0.0
N986 N 0.16505 0.29915 0.33074 0.0
C987 C 0.17455 0.27785 0.32412 0.0
C988 C 0.1559 0.26374 0.32405 0.0
H989 H 0.19334 0.3065 0.32743 0.0
H990 H 0.09434 0.24883 0.32698 0.0
H991 H 0.22644 0.35054 0.36734 0.0
H992 H 0.08625 0.27362 0.33021 0.0
H993 H 0.09696 0.30638 0.33391 0.0
H994 H 0.11848 0.24023 0.32373 0.0
H995 H 0.16483 0.37446 0.37533 0.0
H996 H 0.27146 0.40523 0.37273 0.0
H997 H 0.26008 0.37223 0.36955 0.0
H998 H 0.24038 0.4399 0.37846 0.0
H999 H 0.18558 0.27503 0.32171 0.0
H1000 H 0.15255 0.24998 0.3215 0.0
H1001 H 0.26403 0.43056 0.37557 0.0
H1002 H 0.17325 0.40632 0.3805 0.0
N1003 N 0.21857 0.37105 0.36879 0.0
C1004 C 0.25661 0.3958 0.37162 0.0
C1005 C 0.25024 0.37716 0.3699 0.0
C1006 C 0.24371 0.40194 0.37228 0.0
C1007 C 0.22452 0.38902 0.37094 0.0
C1008 C 0.23107 0.36488 0.36865 0.0
N1009 N 0.19296 0.38116 0.37215 0.0
C1010 C 0.21127 0.39427 0.37264 0.0
C1011 C 0.18408 0.40313 0.37826 0.0
C1012 C 0.20285 0.41698 0.37823 0.0
C1013 C 0.17937 0.38513 0.37536 0.0
C1014 C 0.21675 0.41258 0.37561 0.0
H1015 H 0.20649 0.43089 0.38054 0.0
O1016 O 0.17145 0.34626 0.38423 0.0
O1017 O 0.16374 0.32848 0.35603 0.0
O1018 O 0.16303 0.35046 0.33923 0.0
O1019 O 0.18332 0.37094 0.35389 0.0
O1020 O 0.15504 0.34133 0.36818 0.0
O1021 O 0.19443 0.34101 0.38238 0.0
O1022 O 0.18635 0.33486 0.31914 0.0
O1023 O 0.1936 0.35143 0.34727 0.0
O1024 O 0.1939 0.32914 0.36422 0.0
O1025 O 0.17422 0.30895 0.34917 0.0
O1026 O 0.20239 0.33875 0.33508 0.0
O1027 O 0.16237 0.33857 0.32094 0.0
C1028 C 0.14941 0.32804 0.36044 0.0
C1029 C 0.23588 0.42571 0.3763 0.0
C1030 C 0.24934 0.4204 0.37466 0.0
C1031 C 0.18231 0.34146 0.38983 0.0
C1032 C 0.18942 0.34977 0.40197 0.0
C1033 C 0.20367 0.36815 0.40287 0.0
C1034 C 0.18191 0.33936 0.41277 0.0
C1035 C 0.18852 0.34735 0.42443 0.0
C1036 C 0.21033 0.3761 0.41433 0.0
C1037 C 0.20285 0.36584 0.42502 0.0
C1038 C 0.17151 0.3668 0.34461 0.0
C1039 C 0.20797 0.35195 0.34289 0.0
C1040 C 0.17502 0.33905 0.31355 0.0
C1041 C 0.16855 0.33098 0.30127 0.0
C1042 C 0.15528 0.31232 0.30005 0.0
C1043 C 0.1758 0.34194 0.29067 0.0
C1044 C 0.16995 0.33422 0.27887 0.0
C1045 C 0.14938 0.3046 0.28844 0.0
C1046 C 0.15663 0.31541 0.27793 0.0
C1047 C 0.18573 0.31295 0.35862 0.0
H1048 H 0.20968 0.37633 0.39473 0.0
H1049 H 0.17081 0.32518 0.41209 0.0
H1050 H 0.22139 0.39029 0.41493 0.0
H1051 H 0.20851 0.37235 0.43377 0.0
H1052 H 0.14947 0.30371 0.30805 0.0
H1053 H 0.18615 0.35636 0.29161 0.0
H1054 H 0.13909 0.29018 0.28758 0.0
H1055 H 0.15158 0.30907 0.26906 0.0
Gd1056 Gd 0.66541 0.83677 0.36629 0.0
Gd1057 Gd 0.69176 0.8451 0.33733 0.0
C1058 C 0.74315 0.83835 0.33386 0.0
C1059 C 0.76793 0.86972 0.33019 0.0
C1060 C 0.73584 0.86285 0.33301 0.0
C1061 C 0.73014 0.84453 0.33479 0.0
C1062 C 0.75474 0.87562 0.33046 0.0
C1063 C 0.76213 0.8511 0.33183 0.0
C1064 C 0.73658 0.81949 0.33458 0.0
C1065 C 0.7175 0.80732 0.33608 0.0
N1066 N 0.71167 0.83256 0.33659 0.0
C1067 C 0.70515 0.81409 0.33693 0.0
H1068 H 0.69046 0.80443 0.33801 0.0
C1069 C 0.72721 0.88543 0.32974 0.0
N1070 N 0.72267 0.86797 0.33298 0.0
C1071 C 0.74581 0.89867 0.32734 0.0
C1072 C 0.75969 0.8938 0.32784 0.0
H1073 H 0.71651 0.88923 0.32936 0.0
H1074 H 0.77235 0.84664 0.33122 0.0
H1075 H 0.66489 0.87652 0.36557 0.0
H1076 H 0.74607 0.81416 0.33374 0.0
H1077 H 0.71226 0.79269 0.33651 0.0
H1078 H 0.78255 0.87935 0.32834 0.0
H1079 H 0.64211 0.79288 0.37516 0.0
H1080 H 0.608 0.8642 0.36694 0.0
H1081 H 0.64178 0.88687 0.36546 0.0
H1082 H 0.5739 0.79917 0.37376 0.0
H1083 H 0.74942 0.91259 0.32508 0.0
H1084 H 0.77407 0.90404 0.32586 0.0
H1085 H 0.58271 0.83136 0.3699 0.0
H1086 H 0.60948 0.76868 0.37931 0.0
N1087 N 0.64447 0.84812 0.36674 0.0
C1088 C 0.6181 0.85955 0.367 0.0
C1089 C 0.63715 0.87239 0.3662 0.0
C1090 C 0.61236 0.84091 0.36826 0.0
C1091 C 0.62607 0.83559 0.36819 0.0
C1092 C 0.65023 0.86643 0.36627 0.0
N1093 N 0.63486 0.8132 0.37083 0.0
C1094 C 0.6211 0.81753 0.37033 0.0
C1095 C 0.61254 0.78235 0.37674 0.0
C1096 C 0.59809 0.78636 0.37568 0.0
C1097 C 0.63099 0.79607 0.37442 0.0
C1098 C 0.6023 0.80421 0.37263 0.0
H1099 H 0.58382 0.77573 0.37752 0.0
O1100 O 0.66956 0.82827 0.38433 0.0
O1101 O 0.68976 0.83774 0.35698 0.0
O1102 O 0.66874 0.81514 0.33948 0.0
O1103 O 0.6466 0.81455 0.35305 0.0
O1104 O 0.67572 0.81656 0.36916 0.0
O1105 O 0.67388 0.85564 0.38166 0.0
O1106 O 0.68885 0.8546 0.31933 0.0
O1107 O 0.66752 0.84429 0.34662 0.0
O1108 O 0.688 0.86685 0.36396 0.0
O1109 O 0.71038 0.86717 0.35075 0.0
O1110 O 0.68187 0.8656 0.33453 0.0
O1111 O 0.68211 0.82639 0.32186 0.0
C1112 C 0.68989 0.82423 0.36188 0.0
C1113 C 0.58845 0.80924 0.37215 0.0
C1114 C 0.59347 0.82757 0.36995 0.0
C1115 C 0.67327 0.84365 0.38954 0.0
C1116 C 0.6636 0.8421 0.40119 0.0
C1117 C 0.64482 0.83767 0.40128 0.0
C1118 C 0.67322 0.84495 0.41236 0.0
C1119 C 0.66411 0.8433 0.42362 0.0
C1120 C 0.63571 0.83606 0.41237 0.0
C1121 C 0.64524 0.83883 0.42347 0.0
C1122 C 0.65159 0.80715 0.34417 0.0
C1123 C 0.66759 0.85792 0.34172 0.0
C1124 C 0.68388 0.83893 0.31405 0.0
C1125 C 0.69318 0.8397 0.30238 0.0
C1126 C 0.71152 0.84282 0.30223 0.0
C1127 C 0.68355 0.83721 0.29126 0.0
C1128 C 0.69218 0.83782 0.27997 0.0
C1129 C 0.72017 0.84343 0.29111 0.0
C1130 C 0.71061 0.84094 0.28006 0.0
C1131 C 0.70524 0.87476 0.35942 0.0
H1132 H 0.63722 0.83551 0.3928 0.0
H1133 H 0.6877 0.8482 0.41227 0.0
H1134 H 0.62122 0.83269 0.41237 0.0
H1135 H 0.63788 0.83772 0.43194 0.0
H1136 H 0.71911 0.8447 0.31067 0.0
H1137 H 0.66944 0.835 0.29142 0.0
H1138 H 0.73431 0.84577 0.29107 0.0
H1139 H 0.71758 0.84121 0.27159 0.0
Gd1140 Gd 0.17152 0.84489 0.33522 0.0
Gd1141 Gd 0.18507 0.83768 0.36592 0.0
C1142 C 0.24611 0.85212 0.36847 0.0
C1143 C 0.24322 0.82254 0.37315 0.0
C1144 C 0.21539 0.82521 0.37063 0.0
C1145 C 0.22643 0.84375 0.36823 0.0
C1146 C 0.22366 0.81452 0.37357 0.0
C1147 C 0.25443 0.84131 0.37059 0.0
C1148 C 0.2568 0.87116 0.36692 0.0
C1149 C 0.24782 0.88139 0.36551 0.0
N1150 N 0.21794 0.85377 0.36624 0.0
C1151 C 0.22826 0.87243 0.36524 0.0
H1152 H 0.22149 0.88045 0.36414 0.0
C1153 C 0.18537 0.80076 0.37577 0.0
N1154 N 0.19659 0.81799 0.37111 0.0
C1155 C 0.19288 0.78957 0.37874 0.0
C1156 C 0.21207 0.79636 0.37739 0.0
H1157 H 0.17051 0.79549 0.37677 0.0
H1158 H 0.26951 0.84744 0.37062 0.0
H1159 H 0.13341 0.80208 0.33048 0.0
H1160 H 0.27195 0.87811 0.36705 0.0
H1161 H 0.25595 0.89616 0.36452 0.0
H1162 H 0.24983 0.8145 0.37521 0.0
H1163 H 0.18538 0.88969 0.32868 0.0
H1164 H 0.08415 0.80572 0.33368 0.0
H1165 H 0.09952 0.78731 0.33078 0.0
H1166 H 0.10701 0.87012 0.3365 0.0
H1167 H 0.18388 0.77573 0.38206 0.0
H1168 H 0.21788 0.7877 0.37976 0.0
H1169 H 0.08708 0.83657 0.33634 0.0
H1170 H 0.17234 0.91022 0.32952 0.0
N1171 N 0.13825 0.82905 0.33418 0.0
C1172 C 0.09927 0.81241 0.33385 0.0
C1173 C 0.1079 0.80198 0.33218 0.0
C1174 C 0.11027 0.83142 0.33514 0.0
C1175 C 0.12998 0.8395 0.33507 0.0
C1176 C 0.1274 0.81055 0.33221 0.0
N1177 N 0.15995 0.86571 0.33402 0.0
C1178 C 0.14118 0.85838 0.33518 0.0
C1179 C 0.16344 0.89571 0.33136 0.0
C1180 C 0.1445 0.8886 0.3338 0.0
C1181 C 0.17082 0.88396 0.3311 0.0
C1182 C 0.13298 0.86966 0.33529 0.0
H1183 H 0.13874 0.89769 0.33384 0.0
O1184 O 0.18587 0.86197 0.31938 0.0
O1185 O 0.19566 0.8495 0.34731 0.0
O1186 O 0.18484 0.86434 0.36498 0.0
O1187 O 0.18985 0.87247 0.34446 0.0
O1188 O 0.19403 0.83869 0.32994 0.0
O1189 O 0.16491 0.83331 0.31691 0.0
O1190 O 0.17141 0.8274 0.38359 0.0
O1191 O 0.16279 0.83856 0.35484 0.0
O1192 O 0.16346 0.81495 0.33748 0.0
O1193 O 0.17983 0.81309 0.35446 0.0
O1194 O 0.15451 0.8162 0.36637 0.0
O1195 O 0.19381 0.85541 0.38194 0.0
C1196 C 0.20359 0.84394 0.33989 0.0
C1197 C 0.11349 0.86166 0.33622 0.0
C1198 C 0.10215 0.84256 0.3361 0.0
C1199 C 0.1768 0.84866 0.31157 0.0
C1200 C 0.17076 0.85299 0.29994 0.0
C1201 C 0.1592 0.86076 0.29975 0.0
C1202 C 0.17636 0.84874 0.28881 0.0
C1203 C 0.17055 0.85227 0.27745 0.0
C1204 C 0.15348 0.86445 0.28855 0.0
C1205 C 0.15909 0.86027 0.27749 0.0
C1206 C 0.18928 0.87651 0.35612 0.0
C1207 C 0.14867 0.8243 0.35899 0.0
C1208 C 0.18212 0.84269 0.38934 0.0
C1209 C 0.18967 0.84127 0.40131 0.0
C1210 C 0.20387 0.83679 0.40195 0.0
C1211 C 0.18292 0.84488 0.41221 0.0
C1212 C 0.19039 0.84409 0.42371 0.0
C1213 C 0.21118 0.83576 0.41328 0.0
C1214 C 0.20453 0.83937 0.42408 0.0
C1215 C 0.16976 0.80615 0.34437 0.0
H1216 H 0.15456 0.8639 0.30821 0.0
H1217 H 0.18497 0.84236 0.28904 0.0
H1218 H 0.14463 0.87055 0.28844 0.0
H1219 H 0.15459 0.86349 0.26897 0.0
H1220 H 0.2094 0.83419 0.39371 0.0
H1221 H 0.17214 0.84864 0.41169 0.0
H1222 H 0.22208 0.8322 0.41369 0.0
H1223 H 0.21036 0.83829 0.43274 0.0
Gd1224 Gd 0.85224 0.68466 0.70007 0.0
Gd1225 Gd 0.83573 0.6614 0.67 0.0
C1226 C 0.7788 0.60967 0.66508 0.0
C1227 C 0.78754 0.58667 0.66055 0.0
C1228 C 0.8115 0.61841 0.66408 0.0
C1229 C 0.79788 0.62306 0.66611 0.0
C1230 C 0.80652 0.60025 0.66103 0.0
C1231 C 0.77369 0.59137 0.66257 0.0
C1232 C 0.76544 0.61517 0.66624 0.0
C1233 C 0.77128 0.63368 0.66807 0.0
N1234 N 0.80333 0.64089 0.6684 0.0
C1235 C 0.79038 0.64646 0.66896 0.0
H1236 H 0.79466 0.66071 0.67038 0.0
C1237 C 0.84357 0.62847 0.66108 0.0
N1238 N 0.82967 0.63192 0.66444 0.0
C1239 C 0.83935 0.61064 0.65809 0.0
C1240 C 0.82076 0.59641 0.6582 0.0
H1241 H 0.85798 0.63941 0.66103 0.0
H1242 H 0.75909 0.58086 0.66187 0.0
H1243 H 0.89307 0.68473 0.69952 0.0
H1244 H 0.75065 0.60531 0.66544 0.0
H1245 H 0.76106 0.63812 0.66879 0.0
H1246 H 0.78342 0.5726 0.65833 0.0
H1247 H 0.8308 0.70719 0.70946 0.0
H1248 H 0.93772 0.7401 0.70315 0.0
H1249 H 0.92677 0.70707 0.70037 0.0
H1250 H 0.90584 0.77357 0.71092 0.0
H1251 H 0.85044 0.60789 0.6557 0.0
H1252 H 0.81751 0.58263 0.65583 0.0
H1253 H 0.92976 0.76489 0.70695 0.0
H1254 H 0.83889 0.73893 0.71468 0.0
N1255 N 0.88477 0.70485 0.70146 0.0
C1256 C 0.92285 0.73033 0.70279 0.0
C1257 C 0.91672 0.7117 0.70125 0.0
C1258 C 0.9097 0.73605 0.70422 0.0
C1259 C 0.89052 0.72278 0.70359 0.0
C1260 C 0.89753 0.69904 0.70079 0.0
N1261 N 0.8589 0.71432 0.70567 0.0
C1262 C 0.87713 0.72767 0.70578 0.0
C1263 C 0.84979 0.73597 0.71215 0.0
C1264 C 0.86844 0.75005 0.71173 0.0
C1265 C 0.84525 0.71802 0.70923 0.0
C1266 C 0.88243 0.74596 0.7087 0.0
H1267 H 0.87193 0.76393 0.71403 0.0
O1268 O 0.83866 0.67936 0.71792 0.0
O1269 O 0.82926 0.66184 0.68971 0.0
O1270 O 0.8275 0.68324 0.6732 0.0
O1271 O 0.84876 0.70398 0.68738 0.0
O1272 O 0.82134 0.67461 0.70245 0.0
O1273 O 0.86157 0.6742 0.71511 0.0
O1274 O 0.84955 0.66711 0.65223 0.0
O1275 O 0.8586 0.68428 0.68036 0.0
O1276 O 0.86029 0.66269 0.69685 0.0
O1277 O 0.83882 0.64196 0.68278 0.0
O1278 O 0.86667 0.67162 0.66765 0.0
O1279 O 0.82607 0.67142 0.65488 0.0
C1280 C 0.81523 0.66144 0.6946 0.0
C1281 C 0.90148 0.75941 0.70881 0.0
C1282 C 0.9151 0.75446 0.70656 0.0
C1283 C 0.84984 0.67449 0.72299 0.0
C1284 C 0.85754 0.68252 0.73509 0.0
C1285 C 0.87191 0.70083 0.73604 0.0
C1286 C 0.85063 0.67175 0.7458 0.0
C1287 C 0.85819 0.67921 0.75742 0.0
C1288 C 0.87934 0.70834 0.74749 0.0
C1289 C 0.87259 0.69766 0.75809 0.0
C1290 C 0.83643 0.69971 0.67839 0.0
C1291 C 0.87269 0.68481 0.67548 0.0
C1292 C 0.83808 0.67151 0.64707 0.0
C1293 C 0.83063 0.66328 0.63497 0.0
C1294 C 0.81695 0.64469 0.63406 0.0
C1295 C 0.83712 0.67405 0.62423 0.0
C1296 C 0.82981 0.66628 0.61263 0.0
C1297 C 0.8098 0.63689 0.62264 0.0
C1298 C 0.81614 0.64755 0.61201 0.0
C1299 C 0.85122 0.6462 0.69171 0.0
H1300 H 0.8774 0.7093 0.72794 0.0
H1301 H 0.83963 0.65754 0.74505 0.0
H1302 H 0.8904 0.72252 0.74814 0.0
H1303 H 0.87852 0.70394 0.76686 0.0
H1304 H 0.81179 0.63623 0.64217 0.0
H1305 H 0.84757 0.68846 0.62494 0.0
H1306 H 0.7993 0.6225 0.62202 0.0
H1307 H 0.81045 0.64104 0.60326 0.0
Gd1308 Gd 0.33229 0.17131 0.69823 0.0
Gd1309 Gd 0.35936 0.17852 0.66964 0.0
C1310 C 0.4119 0.17339 0.66867 0.0
C1311 C 0.43625 0.20486 0.66473 0.0
C1312 C 0.4037 0.19708 0.66607 0.0
C1313 C 0.3984 0.17899 0.66839 0.0
C1314 C 0.42262 0.21017 0.66391 0.0
C1315 C 0.4309 0.1865 0.66712 0.0
C1316 C 0.40585 0.15472 0.67016 0.0
C1317 C 0.38672 0.14212 0.6709 0.0
N1318 N 0.37992 0.1667 0.66977 0.0
C1319 C 0.37387 0.14835 0.67052 0.0
H1320 H 0.35916 0.13844 0.67118 0.0
C1321 C 0.39439 0.21884 0.66149 0.0
N1322 N 0.39016 0.20168 0.66526 0.0
C1323 C 0.41297 0.23234 0.65931 0.0
C1324 C 0.42719 0.22806 0.66068 0.0
H1325 H 0.38345 0.22225 0.66051 0.0
H1326 H 0.44149 0.18249 0.66745 0.0
H1327 H 0.33255 0.21143 0.69656 0.0
H1328 H 0.41577 0.14986 0.67047 0.0
H1329 H 0.38186 0.12761 0.67183 0.0
H1330 H 0.45089 0.21475 0.66323 0.0
H1331 H 0.30818 0.12761 0.70739 0.0
H1332 H 0.276 0.20013 0.69747 0.0
H1333 H 0.3099 0.22231 0.69592 0.0
H1334 H 0.24084 0.13532 0.70504 0.0
H1335 H 0.41632 0.24604 0.6566 0.0
H1336 H 0.44157 0.23852 0.65895 0.0
H1337 H 0.25027 0.16756 0.70073 0.0
H1338 H 0.27534 0.1039 0.71146 0.0
N1339 N 0.31178 0.18319 0.69813 0.0
C1340 C 0.2859 0.19524 0.69777 0.0
C1341 C 0.30502 0.2078 0.69692 0.0
C1342 C 0.27983 0.17659 0.69937 0.0
C1343 C 0.29331 0.17095 0.69961 0.0
C1344 C 0.31785 0.20154 0.6973 0.0
N1345 N 0.30151 0.14824 0.70273 0.0
C1346 C 0.288 0.15287 0.702 0.0
C1347 C 0.27869 0.11761 0.70875 0.0
C1348 C 0.2645 0.12194 0.70748 0.0
C1349 C 0.29727 0.13106 0.70648 0.0
C1350 C 0.26908 0.13983 0.70424 0.0
H1351 H 0.25012 0.11151 0.70927 0.0
O1352 O 0.33572 0.16307 0.71654 0.0
O1353 O 0.35666 0.17166 0.68944 0.0
O1354 O 0.33649 0.14861 0.67228 0.0
O1355 O 0.31389 0.14877 0.68504 0.0
O1356 O 0.34213 0.15095 0.70191 0.0
O1357 O 0.34133 0.19079 0.71325 0.0
O1358 O 0.35577 0.18673 0.65137 0.0
O1359 O 0.33497 0.17812 0.67843 0.0
O1360 O 0.35512 0.20122 0.69557 0.0
O1361 O 0.37776 0.20105 0.68285 0.0
O1362 O 0.34947 0.19885 0.66598 0.0
O1363 O 0.35072 0.15918 0.65454 0.0
C1364 C 0.35647 0.15824 0.69475 0.0
C1365 C 0.25548 0.14518 0.70348 0.0
C1366 C 0.26085 0.16353 0.70103 0.0
C1367 C 0.34017 0.17888 0.72139 0.0
C1368 C 0.33093 0.17838 0.73302 0.0
C1369 C 0.31265 0.17545 0.73316 0.0
C1370 C 0.34063 0.18106 0.74413 0.0
C1371 C 0.33222 0.18099 0.75539 0.0
C1372 C 0.30419 0.17529 0.74427 0.0
C1373 C 0.31388 0.17808 0.75532 0.0
C1374 C 0.31914 0.14093 0.67662 0.0
C1375 C 0.33512 0.19153 0.67313 0.0
C1376 C 0.35167 0.17106 0.64644 0.0
C1377 C 0.36118 0.17195 0.63484 0.0
C1378 C 0.38002 0.17657 0.63476 0.0
C1379 C 0.35129 0.16816 0.62371 0.0
C1380 C 0.36013 0.16892 0.61249 0.0
C1381 C 0.3889 0.17741 0.6237 0.0
C1382 C 0.37909 0.17364 0.61264 0.0
C1383 C 0.37248 0.20889 0.69126 0.0
H1384 H 0.30498 0.17336 0.72471 0.0
H1385 H 0.35483 0.18349 0.74397 0.0
H1386 H 0.29006 0.173 0.74433 0.0
H1387 H 0.30692 0.17773 0.76382 0.0
H1388 H 0.38783 0.1795 0.64322 0.0
H1389 H 0.33667 0.1644 0.62384 0.0
H1390 H 0.40347 0.18106 0.62369 0.0
H1391 H 0.38643 0.17466 0.60419 0.0
Gd1392 Gd 0.83661 0.17925 0.66982 0.0
Gd1393 Gd 0.85347 0.17069 0.69927 0.0
C1394 C 0.91038 0.1742 0.70245 0.0
C1395 C 0.90155 0.14247 0.7066 0.0
C1396 C 0.87766 0.1511 0.70418 0.0
C1397 C 0.8913 0.16908 0.70208 0.0
C1398 C 0.88261 0.13764 0.70676 0.0
C1399 C 0.91542 0.16072 0.70442 0.0
C1400 C 0.92382 0.19277 0.70115 0.0
C1401 C 0.91808 0.20575 0.70002 0.0
N1402 N 0.88591 0.18173 0.7003 0.0
C1403 C 0.89897 0.19999 0.69979 0.0
H1404 H 0.89479 0.21019 0.69883 0.0
C1405 C 0.84571 0.12991 0.70782 0.0
N1406 N 0.85955 0.14697 0.70433 0.0
C1407 C 0.8499 0.11606 0.71042 0.0
C1408 C 0.8684 0.11987 0.70973 0.0
H1409 H 0.83137 0.12686 0.70827 0.0
H1410 H 0.93 0.16436 0.7046 0.0
H1411 H 0.79539 0.13967 0.6702 0.0
H1412 H 0.93863 0.19727 0.70132 0.0
H1413 H 0.92835 0.22019 0.69926 0.0
H1414 H 0.90563 0.13229 0.70843 0.0
H1415 H 0.85868 0.22328 0.66123 0.0
H1416 H 0.75142 0.15238 0.66754 0.0
H1417 H 0.7618 0.12955 0.66967 0.0
H1418 H 0.78424 0.21743 0.66076 0.0
H1419 H 0.83885 0.10245 0.71292 0.0
H1420 H 0.87162 0.10914 0.71177 0.0
H1421 H 0.75993 0.18527 0.66433 0.0
H1422 H 0.85111 0.24768 0.65677 0.0
N1423 N 0.80416 0.1681 0.66873 0.0
C1424 C 0.76623 0.15693 0.66776 0.0
C1425 C 0.77204 0.144 0.66893 0.0
C1426 C 0.77962 0.17553 0.66653 0.0
C1427 C 0.79873 0.18072 0.66696 0.0
C1428 C 0.79116 0.14983 0.66922 0.0
N1429 N 0.83047 0.20299 0.66493 0.0
C1430 C 0.81233 0.19876 0.665 0.0
C1431 C 0.84007 0.23399 0.65912 0.0
C1432 C 0.82152 0.23006 0.65971 0.0
C1433 C 0.8443 0.22015 0.66161 0.0
C1434 C 0.80733 0.2122 0.66249 0.0
H1435 H 0.81826 0.24079 0.65774 0.0
O1436 O 0.85033 0.18766 0.65206 0.0
O1437 O 0.85956 0.17801 0.67959 0.0
O1438 O 0.86206 0.20079 0.69656 0.0
O1439 O 0.84049 0.2015 0.68303 0.0
O1440 O 0.86753 0.19932 0.66737 0.0
O1441 O 0.82635 0.16046 0.65436 0.0
O1442 O 0.83975 0.16247 0.71705 0.0
O1443 O 0.83052 0.17185 0.68947 0.0
O1444 O 0.82815 0.14914 0.67241 0.0
O1445 O 0.84939 0.14824 0.68618 0.0
O1446 O 0.82252 0.15064 0.70172 0.0
O1447 O 0.86377 0.18961 0.71465 0.0
C1448 C 0.8736 0.19151 0.67477 0.0
C1449 C 0.78836 0.20727 0.66255 0.0
C1450 C 0.77453 0.18897 0.66458 0.0
C1451 C 0.83858 0.17231 0.6467 0.0
C1452 C 0.83146 0.17391 0.63464 0.0
C1453 C 0.81821 0.17963 0.63373 0.0
C1454 C 0.83807 0.16976 0.6239 0.0
C1455 C 0.83146 0.17128 0.61224 0.0
C1456 C 0.81165 0.18125 0.62226 0.0
C1457 C 0.8182 0.17714 0.6116 0.0
C1458 C 0.85314 0.20888 0.69187 0.0
C1459 C 0.81644 0.15839 0.69427 0.0
C1460 C 0.85158 0.17783 0.72236 0.0
C1461 C 0.8588 0.17623 0.73439 0.0
C1462 C 0.87308 0.17187 0.73516 0.0
C1463 C 0.85117 0.17887 0.74523 0.0
C1464 C 0.85769 0.17702 0.75684 0.0
C1465 C 0.87968 0.17012 0.74658 0.0
C1466 C 0.87207 0.17265 0.75734 0.0
C1467 C 0.83686 0.14094 0.67726 0.0
H1468 H 0.81297 0.18286 0.64188 0.0
H1469 H 0.84817 0.16516 0.62466 0.0
H1470 H 0.80148 0.18577 0.62162 0.0
H1471 H 0.81305 0.17882 0.60282 0.0
H1472 H 0.87912 0.16982 0.72694 0.0
H1473 H 0.83999 0.18206 0.74462 0.0
H1474 H 0.89076 0.1668 0.74711 0.0
H1475 H 0.87762 0.1714 0.76608 0.0
H1476 H 0.33671 0.87605 0.08224 0.0
H1477 H 0.36536 0.9009 0.07322 0.0
H1478 H 0.3523 0.87171 0.03888 0.0
H1479 H 0.32325 0.84719 0.04763 0.0
H1480 H 0.39557 0.90038 0.06371 0.0
H1481 H 0.36292 0.92195 0.02771 0.0
H1482 H 0.34963 0.90678 0.04011 0.0
H1483 H 0.35604 0.89807 0.02707 0.0
C1484 C 0.33974 0.87501 0.07271 0.0
C1485 C 0.32752 0.85956 0.06568 0.0
C1486 C 0.35624 0.8892 0.06758 0.0
C1487 C 0.36092 0.88836 0.0553 0.0
C1488 C 0.34887 0.8729 0.04829 0.0
H1489 H 0.47436 0.96026 0.02648 0.0
H1490 H 0.44451 0.93316 0.032 0.0
C1491 C 0.33234 0.85873 0.05339 0.0
C1492 C 0.37859 0.90347 0.04996 0.0
H1493 H 0.39595 0.93559 0.02702 0.0
C1494 C 0.39564 0.90806 0.05568 0.0
C1495 C 0.37871 0.91362 0.03953 0.0
C1496 C 0.36085 0.91001 0.0333 0.0
C1497 C 0.41275 0.92249 0.0513 0.0
C1498 C 0.41291 0.93243 0.04075 0.0
C1499 C 0.39586 0.92783 0.03501 0.0
C1500 C 0.43046 0.94845 0.03607 0.0
C1501 C 0.43045 0.92733 0.05827 0.0
C1502 C 0.43229 0.96596 0.03597 0.0
C1503 C 0.44923 0.9814 0.03263 0.0
C1504 C 0.46462 0.97963 0.02914 0.0
C1505 C 0.46265 0.96204 0.02889 0.0
C1506 C 0.44566 0.94656 0.0322 0.0
H1507 H 0.42745 0.92131 0.06764 0.0
H1508 H 0.43834 0.9219 0.05327 0.0
H1509 H 0.43954 0.94245 0.05905 0.0
H1510 H 0.42078 0.96779 0.03889 0.0
H1511 H 0.45044 0.99482 0.03303 0.0
H1512 H 0.17296 0.47951 0.0481 0.0
H1513 H 0.14769 0.48362 0.03997 0.0
H1514 H 0.12244 0.47303 0.07585 0.0
H1515 H 0.14809 0.46962 0.08419 0.0
H1516 H 0.11019 0.45982 0.03896 0.0
H1517 H 0.12419 0.52062 0.06659 0.0
H1518 H 0.14065 0.51248 0.06553 0.0
H1519 H 0.1209 0.50144 0.07571 0.0
C1520 C 0.16221 0.47832 0.05434 0.0
C1521 C 0.16274 0.4744 0.06686 0.0
C1522 C 0.14766 0.48054 0.04963 0.0
C1523 C 0.13329 0.47895 0.05732 0.0
C1524 C 0.13356 0.47472 0.06977 0.0
H1525 H 0.02409 0.46046 0.03482 0.0
H1526 H 0.05098 0.45755 0.04108 0.0
C1527 C 0.14814 0.47253 0.0745 0.0
C1528 C 0.11786 0.48136 0.05222 0.0
H1529 H 0.09559 0.50614 0.05543 0.0
C1530 C 0.10706 0.47002 0.04252 0.0
C1531 C 0.11392 0.49484 0.05671 0.0
C1532 C 0.12563 0.50817 0.06662 0.0
C1533 C 0.09222 0.4715 0.03738 0.0
C1534 C 0.08777 0.4845 0.04221 0.0
C1535 C 0.09885 0.4961 0.05174 0.0
C1536 C 0.07151 0.48607 0.03774 0.0
C1537 C 0.08163 0.45921 0.02674 0.0
C1538 C 0.07389 0.50315 0.03405 0.0
C1539 C 0.05844 0.50487 0.03065 0.0
C1540 C 0.04032 0.48949 0.03071 0.0
C1541 C 0.03795 0.47245 0.03441 0.0
C1542 C 0.05335 0.47075 0.03791 0.0
H1543 H 0.0905 0.45514 0.02149 0.0
H1544 H 0.06943 0.44649 0.03031 0.0
H1545 H 0.07645 0.46598 0.02038 0.0
H1546 H 0.0877 0.51523 0.03394 0.0
H1547 H 0.06067 0.5183 0.02823 0.0
H1548 H 0.54721 0.67467 0.09533 0.0
H1549 H 0.54078 0.64716 0.08392 0.0
H1550 H 0.551 0.67689 0.04988 0.0
H1551 H 0.55721 0.70448 0.06121 0.0
H1552 H 0.51356 0.62806 0.06582 0.0
H1553 H 0.58558 0.65472 0.04785 0.0
H1554 H 0.58038 0.66567 0.06024 0.0
H1555 H 0.57537 0.66881 0.04466 0.0
C1556 C 0.54792 0.67536 0.08541 0.0
C1557 C 0.55275 0.69185 0.07921 0.0
C1558 C 0.54434 0.65963 0.0789 0.0
C1559 C 0.54563 0.66003 0.06606 0.0
C1560 C 0.55027 0.67636 0.0598 0.0
H1561 H 0.50191 0.56098 0.0208 0.0
H1562 H 0.50826 0.59018 0.0297 0.0
C1563 C 0.55383 0.69213 0.06631 0.0
C1564 C 0.54193 0.64324 0.05929 0.0
H1565 H 0.56242 0.62539 0.04094 0.0
C1566 C 0.52421 0.62747 0.06035 0.0
C1567 C 0.55592 0.64247 0.05226 0.0
C1568 C 0.57544 0.65874 0.05123 0.0
C1569 C 0.52009 0.61094 0.05458 0.0
C1570 C 0.53401 0.61024 0.04741 0.0
C1571 C 0.55173 0.62601 0.04635 0.0
C1572 C 0.53073 0.59301 0.04143 0.0
C1573 C 0.50107 0.59424 0.05653 0.0
C1574 C 0.54165 0.58519 0.04475 0.0
C1575 C 0.53825 0.56861 0.03956 0.0
C1576 C 0.52386 0.55952 0.03088 0.0
C1577 C 0.51318 0.56761 0.02738 0.0
C1578 C 0.51665 0.58424 0.03256 0.0
H1579 H 0.49372 0.59589 0.06453 0.0
H1580 H 0.49232 0.59204 0.04827 0.0
H1581 H 0.50223 0.58177 0.05796 0.0
H1582 H 0.55263 0.59175 0.05155 0.0
H1583 H 0.54679 0.56286 0.04247 0.0
H1584 H 0.84583 0.32421 0.96716 0.0
H1585 H 0.86746 0.35252 0.97805 0.0
H1586 H 0.91433 0.35074 0.9622 0.0
H1587 H 0.89293 0.32246 0.95142 0.0
H1588 H 0.89693 0.36039 0.99495 0.0
H1589 H 0.92377 0.40191 0.95245 0.0
H1590 H 0.9027 0.37975 0.95271 0.0
H1591 H 0.92524 0.38132 0.95246 0.0
C1592 C 0.86074 0.32973 0.96609 0.0
C1593 C 0.8676 0.32113 0.95827 0.0
C1594 C 0.87309 0.34597 0.97228 0.0
C1595 C 0.89252 0.35397 0.97075 0.0
C1596 C 0.8994 0.34509 0.96329 0.0
H1597 H 0.99247 0.45192 0.99511 0.0
H1598 H 0.96934 0.4226 0.98618 0.0
C1599 C 0.88711 0.32891 0.95711 0.0
C1600 C 0.90567 0.37165 0.97683 0.0
H1601 H 0.94009 0.4157 0.97088 0.0
C1602 C 0.90629 0.37253 0.98971 0.0
C1603 C 0.91787 0.3875 0.96998 0.0
C1604 C 0.91731 0.38771 0.95614 0.0
C1605 C 0.91915 0.38866 0.9959 0.0
C1606 C 0.93151 0.40445 0.98903 0.0
C1607 C 0.9307 0.4036 0.97616 0.0
C1608 C 0.94552 0.42196 0.99494 0.0
C1609 C 0.91977 0.38847 1.00973 0.0
C1610 C 0.93987 0.4315 1.00281 0.0
C1611 C 0.95309 0.4483 1.00796 0.0
C1612 C 0.97227 0.45601 1.00531 0.0
C1613 C 0.97786 0.44643 0.9974 0.0
C1614 C 0.96463 0.42963 0.99227 0.0
H1615 H 0.91305 0.37426 1.01343 0.0
H1616 H 0.93441 0.39619 1.01313 0.0
H1617 H 0.91211 0.39513 1.01343 0.0
H1618 H 0.92518 0.42613 1.00478 0.0
H1619 H 0.9482 0.45541 1.01381 0.0
H1620 H 0.68754 0.54871 0.95418 0.0
H1621 H 0.65879 0.54548 0.96299 0.0
H1622 H 0.67024 0.52687 0.99707 0.0
H1623 H 0.69934 0.53074 0.98853 0.0
H1624 H 0.62792 0.51487 0.97191 0.0
H1625 H 0.66016 0.56684 1.0088 0.0
H1626 H 0.67363 0.56511 0.99638 0.0
H1627 H 0.66679 0.54951 1.00916 0.0
C1628 C 0.68412 0.54419 0.96361 0.0
C1629 C 0.69589 0.54006 0.97063 0.0
C1630 C 0.66757 0.54222 0.96861 0.0
C1631 C 0.66242 0.53617 0.98076 0.0
C1632 C 0.67404 0.53189 0.98776 0.0
H1633 H 0.54883 0.4963 1.00928 0.0
H1634 H 0.57866 0.49863 1.00354 0.0
C1635 C 0.6906 0.53389 0.98278 0.0
C1636 C 0.64471 0.53396 0.98598 0.0
H1637 H 0.62707 0.5483 1.00912 0.0
C1638 C 0.62774 0.52218 0.98005 0.0
C1639 C 0.64445 0.5436 0.99656 0.0
C1640 C 0.66223 0.55711 1.00305 0.0
C1641 C 0.6106 0.51977 0.98437 0.0
C1642 C 0.61031 0.52915 0.99507 0.0
C1643 C 0.62726 0.54095 1.00101 0.0
C1644 C 0.59271 0.52781 0.99975 0.0
C1645 C 0.59299 0.5076 0.97722 0.0
C1646 C 0.59087 0.54352 1.00003 0.0
C1647 C 0.57393 0.54225 1.00346 0.0
C1648 C 0.55857 0.52529 1.0069 0.0
C1649 C 0.56053 0.50962 1.00692 0.0
C1650 C 0.57751 0.5109 1.00349 0.0
H1651 H 0.59612 0.50481 0.96782 0.0
H1652 H 0.58492 0.49425 0.98205 0.0
H1653 H 0.58402 0.51393 0.9765 0.0
H1654 H 0.60238 0.55671 0.9972 0.0
H1655 H 0.57272 0.55449 1.00324 0.0
H1656 H 0.45329 0.14017 0.95736 0.0
H1657 H 0.45826 0.11587 0.96569 0.0
H1658 H 0.50504 0.15598 0.98683 0.0
H1659 H 0.50036 0.18036 0.97847 0.0
H1660 H 0.49039 0.11202 0.96453 0.0
H1661 H 0.47206 0.11777 1.01268 0.0
H1662 H 0.46637 0.12786 0.99994 0.0
H1663 H 0.48973 0.13898 1.00605 0.0
C1664 C 0.46474 0.14386 0.9637 0.0
C1665 C 0.47634 0.16224 0.96731 0.0
C1666 C 0.46749 0.12993 0.9685 0.0
C1667 C 0.4818 0.13407 0.97705 0.0
C1668 C 0.49363 0.15241 0.98048 0.0
H1669 H 0.52305 0.07175 0.01658 0.0
H1670 H 0.51726 0.09545 1.00823 0.0
C1671 C 0.49091 0.16634 0.97569 0.0
C1672 C 0.48457 0.11926 0.98225 0.0
H1673 H 0.48511 0.09863 1.00918 0.0
C1674 C 0.48913 0.109 0.97428 0.0
C1675 C 0.48296 0.11539 0.99498 0.0
C1676 C 0.47735 0.12545 1.00392 0.0
C1677 C 0.49253 0.09524 0.97873 0.0
C1678 C 0.49096 0.0914 0.99147 0.0
C1679 C 0.48634 0.10162 0.99943 0.0
C1680 C 0.49412 0.07685 0.99672 0.0
C1681 C 0.49824 0.08526 0.96979 0.0
C1682 C 0.4828 0.05845 0.99322 0.0
C1683 C 0.48602 0.04484 0.99801 0.0
C1684 C 0.50054 0.04932 1.0065 0.0
C1685 C 0.51164 0.06774 1.01016 0.0
C1686 C 0.5084 0.08135 1.00535 0.0
H1687 H 0.50351 0.09296 0.96104 0.0
H1688 H 0.50926 0.08291 0.97377 0.0
H1689 H 0.48591 0.0717 0.96763 0.0
H1690 H 0.47144 0.05461 0.98677 0.0
H1691 H 0.47711 0.03081 0.99502 0.0
H1692 H 0.68547 0.14218 0.95293 0.0
H1693 H 0.65668 0.11739 0.96184 0.0
H1694 H 0.67236 0.14368 0.99721 0.0
H1695 H 0.70153 0.16815 0.9885 0.0
H1696 H 0.65914 0.10693 0.99896 0.0
H1697 H 0.61023 0.11942 0.97127 0.0
H1698 H 0.6262 0.1159 0.96209 0.0
H1699 H 0.635 0.13563 0.97195 0.0
C1700 C 0.68291 0.14266 0.96263 0.0
C1701 C 0.69587 0.15731 0.96995 0.0
C1702 C 0.66628 0.12856 0.96769 0.0
C1703 C 0.66212 0.12881 0.98016 0.0
C1704 C 0.67514 0.14324 0.98754 0.0
H1705 H 0.5499 0.05647 1.0098 0.0
H1706 H 0.57991 0.08352 1.00454 0.0
C1707 C 0.69177 0.15733 0.9825 0.0
C1708 C 0.64443 0.11386 0.98559 0.0
H1709 H 0.59682 0.09149 0.98267 0.0
C1710 C 0.64551 0.10363 0.99545 0.0
C1711 C 0.62659 0.10972 0.98117 0.0
C1712 C 0.62436 0.12085 0.97112 0.0
C1713 C 0.62932 0.08908 1.00075 0.0
C1714 C 0.61151 0.08438 0.99595 0.0
C1715 C 0.61043 0.09496 0.98632 0.0
C1716 C 0.59388 0.06817 1.00042 0.0
C1717 C 0.63153 0.079 1.01151 0.0
C1718 C 0.59168 0.0505 0.99999 0.0
C1719 C 0.57463 0.03509 1.00319 0.0
C1720 C 0.55937 0.03696 1.00688 0.0
C1721 C 0.56154 0.05462 1.00736 0.0
C1722 C 0.57866 0.07008 1.00423 0.0
H1723 H 0.64465 0.08789 0.01665 0.0
H1724 H 0.61956 0.07402 0.01793 0.0
H1725 H 0.6323 0.06698 1.00809 0.0
H1726 H 0.60296 0.04854 0.99677 0.0
H1727 H 0.57321 0.0216 1.00248 0.0
H1728 H 0.86163 0.51786 0.9521 0.0
H1729 H 0.88467 0.51309 0.96311 0.0
H1730 H 0.89756 0.55926 0.98641 0.0
H1731 H 0.87465 0.5643 0.97535 0.0
H1732 H 0.92264 0.53835 0.96442 0.0
H1733 H 0.89191 0.5197 1.01112 0.0
H1734 H 0.87843 0.5189 0.99782 0.0
H1735 H 0.89391 0.54048 1.00502 0.0
C1736 C 0.86931 0.527 0.95959 0.0
C1737 C 0.86631 0.54155 0.96276 0.0
C1738 C 0.88242 0.52417 0.96592 0.0
C1739 C 0.89276 0.5357 0.97567 0.0
C1740 C 0.8895 0.54995 0.97909 0.0
H1741 H 1.0005 0.55562 1.00209 0.0
H1742 H 0.97358 0.55812 0.99515 0.0
C1743 C 0.87638 0.55282 0.97274 0.0
C1744 C 0.90793 0.53362 0.98154 0.0
H1745 H 0.92311 0.5255 1.00885 0.0
C1746 C 0.92268 0.53549 0.97413 0.0
C1747 C 0.90795 0.52976 0.9942 0.0
C1748 C 0.89214 0.52692 1.00252 0.0
C1749 C 0.93756 0.53389 0.97903 0.0
C1750 C 0.93782 0.53048 0.99172 0.0
C1751 C 0.92294 0.52828 0.99914 0.0
C1752 C 0.95358 0.52922 0.99731 0.0
C1753 C 0.95288 0.53574 0.97058 0.0
C1754 C 0.95117 0.5122 1.0011 0.0
C1755 C 0.96657 0.51074 1.00503 0.0
C1756 C 0.98454 0.52635 1.00546 0.0
C1757 C 0.98677 0.54342 1.00198 0.0
C1758 C 0.97143 0.54486 0.99801 0.0
H1759 H 0.94884 0.53482 0.96076 0.0
H1760 H 0.96562 0.54927 0.97209 0.0
H1761 H 0.95649 0.52492 0.97256 0.0
H1762 H 0.93753 0.49995 1.00057 0.0
H1763 H 0.96448 0.49733 1.00735 0.0
H1764 H 0.48326 0.31821 0.97224 0.0
H1765 H 0.49058 0.34603 0.9837 0.0
H1766 H 0.45671 0.35683 0.95869 0.0
H1767 H 0.44974 0.32943 0.94696 0.0
H1768 H 0.50747 0.38364 0.97378 0.0
H1769 H 0.43688 0.35843 0.99378 0.0
H1770 H 0.44447 0.34315 0.98791 0.0
H1771 H 0.43737 0.35514 0.97752 0.0
C1772 C 0.47746 0.32655 0.9691 0.0
C1773 C 0.46581 0.32146 0.95868 0.0
C1774 C 0.48158 0.34239 0.97572 0.0
C1775 C 0.47398 0.35333 0.97213 0.0
C1776 C 0.46243 0.34837 0.96174 0.0
H1777 H 0.47704 0.45273 0.99433 0.0
H1778 H 0.4707 0.42359 0.98547 0.0
C1779 C 0.4584 0.33264 0.95508 0.0
C1780 C 0.47848 0.37024 0.97901 0.0
H1781 H 0.45865 0.39022 0.99587 0.0
C1782 C 0.49688 0.38507 0.97872 0.0
C1783 C 0.46458 0.37203 0.9854 0.0
C1784 C 0.44473 0.35632 0.9863 0.0
C1785 C 0.50163 0.40192 0.98428 0.0
C1786 C 0.48767 0.40379 0.99058 0.0
C1787 C 0.46934 0.38879 0.99106 0.0
C1788 C 0.49154 0.42141 0.99626 0.0
C1789 C 0.52136 0.41774 0.98293 0.0
C1790 C 0.50522 0.42983 1.00542 0.0
C1791 C 0.50904 0.44666 1.01045 0.0
C1792 C 0.49904 0.45527 1.00655 0.0
C1793 C 0.48506 0.44657 0.99756 0.0
C1794 C 0.48137 0.42984 0.99249 0.0
H1795 H 0.52886 0.41552 0.97526 0.0
H1796 H 0.52146 0.43083 0.9813 0.0
H1797 H 0.52924 0.41916 0.99151 0.0
H1798 H 0.51299 0.42341 1.00868 0.0
H1799 H 0.51999 0.45299 0.01726 0.0
H1800 H 0.17877 0.69447 0.0673 0.0
H1801 H 0.15739 0.66664 0.05589 0.0
H1802 H 0.11052 0.6637 0.07533 0.0
H1803 H 0.13163 0.69169 0.08647 0.0
H1804 H 0.13294 0.63171 0.06523 0.0
H1805 H 0.09347 0.65851 0.03972 0.0
H1806 H 0.11545 0.67337 0.04725 0.0
H1807 H 0.09411 0.66215 0.05597 0.0
C1808 C 0.16388 0.68807 0.06901 0.0
C1809 C 0.15696 0.69538 0.07783 0.0
C1810 C 0.15168 0.67208 0.06253 0.0
C1811 C 0.1323 0.66318 0.06462 0.0
C1812 C 0.12536 0.67047 0.07338 0.0
H1813 H 0.03306 0.56353 0.04205 0.0
H1814 H 0.05631 0.59284 0.05094 0.0
C1815 C 0.13751 0.68639 0.07986 0.0
C1816 C 0.11934 0.64589 0.05803 0.0
H1817 H 0.08039 0.62601 0.03981 0.0
C1818 C 0.12156 0.63051 0.05957 0.0
C1819 C 0.10445 0.64429 0.05066 0.0
C1820 C 0.10179 0.6605 0.04819 0.0
C1821 C 0.10898 0.61345 0.05428 0.0
C1822 C 0.09392 0.61178 0.04706 0.0
C1823 C 0.09187 0.62725 0.04537 0.0
C1824 C 0.07987 0.59402 0.04142 0.0
C1825 C 0.11154 0.5972 0.05686 0.0
C1826 C 0.08529 0.58499 0.03296 0.0
C1827 C 0.07202 0.56813 0.02789 0.0
C1828 C 0.05298 0.56003 0.03105 0.0
C1829 C 0.04757 0.56929 0.03938 0.0
C1830 C 0.06086 0.5861 0.04447 0.0
H1831 H 0.12064 0.59957 0.06497 0.0
H1832 H 0.09786 0.58458 0.05846 0.0
H1833 H 0.11826 0.5948 0.04881 0.0
H1834 H 0.09981 0.59096 0.03026 0.0
H1835 H 0.07678 0.56139 0.02159 0.0
H1836 H 0.35097 0.49745 0.08475 0.0
H1837 H 0.37874 0.50262 0.07344 0.0
H1838 H 0.34445 0.45614 0.05035 0.0
H1839 H 0.31656 0.45077 0.0617 0.0
H1840 H 0.39175 0.47836 0.07194 0.0
H1841 H 0.3778 0.49521 0.02527 0.0
H1842 H 0.36519 0.49574 0.03865 0.0
H1843 H 0.35914 0.47424 0.03151 0.0
C1844 C 0.34928 0.48834 0.07724 0.0
C1845 C 0.33147 0.47362 0.0742 0.0
C1846 C 0.36519 0.49139 0.07073 0.0
C1847 C 0.36372 0.4799 0.06095 0.0
C1848 C 0.34593 0.46545 0.05768 0.0
H1849 H 0.45067 0.46017 0.03417 0.0
H1850 H 0.42128 0.45782 0.04102 0.0
C1851 C 0.32997 0.46238 0.0642 0.0
C1852 C 0.38095 0.48222 0.05488 0.0
H1853 H 0.40335 0.48965 0.02724 0.0
C1854 C 0.39429 0.48091 0.06218 0.0
C1855 C 0.38438 0.48568 0.04214 0.0
C1856 C 0.37097 0.48798 0.03393 0.0
C1857 C 0.41071 0.48262 0.05708 0.0
C1858 C 0.41388 0.48555 0.04432 0.0
C1859 C 0.40079 0.48724 0.03701 0.0
C1860 C 0.43071 0.48667 0.03854 0.0
C1861 C 0.42464 0.48133 0.06541 0.0
C1862 C 0.44558 0.50358 0.03453 0.0
C1863 C 0.46243 0.50496 0.03064 0.0
C1864 C 0.46453 0.48936 0.0305 0.0
C1865 C 0.44936 0.47236 0.03408 0.0
C1866 C 0.43259 0.471 0.038 0.0
H1867 H 0.42193 0.48261 0.07524 0.0
H1868 H 0.42371 0.46782 0.06409 0.0
H1869 H 0.43913 0.49219 0.06313 0.0
H1870 H 0.44443 0.51585 0.03493 0.0
H1871 H 0.474 0.51831 0.02821 0.0
H1872 H 0.51666 0.83962 0.07118 0.0
H1873 H 0.5122 0.86412 0.06262 0.0
H1874 H 0.57181 0.89806 0.05778 0.0
H1875 H 0.57638 0.87353 0.06619 0.0
H1876 H 0.52848 0.90185 0.07113 0.0
H1877 H 0.54859 0.89646 0.02329 0.0
H1878 H 0.54203 0.87836 0.03447 0.0
H1879 H 0.56481 0.89848 0.03507 0.0
C1880 C 0.52881 0.85225 0.06823 0.0
C1881 C 0.54687 0.85459 0.06931 0.0
C1882 C 0.52625 0.86626 0.0634 0.0
C1883 C 0.54165 0.8828 0.05944 0.0
C1884 C 0.55972 0.88531 0.06065 0.0
H1885 H 0.5458 0.9857 0.04175 0.0
H1886 H 0.55121 0.96179 0.05016 0.0
C1887 C 0.56231 0.87134 0.06556 0.0
C1888 C 0.53878 0.89745 0.0541 0.0
H1889 H 0.54278 0.92075 0.02751 0.0
C1890 C 0.53161 0.90601 0.0616 0.0
C1891 C 0.54271 0.90268 0.04163 0.0
C1892 C 0.54983 0.89346 0.03308 0.0
C1893 C 0.52848 0.91986 0.057 0.0
C1894 C 0.53273 0.92533 0.04459 0.0
C1895 C 0.53967 0.91661 0.03704 0.0
C1896 C 0.52978 0.93992 0.03925 0.0
C1897 C 0.52039 0.92837 0.06538 0.0
C1898 C 0.51617 0.93561 0.03014 0.0
C1899 C 0.51298 0.94923 0.02532 0.0
C1900 C 0.52352 0.9675 0.0294 0.0
C1901 C 0.53738 0.9718 0.03839 0.0
C1902 C 0.54047 0.95814 0.04325 0.0
H1903 H 0.51436 0.92012 0.07385 0.0
H1904 H 0.5316 0.94228 0.06811 0.0
H1905 H 0.50932 0.92986 0.0606 0.0
H1906 H 0.50777 0.92161 0.02693 0.0
H1907 H 0.50202 0.94533 0.01856 0.0
H1908 H 1.00897 0.17486 0.39806 0.0
H1909 H 0.03788 0.19996 0.38944 0.0
H1910 H 0.01617 0.23679 0.39376 0.0
H1911 H 0.98725 0.21179 0.40239 0.0
H1912 H 0.04357 0.22125 0.36886 0.0
H1913 H 0.06682 0.26503 0.41038 0.0
H1914 H 0.04837 0.24135 0.41077 0.0
H1915 H 0.04364 0.25893 0.40555 0.0
C1916 C 1.01031 0.18829 0.39716 0.0
C1917 C 0.99576 0.19129 0.40099 0.0
C1918 C 0.02689 0.20265 0.39225 0.0
C1919 C 0.02937 0.22037 0.39111 0.0
C1920 C 0.01482 0.22337 0.39482 0.0
H1921 H 0.11662 0.32646 0.36561 0.0
H1922 H 0.08711 0.29956 0.37184 0.0
C1923 C 0.99826 0.20904 0.39976 0.0
C1924 C 0.047 0.23561 0.38585 0.0
H1925 H 0.08322 0.27869 0.39192 0.0
C1926 C 0.05232 0.23377 0.37393 0.0
C1927 C 0.05847 0.25194 0.39246 0.0
C1928 C 0.05417 0.25441 0.40554 0.0
C1929 C 0.06845 0.248 0.36832 0.0
C1930 C 0.07972 0.26446 0.37486 0.0
C1931 C 0.07452 0.26617 0.38684 0.0
C1932 C 0.09692 0.28023 0.36953 0.0
C1933 C 0.07291 0.24554 0.3553 0.0
C1934 C 0.11223 0.27834 0.36591 0.0
C1935 C 0.12909 0.29373 0.36225 0.0
C1936 C 0.13095 0.31128 0.36216 0.0
C1937 C 0.1155 0.31306 0.36547 0.0
C1938 C 0.09866 0.29771 0.36907 0.0
H1939 H 0.06069 0.2341 0.35061 0.0
H1940 H 0.07749 0.25831 0.34997 0.0
H1941 H 0.08448 0.24241 0.35529 0.0
H1942 H 0.11146 0.26513 0.36645 0.0
H1943 H 0.14088 0.29197 0.36005 0.0
H1944 H 0.84503 0.83837 0.40122 0.0
H1945 H 0.81923 0.84187 0.39327 0.0
H1946 H 0.78259 0.78324 0.39516 0.0
H1947 H 0.80829 0.77963 0.40313 0.0
H1948 H 0.79892 0.82838 0.37231 0.0
H1949 H 0.75163 0.80144 0.41246 0.0
H1950 H 0.77586 0.80736 0.41318 0.0
H1951 H 0.75857 0.78573 0.40679 0.0
C1952 C 0.83148 0.8262 0.39995 0.0
C1953 C 0.82876 0.80871 0.40288 0.0
C1954 C 0.81671 0.82824 0.39544 0.0
C1955 C 0.79884 0.81286 0.39378 0.0
C1956 C 0.79609 0.79538 0.39665 0.0
H1957 H 0.69116 0.79346 0.36738 0.0
H1958 H 0.71824 0.79112 0.37411 0.0
C1959 C 0.81083 0.79333 0.40121 0.0
C1960 C 0.7833 0.81506 0.38863 0.0
H1961 H 0.73861 0.80568 0.39412 0.0
C1962 C 0.78576 0.82352 0.37712 0.0
C1963 C 0.76613 0.80876 0.39488 0.0
C1964 C 0.76291 0.80048 0.40756 0.0
C1965 C 0.7714 0.82537 0.37154 0.0
C1966 C 0.75408 0.8188 0.37769 0.0
C1967 C 0.75174 0.81056 0.38929 0.0
C1968 C 0.7381 0.82018 0.37235 0.0
C1969 C 0.77475 0.83378 0.35892 0.0
C1970 C 0.74014 0.83723 0.36893 0.0
C1971 C 0.72468 0.83851 0.36491 0.0
C1972 C 0.70681 0.82279 0.3643 0.0
C1973 C 0.70481 0.80575 0.36761 0.0
C1974 C 0.72028 0.80444 0.3715 0.0
H1975 H 0.78633 0.83327 0.35411 0.0
H1976 H 0.76195 0.82657 0.35326 0.0
H1977 H 0.77857 0.8484 0.35969 0.0
H1978 H 0.75354 0.84968 0.36982 0.0
H1979 H 0.7266 0.85191 0.36278 0.0
H1980 H 0.24435 0.0449 0.39126 0.0
H1981 H 0.23711 0.01836 0.37827 0.0
H1982 H 0.2007 0.982 0.40642 0.0
H1983 H 0.20749 0.00834 0.41929 0.0
H1984 H 0.24318 0.98903 0.38369 0.0
H1985 H 0.16796 0.96385 0.37565 0.0
H1986 H 0.18381 0.98667 0.38127 0.0
H1987 H 0.17414 0.96737 0.39161 0.0
C1988 C 0.23458 0.03126 0.3946 0.0
C1989 C 0.22649 0.02876 0.40632 0.0
C1990 C 0.23055 0.01612 0.3872 0.0
C1991 C 0.21816 0.99821 0.3913 0.0
C1992 C 0.21003 0.9957 0.40296 0.0
H1993 H 0.17881 0.88637 0.37701 0.0
H1994 H 0.18653 0.91698 0.38365 0.0
C1995 C 0.2141 0.01078 0.41037 0.0
C1996 C 0.21428 0.98202 0.38372 0.0
H1997 H 0.17851 0.9424 0.37185 0.0
C1998 C 0.2291 0.97897 0.38089 0.0
C1999 C 0.19591 0.96897 0.38002 0.0
C2000 C 0.17956 0.97194 0.38218 0.0
C2001 C 0.22588 0.96268 0.37514 0.0
C2002 C 0.20737 0.94924 0.37198 0.0
C2003 C 0.19268 0.95269 0.37431 0.0
C2004 C 0.20267 0.93077 0.36748 0.0
C2005 C 0.24212 0.95952 0.37308 0.0
C2006 C 0.20906 0.92828 0.35609 0.0
C2007 C 0.20469 0.91065 0.35224 0.0
C2008 C 0.19383 0.89528 0.35972 0.0
C2009 C 0.18733 0.8979 0.37104 0.0
C2010 C 0.19164 0.9154 0.37484 0.0
H2011 H 0.25504 0.96997 0.37777 0.0
H2012 H 0.23866 0.94569 0.37642 0.0
H2013 H 0.24505 0.96016 0.3631 0.0
H2014 H 0.21742 0.93994 0.35019 0.0
H2015 H 0.21003 0.90911 0.34353 0.0
H2016 H 0.54022 0.67338 0.2754 0.0
H2017 H 0.56175 0.70108 0.28666 0.0
H2018 H 0.54608 0.67042 0.32054 0.0
H2019 H 0.52496 0.6424 0.30926 0.0
H2020 H 0.55573 0.71956 0.30505 0.0
H2021 H 0.60285 0.69452 0.32122 0.0
H2022 H 0.58536 0.68283 0.30953 0.0
H2023 H 0.57876 0.68012 0.32543 0.0
C2024 C 0.54147 0.67243 0.28523 0.0
C2025 C 0.53097 0.65553 0.29138 0.0
C2026 C 0.5537 0.68835 0.29168 0.0
C2027 C 0.55581 0.68782 0.30443 0.0
C2028 C 0.545 0.67112 0.31067 0.0
H2029 H 0.61388 0.78778 0.34907 0.0
H2030 H 0.59036 0.75857 0.34024 0.0
C2031 C 0.53274 0.65514 0.30421 0.0
C2032 C 0.56937 0.7048 0.31109 0.0
H2033 H 0.60909 0.72348 0.32859 0.0
C2034 C 0.56736 0.7204 0.31023 0.0
C2035 C 0.58472 0.706 0.31771 0.0
C2036 C 0.58822 0.69005 0.31847 0.0
C2037 C 0.58024 0.73711 0.31578 0.0
C2038 C 0.5954 0.73821 0.3226 0.0
C2039 C 0.5974 0.72261 0.32346 0.0
C2040 C 0.60977 0.75561 0.32846 0.0
C2041 C 0.57781 0.75359 0.31396 0.0
C2042 C 0.62868 0.76343 0.32513 0.0
C2043 C 0.64225 0.78001 0.33033 0.0
C2044 C 0.63725 0.78914 0.33904 0.0
C2045 C 0.61833 0.78112 0.3425 0.0
C2046 C 0.60477 0.76448 0.33733 0.0
H2047 H 0.56859 0.75178 0.30601 0.0
H2048 H 0.57127 0.75556 0.32227 0.0
H2049 H 0.59151 0.76625 0.31249 0.0
H2050 H 0.63291 0.75684 0.31834 0.0
H2051 H 0.65665 0.78571 0.32743 0.0
H2052 H 0.37206 0.90291 0.30211 0.0
H2053 H 0.34276 0.89834 0.31094 0.0
H2054 H 0.32402 0.84092 0.31632 0.0
H2055 H 0.35316 0.84533 0.30746 0.0
H2056 H 0.30653 0.87598 0.30325 0.0
H2057 H 0.31531 0.85566 0.35012 0.0
H2058 H 0.33434 0.86608 0.33926 0.0
H2059 H 0.31736 0.84202 0.33824 0.0
C2060 C 0.36168 0.88928 0.3051 0.0
C2061 C 0.3651 0.87452 0.30411 0.0
C2062 C 0.34496 0.88671 0.31023 0.0
C2063 C 0.3313 0.86936 0.31455 0.0
C2064 C 0.33453 0.85455 0.3134 0.0
H2065 H 0.21693 0.82036 0.34034 0.0
H2066 H 0.24884 0.82743 0.3352 0.0
C2067 C 0.35123 0.8571 0.30828 0.0
C2068 C 0.31337 0.8666 0.3198 0.0
H2069 H 0.28514 0.85115 0.34515 0.0
C2070 C 0.30195 0.87071 0.31245 0.0
C2071 C 0.30732 0.85967 0.33181 0.0
C2072 C 0.31929 0.85576 0.34037 0.0
C2073 C 0.28449 0.86763 0.31662 0.0
C2074 C 0.27837 0.86057 0.32859 0.0
C2075 C 0.28984 0.85658 0.336 0.0
C2076 C 0.25983 0.85669 0.33335 0.0
C2077 C 0.27247 0.87142 0.30801 0.0
C2078 C 0.25554 0.87082 0.33447 0.0
C2079 C 0.23738 0.86679 0.33749 0.0
C2080 C 0.22333 0.84862 0.33976 0.0
C2081 C 0.22772 0.83454 0.33901 0.0
C2082 C 0.2459 0.83857 0.33602 0.0
H2083 H 0.2771 0.87254 0.29832 0.0
H2084 H 0.25757 0.86044 0.30863 0.0
H2085 H 0.2734 0.88461 0.31058 0.0
H2086 H 0.26609 0.88492 0.33259 0.0
H2087 H 0.23412 0.87777 0.33757 0.0
H2088 H 0.14922 0.4871 0.28411 0.0
H2089 H 0.15372 0.46229 0.29197 0.0
H2090 H 0.13849 0.47051 0.32825 0.0
H2091 H 0.13331 0.49484 0.32041 0.0
H2092 H 0.17829 0.46387 0.30964 0.0
H2093 H 0.10529 0.4154 0.32378 0.0
H2094 H 0.11135 0.43491 0.31398 0.0
H2095 H 0.11453 0.43786 0.33031 0.0
C2096 C 0.14653 0.48344 0.29373 0.0
C2097 C 0.14084 0.49296 0.30161 0.0
C2098 C 0.14924 0.46934 0.29822 0.0
C2099 C 0.14621 0.46437 0.31067 0.0
C2100 C 0.14059 0.47386 0.31857 0.0
H2101 H 0.18909 0.40334 0.35067 0.0
H2102 H 0.18283 0.42685 0.34259 0.0
C2103 C 0.13785 0.48794 0.31409 0.0
C2104 C 0.14951 0.44967 0.31547 0.0
H2105 H 0.12856 0.40859 0.33067 0.0
C2106 C 0.1674 0.45174 0.3142 0.0
C2107 C 0.13523 0.43373 0.32128 0.0
C2108 C 0.11547 0.4302 0.32233 0.0
C2109 C 0.17149 0.43849 0.31875 0.0
C2110 C 0.1574 0.4229 0.32497 0.0
C2111 C 0.13942 0.42066 0.32604 0.0
C2112 C 0.16091 0.40854 0.33019 0.0
C2113 C 0.19077 0.44117 0.31666 0.0
C2114 C 0.15028 0.39029 0.32622 0.0
C2115 C 0.1536 0.37673 0.33098 0.0
C2116 C 0.1676 0.38112 0.33987 0.0
C2117 C 0.17809 0.3994 0.34394 0.0
C2118 C 0.17468 0.41294 0.3392 0.0
H2119 H 0.1981 0.4509 0.309 0.0
H2120 H 0.19928 0.44694 0.32509 0.0
H2121 H 0.19008 0.42793 0.31459 0.0
H2122 H 0.13952 0.38656 0.31931 0.0
H2123 H 0.14523 0.36282 0.32762 0.0
H2124 H 0.37498 0.48578 0.31999 0.0
H2125 H 0.34585 0.46075 0.32834 0.0
H2126 H 0.31576 0.46358 0.29682 0.0
H2127 H 0.34485 0.48869 0.2884 0.0
H2128 H 0.3128 0.45961 0.3347 0.0
H2129 H 0.30034 0.40939 0.2978 0.0
H2130 H 0.32243 0.43034 0.29963 0.0
H2131 H 0.30305 0.43078 0.29242 0.0
C2132 C 0.36216 0.48117 0.31484 0.0
C2133 C 0.36233 0.48926 0.30348 0.0
C2134 C 0.3455 0.4668 0.31963 0.0
C2135 C 0.32861 0.46009 0.31316 0.0
C2136 C 0.32866 0.46823 0.30187 0.0
H2137 H 0.21618 0.38791 0.34269 0.0
H2138 H 0.24563 0.41476 0.33639 0.0
C2139 C 0.34533 0.48259 0.29706 0.0
C2140 C 0.311 0.44464 0.31828 0.0
H2141 H 0.27619 0.40079 0.31242 0.0
C2142 C 0.30479 0.44673 0.32984 0.0
C2143 C 0.30064 0.42776 0.31201 0.0
C2144 C 0.307 0.4243 0.29983 0.0
C2145 C 0.28849 0.43246 0.33527 0.0
C2146 C 0.27793 0.41568 0.32889 0.0
C2147 C 0.28421 0.41362 0.31733 0.0
C2148 C 0.26054 0.39987 0.33403 0.0
C2149 C 0.28305 0.43536 0.34791 0.0
C2150 C 0.25893 0.38245 0.33481 0.0
C2151 C 0.24203 0.36707 0.33829 0.0
C2152 C 0.22641 0.36876 0.34123 0.0
C2153 C 0.22811 0.38624 0.3408 0.0
C2154 C 0.245 0.40164 0.3372 0.0
H2155 H 0.29506 0.4467 0.35283 0.0
H2156 H 0.27187 0.43898 0.34714 0.0
H2157 H 0.27764 0.42268 0.35347 0.0
H2158 H 0.27065 0.38066 0.3324 0.0
H2159 H 0.24103 0.35372 0.3384 0.0
H2160 H 0.51908 0.85356 0.29718 0.0
H2161 H 0.54048 0.84681 0.30867 0.0
H2162 H 0.5815 0.90449 0.30943 0.0
H2163 H 0.56002 0.91141 0.29833 0.0
H2164 H 0.57505 0.8535 0.30152 0.0
H2165 H 0.58173 0.89027 0.34493 0.0
H2166 H 0.56348 0.88535 0.3339 0.0
H2167 H 0.5866 0.9047 0.33171 0.0
C2168 C 0.5325 0.86486 0.30001 0.0
C2169 C 0.53777 0.88305 0.29681 0.0
C2170 C 0.54478 0.86095 0.30652 0.0
C2171 C 0.56254 0.87514 0.31009 0.0
C2172 C 0.56775 0.89331 0.30703 0.0
H2173 H 0.66692 0.88892 0.33612 0.0
H2174 H 0.64005 0.89175 0.32951 0.0
C2175 C 0.55551 0.89723 0.30052 0.0
C2176 C 0.57611 0.87094 0.31629 0.0
H2177 H 0.60512 0.88189 0.34116 0.0
C2178 C 0.58142 0.8595 0.31027 0.0
C2179 C 0.58445 0.87874 0.32773 0.0
C2180 C 0.57864 0.8903 0.33501 0.0
C2181 C 0.59538 0.85631 0.31509 0.0
C2182 C 0.60411 0.86457 0.32634 0.0
C2183 C 0.59846 0.87561 0.33253 0.0
C2184 C 0.61993 0.86282 0.33139 0.0
C2185 C 0.60123 0.84475 0.30783 0.0
C2186 C 0.61751 0.84567 0.3349 0.0
C2187 C 0.63286 0.84405 0.33869 0.0
C2188 C 0.65087 0.85959 0.3392 0.0
C2189 C 0.65317 0.87677 0.33594 0.0
C2190 C 0.63783 0.87839 0.33218 0.0
H2191 H 0.59582 0.84244 0.29828 0.0
H2192 H 0.61672 0.85135 0.30753 0.0
H2193 H 0.59567 0.83118 0.31235 0.0
H2194 H 0.60379 0.83349 0.33451 0.0
H2195 H 0.63071 0.83058 0.3409 0.0
H2196 H 0.11747 0.66121 0.28358 0.0
H2197 H 0.12487 0.68836 0.29571 0.0
H2198 H 0.16327 0.67966 0.31766 0.0
H2199 H 0.15647 0.65278 0.30524 0.0
H2200 H 0.12076 0.69166 0.3206 0.0
H2201 H 0.19552 0.73307 0.30689 0.0
H2202 H 0.17914 0.71239 0.29893 0.0
H2203 H 0.18868 0.71098 0.31345 0.0
C2204 C 0.12768 0.66516 0.29088 0.0
C2205 C 0.13654 0.65489 0.29332 0.0
C2206 C 0.13178 0.68062 0.29788 0.0
C2207 C 0.14484 0.68622 0.30747 0.0
C2208 C 0.15341 0.6758 0.31015 0.0
H2209 H 0.18512 0.78565 0.35273 0.0
H2210 H 0.17896 0.75566 0.34536 0.0
C2211 C 0.14934 0.66031 0.30312 0.0
C2212 C 0.14929 0.70296 0.31461 0.0
H2213 H 0.18426 0.74665 0.32083 0.0
C2214 C 0.13468 0.70364 0.32071 0.0
C2215 C 0.16748 0.71857 0.31481 0.0
C2216 C 0.18361 0.71887 0.3081 0.0
C2217 C 0.13766 0.71958 0.32679 0.0
C2218 C 0.15568 0.73536 0.32664 0.0
C2219 C 0.17046 0.73451 0.32093 0.0
C2220 C 0.15908 0.75324 0.33149 0.0
C2221 C 0.12144 0.71947 0.33325 0.0
C2222 C 0.15022 0.76197 0.32602 0.0
C2223 C 0.15365 0.77904 0.33023 0.0
C2224 C 0.16594 0.78779 0.3401 0.0
C2225 C 0.17507 0.77911 0.34543 0.0
C2226 C 0.1717 0.76202 0.34115 0.0
H2227 H 0.11024 0.70528 0.3355 0.0
H2228 H 0.12609 0.72761 0.34184 0.0
H2229 H 0.11533 0.72569 0.32714 0.0
H2230 H 0.14083 0.75568 0.31832 0.0
H2231 H 0.14679 0.78539 0.32557 0.0
H2232 H 0.84618 0.02536 0.40192 0.0
H2233 H 0.8248 0.99774 0.39033 0.0
H2234 H 0.7776 0.99781 0.40717 0.0
H2235 H 0.79876 0.02564 0.41844 0.0
H2236 H 0.79866 0.96366 0.39946 0.0
H2237 H 0.76339 0.99212 0.37108 0.0
H2238 H 0.78487 1.00653 0.37927 0.0
H2239 H 0.76279 0.99619 0.38719 0.0
C2240 C 0.83125 0.01968 0.403 0.0
C2241 C 0.82423 0.02777 0.41113 0.0
C2242 C 0.81904 1.00382 0.39642 0.0
C2243 C 0.79957 0.99581 0.39774 0.0
C2244 C 0.79254 1.0039 0.4058 0.0
H2245 H 0.69965 0.89728 0.37485 0.0
H2246 H 0.72317 0.92658 0.3836 0.0
C2247 C 0.8047 0.01971 0.41237 0.0
C2248 C 0.78656 0.97855 0.39114 0.0
H2249 H 0.74882 0.95944 0.37185 0.0
C2250 C 0.78789 0.96278 0.39332 0.0
C2251 C 0.77248 0.97738 0.38313 0.0
C2252 C 0.77087 0.994 0.37992 0.0
C2253 C 0.77516 0.94576 0.38805 0.0
C2254 C 0.76087 0.94453 0.38022 0.0
C2255 C 0.75972 0.96037 0.37788 0.0
C2256 C 0.74666 0.92684 0.37462 0.0
C2257 C 0.77671 0.92911 0.39125 0.0
C2258 C 0.75198 0.91731 0.36651 0.0
C2259 C 0.73855 0.90049 0.3615 0.0
C2260 C 0.71947 0.8929 0.36441 0.0
C2261 C 0.71418 0.90264 0.3724 0.0
C2262 C 0.72762 0.91945 0.3774 0.0
H2263 H 0.78546 0.93143 0.39955 0.0
H2264 H 0.76268 0.91696 0.39287 0.0
H2265 H 0.78331 0.92593 0.3835 0.0
H2266 H 0.76654 0.92288 0.36406 0.0
H2267 H 0.74319 0.89335 0.35547 0.0
H2268 H 1.00727 0.79025 0.42231 0.0
H2269 H 0.03547 0.79674 0.41108 0.0
H2270 H 0.02041 0.82163 0.38193 0.0
H2271 H 0.99168 0.81458 0.39294 0.0
H2272 H 0.03222 0.79849 0.37315 0.0
H2273 H 0.08301 0.84596 0.40728 0.0
H2274 H 0.06649 0.82421 0.41383 0.0
H2275 H 0.05848 0.83899 0.40774 0.0
C2276 C 1.00981 0.79698 0.41347 0.0
C2277 C 0.99708 0.80185 0.40856 0.0
C2278 C 0.02613 0.80091 0.40712 0.0
C2279 C 0.0303 0.80998 0.39574 0.0
C2280 C 0.0176 0.81476 0.39074 0.0
H2281 H 0.14153 0.85239 0.3628 0.0
H2282 H 0.11226 0.84992 0.37016 0.0
C2283 C 1.00122 0.81082 0.39709 0.0
C2284 C 0.04764 0.81397 0.38898 0.0
H2285 H 0.09516 0.83445 0.39193 0.0
C2286 C 0.04599 0.80648 0.37722 0.0
C2287 C 0.06569 0.82468 0.39415 0.0
C2288 C 0.06859 0.83408 0.40639 0.0
C2289 C 0.06178 0.80881 0.37074 0.0
C2290 C 0.07972 0.81867 0.3762 0.0
C2291 C 0.08143 0.82674 0.38776 0.0
C2292 C 0.0968 0.8202 0.37037 0.0
C2293 C 0.05916 0.8009 0.35802 0.0
C2294 C 0.09789 0.80436 0.36793 0.0
C2295 C 0.11455 0.80577 0.36365 0.0
C2296 C 0.13044 0.82302 0.36162 0.0
C2297 C 0.12934 0.83889 0.36394 0.0
C2298 C 0.11266 0.83749 0.36824 0.0
H2299 H 0.04564 0.79808 0.35391 0.0
H2300 H 0.0707 0.81047 0.35193 0.0
H2301 H 0.05926 0.78777 0.35844 0.0
H2302 H 0.08609 0.79088 0.36982 0.0
H2303 H 0.11519 0.79335 0.36222 0.0
H2304 H 0.22678 0.20367 0.4169 0.0
H2305 H 0.22142 0.22785 0.4088 0.0
H2306 H 0.20024 0.1976 0.37515 0.0
H2307 H 0.20612 0.17365 0.38293 0.0
H2308 H 0.236 0.24737 0.38311 0.0
H2309 H 0.15888 0.20959 0.39044 0.0
H2310 H 0.17446 0.20501 0.3995 0.0
H2311 H 0.16947 0.1973 0.38391 0.0
C2312 C 0.2212 0.20222 0.40772 0.0
C2313 C 0.21684 0.18661 0.4006 0.0
C2314 C 0.21804 0.21601 0.40314 0.0
C2315 C 0.21032 0.2144 0.39143 0.0
C2316 C 0.20604 0.19897 0.38427 0.0
H2317 H 0.17023 0.27712 0.35112 0.0
H2318 H 0.17716 0.25382 0.35865 0.0
C2319 C 0.2093 0.18524 0.38878 0.0
C2320 C 0.20681 0.22889 0.38663 0.0
H2321 H 0.1719 0.23834 0.3806 0.0
C2322 C 0.22202 0.24548 0.38258 0.0
C2323 C 0.18854 0.22623 0.38585 0.0
C2324 C 0.17182 0.20863 0.39019 0.0
C2325 C 0.2194 0.25947 0.37759 0.0
C2326 C 0.20111 0.25697 0.37699 0.0
C2327 C 0.18591 0.2403 0.38106 0.0
C2328 C 0.19738 0.27143 0.37219 0.0
C2329 C 0.23623 0.27653 0.3727 0.0
C2330 C 0.20627 0.28908 0.37734 0.0
C2331 C 0.20264 0.30259 0.37286 0.0
C2332 C 0.18978 0.29866 0.36324 0.0
C2333 C 0.18055 0.28082 0.3583 0.0
C2334 C 0.18438 0.2674 0.36269 0.0
H2335 H 0.24778 0.27392 0.37032 0.0
H2336 H 0.23261 0.28184 0.36442 0.0
H2337 H 0.24151 0.28734 0.37986 0.0
H2338 H 0.21591 0.2924 0.38494 0.0
H2339 H 0.20984 0.31607 0.37702 0.0
H2340 H 0.65584 0.51265 0.71516 0.0
H2341 H 0.68498 0.53717 0.70646 0.0
H2342 H 0.69727 0.56694 0.74052 0.0
H2343 H 0.66794 0.54269 0.74925 0.0
H2344 H 0.69666 0.57511 0.7037 0.0
H2345 H 0.74517 0.5644 0.73332 0.0
H2346 H 0.72072 0.54741 0.73173 0.0
H2347 H 0.72772 0.56697 0.74149 0.0
C2348 C 0.66461 0.52447 0.7208 0.0
C2349 C 0.65943 0.52561 0.73295 0.0
C2350 C 0.68135 0.53844 0.71581 0.0
C2351 C 0.69343 0.55379 0.72287 0.0
C2352 C 0.68834 0.55506 0.73497 0.0
H2353 H 0.783 0.66057 0.70049 0.0
H2354 H 0.75305 0.63383 0.70618 0.0
C2355 C 0.67155 0.54113 0.73996 0.0
C2356 C 0.71116 0.56865 0.71751 0.0
H2357 H 0.75868 0.59127 0.72096 0.0
C2358 C 0.71024 0.57858 0.70742 0.0
C2359 C 0.72888 0.57303 0.72226 0.0
C2360 C 0.73079 0.56231 0.73273 0.0
C2361 C 0.7265 0.5931 0.70218 0.0
C2362 C 0.74422 0.59794 0.70722 0.0
C2363 C 0.74514 0.58765 0.7171 0.0
C2364 C 0.76191 0.61399 0.70272 0.0
C2365 C 0.72449 0.60306 0.69127 0.0
C2366 C 0.77703 0.61186 0.699 0.0
C2367 C 0.79423 0.62719 0.69584 0.0
C2368 C 0.79659 0.64493 0.69624 0.0
C2369 C 0.78143 0.64701 0.69985 0.0
C2370 C 0.76428 0.63172 0.70305 0.0
H2371 H 0.71146 0.59414 0.68607 0.0
H2372 H 0.72374 0.61516 0.69454 0.0
H2373 H 0.73658 0.60794 0.68496 0.0
H2374 H 0.77563 0.59836 0.69877 0.0
H2375 H 0.80579 0.62517 0.69345 0.0
H2376 H 0.47436 0.11347 0.73652 0.0
H2377 H 0.4487 0.11698 0.72829 0.0
H2378 H 0.48739 0.17392 0.72034 0.0
H2379 H 0.51309 0.17056 0.72857 0.0
H2380 H 0.43555 0.13958 0.73572 0.0
H2381 H 0.46063 0.1561 0.68766 0.0
H2382 H 0.47036 0.14695 0.69856 0.0
H2383 H 0.47738 0.17092 0.69882 0.0
C2384 C 0.47743 0.12678 0.73309 0.0
C2385 C 0.49588 0.1417 0.73316 0.0
C2386 C 0.46273 0.12874 0.72831 0.0
C2387 C 0.46612 0.14562 0.72345 0.0
C2388 C 0.48446 0.16062 0.7237 0.0
H2389 H 0.39347 0.18525 0.69527 0.0
H2390 H 0.42023 0.18215 0.70178 0.0
C2391 C 0.49916 0.15867 0.72845 0.0
C2392 C 0.45037 0.14766 0.71854 0.0
H2393 H 0.43462 0.15953 0.69296 0.0
C2394 C 0.43532 0.14384 0.72635 0.0
C2395 C 0.45006 0.15332 0.70632 0.0
C2396 C 0.46538 0.15691 0.6973 0.0
C2397 C 0.42016 0.14573 0.72236 0.0
C2398 C 0.41981 0.1513 0.71013 0.0
C2399 C 0.43488 0.15524 0.70232 0.0
C2400 C 0.40382 0.15296 0.70533 0.0
C2401 C 0.40479 0.1421 0.73135 0.0
C2402 C 0.38578 0.13753 0.70485 0.0
C2403 C 0.37052 0.13927 0.70106 0.0
C2404 C 0.37304 0.1564 0.69745 0.0
C2405 C 0.39116 0.1718 0.69772 0.0
C2406 C 0.40644 0.17006 0.7015 0.0
H2407 H 0.40939 0.14259 0.741 0.0
H2408 H 0.40003 0.15225 0.73022 0.0
H2409 H 0.39267 0.12821 0.72967 0.0
H2410 H 0.38344 0.12416 0.70758 0.0
H2411 H 0.35668 0.12722 0.70105 0.0
H2412 H 0.91088 0.35628 0.75374 0.0
H2413 H 0.9035 0.32863 0.74216 0.0
H2414 H 0.85796 0.33069 0.72426 0.0
H2415 H 0.86511 0.3583 0.73594 0.0
H2416 H 0.86933 0.29517 0.74263 0.0
H2417 H 0.88665 0.32438 0.69549 0.0
H2418 H 0.89463 0.33854 0.70907 0.0
H2419 H 0.87087 0.32911 0.70397 0.0
C2420 C 0.89925 0.35086 0.74737 0.0
C2421 C 0.88854 0.35951 0.74582 0.0
C2422 C 0.89513 0.3351 0.7407 0.0
C2423 C 0.8803 0.32769 0.73226 0.0
C2424 C 0.86969 0.33636 0.73056 0.0
H2425 H 0.83473 0.22801 0.68762 0.0
H2426 H 0.84084 0.25686 0.69711 0.0
C2427 C 0.8738 0.35215 0.73724 0.0
C2428 C 0.87551 0.3104 0.72572 0.0
H2429 H 0.87331 0.29219 0.69734 0.0
C2430 C 0.87022 0.29452 0.73273 0.0
C2431 C 0.87653 0.30956 0.7128 0.0
C2432 C 0.88261 0.32631 0.70486 0.0
C2433 C 0.86593 0.27782 0.72718 0.0
C2434 C 0.86735 0.27705 0.71428 0.0
C2435 C 0.8723 0.29284 0.70723 0.0
C2436 C 0.86421 0.26007 0.70802 0.0
C2437 C 0.85971 0.26109 0.73518 0.0
C2438 C 0.87561 0.25255 0.71077 0.0
C2439 C 0.87221 0.23612 0.70535 0.0
C2440 C 0.8574 0.22691 0.69698 0.0
C2441 C 0.84632 0.23476 0.69396 0.0
C2442 C 0.84975 0.25124 0.6994 0.0
H2443 H 0.85437 0.26265 0.74418 0.0
H2444 H 0.84859 0.24857 0.73061 0.0
H2445 H 0.87181 0.25907 0.73694 0.0
H2446 H 0.88709 0.25934 0.7172 0.0
H2447 H 0.88113 0.23059 0.70784 0.0
H2448 H 0.20956 1.00501 0.60848 0.0
H2449 H 0.23165 0.03298 0.6193 0.0
H2450 H 0.21186 1.00515 0.65397 0.0
H2451 H 0.1895 0.97709 0.64323 0.0
H2452 H 0.22501 0.05354 0.63645 0.0
H2453 H 0.26869 0.02676 0.65635 0.0
H2454 H 0.25204 0.01513 0.64418 0.0
H2455 H 0.24415 0.01327 0.65975 0.0
C2456 C 0.20973 1.00482 0.61842 0.0
C2457 C 0.19768 0.98871 0.62496 0.0
C2458 C 0.22247 0.02084 0.62459 0.0
C2459 C 0.22361 0.02113 0.63744 0.0
C2460 C 0.21152 1.00516 0.64404 0.0
H2461 H 0.28123 0.12217 0.68075 0.0
H2462 H 0.25783 0.09287 0.67195 0.0
C2463 C 0.19873 0.98911 0.63787 0.0
C2464 C 0.2373 0.03825 0.64387 0.0
H2465 H 0.27574 0.0565 0.66256 0.0
C2466 C 0.23608 0.05418 0.64218 0.0
C2467 C 0.25188 0.03915 0.65123 0.0
C2468 C 0.25445 0.02273 0.65293 0.0
C2469 C 0.24898 0.07093 0.64767 0.0
C2470 C 0.26335 0.07175 0.65522 0.0
C2471 C 0.26462 0.05584 0.65687 0.0
C2472 C 0.27763 0.08915 0.66111 0.0
C2473 C 0.24738 0.08773 0.64504 0.0
C2474 C 0.29666 0.09656 0.65829 0.0
C2475 C 0.31014 0.11321 0.66345 0.0
C2476 C 0.30491 0.12281 0.67161 0.0
C2477 C 0.28584 0.11515 0.67459 0.0
C2478 C 0.27238 0.09846 0.66945 0.0
H2479 H 0.23874 0.08589 0.63676 0.0
H2480 H 0.24061 0.09035 0.65296 0.0
H2481 H 0.2614 0.10002 0.64369 0.0
H2482 H 0.30107 0.0896 0.65191 0.0
H2483 H 0.32466 0.11862 0.66094 0.0
H2484 H 0.03661 0.23501 0.63388 0.0
H2485 H 1.00752 0.23151 0.6423 0.0
H2486 H 0.98747 0.17412 0.64904 0.0
H2487 H 0.01645 0.17746 0.64059 0.0
H2488 H 0.97118 0.20928 0.63455 0.0
H2489 H 0.97919 0.19098 0.68225 0.0
H2490 H 0.99828 0.20049 0.67141 0.0
H2491 H 0.98075 0.17658 0.67073 0.0
C2492 C 0.02598 0.2216 0.63708 0.0
C2493 C 0.02899 0.20654 0.63658 0.0
C2494 C 1.00938 0.21965 0.64197 0.0
C2495 C 0.99541 0.20263 0.64654 0.0
C2496 C 0.99822 0.18751 0.6459 0.0
H2497 H 0.88248 0.16403 0.6747 0.0
H2498 H 0.91229 0.16664 0.66848 0.0
C2499 C 0.01482 0.18945 0.64102 0.0
C2500 C 0.97766 0.2006 0.65155 0.0
H2501 H 0.94998 0.18844 0.67717 0.0
C2502 C 0.96661 0.20481 0.64389 0.0
C2503 C 0.97158 0.19464 0.66373 0.0
C2504 C 0.98313 0.19056 0.67256 0.0
C2505 C 0.94965 0.20306 0.64799 0.0
C2506 C 0.94366 0.19727 0.66019 0.0
C2507 C 0.95459 0.1929 0.66784 0.0
C2508 C 0.92619 0.19591 0.66512 0.0
C2509 C 0.93809 0.2071 0.63913 0.0
C2510 C 0.92427 0.21156 0.66569 0.0
C2511 C 0.90732 0.2101 0.6693 0.0
C2512 C 0.89204 0.19303 0.67263 0.0
C2513 C 0.89412 0.17743 0.67243 0.0
C2514 C 0.91112 0.17889 0.66881 0.0
H2515 H 0.942 0.20662 0.62944 0.0
H2516 H 0.92293 0.19718 0.64029 0.0
H2517 H 0.94046 0.22109 0.64092 0.0
H2518 H 0.93578 0.22488 0.66309 0.0
H2519 H 0.90604 0.22231 0.6693 0.0
H2520 H 0.81506 0.82024 0.61754 0.0
H2521 H 0.81928 0.79533 0.62556 0.0
H2522 H 0.80584 0.80517 0.66194 0.0
H2523 H 0.80094 0.82961 0.65396 0.0
H2524 H 0.84422 0.79682 0.64297 0.0
H2525 H 0.77137 0.75005 0.65823 0.0
H2526 H 0.77755 0.76936 0.6482 0.0
H2527 H 0.78134 0.77277 0.66447 0.0
C2528 C 0.81271 0.81693 0.62722 0.0
C2529 C 0.80759 0.82692 0.63509 0.0
C2530 C 0.81527 0.80276 0.6318 0.0
C2531 C 0.81263 0.7982 0.64432 0.0
C2532 C 0.80762 0.8082 0.65221 0.0
H2533 H 0.85457 0.73633 0.68426 0.0
H2534 H 0.84863 0.76004 0.67616 0.0
C2535 C 0.80505 0.82234 0.64764 0.0
C2536 C 0.81565 0.78336 0.6492 0.0
H2537 H 0.79433 0.74268 0.66487 0.0
C2538 C 0.8333 0.78494 0.64772 0.0
C2539 C 0.80131 0.76775 0.65525 0.0
C2540 C 0.78177 0.76473 0.65654 0.0
C2541 C 0.83711 0.77152 0.65232 0.0
C2542 C 0.82298 0.75625 0.65878 0.0
C2543 C 0.80522 0.7545 0.66005 0.0
C2544 C 0.82622 0.74176 0.66406 0.0
C2545 C 0.85613 0.77367 0.65002 0.0
C2546 C 0.81518 0.72345 0.66028 0.0
C2547 C 0.81834 0.70977 0.66504 0.0
C2548 C 0.83256 0.7141 0.67375 0.0
C2549 C 0.8434 0.73243 0.67766 0.0
C2550 C 0.84018 0.74608 0.67292 0.0
H2551 H 0.8634 0.78316 0.64224 0.0
H2552 H 0.86492 0.77947 0.65833 0.0
H2553 H 0.85501 0.76022 0.64802 0.0
H2554 H 0.80426 0.71977 0.65349 0.0
H2555 H 0.80968 0.69583 0.66181 0.0
H2556 H 0.03203 0.83418 0.65515 0.0
H2557 H 1.0031 0.80947 0.6639 0.0
H2558 H 0.9903 0.78029 0.62956 0.0
H2559 H 0.01883 0.80532 0.62054 0.0
H2560 H 0.95998 0.78073 0.63909 0.0
H2561 H 0.99285 0.75927 0.67501 0.0
H2562 H 0.99965 0.78313 0.67566 0.0
H2563 H 1.00608 0.77446 0.6626 0.0
C2564 C 0.02302 0.82259 0.64939 0.0
C2565 C 0.02786 0.82181 0.6371 0.0
C2566 C 1.00657 0.80833 0.65449 0.0
C2567 C 0.99464 0.79283 0.64748 0.0
C2568 C 0.99934 0.79203 0.6352 0.0
H2569 H 0.9052 0.68625 0.66963 0.0
H2570 H 0.93487 0.71327 0.66375 0.0
C2571 C 0.01577 0.80632 0.63008 0.0
C2572 C 0.97702 0.77767 0.6528 0.0
H2573 H 0.9598 0.74552 0.67572 0.0
C2574 C 0.95995 0.77304 0.6471 0.0
C2575 C 0.97697 0.76752 0.66322 0.0
C2576 C 0.99487 0.77119 0.66943 0.0
C2577 C 0.94288 0.75859 0.65149 0.0
C2578 C 0.94279 0.74865 0.66202 0.0
C2579 C 0.95985 0.75327 0.66774 0.0
C2580 C 0.92528 0.73265 0.66672 0.0
C2581 C 0.92515 0.75372 0.64456 0.0
C2582 C 0.91014 0.73457 0.67067 0.0
C2583 C 0.89315 0.71912 0.67399 0.0
C2584 C 0.89114 0.70151 0.67367 0.0
C2585 C 0.90647 0.69969 0.67008 0.0
C2586 C 0.92341 0.71511 0.66674 0.0
H2587 H 0.9281 0.75976 0.63519 0.0
H2588 H 0.91608 0.7386 0.64376 0.0
H2589 H 0.91724 0.75912 0.64959 0.0
H2590 H 0.91133 0.74799 0.67092 0.0
H2591 H 0.88149 0.72092 0.67646 0.0
H2592 H 0.19566 0.18576 0.61724 0.0
H2593 H 0.21883 0.18091 0.62802 0.0
H2594 H 0.23185 0.22682 0.65163 0.0
H2595 H 0.20881 0.23191 0.64081 0.0
H2596 H 0.25669 0.2058 0.62933 0.0
H2597 H 0.22633 0.18724 0.67612 0.0
H2598 H 0.21282 0.1867 0.6629 0.0
H2599 H 0.22852 0.20816 0.67017 0.0
C2600 C 0.2034 0.19483 0.62475 0.0
C2601 C 0.20037 0.20931 0.62809 0.0
C2602 C 0.21658 0.19196 0.63095 0.0
C2603 C 0.22699 0.20337 0.64073 0.0
C2604 C 0.22374 0.21758 0.64429 0.0
H2605 H 0.33488 0.22237 0.6664 0.0
H2606 H 0.30818 0.22517 0.65934 0.0
C2607 C 0.21054 0.22048 0.63808 0.0
C2608 C 0.24216 0.2012 0.64652 0.0
H2609 H 0.25751 0.19301 0.67374 0.0
C2610 C 0.25681 0.20295 0.63904 0.0
C2611 C 0.24228 0.19733 0.65917 0.0
C2612 C 0.22658 0.19457 0.66757 0.0
C2613 C 0.27167 0.20125 0.64386 0.0
C2614 C 0.27205 0.19787 0.65655 0.0
C2615 C 0.25727 0.19578 0.66403 0.0
C2616 C 0.28779 0.19649 0.66208 0.0
C2617 C 0.28682 0.20291 0.63531 0.0
C2618 C 0.28512 0.17953 0.66625 0.0
C2619 C 0.30038 0.17791 0.67025 0.0
C2620 C 0.31851 0.19331 0.6704 0.0
C2621 C 0.32104 0.21034 0.66651 0.0
C2622 C 0.30582 0.21194 0.66247 0.0
H2623 H 0.28254 0.20171 0.62553 0.0
H2624 H 0.29955 0.21652 0.63662 0.0
H2625 H 0.29053 0.19219 0.63737 0.0
H2626 H 0.27134 0.16742 0.66598 0.0
H2627 H 0.29806 0.16452 0.67289 0.0
H2628 H 0.78423 0.99648 0.61337 0.0
H2629 H 0.79142 0.0242 0.62479 0.0
H2630 H 0.82532 0.01379 0.65001 0.0
H2631 H 0.81783 0.98569 0.63884 0.0
H2632 H 0.78502 0.02689 0.65109 0.0
H2633 H 0.85987 0.06769 0.63734 0.0
H2634 H 0.84308 0.0477 0.62892 0.0
H2635 H 0.85196 0.04503 0.64335 0.0
C2636 C 0.79304 0.9999 0.62143 0.0
C2637 C 0.80041 0.98875 0.62517 0.0
C2638 C 0.79722 0.01584 0.6279 0.0
C2639 C 0.80903 0.02113 0.63817 0.0
C2640 C 0.8164 0.01008 0.64199 0.0
H2641 H 0.8537 0.12069 0.68274 0.0
H2642 H 0.84639 0.09091 0.67432 0.0
C2643 C 0.81214 0.99405 0.63557 0.0
C2644 C 0.81342 0.03813 0.6449 0.0
H2645 H 0.8486 0.08176 0.65084 0.0
C2646 C 0.79892 0.03889 0.65108 0.0
C2647 C 0.83159 0.05368 0.64493 0.0
C2648 C 0.84756 0.05366 0.63823 0.0
C2649 C 0.8021 0.05482 0.65728 0.0
C2650 C 0.82017 0.0706 0.65702 0.0
C2651 C 0.83475 0.0697 0.65103 0.0
C2652 C 0.8241 0.08835 0.66252 0.0
C2653 C 0.7861 0.05449 0.6642 0.0
C2654 C 0.81412 0.09694 0.65863 0.0
C2655 C 0.81809 0.11385 0.66354 0.0
C2656 C 0.8323 0.12269 0.67237 0.0
C2657 C 0.84243 0.11416 0.67614 0.0
C2658 C 0.83836 0.09717 0.67127 0.0
H2659 H 0.77538 0.04027 0.66679 0.0
H2660 H 0.79108 0.06295 0.67265 0.0
H2661 H 0.77923 0.0601 0.65824 0.0
H2662 H 0.80342 0.09069 0.65164 0.0
H2663 H 0.8101 0.12005 0.6603 0.0
H2664 H 0.5126 0.35988 0.73431 0.0
H2665 H 0.4915 0.33245 0.72244 0.0
H2666 H 0.44399 0.33033 0.74046 0.0
H2667 H 0.46485 0.35794 0.75205 0.0
H2668 H 0.46596 0.2976 0.73138 0.0
H2669 H 0.42923 0.32597 0.7044 0.0
H2670 H 0.45084 0.34039 0.71245 0.0
H2671 H 0.42897 0.32948 0.72061 0.0
C2672 C 0.49765 0.35375 0.7356 0.0
C2673 C 0.49046 0.36116 0.74415 0.0
C2674 C 0.4856 0.338 0.72887 0.0
C2675 C 0.46613 0.32945 0.73043 0.0
C2676 C 0.45893 0.33685 0.73891 0.0
H2677 H 0.36679 0.2313 0.70673 0.0
H2678 H 0.39023 0.26049 0.71561 0.0
C2679 C 0.47092 0.35254 0.74565 0.0
C2680 C 0.45332 0.31236 0.72362 0.0
H2681 H 0.41537 0.29336 0.70451 0.0
C2682 C 0.45503 0.29672 0.72539 0.0
C2683 C 0.43902 0.31119 0.71583 0.0
C2684 C 0.43697 0.32769 0.7131 0.0
C2685 C 0.44244 0.2798 0.71995 0.0
C2686 C 0.42793 0.27855 0.71232 0.0
C2687 C 0.42644 0.29429 0.71038 0.0
C2688 C 0.41379 0.26093 0.7066 0.0
C2689 C 0.44437 0.26325 0.72278 0.0
C2690 C 0.41915 0.25153 0.69841 0.0
C2691 C 0.40576 0.23473 0.69334 0.0
C2692 C 0.38667 0.22707 0.69624 0.0
C2693 C 0.38133 0.23672 0.70427 0.0
C2694 C 0.39473 0.25347 0.70936 0.0
H2695 H 0.4531 0.26541 0.73106 0.0
H2696 H 0.43045 0.25086 0.72424 0.0
H2697 H 0.45119 0.26057 0.71492 0.0
H2698 H 0.43372 0.25716 0.69595 0.0
H2699 H 0.41045 0.22767 0.68728 0.0
H2700 H 0.65757 0.14817 0.72516 0.0
H2701 H 0.68537 0.15366 0.71359 0.0
H2702 H 0.70325 0.13352 0.74412 0.0
H2703 H 0.67557 0.12787 0.75567 0.0
H2704 H 0.73165 0.16637 0.73485 0.0
H2705 H 0.6961 0.11594 0.69736 0.0
H2706 H 0.68837 0.13228 0.69957 0.0
H2707 H 0.68426 0.11569 0.71134 0.0
C2708 C 0.6673 0.1447 0.72937 0.0
C2709 C 0.66428 0.13762 0.7414 0.0
C2710 C 0.6832 0.14785 0.72272 0.0
C2711 C 0.69636 0.14386 0.72793 0.0
C2712 C 0.69335 0.13676 0.73991 0.0
H2713 H 0.784 0.12775 0.7 0.0
H2714 H 0.75463 0.12552 0.70675 0.0
C2715 C 0.67752 0.13362 0.74654 0.0
C2716 C 0.71355 0.14741 0.72114 0.0
H2717 H 0.729 0.13418 0.69617 0.0
C2718 C 0.73107 0.15943 0.72634 0.0
C2719 C 0.7128 0.13826 0.71008 0.0
C2720 C 0.6944 0.1247 0.70427 0.0
C2721 C 0.7478 0.16232 0.72094 0.0
C2722 C 0.74707 0.15315 0.70989 0.0
C2723 C 0.72956 0.14134 0.70457 0.0
C2724 C 0.7642 0.15443 0.70437 0.0
C2725 C 0.76607 0.17458 0.72741 0.0
C2726 C 0.77922 0.17133 0.70043 0.0
C2727 C 0.79606 0.17263 0.69661 0.0
C2728 C 0.79805 0.15697 0.69644 0.0
C2729 C 0.78277 0.13999 0.69993 0.0
C2730 C 0.76599 0.13871 0.70377 0.0
H2731 H 0.76391 0.17747 0.73702 0.0
H2732 H 0.77509 0.16825 0.7275 0.0
H2733 H 0.77367 0.18787 0.72245 0.0
H2734 H 0.7781 0.18362 0.70063 0.0
H2735 H 0.80768 0.18596 0.6942 0.0
H2736 H 0.85719 0.50141 0.72338 0.0
H2737 H 0.85244 0.52581 0.71509 0.0
H2738 H 0.898 0.56559 0.73723 0.0
H2739 H 0.90329 0.54136 0.74527 0.0
H2740 H 0.84386 0.54953 0.72744 0.0
H2741 H 0.91168 0.58845 0.703 0.0
H2742 H 0.90298 0.56537 0.70861 0.0
H2743 H 0.91374 0.58449 0.71898 0.0
C2744 C 0.86638 0.51538 0.72638 0.0
C2745 C 0.88073 0.51941 0.73493 0.0
C2746 C 0.86355 0.5293 0.72169 0.0
C2747 C 0.87504 0.54757 0.72539 0.0
C2748 C 0.88919 0.55164 0.73406 0.0
H2749 H 0.8784 0.65005 0.70791 0.0
H2750 H 0.88385 0.62604 0.71607 0.0
C2751 C 0.89205 0.53772 0.73876 0.0
C2752 C 0.87193 0.56226 0.72034 0.0
H2753 H 0.89273 0.60225 0.7039 0.0
C2754 C 0.85451 0.56102 0.72225 0.0
C2755 C 0.88586 0.57727 0.71359 0.0
C2756 C 0.90457 0.57896 0.71081 0.0
C2757 C 0.85074 0.57452 0.71777 0.0
C2758 C 0.86465 0.58949 0.71098 0.0
C2759 C 0.88208 0.59076 0.70909 0.0
C2760 C 0.86141 0.60404 0.70581 0.0
C2761 C 0.83204 0.57283 0.72057 0.0
C2762 C 0.84715 0.59971 0.69718 0.0
C2763 C 0.84393 0.6134 0.69252 0.0
C2764 C 0.85504 0.63176 0.6963 0.0
C2765 C 0.86953 0.63608 0.70479 0.0
C2766 C 0.87271 0.62237 0.70946 0.0
H2767 H 0.82502 0.56347 0.72845 0.0
H2768 H 0.83361 0.58645 0.72268 0.0
H2769 H 0.82279 0.56715 0.71245 0.0
H2770 H 0.83848 0.58571 0.69405 0.0
H2771 H 0.83257 0.60951 0.68608 0.0
H2772 H 0.44361 0.91745 0.1881 0.0
H2773 H 0.45337 0.93025 0.1675 0.0
H2774 H 0.50963 0.96516 0.18058 0.0
H2775 H 0.49995 0.95259 0.20127 0.0
H2776 H 0.46846 0.9667 0.16021 0.0
H2777 H 0.51785 0.94185 0.15004 0.0
H2778 H 0.50117 0.93269 0.16246 0.0
H2779 H 0.5225 0.95425 0.16421 0.0
C2780 C 0.45807 0.92789 0.18664 0.0
C2781 C 0.47097 0.93398 0.19643 0.0
C2782 C 0.46365 0.93512 0.17481 0.0
C2783 C 0.48229 0.94852 0.17242 0.0
C2784 C 0.49525 0.95455 0.18211 0.0
H2785 H 0.54489 0.01663 0.11094 0.0
H2786 H 0.53387 0.99996 0.13028 0.0
C2787 C 0.48968 0.94733 0.19397 0.0
C2788 C 0.48793 0.95674 0.15992 0.0
H2789 H 0.51793 0.9638 0.13621 0.0
C2790 C 0.47917 0.96594 0.15491 0.0
C2791 C 0.50193 0.95579 0.153 0.0
C2792 C 0.51131 0.94548 0.15763 0.0
C2793 C 0.4844 0.97466 0.14339 0.0
C2794 C 0.4985 0.97384 0.1365 0.0
C2795 C 0.50711 0.96444 0.14145 0.0
C2796 C 0.50511 0.98331 0.12441 0.0
C2797 C 0.47521 0.98525 0.13892 0.0
C2798 C 0.49275 0.97925 0.11448 0.0
C2799 C 0.499 0.98896 0.10338 0.0
C2800 C 0.51779 1.00287 0.10194 0.0
C2801 C 0.53025 1.00634 0.11176 0.0
C2802 C 0.52399 0.99669 0.12283 0.0
H2803 H 0.4684 0.98851 0.14653 0.0
H2804 H 0.48554 0.99829 0.13443 0.0
H2805 H 0.46425 0.97685 0.1321 0.0
H2806 H 0.47821 0.96869 0.11534 0.0
H2807 H 0.48897 0.98591 0.09607 0.0
H2808 H 0.09154 0.52046 0.18826 0.0
H2809 H 0.07848 0.51746 0.16768 0.0
H2810 H 0.04879 0.54464 0.17974 0.0
H2811 H 0.06235 0.54836 0.20021 0.0
H2812 H 0.04144 0.4991 0.16082 0.0
H2813 H 0.07386 0.57278 0.14856 0.0
H2814 H 0.08179 0.56483 0.16138 0.0
H2815 H 0.06127 0.567 0.1628 0.0
C2816 C 0.08251 0.52612 0.1865 0.0
C2817 C 0.0781 0.53475 0.19592 0.0
C2818 C 0.07494 0.52426 0.17474 0.0
C2819 C 0.06287 0.53106 0.1721 0.0
C2820 C 0.05837 0.53962 0.18148 0.0
H2821 H 0.99545 0.52792 0.11031 0.0
H2822 H 1.01153 0.53264 0.12996 0.0
C2823 C 0.06595 0.54152 0.19324 0.0
C2824 C 0.05438 0.52851 0.1597 0.0
H2825 H 0.04958 0.55161 0.13542 0.0
C2826 C 0.04334 0.51058 0.15522 0.0
C2827 C 0.05685 0.54351 0.15241 0.0
C2828 C 0.06923 0.56312 0.15646 0.0
C2829 C 0.03429 0.50721 0.14379 0.0
C2830 C 0.03661 0.52219 0.13655 0.0
C2831 C 0.04779 0.54014 0.14098 0.0
C2832 C 0.02719 0.51952 0.12447 0.0
C2833 C 0.02188 0.48759 0.13975 0.0
C2834 C 0.03086 0.51083 0.11476 0.0
C2835 C 0.02155 0.50795 0.10353 0.0
C2836 C 1.00846 0.51382 0.10174 0.0
C2837 C 1.00517 0.52291 0.11142 0.0
C2838 C 0.01446 0.52576 0.12264 0.0
H2839 H 0.0179 0.47782 0.14756 0.0
H2840 H 1.00892 0.48577 0.13533 0.0
H2841 H 0.02949 0.48397 0.13295 0.0
H2842 H 0.0409 0.50621 0.11588 0.0
H2843 H 0.02437 0.50082 0.09632 0.0
H2844 H 0.46696 0.50622 0.20061 0.0
H2845 H 0.47678 0.50349 0.17995 0.0
H2846 H 0.47902 0.55401 0.16947 0.0
H2847 H 0.46918 0.55685 0.19016 0.0
H2848 H 0.45935 0.50063 0.15787 0.0
H2849 H 0.52985 0.56299 0.15818 0.0
H2850 H 0.51626 0.5536 0.17198 0.0
H2851 H 0.511 0.5671 0.16164 0.0
C2852 C 0.46949 0.51675 0.19392 0.0
C2853 C 0.46728 0.53177 0.19708 0.0
C2854 C 0.47518 0.5152 0.18211 0.0
C2855 C 0.47888 0.52864 0.17317 0.0
C2856 C 0.47667 0.54366 0.17627 0.0
H2857 H 0.51503 0.53625 0.09646 0.0
H2858 H 0.50302 0.54107 0.11586 0.0
C2859 C 0.47102 0.54526 0.18811 0.0
C2860 C 0.48456 0.52658 0.16056 0.0
H2861 H 0.51988 0.54663 0.13949 0.0
C2862 C 0.47258 0.51071 0.15386 0.0
C2863 C 0.50179 0.53976 0.15527 0.0
C2864 C 0.51557 0.55675 0.16215 0.0
C2865 C 0.47738 0.50763 0.14208 0.0
C2866 C 0.49474 0.52063 0.13689 0.0
C2867 C 0.50656 0.53668 0.14346 0.0
C2868 C 0.50131 0.51737 0.12494 0.0
C2869 C 0.46374 0.49051 0.13525 0.0
C2870 C 0.50439 0.5025 0.1236 0.0
C2871 C 0.51122 0.49972 0.11255 0.0
C2872 C 0.5152 0.51179 0.10258 0.0
C2873 C 0.51193 0.5266 0.1039 0.0
C2874 C 0.50518 0.52943 0.11501 0.0
H2875 H 0.44928 0.48471 0.13885 0.0
H2876 H 0.46369 0.49333 0.12529 0.0
H2877 H 0.46794 0.47995 0.13637 0.0
H2878 H 0.50178 0.49317 0.13118 0.0
H2879 H 0.51341 0.48809 0.11183 0.0
H2880 H 0.96151 0.46858 0.83585 0.0
H2881 H 0.97511 0.4714 0.85624 0.0
H2882 H 0.94239 0.49447 0.87005 0.0
H2883 H 0.92824 0.49112 0.84981 0.0
H2884 H 0.9961 0.5032 0.86946 0.0
H2885 H 0.93244 0.45519 0.89557 0.0
H2886 H 0.93321 0.45557 0.87902 0.0
H2887 H 0.93026 0.47246 0.88723 0.0
C2888 C 0.95693 0.47394 0.84327 0.0
C2889 C 0.94372 0.47957 0.84117 0.0
C2890 C 0.96483 0.47566 0.85491 0.0
C2891 C 0.9596 0.48292 0.86473 0.0
C2892 C 0.94639 0.4885 0.86268 0.0
H2893 H 0.99917 0.51347 0.93983 0.0
H2894 H 0.98281 0.50784 0.92015 0.0
C2895 C 0.93848 0.48679 0.85105 0.0
C2896 C 0.96866 0.48548 0.87693 0.0
H2897 H 0.95981 0.47404 0.90728 0.0
C2898 C 0.98817 0.49673 0.87772 0.0
C2899 C 0.9583 0.4771 0.88771 0.0
C2900 C 0.93742 0.46427 0.88737 0.0
C2901 C 0.99756 0.50005 0.889 0.0
C2902 C 0.98721 0.49167 0.89977 0.0
C2903 C 0.9677 0.48046 0.89901 0.0
C2904 C 0.99648 0.4943 0.91188 0.0
C2905 C 0.01847 0.51281 0.88934 0.0
C2906 C 1.00926 0.48817 0.91386 0.0
C2907 C 0.01855 0.49125 0.9251 0.0
C2908 C 0.01521 0.5005 0.93464 0.0
C2909 C 1.00199 0.50619 0.93274 0.0
C2910 C 0.99268 0.50306 0.92148 0.0
H2911 H 0.02359 0.52154 0.88098 0.0
H2912 H 0.0226 0.52185 0.89752 0.0
H2913 H 0.02555 0.50456 0.88988 0.0
H2914 H 0.01211 0.48102 0.90667 0.0
H2915 H 0.02831 0.48633 0.92632 0.0
H2916 H 0.52665 0.46917 0.83612 0.0
H2917 H 0.51642 0.47199 0.85667 0.0
H2918 H 0.57288 0.49458 0.87003 0.0
H2919 H 0.58321 0.49165 0.84957 0.0
H2920 H 0.51915 0.45715 0.8795 0.0
H2921 H 0.55906 0.5334 0.87998 0.0
H2922 H 0.555 0.52028 0.86609 0.0
H2923 H 0.57276 0.52273 0.87673 0.0
C2924 C 0.53688 0.47456 0.84344 0.0
C2925 C 0.55581 0.48032 0.84112 0.0
C2926 C 0.53101 0.47625 0.85519 0.0
C2927 C 0.54394 0.4838 0.86485 0.0
C2928 C 0.56273 0.48911 0.86265 0.0
H2929 H 0.53373 0.51197 0.9406 0.0
H2930 H 0.54506 0.50606 0.92134 0.0
C2931 C 0.56861 0.48743 0.85093 0.0
C2932 C 0.53776 0.48618 0.8772 0.0
H2933 H 0.54357 0.51861 0.89832 0.0
C2934 C 0.52446 0.47059 0.88361 0.0
C2935 C 0.54476 0.50371 0.88259 0.0
C2936 C 0.55856 0.52103 0.87598 0.0
C2937 C 0.5181 0.47203 0.89531 0.0
C2938 C 0.52493 0.48959 0.90064 0.0
C2939 C 0.53836 0.50516 0.89426 0.0
C2940 C 0.51787 0.49221 0.9126 0.0
C2941 C 0.50437 0.45469 0.90192 0.0
C2942 C 0.49883 0.48643 0.91414 0.0
C2943 C 0.49229 0.48966 0.92516 0.0
C2944 C 0.50468 0.49893 0.9349 0.0
C2945 C 0.52375 0.50459 0.93338 0.0
C2946 C 0.53027 0.50133 0.92233 0.0
H2947 H 0.50495 0.44257 0.89846 0.0
H2948 H 0.50707 0.45588 0.91195 0.0
H2949 H 0.48997 0.45216 0.90037 0.0
H2950 H 0.48902 0.47969 0.90671 0.0
H2951 H 0.4775 0.48493 0.92602 0.0
H2952 H 0.56726 0.0953 0.84379 0.0
H2953 H 0.56277 0.08162 0.86432 0.0
H2954 H 0.50368 0.04808 0.85724 0.0
H2955 H 0.50807 0.06121 0.83671 0.0
H2956 H 0.54026 0.08148 0.88377 0.0
H2957 H 0.51782 0.01052 0.86895 0.0
H2958 H 0.52909 0.02993 0.85869 0.0
H2959 H 0.50449 0.01961 0.86192 0.0
C2960 C 0.55335 0.08483 0.84655 0.0
C2961 C 0.53804 0.07938 0.83855 0.0
C2962 C 0.55079 0.07712 0.85832 0.0
C2963 C 0.53292 0.06364 0.8623 0.0
C2964 C 0.51765 0.05822 0.85434 0.0
H2965 H 0.47652 0.99967 0.92589 0.0
H2966 H 0.48654 0.0158 0.90629 0.0
C2967 C 0.52017 0.06592 0.84262 0.0
C2968 C 0.53 0.05541 0.87481 0.0
H2969 H 0.5117 0.01429 0.88984 0.0
C2970 C 0.53423 0.06682 0.88512 0.0
C2971 C 0.5222 0.03628 0.87658 0.0
C2972 C 0.5183 0.02338 0.86596 0.0
C2973 C 0.53008 0.05952 0.89711 0.0
C2974 C 0.5217 0.04031 0.89883 0.0
C2975 C 0.518 0.029 0.88853 0.0
C2976 C 0.51584 0.03147 0.91115 0.0
C2977 C 0.53401 0.07232 0.90779 0.0
C2978 C 0.52895 0.03497 0.92051 0.0
C2979 C 0.52324 0.02566 0.93179 0.0
C2980 C 0.50432 0.01254 0.93388 0.0
C2981 C 0.49123 0.00942 0.92455 0.0
C2982 C 0.49693 0.0187 0.91333 0.0
H2983 H 0.53673 0.08606 0.90475 0.0
H2984 H 0.52208 0.0665 0.91431 0.0
H2985 H 0.54656 0.07415 0.91277 0.0
H2986 H 0.54366 0.04453 0.91899 0.0
H2987 H 0.53372 0.02827 0.9387 0.0
H2988 H 0.1378 0.24686 0.52404 0.0
H2989 H 0.14781 0.25977 0.5034 0.0
H2990 H 0.14846 0.30914 0.51475 0.0
H2991 H 0.13899 0.2966 0.53542 0.0
H2992 H 0.12994 0.27168 0.48667 0.0
H2993 H 0.2001 0.32888 0.49925 0.0
H2994 H 0.18646 0.30977 0.50939 0.0
H2995 H 0.18153 0.32826 0.50817 0.0
C2996 C 0.14033 0.26057 0.5222 0.0
C2997 C 0.13761 0.27069 0.53145 0.0
C2998 C 0.14592 0.26788 0.51036 0.0
C2999 C 0.14911 0.28553 0.50754 0.0
C3000 C 0.14638 0.29562 0.51674 0.0
H3001 H 0.17975 0.35874 0.44562 0.0
H3002 H 0.1697 0.34252 0.4652 0.0
C3003 C 0.14076 0.28833 0.52854 0.0
C3004 C 0.15493 0.29333 0.49496 0.0
H3005 H 0.18895 0.33017 0.47931 0.0
C3006 C 0.14293 0.28437 0.48503 0.0
C3007 C 0.1719 0.30988 0.4928 0.0
C3008 C 0.18584 0.31969 0.50294 0.0
C3009 C 0.14709 0.29188 0.4731 0.0
C3010 C 0.16386 0.30866 0.47101 0.0
C3011 C 0.17604 0.31738 0.48091 0.0
C3012 C 0.16887 0.31782 0.45875 0.0
C3013 C 0.13317 0.28214 0.46294 0.0
C3014 C 0.17165 0.30933 0.44851 0.0
C3015 C 0.17744 0.31863 0.43724 0.0
C3016 C 0.18077 0.33669 0.43602 0.0
C3017 C 0.1776 0.34496 0.44625 0.0
C3018 C 0.17179 0.33568 0.45746 0.0
H3019 H 0.11918 0.27197 0.46658 0.0
H3020 H 0.13166 0.29209 0.45703 0.0
H3021 H 0.13822 0.27469 0.45713 0.0
H3022 H 0.16984 0.2957 0.44931 0.0
H3023 H 0.17995 0.31192 0.4296 0.0
H3024 H 0.7161 0.84146 0.53405 0.0
H3025 H 0.70307 0.83863 0.51347 0.0
H3026 H 0.75262 0.88848 0.50247 0.0
H3027 H 0.76596 0.89123 0.52299 0.0
H3028 H 0.69611 0.86438 0.50083 0.0
H3029 H 0.74669 0.85089 0.47583 0.0
H3030 H 0.74386 0.8486 0.49228 0.0
H3031 H 0.75673 0.87096 0.48541 0.0
C3032 C 0.72433 0.85173 0.52722 0.0
C3033 C 0.74214 0.86651 0.53016 0.0
C3034 C 0.71681 0.85015 0.51548 0.0
C3035 C 0.72697 0.86321 0.50639 0.0
C3036 C 0.74465 0.8781 0.50929 0.0
H3037 H 0.69986 0.87011 0.42951 0.0
H3038 H 0.71556 0.87562 0.44946 0.0
C3039 C 0.75217 0.87974 0.52107 0.0
C3040 C 0.71882 0.86132 0.49395 0.0
H3041 H 0.72425 0.85353 0.46387 0.0
C3042 C 0.70226 0.86202 0.49275 0.0
C3043 C 0.72694 0.85835 0.48341 0.0
C3044 C 0.74446 0.857 0.48423 0.0
C3045 C 0.69359 0.85985 0.48128 0.0
C3046 C 0.70145 0.85645 0.47077 0.0
C3047 C 0.71821 0.85608 0.47194 0.0
C3048 C 0.69221 0.85279 0.45856 0.0
C3049 C 0.6762 0.86146 0.48053 0.0
C3050 C 0.67405 0.83787 0.45697 0.0
C3051 C 0.66508 0.83468 0.4456 0.0
C3052 C 0.67412 0.84626 0.43553 0.0
C3053 C 0.69254 0.86087 0.43705 0.0
C3054 C 0.7015 0.86409 0.44846 0.0
H3055 H 0.67519 0.86926 0.48841 0.0
H3056 H 0.67591 0.86834 0.47189 0.0
H3057 H 0.66369 0.84752 0.48071 0.0
H3058 H 0.66679 0.82866 0.46453 0.0
H3059 H 0.65105 0.82307 0.44469 0.0
H3060 H 0.16313 0.88053 0.53428 0.0
H3061 H 0.17363 0.87818 0.51372 0.0
H3062 H 0.11646 0.85006 0.50109 0.0
H3063 H 0.1059 0.8529 0.52147 0.0
H3064 H 0.16448 0.84653 0.5009 0.0
H3065 H 0.14221 0.8889 0.47463 0.0
H3066 H 0.14354 0.88932 0.49117 0.0
H3067 H 0.12381 0.87091 0.48346 0.0
C3068 C 0.1528 0.87415 0.52708 0.0
C3069 C 0.13364 0.86693 0.52958 0.0
C3070 C 0.15882 0.8727 0.51534 0.0
C3071 C 0.14587 0.86415 0.50579 0.0
C3072 C 0.12677 0.85702 0.50822 0.0
H3073 H 0.15426 0.83358 0.43046 0.0
H3074 H 0.14341 0.83875 0.4502 0.0
C3075 C 0.12073 0.85845 0.51995 0.0
C3076 C 0.15227 0.86188 0.49347 0.0
H3077 H 0.15215 0.87146 0.46295 0.0
C3078 C 0.16189 0.85209 0.49262 0.0
C3079 C 0.14877 0.86902 0.48263 0.0
C3080 C 0.13917 0.88027 0.48298 0.0
C3081 C 0.16786 0.84901 0.48125 0.0
C3082 C 0.16444 0.8562 0.47042 0.0
C3083 C 0.15475 0.86594 0.47124 0.0
C3084 C 0.17106 0.85393 0.45819 0.0
C3085 C 0.17745 0.83774 0.48092 0.0
C3086 C 0.19023 0.86118 0.45598 0.0
C3087 C 0.19646 0.8583 0.44473 0.0
C3088 C 0.18368 0.84817 0.43536 0.0
C3089 C 0.1645 0.8415 0.43743 0.0
C3090 C 0.15827 0.84438 0.44873 0.0
H3091 H 0.17455 0.82924 0.48933 0.0
H3092 H 0.17293 0.82855 0.4728 0.0
H3093 H 0.1928 0.84707 0.4803 0.0
H3094 H 0.20041 0.869 0.46302 0.0
H3095 H 0.21136 0.86401 0.44337 0.0
H3096 H 0.62252 0.84424 0.17574 0.0
H3097 H 0.63633 0.84733 0.19607 0.0
H3098 H 0.61812 0.78955 0.19634 0.0
H3099 H 0.60393 0.78621 0.17606 0.0
H3100 H 0.61873 0.82878 0.21836 0.0
H3101 H 0.675 0.81501 0.20358 0.0
H3102 H 0.66199 0.82073 0.19286 0.0
H3103 H 0.65165 0.798 0.1992 0.0
C3104 C 0.62125 0.83211 0.18015 0.0
C3105 C 0.61209 0.81496 0.17422 0.0
C3106 C 0.62924 0.83395 0.19175 0.0
C3107 C 0.62842 0.81872 0.19765 0.0
C3108 C 0.61919 0.80154 0.19185 0.0
H3109 H 0.65542 0.81312 0.27469 0.0
H3110 H 0.63927 0.80827 0.255 0.0
C3111 C 0.61113 0.79967 0.18024 0.0
C3112 C 0.63721 0.82091 0.20989 0.0
H3113 H 0.67241 0.81865 0.22485 0.0
C3114 C 0.63044 0.82652 0.2198 0.0
C3115 C 0.6526 0.81814 0.2117 0.0
C3116 C 0.6609 0.81278 0.20128 0.0
C3117 C 0.6386 0.82938 0.23151 0.0
C3118 C 0.65384 0.82638 0.23336 0.0
C3119 C 0.66064 0.82082 0.22343 0.0
C3120 C 0.66336 0.82952 0.24542 0.0
C3121 C 0.63116 0.836 0.24173 0.0
C3122 C 0.6823 0.84294 0.24654 0.0
C3123 C 0.69154 0.84578 0.25778 0.0
C3124 C 0.68208 0.83516 0.26813 0.0
C3125 C 0.66306 0.82174 0.26697 0.0
C3126 C 0.65381 0.81893 0.25572 0.0
H3127 H 0.62233 0.84154 0.23819 0.0
H3128 H 0.62246 0.82436 0.24796 0.0
H3129 H 0.64281 0.84684 0.2472 0.0
H3130 H 0.68993 0.85129 0.23872 0.0
H3131 H 0.70611 0.85639 0.25836 0.0
H3132 H 0.19442 0.81351 0.16655 0.0
H3133 H 0.18457 0.81819 0.18677 0.0
H3134 H 0.23837 0.83185 0.20172 0.0
H3135 H 0.24828 0.82705 0.18161 0.0
H3136 H 0.18255 0.80148 0.20972 0.0
H3137 H 0.23325 0.87634 0.21107 0.0
H3138 H 0.22796 0.86306 0.19715 0.0
H3139 H 0.24354 0.86224 0.20835 0.0
C3140 C 0.20411 0.81732 0.17415 0.0
C3141 C 0.22223 0.82006 0.17237 0.0
C3142 C 0.19847 0.82007 0.18571 0.0
C3143 C 0.21084 0.82572 0.19572 0.0
C3144 C 0.22873 0.82794 0.19407 0.0
H3145 H 0.20465 0.85598 0.27141 0.0
H3146 H 0.21399 0.84847 0.25195 0.0
C3147 C 0.23438 0.8252 0.18254 0.0
C3148 C 0.20508 0.82934 0.20787 0.0
H3149 H 0.21581 0.86298 0.22916 0.0
C3150 C 0.18978 0.81494 0.21396 0.0
C3151 C 0.21455 0.84689 0.21342 0.0
C3152 C 0.23064 0.86309 0.20714 0.0
C3153 C 0.18387 0.81753 0.22552 0.0
C3154 C 0.19327 0.83512 0.23104 0.0
C3155 C 0.20862 0.84949 0.22496 0.0
C3156 C 0.18728 0.83902 0.24303 0.0
C3157 C 0.16788 0.80129 0.23183 0.0
C3158 C 0.16918 0.83635 0.24452 0.0
C3159 C 0.16374 0.84049 0.25568 0.0
C3160 C 0.17631 0.84758 0.26561 0.0
C3161 C 0.19447 0.8503 0.26406 0.0
C3162 C 0.1999 0.84613 0.25289 0.0
H3163 H 0.16592 0.78808 0.22824 0.0
H3164 H 0.17018 0.80172 0.24189 0.0
H3165 H 0.15475 0.80154 0.23014 0.0
H3166 H 0.15929 0.83126 0.23699 0.0
H3167 H 0.14959 0.83803 0.25653 0.0
H3168 H 0.21043 0.39196 0.16775 0.0
H3169 H 0.20589 0.37886 0.18841 0.0
H3170 H 0.20258 0.42474 0.20299 0.0
H3171 H 0.2072 0.43797 0.18241 0.0
H3172 H 0.22608 0.39263 0.21031 0.0
H3173 H 0.15388 0.38076 0.21503 0.0
H3174 H 0.16597 0.38615 0.20051 0.0
H3175 H 0.17116 0.40403 0.21146 0.0
C3176 C 0.20895 0.39938 0.17536 0.0
C3177 C 0.20899 0.41595 0.17335 0.0
C3178 C 0.20626 0.39182 0.18717 0.0
C3179 C 0.20351 0.40061 0.19723 0.0
C3180 C 0.20419 0.41745 0.19534 0.0
H3181 H 0.17572 0.36885 0.27436 0.0
H3182 H 0.18558 0.3862 0.25504 0.0
C3183 C 0.20683 0.425 0.18354 0.0
C3184 C 0.19973 0.39208 0.20967 0.0
H3185 H 0.16703 0.37492 0.23256 0.0
C3186 C 0.21316 0.38874 0.21517 0.0
C3187 C 0.18289 0.38703 0.21605 0.0
C3188 C 0.16755 0.3895 0.21044 0.0
C3189 C 0.21027 0.38066 0.22688 0.0
C3190 C 0.19336 0.37547 0.2332 0.0
C3191 C 0.18003 0.37898 0.22776 0.0
C3192 C 0.1888 0.36563 0.24521 0.0
C3193 C 0.22548 0.37796 0.23245 0.0
C3194 C 0.18737 0.34832 0.24614 0.0
C3195 C 0.18178 0.33843 0.25715 0.0
C3196 C 0.17739 0.34554 0.2675 0.0
C3197 C 0.17918 0.36305 0.26662 0.0
C3198 C 0.18471 0.37293 0.25556 0.0
H3199 H 0.23932 0.38728 0.22825 0.0
H3200 H 0.22649 0.38036 0.24251 0.0
H3201 H 0.22218 0.36363 0.23083 0.0
H3202 H 0.19011 0.34223 0.23825 0.0
H3203 H 0.18072 0.32507 0.25752 0.0
H3204 H 0.83302 0.61198 0.86652 0.0
H3205 H 0.84219 0.62536 0.84598 0.0
H3206 H 0.78416 0.60327 0.83637 0.0
H3207 H 0.77489 0.59054 0.85699 0.0
H3208 H 0.83399 0.60908 0.82324 0.0
H3209 H 0.80602 0.65669 0.82689 0.0
H3210 H 0.80853 0.64503 0.84004 0.0
H3211 H 0.78893 0.63314 0.82983 0.0
C3212 C 0.82219 0.61015 0.8601 0.0
C3213 C 0.80319 0.60022 0.86351 0.0
C3214 C 0.82746 0.6177 0.84831 0.0
C3215 C 0.8139 0.61561 0.83966 0.0
C3216 C 0.79493 0.60543 0.84294 0.0
H3217 H 0.8218 0.65524 0.76416 0.0
H3218 H 0.81056 0.63847 0.78361 0.0
C3219 C 0.78964 0.59792 0.85472 0.0
C3220 C 0.81961 0.62393 0.82718 0.0
H3221 H 0.81698 0.65412 0.80732 0.0
C3222 C 0.8303 0.61896 0.81978 0.0
C3223 C 0.81477 0.6368 0.82261 0.0
C3224 C 0.80409 0.64339 0.83028 0.0
C3225 C 0.83612 0.62637 0.80794 0.0
C3226 C 0.83137 0.63931 0.80342 0.0
C3227 C 0.82054 0.64413 0.81076 0.0
C3228 C 0.83817 0.6486 0.79132 0.0
C3229 C 0.84713 0.62011 0.80032 0.0
C3230 C 0.85741 0.65986 0.78917 0.0
C3231 C 0.86385 0.66942 0.77809 0.0
C3232 C 0.85121 0.66801 0.76888 0.0
C3233 C 0.83193 0.65649 0.77098 0.0
C3234 C 0.82548 0.64699 0.78212 0.0
H3235 H 0.84516 0.60673 0.80358 0.0
H3236 H 0.843 0.61878 0.79051 0.0
H3237 H 0.86224 0.63041 0.801 0.0
H3238 H 0.86748 0.66158 0.79618 0.0
H3239 H 0.8788 0.67803 0.77675 0.0
H3240 H 0.41617 0.17986 0.85552 0.0
H3241 H 0.40323 0.17709 0.83496 0.0
H3242 H 0.39158 0.22055 0.84304 0.0
H3243 H 0.40541 0.2241 0.86339 0.0
H3244 H 0.36834 0.16793 0.82824 0.0
H3245 H 0.41755 0.23749 0.81045 0.0
H3246 H 0.42196 0.22865 0.82439 0.0
H3247 H 0.40651 0.23797 0.8245 0.0
C3248 C 0.41123 0.18912 0.85287 0.0
C3249 C 0.41199 0.20231 0.86115 0.0
C3250 C 0.40367 0.18739 0.84112 0.0
C3251 C 0.3967 0.1988 0.83735 0.0
C3252 C 0.39726 0.21187 0.84561 0.0
H3253 H 0.334 0.20252 0.77473 0.0
H3254 H 0.35 0.20658 0.7944 0.0
C3255 C 0.40494 0.21369 0.85733 0.0
C3256 C 0.38813 0.19649 0.82498 0.0
H3257 H 0.38991 0.21948 0.79863 0.0
C3258 C 0.37318 0.17917 0.82173 0.0
C3259 C 0.39445 0.21115 0.81646 0.0
C3260 C 0.41112 0.22981 0.81906 0.0
C3261 C 0.3641 0.17622 0.81035 0.0
C3262 C 0.37021 0.19095 0.80194 0.0
C3263 C 0.38523 0.20823 0.80512 0.0
C3264 C 0.36094 0.18872 0.78989 0.0
C3265 C 0.34774 0.15749 0.80749 0.0
C3266 C 0.36201 0.17752 0.78077 0.0
C3267 C 0.35289 0.17517 0.76951 0.0
C3268 C 0.34247 0.18394 0.76718 0.0
C3269 C 0.34168 0.19536 0.77629 0.0
C3270 C 0.3509 0.19779 0.7875 0.0
H3271 H 0.34253 0.14864 0.81579 0.0
H3272 H 0.33605 0.15869 0.80341 0.0
H3273 H 0.35213 0.15059 0.80069 0.0
H3274 H 0.36987 0.17056 0.78238 0.0
H3275 H 0.35369 0.16621 0.76272 0.0
H3276 H 0.80291 0.17425 0.86686 0.0
H3277 H 0.81264 0.17158 0.84616 0.0
H3278 H 0.81262 0.22093 0.8354 0.0
H3279 H 0.80288 0.22371 0.85612 0.0
H3280 H 0.79447 0.16768 0.8242 0.0
H3281 H 0.86383 0.23147 0.82368 0.0
H3282 H 0.85067 0.22202 0.83763 0.0
H3283 H 0.84453 0.23484 0.82727 0.0
C3284 C 0.80493 0.18454 0.86009 0.0
C3285 C 0.80211 0.19921 0.8632 0.0
C3286 C 0.81056 0.18302 0.84826 0.0
C3287 C 0.8136 0.19616 0.83923 0.0
C3288 C 0.81079 0.21083 0.84226 0.0
H3289 H 0.8487 0.20361 0.76226 0.0
H3290 H 0.83675 0.20831 0.78173 0.0
C3291 C 0.8052 0.2124 0.85413 0.0
C3292 C 0.81919 0.1941 0.82659 0.0
H3293 H 0.85391 0.21468 0.80515 0.0
C3294 C 0.80747 0.17797 0.82005 0.0
C3295 C 0.8361 0.20757 0.8211 0.0
C3296 C 0.84962 0.22489 0.8278 0.0
C3297 C 0.8122 0.1749 0.80824 0.0
C3298 C 0.82927 0.18819 0.80286 0.0
C3299 C 0.84082 0.2045 0.80927 0.0
C3300 C 0.83582 0.18501 0.79088 0.0
C3301 C 0.7988 0.15749 0.80159 0.0
C3302 C 0.83933 0.17041 0.78955 0.0
C3303 C 0.8461 0.16768 0.77846 0.0
C3304 C 0.84962 0.17955 0.76843 0.0
C3305 C 0.84595 0.1941 0.76974 0.0
C3306 C 0.83924 0.19687 0.78089 0.0
H3307 H 0.78436 0.15143 0.80529 0.0
H3308 H 0.7985 0.16004 0.79162 0.0
H3309 H 0.80341 0.14725 0.80279 0.0
H3310 H 0.83709 0.16124 0.79717 0.0
H3311 H 0.8486 0.15624 0.77776 0.0
H3312 H 0.26947 0.16026 0.51364 0.0
H3313 H 0.2832 0.16342 0.53402 0.0
H3314 H 0.31099 0.13451 0.52167 0.0
H3315 H 0.29787 0.13186 0.50114 0.0
H3316 H 0.28034 0.13701 0.55066 0.0
H3317 H 0.35398 0.18161 0.5359 0.0
H3318 H 0.33437 0.17704 0.52621 0.0
H3319 H 0.34177 0.16032 0.52768 0.0
C3320 C 0.27866 0.15473 0.5152 0.0
C3321 C 0.2827 0.14597 0.50568 0.0
C3322 C 0.28638 0.15643 0.5269 0.0
C3323 C 0.29838 0.14948 0.52933 0.0
C3324 C 0.30206 0.1403 0.51995 0.0
H3325 H 0.3619 0.14948 0.59288 0.0
H3326 H 0.34615 0.14424 0.57306 0.0
C3327 C 0.29436 0.13861 0.50824 0.0
C3328 C 0.30706 0.15191 0.54165 0.0
H3329 H 0.34919 0.17088 0.55643 0.0
C3330 C 0.29539 0.14447 0.55194 0.0
C3331 C 0.3267 0.16169 0.54331 0.0
C3332 C 0.33996 0.17078 0.53272 0.0
C3333 C 0.30284 0.14622 0.5638 0.0
C3334 C 0.32248 0.15593 0.56544 0.0
C3335 C 0.33413 0.16339 0.55516 0.0
C3336 C 0.33132 0.15853 0.57772 0.0
C3337 C 0.28964 0.13735 0.57445 0.0
C3338 C 0.32827 0.16836 0.58695 0.0
C3339 C 0.33735 0.17149 0.5983 0.0
C3340 C 0.34978 0.16494 0.60062 0.0
C3341 C 0.35265 0.15495 0.59137 0.0
C3342 C 0.34358 0.15185 0.58004 0.0
H3343 H 0.27551 0.12666 0.57133 0.0
H3344 H 0.29516 0.131 0.58094 0.0
H3345 H 0.28812 0.14798 0.57949 0.0
H3346 H 0.31919 0.17399 0.58529 0.0
H3347 H 0.33503 0.17946 0.60513 0.0
H3348 H 0.86099 0.13739 0.50199 0.0
H3349 H 0.85057 0.14035 0.52245 0.0
H3350 H 0.90658 0.1615 0.53631 0.0
H3351 H 0.91709 0.15842 0.51595 0.0
H3352 H 0.85233 0.12495 0.54527 0.0
H3353 H 0.89392 0.20113 0.54622 0.0
H3354 H 0.88983 0.18812 0.53228 0.0
H3355 H 0.90717 0.18996 0.54308 0.0
C3356 C 0.87107 0.1425 0.5094 0.0
C3357 C 0.88994 0.14781 0.50725 0.0
C3358 C 0.8651 0.14426 0.52109 0.0
C3359 C 0.87785 0.15145 0.53088 0.0
C3360 C 0.89657 0.15632 0.52885 0.0
H3361 H 0.8673 0.17943 0.6066 0.0
H3362 H 0.8786 0.1734 0.58738 0.0
C3363 C 0.90255 0.15457 0.51717 0.0
C3364 C 0.87158 0.15389 0.54318 0.0
H3365 H 0.87788 0.18634 0.56443 0.0
C3366 C 0.85789 0.13837 0.54946 0.0
C3367 C 0.8789 0.17139 0.54867 0.0
C3368 C 0.89315 0.18865 0.5422 0.0
C3369 C 0.85145 0.13986 0.56111 0.0
C3370 C 0.8586 0.1574 0.56654 0.0
C3371 C 0.87242 0.17289 0.5603 0.0
C3372 C 0.85153 0.16011 0.57848 0.0
C3373 C 0.83729 0.12258 0.56759 0.0
C3374 C 0.83255 0.15468 0.57992 0.0
C3375 C 0.82603 0.15797 0.59093 0.0
C3376 C 0.83835 0.16696 0.60075 0.0
C3377 C 0.85735 0.17227 0.59932 0.0
C3378 C 0.86387 0.16895 0.58829 0.0
H3379 H 0.8376 0.11033 0.56411 0.0
H3380 H 0.83978 0.12358 0.57765 0.0
H3381 H 0.82306 0.12041 0.56591 0.0
H3382 H 0.8228 0.14818 0.57243 0.0
H3383 H 0.81128 0.15349 0.59171 0.0
H3384 H 0.84198 0.73048 0.50528 0.0
H3385 H 0.83738 0.71715 0.52579 0.0
H3386 H 0.89702 0.74628 0.53167 0.0
H3387 H 0.90176 0.76012 0.51119 0.0
H3388 H 0.85114 0.69515 0.53538 0.0
H3389 H 0.87687 0.75947 0.56228 0.0
H3390 H 0.8709 0.75806 0.54622 0.0
H3391 H 0.89253 0.75956 0.5508 0.0
C3392 C 0.85415 0.73426 0.51097 0.0
C3393 C 0.87225 0.74655 0.50659 0.0
C3394 C 0.85149 0.72651 0.52268 0.0
C3395 C 0.86681 0.7309 0.53036 0.0
C3396 C 0.88495 0.74294 0.526 0.0
H3397 H 0.86572 0.6919 0.60576 0.0
H3398 H 0.87603 0.70809 0.58602 0.0
C3399 C 0.88765 0.75068 0.51423 0.0
C3400 C 0.86361 0.72245 0.5428 0.0
H3401 H 0.86703 0.73212 0.5735 0.0
C3402 C 0.85468 0.70325 0.54371 0.0
C3403 C 0.86836 0.73302 0.55369 0.0
C3404 C 0.87757 0.75367 0.55328 0.0
C3405 C 0.85019 0.69432 0.55515 0.0
C3406 C 0.85434 0.70483 0.56603 0.0
C3407 C 0.86377 0.72407 0.56516 0.0
C3408 C 0.84818 0.69596 0.57831 0.0
C3409 C 0.84108 0.67367 0.55546 0.0
C3410 C 0.82909 0.68423 0.5807 0.0
C3411 C 0.82318 0.67504 0.59193 0.0
C3412 C 0.83621 0.67741 0.60111 0.0
C3413 C 0.8553 0.68979 0.59891 0.0
C3414 C 0.86122 0.69899 0.58761 0.0
H3415 H 0.84394 0.66828 0.54694 0.0
H3416 H 0.84604 0.66903 0.56345 0.0
H3417 H 0.8257 0.66759 0.55626 0.0
H3418 H 0.81871 0.68206 0.57381 0.0
H3419 H 0.80834 0.66596 0.59339 0.0
loop_
_geom_bond_atom_site_label_1
_geom_bond_atom_site_label_2
_geom_bond_distance
_geom_bond_site_symmetry_2
_ccdc_geom_bond_type
C0 C1 1.264 . S
C0 C5 1.479 . S
C0 C10 1.465 . S
C1 C0 1.264 . S
C1 C3 1.339 . S
C1 H28 0.931 . S
C2 C3 1.395 . S
C2 C4 1.320 . S
C3 C1 1.339 . S
C3 C2 1.395 . S
C3 H29 0.929 . S
C4 C2 1.320 . S
C4 C5 1.405 . S
C4 H30 0.930 . S
C5 C0 1.479 . S
C5 C4 1.405 . S
C5 H31 0.931 . S
U6 O7 2.454 . S
U6 O8 2.458 . S
U6 C9 2.984 . S
U6 C10 2.847 . S
U6 C23 2.882 . S
U6 O24 2.441 . S
U6 O25 2.420 . S
U6 O26 2.455 . S
U6 O27 2.449 . S
O7 U6 2.454 . S
O7 C9 1.353 . S
O8 U6 2.458 . S
O8 C9 1.286 . S
C9 U6 2.984 . S
C9 O7 1.353 . S
C9 O8 1.286 . S
C9 C11 1.363 . S
C10 C0 1.465 . S
C10 U6 2.847 . S
C10 O24 1.249 . S
C10 O25 1.202 . S
C11 C9 1.363 . S
C11 C13 1.408 . S
C11 C16 1.342 . S
C12 C13 1.310 . S
C12 C15 1.461 . S
C12 H32 0.932 . S
C13 C11 1.408 . S
C13 C12 1.310 . S
C13 H33 0.930 . S
C14 C15 1.474 . S
C14 C16 1.285 . S
C14 H34 0.929 . S
C15 C12 1.461 . S
C15 C14 1.474 . S
C16 C11 1.342 . S
C16 C14 1.285 . S
C16 H35 0.930 . S
C17 C20 1.424 . S
C17 C22 1.245 . S
C17 C23 1.428 . S
C18 C21 1.260 . S
C18 C22 1.477 . S
C18 H36 0.932 . S
C19 C20 1.384 . S
C19 C21 1.479 . S
C19 H37 0.929 . S
C20 C17 1.424 . S
C20 C19 1.384 . S
C20 H38 0.928 . S
C21 C18 1.260 . S
C21 C19 1.479 . S
C22 C17 1.245 . S
C22 C18 1.477 . S
C22 H39 0.932 . S
C23 U6 2.882 . S
C23 C17 1.428 . S
C23 O26 1.301 . S
C23 O27 1.282 . S
O24 U6 2.441 . S
O24 C10 1.249 . S
O25 U6 2.420 . S
O25 C10 1.202 . S
O26 U6 2.455 . S
O26 C23 1.301 . S
O27 U6 2.449 . S
O27 C23 1.282 . S
H28 C1 0.931 . S
H29 C3 0.929 . S
H30 C4 0.930 . S
H31 C5 0.931 . S
H32 C12 0.932 . S
H33 C13 0.930 . S
H34 C14 0.929 . S
H35 C16 0.930 . S
H36 C18 0.932 . S
H37 C19 0.929 . S
H38 C20 0.928 . S
H39 C22 0.932 . S
C40 C41 1.264 . S
C40 C45 1.479 . S
C40 C50 1.465 . S
C41 C40 1.264 . S
C41 C43 1.339 . S
C41 H68 0.931 . S
C42 C43 1.395 . S
C42 C44 1.320 . S
C43 C41 1.339 . S
C43 C42 1.395 . S
C43 H69 0.929 . S
C44 C42 1.320 . S
C44 C45 1.405 . S
C44 H70 0.930 . S
C45 C40 1.479 . S
C45 C44 1.405 . S
C45 H71 0.931 . S
U46 O47 2.454 . S
U46 O48 2.458 . S
U46 C49 2.984 . S
U46 C50 2.847 . S
U46 C63 2.882 . S
U46 O64 2.441 . S
U46 O65 2.420 . S
U46 O66 2.455 . S
U46 O67 2.449 . S
O47 U46 2.454 . S
O47 C49 1.353 . S
O48 U46 2.458 . S
O48 C49 1.286 . S
C49 U46 2.984 . S
C49 O47 1.353 . S
C49 O48 1.286 . S
C49 C51 1.363 . S
C50 C40 1.465 . S
C50 U46 2.847 . S
C50 O64 1.249 . S
C50 O65 1.202 . S
C51 C49 1.363 . S
C51 C53 1.408 . S
C51 C56 1.342 . S
C52 C53 1.310 . S
C52 C55 1.461 . S
C52 H72 0.932 . S
C53 C51 1.408 . S
C53 C52 1.310 . S
C53 H73 0.930 . S
C54 C55 1.474 . S
C54 C56 1.285 . S
C54 H74 0.929 . S
C55 C52 1.461 . S
C55 C54 1.474 . S
C56 C51 1.342 . S
C56 C54 1.285 . S
C56 H75 0.930 . S
C57 C60 1.424 . S
C57 C62 1.245 . S
C57 C63 1.428 . S
C58 C61 1.260 . S
C58 C62 1.477 . S
C58 H76 0.932 . S
C59 C60 1.384 . S
C59 C61 1.479 . S
C59 H77 0.929 . S
C60 C57 1.424 . S
C60 C59 1.384 . S
C60 H78 0.928 . S
C61 C58 1.260 . S
C61 C59 1.479 . S
C62 C57 1.245 . S
C62 C58 1.477 . S
C62 H79 0.932 . S
C63 U46 2.882 . S
C63 C57 1.428 . S
C63 O66 1.301 . S
C63 O67 1.282 . S
O64 U46 2.441 . S
O64 C50 1.249 . S
O65 U46 2.420 . S
O65 C50 1.202 . S
O66 U46 2.455 . S
O66 C63 1.301 . S
O67 U46 2.449 . S
O67 C63 1.282 . S
H68 C41 0.931 . S
H69 C43 0.929 . S
H70 C44 0.930 . S
H71 C45 0.931 . S
H72 C52 0.932 . S
H73 C53 0.930 . S
H74 C54 0.929 . S
H75 C56 0.930 . S
H76 C58 0.932 . S
H77 C59 0.929 . S
H78 C60 0.928 . S
H79 C62 0.932 . S
C80 C81 1.264 . S
C80 C85 1.479 . S
C80 C90 1.465 . S
C81 C80 1.264 . S
C81 C83 1.339 . S
C81 H108 0.931 . S
C82 C83 1.395 . S
C82 C84 1.320 . S
C83 C81 1.339 . S
C83 C82 1.395 . S
C83 H109 0.929 . S
C84 C82 1.320 . S
C84 C85 1.405 . S
C84 H110 0.930 . S
C85 C80 1.479 . S
C85 C84 1.405 . S
C85 H111 0.931 . S
U86 O87 2.454 . S
U86 O88 2.458 . S
U86 C89 2.984 . S
U86 C90 2.847 . S
U86 C103 2.882 . S
U86 O104 2.441 . S
U86 O105 2.420 . S
U86 O106 2.455 . S
U86 O107 2.449 . S
O87 U86 2.454 . S
O87 C89 1.353 . S
O88 U86 2.458 . S
O88 C89 1.286 . S
C89 U86 2.984 . S
C89 O87 1.353 . S
C89 O88 1.286 . S
C89 C91 1.363 . S
C90 C80 1.465 . S
C90 U86 2.847 . S
C90 O104 1.249 . S
C90 O105 1.202 . S
C91 C89 1.363 . S
C91 C93 1.408 . S
C91 C96 1.342 . S
C92 C93 1.310 . S
C92 C95 1.461 . S
C92 H112 0.932 . S
C93 C91 1.408 . S
C93 C92 1.310 . S
C93 H113 0.930 . S
C94 C95 1.474 . S
C94 C96 1.285 . S
C94 H114 0.929 . S
C95 C92 1.461 . S
C95 C94 1.474 . S
C96 C91 1.342 . S
C96 C94 1.285 . S
C96 H115 0.930 . S
C97 C100 1.424 . S
C97 C102 1.245 . S
C97 C103 1.428 . S
C98 C101 1.260 . S
C98 C102 1.477 . S
C98 H116 0.932 . S
C99 C100 1.384 . S
C99 C101 1.479 . S
C99 H117 0.929 . S
C100 C97 1.424 . S
C100 C99 1.384 . S
C100 H118 0.928 . S
C101 C98 1.260 . S
C101 C99 1.479 . S
C102 C97 1.245 . S
C102 C98 1.477 . S
C102 H119 0.932 . S
C103 U86 2.882 . S
C103 C97 1.428 . S
C103 O106 1.301 . S
C103 O107 1.282 . S
O104 U86 2.441 . S
O104 C90 1.249 . S
O105 U86 2.420 . S
O105 C90 1.202 . S
O106 U86 2.455 . S
O106 C103 1.301 . S
O107 U86 2.449 . S
O107 C103 1.282 . S
H108 C81 0.931 . S
H109 C83 0.929 . S
H110 C84 0.930 . S
H111 C85 0.931 . S
H112 C92 0.932 . S
H113 C93 0.930 . S
H114 C94 0.929 . S
H115 C96 0.930 . S
H116 C98 0.932 . S
H117 C99 0.929 . S
H118 C100 0.928 . S
H119 C102 0.932 . S
C120 C121 1.264 . S
C120 C125 1.479 . S
C120 C130 1.465 . S
C121 C120 1.264 . S
C121 C123 1.339 . S
C121 H148 0.931 . S
C122 C123 1.395 . S
C122 C124 1.320 . S
C123 C121 1.339 . S
C123 C122 1.395 . S
C123 H149 0.929 . S
C124 C122 1.320 . S
C124 C125 1.405 . S
C124 H150 0.930 . S
C125 C120 1.479 . S
C125 C124 1.405 . S
C125 H151 0.931 . S
U126 O127 2.454 . S
U126 O128 2.458 . S
U126 C129 2.984 . S
U126 C130 2.847 . S
U126 C143 2.882 . S
U126 O144 2.441 . S
U126 O145 2.420 . S
U126 O146 2.455 . S
U126 O147 2.449 . S
O127 U126 2.454 . S
O127 C129 1.353 . S
O128 U126 2.458 . S
O128 C129 1.286 . S
C129 U126 2.984 . S
C129 O127 1.353 . S
C129 O128 1.286 . S
C129 C131 1.363 . S
C130 C120 1.465 . S
C130 U126 2.847 . S
C130 O144 1.249 . S
C130 O145 1.202 . S
C131 C129 1.363 . S
C131 C133 1.408 . S
C131 C136 1.342 . S
C132 C133 1.310 . S
C132 C135 1.461 . S
C132 H152 0.932 . S
C133 C131 1.408 . S
C133 C132 1.310 . S
C133 H153 0.930 . S
C134 C135 1.474 . S
C134 C136 1.285 . S
C134 H154 0.929 . S
C135 C132 1.461 . S
C135 C134 1.474 . S
C136 C131 1.342 . S
C136 C134 1.285 . S
C136 H155 0.930 . S
C137 C140 1.424 . S
C137 C142 1.245 . S
C137 C143 1.428 . S
C138 C141 1.260 . S
C138 C142 1.477 . S
C138 H156 0.932 . S
C139 C140 1.384 . S
C139 C141 1.479 . S
C139 H157 0.929 . S
C140 C137 1.424 . S
C140 C139 1.384 . S
C140 H158 0.928 . S
C141 C138 1.260 . S
C141 C139 1.479 . S
C142 C137 1.245 . S
C142 C138 1.477 . S
C142 H159 0.932 . S
C143 U126 2.882 . S
C143 C137 1.428 . S
C143 O146 1.301 . S
C143 O147 1.282 . S
O144 U126 2.441 . S
O144 C130 1.249 . S
O145 U126 2.420 . S
O145 C130 1.202 . S
O146 U126 2.455 . S
O146 C143 1.301 . S
O147 U126 2.449 . S
O147 C143 1.282 . S
H148 C121 0.931 . S
H149 C123 0.929 . S
H150 C124 0.930 . S
H151 C125 0.931 . S
H152 C132 0.932 . S
H153 C133 0.930 . S
H154 C134 0.929 . S
H155 C136 0.930 . S
H156 C138 0.932 . S
H157 C139 0.929 . S
H158 C140 0.928 . S
H159 C142 0.932 . S
C160 C161 1.264 . S
C160 C165 1.479 . S
C160 C170 1.465 . S
C161 C160 1.264 . S
C161 C163 1.339 . S
C161 H188 0.931 . S
C162 C163 1.395 . S
C162 C164 1.320 . S
C163 C161 1.339 . S
C163 C162 1.395 . S
C163 H189 0.929 . S
C164 C162 1.320 . S
C164 C165 1.405 . S
C164 H190 0.930 . S
C165 C160 1.479 . S
C165 C164 1.405 . S
C165 H191 0.931 . S
U166 O167 2.454 . S
U166 O168 2.458 . S
U166 C169 2.984 . S
U166 C170 2.847 . S
U166 C183 2.882 . S
U166 O184 2.441 . S
U166 O185 2.420 . S
U166 O186 2.455 . S
U166 O187 2.449 . S
O167 U166 2.454 . S
O167 C169 1.353 . S
O168 U166 2.458 . S
O168 C169 1.286 . S
C169 U166 2.984 . S
C169 O167 1.353 . S
C169 O168 1.286 . S
C169 C171 1.363 . S
C170 C160 1.465 . S
C170 U166 2.847 . S
C170 O184 1.249 . S
C170 O185 1.202 . S
C171 C169 1.363 . S
C171 C173 1.408 . S
C171 C176 1.342 . S
C172 C173 1.310 . S
C172 C175 1.461 . S
C172 H192 0.932 . S
C173 C171 1.408 . S
C173 C172 1.310 . S
C173 H193 0.930 . S
C174 C175 1.474 . S
C174 C176 1.285 . S
C174 H194 0.929 . S
C175 C172 1.461 . S
C175 C174 1.474 . S
C176 C171 1.342 . S
C176 C174 1.285 . S
C176 H195 0.930 . S
C177 C180 1.424 . S
C177 C182 1.245 . S
C177 C183 1.428 . S
C178 C181 1.260 . S
C178 C182 1.477 . S
C178 H196 0.932 . S
C179 C180 1.384 . S
C179 C181 1.479 . S
C179 H197 0.929 . S
C180 C177 1.424 . S
C180 C179 1.384 . S
C180 H198 0.928 . S
C181 C178 1.260 . S
C181 C179 1.479 . S
C182 C177 1.245 . S
C182 C178 1.477 . S
C182 H199 0.932 . S
C183 U166 2.882 . S
C183 C177 1.428 . S
C183 O186 1.301 . S
C183 O187 1.282 . S
O184 U166 2.441 . S
O184 C170 1.249 . S
O185 U166 2.420 . S
O185 C170 1.202 . S
O186 U166 2.455 . S
O186 C183 1.301 . S
O187 U166 2.449 . S
O187 C183 1.282 . S
H188 C161 0.931 . S
H189 C163 0.929 . S
H190 C164 0.930 . S
H191 C165 0.931 . S
H192 C172 0.932 . S
H193 C173 0.930 . S
H194 C174 0.929 . S
H195 C176 0.930 . S
H196 C178 0.932 . S
H197 C179 0.929 . S
H198 C180 0.928 . S
H199 C182 0.932 . S
C200 C201 1.264 . S
C200 C205 1.479 . S
C200 C210 1.465 . S
C201 C200 1.264 . S
C201 C203 1.339 . S
C201 H228 0.931 . S
C202 C203 1.395 . S
C202 C204 1.320 . S
C203 C201 1.339 . S
C203 C202 1.395 . S
C203 H229 0.929 . S
C204 C202 1.320 . S
C204 C205 1.405 . S
C204 H230 0.930 . S
C205 C200 1.479 . S
C205 C204 1.405 . S
C205 H231 0.931 . S
U206 O207 2.454 . S
U206 O208 2.458 . S
U206 C209 2.984 . S
U206 C210 2.847 . S
U206 C223 2.882 . S
U206 O224 2.441 . S
U206 O225 2.420 . S
U206 O226 2.455 . S
U206 O227 2.449 . S
O207 U206 2.454 . S
O207 C209 1.353 . S
O208 U206 2.458 . S
O208 C209 1.286 . S
C209 U206 2.984 . S
C209 O207 1.353 . S
C209 O208 1.286 . S
C209 C211 1.363 . S
C210 C200 1.465 . S
C210 U206 2.847 . S
C210 O224 1.249 . S
C210 O225 1.202 . S
C211 C209 1.363 . S
C211 C213 1.408 . S
C211 C216 1.342 . S
C212 C213 1.310 . S
C212 C215 1.461 . S
C212 H232 0.932 . S
C213 C211 1.408 . S
C213 C212 1.310 . S
C213 H233 0.930 . S
C214 C215 1.474 . S
C214 C216 1.285 . S
C214 H234 0.929 . S
C215 C212 1.461 . S
C215 C214 1.474 . S
C216 C211 1.342 . S
C216 C214 1.285 . S
C216 H235 0.930 . S
C217 C220 1.424 . S
C217 C222 1.245 . S
C217 C223 1.428 . S
C218 C221 1.260 . S
C218 C222 1.477 . S
C218 H236 0.932 . S
C219 C220 1.384 . S
C219 C221 1.479 . S
C219 H237 0.929 . S
C220 C217 1.424 . S
C220 C219 1.384 . S
C220 H238 0.928 . S
C221 C218 1.260 . S
C221 C219 1.479 . S
C222 C217 1.245 . S
C222 C218 1.477 . S
C222 H239 0.932 . S
C223 U206 2.882 . S
C223 C217 1.428 . S
C223 O226 1.301 . S
C223 O227 1.282 . S
O224 U206 2.441 . S
O224 C210 1.249 . S
O225 U206 2.420 . S
O225 C210 1.202 . S
O226 U206 2.455 . S
O226 C223 1.301 . S
O227 U206 2.449 . S
O227 C223 1.282 . S
H228 C201 0.931 . S
H229 C203 0.929 . S
H230 C204 0.930 . S
H231 C205 0.931 . S
H232 C212 0.932 . S
H233 C213 0.930 . S
H234 C214 0.929 . S
H235 C216 0.930 . S
H236 C218 0.932 . S
H237 C219 0.929 . S
H238 C220 0.928 . S
H239 C222 0.932 . S
C240 C241 1.264 . S
C240 C245 1.479 . S
C240 C250 1.465 . S
C241 C240 1.264 . S
C241 C243 1.339 . S
C241 H268 0.931 . S
C242 C243 1.395 . S
C242 C244 1.320 . S
C243 C241 1.339 . S
C243 C242 1.395 . S
C243 H269 0.929 . S
C244 C242 1.320 . S
C244 C245 1.405 . S
C244 H270 0.930 . S
C245 C240 1.479 . S
C245 C244 1.405 . S
C245 H271 0.931 . S
U246 O247 2.454 . S
U246 O248 2.458 . S
U246 C249 2.984 . S
U246 C250 2.847 . S
U246 C263 2.882 . S
U246 O264 2.441 . S
U246 O265 2.420 . S
U246 O266 2.455 . S
U246 O267 2.449 . S
O247 U246 2.454 . S
O247 C249 1.353 . S
O248 U246 2.458 . S
O248 C249 1.286 . S
C249 U246 2.984 . S
C249 O247 1.353 . S
C249 O248 1.286 . S
C249 C251 1.363 . S
C250 C240 1.465 . S
C250 U246 2.847 . S
C250 O264 1.249 . S
C250 O265 1.202 . S
C251 C249 1.363 . S
C251 C253 1.408 . S
C251 C256 1.342 . S
C252 C253 1.310 . S
C252 C255 1.461 . S
C252 H272 0.932 . S
C253 C251 1.408 . S
C253 C252 1.310 . S
C253 H273 0.930 . S
C254 C255 1.474 . S
C254 C256 1.285 . S
C254 H274 0.929 . S
C255 C252 1.461 . S
C255 C254 1.474 . S
C256 C251 1.342 . S
C256 C254 1.285 . S
C256 H275 0.930 . S
C257 C260 1.424 . S
C257 C262 1.245 . S
C257 C263 1.428 . S
C258 C261 1.260 . S
C258 C262 1.477 . S
C258 H276 0.932 . S
C259 C260 1.384 . S
C259 C261 1.479 . S
C259 H277 0.929 . S
C260 C257 1.424 . S
C260 C259 1.384 . S
C260 H278 0.928 . S
C261 C258 1.260 . S
C261 C259 1.479 . S
C262 C257 1.245 . S
C262 C258 1.477 . S
C262 H279 0.932 . S
C263 U246 2.882 . S
C263 C257 1.428 . S
C263 O266 1.301 . S
C263 O267 1.282 . S
O264 U246 2.441 . S
O264 C250 1.249 . S
O265 U246 2.420 . S
O265 C250 1.202 . S
O266 U246 2.455 . S
O266 C263 1.301 . S
O267 U246 2.449 . S
O267 C263 1.282 . S
H268 C241 0.931 . S
H269 C243 0.929 . S
H270 C244 0.930 . S
H271 C245 0.931 . S
H272 C252 0.932 . S
H273 C253 0.930 . S
H274 C254 0.929 . S
H275 C256 0.930 . S
H276 C258 0.932 . S
H277 C259 0.929 . S
H278 C260 0.928 . S
H279 C262 0.932 . S
C280 C281 1.264 . S
C280 C285 1.479 . S
C280 C290 1.465 . S
C281 C280 1.264 . S
C281 C283 1.339 . S
C281 H308 0.931 . S
C282 C283 1.395 . S
C282 C284 1.320 . S
C283 C281 1.339 . S
C283 C282 1.395 . S
C283 H309 0.929 . S
C284 C282 1.320 . S
C284 C285 1.405 . S
C284 H310 0.930 . S
C285 C280 1.479 . S
C285 C284 1.405 . S
C285 H311 0.931 . S
U286 O287 2.454 . S
U286 O288 2.458 . S
U286 C289 2.984 . S
U286 C290 2.847 . S
U286 C303 2.882 . S
U286 O304 2.441 . S
U286 O305 2.420 . S
U286 O306 2.455 . S
U286 O307 2.449 . S
O287 U286 2.454 . S
O287 C289 1.353 . S
O288 U286 2.458 . S
O288 C289 1.286 . S
C289 U286 2.984 . S
C289 O287 1.353 . S
C289 O288 1.286 . S
C289 C291 1.363 . S
C290 C280 1.465 . S
C290 U286 2.847 . S
C290 O304 1.249 . S
C290 O305 1.202 . S
C291 C289 1.363 . S
C291 C293 1.408 . S
C291 C296 1.342 . S
C292 C293 1.310 . S
C292 C295 1.461 . S
C292 H312 0.932 . S
C293 C291 1.408 . S
C293 C292 1.310 . S
C293 H313 0.930 . S
C294 C295 1.474 . S
C294 C296 1.285 . S
C294 H314 0.929 . S
C295 C292 1.461 . S
C295 C294 1.474 . S
C296 C291 1.342 . S
C296 C294 1.285 . S
C296 H315 0.930 . S
C297 C300 1.424 . S
C297 C302 1.245 . S
C297 C303 1.428 . S
C298 C301 1.260 . S
C298 C302 1.477 . S
C298 H316 0.932 . S
C299 C300 1.384 . S
C299 C301 1.479 . S
C299 H317 0.929 . S
C300 C297 1.424 . S
C300 C299 1.384 . S
C300 H318 0.928 . S
C301 C298 1.260 . S
C301 C299 1.479 . S
C302 C297 1.245 . S
C302 C298 1.477 . S
C302 H319 0.932 . S
C303 U286 2.882 . S
C303 C297 1.428 . S
C303 O306 1.301 . S
C303 O307 1.282 . S
O304 U286 2.441 . S
O304 C290 1.249 . S
O305 U286 2.420 . S
O305 C290 1.202 . S
O306 U286 2.455 . S
O306 C303 1.301 . S
O307 U286 2.449 . S
O307 C303 1.282 . S
H308 C281 0.931 . S
H309 C283 0.929 . S
H310 C284 0.930 . S
H311 C285 0.931 . S
H312 C292 0.932 . S
H313 C293 0.930 . S
H314 C294 0.929 . S
H315 C296 0.930 . S
H316 C298 0.932 . S
H317 C299 0.929 . S
H318 C300 0.928 . S
H319 C302 0.932 . S
C320 C321 1.264 . S
C320 C325 1.479 . S
C320 C330 1.465 . S
C321 C320 1.264 . S
C321 C323 1.339 . S
C321 H348 0.931 . S
C322 C323 1.395 . S
C322 C324 1.320 . S
C323 C321 1.339 . S
C323 C322 1.395 . S
C323 H349 0.929 . S
C324 C322 1.320 . S
C324 C325 1.405 . S
C324 H350 0.930 . S
C325 C320 1.479 . S
C325 C324 1.405 . S
C325 H351 0.931 . S
U326 O327 2.454 . S
U326 O328 2.458 . S
U326 C329 2.984 . S
U326 C330 2.847 . S
U326 C343 2.882 . S
U326 O344 2.441 . S
U326 O345 2.420 . S
U326 O346 2.455 . S
U326 O347 2.449 . S
O327 U326 2.454 . S
O327 C329 1.353 . S
O328 U326 2.458 . S
O328 C329 1.286 . S
C329 U326 2.984 . S
C329 O327 1.353 . S
C329 O328 1.286 . S
C329 C331 1.363 . S
C330 C320 1.465 . S
C330 U326 2.847 . S
C330 O344 1.249 . S
C330 O345 1.202 . S
C331 C329 1.363 . S
C331 C333 1.408 . S
C331 C336 1.342 . S
C332 C333 1.310 . S
C332 C335 1.461 . S
C332 H352 0.932 . S
C333 C331 1.408 . S
C333 C332 1.310 . S
C333 H353 0.930 . S
C334 C335 1.474 . S
C334 C336 1.285 . S
C334 H354 0.929 . S
C335 C332 1.461 . S
C335 C334 1.474 . S
C336 C331 1.342 . S
C336 C334 1.285 . S
C336 H355 0.930 . S
C337 C340 1.424 . S
C337 C342 1.245 . S
C337 C343 1.428 . S
C338 C341 1.260 . S
C338 C342 1.477 . S
C338 H356 0.932 . S
C339 C340 1.384 . S
C339 C341 1.479 . S
C339 H357 0.929 . S
C340 C337 1.424 . S
C340 C339 1.384 . S
C340 H358 0.928 . S
C341 C338 1.260 . S
C341 C339 1.479 . S
C342 C337 1.245 . S
C342 C338 1.477 . S
C342 H359 0.932 . S
C343 U326 2.882 . S
C343 C337 1.428 . S
C343 O346 1.301 . S
C343 O347 1.282 . S
O344 U326 2.441 . S
O344 C330 1.249 . S
O345 U326 2.420 . S
O345 C330 1.202 . S
O346 U326 2.455 . S
O346 C343 1.301 . S
O347 U326 2.449 . S
O347 C343 1.282 . S
H348 C321 0.931 . S
H349 C323 0.929 . S
H350 C324 0.930 . S
H351 C325 0.931 . S
H352 C332 0.932 . S
H353 C333 0.930 . S
H354 C334 0.929 . S
H355 C336 0.930 . S
H356 C338 0.932 . S
H357 C339 0.929 . S
H358 C340 0.928 . S
H359 C342 0.932 . S
C360 C361 1.264 . S
C360 C365 1.479 . S
C360 C370 1.465 . S
C361 C360 1.264 . S
C361 C363 1.339 . S
C361 H388 0.931 . S
C362 C363 1.395 . S
C362 C364 1.320 . S
C363 C361 1.339 . S
C363 C362 1.395 . S
C363 H389 0.929 . S
C364 C362 1.320 . S
C364 C365 1.405 . S
C364 H390 0.930 . S
C365 C360 1.479 . S
C365 C364 1.405 . S
C365 H391 0.931 . S
U366 O367 2.454 . S
U366 O368 2.458 . S
U366 C369 2.984 . S
U366 C370 2.847 . S
U366 C383 2.882 . S
U366 O384 2.441 . S
U366 O385 2.420 . S
U366 O386 2.455 . S
U366 O387 2.449 . S
O367 U366 2.454 . S
O367 C369 1.353 . S
O368 U366 2.458 . S
O368 C369 1.286 . S
C369 U366 2.984 . S
C369 O367 1.353 . S
C369 O368 1.286 . S
C369 C371 1.363 . S
C370 C360 1.465 . S
C370 U366 2.847 . S
C370 O384 1.249 . S
C370 O385 1.202 . S
C371 C369 1.363 . S
C371 C373 1.408 . S
C371 C376 1.342 . S
C372 C373 1.310 . S
C372 C375 1.461 . S
C372 H392 0.932 . S
C373 C371 1.408 . S
C373 C372 1.310 . S
C373 H393 0.930 . S
C374 C375 1.474 . S
C374 C376 1.285 . S
C374 H394 0.929 . S
C375 C372 1.461 . S
C375 C374 1.474 . S
C376 C371 1.342 . S
C376 C374 1.285 . S
C376 H395 0.930 . S
C377 C380 1.424 . S
C377 C382 1.245 . S
C377 C383 1.428 . S
C378 C381 1.260 . S
C378 C382 1.477 . S
C378 H396 0.932 . S
C379 C380 1.384 . S
C379 C381 1.479 . S
C379 H397 0.929 . S
C380 C377 1.424 . S
C380 C379 1.384 . S
C380 H398 0.928 . S
C381 C378 1.260 . S
C381 C379 1.479 . S
C382 C377 1.245 . S
C382 C378 1.477 . S
C382 H399 0.932 . S
C383 U366 2.882 . S
C383 C377 1.428 . S
C383 O386 1.301 . S
C383 O387 1.282 . S
O384 U366 2.441 . S
O384 C370 1.249 . S
O385 U366 2.420 . S
O385 C370 1.202 . S
O386 U366 2.455 . S
O386 C383 1.301 . S
O387 U366 2.449 . S
O387 C383 1.282 . S
H388 C361 0.931 . S
H389 C363 0.929 . S
H390 C364 0.930 . S
H391 C365 0.931 . S
H392 C372 0.932 . S
H393 C373 0.930 . S
H394 C374 0.929 . S
H395 C376 0.930 . S
H396 C378 0.932 . S
H397 C379 0.929 . S
H398 C380 0.928 . S
H399 C382 0.932 . S
C400 C401 1.264 . S
C400 C405 1.479 . S
C400 C410 1.465 . S
C401 C400 1.264 . S
C401 C403 1.339 . S
C401 H428 0.931 . S
C402 C403 1.395 . S
C402 C404 1.320 . S
C403 C401 1.339 . S
C403 C402 1.395 . S
C403 H429 0.929 . S
C404 C402 1.320 . S
C404 C405 1.405 . S
C404 H430 0.930 . S
C405 C400 1.479 . S
C405 C404 1.405 . S
C405 H431 0.931 . S
U406 O407 2.454 . S
U406 O408 2.458 . S
U406 C409 2.984 . S
U406 C410 2.847 . S
U406 C423 2.882 . S
U406 O424 2.441 . S
U406 O425 2.420 . S
U406 O426 2.455 . S
U406 O427 2.449 . S
O407 U406 2.454 . S
O407 C409 1.353 . S
O408 U406 2.458 . S
O408 C409 1.286 . S
C409 U406 2.984 . S
C409 O407 1.353 . S
C409 O408 1.286 . S
C409 C411 1.363 . S
C410 C400 1.465 . S
C410 U406 2.847 . S
C410 O424 1.249 . S
C410 O425 1.202 . S
C411 C409 1.363 . S
C411 C413 1.408 . S
C411 C416 1.342 . S
C412 C413 1.310 . S
C412 C415 1.461 . S
C412 H432 0.932 . S
C413 C411 1.408 . S
C413 C412 1.310 . S
C413 H433 0.930 . S
C414 C415 1.474 . S
C414 C416 1.285 . S
C414 H434 0.929 . S
C415 C412 1.461 . S
C415 C414 1.474 . S
C416 C411 1.342 . S
C416 C414 1.285 . S
C416 H435 0.930 . S
C417 C420 1.424 . S
C417 C422 1.245 . S
C417 C423 1.428 . S
C418 C421 1.260 . S
C418 C422 1.477 . S
C418 H436 0.932 . S
C419 C420 1.384 . S
C419 C421 1.479 . S
C419 H437 0.929 . S
C420 C417 1.424 . S
C420 C419 1.384 . S
C420 H438 0.928 . S
C421 C418 1.260 . S
C421 C419 1.479 . S
C422 C417 1.245 . S
C422 C418 1.477 . S
C422 H439 0.932 . S
C423 U406 2.882 . S
C423 C417 1.428 . S
C423 O426 1.301 . S
C423 O427 1.282 . S
O424 U406 2.441 . S
O424 C410 1.249 . S
O425 U406 2.420 . S
O425 C410 1.202 . S
O426 U406 2.455 . S
O426 C423 1.301 . S
O427 U406 2.449 . S
O427 C423 1.282 . S
H428 C401 0.931 . S
H429 C403 0.929 . S
H430 C404 0.930 . S
H431 C405 0.931 . S
H432 C412 0.932 . S
H433 C413 0.930 . S
H434 C414 0.929 . S
H435 C416 0.930 . S
H436 C418 0.932 . S
H437 C419 0.929 . S
H438 C420 0.928 . S
H439 C422 0.932 . S
C440 C441 1.264 . S
C440 C445 1.479 . S
C440 C450 1.465 . S
C441 C440 1.264 . S
C441 C443 1.339 . S
C441 H468 0.931 . S
C442 C443 1.395 . S
C442 C444 1.320 . S
C443 C441 1.339 . S
C443 C442 1.395 . S
C443 H469 0.929 . S
C444 C442 1.320 . S
C444 C445 1.405 . S
C444 H470 0.930 . S
C445 C440 1.479 . S
C445 C444 1.405 . S
C445 H471 0.931 . S
U446 O447 2.454 . S
U446 O448 2.458 . S
U446 C449 2.984 . S
U446 C450 2.847 . S
U446 C463 2.882 . S
U446 O464 2.441 . S
U446 O465 2.420 . S
U446 O466 2.455 . S
U446 O467 2.449 . S
O447 U446 2.454 . S
O447 C449 1.353 . S
O448 U446 2.458 . S
O448 C449 1.286 . S
C449 U446 2.984 . S
C449 O447 1.353 . S
C449 O448 1.286 . S
C449 C451 1.363 . S
C450 C440 1.465 . S
C450 U446 2.847 . S
C450 O464 1.249 . S
C450 O465 1.202 . S
C451 C449 1.363 . S
C451 C453 1.408 . S
C451 C456 1.342 . S
C452 C453 1.310 . S
C452 C455 1.461 . S
C452 H472 0.932 . S
C453 C451 1.408 . S
C453 C452 1.310 . S
C453 H473 0.930 . S
C454 C455 1.474 . S
C454 C456 1.285 . S
C454 H474 0.929 . S
C455 C452 1.461 . S
C455 C454 1.474 . S
C456 C451 1.342 . S
C456 C454 1.285 . S
C456 H475 0.930 . S
C457 C460 1.424 . S
C457 C462 1.245 . S
C457 C463 1.428 . S
C458 C461 1.260 . S
C458 C462 1.477 . S
C458 H476 0.932 . S
C459 C460 1.384 . S
C459 C461 1.479 . S
C459 H477 0.929 . S
C460 C457 1.424 . S
C460 C459 1.384 . S
C460 H478 0.928 . S
C461 C458 1.260 . S
C461 C459 1.479 . S
C462 C457 1.245 . S
C462 C458 1.477 . S
C462 H479 0.932 . S
C463 U446 2.882 . S
C463 C457 1.428 . S
C463 O466 1.301 . S
C463 O467 1.282 . S
O464 U446 2.441 . S
O464 C450 1.249 . S
O465 U446 2.420 . S
O465 C450 1.202 . S
O466 U446 2.455 . S
O466 C463 1.301 . S
O467 U446 2.449 . S
O467 C463 1.282 . S
H468 C441 0.931 . S
H469 C443 0.929 . S
H470 C444 0.930 . S
H471 C445 0.931 . S
H472 C452 0.932 . S
H473 C453 0.930 . S
H474 C454 0.929 . S
H475 C456 0.930 . S
H476 C458 0.932 . S
H477 C459 0.929 . S
H478 C460 0.928 . S
H479 C462 0.932 . S
C480 C481 1.264 . S
C480 C485 1.479 . S
C480 C490 1.465 . S
C481 C480 1.264 . S
C481 C483 1.339 . S
C481 H508 0.931 . S
C482 C483 1.395 . S
C482 C484 1.320 . S
C483 C481 1.339 . S
C483 C482 1.395 . S
C483 H509 0.929 . S
C484 C482 1.320 . S
C484 C485 1.405 . S
C484 H510 0.930 . S
C485 C480 1.479 . S
C485 C484 1.405 . S
C485 H511 0.931 . S
U486 O487 2.454 . S
U486 O488 2.458 . S
U486 C489 2.984 . S
U486 C490 2.847 . S
U486 C503 2.882 . S
U486 O504 2.441 . S
U486 O505 2.420 . S
U486 O506 2.455 . S
U486 O507 2.449 . S
O487 U486 2.454 . S
O487 C489 1.353 . S
O488 U486 2.458 . S
O488 C489 1.286 . S
C489 U486 2.984 . S
C489 O487 1.353 . S
C489 O488 1.286 . S
C489 C491 1.363 . S
C490 C480 1.465 . S
C490 U486 2.847 . S
C490 O504 1.249 . S
C490 O505 1.202 . S
C491 C489 1.363 . S
C491 C493 1.408 . S
C491 C496 1.342 . S
C492 C493 1.310 . S
C492 C495 1.461 . S
C492 H512 0.932 . S
C493 C491 1.408 . S
C493 C492 1.310 . S
C493 H513 0.930 . S
C494 C495 1.474 . S
C494 C496 1.285 . S
C494 H514 0.929 . S
C495 C492 1.461 . S
C495 C494 1.474 . S
C496 C491 1.342 . S
C496 C494 1.285 . S
C496 H515 0.930 . S
C497 C500 1.424 . S
C497 C502 1.245 . S
C497 C503 1.428 . S
C498 C501 1.260 . S
C498 C502 1.477 . S
C498 H516 0.932 . S
C499 C500 1.384 . S
C499 C501 1.479 . S
C499 H517 0.929 . S
C500 C497 1.424 . S
C500 C499 1.384 . S
C500 H518 0.928 . S
C501 C498 1.260 . S
C501 C499 1.479 . S
C502 C497 1.245 . S
C502 C498 1.477 . S
C502 H519 0.932 . S
C503 U486 2.882 . S
C503 C497 1.428 . S
C503 O506 1.301 . S
C503 O507 1.282 . S
O504 U486 2.441 . S
O504 C490 1.249 . S
O505 U486 2.420 . S
O505 C490 1.202 . S
O506 U486 2.455 . S
O506 C503 1.301 . S
O507 U486 2.449 . S
O507 C503 1.282 . S
H508 C481 0.931 . S
H509 C483 0.929 . S
H510 C484 0.930 . S
H511 C485 0.931 . S
H512 C492 0.932 . S
H513 C493 0.930 . S
H514 C494 0.929 . S
H515 C496 0.930 . S
H516 C498 0.932 . S
H517 C499 0.929 . S
H518 C500 0.928 . S
H519 C502 0.932 . S
C520 C521 1.264 . S
C520 C525 1.479 . S
C520 C530 1.465 . S
C521 C520 1.264 . S
C521 C523 1.339 . S
C521 H548 0.931 . S
C522 C523 1.395 . S
C522 C524 1.320 . S
C523 C521 1.339 . S
C523 C522 1.395 . S
C523 H549 0.929 . S
C524 C522 1.320 . S
C524 C525 1.405 . S
C524 H550 0.930 . S
C525 C520 1.479 . S
C525 C524 1.405 . S
C525 H551 0.931 . S
U526 O527 2.454 . S
U526 O528 2.458 . S
U526 C529 2.984 . S
U526 C530 2.847 . S
U526 C543 2.882 . S
U526 O544 2.441 . S
U526 O545 2.420 . S
U526 O546 2.455 . S
U526 O547 2.449 . S
O527 U526 2.454 . S
O527 C529 1.353 . S
O528 U526 2.458 . S
O528 C529 1.286 . S
C529 U526 2.984 . S
C529 O527 1.353 . S
C529 O528 1.286 . S
C529 C531 1.363 . S
C530 C520 1.465 . S
C530 U526 2.847 . S
C530 O544 1.249 . S
C530 O545 1.202 . S
C531 C529 1.363 . S
C531 C533 1.408 . S
C531 C536 1.342 . S
C532 C533 1.310 . S
C532 C535 1.461 . S
C532 H552 0.932 . S
C533 C531 1.408 . S
C533 C532 1.310 . S
C533 H553 0.930 . S
C534 C535 1.474 . S
C534 C536 1.285 . S
C534 H554 0.929 . S
C535 C532 1.461 . S
C535 C534 1.474 . S
C536 C531 1.342 . S
C536 C534 1.285 . S
C536 H555 0.930 . S
C537 C540 1.424 . S
C537 C542 1.245 . S
C537 C543 1.428 . S
C538 C541 1.260 . S
C538 C542 1.477 . S
C538 H556 0.932 . S
C539 C540 1.384 . S
C539 C541 1.479 . S
C539 H557 0.929 . S
C540 C537 1.424 . S
C540 C539 1.384 . S
C540 H558 0.928 . S
C541 C538 1.260 . S
C541 C539 1.479 . S
C542 C537 1.245 . S
C542 C538 1.477 . S
C542 H559 0.932 . S
C543 U526 2.882 . S
C543 C537 1.428 . S
C543 O546 1.301 . S
C543 O547 1.282 . S
O544 U526 2.441 . S
O544 C530 1.249 . S
O545 U526 2.420 . S
O545 C530 1.202 . S
O546 U526 2.455 . S
O546 C543 1.301 . S
O547 U526 2.449 . S
O547 C543 1.282 . S
H548 C521 0.931 . S
H549 C523 0.929 . S
H550 C524 0.930 . S
H551 C525 0.931 . S
H552 C532 0.932 . S
H553 C533 0.930 . S
H554 C534 0.929 . S
H555 C536 0.930 . S
H556 C538 0.932 . S
H557 C539 0.929 . S
H558 C540 0.928 . S
H559 C542 0.932 . S
C560 C561 1.264 . S
C560 C565 1.479 . S
C560 C570 1.465 . S
C561 C560 1.264 . S
C561 C563 1.339 . S
C561 H588 0.931 . S
C562 C563 1.395 . S
C562 C564 1.320 . S
C563 C561 1.339 . S
C563 C562 1.395 . S
C563 H589 0.929 . S
C564 C562 1.320 . S
C564 C565 1.405 . S
C564 H590 0.930 . S
C565 C560 1.479 . S
C565 C564 1.405 . S
C565 H591 0.931 . S
U566 O567 2.454 . S
U566 O568 2.458 . S
U566 C569 2.984 . S
U566 C570 2.847 . S
U566 C583 2.882 . S
U566 O584 2.441 . S
U566 O585 2.420 . S
U566 O586 2.455 . S
U566 O587 2.449 . S
O567 U566 2.454 . S
O567 C569 1.353 . S
O568 U566 2.458 . S
O568 C569 1.286 . S
C569 U566 2.984 . S
C569 O567 1.353 . S
C569 O568 1.286 . S
C569 C571 1.363 . S
C570 C560 1.465 . S
C570 U566 2.847 . S
C570 O584 1.249 . S
C570 O585 1.202 . S
C571 C569 1.363 . S
C571 C573 1.408 . S
C571 C576 1.342 . S
C572 C573 1.310 . S
C572 C575 1.461 . S
C572 H592 0.932 . S
C573 C571 1.408 . S
C573 C572 1.310 . S
C573 H593 0.930 . S
C574 C575 1.474 . S
C574 C576 1.285 . S
C574 H594 0.929 . S
C575 C572 1.461 . S
C575 C574 1.474 . S
C576 C571 1.342 . S
C576 C574 1.285 . S
C576 H595 0.930 . S
C577 C580 1.424 . S
C577 C582 1.245 . S
C577 C583 1.428 . S
C578 C581 1.260 . S
C578 C582 1.477 . S
C578 H596 0.932 . S
C579 C580 1.384 . S
C579 C581 1.479 . S
C579 H597 0.929 . S
C580 C577 1.424 . S
C580 C579 1.384 . S
C580 H598 0.928 . S
C581 C578 1.260 . S
C581 C579 1.479 . S
C582 C577 1.245 . S
C582 C578 1.477 . S
C582 H599 0.932 . S
C583 U566 2.882 . S
C583 C577 1.428 . S
C583 O586 1.301 . S
C583 O587 1.282 . S
O584 U566 2.441 . S
O584 C570 1.249 . S
O585 U566 2.420 . S
O585 C570 1.202 . S
O586 U566 2.455 . S
O586 C583 1.301 . S
O587 U566 2.449 . S
O587 C583 1.282 . S
H588 C561 0.931 . S
H589 C563 0.929 . S
H590 C564 0.930 . S
H591 C565 0.931 . S
H592 C572 0.932 . S
H593 C573 0.930 . S
H594 C574 0.929 . S
H595 C576 0.930 . S
H596 C578 0.932 . S
H597 C579 0.929 . S
H598 C580 0.928 . S
H599 C582 0.932 . S
C600 C601 1.264 . S
C600 C605 1.479 . S
C600 C610 1.465 . S
C601 C600 1.264 . S
C601 C603 1.339 . S
C601 H628 0.931 . S
C602 C603 1.395 . S
C602 C604 1.320 . S
C603 C601 1.339 . S
C603 C602 1.395 . S
C603 H629 0.929 . S
C604 C602 1.320 . S
C604 C605 1.405 . S
C604 H630 0.930 . S
C605 C600 1.479 . S
C605 C604 1.405 . S
C605 H631 0.931 . S
U606 O607 2.454 . S
U606 O608 2.458 . S
U606 C609 2.984 . S
U606 C610 2.847 . S
U606 C623 2.882 . S
U606 O624 2.441 . S
U606 O625 2.420 . S
U606 O626 2.455 . S
U606 O627 2.449 . S
O607 U606 2.454 . S
O607 C609 1.353 . S
O608 U606 2.458 . S
O608 C609 1.286 . S
C609 U606 2.984 . S
C609 O607 1.353 . S
C609 O608 1.286 . S
C609 C611 1.363 . S
C610 C600 1.465 . S
C610 U606 2.847 . S
C610 O624 1.249 . S
C610 O625 1.202 . S
C611 C609 1.363 . S
C611 C613 1.408 . S
C611 C616 1.342 . S
C612 C613 1.310 . S
C612 C615 1.461 . S
C612 H632 0.932 . S
C613 C611 1.408 . S
C613 C612 1.310 . S
C613 H633 0.930 . S
C614 C615 1.474 . S
C614 C616 1.285 . S
C614 H634 0.929 . S
C615 C612 1.461 . S
C615 C614 1.474 . S
C616 C611 1.342 . S
C616 C614 1.285 . S
C616 H635 0.930 . S
C617 C620 1.424 . S
C617 C622 1.245 . S
C617 C623 1.428 . S
C618 C621 1.260 . S
C618 C622 1.477 . S
C618 H636 0.932 . S
C619 C620 1.384 . S
C619 C621 1.479 . S
C619 H637 0.929 . S
C620 C617 1.424 . S
C620 C619 1.384 . S
C620 H638 0.928 . S
C621 C618 1.260 . S
C621 C619 1.479 . S
C622 C617 1.245 . S
C622 C618 1.477 . S
C622 H639 0.932 . S
C623 U606 2.882 . S
C623 C617 1.428 . S
C623 O626 1.301 . S
C623 O627 1.282 . S
O624 U606 2.441 . S
O624 C610 1.249 . S
O625 U606 2.420 . S
O625 C610 1.202 . S
O626 U606 2.455 . S
O626 C623 1.301 . S
O627 U606 2.449 . S
O627 C623 1.282 . S
H628 C601 0.931 . S
H629 C603 0.929 . S
H630 C604 0.930 . S
H631 C605 0.931 . S
H632 C612 0.932 . S
H633 C613 0.930 . S
H634 C614 0.929 . S
H635 C616 0.930 . S
H636 C618 0.932 . S
H637 C619 0.929 . S
H638 C620 0.928 . S
H639 C622 0.932 . S
C640 C641 1.264 . S
C640 C645 1.479 . S
C640 C650 1.465 . S
C641 C640 1.264 . S
C641 C643 1.339 . S
C641 H668 0.931 . S
C642 C643 1.395 . S
C642 C644 1.320 . S
C643 C641 1.339 . S
C643 C642 1.395 . S
C643 H669 0.929 . S
C644 C642 1.320 . S
C644 C645 1.405 . S
C644 H670 0.930 . S
C645 C640 1.479 . S
C645 C644 1.405 . S
C645 H671 0.931 . S
U646 O647 2.454 . S
U646 O648 2.458 . S
U646 C649 2.984 . S
U646 C650 2.847 . S
U646 C663 2.882 . S
U646 O664 2.441 . S
U646 O665 2.420 . S
U646 O666 2.455 . S
U646 O667 2.449 . S
O647 U646 2.454 . S
O647 C649 1.353 . S
O648 U646 2.458 . S
O648 C649 1.286 . S
C649 U646 2.984 . S
C649 O647 1.353 . S
C649 O648 1.286 . S
C649 C651 1.363 . S
C650 C640 1.465 . S
C650 U646 2.847 . S
C650 O664 1.249 . S
C650 O665 1.202 . S
C651 C649 1.363 . S
C651 C653 1.408 . S
C651 C656 1.342 . S
C652 C653 1.310 . S
C652 C655 1.461 . S
C652 H672 0.932 . S
C653 C651 1.408 . S
C653 C652 1.310 . S
C653 H673 0.930 . S
C654 C655 1.474 . S
C654 C656 1.285 . S
C654 H674 0.929 . S
C655 C652 1.461 . S
C655 C654 1.474 . S
C656 C651 1.342 . S
C656 C654 1.285 . S
C656 H675 0.930 . S
C657 C660 1.424 . S
C657 C662 1.245 . S
C657 C663 1.428 . S
C658 C661 1.260 . S
C658 C662 1.477 . S
C658 H676 0.932 . S
C659 C660 1.384 . S
C659 C661 1.479 . S
C659 H677 0.929 . S
C660 C657 1.424 . S
C660 C659 1.384 . S
C660 H678 0.928 . S
C661 C658 1.260 . S
C661 C659 1.479 . S
C662 C657 1.245 . S
C662 C658 1.477 . S
C662 H679 0.932 . S
C663 U646 2.882 . S
C663 C657 1.428 . S
C663 O666 1.301 . S
C663 O667 1.282 . S
O664 U646 2.441 . S
O664 C650 1.249 . S
O665 U646 2.420 . S
O665 C650 1.202 . S
O666 U646 2.455 . S
O666 C663 1.301 . S
O667 U646 2.449 . S
O667 C663 1.282 . S
H668 C641 0.931 . S
H669 C643 0.929 . S
H670 C644 0.930 . S
H671 C645 0.931 . S
H672 C652 0.932 . S
H673 C653 0.930 . S
H674 C654 0.929 . S
H675 C656 0.930 . S
H676 C658 0.932 . S
H677 C659 0.929 . S
H678 C660 0.928 . S
H679 C662 0.932 . S
C680 C681 1.264 . S
C680 C685 1.479 . S
C680 C690 1.465 . S
C681 C680 1.264 . S
C681 C683 1.339 . S
C681 H708 0.931 . S
C682 C683 1.395 . S
C682 C684 1.320 . S
C683 C681 1.339 . S
C683 C682 1.395 . S
C683 H709 0.929 . S
C684 C682 1.320 . S
C684 C685 1.405 . S
C684 H710 0.930 . S
C685 C680 1.479 . S
C685 C684 1.405 . S
C685 H711 0.931 . S
U686 O687 2.454 . S
U686 O688 2.458 . S
U686 C689 2.984 . S
U686 C690 2.847 . S
U686 C703 2.882 . S
U686 O704 2.441 . S
U686 O705 2.420 . S
U686 O706 2.455 . S
U686 O707 2.449 . S
O687 U686 2.454 . S
O687 C689 1.353 . S
O688 U686 2.458 . S
O688 C689 1.286 . S
C689 U686 2.984 . S
C689 O687 1.353 . S
C689 O688 1.286 . S
C689 C691 1.363 . S
C690 C680 1.465 . S
C690 U686 2.847 . S
C690 O704 1.249 . S
C690 O705 1.202 . S
C691 C689 1.363 . S
C691 C693 1.408 . S
C691 C696 1.342 . S
C692 C693 1.310 . S
C692 C695 1.461 . S
C692 H712 0.932 . S
C693 C691 1.408 . S
C693 C692 1.310 . S
C693 H713 0.930 . S
C694 C695 1.474 . S
C694 C696 1.285 . S
C694 H714 0.929 . S
C695 C692 1.461 . S
C695 C694 1.474 . S
C696 C691 1.342 . S
C696 C694 1.285 . S
C696 H715 0.930 . S
C697 C700 1.424 . S
C697 C702 1.245 . S
C697 C703 1.428 . S
C698 C701 1.260 . S
C698 C702 1.477 . S
C698 H716 0.932 . S
C699 C700 1.384 . S
C699 C701 1.479 . S
C699 H717 0.929 . S
C700 C697 1.424 . S
C700 C699 1.384 . S
C700 H718 0.928 . S
C701 C698 1.260 . S
C701 C699 1.479 . S
C702 C697 1.245 . S
C702 C698 1.477 . S
C702 H719 0.932 . S
C703 U686 2.882 . S
C703 C697 1.428 . S
C703 O706 1.301 . S
C703 O707 1.282 . S
O704 U686 2.441 . S
O704 C690 1.249 . S
O705 U686 2.420 . S
O705 C690 1.202 . S
O706 U686 2.455 . S
O706 C703 1.301 . S
O707 U686 2.449 . S
O707 C703 1.282 . S
H708 C681 0.931 . S
H709 C683 0.929 . S
H710 C684 0.930 . S
H711 C685 0.931 . S
H712 C692 0.932 . S
H713 C693 0.930 . S
H714 C694 0.929 . S
H715 C696 0.930 . S
H716 C698 0.932 . S
H717 C699 0.929 . S
H718 C700 0.928 . S
H719 C702 0.932 . S
Gd720 N751 2.661 . S
Gd720 N757 2.601 . S
Gd720 O764 2.545 . S
Gd720 O765 2.606 1_545 S
Gd720 O767 2.429 . S
Gd720 O768 2.545 1_545 S
Gd720 O769 2.412 . S
Gd720 O771 2.423 . S
Gd720 O772 2.324 1_545 S
Gd720 C779 2.828 . S
Gd721 N730 2.661 . S
Gd721 N734 2.601 . S
Gd721 O765 2.362 1_556 S
Gd721 O766 2.324 1_565 S
Gd721 O770 2.545 . S
Gd721 O771 2.569 1_566 S
Gd721 O773 2.464 . S
Gd721 O774 2.545 1_565 S
Gd721 O775 2.412 . S
Gd721 C788 2.828 . S
C722 C725 1.417 . S
C722 C727 1.431 . S
C722 C728 1.412 . S
C723 C726 1.437 . S
C723 C727 1.317 . S
C723 H742 0.929 . S
C724 C725 1.426 . S
C724 C726 1.413 . S
C724 N734 1.359 . S
C725 C722 1.417 . S
C725 C724 1.426 . S
C725 N730 1.350 . S
C726 C723 1.437 . S
C726 C724 1.413 . S
C726 C736 1.391 . S
C727 C722 1.431 . S
C727 C723 1.317 . S
C727 H738 0.930 . S
C728 C722 1.412 . S
C728 C729 1.355 . S
C728 H740 0.930 . S
C729 C728 1.355 . S
C729 C731 1.402 . S
C729 H741 0.930 . S
N730 Gd721 2.661 . S
N730 C725 1.350 . S
N730 C731 1.307 . S
C731 C729 1.402 . S
C731 N730 1.307 . S
C731 H732 0.930 . S
H732 C731 0.930 . S
C733 N734 1.334 . S
C733 C735 1.394 . S
C733 H737 0.930 . S
N734 Gd721 2.601 . S
N734 C724 1.359 . S
N734 C733 1.334 . S
C735 C733 1.394 . S
C735 C736 1.359 . S
C735 H747 0.930 . S
C736 C726 1.391 . S
C736 C735 1.359 . S
C736 H748 0.929 . S
H737 C733 0.930 . S
H738 C727 0.930 . S
H739 C756 0.930 . S
H740 C728 0.930 . S
H741 C729 0.930 . S
H742 C723 0.929 . S
H743 C761 0.930 . S
H744 C752 0.930 . S
H745 C753 0.930 . S
H746 C777 0.929 . S
H747 C735 0.930 . S
H748 C736 0.929 . S
H749 C778 0.930 . S
H750 C759 0.930 . S
N751 Gd720 2.661 . S
N751 C755 1.350 . S
N751 C756 1.307 . S
C752 H744 0.930 . S
C752 C753 1.355 . S
C752 C754 1.412 . S
C753 H745 0.930 . S
C753 C752 1.355 . S
C753 C756 1.402 . S
C754 C752 1.412 . S
C754 C755 1.417 . S
C754 C778 1.431 . S
C755 N751 1.350 . S
C755 C754 1.417 . S
C755 C758 1.426 . S
C756 H739 0.930 . S
C756 N751 1.307 . S
C756 C753 1.402 . S
N757 Gd720 2.601 . S
N757 C758 1.359 . S
N757 C761 1.334 . S
C758 C755 1.426 . S
C758 N757 1.359 . S
C758 C762 1.413 . S
C759 H750 0.930 . S
C759 C760 1.359 . S
C759 C761 1.394 . S
C760 C759 1.359 . S
C760 C762 1.391 . S
C760 H763 0.929 . S
C761 H743 0.930 . S
C761 N757 1.334 . S
C761 C759 1.394 . S
C762 C758 1.413 . S
C762 C760 1.391 . S
C762 C777 1.437 . S
H763 C760 0.929 . S
O764 Gd720 2.545 . S
O764 C779 1.258 . S
O765 Gd720 2.606 1_565 S
O765 Gd721 2.362 1_554 S
O765 C776 1.284 . S
O766 Gd721 2.324 1_545 S
O766 C786 1.254 . S
O767 Gd720 2.429 . S
O767 C786 1.268 1_554 S
O768 Gd720 2.545 1_565 S
O768 C776 1.250 . S
O769 Gd720 2.412 . S
O769 C779 1.252 . S
O770 Gd721 2.545 . S
O770 C788 1.258 . S
O771 Gd720 2.423 . S
O771 Gd721 2.569 1_544 S
O771 C787 1.236 1_554 S
O772 Gd720 2.324 1_565 S
O772 C795 1.254 . S
O773 Gd721 2.464 . S
O773 C795 1.205 1_556 S
O774 Gd721 2.545 1_545 S
O774 C787 1.250 . S
O775 Gd721 2.412 . S
O775 C788 1.252 . S
C776 O765 1.284 . S
C776 O768 1.250 . S
C777 H746 0.929 . S
C777 C762 1.437 . S
C777 C778 1.317 . S
C778 H749 0.930 . S
C778 C754 1.431 . S
C778 C777 1.317 . S
C779 Gd720 2.828 . S
C779 O764 1.258 . S
C779 O769 1.252 . S
C779 C780 1.497 . S
C780 C779 1.497 . S
C780 C781 1.395 . S
C780 C782 1.380 1_545 S
C781 C780 1.395 . S
C781 C784 1.398 . S
C781 H796 0.930 . S
C782 C780 1.380 1_565 S
C782 C783 1.391 . S
C782 H797 0.930 . S
C783 C782 1.391 . S
C783 C785 1.387 1_565 S
C784 C781 1.398 . S
C784 C785 1.380 . S
C784 H798 0.930 . S
C785 C783 1.387 1_545 S
C785 C784 1.380 . S
C785 H799 0.930 . S
C786 O766 1.254 . S
C786 O767 1.268 1_556 S
C787 O771 1.236 1_556 S
C787 O774 1.250 . S
C788 Gd721 2.828 . S
C788 O770 1.258 . S
C788 O775 1.252 . S
C788 C789 1.497 . S
C789 C788 1.497 . S
C789 C790 1.395 . S
C789 C791 1.380 1_565 S
C790 C789 1.395 . S
C790 C793 1.398 . S
C790 H800 0.930 . S
C791 C789 1.380 1_545 S
C791 C792 1.391 . S
C791 H801 0.930 . S
C792 C791 1.391 . S
C792 C794 1.387 1_545 S
C793 C790 1.398 . S
C793 C794 1.380 . S
C793 H802 0.930 . S
C794 C792 1.387 1_565 S
C794 C793 1.380 . S
C794 H803 0.931 . S
C795 O772 1.254 . S
C795 O773 1.205 1_554 S
H796 C781 0.930 . S
H797 C782 0.930 . S
H798 C784 0.930 . S
H799 C785 0.930 . S
H800 C790 0.930 . S
H801 C791 0.930 . S
H802 C793 0.930 . S
H803 C794 0.931 . S
Gd804 N835 2.661 . S
Gd804 N841 2.601 . S
Gd804 O848 2.545 . S
Gd804 O849 2.606 1_655 S
Gd804 O851 2.429 . S
Gd804 O852 2.545 1_655 S
Gd804 O853 2.412 . S
Gd804 O855 2.416 . S
Gd804 O856 2.324 1_655 S
Gd804 C863 2.828 . S
Gd805 N814 2.661 . S
Gd805 N818 2.601 . S
Gd805 O849 2.362 1_556 S
Gd805 O850 2.324 1_455 S
Gd805 O854 2.545 . S
Gd805 O855 2.574 1_456 S
Gd805 O857 2.428 1_556 S
Gd805 O858 2.545 1_455 S
Gd805 O859 2.412 . S
Gd805 C872 2.828 . S
C806 C809 1.417 . S
C806 C811 1.431 . S
C806 C812 1.412 . S
C807 C810 1.437 . S
C807 C811 1.317 . S
C807 H826 0.929 . S
C808 C809 1.426 . S
C808 C810 1.413 . S
C808 N818 1.359 . S
C809 C806 1.417 . S
C809 C808 1.426 . S
C809 N814 1.350 . S
C810 C807 1.437 . S
C810 C808 1.413 . S
C810 C820 1.391 . S
C811 C806 1.431 . S
C811 C807 1.317 . S
C811 H822 0.930 . S
C812 C806 1.412 . S
C812 C813 1.355 . S
C812 H824 0.930 . S
C813 C812 1.355 . S
C813 C815 1.402 . S
C813 H825 0.930 . S
N814 Gd805 2.661 . S
N814 C809 1.350 . S
N814 C815 1.307 . S
C815 C813 1.402 . S
C815 N814 1.307 . S
C815 H816 0.930 . S
H816 C815 0.930 . S
C817 N818 1.334 . S
C817 C819 1.394 . S
C817 H821 0.930 . S
N818 Gd805 2.601 . S
N818 C808 1.359 . S
N818 C817 1.334 . S
C819 C817 1.394 . S
C819 C820 1.359 . S
C819 H831 0.930 . S
C820 C810 1.391 . S
C820 C819 1.359 . S
C820 H832 0.929 . S
H821 C817 0.930 . S
H822 C811 0.930 . S
H823 C840 0.930 . S
H824 C812 0.930 . S
H825 C813 0.930 . S
H826 C807 0.929 . S
H827 C845 0.930 . S
H828 C836 0.930 . S
H829 C837 0.930 . S
H830 C861 0.929 . S
H831 C819 0.930 . S
H832 C820 0.929 . S
H833 C862 0.930 . S
H834 C843 0.930 . S
N835 Gd804 2.661 . S
N835 C839 1.350 . S
N835 C840 1.307 . S
C836 H828 0.930 . S
C836 C837 1.355 . S
C836 C838 1.412 . S
C837 H829 0.930 . S
C837 C836 1.355 . S
C837 C840 1.402 . S
C838 C836 1.412 . S
C838 C839 1.417 . S
C838 C862 1.431 . S
C839 N835 1.350 . S
C839 C838 1.417 . S
C839 C842 1.426 . S
C840 H823 0.930 . S
C840 N835 1.307 . S
C840 C837 1.402 . S
N841 Gd804 2.601 . S
N841 C842 1.359 . S
N841 C845 1.334 . S
C842 C839 1.426 . S
C842 N841 1.359 . S
C842 C846 1.413 . S
C843 H834 0.930 . S
C843 C844 1.359 . S
C843 C845 1.394 . S
C844 C843 1.359 . S
C844 C846 1.391 . S
C844 H847 0.929 . S
C845 H827 0.930 . S
C845 N841 1.334 . S
C845 C843 1.394 . S
C846 C842 1.413 . S
C846 C844 1.391 . S
C846 C861 1.437 . S
H847 C844 0.929 . S
O848 Gd804 2.545 . S
O848 C863 1.258 . S
O849 Gd804 2.606 1_455 S
O849 Gd805 2.362 1_554 S
O849 C860 1.284 . S
O850 Gd805 2.324 1_655 S
O850 C870 1.254 . S
O851 Gd804 2.429 . S
O851 C870 1.268 1_554 S
O852 Gd804 2.545 1_455 S
O852 C860 1.250 . S
O853 Gd804 2.412 . S
O853 C863 1.252 . S
O854 Gd805 2.545 . S
O854 C872 1.258 . S
O855 Gd804 2.416 . S
O855 Gd805 2.574 1_654 S
O855 C871 1.241 1_554 S
O856 Gd804 2.324 1_455 S
O856 C879 1.254 . S
O857 Gd805 2.428 1_554 S
O857 C879 1.270 . S
O858 Gd805 2.545 1_655 S
O858 C871 1.250 . S
O859 Gd805 2.412 . S
O859 C872 1.252 . S
C860 O849 1.284 . S
C860 O852 1.250 . S
C861 H830 0.929 . S
C861 C846 1.437 . S
C861 C862 1.317 . S
C862 H833 0.930 . S
C862 C838 1.431 . S
C862 C861 1.317 . S
C863 Gd804 2.828 . S
C863 O848 1.258 . S
C863 O853 1.252 . S
C863 C864 1.497 . S
C864 C863 1.497 . S
C864 C865 1.395 . S
C864 C866 1.380 1_655 S
C865 C864 1.395 . S
C865 C868 1.398 . S
C865 H880 0.930 . S
C866 C864 1.380 1_455 S
C866 C867 1.391 . S
C866 H881 0.930 . S
C867 C866 1.391 . S
C867 C869 1.387 1_455 S
C868 C865 1.398 . S
C868 C869 1.380 . S
C868 H882 0.930 . S
C869 C867 1.387 1_655 S
C869 C868 1.380 . S
C869 H883 0.930 . S
C870 O850 1.254 . S
C870 O851 1.268 1_556 S
C871 O855 1.241 1_556 S
C871 O858 1.250 . S
C872 Gd805 2.828 . S
C872 O854 1.258 . S
C872 O859 1.252 . S
C872 C873 1.497 . S
C873 C872 1.497 . S
C873 C874 1.395 . S
C873 C875 1.380 1_455 S
C874 C873 1.395 . S
C874 C877 1.398 . S
C874 H884 0.930 . S
C875 C873 1.380 1_655 S
C875 C876 1.391 . S
C875 H885 0.930 . S
C876 C875 1.391 . S
C876 C878 1.387 1_655 S
C877 C874 1.398 . S
C877 C878 1.380 . S
C877 H886 0.930 . S
C878 C876 1.387 1_455 S
C878 C877 1.380 . S
C878 H887 0.930 . S
C879 O856 1.254 . S
C879 O857 1.270 . S
H880 C865 0.930 . S
H881 C866 0.930 . S
H882 C868 0.930 . S
H883 C869 0.930 . S
H884 C874 0.930 . S
H885 C875 0.930 . S
H886 C877 0.930 . S
H887 C878 0.930 . S
Gd888 N919 2.661 . S
Gd888 N925 2.601 . S
Gd888 O932 2.545 . S
Gd888 O933 2.602 1_556 S
Gd888 O935 2.473 . S
Gd888 O936 2.545 . S
Gd888 O937 2.412 . S
Gd888 O939 2.362 1_556 S
Gd888 O940 2.324 . S
Gd888 C947 2.828 . S
Gd889 N898 2.661 . S
Gd889 N902 2.601 . S
Gd889 O933 2.369 . S
Gd889 O934 2.324 . S
Gd889 O938 2.545 . S
Gd889 O939 2.606 . S
Gd889 O941 2.429 . S
Gd889 O942 2.545 . S
Gd889 O943 2.412 . S
Gd889 C956 2.828 . S
C890 C893 1.417 . S
C890 C895 1.431 . S
C890 C896 1.412 . S
C891 C894 1.437 . S
C891 C895 1.317 . S
C891 H910 0.929 . S
C892 C893 1.426 . S
C892 C894 1.413 . S
C892 N902 1.359 . S
C893 C890 1.417 . S
C893 C892 1.426 . S
C893 N898 1.350 . S
C894 C891 1.437 . S
C894 C892 1.413 . S
C894 C904 1.391 . S
C895 C890 1.431 . S
C895 C891 1.317 . S
C895 H906 0.930 . S
C896 C890 1.412 . S
C896 C897 1.355 . S
C896 H908 0.930 . S
C897 C896 1.355 . S
C897 C899 1.402 . S
C897 H909 0.930 . S
N898 Gd889 2.661 . S
N898 C893 1.350 . S
N898 C899 1.307 . S
C899 C897 1.402 . S
C899 N898 1.307 . S
C899 H900 0.930 . S
H900 C899 0.930 . S
C901 N902 1.334 . S
C901 C903 1.394 . S
C901 H905 0.930 . S
N902 Gd889 2.601 . S
N902 C892 1.359 . S
N902 C901 1.334 . S
C903 C901 1.394 . S
C903 C904 1.359 . S
C903 H915 0.930 . S
C904 C894 1.391 . S
C904 C903 1.359 . S
C904 H916 0.929 . S
H905 C901 0.930 . S
H906 C895 0.930 . S
H907 C924 0.930 . S
H908 C896 0.930 . S
H909 C897 0.930 . S
H910 C891 0.929 . S
H911 C929 0.930 . S
H912 C920 0.930 . S
H913 C921 0.930 . S
H914 C945 0.929 . S
H915 C903 0.930 . S
H916 C904 0.929 . S
H917 C946 0.930 . S
H918 C927 0.930 . S
N919 Gd888 2.661 . S
N919 C923 1.350 . S
N919 C924 1.307 . S
C920 H912 0.930 . S
C920 C921 1.355 . S
C920 C922 1.412 . S
C921 H913 0.930 . S
C921 C920 1.355 . S
C921 C924 1.402 . S
C922 C920 1.412 . S
C922 C923 1.417 . S
C922 C946 1.431 . S
C923 N919 1.350 . S
C923 C922 1.417 . S
C923 C926 1.426 . S
C924 H907 0.930 . S
C924 N919 1.307 . S
C924 C921 1.402 . S
N925 Gd888 2.601 . S
N925 C926 1.359 . S
N925 C929 1.334 . S
C926 C923 1.426 . S
C926 N925 1.359 . S
C926 C930 1.413 . S
C927 H918 0.930 . S
C927 C928 1.359 . S
C927 C929 1.394 . S
C928 C927 1.359 . S
C928 C930 1.391 . S
C928 H931 0.929 . S
C929 H911 0.930 . S
C929 N925 1.334 . S
C929 C927 1.394 . S
C930 C926 1.413 . S
C930 C928 1.391 . S
C930 C945 1.437 . S
H931 C928 0.929 . S
O932 Gd888 2.545 . S
O932 C947 1.258 . S
O933 Gd888 2.602 1_554 S
O933 Gd889 2.369 . S
O933 C944 1.279 1_554 S
O934 Gd889 2.324 . S
O934 C954 1.254 . S
O935 Gd888 2.473 . S
O935 C954 1.189 1_556 S
O936 Gd888 2.545 . S
O936 C944 1.250 . S
O937 Gd888 2.412 . S
O937 C947 1.252 . S
O938 Gd889 2.545 . S
O938 C956 1.258 . S
O939 Gd888 2.362 1_554 S
O939 Gd889 2.606 . S
O939 C955 1.284 . S
O940 Gd888 2.324 . S
O940 C963 1.254 . S
O941 Gd889 2.429 . S
O941 C963 1.268 1_554 S
O942 Gd889 2.545 . S
O942 C955 1.250 . S
O943 Gd889 2.412 . S
O943 C956 1.252 . S
C944 O933 1.279 1_556 S
C944 O936 1.250 . S
C945 H914 0.929 . S
C945 C930 1.437 . S
C945 C946 1.317 . S
C946 H917 0.930 . S
C946 C922 1.431 . S
C946 C945 1.317 . S
C947 Gd888 2.828 . S
C947 O932 1.258 . S
C947 O937 1.252 . S
C947 C948 1.497 . S
C948 C947 1.497 . S
C948 C949 1.395 . S
C948 C950 1.380 . S
C949 C948 1.395 . S
C949 C952 1.398 . S
C949 H964 0.930 . S
C950 C948 1.380 . S
C950 C951 1.391 . S
C950 H965 0.930 . S
C951 C950 1.391 . S
C951 C953 1.387 . S
C952 C949 1.398 . S
C952 C953 1.380 . S
C952 H966 0.930 . S
C953 C951 1.387 . S
C953 C952 1.380 . S
C953 H967 0.930 . S
C954 O934 1.254 . S
C954 O935 1.189 1_554 S
C955 O939 1.284 . S
C955 O942 1.250 . S
C956 Gd889 2.828 . S
C956 O938 1.258 . S
C956 O943 1.252 . S
C956 C957 1.497 . S
C957 C956 1.497 . S
C957 C958 1.395 . S
C957 C959 1.380 . S
C958 C957 1.395 . S
C958 C961 1.398 . S
C958 H968 0.930 . S
C959 C957 1.380 . S
C959 C960 1.391 . S
C959 H969 0.930 . S
C960 C959 1.391 . S
C960 C962 1.387 . S
C961 C958 1.398 . S
C961 C962 1.380 . S
C961 H970 0.930 . S
C962 C960 1.387 . S
C962 C961 1.380 . S
C962 H971 0.930 . S
C963 O940 1.254 . S
C963 O941 1.268 1_556 S
H964 C949 0.930 . S
H965 C950 0.930 . S
H966 C952 0.930 . S
H967 C953 0.930 . S
H968 C958 0.930 . S
H969 C959 0.930 . S
H970 C961 0.930 . S
H971 C962 0.930 . S
Gd972 N1003 2.661 . S
Gd972 N1009 2.601 . S
Gd972 O1016 2.545 . S
Gd972 O1017 2.606 . S
Gd972 O1019 2.429 . S
Gd972 O1020 2.545 . S
Gd972 O1021 2.412 . S
Gd972 O1023 2.362 . S
Gd972 O1024 2.324 . S
Gd972 C1031 2.828 . S
Gd973 N982 2.661 . S
Gd973 N986 2.601 . S
Gd973 O1017 2.362 . S
Gd973 O1018 2.324 . S
Gd973 O1022 2.545 . S
Gd973 O1023 2.606 . S
Gd973 O1025 2.429 . S
Gd973 O1026 2.545 . S
Gd973 O1027 2.412 . S
Gd973 C1040 2.828 . S
C974 C977 1.417 . S
C974 C979 1.431 . S
C974 C980 1.412 . S
C975 C978 1.437 . S
C975 C979 1.317 . S
C975 H994 0.929 . S
C976 C977 1.426 . S
C976 C978 1.413 . S
C976 N986 1.359 . S
C977 C974 1.417 . S
C977 C976 1.426 . S
C977 N982 1.350 . S
C978 C975 1.437 . S
C978 C976 1.413 . S
C978 C988 1.391 . S
C979 C974 1.431 . S
C979 C975 1.317 . S
C979 H990 0.930 . S
C980 C974 1.412 . S
C980 C981 1.355 . S
C980 H992 0.930 . S
C981 C980 1.355 . S
C981 C983 1.402 . S
C981 H993 0.930 . S
N982 Gd973 2.661 . S
N982 C977 1.350 . S
N982 C983 1.307 . S
C983 C981 1.402 . S
C983 N982 1.307 . S
C983 H984 0.930 . S
H984 C983 0.930 . S
C985 N986 1.334 . S
C985 C987 1.394 . S
C985 H989 0.930 . S
N986 Gd973 2.601 . S
N986 C976 1.359 . S
N986 C985 1.334 . S
C987 C985 1.394 . S
C987 C988 1.359 . S
C987 H999 0.930 . S
C988 C978 1.391 . S
C988 C987 1.359 . S
C988 H1000 0.929 . S
H989 C985 0.930 . S
H990 C979 0.930 . S
H991 C1008 0.930 . S
H992 C980 0.930 . S
H993 C981 0.930 . S
H994 C975 0.929 . S
H995 C1013 0.930 . S
H996 C1004 0.930 . S
H997 C1005 0.930 . S
H998 C1029 0.929 . S
H999 C987 0.930 . S
H1000 C988 0.929 . S
H1001 C1030 0.930 . S
H1002 C1011 0.930 . S
N1003 Gd972 2.661 . S
N1003 C1007 1.350 . S
N1003 C1008 1.307 . S
C1004 H996 0.930 . S
C1004 C1005 1.355 . S
C1004 C1006 1.412 . S
C1005 H997 0.930 . S
C1005 C1004 1.355 . S
C1005 C1008 1.402 . S
C1006 C1004 1.412 . S
C1006 C1007 1.417 . S
C1006 C1030 1.431 . S
C1007 N1003 1.350 . S
C1007 C1006 1.417 . S
C1007 C1010 1.426 . S
C1008 H991 0.930 . S
C1008 N1003 1.307 . S
C1008 C1005 1.402 . S
N1009 Gd972 2.601 . S
N1009 C1010 1.359 . S
N1009 C1013 1.334 . S
C1010 C1007 1.426 . S
C1010 N1009 1.359 . S
C1010 C1014 1.413 . S
C1011 H1002 0.930 . S
C1011 C1012 1.359 . S
C1011 C1013 1.394 . S
C1012 C1011 1.359 . S
C1012 C1014 1.391 . S
C1012 H1015 0.929 . S
C1013 H995 0.930 . S
C1013 N1009 1.334 . S
C1013 C1011 1.394 . S
C1014 C1010 1.413 . S
C1014 C1012 1.391 . S
C1014 C1029 1.437 . S
H1015 C1012 0.929 . S
O1016 Gd972 2.545 . S
O1016 C1031 1.258 . S
O1017 Gd972 2.606 . S
O1017 Gd973 2.362 . S
O1017 C1028 1.284 . S
O1018 Gd973 2.324 . S
O1018 C1038 1.254 . S
O1019 Gd972 2.429 . S
O1019 C1038 1.268 . S
O1020 Gd972 2.545 . S
O1020 C1028 1.250 . S
O1021 Gd972 2.412 . S
O1021 C1031 1.252 . S
O1022 Gd973 2.545 . S
O1022 C1040 1.258 . S
O1023 Gd972 2.362 . S
O1023 Gd973 2.606 . S
O1023 C1039 1.284 . S
O1024 Gd972 2.324 . S
O1024 C1047 1.254 . S
O1025 Gd973 2.429 . S
O1025 C1047 1.268 . S
O1026 Gd973 2.545 . S
O1026 C1039 1.250 . S
O1027 Gd973 2.412 . S
O1027 C1040 1.252 . S
C1028 O1017 1.284 . S
C1028 O1020 1.250 . S
C1029 H998 0.929 . S
C1029 C1014 1.437 . S
C1029 C1030 1.317 . S
C1030 H1001 0.930 . S
C1030 C1006 1.431 . S
C1030 C1029 1.317 . S
C1031 Gd972 2.828 . S
C1031 O1016 1.258 . S
C1031 O1021 1.252 . S
C1031 C1032 1.497 . S
C1032 C1031 1.497 . S
C1032 C1033 1.395 . S
C1032 C1034 1.380 . S
C1033 C1032 1.395 . S
C1033 C1036 1.398 . S
C1033 H1048 0.930 . S
C1034 C1032 1.380 . S
C1034 C1035 1.391 . S
C1034 H1049 0.930 . S
C1035 C1034 1.391 . S
C1035 C1037 1.387 . S
C1036 C1033 1.398 . S
C1036 C1037 1.380 . S
C1036 H1050 0.930 . S
C1037 C1035 1.387 . S
C1037 C1036 1.380 . S
C1037 H1051 0.930 . S
C1038 O1018 1.254 . S
C1038 O1019 1.268 . S
C1039 O1023 1.284 . S
C1039 O1026 1.250 . S
C1040 Gd973 2.828 . S
C1040 O1022 1.258 . S
C1040 O1027 1.252 . S
C1040 C1041 1.497 . S
C1041 C1040 1.497 . S
C1041 C1042 1.395 . S
C1041 C1043 1.380 . S
C1042 C1041 1.395 . S
C1042 C1045 1.398 . S
C1042 H1052 0.930 . S
C1043 C1041 1.380 . S
C1043 C1044 1.391 . S
C1043 H1053 0.930 . S
C1044 C1043 1.391 . S
C1044 C1046 1.387 . S
C1045 C1042 1.398 . S
C1045 C1046 1.380 . S
C1045 H1054 0.930 . S
C1046 C1044 1.387 . S
C1046 C1045 1.380 . S
C1046 H1055 0.930 . S
C1047 O1024 1.254 . S
C1047 O1025 1.268 . S
H1048 C1033 0.930 . S
H1049 C1034 0.930 . S
H1050 C1036 0.930 . S
H1051 C1037 0.930 . S
H1052 C1042 0.930 . S
H1053 C1043 0.930 . S
H1054 C1045 0.930 . S
H1055 C1046 0.930 . S
Gd1056 N1087 2.661 . S
Gd1056 N1093 2.601 . S
Gd1056 O1100 2.545 . S
Gd1056 O1101 2.606 . S
Gd1056 O1103 2.429 . S
Gd1056 O1104 2.545 . S
Gd1056 O1105 2.412 . S
Gd1056 O1107 2.362 . S
Gd1056 O1108 2.324 . S
Gd1056 C1115 2.828 . S
Gd1057 N1066 2.661 . S
Gd1057 N1070 2.601 . S
Gd1057 O1101 2.362 . S
Gd1057 O1102 2.324 . S
Gd1057 O1106 2.545 . S
Gd1057 O1107 2.606 . S
Gd1057 O1109 2.429 . S
Gd1057 O1110 2.545 . S
Gd1057 O1111 2.412 . S
Gd1057 C1124 2.828 . S
C1058 C1061 1.417 . S
C1058 C1063 1.431 . S
C1058 C1064 1.412 . S
C1059 C1062 1.437 . S
C1059 C1063 1.317 . S
C1059 H1078 0.929 . S
C1060 C1061 1.426 . S
C1060 C1062 1.413 . S
C1060 N1070 1.359 . S
C1061 C1058 1.417 . S
C1061 C1060 1.426 . S
C1061 N1066 1.350 . S
C1062 C1059 1.437 . S
C1062 C1060 1.413 . S
C1062 C1072 1.391 . S
C1063 C1058 1.431 . S
C1063 C1059 1.317 . S
C1063 H1074 0.930 . S
C1064 C1058 1.412 . S
C1064 C1065 1.355 . S
C1064 H1076 0.930 . S
C1065 C1064 1.355 . S
C1065 C1067 1.402 . S
C1065 H1077 0.930 . S
N1066 Gd1057 2.661 . S
N1066 C1061 1.350 . S
N1066 C1067 1.307 . S
C1067 C1065 1.402 . S
C1067 N1066 1.307 . S
C1067 H1068 0.930 . S
H1068 C1067 0.930 . S
C1069 N1070 1.334 . S
C1069 C1071 1.394 . S
C1069 H1073 0.930 . S
N1070 Gd1057 2.601 . S
N1070 C1060 1.359 . S
N1070 C1069 1.334 . S
C1071 C1069 1.394 . S
C1071 C1072 1.359 . S
C1071 H1083 0.930 . S
C1072 C1062 1.391 . S
C1072 C1071 1.359 . S
C1072 H1084 0.929 . S
H1073 C1069 0.930 . S
H1074 C1063 0.930 . S
H1075 C1092 0.930 . S
H1076 C1064 0.930 . S
H1077 C1065 0.930 . S
H1078 C1059 0.929 . S
H1079 C1097 0.930 . S
H1080 C1088 0.930 . S
H1081 C1089 0.930 . S
H1082 C1113 0.929 . S
H1083 C1071 0.930 . S
H1084 C1072 0.929 . S
H1085 C1114 0.930 . S
H1086 C1095 0.930 . S
N1087 Gd1056 2.661 . S
N1087 C1091 1.350 . S
N1087 C1092 1.307 . S
C1088 H1080 0.930 . S
C1088 C1089 1.355 . S
C1088 C1090 1.412 . S
C1089 H1081 0.930 . S
C1089 C1088 1.355 . S
C1089 C1092 1.402 . S
C1090 C1088 1.412 . S
C1090 C1091 1.417 . S
C1090 C1114 1.431 . S
C1091 N1087 1.350 . S
C1091 C1090 1.417 . S
C1091 C1094 1.426 . S
C1092 H1075 0.930 . S
C1092 N1087 1.307 . S
C1092 C1089 1.402 . S
N1093 Gd1056 2.601 . S
N1093 C1094 1.359 . S
N1093 C1097 1.334 . S
C1094 C1091 1.426 . S
C1094 N1093 1.359 . S
C1094 C1098 1.413 . S
C1095 H1086 0.930 . S
C1095 C1096 1.359 . S
C1095 C1097 1.394 . S
C1096 C1095 1.359 . S
C1096 C1098 1.391 . S
C1096 H1099 0.929 . S
C1097 H1079 0.930 . S
C1097 N1093 1.334 . S
C1097 C1095 1.394 . S
C1098 C1094 1.413 . S
C1098 C1096 1.391 . S
C1098 C1113 1.437 . S
H1099 C1096 0.929 . S
O1100 Gd1056 2.545 . S
O1100 C1115 1.258 . S
O1101 Gd1056 2.606 . S
O1101 Gd1057 2.362 . S
O1101 C1112 1.284 . S
O1102 Gd1057 2.324 . S
O1102 C1122 1.254 . S
O1103 Gd1056 2.429 . S
O1103 C1122 1.268 . S
O1104 Gd1056 2.545 . S
O1104 C1112 1.250 . S
O1105 Gd1056 2.412 . S
O1105 C1115 1.252 . S
O1106 Gd1057 2.545 . S
O1106 C1124 1.258 . S
O1107 Gd1056 2.362 . S
O1107 Gd1057 2.606 . S
O1107 C1123 1.284 . S
O1108 Gd1056 2.324 . S
O1108 C1131 1.254 . S
O1109 Gd1057 2.429 . S
O1109 C1131 1.268 . S
O1110 Gd1057 2.545 . S
O1110 C1123 1.250 . S
O1111 Gd1057 2.412 . S
O1111 C1124 1.252 . S
C1112 O1101 1.284 . S
C1112 O1104 1.250 . S
C1113 H1082 0.929 . S
C1113 C1098 1.437 . S
C1113 C1114 1.317 . S
C1114 H1085 0.930 . S
C1114 C1090 1.431 . S
C1114 C1113 1.317 . S
C1115 Gd1056 2.828 . S
C1115 O1100 1.258 . S
C1115 O1105 1.252 . S
C1115 C1116 1.497 . S
C1116 C1115 1.497 . S
C1116 C1117 1.395 . S
C1116 C1118 1.380 . S
C1117 C1116 1.395 . S
C1117 C1120 1.398 . S
C1117 H1132 0.930 . S
C1118 C1116 1.380 . S
C1118 C1119 1.391 . S
C1118 H1133 0.930 . S
C1119 C1118 1.391 . S
C1119 C1121 1.387 . S
C1120 C1117 1.398 . S
C1120 C1121 1.380 . S
C1120 H1134 0.930 . S
C1121 C1119 1.387 . S
C1121 C1120 1.380 . S
C1121 H1135 0.930 . S
C1122 O1102 1.254 . S
C1122 O1103 1.268 . S
C1123 O1107 1.284 . S
C1123 O1110 1.250 . S
C1124 Gd1057 2.828 . S
C1124 O1106 1.258 . S
C1124 O1111 1.252 . S
C1124 C1125 1.497 . S
C1125 C1124 1.497 . S
C1125 C1126 1.395 . S
C1125 C1127 1.380 . S
C1126 C1125 1.395 . S
C1126 C1129 1.398 . S
C1126 H1136 0.930 . S
C1127 C1125 1.380 . S
C1127 C1128 1.391 . S
C1127 H1137 0.930 . S
C1128 C1127 1.391 . S
C1128 C1130 1.387 . S
C1129 C1126 1.398 . S
C1129 C1130 1.380 . S
C1129 H1138 0.930 . S
C1130 C1128 1.387 . S
C1130 C1129 1.380 . S
C1130 H1139 0.930 . S
C1131 O1108 1.254 . S
C1131 O1109 1.268 . S
H1132 C1117 0.930 . S
H1133 C1118 0.930 . S
H1134 C1120 0.930 . S
H1135 C1121 0.930 . S
H1136 C1126 0.930 . S
H1137 C1127 0.930 . S
H1138 C1129 0.930 . S
H1139 C1130 0.930 . S
Gd1140 N1171 2.661 . S
Gd1140 N1177 2.601 . S
Gd1140 O1184 2.545 . S
Gd1140 O1185 2.606 . S
Gd1140 O1187 2.429 . S
Gd1140 O1188 2.545 . S
Gd1140 O1189 2.412 . S
Gd1140 O1191 2.362 . S
Gd1140 O1192 2.324 . S
Gd1140 C1199 2.828 . S
Gd1141 N1150 2.661 . S
Gd1141 N1154 2.601 . S
Gd1141 O1185 2.362 . S
Gd1141 O1186 2.324 . S
Gd1141 O1190 2.545 . S
Gd1141 O1191 2.606 . S
Gd1141 O1193 2.429 . S
Gd1141 O1194 2.545 . S
Gd1141 O1195 2.412 . S
Gd1141 C1208 2.828 . S
C1142 C1145 1.417 . S
C1142 C1147 1.431 . S
C1142 C1148 1.412 . S
C1143 C1146 1.437 . S
C1143 C1147 1.317 . S
C1143 H1162 0.929 . S
C1144 C1145 1.426 . S
C1144 C1146 1.413 . S
C1144 N1154 1.359 . S
C1145 C1142 1.417 . S
C1145 C1144 1.426 . S
C1145 N1150 1.350 . S
C1146 C1143 1.437 . S
C1146 C1144 1.413 . S
C1146 C1156 1.391 . S
C1147 C1142 1.431 . S
C1147 C1143 1.317 . S
C1147 H1158 0.930 . S
C1148 C1142 1.412 . S
C1148 C1149 1.355 . S
C1148 H1160 0.930 . S
C1149 C1148 1.355 . S
C1149 C1151 1.402 . S
C1149 H1161 0.930 . S
N1150 Gd1141 2.661 . S
N1150 C1145 1.350 . S
N1150 C1151 1.307 . S
C1151 C1149 1.402 . S
C1151 N1150 1.307 . S
C1151 H1152 0.930 . S
H1152 C1151 0.930 . S
C1153 N1154 1.334 . S
C1153 C1155 1.394 . S
C1153 H1157 0.930 . S
N1154 Gd1141 2.601 . S
N1154 C1144 1.359 . S
N1154 C1153 1.334 . S
C1155 C1153 1.394 . S
C1155 C1156 1.359 . S
C1155 H1167 0.930 . S
C1156 C1146 1.391 . S
C1156 C1155 1.359 . S
C1156 H1168 0.929 . S
H1157 C1153 0.930 . S
H1158 C1147 0.930 . S
H1159 C1176 0.930 . S
H1160 C1148 0.930 . S
H1161 C1149 0.930 . S
H1162 C1143 0.929 . S
H1163 C1181 0.930 . S
H1164 C1172 0.930 . S
H1165 C1173 0.930 . S
H1166 C1197 0.929 . S
H1167 C1155 0.930 . S
H1168 C1156 0.929 . S
H1169 C1198 0.930 . S
H1170 C1179 0.930 . S
N1171 Gd1140 2.661 . S
N1171 C1175 1.350 . S
N1171 C1176 1.307 . S
C1172 H1164 0.930 . S
C1172 C1173 1.355 . S
C1172 C1174 1.412 . S
C1173 H1165 0.930 . S
C1173 C1172 1.355 . S
C1173 C1176 1.402 . S
C1174 C1172 1.412 . S
C1174 C1175 1.417 . S
C1174 C1198 1.431 . S
C1175 N1171 1.350 . S
C1175 C1174 1.417 . S
C1175 C1178 1.426 . S
C1176 H1159 0.930 . S
C1176 N1171 1.307 . S
C1176 C1173 1.402 . S
N1177 Gd1140 2.601 . S
N1177 C1178 1.359 . S
N1177 C1181 1.334 . S
C1178 C1175 1.426 . S
C1178 N1177 1.359 . S
C1178 C1182 1.413 . S
C1179 H1170 0.930 . S
C1179 C1180 1.359 . S
C1179 C1181 1.394 . S
C1180 C1179 1.359 . S
C1180 C1182 1.391 . S
C1180 H1183 0.929 . S
C1181 H1163 0.930 . S
C1181 N1177 1.334 . S
C1181 C1179 1.394 . S
C1182 C1178 1.413 . S
C1182 C1180 1.391 . S
C1182 C1197 1.437 . S
H1183 C1180 0.929 . S
O1184 Gd1140 2.545 . S
O1184 C1199 1.258 . S
O1185 Gd1140 2.606 . S
O1185 Gd1141 2.362 . S
O1185 C1196 1.284 . S
O1186 Gd1141 2.324 . S
O1186 C1206 1.254 . S
O1187 Gd1140 2.429 . S
O1187 C1206 1.268 . S
O1188 Gd1140 2.545 . S
O1188 C1196 1.250 . S
O1189 Gd1140 2.412 . S
O1189 C1199 1.252 . S
O1190 Gd1141 2.545 . S
O1190 C1208 1.258 . S
O1191 Gd1140 2.362 . S
O1191 Gd1141 2.606 . S
O1191 C1207 1.284 . S
O1192 Gd1140 2.324 . S
O1192 C1215 1.254 . S
O1193 Gd1141 2.429 . S
O1193 C1215 1.268 . S
O1194 Gd1141 2.545 . S
O1194 C1207 1.250 . S
O1195 Gd1141 2.412 . S
O1195 C1208 1.252 . S
C1196 O1185 1.284 . S
C1196 O1188 1.250 . S
C1197 H1166 0.929 . S
C1197 C1182 1.437 . S
C1197 C1198 1.317 . S
C1198 H1169 0.930 . S
C1198 C1174 1.431 . S
C1198 C1197 1.317 . S
C1199 Gd1140 2.828 . S
C1199 O1184 1.258 . S
C1199 O1189 1.252 . S
C1199 C1200 1.497 . S
C1200 C1199 1.497 . S
C1200 C1201 1.395 . S
C1200 C1202 1.380 . S
C1201 C1200 1.395 . S
C1201 C1204 1.398 . S
C1201 H1216 0.930 . S
C1202 C1200 1.380 . S
C1202 C1203 1.391 . S
C1202 H1217 0.930 . S
C1203 C1202 1.391 . S
C1203 C1205 1.387 . S
C1204 C1201 1.398 . S
C1204 C1205 1.380 . S
C1204 H1218 0.930 . S
C1205 C1203 1.387 . S
C1205 C1204 1.380 . S
C1205 H1219 0.930 . S
C1206 O1186 1.254 . S
C1206 O1187 1.268 . S
C1207 O1191 1.284 . S
C1207 O1194 1.250 . S
C1208 Gd1141 2.828 . S
C1208 O1190 1.258 . S
C1208 O1195 1.252 . S
C1208 C1209 1.497 . S
C1209 C1208 1.497 . S
C1209 C1210 1.395 . S
C1209 C1211 1.380 . S
C1210 C1209 1.395 . S
C1210 C1213 1.398 . S
C1210 H1220 0.930 . S
C1211 C1209 1.380 . S
C1211 C1212 1.391 . S
C1211 H1221 0.930 . S
C1212 C1211 1.391 . S
C1212 C1214 1.387 . S
C1213 C1210 1.398 . S
C1213 C1214 1.380 . S
C1213 H1222 0.930 . S
C1214 C1212 1.387 . S
C1214 C1213 1.380 . S
C1214 H1223 0.930 . S
C1215 O1192 1.254 . S
C1215 O1193 1.268 . S
H1216 C1201 0.930 . S
H1217 C1202 0.930 . S
H1218 C1204 0.930 . S
H1219 C1205 0.930 . S
H1220 C1210 0.930 . S
H1221 C1211 0.930 . S
H1222 C1213 0.930 . S
H1223 C1214 0.930 . S
Gd1224 N1255 2.661 . S
Gd1224 N1261 2.601 . S
Gd1224 O1268 2.545 . S
Gd1224 O1269 2.606 . S
Gd1224 O1271 2.429 . S
Gd1224 O1272 2.545 . S
Gd1224 O1273 2.412 . S
Gd1224 O1275 2.362 . S
Gd1224 O1276 2.324 . S
Gd1224 C1283 2.828 . S
Gd1225 N1234 2.661 . S
Gd1225 N1238 2.601 . S
Gd1225 O1269 2.362 . S
Gd1225 O1270 2.324 . S
Gd1225 O1274 2.545 . S
Gd1225 O1275 2.606 . S
Gd1225 O1277 2.429 . S
Gd1225 O1278 2.545 . S
Gd1225 O1279 2.412 . S
Gd1225 C1292 2.828 . S
C1226 C1229 1.417 . S
C1226 C1231 1.431 . S
C1226 C1232 1.412 . S
C1227 C1230 1.437 . S
C1227 C1231 1.317 . S
C1227 H1246 0.929 . S
C1228 C1229 1.426 . S
C1228 C1230 1.413 . S
C1228 N1238 1.359 . S
C1229 C1226 1.417 . S
C1229 C1228 1.426 . S
C1229 N1234 1.350 . S
C1230 C1227 1.437 . S
C1230 C1228 1.413 . S
C1230 C1240 1.391 . S
C1231 C1226 1.431 . S
C1231 C1227 1.317 . S
C1231 H1242 0.930 . S
C1232 C1226 1.412 . S
C1232 C1233 1.355 . S
C1232 H1244 0.930 . S
C1233 C1232 1.355 . S
C1233 C1235 1.402 . S
C1233 H1245 0.930 . S
N1234 Gd1225 2.661 . S
N1234 C1229 1.350 . S
N1234 C1235 1.307 . S
C1235 C1233 1.402 . S
C1235 N1234 1.307 . S
C1235 H1236 0.930 . S
H1236 C1235 0.930 . S
C1237 N1238 1.334 . S
C1237 C1239 1.394 . S
C1237 H1241 0.930 . S
N1238 Gd1225 2.601 . S
N1238 C1228 1.359 . S
N1238 C1237 1.334 . S
C1239 C1237 1.394 . S
C1239 C1240 1.359 . S
C1239 H1251 0.930 . S
C1240 C1230 1.391 . S
C1240 C1239 1.359 . S
C1240 H1252 0.929 . S
H1241 C1237 0.930 . S
H1242 C1231 0.930 . S
H1243 C1260 0.930 . S
H1244 C1232 0.930 . S
H1245 C1233 0.930 . S
H1246 C1227 0.929 . S
H1247 C1265 0.930 . S
H1248 C1256 0.930 . S
H1249 C1257 0.930 . S
H1250 C1281 0.929 . S
H1251 C1239 0.930 . S
H1252 C1240 0.929 . S
H1253 C1282 0.930 . S
H1254 C1263 0.930 . S
N1255 Gd1224 2.661 . S
N1255 C1259 1.350 . S
N1255 C1260 1.307 . S
C1256 H1248 0.930 . S
C1256 C1257 1.355 . S
C1256 C1258 1.412 . S
C1257 H1249 0.930 . S
C1257 C1256 1.355 . S
C1257 C1260 1.402 . S
C1258 C1256 1.412 . S
C1258 C1259 1.417 . S
C1258 C1282 1.431 . S
C1259 N1255 1.350 . S
C1259 C1258 1.417 . S
C1259 C1262 1.426 . S
C1260 H1243 0.930 . S
C1260 N1255 1.307 . S
C1260 C1257 1.402 . S
N1261 Gd1224 2.601 . S
N1261 C1262 1.359 . S
N1261 C1265 1.334 . S
C1262 C1259 1.426 . S
C1262 N1261 1.359 . S
C1262 C1266 1.413 . S
C1263 H1254 0.930 . S
C1263 C1264 1.359 . S
C1263 C1265 1.394 . S
C1264 C1263 1.359 . S
C1264 C1266 1.391 . S
C1264 H1267 0.929 . S
C1265 H1247 0.930 . S
C1265 N1261 1.334 . S
C1265 C1263 1.394 . S
C1266 C1262 1.413 . S
C1266 C1264 1.391 . S
C1266 C1281 1.437 . S
H1267 C1264 0.929 . S
O1268 Gd1224 2.545 . S
O1268 C1283 1.258 . S
O1269 Gd1224 2.606 . S
O1269 Gd1225 2.362 . S
O1269 C1280 1.284 . S
O1270 Gd1225 2.324 . S
O1270 C1290 1.254 . S
O1271 Gd1224 2.429 . S
O1271 C1290 1.268 . S
O1272 Gd1224 2.545 . S
O1272 C1280 1.250 . S
O1273 Gd1224 2.412 . S
O1273 C1283 1.252 . S
O1274 Gd1225 2.545 . S
O1274 C1292 1.258 . S
O1275 Gd1224 2.362 . S
O1275 Gd1225 2.606 . S
O1275 C1291 1.284 . S
O1276 Gd1224 2.324 . S
O1276 C1299 1.254 . S
O1277 Gd1225 2.429 . S
O1277 C1299 1.268 . S
O1278 Gd1225 2.545 . S
O1278 C1291 1.250 . S
O1279 Gd1225 2.412 . S
O1279 C1292 1.252 . S
C1280 O1269 1.284 . S
C1280 O1272 1.250 . S
C1281 H1250 0.929 . S
C1281 C1266 1.437 . S
C1281 C1282 1.317 . S
C1282 H1253 0.930 . S
C1282 C1258 1.431 . S
C1282 C1281 1.317 . S
C1283 Gd1224 2.828 . S
C1283 O1268 1.258 . S
C1283 O1273 1.252 . S
C1283 C1284 1.497 . S
C1284 C1283 1.497 . S
C1284 C1285 1.395 . S
C1284 C1286 1.380 . S
C1285 C1284 1.395 . S
C1285 C1288 1.398 . S
C1285 H1300 0.930 . S
C1286 C1284 1.380 . S
C1286 C1287 1.391 . S
C1286 H1301 0.930 . S
C1287 C1286 1.391 . S
C1287 C1289 1.387 . S
C1288 C1285 1.398 . S
C1288 C1289 1.380 . S
C1288 H1302 0.930 . S
C1289 C1287 1.387 . S
C1289 C1288 1.380 . S
C1289 H1303 0.930 . S
C1290 O1270 1.254 . S
C1290 O1271 1.268 . S
C1291 O1275 1.284 . S
C1291 O1278 1.250 . S
C1292 Gd1225 2.828 . S
C1292 O1274 1.258 . S
C1292 O1279 1.252 . S
C1292 C1293 1.497 . S
C1293 C1292 1.497 . S
C1293 C1294 1.395 . S
C1293 C1295 1.380 . S
C1294 C1293 1.395 . S
C1294 C1297 1.398 . S
C1294 H1304 0.930 . S
C1295 C1293 1.380 . S
C1295 C1296 1.391 . S
C1295 H1305 0.930 . S
C1296 C1295 1.391 . S
C1296 C1298 1.387 . S
C1297 C1294 1.398 . S
C1297 C1298 1.380 . S
C1297 H1306 0.930 . S
C1298 C1296 1.387 . S
C1298 C1297 1.380 . S
C1298 H1307 0.930 . S
C1299 O1276 1.254 . S
C1299 O1277 1.268 . S
H1300 C1285 0.930 . S
H1301 C1286 0.930 . S
H1302 C1288 0.930 . S
H1303 C1289 0.930 . S
H1304 C1294 0.930 . S
H1305 C1295 0.930 . S
H1306 C1297 0.930 . S
H1307 C1298 0.930 . S
Gd1308 N1339 2.661 . S
Gd1308 N1345 2.601 . S
Gd1308 O1352 2.545 . S
Gd1308 O1353 2.606 . S
Gd1308 O1355 2.429 . S
Gd1308 O1356 2.545 . S
Gd1308 O1357 2.412 . S
Gd1308 O1359 2.362 . S
Gd1308 O1360 2.324 . S
Gd1308 C1367 2.828 . S
Gd1309 N1318 2.661 . S
Gd1309 N1322 2.601 . S
Gd1309 O1353 2.362 . S
Gd1309 O1354 2.324 . S
Gd1309 O1358 2.545 . S
Gd1309 O1359 2.606 . S
Gd1309 O1361 2.429 . S
Gd1309 O1362 2.545 . S
Gd1309 O1363 2.412 . S
Gd1309 C1376 2.828 . S
C1310 C1313 1.417 . S
C1310 C1315 1.431 . S
C1310 C1316 1.412 . S
C1311 C1314 1.437 . S
C1311 C1315 1.317 . S
C1311 H1330 0.929 . S
C1312 C1313 1.426 . S
C1312 C1314 1.413 . S
C1312 N1322 1.359 . S
C1313 C1310 1.417 . S
C1313 C1312 1.426 . S
C1313 N1318 1.350 . S
C1314 C1311 1.437 . S
C1314 C1312 1.413 . S
C1314 C1324 1.391 . S
C1315 C1310 1.431 . S
C1315 C1311 1.317 . S
C1315 H1326 0.930 . S
C1316 C1310 1.412 . S
C1316 C1317 1.355 . S
C1316 H1328 0.930 . S
C1317 C1316 1.355 . S
C1317 C1319 1.402 . S
C1317 H1329 0.930 . S
N1318 Gd1309 2.661 . S
N1318 C1313 1.350 . S
N1318 C1319 1.307 . S
C1319 C1317 1.402 . S
C1319 N1318 1.307 . S
C1319 H1320 0.930 . S
H1320 C1319 0.930 . S
C1321 N1322 1.334 . S
C1321 C1323 1.394 . S
C1321 H1325 0.930 . S
N1322 Gd1309 2.601 . S
N1322 C1312 1.359 . S
N1322 C1321 1.334 . S
C1323 C1321 1.394 . S
C1323 C1324 1.359 . S
C1323 H1335 0.930 . S
C1324 C1314 1.391 . S
C1324 C1323 1.359 . S
C1324 H1336 0.929 . S
H1325 C1321 0.930 . S
H1326 C1315 0.930 . S
H1327 C1344 0.930 . S
H1328 C1316 0.930 . S
H1329 C1317 0.930 . S
H1330 C1311 0.929 . S
H1331 C1349 0.930 . S
H1332 C1340 0.930 . S
H1333 C1341 0.930 . S
H1334 C1365 0.929 . S
H1335 C1323 0.930 . S
H1336 C1324 0.929 . S
H1337 C1366 0.930 . S
H1338 C1347 0.930 . S
N1339 Gd1308 2.661 . S
N1339 C1343 1.350 . S
N1339 C1344 1.307 . S
C1340 H1332 0.930 . S
C1340 C1341 1.355 . S
C1340 C1342 1.412 . S
C1341 H1333 0.930 . S
C1341 C1340 1.355 . S
C1341 C1344 1.402 . S
C1342 C1340 1.412 . S
C1342 C1343 1.417 . S
C1342 C1366 1.431 . S
C1343 N1339 1.350 . S
C1343 C1342 1.417 . S
C1343 C1346 1.426 . S
C1344 H1327 0.930 . S
C1344 N1339 1.307 . S
C1344 C1341 1.402 . S
N1345 Gd1308 2.601 . S
N1345 C1346 1.359 . S
N1345 C1349 1.334 . S
C1346 C1343 1.426 . S
C1346 N1345 1.359 . S
C1346 C1350 1.413 . S
C1347 H1338 0.930 . S
C1347 C1348 1.359 . S
C1347 C1349 1.394 . S
C1348 C1347 1.359 . S
C1348 C1350 1.391 . S
C1348 H1351 0.929 . S
C1349 H1331 0.930 . S
C1349 N1345 1.334 . S
C1349 C1347 1.394 . S
C1350 C1346 1.413 . S
C1350 C1348 1.391 . S
C1350 C1365 1.437 . S
H1351 C1348 0.929 . S
O1352 Gd1308 2.545 . S
O1352 C1367 1.258 . S
O1353 Gd1308 2.606 . S
O1353 Gd1309 2.362 . S
O1353 C1364 1.284 . S
O1354 Gd1309 2.324 . S
O1354 C1374 1.254 . S
O1355 Gd1308 2.429 . S
O1355 C1374 1.268 . S
O1356 Gd1308 2.545 . S
O1356 C1364 1.250 . S
O1357 Gd1308 2.412 . S
O1357 C1367 1.252 . S
O1358 Gd1309 2.545 . S
O1358 C1376 1.258 . S
O1359 Gd1308 2.362 . S
O1359 Gd1309 2.606 . S
O1359 C1375 1.284 . S
O1360 Gd1308 2.324 . S
O1360 C1383 1.254 . S
O1361 Gd1309 2.429 . S
O1361 C1383 1.268 . S
O1362 Gd1309 2.545 . S
O1362 C1375 1.250 . S
O1363 Gd1309 2.412 . S
O1363 C1376 1.252 . S
C1364 O1353 1.284 . S
C1364 O1356 1.250 . S
C1365 H1334 0.929 . S
C1365 C1350 1.437 . S
C1365 C1366 1.317 . S
C1366 H1337 0.930 . S
C1366 C1342 1.431 . S
C1366 C1365 1.317 . S
C1367 Gd1308 2.828 . S
C1367 O1352 1.258 . S
C1367 O1357 1.252 . S
C1367 C1368 1.497 . S
C1368 C1367 1.497 . S
C1368 C1369 1.395 . S
C1368 C1370 1.380 . S
C1369 C1368 1.395 . S
C1369 C1372 1.398 . S
C1369 H1384 0.930 . S
C1370 C1368 1.380 . S
C1370 C1371 1.391 . S
C1370 H1385 0.930 . S
C1371 C1370 1.391 . S
C1371 C1373 1.387 . S
C1372 C1369 1.398 . S
C1372 C1373 1.380 . S
C1372 H1386 0.930 . S
C1373 C1371 1.387 . S
C1373 C1372 1.380 . S
C1373 H1387 0.930 . S
C1374 O1354 1.254 . S
C1374 O1355 1.268 . S
C1375 O1359 1.284 . S
C1375 O1362 1.250 . S
C1376 Gd1309 2.828 . S
C1376 O1358 1.258 . S
C1376 O1363 1.252 . S
C1376 C1377 1.497 . S
C1377 C1376 1.497 . S
C1377 C1378 1.395 . S
C1377 C1379 1.380 . S
C1378 C1377 1.395 . S
C1378 C1381 1.398 . S
C1378 H1388 0.930 . S
C1379 C1377 1.380 . S
C1379 C1380 1.391 . S
C1379 H1389 0.930 . S
C1380 C1379 1.391 . S
C1380 C1382 1.387 . S
C1381 C1378 1.398 . S
C1381 C1382 1.380 . S
C1381 H1390 0.930 . S
C1382 C1380 1.387 . S
C1382 C1381 1.380 . S
C1382 H1391 0.930 . S
C1383 O1360 1.254 . S
C1383 O1361 1.268 . S
H1384 C1369 0.930 . S
H1385 C1370 0.930 . S
H1386 C1372 0.930 . S
H1387 C1373 0.930 . S
H1388 C1378 0.930 . S
H1389 C1379 0.930 . S
H1390 C1381 0.930 . S
H1391 C1382 0.930 . S
Gd1392 N1423 2.661 . S
Gd1392 N1429 2.601 . S
Gd1392 O1436 2.545 . S
Gd1392 O1437 2.606 . S
Gd1392 O1439 2.429 . S
Gd1392 O1440 2.545 . S
Gd1392 O1441 2.412 . S
Gd1392 O1443 2.362 . S
Gd1392 O1444 2.324 . S
Gd1392 C1451 2.828 . S
Gd1393 N1402 2.661 . S
Gd1393 N1406 2.601 . S
Gd1393 O1437 2.362 . S
Gd1393 O1438 2.324 . S
Gd1393 O1442 2.545 . S
Gd1393 O1443 2.606 . S
Gd1393 O1445 2.429 . S
Gd1393 O1446 2.545 . S
Gd1393 O1447 2.412 . S
Gd1393 C1460 2.828 . S
C1394 C1397 1.417 . S
C1394 C1399 1.431 . S
C1394 C1400 1.412 . S
C1395 C1398 1.437 . S
C1395 C1399 1.317 . S
C1395 H1414 0.929 . S
C1396 C1397 1.426 . S
C1396 C1398 1.413 . S
C1396 N1406 1.359 . S
C1397 C1394 1.417 . S
C1397 C1396 1.426 . S
C1397 N1402 1.350 . S
C1398 C1395 1.437 . S
C1398 C1396 1.413 . S
C1398 C1408 1.391 . S
C1399 C1394 1.431 . S
C1399 C1395 1.317 . S
C1399 H1410 0.930 . S
C1400 C1394 1.412 . S
C1400 C1401 1.355 . S
C1400 H1412 0.930 . S
C1401 C1400 1.355 . S
C1401 C1403 1.402 . S
C1401 H1413 0.930 . S
N1402 Gd1393 2.661 . S
N1402 C1397 1.350 . S
N1402 C1403 1.307 . S
C1403 C1401 1.402 . S
C1403 N1402 1.307 . S
C1403 H1404 0.930 . S
H1404 C1403 0.930 . S
C1405 N1406 1.334 . S
C1405 C1407 1.394 . S
C1405 H1409 0.930 . S
N1406 Gd1393 2.601 . S
N1406 C1396 1.359 . S
N1406 C1405 1.334 . S
C1407 C1405 1.394 . S
C1407 C1408 1.359 . S
C1407 H1419 0.930 . S
C1408 C1398 1.391 . S
C1408 C1407 1.359 . S
C1408 H1420 0.929 . S
H1409 C1405 0.930 . S
H1410 C1399 0.930 . S
H1411 C1428 0.930 . S
H1412 C1400 0.930 . S
H1413 C1401 0.930 . S
H1414 C1395 0.929 . S
H1415 C1433 0.930 . S
H1416 C1424 0.930 . S
H1417 C1425 0.930 . S
H1418 C1449 0.929 . S
H1419 C1407 0.930 . S
H1420 C1408 0.929 . S
H1421 C1450 0.930 . S
H1422 C1431 0.930 . S
N1423 Gd1392 2.661 . S
N1423 C1427 1.350 . S
N1423 C1428 1.307 . S
C1424 H1416 0.930 . S
C1424 C1425 1.355 . S
C1424 C1426 1.412 . S
C1425 H1417 0.930 . S
C1425 C1424 1.355 . S
C1425 C1428 1.402 . S
C1426 C1424 1.412 . S
C1426 C1427 1.417 . S
C1426 C1450 1.431 . S
C1427 N1423 1.350 . S
C1427 C1426 1.417 . S
C1427 C1430 1.426 . S
C1428 H1411 0.930 . S
C1428 N1423 1.307 . S
C1428 C1425 1.402 . S
N1429 Gd1392 2.601 . S
N1429 C1430 1.359 . S
N1429 C1433 1.334 . S
C1430 C1427 1.426 . S
C1430 N1429 1.359 . S
C1430 C1434 1.413 . S
C1431 H1422 0.930 . S
C1431 C1432 1.359 . S
C1431 C1433 1.394 . S
C1432 C1431 1.359 . S
C1432 C1434 1.391 . S
C1432 H1435 0.929 . S
C1433 H1415 0.930 . S
C1433 N1429 1.334 . S
C1433 C1431 1.394 . S
C1434 C1430 1.413 . S
C1434 C1432 1.391 . S
C1434 C1449 1.437 . S
H1435 C1432 0.929 . S
O1436 Gd1392 2.545 . S
O1436 C1451 1.258 . S
O1437 Gd1392 2.606 . S
O1437 Gd1393 2.362 . S
O1437 C1448 1.284 . S
O1438 Gd1393 2.324 . S
O1438 C1458 1.254 . S
O1439 Gd1392 2.429 . S
O1439 C1458 1.268 . S
O1440 Gd1392 2.545 . S
O1440 C1448 1.250 . S
O1441 Gd1392 2.412 . S
O1441 C1451 1.252 . S
O1442 Gd1393 2.545 . S
O1442 C1460 1.258 . S
O1443 Gd1392 2.362 . S
O1443 Gd1393 2.606 . S
O1443 C1459 1.284 . S
O1444 Gd1392 2.324 . S
O1444 C1467 1.254 . S
O1445 Gd1393 2.429 . S
O1445 C1467 1.268 . S
O1446 Gd1393 2.545 . S
O1446 C1459 1.250 . S
O1447 Gd1393 2.412 . S
O1447 C1460 1.252 . S
C1448 O1437 1.284 . S
C1448 O1440 1.250 . S
C1449 H1418 0.929 . S
C1449 C1434 1.437 . S
C1449 C1450 1.317 . S
C1450 H1421 0.930 . S
C1450 C1426 1.431 . S
C1450 C1449 1.317 . S
C1451 Gd1392 2.828 . S
C1451 O1436 1.258 . S
C1451 O1441 1.252 . S
C1451 C1452 1.497 . S
C1452 C1451 1.497 . S
C1452 C1453 1.395 . S
C1452 C1454 1.380 . S
C1453 C1452 1.395 . S
C1453 C1456 1.398 . S
C1453 H1468 0.930 . S
C1454 C1452 1.380 . S
C1454 C1455 1.391 . S
C1454 H1469 0.930 . S
C1455 C1454 1.391 . S
C1455 C1457 1.387 . S
C1456 C1453 1.398 . S
C1456 C1457 1.380 . S
C1456 H1470 0.930 . S
C1457 C1455 1.387 . S
C1457 C1456 1.380 . S
C1457 H1471 0.930 . S
C1458 O1438 1.254 . S
C1458 O1439 1.268 . S
C1459 O1443 1.284 . S
C1459 O1446 1.250 . S
C1460 Gd1393 2.828 . S
C1460 O1442 1.258 . S
C1460 O1447 1.252 . S
C1460 C1461 1.497 . S
C1461 C1460 1.497 . S
C1461 C1462 1.395 . S
C1461 C1463 1.380 . S
C1462 C1461 1.395 . S
C1462 C1465 1.398 . S
C1462 H1472 0.930 . S
C1463 C1461 1.380 . S
C1463 C1464 1.391 . S
C1463 H1473 0.930 . S
C1464 C1463 1.391 . S
C1464 C1466 1.387 . S
C1465 C1462 1.398 . S
C1465 C1466 1.380 . S
C1465 H1474 0.930 . S
C1466 C1464 1.387 . S
C1466 C1465 1.380 . S
C1466 H1475 0.930 . S
C1467 O1444 1.254 . S
C1467 O1445 1.268 . S
H1468 C1453 0.930 . S
H1469 C1454 0.930 . S
H1470 C1456 0.930 . S
H1471 C1457 0.930 . S
H1472 C1462 0.930 . S
H1473 C1463 0.930 . S
H1474 C1465 0.930 . S
H1475 C1466 0.930 . S
H1476 C1484 0.929 . S
H1477 C1486 0.930 . S
H1478 C1488 0.930 . S
H1479 C1491 0.929 . S
H1480 C1494 0.930 . S
H1481 C1496 0.960 . S
H1482 C1496 0.960 . S
H1483 C1496 0.960 . S
C1484 H1476 0.929 . S
C1484 C1485 1.377 . S
C1484 C1486 1.384 . S
C1485 C1484 1.377 . S
C1485 C1491 1.390 . S
C1486 H1477 0.930 . S
C1486 C1484 1.384 . S
C1486 C1487 1.372 . S
C1487 C1486 1.372 . S
C1487 C1488 1.400 . S
C1487 C1492 1.490 . S
C1488 H1478 0.930 . S
C1488 C1487 1.400 . S
C1488 C1491 1.386 . S
H1489 C1505 0.930 . S
H1490 C1506 0.931 . S
C1491 H1479 0.929 . S
C1491 C1485 1.390 . S
C1491 C1488 1.386 . S
C1492 C1487 1.490 . S
C1492 C1494 1.395 . S
C1492 C1495 1.403 . S
H1493 C1499 0.930 . S
C1494 H1480 0.930 . S
C1494 C1492 1.395 . S
C1494 C1497 1.403 . S
C1495 C1492 1.403 . S
C1495 C1496 1.524 . S
C1495 C1499 1.400 . S
C1496 H1481 0.960 . S
C1496 H1482 0.960 . S
C1496 H1483 0.960 . S
C1496 C1495 1.524 . S
C1497 C1494 1.403 . S
C1497 C1498 1.392 . S
C1497 C1501 1.495 . S
C1498 C1497 1.392 . S
C1498 C1499 1.385 . S
C1498 C1500 1.478 . S
C1499 H1493 0.930 . S
C1499 C1495 1.400 . S
C1499 C1498 1.385 . S
C1500 C1498 1.478 . S
C1500 C1502 1.381 . S
C1500 C1506 1.383 . S
C1501 C1497 1.495 . S
C1501 H1507 0.959 . S
C1501 H1508 0.961 . S
C1501 H1509 0.960 . S
C1502 C1500 1.381 . S
C1502 C1503 1.394 . S
C1502 H1510 0.930 . S
C1503 C1502 1.394 . S
C1503 C1504 1.383 . S
C1503 H1511 0.929 . S
C1504 C1503 1.383 . S
C1504 C1505 1.377 . S
C1505 H1489 0.930 . S
C1505 C1504 1.377 . S
C1505 C1506 1.379 . S
C1506 H1490 0.931 . S
C1506 C1500 1.383 . S
C1506 C1505 1.379 . S
H1507 C1501 0.959 . S
H1508 C1501 0.961 . S
H1509 C1501 0.960 . S
H1510 C1502 0.930 . S
H1511 C1503 0.929 . S
H1512 C1520 0.929 . S
H1513 C1522 0.930 . S
H1514 C1524 0.930 . S
H1515 C1527 0.929 . S
H1516 C1530 0.930 . S
H1517 C1532 0.960 . S
H1518 C1532 0.960 . S
H1519 C1532 0.960 . S
C1520 H1512 0.929 . S
C1520 C1521 1.377 . S
C1520 C1522 1.384 . S
C1521 C1520 1.377 . S
C1521 C1527 1.390 . S
C1522 H1513 0.930 . S
C1522 C1520 1.384 . S
C1522 C1523 1.372 . S
C1523 C1522 1.372 . S
C1523 C1524 1.400 . S
C1523 C1528 1.490 . S
C1524 H1514 0.930 . S
C1524 C1523 1.400 . S
C1524 C1527 1.386 . S
H1525 C1541 0.930 . S
H1526 C1542 0.931 . S
C1527 H1515 0.929 . S
C1527 C1521 1.390 . S
C1527 C1524 1.386 . S
C1528 C1523 1.490 . S
C1528 C1530 1.395 . S
C1528 C1531 1.403 . S
H1529 C1535 0.930 . S
C1530 H1516 0.930 . S
C1530 C1528 1.395 . S
C1530 C1533 1.403 . S
C1531 C1528 1.403 . S
C1531 C1532 1.524 . S
C1531 C1535 1.400 . S
C1532 H1517 0.960 . S
C1532 H1518 0.960 . S
C1532 H1519 0.960 . S
C1532 C1531 1.524 . S
C1533 C1530 1.403 . S
C1533 C1534 1.392 . S
C1533 C1537 1.495 . S
C1534 C1533 1.392 . S
C1534 C1535 1.385 . S
C1534 C1536 1.478 . S
C1535 H1529 0.930 . S
C1535 C1531 1.400 . S
C1535 C1534 1.385 . S
C1536 C1534 1.478 . S
C1536 C1538 1.381 . S
C1536 C1542 1.383 . S
C1537 C1533 1.495 . S
C1537 H1543 0.959 . S
C1537 H1544 0.961 . S
C1537 H1545 0.960 . S
C1538 C1536 1.381 . S
C1538 C1539 1.394 . S
C1538 H1546 0.930 . S
C1539 C1538 1.394 . S
C1539 C1540 1.383 . S
C1539 H1547 0.929 . S
C1540 C1539 1.383 . S
C1540 C1541 1.377 . S
C1541 H1525 0.930 . S
C1541 C1540 1.377 . S
C1541 C1542 1.379 . S
C1542 H1526 0.931 . S
C1542 C1536 1.383 . S
C1542 C1541 1.379 . S
H1543 C1537 0.959 . S
H1544 C1537 0.961 . S
H1545 C1537 0.960 . S
H1546 C1538 0.930 . S
H1547 C1539 0.929 . S
H1548 C1556 0.929 . S
H1549 C1558 0.930 . S
H1550 C1560 0.930 . S
H1551 C1563 0.929 . S
H1552 C1566 0.930 . S
H1553 C1568 0.960 . S
H1554 C1568 0.960 . S
H1555 C1568 0.960 . S
C1556 H1548 0.929 . S
C1556 C1557 1.377 . S
C1556 C1558 1.384 . S
C1557 C1556 1.377 . S
C1557 C1563 1.390 . S
C1558 H1549 0.930 . S
C1558 C1556 1.384 . S
C1558 C1559 1.372 . S
C1559 C1558 1.372 . S
C1559 C1560 1.400 . S
C1559 C1564 1.490 . S
C1560 H1550 0.930 . S
C1560 C1559 1.400 . S
C1560 C1563 1.386 . S
H1561 C1577 0.930 . S
H1562 C1578 0.931 . S
C1563 H1551 0.929 . S
C1563 C1557 1.390 . S
C1563 C1560 1.386 . S
C1564 C1559 1.490 . S
C1564 C1566 1.395 . S
C1564 C1567 1.403 . S
H1565 C1571 0.930 . S
C1566 H1552 0.930 . S
C1566 C1564 1.395 . S
C1566 C1569 1.403 . S
C1567 C1564 1.403 . S
C1567 C1568 1.524 . S
C1567 C1571 1.400 . S
C1568 H1553 0.960 . S
C1568 H1554 0.960 . S
C1568 H1555 0.960 . S
C1568 C1567 1.524 . S
C1569 C1566 1.403 . S
C1569 C1570 1.392 . S
C1569 C1573 1.495 . S
C1570 C1569 1.392 . S
C1570 C1571 1.385 . S
C1570 C1572 1.478 . S
C1571 H1565 0.930 . S
C1571 C1567 1.400 . S
C1571 C1570 1.385 . S
C1572 C1570 1.478 . S
C1572 C1574 1.381 . S
C1572 C1578 1.383 . S
C1573 C1569 1.495 . S
C1573 H1579 0.959 . S
C1573 H1580 0.961 . S
C1573 H1581 0.960 . S
C1574 C1572 1.381 . S
C1574 C1575 1.394 . S
C1574 H1582 0.930 . S
C1575 C1574 1.394 . S
C1575 C1576 1.383 . S
C1575 H1583 0.929 . S
C1576 C1575 1.383 . S
C1576 C1577 1.377 . S
C1577 H1561 0.930 . S
C1577 C1576 1.377 . S
C1577 C1578 1.379 . S
C1578 H1562 0.931 . S
C1578 C1572 1.383 . S
C1578 C1577 1.379 . S
H1579 C1573 0.959 . S
H1580 C1573 0.961 . S
H1581 C1573 0.960 . S
H1582 C1574 0.930 . S
H1583 C1575 0.929 . S
H1584 C1592 0.929 . S
H1585 C1594 0.930 . S
H1586 C1596 0.930 . S
H1587 C1599 0.929 . S
H1588 C1602 0.930 . S
H1589 C1604 0.960 . S
H1590 C1604 0.960 . S
H1591 C1604 0.960 . S
C1592 H1584 0.929 . S
C1592 C1593 1.377 . S
C1592 C1594 1.384 . S
C1593 C1592 1.377 . S
C1593 C1599 1.390 . S
C1594 H1585 0.930 . S
C1594 C1592 1.384 . S
C1594 C1595 1.372 . S
C1595 C1594 1.372 . S
C1595 C1596 1.400 . S
C1595 C1600 1.490 . S
C1596 H1586 0.930 . S
C1596 C1595 1.400 . S
C1596 C1599 1.386 . S
H1597 C1613 0.930 . S
H1598 C1614 0.931 . S
C1599 H1587 0.929 . S
C1599 C1593 1.390 . S
C1599 C1596 1.386 . S
C1600 C1595 1.490 . S
C1600 C1602 1.395 . S
C1600 C1603 1.403 . S
H1601 C1607 0.930 . S
C1602 H1588 0.930 . S
C1602 C1600 1.395 . S
C1602 C1605 1.403 . S
C1603 C1600 1.403 . S
C1603 C1604 1.524 . S
C1603 C1607 1.400 . S
C1604 H1589 0.960 . S
C1604 H1590 0.960 . S
C1604 H1591 0.960 . S
C1604 C1603 1.524 . S
C1605 C1602 1.403 . S
C1605 C1606 1.392 . S
C1605 C1609 1.495 . S
C1606 C1605 1.392 . S
C1606 C1607 1.385 . S
C1606 C1608 1.478 . S
C1607 H1601 0.930 . S
C1607 C1603 1.400 . S
C1607 C1606 1.385 . S
C1608 C1606 1.478 . S
C1608 C1610 1.381 . S
C1608 C1614 1.383 . S
C1609 C1605 1.495 . S
C1609 H1615 0.959 1_556 S
C1609 H1616 0.961 1_556 S
C1609 H1617 0.965 . S
C1610 C1608 1.381 . S
C1610 C1611 1.394 . S
C1610 H1618 0.930 . S
C1611 C1610 1.394 . S
C1611 C1612 1.383 . S
C1611 H1619 0.929 . S
C1612 C1611 1.383 . S
C1612 C1613 1.377 . S
C1613 H1597 0.930 . S
C1613 C1612 1.377 . S
C1613 C1614 1.379 . S
C1614 H1598 0.931 . S
C1614 C1608 1.383 . S
C1614 C1613 1.379 . S
H1615 C1609 0.959 1_554 S
H1616 C1609 0.961 1_554 S
H1617 C1609 0.965 . S
H1618 C1610 0.930 . S
H1619 C1611 0.929 . S
H1620 C1628 0.929 . S
H1621 C1630 0.930 . S
H1622 C1632 0.930 . S
H1623 C1635 0.929 . S
H1624 C1638 0.930 . S
H1625 C1640 0.960 . S
H1626 C1640 0.960 . S
H1627 C1640 0.960 . S
C1628 H1620 0.929 . S
C1628 C1629 1.377 . S
C1628 C1630 1.384 . S
C1629 C1628 1.377 . S
C1629 C1635 1.390 . S
C1630 H1621 0.930 . S
C1630 C1628 1.384 . S
C1630 C1631 1.372 . S
C1631 C1630 1.372 . S
C1631 C1632 1.400 . S
C1631 C1636 1.490 . S
C1632 H1622 0.930 . S
C1632 C1631 1.400 . S
C1632 C1635 1.386 . S
H1633 C1649 0.930 1_554 S
H1634 C1650 0.931 . S
C1635 H1623 0.929 . S
C1635 C1629 1.390 . S
C1635 C1632 1.386 . S
C1636 C1631 1.490 . S
C1636 C1638 1.395 . S
C1636 C1639 1.403 . S
H1637 C1643 0.930 . S
C1638 H1624 0.930 . S
C1638 C1636 1.395 . S
C1638 C1641 1.403 . S
C1639 C1636 1.403 . S
C1639 C1640 1.524 . S
C1639 C1643 1.400 . S
C1640 H1625 0.960 . S
C1640 H1626 0.960 . S
C1640 H1627 0.960 . S
C1640 C1639 1.524 . S
C1641 C1638 1.403 . S
C1641 C1642 1.392 . S
C1641 C1645 1.495 . S
C1642 C1641 1.392 . S
C1642 C1643 1.385 . S
C1642 C1644 1.478 . S
C1643 H1637 0.930 . S
C1643 C1639 1.400 . S
C1643 C1642 1.385 . S
C1644 C1642 1.478 . S
C1644 C1646 1.381 . S
C1644 C1650 1.383 . S
C1645 C1641 1.495 . S
C1645 H1651 0.959 . S
C1645 H1652 0.961 . S
C1645 H1653 0.960 . S
C1646 C1644 1.381 . S
C1646 C1647 1.394 . S
C1646 H1654 0.930 . S
C1647 C1646 1.394 . S
C1647 C1648 1.383 . S
C1647 H1655 0.929 . S
C1648 C1647 1.383 . S
C1648 C1649 1.377 . S
C1649 H1633 0.930 1_556 S
C1649 C1648 1.377 . S
C1649 C1650 1.379 . S
C1650 H1634 0.931 . S
C1650 C1644 1.383 . S
C1650 C1649 1.379 . S
H1651 C1645 0.959 . S
H1652 C1645 0.961 . S
H1653 C1645 0.960 . S
H1654 C1646 0.930 . S
H1655 C1647 0.929 . S
H1656 C1664 0.929 . S
H1657 C1666 0.930 . S
H1658 C1668 0.930 . S
H1659 C1671 0.929 . S
H1660 C1674 0.930 . S
H1661 C1676 0.960 . S
H1662 C1676 0.960 . S
H1663 C1676 0.960 . S
C1664 H1656 0.929 . S
C1664 C1665 1.377 . S
C1664 C1666 1.384 . S
C1665 C1664 1.377 . S
C1665 C1671 1.390 . S
C1666 H1657 0.930 . S
C1666 C1664 1.384 . S
C1666 C1667 1.372 . S
C1667 C1666 1.372 . S
C1667 C1668 1.400 . S
C1667 C1672 1.490 . S
C1668 H1658 0.930 . S
C1668 C1667 1.400 . S
C1668 C1671 1.386 . S
H1669 C1685 0.930 . S
H1670 C1686 0.931 . S
C1671 H1659 0.929 . S
C1671 C1665 1.390 . S
C1671 C1668 1.386 . S
C1672 C1667 1.490 . S
C1672 C1674 1.395 . S
C1672 C1675 1.403 . S
H1673 C1679 0.930 . S
C1674 H1660 0.930 . S
C1674 C1672 1.395 . S
C1674 C1677 1.403 . S
C1675 C1672 1.403 . S
C1675 C1676 1.524 . S
C1675 C1679 1.400 . S
C1676 H1661 0.960 . S
C1676 H1662 0.960 . S
C1676 H1663 0.960 . S
C1676 C1675 1.524 . S
C1677 C1674 1.403 . S
C1677 C1678 1.392 . S
C1677 C1681 1.495 . S
C1678 C1677 1.392 . S
C1678 C1679 1.385 . S
C1678 C1680 1.478 . S
C1679 H1673 0.930 . S
C1679 C1675 1.400 . S
C1679 C1678 1.385 . S
C1680 C1678 1.478 . S
C1680 C1682 1.381 . S
C1680 C1686 1.383 . S
C1681 C1677 1.495 . S
C1681 H1687 0.959 . S
C1681 H1688 0.961 . S
C1681 H1689 0.960 . S
C1682 C1680 1.381 . S
C1682 C1683 1.394 . S
C1682 H1690 0.930 . S
C1683 C1682 1.394 . S
C1683 C1684 1.383 . S
C1683 H1691 0.929 . S
C1684 C1683 1.383 . S
C1684 C1685 1.377 . S
C1685 H1669 0.930 . S
C1685 C1684 1.377 . S
C1685 C1686 1.379 . S
C1686 H1670 0.931 . S
C1686 C1680 1.383 . S
C1686 C1685 1.379 . S
H1687 C1681 0.959 . S
H1688 C1681 0.961 . S
H1689 C1681 0.960 . S
H1690 C1682 0.930 . S
H1691 C1683 0.929 . S
H1692 C1700 0.929 . S
H1693 C1702 0.930 . S
H1694 C1704 0.930 . S
H1695 C1707 0.929 . S
H1696 C1710 0.930 . S
H1697 C1712 0.960 . S
H1698 C1712 0.960 . S
H1699 C1712 0.960 . S
C1700 H1692 0.929 . S
C1700 C1701 1.377 . S
C1700 C1702 1.384 . S
C1701 C1700 1.377 . S
C1701 C1707 1.390 . S
C1702 H1693 0.930 . S
C1702 C1700 1.384 . S
C1702 C1703 1.372 . S
C1703 C1702 1.372 . S
C1703 C1704 1.400 . S
C1703 C1708 1.490 . S
C1704 H1694 0.930 . S
C1704 C1703 1.400 . S
C1704 C1707 1.386 . S
H1705 C1721 0.930 1_554 S
H1706 C1722 0.931 . S
C1707 H1695 0.929 . S
C1707 C1701 1.390 . S
C1707 C1704 1.386 . S
C1708 C1703 1.490 . S
C1708 C1710 1.395 . S
C1708 C1711 1.403 . S
H1709 C1715 0.930 . S
C1710 H1696 0.930 . S
C1710 C1708 1.395 . S
C1710 C1713 1.403 . S
C1711 C1708 1.403 . S
C1711 C1712 1.524 . S
C1711 C1715 1.400 . S
C1712 H1697 0.960 . S
C1712 H1698 0.960 . S
C1712 H1699 0.960 . S
C1712 C1711 1.524 . S
C1713 C1710 1.403 . S
C1713 C1714 1.392 . S
C1713 C1717 1.495 . S
C1714 C1713 1.392 . S
C1714 C1715 1.385 . S
C1714 C1716 1.478 . S
C1715 H1709 0.930 . S
C1715 C1711 1.400 . S
C1715 C1714 1.385 . S
C1716 C1714 1.478 . S
C1716 C1718 1.381 . S
C1716 C1722 1.383 . S
C1717 C1713 1.495 . S
C1717 H1723 0.959 . S
C1717 H1724 0.961 . S
C1717 H1725 0.960 . S
C1718 C1716 1.381 . S
C1718 C1719 1.394 . S
C1718 H1726 0.930 . S
C1719 C1718 1.394 . S
C1719 C1720 1.383 . S
C1719 H1727 0.929 . S
C1720 C1719 1.383 . S
C1720 C1721 1.377 . S
C1721 H1705 0.930 1_556 S
C1721 C1720 1.377 . S
C1721 C1722 1.379 . S
C1722 H1706 0.931 . S
C1722 C1716 1.383 . S
C1722 C1721 1.379 . S
H1723 C1717 0.959 . S
H1724 C1717 0.961 . S
H1725 C1717 0.960 . S
H1726 C1718 0.930 . S
H1727 C1719 0.929 . S
H1728 C1736 0.929 . S
H1729 C1738 0.930 . S
H1730 C1740 0.930 . S
H1731 C1743 0.929 . S
H1732 C1746 0.930 . S
H1733 C1748 0.960 . S
H1734 C1748 0.960 . S
H1735 C1748 0.960 . S
C1736 H1728 0.929 . S
C1736 C1737 1.377 . S
C1736 C1738 1.384 . S
C1737 C1736 1.377 . S
C1737 C1743 1.390 . S
C1738 H1729 0.930 . S
C1738 C1736 1.384 . S
C1738 C1739 1.372 . S
C1739 C1738 1.372 . S
C1739 C1740 1.400 . S
C1739 C1744 1.490 . S
C1740 H1730 0.930 . S
C1740 C1739 1.400 . S
C1740 C1743 1.386 . S
H1741 C1757 0.930 1_554 S
H1742 C1758 0.931 . S
C1743 H1731 0.929 . S
C1743 C1737 1.390 . S
C1743 C1740 1.386 . S
C1744 C1739 1.490 . S
C1744 C1746 1.395 . S
C1744 C1747 1.403 . S
H1745 C1751 0.930 . S
C1746 H1732 0.930 . S
C1746 C1744 1.395 . S
C1746 C1749 1.403 . S
C1747 C1744 1.403 . S
C1747 C1748 1.524 . S
C1747 C1751 1.400 . S
C1748 H1733 0.960 . S
C1748 H1734 0.960 . S
C1748 H1735 0.960 . S
C1748 C1747 1.524 . S
C1749 C1746 1.403 . S
C1749 C1750 1.392 . S
C1749 C1753 1.495 . S
C1750 C1749 1.392 . S
C1750 C1751 1.385 . S
C1750 C1752 1.478 . S
C1751 H1745 0.930 . S
C1751 C1747 1.400 . S
C1751 C1750 1.385 . S
C1752 C1750 1.478 . S
C1752 C1754 1.381 . S
C1752 C1758 1.383 . S
C1753 C1749 1.495 . S
C1753 H1759 0.959 . S
C1753 H1760 0.961 . S
C1753 H1761 0.960 . S
C1754 C1752 1.381 . S
C1754 C1755 1.394 . S
C1754 H1762 0.930 . S
C1755 C1754 1.394 . S
C1755 C1756 1.383 . S
C1755 H1763 0.929 . S
C1756 C1755 1.383 . S
C1756 C1757 1.377 . S
C1757 H1741 0.930 1_556 S
C1757 C1756 1.377 . S
C1757 C1758 1.379 . S
C1758 H1742 0.931 . S
C1758 C1752 1.383 . S
C1758 C1757 1.379 . S
H1759 C1753 0.959 . S
H1760 C1753 0.961 . S
H1761 C1753 0.960 . S
H1762 C1754 0.930 . S
H1763 C1755 0.929 . S
H1764 C1772 0.929 . S
H1765 C1774 0.930 . S
H1766 C1776 0.930 . S
H1767 C1779 0.929 . S
H1768 C1782 0.930 . S
H1769 C1784 0.960 . S
H1770 C1784 0.960 . S
H1771 C1784 0.960 . S
C1772 H1764 0.929 . S
C1772 C1773 1.377 . S
C1772 C1774 1.384 . S
C1773 C1772 1.377 . S
C1773 C1779 1.390 . S
C1774 H1765 0.930 . S
C1774 C1772 1.384 . S
C1774 C1775 1.372 . S
C1775 C1774 1.372 . S
C1775 C1776 1.400 . S
C1775 C1780 1.490 . S
C1776 H1766 0.930 . S
C1776 C1775 1.400 . S
C1776 C1779 1.386 . S
H1777 C1793 0.930 . S
H1778 C1794 0.931 . S
C1779 H1767 0.929 . S
C1779 C1773 1.390 . S
C1779 C1776 1.386 . S
C1780 C1775 1.490 . S
C1780 C1782 1.395 . S
C1780 C1783 1.403 . S
H1781 C1787 0.930 . S
C1782 H1768 0.930 . S
C1782 C1780 1.395 . S
C1782 C1785 1.403 . S
C1783 C1780 1.403 . S
C1783 C1784 1.524 . S
C1783 C1787 1.400 . S
C1784 H1769 0.960 . S
C1784 H1770 0.960 . S
C1784 H1771 0.960 . S
C1784 C1783 1.524 . S
C1785 C1782 1.403 . S
C1785 C1786 1.392 . S
C1785 C1789 1.495 . S
C1786 C1785 1.392 . S
C1786 C1787 1.385 . S
C1786 C1788 1.478 . S
C1787 H1781 0.930 . S
C1787 C1783 1.400 . S
C1787 C1786 1.385 . S
C1788 C1786 1.478 . S
C1788 C1790 1.381 . S
C1788 C1794 1.383 . S
C1789 C1785 1.495 . S
C1789 H1795 0.972 . S
C1789 H1796 0.961 . S
C1789 H1797 0.960 1_556 S
C1790 C1788 1.381 . S
C1790 C1791 1.394 . S
C1790 H1798 0.937 . S
C1791 C1790 1.394 . S
C1791 C1792 1.383 . S
C1791 H1799 0.929 1_556 S
C1792 C1791 1.383 . S
C1792 C1793 1.377 . S
C1793 H1777 0.930 . S
C1793 C1792 1.377 . S
C1793 C1794 1.379 . S
C1794 H1778 0.931 . S
C1794 C1788 1.383 . S
C1794 C1793 1.379 . S
H1795 C1789 0.972 . S
H1796 C1789 0.961 . S
H1797 C1789 0.960 1_554 S
H1798 C1790 0.937 . S
H1799 C1791 0.929 1_554 S
H1800 C1808 0.929 . S
H1801 C1810 0.930 . S
H1802 C1812 0.930 . S
H1803 C1815 0.929 . S
H1804 C1818 0.930 . S
H1805 C1820 0.960 . S
H1806 C1820 0.960 . S
H1807 C1820 0.960 . S
C1808 H1800 0.929 . S
C1808 C1809 1.377 . S
C1808 C1810 1.384 . S
C1809 C1808 1.377 . S
C1809 C1815 1.390 . S
C1810 H1801 0.930 . S
C1810 C1808 1.384 . S
C1810 C1811 1.372 . S
C1811 C1810 1.372 . S
C1811 C1812 1.400 . S
C1811 C1816 1.490 . S
C1812 H1802 0.930 . S
C1812 C1811 1.400 . S
C1812 C1815 1.386 . S
H1813 C1829 0.930 . S
H1814 C1830 0.931 . S
C1815 H1803 0.929 . S
C1815 C1809 1.390 . S
C1815 C1812 1.386 . S
C1816 C1811 1.490 . S
C1816 C1818 1.395 . S
C1816 C1819 1.403 . S
H1817 C1823 0.930 . S
C1818 H1804 0.930 . S
C1818 C1816 1.395 . S
C1818 C1821 1.403 . S
C1819 C1816 1.403 . S
C1819 C1820 1.524 . S
C1819 C1823 1.400 . S
C1820 H1805 0.960 . S
C1820 H1806 0.960 . S
C1820 H1807 0.960 . S
C1820 C1819 1.524 . S
C1821 C1818 1.403 . S
C1821 C1822 1.392 . S
C1821 C1825 1.495 . S
C1822 C1821 1.392 . S
C1822 C1823 1.385 . S
C1822 C1824 1.478 . S
C1823 H1817 0.930 . S
C1823 C1819 1.400 . S
C1823 C1822 1.385 . S
C1824 C1822 1.478 . S
C1824 C1826 1.381 . S
C1824 C1830 1.383 . S
C1825 C1821 1.495 . S
C1825 H1831 0.959 . S
C1825 H1832 0.961 . S
C1825 H1833 0.960 . S
C1826 C1824 1.381 . S
C1826 C1827 1.394 . S
C1826 H1834 0.930 . S
C1827 C1826 1.394 . S
C1827 C1828 1.383 . S
C1827 H1835 0.929 . S
C1828 C1827 1.383 . S
C1828 C1829 1.377 . S
C1829 H1813 0.930 . S
C1829 C1828 1.377 . S
C1829 C1830 1.379 . S
C1830 H1814 0.931 . S
C1830 C1824 1.383 . S
C1830 C1829 1.379 . S
H1831 C1825 0.959 . S
H1832 C1825 0.961 . S
H1833 C1825 0.960 . S
H1834 C1826 0.930 . S
H1835 C1827 0.929 . S
H1836 C1844 0.929 . S
H1837 C1846 0.930 . S
H1838 C1848 0.930 . S
H1839 C1851 0.929 . S
H1840 C1854 0.930 . S
H1841 C1856 0.960 . S
H1842 C1856 0.960 . S
H1843 C1856 0.960 . S
C1844 H1836 0.929 . S
C1844 C1845 1.377 . S
C1844 C1846 1.384 . S
C1845 C1844 1.377 . S
C1845 C1851 1.390 . S
C1846 H1837 0.930 . S
C1846 C1844 1.384 . S
C1846 C1847 1.372 . S
C1847 C1846 1.372 . S
C1847 C1848 1.400 . S
C1847 C1852 1.490 . S
C1848 H1838 0.930 . S
C1848 C1847 1.400 . S
C1848 C1851 1.386 . S
H1849 C1865 0.930 . S
H1850 C1866 0.931 . S
C1851 H1839 0.929 . S
C1851 C1845 1.390 . S
C1851 C1848 1.386 . S
C1852 C1847 1.490 . S
C1852 C1854 1.395 . S
C1852 C1855 1.403 . S
H1853 C1859 0.930 . S
C1854 H1840 0.930 . S
C1854 C1852 1.395 . S
C1854 C1857 1.403 . S
C1855 C1852 1.403 . S
C1855 C1856 1.524 . S
C1855 C1859 1.400 . S
C1856 H1841 0.960 . S
C1856 H1842 0.960 . S
C1856 H1843 0.960 . S
C1856 C1855 1.524 . S
C1857 C1854 1.403 . S
C1857 C1858 1.392 . S
C1857 C1861 1.495 . S
C1858 C1857 1.392 . S
C1858 C1859 1.385 . S
C1858 C1860 1.478 . S
C1859 H1853 0.930 . S
C1859 C1855 1.400 . S
C1859 C1858 1.385 . S
C1860 C1858 1.478 . S
C1860 C1862 1.381 . S
C1860 C1866 1.383 . S
C1861 C1857 1.495 . S
C1861 H1867 0.959 . S
C1861 H1868 0.961 . S
C1861 H1869 0.960 . S
C1862 C1860 1.381 . S
C1862 C1863 1.394 . S
C1862 H1870 0.930 . S
C1863 C1862 1.394 . S
C1863 C1864 1.383 . S
C1863 H1871 0.929 . S
C1864 C1863 1.383 . S
C1864 C1865 1.377 . S
C1865 H1849 0.930 . S
C1865 C1864 1.377 . S
C1865 C1866 1.379 . S
C1866 H1850 0.931 . S
C1866 C1860 1.383 . S
C1866 C1865 1.379 . S
H1867 C1861 0.959 . S
H1868 C1861 0.961 . S
H1869 C1861 0.960 . S
H1870 C1862 0.930 . S
H1871 C1863 0.929 . S
H1872 C1880 0.929 . S
H1873 C1882 0.930 . S
H1874 C1884 0.930 . S
H1875 C1887 0.929 . S
H1876 C1890 0.930 . S
H1877 C1892 0.960 . S
H1878 C1892 0.960 . S
H1879 C1892 0.960 . S
C1880 H1872 0.929 . S
C1880 C1881 1.377 . S
C1880 C1882 1.384 . S
C1881 C1880 1.377 . S
C1881 C1887 1.390 . S
C1882 H1873 0.930 . S
C1882 C1880 1.384 . S
C1882 C1883 1.372 . S
C1883 C1882 1.372 . S
C1883 C1884 1.400 . S
C1883 C1888 1.490 . S
C1884 H1874 0.930 . S
C1884 C1883 1.400 . S
C1884 C1887 1.386 . S
H1885 C1901 0.930 . S
H1886 C1902 0.931 . S
C1887 H1875 0.929 . S
C1887 C1881 1.390 . S
C1887 C1884 1.386 . S
C1888 C1883 1.490 . S
C1888 C1890 1.395 . S
C1888 C1891 1.403 . S
H1889 C1895 0.930 . S
C1890 H1876 0.930 . S
C1890 C1888 1.395 . S
C1890 C1893 1.403 . S
C1891 C1888 1.403 . S
C1891 C1892 1.524 . S
C1891 C1895 1.400 . S
C1892 H1877 0.960 . S
C1892 H1878 0.960 . S
C1892 H1879 0.960 . S
C1892 C1891 1.524 . S
C1893 C1890 1.403 . S
C1893 C1894 1.392 . S
C1893 C1897 1.495 . S
C1894 C1893 1.392 . S
C1894 C1895 1.385 . S
C1894 C1896 1.478 . S
C1895 H1889 0.930 . S
C1895 C1891 1.400 . S
C1895 C1894 1.385 . S
C1896 C1894 1.478 . S
C1896 C1898 1.381 . S
C1896 C1902 1.383 . S
C1897 C1893 1.495 . S
C1897 H1903 0.959 . S
C1897 H1904 0.961 . S
C1897 H1905 0.960 . S
C1898 C1896 1.381 . S
C1898 C1899 1.394 . S
C1898 H1906 0.930 . S
C1899 C1898 1.394 . S
C1899 C1900 1.383 . S
C1899 H1907 0.929 . S
C1900 C1899 1.383 . S
C1900 C1901 1.377 . S
C1901 H1885 0.930 . S
C1901 C1900 1.377 . S
C1901 C1902 1.379 . S
C1902 H1886 0.931 . S
C1902 C1896 1.383 . S
C1902 C1901 1.379 . S
H1903 C1897 0.959 . S
H1904 C1897 0.961 . S
H1905 C1897 0.960 . S
H1906 C1898 0.930 . S
H1907 C1899 0.929 . S
H1908 C1916 0.929 . S
H1909 C1918 0.930 . S
H1910 C1920 0.930 . S
H1911 C1923 0.929 . S
H1912 C1926 0.930 . S
H1913 C1928 0.960 . S
H1914 C1928 0.960 . S
H1915 C1928 0.960 . S
C1916 H1908 0.929 . S
C1916 C1917 1.377 . S
C1916 C1918 1.384 1_655 S
C1917 C1916 1.377 . S
C1917 C1923 1.390 . S
C1918 H1909 0.930 . S
C1918 C1916 1.384 1_455 S
C1918 C1919 1.372 . S
C1919 C1918 1.372 . S
C1919 C1920 1.400 . S
C1919 C1924 1.490 . S
C1920 H1910 0.930 . S
C1920 C1919 1.400 . S
C1920 C1923 1.386 1_455 S
H1921 C1937 0.930 . S
H1922 C1938 0.931 . S
C1923 H1911 0.929 . S
C1923 C1917 1.390 . S
C1923 C1920 1.386 1_655 S
C1924 C1919 1.490 . S
C1924 C1926 1.395 . S
C1924 C1927 1.403 . S
H1925 C1931 0.930 . S
C1926 H1912 0.930 . S
C1926 C1924 1.395 . S
C1926 C1929 1.403 . S
C1927 C1924 1.403 . S
C1927 C1928 1.524 . S
C1927 C1931 1.400 . S
C1928 H1913 0.960 . S
C1928 H1914 0.960 . S
C1928 H1915 0.960 . S
C1928 C1927 1.524 . S
C1929 C1926 1.403 . S
C1929 C1930 1.392 . S
C1929 C1933 1.495 . S
C1930 C1929 1.392 . S
C1930 C1931 1.385 . S
C1930 C1932 1.478 . S
C1931 H1925 0.930 . S
C1931 C1927 1.400 . S
C1931 C1930 1.385 . S
C1932 C1930 1.478 . S
C1932 C1934 1.381 . S
C1932 C1938 1.383 . S
C1933 C1929 1.495 . S
C1933 H1939 0.959 . S
C1933 H1940 0.961 . S
C1933 H1941 0.960 . S
C1934 C1932 1.381 . S
C1934 C1935 1.394 . S
C1934 H1942 0.930 . S
C1935 C1934 1.394 . S
C1935 C1936 1.383 . S
C1935 H1943 0.929 . S
C1936 C1935 1.383 . S
C1936 C1937 1.377 . S
C1937 H1921 0.930 . S
C1937 C1936 1.377 . S
C1937 C1938 1.379 . S
C1938 H1922 0.931 . S
C1938 C1932 1.383 . S
C1938 C1937 1.379 . S
H1939 C1933 0.959 . S
H1940 C1933 0.961 . S
H1941 C1933 0.960 . S
H1942 C1934 0.930 . S
H1943 C1935 0.929 . S
H1944 C1952 0.929 . S
H1945 C1954 0.930 . S
H1946 C1956 0.930 . S
H1947 C1959 0.929 . S
H1948 C1962 0.930 . S
H1949 C1964 0.960 . S
H1950 C1964 0.960 . S
H1951 C1964 0.960 . S
C1952 H1944 0.929 . S
C1952 C1953 1.377 . S
C1952 C1954 1.384 . S
C1953 C1952 1.377 . S
C1953 C1959 1.390 . S
C1954 H1945 0.930 . S
C1954 C1952 1.384 . S
C1954 C1955 1.372 . S
C1955 C1954 1.372 . S
C1955 C1956 1.400 . S
C1955 C1960 1.490 . S
C1956 H1946 0.930 . S
C1956 C1955 1.400 . S
C1956 C1959 1.386 . S
H1957 C1973 0.930 . S
H1958 C1974 0.931 . S
C1959 H1947 0.929 . S
C1959 C1953 1.390 . S
C1959 C1956 1.386 . S
C1960 C1955 1.490 . S
C1960 C1962 1.395 . S
C1960 C1963 1.403 . S
H1961 C1967 0.930 . S
C1962 H1948 0.930 . S
C1962 C1960 1.395 . S
C1962 C1965 1.403 . S
C1963 C1960 1.403 . S
C1963 C1964 1.524 . S
C1963 C1967 1.400 . S
C1964 H1949 0.960 . S
C1964 H1950 0.960 . S
C1964 H1951 0.960 . S
C1964 C1963 1.524 . S
C1965 C1962 1.403 . S
C1965 C1966 1.392 . S
C1965 C1969 1.495 . S
C1966 C1965 1.392 . S
C1966 C1967 1.385 . S
C1966 C1968 1.478 . S
C1967 H1961 0.930 . S
C1967 C1963 1.400 . S
C1967 C1966 1.385 . S
C1968 C1966 1.478 . S
C1968 C1970 1.381 . S
C1968 C1974 1.383 . S
C1969 C1965 1.495 . S
C1969 H1975 0.959 . S
C1969 H1976 0.961 . S
C1969 H1977 0.960 . S
C1970 C1968 1.381 . S
C1970 C1971 1.394 . S
C1970 H1978 0.930 . S
C1971 C1970 1.394 . S
C1971 C1972 1.383 . S
C1971 H1979 0.929 . S
C1972 C1971 1.383 . S
C1972 C1973 1.377 . S
C1973 H1957 0.930 . S
C1973 C1972 1.377 . S
C1973 C1974 1.379 . S
C1974 H1958 0.931 . S
C1974 C1968 1.383 . S
C1974 C1973 1.379 . S
H1975 C1969 0.959 . S
H1976 C1969 0.961 . S
H1977 C1969 0.960 . S
H1978 C1970 0.930 . S
H1979 C1971 0.929 . S
H1980 C1988 0.929 . S
H1981 C1990 0.930 . S
H1982 C1992 0.930 . S
H1983 C1995 0.929 . S
H1984 C1998 0.930 . S
H1985 C2000 0.960 . S
H1986 C2000 0.960 . S
H1987 C2000 0.960 . S
C1988 H1980 0.929 . S
C1988 C1989 1.377 . S
C1988 C1990 1.384 . S
C1989 C1988 1.377 . S
C1989 C1995 1.390 . S
C1990 H1981 0.930 . S
C1990 C1988 1.384 . S
C1990 C1991 1.372 1_545 S
C1991 C1990 1.372 1_565 S
C1991 C1992 1.400 . S
C1991 C1996 1.490 . S
C1992 H1982 0.930 . S
C1992 C1991 1.400 . S
C1992 C1995 1.386 1_565 S
H1993 C2009 0.930 . S
H1994 C2010 0.931 . S
C1995 H1983 0.929 . S
C1995 C1989 1.390 . S
C1995 C1992 1.386 1_545 S
C1996 C1991 1.490 . S
C1996 C1998 1.395 . S
C1996 C1999 1.403 . S
H1997 C2003 0.930 . S
C1998 H1984 0.930 . S
C1998 C1996 1.395 . S
C1998 C2001 1.403 . S
C1999 C1996 1.403 . S
C1999 C2000 1.524 . S
C1999 C2003 1.400 . S
C2000 H1985 0.960 . S
C2000 H1986 0.960 . S
C2000 H1987 0.960 . S
C2000 C1999 1.524 . S
C2001 C1998 1.403 . S
C2001 C2002 1.392 . S
C2001 C2005 1.495 . S
C2002 C2001 1.392 . S
C2002 C2003 1.385 . S
C2002 C2004 1.478 . S
C2003 H1997 0.930 . S
C2003 C1999 1.400 . S
C2003 C2002 1.385 . S
C2004 C2002 1.478 . S
C2004 C2006 1.381 . S
C2004 C2010 1.383 . S
C2005 C2001 1.495 . S
C2005 H2011 0.959 . S
C2005 H2012 0.961 . S
C2005 H2013 0.960 . S
C2006 C2004 1.381 . S
C2006 C2007 1.394 . S
C2006 H2014 0.930 . S
C2007 C2006 1.394 . S
C2007 C2008 1.383 . S
C2007 H2015 0.929 . S
C2008 C2007 1.383 . S
C2008 C2009 1.377 . S
C2009 H1993 0.930 . S
C2009 C2008 1.377 . S
C2009 C2010 1.379 . S
C2010 H1994 0.931 . S
C2010 C2004 1.383 . S
C2010 C2009 1.379 . S
H2011 C2005 0.959 . S
H2012 C2005 0.961 . S
H2013 C2005 0.960 . S
H2014 C2006 0.930 . S
H2015 C2007 0.929 . S
H2016 C2024 0.929 . S
H2017 C2026 0.930 . S
H2018 C2028 0.930 . S
H2019 C2031 0.929 . S
H2020 C2034 0.930 . S
H2021 C2036 0.960 . S
H2022 C2036 0.960 . S
H2023 C2036 0.960 . S
C2024 H2016 0.929 . S
C2024 C2025 1.377 . S
C2024 C2026 1.384 . S
C2025 C2024 1.377 . S
C2025 C2031 1.390 . S
C2026 H2017 0.930 . S
C2026 C2024 1.384 . S
C2026 C2027 1.372 . S
C2027 C2026 1.372 . S
C2027 C2028 1.400 . S
C2027 C2032 1.490 . S
C2028 H2018 0.930 . S
C2028 C2027 1.400 . S
C2028 C2031 1.386 . S
H2029 C2045 0.930 . S
H2030 C2046 0.931 . S
C2031 H2019 0.929 . S
C2031 C2025 1.390 . S
C2031 C2028 1.386 . S
C2032 C2027 1.490 . S
C2032 C2034 1.395 . S
C2032 C2035 1.403 . S
H2033 C2039 0.930 . S
C2034 H2020 0.930 . S
C2034 C2032 1.395 . S
C2034 C2037 1.403 . S
C2035 C2032 1.403 . S
C2035 C2036 1.524 . S
C2035 C2039 1.400 . S
C2036 H2021 0.960 . S
C2036 H2022 0.960 . S
C2036 H2023 0.960 . S
C2036 C2035 1.524 . S
C2037 C2034 1.403 . S
C2037 C2038 1.392 . S
C2037 C2041 1.495 . S
C2038 C2037 1.392 . S
C2038 C2039 1.385 . S
C2038 C2040 1.478 . S
C2039 H2033 0.930 . S
C2039 C2035 1.400 . S
C2039 C2038 1.385 . S
C2040 C2038 1.478 . S
C2040 C2042 1.381 . S
C2040 C2046 1.383 . S
C2041 C2037 1.495 . S
C2041 H2047 0.959 . S
C2041 H2048 0.961 . S
C2041 H2049 0.960 . S
C2042 C2040 1.381 . S
C2042 C2043 1.394 . S
C2042 H2050 0.930 . S
C2043 C2042 1.394 . S
C2043 C2044 1.383 . S
C2043 H2051 0.929 . S
C2044 C2043 1.383 . S
C2044 C2045 1.377 . S
C2045 H2029 0.930 . S
C2045 C2044 1.377 . S
C2045 C2046 1.379 . S
C2046 H2030 0.931 . S
C2046 C2040 1.383 . S
C2046 C2045 1.379 . S
H2047 C2041 0.959 . S
H2048 C2041 0.961 . S
H2049 C2041 0.960 . S
H2050 C2042 0.930 . S
H2051 C2043 0.929 . S
H2052 C2060 0.929 . S
H2053 C2062 0.930 . S
H2054 C2064 0.930 . S
H2055 C2067 0.929 . S
H2056 C2070 0.930 . S
H2057 C2072 0.960 . S
H2058 C2072 0.960 . S
H2059 C2072 0.960 . S
C2060 H2052 0.929 . S
C2060 C2061 1.377 . S
C2060 C2062 1.384 . S
C2061 C2060 1.377 . S
C2061 C2067 1.390 . S
C2062 H2053 0.930 . S
C2062 C2060 1.384 . S
C2062 C2063 1.372 . S
C2063 C2062 1.372 . S
C2063 C2064 1.400 . S
C2063 C2068 1.490 . S
C2064 H2054 0.930 . S
C2064 C2063 1.400 . S
C2064 C2067 1.386 . S
H2065 C2081 0.930 . S
H2066 C2082 0.931 . S
C2067 H2055 0.929 . S
C2067 C2061 1.390 . S
C2067 C2064 1.386 . S
C2068 C2063 1.490 . S
C2068 C2070 1.395 . S
C2068 C2071 1.403 . S
H2069 C2075 0.930 . S
C2070 H2056 0.930 . S
C2070 C2068 1.395 . S
C2070 C2073 1.403 . S
C2071 C2068 1.403 . S
C2071 C2072 1.524 . S
C2071 C2075 1.400 . S
C2072 H2057 0.960 . S
C2072 H2058 0.960 . S
C2072 H2059 0.960 . S
C2072 C2071 1.524 . S
C2073 C2070 1.403 . S
C2073 C2074 1.392 . S
C2073 C2077 1.495 . S
C2074 C2073 1.392 . S
C2074 C2075 1.385 . S
C2074 C2076 1.478 . S
C2075 H2069 0.930 . S
C2075 C2071 1.400 . S
C2075 C2074 1.385 . S
C2076 C2074 1.478 . S
C2076 C2078 1.381 . S
C2076 C2082 1.383 . S
C2077 C2073 1.495 . S
C2077 H2083 0.959 . S
C2077 H2084 0.961 . S
C2077 H2085 0.960 . S
C2078 C2076 1.381 . S
C2078 C2079 1.394 . S
C2078 H2086 0.930 . S
C2079 C2078 1.394 . S
C2079 C2080 1.383 . S
C2079 H2087 0.929 . S
C2080 C2079 1.383 . S
C2080 C2081 1.377 . S
C2081 H2065 0.930 . S
C2081 C2080 1.377 . S
C2081 C2082 1.379 . S
C2082 H2066 0.931 . S
C2082 C2076 1.383 . S
C2082 C2081 1.379 . S
H2083 C2077 0.959 . S
H2084 C2077 0.961 . S
H2085 C2077 0.960 . S
H2086 C2078 0.930 . S
H2087 C2079 0.929 . S
H2088 C2096 0.929 . S
H2089 C2098 0.930 . S
H2090 C2100 0.930 . S
H2091 C2103 0.929 . S
H2092 C2106 0.930 . S
H2093 C2108 0.960 . S
H2094 C2108 0.960 . S
H2095 C2108 0.960 . S
C2096 H2088 0.929 . S
C2096 C2097 1.377 . S
C2096 C2098 1.384 . S
C2097 C2096 1.377 . S
C2097 C2103 1.390 . S
C2098 H2089 0.930 . S
C2098 C2096 1.384 . S
C2098 C2099 1.372 . S
C2099 C2098 1.372 . S
C2099 C2100 1.400 . S
C2099 C2104 1.490 . S
C2100 H2090 0.930 . S
C2100 C2099 1.400 . S
C2100 C2103 1.386 . S
H2101 C2117 0.930 . S
H2102 C2118 0.931 . S
C2103 H2091 0.929 . S
C2103 C2097 1.390 . S
C2103 C2100 1.386 . S
C2104 C2099 1.490 . S
C2104 C2106 1.395 . S
C2104 C2107 1.403 . S
H2105 C2111 0.930 . S
C2106 H2092 0.930 . S
C2106 C2104 1.395 . S
C2106 C2109 1.403 . S
C2107 C2104 1.403 . S
C2107 C2108 1.524 . S
C2107 C2111 1.400 . S
C2108 H2093 0.960 . S
C2108 H2094 0.960 . S
C2108 H2095 0.960 . S
C2108 C2107 1.524 . S
C2109 C2106 1.403 . S
C2109 C2110 1.392 . S
C2109 C2113 1.495 . S
C2110 C2109 1.392 . S
C2110 C2111 1.385 . S
C2110 C2112 1.478 . S
C2111 H2105 0.930 . S
C2111 C2107 1.400 . S
C2111 C2110 1.385 . S
C2112 C2110 1.478 . S
C2112 C2114 1.381 . S
C2112 C2118 1.383 . S
C2113 C2109 1.495 . S
C2113 H2119 0.959 . S
C2113 H2120 0.961 . S
C2113 H2121 0.960 . S
C2114 C2112 1.381 . S
C2114 C2115 1.394 . S
C2114 H2122 0.930 . S
C2115 C2114 1.394 . S
C2115 C2116 1.383 . S
C2115 H2123 0.929 . S
C2116 C2115 1.383 . S
C2116 C2117 1.377 . S
C2117 H2101 0.930 . S
C2117 C2116 1.377 . S
C2117 C2118 1.379 . S
C2118 H2102 0.931 . S
C2118 C2112 1.383 . S
C2118 C2117 1.379 . S
H2119 C2113 0.959 . S
H2120 C2113 0.961 . S
H2121 C2113 0.960 . S
H2122 C2114 0.930 . S
H2123 C2115 0.929 . S
H2124 C2132 0.929 . S
H2125 C2134 0.930 . S
H2126 C2136 0.930 . S
H2127 C2139 0.929 . S
H2128 C2142 0.930 . S
H2129 C2144 0.960 . S
H2130 C2144 0.960 . S
H2131 C2144 0.960 . S
C2132 H2124 0.929 . S
C2132 C2133 1.377 . S
C2132 C2134 1.384 . S
C2133 C2132 1.377 . S
C2133 C2139 1.390 . S
C2134 H2125 0.930 . S
C2134 C2132 1.384 . S
C2134 C2135 1.372 . S
C2135 C2134 1.372 . S
C2135 C2136 1.400 . S
C2135 C2140 1.490 . S
C2136 H2126 0.930 . S
C2136 C2135 1.400 . S
C2136 C2139 1.386 . S
H2137 C2153 0.930 . S
H2138 C2154 0.931 . S
C2139 H2127 0.929 . S
C2139 C2133 1.390 . S
C2139 C2136 1.386 . S
C2140 C2135 1.490 . S
C2140 C2142 1.395 . S
C2140 C2143 1.403 . S
H2141 C2147 0.930 . S
C2142 H2128 0.930 . S
C2142 C2140 1.395 . S
C2142 C2145 1.403 . S
C2143 C2140 1.403 . S
C2143 C2144 1.524 . S
C2143 C2147 1.400 . S
C2144 H2129 0.960 . S
C2144 H2130 0.960 . S
C2144 H2131 0.960 . S
C2144 C2143 1.524 . S
C2145 C2142 1.403 . S
C2145 C2146 1.392 . S
C2145 C2149 1.495 . S
C2146 C2145 1.392 . S
C2146 C2147 1.385 . S
C2146 C2148 1.478 . S
C2147 H2141 0.930 . S
C2147 C2143 1.400 . S
C2147 C2146 1.385 . S
C2148 C2146 1.478 . S
C2148 C2150 1.381 . S
C2148 C2154 1.383 . S
C2149 C2145 1.495 . S
C2149 H2155 0.959 . S
C2149 H2156 0.961 . S
C2149 H2157 0.960 . S
C2150 C2148 1.381 . S
C2150 C2151 1.394 . S
C2150 H2158 0.930 . S
C2151 C2150 1.394 . S
C2151 C2152 1.383 . S
C2151 H2159 0.929 . S
C2152 C2151 1.383 . S
C2152 C2153 1.377 . S
C2153 H2137 0.930 . S
C2153 C2152 1.377 . S
C2153 C2154 1.379 . S
C2154 H2138 0.931 . S
C2154 C2148 1.383 . S
C2154 C2153 1.379 . S
H2155 C2149 0.959 . S
H2156 C2149 0.961 . S
H2157 C2149 0.960 . S
H2158 C2150 0.930 . S
H2159 C2151 0.929 . S
H2160 C2168 0.929 . S
H2161 C2170 0.930 . S
H2162 C2172 0.930 . S
H2163 C2175 0.929 . S
H2164 C2178 0.930 . S
H2165 C2180 0.960 . S
H2166 C2180 0.960 . S
H2167 C2180 0.960 . S
C2168 H2160 0.929 . S
C2168 C2169 1.377 . S
C2168 C2170 1.384 . S
C2169 C2168 1.377 . S
C2169 C2175 1.390 . S
C2170 H2161 0.930 . S
C2170 C2168 1.384 . S
C2170 C2171 1.372 . S
C2171 C2170 1.372 . S
C2171 C2172 1.400 . S
C2171 C2176 1.490 . S
C2172 H2162 0.930 . S
C2172 C2171 1.400 . S
C2172 C2175 1.386 . S
H2173 C2189 0.930 . S
H2174 C2190 0.931 . S
C2175 H2163 0.929 . S
C2175 C2169 1.390 . S
C2175 C2172 1.386 . S
C2176 C2171 1.490 . S
C2176 C2178 1.395 . S
C2176 C2179 1.403 . S
H2177 C2183 0.930 . S
C2178 H2164 0.930 . S
C2178 C2176 1.395 . S
C2178 C2181 1.403 . S
C2179 C2176 1.403 . S
C2179 C2180 1.524 . S
C2179 C2183 1.400 . S
C2180 H2165 0.960 . S
C2180 H2166 0.960 . S
C2180 H2167 0.960 . S
C2180 C2179 1.524 . S
C2181 C2178 1.403 . S
C2181 C2182 1.392 . S
C2181 C2185 1.495 . S
C2182 C2181 1.392 . S
C2182 C2183 1.385 . S
C2182 C2184 1.478 . S
C2183 H2177 0.930 . S
C2183 C2179 1.400 . S
C2183 C2182 1.385 . S
C2184 C2182 1.478 . S
C2184 C2186 1.381 . S
C2184 C2190 1.383 . S
C2185 C2181 1.495 . S
C2185 H2191 0.959 . S
C2185 H2192 0.961 . S
C2185 H2193 0.960 . S
C2186 C2184 1.381 . S
C2186 C2187 1.394 . S
C2186 H2194 0.930 . S
C2187 C2186 1.394 . S
C2187 C2188 1.383 . S
C2187 H2195 0.929 . S
C2188 C2187 1.383 . S
C2188 C2189 1.377 . S
C2189 H2173 0.930 . S
C2189 C2188 1.377 . S
C2189 C2190 1.379 . S
C2190 H2174 0.931 . S
C2190 C2184 1.383 . S
C2190 C2189 1.379 . S
H2191 C2185 0.959 . S
H2192 C2185 0.961 . S
H2193 C2185 0.960 . S
H2194 C2186 0.930 . S
H2195 C2187 0.929 . S
H2196 C2204 0.929 . S
H2197 C2206 0.930 . S
H2198 C2208 0.930 . S
H2199 C2211 0.929 . S
H2200 C2214 0.930 . S
H2201 C2216 0.960 . S
H2202 C2216 0.960 . S
H2203 C2216 0.960 . S
C2204 H2196 0.929 . S
C2204 C2205 1.377 . S
C2204 C2206 1.384 . S
C2205 C2204 1.377 . S
C2205 C2211 1.390 . S
C2206 H2197 0.930 . S
C2206 C2204 1.384 . S
C2206 C2207 1.372 . S
C2207 C2206 1.372 . S
C2207 C2208 1.400 . S
C2207 C2212 1.490 . S
C2208 H2198 0.930 . S
C2208 C2207 1.400 . S
C2208 C2211 1.386 . S
H2209 C2225 0.930 . S
H2210 C2226 0.931 . S
C2211 H2199 0.929 . S
C2211 C2205 1.390 . S
C2211 C2208 1.386 . S
C2212 C2207 1.490 . S
C2212 C2214 1.395 . S
C2212 C2215 1.403 . S
H2213 C2219 0.930 . S
C2214 H2200 0.930 . S
C2214 C2212 1.395 . S
C2214 C2217 1.403 . S
C2215 C2212 1.403 . S
C2215 C2216 1.524 . S
C2215 C2219 1.400 . S
C2216 H2201 0.960 . S
C2216 H2202 0.960 . S
C2216 H2203 0.960 . S
C2216 C2215 1.524 . S
C2217 C2214 1.403 . S
C2217 C2218 1.392 . S
C2217 C2221 1.495 . S
C2218 C2217 1.392 . S
C2218 C2219 1.385 . S
C2218 C2220 1.478 . S
C2219 H2213 0.930 . S
C2219 C2215 1.400 . S
C2219 C2218 1.385 . S
C2220 C2218 1.478 . S
C2220 C2222 1.381 . S
C2220 C2226 1.383 . S
C2221 C2217 1.495 . S
C2221 H2227 0.959 . S
C2221 H2228 0.961 . S
C2221 H2229 0.960 . S
C2222 C2220 1.381 . S
C2222 C2223 1.394 . S
C2222 H2230 0.930 . S
C2223 C2222 1.394 . S
C2223 C2224 1.383 . S
C2223 H2231 0.929 . S
C2224 C2223 1.383 . S
C2224 C2225 1.377 . S
C2225 H2209 0.930 . S
C2225 C2224 1.377 . S
C2225 C2226 1.379 . S
C2226 H2210 0.931 . S
C2226 C2220 1.383 . S
C2226 C2225 1.379 . S
H2227 C2221 0.959 . S
H2228 C2221 0.961 . S
H2229 C2221 0.960 . S
H2230 C2222 0.930 . S
H2231 C2223 0.929 . S
H2232 C2240 0.929 . S
H2233 C2242 0.930 . S
H2234 C2244 0.930 . S
H2235 C2247 0.929 . S
H2236 C2250 0.930 . S
H2237 C2252 0.960 . S
H2238 C2252 0.960 . S
H2239 C2252 0.960 . S
C2240 H2232 0.929 . S
C2240 C2241 1.377 . S
C2240 C2242 1.384 1_545 S
C2241 C2240 1.377 . S
C2241 C2247 1.390 . S
C2242 H2233 0.930 . S
C2242 C2240 1.384 1_565 S
C2242 C2243 1.372 . S
C2243 C2242 1.372 . S
C2243 C2244 1.400 . S
C2243 C2248 1.490 . S
C2244 H2234 0.930 . S
C2244 C2243 1.400 . S
C2244 C2247 1.386 1_565 S
H2245 C2261 0.930 . S
H2246 C2262 0.931 . S
C2247 H2235 0.929 . S
C2247 C2241 1.390 . S
C2247 C2244 1.386 1_545 S
C2248 C2243 1.490 . S
C2248 C2250 1.395 . S
C2248 C2251 1.403 . S
H2249 C2255 0.930 . S
C2250 H2236 0.930 . S
C2250 C2248 1.395 . S
C2250 C2253 1.403 . S
C2251 C2248 1.403 . S
C2251 C2252 1.524 . S
C2251 C2255 1.400 . S
C2252 H2237 0.960 . S
C2252 H2238 0.960 . S
C2252 H2239 0.960 . S
C2252 C2251 1.524 . S
C2253 C2250 1.403 . S
C2253 C2254 1.392 . S
C2253 C2257 1.495 . S
C2254 C2253 1.392 . S
C2254 C2255 1.385 . S
C2254 C2256 1.478 . S
C2255 H2249 0.930 . S
C2255 C2251 1.400 . S
C2255 C2254 1.385 . S
C2256 C2254 1.478 . S
C2256 C2258 1.381 . S
C2256 C2262 1.383 . S
C2257 C2253 1.495 . S
C2257 H2263 0.959 . S
C2257 H2264 0.961 . S
C2257 H2265 0.960 . S
C2258 C2256 1.381 . S
C2258 C2259 1.394 . S
C2258 H2266 0.930 . S
C2259 C2258 1.394 . S
C2259 C2260 1.383 . S
C2259 H2267 0.929 . S
C2260 C2259 1.383 . S
C2260 C2261 1.377 . S
C2261 H2245 0.930 . S
C2261 C2260 1.377 . S
C2261 C2262 1.379 . S
C2262 H2246 0.931 . S
C2262 C2256 1.383 . S
C2262 C2261 1.379 . S
H2263 C2257 0.959 . S
H2264 C2257 0.961 . S
H2265 C2257 0.960 . S
H2266 C2258 0.930 . S
H2267 C2259 0.929 . S
H2268 C2276 0.937 . S
H2269 C2278 0.930 . S
H2270 C2280 0.930 . S
H2271 C2283 0.929 . S
H2272 C2286 0.930 . S
H2273 C2288 0.960 . S
H2274 C2288 0.960 . S
H2275 C2288 0.960 . S
C2276 H2268 0.937 . S
C2276 C2277 1.426 . S
C2276 C2278 1.330 1_655 S
C2277 C2276 1.426 . S
C2277 C2283 1.390 . S
C2278 H2269 0.930 . S
C2278 C2276 1.330 1_455 S
C2278 C2279 1.372 . S
C2279 C2278 1.372 . S
C2279 C2280 1.400 . S
C2279 C2284 1.490 . S
C2280 H2270 0.930 . S
C2280 C2279 1.400 . S
C2280 C2283 1.386 1_455 S
H2281 C2297 0.930 . S
H2282 C2298 0.931 . S
C2283 H2271 0.929 . S
C2283 C2277 1.390 . S
C2283 C2280 1.386 1_655 S
C2284 C2279 1.490 . S
C2284 C2286 1.395 . S
C2284 C2287 1.403 . S
H2285 C2291 0.930 . S
C2286 H2272 0.930 . S
C2286 C2284 1.395 . S
C2286 C2289 1.403 . S
C2287 C2284 1.403 . S
C2287 C2288 1.524 . S
C2287 C2291 1.400 . S
C2288 H2273 0.960 . S
C2288 H2274 0.960 . S
C2288 H2275 0.960 . S
C2288 C2287 1.524 . S
C2289 C2286 1.403 . S
C2289 C2290 1.392 . S
C2289 C2293 1.495 . S
C2290 C2289 1.392 . S
C2290 C2291 1.385 . S
C2290 C2292 1.478 . S
C2291 H2285 0.930 . S
C2291 C2287 1.400 . S
C2291 C2290 1.385 . S
C2292 C2290 1.478 . S
C2292 C2294 1.381 . S
C2292 C2298 1.383 . S
C2293 C2289 1.495 . S
C2293 H2299 0.959 . S
C2293 H2300 0.961 . S
C2293 H2301 0.960 . S
C2294 C2292 1.381 . S
C2294 C2295 1.394 . S
C2294 H2302 0.930 . S
C2295 C2294 1.394 . S
C2295 C2296 1.383 . S
C2295 H2303 0.929 . S
C2296 C2295 1.383 . S
C2296 C2297 1.377 . S
C2297 H2281 0.930 . S
C2297 C2296 1.377 . S
C2297 C2298 1.379 . S
C2298 H2282 0.931 . S
C2298 C2292 1.383 . S
C2298 C2297 1.379 . S
H2299 C2293 0.959 . S
H2300 C2293 0.961 . S
H2301 C2293 0.960 . S
H2302 C2294 0.930 . S
H2303 C2295 0.929 . S
H2304 C2312 0.929 . S
H2305 C2314 0.930 . S
H2306 C2316 0.930 . S
H2307 C2319 0.929 . S
H2308 C2322 0.930 . S
H2309 C2324 0.960 . S
H2310 C2324 0.960 . S
H2311 C2324 0.960 . S
C2312 H2304 0.929 . S
C2312 C2313 1.377 . S
C2312 C2314 1.384 . S
C2313 C2312 1.377 . S
C2313 C2319 1.390 . S
C2314 H2305 0.930 . S
C2314 C2312 1.384 . S
C2314 C2315 1.372 . S
C2315 C2314 1.372 . S
C2315 C2316 1.400 . S
C2315 C2320 1.490 . S
C2316 H2306 0.930 . S
C2316 C2315 1.400 . S
C2316 C2319 1.386 . S
H2317 C2333 0.930 . S
H2318 C2334 0.931 . S
C2319 H2307 0.929 . S
C2319 C2313 1.390 . S
C2319 C2316 1.386 . S
C2320 C2315 1.490 . S
C2320 C2322 1.395 . S
C2320 C2323 1.403 . S
H2321 C2327 0.930 . S
C2322 H2308 0.930 . S
C2322 C2320 1.395 . S
C2322 C2325 1.403 . S
C2323 C2320 1.403 . S
C2323 C2324 1.524 . S
C2323 C2327 1.400 . S
C2324 H2309 0.960 . S
C2324 H2310 0.960 . S
C2324 H2311 0.960 . S
C2324 C2323 1.524 . S
C2325 C2322 1.403 . S
C2325 C2326 1.392 . S
C2325 C2329 1.495 . S
C2326 C2325 1.392 . S
C2326 C2327 1.385 . S
C2326 C2328 1.478 . S
C2327 H2321 0.930 . S
C2327 C2323 1.400 . S
C2327 C2326 1.385 . S
C2328 C2326 1.478 . S
C2328 C2330 1.381 . S
C2328 C2334 1.383 . S
C2329 C2325 1.495 . S
C2329 H2335 0.959 . S
C2329 H2336 0.961 . S
C2329 H2337 0.960 . S
C2330 C2328 1.381 . S
C2330 C2331 1.394 . S
C2330 H2338 0.930 . S
C2331 C2330 1.394 . S
C2331 C2332 1.383 . S
C2331 H2339 0.929 . S
C2332 C2331 1.383 . S
C2332 C2333 1.377 . S
C2333 H2317 0.930 . S
C2333 C2332 1.377 . S
C2333 C2334 1.379 . S
C2334 H2318 0.931 . S
C2334 C2328 1.383 . S
C2334 C2333 1.379 . S
H2335 C2329 0.959 . S
H2336 C2329 0.961 . S
H2337 C2329 0.960 . S
H2338 C2330 0.930 . S
H2339 C2331 0.929 . S
H2340 C2348 0.929 . S
H2341 C2350 0.930 . S
H2342 C2352 0.930 . S
H2343 C2355 0.929 . S
H2344 C2358 0.930 . S
H2345 C2360 0.960 . S
H2346 C2360 0.960 . S
H2347 C2360 0.960 . S
C2348 H2340 0.929 . S
C2348 C2349 1.377 . S
C2348 C2350 1.384 . S
C2349 C2348 1.377 . S
C2349 C2355 1.390 . S
C2350 H2341 0.930 . S
C2350 C2348 1.384 . S
C2350 C2351 1.372 . S
C2351 C2350 1.372 . S
C2351 C2352 1.400 . S
C2351 C2356 1.490 . S
C2352 H2342 0.930 . S
C2352 C2351 1.400 . S
C2352 C2355 1.386 . S
H2353 C2369 0.930 . S
H2354 C2370 0.931 . S
C2355 H2343 0.929 . S
C2355 C2349 1.390 . S
C2355 C2352 1.386 . S
C2356 C2351 1.490 . S
C2356 C2358 1.395 . S
C2356 C2359 1.403 . S
H2357 C2363 0.930 . S
C2358 H2344 0.930 . S
C2358 C2356 1.395 . S
C2358 C2361 1.403 . S
C2359 C2356 1.403 . S
C2359 C2360 1.524 . S
C2359 C2363 1.400 . S
C2360 H2345 0.960 . S
C2360 H2346 0.960 . S
C2360 H2347 0.960 . S
C2360 C2359 1.524 . S
C2361 C2358 1.403 . S
C2361 C2362 1.392 . S
C2361 C2365 1.495 . S
C2362 C2361 1.392 . S
C2362 C2363 1.385 . S
C2362 C2364 1.478 . S
C2363 H2357 0.930 . S
C2363 C2359 1.400 . S
C2363 C2362 1.385 . S
C2364 C2362 1.478 . S
C2364 C2366 1.381 . S
C2364 C2370 1.383 . S
C2365 C2361 1.495 . S
C2365 H2371 0.959 . S
C2365 H2372 0.961 . S
C2365 H2373 0.960 . S
C2366 C2364 1.381 . S
C2366 C2367 1.394 . S
C2366 H2374 0.930 . S
C2367 C2366 1.394 . S
C2367 C2368 1.383 . S
C2367 H2375 0.929 . S
C2368 C2367 1.383 . S
C2368 C2369 1.377 . S
C2369 H2353 0.930 . S
C2369 C2368 1.377 . S
C2369 C2370 1.379 . S
C2370 H2354 0.931 . S
C2370 C2364 1.383 . S
C2370 C2369 1.379 . S
H2371 C2365 0.959 . S
H2372 C2365 0.961 . S
H2373 C2365 0.960 . S
H2374 C2366 0.930 . S
H2375 C2367 0.929 . S
H2376 C2384 0.929 . S
H2377 C2386 0.930 . S
H2378 C2388 0.930 . S
H2379 C2391 0.929 . S
H2380 C2394 0.930 . S
H2381 C2396 0.960 . S
H2382 C2396 0.960 . S
H2383 C2396 0.960 . S
C2384 H2376 0.929 . S
C2384 C2385 1.377 . S
C2384 C2386 1.384 . S
C2385 C2384 1.377 . S
C2385 C2391 1.390 . S
C2386 H2377 0.930 . S
C2386 C2384 1.384 . S
C2386 C2387 1.372 . S
C2387 C2386 1.372 . S
C2387 C2388 1.400 . S
C2387 C2392 1.490 . S
C2388 H2378 0.930 . S
C2388 C2387 1.400 . S
C2388 C2391 1.386 . S
H2389 C2405 0.930 . S
H2390 C2406 0.931 . S
C2391 H2379 0.929 . S
C2391 C2385 1.390 . S
C2391 C2388 1.386 . S
C2392 C2387 1.490 . S
C2392 C2394 1.395 . S
C2392 C2395 1.403 . S
H2393 C2399 0.930 . S
C2394 H2380 0.930 . S
C2394 C2392 1.395 . S
C2394 C2397 1.403 . S
C2395 C2392 1.403 . S
C2395 C2396 1.524 . S
C2395 C2399 1.400 . S
C2396 H2381 0.960 . S
C2396 H2382 0.960 . S
C2396 H2383 0.960 . S
C2396 C2395 1.524 . S
C2397 C2394 1.403 . S
C2397 C2398 1.392 . S
C2397 C2401 1.495 . S
C2398 C2397 1.392 . S
C2398 C2399 1.385 . S
C2398 C2400 1.478 . S
C2399 H2393 0.930 . S
C2399 C2395 1.400 . S
C2399 C2398 1.385 . S
C2400 C2398 1.478 . S
C2400 C2402 1.381 . S
C2400 C2406 1.383 . S
C2401 C2397 1.495 . S
C2401 H2407 0.959 . S
C2401 H2408 0.961 . S
C2401 H2409 0.960 . S
C2402 C2400 1.381 . S
C2402 C2403 1.394 . S
C2402 H2410 0.930 . S
C2403 C2402 1.394 . S
C2403 C2404 1.383 . S
C2403 H2411 0.929 . S
C2404 C2403 1.383 . S
C2404 C2405 1.377 . S
C2405 H2389 0.930 . S
C2405 C2404 1.377 . S
C2405 C2406 1.379 . S
C2406 H2390 0.931 . S
C2406 C2400 1.383 . S
C2406 C2405 1.379 . S
H2407 C2401 0.959 . S
H2408 C2401 0.961 . S
H2409 C2401 0.960 . S
H2410 C2402 0.930 . S
H2411 C2403 0.929 . S
H2412 C2420 0.929 . S
H2413 C2422 0.930 . S
H2414 C2424 0.930 . S
H2415 C2427 0.929 . S
H2416 C2430 0.930 . S
H2417 C2432 0.960 . S
H2418 C2432 0.960 . S
H2419 C2432 0.960 . S
C2420 H2412 0.929 . S
C2420 C2421 1.377 . S
C2420 C2422 1.384 . S
C2421 C2420 1.377 . S
C2421 C2427 1.390 . S
C2422 H2413 0.930 . S
C2422 C2420 1.384 . S
C2422 C2423 1.372 . S
C2423 C2422 1.372 . S
C2423 C2424 1.400 . S
C2423 C2428 1.490 . S
C2424 H2414 0.930 . S
C2424 C2423 1.400 . S
C2424 C2427 1.386 . S
H2425 C2441 0.930 . S
H2426 C2442 0.931 . S
C2427 H2415 0.929 . S
C2427 C2421 1.390 . S
C2427 C2424 1.386 . S
C2428 C2423 1.490 . S
C2428 C2430 1.395 . S
C2428 C2431 1.403 . S
H2429 C2435 0.930 . S
C2430 H2416 0.930 . S
C2430 C2428 1.395 . S
C2430 C2433 1.403 . S
C2431 C2428 1.403 . S
C2431 C2432 1.524 . S
C2431 C2435 1.400 . S
C2432 H2417 0.960 . S
C2432 H2418 0.960 . S
C2432 H2419 0.960 . S
C2432 C2431 1.524 . S
C2433 C2430 1.403 . S
C2433 C2434 1.392 . S
C2433 C2437 1.495 . S
C2434 C2433 1.392 . S
C2434 C2435 1.385 . S
C2434 C2436 1.478 . S
C2435 H2429 0.930 . S
C2435 C2431 1.400 . S
C2435 C2434 1.385 . S
C2436 C2434 1.478 . S
C2436 C2438 1.381 . S
C2436 C2442 1.383 . S
C2437 C2433 1.495 . S
C2437 H2443 0.959 . S
C2437 H2444 0.961 . S
C2437 H2445 0.960 . S
C2438 C2436 1.381 . S
C2438 C2439 1.394 . S
C2438 H2446 0.930 . S
C2439 C2438 1.394 . S
C2439 C2440 1.383 . S
C2439 H2447 0.929 . S
C2440 C2439 1.383 . S
C2440 C2441 1.377 . S
C2441 H2425 0.930 . S
C2441 C2440 1.377 . S
C2441 C2442 1.379 . S
C2442 H2426 0.931 . S
C2442 C2436 1.383 . S
C2442 C2441 1.379 . S
H2443 C2437 0.959 . S
H2444 C2437 0.961 . S
H2445 C2437 0.960 . S
H2446 C2438 0.930 . S
H2447 C2439 0.929 . S
H2448 C2456 0.929 . S
H2449 C2458 0.930 . S
H2450 C2460 0.948 1_545 S
H2451 C2463 0.929 . S
H2452 C2466 0.930 . S
H2453 C2468 0.960 . S
H2454 C2468 0.960 . S
H2455 C2468 0.960 . S
C2456 H2448 0.929 . S
C2456 C2457 1.377 . S
C2456 C2458 1.384 1_565 S
C2457 C2456 1.377 . S
C2457 C2463 1.390 . S
C2458 H2449 0.930 . S
C2458 C2456 1.384 1_545 S
C2458 C2459 1.372 . S
C2459 C2458 1.372 . S
C2459 C2460 1.400 1_545 S
C2459 C2464 1.490 . S
C2460 H2450 0.948 1_565 S
C2460 C2459 1.400 1_565 S
C2460 C2463 1.386 . S
H2461 C2477 0.930 . S
H2462 C2478 0.931 . S
C2463 H2451 0.929 . S
C2463 C2457 1.390 . S
C2463 C2460 1.386 . S
C2464 C2459 1.490 . S
C2464 C2466 1.395 . S
C2464 C2467 1.403 . S
H2465 C2471 0.930 . S
C2466 H2452 0.930 . S
C2466 C2464 1.395 . S
C2466 C2469 1.403 . S
C2467 C2464 1.403 . S
C2467 C2468 1.524 . S
C2467 C2471 1.400 . S
C2468 H2453 0.960 . S
C2468 H2454 0.960 . S
C2468 H2455 0.960 . S
C2468 C2467 1.524 . S
C2469 C2466 1.403 . S
C2469 C2470 1.392 . S
C2469 C2473 1.495 . S
C2470 C2469 1.392 . S
C2470 C2471 1.385 . S
C2470 C2472 1.478 . S
C2471 H2465 0.930 . S
C2471 C2467 1.400 . S
C2471 C2470 1.385 . S
C2472 C2470 1.478 . S
C2472 C2474 1.381 . S
C2472 C2478 1.383 . S
C2473 C2469 1.495 . S
C2473 H2479 0.959 . S
C2473 H2480 0.961 . S
C2473 H2481 0.960 . S
C2474 C2472 1.381 . S
C2474 C2475 1.394 . S
C2474 H2482 0.930 . S
C2475 C2474 1.394 . S
C2475 C2476 1.383 . S
C2475 H2483 0.929 . S
C2476 C2475 1.383 . S
C2476 C2477 1.377 . S
C2477 H2461 0.930 . S
C2477 C2476 1.377 . S
C2477 C2478 1.379 . S
C2478 H2462 0.931 . S
C2478 C2472 1.383 . S
C2478 C2477 1.379 . S
H2479 C2473 0.959 . S
H2480 C2473 0.961 . S
H2481 C2473 0.960 . S
H2482 C2474 0.930 . S
H2483 C2475 0.929 . S
H2484 C2492 0.929 . S
H2485 C2494 0.930 . S
H2486 C2496 0.930 . S
H2487 C2499 0.929 . S
H2488 C2502 0.930 . S
H2489 C2504 0.960 . S
H2490 C2504 0.960 . S
H2491 C2504 0.960 . S
C2492 H2484 0.929 . S
C2492 C2493 1.377 . S
C2492 C2494 1.384 1_455 S
C2493 C2492 1.377 . S
C2493 C2499 1.390 . S
C2494 H2485 0.930 . S
C2494 C2492 1.384 1_655 S
C2494 C2495 1.372 . S
C2495 C2494 1.372 . S
C2495 C2496 1.400 . S
C2495 C2500 1.490 . S
C2496 H2486 0.930 . S
C2496 C2495 1.400 . S
C2496 C2499 1.386 1_655 S
H2497 C2513 0.930 . S
H2498 C2514 0.931 . S
C2499 H2487 0.929 . S
C2499 C2493 1.390 . S
C2499 C2496 1.386 1_455 S
C2500 C2495 1.490 . S
C2500 C2502 1.395 . S
C2500 C2503 1.403 . S
H2501 C2507 0.930 . S
C2502 H2488 0.930 . S
C2502 C2500 1.395 . S
C2502 C2505 1.403 . S
C2503 C2500 1.403 . S
C2503 C2504 1.524 . S
C2503 C2507 1.400 . S
C2504 H2489 0.960 . S
C2504 H2490 0.960 . S
C2504 H2491 0.960 . S
C2504 C2503 1.524 . S
C2505 C2502 1.403 . S
C2505 C2506 1.392 . S
C2505 C2509 1.495 . S
C2506 C2505 1.392 . S
C2506 C2507 1.385 . S
C2506 C2508 1.478 . S
C2507 H2501 0.930 . S
C2507 C2503 1.400 . S
C2507 C2506 1.385 . S
C2508 C2506 1.478 . S
C2508 C2510 1.381 . S
C2508 C2514 1.383 . S
C2509 C2505 1.495 . S
C2509 H2515 0.959 . S
C2509 H2516 0.961 . S
C2509 H2517 0.960 . S
C2510 C2508 1.381 . S
C2510 C2511 1.394 . S
C2510 H2518 0.930 . S
C2511 C2510 1.394 . S
C2511 C2512 1.383 . S
C2511 H2519 0.929 . S
C2512 C2511 1.383 . S
C2512 C2513 1.377 . S
C2513 H2497 0.930 . S
C2513 C2512 1.377 . S
C2513 C2514 1.379 . S
C2514 H2498 0.931 . S
C2514 C2508 1.383 . S
C2514 C2513 1.379 . S
H2515 C2509 0.959 . S
H2516 C2509 0.961 . S
H2517 C2509 0.960 . S
H2518 C2510 0.930 . S
H2519 C2511 0.929 . S
H2520 C2528 0.929 . S
H2521 C2530 0.930 . S
H2522 C2532 0.930 . S
H2523 C2535 0.929 . S
H2524 C2538 0.930 . S
H2525 C2540 0.960 . S
H2526 C2540 0.960 . S
H2527 C2540 0.960 . S
C2528 H2520 0.929 . S
C2528 C2529 1.377 . S
C2528 C2530 1.384 . S
C2529 C2528 1.377 . S
C2529 C2535 1.390 . S
C2530 H2521 0.930 . S
C2530 C2528 1.384 . S
C2530 C2531 1.372 . S
C2531 C2530 1.372 . S
C2531 C2532 1.400 . S
C2531 C2536 1.490 . S
C2532 H2522 0.930 . S
C2532 C2531 1.400 . S
C2532 C2535 1.386 . S
H2533 C2549 0.930 . S
H2534 C2550 0.931 . S
C2535 H2523 0.929 . S
C2535 C2529 1.390 . S
C2535 C2532 1.386 . S
C2536 C2531 1.490 . S
C2536 C2538 1.395 . S
C2536 C2539 1.403 . S
H2537 C2543 0.930 . S
C2538 H2524 0.930 . S
C2538 C2536 1.395 . S
C2538 C2541 1.403 . S
C2539 C2536 1.403 . S
C2539 C2540 1.524 . S
C2539 C2543 1.400 . S
C2540 H2525 0.960 . S
C2540 H2526 0.960 . S
C2540 H2527 0.960 . S
C2540 C2539 1.524 . S
C2541 C2538 1.403 . S
C2541 C2542 1.392 . S
C2541 C2545 1.495 . S
C2542 C2541 1.392 . S
C2542 C2543 1.385 . S
C2542 C2544 1.478 . S
C2543 H2537 0.930 . S
C2543 C2539 1.400 . S
C2543 C2542 1.385 . S
C2544 C2542 1.478 . S
C2544 C2546 1.381 . S
C2544 C2550 1.383 . S
C2545 C2541 1.495 . S
C2545 H2551 0.959 . S
C2545 H2552 0.961 . S
C2545 H2553 0.960 . S
C2546 C2544 1.381 . S
C2546 C2547 1.394 . S
C2546 H2554 0.930 . S
C2547 C2546 1.394 . S
C2547 C2548 1.383 . S
C2547 H2555 0.929 . S
C2548 C2547 1.383 . S
C2548 C2549 1.377 . S
C2549 H2533 0.930 . S
C2549 C2548 1.377 . S
C2549 C2550 1.379 . S
C2550 H2534 0.931 . S
C2550 C2544 1.383 . S
C2550 C2549 1.379 . S
H2551 C2545 0.959 . S
H2552 C2545 0.961 . S
H2553 C2545 0.960 . S
H2554 C2546 0.930 . S
H2555 C2547 0.929 . S
H2556 C2564 0.929 . S
H2557 C2566 0.927 1_655 S
H2558 C2568 0.930 . S
H2559 C2571 0.929 . S
H2560 C2574 0.930 . S
H2561 C2576 0.960 . S
H2562 C2576 0.960 . S
H2563 C2576 0.960 . S
C2564 H2556 0.929 . S
C2564 C2565 1.377 . S
C2564 C2566 1.392 . S
C2565 C2564 1.377 . S
C2565 C2571 1.390 . S
C2566 H2557 0.927 1_455 S
C2566 C2564 1.392 . S
C2566 C2567 1.367 1_455 S
C2567 C2566 1.367 1_655 S
C2567 C2568 1.400 . S
C2567 C2572 1.490 . S
C2568 H2558 0.930 . S
C2568 C2567 1.400 . S
C2568 C2571 1.386 1_655 S
H2569 C2585 0.930 . S
H2570 C2586 0.931 . S
C2571 H2559 0.929 . S
C2571 C2565 1.390 . S
C2571 C2568 1.386 1_455 S
C2572 C2567 1.490 . S
C2572 C2574 1.395 . S
C2572 C2575 1.403 . S
H2573 C2579 0.930 . S
C2574 H2560 0.930 . S
C2574 C2572 1.395 . S
C2574 C2577 1.403 . S
C2575 C2572 1.403 . S
C2575 C2576 1.524 . S
C2575 C2579 1.400 . S
C2576 H2561 0.960 . S
C2576 H2562 0.960 . S
C2576 H2563 0.960 . S
C2576 C2575 1.524 . S
C2577 C2574 1.403 . S
C2577 C2578 1.392 . S
C2577 C2581 1.495 . S
C2578 C2577 1.392 . S
C2578 C2579 1.385 . S
C2578 C2580 1.478 . S
C2579 H2573 0.930 . S
C2579 C2575 1.400 . S
C2579 C2578 1.385 . S
C2580 C2578 1.478 . S
C2580 C2582 1.381 . S
C2580 C2586 1.383 . S
C2581 C2577 1.495 . S
C2581 H2587 0.959 . S
C2581 H2588 0.961 . S
C2581 H2589 0.960 . S
C2582 C2580 1.381 . S
C2582 C2583 1.394 . S
C2582 H2590 0.930 . S
C2583 C2582 1.394 . S
C2583 C2584 1.383 . S
C2583 H2591 0.929 . S
C2584 C2583 1.383 . S
C2584 C2585 1.377 . S
C2585 H2569 0.930 . S
C2585 C2584 1.377 . S
C2585 C2586 1.379 . S
C2586 H2570 0.931 . S
C2586 C2580 1.383 . S
C2586 C2585 1.379 . S
H2587 C2581 0.959 . S
H2588 C2581 0.961 . S
H2589 C2581 0.960 . S
H2590 C2582 0.930 . S
H2591 C2583 0.929 . S
H2592 C2600 0.929 . S
H2593 C2602 0.930 . S
H2594 C2604 0.930 . S
H2595 C2607 0.929 . S
H2596 C2610 0.930 . S
H2597 C2612 0.960 . S
H2598 C2612 0.960 . S
H2599 C2612 0.960 . S
C2600 H2592 0.929 . S
C2600 C2601 1.377 . S
C2600 C2602 1.384 . S
C2601 C2600 1.377 . S
C2601 C2607 1.390 . S
C2602 H2593 0.930 . S
C2602 C2600 1.384 . S
C2602 C2603 1.372 . S
C2603 C2602 1.372 . S
C2603 C2604 1.400 . S
C2603 C2608 1.490 . S
C2604 H2594 0.930 . S
C2604 C2603 1.400 . S
C2604 C2607 1.386 . S
H2605 C2621 0.930 . S
H2606 C2622 0.931 . S
C2607 H2595 0.929 . S
C2607 C2601 1.390 . S
C2607 C2604 1.386 . S
C2608 C2603 1.490 . S
C2608 C2610 1.395 . S
C2608 C2611 1.403 . S
H2609 C2615 0.930 . S
C2610 H2596 0.930 . S
C2610 C2608 1.395 . S
C2610 C2613 1.403 . S
C2611 C2608 1.403 . S
C2611 C2612 1.524 . S
C2611 C2615 1.400 . S
C2612 H2597 0.960 . S
C2612 H2598 0.960 . S
C2612 H2599 0.960 . S
C2612 C2611 1.524 . S
C2613 C2610 1.403 . S
C2613 C2614 1.392 . S
C2613 C2617 1.495 . S
C2614 C2613 1.392 . S
C2614 C2615 1.385 . S
C2614 C2616 1.478 . S
C2615 H2609 0.930 . S
C2615 C2611 1.400 . S
C2615 C2614 1.385 . S
C2616 C2614 1.478 . S
C2616 C2618 1.381 . S
C2616 C2622 1.383 . S
C2617 C2613 1.495 . S
C2617 H2623 0.959 . S
C2617 H2624 0.961 . S
C2617 H2625 0.960 . S
C2618 C2616 1.381 . S
C2618 C2619 1.394 . S
C2618 H2626 0.930 . S
C2619 C2618 1.394 . S
C2619 C2620 1.383 . S
C2619 H2627 0.929 . S
C2620 C2619 1.383 . S
C2620 C2621 1.377 . S
C2621 H2605 0.930 . S
C2621 C2620 1.377 . S
C2621 C2622 1.379 . S
C2622 H2606 0.931 . S
C2622 C2616 1.383 . S
C2622 C2621 1.379 . S
H2623 C2617 0.959 . S
H2624 C2617 0.961 . S
H2625 C2617 0.960 . S
H2626 C2618 0.930 . S
H2627 C2619 0.929 . S
H2628 C2636 0.929 . S
H2629 C2638 0.930 . S
H2630 C2640 0.943 . S
H2631 C2643 0.929 . S
H2632 C2646 0.930 . S
H2633 C2648 0.960 . S
H2634 C2648 0.960 . S
H2635 C2648 0.960 . S
C2636 H2628 0.929 . S
C2636 C2637 1.377 . S
C2636 C2638 1.384 1_565 S
C2637 C2636 1.377 . S
C2637 C2643 1.390 . S
C2638 H2629 0.930 . S
C2638 C2636 1.384 1_545 S
C2638 C2639 1.372 . S
C2639 C2638 1.372 . S
C2639 C2640 1.400 1_545 S
C2639 C2644 1.490 . S
C2640 H2630 0.943 . S
C2640 C2639 1.400 1_565 S
C2640 C2643 1.386 . S
H2641 C2657 0.930 . S
H2642 C2658 0.931 . S
C2643 H2631 0.929 . S
C2643 C2637 1.390 . S
C2643 C2640 1.386 . S
C2644 C2639 1.490 . S
C2644 C2646 1.395 . S
C2644 C2647 1.403 . S
H2645 C2651 0.930 . S
C2646 H2632 0.930 . S
C2646 C2644 1.395 . S
C2646 C2649 1.403 . S
C2647 C2644 1.403 . S
C2647 C2648 1.524 . S
C2647 C2651 1.400 . S
C2648 H2633 0.960 . S
C2648 H2634 0.960 . S
C2648 H2635 0.960 . S
C2648 C2647 1.524 . S
C2649 C2646 1.403 . S
C2649 C2650 1.392 . S
C2649 C2653 1.495 . S
C2650 C2649 1.392 . S
C2650 C2651 1.385 . S
C2650 C2652 1.478 . S
C2651 H2645 0.930 . S
C2651 C2647 1.400 . S
C2651 C2650 1.385 . S
C2652 C2650 1.478 . S
C2652 C2654 1.381 . S
C2652 C2658 1.383 . S
C2653 C2649 1.495 . S
C2653 H2659 0.959 . S
C2653 H2660 0.961 . S
C2653 H2661 0.960 . S
C2654 C2652 1.381 . S
C2654 C2655 1.394 . S
C2654 H2662 0.930 . S
C2655 C2654 1.394 . S
C2655 C2656 1.383 . S
C2655 H2663 0.929 . S
C2656 C2655 1.383 . S
C2656 C2657 1.377 . S
C2657 H2641 0.930 . S
C2657 C2656 1.377 . S
C2657 C2658 1.379 . S
C2658 H2642 0.931 . S
C2658 C2652 1.383 . S
C2658 C2657 1.379 . S
H2659 C2653 0.959 . S
H2660 C2653 0.961 . S
H2661 C2653 0.960 . S
H2662 C2654 0.930 . S
H2663 C2655 0.929 . S
H2664 C2672 0.929 . S
H2665 C2674 0.930 . S
H2666 C2676 0.930 . S
H2667 C2679 0.929 . S
H2668 C2682 0.930 . S
H2669 C2684 0.960 . S
H2670 C2684 0.960 . S
H2671 C2684 0.960 . S
C2672 H2664 0.929 . S
C2672 C2673 1.377 . S
C2672 C2674 1.384 . S
C2673 C2672 1.377 . S
C2673 C2679 1.390 . S
C2674 H2665 0.930 . S
C2674 C2672 1.384 . S
C2674 C2675 1.372 . S
C2675 C2674 1.372 . S
C2675 C2676 1.400 . S
C2675 C2680 1.490 . S
C2676 H2666 0.930 . S
C2676 C2675 1.400 . S
C2676 C2679 1.386 . S
H2677 C2693 0.930 . S
H2678 C2694 0.931 . S
C2679 H2667 0.929 . S
C2679 C2673 1.390 . S
C2679 C2676 1.386 . S
C2680 C2675 1.490 . S
C2680 C2682 1.395 . S
C2680 C2683 1.403 . S
H2681 C2687 0.930 . S
C2682 H2668 0.930 . S
C2682 C2680 1.395 . S
C2682 C2685 1.403 . S
C2683 C2680 1.403 . S
C2683 C2684 1.524 . S
C2683 C2687 1.400 . S
C2684 H2669 0.960 . S
C2684 H2670 0.960 . S
C2684 H2671 0.960 . S
C2684 C2683 1.524 . S
C2685 C2682 1.403 . S
C2685 C2686 1.392 . S
C2685 C2689 1.495 . S
C2686 C2685 1.392 . S
C2686 C2687 1.385 . S
C2686 C2688 1.478 . S
C2687 H2681 0.930 . S
C2687 C2683 1.400 . S
C2687 C2686 1.385 . S
C2688 C2686 1.478 . S
C2688 C2690 1.381 . S
C2688 C2694 1.383 . S
C2689 C2685 1.495 . S
C2689 H2695 0.959 . S
C2689 H2696 0.961 . S
C2689 H2697 0.960 . S
C2690 C2688 1.381 . S
C2690 C2691 1.394 . S
C2690 H2698 0.930 . S
C2691 C2690 1.394 . S
C2691 C2692 1.383 . S
C2691 H2699 0.929 . S
C2692 C2691 1.383 . S
C2692 C2693 1.377 . S
C2693 H2677 0.930 . S
C2693 C2692 1.377 . S
C2693 C2694 1.379 . S
C2694 H2678 0.931 . S
C2694 C2688 1.383 . S
C2694 C2693 1.379 . S
H2695 C2689 0.959 . S
H2696 C2689 0.961 . S
H2697 C2689 0.960 . S
H2698 C2690 0.930 . S
H2699 C2691 0.929 . S
H2700 C2708 0.929 . S
H2701 C2710 0.930 . S
H2702 C2712 0.930 . S
H2703 C2715 0.929 . S
H2704 C2718 0.930 . S
H2705 C2720 0.960 . S
H2706 C2720 0.960 . S
H2707 C2720 0.960 . S
C2708 H2700 0.929 . S
C2708 C2709 1.377 . S
C2708 C2710 1.384 . S
C2709 C2708 1.377 . S
C2709 C2715 1.390 . S
C2710 H2701 0.930 . S
C2710 C2708 1.384 . S
C2710 C2711 1.372 . S
C2711 C2710 1.372 . S
C2711 C2712 1.400 . S
C2711 C2716 1.490 . S
C2712 H2702 0.930 . S
C2712 C2711 1.400 . S
C2712 C2715 1.386 . S
H2713 C2729 0.930 . S
H2714 C2730 0.931 . S
C2715 H2703 0.929 . S
C2715 C2709 1.390 . S
C2715 C2712 1.386 . S
C2716 C2711 1.490 . S
C2716 C2718 1.395 . S
C2716 C2719 1.403 . S
H2717 C2723 0.930 . S
C2718 H2704 0.930 . S
C2718 C2716 1.395 . S
C2718 C2721 1.403 . S
C2719 C2716 1.403 . S
C2719 C2720 1.524 . S
C2719 C2723 1.400 . S
C2720 H2705 0.960 . S
C2720 H2706 0.960 . S
C2720 H2707 0.960 . S
C2720 C2719 1.524 . S
C2721 C2718 1.403 . S
C2721 C2722 1.392 . S
C2721 C2725 1.495 . S
C2722 C2721 1.392 . S
C2722 C2723 1.385 . S
C2722 C2724 1.478 . S
C2723 H2717 0.930 . S
C2723 C2719 1.400 . S
C2723 C2722 1.385 . S
C2724 C2722 1.478 . S
C2724 C2726 1.381 . S
C2724 C2730 1.383 . S
C2725 C2721 1.495 . S
C2725 H2731 0.959 . S
C2725 H2732 0.961 . S
C2725 H2733 0.960 . S
C2726 C2724 1.381 . S
C2726 C2727 1.394 . S
C2726 H2734 0.930 . S
C2727 C2726 1.394 . S
C2727 C2728 1.383 . S
C2727 H2735 0.929 . S
C2728 C2727 1.383 . S
C2728 C2729 1.377 . S
C2729 H2713 0.930 . S
C2729 C2728 1.377 . S
C2729 C2730 1.379 . S
C2730 H2714 0.931 . S
C2730 C2724 1.383 . S
C2730 C2729 1.379 . S
H2731 C2725 0.959 . S
H2732 C2725 0.961 . S
H2733 C2725 0.960 . S
H2734 C2726 0.930 . S
H2735 C2727 0.929 . S
H2736 C2744 0.929 . S
H2737 C2746 0.930 . S
H2738 C2748 0.930 . S
H2739 C2751 0.929 . S
H2740 C2754 0.930 . S
H2741 C2756 0.960 . S
H2742 C2756 0.960 . S
H2743 C2756 0.960 . S
C2744 H2736 0.929 . S
C2744 C2745 1.377 . S
C2744 C2746 1.384 . S
C2745 C2744 1.377 . S
C2745 C2751 1.390 . S
C2746 H2737 0.930 . S
C2746 C2744 1.384 . S
C2746 C2747 1.372 . S
C2747 C2746 1.372 . S
C2747 C2748 1.400 . S
C2747 C2752 1.490 . S
C2748 H2738 0.930 . S
C2748 C2747 1.400 . S
C2748 C2751 1.386 . S
H2749 C2765 0.930 . S
H2750 C2766 0.931 . S
C2751 H2739 0.929 . S
C2751 C2745 1.390 . S
C2751 C2748 1.386 . S
C2752 C2747 1.490 . S
C2752 C2754 1.395 . S
C2752 C2755 1.403 . S
H2753 C2759 0.930 . S
C2754 H2740 0.930 . S
C2754 C2752 1.395 . S
C2754 C2757 1.403 . S
C2755 C2752 1.403 . S
C2755 C2756 1.524 . S
C2755 C2759 1.400 . S
C2756 H2741 0.960 . S
C2756 H2742 0.960 . S
C2756 H2743 0.960 . S
C2756 C2755 1.524 . S
C2757 C2754 1.403 . S
C2757 C2758 1.392 . S
C2757 C2761 1.495 . S
C2758 C2757 1.392 . S
C2758 C2759 1.385 . S
C2758 C2760 1.478 . S
C2759 H2753 0.930 . S
C2759 C2755 1.400 . S
C2759 C2758 1.385 . S
C2760 C2758 1.478 . S
C2760 C2762 1.381 . S
C2760 C2766 1.383 . S
C2761 C2757 1.495 . S
C2761 H2767 0.959 . S
C2761 H2768 0.961 . S
C2761 H2769 0.960 . S
C2762 C2760 1.381 . S
C2762 C2763 1.394 . S
C2762 H2770 0.930 . S
C2763 C2762 1.394 . S
C2763 C2764 1.383 . S
C2763 H2771 0.929 . S
C2764 C2763 1.383 . S
C2764 C2765 1.377 . S
C2765 H2749 0.930 . S
C2765 C2764 1.377 . S
C2765 C2766 1.379 . S
C2766 H2750 0.931 . S
C2766 C2760 1.383 . S
C2766 C2765 1.379 . S
H2767 C2761 0.959 . S
H2768 C2761 0.961 . S
H2769 C2761 0.960 . S
H2770 C2762 0.930 . S
H2771 C2763 0.929 . S
H2772 C2780 0.929 . S
H2773 C2782 0.930 . S
H2774 C2784 0.930 . S
H2775 C2787 0.929 . S
H2776 C2790 0.930 . S
H2777 C2792 0.960 . S
H2778 C2792 0.960 . S
H2779 C2792 0.960 . S
C2780 H2772 0.929 . S
C2780 C2781 1.377 . S
C2780 C2782 1.384 . S
C2781 C2780 1.377 . S
C2781 C2787 1.390 . S
C2782 H2773 0.930 . S
C2782 C2780 1.384 . S
C2782 C2783 1.372 . S
C2783 C2782 1.372 . S
C2783 C2784 1.400 . S
C2783 C2788 1.490 . S
C2784 H2774 0.930 . S
C2784 C2783 1.400 . S
C2784 C2787 1.386 . S
H2785 C2801 0.930 1_545 S
H2786 C2802 0.931 . S
C2787 H2775 0.929 . S
C2787 C2781 1.390 . S
C2787 C2784 1.386 . S
C2788 C2783 1.490 . S
C2788 C2790 1.395 . S
C2788 C2791 1.403 . S
H2789 C2795 0.930 . S
C2790 H2776 0.930 . S
C2790 C2788 1.395 . S
C2790 C2793 1.403 . S
C2791 C2788 1.403 . S
C2791 C2792 1.524 . S
C2791 C2795 1.400 . S
C2792 H2777 0.960 . S
C2792 H2778 0.960 . S
C2792 H2779 0.960 . S
C2792 C2791 1.524 . S
C2793 C2790 1.403 . S
C2793 C2794 1.392 . S
C2793 C2797 1.495 . S
C2794 C2793 1.392 . S
C2794 C2795 1.385 . S
C2794 C2796 1.478 . S
C2795 H2789 0.930 . S
C2795 C2791 1.400 . S
C2795 C2794 1.385 . S
C2796 C2794 1.478 . S
C2796 C2798 1.381 . S
C2796 C2802 1.383 . S
C2797 C2793 1.495 . S
C2797 H2803 0.959 . S
C2797 H2804 0.961 . S
C2797 H2805 0.960 . S
C2798 C2796 1.381 . S
C2798 C2799 1.394 . S
C2798 H2806 0.930 . S
C2799 C2798 1.394 . S
C2799 C2800 1.383 . S
C2799 H2807 0.929 . S
C2800 C2799 1.383 . S
C2800 C2801 1.377 . S
C2801 H2785 0.930 1_565 S
C2801 C2800 1.377 . S
C2801 C2802 1.379 . S
C2802 H2786 0.931 . S
C2802 C2796 1.383 . S
C2802 C2801 1.379 . S
H2803 C2797 0.959 . S
H2804 C2797 0.961 . S
H2805 C2797 0.960 . S
H2806 C2798 0.930 . S
H2807 C2799 0.929 . S
H2808 C2816 0.929 . S
H2809 C2818 0.930 . S
H2810 C2820 0.930 . S
H2811 C2823 0.929 . S
H2812 C2826 0.930 . S
H2813 C2828 0.960 . S
H2814 C2828 0.960 . S
H2815 C2828 0.960 . S
C2816 H2808 0.929 . S
C2816 C2817 1.377 . S
C2816 C2818 1.384 . S
C2817 C2816 1.377 . S
C2817 C2823 1.390 . S
C2818 H2809 0.930 . S
C2818 C2816 1.384 . S
C2818 C2819 1.372 . S
C2819 C2818 1.372 . S
C2819 C2820 1.400 . S
C2819 C2824 1.490 . S
C2820 H2810 0.930 . S
C2820 C2819 1.400 . S
C2820 C2823 1.386 . S
H2821 C2837 0.930 1_655 S
H2822 C2838 0.931 . S
C2823 H2811 0.929 . S
C2823 C2817 1.390 . S
C2823 C2820 1.386 . S
C2824 C2819 1.490 . S
C2824 C2826 1.395 . S
C2824 C2827 1.403 . S
H2825 C2831 0.930 . S
C2826 H2812 0.930 . S
C2826 C2824 1.395 . S
C2826 C2829 1.403 . S
C2827 C2824 1.403 . S
C2827 C2828 1.524 . S
C2827 C2831 1.400 . S
C2828 H2813 0.960 . S
C2828 H2814 0.960 . S
C2828 H2815 0.960 . S
C2828 C2827 1.524 . S
C2829 C2826 1.403 . S
C2829 C2830 1.392 . S
C2829 C2833 1.495 . S
C2830 C2829 1.392 . S
C2830 C2831 1.385 . S
C2830 C2832 1.478 . S
C2831 H2825 0.930 . S
C2831 C2827 1.400 . S
C2831 C2830 1.385 . S
C2832 C2830 1.478 . S
C2832 C2834 1.381 . S
C2832 C2838 1.383 . S
C2833 C2829 1.495 . S
C2833 H2839 0.959 . S
C2833 H2840 0.961 . S
C2833 H2841 0.960 . S
C2834 C2832 1.381 . S
C2834 C2835 1.394 . S
C2834 H2842 0.930 . S
C2835 C2834 1.394 . S
C2835 C2836 1.383 . S
C2835 H2843 0.929 . S
C2836 C2835 1.383 . S
C2836 C2837 1.377 . S
C2837 H2821 0.930 1_455 S
C2837 C2836 1.377 . S
C2837 C2838 1.379 . S
C2838 H2822 0.931 . S
C2838 C2832 1.383 . S
C2838 C2837 1.379 . S
H2839 C2833 0.959 . S
H2840 C2833 0.961 . S
H2841 C2833 0.960 . S
H2842 C2834 0.930 . S
H2843 C2835 0.929 . S
H2844 C2852 0.929 . S
H2845 C2854 0.930 . S
H2846 C2856 0.930 . S
H2847 C2859 0.929 . S
H2848 C2862 0.930 . S
H2849 C2864 0.960 . S
H2850 C2864 0.960 . S
H2851 C2864 0.960 . S
C2852 H2844 0.929 . S
C2852 C2853 1.377 . S
C2852 C2854 1.384 . S
C2853 C2852 1.377 . S
C2853 C2859 1.390 . S
C2854 H2845 0.930 . S
C2854 C2852 1.384 . S
C2854 C2855 1.372 . S
C2855 C2854 1.372 . S
C2855 C2856 1.400 . S
C2855 C2860 1.490 . S
C2856 H2846 0.930 . S
C2856 C2855 1.400 . S
C2856 C2859 1.386 . S
H2857 C2873 0.930 . S
H2858 C2874 0.931 . S
C2859 H2847 0.929 . S
C2859 C2853 1.390 . S
C2859 C2856 1.386 . S
C2860 C2855 1.490 . S
C2860 C2862 1.395 . S
C2860 C2863 1.403 . S
H2861 C2867 0.930 . S
C2862 H2848 0.930 . S
C2862 C2860 1.395 . S
C2862 C2865 1.403 . S
C2863 C2860 1.403 . S
C2863 C2864 1.524 . S
C2863 C2867 1.400 . S
C2864 H2849 0.960 . S
C2864 H2850 0.960 . S
C2864 H2851 0.960 . S
C2864 C2863 1.524 . S
C2865 C2862 1.403 . S
C2865 C2866 1.392 . S
C2865 C2869 1.495 . S
C2866 C2865 1.392 . S
C2866 C2867 1.385 . S
C2866 C2868 1.478 . S
C2867 H2861 0.930 . S
C2867 C2863 1.400 . S
C2867 C2866 1.385 . S
C2868 C2866 1.478 . S
C2868 C2870 1.381 . S
C2868 C2874 1.383 . S
C2869 C2865 1.495 . S
C2869 H2875 0.959 . S
C2869 H2876 0.961 . S
C2869 H2877 0.960 . S
C2870 C2868 1.381 . S
C2870 C2871 1.394 . S
C2870 H2878 0.930 . S
C2871 C2870 1.394 . S
C2871 C2872 1.383 . S
C2871 H2879 0.929 . S
C2872 C2871 1.383 . S
C2872 C2873 1.377 . S
C2873 H2857 0.930 . S
C2873 C2872 1.377 . S
C2873 C2874 1.379 . S
C2874 H2858 0.931 . S
C2874 C2868 1.383 . S
C2874 C2873 1.379 . S
H2875 C2869 0.959 . S
H2876 C2869 0.961 . S
H2877 C2869 0.960 . S
H2878 C2870 0.930 . S
H2879 C2871 0.929 . S
H2880 C2888 0.929 . S
H2881 C2890 0.930 . S
H2882 C2892 0.930 . S
H2883 C2895 0.929 . S
H2884 C2898 0.930 . S
H2885 C2900 0.960 . S
H2886 C2900 0.960 . S
H2887 C2900 0.960 . S
C2888 H2880 0.929 . S
C2888 C2889 1.377 . S
C2888 C2890 1.384 . S
C2889 C2888 1.377 . S
C2889 C2895 1.390 . S
C2890 H2881 0.930 . S
C2890 C2888 1.384 . S
C2890 C2891 1.372 . S
C2891 C2890 1.372 . S
C2891 C2892 1.400 . S
C2891 C2896 1.490 . S
C2892 H2882 0.930 . S
C2892 C2891 1.400 . S
C2892 C2895 1.386 . S
H2893 C2909 0.930 . S
H2894 C2910 0.931 . S
C2895 H2883 0.929 . S
C2895 C2889 1.390 . S
C2895 C2892 1.386 . S
C2896 C2891 1.490 . S
C2896 C2898 1.395 . S
C2896 C2899 1.403 . S
H2897 C2903 0.930 . S
C2898 H2884 0.930 . S
C2898 C2896 1.395 . S
C2898 C2901 1.403 . S
C2899 C2896 1.403 . S
C2899 C2900 1.524 . S
C2899 C2903 1.400 . S
C2900 H2885 0.960 . S
C2900 H2886 0.960 . S
C2900 H2887 0.960 . S
C2900 C2899 1.524 . S
C2901 C2898 1.403 . S
C2901 C2902 1.392 . S
C2901 C2905 1.495 . S
C2902 C2901 1.392 . S
C2902 C2903 1.385 . S
C2902 C2904 1.478 . S
C2903 H2897 0.930 . S
C2903 C2899 1.400 . S
C2903 C2902 1.385 . S
C2904 C2902 1.478 . S
C2904 C2906 1.381 . S
C2904 C2910 1.383 . S
C2905 C2901 1.495 . S
C2905 H2911 0.959 1_655 S
C2905 H2912 0.961 . S
C2905 H2913 0.960 1_655 S
C2906 C2904 1.381 . S
C2906 C2907 1.394 . S
C2906 H2914 0.926 . S
C2907 C2906 1.394 . S
C2907 C2908 1.383 . S
C2907 H2915 0.929 1_655 S
C2908 C2907 1.383 . S
C2908 C2909 1.377 . S
C2909 H2893 0.930 . S
C2909 C2908 1.377 . S
C2909 C2910 1.379 . S
C2910 H2894 0.931 . S
C2910 C2904 1.383 . S
C2910 C2909 1.379 . S
H2911 C2905 0.959 1_455 S
H2912 C2905 0.961 . S
H2913 C2905 0.960 1_455 S
H2914 C2906 0.926 . S
H2915 C2907 0.929 1_455 S
H2916 C2924 0.929 . S
H2917 C2926 0.930 . S
H2918 C2928 0.930 . S
H2919 C2931 0.929 . S
H2920 C2934 0.930 . S
H2921 C2936 0.960 . S
H2922 C2936 0.960 . S
H2923 C2936 0.960 . S
C2924 H2916 0.929 . S
C2924 C2925 1.377 . S
C2924 C2926 1.384 . S
C2925 C2924 1.377 . S
C2925 C2931 1.390 . S
C2926 H2917 0.930 . S
C2926 C2924 1.384 . S
C2926 C2927 1.372 . S
C2927 C2926 1.372 . S
C2927 C2928 1.400 . S
C2927 C2932 1.490 . S
C2928 H2918 0.930 . S
C2928 C2927 1.400 . S
C2928 C2931 1.386 . S
H2929 C2945 0.930 . S
H2930 C2946 0.931 . S
C2931 H2919 0.929 . S
C2931 C2925 1.390 . S
C2931 C2928 1.386 . S
C2932 C2927 1.490 . S
C2932 C2934 1.395 . S
C2932 C2935 1.403 . S
H2933 C2939 0.930 . S
C2934 H2920 0.930 . S
C2934 C2932 1.395 . S
C2934 C2937 1.403 . S
C2935 C2932 1.403 . S
C2935 C2936 1.524 . S
C2935 C2939 1.400 . S
C2936 H2921 0.960 . S
C2936 H2922 0.960 . S
C2936 H2923 0.960 . S
C2936 C2935 1.524 . S
C2937 C2934 1.403 . S
C2937 C2938 1.392 . S
C2937 C2941 1.495 . S
C2938 C2937 1.392 . S
C2938 C2939 1.385 . S
C2938 C2940 1.478 . S
C2939 H2933 0.930 . S
C2939 C2935 1.400 . S
C2939 C2938 1.385 . S
C2940 C2938 1.478 . S
C2940 C2942 1.381 . S
C2940 C2946 1.383 . S
C2941 C2937 1.495 . S
C2941 H2947 0.959 . S
C2941 H2948 0.961 . S
C2941 H2949 0.960 . S
C2942 C2940 1.381 . S
C2942 C2943 1.394 . S
C2942 H2950 0.930 . S
C2943 C2942 1.394 . S
C2943 C2944 1.383 . S
C2943 H2951 0.929 . S
C2944 C2943 1.383 . S
C2944 C2945 1.377 . S
C2945 H2929 0.930 . S
C2945 C2944 1.377 . S
C2945 C2946 1.379 . S
C2946 H2930 0.931 . S
C2946 C2940 1.383 . S
C2946 C2945 1.379 . S
H2947 C2941 0.959 . S
H2948 C2941 0.961 . S
H2949 C2941 0.960 . S
H2950 C2942 0.930 . S
H2951 C2943 0.929 . S
H2952 C2960 0.929 . S
H2953 C2962 0.930 . S
H2954 C2964 0.930 . S
H2955 C2967 0.929 . S
H2956 C2970 0.930 . S
H2957 C2972 0.960 . S
H2958 C2972 0.960 . S
H2959 C2972 0.960 . S
C2960 H2952 0.929 . S
C2960 C2961 1.377 . S
C2960 C2962 1.384 . S
C2961 C2960 1.377 . S
C2961 C2967 1.390 . S
C2962 H2953 0.930 . S
C2962 C2960 1.384 . S
C2962 C2963 1.372 . S
C2963 C2962 1.372 . S
C2963 C2964 1.400 . S
C2963 C2968 1.490 . S
C2964 H2954 0.930 . S
C2964 C2963 1.400 . S
C2964 C2967 1.386 . S
H2965 C2981 0.930 . S
H2966 C2982 0.931 . S
C2967 H2955 0.929 . S
C2967 C2961 1.390 . S
C2967 C2964 1.386 . S
C2968 C2963 1.490 . S
C2968 C2970 1.395 . S
C2968 C2971 1.403 . S
H2969 C2975 0.930 . S
C2970 H2956 0.930 . S
C2970 C2968 1.395 . S
C2970 C2973 1.403 . S
C2971 C2968 1.403 . S
C2971 C2972 1.524 . S
C2971 C2975 1.400 . S
C2972 H2957 0.960 . S
C2972 H2958 0.960 . S
C2972 H2959 0.960 . S
C2972 C2971 1.524 . S
C2973 C2970 1.403 . S
C2973 C2974 1.392 . S
C2973 C2977 1.495 . S
C2974 C2973 1.392 . S
C2974 C2975 1.385 . S
C2974 C2976 1.478 . S
C2975 H2969 0.930 . S
C2975 C2971 1.400 . S
C2975 C2974 1.385 . S
C2976 C2974 1.478 . S
C2976 C2978 1.381 . S
C2976 C2982 1.383 . S
C2977 C2973 1.495 . S
C2977 H2983 0.959 . S
C2977 H2984 0.961 . S
C2977 H2985 0.960 . S
C2978 C2976 1.381 . S
C2978 C2979 1.394 . S
C2978 H2986 0.930 . S
C2979 C2978 1.394 . S
C2979 C2980 1.383 . S
C2979 H2987 0.929 . S
C2980 C2979 1.383 . S
C2980 C2981 1.377 . S
C2981 H2965 0.930 . S
C2981 C2980 1.377 . S
C2981 C2982 1.379 . S
C2982 H2966 0.931 . S
C2982 C2976 1.383 . S
C2982 C2981 1.379 . S
H2983 C2977 0.959 . S
H2984 C2977 0.961 . S
H2985 C2977 0.960 . S
H2986 C2978 0.930 . S
H2987 C2979 0.929 . S
H2988 C2996 0.929 . S
H2989 C2998 0.930 . S
H2990 C3000 0.930 . S
H2991 C3003 0.929 . S
H2992 C3006 0.930 . S
H2993 C3008 0.960 . S
H2994 C3008 0.960 . S
H2995 C3008 0.960 . S
C2996 H2988 0.929 . S
C2996 C2997 1.377 . S
C2996 C2998 1.384 . S
C2997 C2996 1.377 . S
C2997 C3003 1.390 . S
C2998 H2989 0.930 . S
C2998 C2996 1.384 . S
C2998 C2999 1.372 . S
C2999 C2998 1.372 . S
C2999 C3000 1.400 . S
C2999 C3004 1.490 . S
C3000 H2990 0.930 . S
C3000 C2999 1.400 . S
C3000 C3003 1.386 . S
H3001 C3017 0.930 . S
H3002 C3018 0.931 . S
C3003 H2991 0.929 . S
C3003 C2997 1.390 . S
C3003 C3000 1.386 . S
C3004 C2999 1.490 . S
C3004 C3006 1.395 . S
C3004 C3007 1.403 . S
H3005 C3011 0.930 . S
C3006 H2992 0.930 . S
C3006 C3004 1.395 . S
C3006 C3009 1.403 . S
C3007 C3004 1.403 . S
C3007 C3008 1.524 . S
C3007 C3011 1.400 . S
C3008 H2993 0.960 . S
C3008 H2994 0.960 . S
C3008 H2995 0.960 . S
C3008 C3007 1.524 . S
C3009 C3006 1.403 . S
C3009 C3010 1.392 . S
C3009 C3013 1.495 . S
C3010 C3009 1.392 . S
C3010 C3011 1.385 . S
C3010 C3012 1.478 . S
C3011 H3005 0.930 . S
C3011 C3007 1.400 . S
C3011 C3010 1.385 . S
C3012 C3010 1.478 . S
C3012 C3014 1.381 . S
C3012 C3018 1.383 . S
C3013 C3009 1.495 . S
C3013 H3019 0.959 . S
C3013 H3020 0.961 . S
C3013 H3021 0.960 . S
C3014 C3012 1.381 . S
C3014 C3015 1.394 . S
C3014 H3022 0.930 . S
C3015 C3014 1.394 . S
C3015 C3016 1.383 . S
C3015 H3023 0.929 . S
C3016 C3015 1.383 . S
C3016 C3017 1.377 . S
C3017 H3001 0.930 . S
C3017 C3016 1.377 . S
C3017 C3018 1.379 . S
C3018 H3002 0.931 . S
C3018 C3012 1.383 . S
C3018 C3017 1.379 . S
H3019 C3013 0.959 . S
H3020 C3013 0.961 . S
H3021 C3013 0.960 . S
H3022 C3014 0.930 . S
H3023 C3015 0.929 . S
H3024 C3032 0.929 . S
H3025 C3034 0.930 . S
H3026 C3036 0.930 . S
H3027 C3039 0.929 . S
H3028 C3042 0.930 . S
H3029 C3044 0.960 . S
H3030 C3044 0.960 . S
H3031 C3044 0.960 . S
C3032 H3024 0.929 . S
C3032 C3033 1.377 . S
C3032 C3034 1.384 . S
C3033 C3032 1.377 . S
C3033 C3039 1.390 . S
C3034 H3025 0.930 . S
C3034 C3032 1.384 . S
C3034 C3035 1.372 . S
C3035 C3034 1.372 . S
C3035 C3036 1.400 . S
C3035 C3040 1.490 . S
C3036 H3026 0.930 . S
C3036 C3035 1.400 . S
C3036 C3039 1.386 . S
H3037 C3053 0.930 . S
H3038 C3054 0.931 . S
C3039 H3027 0.929 . S
C3039 C3033 1.390 . S
C3039 C3036 1.386 . S
C3040 C3035 1.490 . S
C3040 C3042 1.395 . S
C3040 C3043 1.403 . S
H3041 C3047 0.930 . S
C3042 H3028 0.930 . S
C3042 C3040 1.395 . S
C3042 C3045 1.403 . S
C3043 C3040 1.403 . S
C3043 C3044 1.524 . S
C3043 C3047 1.400 . S
C3044 H3029 0.960 . S
C3044 H3030 0.960 . S
C3044 H3031 0.960 . S
C3044 C3043 1.524 . S
C3045 C3042 1.403 . S
C3045 C3046 1.392 . S
C3045 C3049 1.495 . S
C3046 C3045 1.392 . S
C3046 C3047 1.385 . S
C3046 C3048 1.478 . S
C3047 H3041 0.930 . S
C3047 C3043 1.400 . S
C3047 C3046 1.385 . S
C3048 C3046 1.478 . S
C3048 C3050 1.381 . S
C3048 C3054 1.383 . S
C3049 C3045 1.495 . S
C3049 H3055 0.959 . S
C3049 H3056 0.961 . S
C3049 H3057 0.960 . S
C3050 C3048 1.381 . S
C3050 C3051 1.394 . S
C3050 H3058 0.930 . S
C3051 C3050 1.394 . S
C3051 C3052 1.383 . S
C3051 H3059 0.929 . S
C3052 C3051 1.383 . S
C3052 C3053 1.377 . S
C3053 H3037 0.930 . S
C3053 C3052 1.377 . S
C3053 C3054 1.379 . S
C3054 H3038 0.931 . S
C3054 C3048 1.383 . S
C3054 C3053 1.379 . S
H3055 C3049 0.959 . S
H3056 C3049 0.961 . S
H3057 C3049 0.960 . S
H3058 C3050 0.930 . S
H3059 C3051 0.929 . S
H3060 C3068 0.929 . S
H3061 C3070 0.930 . S
H3062 C3072 0.930 . S
H3063 C3075 0.929 . S
H3064 C3078 0.930 . S
H3065 C3080 0.960 . S
H3066 C3080 0.960 . S
H3067 C3080 0.960 . S
C3068 H3060 0.929 . S
C3068 C3069 1.377 . S
C3068 C3070 1.384 . S
C3069 C3068 1.377 . S
C3069 C3075 1.390 . S
C3070 H3061 0.930 . S
C3070 C3068 1.384 . S
C3070 C3071 1.372 . S
C3071 C3070 1.372 . S
C3071 C3072 1.400 . S
C3071 C3076 1.490 . S
C3072 H3062 0.930 . S
C3072 C3071 1.400 . S
C3072 C3075 1.386 . S
H3073 C3089 0.930 . S
H3074 C3090 0.931 . S
C3075 H3063 0.929 . S
C3075 C3069 1.390 . S
C3075 C3072 1.386 . S
C3076 C3071 1.490 . S
C3076 C3078 1.395 . S
C3076 C3079 1.403 . S
H3077 C3083 0.930 . S
C3078 H3064 0.930 . S
C3078 C3076 1.395 . S
C3078 C3081 1.403 . S
C3079 C3076 1.403 . S
C3079 C3080 1.524 . S
C3079 C3083 1.400 . S
C3080 H3065 0.960 . S
C3080 H3066 0.960 . S
C3080 H3067 0.960 . S
C3080 C3079 1.524 . S
C3081 C3078 1.403 . S
C3081 C3082 1.392 . S
C3081 C3085 1.495 . S
C3082 C3081 1.392 . S
C3082 C3083 1.385 . S
C3082 C3084 1.478 . S
C3083 H3077 0.930 . S
C3083 C3079 1.400 . S
C3083 C3082 1.385 . S
C3084 C3082 1.478 . S
C3084 C3086 1.381 . S
C3084 C3090 1.383 . S
C3085 C3081 1.495 . S
C3085 H3091 0.959 . S
C3085 H3092 0.961 . S
C3085 H3093 0.960 . S
C3086 C3084 1.381 . S
C3086 C3087 1.394 . S
C3086 H3094 0.930 . S
C3087 C3086 1.394 . S
C3087 C3088 1.383 . S
C3087 H3095 0.929 . S
C3088 C3087 1.383 . S
C3088 C3089 1.377 . S
C3089 H3073 0.930 . S
C3089 C3088 1.377 . S
C3089 C3090 1.379 . S
C3090 H3074 0.931 . S
C3090 C3084 1.383 . S
C3090 C3089 1.379 . S
H3091 C3085 0.959 . S
H3092 C3085 0.961 . S
H3093 C3085 0.960 . S
H3094 C3086 0.930 . S
H3095 C3087 0.929 . S
H3096 C3104 0.929 . S
H3097 C3106 0.930 . S
H3098 C3108 0.930 . S
H3099 C3111 0.929 . S
H3100 C3114 0.930 . S
H3101 C3116 0.960 . S
H3102 C3116 0.960 . S
H3103 C3116 0.960 . S
C3104 H3096 0.929 . S
C3104 C3105 1.377 . S
C3104 C3106 1.384 . S
C3105 C3104 1.377 . S
C3105 C3111 1.390 . S
C3106 H3097 0.930 . S
C3106 C3104 1.384 . S
C3106 C3107 1.372 . S
C3107 C3106 1.372 . S
C3107 C3108 1.400 . S
C3107 C3112 1.490 . S
C3108 H3098 0.930 . S
C3108 C3107 1.400 . S
C3108 C3111 1.386 . S
H3109 C3125 0.930 . S
H3110 C3126 0.931 . S
C3111 H3099 0.929 . S
C3111 C3105 1.390 . S
C3111 C3108 1.386 . S
C3112 C3107 1.490 . S
C3112 C3114 1.395 . S
C3112 C3115 1.403 . S
H3113 C3119 0.930 . S
C3114 H3100 0.930 . S
C3114 C3112 1.395 . S
C3114 C3117 1.403 . S
C3115 C3112 1.403 . S
C3115 C3116 1.524 . S
C3115 C3119 1.400 . S
C3116 H3101 0.960 . S
C3116 H3102 0.960 . S
C3116 H3103 0.960 . S
C3116 C3115 1.524 . S
C3117 C3114 1.403 . S
C3117 C3118 1.392 . S
C3117 C3121 1.495 . S
C3118 C3117 1.392 . S
C3118 C3119 1.385 . S
C3118 C3120 1.478 . S
C3119 H3113 0.930 . S
C3119 C3115 1.400 . S
C3119 C3118 1.385 . S
C3120 C3118 1.478 . S
C3120 C3122 1.381 . S
C3120 C3126 1.383 . S
C3121 C3117 1.495 . S
C3121 H3127 0.959 . S
C3121 H3128 0.961 . S
C3121 H3129 0.960 . S
C3122 C3120 1.381 . S
C3122 C3123 1.394 . S
C3122 H3130 0.930 . S
C3123 C3122 1.394 . S
C3123 C3124 1.383 . S
C3123 H3131 0.929 . S
C3124 C3123 1.383 . S
C3124 C3125 1.377 . S
C3125 H3109 0.930 . S
C3125 C3124 1.377 . S
C3125 C3126 1.379 . S
C3126 H3110 0.931 . S
C3126 C3120 1.383 . S
C3126 C3125 1.379 . S
H3127 C3121 0.959 . S
H3128 C3121 0.961 . S
H3129 C3121 0.960 . S
H3130 C3122 0.930 . S
H3131 C3123 0.929 . S
H3132 C3140 0.929 . S
H3133 C3142 0.930 . S
H3134 C3144 0.930 . S
H3135 C3147 0.929 . S
H3136 C3150 0.930 . S
H3137 C3152 0.960 . S
H3138 C3152 0.960 . S
H3139 C3152 0.960 . S
C3140 H3132 0.929 . S
C3140 C3141 1.377 . S
C3140 C3142 1.384 . S
C3141 C3140 1.377 . S
C3141 C3147 1.390 . S
C3142 H3133 0.930 . S
C3142 C3140 1.384 . S
C3142 C3143 1.372 . S
C3143 C3142 1.372 . S
C3143 C3144 1.400 . S
C3143 C3148 1.490 . S
C3144 H3134 0.930 . S
C3144 C3143 1.400 . S
C3144 C3147 1.386 . S
H3145 C3161 0.930 . S
H3146 C3162 0.931 . S
C3147 H3135 0.929 . S
C3147 C3141 1.390 . S
C3147 C3144 1.386 . S
C3148 C3143 1.490 . S
C3148 C3150 1.395 . S
C3148 C3151 1.403 . S
H3149 C3155 0.930 . S
C3150 H3136 0.930 . S
C3150 C3148 1.395 . S
C3150 C3153 1.403 . S
C3151 C3148 1.403 . S
C3151 C3152 1.524 . S
C3151 C3155 1.400 . S
C3152 H3137 0.960 . S
C3152 H3138 0.960 . S
C3152 H3139 0.960 . S
C3152 C3151 1.524 . S
C3153 C3150 1.403 . S
C3153 C3154 1.392 . S
C3153 C3157 1.495 . S
C3154 C3153 1.392 . S
C3154 C3155 1.385 . S
C3154 C3156 1.478 . S
C3155 H3149 0.930 . S
C3155 C3151 1.400 . S
C3155 C3154 1.385 . S
C3156 C3154 1.478 . S
C3156 C3158 1.381 . S
C3156 C3162 1.383 . S
C3157 C3153 1.495 . S
C3157 H3163 0.959 . S
C3157 H3164 0.961 . S
C3157 H3165 0.960 . S
C3158 C3156 1.381 . S
C3158 C3159 1.394 . S
C3158 H3166 0.930 . S
C3159 C3158 1.394 . S
C3159 C3160 1.383 . S
C3159 H3167 0.929 . S
C3160 C3159 1.383 . S
C3160 C3161 1.377 . S
C3161 H3145 0.930 . S
C3161 C3160 1.377 . S
C3161 C3162 1.379 . S
C3162 H3146 0.931 . S
C3162 C3156 1.383 . S
C3162 C3161 1.379 . S
H3163 C3157 0.959 . S
H3164 C3157 0.961 . S
H3165 C3157 0.960 . S
H3166 C3158 0.930 . S
H3167 C3159 0.929 . S
H3168 C3176 0.929 . S
H3169 C3178 0.930 . S
H3170 C3180 0.930 . S
H3171 C3183 0.929 . S
H3172 C3186 0.930 . S
H3173 C3188 0.960 . S
H3174 C3188 0.960 . S
H3175 C3188 0.960 . S
C3176 H3168 0.929 . S
C3176 C3177 1.377 . S
C3176 C3178 1.384 . S
C3177 C3176 1.377 . S
C3177 C3183 1.390 . S
C3178 H3169 0.930 . S
C3178 C3176 1.384 . S
C3178 C3179 1.372 . S
C3179 C3178 1.372 . S
C3179 C3180 1.400 . S
C3179 C3184 1.490 . S
C3180 H3170 0.930 . S
C3180 C3179 1.400 . S
C3180 C3183 1.386 . S
H3181 C3197 0.930 . S
H3182 C3198 0.931 . S
C3183 H3171 0.929 . S
C3183 C3177 1.390 . S
C3183 C3180 1.386 . S
C3184 C3179 1.490 . S
C3184 C3186 1.395 . S
C3184 C3187 1.403 . S
H3185 C3191 0.930 . S
C3186 H3172 0.930 . S
C3186 C3184 1.395 . S
C3186 C3189 1.403 . S
C3187 C3184 1.403 . S
C3187 C3188 1.524 . S
C3187 C3191 1.400 . S
C3188 H3173 0.960 . S
C3188 H3174 0.960 . S
C3188 H3175 0.960 . S
C3188 C3187 1.524 . S
C3189 C3186 1.403 . S
C3189 C3190 1.392 . S
C3189 C3193 1.495 . S
C3190 C3189 1.392 . S
C3190 C3191 1.385 . S
C3190 C3192 1.478 . S
C3191 H3185 0.930 . S
C3191 C3187 1.400 . S
C3191 C3190 1.385 . S
C3192 C3190 1.478 . S
C3192 C3194 1.381 . S
C3192 C3198 1.383 . S
C3193 C3189 1.495 . S
C3193 H3199 0.959 . S
C3193 H3200 0.961 . S
C3193 H3201 0.960 . S
C3194 C3192 1.381 . S
C3194 C3195 1.394 . S
C3194 H3202 0.930 . S
C3195 C3194 1.394 . S
C3195 C3196 1.383 . S
C3195 H3203 0.929 . S
C3196 C3195 1.383 . S
C3196 C3197 1.377 . S
C3197 H3181 0.930 . S
C3197 C3196 1.377 . S
C3197 C3198 1.379 . S
C3198 H3182 0.931 . S
C3198 C3192 1.383 . S
C3198 C3197 1.379 . S
H3199 C3193 0.959 . S
H3200 C3193 0.961 . S
H3201 C3193 0.960 . S
H3202 C3194 0.930 . S
H3203 C3195 0.929 . S
H3204 C3212 0.929 . S
H3205 C3214 0.930 . S
H3206 C3216 0.930 . S
H3207 C3219 0.929 . S
H3208 C3222 0.930 . S
H3209 C3224 0.960 . S
H3210 C3224 0.960 . S
H3211 C3224 0.960 . S
C3212 H3204 0.929 . S
C3212 C3213 1.377 . S
C3212 C3214 1.384 . S
C3213 C3212 1.377 . S
C3213 C3219 1.390 . S
C3214 H3205 0.930 . S
C3214 C3212 1.384 . S
C3214 C3215 1.372 . S
C3215 C3214 1.372 . S
C3215 C3216 1.400 . S
C3215 C3220 1.490 . S
C3216 H3206 0.930 . S
C3216 C3215 1.400 . S
C3216 C3219 1.386 . S
H3217 C3233 0.930 . S
H3218 C3234 0.931 . S
C3219 H3207 0.929 . S
C3219 C3213 1.390 . S
C3219 C3216 1.386 . S
C3220 C3215 1.490 . S
C3220 C3222 1.395 . S
C3220 C3223 1.403 . S
H3221 C3227 0.930 . S
C3222 H3208 0.930 . S
C3222 C3220 1.395 . S
C3222 C3225 1.403 . S
C3223 C3220 1.403 . S
C3223 C3224 1.524 . S
C3223 C3227 1.400 . S
C3224 H3209 0.960 . S
C3224 H3210 0.960 . S
C3224 H3211 0.960 . S
C3224 C3223 1.524 . S
C3225 C3222 1.403 . S
C3225 C3226 1.392 . S
C3225 C3229 1.495 . S
C3226 C3225 1.392 . S
C3226 C3227 1.385 . S
C3226 C3228 1.478 . S
C3227 H3221 0.930 . S
C3227 C3223 1.400 . S
C3227 C3226 1.385 . S
C3228 C3226 1.478 . S
C3228 C3230 1.381 . S
C3228 C3234 1.383 . S
C3229 C3225 1.495 . S
C3229 H3235 0.959 . S
C3229 H3236 0.961 . S
C3229 H3237 0.960 . S
C3230 C3228 1.381 . S
C3230 C3231 1.394 . S
C3230 H3238 0.930 . S
C3231 C3230 1.394 . S
C3231 C3232 1.383 . S
C3231 H3239 0.929 . S
C3232 C3231 1.383 . S
C3232 C3233 1.377 . S
C3233 H3217 0.930 . S
C3233 C3232 1.377 . S
C3233 C3234 1.379 . S
C3234 H3218 0.931 . S
C3234 C3228 1.383 . S
C3234 C3233 1.379 . S
H3235 C3229 0.959 . S
H3236 C3229 0.961 . S
H3237 C3229 0.960 . S
H3238 C3230 0.930 . S
H3239 C3231 0.929 . S
H3240 C3248 0.929 . S
H3241 C3250 0.930 . S
H3242 C3252 0.930 . S
H3243 C3255 0.929 . S
H3244 C3258 0.930 . S
H3245 C3260 0.960 . S
H3246 C3260 0.960 . S
H3247 C3260 0.960 . S
C3248 H3240 0.929 . S
C3248 C3249 1.377 . S
C3248 C3250 1.384 . S
C3249 C3248 1.377 . S
C3249 C3255 1.390 . S
C3250 H3241 0.930 . S
C3250 C3248 1.384 . S
C3250 C3251 1.372 . S
C3251 C3250 1.372 . S
C3251 C3252 1.400 . S
C3251 C3256 1.490 . S
C3252 H3242 0.930 . S
C3252 C3251 1.400 . S
C3252 C3255 1.386 . S
H3253 C3269 0.930 . S
H3254 C3270 0.931 . S
C3255 H3243 0.929 . S
C3255 C3249 1.390 . S
C3255 C3252 1.386 . S
C3256 C3251 1.490 . S
C3256 C3258 1.395 . S
C3256 C3259 1.403 . S
H3257 C3263 0.930 . S
C3258 H3244 0.930 . S
C3258 C3256 1.395 . S
C3258 C3261 1.403 . S
C3259 C3256 1.403 . S
C3259 C3260 1.524 . S
C3259 C3263 1.400 . S
C3260 H3245 0.960 . S
C3260 H3246 0.960 . S
C3260 H3247 0.960 . S
C3260 C3259 1.524 . S
C3261 C3258 1.403 . S
C3261 C3262 1.392 . S
C3261 C3265 1.495 . S
C3262 C3261 1.392 . S
C3262 C3263 1.385 . S
C3262 C3264 1.478 . S
C3263 H3257 0.930 . S
C3263 C3259 1.400 . S
C3263 C3262 1.385 . S
C3264 C3262 1.478 . S
C3264 C3266 1.381 . S
C3264 C3270 1.383 . S
C3265 C3261 1.495 . S
C3265 H3271 0.959 . S
C3265 H3272 0.961 . S
C3265 H3273 0.960 . S
C3266 C3264 1.381 . S
C3266 C3267 1.394 . S
C3266 H3274 0.930 . S
C3267 C3266 1.394 . S
C3267 C3268 1.383 . S
C3267 H3275 0.929 . S
C3268 C3267 1.383 . S
C3268 C3269 1.377 . S
C3269 H3253 0.930 . S
C3269 C3268 1.377 . S
C3269 C3270 1.379 . S
C3270 H3254 0.931 . S
C3270 C3264 1.383 . S
C3270 C3269 1.379 . S
H3271 C3265 0.959 . S
H3272 C3265 0.961 . S
H3273 C3265 0.960 . S
H3274 C3266 0.930 . S
H3275 C3267 0.929 . S
H3276 C3284 0.929 . S
H3277 C3286 0.930 . S
H3278 C3288 0.930 . S
H3279 C3291 0.929 . S
H3280 C3294 0.930 . S
H3281 C3296 0.960 . S
H3282 C3296 0.960 . S
H3283 C3296 0.960 . S
C3284 H3276 0.929 . S
C3284 C3285 1.377 . S
C3284 C3286 1.384 . S
C3285 C3284 1.377 . S
C3285 C3291 1.390 . S
C3286 H3277 0.930 . S
C3286 C3284 1.384 . S
C3286 C3287 1.372 . S
C3287 C3286 1.372 . S
C3287 C3288 1.400 . S
C3287 C3292 1.490 . S
C3288 H3278 0.930 . S
C3288 C3287 1.400 . S
C3288 C3291 1.386 . S
H3289 C3305 0.930 . S
H3290 C3306 0.931 . S
C3291 H3279 0.929 . S
C3291 C3285 1.390 . S
C3291 C3288 1.386 . S
C3292 C3287 1.490 . S
C3292 C3294 1.395 . S
C3292 C3295 1.403 . S
H3293 C3299 0.930 . S
C3294 H3280 0.930 . S
C3294 C3292 1.395 . S
C3294 C3297 1.403 . S
C3295 C3292 1.403 . S
C3295 C3296 1.524 . S
C3295 C3299 1.400 . S
C3296 H3281 0.960 . S
C3296 H3282 0.960 . S
C3296 H3283 0.960 . S
C3296 C3295 1.524 . S
C3297 C3294 1.403 . S
C3297 C3298 1.392 . S
C3297 C3301 1.495 . S
C3298 C3297 1.392 . S
C3298 C3299 1.385 . S
C3298 C3300 1.478 . S
C3299 H3293 0.930 . S
C3299 C3295 1.400 . S
C3299 C3298 1.385 . S
C3300 C3298 1.478 . S
C3300 C3302 1.381 . S
C3300 C3306 1.383 . S
C3301 C3297 1.495 . S
C3301 H3307 0.959 . S
C3301 H3308 0.961 . S
C3301 H3309 0.960 . S
C3302 C3300 1.381 . S
C3302 C3303 1.394 . S
C3302 H3310 0.930 . S
C3303 C3302 1.394 . S
C3303 C3304 1.383 . S
C3303 H3311 0.929 . S
C3304 C3303 1.383 . S
C3304 C3305 1.377 . S
C3305 H3289 0.930 . S
C3305 C3304 1.377 . S
C3305 C3306 1.379 . S
C3306 H3290 0.931 . S
C3306 C3300 1.383 . S
C3306 C3305 1.379 . S
H3307 C3301 0.959 . S
H3308 C3301 0.961 . S
H3309 C3301 0.960 . S
H3310 C3302 0.930 . S
H3311 C3303 0.929 . S
H3312 C3320 0.929 . S
H3313 C3322 0.930 . S
H3314 C3324 0.930 . S
H3315 C3327 0.929 . S
H3316 C3330 0.930 . S
H3317 C3332 0.960 . S
H3318 C3332 0.960 . S
H3319 C3332 0.960 . S
C3320 H3312 0.929 . S
C3320 C3321 1.377 . S
C3320 C3322 1.384 . S
C3321 C3320 1.377 . S
C3321 C3327 1.390 . S
C3322 H3313 0.930 . S
C3322 C3320 1.384 . S
C3322 C3323 1.372 . S
C3323 C3322 1.372 . S
C3323 C3324 1.400 . S
C3323 C3328 1.490 . S
C3324 H3314 0.930 . S
C3324 C3323 1.400 . S
C3324 C3327 1.386 . S
H3325 C3341 0.930 . S
H3326 C3342 0.931 . S
C3327 H3315 0.929 . S
C3327 C3321 1.390 . S
C3327 C3324 1.386 . S
C3328 C3323 1.490 . S
C3328 C3330 1.395 . S
C3328 C3331 1.403 . S
H3329 C3335 0.930 . S
C3330 H3316 0.930 . S
C3330 C3328 1.395 . S
C3330 C3333 1.403 . S
C3331 C3328 1.403 . S
C3331 C3332 1.524 . S
C3331 C3335 1.400 . S
C3332 H3317 0.960 . S
C3332 H3318 0.960 . S
C3332 H3319 0.960 . S
C3332 C3331 1.524 . S
C3333 C3330 1.403 . S
C3333 C3334 1.392 . S
C3333 C3337 1.495 . S
C3334 C3333 1.392 . S
C3334 C3335 1.385 . S
C3334 C3336 1.478 . S
C3335 H3329 0.930 . S
C3335 C3331 1.400 . S
C3335 C3334 1.385 . S
C3336 C3334 1.478 . S
C3336 C3338 1.381 . S
C3336 C3342 1.383 . S
C3337 C3333 1.495 . S
C3337 H3343 0.959 . S
C3337 H3344 0.961 . S
C3337 H3345 0.960 . S
C3338 C3336 1.381 . S
C3338 C3339 1.394 . S
C3338 H3346 0.930 . S
C3339 C3338 1.394 . S
C3339 C3340 1.383 . S
C3339 H3347 0.929 . S
C3340 C3339 1.383 . S
C3340 C3341 1.377 . S
C3341 H3325 0.930 . S
C3341 C3340 1.377 . S
C3341 C3342 1.379 . S
C3342 H3326 0.931 . S
C3342 C3336 1.383 . S
C3342 C3341 1.379 . S
H3343 C3337 0.959 . S
H3344 C3337 0.961 . S
H3345 C3337 0.960 . S
H3346 C3338 0.930 . S
H3347 C3339 0.929 . S
H3348 C3356 0.929 . S
H3349 C3358 0.930 . S
H3350 C3360 0.930 . S
H3351 C3363 0.929 . S
H3352 C3366 0.930 . S
H3353 C3368 0.960 . S
H3354 C3368 0.960 . S
H3355 C3368 0.960 . S
C3356 H3348 0.929 . S
C3356 C3357 1.377 . S
C3356 C3358 1.384 . S
C3357 C3356 1.377 . S
C3357 C3363 1.390 . S
C3358 H3349 0.930 . S
C3358 C3356 1.384 . S
C3358 C3359 1.372 . S
C3359 C3358 1.372 . S
C3359 C3360 1.400 . S
C3359 C3364 1.490 . S
C3360 H3350 0.930 . S
C3360 C3359 1.400 . S
C3360 C3363 1.386 . S
H3361 C3377 0.930 . S
H3362 C3378 0.931 . S
C3363 H3351 0.929 . S
C3363 C3357 1.390 . S
C3363 C3360 1.386 . S
C3364 C3359 1.490 . S
C3364 C3366 1.395 . S
C3364 C3367 1.403 . S
H3365 C3371 0.930 . S
C3366 H3352 0.930 . S
C3366 C3364 1.395 . S
C3366 C3369 1.403 . S
C3367 C3364 1.403 . S
C3367 C3368 1.524 . S
C3367 C3371 1.400 . S
C3368 H3353 0.960 . S
C3368 H3354 0.960 . S
C3368 H3355 0.960 . S
C3368 C3367 1.524 . S
C3369 C3366 1.403 . S
C3369 C3370 1.392 . S
C3369 C3373 1.495 . S
C3370 C3369 1.392 . S
C3370 C3371 1.385 . S
C3370 C3372 1.478 . S
C3371 H3365 0.930 . S
C3371 C3367 1.400 . S
C3371 C3370 1.385 . S
C3372 C3370 1.478 . S
C3372 C3374 1.381 . S
C3372 C3378 1.383 . S
C3373 C3369 1.495 . S
C3373 H3379 0.959 . S
C3373 H3380 0.961 . S
C3373 H3381 0.960 . S
C3374 C3372 1.381 . S
C3374 C3375 1.394 . S
C3374 H3382 0.930 . S
C3375 C3374 1.394 . S
C3375 C3376 1.383 . S
C3375 H3383 0.929 . S
C3376 C3375 1.383 . S
C3376 C3377 1.377 . S
C3377 H3361 0.930 . S
C3377 C3376 1.377 . S
C3377 C3378 1.379 . S
C3378 H3362 0.931 . S
C3378 C3372 1.383 . S
C3378 C3377 1.379 . S
H3379 C3373 0.959 . S
H3380 C3373 0.961 . S
H3381 C3373 0.960 . S
H3382 C3374 0.930 . S
H3383 C3375 0.929 . S
H3384 C3392 0.929 . S
H3385 C3394 0.930 . S
H3386 C3396 0.930 . S
H3387 C3399 0.929 . S
H3388 C3402 0.930 . S
H3389 C3404 0.960 . S
H3390 C3404 0.960 . S
H3391 C3404 0.960 . S
C3392 H3384 0.929 . S
C3392 C3393 1.377 . S
C3392 C3394 1.384 . S
C3393 C3392 1.377 . S
C3393 C3399 1.390 . S
C3394 H3385 0.930 . S
C3394 C3392 1.384 . S
C3394 C3395 1.372 . S
C3395 C3394 1.372 . S
C3395 C3396 1.400 . S
C3395 C3400 1.490 . S
C3396 H3386 0.930 . S
C3396 C3395 1.400 . S
C3396 C3399 1.386 . S
H3397 C3413 0.930 . S
H3398 C3414 0.931 . S
C3399 H3387 0.929 . S
C3399 C3393 1.390 . S
C3399 C3396 1.386 . S
C3400 C3395 1.490 . S
C3400 C3402 1.395 . S
C3400 C3403 1.403 . S
H3401 C3407 0.930 . S
C3402 H3388 0.930 . S
C3402 C3400 1.395 . S
C3402 C3405 1.403 . S
C3403 C3400 1.403 . S
C3403 C3404 1.524 . S
C3403 C3407 1.400 . S
C3404 H3389 0.960 . S
C3404 H3390 0.960 . S
C3404 H3391 0.960 . S
C3404 C3403 1.524 . S
C3405 C3402 1.403 . S
C3405 C3406 1.392 . S
C3405 C3409 1.495 . S
C3406 C3405 1.392 . S
C3406 C3407 1.385 . S
C3406 C3408 1.478 . S
C3407 H3401 0.930 . S
C3407 C3403 1.400 . S
C3407 C3406 1.385 . S
C3408 C3406 1.478 . S
C3408 C3410 1.381 . S
C3408 C3414 1.383 . S
C3409 C3405 1.495 . S
C3409 H3415 0.959 . S
C3409 H3416 0.961 . S
C3409 H3417 0.960 . S
C3410 C3408 1.381 . S
C3410 C3411 1.394 . S
C3410 H3418 0.930 . S
C3411 C3410 1.394 . S
C3411 C3412 1.383 . S
C3411 H3419 0.929 . S
C3412 C3411 1.383 . S
C3412 C3413 1.377 . S
C3413 H3397 0.930 . S
C3413 C3412 1.377 . S
C3413 C3414 1.379 . S
C3414 H3398 0.931 . S
C3414 C3408 1.383 . S
C3414 C3413 1.379 . S
H3415 C3409 0.959 . S
H3416 C3409 0.961 . S
H3417 C3409 0.960 . S
H3418 C3410 0.930 . S
H3419 C3411 0.929 . S
C1485 C522 1.420 . S
C1504 C776 1.342 . S
C1521 C562 1.428 . S
C1540 C860 1.358 . S
C1557 C495 1.450 . S
C1576 C954 1.425 . S
C1593 C455 1.402 . S
C1612 C870 1.363 . S
C1648 C944 1.281 . S
C1629 C362 1.355 . S
C1665 C402 1.388 . S
C1684 C786 1.336 . S
C1720 C787 1.347 . S
C1701 C442 1.424 . S
C1756 C871 1.300 . S
C1737 C375 1.403 . S
C1773 C415 1.456 . S
C1792 C963 1.419 . S
C1809 C535 1.408 . S
C1828 C879 1.390 . S
C1845 C575 1.331 . S
C1864 C955 1.222 . S
C1900 C795 1.392 . S
C1881 C482 1.388 . S
C1936 C1028 1.376 . S
C1917 C42 1.422 . S
C1953 C82 1.429 . S
C1972 C1112 1.384 . S
C1989 C15 1.452 . S
C2008 C1206 1.387 . S
C2025 C695 1.404 . S
C2044 C1122 1.388 . S
C2061 C602 1.354 . S
C2080 C1196 1.258 . S
C2097 C642 1.390 . S
C2116 C1038 1.363 . S
C2133 C682 1.431 . S
C2152 C1039 1.405 . S
C2169 C615 1.405 . S
C2188 C1123 1.340 . S
C2224 C1215 1.386 . S
C2205 C655 1.453 . S
C2241 C55 1.407 . S
C2260 C1131 1.391 . S
C2296 C1207 1.230 . S
C2277 C95 1.330 . S
C2313 C2 1.386 . S
C2332 C1047 1.381 . S
C2368 C1280 1.361 . S
C2349 C282 1.421 . S
C2385 C322 1.427 . S
C2404 C1364 1.334 . S
C2440 C1458 1.422 . S
C2421 C255 1.454 . S
C2476 C1374 1.379 . S
C2457 C215 1.402 . S
C2512 C1448 1.247 . S
C2493 C122 1.353 . S
C2529 C162 1.389 . S
C2548 C1290 1.367 . S
C2565 C202 1.430 . S
C2584 C1291 1.397 . S
C2601 C135 1.403 . S
C2620 C1375 1.299 . S
C2656 C1467 1.398 . S
C2637 C175 1.453 . S
C2673 C295 1.408 . S
C2692 C1383 1.390 . S
C2709 C335 1.332 . S
C2728 C1459 1.277 . S
C2745 C242 1.393 . S
C2764 C1299 1.399 . S
C2781 C621 1.386 . S
C2800 C783 1.273 . S
C2836 C867 1.348 . S
C2817 C661 1.490 . S
C2853 C701 1.461 . S
C2872 C960 1.343 . S
C2889 C261 1.498 . S
C2908 C876 1.324 . S
C2925 C301 1.440 . S
C2944 C951 1.342 . S
C2980 C792 1.317 . S
C2961 C341 1.383 . S
C2997 C141 1.383 . S
C3016 C1035 1.314 . S
C3033 C181 1.488 . S
C3052 C1119 1.320 . S
C3069 C221 1.456 . S
C3088 C1212 1.296 . S
C3105 C501 1.500 . S
C3124 C1128 1.392 . S
C3160 C1203 1.328 . S
C3141 C541 1.441 . S
C3177 C581 1.381 . S
C3196 C1044 1.296 . S
C3213 C381 1.382 . S
C3232 C1287 1.318 . S
C3249 C421 1.490 . S
C3268 C1371 1.300 . S
C3304 C1464 1.324 . S
C3285 C461 1.461 . S
C3321 C21 1.498 . S
C3340 C1380 1.406 . S
C3357 C61 1.441 . S
C3376 C1455 1.322 . S
C3393 C101 1.385 . S
C3412 C1296 1.235 . S
