# Generated by pormake.
# Topology soc, (4,6)-cn, num edge types: 1
# Building blocks:
#     Node 0, Type 0, BuildingBlock: ESEHIV_clean_sbu_0, # of connection points: 4
#     Node 1, Type 0, BuildingBlock: ESEHIV_clean_sbu_0, # of connection points: 4
#     Node 2, Type 0, BuildingBlock: ESEHIV_clean_sbu_0, # of connection points: 4
#     Node 3, Type 0, BuildingBlock: ESEHIV_clean_sbu_0, # of connection points: 4
#     Node 4, Type 0, BuildingBlock: ESEHIV_clean_sbu_0, # of connection points: 4
#     Node 5, Type 0, BuildingBlock: ESEHIV_clean_sbu_0, # of connection points: 4
#     Node 6, Type 0, BuildingBlock: ESEHIV_clean_sbu_0, # of connection points: 4
#     Node 7, Type 0, BuildingBlock: ESEHIV_clean_sbu_0, # of connection points: 4
#     Node 8, Type 0, BuildingBlock: ESEHIV_clean_sbu_0, # of connection points: 4
#     Node 9, Type 0, BuildingBlock: ESEHIV_clean_sbu_0, # of connection points: 4
#     Node 10, Type 0, BuildingBlock: ESEHIV_clean_sbu_0, # of connection points: 4
#     Node 11, Type 0, BuildingBlock: ESEHIV_clean_sbu_0, # of connection points: 4
#     Node 12, Type 1, BuildingBlock: PAMTUU_clean_sbu_0, # of connection points: 6
#     Node 13, Type 1, BuildingBlock: PAMTUU_clean_sbu_0, # of connection points: 6
#     Node 14, Type 1, BuildingBlock: PAMTUU_clean_sbu_0, # of connection points: 6
#     Node 15, Type 1, BuildingBlock: PAMTUU_clean_sbu_0, # of connection points: 6
#     Node 16, Type 1, BuildingBlock: PAMTUU_clean_sbu_0, # of connection points: 6
#     Node 17, Type 1, BuildingBlock: PAMTUU_clean_sbu_0, # of connection points: 6
#     Node 18, Type 1, BuildingBlock: PAMTUU_clean_sbu_0, # of connection points: 6
#     Node 19, Type 1, BuildingBlock: PAMTUU_clean_sbu_0, # of connection points: 6
#     Edge 20, Type (0, 1), BuildingBlock: MIFKUJ_clean_linker_0, # of connection points: 2
#     Edge 21, Type (0, 1), BuildingBlock: MIFKUJ_clean_linker_0, # of connection points: 2
#     Edge 22, Type (0, 1), BuildingBlock: MIFKUJ_clean_linker_0, # of connection points: 2
#     Edge 23, Type (0, 1), BuildingBlock: MIFKUJ_clean_linker_0, # of connection points: 2
#     Edge 24, Type (0, 1), BuildingBlock: MIFKUJ_clean_linker_0, # of connection points: 2
#     Edge 25, Type (0, 1), BuildingBlock: MIFKUJ_clean_linker_0, # of connection points: 2
#     Edge 26, Type (0, 1), BuildingBlock: MIFKUJ_clean_linker_0, # of connection points: 2
#     Edge 27, Type (0, 1), BuildingBlock: MIFKUJ_clean_linker_0, # of connection points: 2
#     Edge 28, Type (0, 1), BuildingBlock: MIFKUJ_clean_linker_0, # of connection points: 2
#     Edge 29, Type (0, 1), BuildingBlock: MIFKUJ_clean_linker_0, # of connection points: 2
#     Edge 30, Type (0, 1), BuildingBlock: MIFKUJ_clean_linker_0, # of connection points: 2
#     Edge 31, Type (0, 1), BuildingBlock: MIFKUJ_clean_linker_0, # of connection points: 2
#     Edge 32, Type (0, 1), BuildingBlock: MIFKUJ_clean_linker_0, # of connection points: 2
#     Edge 33, Type (0, 1), BuildingBlock: MIFKUJ_clean_linker_0, # of connection points: 2
#     Edge 34, Type (0, 1), BuildingBlock: MIFKUJ_clean_linker_0, # of connection points: 2
#     Edge 35, Type (0, 1), BuildingBlock: MIFKUJ_clean_linker_0, # of connection points: 2
#     Edge 36, Type (0, 1), BuildingBlock: MIFKUJ_clean_linker_0, # of connection points: 2
#     Edge 37, Type (0, 1), BuildingBlock: MIFKUJ_clean_linker_0, # of connection points: 2
#     Edge 38, Type (0, 1), BuildingBlock: MIFKUJ_clean_linker_0, # of connection points: 2
#     Edge 39, Type (0, 1), BuildingBlock: MIFKUJ_clean_linker_0, # of connection points: 2
#     Edge 40, Type (0, 1), BuildingBlock: MIFKUJ_clean_linker_0, # of connection points: 2
#     Edge 41, Type (0, 1), BuildingBlock: MIFKUJ_clean_linker_0, # of connection points: 2
#     Edge 42, Type (0, 1), BuildingBlock: MIFKUJ_clean_linker_0, # of connection points: 2
#     Edge 43, Type (0, 1), BuildingBlock: MIFKUJ_clean_linker_0, # of connection points: 2
#     Edge 44, Type (0, 1), BuildingBlock: MIFKUJ_clean_linker_0, # of connection points: 2
#     Edge 45, Type (0, 1), BuildingBlock: MIFKUJ_clean_linker_0, # of connection points: 2
#     Edge 46, Type (0, 1), BuildingBlock: MIFKUJ_clean_linker_0, # of connection points: 2
#     Edge 47, Type (0, 1), BuildingBlock: MIFKUJ_clean_linker_0, # of connection points: 2
#     Edge 48, Type (0, 1), BuildingBlock: MIFKUJ_clean_linker_0, # of connection points: 2
#     Edge 49, Type (0, 1), BuildingBlock: MIFKUJ_clean_linker_0, # of connection points: 2
#     Edge 50, Type (0, 1), BuildingBlock: MIFKUJ_clean_linker_0, # of connection points: 2
#     Edge 51, Type (0, 1), BuildingBlock: MIFKUJ_clean_linker_0, # of connection points: 2
#     Edge 52, Type (0, 1), BuildingBlock: MIFKUJ_clean_linker_0, # of connection points: 2
#     Edge 53, Type (0, 1), BuildingBlock: MIFKUJ_clean_linker_0, # of connection points: 2
#     Edge 54, Type (0, 1), BuildingBlock: MIFKUJ_clean_linker_0, # of connection points: 2
#     Edge 55, Type (0, 1), BuildingBlock: MIFKUJ_clean_linker_0, # of connection points: 2
#     Edge 56, Type (0, 1), BuildingBlock: MIFKUJ_clean_linker_0, # of connection points: 2
#     Edge 57, Type (0, 1), BuildingBlock: MIFKUJ_clean_linker_0, # of connection points: 2
#     Edge 58, Type (0, 1), BuildingBlock: MIFKUJ_clean_linker_0, # of connection points: 2
#     Edge 59, Type (0, 1), BuildingBlock: MIFKUJ_clean_linker_0, # of connection points: 2
#     Edge 60, Type (0, 1), BuildingBlock: MIFKUJ_clean_linker_0, # of connection points: 2
#     Edge 61, Type (0, 1), BuildingBlock: MIFKUJ_clean_linker_0, # of connection points: 2
#     Edge 62, Type (0, 1), BuildingBlock: MIFKUJ_clean_linker_0, # of connection points: 2
#     Edge 63, Type (0, 1), BuildingBlock: MIFKUJ_clean_linker_0, # of connection points: 2
#     Edge 64, Type (0, 1), BuildingBlock: MIFKUJ_clean_linker_0, # of connection points: 2
#     Edge 65, Type (0, 1), BuildingBlock: MIFKUJ_clean_linker_0, # of connection points: 2
#     Edge 66, Type (0, 1), BuildingBlock: MIFKUJ_clean_linker_0, # of connection points: 2
#     Edge 67, Type (0, 1), BuildingBlock: MIFKUJ_clean_linker_0, # of connection points: 2
# Relax obj value: 0.112
# Max RMSD: 0.197
# Mean RMSD: 0.147
data_MOF--net-soc--node1-ESEHIV_clean_sbu_0--node2-PAMTUU_clean_sbu_0--edge1-MIFKUJ_clean_linker_0
_symmetry_space_group_name_H-M    P1
_symmetry_Int_Tables_number       1
_symmetry_cell_setting            triclinic
loop_
_symmetry_equiv_pos_as_xyz
'x, y, z'
_cell_length_a     64.892477
_cell_length_b     63.079061
_cell_length_c     55.530584
_cell_angle_alpha  84.58315
_cell_angle_beta   84.065397
_cell_angle_gamma 74.85591
loop_
_atom_site_label
_atom_site_type_symbol
_atom_site_fract_x
_atom_site_fract_y
_atom_site_fract_z
_atom_type_partial_charge
Cu0 Cu 0.04336 0.02519 0.334 0.0
N1 N 0.05295 0.04331 0.35256 0.0
N2 N 0.07239 0.06528 0.36221 0.0
C3 C 0.069 0.05289 0.34523 0.0
C4 C 0.05779 0.06346 0.38096 0.0
C5 C 0.04573 0.04998 0.37488 0.0
O6 O 0.0685 0.00672 0.3168 0.0
C7 C 1.00306 0.05129 0.32458 0.0
O8 O 0.9992 0.04433 0.34721 0.0
H9 H 0.07818 0.05053 0.32784 0.0
H10 H 0.03254 0.0455 0.38586 0.0
N11 N 0.03044 0.0055 0.35315 0.0
N12 N 1.01128 0.98067 0.36213 0.0
C13 C 1.01767 0.99462 0.34482 0.0
C14 C 0.03242 0.99807 0.37654 0.0
C15 C 1.02059 0.98271 0.38215 0.0
C16 C 0.08303 0.99659 0.33064 0.0
O17 O 0.08001 1.00014 0.35383 0.0
H18 H 1.01353 0.99664 0.32621 0.0
H19 H 0.04202 0.0032 0.38856 0.0
O20 O 0.02186 0.04471 0.31415 0.0
H21 H 0.0557 0.0716 0.39768 0.0
H22 H 1.01893 0.97381 0.39958 0.0
Cu23 Cu 0.03905 0.02266 0.7568 0.0
N24 N 0.02688 0.00656 0.73816 0.0
N25 N 1.00838 0.98331 0.72962 0.0
C26 C 1.01274 0.99486 0.74682 0.0
C27 C 1.02022 0.98789 0.70932 0.0
C28 C 0.03158 0.00229 0.71462 0.0
O29 O 1.0163 0.04221 0.7763 0.0
C30 C 0.07485 0.98878 0.7603 0.0
O31 O 0.07371 0.99258 0.73675 0.0
H32 H 1.00635 0.99427 0.7656 0.0
H33 H 0.043 0.00859 0.70238 0.0
N34 N 0.05322 0.04118 0.73766 0.0
N35 N 0.0742 0.06434 0.72925 0.0
C36 C 0.06796 0.04967 0.74575 0.0
C37 C 0.04985 0.05084 0.71526 0.0
C38 C 0.06295 0.06504 0.70992 0.0
C39 C 0.99918 0.05141 0.76598 0.0
O40 O 0.9974 0.04627 0.74406 0.0
H41 H 0.07366 0.04542 0.76366 0.0
H42 H 0.03813 0.04844 0.70401 0.0
O43 O 0.06082 1.00098 0.77435 0.0
H44 H 1.02075 0.98117 0.69197 0.0
H45 H 0.06343 0.07577 0.69358 0.0
Cu46 Cu 0.26696 0.04787 0.0864 0.0
N47 N 0.24473 0.04299 0.07065 0.0
N48 N 0.22991 0.02765 0.04475 0.0
C49 C 0.24801 0.02755 0.05466 0.0
C50 C 0.21448 0.04377 0.05494 0.0
C51 C 0.22374 0.05342 0.0708 0.0
O52 O 0.28161 0.01905 0.10134 0.0
C53 C 0.27227 0.07937 0.0505 0.0
O54 O 0.25222 0.08682 0.05889 0.0
H55 H 0.2635 0.01644 0.05036 0.0
H56 H 0.21582 0.06743 0.08105 0.0
N57 N 0.25671 0.06677 0.11138 0.0
N58 N 0.25677 0.08879 0.14058 0.0
C59 C 0.26824 0.07768 0.12193 0.0
C60 C 0.23737 0.07094 0.12396 0.0
C61 C 0.2373 0.08468 0.14185 0.0
C62 C 0.26908 0.00935 0.11467 0.0
O63 O 0.2486 0.01942 0.11704 0.0
H64 H 0.28479 0.07725 0.11617 0.0
H65 H 0.22446 0.06385 0.12104 0.0
O66 O 0.28348 0.06191 0.06104 0.0
H67 H 0.19792 0.04865 0.05066 0.0
H68 H 0.22423 0.09048 0.15533 0.0
Cu69 Cu 0.06227 0.29493 0.07873 0.0
N70 N 0.07253 0.31323 0.05452 0.0
N71 N 0.09309 0.32095 0.02161 0.0
C72 C 0.09199 0.30785 0.04218 0.0
C73 C 0.07357 0.33522 0.02111 0.0
C74 C 0.06091 0.33029 0.04125 0.0
O75 O 0.08565 0.28283 0.10045 0.0
C76 C 0.03843 0.26483 0.0637 0.0
O77 O 0.03269 0.2601 0.08649 0.0
H78 H 0.10438 0.29333 0.04703 0.0
H79 H 0.04392 0.33742 0.04473 0.0
N80 N 0.03825 0.31099 0.09727 0.0
N81 N 1.00805 0.3182 0.12202 0.0
C82 C 0.02478 0.3025 0.1131 0.0
C83 C 0.0301 0.33296 0.09687 0.0
C84 C 1.01147 0.33745 0.11201 0.0
C85 C 0.09174 0.29771 0.10992 0.0
O86 O 0.08191 0.31837 0.10448 0.0
H87 H 0.02728 0.28516 0.11827 0.0
H88 H 0.03702 0.34495 0.08613 0.0
O89 O 0.05241 0.27589 0.05857 0.0
H90 H 0.06839 0.34755 1.00656 0.0
H91 H 1.00092 0.35358 0.11478 0.0
Cu92 Cu 0.79139 0.99637 1.0066 0.0
N93 N 0.80712 0.01068 0.98385 0.0
N94 N 0.81418 0.03832 0.95911 0.0
C95 C 0.8013 0.03238 0.9777 0.0
C96 C 0.8289 0.01957 0.95355 0.0
C97 C 0.82443 0.00246 0.96883 0.0
O98 O 0.77695 0.01799 0.02993 0.0
C99 C 0.76948 0.98776 0.96797 0.0
O100 O 0.77512 0.00473 0.95631 0.0
H101 H 0.78748 0.04347 0.98636 0.0
H102 H 0.83267 0.98521 0.96841 0.0
N103 N 0.8092 0.97312 0.02362 0.0
N104 N 0.81787 0.94686 0.05324 0.0
C105 C 0.8019 0.96003 0.04105 0.0
C106 C 0.83061 0.96792 0.02455 0.0
C107 C 0.83601 0.95175 0.04303 0.0
C108 C 0.7894 0.02283 0.04369 0.0
O109 O 0.80994 0.01307 0.04125 0.0
H110 H 0.78504 0.96124 0.04581 0.0
H111 H 0.84134 0.97622 0.01364 0.0
O112 O 0.77307 0.98315 0.99024 0.0
H113 H 0.84137 0.01815 0.93881 0.0
H114 H 0.85186 0.94472 0.04907 0.0
Cu115 Cu 0.02715 0.75515 0.01507 0.0
N116 N 1.01419 0.74287 0.99314 0.0
N117 N 0.99203 0.73996 0.96599 0.0
C118 C 0.99613 0.75271 0.98221 0.0
C119 C 1.00801 0.72133 0.96692 0.0
C120 C 0.02158 0.72312 0.98375 0.0
O121 O 1.00408 0.76857 0.03954 0.0
C122 C 0.05294 0.76979 0.97518 0.0
O123 O 0.04418 0.75809 0.96296 0.0
H124 H 0.98659 0.76917 0.98553 0.0
H125 H 0.03611 0.71112 0.9884 0.0
N126 N 0.04659 0.73326 0.03188 0.0
N127 N 0.07446 0.72042 0.05427 0.0
C128 C 0.06465 0.73667 0.03865 0.0
C129 C 0.04494 0.71388 0.04323 0.0
C130 C 0.06229 0.70581 0.05702 0.0
C131 C 1.00699 0.76944 0.06184 0.0
O132 O 0.02668 0.765 0.06821 0.0
H133 H 0.06984 0.7515 0.03321 0.0
H134 H 0.03152 0.70682 0.04266 0.0
O135 O 0.04594 0.77295 0.99734 0.0
H136 H 1.00977 0.70742 0.95617 0.0
H137 H 0.06496 0.69115 0.0693 0.0
Cu138 Cu 0.5342 0.52024 0.85424 0.0
N139 N 0.54426 0.53806 0.87272 0.0
N140 N 0.56413 0.5598 0.88188 0.0
C141 C 0.56037 0.54744 0.86508 0.0
C142 C 0.54967 0.55816 0.90085 0.0
C143 C 0.53743 0.54474 0.89513 0.0
O144 O 0.55931 0.50165 0.83691 0.0
C145 C 0.4949 0.54843 0.84844 0.0
O146 O 0.49448 0.54355 0.87198 0.0
H147 H 0.56886 0.54551 0.84728 0.0
H148 H 0.52438 0.54032 0.90644 0.0
N149 N 0.52126 0.50071 0.87355 0.0
N150 N 0.50225 0.47575 0.88232 0.0
C151 C 0.50896 0.48947 0.86498 0.0
C152 C 0.52247 0.49393 0.8972 0.0
C153 C 0.51066 0.47855 0.9027 0.0
C154 C 0.57312 0.49065 0.85123 0.0
O155 O 0.56918 0.49352 0.87455 0.0
H156 H 0.50503 0.49145 0.8463 0.0
H157 H 0.53163 0.49939 0.90944 0.0
O158 O 0.51185 0.53975 0.83534 0.0
H159 H 0.54809 0.56598 0.9177 0.0
H160 H 0.50891 0.46971 0.92015 0.0
Cu161 Cu 0.54578 0.52881 0.25343 0.0
N162 N 0.53172 0.51355 0.23599 0.0
N163 N 0.51051 0.49242 0.22888 0.0
C164 C 0.51814 0.50161 0.24588 0.0
C165 C 0.51973 0.49876 0.20745 0.0
C166 C 0.5329 0.51168 0.2119 0.0
O167 O 0.52427 0.54931 0.27313 0.0
C168 C 0.58046 0.49399 0.25617 0.0
O169 O 0.57861 0.49794 0.23272 0.0
H170 H 0.51377 0.49992 0.26519 0.0
H171 H 0.54285 0.5189 0.19852 0.0
N172 N 0.56066 0.54617 0.23321 0.0
N173 N 0.58381 0.56688 0.22259 0.0
C174 C 0.57755 0.55243 0.23945 0.0
C175 C 0.55588 0.55707 0.21166 0.0
C176 C 0.57021 0.56975 0.20501 0.0
C177 C 0.50852 0.56061 0.26163 0.0
O178 O 0.50783 0.55674 0.23894 0.0
H179 H 0.58443 0.54723 0.25669 0.0
H180 H 0.54248 0.55654 0.20193 0.0
O181 O 0.56709 0.50645 0.27057 0.0
H182 H 0.51744 0.49404 0.18987 0.0
H183 H 0.57028 0.58058 0.18866 0.0
Cu184 Cu 0.82979 0.53929 0.57432 0.0
N185 N 0.84545 0.54741 0.54655 0.0
N186 N 0.85282 0.56389 0.51052 0.0
C187 C 0.83944 0.56513 0.53095 0.0
C188 C 0.86806 0.5449 0.51368 0.0
C189 C 0.86348 0.53479 0.53594 0.0
O190 O 0.81754 0.56471 0.59361 0.0
C191 C 0.80201 0.52713 0.54413 0.0
O192 O 0.80481 0.54384 0.52937 0.0
H193 H 0.82465 0.57775 0.53369 0.0
H194 H 0.87202 0.5188 0.54333 0.0
N195 N 0.84839 0.51796 0.59264 0.0
N196 N 0.86061 0.48601 0.61359 0.0
C197 C 0.84754 0.49685 0.59666 0.0
C198 C 0.86274 0.52056 0.60723 0.0
C199 C 0.87019 0.50082 0.62041 0.0
C200 C 0.81315 0.56233 0.61647 0.0
O201 O 0.81481 0.54238 0.62673 0.0
H202 H 0.8363 0.49005 0.58878 0.0
H203 H 0.86645 0.53602 0.60923 0.0
O204 O 0.80935 0.52429 0.56492 0.0
H205 H 0.88113 0.53838 0.50048 0.0
H206 H 0.88094 0.49788 0.63472 0.0
Cu207 Cu 0.56477 0.77577 0.57322 0.0
N208 N 0.58549 0.7591 0.55085 0.0
N209 N 0.61201 0.75129 0.52085 0.0
C210 C 0.60091 0.76628 0.53657 0.0
C211 C 0.60336 0.73389 0.5259 0.0
C212 C 0.5871 0.73875 0.54418 0.0
O213 O 0.58031 0.78701 0.59527 0.0
C214 C 0.54318 0.79849 0.53281 0.0
O215 O 0.55793 0.78441 0.52034 0.0
H216 H 0.60314 0.78264 0.53699 0.0
H217 H 0.57674 0.72839 0.55151 0.0
N218 N 0.54717 0.7598 0.59224 0.0
N219 N 0.51845 0.75345 0.61536 0.0
C220 C 0.52729 0.76871 0.60253 0.0
C221 C 0.55113 0.73816 0.599 0.0
C222 C 0.53347 0.73419 0.61308 0.0
C223 C 0.59644 0.77318 0.60375 0.0
O224 O 0.60111 0.75278 0.5975 0.0
H225 H 0.51942 0.78609 0.60052 0.0
H226 H 0.56592 0.72613 0.59439 0.0
O227 O 0.54446 0.79885 0.55552 0.0
H228 H 0.60813 0.7187 0.51686 0.0
H229 H 0.53205 0.71839 0.62149 0.0
Cu230 Cu 0.29983 0.492 0.52134 0.0
N231 N 0.31608 0.5093 0.50257 0.0
N232 N 0.32293 0.53838 0.47976 0.0
C233 C 0.30782 0.52793 0.48899 0.0
C234 C 0.34146 0.52576 0.48785 0.0
C235 C 0.3372 0.50785 0.50187 0.0
O236 O 0.28293 0.51102 0.54543 0.0
C237 C 0.29103 0.47646 0.47915 0.0
O238 O 0.3098 0.47997 0.47163 0.0
H239 H 0.29087 0.53418 0.48682 0.0
H240 H 0.34856 0.49509 0.51153 0.0
N241 N 0.31605 0.4673 0.53874 0.0
N242 N 0.32366 0.4402 0.56819 0.0
C243 C 0.30997 0.45934 0.56102 0.0
C244 C 0.33424 0.45269 0.53148 0.0
C245 C 0.33898 0.43597 0.54959 0.0
C246 C 0.29459 0.51686 0.55929 0.0
O247 O 0.31549 0.50928 0.55599 0.0
H248 H 0.29526 0.46702 0.57133 0.0
H249 H 0.34309 0.4538 0.514 0.0
O250 O 0.28298 0.48125 0.50047 0.0
H251 H 0.35695 0.52934 0.48416 0.0
H252 H 0.35254 0.4217 0.54897 0.0
Cu253 Cu 0.52064 0.25482 0.51608 0.0
N254 N 0.54297 0.23925 0.49549 0.0
N255 N 0.57448 0.23052 0.47346 0.0
C256 C 0.5622 0.24369 0.49008 0.0
C257 C 0.56248 0.21724 0.46828 0.0
C258 C 0.54307 0.22262 0.48196 0.0
O259 O 0.53384 0.27234 0.5347 0.0
C260 C 0.49704 0.27267 0.47399 0.0
O261 O 0.5159 0.26824 0.46172 0.0
H262 H 0.56678 0.25688 0.49754 0.0
H263 H 0.52978 0.21529 0.48168 0.0
N264 N 0.50999 0.23527 0.53831 0.0
N265 N 0.49096 0.22339 0.57016 0.0
C266 C 0.49399 0.24101 0.5558 0.0
C267 C 0.51725 0.21326 0.54156 0.0
C268 C 0.50559 0.20589 0.56129 0.0
C269 C 0.54556 0.26144 0.55119 0.0
O270 O 0.54722 0.24023 0.55499 0.0
H271 H 0.48528 0.25788 0.55846 0.0
H272 H 0.53046 0.20334 0.53079 0.0
O273 O 0.4961 0.27022 0.49717 0.0
H274 H 0.5673 0.20464 0.4554 0.0
H275 H 0.50779 0.189 0.56862 0.0
Tb276 Tb 0.30002 0.29488 0.28052 0.0
Tb277 Tb 0.27555 0.26918 0.32436 0.0
C278 C 0.25561 0.28494 0.27406 0.0
C279 C 0.33516 0.32831 0.24902 0.0
C280 C 0.36417 0.35466 0.24967 0.0
C281 C 0.3593 0.3486 0.22757 0.0
C282 C 0.34491 0.33557 0.22727 0.0
C283 C 0.34007 0.33404 0.27117 0.0
C284 C 0.35444 0.34712 0.2715 0.0
C285 C 0.31997 0.31474 0.24841 0.0
O286 O 0.2902 0.31743 0.30904 0.0
O287 O 0.26283 0.30423 0.32897 0.0
O288 O 0.30144 0.27667 0.34139 0.0
O289 O 0.32355 0.28057 0.30705 0.0
O290 O 0.24686 0.26764 0.34477 0.0
O291 O 0.27633 0.24319 0.35117 0.0
O292 O 0.29824 0.24396 0.30409 0.0
O293 O 0.30057 0.26343 0.26742 0.0
O294 O 0.26729 0.29939 0.26999 0.0
O295 O 0.25891 0.26966 0.29205 0.0
C296 C 0.27322 0.31967 0.32449 0.0
O297 O 0.32685 0.29403 0.25565 0.0
O298 O 0.30047 0.32313 0.25745 0.0
C299 C 0.32021 0.27811 0.33087 0.0
C300 C 0.24433 0.23153 0.35526 0.0
C301 C 0.22045 0.20026 0.35343 0.0
C302 C 0.21803 0.21256 0.3739 0.0
C303 C 0.22988 0.22801 0.37479 0.0
C304 C 0.2469 0.21936 0.33477 0.0
C305 C 0.23509 0.20381 0.33388 0.0
C306 C 0.2556 0.24883 0.35596 0.0
C307 C 0.30212 0.24468 0.28039 0.0
H308 H 0.36676 0.35376 0.21045 0.0
H309 H 0.34141 0.33116 0.21003 0.0
H310 H 0.33269 0.32851 0.28818 0.0
H311 H 0.35763 0.35163 0.28882 0.0
H312 H 0.20661 0.21064 0.38907 0.0
H313 H 0.2275 0.23747 0.3906 0.0
H314 H 0.25788 0.22203 0.31939 0.0
H315 H 0.23749 0.19453 0.31793 0.0
Tb316 Tb 0.78245 0.26284 0.27932 0.0
Tb317 Tb 0.80147 0.28438 0.32206 0.0
C318 C 0.7608 0.31058 0.29649 0.0
C319 C 0.7698 0.2309 0.22952 0.0
C320 C 0.77403 0.19854 0.19608 0.0
C321 C 0.75467 0.21474 0.19983 0.0
C322 C 0.75264 0.23071 0.21628 0.0
C323 C 0.78929 0.21499 0.22588 0.0
C324 C 0.7914 0.19894 0.20924 0.0
C325 C 0.76611 0.24721 0.24782 0.0
O326 O 0.81294 0.26796 0.26345 0.0
O327 O 0.81393 0.29591 0.28655 0.0
O328 O 0.8262 0.2552 0.31219 0.0
O329 O 0.80585 0.2357 0.29641 0.0
O330 O 0.81177 0.31096 0.33175 0.0
O331 O 0.81314 0.28226 0.3566 0.0
O332 O 0.78079 0.26488 0.3413 0.0
O333 O 0.75947 0.26485 0.31078 0.0
O334 O 0.76713 0.29818 0.27796 0.0
O335 O 0.76985 0.30559 0.31705 0.0
C336 C 0.82083 0.28435 0.26747 0.0
O337 O 0.76692 0.23968 0.27047 0.0
O338 O 0.77474 0.26381 0.24321 0.0
C339 C 0.82371 0.23683 0.30493 0.0
C340 C 0.80773 0.31681 0.37361 0.0
C341 C 0.79668 0.34792 0.40934 0.0
C342 C 0.81424 0.32944 0.41153 0.0
C343 C 0.81973 0.31411 0.3938 0.0
C344 C 0.78956 0.33466 0.37192 0.0
C345 C 0.78414 0.3501 0.38958 0.0
C346 C 0.81569 0.3022 0.35354 0.0
C347 C 0.76324 0.26191 0.33377 0.0
H348 H 0.74078 0.21477 0.19057 0.0
H349 H 0.7374 0.24273 0.21904 0.0
H350 H 0.80271 0.21484 0.23606 0.0
H351 H 0.80661 0.18686 0.20671 0.0
H352 H 0.82435 0.32735 0.42637 0.0
H353 H 0.83386 0.30053 0.3954 0.0
H354 H 0.77995 0.33708 0.35658 0.0
H355 H 0.77034 0.36397 0.38753 0.0
Tb356 Tb 0.81749 0.77797 0.3073 0.0
Tb357 Tb 0.79378 0.75462 0.27092 0.0
C358 C 0.81675 0.728 0.31566 0.0
C359 C 0.85049 0.80903 0.33465 0.0
C360 C 0.87951 0.83542 0.33429 0.0
C361 C 0.87222 0.82564 0.35621 0.0
C362 C 0.85786 0.81258 0.35636 0.0
C363 C 0.85774 0.81857 0.31263 0.0
C364 C 0.87213 0.83173 0.31245 0.0
C365 C 0.83502 0.79562 0.33565 0.0
O366 O 0.84269 0.76435 0.2792 0.0
O367 O 0.82211 0.76023 0.24938 0.0
O368 O 0.7836 0.7902 0.26279 0.0
O369 O 0.81121 0.80112 0.27623 0.0
O370 O 0.79501 0.73046 0.24676 0.0
O371 O 0.76599 0.75586 0.25412 0.0
O372 O 0.77452 0.75533 0.30551 0.0
O373 O 0.78371 0.78358 0.32144 0.0
O374 O 0.81608 0.74646 0.32509 0.0
O375 O 0.81264 0.7274 0.29307 0.0
C376 C 0.84054 0.76123 0.25649 0.0
O377 O 0.81674 0.8051 0.32676 0.0
O378 O 0.84255 0.77546 0.32935 0.0
C379 C 0.7951 0.80456 0.26278 0.0
C380 C 0.76203 0.72206 0.24321 0.0
C381 C 0.73479 0.69389 0.24255 0.0
C382 C 0.74306 0.70302 0.22077 0.0
C383 C 0.75653 0.71696 0.22113 0.0
C384 C 0.75429 0.71264 0.26506 0.0
C385 C 0.7408 0.69858 0.26472 0.0
C386 C 0.77487 0.73813 0.24281 0.0
C387 C 0.77124 0.77003 0.32171 0.0
H388 H 0.87728 0.82843 0.37337 0.0
H389 H 0.85233 0.80538 0.37351 0.0
H390 H 0.85221 0.81591 0.29568 0.0
H391 H 0.87759 0.83888 0.29526 0.0
H392 H 0.73905 0.69945 0.2034 0.0
H393 H 0.7624 0.72407 0.20411 0.0
H394 H 0.75836 0.71649 0.2823 0.0
H395 H 0.73459 0.69189 0.28179 0.0
Tb396 Tb 0.30692 0.79137 0.32419 0.0
Tb397 Tb 0.2896 0.76552 0.28396 0.0
C398 C 0.26013 0.80725 0.30705 0.0
C399 C 0.33267 0.81059 0.37362 0.0
C400 C 0.36293 0.81015 0.40676 0.0
C401 C 0.34377 0.8269 0.40633 0.0
C402 C 0.32882 0.82709 0.38991 0.0
C403 C 0.35142 0.79343 0.37434 0.0
C404 C 0.36645 0.79321 0.39081 0.0
C405 C 0.3175 0.81263 0.35516 0.0
O406 O 0.30835 0.75862 0.3411 0.0
O407 O 0.28266 0.75112 0.32039 0.0
O408 O 0.3216 0.74591 0.29028 0.0
O409 O 0.33616 0.76904 0.30924 0.0
O410 O 0.2655 0.75133 0.2762 0.0
O411 O 0.29438 0.74859 0.25206 0.0
O412 O 0.30194 0.79069 0.26164 0.0
O413 O 0.3046 0.81304 0.29122 0.0
O414 O 0.27198 0.80257 0.32564 0.0
O415 O 0.26575 0.79654 0.28734 0.0
C416 C 0.29526 0.7465 0.33831 0.0
O417 O 0.3255 0.81185 0.33263 0.0
O418 O 0.30288 0.80169 0.35971 0.0
C419 C 0.33798 0.75089 0.29833 0.0
C420 C 0.26297 0.74638 0.23477 0.0
C421 C 0.23688 0.74388 0.19802 0.0
C422 C 0.25817 0.73108 0.1978 0.0
C423 C 0.27104 0.73229 0.21602 0.0
C424 C 0.24209 0.76008 0.23437 0.0
C425 C 0.22916 0.75884 0.21613 0.0
C426 C 0.27567 0.74427 0.25581 0.0
C427 C 0.30484 0.80916 0.26832 0.0
H428 H 0.34066 0.84037 0.41804 0.0
H429 H 0.31446 0.84052 0.38949 0.0
H430 H 0.35461 0.78052 0.36187 0.0
H431 H 0.38092 0.77993 0.39087 0.0
H432 H 0.26474 0.71969 0.18387 0.0
H433 H 0.28709 0.72155 0.216 0.0
H434 H 0.23544 0.77108 0.24865 0.0
H435 H 0.2128 0.76884 0.21693 0.0
Tb436 Tb 0.27591 0.76077 0.78163 0.0
Tb437 Tb 0.29765 0.78074 0.82228 0.0
C438 C 0.26054 0.81055 0.79298 0.0
C439 C 0.26136 0.72663 0.73685 0.0
C440 C 0.26208 0.69047 0.71043 0.0
C441 C 0.2548 0.71208 0.70026 0.0
C442 C 0.25436 0.73 0.71343 0.0
C443 C 0.26956 0.70505 0.74666 0.0
C444 C 0.26981 0.6871 0.73358 0.0
C445 C 0.25788 0.74568 0.75149 0.0
O446 O 0.30829 0.75952 0.76568 0.0
O447 O 0.31577 0.7855 0.78733 0.0
O448 O 0.31829 0.74804 0.81805 0.0
O449 O 0.29648 0.73181 0.79985 0.0
O450 O 0.31074 0.80588 0.8307 0.0
O451 O 0.30845 0.77892 0.85701 0.0
O452 O 0.27186 0.76848 0.84288 0.0
O453 O 0.2514 0.76831 0.81171 0.0
O454 O 0.2655 0.79659 0.77586 0.0
O455 O 0.26899 0.80578 0.81383 0.0
C456 C 0.32025 0.77274 0.76899 0.0
O457 O 0.25538 0.74183 0.77495 0.0
O458 O 0.26966 0.75952 0.74533 0.0
C459 C 0.314 0.73064 0.81058 0.0
C460 C 0.30105 0.81441 0.87085 0.0
C461 C 0.2801 0.84913 0.89996 0.0
C462 C 0.30243 0.84031 0.89978 0.0
C463 C 0.31283 0.82315 0.88522 0.0
C464 C 0.27869 0.82239 0.87181 0.0
C465 C 0.26829 0.83964 0.8862 0.0
C466 C 0.31211 0.7984 0.85333 0.0
C467 C 0.25356 0.76797 0.835 0.0
H468 H 0.24864 0.71513 0.6825 0.0
H469 H 0.24787 0.74653 0.70563 0.0
H470 H 0.27517 0.70203 0.76469 0.0
H471 H 0.2758 0.67059 0.74168 0.0
H472 H 0.31195 0.84694 0.91056 0.0
H473 H 0.3301 0.81712 0.88469 0.0
H474 H 0.26935 0.81576 0.86079 0.0
H475 H 0.25113 0.84611 0.88574 0.0
Tb476 Tb 0.31687 0.26469 0.82485 0.0
Tb477 Tb 0.28874 0.24439 0.79109 0.0
C478 C 0.30637 0.21878 0.83902 0.0
C479 C 0.35103 0.29522 0.85164 0.0
C480 C 0.37551 0.32575 0.85373 0.0
C481 C 0.37593 0.30863 0.87196 0.0
C482 C 0.36377 0.29354 0.87092 0.0
C483 C 0.35095 0.31185 0.83296 0.0
C484 C 0.36315 0.32703 0.83399 0.0
C485 C 0.33724 0.28007 0.85228 0.0
O486 O 0.3379 0.25619 0.79241 0.0
O487 O 0.32252 0.23068 0.77967 0.0
O488 O 0.29816 0.27089 0.76861 0.0
O489 O 0.30428 0.29151 0.79784 0.0
O490 O 0.2848 0.21716 0.775 0.0
O491 O 0.26342 0.24945 0.7686 0.0
O492 O 0.26537 0.26672 0.81443 0.0
O493 O 0.28654 0.26511 0.84538 0.0
O494 O 0.32113 0.22988 0.83701 0.0
O495 O 0.29022 0.22428 0.82527 0.0
C496 C 0.33836 0.24031 0.77855 0.0
O497 O 0.31729 0.28886 0.84804 0.0
O498 O 0.34519 0.2618 0.8416 0.0
C499 C 0.3012 0.28921 0.77523 0.0
C500 C 0.24961 0.21853 0.76572 0.0
C501 C 0.21791 0.19581 0.76295 0.0
C502 C 0.22079 0.2123 0.745 0.0
C503 C 0.23652 0.22349 0.74636 0.0
C504 C 0.24622 0.20279 0.7843 0.0
C505 C 0.23047 0.19152 0.78292 0.0
C506 C 0.26777 0.2286 0.76475 0.0
C507 C 0.26758 0.26942 0.83712 0.0
H508 H 0.3856 0.30693 0.88714 0.0
H509 H 0.36406 0.28073 0.88543 0.0
H510 H 0.34116 0.31335 0.81791 0.0
H511 H 0.36243 0.34009 0.81973 0.0
H512 H 0.21112 0.21631 0.72963 0.0
H513 H 0.23887 0.23561 0.73187 0.0
H514 H 0.25614 0.19871 0.79945 0.0
H515 H 0.22873 0.17885 0.79699 0.0
Tb516 Tb 0.80847 0.29016 0.81504 0.0
Tb517 Tb 0.78252 0.27158 0.77504 0.0
C518 C 0.76046 0.31283 0.80437 0.0
C519 C 0.8468 0.29654 0.86009 0.0
C520 C 0.88123 0.28507 0.89066 0.0
C521 C 0.87575 0.30593 0.878 0.0
C522 C 0.85881 0.31154 0.86297 0.0
C523 C 0.85226 0.27555 0.87242 0.0
C524 C 0.86927 0.2699 0.88758 0.0
C525 C 0.8283 0.30381 0.84492 0.0
O526 O 0.80657 0.25771 0.82915 0.0
O527 O 0.77692 0.25564 0.81105 0.0
O528 O 0.81245 0.24649 0.77861 0.0
O529 O 0.83276 0.26649 0.79405 0.0
O530 O 0.75491 0.2619 0.76953 0.0
O531 O 0.77958 0.26173 0.74037 0.0
O532 O 0.80175 0.29175 0.75425 0.0
O533 O 0.80427 0.31384 0.78397 0.0
O534 O 0.7741 0.30591 0.82124 0.0
O535 O 0.76364 0.30414 0.78332 0.0
C536 C 0.79112 0.24834 0.82715 0.0
O537 O 0.83261 0.30523 0.82144 0.0
O538 O 0.81164 0.29592 0.85104 0.0
C539 C 0.83094 0.24877 0.78439 0.0
C540 C 0.74348 0.26715 0.72927 0.0
C541 C 0.71019 0.27598 0.69718 0.0
C542 C 0.73174 0.26741 0.68873 0.0
C543 C 0.74812 0.26294 0.7046 0.0
C544 C 0.72204 0.27654 0.7375 0.0
C545 C 0.70566 0.28087 0.7217 0.0
C546 C 0.76045 0.25899 0.74661 0.0
C547 C 0.8058 0.30958 0.76107 0.0
H548 H 0.88424 0.31822 0.88012 0.0
H549 H 0.85486 0.32786 0.8538 0.0
H550 H 0.8433 0.26361 0.87048 0.0
H551 H 0.87311 0.2536 0.89678 0.0
H552 H 0.73588 0.26325 0.67006 0.0
H553 H 0.76439 0.25542 0.69772 0.0
H554 H 0.71773 0.27994 0.75637 0.0
H555 H 0.68933 0.28778 0.72881 0.0
Tb556 Tb 0.79315 0.79157 0.77252 0.0
Tb557 Tb 0.76823 0.76542 0.81579 0.0
C558 C 0.74534 0.78902 0.76925 0.0
C559 C 0.8311 0.82299 0.74335 0.0
C560 C 0.8625 0.84598 0.74673 0.0
C561 C 0.84258 0.85698 0.73817 0.0
C562 C 0.8271 0.84556 0.73637 0.0
C563 C 0.851 0.81197 0.75208 0.0
C564 C 0.8666 0.82335 0.75361 0.0
C565 C 0.8142 0.81145 0.74184 0.0
O566 O 0.78581 0.81256 0.8027 0.0
O567 O 0.75865 0.79985 0.82417 0.0
O568 O 0.79579 0.77035 0.83141 0.0
O569 O 0.81714 0.77228 0.79622 0.0
O570 O 0.74081 0.76437 0.83887 0.0
O571 O 0.76949 0.73775 0.84047 0.0
O572 O 0.78639 0.74091 0.79096 0.0
O573 O 0.78895 0.7632 0.75625 0.0
O574 O 0.7598 0.80036 0.76376 0.0
O575 O 0.74746 0.77284 0.78628 0.0
C576 C 0.76968 0.81473 0.81939 0.0
O577 O 0.81925 0.79013 0.7465 0.0
O578 O 0.79531 0.82071 0.75189 0.0
C579 C 0.81462 0.76987 0.82001 0.0
C580 C 0.73586 0.72861 0.84879 0.0
C581 C 0.70978 0.69864 0.85301 0.0
C582 C 0.73219 0.69109 0.84939 0.0
C583 C 0.74512 0.70592 0.84737 0.0
C584 C 0.71346 0.73612 0.85226 0.0
C585 C 0.70058 0.72136 0.8542 0.0
C586 C 0.74924 0.74449 0.84783 0.0
C587 C 0.78937 0.74373 0.76717 0.0
H588 H 0.83911 0.87437 0.73249 0.0
H589 H 0.81192 0.85441 0.72958 0.0
H590 H 0.85453 0.79459 0.75781 0.0
H591 H 0.88178 0.81452 0.76041 0.0
H592 H 0.7398 0.67368 0.84866 0.0
H593 H 0.76234 0.69955 0.84497 0.0
H594 H 0.70583 0.75347 0.85364 0.0
H595 H 0.68337 0.72778 0.8566 0.0
H596 H 0.08929 0.08365 0.32131 0.0
H597 H 0.11602 0.10496 0.3184 0.0
H598 H 0.1183 0.09675 0.39618 0.0
H599 H 0.0914 0.07555 0.39919 0.0
H600 H 0.11616 0.13774 0.38112 0.0
H601 H 0.15849 0.06786 0.35617 0.0
H602 H 0.16888 0.03535 0.33193 0.0
H603 H 0.17604 0.07671 0.26727 0.0
H604 H 0.16533 0.10952 0.29103 0.0
H605 H 0.20972 0.17211 0.3903 0.0
H606 H 0.18571 0.14816 0.38989 0.0
H607 H 0.17792 0.16731 0.31411 0.0
H608 H 0.20149 0.19192 0.31446 0.0
H609 H 0.18316 0.12117 0.32672 0.0
H610 H 0.14019 0.19091 0.35225 0.0
H611 H 0.13085 0.22299 0.37708 0.0
H612 H 0.12605 0.18071 0.44158 0.0
H613 H 0.1357 0.14831 0.41715 0.0
C614 C 0.09564 0.08617 0.33778 0.0
C615 C 0.08823 0.07783 0.3605 0.0
C616 C 0.11096 0.09835 0.33608 0.0
C617 C 0.11943 0.10224 0.35703 0.0
C618 C 0.11202 0.09398 0.37974 0.0
C619 C 0.09658 0.08192 0.38146 0.0
C620 C 0.1354 0.11559 0.35542 0.0
C621 C 0.13094 0.13387 0.36947 0.0
C622 C 0.15447 0.11094 0.33972 0.0
C623 C 0.16082 0.09121 0.32536 0.0
C624 C 0.16205 0.07007 0.33674 0.0
C625 C 0.16804 0.05157 0.32309 0.0
C626 C 0.17302 0.05398 0.29807 0.0
C627 C 0.1721 0.07488 0.28665 0.0
C628 C 0.16607 0.09343 0.3002 0.0
C629 C 0.20285 0.17136 0.37354 0.0
C630 C 0.20735 0.1842 0.3525 0.0
C631 C 0.18924 0.15754 0.37332 0.0
C632 C 0.17987 0.15616 0.35205 0.0
C633 C 0.18501 0.16816 0.33071 0.0
C634 C 0.19854 0.18216 0.33094 0.0
C635 C 0.16391 0.14301 0.3526 0.0
C636 C 0.16835 0.1249 0.33834 0.0
C637 C 0.14486 0.14768 0.36818 0.0
C638 C 0.13887 0.16716 0.38289 0.0
C639 C 0.13731 0.18843 0.37174 0.0
C640 C 0.13194 0.20668 0.38574 0.0
C641 C 0.12791 0.20389 0.4109 0.0
C642 C 0.1292 0.18284 0.42209 0.0
C643 C 0.13461 0.16453 0.40818 0.0
H644 H 0.12375 0.21804 0.4217 0.0
H645 H 0.17766 0.03965 0.28753 0.0
H646 H 1.00625 0.08876 0.29679 0.0
H647 H 0.97634 0.12044 0.28674 0.0
H648 H 0.9313 0.08357 0.31711 0.0
H649 H 0.961 0.05227 0.32773 0.0
H650 H 0.91885 0.11268 0.27289 0.0
H651 H 0.94336 0.11221 0.35335 0.0
H652 H 0.97129 0.11081 0.38083 0.0
H653 H 0.9848 0.16883 0.34287 0.0
H654 H 0.95716 0.17034 0.31491 0.0
H655 H 0.82385 0.19319 0.30634 0.0
H656 H 0.85505 0.16145 0.30446 0.0
H657 H 0.89696 0.20511 0.29814 0.0
H658 H 0.86591 0.23664 0.30137 0.0
H659 H 0.91282 0.17312 0.32637 0.0
H660 H 0.88639 0.17735 0.24862 0.0
H661 H 0.85933 0.17961 0.21975 0.0
H662 H 0.85083 0.1166 0.24864 0.0
H663 H 0.87758 0.11412 0.27798 0.0
C664 C 0.98997 0.08723 0.30056 0.0
C665 C 0.98588 0.06812 0.31302 0.0
C666 C 0.97291 0.10533 0.29493 0.0
C667 C 0.9516 0.10436 0.30129 0.0
C668 C 0.94758 0.08464 0.31195 0.0
C669 C 0.96456 0.06679 0.31804 0.0
C670 C 0.93363 0.12453 0.29998 0.0
C671 C 0.91743 0.12593 0.28456 0.0
C672 C 0.93203 0.14196 0.31488 0.0
C673 C 0.9484 0.14123 0.33188 0.0
C674 C 0.95242 0.12455 0.35075 0.0
C675 C 0.96817 0.12376 0.36643 0.0
C676 C 0.97986 0.13968 0.36355 0.0
C677 C 0.97576 0.15648 0.34505 0.0
C678 C 0.96006 0.15731 0.32928 0.0
C679 C 0.83974 0.19596 0.30464 0.0
C680 C 0.84241 0.2174 0.30416 0.0
C681 C 0.85761 0.17781 0.30332 0.0
C682 C 0.87852 0.18077 0.30068 0.0
C683 C 0.88111 0.20225 0.3002 0.0
C684 C 0.8633 0.22031 0.30209 0.0
C685 C 0.89773 0.16157 0.29915 0.0
C686 C 0.9142 0.1602 0.31426 0.0
C687 C 0.89969 0.14441 0.28359 0.0
C688 C 0.88388 0.14563 0.26566 0.0
C689 C 0.87867 0.16402 0.24891 0.0
C690 C 0.86339 0.16535 0.23246 0.0
C691 C 0.85333 0.14829 0.2324 0.0
C692 C 0.85861 0.12982 0.24873 0.0
C693 C 0.87385 0.12843 0.26527 0.0
H694 H 0.84147 0.14936 0.21967 0.0
H695 H 0.99205 0.13904 0.37571 0.0
H696 H 0.98012 0.98755 0.33129 0.0
H697 H 0.95818 0.96267 0.32533 0.0
H698 H 0.98947 0.91652 0.38081 0.0
H699 H 1.01186 0.94119 0.3865 0.0
H700 H 0.98634 0.8964 0.34006 0.0
H701 H 0.93964 0.94785 0.3929 0.0
H702 H 0.92026 0.98468 0.40564 0.0
H703 H 0.88637 0.99726 0.34123 0.0
H704 H 0.90578 0.9606 0.32793 0.0
H705 H 0.91416 0.82844 0.36088 0.0
H706 H 0.93687 0.85326 0.36383 0.0
H707 H 0.90174 0.89938 0.31088 0.0
H708 H 0.87841 0.87489 0.30845 0.0
H709 H 0.90692 0.91991 0.34887 0.0
H710 H 0.95246 0.86863 0.29618 0.0
H711 H 0.97186 0.8321 0.28261 0.0
H712 H 1.00798 0.81951 0.3453 0.0
H713 H 0.98858 0.85586 0.35944 0.0
C714 C 0.98243 0.97206 0.34214 0.0
C715 C 0.99778 0.96632 0.35934 0.0
C716 C 0.96975 0.95793 0.33884 0.0
C717 C 0.97209 0.93781 0.35274 0.0
C718 C 0.98739 0.932 0.36993 0.0
C719 C 1.00004 0.94618 0.37331 0.0
C720 C 0.95873 0.92273 0.3491 0.0
C721 C 0.96898 0.90142 0.3423 0.0
C722 C 0.93608 0.92955 0.35128 0.0
C723 C 0.92432 0.95156 0.3593 0.0
C724 C 0.92818 0.95854 0.38135 0.0
C725 C 0.91717 0.97937 0.3887 0.0
C726 C 0.90213 0.99332 0.37422 0.0
C727 C 0.89804 0.98645 0.3524 0.0
C728 C 0.90903 0.96563 0.34497 0.0
C729 C 0.91123 0.84387 0.34987 0.0
C730 C 0.89441 0.84972 0.3345 0.0
C731 C 0.92438 0.85796 0.3514 0.0
C732 C 0.92113 0.87811 0.33742 0.0
C733 C 0.90456 0.88388 0.32179 0.0
C734 C 0.89137 0.86979 0.32026 0.0
C735 C 0.93451 0.89349 0.33994 0.0
C736 C 0.92428 0.91488 0.34654 0.0
C737 C 0.95718 0.88678 0.33744 0.0
C738 C 0.96892 0.86491 0.32898 0.0
C739 C 0.96442 0.85801 0.30718 0.0
C740 C 0.97544 0.83734 0.29937 0.0
C741 C 0.99111 0.82347 0.31312 0.0
C742 C 0.99583 0.83026 0.33468 0.0
C743 C 0.98484 0.85091 0.34259 0.0
H744 H 0.99963 0.80748 0.30704 0.0
H745 H 0.89362 0.00945 0.37994 0.0
H746 H 0.11931 0.98072 0.35362 0.0
H747 H 0.14959 0.9502 0.34336 0.0
H748 H 0.12152 0.94352 0.27827 0.0
H749 H 0.09059 0.97429 0.28877 0.0
H750 H 0.13445 0.90426 0.30318 0.0
H751 H 0.16723 0.96175 0.27449 0.0
H752 H 0.17771 0.99655 0.27505 0.0
H753 H 0.21314 0.97057 0.33705 0.0
H754 H 0.20265 0.93571 0.3371 0.0
H755 H 0.23059 0.82053 0.27319 0.0
H756 H 0.20085 0.8536 0.2721 0.0
H757 H 0.21632 0.87023 0.34042 0.0
H758 H 0.24619 0.83726 0.34163 0.0
H759 H 0.21022 0.90547 0.30664 0.0
H760 H 0.1734 0.84957 0.3372 0.0
H761 H 0.16292 0.81486 0.33582 0.0
H762 H 0.13531 0.83843 0.26827 0.0
H763 H 0.14588 0.87318 0.26909 0.0
C764 C 0.11961 0.97301 0.33692 0.0
C765 C 0.10247 0.97993 0.32204 0.0
C766 C 0.13708 0.95558 0.33099 0.0
C767 C 0.13802 0.94463 0.30991 0.0
C768 C 0.12119 0.95179 0.29459 0.0
C769 C 0.1036 0.96943 0.30051 0.0
C770 C 0.15594 0.92481 0.30521 0.0
C771 C 0.15105 0.90463 0.30334 0.0
C772 C 0.17763 0.92515 0.30581 0.0
C773 C 0.18403 0.94612 0.30588 0.0
C774 C 0.17713 0.9635 0.28836 0.0
C775 C 0.1831 0.98323 0.28855 0.0
C776 C 0.19605 0.98578 0.30609 0.0
C777 C 0.2031 0.96858 0.32347 0.0
C778 C 0.19718 0.9488 0.32337 0.0
C779 C 0.22757 0.83107 0.28814 0.0
C780 C 0.2408 0.82613 0.30756 0.0
C781 C 0.21052 0.85 0.28747 0.0
C782 C 0.2063 0.86441 0.3062 0.0
C783 C 0.2193 0.85939 0.32573 0.0
C784 C 0.23629 0.84042 0.32648 0.0
C785 C 0.18863 0.88494 0.3053 0.0
C786 C 0.19362 0.90521 0.30609 0.0
C787 C 0.16708 0.8847 0.30351 0.0
C788 C 0.16065 0.86386 0.30307 0.0
C789 C 0.16525 0.84727 0.32195 0.0
C790 C 0.15926 0.82761 0.32129 0.0
C791 C 0.14851 0.82441 0.30193 0.0
C792 C 0.14367 0.84091 0.28323 0.0
C793 C 0.14964 0.8606 0.28379 0.0
H794 H 0.14389 0.80918 0.30145 0.0
H795 H 0.20066 1.00107 0.30621 0.0
H796 H 0.09585 0.9841 0.80212 0.0
H797 H 0.12724 0.95428 0.81308 0.0
H798 H 0.12359 0.92182 0.74928 0.0
H799 H 0.09279 0.9513 0.73825 0.0
H800 H 0.13173 0.89258 0.78985 0.0
H801 H 0.15727 0.95334 0.74774 0.0
H802 H 0.16033 0.9917 0.74265 0.0
H803 H 0.18659 0.98401 0.81178 0.0
H804 H 0.18339 0.94567 0.81741 0.0
H805 H 0.23194 0.82224 0.75793 0.0
H806 H 0.20025 0.85343 0.75706 0.0
H807 H 0.21741 0.87603 0.82126 0.0
H808 H 0.24913 0.84498 0.82227 0.0
H809 H 0.20197 0.91055 0.78764 0.0
H810 H 0.18102 0.84873 0.82788 0.0
H811 H 0.17889 0.81013 0.83318 0.0
H812 H 0.14375 0.81956 0.76999 0.0
H813 H 0.14616 0.85812 0.76387 0.0
C814 C 0.10161 0.97039 0.79073 0.0
C815 C 0.09197 0.97007 0.76927 0.0
C816 C 0.11956 0.95346 0.7969 0.0
C817 C 0.12784 0.93587 0.78189 0.0
C818 C 0.11753 0.93515 0.76114 0.0
C819 C 0.09995 0.9521 0.75481 0.0
C820 C 0.14785 0.91866 0.78662 0.0
C821 C 0.14709 0.8965 0.78935 0.0
C822 C 0.16784 0.92377 0.78657 0.0
C823 C 0.16983 0.94676 0.78314 0.0
C824 C 0.16352 0.9599 0.76195 0.0
C825 C 0.16531 0.98162 0.75895 0.0
C826 C 0.17358 0.99031 0.77692 0.0
C827 C 0.18013 0.97727 0.7979 0.0
C828 C 0.17834 0.95555 0.801 0.0
C829 C 0.2292 0.83403 0.77163 0.0
C830 C 0.24306 0.831 0.79022 0.0
C831 C 0.211 0.85179 0.7712 0.0
C832 C 0.2063 0.8669 0.7893 0.0
C833 C 0.22067 0.86456 0.80716 0.0
C834 C 0.23879 0.84674 0.8077 0.0
C835 C 0.18589 0.88447 0.79017 0.0
C836 C 0.18659 0.90662 0.78854 0.0
C837 C 0.16579 0.87937 0.79145 0.0
C838 C 0.16393 0.8563 0.79529 0.0
C839 C 0.17297 0.84255 0.81499 0.0
C840 C 0.17171 0.82067 0.81817 0.0
C841 C 0.16119 0.81239 0.80196 0.0
C842 C 0.1519 0.82599 0.78254 0.0
C843 C 0.15322 0.84787 0.77919 0.0
H844 H 0.16024 0.79544 0.80447 0.0
H845 H 0.17496 0.00713 0.77456 0.0
H846 H 0.08107 0.0786 0.77149 0.0
H847 H 0.10544 0.101 0.77721 0.0
H848 H 0.12399 0.10321 0.70035 0.0
H849 H 0.09975 0.0804 0.69453 0.0
H850 H 0.15869 0.09397 0.72856 0.0
H851 H 0.09074 0.14705 0.72374 0.0
H852 H 0.0523 0.1626 0.73479 0.0
H853 H 0.0656 0.16706 0.80804 0.0
H854 H 0.10411 0.15122 0.79751 0.0
H855 H 0.21136 0.17926 0.72151 0.0
H856 H 0.18668 0.15705 0.71648 0.0
H857 H 0.16589 0.15893 0.79276 0.0
H858 H 0.19016 0.18186 0.79782 0.0
H859 H 0.1323 0.16579 0.76548 0.0
H860 H 0.19978 0.11311 0.77108 0.0
H861 H 0.23827 0.09693 0.76104 0.0
H862 H 0.22611 0.09086 0.68777 0.0
H863 H 0.18756 0.10732 0.69729 0.0
C864 C 0.09046 0.08366 0.75581 0.0
C865 C 0.08853 0.07766 0.73254 0.0
C866 C 0.10424 0.09664 0.75909 0.0
C867 C 0.11638 0.10391 0.73918 0.0
C868 C 0.11469 0.0978 0.71594 0.0
C869 C 0.10077 0.08492 0.71262 0.0
C870 C 0.13094 0.11776 0.74274 0.0
C871 C 0.15291 0.10982 0.7363 0.0
C872 C 0.12342 0.13812 0.75354 0.0
C873 C 0.10028 0.14774 0.75989 0.0
C874 C 0.08545 0.15117 0.74225 0.0
C875 C 0.06365 0.16007 0.74841 0.0
C876 C 0.0565 0.16576 0.77212 0.0
C877 C 0.07115 0.16262 0.78969 0.0
C878 C 0.09297 0.15369 0.78363 0.0
C879 C 0.20136 0.1752 0.73719 0.0
C880 C 0.20269 0.18241 0.76007 0.0
C881 C 0.18742 0.16228 0.73433 0.0
C882 C 0.17463 0.1561 0.7543 0.0
C883 C 0.17569 0.16345 0.77713 0.0
C884 C 0.18967 0.17641 0.78002 0.0
C885 C 0.16009 0.14206 0.75119 0.0
C886 C 0.13812 0.14994 0.75775 0.0
C887 C 0.16763 0.12157 0.74064 0.0
C888 C 0.1908 0.11165 0.73484 0.0
C889 C 0.20533 0.1085 0.75277 0.0
C890 C 0.22716 0.09925 0.74718 0.0
C891 C 0.23464 0.09293 0.72377 0.0
C892 C 0.22029 0.0958 0.7059 0.0
C893 C 0.19845 0.10507 0.71138 0.0
H894 H 0.25154 0.08576 0.71948 0.0
H895 H 0.03962 0.17265 0.77685 0.0
H896 H 0.9566 0.05924 0.76289 0.0
H897 H 0.92935 0.09324 0.77073 0.0
H898 H 0.9764 0.11968 0.79851 0.0
H899 H 1.00376 0.08507 0.79137 0.0
H900 H 0.93595 0.13507 0.82208 0.0
H901 H 0.96699 0.1311 0.74049 0.0
H902 H 0.97934 0.11418 0.70158 0.0
H903 H 0.91498 0.11284 0.69154 0.0
H904 H 0.90228 0.12943 0.7306 0.0
H905 H 0.87166 0.24529 0.79706 0.0
H906 H 0.90186 0.21255 0.79725 0.0
H907 H 0.86337 0.17591 0.76878 0.0
H908 H 0.83331 0.2085 0.76812 0.0
H909 H 0.90278 0.16787 0.74605 0.0
H910 H 0.87239 0.17301 0.82965 0.0
H911 H 0.8616 0.19237 0.86728 0.0
H912 H 0.92669 0.19372 0.87287 0.0
H913 H 0.93783 0.17499 0.83484 0.0
C914 C 0.96101 0.07204 0.77136 0.0
C915 C 0.98229 0.06958 0.77642 0.0
C916 C 0.94544 0.09153 0.77572 0.0
C917 C 0.95093 0.10927 0.78461 0.0
C918 C 0.97181 0.10627 0.79152 0.0
C919 C 0.98742 0.08648 0.78751 0.0
C920 C 0.93541 0.13139 0.78401 0.0
C921 C 0.92887 0.1424 0.80543 0.0
C922 C 0.92621 0.14107 0.76224 0.0
C923 C 0.93371 0.13135 0.73857 0.0
C924 C 0.95549 0.12707 0.73006 0.0
C925 C 0.96255 0.11755 0.70797 0.0
C926 C 0.94796 0.1124 0.69412 0.0
C927 C 0.92626 0.11682 0.7023 0.0
C928 C 0.91912 0.1263 0.7244 0.0
C929 C 0.86966 0.23034 0.79058 0.0
C930 C 0.84998 0.22962 0.78253 0.0
C931 C 0.88693 0.21156 0.7909 0.0
C932 C 0.88482 0.19164 0.78337 0.0
C933 C 0.86539 0.19106 0.77475 0.0
C934 C 0.84818 0.20978 0.77436 0.0
C935 C 0.90272 0.17128 0.78426 0.0
C936 C 0.90984 0.16062 0.76275 0.0
C937 C 0.91258 0.16221 0.80587 0.0
C938 C 0.90592 0.17278 0.82921 0.0
C939 C 0.8844 0.17754 0.83879 0.0
C940 C 0.87821 0.18841 0.8602 0.0
C941 C 0.89343 0.19428 0.87243 0.0
C942 C 0.91491 0.18921 0.86334 0.0
C943 C 0.92117 0.17849 0.84184 0.0
H944 H 0.88859 0.20276 0.88896 0.0
H945 H 0.95346 0.10502 0.67703 0.0
H946 H 1.01473 0.94507 0.70836 0.0
H947 H 0.9915 0.91978 0.71344 0.0
H948 H 0.94759 0.96286 0.76238 0.0
H949 H 0.97128 0.98776 0.75794 0.0
H950 H 0.95085 0.92254 0.7792 0.0
H951 H 0.93852 0.96068 0.70108 0.0
H952 H 0.94833 0.97441 0.65955 0.0
H953 H 0.97526 0.90805 0.63973 0.0
H954 H 0.96585 0.89392 0.68126 0.0
H955 H 0.8576 0.88537 0.76605 0.0
H956 H 0.88438 0.90657 0.76553 0.0
H957 H 0.93139 0.85528 0.72941 0.0
H958 H 0.90466 0.83395 0.72995 0.0
H959 H 0.92736 0.89819 0.70656 0.0
H960 H 0.93747 0.8607 0.78574 0.0
H961 H 0.9258 0.8484 0.82718 0.0
H962 H 0.89991 0.91562 0.8444 0.0
H963 H 0.91146 0.92836 0.80305 0.0
C964 C 1.00007 0.94915 0.72011 0.0
C965 C 0.99469 0.96844 0.73261 0.0
C966 C 0.98678 0.93472 0.72299 0.0
C967 C 0.96754 0.93958 0.73795 0.0
C968 C 0.96231 0.95872 0.75073 0.0
C969 C 0.97581 0.97296 0.74818 0.0
C970 C 0.95278 0.92485 0.74007 0.0
C971 C 0.94555 0.91744 0.76329 0.0
C972 C 0.94607 0.91782 0.71935 0.0
C973 C 0.95167 0.92626 0.69434 0.0
C974 C 0.94667 0.94902 0.68791 0.0
C975 C 0.95214 0.95688 0.66437 0.0
C976 C 0.96246 0.94211 0.64703 0.0
C977 C 0.96729 0.91946 0.65319 0.0
C978 C 0.96188 0.91152 0.67672 0.0
C979 C 0.87368 0.87859 0.75812 0.0
C980 C 0.87906 0.85809 0.74793 0.0
C981 C 0.88897 0.89062 0.75797 0.0
C982 C 0.90985 0.88244 0.74748 0.0
C983 C 0.91536 0.86183 0.73762 0.0
C984 C 0.90014 0.84965 0.73804 0.0
C985 C 0.92552 0.896 0.74559 0.0
C986 C 0.93282 0.90323 0.72242 0.0
C987 C 0.93202 0.9031 0.76631 0.0
C988 C 0.92518 0.89548 0.79123 0.0
C989 C 0.92917 0.87286 0.79831 0.0
C990 C 0.9226 0.86581 0.82179 0.0
C991 C 0.912 0.8812 0.83835 0.0
C992 C 0.90809 0.90371 0.83153 0.0
C993 C 0.91471 0.91086 0.8081 0.0
H994 H 0.90689 0.8757 0.8565 0.0
H995 H 0.96668 0.94823 0.62881 0.0
H996 H 0.29672 0.08138 0.15521 0.0
H997 H 0.30885 0.10273 0.18287 0.0
H998 H 0.24546 0.14657 0.18942 0.0
H999 H 0.23322 0.12488 0.16231 0.0
H1000 H 0.31269 0.14191 0.17959 0.0
H1001 H 0.23448 0.16907 0.24397 0.0
H1002 H 0.20464 0.15409 0.26273 0.0
H1003 H 0.24309 0.08828 0.25367 0.0
H1004 H 0.27333 0.10281 0.23534 0.0
H1005 H 0.30434 0.241 0.23157 0.0
H1006 H 0.30183 0.20955 0.21102 0.0
H1007 H 0.30266 0.17091 0.27949 0.0
H1008 H 0.30446 0.20271 0.30043 0.0
H1009 H 0.2717 0.16659 0.25674 0.0
H1010 H 0.34528 0.15961 0.23447 0.0
H1011 H 0.3779 0.1714 0.21932 0.0
H1012 H 0.35329 0.19052 0.14949 0.0
H1013 H 0.32037 0.17914 0.1643 0.0
C1014 C 0.28541 0.09559 0.16255 0.0
C1015 C 0.26402 0.10147 0.15664 0.0
C1016 C 0.29232 0.10774 0.17843 0.0
C1017 C 0.27802 0.1261 0.18858 0.0
C1018 C 0.25669 0.13214 0.18241 0.0
C1019 C 0.24972 0.11981 0.16681 0.0
C1020 C 0.28557 0.13958 0.20467 0.0
C1021 C 0.30378 0.14717 0.19654 0.0
C1022 C 0.27435 0.146 0.22718 0.0
C1023 C 0.25614 0.13707 0.23802 0.0
C1024 C 0.23661 0.15139 0.24604 0.0
C1025 C 0.21962 0.14298 0.25661 0.0
C1026 C 0.22194 0.12025 0.25931 0.0
C1027 C 0.24128 0.10589 0.25148 0.0
C1028 C 0.25835 0.11421 0.24098 0.0
C1029 C 0.30444 0.22572 0.24229 0.0
C1030 C 0.30458 0.22443 0.2677 0.0
C1031 C 0.30309 0.20765 0.23044 0.0
C1032 C 0.30224 0.18774 0.24363 0.0
C1033 C 0.3033 0.18609 0.26891 0.0
C1034 C 0.30445 0.20427 0.28084 0.0
C1035 C 0.29832 0.16947 0.23119 0.0
C1036 C 0.28076 0.16104 0.23996 0.0
C1037 C 0.31047 0.16179 0.20965 0.0
C1038 C 0.33028 0.16862 0.20057 0.0
C1039 C 0.34675 0.16646 0.21593 0.0
C1040 C 0.36531 0.17305 0.20739 0.0
C1041 C 0.36765 0.18173 0.18347 0.0
C1042 C 0.35145 0.18379 0.16801 0.0
C1043 C 0.33285 0.17724 0.17647 0.0
H1044 H 0.38203 0.18683 0.17689 0.0
H1045 H 0.20876 0.11377 0.26751 0.0
H1046 H 0.98234 0.34629 0.15332 0.0
H1047 H 0.95009 0.3412 0.17773 0.0
H1048 H 0.95933 0.27766 0.1496 0.0
H1049 H 0.99128 0.28281 0.12487 0.0
H1050 H 0.91791 0.30155 0.14878 0.0
H1051 H 0.97116 0.28138 0.20657 0.0
H1052 H 0.99981 0.28662 0.22953 0.0
H1053 H 0.95665 0.34346 0.25977 0.0
H1054 H 0.9278 0.33873 0.23673 0.0
H1055 H 0.84498 0.25938 0.23187 0.0
H1056 H 0.87625 0.26592 0.20687 0.0
H1057 H 0.86886 0.32665 0.24056 0.0
H1058 H 0.8379 0.31991 0.26611 0.0
H1059 H 0.90915 0.30496 0.23825 0.0
H1060 H 0.85566 0.32513 0.18105 0.0
H1061 H 0.82693 0.32019 0.15802 0.0
H1062 H 0.87017 0.26411 0.12641 0.0
H1063 H 0.8991 0.26853 0.14951 0.0
C1064 C 0.97749 0.33125 0.15231 0.0
C1065 C 0.9895 0.31492 0.13722 0.0
C1066 C 0.95913 0.3283 0.16639 0.0
C1067 C 0.95235 0.30896 0.16565 0.0
C1068 C 0.96426 0.29268 0.15053 0.0
C1069 C 0.98267 0.29557 0.13657 0.0
C1070 C 0.93271 0.30579 0.18034 0.0
C1071 C 0.91609 0.30204 0.16838 0.0
C1072 C 0.93008 0.30697 0.20584 0.0
C1073 C 0.94739 0.30984 0.21972 0.0
C1074 C 0.96783 0.29511 0.21796 0.0
C1075 C 0.98409 0.29796 0.23102 0.0
C1076 C 0.98007 0.3154 0.24604 0.0
C1077 C 0.95975 0.32998 0.24809 0.0
C1078 C 0.94344 0.32721 0.23505 0.0
C1079 C 0.84984 0.27426 0.2338 0.0
C1080 C 0.83882 0.28917 0.25096 0.0
C1081 C 0.86774 0.27802 0.21941 0.0
C1082 C 0.87485 0.29694 0.22156 0.0
C1083 C 0.86374 0.31194 0.23852 0.0
C1084 C 0.84595 0.3081 0.25307 0.0
C1085 C 0.89425 0.30073 0.20671 0.0
C1086 C 0.91087 0.30457 0.21864 0.0
C1087 C 0.89684 0.29971 0.18116 0.0
C1088 C 0.87949 0.29705 0.16719 0.0
C1089 C 0.859 0.31165 0.16932 0.0
C1090 C 0.84268 0.30896 0.15623 0.0
C1091 C 0.8467 0.29181 0.14081 0.0
C1092 C 0.86707 0.27736 0.13839 0.0
C1093 C 0.88344 0.27997 0.15146 0.0
H1094 H 0.83405 0.28976 0.13069 0.0
H1095 H 0.99268 0.31758 0.25615 0.0
H1096 H 0.79084 0.92063 0.06171 0.0
H1097 H 0.78445 0.89925 0.09958 0.0
H1098 H 0.83168 0.92209 0.13202 0.0
H1099 H 0.83868 0.94267 0.09375 0.0
H1100 H 0.83648 0.88161 0.14471 0.0
H1101 H 0.77538 0.94299 0.14453 0.0
H1102 H 0.74385 0.96925 0.12821 0.0
H1103 H 0.71396 0.91652 0.12462 0.0
H1104 H 0.74545 0.88989 0.1406 0.0
H1105 H 0.81078 0.84072 0.26237 0.0
H1106 H 0.81123 0.86887 0.22916 0.0
H1107 H 0.77291 0.84012 0.18939 0.0
H1108 H 0.77208 0.81201 0.22276 0.0
H1109 H 0.76288 0.88575 0.18231 0.0
H1110 H 0.82624 0.82481 0.18209 0.0
H1111 H 0.85759 0.80032 0.20005 0.0
H1112 H 0.88397 0.8552 0.2055 0.0
H1113 H 0.85215 0.88036 0.18839 0.0
C1114 C 0.79989 0.92092 0.07696 0.0
C1115 C 0.81525 0.93319 0.07492 0.0
C1116 C 0.79611 0.9089 0.09864 0.0
C1117 C 0.80719 0.90947 0.1189 0.0
C1118 C 0.82285 0.92145 0.1167 0.0
C1119 C 0.82694 0.9331 0.09484 0.0
C1120 C 0.80292 0.89708 0.14218 0.0
C1121 C 0.82039 0.8829 0.15313 0.0
C1122 C 0.7819 0.89843 0.15306 0.0
C1123 C 0.76287 0.91441 0.14357 0.0
C1124 C 0.76215 0.93697 0.1401 0.0
C1125 C 0.74427 0.95193 0.13093 0.0
C1126 C 0.72693 0.94455 0.12533 0.0
C1127 C 0.72741 0.92221 0.12895 0.0
C1128 C 0.74526 0.90718 0.13808 0.0
C1129 C 0.80205 0.84063 0.2468 0.0
C1130 C 0.79166 0.82392 0.24503 0.0
C1131 C 0.80235 0.85674 0.22783 0.0
C1132 C 0.79251 0.85628 0.20662 0.0
C1133 C 0.78069 0.84069 0.20558 0.0
C1134 C 0.78025 0.82462 0.22466 0.0
C1135 C 0.79643 0.87042 0.18466 0.0
C1136 C 0.77893 0.88479 0.17395 0.0
C1137 C 0.81746 0.8696 0.17418 0.0
C1138 C 0.83668 0.85449 0.18424 0.0
C1139 C 0.8386 0.83172 0.18733 0.0
C1140 C 0.8565 0.81769 0.19736 0.0
C1141 C 0.87287 0.8261 0.20388 0.0
C1142 C 0.87128 0.84867 0.20047 0.0
C1143 C 0.85327 0.86286 0.19069 0.0
H1144 H 0.88677 0.81514 0.21154 0.0
H1145 H 0.71311 0.95616 0.11824 0.0
H1146 H 0.08427 0.7564 0.06789 0.0
H1147 H 0.11442 0.75749 0.08982 0.0
H1148 H 0.13497 0.68654 0.09419 0.0
H1149 H 0.10446 0.68535 0.07193 0.0
H1150 H 0.13659 0.70319 0.13713 0.0
H1151 H 0.16154 0.71652 0.05471 0.0
H1152 H 0.15931 0.73427 0.01322 0.0
H1153 H 0.15483 0.79681 0.04073 0.0
H1154 H 0.15664 0.77952 0.08246 0.0
H1155 H 0.23405 0.70481 0.18291 0.0
H1156 H 0.20897 0.69875 0.15605 0.0
H1157 H 0.18111 0.76875 0.14745 0.0
H1158 H 0.20665 0.77503 0.17382 0.0
H1159 H 0.18588 0.74929 0.10443 0.0
H1160 H 0.1572 0.73674 0.1866 0.0
H1161 H 0.15811 0.71957 0.22838 0.0
H1162 H 0.16914 0.65576 0.20106 0.0
H1163 H 0.16859 0.67254 0.15907 0.0
C1164 C 0.09533 0.74099 0.07312 0.0
C1165 C 0.09218 0.72076 0.06775 0.0
C1166 C 0.11257 0.74165 0.08575 0.0
C1167 C 0.12723 0.72213 0.09317 0.0
C1168 C 0.12392 0.70182 0.08842 0.0
C1169 C 0.10651 0.70114 0.07578 0.0
C1170 C 0.14562 0.72325 0.10636 0.0
C1171 C 0.14766 0.71287 0.12978 0.0
C1172 C 0.15977 0.7363 0.09693 0.0
C1173 C 0.15909 0.74672 0.07177 0.0
C1174 C 0.15995 0.73408 0.05195 0.0
C1175 C 0.15877 0.74406 0.02838 0.0
C1176 C 0.1569 0.76666 0.02435 0.0
C1177 C 0.15627 0.77931 0.04388 0.0
C1178 C 0.1574 0.76942 0.0675 0.0
C1179 C 0.22287 0.71898 0.17497 0.0
C1180 C 0.22236 0.74043 0.18053 0.0
C1181 C 0.2084 0.71545 0.15979 0.0
C1182 C 0.19301 0.73327 0.14998 0.0
C1183 C 0.19283 0.75475 0.1549 0.0
C1184 C 0.20731 0.75831 0.17011 0.0
C1185 C 0.17664 0.72946 0.13529 0.0
C1186 C 0.17498 0.73936 0.11162 0.0
C1187 C 0.16283 0.71598 0.14446 0.0
C1188 C 0.1631 0.70587 0.16969 0.0
C1189 C 0.16 0.71903 0.18949 0.0
C1190 C 0.16041 0.70937 0.21321 0.0
C1191 C 0.16374 0.68658 0.21737 0.0
C1192 C 0.1666 0.67341 0.19781 0.0
C1193 C 0.16623 0.68298 0.17405 0.0
H1194 H 0.16405 0.67913 0.23575 0.0
H1195 H 0.15597 0.77436 1.00609 0.0
H1196 H 0.25919 0.01325 1.0081 0.0
H1197 H 0.25825 0.9861 0.98009 0.0
H1198 H 0.19555 0.98292 0.01213 0.0
H1199 H 0.19661 0.01015 0.04065 0.0
H1200 H 0.22391 0.94219 1.00952 0.0
H1201 H 0.20007 0.00429 0.95478 0.0
H1202 H 0.19992 0.04051 0.93368 0.0
H1203 H 0.26314 0.01415 0.90056 0.0
H1204 H 0.26382 0.97784 0.92171 0.0
H1205 H 0.24069 0.8583 0.92589 0.0
H1206 H 0.22313 0.89159 0.94682 0.0
H1207 H 0.27809 0.91762 0.92557 0.0
H1208 H 0.29513 0.88514 0.90362 0.0
H1209 H 0.24259 0.94902 0.92071 0.0
H1210 H 0.26991 0.89152 0.98293 0.0
H1211 H 0.27255 0.85549 1.00567 0.0
H1212 H 0.20484 0.87361 0.02559 0.0
H1213 H 0.20179 0.90968 1.00272 0.0
C1214 C 0.24513 0.00689 1.00905 0.0
C1215 C 0.22806 0.01359 0.02664 0.0
C1216 C 0.2445 0.99157 0.99287 0.0
C1217 C 0.22673 0.98266 0.99388 0.0
C1218 C 0.20933 0.98975 0.01099 0.0
C1219 C 0.2099 0.0053 0.02714 0.0
C1220 C 0.22762 0.96449 0.97847 0.0
C1221 C 0.22735 0.94378 0.98998 0.0
C1222 C 0.23246 0.96657 0.95307 0.0
C1223 C 0.232 0.98831 0.9399 0.0
C1224 C 0.21398 0.00622 0.94307 0.0
C1225 C 0.2138 0.02678 0.93109 0.0
C1226 C 0.2315 0.02963 0.91579 0.0
C1227 C 0.24941 0.01191 0.91238 0.0
C1228 C 0.24969 0.99132 0.92432 0.0
C1229 C 0.24891 0.87125 0.92545 0.0
C1230 C 0.26942 0.86895 0.91327 0.0
C1231 C 0.23891 0.89019 0.93755 0.0
C1232 C 0.24938 0.90702 0.93793 0.0
C1233 C 0.26969 0.90487 0.92551 0.0
C1234 C 0.27957 0.8861 0.91327 0.0
C1235 C 0.23985 0.92661 0.95193 0.0
C1236 C 0.23846 0.94757 0.94012 0.0
C1237 C 0.23373 0.92475 0.9771 0.0
C1238 C 0.23558 0.90314 0.99088 0.0
C1239 C 0.25557 0.88774 0.99202 0.0
C1240 C 0.25714 0.86734 1.00495 0.0
C1241 C 0.23886 0.86224 0.017 0.0
C1242 C 0.21898 0.87757 0.0162 0.0
C1243 C 0.21732 0.89799 1.00327 0.0
H1244 H 0.24011 0.84643 0.027 0.0
H1245 H 0.23136 0.04557 0.90658 0.0
H1246 H 0.08939 0.33032 0.97322 0.0
H1247 H 0.11809 0.32343 0.9406 0.0
H1248 H 0.16424 0.29703 0.99329 0.0
H1249 H 0.13555 0.30419 0.02614 0.0
H1250 H 0.17821 0.32496 0.95768 0.0
H1251 H 0.14728 0.26293 0.96206 0.0
H1252 H 0.11786 0.24484 0.96214 0.0
H1253 H 0.1046 0.27423 0.89061 0.0
H1254 H 0.13376 0.29275 0.89025 0.0
H1255 H 0.26679 0.26764 0.88638 0.0
H1256 H 0.23612 0.27819 0.91566 0.0
H1257 H 0.19426 0.29701 0.85755 0.0
H1258 H 0.22515 0.2858 0.8278 0.0
H1259 H 0.17657 0.27547 0.89392 0.0
H1260 H 0.20837 0.33609 0.88821 0.0
H1261 H 0.23753 0.35458 0.88778 0.0
H1262 H 0.24864 0.32902 0.96106 0.0
H1263 H 0.21973 0.31012 0.96182 0.0
C1264 C 0.10565 0.32333 0.97795 0.0
C1265 C 0.11016 0.31781 1.00236 0.0
C1266 C 0.12204 0.3192 0.95923 0.0
C1267 C 0.1433 0.3095 0.96446 0.0
C1268 C 0.14794 0.30446 0.98881 0.0
C1269 C 0.13153 0.30844 1.00756 0.0
C1270 C 0.16066 0.30441 0.94456 0.0
C1271 C 0.17798 0.31396 0.94388 0.0
C1272 C 0.16002 0.29062 0.92609 0.0
C1273 C 0.14255 0.27942 0.92624 0.0
C1274 C 0.13797 0.26568 0.94643 0.0
C1275 C 0.12137 0.25533 0.94651 0.0
C1276 C 0.10933 0.25844 0.92642 0.0
C1277 C 0.11391 0.27186 0.90618 0.0
C1278 C 0.13049 0.28228 0.90602 0.0
C1279 C 0.25112 0.27412 0.87966 0.0
C1280 C 0.24851 0.27609 0.85462 0.0
C1281 C 0.23353 0.28025 0.89653 0.0
C1282 C 0.21287 0.28889 0.88887 0.0
C1283 C 0.21007 0.29054 0.86391 0.0
C1284 C 0.22774 0.28418 0.84692 0.0
C1285 C 0.19433 0.29581 0.90715 0.0
C1286 C 0.17677 0.28663 0.90756 0.0
C1287 C 0.19467 0.31007 0.92531 0.0
C1288 C 0.21197 0.32156 0.925 0.0
C1289 C 0.21712 0.3343 0.90418 0.0
C1290 C 0.2336 0.34486 0.90389 0.0
C1291 C 0.24496 0.34294 0.92436 0.0
C1292 C 0.23983 0.33049 0.9452 0.0
C1293 C 0.22338 0.31987 0.94559 0.0
H1294 H 0.25772 0.35113 0.92409 0.0
H1295 H 0.09648 0.2504 0.92652 0.0
H1296 H 0.77688 0.06959 0.95476 0.0
H1297 H 0.77199 0.10589 0.93336 0.0
H1298 H 0.83985 0.09214 0.91282 0.0
H1299 H 0.84498 0.05579 0.93479 0.0
H1300 H 0.82307 0.1337 0.92944 0.0
H1301 H 0.80657 0.08881 0.87233 0.0
H1302 H 0.78788 0.06318 0.8589 0.0
H1303 H 0.72738 0.1101 0.87186 0.0
H1304 H 0.7457 0.1359 0.88571 0.0
H1305 H 0.82662 0.21713 0.83829 0.0
H1306 H 0.82894 0.18181 0.8611 0.0
H1307 H 0.75996 0.19646 0.87116 0.0
H1308 H 0.75754 0.23161 0.84684 0.0
H1309 H 0.77555 0.15527 0.86197 0.0
H1310 H 0.79223 0.20141 0.91662 0.0
H1311 H 0.81096 0.22701 0.93002 0.0
H1312 H 0.87077 0.17796 0.92303 0.0
H1313 H 0.85253 0.15227 0.90892 0.0
C1314 C 0.79084 0.07433 0.94597 0.0
C1315 C 0.81137 0.0598 0.94653 0.0
C1316 C 0.78796 0.09502 0.93354 0.0
C1317 C 0.80552 0.10159 0.92133 0.0
C1318 C 0.82608 0.08731 0.92209 0.0
C1319 C 0.82898 0.06652 0.93447 0.0
C1320 C 0.80237 0.12338 0.90771 0.0
C1321 C 0.8129 0.13838 0.91449 0.0
C1322 C 0.78852 0.12963 0.88877 0.0
C1323 C 0.77749 0.11419 0.88029 0.0
C1324 C 0.78927 0.09359 0.8725 0.0
C1325 C 0.77875 0.07905 0.86478 0.0
C1326 C 0.75645 0.08498 0.86459 0.0
C1327 C 0.74464 0.10551 0.87205 0.0
C1328 C 0.75509 0.12011 0.87982 0.0
C1329 C 0.81192 0.21292 0.84551 0.0
C1330 C 0.79186 0.22723 0.84125 0.0
C1331 C 0.81329 0.19276 0.85864 0.0
C1332 C 0.79467 0.18679 0.86857 0.0
C1333 C 0.77455 0.20086 0.8639 0.0
C1334 C 0.77315 0.2209 0.85011 0.0
C1335 C 0.79645 0.16568 0.88348 0.0
C1336 C 0.78563 0.15075 0.87701 0.0
C1337 C 0.81 0.15954 0.90281 0.0
C1338 C 0.821 0.17494 0.91152 0.0
C1339 C 0.8094 0.19613 0.91774 0.0
C1340 C 0.81994 0.21068 0.92544 0.0
C1341 C 0.84205 0.20415 0.92729 0.0
C1342 C 0.85365 0.18302 0.92154 0.0
C1343 C 0.84322 0.16846 0.91366 0.0
H1344 H 0.85019 0.21544 0.93322 0.0
H1345 H 0.74833 0.0737 0.85861 0.0
H1346 H 0.9512 0.76308 0.97692 0.0
H1347 H 0.92118 0.7704 0.95115 0.0
H1348 H 0.96342 0.73643 0.89405 0.0
H1349 H 0.99338 0.72876 0.91989 0.0
H1350 H 0.93238 0.77992 0.87969 0.0
H1351 H 0.93634 0.7083 0.92301 0.0
H1352 H 0.93769 0.6833 0.96007 0.0
H1353 H 0.87755 0.72328 0.98866 0.0
H1354 H 0.87602 0.7487 0.95188 0.0
H1355 H 0.85731 0.76189 0.80414 0.0
H1356 H 0.88752 0.75899 0.82829 0.0
H1357 H 0.84398 0.7714 0.89256 0.0
H1358 H 0.81388 0.77364 0.86874 0.0
H1359 H 0.87592 0.74024 0.90368 0.0
H1360 H 0.86932 0.81094 0.86242 0.0
H1361 H 0.86643 0.83854 0.82756 0.0
H1362 H 0.92878 0.80494 0.79758 0.0
H1363 H 0.93193 0.77693 0.83213 0.0
C1364 C 0.9541 0.75738 0.9588 0.0
C1365 C 0.97459 0.74523 0.95047 0.0
C1366 C 0.93696 0.76154 0.94411 0.0
C1367 C 0.9401 0.75398 0.92068 0.0
C1368 C 0.96069 0.74248 0.91203 0.0
C1369 C 0.97772 0.73794 0.92687 0.0
C1370 C 0.92166 0.75684 0.90581 0.0
C1371 C 0.92011 0.77111 0.8847 0.0
C1372 C 0.90535 0.74587 0.91283 0.0
C1373 C 0.90619 0.73052 0.93483 0.0
C1374 C 0.92351 0.71186 0.9373 0.0
C1375 C 0.92428 0.6976 0.95823 0.0
C1376 C 0.90775 0.70174 0.97674 0.0
C1377 C 0.89037 0.72012 0.97432 0.0
C1378 C 0.88953 0.73445 0.95344 0.0
C1379 C 0.85418 0.76395 0.82343 0.0
C1380 C 0.83316 0.76781 0.8345 0.0
C1381 C 0.87148 0.76249 0.83722 0.0
C1382 C 0.8681 0.76527 0.86229 0.0
C1383 C 0.84709 0.76917 0.8733 0.0
C1384 C 0.82985 0.7704 0.85961 0.0
C1385 C 0.88643 0.76336 0.87726 0.0
C1386 C 0.88804 0.74921 0.8985 0.0
C1387 C 0.9025 0.77486 0.87057 0.0
C1388 C 0.90075 0.79168 0.84975 0.0
C1389 C 0.88233 0.80932 0.84829 0.0
C1390 C 0.88066 0.82505 0.8286 0.0
C1391 C 0.89737 0.82343 0.81031 0.0
C1392 C 0.91582 0.80611 0.81173 0.0
C1393 C 0.91757 0.79032 0.83138 0.0
H1394 H 0.89609 0.83567 0.79515 0.0
H1395 H 0.90837 0.69067 0.99293 0.0
H1396 H 0.10859 0.32751 0.1279 0.0
H1397 H 0.13712 0.32145 0.15466 0.0
H1398 H 0.14452 0.2514 0.15696 0.0
H1399 H 0.11537 0.25741 0.12978 0.0
H1400 H 0.1463 0.26587 0.2029 0.0
H1401 H 0.18119 0.27294 0.12406 0.0
H1402 H 0.18639 0.28941 0.08254 0.0
H1403 H 0.19034 0.34899 0.11119 0.0
H1404 H 0.18483 0.33301 0.1529 0.0
H1405 H 0.24102 0.24982 0.26487 0.0
H1406 H 0.21527 0.24838 0.23642 0.0
H1407 H 0.207 0.31769 0.21636 0.0
H1408 H 0.23382 0.31884 0.24393 0.0
H1409 H 0.20735 0.29893 0.17782 0.0
H1410 H 0.16886 0.2924 0.25694 0.0
H1411 H 0.16439 0.27519 0.29828 0.0
H1412 H 0.16809 0.21361 0.26889 0.0
H1413 H 0.17274 0.23043 0.22736 0.0
C1414 C 0.11616 0.3107 0.13394 0.0
C1415 C 0.10956 0.29293 0.12642 0.0
C1416 C 0.13266 0.30728 0.14931 0.0
C1417 C 0.14331 0.28596 0.15774 0.0
C1418 C 0.13665 0.26805 0.15069 0.0
C1419 C 0.12002 0.27148 0.13505 0.0
C1420 C 0.16135 0.28292 0.17373 0.0
C1421 C 0.15984 0.27276 0.19726 0.0
C1422 C 0.17898 0.29215 0.16668 0.0
C1423 C 0.18244 0.30182 0.14162 0.0
C1424 C 0.18301 0.28962 0.12151 0.0
C1425 C 0.18604 0.29886 0.09794 0.0
C1426 C 0.18866 0.32025 0.09423 0.0
C1427 C 0.1883 0.33242 0.1141 0.0
C1428 C 0.18525 0.32327 0.13771 0.0
C1429 C 0.23364 0.26483 0.25451 0.0
C1430 C 0.23938 0.28454 0.25695 0.0
C1431 C 0.21872 0.26401 0.23825 0.0
C1432 C 0.20852 0.28304 0.22445 0.0
C1433 C 0.21442 0.30272 0.22674 0.0
C1434 C 0.22975 0.30342 0.24261 0.0
C1435 C 0.19205 0.28247 0.20738 0.0
C1436 C 0.19388 0.29194 0.18354 0.0
C1437 C 0.17478 0.27254 0.21417 0.0
C1438 C 0.17131 0.26263 0.23907 0.0
C1439 C 0.16875 0.27518 0.2593 0.0
C1440 C 0.16619 0.2655 0.28276 0.0
C1441 C 0.16601 0.24331 0.28621 0.0
C1442 C 0.16824 0.23079 0.26619 0.0
C1443 C 0.17079 0.24041 0.24269 0.0
H1444 H 0.16411 0.23581 0.30439 0.0
H1445 H 0.191 0.32737 0.07597 0.0
H1446 H 0.0649 0.77456 0.92708 0.0
H1447 H 0.09994 0.77619 0.90773 0.0
H1448 H 0.12231 0.77847 0.97763 0.0
H1449 H 0.08681 0.77694 0.99733 0.0
H1450 H 0.13944 0.80536 0.93956 0.0
H1451 H 0.13473 0.73091 0.95458 0.0
H1452 H 0.11813 0.69993 0.95461 0.0
H1453 H 0.12 0.70719 0.8768 0.0
H1454 H 0.13631 0.73846 0.87633 0.0
H1455 H 0.24836 0.77353 0.88439 0.0
H1456 H 0.21582 0.77553 0.91191 0.0
H1457 H 0.18215 0.76608 0.85242 0.0
H1458 H 0.21438 0.76384 0.8251 0.0
H1459 H 0.17304 0.74136 0.8908 0.0
H1460 H 0.1748 0.81773 0.87613 0.0
H1461 H 0.19172 0.84854 0.87567 0.0
H1462 H 0.19605 0.8374 0.95269 0.0
H1463 H 0.17942 0.80627 0.9535 0.0
C1464 C 0.07707 0.77587 0.93843 0.0
C1465 C 0.07292 0.77554 0.96384 0.0
C1466 C 0.09722 0.77672 0.92728 0.0
C1467 C 0.11404 0.77707 0.94114 0.0
C1468 C 0.10968 0.77817 0.96646 0.0
C1469 C 0.08931 0.77739 0.97772 0.0
C1470 C 0.13628 0.77445 0.92899 0.0
C1471 C 0.14696 0.79118 0.92925 0.0
C1472 C 0.1462 0.75609 0.91527 0.0
C1473 C 0.1366 0.73713 0.91544 0.0
C1474 C 0.13147 0.726 0.93748 0.0
C1475 C 0.12213 0.70837 0.93758 0.0
C1476 C 0.11798 0.70162 0.91572 0.0
C1477 C 0.12321 0.71245 0.89372 0.0
C1478 C 0.13253 0.73011 0.89352 0.0
C1479 C 0.23407 0.77174 0.87719 0.0
C1480 C 0.23418 0.76843 0.85242 0.0
C1481 C 0.21535 0.77307 0.89295 0.0
C1482 C 0.19627 0.77116 0.88434 0.0
C1483 C 0.19653 0.76757 0.8597 0.0
C1484 C 0.2151 0.76633 0.84399 0.0
C1485 C 0.17603 0.77254 0.90069 0.0
C1486 C 0.1657 0.75548 0.90127 0.0
C1487 C 0.16655 0.79056 0.91515 0.0
C1488 C 0.17611 0.80953 0.91481 0.0
C1489 C 0.17951 0.82176 0.89292 0.0
C1490 C 0.18902 0.83929 0.8926 0.0
C1491 C 0.19502 0.84488 0.91413 0.0
C1492 C 0.19143 0.83301 0.93603 0.0
C1493 C 0.18194 0.81544 0.93642 0.0
H1494 H 0.20239 0.85845 0.91386 0.0
H1495 H 0.11074 0.68797 0.91583 0.0
H1496 H 0.24825 0.10492 0.01647 0.0
H1497 H 0.25988 0.12409 0.97957 0.0
H1498 H 0.32568 0.09883 0.99592 0.0
H1499 H 0.31406 0.07891 0.03317 0.0
H1500 H 0.30991 0.148 0.98218 0.0
H1501 H 0.31474 0.07756 0.95313 0.0
H1502 H 0.30184 0.04483 0.94848 0.0
H1503 H 0.248 0.08541 0.91303 0.0
H1504 H 0.26039 0.11847 0.91781 0.0
H1505 H 0.3388 0.19944 0.86842 0.0
H1506 H 0.33836 0.17197 0.90256 0.0
H1507 H 0.27442 0.17074 0.88901 0.0
H1508 H 0.27504 0.19756 0.85447 0.0
H1509 H 0.29523 0.131 0.90117 0.0
H1510 H 0.28576 0.20082 0.93463 0.0
H1511 H 0.2952 0.2352 0.94094 0.0
H1512 H 0.35392 0.19787 0.96953 0.0
H1513 H 0.34494 0.16325 0.96307 0.0
C1514 C 0.26524 0.10333 0.01234 0.0
C1515 C 0.28023 0.0904 0.02789 0.0
C1516 C 0.27185 0.11429 0.99112 0.0
C1517 C 0.29362 0.11289 0.98492 0.0
C1518 C 0.30877 0.10011 1.00037 0.0
C1519 C 0.30215 0.08869 0.02157 0.0
C1520 C 0.3 0.1252 0.96235 0.0
C1521 C 0.30727 0.14399 0.96436 0.0
C1522 C 0.29582 0.12039 0.93922 0.0
C1523 C 0.28844 0.10052 0.93599 0.0
C1524 C 0.30006 0.07954 0.9445 0.0
C1525 C 0.29285 0.06092 0.94181 0.0
C1526 C 0.27409 0.06305 0.93051 0.0
C1527 C 0.26253 0.0838 0.92179 0.0
C1528 C 0.26966 0.10248 0.92446 0.0
C1529 C 0.32471 0.19317 0.87256 0.0
C1530 C 0.30693 0.20085 0.85867 0.0
C1531 C 0.32443 0.17752 0.89223 0.0
C1532 C 0.3062 0.16945 0.89879 0.0
C1533 C 0.2887 0.17662 0.88446 0.0
C1534 C 0.28907 0.19206 0.86466 0.0
C1535 C 0.30493 0.15411 0.9209 0.0
C1536 C 0.2984 0.13482 0.91885 0.0
C1537 C 0.30943 0.15869 0.94408 0.0
C1538 C 0.31481 0.17946 0.9481 0.0
C1539 C 0.30075 0.19995 0.9421 0.0
C1540 C 0.30601 0.21948 0.94572 0.0
C1541 C 0.32518 0.21872 0.95555 0.0
C1542 C 0.3391 0.19843 0.96186 0.0
C1543 C 0.33394 0.17885 0.95823 0.0
H1544 H 0.32922 0.23386 0.95835 0.0
H1545 H 0.26854 0.04862 0.92848 0.0
H1546 H 0.04239 0.27707 0.01489 0.0
H1547 H 1.01769 0.27695 0.98453 0.0
H1548 H 0.97994 0.24567 0.03783 0.0
H1549 H 1.00471 0.24548 0.06827 0.0
H1550 H 0.98156 0.22974 0.99339 0.0
H1551 H 0.96552 0.30092 0.02536 0.0
H1552 H 0.974 0.33455 0.03615 0.0
H1553 H 0.99248 0.34966 0.96131 0.0
H1554 H 0.98441 0.31591 0.95012 0.0
H1555 H 0.88312 0.26187 0.93542 0.0
H1556 H 0.91128 0.25522 0.96342 0.0
H1557 H 0.94783 0.28942 0.91184 0.0
H1558 H 0.91986 0.29604 0.88378 0.0
H1559 H 0.94716 0.30316 0.95538 0.0
H1560 H 0.96196 0.23245 0.92307 0.0
H1561 H 0.95329 0.19887 0.91243 0.0
H1562 H 0.93696 0.18281 0.98764 0.0
H1563 H 0.94519 0.2165 0.9987 0.0
C1564 C 0.02908 0.26977 0.02012 0.0
C1565 C 0.02557 0.26141 0.0442 0.0
C1566 C 1.01484 0.26984 1.00271 0.0
C1567 C 0.99663 0.26168 1.00891 0.0
C1568 C 0.99377 0.25215 0.03253 0.0
C1569 C 1.00801 0.25207 0.04997 0.0
C1570 C 0.97992 0.26439 0.99131 0.0
C1571 C 0.97389 0.24582 0.98527 0.0
C1572 C 0.97002 0.2853 0.98032 0.0
C1573 C 0.97456 0.30578 0.98694 0.0
C1574 C 0.97151 0.31134 0.01123 0.0
C1575 C 0.97624 0.33043 0.01741 0.0
C1576 C 0.98383 0.34421 0.99943 0.0
C1577 C 0.98663 0.33896 0.97522 0.0
C1578 C 0.98197 0.31986 0.96894 0.0
C1579 C 0.89729 0.26769 0.92984 0.0
C1580 C 0.89905 0.2796 0.90726 0.0
C1581 C 0.91343 0.2639 0.94594 0.0
C1582 C 0.93187 0.27171 0.93983 0.0
C1583 C 0.93379 0.2833 0.91717 0.0
C1584 C 0.91768 0.28713 0.9011 0.0
C1585 C 0.94885 0.26849 0.95722 0.0
C1586 C 0.95487 0.28702 0.96335 0.0
C1587 C 0.95869 0.24755 0.96825 0.0
C1588 C 0.954 0.22712 0.96169 0.0
C1589 C 0.95638 0.22184 0.93733 0.0
C1590 C 0.95155 0.20278 0.93122 0.0
C1591 C 0.94453 0.18874 0.94934 0.0
C1592 C 0.94238 0.19371 0.97362 0.0
C1593 C 0.94713 0.21278 0.97982 0.0
H1594 H 0.94079 0.174 0.94457 0.0
H1595 H 0.98749 0.35897 1.00426 0.0
H1596 H 0.76594 0.98975 0.91915 0.0
H1597 H 0.76105 0.96109 0.89553 0.0
H1598 H 0.75353 0.92076 0.96141 0.0
H1599 H 0.75909 0.94924 0.98524 0.0
H1600 H 0.78045 0.89699 0.93044 0.0
H1601 H 0.71086 0.94509 0.92538 0.0
H1602 H 0.68379 0.98014 0.91824 0.0
H1603 H 0.70859 0.9847 0.84373 0.0
H1604 H 0.73601 0.94983 0.85048 0.0
H1605 H 0.75092 0.81755 0.86581 0.0
H1606 H 0.74629 0.84783 0.89215 0.0
H1607 H 0.77293 0.8852 0.83377 0.0
H1608 H 0.77814 0.85479 0.8075 0.0
H1609 H 0.73339 0.90938 0.86278 0.0
H1610 H 0.80472 0.86197 0.87007 0.0
H1611 H 0.83038 0.82606 0.87769 0.0
H1612 H 0.80028 0.81976 0.94965 0.0
H1613 H 0.77406 0.85542 0.94223 0.0
C1614 C 0.76287 0.97498 0.92873 0.0
C1615 C 0.76295 0.97184 0.95415 0.0
C1616 C 0.75998 0.95856 0.91514 0.0
C1617 C 0.75675 0.93873 0.92661 0.0
C1618 C 0.75603 0.93588 0.95208 0.0
C1619 C 0.75908 0.95225 0.96571 0.0
C1620 C 0.75566 0.9205 0.91189 0.0
C1621 C 0.76982 0.89967 0.91599 0.0
C1622 C 0.74209 0.92392 0.89267 0.0
C1623 C 0.72561 0.94491 0.8885 0.0
C1624 C 0.71065 0.95365 0.90751 0.0
C1625 C 0.69522 0.97347 0.90353 0.0
C1626 C 0.6945 0.98466 0.88056 0.0
C1627 C 0.70918 0.97602 0.86151 0.0
C1628 C 0.72465 0.95621 0.8654 0.0
C1629 C 0.75554 0.83232 0.85848 0.0
C1630 C 0.76493 0.83378 0.83459 0.0
C1631 C 0.75292 0.84957 0.87356 0.0
C1632 C 0.75929 0.86871 0.86488 0.0
C1633 C 0.76786 0.87058 0.84076 0.0
C1634 C 0.7709 0.85316 0.82583 0.0
C1635 C 0.75822 0.88623 0.88135 0.0
C1636 C 0.74376 0.90682 0.87748 0.0
C1637 C 0.77134 0.88256 0.90091 0.0
C1638 C 0.78725 0.86124 0.90549 0.0
C1639 C 0.80342 0.85283 0.88743 0.0
C1640 C 0.81809 0.83253 0.89172 0.0
C1641 C 0.81695 0.82062 0.91413 0.0
C1642 C 0.80112 0.82899 0.93229 0.0
C1643 C 0.78634 0.84924 0.92804 0.0
H1644 H 0.82836 0.80495 0.91745 0.0
H1645 H 0.68255 1.00001 0.87751 0.0
H1646 H 0.96525 0.76785 0.05829 0.0
H1647 H 0.9373 0.76714 0.09138 0.0
H1648 H 0.97953 0.77592 0.14258 0.0
H1649 H 1.00759 0.77604 0.10976 0.0
H1650 H 0.96207 0.7457 0.16122 0.0
H1651 H 0.93354 0.81747 0.12453 0.0
H1652 H 0.92074 0.84597 0.09211 0.0
H1653 H 0.87199 0.8143 0.0801 0.0
H1654 H 0.88468 0.78542 0.11223 0.0
H1655 H 0.87975 0.76973 0.26042 0.0
H1656 H 0.9083 0.77101 0.22808 0.0
H1657 H 0.87169 0.75197 0.17725 0.0
H1658 H 0.84318 0.75069 0.20927 0.0
H1659 H 0.88622 0.78809 0.15927 0.0
H1660 H 0.91604 0.71609 0.19709 0.0
H1661 H 0.92846 0.68956 0.23135 0.0
H1662 H 0.97474 0.72451 0.24305 0.0
H1663 H 0.9624 0.75144 0.20904 0.0
C1664 C 0.96848 0.77 0.07652 0.0
C1665 C 0.98877 0.77206 0.0812 0.0
C1666 C 0.95241 0.76962 0.09555 0.0
C1667 C 0.95606 0.77158 0.11975 0.0
C1668 C 0.97614 0.77424 0.12426 0.0
C1669 C 0.99222 0.77445 0.10534 0.0
C1670 C 0.93948 0.76988 0.14048 0.0
C1671 C 0.94557 0.75528 0.16082 0.0
C1672 C 0.91771 0.78199 0.14018 0.0
C1673 C 0.91024 0.79913 0.12059 0.0
C1674 C 0.92023 0.81645 0.11481 0.0
C1675 C 0.91296 0.8327 0.09652 0.0
C1676 C 0.89561 0.83191 0.084 0.0
C1677 C 0.88546 0.81487 0.08978 0.0
C1678 C 0.89268 0.79856 0.10803 0.0
C1679 C 0.87787 0.76552 0.24245 0.0
C1680 C 0.85899 0.76019 0.23759 0.0
C1681 C 0.89427 0.76623 0.22392 0.0
C1682 C 0.89224 0.76163 0.20007 0.0
C1683 C 0.8737 0.7557 0.19538 0.0
C1684 C 0.85735 0.75496 0.21383 0.0
C1685 C 0.90886 0.76389 0.17975 0.0
C1686 C 0.90275 0.7786 0.15956 0.0
C1687 C 0.93064 0.75213 0.18032 0.0
C1688 C 0.93815 0.7359 0.20068 0.0
C1689 C 0.92875 0.71822 0.20709 0.0
C1690 C 0.9358 0.70309 0.22644 0.0
C1691 C 0.95234 0.70538 0.23941 0.0
C1692 C 0.96191 0.72277 0.23301 0.0
C1693 C 0.95491 0.73796 0.21368 0.0
H1694 H 0.95777 0.69365 0.25439 0.0
H1695 H 0.88999 0.84452 0.06987 0.0
H1696 H 0.24429 0.98473 0.13965 0.0
H1697 H 0.25524 0.94987 0.16322 0.0
H1698 H 0.32159 0.94852 0.14365 0.0
H1699 H 0.31062 0.98388 0.11946 0.0
H1700 H 0.31342 0.90695 0.14309 0.0
H1701 H 0.30011 0.96377 0.19812 0.0
H1702 H 0.27991 0.99738 0.21766 0.0
H1703 H 0.22898 0.9667 0.24222 0.0
H1704 H 0.2487 0.93303 0.22244 0.0
H1705 H 0.31922 0.84521 0.27388 0.0
H1706 H 0.31858 0.87726 0.24558 0.0
H1707 H 0.29323 0.84732 0.19259 0.0
H1708 H 0.29423 0.81479 0.22084 0.0
H1709 H 0.28553 0.90521 0.22967 0.0
H1710 H 0.30509 0.8694 0.13516 0.0
H1711 H 0.32728 0.83601 0.11663 0.0
H1712 H 0.37004 0.82497 0.17321 0.0
H1713 H 0.34828 0.85844 0.19189 0.0
C1714 C 0.26127 0.97714 0.14018 0.0
C1715 C 0.27658 0.98735 0.1278 0.0
C1716 C 0.2675 0.9571 0.15376 0.0
C1717 C 0.28923 0.94667 0.15559 0.0
C1718 C 0.30469 0.95631 0.1426 0.0
C1719 C 0.29842 0.97654 0.12884 0.0
C1720 C 0.29536 0.92618 0.17185 0.0
C1721 C 0.30743 0.90655 0.16205 0.0
C1722 C 0.28779 0.92565 0.19672 0.0
C1723 C 0.27583 0.94592 0.20861 0.0
C1724 C 0.28452 0.96425 0.2075 0.0
C1725 C 0.27316 0.98331 0.21864 0.0
C1726 C 0.25315 0.98419 0.23112 0.0
C1727 C 0.24447 0.966 0.23251 0.0
C1728 C 0.25574 0.94692 0.22134 0.0
C1729 C 0.31375 0.84523 0.2561 0.0
C1730 C 0.30667 0.82738 0.24974 0.0
C1731 C 0.31337 0.86366 0.23989 0.0
C1732 C 0.30585 0.86486 0.21685 0.0
C1733 C 0.29939 0.84676 0.21009 0.0
C1734 C 0.29992 0.82815 0.22631 0.0
C1735 C 0.30329 0.88573 0.20091 0.0
C1736 C 0.29173 0.9055 0.21077 0.0
C1737 C 0.31159 0.88636 0.17627 0.0
C1738 C 0.32492 0.86633 0.16504 0.0
C1739 C 0.31928 0.8599 0.14359 0.0
C1740 C 0.33177 0.84095 0.13307 0.0
C1741 C 0.35002 0.82834 0.14378 0.0
C1742 C 0.35585 0.8347 0.16499 0.0
C1743 C 0.34343 0.85364 0.17557 0.0
H1744 H 0.35966 0.81367 0.13561 0.0
H1745 H 0.2444 0.99895 0.23976 0.0
H1746 H 0.75757 0.06134 0.04009 0.0
H1747 H 0.75081 0.09225 0.06633 0.0
H1748 H 0.79842 0.05374 0.11265 0.0
H1749 H 0.80528 0.02319 0.08661 0.0
H1750 H 0.76278 0.07837 0.13877 0.0
H1751 H 0.81224 0.08813 0.06915 0.0
H1752 H 0.8224 0.09187 0.02521 0.0
H1753 H 0.7698 0.14909 0.01746 0.0
H1754 H 0.75913 0.14548 0.06134 0.0
H1755 H 0.79516 0.15461 0.2011 0.0
H1756 H 0.79499 0.12564 0.17495 0.0
H1757 H 0.75511 0.17337 0.1273 0.0
H1758 H 0.75624 0.2026 0.15251 0.0
H1759 H 0.78263 0.14556 0.10107 0.0
H1760 H 0.73436 0.1383 0.17047 0.0
H1761 H 0.72273 0.13458 0.21402 0.0
H1762 H 0.77056 0.07338 0.222 0.0
H1763 H 0.78268 0.07688 0.17855 0.0
C1764 C 0.76614 0.05936 0.05622 0.0
C1765 C 0.78198 0.03994 0.06131 0.0
C1766 C 0.76241 0.07704 0.07108 0.0
C1767 C 0.77429 0.07536 0.09132 0.0
C1768 C 0.78908 0.05543 0.09717 0.0
C1769 C 0.79301 0.038 0.08222 0.0
C1770 C 0.77278 0.09464 0.10551 0.0
C1771 C 0.76718 0.09305 0.13058 0.0
C1772 C 0.77809 0.11397 0.09472 0.0
C1773 C 0.78474 0.11639 0.06846 0.0
C1774 C 0.80275 0.10142 0.05804 0.0
C1775 C 0.80862 0.10353 0.03316 0.0
C1776 C 0.79671 0.12067 0.01854 0.0
C1777 C 0.77898 0.1358 0.0288 0.0
C1778 C 0.77302 0.13373 0.05367 0.0
C1779 C 0.78668 0.15907 0.18483 0.0
C1780 C 0.77549 0.18101 0.17917 0.0
C1781 C 0.78633 0.14238 0.17003 0.0
C1782 C 0.77456 0.14716 0.14942 0.0
C1783 C 0.76412 0.16915 0.1432 0.0
C1784 C 0.76462 0.18586 0.15783 0.0
C1785 C 0.77288 0.12925 0.13455 0.0
C1786 C 0.77794 0.13106 0.10933 0.0
C1787 C 0.76685 0.11018 0.14518 0.0
C1788 C 0.75955 0.10795 0.1713 0.0
C1789 C 0.7425 0.12412 0.18155 0.0
C1790 C 0.7358 0.12204 0.20621 0.0
C1791 C 0.74593 0.10378 0.22078 0.0
C1792 C 0.76274 0.08753 0.2107 0.0
C1793 C 0.76952 0.08954 0.18605 0.0
H1794 H 0.74072 0.1022 0.23987 0.0
H1795 H 0.80126 0.12225 0.99927 0.0
H1796 H 0.60124 0.55272 0.85281 0.0
H1797 H 0.62692 0.57528 0.84745 0.0
H1798 H 0.58902 0.61794 0.9008 0.0
H1799 H 0.56279 0.59595 0.90556 0.0
H1800 H 0.6008 0.64131 0.86171 0.0
H1801 H 0.63613 0.57975 0.91351 0.0
H1802 H 0.65125 0.54049 0.92528 0.0
H1803 H 0.69521 0.53493 0.86147 0.0
H1804 H 0.68008 0.57406 0.84907 0.0
H1805 H 0.67462 0.69962 0.88498 0.0
H1806 H 0.65098 0.6749 0.8889 0.0
H1807 H 0.69002 0.63714 0.83226 0.0
H1808 H 0.71369 0.66209 0.82793 0.0
H1809 H 0.67842 0.61077 0.87096 0.0
H1810 H 0.64394 0.6716 0.81912 0.0
H1811 H 0.62912 0.7107 0.8064 0.0
H1812 H 0.58388 0.71737 0.86911 0.0
H1813 H 0.59866 0.67836 0.88241 0.0
C1814 C 0.59825 0.56697 0.8633 0.0
C1815 C 0.57985 0.57253 0.87957 0.0
C1816 C 0.6131 0.57973 0.86041 0.0
C1817 C 0.61002 0.59819 0.8739 0.0
C1818 C 0.59176 0.60373 0.89024 0.0
C1819 C 0.57686 0.59101 0.8931 0.0
C1820 C 0.62547 0.61213 0.8705 0.0
C1821 C 0.61772 0.63467 0.86407 0.0
C1822 C 0.64768 0.60333 0.87275 0.0
C1823 C 0.65681 0.57979 0.88023 0.0
C1824 C 0.64889 0.57011 0.90187 0.0
C1825 C 0.65748 0.54788 0.90867 0.0
C1826 C 0.67413 0.5352 0.89409 0.0
C1827 C 0.68227 0.54475 0.87271 0.0
C1828 C 0.6737 0.56695 0.8658 0.0
C1829 C 0.67811 0.6862 0.87317 0.0
C1830 C 0.69593 0.68299 0.85594 0.0
C1831 C 0.66461 0.67203 0.87551 0.0
C1832 C 0.66859 0.65436 0.86065 0.0
C1833 C 0.68666 0.6507 0.84388 0.0
C1834 C 0.70019 0.66493 0.84148 0.0
C1835 C 0.65366 0.63995 0.86257 0.0
C1836 C 0.6615 0.61736 0.8686 0.0
C1837 C 0.63154 0.64865 0.85984 0.0
C1838 C 0.62255 0.6721 0.85188 0.0
C1839 C 0.63095 0.68145 0.83031 0.0
C1840 C 0.62254 0.70359 0.82297 0.0
C1841 C 0.6056 0.71652 0.83697 0.0
C1842 C 0.59702 0.70733 0.8583 0.0
C1843 C 0.60539 0.6852 0.86573 0.0
H1844 H 0.59911 0.73366 0.83126 0.0
H1845 H 0.68076 0.51799 0.89939 0.0
H1846 H 0.49128 0.57178 0.80346 0.0
H1847 H 0.4599 0.60032 0.79018 0.0
H1848 H 0.42446 0.58907 0.8582 0.0
H1849 H 0.45516 0.56074 0.87121 0.0
H1850 H 0.39878 0.59576 0.82324 0.0
H1851 H 0.45088 0.63095 0.8479 0.0
H1852 H 0.48607 0.63953 0.84521 0.0
H1853 H 0.47835 0.66525 0.77136 0.0
H1854 H 0.44321 0.65656 0.77356 0.0
H1855 H 0.3473 0.71996 0.83935 0.0
H1856 H 0.37703 0.68712 0.83974 0.0
H1857 H 0.34938 0.66075 0.78569 0.0
H1858 H 0.31913 0.69361 0.78557 0.0
H1859 H 0.407 0.67183 0.80616 0.0
H1860 H 0.36614 0.60398 0.79197 0.0
H1861 H 0.33067 0.59595 0.79927 0.0
H1862 H 0.31529 0.63657 0.85977 0.0
H1863 H 0.35074 0.64462 0.85298 0.0
C1864 C 0.47667 0.57521 0.81535 0.0
C1865 C 0.47584 0.56411 0.83849 0.0
C1866 C 0.45877 0.59159 0.80781 0.0
C1867 C 0.43979 0.59705 0.82329 0.0
C1868 C 0.43879 0.58522 0.84586 0.0
C1869 C 0.45652 0.56906 0.85336 0.0
C1870 C 0.42128 0.61589 0.8172 0.0
C1871 C 0.40063 0.61236 0.81916 0.0
C1872 C 0.4235 0.63765 0.81211 0.0
C1873 C 0.44459 0.64284 0.81079 0.0
C1874 C 0.45678 0.63828 0.83104 0.0
C1875 C 0.47669 0.64318 0.82961 0.0
C1876 C 0.48447 0.65286 0.8081 0.0
C1877 C 0.47233 0.6577 0.78799 0.0
C1878 C 0.45242 0.65279 0.78931 0.0
C1879 C 0.34735 0.70711 0.82769 0.0
C1880 C 0.33072 0.70945 0.81249 0.0
C1881 C 0.3645 0.68834 0.82781 0.0
C1882 C 0.36561 0.67138 0.8127 0.0
C1883 C 0.34886 0.67346 0.79771 0.0
C1884 C 0.33151 0.69225 0.79772 0.0
C1885 C 0.38444 0.65177 0.81284 0.0
C1886 C 0.40515 0.65518 0.80967 0.0
C1887 C 0.38222 0.62997 0.81735 0.0
C1888 C 0.36096 0.62511 0.82176 0.0
C1889 C 0.35519 0.61115 0.80685 0.0
C1890 C 0.3351 0.6066 0.8109 0.0
C1891 C 0.32071 0.61582 0.82991 0.0
C1892 C 0.32641 0.62952 0.84498 0.0
C1893 C 0.34649 0.6341 0.84102 0.0
H1894 H 0.30516 0.61229 0.833 0.0
H1895 H 0.49988 0.65665 0.80703 0.0
H1896 H 0.47644 0.45969 0.91687 0.0
H1897 H 0.45451 0.43456 0.91146 0.0
H1898 H 0.47671 0.43302 0.83554 0.0
H1899 H 0.49876 0.4579 0.84083 0.0
H1900 H 0.43395 0.43794 0.84199 0.0
H1901 H 0.4966 0.39032 0.8748 0.0
H1902 H 0.52409 0.37768 0.90411 0.0
H1903 H 0.47553 0.37097 0.96088 0.0
H1904 H 0.4477 0.38387 0.93195 0.0
H1905 H 0.39976 0.34349 0.81795 0.0
H1906 H 0.42064 0.36998 0.82217 0.0
H1907 H 0.3994 0.37202 0.89835 0.0
H1908 H 0.37848 0.34572 0.89425 0.0
H1909 H 0.44187 0.36686 0.89122 0.0
H1910 H 0.37914 0.41442 0.85789 0.0
H1911 H 0.35195 0.42684 0.82821 0.0
H1912 H 0.40097 0.43334 0.77192 0.0
H1913 H 0.42851 0.42067 0.80122 0.0
C1914 C 0.4768 0.45386 0.89908 0.0
C1915 C 0.48936 0.46085 0.8793 0.0
C1916 C 0.46422 0.43955 0.89599 0.0
C1917 C 0.46409 0.43183 0.87311 0.0
C1918 C 0.47649 0.43887 0.85332 0.0
C1919 C 0.48905 0.45317 0.85639 0.0
C1920 C 0.4511 0.41634 0.86977 0.0
C1921 C 0.43584 0.42227 0.85254 0.0
C1922 C 0.45335 0.39609 0.88383 0.0
C1923 C 0.47005 0.38827 0.90126 0.0
C1924 C 0.49177 0.38632 0.89357 0.0
C1925 C 0.50741 0.37908 0.91011 0.0
C1926 C 0.50155 0.37358 0.93436 0.0
C1927 C 0.48004 0.37526 0.9421 0.0
C1928 C 0.46432 0.38252 0.92563 0.0
C1929 C 0.39936 0.3498 0.83552 0.0
C1930 C 0.38758 0.34242 0.8558 0.0
C1931 C 0.4113 0.3649 0.83792 0.0
C1932 C 0.4115 0.37302 0.86057 0.0
C1933 C 0.39957 0.36586 0.88074 0.0
C1934 C 0.38768 0.35078 0.87837 0.0
C1935 C 0.4246 0.38851 0.86354 0.0
C1936 C 0.43994 0.38254 0.88068 0.0
C1937 C 0.42245 0.40869 0.84934 0.0
C1938 C 0.40591 0.41637 0.83171 0.0
C1939 C 0.38415 0.41832 0.83915 0.0
C1940 C 0.36867 0.42544 0.82239 0.0
C1941 C 0.37473 0.43081 0.79818 0.0
C1942 C 0.39629 0.42914 0.79068 0.0
C1943 C 0.41184 0.42201 0.80735 0.0
H1944 H 0.36273 0.43632 0.78524 0.0
H1945 H 0.51369 0.36798 0.94713 0.0
H1946 H 0.60563 0.46913 0.8784 0.0
H1947 H 0.63733 0.4407 0.86702 0.0
H1948 H 0.6182 0.44599 0.79413 0.0
H1949 H 0.58568 0.47467 0.80568 0.0
H1950 H 0.63166 0.4032 0.81113 0.0
H1951 H 0.65999 0.46592 0.80595 0.0
H1952 H 0.6661 0.49983 0.81925 0.0
H1953 H 0.69643 0.46328 0.88088 0.0
H1954 H 0.69024 0.42917 0.86815 0.0
H1955 H 0.73181 0.33341 0.77155 0.0
H1956 H 0.70083 0.3645 0.7769 0.0
H1957 H 0.71401 0.3662 0.85114 0.0
H1958 H 0.74566 0.33515 0.84574 0.0
H1959 H 0.70381 0.40689 0.82959 0.0
H1960 H 0.67311 0.34448 0.83535 0.0
H1961 H 0.66712 0.31083 0.82122 0.0
H1962 H 0.64144 0.34738 0.75711 0.0
H1963 H 0.64754 0.38121 0.77071 0.0
C1964 C 0.60806 0.46446 0.85984 0.0
C1965 C 0.59301 0.47429 0.84293 0.0
C1966 C 0.62639 0.44819 0.85333 0.0
C1967 C 0.63041 0.44134 0.82963 0.0
C1968 C 0.6155 0.45109 0.81253 0.0
C1969 C 0.59698 0.46753 0.81909 0.0
C1970 C 0.64993 0.42351 0.82338 0.0
C1971 C 0.6475 0.40418 0.8147 0.0
C1972 C 0.67059 0.42455 0.8285 0.0
C1973 C 0.67452 0.44499 0.83616 0.0
C1974 C 0.66784 0.46512 0.82243 0.0
C1975 C 0.67133 0.48438 0.82985 0.0
C1976 C 0.68161 0.4837 0.85091 0.0
C1977 C 0.68846 0.46376 0.86457 0.0
C1978 C 0.68499 0.44446 0.85723 0.0
C1979 C 0.72819 0.34025 0.78912 0.0
C1980 C 0.74128 0.33159 0.80829 0.0
C1981 C 0.71031 0.35807 0.79215 0.0
C1982 C 0.70478 0.36756 0.81454 0.0
C1983 C 0.71788 0.35912 0.8337 0.0
C1984 C 0.73594 0.34131 0.83063 0.0
C1985 C 0.6855 0.38643 0.81775 0.0
C1986 C 0.688 0.40596 0.82585 0.0
C1987 C 0.66494 0.38561 0.81196 0.0
C1988 C 0.66097 0.36534 0.80395 0.0
C1989 C 0.66631 0.34532 0.81817 0.0
C1990 C 0.66288 0.32621 0.81027 0.0
C1991 C 0.65396 0.32695 0.78825 0.0
C1992 C 0.64837 0.34682 0.77414 0.0
C1993 C 0.65179 0.36597 0.78196 0.0
H1994 H 0.65135 0.31213 0.78214 0.0
H1995 H 0.68432 0.49861 0.85661 0.0
H1996 H 0.60529 0.46172 0.2293 0.0
H1997 H 0.63409 0.43082 0.24182 0.0
H1998 H 0.62399 0.45189 0.31472 0.0
H1999 H 0.59469 0.48337 0.30217 0.0
H2000 H 0.66765 0.44037 0.29661 0.0
H2001 H 0.60855 0.40822 0.30552 0.0
H2002 H 0.57602 0.39988 0.29387 0.0
H2003 H 0.61194 0.36729 0.23255 0.0
H2004 H 0.64464 0.37572 0.2436 0.0
H2005 H 0.74227 0.33909 0.33153 0.0
H2006 H 0.7106 0.37002 0.32938 0.0
H2007 H 0.70542 0.35748 0.25551 0.0
H2008 H 0.7369 0.32622 0.25761 0.0
H2009 H 0.6672 0.36432 0.281 0.0
H2010 H 0.725 0.40055 0.26964 0.0
H2011 H 0.75747 0.40932 0.28091 0.0
H2012 H 0.72373 0.43426 0.34718 0.0
H2013 H 0.69111 0.42539 0.33642 0.0
C2014 C 0.60905 0.45989 0.24806 0.0
C2015 C 0.59762 0.47506 0.26476 0.0
C2016 C 0.62552 0.44209 0.2552 0.0
C2017 C 0.63106 0.43888 0.27924 0.0
C2018 C 0.61988 0.45403 0.29607 0.0
C2019 C 0.60313 0.47193 0.28893 0.0
C2020 C 0.64885 0.41977 0.28613 0.0
C2021 C 0.6674 0.42366 0.29376 0.0
C2022 C 0.64865 0.39802 0.28198 0.0
C2023 C 0.62905 0.39273 0.27532 0.0
C2024 C 0.60949 0.39941 0.28945 0.0
C2025 C 0.59102 0.39464 0.28297 0.0
C2026 C 0.5919 0.38309 0.26247 0.0
C2027 C 0.61128 0.37624 0.24843 0.0
C2028 C 0.6298 0.38098 0.25481 0.0
C2029 C 0.7345 0.34293 0.31474 0.0
C2030 C 0.74222 0.33013 0.2947 0.0
C2031 C 0.71638 0.36071 0.31354 0.0
C2032 C 0.70567 0.36622 0.29223 0.0
C2033 C 0.71338 0.35353 0.27217 0.0
C2034 C 0.73147 0.33571 0.27337 0.0
C2035 C 0.68625 0.38497 0.29083 0.0
C2036 C 0.66737 0.38097 0.28423 0.0
C2037 C 0.68617 0.40658 0.29598 0.0
C2038 C 0.7057 0.41209 0.30235 0.0
C2039 C 0.72456 0.40776 0.28669 0.0
C2040 C 0.74297 0.41278 0.29297 0.0
C2041 C 0.74268 0.42228 0.31478 0.0
C2042 C 0.72394 0.42687 0.33031 0.0
C2043 C 0.70548 0.42187 0.32412 0.0
H2044 H 0.75696 0.42614 0.31962 0.0
H2045 H 0.57758 0.37943 0.25748 0.0
H2046 H 0.58702 0.606 0.19942 0.0
H2047 H 0.61419 0.62556 0.20331 0.0
H2048 H 0.64504 0.57359 0.25374 0.0
H2049 H 0.61812 0.55363 0.24967 0.0
H2050 H 0.64035 0.61445 0.26992 0.0
H2051 H 0.66742 0.57787 0.19718 0.0
H2052 H 0.6658 0.56661 0.15623 0.0
H2053 H 0.65117 0.63427 0.1285 0.0
H2054 H 0.65239 0.64597 0.16937 0.0
H2055 H 0.73384 0.65508 0.26906 0.0
H2056 H 0.70921 0.63193 0.26658 0.0
H2057 H 0.6766 0.67844 0.21217 0.0
H2058 H 0.70113 0.7015 0.2145 0.0
H2059 H 0.68396 0.63786 0.19867 0.0
H2060 H 0.65502 0.67467 0.27144 0.0
H2061 H 0.65606 0.6863 0.31238 0.0
H2062 H 0.67374 0.61867 0.34002 0.0
H2063 H 0.67307 0.60664 0.29915 0.0
C2064 C 0.59972 0.59849 0.21107 0.0
C2065 C 0.60029 0.57816 0.2242 0.0
C2066 C 0.61523 0.60977 0.21335 0.0
C2067 C 0.63172 0.60097 0.22872 0.0
C2068 C 0.63241 0.58071 0.24184 0.0
C2069 C 0.61694 0.56937 0.23951 0.0
C2070 C 0.64801 0.61314 0.23133 0.0
C2071 C 0.65015 0.61928 0.25441 0.0
C2072 C 0.66048 0.61978 0.21102 0.0
C2073 C 0.65981 0.6128 0.18639 0.0
C2074 C 0.66369 0.59036 0.18239 0.0
C2075 C 0.66287 0.5839 0.15919 0.0
C2076 C 0.65834 0.59972 0.13979 0.0
C2077 C 0.65466 0.62204 0.14355 0.0
C2078 C 0.65543 0.62859 0.16673 0.0
C2079 C 0.72129 0.66045 0.25675 0.0
C2080 C 0.71951 0.68006 0.24189 0.0
C2081 C 0.70723 0.64721 0.25533 0.0
C2082 C 0.69098 0.65349 0.23925 0.0
C2083 C 0.68909 0.67317 0.2246 0.0
C2084 C 0.70316 0.68632 0.22592 0.0
C2085 C 0.6761 0.63949 0.23723 0.0
C2086 C 0.67426 0.63295 0.21423 0.0
C2087 C 0.66386 0.63255 0.25761 0.0
C2088 C 0.66423 0.63976 0.28219 0.0
C2089 C 0.6593 0.66228 0.28621 0.0
C2090 C 0.65979 0.66894 0.30941 0.0
C2091 C 0.66503 0.65323 0.32877 0.0
C2092 C 0.66972 0.63082 0.32499 0.0
C2093 C 0.66928 0.62407 0.30182 0.0
H2094 H 0.66539 0.65842 0.34672 0.0
H2095 H 0.65771 0.59468 0.12183 0.0
H2096 H 0.5106 0.58492 0.29987 0.0
H2097 H 0.48491 0.61949 0.31133 0.0
H2098 H 0.44393 0.61274 0.25767 0.0
H2099 H 0.46922 0.57873 0.24622 0.0
H2100 H 0.45325 0.65248 0.25214 0.0
H2101 H 0.43051 0.60478 0.31782 0.0
H2102 H 0.43572 0.57897 0.35422 0.0
H2103 H 0.45393 0.6268 0.39189 0.0
H2104 H 0.44908 0.65281 0.35557 0.0
H2105 H 0.34945 0.71678 0.26914 0.0
H2106 H 0.38209 0.68723 0.26788 0.0
H2107 H 0.40661 0.71655 0.32208 0.0
H2108 H 0.3735 0.74652 0.32365 0.0
H2109 H 0.41182 0.67018 0.33106 0.0
H2110 H 0.42858 0.72001 0.26687 0.0
H2111 H 0.42211 0.74576 0.23057 0.0
H2112 H 0.41504 0.69383 0.18991 0.0
H2113 H 0.42115 0.66783 0.22606 0.0
C2114 C 0.49588 0.59064 0.29094 0.0
C2115 C 0.49203 0.57922 0.27198 0.0
C2116 C 0.48126 0.6104 0.29743 0.0
C2117 C 0.4626 0.61884 0.28514 0.0
C2118 C 0.45832 0.60673 0.2672 0.0
C2119 C 0.47281 0.58722 0.26071 0.0
C2120 C 0.44794 0.64085 0.28941 0.0
C2121 C 0.4442 0.65633 0.26942 0.0
C2122 C 0.43672 0.64627 0.31216 0.0
C2123 C 0.43973 0.6306 0.33389 0.0
C2124 C 0.43584 0.6097 0.33378 0.0
C2125 C 0.43868 0.59506 0.35442 0.0
C2126 C 0.44523 0.60121 0.37533 0.0
C2127 C 0.44891 0.62204 0.37566 0.0
C2128 C 0.44611 0.63674 0.35507 0.0
C2129 C 0.36176 0.71716 0.28074 0.0
C2130 C 0.35885 0.73414 0.29643 0.0
C2131 C 0.38048 0.7002 0.27994 0.0
C2132 C 0.39687 0.69975 0.29473 0.0
C2133 C 0.39416 0.71664 0.31046 0.0
C2134 C 0.37534 0.73383 0.31118 0.0
C2135 C 0.41654 0.68129 0.2935 0.0
C2136 C 0.42126 0.66654 0.31397 0.0
C2137 C 0.42873 0.67645 0.27115 0.0
C2138 C 0.42526 0.69198 0.24924 0.0
C2139 C 0.42553 0.71411 0.25023 0.0
C2140 C 0.42193 0.72875 0.22967 0.0
C2141 C 0.41815 0.72144 0.20795 0.0
C2142 C 0.41799 0.69946 0.20674 0.0
C2143 C 0.42156 0.68475 0.22726 0.0
H2144 H 0.41536 0.73281 0.19206 0.0
H2145 H 0.44741 0.58986 0.39129 0.0
H2146 H 0.50659 0.46372 0.26752 0.0
H2147 H 0.48157 0.44016 0.27389 0.0
H2148 H 0.456 0.46633 0.20548 0.0
H2149 H 0.48093 0.48993 0.19906 0.0
H2150 H 0.42435 0.46453 0.24413 0.0
H2151 H 0.48947 0.41747 0.20821 0.0
H2152 H 0.52806 0.39903 0.20592 0.0
H2153 H 0.52015 0.36584 0.27609 0.0
H2154 H 0.48153 0.38434 0.27894 0.0
H2155 H 0.36721 0.39024 0.21853 0.0
H2156 H 0.39217 0.41322 0.21805 0.0
H2157 H 0.41941 0.37536 0.28119 0.0
H2158 H 0.39509 0.3515 0.28101 0.0
H2159 H 0.45029 0.38306 0.24942 0.0
H2160 H 0.3858 0.4272 0.28548 0.0
H2161 H 0.34731 0.44583 0.28999 0.0
H2162 H 0.35375 0.48486 0.22333 0.0
H2163 H 0.39225 0.46624 0.21822 0.0
C2164 C 0.49554 0.46454 0.25393 0.0
C2165 C 0.49574 0.47864 0.23276 0.0
C2166 C 0.48135 0.45099 0.25752 0.0
C2167 C 0.46701 0.45144 0.24009 0.0
C2168 C 0.46697 0.46572 0.21912 0.0
C2169 C 0.48131 0.47907 0.2154 0.0
C2170 C 0.45208 0.43695 0.24357 0.0
C2171 C 0.42998 0.44672 0.24505 0.0
C2172 C 0.45948 0.41373 0.24568 0.0
C2173 C 0.48266 0.40247 0.2439 0.0
C2174 C 0.49599 0.40638 0.22324 0.0
C2175 C 0.51786 0.39589 0.22182 0.0
C2176 C 0.52656 0.38132 0.24088 0.0
C2177 C 0.51339 0.37716 0.26136 0.0
C2178 C 0.49151 0.38763 0.26288 0.0
C2179 C 0.37863 0.38662 0.23219 0.0
C2180 C 0.37911 0.36899 0.24983 0.0
C2181 C 0.39274 0.39998 0.23208 0.0
C2182 C 0.40748 0.39627 0.24981 0.0
C2183 C 0.40811 0.37863 0.2674 0.0
C2184 C 0.39405 0.36514 0.26743 0.0
C2185 C 0.42244 0.41062 0.24952 0.0
C2186 C 0.44457 0.40086 0.2487 0.0
C2187 C 0.41505 0.43388 0.24837 0.0
C2188 C 0.3919 0.44518 0.25136 0.0
C2189 C 0.37899 0.43964 0.27168 0.0
C2190 C 0.35717 0.45022 0.27436 0.0
C2191 C 0.34808 0.46649 0.25693 0.0
C2192 C 0.36081 0.47225 0.2368 0.0
C2193 C 0.38264 0.4617 0.23402 0.0
H2194 H 0.33118 0.47466 0.25904 0.0
H2195 H 0.5435 0.3732 0.23974 0.0
H2196 H 0.80946 0.56151 0.66602 0.0
H2197 H 0.8049 0.59213 0.69144 0.0
H2198 H 0.80186 0.63709 0.62759 0.0
H2199 H 0.80708 0.60629 0.60189 0.0
H2200 H 0.82697 0.64591 0.65716 0.0
H2201 H 0.75643 0.6337 0.66763 0.0
H2202 H 0.72971 0.61199 0.67734 0.0
H2203 H 0.74991 0.59587 0.74952 0.0
H2204 H 0.77695 0.61726 0.74014 0.0
H2205 H 0.79089 0.74443 0.71769 0.0
H2206 H 0.79433 0.71377 0.69269 0.0
H2207 H 0.79808 0.66914 0.75684 0.0
H2208 H 0.79407 0.69997 0.78218 0.0
H2209 H 0.77263 0.66006 0.72738 0.0
H2210 H 0.84309 0.67199 0.71715 0.0
H2211 H 0.86989 0.69365 0.70776 0.0
H2212 H 0.85007 0.71003 0.63545 0.0
H2213 H 0.82294 0.6887 0.64451 0.0
C2214 C 0.8076 0.57793 0.65731 0.0
C2215 C 0.80856 0.5814 0.63184 0.0
C2216 C 0.8049 0.5955 0.67195 0.0
C2217 C 0.80273 0.61708 0.66156 0.0
C2218 C 0.80346 0.62064 0.63612 0.0
C2219 C 0.80635 0.60301 0.62142 0.0
C2220 C 0.80051 0.63575 0.67716 0.0
C2221 C 0.81485 0.64919 0.67227 0.0
C2222 C 0.78515 0.63973 0.69741 0.0
C2223 C 0.76885 0.62692 0.7031 0.0
C2224 C 0.75528 0.6254 0.68551 0.0
C2225 C 0.74006 0.61317 0.69097 0.0
C2226 C 0.73815 0.60251 0.71401 0.0
C2227 C 0.75142 0.60411 0.73167 0.0
C2228 C 0.76668 0.6163 0.7263 0.0
C2229 C 0.79259 0.7281 0.72657 0.0
C2230 C 0.79235 0.72472 0.75202 0.0
C2231 C 0.79463 0.71051 0.71217 0.0
C2232 C 0.79682 0.68899 0.72276 0.0
C2233 C 0.79649 0.68555 0.74818 0.0
C2234 C 0.79428 0.7032 0.76266 0.0
C2235 C 0.79904 0.67024 0.7073 0.0
C2236 C 0.78473 0.65678 0.71224 0.0
C2237 C 0.81446 0.66619 0.68713 0.0
C2238 C 0.83086 0.67891 0.68159 0.0
C2239 C 0.84435 0.68034 0.6993 0.0
C2240 C 0.85961 0.69253 0.69403 0.0
C2241 C 0.86165 0.70325 0.67105 0.0
C2242 C 0.84846 0.70174 0.65326 0.0
C2243 C 0.83315 0.68958 0.65844 0.0
H2244 H 0.87347 0.71269 0.667 0.0
H2245 H 0.72635 0.59305 0.7182 0.0
H2246 H 0.49636 0.7899 0.63834 0.0
H2247 H 0.46217 0.79487 0.66328 0.0
H2248 H 0.45911 0.72984 0.64899 0.0
H2249 H 0.49327 0.72479 0.62409 0.0
H2250 H 0.41973 0.76086 0.64548 0.0
H2251 H 0.47415 0.73807 0.70226 0.0
H2252 H 0.50589 0.74059 0.72159 0.0
H2253 H 0.47294 0.80533 0.74265 0.0
H2254 H 0.44108 0.8033 0.72314 0.0
H2255 H 0.33949 0.74267 0.73568 0.0
H2256 H 0.37216 0.74103 0.70916 0.0
H2257 H 0.37846 0.80049 0.73678 0.0
H2258 H 0.34606 0.80173 0.76414 0.0
H2259 H 0.41594 0.77434 0.73259 0.0
H2260 H 0.36135 0.79783 0.67756 0.0
H2261 H 0.32943 0.79691 0.65754 0.0
H2262 H 0.36193 0.73364 0.63201 0.0
H2263 H 0.39396 0.73404 0.65216 0.0
C2264 C 0.48835 0.77672 0.64033 0.0
C2265 C 0.49774 0.75687 0.62927 0.0
C2266 C 0.46881 0.77953 0.65475 0.0
C2267 C 0.45802 0.76267 0.6583 0.0
C2268 C 0.46706 0.7431 0.64669 0.0
C2269 C 0.48672 0.74016 0.63256 0.0
C2270 C 0.43756 0.76519 0.67439 0.0
C2271 C 0.41896 0.76357 0.66459 0.0
C2272 C 0.43623 0.76942 0.69921 0.0
C2273 C 0.45533 0.77063 0.71101 0.0
C2274 C 0.47374 0.75291 0.71084 0.0
C2275 C 0.49173 0.75424 0.72186 0.0
C2276 C 0.49145 0.77314 0.73328 0.0
C2277 C 0.47315 0.79072 0.73376 0.0
C2278 C 0.45511 0.78949 0.72274 0.0
C2279 C 0.34768 0.75555 0.73605 0.0
C2280 C 0.33988 0.77246 0.75204 0.0
C2281 C 0.36643 0.75464 0.72068 0.0
C2282 C 0.37782 0.77087 0.72037 0.0
C2283 C 0.37011 0.78774 0.73642 0.0
C2284 C 0.35145 0.7885 0.75207 0.0
C2285 C 0.39794 0.76989 0.70378 0.0
C2286 C 0.41655 0.77177 0.71347 0.0
C2287 C 0.3992 0.76618 0.67875 0.0
C2288 C 0.37999 0.76588 0.66656 0.0
C2289 C 0.36164 0.78365 0.66782 0.0
C2290 C 0.34353 0.78323 0.65643 0.0
C2291 C 0.34363 0.7652 0.64356 0.0
C2292 C 0.36187 0.74758 0.64201 0.0
C2293 C 0.38001 0.7479 0.65339 0.0
H2294 H 0.3296 0.7649 0.63476 0.0
H2295 H 0.5054 0.77414 0.74181 0.0
H2296 H 0.30457 0.45346 0.61209 0.0
H2297 H 0.2999 0.43007 0.64906 0.0
H2298 H 0.33305 0.37246 0.61157 0.0
H2299 H 0.33762 0.3957 0.57459 0.0
H2300 H 0.29498 0.36818 0.63712 0.0
H2301 H 0.3578 0.39173 0.65224 0.0
H2302 H 0.37719 0.41979 0.65663 0.0
H2303 H 0.33091 0.44647 0.71414 0.0
H2304 H 0.31112 0.41868 0.70991 0.0
H2305 H 0.31475 0.28345 0.72791 0.0
H2306 H 0.31792 0.31108 0.69513 0.0
H2307 H 0.29521 0.36231 0.74493 0.0
H2308 H 0.29304 0.33423 0.77842 0.0
H2309 H 0.32445 0.37313 0.71476 0.0
H2310 H 0.2623 0.35058 0.7028 0.0
H2311 H 0.24015 0.32491 0.69893 0.0
H2312 H 0.28045 0.29986 0.63629 0.0
H2313 H 0.30304 0.32516 0.63998 0.0
C2314 C 0.31084 0.43581 0.61171 0.0
C2315 C 0.32149 0.4265 0.5903 0.0
C2316 C 0.30829 0.42246 0.63293 0.0
C2317 C 0.31621 0.39946 0.6332 0.0
C2318 C 0.32683 0.39014 0.61187 0.0
C2319 C 0.32957 0.40348 0.59075 0.0
C2320 C 0.31303 0.38496 0.65542 0.0
C2321 C 0.30163 0.3691 0.65402 0.0
C2322 C 0.32082 0.38679 0.67785 0.0
C2323 C 0.33288 0.40327 0.6806 0.0
C2324 C 0.35169 0.40367 0.66571 0.0
C2325 C 0.36277 0.4195 0.6682 0.0
C2326 C 0.35526 0.43493 0.68561 0.0
C2327 C 0.3367 0.43451 0.70065 0.0
C2328 C 0.32557 0.41871 0.69824 0.0
C2329 C 0.31031 0.3006 0.73197 0.0
C2330 C 0.30325 0.30665 0.75576 0.0
C2331 C 0.31205 0.31648 0.71309 0.0
C2332 C 0.30615 0.339 0.71718 0.0
C2333 C 0.29966 0.34511 0.74112 0.0
C2334 C 0.29836 0.32907 0.76027 0.0
C2335 C 0.30684 0.35583 0.69633 0.0
C2336 C 0.31766 0.37222 0.69796 0.0
C2337 C 0.29807 0.35486 0.67419 0.0
C2338 C 0.28446 0.33967 0.67178 0.0
C2339 C 0.26652 0.3395 0.68829 0.0
C2340 C 0.25388 0.32503 0.68612 0.0
C2341 C 0.25891 0.31074 0.6674 0.0
C2342 C 0.27658 0.31093 0.65078 0.0
C2343 C 0.28929 0.32536 0.65289 0.0
H2344 H 0.24911 0.29954 0.66576 0.0
H2345 H 0.36385 0.44719 0.68749 0.0
H2346 H 0.5707 0.28997 0.53528 0.0
H2347 H 0.59773 0.29883 0.55803 0.0
H2348 H 0.5772 0.26257 0.62169 0.0
H2349 H 0.55065 0.25354 0.59908 0.0
H2350 H 0.58634 0.30078 0.63324 0.0
H2351 H 0.61944 0.23806 0.58534 0.0
H2352 H 0.62995 0.21939 0.54722 0.0
H2353 H 0.66419 0.26742 0.5193 0.0
H2354 H 0.6537 0.28651 0.55723 0.0
H2355 H 0.67164 0.26563 0.70801 0.0
H2356 H 0.64304 0.26903 0.68156 0.0
H2357 H 0.6796 0.29587 0.62279 0.0
H2358 H 0.70859 0.29206 0.64921 0.0
H2359 H 0.66231 0.26861 0.60535 0.0
H2360 H 0.63406 0.32847 0.65492 0.0
H2361 H 0.62421 0.34742 0.69288 0.0
H2362 H 0.58056 0.30749 0.71661 0.0
H2363 H 0.59039 0.28804 0.67895 0.0
C2364 C 0.57158 0.2845 0.55432 0.0
C2365 C 0.55844 0.27122 0.56547 0.0
C2366 C 0.58717 0.28935 0.56725 0.0
C2367 C 0.58968 0.28121 0.5916 0.0
C2368 C 0.57564 0.26909 0.60301 0.0
C2369 C 0.56042 0.26396 0.59006 0.0
C2370 C 0.6077 0.28376 0.60498 0.0
C2371 C 0.60296 0.29372 0.62717 0.0
C2372 C 0.62946 0.27514 0.59683 0.0
C2373 C 0.63564 0.2638 0.574 0.0
C2374 C 0.62907 0.24473 0.571 0.0
C2375 C 0.63505 0.23406 0.54946 0.0
C2376 C 0.64774 0.2422 0.53088 0.0
C2377 C 0.65438 0.26112 0.53373 0.0
C2378 C 0.64844 0.27186 0.55525 0.0
C2379 C 0.67354 0.27253 0.68956 0.0
C2380 C 0.69244 0.27875 0.6809 0.0
C2381 C 0.65708 0.27451 0.67437 0.0
C2382 C 0.65878 0.28315 0.65014 0.0
C2383 C 0.67772 0.28923 0.64136 0.0
C2384 C 0.69434 0.28703 0.65652 0.0
C2385 C 0.64101 0.28525 0.63401 0.0
C2386 C 0.64577 0.2761 0.61131 0.0
C2387 C 0.61925 0.29488 0.64157 0.0
C2388 C 0.61308 0.30669 0.66416 0.0
C2389 C 0.62245 0.32363 0.66829 0.0
C2390 C 0.61687 0.33447 0.68976 0.0
C2391 C 0.6018 0.32863 0.70717 0.0
C2392 C 0.59224 0.31198 0.70312 0.0
C2393 C 0.59779 0.30106 0.6817 0.0
H2394 H 0.59751 0.33703 0.72378 0.0
H2395 H 0.65256 0.23375 0.51437 0.0
H2396 H 0.7975 0.48818 0.56805 0.0
H2397 H 0.79099 0.45673 0.55027 0.0
H2398 H 0.78427 0.49385 0.48098 0.0
H2399 H 0.79018 0.52548 0.49866 0.0
H2400 H 0.75654 0.4691 0.48776 0.0
H2401 H 0.83279 0.45714 0.49825 0.0
H2402 H 0.8632 0.45299 0.52309 0.0
H2403 H 0.84617 0.39848 0.56514 0.0
H2404 H 0.81551 0.40247 0.54067 0.0
H2405 H 0.78688 0.3924 0.3987 0.0
H2406 H 0.7826 0.42136 0.42631 0.0
H2407 H 0.79286 0.37261 0.48678 0.0
H2408 H 0.79752 0.34342 0.45901 0.0
H2409 H 0.8152 0.40055 0.49049 0.0
H2410 H 0.74238 0.40844 0.47816 0.0
H2411 H 0.71092 0.41194 0.45528 0.0
H2412 H 0.71957 0.47275 0.41948 0.0
H2413 H 0.75127 0.46948 0.4419 0.0
C2414 C 0.7942 0.48982 0.54915 0.0
C2415 C 0.79454 0.50936 0.53475 0.0
C2416 C 0.79061 0.47174 0.53896 0.0
C2417 C 0.78757 0.4727 0.51414 0.0
C2418 C 0.78667 0.49261 0.50014 0.0
C2419 C 0.79009 0.51073 0.51031 0.0
C2420 C 0.78663 0.45281 0.5022 0.0
C2421 C 0.76942 0.45415 0.48824 0.0
C2422 C 0.80301 0.43292 0.50355 0.0
C2423 C 0.82172 0.43026 0.51784 0.0
C2424 C 0.83548 0.44434 0.51286 0.0
C2425 C 0.85275 0.44201 0.52687 0.0
C2426 C 0.85657 0.42552 0.54572 0.0
C2427 C 0.84316 0.41127 0.55056 0.0
C2428 C 0.82585 0.41355 0.53663 0.0
C2429 C 0.78783 0.38783 0.41793 0.0
C2430 C 0.79243 0.36557 0.42664 0.0
C2431 C 0.78536 0.40445 0.43376 0.0
C2432 C 0.78707 0.3993 0.45878 0.0
C2433 C 0.79143 0.37707 0.46759 0.0
C2434 C 0.7941 0.36039 0.4517 0.0
C2435 C 0.78541 0.41709 0.47536 0.0
C2436 C 0.80212 0.41534 0.49023 0.0
C2437 C 0.76844 0.4365 0.47508 0.0
C2438 C 0.7493 0.43863 0.46161 0.0
C2439 C 0.73766 0.42249 0.46529 0.0
C2440 C 0.71977 0.42444 0.45242 0.0
C2441 C 0.71327 0.44254 0.43591 0.0
C2442 C 0.72462 0.45874 0.43227 0.0
C2443 C 0.74254 0.45686 0.44509 0.0
H2444 H 0.69942 0.44401 0.42595 0.0
H2445 H 0.86995 0.42373 0.55653 0.0
H2446 H 0.62559 0.72704 0.48126 0.0
H2447 H 0.65287 0.73123 0.44902 0.0
H2448 H 0.66339 0.78565 0.48316 0.0
H2449 H 0.63611 0.78147 0.51586 0.0
H2450 H 0.66224 0.79522 0.43517 0.0
H2451 H 0.69922 0.73457 0.48533 0.0
H2452 H 0.70595 0.69845 0.50847 0.0
H2453 H 0.70684 0.66662 0.44323 0.0
H2454 H 0.6997 0.7026 0.41973 0.0
H2455 H 0.75902 0.79725 0.35963 0.0
H2456 H 0.73234 0.79529 0.39385 0.0
H2457 H 0.71781 0.7407 0.36404 0.0
H2458 H 0.74444 0.74244 0.32999 0.0
H2459 H 0.72217 0.73201 0.41143 0.0
H2460 H 0.68348 0.79305 0.36177 0.0
H2461 H 0.67741 0.82919 0.33868 0.0
H2462 H 0.68072 0.86015 0.4033 0.0
H2463 H 0.6871 0.82412 0.42673 0.0
C2464 C 0.63378 0.73976 0.48231 0.0
C2465 C 0.62848 0.75378 0.50161 0.0
C2466 C 0.64949 0.74216 0.46364 0.0
C2467 C 0.66054 0.75859 0.46362 0.0
C2468 C 0.65518 0.77281 0.48264 0.0
C2469 C 0.63946 0.7704 0.50141 0.0
C2470 C 0.67739 0.76101 0.44358 0.0
C2471 C 0.67553 0.78145 0.43027 0.0
C2472 C 0.69463 0.74302 0.43668 0.0
C2473 C 0.69866 0.72135 0.45081 0.0
C2474 C 0.7006 0.71991 0.47594 0.0
C2475 C 0.70452 0.69945 0.48912 0.0
C2476 C 0.7067 0.68027 0.47735 0.0
C2477 C 0.70504 0.6815 0.45234 0.0
C2478 C 0.70107 0.70193 0.43908 0.0
C2479 C 0.75002 0.78495 0.3602 0.0
C2480 C 0.75395 0.77008 0.34184 0.0
C2481 C 0.73469 0.78386 0.37983 0.0
C2482 C 0.72284 0.7679 0.38163 0.0
C2483 C 0.72667 0.75315 0.36324 0.0
C2484 C 0.7419 0.75427 0.34361 0.0
C2485 C 0.70685 0.76611 0.40284 0.0
C2486 C 0.70891 0.74578 0.41639 0.0
C2487 C 0.68985 0.78419 0.40997 0.0
C2488 C 0.686 0.80585 0.39594 0.0
C2489 C 0.68309 0.80753 0.37101 0.0
C2490 C 0.67956 0.828 0.35787 0.0
C2491 C 0.67875 0.84695 0.3695 0.0
C2492 C 0.6814 0.84546 0.39431 0.0
C2493 C 0.68495 0.82502 0.40753 0.0
H2494 H 0.67601 0.86278 0.3593 0.0
H2495 H 0.7098 0.66444 0.48757 0.0
H2496 H 0.34499 0.56942 0.48032 0.0
H2497 H 0.33903 0.6051 0.4569 0.0
H2498 H 0.28763 0.59064 0.42353 0.0
H2499 H 0.29347 0.55491 0.44704 0.0
H2500 H 0.31652 0.60826 0.39014 0.0
H2501 H 0.27484 0.62479 0.46606 0.0
H2502 H 0.26884 0.62496 0.51062 0.0
H2503 H 0.31617 0.66133 0.51158 0.0
H2504 H 0.32268 0.6611 0.46701 0.0
H2505 H 0.27324 0.71501 0.3362 0.0
H2506 H 0.27688 0.6802 0.36089 0.0
H2507 H 0.32266 0.69681 0.40192 0.0
H2508 H 0.31896 0.73174 0.37752 0.0
H2509 H 0.29624 0.67796 0.4316 0.0
H2510 H 0.33928 0.66123 0.35754 0.0
H2511 H 0.34722 0.66108 0.31316 0.0
H2512 H 0.30029 0.62488 0.30875 0.0
H2513 H 0.29183 0.62511 0.35311 0.0
C2514 C 0.33251 0.57375 0.46788 0.0
C2515 C 0.31969 0.55929 0.46558 0.0
C2516 C 0.32904 0.59423 0.4546 0.0
C2517 C 0.3128 0.60065 0.43852 0.0
C2518 C 0.30022 0.58609 0.43584 0.0
C2519 C 0.30349 0.56573 0.44939 0.0
C2520 C 0.3089 0.62259 0.42465 0.0
C2521 C 0.31176 0.62351 0.39919 0.0
C2522 C 0.30333 0.64252 0.43643 0.0
C2523 C 0.2994 0.64273 0.46322 0.0
C2524 C 0.28411 0.63265 0.47579 0.0
C2525 C 0.28059 0.6328 0.50104 0.0
C2526 C 0.29216 0.6431 0.51393 0.0
C2527 C 0.30724 0.65333 0.50157 0.0
C2528 C 0.31084 0.65321 0.47631 0.0
C2529 C 0.28392 0.71142 0.35064 0.0
C2530 C 0.29583 0.72626 0.35476 0.0
C2531 C 0.28609 0.69139 0.36468 0.0
C2532 C 0.30029 0.68565 0.38311 0.0
C2533 C 0.31163 0.70077 0.38782 0.0
C2534 C 0.3095 0.72078 0.37377 0.0
C2535 C 0.30376 0.66368 0.39702 0.0
C2536 C 0.3009 0.66274 0.4225 0.0
C2537 C 0.30963 0.64371 0.38527 0.0
C2538 C 0.31476 0.64339 0.35862 0.0
C2539 C 0.33053 0.65338 0.34709 0.0
C2540 C 0.33515 0.65326 0.32194 0.0
C2541 C 0.32422 0.64302 0.30814 0.0
C2542 C 0.30871 0.63283 0.31947 0.0
C2543 C 0.30401 0.63294 0.34461 0.0
H2544 H 0.32781 0.64294 0.28867 0.0
H2545 H 0.2894 0.6432 0.53349 0.0
H2546 H 0.45542 0.27453 0.49238 0.0
H2547 H 0.42423 0.27758 0.46957 0.0
H2548 H 0.46271 0.28342 0.40239 0.0
H2549 H 0.49377 0.28065 0.42499 0.0
H2550 H 0.42364 0.31078 0.39955 0.0
H2551 H 0.45144 0.23408 0.42447 0.0
H2552 H 0.46273 0.20247 0.45408 0.0
H2553 H 0.39944 0.21659 0.49038 0.0
H2554 H 0.38785 0.24848 0.46115 0.0
H2555 H 0.36066 0.28297 0.31621 0.0
H2556 H 0.3891 0.28379 0.34143 0.0
H2557 H 0.34849 0.27417 0.40586 0.0
H2558 H 0.32007 0.27293 0.38072 0.0
H2559 H 0.38723 0.25009 0.41172 0.0
H2560 H 0.35864 0.32561 0.38604 0.0
H2561 H 0.34691 0.35731 0.35668 0.0
H2562 H 0.41098 0.34641 0.32271 0.0
H2563 H 0.42293 0.3143 0.3515 0.0
C2564 C 0.45719 0.27679 0.47277 0.0
C2565 C 0.47725 0.27725 0.46061 0.0
C2566 C 0.43933 0.27837 0.45968 0.0
C2567 C 0.44105 0.28038 0.43411 0.0
C2568 C 0.46083 0.28181 0.42204 0.0
C2569 C 0.47867 0.28018 0.43507 0.0
C2570 C 0.42265 0.28019 0.41981 0.0
C2571 C 0.41583 0.29739 0.40209 0.0
C2572 C 0.41196 0.26304 0.42333 0.0
C2573 C 0.41885 0.24379 0.44079 0.0
C2574 C 0.43998 0.23053 0.43887 0.0
C2575 C 0.44642 0.21256 0.45557 0.0
C2576 C 0.43183 0.20757 0.47414 0.0
C2577 C 0.41074 0.2205 0.47601 0.0
C2578 C 0.40422 0.23852 0.45937 0.0
C2579 C 0.35774 0.28092 0.33574 0.0
C2580 C 0.33793 0.27786 0.34631 0.0
C2581 C 0.37405 0.28158 0.35023 0.0
C2582 C 0.371 0.27943 0.37573 0.0
C2583 C 0.35139 0.27593 0.3863 0.0
C2584 C 0.33506 0.27525 0.37182 0.0
C2585 C 0.38826 0.28063 0.39131 0.0
C2586 C 0.3949 0.26359 0.40926 0.0
C2587 C 0.39871 0.29799 0.38805 0.0
C2588 C 0.39161 0.31738 0.37076 0.0
C2589 C 0.37016 0.32983 0.37214 0.0
C2590 C 0.36348 0.34788 0.35561 0.0
C2591 C 0.37818 0.35383 0.33777 0.0
C2592 C 0.39959 0.34175 0.33647 0.0
C2593 C 0.40632 0.32361 0.35289 0.0
H2594 H 0.373 0.36783 0.325 0.0
H2595 H 0.43685 0.19364 0.48705 0.0
H2596 H 0.63726 0.75191 0.61249 0.0
H2597 H 0.65919 0.75959 0.64189 0.0
H2598 H 0.60835 0.81553 0.66303 0.0
H2599 H 0.58638 0.80827 0.63272 0.0
H2600 H 0.64607 0.82478 0.66338 0.0
H2601 H 0.61644 0.76631 0.69767 0.0
H2602 H 0.60678 0.73086 0.69941 0.0
H2603 H 0.67335 0.69664 0.69099 0.0
H2604 H 0.6834 0.73192 0.68885 0.0
H2605 H 0.70704 0.77911 0.78202 0.0
H2606 H 0.67785 0.78229 0.75642 0.0
H2607 H 0.71285 0.81029 0.69693 0.0
H2608 H 0.74172 0.80798 0.72286 0.0
H2609 H 0.67784 0.76183 0.72 0.0
H2610 H 0.68019 0.83979 0.65531 0.0
H2611 H 0.68621 0.87659 0.6573 0.0
H2612 H 0.66772 0.8746 0.73382 0.0
H2613 H 0.6613 0.83794 0.73224 0.0
C2614 C 0.63072 0.76594 0.62327 0.0
C2615 C 0.60996 0.77932 0.62049 0.0
C2616 C 0.64329 0.77028 0.64017 0.0
C2617 C 0.63527 0.7878 0.65517 0.0
C2618 C 0.61485 0.80181 0.65179 0.0
C2619 C 0.6023 0.79764 0.63451 0.0
C2620 C 0.64812 0.79076 0.67477 0.0
C2621 C 0.65297 0.81107 0.67584 0.0
C2622 C 0.65662 0.77309 0.69158 0.0
C2623 C 0.65066 0.75179 0.69293 0.0
C2624 C 0.62902 0.75124 0.69603 0.0
C2625 C 0.62347 0.73117 0.6971 0.0
C2626 C 0.63944 0.71152 0.69527 0.0
C2627 C 0.66099 0.71188 0.6924 0.0
C2628 C 0.66663 0.73191 0.69128 0.0
C2629 C 0.70836 0.7863 0.7636 0.0
C2630 C 0.72673 0.79325 0.75446 0.0
C2631 C 0.69165 0.78808 0.74894 0.0
C2632 C 0.69299 0.79658 0.72466 0.0
C2633 C 0.71111 0.80408 0.71569 0.0
C2634 C 0.7277 0.80266 0.73051 0.0
C2635 C 0.6764 0.79572 0.7083 0.0
C2636 C 0.67085 0.7757 0.70776 0.0
C2637 C 0.66679 0.81387 0.69259 0.0
C2638 C 0.67045 0.83601 0.69367 0.0
C2639 C 0.67732 0.84724 0.67254 0.0
C2640 C 0.68082 0.86807 0.67361 0.0
C2641 C 0.67741 0.8779 0.69569 0.0
C2642 C 0.67043 0.86694 0.71675 0.0
C2643 C 0.66689 0.84612 0.71578 0.0
H2644 H 0.68014 0.89402 0.69647 0.0
H2645 H 0.63511 0.696 0.69611 0.0
H2646 H 0.60555 0.24228 0.49415 0.0
H2647 H 0.64041 0.24529 0.47483 0.0
H2648 H 0.62544 0.22461 0.40832 0.0
H2649 H 0.5908 0.22119 0.42767 0.0
H2650 H 0.66496 0.20542 0.41536 0.0
H2651 H 0.62236 0.2815 0.41906 0.0
H2652 H 0.59998 0.31292 0.44088 0.0
H2653 H 0.65091 0.3092 0.48598 0.0
H2654 H 0.67353 0.27769 0.46447 0.0
H2655 H 0.72885 0.2479 0.32414 0.0
H2656 H 0.70005 0.24026 0.35245 0.0
H2657 H 0.73013 0.25545 0.41205 0.0
H2658 H 0.75926 0.26332 0.38357 0.0
H2659 H 0.68677 0.27529 0.41418 0.0
H2660 H 0.73131 0.20312 0.40603 0.0
H2661 H 0.75375 0.17151 0.38466 0.0
H2662 H 0.69958 0.16707 0.34891 0.0
H2663 H 0.67687 0.19888 0.36979 0.0
C2664 C 0.6097 0.23841 0.4754 0.0
C2665 C 0.59536 0.23157 0.46241 0.0
C2666 C 0.62964 0.24014 0.46437 0.0
C2667 C 0.63554 0.23547 0.43998 0.0
C2668 C 0.62136 0.22827 0.42715 0.0
C2669 C 0.60154 0.22629 0.43825 0.0
C2670 C 0.65631 0.23823 0.4276 0.0
C2671 C 0.66959 0.22078 0.41494 0.0
C2672 C 0.66294 0.25793 0.42779 0.0
C2673 C 0.64956 0.2772 0.44027 0.0
C2674 C 0.62875 0.28739 0.43365 0.0
C2675 C 0.61603 0.3052 0.44596 0.0
C2676 C 0.62401 0.31304 0.46482 0.0
C2677 C 0.64476 0.30313 0.47135 0.0
C2678 C 0.65755 0.28534 0.45907 0.0
C2679 C 0.7295 0.24955 0.34326 0.0
C2680 C 0.74644 0.25622 0.35155 0.0
C2681 C 0.71301 0.24505 0.35948 0.0
C2682 C 0.71301 0.24706 0.38442 0.0
C2683 C 0.72986 0.25371 0.39287 0.0
C2684 C 0.74654 0.2581 0.3766 0.0
C2685 C 0.69493 0.24276 0.40126 0.0
C2686 C 0.68223 0.25986 0.41481 0.0
C2687 C 0.68884 0.22272 0.40193 0.0
C2688 C 0.70241 0.2035 0.38937 0.0
C2689 C 0.72421 0.19551 0.39347 0.0
C2690 C 0.73697 0.17754 0.38147 0.0
C2691 C 0.7281 0.16731 0.36541 0.0
C2692 C 0.70643 0.17501 0.36136 0.0
C2693 C 0.69359 0.193 0.3733 0.0
H2694 H 0.73801 0.15339 0.35613 0.0
H2695 H 0.61412 0.32679 0.47437 0.0
H2696 H 0.83422 0.60758 0.50713 0.0
H2697 H 0.82691 0.63132 0.46998 0.0
H2698 H 0.85597 0.57595 0.42709 0.0
H2699 H 0.86363 0.55226 0.46424 0.0
H2700 H 0.86831 0.61016 0.4077 0.0
H2701 H 0.80057 0.59698 0.43481 0.0
H2702 H 0.76908 0.59477 0.46293 0.0
H2703 H 0.75488 0.66427 0.47093 0.0
H2704 H 0.78642 0.66686 0.44316 0.0
H2705 H 0.82777 0.68448 0.30441 0.0
H2706 H 0.83298 0.65175 0.33336 0.0
H2707 H 0.81785 0.69381 0.39301 0.0
H2708 H 0.81283 0.72608 0.36477 0.0
H2709 H 0.79634 0.66039 0.39806 0.0
H2710 H 0.86829 0.67087 0.37652 0.0
H2711 H 0.89918 0.67298 0.34737 0.0
H2712 H 0.90413 0.60751 0.32765 0.0
H2713 H 0.87305 0.60516 0.35649 0.0
C2714 C 0.839 0.60049 0.48978 0.0
C2715 C 0.84947 0.57807 0.48862 0.0
C2716 C 0.83472 0.61402 0.46854 0.0
C2717 C 0.84047 0.60532 0.4457 0.0
C2718 C 0.8513 0.58302 0.44449 0.0
C2719 C 0.85577 0.56952 0.46574 0.0
C2720 C 0.83561 0.61971 0.42317 0.0
C2721 C 0.85244 0.62079 0.40538 0.0
C2722 C 0.8149 0.63361 0.42002 0.0
C2723 C 0.79599 0.63207 0.43698 0.0
C2724 C 0.79084 0.61176 0.44271 0.0
C2725 C 0.77294 0.61045 0.45857 0.0
C2726 C 0.75998 0.62937 0.46871 0.0
C2727 C 0.7649 0.64963 0.46304 0.0
C2728 C 0.78278 0.65103 0.44722 0.0
C2729 C 0.82559 0.68665 0.3237 0.0
C2730 C 0.8201 0.70786 0.33226 0.0
C2731 C 0.82855 0.66801 0.34016 0.0
C2732 C 0.82576 0.67045 0.36529 0.0
C2733 C 0.82 0.69158 0.37371 0.0
C2734 C 0.81731 0.71004 0.35745 0.0
C2735 C 0.82917 0.65133 0.38335 0.0
C2736 C 0.81204 0.64933 0.40023 0.0
C2737 C 0.8495 0.63654 0.38558 0.0
C2738 C 0.8682 0.63795 0.36839 0.0
C2739 C 0.87585 0.65701 0.3658 0.0
C2740 C 0.89341 0.65823 0.34938 0.0
C2741 C 0.90356 0.64042 0.3356 0.0
C2742 C 0.89622 0.62132 0.33829 0.0
C2743 C 0.87864 0.62003 0.35467 0.0
H2744 H 0.91716 0.6414 0.32289 0.0
H2745 H 0.74612 0.62832 0.48095 0.0
H2746 H 0.50435 0.81992 0.55501 0.0
H2747 H 0.46989 0.83045 0.53692 0.0
H2748 H 0.50231 0.81151 0.46742 0.0
H2749 H 0.53655 0.8019 0.48499 0.0
H2750 H 0.46947 0.84503 0.46077 0.0
H2751 H 0.48185 0.77504 0.51093 0.0
H2752 H 0.48806 0.75342 0.55014 0.0
H2753 H 0.42906 0.79281 0.58209 0.0
H2754 H 0.42266 0.81485 0.54313 0.0
H2755 H 0.40626 0.80109 0.39578 0.0
H2756 H 0.43342 0.80554 0.42077 0.0
H2757 H 0.38468 0.82716 0.47847 0.0
H2758 H 0.3574 0.82197 0.45383 0.0
H2759 H 0.42024 0.79974 0.49608 0.0
H2760 H 0.40473 0.86472 0.44296 0.0
H2761 H 0.39898 0.88641 0.4038 0.0
H2762 H 0.46378 0.85694 0.37745 0.0
H2763 H 0.46984 0.83483 0.41633 0.0
C2764 C 0.50416 0.81867 0.53572 0.0
C2765 C 0.52315 0.80972 0.52151 0.0
C2766 C 0.48444 0.82451 0.52545 0.0
C2767 C 0.48345 0.82118 0.50095 0.0
C2768 C 0.50259 0.81408 0.48639 0.0
C2769 C 0.52222 0.80848 0.49652 0.0
C2770 C 0.46281 0.8228 0.49065 0.0
C2771 C 0.45869 0.83515 0.4685 0.0
C2772 C 0.44835 0.81042 0.50108 0.0
C2773 C 0.45189 0.79671 0.52423 0.0
C2774 C 0.47023 0.7791 0.52635 0.0
C2775 C 0.4738 0.7668 0.54852 0.0
C2776 C 0.459 0.77178 0.56861 0.0
C2777 C 0.44053 0.789 0.56653 0.0
C2778 C 0.43693 0.8014 0.54441 0.0
C2779 C 0.40132 0.80641 0.41393 0.0
C2780 C 0.37962 0.81126 0.42274 0.0
C2781 C 0.41684 0.80923 0.4281 0.0
C2782 C 0.41102 0.81714 0.4513 0.0
C2783 C 0.3895 0.82125 0.46053 0.0
C2784 C 0.37393 0.8184 0.44636 0.0
C2785 C 0.42751 0.82119 0.46566 0.0
C2786 C 0.43075 0.80999 0.48857 0.0
C2787 C 0.44121 0.83459 0.45591 0.0
C2788 C 0.4377 0.84802 0.43254 0.0
C2789 C 0.41772 0.86276 0.42877 0.0
C2790 C 0.41441 0.87515 0.40662 0.0
C2791 C 0.431 0.87303 0.38814 0.0
C2792 C 0.45095 0.85856 0.39178 0.0
C2793 C 0.45434 0.84612 0.41389 0.0
H2794 H 0.4284 0.88263 0.371 0.0
H2795 H 0.46181 0.76228 0.58578 0.0
H2796 H 0.29741 0.47477 0.43023 0.0
H2797 H 0.28533 0.45144 0.40506 0.0
H2798 H 0.25051 0.4278 0.46775 0.0
H2799 H 0.26247 0.45141 0.49317 0.0
H2800 H 0.27876 0.3943 0.44226 0.0
H2801 H 0.22271 0.45809 0.42451 0.0
H2802 H 0.20681 0.49718 0.41278 0.0
H2803 H 0.24294 0.49052 0.34342 0.0
H2804 H 0.25932 0.45145 0.35484 0.0
H2805 H 0.24787 0.32506 0.36723 0.0
H2806 H 0.24257 0.35495 0.39416 0.0
H2807 H 0.27974 0.38799 0.34201 0.0
H2808 H 0.28525 0.35818 0.31506 0.0
H2809 H 0.244 0.41719 0.36513 0.0
H2810 H 0.30457 0.35771 0.38447 0.0
H2811 H 0.32272 0.3189 0.3943 0.0
H2812 H 0.28086 0.31811 0.45934 0.0
H2813 H 0.26207 0.35692 0.44957 0.0
C2814 C 0.28684 0.46493 0.43861 0.0
C2815 C 0.28093 0.46486 0.46368 0.0
C2816 C 0.27987 0.45168 0.42417 0.0
C2817 C 0.26695 0.43795 0.4345 0.0
C2818 C 0.26041 0.43836 0.45942 0.0
C2819 C 0.26716 0.45191 0.47388 0.0
C2820 C 0.26219 0.42178 0.41955 0.0
C2821 C 0.2706 0.3993 0.42576 0.0
C2822 C 0.25219 0.42834 0.39761 0.0
C2823 C 0.24234 0.45184 0.39061 0.0
C2824 C 0.2274 0.46499 0.40682 0.0
C2825 C 0.21827 0.48715 0.40021 0.0
C2826 C 0.22388 0.49634 0.37738 0.0
C2827 C 0.23861 0.48338 0.3611 0.0
C2828 C 0.24779 0.46121 0.36762 0.0
C2829 C 0.25454 0.3389 0.36125 0.0
C2830 C 0.26713 0.33916 0.33908 0.0
C2831 C 0.25152 0.35594 0.37669 0.0
C2832 C 0.26089 0.37359 0.37013 0.0
C2833 C 0.27233 0.37455 0.34738 0.0
C2834 C 0.27556 0.35743 0.33207 0.0
C2835 C 0.26068 0.38985 0.38783 0.0
C2836 C 0.25157 0.41225 0.38201 0.0
C2837 C 0.27032 0.3833 0.40997 0.0
C2838 C 0.28173 0.3601 0.41613 0.0
C2839 C 0.2991 0.34921 0.40076 0.0
C2840 C 0.30953 0.32721 0.40634 0.0
C2841 C 0.30294 0.31599 0.42741 0.0
C2842 C 0.28591 0.3268 0.44299 0.0
C2843 C 0.27535 0.3488 0.43743 0.0
H2844 H 0.31106 0.29894 0.43168 0.0
H2845 H 0.2168 0.51349 0.3723 0.0
H2846 H 0.45142 0.25074 0.57725 0.0
H2847 H 0.42653 0.2516 0.6136 0.0
H2848 H 0.47213 0.19757 0.6477 0.0
H2849 H 0.49675 0.19631 0.61109 0.0
H2850 H 0.4345 0.1914 0.65825 0.0
H2851 H 0.46434 0.25278 0.66124 0.0
H2852 H 0.47424 0.28713 0.64618 0.0
H2853 H 0.40795 0.32009 0.64002 0.0
H2854 H 0.39768 0.28583 0.65473 0.0
H2855 H 0.37675 0.25121 0.7747 0.0
H2856 H 0.40433 0.24576 0.74083 0.0
H2857 H 0.36725 0.21298 0.70415 0.0
H2858 H 0.33994 0.21776 0.7383 0.0
H2859 H 0.40269 0.26176 0.69667 0.0
H2860 H 0.39897 0.17757 0.66561 0.0
H2861 H 0.39233 0.14244 0.68361 0.0
H2862 H 0.41246 0.15362 0.75155 0.0
H2863 H 0.41948 0.18866 0.73387 0.0
C2864 C 0.45612 0.23909 0.59253 0.0
C2865 C 0.47608 0.22353 0.59136 0.0
C2866 C 0.44191 0.23961 0.61334 0.0
C2867 C 0.44755 0.2249 0.63365 0.0
C2868 C 0.46735 0.2091 0.63233 0.0
C2869 C 0.48143 0.20837 0.61138 0.0
C2870 C 0.43292 0.22607 0.65631 0.0
C2871 C 0.42756 0.2068 0.66664 0.0
C2872 C 0.42414 0.24603 0.66766 0.0
C2873 C 0.43026 0.26668 0.65887 0.0
C2874 C 0.45189 0.26731 0.65651 0.0
C2875 C 0.45757 0.28677 0.64806 0.0
C2876 C 0.44174 0.30577 0.64209 0.0
C2877 C 0.4202 0.30535 0.64462 0.0
C2878 C 0.41444 0.28592 0.65303 0.0
C2879 C 0.37461 0.24251 0.75961 0.0
C2880 C 0.35616 0.23483 0.7593 0.0
C2881 C 0.39037 0.2395 0.74017 0.0
C2882 C 0.388 0.22886 0.7199 0.0
C2883 C 0.36973 0.22086 0.71972 0.0
C2884 C 0.35407 0.22364 0.7393 0.0
C2885 C 0.40409 0.22714 0.6985 0.0
C2886 C 0.40966 0.24634 0.68834 0.0
C2887 C 0.41351 0.20701 0.68772 0.0
C2888 C 0.40954 0.18585 0.69846 0.0
C2889 C 0.40205 0.17249 0.68436 0.0
C2890 C 0.39821 0.1526 0.69451 0.0
C2891 C 0.40191 0.14584 0.71873 0.0
C2892 C 0.40952 0.15892 0.73282 0.0
C2893 C 0.41341 0.17881 0.72275 0.0
H2894 H 0.39891 0.13044 0.72656 0.0
H2895 H 0.44617 0.32082 0.63555 0.0
H2896 H 0.86117 0.44911 0.59242 0.0
H2897 H 0.85637 0.41432 0.61303 0.0
H2898 H 0.85208 0.44183 0.68232 0.0
H2899 H 0.85821 0.47579 0.6617 0.0
H2900 H 0.87239 0.40226 0.68716 0.0
H2901 H 0.80771 0.43933 0.64738 0.0
H2902 H 0.78593 0.45419 0.61281 0.0
H2903 H 0.80303 0.39039 0.58434 0.0
H2904 H 0.82546 0.37533 0.61826 0.0
H2905 H 0.80844 0.35093 0.76788 0.0
H2906 H 0.82118 0.37673 0.73856 0.0
H2907 H 0.83109 0.33068 0.68321 0.0
H2908 H 0.81793 0.30461 0.71256 0.0
H2909 H 0.8128 0.37334 0.66647 0.0
H2910 H 0.87359 0.33599 0.70987 0.0
H2911 H 0.89247 0.32137 0.74659 0.0
H2912 H 0.87987 0.38675 0.7702 0.0
H2913 H 0.86064 0.40174 0.7338 0.0
C2914 C 0.8596 0.44738 0.61206 0.0
C2915 C 0.86016 0.46494 0.62555 0.0
C2916 C 0.85664 0.42765 0.62383 0.0
C2917 C 0.85339 0.42553 0.64929 0.0
C2918 C 0.8546 0.44294 0.66269 0.0
C2919 C 0.85814 0.46236 0.65095 0.0
C2920 C 0.8481 0.40566 0.66232 0.0
C2921 C 0.85926 0.39608 0.68263 0.0
C2922 C 0.83148 0.39691 0.65599 0.0
C2923 C 0.81851 0.40627 0.6352 0.0
C2924 C 0.80707 0.42855 0.63356 0.0
C2925 C 0.79461 0.43701 0.61407 0.0
C2926 C 0.79315 0.42325 0.59636 0.0
C2927 C 0.80424 0.40105 0.59801 0.0
C2928 C 0.8169 0.39257 0.6173 0.0
C2929 C 0.81327 0.34619 0.74948 0.0
C2930 C 0.81237 0.32558 0.74263 0.0
C2931 C 0.82063 0.36098 0.73275 0.0
C2932 C 0.82753 0.35541 0.70887 0.0
C2933 C 0.826 0.33518 0.70164 0.0
C2934 C 0.81849 0.32034 0.71842 0.0
C2935 C 0.83642 0.37089 0.69175 0.0
C2936 C 0.82609 0.37943 0.67067 0.0
C2937 C 0.8536 0.37891 0.69747 0.0
C2938 C 0.86561 0.36998 0.71912 0.0
C2939 C 0.87477 0.34724 0.72293 0.0
C2940 C 0.88554 0.33889 0.7437 0.0
C2941 C 0.88735 0.35312 0.76073 0.0
C2942 C 0.87846 0.37575 0.75699 0.0
C2943 C 0.86766 0.38419 0.73627 0.0
H2944 H 0.89566 0.34661 0.77681 0.0
H2945 H 0.7833 0.42973 0.58145 0.0
H2946 H 0.31668 0.5316 0.58997 0.0
H2947 H 0.303 0.55869 0.61961 0.0
H2948 H 0.23843 0.56467 0.60189 0.0
H2949 H 0.25224 0.53754 0.57127 0.0
H2950 H 0.24523 0.60403 0.60398 0.0
H2951 H 0.25463 0.54012 0.65697 0.0
H2952 H 0.27258 0.50313 0.67388 0.0
H2953 H 0.32376 0.52783 0.69356 0.0
H2954 H 0.30632 0.56491 0.67643 0.0
H2955 H 0.24657 0.65537 0.72834 0.0
H2956 H 0.24356 0.62461 0.70632 0.0
H2957 H 0.27198 0.65209 0.64107 0.0
H2958 H 0.27456 0.68305 0.66288 0.0
H2959 H 0.27186 0.59367 0.686 0.0
H2960 H 0.25425 0.64069 0.59131 0.0
H2961 H 0.23394 0.67704 0.57516 0.0
H2962 H 0.19337 0.68498 0.64158 0.0
H2963 H 0.21322 0.64853 0.65801 0.0
C2964 C 0.29952 0.53845 0.5924 0.0
C2965 C 0.28553 0.5324 0.57824 0.0
C2966 C 0.2917 0.55386 0.60958 0.0
C2967 C 0.26966 0.56339 0.61334 0.0
C2968 C 0.2555 0.55734 0.59939 0.0
C2969 C 0.26339 0.54186 0.58197 0.0
C2970 C 0.26204 0.58076 0.63072 0.0
C2971 C 0.25076 0.60174 0.62206 0.0
C2972 C 0.26868 0.57758 0.65459 0.0
C2973 C 0.27914 0.55535 0.66535 0.0
C2974 C 0.26976 0.53767 0.66481 0.0
C2975 C 0.27985 0.51667 0.67444 0.0
C2976 C 0.2993 0.51313 0.68478 0.0
C2977 C 0.30868 0.5306 0.68557 0.0
C2978 C 0.29867 0.55163 0.67595 0.0
C2979 C 0.2522 0.65478 0.7093 0.0
C2980 C 0.26079 0.67157 0.69728 0.0
C2981 C 0.25038 0.63727 0.69673 0.0
C2982 C 0.25717 0.63623 0.67194 0.0
C2983 C 0.26605 0.65285 0.66002 0.0
C2984 C 0.26766 0.67046 0.67251 0.0
C2985 C 0.25615 0.61721 0.6587 0.0
C2986 C 0.26581 0.59591 0.66819 0.0
C2987 C 0.24753 0.62003 0.63586 0.0
C2988 C 0.23532 0.64188 0.62595 0.0
C2989 C 0.24091 0.65011 0.60242 0.0
C2990 C 0.22949 0.67076 0.59323 0.0
C2991 C 0.2124 0.68333 0.60735 0.0
C2992 C 0.20665 0.67525 0.63068 0.0
C2993 C 0.218 0.6546 0.63996 0.0
H2994 H 0.20359 0.69932 0.60021 0.0
H2995 H 0.30711 0.49685 0.69219 0.0
loop_
_geom_bond_atom_site_label_1
_geom_bond_atom_site_label_2
_geom_bond_distance
_geom_bond_site_symmetry_2
_ccdc_geom_bond_type
Cu0 N1 1.999 . S
Cu0 O6 1.974 1_545 S
Cu0 N11 1.985 1_545 S
Cu0 O20 1.957 1_455 S
N1 Cu0 1.999 . S
N1 C3 1.263 . S
N1 C5 1.389 . S
N2 C3 1.358 . S
N2 C4 1.400 . S
C3 N1 1.263 . S
C3 N2 1.358 . S
C3 H9 0.930 . S
C4 N2 1.400 . S
C4 C5 1.351 . S
C4 H21 0.930 . S
C5 N1 1.389 . S
C5 C4 1.351 . S
C5 H10 0.930 . S
O6 Cu0 1.974 1_565 S
O6 C16 1.282 . S
C7 O8 1.261 1_655 S
C7 O20 1.252 . S
O8 C7 1.261 1_455 S
H9 C3 0.930 . S
H10 C5 0.930 . S
N11 Cu0 1.985 1_565 S
N11 C13 1.335 1_455 S
N11 C14 1.390 . S
N12 C13 1.345 . S
N12 C15 1.336 1_655 S
C13 N11 1.335 1_655 S
C13 N12 1.345 . S
C13 H18 0.930 . S
C14 N11 1.390 . S
C14 C15 1.346 . S
C14 H19 0.930 . S
C15 N12 1.336 1_455 S
C15 C14 1.346 . S
C15 H22 0.929 . S
C16 O6 1.282 . S
C16 O17 1.216 . S
O17 C16 1.216 . S
H18 C13 0.930 . S
H19 C14 0.930 . S
O20 Cu0 1.957 1_655 S
O20 C7 1.252 . S
H21 C4 0.930 . S
H22 C15 0.929 . S
Cu23 N24 2.024 . S
Cu23 O29 1.974 1_455 S
Cu23 N34 1.985 . S
Cu23 O43 1.959 . S
N24 Cu23 2.024 . S
N24 C26 1.234 1_455 S
N24 C28 1.390 1_545 S
N25 C26 1.358 1_565 S
N25 C27 1.400 . S
C26 N24 1.234 1_655 S
C26 N25 1.358 1_545 S
C26 H32 0.930 . S
C27 N25 1.400 . S
C27 C28 1.351 1_655 S
C27 H44 0.930 . S
C28 N24 1.390 1_565 S
C28 C27 1.351 1_455 S
C28 H33 0.930 . S
O29 Cu23 1.974 1_655 S
O29 C39 1.282 . S
C30 O31 1.261 . S
C30 O43 1.251 . S
O31 C30 1.261 . S
H32 C26 0.930 . S
H33 C28 0.930 . S
N34 Cu23 1.985 . S
N34 C36 1.335 . S
N34 C37 1.390 . S
N35 C36 1.345 . S
N35 C38 1.336 . S
C36 N34 1.335 . S
C36 N35 1.345 . S
C36 H41 0.930 . S
C37 N34 1.390 . S
C37 C38 1.346 . S
C37 H42 0.930 . S
C38 N35 1.336 . S
C38 C37 1.346 . S
C38 H45 0.929 . S
C39 O29 1.282 . S
C39 O40 1.216 . S
O40 C39 1.216 . S
H41 C36 0.930 . S
H42 C37 0.930 . S
O43 Cu23 1.959 . S
O43 C30 1.251 . S
H44 C27 0.930 . S
H45 C38 0.929 . S
Cu46 N47 1.999 . S
Cu46 O52 1.974 . S
Cu46 N57 1.985 . S
Cu46 O66 1.959 . S
N47 Cu46 1.999 . S
N47 C49 1.263 . S
N47 C51 1.389 . S
N48 C49 1.358 1_565 S
N48 C50 1.400 1_565 S
C49 N47 1.263 . S
C49 N48 1.358 1_545 S
C49 H55 0.930 1_545 S
C50 N48 1.400 1_545 S
C50 C51 1.351 . S
C50 H67 0.930 1_544 S
C51 N47 1.389 . S
C51 C50 1.351 . S
C51 H56 0.930 . S
O52 Cu46 1.974 . S
O52 C62 1.282 . S
C53 O54 1.261 . S
C53 O66 1.251 . S
O54 C53 1.261 . S
H55 C49 0.930 1_565 S
H56 C51 0.930 . S
N57 Cu46 1.985 . S
N57 C59 1.335 . S
N57 C60 1.390 . S
N58 C59 1.345 . S
N58 C61 1.336 . S
C59 N57 1.335 . S
C59 N58 1.345 . S
C59 H64 0.930 . S
C60 N57 1.390 . S
C60 C61 1.346 . S
C60 H65 0.930 . S
C61 N58 1.336 . S
C61 C60 1.346 . S
C61 H68 0.929 . S
C62 O52 1.282 . S
C62 O63 1.216 . S
O63 C62 1.216 . S
H64 C59 0.930 . S
H65 C60 0.930 . S
O66 Cu46 1.959 . S
O66 C53 1.251 . S
H67 C50 0.930 1_566 S
H68 C61 0.929 . S
Cu69 N70 1.999 . S
Cu69 O75 1.974 . S
Cu69 N80 1.985 . S
Cu69 O89 1.959 . S
N70 Cu69 1.999 . S
N70 C72 1.263 . S
N70 C74 1.389 . S
N71 C72 1.358 . S
N71 C73 1.400 1_554 S
C72 N70 1.263 . S
C72 N71 1.358 . S
C72 H78 0.930 . S
C73 N71 1.400 1_556 S
C73 C74 1.351 1_556 S
C73 H90 0.930 . S
C74 N70 1.389 . S
C74 C73 1.351 1_554 S
C74 H79 0.930 . S
O75 Cu69 1.974 . S
O75 C85 1.282 . S
C76 O77 1.261 . S
C76 O89 1.251 . S
O77 C76 1.261 . S
H78 C72 0.930 . S
H79 C74 0.930 . S
N80 Cu69 1.985 . S
N80 C82 1.335 1_455 S
N80 C83 1.390 . S
N81 C82 1.345 . S
N81 C84 1.318 1_655 S
C82 N80 1.335 1_655 S
C82 N81 1.345 . S
C82 H87 0.930 . S
C83 N80 1.390 . S
C83 C84 1.367 . S
C83 H88 0.930 . S
C84 N81 1.318 1_455 S
C84 C83 1.367 . S
C84 H91 0.926 1_455 S
C85 O75 1.282 . S
C85 O86 1.216 . S
O86 C85 1.216 . S
H87 C82 0.930 . S
H88 C83 0.930 . S
O89 Cu69 1.959 . S
O89 C76 1.251 . S
H90 C73 0.930 . S
H91 C84 0.926 1_655 S
Cu92 N93 1.999 1_554 S
Cu92 O98 1.974 . S
Cu92 N103 1.985 1_545 S
Cu92 O112 1.959 1_544 S
N93 Cu92 1.999 1_556 S
N93 C95 1.263 . S
N93 C97 1.389 . S
N94 C95 1.358 . S
N94 C96 1.400 . S
C95 N93 1.263 . S
C95 N94 1.358 . S
C95 H101 0.930 . S
C96 N94 1.400 . S
C96 C97 1.351 . S
C96 H113 0.930 . S
C97 N93 1.389 . S
C97 C96 1.351 . S
C97 H102 0.930 . S
O98 Cu92 1.974 . S
O98 C108 1.282 . S
C99 O100 1.261 . S
C99 O112 1.251 . S
O100 C99 1.261 . S
H101 C95 0.930 . S
H102 C97 0.930 . S
N103 Cu92 1.985 1_565 S
N103 C105 1.335 . S
N103 C106 1.390 . S
N104 C105 1.345 . S
N104 C107 1.336 . S
C105 N103 1.335 . S
C105 N104 1.345 . S
C105 H110 0.930 . S
C106 N103 1.390 . S
C106 C107 1.346 . S
C106 H111 0.930 . S
C107 N104 1.336 . S
C107 C106 1.346 . S
C107 H114 0.929 . S
C108 O98 1.282 . S
C108 O109 1.216 . S
O109 C108 1.216 . S
H110 C105 0.930 . S
H111 C106 0.930 . S
O112 Cu92 1.959 1_566 S
O112 C99 1.251 . S
H113 C96 0.930 . S
H114 C107 0.929 . S
Cu115 N116 1.999 1_454 S
Cu115 O121 1.974 1_455 S
Cu115 N126 1.985 . S
Cu115 O135 1.959 1_554 S
N116 Cu115 1.999 1_656 S
N116 C118 1.263 . S
N116 C120 1.389 . S
N117 C118 1.358 . S
N117 C119 1.400 . S
C118 N116 1.263 . S
C118 N117 1.358 . S
C118 H124 0.939 . S
C119 N117 1.400 . S
C119 C120 1.352 . S
C119 H136 0.930 . S
C120 N116 1.389 . S
C120 C119 1.352 . S
C120 H125 0.929 1_655 S
O121 Cu115 1.974 1_655 S
O121 C131 1.282 . S
C122 O123 1.261 . S
C122 O135 1.251 . S
O123 C122 1.261 . S
H124 C118 0.939 . S
H125 C120 0.929 1_455 S
N126 Cu115 1.985 . S
N126 C128 1.335 . S
N126 C129 1.390 . S
N127 C128 1.345 . S
N127 C130 1.336 . S
C128 N126 1.335 . S
C128 N127 1.345 . S
C128 H133 0.930 . S
C129 N126 1.390 . S
C129 C130 1.346 . S
C129 H134 0.930 . S
C130 N127 1.336 . S
C130 C129 1.346 . S
C130 H137 0.929 . S
C131 O121 1.282 . S
C131 O132 1.216 . S
O132 C131 1.216 . S
H133 C128 0.930 . S
H134 C129 0.930 . S
O135 Cu115 1.959 1_556 S
O135 C122 1.251 . S
H136 C119 0.930 . S
H137 C130 0.929 . S
Cu138 N139 1.999 . S
Cu138 O144 1.974 . S
Cu138 N149 1.985 . S
Cu138 O158 1.959 . S
N139 Cu138 1.999 . S
N139 C141 1.263 . S
N139 C143 1.389 . S
N140 C141 1.358 . S
N140 C142 1.400 . S
C141 N139 1.263 . S
C141 N140 1.358 . S
C141 H147 0.930 . S
C142 N140 1.400 . S
C142 C143 1.351 . S
C142 H159 0.930 . S
C143 N139 1.389 . S
C143 C142 1.351 . S
C143 H148 0.930 . S
O144 Cu138 1.974 . S
O144 C154 1.282 . S
C145 O146 1.261 . S
C145 O158 1.251 . S
O146 C145 1.261 . S
H147 C141 0.930 . S
H148 C143 0.930 . S
N149 Cu138 1.985 . S
N149 C151 1.335 . S
N149 C152 1.390 . S
N150 C151 1.345 . S
N150 C153 1.336 . S
C151 N149 1.335 . S
C151 N150 1.345 . S
C151 H156 0.930 . S
C152 N149 1.390 . S
C152 C153 1.346 . S
C152 H157 0.930 . S
C153 N150 1.336 . S
C153 C152 1.346 . S
C153 H160 0.929 . S
C154 O144 1.282 . S
C154 O155 1.216 . S
O155 C154 1.216 . S
H156 C151 0.930 . S
H157 C152 0.930 . S
O158 Cu138 1.959 . S
O158 C145 1.251 . S
H159 C142 0.930 . S
H160 C153 0.929 . S
Cu161 N162 1.999 . S
Cu161 O167 1.974 . S
Cu161 N172 1.985 . S
Cu161 O181 1.959 . S
N162 Cu161 1.999 . S
N162 C164 1.263 . S
N162 C166 1.389 . S
N163 C164 1.358 . S
N163 C165 1.400 . S
C164 N162 1.263 . S
C164 N163 1.358 . S
C164 H170 0.930 . S
C165 N163 1.400 . S
C165 C166 1.351 . S
C165 H182 0.930 . S
C166 N162 1.389 . S
C166 C165 1.351 . S
C166 H171 0.930 . S
O167 Cu161 1.974 . S
O167 C177 1.282 . S
C168 O169 1.261 . S
C168 O181 1.251 . S
O169 C168 1.261 . S
H170 C164 0.930 . S
H171 C166 0.930 . S
N172 Cu161 1.985 . S
N172 C174 1.335 . S
N172 C175 1.390 . S
N173 C174 1.345 . S
N173 C176 1.336 . S
C174 N172 1.335 . S
C174 N173 1.345 . S
C174 H179 0.930 . S
C175 N172 1.390 . S
C175 C176 1.346 . S
C175 H180 0.930 . S
C176 N173 1.336 . S
C176 C175 1.346 . S
C176 H183 0.929 . S
C177 O167 1.282 . S
C177 O178 1.216 . S
O178 C177 1.216 . S
H179 C174 0.930 . S
H180 C175 0.930 . S
O181 Cu161 1.959 . S
O181 C168 1.251 . S
H182 C165 0.930 . S
H183 C176 0.929 . S
Cu184 N185 1.999 . S
Cu184 O190 1.974 . S
Cu184 N195 1.985 . S
Cu184 O204 1.959 . S
N185 Cu184 1.999 . S
N185 C187 1.263 . S
N185 C189 1.389 . S
N186 C187 1.358 . S
N186 C188 1.400 . S
C187 N185 1.263 . S
C187 N186 1.358 . S
C187 H193 0.930 . S
C188 N186 1.400 . S
C188 C189 1.351 . S
C188 H205 0.930 . S
C189 N185 1.389 . S
C189 C188 1.351 . S
C189 H194 0.930 . S
O190 Cu184 1.974 . S
O190 C200 1.282 . S
C191 O192 1.261 . S
C191 O204 1.251 . S
O192 C191 1.261 . S
H193 C187 0.930 . S
H194 C189 0.930 . S
N195 Cu184 1.985 . S
N195 C197 1.335 . S
N195 C198 1.390 . S
N196 C197 1.345 . S
N196 C199 1.336 . S
C197 N195 1.335 . S
C197 N196 1.345 . S
C197 H202 0.930 . S
C198 N195 1.390 . S
C198 C199 1.346 . S
C198 H203 0.930 . S
C199 N196 1.336 . S
C199 C198 1.346 . S
C199 H206 0.929 . S
C200 O190 1.282 . S
C200 O201 1.216 . S
O201 C200 1.216 . S
H202 C197 0.930 . S
H203 C198 0.930 . S
O204 Cu184 1.959 . S
O204 C191 1.251 . S
H205 C188 0.930 . S
H206 C199 0.929 . S
Cu207 N208 1.999 . S
Cu207 O213 1.974 . S
Cu207 N218 1.985 . S
Cu207 O227 1.959 . S
N208 Cu207 1.999 . S
N208 C210 1.263 . S
N208 C212 1.389 . S
N209 C210 1.358 . S
N209 C211 1.400 . S
C210 N208 1.263 . S
C210 N209 1.358 . S
C210 H216 0.930 . S
C211 N209 1.400 . S
C211 C212 1.351 . S
C211 H228 0.930 . S
C212 N208 1.389 . S
C212 C211 1.351 . S
C212 H217 0.930 . S
O213 Cu207 1.974 . S
O213 C223 1.282 . S
C214 O215 1.261 . S
C214 O227 1.251 . S
O215 C214 1.261 . S
H216 C210 0.930 . S
H217 C212 0.930 . S
N218 Cu207 1.985 . S
N218 C220 1.335 . S
N218 C221 1.390 . S
N219 C220 1.345 . S
N219 C222 1.336 . S
C220 N218 1.335 . S
C220 N219 1.345 . S
C220 H225 0.930 . S
C221 N218 1.390 . S
C221 C222 1.346 . S
C221 H226 0.930 . S
C222 N219 1.336 . S
C222 C221 1.346 . S
C222 H229 0.929 . S
C223 O213 1.282 . S
C223 O224 1.216 . S
O224 C223 1.216 . S
H225 C220 0.930 . S
H226 C221 0.930 . S
O227 Cu207 1.959 . S
O227 C214 1.251 . S
H228 C211 0.930 . S
H229 C222 0.929 . S
Cu230 N231 1.999 . S
Cu230 O236 1.974 . S
Cu230 N241 1.985 . S
Cu230 O250 1.959 . S
N231 Cu230 1.999 . S
N231 C233 1.263 . S
N231 C235 1.389 . S
N232 C233 1.358 . S
N232 C234 1.400 . S
C233 N231 1.263 . S
C233 N232 1.358 . S
C233 H239 0.930 . S
C234 N232 1.400 . S
C234 C235 1.351 . S
C234 H251 0.930 . S
C235 N231 1.389 . S
C235 C234 1.351 . S
C235 H240 0.930 . S
O236 Cu230 1.974 . S
O236 C246 1.282 . S
C237 O238 1.261 . S
C237 O250 1.251 . S
O238 C237 1.261 . S
H239 C233 0.930 . S
H240 C235 0.930 . S
N241 Cu230 1.985 . S
N241 C243 1.335 . S
N241 C244 1.390 . S
N242 C243 1.345 . S
N242 C245 1.336 . S
C243 N241 1.335 . S
C243 N242 1.345 . S
C243 H248 0.930 . S
C244 N241 1.390 . S
C244 C245 1.346 . S
C244 H249 0.930 . S
C245 N242 1.336 . S
C245 C244 1.346 . S
C245 H252 0.929 . S
C246 O236 1.282 . S
C246 O247 1.216 . S
O247 C246 1.216 . S
H248 C243 0.930 . S
H249 C244 0.930 . S
O250 Cu230 1.959 . S
O250 C237 1.251 . S
H251 C234 0.930 . S
H252 C245 0.929 . S
Cu253 N254 1.999 . S
Cu253 O259 1.974 . S
Cu253 N264 1.985 . S
Cu253 O273 1.959 . S
N254 Cu253 1.999 . S
N254 C256 1.263 . S
N254 C258 1.389 . S
N255 C256 1.358 . S
N255 C257 1.400 . S
C256 N254 1.263 . S
C256 N255 1.358 . S
C256 H262 0.930 . S
C257 N255 1.400 . S
C257 C258 1.351 . S
C257 H274 0.930 . S
C258 N254 1.389 . S
C258 C257 1.351 . S
C258 H263 0.930 . S
O259 Cu253 1.974 . S
O259 C269 1.282 . S
C260 O261 1.261 . S
C260 O273 1.251 . S
O261 C260 1.261 . S
H262 C256 0.930 . S
H263 C258 0.930 . S
N264 Cu253 1.985 . S
N264 C266 1.335 . S
N264 C267 1.390 . S
N265 C266 1.345 . S
N265 C268 1.336 . S
C266 N264 1.335 . S
C266 N265 1.345 . S
C266 H271 0.930 . S
C267 N264 1.390 . S
C267 C268 1.346 . S
C267 H272 0.930 . S
C268 N265 1.336 . S
C268 C267 1.346 . S
C268 H275 0.929 . S
C269 O259 1.282 . S
C269 O270 1.216 . S
O270 C269 1.216 . S
H271 C266 0.930 . S
H272 C267 0.930 . S
O273 Cu253 1.959 . S
O273 C260 1.251 . S
H274 C257 0.930 . S
H275 C268 0.929 . S
Tb276 C285 2.764 . S
Tb276 O286 2.325 . S
Tb276 O289 2.303 . S
Tb276 O293 2.322 . S
Tb276 O294 2.349 . S
Tb276 O297 2.415 . S
Tb276 O298 2.399 . S
Tb277 O287 2.322 . S
Tb277 O288 2.349 . S
Tb277 O290 2.415 . S
Tb277 O291 2.399 . S
Tb277 O292 2.325 . S
Tb277 O295 2.303 . S
Tb277 C306 2.764 . S
C278 O294 1.261 . S
C278 O295 1.257 . S
C279 C282 1.358 . S
C279 C283 1.332 . S
C279 C285 1.504 . S
C280 C281 1.373 . S
C280 C284 1.308 . S
C281 C280 1.373 . S
C281 C282 1.429 . S
C281 H308 0.932 . S
C282 C279 1.358 . S
C282 C281 1.429 . S
C282 H309 0.930 . S
C283 C279 1.332 . S
C283 C284 1.394 . S
C283 H310 0.932 . S
C284 C280 1.308 . S
C284 C283 1.394 . S
C284 H311 0.929 . S
C285 Tb276 2.764 . S
C285 C279 1.504 . S
C285 O297 1.239 . S
C285 O298 1.263 . S
O286 Tb276 2.325 . S
O286 C296 1.236 . S
O287 Tb277 2.322 . S
O287 C296 1.257 . S
O288 Tb277 2.349 . S
O288 C299 1.261 . S
O289 Tb276 2.303 . S
O289 C299 1.257 . S
O290 Tb277 2.415 . S
O290 C306 1.239 . S
O291 Tb277 2.399 . S
O291 C306 1.263 . S
O292 Tb277 2.325 . S
O292 C307 1.236 . S
O293 Tb276 2.322 . S
O293 C307 1.257 . S
O294 Tb276 2.349 . S
O294 C278 1.261 . S
O295 Tb277 2.303 . S
O295 C278 1.257 . S
C296 O286 1.236 . S
C296 O287 1.257 . S
O297 Tb276 2.415 . S
O297 C285 1.239 . S
O298 Tb276 2.399 . S
O298 C285 1.263 . S
C299 O288 1.261 . S
C299 O289 1.257 . S
C300 C303 1.358 . S
C300 C304 1.332 . S
C300 C306 1.504 . S
C301 C302 1.373 . S
C301 C305 1.308 . S
C302 C301 1.373 . S
C302 C303 1.429 . S
C302 H312 0.932 . S
C303 C300 1.358 . S
C303 C302 1.429 . S
C303 H313 0.930 . S
C304 C300 1.332 . S
C304 C305 1.394 . S
C304 H314 0.932 . S
C305 C301 1.308 . S
C305 C304 1.394 . S
C305 H315 0.929 . S
C306 Tb277 2.764 . S
C306 O290 1.239 . S
C306 O291 1.263 . S
C306 C300 1.504 . S
C307 O292 1.236 . S
C307 O293 1.257 . S
H308 C281 0.932 . S
H309 C282 0.930 . S
H310 C283 0.932 . S
H311 C284 0.929 . S
H312 C302 0.932 . S
H313 C303 0.930 . S
H314 C304 0.932 . S
H315 C305 0.929 . S
Tb316 C325 2.764 . S
Tb316 O326 2.325 . S
Tb316 O329 2.303 . S
Tb316 O333 2.322 . S
Tb316 O334 2.349 . S
Tb316 O337 2.415 . S
Tb316 O338 2.399 . S
Tb317 O327 2.322 . S
Tb317 O328 2.349 . S
Tb317 O330 2.415 . S
Tb317 O331 2.399 . S
Tb317 O332 2.325 . S
Tb317 O335 2.303 . S
Tb317 C346 2.764 . S
C318 O334 1.261 . S
C318 O335 1.257 . S
C319 C322 1.358 . S
C319 C323 1.332 . S
C319 C325 1.504 . S
C320 C321 1.373 . S
C320 C324 1.308 . S
C321 C320 1.373 . S
C321 C322 1.429 . S
C321 H348 0.932 . S
C322 C319 1.358 . S
C322 C321 1.429 . S
C322 H349 0.930 . S
C323 C319 1.332 . S
C323 C324 1.394 . S
C323 H350 0.932 . S
C324 C320 1.308 . S
C324 C323 1.394 . S
C324 H351 0.929 . S
C325 Tb316 2.764 . S
C325 C319 1.504 . S
C325 O337 1.239 . S
C325 O338 1.263 . S
O326 Tb316 2.325 . S
O326 C336 1.236 . S
O327 Tb317 2.322 . S
O327 C336 1.257 . S
O328 Tb317 2.349 . S
O328 C339 1.261 . S
O329 Tb316 2.303 . S
O329 C339 1.257 . S
O330 Tb317 2.415 . S
O330 C346 1.239 . S
O331 Tb317 2.399 . S
O331 C346 1.263 . S
O332 Tb317 2.325 . S
O332 C347 1.236 . S
O333 Tb316 2.322 . S
O333 C347 1.257 . S
O334 Tb316 2.349 . S
O334 C318 1.261 . S
O335 Tb317 2.303 . S
O335 C318 1.257 . S
C336 O326 1.236 . S
C336 O327 1.257 . S
O337 Tb316 2.415 . S
O337 C325 1.239 . S
O338 Tb316 2.399 . S
O338 C325 1.263 . S
C339 O328 1.261 . S
C339 O329 1.257 . S
C340 C343 1.358 . S
C340 C344 1.332 . S
C340 C346 1.504 . S
C341 C342 1.373 . S
C341 C345 1.308 . S
C342 C341 1.373 . S
C342 C343 1.429 . S
C342 H352 0.932 . S
C343 C340 1.358 . S
C343 C342 1.429 . S
C343 H353 0.930 . S
C344 C340 1.332 . S
C344 C345 1.394 . S
C344 H354 0.932 . S
C345 C341 1.308 . S
C345 C344 1.394 . S
C345 H355 0.929 . S
C346 Tb317 2.764 . S
C346 O330 1.239 . S
C346 O331 1.263 . S
C346 C340 1.504 . S
C347 O332 1.236 . S
C347 O333 1.257 . S
H348 C321 0.932 . S
H349 C322 0.930 . S
H350 C323 0.932 . S
H351 C324 0.929 . S
H352 C342 0.932 . S
H353 C343 0.930 . S
H354 C344 0.932 . S
H355 C345 0.929 . S
Tb356 C365 2.764 . S
Tb356 O366 2.325 . S
Tb356 O369 2.303 . S
Tb356 O373 2.322 . S
Tb356 O374 2.349 . S
Tb356 O377 2.415 . S
Tb356 O378 2.399 . S
Tb357 O367 2.322 . S
Tb357 O368 2.349 . S
Tb357 O370 2.415 . S
Tb357 O371 2.399 . S
Tb357 O372 2.325 . S
Tb357 O375 2.303 . S
Tb357 C386 2.764 . S
C358 O374 1.261 . S
C358 O375 1.257 . S
C359 C362 1.358 . S
C359 C363 1.332 . S
C359 C365 1.504 . S
C360 C361 1.373 . S
C360 C364 1.308 . S
C361 C360 1.373 . S
C361 C362 1.429 . S
C361 H388 0.932 . S
C362 C359 1.358 . S
C362 C361 1.429 . S
C362 H389 0.930 . S
C363 C359 1.332 . S
C363 C364 1.394 . S
C363 H390 0.932 . S
C364 C360 1.308 . S
C364 C363 1.394 . S
C364 H391 0.929 . S
C365 Tb356 2.764 . S
C365 C359 1.504 . S
C365 O377 1.239 . S
C365 O378 1.263 . S
O366 Tb356 2.325 . S
O366 C376 1.236 . S
O367 Tb357 2.322 . S
O367 C376 1.257 . S
O368 Tb357 2.349 . S
O368 C379 1.261 . S
O369 Tb356 2.303 . S
O369 C379 1.257 . S
O370 Tb357 2.415 . S
O370 C386 1.239 . S
O371 Tb357 2.399 . S
O371 C386 1.263 . S
O372 Tb357 2.325 . S
O372 C387 1.236 . S
O373 Tb356 2.322 . S
O373 C387 1.257 . S
O374 Tb356 2.349 . S
O374 C358 1.261 . S
O375 Tb357 2.303 . S
O375 C358 1.257 . S
C376 O366 1.236 . S
C376 O367 1.257 . S
O377 Tb356 2.415 . S
O377 C365 1.239 . S
O378 Tb356 2.399 . S
O378 C365 1.263 . S
C379 O368 1.261 . S
C379 O369 1.257 . S
C380 C383 1.358 . S
C380 C384 1.332 . S
C380 C386 1.504 . S
C381 C382 1.373 . S
C381 C385 1.308 . S
C382 C381 1.373 . S
C382 C383 1.429 . S
C382 H392 0.932 . S
C383 C380 1.358 . S
C383 C382 1.429 . S
C383 H393 0.930 . S
C384 C380 1.332 . S
C384 C385 1.394 . S
C384 H394 0.932 . S
C385 C381 1.308 . S
C385 C384 1.394 . S
C385 H395 0.929 . S
C386 Tb357 2.764 . S
C386 O370 1.239 . S
C386 O371 1.263 . S
C386 C380 1.504 . S
C387 O372 1.236 . S
C387 O373 1.257 . S
H388 C361 0.932 . S
H389 C362 0.930 . S
H390 C363 0.932 . S
H391 C364 0.929 . S
H392 C382 0.932 . S
H393 C383 0.930 . S
H394 C384 0.932 . S
H395 C385 0.929 . S
Tb396 C405 2.764 . S
Tb396 O406 2.325 . S
Tb396 O409 2.303 . S
Tb396 O413 2.322 . S
Tb396 O414 2.349 . S
Tb396 O417 2.415 . S
Tb396 O418 2.399 . S
Tb397 O407 2.322 . S
Tb397 O408 2.349 . S
Tb397 O410 2.415 . S
Tb397 O411 2.399 . S
Tb397 O412 2.325 . S
Tb397 O415 2.303 . S
Tb397 C426 2.764 . S
C398 O414 1.261 . S
C398 O415 1.257 . S
C399 C402 1.358 . S
C399 C403 1.332 . S
C399 C405 1.504 . S
C400 C401 1.373 . S
C400 C404 1.308 . S
C401 C400 1.373 . S
C401 C402 1.429 . S
C401 H428 0.932 . S
C402 C399 1.358 . S
C402 C401 1.429 . S
C402 H429 0.930 . S
C403 C399 1.332 . S
C403 C404 1.394 . S
C403 H430 0.932 . S
C404 C400 1.308 . S
C404 C403 1.394 . S
C404 H431 0.929 . S
C405 Tb396 2.764 . S
C405 C399 1.504 . S
C405 O417 1.239 . S
C405 O418 1.263 . S
O406 Tb396 2.325 . S
O406 C416 1.236 . S
O407 Tb397 2.322 . S
O407 C416 1.257 . S
O408 Tb397 2.349 . S
O408 C419 1.261 . S
O409 Tb396 2.303 . S
O409 C419 1.257 . S
O410 Tb397 2.415 . S
O410 C426 1.239 . S
O411 Tb397 2.399 . S
O411 C426 1.263 . S
O412 Tb397 2.325 . S
O412 C427 1.236 . S
O413 Tb396 2.322 . S
O413 C427 1.257 . S
O414 Tb396 2.349 . S
O414 C398 1.261 . S
O415 Tb397 2.303 . S
O415 C398 1.257 . S
C416 O406 1.236 . S
C416 O407 1.257 . S
O417 Tb396 2.415 . S
O417 C405 1.239 . S
O418 Tb396 2.399 . S
O418 C405 1.263 . S
C419 O408 1.261 . S
C419 O409 1.257 . S
C420 C423 1.358 . S
C420 C424 1.332 . S
C420 C426 1.504 . S
C421 C422 1.373 . S
C421 C425 1.308 . S
C422 C421 1.373 . S
C422 C423 1.429 . S
C422 H432 0.932 . S
C423 C420 1.358 . S
C423 C422 1.429 . S
C423 H433 0.930 . S
C424 C420 1.332 . S
C424 C425 1.394 . S
C424 H434 0.932 . S
C425 C421 1.308 . S
C425 C424 1.394 . S
C425 H435 0.929 . S
C426 Tb397 2.764 . S
C426 O410 1.239 . S
C426 O411 1.263 . S
C426 C420 1.504 . S
C427 O412 1.236 . S
C427 O413 1.257 . S
H428 C401 0.932 . S
H429 C402 0.930 . S
H430 C403 0.932 . S
H431 C404 0.929 . S
H432 C422 0.932 . S
H433 C423 0.930 . S
H434 C424 0.932 . S
H435 C425 0.929 . S
Tb436 C445 2.764 . S
Tb436 O446 2.325 . S
Tb436 O449 2.303 . S
Tb436 O453 2.322 . S
Tb436 O454 2.349 . S
Tb436 O457 2.415 . S
Tb436 O458 2.399 . S
Tb437 O447 2.322 . S
Tb437 O448 2.349 . S
Tb437 O450 2.415 . S
Tb437 O451 2.399 . S
Tb437 O452 2.325 . S
Tb437 O455 2.303 . S
Tb437 C466 2.764 . S
C438 O454 1.261 . S
C438 O455 1.257 . S
C439 C442 1.358 . S
C439 C443 1.332 . S
C439 C445 1.504 . S
C440 C441 1.373 . S
C440 C444 1.308 . S
C441 C440 1.373 . S
C441 C442 1.429 . S
C441 H468 0.932 . S
C442 C439 1.358 . S
C442 C441 1.429 . S
C442 H469 0.930 . S
C443 C439 1.332 . S
C443 C444 1.394 . S
C443 H470 0.932 . S
C444 C440 1.308 . S
C444 C443 1.394 . S
C444 H471 0.929 . S
C445 Tb436 2.764 . S
C445 C439 1.504 . S
C445 O457 1.239 . S
C445 O458 1.263 . S
O446 Tb436 2.325 . S
O446 C456 1.236 . S
O447 Tb437 2.322 . S
O447 C456 1.257 . S
O448 Tb437 2.349 . S
O448 C459 1.261 . S
O449 Tb436 2.303 . S
O449 C459 1.257 . S
O450 Tb437 2.415 . S
O450 C466 1.239 . S
O451 Tb437 2.399 . S
O451 C466 1.263 . S
O452 Tb437 2.325 . S
O452 C467 1.236 . S
O453 Tb436 2.322 . S
O453 C467 1.257 . S
O454 Tb436 2.349 . S
O454 C438 1.261 . S
O455 Tb437 2.303 . S
O455 C438 1.257 . S
C456 O446 1.236 . S
C456 O447 1.257 . S
O457 Tb436 2.415 . S
O457 C445 1.239 . S
O458 Tb436 2.399 . S
O458 C445 1.263 . S
C459 O448 1.261 . S
C459 O449 1.257 . S
C460 C463 1.358 . S
C460 C464 1.332 . S
C460 C466 1.504 . S
C461 C462 1.373 . S
C461 C465 1.308 . S
C462 C461 1.373 . S
C462 C463 1.429 . S
C462 H472 0.932 . S
C463 C460 1.358 . S
C463 C462 1.429 . S
C463 H473 0.930 . S
C464 C460 1.332 . S
C464 C465 1.394 . S
C464 H474 0.932 . S
C465 C461 1.308 . S
C465 C464 1.394 . S
C465 H475 0.929 . S
C466 Tb437 2.764 . S
C466 O450 1.239 . S
C466 O451 1.263 . S
C466 C460 1.504 . S
C467 O452 1.236 . S
C467 O453 1.257 . S
H468 C441 0.932 . S
H469 C442 0.930 . S
H470 C443 0.932 . S
H471 C444 0.929 . S
H472 C462 0.932 . S
H473 C463 0.930 . S
H474 C464 0.932 . S
H475 C465 0.929 . S
Tb476 C485 2.764 . S
Tb476 O486 2.325 . S
Tb476 O489 2.303 . S
Tb476 O493 2.322 . S
Tb476 O494 2.349 . S
Tb476 O497 2.415 . S
Tb476 O498 2.399 . S
Tb477 O487 2.322 . S
Tb477 O488 2.349 . S
Tb477 O490 2.415 . S
Tb477 O491 2.399 . S
Tb477 O492 2.325 . S
Tb477 O495 2.303 . S
Tb477 C506 2.764 . S
C478 O494 1.261 . S
C478 O495 1.257 . S
C479 C482 1.358 . S
C479 C483 1.332 . S
C479 C485 1.504 . S
C480 C481 1.373 . S
C480 C484 1.308 . S
C481 C480 1.373 . S
C481 C482 1.429 . S
C481 H508 0.932 . S
C482 C479 1.358 . S
C482 C481 1.429 . S
C482 H509 0.930 . S
C483 C479 1.332 . S
C483 C484 1.394 . S
C483 H510 0.932 . S
C484 C480 1.308 . S
C484 C483 1.394 . S
C484 H511 0.929 . S
C485 Tb476 2.764 . S
C485 C479 1.504 . S
C485 O497 1.239 . S
C485 O498 1.263 . S
O486 Tb476 2.325 . S
O486 C496 1.236 . S
O487 Tb477 2.322 . S
O487 C496 1.257 . S
O488 Tb477 2.349 . S
O488 C499 1.261 . S
O489 Tb476 2.303 . S
O489 C499 1.257 . S
O490 Tb477 2.415 . S
O490 C506 1.239 . S
O491 Tb477 2.399 . S
O491 C506 1.263 . S
O492 Tb477 2.325 . S
O492 C507 1.236 . S
O493 Tb476 2.322 . S
O493 C507 1.257 . S
O494 Tb476 2.349 . S
O494 C478 1.261 . S
O495 Tb477 2.303 . S
O495 C478 1.257 . S
C496 O486 1.236 . S
C496 O487 1.257 . S
O497 Tb476 2.415 . S
O497 C485 1.239 . S
O498 Tb476 2.399 . S
O498 C485 1.263 . S
C499 O488 1.261 . S
C499 O489 1.257 . S
C500 C503 1.358 . S
C500 C504 1.332 . S
C500 C506 1.504 . S
C501 C502 1.373 . S
C501 C505 1.308 . S
C502 C501 1.373 . S
C502 C503 1.429 . S
C502 H512 0.932 . S
C503 C500 1.358 . S
C503 C502 1.429 . S
C503 H513 0.930 . S
C504 C500 1.332 . S
C504 C505 1.394 . S
C504 H514 0.932 . S
C505 C501 1.308 . S
C505 C504 1.394 . S
C505 H515 0.929 . S
C506 Tb477 2.764 . S
C506 O490 1.239 . S
C506 O491 1.263 . S
C506 C500 1.504 . S
C507 O492 1.236 . S
C507 O493 1.257 . S
H508 C481 0.932 . S
H509 C482 0.930 . S
H510 C483 0.932 . S
H511 C484 0.929 . S
H512 C502 0.932 . S
H513 C503 0.930 . S
H514 C504 0.932 . S
H515 C505 0.929 . S
Tb516 C525 2.764 . S
Tb516 O526 2.325 . S
Tb516 O529 2.303 . S
Tb516 O533 2.322 . S
Tb516 O534 2.349 . S
Tb516 O537 2.415 . S
Tb516 O538 2.399 . S
Tb517 O527 2.322 . S
Tb517 O528 2.349 . S
Tb517 O530 2.415 . S
Tb517 O531 2.399 . S
Tb517 O532 2.325 . S
Tb517 O535 2.303 . S
Tb517 C546 2.764 . S
C518 O534 1.261 . S
C518 O535 1.257 . S
C519 C522 1.358 . S
C519 C523 1.332 . S
C519 C525 1.504 . S
C520 C521 1.373 . S
C520 C524 1.308 . S
C521 C520 1.373 . S
C521 C522 1.429 . S
C521 H548 0.932 . S
C522 C519 1.358 . S
C522 C521 1.429 . S
C522 H549 0.930 . S
C523 C519 1.332 . S
C523 C524 1.394 . S
C523 H550 0.932 . S
C524 C520 1.308 . S
C524 C523 1.394 . S
C524 H551 0.929 . S
C525 Tb516 2.764 . S
C525 C519 1.504 . S
C525 O537 1.239 . S
C525 O538 1.263 . S
O526 Tb516 2.325 . S
O526 C536 1.236 . S
O527 Tb517 2.322 . S
O527 C536 1.257 . S
O528 Tb517 2.349 . S
O528 C539 1.261 . S
O529 Tb516 2.303 . S
O529 C539 1.257 . S
O530 Tb517 2.415 . S
O530 C546 1.239 . S
O531 Tb517 2.399 . S
O531 C546 1.263 . S
O532 Tb517 2.325 . S
O532 C547 1.236 . S
O533 Tb516 2.322 . S
O533 C547 1.257 . S
O534 Tb516 2.349 . S
O534 C518 1.261 . S
O535 Tb517 2.303 . S
O535 C518 1.257 . S
C536 O526 1.236 . S
C536 O527 1.257 . S
O537 Tb516 2.415 . S
O537 C525 1.239 . S
O538 Tb516 2.399 . S
O538 C525 1.263 . S
C539 O528 1.261 . S
C539 O529 1.257 . S
C540 C543 1.358 . S
C540 C544 1.332 . S
C540 C546 1.504 . S
C541 C542 1.373 . S
C541 C545 1.308 . S
C542 C541 1.373 . S
C542 C543 1.429 . S
C542 H552 0.932 . S
C543 C540 1.358 . S
C543 C542 1.429 . S
C543 H553 0.930 . S
C544 C540 1.332 . S
C544 C545 1.394 . S
C544 H554 0.932 . S
C545 C541 1.308 . S
C545 C544 1.394 . S
C545 H555 0.929 . S
C546 Tb517 2.764 . S
C546 O530 1.239 . S
C546 O531 1.263 . S
C546 C540 1.504 . S
C547 O532 1.236 . S
C547 O533 1.257 . S
H548 C521 0.932 . S
H549 C522 0.930 . S
H550 C523 0.932 . S
H551 C524 0.929 . S
H552 C542 0.932 . S
H553 C543 0.930 . S
H554 C544 0.932 . S
H555 C545 0.929 . S
Tb556 C565 2.764 . S
Tb556 O566 2.325 . S
Tb556 O569 2.303 . S
Tb556 O573 2.322 . S
Tb556 O574 2.349 . S
Tb556 O577 2.415 . S
Tb556 O578 2.399 . S
Tb557 O567 2.322 . S
Tb557 O568 2.349 . S
Tb557 O570 2.415 . S
Tb557 O571 2.399 . S
Tb557 O572 2.325 . S
Tb557 O575 2.303 . S
Tb557 C586 2.764 . S
C558 O574 1.261 . S
C558 O575 1.257 . S
C559 C562 1.358 . S
C559 C563 1.332 . S
C559 C565 1.504 . S
C560 C561 1.373 . S
C560 C564 1.308 . S
C561 C560 1.373 . S
C561 C562 1.429 . S
C561 H588 0.932 . S
C562 C559 1.358 . S
C562 C561 1.429 . S
C562 H589 0.930 . S
C563 C559 1.332 . S
C563 C564 1.394 . S
C563 H590 0.932 . S
C564 C560 1.308 . S
C564 C563 1.394 . S
C564 H591 0.929 . S
C565 Tb556 2.764 . S
C565 C559 1.504 . S
C565 O577 1.239 . S
C565 O578 1.263 . S
O566 Tb556 2.325 . S
O566 C576 1.236 . S
O567 Tb557 2.322 . S
O567 C576 1.257 . S
O568 Tb557 2.349 . S
O568 C579 1.261 . S
O569 Tb556 2.303 . S
O569 C579 1.257 . S
O570 Tb557 2.415 . S
O570 C586 1.239 . S
O571 Tb557 2.399 . S
O571 C586 1.263 . S
O572 Tb557 2.325 . S
O572 C587 1.236 . S
O573 Tb556 2.322 . S
O573 C587 1.257 . S
O574 Tb556 2.349 . S
O574 C558 1.261 . S
O575 Tb557 2.303 . S
O575 C558 1.257 . S
C576 O566 1.236 . S
C576 O567 1.257 . S
O577 Tb556 2.415 . S
O577 C565 1.239 . S
O578 Tb556 2.399 . S
O578 C565 1.263 . S
C579 O568 1.261 . S
C579 O569 1.257 . S
C580 C583 1.358 . S
C580 C584 1.332 . S
C580 C586 1.504 . S
C581 C582 1.373 . S
C581 C585 1.308 . S
C582 C581 1.373 . S
C582 C583 1.429 . S
C582 H592 0.932 . S
C583 C580 1.358 . S
C583 C582 1.429 . S
C583 H593 0.930 . S
C584 C580 1.332 . S
C584 C585 1.394 . S
C584 H594 0.932 . S
C585 C581 1.308 . S
C585 C584 1.394 . S
C585 H595 0.929 . S
C586 Tb557 2.764 . S
C586 O570 1.239 . S
C586 O571 1.263 . S
C586 C580 1.504 . S
C587 O572 1.236 . S
C587 O573 1.257 . S
H588 C561 0.932 . S
H589 C562 0.930 . S
H590 C563 0.932 . S
H591 C564 0.929 . S
H592 C582 0.932 . S
H593 C583 0.930 . S
H594 C584 0.932 . S
H595 C585 0.929 . S
H596 C614 0.951 . S
H597 C616 0.951 . S
H598 C618 0.950 . S
H599 C619 0.950 . S
H600 C621 0.950 . S
H601 C624 0.950 . S
H602 C625 0.950 . S
H603 C627 0.950 . S
H604 C628 0.950 . S
H605 C629 0.951 . S
H606 C631 0.951 . S
H607 C633 0.950 . S
H608 C634 0.950 . S
H609 C636 0.950 . S
H610 C639 0.950 . S
H611 C640 0.950 . S
H612 C642 0.950 . S
H613 C643 0.950 . S
C614 H596 0.951 . S
C614 C615 1.366 . S
C614 C616 1.388 . S
C615 C614 1.366 . S
C615 C619 1.385 . S
C616 H597 0.951 . S
C616 C614 1.388 . S
C616 C617 1.366 . S
C617 C616 1.366 . S
C617 C618 1.414 . S
C617 C620 1.499 . S
C618 H598 0.950 . S
C618 C617 1.414 . S
C618 C619 1.374 . S
C619 H599 0.950 . S
C619 C615 1.385 . S
C619 C618 1.374 . S
C620 C617 1.499 . S
C620 C621 1.373 . S
C620 C622 1.389 . S
C621 H600 0.950 . S
C621 C620 1.373 . S
C621 C637 1.377 . S
C622 C620 1.389 . S
C622 C623 1.524 . S
C622 C636 1.377 . S
C623 C622 1.524 . S
C623 C624 1.397 . S
C623 C628 1.363 . S
C624 H601 0.950 . S
C624 C623 1.397 . S
C624 C625 1.334 . S
C625 H602 0.950 . S
C625 C624 1.334 . S
C625 C626 1.287 . S
C626 C625 1.287 . S
C626 C627 1.524 . S
C626 H645 0.913 . S
C627 H603 0.950 . S
C627 C626 1.524 . S
C627 C628 1.415 . S
C628 H604 0.950 . S
C628 C623 1.363 . S
C628 C627 1.415 . S
C629 H605 0.951 . S
C629 C630 1.366 . S
C629 C631 1.388 . S
C630 C629 1.366 . S
C630 C634 1.385 . S
C631 H606 0.951 . S
C631 C629 1.388 . S
C631 C632 1.366 . S
C632 C631 1.366 . S
C632 C633 1.414 . S
C632 C635 1.499 . S
C633 H607 0.950 . S
C633 C632 1.414 . S
C633 C634 1.374 . S
C634 H608 0.950 . S
C634 C630 1.385 . S
C634 C633 1.374 . S
C635 C632 1.499 . S
C635 C636 1.373 . S
C635 C637 1.389 . S
C636 H609 0.950 . S
C636 C622 1.377 . S
C636 C635 1.373 . S
C637 C621 1.377 . S
C637 C635 1.389 . S
C637 C638 1.524 . S
C638 C637 1.524 . S
C638 C639 1.397 . S
C638 C643 1.363 . S
C639 H610 0.950 . S
C639 C638 1.397 . S
C639 C640 1.334 . S
C640 H611 0.950 . S
C640 C639 1.334 . S
C640 C641 1.287 . S
C641 C640 1.287 . S
C641 C642 1.524 . S
C641 H644 0.999 . S
C642 H612 0.950 . S
C642 C641 1.524 . S
C642 C643 1.415 . S
C643 H613 0.950 . S
C643 C638 1.363 . S
C643 C642 1.415 . S
H644 C641 0.999 . S
H645 C626 0.913 . S
H646 C664 0.951 . S
H647 C666 0.951 . S
H648 C668 0.950 . S
H649 C669 0.950 . S
H650 C671 0.950 . S
H651 C674 0.950 . S
H652 C675 0.950 . S
H653 C677 0.950 . S
H654 C678 0.950 . S
H655 C679 0.951 . S
H656 C681 0.951 . S
H657 C683 0.950 . S
H658 C684 0.950 . S
H659 C686 0.950 . S
H660 C689 0.950 . S
H661 C690 0.950 . S
H662 C692 0.950 . S
H663 C693 0.950 . S
C664 H646 0.951 . S
C664 C665 1.366 . S
C664 C666 1.388 . S
C665 C664 1.366 . S
C665 C669 1.385 . S
C666 H647 0.951 . S
C666 C664 1.388 . S
C666 C667 1.366 . S
C667 C666 1.366 . S
C667 C668 1.414 . S
C667 C670 1.499 . S
C668 H648 0.950 . S
C668 C667 1.414 . S
C668 C669 1.374 . S
C669 H649 0.950 . S
C669 C665 1.385 . S
C669 C668 1.374 . S
C670 C667 1.499 . S
C670 C671 1.373 . S
C670 C672 1.389 . S
C671 H650 0.950 . S
C671 C670 1.373 . S
C671 C687 1.377 . S
C672 C670 1.389 . S
C672 C673 1.524 . S
C672 C686 1.377 . S
C673 C672 1.524 . S
C673 C674 1.397 . S
C673 C678 1.363 . S
C674 H651 0.950 . S
C674 C673 1.397 . S
C674 C675 1.334 . S
C675 H652 0.950 . S
C675 C674 1.334 . S
C675 C676 1.287 . S
C676 C675 1.287 . S
C676 C677 1.524 . S
C676 H695 0.913 . S
C677 H653 0.950 . S
C677 C676 1.524 . S
C677 C678 1.415 . S
C678 H654 0.950 . S
C678 C673 1.363 . S
C678 C677 1.415 . S
C679 H655 0.951 . S
C679 C680 1.366 . S
C679 C681 1.388 . S
C680 C679 1.366 . S
C680 C684 1.385 . S
C681 H656 0.951 . S
C681 C679 1.388 . S
C681 C682 1.366 . S
C682 C681 1.366 . S
C682 C683 1.414 . S
C682 C685 1.499 . S
C683 H657 0.950 . S
C683 C682 1.414 . S
C683 C684 1.374 . S
C684 H658 0.950 . S
C684 C680 1.385 . S
C684 C683 1.374 . S
C685 C682 1.499 . S
C685 C686 1.373 . S
C685 C687 1.389 . S
C686 H659 0.950 . S
C686 C672 1.377 . S
C686 C685 1.373 . S
C687 C671 1.377 . S
C687 C685 1.389 . S
C687 C688 1.524 . S
C688 C687 1.524 . S
C688 C689 1.397 . S
C688 C693 1.363 . S
C689 H660 0.950 . S
C689 C688 1.397 . S
C689 C690 1.334 . S
C690 H661 0.950 . S
C690 C689 1.334 . S
C690 C691 1.287 . S
C691 C690 1.287 . S
C691 C692 1.524 . S
C691 H694 0.999 . S
C692 H662 0.950 . S
C692 C691 1.524 . S
C692 C693 1.415 . S
C693 H663 0.950 . S
C693 C688 1.363 . S
C693 C692 1.415 . S
H694 C691 0.999 . S
H695 C676 0.913 . S
H696 C714 0.951 . S
H697 C716 0.951 . S
H698 C718 0.950 . S
H699 C719 0.950 . S
H700 C721 0.950 . S
H701 C724 0.950 . S
H702 C725 0.950 . S
H703 C727 0.950 . S
H704 C728 0.950 . S
H705 C729 0.951 . S
H706 C731 0.951 . S
H707 C733 0.950 . S
H708 C734 0.950 . S
H709 C736 0.950 . S
H710 C739 0.950 . S
H711 C740 0.950 . S
H712 C742 0.950 . S
H713 C743 0.950 . S
C714 H696 0.951 . S
C714 C715 1.366 . S
C714 C716 1.388 . S
C715 C714 1.366 . S
C715 C719 1.385 . S
C716 H697 0.951 . S
C716 C714 1.388 . S
C716 C717 1.366 . S
C717 C716 1.366 . S
C717 C718 1.414 . S
C717 C720 1.499 . S
C718 H698 0.950 . S
C718 C717 1.414 . S
C718 C719 1.374 . S
C719 H699 0.950 . S
C719 C715 1.385 . S
C719 C718 1.374 . S
C720 C717 1.499 . S
C720 C721 1.373 . S
C720 C722 1.389 . S
C721 H700 0.950 . S
C721 C720 1.373 . S
C721 C737 1.377 . S
C722 C720 1.389 . S
C722 C723 1.524 . S
C722 C736 1.377 . S
C723 C722 1.524 . S
C723 C724 1.397 . S
C723 C728 1.363 . S
C724 H701 0.950 . S
C724 C723 1.397 . S
C724 C725 1.334 . S
C725 H702 0.950 . S
C725 C724 1.334 . S
C725 C726 1.287 . S
C726 C725 1.287 . S
C726 C727 1.524 . S
C726 H745 0.913 . S
C727 H703 0.950 . S
C727 C726 1.524 . S
C727 C728 1.415 . S
C728 H704 0.950 . S
C728 C723 1.363 . S
C728 C727 1.415 . S
C729 H705 0.951 . S
C729 C730 1.366 . S
C729 C731 1.388 . S
C730 C729 1.366 . S
C730 C734 1.385 . S
C731 H706 0.951 . S
C731 C729 1.388 . S
C731 C732 1.366 . S
C732 C731 1.366 . S
C732 C733 1.414 . S
C732 C735 1.499 . S
C733 H707 0.950 . S
C733 C732 1.414 . S
C733 C734 1.374 . S
C734 H708 0.950 . S
C734 C730 1.385 . S
C734 C733 1.374 . S
C735 C732 1.499 . S
C735 C736 1.373 . S
C735 C737 1.389 . S
C736 H709 0.950 . S
C736 C722 1.377 . S
C736 C735 1.373 . S
C737 C721 1.377 . S
C737 C735 1.389 . S
C737 C738 1.524 . S
C738 C737 1.524 . S
C738 C739 1.397 . S
C738 C743 1.363 . S
C739 H710 0.950 . S
C739 C738 1.397 . S
C739 C740 1.334 . S
C740 H711 0.950 . S
C740 C739 1.334 . S
C740 C741 1.287 . S
C741 C740 1.287 . S
C741 C742 1.524 . S
C741 H744 0.999 . S
C742 H712 0.950 . S
C742 C741 1.524 . S
C742 C743 1.415 . S
C743 H713 0.950 . S
C743 C738 1.363 . S
C743 C742 1.415 . S
H744 C741 0.999 . S
H745 C726 0.913 . S
H746 C764 0.951 . S
H747 C766 0.951 . S
H748 C768 0.950 . S
H749 C769 0.950 . S
H750 C771 0.950 . S
H751 C774 0.950 . S
H752 C775 0.950 . S
H753 C777 0.950 . S
H754 C778 0.950 . S
H755 C779 0.951 . S
H756 C781 0.951 . S
H757 C783 0.950 . S
H758 C784 0.950 . S
H759 C786 0.950 . S
H760 C789 0.950 . S
H761 C790 0.950 . S
H762 C792 0.950 . S
H763 C793 0.950 . S
C764 H746 0.951 . S
C764 C765 1.366 . S
C764 C766 1.388 . S
C765 C764 1.366 . S
C765 C769 1.385 . S
C766 H747 0.951 . S
C766 C764 1.388 . S
C766 C767 1.366 . S
C767 C766 1.366 . S
C767 C768 1.414 . S
C767 C770 1.499 . S
C768 H748 0.950 . S
C768 C767 1.414 . S
C768 C769 1.374 . S
C769 H749 0.950 . S
C769 C765 1.385 . S
C769 C768 1.374 . S
C770 C767 1.499 . S
C770 C771 1.373 . S
C770 C772 1.389 . S
C771 H750 0.950 . S
C771 C770 1.373 . S
C771 C787 1.377 . S
C772 C770 1.389 . S
C772 C773 1.524 . S
C772 C786 1.377 . S
C773 C772 1.524 . S
C773 C774 1.397 . S
C773 C778 1.363 . S
C774 H751 0.950 . S
C774 C773 1.397 . S
C774 C775 1.334 . S
C775 H752 0.950 . S
C775 C774 1.334 . S
C775 C776 1.287 . S
C776 C775 1.287 . S
C776 C777 1.524 . S
C776 H795 0.913 . S
C777 H753 0.950 . S
C777 C776 1.524 . S
C777 C778 1.415 . S
C778 H754 0.950 . S
C778 C773 1.363 . S
C778 C777 1.415 . S
C779 H755 0.951 . S
C779 C780 1.366 . S
C779 C781 1.388 . S
C780 C779 1.366 . S
C780 C784 1.385 . S
C781 H756 0.951 . S
C781 C779 1.388 . S
C781 C782 1.366 . S
C782 C781 1.366 . S
C782 C783 1.414 . S
C782 C785 1.499 . S
C783 H757 0.950 . S
C783 C782 1.414 . S
C783 C784 1.374 . S
C784 H758 0.950 . S
C784 C780 1.385 . S
C784 C783 1.374 . S
C785 C782 1.499 . S
C785 C786 1.373 . S
C785 C787 1.389 . S
C786 H759 0.950 . S
C786 C772 1.377 . S
C786 C785 1.373 . S
C787 C771 1.377 . S
C787 C785 1.389 . S
C787 C788 1.524 . S
C788 C787 1.524 . S
C788 C789 1.397 . S
C788 C793 1.363 . S
C789 H760 0.950 . S
C789 C788 1.397 . S
C789 C790 1.334 . S
C790 H761 0.950 . S
C790 C789 1.334 . S
C790 C791 1.287 . S
C791 C790 1.287 . S
C791 C792 1.524 . S
C791 H794 0.999 . S
C792 H762 0.950 . S
C792 C791 1.524 . S
C792 C793 1.415 . S
C793 H763 0.950 . S
C793 C788 1.363 . S
C793 C792 1.415 . S
H794 C791 0.999 . S
H795 C776 0.913 . S
H796 C814 0.951 . S
H797 C816 0.951 . S
H798 C818 0.950 . S
H799 C819 0.950 . S
H800 C821 0.950 . S
H801 C824 0.950 . S
H802 C825 0.950 . S
H803 C827 0.950 . S
H804 C828 0.950 . S
H805 C829 0.951 . S
H806 C831 0.951 . S
H807 C833 0.950 . S
H808 C834 0.950 . S
H809 C836 0.950 . S
H810 C839 0.950 . S
H811 C840 0.950 . S
H812 C842 0.950 . S
H813 C843 0.950 . S
C814 H796 0.951 . S
C814 C815 1.366 . S
C814 C816 1.388 . S
C815 C814 1.366 . S
C815 C819 1.385 . S
C816 H797 0.951 . S
C816 C814 1.388 . S
C816 C817 1.366 . S
C817 C816 1.366 . S
C817 C818 1.414 . S
C817 C820 1.499 . S
C818 H798 0.950 . S
C818 C817 1.414 . S
C818 C819 1.374 . S
C819 H799 0.950 . S
C819 C815 1.385 . S
C819 C818 1.374 . S
C820 C817 1.499 . S
C820 C821 1.373 . S
C820 C822 1.389 . S
C821 H800 0.950 . S
C821 C820 1.373 . S
C821 C837 1.377 . S
C822 C820 1.389 . S
C822 C823 1.524 . S
C822 C836 1.377 . S
C823 C822 1.524 . S
C823 C824 1.397 . S
C823 C828 1.363 . S
C824 H801 0.950 . S
C824 C823 1.397 . S
C824 C825 1.334 . S
C825 H802 0.950 . S
C825 C824 1.334 . S
C825 C826 1.287 . S
C826 C825 1.287 . S
C826 C827 1.524 . S
C826 H845 0.913 . S
C827 H803 0.950 . S
C827 C826 1.524 . S
C827 C828 1.415 . S
C828 H804 0.950 . S
C828 C823 1.363 . S
C828 C827 1.415 . S
C829 H805 0.951 . S
C829 C830 1.366 . S
C829 C831 1.388 . S
C830 C829 1.366 . S
C830 C834 1.385 . S
C831 H806 0.951 . S
C831 C829 1.388 . S
C831 C832 1.366 . S
C832 C831 1.366 . S
C832 C833 1.414 . S
C832 C835 1.499 . S
C833 H807 0.950 . S
C833 C832 1.414 . S
C833 C834 1.374 . S
C834 H808 0.950 . S
C834 C830 1.385 . S
C834 C833 1.374 . S
C835 C832 1.499 . S
C835 C836 1.373 . S
C835 C837 1.389 . S
C836 H809 0.950 . S
C836 C822 1.377 . S
C836 C835 1.373 . S
C837 C821 1.377 . S
C837 C835 1.389 . S
C837 C838 1.524 . S
C838 C837 1.524 . S
C838 C839 1.397 . S
C838 C843 1.363 . S
C839 H810 0.950 . S
C839 C838 1.397 . S
C839 C840 1.334 . S
C840 H811 0.950 . S
C840 C839 1.334 . S
C840 C841 1.287 . S
C841 C840 1.287 . S
C841 C842 1.524 . S
C841 H844 0.999 . S
C842 H812 0.950 . S
C842 C841 1.524 . S
C842 C843 1.415 . S
C843 H813 0.950 . S
C843 C838 1.363 . S
C843 C842 1.415 . S
H844 C841 0.999 . S
H845 C826 0.913 . S
H846 C864 0.951 . S
H847 C866 0.951 . S
H848 C868 0.950 . S
H849 C869 0.950 . S
H850 C871 0.950 . S
H851 C874 0.950 . S
H852 C875 0.950 . S
H853 C877 0.950 . S
H854 C878 0.950 . S
H855 C879 0.951 . S
H856 C881 0.951 . S
H857 C883 0.950 . S
H858 C884 0.950 . S
H859 C886 0.950 . S
H860 C889 0.950 . S
H861 C890 0.950 . S
H862 C892 0.950 . S
H863 C893 0.950 . S
C864 H846 0.951 . S
C864 C865 1.366 . S
C864 C866 1.388 . S
C865 C864 1.366 . S
C865 C869 1.385 . S
C866 H847 0.951 . S
C866 C864 1.388 . S
C866 C867 1.366 . S
C867 C866 1.366 . S
C867 C868 1.414 . S
C867 C870 1.499 . S
C868 H848 0.950 . S
C868 C867 1.414 . S
C868 C869 1.374 . S
C869 H849 0.950 . S
C869 C865 1.385 . S
C869 C868 1.374 . S
C870 C867 1.499 . S
C870 C871 1.373 . S
C870 C872 1.389 . S
C871 H850 0.950 . S
C871 C870 1.373 . S
C871 C887 1.377 . S
C872 C870 1.389 . S
C872 C873 1.524 . S
C872 C886 1.377 . S
C873 C872 1.524 . S
C873 C874 1.397 . S
C873 C878 1.363 . S
C874 H851 0.950 . S
C874 C873 1.397 . S
C874 C875 1.334 . S
C875 H852 0.950 . S
C875 C874 1.334 . S
C875 C876 1.287 . S
C876 C875 1.287 . S
C876 C877 1.524 . S
C876 H895 0.913 . S
C877 H853 0.950 . S
C877 C876 1.524 . S
C877 C878 1.415 . S
C878 H854 0.950 . S
C878 C873 1.363 . S
C878 C877 1.415 . S
C879 H855 0.951 . S
C879 C880 1.366 . S
C879 C881 1.388 . S
C880 C879 1.366 . S
C880 C884 1.385 . S
C881 H856 0.951 . S
C881 C879 1.388 . S
C881 C882 1.366 . S
C882 C881 1.366 . S
C882 C883 1.414 . S
C882 C885 1.499 . S
C883 H857 0.950 . S
C883 C882 1.414 . S
C883 C884 1.374 . S
C884 H858 0.950 . S
C884 C880 1.385 . S
C884 C883 1.374 . S
C885 C882 1.499 . S
C885 C886 1.373 . S
C885 C887 1.389 . S
C886 H859 0.950 . S
C886 C872 1.377 . S
C886 C885 1.373 . S
C887 C871 1.377 . S
C887 C885 1.389 . S
C887 C888 1.524 . S
C888 C887 1.524 . S
C888 C889 1.397 . S
C888 C893 1.363 . S
C889 H860 0.950 . S
C889 C888 1.397 . S
C889 C890 1.334 . S
C890 H861 0.950 . S
C890 C889 1.334 . S
C890 C891 1.287 . S
C891 C890 1.287 . S
C891 C892 1.524 . S
C891 H894 0.999 . S
C892 H862 0.950 . S
C892 C891 1.524 . S
C892 C893 1.415 . S
C893 H863 0.950 . S
C893 C888 1.363 . S
C893 C892 1.415 . S
H894 C891 0.999 . S
H895 C876 0.913 . S
H896 C914 0.951 . S
H897 C916 0.951 . S
H898 C918 0.950 . S
H899 C919 0.950 . S
H900 C921 0.950 . S
H901 C924 0.950 . S
H902 C925 0.950 . S
H903 C927 0.950 . S
H904 C928 0.950 . S
H905 C929 0.951 . S
H906 C931 0.951 . S
H907 C933 0.950 . S
H908 C934 0.950 . S
H909 C936 0.950 . S
H910 C939 0.950 . S
H911 C940 0.950 . S
H912 C942 0.950 . S
H913 C943 0.950 . S
C914 H896 0.951 . S
C914 C915 1.366 . S
C914 C916 1.388 . S
C915 C914 1.366 . S
C915 C919 1.385 . S
C916 H897 0.951 . S
C916 C914 1.388 . S
C916 C917 1.366 . S
C917 C916 1.366 . S
C917 C918 1.414 . S
C917 C920 1.499 . S
C918 H898 0.950 . S
C918 C917 1.414 . S
C918 C919 1.374 . S
C919 H899 0.950 . S
C919 C915 1.385 . S
C919 C918 1.374 . S
C920 C917 1.499 . S
C920 C921 1.373 . S
C920 C922 1.389 . S
C921 H900 0.950 . S
C921 C920 1.373 . S
C921 C937 1.377 . S
C922 C920 1.389 . S
C922 C923 1.524 . S
C922 C936 1.377 . S
C923 C922 1.524 . S
C923 C924 1.397 . S
C923 C928 1.363 . S
C924 H901 0.950 . S
C924 C923 1.397 . S
C924 C925 1.334 . S
C925 H902 0.950 . S
C925 C924 1.334 . S
C925 C926 1.287 . S
C926 C925 1.287 . S
C926 C927 1.524 . S
C926 H945 0.913 . S
C927 H903 0.950 . S
C927 C926 1.524 . S
C927 C928 1.415 . S
C928 H904 0.950 . S
C928 C923 1.363 . S
C928 C927 1.415 . S
C929 H905 0.951 . S
C929 C930 1.366 . S
C929 C931 1.388 . S
C930 C929 1.366 . S
C930 C934 1.385 . S
C931 H906 0.951 . S
C931 C929 1.388 . S
C931 C932 1.366 . S
C932 C931 1.366 . S
C932 C933 1.414 . S
C932 C935 1.499 . S
C933 H907 0.950 . S
C933 C932 1.414 . S
C933 C934 1.374 . S
C934 H908 0.950 . S
C934 C930 1.385 . S
C934 C933 1.374 . S
C935 C932 1.499 . S
C935 C936 1.373 . S
C935 C937 1.389 . S
C936 H909 0.950 . S
C936 C922 1.377 . S
C936 C935 1.373 . S
C937 C921 1.377 . S
C937 C935 1.389 . S
C937 C938 1.524 . S
C938 C937 1.524 . S
C938 C939 1.397 . S
C938 C943 1.363 . S
C939 H910 0.950 . S
C939 C938 1.397 . S
C939 C940 1.334 . S
C940 H911 0.950 . S
C940 C939 1.334 . S
C940 C941 1.287 . S
C941 C940 1.287 . S
C941 C942 1.524 . S
C941 H944 0.999 . S
C942 H912 0.950 . S
C942 C941 1.524 . S
C942 C943 1.415 . S
C943 H913 0.950 . S
C943 C938 1.363 . S
C943 C942 1.415 . S
H944 C941 0.999 . S
H945 C926 0.913 . S
H946 C964 0.951 . S
H947 C966 0.951 . S
H948 C968 0.950 . S
H949 C969 0.950 1_545 S
H950 C971 0.950 . S
H951 C974 0.950 . S
H952 C975 0.950 . S
H953 C977 0.950 . S
H954 C978 0.950 . S
H955 C979 0.951 . S
H956 C981 0.951 . S
H957 C983 0.950 . S
H958 C984 0.950 . S
H959 C986 0.950 . S
H960 C989 0.950 . S
H961 C990 0.950 . S
H962 C992 0.950 1_545 S
H963 C993 0.950 . S
C964 H946 0.951 . S
C964 C965 1.366 . S
C964 C966 1.388 . S
C965 C964 1.366 . S
C965 C969 1.385 . S
C966 H947 0.951 . S
C966 C964 1.388 . S
C966 C967 1.366 . S
C967 C966 1.366 . S
C967 C968 1.414 . S
C967 C970 1.499 . S
C968 H948 0.950 . S
C968 C967 1.414 . S
C968 C969 1.374 . S
C969 H949 0.950 1_565 S
C969 C965 1.385 . S
C969 C968 1.374 . S
C970 C967 1.499 . S
C970 C971 1.373 . S
C970 C972 1.389 . S
C971 H950 0.950 . S
C971 C970 1.373 . S
C971 C987 1.377 . S
C972 C970 1.389 . S
C972 C973 1.524 . S
C972 C986 1.377 . S
C973 C972 1.524 . S
C973 C974 1.397 . S
C973 C978 1.363 . S
C974 H951 0.950 . S
C974 C973 1.397 . S
C974 C975 1.334 . S
C975 H952 0.950 . S
C975 C974 1.334 . S
C975 C976 1.287 . S
C976 C975 1.287 . S
C976 C977 1.524 . S
C976 H995 0.913 . S
C977 H953 0.950 . S
C977 C976 1.524 . S
C977 C978 1.415 . S
C978 H954 0.950 . S
C978 C973 1.363 . S
C978 C977 1.415 . S
C979 H955 0.951 . S
C979 C980 1.366 . S
C979 C981 1.388 . S
C980 C979 1.366 . S
C980 C984 1.385 . S
C981 H956 0.951 . S
C981 C979 1.388 . S
C981 C982 1.366 . S
C982 C981 1.366 . S
C982 C983 1.414 . S
C982 C985 1.499 . S
C983 H957 0.950 . S
C983 C982 1.414 . S
C983 C984 1.374 . S
C984 H958 0.950 . S
C984 C980 1.385 . S
C984 C983 1.374 . S
C985 C982 1.499 . S
C985 C986 1.373 . S
C985 C987 1.389 . S
C986 H959 0.950 . S
C986 C972 1.377 . S
C986 C985 1.373 . S
C987 C971 1.377 . S
C987 C985 1.389 . S
C987 C988 1.524 . S
C988 C987 1.524 . S
C988 C989 1.397 . S
C988 C993 1.363 . S
C989 H960 0.950 . S
C989 C988 1.397 . S
C989 C990 1.334 . S
C990 H961 0.950 . S
C990 C989 1.334 . S
C990 C991 1.287 . S
C991 C990 1.287 . S
C991 C992 1.524 . S
C991 H994 0.999 . S
C992 H962 0.950 1_565 S
C992 C991 1.524 . S
C992 C993 1.415 . S
C993 H963 0.950 . S
C993 C988 1.363 . S
C993 C992 1.415 . S
H994 C991 0.999 . S
H995 C976 0.913 . S
H996 C1014 0.951 . S
H997 C1016 0.951 . S
H998 C1018 0.950 . S
H999 C1019 0.950 . S
H1000 C1021 0.950 . S
H1001 C1024 0.950 . S
H1002 C1025 0.950 . S
H1003 C1027 0.950 . S
H1004 C1028 0.950 . S
H1005 C1029 0.951 . S
H1006 C1031 0.951 . S
H1007 C1033 0.950 . S
H1008 C1034 0.950 . S
H1009 C1036 0.950 . S
H1010 C1039 0.950 . S
H1011 C1040 0.950 . S
H1012 C1042 0.950 . S
H1013 C1043 0.950 . S
C1014 H996 0.951 . S
C1014 C1015 1.366 . S
C1014 C1016 1.388 . S
C1015 C1014 1.366 . S
C1015 C1019 1.385 . S
C1016 H997 0.951 . S
C1016 C1014 1.388 . S
C1016 C1017 1.366 . S
C1017 C1016 1.366 . S
C1017 C1018 1.414 . S
C1017 C1020 1.499 . S
C1018 H998 0.950 . S
C1018 C1017 1.414 . S
C1018 C1019 1.374 . S
C1019 H999 0.950 . S
C1019 C1015 1.385 . S
C1019 C1018 1.374 . S
C1020 C1017 1.499 . S
C1020 C1021 1.373 . S
C1020 C1022 1.389 . S
C1021 H1000 0.950 . S
C1021 C1020 1.373 . S
C1021 C1037 1.377 . S
C1022 C1020 1.389 . S
C1022 C1023 1.524 . S
C1022 C1036 1.377 . S
C1023 C1022 1.524 . S
C1023 C1024 1.397 . S
C1023 C1028 1.363 . S
C1024 H1001 0.950 . S
C1024 C1023 1.397 . S
C1024 C1025 1.334 . S
C1025 H1002 0.950 . S
C1025 C1024 1.334 . S
C1025 C1026 1.287 . S
C1026 C1025 1.287 . S
C1026 C1027 1.524 . S
C1026 H1045 0.913 . S
C1027 H1003 0.950 . S
C1027 C1026 1.524 . S
C1027 C1028 1.415 . S
C1028 H1004 0.950 . S
C1028 C1023 1.363 . S
C1028 C1027 1.415 . S
C1029 H1005 0.951 . S
C1029 C1030 1.366 . S
C1029 C1031 1.388 . S
C1030 C1029 1.366 . S
C1030 C1034 1.385 . S
C1031 H1006 0.951 . S
C1031 C1029 1.388 . S
C1031 C1032 1.366 . S
C1032 C1031 1.366 . S
C1032 C1033 1.414 . S
C1032 C1035 1.499 . S
C1033 H1007 0.950 . S
C1033 C1032 1.414 . S
C1033 C1034 1.374 . S
C1034 H1008 0.950 . S
C1034 C1030 1.385 . S
C1034 C1033 1.374 . S
C1035 C1032 1.499 . S
C1035 C1036 1.373 . S
C1035 C1037 1.389 . S
C1036 H1009 0.950 . S
C1036 C1022 1.377 . S
C1036 C1035 1.373 . S
C1037 C1021 1.377 . S
C1037 C1035 1.389 . S
C1037 C1038 1.524 . S
C1038 C1037 1.524 . S
C1038 C1039 1.397 . S
C1038 C1043 1.363 . S
C1039 H1010 0.950 . S
C1039 C1038 1.397 . S
C1039 C1040 1.334 . S
C1040 H1011 0.950 . S
C1040 C1039 1.334 . S
C1040 C1041 1.287 . S
C1041 C1040 1.287 . S
C1041 C1042 1.524 . S
C1041 H1044 0.999 . S
C1042 H1012 0.950 . S
C1042 C1041 1.524 . S
C1042 C1043 1.415 . S
C1043 H1013 0.950 . S
C1043 C1038 1.363 . S
C1043 C1042 1.415 . S
H1044 C1041 0.999 . S
H1045 C1026 0.913 . S
H1046 C1064 0.951 . S
H1047 C1066 0.951 . S
H1048 C1068 0.950 . S
H1049 C1069 0.950 . S
H1050 C1071 0.950 . S
H1051 C1074 0.950 . S
H1052 C1075 0.950 . S
H1053 C1077 0.950 . S
H1054 C1078 0.950 . S
H1055 C1079 0.951 . S
H1056 C1081 0.951 . S
H1057 C1083 0.950 . S
H1058 C1084 0.950 . S
H1059 C1086 0.950 . S
H1060 C1089 0.950 . S
H1061 C1090 0.950 . S
H1062 C1092 0.950 . S
H1063 C1093 0.950 . S
C1064 H1046 0.951 . S
C1064 C1065 1.366 . S
C1064 C1066 1.388 . S
C1065 C1064 1.366 . S
C1065 C1069 1.385 . S
C1066 H1047 0.951 . S
C1066 C1064 1.388 . S
C1066 C1067 1.366 . S
C1067 C1066 1.366 . S
C1067 C1068 1.414 . S
C1067 C1070 1.499 . S
C1068 H1048 0.950 . S
C1068 C1067 1.414 . S
C1068 C1069 1.374 . S
C1069 H1049 0.950 . S
C1069 C1065 1.385 . S
C1069 C1068 1.374 . S
C1070 C1067 1.499 . S
C1070 C1071 1.373 . S
C1070 C1072 1.389 . S
C1071 H1050 0.950 . S
C1071 C1070 1.373 . S
C1071 C1087 1.377 . S
C1072 C1070 1.389 . S
C1072 C1073 1.524 . S
C1072 C1086 1.377 . S
C1073 C1072 1.524 . S
C1073 C1074 1.397 . S
C1073 C1078 1.363 . S
C1074 H1051 0.950 . S
C1074 C1073 1.397 . S
C1074 C1075 1.334 . S
C1075 H1052 0.950 . S
C1075 C1074 1.334 . S
C1075 C1076 1.287 . S
C1076 C1075 1.287 . S
C1076 C1077 1.524 . S
C1076 H1095 0.913 . S
C1077 H1053 0.950 . S
C1077 C1076 1.524 . S
C1077 C1078 1.415 . S
C1078 H1054 0.950 . S
C1078 C1073 1.363 . S
C1078 C1077 1.415 . S
C1079 H1055 0.951 . S
C1079 C1080 1.366 . S
C1079 C1081 1.388 . S
C1080 C1079 1.366 . S
C1080 C1084 1.385 . S
C1081 H1056 0.951 . S
C1081 C1079 1.388 . S
C1081 C1082 1.366 . S
C1082 C1081 1.366 . S
C1082 C1083 1.414 . S
C1082 C1085 1.499 . S
C1083 H1057 0.950 . S
C1083 C1082 1.414 . S
C1083 C1084 1.374 . S
C1084 H1058 0.950 . S
C1084 C1080 1.385 . S
C1084 C1083 1.374 . S
C1085 C1082 1.499 . S
C1085 C1086 1.373 . S
C1085 C1087 1.389 . S
C1086 H1059 0.950 . S
C1086 C1072 1.377 . S
C1086 C1085 1.373 . S
C1087 C1071 1.377 . S
C1087 C1085 1.389 . S
C1087 C1088 1.524 . S
C1088 C1087 1.524 . S
C1088 C1089 1.397 . S
C1088 C1093 1.363 . S
C1089 H1060 0.950 . S
C1089 C1088 1.397 . S
C1089 C1090 1.334 . S
C1090 H1061 0.950 . S
C1090 C1089 1.334 . S
C1090 C1091 1.287 . S
C1091 C1090 1.287 . S
C1091 C1092 1.524 . S
C1091 H1094 0.999 . S
C1092 H1062 0.950 . S
C1092 C1091 1.524 . S
C1092 C1093 1.415 . S
C1093 H1063 0.950 . S
C1093 C1088 1.363 . S
C1093 C1092 1.415 . S
H1094 C1091 0.999 . S
H1095 C1076 0.913 . S
H1096 C1114 0.951 . S
H1097 C1116 0.951 . S
H1098 C1118 0.950 . S
H1099 C1119 0.950 . S
H1100 C1121 0.950 . S
H1101 C1124 0.950 . S
H1102 C1125 0.950 . S
H1103 C1127 0.950 . S
H1104 C1128 0.950 . S
H1105 C1129 0.951 . S
H1106 C1131 0.951 . S
H1107 C1133 0.950 . S
H1108 C1134 0.950 . S
H1109 C1136 0.950 . S
H1110 C1139 0.950 . S
H1111 C1140 0.950 . S
H1112 C1142 0.950 . S
H1113 C1143 0.950 . S
C1114 H1096 0.951 . S
C1114 C1115 1.366 . S
C1114 C1116 1.388 . S
C1115 C1114 1.366 . S
C1115 C1119 1.385 . S
C1116 H1097 0.951 . S
C1116 C1114 1.388 . S
C1116 C1117 1.366 . S
C1117 C1116 1.366 . S
C1117 C1118 1.414 . S
C1117 C1120 1.499 . S
C1118 H1098 0.950 . S
C1118 C1117 1.414 . S
C1118 C1119 1.374 . S
C1119 H1099 0.950 . S
C1119 C1115 1.385 . S
C1119 C1118 1.374 . S
C1120 C1117 1.499 . S
C1120 C1121 1.373 . S
C1120 C1122 1.389 . S
C1121 H1100 0.950 . S
C1121 C1120 1.373 . S
C1121 C1137 1.377 . S
C1122 C1120 1.389 . S
C1122 C1123 1.524 . S
C1122 C1136 1.377 . S
C1123 C1122 1.524 . S
C1123 C1124 1.397 . S
C1123 C1128 1.363 . S
C1124 H1101 0.950 . S
C1124 C1123 1.397 . S
C1124 C1125 1.334 . S
C1125 H1102 0.950 . S
C1125 C1124 1.334 . S
C1125 C1126 1.287 . S
C1126 C1125 1.287 . S
C1126 C1127 1.524 . S
C1126 H1145 0.913 . S
C1127 H1103 0.950 . S
C1127 C1126 1.524 . S
C1127 C1128 1.415 . S
C1128 H1104 0.950 . S
C1128 C1123 1.363 . S
C1128 C1127 1.415 . S
C1129 H1105 0.951 . S
C1129 C1130 1.366 . S
C1129 C1131 1.388 . S
C1130 C1129 1.366 . S
C1130 C1134 1.385 . S
C1131 H1106 0.951 . S
C1131 C1129 1.388 . S
C1131 C1132 1.366 . S
C1132 C1131 1.366 . S
C1132 C1133 1.414 . S
C1132 C1135 1.499 . S
C1133 H1107 0.950 . S
C1133 C1132 1.414 . S
C1133 C1134 1.374 . S
C1134 H1108 0.950 . S
C1134 C1130 1.385 . S
C1134 C1133 1.374 . S
C1135 C1132 1.499 . S
C1135 C1136 1.373 . S
C1135 C1137 1.389 . S
C1136 H1109 0.950 . S
C1136 C1122 1.377 . S
C1136 C1135 1.373 . S
C1137 C1121 1.377 . S
C1137 C1135 1.389 . S
C1137 C1138 1.524 . S
C1138 C1137 1.524 . S
C1138 C1139 1.397 . S
C1138 C1143 1.363 . S
C1139 H1110 0.950 . S
C1139 C1138 1.397 . S
C1139 C1140 1.334 . S
C1140 H1111 0.950 . S
C1140 C1139 1.334 . S
C1140 C1141 1.287 . S
C1141 C1140 1.287 . S
C1141 C1142 1.524 . S
C1141 H1144 0.999 . S
C1142 H1112 0.950 . S
C1142 C1141 1.524 . S
C1142 C1143 1.415 . S
C1143 H1113 0.950 . S
C1143 C1138 1.363 . S
C1143 C1142 1.415 . S
H1144 C1141 0.999 . S
H1145 C1126 0.913 . S
H1146 C1164 0.951 . S
H1147 C1166 0.951 . S
H1148 C1168 0.950 . S
H1149 C1169 0.950 . S
H1150 C1171 0.950 . S
H1151 C1174 0.950 . S
H1152 C1175 0.950 . S
H1153 C1177 0.950 . S
H1154 C1178 0.950 . S
H1155 C1179 0.951 . S
H1156 C1181 0.951 . S
H1157 C1183 0.950 . S
H1158 C1184 0.950 . S
H1159 C1186 0.950 . S
H1160 C1189 0.950 . S
H1161 C1190 0.950 . S
H1162 C1192 0.950 . S
H1163 C1193 0.950 . S
C1164 H1146 0.951 . S
C1164 C1165 1.366 . S
C1164 C1166 1.388 . S
C1165 C1164 1.366 . S
C1165 C1169 1.385 . S
C1166 H1147 0.951 . S
C1166 C1164 1.388 . S
C1166 C1167 1.366 . S
C1167 C1166 1.366 . S
C1167 C1168 1.414 . S
C1167 C1170 1.499 . S
C1168 H1148 0.950 . S
C1168 C1167 1.414 . S
C1168 C1169 1.374 . S
C1169 H1149 0.950 . S
C1169 C1165 1.385 . S
C1169 C1168 1.374 . S
C1170 C1167 1.499 . S
C1170 C1171 1.373 . S
C1170 C1172 1.389 . S
C1171 H1150 0.950 . S
C1171 C1170 1.373 . S
C1171 C1187 1.377 . S
C1172 C1170 1.389 . S
C1172 C1173 1.524 . S
C1172 C1186 1.377 . S
C1173 C1172 1.524 . S
C1173 C1174 1.397 . S
C1173 C1178 1.363 . S
C1174 H1151 0.950 . S
C1174 C1173 1.397 . S
C1174 C1175 1.334 . S
C1175 H1152 0.950 . S
C1175 C1174 1.334 . S
C1175 C1176 1.287 . S
C1176 C1175 1.287 . S
C1176 C1177 1.524 . S
C1176 H1195 0.913 . S
C1177 H1153 0.950 . S
C1177 C1176 1.524 . S
C1177 C1178 1.415 . S
C1178 H1154 0.950 . S
C1178 C1173 1.363 . S
C1178 C1177 1.415 . S
C1179 H1155 0.951 . S
C1179 C1180 1.366 . S
C1179 C1181 1.388 . S
C1180 C1179 1.366 . S
C1180 C1184 1.385 . S
C1181 H1156 0.951 . S
C1181 C1179 1.388 . S
C1181 C1182 1.366 . S
C1182 C1181 1.366 . S
C1182 C1183 1.414 . S
C1182 C1185 1.499 . S
C1183 H1157 0.950 . S
C1183 C1182 1.414 . S
C1183 C1184 1.374 . S
C1184 H1158 0.950 . S
C1184 C1180 1.385 . S
C1184 C1183 1.374 . S
C1185 C1182 1.499 . S
C1185 C1186 1.373 . S
C1185 C1187 1.389 . S
C1186 H1159 0.950 . S
C1186 C1172 1.377 . S
C1186 C1185 1.373 . S
C1187 C1171 1.377 . S
C1187 C1185 1.389 . S
C1187 C1188 1.524 . S
C1188 C1187 1.524 . S
C1188 C1189 1.397 . S
C1188 C1193 1.363 . S
C1189 H1160 0.950 . S
C1189 C1188 1.397 . S
C1189 C1190 1.334 . S
C1190 H1161 0.950 . S
C1190 C1189 1.334 . S
C1190 C1191 1.287 . S
C1191 C1190 1.287 . S
C1191 C1192 1.524 . S
C1191 H1194 0.999 . S
C1192 H1162 0.950 . S
C1192 C1191 1.524 . S
C1192 C1193 1.415 . S
C1193 H1163 0.950 . S
C1193 C1188 1.363 . S
C1193 C1192 1.415 . S
H1194 C1191 0.999 . S
H1195 C1176 0.913 . S
H1196 C1214 0.952 . S
H1197 C1216 0.951 . S
H1198 C1218 0.950 . S
H1199 C1219 0.950 . S
H1200 C1221 0.950 1_554 S
H1201 C1224 0.950 . S
H1202 C1225 0.952 . S
H1203 C1227 0.950 . S
H1204 C1228 0.950 . S
H1205 C1229 0.951 . S
H1206 C1231 0.951 . S
H1207 C1233 0.950 . S
H1208 C1234 0.950 . S
H1209 C1236 0.950 . S
H1210 C1239 0.950 . S
H1211 C1240 0.950 . S
H1212 C1242 0.950 . S
H1213 C1243 0.950 . S
C1214 H1196 0.952 . S
C1214 C1215 1.366 . S
C1214 C1216 1.388 1_554 S
C1215 C1214 1.366 . S
C1215 C1219 1.385 . S
C1216 H1197 0.951 . S
C1216 C1214 1.388 1_556 S
C1216 C1217 1.366 . S
C1217 C1216 1.366 . S
C1217 C1218 1.414 1_556 S
C1217 C1220 1.499 . S
C1218 H1198 0.950 . S
C1218 C1217 1.414 1_554 S
C1218 C1219 1.374 . S
C1219 H1199 0.950 . S
C1219 C1215 1.385 . S
C1219 C1218 1.374 . S
C1220 C1217 1.499 . S
C1220 C1221 1.373 . S
C1220 C1222 1.389 . S
C1221 H1200 0.950 1_556 S
C1221 C1220 1.373 . S
C1221 C1237 1.377 . S
C1222 C1220 1.389 . S
C1222 C1223 1.524 . S
C1222 C1236 1.377 . S
C1223 C1222 1.524 . S
C1223 C1224 1.397 . S
C1223 C1228 1.363 . S
C1224 H1201 0.950 . S
C1224 C1223 1.397 . S
C1224 C1225 1.332 1_565 S
C1225 H1202 0.952 . S
C1225 C1224 1.332 1_545 S
C1225 C1226 1.287 . S
C1226 C1225 1.287 . S
C1226 C1227 1.524 1_545 S
C1226 H1245 0.913 . S
C1227 H1203 0.950 . S
C1227 C1226 1.524 1_565 S
C1227 C1228 1.415 . S
C1228 H1204 0.950 . S
C1228 C1223 1.363 . S
C1228 C1227 1.415 . S
C1229 H1205 0.951 . S
C1229 C1230 1.366 . S
C1229 C1231 1.388 . S
C1230 C1229 1.366 . S
C1230 C1234 1.385 . S
C1231 H1206 0.951 . S
C1231 C1229 1.388 . S
C1231 C1232 1.366 . S
C1232 C1231 1.366 . S
C1232 C1233 1.414 . S
C1232 C1235 1.499 . S
C1233 H1207 0.950 . S
C1233 C1232 1.414 . S
C1233 C1234 1.374 . S
C1234 H1208 0.950 . S
C1234 C1230 1.385 . S
C1234 C1233 1.374 . S
C1235 C1232 1.499 . S
C1235 C1236 1.373 . S
C1235 C1237 1.389 . S
C1236 H1209 0.950 . S
C1236 C1222 1.377 . S
C1236 C1235 1.373 . S
C1237 C1221 1.377 . S
C1237 C1235 1.389 . S
C1237 C1238 1.524 . S
C1238 C1237 1.524 . S
C1238 C1239 1.397 . S
C1238 C1243 1.363 1_556 S
C1239 H1210 0.950 . S
C1239 C1238 1.397 . S
C1239 C1240 1.334 . S
C1240 H1211 0.950 . S
C1240 C1239 1.334 . S
C1240 C1241 1.287 1_556 S
C1241 C1240 1.287 1_554 S
C1241 C1242 1.524 . S
C1241 H1244 0.999 . S
C1242 H1212 0.950 . S
C1242 C1241 1.524 . S
C1242 C1243 1.415 . S
C1243 H1213 0.950 . S
C1243 C1238 1.363 1_554 S
C1243 C1242 1.415 . S
H1244 C1241 0.999 . S
H1245 C1226 0.913 . S
H1246 C1264 0.951 . S
H1247 C1266 0.951 . S
H1248 C1268 0.950 . S
H1249 C1269 0.950 1_554 S
H1250 C1271 0.950 . S
H1251 C1274 0.950 . S
H1252 C1275 0.950 . S
H1253 C1277 0.950 . S
H1254 C1278 0.950 . S
H1255 C1279 0.951 . S
H1256 C1281 0.951 . S
H1257 C1283 0.950 . S
H1258 C1284 0.950 . S
H1259 C1286 0.950 . S
H1260 C1289 0.950 . S
H1261 C1290 0.950 . S
H1262 C1292 0.950 . S
H1263 C1293 0.950 . S
C1264 H1246 0.951 . S
C1264 C1265 1.366 . S
C1264 C1266 1.388 . S
C1265 C1264 1.366 . S
C1265 C1269 1.385 . S
C1266 H1247 0.951 . S
C1266 C1264 1.388 . S
C1266 C1267 1.366 . S
C1267 C1266 1.366 . S
C1267 C1268 1.414 . S
C1267 C1270 1.499 . S
C1268 H1248 0.950 . S
C1268 C1267 1.414 . S
C1268 C1269 1.374 . S
C1269 H1249 0.950 1_556 S
C1269 C1265 1.385 . S
C1269 C1268 1.374 . S
C1270 C1267 1.499 . S
C1270 C1271 1.373 . S
C1270 C1272 1.389 . S
C1271 H1250 0.950 . S
C1271 C1270 1.373 . S
C1271 C1287 1.377 . S
C1272 C1270 1.389 . S
C1272 C1273 1.524 . S
C1272 C1286 1.377 . S
C1273 C1272 1.524 . S
C1273 C1274 1.397 . S
C1273 C1278 1.363 . S
C1274 H1251 0.950 . S
C1274 C1273 1.397 . S
C1274 C1275 1.334 . S
C1275 H1252 0.950 . S
C1275 C1274 1.334 . S
C1275 C1276 1.287 . S
C1276 C1275 1.287 . S
C1276 C1277 1.524 . S
C1276 H1295 0.913 . S
C1277 H1253 0.950 . S
C1277 C1276 1.524 . S
C1277 C1278 1.415 . S
C1278 H1254 0.950 . S
C1278 C1273 1.363 . S
C1278 C1277 1.415 . S
C1279 H1255 0.951 . S
C1279 C1280 1.366 . S
C1279 C1281 1.388 . S
C1280 C1279 1.366 . S
C1280 C1284 1.385 . S
C1281 H1256 0.951 . S
C1281 C1279 1.388 . S
C1281 C1282 1.366 . S
C1282 C1281 1.366 . S
C1282 C1283 1.414 . S
C1282 C1285 1.499 . S
C1283 H1257 0.950 . S
C1283 C1282 1.414 . S
C1283 C1284 1.374 . S
C1284 H1258 0.950 . S
C1284 C1280 1.385 . S
C1284 C1283 1.374 . S
C1285 C1282 1.499 . S
C1285 C1286 1.373 . S
C1285 C1287 1.389 . S
C1286 H1259 0.950 . S
C1286 C1272 1.377 . S
C1286 C1285 1.373 . S
C1287 C1271 1.377 . S
C1287 C1285 1.389 . S
C1287 C1288 1.524 . S
C1288 C1287 1.524 . S
C1288 C1289 1.397 . S
C1288 C1293 1.363 . S
C1289 H1260 0.950 . S
C1289 C1288 1.397 . S
C1289 C1290 1.334 . S
C1290 H1261 0.950 . S
C1290 C1289 1.334 . S
C1290 C1291 1.287 . S
C1291 C1290 1.287 . S
C1291 C1292 1.524 . S
C1291 H1294 0.999 . S
C1292 H1262 0.950 . S
C1292 C1291 1.524 . S
C1292 C1293 1.415 . S
C1293 H1263 0.950 . S
C1293 C1288 1.363 . S
C1293 C1292 1.415 . S
H1294 C1291 0.999 . S
H1295 C1276 0.913 . S
H1296 C1314 0.951 . S
H1297 C1316 0.951 . S
H1298 C1318 0.950 . S
H1299 C1319 0.950 . S
H1300 C1321 0.950 . S
H1301 C1324 0.950 . S
H1302 C1325 0.950 . S
H1303 C1327 0.950 . S
H1304 C1328 0.950 . S
H1305 C1329 0.951 . S
H1306 C1331 0.951 . S
H1307 C1333 0.950 . S
H1308 C1334 0.950 . S
H1309 C1336 0.950 . S
H1310 C1339 0.950 . S
H1311 C1340 0.950 . S
H1312 C1342 0.950 . S
H1313 C1343 0.950 . S
C1314 H1296 0.951 . S
C1314 C1315 1.366 . S
C1314 C1316 1.388 . S
C1315 C1314 1.366 . S
C1315 C1319 1.385 . S
C1316 H1297 0.951 . S
C1316 C1314 1.388 . S
C1316 C1317 1.366 . S
C1317 C1316 1.366 . S
C1317 C1318 1.414 . S
C1317 C1320 1.499 . S
C1318 H1298 0.950 . S
C1318 C1317 1.414 . S
C1318 C1319 1.374 . S
C1319 H1299 0.950 . S
C1319 C1315 1.385 . S
C1319 C1318 1.374 . S
C1320 C1317 1.499 . S
C1320 C1321 1.373 . S
C1320 C1322 1.389 . S
C1321 H1300 0.950 . S
C1321 C1320 1.373 . S
C1321 C1337 1.377 . S
C1322 C1320 1.389 . S
C1322 C1323 1.524 . S
C1322 C1336 1.377 . S
C1323 C1322 1.524 . S
C1323 C1324 1.397 . S
C1323 C1328 1.363 . S
C1324 H1301 0.950 . S
C1324 C1323 1.397 . S
C1324 C1325 1.334 . S
C1325 H1302 0.950 . S
C1325 C1324 1.334 . S
C1325 C1326 1.287 . S
C1326 C1325 1.287 . S
C1326 C1327 1.524 . S
C1326 H1345 0.913 . S
C1327 H1303 0.950 . S
C1327 C1326 1.524 . S
C1327 C1328 1.415 . S
C1328 H1304 0.950 . S
C1328 C1323 1.363 . S
C1328 C1327 1.415 . S
C1329 H1305 0.951 . S
C1329 C1330 1.366 . S
C1329 C1331 1.388 . S
C1330 C1329 1.366 . S
C1330 C1334 1.385 . S
C1331 H1306 0.951 . S
C1331 C1329 1.388 . S
C1331 C1332 1.366 . S
C1332 C1331 1.366 . S
C1332 C1333 1.414 . S
C1332 C1335 1.499 . S
C1333 H1307 0.950 . S
C1333 C1332 1.414 . S
C1333 C1334 1.374 . S
C1334 H1308 0.950 . S
C1334 C1330 1.385 . S
C1334 C1333 1.374 . S
C1335 C1332 1.499 . S
C1335 C1336 1.373 . S
C1335 C1337 1.389 . S
C1336 H1309 0.950 . S
C1336 C1322 1.377 . S
C1336 C1335 1.373 . S
C1337 C1321 1.377 . S
C1337 C1335 1.389 . S
C1337 C1338 1.524 . S
C1338 C1337 1.524 . S
C1338 C1339 1.397 . S
C1338 C1343 1.363 . S
C1339 H1310 0.950 . S
C1339 C1338 1.397 . S
C1339 C1340 1.334 . S
C1340 H1311 0.950 . S
C1340 C1339 1.334 . S
C1340 C1341 1.287 . S
C1341 C1340 1.287 . S
C1341 C1342 1.524 . S
C1341 H1344 0.999 . S
C1342 H1312 0.950 . S
C1342 C1341 1.524 . S
C1342 C1343 1.415 . S
C1343 H1313 0.950 . S
C1343 C1338 1.363 . S
C1343 C1342 1.415 . S
H1344 C1341 0.999 . S
H1345 C1326 0.913 . S
H1346 C1364 0.951 . S
H1347 C1366 0.951 . S
H1348 C1368 0.950 . S
H1349 C1369 0.950 . S
H1350 C1371 0.950 . S
H1351 C1374 0.950 . S
H1352 C1375 0.950 . S
H1353 C1377 0.950 . S
H1354 C1378 0.950 . S
H1355 C1379 0.951 . S
H1356 C1381 0.951 . S
H1357 C1383 0.950 . S
H1358 C1384 0.950 . S
H1359 C1386 0.950 . S
H1360 C1389 0.950 . S
H1361 C1390 0.950 . S
H1362 C1392 0.950 . S
H1363 C1393 0.950 . S
C1364 H1346 0.951 . S
C1364 C1365 1.366 . S
C1364 C1366 1.388 . S
C1365 C1364 1.366 . S
C1365 C1369 1.385 . S
C1366 H1347 0.951 . S
C1366 C1364 1.388 . S
C1366 C1367 1.366 . S
C1367 C1366 1.366 . S
C1367 C1368 1.414 . S
C1367 C1370 1.499 . S
C1368 H1348 0.950 . S
C1368 C1367 1.414 . S
C1368 C1369 1.374 . S
C1369 H1349 0.950 . S
C1369 C1365 1.385 . S
C1369 C1368 1.374 . S
C1370 C1367 1.499 . S
C1370 C1371 1.373 . S
C1370 C1372 1.389 . S
C1371 H1350 0.950 . S
C1371 C1370 1.373 . S
C1371 C1387 1.377 . S
C1372 C1370 1.389 . S
C1372 C1373 1.524 . S
C1372 C1386 1.377 . S
C1373 C1372 1.524 . S
C1373 C1374 1.397 . S
C1373 C1378 1.363 . S
C1374 H1351 0.950 . S
C1374 C1373 1.397 . S
C1374 C1375 1.334 . S
C1375 H1352 0.950 . S
C1375 C1374 1.334 . S
C1375 C1376 1.287 . S
C1376 C1375 1.287 . S
C1376 C1377 1.524 . S
C1376 H1395 0.913 . S
C1377 H1353 0.950 . S
C1377 C1376 1.524 . S
C1377 C1378 1.415 . S
C1378 H1354 0.950 . S
C1378 C1373 1.363 . S
C1378 C1377 1.415 . S
C1379 H1355 0.951 . S
C1379 C1380 1.366 . S
C1379 C1381 1.388 . S
C1380 C1379 1.366 . S
C1380 C1384 1.385 . S
C1381 H1356 0.951 . S
C1381 C1379 1.388 . S
C1381 C1382 1.366 . S
C1382 C1381 1.366 . S
C1382 C1383 1.414 . S
C1382 C1385 1.499 . S
C1383 H1357 0.950 . S
C1383 C1382 1.414 . S
C1383 C1384 1.374 . S
C1384 H1358 0.950 . S
C1384 C1380 1.385 . S
C1384 C1383 1.374 . S
C1385 C1382 1.499 . S
C1385 C1386 1.373 . S
C1385 C1387 1.389 . S
C1386 H1359 0.950 . S
C1386 C1372 1.377 . S
C1386 C1385 1.373 . S
C1387 C1371 1.377 . S
C1387 C1385 1.389 . S
C1387 C1388 1.524 . S
C1388 C1387 1.524 . S
C1388 C1389 1.397 . S
C1388 C1393 1.363 . S
C1389 H1360 0.950 . S
C1389 C1388 1.397 . S
C1389 C1390 1.334 . S
C1390 H1361 0.950 . S
C1390 C1389 1.334 . S
C1390 C1391 1.287 . S
C1391 C1390 1.287 . S
C1391 C1392 1.524 . S
C1391 H1394 0.999 . S
C1392 H1362 0.950 . S
C1392 C1391 1.524 . S
C1392 C1393 1.415 . S
C1393 H1363 0.950 . S
C1393 C1388 1.363 . S
C1393 C1392 1.415 . S
H1394 C1391 0.999 . S
H1395 C1376 0.913 . S
H1396 C1414 0.951 . S
H1397 C1416 0.951 . S
H1398 C1418 0.950 . S
H1399 C1419 0.950 . S
H1400 C1421 0.950 . S
H1401 C1424 0.950 . S
H1402 C1425 0.950 . S
H1403 C1427 0.950 . S
H1404 C1428 0.950 . S
H1405 C1429 0.951 . S
H1406 C1431 0.951 . S
H1407 C1433 0.950 . S
H1408 C1434 0.950 . S
H1409 C1436 0.950 . S
H1410 C1439 0.950 . S
H1411 C1440 0.950 . S
H1412 C1442 0.950 . S
H1413 C1443 0.950 . S
C1414 H1396 0.951 . S
C1414 C1415 1.366 . S
C1414 C1416 1.388 . S
C1415 C1414 1.366 . S
C1415 C1419 1.385 . S
C1416 H1397 0.951 . S
C1416 C1414 1.388 . S
C1416 C1417 1.366 . S
C1417 C1416 1.366 . S
C1417 C1418 1.414 . S
C1417 C1420 1.499 . S
C1418 H1398 0.950 . S
C1418 C1417 1.414 . S
C1418 C1419 1.374 . S
C1419 H1399 0.950 . S
C1419 C1415 1.385 . S
C1419 C1418 1.374 . S
C1420 C1417 1.499 . S
C1420 C1421 1.373 . S
C1420 C1422 1.389 . S
C1421 H1400 0.950 . S
C1421 C1420 1.373 . S
C1421 C1437 1.377 . S
C1422 C1420 1.389 . S
C1422 C1423 1.524 . S
C1422 C1436 1.377 . S
C1423 C1422 1.524 . S
C1423 C1424 1.397 . S
C1423 C1428 1.363 . S
C1424 H1401 0.950 . S
C1424 C1423 1.397 . S
C1424 C1425 1.334 . S
C1425 H1402 0.950 . S
C1425 C1424 1.334 . S
C1425 C1426 1.287 . S
C1426 C1425 1.287 . S
C1426 C1427 1.524 . S
C1426 H1445 0.913 . S
C1427 H1403 0.950 . S
C1427 C1426 1.524 . S
C1427 C1428 1.415 . S
C1428 H1404 0.950 . S
C1428 C1423 1.363 . S
C1428 C1427 1.415 . S
C1429 H1405 0.951 . S
C1429 C1430 1.366 . S
C1429 C1431 1.388 . S
C1430 C1429 1.366 . S
C1430 C1434 1.385 . S
C1431 H1406 0.951 . S
C1431 C1429 1.388 . S
C1431 C1432 1.366 . S
C1432 C1431 1.366 . S
C1432 C1433 1.414 . S
C1432 C1435 1.499 . S
C1433 H1407 0.950 . S
C1433 C1432 1.414 . S
C1433 C1434 1.374 . S
C1434 H1408 0.950 . S
C1434 C1430 1.385 . S
C1434 C1433 1.374 . S
C1435 C1432 1.499 . S
C1435 C1436 1.373 . S
C1435 C1437 1.389 . S
C1436 H1409 0.950 . S
C1436 C1422 1.377 . S
C1436 C1435 1.373 . S
C1437 C1421 1.377 . S
C1437 C1435 1.389 . S
C1437 C1438 1.524 . S
C1438 C1437 1.524 . S
C1438 C1439 1.397 . S
C1438 C1443 1.363 . S
C1439 H1410 0.950 . S
C1439 C1438 1.397 . S
C1439 C1440 1.334 . S
C1440 H1411 0.950 . S
C1440 C1439 1.334 . S
C1440 C1441 1.287 . S
C1441 C1440 1.287 . S
C1441 C1442 1.524 . S
C1441 H1444 0.999 . S
C1442 H1412 0.950 . S
C1442 C1441 1.524 . S
C1442 C1443 1.415 . S
C1443 H1413 0.950 . S
C1443 C1438 1.363 . S
C1443 C1442 1.415 . S
H1444 C1441 0.999 . S
H1445 C1426 0.913 . S
H1446 C1464 0.951 . S
H1447 C1466 0.951 . S
H1448 C1468 0.950 . S
H1449 C1469 0.950 . S
H1450 C1471 0.950 . S
H1451 C1474 0.950 . S
H1452 C1475 0.950 . S
H1453 C1477 0.950 . S
H1454 C1478 0.950 . S
H1455 C1479 0.951 . S
H1456 C1481 0.951 . S
H1457 C1483 0.950 . S
H1458 C1484 0.950 . S
H1459 C1486 0.950 . S
H1460 C1489 0.950 . S
H1461 C1490 0.950 . S
H1462 C1492 0.950 . S
H1463 C1493 0.950 . S
C1464 H1446 0.951 . S
C1464 C1465 1.366 . S
C1464 C1466 1.388 . S
C1465 C1464 1.366 . S
C1465 C1469 1.385 . S
C1466 H1447 0.951 . S
C1466 C1464 1.388 . S
C1466 C1467 1.366 . S
C1467 C1466 1.366 . S
C1467 C1468 1.414 . S
C1467 C1470 1.499 . S
C1468 H1448 0.950 . S
C1468 C1467 1.414 . S
C1468 C1469 1.374 . S
C1469 H1449 0.950 . S
C1469 C1465 1.385 . S
C1469 C1468 1.374 . S
C1470 C1467 1.499 . S
C1470 C1471 1.373 . S
C1470 C1472 1.389 . S
C1471 H1450 0.950 . S
C1471 C1470 1.373 . S
C1471 C1487 1.377 . S
C1472 C1470 1.389 . S
C1472 C1473 1.524 . S
C1472 C1486 1.377 . S
C1473 C1472 1.524 . S
C1473 C1474 1.397 . S
C1473 C1478 1.363 . S
C1474 H1451 0.950 . S
C1474 C1473 1.397 . S
C1474 C1475 1.334 . S
C1475 H1452 0.950 . S
C1475 C1474 1.334 . S
C1475 C1476 1.287 . S
C1476 C1475 1.287 . S
C1476 C1477 1.524 . S
C1476 H1495 0.913 . S
C1477 H1453 0.950 . S
C1477 C1476 1.524 . S
C1477 C1478 1.415 . S
C1478 H1454 0.950 . S
C1478 C1473 1.363 . S
C1478 C1477 1.415 . S
C1479 H1455 0.951 . S
C1479 C1480 1.366 . S
C1479 C1481 1.388 . S
C1480 C1479 1.366 . S
C1480 C1484 1.385 . S
C1481 H1456 0.951 . S
C1481 C1479 1.388 . S
C1481 C1482 1.366 . S
C1482 C1481 1.366 . S
C1482 C1483 1.414 . S
C1482 C1485 1.499 . S
C1483 H1457 0.950 . S
C1483 C1482 1.414 . S
C1483 C1484 1.374 . S
C1484 H1458 0.950 . S
C1484 C1480 1.385 . S
C1484 C1483 1.374 . S
C1485 C1482 1.499 . S
C1485 C1486 1.373 . S
C1485 C1487 1.389 . S
C1486 H1459 0.950 . S
C1486 C1472 1.377 . S
C1486 C1485 1.373 . S
C1487 C1471 1.377 . S
C1487 C1485 1.389 . S
C1487 C1488 1.524 . S
C1488 C1487 1.524 . S
C1488 C1489 1.397 . S
C1488 C1493 1.363 . S
C1489 H1460 0.950 . S
C1489 C1488 1.397 . S
C1489 C1490 1.334 . S
C1490 H1461 0.950 . S
C1490 C1489 1.334 . S
C1490 C1491 1.287 . S
C1491 C1490 1.287 . S
C1491 C1492 1.524 . S
C1491 H1494 0.999 . S
C1492 H1462 0.950 . S
C1492 C1491 1.524 . S
C1492 C1493 1.415 . S
C1493 H1463 0.950 . S
C1493 C1488 1.363 . S
C1493 C1492 1.415 . S
H1494 C1491 0.999 . S
H1495 C1476 0.913 . S
H1496 C1514 0.951 . S
H1497 C1516 0.951 . S
H1498 C1518 0.950 . S
H1499 C1519 0.950 . S
H1500 C1521 0.950 . S
H1501 C1524 0.950 . S
H1502 C1525 0.950 . S
H1503 C1527 0.950 . S
H1504 C1528 0.950 . S
H1505 C1529 0.951 . S
H1506 C1531 0.951 . S
H1507 C1533 0.950 . S
H1508 C1534 0.950 . S
H1509 C1536 0.950 . S
H1510 C1539 0.950 . S
H1511 C1540 0.950 . S
H1512 C1542 0.950 . S
H1513 C1543 0.950 . S
C1514 H1496 0.951 . S
C1514 C1515 1.366 . S
C1514 C1516 1.388 1_554 S
C1515 C1514 1.366 . S
C1515 C1519 1.385 . S
C1516 H1497 0.951 . S
C1516 C1514 1.388 1_556 S
C1516 C1517 1.366 . S
C1517 C1516 1.366 . S
C1517 C1518 1.414 . S
C1517 C1520 1.499 . S
C1518 H1498 0.950 . S
C1518 C1517 1.414 . S
C1518 C1519 1.374 1_556 S
C1519 H1499 0.950 . S
C1519 C1515 1.385 . S
C1519 C1518 1.374 1_554 S
C1520 C1517 1.499 . S
C1520 C1521 1.373 . S
C1520 C1522 1.389 . S
C1521 H1500 0.950 . S
C1521 C1520 1.373 . S
C1521 C1537 1.377 . S
C1522 C1520 1.389 . S
C1522 C1523 1.524 . S
C1522 C1536 1.377 . S
C1523 C1522 1.524 . S
C1523 C1524 1.397 . S
C1523 C1528 1.363 . S
C1524 H1501 0.950 . S
C1524 C1523 1.397 . S
C1524 C1525 1.334 . S
C1525 H1502 0.950 . S
C1525 C1524 1.334 . S
C1525 C1526 1.287 . S
C1526 C1525 1.287 . S
C1526 C1527 1.524 . S
C1526 H1545 0.913 . S
C1527 H1503 0.950 . S
C1527 C1526 1.524 . S
C1527 C1528 1.415 . S
C1528 H1504 0.950 . S
C1528 C1523 1.363 . S
C1528 C1527 1.415 . S
C1529 H1505 0.951 . S
C1529 C1530 1.366 . S
C1529 C1531 1.388 . S
C1530 C1529 1.366 . S
C1530 C1534 1.385 . S
C1531 H1506 0.951 . S
C1531 C1529 1.388 . S
C1531 C1532 1.366 . S
C1532 C1531 1.366 . S
C1532 C1533 1.414 . S
C1532 C1535 1.499 . S
C1533 H1507 0.950 . S
C1533 C1532 1.414 . S
C1533 C1534 1.374 . S
C1534 H1508 0.950 . S
C1534 C1530 1.385 . S
C1534 C1533 1.374 . S
C1535 C1532 1.499 . S
C1535 C1536 1.373 . S
C1535 C1537 1.389 . S
C1536 H1509 0.950 . S
C1536 C1522 1.377 . S
C1536 C1535 1.373 . S
C1537 C1521 1.377 . S
C1537 C1535 1.389 . S
C1537 C1538 1.524 . S
C1538 C1537 1.524 . S
C1538 C1539 1.397 . S
C1538 C1543 1.363 . S
C1539 H1510 0.950 . S
C1539 C1538 1.397 . S
C1539 C1540 1.334 . S
C1540 H1511 0.950 . S
C1540 C1539 1.334 . S
C1540 C1541 1.287 . S
C1541 C1540 1.287 . S
C1541 C1542 1.524 . S
C1541 H1544 0.999 . S
C1542 H1512 0.950 . S
C1542 C1541 1.524 . S
C1542 C1543 1.415 . S
C1543 H1513 0.950 . S
C1543 C1538 1.363 . S
C1543 C1542 1.415 . S
H1544 C1541 0.999 . S
H1545 C1526 0.913 . S
H1546 C1564 0.951 1_556 S
H1547 C1566 0.951 . S
H1548 C1568 0.950 . S
H1549 C1569 0.950 . S
H1550 C1571 0.950 . S
H1551 C1574 0.950 . S
H1552 C1575 0.950 . S
H1553 C1577 0.950 . S
H1554 C1578 0.950 . S
H1555 C1579 0.951 . S
H1556 C1581 0.951 . S
H1557 C1583 0.950 . S
H1558 C1584 0.950 . S
H1559 C1586 0.950 . S
H1560 C1589 0.950 . S
H1561 C1590 0.950 . S
H1562 C1592 0.950 . S
H1563 C1593 0.950 . S
C1564 H1546 0.951 1_554 S
C1564 C1565 1.366 . S
C1564 C1566 1.388 1_554 S
C1565 C1564 1.366 . S
C1565 C1569 1.385 . S
C1566 H1547 0.951 . S
C1566 C1564 1.388 1_556 S
C1566 C1567 1.366 . S
C1567 C1566 1.366 . S
C1567 C1568 1.414 1_556 S
C1567 C1570 1.499 . S
C1568 H1548 0.950 . S
C1568 C1567 1.414 1_554 S
C1568 C1569 1.374 . S
C1569 H1549 0.950 . S
C1569 C1565 1.385 . S
C1569 C1568 1.374 . S
C1570 C1567 1.499 . S
C1570 C1571 1.373 . S
C1570 C1572 1.389 . S
C1571 H1550 0.950 . S
C1571 C1570 1.373 . S
C1571 C1587 1.377 . S
C1572 C1570 1.389 . S
C1572 C1573 1.524 . S
C1572 C1586 1.377 . S
C1573 C1572 1.524 . S
C1573 C1574 1.397 1_556 S
C1573 C1578 1.363 . S
C1574 H1551 0.950 . S
C1574 C1573 1.397 1_554 S
C1574 C1575 1.334 . S
C1575 H1552 0.950 . S
C1575 C1574 1.334 . S
C1575 C1576 1.287 . S
C1576 C1575 1.287 . S
C1576 C1577 1.524 1_554 S
C1576 H1595 0.913 . S
C1577 H1553 0.950 . S
C1577 C1576 1.524 1_556 S
C1577 C1578 1.415 . S
C1578 H1554 0.950 . S
C1578 C1573 1.363 . S
C1578 C1577 1.415 . S
C1579 H1555 0.951 . S
C1579 C1580 1.366 . S
C1579 C1581 1.388 . S
C1580 C1579 1.366 . S
C1580 C1584 1.385 . S
C1581 H1556 0.951 . S
C1581 C1579 1.388 . S
C1581 C1582 1.366 . S
C1582 C1581 1.366 . S
C1582 C1583 1.414 . S
C1582 C1585 1.499 . S
C1583 H1557 0.950 . S
C1583 C1582 1.414 . S
C1583 C1584 1.374 . S
C1584 H1558 0.950 . S
C1584 C1580 1.385 . S
C1584 C1583 1.374 . S
C1585 C1582 1.499 . S
C1585 C1586 1.373 . S
C1585 C1587 1.389 . S
C1586 H1559 0.950 . S
C1586 C1572 1.377 . S
C1586 C1585 1.373 . S
C1587 C1571 1.377 . S
C1587 C1585 1.389 . S
C1587 C1588 1.524 . S
C1588 C1587 1.524 . S
C1588 C1589 1.397 . S
C1588 C1593 1.363 . S
C1589 H1560 0.950 . S
C1589 C1588 1.397 . S
C1589 C1590 1.334 . S
C1590 H1561 0.950 . S
C1590 C1589 1.334 . S
C1590 C1591 1.287 . S
C1591 C1590 1.287 . S
C1591 C1592 1.524 . S
C1591 H1594 0.999 . S
C1592 H1562 0.950 . S
C1592 C1591 1.524 . S
C1592 C1593 1.415 . S
C1593 H1563 0.950 . S
C1593 C1588 1.363 . S
C1593 C1592 1.415 . S
H1594 C1591 0.999 . S
H1595 C1576 0.913 . S
H1596 C1614 0.951 . S
H1597 C1616 0.951 . S
H1598 C1618 0.950 . S
H1599 C1619 0.950 . S
H1600 C1621 0.950 . S
H1601 C1624 0.950 . S
H1602 C1625 0.950 . S
H1603 C1627 0.950 . S
H1604 C1628 0.950 . S
H1605 C1629 0.951 . S
H1606 C1631 0.951 . S
H1607 C1633 0.950 . S
H1608 C1634 0.950 . S
H1609 C1636 0.950 . S
H1610 C1639 0.950 . S
H1611 C1640 0.950 . S
H1612 C1642 0.950 . S
H1613 C1643 0.950 . S
C1614 H1596 0.951 . S
C1614 C1615 1.366 . S
C1614 C1616 1.388 . S
C1615 C1614 1.366 . S
C1615 C1619 1.385 . S
C1616 H1597 0.951 . S
C1616 C1614 1.388 . S
C1616 C1617 1.366 . S
C1617 C1616 1.366 . S
C1617 C1618 1.414 . S
C1617 C1620 1.499 . S
C1618 H1598 0.950 . S
C1618 C1617 1.414 . S
C1618 C1619 1.374 . S
C1619 H1599 0.950 . S
C1619 C1615 1.385 . S
C1619 C1618 1.374 . S
C1620 C1617 1.499 . S
C1620 C1621 1.373 . S
C1620 C1622 1.389 . S
C1621 H1600 0.950 . S
C1621 C1620 1.373 . S
C1621 C1637 1.377 . S
C1622 C1620 1.389 . S
C1622 C1623 1.524 . S
C1622 C1636 1.377 . S
C1623 C1622 1.524 . S
C1623 C1624 1.397 . S
C1623 C1628 1.363 . S
C1624 H1601 0.950 . S
C1624 C1623 1.397 . S
C1624 C1625 1.334 . S
C1625 H1602 0.950 . S
C1625 C1624 1.334 . S
C1625 C1626 1.287 . S
C1626 C1625 1.287 . S
C1626 C1627 1.524 . S
C1626 H1645 0.913 . S
C1627 H1603 0.950 . S
C1627 C1626 1.524 . S
C1627 C1628 1.415 . S
C1628 H1604 0.950 . S
C1628 C1623 1.363 . S
C1628 C1627 1.415 . S
C1629 H1605 0.951 . S
C1629 C1630 1.366 . S
C1629 C1631 1.388 . S
C1630 C1629 1.366 . S
C1630 C1634 1.385 . S
C1631 H1606 0.951 . S
C1631 C1629 1.388 . S
C1631 C1632 1.366 . S
C1632 C1631 1.366 . S
C1632 C1633 1.414 . S
C1632 C1635 1.499 . S
C1633 H1607 0.950 . S
C1633 C1632 1.414 . S
C1633 C1634 1.374 . S
C1634 H1608 0.950 . S
C1634 C1630 1.385 . S
C1634 C1633 1.374 . S
C1635 C1632 1.499 . S
C1635 C1636 1.373 . S
C1635 C1637 1.389 . S
C1636 H1609 0.950 . S
C1636 C1622 1.377 . S
C1636 C1635 1.373 . S
C1637 C1621 1.377 . S
C1637 C1635 1.389 . S
C1637 C1638 1.524 . S
C1638 C1637 1.524 . S
C1638 C1639 1.397 . S
C1638 C1643 1.363 . S
C1639 H1610 0.950 . S
C1639 C1638 1.397 . S
C1639 C1640 1.334 . S
C1640 H1611 0.950 . S
C1640 C1639 1.334 . S
C1640 C1641 1.287 . S
C1641 C1640 1.287 . S
C1641 C1642 1.524 . S
C1641 H1644 0.999 . S
C1642 H1612 0.950 . S
C1642 C1641 1.524 . S
C1642 C1643 1.415 . S
C1643 H1613 0.950 . S
C1643 C1638 1.363 . S
C1643 C1642 1.415 . S
H1644 C1641 0.999 . S
H1645 C1626 0.913 . S
H1646 C1664 0.951 . S
H1647 C1666 0.951 . S
H1648 C1668 0.950 . S
H1649 C1669 0.950 . S
H1650 C1671 0.950 . S
H1651 C1674 0.950 . S
H1652 C1675 0.950 . S
H1653 C1677 0.950 . S
H1654 C1678 0.950 . S
H1655 C1679 0.951 . S
H1656 C1681 0.951 . S
H1657 C1683 0.950 . S
H1658 C1684 0.950 . S
H1659 C1686 0.950 . S
H1660 C1689 0.950 . S
H1661 C1690 0.950 . S
H1662 C1692 0.950 . S
H1663 C1693 0.950 . S
C1664 H1646 0.951 . S
C1664 C1665 1.366 . S
C1664 C1666 1.388 . S
C1665 C1664 1.366 . S
C1665 C1669 1.385 . S
C1666 H1647 0.951 . S
C1666 C1664 1.388 . S
C1666 C1667 1.366 . S
C1667 C1666 1.366 . S
C1667 C1668 1.414 . S
C1667 C1670 1.499 . S
C1668 H1648 0.950 . S
C1668 C1667 1.414 . S
C1668 C1669 1.374 . S
C1669 H1649 0.950 . S
C1669 C1665 1.385 . S
C1669 C1668 1.374 . S
C1670 C1667 1.499 . S
C1670 C1671 1.373 . S
C1670 C1672 1.389 . S
C1671 H1650 0.950 . S
C1671 C1670 1.373 . S
C1671 C1687 1.377 . S
C1672 C1670 1.389 . S
C1672 C1673 1.524 . S
C1672 C1686 1.377 . S
C1673 C1672 1.524 . S
C1673 C1674 1.397 . S
C1673 C1678 1.363 . S
C1674 H1651 0.950 . S
C1674 C1673 1.397 . S
C1674 C1675 1.334 . S
C1675 H1652 0.950 . S
C1675 C1674 1.334 . S
C1675 C1676 1.287 . S
C1676 C1675 1.287 . S
C1676 C1677 1.524 . S
C1676 H1695 0.913 . S
C1677 H1653 0.950 . S
C1677 C1676 1.524 . S
C1677 C1678 1.415 . S
C1678 H1654 0.950 . S
C1678 C1673 1.363 . S
C1678 C1677 1.415 . S
C1679 H1655 0.951 . S
C1679 C1680 1.366 . S
C1679 C1681 1.388 . S
C1680 C1679 1.366 . S
C1680 C1684 1.385 . S
C1681 H1656 0.951 . S
C1681 C1679 1.388 . S
C1681 C1682 1.366 . S
C1682 C1681 1.366 . S
C1682 C1683 1.414 . S
C1682 C1685 1.499 . S
C1683 H1657 0.950 . S
C1683 C1682 1.414 . S
C1683 C1684 1.374 . S
C1684 H1658 0.950 . S
C1684 C1680 1.385 . S
C1684 C1683 1.374 . S
C1685 C1682 1.499 . S
C1685 C1686 1.373 . S
C1685 C1687 1.389 . S
C1686 H1659 0.950 . S
C1686 C1672 1.377 . S
C1686 C1685 1.373 . S
C1687 C1671 1.377 . S
C1687 C1685 1.389 . S
C1687 C1688 1.524 . S
C1688 C1687 1.524 . S
C1688 C1689 1.397 . S
C1688 C1693 1.363 . S
C1689 H1660 0.950 . S
C1689 C1688 1.397 . S
C1689 C1690 1.334 . S
C1690 H1661 0.950 . S
C1690 C1689 1.334 . S
C1690 C1691 1.287 . S
C1691 C1690 1.287 . S
C1691 C1692 1.524 . S
C1691 H1694 0.999 . S
C1692 H1662 0.950 . S
C1692 C1691 1.524 . S
C1692 C1693 1.415 . S
C1693 H1663 0.950 . S
C1693 C1688 1.363 . S
C1693 C1692 1.415 . S
H1694 C1691 0.999 . S
H1695 C1676 0.913 . S
H1696 C1714 0.951 . S
H1697 C1716 0.951 . S
H1698 C1718 0.950 . S
H1699 C1719 0.950 . S
H1700 C1721 0.950 . S
H1701 C1724 0.950 . S
H1702 C1725 0.950 . S
H1703 C1727 0.950 . S
H1704 C1728 0.950 . S
H1705 C1729 0.951 . S
H1706 C1731 0.951 . S
H1707 C1733 0.950 . S
H1708 C1734 0.950 . S
H1709 C1736 0.950 . S
H1710 C1739 0.950 . S
H1711 C1740 0.950 . S
H1712 C1742 0.950 . S
H1713 C1743 0.950 . S
C1714 H1696 0.951 . S
C1714 C1715 1.366 . S
C1714 C1716 1.388 . S
C1715 C1714 1.366 . S
C1715 C1719 1.385 . S
C1716 H1697 0.951 . S
C1716 C1714 1.388 . S
C1716 C1717 1.366 . S
C1717 C1716 1.366 . S
C1717 C1718 1.414 . S
C1717 C1720 1.499 . S
C1718 H1698 0.950 . S
C1718 C1717 1.414 . S
C1718 C1719 1.374 . S
C1719 H1699 0.950 . S
C1719 C1715 1.385 . S
C1719 C1718 1.374 . S
C1720 C1717 1.499 . S
C1720 C1721 1.373 . S
C1720 C1722 1.389 . S
C1721 H1700 0.950 . S
C1721 C1720 1.373 . S
C1721 C1737 1.377 . S
C1722 C1720 1.389 . S
C1722 C1723 1.524 . S
C1722 C1736 1.377 . S
C1723 C1722 1.524 . S
C1723 C1724 1.397 . S
C1723 C1728 1.363 . S
C1724 H1701 0.950 . S
C1724 C1723 1.397 . S
C1724 C1725 1.334 . S
C1725 H1702 0.950 . S
C1725 C1724 1.334 . S
C1725 C1726 1.287 . S
C1726 C1725 1.287 . S
C1726 C1727 1.524 . S
C1726 H1745 0.913 . S
C1727 H1703 0.950 . S
C1727 C1726 1.524 . S
C1727 C1728 1.415 . S
C1728 H1704 0.950 . S
C1728 C1723 1.363 . S
C1728 C1727 1.415 . S
C1729 H1705 0.951 . S
C1729 C1730 1.366 . S
C1729 C1731 1.388 . S
C1730 C1729 1.366 . S
C1730 C1734 1.385 . S
C1731 H1706 0.951 . S
C1731 C1729 1.388 . S
C1731 C1732 1.366 . S
C1732 C1731 1.366 . S
C1732 C1733 1.414 . S
C1732 C1735 1.499 . S
C1733 H1707 0.950 . S
C1733 C1732 1.414 . S
C1733 C1734 1.374 . S
C1734 H1708 0.950 . S
C1734 C1730 1.385 . S
C1734 C1733 1.374 . S
C1735 C1732 1.499 . S
C1735 C1736 1.373 . S
C1735 C1737 1.389 . S
C1736 H1709 0.950 . S
C1736 C1722 1.377 . S
C1736 C1735 1.373 . S
C1737 C1721 1.377 . S
C1737 C1735 1.389 . S
C1737 C1738 1.524 . S
C1738 C1737 1.524 . S
C1738 C1739 1.397 . S
C1738 C1743 1.363 . S
C1739 H1710 0.950 . S
C1739 C1738 1.397 . S
C1739 C1740 1.334 . S
C1740 H1711 0.950 . S
C1740 C1739 1.334 . S
C1740 C1741 1.287 . S
C1741 C1740 1.287 . S
C1741 C1742 1.524 . S
C1741 H1744 0.999 . S
C1742 H1712 0.950 . S
C1742 C1741 1.524 . S
C1742 C1743 1.415 . S
C1743 H1713 0.950 . S
C1743 C1738 1.363 . S
C1743 C1742 1.415 . S
H1744 C1741 0.999 . S
H1745 C1726 0.913 . S
H1746 C1764 0.951 . S
H1747 C1766 0.951 . S
H1748 C1768 0.950 . S
H1749 C1769 0.950 . S
H1750 C1771 0.950 . S
H1751 C1774 0.950 . S
H1752 C1775 0.950 . S
H1753 C1777 0.950 . S
H1754 C1778 0.950 . S
H1755 C1779 0.951 . S
H1756 C1781 0.951 . S
H1757 C1783 0.950 . S
H1758 C1784 0.950 . S
H1759 C1786 0.950 . S
H1760 C1789 0.950 . S
H1761 C1790 0.950 . S
H1762 C1792 0.950 . S
H1763 C1793 0.950 . S
C1764 H1746 0.951 . S
C1764 C1765 1.366 . S
C1764 C1766 1.388 . S
C1765 C1764 1.366 . S
C1765 C1769 1.385 . S
C1766 H1747 0.951 . S
C1766 C1764 1.388 . S
C1766 C1767 1.366 . S
C1767 C1766 1.366 . S
C1767 C1768 1.414 . S
C1767 C1770 1.499 . S
C1768 H1748 0.950 . S
C1768 C1767 1.414 . S
C1768 C1769 1.374 . S
C1769 H1749 0.950 . S
C1769 C1765 1.385 . S
C1769 C1768 1.374 . S
C1770 C1767 1.499 . S
C1770 C1771 1.373 . S
C1770 C1772 1.389 . S
C1771 H1750 0.950 . S
C1771 C1770 1.373 . S
C1771 C1787 1.377 . S
C1772 C1770 1.389 . S
C1772 C1773 1.524 . S
C1772 C1786 1.377 . S
C1773 C1772 1.524 . S
C1773 C1774 1.397 . S
C1773 C1778 1.363 . S
C1774 H1751 0.950 . S
C1774 C1773 1.397 . S
C1774 C1775 1.334 . S
C1775 H1752 0.950 . S
C1775 C1774 1.334 . S
C1775 C1776 1.287 . S
C1776 C1775 1.287 . S
C1776 C1777 1.524 . S
C1776 H1795 0.913 1_554 S
C1777 H1753 0.950 . S
C1777 C1776 1.524 . S
C1777 C1778 1.415 . S
C1778 H1754 0.950 . S
C1778 C1773 1.363 . S
C1778 C1777 1.415 . S
C1779 H1755 0.951 . S
C1779 C1780 1.366 . S
C1779 C1781 1.388 . S
C1780 C1779 1.366 . S
C1780 C1784 1.385 . S
C1781 H1756 0.951 . S
C1781 C1779 1.388 . S
C1781 C1782 1.366 . S
C1782 C1781 1.366 . S
C1782 C1783 1.414 . S
C1782 C1785 1.499 . S
C1783 H1757 0.950 . S
C1783 C1782 1.414 . S
C1783 C1784 1.374 . S
C1784 H1758 0.950 . S
C1784 C1780 1.385 . S
C1784 C1783 1.374 . S
C1785 C1782 1.499 . S
C1785 C1786 1.373 . S
C1785 C1787 1.389 . S
C1786 H1759 0.950 . S
C1786 C1772 1.377 . S
C1786 C1785 1.373 . S
C1787 C1771 1.377 . S
C1787 C1785 1.389 . S
C1787 C1788 1.524 . S
C1788 C1787 1.524 . S
C1788 C1789 1.397 . S
C1788 C1793 1.363 . S
C1789 H1760 0.950 . S
C1789 C1788 1.397 . S
C1789 C1790 1.334 . S
C1790 H1761 0.950 . S
C1790 C1789 1.334 . S
C1790 C1791 1.287 . S
C1791 C1790 1.287 . S
C1791 C1792 1.524 . S
C1791 H1794 0.999 . S
C1792 H1762 0.950 . S
C1792 C1791 1.524 . S
C1792 C1793 1.415 . S
C1793 H1763 0.950 . S
C1793 C1788 1.363 . S
C1793 C1792 1.415 . S
H1794 C1791 0.999 . S
H1795 C1776 0.913 1_556 S
H1796 C1814 0.951 . S
H1797 C1816 0.951 . S
H1798 C1818 0.950 . S
H1799 C1819 0.950 . S
H1800 C1821 0.950 . S
H1801 C1824 0.950 . S
H1802 C1825 0.950 . S
H1803 C1827 0.950 . S
H1804 C1828 0.950 . S
H1805 C1829 0.951 . S
H1806 C1831 0.951 . S
H1807 C1833 0.950 . S
H1808 C1834 0.950 . S
H1809 C1836 0.950 . S
H1810 C1839 0.950 . S
H1811 C1840 0.950 . S
H1812 C1842 0.950 . S
H1813 C1843 0.950 . S
C1814 H1796 0.951 . S
C1814 C1815 1.366 . S
C1814 C1816 1.388 . S
C1815 C1814 1.366 . S
C1815 C1819 1.385 . S
C1816 H1797 0.951 . S
C1816 C1814 1.388 . S
C1816 C1817 1.366 . S
C1817 C1816 1.366 . S
C1817 C1818 1.414 . S
C1817 C1820 1.499 . S
C1818 H1798 0.950 . S
C1818 C1817 1.414 . S
C1818 C1819 1.374 . S
C1819 H1799 0.950 . S
C1819 C1815 1.385 . S
C1819 C1818 1.374 . S
C1820 C1817 1.499 . S
C1820 C1821 1.373 . S
C1820 C1822 1.389 . S
C1821 H1800 0.950 . S
C1821 C1820 1.373 . S
C1821 C1837 1.377 . S
C1822 C1820 1.389 . S
C1822 C1823 1.524 . S
C1822 C1836 1.377 . S
C1823 C1822 1.524 . S
C1823 C1824 1.397 . S
C1823 C1828 1.363 . S
C1824 H1801 0.950 . S
C1824 C1823 1.397 . S
C1824 C1825 1.334 . S
C1825 H1802 0.950 . S
C1825 C1824 1.334 . S
C1825 C1826 1.287 . S
C1826 C1825 1.287 . S
C1826 C1827 1.524 . S
C1826 H1845 0.913 . S
C1827 H1803 0.950 . S
C1827 C1826 1.524 . S
C1827 C1828 1.415 . S
C1828 H1804 0.950 . S
C1828 C1823 1.363 . S
C1828 C1827 1.415 . S
C1829 H1805 0.951 . S
C1829 C1830 1.366 . S
C1829 C1831 1.388 . S
C1830 C1829 1.366 . S
C1830 C1834 1.385 . S
C1831 H1806 0.951 . S
C1831 C1829 1.388 . S
C1831 C1832 1.366 . S
C1832 C1831 1.366 . S
C1832 C1833 1.414 . S
C1832 C1835 1.499 . S
C1833 H1807 0.950 . S
C1833 C1832 1.414 . S
C1833 C1834 1.374 . S
C1834 H1808 0.950 . S
C1834 C1830 1.385 . S
C1834 C1833 1.374 . S
C1835 C1832 1.499 . S
C1835 C1836 1.373 . S
C1835 C1837 1.389 . S
C1836 H1809 0.950 . S
C1836 C1822 1.377 . S
C1836 C1835 1.373 . S
C1837 C1821 1.377 . S
C1837 C1835 1.389 . S
C1837 C1838 1.524 . S
C1838 C1837 1.524 . S
C1838 C1839 1.397 . S
C1838 C1843 1.363 . S
C1839 H1810 0.950 . S
C1839 C1838 1.397 . S
C1839 C1840 1.334 . S
C1840 H1811 0.950 . S
C1840 C1839 1.334 . S
C1840 C1841 1.287 . S
C1841 C1840 1.287 . S
C1841 C1842 1.524 . S
C1841 H1844 0.999 . S
C1842 H1812 0.950 . S
C1842 C1841 1.524 . S
C1842 C1843 1.415 . S
C1843 H1813 0.950 . S
C1843 C1838 1.363 . S
C1843 C1842 1.415 . S
H1844 C1841 0.999 . S
H1845 C1826 0.913 . S
H1846 C1864 0.951 . S
H1847 C1866 0.951 . S
H1848 C1868 0.950 . S
H1849 C1869 0.950 . S
H1850 C1871 0.950 . S
H1851 C1874 0.950 . S
H1852 C1875 0.950 . S
H1853 C1877 0.950 . S
H1854 C1878 0.950 . S
H1855 C1879 0.951 . S
H1856 C1881 0.951 . S
H1857 C1883 0.950 . S
H1858 C1884 0.950 . S
H1859 C1886 0.950 . S
H1860 C1889 0.950 . S
H1861 C1890 0.950 . S
H1862 C1892 0.950 . S
H1863 C1893 0.950 . S
C1864 H1846 0.951 . S
C1864 C1865 1.366 . S
C1864 C1866 1.388 . S
C1865 C1864 1.366 . S
C1865 C1869 1.385 . S
C1866 H1847 0.951 . S
C1866 C1864 1.388 . S
C1866 C1867 1.366 . S
C1867 C1866 1.366 . S
C1867 C1868 1.414 . S
C1867 C1870 1.499 . S
C1868 H1848 0.950 . S
C1868 C1867 1.414 . S
C1868 C1869 1.374 . S
C1869 H1849 0.950 . S
C1869 C1865 1.385 . S
C1869 C1868 1.374 . S
C1870 C1867 1.499 . S
C1870 C1871 1.373 . S
C1870 C1872 1.389 . S
C1871 H1850 0.950 . S
C1871 C1870 1.373 . S
C1871 C1887 1.377 . S
C1872 C1870 1.389 . S
C1872 C1873 1.524 . S
C1872 C1886 1.377 . S
C1873 C1872 1.524 . S
C1873 C1874 1.397 . S
C1873 C1878 1.363 . S
C1874 H1851 0.950 . S
C1874 C1873 1.397 . S
C1874 C1875 1.334 . S
C1875 H1852 0.950 . S
C1875 C1874 1.334 . S
C1875 C1876 1.287 . S
C1876 C1875 1.287 . S
C1876 C1877 1.524 . S
C1876 H1895 0.913 . S
C1877 H1853 0.950 . S
C1877 C1876 1.524 . S
C1877 C1878 1.415 . S
C1878 H1854 0.950 . S
C1878 C1873 1.363 . S
C1878 C1877 1.415 . S
C1879 H1855 0.951 . S
C1879 C1880 1.366 . S
C1879 C1881 1.388 . S
C1880 C1879 1.366 . S
C1880 C1884 1.385 . S
C1881 H1856 0.951 . S
C1881 C1879 1.388 . S
C1881 C1882 1.366 . S
C1882 C1881 1.366 . S
C1882 C1883 1.414 . S
C1882 C1885 1.499 . S
C1883 H1857 0.950 . S
C1883 C1882 1.414 . S
C1883 C1884 1.374 . S
C1884 H1858 0.950 . S
C1884 C1880 1.385 . S
C1884 C1883 1.374 . S
C1885 C1882 1.499 . S
C1885 C1886 1.373 . S
C1885 C1887 1.389 . S
C1886 H1859 0.950 . S
C1886 C1872 1.377 . S
C1886 C1885 1.373 . S
C1887 C1871 1.377 . S
C1887 C1885 1.389 . S
C1887 C1888 1.524 . S
C1888 C1887 1.524 . S
C1888 C1889 1.397 . S
C1888 C1893 1.363 . S
C1889 H1860 0.950 . S
C1889 C1888 1.397 . S
C1889 C1890 1.334 . S
C1890 H1861 0.950 . S
C1890 C1889 1.334 . S
C1890 C1891 1.287 . S
C1891 C1890 1.287 . S
C1891 C1892 1.524 . S
C1891 H1894 0.999 . S
C1892 H1862 0.950 . S
C1892 C1891 1.524 . S
C1892 C1893 1.415 . S
C1893 H1863 0.950 . S
C1893 C1888 1.363 . S
C1893 C1892 1.415 . S
H1894 C1891 0.999 . S
H1895 C1876 0.913 . S
H1896 C1914 0.951 . S
H1897 C1916 0.951 . S
H1898 C1918 0.950 . S
H1899 C1919 0.950 . S
H1900 C1921 0.950 . S
H1901 C1924 0.950 . S
H1902 C1925 0.950 . S
H1903 C1927 0.950 . S
H1904 C1928 0.950 . S
H1905 C1929 0.951 . S
H1906 C1931 0.951 . S
H1907 C1933 0.950 . S
H1908 C1934 0.950 . S
H1909 C1936 0.950 . S
H1910 C1939 0.950 . S
H1911 C1940 0.950 . S
H1912 C1942 0.950 . S
H1913 C1943 0.950 . S
C1914 H1896 0.951 . S
C1914 C1915 1.366 . S
C1914 C1916 1.388 . S
C1915 C1914 1.366 . S
C1915 C1919 1.385 . S
C1916 H1897 0.951 . S
C1916 C1914 1.388 . S
C1916 C1917 1.366 . S
C1917 C1916 1.366 . S
C1917 C1918 1.414 . S
C1917 C1920 1.499 . S
C1918 H1898 0.950 . S
C1918 C1917 1.414 . S
C1918 C1919 1.374 . S
C1919 H1899 0.950 . S
C1919 C1915 1.385 . S
C1919 C1918 1.374 . S
C1920 C1917 1.499 . S
C1920 C1921 1.373 . S
C1920 C1922 1.389 . S
C1921 H1900 0.950 . S
C1921 C1920 1.373 . S
C1921 C1937 1.377 . S
C1922 C1920 1.389 . S
C1922 C1923 1.524 . S
C1922 C1936 1.377 . S
C1923 C1922 1.524 . S
C1923 C1924 1.397 . S
C1923 C1928 1.363 . S
C1924 H1901 0.950 . S
C1924 C1923 1.397 . S
C1924 C1925 1.334 . S
C1925 H1902 0.950 . S
C1925 C1924 1.334 . S
C1925 C1926 1.287 . S
C1926 C1925 1.287 . S
C1926 C1927 1.524 . S
C1926 H1945 0.913 . S
C1927 H1903 0.950 . S
C1927 C1926 1.524 . S
C1927 C1928 1.415 . S
C1928 H1904 0.950 . S
C1928 C1923 1.363 . S
C1928 C1927 1.415 . S
C1929 H1905 0.951 . S
C1929 C1930 1.366 . S
C1929 C1931 1.388 . S
C1930 C1929 1.366 . S
C1930 C1934 1.385 . S
C1931 H1906 0.951 . S
C1931 C1929 1.388 . S
C1931 C1932 1.366 . S
C1932 C1931 1.366 . S
C1932 C1933 1.414 . S
C1932 C1935 1.499 . S
C1933 H1907 0.950 . S
C1933 C1932 1.414 . S
C1933 C1934 1.374 . S
C1934 H1908 0.950 . S
C1934 C1930 1.385 . S
C1934 C1933 1.374 . S
C1935 C1932 1.499 . S
C1935 C1936 1.373 . S
C1935 C1937 1.389 . S
C1936 H1909 0.950 . S
C1936 C1922 1.377 . S
C1936 C1935 1.373 . S
C1937 C1921 1.377 . S
C1937 C1935 1.389 . S
C1937 C1938 1.524 . S
C1938 C1937 1.524 . S
C1938 C1939 1.397 . S
C1938 C1943 1.363 . S
C1939 H1910 0.950 . S
C1939 C1938 1.397 . S
C1939 C1940 1.334 . S
C1940 H1911 0.950 . S
C1940 C1939 1.334 . S
C1940 C1941 1.287 . S
C1941 C1940 1.287 . S
C1941 C1942 1.524 . S
C1941 H1944 0.999 . S
C1942 H1912 0.950 . S
C1942 C1941 1.524 . S
C1942 C1943 1.415 . S
C1943 H1913 0.950 . S
C1943 C1938 1.363 . S
C1943 C1942 1.415 . S
H1944 C1941 0.999 . S
H1945 C1926 0.913 . S
H1946 C1964 0.951 . S
H1947 C1966 0.951 . S
H1948 C1968 0.950 . S
H1949 C1969 0.950 . S
H1950 C1971 0.950 . S
H1951 C1974 0.950 . S
H1952 C1975 0.950 . S
H1953 C1977 0.950 . S
H1954 C1978 0.950 . S
H1955 C1979 0.951 . S
H1956 C1981 0.951 . S
H1957 C1983 0.950 . S
H1958 C1984 0.950 . S
H1959 C1986 0.950 . S
H1960 C1989 0.950 . S
H1961 C1990 0.950 . S
H1962 C1992 0.950 . S
H1963 C1993 0.950 . S
C1964 H1946 0.951 . S
C1964 C1965 1.366 . S
C1964 C1966 1.388 . S
C1965 C1964 1.366 . S
C1965 C1969 1.385 . S
C1966 H1947 0.951 . S
C1966 C1964 1.388 . S
C1966 C1967 1.366 . S
C1967 C1966 1.366 . S
C1967 C1968 1.414 . S
C1967 C1970 1.499 . S
C1968 H1948 0.950 . S
C1968 C1967 1.414 . S
C1968 C1969 1.374 . S
C1969 H1949 0.950 . S
C1969 C1965 1.385 . S
C1969 C1968 1.374 . S
C1970 C1967 1.499 . S
C1970 C1971 1.373 . S
C1970 C1972 1.389 . S
C1971 H1950 0.950 . S
C1971 C1970 1.373 . S
C1971 C1987 1.377 . S
C1972 C1970 1.389 . S
C1972 C1973 1.524 . S
C1972 C1986 1.377 . S
C1973 C1972 1.524 . S
C1973 C1974 1.397 . S
C1973 C1978 1.363 . S
C1974 H1951 0.950 . S
C1974 C1973 1.397 . S
C1974 C1975 1.334 . S
C1975 H1952 0.950 . S
C1975 C1974 1.334 . S
C1975 C1976 1.287 . S
C1976 C1975 1.287 . S
C1976 C1977 1.524 . S
C1976 H1995 0.913 . S
C1977 H1953 0.950 . S
C1977 C1976 1.524 . S
C1977 C1978 1.415 . S
C1978 H1954 0.950 . S
C1978 C1973 1.363 . S
C1978 C1977 1.415 . S
C1979 H1955 0.951 . S
C1979 C1980 1.366 . S
C1979 C1981 1.388 . S
C1980 C1979 1.366 . S
C1980 C1984 1.385 . S
C1981 H1956 0.951 . S
C1981 C1979 1.388 . S
C1981 C1982 1.366 . S
C1982 C1981 1.366 . S
C1982 C1983 1.414 . S
C1982 C1985 1.499 . S
C1983 H1957 0.950 . S
C1983 C1982 1.414 . S
C1983 C1984 1.374 . S
C1984 H1958 0.950 . S
C1984 C1980 1.385 . S
C1984 C1983 1.374 . S
C1985 C1982 1.499 . S
C1985 C1986 1.373 . S
C1985 C1987 1.389 . S
C1986 H1959 0.950 . S
C1986 C1972 1.377 . S
C1986 C1985 1.373 . S
C1987 C1971 1.377 . S
C1987 C1985 1.389 . S
C1987 C1988 1.524 . S
C1988 C1987 1.524 . S
C1988 C1989 1.397 . S
C1988 C1993 1.363 . S
C1989 H1960 0.950 . S
C1989 C1988 1.397 . S
C1989 C1990 1.334 . S
C1990 H1961 0.950 . S
C1990 C1989 1.334 . S
C1990 C1991 1.287 . S
C1991 C1990 1.287 . S
C1991 C1992 1.524 . S
C1991 H1994 0.999 . S
C1992 H1962 0.950 . S
C1992 C1991 1.524 . S
C1992 C1993 1.415 . S
C1993 H1963 0.950 . S
C1993 C1988 1.363 . S
C1993 C1992 1.415 . S
H1994 C1991 0.999 . S
H1995 C1976 0.913 . S
H1996 C2014 0.951 . S
H1997 C2016 0.951 . S
H1998 C2018 0.950 . S
H1999 C2019 0.950 . S
H2000 C2021 0.950 . S
H2001 C2024 0.950 . S
H2002 C2025 0.950 . S
H2003 C2027 0.950 . S
H2004 C2028 0.950 . S
H2005 C2029 0.951 . S
H2006 C2031 0.951 . S
H2007 C2033 0.950 . S
H2008 C2034 0.950 . S
H2009 C2036 0.950 . S
H2010 C2039 0.950 . S
H2011 C2040 0.950 . S
H2012 C2042 0.950 . S
H2013 C2043 0.950 . S
C2014 H1996 0.951 . S
C2014 C2015 1.366 . S
C2014 C2016 1.388 . S
C2015 C2014 1.366 . S
C2015 C2019 1.385 . S
C2016 H1997 0.951 . S
C2016 C2014 1.388 . S
C2016 C2017 1.366 . S
C2017 C2016 1.366 . S
C2017 C2018 1.414 . S
C2017 C2020 1.499 . S
C2018 H1998 0.950 . S
C2018 C2017 1.414 . S
C2018 C2019 1.374 . S
C2019 H1999 0.950 . S
C2019 C2015 1.385 . S
C2019 C2018 1.374 . S
C2020 C2017 1.499 . S
C2020 C2021 1.373 . S
C2020 C2022 1.389 . S
C2021 H2000 0.950 . S
C2021 C2020 1.373 . S
C2021 C2037 1.377 . S
C2022 C2020 1.389 . S
C2022 C2023 1.524 . S
C2022 C2036 1.377 . S
C2023 C2022 1.524 . S
C2023 C2024 1.397 . S
C2023 C2028 1.363 . S
C2024 H2001 0.950 . S
C2024 C2023 1.397 . S
C2024 C2025 1.334 . S
C2025 H2002 0.950 . S
C2025 C2024 1.334 . S
C2025 C2026 1.287 . S
C2026 C2025 1.287 . S
C2026 C2027 1.524 . S
C2026 H2045 0.913 . S
C2027 H2003 0.950 . S
C2027 C2026 1.524 . S
C2027 C2028 1.415 . S
C2028 H2004 0.950 . S
C2028 C2023 1.363 . S
C2028 C2027 1.415 . S
C2029 H2005 0.951 . S
C2029 C2030 1.366 . S
C2029 C2031 1.388 . S
C2030 C2029 1.366 . S
C2030 C2034 1.385 . S
C2031 H2006 0.951 . S
C2031 C2029 1.388 . S
C2031 C2032 1.366 . S
C2032 C2031 1.366 . S
C2032 C2033 1.414 . S
C2032 C2035 1.499 . S
C2033 H2007 0.950 . S
C2033 C2032 1.414 . S
C2033 C2034 1.374 . S
C2034 H2008 0.950 . S
C2034 C2030 1.385 . S
C2034 C2033 1.374 . S
C2035 C2032 1.499 . S
C2035 C2036 1.373 . S
C2035 C2037 1.389 . S
C2036 H2009 0.950 . S
C2036 C2022 1.377 . S
C2036 C2035 1.373 . S
C2037 C2021 1.377 . S
C2037 C2035 1.389 . S
C2037 C2038 1.524 . S
C2038 C2037 1.524 . S
C2038 C2039 1.397 . S
C2038 C2043 1.363 . S
C2039 H2010 0.950 . S
C2039 C2038 1.397 . S
C2039 C2040 1.334 . S
C2040 H2011 0.950 . S
C2040 C2039 1.334 . S
C2040 C2041 1.287 . S
C2041 C2040 1.287 . S
C2041 C2042 1.524 . S
C2041 H2044 0.999 . S
C2042 H2012 0.950 . S
C2042 C2041 1.524 . S
C2042 C2043 1.415 . S
C2043 H2013 0.950 . S
C2043 C2038 1.363 . S
C2043 C2042 1.415 . S
H2044 C2041 0.999 . S
H2045 C2026 0.913 . S
H2046 C2064 0.951 . S
H2047 C2066 0.951 . S
H2048 C2068 0.950 . S
H2049 C2069 0.950 . S
H2050 C2071 0.950 . S
H2051 C2074 0.950 . S
H2052 C2075 0.950 . S
H2053 C2077 0.950 . S
H2054 C2078 0.950 . S
H2055 C2079 0.951 . S
H2056 C2081 0.951 . S
H2057 C2083 0.950 . S
H2058 C2084 0.950 . S
H2059 C2086 0.950 . S
H2060 C2089 0.950 . S
H2061 C2090 0.950 . S
H2062 C2092 0.950 . S
H2063 C2093 0.950 . S
C2064 H2046 0.951 . S
C2064 C2065 1.366 . S
C2064 C2066 1.388 . S
C2065 C2064 1.366 . S
C2065 C2069 1.385 . S
C2066 H2047 0.951 . S
C2066 C2064 1.388 . S
C2066 C2067 1.366 . S
C2067 C2066 1.366 . S
C2067 C2068 1.414 . S
C2067 C2070 1.499 . S
C2068 H2048 0.950 . S
C2068 C2067 1.414 . S
C2068 C2069 1.374 . S
C2069 H2049 0.950 . S
C2069 C2065 1.385 . S
C2069 C2068 1.374 . S
C2070 C2067 1.499 . S
C2070 C2071 1.373 . S
C2070 C2072 1.389 . S
C2071 H2050 0.950 . S
C2071 C2070 1.373 . S
C2071 C2087 1.377 . S
C2072 C2070 1.389 . S
C2072 C2073 1.524 . S
C2072 C2086 1.377 . S
C2073 C2072 1.524 . S
C2073 C2074 1.397 . S
C2073 C2078 1.363 . S
C2074 H2051 0.950 . S
C2074 C2073 1.397 . S
C2074 C2075 1.334 . S
C2075 H2052 0.950 . S
C2075 C2074 1.334 . S
C2075 C2076 1.287 . S
C2076 C2075 1.287 . S
C2076 C2077 1.524 . S
C2076 H2095 0.913 . S
C2077 H2053 0.950 . S
C2077 C2076 1.524 . S
C2077 C2078 1.415 . S
C2078 H2054 0.950 . S
C2078 C2073 1.363 . S
C2078 C2077 1.415 . S
C2079 H2055 0.951 . S
C2079 C2080 1.366 . S
C2079 C2081 1.388 . S
C2080 C2079 1.366 . S
C2080 C2084 1.385 . S
C2081 H2056 0.951 . S
C2081 C2079 1.388 . S
C2081 C2082 1.366 . S
C2082 C2081 1.366 . S
C2082 C2083 1.414 . S
C2082 C2085 1.499 . S
C2083 H2057 0.950 . S
C2083 C2082 1.414 . S
C2083 C2084 1.374 . S
C2084 H2058 0.950 . S
C2084 C2080 1.385 . S
C2084 C2083 1.374 . S
C2085 C2082 1.499 . S
C2085 C2086 1.373 . S
C2085 C2087 1.389 . S
C2086 H2059 0.950 . S
C2086 C2072 1.377 . S
C2086 C2085 1.373 . S
C2087 C2071 1.377 . S
C2087 C2085 1.389 . S
C2087 C2088 1.524 . S
C2088 C2087 1.524 . S
C2088 C2089 1.397 . S
C2088 C2093 1.363 . S
C2089 H2060 0.950 . S
C2089 C2088 1.397 . S
C2089 C2090 1.334 . S
C2090 H2061 0.950 . S
C2090 C2089 1.334 . S
C2090 C2091 1.287 . S
C2091 C2090 1.287 . S
C2091 C2092 1.524 . S
C2091 H2094 0.999 . S
C2092 H2062 0.950 . S
C2092 C2091 1.524 . S
C2092 C2093 1.415 . S
C2093 H2063 0.950 . S
C2093 C2088 1.363 . S
C2093 C2092 1.415 . S
H2094 C2091 0.999 . S
H2095 C2076 0.913 . S
H2096 C2114 0.951 . S
H2097 C2116 0.951 . S
H2098 C2118 0.950 . S
H2099 C2119 0.950 . S
H2100 C2121 0.950 . S
H2101 C2124 0.950 . S
H2102 C2125 0.950 . S
H2103 C2127 0.950 . S
H2104 C2128 0.950 . S
H2105 C2129 0.951 . S
H2106 C2131 0.951 . S
H2107 C2133 0.950 . S
H2108 C2134 0.950 . S
H2109 C2136 0.950 . S
H2110 C2139 0.950 . S
H2111 C2140 0.950 . S
H2112 C2142 0.950 . S
H2113 C2143 0.950 . S
C2114 H2096 0.951 . S
C2114 C2115 1.366 . S
C2114 C2116 1.388 . S
C2115 C2114 1.366 . S
C2115 C2119 1.385 . S
C2116 H2097 0.951 . S
C2116 C2114 1.388 . S
C2116 C2117 1.366 . S
C2117 C2116 1.366 . S
C2117 C2118 1.414 . S
C2117 C2120 1.499 . S
C2118 H2098 0.950 . S
C2118 C2117 1.414 . S
C2118 C2119 1.374 . S
C2119 H2099 0.950 . S
C2119 C2115 1.385 . S
C2119 C2118 1.374 . S
C2120 C2117 1.499 . S
C2120 C2121 1.373 . S
C2120 C2122 1.389 . S
C2121 H2100 0.950 . S
C2121 C2120 1.373 . S
C2121 C2137 1.377 . S
C2122 C2120 1.389 . S
C2122 C2123 1.524 . S
C2122 C2136 1.377 . S
C2123 C2122 1.524 . S
C2123 C2124 1.397 . S
C2123 C2128 1.363 . S
C2124 H2101 0.950 . S
C2124 C2123 1.397 . S
C2124 C2125 1.334 . S
C2125 H2102 0.950 . S
C2125 C2124 1.334 . S
C2125 C2126 1.287 . S
C2126 C2125 1.287 . S
C2126 C2127 1.524 . S
C2126 H2145 0.913 . S
C2127 H2103 0.950 . S
C2127 C2126 1.524 . S
C2127 C2128 1.415 . S
C2128 H2104 0.950 . S
C2128 C2123 1.363 . S
C2128 C2127 1.415 . S
C2129 H2105 0.951 . S
C2129 C2130 1.366 . S
C2129 C2131 1.388 . S
C2130 C2129 1.366 . S
C2130 C2134 1.385 . S
C2131 H2106 0.951 . S
C2131 C2129 1.388 . S
C2131 C2132 1.366 . S
C2132 C2131 1.366 . S
C2132 C2133 1.414 . S
C2132 C2135 1.499 . S
C2133 H2107 0.950 . S
C2133 C2132 1.414 . S
C2133 C2134 1.374 . S
C2134 H2108 0.950 . S
C2134 C2130 1.385 . S
C2134 C2133 1.374 . S
C2135 C2132 1.499 . S
C2135 C2136 1.373 . S
C2135 C2137 1.389 . S
C2136 H2109 0.950 . S
C2136 C2122 1.377 . S
C2136 C2135 1.373 . S
C2137 C2121 1.377 . S
C2137 C2135 1.389 . S
C2137 C2138 1.524 . S
C2138 C2137 1.524 . S
C2138 C2139 1.397 . S
C2138 C2143 1.363 . S
C2139 H2110 0.950 . S
C2139 C2138 1.397 . S
C2139 C2140 1.334 . S
C2140 H2111 0.950 . S
C2140 C2139 1.334 . S
C2140 C2141 1.287 . S
C2141 C2140 1.287 . S
C2141 C2142 1.524 . S
C2141 H2144 0.999 . S
C2142 H2112 0.950 . S
C2142 C2141 1.524 . S
C2142 C2143 1.415 . S
C2143 H2113 0.950 . S
C2143 C2138 1.363 . S
C2143 C2142 1.415 . S
H2144 C2141 0.999 . S
H2145 C2126 0.913 . S
H2146 C2164 0.951 . S
H2147 C2166 0.951 . S
H2148 C2168 0.950 . S
H2149 C2169 0.950 . S
H2150 C2171 0.950 . S
H2151 C2174 0.950 . S
H2152 C2175 0.950 . S
H2153 C2177 0.950 . S
H2154 C2178 0.950 . S
H2155 C2179 0.951 . S
H2156 C2181 0.951 . S
H2157 C2183 0.950 . S
H2158 C2184 0.950 . S
H2159 C2186 0.950 . S
H2160 C2189 0.950 . S
H2161 C2190 0.950 . S
H2162 C2192 0.950 . S
H2163 C2193 0.950 . S
C2164 H2146 0.951 . S
C2164 C2165 1.366 . S
C2164 C2166 1.388 . S
C2165 C2164 1.366 . S
C2165 C2169 1.385 . S
C2166 H2147 0.951 . S
C2166 C2164 1.388 . S
C2166 C2167 1.366 . S
C2167 C2166 1.366 . S
C2167 C2168 1.414 . S
C2167 C2170 1.499 . S
C2168 H2148 0.950 . S
C2168 C2167 1.414 . S
C2168 C2169 1.374 . S
C2169 H2149 0.950 . S
C2169 C2165 1.385 . S
C2169 C2168 1.374 . S
C2170 C2167 1.499 . S
C2170 C2171 1.373 . S
C2170 C2172 1.389 . S
C2171 H2150 0.950 . S
C2171 C2170 1.373 . S
C2171 C2187 1.377 . S
C2172 C2170 1.389 . S
C2172 C2173 1.524 . S
C2172 C2186 1.377 . S
C2173 C2172 1.524 . S
C2173 C2174 1.397 . S
C2173 C2178 1.363 . S
C2174 H2151 0.950 . S
C2174 C2173 1.397 . S
C2174 C2175 1.334 . S
C2175 H2152 0.950 . S
C2175 C2174 1.334 . S
C2175 C2176 1.287 . S
C2176 C2175 1.287 . S
C2176 C2177 1.524 . S
C2176 H2195 0.913 . S
C2177 H2153 0.950 . S
C2177 C2176 1.524 . S
C2177 C2178 1.415 . S
C2178 H2154 0.950 . S
C2178 C2173 1.363 . S
C2178 C2177 1.415 . S
C2179 H2155 0.951 . S
C2179 C2180 1.366 . S
C2179 C2181 1.388 . S
C2180 C2179 1.366 . S
C2180 C2184 1.385 . S
C2181 H2156 0.951 . S
C2181 C2179 1.388 . S
C2181 C2182 1.366 . S
C2182 C2181 1.366 . S
C2182 C2183 1.414 . S
C2182 C2185 1.499 . S
C2183 H2157 0.950 . S
C2183 C2182 1.414 . S
C2183 C2184 1.374 . S
C2184 H2158 0.950 . S
C2184 C2180 1.385 . S
C2184 C2183 1.374 . S
C2185 C2182 1.499 . S
C2185 C2186 1.373 . S
C2185 C2187 1.389 . S
C2186 H2159 0.950 . S
C2186 C2172 1.377 . S
C2186 C2185 1.373 . S
C2187 C2171 1.377 . S
C2187 C2185 1.389 . S
C2187 C2188 1.524 . S
C2188 C2187 1.524 . S
C2188 C2189 1.397 . S
C2188 C2193 1.363 . S
C2189 H2160 0.950 . S
C2189 C2188 1.397 . S
C2189 C2190 1.334 . S
C2190 H2161 0.950 . S
C2190 C2189 1.334 . S
C2190 C2191 1.287 . S
C2191 C2190 1.287 . S
C2191 C2192 1.524 . S
C2191 H2194 0.999 . S
C2192 H2162 0.950 . S
C2192 C2191 1.524 . S
C2192 C2193 1.415 . S
C2193 H2163 0.950 . S
C2193 C2188 1.363 . S
C2193 C2192 1.415 . S
H2194 C2191 0.999 . S
H2195 C2176 0.913 . S
H2196 C2214 0.951 . S
H2197 C2216 0.951 . S
H2198 C2218 0.950 . S
H2199 C2219 0.950 . S
H2200 C2221 0.950 . S
H2201 C2224 0.950 . S
H2202 C2225 0.950 . S
H2203 C2227 0.950 . S
H2204 C2228 0.950 . S
H2205 C2229 0.951 . S
H2206 C2231 0.951 . S
H2207 C2233 0.950 . S
H2208 C2234 0.950 . S
H2209 C2236 0.950 . S
H2210 C2239 0.950 . S
H2211 C2240 0.950 . S
H2212 C2242 0.950 . S
H2213 C2243 0.950 . S
C2214 H2196 0.951 . S
C2214 C2215 1.366 . S
C2214 C2216 1.388 . S
C2215 C2214 1.366 . S
C2215 C2219 1.385 . S
C2216 H2197 0.951 . S
C2216 C2214 1.388 . S
C2216 C2217 1.366 . S
C2217 C2216 1.366 . S
C2217 C2218 1.414 . S
C2217 C2220 1.499 . S
C2218 H2198 0.950 . S
C2218 C2217 1.414 . S
C2218 C2219 1.374 . S
C2219 H2199 0.950 . S
C2219 C2215 1.385 . S
C2219 C2218 1.374 . S
C2220 C2217 1.499 . S
C2220 C2221 1.373 . S
C2220 C2222 1.389 . S
C2221 H2200 0.950 . S
C2221 C2220 1.373 . S
C2221 C2237 1.377 . S
C2222 C2220 1.389 . S
C2222 C2223 1.524 . S
C2222 C2236 1.377 . S
C2223 C2222 1.524 . S
C2223 C2224 1.397 . S
C2223 C2228 1.363 . S
C2224 H2201 0.950 . S
C2224 C2223 1.397 . S
C2224 C2225 1.334 . S
C2225 H2202 0.950 . S
C2225 C2224 1.334 . S
C2225 C2226 1.287 . S
C2226 C2225 1.287 . S
C2226 C2227 1.524 . S
C2226 H2245 0.913 . S
C2227 H2203 0.950 . S
C2227 C2226 1.524 . S
C2227 C2228 1.415 . S
C2228 H2204 0.950 . S
C2228 C2223 1.363 . S
C2228 C2227 1.415 . S
C2229 H2205 0.951 . S
C2229 C2230 1.366 . S
C2229 C2231 1.388 . S
C2230 C2229 1.366 . S
C2230 C2234 1.385 . S
C2231 H2206 0.951 . S
C2231 C2229 1.388 . S
C2231 C2232 1.366 . S
C2232 C2231 1.366 . S
C2232 C2233 1.414 . S
C2232 C2235 1.499 . S
C2233 H2207 0.950 . S
C2233 C2232 1.414 . S
C2233 C2234 1.374 . S
C2234 H2208 0.950 . S
C2234 C2230 1.385 . S
C2234 C2233 1.374 . S
C2235 C2232 1.499 . S
C2235 C2236 1.373 . S
C2235 C2237 1.389 . S
C2236 H2209 0.950 . S
C2236 C2222 1.377 . S
C2236 C2235 1.373 . S
C2237 C2221 1.377 . S
C2237 C2235 1.389 . S
C2237 C2238 1.524 . S
C2238 C2237 1.524 . S
C2238 C2239 1.397 . S
C2238 C2243 1.363 . S
C2239 H2210 0.950 . S
C2239 C2238 1.397 . S
C2239 C2240 1.334 . S
C2240 H2211 0.950 . S
C2240 C2239 1.334 . S
C2240 C2241 1.287 . S
C2241 C2240 1.287 . S
C2241 C2242 1.524 . S
C2241 H2244 0.999 . S
C2242 H2212 0.950 . S
C2242 C2241 1.524 . S
C2242 C2243 1.415 . S
C2243 H2213 0.950 . S
C2243 C2238 1.363 . S
C2243 C2242 1.415 . S
H2244 C2241 0.999 . S
H2245 C2226 0.913 . S
H2246 C2264 0.951 . S
H2247 C2266 0.951 . S
H2248 C2268 0.950 . S
H2249 C2269 0.950 . S
H2250 C2271 0.950 . S
H2251 C2274 0.950 . S
H2252 C2275 0.950 . S
H2253 C2277 0.950 . S
H2254 C2278 0.950 . S
H2255 C2279 0.951 . S
H2256 C2281 0.951 . S
H2257 C2283 0.950 . S
H2258 C2284 0.950 . S
H2259 C2286 0.950 . S
H2260 C2289 0.950 . S
H2261 C2290 0.950 . S
H2262 C2292 0.950 . S
H2263 C2293 0.950 . S
C2264 H2246 0.951 . S
C2264 C2265 1.366 . S
C2264 C2266 1.388 . S
C2265 C2264 1.366 . S
C2265 C2269 1.385 . S
C2266 H2247 0.951 . S
C2266 C2264 1.388 . S
C2266 C2267 1.366 . S
C2267 C2266 1.366 . S
C2267 C2268 1.414 . S
C2267 C2270 1.499 . S
C2268 H2248 0.950 . S
C2268 C2267 1.414 . S
C2268 C2269 1.374 . S
C2269 H2249 0.950 . S
C2269 C2265 1.385 . S
C2269 C2268 1.374 . S
C2270 C2267 1.499 . S
C2270 C2271 1.373 . S
C2270 C2272 1.389 . S
C2271 H2250 0.950 . S
C2271 C2270 1.373 . S
C2271 C2287 1.377 . S
C2272 C2270 1.389 . S
C2272 C2273 1.524 . S
C2272 C2286 1.377 . S
C2273 C2272 1.524 . S
C2273 C2274 1.397 . S
C2273 C2278 1.363 . S
C2274 H2251 0.950 . S
C2274 C2273 1.397 . S
C2274 C2275 1.334 . S
C2275 H2252 0.950 . S
C2275 C2274 1.334 . S
C2275 C2276 1.287 . S
C2276 C2275 1.287 . S
C2276 C2277 1.524 . S
C2276 H2295 0.913 . S
C2277 H2253 0.950 . S
C2277 C2276 1.524 . S
C2277 C2278 1.415 . S
C2278 H2254 0.950 . S
C2278 C2273 1.363 . S
C2278 C2277 1.415 . S
C2279 H2255 0.951 . S
C2279 C2280 1.366 . S
C2279 C2281 1.388 . S
C2280 C2279 1.366 . S
C2280 C2284 1.385 . S
C2281 H2256 0.951 . S
C2281 C2279 1.388 . S
C2281 C2282 1.366 . S
C2282 C2281 1.366 . S
C2282 C2283 1.414 . S
C2282 C2285 1.499 . S
C2283 H2257 0.950 . S
C2283 C2282 1.414 . S
C2283 C2284 1.374 . S
C2284 H2258 0.950 . S
C2284 C2280 1.385 . S
C2284 C2283 1.374 . S
C2285 C2282 1.499 . S
C2285 C2286 1.373 . S
C2285 C2287 1.389 . S
C2286 H2259 0.950 . S
C2286 C2272 1.377 . S
C2286 C2285 1.373 . S
C2287 C2271 1.377 . S
C2287 C2285 1.389 . S
C2287 C2288 1.524 . S
C2288 C2287 1.524 . S
C2288 C2289 1.397 . S
C2288 C2293 1.363 . S
C2289 H2260 0.950 . S
C2289 C2288 1.397 . S
C2289 C2290 1.334 . S
C2290 H2261 0.950 . S
C2290 C2289 1.334 . S
C2290 C2291 1.287 . S
C2291 C2290 1.287 . S
C2291 C2292 1.524 . S
C2291 H2294 0.999 . S
C2292 H2262 0.950 . S
C2292 C2291 1.524 . S
C2292 C2293 1.415 . S
C2293 H2263 0.950 . S
C2293 C2288 1.363 . S
C2293 C2292 1.415 . S
H2294 C2291 0.999 . S
H2295 C2276 0.913 . S
H2296 C2314 0.951 . S
H2297 C2316 0.951 . S
H2298 C2318 0.950 . S
H2299 C2319 0.950 . S
H2300 C2321 0.950 . S
H2301 C2324 0.950 . S
H2302 C2325 0.950 . S
H2303 C2327 0.950 . S
H2304 C2328 0.950 . S
H2305 C2329 0.951 . S
H2306 C2331 0.951 . S
H2307 C2333 0.950 . S
H2308 C2334 0.950 . S
H2309 C2336 0.950 . S
H2310 C2339 0.950 . S
H2311 C2340 0.950 . S
H2312 C2342 0.950 . S
H2313 C2343 0.950 . S
C2314 H2296 0.951 . S
C2314 C2315 1.366 . S
C2314 C2316 1.388 . S
C2315 C2314 1.366 . S
C2315 C2319 1.385 . S
C2316 H2297 0.951 . S
C2316 C2314 1.388 . S
C2316 C2317 1.366 . S
C2317 C2316 1.366 . S
C2317 C2318 1.414 . S
C2317 C2320 1.499 . S
C2318 H2298 0.950 . S
C2318 C2317 1.414 . S
C2318 C2319 1.374 . S
C2319 H2299 0.950 . S
C2319 C2315 1.385 . S
C2319 C2318 1.374 . S
C2320 C2317 1.499 . S
C2320 C2321 1.373 . S
C2320 C2322 1.389 . S
C2321 H2300 0.950 . S
C2321 C2320 1.373 . S
C2321 C2337 1.377 . S
C2322 C2320 1.389 . S
C2322 C2323 1.524 . S
C2322 C2336 1.377 . S
C2323 C2322 1.524 . S
C2323 C2324 1.397 . S
C2323 C2328 1.363 . S
C2324 H2301 0.950 . S
C2324 C2323 1.397 . S
C2324 C2325 1.334 . S
C2325 H2302 0.950 . S
C2325 C2324 1.334 . S
C2325 C2326 1.287 . S
C2326 C2325 1.287 . S
C2326 C2327 1.524 . S
C2326 H2345 0.913 . S
C2327 H2303 0.950 . S
C2327 C2326 1.524 . S
C2327 C2328 1.415 . S
C2328 H2304 0.950 . S
C2328 C2323 1.363 . S
C2328 C2327 1.415 . S
C2329 H2305 0.951 . S
C2329 C2330 1.366 . S
C2329 C2331 1.388 . S
C2330 C2329 1.366 . S
C2330 C2334 1.385 . S
C2331 H2306 0.951 . S
C2331 C2329 1.388 . S
C2331 C2332 1.366 . S
C2332 C2331 1.366 . S
C2332 C2333 1.414 . S
C2332 C2335 1.499 . S
C2333 H2307 0.950 . S
C2333 C2332 1.414 . S
C2333 C2334 1.374 . S
C2334 H2308 0.950 . S
C2334 C2330 1.385 . S
C2334 C2333 1.374 . S
C2335 C2332 1.499 . S
C2335 C2336 1.373 . S
C2335 C2337 1.389 . S
C2336 H2309 0.950 . S
C2336 C2322 1.377 . S
C2336 C2335 1.373 . S
C2337 C2321 1.377 . S
C2337 C2335 1.389 . S
C2337 C2338 1.524 . S
C2338 C2337 1.524 . S
C2338 C2339 1.397 . S
C2338 C2343 1.363 . S
C2339 H2310 0.950 . S
C2339 C2338 1.397 . S
C2339 C2340 1.334 . S
C2340 H2311 0.950 . S
C2340 C2339 1.334 . S
C2340 C2341 1.287 . S
C2341 C2340 1.287 . S
C2341 C2342 1.524 . S
C2341 H2344 0.999 . S
C2342 H2312 0.950 . S
C2342 C2341 1.524 . S
C2342 C2343 1.415 . S
C2343 H2313 0.950 . S
C2343 C2338 1.363 . S
C2343 C2342 1.415 . S
H2344 C2341 0.999 . S
H2345 C2326 0.913 . S
H2346 C2364 0.951 . S
H2347 C2366 0.951 . S
H2348 C2368 0.950 . S
H2349 C2369 0.950 . S
H2350 C2371 0.950 . S
H2351 C2374 0.950 . S
H2352 C2375 0.950 . S
H2353 C2377 0.950 . S
H2354 C2378 0.950 . S
H2355 C2379 0.951 . S
H2356 C2381 0.951 . S
H2357 C2383 0.950 . S
H2358 C2384 0.950 . S
H2359 C2386 0.950 . S
H2360 C2389 0.950 . S
H2361 C2390 0.950 . S
H2362 C2392 0.950 . S
H2363 C2393 0.950 . S
C2364 H2346 0.951 . S
C2364 C2365 1.366 . S
C2364 C2366 1.388 . S
C2365 C2364 1.366 . S
C2365 C2369 1.385 . S
C2366 H2347 0.951 . S
C2366 C2364 1.388 . S
C2366 C2367 1.366 . S
C2367 C2366 1.366 . S
C2367 C2368 1.414 . S
C2367 C2370 1.499 . S
C2368 H2348 0.950 . S
C2368 C2367 1.414 . S
C2368 C2369 1.374 . S
C2369 H2349 0.950 . S
C2369 C2365 1.385 . S
C2369 C2368 1.374 . S
C2370 C2367 1.499 . S
C2370 C2371 1.373 . S
C2370 C2372 1.389 . S
C2371 H2350 0.950 . S
C2371 C2370 1.373 . S
C2371 C2387 1.377 . S
C2372 C2370 1.389 . S
C2372 C2373 1.524 . S
C2372 C2386 1.377 . S
C2373 C2372 1.524 . S
C2373 C2374 1.397 . S
C2373 C2378 1.363 . S
C2374 H2351 0.950 . S
C2374 C2373 1.397 . S
C2374 C2375 1.334 . S
C2375 H2352 0.950 . S
C2375 C2374 1.334 . S
C2375 C2376 1.287 . S
C2376 C2375 1.287 . S
C2376 C2377 1.524 . S
C2376 H2395 0.913 . S
C2377 H2353 0.950 . S
C2377 C2376 1.524 . S
C2377 C2378 1.415 . S
C2378 H2354 0.950 . S
C2378 C2373 1.363 . S
C2378 C2377 1.415 . S
C2379 H2355 0.951 . S
C2379 C2380 1.366 . S
C2379 C2381 1.388 . S
C2380 C2379 1.366 . S
C2380 C2384 1.385 . S
C2381 H2356 0.951 . S
C2381 C2379 1.388 . S
C2381 C2382 1.366 . S
C2382 C2381 1.366 . S
C2382 C2383 1.414 . S
C2382 C2385 1.499 . S
C2383 H2357 0.950 . S
C2383 C2382 1.414 . S
C2383 C2384 1.374 . S
C2384 H2358 0.950 . S
C2384 C2380 1.385 . S
C2384 C2383 1.374 . S
C2385 C2382 1.499 . S
C2385 C2386 1.373 . S
C2385 C2387 1.389 . S
C2386 H2359 0.950 . S
C2386 C2372 1.377 . S
C2386 C2385 1.373 . S
C2387 C2371 1.377 . S
C2387 C2385 1.389 . S
C2387 C2388 1.524 . S
C2388 C2387 1.524 . S
C2388 C2389 1.397 . S
C2388 C2393 1.363 . S
C2389 H2360 0.950 . S
C2389 C2388 1.397 . S
C2389 C2390 1.334 . S
C2390 H2361 0.950 . S
C2390 C2389 1.334 . S
C2390 C2391 1.287 . S
C2391 C2390 1.287 . S
C2391 C2392 1.524 . S
C2391 H2394 0.999 . S
C2392 H2362 0.950 . S
C2392 C2391 1.524 . S
C2392 C2393 1.415 . S
C2393 H2363 0.950 . S
C2393 C2388 1.363 . S
C2393 C2392 1.415 . S
H2394 C2391 0.999 . S
H2395 C2376 0.913 . S
H2396 C2414 0.951 . S
H2397 C2416 0.951 . S
H2398 C2418 0.950 . S
H2399 C2419 0.950 . S
H2400 C2421 0.950 . S
H2401 C2424 0.950 . S
H2402 C2425 0.950 . S
H2403 C2427 0.950 . S
H2404 C2428 0.950 . S
H2405 C2429 0.951 . S
H2406 C2431 0.951 . S
H2407 C2433 0.950 . S
H2408 C2434 0.950 . S
H2409 C2436 0.950 . S
H2410 C2439 0.950 . S
H2411 C2440 0.950 . S
H2412 C2442 0.950 . S
H2413 C2443 0.950 . S
C2414 H2396 0.951 . S
C2414 C2415 1.366 . S
C2414 C2416 1.388 . S
C2415 C2414 1.366 . S
C2415 C2419 1.385 . S
C2416 H2397 0.951 . S
C2416 C2414 1.388 . S
C2416 C2417 1.366 . S
C2417 C2416 1.366 . S
C2417 C2418 1.414 . S
C2417 C2420 1.499 . S
C2418 H2398 0.950 . S
C2418 C2417 1.414 . S
C2418 C2419 1.374 . S
C2419 H2399 0.950 . S
C2419 C2415 1.385 . S
C2419 C2418 1.374 . S
C2420 C2417 1.499 . S
C2420 C2421 1.373 . S
C2420 C2422 1.389 . S
C2421 H2400 0.950 . S
C2421 C2420 1.373 . S
C2421 C2437 1.377 . S
C2422 C2420 1.389 . S
C2422 C2423 1.524 . S
C2422 C2436 1.377 . S
C2423 C2422 1.524 . S
C2423 C2424 1.397 . S
C2423 C2428 1.363 . S
C2424 H2401 0.950 . S
C2424 C2423 1.397 . S
C2424 C2425 1.334 . S
C2425 H2402 0.950 . S
C2425 C2424 1.334 . S
C2425 C2426 1.287 . S
C2426 C2425 1.287 . S
C2426 C2427 1.524 . S
C2426 H2445 0.913 . S
C2427 H2403 0.950 . S
C2427 C2426 1.524 . S
C2427 C2428 1.415 . S
C2428 H2404 0.950 . S
C2428 C2423 1.363 . S
C2428 C2427 1.415 . S
C2429 H2405 0.951 . S
C2429 C2430 1.366 . S
C2429 C2431 1.388 . S
C2430 C2429 1.366 . S
C2430 C2434 1.385 . S
C2431 H2406 0.951 . S
C2431 C2429 1.388 . S
C2431 C2432 1.366 . S
C2432 C2431 1.366 . S
C2432 C2433 1.414 . S
C2432 C2435 1.499 . S
C2433 H2407 0.950 . S
C2433 C2432 1.414 . S
C2433 C2434 1.374 . S
C2434 H2408 0.950 . S
C2434 C2430 1.385 . S
C2434 C2433 1.374 . S
C2435 C2432 1.499 . S
C2435 C2436 1.373 . S
C2435 C2437 1.389 . S
C2436 H2409 0.950 . S
C2436 C2422 1.377 . S
C2436 C2435 1.373 . S
C2437 C2421 1.377 . S
C2437 C2435 1.389 . S
C2437 C2438 1.524 . S
C2438 C2437 1.524 . S
C2438 C2439 1.397 . S
C2438 C2443 1.363 . S
C2439 H2410 0.950 . S
C2439 C2438 1.397 . S
C2439 C2440 1.334 . S
C2440 H2411 0.950 . S
C2440 C2439 1.334 . S
C2440 C2441 1.287 . S
C2441 C2440 1.287 . S
C2441 C2442 1.524 . S
C2441 H2444 0.999 . S
C2442 H2412 0.950 . S
C2442 C2441 1.524 . S
C2442 C2443 1.415 . S
C2443 H2413 0.950 . S
C2443 C2438 1.363 . S
C2443 C2442 1.415 . S
H2444 C2441 0.999 . S
H2445 C2426 0.913 . S
H2446 C2464 0.951 . S
H2447 C2466 0.951 . S
H2448 C2468 0.950 . S
H2449 C2469 0.950 . S
H2450 C2471 0.950 . S
H2451 C2474 0.950 . S
H2452 C2475 0.950 . S
H2453 C2477 0.950 . S
H2454 C2478 0.950 . S
H2455 C2479 0.951 . S
H2456 C2481 0.951 . S
H2457 C2483 0.950 . S
H2458 C2484 0.950 . S
H2459 C2486 0.950 . S
H2460 C2489 0.950 . S
H2461 C2490 0.950 . S
H2462 C2492 0.950 . S
H2463 C2493 0.950 . S
C2464 H2446 0.951 . S
C2464 C2465 1.366 . S
C2464 C2466 1.388 . S
C2465 C2464 1.366 . S
C2465 C2469 1.385 . S
C2466 H2447 0.951 . S
C2466 C2464 1.388 . S
C2466 C2467 1.366 . S
C2467 C2466 1.366 . S
C2467 C2468 1.414 . S
C2467 C2470 1.499 . S
C2468 H2448 0.950 . S
C2468 C2467 1.414 . S
C2468 C2469 1.374 . S
C2469 H2449 0.950 . S
C2469 C2465 1.385 . S
C2469 C2468 1.374 . S
C2470 C2467 1.499 . S
C2470 C2471 1.373 . S
C2470 C2472 1.389 . S
C2471 H2450 0.950 . S
C2471 C2470 1.373 . S
C2471 C2487 1.377 . S
C2472 C2470 1.389 . S
C2472 C2473 1.524 . S
C2472 C2486 1.377 . S
C2473 C2472 1.524 . S
C2473 C2474 1.397 . S
C2473 C2478 1.363 . S
C2474 H2451 0.950 . S
C2474 C2473 1.397 . S
C2474 C2475 1.334 . S
C2475 H2452 0.950 . S
C2475 C2474 1.334 . S
C2475 C2476 1.287 . S
C2476 C2475 1.287 . S
C2476 C2477 1.524 . S
C2476 H2495 0.913 . S
C2477 H2453 0.950 . S
C2477 C2476 1.524 . S
C2477 C2478 1.415 . S
C2478 H2454 0.950 . S
C2478 C2473 1.363 . S
C2478 C2477 1.415 . S
C2479 H2455 0.951 . S
C2479 C2480 1.366 . S
C2479 C2481 1.388 . S
C2480 C2479 1.366 . S
C2480 C2484 1.385 . S
C2481 H2456 0.951 . S
C2481 C2479 1.388 . S
C2481 C2482 1.366 . S
C2482 C2481 1.366 . S
C2482 C2483 1.414 . S
C2482 C2485 1.499 . S
C2483 H2457 0.950 . S
C2483 C2482 1.414 . S
C2483 C2484 1.374 . S
C2484 H2458 0.950 . S
C2484 C2480 1.385 . S
C2484 C2483 1.374 . S
C2485 C2482 1.499 . S
C2485 C2486 1.373 . S
C2485 C2487 1.389 . S
C2486 H2459 0.950 . S
C2486 C2472 1.377 . S
C2486 C2485 1.373 . S
C2487 C2471 1.377 . S
C2487 C2485 1.389 . S
C2487 C2488 1.524 . S
C2488 C2487 1.524 . S
C2488 C2489 1.397 . S
C2488 C2493 1.363 . S
C2489 H2460 0.950 . S
C2489 C2488 1.397 . S
C2489 C2490 1.334 . S
C2490 H2461 0.950 . S
C2490 C2489 1.334 . S
C2490 C2491 1.287 . S
C2491 C2490 1.287 . S
C2491 C2492 1.524 . S
C2491 H2494 0.999 . S
C2492 H2462 0.950 . S
C2492 C2491 1.524 . S
C2492 C2493 1.415 . S
C2493 H2463 0.950 . S
C2493 C2488 1.363 . S
C2493 C2492 1.415 . S
H2494 C2491 0.999 . S
H2495 C2476 0.913 . S
H2496 C2514 0.951 . S
H2497 C2516 0.951 . S
H2498 C2518 0.950 . S
H2499 C2519 0.950 . S
H2500 C2521 0.950 . S
H2501 C2524 0.950 . S
H2502 C2525 0.950 . S
H2503 C2527 0.950 . S
H2504 C2528 0.950 . S
H2505 C2529 0.951 . S
H2506 C2531 0.951 . S
H2507 C2533 0.950 . S
H2508 C2534 0.950 . S
H2509 C2536 0.950 . S
H2510 C2539 0.950 . S
H2511 C2540 0.950 . S
H2512 C2542 0.950 . S
H2513 C2543 0.950 . S
C2514 H2496 0.951 . S
C2514 C2515 1.366 . S
C2514 C2516 1.388 . S
C2515 C2514 1.366 . S
C2515 C2519 1.385 . S
C2516 H2497 0.951 . S
C2516 C2514 1.388 . S
C2516 C2517 1.366 . S
C2517 C2516 1.366 . S
C2517 C2518 1.414 . S
C2517 C2520 1.499 . S
C2518 H2498 0.950 . S
C2518 C2517 1.414 . S
C2518 C2519 1.374 . S
C2519 H2499 0.950 . S
C2519 C2515 1.385 . S
C2519 C2518 1.374 . S
C2520 C2517 1.499 . S
C2520 C2521 1.373 . S
C2520 C2522 1.389 . S
C2521 H2500 0.950 . S
C2521 C2520 1.373 . S
C2521 C2537 1.377 . S
C2522 C2520 1.389 . S
C2522 C2523 1.524 . S
C2522 C2536 1.377 . S
C2523 C2522 1.524 . S
C2523 C2524 1.397 . S
C2523 C2528 1.363 . S
C2524 H2501 0.950 . S
C2524 C2523 1.397 . S
C2524 C2525 1.334 . S
C2525 H2502 0.950 . S
C2525 C2524 1.334 . S
C2525 C2526 1.287 . S
C2526 C2525 1.287 . S
C2526 C2527 1.524 . S
C2526 H2545 0.913 . S
C2527 H2503 0.950 . S
C2527 C2526 1.524 . S
C2527 C2528 1.415 . S
C2528 H2504 0.950 . S
C2528 C2523 1.363 . S
C2528 C2527 1.415 . S
C2529 H2505 0.951 . S
C2529 C2530 1.366 . S
C2529 C2531 1.388 . S
C2530 C2529 1.366 . S
C2530 C2534 1.385 . S
C2531 H2506 0.951 . S
C2531 C2529 1.388 . S
C2531 C2532 1.366 . S
C2532 C2531 1.366 . S
C2532 C2533 1.414 . S
C2532 C2535 1.499 . S
C2533 H2507 0.950 . S
C2533 C2532 1.414 . S
C2533 C2534 1.374 . S
C2534 H2508 0.950 . S
C2534 C2530 1.385 . S
C2534 C2533 1.374 . S
C2535 C2532 1.499 . S
C2535 C2536 1.373 . S
C2535 C2537 1.389 . S
C2536 H2509 0.950 . S
C2536 C2522 1.377 . S
C2536 C2535 1.373 . S
C2537 C2521 1.377 . S
C2537 C2535 1.389 . S
C2537 C2538 1.524 . S
C2538 C2537 1.524 . S
C2538 C2539 1.397 . S
C2538 C2543 1.363 . S
C2539 H2510 0.950 . S
C2539 C2538 1.397 . S
C2539 C2540 1.334 . S
C2540 H2511 0.950 . S
C2540 C2539 1.334 . S
C2540 C2541 1.287 . S
C2541 C2540 1.287 . S
C2541 C2542 1.524 . S
C2541 H2544 0.999 . S
C2542 H2512 0.950 . S
C2542 C2541 1.524 . S
C2542 C2543 1.415 . S
C2543 H2513 0.950 . S
C2543 C2538 1.363 . S
C2543 C2542 1.415 . S
H2544 C2541 0.999 . S
H2545 C2526 0.913 . S
H2546 C2564 0.951 . S
H2547 C2566 0.951 . S
H2548 C2568 0.950 . S
H2549 C2569 0.950 . S
H2550 C2571 0.950 . S
H2551 C2574 0.950 . S
H2552 C2575 0.950 . S
H2553 C2577 0.950 . S
H2554 C2578 0.950 . S
H2555 C2579 0.951 . S
H2556 C2581 0.951 . S
H2557 C2583 0.950 . S
H2558 C2584 0.950 . S
H2559 C2586 0.950 . S
H2560 C2589 0.950 . S
H2561 C2590 0.950 . S
H2562 C2592 0.950 . S
H2563 C2593 0.950 . S
C2564 H2546 0.951 . S
C2564 C2565 1.366 . S
C2564 C2566 1.388 . S
C2565 C2564 1.366 . S
C2565 C2569 1.385 . S
C2566 H2547 0.951 . S
C2566 C2564 1.388 . S
C2566 C2567 1.366 . S
C2567 C2566 1.366 . S
C2567 C2568 1.414 . S
C2567 C2570 1.499 . S
C2568 H2548 0.950 . S
C2568 C2567 1.414 . S
C2568 C2569 1.374 . S
C2569 H2549 0.950 . S
C2569 C2565 1.385 . S
C2569 C2568 1.374 . S
C2570 C2567 1.499 . S
C2570 C2571 1.373 . S
C2570 C2572 1.389 . S
C2571 H2550 0.950 . S
C2571 C2570 1.373 . S
C2571 C2587 1.377 . S
C2572 C2570 1.389 . S
C2572 C2573 1.524 . S
C2572 C2586 1.377 . S
C2573 C2572 1.524 . S
C2573 C2574 1.397 . S
C2573 C2578 1.363 . S
C2574 H2551 0.950 . S
C2574 C2573 1.397 . S
C2574 C2575 1.334 . S
C2575 H2552 0.950 . S
C2575 C2574 1.334 . S
C2575 C2576 1.287 . S
C2576 C2575 1.287 . S
C2576 C2577 1.524 . S
C2576 H2595 0.913 . S
C2577 H2553 0.950 . S
C2577 C2576 1.524 . S
C2577 C2578 1.415 . S
C2578 H2554 0.950 . S
C2578 C2573 1.363 . S
C2578 C2577 1.415 . S
C2579 H2555 0.951 . S
C2579 C2580 1.366 . S
C2579 C2581 1.388 . S
C2580 C2579 1.366 . S
C2580 C2584 1.385 . S
C2581 H2556 0.951 . S
C2581 C2579 1.388 . S
C2581 C2582 1.366 . S
C2582 C2581 1.366 . S
C2582 C2583 1.414 . S
C2582 C2585 1.499 . S
C2583 H2557 0.950 . S
C2583 C2582 1.414 . S
C2583 C2584 1.374 . S
C2584 H2558 0.950 . S
C2584 C2580 1.385 . S
C2584 C2583 1.374 . S
C2585 C2582 1.499 . S
C2585 C2586 1.373 . S
C2585 C2587 1.389 . S
C2586 H2559 0.950 . S
C2586 C2572 1.377 . S
C2586 C2585 1.373 . S
C2587 C2571 1.377 . S
C2587 C2585 1.389 . S
C2587 C2588 1.524 . S
C2588 C2587 1.524 . S
C2588 C2589 1.397 . S
C2588 C2593 1.363 . S
C2589 H2560 0.950 . S
C2589 C2588 1.397 . S
C2589 C2590 1.334 . S
C2590 H2561 0.950 . S
C2590 C2589 1.334 . S
C2590 C2591 1.287 . S
C2591 C2590 1.287 . S
C2591 C2592 1.524 . S
C2591 H2594 0.999 . S
C2592 H2562 0.950 . S
C2592 C2591 1.524 . S
C2592 C2593 1.415 . S
C2593 H2563 0.950 . S
C2593 C2588 1.363 . S
C2593 C2592 1.415 . S
H2594 C2591 0.999 . S
H2595 C2576 0.913 . S
H2596 C2614 0.951 . S
H2597 C2616 0.951 . S
H2598 C2618 0.950 . S
H2599 C2619 0.950 . S
H2600 C2621 0.950 . S
H2601 C2624 0.950 . S
H2602 C2625 0.950 . S
H2603 C2627 0.950 . S
H2604 C2628 0.950 . S
H2605 C2629 0.951 . S
H2606 C2631 0.951 . S
H2607 C2633 0.950 . S
H2608 C2634 0.950 . S
H2609 C2636 0.950 . S
H2610 C2639 0.950 . S
H2611 C2640 0.950 . S
H2612 C2642 0.950 . S
H2613 C2643 0.950 . S
C2614 H2596 0.951 . S
C2614 C2615 1.366 . S
C2614 C2616 1.388 . S
C2615 C2614 1.366 . S
C2615 C2619 1.385 . S
C2616 H2597 0.951 . S
C2616 C2614 1.388 . S
C2616 C2617 1.366 . S
C2617 C2616 1.366 . S
C2617 C2618 1.414 . S
C2617 C2620 1.499 . S
C2618 H2598 0.950 . S
C2618 C2617 1.414 . S
C2618 C2619 1.374 . S
C2619 H2599 0.950 . S
C2619 C2615 1.385 . S
C2619 C2618 1.374 . S
C2620 C2617 1.499 . S
C2620 C2621 1.373 . S
C2620 C2622 1.389 . S
C2621 H2600 0.950 . S
C2621 C2620 1.373 . S
C2621 C2637 1.377 . S
C2622 C2620 1.389 . S
C2622 C2623 1.524 . S
C2622 C2636 1.377 . S
C2623 C2622 1.524 . S
C2623 C2624 1.397 . S
C2623 C2628 1.363 . S
C2624 H2601 0.950 . S
C2624 C2623 1.397 . S
C2624 C2625 1.334 . S
C2625 H2602 0.950 . S
C2625 C2624 1.334 . S
C2625 C2626 1.287 . S
C2626 C2625 1.287 . S
C2626 C2627 1.524 . S
C2626 H2645 0.913 . S
C2627 H2603 0.950 . S
C2627 C2626 1.524 . S
C2627 C2628 1.415 . S
C2628 H2604 0.950 . S
C2628 C2623 1.363 . S
C2628 C2627 1.415 . S
C2629 H2605 0.951 . S
C2629 C2630 1.366 . S
C2629 C2631 1.388 . S
C2630 C2629 1.366 . S
C2630 C2634 1.385 . S
C2631 H2606 0.951 . S
C2631 C2629 1.388 . S
C2631 C2632 1.366 . S
C2632 C2631 1.366 . S
C2632 C2633 1.414 . S
C2632 C2635 1.499 . S
C2633 H2607 0.950 . S
C2633 C2632 1.414 . S
C2633 C2634 1.374 . S
C2634 H2608 0.950 . S
C2634 C2630 1.385 . S
C2634 C2633 1.374 . S
C2635 C2632 1.499 . S
C2635 C2636 1.373 . S
C2635 C2637 1.389 . S
C2636 H2609 0.950 . S
C2636 C2622 1.377 . S
C2636 C2635 1.373 . S
C2637 C2621 1.377 . S
C2637 C2635 1.389 . S
C2637 C2638 1.524 . S
C2638 C2637 1.524 . S
C2638 C2639 1.397 . S
C2638 C2643 1.363 . S
C2639 H2610 0.950 . S
C2639 C2638 1.397 . S
C2639 C2640 1.334 . S
C2640 H2611 0.950 . S
C2640 C2639 1.334 . S
C2640 C2641 1.287 . S
C2641 C2640 1.287 . S
C2641 C2642 1.524 . S
C2641 H2644 0.999 . S
C2642 H2612 0.950 . S
C2642 C2641 1.524 . S
C2642 C2643 1.415 . S
C2643 H2613 0.950 . S
C2643 C2638 1.363 . S
C2643 C2642 1.415 . S
H2644 C2641 0.999 . S
H2645 C2626 0.913 . S
H2646 C2664 0.951 . S
H2647 C2666 0.951 . S
H2648 C2668 0.950 . S
H2649 C2669 0.950 . S
H2650 C2671 0.950 . S
H2651 C2674 0.950 . S
H2652 C2675 0.950 . S
H2653 C2677 0.950 . S
H2654 C2678 0.950 . S
H2655 C2679 0.951 . S
H2656 C2681 0.951 . S
H2657 C2683 0.950 . S
H2658 C2684 0.950 . S
H2659 C2686 0.950 . S
H2660 C2689 0.950 . S
H2661 C2690 0.950 . S
H2662 C2692 0.950 . S
H2663 C2693 0.950 . S
C2664 H2646 0.951 . S
C2664 C2665 1.366 . S
C2664 C2666 1.388 . S
C2665 C2664 1.366 . S
C2665 C2669 1.385 . S
C2666 H2647 0.951 . S
C2666 C2664 1.388 . S
C2666 C2667 1.366 . S
C2667 C2666 1.366 . S
C2667 C2668 1.414 . S
C2667 C2670 1.499 . S
C2668 H2648 0.950 . S
C2668 C2667 1.414 . S
C2668 C2669 1.374 . S
C2669 H2649 0.950 . S
C2669 C2665 1.385 . S
C2669 C2668 1.374 . S
C2670 C2667 1.499 . S
C2670 C2671 1.373 . S
C2670 C2672 1.389 . S
C2671 H2650 0.950 . S
C2671 C2670 1.373 . S
C2671 C2687 1.377 . S
C2672 C2670 1.389 . S
C2672 C2673 1.524 . S
C2672 C2686 1.377 . S
C2673 C2672 1.524 . S
C2673 C2674 1.397 . S
C2673 C2678 1.363 . S
C2674 H2651 0.950 . S
C2674 C2673 1.397 . S
C2674 C2675 1.334 . S
C2675 H2652 0.950 . S
C2675 C2674 1.334 . S
C2675 C2676 1.287 . S
C2676 C2675 1.287 . S
C2676 C2677 1.524 . S
C2676 H2695 0.913 . S
C2677 H2653 0.950 . S
C2677 C2676 1.524 . S
C2677 C2678 1.415 . S
C2678 H2654 0.950 . S
C2678 C2673 1.363 . S
C2678 C2677 1.415 . S
C2679 H2655 0.951 . S
C2679 C2680 1.366 . S
C2679 C2681 1.388 . S
C2680 C2679 1.366 . S
C2680 C2684 1.385 . S
C2681 H2656 0.951 . S
C2681 C2679 1.388 . S
C2681 C2682 1.366 . S
C2682 C2681 1.366 . S
C2682 C2683 1.414 . S
C2682 C2685 1.499 . S
C2683 H2657 0.950 . S
C2683 C2682 1.414 . S
C2683 C2684 1.374 . S
C2684 H2658 0.950 . S
C2684 C2680 1.385 . S
C2684 C2683 1.374 . S
C2685 C2682 1.499 . S
C2685 C2686 1.373 . S
C2685 C2687 1.389 . S
C2686 H2659 0.950 . S
C2686 C2672 1.377 . S
C2686 C2685 1.373 . S
C2687 C2671 1.377 . S
C2687 C2685 1.389 . S
C2687 C2688 1.524 . S
C2688 C2687 1.524 . S
C2688 C2689 1.397 . S
C2688 C2693 1.363 . S
C2689 H2660 0.950 . S
C2689 C2688 1.397 . S
C2689 C2690 1.334 . S
C2690 H2661 0.950 . S
C2690 C2689 1.334 . S
C2690 C2691 1.287 . S
C2691 C2690 1.287 . S
C2691 C2692 1.524 . S
C2691 H2694 0.999 . S
C2692 H2662 0.950 . S
C2692 C2691 1.524 . S
C2692 C2693 1.415 . S
C2693 H2663 0.950 . S
C2693 C2688 1.363 . S
C2693 C2692 1.415 . S
H2694 C2691 0.999 . S
H2695 C2676 0.913 . S
H2696 C2714 0.951 . S
H2697 C2716 0.951 . S
H2698 C2718 0.950 . S
H2699 C2719 0.950 . S
H2700 C2721 0.950 . S
H2701 C2724 0.950 . S
H2702 C2725 0.950 . S
H2703 C2727 0.950 . S
H2704 C2728 0.950 . S
H2705 C2729 0.951 . S
H2706 C2731 0.951 . S
H2707 C2733 0.950 . S
H2708 C2734 0.950 . S
H2709 C2736 0.950 . S
H2710 C2739 0.950 . S
H2711 C2740 0.950 . S
H2712 C2742 0.950 . S
H2713 C2743 0.950 . S
C2714 H2696 0.951 . S
C2714 C2715 1.366 . S
C2714 C2716 1.388 . S
C2715 C2714 1.366 . S
C2715 C2719 1.385 . S
C2716 H2697 0.951 . S
C2716 C2714 1.388 . S
C2716 C2717 1.366 . S
C2717 C2716 1.366 . S
C2717 C2718 1.414 . S
C2717 C2720 1.499 . S
C2718 H2698 0.950 . S
C2718 C2717 1.414 . S
C2718 C2719 1.374 . S
C2719 H2699 0.950 . S
C2719 C2715 1.385 . S
C2719 C2718 1.374 . S
C2720 C2717 1.499 . S
C2720 C2721 1.373 . S
C2720 C2722 1.389 . S
C2721 H2700 0.950 . S
C2721 C2720 1.373 . S
C2721 C2737 1.377 . S
C2722 C2720 1.389 . S
C2722 C2723 1.524 . S
C2722 C2736 1.377 . S
C2723 C2722 1.524 . S
C2723 C2724 1.397 . S
C2723 C2728 1.363 . S
C2724 H2701 0.950 . S
C2724 C2723 1.397 . S
C2724 C2725 1.334 . S
C2725 H2702 0.950 . S
C2725 C2724 1.334 . S
C2725 C2726 1.287 . S
C2726 C2725 1.287 . S
C2726 C2727 1.524 . S
C2726 H2745 0.913 . S
C2727 H2703 0.950 . S
C2727 C2726 1.524 . S
C2727 C2728 1.415 . S
C2728 H2704 0.950 . S
C2728 C2723 1.363 . S
C2728 C2727 1.415 . S
C2729 H2705 0.951 . S
C2729 C2730 1.366 . S
C2729 C2731 1.388 . S
C2730 C2729 1.366 . S
C2730 C2734 1.385 . S
C2731 H2706 0.951 . S
C2731 C2729 1.388 . S
C2731 C2732 1.366 . S
C2732 C2731 1.366 . S
C2732 C2733 1.414 . S
C2732 C2735 1.499 . S
C2733 H2707 0.950 . S
C2733 C2732 1.414 . S
C2733 C2734 1.374 . S
C2734 H2708 0.950 . S
C2734 C2730 1.385 . S
C2734 C2733 1.374 . S
C2735 C2732 1.499 . S
C2735 C2736 1.373 . S
C2735 C2737 1.389 . S
C2736 H2709 0.950 . S
C2736 C2722 1.377 . S
C2736 C2735 1.373 . S
C2737 C2721 1.377 . S
C2737 C2735 1.389 . S
C2737 C2738 1.524 . S
C2738 C2737 1.524 . S
C2738 C2739 1.397 . S
C2738 C2743 1.363 . S
C2739 H2710 0.950 . S
C2739 C2738 1.397 . S
C2739 C2740 1.334 . S
C2740 H2711 0.950 . S
C2740 C2739 1.334 . S
C2740 C2741 1.287 . S
C2741 C2740 1.287 . S
C2741 C2742 1.524 . S
C2741 H2744 0.999 . S
C2742 H2712 0.950 . S
C2742 C2741 1.524 . S
C2742 C2743 1.415 . S
C2743 H2713 0.950 . S
C2743 C2738 1.363 . S
C2743 C2742 1.415 . S
H2744 C2741 0.999 . S
H2745 C2726 0.913 . S
H2746 C2764 0.951 . S
H2747 C2766 0.951 . S
H2748 C2768 0.950 . S
H2749 C2769 0.950 . S
H2750 C2771 0.950 . S
H2751 C2774 0.950 . S
H2752 C2775 0.950 . S
H2753 C2777 0.950 . S
H2754 C2778 0.950 . S
H2755 C2779 0.951 . S
H2756 C2781 0.951 . S
H2757 C2783 0.950 . S
H2758 C2784 0.950 . S
H2759 C2786 0.950 . S
H2760 C2789 0.950 . S
H2761 C2790 0.950 . S
H2762 C2792 0.950 . S
H2763 C2793 0.950 . S
C2764 H2746 0.951 . S
C2764 C2765 1.366 . S
C2764 C2766 1.388 . S
C2765 C2764 1.366 . S
C2765 C2769 1.385 . S
C2766 H2747 0.951 . S
C2766 C2764 1.388 . S
C2766 C2767 1.366 . S
C2767 C2766 1.366 . S
C2767 C2768 1.414 . S
C2767 C2770 1.499 . S
C2768 H2748 0.950 . S
C2768 C2767 1.414 . S
C2768 C2769 1.374 . S
C2769 H2749 0.950 . S
C2769 C2765 1.385 . S
C2769 C2768 1.374 . S
C2770 C2767 1.499 . S
C2770 C2771 1.373 . S
C2770 C2772 1.389 . S
C2771 H2750 0.950 . S
C2771 C2770 1.373 . S
C2771 C2787 1.377 . S
C2772 C2770 1.389 . S
C2772 C2773 1.524 . S
C2772 C2786 1.377 . S
C2773 C2772 1.524 . S
C2773 C2774 1.397 . S
C2773 C2778 1.363 . S
C2774 H2751 0.950 . S
C2774 C2773 1.397 . S
C2774 C2775 1.334 . S
C2775 H2752 0.950 . S
C2775 C2774 1.334 . S
C2775 C2776 1.287 . S
C2776 C2775 1.287 . S
C2776 C2777 1.524 . S
C2776 H2795 0.913 . S
C2777 H2753 0.950 . S
C2777 C2776 1.524 . S
C2777 C2778 1.415 . S
C2778 H2754 0.950 . S
C2778 C2773 1.363 . S
C2778 C2777 1.415 . S
C2779 H2755 0.951 . S
C2779 C2780 1.366 . S
C2779 C2781 1.388 . S
C2780 C2779 1.366 . S
C2780 C2784 1.385 . S
C2781 H2756 0.951 . S
C2781 C2779 1.388 . S
C2781 C2782 1.366 . S
C2782 C2781 1.366 . S
C2782 C2783 1.414 . S
C2782 C2785 1.499 . S
C2783 H2757 0.950 . S
C2783 C2782 1.414 . S
C2783 C2784 1.374 . S
C2784 H2758 0.950 . S
C2784 C2780 1.385 . S
C2784 C2783 1.374 . S
C2785 C2782 1.499 . S
C2785 C2786 1.373 . S
C2785 C2787 1.389 . S
C2786 H2759 0.950 . S
C2786 C2772 1.377 . S
C2786 C2785 1.373 . S
C2787 C2771 1.377 . S
C2787 C2785 1.389 . S
C2787 C2788 1.524 . S
C2788 C2787 1.524 . S
C2788 C2789 1.397 . S
C2788 C2793 1.363 . S
C2789 H2760 0.950 . S
C2789 C2788 1.397 . S
C2789 C2790 1.334 . S
C2790 H2761 0.950 . S
C2790 C2789 1.334 . S
C2790 C2791 1.287 . S
C2791 C2790 1.287 . S
C2791 C2792 1.524 . S
C2791 H2794 0.999 . S
C2792 H2762 0.950 . S
C2792 C2791 1.524 . S
C2792 C2793 1.415 . S
C2793 H2763 0.950 . S
C2793 C2788 1.363 . S
C2793 C2792 1.415 . S
H2794 C2791 0.999 . S
H2795 C2776 0.913 . S
H2796 C2814 0.951 . S
H2797 C2816 0.951 . S
H2798 C2818 0.950 . S
H2799 C2819 0.950 . S
H2800 C2821 0.950 . S
H2801 C2824 0.950 . S
H2802 C2825 0.950 . S
H2803 C2827 0.950 . S
H2804 C2828 0.950 . S
H2805 C2829 0.951 . S
H2806 C2831 0.951 . S
H2807 C2833 0.950 . S
H2808 C2834 0.950 . S
H2809 C2836 0.950 . S
H2810 C2839 0.950 . S
H2811 C2840 0.950 . S
H2812 C2842 0.950 . S
H2813 C2843 0.950 . S
C2814 H2796 0.951 . S
C2814 C2815 1.366 . S
C2814 C2816 1.388 . S
C2815 C2814 1.366 . S
C2815 C2819 1.385 . S
C2816 H2797 0.951 . S
C2816 C2814 1.388 . S
C2816 C2817 1.366 . S
C2817 C2816 1.366 . S
C2817 C2818 1.414 . S
C2817 C2820 1.499 . S
C2818 H2798 0.950 . S
C2818 C2817 1.414 . S
C2818 C2819 1.374 . S
C2819 H2799 0.950 . S
C2819 C2815 1.385 . S
C2819 C2818 1.374 . S
C2820 C2817 1.499 . S
C2820 C2821 1.373 . S
C2820 C2822 1.389 . S
C2821 H2800 0.950 . S
C2821 C2820 1.373 . S
C2821 C2837 1.377 . S
C2822 C2820 1.389 . S
C2822 C2823 1.524 . S
C2822 C2836 1.377 . S
C2823 C2822 1.524 . S
C2823 C2824 1.397 . S
C2823 C2828 1.363 . S
C2824 H2801 0.950 . S
C2824 C2823 1.397 . S
C2824 C2825 1.334 . S
C2825 H2802 0.950 . S
C2825 C2824 1.334 . S
C2825 C2826 1.287 . S
C2826 C2825 1.287 . S
C2826 C2827 1.524 . S
C2826 H2845 0.913 . S
C2827 H2803 0.950 . S
C2827 C2826 1.524 . S
C2827 C2828 1.415 . S
C2828 H2804 0.950 . S
C2828 C2823 1.363 . S
C2828 C2827 1.415 . S
C2829 H2805 0.951 . S
C2829 C2830 1.366 . S
C2829 C2831 1.388 . S
C2830 C2829 1.366 . S
C2830 C2834 1.385 . S
C2831 H2806 0.951 . S
C2831 C2829 1.388 . S
C2831 C2832 1.366 . S
C2832 C2831 1.366 . S
C2832 C2833 1.414 . S
C2832 C2835 1.499 . S
C2833 H2807 0.950 . S
C2833 C2832 1.414 . S
C2833 C2834 1.374 . S
C2834 H2808 0.950 . S
C2834 C2830 1.385 . S
C2834 C2833 1.374 . S
C2835 C2832 1.499 . S
C2835 C2836 1.373 . S
C2835 C2837 1.389 . S
C2836 H2809 0.950 . S
C2836 C2822 1.377 . S
C2836 C2835 1.373 . S
C2837 C2821 1.377 . S
C2837 C2835 1.389 . S
C2837 C2838 1.524 . S
C2838 C2837 1.524 . S
C2838 C2839 1.397 . S
C2838 C2843 1.363 . S
C2839 H2810 0.950 . S
C2839 C2838 1.397 . S
C2839 C2840 1.334 . S
C2840 H2811 0.950 . S
C2840 C2839 1.334 . S
C2840 C2841 1.287 . S
C2841 C2840 1.287 . S
C2841 C2842 1.524 . S
C2841 H2844 0.999 . S
C2842 H2812 0.950 . S
C2842 C2841 1.524 . S
C2842 C2843 1.415 . S
C2843 H2813 0.950 . S
C2843 C2838 1.363 . S
C2843 C2842 1.415 . S
H2844 C2841 0.999 . S
H2845 C2826 0.913 . S
H2846 C2864 0.951 . S
H2847 C2866 0.951 . S
H2848 C2868 0.950 . S
H2849 C2869 0.950 . S
H2850 C2871 0.950 . S
H2851 C2874 0.950 . S
H2852 C2875 0.950 . S
H2853 C2877 0.950 . S
H2854 C2878 0.950 . S
H2855 C2879 0.951 . S
H2856 C2881 0.951 . S
H2857 C2883 0.950 . S
H2858 C2884 0.950 . S
H2859 C2886 0.950 . S
H2860 C2889 0.950 . S
H2861 C2890 0.950 . S
H2862 C2892 0.950 . S
H2863 C2893 0.950 . S
C2864 H2846 0.951 . S
C2864 C2865 1.366 . S
C2864 C2866 1.388 . S
C2865 C2864 1.366 . S
C2865 C2869 1.385 . S
C2866 H2847 0.951 . S
C2866 C2864 1.388 . S
C2866 C2867 1.366 . S
C2867 C2866 1.366 . S
C2867 C2868 1.414 . S
C2867 C2870 1.499 . S
C2868 H2848 0.950 . S
C2868 C2867 1.414 . S
C2868 C2869 1.374 . S
C2869 H2849 0.950 . S
C2869 C2865 1.385 . S
C2869 C2868 1.374 . S
C2870 C2867 1.499 . S
C2870 C2871 1.373 . S
C2870 C2872 1.389 . S
C2871 H2850 0.950 . S
C2871 C2870 1.373 . S
C2871 C2887 1.377 . S
C2872 C2870 1.389 . S
C2872 C2873 1.524 . S
C2872 C2886 1.377 . S
C2873 C2872 1.524 . S
C2873 C2874 1.397 . S
C2873 C2878 1.363 . S
C2874 H2851 0.950 . S
C2874 C2873 1.397 . S
C2874 C2875 1.334 . S
C2875 H2852 0.950 . S
C2875 C2874 1.334 . S
C2875 C2876 1.287 . S
C2876 C2875 1.287 . S
C2876 C2877 1.524 . S
C2876 H2895 0.913 . S
C2877 H2853 0.950 . S
C2877 C2876 1.524 . S
C2877 C2878 1.415 . S
C2878 H2854 0.950 . S
C2878 C2873 1.363 . S
C2878 C2877 1.415 . S
C2879 H2855 0.951 . S
C2879 C2880 1.366 . S
C2879 C2881 1.388 . S
C2880 C2879 1.366 . S
C2880 C2884 1.385 . S
C2881 H2856 0.951 . S
C2881 C2879 1.388 . S
C2881 C2882 1.366 . S
C2882 C2881 1.366 . S
C2882 C2883 1.414 . S
C2882 C2885 1.499 . S
C2883 H2857 0.950 . S
C2883 C2882 1.414 . S
C2883 C2884 1.374 . S
C2884 H2858 0.950 . S
C2884 C2880 1.385 . S
C2884 C2883 1.374 . S
C2885 C2882 1.499 . S
C2885 C2886 1.373 . S
C2885 C2887 1.389 . S
C2886 H2859 0.950 . S
C2886 C2872 1.377 . S
C2886 C2885 1.373 . S
C2887 C2871 1.377 . S
C2887 C2885 1.389 . S
C2887 C2888 1.524 . S
C2888 C2887 1.524 . S
C2888 C2889 1.397 . S
C2888 C2893 1.363 . S
C2889 H2860 0.950 . S
C2889 C2888 1.397 . S
C2889 C2890 1.334 . S
C2890 H2861 0.950 . S
C2890 C2889 1.334 . S
C2890 C2891 1.287 . S
C2891 C2890 1.287 . S
C2891 C2892 1.524 . S
C2891 H2894 0.999 . S
C2892 H2862 0.950 . S
C2892 C2891 1.524 . S
C2892 C2893 1.415 . S
C2893 H2863 0.950 . S
C2893 C2888 1.363 . S
C2893 C2892 1.415 . S
H2894 C2891 0.999 . S
H2895 C2876 0.913 . S
H2896 C2914 0.951 . S
H2897 C2916 0.951 . S
H2898 C2918 0.950 . S
H2899 C2919 0.950 . S
H2900 C2921 0.950 . S
H2901 C2924 0.950 . S
H2902 C2925 0.950 . S
H2903 C2927 0.950 . S
H2904 C2928 0.950 . S
H2905 C2929 0.951 . S
H2906 C2931 0.951 . S
H2907 C2933 0.950 . S
H2908 C2934 0.950 . S
H2909 C2936 0.950 . S
H2910 C2939 0.950 . S
H2911 C2940 0.950 . S
H2912 C2942 0.950 . S
H2913 C2943 0.950 . S
C2914 H2896 0.951 . S
C2914 C2915 1.366 . S
C2914 C2916 1.388 . S
C2915 C2914 1.366 . S
C2915 C2919 1.385 . S
C2916 H2897 0.951 . S
C2916 C2914 1.388 . S
C2916 C2917 1.366 . S
C2917 C2916 1.366 . S
C2917 C2918 1.414 . S
C2917 C2920 1.499 . S
C2918 H2898 0.950 . S
C2918 C2917 1.414 . S
C2918 C2919 1.374 . S
C2919 H2899 0.950 . S
C2919 C2915 1.385 . S
C2919 C2918 1.374 . S
C2920 C2917 1.499 . S
C2920 C2921 1.373 . S
C2920 C2922 1.389 . S
C2921 H2900 0.950 . S
C2921 C2920 1.373 . S
C2921 C2937 1.377 . S
C2922 C2920 1.389 . S
C2922 C2923 1.524 . S
C2922 C2936 1.377 . S
C2923 C2922 1.524 . S
C2923 C2924 1.397 . S
C2923 C2928 1.363 . S
C2924 H2901 0.950 . S
C2924 C2923 1.397 . S
C2924 C2925 1.334 . S
C2925 H2902 0.950 . S
C2925 C2924 1.334 . S
C2925 C2926 1.287 . S
C2926 C2925 1.287 . S
C2926 C2927 1.524 . S
C2926 H2945 0.913 . S
C2927 H2903 0.950 . S
C2927 C2926 1.524 . S
C2927 C2928 1.415 . S
C2928 H2904 0.950 . S
C2928 C2923 1.363 . S
C2928 C2927 1.415 . S
C2929 H2905 0.951 . S
C2929 C2930 1.366 . S
C2929 C2931 1.388 . S
C2930 C2929 1.366 . S
C2930 C2934 1.385 . S
C2931 H2906 0.951 . S
C2931 C2929 1.388 . S
C2931 C2932 1.366 . S
C2932 C2931 1.366 . S
C2932 C2933 1.414 . S
C2932 C2935 1.499 . S
C2933 H2907 0.950 . S
C2933 C2932 1.414 . S
C2933 C2934 1.374 . S
C2934 H2908 0.950 . S
C2934 C2930 1.385 . S
C2934 C2933 1.374 . S
C2935 C2932 1.499 . S
C2935 C2936 1.373 . S
C2935 C2937 1.389 . S
C2936 H2909 0.950 . S
C2936 C2922 1.377 . S
C2936 C2935 1.373 . S
C2937 C2921 1.377 . S
C2937 C2935 1.389 . S
C2937 C2938 1.524 . S
C2938 C2937 1.524 . S
C2938 C2939 1.397 . S
C2938 C2943 1.363 . S
C2939 H2910 0.950 . S
C2939 C2938 1.397 . S
C2939 C2940 1.334 . S
C2940 H2911 0.950 . S
C2940 C2939 1.334 . S
C2940 C2941 1.287 . S
C2941 C2940 1.287 . S
C2941 C2942 1.524 . S
C2941 H2944 0.999 . S
C2942 H2912 0.950 . S
C2942 C2941 1.524 . S
C2942 C2943 1.415 . S
C2943 H2913 0.950 . S
C2943 C2938 1.363 . S
C2943 C2942 1.415 . S
H2944 C2941 0.999 . S
H2945 C2926 0.913 . S
H2946 C2964 0.951 . S
H2947 C2966 0.951 . S
H2948 C2968 0.950 . S
H2949 C2969 0.950 . S
H2950 C2971 0.950 . S
H2951 C2974 0.950 . S
H2952 C2975 0.950 . S
H2953 C2977 0.950 . S
H2954 C2978 0.950 . S
H2955 C2979 0.951 . S
H2956 C2981 0.951 . S
H2957 C2983 0.950 . S
H2958 C2984 0.950 . S
H2959 C2986 0.950 . S
H2960 C2989 0.950 . S
H2961 C2990 0.950 . S
H2962 C2992 0.950 . S
H2963 C2993 0.950 . S
C2964 H2946 0.951 . S
C2964 C2965 1.366 . S
C2964 C2966 1.388 . S
C2965 C2964 1.366 . S
C2965 C2969 1.385 . S
C2966 H2947 0.951 . S
C2966 C2964 1.388 . S
C2966 C2967 1.366 . S
C2967 C2966 1.366 . S
C2967 C2968 1.414 . S
C2967 C2970 1.499 . S
C2968 H2948 0.950 . S
C2968 C2967 1.414 . S
C2968 C2969 1.374 . S
C2969 H2949 0.950 . S
C2969 C2965 1.385 . S
C2969 C2968 1.374 . S
C2970 C2967 1.499 . S
C2970 C2971 1.373 . S
C2970 C2972 1.389 . S
C2971 H2950 0.950 . S
C2971 C2970 1.373 . S
C2971 C2987 1.377 . S
C2972 C2970 1.389 . S
C2972 C2973 1.524 . S
C2972 C2986 1.377 . S
C2973 C2972 1.524 . S
C2973 C2974 1.397 . S
C2973 C2978 1.363 . S
C2974 H2951 0.950 . S
C2974 C2973 1.397 . S
C2974 C2975 1.334 . S
C2975 H2952 0.950 . S
C2975 C2974 1.334 . S
C2975 C2976 1.287 . S
C2976 C2975 1.287 . S
C2976 C2977 1.524 . S
C2976 H2995 0.913 . S
C2977 H2953 0.950 . S
C2977 C2976 1.524 . S
C2977 C2978 1.415 . S
C2978 H2954 0.950 . S
C2978 C2973 1.363 . S
C2978 C2977 1.415 . S
C2979 H2955 0.951 . S
C2979 C2980 1.366 . S
C2979 C2981 1.388 . S
C2980 C2979 1.366 . S
C2980 C2984 1.385 . S
C2981 H2956 0.951 . S
C2981 C2979 1.388 . S
C2981 C2982 1.366 . S
C2982 C2981 1.366 . S
C2982 C2983 1.414 . S
C2982 C2985 1.499 . S
C2983 H2957 0.950 . S
C2983 C2982 1.414 . S
C2983 C2984 1.374 . S
C2984 H2958 0.950 . S
C2984 C2980 1.385 . S
C2984 C2983 1.374 . S
C2985 C2982 1.499 . S
C2985 C2986 1.373 . S
C2985 C2987 1.389 . S
C2986 H2959 0.950 . S
C2986 C2972 1.377 . S
C2986 C2985 1.373 . S
C2987 C2971 1.377 . S
C2987 C2985 1.389 . S
C2987 C2988 1.524 . S
C2988 C2987 1.524 . S
C2988 C2989 1.397 . S
C2988 C2993 1.363 . S
C2989 H2960 0.950 . S
C2989 C2988 1.397 . S
C2989 C2990 1.334 . S
C2990 H2961 0.950 . S
C2990 C2989 1.334 . S
C2990 C2991 1.287 . S
C2991 C2990 1.287 . S
C2991 C2992 1.524 . S
C2991 H2994 0.999 . S
C2992 H2962 0.950 . S
C2992 C2991 1.524 . S
C2992 C2993 1.415 . S
C2993 H2963 0.950 . S
C2993 C2988 1.363 . S
C2993 C2992 1.415 . S
H2994 C2991 0.999 . S
H2995 C2976 0.913 . S
C630 C301 1.366 . S
C615 N2 1.340 . S
C680 C339 2.654 . S
C665 C7 2.670 . S
C730 C360 1.615 . S
C715 N12 1.505 . S
C765 C16 1.954 . S
C780 C398 1.988 . S
C830 C438 2.731 . S
C815 C30 2.734 1_565 S
C880 C501 1.424 . S
C865 N35 1.371 . S
C915 C39 2.114 . S
C930 C539 2.082 . S
C980 C560 1.232 . S
C965 N25 1.167 . S
C1030 C307 1.130 . S
C1015 N58 1.094 . S
C1065 N81 1.871 . S
C1080 C336 1.894 . S
C1130 C379 1.288 . S
C1115 N104 1.254 . S
C1165 N127 1.044 . S
C1180 C421 1.065 . S
C1230 C461 0.673 . S
C1215 N48 0.674 . S
C1280 C507 1.605 . S
C1265 N71 1.558 1_556 S
C1315 N94 1.181 . S
C1330 C536 1.174 . S
C1380 C579 1.897 . S
C1365 N117 1.890 . S
C1415 C85 2.394 . S
C1430 C278 2.376 . S
C1465 C122 2.356 . S
C1480 C467 2.344 . S
C1515 C53 1.855 . S
C1530 C478 1.827 . S
C1580 C520 1.333 . S
C1565 C76 1.341 1_655 S
C1630 C576 1.700 . S
C1615 C99 1.702 . S
C1680 C376 1.998 . S
C1665 C131 1.973 . S
C1730 C427 1.561 . S
C1715 C62 1.567 1_565 S
C1765 C108 0.945 . S
C1780 C320 0.943 . S
C1830 C581 1.421 . S
C1815 N140 1.394 . S
C1865 C145 2.665 . S
C1880 C459 2.648 . S
C1930 C480 1.513 . S
C1915 N150 1.410 . S
C1965 C154 1.962 . S
C1980 C518 1.995 . S
C2030 C318 2.734 . S
C2015 C168 2.740 . S
C2065 N173 1.268 . S
C2080 C381 1.318 . S
C2130 C419 2.084 . S
C2115 C177 2.119 . S
C2180 C280 1.291 . S
C2165 N163 1.215 . S
C2230 C587 1.595 . S
C2215 C200 1.585 . S
C2280 C456 2.191 . S
C2265 N219 2.167 . S
C2315 N242 1.499 . S
C2330 C499 1.547 . S
C2380 C541 1.327 . S
C2365 C269 1.347 . S
C2430 C341 0.966 . S
C2415 C191 0.972 . S
C2465 N209 1.810 . S
C2480 C387 1.862 . S
C2515 N232 1.491 . S
C2530 C416 1.489 . S
C2565 C260 2.413 . S
C2580 C299 2.391 . S
C2615 C223 2.097 . S
C2630 C558 2.081 . S
C2665 N255 1.895 . S
C2680 C347 1.932 . S
C2715 N186 1.351 . S
C2730 C358 1.374 . S
C2780 C400 1.027 . S
C2765 C214 1.032 . S
C2830 C296 1.382 . S
C2815 C237 1.379 . S
C2880 C496 1.567 . S
C2865 N265 1.501 . S
C2930 C547 1.190 . S
C2915 N196 1.181 . S
C2980 C440 0.641 . S
C2965 C246 0.642 . S
