# Generated by pormake.
# Topology pto, (3,4)-cn, num edge types: 1
# Building blocks:
#     Node 0, Type 0, BuildingBlock: WUSLED_clean_sbu_0, # of connection points: 3
#     Node 1, Type 0, BuildingBlock: WUSLED_clean_sbu_0, # of connection points: 3
#     Node 2, Type 0, BuildingBlock: WUSLED_clean_sbu_0, # of connection points: 3
#     Node 3, Type 0, BuildingBlock: WUSLED_clean_sbu_0, # of connection points: 3
#     Node 4, Type 0, BuildingBlock: WUSLED_clean_sbu_0, # of connection points: 3
#     Node 5, Type 0, BuildingBlock: WUSLED_clean_sbu_0, # of connection points: 3
#     Node 6, Type 0, BuildingBlock: WUSLED_clean_sbu_0, # of connection points: 3
#     Node 7, Type 0, BuildingBlock: WUSLED_clean_sbu_0, # of connection points: 3
#     Node 8, Type 1, BuildingBlock: KOZSID_clean_sbu_0, # of connection points: 4
#     Node 9, Type 1, BuildingBlock: KOZSID_clean_sbu_0, # of connection points: 4
#     Node 10, Type 1, BuildingBlock: KOZSID_clean_sbu_0, # of connection points: 4
#     Node 11, Type 1, BuildingBlock: KOZSID_clean_sbu_0, # of connection points: 4
#     Node 12, Type 1, BuildingBlock: KOZSID_clean_sbu_0, # of connection points: 4
#     Node 13, Type 1, BuildingBlock: KOZSID_clean_sbu_0, # of connection points: 4
#     Edge 14, Type (0, 1), BuildingBlock: EZIPEK_clean_linker_0, # of connection points: 2
#     Edge 15, Type (0, 1), BuildingBlock: EZIPEK_clean_linker_0, # of connection points: 2
#     Edge 16, Type (0, 1), BuildingBlock: EZIPEK_clean_linker_0, # of connection points: 2
#     Edge 17, Type (0, 1), BuildingBlock: EZIPEK_clean_linker_0, # of connection points: 2
#     Edge 18, Type (0, 1), BuildingBlock: EZIPEK_clean_linker_0, # of connection points: 2
#     Edge 19, Type (0, 1), BuildingBlock: EZIPEK_clean_linker_0, # of connection points: 2
#     Edge 20, Type (0, 1), BuildingBlock: EZIPEK_clean_linker_0, # of connection points: 2
#     Edge 21, Type (0, 1), BuildingBlock: EZIPEK_clean_linker_0, # of connection points: 2
#     Edge 22, Type (0, 1), BuildingBlock: EZIPEK_clean_linker_0, # of connection points: 2
#     Edge 23, Type (0, 1), BuildingBlock: EZIPEK_clean_linker_0, # of connection points: 2
#     Edge 24, Type (0, 1), BuildingBlock: EZIPEK_clean_linker_0, # of connection points: 2
#     Edge 25, Type (0, 1), BuildingBlock: EZIPEK_clean_linker_0, # of connection points: 2
#     Edge 26, Type (0, 1), BuildingBlock: EZIPEK_clean_linker_0, # of connection points: 2
#     Edge 27, Type (0, 1), BuildingBlock: EZIPEK_clean_linker_0, # of connection points: 2
#     Edge 28, Type (0, 1), BuildingBlock: EZIPEK_clean_linker_0, # of connection points: 2
#     Edge 29, Type (0, 1), BuildingBlock: EZIPEK_clean_linker_0, # of connection points: 2
#     Edge 30, Type (0, 1), BuildingBlock: EZIPEK_clean_linker_0, # of connection points: 2
#     Edge 31, Type (0, 1), BuildingBlock: EZIPEK_clean_linker_0, # of connection points: 2
#     Edge 32, Type (0, 1), BuildingBlock: EZIPEK_clean_linker_0, # of connection points: 2
#     Edge 33, Type (0, 1), BuildingBlock: EZIPEK_clean_linker_0, # of connection points: 2
#     Edge 34, Type (0, 1), BuildingBlock: EZIPEK_clean_linker_0, # of connection points: 2
#     Edge 35, Type (0, 1), BuildingBlock: EZIPEK_clean_linker_0, # of connection points: 2
#     Edge 36, Type (0, 1), BuildingBlock: EZIPEK_clean_linker_0, # of connection points: 2
#     Edge 37, Type (0, 1), BuildingBlock: EZIPEK_clean_linker_0, # of connection points: 2
# Relax obj value: 0.000
# Max RMSD: 0.027
# Mean RMSD: 0.012
data_MOF--net-pto--node1-WUSLED_clean_sbu_0--node2-KOZSID_clean_sbu_0--edge1-EZIPEK_clean_linker_0
_symmetry_space_group_name_H-M    P1
_symmetry_Int_Tables_number       1
_symmetry_cell_setting            triclinic
loop_
_symmetry_equiv_pos_as_xyz
'x, y, z'
_cell_length_a     39.698314
_cell_length_b     52.583224
_cell_length_c     46.268343
_cell_angle_alpha  86.953521
_cell_angle_beta   87.699134
_cell_angle_gamma 93.404268
loop_
_atom_site_label
_atom_site_type_symbol
_atom_site_fract_x
_atom_site_fract_y
_atom_site_fract_z
_atom_type_partial_charge
C0 C 0.25722 0.22659 0.38087 0.0
C1 C 0.28432 0.21145 0.37458 0.0
C2 C 0.26419 0.18021 0.4132 0.0
C3 C 0.28782 0.18844 0.39068 0.0
C4 C 0.23709 0.19533 0.41935 0.0
C5 C 0.23366 0.21832 0.40332 0.0
U6 U 0.27926 0.27475 0.31648 0.0
O7 O 0.24592 0.29771 0.29001 0.0
O8 O 0.28503 0.31669 0.31493 0.0
C9 C 0.25942 0.31948 0.29812 0.0
C10 C 0.25303 0.25097 0.36441 0.0
C11 C 0.23582 0.33916 0.30544 0.0
C12 C 0.20711 0.36484 0.34001 0.0
C13 C 0.22766 0.3447 0.3342 0.0
C14 C 0.20219 0.37379 0.2885 0.0
C15 C 0.19449 0.37966 0.31714 0.0
C16 C 0.22264 0.35373 0.28273 0.0
C17 C 0.34661 0.25861 0.25897 0.0
C18 C 0.36725 0.2871 0.21805 0.0
C19 C 0.38615 0.24415 0.22277 0.0
C20 C 0.36618 0.23954 0.24833 0.0
C21 C 0.38684 0.26794 0.20744 0.0
C22 C 0.34718 0.28246 0.24367 0.0
C23 C 0.32589 0.25309 0.28598 0.0
O24 O 0.27881 0.26792 0.36387 0.0
O25 O 0.23955 0.24913 0.33907 0.0
O26 O 0.29334 0.24868 0.28291 0.0
O27 O 0.33268 0.26773 0.30743 0.0
H28 H 0.30275 0.21747 0.35729 0.0
H29 H 0.30893 0.17706 0.38564 0.0
H30 H 0.21864 0.18934 0.43662 0.0
H31 H 0.21257 0.22969 0.4085 0.0
H32 H 0.20144 0.36912 0.36226 0.0
H33 H 0.23756 0.33376 0.3521 0.0
H34 H 0.19272 0.38498 0.2706 0.0
H35 H 0.22869 0.34987 0.2604 0.0
H36 H 0.36752 0.30558 0.2065 0.0
H37 H 0.40109 0.22916 0.21493 0.0
H38 H 0.36604 0.22103 0.25983 0.0
H39 H 0.33219 0.29741 0.25155 0.0
C40 C 0.24578 0.84305 0.6956 0.0
C41 C 0.27394 0.85978 0.69967 0.0
C42 C 0.2553 0.88991 0.6626 0.0
C43 C 0.2787 0.88304 0.68323 0.0
C44 C 0.22712 0.87321 0.65872 0.0
C45 C 0.22242 0.85 0.67508 0.0
U46 U 0.26382 0.79543 0.75857 0.0
O47 O 0.22838 0.76968 0.78597 0.0
O48 O 0.26775 0.75384 0.75887 0.0
C49 C 0.24145 0.74898 0.77693 0.0
C50 C 0.24031 0.81824 0.7122 0.0
C51 C 0.2174 0.72772 0.77045 0.0
C52 C 0.18515 0.70264 0.73705 0.0
C53 C 0.20651 0.72402 0.74235 0.0
C54 C 0.18506 0.68874 0.78783 0.0
C55 C 0.17451 0.68477 0.75977 0.0
C56 C 0.20627 0.71002 0.7931 0.0
C57 C 0.32949 0.81399 0.81434 0.0
C58 C 0.36751 0.78856 0.84227 0.0
C59 C 0.35 0.82845 0.86 0.0
C60 C 0.33058 0.83202 0.83569 0.0
C61 C 0.36885 0.80683 0.86332 0.0
C62 C 0.34791 0.79206 0.818 0.0
C63 C 0.31018 0.81912 0.78809 0.0
O64 O 0.26551 0.80312 0.71128 0.0
O65 O 0.22603 0.81886 0.73825 0.0
O66 O 0.27766 0.82165 0.79244 0.0
O67 O 0.31724 0.80601 0.76542 0.0
H68 H 0.29224 0.8548 0.71544 0.0
H69 H 0.30062 0.89565 0.68652 0.0
H70 H 0.20881 0.87814 0.64294 0.0
H71 H 0.20054 0.83738 0.67161 0.0
H72 H 0.17727 0.69985 0.71525 0.0
H73 H 0.21483 0.73743 0.72455 0.0
H74 H 0.17714 0.67518 0.8056 0.0
H75 H 0.21443 0.71248 0.8149 0.0
H76 H 0.38194 0.77177 0.8445 0.0
H77 H 0.3508 0.84276 0.876 0.0
H78 H 0.31672 0.8491 0.83335 0.0
H79 H 0.34756 0.77778 0.80197 0.0
C80 C 0.7331 0.81265 0.26464 0.0
C81 C 0.72963 0.7884 0.25331 0.0
C82 C 0.69367 0.80493 0.21613 0.0
C83 C 0.70998 0.78456 0.22919 0.0
C84 C 0.69748 0.82916 0.22733 0.0
C85 C 0.71705 0.83298 0.25139 0.0
U86 U 0.79519 0.79301 0.3226 0.0
O87 O 0.83456 0.81663 0.34269 0.0
O88 O 0.79219 0.79837 0.3695 0.0
C89 C 0.8191 0.81426 0.36844 0.0
C90 C 0.75255 0.81713 0.29059 0.0
C91 C 0.81559 0.8381 0.38352 0.0
C92 C 0.79027 0.87873 0.3893 0.0
C93 C 0.79344 0.85644 0.37422 0.0
C94 C 0.83139 0.8646 0.42297 0.0
C95 C 0.80921 0.88294 0.41383 0.0
C96 C 0.83453 0.84239 0.40794 0.0
C97 C 0.83374 0.72681 0.31904 0.0
C98 C 0.88426 0.71129 0.34039 0.0
C99 C 0.84229 0.68139 0.32346 0.0
C100 C 0.82307 0.70158 0.31451 0.0
C101 C 0.87223 0.68542 0.33875 0.0
C102 C 0.8649 0.73157 0.3315 0.0
C103 C 0.8128 0.74755 0.30877 0.0
O104 O 0.74324 0.80256 0.31384 0.0
O105 O 0.78551 0.82021 0.2864 0.0
O106 O 0.82877 0.76897 0.2985 0.0
O107 O 0.78573 0.75118 0.32495 0.0
H108 H 0.74183 0.77247 0.26326 0.0
H109 H 0.70726 0.76572 0.22085 0.0
H110 H 0.68507 0.84507 0.21756 0.0
H111 H 0.71941 0.8518 0.25983 0.0
H112 H 0.77297 0.89262 0.38195 0.0
H113 H 0.77857 0.85347 0.35543 0.0
H114 H 0.84616 0.86746 0.44184 0.0
H115 H 0.85171 0.82847 0.41548 0.0
H116 H 0.90903 0.7166 0.34751 0.0
H117 H 0.83355 0.66265 0.31745 0.0
H118 H 0.79996 0.69745 0.30348 0.0
H119 H 0.87467 0.75099 0.33386 0.0
C120 C 0.77866 0.22549 0.73661 0.0
C121 C 0.80342 0.23029 0.7141 0.0
C122 C 0.78884 0.18875 0.69525 0.0
C123 C 0.8085 0.212 0.69354 0.0
C124 C 0.76417 0.18408 0.71778 0.0
C125 C 0.75914 0.20228 0.73825 0.0
U126 U 0.79323 0.28989 0.77361 0.0
O127 O 0.75473 0.31299 0.7933 0.0
O128 O 0.79288 0.29623 0.82023 0.0
C129 C 0.76537 0.30897 0.81959 0.0
C130 C 0.77241 0.24408 0.75876 0.0
C131 C 0.73908 0.30238 0.84281 0.0
C132 C 0.71312 0.27383 0.88177 0.0
C133 C 0.73652 0.27851 0.85827 0.0
C134 C 0.69394 0.31646 0.8742 0.0
C135 C 0.69195 0.2929 0.89007 0.0
C136 C 0.71732 0.32115 0.85082 0.0
C137 C 0.85856 0.34312 0.74527 0.0
C138 C 0.88617 0.37611 0.77277 0.0
C139 C 0.88244 0.38271 0.72082 0.0
C140 C 0.86538 0.35868 0.71984 0.0
C141 C 0.89311 0.39153 0.74726 0.0
C142 C 0.86891 0.35213 0.77182 0.0
C143 C 0.84109 0.31757 0.74349 0.0
O144 O 0.79652 0.24816 0.77692 0.0
O145 O 0.75854 0.26505 0.74997 0.0
O146 O 0.80909 0.31734 0.73716 0.0
O147 O 0.84715 0.30023 0.76385 0.0
H148 H 0.81875 0.24809 0.71248 0.0
H149 H 0.82769 0.21593 0.67632 0.0
H150 H 0.74879 0.1663 0.71951 0.0
H151 H 0.73993 0.19821 0.75544 0.0
H152 H 0.71188 0.25552 0.89378 0.0
H153 H 0.75296 0.26368 0.85256 0.0
H154 H 0.67781 0.33139 0.88029 0.0
H155 H 0.7189 0.33971 0.83931 0.0
H156 H 0.89416 0.38265 0.79337 0.0
H157 H 0.88754 0.39436 0.70093 0.0
H158 H 0.85764 0.35218 0.69915 0.0
H159 H 0.86383 0.34063 0.79181 0.0
C160 C 0.82404 0.735 0.77688 0.0
C161 C 0.85086 0.73975 0.75617 0.0
C162 C 0.86748 0.69607 0.76418 0.0
C163 C 0.87245 0.72036 0.74983 0.0
C164 C 0.84038 0.69136 0.78453 0.0
C165 C 0.81888 0.71064 0.79081 0.0
U166 U 0.78423 0.80078 0.76799 0.0
O167 O 0.73135 0.80926 0.7774 0.0
O168 O 0.77172 0.82661 0.80222 0.0
C169 C 0.73901 0.82324 0.7992 0.0
C170 C 0.8016 0.75503 0.78522 0.0
C171 C 0.71826 0.81768 0.82618 0.0
C172 C 0.70147 0.79073 0.86939 0.0
C173 C 0.72131 0.79531 0.84364 0.0
C174 C 0.67535 0.83074 0.86037 0.0
C175 C 0.67843 0.80849 0.87795 0.0
C176 C 0.69512 0.83529 0.8347 0.0
C177 C 0.80825 0.84925 0.70415 0.0
C178 C 0.77656 0.88603 0.69055 0.0
C179 C 0.8327 0.88225 0.66933 0.0
C180 C 0.83508 0.85916 0.68542 0.0
C181 C 0.80339 0.89583 0.67164 0.0
C182 C 0.779 0.86293 0.70677 0.0
C183 C 0.81122 0.82453 0.72035 0.0
O184 O 0.81634 0.77628 0.79361 0.0
O185 O 0.77608 0.7589 0.76862 0.0
O186 O 0.78471 0.80826 0.72072 0.0
O187 O 0.82498 0.82565 0.74566 0.0
H188 H 0.85526 0.75843 0.74517 0.0
H189 H 0.89321 0.72435 0.73402 0.0
H190 H 0.8361 0.67278 0.7958 0.0
H191 H 0.79835 0.7066 0.80685 0.0
H192 H 0.70412 0.77344 0.88268 0.0
H193 H 0.73904 0.78149 0.83738 0.0
H194 H 0.65769 0.84461 0.8666 0.0
H195 H 0.69242 0.85264 0.82151 0.0
H196 H 0.75373 0.89621 0.69263 0.0
H197 H 0.85366 0.88948 0.65489 0.0
H198 H 0.85785 0.84894 0.68311 0.0
H199 H 0.75803 0.85569 0.72118 0.0
C200 C 0.73266 0.2632 0.2738 0.0
C201 C 0.74186 0.28372 0.25377 0.0
C202 C 0.69441 0.27168 0.22452 0.0
C203 C 0.72284 0.28792 0.22925 0.0
C204 C 0.68509 0.25139 0.24473 0.0
C205 C 0.70409 0.24718 0.26916 0.0
U206 U 0.7998 0.2818 0.3279 0.0
O207 O 0.83842 0.25839 0.34708 0.0
O208 O 0.7996 0.27381 0.37508 0.0
C209 C 0.82444 0.2584 0.37333 0.0
C210 C 0.75265 0.25788 0.29938 0.0
C211 C 0.81947 0.2332 0.38956 0.0
C212 C 0.78432 0.20091 0.41861 0.0
C213 C 0.78779 0.22413 0.40207 0.0
C214 C 0.84386 0.19509 0.41004 0.0
C215 C 0.81237 0.18629 0.42281 0.0
C216 C 0.84738 0.21835 0.39365 0.0
C217 C 0.84476 0.3499 0.31638 0.0
C218 C 0.88673 0.36999 0.34626 0.0
C219 C 0.86891 0.39274 0.30315 0.0
C220 C 0.84707 0.37188 0.29768 0.0
C221 C 0.88891 0.392 0.32745 0.0
C222 C 0.86476 0.34901 0.34076 0.0
C223 C 0.82095 0.32858 0.3098 0.0
O224 O 0.78514 0.25583 0.2942 0.0
O225 O 0.74607 0.27113 0.32201 0.0
O226 O 0.79517 0.3233 0.3283 0.0
O227 O 0.83423 0.30811 0.30033 0.0
H228 H 0.76379 0.29634 0.25703 0.0
H229 H 0.73034 0.30371 0.2139 0.0
H230 H 0.66322 0.23871 0.24145 0.0
H231 H 0.69659 0.23129 0.28438 0.0
H232 H 0.75983 0.19442 0.42833 0.0
H233 H 0.76575 0.23507 0.39938 0.0
H234 H 0.86579 0.18409 0.41309 0.0
H235 H 0.87209 0.22491 0.38441 0.0
H236 H 0.90195 0.3691 0.36516 0.0
H237 H 0.8702 0.40952 0.28842 0.0
H238 H 0.83182 0.37294 0.27879 0.0
H239 H 0.86328 0.33221 0.35546 0.0
C240 C 0.2496 0.23601 0.70419 0.0
C241 C 0.2807 0.22456 0.70233 0.0
C242 C 0.25613 0.19166 0.67297 0.0
C243 C 0.28395 0.20258 0.68675 0.0
C244 C 0.22497 0.20286 0.67528 0.0
C245 C 0.22177 0.22484 0.69073 0.0
U246 U 0.27161 0.28315 0.76288 0.0
O247 O 0.27643 0.32528 0.75945 0.0
O248 O 0.23816 0.30533 0.7894 0.0
C249 C 0.25069 0.32742 0.77775 0.0
C250 C 0.24565 0.2599 0.71917 0.0
C251 C 0.22606 0.34624 0.76938 0.0
C252 C 0.17037 0.35688 0.75406 0.0
C253 C 0.1943 0.33876 0.75917 0.0
C254 C 0.20993 0.39028 0.76835 0.0
C255 C 0.17789 0.38271 0.75896 0.0
C256 C 0.23379 0.37217 0.77353 0.0
C257 C 0.33908 0.2672 0.81756 0.0
C258 C 0.35052 0.2908 0.86034 0.0
C259 C 0.38518 0.25619 0.848 0.0
C260 C 0.36616 0.25211 0.82369 0.0
C261 C 0.37739 0.27543 0.86662 0.0
C262 C 0.33146 0.2867 0.83594 0.0
C263 C 0.31874 0.26174 0.79239 0.0
O264 O 0.23229 0.25736 0.7457 0.0
O265 O 0.27117 0.2771 0.7162 0.0
O266 O 0.32532 0.27679 0.76899 0.0
O267 O 0.28624 0.25676 0.798 0.0
H268 H 0.30252 0.23278 0.71261 0.0
H269 H 0.30821 0.19423 0.68518 0.0
H270 H 0.20323 0.19476 0.6648 0.0
H271 H 0.19757 0.23333 0.69188 0.0
H272 H 0.14573 0.35069 0.74687 0.0
H273 H 0.18773 0.31888 0.75579 0.0
H274 H 0.21615 0.41009 0.77233 0.0
H275 H 0.25808 0.37836 0.78147 0.0
H276 H 0.34421 0.30576 0.87445 0.0
H277 H 0.40582 0.24419 0.85248 0.0
H278 H 0.37241 0.23698 0.80977 0.0
H279 H 0.31065 0.29856 0.83154 0.0
C280 C 0.20715 0.73331 0.33965 0.0
C281 C 0.21387 0.71821 0.31617 0.0
C282 C 0.17262 0.68512 0.33625 0.0
C283 C 0.19668 0.69427 0.31447 0.0
C284 C 0.16602 0.70024 0.35971 0.0
C285 C 0.18316 0.72414 0.36138 0.0
U286 U 0.27224 0.78618 0.31092 0.0
O287 O 0.26956 0.82791 0.30866 0.0
O288 O 0.30828 0.81032 0.33422 0.0
C289 C 0.29407 0.83146 0.32659 0.0
C290 C 0.22485 0.75859 0.34179 0.0
C291 C 0.28853 0.84948 0.34961 0.0
C292 C 0.2519 0.87057 0.38317 0.0
C293 C 0.25648 0.85197 0.3629 0.0
C294 C 0.31133 0.884 0.37756 0.0
C295 C 0.27927 0.88686 0.39045 0.0
C296 C 0.31589 0.86549 0.35734 0.0
C297 C 0.32295 0.77391 0.23994 0.0
C298 C 0.36808 0.80174 0.21609 0.0
C299 C 0.34987 0.76239 0.19476 0.0
C300 C 0.32599 0.75705 0.21763 0.0
C301 C 0.37115 0.78472 0.19381 0.0
C302 C 0.3441 0.79636 0.23908 0.0
C303 C 0.29764 0.76734 0.26376 0.0
O304 O 0.25711 0.75841 0.34712 0.0
O305 O 0.21841 0.77604 0.32171 0.0
O306 O 0.27074 0.78074 0.2641 0.0
O307 O 0.30941 0.76309 0.28961 0.0
H308 H 0.23232 0.72496 0.29918 0.0
H309 H 0.20207 0.68291 0.29619 0.0
H310 H 0.14752 0.69353 0.37668 0.0
H311 H 0.17763 0.7355 0.37965 0.0
H312 H 0.22696 0.8725 0.39288 0.0
H313 H 0.23497 0.83985 0.35731 0.0
H314 H 0.33274 0.89637 0.38287 0.0
H315 H 0.34078 0.86397 0.34733 0.0
H316 H 0.38427 0.81909 0.21567 0.0
H317 H 0.35183 0.74907 0.17778 0.0
H318 H 0.30989 0.73965 0.21793 0.0
H319 H 0.34208 0.8096 0.25612 0.0
C320 C 0.08688 0.57324 0.36219 0.0
C321 C 0.09802 0.58093 0.38859 0.0
C322 C 0.08181 0.56486 0.40948 0.0
C323 C 0.06165 0.54842 0.39473 0.0
N324 N 0.06445 0.55267 0.36561 0.0
Co325 Co 0.03711 0.53487 0.33621 0.0
N326 N 0.01116 0.5126 0.36709 0.0
C327 C 0.01564 0.51227 0.39593 0.0
C328 C 0.99582 0.49378 0.4116 0.0
C329 C 0.97799 0.48121 0.39154 0.0
C330 C 0.98792 0.49288 0.36471 0.0
N331 N 1.00896 0.51783 0.30686 0.0
C332 C 0.98494 0.49832 0.3103 0.0
C333 C 0.97153 0.49231 0.2841 0.0
C334 C 0.98809 0.50827 0.26327 0.0
C335 C 0.01045 0.52314 0.2779 0.0
N336 N 0.06386 0.55647 0.30528 0.0
C337 C 0.06135 0.55531 0.27631 0.0
C338 C 0.08281 0.57266 0.26049 0.0
C339 C 0.09976 0.58592 0.28054 0.0
C340 C 0.08747 0.57593 0.30752 0.0
N341 N 0.07048 0.50803 0.3334 0.0
C342 C 0.11281 0.46686 0.33039 0.0
C343 C 0.09816 0.47675 0.30567 0.0
C344 C 0.07748 0.49732 0.30758 0.0
C345 C 0.10688 0.47828 0.35647 0.0
C346 C 0.08575 0.49865 0.35751 0.0
N347 N 1.00371 0.56162 0.33908 0.0
C348 C 0.97249 0.5952 0.31677 0.0
C349 C 0.95924 0.60128 0.34373 0.0
C350 C 0.96809 0.58705 0.36825 0.0
C351 C 0.99016 0.56746 0.36547 0.0
C352 C 0.99445 0.57538 0.31492 0.0
H353 H 0.99609 0.55744 0.38504 0.0
H354 H 1.00385 0.57168 0.29375 0.0
H355 H 0.06712 0.504 0.28791 0.0
H356 H 0.08183 0.50624 0.37816 0.0
C357 C 0.03902 0.52935 0.40757 0.0
C358 C 0.09738 0.58668 0.33457 0.0
C359 C 0.97537 0.48399 0.33755 0.0
C360 C 0.03569 0.5401 0.26484 0.0
H361 H 0.11556 0.59683 0.3924 0.0
H362 H 0.08383 0.56548 0.43269 0.0
H363 H 0.9949 0.48964 0.43479 0.0
H364 H 0.96008 0.46501 0.39608 0.0
H365 H 0.95246 0.47741 0.28035 0.0
H366 H 0.98512 0.50833 0.24012 0.0
H367 H 0.08478 0.57604 0.23718 0.0
H368 H 0.11821 0.60175 0.27589 0.0
H369 H 0.10253 0.46854 0.28497 0.0
H370 H 0.1181 0.47124 0.37607 0.0
H371 H 0.96598 0.60575 0.29724 0.0
H372 H 0.95811 0.59114 0.38953 0.0
C373 C 0.07715 0.5788 0.77776 0.0
C374 C 0.08733 0.58628 0.80453 0.0
C375 C 0.06892 0.57106 0.82494 0.0
C376 C 0.0486 0.55525 0.80955 0.0
N377 N 0.05332 0.55911 0.78049 0.0
Co378 Co 0.02724 0.54168 0.75009 0.0
N379 N 0.99818 0.52072 0.78015 0.0
C380 C 0.99996 0.52124 0.80926 0.0
C381 C 0.97836 0.50349 0.82431 0.0
C382 C 0.96234 0.49042 0.8036 0.0
C383 C 0.97513 0.50105 0.77703 0.0
N384 N 1.00088 0.52453 0.7197 0.0
C385 C 0.97733 0.50466 0.72238 0.0
C386 C 0.9663 0.49778 0.69566 0.0
C387 C 0.98402 0.51352 0.67529 0.0
C388 C 1.00473 0.52907 0.69068 0.0
N389 N 0.05672 0.56227 0.72001 0.0
C390 C 0.05548 0.56125 0.69091 0.0
C391 C 0.07819 0.57815 0.6758 0.0
C392 C 0.09461 0.59103 0.69644 0.0
C393 C 0.08084 0.58122 0.72304 0.0
N394 N 0.05901 0.51375 0.74976 0.0
C395 C 0.09081 0.46659 0.74991 0.0
C396 C 0.08624 0.48113 0.72402 0.0
C397 C 0.06974 0.50397 0.72442 0.0
C398 C 0.08508 0.47938 0.77549 0.0
C399 C 0.06889 0.50232 0.77501 0.0
N400 N 0.9951 0.56948 0.75049 0.0
C401 C 0.967 0.6035 0.72562 0.0
C402 C 0.9533 0.61109 0.75181 0.0
C403 C 0.96023 0.59729 0.77722 0.0
C404 C 0.98103 0.57677 0.77609 0.0
C405 C 0.98744 0.58266 0.72543 0.0
H406 H 0.98564 0.56732 0.79631 0.0
H407 H 0.99704 0.57775 0.70477 0.0
H408 H 0.06553 0.5132 0.70391 0.0
H409 H 0.06411 0.5102 0.79541 0.0
C410 C 0.0237 0.53752 0.82171 0.0
C411 C 0.08999 0.59165 0.75044 0.0
C412 C 0.96625 0.49071 0.74952 0.0
C413 C 0.03064 0.54591 0.67851 0.0
H414 H 0.10567 0.60153 0.80883 0.0
H415 H 0.06959 0.5719 0.84824 0.0
H416 H 0.97551 0.49987 0.84755 0.0
H417 H 0.94408 0.47437 0.80755 0.0
H418 H 0.94816 0.4824 0.69135 0.0
H419 H 0.98306 0.5129 0.65199 0.0
H420 H 0.0815 0.58139 0.65253 0.0
H421 H 0.11379 0.60645 0.6924 0.0
H422 H 0.0953 0.47563 0.70316 0.0
H423 H 0.0928 0.47193 0.79625 0.0
H424 H 0.96205 0.61368 0.70541 0.0
H425 H 0.94994 0.60255 0.79796 0.0
C426 C 0.29763 0.99809 0.5812 0.0
C427 C 0.32833 0.99147 0.59172 0.0
C428 C 0.35269 1.00697 0.5769 0.0
C429 C 0.33554 0.02218 0.55834 0.0
N430 N 0.30164 1.01749 0.56055 0.0
Co431 Co 0.26724 0.03516 0.53744 0.0
N432 N 0.30327 0.05602 0.51349 0.0
C433 C 0.33704 0.05441 0.51491 0.0
C434 C 0.3555 0.07114 0.49583 0.0
C435 C 0.33214 0.08441 0.4815 0.0
C436 C 0.30068 0.07505 0.49283 0.0
N437 N 0.23283 0.05347 0.515 0.0
C438 C 0.23688 0.07343 0.49505 0.0
C439 C 0.20606 0.08157 0.48633 0.0
C440 C 0.18164 0.06638 0.50144 0.0
C441 C 0.19885 0.04998 0.51855 0.0
N442 N 0.23124 1.01365 0.56071 0.0
C443 C 0.19748 1.01407 0.558 0.0
C444 C 0.17907 0.99618 0.57569 0.0
C445 C 0.20247 0.98322 0.5903 0.0
C446 C 0.23392 0.99409 0.5807 0.0
N447 N 0.26624 0.06215 0.56619 0.0
C448 C 0.26417 0.10305 0.60325 0.0
C449 C 0.23476 0.08875 0.59744 0.0
C450 C 0.23633 0.06855 0.57897 0.0
C451 C 0.29474 0.09623 0.59096 0.0
C452 C 0.29525 0.07574 0.57282 0.0
N453 N 0.26823 1.0082 0.50866 0.0
C454 C 0.23921 0.97951 0.47716 0.0
C455 C 0.26931 0.96857 0.46982 0.0
C456 C 0.2989 0.97786 0.48187 0.0
C457 C 0.29785 0.9976 0.50097 0.0
C458 C 0.23921 0.99913 0.49652 0.0
H459 H 0.32133 1.00386 0.50936 0.0
H460 H 0.21539 1.00653 0.50145 0.0
H461 H 0.21292 0.05866 0.57502 0.0
H462 H 0.31939 0.07152 0.56409 0.0
C463 C 0.3506 0.03896 0.53647 0.0
C464 C 0.26555 0.98457 0.59056 0.0
C465 C 0.26924 0.0858 0.48435 0.0
C466 C 0.18387 0.03138 0.53845 0.0
H467 H 0.33267 0.97652 0.60789 0.0
H468 H 0.37976 1.00655 0.57869 0.0
H469 H 0.38271 0.074 0.49337 0.0
H470 H 0.33761 0.09975 0.46514 0.0
H471 H 0.20166 0.09712 0.47095 0.0
H472 H 0.15457 0.06745 0.50044 0.0
H473 H 0.1519 0.9927 0.57742 0.0
H474 H 0.19703 0.96732 0.60595 0.0
H475 H 0.21056 0.09348 0.60666 0.0
H476 H 0.31812 0.10685 0.5951 0.0
H477 H 0.21575 0.97283 0.46813 0.0
H478 H 0.32278 0.9699 0.47653 0.0
C479 C 0.48186 0.82056 0.08284 0.0
C480 C 0.47258 0.84376 0.09257 0.0
C481 C 0.49172 0.86227 0.07661 0.0
C482 C 0.51158 0.84938 0.0582 0.0
N483 N 0.50605 0.82372 0.06115 0.0
Co484 Co 0.53104 0.79772 0.03999 0.0
N485 N 0.55968 0.825 0.0169 0.0
C486 C 0.55797 0.85053 0.01826 0.0
C487 C 0.57943 0.86449 0.9987 0.0
C488 C 0.59553 0.84685 0.9836 0.0
C489 C 0.58297 0.82305 0.99497 0.0
N490 N 0.55668 0.77173 0.01946 0.0
C491 C 0.58104 0.77485 0.99793 0.0
C492 C 0.5922 0.75165 0.98982 0.0
C493 C 0.5739 0.73316 1.00653 0.0
C494 C 0.5528 0.74608 0.02388 0.0
N495 N 0.5017 0.77046 0.06237 0.0
C496 C 0.50235 0.74496 0.05998 0.0
C497 C 0.47915 0.73099 0.07804 0.0
C498 C 0.4628 0.74858 0.09301 0.0
C499 C 0.47714 0.77236 0.08326 0.0
N500 N 0.49783 0.79819 1.0088 0.0
C501 C 0.4541 0.79943 0.96227 0.0
C502 C 0.46566 0.77641 0.97305 0.0
C503 C 0.48728 0.7762 0.99624 0.0
C504 C 0.46408 0.82173 0.97543 0.0
C505 C 0.48574 0.82069 0.99852 0.0
N506 N 0.56428 0.7973 0.07121 0.0
C507 C 0.59279 0.77448 0.10904 0.0
C508 C 0.60816 0.7972 0.11766 0.0
C509 C 0.60191 0.81988 0.10244 0.0
C510 C 0.58005 0.81952 0.07949 0.0
C511 C 0.57126 0.77493 0.0858 0.0
H512 H 0.57603 0.83752 0.06903 0.0
H513 H 0.56029 0.75696 0.08027 0.0
H514 H 0.49543 0.75807 1.00339 0.0
H515 H 0.49265 0.8384 1.00745 0.0
C516 C 0.53558 0.86079 0.03791 0.0
C517 C 0.4674 0.79606 0.09533 0.0
C518 C 0.59327 0.79921 0.98359 0.0
C519 C 0.5269 0.73468 0.04237 0.0
H520 H 0.45409 0.84694 0.10962 0.0
H521 H 0.49142 0.8827 0.07841 0.0
H522 H 0.58261 0.88505 0.99549 0.0
H523 H 0.61408 0.85103 0.96594 0.0
H524 H 0.61104 0.74845 0.97306 0.0
H525 H 0.57504 0.71271 1.00546 0.0
H526 H 0.47524 0.71043 0.08058 0.0
H527 H 0.44302 0.74439 0.10966 0.0
H528 H 0.45834 0.75871 0.96338 0.0
H529 H 0.45551 0.83994 0.96766 0.0
H530 H 0.5972 0.75648 0.12034 0.0
H531 H 0.61348 0.83789 0.10854 0.0
C532 C 0.83166 1.00397 0.59151 0.0
C533 C 0.86237 0.99717 0.6019 0.0
C534 C 0.88679 1.01246 0.58691 0.0
C535 C 0.86969 0.02769 0.56834 0.0
N536 N 0.83576 0.02324 0.57073 0.0
Co537 Co 0.80141 0.0409 0.54756 0.0
N538 N 0.83752 0.06158 0.52355 0.0
C539 C 0.87129 0.05993 0.52499 0.0
C540 C 0.8898 0.07674 0.50603 0.0
C541 C 0.8665 0.09013 0.4918 0.0
C542 C 0.83501 0.08072 0.50303 0.0
N543 N 0.76705 0.05915 0.52497 0.0
C544 C 0.77123 0.07898 0.50485 0.0
C545 C 0.7405 0.08696 0.49576 0.0
C546 C 0.71598 0.07188 0.5109 0.0
C547 C 0.73306 0.05565 0.52835 0.0
N548 N 0.76531 1.01967 0.57103 0.0
C549 C 0.73155 0.02024 0.56844 0.0
C550 C 0.71311 1.00252 0.58636 0.0
C551 C 0.7365 0.98954 0.60099 0.0
C552 C 0.76795 1.00017 0.59111 0.0
N553 N 0.80059 0.06804 0.57613 0.0
C554 C 0.79912 0.10792 0.61469 0.0
C555 C 0.7694 0.09462 0.6076 0.0
C556 C 0.77068 0.07493 0.58843 0.0
C557 C 0.82963 0.10086 0.60244 0.0
C558 C 0.82981 0.08096 0.58348 0.0
N559 N 0.80217 1.01371 0.51903 0.0
C560 C 0.77258 0.98391 0.48915 0.0
C561 C 0.80247 0.97245 0.48229 0.0
C562 C 0.83235 0.9824 0.49336 0.0
C563 C 0.83168 1.00296 0.51138 0.0
C564 C 0.77297 1.00431 0.50744 0.0
H565 H 0.85533 1.00959 0.51916 0.0
H566 H 0.74924 1.01191 0.51219 0.0
H567 H 0.7471 0.06568 0.58376 0.0
H568 H 0.85391 0.07649 0.57489 0.0
C569 C 0.88482 0.04439 0.54646 0.0
C570 C 0.79954 0.99056 0.60089 0.0
C571 C 0.80361 0.09145 0.49449 0.0
C572 C 0.71798 0.03732 0.54856 0.0
H573 H 0.86669 0.98221 0.61807 0.0
H574 H 0.91386 1.01187 0.58859 0.0
H575 H 0.91702 0.07958 0.50362 0.0
H576 H 0.87204 0.10554 0.47555 0.0
H577 H 0.73629 0.10239 0.48014 0.0
H578 H 0.68892 0.07293 0.50973 0.0
H579 H 0.68593 0.99916 0.58821 0.0
H580 H 0.73109 0.97379 0.61684 0.0
H581 H 0.74522 0.09951 0.61673 0.0
H582 H 0.85324 0.11071 0.60748 0.0
H583 H 0.7489 0.97683 0.48081 0.0
H584 H 0.85611 0.97414 0.48834 0.0
C585 C 0.48534 0.30334 0.08885 0.0
C586 C 0.47511 0.32638 0.0983 0.0
C587 C 0.49358 0.34514 0.08212 0.0
C588 C 0.51395 0.33252 0.06383 0.0
N589 N 0.50932 0.30681 0.06702 0.0
Co590 Co 0.53513 0.28115 0.04606 0.0
N591 N 0.56387 0.30874 0.02361 0.0
C592 C 0.56186 0.33423 0.0252 0.0
C593 C 0.58392 0.34844 1.00635 0.0
C594 C 0.6008 0.33102 0.99154 0.0
C595 C 0.58803 0.30709 1.00231 0.0
N596 N 0.56134 0.25545 0.02552 0.0
C597 C 0.58609 0.25887 1.00435 0.0
C598 C 0.59732 0.23581 0.99585 0.0
C599 C 0.57873 0.21709 1.01198 0.0
C600 C 0.55736 0.22974 0.02937 0.0
N601 N 0.50597 0.25355 0.0681 0.0
C602 C 0.50703 0.22808 0.06566 0.0
C603 C 0.48426 0.21388 0.0839 0.0
C604 C 0.46788 0.23128 0.09916 0.0
C605 C 0.48171 0.25518 0.08932 0.0
N606 N 0.50241 0.28151 1.01446 0.0
C607 C 0.45941 0.28211 0.96738 0.0
C608 C 0.47041 0.25922 0.979 0.0
C609 C 0.49163 0.25933 1.0024 0.0
C610 C 0.46953 0.30467 0.97998 0.0
C611 C 0.49088 0.30395 1.00335 0.0
N612 N 0.56785 0.28079 0.07763 0.0
C613 C 0.59751 0.25757 0.11432 0.0
C614 C 0.61135 0.28026 0.12436 0.0
C615 C 0.60371 0.30323 0.11039 0.0
C616 C 0.58201 0.30307 0.08726 0.0
C617 C 0.57611 0.25825 0.09105 0.0
H618 H 0.57684 0.32121 0.0777 0.0
H619 H 0.56631 0.24028 0.08451 0.0
H620 H 0.49925 0.24124 1.01012 0.0
H621 H 0.49797 0.32181 1.01185 0.0
C622 C 0.53846 0.34422 0.04418 0.0
C623 C 0.47219 0.27871 0.10189 0.0
C624 C 0.59895 0.28344 0.99091 0.0
C625 C 0.53159 0.21805 0.04782 0.0
H626 H 0.45658 0.32929 0.11541 0.0
H627 H 0.49274 0.36554 0.08389 0.0
H628 H 0.58698 0.36902 1.00341 0.0
H629 H 0.62 0.33542 0.97444 0.0
H630 H 0.61652 0.23284 0.9793 0.0
H631 H 0.57999 0.19668 1.01061 0.0
H632 H 0.48077 0.1933 0.08647 0.0
H633 H 0.44854 0.22687 0.11615 0.0
H634 H 0.46289 0.24131 0.96986 0.0
H635 H 0.46129 0.3228 0.97161 0.0
H636 H 0.60304 0.23937 0.12456 0.0
H637 H 0.61415 0.32123 0.11751 0.0
C638 C 0.13882 0.39802 0.32989 0.0
C639 C 0.17396 0.40191 0.32285 0.0
C640 C 0.16908 0.44839 0.3207 0.0
C641 C 0.13422 0.44452 0.32888 0.0
N642 N 0.08684 0.41615 0.34593 0.0
N643 N 0.22387 0.43034 0.31639 0.0
C644 C 0.1194 0.41944 0.33495 0.0
C645 C 0.18947 0.42701 0.31967 0.0
N646 N 0.1238 0.37389 0.33069 0.0
N647 N 0.18251 0.47252 0.3133 0.0
H648 H 0.23954 0.41514 0.31539 0.0
H649 H 0.23718 0.44794 0.317 0.0
H650 H 0.16876 0.48872 0.31496 0.0
H651 H 0.2066 0.47647 0.30382 0.0
H652 H 0.09777 0.36993 0.33233 0.0
H653 H 0.13729 0.35774 0.3277 0.0
H654 H 0.07559 0.39861 0.35375 0.0
H655 H 0.07167 0.43133 0.34932 0.0
C656 C 0.11738 0.66239 0.75392 0.0
C657 C 0.15302 0.66136 0.75446 0.0
C658 C 0.14753 0.6147 0.75201 0.0
C659 C 0.11201 0.61584 0.75059 0.0
N660 N 0.06337 0.64066 0.74503 0.0
N661 N 0.20267 0.63758 0.74889 0.0
C662 C 0.09703 0.6397 0.74992 0.0
C663 C 0.16828 0.63778 0.75195 0.0
N664 N 0.10293 0.68491 0.75836 0.0
N665 N 0.16128 0.59148 0.75417 0.0
H666 H 0.21859 0.65409 0.74895 0.0
H667 H 0.21539 0.6215 0.74399 0.0
H668 H 0.147 0.57426 0.75324 0.0
H669 H 0.18641 0.58909 0.75869 0.0
H670 H 0.07705 0.68641 0.76168 0.0
H671 H 0.11704 0.70201 0.76064 0.0
H672 H 0.05165 0.65759 0.74089 0.0
H673 H 0.0475 0.6244 0.7429 0.0
C674 C 0.87852 0.6372 0.34841 0.0
C675 C 0.89206 0.66277 0.34935 0.0
C676 C 0.94827 0.64658 0.3549 0.0
C677 C 0.93588 0.62229 0.34654 0.0
N678 N 0.88821 0.59383 0.33677 0.0
N679 N 0.93259 0.6841 0.37853 0.0
C680 C 0.90065 0.61734 0.34388 0.0
C681 C 0.92524 0.66581 0.35957 0.0
N682 N 0.84537 0.63143 0.35635 0.0
N683 N 0.98198 0.65143 0.35838 0.0
H684 H 0.91364 0.69444 0.38774 0.0
H685 H 0.95557 0.68588 0.38861 0.0
H686 H 0.99954 0.63761 0.35616 0.0
H687 H 0.99248 0.66967 0.36157 0.0
H688 H 0.83466 0.61282 0.35879 0.0
H689 H 0.83003 0.64517 0.36433 0.0
H690 H 0.86315 0.59015 0.33157 0.0
H691 H 0.90341 0.57851 0.33422 0.0
C692 C 0.94767 0.41876 0.74503 0.0
C693 C 0.91184 0.41692 0.74815 0.0
C694 C 0.9115 0.46353 0.75041 0.0
C695 C 0.94735 0.46517 0.74911 0.0
N696 N 0.99999 0.44461 0.74871 0.0
N697 N 0.85953 0.43669 0.7573 0.0
C698 C 0.96557 0.44283 0.7474 0.0
C699 C 0.89371 0.4391 0.75182 0.0
N700 N 0.96449 0.39755 0.73914 0.0
N701 N 0.89454 0.48543 0.7496 0.0
H702 H 0.84558 0.41922 0.75771 0.0
H703 H 0.8452 0.45162 0.76339 0.0
H704 H 0.90675 0.50357 0.74933 0.0
H705 H 0.86862 0.48584 0.74722 0.0
H706 H 0.99013 0.39798 0.73337 0.0
H707 H 0.95234 0.37949 0.73813 0.0
H708 H 0.0147 0.42893 0.75071 0.0
H709 H 0.01391 0.46195 0.74978 0.0
C710 C 0.2595 0.13204 0.41886 0.0
C711 C 0.26779 0.15588 0.43071 0.0
C712 C 0.27677 0.13389 0.47777 0.0
C713 C 0.2701 0.11002 0.4655 0.0
N714 N 0.26157 0.08592 0.42331 0.0
N715 N 0.29065 0.17936 0.46953 0.0
C716 C 0.26349 0.10898 0.43566 0.0
C717 C 0.27832 0.15674 0.45965 0.0
N718 N 0.24649 0.13145 0.39197 0.0
N719 N 0.28065 0.13475 0.50694 0.0
H720 H 0.2922 0.19643 0.45685 0.0
H721 H 0.30205 0.1809 0.48928 0.0
H722 H 0.28019 0.11843 0.52083 0.0
H723 H 0.28195 0.15162 0.51774 0.0
H724 H 0.23639 0.11488 0.38343 0.0
H725 H 0.24334 0.14787 0.37895 0.0
H726 H 0.26037 0.08398 0.4011 0.0
H727 H 0.26399 0.06869 0.43508 0.0
C728 C 0.42553 0.81254 0.88537 0.0
C729 C 0.39094 0.80387 0.88843 0.0
C730 C 0.39734 0.79312 0.94019 0.0
C731 C 0.43236 0.80039 0.93673 0.0
N732 N 0.4811 0.81319 0.90545 0.0
N733 N 0.34477 0.78245 0.91721 0.0
C734 C 0.44683 0.80902 0.90912 0.0
C735 C 0.3771 0.79312 0.91543 0.0
N736 N 0.43778 0.82484 0.85998 0.0
N737 N 0.38324 0.78708 0.96732 0.0
H738 H 0.32908 0.78254 0.89965 0.0
H739 H 0.33429 0.77183 0.93534 0.0
H740 H 0.39731 0.78662 0.98589 0.0
H741 H 0.35733 0.78436 0.97181 0.0
H742 H 0.4616 0.83428 0.85742 0.0
H743 H 0.42323 0.82722 0.84186 0.0
H744 H 0.49366 0.81666 0.88532 0.0
H745 H 0.49743 0.81123 0.92241 0.0
C746 C 0.82129 0.9301 0.41959 0.0
C747 C 0.80563 0.90632 0.43044 0.0
C748 C 0.78865 0.92567 0.47558 0.0
C749 C 0.8025 0.94981 0.46403 0.0
N750 N 0.82621 0.97607 0.42308 0.0
N751 N 0.76893 0.88244 0.4662 0.0
C752 C 0.81715 0.95232 0.43543 0.0
C753 C 0.78766 0.90441 0.4577 0.0
N754 N 0.84115 0.93127 0.39467 0.0
N755 N 0.7776 0.92279 0.504 0.0
H756 H 0.76763 0.86649 0.45371 0.0
H757 H 0.75235 0.88074 0.48432 0.0
H758 H 0.77753 0.93787 0.51773 0.0
H759 H 0.771 0.90514 0.51464 0.0
H760 H 0.85635 0.94733 0.38738 0.0
H761 H 0.84451 0.91551 0.38233 0.0
H762 H 0.83368 0.97944 0.40131 0.0
H763 H 0.82342 0.99274 0.43395 0.0
C764 C 0.68086 0.29152 0.94413 0.0
C765 C 0.6684 0.28874 0.91604 0.0
C766 C 0.61036 0.28293 0.9369 0.0
C767 C 0.62304 0.28444 0.96504 0.0
N768 N 0.67017 0.28591 0.9962 0.0
N769 N 0.6224 0.27773 0.88573 0.0
C770 C 0.65829 0.28741 0.96887 0.0
C771 C 0.63341 0.28324 0.91245 0.0
N772 N 0.71406 0.29906 0.94707 0.0
N773 N 0.57624 0.28189 0.93353 0.0
H774 H 0.63859 0.27797 0.86737 0.0
H775 H 0.59785 0.27098 0.88208 0.0
H776 H 0.55863 0.28096 0.95098 0.0
H777 H 0.5653 0.28366 0.91352 0.0
H778 H 0.7239 0.3043 0.96656 0.0
H779 H 0.73149 0.3019 0.92956 0.0
H780 H 0.69564 0.28511 1.00047 0.0
H781 H 0.65431 0.28347 1.0148 0.0
C782 C 0.27051 0.91414 0.61494 0.0
C783 C 0.26024 0.91446 0.64468 0.0
C784 C 0.25842 0.96116 0.63977 0.0
C785 C 0.26502 0.96043 0.60947 0.0
N786 N 0.27397 0.93622 0.56736 0.0
N787 N 0.24051 0.93772 0.68492 0.0
C788 C 0.27024 0.9369 0.59682 0.0
C789 C 0.25331 0.93787 0.65703 0.0
N790 N 0.28143 0.89218 0.60422 0.0
N791 N 0.25753 0.98419 0.65208 0.0
H792 H 0.23661 0.92112 0.69829 0.0
H793 H 0.23135 0.9537 0.69417 0.0
H794 H 0.26061 1.00157 0.64 0.0
H795 H 0.25645 0.98619 0.67435 0.0
H796 H 0.29259 0.89127 0.58359 0.0
H797 H 0.28203 0.8752 0.61686 0.0
H798 H 0.27402 0.91937 0.55653 0.0
H799 H 0.27461 0.95253 0.55344 0.0
C800 C 0.63618 0.79944 0.19556 0.0
C801 C 0.67185 0.80099 0.19105 0.0
C802 C 0.66553 0.79637 0.13891 0.0
C803 C 0.63004 0.79748 0.14309 0.0
N804 N 0.58138 0.8026 0.17463 0.0
N805 N 0.72096 0.80355 0.15842 0.0
C806 C 0.61529 0.79963 0.17125 0.0
C807 C 0.68669 0.80001 0.16271 0.0
N808 N 0.62231 0.79714 0.22319 0.0
N809 N 0.67891 0.79146 0.11223 0.0
H810 H 0.73727 0.80588 0.17534 0.0
H811 H 0.73318 0.80596 0.13805 0.0
H812 H 0.66423 0.78927 0.09421 0.0
H813 H 0.70406 0.78763 0.10835 0.0
H814 H 0.59664 0.79323 0.22807 0.0
H815 H 0.63682 0.79703 0.24149 0.0
H816 H 0.56963 0.80727 0.19398 0.0
H817 H 0.56515 0.80216 0.15747 0.0
C818 C 0.78079 0.17194 0.64567 0.0
C819 C 0.79387 0.16897 0.67369 0.0
C820 C 0.80934 0.12565 0.66346 0.0
C821 C 0.79817 0.12921 0.63482 0.0
N822 N 0.77904 0.1573 0.59685 0.0
N823 N 0.82632 0.14517 0.70741 0.0
C824 C 0.78559 0.15285 0.62539 0.0
C825 C 0.80989 0.14645 0.68201 0.0
N826 N 0.76262 0.19254 0.63879 0.0
N827 N 0.81811 0.10209 0.67336 0.0
H828 H 0.82724 0.16002 0.72149 0.0
H829 H 0.84151 0.13044 0.7133 0.0
H830 H 0.81799 0.08638 0.66051 0.0
H831 H 0.82281 0.09752 0.69493 0.0
H832 H 0.74911 0.19433 0.62004 0.0
H833 H 0.75888 0.20705 0.65288 0.0
H834 H 0.7734 0.17506 0.58793 0.0
H835 H 0.78202 0.14374 0.58145 0.0
C836 C 0.39356 0.2719 0.1529 0.0
C837 C 0.40841 0.27258 0.18031 0.0
C838 C 0.46499 0.27682 0.15637 0.0
C839 C 0.45008 0.27746 0.12901 0.0
N840 N 0.40064 0.27973 0.10072 0.0
N841 N 0.45753 0.28026 0.2083 0.0
C842 C 0.41444 0.2763 0.12714 0.0
C843 C 0.44397 0.27638 0.18207 0.0
N844 N 0.35967 0.266 0.15151 0.0
N845 N 0.49925 0.27593 0.15777 0.0
H846 H 0.44288 0.28007 0.22756 0.0
H847 H 0.48282 0.2858 0.21075 0.0
H848 H 0.51555 0.27699 0.13943 0.0
H849 H 0.51137 0.27232 0.17697 0.0
H850 H 0.34787 0.26234 0.13235 0.0
H851 H 0.34351 0.2629 0.16986 0.0
H852 H 0.37504 0.2819 0.09806 0.0
H853 H 0.4152 0.28235 0.08139 0.0
C854 C 0.87951 0.65423 0.743 0.0
C855 C 0.89081 0.67544 0.75856 0.0
C856 C 0.94506 0.6562 0.76531 0.0
C857 C 0.93218 0.63366 0.75291 0.0
N858 N 0.88545 0.6098 0.73329 0.0
N859 N 0.93268 0.69539 0.78781 0.0
C860 C 0.89898 0.63233 0.74248 0.0
C861 C 0.92324 0.67617 0.77048 0.0
N862 N 0.85043 0.65524 0.72825 0.0
N863 N 0.97842 0.65876 0.77155 0.0
H864 H 0.91759 0.71046 0.792 0.0
H865 H 0.95427 0.69538 0.79987 0.0
H866 H 0.99511 0.64451 0.76822 0.0
H867 H 0.99024 0.67575 0.7776 0.0
H868 H 0.84261 0.64157 0.71405 0.0
H869 H 0.83561 0.67098 0.72814 0.0
H870 H 0.86016 0.60681 0.72852 0.0
H871 H 0.89876 0.59331 0.73272 0.0
C872 C 0.94681 0.4148 0.32524 0.0
C873 C 0.9118 0.41463 0.33294 0.0
C874 C 0.91831 0.45987 0.34382 0.0
C875 C 0.95354 0.45972 0.33735 0.0
N876 N 1.00252 0.43636 0.32677 0.0
N877 N 0.86525 0.4352 0.35471 0.0
C878 C 0.96815 0.43691 0.3296 0.0
C879 C 0.89788 0.43667 0.34382 0.0
N880 N 0.9594 0.39421 0.31265 0.0
N881 N 0.90425 0.48239 0.349 0.0
H882 H 0.8496 0.41852 0.35502 0.0
H883 H 0.85456 0.44974 0.36567 0.0
H884 H 0.91851 0.49964 0.34972 0.0
H885 H 0.87832 0.48438 0.35057 0.0
H886 H 0.98375 0.39419 0.30344 0.0
H887 H 0.94471 0.37754 0.30956 0.0
H888 H 0.01501 0.41975 0.32408 0.0
H889 H 0.01884 0.4523 0.32939 0.0
C890 C 0.14379 0.41181 0.72813 0.0
C891 C 0.15146 0.40157 0.75591 0.0
C892 C 0.10622 0.42529 0.77735 0.0
C893 C 0.10467 0.43998 0.7508 0.0
N894 N 0.09965 0.42979 0.70097 0.0
N895 N 0.13832 0.39742 0.80745 0.0
C896 C 0.1172 0.42865 0.72567 0.0
C897 C 0.13201 0.40783 0.78068 0.0
N898 N 0.16192 0.40574 0.70404 0.0
N899 N 0.08021 0.4252 0.79756 0.0
H900 H 0.15594 0.38372 0.81073 0.0
H901 H 0.12746 0.40363 0.8265 0.0
H902 H 0.0584 0.43472 0.79348 0.0
H903 H 0.07821 0.4131 0.81621 0.0
H904 H 0.15915 0.41473 0.68371 0.0
H905 H 0.18127 0.39316 0.70483 0.0
H906 H 0.10619 0.42012 0.68266 0.0
H907 H 0.0755 0.43663 0.70084 0.0
C908 C 0.11956 0.6587 0.32686 0.0
C909 C 0.1539 0.6598 0.33447 0.0
C910 C 0.15233 0.61293 0.33842 0.0
C911 C 0.11713 0.61197 0.33398 0.0
N912 N 0.0661 0.63375 0.32706 0.0
N913 N 0.20211 0.6383 0.35106 0.0
C914 C 0.10043 0.63483 0.32899 0.0
C915 C 0.17012 0.63698 0.34112 0.0
N916 N 0.10553 0.68043 0.31683 0.0
N917 N 0.16886 0.59085 0.33949 0.0
H918 H 0.21603 0.65551 0.35314 0.0
H919 H 0.21393 0.6225 0.35935 0.0
H920 H 0.15653 0.57292 0.33794 0.0
H921 H 0.19504 0.59039 0.33957 0.0
H922 H 0.08185 0.68055 0.30797 0.0
H923 H 0.11876 0.69822 0.31502 0.0
H924 H 0.05198 0.64981 0.32636 0.0
H925 H 0.05125 0.61665 0.32832 0.0
C926 C 0.80331 0.94394 0.66699 0.0
C927 C 0.8008 0.92013 0.65382 0.0
C928 C 0.79898 0.94251 0.60593 0.0
C929 C 0.79919 0.96617 0.6193 0.0
N930 N 0.79638 0.98956 0.66258 0.0
N931 N 0.79002 0.89645 0.61158 0.0
C932 C 0.79973 0.96691 0.64989 0.0
C933 C 0.79687 0.91934 0.62348 0.0
N934 N 0.81051 0.94466 0.69559 0.0
N935 N 0.80171 0.94221 0.5764 0.0
H936 H 0.78808 0.87911 0.62375 0.0
H937 H 0.78332 0.89478 0.59021 0.0
H938 H 0.80242 0.95872 0.5628 0.0
H939 H 0.80588 0.92581 0.56545 0.0
H940 H 0.81637 0.96147 0.70573 0.0
H941 H 0.81328 0.92829 0.70881 0.0
H942 H 0.79286 0.99105 0.68483 0.0
H943 H 0.79452 1.0068 0.65067 0.0
C944 C 0.64259 0.2867 0.20092 0.0
C945 C 0.67427 0.27567 0.19832 0.0
C946 C 0.66681 0.2715 0.14629 0.0
C947 C 0.63357 0.27982 0.14961 0.0
N948 N 0.58801 0.29256 0.18065 0.0
N949 N 0.71516 0.25473 0.16955 0.0
C950 C 0.621 0.2868 0.17707 0.0
C951 C 0.6861 0.26738 0.17123 0.0
N952 N 0.63349 0.29758 0.22603 0.0
N953 N 0.68024 0.26818 0.11918 0.0
H954 H 0.73021 0.25164 0.18721 0.0
H955 H 0.72307 0.24561 0.15127 0.0
H956 H 0.66687 0.27106 0.10044 0.0
H957 H 0.70549 0.26476 0.11498 0.0
H958 H 0.61245 0.30834 0.22829 0.0
H959 H 0.6486 0.29773 0.24397 0.0
H960 H 0.57621 0.29486 0.20076 0.0
H961 H 0.57151 0.29316 0.16369 0.0
C962 C 0.26158 0.14428 0.66896 0.0
C963 C 0.25963 0.16894 0.65522 0.0
C964 C 0.25845 0.15012 0.60772 0.0
C965 C 0.26277 0.12573 0.62125 0.0
N966 N 0.27316 0.0998 0.66409 0.0
N967 N 0.26237 0.19605 0.61139 0.0
C968 C 0.26579 0.12289 0.65171 0.0
C969 C 0.25981 0.17205 0.62453 0.0
N970 N 0.2581 0.14117 0.69847 0.0
N971 N 0.25216 0.15224 0.57889 0.0
H972 H 0.26357 0.21256 0.62295 0.0
H973 H 0.26631 0.19966 0.58914 0.0
H974 H 0.2514 0.13669 0.56581 0.0
H975 H 0.24503 0.16896 0.56839 0.0
H976 H 0.25554 0.12343 0.70971 0.0
H977 H 0.25519 0.15636 0.71179 0.0
H978 H 0.27945 0.09709 0.68561 0.0
H979 H 0.27539 0.08359 0.65226 0.0
C980 C 0.43096 0.78537 0.17304 0.0
C981 C 0.39648 0.79001 0.16922 0.0
C982 C 0.40834 0.79854 0.11696 0.0
C983 C 0.44303 0.79509 0.12102 0.0
N984 N 0.48869 0.78969 0.1531 0.0
N985 N 0.35338 0.80566 0.13894 0.0
C986 C 0.45474 0.78991 0.14918 0.0
C987 C 0.38549 0.79801 0.14155 0.0
N988 N 0.4407 0.7756 0.19916 0.0
N989 N 0.39708 0.80154 0.08952 0.0
H990 H 0.33603 0.80553 0.1565 0.0
H991 H 0.34481 0.81418 0.12001 0.0
H992 H 0.41318 0.80255 0.07105 0.0
H993 H 0.37163 0.80123 0.08486 0.0
H994 H 0.46454 0.76902 0.20245 0.0
H995 H 0.42414 0.7723 0.21723 0.0
H996 H 0.49913 0.78874 0.17338 0.0
H997 H 0.50674 0.79251 0.13603 0.0
C998 C 0.80305 0.1384 0.42822 0.0
C999 C 0.80905 0.16201 0.44123 0.0
C1000 C 0.80812 0.13956 0.4893 0.0
C1001 C 0.80477 0.11587 0.47603 0.0
N1002 N 0.80269 0.09212 0.433 0.0
N1003 N 0.8211 0.18532 0.48347 0.0
C1004 C 0.80318 0.11512 0.44549 0.0
C1005 C 0.81257 0.16266 0.47163 0.0
N1006 N 0.79651 0.13831 0.39943 0.0
N1007 N 0.80636 0.13994 0.51885 0.0
H1008 H 0.82366 0.20269 0.47137 0.0
H1009 H 0.82789 0.18682 0.50483 0.0
H1010 H 0.80385 0.12341 0.53246 0.0
H1011 H 0.80494 0.15655 0.52998 0.0
H1012 H 0.78831 0.12206 0.38919 0.0
H1013 H 0.79693 0.15494 0.38604 0.0
H1014 H 0.80535 0.0902 0.41077 0.0
H1015 H 0.8019 0.07473 0.44503 0.0
C1016 C 0.43057 0.29081 0.8898 0.0
C1017 C 0.39738 0.27911 0.89286 0.0
C1018 C 0.40319 0.27333 0.94543 0.0
C1019 C 0.43762 0.28229 0.94186 0.0
N1020 N 0.48557 0.29676 0.91032 0.0
N1021 N 0.35315 0.2564 0.92287 0.0
C1022 C 0.4517 0.29041 0.91395 0.0
C1023 C 0.38388 0.2697 0.92053 0.0
N1024 N 0.44162 0.3028 0.86391 0.0
N1025 N 0.38875 0.26885 0.9727 0.0
H1026 H 0.33809 0.25354 0.90523 0.0
H1027 H 0.34366 0.24652 0.94185 0.0
H1028 H 0.40214 0.27129 0.9914 0.0
H1029 H 0.36295 0.26489 0.97685 0.0
H1030 H 0.46415 0.314 0.86107 0.0
H1031 H 0.42684 0.3034 0.84577 0.0
H1032 H 0.49807 0.29997 0.89013 0.0
H1033 H 0.50184 0.29693 0.92747 0.0
C1034 C 0.27369 0.93323 0.39972 0.0
C1035 C 0.27448 0.90758 0.41087 0.0
C1036 C 0.2674 0.92172 0.46046 0.0
C1037 C 0.27001 0.94752 0.44942 0.0
N1038 N 0.27913 0.97829 0.40897 0.0
N1039 N 0.27583 0.87735 0.45175 0.0
C1040 C 0.27404 0.9534 0.41913 0.0
C1041 C 0.27218 0.90178 0.44125 0.0
N1042 N 0.27166 0.93823 0.37055 0.0
N1043 N 0.25973 0.91631 0.48929 0.0
H1044 H 0.27887 0.86222 0.43837 0.0
H1045 H 0.27825 0.8723 0.47359 0.0
H1046 H 0.25659 0.93043 0.504 0.0
H1047 H 0.2539 0.89794 0.49831 0.0
H1048 H 0.26738 0.95613 0.36122 0.0
H1049 H 0.27142 0.92398 0.3557 0.0
H1050 H 0.28622 0.9838 0.38755 0.0
H1051 H 0.27858 0.99358 0.42242 0.0
C1052 C 0.67153 0.80866 0.93237 0.0
C1053 C 0.65728 0.804 0.90533 0.0
C1054 C 0.60109 0.79622 0.92949 0.0
C1055 C 0.6156 0.79979 0.95663 0.0
N1056 N 0.66498 0.80464 0.98486 0.0
N1057 N 0.61013 0.7887 0.87852 0.0
C1058 C 0.651 0.80451 0.95834 0.0
C1059 C 0.62249 0.79637 0.90402 0.0
N1060 N 0.70434 0.81804 0.93311 0.0
N1061 N 0.56675 0.79343 0.92799 0.0
H1062 H 0.62509 0.78862 0.85946 0.0
H1063 H 0.5859 0.7804 0.8767 0.0
H1064 H 0.55031 0.79272 0.94623 0.0
H1065 H 0.55435 0.79357 0.90859 0.0
H1066 H 0.71511 0.82459 0.95168 0.0
H1067 H 0.72028 0.82105 0.91462 0.0
H1068 H 0.6909 0.80526 0.98769 0.0
H1069 H 0.6506 0.80205 1.00429 0.0
loop_
_geom_bond_atom_site_label_1
_geom_bond_atom_site_label_2
_geom_bond_distance
_geom_bond_site_symmetry_2
_ccdc_geom_bond_type
C0 C1 1.264 . S
C0 C5 1.479 . S
C0 C10 1.465 . S
C1 C0 1.264 . S
C1 C3 1.339 . S
C1 H28 0.931 . S
C2 C3 1.395 . S
C2 C4 1.320 . S
C3 C1 1.339 . S
C3 C2 1.395 . S
C3 H29 0.929 . S
C4 C2 1.320 . S
C4 C5 1.405 . S
C4 H30 0.930 . S
C5 C0 1.479 . S
C5 C4 1.405 . S
C5 H31 0.931 . S
U6 O7 2.454 . S
U6 O8 2.458 . S
U6 C9 2.984 . S
U6 C10 2.847 . S
U6 C23 2.882 . S
U6 O24 2.441 . S
U6 O25 2.420 . S
U6 O26 2.455 . S
U6 O27 2.449 . S
O7 U6 2.454 . S
O7 C9 1.353 . S
O8 U6 2.458 . S
O8 C9 1.286 . S
C9 U6 2.984 . S
C9 O7 1.353 . S
C9 O8 1.286 . S
C9 C11 1.363 . S
C10 C0 1.465 . S
C10 U6 2.847 . S
C10 O24 1.249 . S
C10 O25 1.202 . S
C11 C9 1.363 . S
C11 C13 1.408 . S
C11 C16 1.342 . S
C12 C13 1.310 . S
C12 C15 1.461 . S
C12 H32 0.932 . S
C13 C11 1.408 . S
C13 C12 1.310 . S
C13 H33 0.930 . S
C14 C15 1.474 . S
C14 C16 1.285 . S
C14 H34 0.929 . S
C15 C12 1.461 . S
C15 C14 1.474 . S
C16 C11 1.342 . S
C16 C14 1.285 . S
C16 H35 0.930 . S
C17 C20 1.424 . S
C17 C22 1.245 . S
C17 C23 1.428 . S
C18 C21 1.260 . S
C18 C22 1.477 . S
C18 H36 0.932 . S
C19 C20 1.384 . S
C19 C21 1.479 . S
C19 H37 0.929 . S
C20 C17 1.424 . S
C20 C19 1.384 . S
C20 H38 0.928 . S
C21 C18 1.260 . S
C21 C19 1.479 . S
C22 C17 1.245 . S
C22 C18 1.477 . S
C22 H39 0.932 . S
C23 U6 2.882 . S
C23 C17 1.428 . S
C23 O26 1.301 . S
C23 O27 1.282 . S
O24 U6 2.441 . S
O24 C10 1.249 . S
O25 U6 2.420 . S
O25 C10 1.202 . S
O26 U6 2.455 . S
O26 C23 1.301 . S
O27 U6 2.449 . S
O27 C23 1.282 . S
H28 C1 0.931 . S
H29 C3 0.929 . S
H30 C4 0.930 . S
H31 C5 0.931 . S
H32 C12 0.932 . S
H33 C13 0.930 . S
H34 C14 0.929 . S
H35 C16 0.930 . S
H36 C18 0.932 . S
H37 C19 0.929 . S
H38 C20 0.928 . S
H39 C22 0.932 . S
C40 C41 1.264 . S
C40 C45 1.479 . S
C40 C50 1.465 . S
C41 C40 1.264 . S
C41 C43 1.339 . S
C41 H68 0.931 . S
C42 C43 1.395 . S
C42 C44 1.320 . S
C43 C41 1.339 . S
C43 C42 1.395 . S
C43 H69 0.929 . S
C44 C42 1.320 . S
C44 C45 1.405 . S
C44 H70 0.930 . S
C45 C40 1.479 . S
C45 C44 1.405 . S
C45 H71 0.931 . S
U46 O47 2.454 . S
U46 O48 2.458 . S
U46 C49 2.984 . S
U46 C50 2.847 . S
U46 C63 2.882 . S
U46 O64 2.441 . S
U46 O65 2.420 . S
U46 O66 2.455 . S
U46 O67 2.449 . S
O47 U46 2.454 . S
O47 C49 1.353 . S
O48 U46 2.458 . S
O48 C49 1.286 . S
C49 U46 2.984 . S
C49 O47 1.353 . S
C49 O48 1.286 . S
C49 C51 1.363 . S
C50 C40 1.465 . S
C50 U46 2.847 . S
C50 O64 1.249 . S
C50 O65 1.202 . S
C51 C49 1.363 . S
C51 C53 1.408 . S
C51 C56 1.342 . S
C52 C53 1.310 . S
C52 C55 1.461 . S
C52 H72 0.932 . S
C53 C51 1.408 . S
C53 C52 1.310 . S
C53 H73 0.930 . S
C54 C55 1.474 . S
C54 C56 1.285 . S
C54 H74 0.929 . S
C55 C52 1.461 . S
C55 C54 1.474 . S
C56 C51 1.342 . S
C56 C54 1.285 . S
C56 H75 0.930 . S
C57 C60 1.424 . S
C57 C62 1.245 . S
C57 C63 1.428 . S
C58 C61 1.260 . S
C58 C62 1.477 . S
C58 H76 0.932 . S
C59 C60 1.384 . S
C59 C61 1.479 . S
C59 H77 0.929 . S
C60 C57 1.424 . S
C60 C59 1.384 . S
C60 H78 0.928 . S
C61 C58 1.260 . S
C61 C59 1.479 . S
C62 C57 1.245 . S
C62 C58 1.477 . S
C62 H79 0.932 . S
C63 U46 2.882 . S
C63 C57 1.428 . S
C63 O66 1.301 . S
C63 O67 1.282 . S
O64 U46 2.441 . S
O64 C50 1.249 . S
O65 U46 2.420 . S
O65 C50 1.202 . S
O66 U46 2.455 . S
O66 C63 1.301 . S
O67 U46 2.449 . S
O67 C63 1.282 . S
H68 C41 0.931 . S
H69 C43 0.929 . S
H70 C44 0.930 . S
H71 C45 0.931 . S
H72 C52 0.932 . S
H73 C53 0.930 . S
H74 C54 0.929 . S
H75 C56 0.930 . S
H76 C58 0.932 . S
H77 C59 0.929 . S
H78 C60 0.928 . S
H79 C62 0.932 . S
C80 C81 1.264 . S
C80 C85 1.479 . S
C80 C90 1.465 . S
C81 C80 1.264 . S
C81 C83 1.339 . S
C81 H108 0.931 . S
C82 C83 1.395 . S
C82 C84 1.320 . S
C83 C81 1.339 . S
C83 C82 1.395 . S
C83 H109 0.929 . S
C84 C82 1.320 . S
C84 C85 1.405 . S
C84 H110 0.930 . S
C85 C80 1.479 . S
C85 C84 1.405 . S
C85 H111 0.931 . S
U86 O87 2.454 . S
U86 O88 2.458 . S
U86 C89 2.984 . S
U86 C90 2.847 . S
U86 C103 2.882 . S
U86 O104 2.441 . S
U86 O105 2.420 . S
U86 O106 2.455 . S
U86 O107 2.449 . S
O87 U86 2.454 . S
O87 C89 1.353 . S
O88 U86 2.458 . S
O88 C89 1.286 . S
C89 U86 2.984 . S
C89 O87 1.353 . S
C89 O88 1.286 . S
C89 C91 1.363 . S
C90 C80 1.465 . S
C90 U86 2.847 . S
C90 O104 1.249 . S
C90 O105 1.202 . S
C91 C89 1.363 . S
C91 C93 1.408 . S
C91 C96 1.342 . S
C92 C93 1.310 . S
C92 C95 1.461 . S
C92 H112 0.932 . S
C93 C91 1.408 . S
C93 C92 1.310 . S
C93 H113 0.930 . S
C94 C95 1.474 . S
C94 C96 1.285 . S
C94 H114 0.929 . S
C95 C92 1.461 . S
C95 C94 1.474 . S
C96 C91 1.342 . S
C96 C94 1.285 . S
C96 H115 0.930 . S
C97 C100 1.424 . S
C97 C102 1.245 . S
C97 C103 1.428 . S
C98 C101 1.260 . S
C98 C102 1.477 . S
C98 H116 0.932 . S
C99 C100 1.384 . S
C99 C101 1.479 . S
C99 H117 0.929 . S
C100 C97 1.424 . S
C100 C99 1.384 . S
C100 H118 0.928 . S
C101 C98 1.260 . S
C101 C99 1.479 . S
C102 C97 1.245 . S
C102 C98 1.477 . S
C102 H119 0.932 . S
C103 U86 2.882 . S
C103 C97 1.428 . S
C103 O106 1.301 . S
C103 O107 1.282 . S
O104 U86 2.441 . S
O104 C90 1.249 . S
O105 U86 2.420 . S
O105 C90 1.202 . S
O106 U86 2.455 . S
O106 C103 1.301 . S
O107 U86 2.449 . S
O107 C103 1.282 . S
H108 C81 0.931 . S
H109 C83 0.929 . S
H110 C84 0.930 . S
H111 C85 0.931 . S
H112 C92 0.932 . S
H113 C93 0.930 . S
H114 C94 0.929 . S
H115 C96 0.930 . S
H116 C98 0.932 . S
H117 C99 0.929 . S
H118 C100 0.928 . S
H119 C102 0.932 . S
C120 C121 1.264 . S
C120 C125 1.479 . S
C120 C130 1.465 . S
C121 C120 1.264 . S
C121 C123 1.339 . S
C121 H148 0.931 . S
C122 C123 1.395 . S
C122 C124 1.320 . S
C123 C121 1.339 . S
C123 C122 1.395 . S
C123 H149 0.929 . S
C124 C122 1.320 . S
C124 C125 1.405 . S
C124 H150 0.930 . S
C125 C120 1.479 . S
C125 C124 1.405 . S
C125 H151 0.931 . S
U126 O127 2.454 . S
U126 O128 2.458 . S
U126 C129 2.984 . S
U126 C130 2.847 . S
U126 C143 2.882 . S
U126 O144 2.441 . S
U126 O145 2.420 . S
U126 O146 2.455 . S
U126 O147 2.449 . S
O127 U126 2.454 . S
O127 C129 1.353 . S
O128 U126 2.458 . S
O128 C129 1.286 . S
C129 U126 2.984 . S
C129 O127 1.353 . S
C129 O128 1.286 . S
C129 C131 1.363 . S
C130 C120 1.465 . S
C130 U126 2.847 . S
C130 O144 1.249 . S
C130 O145 1.202 . S
C131 C129 1.363 . S
C131 C133 1.408 . S
C131 C136 1.342 . S
C132 C133 1.310 . S
C132 C135 1.461 . S
C132 H152 0.932 . S
C133 C131 1.408 . S
C133 C132 1.310 . S
C133 H153 0.930 . S
C134 C135 1.474 . S
C134 C136 1.285 . S
C134 H154 0.929 . S
C135 C132 1.461 . S
C135 C134 1.474 . S
C136 C131 1.342 . S
C136 C134 1.285 . S
C136 H155 0.930 . S
C137 C140 1.424 . S
C137 C142 1.245 . S
C137 C143 1.428 . S
C138 C141 1.260 . S
C138 C142 1.477 . S
C138 H156 0.932 . S
C139 C140 1.384 . S
C139 C141 1.479 . S
C139 H157 0.929 . S
C140 C137 1.424 . S
C140 C139 1.384 . S
C140 H158 0.928 . S
C141 C138 1.260 . S
C141 C139 1.479 . S
C142 C137 1.245 . S
C142 C138 1.477 . S
C142 H159 0.932 . S
C143 U126 2.882 . S
C143 C137 1.428 . S
C143 O146 1.301 . S
C143 O147 1.282 . S
O144 U126 2.441 . S
O144 C130 1.249 . S
O145 U126 2.420 . S
O145 C130 1.202 . S
O146 U126 2.455 . S
O146 C143 1.301 . S
O147 U126 2.449 . S
O147 C143 1.282 . S
H148 C121 0.931 . S
H149 C123 0.929 . S
H150 C124 0.930 . S
H151 C125 0.931 . S
H152 C132 0.932 . S
H153 C133 0.930 . S
H154 C134 0.929 . S
H155 C136 0.930 . S
H156 C138 0.932 . S
H157 C139 0.929 . S
H158 C140 0.928 . S
H159 C142 0.932 . S
C160 C161 1.264 . S
C160 C165 1.479 . S
C160 C170 1.465 . S
C161 C160 1.264 . S
C161 C163 1.339 . S
C161 H188 0.931 . S
C162 C163 1.395 . S
C162 C164 1.320 . S
C163 C161 1.339 . S
C163 C162 1.395 . S
C163 H189 0.929 . S
C164 C162 1.320 . S
C164 C165 1.405 . S
C164 H190 0.930 . S
C165 C160 1.479 . S
C165 C164 1.405 . S
C165 H191 0.931 . S
U166 O167 2.454 . S
U166 O168 2.458 . S
U166 C169 2.984 . S
U166 C170 2.847 . S
U166 C183 2.882 . S
U166 O184 2.441 . S
U166 O185 2.420 . S
U166 O186 2.455 . S
U166 O187 2.449 . S
O167 U166 2.454 . S
O167 C169 1.353 . S
O168 U166 2.458 . S
O168 C169 1.286 . S
C169 U166 2.984 . S
C169 O167 1.353 . S
C169 O168 1.286 . S
C169 C171 1.363 . S
C170 C160 1.465 . S
C170 U166 2.847 . S
C170 O184 1.249 . S
C170 O185 1.202 . S
C171 C169 1.363 . S
C171 C173 1.408 . S
C171 C176 1.342 . S
C172 C173 1.310 . S
C172 C175 1.461 . S
C172 H192 0.932 . S
C173 C171 1.408 . S
C173 C172 1.310 . S
C173 H193 0.930 . S
C174 C175 1.474 . S
C174 C176 1.285 . S
C174 H194 0.929 . S
C175 C172 1.461 . S
C175 C174 1.474 . S
C176 C171 1.342 . S
C176 C174 1.285 . S
C176 H195 0.930 . S
C177 C180 1.424 . S
C177 C182 1.245 . S
C177 C183 1.428 . S
C178 C181 1.260 . S
C178 C182 1.477 . S
C178 H196 0.932 . S
C179 C180 1.384 . S
C179 C181 1.479 . S
C179 H197 0.929 . S
C180 C177 1.424 . S
C180 C179 1.384 . S
C180 H198 0.928 . S
C181 C178 1.260 . S
C181 C179 1.479 . S
C182 C177 1.245 . S
C182 C178 1.477 . S
C182 H199 0.932 . S
C183 U166 2.882 . S
C183 C177 1.428 . S
C183 O186 1.301 . S
C183 O187 1.282 . S
O184 U166 2.441 . S
O184 C170 1.249 . S
O185 U166 2.420 . S
O185 C170 1.202 . S
O186 U166 2.455 . S
O186 C183 1.301 . S
O187 U166 2.449 . S
O187 C183 1.282 . S
H188 C161 0.931 . S
H189 C163 0.929 . S
H190 C164 0.930 . S
H191 C165 0.931 . S
H192 C172 0.932 . S
H193 C173 0.930 . S
H194 C174 0.929 . S
H195 C176 0.930 . S
H196 C178 0.932 . S
H197 C179 0.929 . S
H198 C180 0.928 . S
H199 C182 0.932 . S
C200 C201 1.264 . S
C200 C205 1.479 . S
C200 C210 1.465 . S
C201 C200 1.264 . S
C201 C203 1.339 . S
C201 H228 0.931 . S
C202 C203 1.395 . S
C202 C204 1.320 . S
C203 C201 1.339 . S
C203 C202 1.395 . S
C203 H229 0.929 . S
C204 C202 1.320 . S
C204 C205 1.405 . S
C204 H230 0.930 . S
C205 C200 1.479 . S
C205 C204 1.405 . S
C205 H231 0.931 . S
U206 O207 2.454 . S
U206 O208 2.458 . S
U206 C209 2.984 . S
U206 C210 2.847 . S
U206 C223 2.882 . S
U206 O224 2.441 . S
U206 O225 2.420 . S
U206 O226 2.455 . S
U206 O227 2.449 . S
O207 U206 2.454 . S
O207 C209 1.353 . S
O208 U206 2.458 . S
O208 C209 1.286 . S
C209 U206 2.984 . S
C209 O207 1.353 . S
C209 O208 1.286 . S
C209 C211 1.363 . S
C210 C200 1.465 . S
C210 U206 2.847 . S
C210 O224 1.249 . S
C210 O225 1.202 . S
C211 C209 1.363 . S
C211 C213 1.408 . S
C211 C216 1.342 . S
C212 C213 1.310 . S
C212 C215 1.461 . S
C212 H232 0.932 . S
C213 C211 1.408 . S
C213 C212 1.310 . S
C213 H233 0.930 . S
C214 C215 1.474 . S
C214 C216 1.285 . S
C214 H234 0.929 . S
C215 C212 1.461 . S
C215 C214 1.474 . S
C216 C211 1.342 . S
C216 C214 1.285 . S
C216 H235 0.930 . S
C217 C220 1.424 . S
C217 C222 1.245 . S
C217 C223 1.428 . S
C218 C221 1.260 . S
C218 C222 1.477 . S
C218 H236 0.932 . S
C219 C220 1.384 . S
C219 C221 1.479 . S
C219 H237 0.929 . S
C220 C217 1.424 . S
C220 C219 1.384 . S
C220 H238 0.928 . S
C221 C218 1.260 . S
C221 C219 1.479 . S
C222 C217 1.245 . S
C222 C218 1.477 . S
C222 H239 0.932 . S
C223 U206 2.882 . S
C223 C217 1.428 . S
C223 O226 1.301 . S
C223 O227 1.282 . S
O224 U206 2.441 . S
O224 C210 1.249 . S
O225 U206 2.420 . S
O225 C210 1.202 . S
O226 U206 2.455 . S
O226 C223 1.301 . S
O227 U206 2.449 . S
O227 C223 1.282 . S
H228 C201 0.931 . S
H229 C203 0.929 . S
H230 C204 0.930 . S
H231 C205 0.931 . S
H232 C212 0.932 . S
H233 C213 0.930 . S
H234 C214 0.929 . S
H235 C216 0.930 . S
H236 C218 0.932 . S
H237 C219 0.929 . S
H238 C220 0.928 . S
H239 C222 0.932 . S
C240 C241 1.264 . S
C240 C245 1.479 . S
C240 C250 1.465 . S
C241 C240 1.264 . S
C241 C243 1.339 . S
C241 H268 0.931 . S
C242 C243 1.395 . S
C242 C244 1.320 . S
C243 C241 1.339 . S
C243 C242 1.395 . S
C243 H269 0.929 . S
C244 C242 1.320 . S
C244 C245 1.405 . S
C244 H270 0.930 . S
C245 C240 1.479 . S
C245 C244 1.405 . S
C245 H271 0.931 . S
U246 O247 2.454 . S
U246 O248 2.458 . S
U246 C249 2.984 . S
U246 C250 2.847 . S
U246 C263 2.882 . S
U246 O264 2.441 . S
U246 O265 2.420 . S
U246 O266 2.455 . S
U246 O267 2.449 . S
O247 U246 2.454 . S
O247 C249 1.353 . S
O248 U246 2.458 . S
O248 C249 1.286 . S
C249 U246 2.984 . S
C249 O247 1.353 . S
C249 O248 1.286 . S
C249 C251 1.363 . S
C250 C240 1.465 . S
C250 U246 2.847 . S
C250 O264 1.249 . S
C250 O265 1.202 . S
C251 C249 1.363 . S
C251 C253 1.408 . S
C251 C256 1.342 . S
C252 C253 1.310 . S
C252 C255 1.461 . S
C252 H272 0.932 . S
C253 C251 1.408 . S
C253 C252 1.310 . S
C253 H273 0.930 . S
C254 C255 1.474 . S
C254 C256 1.285 . S
C254 H274 0.929 . S
C255 C252 1.461 . S
C255 C254 1.474 . S
C256 C251 1.342 . S
C256 C254 1.285 . S
C256 H275 0.930 . S
C257 C260 1.424 . S
C257 C262 1.245 . S
C257 C263 1.428 . S
C258 C261 1.260 . S
C258 C262 1.477 . S
C258 H276 0.932 . S
C259 C260 1.384 . S
C259 C261 1.479 . S
C259 H277 0.929 . S
C260 C257 1.424 . S
C260 C259 1.384 . S
C260 H278 0.928 . S
C261 C258 1.260 . S
C261 C259 1.479 . S
C262 C257 1.245 . S
C262 C258 1.477 . S
C262 H279 0.932 . S
C263 U246 2.882 . S
C263 C257 1.428 . S
C263 O266 1.301 . S
C263 O267 1.282 . S
O264 U246 2.441 . S
O264 C250 1.249 . S
O265 U246 2.420 . S
O265 C250 1.202 . S
O266 U246 2.455 . S
O266 C263 1.301 . S
O267 U246 2.449 . S
O267 C263 1.282 . S
H268 C241 0.931 . S
H269 C243 0.929 . S
H270 C244 0.930 . S
H271 C245 0.931 . S
H272 C252 0.932 . S
H273 C253 0.930 . S
H274 C254 0.929 . S
H275 C256 0.930 . S
H276 C258 0.932 . S
H277 C259 0.929 . S
H278 C260 0.928 . S
H279 C262 0.932 . S
C280 C281 1.264 . S
C280 C285 1.479 . S
C280 C290 1.465 . S
C281 C280 1.264 . S
C281 C283 1.339 . S
C281 H308 0.931 . S
C282 C283 1.395 . S
C282 C284 1.320 . S
C283 C281 1.339 . S
C283 C282 1.395 . S
C283 H309 0.929 . S
C284 C282 1.320 . S
C284 C285 1.405 . S
C284 H310 0.930 . S
C285 C280 1.479 . S
C285 C284 1.405 . S
C285 H311 0.931 . S
U286 O287 2.454 . S
U286 O288 2.458 . S
U286 C289 2.984 . S
U286 C290 2.847 . S
U286 C303 2.882 . S
U286 O304 2.441 . S
U286 O305 2.420 . S
U286 O306 2.455 . S
U286 O307 2.449 . S
O287 U286 2.454 . S
O287 C289 1.353 . S
O288 U286 2.458 . S
O288 C289 1.286 . S
C289 U286 2.984 . S
C289 O287 1.353 . S
C289 O288 1.286 . S
C289 C291 1.363 . S
C290 C280 1.465 . S
C290 U286 2.847 . S
C290 O304 1.249 . S
C290 O305 1.202 . S
C291 C289 1.363 . S
C291 C293 1.408 . S
C291 C296 1.342 . S
C292 C293 1.310 . S
C292 C295 1.461 . S
C292 H312 0.932 . S
C293 C291 1.408 . S
C293 C292 1.310 . S
C293 H313 0.930 . S
C294 C295 1.474 . S
C294 C296 1.285 . S
C294 H314 0.929 . S
C295 C292 1.461 . S
C295 C294 1.474 . S
C296 C291 1.342 . S
C296 C294 1.285 . S
C296 H315 0.930 . S
C297 C300 1.424 . S
C297 C302 1.245 . S
C297 C303 1.428 . S
C298 C301 1.260 . S
C298 C302 1.477 . S
C298 H316 0.932 . S
C299 C300 1.384 . S
C299 C301 1.479 . S
C299 H317 0.929 . S
C300 C297 1.424 . S
C300 C299 1.384 . S
C300 H318 0.928 . S
C301 C298 1.260 . S
C301 C299 1.479 . S
C302 C297 1.245 . S
C302 C298 1.477 . S
C302 H319 0.932 . S
C303 U286 2.882 . S
C303 C297 1.428 . S
C303 O306 1.301 . S
C303 O307 1.282 . S
O304 U286 2.441 . S
O304 C290 1.249 . S
O305 U286 2.420 . S
O305 C290 1.202 . S
O306 U286 2.455 . S
O306 C303 1.301 . S
O307 U286 2.449 . S
O307 C303 1.282 . S
H308 C281 0.931 . S
H309 C283 0.929 . S
H310 C284 0.930 . S
H311 C285 0.931 . S
H312 C292 0.932 . S
H313 C293 0.930 . S
H314 C294 0.929 . S
H315 C296 0.930 . S
H316 C298 0.932 . S
H317 C299 0.929 . S
H318 C300 0.928 . S
H319 C302 0.932 . S
C320 C321 1.443 . S
C320 N324 1.376 . S
C320 C358 1.389 . S
C321 C320 1.443 . S
C321 C322 1.340 . S
C321 H361 0.951 . S
C322 C321 1.340 . S
C322 C323 1.439 . S
C322 H362 0.950 . S
C323 C322 1.439 . S
C323 N324 1.374 . S
C323 C357 1.395 . S
N324 C320 1.376 . S
N324 C323 1.374 . S
N324 Co325 2.008 . S
Co325 N324 2.008 . S
Co325 N326 1.996 1_455 S
Co325 N331 2.008 . S
Co325 N336 1.995 . S
Co325 N341 2.282 . S
Co325 N347 2.282 1_455 S
N326 Co325 1.996 1_655 S
N326 C327 1.375 1_655 S
N326 C330 1.382 . S
C327 N326 1.375 1_455 S
C327 C328 1.437 1_455 S
C327 C357 1.400 . S
C328 C327 1.437 1_655 S
C328 C329 1.339 . S
C328 H363 0.949 . S
C329 C328 1.339 . S
C329 C330 1.439 . S
C329 H364 0.950 . S
C330 N326 1.382 . S
C330 C329 1.439 . S
C330 C359 1.392 . S
N331 Co325 2.008 . S
N331 C332 1.376 1_455 S
N331 C335 1.374 . S
C332 N331 1.376 1_655 S
C332 C333 1.443 . S
C332 C359 1.389 . S
C333 C332 1.443 . S
C333 C334 1.340 . S
C333 H365 0.951 . S
C334 C333 1.340 . S
C334 C335 1.439 1_655 S
C334 H366 0.950 . S
C335 N331 1.374 . S
C335 C334 1.439 1_455 S
C335 C360 1.395 . S
N336 Co325 1.995 . S
N336 C337 1.376 . S
N336 C340 1.383 . S
C337 N336 1.376 . S
C337 C338 1.446 . S
C337 C360 1.391 . S
C338 C337 1.446 . S
C338 C339 1.339 . S
C338 H367 0.949 . S
C339 C338 1.339 . S
C339 C340 1.439 . S
C339 H368 0.950 . S
C340 N336 1.383 . S
C340 C339 1.439 . S
C340 C358 1.392 . S
N341 Co325 2.282 . S
N341 C344 1.332 . S
N341 C346 1.332 . S
C342 C343 1.386 . S
C342 C345 1.388 . S
C343 C342 1.386 . S
C343 C344 1.382 . S
C343 H369 0.950 . S
C344 N341 1.332 . S
C344 C343 1.382 . S
C344 H355 0.952 . S
C345 C342 1.388 . S
C345 C346 1.382 . S
C345 H370 0.950 . S
C346 N341 1.332 . S
C346 C345 1.382 . S
C346 H356 0.948 . S
N347 Co325 2.282 1_655 S
N347 C351 1.332 . S
N347 C352 1.332 . S
C348 C349 1.388 . S
C348 C352 1.382 . S
C348 H371 0.950 . S
C349 C348 1.388 . S
C349 C350 1.386 . S
C350 C349 1.386 . S
C350 C351 1.382 . S
C350 H372 0.950 . S
C351 N347 1.332 . S
C351 C350 1.382 . S
C351 H353 0.952 . S
C352 N347 1.332 . S
C352 C348 1.382 . S
C352 H354 0.948 . S
H353 C351 0.952 . S
H354 C352 0.948 . S
H355 C344 0.952 . S
H356 C346 0.948 . S
C357 C323 1.395 . S
C357 C327 1.400 . S
C358 C320 1.389 . S
C358 C340 1.392 . S
C359 C330 1.392 . S
C359 C332 1.389 . S
C360 C335 1.395 . S
C360 C337 1.391 . S
H361 C321 0.951 . S
H362 C322 0.950 . S
H363 C328 0.949 . S
H364 C329 0.950 . S
H365 C333 0.951 . S
H366 C334 0.950 . S
H367 C338 0.949 . S
H368 C339 0.950 . S
H369 C343 0.950 . S
H370 C345 0.950 . S
H371 C348 0.950 . S
H372 C350 0.950 . S
C373 C374 1.443 . S
C373 N377 1.376 . S
C373 C411 1.389 . S
C374 C373 1.443 . S
C374 C375 1.340 . S
C374 H414 0.951 . S
C375 C374 1.340 . S
C375 C376 1.439 . S
C375 H415 0.950 . S
C376 C375 1.439 . S
C376 N377 1.374 . S
C376 C410 1.395 . S
N377 C373 1.376 . S
N377 C376 1.374 . S
N377 Co378 2.008 . S
Co378 N377 2.008 . S
Co378 N379 1.995 1_455 S
Co378 N384 2.008 1_455 S
Co378 N389 1.995 . S
Co378 N394 2.282 . S
Co378 N400 2.282 1_455 S
N379 Co378 1.995 1_655 S
N379 C380 1.376 . S
N379 C383 1.383 . S
C380 N379 1.376 . S
C380 C381 1.446 . S
C380 C410 1.391 1_655 S
C381 C380 1.446 . S
C381 C382 1.339 . S
C381 H416 0.949 . S
C382 C381 1.339 . S
C382 C383 1.439 . S
C382 H417 0.950 . S
C383 N379 1.383 . S
C383 C382 1.439 . S
C383 C412 1.392 . S
N384 Co378 2.008 1_655 S
N384 C385 1.376 . S
N384 C388 1.372 1_655 S
C385 N384 1.376 . S
C385 C386 1.443 . S
C385 C412 1.389 . S
C386 C385 1.443 . S
C386 C387 1.340 . S
C386 H418 0.951 . S
C387 C386 1.340 . S
C387 C388 1.433 1_655 S
C387 H419 0.950 . S
C388 N384 1.372 1_455 S
C388 C387 1.433 1_455 S
C388 C413 1.403 . S
N389 Co378 1.995 . S
N389 C390 1.376 . S
N389 C393 1.383 . S
C390 N389 1.376 . S
C390 C391 1.446 . S
C390 C413 1.391 . S
C391 C390 1.446 . S
C391 C392 1.339 . S
C391 H420 0.949 . S
C392 C391 1.339 . S
C392 C393 1.439 . S
C392 H421 0.950 . S
C393 N389 1.383 . S
C393 C392 1.439 . S
C393 C411 1.392 . S
N394 Co378 2.282 . S
N394 C397 1.332 . S
N394 C399 1.332 . S
C395 C396 1.386 . S
C395 C398 1.388 . S
C396 C395 1.386 . S
C396 C397 1.382 . S
C396 H422 0.950 . S
C397 N394 1.332 . S
C397 C396 1.382 . S
C397 H408 0.952 . S
C398 C395 1.388 . S
C398 C399 1.382 . S
C398 H423 0.950 . S
C399 N394 1.332 . S
C399 C398 1.382 . S
C399 H409 0.948 . S
N400 Co378 2.282 1_655 S
N400 C404 1.332 . S
N400 C405 1.332 . S
C401 C402 1.388 . S
C401 C405 1.382 . S
C401 H424 0.950 . S
C402 C401 1.388 . S
C402 C403 1.386 . S
C403 C402 1.386 . S
C403 C404 1.382 . S
C403 H425 0.950 . S
C404 N400 1.332 . S
C404 C403 1.382 . S
C404 H406 0.952 . S
C405 N400 1.332 . S
C405 C401 1.382 . S
C405 H407 0.948 . S
H406 C404 0.952 . S
H407 C405 0.948 . S
H408 C397 0.952 . S
H409 C399 0.948 . S
C410 C376 1.395 . S
C410 C380 1.391 1_455 S
C411 C373 1.389 . S
C411 C393 1.392 . S
C412 C383 1.392 . S
C412 C385 1.389 . S
C413 C388 1.403 . S
C413 C390 1.391 . S
H414 C374 0.951 . S
H415 C375 0.950 . S
H416 C381 0.949 . S
H417 C382 0.950 . S
H418 C386 0.951 . S
H419 C387 0.950 . S
H420 C391 0.949 . S
H421 C392 0.950 . S
H422 C396 0.950 . S
H423 C398 0.950 . S
H424 C401 0.950 . S
H425 C403 0.950 . S
C426 C427 1.443 . S
C426 N430 1.376 . S
C426 C464 1.389 . S
C427 C426 1.443 . S
C427 C428 1.340 . S
C427 H467 0.951 . S
C428 C427 1.340 . S
C428 C429 1.439 . S
C428 H468 0.950 . S
C429 C428 1.439 . S
C429 N430 1.374 . S
C429 C463 1.395 1_565 S
N430 C426 1.376 . S
N430 C429 1.374 . S
N430 Co431 2.008 1_565 S
Co431 N430 2.008 1_545 S
Co431 N432 1.995 . S
Co431 N437 2.008 . S
Co431 N442 1.995 1_545 S
Co431 N447 2.282 . S
Co431 N453 2.282 1_545 S
N432 Co431 1.995 . S
N432 C433 1.376 . S
N432 C436 1.383 . S
C433 N432 1.376 . S
C433 C434 1.446 . S
C433 C463 1.391 . S
C434 C433 1.446 . S
C434 C435 1.339 . S
C434 H469 0.949 . S
C435 C434 1.339 . S
C435 C436 1.439 . S
C435 H470 0.950 . S
C436 N432 1.383 . S
C436 C435 1.439 . S
C436 C465 1.392 . S
N437 Co431 2.008 . S
N437 C438 1.376 . S
N437 C441 1.374 . S
C438 N437 1.376 . S
C438 C439 1.443 . S
C438 C465 1.389 . S
C439 C438 1.443 . S
C439 C440 1.340 . S
C439 H471 0.951 . S
C440 C439 1.340 . S
C440 C441 1.439 . S
C440 H472 0.950 . S
C441 N437 1.374 . S
C441 C440 1.439 . S
C441 C466 1.395 . S
N442 Co431 1.995 1_565 S
N442 C443 1.376 . S
N442 C446 1.383 . S
C443 N442 1.376 . S
C443 C444 1.446 . S
C443 C466 1.391 1_565 S
C444 C443 1.446 . S
C444 C445 1.339 . S
C444 H473 0.949 . S
C445 C444 1.339 . S
C445 C446 1.439 . S
C445 H474 0.950 . S
C446 N442 1.383 . S
C446 C445 1.439 . S
C446 C464 1.392 . S
N447 Co431 2.282 . S
N447 C450 1.332 . S
N447 C452 1.332 . S
C448 C449 1.386 . S
C448 C451 1.388 . S
C449 C448 1.386 . S
C449 C450 1.382 . S
C449 H475 0.950 . S
C450 N447 1.332 . S
C450 C449 1.382 . S
C450 H461 0.952 . S
C451 C448 1.388 . S
C451 C452 1.382 . S
C451 H476 0.950 . S
C452 N447 1.332 . S
C452 C451 1.382 . S
C452 H462 0.948 . S
N453 Co431 2.282 1_565 S
N453 C457 1.332 . S
N453 C458 1.332 . S
C454 C455 1.388 . S
C454 C458 1.382 . S
C454 H477 0.950 . S
C455 C454 1.388 . S
C455 C456 1.386 . S
C456 C455 1.386 . S
C456 C457 1.382 . S
C456 H478 0.950 . S
C457 N453 1.332 . S
C457 C456 1.382 . S
C457 H459 0.952 . S
C458 N453 1.332 . S
C458 C454 1.382 . S
C458 H460 0.948 . S
H459 C457 0.952 . S
H460 C458 0.948 . S
H461 C450 0.952 . S
H462 C452 0.948 . S
C463 C429 1.395 1_545 S
C463 C433 1.391 . S
C464 C426 1.389 . S
C464 C446 1.392 . S
C465 C436 1.392 . S
C465 C438 1.389 . S
C466 C441 1.395 . S
C466 C443 1.391 1_545 S
H467 C427 0.951 . S
H468 C428 0.950 . S
H469 C434 0.949 . S
H470 C435 0.950 . S
H471 C439 0.951 . S
H472 C440 0.950 . S
H473 C444 0.949 . S
H474 C445 0.950 . S
H475 C449 0.950 . S
H476 C451 0.950 . S
H477 C454 0.950 . S
H478 C456 0.950 . S
C479 C480 1.443 . S
C479 N483 1.376 . S
C479 C517 1.389 . S
C480 C479 1.443 . S
C480 C481 1.340 . S
C480 H520 0.951 . S
C481 C480 1.340 . S
C481 C482 1.439 . S
C481 H521 0.950 . S
C482 C481 1.439 . S
C482 N483 1.374 . S
C482 C516 1.395 . S
N483 C479 1.376 . S
N483 C482 1.374 . S
N483 Co484 2.008 . S
Co484 N483 2.008 . S
Co484 N485 1.995 . S
Co484 N490 2.008 . S
Co484 N495 1.995 . S
Co484 N500 2.282 1_554 S
Co484 N506 2.282 . S
N485 Co484 1.995 . S
N485 C486 1.376 . S
N485 C489 1.383 1_554 S
C486 N485 1.376 . S
C486 C487 1.446 1_554 S
C486 C516 1.391 . S
C487 C486 1.446 1_556 S
C487 C488 1.339 . S
C487 H522 0.949 . S
C488 C487 1.339 . S
C488 C489 1.439 . S
C488 H523 0.950 . S
C489 N485 1.383 1_556 S
C489 C488 1.439 . S
C489 C518 1.392 . S
N490 Co484 2.008 . S
N490 C491 1.376 1_554 S
N490 C494 1.374 . S
C491 N490 1.376 1_556 S
C491 C492 1.443 . S
C491 C518 1.389 . S
C492 C491 1.443 . S
C492 C493 1.340 . S
C492 H524 0.951 . S
C493 C492 1.340 . S
C493 C494 1.439 1_556 S
C493 H525 0.950 . S
C494 N490 1.374 . S
C494 C493 1.439 1_554 S
C494 C519 1.395 . S
N495 Co484 1.995 . S
N495 C496 1.376 . S
N495 C499 1.383 . S
C496 N495 1.376 . S
C496 C497 1.446 . S
C496 C519 1.391 . S
C497 C496 1.446 . S
C497 C498 1.339 . S
C497 H526 0.949 . S
C498 C497 1.339 . S
C498 C499 1.439 . S
C498 H527 0.950 . S
C499 N495 1.383 . S
C499 C498 1.439 . S
C499 C517 1.392 . S
N500 Co484 2.282 1_556 S
N500 C503 1.332 . S
N500 C505 1.332 . S
C501 C502 1.386 . S
C501 C504 1.388 . S
C502 C501 1.386 . S
C502 C503 1.382 . S
C502 H528 0.950 . S
C503 N500 1.332 . S
C503 C502 1.382 . S
C503 H514 0.952 . S
C504 C501 1.388 . S
C504 C505 1.382 . S
C504 H529 0.950 . S
C505 N500 1.332 . S
C505 C504 1.382 . S
C505 H515 0.948 . S
N506 Co484 2.282 . S
N506 C510 1.332 . S
N506 C511 1.332 . S
C507 C508 1.388 . S
C507 C511 1.382 . S
C507 H530 0.950 . S
C508 C507 1.388 . S
C508 C509 1.386 . S
C509 C508 1.386 . S
C509 C510 1.382 . S
C509 H531 0.950 . S
C510 N506 1.332 . S
C510 C509 1.382 . S
C510 H512 0.952 . S
C511 N506 1.332 . S
C511 C507 1.382 . S
C511 H513 0.948 . S
H512 C510 0.952 . S
H513 C511 0.948 . S
H514 C503 0.952 . S
H515 C505 0.948 . S
C516 C482 1.395 . S
C516 C486 1.391 . S
C517 C479 1.389 . S
C517 C499 1.392 . S
C518 C489 1.392 . S
C518 C491 1.389 . S
C519 C494 1.395 . S
C519 C496 1.391 . S
H520 C480 0.951 . S
H521 C481 0.950 . S
H522 C487 0.949 . S
H523 C488 0.950 . S
H524 C492 0.951 . S
H525 C493 0.950 . S
H526 C497 0.949 . S
H527 C498 0.950 . S
H528 C502 0.950 . S
H529 C504 0.950 . S
H530 C507 0.950 . S
H531 C509 0.950 . S
C532 C533 1.443 . S
C532 N536 1.376 1_565 S
C532 C570 1.389 . S
C533 C532 1.443 . S
C533 C534 1.340 . S
C533 H573 0.951 . S
C534 C533 1.340 . S
C534 C535 1.439 1_565 S
C534 H574 0.950 . S
C535 C534 1.439 1_545 S
C535 N536 1.374 . S
C535 C569 1.395 . S
N536 C532 1.376 1_545 S
N536 C535 1.374 . S
N536 Co537 2.008 . S
Co537 N536 2.008 . S
Co537 N538 1.995 . S
Co537 N543 2.008 . S
Co537 N548 1.995 . S
Co537 N553 2.282 . S
Co537 N559 2.282 1_545 S
N538 Co537 1.995 . S
N538 C539 1.376 . S
N538 C542 1.383 . S
C539 N538 1.376 . S
C539 C540 1.446 . S
C539 C569 1.391 . S
C540 C539 1.446 . S
C540 C541 1.339 . S
C540 H575 0.949 . S
C541 C540 1.339 . S
C541 C542 1.439 . S
C541 H576 0.950 . S
C542 N538 1.383 . S
C542 C541 1.439 . S
C542 C571 1.392 . S
N543 Co537 2.008 . S
N543 C544 1.376 . S
N543 C547 1.374 . S
C544 N543 1.376 . S
C544 C545 1.443 . S
C544 C571 1.389 . S
C545 C544 1.443 . S
C545 C546 1.340 . S
C545 H577 0.951 . S
C546 C545 1.340 . S
C546 C547 1.439 . S
C546 H578 0.950 . S
C547 N543 1.374 . S
C547 C546 1.439 . S
C547 C572 1.395 . S
N548 Co537 1.995 . S
N548 C549 1.376 . S
N548 C552 1.383 1_545 S
C549 N548 1.376 . S
C549 C550 1.446 1_545 S
C549 C572 1.391 . S
C550 C549 1.446 1_565 S
C550 C551 1.339 . S
C550 H579 0.949 . S
C551 C550 1.339 . S
C551 C552 1.439 . S
C551 H580 0.950 . S
C552 N548 1.383 1_565 S
C552 C551 1.439 . S
C552 C570 1.392 . S
N553 Co537 2.282 . S
N553 C556 1.332 . S
N553 C558 1.332 . S
C554 C555 1.386 . S
C554 C557 1.388 . S
C555 C554 1.386 . S
C555 C556 1.382 . S
C555 H581 0.950 . S
C556 N553 1.332 . S
C556 C555 1.382 . S
C556 H567 0.952 . S
C557 C554 1.388 . S
C557 C558 1.382 . S
C557 H582 0.950 . S
C558 N553 1.332 . S
C558 C557 1.382 . S
C558 H568 0.948 . S
N559 Co537 2.282 1_565 S
N559 C563 1.332 . S
N559 C564 1.332 . S
C560 C561 1.388 . S
C560 C564 1.382 . S
C560 H583 0.950 . S
C561 C560 1.388 . S
C561 C562 1.386 . S
C562 C561 1.386 . S
C562 C563 1.382 . S
C562 H584 0.950 . S
C563 N559 1.332 . S
C563 C562 1.382 . S
C563 H565 0.952 . S
C564 N559 1.332 . S
C564 C560 1.382 . S
C564 H566 0.948 . S
H565 C563 0.952 . S
H566 C564 0.948 . S
H567 C556 0.952 . S
H568 C558 0.948 . S
C569 C535 1.395 . S
C569 C539 1.391 . S
C570 C532 1.389 . S
C570 C552 1.392 . S
C571 C542 1.392 . S
C571 C544 1.389 . S
C572 C547 1.395 . S
C572 C549 1.391 . S
H573 C533 0.951 . S
H574 C534 0.950 . S
H575 C540 0.949 . S
H576 C541 0.950 . S
H577 C545 0.951 . S
H578 C546 0.950 . S
H579 C550 0.949 . S
H580 C551 0.950 . S
H581 C555 0.950 . S
H582 C557 0.950 . S
H583 C560 0.950 . S
H584 C562 0.950 . S
C585 C586 1.443 . S
C585 N589 1.376 . S
C585 C623 1.389 . S
C586 C585 1.443 . S
C586 C587 1.340 . S
C586 H626 0.951 . S
C587 C586 1.340 . S
C587 C588 1.439 . S
C587 H627 0.950 . S
C588 C587 1.439 . S
C588 N589 1.374 . S
C588 C622 1.395 . S
N589 C585 1.376 . S
N589 C588 1.374 . S
N589 Co590 2.008 . S
Co590 N589 2.008 . S
Co590 N591 1.995 . S
Co590 N596 2.008 . S
Co590 N601 1.995 . S
Co590 N606 2.282 . S
Co590 N612 2.282 . S
N591 Co590 1.995 . S
N591 C592 1.376 . S
N591 C595 1.383 1_554 S
C592 N591 1.376 . S
C592 C593 1.446 1_554 S
C592 C622 1.391 . S
C593 C592 1.446 1_556 S
C593 C594 1.339 . S
C593 H628 0.949 . S
C594 C593 1.339 . S
C594 C595 1.439 . S
C594 H629 0.950 . S
C595 N591 1.383 1_556 S
C595 C594 1.439 . S
C595 C624 1.392 . S
N596 Co590 2.008 . S
N596 C597 1.376 1_554 S
N596 C600 1.374 . S
C597 N596 1.376 1_556 S
C597 C598 1.443 . S
C597 C624 1.389 . S
C598 C597 1.443 . S
C598 C599 1.340 . S
C598 H630 0.951 . S
C599 C598 1.340 . S
C599 C600 1.439 1_556 S
C599 H631 0.950 . S
C600 N596 1.374 . S
C600 C599 1.439 1_554 S
C600 C625 1.395 . S
N601 Co590 1.995 . S
N601 C602 1.376 . S
N601 C605 1.383 . S
C602 N601 1.376 . S
C602 C603 1.446 . S
C602 C625 1.391 . S
C603 C602 1.446 . S
C603 C604 1.339 . S
C603 H632 0.949 . S
C604 C603 1.339 . S
C604 C605 1.439 . S
C604 H633 0.950 . S
C605 N601 1.383 . S
C605 C604 1.439 . S
C605 C623 1.392 . S
N606 Co590 2.282 . S
N606 C609 1.332 1_554 S
N606 C611 1.332 1_554 S
C607 C608 1.386 . S
C607 C610 1.388 . S
C608 C607 1.386 . S
C608 C609 1.382 . S
C608 H634 0.950 . S
C609 N606 1.332 1_556 S
C609 C608 1.382 . S
C609 H620 0.952 1_556 S
C610 C607 1.388 . S
C610 C611 1.382 . S
C610 H635 0.950 . S
C611 N606 1.332 1_556 S
C611 C610 1.382 . S
C611 H621 0.948 . S
N612 Co590 2.282 . S
N612 C616 1.332 . S
N612 C617 1.332 . S
C613 C614 1.388 . S
C613 C617 1.382 . S
C613 H636 0.950 . S
C614 C613 1.388 . S
C614 C615 1.386 . S
C615 C614 1.386 . S
C615 C616 1.382 . S
C615 H637 0.950 . S
C616 N612 1.332 . S
C616 C615 1.382 . S
C616 H618 0.952 . S
C617 N612 1.332 . S
C617 C613 1.382 . S
C617 H619 0.948 . S
H618 C616 0.952 . S
H619 C617 0.948 . S
H620 C609 0.952 1_554 S
H621 C611 0.948 . S
C622 C588 1.395 . S
C622 C592 1.391 . S
C623 C585 1.389 . S
C623 C605 1.392 . S
C624 C595 1.392 . S
C624 C597 1.389 . S
C625 C600 1.395 . S
C625 C602 1.391 . S
H626 C586 0.951 . S
H627 C587 0.950 . S
H628 C593 0.949 . S
H629 C594 0.950 . S
H630 C598 0.951 . S
H631 C599 0.950 . S
H632 C603 0.949 . S
H633 C604 0.950 . S
H634 C608 0.950 . S
H635 C610 0.950 . S
H636 C613 0.950 . S
H637 C615 0.950 . S
C638 C639 1.363 . S
C638 C644 1.379 . S
C638 N646 1.356 . S
C639 C638 1.363 . S
C639 C645 1.363 . S
C640 C641 1.363 . S
C640 C645 1.379 . S
C640 N647 1.356 . S
C641 C640 1.363 . S
C641 C644 1.363 . S
N642 C644 1.356 . S
N642 H654 0.984 . S
N642 H655 0.985 . S
N643 C645 1.356 . S
N643 H648 0.984 . S
N643 H649 0.985 . S
C644 C638 1.379 . S
C644 C641 1.363 . S
C644 N642 1.356 . S
C645 C639 1.363 . S
C645 C640 1.379 . S
C645 N643 1.356 . S
N646 C638 1.356 . S
N646 H652 0.984 . S
N646 H653 0.984 . S
N647 C640 1.356 . S
N647 H650 0.984 . S
N647 H651 0.985 . S
H648 N643 0.984 . S
H649 N643 0.985 . S
H650 N647 0.984 . S
H651 N647 0.985 . S
H652 N646 0.984 . S
H653 N646 0.984 . S
H654 N642 0.984 . S
H655 N642 0.985 . S
C656 C657 1.363 . S
C656 C662 1.379 . S
C656 N664 1.356 . S
C657 C656 1.363 . S
C657 C663 1.363 . S
C658 C659 1.363 . S
C658 C663 1.379 . S
C658 N665 1.356 . S
C659 C658 1.363 . S
C659 C662 1.363 . S
N660 C662 1.356 . S
N660 H672 0.984 . S
N660 H673 0.985 . S
N661 C663 1.356 . S
N661 H666 0.984 . S
N661 H667 0.985 . S
C662 C656 1.379 . S
C662 C659 1.363 . S
C662 N660 1.356 . S
C663 C657 1.363 . S
C663 C658 1.379 . S
C663 N661 1.356 . S
N664 C656 1.356 . S
N664 H670 0.984 . S
N664 H671 0.984 . S
N665 C658 1.356 . S
N665 H668 0.984 . S
N665 H669 0.985 . S
H666 N661 0.984 . S
H667 N661 0.985 . S
H668 N665 0.984 . S
H669 N665 0.985 . S
H670 N664 0.984 . S
H671 N664 0.984 . S
H672 N660 0.984 . S
H673 N660 0.985 . S
C674 C675 1.363 . S
C674 C680 1.379 . S
C674 N682 1.356 . S
C675 C674 1.363 . S
C675 C681 1.363 . S
C676 C677 1.363 . S
C676 C681 1.379 . S
C676 N683 1.356 . S
C677 C676 1.363 . S
C677 C680 1.363 . S
N678 C680 1.356 . S
N678 H690 0.984 . S
N678 H691 0.985 . S
N679 C681 1.356 . S
N679 H684 0.984 . S
N679 H685 0.985 . S
C680 C674 1.379 . S
C680 C677 1.363 . S
C680 N678 1.356 . S
C681 C675 1.363 . S
C681 C676 1.379 . S
C681 N679 1.356 . S
N682 C674 1.356 . S
N682 H688 0.984 . S
N682 H689 0.984 . S
N683 C676 1.356 . S
N683 H686 0.984 . S
N683 H687 0.985 . S
H684 N679 0.984 . S
H685 N679 0.985 . S
H686 N683 0.984 . S
H687 N683 0.985 . S
H688 N682 0.984 . S
H689 N682 0.984 . S
H690 N678 0.984 . S
H691 N678 0.985 . S
C692 C693 1.363 . S
C692 C698 1.379 . S
C692 N700 1.356 . S
C693 C692 1.363 . S
C693 C699 1.363 . S
C694 C695 1.363 . S
C694 C699 1.379 . S
C694 N701 1.356 . S
C695 C694 1.363 . S
C695 C698 1.363 . S
N696 C698 1.356 . S
N696 H708 0.984 . S
N696 H709 0.985 . S
N697 C699 1.356 . S
N697 H702 0.984 . S
N697 H703 0.985 . S
C698 C692 1.379 . S
C698 C695 1.363 . S
C698 N696 1.356 . S
C699 C693 1.363 . S
C699 C694 1.379 . S
C699 N697 1.356 . S
N700 C692 1.356 . S
N700 H706 0.984 . S
N700 H707 0.984 . S
N701 C694 1.356 . S
N701 H704 0.984 . S
N701 H705 0.985 . S
H702 N697 0.984 . S
H703 N697 0.985 . S
H704 N701 0.984 . S
H705 N701 0.985 . S
H706 N700 0.984 . S
H707 N700 0.984 . S
H708 N696 0.984 . S
H709 N696 0.985 . S
C710 C711 1.363 . S
C710 C716 1.379 . S
C710 N718 1.356 . S
C711 C710 1.363 . S
C711 C717 1.363 . S
C712 C713 1.363 . S
C712 C717 1.379 . S
C712 N719 1.356 . S
C713 C712 1.363 . S
C713 C716 1.363 . S
N714 C716 1.356 . S
N714 H726 0.984 . S
N714 H727 0.985 . S
N715 C717 1.356 . S
N715 H720 0.984 . S
N715 H721 0.985 . S
C716 C710 1.379 . S
C716 C713 1.363 . S
C716 N714 1.356 . S
C717 C711 1.363 . S
C717 C712 1.379 . S
C717 N715 1.356 . S
N718 C710 1.356 . S
N718 H724 0.984 . S
N718 H725 0.984 . S
N719 C712 1.356 . S
N719 H722 0.984 . S
N719 H723 0.985 . S
H720 N715 0.984 . S
H721 N715 0.985 . S
H722 N719 0.984 . S
H723 N719 0.985 . S
H724 N718 0.984 . S
H725 N718 0.984 . S
H726 N714 0.984 . S
H727 N714 0.985 . S
C728 C729 1.363 . S
C728 C734 1.379 . S
C728 N736 1.356 . S
C729 C728 1.363 . S
C729 C735 1.363 . S
C730 C731 1.363 . S
C730 C735 1.379 . S
C730 N737 1.356 . S
C731 C730 1.363 . S
C731 C734 1.363 . S
N732 C734 1.356 . S
N732 H744 0.984 . S
N732 H745 0.985 . S
N733 C735 1.356 . S
N733 H738 0.984 . S
N733 H739 0.985 . S
C734 C728 1.379 . S
C734 C731 1.363 . S
C734 N732 1.356 . S
C735 C729 1.363 . S
C735 C730 1.379 . S
C735 N733 1.356 . S
N736 C728 1.356 . S
N736 H742 0.984 . S
N736 H743 0.984 . S
N737 C730 1.356 . S
N737 H740 0.984 . S
N737 H741 0.985 . S
H738 N733 0.984 . S
H739 N733 0.985 . S
H740 N737 0.984 . S
H741 N737 0.985 . S
H742 N736 0.984 . S
H743 N736 0.984 . S
H744 N732 0.984 . S
H745 N732 0.985 . S
C746 C747 1.363 . S
C746 C752 1.379 . S
C746 N754 1.356 . S
C747 C746 1.363 . S
C747 C753 1.363 . S
C748 C749 1.363 . S
C748 C753 1.379 . S
C748 N755 1.356 . S
C749 C748 1.363 . S
C749 C752 1.363 . S
N750 C752 1.356 . S
N750 H762 0.984 . S
N750 H763 0.985 . S
N751 C753 1.356 . S
N751 H756 0.984 . S
N751 H757 0.985 . S
C752 C746 1.379 . S
C752 C749 1.363 . S
C752 N750 1.356 . S
C753 C747 1.363 . S
C753 C748 1.379 . S
C753 N751 1.356 . S
N754 C746 1.356 . S
N754 H760 0.984 . S
N754 H761 0.984 . S
N755 C748 1.356 . S
N755 H758 0.984 . S
N755 H759 0.985 . S
H756 N751 0.984 . S
H757 N751 0.985 . S
H758 N755 0.984 . S
H759 N755 0.985 . S
H760 N754 0.984 . S
H761 N754 0.984 . S
H762 N750 0.984 . S
H763 N750 0.985 . S
C764 C765 1.363 . S
C764 C770 1.379 . S
C764 N772 1.356 . S
C765 C764 1.363 . S
C765 C771 1.363 . S
C766 C767 1.363 . S
C766 C771 1.379 . S
C766 N773 1.356 . S
C767 C766 1.363 . S
C767 C770 1.363 . S
N768 C770 1.356 . S
N768 H780 0.984 . S
N768 H781 0.985 . S
N769 C771 1.356 . S
N769 H774 0.984 . S
N769 H775 0.985 . S
C770 C764 1.379 . S
C770 C767 1.363 . S
C770 N768 1.356 . S
C771 C765 1.363 . S
C771 C766 1.379 . S
C771 N769 1.356 . S
N772 C764 1.356 . S
N772 H778 0.984 . S
N772 H779 0.984 . S
N773 C766 1.356 . S
N773 H776 0.984 . S
N773 H777 0.985 . S
H774 N769 0.984 . S
H775 N769 0.985 . S
H776 N773 0.984 . S
H777 N773 0.985 . S
H778 N772 0.984 . S
H779 N772 0.984 . S
H780 N768 0.984 . S
H781 N768 0.985 . S
C782 C783 1.363 . S
C782 C788 1.379 . S
C782 N790 1.356 . S
C783 C782 1.363 . S
C783 C789 1.363 . S
C784 C785 1.363 . S
C784 C789 1.379 . S
C784 N791 1.356 . S
C785 C784 1.363 . S
C785 C788 1.363 . S
N786 C788 1.356 . S
N786 H798 0.984 . S
N786 H799 0.985 . S
N787 C789 1.356 . S
N787 H792 0.984 . S
N787 H793 0.985 . S
C788 C782 1.379 . S
C788 C785 1.363 . S
C788 N786 1.356 . S
C789 C783 1.363 . S
C789 C784 1.379 . S
C789 N787 1.356 . S
N790 C782 1.356 . S
N790 H796 0.984 . S
N790 H797 0.984 . S
N791 C784 1.356 . S
N791 H794 0.984 . S
N791 H795 0.985 . S
H792 N787 0.984 . S
H793 N787 0.985 . S
H794 N791 0.984 . S
H795 N791 0.985 . S
H796 N790 0.984 . S
H797 N790 0.984 . S
H798 N786 0.984 . S
H799 N786 0.985 . S
C800 C801 1.363 . S
C800 C806 1.379 . S
C800 N808 1.356 . S
C801 C800 1.363 . S
C801 C807 1.363 . S
C802 C803 1.363 . S
C802 C807 1.379 . S
C802 N809 1.356 . S
C803 C802 1.363 . S
C803 C806 1.363 . S
N804 C806 1.356 . S
N804 H816 0.984 . S
N804 H817 0.985 . S
N805 C807 1.356 . S
N805 H810 0.984 . S
N805 H811 0.985 . S
C806 C800 1.379 . S
C806 C803 1.363 . S
C806 N804 1.356 . S
C807 C801 1.363 . S
C807 C802 1.379 . S
C807 N805 1.356 . S
N808 C800 1.356 . S
N808 H814 0.984 . S
N808 H815 0.984 . S
N809 C802 1.356 . S
N809 H812 0.984 . S
N809 H813 0.985 . S
H810 N805 0.984 . S
H811 N805 0.985 . S
H812 N809 0.984 . S
H813 N809 0.985 . S
H814 N808 0.984 . S
H815 N808 0.984 . S
H816 N804 0.984 . S
H817 N804 0.985 . S
C818 C819 1.363 . S
C818 C824 1.379 . S
C818 N826 1.356 . S
C819 C818 1.363 . S
C819 C825 1.363 . S
C820 C821 1.363 . S
C820 C825 1.379 . S
C820 N827 1.356 . S
C821 C820 1.363 . S
C821 C824 1.363 . S
N822 C824 1.356 . S
N822 H834 0.984 . S
N822 H835 0.985 . S
N823 C825 1.356 . S
N823 H828 0.984 . S
N823 H829 0.985 . S
C824 C818 1.379 . S
C824 C821 1.363 . S
C824 N822 1.356 . S
C825 C819 1.363 . S
C825 C820 1.379 . S
C825 N823 1.356 . S
N826 C818 1.356 . S
N826 H832 0.984 . S
N826 H833 0.984 . S
N827 C820 1.356 . S
N827 H830 0.984 . S
N827 H831 0.985 . S
H828 N823 0.984 . S
H829 N823 0.985 . S
H830 N827 0.984 . S
H831 N827 0.985 . S
H832 N826 0.984 . S
H833 N826 0.984 . S
H834 N822 0.984 . S
H835 N822 0.985 . S
C836 C837 1.363 . S
C836 C842 1.379 . S
C836 N844 1.356 . S
C837 C836 1.363 . S
C837 C843 1.363 . S
C838 C839 1.363 . S
C838 C843 1.379 . S
C838 N845 1.356 . S
C839 C838 1.363 . S
C839 C842 1.363 . S
N840 C842 1.356 . S
N840 H852 0.984 . S
N840 H853 0.985 . S
N841 C843 1.356 . S
N841 H846 0.984 . S
N841 H847 0.985 . S
C842 C836 1.379 . S
C842 C839 1.363 . S
C842 N840 1.356 . S
C843 C837 1.363 . S
C843 C838 1.379 . S
C843 N841 1.356 . S
N844 C836 1.356 . S
N844 H850 0.984 . S
N844 H851 0.984 . S
N845 C838 1.356 . S
N845 H848 0.984 . S
N845 H849 0.985 . S
H846 N841 0.984 . S
H847 N841 0.985 . S
H848 N845 0.984 . S
H849 N845 0.985 . S
H850 N844 0.984 . S
H851 N844 0.984 . S
H852 N840 0.984 . S
H853 N840 0.985 . S
C854 C855 1.363 . S
C854 C860 1.379 . S
C854 N862 1.356 . S
C855 C854 1.363 . S
C855 C861 1.363 . S
C856 C857 1.363 . S
C856 C861 1.379 . S
C856 N863 1.356 . S
C857 C856 1.363 . S
C857 C860 1.363 . S
N858 C860 1.356 . S
N858 H870 0.984 . S
N858 H871 0.985 . S
N859 C861 1.356 . S
N859 H864 0.984 . S
N859 H865 0.985 . S
C860 C854 1.379 . S
C860 C857 1.363 . S
C860 N858 1.356 . S
C861 C855 1.363 . S
C861 C856 1.379 . S
C861 N859 1.356 . S
N862 C854 1.356 . S
N862 H868 0.984 . S
N862 H869 0.984 . S
N863 C856 1.356 . S
N863 H866 0.984 . S
N863 H867 0.985 . S
H864 N859 0.984 . S
H865 N859 0.985 . S
H866 N863 0.984 . S
H867 N863 0.985 . S
H868 N862 0.984 . S
H869 N862 0.984 . S
H870 N858 0.984 . S
H871 N858 0.985 . S
C872 C873 1.363 . S
C872 C878 1.379 . S
C872 N880 1.356 . S
C873 C872 1.363 . S
C873 C879 1.363 . S
C874 C875 1.363 . S
C874 C879 1.379 . S
C874 N881 1.356 . S
C875 C874 1.363 . S
C875 C878 1.363 . S
N876 C878 1.356 . S
N876 H888 0.984 . S
N876 H889 0.985 . S
N877 C879 1.356 . S
N877 H882 0.984 . S
N877 H883 0.985 . S
C878 C872 1.379 . S
C878 C875 1.363 . S
C878 N876 1.356 . S
C879 C873 1.363 . S
C879 C874 1.379 . S
C879 N877 1.356 . S
N880 C872 1.356 . S
N880 H886 0.984 . S
N880 H887 0.984 . S
N881 C874 1.356 . S
N881 H884 0.984 . S
N881 H885 0.985 . S
H882 N877 0.984 . S
H883 N877 0.985 . S
H884 N881 0.984 . S
H885 N881 0.985 . S
H886 N880 0.984 . S
H887 N880 0.984 . S
H888 N876 0.984 . S
H889 N876 0.985 . S
C890 C891 1.363 . S
C890 C896 1.379 . S
C890 N898 1.356 . S
C891 C890 1.363 . S
C891 C897 1.363 . S
C892 C893 1.363 . S
C892 C897 1.379 . S
C892 N899 1.356 . S
C893 C892 1.363 . S
C893 C896 1.363 . S
N894 C896 1.356 . S
N894 H906 0.984 . S
N894 H907 0.985 . S
N895 C897 1.356 . S
N895 H900 0.984 . S
N895 H901 0.985 . S
C896 C890 1.379 . S
C896 C893 1.363 . S
C896 N894 1.356 . S
C897 C891 1.363 . S
C897 C892 1.379 . S
C897 N895 1.356 . S
N898 C890 1.356 . S
N898 H904 0.984 . S
N898 H905 0.984 . S
N899 C892 1.356 . S
N899 H902 0.984 . S
N899 H903 0.985 . S
H900 N895 0.984 . S
H901 N895 0.985 . S
H902 N899 0.984 . S
H903 N899 0.985 . S
H904 N898 0.984 . S
H905 N898 0.984 . S
H906 N894 0.984 . S
H907 N894 0.985 . S
C908 C909 1.363 . S
C908 C914 1.379 . S
C908 N916 1.356 . S
C909 C908 1.363 . S
C909 C915 1.363 . S
C910 C911 1.363 . S
C910 C915 1.379 . S
C910 N917 1.356 . S
C911 C910 1.363 . S
C911 C914 1.363 . S
N912 C914 1.356 . S
N912 H924 0.984 . S
N912 H925 0.985 . S
N913 C915 1.356 . S
N913 H918 0.984 . S
N913 H919 0.985 . S
C914 C908 1.379 . S
C914 C911 1.363 . S
C914 N912 1.356 . S
C915 C909 1.363 . S
C915 C910 1.379 . S
C915 N913 1.356 . S
N916 C908 1.356 . S
N916 H922 0.984 . S
N916 H923 0.984 . S
N917 C910 1.356 . S
N917 H920 0.984 . S
N917 H921 0.985 . S
H918 N913 0.984 . S
H919 N913 0.985 . S
H920 N917 0.984 . S
H921 N917 0.985 . S
H922 N916 0.984 . S
H923 N916 0.984 . S
H924 N912 0.984 . S
H925 N912 0.985 . S
C926 C927 1.363 . S
C926 C932 1.379 . S
C926 N934 1.356 . S
C927 C926 1.363 . S
C927 C933 1.363 . S
C928 C929 1.363 . S
C928 C933 1.379 . S
C928 N935 1.356 . S
C929 C928 1.363 . S
C929 C932 1.363 . S
N930 C932 1.356 . S
N930 H942 0.984 . S
N930 H943 0.985 . S
N931 C933 1.356 . S
N931 H936 0.984 . S
N931 H937 0.985 . S
C932 C926 1.379 . S
C932 C929 1.363 . S
C932 N930 1.356 . S
C933 C927 1.363 . S
C933 C928 1.379 . S
C933 N931 1.356 . S
N934 C926 1.356 . S
N934 H940 0.984 . S
N934 H941 0.984 . S
N935 C928 1.356 . S
N935 H938 0.984 . S
N935 H939 0.985 . S
H936 N931 0.984 . S
H937 N931 0.985 . S
H938 N935 0.984 . S
H939 N935 0.985 . S
H940 N934 0.984 . S
H941 N934 0.984 . S
H942 N930 0.984 . S
H943 N930 0.985 . S
C944 C945 1.363 . S
C944 C950 1.379 . S
C944 N952 1.356 . S
C945 C944 1.363 . S
C945 C951 1.363 . S
C946 C947 1.363 . S
C946 C951 1.379 . S
C946 N953 1.356 . S
C947 C946 1.363 . S
C947 C950 1.363 . S
N948 C950 1.356 . S
N948 H960 0.984 . S
N948 H961 0.985 . S
N949 C951 1.356 . S
N949 H954 0.984 . S
N949 H955 0.985 . S
C950 C944 1.379 . S
C950 C947 1.363 . S
C950 N948 1.356 . S
C951 C945 1.363 . S
C951 C946 1.379 . S
C951 N949 1.356 . S
N952 C944 1.356 . S
N952 H958 0.984 . S
N952 H959 0.984 . S
N953 C946 1.356 . S
N953 H956 0.984 . S
N953 H957 0.985 . S
H954 N949 0.984 . S
H955 N949 0.985 . S
H956 N953 0.984 . S
H957 N953 0.985 . S
H958 N952 0.984 . S
H959 N952 0.984 . S
H960 N948 0.984 . S
H961 N948 0.985 . S
C962 C963 1.363 . S
C962 C968 1.379 . S
C962 N970 1.356 . S
C963 C962 1.363 . S
C963 C969 1.363 . S
C964 C965 1.363 . S
C964 C969 1.379 . S
C964 N971 1.356 . S
C965 C964 1.363 . S
C965 C968 1.363 . S
N966 C968 1.356 . S
N966 H978 0.984 . S
N966 H979 0.985 . S
N967 C969 1.356 . S
N967 H972 0.984 . S
N967 H973 0.985 . S
C968 C962 1.379 . S
C968 C965 1.363 . S
C968 N966 1.356 . S
C969 C963 1.363 . S
C969 C964 1.379 . S
C969 N967 1.356 . S
N970 C962 1.356 . S
N970 H976 0.984 . S
N970 H977 0.984 . S
N971 C964 1.356 . S
N971 H974 0.984 . S
N971 H975 0.985 . S
H972 N967 0.984 . S
H973 N967 0.985 . S
H974 N971 0.984 . S
H975 N971 0.985 . S
H976 N970 0.984 . S
H977 N970 0.984 . S
H978 N966 0.984 . S
H979 N966 0.985 . S
C980 C981 1.363 . S
C980 C986 1.379 . S
C980 N988 1.356 . S
C981 C980 1.363 . S
C981 C987 1.363 . S
C982 C983 1.363 . S
C982 C987 1.379 . S
C982 N989 1.356 . S
C983 C982 1.363 . S
C983 C986 1.363 . S
N984 C986 1.356 . S
N984 H996 0.984 . S
N984 H997 0.985 . S
N985 C987 1.356 . S
N985 H990 0.984 . S
N985 H991 0.985 . S
C986 C980 1.379 . S
C986 C983 1.363 . S
C986 N984 1.356 . S
C987 C981 1.363 . S
C987 C982 1.379 . S
C987 N985 1.356 . S
N988 C980 1.356 . S
N988 H994 0.984 . S
N988 H995 0.984 . S
N989 C982 1.356 . S
N989 H992 0.984 . S
N989 H993 0.985 . S
H990 N985 0.984 . S
H991 N985 0.985 . S
H992 N989 0.984 . S
H993 N989 0.985 . S
H994 N988 0.984 . S
H995 N988 0.984 . S
H996 N984 0.984 . S
H997 N984 0.985 . S
C998 C999 1.363 . S
C998 C1004 1.379 . S
C998 N1006 1.356 . S
C999 C998 1.363 . S
C999 C1005 1.363 . S
C1000 C1001 1.363 . S
C1000 C1005 1.379 . S
C1000 N1007 1.356 . S
C1001 C1000 1.363 . S
C1001 C1004 1.363 . S
N1002 C1004 1.356 . S
N1002 H1014 0.984 . S
N1002 H1015 0.985 . S
N1003 C1005 1.356 . S
N1003 H1008 0.984 . S
N1003 H1009 0.985 . S
C1004 C998 1.379 . S
C1004 C1001 1.363 . S
C1004 N1002 1.356 . S
C1005 C999 1.363 . S
C1005 C1000 1.379 . S
C1005 N1003 1.356 . S
N1006 C998 1.356 . S
N1006 H1012 0.984 . S
N1006 H1013 0.984 . S
N1007 C1000 1.356 . S
N1007 H1010 0.984 . S
N1007 H1011 0.985 . S
H1008 N1003 0.984 . S
H1009 N1003 0.985 . S
H1010 N1007 0.984 . S
H1011 N1007 0.985 . S
H1012 N1006 0.984 . S
H1013 N1006 0.984 . S
H1014 N1002 0.984 . S
H1015 N1002 0.985 . S
C1016 C1017 1.363 . S
C1016 C1022 1.379 . S
C1016 N1024 1.356 . S
C1017 C1016 1.363 . S
C1017 C1023 1.363 . S
C1018 C1019 1.363 . S
C1018 C1023 1.379 . S
C1018 N1025 1.356 . S
C1019 C1018 1.363 . S
C1019 C1022 1.363 . S
N1020 C1022 1.356 . S
N1020 H1032 0.984 . S
N1020 H1033 0.985 . S
N1021 C1023 1.356 . S
N1021 H1026 0.984 . S
N1021 H1027 0.985 . S
C1022 C1016 1.379 . S
C1022 C1019 1.363 . S
C1022 N1020 1.356 . S
C1023 C1017 1.363 . S
C1023 C1018 1.379 . S
C1023 N1021 1.356 . S
N1024 C1016 1.356 . S
N1024 H1030 0.984 . S
N1024 H1031 0.984 . S
N1025 C1018 1.356 . S
N1025 H1028 0.984 . S
N1025 H1029 0.985 . S
H1026 N1021 0.984 . S
H1027 N1021 0.985 . S
H1028 N1025 0.984 . S
H1029 N1025 0.985 . S
H1030 N1024 0.984 . S
H1031 N1024 0.984 . S
H1032 N1020 0.984 . S
H1033 N1020 0.985 . S
C1034 C1035 1.363 . S
C1034 C1040 1.379 . S
C1034 N1042 1.356 . S
C1035 C1034 1.363 . S
C1035 C1041 1.363 . S
C1036 C1037 1.363 . S
C1036 C1041 1.379 . S
C1036 N1043 1.356 . S
C1037 C1036 1.363 . S
C1037 C1040 1.363 . S
N1038 C1040 1.356 . S
N1038 H1050 0.984 . S
N1038 H1051 0.985 . S
N1039 C1041 1.356 . S
N1039 H1044 0.984 . S
N1039 H1045 0.985 . S
C1040 C1034 1.379 . S
C1040 C1037 1.363 . S
C1040 N1038 1.356 . S
C1041 C1035 1.363 . S
C1041 C1036 1.379 . S
C1041 N1039 1.356 . S
N1042 C1034 1.356 . S
N1042 H1048 0.984 . S
N1042 H1049 0.984 . S
N1043 C1036 1.356 . S
N1043 H1046 0.984 . S
N1043 H1047 0.985 . S
H1044 N1039 0.984 . S
H1045 N1039 0.985 . S
H1046 N1043 0.984 . S
H1047 N1043 0.985 . S
H1048 N1042 0.984 . S
H1049 N1042 0.984 . S
H1050 N1038 0.984 . S
H1051 N1038 0.985 . S
C1052 C1053 1.363 . S
C1052 C1058 1.379 . S
C1052 N1060 1.356 . S
C1053 C1052 1.363 . S
C1053 C1059 1.363 . S
C1054 C1055 1.363 . S
C1054 C1059 1.379 . S
C1054 N1061 1.356 . S
C1055 C1054 1.363 . S
C1055 C1058 1.363 . S
N1056 C1058 1.356 . S
N1056 H1068 0.984 . S
N1056 H1069 0.985 . S
N1057 C1059 1.356 . S
N1057 H1062 0.984 . S
N1057 H1063 0.985 . S
C1058 C1052 1.379 . S
C1058 C1055 1.363 . S
C1058 N1056 1.356 . S
C1059 C1053 1.363 . S
C1059 C1054 1.379 . S
C1059 N1057 1.356 . S
N1060 C1052 1.356 . S
N1060 H1066 0.984 . S
N1060 H1067 0.984 . S
N1061 C1054 1.356 . S
N1061 H1064 0.984 . S
N1061 H1065 0.985 . S
H1062 N1057 0.984 . S
H1063 N1057 0.985 . S
H1064 N1061 0.984 . S
H1065 N1061 0.985 . S
H1066 N1060 0.984 . S
H1067 N1060 0.984 . S
H1068 N1056 0.984 . S
H1069 N1056 0.985 . S
C641 C342 1.534 . S
C639 C15 1.538 . S
C659 C411 1.530 . S
C657 C55 1.542 . S
C677 C349 1.563 . S
C675 C101 1.549 . S
C695 C412 1.573 . S
C693 C141 1.572 . S
C713 C465 1.527 . S
C711 C2 1.495 . S
C731 C501 1.522 . S
C729 C61 1.497 . S
C747 C95 1.616 . S
C749 C561 1.608 . S
C767 C624 1.519 . S
C765 C135 1.517 . S
C785 C464 1.508 . S
C783 C42 1.482 . S
C801 C82 1.507 . S
C803 C508 1.542 . S
C821 C554 1.601 . S
C819 C122 1.622 . S
C839 C623 1.538 . S
C837 C21 1.509 . S
C855 C162 1.576 . S
C857 C402 1.573 . S
C875 C359 1.554 . S
C873 C221 1.558 . S
C891 C255 1.551 . S
C893 C395 1.538 . S
C909 C282 1.509 . S
C911 C358 1.523 . S
C929 C570 1.609 . S
C927 C181 1.627 . S
C947 C614 1.529 . S
C945 C202 1.524 . S
C965 C448 1.514 . S
C963 C242 1.514 . S
C981 C301 1.505 . S
C983 C517 1.526 . S
C1001 C571 1.589 . S
C999 C215 1.602 . S
C1019 C607 1.524 . S
C1017 C261 1.524 . S
C1037 C455 1.511 . S
C1035 C295 1.511 . S
C1053 C175 1.526 . S
C1055 C518 1.527 . S
