# Generated by pormake.
# Topology ibd, (4,6)-cn, num edge types: 1
# Building blocks:
#     Node 0, Type 0, BuildingBlock: GALJAG_clean_sbu_0, # of connection points: 4
#     Node 1, Type 0, BuildingBlock: GALJAG_clean_sbu_0, # of connection points: 4
#     Node 2, Type 0, BuildingBlock: GALJAG_clean_sbu_0, # of connection points: 4
#     Node 3, Type 0, BuildingBlock: GALJAG_clean_sbu_0, # of connection points: 4
#     Node 4, Type 0, BuildingBlock: GALJAG_clean_sbu_0, # of connection points: 4
#     Node 5, Type 0, BuildingBlock: GALJAG_clean_sbu_0, # of connection points: 4
#     Node 6, Type 0, BuildingBlock: GALJAG_clean_sbu_0, # of connection points: 4
#     Node 7, Type 0, BuildingBlock: GALJAG_clean_sbu_0, # of connection points: 4
#     Node 8, Type 0, BuildingBlock: GALJAG_clean_sbu_0, # of connection points: 4
#     Node 9, Type 0, BuildingBlock: GALJAG_clean_sbu_0, # of connection points: 4
#     Node 10, Type 0, BuildingBlock: GALJAG_clean_sbu_0, # of connection points: 4
#     Node 11, Type 0, BuildingBlock: GALJAG_clean_sbu_0, # of connection points: 4
#     Node 12, Type 0, BuildingBlock: GALJAG_clean_sbu_0, # of connection points: 4
#     Node 13, Type 0, BuildingBlock: GALJAG_clean_sbu_0, # of connection points: 4
#     Node 14, Type 0, BuildingBlock: GALJAG_clean_sbu_0, # of connection points: 4
#     Node 15, Type 0, BuildingBlock: GALJAG_clean_sbu_0, # of connection points: 4
#     Node 16, Type 0, BuildingBlock: GALJAG_clean_sbu_0, # of connection points: 4
#     Node 17, Type 0, BuildingBlock: GALJAG_clean_sbu_0, # of connection points: 4
#     Node 18, Type 0, BuildingBlock: GALJAG_clean_sbu_0, # of connection points: 4
#     Node 19, Type 0, BuildingBlock: GALJAG_clean_sbu_0, # of connection points: 4
#     Node 20, Type 0, BuildingBlock: GALJAG_clean_sbu_0, # of connection points: 4
#     Node 21, Type 0, BuildingBlock: GALJAG_clean_sbu_0, # of connection points: 4
#     Node 22, Type 0, BuildingBlock: GALJAG_clean_sbu_0, # of connection points: 4
#     Node 23, Type 0, BuildingBlock: GALJAG_clean_sbu_0, # of connection points: 4
#     Node 24, Type 1, BuildingBlock: CIFDUS_clean_sbu_1, # of connection points: 6
#     Node 25, Type 1, BuildingBlock: CIFDUS_clean_sbu_1, # of connection points: 6
#     Node 26, Type 1, BuildingBlock: CIFDUS_clean_sbu_1, # of connection points: 6
#     Node 27, Type 1, BuildingBlock: CIFDUS_clean_sbu_1, # of connection points: 6
#     Node 28, Type 1, BuildingBlock: CIFDUS_clean_sbu_1, # of connection points: 6
#     Node 29, Type 1, BuildingBlock: CIFDUS_clean_sbu_1, # of connection points: 6
#     Node 30, Type 1, BuildingBlock: CIFDUS_clean_sbu_1, # of connection points: 6
#     Node 31, Type 1, BuildingBlock: CIFDUS_clean_sbu_1, # of connection points: 6
#     Node 32, Type 1, BuildingBlock: CIFDUS_clean_sbu_1, # of connection points: 6
#     Node 33, Type 1, BuildingBlock: CIFDUS_clean_sbu_1, # of connection points: 6
#     Node 34, Type 1, BuildingBlock: CIFDUS_clean_sbu_1, # of connection points: 6
#     Node 35, Type 1, BuildingBlock: CIFDUS_clean_sbu_1, # of connection points: 6
#     Node 36, Type 1, BuildingBlock: CIFDUS_clean_sbu_1, # of connection points: 6
#     Node 37, Type 1, BuildingBlock: CIFDUS_clean_sbu_1, # of connection points: 6
#     Node 38, Type 1, BuildingBlock: CIFDUS_clean_sbu_1, # of connection points: 6
#     Node 39, Type 1, BuildingBlock: CIFDUS_clean_sbu_1, # of connection points: 6
#     Edge 40, Type (0, 1), BuildingBlock: EZIPEK_clean_linker_0, # of connection points: 2
#     Edge 41, Type (0, 1), BuildingBlock: EZIPEK_clean_linker_0, # of connection points: 2
#     Edge 42, Type (0, 1), BuildingBlock: EZIPEK_clean_linker_0, # of connection points: 2
#     Edge 43, Type (0, 1), BuildingBlock: EZIPEK_clean_linker_0, # of connection points: 2
#     Edge 44, Type (0, 1), BuildingBlock: EZIPEK_clean_linker_0, # of connection points: 2
#     Edge 45, Type (0, 1), BuildingBlock: EZIPEK_clean_linker_0, # of connection points: 2
#     Edge 46, Type (0, 1), BuildingBlock: EZIPEK_clean_linker_0, # of connection points: 2
#     Edge 47, Type (0, 1), BuildingBlock: EZIPEK_clean_linker_0, # of connection points: 2
#     Edge 48, Type (0, 1), BuildingBlock: EZIPEK_clean_linker_0, # of connection points: 2
#     Edge 49, Type (0, 1), BuildingBlock: EZIPEK_clean_linker_0, # of connection points: 2
#     Edge 50, Type (0, 1), BuildingBlock: EZIPEK_clean_linker_0, # of connection points: 2
#     Edge 51, Type (0, 1), BuildingBlock: EZIPEK_clean_linker_0, # of connection points: 2
#     Edge 52, Type (0, 1), BuildingBlock: EZIPEK_clean_linker_0, # of connection points: 2
#     Edge 53, Type (0, 1), BuildingBlock: EZIPEK_clean_linker_0, # of connection points: 2
#     Edge 54, Type (0, 1), BuildingBlock: EZIPEK_clean_linker_0, # of connection points: 2
#     Edge 55, Type (0, 1), BuildingBlock: EZIPEK_clean_linker_0, # of connection points: 2
#     Edge 56, Type (0, 1), BuildingBlock: EZIPEK_clean_linker_0, # of connection points: 2
#     Edge 57, Type (0, 1), BuildingBlock: EZIPEK_clean_linker_0, # of connection points: 2
#     Edge 58, Type (0, 1), BuildingBlock: EZIPEK_clean_linker_0, # of connection points: 2
#     Edge 59, Type (0, 1), BuildingBlock: EZIPEK_clean_linker_0, # of connection points: 2
#     Edge 60, Type (0, 1), BuildingBlock: EZIPEK_clean_linker_0, # of connection points: 2
#     Edge 61, Type (0, 1), BuildingBlock: EZIPEK_clean_linker_0, # of connection points: 2
#     Edge 62, Type (0, 1), BuildingBlock: EZIPEK_clean_linker_0, # of connection points: 2
#     Edge 63, Type (0, 1), BuildingBlock: EZIPEK_clean_linker_0, # of connection points: 2
#     Edge 64, Type (0, 1), BuildingBlock: EZIPEK_clean_linker_0, # of connection points: 2
#     Edge 65, Type (0, 1), BuildingBlock: EZIPEK_clean_linker_0, # of connection points: 2
#     Edge 66, Type (0, 1), BuildingBlock: EZIPEK_clean_linker_0, # of connection points: 2
#     Edge 67, Type (0, 1), BuildingBlock: EZIPEK_clean_linker_0, # of connection points: 2
#     Edge 68, Type (0, 1), BuildingBlock: EZIPEK_clean_linker_0, # of connection points: 2
#     Edge 69, Type (0, 1), BuildingBlock: EZIPEK_clean_linker_0, # of connection points: 2
#     Edge 70, Type (0, 1), BuildingBlock: EZIPEK_clean_linker_0, # of connection points: 2
#     Edge 71, Type (0, 1), BuildingBlock: EZIPEK_clean_linker_0, # of connection points: 2
#     Edge 72, Type (0, 1), BuildingBlock: EZIPEK_clean_linker_0, # of connection points: 2
#     Edge 73, Type (0, 1), BuildingBlock: EZIPEK_clean_linker_0, # of connection points: 2
#     Edge 74, Type (0, 1), BuildingBlock: EZIPEK_clean_linker_0, # of connection points: 2
#     Edge 75, Type (0, 1), BuildingBlock: EZIPEK_clean_linker_0, # of connection points: 2
#     Edge 76, Type (0, 1), BuildingBlock: EZIPEK_clean_linker_0, # of connection points: 2
#     Edge 77, Type (0, 1), BuildingBlock: EZIPEK_clean_linker_0, # of connection points: 2
#     Edge 78, Type (0, 1), BuildingBlock: EZIPEK_clean_linker_0, # of connection points: 2
#     Edge 79, Type (0, 1), BuildingBlock: EZIPEK_clean_linker_0, # of connection points: 2
#     Edge 80, Type (0, 1), BuildingBlock: EZIPEK_clean_linker_0, # of connection points: 2
#     Edge 81, Type (0, 1), BuildingBlock: EZIPEK_clean_linker_0, # of connection points: 2
#     Edge 82, Type (0, 1), BuildingBlock: EZIPEK_clean_linker_0, # of connection points: 2
#     Edge 83, Type (0, 1), BuildingBlock: EZIPEK_clean_linker_0, # of connection points: 2
#     Edge 84, Type (0, 1), BuildingBlock: EZIPEK_clean_linker_0, # of connection points: 2
#     Edge 85, Type (0, 1), BuildingBlock: EZIPEK_clean_linker_0, # of connection points: 2
#     Edge 86, Type (0, 1), BuildingBlock: EZIPEK_clean_linker_0, # of connection points: 2
#     Edge 87, Type (0, 1), BuildingBlock: EZIPEK_clean_linker_0, # of connection points: 2
#     Edge 88, Type (0, 1), BuildingBlock: EZIPEK_clean_linker_0, # of connection points: 2
#     Edge 89, Type (0, 1), BuildingBlock: EZIPEK_clean_linker_0, # of connection points: 2
#     Edge 90, Type (0, 1), BuildingBlock: EZIPEK_clean_linker_0, # of connection points: 2
#     Edge 91, Type (0, 1), BuildingBlock: EZIPEK_clean_linker_0, # of connection points: 2
#     Edge 92, Type (0, 1), BuildingBlock: EZIPEK_clean_linker_0, # of connection points: 2
#     Edge 93, Type (0, 1), BuildingBlock: EZIPEK_clean_linker_0, # of connection points: 2
#     Edge 94, Type (0, 1), BuildingBlock: EZIPEK_clean_linker_0, # of connection points: 2
#     Edge 95, Type (0, 1), BuildingBlock: EZIPEK_clean_linker_0, # of connection points: 2
#     Edge 96, Type (0, 1), BuildingBlock: EZIPEK_clean_linker_0, # of connection points: 2
#     Edge 97, Type (0, 1), BuildingBlock: EZIPEK_clean_linker_0, # of connection points: 2
#     Edge 98, Type (0, 1), BuildingBlock: EZIPEK_clean_linker_0, # of connection points: 2
#     Edge 99, Type (0, 1), BuildingBlock: EZIPEK_clean_linker_0, # of connection points: 2
#     Edge 100, Type (0, 1), BuildingBlock: EZIPEK_clean_linker_0, # of connection points: 2
#     Edge 101, Type (0, 1), BuildingBlock: EZIPEK_clean_linker_0, # of connection points: 2
#     Edge 102, Type (0, 1), BuildingBlock: EZIPEK_clean_linker_0, # of connection points: 2
#     Edge 103, Type (0, 1), BuildingBlock: EZIPEK_clean_linker_0, # of connection points: 2
#     Edge 104, Type (0, 1), BuildingBlock: EZIPEK_clean_linker_0, # of connection points: 2
#     Edge 105, Type (0, 1), BuildingBlock: EZIPEK_clean_linker_0, # of connection points: 2
#     Edge 106, Type (0, 1), BuildingBlock: EZIPEK_clean_linker_0, # of connection points: 2
#     Edge 107, Type (0, 1), BuildingBlock: EZIPEK_clean_linker_0, # of connection points: 2
#     Edge 108, Type (0, 1), BuildingBlock: EZIPEK_clean_linker_0, # of connection points: 2
#     Edge 109, Type (0, 1), BuildingBlock: EZIPEK_clean_linker_0, # of connection points: 2
#     Edge 110, Type (0, 1), BuildingBlock: EZIPEK_clean_linker_0, # of connection points: 2
#     Edge 111, Type (0, 1), BuildingBlock: EZIPEK_clean_linker_0, # of connection points: 2
#     Edge 112, Type (0, 1), BuildingBlock: EZIPEK_clean_linker_0, # of connection points: 2
#     Edge 113, Type (0, 1), BuildingBlock: EZIPEK_clean_linker_0, # of connection points: 2
#     Edge 114, Type (0, 1), BuildingBlock: EZIPEK_clean_linker_0, # of connection points: 2
#     Edge 115, Type (0, 1), BuildingBlock: EZIPEK_clean_linker_0, # of connection points: 2
#     Edge 116, Type (0, 1), BuildingBlock: EZIPEK_clean_linker_0, # of connection points: 2
#     Edge 117, Type (0, 1), BuildingBlock: EZIPEK_clean_linker_0, # of connection points: 2
#     Edge 118, Type (0, 1), BuildingBlock: EZIPEK_clean_linker_0, # of connection points: 2
#     Edge 119, Type (0, 1), BuildingBlock: EZIPEK_clean_linker_0, # of connection points: 2
#     Edge 120, Type (0, 1), BuildingBlock: EZIPEK_clean_linker_0, # of connection points: 2
#     Edge 121, Type (0, 1), BuildingBlock: EZIPEK_clean_linker_0, # of connection points: 2
#     Edge 122, Type (0, 1), BuildingBlock: EZIPEK_clean_linker_0, # of connection points: 2
#     Edge 123, Type (0, 1), BuildingBlock: EZIPEK_clean_linker_0, # of connection points: 2
#     Edge 124, Type (0, 1), BuildingBlock: EZIPEK_clean_linker_0, # of connection points: 2
#     Edge 125, Type (0, 1), BuildingBlock: EZIPEK_clean_linker_0, # of connection points: 2
#     Edge 126, Type (0, 1), BuildingBlock: EZIPEK_clean_linker_0, # of connection points: 2
#     Edge 127, Type (0, 1), BuildingBlock: EZIPEK_clean_linker_0, # of connection points: 2
#     Edge 128, Type (0, 1), BuildingBlock: EZIPEK_clean_linker_0, # of connection points: 2
#     Edge 129, Type (0, 1), BuildingBlock: EZIPEK_clean_linker_0, # of connection points: 2
#     Edge 130, Type (0, 1), BuildingBlock: EZIPEK_clean_linker_0, # of connection points: 2
#     Edge 131, Type (0, 1), BuildingBlock: EZIPEK_clean_linker_0, # of connection points: 2
#     Edge 132, Type (0, 1), BuildingBlock: EZIPEK_clean_linker_0, # of connection points: 2
#     Edge 133, Type (0, 1), BuildingBlock: EZIPEK_clean_linker_0, # of connection points: 2
#     Edge 134, Type (0, 1), BuildingBlock: EZIPEK_clean_linker_0, # of connection points: 2
#     Edge 135, Type (0, 1), BuildingBlock: EZIPEK_clean_linker_0, # of connection points: 2
# Relax obj value: 0.251
# Max RMSD: 0.284
# Mean RMSD: 0.231
data_MOF--net-ibd--node1-GALJAG_clean_sbu_0--node2-CIFDUS_clean_sbu_1--edge1-EZIPEK_clean_linker_0
_symmetry_space_group_name_H-M    P1
_symmetry_Int_Tables_number       1
_symmetry_cell_setting            triclinic
loop_
_symmetry_equiv_pos_as_xyz
'x, y, z'
_cell_length_a     35.338066
_cell_length_b     36.224971
_cell_length_c     36.708273
_cell_angle_alpha  90.610274
_cell_angle_beta   89.489895
_cell_angle_gamma 92.794924
loop_
_atom_site_label
_atom_site_type_symbol
_atom_site_fract_x
_atom_site_fract_y
_atom_site_fract_z
_atom_type_partial_charge
In0 In -0.00032 0.30799 0.36551 0.0
O1 O 0.04795 0.28849 0.3321 0.0
O2 O 0.99306 0.26155 0.32429 0.0
C3 C 0.03381 0.33995 0.42203 0.0
C4 C 0.97855 0.35622 0.31572 0.0
C5 C 0.96725 0.26093 0.41439 0.0
O6 O 0.05075 0.31887 0.40037 0.0
O7 O 0.00163 0.34952 0.41193 0.0
O8 O 0.94943 0.28692 0.40048 0.0
O9 O -0.00024 0.25775 0.40075 0.0
C10 C 0.02743 0.26501 0.31459 0.0
O11 O 0.95502 0.33371 0.33108 0.0
O12 O 0.01174 0.35693 0.32816 0.0
In13 In -0.00359 0.78013 0.64438 0.0
O14 O 0.97228 0.8275 0.67636 0.0
O15 O 0.95855 0.77198 0.69279 0.0
C16 C 0.03856 0.81248 0.59329 0.0
C17 C 0.04037 0.75324 0.69403 0.0
C18 C 0.94938 0.74758 0.59652 0.0
O19 O 0.01159 0.82824 0.60874 0.0
O20 O 0.0478 0.78269 0.60735 0.0
O21 O 0.97464 0.73036 0.61246 0.0
O22 O 0.94579 0.78014 0.60773 0.0
C23 C 0.95775 0.80605 0.70024 0.0
O24 O 0.02497 0.73237 0.66988 0.0
O25 O 0.03753 0.78751 0.68948 0.0
In26 In 0.49802 0.80876 0.86599 0.0
O27 O 0.54143 0.78698 0.82822 0.0
O28 O 0.48644 0.75905 0.82907 0.0
C29 C 0.5475 0.82504 0.91771 0.0
C30 C 0.47704 0.85798 0.81662 0.0
C31 C 0.45592 0.77845 0.91953 0.0
O32 O 0.55252 0.79912 0.89531 0.0
O33 O 0.52112 0.8461 0.91045 0.0
O34 O 0.44915 0.81005 0.90744 0.0
O35 O 0.4799 0.76107 0.90145 0.0
C36 C 0.51935 0.76182 0.81528 0.0
O37 O 0.45444 0.83334 0.82968 0.0
O38 O 0.50935 0.86042 0.83117 0.0
In39 In 0.50363 0.28094 0.14355 0.0
O40 O 0.5339 0.23242 0.16593 0.0
O41 O 0.54213 0.28535 0.19099 0.0
C42 C 0.4598 0.2488 0.09263 0.0
C43 C 0.46018 0.30452 0.19713 0.0
C44 C 0.54793 0.31941 0.09683 0.0
O45 O 0.4855 0.23258 0.10885 0.0
O46 O 0.45289 0.28003 0.10571 0.0
O47 O 0.52608 0.33429 0.11937 0.0
O48 O 0.55009 0.28518 0.1012 0.0
C49 C 0.54704 0.25115 0.19255 0.0
O50 O 0.47254 0.32606 0.17234 0.0
O51 O 0.46603 0.27071 0.1921 0.0
In52 In -0.00193 0.78068 0.12436 0.0
O53 O 0.94934 0.79349 0.08771 0.0
O54 O -0.00288 0.83213 0.09048 0.0
C55 C 0.96043 0.74499 0.1775 0.0
C56 C 0.03085 0.74136 0.07205 0.0
C57 C 0.0348 0.81577 0.1783 0.0
O58 O 0.94549 0.77026 0.15992 0.0
O59 O 0.99102 0.73404 0.16418 0.0
O60 O 0.05005 0.79081 0.15976 0.0
O61 O 0.00421 0.82665 0.16579 0.0
C62 C 0.96591 0.82268 0.07583 0.0
O63 O 0.0463 0.77075 0.08501 0.0
O64 O 0.00078 0.72985 0.08801 0.0
In65 In 0.51418 0.78541 0.38714 0.0
O66 O 0.51606 0.73611 0.4236 0.0
O67 O 0.56539 0.77237 0.42166 0.0
C68 C 0.46979 0.76214 0.33078 0.0
C69 C 0.48273 0.82399 0.441 0.0
C70 C 0.56323 0.81234 0.33758 0.0
O71 O 0.48366 0.73953 0.35257 0.0
O72 O 0.47494 0.79566 0.34012 0.0
O73 O 0.54105 0.83249 0.35519 0.0
O74 O 0.56287 0.77928 0.34837 0.0
C75 C 0.54829 0.74517 0.43675 0.0
O76 O 0.51581 0.8308 0.42889 0.0
O77 O 0.46321 0.80069 0.42238 0.0
In78 In 0.49605 0.28242 0.62346 0.0
O79 O 0.54304 0.27383 0.58253 0.0
O80 O 0.50035 0.23049 0.58896 0.0
C81 C 0.5365 0.31591 0.67637 0.0
C82 C 0.45958 0.32021 0.57362 0.0
C83 C 0.45939 0.24779 0.67789 0.0
O84 O 0.54985 0.29065 0.65686 0.0
O85 O 0.50608 0.32833 0.66494 0.0
O86 O 0.44512 0.27418 0.66144 0.0
O87 O 0.48845 0.23532 0.66285 0.0
C88 C 0.52889 0.24315 0.57128 0.0
O89 O 0.44541 0.29084 0.58742 0.0
O90 O 0.49042 0.33245 0.58741 0.0
In91 In 0.02499 0.29244 0.88934 0.0
O92 O 0.0282 0.24187 0.92232 0.0
O93 O 0.07432 0.28109 0.9278 0.0
C94 C 0.98478 0.26934 0.83046 0.0
C95 C 0.98715 0.32562 0.94285 0.0
C96 C 0.07622 0.32076 0.84267 0.0
O97 O -0.00401 0.24699 0.85373 0.0
O98 O 0.98907 0.30282 0.84004 0.0
O99 O 0.05694 0.34062 0.86361 0.0
O100 O 0.07287 0.28654 0.84946 0.0
C101 C 0.0582 0.25144 0.93913 0.0
O102 O 0.01067 0.3435 0.92278 0.0
O103 O 0.97892 0.29312 0.9321 0.0
In104 In 0.36847 0.00825 0.24323 0.0
O105 O 0.33358 0.95534 0.25392 0.0
O106 O 0.33007 0.00156 0.29093 0.0
C107 C 0.42317 0.98646 0.20039 0.0
C108 C 0.31305 0.04377 0.21147 0.0
C109 C 0.42435 0.03409 0.28754 0.0
O110 O 0.40151 0.96289 0.21662 0.0
O111 O 0.41244 0.01915 0.2009 0.0
O112 O 0.41392 0.05109 0.25976 0.0
O113 O 0.40399 0.00547 0.29477 0.0
C114 C 0.31695 0.97009 0.28077 0.0
O115 O 0.33197 0.05776 0.2377 0.0
O116 O 0.32455 0.0137 0.19899 0.0
In117 In 0.24278 0.15266 0.51307 0.0
O118 O 0.19474 0.19003 0.52581 0.0
O119 O 0.24223 0.19204 0.56148 0.0
C120 C 0.20456 0.097 0.48015 0.0
C121 C 0.27393 0.20524 0.47002 0.0
C122 C 0.28095 0.10257 0.54916 0.0
O123 O 0.19063 0.11382 0.50709 0.0
O124 O 0.23514 0.11126 0.46746 0.0
O125 O 0.29462 0.11885 0.52133 0.0
O126 O 0.25008 0.11443 0.56093 0.0
C127 C 0.21186 0.20611 0.55202 0.0
O128 O 0.29154 0.1921 0.49638 0.0
O129 O 0.24289 0.18833 0.46233 0.0
In130 In 0.12363 0.04573 0.74827 0.0
O131 O 0.08329 0.00029 0.77064 0.0
O132 O 0.07784 0.05578 0.78897 0.0
C133 C 0.1747 0.0073 0.71228 0.0
C134 C 0.07475 0.0737 0.70442 0.0
C135 C 0.17746 0.08178 0.78545 0.0
O136 O 0.15668 0.99432 0.73956 0.0
O137 O 0.16432 0.03801 0.70111 0.0
O138 O 0.16199 0.0963 0.75863 0.0
O139 O 0.16242 0.05139 0.79606 0.0
C140 C 0.06381 0.02312 0.78803 0.0
O141 O 0.09529 0.09443 0.72486 0.0
O142 O 0.08229 0.03998 0.70326 0.0
In143 In 0.24589 0.91095 0.00999 0.0
O144 O 0.19923 0.94357 0.03505 0.0
O145 O 0.25095 0.94142 0.06428 0.0
C146 C 0.20355 0.85461 0.98069 0.0
C147 C 0.26654 0.96986 0.96827 0.0
C148 C 0.2962 0.86507 0.03613 0.0
O149 O 0.19385 0.87084 0.00962 0.0
O150 O 0.23294 0.86832 0.96524 0.0
O151 O 0.30218 0.88212 0.00658 0.0
O152 O 0.26656 0.87324 0.05325 0.0
C153 C 0.21891 0.95502 0.06177 0.0
O154 O 0.28905 0.95498 0.98951 0.0
O155 O 0.23449 0.95322 0.96539 0.0
In156 In 0.25086 0.41067 0.00895 0.0
O157 O 0.277 0.38438 0.95859 0.0
O158 O 0.28841 0.36277 0.01079 0.0
C159 C 0.19983 0.45259 0.98208 0.0
C160 C 0.20996 0.35851 0.0429 0.0
C161 C 0.2905 0.47154 0.03181 0.0
O162 O 0.21652 0.42983 0.9619 0.0
O163 O 0.20537 0.45001 0.01591 0.0
O164 O 0.27766 0.44751 0.05405 0.0
O165 O 0.28794 0.46177 -0.0012 0.0
C166 C 0.29001 0.35844 0.97679 0.0
O167 O 0.23821 0.37544 0.05753 0.0
O168 O 0.19921 0.37158 0.01321 0.0
In169 In 0.73645 0.16251 0.00836 0.0
O170 O 0.71453 0.13089 0.0583 0.0
O171 O 0.7003 0.11066 0.00513 0.0
C172 C 0.7758 0.22078 0.03727 0.0
C173 C 0.7836 0.11482 0.97982 0.0
C174 C 0.68496 0.2041 0.98001 0.0
O175 O 0.75205 0.20044 0.05468 0.0
O176 O 0.78208 0.20925 0.00545 0.0
O177 O 0.71206 0.19229 0.96126 0.0
O178 O 0.68135 0.19145 0.01171 0.0
C179 C 0.6994 0.10507 0.03907 0.0
O180 O 0.76437 0.13496 0.9598 0.0
O181 O 0.7821 0.12239 0.01349 0.0
In182 In 0.13376 0.5535 0.26575 0.0
O183 O 0.16298 0.52779 0.31367 0.0
O184 O 0.17186 0.50728 0.25974 0.0
C185 C 0.08065 0.59131 0.29914 0.0
C186 C 0.19597 0.59031 0.24241 0.0
C187 C 0.08097 0.51659 0.22694 0.0
O188 O 0.09722 0.56587 0.31493 0.0
O189 O 0.09489 0.60119 0.2689 0.0
O190 O 0.09847 0.54527 0.21496 0.0
O191 O 0.09287 0.50451 0.25666 0.0
C192 C 0.182 0.50774 0.29259 0.0
O193 O 0.17375 0.57331 0.22046 0.0
O194 O 0.18356 0.59343 0.2746 0.0
In195 In 0.75732 0.91513 0.51382 0.0
O196 O 0.76841 0.88194 0.46442 0.0
O197 O 0.81152 0.88376 0.50448 0.0
C198 C 0.70675 0.95909 0.48904 0.0
C199 C 0.71893 0.86091 0.54782 0.0
C200 C 0.79466 0.97817 0.53313 0.0
O201 O 0.72381 0.93744 0.46807 0.0
O202 O 0.71161 0.95428 0.52274 0.0
O203 O 0.78444 0.95418 0.5567 0.0
O204 O 0.79015 0.96785 0.50044 0.0
C205 C 0.79913 0.86958 0.47509 0.0
O206 O 0.74844 0.87646 0.56149 0.0
O207 O 0.70726 0.87477 0.51901 0.0
In208 In 0.87538 0.01501 0.27533 0.0
O209 O 0.91094 0.98476 0.31499 0.0
O210 O 0.90564 0.96311 0.2606 0.0
C211 C 0.82644 0.05978 0.30602 0.0
C212 C 0.93226 0.05508 0.24519 0.0
C213 C 0.8176 0.98154 0.24263 0.0
O214 O 0.84066 0.03492 0.32497 0.0
O215 O 0.84212 0.06474 0.27539 0.0
O216 O 0.84411 -0.00226 0.22471 0.0
O217 O 0.82229 0.97872 0.27652 0.0
C218 C 0.92146 0.96159 0.29121 0.0
O219 O 0.90122 0.04842 0.22906 0.0
O220 O 0.93256 0.0457 0.27823 0.0
In221 In 0.24403 0.66134 0.50735 0.0
O222 O 0.26992 0.63198 0.45848 0.0
O223 O 0.29107 0.62271 0.51165 0.0
C224 C 0.19569 0.70515 0.47646 0.0
C225 C 0.20078 0.60768 0.53858 0.0
C226 C 0.28203 0.72207 0.53136 0.0
O227 O 0.21448 0.68188 0.45901 0.0
O228 O 0.19805 0.70256 0.51068 0.0
O229 O 0.27222 0.69581 0.55249 0.0
O230 O 0.27727 0.71508 0.49797 0.0
C231 C 0.2903 0.61316 0.47855 0.0
O232 O 0.22338 0.62858 0.5568 0.0
O233 O 0.19811 0.61695 0.50574 0.0
In234 In 0.37246 0.5042 0.76757 0.0
O235 O 0.40744 0.49087 0.8164 0.0
O236 O 0.41051 0.45622 0.76903 0.0
C237 C 0.31968 0.54843 0.79336 0.0
C238 C 0.42595 0.54602 0.73319 0.0
C239 C 0.31418 0.46459 0.74218 0.0
O240 O 0.33692 0.52742 0.81428 0.0
O241 O 0.33161 0.54928 0.7608 0.0
O242 O 0.34049 0.47617 0.72102 0.0
O243 O 0.32208 0.46594 0.77559 0.0
C244 C 0.42327 0.4648 0.80006 0.0
O245 O 0.40895 0.51875 0.71761 0.0
O246 O 0.41311 0.55434 0.76426 0.0
In247 In 0.6324 0.05077 0.76768 0.0
O248 O 0.66447 0.03086 0.81676 0.0
O249 O 0.66728 0.00191 0.7658 0.0
C250 C 0.57897 0.09045 0.79895 0.0
C251 C 0.69113 0.0856 0.73676 0.0
C252 C 0.58063 0.0143 0.72785 0.0
O253 O 0.59186 0.06259 0.81409 0.0
O254 O 0.59636 0.10099 0.77044 0.0
O255 O 0.60037 0.04137 0.7155 0.0
O256 O 0.58975 0.00331 0.75897 0.0
C257 C 0.67927 0.00584 0.7979 0.0
O258 O 0.66869 0.06432 0.71903 0.0
O259 O 0.68189 0.0926 0.76936 0.0
In260 In 0.7479 0.65153 0.01104 0.0
O261 O 0.69707 0.68596 0.02166 0.0
O262 O 0.74686 0.69858 0.0529 0.0
C263 C 0.7115 0.59428 0.97811 0.0
C264 C 0.78271 0.70069 0.96639 0.0
C265 C 0.7853 0.60491 0.05252 0.0
O266 O 0.69787 0.60996 0.00573 0.0
O267 O 0.74061 0.61051 0.96449 0.0
O268 O 0.80078 0.62203 0.0261 0.0
O269 O 0.75271 0.61513 0.06113 0.0
C270 C 0.714 0.70748 0.04407 0.0
O271 O 0.80114 0.67895 0.98526 0.0
O272 O 0.74739 0.69358 0.9665 0.0
In273 In 0.86815 0.51479 0.74552 0.0
O274 O 0.83301 0.46315 0.75987 0.0
O275 O 0.83082 0.51061 0.79498 0.0
C276 C 0.91656 0.48783 0.69795 0.0
C277 C 0.81393 0.55122 0.71164 0.0
C278 C 0.93049 0.53505 0.78394 0.0
O279 O 0.89289 0.46728 0.71514 0.0
O280 O 0.91105 0.5219 0.70148 0.0
O281 O 0.91007 0.55875 0.76964 0.0
O282 O 0.91694 0.5022 0.78216 0.0
C283 C 0.81713 0.47893 0.78633 0.0
O284 O 0.83258 0.56517 0.73811 0.0
O285 O 0.82504 0.52061 0.70013 0.0
In286 In 0.74542 0.411 0.50896 0.0
O287 O 0.6929 0.44171 0.52042 0.0
O288 O 0.73894 0.44648 0.55821 0.0
C289 C 0.71079 0.35387 0.47573 0.0
C290 C 0.78082 0.46855 0.47591 0.0
C291 C 0.77758 0.36266 0.54962 0.0
O292 O 0.69441 0.37244 0.49983 0.0
O293 O 0.74253 0.36718 0.46454 0.0
O294 O 0.79556 0.37739 0.52311 0.0
O295 O 0.74598 0.3756 0.55715 0.0
C296 C 0.70727 0.45733 0.54834 0.0
O297 O 0.79574 0.45178 0.50169 0.0
O298 O 0.7505 0.4533 0.46364 0.0
In299 In 0.62174 0.55039 0.24328 0.0
O300 O 0.57917 0.50318 0.25752 0.0
O301 O 0.58049 0.55259 0.28948 0.0
C302 C 0.67246 0.51075 0.20729 0.0
C303 C 0.5741 0.5919 0.20881 0.0
C304 C 0.6773 0.58219 0.28213 0.0
O305 O 0.65276 0.49771 0.23341 0.0
O306 O 0.6631 0.54191 0.19623 0.0
O307 O 0.66478 0.59722 0.25414 0.0
O308 O 0.65895 0.55338 0.29261 0.0
C309 C 0.56385 0.52178 0.28246 0.0
O310 O 0.59593 0.60501 0.23313 0.0
O311 O 0.57883 0.55878 0.19921 0.0
O312 O 0.15766 0.19889 0.10932 0.0
Mn313 Mn 0.12883 0.15491 0.13524 0.0
O314 O 0.20921 0.21638 0.14113 0.0
Mn315 Mn 0.19055 0.1945 0.18311 0.0
O316 O 0.09534 0.1134 0.16438 0.0
O317 O 0.08662 0.16204 0.09664 0.0
Mn318 Mn 0.07489 0.113 0.09586 0.0
O319 O 0.15689 0.11699 0.1045 0.0
O320 O 0.04179 0.10926 0.13285 0.0
O321 O 0.10356 0.19166 0.17048 0.0
O322 O 0.15066 0.21591 0.2062 0.0
O323 O 0.06691 0.12573 0.05059 0.0
O324 O 0.10967 0.07654 0.09687 0.0
C325 C 0.19955 0.13765 0.18881 0.0
C326 C 0.18748 0.21986 0.11425 0.0
C327 C 0.0592 0.1053 0.16235 0.0
C328 C 0.07794 0.15847 0.06186 0.0
C329 C 0.14471 0.08398 0.09859 0.0
C330 C 0.11578 0.21068 0.19814 0.0
O331 O 0.17204 0.15034 0.1704 0.0
O332 O 0.2199 0.1623 0.20661 0.0
O333 O 0.07828 0.8621 0.35041 0.0
Mn334 Mn 0.1116 0.8939 0.38662 0.0
O335 O 0.1208 0.84096 0.31198 0.0
Mn336 Mn 0.1586 0.84021 0.34523 0.0
O337 O 0.14251 0.93026 0.42114 0.0
O338 O 0.07108 0.93064 0.38244 0.0
Mn339 Mn 0.05764 0.94898 0.42467 0.0
O340 O 0.08419 0.87074 0.43163 0.0
O341 O 0.1016 0.97349 0.43902 0.0
O342 O 0.14561 0.9182 0.34463 0.0
O343 O 0.19224 0.878 0.33631 0.0
O344 O 0.02511 0.96738 0.39141 0.0
O345 O 0.04086 0.90924 0.45256 0.0
C346 C 0.15249 0.82125 0.40067 0.0
C347 C 0.08755 0.84903 0.31943 0.0
C348 C 0.13476 0.96136 0.43622 0.0
C349 C 0.04231 0.94601 0.36892 0.0
C350 C 0.05884 0.87982 0.45481 0.0
C351 C 0.17992 0.91045 0.33534 0.0
O352 O 0.15134 0.85556 0.39161 0.0
O353 O 0.15543 0.79918 0.37306 0.0
O354 O 0.42053 0.94814 0.65762 0.0
Mn355 Mn 0.37999 0.91828 0.6285 0.0
O356 O 0.4544 0.98258 0.61677 0.0
Mn357 Mn 0.42567 0.97116 0.57583 0.0
O358 O 0.33987 0.88538 0.59878 0.0
O359 O 0.37953 0.88131 0.66838 0.0
Mn360 Mn 0.33428 0.8615 0.6775 0.0
O361 O 0.33699 0.94479 0.65425 0.0
O362 O 0.32628 0.83611 0.63467 0.0
O363 O 0.4225 0.89083 0.59935 0.0
O364 O 0.43749 0.92865 0.55246 0.0
O365 O 0.36548 0.84827 0.71528 0.0
O366 O 0.30236 0.9006 0.68416 0.0
C367 C 0.36839 0.98737 0.5763 0.0
C368 C 0.44827 0.97027 0.64878 0.0
C369 C 0.32575 0.85224 0.60395 0.0
C370 C 0.39082 0.86925 0.69905 0.0
C371 C 0.30792 0.93357 0.67267 0.0
C372 C 0.43836 0.89745 0.56807 0.0
O373 O 0.38028 0.95854 0.59183 0.0
O374 O 0.394 0.00522 0.55718 0.0
O375 O 0.41175 0.19155 0.93023 0.0
Mn376 Mn 0.38117 0.16751 0.88618 0.0
O377 O 0.4402 0.14456 0.95613 0.0
Mn378 Mn 0.42695 0.10743 0.92385 0.0
O379 O 0.34768 0.14192 0.84461 0.0
O380 O 0.34184 0.20725 0.89081 0.0
Mn381 Mn 0.33492 0.21894 0.84385 0.0
O382 O 0.4156 0.1975 0.84917 0.0
O383 O 0.30124 0.18133 0.83459 0.0
O384 O 0.34704 0.13205 0.92015 0.0
O385 O 0.38163 0.08269 0.93092 0.0
O386 O 0.33311 0.26185 0.86866 0.0
O387 O 0.37387 0.21902 0.81113 0.0
C388 C 0.44982 0.11352 0.8706 0.0
C389 C 0.43347 0.17866 0.95469 0.0
C390 C 0.31366 0.14898 0.8347 0.0
C391 C 0.33824 0.2423 0.8973 0.0
C392 C 0.40703 0.21115 0.81859 0.0
C393 C 0.34998 0.09759 0.92838 0.0
O394 O 0.4205 0.12971 0.88252 0.0
O395 O 0.46333 0.09022 0.89294 0.0
O396 O 0.58351 0.36574 0.84648 0.0
Mn397 Mn 0.61351 0.39265 0.88869 0.0
O398 O 0.62651 0.3349 0.81366 0.0
Mn399 Mn 0.66767 0.34345 0.84353 0.0
O400 O 0.64492 0.42485 0.92766 0.0
O401 O 0.57552 0.43085 0.88886 0.0
Mn402 Mn 0.56401 0.44965 0.93105 0.0
O403 O 0.58147 0.36468 0.92987 0.0
O404 O 0.60888 0.4735 0.94124 0.0
O405 O 0.64774 0.42237 0.85064 0.0
O406 O 0.6952 0.38564 0.83484 0.0
O407 O 0.52851 0.46554 0.89897 0.0
O408 O 0.55101 0.40972 0.95919 0.0
C409 C 0.66557 0.32179 0.89674 0.0
C410 C 0.5935 0.34671 0.81851 0.0
C411 C 0.64063 0.45855 0.93896 0.0
C412 C 0.54557 0.44414 0.87642 0.0
C413 C 0.55912 0.37603 0.95535 0.0
C414 C 0.68122 0.41707 0.83788 0.0
O415 O 0.64994 0.35166 0.88755 0.0
O416 O 0.68564 0.30681 0.87143 0.0
O417 O 0.92071 0.4472 0.15791 0.0
Mn418 Mn 0.87904 0.41778 0.12953 0.0
O419 O 0.95621 0.47932 0.11666 0.0
Mn420 Mn 0.92729 0.46781 0.0758 0.0
O421 O 0.83698 0.38474 0.10144 0.0
O422 O 0.87824 0.38246 0.17077 0.0
Mn423 Mn 0.83284 0.36499 0.1821 0.0
O424 O 0.83694 0.44665 0.15445 0.0
O425 O 0.82291 0.33846 0.14066 0.0
O426 O 0.92026 0.38805 0.1008 0.0
O427 O 0.93874 0.42445 0.05344 0.0
O428 O 0.86453 0.35188 0.21937 0.0
O429 O 0.80244 0.40525 0.18798 0.0
C430 C 0.87059 0.48628 0.07644 0.0
C431 C 0.94928 0.46821 0.14896 0.0
C432 C 0.82059 0.35298 0.10927 0.0
C433 C 0.89007 0.37117 0.20154 0.0
C434 C 0.80811 0.43721 0.17412 0.0
C435 C 0.93721 0.39354 0.06975 0.0
O436 O 0.88114 0.45659 0.09136 0.0
O437 O 0.8968 0.50298 0.05709 0.0
O438 O 0.90746 0.69466 0.43177 0.0
Mn439 Mn 0.88024 0.66995 0.38651 0.0
O440 O 0.95239 0.65778 0.45005 0.0
Mn441 Mn 0.93196 0.61704 0.42577 0.0
O442 O 0.84628 0.64173 0.34587 0.0
O443 O 0.84124 0.71074 0.39114 0.0
Mn444 Mn 0.835 0.71186 0.34211 0.0
O445 O 0.91403 0.70071 0.34973 0.0
O446 O 0.79723 0.67787 0.33883 0.0
O447 O 0.84788 0.63523 0.42155 0.0
O448 O 0.8881 0.594 0.44268 0.0
O449 O 0.83846 0.7591 0.35505 0.0
O450 O 0.87104 0.70264 0.3076 0.0
C451 C 0.9486 0.61239 0.3715 0.0
C452 C 0.93328 0.68617 0.45427 0.0
C453 C 0.81072 0.64617 0.33909 0.0
C454 C 0.84036 0.74674 0.38785 0.0
C455 C 0.90509 0.70357 0.31643 0.0
C456 C 0.85496 0.60517 0.43816 0.0
O457 O 0.92099 0.63237 0.3822 0.0
O458 O 0.96307 0.59207 0.3961 0.0
O459 O 0.84077 0.87456 0.92053 0.0
Mn460 Mn 0.87184 0.9153 0.89004 0.0
O461 O 0.83245 0.83401 0.8762 0.0
Mn462 Mn 0.8292 0.86941 0.84152 0.0
O463 O 0.90243 0.95585 0.85852 0.0
O464 O 0.91182 0.91488 0.92978 0.0
Mn465 Mn 0.93186 0.96012 0.93167 0.0
O466 O 0.84527 0.95636 0.92011 0.0
O467 O 0.95561 0.96968 0.8888 0.0
O468 O 0.90148 0.87507 0.85905 0.0
O469 O 0.86675 0.86659 0.80889 0.0
O470 O 0.95741 0.93721 0.96627 0.0
O471 O 0.89341 0.99012 0.94521 0.0
C472 C 0.79477 0.91443 0.84398 0.0
C473 C 0.83117 0.84181 0.90946 0.0
C474 C 0.93614 0.9708 0.86026 0.0
C475 C 0.93475 0.9097 0.95664 0.0
C476 C 0.85805 0.98346 0.94025 0.0
C477 C 0.89776 0.86421 0.82546 0.0
O478 O 0.83106 0.91811 0.85046 0.0
O479 O 0.78124 0.88117 0.83775 0.0
O480 O 0.92641 0.21152 0.66386 0.0
Mn481 Mn 0.88879 0.18242 0.62646 0.0
O482 O 0.88831 0.22573 0.70857 0.0
Mn483 Mn 0.84896 0.22955 0.67808 0.0
O484 O 0.85401 0.14907 0.5885 0.0
O485 O 0.92657 0.14175 0.62455 0.0
Mn486 Mn 0.92862 0.13646 0.57592 0.0
O487 O 0.91769 0.2148 0.58597 0.0
O488 O 0.89084 0.10226 0.57286 0.0
O489 O 0.85466 0.15297 0.66649 0.0
O490 O 0.81424 0.19443 0.68901 0.0
O491 O 0.97693 0.13575 0.5898 0.0
O492 O 0.92226 0.17298 0.54295 0.0
C493 C 0.84505 0.25602 0.62719 0.0
C494 C 0.9211 0.2239 0.69627 0.0
C495 C 0.85845 0.11569 0.5755 0.0
C496 C 0.96273 0.13694 0.62231 0.0
C497 C 0.92471 0.20611 0.55287 0.0
C498 C 0.82299 0.1614 0.68254 0.0
O499 O 0.84908 0.2208 0.62957 0.0
O500 O 0.84821 0.27429 0.65753 0.0
O501 O 0.64396 0.19039 0.41568 0.0
Mn502 Mn 0.62 0.14405 0.38704 0.0
O503 O 0.69372 0.21223 0.38498 0.0
Mn504 Mn 0.6738 0.18729 0.34598 0.0
O505 O 0.58958 0.10014 0.35913 0.0
O506 O 0.57759 0.14658 0.42429 0.0
Mn507 Mn 0.56166 0.10187 0.43718 0.0
O508 O 0.64731 0.10867 0.42169 0.0
O509 O 0.54179 0.08035 0.39653 0.0
O510 O 0.59128 0.17811 0.35171 0.0
O511 O 0.63697 0.20823 0.32039 0.0
O512 O 0.53429 0.13256 0.46548 0.0
O513 O 0.60256 0.08105 0.45724 0.0
C514 C 0.69543 0.14029 0.327 0.0
C515 C 0.6729 0.21283 0.41275 0.0
C516 C 0.55748 0.08228 0.36543 0.0
C517 C 0.55583 0.15799 0.45023 0.0
C518 C 0.63707 0.08733 0.44815 0.0
C519 C 0.60246 0.19986 0.32607 0.0
O520 O 0.66642 0.13816 0.35041 0.0
O521 O 0.70875 0.17261 0.31684 0.0
O522 O 0.59603 0.86413 0.0876 0.0
Mn523 Mn 0.62147 0.89543 0.13025 0.0
O524 O 0.56082 0.90139 0.05682 0.0
Mn525 Mn 0.56506 0.93888 0.08977 0.0
O526 O 0.65459 0.92418 0.16935 0.0
O527 O 0.66179 0.85847 0.12562 0.0
Mn528 Mn 0.67268 0.8415 0.16842 0.0
O529 O 0.5934 0.86297 0.17172 0.0
O530 O 0.68777 0.88075 0.19692 0.0
O531 O 0.64904 0.93252 0.09238 0.0
O532 O 0.60389 0.97233 0.07807 0.0
O533 O 0.70321 0.81729 0.13699 0.0
O534 O 0.63011 0.81643 0.18396 0.0
C535 C 0.54589 0.93721 0.1452 0.0
C536 C 0.57689 0.87151 0.05948 0.0
C537 C 0.68105 0.91418 0.19059 0.0
C538 C 0.68258 0.83279 0.11302 0.0
C539 C 0.59963 0.83275 0.18874 0.0
C540 C 0.63863 0.96387 0.07961 0.0
O541 O 0.58091 0.93363 0.13562 0.0
O542 O 0.52293 0.9364 0.11813 0.0
O543 O 0.40875 0.71244 0.16288 0.0
Mn544 Mn 0.38011 0.67864 0.12359 0.0
O545 O 0.35982 0.72927 0.19824 0.0
Mn546 Mn 0.319 0.71844 0.16703 0.0
O547 O 0.34717 0.64235 0.08801 0.0
O548 O 0.42378 0.64466 0.12182 0.0
Mn549 Mn 0.42924 0.62828 0.0769 0.0
O550 O 0.40321 0.70795 0.07904 0.0
O551 O 0.38651 0.60032 0.06631 0.0
O552 O 0.35549 0.64867 0.16779 0.0
O553 O 0.29818 0.67181 0.1712 0.0
O554 O 0.4671 0.60792 0.10163 0.0
O555 O 0.43953 0.6689 0.04783 0.0
C556 C 0.32338 0.74521 0.11543 0.0
C557 C 0.39553 0.72731 0.19241 0.0
C558 C 0.35342 0.61162 0.07101 0.0
C559 C 0.45389 0.62702 0.12852 0.0
C560 C 0.42485 0.70013 0.05194 0.0
C561 C 0.32108 0.64752 0.17972 0.0
O562 O 0.33951 0.71535 0.12395 0.0
O563 O 0.29966 0.75573 0.14002 0.0
O564 O 0.14821 0.687 0.91866 0.0
Mn565 Mn 0.12225 0.64618 0.88538 0.0
O566 O 0.169 0.72692 0.87793 0.0
Mn567 Mn 0.17436 0.69059 0.84332 0.0
O568 O 0.09232 0.60433 0.85369 0.0
O569 O 0.07899 0.64965 0.92127 0.0
Mn570 Mn 0.05674 0.6062 0.92782 0.0
O571 O 0.14435 0.6065 0.91822 0.0
O572 O 0.03729 0.59328 0.88375 0.0
O573 O 0.09798 0.68549 0.85113 0.0
O574 O 0.1412 0.69603 0.80711 0.0
O575 O 0.03249 0.63658 0.95929 0.0
O576 O 0.09415 0.57752 0.94536 0.0
C577 C 0.20524 0.64262 0.84638 0.0
C578 C 0.1602 0.71945 0.91018 0.0
C579 C 0.05818 0.58964 0.85583 0.0
C580 C 0.05766 0.66089 0.94757 0.0
C581 C 0.12982 0.58235 0.94027 0.0
C582 C 0.10738 0.69688 0.81888 0.0
O583 O 0.1681 0.64121 0.84955 0.0
O584 O 0.22149 0.67527 0.84432 0.0
O585 O 0.10823 0.36965 0.58518 0.0
Mn586 Mn 0.12928 0.40166 0.62916 0.0
O587 O 0.06174 0.40027 0.56061 0.0
Mn588 Mn 0.07617 0.44214 0.58498 0.0
O589 O 0.15221 0.4333 0.67257 0.0
O590 O 0.17265 0.36823 0.62709 0.0
Mn591 Mn 0.19692 0.36906 0.6679 0.0
O592 O 0.10553 0.36666 0.66879 0.0
O593 O 0.21231 0.41786 0.66997 0.0
O594 O 0.15894 0.43853 0.59359 0.0
O595 O 0.11526 0.46948 0.56525 0.0
O596 O 0.2186 0.33332 0.6396 0.0
O597 O 0.15856 0.35546 0.70085 0.0
C598 C 0.05243 0.4538 0.63359 0.0
C599 C 0.08192 0.3726 0.56179 0.0
C600 C 0.18705 0.43899 0.68128 0.0
C601 C 0.19201 0.34064 0.61723 0.0
C602 C 0.12248 0.35487 0.69723 0.0
C603 C 0.14952 0.46391 0.57177 0.0
O604 O 0.0823 0.43353 0.6319 0.0
O605 O 0.03951 0.46756 0.60389 0.0
O606 O 0.65477 0.69998 0.60815 0.0
Mn607 Mn 0.62574 0.65689 0.63487 0.0
O608 O 0.69508 0.72839 0.64805 0.0
Mn609 Mn 0.68197 0.69958 0.68758 0.0
O610 O 0.59157 0.61672 0.66538 0.0
O611 O 0.58451 0.65938 0.59453 0.0
Mn612 Mn 0.57591 0.60955 0.59665 0.0
O613 O 0.65623 0.62044 0.60528 0.0
O614 O 0.54012 0.60634 0.6311 0.0
O615 O 0.59732 0.69327 0.66864 0.0
O616 O 0.63924 0.71219 0.71205 0.0
O617 O 0.57354 0.6191 0.54962 0.0
O618 O 0.61245 0.57608 0.60433 0.0
C619 C 0.69798 0.64351 0.68735 0.0
C620 C 0.67976 0.72531 0.61691 0.0
C621 C 0.55551 0.60814 0.66203 0.0
C622 C 0.5801 0.6532 0.55928 0.0
C623 C 0.6467 0.58657 0.60273 0.0
C624 C 0.60558 0.70749 0.70011 0.0
O625 O 0.66888 0.65523 0.6706 0.0
O626 O 0.7161 0.66848 0.70673 0.0
O627 O 0.34146 0.37255 0.41747 0.0
Mn628 Mn 0.37136 0.41392 0.38789 0.0
O629 O 0.31724 0.33609 0.37386 0.0
Mn630 Mn 0.31844 0.37159 0.33897 0.0
O631 O 0.4035 0.45519 0.35873 0.0
O632 O 0.41142 0.4098 0.42585 0.0
Mn633 Mn 0.43556 0.45237 0.43237 0.0
O634 O 0.34798 0.45458 0.42064 0.0
O635 O 0.45832 0.46149 0.38872 0.0
O636 O 0.39694 0.37415 0.35392 0.0
O637 O 0.35682 0.36482 0.30705 0.0
O638 O 0.45571 0.42206 0.4658 0.0
O639 O 0.39846 0.4839 0.44669 0.0
C640 C 0.29455 0.42431 0.34545 0.0
C641 C 0.32559 0.34199 0.40659 0.0
C642 C 0.43842 0.46702 0.36094 0.0
C643 C 0.43039 0.39845 0.45306 0.0
C644 C 0.36274 0.47985 0.44187 0.0
C645 C 0.38944 0.36277 0.32108 0.0
O646 O 0.33037 0.41916 0.34955 0.0
O647 O 0.27431 0.39441 0.33868 0.0
C648 C 0.07431 0.2216 0.29213 0.0
C649 C 0.0434 0.24355 0.28468 0.0
C650 C 0.05761 0.24183 0.21947 0.0
C651 C 0.08877 0.22013 0.22691 0.0
N652 N 0.1203 0.18026 0.26854 0.0
N653 N -0.00141 0.26527 0.24145 0.0
C654 C 0.09519 0.20721 0.26275 0.0
C655 C 0.03251 0.25036 0.24835 0.0
N656 N 0.08394 0.21496 0.3274 0.0
N657 N 0.05348 0.25641 0.18562 0.0
H658 H 0.9798 0.27291 0.26187 0.0
H659 H 0.9876 0.26707 0.21533 0.0
H660 H 0.07195 0.25152 0.16398 0.0
H661 H 0.0337 0.27586 0.1798 0.0
H662 H 0.10935 0.20381 0.33477 0.0
H663 H 0.06706 0.22212 0.34961 0.0
H664 H 0.12341 0.16742 0.29349 0.0
H665 H 0.13501 0.1673 0.24766 0.0
C666 C 0.04989 0.80422 0.52623 0.0
C667 C 0.05396 0.82628 0.55845 0.0
C668 C 0.06408 0.88213 0.52264 0.0
C669 C 0.05734 0.8607 0.49019 0.0
N670 N 0.05139 0.80106 0.4602 0.0
N671 N 0.07462 0.883 0.58787 0.0
C672 C 0.05274 0.82159 0.4917 0.0
C673 C 0.06388 0.86433 0.5567 0.0
N674 N 0.04107 0.7671 0.5285 0.0
N675 N 0.07122 0.91955 0.52104 0.0
H676 H 0.07613 0.86996 0.613 0.0
H677 H 0.08526 0.91028 0.58866 0.0
H678 H 0.08031 0.93329 0.49757 0.0
H679 H 0.06806 0.93731 0.54322 0.0
H680 H 0.03241 0.75055 0.50649 0.0
H681 H 0.04148 0.75229 0.55256 0.0
H682 H 0.05471 0.77267 0.4592 0.0
H683 H 0.04883 0.81254 0.43449 0.0
C684 C 0.44091 0.90269 0.78088 0.0
C685 C 0.46852 0.87581 0.78166 0.0
C686 C 0.457 0.86026 0.71752 0.0
C687 C 0.42522 0.88233 0.71886 0.0
N688 N 0.39497 0.93415 0.74486 0.0
N689 N 0.51298 0.83997 0.74816 0.0
C690 C 0.4204 0.90731 0.7482 0.0
C691 C 0.48035 0.85865 0.74881 0.0
N692 N 0.43321 0.92209 0.81193 0.0
N693 N 0.46296 0.83913 0.6872 0.0
H694 H 0.53037 0.83866 0.77085 0.0
H695 H 0.52449 0.82855 0.72467 0.0
H696 H 0.44652 0.84121 0.66387 0.0
H697 H 0.48355 0.81969 0.68515 0.0
H698 H 0.41113 0.93994 0.81456 0.0
H699 H 0.44923 0.91971 0.8355 0.0
H700 H 0.39097 0.95484 0.7642 0.0
H701 H 0.38 0.937 0.72078 0.0
C702 C 0.44796 0.19581 0.05224 0.0
C703 C 0.44558 0.23423 0.0571 0.0
C704 C 0.44196 0.24021 0.99014 0.0
C705 C 0.44687 0.20164 0.98676 0.0
N706 N 0.48136 0.15358 0.01521 0.0
N707 N 0.445 0.29483 0.02902 0.0
C708 C 0.45807 0.18245 0.01793 0.0
C709 C 0.44361 0.2572 0.02562 0.0
N710 N 0.44277 0.17217 0.08074 0.0
N711 N 0.43693 0.26069 0.95973 0.0
H712 H 0.44067 0.3089 0.05336 0.0
H713 H 0.45019 0.31253 0.0072 0.0
H714 H 0.44227 0.25059 0.93358 0.0
H715 H 0.4277 0.28756 0.96043 0.0
H716 H 0.44356 0.14356 0.0773 0.0
H717 H 0.43386 0.18116 0.10641 0.0
H718 H 0.49142 0.14047 0.03813 0.0
H719 H 0.4951 0.14704 0.99085 0.0
C720 C 0.05398 0.86352 0.22522 0.0
C721 C 0.04641 0.82582 0.21584 0.0
C722 C 0.04718 0.8096 0.2806 0.0
C723 C 0.06121 0.8456 0.2889 0.0
N724 N 0.08194 0.90649 0.26929 0.0
N725 N 0.04092 0.76161 0.23489 0.0
C726 C 0.06482 0.87279 0.2614 0.0
C727 C 0.04425 0.79838 0.24359 0.0
N728 N 0.0521 0.89031 0.19944 0.0
N729 N 0.03847 0.78583 0.30841 0.0
H730 H 0.0404 0.75141 0.20843 0.0
H731 H 0.04247 0.74064 0.25391 0.0
H732 H 0.0406 0.79421 0.33567 0.0
H733 H 0.02584 0.75951 0.30472 0.0
H734 H 0.05297 0.91844 0.20578 0.0
H735 H 0.04771 0.88444 0.17188 0.0
H736 H 0.09013 0.92586 0.24961 0.0
H737 H 0.08975 0.91421 0.29571 0.0
C738 C 0.48768 0.87423 0.48715 0.0
C739 C 0.47083 0.83948 0.47679 0.0
C740 C 0.44167 0.83444 0.53813 0.0
C741 C 0.45894 0.8694 0.54696 0.0
N742 N 0.51309 0.91077 0.53731 0.0
N743 N 0.43979 0.78157 0.49691 0.0
C744 C 0.48787 0.88436 0.52413 0.0
C745 C 0.45001 0.81787 0.50353 0.0
N746 N 0.50112 0.89882 0.46161 0.0
N747 N 0.41784 0.81717 0.56271 0.0
H748 H 0.44609 0.76754 0.47297 0.0
H749 H 0.42758 0.76403 0.51646 0.0
H750 H 0.41508 0.82662 0.58945 0.0
H751 H 0.40088 0.79363 0.55675 0.0
H752 H 0.5112 0.92553 0.4684 0.0
H753 H 0.49754 0.89428 0.4337 0.0
H754 H 0.5359 0.9215 0.52184 0.0
H755 H 0.5128 0.91875 0.56476 0.0
C756 C 0.44081 0.19901 0.72353 0.0
C757 C 0.44839 0.23696 0.71556 0.0
C758 C 0.44763 0.25181 0.78111 0.0
C759 C 0.43414 0.21548 0.78824 0.0
N760 N 0.41669 0.154 0.76749 0.0
N761 N 0.45535 0.30069 0.73732 0.0
C762 C 0.43143 0.18865 0.75987 0.0
C763 C 0.45099 0.26376 0.74449 0.0
N764 N 0.44119 0.17308 0.6962 0.0
N765 N 0.45597 0.27503 0.80982 0.0
H766 H 0.45752 0.31155 0.71138 0.0
H767 H 0.45363 0.3213 0.75716 0.0
H768 H 0.45348 0.26608 0.83674 0.0
H769 H 0.46877 0.30137 0.80717 0.0
H770 H 0.44046 0.14474 0.70078 0.0
H771 H 0.44368 0.17984 0.66871 0.0
H772 H 0.40928 0.13411 0.74782 0.0
H773 H 0.41011 0.14584 0.79405 0.0
C774 C 0.05292 0.19403 0.97377 0.0
C775 C 0.06928 0.23028 0.97189 0.0
C776 C 0.08529 0.22565 0.03752 0.0
C777 C 0.06776 0.18953 0.03741 0.0
N778 N 0.01325 0.15588 0.01242 0.0
N779 N 0.09924 0.28284 0.00423 0.0
C780 C 0.04439 0.17917 0.00781 0.0
C781 C 0.08507 0.24707 0.0045 0.0
N782 N 0.04557 0.17335 0.94311 0.0
N783 N 0.09935 0.24009 0.06935 0.0
H784 H 0.10335 0.29813 0.98067 0.0
H785 H 0.10764 0.2978 0.02732 0.0
H786 H 0.09455 0.22695 0.09415 0.0
H787 H 0.1133 0.26586 0.07205 0.0
H788 H 0.03447 0.14614 0.94435 0.0
H789 H 0.05491 0.18184 0.91732 0.0
H790 H 0.99447 0.14941 0.99123 0.0
H791 H 0.00418 0.14725 0.03827 0.0
C792 C 0.27437 0.07426 0.16459 0.0
C793 C 0.27705 0.05895 0.19974 0.0
C794 C 0.21309 0.0783 0.21436 0.0
C795 C 0.21496 0.10112 0.18365 0.0
N796 N 0.24667 0.12156 0.12875 0.0
N797 N 0.24839 0.04548 0.25859 0.0
C798 C 0.24469 0.09823 0.15774 0.0
C799 C 0.24589 0.06003 0.2246 0.0
N800 N 0.30103 0.06746 0.13852 0.0
N801 N 0.1805 0.07617 0.23464 0.0
H802 H 0.27176 0.03163 0.26704 0.0
H803 H 0.22831 0.04885 0.27912 0.0
H804 H 0.15675 0.09035 0.22714 0.0
H805 H 0.17591 0.05814 0.25632 0.0
H806 H 0.2989 0.07583 0.11162 0.0
H807 H 0.32398 0.05116 0.14306 0.0
H808 H 0.27021 0.12472 0.1116 0.0
H809 H 0.22509 0.13914 0.12287 0.0
C810 C 0.18158 0.05457 0.43012 0.0
C811 C 0.18998 0.06014 0.46758 0.0
C812 C 0.17866 0.99368 0.47872 0.0
C813 C 0.16498 0.98957 0.44307 0.0
N814 N 0.15551 0.01324 0.38314 0.0
N815 N 0.19684 0.03511 0.5282 0.0
C816 C 0.16814 0.01905 0.41797 0.0
C817 C 0.18888 0.02968 0.4921 0.0
N818 N 0.1854 0.08349 0.40647 0.0
N819 N 0.18179 0.96288 0.49944 0.0
H820 H 0.2063 0.06037 0.53922 0.0
H821 H 0.19262 0.01485 0.54791 0.0
H822 H 0.17435 0.93648 0.48933 0.0
H823 H 0.19486 0.9629 0.52474 0.0
H824 H 0.18388 0.08066 0.37829 0.0
H825 H 0.19121 0.11074 0.41488 0.0
H826 H 0.15191 0.03402 0.36435 0.0
H827 H 0.14749 0.98694 0.37321 0.0
C828 C 0.21298 0.97634 0.664 0.0
C829 C 0.21036 0.99188 0.69949 0.0
C830 C 0.27729 0.98125 0.70974 0.0
C831 C 0.27729 0.959 0.67816 0.0
N832 N 0.24727 0.93657 0.62301 0.0
N833 N 0.23991 0.00777 0.75736 0.0
C834 C 0.24587 0.95726 0.65431 0.0
C835 C 0.24256 0.99423 0.72264 0.0
N836 N 0.18414 0.97966 0.63985 0.0
N837 N 0.3106 0.99053 0.72689 0.0
H838 H 0.21531 0.01812 0.76809 0.0
H839 H 0.2614 0.00637 0.77646 0.0
H840 H 0.33658 0.98234 0.71682 0.0
H841 H 0.31296 0.00979 0.74813 0.0
H842 H 0.186 0.9722 0.61245 0.0
H843 H 0.1591 0.9923 0.64663 0.0
H844 H 0.22394 0.93055 0.60649 0.0
H845 H 0.27182 0.92416 0.61421 0.0
C846 C 0.26477 0.03903 0.96173 0.0
C847 C 0.27753 0.00454 0.94881 0.0
C848 C 0.32147 0.03758 0.90774 0.0
C849 C 0.31698 0.07047 0.9284 0.0
N850 N 0.28026 0.10486 0.97094 0.0
N851 N 0.31597 0.97069 0.90697 0.0
C852 C 0.28672 0.07222 0.95365 0.0
C853 C 0.30485 0.00375 0.92054 0.0
N854 N 0.23218 0.03981 0.98182 0.0
N855 N 0.34235 0.03901 0.87623 0.0
H856 H 0.3029 0.94544 0.91455 0.0
H857 H 0.33917 0.96829 0.88954 0.0
H858 H 0.35406 0.06393 0.86611 0.0
H859 H 0.34469 0.01656 0.85853 0.0
H860 H 0.21906 0.06413 0.98839 0.0
H861 H 0.21629 0.01585 0.98871 0.0
H862 H 0.25955 0.10794 0.99079 0.0
H863 H 0.29602 0.12923 0.96533 0.0
C864 C 0.27742 0.94996 0.33382 0.0
C865 C 0.28052 0.95569 0.29574 0.0
C866 C 0.21136 0.9505 0.29012 0.0
C867 C 0.20896 0.93912 0.32647 0.0
N868 N 0.23711 0.93122 0.38496 0.0
N869 N 0.25072 0.95952 0.23661 0.0
C870 C 0.24127 0.94088 0.34918 0.0
C871 C 0.24756 0.95553 0.27352 0.0
N872 N 0.3092 0.95234 0.35492 0.0
N873 N 0.17879 0.95633 0.27177 0.0
H874 H 0.27642 0.96365 0.22296 0.0
H875 H 0.22793 0.95616 0.21892 0.0
H876 H 0.15227 0.95317 0.2844 0.0
H877 H 0.17815 0.96793 0.24596 0.0
H878 H 0.30883 0.9521 0.38324 0.0
H879 H 0.33652 0.95538 0.34398 0.0
H880 H 0.25939 0.92741 0.40264 0.0
H881 H 0.21048 0.9261 0.39683 0.0
C882 C 0.2938 0.03546 0.53968 0.0
C883 C 0.29578 0.06763 0.56248 0.0
C884 C 0.3314 0.03421 0.60733 0.0
C885 C 0.33186 0.00387 0.5828 0.0
N886 N 0.30067 0.9691 0.53555 0.0
N887 N 0.3074 0.09437 0.62213 0.0
C888 C 0.30782 0.00224 0.55273 0.0
C889 C 0.31102 0.06572 0.59805 0.0
N890 N 0.28072 0.03692 0.5049 0.0
N891 N 0.3532 0.03383 0.6378 0.0
H892 H 0.29443 0.1186 0.6154 0.0
H893 H 0.31512 0.09324 0.64938 0.0
H894 H 0.36766 0.01052 0.64477 0.0
H895 H 0.35791 0.05643 0.65519 0.0
H896 H 0.28234 0.01521 0.4862 0.0
H897 H 0.27062 0.06067 0.49376 0.0
H898 H 0.28092 0.96517 0.51478 0.0
H899 H 0.31204 0.94495 0.54513 0.0
C900 C 0.24666 0.09746 0.77596 0.0
C901 C 0.21431 0.09556 0.79962 0.0
C902 C 0.25335 0.11684 0.85081 0.0
C903 C 0.28513 0.11956 0.82688 0.0
N904 N 0.31535 0.10297 0.77097 0.0
N905 N 0.18728 0.0982 0.86019 0.0
C906 C 0.28282 0.10642 0.79084 0.0
C907 C 0.21795 0.103 0.83741 0.0
N908 N 0.24294 0.09154 0.73928 0.0
N909 N 0.25658 0.13056 0.88555 0.0
H910 H 0.15983 0.0922 0.85094 0.0
H911 H 0.18909 0.09867 0.88848 0.0
H912 H 0.28239 0.14038 0.89621 0.0
H913 H 0.23385 0.134 0.90326 0.0
H914 H 0.26465 0.09722 0.72051 0.0
H915 H 0.21775 0.08262 0.72693 0.0
H916 H 0.31627 0.09046 0.74533 0.0
H917 H 0.34202 0.10937 0.78201 0.0
C918 C 0.17498 0.98613 0.10421 0.0
C919 C 0.20829 0.98788 0.08274 0.0
C920 C 0.20512 0.05489 0.07735 0.0
C921 C 0.17046 0.05283 0.09718 0.0
N922 N 0.1333 0.02 0.14328 0.0
N923 N 0.2624 0.02416 0.06018 0.0
C924 C 0.15879 0.01948 0.11509 0.0
C925 C 0.22624 0.02256 0.07382 0.0
N926 N 0.15835 0.95266 0.11341 0.0
N927 N 0.21674 0.08673 0.0601 0.0
H928 H 0.27865 0.00108 0.0576 0.0
H929 H 0.2779 0.04855 0.05442 0.0
H930 H 0.20023 0.10957 0.05787 0.0
H931 H 0.24233 0.09031 0.04631 0.0
H932 H 0.13152 0.94971 0.12535 0.0
H933 H 0.17093 0.92778 0.10747 0.0
H934 H 0.12577 -0.00316 0.15882 0.0
H935 H 0.12339 0.04454 0.15397 0.0
C936 C 0.19346 0.29006 0.03753 0.0
C937 C 0.19424 0.32354 0.05835 0.0
C938 C 0.18994 0.28904 0.11489 0.0
C939 C 0.19059 0.25523 0.09447 0.0
N940 N 0.18626 0.22306 0.03662 0.0
N941 N 0.18136 0.35493 0.11452 0.0
C942 C 0.19017 0.25559 0.05582 0.0
C943 C 0.18897 0.3229 0.09634 0.0
N944 N 0.19763 0.29098 0.00053 0.0
N945 N 0.19006 0.28924 0.15215 0.0
H946 H 0.17893 0.37999 0.10114 0.0
H947 H 0.17348 0.35615 0.14189 0.0
H948 H 0.18326 0.26631 0.16803 0.0
H949 H 0.19777 0.31263 0.16763 0.0
H950 H 0.20363 0.26809 0.9845 0.0
H951 H 0.19534 0.31479 0.98544 0.0
H952 H 0.17984 0.22147 0.00901 0.0
H953 H 0.18743 0.19721 0.04866 0.0
C954 C 0.67909 0.27196 0.98195 0.0
C955 C 0.66557 0.23677 0.96854 0.0
C956 C 0.63343 0.26588 0.91905 0.0
C957 C 0.65389 0.29927 0.92774 0.0
N958 N 0.69302 0.3367 0.96788 0.0
N959 N 0.62659 0.19958 0.92771 0.0
C960 C 0.67482 0.30344 0.96008 0.0
C961 C 0.64098 0.23361 0.93847 0.0
N962 N 0.69677 0.27494 0.01489 0.0
N963 N 0.60772 0.26546 0.89145 0.0
H964 H 0.63055 0.17584 0.94283 0.0
H965 H 0.6116 0.19463 0.90373 0.0
H966 H 0.6019 0.28953 0.87759 0.0
H967 H 0.59 0.24273 0.88458 0.0
H968 H 0.70536 0.29999 0.02707 0.0
H969 H 0.69985 0.25246 0.03184 0.0
H970 H 0.71288 0.34083 0.98847 0.0
H971 H 0.6888 0.3602 0.95247 0.0
C972 C 0.0132 0.52416 0.21028 0.0
C973 C 0.04534 0.5018 0.21066 0.0
C974 C 0.01013 0.45303 0.17706 0.0
C975 C 0.9788 0.47597 0.17603 0.0
N976 N 0.94538 0.52634 0.20138 0.0
N977 N 0.07176 0.44203 0.2021 0.0
C978 C 0.97865 0.50929 0.19595 0.0
C979 C 0.04282 0.46507 0.19685 0.0
N980 N 0.01579 0.55991 0.22253 0.0
N981 N 0.0091 0.42054 0.15772 0.0
H982 H 0.09723 0.45056 0.2144 0.0
H983 H 0.0697 0.4138 0.19635 0.0
H984 H 0.98483 0.41016 0.14442 0.0
H985 H 0.0325 0.40459 0.15357 0.0
H986 H 0.99451 0.57847 0.21926 0.0
H987 H 0.0401 0.57199 0.23409 0.0
H988 H 0.94256 0.54892 0.21883 0.0
H989 H 0.91965 0.51524 0.19143 0.0
C990 C 0.82732 0.80547 0.47427 0.0
C991 C 0.81495 0.8375 0.45575 0.0
C992 C 0.80183 0.7996 0.40263 0.0
C993 C 0.82368 0.77134 0.41608 0.0
N994 N 0.84615 0.74142 0.4691 0.0
N995 N 0.80052 0.86517 0.39803 0.0
C996 C 0.83359 0.7724 0.45339 0.0
C997 C 0.80577 0.8346 0.41848 0.0
N998 N 0.83116 0.80582 0.5113 0.0
N999 N 0.77653 0.79265 0.37524 0.0
H1000 H 0.80595 0.89196 0.40808 0.0
H1001 H 0.79511 0.86338 0.37013 0.0
H1002 H 0.77072 0.76588 0.36519 0.0
H1003 H 0.75851 0.81255 0.36617 0.0
H1004 H 0.83601 0.78259 0.52662 0.0
H1005 H 0.82797 0.82899 0.52767 0.0
H1006 H 0.85506 0.73997 0.4959 0.0
H1007 H 0.84557 0.71608 0.4555 0.0
C1008 C 0.97776 0.04704 0.19292 0.0
C1009 C 0.96778 0.06616 0.22558 0.0
C1010 C 0.02946 0.10071 0.2243 0.0
C1011 C 0.03721 0.08426 0.19031 0.0
N1012 N 0.02736 0.0325 0.14991 0.0
N1013 N 0.98249 0.11372 0.27065 0.0
C1014 C 0.01395 0.05435 0.17725 0.0
C1015 C 0.99356 0.09317 0.24131 0.0
N1016 N 0.95277 0.02255 0.17601 0.0
N1017 N 0.05686 0.12279 0.24044 0.0
H1018 H 0.95556 0.11076 0.2824 0.0
H1019 H -0.0015 0.13605 0.2814 0.0
H1020 H 0.08351 0.12711 0.22847 0.0
H1021 H 0.05485 0.133 0.26695 0.0
H1022 H 0.95606 0.0141 0.14899 0.0
H1023 H 0.92822 0.01105 0.18786 0.0
H1024 H 0.01375 0.00788 0.14115 0.0
H1025 H 0.05434 0.03731 0.13861 0.0
C1026 C 0.31779 0.78433 0.52842 0.0
C1027 C 0.28891 0.76069 0.54458 0.0
C1028 C 0.27212 0.81094 0.58597 0.0
C1029 C 0.30544 0.83086 0.575 0.0
N1030 N 0.34867 0.84611 0.52633 0.0
N1031 N 0.23371 0.7541 0.58452 0.0
C1032 C 0.3245 0.82079 0.54281 0.0
C1033 C 0.26424 0.77495 0.57177 0.0
N1034 N 0.34026 0.77125 0.50113 0.0
N1035 N 0.24811 0.8273 0.60993 0.0
H1036 H 0.22248 0.73054 0.5714 0.0
H1037 H 0.21913 0.76008 0.60845 0.0
H1038 H 0.25377 0.85417 0.61972 0.0
H1039 H 0.2216 0.81614 0.61765 0.0
H1040 H 0.36239 0.7866 0.48891 0.0
H1041 H 0.33848 0.74401 0.49176 0.0
H1042 H 0.36217 0.84183 0.50147 0.0
H1043 H 0.35242 0.87316 0.53607 0.0
C1044 C 0.03445 0.63841 0.31889 0.0
C1045 C 0.04203 0.60133 0.30993 0.0
C1046 C 0.9748 0.58422 0.31852 0.0
C1047 C 0.97044 0.61736 0.33778 0.0
N1048 N -0.00307 0.6767 0.35781 0.0
N1049 N 0.0182 0.53731 0.3038 0.0
C1050 C -9e-05 0.64542 0.33715 0.0
C1051 C 0.01179 0.57372 0.31 0.0
N1052 N 0.06071 0.66641 0.31203 0.0
N1053 N 0.9437 0.5615 0.31164 0.0
H1054 H 0.04457 0.52767 0.29741 0.0
H1055 H -0.00246 0.51616 0.30767 0.0
H1056 H 0.91655 0.56903 0.31931 0.0
H1057 H 0.94463 0.53765 0.29557 0.0
H1058 H 0.05476 0.69419 0.31501 0.0
H1059 H 0.08727 0.662 0.30067 0.0
H1060 H 0.01919 0.69629 0.36147 0.0
H1061 H 0.97315 0.6815 0.37372 0.0
C1062 C 0.49265 0.47673 0.80862 0.0
C1063 C 0.46 0.45229 0.81168 0.0
C1064 C 0.49692 0.4081 0.84353 0.0
C1065 C 0.52815 0.43399 0.84197 0.0
N1066 N 0.56116 0.48275 0.80999 0.0
N1067 N 0.43366 0.39054 0.82236 0.0
C1068 C 0.52795 0.46389 0.8184 0.0
C1069 C 0.46318 0.41612 0.8252 0.0
N1070 N 0.48981 0.51294 0.79976 0.0
N1071 N 0.49819 0.3785 0.86608 0.0
H1072 H 0.40797 0.39643 0.81046 0.0
H1073 H 0.43572 0.36293 0.82941 0.0
H1074 H 0.52256 0.37313 0.88052 0.0
H1075 H 0.47489 0.36075 0.87186 0.0
H1076 H 0.51259 0.5323 0.80084 0.0
H1077 H 0.46423 0.5244 0.7943 0.0
H1078 H 0.56301 0.50405 0.79108 0.0
H1079 H 0.587 0.47438 0.81989 0.0
C1080 C 0.91601 0.79962 0.7551 0.0
C1081 C 0.94688 0.81858 0.73719 0.0
C1082 C 0.95774 0.85775 0.79177 0.0
C1083 C 0.92493 0.84078 0.80711 0.0
N1084 N 0.88508 0.78594 0.81288 0.0
N1085 N 0.00289 0.86033 0.7416 0.0
C1086 C 0.90902 0.80776 0.79208 0.0
C1087 C 0.96983 0.84598 0.75652 0.0
N1088 N 0.8914 0.77636 0.73624 0.0
N1089 N 0.97713 0.88448 0.81156 0.0
H1090 H 0.01553 0.84965 0.71838 0.0
H1091 H 0.01933 0.88201 0.75288 0.0
H1092 H 0.9687 0.89141 0.83799 0.0
H1093 H 0.00151 0.89912 0.80285 0.0
H1094 H 0.86678 0.76437 0.74776 0.0
H1095 H 0.89294 0.77235 0.70812 0.0
H1096 H 0.87411 0.76008 0.80436 0.0
H1097 H 0.87987 0.7925 0.84019 0.0
C1098 C 0.92191 0.25394 0.46728 0.0
C1099 C 0.95598 0.24347 0.45022 0.0
C1100 C 0.97682 0.22048 0.50961 0.0
C1101 C 0.94261 0.23165 0.52566 0.0
N1102 N 0.89508 0.27564 0.52375 0.0
N1103 N 0.01311 0.20922 0.45451 0.0
C1104 C 0.91878 0.25333 0.50568 0.0
C1105 C 0.98308 0.22488 0.47132 0.0
N1106 N 0.89147 0.26227 0.44691 0.0
N1107 N 0.00237 0.20451 0.5315 0.0
H1108 H 0.01357 0.20341 0.42667 0.0
H1109 H 0.03571 0.19836 0.46799 0.0
H1110 H -0.00198 0.20289 0.55964 0.0
H1111 H 0.02819 0.19481 0.52291 0.0
H1112 H 0.86542 0.26801 0.45864 0.0
H1113 H 0.89081 0.2581 0.41875 0.0
H1114 H 0.87965 0.29518 0.51042 0.0
H1115 H 0.89496 0.27712 0.5522 0.0
C1116 C 0.58113 0.2585 0.25102 0.0
C1117 C 0.56026 0.23484 0.2267 0.0
C1118 C 0.56134 0.18603 0.27213 0.0
C1119 C 0.57679 0.21199 0.29783 0.0
N1120 N 0.58703 0.27597 0.31421 0.0
N1121 N 0.51999 0.17803 0.22086 0.0
C1122 C 0.58137 0.24941 0.2881 0.0
C1123 C 0.54698 0.19912 0.23901 0.0
N1124 N 0.60206 0.28863 0.23883 0.0
N1125 N 0.56237 0.14893 0.27784 0.0
H1126 H 0.5057 0.18637 0.19804 0.0
H1127 H 0.50827 0.1534 0.23151 0.0
H1128 H 0.57363 0.13787 0.30115 0.0
H1129 H 0.55482 0.1293 0.25786 0.0
H1130 H 0.61924 0.3051 0.25607 0.0
H1131 H 0.60619 0.29399 0.21116 0.0
H1132 H 0.58942 0.30408 0.3082 0.0
H1133 H 0.58389 0.26954 0.34173 0.0
C1134 C 0.58893 0.86226 0.9583 0.0
C1135 C 0.56813 0.82901 0.95215 0.0
C1136 C 0.56564 0.81604 0.01776 0.0
C1137 C 0.58212 0.85181 0.02421 0.0
N1138 N 0.61216 0.90785 0.00105 0.0
N1139 N 0.54685 0.76861 0.97315 0.0
C1140 C 0.59579 0.87383 0.99446 0.0
C1141 C 0.5602 0.80377 0.981 0.0
N1142 N 0.60258 0.88246 0.92928 0.0
N1143 N 0.55228 0.79545 0.04647 0.0
H1144 H 0.54276 0.759 0.94657 0.0
H1145 H 0.54284 0.74798 0.99247 0.0
H1146 H 0.55499 0.80464 0.07337 0.0
H1147 H 0.5371 0.77026 0.04389 0.0
H1148 H 0.62097 0.90569 0.93157 0.0
H1149 H 0.59795 0.87401 0.90233 0.0
H1150 H 0.61134 0.92901 0.98217 0.0
H1151 H 0.62337 0.91504 0.02638 0.0
C1152 C 0.99039 0.23025 0.772 0.0
C1153 C 0.97244 0.2586 0.79265 0.0
C1154 C 0.93912 0.27544 0.7375 0.0
C1155 C 0.95041 0.24289 0.71983 0.0
N1156 N -0.00047 0.20107 0.71242 0.0
N1157 N 0.92399 0.30372 0.79512 0.0
C1158 C 0.97967 0.22332 0.7349 0.0
C1159 C 0.94574 0.2805 0.77522 0.0
N1160 N 0.01717 0.20958 0.78747 0.0
N1161 N 0.92061 0.30071 0.71796 0.0
H1162 H 0.92442 0.30523 0.82348 0.0
H1163 H 0.90201 0.31793 0.78395 0.0
H1164 H 0.91594 0.29698 0.69007 0.0
H1165 H 0.91392 0.3265 0.72833 0.0
H1166 H 0.02616 0.18508 0.776 0.0
H1167 H 0.03045 0.21618 0.81196 0.0
H1168 H 0.02409 0.18844 0.71985 0.0
H1169 H 0.99312 0.19852 0.68476 0.0
C1170 C 0.51483 0.22531 0.50638 0.0
C1171 C 0.54062 0.22702 0.53607 0.0
C1172 C 0.58693 0.19525 0.49892 0.0
C1173 C 0.5607 0.19328 0.46983 0.0
N1174 N 0.50734 0.21781 0.44099 0.0
N1175 N 0.60442 0.22132 0.55781 0.0
C1176 C 0.5276 0.21303 0.47192 0.0
C1177 C 0.57804 0.2152 0.53116 0.0
N1178 N 0.47785 0.23386 0.51111 0.0
N1179 N 0.61828 0.17471 0.49728 0.0
H1180 H 0.59817 0.23305 0.58308 0.0
H1181 H 0.63308 0.21681 0.55394 0.0
H1182 H 0.62547 0.15986 0.47405 0.0
H1183 H 0.63586 0.17078 0.51938 0.0
H1184 H 0.4573 0.22888 0.49124 0.0
H1185 H 0.46698 0.24427 0.53532 0.0
H1186 H 0.484 0.23426 0.43995 0.0
H1187 H 0.51668 0.20795 0.41576 0.0
C1188 C 0.56044 0.85041 0.28092 0.0
C1189 C 0.5773 0.82182 0.30024 0.0
C1190 C 0.59271 0.79189 0.24266 0.0
C1191 C 0.57893 0.82201 0.22315 0.0
N1192 N 0.53321 0.86841 0.22363 0.0
N1193 N 0.62156 0.77346 0.29851 0.0
C1194 C 0.55784 0.84808 0.24224 0.0
C1195 C 0.597 0.79484 0.28078 0.0
N1196 N 0.54936 0.88095 0.29929 0.0
N1197 N 0.60099 0.76019 0.2245 0.0
H1198 H 0.62788 0.77767 0.32603 0.0
H1199 H 0.63895 0.75525 0.28498 0.0
H1200 H 0.59568 0.75682 0.19667 0.0
H1201 H 0.60869 0.73639 0.23773 0.0
H1202 H 0.53605 0.90223 0.28699 0.0
H1203 H 0.55786 0.88708 0.3259 0.0
H1204 H 0.51297 0.88386 0.23666 0.0
H1205 H 0.52927 0.86499 0.19563 0.0
C1206 C 0.97029 0.83488 0.00926 0.0
C1207 C 0.95255 0.84147 0.04351 0.0
C1208 C 0.91203 0.8857 0.01555 0.0
C1209 C 0.93053 0.87909 0.98184 0.0
N1210 N 0.96636 0.8398 0.94359 0.0
N1211 N 0.9056 0.87114 0.08 0.0
C1212 C 0.95584 0.85079 0.97773 0.0
C1213 C 0.92251 0.86586 0.0468 0.0
N1214 N 0.00274 0.81601 0.00717 0.0
N1215 N 0.88481 0.91125 0.01708 0.0
H1216 H 0.91371 0.8577 0.10347 0.0
H1217 H 0.88344 0.88844 0.08472 0.0
H1218 H 0.8755 0.92409 0.99369 0.0
H1219 H 0.87079 0.91928 0.04064 0.0
H1220 H 0.01868 0.81357 0.98332 0.0
H1221 H 0.01558 0.80534 0.02988 0.0
H1222 H 0.9823 0.8168 0.93859 0.0
H1223 H 0.95548 0.85159 0.92028 0.0
C1224 C 0.71332 0.94817 0.797 0.0
C1225 C 0.71155 0.98497 0.8098 0.0
C1226 C 0.77503 0.98129 0.83627 0.0
C1227 C 0.77414 0.94365 0.8254 0.0
N1228 N 0.75665 0.90436 0.77415 0.0
N1229 N 0.7472 0.0408 0.82875 0.0
C1230 C 0.74792 0.93137 0.7986 0.0
C1231 C 0.74431 0.00311 0.82589 0.0
N1232 N 0.68204 0.92869 0.78422 0.0
N1233 N 0.80557 0.99644 0.85441 0.0
H1234 H 0.72649 0.05785 0.81964 0.0
H1235 H 0.77159 0.0557 0.83702 0.0
H1236 H 0.83021 0.98242 0.85787 0.0
H1237 H 0.80691 0.02304 0.8654 0.0
H1238 H 0.68269 0.90088 0.7766 0.0
H1239 H 0.65491 0.93881 0.78526 0.0
H1240 H 0.7388 0.89628 0.75271 0.0
H1241 H 0.78365 0.89383 0.7729 0.0
C1242 C 0.83228 0.0372 0.51941 0.0
C1243 C 0.80581 0.01741 0.54219 0.0
C1244 C 0.80107 0.07291 0.58083 0.0
C1245 C 0.8281 0.09179 0.55845 0.0
N1246 N 0.85657 0.0974 0.49922 0.0
N1247 N 0.75472 0.02189 0.58655 0.0
C1248 C 0.83821 0.07583 0.52468 0.0
C1249 C 0.78691 0.03683 0.57055 0.0
N1250 N 0.85412 0.019 0.49484 0.0
N1251 N 0.79004 0.08904 0.61252 0.0
H1252 H 0.7416 -0.00311 0.57834 0.0
H1253 H 0.73849 0.03632 0.60519 0.0
H1254 H 0.79828 0.11637 0.61849 0.0
H1255 H 0.77411 0.0752 0.63262 0.0
H1256 H 0.8759 0.03214 0.47981 0.0
H1257 H 0.85383 0.99028 0.4926 0.0
H1258 H 0.86287 0.08797 0.47303 0.0
H1259 H 0.8619 0.12572 0.50367 0.0
C1260 C 0.75726 0.05751 0.32972 0.0
C1261 C 0.78957 0.07708 0.31359 0.0
C1262 C 0.7458 0.11859 0.28743 0.0
C1263 C 0.71808 0.10887 0.31387 0.0
N1264 N 0.69259 0.06132 0.35328 0.0
N1265 N 0.8124 0.1327 0.28225 0.0
C1266 C 0.72225 0.07591 0.33334 0.0
C1267 C 0.78317 0.10965 0.29395 0.0
N1268 N 0.75852 0.02104 0.33834 0.0
N1269 N 0.73676 0.13838 0.25763 0.0
H1270 H 0.84042 0.12943 0.28984 0.0
H1271 H 0.80787 0.15741 0.26896 0.0
H1272 H 0.70874 0.14459 0.25245 0.0
H1273 H 0.75639 0.14483 0.23696 0.0
H1274 H 0.73449 0.00486 0.3455 0.0
H1275 H 0.7824 0.00572 0.33503 0.0
H1276 H 0.69456 0.03852 0.37004 0.0
H1277 H 0.66576 0.072 0.35235 0.0
C1278 C 0.65843 0.04849 0.03179 0.0
C1279 C 0.68529 0.06868 0.05334 0.0
C1280 C 0.6904 0.01328 0.09109 0.0
C1281 C 0.66645 0.99306 0.06645 0.0
N1282 N 0.65054 0.98908 0.00342 0.0
N1283 N 0.73482 0.06563 0.09901 0.0
C1284 C 0.6571 0.00995 0.03371 0.0
C1285 C 0.70372 0.04998 0.08195 0.0
N1286 N 0.63463 0.06561 0.00907 0.0
N1287 N 0.70035 -0.00228 0.12301 0.0
H1288 H 0.74699 0.09151 0.0929 0.0
H1289 H 0.75094 0.05117 0.11716 0.0
H1290 H 0.69406 0.97 0.12854 0.0
H1291 H 0.71392 0.01263 0.14398 0.0
H1292 H 0.61404 0.05076 0.99392 0.0
H1293 H 0.63264 0.09427 0.00889 0.0
H1294 H 0.64448 0.00051 0.97827 0.0
H1295 H 0.65954 0.96216 0.00287 0.0
C1296 C 0.72267 0.13242 0.69737 0.0
C1297 C 0.72556 0.10156 0.71987 0.0
C1298 C 0.79451 0.10358 0.71193 0.0
C1299 C 0.79134 0.13432 0.68899 0.0
N1300 N 0.75177 0.16838 0.64904 0.0
N1301 N 0.76167 0.05083 0.74014 0.0
C1302 C 0.75503 0.14534 0.678 0.0
C1303 C 0.76072 0.08477 0.72446 0.0
N1304 N 0.68952 0.15029 0.69552 0.0
N1305 N 0.82924 0.09348 0.72306 0.0
H1306 H 0.73724 0.03628 0.74909 0.0
H1307 H 0.78603 0.03582 0.74118 0.0
H1308 H 0.85447 0.1063 0.71374 0.0
H1309 H 0.83287 0.07373 0.74298 0.0
H1310 H 0.68749 0.17563 0.68268 0.0
H1311 H 0.6649 0.14151 0.70948 0.0
H1312 H 0.72577 0.17497 0.63829 0.0
H1313 H 0.7751 0.17759 0.63336 0.0
C1314 C 0.65965 0.00622 0.49862 0.0
C1315 C 0.68946 0.99302 0.47668 0.0
C1316 C 0.69773 0.0542 0.44833 0.0
C1317 C 0.66461 0.06431 0.46649 0.0
N1318 N 0.63064 0.06032 0.52315 0.0
N1319 N 0.73693 0.00485 0.42881 0.0
C1320 C 0.65119 0.04364 0.49658 0.0
C1321 C 0.70884 0.0171 0.45106 0.0
N1322 N 0.63798 0.98253 0.51984 0.0
N1323 N 0.71957 0.08075 0.43082 0.0
H1324 H 0.74448 0.97766 0.42642 0.0
H1325 H 0.75122 0.02125 0.40965 0.0
H1326 H 0.71334 0.10859 0.43225 0.0
H1327 H 0.74589 0.07647 0.41904 0.0
H1328 H 0.61405 0.99054 0.53412 0.0
H1329 H 0.64138 0.95407 0.51983 0.0
H1330 H 0.62253 0.04739 0.54742 0.0
H1331 H 0.62579 0.08854 0.52224 0.0
C1332 C 0.74895 0.9878 0.2301 0.0
C1333 C 0.78259 0.96818 0.22531 0.0
C1334 C 0.74973 0.92533 0.18477 0.0
C1335 C 0.71457 0.9389 0.19682 0.0
N1336 N 0.68014 0.98387 0.23047 0.0
N1337 N 0.81398 0.91512 0.20193 0.0
C1338 C 0.71383 0.97072 0.21913 0.0
C1339 C 0.78286 0.9361 0.20357 0.0
N1340 N 0.75086 0.02296 0.24378 0.0
N1341 N 0.75116 0.90207 0.15532 0.0
H1342 H 0.83903 0.92217 0.21575 0.0
H1343 H 0.81355 0.88911 0.18944 0.0
H1344 H 0.72741 0.89572 0.13937 0.0
H1345 H 0.77646 0.89299 0.14442 0.0
H1346 H 0.72765 0.03959 0.24527 0.0
H1347 H 0.77664 0.03671 0.2497 0.0
H1348 H 0.67814 0.00502 0.24976 0.0
H1349 H 0.65416 0.9722 0.22174 0.0
C1350 C 0.78322 0.05422 0.94411 0.0
C1351 C 0.80244 0.08119 0.96703 0.0
C1352 C 0.84768 0.03548 0.9836 0.0
C1353 C 0.83246 0.01098 0.95667 0.0
N1354 N 0.77424 0.989 0.92891 0.0
N1355 N 0.8574 0.09885 0.00311 0.0
C1356 C 0.79684 0.01785 0.9417 0.0
C1357 C 0.83581 0.07206 0.98541 0.0
N1358 N 0.75253 0.06292 0.92409 0.0
N1359 N 0.8718 0.02281 0.00897 0.0
H1360 H 0.85125 0.12673 0.00278 0.0
H1361 H 0.88367 0.09406 0.01436 0.0
H1362 H 0.87818 0.995 0.01005 0.0
H1363 H 0.88112 0.03849 0.03142 0.0
H1364 H 0.74069 0.04547 0.9041 0.0
H1365 H 0.74035 0.08838 0.92463 0.0
H1366 H 0.74641 0.99153 0.9206 0.0
H1367 H 0.7813 0.96158 0.93154 0.0
C1368 C 0.77905 0.75278 0.9232 0.0
C1369 C 0.7985 0.73688 0.95236 0.0
C1370 C 0.83508 0.79612 0.96072 0.0
C1371 C 0.81424 0.81169 0.93267 0.0
N1372 N 0.75677 0.80916 0.89819 0.0
N1373 N 0.83909 0.74824 0.00539 0.0
C1374 C 0.78281 0.79134 0.91784 0.0
C1375 C 0.82524 0.75964 0.97289 0.0
N1376 N 0.75801 0.73091 0.89964 0.0
N1377 N 0.86413 0.81645 0.97601 0.0
H1378 H 0.83272 0.72285 0.01725 0.0
H1379 H 0.85465 0.76568 0.02302 0.0
H1380 H 0.86735 0.84455 0.97119 0.0
H1381 H 0.88449 0.80552 0.99258 0.0
H1382 H 0.74553 0.74112 0.87643 0.0
H1383 H 0.75694 0.70211 0.90087 0.0
H1384 H 0.73162 0.79622 0.88892 0.0
H1385 H 0.75865 0.83782 0.89504 0.0
C1386 C 0.32047 0.80111 0.03104 0.0
C1387 C 0.32018 0.83582 0.04964 0.0
C1388 C 0.34803 0.80787 0.1025 0.0
C1389 C 0.33744 0.77258 0.08826 0.0
N1390 N 0.32006 0.73406 0.03722 0.0
N1391 N 0.33574 0.87295 0.10286 0.0
C1392 C 0.32668 0.76867 0.05148 0.0
C1393 C 0.33542 0.8396 0.08509 0.0
N1394 N 0.31332 0.79907 0.99458 0.0
N1395 N 0.36886 0.81045 0.13356 0.0
H1396 H 0.3283 0.89718 0.09017 0.0
H1397 H 0.34174 0.87614 0.13049 0.0
H1398 H 0.37889 0.78684 0.14547 0.0
H1399 H 0.37933 0.83541 0.14473 0.0
H1400 H 0.31556 0.77506 0.97907 0.0
H1401 H 0.30813 0.82222 0.97916 0.0
H1402 H 0.30839 0.72871 0.01167 0.0
H1403 H 0.32584 0.71048 0.05191 0.0
C1404 C 0.98186 0.5267 0.82999 0.0
C1405 C 0.96954 0.54389 0.79783 0.0
C1406 C 0.03132 0.57867 0.7934 0.0
C1407 C 0.04076 0.56465 0.82759 0.0
N1408 N 0.03533 0.51321 0.86791 0.0
N1409 N 0.98781 0.57616 0.74239 0.0
C1410 C 0.01971 0.5337 0.84147 0.0
C1411 C -0.00402 0.56677 0.7773 0.0
N1412 N 0.95689 0.50647 0.8514 0.0
N1413 N 0.05605 0.60337 0.77685 0.0
H1414 H 0.96336 0.56651 0.7291 0.0
H1415 H 0.00641 0.59104 0.72533 0.0
H1416 H 0.08279 0.60998 0.78759 0.0
H1417 H 0.05032 0.6174 0.7531 0.0
H1418 H 0.96399 0.49631 0.87675 0.0
H1419 H 0.92804 0.50308 0.84596 0.0
H1420 H 0.0226 0.48872 0.87781 0.0
H1421 H 0.06291 0.5193 0.877 0.0
C1422 C 0.22496 0.27461 0.55545 0.0
C1423 C 0.20138 0.24305 0.56491 0.0
C1424 C 0.15771 0.28336 0.59637 0.0
C1425 C 0.18254 0.31403 0.5879 0.0
N1426 N 0.22916 0.34118 0.54799 0.0
N1427 N 0.14312 0.2171 0.59068 0.0
C1428 C 0.21205 0.31019 0.56278 0.0
C1429 C 0.16651 0.24742 0.58361 0.0
N1430 N 0.26058 0.27096 0.5416 0.0
N1431 N 0.12707 0.28877 0.61825 0.0
H1432 H 0.1502 0.19027 0.58381 0.0
H1433 H 0.11639 0.21822 0.60257 0.0
H1434 H 0.12009 0.31518 0.62635 0.0
H1435 H 0.10877 0.26787 0.62825 0.0
H1436 H 0.27998 0.29324 0.53796 0.0
H1437 H 0.27213 0.24567 0.5363 0.0
H1438 H 0.24978 0.34049 0.52758 0.0
H1439 H 0.21966 0.36743 0.55416 0.0
C1440 C -0.00084 0.99035 0.78126 0.0
C1441 C 0.02483 0.01413 0.80172 0.0
C1442 C 0.97311 0.02633 0.84369 0.0
C1443 C 0.95341 0.99401 0.83111 0.0
N1444 N 0.94161 0.95037 0.78268 0.0
N1445 N 0.03549 0.05297 0.85541 0.0
C1446 C 0.96428 0.97781 0.79784 0.0
C1447 C 0.0114 0.0325 0.83334 0.0
N1448 N 0.00715 0.98118 0.74592 0.0
N1449 N 0.95605 0.04863 0.86837 0.0
H1450 H 0.06476 0.05485 0.8516 0.0
H1451 H 0.02693 0.0644 0.88014 0.0
H1452 H 0.92806 0.04298 0.87684 0.0
H1453 H 0.96826 0.07392 0.87716 0.0
H1454 H 0.98841 0.96594 0.72922 0.0
H1455 H 0.03063 0.99223 0.73178 0.0
H1456 H 0.94939 0.9347 0.76013 0.0
H1457 H 0.91499 0.94292 0.79355 0.0
C1458 C 0.69969 0.28563 0.48405 0.0
C1459 C 0.69489 0.31783 0.463 0.0
C1460 C 0.66507 0.28045 0.41492 0.0
C1461 C 0.67463 0.24792 0.4336 0.0
N1462 N 0.70302 0.21881 0.48439 0.0
N1463 N 0.66675 0.34762 0.4126 0.0
C1464 C 0.69199 0.25022 0.46806 0.0
C1465 C 0.67575 0.31574 0.42954 0.0
N1466 N 0.71054 0.289 0.51958 0.0
N1467 N 0.64713 0.27716 0.38224 0.0
H1468 H 0.67416 0.37388 0.423 0.0
H1469 H 0.65028 0.34872 0.38937 0.0
H1470 H 0.63517 0.25202 0.37316 0.0
H1471 H 0.64431 0.29862 0.36407 0.0
H1472 H 0.7116 0.26681 0.53726 0.0
H1473 H 0.71497 0.31454 0.53243 0.0
H1474 H 0.7201 0.21888 0.50736 0.0
H1475 H 0.69684 0.19248 0.47353 0.0
C1476 C 0.96593 0.43816 0.68826 0.0
C1477 C 0.95348 0.47503 0.68348 0.0
C1478 C 0.01917 0.49526 0.67152 0.0
C1479 C 0.02897 0.45858 0.66613 0.0
N1480 N 0.01041 0.39385 0.66708 0.0
N1481 N 0.96956 0.53459 0.65569 0.0
C1482 C 0.00239 0.42958 0.67489 0.0
C1483 C 0.98051 0.50273 0.67117 0.0
N1484 N 0.94401 0.41086 0.70458 0.0
N1485 N 0.04665 0.52298 0.6711 0.0
H1486 H 0.94166 0.53832 0.64803 0.0
H1487 H 0.98893 0.55443 0.64515 0.0
H1488 H 0.07531 0.51725 0.66929 0.0
H1489 H 0.04072 0.55057 0.67586 0.0
H1490 H 0.9554 0.38642 0.71322 0.0
H1491 H 0.91531 0.41167 0.71027 0.0
H1492 H 0.99009 0.37201 0.66801 0.0
H1493 H 0.03691 0.38652 0.65762 0.0
C1494 C 0.54714 0.63676 0.16653 0.0
C1495 C 0.54204 0.6122 0.19593 0.0
C1496 C 0.47321 0.6134 0.19112 0.0
C1497 C 0.47869 0.63462 0.15945 0.0
N1498 N 0.51741 0.67807 0.1251 0.0
N1499 N 0.50188 0.58789 0.24438 0.0
C1500 C 0.5147 0.65069 0.1504 0.0
C1501 C 0.50546 0.60424 0.21115 0.0
N1502 N 0.58252 0.64464 0.15257 0.0
N1503 N 0.4376 0.60026 0.20034 0.0
H1504 H 0.52536 0.58274 0.26008 0.0
H1505 H 0.47612 0.58297 0.25787 0.0
H1506 H 0.41383 0.60812 0.18625 0.0
H1507 H 0.4318 0.58112 0.22085 0.0
H1508 H 0.5873 0.65838 0.12808 0.0
H1509 H 0.60703 0.63547 0.16448 0.0
H1510 H 0.54259 0.69287 0.11884 0.0
H1511 H 0.49331 0.68814 0.11312 0.0
C1512 C 0.56351 0.71577 0.79295 0.0
C1513 C 0.53234 0.73753 0.78616 0.0
C1514 C 0.54355 0.73355 0.72055 0.0
C1515 C 0.57557 0.71278 0.72753 0.0
N1516 N 0.6055 0.67114 0.76831 0.0
N1517 N 0.48469 0.75612 0.74445 0.0
C1518 C 0.582 0.69951 0.76315 0.0
C1519 C 0.51936 0.74231 0.75018 0.0
N1520 N 0.57625 0.7117 0.82767 0.0
N1521 N 0.53763 0.74702 0.68658 0.0
H1522 H 0.46674 0.76346 0.76573 0.0
H1523 H 0.47235 0.75691 0.71883 0.0
H1524 H 0.55533 0.74224 0.66437 0.0
H1525 H 0.51647 0.76501 0.68086 0.0
H1526 H 0.6021 0.70046 0.83347 0.0
H1527 H 0.56183 0.72132 0.85055 0.0
H1528 H 0.60929 0.65903 0.79356 0.0
H1529 H 0.61773 0.65694 0.74666 0.0
C1530 C 0.57444 0.31483 0.03338 0.0
C1531 C 0.5567 0.33624 0.06082 0.0
C1532 C 0.52475 0.36922 0.01394 0.0
C1533 C 0.5468 0.3524 0.98678 0.0
N1534 N 0.57354 0.29569 0.96988 0.0
N1535 N 0.52683 0.3934 0.07498 0.0
C1536 C 0.56664 0.32126 0.99609 0.0
C1537 C 0.53524 0.36632 0.05052 0.0
N1538 N 0.60019 0.28986 0.0429 0.0
N1539 N 0.49391 0.38807 0.00447 0.0
H1540 H 0.53899 0.39514 0.10078 0.0
H1541 H 0.51264 0.41675 0.06765 0.0
H1542 H 0.48495 0.38883 0.97744 0.0
H1543 H 0.47545 0.39882 0.02374 0.0
H1544 H 0.61477 0.27428 0.02397 0.0
H1545 H 0.60982 0.28784 0.06957 0.0
H1546 H 0.58241 0.26948 0.97597 0.0
H1547 H 0.56443 0.29898 0.94319 0.0
C1548 C 0.98178 0.36304 0.24795 0.0
C1549 C 0.9686 0.37597 0.28224 0.0
C1550 C 0.91886 0.40763 0.2515 0.0
C1551 C 0.92459 0.38508 0.22053 0.0
N1552 N 0.96437 0.34605 0.18574 0.0
N1553 N 0.92973 0.41669 0.31634 0.0
C1554 C 0.95774 0.36513 0.21721 0.0
C1555 C 0.9392 0.401 0.28376 0.0
N1556 N 0.01637 0.34805 0.24511 0.0
N1557 N 0.89255 0.43385 0.25007 0.0
H1558 H 0.94562 0.41317 0.33981 0.0
H1559 H 0.90609 0.43237 0.32027 0.0
H1560 H 0.87778 0.43819 0.22612 0.0
H1561 H 0.88792 0.45287 0.27089 0.0
H1562 H 0.02859 0.34063 0.22034 0.0
H1563 H 0.03438 0.34623 0.26726 0.0
H1564 H 0.98607 0.32786 0.18246 0.0
H1565 H 0.94716 0.34829 0.16297 0.0
C1566 C 0.92802 0.75621 0.53213 0.0
C1567 C 0.93215 0.7328 0.56245 0.0
C1568 C 0.93035 0.67877 0.52239 0.0
C1569 C 0.9329 0.7027 0.49144 0.0
N1570 N 0.93802 0.76453 0.46731 0.0
N1571 N 0.92298 0.67252 0.58786 0.0
C1572 C 0.9326 0.74157 0.49641 0.0
C1573 C 0.9294 0.6942 0.5579 0.0
N1574 N 0.91755 0.79168 0.5373 0.0
N1575 N 0.92905 0.64119 0.5182 0.0
H1576 H 0.9193 0.68382 0.61387 0.0
H1577 H 0.91746 0.64406 0.58695 0.0
H1578 H 0.91956 0.62752 0.49479 0.0
H1579 H 0.93704 0.62325 0.53842 0.0
H1580 H 0.91199 0.80937 0.51605 0.0
H1581 H 0.90843 0.80153 0.56248 0.0
H1582 H 0.94166 0.79314 0.46985 0.0
H1583 H 0.94242 0.75488 0.44082 0.0
C1584 C 0.55874 0.36219 0.72385 0.0
C1585 C 0.55009 0.3248 0.71376 0.0
C1586 C 0.5545 0.30663 0.77792 0.0
C1587 C 0.56856 0.34253 0.78672 0.0
N1588 N 0.58642 0.40473 0.76874 0.0
N1589 N 0.54417 0.26009 0.7313 0.0
C1590 C 0.57059 0.37064 0.76003 0.0
C1591 C 0.54911 0.29657 0.74081 0.0
N1592 N 0.5566 0.3895 0.69863 0.0
N1593 N 0.54674 0.28215 0.80539 0.0
H1594 H 0.54089 0.25058 0.70477 0.0
H1595 H 0.54678 0.23852 0.74948 0.0
H1596 H 0.54986 0.2898 0.83275 0.0
H1597 H 0.53356 0.25608 0.80157 0.0
H1598 H 0.55795 0.41755 0.70528 0.0
H1599 H 0.55175 0.38418 0.67105 0.0
H1600 H 0.59344 0.42507 0.7497 0.0
H1601 H 0.59437 0.41209 0.7952 0.0
C1602 C 0.00459 0.35592 0.00299 0.0
C1603 C 0.97664 0.33815 0.98013 0.0
C1604 C 0.93238 0.33706 0.03193 0.0
C1605 C 0.95587 0.36379 0.04982 0.0
N1606 N 0.01643 0.39627 0.05519 0.0
N1607 N 0.91238 0.31267 0.97338 0.0
C1608 C 0.99299 0.37189 0.03645 0.0
C1609 C 0.94024 0.32826 0.99495 0.0
N1610 N 0.0422 0.35616 0.99386 0.0
N1611 N 0.90241 0.32071 0.05013 0.0
H1612 H 0.91548 0.30901 0.94534 0.0
H1613 H 0.88492 0.30674 0.98273 0.0
H1614 H 0.89677 0.32691 0.07741 0.0
H1615 H 0.88652 0.29816 0.03956 0.0
H1616 H 0.06363 0.36622 0.01114 0.0
H1617 H 0.05265 0.34236 0.9712 0.0
H1618 H 0.04195 0.40738 0.04468 0.0
H1619 H 0.00905 0.40653 0.08082 0.0
C1620 C 0.94165 0.69527 0.22185 0.0
C1621 C 0.94778 0.73351 0.21451 0.0
C1622 C 0.94338 0.74782 0.28009 0.0
C1623 C 0.93231 0.7106 0.28654 0.0
N1624 N 0.92085 0.64819 0.26528 0.0
N1625 N 0.95109 0.79714 0.23656 0.0
C1626 C 0.93241 0.68395 0.25795 0.0
C1627 C 0.94786 0.76012 0.24361 0.0
N1628 N 0.94337 0.66997 0.19402 0.0
N1629 N 0.94853 0.77143 0.30913 0.0
H1630 H 0.95411 0.80802 0.21066 0.0
H1631 H 0.94782 0.81771 0.25617 0.0
H1632 H 0.94575 0.76243 0.33597 0.0
H1633 H 0.95912 0.79865 0.30714 0.0
H1634 H 0.94342 0.64156 0.19779 0.0
H1635 H 0.9458 0.67744 0.1667 0.0
H1636 H 0.91592 0.6277 0.2456 0.0
H1637 H 0.91465 0.63931 0.2917 0.0
C1638 C 0.57634 0.7422 0.50085 0.0
C1639 C 0.56356 0.72458 0.46775 0.0
C1640 C 0.55102 0.66764 0.4997 0.0
C1641 C 0.56969 0.68159 0.53153 0.0
N1642 N 0.58987 0.7363 0.56569 0.0
N1643 N 0.55253 0.66762 0.43446 0.0
C1644 C 0.58013 0.72019 0.53312 0.0
C1645 C 0.55608 0.6863 0.46684 0.0
N1646 N 0.58461 0.77949 0.50142 0.0
N1647 N 0.52454 0.63897 0.5015 0.0
H1648 H 0.55757 0.6805 0.40943 0.0
H1649 H 0.54879 0.63888 0.43315 0.0
H1650 H 0.51396 0.62884 0.52628 0.0
H1651 H 0.50897 0.62974 0.47885 0.0
H1652 H 0.59636 0.79419 0.52335 0.0
H1653 H 0.58102 0.79633 0.47908 0.0
H1654 H 0.59548 0.76442 0.56962 0.0
H1655 H 0.58881 0.72221 0.59015 0.0
C1656 C 0.74609 0.56663 0.72333 0.0
C1657 C 0.77796 0.56652 0.69926 0.0
C1658 C 0.74505 0.60496 0.65649 0.0
C1659 C 0.71495 0.60744 0.68207 0.0
N1660 N 0.67981 0.58042 0.73165 0.0
N1661 N 0.8027 0.57543 0.63838 0.0
C1662 C 0.71301 0.58413 0.71245 0.0
C1663 C 0.77546 0.58181 0.664 0.0
N1664 N 0.74806 0.5519 0.75729 0.0
N1665 N 0.74605 0.62727 0.62673 0.0
H1666 H 0.82608 0.55988 0.64361 0.0
H1667 H 0.80063 0.58312 0.61125 0.0
H1668 H 0.724 0.64434 0.62088 0.0
H1669 H 0.76911 0.63014 0.60896 0.0
H1670 H 0.72713 0.5543 0.77719 0.0
H1671 H 0.7718 0.53906 0.76644 0.0
H1672 H 0.67507 0.56151 0.75257 0.0
H1673 H 0.6558 0.59395 0.72372 0.0
C1674 C 0.69837 0.52643 0.99044 0.0
C1675 C 0.69835 0.55681 0.96582 0.0
C1676 C 0.67415 0.51536 0.9176 0.0
C1677 C 0.67277 0.48563 0.94271 0.0
N1678 N 0.69413 0.4596 -0.00224 0.0
N1679 N 0.69204 0.57927 0.90455 0.0
C1680 C 0.6888 0.49017 0.97736 0.0
C1681 C 0.68882 0.55078 0.92875 0.0
N1682 N 0.70636 0.53211 0.02648 0.0
N1683 N 0.65766 0.51037 0.88425 0.0
H1684 H 0.69807 0.60668 0.91228 0.0
H1685 H 0.69025 0.57566 0.87644 0.0
H1686 H 0.64684 0.48469 0.8753 0.0
H1687 H 0.65261 0.5316 0.86632 0.0
H1688 H 0.70253 0.51175 0.04614 0.0
H1689 H 0.71526 0.55754 0.03747 0.0
H1690 H 0.70881 0.4602 0.02225 0.0
H1691 H 0.68699 0.43302 0.98792 0.0
C1692 C 0.73917 0.4954 0.22201 0.0
C1693 C 0.70891 0.49505 0.19646 0.0
C1694 C 0.74791 0.46251 0.15228 0.0
C1695 C 0.77757 0.46309 0.17815 0.0
N1696 N 0.80671 0.49139 0.23077 0.0
N1697 N 0.68734 0.48556 0.13475 0.0
C1698 C 0.77489 0.4833 0.21081 0.0
C1699 C 0.71434 0.48124 0.16058 0.0
N1700 N 0.73377 0.50602 0.25737 0.0
N1701 N 0.75139 0.4429 0.1205 0.0
H1702 H 0.66174 0.49768 0.1404 0.0
H1703 H 0.69123 0.47931 0.10727 0.0
H1704 H 0.77631 0.43043 0.11295 0.0
H1705 H 0.72928 0.43768 0.10232 0.0
H1706 H 0.75376 0.50303 0.27768 0.0
H1707 H 0.70833 0.51515 0.2673 0.0
H1708 H 0.80734 0.50933 0.25316 0.0
H1709 H 0.8334 0.48367 0.2221 0.0
C1710 C 0.8069 0.51147 0.4277 0.0
C1711 C 0.79496 0.50588 0.46427 0.0
C1712 C 0.80793 0.57205 0.4779 0.0
C1713 C 0.82492 0.57607 0.44331 0.0
N1714 N 0.84107 0.55106 0.38445 0.0
N1715 N 0.78489 0.53051 0.52512 0.0
C1716 C 0.82362 0.54638 0.41763 0.0
C1717 C 0.79534 0.53617 0.48961 0.0
N1718 N 0.80333 0.4831 0.40288 0.0
N1719 N 0.80428 0.60271 0.49942 0.0
H1720 H 0.77444 0.50516 0.53483 0.0
H1721 H 0.78821 0.55042 0.54562 0.0
H1722 H 0.8135 0.62903 0.49073 0.0
H1723 H 0.7893 0.60279 0.52397 0.0
H1724 H 0.8075 0.48636 0.37499 0.0
H1725 H 0.79434 0.45624 0.40983 0.0
H1726 H 0.84637 0.5296 0.36634 0.0
H1727 H 0.85197 0.57669 0.37554 0.0
C1728 C 0.77681 0.45979 0.83932 0.0
C1729 C 0.78039 0.46556 0.80132 0.0
C1730 C 0.71146 0.45945 0.79473 0.0
C1731 C 0.70862 0.44765 0.83089 0.0
N1732 N 0.73646 0.43824 0.88928 0.0
N1733 N 0.75134 0.46747 0.74157 0.0
C1734 C 0.74064 0.44962 0.85403 0.0
C1735 C 0.74779 0.46455 0.77857 0.0
N1736 N 0.80824 0.46252 0.86088 0.0
N1737 N 0.67911 0.46498 0.77593 0.0
H1738 H 0.77706 0.47191 0.72805 0.0
H1739 H 0.72875 0.46303 0.72378 0.0
H1740 H 0.65244 0.46116 0.78819 0.0
H1741 H 0.67885 0.47683 0.7502 0.0
H1742 H 0.80735 0.46214 0.8892 0.0
H1743 H 0.83568 0.46624 0.85037 0.0
H1744 H 0.75869 0.43451 0.90703 0.0
H1745 H 0.70996 0.43107 0.90041 0.0
C1746 C 0.79867 0.53834 0.04021 0.0
C1747 C 0.79925 0.56914 0.06481 0.0
C1748 C 0.83411 0.53359 0.10847 0.0
C1749 C 0.83466 0.50412 0.08281 0.0
N1750 N 0.80409 0.47213 0.03335 0.0
N1751 N 0.80778 0.59194 0.12633 0.0
C1752 C 0.81137 0.50426 0.05225 0.0
C1753 C 0.81316 0.56516 0.10061 0.0
N1754 N 0.78859 0.54192 0.00469 0.0
N1755 N 0.85624 0.53256 0.13865 0.0
H1756 H 0.79381 0.61593 0.12075 0.0
H1757 H 0.81463 0.58901 0.15365 0.0
H1758 H 0.8716 0.50952 0.1445 0.0
H1759 H 0.86058 0.55474 0.15666 0.0
H1760 H 0.79142 0.52112 0.98516 0.0
H1761 H 0.78027 0.5665 0.99392 0.0
H1762 H 0.78498 0.46977 0.01187 0.0
H1763 H 0.81451 0.44725 0.0421 0.0
C1764 C 0.74746 0.59542 0.27637 0.0
C1765 C 0.71392 0.59391 0.29847 0.0
C1766 C 0.75106 0.61193 0.35216 0.0
C1767 C 0.78373 0.61579 0.32953 0.0
N1768 N 0.81631 0.60196 0.27411 0.0
N1769 N 0.68337 0.59789 0.35739 0.0
C1770 C 0.78293 0.60419 0.2929 0.0
C1771 C 0.71572 0.60063 0.33657 0.0
N1772 N 0.74546 0.58933 0.23957 0.0
N1773 N 0.75385 0.62207 0.38807 0.0
H1774 H 0.65634 0.59402 0.34641 0.0
H1775 H 0.68282 0.59899 0.38569 0.0
H1776 H 0.77987 0.62928 0.39996 0.0
H1777 H 0.73113 0.62402 0.40602 0.0
H1778 H 0.76787 0.59499 0.22159 0.0
H1779 H 0.72106 0.57968 0.22627 0.0
H1780 H 0.81859 0.59085 0.24797 0.0
H1781 H 0.84243 0.60807 0.28635 0.0
C1782 C 0.69407 0.52356 0.54212 0.0
C1783 C 0.69293 0.49122 0.56388 0.0
C1784 C 0.67273 0.52675 0.61667 0.0
C1785 C 0.67387 0.55861 0.59458 0.0
N1786 N 0.69933 0.5903 0.54191 0.0
N1787 N 0.68713 0.46241 0.62285 0.0
C1788 C 0.68931 0.55802 0.55919 0.0
C1789 C 0.68458 0.49302 0.60169 0.0
N1790 N 0.69893 0.52167 0.50516 0.0
N1791 N 0.65844 0.52874 0.65133 0.0
H1792 H 0.69256 0.43638 0.61214 0.0
H1793 H 0.6854 0.46298 0.65117 0.0
H1794 H 0.65121 0.55376 0.66321 0.0
H1795 H 0.65253 0.50591 0.66776 0.0
H1796 H 0.69551 0.54405 0.48811 0.0
H1797 H 0.70337 0.49746 0.49075 0.0
H1798 H 0.71404 0.59133 0.51718 0.0
H1799 H 0.69723 0.61611 0.55434 0.0
C1800 C 0.72057 0.79246 0.54766 0.0
C1801 C 0.70363 0.82494 0.56036 0.0
C1802 C 0.66387 0.78922 0.60282 0.0
C1803 C 0.68455 0.75763 0.59359 0.0
N1804 N 0.73352 0.72861 0.55926 0.0
N1805 N 0.65156 0.85324 0.59022 0.0
C1806 C 0.71278 0.75885 0.56612 0.0
C1807 C 0.67281 0.82304 0.58499 0.0
N1808 N 0.74259 0.79357 0.51691 0.0
N1809 N 0.63708 0.78714 0.62999 0.0
H1810 H 0.65769 0.8783 0.57716 0.0
H1811 H 0.62624 0.85283 0.60491 0.0
H1812 H 0.62828 0.7624 0.64242 0.0
H1813 H 0.6243 0.80992 0.64124 0.0
H1814 H 0.75274 0.77017 0.50417 0.0
H1815 H 0.74721 0.81756 0.50186 0.0
H1816 H 0.75783 0.72929 0.54296 0.0
H1817 H 0.72767 0.70318 0.57173 0.0
C1818 C 0.16072 0.765 0.47853 0.0
C1819 C 0.18446 0.74009 0.45938 0.0
C1820 C 0.20739 0.79142 0.42177 0.0
C1821 C 0.17567 0.81084 0.432 0.0
N1822 N 0.14053 0.82863 0.48369 0.0
N1823 N 0.2209 0.73 0.40351 0.0
C1824 C 0.15752 0.80146 0.46477 0.0
C1825 C 0.20594 0.75335 0.42867 0.0
N1826 N 0.13948 0.75325 0.50779 0.0
N1827 N 0.23416 0.8077 0.3995 0.0
H1828 H 0.21264 0.70209 0.40155 0.0
H1829 H 0.23558 0.73949 0.3804 0.0
H1830 H 0.23282 0.83542 0.39223 0.0
H1831 H 0.25859 0.79458 0.39153 0.0
H1832 H 0.12165 0.77008 0.52238 0.0
H1833 H 0.1371 0.72567 0.51561 0.0
H1834 H 0.13095 0.82586 0.51045 0.0
H1835 H 0.14054 0.85542 0.4734 0.0
C1836 C 0.51604 0.02705 0.70534 0.0
C1837 C 0.54489 0.00145 0.71068 0.0
C1838 C 0.50628 0.95277 0.68052 0.0
C1839 C 0.47776 0.97843 0.6756 0.0
N1840 N 0.44993 0.03534 0.69216 0.0
N1841 N 0.56433 0.93836 0.71057 0.0
C1842 C 0.48089 0.01414 0.6909 0.0
C1843 C 0.53881 0.96365 0.70098 0.0
N1844 N 0.52211 0.06377 0.71349 0.0
N1845 N 0.50334 0.91889 0.66371 0.0
H1846 H 0.59007 0.94554 0.72304 0.0
H1847 H 0.55891 0.90991 0.70821 0.0
H1848 H 0.47951 0.90958 0.64912 0.0
H1849 H 0.52528 0.90073 0.66249 0.0
H1850 H 0.50394 0.08398 0.70565 0.0
H1851 H 0.546 0.07471 0.72673 0.0
H1852 H 0.44914 0.06029 0.70646 0.0
H1853 H 0.42365 0.02593 0.68206 0.0
C1854 C 0.27217 0.30434 0.93548 0.0
C1855 C 0.29801 0.32188 0.96086 0.0
C1856 C 0.33439 0.26602 0.96058 0.0
C1857 C 0.31581 0.25464 0.92887 0.0
N1858 N 0.25656 0.24944 0.89836 0.0
N1859 N 0.35295 0.31744 -0.00042 0.0
C1860 C 0.28071 0.26931 0.9208 0.0
C1861 C 0.32836 0.30176 0.97478 0.0
N1862 N 0.24024 0.32106 0.92487 0.0
N1863 N 0.35507 0.24137 0.97837 0.0
H1864 H 0.35224 0.34482 0.00841 0.0
H1865 H 0.37622 0.304 0.00894 0.0
H1866 H 0.35723 0.2145 0.96826 0.0
H1867 H 0.36482 0.24599 0.00481 0.0
H1868 H 0.22343 0.31186 0.90317 0.0
H1869 H 0.22987 0.3443 0.9376 0.0
H1870 H 0.22918 0.25662 0.89235 0.0
H1871 H 0.26355 0.22359 0.88812 0.0
C1872 C 0.46326 0.60244 0.71168 0.0
C1873 C 0.46158 0.56398 0.71879 0.0
C1874 C 0.52981 0.56162 0.70544 0.0
C1875 C 0.52989 0.59812 0.69271 0.0
N1876 N 0.49842 0.65473 0.68466 0.0
N1877 N 0.49277 0.50583 0.72022 0.0
C1878 C 0.49726 0.61924 0.69707 0.0
C1879 C 0.49479 0.54324 0.7153 0.0
N1880 N 0.43198 0.62256 0.71766 0.0
N1881 N 0.56333 0.54457 0.70764 0.0
H1882 H 0.46827 0.49112 0.72863 0.0
H1883 H 0.51497 0.48885 0.71423 0.0
H1884 H 0.58912 0.55808 0.70078 0.0
H1885 H 0.56611 0.51896 0.71966 0.0
H1886 H 0.4322 0.65125 0.7166 0.0
H1887 H 0.40562 0.61065 0.72514 0.0
H1888 H 0.47491 0.67074 0.68249 0.0
H1889 H 0.52346 0.66787 0.67514 0.0
C1890 C 0.77834 0.26571 0.08835 0.0
C1891 C 0.78895 0.258 0.05187 0.0
C1892 C 0.80975 0.32419 0.04618 0.0
C1893 C 0.79802 0.32969 0.08266 0.0
N1894 N 0.75075 0.31115 0.12714 0.0
N1895 N 0.81014 0.2836 0.99325 0.0
C1896 C 0.77395 0.3024 0.09882 0.0
C1897 C 0.80306 0.28833 0.02957 0.0
N1898 N 0.77547 0.23865 0.11399 0.0
N1899 N 0.8273 0.35279 0.02775 0.0
H1900 H 0.81277 0.25817 0.98051 0.0
H1901 H 0.8137 0.30557 0.97529 0.0
H1902 H 0.82834 0.37973 0.03799 0.0
H1903 H 0.8403 0.35009 0.0024 0.0
H1904 H 0.76935 0.24435 0.14128 0.0
H1905 H 0.78479 0.21213 0.10914 0.0
H1906 H 0.7322 0.29153 0.13931 0.0
H1907 H 0.74813 0.33857 0.13553 0.0
C1908 C 0.50834 0.0798 0.80365 0.0
C1909 C 0.54123 0.10371 0.80859 0.0
C1910 C 0.5029 0.14796 0.84079 0.0
C1911 C 0.47124 0.12264 0.83746 0.0
N1912 N 0.43971 0.07425 0.80314 0.0
N1913 N 0.5672 0.16529 0.82156 0.0
C1914 C 0.4726 0.09271 0.81322 0.0
C1915 C 0.53748 0.13981 0.82302 0.0
N1916 N 0.5111 0.04393 0.79275 0.0
N1917 N 0.50104 0.17733 0.86421 0.0
H1918 H 0.59342 0.15941 0.81022 0.0
H1919 H 0.56485 0.19291 0.82905 0.0
H1920 H 0.47622 0.18289 0.87834 0.0
H1921 H 0.52435 0.19462 0.87111 0.0
H1922 H 0.4882 0.02469 0.79253 0.0
H1923 H 0.53667 0.03249 0.7867 0.0
H1924 H 0.43861 0.05339 0.78333 0.0
H1925 H 0.41342 0.08261 0.81251 0.0
C1926 C 0.99099 0.96006 0.28424 0.0
C1927 C 0.9567 0.94207 0.29617 0.0
C1928 C 0.99135 0.90787 0.34061 0.0
C1929 C 0.02238 0.93376 0.33586 0.0
N1930 N 0.05436 0.98199 0.30144 0.0
N1931 N 0.92448 0.89309 0.32894 0.0
C1932 C 0.02349 0.9583 0.30626 0.0
C1933 C 0.95724 0.91327 0.32161 0.0
N1934 N 0.99184 0.97964 0.25273 0.0
N1935 N 0.99376 0.88041 0.36554 0.0
H1936 H 0.89987 0.8965 0.31404 0.0
H1937 H 0.92146 0.87345 0.34936 0.0
H1938 H 0.01782 0.87782 0.38135 0.0
H1939 H 0.97317 0.85924 0.36923 0.0
H1940 H 0.01652 0.99178 0.2415 0.0
H1941 H 0.96829 0.98008 0.23593 0.0
H1942 H 0.0553 0.00378 0.28312 0.0
H1943 H 0.07881 0.98014 0.31699 0.0
C1944 C 0.41353 0.29838 0.24827 0.0
C1945 C 0.44527 0.31778 0.23235 0.0
C1946 C 0.44994 0.35934 0.28582 0.0
C1947 C 0.41637 0.34172 0.2994 0.0
N1948 N 0.37648 0.28651 0.30311 0.0
N1949 N 0.49712 0.36407 0.23753 0.0
C1950 C 0.40189 0.3083 0.28376 0.0
C1951 C 0.46477 0.34738 0.25171 0.0
N1952 N 0.39259 0.27263 0.22849 0.0
N1953 N 0.46829 0.38606 0.3065 0.0
H1954 H 0.51239 0.35309 0.21598 0.0
H1955 H 0.50931 0.389 0.24703 0.0
H1956 H 0.4586 0.3936 0.33226 0.0
H1957 H 0.49425 0.39906 0.29981 0.0
H1958 H 0.36714 0.26026 0.23779 0.0
H1959 H 0.39823 0.26639 0.20126 0.0
H1960 H 0.36706 0.26011 0.2947 0.0
H1961 H 0.36819 0.29357 0.32958 0.0
C1962 C 0.44789 0.78109 0.988 0.0
C1963 C 0.43996 0.76298 0.95392 0.0
C1964 C 0.41354 0.70889 0.98604 0.0
C1965 C 0.42652 0.7244 0.01959 0.0
N1966 N 0.4557 0.77494 0.05364 0.0
N1967 N 0.4172 0.70884 0.92035 0.0
C1968 C 0.443 0.76076 0.02105 0.0
C1969 C 0.42319 0.72672 0.95297 0.0
N1970 N 0.46123 0.81715 0.98873 0.0
N1971 N 0.39049 0.67755 0.98605 0.0
H1972 H 0.41991 0.72204 0.89528 0.0
H1973 H 0.41125 0.68046 0.91807 0.0
H1974 H 0.38109 0.66512 0.01014 0.0
H1975 H 0.37732 0.6665 0.96285 0.0
H1976 H 0.46448 0.83292 0.01242 0.0
H1977 H 0.4671 0.83251 0.96542 0.0
H1978 H 0.471 0.80001 0.05667 0.0
H1979 H 0.45252 0.76057 0.07803 0.0
C1980 C 0.08654 0.75871 0.74473 0.0
C1981 C 0.05472 0.73956 0.72878 0.0
C1982 C 0.04796 0.69968 0.78263 0.0
C1983 C 0.08149 0.71719 0.79624 0.0
N1984 N 0.12122 0.77257 0.80013 0.0
N1985 N 0.0013 0.69496 0.73462 0.0
C1986 C 0.09667 0.75005 0.78052 0.0
C1987 C 0.03402 0.71105 0.74843 0.0
N1988 N 0.1089 0.7831 0.72484 0.0
N1989 N 0.02859 0.6739 0.80344 0.0
H1990 H 0.98618 0.70602 0.71356 0.0
H1991 H 0.98843 0.67048 0.74416 0.0
H1992 H 0.03751 0.66665 0.82923 0.0
H1993 H 0.00251 0.66124 0.79677 0.0
H1994 H 0.1342 0.79533 0.73449 0.0
H1995 H 0.10475 0.78796 0.69725 0.0
H1996 H 0.13089 0.79869 0.79149 0.0
H1997 H 0.12829 0.76655 0.82692 0.0
C1998 C 0.02815 0.33085 0.48944 0.0
C1999 C 0.04829 0.34673 0.45914 0.0
C2000 C 0.10164 0.36445 0.49874 0.0
C2001 C 0.08047 0.34994 0.5287 0.0
N2002 N 0.03145 0.30903 0.55166 0.0
N2003 N 0.10272 0.38067 0.4345 0.0
C2004 C 0.04645 0.32927 0.52341 0.0
C2005 C 0.08508 0.36354 0.46353 0.0
N2006 N 0.99086 0.31956 0.48672 0.0
N2007 N 0.13692 0.38035 0.50483 0.0
H2008 H 0.08998 0.38244 0.40908 0.0
H2009 H 0.12902 0.39475 0.43553 0.0
H2010 H 0.14929 0.38041 0.53053 0.0
H2011 H 0.15483 0.39147 0.48476 0.0
H2012 H 0.97411 0.31236 0.50925 0.0
H2013 H 0.97526 0.32122 0.46304 0.0
H2014 H 0.00812 0.2905 0.54915 0.0
H2015 H 0.04521 0.30838 0.57673 0.0
C2016 C 0.41867 0.77004 0.28486 0.0
C2017 C 0.45142 0.7517 0.29512 0.0
C2018 C 0.45504 0.72495 0.2328 0.0
C2019 C 0.42066 0.74138 0.22356 0.0
N2020 N 0.38166 0.79295 0.23578 0.0
N2021 N 0.49982 0.7091 0.27919 0.0
C2022 C 0.40601 0.76787 0.24821 0.0
C2023 C 0.46924 0.7283 0.26926 0.0
N2024 N 0.3981 0.78797 0.31071 0.0
N2025 N 0.47664 0.70998 0.20602 0.0
H2026 H 0.51429 0.71343 0.3035 0.0
H2027 H 0.5097 0.68702 0.26405 0.0
H2028 H 0.47061 0.71231 0.17854 0.0
H2029 H 0.5037 0.70082 0.21018 0.0
H2030 H 0.37179 0.79853 0.3056 0.0
H2031 H 0.40501 0.78852 0.33828 0.0
H2032 H 0.37297 0.81532 0.25128 0.0
H2033 H 0.37424 0.79433 0.20846 0.0
C2034 C 0.01939 0.72769 0.00587 0.0
C2035 C 0.04324 0.72578 0.03679 0.0
C2036 C 0.08876 0.69221 0.00021 0.0
C2037 C 0.06452 0.69436 0.96977 0.0
N2038 N 0.01607 0.72585 0.93991 0.0
N2039 N 0.10443 0.7133 0.06145 0.0
C2040 C 0.03345 0.71693 0.97143 0.0
C2041 C 0.07959 0.71103 0.03312 0.0
N2042 N 0.98283 0.738 0.00925 0.0
N2043 N 0.11823 0.66924 -0.00124 0.0
H2044 H 0.09756 0.72427 0.08691 0.0
H2045 H 0.13259 0.70631 0.05898 0.0
H2046 H 0.12525 0.65497 0.97509 0.0
H2047 H 0.13424 0.66277 0.02129 0.0
H2048 H 0.9635 0.73564 0.98797 0.0
H2049 H 0.97094 0.74706 0.03357 0.0
H2050 H 0.99452 0.74446 0.93894 0.0
H2051 H 0.0263 0.71717 0.91458 0.0
C2052 C 0.11238 0.30862 0.78552 0.0
C2053 C 0.0918 0.33386 0.80671 0.0
C2054 C 0.08382 0.37137 0.75175 0.0
C2055 C 0.1012 0.34377 0.73054 0.0
N2056 N 0.12326 0.28226 0.72574 0.0
N2057 N 0.06078 0.3921 0.8102 0.0
C2058 C 0.11215 0.31094 0.74709 0.0
C2059 C 0.07814 0.36597 0.78986 0.0
N2060 N 0.13419 0.28382 0.80228 0.0
N2061 N 0.07565 0.40416 0.73618 0.0
H2062 H 0.06629 0.39652 0.83775 0.0
H2063 H 0.04257 0.41076 0.79928 0.0
H2064 H 0.07847 0.40918 0.70846 0.0
H2065 H 0.06759 0.42733 0.75075 0.0
H2066 H 0.15208 0.26657 0.78814 0.0
H2067 H 0.13815 0.28411 0.83043 0.0
H2068 H 0.12875 0.25639 0.73607 0.0
H2069 H 0.12309 0.28352 0.69734 0.0
C2070 C 0.46384 0.32739 0.506 0.0
C2071 C 0.44488 0.33497 0.53946 0.0
C2072 C 0.39969 0.37129 0.50675 0.0
C2073 C 0.42075 0.36551 0.47442 0.0
N2074 N 0.46172 0.32809 0.43992 0.0
N2075 N 0.39399 0.36255 0.57238 0.0
C2076 C 0.4484 0.33924 0.47305 0.0
C2077 C 0.41181 0.35571 0.53995 0.0
N2078 N 0.49831 0.31198 0.5058 0.0
N2079 N 0.36966 0.39356 0.50541 0.0
H2080 H 0.4033 0.3525 0.59712 0.0
H2081 H 0.3704 0.37838 0.57529 0.0
H2082 H 0.36112 0.40469 0.48087 0.0
H2083 H 0.35266 0.40016 0.52755 0.0
H2084 H 0.51494 0.30926 0.48244 0.0
H2085 H 0.51183 0.30453 0.52941 0.0
H2086 H 0.47995 0.30654 0.43656 0.0
H2087 H 0.45131 0.33852 0.41574 0.0
C2088 C 0.24358 0.50929 0.32821 0.0
C2089 C 0.21764 0.49095 0.3032 0.0
C2090 C 0.26512 0.44636 0.2904 0.0
C2091 C 0.2824 0.4558 0.32376 0.0
N2092 N 0.30203 0.5052 0.36315 0.0
N2093 N 0.20428 0.43845 0.26249 0.0
C2094 C 0.27574 0.49015 0.33978 0.0
C2095 C 0.22891 0.45895 0.284 0.0
N2096 N 0.23826 0.54469 0.33967 0.0
N2097 N 0.28196 0.42254 0.26706 0.0
H2098 H 0.17553 0.44327 0.26077 0.0
H2099 H 0.21137 0.41363 0.25018 0.0
H2100 H 0.30859 0.41272 0.27263 0.0
H2101 H 0.27133 0.41608 0.24123 0.0
H2102 H 0.25495 0.55885 0.3589 0.0
H2103 H 0.21846 0.5613 0.32822 0.0
H2104 H 0.30084 0.53119 0.3752 0.0
H2105 H 0.32696 0.49191 0.36809 0.0
C2106 C 0.32806 0.53033 0.01905 0.0
C2107 C 0.30217 0.51045 0.04214 0.0
C2108 C 0.29657 0.56717 0.07956 0.0
C2109 C 0.32284 0.5859 0.05609 0.0
N2110 N 0.34377 0.59037 0.9941 0.0
N2111 N 0.25137 0.51509 0.08699 0.0
C2112 C 0.33151 0.56907 0.02247 0.0
C2113 C 0.28315 0.53025 0.07041 0.0
N2114 N 0.35085 0.51253 0.99506 0.0
N2115 N 0.28426 0.58469 0.11012 0.0
H2116 H 0.23844 0.48984 0.07937 0.0
H2117 H 0.23503 0.52938 0.10562 0.0
H2118 H 0.29113 0.61252 0.11529 0.0
H2119 H 0.26745 0.57174 0.13009 0.0
H2120 H 0.37162 0.52657 0.97945 0.0
H2121 H 0.35243 0.48386 0.99422 0.0
H2122 H 0.34908 0.5796 0.96819 0.0
H2123 H 0.34246 0.61894 0.99588 0.0
C2124 C 0.25415 0.55292 0.82196 0.0
C2125 C 0.28708 0.57011 0.80513 0.0
C2126 C 0.25321 0.62634 0.79951 0.0
C2127 C 0.22621 0.61363 0.82595 0.0
N2128 N 0.19384 0.56096 0.85343 0.0
N2129 N 0.31847 0.6256 0.78098 0.0
C2130 C 0.2243 0.57553 0.83454 0.0
C2131 C 0.28666 0.60743 0.79452 0.0
N2132 N 0.25076 0.51529 0.82433 0.0
N2133 N 0.24606 0.65575 0.77809 0.0
H2134 H 0.34465 0.61363 0.77879 0.0
H2135 H 0.31964 0.65388 0.77577 0.0
H2136 H 0.21993 0.66805 0.77876 0.0
H2137 H 0.26392 0.66437 0.75673 0.0
H2138 H 0.22639 0.50069 0.8332 0.0
H2139 H 0.27152 0.49816 0.8147 0.0
H2140 H 0.19139 0.53389 0.86261 0.0
H2141 H 0.17054 0.57629 0.85989 0.0
C2142 C 0.20373 0.55194 0.58015 0.0
C2143 C 0.18692 0.56996 0.55033 0.0
C2144 C 0.16519 0.50995 0.5256 0.0
C2145 C 0.17705 0.49252 0.55731 0.0
N2146 N 0.22121 0.49348 0.60628 0.0
N2147 N 0.13948 0.56548 0.50329 0.0
C2148 C 0.20087 0.51249 0.58198 0.0
C2149 C 0.16437 0.54875 0.52524 0.0
N2150 N 0.21958 0.57238 0.60803 0.0
N2151 N 0.15227 0.48888 0.49692 0.0
H2152 H 0.13417 0.59348 0.50597 0.0
H2153 H 0.12049 0.55076 0.48635 0.0
H2154 H 0.15235 0.46006 0.49761 0.0
H2155 H 0.14543 0.50008 0.4719 0.0
H2156 H 0.2328 0.56114 0.63014 0.0
H2157 H 0.2152 0.60039 0.61167 0.0
H2158 H 0.24148 0.50568 0.62352 0.0
H2159 H 0.22111 0.46468 0.60574 0.0
C2160 C 0.25166 0.63552 0.24541 0.0
C2161 C 0.23583 0.60092 0.23301 0.0
C2162 C 0.29644 0.58789 0.20297 0.0
C2163 C 0.30854 0.62443 0.21065 0.0
N2164 N 0.30937 0.67343 0.25459 0.0
N2165 N 0.24741 0.53927 0.20964 0.0
C2166 C 0.29041 0.64406 0.23847 0.0
C2167 C 0.25965 0.57523 0.215 0.0
N2168 N 0.22932 0.66149 0.26052 0.0
N2169 N 0.31988 0.56644 0.18312 0.0
H2170 H 0.22105 0.52876 0.21815 0.0
H2171 H 0.26397 0.51903 0.19843 0.0
H2172 H 0.34708 0.57636 0.17564 0.0
H2173 H 0.31291 0.5397 0.17408 0.0
H2174 H 0.23936 0.68831 0.26677 0.0
H2175 H 0.20002 0.65772 0.2633 0.0
H2176 H 0.29829 0.68836 0.27629 0.0
H2177 H 0.33774 0.67992 0.24807 0.0
C2178 C 0.20132 0.51035 0.94497 0.0
C2179 C 0.18106 0.48494 0.96839 0.0
C2180 C 0.13752 0.53254 0.98521 0.0
C2181 C 0.15404 0.55549 0.95796 0.0
N2182 N 0.21354 0.57494 0.9305 0.0
N2183 N 0.12701 0.47035 0.00722 0.0
C2184 C 0.1895 0.54711 0.94293 0.0
C2185 C 0.14842 0.49574 0.98768 0.0
N2186 N 0.23149 0.49983 0.92442 0.0
N2187 N 0.11331 0.54701 0.01015 0.0
H2188 H 0.13323 0.44249 0.0081 0.0
H2189 H 0.10112 0.47607 0.01928 0.0
H2190 H 0.10782 0.5751 0.01051 0.0
H2191 H 0.10284 0.53262 0.03281 0.0
H2192 H 0.2443 0.5165 0.90444 0.0
H2193 H 0.24201 0.47359 0.92438 0.0
H2194 H 0.24132 0.57106 0.92213 0.0
H2195 H 0.20765 0.60272 0.93359 0.0
C2196 C 0.25883 0.49255 0.71112 0.0
C2197 C 0.27389 0.46298 0.73156 0.0
C2198 C 0.2091 0.43831 0.74218 0.0
C2199 C 0.19739 0.4606 0.71377 0.0
N2200 N 0.20147 0.52178 0.69237 0.0
N2201 N 0.26206 0.40784 0.7678 0.0
C2202 C 0.21919 0.49236 0.70572 0.0
C2203 C 0.24851 0.43632 0.74842 0.0
N2204 N 0.28149 0.51995 0.69579 0.0
N2205 N 0.18248 0.41675 0.76003 0.0
H2206 H 0.29091 0.4038 0.77056 0.0
H2207 H 0.24483 0.38641 0.7785 0.0
H2208 H 0.15386 0.41804 0.75356 0.0
H2209 H 0.18827 0.40057 0.7824 0.0
H2210 H 0.27138 0.53905 0.67777 0.0
H2211 H 0.31051 0.52359 0.69897 0.0
H2212 H 0.21452 0.54808 0.69019 0.0
H2213 H 0.17234 0.52001 0.68741 0.0
C2214 C 0.28502 0.54851 0.45191 0.0
C2215 C 0.3077 0.57872 0.46676 0.0
C2216 C 0.35748 0.53705 0.48001 0.0
C2217 C 0.33908 0.50905 0.45847 0.0
N2218 N 0.2785 0.48207 0.44048 0.0
N2219 N 0.368 0.60252 0.48954 0.0
C2220 C 0.30068 0.5129 0.44888 0.0
C2221 C 0.34466 0.57315 0.47919 0.0
N2222 N 0.24865 0.55357 0.44123 0.0
N2223 N 0.38518 0.52841 0.50372 0.0
H2224 H 0.36012 0.62985 0.48788 0.0
H2225 H 0.39642 0.5998 0.49594 0.0
H2226 H 0.39155 0.50108 0.50867 0.0
H2227 H 0.39743 0.54752 0.52209 0.0
H2228 H 0.23211 0.53411 0.4267 0.0
H2229 H 0.23481 0.57793 0.44541 0.0
H2230 H 0.25003 0.4821 0.43364 0.0
H2231 H 0.28747 0.45547 0.44463 0.0
C2232 C 0.2636 0.27222 0.45601 0.0
C2233 C 0.28668 0.24093 0.45328 0.0
C2234 C 0.33922 0.28008 0.42881 0.0
C2235 C 0.31624 0.31099 0.43117 0.0
N2236 N 0.25917 0.33898 0.44993 0.0
N2237 N 0.34277 0.21336 0.43029 0.0
C2238 C 0.27915 0.30773 0.44582 0.0
C2239 C 0.3237 0.24448 0.43818 0.0
N2240 N 0.22682 0.26794 0.46782 0.0
N2241 N 0.376 0.28513 0.41736 0.0
H2242 H 0.33136 0.18676 0.43529 0.0
H2243 H 0.36822 0.21337 0.41584 0.0
H2244 H 0.38767 0.31103 0.41003 0.0
H2245 H 0.39572 0.26474 0.41781 0.0
H2246 H 0.2076 0.28874 0.46834 0.0
H2247 H 0.21441 0.24306 0.47678 0.0
H2248 H 0.23219 0.33991 0.46124 0.0
H2249 H 0.27087 0.36519 0.44368 0.0
C2250 C 0.78079 0.32476 0.60521 0.0
C2251 C 0.78903 0.32906 0.56755 0.0
C2252 C 0.81623 0.26792 0.56581 0.0
C2253 C 0.81465 0.26906 0.60395 0.0
N2254 N 0.7712 0.27998 0.65301 0.0
N2255 N 0.80012 0.29816 0.50954 0.0
C2256 C 0.78786 0.29095 0.62102 0.0
C2257 C 0.80216 0.29842 0.5467 0.0
N2258 N 0.76941 0.35336 0.62659 0.0
N2259 N 0.82874 0.23716 0.54872 0.0
H2260 H 0.7873 0.31852 0.49494 0.0
H2261 H 0.80886 0.27672 0.49299 0.0
H2262 H 0.83707 0.21454 0.56344 0.0
H2263 H 0.82971 0.23327 0.52063 0.0
H2264 H 0.76579 0.35104 0.65471 0.0
H2265 H 0.76796 0.38035 0.61736 0.0
H2266 H 0.74961 0.29426 0.66552 0.0
H2267 H 0.7765 0.2544 0.66431 0.0
C2268 C 0.46752 0.08515 0.31263 0.0
C2269 C 0.4591 0.04658 0.3082 0.0
C2270 C 0.52375 0.03452 0.32808 0.0
C2271 C 0.53057 0.07237 0.33597 0.0
N2272 N 0.50564 0.13302 0.34282 0.0
N2273 N 0.47659 0.98447 0.32375 0.0
C2274 C 0.50185 0.09765 0.32941 0.0
C2275 C 0.48642 0.02106 0.31912 0.0
N2276 N 0.44177 0.11015 0.30287 0.0
N2277 N 0.55284 0.01125 0.33062 0.0
H2278 H 0.44921 0.97313 0.32123 0.0
H2279 H 0.49481 0.96583 0.33471 0.0
H2280 H 0.58019 0.0209 0.33762 0.0
H2281 H 0.55072 0.98363 0.32232 0.0
H2282 H 0.44897 0.13813 0.29928 0.0
H2283 H 0.41328 0.10309 0.29818 0.0
H2284 H 0.4837 0.1512 0.34372 0.0
H2285 H 0.53 0.14351 0.35571 0.0
C2286 C 0.71555 0.77708 0.04138 0.0
C2287 C 0.69837 0.74325 0.05473 0.0
C2288 C 0.65128 0.77805 0.08743 0.0
C2289 C 0.67338 0.81081 0.08046 0.0
N2290 N 0.71733 0.84471 0.04308 0.0
N2291 N 0.64949 0.7112 0.09009 0.0
C2292 C 0.70191 0.81124 0.05385 0.0
C2293 C 0.66533 0.74356 0.07677 0.0
N2294 N 0.74565 0.77633 0.01805 0.0
N2295 N 0.61833 0.78022 0.10672 0.0
H2296 H 0.65947 0.68536 0.08334 0.0
H2297 H 0.62821 0.70998 0.10984 0.0
H2298 H 0.60902 0.80548 0.11596 0.0
H2299 H 0.59899 0.75802 0.1108 0.0
H2300 H 0.7595 0.79947 0.00671 0.0
H2301 H 0.75723 0.75176 0.01038 0.0
H2302 H 0.73919 0.8485 0.02416 0.0
H2303 H 0.7065 0.86931 0.05291 0.0
C2304 C 0.49688 0.49284 0.27888 0.0
C2305 C 0.52663 0.5112 0.29941 0.0
C2306 C 0.48144 0.51987 0.34866 0.0
C2307 C 0.45724 0.49168 0.3337 0.0
N2308 N 0.43752 0.45583 0.28124 0.0
N2309 N 0.54711 0.53707 0.35775 0.0
C2310 C 0.46332 0.47972 0.2975 0.0
C2311 C 0.51878 0.524 0.33524 0.0
N2312 N 0.49957 0.48967 0.24184 0.0
N2313 N 0.46957 0.53992 0.37789 0.0
H2314 H 0.57577 0.53612 0.35106 0.0
H2315 H 0.5423 0.54422 0.38493 0.0
H2316 H 0.44206 0.53613 0.38835 0.0
H2317 H 0.48561 0.56224 0.38882 0.0
H2318 H 0.47757 0.47886 0.22567 0.0
H2319 H 0.52173 0.50188 0.22666 0.0
H2320 H 0.4424 0.44272 0.25637 0.0
H2321 H 0.41161 0.44829 0.2935 0.0
C2322 C 0.15694 0.81729 0.94246 0.0
C2323 C 0.18584 0.81868 0.96891 0.0
C2324 C 0.19132 0.75151 0.96395 0.0
C2325 C 0.16299 0.7503 0.93689 0.0
N2326 N 0.11099 0.77904 0.90851 0.0
N2327 N 0.22305 0.78678 0.01225 0.0
C2328 C 0.1431 0.78234 0.929 0.0
C2329 C 0.20042 0.78557 0.98223 0.0
N2330 N 0.14392 0.84935 0.92914 0.0
N2331 N 0.21121 0.72089 0.97047 0.0
H2332 H 0.23024 0.81128 0.02621 0.0
H2333 H 0.23187 0.7633 0.02521 0.0
H2334 H 0.20458 0.69526 0.95834 0.0
H2335 H 0.23553 0.72132 0.98632 0.0
H2336 H 0.12614 0.85026 0.90672 0.0
H2337 H 0.15278 0.87536 0.93925 0.0
H2338 H 0.09341 0.80077 0.90405 0.0
H2339 H 0.1 0.75348 0.89899 0.0
C2340 C 0.47951 -0.00168 0.16001 0.0
C2341 C 0.46294 0.97993 0.1907 0.0
C2342 C 0.52553 0.95804 0.2058 0.0
C2343 C 0.53721 0.96753 0.17083 0.0
N2344 N 0.53843 0.01846 0.13004 0.0
N2345 N 0.47391 0.95049 0.24887 0.0
C2346 C 0.51903 -0.00315 0.15462 0.0
C2347 C 0.48709 0.96256 0.21587 0.0
N2348 N 0.45755 0.01408 0.1346 0.0
N2349 N 0.55263 0.95072 0.23032 0.0
H2350 H 0.44707 0.95511 0.25907 0.0
H2351 H 0.49001 0.9356 0.26649 0.0
H2352 H 0.58072 0.94781 0.22202 0.0
H2353 H 0.54815 0.95329 0.25826 0.0
H2354 H 0.46856 0.02502 0.11037 0.0
H2355 H 0.42802 0.01275 0.1359 0.0
H2356 H 0.52685 0.04103 0.11764 0.0
H2357 H 0.56725 0.01515 0.1252 0.0
C2358 C 0.03619 0.07594 0.649 0.0
C2359 C 0.04157 0.0866 0.68575 0.0
C2360 C 0.98138 0.11798 0.68588 0.0
C2361 C 0.98044 0.11184 0.64795 0.0
N2362 N 0.98937 0.06443 0.60259 0.0
N2363 N 0.01449 0.1085 0.74256 0.0
C2364 C 0.00204 0.08375 0.63257 0.0
C2365 C 0.0125 0.10468 0.70553 0.0
N2366 N 0.06428 0.0605 0.629 0.0
N2367 N 0.95204 0.13463 0.70276 0.0
H2368 H 0.03602 0.09802 0.75782 0.0
H2369 H 0.99452 0.12114 0.75874 0.0
H2370 H 0.92791 0.14149 0.68884 0.0
H2371 H 0.95037 0.14034 0.73051 0.0
H2372 H 0.06197 0.05544 0.60106 0.0
H2373 H 0.09118 0.05642 0.6392 0.0
H2374 H 0.00313 0.04187 0.59186 0.0
H2375 H 0.96273 0.0684 0.59159 0.0
loop_
_geom_bond_atom_site_label_1
_geom_bond_atom_site_label_2
_geom_bond_distance
_geom_bond_site_symmetry_2
_ccdc_geom_bond_type
In0 O1 2.294 . S
In0 O2 2.326 . S
In0 O6 2.266 . S
In0 O7 2.326 . S
In0 O8 2.266 1_455 S
In0 O9 2.326 . S
In0 O11 2.294 1_455 S
In0 O12 2.326 . S
O1 In0 2.294 . S
O1 C10 1.240 . S
O2 In0 2.326 . S
O2 C10 1.252 . S
C3 O6 1.252 . S
C3 O7 1.260 . S
C4 O11 1.240 . S
C4 O12 1.252 1_655 S
C5 O8 1.252 . S
C5 O9 1.260 1_655 S
O6 In0 2.266 . S
O6 C3 1.252 . S
O7 In0 2.326 . S
O7 C3 1.260 . S
O8 In0 2.266 1_655 S
O8 C5 1.252 . S
O9 In0 2.326 . S
O9 C5 1.260 1_455 S
C10 O1 1.240 . S
C10 O2 1.252 . S
O11 In0 2.294 1_655 S
O11 C4 1.240 . S
O12 In0 2.326 . S
O12 C4 1.252 1_455 S
In13 O14 2.294 1_455 S
In13 O15 2.326 1_455 S
In13 O19 2.266 . S
In13 O20 2.326 . S
In13 O21 2.266 1_455 S
In13 O22 2.326 1_455 S
In13 O24 2.294 . S
In13 O25 2.326 . S
O14 In13 2.294 1_655 S
O14 C23 1.240 . S
O15 In13 2.326 1_655 S
O15 C23 1.252 . S
C16 O19 1.252 . S
C16 O20 1.260 . S
C17 O24 1.240 . S
C17 O25 1.252 . S
C18 O21 1.252 . S
C18 O22 1.260 . S
O19 In13 2.266 . S
O19 C16 1.252 . S
O20 In13 2.326 . S
O20 C16 1.260 . S
O21 In13 2.266 1_655 S
O21 C18 1.252 . S
O22 In13 2.326 1_655 S
O22 C18 1.260 . S
C23 O14 1.240 . S
C23 O15 1.252 . S
O24 In13 2.294 . S
O24 C17 1.240 . S
O25 In13 2.326 . S
O25 C17 1.252 . S
In26 O27 2.294 . S
In26 O28 2.326 . S
In26 O32 2.266 . S
In26 O33 2.326 . S
In26 O34 2.266 . S
In26 O35 2.326 . S
In26 O37 2.294 . S
In26 O38 2.326 . S
O27 In26 2.294 . S
O27 C36 1.240 . S
O28 In26 2.326 . S
O28 C36 1.252 . S
C29 O32 1.252 . S
C29 O33 1.260 . S
C30 O37 1.240 . S
C30 O38 1.252 . S
C31 O34 1.252 . S
C31 O35 1.260 . S
O32 In26 2.266 . S
O32 C29 1.252 . S
O33 In26 2.326 . S
O33 C29 1.260 . S
O34 In26 2.266 . S
O34 C31 1.252 . S
O35 In26 2.326 . S
O35 C31 1.260 . S
C36 O27 1.240 . S
C36 O28 1.252 . S
O37 In26 2.294 . S
O37 C30 1.240 . S
O38 In26 2.326 . S
O38 C30 1.252 . S
In39 O40 2.294 . S
In39 O41 2.326 . S
In39 O45 2.266 . S
In39 O46 2.326 . S
In39 O47 2.266 . S
In39 O48 2.326 . S
In39 O50 2.294 . S
In39 O51 2.326 . S
O40 In39 2.294 . S
O40 C49 1.240 . S
O41 In39 2.326 . S
O41 C49 1.252 . S
C42 O45 1.252 . S
C42 O46 1.260 . S
C43 O50 1.240 . S
C43 O51 1.252 . S
C44 O47 1.252 . S
C44 O48 1.260 . S
O45 In39 2.266 . S
O45 C42 1.252 . S
O46 In39 2.326 . S
O46 C42 1.260 . S
O47 In39 2.266 . S
O47 C44 1.252 . S
O48 In39 2.326 . S
O48 C44 1.260 . S
C49 O40 1.240 . S
C49 O41 1.252 . S
O50 In39 2.294 . S
O50 C43 1.240 . S
O51 In39 2.326 . S
O51 C43 1.252 . S
In52 O53 2.294 1_455 S
In52 O54 2.326 . S
In52 O58 2.266 1_455 S
In52 O59 2.326 . S
In52 O60 2.266 . S
In52 O61 2.326 1_455 S
In52 O63 2.294 . S
In52 O64 2.326 1_455 S
O53 In52 2.294 1_655 S
O53 C62 1.240 . S
O54 In52 2.326 . S
O54 C62 1.252 1_455 S
C55 O58 1.252 . S
C55 O59 1.260 1_655 S
C56 O63 1.240 . S
C56 O64 1.252 1_455 S
C57 O60 1.252 . S
C57 O61 1.260 1_455 S
O58 In52 2.266 1_655 S
O58 C55 1.252 . S
O59 In52 2.326 . S
O59 C55 1.260 1_455 S
O60 In52 2.266 . S
O60 C57 1.252 . S
O61 In52 2.326 1_655 S
O61 C57 1.260 1_655 S
C62 O53 1.240 . S
C62 O54 1.252 1_655 S
O63 In52 2.294 . S
O63 C56 1.240 . S
O64 In52 2.326 1_655 S
O64 C56 1.252 1_655 S
In65 O66 2.294 . S
In65 O67 2.326 . S
In65 O71 2.266 . S
In65 O72 2.326 . S
In65 O73 2.266 . S
In65 O74 2.326 . S
In65 O76 2.294 . S
In65 O77 2.326 . S
O66 In65 2.294 . S
O66 C75 1.240 . S
O67 In65 2.326 . S
O67 C75 1.252 . S
C68 O71 1.252 . S
C68 O72 1.260 . S
C69 O76 1.240 . S
C69 O77 1.252 . S
C70 O73 1.252 . S
C70 O74 1.260 . S
O71 In65 2.266 . S
O71 C68 1.252 . S
O72 In65 2.326 . S
O72 C68 1.260 . S
O73 In65 2.266 . S
O73 C70 1.252 . S
O74 In65 2.326 . S
O74 C70 1.260 . S
C75 O66 1.240 . S
C75 O67 1.252 . S
O76 In65 2.294 . S
O76 C69 1.240 . S
O77 In65 2.326 . S
O77 C69 1.252 . S
In78 O79 2.294 . S
In78 O80 2.326 . S
In78 O84 2.266 . S
In78 O85 2.326 . S
In78 O86 2.266 . S
In78 O87 2.326 . S
In78 O89 2.294 . S
In78 O90 2.326 . S
O79 In78 2.294 . S
O79 C88 1.240 . S
O80 In78 2.326 . S
O80 C88 1.252 . S
C81 O84 1.252 . S
C81 O85 1.260 . S
C82 O89 1.240 . S
C82 O90 1.252 . S
C83 O86 1.252 . S
C83 O87 1.260 . S
O84 In78 2.266 . S
O84 C81 1.252 . S
O85 In78 2.326 . S
O85 C81 1.260 . S
O86 In78 2.266 . S
O86 C83 1.252 . S
O87 In78 2.326 . S
O87 C83 1.260 . S
C88 O79 1.240 . S
C88 O80 1.252 . S
O89 In78 2.294 . S
O89 C82 1.240 . S
O90 In78 2.326 . S
O90 C82 1.252 . S
In91 O92 2.294 . S
In91 O93 2.326 . S
In91 O97 2.266 . S
In91 O98 2.326 1_455 S
In91 O99 2.266 . S
In91 O100 2.326 . S
In91 O102 2.294 . S
In91 O103 2.326 1_455 S
O92 In91 2.294 . S
O92 C101 1.240 . S
O93 In91 2.326 . S
O93 C101 1.252 . S
C94 O97 1.252 1_655 S
C94 O98 1.260 . S
C95 O102 1.240 1_655 S
C95 O103 1.252 . S
C96 O99 1.252 . S
C96 O100 1.260 . S
O97 In91 2.266 . S
O97 C94 1.252 1_455 S
O98 In91 2.326 1_655 S
O98 C94 1.260 . S
O99 In91 2.266 . S
O99 C96 1.252 . S
O100 In91 2.326 . S
O100 C96 1.260 . S
C101 O92 1.240 . S
C101 O93 1.252 . S
O102 In91 2.294 . S
O102 C95 1.240 1_455 S
O103 In91 2.326 1_655 S
O103 C95 1.252 . S
In104 O105 2.291 1_545 S
In104 O106 2.327 . S
In104 O110 2.263 1_545 S
In104 O111 2.326 . S
In104 O112 2.269 . S
In104 O113 2.325 1_545 S
In104 O115 2.298 . S
In104 O116 2.326 1_545 S
O105 In104 2.291 1_565 S
O105 C114 1.240 . S
O106 In104 2.327 . S
O106 C114 1.252 1_545 S
C107 O110 1.252 . S
C107 O111 1.260 1_565 S
C108 O115 1.240 . S
C108 O116 1.252 1_545 S
C109 O112 1.252 . S
C109 O113 1.260 1_545 S
O110 In104 2.263 1_565 S
O110 C107 1.252 . S
O111 In104 2.326 . S
O111 C107 1.260 1_545 S
O112 In104 2.269 . S
O112 C109 1.252 . S
O113 In104 2.325 1_565 S
O113 C109 1.260 1_565 S
C114 O105 1.240 . S
C114 O106 1.252 1_565 S
O115 In104 2.298 . S
O115 C108 1.240 . S
O116 In104 2.326 1_565 S
O116 C108 1.252 1_565 S
In117 O118 2.294 . S
In117 O119 2.326 . S
In117 O123 2.266 . S
In117 O124 2.326 . S
In117 O125 2.266 . S
In117 O126 2.326 . S
In117 O128 2.294 . S
In117 O129 2.326 . S
O118 In117 2.294 . S
O118 C127 1.240 . S
O119 In117 2.326 . S
O119 C127 1.252 . S
C120 O123 1.252 . S
C120 O124 1.260 . S
C121 O128 1.240 . S
C121 O129 1.252 . S
C122 O125 1.252 . S
C122 O126 1.260 . S
O123 In117 2.266 . S
O123 C120 1.252 . S
O124 In117 2.326 . S
O124 C120 1.260 . S
O125 In117 2.266 . S
O125 C122 1.252 . S
O126 In117 2.326 . S
O126 C122 1.260 . S
C127 O118 1.240 . S
C127 O119 1.252 . S
O128 In117 2.294 . S
O128 C121 1.240 . S
O129 In117 2.326 . S
O129 C121 1.252 . S
In130 O131 2.294 . S
In130 O132 2.326 . S
In130 O136 2.266 . S
In130 O137 2.326 . S
In130 O138 2.266 . S
In130 O139 2.326 . S
In130 O141 2.294 . S
In130 O142 2.326 . S
O131 In130 2.294 . S
O131 C140 1.240 . S
O132 In130 2.326 . S
O132 C140 1.252 . S
C133 O136 1.252 . S
C133 O137 1.260 . S
C134 O141 1.240 . S
C134 O142 1.252 . S
C135 O138 1.252 . S
C135 O139 1.260 . S
O136 In130 2.266 . S
O136 C133 1.252 . S
O137 In130 2.326 . S
O137 C133 1.260 . S
O138 In130 2.266 . S
O138 C135 1.252 . S
O139 In130 2.326 . S
O139 C135 1.260 . S
C140 O131 1.240 . S
C140 O132 1.252 . S
O141 In130 2.294 . S
O141 C134 1.240 . S
O142 In130 2.326 . S
O142 C134 1.252 . S
In143 O144 2.294 . S
In143 O145 2.326 . S
In143 O149 2.265 . S
In143 O150 2.326 1_554 S
In143 O151 2.266 . S
In143 O152 2.326 . S
In143 O154 2.294 1_554 S
In143 O155 2.326 1_554 S
O144 In143 2.294 . S
O144 C153 1.240 . S
O145 In143 2.326 . S
O145 C153 1.252 . S
C146 O149 1.254 1_556 S
C146 O150 1.260 . S
C147 O154 1.240 . S
C147 O155 1.252 . S
C148 O151 1.252 . S
C148 O152 1.260 . S
O149 In143 2.265 . S
O149 C146 1.254 1_554 S
O150 In143 2.326 1_556 S
O150 C146 1.260 . S
O151 In143 2.266 . S
O151 C148 1.252 . S
O152 In143 2.326 . S
O152 C148 1.260 . S
C153 O144 1.240 . S
C153 O145 1.252 . S
O154 In143 2.294 1_556 S
O154 C147 1.240 . S
O155 In143 2.326 1_556 S
O155 C147 1.252 . S
In156 O157 2.294 1_554 S
In156 O158 2.326 . S
In156 O162 2.266 1_554 S
In156 O163 2.326 . S
In156 O164 2.266 . S
In156 O165 2.326 1_554 S
In156 O167 2.294 . S
In156 O168 2.326 1_554 S
O157 In156 2.294 1_556 S
O157 C166 1.240 . S
O158 In156 2.326 . S
O158 C166 1.252 1_554 S
C159 O162 1.252 . S
C159 O163 1.260 1_556 S
C160 O167 1.240 . S
C160 O168 1.252 1_554 S
C161 O164 1.252 . S
C161 O165 1.260 1_554 S
O162 In156 2.266 1_556 S
O162 C159 1.252 . S
O163 In156 2.326 . S
O163 C159 1.260 1_554 S
O164 In156 2.266 . S
O164 C161 1.252 . S
O165 In156 2.326 1_556 S
O165 C161 1.260 1_556 S
C166 O157 1.240 . S
C166 O158 1.252 1_556 S
O167 In156 2.294 . S
O167 C160 1.240 . S
O168 In156 2.326 1_556 S
O168 C160 1.252 1_556 S
In169 O170 2.294 . S
In169 O171 2.326 1_554 S
In169 O175 2.266 . S
In169 O176 2.326 1_554 S
In169 O177 2.266 1_554 S
In169 O178 2.326 . S
In169 O180 2.294 1_554 S
In169 O181 2.326 . S
O170 In169 2.294 . S
O170 C179 1.240 . S
O171 In169 2.326 1_556 S
O171 C179 1.252 1_556 S
C172 O175 1.252 . S
C172 O176 1.260 1_554 S
C173 O180 1.240 . S
C173 O181 1.252 1_556 S
C174 O177 1.252 . S
C174 O178 1.260 1_556 S
O175 In169 2.266 . S
O175 C172 1.252 . S
O176 In169 2.326 1_556 S
O176 C172 1.260 1_556 S
O177 In169 2.266 1_556 S
O177 C174 1.252 . S
O178 In169 2.326 . S
O178 C174 1.260 1_554 S
C179 O170 1.240 . S
C179 O171 1.252 1_554 S
O180 In169 2.294 1_556 S
O180 C173 1.240 . S
O181 In169 2.326 . S
O181 C173 1.252 1_554 S
In182 O183 2.294 . S
In182 O184 2.326 . S
In182 O188 2.266 . S
In182 O189 2.326 . S
In182 O190 2.266 . S
In182 O191 2.326 . S
In182 O193 2.294 . S
In182 O194 2.326 . S
O183 In182 2.294 . S
O183 C192 1.240 . S
O184 In182 2.326 . S
O184 C192 1.252 . S
C185 O188 1.252 . S
C185 O189 1.260 . S
C186 O193 1.240 . S
C186 O194 1.252 . S
C187 O190 1.252 . S
C187 O191 1.260 . S
O188 In182 2.266 . S
O188 C185 1.252 . S
O189 In182 2.326 . S
O189 C185 1.260 . S
O190 In182 2.266 . S
O190 C187 1.252 . S
O191 In182 2.326 . S
O191 C187 1.260 . S
C192 O183 1.240 . S
C192 O184 1.252 . S
O193 In182 2.294 . S
O193 C186 1.240 . S
O194 In182 2.326 . S
O194 C186 1.252 . S
In195 O196 2.294 . S
In195 O197 2.326 . S
In195 O201 2.266 . S
In195 O202 2.326 . S
In195 O203 2.266 . S
In195 O204 2.326 . S
In195 O206 2.294 . S
In195 O207 2.326 . S
O196 In195 2.294 . S
O196 C205 1.240 . S
O197 In195 2.326 . S
O197 C205 1.252 . S
C198 O201 1.252 . S
C198 O202 1.260 . S
C199 O206 1.240 . S
C199 O207 1.252 . S
C200 O203 1.252 . S
C200 O204 1.260 . S
O201 In195 2.266 . S
O201 C198 1.252 . S
O202 In195 2.326 . S
O202 C198 1.260 . S
O203 In195 2.266 . S
O203 C200 1.252 . S
O204 In195 2.326 . S
O204 C200 1.260 . S
C205 O196 1.240 . S
C205 O197 1.252 . S
O206 In195 2.294 . S
O206 C199 1.240 . S
O207 In195 2.326 . S
O207 C199 1.252 . S
In208 O209 2.294 1_545 S
In208 O210 2.326 1_545 S
In208 O214 2.266 . S
In208 O215 2.326 . S
In208 O216 2.266 1_545 S
In208 O217 2.326 1_545 S
In208 O219 2.294 . S
In208 O220 2.326 . S
O209 In208 2.294 1_565 S
O209 C218 1.240 . S
O210 In208 2.326 1_565 S
O210 C218 1.252 . S
C211 O214 1.252 . S
C211 O215 1.260 . S
C212 O219 1.240 . S
C212 O220 1.252 . S
C213 O216 1.252 . S
C213 O217 1.260 . S
O214 In208 2.266 . S
O214 C211 1.252 . S
O215 In208 2.326 . S
O215 C211 1.260 . S
O216 In208 2.266 1_565 S
O216 C213 1.252 . S
O217 In208 2.326 1_565 S
O217 C213 1.260 . S
C218 O209 1.240 . S
C218 O210 1.252 . S
O219 In208 2.294 . S
O219 C212 1.240 . S
O220 In208 2.326 . S
O220 C212 1.252 . S
In221 O222 2.294 . S
In221 O223 2.326 . S
In221 O227 2.266 . S
In221 O228 2.326 . S
In221 O229 2.266 . S
In221 O230 2.326 . S
In221 O232 2.294 . S
In221 O233 2.326 . S
O222 In221 2.294 . S
O222 C231 1.240 . S
O223 In221 2.326 . S
O223 C231 1.252 . S
C224 O227 1.252 . S
C224 O228 1.260 . S
C225 O232 1.240 . S
C225 O233 1.252 . S
C226 O229 1.252 . S
C226 O230 1.260 . S
O227 In221 2.266 . S
O227 C224 1.252 . S
O228 In221 2.326 . S
O228 C224 1.260 . S
O229 In221 2.266 . S
O229 C226 1.252 . S
O230 In221 2.326 . S
O230 C226 1.260 . S
C231 O222 1.240 . S
C231 O223 1.252 . S
O232 In221 2.294 . S
O232 C225 1.240 . S
O233 In221 2.326 . S
O233 C225 1.252 . S
In234 O235 2.294 . S
In234 O236 2.326 . S
In234 O240 2.266 . S
In234 O241 2.326 . S
In234 O242 2.266 . S
In234 O243 2.326 . S
In234 O245 2.294 . S
In234 O246 2.326 . S
O235 In234 2.294 . S
O235 C244 1.240 . S
O236 In234 2.326 . S
O236 C244 1.252 . S
C237 O240 1.252 . S
C237 O241 1.260 . S
C238 O245 1.240 . S
C238 O246 1.252 . S
C239 O242 1.252 . S
C239 O243 1.260 . S
O240 In234 2.266 . S
O240 C237 1.252 . S
O241 In234 2.326 . S
O241 C237 1.260 . S
O242 In234 2.266 . S
O242 C239 1.252 . S
O243 In234 2.326 . S
O243 C239 1.260 . S
C244 O235 1.240 . S
C244 O236 1.252 . S
O245 In234 2.294 . S
O245 C238 1.240 . S
O246 In234 2.326 . S
O246 C238 1.252 . S
In247 O248 2.294 . S
In247 O249 2.326 . S
In247 O253 2.266 . S
In247 O254 2.326 . S
In247 O255 2.266 . S
In247 O256 2.326 . S
In247 O258 2.294 . S
In247 O259 2.326 . S
O248 In247 2.294 . S
O248 C257 1.240 . S
O249 In247 2.326 . S
O249 C257 1.252 . S
C250 O253 1.252 . S
C250 O254 1.260 . S
C251 O258 1.240 . S
C251 O259 1.252 . S
C252 O255 1.252 . S
C252 O256 1.260 . S
O253 In247 2.266 . S
O253 C250 1.252 . S
O254 In247 2.326 . S
O254 C250 1.260 . S
O255 In247 2.266 . S
O255 C252 1.252 . S
O256 In247 2.326 . S
O256 C252 1.260 . S
C257 O248 1.240 . S
C257 O249 1.252 . S
O258 In247 2.294 . S
O258 C251 1.240 . S
O259 In247 2.326 . S
O259 C251 1.252 . S
In260 O261 2.294 . S
In260 O262 2.326 . S
In260 O266 2.266 1_554 S
In260 O267 2.326 1_554 S
In260 O268 2.266 . S
In260 O269 2.326 . S
In260 O271 2.294 1_554 S
In260 O272 2.326 1_554 S
O261 In260 2.294 . S
O261 C270 1.240 . S
O262 In260 2.326 . S
O262 C270 1.252 . S
C263 O266 1.252 . S
C263 O267 1.260 . S
C264 O271 1.240 . S
C264 O272 1.252 . S
C265 O268 1.252 . S
C265 O269 1.260 . S
O266 In260 2.266 1_556 S
O266 C263 1.252 . S
O267 In260 2.326 1_556 S
O267 C263 1.260 . S
O268 In260 2.266 . S
O268 C265 1.252 . S
O269 In260 2.326 . S
O269 C265 1.260 . S
C270 O261 1.240 . S
C270 O262 1.252 . S
O271 In260 2.294 1_556 S
O271 C264 1.240 . S
O272 In260 2.326 1_556 S
O272 C264 1.252 . S
In273 O274 2.294 . S
In273 O275 2.326 . S
In273 O279 2.266 . S
In273 O280 2.326 . S
In273 O281 2.266 . S
In273 O282 2.326 . S
In273 O284 2.294 . S
In273 O285 2.326 . S
O274 In273 2.294 . S
O274 C283 1.240 . S
O275 In273 2.326 . S
O275 C283 1.252 . S
C276 O279 1.252 . S
C276 O280 1.260 . S
C277 O284 1.240 . S
C277 O285 1.252 . S
C278 O281 1.252 . S
C278 O282 1.260 . S
O279 In273 2.266 . S
O279 C276 1.252 . S
O280 In273 2.326 . S
O280 C276 1.260 . S
O281 In273 2.266 . S
O281 C278 1.252 . S
O282 In273 2.326 . S
O282 C278 1.260 . S
C283 O274 1.240 . S
C283 O275 1.252 . S
O284 In273 2.294 . S
O284 C277 1.240 . S
O285 In273 2.326 . S
O285 C277 1.252 . S
In286 O287 2.294 . S
In286 O288 2.326 . S
In286 O292 2.266 . S
In286 O293 2.326 . S
In286 O294 2.266 . S
In286 O295 2.326 . S
In286 O297 2.294 . S
In286 O298 2.326 . S
O287 In286 2.294 . S
O287 C296 1.240 . S
O288 In286 2.326 . S
O288 C296 1.252 . S
C289 O292 1.252 . S
C289 O293 1.260 . S
C290 O297 1.240 . S
C290 O298 1.252 . S
C291 O294 1.252 . S
C291 O295 1.260 . S
O292 In286 2.266 . S
O292 C289 1.252 . S
O293 In286 2.326 . S
O293 C289 1.260 . S
O294 In286 2.266 . S
O294 C291 1.252 . S
O295 In286 2.326 . S
O295 C291 1.260 . S
C296 O287 1.240 . S
C296 O288 1.252 . S
O297 In286 2.294 . S
O297 C290 1.240 . S
O298 In286 2.326 . S
O298 C290 1.252 . S
In299 O300 2.294 . S
In299 O301 2.326 . S
In299 O305 2.266 . S
In299 O306 2.326 . S
In299 O307 2.266 . S
In299 O308 2.326 . S
In299 O310 2.294 . S
In299 O311 2.326 . S
O300 In299 2.294 . S
O300 C309 1.240 . S
O301 In299 2.326 . S
O301 C309 1.252 . S
C302 O305 1.252 . S
C302 O306 1.260 . S
C303 O310 1.240 . S
C303 O311 1.252 . S
C304 O307 1.252 . S
C304 O308 1.260 . S
O305 In299 2.266 . S
O305 C302 1.252 . S
O306 In299 2.326 . S
O306 C302 1.260 . S
O307 In299 2.266 . S
O307 C304 1.252 . S
O308 In299 2.326 . S
O308 C304 1.260 . S
C309 O300 1.240 . S
C309 O301 1.252 . S
O310 In299 2.294 . S
O310 C303 1.240 . S
O311 In299 2.326 . S
O311 C303 1.252 . S
O312 Mn313 2.163 . S
O312 C326 1.244 . S
Mn313 O312 2.163 . S
Mn313 O316 2.160 . S
Mn313 O317 2.221 . S
Mn313 O319 2.163 . S
Mn313 O321 2.160 . S
Mn313 O331 2.221 . S
O314 Mn315 2.087 . S
O314 C326 1.256 . S
Mn315 O314 2.087 . S
Mn315 O322 2.089 . S
Mn315 O331 2.290 . S
Mn315 O332 2.251 . S
O316 Mn313 2.160 . S
O316 C327 1.239 . S
O317 Mn313 2.221 . S
O317 Mn318 2.290 . S
O317 C328 1.278 . S
Mn318 O317 2.290 . S
Mn318 O320 2.089 . S
Mn318 O323 2.251 . S
Mn318 O324 2.087 . S
O319 Mn313 2.163 . S
O319 C329 1.244 . S
O320 Mn318 2.089 . S
O320 C327 1.256 . S
O321 Mn313 2.160 . S
O321 C330 1.239 . S
O322 Mn315 2.089 . S
O322 C330 1.256 . S
O323 Mn318 2.251 . S
O323 C328 1.241 . S
O324 Mn318 2.087 . S
O324 C329 1.256 . S
C325 O331 1.278 . S
C325 O332 1.241 . S
C326 O312 1.244 . S
C326 O314 1.256 . S
C327 O316 1.239 . S
C327 O320 1.256 . S
C328 O317 1.278 . S
C328 O323 1.241 . S
C329 O319 1.244 . S
C329 O324 1.256 . S
C330 O321 1.239 . S
C330 O322 1.256 . S
O331 Mn313 2.221 . S
O331 Mn315 2.290 . S
O331 C325 1.278 . S
O332 Mn315 2.251 . S
O332 C325 1.241 . S
O333 Mn334 2.163 . S
O333 C347 1.244 . S
Mn334 O333 2.163 . S
Mn334 O337 2.160 . S
Mn334 O338 2.221 . S
Mn334 O340 2.163 . S
Mn334 O342 2.160 . S
Mn334 O352 2.221 . S
O335 Mn336 2.087 . S
O335 C347 1.256 . S
Mn336 O335 2.087 . S
Mn336 O343 2.089 . S
Mn336 O352 2.290 . S
Mn336 O353 2.251 . S
O337 Mn334 2.160 . S
O337 C348 1.239 . S
O338 Mn334 2.221 . S
O338 Mn339 2.290 . S
O338 C349 1.278 . S
Mn339 O338 2.290 . S
Mn339 O341 2.089 . S
Mn339 O344 2.251 . S
Mn339 O345 2.087 . S
O340 Mn334 2.163 . S
O340 C350 1.244 . S
O341 Mn339 2.089 . S
O341 C348 1.256 . S
O342 Mn334 2.160 . S
O342 C351 1.239 . S
O343 Mn336 2.089 . S
O343 C351 1.256 . S
O344 Mn339 2.251 . S
O344 C349 1.241 . S
O345 Mn339 2.087 . S
O345 C350 1.256 . S
C346 O352 1.278 . S
C346 O353 1.241 . S
C347 O333 1.244 . S
C347 O335 1.256 . S
C348 O337 1.239 . S
C348 O341 1.256 . S
C349 O338 1.278 . S
C349 O344 1.241 . S
C350 O340 1.244 . S
C350 O345 1.256 . S
C351 O342 1.239 . S
C351 O343 1.256 . S
O352 Mn334 2.221 . S
O352 Mn336 2.290 . S
O352 C346 1.278 . S
O353 Mn336 2.251 . S
O353 C346 1.241 . S
O354 Mn355 2.163 . S
O354 C368 1.244 . S
Mn355 O354 2.163 . S
Mn355 O358 2.160 . S
Mn355 O359 2.221 . S
Mn355 O361 2.163 . S
Mn355 O363 2.160 . S
Mn355 O373 2.221 . S
O356 Mn357 2.094 . S
O356 C368 1.274 . S
Mn357 O356 2.094 . S
Mn357 O364 2.089 . S
Mn357 O373 2.290 . S
Mn357 O374 2.251 1_565 S
O358 Mn355 2.160 . S
O358 C369 1.239 . S
O359 Mn355 2.221 . S
O359 Mn360 2.290 . S
O359 C370 1.278 . S
Mn360 O359 2.290 . S
Mn360 O362 2.089 . S
Mn360 O365 2.251 . S
Mn360 O366 2.087 . S
O361 Mn355 2.163 . S
O361 C371 1.244 . S
O362 Mn360 2.089 . S
O362 C369 1.256 . S
O363 Mn355 2.160 . S
O363 C372 1.239 . S
O364 Mn357 2.089 . S
O364 C372 1.256 . S
O365 Mn360 2.251 . S
O365 C370 1.241 . S
O366 Mn360 2.087 . S
O366 C371 1.256 . S
C367 O373 1.278 . S
C367 O374 1.241 1_565 S
C368 O354 1.244 . S
C368 O356 1.274 . S
C369 O358 1.239 . S
C369 O362 1.256 . S
C370 O359 1.278 . S
C370 O365 1.241 . S
C371 O361 1.244 . S
C371 O366 1.256 . S
C372 O363 1.239 . S
C372 O364 1.256 . S
O373 Mn355 2.221 . S
O373 Mn357 2.290 . S
O373 C367 1.278 . S
O374 Mn357 2.251 1_545 S
O374 C367 1.241 1_545 S
O375 Mn376 2.163 . S
O375 C389 1.244 . S
Mn376 O375 2.163 . S
Mn376 O379 2.160 . S
Mn376 O380 2.221 . S
Mn376 O382 2.163 . S
Mn376 O384 2.160 . S
Mn376 O394 2.221 . S
O377 Mn378 2.087 . S
O377 C389 1.256 . S
Mn378 O377 2.087 . S
Mn378 O385 2.089 . S
Mn378 O394 2.290 . S
Mn378 O395 2.251 . S
O379 Mn376 2.160 . S
O379 C390 1.239 . S
O380 Mn376 2.221 . S
O380 Mn381 2.290 . S
O380 C391 1.278 . S
Mn381 O380 2.290 . S
Mn381 O383 2.089 . S
Mn381 O386 2.251 . S
Mn381 O387 2.087 . S
O382 Mn376 2.163 . S
O382 C392 1.244 . S
O383 Mn381 2.089 . S
O383 C390 1.256 . S
O384 Mn376 2.160 . S
O384 C393 1.239 . S
O385 Mn378 2.089 . S
O385 C393 1.256 . S
O386 Mn381 2.251 . S
O386 C391 1.241 . S
O387 Mn381 2.087 . S
O387 C392 1.256 . S
C388 O394 1.278 . S
C388 O395 1.241 . S
C389 O375 1.244 . S
C389 O377 1.256 . S
C390 O379 1.239 . S
C390 O383 1.256 . S
C391 O380 1.278 . S
C391 O386 1.241 . S
C392 O382 1.244 . S
C392 O387 1.256 . S
C393 O384 1.239 . S
C393 O385 1.256 . S
O394 Mn376 2.221 . S
O394 Mn378 2.290 . S
O394 C388 1.278 . S
O395 Mn378 2.251 . S
O395 C388 1.241 . S
O396 Mn397 2.163 . S
O396 C410 1.244 . S
Mn397 O396 2.163 . S
Mn397 O400 2.160 . S
Mn397 O401 2.221 . S
Mn397 O403 2.163 . S
Mn397 O405 2.160 . S
Mn397 O415 2.221 . S
O398 Mn399 2.087 . S
O398 C410 1.256 . S
Mn399 O398 2.087 . S
Mn399 O406 2.089 . S
Mn399 O415 2.290 . S
Mn399 O416 2.251 . S
O400 Mn397 2.160 . S
O400 C411 1.239 . S
O401 Mn397 2.221 . S
O401 Mn402 2.290 . S
O401 C412 1.278 . S
Mn402 O401 2.290 . S
Mn402 O404 2.089 . S
Mn402 O407 2.251 . S
Mn402 O408 2.087 . S
O403 Mn397 2.163 . S
O403 C413 1.244 . S
O404 Mn402 2.089 . S
O404 C411 1.256 . S
O405 Mn397 2.160 . S
O405 C414 1.239 . S
O406 Mn399 2.089 . S
O406 C414 1.256 . S
O407 Mn402 2.251 . S
O407 C412 1.241 . S
O408 Mn402 2.087 . S
O408 C413 1.256 . S
C409 O415 1.278 . S
C409 O416 1.241 . S
C410 O396 1.244 . S
C410 O398 1.256 . S
C411 O400 1.239 . S
C411 O404 1.256 . S
C412 O401 1.278 . S
C412 O407 1.241 . S
C413 O403 1.244 . S
C413 O408 1.256 . S
C414 O405 1.239 . S
C414 O406 1.256 . S
O415 Mn397 2.221 . S
O415 Mn399 2.290 . S
O415 C409 1.278 . S
O416 Mn399 2.251 . S
O416 C409 1.241 . S
O417 Mn418 2.163 . S
O417 C431 1.244 . S
Mn418 O417 2.163 . S
Mn418 O421 2.160 . S
Mn418 O422 2.221 . S
Mn418 O424 2.163 . S
Mn418 O426 2.160 . S
Mn418 O436 2.221 . S
O419 Mn420 2.087 . S
O419 C431 1.256 . S
Mn420 O419 2.087 . S
Mn420 O427 2.089 . S
Mn420 O436 2.290 . S
Mn420 O437 2.251 . S
O421 Mn418 2.160 . S
O421 C432 1.239 . S
O422 Mn418 2.221 . S
O422 Mn423 2.290 . S
O422 C433 1.278 . S
Mn423 O422 2.290 . S
Mn423 O425 2.089 . S
Mn423 O428 2.251 . S
Mn423 O429 2.087 . S
O424 Mn418 2.163 . S
O424 C434 1.244 . S
O425 Mn423 2.089 . S
O425 C432 1.256 . S
O426 Mn418 2.160 . S
O426 C435 1.239 . S
O427 Mn420 2.089 . S
O427 C435 1.256 . S
O428 Mn423 2.251 . S
O428 C433 1.241 . S
O429 Mn423 2.087 . S
O429 C434 1.256 . S
C430 O436 1.278 . S
C430 O437 1.241 . S
C431 O417 1.244 . S
C431 O419 1.256 . S
C432 O421 1.239 . S
C432 O425 1.256 . S
C433 O422 1.278 . S
C433 O428 1.241 . S
C434 O424 1.244 . S
C434 O429 1.256 . S
C435 O426 1.239 . S
C435 O427 1.256 . S
O436 Mn418 2.221 . S
O436 Mn420 2.290 . S
O436 C430 1.278 . S
O437 Mn420 2.251 . S
O437 C430 1.241 . S
O438 Mn439 2.163 . S
O438 C452 1.244 . S
Mn439 O438 2.163 . S
Mn439 O442 2.160 . S
Mn439 O443 2.221 . S
Mn439 O445 2.163 . S
Mn439 O447 2.160 . S
Mn439 O457 2.221 . S
O440 Mn441 2.087 . S
O440 C452 1.256 . S
Mn441 O440 2.087 . S
Mn441 O448 2.089 . S
Mn441 O457 2.290 . S
Mn441 O458 2.251 . S
O442 Mn439 2.160 . S
O442 C453 1.239 . S
O443 Mn439 2.221 . S
O443 Mn444 2.290 . S
O443 C454 1.278 . S
Mn444 O443 2.290 . S
Mn444 O446 2.089 . S
Mn444 O449 2.251 . S
Mn444 O450 2.087 . S
O445 Mn439 2.163 . S
O445 C455 1.244 . S
O446 Mn444 2.089 . S
O446 C453 1.256 . S
O447 Mn439 2.160 . S
O447 C456 1.239 . S
O448 Mn441 2.089 . S
O448 C456 1.256 . S
O449 Mn444 2.251 . S
O449 C454 1.241 . S
O450 Mn444 2.087 . S
O450 C455 1.256 . S
C451 O457 1.278 . S
C451 O458 1.241 . S
C452 O438 1.244 . S
C452 O440 1.256 . S
C453 O442 1.239 . S
C453 O446 1.256 . S
C454 O443 1.278 . S
C454 O449 1.241 . S
C455 O445 1.244 . S
C455 O450 1.256 . S
C456 O447 1.239 . S
C456 O448 1.256 . S
O457 Mn439 2.221 . S
O457 Mn441 2.290 . S
O457 C451 1.278 . S
O458 Mn441 2.251 . S
O458 C451 1.241 . S
O459 Mn460 2.163 . S
O459 C473 1.244 . S
Mn460 O459 2.163 . S
Mn460 O463 2.160 . S
Mn460 O464 2.221 . S
Mn460 O466 2.163 . S
Mn460 O468 2.160 . S
Mn460 O478 2.221 . S
O461 Mn462 2.087 . S
O461 C473 1.256 . S
Mn462 O461 2.087 . S
Mn462 O469 2.089 . S
Mn462 O478 2.290 . S
Mn462 O479 2.251 . S
O463 Mn460 2.160 . S
O463 C474 1.239 . S
O464 Mn460 2.221 . S
O464 Mn465 2.290 . S
O464 C475 1.278 . S
Mn465 O464 2.290 . S
Mn465 O467 2.102 . S
Mn465 O470 2.251 . S
Mn465 O471 2.087 . S
O466 Mn460 2.163 . S
O466 C476 1.244 . S
O467 Mn465 2.102 . S
O467 C474 1.263 . S
O468 Mn460 2.160 . S
O468 C477 1.239 . S
O469 Mn462 2.089 . S
O469 C477 1.256 . S
O470 Mn465 2.251 . S
O470 C475 1.241 . S
O471 Mn465 2.087 . S
O471 C476 1.256 . S
C472 O478 1.278 . S
C472 O479 1.241 . S
C473 O459 1.244 . S
C473 O461 1.256 . S
C474 O463 1.239 . S
C474 O467 1.263 . S
C475 O464 1.278 . S
C475 O470 1.241 . S
C476 O466 1.244 . S
C476 O471 1.256 . S
C477 O468 1.239 . S
C477 O469 1.256 . S
O478 Mn460 2.221 . S
O478 Mn462 2.290 . S
O478 C472 1.278 . S
O479 Mn462 2.251 . S
O479 C472 1.241 . S
O480 Mn481 2.163 . S
O480 C494 1.244 . S
Mn481 O480 2.163 . S
Mn481 O484 2.160 . S
Mn481 O485 2.221 . S
Mn481 O487 2.163 . S
Mn481 O489 2.160 . S
Mn481 O499 2.221 . S
O482 Mn483 2.087 . S
O482 C494 1.256 . S
Mn483 O482 2.087 . S
Mn483 O490 2.089 . S
Mn483 O499 2.290 . S
Mn483 O500 2.251 . S
O484 Mn481 2.160 . S
O484 C495 1.239 . S
O485 Mn481 2.221 . S
O485 Mn486 2.290 . S
O485 C496 1.278 . S
Mn486 O485 2.290 . S
Mn486 O488 2.089 . S
Mn486 O491 2.251 . S
Mn486 O492 2.087 . S
O487 Mn481 2.163 . S
O487 C497 1.244 . S
O488 Mn486 2.089 . S
O488 C495 1.256 . S
O489 Mn481 2.160 . S
O489 C498 1.239 . S
O490 Mn483 2.089 . S
O490 C498 1.256 . S
O491 Mn486 2.251 . S
O491 C496 1.241 . S
O492 Mn486 2.087 . S
O492 C497 1.256 . S
C493 O499 1.278 . S
C493 O500 1.241 . S
C494 O480 1.244 . S
C494 O482 1.256 . S
C495 O484 1.239 . S
C495 O488 1.256 . S
C496 O485 1.278 . S
C496 O491 1.241 . S
C497 O487 1.244 . S
C497 O492 1.256 . S
C498 O489 1.239 . S
C498 O490 1.256 . S
O499 Mn481 2.221 . S
O499 Mn483 2.290 . S
O499 C493 1.278 . S
O500 Mn483 2.251 . S
O500 C493 1.241 . S
O501 Mn502 2.163 . S
O501 C515 1.244 . S
Mn502 O501 2.163 . S
Mn502 O505 2.160 . S
Mn502 O506 2.221 . S
Mn502 O508 2.163 . S
Mn502 O510 2.160 . S
Mn502 O520 2.221 . S
O503 Mn504 2.087 . S
O503 C515 1.256 . S
Mn504 O503 2.087 . S
Mn504 O511 2.089 . S
Mn504 O520 2.290 . S
Mn504 O521 2.251 . S
O505 Mn502 2.160 . S
O505 C516 1.239 . S
O506 Mn502 2.221 . S
O506 Mn507 2.290 . S
O506 C517 1.278 . S
Mn507 O506 2.290 . S
Mn507 O509 2.089 . S
Mn507 O512 2.251 . S
Mn507 O513 2.087 . S
O508 Mn502 2.163 . S
O508 C518 1.244 . S
O509 Mn507 2.089 . S
O509 C516 1.256 . S
O510 Mn502 2.160 . S
O510 C519 1.239 . S
O511 Mn504 2.089 . S
O511 C519 1.256 . S
O512 Mn507 2.251 . S
O512 C517 1.241 . S
O513 Mn507 2.087 . S
O513 C518 1.256 . S
C514 O520 1.278 . S
C514 O521 1.241 . S
C515 O501 1.244 . S
C515 O503 1.256 . S
C516 O505 1.239 . S
C516 O509 1.256 . S
C517 O506 1.278 . S
C517 O512 1.241 . S
C518 O508 1.244 . S
C518 O513 1.256 . S
C519 O510 1.239 . S
C519 O511 1.256 . S
O520 Mn502 2.221 . S
O520 Mn504 2.290 . S
O520 C514 1.278 . S
O521 Mn504 2.251 . S
O521 C514 1.241 . S
O522 Mn523 2.163 . S
O522 C536 1.244 . S
Mn523 O522 2.163 . S
Mn523 O526 2.160 . S
Mn523 O527 2.221 . S
Mn523 O529 2.163 . S
Mn523 O531 2.160 . S
Mn523 O541 2.221 . S
O524 Mn525 2.087 . S
O524 C536 1.256 . S
Mn525 O524 2.087 . S
Mn525 O532 2.089 . S
Mn525 O541 2.290 . S
Mn525 O542 2.251 . S
O526 Mn523 2.160 . S
O526 C537 1.239 . S
O527 Mn523 2.221 . S
O527 Mn528 2.290 . S
O527 C538 1.278 . S
Mn528 O527 2.290 . S
Mn528 O530 2.089 . S
Mn528 O533 2.251 . S
Mn528 O534 2.087 . S
O529 Mn523 2.163 . S
O529 C539 1.244 . S
O530 Mn528 2.089 . S
O530 C537 1.256 . S
O531 Mn523 2.160 . S
O531 C540 1.239 . S
O532 Mn525 2.089 . S
O532 C540 1.256 . S
O533 Mn528 2.251 . S
O533 C538 1.241 . S
O534 Mn528 2.087 . S
O534 C539 1.256 . S
C535 O541 1.278 . S
C535 O542 1.241 . S
C536 O522 1.244 . S
C536 O524 1.256 . S
C537 O526 1.239 . S
C537 O530 1.256 . S
C538 O527 1.278 . S
C538 O533 1.241 . S
C539 O529 1.244 . S
C539 O534 1.256 . S
C540 O531 1.239 . S
C540 O532 1.256 . S
O541 Mn523 2.221 . S
O541 Mn525 2.290 . S
O541 C535 1.278 . S
O542 Mn525 2.251 . S
O542 C535 1.241 . S
O543 Mn544 2.163 . S
O543 C557 1.244 . S
Mn544 O543 2.163 . S
Mn544 O547 2.160 . S
Mn544 O548 2.221 . S
Mn544 O550 2.163 . S
Mn544 O552 2.160 . S
Mn544 O562 2.221 . S
O545 Mn546 2.087 . S
O545 C557 1.256 . S
Mn546 O545 2.087 . S
Mn546 O553 2.089 . S
Mn546 O562 2.290 . S
Mn546 O563 2.251 . S
O547 Mn544 2.160 . S
O547 C558 1.239 . S
O548 Mn544 2.221 . S
O548 Mn549 2.290 . S
O548 C559 1.278 . S
Mn549 O548 2.290 . S
Mn549 O551 2.089 . S
Mn549 O554 2.251 . S
Mn549 O555 2.087 . S
O550 Mn544 2.163 . S
O550 C560 1.244 . S
O551 Mn549 2.089 . S
O551 C558 1.256 . S
O552 Mn544 2.160 . S
O552 C561 1.239 . S
O553 Mn546 2.089 . S
O553 C561 1.256 . S
O554 Mn549 2.251 . S
O554 C559 1.241 . S
O555 Mn549 2.087 . S
O555 C560 1.256 . S
C556 O562 1.278 . S
C556 O563 1.241 . S
C557 O543 1.244 . S
C557 O545 1.256 . S
C558 O547 1.239 . S
C558 O551 1.256 . S
C559 O548 1.278 . S
C559 O554 1.241 . S
C560 O550 1.244 . S
C560 O555 1.256 . S
C561 O552 1.239 . S
C561 O553 1.256 . S
O562 Mn544 2.221 . S
O562 Mn546 2.290 . S
O562 C556 1.278 . S
O563 Mn546 2.251 . S
O563 C556 1.241 . S
O564 Mn565 2.163 . S
O564 C578 1.244 . S
Mn565 O564 2.163 . S
Mn565 O568 2.160 . S
Mn565 O569 2.221 . S
Mn565 O571 2.163 . S
Mn565 O573 2.160 . S
Mn565 O583 2.221 . S
O566 Mn567 2.087 . S
O566 C578 1.256 . S
Mn567 O566 2.087 . S
Mn567 O574 2.089 . S
Mn567 O583 2.290 . S
Mn567 O584 2.251 . S
O568 Mn565 2.160 . S
O568 C579 1.239 . S
O569 Mn565 2.221 . S
O569 Mn570 2.290 . S
O569 C580 1.278 . S
Mn570 O569 2.290 . S
Mn570 O572 2.089 . S
Mn570 O575 2.251 . S
Mn570 O576 2.087 . S
O571 Mn565 2.163 . S
O571 C581 1.244 . S
O572 Mn570 2.089 . S
O572 C579 1.256 . S
O573 Mn565 2.160 . S
O573 C582 1.239 . S
O574 Mn567 2.089 . S
O574 C582 1.256 . S
O575 Mn570 2.251 . S
O575 C580 1.241 . S
O576 Mn570 2.087 . S
O576 C581 1.256 . S
C577 O583 1.278 . S
C577 O584 1.241 . S
C578 O564 1.244 . S
C578 O566 1.256 . S
C579 O568 1.239 . S
C579 O572 1.256 . S
C580 O569 1.278 . S
C580 O575 1.241 . S
C581 O571 1.244 . S
C581 O576 1.256 . S
C582 O573 1.239 . S
C582 O574 1.256 . S
O583 Mn565 2.221 . S
O583 Mn567 2.290 . S
O583 C577 1.278 . S
O584 Mn567 2.251 . S
O584 C577 1.241 . S
O585 Mn586 2.163 . S
O585 C599 1.244 . S
Mn586 O585 2.163 . S
Mn586 O589 2.160 . S
Mn586 O590 2.221 . S
Mn586 O592 2.163 . S
Mn586 O594 2.160 . S
Mn586 O604 2.221 . S
O587 Mn588 2.087 . S
O587 C599 1.256 . S
Mn588 O587 2.087 . S
Mn588 O595 2.089 . S
Mn588 O604 2.290 . S
Mn588 O605 2.251 . S
O589 Mn586 2.160 . S
O589 C600 1.239 . S
O590 Mn586 2.221 . S
O590 Mn591 2.290 . S
O590 C601 1.278 . S
Mn591 O590 2.290 . S
Mn591 O593 2.089 . S
Mn591 O596 2.251 . S
Mn591 O597 2.087 . S
O592 Mn586 2.163 . S
O592 C602 1.244 . S
O593 Mn591 2.089 . S
O593 C600 1.256 . S
O594 Mn586 2.160 . S
O594 C603 1.239 . S
O595 Mn588 2.089 . S
O595 C603 1.256 . S
O596 Mn591 2.251 . S
O596 C601 1.241 . S
O597 Mn591 2.087 . S
O597 C602 1.256 . S
C598 O604 1.278 . S
C598 O605 1.241 . S
C599 O585 1.244 . S
C599 O587 1.256 . S
C600 O589 1.239 . S
C600 O593 1.256 . S
C601 O590 1.278 . S
C601 O596 1.241 . S
C602 O592 1.244 . S
C602 O597 1.256 . S
C603 O594 1.239 . S
C603 O595 1.256 . S
O604 Mn586 2.221 . S
O604 Mn588 2.290 . S
O604 C598 1.278 . S
O605 Mn588 2.251 . S
O605 C598 1.241 . S
O606 Mn607 2.163 . S
O606 C620 1.244 . S
Mn607 O606 2.163 . S
Mn607 O610 2.160 . S
Mn607 O611 2.221 . S
Mn607 O613 2.163 . S
Mn607 O615 2.160 . S
Mn607 O625 2.221 . S
O608 Mn609 2.087 . S
O608 C620 1.256 . S
Mn609 O608 2.087 . S
Mn609 O616 2.089 . S
Mn609 O625 2.290 . S
Mn609 O626 2.251 . S
O610 Mn607 2.160 . S
O610 C621 1.239 . S
O611 Mn607 2.221 . S
O611 Mn612 2.290 . S
O611 C622 1.278 . S
Mn612 O611 2.290 . S
Mn612 O614 2.089 . S
Mn612 O617 2.251 . S
Mn612 O618 2.087 . S
O613 Mn607 2.163 . S
O613 C623 1.244 . S
O614 Mn612 2.089 . S
O614 C621 1.256 . S
O615 Mn607 2.160 . S
O615 C624 1.239 . S
O616 Mn609 2.089 . S
O616 C624 1.256 . S
O617 Mn612 2.251 . S
O617 C622 1.241 . S
O618 Mn612 2.087 . S
O618 C623 1.256 . S
C619 O625 1.278 . S
C619 O626 1.241 . S
C620 O606 1.244 . S
C620 O608 1.256 . S
C621 O610 1.239 . S
C621 O614 1.256 . S
C622 O611 1.278 . S
C622 O617 1.241 . S
C623 O613 1.244 . S
C623 O618 1.256 . S
C624 O615 1.239 . S
C624 O616 1.256 . S
O625 Mn607 2.221 . S
O625 Mn609 2.290 . S
O625 C619 1.278 . S
O626 Mn609 2.251 . S
O626 C619 1.241 . S
O627 Mn628 2.163 . S
O627 C641 1.244 . S
Mn628 O627 2.163 . S
Mn628 O631 2.160 . S
Mn628 O632 2.221 . S
Mn628 O634 2.163 . S
Mn628 O636 2.160 . S
Mn628 O646 2.221 . S
O629 Mn630 2.087 . S
O629 C641 1.256 . S
Mn630 O629 2.087 . S
Mn630 O637 2.089 . S
Mn630 O646 2.290 . S
Mn630 O647 2.251 . S
O631 Mn628 2.160 . S
O631 C642 1.239 . S
O632 Mn628 2.221 . S
O632 Mn633 2.290 . S
O632 C643 1.278 . S
Mn633 O632 2.290 . S
Mn633 O635 2.089 . S
Mn633 O638 2.251 . S
Mn633 O639 2.087 . S
O634 Mn628 2.163 . S
O634 C644 1.244 . S
O635 Mn633 2.089 . S
O635 C642 1.256 . S
O636 Mn628 2.160 . S
O636 C645 1.239 . S
O637 Mn630 2.089 . S
O637 C645 1.256 . S
O638 Mn633 2.251 . S
O638 C643 1.241 . S
O639 Mn633 2.087 . S
O639 C644 1.256 . S
C640 O646 1.278 . S
C640 O647 1.241 . S
C641 O627 1.244 . S
C641 O629 1.256 . S
C642 O631 1.239 . S
C642 O635 1.256 . S
C643 O632 1.278 . S
C643 O638 1.241 . S
C644 O634 1.244 . S
C644 O639 1.256 . S
C645 O636 1.239 . S
C645 O637 1.256 . S
O646 Mn628 2.221 . S
O646 Mn630 2.290 . S
O646 C640 1.278 . S
O647 Mn630 2.251 . S
O647 C640 1.241 . S
C648 C649 1.363 . S
C648 C654 1.379 . S
C648 N656 1.356 . S
C649 C648 1.363 . S
C649 C655 1.363 . S
C650 C651 1.363 . S
C650 C655 1.379 . S
C650 N657 1.356 . S
C651 C650 1.363 . S
C651 C654 1.363 . S
N652 C654 1.356 . S
N652 H664 0.984 . S
N652 H665 0.985 . S
N653 C655 1.356 . S
N653 H658 0.984 . S
N653 H659 0.985 . S
C654 C648 1.379 . S
C654 C651 1.363 . S
C654 N652 1.356 . S
C655 C649 1.363 . S
C655 C650 1.379 . S
C655 N653 1.356 . S
N656 C648 1.356 . S
N656 H662 0.984 . S
N656 H663 0.984 . S
N657 C650 1.356 . S
N657 H660 0.984 . S
N657 H661 0.985 . S
H658 N653 0.984 . S
H659 N653 0.985 . S
H660 N657 0.984 . S
H661 N657 0.985 . S
H662 N656 0.984 . S
H663 N656 0.984 . S
H664 N652 0.984 . S
H665 N652 0.985 . S
C666 C667 1.363 . S
C666 C672 1.379 . S
C666 N674 1.356 . S
C667 C666 1.363 . S
C667 C673 1.363 . S
C668 C669 1.363 . S
C668 C673 1.379 . S
C668 N675 1.356 . S
C669 C668 1.363 . S
C669 C672 1.363 . S
N670 C672 1.356 . S
N670 H682 0.984 . S
N670 H683 0.985 . S
N671 C673 1.356 . S
N671 H676 0.984 . S
N671 H677 0.985 . S
C672 C666 1.379 . S
C672 C669 1.363 . S
C672 N670 1.356 . S
C673 C667 1.363 . S
C673 C668 1.379 . S
C673 N671 1.356 . S
N674 C666 1.356 . S
N674 H680 0.984 . S
N674 H681 0.984 . S
N675 C668 1.356 . S
N675 H678 0.984 . S
N675 H679 0.985 . S
H676 N671 0.984 . S
H677 N671 0.985 . S
H678 N675 0.984 . S
H679 N675 0.985 . S
H680 N674 0.984 . S
H681 N674 0.984 . S
H682 N670 0.984 . S
H683 N670 0.985 . S
C684 C685 1.363 . S
C684 C690 1.379 . S
C684 N692 1.356 . S
C685 C684 1.363 . S
C685 C691 1.363 . S
C686 C687 1.363 . S
C686 C691 1.379 . S
C686 N693 1.356 . S
C687 C686 1.363 . S
C687 C690 1.363 . S
N688 C690 1.356 . S
N688 H700 0.984 . S
N688 H701 0.985 . S
N689 C691 1.356 . S
N689 H694 0.984 . S
N689 H695 0.985 . S
C690 C684 1.379 . S
C690 C687 1.363 . S
C690 N688 1.356 . S
C691 C685 1.363 . S
C691 C686 1.379 . S
C691 N689 1.356 . S
N692 C684 1.356 . S
N692 H698 0.984 . S
N692 H699 0.984 . S
N693 C686 1.356 . S
N693 H696 0.984 . S
N693 H697 0.985 . S
H694 N689 0.984 . S
H695 N689 0.985 . S
H696 N693 0.984 . S
H697 N693 0.985 . S
H698 N692 0.984 . S
H699 N692 0.984 . S
H700 N688 0.984 . S
H701 N688 0.985 . S
C702 C703 1.363 . S
C702 C708 1.379 . S
C702 N710 1.356 . S
C703 C702 1.363 . S
C703 C709 1.363 . S
C704 C705 1.361 1_554 S
C704 C709 1.388 . S
C704 N711 1.348 1_554 S
C705 C704 1.361 1_556 S
C705 C708 1.363 1_556 S
N706 C708 1.347 1_556 S
N706 H718 0.976 1_556 S
N706 H719 1.002 . S
N707 C709 1.356 . S
N707 H712 0.984 . S
N707 H713 0.985 . S
C708 C702 1.379 . S
C708 C705 1.363 1_554 S
C708 N706 1.347 1_554 S
C709 C703 1.363 . S
C709 C704 1.388 . S
C709 N707 1.356 . S
N710 C702 1.356 . S
N710 H716 0.984 . S
N710 H717 0.984 . S
N711 C704 1.348 1_556 S
N711 H714 0.984 . S
N711 H715 0.985 . S
H712 N707 0.984 . S
H713 N707 0.985 . S
H714 N711 0.984 . S
H715 N711 0.985 . S
H716 N710 0.984 . S
H717 N710 0.984 . S
H718 N706 0.976 1_554 S
H719 N706 1.002 . S
C720 C721 1.363 . S
C720 C726 1.379 . S
C720 N728 1.356 . S
C721 C720 1.363 . S
C721 C727 1.363 . S
C722 C723 1.363 . S
C722 C727 1.379 . S
C722 N729 1.356 . S
C723 C722 1.363 . S
C723 C726 1.363 . S
N724 C726 1.356 . S
N724 H736 0.984 . S
N724 H737 0.985 . S
N725 C727 1.356 . S
N725 H730 0.984 . S
N725 H731 0.978 1_455 S
C726 C720 1.379 . S
C726 C723 1.363 . S
C726 N724 1.356 . S
C727 C721 1.363 . S
C727 C722 1.379 . S
C727 N725 1.356 . S
N728 C720 1.356 . S
N728 H734 0.984 . S
N728 H735 0.984 . S
N729 C722 1.356 . S
N729 H732 0.984 . S
N729 H733 0.985 . S
H730 N725 0.984 . S
H731 N725 0.978 1_655 S
H732 N729 0.984 . S
H733 N729 0.985 . S
H734 N728 0.984 . S
H735 N728 0.984 . S
H736 N724 0.984 . S
H737 N724 0.985 . S
C738 C739 1.363 . S
C738 C744 1.379 . S
C738 N746 1.356 . S
C739 C738 1.363 . S
C739 C745 1.363 . S
C740 C741 1.363 . S
C740 C745 1.379 . S
C740 N747 1.356 . S
C741 C740 1.363 . S
C741 C744 1.363 . S
N742 C744 1.356 . S
N742 H754 0.984 . S
N742 H755 0.985 . S
N743 C745 1.356 . S
N743 H748 0.984 . S
N743 H749 0.985 . S
C744 C738 1.379 . S
C744 C741 1.363 . S
C744 N742 1.356 . S
C745 C739 1.363 . S
C745 C740 1.379 . S
C745 N743 1.356 . S
N746 C738 1.356 . S
N746 H752 0.984 . S
N746 H753 0.984 . S
N747 C740 1.356 . S
N747 H750 0.984 . S
N747 H751 0.985 . S
H748 N743 0.984 . S
H749 N743 0.985 . S
H750 N747 0.984 . S
H751 N747 0.985 . S
H752 N746 0.984 . S
H753 N746 0.984 . S
H754 N742 0.984 . S
H755 N742 0.985 . S
C756 C757 1.363 . S
C756 C762 1.379 . S
C756 N764 1.356 . S
C757 C756 1.363 . S
C757 C763 1.363 . S
C758 C759 1.363 . S
C758 C763 1.379 . S
C758 N765 1.356 . S
C759 C758 1.363 . S
C759 C762 1.363 . S
N760 C762 1.356 . S
N760 H772 0.984 . S
N760 H773 0.985 . S
N761 C763 1.356 . S
N761 H766 0.984 . S
N761 H767 0.985 . S
C762 C756 1.379 . S
C762 C759 1.363 . S
C762 N760 1.356 . S
C763 C757 1.363 . S
C763 C758 1.379 . S
C763 N761 1.356 . S
N764 C756 1.356 . S
N764 H770 0.984 . S
N764 H771 0.984 . S
N765 C758 1.356 . S
N765 H768 0.984 . S
N765 H769 0.985 . S
H766 N761 0.984 . S
H767 N761 0.985 . S
H768 N765 0.984 . S
H769 N765 0.985 . S
H770 N764 0.984 . S
H771 N764 0.984 . S
H772 N760 0.984 . S
H773 N760 0.985 . S
C774 C775 1.363 . S
C774 C780 1.379 1_556 S
C774 N782 1.356 . S
C775 C774 1.363 . S
C775 C781 1.363 1_556 S
C776 C777 1.363 . S
C776 C781 1.379 . S
C776 N783 1.356 . S
C777 C776 1.363 . S
C777 C780 1.363 . S
N778 C780 1.356 . S
N778 H790 0.984 . S
N778 H791 0.985 . S
N779 C781 1.356 . S
N779 H784 0.984 1_554 S
N779 H785 0.985 . S
C780 C774 1.379 1_554 S
C780 C777 1.363 . S
C780 N778 1.356 . S
C781 C775 1.363 1_554 S
C781 C776 1.379 . S
C781 N779 1.356 . S
N782 C774 1.356 . S
N782 H788 0.984 . S
N782 H789 0.984 . S
N783 C776 1.356 . S
N783 H786 0.984 . S
N783 H787 0.985 . S
H784 N779 0.984 1_556 S
H785 N779 0.985 . S
H786 N783 0.984 . S
H787 N783 0.985 . S
H788 N782 0.984 . S
H789 N782 0.984 . S
H790 N778 0.984 . S
H791 N778 0.985 . S
C792 C793 1.363 . S
C792 C798 1.379 . S
C792 N800 1.356 . S
C793 C792 1.363 . S
C793 C799 1.363 . S
C794 C795 1.363 . S
C794 C799 1.379 . S
C794 N801 1.356 . S
C795 C794 1.363 . S
C795 C798 1.363 . S
N796 C798 1.356 . S
N796 H808 0.984 . S
N796 H809 0.985 . S
N797 C799 1.356 . S
N797 H802 0.984 . S
N797 H803 0.985 . S
C798 C792 1.379 . S
C798 C795 1.363 . S
C798 N796 1.356 . S
C799 C793 1.363 . S
C799 C794 1.379 . S
C799 N797 1.356 . S
N800 C792 1.356 . S
N800 H806 0.984 . S
N800 H807 0.984 . S
N801 C794 1.356 . S
N801 H804 0.984 . S
N801 H805 0.985 . S
H802 N797 0.984 . S
H803 N797 0.985 . S
H804 N801 0.984 . S
H805 N801 0.985 . S
H806 N800 0.984 . S
H807 N800 0.984 . S
H808 N796 0.984 . S
H809 N796 0.985 . S
C810 C811 1.363 . S
C810 C816 1.379 . S
C810 N818 1.356 . S
C811 C810 1.363 . S
C811 C817 1.363 . S
C812 C813 1.363 1_545 S
C812 C817 1.379 . S
C812 N819 1.356 1_545 S
C813 C812 1.363 1_565 S
C813 C816 1.363 1_565 S
N814 C816 1.356 1_565 S
N814 H826 0.985 . S
N814 H827 0.985 . S
N815 C817 1.356 . S
N815 H820 0.984 . S
N815 H821 0.985 . S
C816 C810 1.379 . S
C816 C813 1.363 1_545 S
C816 N814 1.356 1_545 S
C817 C811 1.363 . S
C817 C812 1.379 . S
C817 N815 1.356 . S
N818 C810 1.356 . S
N818 H824 0.984 . S
N818 H825 0.984 . S
N819 C812 1.356 1_565 S
N819 H822 0.984 . S
N819 H823 0.985 . S
H820 N815 0.984 . S
H821 N815 0.985 . S
H822 N819 0.984 . S
H823 N819 0.985 . S
H824 N818 0.984 . S
H825 N818 0.984 . S
H826 N814 0.985 . S
H827 N814 0.985 . S
C828 C829 1.363 1_565 S
C828 C834 1.379 . S
C828 N836 1.356 . S
C829 C828 1.363 1_545 S
C829 C835 1.363 . S
C830 C831 1.363 . S
C830 C835 1.379 1_565 S
C830 N837 1.356 . S
C831 C830 1.363 . S
C831 C834 1.363 . S
N832 C834 1.356 . S
N832 H844 0.984 . S
N832 H845 0.985 . S
N833 C835 1.356 . S
N833 H838 0.984 . S
N833 H839 0.985 . S
C834 C828 1.379 . S
C834 C831 1.363 . S
C834 N832 1.356 . S
C835 C829 1.363 . S
C835 C830 1.379 1_545 S
C835 N833 1.356 . S
N836 C828 1.356 . S
N836 H842 0.984 . S
N836 H843 0.984 1_565 S
N837 C830 1.356 . S
N837 H840 0.984 . S
N837 H841 0.985 1_565 S
H838 N833 0.984 . S
H839 N833 0.985 . S
H840 N837 0.984 . S
H841 N837 0.985 1_545 S
H842 N836 0.984 . S
H843 N836 0.984 1_545 S
H844 N832 0.984 . S
H845 N832 0.985 . S
C846 C847 1.363 . S
C846 C852 1.379 . S
C846 N854 1.356 1_556 S
C847 C846 1.363 . S
C847 C853 1.363 . S
C848 C849 1.363 . S
C848 C853 1.379 . S
C848 N855 1.356 . S
C849 C848 1.363 . S
C849 C852 1.363 . S
N850 C852 1.356 1_554 S
N850 H862 0.984 . S
N850 H863 0.985 . S
N851 C853 1.356 1_565 S
N851 H856 0.984 . S
N851 H857 0.985 . S
C852 C846 1.379 . S
C852 C849 1.363 . S
C852 N850 1.356 1_556 S
C853 C847 1.363 . S
C853 C848 1.379 . S
C853 N851 1.356 1_545 S
N854 C846 1.356 1_554 S
N854 H860 0.984 . S
N854 H861 0.984 1_545 S
N855 C848 1.356 . S
N855 H858 0.984 . S
N855 H859 0.985 . S
H856 N851 0.984 . S
H857 N851 0.985 . S
H858 N855 0.984 . S
H859 N855 0.985 . S
H860 N854 0.984 . S
H861 N854 0.984 1_565 S
H862 N850 0.984 . S
H863 N850 0.985 . S
C864 C865 1.363 . S
C864 C870 1.379 . S
C864 N872 1.356 . S
C865 C864 1.363 . S
C865 C871 1.363 . S
C866 C867 1.363 . S
C866 C871 1.379 . S
C866 N873 1.356 . S
C867 C866 1.363 . S
C867 C870 1.363 . S
N868 C870 1.356 . S
N868 H880 0.984 . S
N868 H881 0.985 . S
N869 C871 1.356 . S
N869 H874 0.984 . S
N869 H875 0.985 . S
C870 C864 1.379 . S
C870 C867 1.363 . S
C870 N868 1.356 . S
C871 C865 1.363 . S
C871 C866 1.379 . S
C871 N869 1.356 . S
N872 C864 1.356 . S
N872 H878 0.984 . S
N872 H879 0.984 . S
N873 C866 1.356 . S
N873 H876 0.984 . S
N873 H877 0.985 . S
H874 N869 0.984 . S
H875 N869 0.985 . S
H876 N873 0.984 . S
H877 N873 0.985 . S
H878 N872 0.984 . S
H879 N872 0.984 . S
H880 N868 0.984 . S
H881 N868 0.985 . S
C882 C883 1.363 . S
C882 C888 1.379 . S
C882 N890 1.356 . S
C883 C882 1.363 . S
C883 C889 1.363 . S
C884 C885 1.363 . S
C884 C889 1.379 . S
C884 N891 1.356 . S
C885 C884 1.363 . S
C885 C888 1.363 . S
N886 C888 1.356 1_565 S
N886 H898 0.984 . S
N886 H899 0.985 . S
N887 C889 1.356 . S
N887 H892 0.984 . S
N887 H893 0.985 . S
C888 C882 1.379 . S
C888 C885 1.363 . S
C888 N886 1.356 1_545 S
C889 C883 1.363 . S
C889 C884 1.379 . S
C889 N887 1.356 . S
N890 C882 1.356 . S
N890 H896 0.984 . S
N890 H897 0.984 . S
N891 C884 1.356 . S
N891 H894 0.984 1_545 S
N891 H895 0.985 . S
H892 N887 0.984 . S
H893 N887 0.985 . S
H894 N891 0.984 1_565 S
H895 N891 0.985 . S
H896 N890 0.984 . S
H897 N890 0.984 . S
H898 N886 0.984 . S
H899 N886 0.985 . S
C900 C901 1.363 . S
C900 C906 1.379 . S
C900 N908 1.356 . S
C901 C900 1.363 . S
C901 C907 1.363 . S
C902 C903 1.363 . S
C902 C907 1.379 . S
C902 N909 1.356 . S
C903 C902 1.363 . S
C903 C906 1.363 . S
N904 C906 1.356 . S
N904 H916 0.984 . S
N904 H917 0.985 . S
N905 C907 1.356 . S
N905 H910 0.984 . S
N905 H911 0.985 . S
C906 C900 1.379 . S
C906 C903 1.363 . S
C906 N904 1.356 . S
C907 C901 1.363 . S
C907 C902 1.379 . S
C907 N905 1.356 . S
N908 C900 1.356 . S
N908 H914 0.984 . S
N908 H915 0.984 . S
N909 C902 1.356 . S
N909 H912 0.984 . S
N909 H913 0.985 . S
H910 N905 0.984 . S
H911 N905 0.985 . S
H912 N909 0.984 . S
H913 N909 0.985 . S
H914 N908 0.984 . S
H915 N908 0.984 . S
H916 N904 0.984 . S
H917 N904 0.985 . S
C918 C919 1.363 1_545 S
C918 C924 1.379 . S
C918 N926 1.356 1_545 S
C919 C918 1.363 1_565 S
C919 C925 1.363 1_565 S
C920 C921 1.363 . S
C920 C925 1.379 . S
C920 N927 1.356 . S
C921 C920 1.363 . S
C921 C924 1.363 . S
N922 C924 1.356 . S
N922 H934 0.984 . S
N922 H935 0.985 . S
N923 C925 1.356 . S
N923 H928 0.984 1_545 S
N923 H929 0.985 . S
C924 C918 1.379 . S
C924 C921 1.363 . S
C924 N922 1.356 . S
C925 C919 1.363 1_545 S
C925 C920 1.379 . S
C925 N923 1.356 . S
N926 C918 1.356 1_565 S
N926 H932 0.984 . S
N926 H933 0.984 . S
N927 C920 1.356 . S
N927 H930 0.984 . S
N927 H931 0.985 . S
H928 N923 0.984 1_565 S
H929 N923 0.985 . S
H930 N927 0.984 . S
H931 N927 0.985 . S
H932 N926 0.984 . S
H933 N926 0.984 . S
H934 N922 0.984 . S
H935 N922 0.985 . S
C936 C937 1.363 . S
C936 C942 1.379 . S
C936 N944 1.356 . S
C937 C936 1.363 . S
C937 C943 1.363 . S
C938 C939 1.363 . S
C938 C943 1.379 . S
C938 N945 1.356 . S
C939 C938 1.363 . S
C939 C942 1.363 . S
N940 C942 1.356 . S
N940 H952 0.984 . S
N940 H953 0.985 . S
N941 C943 1.356 . S
N941 H946 0.984 . S
N941 H947 0.985 . S
C942 C936 1.379 . S
C942 C939 1.363 . S
C942 N940 1.356 . S
C943 C937 1.363 . S
C943 C938 1.379 . S
C943 N941 1.356 . S
N944 C936 1.356 . S
N944 H950 0.984 1_554 S
N944 H951 0.984 1_554 S
N945 C938 1.356 . S
N945 H948 0.984 . S
N945 H949 0.985 . S
H946 N941 0.984 . S
H947 N941 0.985 . S
H948 N945 0.984 . S
H949 N945 0.985 . S
H950 N944 0.984 1_556 S
H951 N944 0.984 1_556 S
H952 N940 0.984 . S
H953 N940 0.985 . S
C954 C955 1.363 . S
C954 C960 1.379 . S
C954 N962 1.356 1_556 S
C955 C954 1.363 . S
C955 C961 1.363 . S
C956 C957 1.363 . S
C956 C961 1.379 . S
C956 N963 1.356 . S
C957 C956 1.363 . S
C957 C960 1.363 . S
N958 C960 1.356 . S
N958 H970 0.984 . S
N958 H971 0.985 . S
N959 C961 1.356 . S
N959 H964 0.984 . S
N959 H965 0.985 . S
C960 C954 1.379 . S
C960 C957 1.363 . S
C960 N958 1.356 . S
C961 C955 1.363 . S
C961 C956 1.379 . S
C961 N959 1.356 . S
N962 C954 1.356 1_554 S
N962 H968 0.984 . S
N962 H969 0.984 . S
N963 C956 1.356 . S
N963 H966 0.984 . S
N963 H967 0.985 . S
H964 N959 0.984 . S
H965 N959 0.985 . S
H966 N963 0.984 . S
H967 N963 0.985 . S
H968 N962 0.984 . S
H969 N962 0.984 . S
H970 N958 0.984 . S
H971 N958 0.985 . S
C972 C973 1.363 . S
C972 C978 1.379 1_455 S
C972 N980 1.356 . S
C973 C972 1.363 . S
C973 C979 1.363 . S
C974 C975 1.363 1_455 S
C974 C979 1.379 . S
C974 N981 1.356 1_455 S
C975 C974 1.363 1_655 S
C975 C978 1.363 . S
N976 C978 1.356 . S
N976 H988 0.984 . S
N976 H989 0.985 . S
N977 C979 1.356 . S
N977 H982 0.984 . S
N977 H983 0.985 . S
C978 C972 1.379 1_655 S
C978 C975 1.363 . S
C978 N976 1.356 . S
C979 C973 1.363 . S
C979 C974 1.379 . S
C979 N977 1.356 . S
N980 C972 1.356 . S
N980 H986 0.984 . S
N980 H987 0.984 . S
N981 C974 1.356 1_655 S
N981 H984 0.984 . S
N981 H985 0.985 1_655 S
H982 N977 0.984 . S
H983 N977 0.985 . S
H984 N981 0.984 . S
H985 N981 0.985 1_455 S
H986 N980 0.984 . S
H987 N980 0.984 . S
H988 N976 0.984 . S
H989 N976 0.985 . S
C990 C991 1.363 . S
C990 C996 1.379 . S
C990 N998 1.356 . S
C991 C990 1.363 . S
C991 C997 1.363 . S
C992 C993 1.363 . S
C992 C997 1.379 . S
C992 N999 1.356 . S
C993 C992 1.363 . S
C993 C996 1.363 . S
N994 C996 1.356 . S
N994 H1006 0.984 . S
N994 H1007 0.985 . S
N995 C997 1.356 . S
N995 H1000 0.984 . S
N995 H1001 0.985 . S
C996 C990 1.379 . S
C996 C993 1.363 . S
C996 N994 1.356 . S
C997 C991 1.363 . S
C997 C992 1.379 . S
C997 N995 1.356 . S
N998 C990 1.356 . S
N998 H1004 0.984 . S
N998 H1005 0.984 . S
N999 C992 1.356 . S
N999 H1002 0.984 . S
N999 H1003 0.985 . S
H1000 N995 0.984 . S
H1001 N995 0.985 . S
H1002 N999 0.984 . S
H1003 N999 0.985 . S
H1004 N998 0.984 . S
H1005 N998 0.984 . S
H1006 N994 0.984 . S
H1007 N994 0.985 . S
C1008 C1009 1.363 . S
C1008 C1014 1.379 1_655 S
C1008 N1016 1.356 . S
C1009 C1008 1.363 . S
C1009 C1015 1.363 1_655 S
C1010 C1011 1.363 . S
C1010 C1015 1.379 . S
C1010 N1017 1.356 . S
C1011 C1010 1.363 . S
C1011 C1014 1.363 . S
N1012 C1014 1.356 . S
N1012 H1024 0.984 . S
N1012 H1025 0.985 . S
N1013 C1015 1.356 1_655 S
N1013 H1018 0.984 . S
N1013 H1019 0.985 1_655 S
C1014 C1008 1.379 1_455 S
C1014 C1011 1.363 . S
C1014 N1012 1.356 . S
C1015 C1009 1.363 1_455 S
C1015 C1010 1.379 . S
C1015 N1013 1.356 1_455 S
N1016 C1008 1.356 . S
N1016 H1022 0.984 . S
N1016 H1023 0.984 . S
N1017 C1010 1.356 . S
N1017 H1020 0.984 . S
N1017 H1021 0.985 . S
H1018 N1013 0.984 . S
H1019 N1013 0.985 1_455 S
H1020 N1017 0.984 . S
H1021 N1017 0.985 . S
H1022 N1016 0.984 . S
H1023 N1016 0.984 . S
H1024 N1012 0.984 . S
H1025 N1012 0.985 . S
C1026 C1027 1.363 . S
C1026 C1032 1.379 . S
C1026 N1034 1.356 . S
C1027 C1026 1.363 . S
C1027 C1033 1.363 . S
C1028 C1029 1.363 . S
C1028 C1033 1.379 . S
C1028 N1035 1.356 . S
C1029 C1028 1.363 . S
C1029 C1032 1.363 . S
N1030 C1032 1.356 . S
N1030 H1042 0.984 . S
N1030 H1043 0.985 . S
N1031 C1033 1.356 . S
N1031 H1036 0.984 . S
N1031 H1037 0.985 . S
C1032 C1026 1.379 . S
C1032 C1029 1.363 . S
C1032 N1030 1.356 . S
C1033 C1027 1.363 . S
C1033 C1028 1.379 . S
C1033 N1031 1.356 . S
N1034 C1026 1.356 . S
N1034 H1040 0.984 . S
N1034 H1041 0.984 . S
N1035 C1028 1.356 . S
N1035 H1038 0.984 . S
N1035 H1039 0.985 . S
H1036 N1031 0.984 . S
H1037 N1031 0.985 . S
H1038 N1035 0.984 . S
H1039 N1035 0.985 . S
H1040 N1034 0.984 . S
H1041 N1034 0.984 . S
H1042 N1030 0.984 . S
H1043 N1030 0.985 . S
C1044 C1045 1.363 . S
C1044 C1050 1.379 1_455 S
C1044 N1052 1.356 . S
C1045 C1044 1.363 . S
C1045 C1051 1.363 . S
C1046 C1047 1.363 . S
C1046 C1051 1.379 1_655 S
C1046 N1053 1.356 . S
C1047 C1046 1.363 . S
C1047 C1050 1.363 . S
N1048 C1050 1.356 . S
N1048 H1060 0.984 . S
N1048 H1061 0.985 . S
N1049 C1051 1.356 . S
N1049 H1054 0.984 . S
N1049 H1055 0.985 . S
C1050 C1044 1.379 1_655 S
C1050 C1047 1.363 . S
C1050 N1048 1.356 . S
C1051 C1045 1.363 . S
C1051 C1046 1.379 1_455 S
C1051 N1049 1.356 . S
N1052 C1044 1.356 . S
N1052 H1058 0.984 . S
N1052 H1059 0.984 . S
N1053 C1046 1.356 . S
N1053 H1056 0.984 . S
N1053 H1057 0.985 . S
H1054 N1049 0.984 . S
H1055 N1049 0.985 . S
H1056 N1053 0.984 . S
H1057 N1053 0.985 . S
H1058 N1052 0.984 . S
H1059 N1052 0.984 . S
H1060 N1048 0.984 . S
H1061 N1048 0.985 . S
C1062 C1063 1.363 . S
C1062 C1068 1.379 . S
C1062 N1070 1.356 . S
C1063 C1062 1.363 . S
C1063 C1069 1.363 . S
C1064 C1065 1.363 . S
C1064 C1069 1.379 . S
C1064 N1071 1.356 . S
C1065 C1064 1.363 . S
C1065 C1068 1.363 . S
N1066 C1068 1.356 . S
N1066 H1078 0.984 . S
N1066 H1079 0.985 . S
N1067 C1069 1.356 . S
N1067 H1072 0.984 . S
N1067 H1073 0.985 . S
C1068 C1062 1.379 . S
C1068 C1065 1.363 . S
C1068 N1066 1.356 . S
C1069 C1063 1.363 . S
C1069 C1064 1.379 . S
C1069 N1067 1.356 . S
N1070 C1062 1.356 . S
N1070 H1076 0.984 . S
N1070 H1077 0.984 . S
N1071 C1064 1.356 . S
N1071 H1074 0.984 . S
N1071 H1075 0.985 . S
H1072 N1067 0.984 . S
H1073 N1067 0.985 . S
H1074 N1071 0.984 . S
H1075 N1071 0.985 . S
H1076 N1070 0.984 . S
H1077 N1070 0.984 . S
H1078 N1066 0.984 . S
H1079 N1066 0.985 . S
C1080 C1081 1.363 . S
C1080 C1086 1.379 . S
C1080 N1088 1.356 . S
C1081 C1080 1.363 . S
C1081 C1087 1.363 . S
C1082 C1083 1.363 . S
C1082 C1087 1.379 . S
C1082 N1089 1.356 . S
C1083 C1082 1.363 . S
C1083 C1086 1.363 . S
N1084 C1086 1.356 . S
N1084 H1096 0.984 . S
N1084 H1097 0.985 . S
N1085 C1087 1.356 . S
N1085 H1090 0.984 . S
N1085 H1091 0.985 . S
C1086 C1080 1.379 . S
C1086 C1083 1.363 . S
C1086 N1084 1.356 . S
C1087 C1081 1.363 . S
C1087 C1082 1.379 . S
C1087 N1085 1.356 . S
N1088 C1080 1.356 . S
N1088 H1094 0.984 . S
N1088 H1095 0.984 . S
N1089 C1082 1.356 . S
N1089 H1092 0.984 . S
N1089 H1093 0.985 . S
H1090 N1085 0.984 . S
H1091 N1085 0.985 . S
H1092 N1089 0.984 . S
H1093 N1089 0.985 . S
H1094 N1088 0.984 . S
H1095 N1088 0.984 . S
H1096 N1084 0.984 . S
H1097 N1084 0.985 . S
C1098 C1099 1.363 . S
C1098 C1104 1.379 . S
C1098 N1106 1.356 . S
C1099 C1098 1.363 . S
C1099 C1105 1.363 . S
C1100 C1101 1.363 . S
C1100 C1105 1.379 . S
C1100 N1107 1.356 1_655 S
C1101 C1100 1.363 . S
C1101 C1104 1.363 . S
N1102 C1104 1.356 . S
N1102 H1114 0.984 . S
N1102 H1115 0.985 . S
N1103 C1105 1.356 1_455 S
N1103 H1108 0.984 . S
N1103 H1109 0.985 . S
C1104 C1098 1.379 . S
C1104 C1101 1.363 . S
C1104 N1102 1.356 . S
C1105 C1099 1.363 . S
C1105 C1100 1.379 . S
C1105 N1103 1.356 1_655 S
N1106 C1098 1.356 . S
N1106 H1112 0.984 . S
N1106 H1113 0.984 . S
N1107 C1100 1.356 1_455 S
N1107 H1110 0.984 1_455 S
N1107 H1111 0.985 . S
H1108 N1103 0.984 . S
H1109 N1103 0.985 . S
H1110 N1107 0.984 1_655 S
H1111 N1107 0.985 . S
H1112 N1106 0.984 . S
H1113 N1106 0.984 . S
H1114 N1102 0.984 . S
H1115 N1102 0.985 . S
C1116 C1117 1.363 . S
C1116 C1122 1.379 . S
C1116 N1124 1.356 . S
C1117 C1116 1.363 . S
C1117 C1123 1.363 . S
C1118 C1119 1.363 . S
C1118 C1123 1.379 . S
C1118 N1125 1.356 . S
C1119 C1118 1.363 . S
C1119 C1122 1.363 . S
N1120 C1122 1.356 . S
N1120 H1132 0.984 . S
N1120 H1133 0.985 . S
N1121 C1123 1.356 . S
N1121 H1126 0.984 . S
N1121 H1127 0.985 . S
C1122 C1116 1.379 . S
C1122 C1119 1.363 . S
C1122 N1120 1.356 . S
C1123 C1117 1.363 . S
C1123 C1118 1.379 . S
C1123 N1121 1.356 . S
N1124 C1116 1.356 . S
N1124 H1130 0.984 . S
N1124 H1131 0.984 . S
N1125 C1118 1.356 . S
N1125 H1128 0.984 . S
N1125 H1129 0.985 . S
H1126 N1121 0.984 . S
H1127 N1121 0.985 . S
H1128 N1125 0.984 . S
H1129 N1125 0.985 . S
H1130 N1124 0.984 . S
H1131 N1124 0.984 . S
H1132 N1120 0.984 . S
H1133 N1120 0.985 . S
C1134 C1135 1.363 . S
C1134 C1140 1.379 1_556 S
C1134 N1142 1.356 . S
C1135 C1134 1.363 . S
C1135 C1141 1.363 . S
C1136 C1137 1.363 . S
C1136 C1141 1.379 1_554 S
C1136 N1143 1.356 . S
C1137 C1136 1.363 . S
C1137 C1140 1.363 . S
N1138 C1140 1.356 . S
N1138 H1150 0.984 . S
N1138 H1151 0.985 . S
N1139 C1141 1.356 . S
N1139 H1144 0.984 . S
N1139 H1145 0.985 . S
C1140 C1134 1.379 1_554 S
C1140 C1137 1.363 . S
C1140 N1138 1.356 . S
C1141 C1135 1.363 . S
C1141 C1136 1.379 1_556 S
C1141 N1139 1.356 . S
N1142 C1134 1.356 . S
N1142 H1148 0.984 . S
N1142 H1149 0.984 . S
N1143 C1136 1.356 . S
N1143 H1146 0.984 . S
N1143 H1147 0.985 . S
H1144 N1139 0.984 . S
H1145 N1139 0.985 . S
H1146 N1143 0.984 . S
H1147 N1143 0.985 . S
H1148 N1142 0.984 . S
H1149 N1142 0.984 . S
H1150 N1138 0.984 . S
H1151 N1138 0.985 . S
C1152 C1153 1.363 . S
C1152 C1158 1.379 . S
C1152 N1160 1.356 . S
C1153 C1152 1.363 . S
C1153 C1159 1.363 . S
C1154 C1155 1.363 . S
C1154 C1159 1.379 . S
C1154 N1161 1.356 . S
C1155 C1154 1.363 . S
C1155 C1158 1.363 . S
N1156 C1158 1.356 . S
N1156 H1168 0.984 . S
N1156 H1169 0.985 . S
N1157 C1159 1.356 . S
N1157 H1162 0.984 . S
N1157 H1163 0.985 . S
C1158 C1152 1.379 . S
C1158 C1155 1.363 . S
C1158 N1156 1.356 . S
C1159 C1153 1.363 . S
C1159 C1154 1.379 . S
C1159 N1157 1.356 . S
N1160 C1152 1.356 . S
N1160 H1166 0.984 1_655 S
N1160 H1167 0.985 . S
N1161 C1154 1.356 . S
N1161 H1164 0.984 . S
N1161 H1165 0.985 . S
H1162 N1157 0.984 . S
H1163 N1157 0.985 . S
H1164 N1161 0.984 . S
H1165 N1161 0.985 . S
H1166 N1160 0.984 1_455 S
H1167 N1160 0.985 . S
H1168 N1156 0.984 . S
H1169 N1156 0.985 . S
C1170 C1171 1.363 . S
C1170 C1176 1.379 . S
C1170 N1178 1.356 . S
C1171 C1170 1.363 . S
C1171 C1177 1.363 . S
C1172 C1173 1.363 . S
C1172 C1177 1.379 . S
C1172 N1179 1.356 . S
C1173 C1172 1.363 . S
C1173 C1176 1.363 . S
N1174 C1176 1.356 . S
N1174 H1186 0.984 . S
N1174 H1187 0.985 . S
N1175 C1177 1.356 . S
N1175 H1180 0.984 . S
N1175 H1181 0.985 . S
C1176 C1170 1.379 . S
C1176 C1173 1.363 . S
C1176 N1174 1.356 . S
C1177 C1171 1.363 . S
C1177 C1172 1.379 . S
C1177 N1175 1.356 . S
N1178 C1170 1.356 . S
N1178 H1184 0.984 . S
N1178 H1185 0.984 . S
N1179 C1172 1.356 . S
N1179 H1182 0.984 . S
N1179 H1183 0.985 . S
H1180 N1175 0.984 . S
H1181 N1175 0.985 . S
H1182 N1179 0.984 . S
H1183 N1179 0.985 . S
H1184 N1178 0.984 . S
H1185 N1178 0.984 . S
H1186 N1174 0.984 . S
H1187 N1174 0.985 . S
C1188 C1189 1.363 . S
C1188 C1194 1.379 . S
C1188 N1196 1.356 . S
C1189 C1188 1.363 . S
C1189 C1195 1.363 . S
C1190 C1191 1.363 . S
C1190 C1195 1.379 . S
C1190 N1197 1.356 . S
C1191 C1190 1.363 . S
C1191 C1194 1.363 . S
N1192 C1194 1.356 . S
N1192 H1204 0.984 . S
N1192 H1205 0.985 . S
N1193 C1195 1.356 . S
N1193 H1198 0.984 . S
N1193 H1199 0.985 . S
C1194 C1188 1.379 . S
C1194 C1191 1.363 . S
C1194 N1192 1.356 . S
C1195 C1189 1.363 . S
C1195 C1190 1.379 . S
C1195 N1193 1.356 . S
N1196 C1188 1.356 . S
N1196 H1202 0.984 . S
N1196 H1203 0.984 . S
N1197 C1190 1.356 . S
N1197 H1200 0.984 . S
N1197 H1201 0.985 . S
H1198 N1193 0.984 . S
H1199 N1193 0.985 . S
H1200 N1197 0.984 . S
H1201 N1197 0.985 . S
H1202 N1196 0.984 . S
H1203 N1196 0.984 . S
H1204 N1192 0.984 . S
H1205 N1192 0.985 . S
C1206 C1207 1.363 . S
C1206 C1212 1.379 1_554 S
C1206 N1214 1.356 . S
C1207 C1206 1.363 . S
C1207 C1213 1.363 . S
C1208 C1209 1.363 1_554 S
C1208 C1213 1.379 . S
C1208 N1215 1.356 1_554 S
C1209 C1208 1.363 1_556 S
C1209 C1212 1.363 . S
N1210 C1212 1.356 . S
N1210 H1222 0.984 . S
N1210 H1223 0.985 . S
N1211 C1213 1.356 . S
N1211 H1216 0.984 . S
N1211 H1217 0.985 . S
C1212 C1206 1.379 1_556 S
C1212 C1209 1.363 . S
C1212 N1210 1.356 . S
C1213 C1207 1.363 . S
C1213 C1208 1.379 . S
C1213 N1211 1.356 . S
N1214 C1206 1.356 . S
N1214 H1220 0.984 . S
N1214 H1221 0.984 . S
N1215 C1208 1.356 1_556 S
N1215 H1218 0.984 . S
N1215 H1219 0.985 1_556 S
H1216 N1211 0.984 . S
H1217 N1211 0.985 . S
H1218 N1215 0.984 . S
H1219 N1215 0.985 1_554 S
H1220 N1214 0.984 . S
H1221 N1214 0.984 . S
H1222 N1210 0.984 . S
H1223 N1210 0.985 . S
C1224 C1225 1.363 . S
C1224 C1230 1.379 . S
C1224 N1232 1.356 . S
C1225 C1224 1.363 . S
C1225 C1231 1.363 1_565 S
C1226 C1227 1.357 1_545 S
C1226 C1231 1.381 . S
C1226 N1233 1.358 . S
C1227 C1226 1.357 1_565 S
C1227 C1230 1.363 . S
N1228 C1230 1.356 . S
N1228 H1240 0.984 . S
N1228 H1241 0.985 . S
N1229 C1231 1.356 . S
N1229 H1234 0.984 . S
N1229 H1235 0.985 . S
C1230 C1224 1.379 . S
C1230 C1227 1.363 . S
C1230 N1228 1.356 . S
C1231 C1225 1.363 1_545 S
C1231 C1226 1.381 . S
C1231 N1229 1.356 . S
N1232 C1224 1.356 . S
N1232 H1238 0.984 . S
N1232 H1239 0.984 . S
N1233 C1226 1.358 . S
N1233 H1236 0.984 1_545 S
N1233 H1237 0.985 . S
H1234 N1229 0.984 . S
H1235 N1229 0.985 . S
H1236 N1233 0.984 1_565 S
H1237 N1233 0.985 . S
H1238 N1232 0.984 . S
H1239 N1232 0.984 . S
H1240 N1228 0.984 . S
H1241 N1228 0.985 . S
C1242 C1243 1.363 . S
C1242 C1248 1.379 . S
C1242 N1250 1.356 . S
C1243 C1242 1.363 . S
C1243 C1249 1.363 . S
C1244 C1245 1.363 . S
C1244 C1249 1.379 . S
C1244 N1251 1.356 . S
C1245 C1244 1.363 . S
C1245 C1248 1.363 . S
N1246 C1248 1.356 . S
N1246 H1258 0.984 . S
N1246 H1259 0.985 . S
N1247 C1249 1.356 . S
N1247 H1252 0.984 1_545 S
N1247 H1253 0.985 . S
C1248 C1242 1.379 . S
C1248 C1245 1.363 . S
C1248 N1246 1.356 . S
C1249 C1243 1.363 . S
C1249 C1244 1.379 . S
C1249 N1247 1.356 . S
N1250 C1242 1.356 . S
N1250 H1256 0.984 . S
N1250 H1257 0.984 1_545 S
N1251 C1244 1.356 . S
N1251 H1254 0.984 . S
N1251 H1255 0.985 . S
H1252 N1247 0.984 1_565 S
H1253 N1247 0.985 . S
H1254 N1251 0.984 . S
H1255 N1251 0.985 . S
H1256 N1250 0.984 . S
H1257 N1250 0.984 1_565 S
H1258 N1246 0.984 . S
H1259 N1246 0.985 . S
C1260 C1261 1.363 . S
C1260 C1266 1.379 . S
C1260 N1268 1.356 . S
C1261 C1260 1.363 . S
C1261 C1267 1.363 . S
C1262 C1263 1.363 . S
C1262 C1267 1.379 . S
C1262 N1269 1.356 . S
C1263 C1262 1.363 . S
C1263 C1266 1.363 . S
N1264 C1266 1.356 . S
N1264 H1276 0.984 . S
N1264 H1277 0.985 . S
N1265 C1267 1.356 . S
N1265 H1270 0.984 . S
N1265 H1271 0.985 . S
C1266 C1260 1.379 . S
C1266 C1263 1.363 . S
C1266 N1264 1.356 . S
C1267 C1261 1.363 . S
C1267 C1262 1.379 . S
C1267 N1265 1.356 . S
N1268 C1260 1.356 . S
N1268 H1274 0.984 . S
N1268 H1275 0.984 . S
N1269 C1262 1.356 . S
N1269 H1272 0.984 . S
N1269 H1273 0.985 . S
H1270 N1265 0.984 . S
H1271 N1265 0.985 . S
H1272 N1269 0.984 . S
H1273 N1269 0.985 . S
H1274 N1268 0.984 . S
H1275 N1268 0.984 . S
H1276 N1264 0.984 . S
H1277 N1264 0.985 . S
C1278 C1279 1.363 . S
C1278 C1284 1.379 . S
C1278 N1286 1.355 1_554 S
C1279 C1278 1.363 . S
C1279 C1285 1.363 . S
C1280 C1281 1.363 1_545 S
C1280 C1285 1.379 . S
C1280 N1287 1.356 1_545 S
C1281 C1280 1.363 1_565 S
C1281 C1284 1.363 1_565 S
N1282 C1284 1.356 1_565 S
N1282 H1294 0.984 1_554 S
N1282 H1295 0.985 . S
N1283 C1285 1.356 . S
N1283 H1288 0.984 . S
N1283 H1289 0.985 . S
C1284 C1278 1.379 . S
C1284 C1281 1.363 1_545 S
C1284 N1282 1.356 1_545 S
C1285 C1279 1.363 . S
C1285 C1280 1.379 . S
C1285 N1283 1.356 . S
N1286 C1278 1.355 1_556 S
N1286 H1292 0.986 . S
N1286 H1293 0.984 1_556 S
N1287 C1280 1.356 1_565 S
N1287 H1290 0.984 . S
N1287 H1291 0.988 . S
H1288 N1283 0.984 . S
H1289 N1283 0.985 . S
H1290 N1287 0.984 . S
H1291 N1287 0.988 . S
H1292 N1286 0.986 . S
H1293 N1286 0.984 1_554 S
H1294 N1282 0.984 1_556 S
H1295 N1282 0.985 . S
C1296 C1297 1.363 . S
C1296 C1302 1.379 . S
C1296 N1304 1.356 . S
C1297 C1296 1.363 . S
C1297 C1303 1.363 . S
C1298 C1299 1.363 . S
C1298 C1303 1.379 . S
C1298 N1305 1.356 . S
C1299 C1298 1.363 . S
C1299 C1302 1.363 . S
N1300 C1302 1.356 . S
N1300 H1312 0.984 . S
N1300 H1313 0.985 . S
N1301 C1303 1.356 . S
N1301 H1306 0.984 . S
N1301 H1307 0.985 . S
C1302 C1296 1.379 . S
C1302 C1299 1.363 . S
C1302 N1300 1.356 . S
C1303 C1297 1.363 . S
C1303 C1298 1.379 . S
C1303 N1301 1.356 . S
N1304 C1296 1.356 . S
N1304 H1310 0.984 . S
N1304 H1311 0.984 . S
N1305 C1298 1.356 . S
N1305 H1308 0.984 . S
N1305 H1309 0.985 . S
H1306 N1301 0.984 . S
H1307 N1301 0.985 . S
H1308 N1305 0.984 . S
H1309 N1305 0.985 . S
H1310 N1304 0.984 . S
H1311 N1304 0.984 . S
H1312 N1300 0.984 . S
H1313 N1300 0.985 . S
C1314 C1315 1.363 1_545 S
C1314 C1320 1.379 . S
C1314 N1322 1.356 1_545 S
C1315 C1314 1.363 1_565 S
C1315 C1321 1.363 1_565 S
C1316 C1317 1.363 . S
C1316 C1321 1.379 . S
C1316 N1323 1.356 . S
C1317 C1316 1.363 . S
C1317 C1320 1.363 . S
N1318 C1320 1.356 . S
N1318 H1330 0.984 . S
N1318 H1331 0.985 . S
N1319 C1321 1.356 1_565 S
N1319 H1324 0.984 . S
N1319 H1325 0.985 . S
C1320 C1314 1.379 . S
C1320 C1317 1.363 . S
C1320 N1318 1.356 . S
C1321 C1315 1.363 1_545 S
C1321 C1316 1.379 . S
C1321 N1319 1.356 1_545 S
N1322 C1314 1.356 1_565 S
N1322 H1328 0.984 . S
N1322 H1329 0.984 . S
N1323 C1316 1.356 . S
N1323 H1326 0.984 . S
N1323 H1327 0.985 . S
H1324 N1319 0.984 . S
H1325 N1319 0.985 . S
H1326 N1323 0.984 . S
H1327 N1323 0.985 . S
H1328 N1322 0.984 . S
H1329 N1322 0.984 . S
H1330 N1318 0.984 . S
H1331 N1318 0.985 . S
C1332 C1333 1.363 . S
C1332 C1338 1.379 . S
C1332 N1340 1.356 1_565 S
C1333 C1332 1.363 . S
C1333 C1339 1.363 . S
C1334 C1335 1.363 . S
C1334 C1339 1.379 . S
C1334 N1341 1.356 . S
C1335 C1334 1.363 . S
C1335 C1338 1.363 . S
N1336 C1338 1.356 . S
N1336 H1348 0.984 1_565 S
N1336 H1349 0.985 . S
N1337 C1339 1.356 . S
N1337 H1342 0.984 . S
N1337 H1343 0.985 . S
C1338 C1332 1.379 . S
C1338 C1335 1.363 . S
C1338 N1336 1.356 . S
C1339 C1333 1.363 . S
C1339 C1334 1.379 . S
C1339 N1337 1.356 . S
N1340 C1332 1.356 1_545 S
N1340 H1346 0.984 . S
N1340 H1347 0.984 1_545 S
N1341 C1334 1.356 . S
N1341 H1344 0.984 . S
N1341 H1345 0.985 . S
H1342 N1337 0.984 . S
H1343 N1337 0.985 . S
H1344 N1341 0.984 . S
H1345 N1341 0.985 . S
H1346 N1340 0.984 . S
H1347 N1340 0.984 1_565 S
H1348 N1336 0.984 1_545 S
H1349 N1336 0.985 . S
C1350 C1351 1.363 . S
C1350 C1356 1.379 . S
C1350 N1358 1.356 . S
C1351 C1350 1.363 . S
C1351 C1357 1.363 . S
C1352 C1353 1.363 . S
C1352 C1357 1.379 . S
C1352 N1359 1.356 . S
C1353 C1352 1.363 . S
C1353 C1356 1.363 . S
N1354 C1356 1.356 . S
N1354 H1366 0.984 . S
N1354 H1367 0.985 1_545 S
N1355 C1357 1.356 1_554 S
N1355 H1360 0.984 . S
N1355 H1361 0.985 . S
C1356 C1350 1.379 . S
C1356 C1353 1.363 . S
C1356 N1354 1.356 . S
C1357 C1351 1.363 . S
C1357 C1352 1.379 . S
C1357 N1355 1.356 1_556 S
N1358 C1350 1.356 . S
N1358 H1364 0.984 . S
N1358 H1365 0.984 . S
N1359 C1352 1.356 . S
N1359 H1362 0.984 1_545 S
N1359 H1363 0.985 1_556 S
H1360 N1355 0.984 . S
H1361 N1355 0.985 . S
H1362 N1359 0.984 1_565 S
H1363 N1359 0.985 1_554 S
H1364 N1358 0.984 . S
H1365 N1358 0.984 . S
H1366 N1354 0.984 . S
H1367 N1354 0.985 1_565 S
C1368 C1369 1.363 . S
C1368 C1374 1.379 . S
C1368 N1376 1.356 . S
C1369 C1368 1.363 . S
C1369 C1375 1.363 . S
C1370 C1371 1.363 . S
C1370 C1375 1.379 . S
C1370 N1377 1.356 . S
C1371 C1370 1.363 . S
C1371 C1374 1.363 . S
N1372 C1374 1.356 . S
N1372 H1384 0.984 . S
N1372 H1385 0.985 . S
N1373 C1375 1.356 . S
N1373 H1378 0.984 . S
N1373 H1379 0.985 1_556 S
C1374 C1368 1.379 . S
C1374 C1371 1.363 . S
C1374 N1372 1.356 . S
C1375 C1369 1.363 . S
C1375 C1370 1.379 . S
C1375 N1373 1.356 . S
N1376 C1368 1.356 . S
N1376 H1382 0.984 . S
N1376 H1383 0.984 . S
N1377 C1370 1.356 . S
N1377 H1380 0.984 . S
N1377 H1381 0.985 . S
H1378 N1373 0.984 . S
H1379 N1373 0.985 1_554 S
H1380 N1377 0.984 . S
H1381 N1377 0.985 . S
H1382 N1376 0.984 . S
H1383 N1376 0.984 . S
H1384 N1372 0.984 . S
H1385 N1372 0.985 . S
C1386 C1387 1.363 . S
C1386 C1392 1.379 . S
C1386 N1394 1.356 . S
C1387 C1386 1.363 . S
C1387 C1393 1.363 . S
C1388 C1389 1.363 . S
C1388 C1393 1.379 . S
C1388 N1395 1.356 . S
C1389 C1388 1.363 . S
C1389 C1392 1.363 . S
N1390 C1392 1.356 . S
N1390 H1402 0.984 . S
N1390 H1403 0.985 . S
N1391 C1393 1.356 . S
N1391 H1396 0.984 . S
N1391 H1397 0.985 . S
C1392 C1386 1.379 . S
C1392 C1389 1.363 . S
C1392 N1390 1.356 . S
C1393 C1387 1.363 . S
C1393 C1388 1.379 . S
C1393 N1391 1.356 . S
N1394 C1386 1.356 . S
N1394 H1400 0.984 1_554 S
N1394 H1401 0.984 . S
N1395 C1388 1.356 . S
N1395 H1398 0.984 . S
N1395 H1399 0.985 . S
H1396 N1391 0.984 . S
H1397 N1391 0.985 . S
H1398 N1395 0.984 . S
H1399 N1395 0.985 . S
H1400 N1394 0.984 1_556 S
H1401 N1394 0.984 . S
H1402 N1390 0.984 . S
H1403 N1390 0.985 . S
C1404 C1405 1.363 . S
C1404 C1410 1.379 1_655 S
C1404 N1412 1.356 . S
C1405 C1404 1.363 . S
C1405 C1411 1.363 . S
C1406 C1407 1.363 . S
C1406 C1411 1.379 1_455 S
C1406 N1413 1.356 . S
C1407 C1406 1.363 . S
C1407 C1410 1.363 . S
N1408 C1410 1.356 . S
N1408 H1420 0.984 . S
N1408 H1421 0.985 . S
N1409 C1411 1.356 . S
N1409 H1414 0.984 . S
N1409 H1415 0.985 . S
C1410 C1404 1.379 1_455 S
C1410 C1407 1.363 . S
C1410 N1408 1.356 . S
C1411 C1405 1.363 . S
C1411 C1406 1.379 1_655 S
C1411 N1409 1.356 . S
N1412 C1404 1.356 . S
N1412 H1418 0.984 . S
N1412 H1419 0.984 . S
N1413 C1406 1.356 . S
N1413 H1416 0.984 . S
N1413 H1417 0.985 . S
H1414 N1409 0.984 . S
H1415 N1409 0.985 . S
H1416 N1413 0.984 . S
H1417 N1413 0.985 . S
H1418 N1412 0.984 . S
H1419 N1412 0.984 . S
H1420 N1408 0.984 . S
H1421 N1408 0.985 . S
C1422 C1423 1.363 . S
C1422 C1428 1.379 . S
C1422 N1430 1.356 . S
C1423 C1422 1.363 . S
C1423 C1429 1.363 . S
C1424 C1425 1.363 . S
C1424 C1429 1.379 . S
C1424 N1431 1.356 . S
C1425 C1424 1.363 . S
C1425 C1428 1.363 . S
N1426 C1428 1.356 . S
N1426 H1438 0.984 . S
N1426 H1439 0.985 . S
N1427 C1429 1.356 . S
N1427 H1432 0.984 . S
N1427 H1433 0.985 . S
C1428 C1422 1.379 . S
C1428 C1425 1.363 . S
C1428 N1426 1.356 . S
C1429 C1423 1.363 . S
C1429 C1424 1.379 . S
C1429 N1427 1.356 . S
N1430 C1422 1.356 . S
N1430 H1436 0.984 . S
N1430 H1437 0.984 . S
N1431 C1424 1.356 . S
N1431 H1434 0.984 . S
N1431 H1435 0.985 . S
H1432 N1427 0.984 . S
H1433 N1427 0.985 . S
H1434 N1431 0.984 . S
H1435 N1431 0.985 . S
H1436 N1430 0.984 . S
H1437 N1430 0.984 . S
H1438 N1426 0.984 . S
H1439 N1426 0.985 . S
C1440 C1441 1.363 1_565 S
C1440 C1446 1.379 1_455 S
C1440 N1448 1.356 . S
C1441 C1440 1.363 1_545 S
C1441 C1447 1.363 . S
C1442 C1443 1.363 . S
C1442 C1447 1.379 1_655 S
C1442 N1449 1.356 . S
C1443 C1442 1.363 . S
C1443 C1446 1.363 1_545 S
N1444 C1446 1.356 . S
N1444 H1456 0.984 . S
N1444 H1457 0.985 . S
N1445 C1447 1.356 . S
N1445 H1450 0.984 . S
N1445 H1451 0.985 . S
C1446 C1440 1.379 1_655 S
C1446 C1443 1.363 1_565 S
C1446 N1444 1.356 . S
C1447 C1441 1.363 . S
C1447 C1442 1.379 1_455 S
C1447 N1445 1.356 . S
N1448 C1440 1.356 . S
N1448 H1454 0.984 . S
N1448 H1455 0.984 . S
N1449 C1442 1.356 . S
N1449 H1452 0.984 . S
N1449 H1453 0.985 . S
H1450 N1445 0.984 . S
H1451 N1445 0.985 . S
H1452 N1449 0.984 . S
H1453 N1449 0.985 . S
H1454 N1448 0.984 . S
H1455 N1448 0.984 . S
H1456 N1444 0.984 . S
H1457 N1444 0.985 . S
C1458 C1459 1.363 . S
C1458 C1464 1.379 . S
C1458 N1466 1.356 . S
C1459 C1458 1.363 . S
C1459 C1465 1.363 . S
C1460 C1461 1.363 . S
C1460 C1465 1.379 . S
C1460 N1467 1.356 . S
C1461 C1460 1.363 . S
C1461 C1464 1.363 . S
N1462 C1464 1.356 . S
N1462 H1474 0.984 . S
N1462 H1475 0.985 . S
N1463 C1465 1.356 . S
N1463 H1468 0.984 . S
N1463 H1469 0.985 . S
C1464 C1458 1.379 . S
C1464 C1461 1.363 . S
C1464 N1462 1.356 . S
C1465 C1459 1.363 . S
C1465 C1460 1.379 . S
C1465 N1463 1.356 . S
N1466 C1458 1.356 . S
N1466 H1472 0.984 . S
N1466 H1473 0.984 . S
N1467 C1460 1.356 . S
N1467 H1470 0.984 . S
N1467 H1471 0.985 . S
H1468 N1463 0.984 . S
H1469 N1463 0.985 . S
H1470 N1467 0.984 . S
H1471 N1467 0.985 . S
H1472 N1466 0.984 . S
H1473 N1466 0.984 . S
H1474 N1462 0.984 . S
H1475 N1462 0.985 . S
C1476 C1477 1.363 . S
C1476 C1482 1.379 1_655 S
C1476 N1484 1.356 . S
C1477 C1476 1.363 . S
C1477 C1483 1.363 . S
C1478 C1479 1.363 . S
C1478 C1483 1.379 1_455 S
C1478 N1485 1.356 . S
C1479 C1478 1.363 . S
C1479 C1482 1.363 . S
N1480 C1482 1.356 . S
N1480 H1492 0.984 . S
N1480 H1493 0.985 . S
N1481 C1483 1.356 . S
N1481 H1486 0.984 . S
N1481 H1487 0.985 . S
C1482 C1476 1.379 1_455 S
C1482 C1479 1.363 . S
C1482 N1480 1.356 . S
C1483 C1477 1.363 . S
C1483 C1478 1.379 1_655 S
C1483 N1481 1.356 . S
N1484 C1476 1.356 . S
N1484 H1490 0.984 . S
N1484 H1491 0.984 . S
N1485 C1478 1.356 . S
N1485 H1488 0.984 . S
N1485 H1489 0.985 . S
H1486 N1481 0.984 . S
H1487 N1481 0.985 . S
H1488 N1485 0.984 . S
H1489 N1485 0.985 . S
H1490 N1484 0.984 . S
H1491 N1484 0.984 . S
H1492 N1480 0.984 . S
H1493 N1480 0.985 . S
C1494 C1495 1.363 . S
C1494 C1500 1.379 . S
C1494 N1502 1.356 . S
C1495 C1494 1.363 . S
C1495 C1501 1.363 . S
C1496 C1497 1.363 . S
C1496 C1501 1.379 . S
C1496 N1503 1.356 . S
C1497 C1496 1.363 . S
C1497 C1500 1.363 . S
N1498 C1500 1.356 . S
N1498 H1510 0.984 . S
N1498 H1511 0.985 . S
N1499 C1501 1.356 . S
N1499 H1504 0.984 . S
N1499 H1505 0.985 . S
C1500 C1494 1.379 . S
C1500 C1497 1.363 . S
C1500 N1498 1.356 . S
C1501 C1495 1.363 . S
C1501 C1496 1.379 . S
C1501 N1499 1.356 . S
N1502 C1494 1.356 . S
N1502 H1508 0.984 . S
N1502 H1509 0.984 . S
N1503 C1496 1.356 . S
N1503 H1506 0.984 . S
N1503 H1507 0.985 . S
H1504 N1499 0.984 . S
H1505 N1499 0.985 . S
H1506 N1503 0.984 . S
H1507 N1503 0.985 . S
H1508 N1502 0.984 . S
H1509 N1502 0.984 . S
H1510 N1498 0.984 . S
H1511 N1498 0.985 . S
C1512 C1513 1.363 . S
C1512 C1518 1.379 . S
C1512 N1520 1.356 . S
C1513 C1512 1.363 . S
C1513 C1519 1.363 . S
C1514 C1515 1.363 . S
C1514 C1519 1.379 . S
C1514 N1521 1.356 . S
C1515 C1514 1.363 . S
C1515 C1518 1.363 . S
N1516 C1518 1.356 . S
N1516 H1528 0.984 . S
N1516 H1529 0.985 . S
N1517 C1519 1.356 . S
N1517 H1522 0.984 . S
N1517 H1523 0.985 . S
C1518 C1512 1.379 . S
C1518 C1515 1.363 . S
C1518 N1516 1.356 . S
C1519 C1513 1.363 . S
C1519 C1514 1.379 . S
C1519 N1517 1.356 . S
N1520 C1512 1.356 . S
N1520 H1526 0.984 . S
N1520 H1527 0.984 . S
N1521 C1514 1.356 . S
N1521 H1524 0.984 . S
N1521 H1525 0.985 . S
H1522 N1517 0.984 . S
H1523 N1517 0.985 . S
H1524 N1521 0.984 . S
H1525 N1521 0.985 . S
H1526 N1520 0.984 . S
H1527 N1520 0.984 . S
H1528 N1516 0.984 . S
H1529 N1516 0.985 . S
C1530 C1531 1.363 . S
C1530 C1536 1.377 1_554 S
C1530 N1538 1.356 . S
C1531 C1530 1.363 . S
C1531 C1537 1.363 . S
C1532 C1533 1.363 1_554 S
C1532 C1537 1.379 . S
C1532 N1539 1.356 . S
C1533 C1532 1.363 1_556 S
C1533 C1536 1.363 . S
N1534 C1536 1.358 . S
N1534 H1546 0.984 . S
N1534 H1547 0.985 . S
N1535 C1537 1.356 . S
N1535 H1540 0.984 . S
N1535 H1541 0.985 . S
C1536 C1530 1.377 1_556 S
C1536 C1533 1.363 . S
C1536 N1534 1.358 . S
C1537 C1531 1.363 . S
C1537 C1532 1.379 . S
C1537 N1535 1.356 . S
N1538 C1530 1.356 . S
N1538 H1544 0.984 . S
N1538 H1545 0.984 . S
N1539 C1532 1.356 . S
N1539 H1542 0.984 1_554 S
N1539 H1543 0.985 . S
H1540 N1535 0.984 . S
H1541 N1535 0.985 . S
H1542 N1539 0.984 1_556 S
H1543 N1539 0.985 . S
H1544 N1538 0.984 . S
H1545 N1538 0.984 . S
H1546 N1534 0.984 . S
H1547 N1534 0.985 . S
C1548 C1549 1.363 . S
C1548 C1554 1.379 . S
C1548 N1556 1.356 1_655 S
C1549 C1548 1.363 . S
C1549 C1555 1.363 . S
C1550 C1551 1.363 . S
C1550 C1555 1.379 . S
C1550 N1557 1.356 . S
C1551 C1550 1.363 . S
C1551 C1554 1.363 . S
N1552 C1554 1.356 . S
N1552 H1564 0.984 . S
N1552 H1565 0.985 . S
N1553 C1555 1.356 . S
N1553 H1558 0.984 . S
N1553 H1559 0.985 . S
C1554 C1548 1.379 . S
C1554 C1551 1.363 . S
C1554 N1552 1.356 . S
C1555 C1549 1.363 . S
C1555 C1550 1.379 . S
C1555 N1553 1.356 . S
N1556 C1548 1.356 1_455 S
N1556 H1562 0.984 . S
N1556 H1563 0.984 . S
N1557 C1550 1.356 . S
N1557 H1560 0.984 . S
N1557 H1561 0.985 . S
H1558 N1553 0.984 . S
H1559 N1553 0.985 . S
H1560 N1557 0.984 . S
H1561 N1557 0.985 . S
H1562 N1556 0.984 . S
H1563 N1556 0.984 . S
H1564 N1552 0.984 . S
H1565 N1552 0.985 . S
C1566 C1567 1.363 . S
C1566 C1572 1.379 . S
C1566 N1574 1.356 . S
C1567 C1566 1.363 . S
C1567 C1573 1.363 . S
C1568 C1569 1.363 . S
C1568 C1573 1.379 . S
C1568 N1575 1.356 . S
C1569 C1568 1.363 . S
C1569 C1572 1.363 . S
N1570 C1572 1.356 . S
N1570 H1582 0.984 . S
N1570 H1583 0.985 . S
N1571 C1573 1.356 . S
N1571 H1576 0.984 . S
N1571 H1577 0.985 . S
C1572 C1566 1.379 . S
C1572 C1569 1.363 . S
C1572 N1570 1.356 . S
C1573 C1567 1.363 . S
C1573 C1568 1.379 . S
C1573 N1571 1.356 . S
N1574 C1566 1.356 . S
N1574 H1580 0.984 . S
N1574 H1581 0.984 . S
N1575 C1568 1.356 . S
N1575 H1578 0.984 . S
N1575 H1579 0.985 . S
H1576 N1571 0.984 . S
H1577 N1571 0.985 . S
H1578 N1575 0.984 . S
H1579 N1575 0.985 . S
H1580 N1574 0.984 . S
H1581 N1574 0.984 . S
H1582 N1570 0.984 . S
H1583 N1570 0.985 . S
C1584 C1585 1.363 . S
C1584 C1590 1.379 . S
C1584 N1592 1.356 . S
C1585 C1584 1.363 . S
C1585 C1591 1.363 . S
C1586 C1587 1.363 . S
C1586 C1591 1.379 . S
C1586 N1593 1.356 . S
C1587 C1586 1.363 . S
C1587 C1590 1.363 . S
N1588 C1590 1.356 . S
N1588 H1600 0.984 . S
N1588 H1601 0.985 . S
N1589 C1591 1.356 . S
N1589 H1594 0.984 . S
N1589 H1595 0.985 . S
C1590 C1584 1.379 . S
C1590 C1587 1.363 . S
C1590 N1588 1.356 . S
C1591 C1585 1.363 . S
C1591 C1586 1.379 . S
C1591 N1589 1.356 . S
N1592 C1584 1.356 . S
N1592 H1598 0.984 . S
N1592 H1599 0.984 . S
N1593 C1586 1.356 . S
N1593 H1596 0.984 . S
N1593 H1597 0.985 . S
H1594 N1589 0.984 . S
H1595 N1589 0.985 . S
H1596 N1593 0.984 . S
H1597 N1593 0.985 . S
H1598 N1592 0.984 . S
H1599 N1592 0.984 . S
H1600 N1588 0.984 . S
H1601 N1588 0.985 . S
C1602 C1603 1.364 1_454 S
C1602 C1608 1.376 . S
C1602 N1610 1.358 1_554 S
C1603 C1602 1.364 1_656 S
C1603 C1609 1.363 1_556 S
C1604 C1605 1.363 . S
C1604 C1609 1.379 . S
C1604 N1611 1.356 . S
C1605 C1604 1.363 . S
C1605 C1608 1.360 1_655 S
N1606 C1608 1.358 . S
N1606 H1618 0.984 . S
N1606 H1619 0.985 . S
N1607 C1609 1.356 1_556 S
N1607 H1612 0.984 . S
N1607 H1613 0.985 . S
C1608 C1602 1.376 . S
C1608 C1605 1.360 1_455 S
C1608 N1606 1.358 . S
C1609 C1603 1.363 1_554 S
C1609 C1604 1.379 . S
C1609 N1607 1.356 1_554 S
N1610 C1602 1.358 1_556 S
N1610 H1616 0.984 . S
N1610 H1617 0.984 . S
N1611 C1604 1.356 . S
N1611 H1614 0.984 . S
N1611 H1615 0.985 . S
H1612 N1607 0.984 . S
H1613 N1607 0.985 . S
H1614 N1611 0.984 . S
H1615 N1611 0.985 . S
H1616 N1610 0.984 . S
H1617 N1610 0.984 . S
H1618 N1606 0.984 . S
H1619 N1606 0.985 . S
C1620 C1621 1.363 . S
C1620 C1626 1.379 . S
C1620 N1628 1.356 . S
C1621 C1620 1.363 . S
C1621 C1627 1.363 . S
C1622 C1623 1.363 . S
C1622 C1627 1.379 . S
C1622 N1629 1.356 . S
C1623 C1622 1.363 . S
C1623 C1626 1.363 . S
N1624 C1626 1.356 . S
N1624 H1636 0.984 . S
N1624 H1637 0.985 . S
N1625 C1627 1.356 . S
N1625 H1630 0.984 . S
N1625 H1631 0.985 1_655 S
C1626 C1620 1.379 . S
C1626 C1623 1.363 . S
C1626 N1624 1.356 . S
C1627 C1621 1.363 . S
C1627 C1622 1.379 . S
C1627 N1625 1.356 . S
N1628 C1620 1.356 . S
N1628 H1634 0.984 . S
N1628 H1635 0.984 . S
N1629 C1622 1.356 . S
N1629 H1632 0.984 . S
N1629 H1633 0.985 . S
H1630 N1625 0.984 . S
H1631 N1625 0.985 1_455 S
H1632 N1629 0.984 . S
H1633 N1629 0.985 . S
H1634 N1628 0.984 . S
H1635 N1628 0.984 . S
H1636 N1624 0.984 . S
H1637 N1624 0.985 . S
C1638 C1639 1.363 . S
C1638 C1644 1.379 . S
C1638 N1646 1.356 . S
C1639 C1638 1.363 . S
C1639 C1645 1.363 . S
C1640 C1641 1.363 . S
C1640 C1645 1.379 . S
C1640 N1647 1.356 . S
C1641 C1640 1.363 . S
C1641 C1644 1.363 . S
N1642 C1644 1.356 . S
N1642 H1654 0.984 . S
N1642 H1655 0.985 . S
N1643 C1645 1.356 . S
N1643 H1648 0.984 . S
N1643 H1649 0.985 . S
C1644 C1638 1.379 . S
C1644 C1641 1.363 . S
C1644 N1642 1.356 . S
C1645 C1639 1.363 . S
C1645 C1640 1.379 . S
C1645 N1643 1.356 . S
N1646 C1638 1.356 . S
N1646 H1652 0.984 . S
N1646 H1653 0.984 . S
N1647 C1640 1.356 . S
N1647 H1650 0.984 . S
N1647 H1651 0.985 . S
H1648 N1643 0.984 . S
H1649 N1643 0.985 . S
H1650 N1647 0.984 . S
H1651 N1647 0.985 . S
H1652 N1646 0.984 . S
H1653 N1646 0.984 . S
H1654 N1642 0.984 . S
H1655 N1642 0.985 . S
C1656 C1657 1.363 . S
C1656 C1662 1.379 . S
C1656 N1664 1.356 . S
C1657 C1656 1.363 . S
C1657 C1663 1.363 . S
C1658 C1659 1.363 . S
C1658 C1663 1.379 . S
C1658 N1665 1.356 . S
C1659 C1658 1.363 . S
C1659 C1662 1.363 . S
N1660 C1662 1.356 . S
N1660 H1672 0.984 . S
N1660 H1673 0.985 . S
N1661 C1663 1.356 . S
N1661 H1666 0.984 . S
N1661 H1667 0.985 . S
C1662 C1656 1.379 . S
C1662 C1659 1.363 . S
C1662 N1660 1.356 . S
C1663 C1657 1.363 . S
C1663 C1658 1.379 . S
C1663 N1661 1.356 . S
N1664 C1656 1.356 . S
N1664 H1670 0.984 . S
N1664 H1671 0.984 . S
N1665 C1658 1.356 . S
N1665 H1668 0.984 . S
N1665 H1669 0.985 . S
H1666 N1661 0.984 . S
H1667 N1661 0.985 . S
H1668 N1665 0.984 . S
H1669 N1665 0.985 . S
H1670 N1664 0.984 . S
H1671 N1664 0.984 . S
H1672 N1660 0.984 . S
H1673 N1660 0.985 . S
C1674 C1675 1.363 . S
C1674 C1680 1.379 . S
C1674 N1682 1.356 1_556 S
C1675 C1674 1.363 . S
C1675 C1681 1.363 . S
C1676 C1677 1.363 . S
C1676 C1681 1.379 . S
C1676 N1683 1.356 . S
C1677 C1676 1.363 . S
C1677 C1680 1.363 . S
N1678 C1680 1.356 1_554 S
N1678 H1690 0.984 . S
N1678 H1691 0.985 . S
N1679 C1681 1.356 . S
N1679 H1684 0.984 . S
N1679 H1685 0.985 . S
C1680 C1674 1.379 . S
C1680 C1677 1.363 . S
C1680 N1678 1.356 1_556 S
C1681 C1675 1.363 . S
C1681 C1676 1.379 . S
C1681 N1679 1.356 . S
N1682 C1674 1.356 1_554 S
N1682 H1688 0.984 . S
N1682 H1689 0.984 1_554 S
N1683 C1676 1.356 . S
N1683 H1686 0.984 . S
N1683 H1687 0.985 . S
H1684 N1679 0.984 . S
H1685 N1679 0.985 . S
H1686 N1683 0.984 . S
H1687 N1683 0.985 . S
H1688 N1682 0.984 . S
H1689 N1682 0.984 1_556 S
H1690 N1678 0.984 . S
H1691 N1678 0.985 . S
C1692 C1693 1.363 . S
C1692 C1698 1.379 . S
C1692 N1700 1.356 . S
C1693 C1692 1.363 . S
C1693 C1699 1.363 . S
C1694 C1695 1.363 . S
C1694 C1699 1.379 . S
C1694 N1701 1.356 . S
C1695 C1694 1.363 . S
C1695 C1698 1.363 . S
N1696 C1698 1.356 . S
N1696 H1708 0.984 . S
N1696 H1709 0.985 . S
N1697 C1699 1.356 . S
N1697 H1702 0.984 . S
N1697 H1703 0.985 . S
C1698 C1692 1.379 . S
C1698 C1695 1.363 . S
C1698 N1696 1.356 . S
C1699 C1693 1.363 . S
C1699 C1694 1.379 . S
C1699 N1697 1.356 . S
N1700 C1692 1.356 . S
N1700 H1706 0.984 . S
N1700 H1707 0.984 . S
N1701 C1694 1.356 . S
N1701 H1704 0.984 . S
N1701 H1705 0.985 . S
H1702 N1697 0.984 . S
H1703 N1697 0.985 . S
H1704 N1701 0.984 . S
H1705 N1701 0.985 . S
H1706 N1700 0.984 . S
H1707 N1700 0.984 . S
H1708 N1696 0.984 . S
H1709 N1696 0.985 . S
C1710 C1711 1.363 . S
C1710 C1716 1.379 . S
C1710 N1718 1.356 . S
C1711 C1710 1.363 . S
C1711 C1717 1.363 . S
C1712 C1713 1.363 . S
C1712 C1717 1.379 . S
C1712 N1719 1.356 . S
C1713 C1712 1.363 . S
C1713 C1716 1.363 . S
N1714 C1716 1.356 . S
N1714 H1726 0.984 . S
N1714 H1727 0.985 . S
N1715 C1717 1.356 . S
N1715 H1720 0.984 . S
N1715 H1721 0.985 . S
C1716 C1710 1.379 . S
C1716 C1713 1.363 . S
C1716 N1714 1.356 . S
C1717 C1711 1.363 . S
C1717 C1712 1.379 . S
C1717 N1715 1.356 . S
N1718 C1710 1.356 . S
N1718 H1724 0.984 . S
N1718 H1725 0.984 . S
N1719 C1712 1.356 . S
N1719 H1722 0.984 . S
N1719 H1723 0.985 . S
H1720 N1715 0.984 . S
H1721 N1715 0.985 . S
H1722 N1719 0.984 . S
H1723 N1719 0.985 . S
H1724 N1718 0.984 . S
H1725 N1718 0.984 . S
H1726 N1714 0.984 . S
H1727 N1714 0.985 . S
C1728 C1729 1.363 . S
C1728 C1734 1.379 . S
C1728 N1736 1.356 . S
C1729 C1728 1.363 . S
C1729 C1735 1.363 . S
C1730 C1731 1.363 . S
C1730 C1735 1.379 . S
C1730 N1737 1.356 . S
C1731 C1730 1.363 . S
C1731 C1734 1.363 . S
N1732 C1734 1.356 . S
N1732 H1744 0.984 . S
N1732 H1745 0.985 . S
N1733 C1735 1.356 . S
N1733 H1738 0.984 . S
N1733 H1739 0.985 . S
C1734 C1728 1.379 . S
C1734 C1731 1.363 . S
C1734 N1732 1.356 . S
C1735 C1729 1.363 . S
C1735 C1730 1.379 . S
C1735 N1733 1.356 . S
N1736 C1728 1.356 . S
N1736 H1742 0.984 . S
N1736 H1743 0.984 . S
N1737 C1730 1.356 . S
N1737 H1740 0.984 . S
N1737 H1741 0.985 . S
H1738 N1733 0.984 . S
H1739 N1733 0.985 . S
H1740 N1737 0.984 . S
H1741 N1737 0.985 . S
H1742 N1736 0.984 . S
H1743 N1736 0.984 . S
H1744 N1732 0.984 . S
H1745 N1732 0.985 . S
C1746 C1747 1.363 . S
C1746 C1752 1.379 . S
C1746 N1754 1.356 . S
C1747 C1746 1.363 . S
C1747 C1753 1.363 . S
C1748 C1749 1.363 . S
C1748 C1753 1.379 . S
C1748 N1755 1.356 . S
C1749 C1748 1.363 . S
C1749 C1752 1.363 . S
N1750 C1752 1.356 . S
N1750 H1762 0.984 . S
N1750 H1763 0.985 . S
N1751 C1753 1.356 . S
N1751 H1756 0.984 . S
N1751 H1757 0.985 . S
C1752 C1746 1.379 . S
C1752 C1749 1.363 . S
C1752 N1750 1.356 . S
C1753 C1747 1.363 . S
C1753 C1748 1.379 . S
C1753 N1751 1.356 . S
N1754 C1746 1.356 . S
N1754 H1760 0.984 1_554 S
N1754 H1761 0.984 . S
N1755 C1748 1.356 . S
N1755 H1758 0.984 . S
N1755 H1759 0.985 . S
H1756 N1751 0.984 . S
H1757 N1751 0.985 . S
H1758 N1755 0.984 . S
H1759 N1755 0.985 . S
H1760 N1754 0.984 1_556 S
H1761 N1754 0.984 . S
H1762 N1750 0.984 . S
H1763 N1750 0.985 . S
C1764 C1765 1.363 . S
C1764 C1770 1.379 . S
C1764 N1772 1.356 . S
C1765 C1764 1.363 . S
C1765 C1771 1.363 . S
C1766 C1767 1.363 . S
C1766 C1771 1.379 . S
C1766 N1773 1.356 . S
C1767 C1766 1.363 . S
C1767 C1770 1.363 . S
N1768 C1770 1.356 . S
N1768 H1780 0.984 . S
N1768 H1781 0.985 . S
N1769 C1771 1.356 . S
N1769 H1774 0.984 . S
N1769 H1775 0.985 . S
C1770 C1764 1.379 . S
C1770 C1767 1.363 . S
C1770 N1768 1.356 . S
C1771 C1765 1.363 . S
C1771 C1766 1.379 . S
C1771 N1769 1.356 . S
N1772 C1764 1.356 . S
N1772 H1778 0.984 . S
N1772 H1779 0.984 . S
N1773 C1766 1.356 . S
N1773 H1776 0.984 . S
N1773 H1777 0.985 . S
H1774 N1769 0.984 . S
H1775 N1769 0.985 . S
H1776 N1773 0.984 . S
H1777 N1773 0.985 . S
H1778 N1772 0.984 . S
H1779 N1772 0.984 . S
H1780 N1768 0.984 . S
H1781 N1768 0.985 . S
C1782 C1783 1.363 . S
C1782 C1788 1.379 . S
C1782 N1790 1.356 . S
C1783 C1782 1.363 . S
C1783 C1789 1.363 . S
C1784 C1785 1.363 . S
C1784 C1789 1.379 . S
C1784 N1791 1.356 . S
C1785 C1784 1.363 . S
C1785 C1788 1.363 . S
N1786 C1788 1.356 . S
N1786 H1798 0.984 . S
N1786 H1799 0.985 . S
N1787 C1789 1.356 . S
N1787 H1792 0.984 . S
N1787 H1793 0.985 . S
C1788 C1782 1.379 . S
C1788 C1785 1.363 . S
C1788 N1786 1.356 . S
C1789 C1783 1.363 . S
C1789 C1784 1.379 . S
C1789 N1787 1.356 . S
N1790 C1782 1.356 . S
N1790 H1796 0.984 . S
N1790 H1797 0.984 . S
N1791 C1784 1.356 . S
N1791 H1794 0.984 . S
N1791 H1795 0.985 . S
H1792 N1787 0.984 . S
H1793 N1787 0.985 . S
H1794 N1791 0.984 . S
H1795 N1791 0.985 . S
H1796 N1790 0.984 . S
H1797 N1790 0.984 . S
H1798 N1786 0.984 . S
H1799 N1786 0.985 . S
C1800 C1801 1.363 . S
C1800 C1806 1.379 . S
C1800 N1808 1.356 . S
C1801 C1800 1.363 . S
C1801 C1807 1.363 . S
C1802 C1803 1.363 . S
C1802 C1807 1.379 . S
C1802 N1809 1.356 . S
C1803 C1802 1.363 . S
C1803 C1806 1.363 . S
N1804 C1806 1.356 . S
N1804 H1816 0.984 . S
N1804 H1817 0.985 . S
N1805 C1807 1.356 . S
N1805 H1810 0.984 . S
N1805 H1811 0.985 . S
C1806 C1800 1.379 . S
C1806 C1803 1.363 . S
C1806 N1804 1.356 . S
C1807 C1801 1.363 . S
C1807 C1802 1.379 . S
C1807 N1805 1.356 . S
N1808 C1800 1.356 . S
N1808 H1814 0.984 . S
N1808 H1815 0.984 . S
N1809 C1802 1.356 . S
N1809 H1812 0.984 . S
N1809 H1813 0.985 . S
H1810 N1805 0.984 . S
H1811 N1805 0.985 . S
H1812 N1809 0.984 . S
H1813 N1809 0.985 . S
H1814 N1808 0.984 . S
H1815 N1808 0.984 . S
H1816 N1804 0.984 . S
H1817 N1804 0.985 . S
C1818 C1819 1.363 . S
C1818 C1824 1.379 . S
C1818 N1826 1.356 . S
C1819 C1818 1.363 . S
C1819 C1825 1.363 . S
C1820 C1821 1.363 . S
C1820 C1825 1.379 . S
C1820 N1827 1.356 . S
C1821 C1820 1.363 . S
C1821 C1824 1.363 . S
N1822 C1824 1.356 . S
N1822 H1834 0.984 . S
N1822 H1835 0.985 . S
N1823 C1825 1.356 . S
N1823 H1828 0.984 . S
N1823 H1829 0.985 . S
C1824 C1818 1.379 . S
C1824 C1821 1.363 . S
C1824 N1822 1.356 . S
C1825 C1819 1.363 . S
C1825 C1820 1.379 . S
C1825 N1823 1.356 . S
N1826 C1818 1.356 . S
N1826 H1832 0.984 . S
N1826 H1833 0.984 . S
N1827 C1820 1.356 . S
N1827 H1830 0.984 . S
N1827 H1831 0.985 . S
H1828 N1823 0.984 . S
H1829 N1823 0.985 . S
H1830 N1827 0.984 . S
H1831 N1827 0.985 . S
H1832 N1826 0.984 . S
H1833 N1826 0.984 . S
H1834 N1822 0.984 . S
H1835 N1822 0.985 . S
C1836 C1837 1.363 1_545 S
C1836 C1842 1.379 . S
C1836 N1844 1.356 . S
C1837 C1836 1.363 1_565 S
C1837 C1843 1.363 . S
C1838 C1839 1.363 . S
C1838 C1843 1.379 . S
C1838 N1845 1.356 . S
C1839 C1838 1.363 . S
C1839 C1842 1.363 1_565 S
N1840 C1842 1.356 . S
N1840 H1852 0.984 . S
N1840 H1853 0.985 . S
N1841 C1843 1.356 . S
N1841 H1846 0.984 . S
N1841 H1847 0.985 . S
C1842 C1836 1.379 . S
C1842 C1839 1.363 1_545 S
C1842 N1840 1.356 . S
C1843 C1837 1.363 . S
C1843 C1838 1.379 . S
C1843 N1841 1.356 . S
N1844 C1836 1.356 . S
N1844 H1850 0.984 . S
N1844 H1851 0.984 . S
N1845 C1838 1.356 . S
N1845 H1848 0.984 . S
N1845 H1849 0.985 . S
H1846 N1841 0.984 . S
H1847 N1841 0.985 . S
H1848 N1845 0.984 . S
H1849 N1845 0.985 . S
H1850 N1844 0.984 . S
H1851 N1844 0.984 . S
H1852 N1840 0.984 . S
H1853 N1840 0.985 . S
C1854 C1855 1.363 . S
C1854 C1860 1.379 . S
C1854 N1862 1.356 . S
C1855 C1854 1.363 . S
C1855 C1861 1.363 . S
C1856 C1857 1.363 . S
C1856 C1861 1.379 . S
C1856 N1863 1.356 . S
C1857 C1856 1.363 . S
C1857 C1860 1.363 . S
N1858 C1860 1.356 . S
N1858 H1870 0.984 . S
N1858 H1871 0.985 . S
N1859 C1861 1.356 1_554 S
N1859 H1864 0.984 . S
N1859 H1865 0.985 . S
C1860 C1854 1.379 . S
C1860 C1857 1.363 . S
C1860 N1858 1.356 . S
C1861 C1855 1.363 . S
C1861 C1856 1.379 . S
C1861 N1859 1.356 1_556 S
N1862 C1854 1.356 . S
N1862 H1868 0.984 . S
N1862 H1869 0.984 . S
N1863 C1856 1.356 . S
N1863 H1866 0.984 . S
N1863 H1867 0.985 . S
H1864 N1859 0.984 . S
H1865 N1859 0.985 . S
H1866 N1863 0.984 . S
H1867 N1863 0.985 . S
H1868 N1862 0.984 . S
H1869 N1862 0.984 . S
H1870 N1858 0.984 . S
H1871 N1858 0.985 . S
C1872 C1873 1.363 . S
C1872 C1878 1.379 . S
C1872 N1880 1.356 . S
C1873 C1872 1.363 . S
C1873 C1879 1.363 . S
C1874 C1875 1.363 . S
C1874 C1879 1.379 . S
C1874 N1881 1.356 . S
C1875 C1874 1.363 . S
C1875 C1878 1.363 . S
N1876 C1878 1.356 . S
N1876 H1888 0.984 . S
N1876 H1889 0.985 . S
N1877 C1879 1.356 . S
N1877 H1882 0.984 . S
N1877 H1883 0.985 . S
C1878 C1872 1.379 . S
C1878 C1875 1.363 . S
C1878 N1876 1.356 . S
C1879 C1873 1.363 . S
C1879 C1874 1.379 . S
C1879 N1877 1.356 . S
N1880 C1872 1.356 . S
N1880 H1886 0.984 . S
N1880 H1887 0.984 . S
N1881 C1874 1.356 . S
N1881 H1884 0.984 . S
N1881 H1885 0.985 . S
H1882 N1877 0.984 . S
H1883 N1877 0.985 . S
H1884 N1881 0.984 . S
H1885 N1881 0.985 . S
H1886 N1880 0.984 . S
H1887 N1880 0.984 . S
H1888 N1876 0.984 . S
H1889 N1876 0.985 . S
C1890 C1891 1.363 . S
C1890 C1896 1.379 . S
C1890 N1898 1.356 . S
C1891 C1890 1.363 . S
C1891 C1897 1.363 . S
C1892 C1893 1.363 . S
C1892 C1897 1.379 . S
C1892 N1899 1.356 . S
C1893 C1892 1.363 . S
C1893 C1896 1.363 . S
N1894 C1896 1.356 . S
N1894 H1906 0.984 . S
N1894 H1907 0.985 . S
N1895 C1897 1.356 1_556 S
N1895 H1900 0.984 . S
N1895 H1901 0.985 . S
C1896 C1890 1.379 . S
C1896 C1893 1.363 . S
C1896 N1894 1.356 . S
C1897 C1891 1.363 . S
C1897 C1892 1.379 . S
C1897 N1895 1.356 1_554 S
N1898 C1890 1.356 . S
N1898 H1904 0.984 . S
N1898 H1905 0.984 . S
N1899 C1892 1.356 . S
N1899 H1902 0.984 . S
N1899 H1903 0.985 . S
H1900 N1895 0.984 . S
H1901 N1895 0.985 . S
H1902 N1899 0.984 . S
H1903 N1899 0.985 . S
H1904 N1898 0.984 . S
H1905 N1898 0.984 . S
H1906 N1894 0.984 . S
H1907 N1894 0.985 . S
C1908 C1909 1.363 . S
C1908 C1914 1.379 . S
C1908 N1916 1.356 . S
C1909 C1908 1.363 . S
C1909 C1915 1.363 . S
C1910 C1911 1.363 . S
C1910 C1915 1.379 . S
C1910 N1917 1.356 . S
C1911 C1910 1.363 . S
C1911 C1914 1.363 . S
N1912 C1914 1.356 . S
N1912 H1924 0.984 . S
N1912 H1925 0.985 . S
N1913 C1915 1.356 . S
N1913 H1918 0.984 . S
N1913 H1919 0.985 . S
C1914 C1908 1.379 . S
C1914 C1911 1.363 . S
C1914 N1912 1.356 . S
C1915 C1909 1.363 . S
C1915 C1910 1.379 . S
C1915 N1913 1.356 . S
N1916 C1908 1.356 . S
N1916 H1922 0.984 . S
N1916 H1923 0.984 . S
N1917 C1910 1.356 . S
N1917 H1920 0.984 . S
N1917 H1921 0.985 . S
H1918 N1913 0.984 . S
H1919 N1913 0.985 . S
H1920 N1917 0.984 . S
H1921 N1917 0.985 . S
H1922 N1916 0.984 . S
H1923 N1916 0.984 . S
H1924 N1912 0.984 . S
H1925 N1912 0.985 . S
C1926 C1927 1.363 . S
C1926 C1932 1.379 1_655 S
C1926 N1934 1.356 . S
C1927 C1926 1.363 . S
C1927 C1933 1.363 . S
C1928 C1929 1.363 . S
C1928 C1933 1.379 1_455 S
C1928 N1935 1.356 . S
C1929 C1928 1.363 . S
C1929 C1932 1.363 . S
N1930 C1932 1.343 1_545 S
N1930 H1942 1.004 . S
N1930 H1943 0.978 1_545 S
N1931 C1933 1.356 . S
N1931 H1936 0.984 . S
N1931 H1937 0.985 . S
C1932 C1926 1.379 1_455 S
C1932 C1929 1.363 . S
C1932 N1930 1.343 1_565 S
C1933 C1927 1.363 . S
C1933 C1928 1.379 1_655 S
C1933 N1931 1.356 . S
N1934 C1926 1.356 . S
N1934 H1940 0.984 1_565 S
N1934 H1941 0.984 . S
N1935 C1928 1.356 . S
N1935 H1938 0.984 . S
N1935 H1939 0.985 . S
H1936 N1931 0.984 . S
H1937 N1931 0.985 . S
H1938 N1935 0.984 . S
H1939 N1935 0.985 . S
H1940 N1934 0.984 1_545 S
H1941 N1934 0.984 . S
H1942 N1930 1.004 . S
H1943 N1930 0.978 1_565 S
C1944 C1945 1.363 . S
C1944 C1950 1.379 . S
C1944 N1952 1.356 . S
C1945 C1944 1.363 . S
C1945 C1951 1.363 . S
C1946 C1947 1.363 . S
C1946 C1951 1.379 . S
C1946 N1953 1.356 . S
C1947 C1946 1.363 . S
C1947 C1950 1.363 . S
N1948 C1950 1.356 . S
N1948 H1960 0.984 . S
N1948 H1961 0.985 . S
N1949 C1951 1.356 . S
N1949 H1954 0.984 . S
N1949 H1955 0.985 . S
C1950 C1944 1.379 . S
C1950 C1947 1.363 . S
C1950 N1948 1.356 . S
C1951 C1945 1.363 . S
C1951 C1946 1.379 . S
C1951 N1949 1.356 . S
N1952 C1944 1.356 . S
N1952 H1958 0.984 . S
N1952 H1959 0.984 . S
N1953 C1946 1.356 . S
N1953 H1956 0.984 . S
N1953 H1957 0.985 . S
H1954 N1949 0.984 . S
H1955 N1949 0.985 . S
H1956 N1953 0.984 . S
H1957 N1953 0.985 . S
H1958 N1952 0.984 . S
H1959 N1952 0.984 . S
H1960 N1948 0.984 . S
H1961 N1948 0.985 . S
C1962 C1963 1.363 . S
C1962 C1968 1.379 1_556 S
C1962 N1970 1.356 . S
C1963 C1962 1.363 . S
C1963 C1969 1.363 . S
C1964 C1965 1.363 . S
C1964 C1969 1.379 1_554 S
C1964 N1971 1.356 . S
C1965 C1964 1.363 . S
C1965 C1968 1.363 . S
N1966 C1968 1.356 . S
N1966 H1978 0.984 . S
N1966 H1979 0.985 . S
N1967 C1969 1.356 . S
N1967 H1972 0.984 . S
N1967 H1973 0.985 . S
C1968 C1962 1.379 1_554 S
C1968 C1965 1.363 . S
C1968 N1966 1.356 . S
C1969 C1963 1.363 . S
C1969 C1964 1.379 1_556 S
C1969 N1967 1.356 . S
N1970 C1962 1.356 . S
N1970 H1976 0.984 . S
N1970 H1977 0.984 . S
N1971 C1964 1.356 . S
N1971 H1974 0.984 . S
N1971 H1975 0.984 1_554 S
H1972 N1967 0.984 . S
H1973 N1967 0.985 . S
H1974 N1971 0.984 . S
H1975 N1971 0.984 1_556 S
H1976 N1970 0.984 . S
H1977 N1970 0.984 . S
H1978 N1966 0.984 . S
H1979 N1966 0.985 . S
C1980 C1981 1.363 . S
C1980 C1986 1.379 . S
C1980 N1988 1.356 . S
C1981 C1980 1.363 . S
C1981 C1987 1.363 . S
C1982 C1983 1.363 . S
C1982 C1987 1.379 . S
C1982 N1989 1.356 . S
C1983 C1982 1.363 . S
C1983 C1986 1.363 . S
N1984 C1986 1.356 . S
N1984 H1996 0.984 . S
N1984 H1997 0.985 . S
N1985 C1987 1.356 . S
N1985 H1990 0.984 . S
N1985 H1991 0.985 . S
C1986 C1980 1.379 . S
C1986 C1983 1.363 . S
C1986 N1984 1.356 . S
C1987 C1981 1.363 . S
C1987 C1982 1.379 . S
C1987 N1985 1.356 . S
N1988 C1980 1.356 . S
N1988 H1994 0.984 . S
N1988 H1995 0.984 . S
N1989 C1982 1.356 . S
N1989 H1992 0.984 . S
N1989 H1993 0.985 . S
H1990 N1985 0.984 . S
H1991 N1985 0.985 . S
H1992 N1989 0.984 . S
H1993 N1989 0.985 . S
H1994 N1988 0.984 . S
H1995 N1988 0.984 . S
H1996 N1984 0.984 . S
H1997 N1984 0.985 . S
C1998 C1999 1.363 . S
C1998 C2004 1.379 . S
C1998 N2006 1.356 . S
C1999 C1998 1.363 . S
C1999 C2005 1.363 . S
C2000 C2001 1.363 . S
C2000 C2005 1.379 . S
C2000 N2007 1.356 . S
C2001 C2000 1.363 . S
C2001 C2004 1.363 . S
N2002 C2004 1.356 . S
N2002 H2014 0.984 . S
N2002 H2015 0.985 . S
N2003 C2005 1.356 . S
N2003 H2008 0.984 . S
N2003 H2009 0.985 . S
C2004 C1998 1.379 . S
C2004 C2001 1.363 . S
C2004 N2002 1.356 . S
C2005 C1999 1.363 . S
C2005 C2000 1.379 . S
C2005 N2003 1.356 . S
N2006 C1998 1.356 . S
N2006 H2012 0.984 . S
N2006 H2013 0.984 . S
N2007 C2000 1.356 . S
N2007 H2010 0.984 . S
N2007 H2011 0.985 . S
H2008 N2003 0.984 . S
H2009 N2003 0.985 . S
H2010 N2007 0.984 . S
H2011 N2007 0.985 . S
H2012 N2006 0.984 . S
H2013 N2006 0.984 . S
H2014 N2002 0.984 . S
H2015 N2002 0.985 . S
C2016 C2017 1.363 . S
C2016 C2022 1.379 . S
C2016 N2024 1.356 . S
C2017 C2016 1.363 . S
C2017 C2023 1.363 . S
C2018 C2019 1.363 . S
C2018 C2023 1.379 . S
C2018 N2025 1.356 . S
C2019 C2018 1.363 . S
C2019 C2022 1.363 . S
N2020 C2022 1.356 . S
N2020 H2032 0.984 . S
N2020 H2033 0.985 . S
N2021 C2023 1.356 . S
N2021 H2026 0.984 . S
N2021 H2027 0.985 . S
C2022 C2016 1.379 . S
C2022 C2019 1.363 . S
C2022 N2020 1.356 . S
C2023 C2017 1.363 . S
C2023 C2018 1.379 . S
C2023 N2021 1.356 . S
N2024 C2016 1.356 . S
N2024 H2030 0.984 . S
N2024 H2031 0.984 . S
N2025 C2018 1.356 . S
N2025 H2028 0.984 . S
N2025 H2029 0.985 . S
H2026 N2021 0.984 . S
H2027 N2021 0.985 . S
H2028 N2025 0.984 . S
H2029 N2025 0.985 . S
H2030 N2024 0.984 . S
H2031 N2024 0.984 . S
H2032 N2020 0.984 . S
H2033 N2020 0.985 . S
C2034 C2035 1.363 . S
C2034 C2040 1.379 1_554 S
C2034 N2042 1.356 1_455 S
C2035 C2034 1.363 . S
C2035 C2041 1.363 . S
C2036 C2037 1.363 1_554 S
C2036 C2041 1.379 . S
C2036 N2043 1.356 1_554 S
C2037 C2036 1.363 1_556 S
C2037 C2040 1.363 . S
N2038 C2040 1.356 . S
N2038 H2050 0.984 1_455 S
N2038 H2051 0.985 . S
N2039 C2041 1.356 . S
N2039 H2044 0.984 . S
N2039 H2045 0.985 . S
C2040 C2034 1.379 1_556 S
C2040 C2037 1.363 . S
C2040 N2038 1.356 . S
C2041 C2035 1.363 . S
C2041 C2036 1.379 . S
C2041 N2039 1.356 . S
N2042 C2034 1.356 1_655 S
N2042 H2048 0.984 . S
N2042 H2049 0.984 . S
N2043 C2036 1.356 1_556 S
N2043 H2046 0.984 . S
N2043 H2047 0.985 1_556 S
H2044 N2039 0.984 . S
H2045 N2039 0.985 . S
H2046 N2043 0.984 . S
H2047 N2043 0.985 1_554 S
H2048 N2042 0.984 . S
H2049 N2042 0.984 . S
H2050 N2038 0.984 1_655 S
H2051 N2038 0.985 . S
C2052 C2053 1.363 . S
C2052 C2058 1.379 . S
C2052 N2060 1.356 . S
C2053 C2052 1.363 . S
C2053 C2059 1.363 . S
C2054 C2055 1.363 . S
C2054 C2059 1.379 . S
C2054 N2061 1.356 . S
C2055 C2054 1.363 . S
C2055 C2058 1.363 . S
N2056 C2058 1.356 . S
N2056 H2068 0.984 . S
N2056 H2069 0.985 . S
N2057 C2059 1.356 . S
N2057 H2062 0.984 . S
N2057 H2063 0.985 . S
C2058 C2052 1.379 . S
C2058 C2055 1.363 . S
C2058 N2056 1.356 . S
C2059 C2053 1.363 . S
C2059 C2054 1.379 . S
C2059 N2057 1.356 . S
N2060 C2052 1.356 . S
N2060 H2066 0.984 . S
N2060 H2067 0.984 . S
N2061 C2054 1.356 . S
N2061 H2064 0.984 . S
N2061 H2065 0.985 . S
H2062 N2057 0.984 . S
H2063 N2057 0.985 . S
H2064 N2061 0.984 . S
H2065 N2061 0.985 . S
H2066 N2060 0.984 . S
H2067 N2060 0.984 . S
H2068 N2056 0.984 . S
H2069 N2056 0.985 . S
C2070 C2071 1.363 . S
C2070 C2076 1.379 . S
C2070 N2078 1.356 . S
C2071 C2070 1.363 . S
C2071 C2077 1.363 . S
C2072 C2073 1.363 . S
C2072 C2077 1.379 . S
C2072 N2079 1.356 . S
C2073 C2072 1.363 . S
C2073 C2076 1.363 . S
N2074 C2076 1.356 . S
N2074 H2086 0.984 . S
N2074 H2087 0.985 . S
N2075 C2077 1.356 . S
N2075 H2080 0.984 . S
N2075 H2081 0.985 . S
C2076 C2070 1.379 . S
C2076 C2073 1.363 . S
C2076 N2074 1.356 . S
C2077 C2071 1.363 . S
C2077 C2072 1.379 . S
C2077 N2075 1.356 . S
N2078 C2070 1.356 . S
N2078 H2084 0.984 . S
N2078 H2085 0.984 . S
N2079 C2072 1.356 . S
N2079 H2082 0.984 . S
N2079 H2083 0.985 . S
H2080 N2075 0.984 . S
H2081 N2075 0.985 . S
H2082 N2079 0.984 . S
H2083 N2079 0.985 . S
H2084 N2078 0.984 . S
H2085 N2078 0.984 . S
H2086 N2074 0.984 . S
H2087 N2074 0.985 . S
C2088 C2089 1.363 . S
C2088 C2094 1.379 . S
C2088 N2096 1.356 . S
C2089 C2088 1.363 . S
C2089 C2095 1.363 . S
C2090 C2091 1.363 . S
C2090 C2095 1.379 . S
C2090 N2097 1.356 . S
C2091 C2090 1.363 . S
C2091 C2094 1.363 . S
N2092 C2094 1.356 . S
N2092 H2104 0.984 . S
N2092 H2105 0.985 . S
N2093 C2095 1.356 . S
N2093 H2098 0.984 . S
N2093 H2099 0.985 . S
C2094 C2088 1.379 . S
C2094 C2091 1.363 . S
C2094 N2092 1.356 . S
C2095 C2089 1.363 . S
C2095 C2090 1.379 . S
C2095 N2093 1.356 . S
N2096 C2088 1.356 . S
N2096 H2102 0.984 . S
N2096 H2103 0.984 . S
N2097 C2090 1.356 . S
N2097 H2100 0.984 . S
N2097 H2101 0.985 . S
H2098 N2093 0.984 . S
H2099 N2093 0.985 . S
H2100 N2097 0.984 . S
H2101 N2097 0.985 . S
H2102 N2096 0.984 . S
H2103 N2096 0.984 . S
H2104 N2092 0.984 . S
H2105 N2092 0.985 . S
C2106 C2107 1.363 . S
C2106 C2112 1.379 . S
C2106 N2114 1.356 1_554 S
C2107 C2106 1.363 . S
C2107 C2113 1.363 . S
C2108 C2109 1.363 . S
C2108 C2113 1.379 . S
C2108 N2115 1.356 . S
C2109 C2108 1.363 . S
C2109 C2112 1.363 . S
N2110 C2112 1.356 . S
N2110 H2122 0.984 1_554 S
N2110 H2123 0.985 . S
N2111 C2113 1.356 . S
N2111 H2116 0.984 . S
N2111 H2117 0.985 . S
C2112 C2106 1.379 . S
C2112 C2109 1.363 . S
C2112 N2110 1.356 . S
C2113 C2107 1.363 . S
C2113 C2108 1.379 . S
C2113 N2111 1.356 . S
N2114 C2106 1.356 1_556 S
N2114 H2120 0.984 . S
N2114 H2121 0.984 . S
N2115 C2108 1.356 . S
N2115 H2118 0.984 . S
N2115 H2119 0.985 . S
H2116 N2111 0.984 . S
H2117 N2111 0.985 . S
H2118 N2115 0.984 . S
H2119 N2115 0.985 . S
H2120 N2114 0.984 . S
H2121 N2114 0.984 . S
H2122 N2110 0.984 1_556 S
H2123 N2110 0.985 . S
C2124 C2125 1.363 . S
C2124 C2130 1.379 . S
C2124 N2132 1.356 . S
C2125 C2124 1.363 . S
C2125 C2131 1.363 . S
C2126 C2127 1.363 . S
C2126 C2131 1.379 . S
C2126 N2133 1.356 . S
C2127 C2126 1.363 . S
C2127 C2130 1.363 . S
N2128 C2130 1.356 . S
N2128 H2140 0.984 . S
N2128 H2141 0.985 . S
N2129 C2131 1.356 . S
N2129 H2134 0.984 . S
N2129 H2135 0.985 . S
C2130 C2124 1.379 . S
C2130 C2127 1.363 . S
C2130 N2128 1.356 . S
C2131 C2125 1.363 . S
C2131 C2126 1.379 . S
C2131 N2129 1.356 . S
N2132 C2124 1.356 . S
N2132 H2138 0.984 . S
N2132 H2139 0.984 . S
N2133 C2126 1.356 . S
N2133 H2136 0.984 . S
N2133 H2137 0.985 . S
H2134 N2129 0.984 . S
H2135 N2129 0.985 . S
H2136 N2133 0.984 . S
H2137 N2133 0.985 . S
H2138 N2132 0.984 . S
H2139 N2132 0.984 . S
H2140 N2128 0.984 . S
H2141 N2128 0.985 . S
C2142 C2143 1.363 . S
C2142 C2148 1.379 . S
C2142 N2150 1.356 . S
C2143 C2142 1.363 . S
C2143 C2149 1.363 . S
C2144 C2145 1.363 . S
C2144 C2149 1.379 . S
C2144 N2151 1.356 . S
C2145 C2144 1.363 . S
C2145 C2148 1.363 . S
N2146 C2148 1.356 . S
N2146 H2158 0.984 . S
N2146 H2159 0.985 . S
N2147 C2149 1.356 . S
N2147 H2152 0.984 . S
N2147 H2153 0.985 . S
C2148 C2142 1.379 . S
C2148 C2145 1.363 . S
C2148 N2146 1.356 . S
C2149 C2143 1.363 . S
C2149 C2144 1.379 . S
C2149 N2147 1.356 . S
N2150 C2142 1.356 . S
N2150 H2156 0.984 . S
N2150 H2157 0.984 . S
N2151 C2144 1.356 . S
N2151 H2154 0.984 . S
N2151 H2155 0.985 . S
H2152 N2147 0.984 . S
H2153 N2147 0.985 . S
H2154 N2151 0.984 . S
H2155 N2151 0.985 . S
H2156 N2150 0.984 . S
H2157 N2150 0.984 . S
H2158 N2146 0.984 . S
H2159 N2146 0.985 . S
C2160 C2161 1.363 . S
C2160 C2166 1.379 . S
C2160 N2168 1.356 . S
C2161 C2160 1.363 . S
C2161 C2167 1.363 . S
C2162 C2163 1.363 . S
C2162 C2167 1.379 . S
C2162 N2169 1.356 . S
C2163 C2162 1.363 . S
C2163 C2166 1.363 . S
N2164 C2166 1.356 . S
N2164 H2176 0.984 . S
N2164 H2177 0.985 . S
N2165 C2167 1.356 . S
N2165 H2170 0.984 . S
N2165 H2171 0.985 . S
C2166 C2160 1.379 . S
C2166 C2163 1.363 . S
C2166 N2164 1.356 . S
C2167 C2161 1.363 . S
C2167 C2162 1.379 . S
C2167 N2165 1.356 . S
N2168 C2160 1.356 . S
N2168 H2174 0.984 . S
N2168 H2175 0.984 . S
N2169 C2162 1.356 . S
N2169 H2172 0.984 . S
N2169 H2173 0.985 . S
H2170 N2165 0.984 . S
H2171 N2165 0.985 . S
H2172 N2169 0.984 . S
H2173 N2169 0.985 . S
H2174 N2168 0.984 . S
H2175 N2168 0.984 . S
H2176 N2164 0.984 . S
H2177 N2164 0.985 . S
C2178 C2179 1.363 . S
C2178 C2184 1.379 . S
C2178 N2186 1.356 . S
C2179 C2178 1.363 . S
C2179 C2185 1.363 . S
C2180 C2181 1.363 . S
C2180 C2185 1.379 . S
C2180 N2187 1.356 . S
C2181 C2180 1.363 . S
C2181 C2184 1.363 . S
N2182 C2184 1.356 . S
N2182 H2194 0.984 . S
N2182 H2195 0.985 . S
N2183 C2185 1.356 1_554 S
N2183 H2188 0.984 . S
N2183 H2189 0.985 . S
C2184 C2178 1.379 . S
C2184 C2181 1.363 . S
C2184 N2182 1.356 . S
C2185 C2179 1.363 . S
C2185 C2180 1.379 . S
C2185 N2183 1.356 1_556 S
N2186 C2178 1.356 . S
N2186 H2192 0.984 . S
N2186 H2193 0.984 . S
N2187 C2180 1.356 . S
N2187 H2190 0.984 . S
N2187 H2191 0.985 1_556 S
H2188 N2183 0.984 . S
H2189 N2183 0.985 . S
H2190 N2187 0.984 . S
H2191 N2187 0.985 1_554 S
H2192 N2186 0.984 . S
H2193 N2186 0.984 . S
H2194 N2182 0.984 . S
H2195 N2182 0.985 . S
C2196 C2197 1.363 . S
C2196 C2202 1.379 . S
C2196 N2204 1.356 . S
C2197 C2196 1.363 . S
C2197 C2203 1.363 . S
C2198 C2199 1.363 . S
C2198 C2203 1.379 . S
C2198 N2205 1.356 . S
C2199 C2198 1.363 . S
C2199 C2202 1.363 . S
N2200 C2202 1.356 . S
N2200 H2212 0.984 . S
N2200 H2213 0.985 . S
N2201 C2203 1.356 . S
N2201 H2206 0.984 . S
N2201 H2207 0.985 . S
C2202 C2196 1.379 . S
C2202 C2199 1.363 . S
C2202 N2200 1.356 . S
C2203 C2197 1.363 . S
C2203 C2198 1.379 . S
C2203 N2201 1.356 . S
N2204 C2196 1.356 . S
N2204 H2210 0.984 . S
N2204 H2211 0.984 . S
N2205 C2198 1.356 . S
N2205 H2208 0.984 . S
N2205 H2209 0.985 . S
H2206 N2201 0.984 . S
H2207 N2201 0.985 . S
H2208 N2205 0.984 . S
H2209 N2205 0.985 . S
H2210 N2204 0.984 . S
H2211 N2204 0.984 . S
H2212 N2200 0.984 . S
H2213 N2200 0.985 . S
C2214 C2215 1.363 . S
C2214 C2220 1.379 . S
C2214 N2222 1.356 . S
C2215 C2214 1.363 . S
C2215 C2221 1.363 . S
C2216 C2217 1.363 . S
C2216 C2221 1.379 . S
C2216 N2223 1.356 . S
C2217 C2216 1.363 . S
C2217 C2220 1.363 . S
N2218 C2220 1.356 . S
N2218 H2230 0.984 . S
N2218 H2231 0.985 . S
N2219 C2221 1.356 . S
N2219 H2224 0.984 . S
N2219 H2225 0.985 . S
C2220 C2214 1.379 . S
C2220 C2217 1.363 . S
C2220 N2218 1.356 . S
C2221 C2215 1.363 . S
C2221 C2216 1.379 . S
C2221 N2219 1.356 . S
N2222 C2214 1.356 . S
N2222 H2228 0.984 . S
N2222 H2229 0.984 . S
N2223 C2216 1.356 . S
N2223 H2226 0.984 . S
N2223 H2227 0.985 . S
H2224 N2219 0.984 . S
H2225 N2219 0.985 . S
H2226 N2223 0.984 . S
H2227 N2223 0.985 . S
H2228 N2222 0.984 . S
H2229 N2222 0.984 . S
H2230 N2218 0.984 . S
H2231 N2218 0.985 . S
C2232 C2233 1.363 . S
C2232 C2238 1.379 . S
C2232 N2240 1.356 . S
C2233 C2232 1.363 . S
C2233 C2239 1.363 . S
C2234 C2235 1.363 . S
C2234 C2239 1.379 . S
C2234 N2241 1.356 . S
C2235 C2234 1.363 . S
C2235 C2238 1.363 . S
N2236 C2238 1.356 . S
N2236 H2248 0.984 . S
N2236 H2249 0.985 . S
N2237 C2239 1.356 . S
N2237 H2242 0.984 . S
N2237 H2243 0.985 . S
C2238 C2232 1.379 . S
C2238 C2235 1.363 . S
C2238 N2236 1.356 . S
C2239 C2233 1.363 . S
C2239 C2234 1.379 . S
C2239 N2237 1.356 . S
N2240 C2232 1.356 . S
N2240 H2246 0.984 . S
N2240 H2247 0.984 . S
N2241 C2234 1.356 . S
N2241 H2244 0.984 . S
N2241 H2245 0.985 . S
H2242 N2237 0.984 . S
H2243 N2237 0.985 . S
H2244 N2241 0.984 . S
H2245 N2241 0.985 . S
H2246 N2240 0.984 . S
H2247 N2240 0.984 . S
H2248 N2236 0.984 . S
H2249 N2236 0.985 . S
C2250 C2251 1.363 . S
C2250 C2256 1.379 . S
C2250 N2258 1.356 . S
C2251 C2250 1.363 . S
C2251 C2257 1.363 . S
C2252 C2253 1.363 . S
C2252 C2257 1.379 . S
C2252 N2259 1.356 . S
C2253 C2252 1.363 . S
C2253 C2256 1.363 . S
N2254 C2256 1.356 . S
N2254 H2266 0.984 . S
N2254 H2267 0.985 . S
N2255 C2257 1.356 . S
N2255 H2260 0.984 . S
N2255 H2261 0.985 . S
C2256 C2250 1.379 . S
C2256 C2253 1.363 . S
C2256 N2254 1.356 . S
C2257 C2251 1.363 . S
C2257 C2252 1.379 . S
C2257 N2255 1.356 . S
N2258 C2250 1.356 . S
N2258 H2264 0.984 . S
N2258 H2265 0.984 . S
N2259 C2252 1.356 . S
N2259 H2262 0.984 . S
N2259 H2263 0.985 . S
H2260 N2255 0.984 . S
H2261 N2255 0.985 . S
H2262 N2259 0.984 . S
H2263 N2259 0.985 . S
H2264 N2258 0.984 . S
H2265 N2258 0.984 . S
H2266 N2254 0.984 . S
H2267 N2254 0.985 . S
C2268 C2269 1.363 . S
C2268 C2274 1.379 . S
C2268 N2276 1.356 . S
C2269 C2268 1.363 . S
C2269 C2275 1.363 . S
C2270 C2271 1.363 . S
C2270 C2275 1.379 . S
C2270 N2277 1.356 . S
C2271 C2270 1.363 . S
C2271 C2274 1.363 . S
N2272 C2274 1.356 . S
N2272 H2284 0.984 . S
N2272 H2285 0.985 . S
N2273 C2275 1.356 1_565 S
N2273 H2278 0.984 . S
N2273 H2279 0.985 . S
C2274 C2268 1.379 . S
C2274 C2271 1.363 . S
C2274 N2272 1.356 . S
C2275 C2269 1.363 . S
C2275 C2270 1.379 . S
C2275 N2273 1.356 1_545 S
N2276 C2268 1.356 . S
N2276 H2282 0.984 . S
N2276 H2283 0.984 . S
N2277 C2270 1.356 . S
N2277 H2280 0.984 . S
N2277 H2281 0.985 1_545 S
H2278 N2273 0.984 . S
H2279 N2273 0.985 . S
H2280 N2277 0.984 . S
H2281 N2277 0.985 1_565 S
H2282 N2276 0.984 . S
H2283 N2276 0.984 . S
H2284 N2272 0.984 . S
H2285 N2272 0.985 . S
C2286 C2287 1.363 . S
C2286 C2292 1.379 . S
C2286 N2294 1.356 . S
C2287 C2286 1.363 . S
C2287 C2293 1.363 . S
C2288 C2289 1.363 . S
C2288 C2293 1.379 . S
C2288 N2295 1.356 . S
C2289 C2288 1.363 . S
C2289 C2292 1.363 . S
N2290 C2292 1.356 . S
N2290 H2302 0.984 . S
N2290 H2303 0.985 . S
N2291 C2293 1.356 . S
N2291 H2296 0.984 . S
N2291 H2297 0.985 . S
C2292 C2286 1.379 . S
C2292 C2289 1.363 . S
C2292 N2290 1.356 . S
C2293 C2287 1.363 . S
C2293 C2288 1.379 . S
C2293 N2291 1.356 . S
N2294 C2286 1.356 . S
N2294 H2300 0.984 . S
N2294 H2301 0.984 . S
N2295 C2288 1.356 . S
N2295 H2298 0.984 . S
N2295 H2299 0.985 . S
H2296 N2291 0.984 . S
H2297 N2291 0.985 . S
H2298 N2295 0.984 . S
H2299 N2295 0.985 . S
H2300 N2294 0.984 . S
H2301 N2294 0.984 . S
H2302 N2290 0.984 . S
H2303 N2290 0.985 . S
C2304 C2305 1.363 . S
C2304 C2310 1.379 . S
C2304 N2312 1.356 . S
C2305 C2304 1.363 . S
C2305 C2311 1.363 . S
C2306 C2307 1.363 . S
C2306 C2311 1.379 . S
C2306 N2313 1.356 . S
C2307 C2306 1.363 . S
C2307 C2310 1.363 . S
N2308 C2310 1.356 . S
N2308 H2320 0.984 . S
N2308 H2321 0.985 . S
N2309 C2311 1.356 . S
N2309 H2314 0.984 . S
N2309 H2315 0.985 . S
C2310 C2304 1.379 . S
C2310 C2307 1.363 . S
C2310 N2308 1.356 . S
C2311 C2305 1.363 . S
C2311 C2306 1.379 . S
C2311 N2309 1.356 . S
N2312 C2304 1.356 . S
N2312 H2318 0.984 . S
N2312 H2319 0.984 . S
N2313 C2306 1.356 . S
N2313 H2316 0.984 . S
N2313 H2317 0.985 . S
H2314 N2309 0.984 . S
H2315 N2309 0.985 . S
H2316 N2313 0.984 . S
H2317 N2313 0.985 . S
H2318 N2312 0.984 . S
H2319 N2312 0.984 . S
H2320 N2308 0.984 . S
H2321 N2308 0.985 . S
C2322 C2323 1.363 . S
C2322 C2328 1.379 . S
C2322 N2330 1.356 . S
C2323 C2322 1.363 . S
C2323 C2329 1.363 . S
C2324 C2325 1.363 . S
C2324 C2329 1.379 . S
C2324 N2331 1.356 . S
C2325 C2324 1.363 . S
C2325 C2328 1.363 . S
N2326 C2328 1.356 . S
N2326 H2338 0.984 . S
N2326 H2339 0.985 . S
N2327 C2329 1.356 . S
N2327 H2332 0.984 1_556 S
N2327 H2333 0.985 1_556 S
C2328 C2322 1.379 . S
C2328 C2325 1.363 . S
C2328 N2326 1.356 . S
C2329 C2323 1.363 . S
C2329 C2324 1.379 . S
C2329 N2327 1.356 . S
N2330 C2322 1.356 . S
N2330 H2336 0.984 . S
N2330 H2337 0.984 . S
N2331 C2324 1.356 . S
N2331 H2334 0.984 . S
N2331 H2335 0.985 . S
H2332 N2327 0.984 1_554 S
H2333 N2327 0.985 1_554 S
H2334 N2331 0.984 . S
H2335 N2331 0.985 . S
H2336 N2330 0.984 . S
H2337 N2330 0.984 . S
H2338 N2326 0.984 . S
H2339 N2326 0.985 . S
C2340 C2341 1.363 . S
C2340 C2346 1.379 . S
C2340 N2348 1.356 . S
C2341 C2340 1.363 . S
C2341 C2347 1.363 . S
C2342 C2343 1.363 . S
C2342 C2347 1.379 . S
C2342 N2349 1.356 . S
C2343 C2342 1.363 . S
C2343 C2346 1.363 . S
N2344 C2346 1.356 . S
N2344 H2356 0.984 . S
N2344 H2357 0.985 . S
N2345 C2347 1.356 . S
N2345 H2350 0.984 . S
N2345 H2351 0.985 . S
C2346 C2340 1.379 . S
C2346 C2343 1.363 . S
C2346 N2344 1.356 . S
C2347 C2341 1.363 . S
C2347 C2342 1.379 . S
C2347 N2345 1.356 . S
N2348 C2340 1.356 . S
N2348 H2354 0.984 . S
N2348 H2355 0.984 . S
N2349 C2342 1.356 . S
N2349 H2352 0.984 . S
N2349 H2353 0.985 . S
H2350 N2345 0.984 . S
H2351 N2345 0.985 . S
H2352 N2349 0.984 . S
H2353 N2349 0.985 . S
H2354 N2348 0.984 . S
H2355 N2348 0.984 . S
H2356 N2344 0.984 . S
H2357 N2344 0.985 . S
C2358 C2359 1.363 . S
C2358 C2364 1.379 1_455 S
C2358 N2366 1.356 . S
C2359 C2358 1.363 . S
C2359 C2365 1.363 . S
C2360 C2361 1.363 . S
C2360 C2365 1.379 1_655 S
C2360 N2367 1.356 . S
C2361 C2360 1.363 . S
C2361 C2364 1.363 . S
N2362 C2364 1.356 . S
N2362 H2374 0.984 . S
N2362 H2375 0.985 . S
N2363 C2365 1.356 . S
N2363 H2368 0.984 . S
N2363 H2369 0.985 . S
C2364 C2358 1.379 1_655 S
C2364 C2361 1.363 . S
C2364 N2362 1.356 . S
C2365 C2359 1.363 . S
C2365 C2360 1.379 1_455 S
C2365 N2363 1.356 . S
N2366 C2358 1.356 . S
N2366 H2372 0.984 . S
N2366 H2373 0.984 . S
N2367 C2360 1.356 . S
N2367 H2370 0.984 . S
N2367 H2371 0.985 . S
H2368 N2363 0.984 . S
H2369 N2363 0.985 . S
H2370 N2367 0.984 . S
H2371 N2367 0.985 . S
H2372 N2366 0.984 . S
H2373 N2366 0.984 . S
H2374 N2362 0.984 . S
H2375 N2362 0.985 . S
C651 C330 1.323 . S
C649 C10 1.383 . S
C667 C16 1.586 . S
C669 C350 1.640 . S
C687 C370 1.295 . S
C685 C30 1.378 . S
C705 C389 1.613 . S
C703 C42 1.568 . S
C723 C347 1.585 . S
C721 C57 1.542 . S
C739 C69 1.446 . S
C741 C372 1.370 . S
C759 C392 1.545 . S
C757 C83 1.513 . S
C775 C101 1.456 . S
C777 C328 1.371 . S
C793 C108 1.617 . S
C795 C325 1.549 . S
C813 C348 1.442 . S
C811 C120 1.539 . S
C831 C371 1.596 . S
C829 C133 1.525 . S
C849 C393 1.535 . S
C847 C147 1.606 1_545 S
C867 C351 1.225 . S
C865 C114 1.329 . S
C885 C367 1.243 1_545 S
C883 C122 1.356 . S
C901 C135 1.419 . S
C903 C390 1.314 . S
C921 C329 1.296 . S
C919 C153 1.245 . S
C937 C160 1.546 . S
C939 C326 1.609 . S
C955 C174 1.190 . S
C957 C409 1.059 . S
C975 C431 1.555 . S
C973 C187 1.511 . S
C993 C454 1.222 . S
C991 C205 1.397 . S
C1009 C212 1.579 . S
C1011 C327 1.531 . S
C1027 C226 1.643 . S
C1029 C369 1.565 . S
C1047 C451 1.294 . S
C1045 C185 1.468 . S
C1065 C412 1.133 . S
C1063 C244 1.245 . S
C1083 C477 1.217 . S
C1081 C23 1.308 . S
C1101 C497 1.601 . S
C1099 C5 1.607 . S
C1117 C49 1.348 . S
C1119 C519 1.263 . S
C1135 C29 1.383 . S
C1137 C536 1.384 . S
C1153 C94 1.676 . S
C1155 C494 1.670 . S
C1171 C88 1.369 . S
C1173 C517 1.175 . S
C1191 C539 1.448 . S
C1189 C70 1.450 . S
C1207 C62 1.407 . S
C1209 C475 1.216 . S
C1225 C257 1.264 1_565 S
C1227 C472 1.109 . S
C1245 C495 1.507 . S
C1243 C200 1.641 1_545 S
C1263 C514 1.317 . S
C1261 C211 1.491 . S
C1281 C540 1.389 . S
C1279 C179 1.513 . S
C1299 C498 1.233 . S
C1297 C251 1.340 . S
C1317 C518 1.221 . S
C1315 C198 1.222 . S
C1335 C537 1.138 . S
C1333 C213 1.248 . S
C1351 C173 1.441 . S
C1353 C476 1.450 1_545 S
C1371 C473 1.481 . S
C1369 C264 1.482 . S
C1387 C148 1.361 . S
C1389 C556 1.131 . S
C1407 C579 1.446 . S
C1405 C278 1.545 . S
C1423 C127 1.427 . S
C1425 C601 1.164 . S
C1443 C474 1.444 1_545 S
C1441 C140 1.534 . S
C1461 C515 1.493 . S
C1459 C289 1.492 . S
C1479 C598 1.048 . S
C1477 C276 1.270 . S
C1495 C303 1.149 . S
C1497 C559 0.977 . S
C1513 C36 1.383 . S
C1515 C624 1.323 . S
C1531 C44 1.586 . S
C1533 C413 1.640 . S
C1551 C433 1.295 . S
C1549 C4 1.378 . S
C1567 C18 1.568 . S
C1569 C452 1.613 . S
C1585 C81 1.544 . S
C1587 C410 1.585 . S
C1603 C95 1.446 . S
C1605 C435 1.370 . S
C1623 C455 1.546 . S
C1621 C55 1.515 . S
C1641 C622 1.371 . S
C1639 C75 1.456 . S
C1659 C619 1.549 . S
C1657 C277 1.616 . S
C1677 C411 1.442 . S
C1675 C263 1.539 . S
C1695 C434 1.596 . S
C1693 C302 1.525 . S
C1711 C290 1.606 . S
C1713 C456 1.535 . S
C1731 C414 1.225 . S
C1729 C283 1.329 . S
C1747 C265 1.356 . S
C1749 C430 1.243 . S
C1767 C453 1.314 . S
C1765 C304 1.419 . S
C1783 C296 1.245 . S
C1785 C623 1.296 . S
C1803 C620 1.609 . S
C1801 C199 1.546 . S
C1819 C224 1.190 . S
C1821 C346 1.059 . S
C1839 C368 1.555 . S
C1837 C252 1.511 1_565 S
C1855 C166 1.397 . S
C1857 C391 1.222 . S
C1875 C621 1.531 . S
C1873 C238 1.579 . S
C1893 C432 1.565 . S
C1891 C172 1.643 . S
C1911 C388 1.294 . S
C1909 C250 1.468 . S
C1929 C349 1.133 . S
C1927 C218 1.245 . S
C1945 C43 1.308 . S
C1947 C645 1.217 . S
C1963 C31 1.607 . S
C1965 C560 1.601 . S
C1981 C17 1.348 . S
C1983 C582 1.263 . S
C2001 C599 1.384 . S
C1999 C3 1.383 . S
C2019 C557 1.670 . S
C2017 C68 1.676 . S
C2035 C56 1.369 . S
C2037 C580 1.174 . S
C2055 C602 1.448 . S
C2053 C96 1.450 . S
C2071 C82 1.407 . S
C2073 C643 1.216 . S
C2091 C640 1.109 . S
C2089 C192 1.264 . S
C2107 C161 1.641 . S
C2109 C558 1.507 . S
C2125 C237 1.491 . S
C2127 C577 1.317 . S
C2145 C603 1.389 . S
C2143 C225 1.513 . S
C2163 C561 1.233 . S
C2161 C186 1.340 . S
C2179 C159 1.222 . S
C2181 C581 1.221 . S
C2199 C600 1.138 . S
C2197 C239 1.248 . S
C2217 C644 1.450 . S
C2215 C231 1.441 . S
C2235 C641 1.481 . S
C2233 C121 1.482 . S
C2253 C493 1.131 . S
C2251 C291 1.361 . S
C2269 C109 1.545 . S
C2271 C516 1.446 . S
C2287 C270 1.427 . S
C2289 C538 1.164 . S
C2307 C642 1.444 . S
C2305 C309 1.534 . S
C2325 C578 1.493 . S
C2323 C146 1.492 . S
C2343 C535 1.048 . S
C2341 C107 1.270 . S
C2361 C496 0.977 . S
C2359 C134 1.149 . S
