# Generated by pormake.
# Topology ssa, (4,4)-cn, num edge types: 1
# Building blocks:
#     Node 0, Type 0, BuildingBlock: KOZSID_clean_sbu_0, # of connection points: 4
#     Node 1, Type 0, BuildingBlock: KOZSID_clean_sbu_0, # of connection points: 4
#     Node 2, Type 0, BuildingBlock: KOZSID_clean_sbu_0, # of connection points: 4
#     Node 3, Type 0, BuildingBlock: KOZSID_clean_sbu_0, # of connection points: 4
#     Node 4, Type 0, BuildingBlock: KOZSID_clean_sbu_0, # of connection points: 4
#     Node 5, Type 0, BuildingBlock: KOZSID_clean_sbu_0, # of connection points: 4
#     Node 6, Type 1, BuildingBlock: MUDLON_clean_sbu_0, # of connection points: 4
#     Node 7, Type 1, BuildingBlock: MUDLON_clean_sbu_0, # of connection points: 4
#     Node 8, Type 1, BuildingBlock: MUDLON_clean_sbu_0, # of connection points: 4
#     Node 9, Type 1, BuildingBlock: MUDLON_clean_sbu_0, # of connection points: 4
#     Node 10, Type 1, BuildingBlock: MUDLON_clean_sbu_0, # of connection points: 4
#     Node 11, Type 1, BuildingBlock: MUDLON_clean_sbu_0, # of connection points: 4
#     Edge 12, Type (0, 1), BuildingBlock: OJICUG_clean_linker_0, # of connection points: 2
#     Edge 13, Type (0, 1), BuildingBlock: OJICUG_clean_linker_0, # of connection points: 2
#     Edge 14, Type (0, 1), BuildingBlock: OJICUG_clean_linker_0, # of connection points: 2
#     Edge 15, Type (0, 1), BuildingBlock: OJICUG_clean_linker_0, # of connection points: 2
#     Edge 16, Type (0, 1), BuildingBlock: OJICUG_clean_linker_0, # of connection points: 2
#     Edge 17, Type (0, 1), BuildingBlock: OJICUG_clean_linker_0, # of connection points: 2
#     Edge 18, Type (0, 1), BuildingBlock: OJICUG_clean_linker_0, # of connection points: 2
#     Edge 19, Type (0, 1), BuildingBlock: OJICUG_clean_linker_0, # of connection points: 2
#     Edge 20, Type (0, 1), BuildingBlock: OJICUG_clean_linker_0, # of connection points: 2
#     Edge 21, Type (0, 1), BuildingBlock: OJICUG_clean_linker_0, # of connection points: 2
#     Edge 22, Type (0, 1), BuildingBlock: OJICUG_clean_linker_0, # of connection points: 2
#     Edge 23, Type (0, 1), BuildingBlock: OJICUG_clean_linker_0, # of connection points: 2
#     Edge 24, Type (0, 1), BuildingBlock: OJICUG_clean_linker_0, # of connection points: 2
#     Edge 25, Type (0, 1), BuildingBlock: OJICUG_clean_linker_0, # of connection points: 2
#     Edge 26, Type (0, 1), BuildingBlock: OJICUG_clean_linker_0, # of connection points: 2
#     Edge 27, Type (0, 1), BuildingBlock: OJICUG_clean_linker_0, # of connection points: 2
#     Edge 28, Type (0, 1), BuildingBlock: OJICUG_clean_linker_0, # of connection points: 2
#     Edge 29, Type (0, 1), BuildingBlock: OJICUG_clean_linker_0, # of connection points: 2
#     Edge 30, Type (0, 1), BuildingBlock: OJICUG_clean_linker_0, # of connection points: 2
#     Edge 31, Type (0, 1), BuildingBlock: OJICUG_clean_linker_0, # of connection points: 2
#     Edge 32, Type (0, 1), BuildingBlock: OJICUG_clean_linker_0, # of connection points: 2
#     Edge 33, Type (0, 1), BuildingBlock: OJICUG_clean_linker_0, # of connection points: 2
#     Edge 34, Type (0, 1), BuildingBlock: OJICUG_clean_linker_0, # of connection points: 2
#     Edge 35, Type (0, 1), BuildingBlock: OJICUG_clean_linker_0, # of connection points: 2
# Relax obj value: 0.017
# Max RMSD: 0.037
# Mean RMSD: 0.023
data_MOF--net-ssa--node1-KOZSID_clean_sbu_0--node2-MUDLON_clean_sbu_0--edge1-OJICUG_clean_linker_0
_symmetry_space_group_name_H-M    P1
_symmetry_Int_Tables_number       1
_symmetry_cell_setting            triclinic
loop_
_symmetry_equiv_pos_as_xyz
'x, y, z'
_cell_length_a     36.169639
_cell_length_b     37.557152
_cell_length_c     34.155883
_cell_angle_alpha  86.451852
_cell_angle_beta   90.009433
_cell_angle_gamma 123.81559
loop_
_atom_site_label
_atom_site_type_symbol
_atom_site_fract_x
_atom_site_fract_y
_atom_site_fract_z
_atom_type_partial_charge
C0 C 0.91315 0.49786 0.02256 0.0
C1 C 0.87297 0.48798 0.0385 0.0
C2 C 0.86908 0.47069 0.07613 0.0
C3 C 0.90681 0.47068 0.08104 0.0
N4 N 0.93441 0.4876 0.04902 0.0
Co5 Co 0.98958 0.48898 0.04081 0.0
N6 N 0.97166 0.44302 0.08334 0.0
C7 C 0.93822 0.4287 0.11033 0.0
C8 C 0.93278 0.39636 0.13594 0.0
C9 C 0.96553 0.39071 0.12508 0.0
C10 C 0.98971 0.42045 0.09363 0.0
N11 N 0.04544 0.49146 0.03219 0.0
C12 C 0.05867 0.46637 0.04819 0.0
C13 C 0.10262 0.48317 0.03638 0.0
C14 C 0.11741 0.52008 0.01328 0.0
C15 C 0.08214 0.52419 0.01208 0.0
N16 N 0.00617 0.53405 0.99801 0.0
C17 C 0.04715 0.56256 0.98213 0.0
C18 C 0.04701 0.58726 0.9507 0.0
C19 C 1.00306 0.57285 0.94648 0.0
C20 C 0.97893 0.54008 0.97557 0.0
N21 N 0.02061 0.53305 0.07887 0.0
C22 C 0.07758 0.60111 0.12551 0.0
C23 C 0.04894 0.60397 0.09945 0.0
C24 C 0.0207 0.56959 0.07649 0.0
C25 C 0.07497 0.56247 0.12888 0.0
C26 C 0.04628 0.52914 0.10592 0.0
N27 N 0.95951 0.44572 1.00256 0.0
C28 C 0.95822 0.42679 0.93645 0.0
C29 C 0.91283 0.39405 0.94136 0.0
C30 C 0.89177 0.38643 0.97825 0.0
C31 C 0.91585 0.41232 0.00861 0.0
C32 C 0.98085 0.45199 0.96729 0.0
H33 H 0.89868 0.40634 0.03648 0.0
H34 H 0.01518 0.47798 0.96186 0.0
H35 H 0.99998 0.57304 0.05595 0.0
H36 H 0.04676 0.50095 0.10916 0.0
C37 C 0.91064 0.44405 0.10886 0.0
C38 C 0.93042 0.51575 0.98213 0.0
C39 C 0.03391 0.43164 0.07982 0.0
C40 C 0.08153 0.55696 0.99059 0.0
H41 H 0.84814 0.49107 0.02419 0.0
H42 H 0.84017 0.45607 0.09603 0.0
H43 H 0.90807 0.37904 0.15976 0.0
H44 H 0.9724 0.36882 0.13996 0.0
H45 H 0.12311 0.4716 0.04489 0.0
H46 H 0.15025 0.54167 0.99947 0.0
H47 H 0.07496 0.61062 0.9313 0.0
H48 H 0.99009 0.58432 0.92414 0.0
H49 H 0.04867 0.63268 0.09631 0.0
H50 H 0.09637 0.55824 0.14793 0.0
H51 H 0.97592 0.43411 0.90843 0.0
H52 H 0.85696 0.36088 0.98358 0.0
C53 C 0.54872 0.04358 0.59398 0.0
C54 C 0.54969 0.02719 0.63126 0.0
C55 C 0.51359 0.98569 0.6353 0.0
C56 C 0.4928 0.97908 0.60038 0.0
N57 N 0.51401 0.01349 0.57388 0.0
Co58 Co 0.49304 0.01883 0.52077 0.0
N59 N 0.43827 0.95869 0.52755 0.0
C60 C 0.42549 0.93093 0.5597 0.0
C61 C 0.3904 0.89007 0.55372 0.0
C62 C 0.38117 0.89136 0.51511 0.0
C63 C 0.41099 0.93327 0.49972 0.0
N64 N 0.47166 0.02427 0.46804 0.0
C65 C 0.43946 0.99316 0.44684 0.0
C66 C 0.4364 0.00978 0.41048 0.0
C67 C 0.46947 0.05259 0.40783 0.0
C68 C 0.49043 0.05963 0.44273 0.0
N69 N 0.54817 0.07851 0.51324 0.0
C70 C 0.56021 0.10633 0.4812 0.0
C71 C 0.59869 0.14572 0.48521 0.0
C72 C 0.61164 0.14323 0.52225 0.0
C73 C 0.58019 0.10222 0.53879 0.0
N74 N 0.52426 0.99533 0.49597 0.0
C75 C 0.54873 0.94839 0.45397 0.0
C76 C 0.55519 0.98652 0.43718 0.0
C77 C 0.54334 0.00964 0.45874 0.0
C78 C 0.53426 0.93696 0.49352 0.0
C79 C 0.52237 0.96062 0.51374 0.0
N80 N 0.46179 0.04252 0.54588 0.0
C81 C 0.45672 0.10353 0.55276 0.0
C82 C 0.43907 0.08892 0.59129 0.0
C83 C 0.4281 0.04804 0.60475 0.0
C84 C 0.43899 0.02531 0.58147 0.0
C85 C 0.46761 0.08009 0.53083 0.0
H86 H 0.4305 0.99479 0.59377 0.0
H87 H 0.48262 0.09415 0.50247 0.0
H88 H 0.54784 0.03784 0.44408 0.0
H89 H 0.50973 0.94898 0.5432 0.0
C90 C 0.45205 0.94192 0.59235 0.0
C91 C 0.5804 0.08836 0.57969 0.0
C92 C 0.41523 0.94714 0.45799 0.0
C93 C 0.53203 0.09634 0.44977 0.0
H94 H 0.57336 0.04386 0.65363 0.0
H95 H 0.50296 0.96346 0.66107 0.0
H96 H 0.37572 0.86185 0.5741 0.0
H97 H 0.35692 0.86386 0.49984 0.0
H98 H 0.41447 0.99219 0.38733 0.0
H99 H 0.47923 0.07505 0.38235 0.0
H100 H 0.61428 0.17364 0.46442 0.0
H101 H 0.64004 0.16923 0.53604 0.0
H102 H 0.5669 0.99727 0.40686 0.0
H103 H 0.53035 0.90873 0.50854 0.0
H104 H 0.464 0.13401 0.53998 0.0
H105 H 0.41359 0.03455 0.63401 0.0
C106 C 0.59783 0.59517 0.95754 0.0
C107 C 0.60734 0.62448 0.92601 0.0
C108 C 0.5731 0.63007 0.92518 0.0
C109 C 0.54483 0.60399 0.95617 0.0
N110 N 0.5593 0.58263 0.97705 0.0
Co111 Co 0.52815 0.54089 0.02391 0.0
N112 N 0.47374 0.54214 0.01775 0.0
C113 C 0.46666 0.5632 0.98836 0.0
C114 C 0.42639 0.55852 0.992 0.0
C115 C 0.40684 0.53344 0.02606 0.0
C116 C 0.43662 0.52455 0.04143 0.0
N117 N 0.49823 0.50141 0.07241 0.0
C118 C 0.45993 0.48956 0.09209 0.0
C119 C 0.45384 0.46572 0.1271 0.0
C120 C 0.48978 0.46292 0.12993 0.0
C121 C 0.51583 0.48533 0.09678 0.0
N122 N 0.58128 0.53729 0.02834 0.0
C123 C 0.58728 0.51375 0.05593 0.0
C124 C 0.6253 0.51477 0.04957 0.0
C125 C 0.64412 0.53954 0.01522 0.0
C126 C 0.61643 0.55232 1.00278 0.0
N127 N 0.5546 0.5901 0.05835 0.0
C128 C 0.58112 0.65019 0.11626 0.0
C129 C 0.59838 0.62497 0.11436 0.0
C130 C 0.58479 0.59548 0.08571 0.0
C131 C 0.55292 0.64704 0.08653 0.0
C132 C 0.54076 0.61756 0.05781 0.0
N133 N 0.50209 0.49156 0.98986 0.0
C134 C 0.48584 0.42116 0.97891 0.0
C135 C 0.48055 0.42632 0.9388 0.0
C136 C 0.48297 0.46362 0.92534 0.0
C137 C 0.49344 0.49551 0.95123 0.0
C138 C 0.49635 0.45365 1.0036 0.0
H139 H 0.49584 0.52374 0.93913 0.0
H140 H 0.50119 0.4479 0.03354 0.0
H141 H 0.59867 0.57682 0.08715 0.0
H142 H 0.51914 0.6169 0.03611 0.0
C143 C 0.50128 0.59267 0.96184 0.0
C144 C 0.62371 0.57685 0.96551 0.0
C145 C 0.42959 0.5019 0.0798 0.0
C146 C 0.55665 0.49144 0.08747 0.0
H147 H 0.63505 0.63874 0.9048 0.0
H148 H 0.56798 0.64868 0.90307 0.0
H149 H 0.41385 0.57356 0.97333 0.0
H150 H 0.37511 0.52425 0.03899 0.0
H151 H 0.42673 0.45255 0.14881 0.0
H152 H 0.49653 0.44712 0.15368 0.0
H153 H 0.63743 0.49877 0.06737 0.0
H154 H 0.67431 0.54678 1.0005 0.0
H155 H 0.62183 0.6272 0.13544 0.0
H156 H 0.53877 0.66597 0.08608 0.0
H157 H 0.48299 0.39241 0.99123 0.0
H158 H 0.47881 0.46917 0.89465 0.0
C159 C 0.94324 0.44206 0.54703 0.0
C160 C 0.90028 0.41103 0.53688 0.0
C161 C 0.89007 0.42927 0.50671 0.0
C162 C 0.92731 0.47012 0.49989 0.0
N163 N 0.96102 0.47895 0.5235 0.0
Co164 Co 0.02091 0.53486 0.52345 0.0
N165 N 0.00392 0.56301 0.48207 0.0
C166 C 0.96361 0.54565 0.46629 0.0
C167 C 0.96248 0.57203 0.43737 0.0
C168 C 0.00484 0.60808 0.43396 0.0
C169 C 0.02938 0.60151 0.46106 0.0
N170 N 0.08118 0.59034 0.52246 0.0
C171 C 0.0995 0.62567 0.49681 0.0
C172 C 0.14366 0.65578 0.50437 0.0
C173 C 0.15399 0.63849 0.53537 0.0
C174 C 0.11569 0.59892 0.54484 0.0
N175 N 0.03731 0.50687 0.5657 0.0
C176 C 0.0766 0.52558 0.58366 0.0
C177 C 0.07731 0.49986 0.6135 0.0
C178 C 0.03575 0.46274 0.61529 0.0
C179 C 0.01194 0.46779 0.58615 0.0
N180 N 0.044 0.51643 0.48169 0.0
C181 C 0.08375 0.50273 0.41804 0.0
C182 C 0.10446 0.51445 0.45387 0.0
C183 C 0.08401 0.52062 0.4851 0.0
C184 C 0.04191 0.49647 0.41519 0.0
C185 C 0.02278 0.50331 0.44708 0.0
N186 N 0.99843 0.55409 0.5651 0.0
C187 C 0.00952 0.58891 0.6255 0.0
C188 C 0.96554 0.57745 0.62694 0.0
C189 C 0.9387 0.55507 0.59607 0.0
C190 C 0.9557 0.54405 0.56567 0.0
C191 C 0.02501 0.57692 0.59483 0.0
H192 H 0.93337 0.5268 0.54329 0.0
H193 H 0.05856 0.58621 0.59621 0.0
H194 H 0.10158 0.52941 0.51157 0.0
H195 H 0.99117 0.4986 0.44282 0.0
C196 C 0.92984 0.50235 0.47483 0.0
C197 C 0.96469 0.43549 0.58045 0.0
C198 C 0.07748 0.63083 0.46323 0.0
C199 C 0.11166 0.56796 0.57279 0.0
H200 H 0.87813 0.37893 0.55066 0.0
H201 H 0.85859 0.41502 0.49251 0.0
H202 H 0.93487 0.56485 0.4193 0.0
H203 H 0.01686 0.63532 0.4128 0.0
H204 H 0.16633 0.68644 0.48826 0.0
H205 H 0.18605 0.6524 0.54843 0.0
H206 H 0.10444 0.50764 0.63245 0.0
H207 H 0.02403 0.43551 0.63635 0.0
H208 H 0.13621 0.51842 0.45805 0.0
H209 H 0.02425 0.48712 0.38817 0.0
H210 H 0.03217 0.60702 0.64808 0.0
H211 H 0.90421 0.54492 0.59576 0.0
C212 C 0.4796 0.01194 0.08539 0.0
C213 C 0.48335 0.03463 0.11734 0.0
C214 C 0.52639 0.06956 0.11636 0.0
C215 C 0.54644 0.06624 0.08399 0.0
N216 N 0.51846 0.03192 0.06364 0.0
Co217 Co 0.53482 0.01279 0.01679 0.0
N218 N 0.5998 0.0592 0.01957 0.0
C219 C 0.61882 0.08709 0.0479 0.0
C220 C 0.6631 0.11803 0.0401 0.0
C221 C 0.67266 0.11027 1.0042 0.0
C222 C 0.63356 0.07458 0.99203 0.0
N223 N 0.5509 0.99473 0.96907 0.0
C224 C 0.58914 0.0161 0.94633 0.0
C225 C 0.58536 0.99418 0.91373 0.0
C226 C 0.54265 0.95874 0.91491 0.0
C227 C 0.52293 0.96092 0.94814 0.0
N228 N 0.47013 0.96568 0.01447 0.0
C229 C 0.45144 0.93548 0.98809 0.0
C230 C 0.40706 0.90481 0.9961 0.0
C231 C 0.39716 0.91519 0.0304 0.0
C232 C 0.43622 0.95167 0.04134 0.0
N233 N 0.52736 0.05225 0.9817 0.0
C234 C 0.52632 0.11053 0.92654 0.0
C235 C 0.50178 0.06658 0.92115 0.0
C236 C 0.50267 0.0382 0.94894 0.0
C237 C 0.55004 0.12458 0.96066 0.0
C238 C 0.54976 0.0951 0.9878 0.0
N239 N 0.54183 0.97291 0.05229 0.0
C240 C 0.52152 0.90054 0.0702 0.0
C241 C 0.53022 0.90927 0.10971 0.0
C242 C 0.54839 0.9517 0.11887 0.0
C243 C 0.55515 0.98283 0.08983 0.0
C244 C 0.52728 0.93241 0.04233 0.0
H245 H 0.56956 0.01437 0.099 0.0
H246 H 0.51859 0.92308 0.01318 0.0
H247 H 0.48392 0.00518 0.9429 0.0
H248 H 0.5686 0.1079 0.01315 0.0
C249 C 0.5925 0.08957 0.07624 0.0
C250 C 0.44045 0.96921 0.07935 0.0
C251 C 0.62851 0.0587 0.95277 0.0
C252 C 0.47736 0.93462 0.95826 0.0
H253 H 0.45836 0.02566 0.14021 0.0
H254 H 0.54201 0.09274 0.13829 0.0
H255 H 0.68489 0.14535 0.05682 0.0
H256 H 0.70423 0.13046 0.98814 0.0
H257 H 0.61035 0.00393 0.89059 0.0
H258 H 0.52716 0.9355 0.89301 0.0
H259 H 0.38512 0.87696 0.98005 0.0
H260 H 0.36541 0.89693 0.04662 0.0
H261 H 0.48272 0.05416 0.89517 0.0
H262 H 0.56859 0.1582 0.96658 0.0
H263 H 0.50969 0.86914 0.06053 0.0
H264 H 0.55624 0.96122 0.14856 0.0
C265 C 0.49906 0.56756 0.50107 0.0
C266 C 0.48142 0.58876 0.5162 0.0
C267 C 0.458 0.56564 0.55003 0.0
C268 C 0.46243 0.53164 0.55357 0.0
N269 N 0.4885 0.53244 0.52465 0.0
Co270 Co 0.49958 0.48685 0.51554 0.0
N271 N 0.45782 0.44864 0.56026 0.0
C272 C 0.43262 0.45584 0.58331 0.0
C273 C 0.40922 0.42434 0.61302 0.0
C274 C 0.42172 0.39634 0.60957 0.0
C275 C 0.45223 0.41269 0.57798 0.0
N276 N 0.51074 0.44121 0.50667 0.0
C277 C 0.50265 0.40796 0.5318 0.0
C278 C 0.52091 0.38704 0.51739 0.0
C279 C 0.54232 0.40858 0.48238 0.0
C280 C 0.53621 0.44148 0.47752 0.0
N281 N 0.54124 0.52504 0.47055 0.0
C282 C 0.56581 0.5172 0.44724 0.0
C283 C 0.58834 0.54787 0.41676 0.0
C284 C 0.57625 0.57617 0.42005 0.0
C285 C 0.54681 0.56092 0.45237 0.0
N286 N 0.54962 0.51183 0.55258 0.0
C287 C 0.6125 0.5279 0.61044 0.0
C288 C 0.61946 0.52231 0.57164 0.0
C289 C 0.58828 0.51492 0.54345 0.0
C290 C 0.57512 0.52877 0.61888 0.0
C291 C 0.54445 0.52092 0.58971 0.0
N292 N 0.44941 0.46141 0.47865 0.0
C293 C 0.42239 0.43985 0.41359 0.0
C294 C 0.38209 0.43523 0.42282 0.0
C295 C 0.3757 0.44236 0.46128 0.0
C296 C 0.40941 0.45546 0.48828 0.0
C297 C 0.45486 0.45223 0.44171 0.0
H298 H 0.40255 0.46138 0.51656 0.0
H299 H 0.48462 0.45524 0.43243 0.0
H300 H 0.59535 0.51003 0.51479 0.0
H301 H 0.51589 0.52063 0.59828 0.0
C302 C 0.43681 0.49524 0.57962 0.0
C303 C 0.52161 0.57902 0.4624 0.0
C304 C 0.48177 0.39862 0.57098 0.0
C305 C 0.56154 0.47772 0.45121 0.0
H306 H 0.48316 0.61667 0.50319 0.0
H307 H 0.4375 0.57123 0.56827 0.0
H308 H 0.38837 0.4236 0.63622 0.0
H309 H 0.41257 0.36912 0.62988 0.0
H310 H 0.5211 0.3606 0.53143 0.0
H311 H 0.56318 0.4032 0.46443 0.0
H312 H 0.6087 0.54807 0.39341 0.0
H313 H 0.58601 0.6036 0.3998 0.0
H314 H 0.64813 0.52198 0.56318 0.0
H315 H 0.56885 0.53434 0.64814 0.0
H316 H 0.42986 0.43532 0.38436 0.0
H317 H 0.34491 0.43827 0.47073 0.0
Mg318 Mg 0.22054 0.4505 0.24657 0.0
C319 C 0.16135 0.4248 0.17505 0.0
O320 O 0.20017 0.45164 0.15691 0.0
C321 C 0.26698 0.41317 0.2944 0.0
O322 O 0.28252 0.41257 0.25993 0.0
C323 C 0.16462 0.46285 0.29634 0.0
O324 O 0.14224 0.42205 0.28929 0.0
O325 O 0.20364 0.48798 0.28039 0.0
O326 O 0.15979 0.41525 0.21185 0.0
O327 O 0.27872 0.48123 0.20504 0.0
C328 C 0.27974 0.45491 0.18386 0.0
O329 O 0.24628 0.41431 0.18768 0.0
O330 O 0.23773 0.42206 0.29619 0.0
Mg331 Mg 0.76567 0.23908 0.75333 0.0
C332 C 0.71439 0.19599 0.68803 0.0
O333 O 0.75051 0.19562 0.68776 0.0
C334 C 0.82308 0.29783 0.80716 0.0
O335 O 0.84444 0.28581 0.7865 0.0
C336 C 0.75279 0.17594 0.82578 0.0
O337 O 0.79048 0.20835 0.83772 0.0
O338 O 0.7406 0.17883 0.79123 0.0
O339 O 0.7093 0.21527 0.71488 0.0
O340 O 0.82165 0.28253 0.7098 0.0
C341 C 0.85292 0.28489 0.68995 0.0
O342 O 0.85828 0.25301 0.6934 0.0
O343 O 0.78301 0.28379 0.79881 0.0
Mg344 Mg 0.55397 0.77895 0.29707 0.0
C345 C 0.50047 0.77711 0.22824 0.0
O346 O 0.50887 0.75007 0.21515 0.0
C347 C 0.51107 0.68627 0.33936 0.0
O348 O 0.4951 0.67104 0.30532 0.0
C349 C 0.54997 0.82762 0.35591 0.0
O350 O 0.51239 0.78947 0.35688 0.0
O351 O 0.58068 0.83573 0.33118 0.0
O352 O 0.50609 0.78499 0.26424 0.0
O353 O 0.59089 0.77295 0.2496 0.0
C354 C 0.59822 0.74343 0.25239 0.0
O355 O 0.59415 0.72431 0.28715 0.0
O356 O 0.53252 0.72657 0.34256 0.0
Mg357 Mg 0.78758 0.55618 0.79939 0.0
C358 C 0.73725 0.55102 0.73039 0.0
O359 O 0.77259 0.59059 0.72976 0.0
C360 C 0.82592 0.50858 0.84869 0.0
O361 O 0.832 0.4964 0.81541 0.0
C362 C 0.72466 0.55737 0.84768 0.0
O363 O 0.70861 0.51772 0.83927 0.0
O364 O 0.76306 0.5871 0.83312 0.0
O365 O 0.73245 0.52402 0.75812 0.0
O366 O 0.84472 0.59157 0.75728 0.0
C367 C 0.88168 0.59552 0.76209 0.0
O368 O 0.89117 0.5878 0.79739 0.0
O369 O 0.80606 0.52799 0.84871 0.0
Mg370 Mg 0.26216 0.7979 0.27466 0.0
C371 C 0.21053 0.74548 0.21066 0.0
O372 O 0.2129 0.78157 0.20433 0.0
C373 C 0.34666 0.84843 0.32222 0.0
O374 O 0.36309 0.87385 0.2899 0.0
C375 C 0.19649 0.73751 0.33081 0.0
O376 O 0.22265 0.72565 0.31973 0.0
O377 O 0.20373 0.77277 0.31496 0.0
O378 O 0.23213 0.74236 0.23873 0.0
O379 O 0.29698 0.85284 0.22959 0.0
C380 C 0.32454 0.84962 0.2092 0.0
O381 O 0.3272 0.81657 0.21805 0.0
O382 O 0.30923 0.81248 0.32164 0.0
Mg383 Mg 0.46473 0.25567 0.76676 0.0
C384 C 0.45378 0.20101 0.70791 0.0
O385 O 0.49559 0.22466 0.71757 0.0
C386 C 0.47366 0.30784 0.83125 0.0
O387 O 0.50868 0.30566 0.83098 0.0
C388 C 0.52358 0.23117 0.81471 0.0
O389 O 0.56002 0.2665 0.79984 0.0
O390 O 0.48572 0.22291 0.8055 0.0
O391 O 0.42539 0.20469 0.72634 0.0
O392 O 0.51111 0.30455 0.72231 0.0
C393 C 0.51329 0.33948 0.71782 0.0
O394 O 0.49953 0.35111 0.74694 0.0
O395 O 0.44419 0.28744 0.80605 0.0
C396 C 0.0819 0.4028 0.09364 0.0
C397 C 0.05999 0.42134 0.10706 0.0
H398 H 0.13215 0.38999 0.10465 0.0
C399 C 0.06678 0.43436 0.14569 0.0
H400 H 0.07712 0.39222 0.06418 0.0
C401 C 0.09651 0.43112 0.16946 0.0
C402 C 0.12121 0.41604 0.15475 0.0
H403 H 0.0508 0.44914 0.15691 0.0
H404 H 0.10284 0.44367 0.19819 0.0
C405 C 0.11305 0.40118 0.11688 0.0
C406 C 0.60408 0.13482 0.63693 0.0
C407 C 0.61503 0.11879 0.60602 0.0
H408 H 0.62708 0.17249 0.68719 0.0
C409 C 0.65881 0.13012 0.60117 0.0
H410 H 0.57029 0.12623 0.64114 0.0
C411 C 0.69103 0.15631 0.6272 0.0
C412 C 0.68024 0.17177 0.65883 0.0
H413 H 0.66785 0.11798 0.57761 0.0
H414 H 0.72437 0.16379 0.62284 0.0
C415 C 0.63651 0.1613 0.6631 0.0
C416 C 0.59512 0.66323 0.18797 0.0
C417 C 0.5904 0.67725 0.15021 0.0
H418 H 0.60233 0.67336 0.24912 0.0
C419 C 0.5925 0.71593 0.14599 0.0
H420 H 0.5929 0.63334 0.19293 0.0
C421 C 0.59739 0.73885 0.17878 0.0
C422 C 0.60052 0.7238 0.21661 0.0
H423 H 0.58975 0.7283 0.11745 0.0
H424 H 0.5973 0.76763 0.17461 0.0
C425 C 0.60035 0.68623 0.22052 0.0
C426 C 0.96091 0.58473 0.6994 0.0
C427 C 0.9474 0.58702 0.66117 0.0
H428 H 0.95164 0.58652 0.76092 0.0
C429 C 0.91518 0.59671 0.65634 0.0
H430 H 0.98514 0.57681 0.70456 0.0
C431 C 0.89556 0.60194 0.68896 0.0
C432 C 0.9078 0.59781 0.72724 0.0
H433 H 0.90452 0.59961 0.62738 0.0
H434 H 0.86972 0.60781 0.6842 0.0
C435 C 0.94154 0.59025 0.73193 0.0
C436 C 0.37949 0.94514 0.13178 0.0
C437 C 0.41098 0.94001 0.11349 0.0
H438 H 0.32732 0.92082 0.17661 0.0
C439 C 0.41389 0.90572 0.12709 0.0
H440 H 0.37639 0.9712 0.12152 0.0
C441 C 0.38601 0.87705 0.15815 0.0
C442 C 0.3542 0.88169 0.17664 0.0
H443 H 0.4378 0.90103 0.11349 0.0
H444 H 0.38948 0.85101 0.16756 0.0
C445 C 0.3514 0.91629 0.16319 0.0
C446 C 0.51464 0.41269 0.63702 0.0
C447 C 0.49825 0.38603 0.60564 0.0
H448 H 0.53251 0.41888 0.69709 0.0
C449 C 0.49267 0.34588 0.61001 0.0
H450 H 0.51808 0.44318 0.63491 0.0
C451 C 0.50199 0.33225 0.64557 0.0
C452 C 0.51566 0.35803 0.67771 0.0
H453 H 0.4783 0.32381 0.5871 0.0
H454 H 0.49497 0.30014 0.64882 0.0
C455 C 0.52299 0.3988 0.67266 0.0
C456 C 0.52063 0.87393 0.43613 0.0
C457 C 0.55244 0.91839 0.42994 0.0
H458 H 0.49555 0.81123 0.41842 0.0
C459 C 0.58553 0.9331 0.39978 0.0
H460 H 0.49402 0.86119 0.45833 0.0
C461 C 0.58628 0.90392 0.37627 0.0
C462 C 0.55365 0.85954 0.38225 0.0
H463 H 0.61067 0.96712 0.39422 0.0
H464 H 0.61153 0.91613 0.35286 0.0
C465 C 0.52129 0.84511 0.41281 0.0
C466 C 0.63014 0.53586 0.91474 0.0
C467 C 0.64927 0.57431 0.93308 0.0
H468 H 0.63872 0.50079 0.87313 0.0
C469 C 0.69283 0.60873 0.92175 0.0
H470 H 0.59655 0.509 0.92309 0.0
C471 C 0.71737 0.60422 0.89291 0.0
C472 C 0.6986 0.56511 0.87532 0.0
H473 H 0.70808 0.63864 0.93579 0.0
H474 H 0.75127 0.63076 0.88527 0.0
C475 C 0.65445 0.53131 0.88618 0.0
C476 C 0.12182 0.64198 0.40261 0.0
C477 C 0.10472 0.65805 0.42761 0.0
H478 H 0.16306 0.65411 0.35226 0.0
C479 C 0.11497 0.69985 0.41911 0.0
H480 H 0.11414 0.60979 0.4085 0.0
C481 C 0.14324 0.7257 0.38653 0.0
C482 C 0.16171 0.71001 0.36225 0.0
H483 H 0.10195 0.71276 0.43815 0.0
H484 H 0.15189 0.75826 0.38123 0.0
C485 C 0.14984 0.66753 0.37039 0.0
C486 C 0.48641 0.13135 0.88078 0.0
C487 C 0.52636 0.14138 0.89723 0.0
H488 H 0.4543 0.15166 0.84207 0.0
C489 C 0.56601 0.18113 0.88582 0.0
H490 H 0.45528 0.10122 0.88927 0.0
C491 C 0.56556 0.21034 0.85858 0.0
C492 C 0.52538 0.2004 0.84255 0.0
H493 H 0.59741 0.1895 0.89777 0.0
H494 H 0.59651 0.24075 0.85043 0.0
C495 C 0.4859 0.16049 0.85387 0.0
C496 C 0.34392 0.40053 0.36066 0.0
C497 C 0.34815 0.42489 0.39223 0.0
H498 H 0.31496 0.37752 0.30539 0.0
C499 C 0.32118 0.44117 0.39305 0.0
H500 H 0.36286 0.38627 0.35917 0.0
C501 C 0.29246 0.43483 0.36262 0.0
C502 C 0.29042 0.41269 0.3301 0.0
H503 H 0.32355 0.46059 0.41628 0.0
H504 H 0.27376 0.44942 0.36355 0.0
C505 C 0.31588 0.39494 0.3299 0.0
C506 C 0.84533 0.35799 0.89947 0.0
C507 C 0.88829 0.3684 0.90786 0.0
H508 H 0.79072 0.32772 0.86067 0.0
C509 C 0.90889 0.35549 0.88298 0.0
H510 H 0.82881 0.36796 0.91792 0.0
C511 C 0.88763 0.33333 0.85029 0.0
C512 C 0.84485 0.32297 0.84153 0.0
H513 H 0.94159 0.36233 0.88887 0.0
H514 H 0.90493 0.32404 0.83201 0.0
C515 C 0.82372 0.33538 0.86653 0.0
C516 C 0.8984 0.48963 0.91649 0.0
C517 C 0.901 0.51162 0.94931 0.0
H518 H 0.87215 0.47048 0.85961 0.0
C519 C 0.87721 0.53109 0.94952 0.0
H520 H 0.91673 0.47471 0.91533 0.0
C521 C 0.85138 0.52855 0.91769 0.0
C522 C 0.84911 0.50694 0.8845 0.0
H523 H 0.87952 0.54929 0.97386 0.0
H524 H 0.83429 0.54473 0.91863 0.0
C525 C 0.87272 0.48716 0.88459 0.0
C526 C 0.42711 0.92081 0.39647 0.0
C527 C 0.39783 0.91617 0.42654 0.0
H528 H 0.43385 0.90291 0.33971 0.0
C529 C 0.35197 0.88551 0.42378 0.0
H530 H 0.4626 0.94446 0.39772 0.0
C531 C 0.33569 0.86059 0.39131 0.0
C532 C 0.36478 0.867 0.3602 0.0
H533 H 0.32846 0.88225 0.44571 0.0
H534 H 0.30001 0.83855 0.38925 0.0
C535 C 0.41073 0.89693 0.36341 0.0
C536 C 0.50214 0.3775 0.91676 0.0
C537 C 0.47619 0.39451 0.91139 0.0
H538 H 0.5211 0.33706 0.89649 0.0
C539 C 0.44748 0.38139 0.87963 0.0
H540 H 0.52526 0.38725 0.94026 0.0
C541 C 0.44498 0.35201 0.85406 0.0
C542 C 0.47162 0.33567 0.85944 0.0
H543 H 0.4269 0.39373 0.8746 0.0
H544 H 0.42311 0.34297 0.82964 0.0
C545 C 0.49992 0.34872 0.89131 0.0
C546 C 0.07867 0.45967 0.36243 0.0
C547 C 0.1047 0.49526 0.3846 0.0
H548 H 0.07714 0.4221 0.31725 0.0
C549 C 0.15085 0.52249 0.37535 0.0
H550 H 0.0432 0.43782 0.36881 0.0
C551 C 0.17054 0.51352 0.34537 0.0
C552 C 0.14452 0.47686 0.3244 0.0
H553 H 0.1718 0.55052 0.39155 0.0
H554 H 0.20621 0.53433 0.33963 0.0
C555 C 0.09829 0.45055 0.33291 0.0
C556 C 0.64505 0.09708 0.88527 0.0
C557 C 0.66043 0.0863 0.91884 0.0
H558 H 0.66176 0.13273 0.82916 0.0
C559 C 0.70583 0.10155 0.9194 0.0
H560 H 0.61018 0.08549 0.88373 0.0
C561 C 0.73562 0.12941 0.88852 0.0
C562 C 0.72048 0.1413 0.85549 0.0
H563 H 0.71848 0.09255 0.94411 0.0
H564 H 0.7707 0.14214 0.89073 0.0
C565 C 0.67458 0.1239 0.85386 0.0
C566 C 0.4923 0.58793 0.39859 0.0
C567 C 0.51632 0.60605 0.43218 0.0
H568 H 0.47126 0.59885 0.34303 0.0
C569 C 0.53689 0.65011 0.43589 0.0
H570 H 0.47634 0.55395 0.39513 0.0
C571 C 0.53373 0.67577 0.4064 0.0
C572 C 0.51039 0.65798 0.37226 0.0
H573 H 0.55606 0.66482 0.46133 0.0
H574 H 0.55062 0.70982 0.40996 0.0
C575 C 0.48933 0.61362 0.3689 0.0
C576 C 0.47192 0.16202 0.61571 0.0
C577 C 0.43733 0.11811 0.61825 0.0
H578 H 0.50316 0.22217 0.64144 0.0
C579 C 0.40421 0.10264 0.64861 0.0
H580 H 0.49856 0.17534 0.59347 0.0
C581 C 0.40697 0.1301 0.67657 0.0
C582 C 0.44315 0.17332 0.67485 0.0
H583 H 0.37685 0.06912 0.65141 0.0
H584 H 0.38241 0.11699 0.70068 0.0
C585 C 0.47476 0.18903 0.64351 0.0
C586 C 0.39147 0.52203 0.12665 0.0
C587 C 0.39102 0.49059 0.10596 0.0
H588 H 0.35662 0.53563 0.16774 0.0
C589 C 0.35376 0.44815 0.11021 0.0
H590 H 0.42 0.55506 0.12359 0.0
C591 C 0.31768 0.43705 0.13512 0.0
C592 C 0.31799 0.46816 0.15646 0.0
H593 H 0.35273 0.42352 0.09435 0.0
H594 H 0.28961 0.40381 0.13785 0.0
C595 C 0.35527 0.51091 0.1518 0.0
C596 C 0.94374 0.3636 0.61283 0.0
C597 C 0.9375 0.39742 0.60958 0.0
H598 H 0.92231 0.30173 0.64061 0.0
C599 C 0.90375 0.39417 0.6331 0.0
H600 H 0.96926 0.36512 0.59477 0.0
C601 C 0.87676 0.35796 0.65921 0.0
C602 C 0.88264 0.3238 0.66252 0.0
H603 H 0.89809 0.41966 0.63105 0.0
H604 H 0.85102 0.35669 0.67667 0.0
C605 C 0.91671 0.32726 0.63903 0.0
C606 C 0.5441 0.88541 0.17591 0.0
C607 C 0.52057 0.87482 0.14096 0.0
H608 H 0.5548 0.86309 0.23109 0.0
C609 C 0.48772 0.83099 0.13648 0.0
H610 H 0.57057 0.91813 0.18065 0.0
C611 C 0.48004 0.79897 0.16524 0.0
C612 C 0.5036 0.8101 0.19987 0.0
H613 H 0.46783 0.82107 0.11077 0.0
H614 H 0.45582 0.76553 0.16037 0.0
C615 C 0.53517 0.85363 0.20512 0.0
C616 C 0.62833 0.51116 0.67927 0.0
C617 C 0.64394 0.53237 0.64147 0.0
H618 H 0.64524 0.49881 0.73682 0.0
C619 C 0.69014 0.5573 0.63311 0.0
H620 H 0.59304 0.49186 0.6868 0.0
C621 C 0.71982 0.56164 0.66174 0.0
C622 C 0.70435 0.54056 0.69945 0.0
H623 H 0.70359 0.57447 0.60462 0.0
H624 H 0.75523 0.58217 0.65445 0.0
C625 C 0.65817 0.51474 0.70782 0.0
C626 C 0.13248 0.68075 0.13137 0.0
C627 C 0.11143 0.63823 0.14777 0.0
H628 H 0.18046 0.74758 0.13809 0.0
C629 C 0.12482 0.63146 0.18483 0.0
H630 H 0.12406 0.68752 0.1027 0.0
C631 C 0.15837 0.666 0.20457 0.0
C632 C 0.1788 0.70832 0.18821 0.0
H633 H 0.10899 0.59944 0.19904 0.0
H634 H 0.16725 0.65964 0.23321 0.0
C635 C 0.1654 0.71527 0.15145 0.0
loop_
_geom_bond_atom_site_label_1
_geom_bond_atom_site_label_2
_geom_bond_distance
_geom_bond_site_symmetry_2
_ccdc_geom_bond_type
C0 C1 1.443 . S
C0 N4 1.376 1_556 S
C0 C38 1.389 . S
C1 C0 1.443 . S
C1 C2 1.340 1_556 S
C1 H41 0.951 . S
C2 C1 1.340 1_554 S
C2 C3 1.439 . S
C2 H42 0.950 . S
C3 C2 1.439 . S
C3 N4 1.374 . S
C3 C37 1.395 . S
N4 C0 1.376 1_554 S
N4 C3 1.374 . S
N4 Co5 2.008 1_655 S
Co5 N4 2.008 1_455 S
Co5 N6 1.995 1_455 S
Co5 N11 2.008 . S
Co5 N16 1.995 1_554 S
Co5 N21 2.282 . S
Co5 N27 2.282 1_454 S
N6 Co5 1.995 1_655 S
N6 C7 1.376 . S
N6 C10 1.383 1_655 S
C7 N6 1.376 . S
C7 C8 1.446 . S
C7 C37 1.391 . S
C8 C7 1.446 . S
C8 C9 1.339 . S
C8 H43 0.949 . S
C9 C8 1.339 . S
C9 C10 1.439 1_655 S
C9 H44 0.950 1_655 S
C10 N6 1.383 1_455 S
C10 C9 1.439 1_455 S
C10 C39 1.392 . S
N11 Co5 2.008 . S
N11 C12 1.376 . S
N11 C15 1.374 1_554 S
C12 N11 1.376 . S
C12 C13 1.443 . S
C12 C39 1.389 . S
C13 C12 1.443 . S
C13 C14 1.340 . S
C13 H45 0.951 . S
C14 C13 1.340 . S
C14 C15 1.439 1_554 S
C14 H46 0.950 1_554 S
C15 N11 1.374 1_556 S
C15 C14 1.439 1_556 S
C15 C40 1.395 . S
N16 Co5 1.995 1_556 S
N16 C17 1.376 . S
N16 C20 1.383 . S
C17 N16 1.376 . S
C17 C18 1.446 . S
C17 C40 1.391 . S
C18 C17 1.446 . S
C18 C19 1.339 . S
C18 H47 0.949 . S
C19 C18 1.339 . S
C19 C20 1.439 . S
C19 H48 0.950 . S
C20 N16 1.383 . S
C20 C19 1.439 . S
C20 C38 1.392 1_455 S
N21 Co5 2.282 . S
N21 C24 1.332 . S
N21 C26 1.332 . S
C22 C23 1.386 . S
C22 C25 1.388 . S
C23 C22 1.386 . S
C23 C24 1.382 . S
C23 H49 0.950 . S
C24 N21 1.332 . S
C24 C23 1.382 . S
C24 H35 0.952 . S
C25 C22 1.388 . S
C25 C26 1.382 . S
C25 H50 0.950 . S
C26 N21 1.332 . S
C26 C25 1.382 . S
C26 H36 0.948 . S
N27 Co5 2.282 1_656 S
N27 C31 1.332 . S
N27 C32 1.323 1_655 S
C28 C29 1.388 . S
C28 C32 1.378 1_655 S
C28 H51 0.950 . S
C29 C28 1.388 . S
C29 C30 1.386 . S
C30 C29 1.386 . S
C30 C31 1.382 . S
C30 H52 0.950 . S
C31 N27 1.332 . S
C31 C30 1.382 . S
C31 H33 0.952 1_556 S
C32 N27 1.323 1_455 S
C32 C28 1.378 1_455 S
C32 H34 0.963 . S
H33 C31 0.952 1_554 S
H34 C32 0.963 . S
H35 C24 0.952 . S
H36 C26 0.948 . S
C37 C3 1.395 . S
C37 C7 1.391 . S
C38 C0 1.389 . S
C38 C20 1.392 1_655 S
C39 C10 1.392 . S
C39 C12 1.389 . S
C40 C15 1.395 . S
C40 C17 1.391 . S
H41 C1 0.951 . S
H42 C2 0.950 . S
H43 C8 0.949 . S
H44 C9 0.950 1_455 S
H45 C13 0.951 . S
H46 C14 0.950 1_556 S
H47 C18 0.949 . S
H48 C19 0.950 . S
H49 C23 0.950 . S
H50 C25 0.950 . S
H51 C28 0.950 . S
H52 C30 0.950 . S
C53 C54 1.443 . S
C53 N57 1.376 . S
C53 C91 1.389 . S
C54 C53 1.443 . S
C54 C55 1.340 1_545 S
C54 H94 0.951 . S
C55 C54 1.340 1_565 S
C55 C56 1.439 . S
C55 H95 0.950 . S
C56 C55 1.439 . S
C56 N57 1.374 1_565 S
C56 C90 1.395 . S
N57 C53 1.376 . S
N57 C56 1.374 1_545 S
N57 Co58 2.008 . S
Co58 N57 2.008 . S
Co58 N59 1.995 1_545 S
Co58 N64 2.008 . S
Co58 N69 1.995 . S
Co58 N74 2.282 1_545 S
Co58 N80 2.282 . S
N59 Co58 1.995 1_565 S
N59 C60 1.376 . S
N59 C63 1.383 . S
C60 N59 1.376 . S
C60 C61 1.446 . S
C60 C90 1.391 . S
C61 C60 1.446 . S
C61 C62 1.339 . S
C61 H96 0.949 . S
C62 C61 1.339 . S
C62 C63 1.439 . S
C62 H97 0.950 . S
C63 N59 1.383 . S
C63 C62 1.439 . S
C63 C92 1.392 . S
N64 Co58 2.008 . S
N64 C65 1.376 . S
N64 C68 1.374 . S
C65 N64 1.376 . S
C65 C66 1.443 . S
C65 C92 1.389 1_545 S
C66 C65 1.443 . S
C66 C67 1.340 . S
C66 H98 0.951 . S
C67 C66 1.340 . S
C67 C68 1.439 . S
C67 H99 0.950 . S
C68 N64 1.374 . S
C68 C67 1.439 . S
C68 C93 1.395 . S
N69 Co58 1.995 . S
N69 C70 1.376 . S
N69 C73 1.383 . S
C70 N69 1.376 . S
C70 C71 1.446 . S
C70 C93 1.391 . S
C71 C70 1.446 . S
C71 C72 1.339 . S
C71 H100 0.949 . S
C72 C71 1.339 . S
C72 C73 1.439 . S
C72 H101 0.950 . S
C73 N69 1.383 . S
C73 C72 1.439 . S
C73 C91 1.392 . S
N74 Co58 2.282 1_565 S
N74 C77 1.332 1_565 S
N74 C79 1.332 . S
C75 C76 1.386 . S
C75 C78 1.388 . S
C76 C75 1.386 . S
C76 C77 1.382 1_565 S
C76 H102 0.950 1_565 S
C77 N74 1.332 1_545 S
C77 C76 1.382 1_545 S
C77 H88 0.952 . S
C78 C75 1.388 . S
C78 C79 1.382 . S
C78 H103 0.950 . S
C79 N74 1.332 . S
C79 C78 1.382 . S
C79 H89 0.948 . S
N80 Co58 2.282 . S
N80 C84 1.332 . S
N80 C85 1.332 . S
C81 C82 1.388 . S
C81 C85 1.382 . S
C81 H104 0.950 . S
C82 C81 1.388 . S
C82 C83 1.386 . S
C83 C82 1.386 . S
C83 C84 1.382 . S
C83 H105 0.950 . S
C84 N80 1.332 . S
C84 C83 1.382 . S
C84 H86 0.952 1_545 S
C85 N80 1.332 . S
C85 C81 1.382 . S
C85 H87 0.948 . S
H86 C84 0.952 1_565 S
H87 C85 0.948 . S
H88 C77 0.952 . S
H89 C79 0.948 . S
C90 C56 1.395 . S
C90 C60 1.391 . S
C91 C53 1.389 . S
C91 C73 1.392 . S
C92 C63 1.392 . S
C92 C65 1.389 1_565 S
C93 C68 1.395 . S
C93 C70 1.391 . S
H94 C54 0.951 . S
H95 C55 0.950 . S
H96 C61 0.949 . S
H97 C62 0.950 . S
H98 C66 0.951 . S
H99 C67 0.950 . S
H100 C71 0.949 . S
H101 C72 0.950 . S
H102 C76 0.950 1_545 S
H103 C78 0.950 . S
H104 C81 0.950 . S
H105 C83 0.950 . S
C106 C107 1.443 . S
C106 N110 1.376 . S
C106 C144 1.389 . S
C107 C106 1.443 . S
C107 C108 1.340 . S
C107 H147 0.951 . S
C108 C107 1.340 . S
C108 C109 1.439 . S
C108 H148 0.950 . S
C109 C108 1.439 . S
C109 N110 1.374 . S
C109 C143 1.395 . S
N110 C106 1.376 . S
N110 C109 1.374 . S
N110 Co111 2.008 1_556 S
Co111 N110 2.008 1_554 S
Co111 N112 1.995 . S
Co111 N117 2.008 . S
Co111 N122 1.995 . S
Co111 N127 2.282 . S
Co111 N133 2.282 1_554 S
N112 Co111 1.995 . S
N112 C113 1.376 1_554 S
N112 C116 1.383 . S
C113 N112 1.376 1_556 S
C113 C114 1.446 . S
C113 C143 1.391 . S
C114 C113 1.446 . S
C114 C115 1.339 1_556 S
C114 H149 0.949 . S
C115 C114 1.339 1_554 S
C115 C116 1.439 . S
C115 H150 0.950 . S
C116 N112 1.383 . S
C116 C115 1.439 . S
C116 C145 1.392 . S
N117 Co111 2.008 . S
N117 C118 1.376 . S
N117 C121 1.374 . S
C118 N117 1.376 . S
C118 C119 1.443 . S
C118 C145 1.389 . S
C119 C118 1.443 . S
C119 C120 1.340 . S
C119 H151 0.951 . S
C120 C119 1.340 . S
C120 C121 1.439 . S
C120 H152 0.950 . S
C121 N117 1.374 . S
C121 C120 1.439 . S
C121 C146 1.395 . S
N122 Co111 1.995 . S
N122 C123 1.376 . S
N122 C126 1.383 1_554 S
C123 N122 1.376 . S
C123 C124 1.446 . S
C123 C146 1.391 . S
C124 C123 1.446 . S
C124 C125 1.339 1_554 S
C124 H153 0.949 . S
C125 C124 1.339 1_556 S
C125 C126 1.439 . S
C125 H154 0.950 . S
C126 N122 1.383 1_556 S
C126 C125 1.439 . S
C126 C144 1.392 . S
N127 Co111 2.282 . S
N127 C130 1.332 . S
N127 C132 1.332 . S
C128 C129 1.386 . S
C128 C131 1.388 . S
C129 C128 1.386 . S
C129 C130 1.382 . S
C129 H155 0.950 . S
C130 N127 1.332 . S
C130 C129 1.382 . S
C130 H141 0.952 . S
C131 C128 1.388 . S
C131 C132 1.382 . S
C131 H156 0.950 . S
C132 N127 1.332 . S
C132 C131 1.382 . S
C132 H142 0.948 . S
N133 Co111 2.282 1_556 S
N133 C137 1.332 . S
N133 C138 1.332 . S
C134 C135 1.388 . S
C134 C138 1.382 . S
C134 H157 0.950 . S
C135 C134 1.388 . S
C135 C136 1.386 . S
C136 C135 1.386 . S
C136 C137 1.382 . S
C136 H158 0.950 . S
C137 N133 1.332 . S
C137 C136 1.382 . S
C137 H139 0.952 . S
C138 N133 1.332 . S
C138 C134 1.382 . S
C138 H140 0.948 . S
H139 C137 0.952 . S
H140 C138 0.948 . S
H141 C130 0.952 . S
H142 C132 0.948 . S
C143 C109 1.395 . S
C143 C113 1.391 . S
C144 C106 1.389 . S
C144 C126 1.392 . S
C145 C116 1.392 . S
C145 C118 1.389 . S
C146 C121 1.395 . S
C146 C123 1.391 . S
H147 C107 0.951 . S
H148 C108 0.950 . S
H149 C114 0.949 . S
H150 C115 0.950 . S
H151 C119 0.951 . S
H152 C120 0.950 . S
H153 C124 0.949 . S
H154 C125 0.950 . S
H155 C129 0.950 . S
H156 C131 0.950 . S
H157 C134 0.950 . S
H158 C136 0.950 . S
C159 C160 1.443 . S
C159 N163 1.376 . S
C159 C197 1.389 . S
C160 C159 1.443 . S
C160 C161 1.340 . S
C160 H200 0.951 . S
C161 C160 1.340 . S
C161 C162 1.439 . S
C161 H201 0.950 . S
C162 C161 1.439 . S
C162 N163 1.374 . S
C162 C196 1.395 . S
N163 C159 1.376 . S
N163 C162 1.374 . S
N163 Co164 2.008 1_655 S
Co164 N163 2.008 1_455 S
Co164 N165 1.995 1_455 S
Co164 N170 2.008 . S
Co164 N175 1.995 . S
Co164 N180 2.282 . S
Co164 N186 2.282 1_455 S
N165 Co164 1.995 1_655 S
N165 C166 1.376 . S
N165 C169 1.383 1_655 S
C166 N165 1.376 . S
C166 C167 1.446 . S
C166 C196 1.391 . S
C167 C166 1.446 . S
C167 C168 1.339 . S
C167 H202 0.949 . S
C168 C167 1.339 . S
C168 C169 1.439 1_655 S
C168 H203 0.950 1_655 S
C169 N165 1.383 1_455 S
C169 C168 1.439 1_455 S
C169 C198 1.392 . S
N170 Co164 2.008 . S
N170 C171 1.376 . S
N170 C174 1.374 . S
C171 N170 1.376 . S
C171 C172 1.443 . S
C171 C198 1.389 . S
C172 C171 1.443 . S
C172 C173 1.340 . S
C172 H204 0.951 . S
C173 C172 1.340 . S
C173 C174 1.439 . S
C173 H205 0.950 . S
C174 N170 1.374 . S
C174 C173 1.439 . S
C174 C199 1.395 . S
N175 Co164 1.995 . S
N175 C176 1.376 . S
N175 C179 1.383 1_455 S
C176 N175 1.376 . S
C176 C177 1.446 . S
C176 C199 1.391 . S
C177 C176 1.446 . S
C177 C178 1.339 . S
C177 H206 0.949 . S
C178 C177 1.339 . S
C178 C179 1.439 1_455 S
C178 H207 0.950 1_455 S
C179 N175 1.383 1_655 S
C179 C178 1.439 1_655 S
C179 C197 1.392 . S
N180 Co164 2.282 . S
N180 C183 1.332 . S
N180 C185 1.332 . S
C181 C182 1.386 . S
C181 C184 1.388 . S
C182 C181 1.386 . S
C182 C183 1.382 . S
C182 H208 0.950 . S
C183 N180 1.332 . S
C183 C182 1.382 . S
C183 H194 0.952 . S
C184 C181 1.388 . S
C184 C185 1.382 . S
C184 H209 0.950 . S
C185 N180 1.332 . S
C185 C184 1.382 . S
C185 H195 0.948 1_455 S
N186 Co164 2.282 1_655 S
N186 C190 1.332 . S
N186 C191 1.332 . S
C187 C188 1.388 . S
C187 C191 1.382 . S
C187 H210 0.950 . S
C188 C187 1.388 . S
C188 C189 1.386 . S
C189 C188 1.386 . S
C189 C190 1.382 . S
C189 H211 0.950 . S
C190 N186 1.332 . S
C190 C189 1.382 . S
C190 H192 0.952 . S
C191 N186 1.332 . S
C191 C187 1.382 . S
C191 H193 0.948 1_655 S
H192 C190 0.952 . S
H193 C191 0.948 1_455 S
H194 C183 0.952 . S
H195 C185 0.948 1_655 S
C196 C162 1.395 . S
C196 C166 1.391 . S
C197 C159 1.389 . S
C197 C179 1.392 . S
C198 C169 1.392 . S
C198 C171 1.389 . S
C199 C174 1.395 . S
C199 C176 1.391 . S
H200 C160 0.951 . S
H201 C161 0.950 . S
H202 C167 0.949 . S
H203 C168 0.950 1_455 S
H204 C172 0.951 . S
H205 C173 0.950 . S
H206 C177 0.949 . S
H207 C178 0.950 1_655 S
H208 C182 0.950 . S
H209 C184 0.950 . S
H210 C187 0.950 . S
H211 C189 0.950 . S
C212 C213 1.443 1_565 S
C212 N216 1.376 1_565 S
C212 C250 1.389 . S
C213 C212 1.443 1_545 S
C213 C214 1.340 . S
C213 H253 0.951 1_545 S
C214 C213 1.340 . S
C214 C215 1.439 . S
C214 H254 0.950 . S
C215 C214 1.439 . S
C215 N216 1.374 . S
C215 C249 1.395 . S
N216 C212 1.376 1_545 S
N216 C215 1.374 . S
N216 Co217 2.008 . S
Co217 N216 2.008 . S
Co217 N218 1.995 . S
Co217 N223 2.008 1_544 S
Co217 N228 1.995 1_545 S
Co217 N233 2.282 1_554 S
Co217 N239 2.282 1_545 S
N218 Co217 1.995 . S
N218 C219 1.376 . S
N218 C222 1.383 1_554 S
C219 N218 1.376 . S
C219 C220 1.446 . S
C219 C249 1.391 . S
C220 C219 1.446 . S
C220 C221 1.339 1_554 S
C220 H255 0.949 . S
C221 C220 1.339 1_556 S
C221 C222 1.439 . S
C221 H256 0.950 . S
C222 N218 1.383 1_556 S
C222 C221 1.439 . S
C222 C251 1.392 . S
N223 Co217 2.008 1_566 S
N223 C224 1.376 1_565 S
N223 C227 1.374 . S
C224 N223 1.376 1_545 S
C224 C225 1.443 1_545 S
C224 C251 1.389 . S
C225 C224 1.443 1_565 S
C225 C226 1.340 . S
C225 H257 0.951 1_565 S
C226 C225 1.340 . S
C226 C227 1.439 . S
C226 H258 0.950 . S
C227 N223 1.374 . S
C227 C226 1.439 . S
C227 C252 1.395 . S
N228 Co217 1.995 1_565 S
N228 C229 1.376 1_554 S
N228 C232 1.383 . S
C229 N228 1.376 1_556 S
C229 C230 1.446 1_556 S
C229 C252 1.391 . S
C230 C229 1.446 1_554 S
C230 C231 1.339 . S
C230 H259 0.949 1_554 S
C231 C230 1.339 . S
C231 C232 1.439 . S
C231 H260 0.950 . S
C232 N228 1.383 . S
C232 C231 1.439 . S
C232 C250 1.392 . S
N233 Co217 2.282 1_556 S
N233 C236 1.332 . S
N233 C238 1.332 . S
C234 C235 1.386 . S
C234 C237 1.388 . S
C235 C234 1.386 . S
C235 C236 1.382 . S
C235 H261 0.950 . S
C236 N233 1.332 . S
C236 C235 1.382 . S
C236 H247 0.952 1_545 S
C237 C234 1.388 . S
C237 C238 1.382 . S
C237 H262 0.950 . S
C238 N233 1.332 . S
C238 C237 1.382 . S
C238 H248 0.948 . S
N239 Co217 2.282 1_565 S
N239 C243 1.332 . S
N239 C244 1.332 . S
C240 C241 1.388 . S
C240 C244 1.382 . S
C240 H263 0.950 . S
C241 C240 1.388 . S
C241 C242 1.386 . S
C242 C241 1.386 . S
C242 C243 1.382 . S
C242 H264 0.950 . S
C243 N239 1.332 . S
C243 C242 1.382 . S
C243 H245 0.952 1_565 S
C244 N239 1.332 . S
C244 C240 1.382 . S
C244 H246 0.948 . S
H245 C243 0.952 1_545 S
H246 C244 0.948 . S
H247 C236 0.952 1_565 S
H248 C238 0.948 . S
C249 C215 1.395 . S
C249 C219 1.391 . S
C250 C212 1.389 . S
C250 C232 1.392 . S
C251 C222 1.392 . S
C251 C224 1.389 . S
C252 C227 1.395 . S
C252 C229 1.391 . S
H253 C213 0.951 1_565 S
H254 C214 0.950 . S
H255 C220 0.949 . S
H256 C221 0.950 . S
H257 C225 0.951 1_545 S
H258 C226 0.950 . S
H259 C230 0.949 1_556 S
H260 C231 0.950 . S
H261 C235 0.950 . S
H262 C237 0.950 . S
H263 C240 0.950 . S
H264 C242 0.950 . S
C265 C266 1.443 . S
C265 N269 1.376 . S
C265 C303 1.389 . S
C266 C265 1.443 . S
C266 C267 1.340 . S
C266 H306 0.951 . S
C267 C266 1.340 . S
C267 C268 1.439 . S
C267 H307 0.950 . S
C268 C267 1.439 . S
C268 N269 1.374 . S
C268 C302 1.395 . S
N269 C265 1.376 . S
N269 C268 1.374 . S
N269 Co270 2.008 . S
Co270 N269 2.008 . S
Co270 N271 1.995 . S
Co270 N276 2.008 . S
Co270 N281 1.995 . S
Co270 N286 2.282 . S
Co270 N292 2.282 . S
N271 Co270 1.995 . S
N271 C272 1.376 . S
N271 C275 1.383 . S
C272 N271 1.376 . S
C272 C273 1.446 . S
C272 C302 1.391 . S
C273 C272 1.446 . S
C273 C274 1.339 . S
C273 H308 0.949 . S
C274 C273 1.339 . S
C274 C275 1.439 . S
C274 H309 0.950 . S
C275 N271 1.383 . S
C275 C274 1.439 . S
C275 C304 1.392 . S
N276 Co270 2.008 . S
N276 C277 1.376 . S
N276 C280 1.374 . S
C277 N276 1.376 . S
C277 C278 1.443 . S
C277 C304 1.389 . S
C278 C277 1.443 . S
C278 C279 1.340 . S
C278 H310 0.951 . S
C279 C278 1.340 . S
C279 C280 1.439 . S
C279 H311 0.950 . S
C280 N276 1.374 . S
C280 C279 1.439 . S
C280 C305 1.395 . S
N281 Co270 1.995 . S
N281 C282 1.376 . S
N281 C285 1.383 . S
C282 N281 1.376 . S
C282 C283 1.446 . S
C282 C305 1.391 . S
C283 C282 1.446 . S
C283 C284 1.339 . S
C283 H312 0.949 . S
C284 C283 1.339 . S
C284 C285 1.439 . S
C284 H313 0.950 . S
C285 N281 1.383 . S
C285 C284 1.439 . S
C285 C303 1.392 . S
N286 Co270 2.282 . S
N286 C289 1.332 . S
N286 C291 1.332 . S
C287 C288 1.386 . S
C287 C290 1.388 . S
C288 C287 1.386 . S
C288 C289 1.382 . S
C288 H314 0.950 . S
C289 N286 1.332 . S
C289 C288 1.382 . S
C289 H300 0.952 . S
C290 C287 1.388 . S
C290 C291 1.382 . S
C290 H315 0.950 . S
C291 N286 1.332 . S
C291 C290 1.382 . S
C291 H301 0.948 . S
N292 Co270 2.282 . S
N292 C296 1.332 . S
N292 C297 1.332 . S
C293 C294 1.388 . S
C293 C297 1.382 . S
C293 H316 0.950 . S
C294 C293 1.388 . S
C294 C295 1.386 . S
C295 C294 1.386 . S
C295 C296 1.382 . S
C295 H317 0.950 . S
C296 N292 1.332 . S
C296 C295 1.382 . S
C296 H298 0.952 . S
C297 N292 1.332 . S
C297 C293 1.382 . S
C297 H299 0.948 . S
H298 C296 0.952 . S
H299 C297 0.948 . S
H300 C289 0.952 . S
H301 C291 0.948 . S
C302 C268 1.395 . S
C302 C272 1.391 . S
C303 C265 1.389 . S
C303 C285 1.392 . S
C304 C275 1.392 . S
C304 C277 1.389 . S
C305 C280 1.395 . S
C305 C282 1.391 . S
H306 C266 0.951 . S
H307 C267 0.950 . S
H308 C273 0.949 . S
H309 C274 0.950 . S
H310 C278 0.951 . S
H311 C279 0.950 . S
H312 C283 0.949 . S
H313 C284 0.950 . S
H314 C288 0.950 . S
H315 C290 0.950 . S
H316 C293 0.950 . S
H317 C295 0.950 . S
Mg318 O325 2.141 . S
Mg318 O326 2.048 . S
Mg318 O327 2.048 . S
Mg318 O330 2.141 . S
C319 O320 1.313 . S
C319 O326 1.195 . S
O320 C319 1.313 . S
C321 O322 1.245 . S
C321 O330 1.289 . S
O322 C321 1.245 . S
C323 O324 1.245 . S
C323 O325 1.289 . S
O324 C323 1.245 . S
O325 Mg318 2.141 . S
O325 C323 1.289 . S
O326 Mg318 2.048 . S
O326 C319 1.195 . S
O327 Mg318 2.048 . S
O327 C328 1.195 . S
C328 O327 1.195 . S
C328 O329 1.313 . S
O329 C328 1.313 . S
O330 Mg318 2.141 . S
O330 C321 1.289 . S
Mg331 O338 2.141 . S
Mg331 O339 2.048 . S
Mg331 O340 2.048 . S
Mg331 O343 2.141 . S
C332 O333 1.313 . S
C332 O339 1.195 . S
O333 C332 1.313 . S
C334 O335 1.245 . S
C334 O343 1.289 . S
O335 C334 1.245 . S
C336 O337 1.245 . S
C336 O338 1.289 . S
O337 C336 1.245 . S
O338 Mg331 2.141 . S
O338 C336 1.289 . S
O339 Mg331 2.048 . S
O339 C332 1.195 . S
O340 Mg331 2.048 . S
O340 C341 1.195 . S
C341 O340 1.195 . S
C341 O342 1.313 . S
O342 C341 1.313 . S
O343 Mg331 2.141 . S
O343 C334 1.289 . S
Mg344 O351 2.141 . S
Mg344 O352 2.048 . S
Mg344 O353 2.048 . S
Mg344 O356 2.141 . S
C345 O346 1.313 . S
C345 O352 1.195 . S
O346 C345 1.313 . S
C347 O348 1.245 . S
C347 O356 1.289 . S
O348 C347 1.245 . S
C349 O350 1.245 . S
C349 O351 1.289 . S
O350 C349 1.245 . S
O351 Mg344 2.141 . S
O351 C349 1.289 . S
O352 Mg344 2.048 . S
O352 C345 1.195 . S
O353 Mg344 2.048 . S
O353 C354 1.195 . S
C354 O353 1.195 . S
C354 O355 1.313 . S
O355 C354 1.313 . S
O356 Mg344 2.141 . S
O356 C347 1.289 . S
Mg357 O364 2.141 . S
Mg357 O365 2.048 . S
Mg357 O366 2.048 . S
Mg357 O369 2.141 . S
C358 O359 1.313 . S
C358 O365 1.195 . S
O359 C358 1.313 . S
C360 O361 1.245 . S
C360 O369 1.289 . S
O361 C360 1.245 . S
C362 O363 1.245 . S
C362 O364 1.289 . S
O363 C362 1.245 . S
O364 Mg357 2.141 . S
O364 C362 1.289 . S
O365 Mg357 2.048 . S
O365 C358 1.195 . S
O366 Mg357 2.048 . S
O366 C367 1.195 . S
C367 O366 1.195 . S
C367 O368 1.313 . S
O368 C367 1.313 . S
O369 Mg357 2.141 . S
O369 C360 1.289 . S
Mg370 O377 2.141 . S
Mg370 O378 2.048 . S
Mg370 O379 2.048 . S
Mg370 O382 2.141 . S
C371 O372 1.313 . S
C371 O378 1.195 . S
O372 C371 1.313 . S
C373 O374 1.245 . S
C373 O382 1.289 . S
O374 C373 1.245 . S
C375 O376 1.245 . S
C375 O377 1.289 . S
O376 C375 1.245 . S
O377 Mg370 2.141 . S
O377 C375 1.289 . S
O378 Mg370 2.048 . S
O378 C371 1.195 . S
O379 Mg370 2.048 . S
O379 C380 1.195 . S
C380 O379 1.195 . S
C380 O381 1.313 . S
O381 C380 1.313 . S
O382 Mg370 2.141 . S
O382 C373 1.289 . S
Mg383 O390 2.141 . S
Mg383 O391 2.048 . S
Mg383 O392 2.048 . S
Mg383 O395 2.141 . S
C384 O385 1.313 . S
C384 O391 1.195 . S
O385 C384 1.313 . S
C386 O387 1.245 . S
C386 O395 1.289 . S
O387 C386 1.245 . S
C388 O389 1.245 . S
C388 O390 1.289 . S
O389 C388 1.245 . S
O390 Mg383 2.141 . S
O390 C388 1.289 . S
O391 Mg383 2.048 . S
O391 C384 1.195 . S
O392 Mg383 2.048 . S
O392 C393 1.195 . S
C393 O392 1.195 . S
C393 O394 1.313 . S
O394 C393 1.313 . S
O395 Mg383 2.141 . S
O395 C386 1.289 . S
C396 C397 1.387 . S
C396 H400 0.950 . S
C396 C405 1.390 . S
C397 C396 1.387 . S
C397 C399 1.387 . S
H398 C405 0.950 . S
C399 C397 1.387 . S
C399 C401 1.390 . S
C399 H403 0.950 . S
H400 C396 0.950 . S
C401 C399 1.390 . S
C401 C402 1.387 . S
C401 H404 0.950 . S
C402 C401 1.387 . S
C402 C405 1.387 . S
H403 C399 0.950 . S
H404 C401 0.950 . S
C405 C396 1.390 . S
C405 H398 0.950 . S
C405 C402 1.387 . S
C406 C407 1.387 . S
C406 H410 0.950 . S
C406 C415 1.390 . S
C407 C406 1.387 . S
C407 C409 1.387 . S
H408 C415 0.950 . S
C409 C407 1.387 . S
C409 C411 1.390 . S
C409 H413 0.950 . S
H410 C406 0.950 . S
C411 C409 1.390 . S
C411 C412 1.387 . S
C411 H414 0.950 . S
C412 C411 1.387 . S
C412 C415 1.387 . S
H413 C409 0.950 . S
H414 C411 0.950 . S
C415 C406 1.390 . S
C415 H408 0.950 . S
C415 C412 1.387 . S
C416 C417 1.387 . S
C416 H420 0.950 . S
C416 C425 1.390 . S
C417 C416 1.387 . S
C417 C419 1.387 . S
H418 C425 0.950 . S
C419 C417 1.387 . S
C419 C421 1.390 . S
C419 H423 0.950 . S
H420 C416 0.950 . S
C421 C419 1.390 . S
C421 C422 1.387 . S
C421 H424 0.950 . S
C422 C421 1.387 . S
C422 C425 1.387 . S
H423 C419 0.950 . S
H424 C421 0.950 . S
C425 C416 1.390 . S
C425 H418 0.950 . S
C425 C422 1.387 . S
C426 C427 1.387 . S
C426 H430 0.950 . S
C426 C435 1.390 . S
C427 C426 1.387 . S
C427 C429 1.387 . S
H428 C435 0.950 . S
C429 C427 1.387 . S
C429 C431 1.390 . S
C429 H433 0.950 . S
H430 C426 0.950 . S
C431 C429 1.390 . S
C431 C432 1.387 . S
C431 H434 0.950 . S
C432 C431 1.387 . S
C432 C435 1.387 . S
H433 C429 0.950 . S
H434 C431 0.950 . S
C435 C426 1.390 . S
C435 H428 0.950 . S
C435 C432 1.387 . S
C436 C437 1.387 . S
C436 H440 0.950 . S
C436 C445 1.390 . S
C437 C436 1.387 . S
C437 C439 1.387 . S
H438 C445 0.950 . S
C439 C437 1.387 . S
C439 C441 1.390 . S
C439 H443 0.950 . S
H440 C436 0.950 . S
C441 C439 1.390 . S
C441 C442 1.387 . S
C441 H444 0.950 . S
C442 C441 1.387 . S
C442 C445 1.387 . S
H443 C439 0.950 . S
H444 C441 0.950 . S
C445 C436 1.390 . S
C445 H438 0.950 . S
C445 C442 1.387 . S
C446 C447 1.387 . S
C446 H450 0.950 . S
C446 C455 1.390 . S
C447 C446 1.387 . S
C447 C449 1.387 . S
H448 C455 0.950 . S
C449 C447 1.387 . S
C449 C451 1.390 . S
C449 H453 0.950 . S
H450 C446 0.950 . S
C451 C449 1.390 . S
C451 C452 1.387 . S
C451 H454 0.950 . S
C452 C451 1.387 . S
C452 C455 1.387 . S
H453 C449 0.950 . S
H454 C451 0.950 . S
C455 C446 1.390 . S
C455 H448 0.950 . S
C455 C452 1.387 . S
C456 C457 1.387 . S
C456 H460 0.950 . S
C456 C465 1.390 . S
C457 C456 1.387 . S
C457 C459 1.387 . S
H458 C465 0.950 . S
C459 C457 1.387 . S
C459 C461 1.390 . S
C459 H463 0.950 . S
H460 C456 0.950 . S
C461 C459 1.390 . S
C461 C462 1.387 . S
C461 H464 0.950 . S
C462 C461 1.387 . S
C462 C465 1.387 . S
H463 C459 0.950 . S
H464 C461 0.950 . S
C465 C456 1.390 . S
C465 H458 0.950 . S
C465 C462 1.387 . S
C466 C467 1.387 . S
C466 H470 0.950 . S
C466 C475 1.390 . S
C467 C466 1.387 . S
C467 C469 1.387 . S
H468 C475 0.950 . S
C469 C467 1.387 . S
C469 C471 1.390 . S
C469 H473 0.950 . S
H470 C466 0.950 . S
C471 C469 1.390 . S
C471 C472 1.387 . S
C471 H474 0.950 . S
C472 C471 1.387 . S
C472 C475 1.387 . S
H473 C469 0.950 . S
H474 C471 0.950 . S
C475 C466 1.390 . S
C475 H468 0.950 . S
C475 C472 1.387 . S
C476 C477 1.387 . S
C476 H480 0.950 . S
C476 C485 1.390 . S
C477 C476 1.387 . S
C477 C479 1.387 . S
H478 C485 0.950 . S
C479 C477 1.387 . S
C479 C481 1.390 . S
C479 H483 0.950 . S
H480 C476 0.950 . S
C481 C479 1.390 . S
C481 C482 1.387 . S
C481 H484 0.950 . S
C482 C481 1.387 . S
C482 C485 1.387 . S
H483 C479 0.950 . S
H484 C481 0.950 . S
C485 C476 1.390 . S
C485 H478 0.950 . S
C485 C482 1.387 . S
C486 C487 1.387 . S
C486 H490 0.950 . S
C486 C495 1.390 . S
C487 C486 1.387 . S
C487 C489 1.387 . S
H488 C495 0.950 . S
C489 C487 1.387 . S
C489 C491 1.390 . S
C489 H493 0.950 . S
H490 C486 0.950 . S
C491 C489 1.390 . S
C491 C492 1.387 . S
C491 H494 0.950 . S
C492 C491 1.387 . S
C492 C495 1.387 . S
H493 C489 0.950 . S
H494 C491 0.950 . S
C495 C486 1.390 . S
C495 H488 0.950 . S
C495 C492 1.387 . S
C496 C497 1.387 . S
C496 H500 0.950 . S
C496 C505 1.390 . S
C497 C496 1.387 . S
C497 C499 1.387 . S
H498 C505 0.950 . S
C499 C497 1.387 . S
C499 C501 1.390 . S
C499 H503 0.950 . S
H500 C496 0.950 . S
C501 C499 1.390 . S
C501 C502 1.387 . S
C501 H504 0.950 . S
C502 C501 1.387 . S
C502 C505 1.387 . S
H503 C499 0.950 . S
H504 C501 0.950 . S
C505 C496 1.390 . S
C505 H498 0.950 . S
C505 C502 1.387 . S
C506 C507 1.387 . S
C506 H510 0.950 . S
C506 C515 1.390 . S
C507 C506 1.387 . S
C507 C509 1.387 . S
H508 C515 0.950 . S
C509 C507 1.387 . S
C509 C511 1.390 . S
C509 H513 0.950 . S
H510 C506 0.950 . S
C511 C509 1.390 . S
C511 C512 1.387 . S
C511 H514 0.950 . S
C512 C511 1.387 . S
C512 C515 1.387 . S
H513 C509 0.950 . S
H514 C511 0.950 . S
C515 C506 1.390 . S
C515 H508 0.950 . S
C515 C512 1.387 . S
C516 C517 1.387 . S
C516 H520 0.950 . S
C516 C525 1.390 . S
C517 C516 1.387 . S
C517 C519 1.387 . S
H518 C525 0.950 . S
C519 C517 1.387 . S
C519 C521 1.390 . S
C519 H523 0.950 . S
H520 C516 0.950 . S
C521 C519 1.390 . S
C521 C522 1.387 . S
C521 H524 0.950 . S
C522 C521 1.387 . S
C522 C525 1.387 . S
H523 C519 0.950 . S
H524 C521 0.950 . S
C525 C516 1.390 . S
C525 H518 0.950 . S
C525 C522 1.387 . S
C526 C527 1.387 . S
C526 H530 0.950 . S
C526 C535 1.390 . S
C527 C526 1.387 . S
C527 C529 1.387 . S
H528 C535 0.950 . S
C529 C527 1.387 . S
C529 C531 1.390 . S
C529 H533 0.950 . S
H530 C526 0.950 . S
C531 C529 1.390 . S
C531 C532 1.387 . S
C531 H534 0.950 . S
C532 C531 1.387 . S
C532 C535 1.387 . S
H533 C529 0.950 . S
H534 C531 0.950 . S
C535 C526 1.390 . S
C535 H528 0.950 . S
C535 C532 1.387 . S
C536 C537 1.387 . S
C536 H540 0.950 . S
C536 C545 1.390 . S
C537 C536 1.387 . S
C537 C539 1.387 . S
H538 C545 0.950 . S
C539 C537 1.387 . S
C539 C541 1.390 . S
C539 H543 0.950 . S
H540 C536 0.950 . S
C541 C539 1.390 . S
C541 C542 1.387 . S
C541 H544 0.950 . S
C542 C541 1.387 . S
C542 C545 1.387 . S
H543 C539 0.950 . S
H544 C541 0.950 . S
C545 C536 1.390 . S
C545 H538 0.950 . S
C545 C542 1.387 . S
C546 C547 1.387 . S
C546 H550 0.950 . S
C546 C555 1.390 . S
C547 C546 1.387 . S
C547 C549 1.387 . S
H548 C555 0.950 . S
C549 C547 1.387 . S
C549 C551 1.390 . S
C549 H553 0.950 . S
H550 C546 0.950 . S
C551 C549 1.390 . S
C551 C552 1.387 . S
C551 H554 0.950 . S
C552 C551 1.387 . S
C552 C555 1.387 . S
H553 C549 0.950 . S
H554 C551 0.950 . S
C555 C546 1.390 . S
C555 H548 0.950 . S
C555 C552 1.387 . S
C556 C557 1.387 . S
C556 H560 0.950 . S
C556 C565 1.390 . S
C557 C556 1.387 . S
C557 C559 1.387 . S
H558 C565 0.950 . S
C559 C557 1.387 . S
C559 C561 1.390 . S
C559 H563 0.950 . S
H560 C556 0.950 . S
C561 C559 1.390 . S
C561 C562 1.387 . S
C561 H564 0.950 . S
C562 C561 1.387 . S
C562 C565 1.387 . S
H563 C559 0.950 . S
H564 C561 0.950 . S
C565 C556 1.390 . S
C565 H558 0.950 . S
C565 C562 1.387 . S
C566 C567 1.387 . S
C566 H570 0.950 . S
C566 C575 1.390 . S
C567 C566 1.387 . S
C567 C569 1.387 . S
H568 C575 0.950 . S
C569 C567 1.387 . S
C569 C571 1.390 . S
C569 H573 0.950 . S
H570 C566 0.950 . S
C571 C569 1.390 . S
C571 C572 1.387 . S
C571 H574 0.950 . S
C572 C571 1.387 . S
C572 C575 1.387 . S
H573 C569 0.950 . S
H574 C571 0.950 . S
C575 C566 1.390 . S
C575 H568 0.950 . S
C575 C572 1.387 . S
C576 C577 1.387 . S
C576 H580 0.950 . S
C576 C585 1.390 . S
C577 C576 1.387 . S
C577 C579 1.387 . S
H578 C585 0.950 . S
C579 C577 1.387 . S
C579 C581 1.390 . S
C579 H583 0.950 . S
H580 C576 0.950 . S
C581 C579 1.390 . S
C581 C582 1.387 . S
C581 H584 0.950 . S
C582 C581 1.387 . S
C582 C585 1.387 . S
H583 C579 0.950 . S
H584 C581 0.950 . S
C585 C576 1.390 . S
C585 H578 0.950 . S
C585 C582 1.387 . S
C586 C587 1.387 . S
C586 H590 0.950 . S
C586 C595 1.390 . S
C587 C586 1.387 . S
C587 C589 1.387 . S
H588 C595 0.950 . S
C589 C587 1.387 . S
C589 C591 1.390 . S
C589 H593 0.950 . S
H590 C586 0.950 . S
C591 C589 1.390 . S
C591 C592 1.387 . S
C591 H594 0.950 . S
C592 C591 1.387 . S
C592 C595 1.387 . S
H593 C589 0.950 . S
H594 C591 0.950 . S
C595 C586 1.390 . S
C595 H588 0.950 . S
C595 C592 1.387 . S
C596 C597 1.387 . S
C596 H600 0.950 . S
C596 C605 1.390 . S
C597 C596 1.387 . S
C597 C599 1.387 . S
H598 C605 0.950 . S
C599 C597 1.387 . S
C599 C601 1.390 . S
C599 H603 0.950 . S
H600 C596 0.950 . S
C601 C599 1.390 . S
C601 C602 1.387 . S
C601 H604 0.950 . S
C602 C601 1.387 . S
C602 C605 1.387 . S
H603 C599 0.950 . S
H604 C601 0.950 . S
C605 C596 1.390 . S
C605 H598 0.950 . S
C605 C602 1.387 . S
C606 C607 1.387 . S
C606 H610 0.950 . S
C606 C615 1.390 . S
C607 C606 1.387 . S
C607 C609 1.387 . S
H608 C615 0.950 . S
C609 C607 1.387 . S
C609 C611 1.390 . S
C609 H613 0.950 . S
H610 C606 0.950 . S
C611 C609 1.390 . S
C611 C612 1.387 . S
C611 H614 0.950 . S
C612 C611 1.387 . S
C612 C615 1.387 . S
H613 C609 0.950 . S
H614 C611 0.950 . S
C615 C606 1.390 . S
C615 H608 0.950 . S
C615 C612 1.387 . S
C616 C617 1.387 . S
C616 H620 0.950 . S
C616 C625 1.390 . S
C617 C616 1.387 . S
C617 C619 1.387 . S
H618 C625 0.950 . S
C619 C617 1.387 . S
C619 C621 1.390 . S
C619 H623 0.950 . S
H620 C616 0.950 . S
C621 C619 1.390 . S
C621 C622 1.387 . S
C621 H624 0.950 . S
C622 C621 1.387 . S
C622 C625 1.387 . S
H623 C619 0.950 . S
H624 C621 0.950 . S
C625 C616 1.390 . S
C625 H618 0.950 . S
C625 C622 1.387 . S
C626 C627 1.387 . S
C626 H630 0.950 . S
C626 C635 1.390 . S
C627 C626 1.387 . S
C627 C629 1.387 . S
H628 C635 0.950 . S
C629 C627 1.387 . S
C629 C631 1.390 . S
C629 H633 0.950 . S
H630 C626 0.950 . S
C631 C629 1.390 . S
C631 C632 1.387 . S
C631 H634 0.950 . S
C632 C631 1.387 . S
C632 C635 1.387 . S
H633 C629 0.950 . S
H634 C631 0.950 . S
C635 C626 1.390 . S
C635 H628 0.950 . S
C635 C632 1.387 . S
C397 C39 1.737 . S
C402 C319 1.731 . S
C407 C91 1.745 . S
C412 C332 1.741 . S
C422 C354 1.517 . S
C417 C128 1.591 . S
C432 C367 1.492 . S
C427 C188 1.556 . S
C442 C380 1.615 . S
C437 C250 1.686 . S
C452 C393 1.621 . S
C447 C304 1.711 . S
C457 C75 1.590 . S
C462 C349 1.505 . S
C467 C144 1.714 . S
C472 C362 1.626 . S
C482 C375 1.593 . S
C477 C198 1.673 . S
C492 C388 1.439 . S
C487 C234 1.522 . S
C497 C294 1.534 . S
C502 C321 1.532 . S
C512 C334 1.563 . S
C507 C29 1.561 . S
C522 C360 1.635 . S
C517 C38 1.725 . S
C527 C92 1.739 . S
C532 C373 1.661 . S
C542 C386 1.499 . S
C537 C135 1.583 . S
C547 C181 1.548 . S
C552 C323 1.548 . S
C557 C251 1.676 . S
C562 C336 1.674 . S
C567 C303 1.698 . S
C572 C347 1.594 . S
C577 C82 1.600 . S
C582 C384 1.527 . S
C592 C328 1.719 . S
C587 C145 1.725 . S
C597 C197 1.685 . S
C602 C341 1.682 . S
C607 C241 1.534 . S
C612 C345 1.460 . S
C617 C287 1.542 . S
C622 C358 1.478 . S
C627 C22 1.568 . S
C632 C371 1.512 . S
