# Generated by pormake.
# Topology rtl, (3,6)-cn, num edge types: 1
# Building blocks:
#     Node 0, Type 0, BuildingBlock: WUSLED_clean_sbu_0, # of connection points: 3
#     Node 1, Type 0, BuildingBlock: WUSLED_clean_sbu_0, # of connection points: 3
#     Node 2, Type 0, BuildingBlock: WUSLED_clean_sbu_0, # of connection points: 3
#     Node 3, Type 0, BuildingBlock: WUSLED_clean_sbu_0, # of connection points: 3
#     Node 4, Type 1, BuildingBlock: LEVNOQ01_clean_sbu_1, # of connection points: 6
#     Node 5, Type 1, BuildingBlock: LEVNOQ01_clean_sbu_1, # of connection points: 6
#     Edge 6, Type (0, 1), BuildingBlock: FUNLAD_clean_linker_1, # of connection points: 2
#     Edge 7, Type (0, 1), BuildingBlock: FUNLAD_clean_linker_1, # of connection points: 2
#     Edge 8, Type (0, 1), BuildingBlock: FUNLAD_clean_linker_1, # of connection points: 2
#     Edge 9, Type (0, 1), BuildingBlock: FUNLAD_clean_linker_1, # of connection points: 2
#     Edge 10, Type (0, 1), BuildingBlock: FUNLAD_clean_linker_1, # of connection points: 2
#     Edge 11, Type (0, 1), BuildingBlock: FUNLAD_clean_linker_1, # of connection points: 2
#     Edge 12, Type (0, 1), BuildingBlock: FUNLAD_clean_linker_1, # of connection points: 2
#     Edge 13, Type (0, 1), BuildingBlock: FUNLAD_clean_linker_1, # of connection points: 2
#     Edge 14, Type (0, 1), BuildingBlock: FUNLAD_clean_linker_1, # of connection points: 2
#     Edge 15, Type (0, 1), BuildingBlock: FUNLAD_clean_linker_1, # of connection points: 2
#     Edge 16, Type (0, 1), BuildingBlock: FUNLAD_clean_linker_1, # of connection points: 2
#     Edge 17, Type (0, 1), BuildingBlock: FUNLAD_clean_linker_1, # of connection points: 2
# Relax obj value: 0.023
# Max RMSD: 0.059
# Mean RMSD: 0.042
data_MOF--net-rtl--node1-WUSLED_clean_sbu_0--node2-LEVNOQ01_clean_sbu_1--edge1-FUNLAD_clean_linker_1
_symmetry_space_group_name_H-M    P1
_symmetry_Int_Tables_number       1
_symmetry_cell_setting            triclinic
loop_
_symmetry_equiv_pos_as_xyz
'x, y, z'
_cell_length_a     41.732557
_cell_length_b     46.577222
_cell_length_c     32.338368
_cell_angle_alpha  90.431011
_cell_angle_beta   98.140657
_cell_angle_gamma 89.903662
loop_
_atom_site_label
_atom_site_type_symbol
_atom_site_fract_x
_atom_site_fract_y
_atom_site_fract_z
_atom_type_partial_charge
C0 C 0.21041 0.87032 0.21205 0.0
C1 C 0.20212 0.89955 0.20933 0.0
C2 C 0.18453 0.89784 0.27805 0.0
C3 C 0.18934 0.91326 0.2421 0.0
C4 C 0.19275 0.86859 0.28037 0.0
C5 C 0.20572 0.85501 0.24781 0.0
U6 U 0.21644 0.85904 0.09598 0.0
O7 O 0.25856 0.84762 0.0652 0.0
O8 O 0.2164 0.81899 0.05965 0.0
C9 C 0.24617 0.82274 0.05185 0.0
C10 C 0.22311 0.85512 0.17768 0.0
C11 C 0.26771 0.79778 0.05946 0.0
C12 C 0.29442 0.76093 0.10505 0.0
C13 C 0.27482 0.78549 0.09923 0.0
C14 C 0.30011 0.76112 0.03152 0.0
C15 C 0.30719 0.74841 0.07105 0.0
C16 C 0.28064 0.78556 0.02581 0.0
C17 C 0.16949 0.90759 0.01378 0.0
C18 C 0.1597 0.89654 0.93936 0.0
C19 C 0.15027 0.94465 0.96394 0.0
C20 C 0.15992 0.93599 1.00511 0.0
C21 C 0.14968 0.92504 0.93061 0.0
C22 C 0.16956 0.88793 0.98064 0.0
C23 C 0.17934 0.89901 0.05748 0.0
O24 O 0.20168 0.84022 0.15261 0.0
O25 O 0.24311 0.86967 0.15779 0.0
O26 O 0.20997 0.90321 0.07227 0.0
O27 O 0.16832 0.87409 0.06809 0.0
H28 H 0.20512 0.91168 0.18168 0.0
H29 H 0.18241 0.93559 0.23852 0.0
H30 H 0.189 0.85613 0.30744 0.0
H31 H 0.21178 0.83239 0.25038 0.0
H32 H 0.2988 0.75163 0.13586 0.0
H33 H 0.26486 0.79466 0.12556 0.0
H34 H 0.30948 0.75198 1.00473 0.0
H35 H 0.27536 0.79474 0.99489 0.0
H36 H 0.16048 0.88095 0.91457 0.0
H37 H 0.14296 0.96677 0.95817 0.0
H38 H 0.15989 0.95151 0.03024 0.0
H39 H 0.17729 0.86596 0.98668 0.0
C40 C 0.7009 0.67498 0.70439 0.0
C41 C 0.70932 0.6464 0.7149 0.0
C42 C 0.67189 0.6462 0.76631 0.0
C43 C 0.69495 0.63213 0.74553 0.0
C44 C 0.66367 0.67473 0.75588 0.0
C45 C 0.67819 0.68904 0.72558 0.0
U46 U 0.71096 0.68808 0.59007 0.0
O47 O 0.71285 0.72851 0.55594 0.0
O48 O 0.75423 0.69893 0.56159 0.0
C49 C 0.74278 0.72419 0.54908 0.0
C50 C 0.71544 0.69055 0.6718 0.0
C51 C 0.76492 0.74859 0.55866 0.0
C52 C 0.7919 0.78423 0.60689 0.0
C53 C 0.77155 0.76027 0.59912 0.0
C54 C 0.79922 0.7847 0.53389 0.0
C55 C 0.80592 0.79676 0.57415 0.0
C56 C 0.779 0.76085 0.52625 0.0
C57 C 0.66407 0.64109 0.50448 0.0
C58 C 0.65515 0.65261 0.43043 0.0
C59 C 0.64503 0.60444 0.45316 0.0
C60 C 0.65433 0.61281 0.49469 0.0
C61 C 0.64496 0.62424 0.42057 0.0
C62 C 0.66467 0.66093 0.4721 0.0
C63 C 0.67343 0.64932 0.54858 0.0
O64 O 0.73597 0.6762 0.65213 0.0
O65 O 0.69543 0.70664 0.64676 0.0
O66 O 0.66289 0.67442 0.55977 0.0
O67 O 0.70375 0.64433 0.56409 0.0
H68 H 0.72676 0.6349 0.69922 0.0
H69 H 0.70138 0.60994 0.75198 0.0
H70 H 0.64589 0.68605 0.77124 0.0
H71 H 0.67141 0.71111 0.71845 0.0
H72 H 0.79596 0.79304 0.6382 0.0
H73 H 0.76069 0.75106 0.62451 0.0
H74 H 0.80955 0.79385 0.50804 0.0
H75 H 0.7741 0.75214 0.49482 0.0
H76 H 0.65631 0.66832 0.40623 0.0
H77 H 0.63757 0.58241 0.44652 0.0
H78 H 0.65388 0.59716 0.51923 0.0
H79 H 0.67252 0.68282 0.47903 0.0
C80 C 0.86265 0.15903 0.1148 0.0
C81 C 0.8897 0.14207 0.12876 0.0
C82 C 0.88412 0.15329 0.20125 0.0
C83 C 0.90047 0.13928 0.17153 0.0
C84 C 0.85745 0.17084 0.18693 0.0
C85 C 0.84675 0.17365 0.14411 0.0
U86 U 0.811 0.19521 0.02317 0.0
O87 O 0.77004 0.21007 0.05368 0.0
O88 O 0.81058 0.2392 0.04839 0.0
C89 C 0.78168 0.23624 0.05947 0.0
C90 C 0.85136 0.16134 0.0697 0.0
C91 C 0.7589 0.25996 0.04789 0.0
C92 C 0.71506 0.28232 1.00139 0.0
C93 C 0.73708 0.25967 0.01059 0.0
C94 C 0.73704 0.30584 0.06627 0.0
C95 C 0.7147 0.30566 0.0294 0.0
C96 C 0.75886 0.28328 0.07538 0.0
C97 C 0.8129 0.16972 0.91061 0.0
C98 C 0.80846 0.15191 0.83916 0.0
C99 C 0.85375 0.13745 0.89008 0.0
C100 C 0.84149 0.15385 0.92074 0.0
C101 C 0.83752 0.13636 0.8489 0.0
C102 C 0.79632 0.16839 0.86982 0.0
C103 C 0.80084 0.18871 0.94159 0.0
O104 O 0.86061 0.18455 0.05179 0.0
O105 O 0.82073 0.15498 0.0579 0.0
O106 O 0.78283 0.17643 0.96662 0.0
O107 O 0.82218 0.20672 0.96104 0.0
H108 H 0.90252 0.13093 0.10653 0.0
H109 H 0.92177 0.12635 0.1809 0.0
H110 H 0.84454 0.18208 0.20895 0.0
H111 H 0.82595 0.18709 0.13387 0.0
H112 H 0.69824 0.28106 0.97279 0.0
H113 H 0.73685 0.24182 0.98887 0.0
H114 H 0.73743 0.32341 0.08849 0.0
H115 H 0.77558 0.28392 0.10426 0.0
H116 H 0.79559 0.15236 0.80771 0.0
H117 H 0.87625 0.12588 0.89845 0.0
H118 H 0.85465 0.15461 0.95212 0.0
H119 H 0.7743 0.18066 0.86141 0.0
C120 C 0.29299 0.36925 0.3838 0.0
C121 C 0.29988 0.39879 0.38632 0.0
C122 C 0.32038 0.39652 0.3194 0.0
C123 C 0.3134 0.41235 0.35435 0.0
C124 C 0.31365 0.36697 0.31732 0.0
C125 C 0.29992 0.35351 0.34905 0.0
U126 U 0.28515 0.35718 0.499 0.0
O127 O 0.24203 0.34722 0.52841 0.0
O128 O 0.28272 0.31689 0.53329 0.0
C129 C 0.25301 0.32176 0.54067 0.0
C130 C 0.27922 0.35424 0.41719 0.0
C131 C 0.23022 0.29775 0.53158 0.0
C132 C 0.19287 0.26442 0.55653 0.0
C133 C 0.21331 0.28818 0.56321 0.0
C134 C 0.20535 0.25973 0.48587 0.0
C135 C 0.18878 0.24973 0.51802 0.0
C136 C 0.22591 0.28363 0.49265 0.0
C137 C 0.3337 0.4034 0.58406 0.0
C138 C 0.34359 0.39146 0.65796 0.0
C139 C 0.35317 0.43982 0.63559 0.0
C140 C 0.34341 0.43167 0.59405 0.0
C141 C 0.35375 0.41981 0.66801 0.0
C142 C 0.3336 0.38335 0.6163 0.0
C143 C 0.32382 0.39538 0.53994 0.0
O144 O 0.29967 0.33831 0.44182 0.0
O145 O 0.2596 0.36927 0.43741 0.0
O146 O 0.29354 0.40088 0.52485 0.0
O147 O 0.33373 0.37012 0.52843 0.0
H148 H 0.29516 0.41131 0.41318 0.0
H149 H 0.31914 0.43496 0.35776 0.0
H150 H 0.31909 0.35421 0.29103 0.0
H151 H 0.29496 0.33068 0.34663 0.0
H152 H 0.18054 0.25723 0.58191 0.0
H153 H 0.21634 0.29881 0.59344 0.0
H154 H 0.2033 0.24884 0.45597 0.0
H155 H 0.23888 0.29077 0.46786 0.0
H156 H 0.34281 0.37558 0.68204 0.0
H157 H 0.36059 0.46184 0.64237 0.0
H158 H 0.34348 0.44748 0.56965 0.0
H159 H 0.32578 0.36147 0.60927 0.0
O160 O 0.98476 0.07205 0.63563 0.0
Mg161 Mg 0.03151 0.06365 0.62242 0.0
O162 O 0.96305 0.03813 0.59214 0.0
Mg163 Mg 0.00258 0.02093 0.55208 0.0
O164 O 0.03382 0.06236 0.55963 0.0
O165 O 0.05734 0.0965 0.6022 0.0
O166 O 0.04236 1.00421 0.51225 0.0
O167 O 0.97347 0.04437 0.49375 0.0
Mg168 Mg 0.97535 0.97782 0.48309 0.0
O169 O 0.97122 0.97919 0.54526 0.0
O170 O 0.02211 0.96905 0.47026 0.0
O171 O 0.95031 0.01132 0.44972 0.0
O172 O 0.94928 0.9448 0.5016 0.0
C173 C 0.05039 1.00349 0.64377 0.0
C174 C 0.96054 0.05717 0.62025 0.0
C175 C 0.05123 0.08556 0.56511 0.0
C176 C 0.04571 0.98483 0.48499 0.0
C177 C 0.95528 0.03737 0.45994 0.0
C178 C 0.95404 0.95586 0.53872 0.0
O179 O 0.05612 0.02936 0.65478 0.0
O180 O 0.03184 0.99741 0.60991 0.0
O181 O 0.55331 0.51625 0.14887 0.0
Mg182 Mg 0.52979 0.48103 0.11736 0.0
O183 O 0.529 0.54619 0.10172 0.0
Mg184 Mg 0.50056 0.51973 0.04564 0.0
O185 O 0.53374 0.47897 0.05494 0.0
O186 O 0.55748 0.4479 0.1022 0.0
O187 O 0.47205 0.49361 0.98914 0.0
O188 O 0.53967 0.53614 1.00483 0.0
Mg189 Mg 0.47164 0.55967 0.97429 0.0
O190 O 0.4674 0.56033 0.0365 0.0
O191 O 0.4489 0.52429 0.94211 0.0
O192 O 0.51804 0.56997 0.96201 0.0
O193 O 0.44356 0.59223 0.99073 0.0
C194 C 0.45926 0.48519 0.11539 0.0
C195 C 0.5473 0.5416 0.13618 0.0
C196 C 0.55189 0.45645 0.06395 0.0
C197 C 0.45425 0.49876 0.95444 0.0
C198 C 0.54228 0.5552 0.97725 0.0
C199 C 0.44916 0.58289 0.02859 0.0
O200 O 0.4838 0.47114 0.13152 0.0
O201 O 0.46147 0.50337 0.0865 0.0
H202 H 0.16196 0.21478 0.5432 0.0
C203 C 0.16859 0.22327 0.51429 0.0
H204 H 0.16207 0.217 0.44838 0.0
H205 H 0.13361 0.09657 0.55128 0.0
H206 H 0.19233 0.09373 0.56736 0.0
H207 H 0.22698 0.13091 0.54245 0.0
H208 H 0.2031 0.1713 0.50164 0.0
C209 C 0.15794 0.20901 0.47858 0.0
C210 C 0.1386 0.18228 0.48066 0.0
C211 C 0.15295 0.15819 0.50255 0.0
C212 C 0.13304 0.13661 0.51638 0.0
C213 C 0.14781 0.11353 0.54012 0.0
C214 C 0.18139 0.11161 0.54936 0.0
C215 C 0.2009 0.13256 0.53535 0.0
C216 C 0.18696 0.15565 0.51221 0.0
H217 H 0.06503 0.08789 0.50102 0.0
C218 C 0.06504 0.09928 0.53045 0.0
H219 H 0.07889 0.13648 0.5662 0.0
H220 H 0.10428 0.22139 0.42963 0.0
H221 H 0.04588 0.22164 0.40831 0.0
H222 H 0.01144 0.18387 0.43217 0.0
H223 H 0.03522 0.14554 0.47759 0.0
C224 C 0.07923 0.12518 0.53673 0.0
C225 C 0.09896 0.13902 0.5078 0.0
C226 C 0.08496 0.16063 0.48049 0.0
C227 C 0.10486 0.18234 0.46671 0.0
C228 C 0.09016 0.20441 0.44085 0.0
C229 C 0.05676 0.20475 0.42843 0.0
C230 C 0.03734 0.1835 0.44192 0.0
C231 C 0.05116 0.16172 0.46794 0.0
H232 H 0.33074 0.71137 0.04505 0.0
C233 C 0.32677 0.72157 0.07431 0.0
H234 H 0.33901 0.71904 0.14029 0.0
H235 H 0.36282 0.59279 0.04584 0.0
H236 H 0.30401 0.58881 0.03623 0.0
H237 H 0.27047 0.62733 0.06083 0.0
H238 H 0.29547 0.67019 0.09484 0.0
C239 C 0.34041 0.70922 0.1101 0.0
C240 C 0.36005 0.68259 0.10793 0.0
C241 C 0.34517 0.65723 0.08996 0.0
C242 C 0.36447 0.6349 0.0763 0.0
C243 C 0.34905 0.61037 0.05662 0.0
C244 C 0.31544 0.60779 0.05114 0.0
C245 C 0.29655 0.6295 0.06497 0.0
C246 C 0.31112 0.65399 0.08419 0.0
H247 H 0.43724 0.58951 0.09316 0.0
C248 C 0.43428 0.59797 0.06164 0.0
H249 H 0.4135 0.63001 0.0203 0.0
H250 H 0.39615 0.72506 0.15063 0.0
H251 H 0.45495 0.72703 0.16515 0.0
H252 H 0.48837 0.68798 0.14175 0.0
H253 H 0.46316 0.64665 0.10362 0.0
C254 C 0.41661 0.62185 0.05201 0.0
C255 C 0.39853 0.63783 0.08115 0.0
C256 C 0.41349 0.66118 0.10456 0.0
C257 C 0.39419 0.68366 0.11811 0.0
C258 C 0.40974 0.70742 0.13977 0.0
C259 C 0.44341 0.70877 0.14829 0.0
C260 C 0.46224 0.68678 0.13509 0.0
C261 C 0.44756 0.66327 0.11321 0.0
H262 H 0.83216 0.83298 0.55115 0.0
C263 C 0.82673 0.82283 0.57957 0.0
H264 H 0.83718 0.82446 0.64584 0.0
H265 H 0.9678 0.88951 0.61842 0.0
H266 H 0.98892 0.84682 0.65625 0.0
H267 H 0.95182 0.80991 0.6765 0.0
H268 H 0.89346 0.81534 0.65922 0.0
C269 C 0.84005 0.83435 0.61636 0.0
C270 C 0.86172 0.8598 0.61633 0.0
C271 C 0.89554 0.85666 0.62808 0.0
C272 C 0.91696 0.87783 0.61623 0.0
C273 C 0.9507 0.87379 0.62657 0.0
C274 C 0.96302 0.84953 0.64831 0.0
C275 C 0.94211 0.82875 0.65975 0.0
C276 C 0.90871 0.83209 0.64964 0.0
H277 H 0.93757 0.95357 0.60133 0.0
C278 C 0.93883 0.94212 0.57221 0.0
H279 H 0.92695 0.90459 0.53631 0.0
H280 H 0.79835 0.87605 0.6007 0.0
H281 H 0.77744 0.9201 0.56673 0.0
H282 H 0.81462 0.95628 0.5447 0.0
H283 H 0.8729 0.94882 0.55688 0.0
C284 C 0.92491 0.91615 0.56514 0.0
C285 C 0.90448 0.90194 0.59294 0.0
C286 C 0.87069 0.90701 0.58659 0.0
C287 C 0.84925 0.88596 0.5986 0.0
C288 C 0.81554 0.89121 0.5913 0.0
C289 C 0.80331 0.91639 0.57208 0.0
C290 C 0.82425 0.93678 0.5597 0.0
C291 C 0.85759 0.93222 0.56671 0.0
H292 H 0.69082 0.34468 0.04912 0.0
C293 C 0.69094 0.32972 0.02312 0.0
H294 H 0.66743 0.31978 0.96201 0.0
H295 H 0.5404 0.37885 0.01364 0.0
H296 H 0.52201 0.3299 0.9974 0.0
H297 H 0.55957 0.2932 0.97678 0.0
H298 H 0.61562 0.30511 0.97216 0.0
C299 C 0.66913 0.33407 0.98881 0.0
C300 C 0.64458 0.35739 0.98921 0.0
C301 C 0.61174 0.35021 0.99027 0.0
C302 C 0.59015 0.37126 1.0025 0.0
C303 C 0.55774 0.36343 1.00492 0.0
C304 C 0.54693 0.33553 0.99554 0.0
C305 C 0.56808 0.31487 0.98389 0.0
C306 C 0.60018 0.32197 0.98139 0.0
H307 H 0.56439 0.44867 0.99993 0.0
C308 C 0.5668 0.44058 0.03163 0.0
H309 H 0.5854 0.40814 0.07364 0.0
H310 H 0.703 0.37984 0.97794 0.0
H311 H 0.72051 0.42936 0.99081 0.0
H312 H 0.68361 0.46552 0.01437 0.0
H313 H 0.62893 0.45257 0.02466 0.0
C314 C 0.58397 0.41655 0.04217 0.0
C315 C 0.60141 0.39932 0.01357 0.0
C316 C 0.633 0.40743 1.00711 0.0
C317 C 0.65453 0.38645 0.99446 0.0
C318 C 0.68606 0.39492 0.98848 0.0
C319 C 0.69629 0.42322 0.99555 0.0
C320 C 0.6755 0.44359 1.00877 0.0
C321 C 0.64421 0.43589 0.01466 0.0
H322 H 0.15706 0.89627 0.33154 0.0
C323 C 0.16902 0.9108 0.31242 0.0
H324 H 0.18078 0.95433 0.30336 0.0
H325 H 0.0553 0.99647 0.37733 0.0
H326 H 0.04485 0.01365 0.30594 0.0
H327 H 0.0823 1.00214 0.25558 0.0
H328 H 0.13043 0.9735 0.27623 0.0
C329 C 0.16885 0.93909 0.32128 0.0
C330 C 0.14966 0.95033 0.35348 0.0
C331 C 0.12204 0.9676 0.34098 0.0
C332 C 0.10025 0.97398 0.36985 0.0
C333 C 0.07242 0.99074 0.35643 0.0
C334 C 0.0662 1.00081 0.31563 0.0
C335 C 0.08731 0.99435 0.2873 0.0
C336 C 0.11488 0.97789 0.29959 0.0
H337 H 0.09587 0.99737 0.47689 0.0
C338 C 0.07643 0.98223 0.46721 0.0
H339 H 0.05931 0.94849 0.42593 0.0
H340 H 0.20432 0.92298 0.39006 0.0
H341 H 0.21554 0.90722 0.46218 0.0
H342 H 0.17662 0.91667 0.51146 0.0
H343 H 0.12642 0.9423 0.48909 0.0
C344 C 0.07916 0.96303 0.43654 0.0
C345 C 0.1061 0.96308 0.41103 0.0
C346 C 0.13518 0.94811 0.4246 0.0
C347 C 0.15721 0.94202 0.39589 0.0
C348 C 0.18634 0.92739 0.41033 0.0
C349 C 0.19315 0.9184 0.45165 0.0
C350 C 0.17125 0.92377 0.47942 0.0
C351 C 0.14252 0.93843 0.46621 0.0
H352 H 0.6315 0.64075 0.80286 0.0
C353 C 0.65453 0.63159 0.79729 0.0
H354 H 0.68935 0.59942 0.81713 0.0
H355 H 0.62615 0.59227 0.98686 0.0
H356 H 0.67883 0.6127 0.0125 0.0
H357 H 0.71709 0.62503 0.96378 0.0
H358 H 0.70286 0.61713 0.88904 0.0
C359 C 0.66561 0.60833 0.81935 0.0
C360 C 0.64583 0.59539 0.8493 0.0
C361 C 0.65498 0.59919 0.8929 0.0
C362 C 0.63299 0.59188 0.92105 0.0
C363 C 0.64205 0.59719 0.96424 0.0
C364 C 0.67219 0.60892 0.97932 0.0
C365 C 0.69374 0.61588 0.95188 0.0
C366 C 0.6853 0.61125 0.9091 0.0
H367 H 0.5923 0.54314 0.96748 0.0
C368 C 0.57301 0.55873 0.95986 0.0
H369 H 0.55618 0.59463 0.92364 0.0
H370 H 0.624 0.57958 0.76862 0.0
H371 H 0.57246 0.55695 0.74327 0.0
H372 H 0.53418 0.54453 0.79192 0.0
H373 H 0.54726 0.55454 0.8662 0.0
C374 C 0.57589 0.57954 0.93191 0.0
C375 C 0.60218 0.58047 0.9054 0.0
C376 C 0.59438 0.57414 0.86221 0.0
C377 C 0.61628 0.58148 0.83414 0.0
C378 C 0.60788 0.57494 0.79114 0.0
C379 C 0.57849 0.56181 0.77624 0.0
C380 C 0.55695 0.55481 0.80363 0.0
C381 C 0.56468 0.5608 0.84614 0.0
H382 H 0.88528 0.16597 0.26783 0.0
C383 C 0.89402 0.15015 0.24717 0.0
H384 H 0.91991 0.11113 0.24507 0.0
H385 H 0.00321 0.11048 0.41949 0.0
H386 H 0.04305 0.12897 0.37878 0.0
H387 H 0.02675 0.14592 0.30676 0.0
H388 H 0.97041 0.14425 0.27486 0.0
C389 C 0.9112 0.12768 0.26442 0.0
C390 C 0.91944 0.12406 0.31048 0.0
C391 C 0.95225 0.12588 0.32913 0.0
C392 C 0.9616 0.11641 0.37086 0.0
C393 C 0.99472 0.11748 0.38804 0.0
C394 C 0.01786 0.12809 0.36502 0.0
C395 C 0.00868 0.13763 0.32446 0.0
C396 C 0.97632 0.13649 0.3065 0.0
H397 H 0.9258 0.05067 0.40205 0.0
C398 C 0.94112 0.05895 0.4296 0.0
H399 H 0.96499 0.09564 0.45749 0.0
H400 H 0.8538 0.11987 0.28591 0.0
H401 H 0.81362 0.10589 0.32911 0.0
H402 H 0.82968 0.09298 0.40302 0.0
H403 H 0.88638 0.0934 0.43383 0.0
C404 C 0.9485 0.08704 0.43136 0.0
C405 C 0.93803 0.10513 0.39382 0.0
C406 C 0.90479 0.10682 0.37701 0.0
C407 C 0.89547 0.11553 0.33494 0.0
C408 C 0.86227 0.11446 0.31803 0.0
C409 C 0.83891 0.10636 0.34248 0.0
C410 C 0.84795 0.099 0.38406 0.0
C411 C 0.88049 0.09915 0.40127 0.0
H412 H 0.36471 0.45282 0.7174 0.0
C413 C 0.36435 0.42976 0.71164 0.0
H414 H 0.37736 0.38943 0.73922 0.0
H415 H 0.47876 0.45467 0.87459 0.0
H416 H 0.51438 0.4273 0.8363 0.0
H417 H 0.49245 0.39813 0.77482 0.0
H418 H 0.43464 0.39639 0.7511 0.0
C419 C 0.37509 0.4124 0.74379 0.0
C420 C 0.38748 0.42495 0.78557 0.0
C421 C 0.42116 0.42475 0.80013 0.0
C422 C 0.43377 0.44126 0.83602 0.0
C423 C 0.46771 0.44209 0.8482 0.0
C424 C 0.48851 0.42653 0.82636 0.0
C425 C 0.47616 0.41013 0.79172 0.0
C426 C 0.44293 0.40929 0.77847 0.0
H427 H 0.44516 0.45283 0.93726 0.0
C428 C 0.44092 0.47481 0.92686 0.0
H429 H 0.42042 0.5021 0.87827 0.0
H430 H 0.32135 0.42508 0.77087 0.0
H431 H 0.28524 0.45082 0.81086 0.0
H432 H 0.30697 0.47956 0.87292 0.0
H433 H 0.36493 0.48261 0.89551 0.0
C434 C 0.42521 0.4801 0.88831 0.0
C435 C 0.41246 0.45743 0.85771 0.0
C436 C 0.37858 0.45557 0.84515 0.0
C437 C 0.36606 0.43922 0.80919 0.0
C438 C 0.33211 0.43771 0.79746 0.0
C439 C 0.31114 0.45222 0.82027 0.0
C440 C 0.32337 0.46839 0.85523 0.0
C441 C 0.35667 0.47008 0.86772 0.0
H442 H 0.63431 0.59092 0.37162 0.0
C443 C 0.63484 0.61403 0.37698 0.0
H444 H 0.62269 0.65422 0.34842 0.0
H445 H 0.63624 0.55786 0.19621 0.0
H446 H 0.69405 0.56056 0.22003 0.0
H447 H 0.71533 0.59038 0.28115 0.0
H448 H 0.67891 0.61757 0.31895 0.0
C449 C 0.62475 0.63119 0.34436 0.0
C450 C 0.61284 0.6183 0.30267 0.0
C451 C 0.63445 0.60319 0.28028 0.0
C452 C 0.6222 0.58623 0.24486 0.0
C453 C 0.64429 0.57088 0.22356 0.0
C454 C 0.67751 0.57236 0.23677 0.0
C455 C 0.68949 0.58914 0.27119 0.0
C456 C 0.66833 0.60448 0.29276 0.0
H457 H 0.5562 0.58777 0.15171 0.0
C458 C 0.56039 0.56598 0.16298 0.0
H459 H 0.58045 0.53955 0.21283 0.0
H460 H 0.56556 0.64862 0.3343 0.0
H461 H 0.50796 0.64745 0.30905 0.0
H462 H 0.48641 0.61719 0.24858 0.0
H463 H 0.5222 0.58814 0.21284 0.0
C464 C 0.57576 0.56137 0.20188 0.0
C465 C 0.58839 0.58459 0.23161 0.0
C466 C 0.56696 0.60167 0.25184 0.0
C467 C 0.57932 0.61881 0.28718 0.0
C468 C 0.55744 0.63521 0.30742 0.0
C469 C 0.52433 0.63471 0.29327 0.0
C470 C 0.5122 0.6177 0.2592 0.0
C471 C 0.5331 0.60117 0.23881 0.0
H472 H 0.87889 0.11669 0.8234 0.0
C473 C 0.853 0.12075 0.81654 0.0
H474 H 0.81147 0.11536 0.77115 0.0
H475 H 0.89626 0.11926 0.62301 0.0
H476 H 0.86273 0.16189 0.6099 0.0
H477 H 0.82548 0.17669 0.65897 0.0
H478 H 0.82145 0.14909 0.72132 0.0
C479 C 0.83731 0.11206 0.77924 0.0
C480 C 0.85563 0.10042 0.74638 0.0
C481 C 0.85706 0.1165 0.7096 0.0
C482 C 0.87874 0.10815 0.68147 0.0
C483 C 0.88039 0.12493 0.64553 0.0
C484 C 0.86123 0.14933 0.63759 0.0
C485 C 0.84023 0.15765 0.6652 0.0
C486 C 0.83813 0.14157 0.70089 0.0
H487 H 0.90924 0.04723 0.62645 0.0
C488 C 0.92971 0.06102 0.63742 0.0
H489 H 0.94793 0.09437 0.67891 0.0
H490 H 0.85316 0.0613 0.80846 0.0
H491 H 0.88579 0.01808 0.82044 0.0
H492 H 0.92488 1.00465 0.77307 0.0
H493 H 0.93128 0.03408 0.71313 0.0
C494 C 0.92764 0.08032 0.66821 0.0
C495 C 0.89886 0.08382 0.69009 0.0
C496 C 0.89539 0.06634 0.72486 0.0
C497 C 0.87346 0.07448 0.7528 0.0
C498 C 0.87016 0.0565 0.78701 0.0
C499 C 0.88858 0.03157 0.79407 0.0
C500 C 0.91056 0.02398 0.76736 0.0
C501 C 0.91405 0.04109 0.73312 0.0
H502 H 0.35008 0.39515 0.26807 0.0
C503 C 0.3365 0.40948 0.28589 0.0
H504 H 0.32159 0.45256 0.29272 0.0
H505 H 0.44674 0.49948 0.22382 0.0
H506 H 0.45396 0.51847 0.29469 0.0
H507 H 0.41578 0.50597 0.34342 0.0
H508 H 0.37013 0.47454 0.32161 0.0
C509 C 0.33517 0.43755 0.27613 0.0
C510 C 0.35468 0.44903 0.2447 0.0
C511 C 0.38082 0.46789 0.25783 0.0
C512 C 0.40306 0.47483 0.22994 0.0
C513 C 0.42938 0.49325 0.244 0.0
C514 C 0.43374 0.50437 0.2845 0.0
C515 C 0.41222 0.49736 0.31191 0.0
C516 C 0.38608 0.47929 0.29897 0.0
H517 H 0.4079 0.4952 0.12126 0.0
C518 C 0.42853 0.48181 0.13284 0.0
H519 H 0.44786 0.45117 0.17744 0.0
H520 H 0.30282 0.41827 0.2067 0.0
H521 H 0.29487 0.40043 0.13515 0.0
H522 H 0.33477 0.41074 0.08774 0.0
H523 H 0.38263 0.43932 0.11137 0.0
C524 C 0.42687 0.46386 0.16495 0.0
C525 C 0.39915 0.46289 0.1891 0.0
C526 C 0.37146 0.44615 0.17478 0.0
C527 C 0.34893 0.43952 0.20249 0.0
C528 C 0.32117 0.42315 0.18728 0.0
C529 C 0.31623 0.41296 0.14625 0.0
C530 C 0.33867 0.41881 0.11953 0.0
C531 C 0.36605 0.43518 0.13347 0.0
H532 H 0.13896 0.95863 0.88272 0.0
C533 C 0.13923 0.93551 0.88742 0.0
H534 H 0.12628 0.89552 0.85792 0.0
H535 H 0.02572 0.96177 0.72414 0.0
H536 H 0.98979 0.93431 0.76113 0.0
H537 H 0.01129 0.90487 0.82189 0.0
H538 H 0.06898 0.90297 0.84621 0.0
C539 C 0.12861 0.91854 0.85443 0.0
C540 C 0.11649 0.93153 0.81313 0.0
C541 C 0.08287 0.93145 0.7982 0.0
C542 C 0.07054 0.94807 0.76264 0.0
C543 C 0.03662 0.94903 0.75017 0.0
C544 C 0.01563 0.93344 0.7713 0.0
C545 C 0.02772 0.91689 0.80554 0.0
C546 C 0.0609 0.91597 0.81914 0.0
H547 H 0.05967 0.95803 0.66227 0.0
C548 C 0.06392 0.98024 0.67201 0.0
H549 H 0.0843 0.00852 0.71994 0.0
H550 H 0.18261 0.93166 0.82878 0.0
H551 H 0.21909 0.95747 0.79006 0.0
H552 H 0.19785 0.98634 0.72854 0.0
H553 H 0.14002 0.98947 0.70523 0.0
C554 C 0.07954 0.98633 0.71044 0.0
C555 C 0.09206 0.96416 0.74157 0.0
C556 C 0.12589 0.96234 0.75462 0.0
C557 C 0.13813 0.94591 0.79028 0.0
C558 C 0.17204 0.94435 0.80243 0.0
C559 C 0.19323 0.9589 0.78033 0.0
C560 C 0.18128 0.97515 0.74568 0.0
C561 C 0.14804 0.97688 0.73277 0.0
loop_
_geom_bond_atom_site_label_1
_geom_bond_atom_site_label_2
_geom_bond_distance
_geom_bond_site_symmetry_2
_ccdc_geom_bond_type
C0 C1 1.264 . S
C0 C5 1.479 . S
C0 C10 1.465 . S
C1 C0 1.264 . S
C1 C3 1.339 . S
C1 H28 0.931 . S
C2 C3 1.395 . S
C2 C4 1.320 . S
C3 C1 1.339 . S
C3 C2 1.395 . S
C3 H29 0.929 . S
C4 C2 1.320 . S
C4 C5 1.405 . S
C4 H30 0.930 . S
C5 C0 1.479 . S
C5 C4 1.405 . S
C5 H31 0.931 . S
U6 O7 2.454 . S
U6 O8 2.458 . S
U6 C9 2.984 . S
U6 C10 2.847 . S
U6 C23 2.882 . S
U6 O24 2.441 . S
U6 O25 2.420 . S
U6 O26 2.455 . S
U6 O27 2.449 . S
O7 U6 2.454 . S
O7 C9 1.353 . S
O8 U6 2.458 . S
O8 C9 1.286 . S
C9 U6 2.984 . S
C9 O7 1.353 . S
C9 O8 1.286 . S
C9 C11 1.363 . S
C10 C0 1.465 . S
C10 U6 2.847 . S
C10 O24 1.249 . S
C10 O25 1.202 . S
C11 C9 1.363 . S
C11 C13 1.408 . S
C11 C16 1.342 . S
C12 C13 1.310 . S
C12 C15 1.461 . S
C12 H32 0.932 . S
C13 C11 1.408 . S
C13 C12 1.310 . S
C13 H33 0.930 . S
C14 C15 1.474 . S
C14 C16 1.285 . S
C14 H34 0.929 . S
C15 C12 1.461 . S
C15 C14 1.474 . S
C16 C11 1.342 . S
C16 C14 1.285 . S
C16 H35 0.930 . S
C17 C20 1.424 . S
C17 C22 1.245 . S
C17 C23 1.428 1_556 S
C18 C21 1.260 . S
C18 C22 1.477 . S
C18 H36 0.932 . S
C19 C20 1.384 . S
C19 C21 1.479 . S
C19 H37 0.929 . S
C20 C17 1.424 . S
C20 C19 1.384 . S
C20 H38 0.928 1_556 S
C21 C18 1.260 . S
C21 C19 1.479 . S
C22 C17 1.245 . S
C22 C18 1.477 . S
C22 H39 0.932 . S
C23 U6 2.882 . S
C23 C17 1.428 1_554 S
C23 O26 1.301 . S
C23 O27 1.282 . S
O24 U6 2.441 . S
O24 C10 1.249 . S
O25 U6 2.420 . S
O25 C10 1.202 . S
O26 U6 2.455 . S
O26 C23 1.301 . S
O27 U6 2.449 . S
O27 C23 1.282 . S
H28 C1 0.931 . S
H29 C3 0.929 . S
H30 C4 0.930 . S
H31 C5 0.931 . S
H32 C12 0.932 . S
H33 C13 0.930 . S
H34 C14 0.929 . S
H35 C16 0.930 . S
H36 C18 0.932 . S
H37 C19 0.929 . S
H38 C20 0.928 1_554 S
H39 C22 0.932 . S
C40 C41 1.264 . S
C40 C45 1.479 . S
C40 C50 1.465 . S
C41 C40 1.264 . S
C41 C43 1.339 . S
C41 H68 0.931 . S
C42 C43 1.395 . S
C42 C44 1.320 . S
C43 C41 1.339 . S
C43 C42 1.395 . S
C43 H69 0.929 . S
C44 C42 1.320 . S
C44 C45 1.405 . S
C44 H70 0.930 . S
C45 C40 1.479 . S
C45 C44 1.405 . S
C45 H71 0.931 . S
U46 O47 2.454 . S
U46 O48 2.458 . S
U46 C49 2.984 . S
U46 C50 2.847 . S
U46 C63 2.882 . S
U46 O64 2.441 . S
U46 O65 2.420 . S
U46 O66 2.455 . S
U46 O67 2.449 . S
O47 U46 2.454 . S
O47 C49 1.353 . S
O48 U46 2.458 . S
O48 C49 1.286 . S
C49 U46 2.984 . S
C49 O47 1.353 . S
C49 O48 1.286 . S
C49 C51 1.363 . S
C50 C40 1.465 . S
C50 U46 2.847 . S
C50 O64 1.249 . S
C50 O65 1.202 . S
C51 C49 1.363 . S
C51 C53 1.408 . S
C51 C56 1.342 . S
C52 C53 1.310 . S
C52 C55 1.461 . S
C52 H72 0.932 . S
C53 C51 1.408 . S
C53 C52 1.310 . S
C53 H73 0.930 . S
C54 C55 1.474 . S
C54 C56 1.285 . S
C54 H74 0.929 . S
C55 C52 1.461 . S
C55 C54 1.474 . S
C56 C51 1.342 . S
C56 C54 1.285 . S
C56 H75 0.930 . S
C57 C60 1.424 . S
C57 C62 1.245 . S
C57 C63 1.428 . S
C58 C61 1.260 . S
C58 C62 1.477 . S
C58 H76 0.932 . S
C59 C60 1.384 . S
C59 C61 1.479 . S
C59 H77 0.929 . S
C60 C57 1.424 . S
C60 C59 1.384 . S
C60 H78 0.928 . S
C61 C58 1.260 . S
C61 C59 1.479 . S
C62 C57 1.245 . S
C62 C58 1.477 . S
C62 H79 0.932 . S
C63 U46 2.882 . S
C63 C57 1.428 . S
C63 O66 1.301 . S
C63 O67 1.282 . S
O64 U46 2.441 . S
O64 C50 1.249 . S
O65 U46 2.420 . S
O65 C50 1.202 . S
O66 U46 2.455 . S
O66 C63 1.301 . S
O67 U46 2.449 . S
O67 C63 1.282 . S
H68 C41 0.931 . S
H69 C43 0.929 . S
H70 C44 0.930 . S
H71 C45 0.931 . S
H72 C52 0.932 . S
H73 C53 0.930 . S
H74 C54 0.929 . S
H75 C56 0.930 . S
H76 C58 0.932 . S
H77 C59 0.929 . S
H78 C60 0.928 . S
H79 C62 0.932 . S
C80 C81 1.264 . S
C80 C85 1.479 . S
C80 C90 1.465 . S
C81 C80 1.264 . S
C81 C83 1.339 . S
C81 H108 0.931 . S
C82 C83 1.395 . S
C82 C84 1.320 . S
C83 C81 1.339 . S
C83 C82 1.395 . S
C83 H109 0.929 . S
C84 C82 1.320 . S
C84 C85 1.405 . S
C84 H110 0.930 . S
C85 C80 1.479 . S
C85 C84 1.405 . S
C85 H111 0.931 . S
U86 O87 2.454 . S
U86 O88 2.458 1_554 S
U86 C89 2.984 1_554 S
U86 C90 2.847 . S
U86 C103 2.882 1_554 S
U86 O104 2.441 . S
U86 O105 2.420 . S
U86 O106 2.455 1_554 S
U86 O107 2.449 1_554 S
O87 U86 2.454 . S
O87 C89 1.353 1_554 S
O88 U86 2.458 1_556 S
O88 C89 1.286 . S
C89 U86 2.984 1_556 S
C89 O87 1.353 1_556 S
C89 O88 1.286 . S
C89 C91 1.363 . S
C90 C80 1.465 . S
C90 U86 2.847 . S
C90 O104 1.249 . S
C90 O105 1.202 . S
C91 C89 1.363 . S
C91 C93 1.408 1_556 S
C91 C96 1.342 . S
C92 C93 1.310 . S
C92 C95 1.461 1_554 S
C92 H112 0.932 . S
C93 C91 1.408 1_554 S
C93 C92 1.310 . S
C93 H113 0.930 . S
C94 C95 1.474 . S
C94 C96 1.285 . S
C94 H114 0.929 . S
C95 C92 1.461 1_556 S
C95 C94 1.474 . S
C96 C91 1.342 . S
C96 C94 1.285 . S
C96 H115 0.930 . S
C97 C100 1.424 . S
C97 C102 1.245 . S
C97 C103 1.428 . S
C98 C101 1.260 . S
C98 C102 1.477 . S
C98 H116 0.932 . S
C99 C100 1.384 . S
C99 C101 1.479 . S
C99 H117 0.929 . S
C100 C97 1.424 . S
C100 C99 1.384 . S
C100 H118 0.928 . S
C101 C98 1.260 . S
C101 C99 1.479 . S
C102 C97 1.245 . S
C102 C98 1.477 . S
C102 H119 0.932 . S
C103 U86 2.882 1_556 S
C103 C97 1.428 . S
C103 O106 1.301 . S
C103 O107 1.282 . S
O104 U86 2.441 . S
O104 C90 1.249 . S
O105 U86 2.420 . S
O105 C90 1.202 . S
O106 U86 2.455 1_556 S
O106 C103 1.301 . S
O107 U86 2.449 1_556 S
O107 C103 1.282 . S
H108 C81 0.931 . S
H109 C83 0.929 . S
H110 C84 0.930 . S
H111 C85 0.931 . S
H112 C92 0.932 . S
H113 C93 0.930 . S
H114 C94 0.929 . S
H115 C96 0.930 . S
H116 C98 0.932 . S
H117 C99 0.929 . S
H118 C100 0.928 . S
H119 C102 0.932 . S
C120 C121 1.264 . S
C120 C125 1.479 . S
C120 C130 1.465 . S
C121 C120 1.264 . S
C121 C123 1.339 . S
C121 H148 0.931 . S
C122 C123 1.395 . S
C122 C124 1.320 . S
C123 C121 1.339 . S
C123 C122 1.395 . S
C123 H149 0.929 . S
C124 C122 1.320 . S
C124 C125 1.405 . S
C124 H150 0.930 . S
C125 C120 1.479 . S
C125 C124 1.405 . S
C125 H151 0.931 . S
U126 O127 2.454 . S
U126 O128 2.458 . S
U126 C129 2.984 . S
U126 C130 2.847 . S
U126 C143 2.882 . S
U126 O144 2.441 . S
U126 O145 2.420 . S
U126 O146 2.455 . S
U126 O147 2.449 . S
O127 U126 2.454 . S
O127 C129 1.353 . S
O128 U126 2.458 . S
O128 C129 1.286 . S
C129 U126 2.984 . S
C129 O127 1.353 . S
C129 O128 1.286 . S
C129 C131 1.363 . S
C130 C120 1.465 . S
C130 U126 2.847 . S
C130 O144 1.249 . S
C130 O145 1.202 . S
C131 C129 1.363 . S
C131 C133 1.408 . S
C131 C136 1.342 . S
C132 C133 1.310 . S
C132 C135 1.461 . S
C132 H152 0.932 . S
C133 C131 1.408 . S
C133 C132 1.310 . S
C133 H153 0.930 . S
C134 C135 1.474 . S
C134 C136 1.285 . S
C134 H154 0.929 . S
C135 C132 1.461 . S
C135 C134 1.474 . S
C136 C131 1.342 . S
C136 C134 1.285 . S
C136 H155 0.930 . S
C137 C140 1.424 . S
C137 C142 1.245 . S
C137 C143 1.428 . S
C138 C141 1.260 . S
C138 C142 1.477 . S
C138 H156 0.932 . S
C139 C140 1.384 . S
C139 C141 1.479 . S
C139 H157 0.929 . S
C140 C137 1.424 . S
C140 C139 1.384 . S
C140 H158 0.928 . S
C141 C138 1.260 . S
C141 C139 1.479 . S
C142 C137 1.245 . S
C142 C138 1.477 . S
C142 H159 0.932 . S
C143 U126 2.882 . S
C143 C137 1.428 . S
C143 O146 1.301 . S
C143 O147 1.282 . S
O144 U126 2.441 . S
O144 C130 1.249 . S
O145 U126 2.420 . S
O145 C130 1.202 . S
O146 U126 2.455 . S
O146 C143 1.301 . S
O147 U126 2.449 . S
O147 C143 1.282 . S
H148 C121 0.931 . S
H149 C123 0.929 . S
H150 C124 0.930 . S
H151 C125 0.931 . S
H152 C132 0.932 . S
H153 C133 0.930 . S
H154 C134 0.929 . S
H155 C136 0.930 . S
H156 C138 0.932 . S
H157 C139 0.929 . S
H158 C140 0.928 . S
H159 C142 0.932 . S
O160 Mg161 1.990 1_655 S
O160 C174 1.253 . S
Mg161 O160 1.990 1_455 S
Mg161 O164 2.180 . S
Mg161 O165 2.117 . S
Mg161 O179 2.030 . S
O162 Mg163 2.072 1_655 S
O162 C174 1.260 . S
Mg163 O162 2.072 1_455 S
Mg163 O164 2.099 . S
Mg163 O166 2.079 1_545 S
Mg163 O167 2.072 1_455 S
Mg163 O169 2.099 1_445 S
Mg163 O180 2.079 1_545 S
O164 Mg161 2.180 . S
O164 Mg163 2.099 . S
O164 C175 1.279 . S
O165 Mg161 2.117 . S
O165 C175 1.250 . S
O166 Mg163 2.079 1_565 S
O166 C176 1.264 . S
O167 Mg163 2.072 1_655 S
O167 C177 1.260 . S
Mg168 O169 2.180 . S
Mg168 O170 2.030 1_655 S
Mg168 O171 1.990 1_565 S
Mg168 O172 2.117 . S
O169 Mg163 2.099 1_665 S
O169 Mg168 2.180 . S
O169 C178 1.279 . S
O170 Mg168 2.030 1_455 S
O170 C176 1.248 . S
O171 Mg168 1.990 1_545 S
O171 C177 1.253 . S
O172 Mg168 2.117 . S
O172 C178 1.250 . S
C173 O179 1.248 1_565 S
C173 O180 1.264 . S
C174 O160 1.253 . S
C174 O162 1.260 . S
C175 O164 1.279 . S
C175 O165 1.250 . S
C176 O166 1.264 . S
C176 O170 1.248 . S
C177 O167 1.260 . S
C177 O171 1.253 . S
C178 O169 1.279 . S
C178 O172 1.250 . S
O179 Mg161 2.030 . S
O179 C173 1.248 1_545 S
O180 Mg163 2.079 1_565 S
O180 C173 1.264 . S
O181 Mg182 1.990 . S
O181 C195 1.253 . S
Mg182 O181 1.990 . S
Mg182 O185 2.180 . S
Mg182 O186 2.117 . S
Mg182 O200 2.030 . S
O183 Mg184 2.072 . S
O183 C195 1.260 . S
Mg184 O183 2.072 . S
Mg184 O185 2.099 . S
Mg184 O187 2.079 1_554 S
Mg184 O188 2.066 1_554 S
Mg184 O190 2.099 . S
Mg184 O201 2.079 . S
O185 Mg182 2.180 . S
O185 Mg184 2.099 . S
O185 C196 1.279 . S
O186 Mg182 2.117 . S
O186 C196 1.250 . S
O187 Mg184 2.079 1_556 S
O187 C197 1.264 . S
O188 Mg184 2.066 1_556 S
O188 C198 1.267 . S
Mg189 O190 2.180 1_556 S
Mg189 O191 2.030 . S
Mg189 O192 1.990 . S
Mg189 O193 2.117 1_556 S
O190 Mg184 2.099 . S
O190 Mg189 2.180 1_554 S
O190 C199 1.279 . S
O191 Mg189 2.030 . S
O191 C197 1.248 . S
O192 Mg189 1.990 . S
O192 C198 1.253 . S
O193 Mg189 2.117 1_554 S
O193 C199 1.250 . S
C194 O200 1.248 . S
C194 O201 1.264 . S
C195 O181 1.253 . S
C195 O183 1.260 . S
C196 O185 1.279 . S
C196 O186 1.250 . S
C197 O187 1.264 . S
C197 O191 1.248 . S
C198 O188 1.267 . S
C198 O192 1.253 . S
C199 O190 1.279 . S
C199 O193 1.250 . S
O200 Mg182 2.030 . S
O200 C194 1.248 . S
O201 Mg184 2.079 . S
O201 C194 1.264 . S
H202 C203 0.951 . S
C203 H202 0.951 . S
C203 C209 1.265 . S
H204 C209 0.950 . S
H205 C213 0.949 . S
H206 C214 0.950 . S
H207 C215 0.951 . S
H208 C216 0.951 . S
C209 C203 1.265 . S
C209 H204 0.950 . S
C209 C210 1.478 . S
C210 C209 1.478 . S
C210 C211 1.397 . S
C210 C227 1.394 . S
C211 C210 1.397 . S
C211 C212 1.438 . S
C211 C216 1.429 . S
C212 C211 1.438 . S
C212 C213 1.428 . S
C212 C225 1.394 . S
C213 H205 0.949 . S
C213 C212 1.428 . S
C213 C214 1.345 . S
C214 H206 0.950 . S
C214 C213 1.345 . S
C214 C215 1.424 . S
C215 H207 0.951 . S
C215 C214 1.424 . S
C215 C216 1.347 . S
C216 H208 0.951 . S
C216 C211 1.429 . S
C216 C215 1.347 . S
H217 C218 0.951 . S
C218 H217 0.951 . S
C218 C224 1.265 . S
H219 C224 0.950 . S
H220 C228 0.949 . S
H221 C229 0.950 . S
H222 C230 0.951 . S
H223 C231 0.951 . S
C224 C218 1.265 . S
C224 H219 0.950 . S
C224 C225 1.478 . S
C225 C212 1.394 . S
C225 C224 1.478 . S
C225 C226 1.397 . S
C226 C225 1.397 . S
C226 C227 1.438 . S
C226 C231 1.429 . S
C227 C210 1.394 . S
C227 C226 1.438 . S
C227 C228 1.428 . S
C228 H220 0.949 . S
C228 C227 1.428 . S
C228 C229 1.345 . S
C229 H221 0.950 . S
C229 C228 1.345 . S
C229 C230 1.424 . S
C230 H222 0.951 . S
C230 C229 1.424 . S
C230 C231 1.347 . S
C231 H223 0.951 . S
C231 C226 1.429 . S
C231 C230 1.347 . S
H232 C233 0.951 . S
C233 H232 0.951 . S
C233 C239 1.265 . S
H234 C239 0.950 . S
H235 C243 0.949 . S
H236 C244 0.950 . S
H237 C245 0.951 . S
H238 C246 0.951 . S
C239 C233 1.265 . S
C239 H234 0.950 . S
C239 C240 1.478 . S
C240 C239 1.478 . S
C240 C241 1.397 . S
C240 C257 1.394 . S
C241 C240 1.397 . S
C241 C242 1.438 . S
C241 C246 1.429 . S
C242 C241 1.438 . S
C242 C243 1.428 1_554 S
C242 C255 1.394 . S
C243 H235 0.949 . S
C243 C242 1.428 1_556 S
C243 C244 1.345 . S
C244 H236 0.950 . S
C244 C243 1.345 . S
C244 C245 1.424 . S
C245 H237 0.951 . S
C245 C244 1.424 . S
C245 C246 1.347 1_556 S
C246 H238 0.951 . S
C246 C241 1.429 . S
C246 C245 1.347 1_554 S
H247 C248 0.951 . S
C248 H247 0.951 . S
C248 C254 1.265 . S
H249 C254 0.950 . S
H250 C258 0.949 . S
H251 C259 0.950 . S
H252 C260 0.951 . S
H253 C261 0.951 . S
C254 C248 1.265 . S
C254 H249 0.950 . S
C254 C255 1.478 . S
C255 C242 1.394 . S
C255 C254 1.478 . S
C255 C256 1.397 . S
C256 C255 1.397 . S
C256 C257 1.438 . S
C256 C261 1.429 . S
C257 C240 1.394 . S
C257 C256 1.438 . S
C257 C258 1.428 . S
C258 H250 0.949 . S
C258 C257 1.428 . S
C258 C259 1.345 . S
C259 H251 0.950 . S
C259 C258 1.345 . S
C259 C260 1.424 . S
C260 H252 0.951 . S
C260 C259 1.424 . S
C260 C261 1.347 . S
C261 H253 0.951 . S
C261 C256 1.429 . S
C261 C260 1.347 . S
H262 C263 0.951 . S
C263 H262 0.951 . S
C263 C269 1.265 . S
H264 C269 0.950 . S
H265 C273 0.949 . S
H266 C274 0.950 . S
H267 C275 0.951 . S
H268 C276 0.951 . S
C269 C263 1.265 . S
C269 H264 0.950 . S
C269 C270 1.478 . S
C270 C269 1.478 . S
C270 C271 1.397 . S
C270 C287 1.394 . S
C271 C270 1.397 . S
C271 C272 1.438 . S
C271 C276 1.429 . S
C272 C271 1.438 . S
C272 C273 1.428 . S
C272 C285 1.394 . S
C273 H265 0.949 . S
C273 C272 1.428 . S
C273 C274 1.345 . S
C274 H266 0.950 . S
C274 C273 1.345 . S
C274 C275 1.424 . S
C275 H267 0.951 . S
C275 C274 1.424 . S
C275 C276 1.347 . S
C276 H268 0.951 . S
C276 C271 1.429 . S
C276 C275 1.347 . S
H277 C278 0.951 . S
C278 H277 0.951 . S
C278 C284 1.265 . S
H279 C284 0.950 . S
H280 C288 0.949 . S
H281 C289 0.950 . S
H282 C290 0.951 . S
H283 C291 0.951 . S
C284 C278 1.265 . S
C284 H279 0.950 . S
C284 C285 1.478 . S
C285 C272 1.394 . S
C285 C284 1.478 . S
C285 C286 1.397 . S
C286 C285 1.397 . S
C286 C287 1.438 . S
C286 C291 1.429 . S
C287 C270 1.394 . S
C287 C286 1.438 . S
C287 C288 1.428 . S
C288 H280 0.949 . S
C288 C287 1.428 . S
C288 C289 1.345 . S
C289 H281 0.950 . S
C289 C288 1.345 . S
C289 C290 1.424 . S
C290 H282 0.951 . S
C290 C289 1.424 . S
C290 C291 1.347 . S
C291 H283 0.951 . S
C291 C286 1.429 . S
C291 C290 1.347 . S
H292 C293 0.951 . S
C293 H292 0.951 . S
C293 C299 1.265 1_556 S
H294 C299 0.950 . S
H295 C303 0.949 . S
H296 C304 0.950 . S
H297 C305 0.951 . S
H298 C306 0.951 . S
C299 C293 1.265 1_554 S
C299 H294 0.950 . S
C299 C300 1.478 . S
C300 C299 1.478 . S
C300 C301 1.397 . S
C300 C317 1.394 1_554 S
C301 C300 1.397 . S
C301 C302 1.438 . S
C301 C306 1.429 . S
C302 C301 1.438 . S
C302 C303 1.428 . S
C302 C315 1.394 . S
C303 H295 0.949 . S
C303 C302 1.428 . S
C303 C304 1.345 . S
C304 H296 0.950 . S
C304 C303 1.345 . S
C304 C305 1.424 . S
C305 H297 0.951 . S
C305 C304 1.424 . S
C305 C306 1.347 . S
C306 H298 0.951 . S
C306 C301 1.429 . S
C306 C305 1.347 . S
H307 C308 0.951 . S
C308 H307 0.951 . S
C308 C314 1.265 . S
H309 C314 0.950 . S
H310 C318 0.949 . S
H311 C319 0.950 . S
H312 C320 0.951 . S
H313 C321 0.951 . S
C314 C308 1.265 . S
C314 H309 0.950 . S
C314 C315 1.478 . S
C315 C302 1.394 . S
C315 C314 1.478 . S
C315 C316 1.397 1_554 S
C316 C315 1.397 1_556 S
C316 C317 1.438 . S
C316 C321 1.429 . S
C317 C300 1.394 1_556 S
C317 C316 1.438 . S
C317 C318 1.428 . S
C318 H310 0.949 . S
C318 C317 1.428 . S
C318 C319 1.345 . S
C319 H311 0.950 . S
C319 C318 1.345 . S
C319 C320 1.424 . S
C320 H312 0.951 . S
C320 C319 1.424 . S
C320 C321 1.347 . S
C321 H313 0.951 . S
C321 C316 1.429 . S
C321 C320 1.347 . S
H322 C323 0.951 . S
C323 H322 0.951 . S
C323 C329 1.265 . S
H324 C329 0.950 . S
H325 C333 0.949 . S
H326 C334 0.950 . S
H327 C335 0.951 . S
H328 C336 0.951 . S
C329 C323 1.265 . S
C329 H324 0.950 . S
C329 C330 1.478 . S
C330 C329 1.478 . S
C330 C331 1.397 . S
C330 C347 1.394 . S
C331 C330 1.397 . S
C331 C332 1.438 . S
C331 C336 1.429 . S
C332 C331 1.438 . S
C332 C333 1.428 . S
C332 C345 1.394 . S
C333 H325 0.949 . S
C333 C332 1.428 . S
C333 C334 1.345 . S
C334 H326 0.950 . S
C334 C333 1.345 . S
C334 C335 1.424 . S
C335 H327 0.951 . S
C335 C334 1.424 . S
C335 C336 1.347 . S
C336 H328 0.951 . S
C336 C331 1.429 . S
C336 C335 1.347 . S
H337 C338 0.951 . S
C338 H337 0.951 . S
C338 C344 1.265 . S
H339 C344 0.950 . S
H340 C348 0.949 . S
H341 C349 0.950 . S
H342 C350 0.951 . S
H343 C351 0.951 . S
C344 C338 1.265 . S
C344 H339 0.950 . S
C344 C345 1.478 . S
C345 C332 1.394 . S
C345 C344 1.478 . S
C345 C346 1.397 . S
C346 C345 1.397 . S
C346 C347 1.438 . S
C346 C351 1.429 1_565 S
C347 C330 1.394 . S
C347 C346 1.438 . S
C347 C348 1.428 . S
C348 H340 0.949 . S
C348 C347 1.428 . S
C348 C349 1.345 1_565 S
C349 H341 0.950 . S
C349 C348 1.345 1_545 S
C349 C350 1.424 . S
C350 H342 0.951 . S
C350 C349 1.424 . S
C350 C351 1.347 . S
C351 H343 0.951 . S
C351 C346 1.429 1_545 S
C351 C350 1.347 . S
H352 C353 0.951 . S
C353 H352 0.951 . S
C353 C359 1.265 . S
H354 C359 0.950 . S
H355 C363 0.949 . S
H356 C364 0.950 . S
H357 C365 0.951 . S
H358 C366 0.951 . S
C359 C353 1.265 . S
C359 H354 0.950 . S
C359 C360 1.478 . S
C360 C359 1.478 . S
C360 C361 1.397 . S
C360 C377 1.394 . S
C361 C360 1.397 . S
C361 C362 1.438 . S
C361 C366 1.429 . S
C362 C361 1.438 . S
C362 C363 1.428 . S
C362 C375 1.394 . S
C363 H355 0.949 . S
C363 C362 1.428 . S
C363 C364 1.345 . S
C364 H356 0.950 . S
C364 C363 1.345 . S
C364 C365 1.424 . S
C365 H357 0.951 . S
C365 C364 1.424 . S
C365 C366 1.347 . S
C366 H358 0.951 . S
C366 C361 1.429 . S
C366 C365 1.347 . S
H367 C368 0.951 . S
C368 H367 0.951 . S
C368 C374 1.265 . S
H369 C374 0.950 . S
H370 C378 0.949 . S
H371 C379 0.950 . S
H372 C380 0.951 . S
H373 C381 0.951 . S
C374 C368 1.265 . S
C374 H369 0.950 . S
C374 C375 1.478 . S
C375 C362 1.394 . S
C375 C374 1.478 . S
C375 C376 1.397 . S
C376 C375 1.397 . S
C376 C377 1.438 . S
C376 C381 1.429 . S
C377 C360 1.394 . S
C377 C376 1.438 . S
C377 C378 1.428 . S
C378 H370 0.949 . S
C378 C377 1.428 . S
C378 C379 1.345 . S
C379 H371 0.950 . S
C379 C378 1.345 . S
C379 C380 1.424 . S
C380 H372 0.951 . S
C380 C379 1.424 . S
C380 C381 1.347 . S
C381 H373 0.951 . S
C381 C376 1.429 . S
C381 C380 1.347 . S
H382 C383 0.951 . S
C383 H382 0.951 . S
C383 C389 1.265 . S
H384 C389 0.950 . S
H385 C393 0.949 . S
H386 C394 0.950 1_455 S
H387 C395 0.951 . S
H388 C396 0.951 . S
C389 C383 1.265 . S
C389 H384 0.950 . S
C389 C390 1.478 . S
C390 C389 1.478 . S
C390 C391 1.397 . S
C390 C407 1.394 . S
C391 C390 1.397 . S
C391 C392 1.438 . S
C391 C396 1.429 . S
C392 C391 1.438 . S
C392 C393 1.428 . S
C392 C405 1.394 . S
C393 H385 0.949 . S
C393 C392 1.428 . S
C393 C394 1.345 . S
C394 H386 0.950 1_655 S
C394 C393 1.345 . S
C394 C395 1.424 . S
C395 H387 0.951 . S
C395 C394 1.424 . S
C395 C396 1.347 . S
C396 H388 0.951 . S
C396 C391 1.429 . S
C396 C395 1.347 . S
H397 C398 0.951 . S
C398 H397 0.951 . S
C398 C404 1.265 . S
H399 C404 0.950 . S
H400 C408 0.949 . S
H401 C409 0.950 . S
H402 C410 0.951 . S
H403 C411 0.951 . S
C404 C398 1.265 . S
C404 H399 0.950 . S
C404 C405 1.478 . S
C405 C392 1.394 . S
C405 C404 1.478 . S
C405 C406 1.397 . S
C406 C405 1.397 . S
C406 C407 1.438 . S
C406 C411 1.429 . S
C407 C390 1.394 . S
C407 C406 1.438 . S
C407 C408 1.428 . S
C408 H400 0.949 . S
C408 C407 1.428 . S
C408 C409 1.345 . S
C409 H401 0.950 . S
C409 C408 1.345 . S
C409 C410 1.424 . S
C410 H402 0.951 . S
C410 C409 1.424 . S
C410 C411 1.347 . S
C411 H403 0.951 . S
C411 C406 1.429 . S
C411 C410 1.347 . S
H412 C413 0.951 . S
C413 H412 0.951 . S
C413 C419 1.265 . S
H414 C419 0.950 . S
H415 C423 0.949 . S
H416 C424 0.950 . S
H417 C425 0.951 . S
H418 C426 0.951 . S
C419 C413 1.265 . S
C419 H414 0.950 . S
C419 C420 1.478 . S
C420 C419 1.478 . S
C420 C421 1.397 . S
C420 C437 1.394 . S
C421 C420 1.397 . S
C421 C422 1.438 . S
C421 C426 1.429 . S
C422 C421 1.438 . S
C422 C423 1.428 . S
C422 C435 1.394 . S
C423 H415 0.949 . S
C423 C422 1.428 . S
C423 C424 1.345 . S
C424 H416 0.950 . S
C424 C423 1.345 . S
C424 C425 1.424 . S
C425 H417 0.951 . S
C425 C424 1.424 . S
C425 C426 1.347 . S
C426 H418 0.951 . S
C426 C421 1.429 . S
C426 C425 1.347 . S
H427 C428 0.951 . S
C428 H427 0.951 . S
C428 C434 1.265 . S
H429 C434 0.950 . S
H430 C438 0.949 . S
H431 C439 0.950 . S
H432 C440 0.951 . S
H433 C441 0.951 . S
C434 C428 1.265 . S
C434 H429 0.950 . S
C434 C435 1.478 . S
C435 C422 1.394 . S
C435 C434 1.478 . S
C435 C436 1.397 . S
C436 C435 1.397 . S
C436 C437 1.438 . S
C436 C441 1.429 . S
C437 C420 1.394 . S
C437 C436 1.438 . S
C437 C438 1.428 . S
C438 H430 0.949 . S
C438 C437 1.428 . S
C438 C439 1.345 . S
C439 H431 0.950 . S
C439 C438 1.345 . S
C439 C440 1.424 . S
C440 H432 0.951 . S
C440 C439 1.424 . S
C440 C441 1.347 . S
C441 H433 0.951 . S
C441 C436 1.429 . S
C441 C440 1.347 . S
H442 C443 0.951 . S
C443 H442 0.951 . S
C443 C449 1.265 . S
H444 C449 0.950 . S
H445 C453 0.949 . S
H446 C454 0.950 . S
H447 C455 0.951 . S
H448 C456 0.951 . S
C449 C443 1.265 . S
C449 H444 0.950 . S
C449 C450 1.478 . S
C450 C449 1.478 . S
C450 C451 1.397 . S
C450 C467 1.394 . S
C451 C450 1.397 . S
C451 C452 1.438 . S
C451 C456 1.429 . S
C452 C451 1.438 . S
C452 C453 1.428 . S
C452 C465 1.394 . S
C453 H445 0.949 . S
C453 C452 1.428 . S
C453 C454 1.345 . S
C454 H446 0.950 . S
C454 C453 1.345 . S
C454 C455 1.424 . S
C455 H447 0.951 . S
C455 C454 1.424 . S
C455 C456 1.347 . S
C456 H448 0.951 . S
C456 C451 1.429 . S
C456 C455 1.347 . S
H457 C458 0.951 . S
C458 H457 0.951 . S
C458 C464 1.265 . S
H459 C464 0.950 . S
H460 C468 0.949 . S
H461 C469 0.950 . S
H462 C470 0.951 . S
H463 C471 0.951 . S
C464 C458 1.265 . S
C464 H459 0.950 . S
C464 C465 1.478 . S
C465 C452 1.394 . S
C465 C464 1.478 . S
C465 C466 1.397 . S
C466 C465 1.397 . S
C466 C467 1.438 . S
C466 C471 1.429 . S
C467 C450 1.394 . S
C467 C466 1.438 . S
C467 C468 1.428 . S
C468 H460 0.949 . S
C468 C467 1.428 . S
C468 C469 1.345 . S
C469 H461 0.950 . S
C469 C468 1.345 . S
C469 C470 1.424 . S
C470 H462 0.951 . S
C470 C469 1.424 . S
C470 C471 1.347 . S
C471 H463 0.951 . S
C471 C466 1.429 . S
C471 C470 1.347 . S
H472 C473 0.951 . S
C473 H472 0.951 . S
C473 C479 1.265 . S
H474 C479 0.950 . S
H475 C483 0.949 . S
H476 C484 0.950 . S
H477 C485 0.951 . S
H478 C486 0.951 . S
C479 C473 1.265 . S
C479 H474 0.950 . S
C479 C480 1.478 . S
C480 C479 1.478 . S
C480 C481 1.397 . S
C480 C497 1.394 . S
C481 C480 1.397 . S
C481 C482 1.438 . S
C481 C486 1.429 . S
C482 C481 1.438 . S
C482 C483 1.428 . S
C482 C495 1.394 . S
C483 H475 0.949 . S
C483 C482 1.428 . S
C483 C484 1.345 . S
C484 H476 0.950 . S
C484 C483 1.345 . S
C484 C485 1.424 . S
C485 H477 0.951 . S
C485 C484 1.424 . S
C485 C486 1.347 . S
C486 H478 0.951 . S
C486 C481 1.429 . S
C486 C485 1.347 . S
H487 C488 0.951 . S
C488 H487 0.951 . S
C488 C494 1.265 . S
H489 C494 0.950 . S
H490 C498 0.949 . S
H491 C499 0.950 1_565 S
H492 C500 0.951 . S
H493 C501 0.951 . S
C494 C488 1.265 . S
C494 H489 0.950 . S
C494 C495 1.478 . S
C495 C482 1.394 . S
C495 C494 1.478 . S
C495 C496 1.397 . S
C496 C495 1.397 . S
C496 C497 1.438 . S
C496 C501 1.429 . S
C497 C480 1.394 . S
C497 C496 1.438 . S
C497 C498 1.428 . S
C498 H490 0.949 . S
C498 C497 1.428 . S
C498 C499 1.345 . S
C499 H491 0.950 1_545 S
C499 C498 1.345 . S
C499 C500 1.424 1_545 S
C500 H492 0.951 . S
C500 C499 1.424 1_565 S
C500 C501 1.347 1_565 S
C501 H493 0.951 . S
C501 C496 1.429 . S
C501 C500 1.347 1_545 S
H502 C503 0.951 . S
C503 H502 0.951 . S
C503 C509 1.265 . S
H504 C509 0.950 . S
H505 C513 0.949 . S
H506 C514 0.950 . S
H507 C515 0.951 . S
H508 C516 0.951 . S
C509 C503 1.265 . S
C509 H504 0.950 . S
C509 C510 1.478 . S
C510 C509 1.478 . S
C510 C511 1.397 . S
C510 C527 1.394 . S
C511 C510 1.397 . S
C511 C512 1.438 . S
C511 C516 1.429 . S
C512 C511 1.438 . S
C512 C513 1.428 . S
C512 C525 1.394 . S
C513 H505 0.949 . S
C513 C512 1.428 . S
C513 C514 1.345 . S
C514 H506 0.950 . S
C514 C513 1.345 . S
C514 C515 1.424 . S
C515 H507 0.951 . S
C515 C514 1.424 . S
C515 C516 1.347 . S
C516 H508 0.951 . S
C516 C511 1.429 . S
C516 C515 1.347 . S
H517 C518 0.951 . S
C518 H517 0.951 . S
C518 C524 1.265 . S
H519 C524 0.950 . S
H520 C528 0.949 . S
H521 C529 0.950 . S
H522 C530 0.951 . S
H523 C531 0.951 . S
C524 C518 1.265 . S
C524 H519 0.950 . S
C524 C525 1.478 . S
C525 C512 1.394 . S
C525 C524 1.478 . S
C525 C526 1.397 . S
C526 C525 1.397 . S
C526 C527 1.438 . S
C526 C531 1.429 . S
C527 C510 1.394 . S
C527 C526 1.438 . S
C527 C528 1.428 . S
C528 H520 0.949 . S
C528 C527 1.428 . S
C528 C529 1.345 . S
C529 H521 0.950 . S
C529 C528 1.345 . S
C529 C530 1.424 . S
C530 H522 0.951 . S
C530 C529 1.424 . S
C530 C531 1.347 . S
C531 H523 0.951 . S
C531 C526 1.429 . S
C531 C530 1.347 . S
H532 C533 0.951 . S
C533 H532 0.951 . S
C533 C539 1.265 . S
H534 C539 0.950 . S
H535 C543 0.949 . S
H536 C544 0.950 . S
H537 C545 0.951 . S
H538 C546 0.951 . S
C539 C533 1.265 . S
C539 H534 0.950 . S
C539 C540 1.478 . S
C540 C539 1.478 . S
C540 C541 1.397 . S
C540 C557 1.394 . S
C541 C540 1.397 . S
C541 C542 1.438 . S
C541 C546 1.429 . S
C542 C541 1.438 . S
C542 C543 1.428 . S
C542 C555 1.394 . S
C543 H535 0.949 . S
C543 C542 1.428 . S
C543 C544 1.345 . S
C544 H536 0.950 . S
C544 C543 1.345 . S
C544 C545 1.424 . S
C545 H537 0.951 . S
C545 C544 1.424 . S
C545 C546 1.347 . S
C546 H538 0.951 . S
C546 C541 1.429 . S
C546 C545 1.347 . S
H547 C548 0.951 . S
C548 H547 0.951 . S
C548 C554 1.265 . S
H549 C554 0.950 1_545 S
H550 C558 0.949 1_565 S
H551 C559 0.950 . S
H552 C560 0.951 . S
H553 C561 0.951 . S
C554 C548 1.265 . S
C554 H549 0.950 1_565 S
C554 C555 1.478 . S
C555 C542 1.394 . S
C555 C554 1.478 . S
C555 C556 1.397 . S
C556 C555 1.397 . S
C556 C557 1.438 . S
C556 C561 1.429 1_565 S
C557 C540 1.394 . S
C557 C556 1.438 . S
C557 C558 1.428 1_565 S
C558 H550 0.949 1_545 S
C558 C557 1.428 1_545 S
C558 C559 1.345 . S
C559 H551 0.950 . S
C559 C558 1.345 . S
C559 C560 1.424 . S
C560 H552 0.951 . S
C560 C559 1.424 . S
C560 C561 1.347 . S
C561 H553 0.951 . S
C561 C556 1.429 1_545 S
C561 C560 1.347 . S
C218 C175 1.338 . S
C203 C135 1.572 . S
C233 C15 1.569 . S
C248 C199 1.385 . S
C263 C55 1.697 . S
C278 C178 1.500 . S
C293 C95 1.670 . S
C308 C196 1.471 . S
C338 C176 1.606 . S
C323 C2 1.651 . S
C368 C198 1.567 . S
C353 C42 1.597 . S
C383 C82 1.576 . S
C398 C177 1.459 . S
C413 C141 1.618 . S
C428 C197 1.554 . S
C458 C195 1.499 . S
C443 C61 1.516 . S
C488 C174 1.634 . S
C473 C101 1.634 . S
C518 C194 1.627 . S
C503 C122 1.682 . S
C533 C21 1.652 . S
C548 C173 1.608 . S
