# Generated by pormake.
# Topology ocu, (6,8)-cn, num edge types: 1
# Building blocks:
#     Node 0, Type 0, BuildingBlock: BETDEL_clean_sbu_0, # of connection points: 6
#     Node 1, Type 0, BuildingBlock: BETDEL_clean_sbu_0, # of connection points: 6
#     Node 2, Type 0, BuildingBlock: BETDEL_clean_sbu_0, # of connection points: 6
#     Node 3, Type 0, BuildingBlock: BETDEL_clean_sbu_0, # of connection points: 6
#     Node 4, Type 0, BuildingBlock: BETDEL_clean_sbu_0, # of connection points: 6
#     Node 5, Type 0, BuildingBlock: BETDEL_clean_sbu_0, # of connection points: 6
#     Node 6, Type 0, BuildingBlock: BETDEL_clean_sbu_0, # of connection points: 6
#     Node 7, Type 0, BuildingBlock: BETDEL_clean_sbu_0, # of connection points: 6
#     Node 8, Type 1, BuildingBlock: TAGTUT_clean_sbu_1, # of connection points: 8
#     Node 9, Type 1, BuildingBlock: TAGTUT_clean_sbu_1, # of connection points: 8
#     Node 10, Type 1, BuildingBlock: TAGTUT_clean_sbu_1, # of connection points: 8
#     Node 11, Type 1, BuildingBlock: TAGTUT_clean_sbu_1, # of connection points: 8
#     Node 12, Type 1, BuildingBlock: TAGTUT_clean_sbu_1, # of connection points: 8
#     Node 13, Type 1, BuildingBlock: TAGTUT_clean_sbu_1, # of connection points: 8
#     Edge 14, Type (0, 1), BuildingBlock: XUDNAN_clean_linker_2, # of connection points: 2
#     Edge 15, Type (0, 1), BuildingBlock: XUDNAN_clean_linker_2, # of connection points: 2
#     Edge 16, Type (0, 1), BuildingBlock: XUDNAN_clean_linker_2, # of connection points: 2
#     Edge 17, Type (0, 1), BuildingBlock: XUDNAN_clean_linker_2, # of connection points: 2
#     Edge 18, Type (0, 1), BuildingBlock: XUDNAN_clean_linker_2, # of connection points: 2
#     Edge 19, Type (0, 1), BuildingBlock: XUDNAN_clean_linker_2, # of connection points: 2
#     Edge 20, Type (0, 1), BuildingBlock: XUDNAN_clean_linker_2, # of connection points: 2
#     Edge 21, Type (0, 1), BuildingBlock: XUDNAN_clean_linker_2, # of connection points: 2
#     Edge 22, Type (0, 1), BuildingBlock: XUDNAN_clean_linker_2, # of connection points: 2
#     Edge 23, Type (0, 1), BuildingBlock: XUDNAN_clean_linker_2, # of connection points: 2
#     Edge 24, Type (0, 1), BuildingBlock: XUDNAN_clean_linker_2, # of connection points: 2
#     Edge 25, Type (0, 1), BuildingBlock: XUDNAN_clean_linker_2, # of connection points: 2
#     Edge 26, Type (0, 1), BuildingBlock: XUDNAN_clean_linker_2, # of connection points: 2
#     Edge 27, Type (0, 1), BuildingBlock: XUDNAN_clean_linker_2, # of connection points: 2
#     Edge 28, Type (0, 1), BuildingBlock: XUDNAN_clean_linker_2, # of connection points: 2
#     Edge 29, Type (0, 1), BuildingBlock: XUDNAN_clean_linker_2, # of connection points: 2
#     Edge 30, Type (0, 1), BuildingBlock: XUDNAN_clean_linker_2, # of connection points: 2
#     Edge 31, Type (0, 1), BuildingBlock: XUDNAN_clean_linker_2, # of connection points: 2
#     Edge 32, Type (0, 1), BuildingBlock: XUDNAN_clean_linker_2, # of connection points: 2
#     Edge 33, Type (0, 1), BuildingBlock: XUDNAN_clean_linker_2, # of connection points: 2
#     Edge 34, Type (0, 1), BuildingBlock: XUDNAN_clean_linker_2, # of connection points: 2
#     Edge 35, Type (0, 1), BuildingBlock: XUDNAN_clean_linker_2, # of connection points: 2
#     Edge 36, Type (0, 1), BuildingBlock: XUDNAN_clean_linker_2, # of connection points: 2
#     Edge 37, Type (0, 1), BuildingBlock: XUDNAN_clean_linker_2, # of connection points: 2
#     Edge 38, Type (0, 1), BuildingBlock: XUDNAN_clean_linker_2, # of connection points: 2
#     Edge 39, Type (0, 1), BuildingBlock: XUDNAN_clean_linker_2, # of connection points: 2
#     Edge 40, Type (0, 1), BuildingBlock: XUDNAN_clean_linker_2, # of connection points: 2
#     Edge 41, Type (0, 1), BuildingBlock: XUDNAN_clean_linker_2, # of connection points: 2
#     Edge 42, Type (0, 1), BuildingBlock: XUDNAN_clean_linker_2, # of connection points: 2
#     Edge 43, Type (0, 1), BuildingBlock: XUDNAN_clean_linker_2, # of connection points: 2
#     Edge 44, Type (0, 1), BuildingBlock: XUDNAN_clean_linker_2, # of connection points: 2
#     Edge 45, Type (0, 1), BuildingBlock: XUDNAN_clean_linker_2, # of connection points: 2
#     Edge 46, Type (0, 1), BuildingBlock: XUDNAN_clean_linker_2, # of connection points: 2
#     Edge 47, Type (0, 1), BuildingBlock: XUDNAN_clean_linker_2, # of connection points: 2
#     Edge 48, Type (0, 1), BuildingBlock: XUDNAN_clean_linker_2, # of connection points: 2
#     Edge 49, Type (0, 1), BuildingBlock: XUDNAN_clean_linker_2, # of connection points: 2
#     Edge 50, Type (0, 1), BuildingBlock: XUDNAN_clean_linker_2, # of connection points: 2
#     Edge 51, Type (0, 1), BuildingBlock: XUDNAN_clean_linker_2, # of connection points: 2
#     Edge 52, Type (0, 1), BuildingBlock: XUDNAN_clean_linker_2, # of connection points: 2
#     Edge 53, Type (0, 1), BuildingBlock: XUDNAN_clean_linker_2, # of connection points: 2
#     Edge 54, Type (0, 1), BuildingBlock: XUDNAN_clean_linker_2, # of connection points: 2
#     Edge 55, Type (0, 1), BuildingBlock: XUDNAN_clean_linker_2, # of connection points: 2
#     Edge 56, Type (0, 1), BuildingBlock: XUDNAN_clean_linker_2, # of connection points: 2
#     Edge 57, Type (0, 1), BuildingBlock: XUDNAN_clean_linker_2, # of connection points: 2
#     Edge 58, Type (0, 1), BuildingBlock: XUDNAN_clean_linker_2, # of connection points: 2
#     Edge 59, Type (0, 1), BuildingBlock: XUDNAN_clean_linker_2, # of connection points: 2
#     Edge 60, Type (0, 1), BuildingBlock: XUDNAN_clean_linker_2, # of connection points: 2
#     Edge 61, Type (0, 1), BuildingBlock: XUDNAN_clean_linker_2, # of connection points: 2
# Relax obj value: 0.090
# Max RMSD: 0.257
# Mean RMSD: 0.149
data_MOF--net-ocu--node1-BETDEL_clean_sbu_0--node2-TAGTUT_clean_sbu_1--edge1-XUDNAN_clean_linker_2
_symmetry_space_group_name_H-M    P1
_symmetry_Int_Tables_number       1
_symmetry_cell_setting            triclinic
loop_
_symmetry_equiv_pos_as_xyz
'x, y, z'
_cell_length_a     38.095754
_cell_length_b     36.964115
_cell_length_c     38.464711
_cell_angle_alpha  91.742524
_cell_angle_beta   93.582392
_cell_angle_gamma 107.17499
loop_
_atom_site_label
_atom_site_type_symbol
_atom_site_fract_x
_atom_site_fract_y
_atom_site_fract_z
_atom_type_partial_charge
Dy0 Dy 0.28857 0.25088 0.26988 0.0
C1 C 0.18532 0.28807 0.18378 0.0
C2 C 0.33108 0.21614 0.30728 0.0
Dy3 Dy 0.23228 0.25878 0.2215 0.0
O4 O 0.34225 0.2507 0.29749 0.0
O5 O 0.29625 0.2015 0.2984 0.0
O6 O 0.32368 0.30995 0.26386 0.0
O7 O 0.29235 0.27908 0.21993 0.0
C8 C 0.31501 0.31064 0.2307 0.0
C9 C 0.20676 0.19905 0.26098 0.0
O10 O 0.25667 0.22741 0.18305 0.0
O11 O 0.29262 0.21032 0.22592 0.0
O12 O 0.17866 0.25271 0.19079 0.0
O13 O 0.21848 0.30705 0.19569 0.0
O14 O 0.19811 0.19929 0.22785 0.0
O15 O 0.2287 0.231 0.27145 0.0
O16 O 0.26596 0.28426 0.30802 0.0
O17 O 0.22796 0.29925 0.26556 0.0
C18 C 0.27954 0.20806 0.19296 0.0
C19 C 0.24218 0.30265 0.29827 0.0
Dy20 Dy 0.78913 0.23274 0.26333 0.0
C21 C 0.67896 0.30062 0.21233 0.0
C22 C 0.84011 0.20224 0.29258 0.0
Dy23 Dy 0.72848 0.26898 0.24288 0.0
O24 O 0.81705 0.1872 0.26617 0.0
O25 O 0.83494 0.23367 0.30354 0.0
O26 O 0.79759 0.223 0.20727 0.0
O27 O 0.74508 0.22169 0.22182 0.0
C28 C 0.76407 0.2207 0.19625 0.0
C29 C 0.7541 0.28134 0.30997 0.0
O30 O 0.69306 0.21382 0.25934 0.0
O31 O 0.74022 0.19454 0.2872 0.0
O32 O 0.70318 0.3164 0.23773 0.0
O33 O 0.68197 0.26762 0.20325 0.0
O34 O 0.72065 0.27951 0.29912 0.0
O35 O 0.77267 0.28015 0.28415 0.0
O36 O 0.82411 0.28831 0.24755 0.0
O37 O 0.77714 0.30447 0.21652 0.0
C38 C 0.70485 0.19054 0.27916 0.0
C39 C 0.81263 0.30975 0.22535 0.0
Dy40 Dy 0.73129 0.74076 0.28242 0.0
C41 C 0.82023 0.74097 0.16829 0.0
C42 C 0.6922 0.74787 0.33779 0.0
Dy43 Dy 0.78414 0.75866 0.22211 0.0
O44 O 0.67764 0.73418 0.30692 0.0
O45 O 0.72784 0.75737 0.33831 0.0
O46 O 0.71288 0.67889 0.26451 0.0
O47 O 0.72983 0.72182 0.22907 0.0
C48 C 0.72107 0.68673 0.23267 0.0
C49 C 0.79435 0.81392 0.27073 0.0
O50 O 0.73857 0.77946 0.19775 0.0
O51 O 0.70959 0.78137 0.24912 0.0
O52 O 0.79585 0.71697 0.18484 0.0
O53 O 0.82524 0.77532 0.18112 0.0
O54 O 0.8037 0.82059 0.23896 0.0
O55 O 0.78533 0.77889 0.27533 0.0
O56 O 0.77428 0.71523 0.30538 0.0
O57 O 0.81233 0.72661 0.25919 0.0
C58 C 0.71382 0.78961 0.21563 0.0
C59 C 0.80386 0.71227 0.29018 0.0
Dy60 Dy 0.28132 0.71832 0.25232 0.0
C61 C 0.18891 0.81719 0.24807 0.0
C62 C 0.32488 0.67308 0.24141 0.0
Dy63 Dy 0.23313 0.77236 0.2383 0.0
O64 O 0.33456 0.70412 0.2611 0.0
O65 O 0.29101 0.66623 0.22907 0.0
O66 O 0.28289 0.73011 0.31028 0.0
O67 O 0.27809 0.7712 0.27534 0.0
C68 C 0.27716 0.76296 0.30683 0.0
C69 C 0.23685 0.72645 0.18437 0.0
O70 O 0.28734 0.81051 0.22654 0.0
O71 O 0.31484 0.7626 0.21878 0.0
O72 O 0.17869 0.7844 0.23112 0.0
O73 O 0.22359 0.82593 0.25821 0.0
O74 O 0.23133 0.7593 0.18023 0.0
O75 O 0.23607 0.71932 0.21602 0.0
O76 O 0.22706 0.68058 0.26479 0.0
O77 O 0.20048 0.72914 0.27308 0.0
C78 C 0.31465 0.79829 0.21664 0.0
C79 C 0.20023 0.69333 0.27523 0.0
Dy80 Dy 0.29761 0.73744 0.75973 0.0
C81 C 0.18014 0.79028 0.70096 0.0
C82 C 0.35106 0.71474 0.79443 0.0
Dy83 Dy 0.23312 0.76773 0.73668 0.0
O84 O 0.32339 0.69245 0.77527 0.0
O85 O 0.34914 0.74923 0.79523 0.0
O86 O 0.3055 0.72238 0.70418 0.0
O87 O 0.25341 0.72218 0.71862 0.0
C88 C 0.27202 0.72032 0.69316 0.0
C89 C 0.25877 0.78533 0.80318 0.0
O90 O 0.20424 0.70798 0.7471 0.0
O91 O 0.24957 0.70195 0.78724 0.0
O92 O 0.17497 0.77031 0.72832 0.0
O93 O 0.21411 0.79796 0.69314 0.0
O94 O 0.22551 0.78365 0.79194 0.0
O95 O 0.27742 0.78361 0.77773 0.0
O96 O 0.33018 0.79173 0.7388 0.0
O97 O 0.28065 0.80972 0.71433 0.0
C98 C 0.21481 0.69125 0.77396 0.0
C99 C 0.31648 0.81452 0.72009 0.0
Dy100 Dy 0.23403 0.24046 0.77454 0.0
C101 C 0.32965 0.24356 0.66642 0.0
C102 C 0.19432 0.25497 0.82658 0.0
Dy103 Dy 0.2918 0.26076 0.71869 0.0
O104 O 0.19021 0.22124 0.8127 0.0
O105 O 0.21951 0.28003 0.81185 0.0
O106 O 0.20929 0.18156 0.74922 0.0
O107 O 0.23503 0.22753 0.71984 0.0
C108 C 0.22168 0.19214 0.71916 0.0
C109 C 0.30408 0.30943 0.77371 0.0
O110 O 0.24899 0.28523 0.69309 0.0
O111 O 0.21452 0.28253 0.74139 0.0
O112 O 0.33175 0.27811 0.67683 0.0
O113 O 0.30776 0.21928 0.68491 0.0
O114 O 0.31662 0.31982 0.74359 0.0
O115 O 0.29075 0.27401 0.77319 0.0
O116 O 0.27593 0.21449 0.80002 0.0
O117 O 0.31399 0.22229 0.75392 0.0
C118 C 0.22265 0.29424 0.70948 0.0
C119 C 0.30458 0.20862 0.78497 0.0
Dy120 Dy 0.7714 0.22038 0.73948 0.0
C121 C 0.68933 0.32939 0.73909 0.0
C122 C 0.80177 0.16422 0.72665 0.0
Dy123 Dy 0.72514 0.27714 0.72801 0.0
O124 O 0.80061 0.17859 0.75778 0.0
O125 O 0.78649 0.1805 0.70338 0.0
O126 O 0.81079 0.261 0.77888 0.0
O127 O 0.75618 0.26218 0.77145 0.0
C128 C 0.7875 0.27934 0.78574 0.0
C129 C 0.72627 0.23164 0.6728 0.0
O130 O 0.78213 0.31239 0.7198 0.0
O131 O 0.80489 0.26279 0.70516 0.0
O132 O 0.67323 0.29408 0.7292 0.0
O133 O 0.7248 0.33601 0.7419 0.0
O134 O 0.72115 0.26473 0.66958 0.0
O135 O 0.72626 0.22413 0.70432 0.0
O136 O 0.71938 0.18751 0.76144 0.0
O137 O 0.68851 0.23377 0.75977 0.0
C138 C 0.8076 0.29925 0.707 0.0
C139 C 0.69086 0.19983 0.768 0.0
Dy140 Dy 0.78861 0.74494 0.77833 0.0
C141 C 0.71197 0.81555 0.67825 0.0
C142 C 0.82121 0.70679 0.82218 0.0
Dy143 Dy 0.73668 0.7682 0.71863 0.0
O144 O 0.82725 0.74335 0.82374 0.0
O145 O 0.79501 0.69083 0.79826 0.0
O146 O 0.84219 0.78692 0.76562 0.0
O147 O 0.79374 0.78529 0.73824 0.0
C148 C 0.82809 0.80054 0.73939 0.0
C149 C 0.69726 0.71152 0.75631 0.0
O150 O 0.76411 0.73414 0.68581 0.0
O151 O 0.79365 0.70963 0.73073 0.0
O152 O 0.70066 0.77867 0.67412 0.0
O153 O 0.73813 0.82625 0.70308 0.0
O154 O 0.68315 0.7251 0.72988 0.0
O155 O 0.73152 0.7277 0.75864 0.0
O156 O 0.75991 0.77717 0.81148 0.0
O157 O 0.72862 0.80047 0.76718 0.0
C158 C 0.78442 0.71229 0.69708 0.0
C159 C 0.73831 0.79783 0.8007 0.0
C160 C 0.95073 0.0906 0.56471 0.0
C161 C 0.97587 0.09478 0.45356 0.0
C162 C 0.93346 0.94542 0.45724 0.0
Mg163 Mg 0.01747 0.08987 0.52314 0.0
O164 O 0.9919 0.03782 0.52223 0.0
Mg165 Mg 0.93916 0.02088 0.50263 0.0
Mg166 Mg 0.0096 1.00047 0.496 0.0
O167 O 0.02674 0.96284 0.46991 0.0
Mg168 Mg 0.99998 0.91149 0.47335 0.0
Mg169 Mg 0.07977 0.97921 0.48826 0.0
C170 C 0.08534 0.0557 0.53515 0.0
C171 C 0.06765 0.04544 0.43994 0.0
O172 O 0.93048 0.06336 0.54411 0.0
O173 O 0.98545 0.10494 0.56218 0.0
O174 O 0.95113 0.0652 0.46154 0.0
O175 O 1.00516 0.10991 0.47312 0.0
O176 O 0.07235 0.08412 0.53555 0.0
O177 O 0.06544 0.02176 0.5263 0.0
C178 C 0.95116 0.95531 0.55181 0.0
O179 O 0.9824 0.9592 0.53882 0.0
O180 O 0.93043 0.97536 0.54216 0.0
O181 O 0.08588 0.93511 0.44598 0.0
O182 O 0.02992 0.89207 0.43543 0.0
O183 O 0.06933 0.93449 0.52884 0.0
C184 C 0.06377 0.90579 0.42894 0.0
O185 O 0.01299 0.89346 0.52398 0.0
O186 O 0.94529 0.9163 0.45908 0.0
C187 C 0.04484 0.90652 0.53991 0.0
O188 O 0.95426 0.97903 0.46565 0.0
O189 O 0.03648 0.04178 0.45296 0.0
O190 O 0.08814 0.02503 0.44921 0.0
C191 C 0.41471 0.07556 0.04664 0.0
C192 C 0.44013 0.07429 0.94065 0.0
C193 C 0.44718 0.92462 0.96874 0.0
Mg194 Mg 0.48877 0.085 0.01198 0.0
O195 O 0.47748 0.03253 0.01462 0.0
Mg196 Mg 0.42665 0.00141 -0.00294 0.0
Mg197 Mg 0.50936 0.99948 0.00035 0.0
O198 O 0.5407 0.96602 0.98614 0.0
Mg199 Mg 0.52872 0.91337 0.98959 0.0
Mg200 Mg 0.5915 0.99675 0.00381 0.0
C201 C 0.57058 0.07429 0.03452 0.0
C202 C 0.56091 0.04069 0.9412 0.0
O203 O 0.40236 0.0432 0.02952 0.0
O204 O 0.4486 0.09564 0.04655 0.0
O205 O 0.42313 0.04041 0.94902 0.0
O206 O 0.46832 0.0951 0.95942 0.0
O207 O 0.54785 0.0939 0.02884 0.0
O208 O 0.56086 0.03777 0.0302 0.0
C209 C 0.45833 0.95833 0.05963 0.0
O210 O 0.49025 0.96638 0.04789 0.0
O211 O 0.43155 0.96806 0.04507 0.0
O212 O 0.61483 0.95461 0.97099 0.0
O213 O 0.5682 0.90231 0.95428 0.0
O214 O 0.59483 0.95775 0.05192 0.0
C215 C 0.6021 0.92233 0.95378 0.0
O216 O 0.54954 0.90313 0.042 0.0
O217 O 0.46905 0.90417 0.97478 0.0
C218 C 0.57781 0.924 0.06058 0.0
O219 O 0.45795 0.96118 0.97083 0.0
O220 O 0.5289 0.03297 0.95286 0.0
O221 O 0.58717 0.03039 0.95615 0.0
C222 C 0.94747 0.60871 0.02067 0.0
C223 C 0.97074 0.57039 0.92101 0.0
C224 C 0.93219 0.4326 0.96665 0.0
Mg225 Mg 0.01415 0.58894 0.99129 0.0
O226 O 0.98911 0.54187 0.00769 0.0
Mg227 Mg 0.93636 0.51928 0.98905 0.0
Mg228 Mg 1.00783 0.49861 0.9954 0.0
O229 O 0.02613 0.45513 0.98325 0.0
Mg230 Mg 0.99984 0.40814 -0.00071 0.0
Mg231 Mg 0.07848 0.47695 0.00277 0.0
C232 C 0.08326 0.56465 0.02154 0.0
C233 C 0.06536 0.52282 0.93507 0.0
O234 O 0.9274 0.57433 0.01312 0.0
O235 O 0.98172 0.62048 0.01494 0.0
O236 O 0.94557 0.54774 0.93701 0.0
O237 O 1.00234 0.58705 0.9362 0.0
O238 O 0.0694 0.59044 0.01075 0.0
O239 O 0.06366 0.52985 0.02283 0.0
C240 C 0.9516 0.47462 0.05687 0.0
O241 O 0.98239 0.47394 0.04547 0.0
O242 O 0.93014 0.49025 0.04037 0.0
O243 O 0.08688 0.42121 0.97937 0.0
O244 O 0.03186 0.37607 0.97644 0.0
O245 O 0.06776 0.44805 0.05469 0.0
C246 C 0.06632 0.38705 0.97158 0.0
O247 O 0.01081 0.4087 0.0544 0.0
O248 O 0.94526 0.40633 0.97762 0.0
C249 C 0.04227 0.42499 0.07007 0.0
O250 O 0.95198 0.46747 0.96779 0.0
O251 O 0.03416 0.52359 0.94554 0.0
O252 O 0.08597 0.50636 0.95181 0.0
C253 C 0.4585 0.59702 0.06074 0.0
C254 C 0.48561 0.5985 0.95114 0.0
C255 C 0.44716 0.44808 0.95603 0.0
Mg256 Mg 0.5257 0.59361 0.02091 0.0
O257 O 0.49955 0.542 0.02237 0.0
Mg258 Mg 0.44767 0.52464 0.0009 0.0
Mg259 Mg 0.51946 0.50562 -0.00213 0.0
O260 O 0.54023 0.46958 0.97322 0.0
Mg261 Mg 0.51702 0.41695 0.97119 0.0
Mg262 Mg 0.59223 0.48912 0.99467 0.0
C263 C 0.59308 0.56254 0.03976 0.0
C264 C 0.57879 0.55302 0.94389 0.0
O265 O 0.43775 0.56802 0.04222 0.0
O266 O 0.49283 0.61134 0.05651 0.0
O267 O 0.45996 0.56981 0.95964 0.0
O268 O 0.51556 0.61182 0.97017 0.0
O269 O 0.58044 0.59107 0.03783 0.0
O270 O 0.57332 0.52884 0.03038 0.0
C271 C 0.45912 0.45951 0.05149 0.0
O272 O 0.49127 0.46394 0.04025 0.0
O273 O 0.43835 0.47898 0.04039 0.0
O274 O 0.60497 0.44891 0.95414 0.0
O275 O 0.55253 0.40466 0.93381 0.0
O276 O 0.5804 0.44435 0.03555 0.0
C277 C 0.5871 0.42142 0.93267 0.0
O278 O 0.52832 0.3975 0.02184 0.0
O279 O 0.46155 0.42062 0.95654 0.0
C280 C 0.55637 0.41378 0.04261 0.0
O281 O 0.46553 0.48244 0.96521 0.0
O282 O 0.54682 0.54732 0.95575 0.0
O283 O 0.60074 0.53478 0.95484 0.0
C284 C 0.91801 0.57945 0.54915 0.0
C285 C 0.94206 0.57787 0.44254 0.0
C286 C 0.95137 0.4281 0.46757 0.0
Mg287 Mg 0.99131 0.58909 0.51329 0.0
O288 O 0.98045 0.53661 0.51604 0.0
Mg289 Mg 0.92964 0.50513 0.49929 0.0
Mg290 Mg 0.01233 0.50399 0.50104 0.0
O291 O 0.04435 0.47143 0.48614 0.0
Mg292 Mg 0.03476 0.4188 0.48608 0.0
Mg293 Mg 0.09506 0.50339 0.50196 0.0
C294 C 0.07374 0.58006 0.53384 0.0
C295 C 0.06055 0.54444 0.4398 0.0
O296 O 0.9056 0.54694 0.53226 0.0
O297 O 0.95174 0.59975 0.54845 0.0
O298 O 0.92522 0.54402 0.45118 0.0
O299 O 0.97038 0.59883 0.46099 0.0
O300 O 0.05064 0.59936 0.52906 0.0
O301 O 0.06433 0.5436 0.52921 0.0
C302 C 0.96306 0.46278 0.56137 0.0
O303 O 0.99488 0.47129 0.54932 0.0
O304 O 0.93583 0.47196 0.54705 0.0
O305 O 0.11957 0.46227 0.46838 0.0
O306 O 0.07347 0.41083 0.44882 0.0
O307 O 0.09951 0.46521 0.5503 0.0
C308 C 0.10739 0.43092 0.4496 0.0
O309 O 0.06002 0.4075 0.53632 0.0
O310 O 0.97474 0.40891 0.4717 0.0
C311 C 0.08592 0.4299 0.5566 0.0
O312 O 0.96066 0.46454 0.47261 0.0
O313 O 0.02914 0.53622 0.45256 0.0
O314 O 0.0881 0.53562 0.45382 0.0
C315 C 0.43977 0.1066 0.50739 0.0
C316 C 0.45541 0.05646 0.41041 0.0
C317 C 0.42668 0.92585 0.47262 0.0
Mg318 Mg 0.5045 0.08448 0.47694 0.0
O319 O 0.48235 0.04013 0.49943 0.0
Mg320 Mg 0.42899 0.01447 0.48522 0.0
Mg321 Mg 0.50173 0.9966 0.49049 0.0
O322 O 0.52132 0.95317 0.48129 0.0
Mg323 Mg 0.49957 0.90682 0.50101 0.0
Mg324 Mg 0.57448 0.97936 0.49555 0.0
C325 C 0.57693 0.06718 0.50711 0.0
C326 C 0.55212 0.01394 0.42423 0.0
O327 O 0.42017 0.07155 0.50395 0.0
O328 O 0.47318 0.11798 0.49899 0.0
O329 O 0.43219 0.0356 0.42955 0.0
O330 O 0.48779 0.07498 0.42267 0.0
O331 O 0.56155 0.09094 0.49428 0.0
O332 O 0.55848 0.03264 0.51161 0.0
C333 C 0.45182 0.98055 0.55714 0.0
O334 O 0.48123 0.97735 0.54439 0.0
O335 O 0.42902 0.99401 0.53999 0.0
O336 O 0.585 0.92297 0.47804 0.0
O337 O 0.53158 0.87541 0.47636 0.0
O338 O 0.57016 0.95832 0.55054 0.0
C339 C 0.56601 0.88808 0.47173 0.0
O340 O 0.5176 0.91261 0.55556 0.0
O341 O 0.44239 0.90175 0.48424 0.0
C342 C 0.54837 0.93458 0.5687 0.0
O343 O 0.44488 0.96072 0.4691 0.0
O344 O 0.5225 0.0163 0.43707 0.0
O345 O 0.57509 1.00025 0.44084 0.0
H346 H 0.22063 0.17601 0.32661 0.0
H347 H 0.13252 0.16954 0.24743 0.0
H348 H 0.08686 0.13438 0.28656 0.0
H349 H 0.18154 0.08071 0.35412 0.0
H350 H 0.19711 0.09281 0.39937 0.0
H351 H 0.22255 0.1195 0.36587 0.0
H352 H 0.21665 0.18141 0.39487 0.0
H353 H 0.19074 0.1548 0.42821 0.0
H354 H 0.17161 0.18525 0.40235 0.0
H355 H 0.0501 0.10119 0.33531 0.0
H356 H 0.02664 0.06368 0.38588 0.0
H357 H 0.13851 0.08711 0.43138 0.0
C358 C 0.19172 0.16708 0.31759 0.0
C359 C 0.18014 0.17556 0.284 0.0
C360 C 0.14209 0.16316 0.27296 0.0
C361 C 0.11586 0.14343 0.29514 0.0
C362 C 0.12804 0.13568 0.32819 0.0
C363 C 0.16514 0.14641 0.33913 0.0
C364 C 0.17105 0.13216 0.37495 0.0
C365 C 0.19444 0.10466 0.37347 0.0
C366 C 0.18855 0.16539 0.40167 0.0
C367 C 0.13157 0.11176 0.38234 0.0
C368 C 0.10707 0.1148 0.35539 0.0
C369 C 0.06907 0.09851 0.35652 0.0
C370 C 0.05588 0.07757 0.38545 0.0
C371 C 0.08065 0.07258 0.41251 0.0
C372 C 0.1189 0.09044 0.41102 0.0
H373 H 0.88601 0.22749 0.35134 0.0
H374 H 0.85574 0.13936 0.26845 0.0
H375 H 0.8989 0.10864 0.29612 0.0
H376 H 0.98552 0.22912 0.36674 0.0
H377 H 0.98465 0.23645 0.41318 0.0
H378 H 0.95676 0.25547 0.38364 0.0
H379 H 0.89852 0.22035 0.41407 0.0
H380 H 0.92606 0.20152 0.44378 0.0
H381 H 0.88732 0.16983 0.41812 0.0
H382 H 0.93461 0.08144 0.33727 0.0
H383 H 0.96054 0.05913 0.38986 0.0
H384 H 0.97172 0.16608 0.44528 0.0
C385 C 0.88935 0.20237 0.33857 0.0
C386 C 0.86788 0.18581 0.30776 0.0
C387 C 0.87214 0.15245 0.29206 0.0
C388 C 0.89679 0.13502 0.30742 0.0
C389 C 0.9172 0.15163 0.33818 0.0
C390 C 0.91396 0.1847 0.35354 0.0
C391 C 0.93563 0.19415 0.38868 0.0
C392 C 0.96755 0.23098 0.388 0.0
C393 C 0.91037 0.19656 0.41787 0.0
C394 C 0.94974 0.16003 0.39161 0.0
C395 C 0.93932 0.13624 0.36184 0.0
C396 C 0.94418 0.10035 0.36019 0.0
C397 C 0.95893 0.08792 0.39008 0.0
C398 C 0.96913 0.11155 0.42085 0.0
C399 C 0.96562 0.14841 0.42137 0.0
H400 H 0.79444 0.80219 0.33947 0.0
H401 H 0.81041 0.89076 0.26588 0.0
H402 H 0.83058 0.93915 0.31466 0.0
H403 H 0.7707 0.85889 0.41706 0.0
H404 H 0.7963 0.83787 0.44714 0.0
H405 H 0.77127 0.81082 0.4089 0.0
H406 H 0.82974 0.79696 0.38979 0.0
H407 H 0.85505 0.82285 0.42789 0.0
H408 H 0.8706 0.83602 0.38543 0.0
H409 H 0.86383 0.97566 0.36749 0.0
H410 H 0.91236 0.99486 0.41554 0.0
H411 H 0.87462 0.88304 0.45587 0.0
C412 C 0.80021 0.83177 0.33386 0.0
C413 C 0.80047 0.84292 0.29923 0.0
C414 C 0.80988 0.88181 0.29245 0.0
C415 C 0.8209 0.90941 0.32003 0.0
C416 C 0.8219 0.89751 0.35411 0.0
C417 C 0.81143 0.85941 0.36106 0.0
C418 C 0.82227 0.85335 0.3984 0.0
C419 C 0.78808 0.83947 0.41912 0.0
C420 C 0.84584 0.82576 0.40043 0.0
C421 C 0.84421 0.89341 0.41025 0.0
C422 C 0.84205 0.91887 0.38508 0.0
C423 C 0.86486 0.95629 0.3878 0.0
C424 C 0.89235 0.96705 0.41531 0.0
C425 C 0.89711 0.9401 0.43903 0.0
C426 C 0.87106 0.90401 0.43803 0.0
H427 H 0.20658 0.87562 0.2968 0.0
H428 H 0.11404 0.79571 0.23733 0.0
H429 H 0.07133 0.81295 0.27582 0.0
H430 H 0.17627 0.8535 0.37669 0.0
H431 H 0.19201 0.90067 0.39696 0.0
H432 H 0.21511 0.88846 0.36105 0.0
H433 H 0.20424 0.94368 0.32641 0.0
H434 H 0.18202 0.95691 0.36264 0.0
H435 H 0.15827 0.94763 0.31979 0.0
H436 H 0.0404 0.83031 0.32586 0.0
H437 H 0.02134 0.85322 0.38005 0.0
H438 H 0.13426 0.92201 0.4076 0.0
C439 C 0.17722 0.86298 0.29097 0.0
C440 C 0.16342 0.83461 0.26401 0.0
C441 C 0.12498 0.81785 0.25765 0.0
C442 C 0.1006 0.82731 0.27948 0.0
C443 C 0.11525 0.85374 0.3072 0.0
C444 C 0.15259 0.87198 0.3126 0.0
C445 C 0.16154 0.89672 0.34602 0.0
C446 C 0.18777 0.88406 0.37168 0.0
C447 C 0.17745 0.93873 0.33824 0.0
C448 C 0.12349 0.88863 0.35911 0.0
C449 C 0.09725 0.86385 0.33627 0.0
C450 C 0.06053 0.85033 0.34362 0.0
C451 C 0.05009 0.86328 0.37472 0.0
C452 C 0.07629 0.8896 0.39813 0.0
C453 C 0.11353 0.90213 0.39021 0.0
H454 H 0.1927 0.85063 0.6609 0.0
H455 H 0.10515 0.76018 0.69901 0.0
H456 H 0.05872 0.78283 0.6652 0.0
H457 H 0.14427 0.92265 0.66323 0.0
H458 H 0.16401 0.94339 0.62445 0.0
H459 H 0.18929 0.92074 0.65313 0.0
H460 H 0.19528 0.87687 0.6012 0.0
H461 H 0.17007 0.89943 0.57253 0.0
H462 H 0.15426 0.84875 0.57603 0.0
H463 H 0.0228 0.81297 0.62227 0.0
H464 H 1.00119 0.84843 0.57603 0.0
H465 H 0.1135 0.92078 0.57124 0.0
C466 C 0.16372 0.83578 0.6623 0.0
C467 C 0.15221 0.80375 0.68221 0.0
C468 C 0.11422 0.78497 0.68378 0.0
C469 C 0.08779 0.79764 0.66478 0.0
C470 C 0.1001 0.82949 0.64519 0.0
C471 C 0.13722 0.8485 0.64428 0.0
C472 C 0.14376 0.88134 0.62081 0.0
C473 C 0.16136 0.91926 0.64167 0.0
C474 C 0.1672 0.87626 0.59087 0.0
C475 C 0.1046 0.87732 0.60776 0.0
C476 C 0.07962 0.84741 0.62198 0.0
C477 C 0.04209 0.83684 0.6114 0.0
C478 C 0.03006 0.85707 0.58515 0.0
C479 C 0.0556 0.88748 0.57014 0.0
C480 C 0.09308 0.89803 0.58236 0.0
H481 H 0.18545 0.11614 0.70985 0.0
H482 H 0.24438 0.21413 0.65565 0.0
H483 H 0.23301 0.17581 0.60087 0.0
H484 H 0.2023 0.0386 0.64625 0.0
H485 H 0.15567 0.00925 0.64959 0.0
H486 H 0.18085 0.03857 0.68671 0.0
H487 H 0.12856 0.06993 0.69117 0.0
H488 H 0.10346 0.04032 0.65474 0.0
H489 H 0.11412 0.09115 0.65338 0.0
H490 H 0.20208 0.13595 0.55143 0.0
H491 H 0.14759 0.10255 0.51263 0.0
H492 H 0.10484 0.02823 0.59456 0.0
C493 C 0.19712 0.12885 0.68657 0.0
C494 C 0.21701 0.16765 0.68721 0.0
C495 C 0.23043 0.18406 0.65611 0.0
C496 C 0.22417 0.16238 0.62474 0.0
C497 C 0.20353 0.12436 0.6245 0.0
C498 C 0.18991 0.10766 0.65463 0.0
C499 C 0.16126 0.06961 0.64605 0.0
C500 C 0.17592 0.03709 0.65785 0.0
C501 C 0.12472 0.06772 0.66224 0.0
C502 C 0.15769 0.06988 0.60654 0.0
C503 C 0.18398 0.10062 0.59462 0.0
C504 C 0.18218 0.11108 0.56014 0.0
C505 C 0.15124 0.09191 0.53814 0.0
C506 C 0.12283 0.06258 0.55073 0.0
C507 C 0.12726 0.04964 0.5843 0.0
H508 H 0.78803 0.11442 0.67186 0.0
H509 H 0.86903 0.16615 0.75682 0.0
H510 H 0.91663 0.14762 0.72586 0.0
H511 H 0.82948 0.03532 0.64598 0.0
H512 H 0.81704 0.03976 0.60067 0.0
H513 H 0.78839 0.04806 0.63373 0.0
H514 H 0.79403 0.114 0.60959 0.0
H515 H 0.82398 0.10691 0.57753 0.0
H516 H 0.83905 0.14762 0.60778 0.0
H517 H 0.95715 0.13783 0.67961 0.0
H518 H 0.98598 0.12586 0.6264 0.0
H519 H 0.87764 0.08012 0.57206 0.0
C520 C 0.81533 0.11978 0.68477 0.0
C521 C 0.82508 0.14115 0.71669 0.0
C522 C 0.86109 0.14895 0.73267 0.0
C523 C 0.8883 0.1389 0.71508 0.0
C524 C 0.87848 0.12046 0.68212 0.0
C525 C 0.84251 0.10976 0.66767 0.0
C526 C 0.83962 0.09398 0.63052 0.0
C527 C 0.81732 0.05177 0.62757 0.0
C528 C 0.82322 0.11702 0.60488 0.0
C529 C 0.8798 0.09943 0.6256 0.0
C530 C 0.90181 0.11452 0.65562 0.0
C531 C 0.94012 0.12502 0.65626 0.0
C532 C 0.95624 0.11867 0.62576 0.0
C533 C 0.93401 0.10195 0.59514 0.0
C534 C 0.89535 0.09258 0.59516 0.0
H535 H 0.80775 0.83828 0.68296 0.0
H536 H 0.90041 0.81047 0.7345 0.0
H537 H 0.94061 0.84339 0.69064 0.0
H538 H 0.83335 0.83038 0.59383 0.0
H539 H 0.81968 0.8706 0.57968 0.0
H540 H 0.79695 0.84307 0.61415 0.0
H541 H 0.81282 0.90362 0.65483 0.0
H542 H 0.83546 0.93141 0.62051 0.0
H543 H 0.86011 0.93257 0.66227 0.0
H544 H 0.97175 0.87944 0.64161 0.0
H545 H 0.99229 0.92099 0.593 0.0
H546 H 0.88116 0.9284 0.5737 0.0
C547 C 0.83643 0.83914 0.68489 0.0
C548 C 0.8508 0.8217 0.71227 0.0
C549 C 0.88864 0.82366 0.71393 0.0
C550 C 0.91182 0.84218 0.68899 0.0
C551 C 0.89707 0.85917 0.66243 0.0
C552 C 0.86039 0.85825 0.66029 0.0
C553 C 0.85233 0.88056 0.62985 0.0
C554 C 0.82389 0.85459 0.60277 0.0
C555 C 0.83943 0.91403 0.64264 0.0
C556 C 0.89018 0.89419 0.61563 0.0
C557 C 0.91545 0.88107 0.63456 0.0
C558 C 0.95221 0.88994 0.62654 0.0
C559 C 0.96364 0.9134 0.59874 0.0
C560 C 0.93851 0.92801 0.57941 0.0
C561 C 0.9012 0.91784 0.58796 0.0
H562 H 0.34813 0.19733 0.19291 0.0
H563 H 0.2423 0.16841 0.13344 0.0
H564 H 0.26462 0.13003 0.09093 0.0
H565 H 0.40207 0.20848 0.11734 0.0
H566 H 0.43668 0.18997 0.13756 0.0
H567 H 0.41176 0.21347 0.16401 0.0
H568 H 0.39172 0.1543 0.20073 0.0
H569 H 0.41646 0.13053 0.17433 0.0
H570 H 0.36814 0.10879 0.17923 0.0
H571 H 0.29809 0.09192 0.05624 0.0
H572 H 0.34156 0.06406 0.02837 0.0
H573 H 0.428 0.12274 0.10685 0.0
C574 C 0.32957 0.18274 0.17102 0.0
C575 C 0.29315 0.18552 0.1668 0.0
C576 C 0.27014 0.16665 0.13736 0.0
C577 C 0.28261 0.14466 0.11313 0.0
C578 C 0.31857 0.14238 0.11813 0.0
C579 C 0.34195 0.16151 0.14604 0.0
C580 C 0.37996 0.15612 0.1444 0.0
C581 C 0.40935 0.19428 0.1406 0.0
C582 C 0.38963 0.13625 0.17659 0.0
C583 C 0.37429 0.13059 0.11143 0.0
C584 C 0.33848 0.12254 0.09698 0.0
C585 C 0.32624 0.09841 0.06722 0.0
C586 C 0.35116 0.0825 0.05162 0.0
C587 C 0.38836 0.09118 0.06517 0.0
C588 C 0.3999 0.11569 0.09558 0.0
H589 H 0.80041 0.35668 0.17535 0.0
H590 H 0.88789 0.32796 0.23555 0.0
H591 H 0.93403 0.37181 0.20224 0.0
H592 H 0.83779 0.35854 0.09542 0.0
H593 H 0.82328 0.39777 0.07992 0.0
H594 H 0.79754 0.36776 0.11126 0.0
H595 H 0.80553 0.42635 0.15322 0.0
H596 H 0.83122 0.45665 0.12188 0.0
H597 H 0.85113 0.45738 0.16575 0.0
H598 H 0.97022 0.41415 0.15843 0.0
H599 H 0.99308 0.45234 0.1083 0.0
H600 H 0.88156 0.45218 0.07722 0.0
C601 C 0.82928 0.36012 0.18209 0.0
C602 C 0.84047 0.3389 0.2081 0.0
C603 C 0.87858 0.34398 0.21577 0.0
C604 C 0.90505 0.36889 0.19705 0.0
C605 C 0.89297 0.3887 0.171 0.0
C606 C 0.85599 0.38481 0.16373 0.0
C607 C 0.84995 0.40733 0.13299 0.0
C608 C 0.82573 0.38129 0.10315 0.0
C609 C 0.83349 0.4388 0.14414 0.0
C610 C 0.8892 0.42364 0.12348 0.0
C611 C 0.91372 0.41292 0.14583 0.0
C612 C 0.95129 0.42301 0.14096 0.0
C613 C 0.96399 0.44436 0.11225 0.0
C614 C 0.93911 0.45494 0.08872 0.0
C615 C 0.90138 0.44489 0.0949 0.0
H616 H 0.7248 0.8326 0.15625 0.0
H617 H 0.64599 0.79261 0.23355 0.0
H618 H 0.60382 0.82341 0.20389 0.0
H619 H 0.70878 0.92499 0.14903 0.0
H620 H 0.71429 0.92669 0.10285 0.0
H621 H 0.73812 0.9009 0.12963 0.0
H622 H 0.70884 0.84039 0.08984 0.0
H623 H 0.68501 0.86603 0.06291 0.0
H624 H 0.65944 0.82309 0.08191 0.0
H625 H 0.56744 0.85544 0.1626 0.0
H626 H 0.5434 0.88993 0.11702 0.0
H627 H 0.64742 0.91512 0.06945 0.0
C628 C 0.69868 0.83031 0.16699 0.0
C629 C 0.68895 0.8097 0.19746 0.0
C630 C 0.65447 0.80803 0.21051 0.0
C631 C 0.63014 0.82548 0.19367 0.0
C632 C 0.64051 0.84544 0.16382 0.0
C633 C 0.67425 0.84839 0.15085 0.0
C634 C 0.67907 0.87241 0.11885 0.0
C635 C 0.71202 0.90838 0.12549 0.0
C636 C 0.68334 0.84909 0.08646 0.0
C637 C 0.64276 0.88219 0.11562 0.0
C638 C 0.62068 0.86592 0.1416 0.0
C639 C 0.58493 0.86887 0.14264 0.0
C640 C 0.57143 0.88868 0.11665 0.0
C641 C 0.59373 0.90643 0.09018 0.0
C642 C 0.63003 0.90311 0.08998 0.0
H643 H 0.22604 0.73229 0.11414 0.0
H644 H 0.23224 0.65264 0.19267 0.0
H645 H 0.21226 0.60018 0.14874 0.0
H646 H 0.14569 0.68624 0.08083 0.0
H647 H 0.15135 0.69503 0.03535 0.0
H648 H 0.18082 0.72716 0.06799 0.0
H649 H 0.23807 0.71779 0.04044 0.0
H650 H 0.20842 0.68518 0.00753 0.0
H651 H 0.24212 0.67072 0.03403 0.0
H652 H 0.17364 0.5562 0.10417 0.0
H653 H 0.11821 0.52653 0.06512 0.0
H654 H 0.13437 0.63194 0.01304 0.0
C655 C 0.2249 0.70394 0.12147 0.0
C656 C 0.23177 0.69667 0.15654 0.0
C657 C 0.22872 0.65916 0.16574 0.0
C658 C 0.2172 0.62899 0.14081 0.0
C659 C 0.20848 0.63659 0.10668 0.0
C660 C 0.21259 0.67332 0.09679 0.0
C661 C 0.19373 0.67327 0.06096 0.0
C662 C 0.16626 0.69674 0.06138 0.0
C663 C 0.2223 0.68758 0.03415 0.0
C664 C 0.17443 0.63123 0.05451 0.0
C665 C 0.18484 0.61032 0.08024 0.0
C666 C 0.16609 0.57198 0.08321 0.0
C667 C 0.1345 0.55527 0.06092 0.0
C668 C 0.12184 0.57715 0.03641 0.0
C669 C 0.14357 0.61461 0.03161 0.0
H670 H 0.2967 0.85899 0.81569 0.0
H671 H 0.25979 0.75188 0.8648 0.0
H672 H 0.29589 0.78141 0.9197 0.0
H673 H 0.38481 0.88335 0.84721 0.0
H674 H 0.3918 0.93354 0.85393 0.0
H675 H 0.35702 0.90641 0.82188 0.0
H676 H 0.30772 0.92935 0.85181 0.0
H677 H 0.34255 0.95663 0.88417 0.0
H678 H 0.30193 0.92228 0.89751 0.0
H679 H 0.34532 0.818 0.96315 0.0
H680 H 0.40377 0.85896 0.99232 0.0
H681 H 0.40614 0.94405 0.9168 0.0
C682 C 0.29535 0.84235 0.83855 0.0
C683 C 0.27556 0.80359 0.83674 0.0
C684 C 0.27468 0.78187 0.86634 0.0
C685 C 0.29487 0.79845 0.8975 0.0
C686 C 0.31501 0.83679 0.89843 0.0
C687 C 0.31495 0.85863 0.86984 0.0
C688 C 0.3423 0.89771 0.87599 0.0
C689 C 0.37065 0.90567 0.84813 0.0
C690 C 0.32243 0.9283 0.87747 0.0
C691 C 0.35969 0.89358 0.91149 0.0
C692 C 0.34306 0.8585 0.92432 0.0
C693 C 0.3578 0.84598 0.95404 0.0
C694 C 0.391 0.8693 0.97035 0.0
C695 C 0.40881 0.90469 0.95693 0.0
C696 C 0.39221 0.91761 0.9281 0.0
H697 H 0.20798 0.3234 0.86021 0.0
H698 H 0.13221 0.20942 0.85333 0.0
H699 H 0.09342 0.22973 0.89475 0.0
H700 H 0.19927 0.34507 0.95309 0.0
H701 H 0.20229 0.39372 0.94536 0.0
H702 H 0.22577 0.36874 0.9187 0.0
H703 H 0.19208 0.3845 0.86322 0.0
H704 H 0.1683 0.40922 0.88961 0.0
H705 H 0.14243 0.37102 0.85941 0.0
H706 H 0.06003 0.2646 0.93145 0.0
H707 H 0.03507 0.31022 0.96178 0.0
H708 H 0.13372 0.40124 0.94451 0.0
C709 C 0.18356 0.30251 0.86791 0.0
C710 C 0.17289 0.26488 0.85376 0.0
C711 C 0.14077 0.23834 0.86417 0.0
C712 C 0.1187 0.24964 0.88762 0.0
C713 C 0.12959 0.28735 0.90049 0.0
C714 C 0.16148 0.31325 0.89122 0.0
C715 C 0.16602 0.35258 0.90675 0.0
C716 C 0.20037 0.36579 0.93251 0.0
C717 C 0.16726 0.38098 0.87803 0.0
C718 C 0.13104 0.34514 0.9254 0.0
C719 C 0.11055 0.30731 0.92176 0.0
C720 C 0.07608 0.29415 0.93489 0.0
C721 C 0.06209 0.32037 0.95194 0.0
C722 C 0.08249 0.35935 0.95561 0.0
C723 C 0.11764 0.37162 0.94254 0.0
H724 H 0.68873 0.13211 0.79532 0.0
H725 H 0.62634 0.21285 0.78456 0.0
H726 H 0.5802 0.17483 0.82175 0.0
H727 H 0.60868 0.04546 0.80002 0.0
H728 H 0.63381 0.02632 0.83214 0.0
H729 H 0.65797 0.05601 0.79959 0.0
H730 H 0.70044 0.1007 0.84844 0.0
H731 H 0.6764 0.07138 0.88101 0.0
H732 H 0.68008 0.12115 0.882 0.0
H733 H 0.54532 0.13244 0.8661 0.0
H734 H 0.52656 0.0908 0.91523 0.0
H735 H 0.61301 0.03968 0.89682 0.0
C736 C 0.66493 0.14139 0.79997 0.0
C737 C 0.66113 0.17537 0.78698 0.0
C738 C 0.62981 0.18679 0.7942 0.0
C739 C 0.60332 0.16529 0.81512 0.0
C740 C 0.60848 0.13241 0.82832 0.0
C741 C 0.63847 0.12047 0.82085 0.0
C742 C 0.64018 0.08674 0.84124 0.0
C743 C 0.63482 0.05155 0.81678 0.0
C744 C 0.6764 0.09555 0.86455 0.0
C745 C 0.60745 0.08261 0.86256 0.0
C746 C 0.5889 0.10854 0.85427 0.0
C747 C 0.55923 0.11158 0.87242 0.0
C748 C 0.54877 0.08792 0.9002 0.0
C749 C 0.56847 0.06229 0.9097 0.0
C750 C 0.59753 0.05912 0.8901 0.0
H751 H 0.81224 0.63218 0.83447 0.0
H752 H 0.89424 0.74213 0.83316 0.0
H753 H 0.94373 0.71226 0.8417 0.0
H754 H 0.85722 0.60161 0.90454 0.0
H755 H 0.84369 0.55265 0.88878 0.0
H756 H 0.81571 0.58229 0.87643 0.0
H757 H 0.82098 0.56488 0.81142 0.0
H758 H 0.85045 0.53649 0.82395 0.0
H759 H 0.86584 0.57431 0.79479 0.0
H760 H 0.98399 0.67247 0.85347 0.0
H761 H 0.01134 0.63048 0.88649 0.0
H762 H 0.90408 0.54597 0.88351 0.0
C763 C 0.84068 0.64976 0.83598 0.0
C764 C 0.8496 0.68928 0.83317 0.0
C765 C 0.88692 0.71174 0.83562 0.0
C766 C 0.91522 0.69496 0.83965 0.0
C767 C 0.90569 0.65575 0.84149 0.0
C768 C 0.86935 0.63354 0.84087 0.0
C769 C 0.86672 0.59324 0.84953 0.0
C770 C 0.84457 0.58181 0.88174 0.0
C771 C 0.85001 0.5656 0.81803 0.0
C772 C 0.9072 0.59692 0.85703 0.0
C773 C 0.92923 0.63272 0.85042 0.0
C774 C 0.96715 0.64426 0.85862 0.0
C775 C 0.98251 0.62005 0.87727 0.0
C776 C 0.95957 0.58547 0.88846 0.0
C777 C 0.92222 0.57237 0.87544 0.0
H778 H 0.19558 0.3609 0.16571 0.0
H779 H 0.11116 0.25451 0.17691 0.0
H780 H 0.06296 0.28524 0.16277 0.0
H781 H 0.14421 0.42494 0.19839 0.0
H782 H 0.16131 0.45926 0.16645 0.0
H783 H 0.18916 0.43076 0.18291 0.0
H784 H 0.19465 0.40678 0.1199 0.0
H785 H 0.16801 0.43616 0.1035 0.0
H786 H 0.15328 0.38602 0.09195 0.0
H787 H 0.02456 0.32527 0.14241 0.0
H788 H 0.9998 0.36643 0.10536 0.0
H789 H 0.10903 0.44722 0.10731 0.0
C790 C 0.1669 0.34425 0.16545 0.0
C791 C 0.1569 0.3055 0.17237 0.0
C792 C 0.11926 0.2843 0.17146 0.0
C793 C 0.09174 0.30164 0.16406 0.0
C794 C 0.10244 0.34016 0.1578 0.0
C795 C 0.13914 0.36106 0.15786 0.0
C796 C 0.1434 0.40045 0.14556 0.0
C797 C 0.16053 0.43063 0.1751 0.0
C798 C 0.16613 0.40774 0.11332 0.0
C799 C 0.10341 0.39773 0.13665 0.0
C800 C 0.08014 0.36324 0.14518 0.0
C801 C 0.04239 0.35254 0.13595 0.0
C802 C 0.02853 0.37625 0.11498 0.0
C803 C 0.05266 0.40968 0.10286 0.0
C804 C 0.08989 0.42186 0.11617 0.0
H805 H 0.22492 0.64739 0.82783 0.0
H806 H 0.14026 0.66983 0.75836 0.0
H807 H 0.09228 0.62618 0.78985 0.0
H808 H 0.17656 0.54653 0.83707 0.0
H809 H 0.19265 0.54832 0.88234 0.0
H810 H 0.22037 0.57932 0.85266 0.0
H811 H 0.22211 0.63753 0.89287 0.0
H812 H 0.1943 0.60678 0.92255 0.0
H813 H 0.17942 0.64468 0.90446 0.0
H814 H 0.05327 0.585 0.83278 0.0
H815 H 0.02695 0.54589 0.88142 0.0
H816 H 0.13717 0.54902 0.92079 0.0
C817 C 0.19633 0.64267 0.81886 0.0
C818 C 0.18643 0.66204 0.79063 0.0
C819 C 0.14863 0.65522 0.77986 0.0
C820 C 0.12108 0.63049 0.79759 0.0
C821 C 0.13176 0.61242 0.82576 0.0
C822 C 0.16848 0.61783 0.83605 0.0
C823 C 0.17263 0.59597 0.86783 0.0
C824 C 0.19167 0.56574 0.85946 0.0
C825 C 0.19333 0.62285 0.89874 0.0
C826 C 0.13256 0.57806 0.87416 0.0
C827 C 0.10932 0.58787 0.84973 0.0
C828 C 0.07117 0.57657 0.85173 0.0
C829 C 0.05647 0.55456 0.87949 0.0
C830 C 0.07994 0.54408 0.90462 0.0
C831 C 0.11839 0.55584 0.90158 0.0
H832 H 0.29002 0.15886 0.84009 0.0
H833 H 0.37602 0.21378 0.77361 0.0
H834 H 0.41831 0.18408 0.80409 0.0
H835 H 0.34869 0.16532 0.9192 0.0
H836 H 0.32425 0.11913 0.93313 0.0
H837 H 0.30033 0.14484 0.90638 0.0
H838 H 0.27954 0.08796 0.86119 0.0
H839 H 0.30354 0.06213 0.88776 0.0
H840 H 0.31365 0.06959 0.84292 0.0
H841 H 0.45361 0.15158 0.84458 0.0
H842 H 0.47705 0.1158 0.88912 0.0
H843 H 0.36821 0.07629 0.92702 0.0
C844 C 0.31773 0.16462 0.83191 0.0
C845 C 0.32935 0.18909 0.80415 0.0
C846 C 0.36597 0.19531 0.79445 0.0
C847 C 0.39044 0.17851 0.81177 0.0
C848 C 0.37822 0.15467 0.83879 0.0
C849 C 0.34258 0.14731 0.84864 0.0
C850 C 0.33652 0.11989 0.87823 0.0
C851 C 0.32687 0.1384 0.91119 0.0
C852 C 0.30652 0.08268 0.86684 0.0
C853 C 0.37431 0.11341 0.88368 0.0
C854 C 0.39802 0.13411 0.86078 0.0
C855 C 0.43499 0.13475 0.86214 0.0
C856 C 0.44815 0.11415 0.88753 0.0
C857 C 0.42448 0.09211 0.91105 0.0
C858 C 0.38686 0.09168 0.90871 0.0
H859 H 0.8002 0.27041 0.85399 0.0
H860 H 0.79158 0.35373 0.78009 0.0
H861 H 0.81399 0.40467 0.82651 0.0
H862 H 0.77798 0.32352 0.93443 0.0
H863 H 0.81032 0.3079 0.96173 0.0
H864 H 0.78425 0.27777 0.92544 0.0
H865 H 0.84495 0.27357 0.90105 0.0
H866 H 0.87092 0.30326 0.9371 0.0
H867 H 0.88019 0.31671 0.89315 0.0
H868 H 0.85211 0.44631 0.87567 0.0
H869 H 0.90192 0.47365 0.92156 0.0
H870 H 0.88131 0.36355 0.9659 0.0
C871 C 0.80169 0.2993 0.84818 0.0
C872 C 0.79413 0.30851 0.81395 0.0
C873 C 0.7969 0.34635 0.80648 0.0
C874 C 0.8094 0.37536 0.83274 0.0
C875 C 0.81799 0.36567 0.86633 0.0
C876 C 0.81347 0.32831 0.87424 0.0
C877 C 0.82938 0.32557 0.91068 0.0
C878 C 0.79864 0.30763 0.93448 0.0
C879 C 0.85806 0.30354 0.91043 0.0
C880 C 0.84695 0.36718 0.92072 0.0
C881 C 0.83916 0.39002 0.89536 0.0
C882 C 0.85742 0.42888 0.89627 0.0
C883 C 0.88571 0.44426 0.92253 0.0
C884 C 0.8956 0.42064 0.94718 0.0
C885 C 0.8742 0.38234 0.94751 0.0
H886 H 0.66903 0.80755 0.80146 0.0
H887 H 0.77475 0.8351 0.86102 0.0
H888 H 0.75192 0.87084 0.90532 0.0
H889 H 0.64783 0.89499 0.81969 0.0
H890 H 0.5996 0.87237 0.82431 0.0
H891 H 0.6246 0.85037 0.79647 0.0
H892 H 0.60516 0.78921 0.83064 0.0
H893 H 0.58002 0.81098 0.85852 0.0
H894 H 0.61496 0.79197 0.87727 0.0
H895 H 0.71843 0.90651 0.94187 0.0
H896 H 0.675 0.93281 0.97154 0.0
H897 H 0.58832 0.87714 0.89214 0.0
C898 C 0.68741 0.82134 0.82375 0.0
C899 C 0.72398 0.81892 0.8275 0.0
C900 C 0.7468 0.83663 0.85746 0.0
C901 C 0.73405 0.85711 0.88273 0.0
C902 C 0.69798 0.85905 0.87827 0.0
C903 C 0.67472 0.84106 0.84983 0.0
C904 C 0.63655 0.84586 0.85236 0.0
C905 C 0.62657 0.86717 0.82136 0.0
C906 C 0.60746 0.8072 0.85485 0.0
C907 C 0.64208 0.86975 0.88639 0.0
C908 C 0.67793 0.87747 0.90058 0.0
C909 C 0.69022 0.90027 0.93112 0.0
C910 C 0.66532 0.91527 0.94776 0.0
C911 C 0.62809 0.90701 0.93445 0.0
C912 C 0.61644 0.88375 0.90327 0.0
H913 H 0.81134 0.66945 0.14256 0.0
H914 H 0.87569 0.78654 0.13312 0.0
H915 H 0.91307 0.76562 0.09071 0.0
H916 H 0.88619 0.63196 0.14187 0.0
H917 H 0.86068 0.58849 0.11794 0.0
H918 H 0.83716 0.6131 0.14481 0.0
H919 H 0.79309 0.61389 0.092 0.0
H920 H 0.81695 0.59152 0.06343 0.0
H921 H 0.81073 0.63659 0.05312 0.0
H922 H 0.94651 0.73116 0.05351 0.0
H923 H 0.97249 0.68629 0.02303 0.0
H924 H 0.88551 0.59189 0.05691 0.0
C925 C 0.83295 0.69077 0.13116 0.0
C926 C 0.84072 0.72962 0.1409 0.0
C927 C 0.86933 0.75667 0.12576 0.0
C928 C 0.89061 0.74503 0.10171 0.0
C929 C 0.88268 0.70633 0.09315 0.0
C930 C 0.85439 0.67964 0.10731 0.0
C931 C 0.85289 0.6397 0.09561 0.0
C932 C 0.85965 0.617 0.12692 0.0
C933 C 0.81624 0.61928 0.07477 0.0
C934 C 0.88478 0.64802 0.07259 0.0
C935 C 0.9017 0.68658 0.07157 0.0
C936 C 0.93319 0.70095 0.05375 0.0
C937 C 0.94782 0.67523 0.03665 0.0
C938 C 0.93084 0.6356 0.03737 0.0
C939 C 0.89872 0.62201 0.05534 0.0
H940 H 0.35479 0.78709 0.16343 0.0
H941 H 0.34461 0.87155 0.2396 0.0
H942 H 0.39403 0.9201 0.21406 0.0
H943 H 0.45785 0.83038 0.15173 0.0
H944 H 0.45043 0.81873 0.10549 0.0
H945 H 0.42213 0.78834 0.13528 0.0
H946 H 0.36344 0.79478 0.10136 0.0
H947 H 0.39145 0.82496 0.07162 0.0
H948 H 0.35898 0.84139 0.0949 0.0
H949 H 0.43377 0.96091 0.17501 0.0
H950 H 0.45803 0.99239 0.12211 0.0
H951 H 0.4422 0.8831 0.06928 0.0
C952 C 0.36408 0.81556 0.17536 0.0
C953 C 0.34644 0.82583 0.20348 0.0
C954 C 0.35804 0.8634 0.21796 0.0
C955 C 0.38635 0.89097 0.20393 0.0
C956 C 0.40257 0.88042 0.1754 0.0
C957 C 0.39187 0.84361 0.16114 0.0
C958 C 0.40878 0.84123 0.12686 0.0
C959 C 0.43645 0.81831 0.13005 0.0
C960 C 0.37888 0.82465 0.09695 0.0
C961 C 0.42829 0.88279 0.12286 0.0
C962 C 0.42553 0.90467 0.15185 0.0
C963 C 0.43719 0.94415 0.15263 0.0
C964 C 0.45081 0.96177 0.12259 0.0
C965 C 0.45244 0.93983 0.09246 0.0
C966 C 0.44219 0.90007 0.09274 0.0
H967 H 0.70727 0.23296 0.15784 0.0
H968 H 0.78229 0.16497 0.16034 0.0
H969 H 0.74515 0.124 0.11101 0.0
H970 H 0.62804 0.16131 0.14579 0.0
H971 H 0.60405 0.18526 0.11704 0.0
H972 H 0.64062 0.2123 0.14752 0.0
H973 H 0.67399 0.24864 0.09607 0.0
H974 H 0.63716 0.22083 0.06575 0.0
H975 H 0.68411 0.22226 0.05983 0.0
H976 H 0.69234 0.08279 0.07163 0.0
H977 H 0.63199 0.04886 0.04124 0.0
H978 H 0.59398 0.14659 0.06198 0.0
C979 C 0.71634 0.21015 0.14722 0.0
C980 C 0.74728 0.20191 0.16263 0.0
C981 C 0.75872 0.17187 0.14839 0.0
C982 C 0.73778 0.14846 0.12047 0.0
C983 C 0.70623 0.15628 0.10673 0.0
C984 C 0.69611 0.18703 0.11911 0.0
C985 C 0.65939 0.18747 0.10229 0.0
C986 C 0.63139 0.1865 0.12978 0.0
C987 C 0.66394 0.22184 0.07962 0.0
C988 C 0.64928 0.1509 0.08019 0.0
C989 C 0.67666 0.13337 0.08275 0.0
C990 C 0.67119 0.09681 0.06841 0.0
C991 C 0.63672 0.07763 0.05133 0.0
C992 C 0.60834 0.09518 0.04869 0.0
C993 C 0.61529 0.13261 0.06266 0.0
H994 H 0.71938 0.67662 0.81366 0.0
H995 H 0.62351 0.69373 0.7577 0.0
H996 H 0.58377 0.65825 0.80084 0.0
H997 H 0.67329 0.58014 0.83565 0.0
H998 H 0.69738 0.58466 0.87815 0.0
H999 H 0.71901 0.61276 0.84356 0.0
H1000 H 0.72891 0.67386 0.88239 0.0
H1001 H 0.70709 0.646 0.91708 0.0
H1002 H 0.68995 0.6833 0.90086 0.0
H1003 H 0.55379 0.62192 0.85026 0.0
H1004 H 0.53512 0.58145 0.89986 0.0
H1005 H 0.64896 0.58459 0.92339 0.0
C1006 C 0.69004 0.67271 0.81052 0.0
C1007 C 0.67462 0.68802 0.78222 0.0
C1008 C 0.63604 0.68223 0.77902 0.0
C1009 C 0.61314 0.66222 0.80352 0.0
C1010 C 0.62899 0.64762 0.83115 0.0
C1011 C 0.66644 0.65209 0.83465 0.0
C1012 C 0.67586 0.63204 0.86623 0.0
C1013 C 0.69235 0.60053 0.85523 0.0
C1014 C 0.702 0.6605 0.89324 0.0
C1015 C 0.6379 0.61567 0.87964 0.0
C1016 C 0.61137 0.62548 0.85924 0.0
C1017 C 0.57433 0.61395 0.86642 0.0
C1018 C 0.56396 0.59117 0.89485 0.0
C1019 C 0.59042 0.57983 0.9157 0.0
C1020 C 0.62795 0.59264 0.90798 0.0
H1021 H 0.35006 0.64281 0.8083 0.0
H1022 H 0.41788 0.76 0.82147 0.0
H1023 H 0.46641 0.7401 0.85419 0.0
H1024 H 0.36684 0.61954 0.89168 0.0
H1025 H 0.36709 0.57181 0.88084 0.0
H1026 H 0.34153 0.59438 0.85266 0.0
H1027 H 0.37729 0.58158 0.80088 0.0
H1028 H 0.40379 0.55972 0.82914 0.0
H1029 H 0.42692 0.59882 0.80395 0.0
H1030 H 0.50396 0.70878 0.89071 0.0
H1031 H 0.52405 0.6701 0.9343 0.0
H1032 H 0.43045 0.57355 0.89937 0.0
C1033 C 0.37557 0.66408 0.81735 0.0
C1034 C 0.38062 0.70279 0.81225 0.0
C1035 C 0.41375 0.73013 0.82513 0.0
C1036 C 0.44155 0.71906 0.84338 0.0
C1037 C 0.4356 0.6806 0.84848 0.0
C1038 C 0.40329 0.65353 0.83603 0.0
C1039 C 0.40143 0.61491 0.84919 0.0
C1040 C 0.36722 0.59929 0.86983 0.0
C1041 C 0.40242 0.58712 0.81898 0.0
C1042 C 0.4367 0.62495 0.87257 0.0
C1043 C 0.45667 0.66264 0.87083 0.0
C1044 C 0.48884 0.67911 0.89201 0.0
C1045 C 0.50002 0.65689 0.9167 0.0
C1046 C 0.47856 0.61895 0.92043 0.0
C1047 C 0.44739 0.60249 0.89711 0.0
H1048 H 0.34071 0.3854 0.78264 0.0
H1049 H 0.28408 0.28725 0.83789 0.0
H1050 H 0.2982 0.32523 0.89293 0.0
H1051 H 0.4144 0.41045 0.83652 0.0
H1052 H 0.42473 0.46128 0.8356 0.0
H1053 H 0.39827 0.43179 0.79966 0.0
H1054 H 0.34645 0.46305 0.80688 0.0
H1055 H 0.37252 0.492 0.84385 0.0
H1056 H 0.32627 0.46223 0.84812 0.0
H1057 H 0.33129 0.3649 0.94177 0.0
H1058 H 0.38653 0.39929 0.97926 0.0
H1059 H 0.42553 0.47369 0.89629 0.0
C1060 C 0.3301 0.3726 0.80626 0.0
C1061 C 0.31008 0.33383 0.80585 0.0
C1062 C 0.29804 0.3173 0.83732 0.0
C1063 C 0.30591 0.33877 0.86885 0.0
C1064 C 0.32665 0.37672 0.8688 0.0
C1065 C 0.33881 0.3936 0.8383 0.0
C1066 C 0.36759 0.43169 0.84625 0.0
C1067 C 0.40334 0.43386 0.82851 0.0
C1068 C 0.35228 0.46416 0.83563 0.0
C1069 C 0.37287 0.43127 0.88565 0.0
C1070 C 0.34739 0.40035 0.89823 0.0
C1071 C 0.35057 0.38992 0.93259 0.0
C1072 C 0.38195 0.40959 0.9538 0.0
C1073 C 0.40943 0.43935 0.94057 0.0
C1074 C 0.40382 0.45193 0.90707 0.0
H1075 H 0.6222 0.30843 0.7657 0.0
H1076 H 0.71804 0.40467 0.75443 0.0
H1077 H 0.69837 0.44088 0.80021 0.0
H1078 H 0.55754 0.36562 0.79135 0.0
H1079 H 0.53718 0.33087 0.82189 0.0
H1080 H 0.55344 0.31634 0.78235 0.0
H1081 H 0.59393 0.28441 0.81937 0.0
H1082 H 0.57904 0.29997 0.85906 0.0
H1083 H 0.62748 0.31248 0.85233 0.0
H1084 H 0.67752 0.46036 0.85466 0.0
H1085 H 0.64984 0.46776 0.90928 0.0
H1086 H 0.56638 0.35917 0.88624 0.0
C1087 C 0.63781 0.33785 0.77154 0.0
C1088 C 0.67135 0.3541 0.75648 0.0
C1089 C 0.69201 0.39209 0.76552 0.0
C1090 C 0.68114 0.41275 0.79158 0.0
C1091 C 0.64943 0.39497 0.80792 0.0
C1092 C 0.6274 0.35877 0.79773 0.0
C1093 C 0.59719 0.34476 0.8223 0.0
C1094 C 0.55907 0.33908 0.80334 0.0
C1095 C 0.59959 0.30826 0.83925 0.0
C1096 C 0.6069 0.37797 0.84878 0.0
C1097 C 0.63702 0.40659 0.8398 0.0
C1098 C 0.6533 0.43866 0.86155 0.0
C1099 C 0.63764 0.44226 0.89283 0.0
C1100 C 0.60584 0.41401 0.90205 0.0
C1101 C 0.59048 0.38133 0.87976 0.0
H1102 H 0.63449 0.27611 0.15249 0.0
H1103 H 0.66609 0.36587 0.23389 0.0
H1104 H 0.62697 0.39921 0.20322 0.0
H1105 H 0.64019 0.33342 0.08419 0.0
H1106 H 0.60139 0.30328 0.05744 0.0
H1107 H 0.62572 0.28291 0.08893 0.0
H1108 H 0.56503 0.25169 0.11726 0.0
H1109 H 0.54025 0.27211 0.08587 0.0
H1110 H 0.53762 0.28067 0.13188 0.0
H1111 H 0.59457 0.42782 0.15992 0.0
H1112 H 0.57135 0.45037 0.10602 0.0
H1113 H 0.55802 0.3417 0.05278 0.0
C1114 C 0.6322 0.30218 0.1643 0.0
C1115 C 0.65295 0.31838 0.19559 0.0
C1116 C 0.6502 0.353 0.20996 0.0
C1117 C 0.62786 0.37197 0.19288 0.0
C1118 C 0.60825 0.3557 0.16165 0.0
C1119 C 0.61 0.32148 0.14752 0.0
C1120 C 0.58981 0.31249 0.11163 0.0
C1121 C 0.61585 0.3078 0.08392 0.0
C1122 C 0.55617 0.27714 0.11168 0.0
C1123 C 0.57821 0.34798 0.10702 0.0
C1124 C 0.58856 0.37218 0.13651 0.0
C1125 C 0.58529 0.40874 0.13707 0.0
C1126 C 0.5722 0.42134 0.10641 0.0
C1127 C 0.56228 0.39734 0.07583 0.0
C1128 C 0.56419 0.35989 0.07637 0.0
H1129 H 0.72325 0.70235 0.16515 0.0
H1130 H 0.70735 0.60949 0.23415 0.0
H1131 H 0.692 0.56397 0.1829 0.0
H1132 H 0.65001 0.66839 0.11573 0.0
H1133 H 0.66734 0.68513 0.07472 0.0
H1134 H 0.68993 0.70929 0.11452 0.0
H1135 H 0.75154 0.69989 0.09749 0.0
H1136 H 0.72868 0.67546 0.05718 0.0
H1137 H 0.75372 0.65304 0.08626 0.0
H1138 H 0.66269 0.53 0.12802 0.0
H1139 H 0.61538 0.51205 0.07902 0.0
H1140 H 0.6504 0.62661 0.04443 0.0
C1141 C 0.71815 0.67247 0.16937 0.0
C1142 C 0.71673 0.65921 0.20328 0.0
C1143 C 0.70878 0.62003 0.20815 0.0
C1144 C 0.7006 0.59414 0.17918 0.0
C1145 C 0.70098 0.60811 0.14577 0.0
C1146 C 0.7099 0.64662 0.14085 0.0
C1147 C 0.70052 0.65468 0.10374 0.0
C1148 C 0.67543 0.68081 0.10215 0.0
C1149 C 0.73571 0.67177 0.08506 0.0
C1150 C 0.68066 0.61484 0.08952 0.0
C1151 C 0.6831 0.58814 0.11343 0.0
C1152 C 0.66149 0.55037 0.1087 0.0
C1153 C 0.63462 0.54035 0.08069 0.0
C1154 C 0.62926 0.56831 0.05846 0.0
C1155 C 0.6544 0.60495 0.06121 0.0
H1156 H 0.30908 0.61759 0.18984 0.0
H1157 H 0.39936 0.6937 0.2551 0.0
H1158 H 0.44372 0.67943 0.21682 0.0
H1159 H 0.35905 0.54744 0.16443 0.0
H1160 H 0.3369 0.54075 0.12092 0.0
H1161 H 0.3131 0.55127 0.15716 0.0
H1162 H 0.30305 0.60851 0.12523 0.0
H1163 H 0.32778 0.59904 0.08942 0.0
H1164 H 0.34238 0.64493 0.11224 0.0
H1165 H 0.47657 0.66661 0.16667 0.0
H1166 H 0.49815 0.64769 0.11225 0.0
H1167 H 0.38656 0.57887 0.07902 0.0
C1168 C 0.33827 0.62993 0.19691 0.0
C1169 C 0.35098 0.65654 0.22545 0.0
C1170 C 0.38923 0.67293 0.23353 0.0
C1171 C 0.41455 0.66517 0.21183 0.0
C1172 C 0.40101 0.64068 0.18256 0.0
C1173 C 0.36385 0.62251 0.1755 0.0
C1174 C 0.35635 0.59995 0.14085 0.0
C1175 C 0.34042 0.55732 0.14617 0.0
C1176 C 0.33089 0.61397 0.11546 0.0
C1177 C 0.39501 0.60936 0.12899 0.0
C1178 C 0.42024 0.63287 0.15349 0.0
C1179 C 0.45726 0.6475 0.14762 0.0
C1180 C 0.46912 0.63683 0.11634 0.0
C1181 C 0.44408 0.61154 0.09129 0.0
C1182 C 0.40643 0.598 0.09767 0.0
H1183 H 0.3027 0.33312 0.16437 0.0
H1184 H 0.38927 0.33949 0.24516 0.0
H1185 H 0.43595 0.37327 0.20633 0.0
H1186 H 0.35263 0.32153 0.08995 0.0
H1187 H 0.33455 0.35196 0.06305 0.0
H1188 H 0.30773 0.3264 0.09638 0.0
H1189 H 0.3025 0.38929 0.12391 0.0
H1190 H 0.32883 0.41492 0.09038 0.0
H1191 H 0.34384 0.4277 0.13565 0.0
H1192 H 0.47402 0.40486 0.1575 0.0
H1193 H 0.49889 0.44096 0.1066 0.0
H1194 H 0.38771 0.41891 0.05953 0.0
C1195 C 0.33149 0.34177 0.17382 0.0
C1196 C 0.34228 0.3336 0.20781 0.0
C1197 C 0.38023 0.34561 0.21935 0.0
C1198 C 0.40706 0.36456 0.19734 0.0
C1199 C 0.39564 0.37197 0.16389 0.0
C1200 C 0.35869 0.36167 0.15243 0.0
C1201 C 0.35367 0.3754 0.11619 0.0
C1202 C 0.3361 0.34181 0.08984 0.0
C1203 C 0.33087 0.4035 0.11657 0.0
C1204 C 0.39346 0.395 0.10918 0.0
C1205 C 0.41735 0.39201 0.13668 0.0
C1206 C 0.4555 0.40757 0.13591 0.0
C1207 C 0.46947 0.42776 0.10679 0.0
C1208 C 0.44532 0.43285 0.07919 0.0
C1209 C 0.40689 0.41561 0.08032 0.0
H1210 H 0.85299 0.70123 0.6969 0.0
H1211 H 0.74718 0.67332 0.63755 0.0
H1212 H 0.76904 0.63488 0.59478 0.0
H1213 H 0.90663 0.71238 0.62088 0.0
H1214 H 0.94117 0.69356 0.64079 0.0
H1215 H 0.91656 0.71715 0.66753 0.0
H1216 H 0.89646 0.65781 0.70405 0.0
H1217 H 0.92087 0.63396 0.67733 0.0
H1218 H 0.87256 0.61245 0.68244 0.0
H1219 H 0.80182 0.59641 0.5599 0.0
H1220 H 0.8448 0.56827 0.53153 0.0
H1221 H 0.93195 0.62633 0.60962 0.0
C1222 C 0.83438 0.68683 0.67497 0.0
C1223 C 0.79807 0.68989 0.67086 0.0
C1224 C 0.77494 0.67132 0.64136 0.0
C1225 C 0.78714 0.64929 0.61699 0.0
C1226 C 0.82298 0.64669 0.62186 0.0
C1227 C 0.84653 0.66559 0.64978 0.0
C1228 C 0.88442 0.65994 0.64782 0.0
C1229 C 0.91394 0.69802 0.64403 0.0
C1230 C 0.89414 0.63984 0.67981 0.0
C1231 C 0.87843 0.63452 0.6147 0.0
C1232 C 0.84258 0.62674 0.60048 0.0
C1233 C 0.83001 0.6027 0.57069 0.0
C1234 C 0.85465 0.58662 0.55481 0.0
C1235 C 0.89191 0.59506 0.5681 0.0
C1236 C 0.90378 0.61947 0.59856 0.0
H1237 H 0.37477 0.81544 0.68192 0.0
H1238 H 0.3142 0.88691 0.72428 0.0
H1239 H 0.35335 0.94178 0.69571 0.0
H1240 H 0.46744 0.89039 0.68081 0.0
H1241 H 0.47593 0.87202 0.63925 0.0
H1242 H 0.44941 0.84036 0.66928 0.0
H1243 H 0.3955 0.81644 0.62161 0.0
H1244 H 0.42196 0.8477 0.59155 0.0
H1245 H 0.37682 0.85029 0.6004 0.0
H1246 H 0.39129 0.98553 0.65673 0.0
H1247 H 0.42167 0.01432 0.60535 0.0
H1248 H 0.45684 0.91487 0.58523 0.0
C1249 C 0.37078 0.84304 0.686 0.0
C1250 C 0.34208 0.84746 0.7056 0.0
C1251 C 0.33634 0.88334 0.70948 0.0
C1252 C 0.35863 0.91463 0.69364 0.0
C1253 C 0.38629 0.90938 0.67378 0.0
C1254 C 0.39236 0.87445 0.66965 0.0
C1255 C 0.41972 0.87514 0.64242 0.0
C1256 C 0.45523 0.86913 0.65894 0.0
C1257 C 0.40245 0.84567 0.61222 0.0
C1258 C 0.42666 0.91532 0.6308 0.0
C1259 C 0.4079 0.93482 0.65003 0.0
C1260 C 0.40675 0.97093 0.64198 0.0
C1261 C 0.42402 0.98702 0.61275 0.0
C1262 C 0.44203 0.96698 0.59182 0.0
C1263 C 0.44443 0.93126 0.6016 0.0
H1264 H 0.19854 0.2939 0.63913 0.0
H1265 H 0.19758 0.34865 0.74014 0.0
H1266 H 0.16331 0.38916 0.71286 0.0
H1267 H 0.20701 0.37537 0.58669 0.0
H1268 H 0.17578 0.34925 0.55121 0.0
H1269 H 0.20161 0.3257 0.57831 0.0
H1270 H 0.14101 0.27591 0.59196 0.0
H1271 H 0.11501 0.29934 0.5649 0.0
H1272 H 0.10489 0.29148 0.60969 0.0
H1273 H 0.13174 0.42733 0.67307 0.0
H1274 H 0.10015 0.45366 0.62618 0.0
H1275 H 0.11458 0.36965 0.55201 0.0
C1276 C 0.19126 0.31454 0.65547 0.0
C1277 C 0.20133 0.31818 0.69198 0.0
C1278 C 0.19045 0.34517 0.71228 0.0
C1279 C 0.17097 0.36849 0.6969 0.0
C1280 C 0.16145 0.36423 0.66099 0.0
C1281 C 0.1707 0.33741 0.64061 0.0
C1282 C 0.15544 0.33727 0.60292 0.0
C1283 C 0.18683 0.34751 0.57833 0.0
C1284 C 0.12742 0.29871 0.59171 0.0
C1285 C 0.13661 0.3684 0.60516 0.0
C1286 C 0.14091 0.38405 0.63882 0.0
C1287 C 0.12776 0.41472 0.64681 0.0
C1288 C 0.10978 0.4296 0.61998 0.0
C1289 C 0.10398 0.41335 0.58549 0.0
C1290 C 0.11764 0.38218 0.57827 0.0
H1291 H 0.71367 0.23866 0.60296 0.0
H1292 H 0.72183 0.15764 0.67959 0.0
H1293 H 0.70455 0.10647 0.63438 0.0
H1294 H 0.63327 0.18916 0.56956 0.0
H1295 H 0.63826 0.19997 0.52439 0.0
H1296 H 0.6665 0.23208 0.55778 0.0
H1297 H 0.725 0.22766 0.52913 0.0
H1298 H 0.69656 0.19499 0.49557 0.0
H1299 H 0.73184 0.182 0.52115 0.0
H1300 H 0.67004 0.06269 0.58814 0.0
H1301 H 0.61578 0.03114 0.54867 0.0
H1302 H 0.62431 0.13753 0.50027 0.0
C1303 C 0.71349 0.21036 0.60961 0.0
C1304 C 0.72086 0.20243 0.64442 0.0
C1305 C 0.71853 0.16485 0.6528 0.0
C1306 C 0.70847 0.13539 0.62715 0.0
C1307 C 0.69982 0.14362 0.5932 0.0
C1308 C 0.70211 0.1803 0.5843 0.0
C1309 C 0.68272 0.18036 0.54872 0.0
C1310 C 0.65345 0.20158 0.55026 0.0
C1311 C 0.71071 0.19725 0.52207 0.0
C1312 C 0.6655 0.1381 0.54114 0.0
C1313 C 0.67749 0.11739 0.5661 0.0
C1314 C 0.66116 0.07843 0.56788 0.0
C1315 C 0.63017 0.06064 0.54532 0.0
C1316 C 0.61553 0.08202 0.52175 0.0
C1317 C 0.63502 0.12051 0.51803 0.0
H1318 H 0.81126 0.26873 0.34753 0.0
H1319 H 0.73673 0.33716 0.34678 0.0
H1320 H 0.77492 0.378 0.3957 0.0
H1321 H 0.8374 0.27938 0.4447 0.0
H1322 H 0.88421 0.28127 0.43761 0.0
H1323 H 0.84688 0.25326 0.40792 0.0
H1324 H 0.87808 0.28993 0.35564 0.0
H1325 H 0.91549 0.31672 0.38543 0.0
H1326 H 0.89071 0.3409 0.35776 0.0
H1327 H 0.82858 0.41907 0.43422 0.0
H1328 H 0.88964 0.45315 0.46296 0.0
H1329 H 0.92721 0.35548 0.44065 0.0
C1330 C 0.80256 0.29164 0.35838 0.0
C1331 C 0.77144 0.30002 0.34354 0.0
C1332 C 0.76044 0.33014 0.35823 0.0
C1333 C 0.78199 0.35347 0.38594 0.0
C1334 C 0.81377 0.34556 0.39897 0.0
C1335 C 0.82352 0.31477 0.38615 0.0
C1336 C 0.86072 0.31443 0.40189 0.0
C1337 C 0.85707 0.28004 0.42438 0.0
C1338 C 0.88783 0.31559 0.37351 0.0
C1339 C 0.8714 0.35099 0.42407 0.0
C1340 C 0.84395 0.36849 0.42237 0.0
C1341 C 0.8498 0.40507 0.43678 0.0
C1342 C 0.8847 0.42434 0.45295 0.0
C1343 C 0.9132 0.4069 0.45463 0.0
C1344 C 0.90588 0.3694 0.4407 0.0
H1345 H 0.62373 0.75762 0.33332 0.0
H1346 H 0.71655 0.76167 0.40596 0.0
H1347 H 0.69029 0.79254 0.45117 0.0
H1348 H 0.61729 0.84498 0.35448 0.0
H1349 H 0.56775 0.83317 0.35113 0.0
H1350 H 0.58999 0.80538 0.32644 0.0
H1351 H 0.55221 0.74429 0.35398 0.0
H1352 H 0.5293 0.77182 0.37843 0.0
H1353 H 0.55272 0.74242 0.40078 0.0
H1354 H 0.66084 0.83325 0.4837 0.0
H1355 H 0.62603 0.87563 0.50427 0.0
H1356 H 0.54962 0.84192 0.41259 0.0
C1357 C 0.63767 0.76368 0.35919 0.0
C1358 C 0.6723 0.75782 0.3663 0.0
C1359 C 0.69031 0.76672 0.40007 0.0
C1360 C 0.67544 0.78391 0.42592 0.0
C1361 C 0.64214 0.79121 0.41765 0.0
C1362 C 0.62299 0.78065 0.38538 0.0
C1363 C 0.58942 0.79472 0.38227 0.0
C1364 C 0.59126 0.82113 0.35178 0.0
C1365 C 0.5538 0.76132 0.37866 0.0
C1366 C 0.5937 0.81628 0.41715 0.0
C1367 C 0.62422 0.81371 0.43722 0.0
C1368 C 0.63629 0.83462 0.46874 0.0
C1369 C 0.61662 0.85877 0.48008 0.0
C1370 C 0.58514 0.86137 0.4601 0.0
C1371 C 0.57319 0.83951 0.42857 0.0
H1372 H 0.16015 0.70772 0.32702 0.0
H1373 H 0.17053 0.61873 0.25606 0.0
H1374 H 0.12097 0.57219 0.28346 0.0
H1375 H 0.15637 0.65867 0.39841 0.0
H1376 H 0.12388 0.67655 0.4202 0.0
H1377 H 0.15154 0.70454 0.38897 0.0
H1378 H 0.09247 0.70838 0.3539 0.0
H1379 H 0.06449 0.68007 0.38516 0.0
H1380 H 0.05691 0.66536 0.33951 0.0
H1381 H 0.08142 0.53425 0.32424 0.0
H1382 H 0.05886 0.50643 0.37908 0.0
H1383 H 0.07457 0.61855 0.42581 0.0
C1384 C 0.1509 0.67864 0.31657 0.0
C1385 C 0.16865 0.66657 0.28946 0.0
C1386 C 0.15705 0.62828 0.27694 0.0
C1387 C 0.12863 0.60184 0.29199 0.0
C1388 C 0.11227 0.61426 0.31952 0.0
C1389 C 0.12302 0.65178 0.33183 0.0
C1390 C 0.10629 0.65644 0.36574 0.0
C1391 C 0.13631 0.67511 0.39503 0.0
C1392 C 0.07838 0.67889 0.36076 0.0
C1393 C 0.08706 0.61536 0.37201 0.0
C1394 C 0.08951 0.5917 0.34422 0.0
C1395 C 0.07823 0.55238 0.34568 0.0
C1396 C 0.06557 0.53683 0.37682 0.0
C1397 C 0.06455 0.56065 0.40583 0.0
C1398 C 0.07412 0.60014 0.40323 0.0
H1399 H 0.31193 0.14715 0.33543 0.0
H1400 H 0.40468 0.23344 0.29945 0.0
H1401 H 0.44387 0.1913 0.30835 0.0
H1402 H 0.36203 0.12105 0.40408 0.0
H1403 H 0.33568 0.07162 0.40015 0.0
H1404 H 0.31489 0.10684 0.38593 0.0
H1405 H 0.2988 0.0714 0.32499 0.0
H1406 H 0.32105 0.03692 0.33891 0.0
H1407 H 0.33507 0.06323 0.30086 0.0
H1408 H 0.47372 0.14214 0.32474 0.0
H1409 H 0.49548 0.09798 0.36086 0.0
H1410 H 0.38364 0.04419 0.38704 0.0
C1411 C 0.34049 0.15701 0.32934 0.0
C1412 C 0.35546 0.19333 0.31681 0.0
C1413 C 0.39291 0.20569 0.30939 0.0
C1414 C 0.41512 0.18171 0.31371 0.0
C1415 C 0.39934 0.1456 0.32545 0.0
C1416 C 0.36308 0.13364 0.33389 0.0
C1417 C 0.35415 0.09585 0.35061 0.0
C1418 C 0.34096 0.09906 0.38736 0.0
C1419 C 0.32557 0.06503 0.32744 0.0
C1420 C 0.39157 0.08927 0.35188 0.0
C1421 C 0.4169 0.11755 0.33598 0.0
C1422 C 0.4541 0.11973 0.33706 0.0
C1423 C 0.46625 0.0945 0.35756 0.0
C1424 C 0.44144 0.06848 0.37744 0.0
C1425 C 0.40329 0.06371 0.37207 0.0
H1426 H 0.64413 0.79449 0.64311 0.0
H1427 H 0.73199 0.89259 0.68565 0.0
H1428 H 0.69248 0.93363 0.67272 0.0
H1429 H 0.61293 0.84007 0.57273 0.0
H1430 H 0.5652 0.81376 0.57545 0.0
H1431 H 0.60068 0.79335 0.58959 0.0
H1432 H 0.57282 0.78338 0.64984 0.0
H1433 H 0.53828 0.80548 0.63614 0.0
H1434 H 0.5683 0.82359 0.67486 0.0
H1435 H 0.64524 0.96409 0.65185 0.0
H1436 H 0.59809 0.98271 0.61592 0.0
H1437 H 0.53919 0.8643 0.59127 0.0
C1438 C 0.65515 0.82467 0.64937 0.0
C1439 C 0.69103 0.84053 0.66521 0.0
C1440 C 0.70452 0.88003 0.6733 0.0
C1441 C 0.68214 0.90343 0.66653 0.0
C1442 C 0.6463 0.88668 0.65209 0.0
C1443 C 0.63307 0.8483 0.64316 0.0
C1444 C 0.59446 0.83772 0.62583 0.0
C1445 C 0.59327 0.82023 0.58871 0.0
C1446 C 0.56684 0.81095 0.64801 0.0
C1447 C 0.58843 0.87636 0.62533 0.0
C1448 C 0.61842 0.90417 0.64116 0.0
C1449 C 0.62125 0.94257 0.64002 0.0
C1450 C 0.59415 0.95292 0.61991 0.0
C1451 C 0.56486 0.92489 0.60128 0.0
C1452 C 0.56061 0.88623 0.60616 0.0
H1453 H 0.65233 0.19192 0.32336 0.0
H1454 H 0.69727 0.11651 0.2645 0.0
H1455 H 0.65249 0.06101 0.28751 0.0
H1456 H 0.64579 0.14033 0.39841 0.0
H1457 H 0.6047 0.14979 0.41169 0.0
H1458 H 0.63539 0.18283 0.38577 0.0
H1459 H 0.58181 0.17733 0.33786 0.0
H1460 H 0.55189 0.14665 0.36607 0.0
H1461 H 0.55384 0.13085 0.32154 0.0
H1462 H 0.60935 0.01504 0.32182 0.0
H1463 H 0.57493 0.98152 0.36951 0.0
H1464 H 0.55822 0.0862 0.40752 0.0
C1465 C 0.65191 0.16359 0.31479 0.0
C1466 C 0.67747 0.15797 0.29191 0.0
C1467 C 0.67746 0.12092 0.28192 0.0
C1468 C 0.652 0.08941 0.29459 0.0
C1469 C 0.62714 0.09569 0.31745 0.0
C1470 C 0.6272 0.13186 0.32785 0.0
C1471 C 0.6016 0.13099 0.35659 0.0
C1472 C 0.62316 0.15222 0.39007 0.0
C1473 C 0.57039 0.14736 0.34475 0.0
C1474 C 0.58739 0.08865 0.36101 0.0
C1475 C 0.60213 0.06882 0.33779 0.0
C1476 C 0.59685 0.03001 0.33955 0.0
C1477 C 0.57723 0.01118 0.36658 0.0
C1478 C 0.56304 0.03116 0.39125 0.0
C1479 C 0.56719 0.07005 0.38783 0.0
H1480 H 0.79071 0.66204 0.34459 0.0
H1481 H 0.87571 0.71905 0.27801 0.0
H1482 H 0.91875 0.68937 0.30755 0.0
H1483 H 0.8501 0.66815 0.4231 0.0
H1484 H 0.82595 0.62167 0.4366 0.0
H1485 H 0.8017 0.64761 0.41051 0.0
H1486 H 0.78081 0.59132 0.3647 0.0
H1487 H 0.80516 0.56527 0.39059 0.0
H1488 H 0.8149 0.57344 0.34574 0.0
H1489 H 0.95467 0.65611 0.34717 0.0
H1490 H 0.97855 0.61975 0.39098 0.0
H1491 H 0.86999 0.57936 0.42939 0.0
C1492 C 0.81838 0.66835 0.33621 0.0
C1493 C 0.82952 0.69335 0.30874 0.0
C1494 C 0.86608 0.70021 0.29871 0.0
C1495 C 0.89093 0.68341 0.31547 0.0
C1496 C 0.87912 0.65898 0.34224 0.0
C1497 C 0.84356 0.65114 0.35237 0.0
C1498 C 0.83783 0.6233 0.38158 0.0
C1499 C 0.82833 0.64126 0.41492 0.0
C1500 C 0.80789 0.58613 0.36995 0.0
C1501 C 0.8757 0.617 0.38648 0.0
C1502 C 0.8992 0.63818 0.36367 0.0
C1503 C 0.93621 0.63895 0.36466 0.0
C1504 C 0.9496 0.61802 0.38962 0.0
C1505 C 0.92611 0.5956 0.41308 0.0
C1506 C 0.88847 0.59502 0.41108 0.0
H1507 H 0.29043 0.75513 0.37622 0.0
H1508 H 0.27671 0.83595 0.30156 0.0
H1509 H 0.29509 0.88692 0.34719 0.0
H1510 H 0.27254 0.81007 0.45955 0.0
H1511 H 0.30856 0.7972 0.48406 0.0
H1512 H 0.27975 0.76476 0.45056 0.0
H1513 H 0.33787 0.7615 0.42059 0.0
H1514 H 0.36652 0.79354 0.45378 0.0
H1515 H 0.37035 0.80485 0.40862 0.0
H1516 H 0.3323 0.93071 0.39291 0.0
H1517 H 0.38714 0.96214 0.43193 0.0
H1518 H 0.37974 0.85531 0.47899 0.0
C1519 C 0.28961 0.78328 0.37011 0.0
C1520 C 0.2812 0.79145 0.33562 0.0
C1521 C 0.28166 0.82875 0.32802 0.0
C1522 C 0.2922 0.85802 0.35393 0.0
C1523 C 0.30251 0.84967 0.3874 0.0
C1524 C 0.30098 0.81301 0.39571 0.0
C1525 C 0.32116 0.81273 0.43083 0.0
C1526 C 0.29386 0.79516 0.45785 0.0
C1527 C 0.35072 0.792 0.42824 0.0
C1528 C 0.33805 0.85495 0.43875 0.0
C1529 C 0.32541 0.87581 0.41436 0.0
C1530 C 0.34159 0.91485 0.41281 0.0
C1531 C 0.37289 0.93256 0.4351 0.0
C1532 C 0.38795 0.91106 0.45821 0.0
C1533 C 0.36872 0.87246 0.46164 0.0
H1534 H 0.17316 0.31233 0.29987 0.0
H1535 H 0.28048 0.34352 0.35681 0.0
H1536 H 0.25848 0.38129 0.40012 0.0
H1537 H 0.15149 0.40013 0.31482 0.0
H1538 H 0.10359 0.37735 0.32083 0.0
H1539 H 0.12827 0.35445 0.29348 0.0
H1540 H 0.11052 0.29509 0.33021 0.0
H1541 H 0.08571 0.31774 0.35762 0.0
H1542 H 0.12148 0.30012 0.37672 0.0
H1543 H 0.22488 0.41806 0.43628 0.0
H1544 H 0.18129 0.44427 0.46588 0.0
H1545 H 0.09369 0.38443 0.38887 0.0
C1546 C 0.19214 0.32736 0.32133 0.0
C1547 C 0.22887 0.32533 0.3246 0.0
C1548 C 0.25241 0.34472 0.35356 0.0
C1549 C 0.24011 0.36637 0.37826 0.0
C1550 C 0.20381 0.36784 0.37423 0.0
C1551 C 0.17997 0.34829 0.34676 0.0
C1552 C 0.14171 0.35274 0.34953 0.0
C1553 C 0.13062 0.37233 0.31778 0.0
C1554 C 0.11317 0.31413 0.35378 0.0
C1555 C 0.14774 0.37813 0.38265 0.0
C1556 C 0.18394 0.38697 0.39618 0.0
C1557 C 0.19645 0.41099 0.42599 0.0
C1558 C 0.17143 0.42595 0.44259 0.0
C1559 C 0.13387 0.41648 0.42997 0.0
C1560 C 0.12208 0.39213 0.39946 0.0
H1561 H 0.31651 0.17257 0.63869 0.0
H1562 H 0.38386 0.28852 0.62906 0.0
H1563 H 0.41608 0.26663 0.58228 0.0
H1564 H 0.38562 0.12981 0.62972 0.0
H1565 H 0.35646 0.08821 0.60539 0.0
H1566 H 0.33689 0.11381 0.63529 0.0
H1567 H 0.29083 0.12166 0.58565 0.0
H1568 H 0.31023 0.09595 0.55551 0.0
H1569 H 0.30801 0.14272 0.54606 0.0
H1570 H 0.44441 0.23057 0.54087 0.0
H1571 H 0.46645 0.18415 0.50804 0.0
H1572 H 0.37879 0.09234 0.54476 0.0
C1573 C 0.33779 0.19348 0.62649 0.0
C1574 C 0.34796 0.23217 0.63737 0.0
C1575 C 0.3758 0.25873 0.6209 0.0
C1576 C 0.39408 0.24654 0.59434 0.0
C1577 C 0.38366 0.20792 0.58454 0.0
C1578 C 0.35596 0.18189 0.60003 0.0
C1579 C 0.35108 0.14181 0.58638 0.0
C1580 C 0.35794 0.11698 0.61595 0.0
C1581 C 0.31277 0.12453 0.56726 0.0
C1582 C 0.38112 0.14907 0.56136 0.0
C1583 C 0.39946 0.18736 0.56043 0.0
C1584 C 0.42992 0.2006 0.54102 0.0
C1585 C 0.44229 0.17399 0.52255 0.0
C1586 C 0.42422 0.1346 0.52369 0.0
C1587 C 0.39283 0.12223 0.54285 0.0
H1588 H 0.84787 0.28922 0.65355 0.0
H1589 H 0.84083 0.37067 0.73426 0.0
H1590 H 0.8936 0.41845 0.71237 0.0
H1591 H 0.95179 0.32619 0.646 0.0
H1592 H 0.9457 0.31818 0.59925 0.0
H1593 H 0.91437 0.2873 0.62654 0.0
H1594 H 0.85908 0.30095 0.59254 0.0
H1595 H 0.89011 0.33144 0.56517 0.0
H1596 H 0.85881 0.34939 0.58877 0.0
H1597 H 0.93747 0.45994 0.67651 0.0
H1598 H 0.96511 0.49382 0.62587 0.0
H1599 H 0.94356 0.38704 0.56692 0.0
C1600 C 0.85839 0.31677 0.6672 0.0
C1601 C 0.84073 0.32644 0.69558 0.0
C1602 C 0.85415 0.36294 0.71236 0.0
C1603 C 0.88438 0.39003 0.70042 0.0
C1604 C 0.90073 0.38009 0.67169 0.0
C1605 C 0.88813 0.34436 0.65514 0.0
C1606 C 0.90593 0.34298 0.62124 0.0
C1607 C 0.93094 0.31713 0.62341 0.0
C1608 C 0.87675 0.3305 0.59013 0.0
C1609 C 0.9284 0.38414 0.6201 0.0
C1610 C 0.92615 0.40472 0.65014 0.0
C1611 C 0.9405 0.44409 0.65335 0.0
C1612 C 0.95613 0.46309 0.62461 0.0
C1613 C 0.95705 0.4426 0.59334 0.0
C1614 C 0.94426 0.40278 0.5913 0.0
H1615 H 0.21206 0.73224 0.66123 0.0
H1616 H 0.29155 0.67065 0.64976 0.0
H1617 H 0.25267 0.63271 0.59955 0.0
H1618 H 0.13644 0.65971 0.64952 0.0
H1619 H 0.10805 0.68269 0.62493 0.0
H1620 H 0.14558 0.71043 0.65406 0.0
H1621 H 0.17349 0.75185 0.60386 0.0
H1622 H 0.13565 0.72469 0.5743 0.0
H1623 H 0.18241 0.72974 0.5643 0.0
H1624 H 0.19847 0.59238 0.56107 0.0
H1625 H 0.13715 0.55807 0.53278 0.0
H1626 H 0.09559 0.6495 0.56713 0.0
C1627 C 0.22196 0.71192 0.6471 0.0
C1628 C 0.25458 0.70431 0.65889 0.0
C1629 C 0.2667 0.67706 0.64056 0.0
C1630 C 0.24479 0.65542 0.61213 0.0
C1631 C 0.21164 0.66238 0.60206 0.0
C1632 C 0.20086 0.6908 0.61843 0.0
C1633 C 0.16256 0.69036 0.6053 0.0
C1634 C 0.13667 0.68547 0.63523 0.0
C1635 C 0.16361 0.72629 0.58576 0.0
C1636 C 0.15243 0.65567 0.58065 0.0
C1637 C 0.18108 0.64003 0.57878 0.0
C1638 C 0.17624 0.60504 0.56133 0.0
C1639 C 0.14121 0.58557 0.54555 0.0
C1640 C 0.11164 0.60127 0.54728 0.0
C1641 C 0.11781 0.63712 0.56447 0.0
loop_
_geom_bond_atom_site_label_1
_geom_bond_atom_site_label_2
_geom_bond_distance
_geom_bond_site_symmetry_2
_ccdc_geom_bond_type
Dy0 O4 2.398 . S
Dy0 O5 2.491 . S
Dy0 O6 2.403 . S
Dy0 O7 2.664 . S
Dy0 O11 2.326 . S
Dy0 O15 2.310 . S
Dy0 O16 2.351 . S
C1 O12 1.185 . S
C1 O13 1.355 . S
C2 O4 1.185 . S
C2 O5 1.355 . S
Dy3 O7 2.310 . S
Dy3 O10 2.351 . S
Dy3 O12 2.398 . S
Dy3 O13 2.491 . S
Dy3 O14 2.403 . S
Dy3 O15 2.664 . S
Dy3 O17 2.326 . S
O4 Dy0 2.398 . S
O4 C2 1.185 . S
O5 Dy0 2.491 . S
O5 C2 1.355 . S
O6 Dy0 2.403 . S
O6 C8 1.254 . S
O7 Dy0 2.664 . S
O7 Dy3 2.310 . S
O7 C8 1.268 . S
C8 O6 1.254 . S
C8 O7 1.268 . S
C9 O14 1.254 . S
C9 O15 1.268 . S
O10 Dy3 2.351 . S
O10 C18 1.249 . S
O11 Dy0 2.326 . S
O11 C18 1.267 . S
O12 C1 1.185 . S
O12 Dy3 2.398 . S
O13 C1 1.355 . S
O13 Dy3 2.491 . S
O14 Dy3 2.403 . S
O14 C9 1.254 . S
O15 Dy0 2.310 . S
O15 Dy3 2.664 . S
O15 C9 1.268 . S
O16 Dy0 2.351 . S
O16 C19 1.249 . S
O17 Dy3 2.326 . S
O17 C19 1.267 . S
C18 O10 1.249 . S
C18 O11 1.267 . S
C19 O16 1.249 . S
C19 O17 1.267 . S
Dy20 O24 2.398 . S
Dy20 O25 2.491 . S
Dy20 O26 2.403 . S
Dy20 O27 2.664 . S
Dy20 O31 2.326 . S
Dy20 O35 2.310 . S
Dy20 O36 2.351 . S
C21 O32 1.185 . S
C21 O33 1.355 . S
C22 O24 1.185 . S
C22 O25 1.355 . S
Dy23 O27 2.310 . S
Dy23 O30 2.351 . S
Dy23 O32 2.398 . S
Dy23 O33 2.491 . S
Dy23 O34 2.403 . S
Dy23 O35 2.664 . S
Dy23 O37 2.326 . S
O24 Dy20 2.398 . S
O24 C22 1.185 . S
O25 Dy20 2.491 . S
O25 C22 1.355 . S
O26 Dy20 2.403 . S
O26 C28 1.254 . S
O27 Dy20 2.664 . S
O27 Dy23 2.310 . S
O27 C28 1.268 . S
C28 O26 1.254 . S
C28 O27 1.268 . S
C29 O34 1.254 . S
C29 O35 1.268 . S
O30 Dy23 2.351 . S
O30 C38 1.249 . S
O31 Dy20 2.326 . S
O31 C38 1.267 . S
O32 C21 1.185 . S
O32 Dy23 2.398 . S
O33 C21 1.355 . S
O33 Dy23 2.491 . S
O34 Dy23 2.403 . S
O34 C29 1.254 . S
O35 Dy20 2.310 . S
O35 Dy23 2.664 . S
O35 C29 1.268 . S
O36 Dy20 2.351 . S
O36 C39 1.249 . S
O37 Dy23 2.326 . S
O37 C39 1.267 . S
C38 O30 1.249 . S
C38 O31 1.267 . S
C39 O36 1.249 . S
C39 O37 1.267 . S
Dy40 O44 2.398 . S
Dy40 O45 2.491 . S
Dy40 O46 2.403 . S
Dy40 O47 2.664 . S
Dy40 O51 2.326 . S
Dy40 O55 2.310 . S
Dy40 O56 2.351 . S
C41 O52 1.185 . S
C41 O53 1.355 . S
C42 O44 1.185 . S
C42 O45 1.355 . S
Dy43 O47 2.310 . S
Dy43 O50 2.351 . S
Dy43 O52 2.398 . S
Dy43 O53 2.491 . S
Dy43 O54 2.403 . S
Dy43 O55 2.664 . S
Dy43 O57 2.326 . S
O44 Dy40 2.398 . S
O44 C42 1.185 . S
O45 Dy40 2.491 . S
O45 C42 1.355 . S
O46 Dy40 2.403 . S
O46 C48 1.254 . S
O47 Dy40 2.664 . S
O47 Dy43 2.310 . S
O47 C48 1.268 . S
C48 O46 1.254 . S
C48 O47 1.268 . S
C49 O54 1.254 . S
C49 O55 1.268 . S
O50 Dy43 2.351 . S
O50 C58 1.249 . S
O51 Dy40 2.326 . S
O51 C58 1.267 . S
O52 C41 1.185 . S
O52 Dy43 2.398 . S
O53 C41 1.355 . S
O53 Dy43 2.491 . S
O54 Dy43 2.403 . S
O54 C49 1.254 . S
O55 Dy40 2.310 . S
O55 Dy43 2.664 . S
O55 C49 1.268 . S
O56 Dy40 2.351 . S
O56 C59 1.249 . S
O57 Dy43 2.326 . S
O57 C59 1.267 . S
C58 O50 1.249 . S
C58 O51 1.267 . S
C59 O56 1.249 . S
C59 O57 1.267 . S
Dy60 O64 2.398 . S
Dy60 O65 2.491 . S
Dy60 O66 2.403 . S
Dy60 O67 2.664 . S
Dy60 O71 2.326 . S
Dy60 O75 2.310 . S
Dy60 O76 2.351 . S
C61 O72 1.185 . S
C61 O73 1.355 . S
C62 O64 1.185 . S
C62 O65 1.355 . S
Dy63 O67 2.310 . S
Dy63 O70 2.351 . S
Dy63 O72 2.398 . S
Dy63 O73 2.491 . S
Dy63 O74 2.403 . S
Dy63 O75 2.664 . S
Dy63 O77 2.326 . S
O64 Dy60 2.398 . S
O64 C62 1.185 . S
O65 Dy60 2.491 . S
O65 C62 1.355 . S
O66 Dy60 2.403 . S
O66 C68 1.254 . S
O67 Dy60 2.664 . S
O67 Dy63 2.310 . S
O67 C68 1.268 . S
C68 O66 1.254 . S
C68 O67 1.268 . S
C69 O74 1.254 . S
C69 O75 1.268 . S
O70 Dy63 2.351 . S
O70 C78 1.249 . S
O71 Dy60 2.326 . S
O71 C78 1.267 . S
O72 C61 1.185 . S
O72 Dy63 2.398 . S
O73 C61 1.355 . S
O73 Dy63 2.491 . S
O74 Dy63 2.403 . S
O74 C69 1.254 . S
O75 Dy60 2.310 . S
O75 Dy63 2.664 . S
O75 C69 1.268 . S
O76 Dy60 2.351 . S
O76 C79 1.249 . S
O77 Dy63 2.326 . S
O77 C79 1.267 . S
C78 O70 1.249 . S
C78 O71 1.267 . S
C79 O76 1.249 . S
C79 O77 1.267 . S
Dy80 O84 2.398 . S
Dy80 O85 2.491 . S
Dy80 O86 2.403 . S
Dy80 O87 2.664 . S
Dy80 O91 2.326 . S
Dy80 O95 2.310 . S
Dy80 O96 2.351 . S
C81 O92 1.185 . S
C81 O93 1.355 . S
C82 O84 1.185 . S
C82 O85 1.355 . S
Dy83 O87 2.310 . S
Dy83 O90 2.351 . S
Dy83 O92 2.398 . S
Dy83 O93 2.491 . S
Dy83 O94 2.403 . S
Dy83 O95 2.664 . S
Dy83 O97 2.326 . S
O84 Dy80 2.398 . S
O84 C82 1.185 . S
O85 Dy80 2.491 . S
O85 C82 1.355 . S
O86 Dy80 2.403 . S
O86 C88 1.254 . S
O87 Dy80 2.664 . S
O87 Dy83 2.310 . S
O87 C88 1.268 . S
C88 O86 1.254 . S
C88 O87 1.268 . S
C89 O94 1.254 . S
C89 O95 1.268 . S
O90 Dy83 2.351 . S
O90 C98 1.249 . S
O91 Dy80 2.326 . S
O91 C98 1.267 . S
O92 C81 1.185 . S
O92 Dy83 2.398 . S
O93 C81 1.355 . S
O93 Dy83 2.491 . S
O94 Dy83 2.403 . S
O94 C89 1.254 . S
O95 Dy80 2.310 . S
O95 Dy83 2.664 . S
O95 C89 1.268 . S
O96 Dy80 2.351 . S
O96 C99 1.249 . S
O97 Dy83 2.326 . S
O97 C99 1.267 . S
C98 O90 1.249 . S
C98 O91 1.267 . S
C99 O96 1.249 . S
C99 O97 1.267 . S
Dy100 O104 2.398 . S
Dy100 O105 2.491 . S
Dy100 O106 2.403 . S
Dy100 O107 2.664 . S
Dy100 O111 2.326 . S
Dy100 O115 2.310 . S
Dy100 O116 2.351 . S
C101 O112 1.185 . S
C101 O113 1.355 . S
C102 O104 1.185 . S
C102 O105 1.355 . S
Dy103 O107 2.310 . S
Dy103 O110 2.351 . S
Dy103 O112 2.398 . S
Dy103 O113 2.491 . S
Dy103 O114 2.403 . S
Dy103 O115 2.664 . S
Dy103 O117 2.326 . S
O104 Dy100 2.398 . S
O104 C102 1.185 . S
O105 Dy100 2.491 . S
O105 C102 1.355 . S
O106 Dy100 2.403 . S
O106 C108 1.254 . S
O107 Dy100 2.664 . S
O107 Dy103 2.310 . S
O107 C108 1.268 . S
C108 O106 1.254 . S
C108 O107 1.268 . S
C109 O114 1.254 . S
C109 O115 1.268 . S
O110 Dy103 2.351 . S
O110 C118 1.249 . S
O111 Dy100 2.326 . S
O111 C118 1.267 . S
O112 C101 1.185 . S
O112 Dy103 2.398 . S
O113 C101 1.355 . S
O113 Dy103 2.491 . S
O114 Dy103 2.403 . S
O114 C109 1.254 . S
O115 Dy100 2.310 . S
O115 Dy103 2.664 . S
O115 C109 1.268 . S
O116 Dy100 2.351 . S
O116 C119 1.249 . S
O117 Dy103 2.326 . S
O117 C119 1.267 . S
C118 O110 1.249 . S
C118 O111 1.267 . S
C119 O116 1.249 . S
C119 O117 1.267 . S
Dy120 O124 2.398 . S
Dy120 O125 2.491 . S
Dy120 O126 2.403 . S
Dy120 O127 2.664 . S
Dy120 O131 2.326 . S
Dy120 O135 2.310 . S
Dy120 O136 2.351 . S
C121 O132 1.185 . S
C121 O133 1.355 . S
C122 O124 1.185 . S
C122 O125 1.355 . S
Dy123 O127 2.310 . S
Dy123 O130 2.351 . S
Dy123 O132 2.398 . S
Dy123 O133 2.491 . S
Dy123 O134 2.403 . S
Dy123 O135 2.664 . S
Dy123 O137 2.326 . S
O124 Dy120 2.398 . S
O124 C122 1.185 . S
O125 Dy120 2.491 . S
O125 C122 1.355 . S
O126 Dy120 2.403 . S
O126 C128 1.254 . S
O127 Dy120 2.664 . S
O127 Dy123 2.310 . S
O127 C128 1.268 . S
C128 O126 1.254 . S
C128 O127 1.268 . S
C129 O134 1.254 . S
C129 O135 1.268 . S
O130 Dy123 2.351 . S
O130 C138 1.249 . S
O131 Dy120 2.326 . S
O131 C138 1.267 . S
O132 C121 1.185 . S
O132 Dy123 2.398 . S
O133 C121 1.355 . S
O133 Dy123 2.491 . S
O134 Dy123 2.403 . S
O134 C129 1.254 . S
O135 Dy120 2.310 . S
O135 Dy123 2.664 . S
O135 C129 1.268 . S
O136 Dy120 2.351 . S
O136 C139 1.249 . S
O137 Dy123 2.326 . S
O137 C139 1.267 . S
C138 O130 1.249 . S
C138 O131 1.267 . S
C139 O136 1.249 . S
C139 O137 1.267 . S
Dy140 O144 2.398 . S
Dy140 O145 2.491 . S
Dy140 O146 2.403 . S
Dy140 O147 2.664 . S
Dy140 O151 2.326 . S
Dy140 O155 2.310 . S
Dy140 O156 2.351 . S
C141 O152 1.185 . S
C141 O153 1.355 . S
C142 O144 1.185 . S
C142 O145 1.355 . S
Dy143 O147 2.310 . S
Dy143 O150 2.351 . S
Dy143 O152 2.398 . S
Dy143 O153 2.491 . S
Dy143 O154 2.403 . S
Dy143 O155 2.664 . S
Dy143 O157 2.326 . S
O144 Dy140 2.398 . S
O144 C142 1.185 . S
O145 Dy140 2.491 . S
O145 C142 1.355 . S
O146 Dy140 2.403 . S
O146 C148 1.254 . S
O147 Dy140 2.664 . S
O147 Dy143 2.310 . S
O147 C148 1.268 . S
C148 O146 1.254 . S
C148 O147 1.268 . S
C149 O154 1.254 . S
C149 O155 1.268 . S
O150 Dy143 2.351 . S
O150 C158 1.249 . S
O151 Dy140 2.326 . S
O151 C158 1.267 . S
O152 C141 1.185 . S
O152 Dy143 2.398 . S
O153 C141 1.355 . S
O153 Dy143 2.491 . S
O154 Dy143 2.403 . S
O154 C149 1.254 . S
O155 Dy140 2.310 . S
O155 Dy143 2.664 . S
O155 C149 1.268 . S
O156 Dy140 2.351 . S
O156 C159 1.249 . S
O157 Dy143 2.326 . S
O157 C159 1.267 . S
C158 O150 1.249 . S
C158 O151 1.267 . S
C159 O156 1.249 . S
C159 O157 1.267 . S
C160 O172 1.241 . S
C160 O173 1.280 . S
C161 O174 1.277 . S
C161 O175 1.245 . S
C162 O186 1.247 . S
C162 O188 1.289 . S
Mg163 O164 1.926 . S
Mg163 O173 1.984 . S
Mg163 O175 1.988 . S
Mg163 O176 2.061 1_655 S
O164 Mg163 1.926 . S
O164 Mg165 1.986 . S
O164 Mg166 1.917 1_655 S
Mg165 O164 1.986 . S
Mg165 O172 2.042 . S
Mg165 O174 2.041 . S
Mg165 O180 2.038 1_545 S
Mg165 O188 2.238 1_545 S
Mg166 O164 1.917 1_455 S
Mg166 O167 1.917 1_545 S
Mg166 O177 2.106 . S
Mg166 O179 2.079 1_445 S
Mg166 O188 2.106 1_445 S
Mg166 O189 2.079 . S
O167 Mg166 1.917 1_565 S
O167 Mg168 1.926 . S
O167 Mg169 1.986 . S
Mg168 O167 1.926 . S
Mg168 O182 1.984 . S
Mg168 O185 1.988 . S
Mg168 O186 2.061 1_455 S
Mg169 O167 1.986 . S
Mg169 O177 2.238 1_565 S
Mg169 O181 2.042 . S
Mg169 O183 2.041 . S
Mg169 O190 2.038 1_565 S
C170 O176 1.247 . S
C170 O177 1.289 . S
C171 O189 1.245 . S
C171 O190 1.274 . S
O172 C160 1.241 . S
O172 Mg165 2.042 . S
O173 C160 1.280 . S
O173 Mg163 1.984 . S
O174 C161 1.277 . S
O174 Mg165 2.041 . S
O175 C161 1.245 . S
O175 Mg163 1.988 . S
O176 Mg163 2.061 1_455 S
O176 C170 1.247 . S
O177 Mg166 2.106 . S
O177 Mg169 2.238 1_545 S
O177 C170 1.289 . S
C178 O179 1.245 . S
C178 O180 1.274 . S
O179 Mg166 2.079 1_665 S
O179 C178 1.245 . S
O180 Mg165 2.038 1_565 S
O180 C178 1.274 . S
O181 Mg169 2.042 . S
O181 C184 1.241 . S
O182 Mg168 1.984 . S
O182 C184 1.280 . S
O183 Mg169 2.041 . S
O183 C187 1.277 . S
C184 O181 1.241 . S
C184 O182 1.280 . S
O185 Mg168 1.988 . S
O185 C187 1.245 . S
O186 C162 1.247 . S
O186 Mg168 2.061 1_655 S
C187 O183 1.277 . S
C187 O185 1.245 . S
O188 C162 1.289 . S
O188 Mg165 2.238 1_565 S
O188 Mg166 2.106 1_665 S
O189 Mg166 2.079 . S
O189 C171 1.245 . S
O190 Mg169 2.038 1_545 S
O190 C171 1.274 . S
C191 O203 1.241 . S
C191 O204 1.280 . S
C192 O205 1.277 . S
C192 O206 1.245 . S
C193 O217 1.247 . S
C193 O219 1.289 . S
Mg194 O195 1.926 . S
Mg194 O204 1.984 . S
Mg194 O206 1.988 1_554 S
Mg194 O207 2.061 . S
O195 Mg194 1.926 . S
O195 Mg196 1.986 1_554 S
O195 Mg197 1.917 . S
Mg196 O195 1.986 1_556 S
Mg196 O203 2.042 1_556 S
Mg196 O205 2.041 . S
Mg196 O211 2.038 1_546 S
Mg196 O219 2.238 1_545 S
Mg197 O195 1.917 . S
Mg197 O198 1.917 1_544 S
Mg197 O208 2.106 . S
Mg197 O210 2.079 1_545 S
Mg197 O219 2.106 1_544 S
Mg197 O220 2.079 1_554 S
O198 Mg197 1.917 1_566 S
O198 Mg199 1.926 . S
O198 Mg200 1.986 1_556 S
Mg199 O198 1.926 . S
Mg199 O213 1.984 . S
Mg199 O216 1.988 1_556 S
Mg199 O217 2.061 . S
Mg200 O198 1.986 1_554 S
Mg200 O208 2.238 1_565 S
Mg200 O212 2.042 1_554 S
Mg200 O214 2.041 . S
Mg200 O221 2.038 1_564 S
C201 O207 1.247 . S
C201 O208 1.289 . S
C202 O220 1.245 . S
C202 O221 1.274 . S
O203 C191 1.241 . S
O203 Mg196 2.042 1_554 S
O204 C191 1.280 . S
O204 Mg194 1.984 . S
O205 C192 1.277 . S
O205 Mg196 2.041 . S
O206 C192 1.245 . S
O206 Mg194 1.988 1_556 S
O207 Mg194 2.061 . S
O207 C201 1.247 . S
O208 Mg197 2.106 . S
O208 Mg200 2.238 1_545 S
O208 C201 1.289 . S
C209 O210 1.245 . S
C209 O211 1.274 . S
O210 Mg197 2.079 1_565 S
O210 C209 1.245 . S
O211 Mg196 2.038 1_564 S
O211 C209 1.274 . S
O212 Mg200 2.042 1_556 S
O212 C215 1.241 . S
O213 Mg199 1.984 . S
O213 C215 1.280 . S
O214 Mg200 2.041 . S
O214 C218 1.277 . S
C215 O212 1.241 . S
C215 O213 1.280 . S
O216 Mg199 1.988 1_554 S
O216 C218 1.245 . S
O217 C193 1.247 . S
O217 Mg199 2.061 . S
C218 O214 1.277 . S
C218 O216 1.245 . S
O219 C193 1.289 . S
O219 Mg196 2.238 1_565 S
O219 Mg197 2.106 1_566 S
O220 Mg197 2.079 1_556 S
O220 C202 1.245 . S
O221 Mg200 2.038 1_546 S
O221 C202 1.274 . S
C222 O234 1.241 . S
C222 O235 1.280 . S
C223 O236 1.277 . S
C223 O237 1.245 . S
C224 O248 1.247 . S
C224 O250 1.289 . S
Mg225 O226 1.926 . S
Mg225 O235 1.984 . S
Mg225 O237 1.988 1_554 S
Mg225 O238 2.061 1_655 S
O226 Mg225 1.926 . S
O226 Mg227 1.986 1_554 S
O226 Mg228 1.917 1_655 S
Mg227 O226 1.986 1_556 S
Mg227 O234 2.042 1_556 S
Mg227 O236 2.041 . S
Mg227 O242 2.038 1_556 S
Mg227 O250 2.238 . S
Mg228 O226 1.917 1_455 S
Mg228 O229 1.917 1_554 S
Mg228 O239 2.107 . S
Mg228 O241 2.079 1_455 S
Mg228 O250 2.106 1_454 S
Mg228 O251 2.078 1_554 S
O229 Mg228 1.917 1_556 S
O229 Mg230 1.926 . S
O229 Mg231 1.986 1_556 S
Mg230 O229 1.926 . S
Mg230 O244 1.984 . S
Mg230 O247 1.988 1_556 S
Mg230 O248 2.061 1_455 S
Mg231 O229 1.986 1_554 S
Mg231 O239 2.238 . S
Mg231 O243 2.042 1_554 S
Mg231 O245 2.041 . S
Mg231 O252 2.038 1_554 S
C232 O238 1.247 . S
C232 O239 1.289 . S
C233 O251 1.245 . S
C233 O252 1.274 . S
O234 C222 1.241 . S
O234 Mg227 2.042 1_554 S
O235 C222 1.280 . S
O235 Mg225 1.984 . S
O236 C223 1.277 . S
O236 Mg227 2.041 . S
O237 C223 1.245 . S
O237 Mg225 1.988 1_556 S
O238 Mg225 2.061 1_455 S
O238 C232 1.247 . S
O239 Mg228 2.107 . S
O239 Mg231 2.238 . S
O239 C232 1.289 . S
C240 O241 1.245 . S
C240 O242 1.274 . S
O241 Mg228 2.079 1_655 S
O241 C240 1.245 . S
O242 Mg227 2.038 1_554 S
O242 C240 1.274 . S
O243 Mg231 2.042 1_556 S
O243 C246 1.241 . S
O244 Mg230 1.984 . S
O244 C246 1.280 . S
O245 Mg231 2.041 . S
O245 C249 1.277 . S
C246 O243 1.241 . S
C246 O244 1.280 . S
O247 Mg230 1.988 1_554 S
O247 C249 1.245 . S
O248 C224 1.247 . S
O248 Mg230 2.061 1_655 S
C249 O245 1.277 . S
C249 O247 1.245 . S
O250 C224 1.289 . S
O250 Mg227 2.238 . S
O250 Mg228 2.106 1_656 S
O251 Mg228 2.078 1_556 S
O251 C233 1.245 . S
O252 Mg231 2.038 1_556 S
O252 C233 1.274 . S
C253 O265 1.241 . S
C253 O266 1.280 . S
C254 O267 1.277 . S
C254 O268 1.245 . S
C255 O279 1.247 . S
C255 O281 1.289 . S
Mg256 O257 1.926 . S
Mg256 O266 1.984 . S
Mg256 O268 1.988 1_554 S
Mg256 O269 2.061 . S
O257 Mg256 1.926 . S
O257 Mg258 1.986 1_554 S
O257 Mg259 1.917 . S
Mg258 O257 1.986 1_556 S
Mg258 O265 2.042 1_556 S
Mg258 O267 2.041 . S
Mg258 O273 2.038 1_556 S
Mg258 O281 2.238 . S
Mg259 O257 1.917 . S
Mg259 O260 1.917 1_554 S
Mg259 O270 2.106 . S
Mg259 O272 2.079 . S
Mg259 O281 2.106 1_554 S
Mg259 O282 2.079 1_554 S
O260 Mg259 1.917 1_556 S
O260 Mg261 1.926 . S
O260 Mg262 1.986 1_556 S
Mg261 O260 1.926 . S
Mg261 O275 1.984 . S
Mg261 O278 1.988 1_556 S
Mg261 O279 2.061 . S
Mg262 O260 1.986 1_554 S
Mg262 O270 2.238 . S
Mg262 O274 2.042 1_554 S
Mg262 O276 2.041 . S
Mg262 O283 2.038 1_554 S
C263 O269 1.247 . S
C263 O270 1.289 . S
C264 O282 1.245 . S
C264 O283 1.274 . S
O265 C253 1.241 . S
O265 Mg258 2.042 1_554 S
O266 C253 1.280 . S
O266 Mg256 1.984 . S
O267 C254 1.277 . S
O267 Mg258 2.041 . S
O268 C254 1.245 . S
O268 Mg256 1.988 1_556 S
O269 Mg256 2.061 . S
O269 C263 1.247 . S
O270 Mg259 2.106 . S
O270 Mg262 2.238 . S
O270 C263 1.289 . S
C271 O272 1.245 . S
C271 O273 1.274 . S
O272 Mg259 2.079 . S
O272 C271 1.245 . S
O273 Mg258 2.038 1_554 S
O273 C271 1.274 . S
O274 Mg262 2.042 1_556 S
O274 C277 1.241 . S
O275 Mg261 1.984 . S
O275 C277 1.280 . S
O276 Mg262 2.041 . S
O276 C280 1.277 . S
C277 O274 1.241 . S
C277 O275 1.280 . S
O278 Mg261 1.988 1_554 S
O278 C280 1.245 . S
O279 C255 1.247 . S
O279 Mg261 2.061 . S
C280 O276 1.277 . S
C280 O278 1.245 . S
O281 C255 1.289 . S
O281 Mg258 2.238 . S
O281 Mg259 2.106 1_556 S
O282 Mg259 2.079 1_556 S
O282 C264 1.245 . S
O283 Mg262 2.038 1_556 S
O283 C264 1.274 . S
C284 O296 1.241 . S
C284 O297 1.280 . S
C285 O298 1.277 . S
C285 O299 1.245 . S
C286 O310 1.247 . S
C286 O312 1.289 . S
Mg287 O288 1.926 . S
Mg287 O297 1.984 . S
Mg287 O299 1.988 . S
Mg287 O300 2.061 1_655 S
O288 Mg287 1.926 . S
O288 Mg289 1.986 . S
O288 Mg290 1.917 1_655 S
Mg289 O288 1.986 . S
Mg289 O296 2.042 . S
Mg289 O298 2.041 . S
Mg289 O304 2.038 . S
Mg289 O312 2.238 . S
Mg290 O288 1.917 1_455 S
Mg290 O291 1.917 . S
Mg290 O301 2.106 . S
Mg290 O303 2.079 1_455 S
Mg290 O312 2.106 1_455 S
Mg290 O313 2.079 . S
O291 Mg290 1.917 . S
O291 Mg292 1.926 . S
O291 Mg293 1.986 . S
Mg292 O291 1.926 . S
Mg292 O306 1.984 . S
Mg292 O309 1.988 . S
Mg292 O310 2.061 1_455 S
Mg293 O291 1.986 . S
Mg293 O301 2.238 . S
Mg293 O305 2.042 . S
Mg293 O307 2.041 . S
Mg293 O314 2.038 . S
C294 O300 1.247 . S
C294 O301 1.289 . S
C295 O313 1.245 . S
C295 O314 1.274 . S
O296 C284 1.241 . S
O296 Mg289 2.042 . S
O297 C284 1.280 . S
O297 Mg287 1.984 . S
O298 C285 1.277 . S
O298 Mg289 2.041 . S
O299 C285 1.245 . S
O299 Mg287 1.988 . S
O300 Mg287 2.061 1_455 S
O300 C294 1.247 . S
O301 Mg290 2.106 . S
O301 Mg293 2.238 . S
O301 C294 1.289 . S
C302 O303 1.245 . S
C302 O304 1.274 . S
O303 Mg290 2.079 1_655 S
O303 C302 1.245 . S
O304 Mg289 2.038 . S
O304 C302 1.274 . S
O305 Mg293 2.042 . S
O305 C308 1.241 . S
O306 Mg292 1.984 . S
O306 C308 1.280 . S
O307 Mg293 2.041 . S
O307 C311 1.277 . S
C308 O305 1.241 . S
C308 O306 1.280 . S
O309 Mg292 1.988 . S
O309 C311 1.245 . S
O310 C286 1.247 . S
O310 Mg292 2.061 1_655 S
C311 O307 1.277 . S
C311 O309 1.245 . S
O312 C286 1.289 . S
O312 Mg289 2.238 . S
O312 Mg290 2.106 1_655 S
O313 Mg290 2.079 . S
O313 C295 1.245 . S
O314 Mg293 2.038 . S
O314 C295 1.274 . S
C315 O327 1.241 . S
C315 O328 1.280 . S
C316 O329 1.277 . S
C316 O330 1.245 . S
C317 O341 1.247 . S
C317 O343 1.289 . S
Mg318 O319 1.926 . S
Mg318 O328 1.984 . S
Mg318 O330 1.988 . S
Mg318 O331 2.061 . S
O319 Mg318 1.926 . S
O319 Mg320 1.986 . S
O319 Mg321 1.917 . S
Mg320 O319 1.986 . S
Mg320 O327 2.042 . S
Mg320 O329 2.041 . S
Mg320 O335 2.038 1_545 S
Mg320 O343 2.238 1_545 S
Mg321 O319 1.917 . S
Mg321 O322 1.917 1_545 S
Mg321 O332 2.106 . S
Mg321 O334 2.079 1_545 S
Mg321 O343 2.106 1_545 S
Mg321 O344 2.079 . S
O322 Mg321 1.917 1_565 S
O322 Mg323 1.926 . S
O322 Mg324 1.986 . S
Mg323 O322 1.926 . S
Mg323 O337 1.984 . S
Mg323 O340 1.988 . S
Mg323 O341 2.061 . S
Mg324 O322 1.986 . S
Mg324 O332 2.238 1_565 S
Mg324 O336 2.042 . S
Mg324 O338 2.041 . S
Mg324 O345 2.038 1_565 S
C325 O331 1.247 . S
C325 O332 1.289 . S
C326 O344 1.245 . S
C326 O345 1.274 . S
O327 C315 1.241 . S
O327 Mg320 2.042 . S
O328 C315 1.280 . S
O328 Mg318 1.984 . S
O329 C316 1.277 . S
O329 Mg320 2.041 . S
O330 C316 1.245 . S
O330 Mg318 1.988 . S
O331 Mg318 2.061 . S
O331 C325 1.247 . S
O332 Mg321 2.106 . S
O332 Mg324 2.238 1_545 S
O332 C325 1.289 . S
C333 O334 1.245 . S
C333 O335 1.274 . S
O334 Mg321 2.079 1_565 S
O334 C333 1.245 . S
O335 Mg320 2.038 1_565 S
O335 C333 1.274 . S
O336 Mg324 2.042 . S
O336 C339 1.241 . S
O337 Mg323 1.984 . S
O337 C339 1.280 . S
O338 Mg324 2.041 . S
O338 C342 1.277 . S
C339 O336 1.241 . S
C339 O337 1.280 . S
O340 Mg323 1.988 . S
O340 C342 1.245 . S
O341 C317 1.247 . S
O341 Mg323 2.061 . S
C342 O338 1.277 . S
C342 O340 1.245 . S
O343 C317 1.289 . S
O343 Mg320 2.238 1_565 S
O343 Mg321 2.106 1_565 S
O344 Mg321 2.079 . S
O344 C326 1.245 . S
O345 Mg324 2.038 1_545 S
O345 C326 1.274 . S
H346 C358 0.930 . S
H347 C360 0.930 . S
H348 C361 0.930 . S
H349 C365 0.959 . S
H350 C365 0.959 . S
H351 C365 0.961 . S
H352 C366 0.960 . S
H353 C366 0.961 . S
H354 C366 0.959 . S
H355 C369 0.929 . S
H356 C370 0.931 . S
H357 C372 0.930 . S
C358 H346 0.930 . S
C358 C359 1.399 . S
C358 C363 1.399 . S
C359 C358 1.399 . S
C359 C360 1.376 . S
C360 H347 0.930 . S
C360 C359 1.376 . S
C360 C361 1.388 . S
C361 H348 0.930 . S
C361 C360 1.388 . S
C361 C362 1.390 . S
C362 C361 1.390 . S
C362 C363 1.394 . S
C362 C368 1.465 . S
C363 C358 1.399 . S
C363 C362 1.394 . S
C363 C364 1.516 . S
C364 C363 1.516 . S
C364 C365 1.502 . S
C364 C366 1.561 . S
C364 C367 1.526 . S
C365 H349 0.959 . S
C365 H350 0.959 . S
C365 H351 0.961 . S
C365 C364 1.502 . S
C366 H352 0.960 . S
C366 H353 0.961 . S
C366 H354 0.959 . S
C366 C364 1.561 . S
C367 C364 1.526 . S
C367 C368 1.396 . S
C367 C372 1.390 . S
C368 C362 1.465 . S
C368 C367 1.396 . S
C368 C369 1.399 . S
C369 H355 0.929 . S
C369 C368 1.399 . S
C369 C370 1.385 . S
C370 H356 0.931 . S
C370 C369 1.385 . S
C370 C371 1.389 . S
C371 C370 1.389 . S
C371 C372 1.387 . S
C372 H357 0.930 . S
C372 C367 1.390 . S
C372 C371 1.387 . S
H373 C385 0.930 . S
H374 C387 0.930 . S
H375 C388 0.930 . S
H376 C392 0.959 . S
H377 C392 0.959 . S
H378 C392 0.961 . S
H379 C393 0.960 . S
H380 C393 0.961 . S
H381 C393 0.959 . S
H382 C396 0.929 . S
H383 C397 0.931 . S
H384 C399 0.930 . S
C385 H373 0.930 . S
C385 C386 1.399 . S
C385 C390 1.399 . S
C386 C385 1.399 . S
C386 C387 1.376 . S
C387 H374 0.930 . S
C387 C386 1.376 . S
C387 C388 1.388 . S
C388 H375 0.930 . S
C388 C387 1.388 . S
C388 C389 1.390 . S
C389 C388 1.390 . S
C389 C390 1.394 . S
C389 C395 1.465 . S
C390 C385 1.399 . S
C390 C389 1.394 . S
C390 C391 1.516 . S
C391 C390 1.516 . S
C391 C392 1.502 . S
C391 C393 1.561 . S
C391 C394 1.526 . S
C392 H376 0.959 . S
C392 H377 0.959 . S
C392 H378 0.961 . S
C392 C391 1.502 . S
C393 H379 0.960 . S
C393 H380 0.961 . S
C393 H381 0.959 . S
C393 C391 1.561 . S
C394 C391 1.526 . S
C394 C395 1.396 . S
C394 C399 1.390 . S
C395 C389 1.465 . S
C395 C394 1.396 . S
C395 C396 1.399 . S
C396 H382 0.929 . S
C396 C395 1.399 . S
C396 C397 1.385 . S
C397 H383 0.931 . S
C397 C396 1.385 . S
C397 C398 1.389 . S
C398 C397 1.389 . S
C398 C399 1.387 . S
C399 H384 0.930 . S
C399 C394 1.390 . S
C399 C398 1.387 . S
H400 C412 0.930 . S
H401 C414 0.930 . S
H402 C415 0.930 . S
H403 C419 0.959 . S
H404 C419 0.959 . S
H405 C419 0.961 . S
H406 C420 0.960 . S
H407 C420 0.961 . S
H408 C420 0.959 . S
H409 C423 0.929 . S
H410 C424 0.931 . S
H411 C426 0.930 . S
C412 H400 0.930 . S
C412 C413 1.399 . S
C412 C417 1.399 . S
C413 C412 1.399 . S
C413 C414 1.376 . S
C414 H401 0.930 . S
C414 C413 1.376 . S
C414 C415 1.388 . S
C415 H402 0.930 . S
C415 C414 1.388 . S
C415 C416 1.390 . S
C416 C415 1.390 . S
C416 C417 1.394 . S
C416 C422 1.465 . S
C417 C412 1.399 . S
C417 C416 1.394 . S
C417 C418 1.516 . S
C418 C417 1.516 . S
C418 C419 1.502 . S
C418 C420 1.561 . S
C418 C421 1.526 . S
C419 H403 0.959 . S
C419 H404 0.959 . S
C419 H405 0.961 . S
C419 C418 1.502 . S
C420 H406 0.960 . S
C420 H407 0.961 . S
C420 H408 0.959 . S
C420 C418 1.561 . S
C421 C418 1.526 . S
C421 C422 1.396 . S
C421 C426 1.390 . S
C422 C416 1.465 . S
C422 C421 1.396 . S
C422 C423 1.399 . S
C423 H409 0.929 . S
C423 C422 1.399 . S
C423 C424 1.385 . S
C424 H410 0.931 . S
C424 C423 1.385 . S
C424 C425 1.389 . S
C425 C424 1.389 . S
C425 C426 1.387 . S
C426 H411 0.930 . S
C426 C421 1.390 . S
C426 C425 1.387 . S
H427 C439 0.930 . S
H428 C441 0.930 . S
H429 C442 0.930 . S
H430 C446 0.959 . S
H431 C446 0.959 . S
H432 C446 0.961 . S
H433 C447 0.960 . S
H434 C447 0.961 . S
H435 C447 0.959 . S
H436 C450 0.929 . S
H437 C451 0.931 . S
H438 C453 0.930 . S
C439 H427 0.930 . S
C439 C440 1.399 . S
C439 C444 1.399 . S
C440 C439 1.399 . S
C440 C441 1.376 . S
C441 H428 0.930 . S
C441 C440 1.376 . S
C441 C442 1.388 . S
C442 H429 0.930 . S
C442 C441 1.388 . S
C442 C443 1.390 . S
C443 C442 1.390 . S
C443 C444 1.394 . S
C443 C449 1.465 . S
C444 C439 1.399 . S
C444 C443 1.394 . S
C444 C445 1.516 . S
C445 C444 1.516 . S
C445 C446 1.502 . S
C445 C447 1.561 . S
C445 C448 1.526 . S
C446 H430 0.959 . S
C446 H431 0.959 . S
C446 H432 0.961 . S
C446 C445 1.502 . S
C447 H433 0.960 . S
C447 H434 0.961 . S
C447 H435 0.959 . S
C447 C445 1.561 . S
C448 C445 1.526 . S
C448 C449 1.396 . S
C448 C453 1.390 . S
C449 C443 1.465 . S
C449 C448 1.396 . S
C449 C450 1.399 . S
C450 H436 0.929 . S
C450 C449 1.399 . S
C450 C451 1.385 . S
C451 H437 0.931 . S
C451 C450 1.385 . S
C451 C452 1.389 . S
C452 C451 1.389 . S
C452 C453 1.387 . S
C453 H438 0.930 . S
C453 C448 1.390 . S
C453 C452 1.387 . S
H454 C466 0.930 . S
H455 C468 0.930 . S
H456 C469 0.930 . S
H457 C473 0.959 . S
H458 C473 0.959 . S
H459 C473 0.961 . S
H460 C474 0.960 . S
H461 C474 0.961 . S
H462 C474 0.959 . S
H463 C477 0.929 . S
H464 C478 0.931 . S
H465 C480 0.930 . S
C466 H454 0.930 . S
C466 C467 1.399 . S
C466 C471 1.399 . S
C467 C466 1.399 . S
C467 C468 1.376 . S
C468 H455 0.930 . S
C468 C467 1.376 . S
C468 C469 1.388 . S
C469 H456 0.930 . S
C469 C468 1.388 . S
C469 C470 1.390 . S
C470 C469 1.390 . S
C470 C471 1.394 . S
C470 C476 1.465 . S
C471 C466 1.399 . S
C471 C470 1.394 . S
C471 C472 1.516 . S
C472 C471 1.516 . S
C472 C473 1.502 . S
C472 C474 1.561 . S
C472 C475 1.526 . S
C473 H457 0.959 . S
C473 H458 0.959 . S
C473 H459 0.961 . S
C473 C472 1.502 . S
C474 H460 0.960 . S
C474 H461 0.961 . S
C474 H462 0.959 . S
C474 C472 1.561 . S
C475 C472 1.526 . S
C475 C476 1.396 . S
C475 C480 1.390 . S
C476 C470 1.465 . S
C476 C475 1.396 . S
C476 C477 1.399 . S
C477 H463 0.929 . S
C477 C476 1.399 . S
C477 C478 1.385 . S
C478 H464 0.931 . S
C478 C477 1.385 . S
C478 C479 1.389 . S
C479 C478 1.389 . S
C479 C480 1.387 . S
C480 H465 0.930 . S
C480 C475 1.390 . S
C480 C479 1.387 . S
H481 C493 0.930 . S
H482 C495 0.930 . S
H483 C496 0.930 . S
H484 C500 0.959 . S
H485 C500 0.959 . S
H486 C500 0.961 . S
H487 C501 0.960 . S
H488 C501 0.961 . S
H489 C501 0.959 . S
H490 C504 0.929 . S
H491 C505 0.931 . S
H492 C507 0.930 . S
C493 H481 0.930 . S
C493 C494 1.399 . S
C493 C498 1.399 . S
C494 C493 1.399 . S
C494 C495 1.376 . S
C495 H482 0.930 . S
C495 C494 1.376 . S
C495 C496 1.388 . S
C496 H483 0.930 . S
C496 C495 1.388 . S
C496 C497 1.390 . S
C497 C496 1.390 . S
C497 C498 1.394 . S
C497 C503 1.465 . S
C498 C493 1.399 . S
C498 C497 1.394 . S
C498 C499 1.516 . S
C499 C498 1.516 . S
C499 C500 1.502 . S
C499 C501 1.561 . S
C499 C502 1.526 . S
C500 H484 0.959 . S
C500 H485 0.959 . S
C500 H486 0.961 . S
C500 C499 1.502 . S
C501 H487 0.960 . S
C501 H488 0.961 . S
C501 H489 0.959 . S
C501 C499 1.561 . S
C502 C499 1.526 . S
C502 C503 1.396 . S
C502 C507 1.390 . S
C503 C497 1.465 . S
C503 C502 1.396 . S
C503 C504 1.399 . S
C504 H490 0.929 . S
C504 C503 1.399 . S
C504 C505 1.385 . S
C505 H491 0.931 . S
C505 C504 1.385 . S
C505 C506 1.389 . S
C506 C505 1.389 . S
C506 C507 1.387 . S
C507 H492 0.930 . S
C507 C502 1.390 . S
C507 C506 1.387 . S
H508 C520 0.930 . S
H509 C522 0.930 . S
H510 C523 0.930 . S
H511 C527 0.959 . S
H512 C527 0.959 . S
H513 C527 0.961 . S
H514 C528 0.960 . S
H515 C528 0.961 . S
H516 C528 0.959 . S
H517 C531 0.929 . S
H518 C532 0.931 . S
H519 C534 0.930 . S
C520 H508 0.930 . S
C520 C521 1.399 . S
C520 C525 1.399 . S
C521 C520 1.399 . S
C521 C522 1.376 . S
C522 H509 0.930 . S
C522 C521 1.376 . S
C522 C523 1.388 . S
C523 H510 0.930 . S
C523 C522 1.388 . S
C523 C524 1.390 . S
C524 C523 1.390 . S
C524 C525 1.394 . S
C524 C530 1.465 . S
C525 C520 1.399 . S
C525 C524 1.394 . S
C525 C526 1.516 . S
C526 C525 1.516 . S
C526 C527 1.502 . S
C526 C528 1.561 . S
C526 C529 1.526 . S
C527 H511 0.959 . S
C527 H512 0.959 . S
C527 H513 0.961 . S
C527 C526 1.502 . S
C528 H514 0.960 . S
C528 H515 0.961 . S
C528 H516 0.959 . S
C528 C526 1.561 . S
C529 C526 1.526 . S
C529 C530 1.396 . S
C529 C534 1.390 . S
C530 C524 1.465 . S
C530 C529 1.396 . S
C530 C531 1.399 . S
C531 H517 0.929 . S
C531 C530 1.399 . S
C531 C532 1.385 . S
C532 H518 0.931 . S
C532 C531 1.385 . S
C532 C533 1.389 . S
C533 C532 1.389 . S
C533 C534 1.387 . S
C534 H519 0.930 . S
C534 C529 1.390 . S
C534 C533 1.387 . S
H535 C547 0.930 . S
H536 C549 0.930 . S
H537 C550 0.930 . S
H538 C554 0.959 . S
H539 C554 0.959 . S
H540 C554 0.961 . S
H541 C555 0.960 . S
H542 C555 0.961 . S
H543 C555 0.959 . S
H544 C558 0.929 . S
H545 C559 0.931 . S
H546 C561 0.930 . S
C547 H535 0.930 . S
C547 C548 1.399 . S
C547 C552 1.399 . S
C548 C547 1.399 . S
C548 C549 1.376 . S
C549 H536 0.930 . S
C549 C548 1.376 . S
C549 C550 1.388 . S
C550 H537 0.930 . S
C550 C549 1.388 . S
C550 C551 1.390 . S
C551 C550 1.390 . S
C551 C552 1.394 . S
C551 C557 1.465 . S
C552 C547 1.399 . S
C552 C551 1.394 . S
C552 C553 1.516 . S
C553 C552 1.516 . S
C553 C554 1.502 . S
C553 C555 1.561 . S
C553 C556 1.526 . S
C554 H538 0.959 . S
C554 H539 0.959 . S
C554 H540 0.961 . S
C554 C553 1.502 . S
C555 H541 0.960 . S
C555 H542 0.961 . S
C555 H543 0.959 . S
C555 C553 1.561 . S
C556 C553 1.526 . S
C556 C557 1.396 . S
C556 C561 1.390 . S
C557 C551 1.465 . S
C557 C556 1.396 . S
C557 C558 1.399 . S
C558 H544 0.929 . S
C558 C557 1.399 . S
C558 C559 1.385 . S
C559 H545 0.931 . S
C559 C558 1.385 . S
C559 C560 1.389 . S
C560 C559 1.389 . S
C560 C561 1.387 . S
C561 H546 0.930 . S
C561 C556 1.390 . S
C561 C560 1.387 . S
H562 C574 0.930 . S
H563 C576 0.930 . S
H564 C577 0.930 . S
H565 C581 0.959 . S
H566 C581 0.959 . S
H567 C581 0.961 . S
H568 C582 0.960 . S
H569 C582 0.961 . S
H570 C582 0.959 . S
H571 C585 0.929 . S
H572 C586 0.931 . S
H573 C588 0.930 . S
C574 H562 0.930 . S
C574 C575 1.399 . S
C574 C579 1.399 . S
C575 C574 1.399 . S
C575 C576 1.376 . S
C576 H563 0.930 . S
C576 C575 1.376 . S
C576 C577 1.388 . S
C577 H564 0.930 . S
C577 C576 1.388 . S
C577 C578 1.390 . S
C578 C577 1.390 . S
C578 C579 1.394 . S
C578 C584 1.465 . S
C579 C574 1.399 . S
C579 C578 1.394 . S
C579 C580 1.516 . S
C580 C579 1.516 . S
C580 C581 1.502 . S
C580 C582 1.561 . S
C580 C583 1.526 . S
C581 H565 0.959 . S
C581 H566 0.959 . S
C581 H567 0.961 . S
C581 C580 1.502 . S
C582 H568 0.960 . S
C582 H569 0.961 . S
C582 H570 0.959 . S
C582 C580 1.561 . S
C583 C580 1.526 . S
C583 C584 1.396 . S
C583 C588 1.390 . S
C584 C578 1.465 . S
C584 C583 1.396 . S
C584 C585 1.399 . S
C585 H571 0.929 . S
C585 C584 1.399 . S
C585 C586 1.385 . S
C586 H572 0.931 . S
C586 C585 1.385 . S
C586 C587 1.389 . S
C587 C586 1.389 . S
C587 C588 1.387 . S
C588 H573 0.930 . S
C588 C583 1.390 . S
C588 C587 1.387 . S
H589 C601 0.930 . S
H590 C603 0.930 . S
H591 C604 0.930 . S
H592 C608 0.959 . S
H593 C608 0.959 . S
H594 C608 0.961 . S
H595 C609 0.960 . S
H596 C609 0.961 . S
H597 C609 0.959 . S
H598 C612 0.929 . S
H599 C613 0.931 . S
H600 C615 0.930 . S
C601 H589 0.930 . S
C601 C602 1.399 . S
C601 C606 1.399 . S
C602 C601 1.399 . S
C602 C603 1.376 . S
C603 H590 0.930 . S
C603 C602 1.376 . S
C603 C604 1.388 . S
C604 H591 0.930 . S
C604 C603 1.388 . S
C604 C605 1.390 . S
C605 C604 1.390 . S
C605 C606 1.394 . S
C605 C611 1.465 . S
C606 C601 1.399 . S
C606 C605 1.394 . S
C606 C607 1.516 . S
C607 C606 1.516 . S
C607 C608 1.502 . S
C607 C609 1.561 . S
C607 C610 1.526 . S
C608 H592 0.959 . S
C608 H593 0.959 . S
C608 H594 0.961 . S
C608 C607 1.502 . S
C609 H595 0.960 . S
C609 H596 0.961 . S
C609 H597 0.959 . S
C609 C607 1.561 . S
C610 C607 1.526 . S
C610 C611 1.396 . S
C610 C615 1.390 . S
C611 C605 1.465 . S
C611 C610 1.396 . S
C611 C612 1.399 . S
C612 H598 0.929 . S
C612 C611 1.399 . S
C612 C613 1.385 . S
C613 H599 0.931 . S
C613 C612 1.385 . S
C613 C614 1.389 . S
C614 C613 1.389 . S
C614 C615 1.387 . S
C615 H600 0.930 . S
C615 C610 1.390 . S
C615 C614 1.387 . S
H616 C628 0.930 . S
H617 C630 0.930 . S
H618 C631 0.930 . S
H619 C635 0.959 . S
H620 C635 0.959 . S
H621 C635 0.961 . S
H622 C636 0.960 . S
H623 C636 0.961 . S
H624 C636 0.959 . S
H625 C639 0.929 . S
H626 C640 0.931 . S
H627 C642 0.930 . S
C628 H616 0.930 . S
C628 C629 1.399 . S
C628 C633 1.399 . S
C629 C628 1.399 . S
C629 C630 1.376 . S
C630 H617 0.930 . S
C630 C629 1.376 . S
C630 C631 1.388 . S
C631 H618 0.930 . S
C631 C630 1.388 . S
C631 C632 1.390 . S
C632 C631 1.390 . S
C632 C633 1.394 . S
C632 C638 1.465 . S
C633 C628 1.399 . S
C633 C632 1.394 . S
C633 C634 1.516 . S
C634 C633 1.516 . S
C634 C635 1.502 . S
C634 C636 1.561 . S
C634 C637 1.526 . S
C635 H619 0.959 . S
C635 H620 0.959 . S
C635 H621 0.961 . S
C635 C634 1.502 . S
C636 H622 0.960 . S
C636 H623 0.961 . S
C636 H624 0.959 . S
C636 C634 1.561 . S
C637 C634 1.526 . S
C637 C638 1.396 . S
C637 C642 1.390 . S
C638 C632 1.465 . S
C638 C637 1.396 . S
C638 C639 1.399 . S
C639 H625 0.929 . S
C639 C638 1.399 . S
C639 C640 1.385 . S
C640 H626 0.931 . S
C640 C639 1.385 . S
C640 C641 1.389 . S
C641 C640 1.389 . S
C641 C642 1.387 . S
C642 H627 0.930 . S
C642 C637 1.390 . S
C642 C641 1.387 . S
H643 C655 0.930 . S
H644 C657 0.930 . S
H645 C658 0.930 . S
H646 C662 0.959 . S
H647 C662 0.959 . S
H648 C662 0.961 . S
H649 C663 0.960 . S
H650 C663 0.961 . S
H651 C663 0.959 . S
H652 C666 0.929 . S
H653 C667 0.931 . S
H654 C669 0.930 . S
C655 H643 0.930 . S
C655 C656 1.399 . S
C655 C660 1.399 . S
C656 C655 1.399 . S
C656 C657 1.376 . S
C657 H644 0.930 . S
C657 C656 1.376 . S
C657 C658 1.388 . S
C658 H645 0.930 . S
C658 C657 1.388 . S
C658 C659 1.390 . S
C659 C658 1.390 . S
C659 C660 1.394 . S
C659 C665 1.465 . S
C660 C655 1.399 . S
C660 C659 1.394 . S
C660 C661 1.516 . S
C661 C660 1.516 . S
C661 C662 1.502 . S
C661 C663 1.561 . S
C661 C664 1.526 . S
C662 H646 0.959 . S
C662 H647 0.959 . S
C662 H648 0.961 . S
C662 C661 1.502 . S
C663 H649 0.960 . S
C663 H650 0.961 . S
C663 H651 0.959 . S
C663 C661 1.561 . S
C664 C661 1.526 . S
C664 C665 1.396 . S
C664 C669 1.390 . S
C665 C659 1.465 . S
C665 C664 1.396 . S
C665 C666 1.399 . S
C666 H652 0.929 . S
C666 C665 1.399 . S
C666 C667 1.385 . S
C667 H653 0.931 . S
C667 C666 1.385 . S
C667 C668 1.389 . S
C668 C667 1.389 . S
C668 C669 1.387 . S
C669 H654 0.930 . S
C669 C664 1.390 . S
C669 C668 1.387 . S
H670 C682 0.930 . S
H671 C684 0.930 . S
H672 C685 0.930 . S
H673 C689 0.959 . S
H674 C689 0.959 . S
H675 C689 0.961 . S
H676 C690 0.960 . S
H677 C690 0.961 . S
H678 C690 0.959 . S
H679 C693 0.929 . S
H680 C694 0.931 . S
H681 C696 0.930 . S
C682 H670 0.930 . S
C682 C683 1.399 . S
C682 C687 1.399 . S
C683 C682 1.399 . S
C683 C684 1.376 . S
C684 H671 0.930 . S
C684 C683 1.376 . S
C684 C685 1.388 . S
C685 H672 0.930 . S
C685 C684 1.388 . S
C685 C686 1.390 . S
C686 C685 1.390 . S
C686 C687 1.394 . S
C686 C692 1.465 . S
C687 C682 1.399 . S
C687 C686 1.394 . S
C687 C688 1.516 . S
C688 C687 1.516 . S
C688 C689 1.502 . S
C688 C690 1.561 . S
C688 C691 1.526 . S
C689 H673 0.959 . S
C689 H674 0.959 . S
C689 H675 0.961 . S
C689 C688 1.502 . S
C690 H676 0.960 . S
C690 H677 0.961 . S
C690 H678 0.959 . S
C690 C688 1.561 . S
C691 C688 1.526 . S
C691 C692 1.396 . S
C691 C696 1.390 . S
C692 C686 1.465 . S
C692 C691 1.396 . S
C692 C693 1.399 . S
C693 H679 0.929 . S
C693 C692 1.399 . S
C693 C694 1.385 . S
C694 H680 0.931 . S
C694 C693 1.385 . S
C694 C695 1.389 . S
C695 C694 1.389 . S
C695 C696 1.387 . S
C696 H681 0.930 . S
C696 C691 1.390 . S
C696 C695 1.387 . S
H697 C709 0.930 . S
H698 C711 0.930 . S
H699 C712 0.930 . S
H700 C716 0.959 . S
H701 C716 0.959 . S
H702 C716 0.961 . S
H703 C717 0.960 . S
H704 C717 0.961 . S
H705 C717 0.959 . S
H706 C720 0.929 . S
H707 C721 0.931 . S
H708 C723 0.930 . S
C709 H697 0.930 . S
C709 C710 1.399 . S
C709 C714 1.399 . S
C710 C709 1.399 . S
C710 C711 1.376 . S
C711 H698 0.930 . S
C711 C710 1.376 . S
C711 C712 1.388 . S
C712 H699 0.930 . S
C712 C711 1.388 . S
C712 C713 1.390 . S
C713 C712 1.390 . S
C713 C714 1.394 . S
C713 C719 1.465 . S
C714 C709 1.399 . S
C714 C713 1.394 . S
C714 C715 1.516 . S
C715 C714 1.516 . S
C715 C716 1.502 . S
C715 C717 1.561 . S
C715 C718 1.526 . S
C716 H700 0.959 . S
C716 H701 0.959 . S
C716 H702 0.961 . S
C716 C715 1.502 . S
C717 H703 0.960 . S
C717 H704 0.961 . S
C717 H705 0.959 . S
C717 C715 1.561 . S
C718 C715 1.526 . S
C718 C719 1.396 . S
C718 C723 1.390 . S
C719 C713 1.465 . S
C719 C718 1.396 . S
C719 C720 1.399 . S
C720 H706 0.929 . S
C720 C719 1.399 . S
C720 C721 1.385 . S
C721 H707 0.931 . S
C721 C720 1.385 . S
C721 C722 1.389 . S
C722 C721 1.389 . S
C722 C723 1.387 . S
C723 H708 0.930 . S
C723 C718 1.390 . S
C723 C722 1.387 . S
H724 C736 0.930 . S
H725 C738 0.930 . S
H726 C739 0.930 . S
H727 C743 0.959 . S
H728 C743 0.959 . S
H729 C743 0.961 . S
H730 C744 0.960 . S
H731 C744 0.961 . S
H732 C744 0.959 . S
H733 C747 0.929 . S
H734 C748 0.931 . S
H735 C750 0.930 . S
C736 H724 0.930 . S
C736 C737 1.399 . S
C736 C741 1.399 . S
C737 C736 1.399 . S
C737 C738 1.376 . S
C738 H725 0.930 . S
C738 C737 1.376 . S
C738 C739 1.388 . S
C739 H726 0.930 . S
C739 C738 1.388 . S
C739 C740 1.390 . S
C740 C739 1.390 . S
C740 C741 1.394 . S
C740 C746 1.465 . S
C741 C736 1.399 . S
C741 C740 1.394 . S
C741 C742 1.516 . S
C742 C741 1.516 . S
C742 C743 1.502 . S
C742 C744 1.561 . S
C742 C745 1.526 . S
C743 H727 0.959 . S
C743 H728 0.959 . S
C743 H729 0.961 . S
C743 C742 1.502 . S
C744 H730 0.960 . S
C744 H731 0.961 . S
C744 H732 0.959 . S
C744 C742 1.561 . S
C745 C742 1.526 . S
C745 C746 1.396 . S
C745 C750 1.390 . S
C746 C740 1.465 . S
C746 C745 1.396 . S
C746 C747 1.399 . S
C747 H733 0.929 . S
C747 C746 1.399 . S
C747 C748 1.385 . S
C748 H734 0.931 . S
C748 C747 1.385 . S
C748 C749 1.389 . S
C749 C748 1.389 . S
C749 C750 1.387 . S
C750 H735 0.930 . S
C750 C745 1.390 . S
C750 C749 1.387 . S
H751 C763 0.930 . S
H752 C765 0.930 . S
H753 C766 0.930 . S
H754 C770 0.959 . S
H755 C770 0.959 . S
H756 C770 0.961 . S
H757 C771 0.960 . S
H758 C771 0.961 . S
H759 C771 0.959 . S
H760 C774 0.929 . S
H761 C775 0.931 . S
H762 C777 0.930 . S
C763 H751 0.930 . S
C763 C764 1.399 . S
C763 C768 1.399 . S
C764 C763 1.399 . S
C764 C765 1.376 . S
C765 H752 0.930 . S
C765 C764 1.376 . S
C765 C766 1.388 . S
C766 H753 0.930 . S
C766 C765 1.388 . S
C766 C767 1.390 . S
C767 C766 1.390 . S
C767 C768 1.394 . S
C767 C773 1.465 . S
C768 C763 1.399 . S
C768 C767 1.394 . S
C768 C769 1.516 . S
C769 C768 1.516 . S
C769 C770 1.502 . S
C769 C771 1.561 . S
C769 C772 1.526 . S
C770 H754 0.959 . S
C770 H755 0.959 . S
C770 H756 0.961 . S
C770 C769 1.502 . S
C771 H757 0.960 . S
C771 H758 0.961 . S
C771 H759 0.959 . S
C771 C769 1.561 . S
C772 C769 1.526 . S
C772 C773 1.396 . S
C772 C777 1.390 . S
C773 C767 1.465 . S
C773 C772 1.396 . S
C773 C774 1.399 . S
C774 H760 0.929 . S
C774 C773 1.399 . S
C774 C775 1.385 . S
C775 H761 0.931 . S
C775 C774 1.385 . S
C775 C776 1.389 . S
C776 C775 1.389 . S
C776 C777 1.387 . S
C777 H762 0.930 . S
C777 C772 1.390 . S
C777 C776 1.387 . S
H778 C790 0.930 . S
H779 C792 0.930 . S
H780 C793 0.930 . S
H781 C797 0.959 . S
H782 C797 0.959 . S
H783 C797 0.961 . S
H784 C798 0.960 . S
H785 C798 0.961 . S
H786 C798 0.959 . S
H787 C801 0.929 . S
H788 C802 0.931 . S
H789 C804 0.930 . S
C790 H778 0.930 . S
C790 C791 1.399 . S
C790 C795 1.399 . S
C791 C790 1.399 . S
C791 C792 1.376 . S
C792 H779 0.930 . S
C792 C791 1.376 . S
C792 C793 1.388 . S
C793 H780 0.930 . S
C793 C792 1.388 . S
C793 C794 1.390 . S
C794 C793 1.390 . S
C794 C795 1.394 . S
C794 C800 1.465 . S
C795 C790 1.399 . S
C795 C794 1.394 . S
C795 C796 1.516 . S
C796 C795 1.516 . S
C796 C797 1.502 . S
C796 C798 1.561 . S
C796 C799 1.526 . S
C797 H781 0.959 . S
C797 H782 0.959 . S
C797 H783 0.961 . S
C797 C796 1.502 . S
C798 H784 0.960 . S
C798 H785 0.961 . S
C798 H786 0.959 . S
C798 C796 1.561 . S
C799 C796 1.526 . S
C799 C800 1.396 . S
C799 C804 1.390 . S
C800 C794 1.465 . S
C800 C799 1.396 . S
C800 C801 1.399 . S
C801 H787 0.929 . S
C801 C800 1.399 . S
C801 C802 1.385 . S
C802 H788 0.931 . S
C802 C801 1.385 . S
C802 C803 1.389 . S
C803 C802 1.389 . S
C803 C804 1.387 . S
C804 H789 0.930 . S
C804 C799 1.390 . S
C804 C803 1.387 . S
H805 C817 0.930 . S
H806 C819 0.930 . S
H807 C820 0.930 . S
H808 C824 0.959 . S
H809 C824 0.959 . S
H810 C824 0.961 . S
H811 C825 0.960 . S
H812 C825 0.961 . S
H813 C825 0.959 . S
H814 C828 0.929 . S
H815 C829 0.931 . S
H816 C831 0.930 . S
C817 H805 0.930 . S
C817 C818 1.399 . S
C817 C822 1.399 . S
C818 C817 1.399 . S
C818 C819 1.376 . S
C819 H806 0.930 . S
C819 C818 1.376 . S
C819 C820 1.388 . S
C820 H807 0.930 . S
C820 C819 1.388 . S
C820 C821 1.390 . S
C821 C820 1.390 . S
C821 C822 1.394 . S
C821 C827 1.465 . S
C822 C817 1.399 . S
C822 C821 1.394 . S
C822 C823 1.516 . S
C823 C822 1.516 . S
C823 C824 1.502 . S
C823 C825 1.561 . S
C823 C826 1.526 . S
C824 H808 0.959 . S
C824 H809 0.959 . S
C824 H810 0.961 . S
C824 C823 1.502 . S
C825 H811 0.960 . S
C825 H812 0.961 . S
C825 H813 0.959 . S
C825 C823 1.561 . S
C826 C823 1.526 . S
C826 C827 1.396 . S
C826 C831 1.390 . S
C827 C821 1.465 . S
C827 C826 1.396 . S
C827 C828 1.399 . S
C828 H814 0.929 . S
C828 C827 1.399 . S
C828 C829 1.385 . S
C829 H815 0.931 . S
C829 C828 1.385 . S
C829 C830 1.389 . S
C830 C829 1.389 . S
C830 C831 1.387 . S
C831 H816 0.930 . S
C831 C826 1.390 . S
C831 C830 1.387 . S
H832 C844 0.930 . S
H833 C846 0.930 . S
H834 C847 0.930 . S
H835 C851 0.959 . S
H836 C851 0.959 . S
H837 C851 0.961 . S
H838 C852 0.960 . S
H839 C852 0.961 . S
H840 C852 0.959 . S
H841 C855 0.929 . S
H842 C856 0.931 . S
H843 C858 0.930 . S
C844 H832 0.930 . S
C844 C845 1.399 . S
C844 C849 1.399 . S
C845 C844 1.399 . S
C845 C846 1.376 . S
C846 H833 0.930 . S
C846 C845 1.376 . S
C846 C847 1.388 . S
C847 H834 0.930 . S
C847 C846 1.388 . S
C847 C848 1.390 . S
C848 C847 1.390 . S
C848 C849 1.394 . S
C848 C854 1.465 . S
C849 C844 1.399 . S
C849 C848 1.394 . S
C849 C850 1.516 . S
C850 C849 1.516 . S
C850 C851 1.502 . S
C850 C852 1.561 . S
C850 C853 1.526 . S
C851 H835 0.959 . S
C851 H836 0.959 . S
C851 H837 0.961 . S
C851 C850 1.502 . S
C852 H838 0.960 . S
C852 H839 0.961 . S
C852 H840 0.959 . S
C852 C850 1.561 . S
C853 C850 1.526 . S
C853 C854 1.396 . S
C853 C858 1.390 . S
C854 C848 1.465 . S
C854 C853 1.396 . S
C854 C855 1.399 . S
C855 H841 0.929 . S
C855 C854 1.399 . S
C855 C856 1.385 . S
C856 H842 0.931 . S
C856 C855 1.385 . S
C856 C857 1.389 . S
C857 C856 1.389 . S
C857 C858 1.387 . S
C858 H843 0.930 . S
C858 C853 1.390 . S
C858 C857 1.387 . S
H859 C871 0.930 . S
H860 C873 0.930 . S
H861 C874 0.930 . S
H862 C878 0.959 . S
H863 C878 0.959 . S
H864 C878 0.961 . S
H865 C879 0.960 . S
H866 C879 0.961 . S
H867 C879 0.959 . S
H868 C882 0.929 . S
H869 C883 0.931 . S
H870 C885 0.930 . S
C871 H859 0.930 . S
C871 C872 1.399 . S
C871 C876 1.399 . S
C872 C871 1.399 . S
C872 C873 1.376 . S
C873 H860 0.930 . S
C873 C872 1.376 . S
C873 C874 1.388 . S
C874 H861 0.930 . S
C874 C873 1.388 . S
C874 C875 1.390 . S
C875 C874 1.390 . S
C875 C876 1.394 . S
C875 C881 1.465 . S
C876 C871 1.399 . S
C876 C875 1.394 . S
C876 C877 1.516 . S
C877 C876 1.516 . S
C877 C878 1.502 . S
C877 C879 1.561 . S
C877 C880 1.526 . S
C878 H862 0.959 . S
C878 H863 0.959 . S
C878 H864 0.961 . S
C878 C877 1.502 . S
C879 H865 0.960 . S
C879 H866 0.961 . S
C879 H867 0.959 . S
C879 C877 1.561 . S
C880 C877 1.526 . S
C880 C881 1.396 . S
C880 C885 1.390 . S
C881 C875 1.465 . S
C881 C880 1.396 . S
C881 C882 1.399 . S
C882 H868 0.929 . S
C882 C881 1.399 . S
C882 C883 1.385 . S
C883 H869 0.931 . S
C883 C882 1.385 . S
C883 C884 1.389 . S
C884 C883 1.389 . S
C884 C885 1.387 . S
C885 H870 0.930 . S
C885 C880 1.390 . S
C885 C884 1.387 . S
H886 C898 0.930 . S
H887 C900 0.930 . S
H888 C901 0.930 . S
H889 C905 0.959 . S
H890 C905 0.959 . S
H891 C905 0.961 . S
H892 C906 0.960 . S
H893 C906 0.961 . S
H894 C906 0.959 . S
H895 C909 0.929 . S
H896 C910 0.931 . S
H897 C912 0.930 . S
C898 H886 0.930 . S
C898 C899 1.399 . S
C898 C903 1.399 . S
C899 C898 1.399 . S
C899 C900 1.376 . S
C900 H887 0.930 . S
C900 C899 1.376 . S
C900 C901 1.388 . S
C901 H888 0.930 . S
C901 C900 1.388 . S
C901 C902 1.390 . S
C902 C901 1.390 . S
C902 C903 1.394 . S
C902 C908 1.465 . S
C903 C898 1.399 . S
C903 C902 1.394 . S
C903 C904 1.516 . S
C904 C903 1.516 . S
C904 C905 1.502 . S
C904 C906 1.561 . S
C904 C907 1.526 . S
C905 H889 0.959 . S
C905 H890 0.959 . S
C905 H891 0.961 . S
C905 C904 1.502 . S
C906 H892 0.960 . S
C906 H893 0.961 . S
C906 H894 0.959 . S
C906 C904 1.561 . S
C907 C904 1.526 . S
C907 C908 1.396 . S
C907 C912 1.390 . S
C908 C902 1.465 . S
C908 C907 1.396 . S
C908 C909 1.399 . S
C909 H895 0.929 . S
C909 C908 1.399 . S
C909 C910 1.385 . S
C910 H896 0.931 . S
C910 C909 1.385 . S
C910 C911 1.389 . S
C911 C910 1.389 . S
C911 C912 1.387 . S
C912 H897 0.930 . S
C912 C907 1.390 . S
C912 C911 1.387 . S
H913 C925 0.930 . S
H914 C927 0.930 . S
H915 C928 0.930 . S
H916 C932 0.959 . S
H917 C932 0.959 . S
H918 C932 0.961 . S
H919 C933 0.960 . S
H920 C933 0.961 . S
H921 C933 0.959 . S
H922 C936 0.929 . S
H923 C937 0.931 . S
H924 C939 0.930 . S
C925 H913 0.930 . S
C925 C926 1.399 . S
C925 C930 1.399 . S
C926 C925 1.399 . S
C926 C927 1.376 . S
C927 H914 0.930 . S
C927 C926 1.376 . S
C927 C928 1.388 . S
C928 H915 0.930 . S
C928 C927 1.388 . S
C928 C929 1.390 . S
C929 C928 1.390 . S
C929 C930 1.394 . S
C929 C935 1.465 . S
C930 C925 1.399 . S
C930 C929 1.394 . S
C930 C931 1.516 . S
C931 C930 1.516 . S
C931 C932 1.502 . S
C931 C933 1.561 . S
C931 C934 1.526 . S
C932 H916 0.959 . S
C932 H917 0.959 . S
C932 H918 0.961 . S
C932 C931 1.502 . S
C933 H919 0.960 . S
C933 H920 0.961 . S
C933 H921 0.959 . S
C933 C931 1.561 . S
C934 C931 1.526 . S
C934 C935 1.396 . S
C934 C939 1.390 . S
C935 C929 1.465 . S
C935 C934 1.396 . S
C935 C936 1.399 . S
C936 H922 0.929 . S
C936 C935 1.399 . S
C936 C937 1.385 . S
C937 H923 0.931 . S
C937 C936 1.385 . S
C937 C938 1.389 . S
C938 C937 1.389 . S
C938 C939 1.387 . S
C939 H924 0.930 . S
C939 C934 1.390 . S
C939 C938 1.387 . S
H940 C952 0.930 . S
H941 C954 0.930 . S
H942 C955 0.930 . S
H943 C959 0.959 . S
H944 C959 0.959 . S
H945 C959 0.961 . S
H946 C960 0.960 . S
H947 C960 0.961 . S
H948 C960 0.959 . S
H949 C963 0.929 . S
H950 C964 0.931 . S
H951 C966 0.930 . S
C952 H940 0.930 . S
C952 C953 1.399 . S
C952 C957 1.399 . S
C953 C952 1.399 . S
C953 C954 1.376 . S
C954 H941 0.930 . S
C954 C953 1.376 . S
C954 C955 1.388 . S
C955 H942 0.930 . S
C955 C954 1.388 . S
C955 C956 1.390 . S
C956 C955 1.390 . S
C956 C957 1.394 . S
C956 C962 1.465 . S
C957 C952 1.399 . S
C957 C956 1.394 . S
C957 C958 1.516 . S
C958 C957 1.516 . S
C958 C959 1.502 . S
C958 C960 1.561 . S
C958 C961 1.526 . S
C959 H943 0.959 . S
C959 H944 0.959 . S
C959 H945 0.961 . S
C959 C958 1.502 . S
C960 H946 0.960 . S
C960 H947 0.961 . S
C960 H948 0.959 . S
C960 C958 1.561 . S
C961 C958 1.526 . S
C961 C962 1.396 . S
C961 C966 1.390 . S
C962 C956 1.465 . S
C962 C961 1.396 . S
C962 C963 1.399 . S
C963 H949 0.929 . S
C963 C962 1.399 . S
C963 C964 1.385 . S
C964 H950 0.931 . S
C964 C963 1.385 . S
C964 C965 1.389 . S
C965 C964 1.389 . S
C965 C966 1.387 . S
C966 H951 0.930 . S
C966 C961 1.390 . S
C966 C965 1.387 . S
H967 C979 0.930 . S
H968 C981 0.930 . S
H969 C982 0.930 . S
H970 C986 0.959 . S
H971 C986 0.959 . S
H972 C986 0.961 . S
H973 C987 0.960 . S
H974 C987 0.961 . S
H975 C987 0.959 . S
H976 C990 0.929 . S
H977 C991 0.931 . S
H978 C993 0.930 . S
C979 H967 0.930 . S
C979 C980 1.399 . S
C979 C984 1.399 . S
C980 C979 1.399 . S
C980 C981 1.376 . S
C981 H968 0.930 . S
C981 C980 1.376 . S
C981 C982 1.388 . S
C982 H969 0.930 . S
C982 C981 1.388 . S
C982 C983 1.390 . S
C983 C982 1.390 . S
C983 C984 1.394 . S
C983 C989 1.465 . S
C984 C979 1.399 . S
C984 C983 1.394 . S
C984 C985 1.516 . S
C985 C984 1.516 . S
C985 C986 1.502 . S
C985 C987 1.561 . S
C985 C988 1.526 . S
C986 H970 0.959 . S
C986 H971 0.959 . S
C986 H972 0.961 . S
C986 C985 1.502 . S
C987 H973 0.960 . S
C987 H974 0.961 . S
C987 H975 0.959 . S
C987 C985 1.561 . S
C988 C985 1.526 . S
C988 C989 1.396 . S
C988 C993 1.390 . S
C989 C983 1.465 . S
C989 C988 1.396 . S
C989 C990 1.399 . S
C990 H976 0.929 . S
C990 C989 1.399 . S
C990 C991 1.385 . S
C991 H977 0.931 . S
C991 C990 1.385 . S
C991 C992 1.389 . S
C992 C991 1.389 . S
C992 C993 1.387 . S
C993 H978 0.930 . S
C993 C988 1.390 . S
C993 C992 1.387 . S
H994 C1006 0.930 . S
H995 C1008 0.930 . S
H996 C1009 0.930 . S
H997 C1013 0.959 . S
H998 C1013 0.959 . S
H999 C1013 0.961 . S
H1000 C1014 0.960 . S
H1001 C1014 0.961 . S
H1002 C1014 0.959 . S
H1003 C1017 0.929 . S
H1004 C1018 0.931 . S
H1005 C1020 0.930 . S
C1006 H994 0.930 . S
C1006 C1007 1.399 . S
C1006 C1011 1.399 . S
C1007 C1006 1.399 . S
C1007 C1008 1.376 . S
C1008 H995 0.930 . S
C1008 C1007 1.376 . S
C1008 C1009 1.388 . S
C1009 H996 0.930 . S
C1009 C1008 1.388 . S
C1009 C1010 1.390 . S
C1010 C1009 1.390 . S
C1010 C1011 1.394 . S
C1010 C1016 1.465 . S
C1011 C1006 1.399 . S
C1011 C1010 1.394 . S
C1011 C1012 1.516 . S
C1012 C1011 1.516 . S
C1012 C1013 1.502 . S
C1012 C1014 1.561 . S
C1012 C1015 1.526 . S
C1013 H997 0.959 . S
C1013 H998 0.959 . S
C1013 H999 0.961 . S
C1013 C1012 1.502 . S
C1014 H1000 0.960 . S
C1014 H1001 0.961 . S
C1014 H1002 0.959 . S
C1014 C1012 1.561 . S
C1015 C1012 1.526 . S
C1015 C1016 1.396 . S
C1015 C1020 1.390 . S
C1016 C1010 1.465 . S
C1016 C1015 1.396 . S
C1016 C1017 1.399 . S
C1017 H1003 0.929 . S
C1017 C1016 1.399 . S
C1017 C1018 1.385 . S
C1018 H1004 0.931 . S
C1018 C1017 1.385 . S
C1018 C1019 1.389 . S
C1019 C1018 1.389 . S
C1019 C1020 1.387 . S
C1020 H1005 0.930 . S
C1020 C1015 1.390 . S
C1020 C1019 1.387 . S
H1021 C1033 0.930 . S
H1022 C1035 0.930 . S
H1023 C1036 0.930 . S
H1024 C1040 0.959 . S
H1025 C1040 0.959 . S
H1026 C1040 0.961 . S
H1027 C1041 0.960 . S
H1028 C1041 0.961 . S
H1029 C1041 0.959 . S
H1030 C1044 0.929 . S
H1031 C1045 0.931 . S
H1032 C1047 0.930 . S
C1033 H1021 0.930 . S
C1033 C1034 1.399 . S
C1033 C1038 1.399 . S
C1034 C1033 1.399 . S
C1034 C1035 1.376 . S
C1035 H1022 0.930 . S
C1035 C1034 1.376 . S
C1035 C1036 1.388 . S
C1036 H1023 0.930 . S
C1036 C1035 1.388 . S
C1036 C1037 1.390 . S
C1037 C1036 1.390 . S
C1037 C1038 1.394 . S
C1037 C1043 1.465 . S
C1038 C1033 1.399 . S
C1038 C1037 1.394 . S
C1038 C1039 1.516 . S
C1039 C1038 1.516 . S
C1039 C1040 1.502 . S
C1039 C1041 1.561 . S
C1039 C1042 1.526 . S
C1040 H1024 0.959 . S
C1040 H1025 0.959 . S
C1040 H1026 0.961 . S
C1040 C1039 1.502 . S
C1041 H1027 0.960 . S
C1041 H1028 0.961 . S
C1041 H1029 0.959 . S
C1041 C1039 1.561 . S
C1042 C1039 1.526 . S
C1042 C1043 1.396 . S
C1042 C1047 1.390 . S
C1043 C1037 1.465 . S
C1043 C1042 1.396 . S
C1043 C1044 1.399 . S
C1044 H1030 0.929 . S
C1044 C1043 1.399 . S
C1044 C1045 1.385 . S
C1045 H1031 0.931 . S
C1045 C1044 1.385 . S
C1045 C1046 1.389 . S
C1046 C1045 1.389 . S
C1046 C1047 1.387 . S
C1047 H1032 0.930 . S
C1047 C1042 1.390 . S
C1047 C1046 1.387 . S
H1048 C1060 0.930 . S
H1049 C1062 0.930 . S
H1050 C1063 0.930 . S
H1051 C1067 0.959 . S
H1052 C1067 0.959 . S
H1053 C1067 0.961 . S
H1054 C1068 0.960 . S
H1055 C1068 0.961 . S
H1056 C1068 0.959 . S
H1057 C1071 0.929 . S
H1058 C1072 0.931 . S
H1059 C1074 0.930 . S
C1060 H1048 0.930 . S
C1060 C1061 1.399 . S
C1060 C1065 1.399 . S
C1061 C1060 1.399 . S
C1061 C1062 1.376 . S
C1062 H1049 0.930 . S
C1062 C1061 1.376 . S
C1062 C1063 1.388 . S
C1063 H1050 0.930 . S
C1063 C1062 1.388 . S
C1063 C1064 1.390 . S
C1064 C1063 1.390 . S
C1064 C1065 1.394 . S
C1064 C1070 1.465 . S
C1065 C1060 1.399 . S
C1065 C1064 1.394 . S
C1065 C1066 1.516 . S
C1066 C1065 1.516 . S
C1066 C1067 1.502 . S
C1066 C1068 1.561 . S
C1066 C1069 1.526 . S
C1067 H1051 0.959 . S
C1067 H1052 0.959 . S
C1067 H1053 0.961 . S
C1067 C1066 1.502 . S
C1068 H1054 0.960 . S
C1068 H1055 0.961 . S
C1068 H1056 0.959 . S
C1068 C1066 1.561 . S
C1069 C1066 1.526 . S
C1069 C1070 1.396 . S
C1069 C1074 1.390 . S
C1070 C1064 1.465 . S
C1070 C1069 1.396 . S
C1070 C1071 1.399 . S
C1071 H1057 0.929 . S
C1071 C1070 1.399 . S
C1071 C1072 1.385 . S
C1072 H1058 0.931 . S
C1072 C1071 1.385 . S
C1072 C1073 1.389 . S
C1073 C1072 1.389 . S
C1073 C1074 1.387 . S
C1074 H1059 0.930 . S
C1074 C1069 1.390 . S
C1074 C1073 1.387 . S
H1075 C1087 0.930 . S
H1076 C1089 0.930 . S
H1077 C1090 0.930 . S
H1078 C1094 0.959 . S
H1079 C1094 0.959 . S
H1080 C1094 0.961 . S
H1081 C1095 0.960 . S
H1082 C1095 0.961 . S
H1083 C1095 0.959 . S
H1084 C1098 0.929 . S
H1085 C1099 0.931 . S
H1086 C1101 0.930 . S
C1087 H1075 0.930 . S
C1087 C1088 1.399 . S
C1087 C1092 1.399 . S
C1088 C1087 1.399 . S
C1088 C1089 1.376 . S
C1089 H1076 0.930 . S
C1089 C1088 1.376 . S
C1089 C1090 1.388 . S
C1090 H1077 0.930 . S
C1090 C1089 1.388 . S
C1090 C1091 1.390 . S
C1091 C1090 1.390 . S
C1091 C1092 1.394 . S
C1091 C1097 1.465 . S
C1092 C1087 1.399 . S
C1092 C1091 1.394 . S
C1092 C1093 1.516 . S
C1093 C1092 1.516 . S
C1093 C1094 1.502 . S
C1093 C1095 1.561 . S
C1093 C1096 1.526 . S
C1094 H1078 0.959 . S
C1094 H1079 0.959 . S
C1094 H1080 0.961 . S
C1094 C1093 1.502 . S
C1095 H1081 0.960 . S
C1095 H1082 0.961 . S
C1095 H1083 0.959 . S
C1095 C1093 1.561 . S
C1096 C1093 1.526 . S
C1096 C1097 1.396 . S
C1096 C1101 1.390 . S
C1097 C1091 1.465 . S
C1097 C1096 1.396 . S
C1097 C1098 1.399 . S
C1098 H1084 0.929 . S
C1098 C1097 1.399 . S
C1098 C1099 1.385 . S
C1099 H1085 0.931 . S
C1099 C1098 1.385 . S
C1099 C1100 1.389 . S
C1100 C1099 1.389 . S
C1100 C1101 1.387 . S
C1101 H1086 0.930 . S
C1101 C1096 1.390 . S
C1101 C1100 1.387 . S
H1102 C1114 0.930 . S
H1103 C1116 0.930 . S
H1104 C1117 0.930 . S
H1105 C1121 0.959 . S
H1106 C1121 0.959 . S
H1107 C1121 0.961 . S
H1108 C1122 0.960 . S
H1109 C1122 0.961 . S
H1110 C1122 0.959 . S
H1111 C1125 0.929 . S
H1112 C1126 0.931 . S
H1113 C1128 0.930 . S
C1114 H1102 0.930 . S
C1114 C1115 1.399 . S
C1114 C1119 1.399 . S
C1115 C1114 1.399 . S
C1115 C1116 1.376 . S
C1116 H1103 0.930 . S
C1116 C1115 1.376 . S
C1116 C1117 1.388 . S
C1117 H1104 0.930 . S
C1117 C1116 1.388 . S
C1117 C1118 1.390 . S
C1118 C1117 1.390 . S
C1118 C1119 1.394 . S
C1118 C1124 1.465 . S
C1119 C1114 1.399 . S
C1119 C1118 1.394 . S
C1119 C1120 1.516 . S
C1120 C1119 1.516 . S
C1120 C1121 1.502 . S
C1120 C1122 1.561 . S
C1120 C1123 1.526 . S
C1121 H1105 0.959 . S
C1121 H1106 0.959 . S
C1121 H1107 0.961 . S
C1121 C1120 1.502 . S
C1122 H1108 0.960 . S
C1122 H1109 0.961 . S
C1122 H1110 0.959 . S
C1122 C1120 1.561 . S
C1123 C1120 1.526 . S
C1123 C1124 1.396 . S
C1123 C1128 1.390 . S
C1124 C1118 1.465 . S
C1124 C1123 1.396 . S
C1124 C1125 1.399 . S
C1125 H1111 0.929 . S
C1125 C1124 1.399 . S
C1125 C1126 1.385 . S
C1126 H1112 0.931 . S
C1126 C1125 1.385 . S
C1126 C1127 1.389 . S
C1127 C1126 1.389 . S
C1127 C1128 1.387 . S
C1128 H1113 0.930 . S
C1128 C1123 1.390 . S
C1128 C1127 1.387 . S
H1129 C1141 0.930 . S
H1130 C1143 0.930 . S
H1131 C1144 0.930 . S
H1132 C1148 0.959 . S
H1133 C1148 0.959 . S
H1134 C1148 0.961 . S
H1135 C1149 0.960 . S
H1136 C1149 0.961 . S
H1137 C1149 0.959 . S
H1138 C1152 0.929 . S
H1139 C1153 0.931 . S
H1140 C1155 0.930 . S
C1141 H1129 0.930 . S
C1141 C1142 1.399 . S
C1141 C1146 1.399 . S
C1142 C1141 1.399 . S
C1142 C1143 1.376 . S
C1143 H1130 0.930 . S
C1143 C1142 1.376 . S
C1143 C1144 1.388 . S
C1144 H1131 0.930 . S
C1144 C1143 1.388 . S
C1144 C1145 1.390 . S
C1145 C1144 1.390 . S
C1145 C1146 1.394 . S
C1145 C1151 1.465 . S
C1146 C1141 1.399 . S
C1146 C1145 1.394 . S
C1146 C1147 1.516 . S
C1147 C1146 1.516 . S
C1147 C1148 1.502 . S
C1147 C1149 1.561 . S
C1147 C1150 1.526 . S
C1148 H1132 0.959 . S
C1148 H1133 0.959 . S
C1148 H1134 0.961 . S
C1148 C1147 1.502 . S
C1149 H1135 0.960 . S
C1149 H1136 0.961 . S
C1149 H1137 0.959 . S
C1149 C1147 1.561 . S
C1150 C1147 1.526 . S
C1150 C1151 1.396 . S
C1150 C1155 1.390 . S
C1151 C1145 1.465 . S
C1151 C1150 1.396 . S
C1151 C1152 1.399 . S
C1152 H1138 0.929 . S
C1152 C1151 1.399 . S
C1152 C1153 1.385 . S
C1153 H1139 0.931 . S
C1153 C1152 1.385 . S
C1153 C1154 1.389 . S
C1154 C1153 1.389 . S
C1154 C1155 1.387 . S
C1155 H1140 0.930 . S
C1155 C1150 1.390 . S
C1155 C1154 1.387 . S
H1156 C1168 0.930 . S
H1157 C1170 0.930 . S
H1158 C1171 0.930 . S
H1159 C1175 0.959 . S
H1160 C1175 0.959 . S
H1161 C1175 0.961 . S
H1162 C1176 0.960 . S
H1163 C1176 0.961 . S
H1164 C1176 0.959 . S
H1165 C1179 0.929 . S
H1166 C1180 0.931 . S
H1167 C1182 0.930 . S
C1168 H1156 0.930 . S
C1168 C1169 1.399 . S
C1168 C1173 1.399 . S
C1169 C1168 1.399 . S
C1169 C1170 1.376 . S
C1170 H1157 0.930 . S
C1170 C1169 1.376 . S
C1170 C1171 1.388 . S
C1171 H1158 0.930 . S
C1171 C1170 1.388 . S
C1171 C1172 1.390 . S
C1172 C1171 1.390 . S
C1172 C1173 1.394 . S
C1172 C1178 1.465 . S
C1173 C1168 1.399 . S
C1173 C1172 1.394 . S
C1173 C1174 1.516 . S
C1174 C1173 1.516 . S
C1174 C1175 1.502 . S
C1174 C1176 1.561 . S
C1174 C1177 1.526 . S
C1175 H1159 0.959 . S
C1175 H1160 0.959 . S
C1175 H1161 0.961 . S
C1175 C1174 1.502 . S
C1176 H1162 0.960 . S
C1176 H1163 0.961 . S
C1176 H1164 0.959 . S
C1176 C1174 1.561 . S
C1177 C1174 1.526 . S
C1177 C1178 1.396 . S
C1177 C1182 1.390 . S
C1178 C1172 1.465 . S
C1178 C1177 1.396 . S
C1178 C1179 1.399 . S
C1179 H1165 0.929 . S
C1179 C1178 1.399 . S
C1179 C1180 1.385 . S
C1180 H1166 0.931 . S
C1180 C1179 1.385 . S
C1180 C1181 1.389 . S
C1181 C1180 1.389 . S
C1181 C1182 1.387 . S
C1182 H1167 0.930 . S
C1182 C1177 1.390 . S
C1182 C1181 1.387 . S
H1183 C1195 0.930 . S
H1184 C1197 0.930 . S
H1185 C1198 0.930 . S
H1186 C1202 0.959 . S
H1187 C1202 0.959 . S
H1188 C1202 0.961 . S
H1189 C1203 0.960 . S
H1190 C1203 0.961 . S
H1191 C1203 0.959 . S
H1192 C1206 0.929 . S
H1193 C1207 0.931 . S
H1194 C1209 0.930 . S
C1195 H1183 0.930 . S
C1195 C1196 1.399 . S
C1195 C1200 1.399 . S
C1196 C1195 1.399 . S
C1196 C1197 1.376 . S
C1197 H1184 0.930 . S
C1197 C1196 1.376 . S
C1197 C1198 1.388 . S
C1198 H1185 0.930 . S
C1198 C1197 1.388 . S
C1198 C1199 1.390 . S
C1199 C1198 1.390 . S
C1199 C1200 1.394 . S
C1199 C1205 1.465 . S
C1200 C1195 1.399 . S
C1200 C1199 1.394 . S
C1200 C1201 1.516 . S
C1201 C1200 1.516 . S
C1201 C1202 1.502 . S
C1201 C1203 1.561 . S
C1201 C1204 1.526 . S
C1202 H1186 0.959 . S
C1202 H1187 0.959 . S
C1202 H1188 0.961 . S
C1202 C1201 1.502 . S
C1203 H1189 0.960 . S
C1203 H1190 0.961 . S
C1203 H1191 0.959 . S
C1203 C1201 1.561 . S
C1204 C1201 1.526 . S
C1204 C1205 1.396 . S
C1204 C1209 1.390 . S
C1205 C1199 1.465 . S
C1205 C1204 1.396 . S
C1205 C1206 1.399 . S
C1206 H1192 0.929 . S
C1206 C1205 1.399 . S
C1206 C1207 1.385 . S
C1207 H1193 0.931 . S
C1207 C1206 1.385 . S
C1207 C1208 1.389 . S
C1208 C1207 1.389 . S
C1208 C1209 1.387 . S
C1209 H1194 0.930 . S
C1209 C1204 1.390 . S
C1209 C1208 1.387 . S
H1210 C1222 0.930 . S
H1211 C1224 0.930 . S
H1212 C1225 0.930 . S
H1213 C1229 0.959 . S
H1214 C1229 0.959 . S
H1215 C1229 0.961 . S
H1216 C1230 0.960 . S
H1217 C1230 0.961 . S
H1218 C1230 0.959 . S
H1219 C1233 0.929 . S
H1220 C1234 0.931 . S
H1221 C1236 0.930 . S
C1222 H1210 0.930 . S
C1222 C1223 1.399 . S
C1222 C1227 1.399 . S
C1223 C1222 1.399 . S
C1223 C1224 1.376 . S
C1224 H1211 0.930 . S
C1224 C1223 1.376 . S
C1224 C1225 1.388 . S
C1225 H1212 0.930 . S
C1225 C1224 1.388 . S
C1225 C1226 1.390 . S
C1226 C1225 1.390 . S
C1226 C1227 1.394 . S
C1226 C1232 1.465 . S
C1227 C1222 1.399 . S
C1227 C1226 1.394 . S
C1227 C1228 1.516 . S
C1228 C1227 1.516 . S
C1228 C1229 1.502 . S
C1228 C1230 1.561 . S
C1228 C1231 1.526 . S
C1229 H1213 0.959 . S
C1229 H1214 0.959 . S
C1229 H1215 0.961 . S
C1229 C1228 1.502 . S
C1230 H1216 0.960 . S
C1230 H1217 0.961 . S
C1230 H1218 0.959 . S
C1230 C1228 1.561 . S
C1231 C1228 1.526 . S
C1231 C1232 1.396 . S
C1231 C1236 1.390 . S
C1232 C1226 1.465 . S
C1232 C1231 1.396 . S
C1232 C1233 1.399 . S
C1233 H1219 0.929 . S
C1233 C1232 1.399 . S
C1233 C1234 1.385 . S
C1234 H1220 0.931 . S
C1234 C1233 1.385 . S
C1234 C1235 1.389 . S
C1235 C1234 1.389 . S
C1235 C1236 1.387 . S
C1236 H1221 0.930 . S
C1236 C1231 1.390 . S
C1236 C1235 1.387 . S
H1237 C1249 0.930 . S
H1238 C1251 0.930 . S
H1239 C1252 0.930 . S
H1240 C1256 0.959 . S
H1241 C1256 0.959 . S
H1242 C1256 0.961 . S
H1243 C1257 0.960 . S
H1244 C1257 0.961 . S
H1245 C1257 0.959 . S
H1246 C1260 0.929 . S
H1247 C1261 0.931 . S
H1248 C1263 0.930 . S
C1249 H1237 0.930 . S
C1249 C1250 1.399 . S
C1249 C1254 1.399 . S
C1250 C1249 1.399 . S
C1250 C1251 1.376 . S
C1251 H1238 0.930 . S
C1251 C1250 1.376 . S
C1251 C1252 1.388 . S
C1252 H1239 0.930 . S
C1252 C1251 1.388 . S
C1252 C1253 1.390 . S
C1253 C1252 1.390 . S
C1253 C1254 1.394 . S
C1253 C1259 1.465 . S
C1254 C1249 1.399 . S
C1254 C1253 1.394 . S
C1254 C1255 1.516 . S
C1255 C1254 1.516 . S
C1255 C1256 1.502 . S
C1255 C1257 1.561 . S
C1255 C1258 1.526 . S
C1256 H1240 0.959 . S
C1256 H1241 0.959 . S
C1256 H1242 0.961 . S
C1256 C1255 1.502 . S
C1257 H1243 0.960 . S
C1257 H1244 0.961 . S
C1257 H1245 0.959 . S
C1257 C1255 1.561 . S
C1258 C1255 1.526 . S
C1258 C1259 1.396 . S
C1258 C1263 1.390 . S
C1259 C1253 1.465 . S
C1259 C1258 1.396 . S
C1259 C1260 1.399 . S
C1260 H1246 0.929 . S
C1260 C1259 1.399 . S
C1260 C1261 1.385 . S
C1261 H1247 0.931 . S
C1261 C1260 1.385 . S
C1261 C1262 1.389 . S
C1262 C1261 1.389 . S
C1262 C1263 1.387 . S
C1263 H1248 0.930 . S
C1263 C1258 1.390 . S
C1263 C1262 1.387 . S
H1264 C1276 0.930 . S
H1265 C1278 0.930 . S
H1266 C1279 0.930 . S
H1267 C1283 0.959 . S
H1268 C1283 0.959 . S
H1269 C1283 0.961 . S
H1270 C1284 0.960 . S
H1271 C1284 0.961 . S
H1272 C1284 0.959 . S
H1273 C1287 0.929 . S
H1274 C1288 0.931 . S
H1275 C1290 0.930 . S
C1276 H1264 0.930 . S
C1276 C1277 1.399 . S
C1276 C1281 1.399 . S
C1277 C1276 1.399 . S
C1277 C1278 1.376 . S
C1278 H1265 0.930 . S
C1278 C1277 1.376 . S
C1278 C1279 1.388 . S
C1279 H1266 0.930 . S
C1279 C1278 1.388 . S
C1279 C1280 1.390 . S
C1280 C1279 1.390 . S
C1280 C1281 1.394 . S
C1280 C1286 1.465 . S
C1281 C1276 1.399 . S
C1281 C1280 1.394 . S
C1281 C1282 1.516 . S
C1282 C1281 1.516 . S
C1282 C1283 1.502 . S
C1282 C1284 1.561 . S
C1282 C1285 1.526 . S
C1283 H1267 0.959 . S
C1283 H1268 0.959 . S
C1283 H1269 0.961 . S
C1283 C1282 1.502 . S
C1284 H1270 0.960 . S
C1284 H1271 0.961 . S
C1284 H1272 0.959 . S
C1284 C1282 1.561 . S
C1285 C1282 1.526 . S
C1285 C1286 1.396 . S
C1285 C1290 1.390 . S
C1286 C1280 1.465 . S
C1286 C1285 1.396 . S
C1286 C1287 1.399 . S
C1287 H1273 0.929 . S
C1287 C1286 1.399 . S
C1287 C1288 1.385 . S
C1288 H1274 0.931 . S
C1288 C1287 1.385 . S
C1288 C1289 1.389 . S
C1289 C1288 1.389 . S
C1289 C1290 1.387 . S
C1290 H1275 0.930 . S
C1290 C1285 1.390 . S
C1290 C1289 1.387 . S
H1291 C1303 0.930 . S
H1292 C1305 0.930 . S
H1293 C1306 0.930 . S
H1294 C1310 0.959 . S
H1295 C1310 0.959 . S
H1296 C1310 0.961 . S
H1297 C1311 0.960 . S
H1298 C1311 0.961 . S
H1299 C1311 0.959 . S
H1300 C1314 0.929 . S
H1301 C1315 0.931 . S
H1302 C1317 0.930 . S
C1303 H1291 0.930 . S
C1303 C1304 1.399 . S
C1303 C1308 1.399 . S
C1304 C1303 1.399 . S
C1304 C1305 1.376 . S
C1305 H1292 0.930 . S
C1305 C1304 1.376 . S
C1305 C1306 1.388 . S
C1306 H1293 0.930 . S
C1306 C1305 1.388 . S
C1306 C1307 1.390 . S
C1307 C1306 1.390 . S
C1307 C1308 1.394 . S
C1307 C1313 1.465 . S
C1308 C1303 1.399 . S
C1308 C1307 1.394 . S
C1308 C1309 1.516 . S
C1309 C1308 1.516 . S
C1309 C1310 1.502 . S
C1309 C1311 1.561 . S
C1309 C1312 1.526 . S
C1310 H1294 0.959 . S
C1310 H1295 0.959 . S
C1310 H1296 0.961 . S
C1310 C1309 1.502 . S
C1311 H1297 0.960 . S
C1311 H1298 0.961 . S
C1311 H1299 0.959 . S
C1311 C1309 1.561 . S
C1312 C1309 1.526 . S
C1312 C1313 1.396 . S
C1312 C1317 1.390 . S
C1313 C1307 1.465 . S
C1313 C1312 1.396 . S
C1313 C1314 1.399 . S
C1314 H1300 0.929 . S
C1314 C1313 1.399 . S
C1314 C1315 1.385 . S
C1315 H1301 0.931 . S
C1315 C1314 1.385 . S
C1315 C1316 1.389 . S
C1316 C1315 1.389 . S
C1316 C1317 1.387 . S
C1317 H1302 0.930 . S
C1317 C1312 1.390 . S
C1317 C1316 1.387 . S
H1318 C1330 0.930 . S
H1319 C1332 0.930 . S
H1320 C1333 0.930 . S
H1321 C1337 0.959 . S
H1322 C1337 0.959 . S
H1323 C1337 0.961 . S
H1324 C1338 0.960 . S
H1325 C1338 0.961 . S
H1326 C1338 0.959 . S
H1327 C1341 0.929 . S
H1328 C1342 0.931 . S
H1329 C1344 0.930 . S
C1330 H1318 0.930 . S
C1330 C1331 1.399 . S
C1330 C1335 1.399 . S
C1331 C1330 1.399 . S
C1331 C1332 1.376 . S
C1332 H1319 0.930 . S
C1332 C1331 1.376 . S
C1332 C1333 1.388 . S
C1333 H1320 0.930 . S
C1333 C1332 1.388 . S
C1333 C1334 1.390 . S
C1334 C1333 1.390 . S
C1334 C1335 1.394 . S
C1334 C1340 1.465 . S
C1335 C1330 1.399 . S
C1335 C1334 1.394 . S
C1335 C1336 1.516 . S
C1336 C1335 1.516 . S
C1336 C1337 1.502 . S
C1336 C1338 1.561 . S
C1336 C1339 1.526 . S
C1337 H1321 0.959 . S
C1337 H1322 0.959 . S
C1337 H1323 0.961 . S
C1337 C1336 1.502 . S
C1338 H1324 0.960 . S
C1338 H1325 0.961 . S
C1338 H1326 0.959 . S
C1338 C1336 1.561 . S
C1339 C1336 1.526 . S
C1339 C1340 1.396 . S
C1339 C1344 1.390 . S
C1340 C1334 1.465 . S
C1340 C1339 1.396 . S
C1340 C1341 1.399 . S
C1341 H1327 0.929 . S
C1341 C1340 1.399 . S
C1341 C1342 1.385 . S
C1342 H1328 0.931 . S
C1342 C1341 1.385 . S
C1342 C1343 1.389 . S
C1343 C1342 1.389 . S
C1343 C1344 1.387 . S
C1344 H1329 0.930 . S
C1344 C1339 1.390 . S
C1344 C1343 1.387 . S
H1345 C1357 0.930 . S
H1346 C1359 0.930 . S
H1347 C1360 0.930 . S
H1348 C1364 0.959 . S
H1349 C1364 0.959 . S
H1350 C1364 0.961 . S
H1351 C1365 0.960 . S
H1352 C1365 0.961 . S
H1353 C1365 0.959 . S
H1354 C1368 0.929 . S
H1355 C1369 0.931 . S
H1356 C1371 0.930 . S
C1357 H1345 0.930 . S
C1357 C1358 1.399 . S
C1357 C1362 1.399 . S
C1358 C1357 1.399 . S
C1358 C1359 1.376 . S
C1359 H1346 0.930 . S
C1359 C1358 1.376 . S
C1359 C1360 1.388 . S
C1360 H1347 0.930 . S
C1360 C1359 1.388 . S
C1360 C1361 1.390 . S
C1361 C1360 1.390 . S
C1361 C1362 1.394 . S
C1361 C1367 1.465 . S
C1362 C1357 1.399 . S
C1362 C1361 1.394 . S
C1362 C1363 1.516 . S
C1363 C1362 1.516 . S
C1363 C1364 1.502 . S
C1363 C1365 1.561 . S
C1363 C1366 1.526 . S
C1364 H1348 0.959 . S
C1364 H1349 0.959 . S
C1364 H1350 0.961 . S
C1364 C1363 1.502 . S
C1365 H1351 0.960 . S
C1365 H1352 0.961 . S
C1365 H1353 0.959 . S
C1365 C1363 1.561 . S
C1366 C1363 1.526 . S
C1366 C1367 1.396 . S
C1366 C1371 1.390 . S
C1367 C1361 1.465 . S
C1367 C1366 1.396 . S
C1367 C1368 1.399 . S
C1368 H1354 0.929 . S
C1368 C1367 1.399 . S
C1368 C1369 1.385 . S
C1369 H1355 0.931 . S
C1369 C1368 1.385 . S
C1369 C1370 1.389 . S
C1370 C1369 1.389 . S
C1370 C1371 1.387 . S
C1371 H1356 0.930 . S
C1371 C1366 1.390 . S
C1371 C1370 1.387 . S
H1372 C1384 0.930 . S
H1373 C1386 0.930 . S
H1374 C1387 0.930 . S
H1375 C1391 0.959 . S
H1376 C1391 0.959 . S
H1377 C1391 0.961 . S
H1378 C1392 0.960 . S
H1379 C1392 0.961 . S
H1380 C1392 0.959 . S
H1381 C1395 0.929 . S
H1382 C1396 0.931 . S
H1383 C1398 0.930 . S
C1384 H1372 0.930 . S
C1384 C1385 1.399 . S
C1384 C1389 1.399 . S
C1385 C1384 1.399 . S
C1385 C1386 1.376 . S
C1386 H1373 0.930 . S
C1386 C1385 1.376 . S
C1386 C1387 1.388 . S
C1387 H1374 0.930 . S
C1387 C1386 1.388 . S
C1387 C1388 1.390 . S
C1388 C1387 1.390 . S
C1388 C1389 1.394 . S
C1388 C1394 1.465 . S
C1389 C1384 1.399 . S
C1389 C1388 1.394 . S
C1389 C1390 1.516 . S
C1390 C1389 1.516 . S
C1390 C1391 1.502 . S
C1390 C1392 1.561 . S
C1390 C1393 1.526 . S
C1391 H1375 0.959 . S
C1391 H1376 0.959 . S
C1391 H1377 0.961 . S
C1391 C1390 1.502 . S
C1392 H1378 0.960 . S
C1392 H1379 0.961 . S
C1392 H1380 0.959 . S
C1392 C1390 1.561 . S
C1393 C1390 1.526 . S
C1393 C1394 1.396 . S
C1393 C1398 1.390 . S
C1394 C1388 1.465 . S
C1394 C1393 1.396 . S
C1394 C1395 1.399 . S
C1395 H1381 0.929 . S
C1395 C1394 1.399 . S
C1395 C1396 1.385 . S
C1396 H1382 0.931 . S
C1396 C1395 1.385 . S
C1396 C1397 1.389 . S
C1397 C1396 1.389 . S
C1397 C1398 1.387 . S
C1398 H1383 0.930 . S
C1398 C1393 1.390 . S
C1398 C1397 1.387 . S
H1399 C1411 0.930 . S
H1400 C1413 0.930 . S
H1401 C1414 0.930 . S
H1402 C1418 0.959 . S
H1403 C1418 0.959 . S
H1404 C1418 0.961 . S
H1405 C1419 0.960 . S
H1406 C1419 0.961 . S
H1407 C1419 0.959 . S
H1408 C1422 0.929 . S
H1409 C1423 0.931 . S
H1410 C1425 0.930 . S
C1411 H1399 0.930 . S
C1411 C1412 1.399 . S
C1411 C1416 1.399 . S
C1412 C1411 1.399 . S
C1412 C1413 1.376 . S
C1413 H1400 0.930 . S
C1413 C1412 1.376 . S
C1413 C1414 1.388 . S
C1414 H1401 0.930 . S
C1414 C1413 1.388 . S
C1414 C1415 1.390 . S
C1415 C1414 1.390 . S
C1415 C1416 1.394 . S
C1415 C1421 1.465 . S
C1416 C1411 1.399 . S
C1416 C1415 1.394 . S
C1416 C1417 1.516 . S
C1417 C1416 1.516 . S
C1417 C1418 1.502 . S
C1417 C1419 1.561 . S
C1417 C1420 1.526 . S
C1418 H1402 0.959 . S
C1418 H1403 0.959 . S
C1418 H1404 0.961 . S
C1418 C1417 1.502 . S
C1419 H1405 0.960 . S
C1419 H1406 0.961 . S
C1419 H1407 0.959 . S
C1419 C1417 1.561 . S
C1420 C1417 1.526 . S
C1420 C1421 1.396 . S
C1420 C1425 1.390 . S
C1421 C1415 1.465 . S
C1421 C1420 1.396 . S
C1421 C1422 1.399 . S
C1422 H1408 0.929 . S
C1422 C1421 1.399 . S
C1422 C1423 1.385 . S
C1423 H1409 0.931 . S
C1423 C1422 1.385 . S
C1423 C1424 1.389 . S
C1424 C1423 1.389 . S
C1424 C1425 1.387 . S
C1425 H1410 0.930 . S
C1425 C1420 1.390 . S
C1425 C1424 1.387 . S
H1426 C1438 0.930 . S
H1427 C1440 0.930 . S
H1428 C1441 0.930 . S
H1429 C1445 0.959 . S
H1430 C1445 0.959 . S
H1431 C1445 0.961 . S
H1432 C1446 0.960 . S
H1433 C1446 0.961 . S
H1434 C1446 0.959 . S
H1435 C1449 0.929 . S
H1436 C1450 0.931 . S
H1437 C1452 0.930 . S
C1438 H1426 0.930 . S
C1438 C1439 1.399 . S
C1438 C1443 1.399 . S
C1439 C1438 1.399 . S
C1439 C1440 1.376 . S
C1440 H1427 0.930 . S
C1440 C1439 1.376 . S
C1440 C1441 1.388 . S
C1441 H1428 0.930 . S
C1441 C1440 1.388 . S
C1441 C1442 1.390 . S
C1442 C1441 1.390 . S
C1442 C1443 1.394 . S
C1442 C1448 1.465 . S
C1443 C1438 1.399 . S
C1443 C1442 1.394 . S
C1443 C1444 1.516 . S
C1444 C1443 1.516 . S
C1444 C1445 1.502 . S
C1444 C1446 1.561 . S
C1444 C1447 1.526 . S
C1445 H1429 0.959 . S
C1445 H1430 0.959 . S
C1445 H1431 0.961 . S
C1445 C1444 1.502 . S
C1446 H1432 0.960 . S
C1446 H1433 0.961 . S
C1446 H1434 0.959 . S
C1446 C1444 1.561 . S
C1447 C1444 1.526 . S
C1447 C1448 1.396 . S
C1447 C1452 1.390 . S
C1448 C1442 1.465 . S
C1448 C1447 1.396 . S
C1448 C1449 1.399 . S
C1449 H1435 0.929 . S
C1449 C1448 1.399 . S
C1449 C1450 1.385 . S
C1450 H1436 0.931 . S
C1450 C1449 1.385 . S
C1450 C1451 1.389 . S
C1451 C1450 1.389 . S
C1451 C1452 1.387 . S
C1452 H1437 0.930 . S
C1452 C1447 1.390 . S
C1452 C1451 1.387 . S
H1453 C1465 0.930 . S
H1454 C1467 0.930 . S
H1455 C1468 0.930 . S
H1456 C1472 0.959 . S
H1457 C1472 0.959 . S
H1458 C1472 0.961 . S
H1459 C1473 0.960 . S
H1460 C1473 0.961 . S
H1461 C1473 0.959 . S
H1462 C1476 0.929 . S
H1463 C1477 0.931 . S
H1464 C1479 0.930 . S
C1465 H1453 0.930 . S
C1465 C1466 1.399 . S
C1465 C1470 1.399 . S
C1466 C1465 1.399 . S
C1466 C1467 1.376 . S
C1467 H1454 0.930 . S
C1467 C1466 1.376 . S
C1467 C1468 1.388 . S
C1468 H1455 0.930 . S
C1468 C1467 1.388 . S
C1468 C1469 1.390 . S
C1469 C1468 1.390 . S
C1469 C1470 1.394 . S
C1469 C1475 1.465 . S
C1470 C1465 1.399 . S
C1470 C1469 1.394 . S
C1470 C1471 1.516 . S
C1471 C1470 1.516 . S
C1471 C1472 1.502 . S
C1471 C1473 1.561 . S
C1471 C1474 1.526 . S
C1472 H1456 0.959 . S
C1472 H1457 0.959 . S
C1472 H1458 0.961 . S
C1472 C1471 1.502 . S
C1473 H1459 0.960 . S
C1473 H1460 0.961 . S
C1473 H1461 0.959 . S
C1473 C1471 1.561 . S
C1474 C1471 1.526 . S
C1474 C1475 1.396 . S
C1474 C1479 1.390 . S
C1475 C1469 1.465 . S
C1475 C1474 1.396 . S
C1475 C1476 1.399 . S
C1476 H1462 0.929 . S
C1476 C1475 1.399 . S
C1476 C1477 1.385 . S
C1477 H1463 0.931 . S
C1477 C1476 1.385 . S
C1477 C1478 1.389 . S
C1478 C1477 1.389 . S
C1478 C1479 1.387 . S
C1479 H1464 0.930 . S
C1479 C1474 1.390 . S
C1479 C1478 1.387 . S
H1480 C1492 0.930 . S
H1481 C1494 0.930 . S
H1482 C1495 0.930 . S
H1483 C1499 0.959 . S
H1484 C1499 0.959 . S
H1485 C1499 0.961 . S
H1486 C1500 0.960 . S
H1487 C1500 0.961 . S
H1488 C1500 0.959 . S
H1489 C1503 0.929 . S
H1490 C1504 0.931 . S
H1491 C1506 0.930 . S
C1492 H1480 0.930 . S
C1492 C1493 1.399 . S
C1492 C1497 1.399 . S
C1493 C1492 1.399 . S
C1493 C1494 1.376 . S
C1494 H1481 0.930 . S
C1494 C1493 1.376 . S
C1494 C1495 1.388 . S
C1495 H1482 0.930 . S
C1495 C1494 1.388 . S
C1495 C1496 1.390 . S
C1496 C1495 1.390 . S
C1496 C1497 1.394 . S
C1496 C1502 1.465 . S
C1497 C1492 1.399 . S
C1497 C1496 1.394 . S
C1497 C1498 1.516 . S
C1498 C1497 1.516 . S
C1498 C1499 1.502 . S
C1498 C1500 1.561 . S
C1498 C1501 1.526 . S
C1499 H1483 0.959 . S
C1499 H1484 0.959 . S
C1499 H1485 0.961 . S
C1499 C1498 1.502 . S
C1500 H1486 0.960 . S
C1500 H1487 0.961 . S
C1500 H1488 0.959 . S
C1500 C1498 1.561 . S
C1501 C1498 1.526 . S
C1501 C1502 1.396 . S
C1501 C1506 1.390 . S
C1502 C1496 1.465 . S
C1502 C1501 1.396 . S
C1502 C1503 1.399 . S
C1503 H1489 0.929 . S
C1503 C1502 1.399 . S
C1503 C1504 1.385 . S
C1504 H1490 0.931 . S
C1504 C1503 1.385 . S
C1504 C1505 1.389 . S
C1505 C1504 1.389 . S
C1505 C1506 1.387 . S
C1506 H1491 0.930 . S
C1506 C1501 1.390 . S
C1506 C1505 1.387 . S
H1507 C1519 0.930 . S
H1508 C1521 0.930 . S
H1509 C1522 0.930 . S
H1510 C1526 0.959 . S
H1511 C1526 0.959 . S
H1512 C1526 0.961 . S
H1513 C1527 0.960 . S
H1514 C1527 0.961 . S
H1515 C1527 0.959 . S
H1516 C1530 0.929 . S
H1517 C1531 0.931 . S
H1518 C1533 0.930 . S
C1519 H1507 0.930 . S
C1519 C1520 1.399 . S
C1519 C1524 1.399 . S
C1520 C1519 1.399 . S
C1520 C1521 1.376 . S
C1521 H1508 0.930 . S
C1521 C1520 1.376 . S
C1521 C1522 1.388 . S
C1522 H1509 0.930 . S
C1522 C1521 1.388 . S
C1522 C1523 1.390 . S
C1523 C1522 1.390 . S
C1523 C1524 1.394 . S
C1523 C1529 1.465 . S
C1524 C1519 1.399 . S
C1524 C1523 1.394 . S
C1524 C1525 1.516 . S
C1525 C1524 1.516 . S
C1525 C1526 1.502 . S
C1525 C1527 1.561 . S
C1525 C1528 1.526 . S
C1526 H1510 0.959 . S
C1526 H1511 0.959 . S
C1526 H1512 0.961 . S
C1526 C1525 1.502 . S
C1527 H1513 0.960 . S
C1527 H1514 0.961 . S
C1527 H1515 0.959 . S
C1527 C1525 1.561 . S
C1528 C1525 1.526 . S
C1528 C1529 1.396 . S
C1528 C1533 1.390 . S
C1529 C1523 1.465 . S
C1529 C1528 1.396 . S
C1529 C1530 1.399 . S
C1530 H1516 0.929 . S
C1530 C1529 1.399 . S
C1530 C1531 1.385 . S
C1531 H1517 0.931 . S
C1531 C1530 1.385 . S
C1531 C1532 1.389 . S
C1532 C1531 1.389 . S
C1532 C1533 1.387 . S
C1533 H1518 0.930 . S
C1533 C1528 1.390 . S
C1533 C1532 1.387 . S
H1534 C1546 0.930 . S
H1535 C1548 0.930 . S
H1536 C1549 0.930 . S
H1537 C1553 0.959 . S
H1538 C1553 0.959 . S
H1539 C1553 0.961 . S
H1540 C1554 0.960 . S
H1541 C1554 0.961 . S
H1542 C1554 0.959 . S
H1543 C1557 0.929 . S
H1544 C1558 0.931 . S
H1545 C1560 0.930 . S
C1546 H1534 0.930 . S
C1546 C1547 1.399 . S
C1546 C1551 1.399 . S
C1547 C1546 1.399 . S
C1547 C1548 1.376 . S
C1548 H1535 0.930 . S
C1548 C1547 1.376 . S
C1548 C1549 1.388 . S
C1549 H1536 0.930 . S
C1549 C1548 1.388 . S
C1549 C1550 1.390 . S
C1550 C1549 1.390 . S
C1550 C1551 1.394 . S
C1550 C1556 1.465 . S
C1551 C1546 1.399 . S
C1551 C1550 1.394 . S
C1551 C1552 1.516 . S
C1552 C1551 1.516 . S
C1552 C1553 1.502 . S
C1552 C1554 1.561 . S
C1552 C1555 1.526 . S
C1553 H1537 0.959 . S
C1553 H1538 0.959 . S
C1553 H1539 0.961 . S
C1553 C1552 1.502 . S
C1554 H1540 0.960 . S
C1554 H1541 0.961 . S
C1554 H1542 0.959 . S
C1554 C1552 1.561 . S
C1555 C1552 1.526 . S
C1555 C1556 1.396 . S
C1555 C1560 1.390 . S
C1556 C1550 1.465 . S
C1556 C1555 1.396 . S
C1556 C1557 1.399 . S
C1557 H1543 0.929 . S
C1557 C1556 1.399 . S
C1557 C1558 1.385 . S
C1558 H1544 0.931 . S
C1558 C1557 1.385 . S
C1558 C1559 1.389 . S
C1559 C1558 1.389 . S
C1559 C1560 1.387 . S
C1560 H1545 0.930 . S
C1560 C1555 1.390 . S
C1560 C1559 1.387 . S
H1561 C1573 0.930 . S
H1562 C1575 0.930 . S
H1563 C1576 0.930 . S
H1564 C1580 0.959 . S
H1565 C1580 0.959 . S
H1566 C1580 0.961 . S
H1567 C1581 0.960 . S
H1568 C1581 0.961 . S
H1569 C1581 0.959 . S
H1570 C1584 0.929 . S
H1571 C1585 0.931 . S
H1572 C1587 0.930 . S
C1573 H1561 0.930 . S
C1573 C1574 1.399 . S
C1573 C1578 1.399 . S
C1574 C1573 1.399 . S
C1574 C1575 1.376 . S
C1575 H1562 0.930 . S
C1575 C1574 1.376 . S
C1575 C1576 1.388 . S
C1576 H1563 0.930 . S
C1576 C1575 1.388 . S
C1576 C1577 1.390 . S
C1577 C1576 1.390 . S
C1577 C1578 1.394 . S
C1577 C1583 1.465 . S
C1578 C1573 1.399 . S
C1578 C1577 1.394 . S
C1578 C1579 1.516 . S
C1579 C1578 1.516 . S
C1579 C1580 1.502 . S
C1579 C1581 1.561 . S
C1579 C1582 1.526 . S
C1580 H1564 0.959 . S
C1580 H1565 0.959 . S
C1580 H1566 0.961 . S
C1580 C1579 1.502 . S
C1581 H1567 0.960 . S
C1581 H1568 0.961 . S
C1581 H1569 0.959 . S
C1581 C1579 1.561 . S
C1582 C1579 1.526 . S
C1582 C1583 1.396 . S
C1582 C1587 1.390 . S
C1583 C1577 1.465 . S
C1583 C1582 1.396 . S
C1583 C1584 1.399 . S
C1584 H1570 0.929 . S
C1584 C1583 1.399 . S
C1584 C1585 1.385 . S
C1585 H1571 0.931 . S
C1585 C1584 1.385 . S
C1585 C1586 1.389 . S
C1586 C1585 1.389 . S
C1586 C1587 1.387 . S
C1587 H1572 0.930 . S
C1587 C1582 1.390 . S
C1587 C1586 1.387 . S
H1588 C1600 0.930 . S
H1589 C1602 0.930 . S
H1590 C1603 0.930 . S
H1591 C1607 0.959 . S
H1592 C1607 0.959 . S
H1593 C1607 0.961 . S
H1594 C1608 0.960 . S
H1595 C1608 0.961 . S
H1596 C1608 0.959 . S
H1597 C1611 0.929 . S
H1598 C1612 0.931 . S
H1599 C1614 0.930 . S
C1600 H1588 0.930 . S
C1600 C1601 1.399 . S
C1600 C1605 1.399 . S
C1601 C1600 1.399 . S
C1601 C1602 1.376 . S
C1602 H1589 0.930 . S
C1602 C1601 1.376 . S
C1602 C1603 1.388 . S
C1603 H1590 0.930 . S
C1603 C1602 1.388 . S
C1603 C1604 1.390 . S
C1604 C1603 1.390 . S
C1604 C1605 1.394 . S
C1604 C1610 1.465 . S
C1605 C1600 1.399 . S
C1605 C1604 1.394 . S
C1605 C1606 1.516 . S
C1606 C1605 1.516 . S
C1606 C1607 1.502 . S
C1606 C1608 1.561 . S
C1606 C1609 1.526 . S
C1607 H1591 0.959 . S
C1607 H1592 0.959 . S
C1607 H1593 0.961 . S
C1607 C1606 1.502 . S
C1608 H1594 0.960 . S
C1608 H1595 0.961 . S
C1608 H1596 0.959 . S
C1608 C1606 1.561 . S
C1609 C1606 1.526 . S
C1609 C1610 1.396 . S
C1609 C1614 1.390 . S
C1610 C1604 1.465 . S
C1610 C1609 1.396 . S
C1610 C1611 1.399 . S
C1611 H1597 0.929 . S
C1611 C1610 1.399 . S
C1611 C1612 1.385 . S
C1612 H1598 0.931 . S
C1612 C1611 1.385 . S
C1612 C1613 1.389 . S
C1613 C1612 1.389 . S
C1613 C1614 1.387 . S
C1614 H1599 0.930 . S
C1614 C1609 1.390 . S
C1614 C1613 1.387 . S
H1615 C1627 0.930 . S
H1616 C1629 0.930 . S
H1617 C1630 0.930 . S
H1618 C1634 0.959 . S
H1619 C1634 0.959 . S
H1620 C1634 0.961 . S
H1621 C1635 0.960 . S
H1622 C1635 0.961 . S
H1623 C1635 0.959 . S
H1624 C1638 0.929 . S
H1625 C1639 0.931 . S
H1626 C1641 0.930 . S
C1627 H1615 0.930 . S
C1627 C1628 1.399 . S
C1627 C1632 1.399 . S
C1628 C1627 1.399 . S
C1628 C1629 1.376 . S
C1629 H1616 0.930 . S
C1629 C1628 1.376 . S
C1629 C1630 1.388 . S
C1630 H1617 0.930 . S
C1630 C1629 1.388 . S
C1630 C1631 1.390 . S
C1631 C1630 1.390 . S
C1631 C1632 1.394 . S
C1631 C1637 1.465 . S
C1632 C1627 1.399 . S
C1632 C1631 1.394 . S
C1632 C1633 1.516 . S
C1633 C1632 1.516 . S
C1633 C1634 1.502 . S
C1633 C1635 1.561 . S
C1633 C1636 1.526 . S
C1634 H1618 0.959 . S
C1634 H1619 0.959 . S
C1634 H1620 0.961 . S
C1634 C1633 1.502 . S
C1635 H1621 0.960 . S
C1635 H1622 0.961 . S
C1635 H1623 0.959 . S
C1635 C1633 1.561 . S
C1636 C1633 1.526 . S
C1636 C1637 1.396 . S
C1636 C1641 1.390 . S
C1637 C1631 1.465 . S
C1637 C1636 1.396 . S
C1637 C1638 1.399 . S
C1638 H1624 0.929 . S
C1638 C1637 1.399 . S
C1638 C1639 1.385 . S
C1639 H1625 0.931 . S
C1639 C1638 1.385 . S
C1639 C1640 1.389 . S
C1640 C1639 1.389 . S
C1640 C1641 1.387 . S
C1641 H1626 0.930 . S
C1641 C1636 1.390 . S
C1641 C1640 1.387 . S
C371 C171 1.574 . S
C359 C9 1.552 . S
C398 C161 1.349 . S
C386 C22 1.383 . S
C425 C162 0.872 . S
C413 C49 0.835 . S
C440 C61 1.317 . S
C452 C184 1.236 . S
C467 C81 1.323 . S
C479 C187 1.382 . S
C506 C170 0.806 . S
C494 C108 0.851 . S
C521 C122 1.318 . S
C533 C160 1.261 . S
C548 C148 1.558 . S
C560 C178 1.578 . S
C587 C191 2.117 . S
C575 C18 2.104 . S
C602 C39 1.452 . S
C614 C240 1.391 . S
C641 C218 2.229 . S
C629 C58 2.177 . S
C668 C232 0.820 . S
C656 C69 0.824 . S
C683 C89 0.849 . S
C695 C193 0.782 . S
C722 C246 1.274 . S
C710 C102 1.347 . S
C737 C139 1.469 . S
C749 C202 1.386 . S
C764 C142 1.390 . S
C776 C223 1.357 . S
C791 C1 1.347 . S
C803 C249 1.319 . S
C818 C98 1.471 . S
C830 C233 1.378 . S
C857 C192 2.204 . S
C845 C119 2.171 . S
C884 C224 0.767 . S
C872 C128 0.832 . S
C899 C159 2.098 . S
C911 C215 2.119 . S
C926 C41 1.291 . S
C938 C222 1.252 . S
C965 C209 1.422 . S
C953 C78 1.412 . S
C980 C28 0.811 . S
C992 C201 0.895 . S
C1007 C149 1.554 . S
C1019 C264 1.574 . S
C1034 C82 1.320 . S
C1046 C254 1.379 . S
C1073 C255 0.823 . S
C1061 C109 0.896 . S
C1100 C277 1.230 . S
C1088 C121 1.308 . S
C1115 C21 1.331 . S
C1127 C280 1.379 . S
C1154 C263 0.911 . S
C1142 C48 0.874 . S
C1169 C62 1.299 . S
C1181 C253 1.222 . S
C1196 C8 1.552 . S
C1208 C271 1.573 . S
C1223 C158 2.101 . S
C1235 C284 2.122 . S
C1262 C333 1.373 . S
C1250 C99 1.464 . S
C1277 C118 2.203 . S
C1289 C311 2.236 . S
C1304 C129 0.883 . S
C1316 C325 0.912 . S
C1343 C286 0.896 . S
C1331 C29 0.850 . S
C1358 C42 1.319 . S
C1370 C339 1.333 . S
C1397 C295 1.376 . S
C1385 C79 1.427 . S
C1424 C316 1.332 . S
C1412 C2 1.373 . S
C1451 C342 1.388 . S
C1439 C141 1.399 . S
C1466 C38 1.421 . S
C1478 C326 1.399 . S
C1493 C59 2.174 . S
C1505 C285 2.213 . S
C1532 C317 0.897 . S
C1520 C68 0.841 . S
C1547 C19 2.141 . S
C1559 C308 2.143 . S
C1574 C101 1.310 . S
C1586 C315 1.303 . S
C1613 C302 1.393 . S
C1601 C138 1.434 . S
C1640 C294 0.903 . S
C1628 C88 0.815 . S
