# Generated by pormake.
# Topology eea, (3,6)-cn, num edge types: 1
# Building blocks:
#     Node 0, Type 0, BuildingBlock: WUSLED_clean_sbu_0, # of connection points: 3
#     Node 1, Type 0, BuildingBlock: WUSLED_clean_sbu_0, # of connection points: 3
#     Node 2, Type 0, BuildingBlock: WUSLED_clean_sbu_0, # of connection points: 3
#     Node 3, Type 0, BuildingBlock: WUSLED_clean_sbu_0, # of connection points: 3
#     Node 4, Type 0, BuildingBlock: WUSLED_clean_sbu_0, # of connection points: 3
#     Node 5, Type 0, BuildingBlock: WUSLED_clean_sbu_0, # of connection points: 3
#     Node 6, Type 0, BuildingBlock: WUSLED_clean_sbu_0, # of connection points: 3
#     Node 7, Type 0, BuildingBlock: WUSLED_clean_sbu_0, # of connection points: 3
#     Node 8, Type 0, BuildingBlock: WUSLED_clean_sbu_0, # of connection points: 3
#     Node 9, Type 0, BuildingBlock: WUSLED_clean_sbu_0, # of connection points: 3
#     Node 10, Type 0, BuildingBlock: WUSLED_clean_sbu_0, # of connection points: 3
#     Node 11, Type 0, BuildingBlock: WUSLED_clean_sbu_0, # of connection points: 3
#     Node 12, Type 0, BuildingBlock: WUSLED_clean_sbu_0, # of connection points: 3
#     Node 13, Type 0, BuildingBlock: WUSLED_clean_sbu_0, # of connection points: 3
#     Node 14, Type 0, BuildingBlock: WUSLED_clean_sbu_0, # of connection points: 3
#     Node 15, Type 0, BuildingBlock: WUSLED_clean_sbu_0, # of connection points: 3
#     Node 16, Type 0, BuildingBlock: WUSLED_clean_sbu_0, # of connection points: 3
#     Node 17, Type 0, BuildingBlock: WUSLED_clean_sbu_0, # of connection points: 3
#     Node 18, Type 1, BuildingBlock: CUWYAW_clean_sbu_0, # of connection points: 6
#     Node 19, Type 1, BuildingBlock: CUWYAW_clean_sbu_0, # of connection points: 6
#     Node 20, Type 1, BuildingBlock: CUWYAW_clean_sbu_0, # of connection points: 6
#     Node 21, Type 1, BuildingBlock: CUWYAW_clean_sbu_0, # of connection points: 6
#     Node 22, Type 1, BuildingBlock: CUWYAW_clean_sbu_0, # of connection points: 6
#     Node 23, Type 1, BuildingBlock: CUWYAW_clean_sbu_0, # of connection points: 6
#     Node 24, Type 1, BuildingBlock: CUWYAW_clean_sbu_0, # of connection points: 6
#     Node 25, Type 1, BuildingBlock: CUWYAW_clean_sbu_0, # of connection points: 6
#     Node 26, Type 1, BuildingBlock: CUWYAW_clean_sbu_0, # of connection points: 6
#     Edge 27, Type (0, 1), None
#     Edge 28, Type (0, 1), None
#     Edge 29, Type (0, 1), None
#     Edge 30, Type (0, 1), None
#     Edge 31, Type (0, 1), None
#     Edge 32, Type (0, 1), None
#     Edge 33, Type (0, 1), None
#     Edge 34, Type (0, 1), None
#     Edge 35, Type (0, 1), None
#     Edge 36, Type (0, 1), None
#     Edge 37, Type (0, 1), None
#     Edge 38, Type (0, 1), None
#     Edge 39, Type (0, 1), None
#     Edge 40, Type (0, 1), None
#     Edge 41, Type (0, 1), None
#     Edge 42, Type (0, 1), None
#     Edge 43, Type (0, 1), None
#     Edge 44, Type (0, 1), None
#     Edge 45, Type (0, 1), None
#     Edge 46, Type (0, 1), None
#     Edge 47, Type (0, 1), None
#     Edge 48, Type (0, 1), None
#     Edge 49, Type (0, 1), None
#     Edge 50, Type (0, 1), None
#     Edge 51, Type (0, 1), None
#     Edge 52, Type (0, 1), None
#     Edge 53, Type (0, 1), None
#     Edge 54, Type (0, 1), None
#     Edge 55, Type (0, 1), None
#     Edge 56, Type (0, 1), None
#     Edge 57, Type (0, 1), None
#     Edge 58, Type (0, 1), None
#     Edge 59, Type (0, 1), None
#     Edge 60, Type (0, 1), None
#     Edge 61, Type (0, 1), None
#     Edge 62, Type (0, 1), None
#     Edge 63, Type (0, 1), None
#     Edge 64, Type (0, 1), None
#     Edge 65, Type (0, 1), None
#     Edge 66, Type (0, 1), None
#     Edge 67, Type (0, 1), None
#     Edge 68, Type (0, 1), None
#     Edge 69, Type (0, 1), None
#     Edge 70, Type (0, 1), None
#     Edge 71, Type (0, 1), None
#     Edge 72, Type (0, 1), None
#     Edge 73, Type (0, 1), None
#     Edge 74, Type (0, 1), None
#     Edge 75, Type (0, 1), None
#     Edge 76, Type (0, 1), None
#     Edge 77, Type (0, 1), None
#     Edge 78, Type (0, 1), None
#     Edge 79, Type (0, 1), None
#     Edge 80, Type (0, 1), None
# Relax obj value: 0.035
# Max RMSD: 0.126
# Mean RMSD: 0.104
data_MOF--net-eea--node1-WUSLED_clean_sbu_0--node2-CUWYAW_clean_sbu_0--edge1-none
_symmetry_space_group_name_H-M    P1
_symmetry_Int_Tables_number       1
_symmetry_cell_setting            triclinic
loop_
_symmetry_equiv_pos_as_xyz
'x, y, z'
_cell_length_a     37.924651
_cell_length_b     36.894649
_cell_length_c     59.427815
_cell_angle_alpha  92.920182
_cell_angle_beta   92.874292
_cell_angle_gamma 120.04861
loop_
_atom_site_label
_atom_site_type_symbol
_atom_site_fract_x
_atom_site_fract_y
_atom_site_fract_z
_atom_type_partial_charge
C0 C 0.22337 0.20709 0.38635 0.0
C1 C 0.20823 0.22869 0.39916 0.0
C2 C 0.21155 0.26947 0.36744 0.0
C3 C 0.20226 0.25961 0.38971 0.0
C4 C 0.2277 0.24863 0.35501 0.0
C5 C 0.23371 0.21797 0.36439 0.0
U6 U 0.24709 0.14723 0.43119 0.0
O7 O 0.21356 0.07997 0.43654 0.0
O8 O 0.27626 0.10877 0.42656 0.0
C9 C 0.2431 0.07383 0.43032 0.0
C10 C 0.22585 0.17104 0.39445 0.0
C11 C 0.2311 0.03674 0.41421 0.0
C12 C 0.1833 0.98222 0.38551 0.0
C13 C 0.19501 1.01868 0.39966 0.0
C14 C 0.24392 0.98168 0.39979 0.0
C15 C 0.20752 0.96322 0.38551 0.0
C16 C 0.25548 1.01798 0.41407 0.0
C17 C 0.28824 0.19568 0.49207 0.0
C18 C 0.29462 0.15727 0.52262 0.0
C19 C 0.32718 0.23316 0.52763 0.0
C20 C 0.31195 0.23337 0.50574 0.0
C21 C 0.31888 0.19515 0.53631 0.0
C22 C 0.27958 0.15755 0.50063 0.0
C23 C 0.27344 0.19698 0.46889 0.0
O24 O 0.26275 0.17714 0.39916 0.0
O25 O 0.19981 0.14874 0.40888 0.0
O26 O 0.23453 0.17037 0.4629 0.0
O27 O 0.29737 0.19932 0.4531 0.0
H28 H 0.19969 0.22067 0.4161 0.0
H29 H 0.18812 0.27381 0.3993 0.0
H30 H 0.23466 0.25524 0.33771 0.0
H31 H 0.24523 0.20167 0.35416 0.0
H32 H 0.15513 0.96881 0.37463 0.0
H33 H 0.17563 0.03246 0.39936 0.0
H34 H 0.26341 0.96803 0.4 0.0
H35 H 0.28341 0.03128 0.42517 0.0
H36 H 0.28805 0.12754 0.52872 0.0
H37 H 0.34536 0.26281 0.53781 0.0
H38 H 0.31888 0.26309 0.49944 0.0
H39 H 0.2615 0.1281 0.49026 0.0
C40 C 0.99563 0.21198 0.39952 0.0
C41 C 0.02902 0.23788 0.41523 0.0
C42 C 0.07045 0.2746 0.38464 0.0
C43 C 0.06601 0.26888 0.40788 0.0
C44 C 0.03642 0.24925 0.36908 0.0
C45 C 0.99951 0.21834 0.37646 0.0
U46 U 0.91141 0.14825 0.44029 0.0
O47 O 0.84495 0.1096 0.43093 0.0
O48 O 0.87938 0.07993 0.44267 0.0
C49 C 0.84429 0.07419 0.43382 0.0
C50 C 0.95743 0.17633 0.40627 0.0
C51 C 0.82261 0.04019 0.41531 0.0
C52 C 0.82181 0.99205 0.38534 0.0
C53 C 0.84343 1.02563 0.40203 0.0
C54 C 0.75842 0.98776 0.39448 0.0
C55 C 0.77904 0.97254 0.38154 0.0
C56 C 0.77997 1.02108 0.41127 0.0
C57 C 0.9142 0.18851 0.50219 0.0
C58 C 0.86816 0.14744 0.52993 0.0
C59 C 0.91446 0.22206 0.53865 0.0
C60 C 0.92964 0.22443 0.51743 0.0
C61 C 0.88339 0.18358 0.54524 0.0
C62 C 0.88332 0.14991 0.5086 0.0
C63 C 0.93089 0.19237 0.47985 0.0
O64 O 0.96131 0.15282 0.42097 0.0
O65 O 0.9272 0.18314 0.40975 0.0
O66 O 0.90999 0.19671 0.46293 0.0
O67 O 0.94423 0.16666 0.4743 0.0
H68 H 1.02681 0.23359 0.43311 0.0
H69 H 0.09137 0.28774 0.42046 0.0
H70 H 0.03846 0.25259 0.35112 0.0
H71 H 0.97415 0.19861 0.36402 0.0
H72 H 0.83855 0.98112 0.37556 0.0
H73 H 0.87633 0.03987 0.40467 0.0
H74 H 0.72556 0.97377 0.39172 0.0
H75 H 0.76325 0.03178 0.42124 0.0
H76 H 0.84397 0.11736 0.53427 0.0
H77 H 0.92743 0.25043 0.55002 0.0
H78 H 0.95358 0.25451 0.5129 0.0
H79 H 0.87084 0.12176 0.49709 0.0
C80 C 0.85125 0.81966 0.39484 0.0
C81 C 0.83158 0.8309 0.41087 0.0
C82 C 0.78614 0.83203 0.38076 0.0
C83 C 0.79929 0.83719 0.40387 0.0
C84 C 0.80555 0.81989 0.36494 0.0
C85 C 0.83775 0.81387 0.37192 0.0
U86 U 0.90899 0.78722 0.43614 0.0
O87 O 0.9397 0.75126 0.42868 0.0
O88 O 0.97501 0.81544 0.44528 0.0
C89 C 0.97604 0.78292 0.43598 0.0
C90 C 0.88576 0.81358 0.40138 0.0
C91 C 1.00962 0.79273 0.42143 0.0
C92 C 0.04003 0.80754 0.38524 0.0
C93 C 1.00636 0.79682 0.39807 0.0
C94 C 0.07975 0.80971 0.41902 0.0
C95 C 0.07735 0.81465 0.39571 0.0
C96 C 0.04643 0.79893 0.43162 0.0
C97 C 0.86031 0.74958 0.4932 0.0
C98 C 0.88544 0.75666 0.5327 0.0
C99 C 0.81651 0.7021 0.51962 0.0
C100 C 0.82285 0.71537 0.49783 0.0
C101 C 0.84753 0.72277 0.53744 0.0
C102 C 0.89179 0.76995 0.5108 0.0
C103 C 0.86368 0.76554 0.47057 0.0
O104 O 0.91161 0.83908 0.41822 0.0
O105 O 0.87644 0.77431 0.40238 0.0
O106 O 0.85755 0.73921 0.45305 0.0
O107 O 0.89309 0.80418 0.46855 0.0
H108 H 0.84135 0.83514 0.42873 0.0
H109 H 0.78503 0.84649 0.41649 0.0
H110 H 0.79631 0.8155 0.34701 0.0
H111 H 0.85236 0.80493 0.35933 0.0
H112 H 0.03718 0.81117 0.36739 0.0
H113 H 0.97808 0.79221 0.38988 0.0
H114 H 0.10768 0.81442 0.42777 0.0
H115 H 0.04962 0.79583 0.44955 0.0
H116 H 0.91015 0.77302 0.54594 0.0
H117 H 0.78671 0.67639 0.52263 0.0
H118 H 0.7979 0.69955 0.48467 0.0
H119 H 0.921 0.79658 0.50777 0.0
C120 C 0.05173 0.24489 0.65884 0.0
C121 C 1.01635 0.22828 0.64377 0.0
C122 C 0.97684 0.22981 0.67463 0.0
C123 C 0.97919 0.22083 0.65161 0.0
C124 C 1.01277 0.2479 0.68937 0.0
C125 C 0.0497 0.25527 0.68155 0.0
U126 U 0.13802 0.27136 0.61878 0.0
O127 O 0.20393 0.29942 0.62859 0.0
O128 O 0.16892 0.23576 0.61131 0.0
C129 C 0.20397 0.26497 0.62174 0.0
C130 C 0.09028 0.24867 0.65206 0.0
C131 C 0.22515 0.2499 0.63693 0.0
C132 C 0.26313 0.25406 0.6724 0.0
C133 C 0.23945 0.26655 0.65956 0.0
C134 C 0.257 0.20729 0.64043 0.0
C135 C 0.27299 0.22503 0.66271 0.0
C136 C 0.23358 0.21965 0.62775 0.0
C137 C 0.13762 0.31115 0.5605 0.0
C138 C 0.19388 0.33247 0.5366 0.0
C139 C 0.12986 0.32501 0.52151 0.0
C140 C 0.11385 0.31338 0.54239 0.0
C141 C 0.17014 0.33477 0.51829 0.0
C142 C 0.17774 0.32068 0.55747 0.0
C143 C 0.11973 0.29791 0.58218 0.0
O144 O 0.08735 0.22229 0.63534 0.0
O145 O 0.12126 0.287 0.65137 0.0
O146 O 0.14086 0.32294 0.60034 0.0
O147 O 0.10496 0.25796 0.58511 0.0
H148 H 1.01716 0.22006 0.62612 0.0
H149 H 0.95216 0.20696 0.63977 0.0
H150 H 1.01229 0.25547 0.70716 0.0
H151 H 0.07659 0.26805 0.69346 0.0
H152 H 0.2751 0.26837 0.68947 0.0
H153 H 0.23332 0.28995 0.66712 0.0
H154 H 0.26356 0.18454 0.63241 0.0
H155 H 0.22303 0.20634 0.6104 0.0
H156 H 0.22513 0.34021 0.53491 0.0
H157 H 0.11036 0.32568 0.50779 0.0
H158 H 0.08269 0.30581 0.54434 0.0
H159 H 0.19656 0.31898 0.57124 0.0
C160 C 0.8207 0.84237 0.66815 0.0
C161 C 0.83525 0.81933 0.65618 0.0
C162 C 0.83333 0.78242 0.68952 0.0
C163 C 0.8415 0.78954 0.66683 0.0
C164 C 0.81789 0.80479 0.70116 0.0
C165 C 0.81143 0.8342 0.69055 0.0
U166 U 0.8011 0.90585 0.62264 0.0
O167 O 0.83713 0.97406 0.61998 0.0
O168 O 0.77354 0.94555 0.62839 0.0
C169 C 0.80801 0.98058 0.62657 0.0
C170 C 0.81869 0.87798 0.659 0.0
C171 C 0.8199 1.01508 0.64457 0.0
C172 C 0.86869 0.06729 0.67398 0.0
C173 C 0.85752 0.03344 0.65784 0.0
C174 C 0.80462 0.06455 0.6643 0.0
C175 C 0.8425 0.08341 0.67726 0.0
C176 C 0.79358 0.03093 0.64805 0.0
C177 C 0.7631 0.86327 0.56005 0.0
C178 C 0.75578 0.90292 0.53038 0.0
C179 C 0.7309 0.82859 0.52269 0.0
C180 C 0.74415 0.82707 0.54486 0.0
C181 C 0.73632 0.86647 0.51512 0.0
C182 C 0.76894 0.90131 0.55265 0.0
C183 C 0.77619 0.86026 0.58341 0.0
O184 O 0.84584 0.90022 0.64504 0.0
O185 O 0.78219 0.87237 0.65348 0.0
O186 O 0.75142 0.85712 0.59886 0.0
O187 O 0.81493 0.88578 0.59033 0.0
H188 H 0.84313 0.82536 0.63896 0.0
H189 H 0.85488 0.77391 0.65774 0.0
H190 H 0.81171 0.80026 0.71871 0.0
H191 H 0.80053 0.85179 0.70019 0.0
H192 H 0.89804 0.08109 0.68377 0.0
H193 H 0.8785 1.02195 0.65564 0.0
H194 H 0.78354 0.07586 0.66666 0.0
H195 H 0.76445 1.01742 0.63806 0.0
H196 H 0.7601 0.93253 0.52525 0.0
H197 H 0.71664 0.80004 0.51141 0.0
H198 H 0.73949 0.79743 0.55018 0.0
H199 H 0.78342 0.92964 0.56412 0.0
C200 C 0.05043 0.84326 0.66097 0.0
C201 C 1.01706 0.81934 0.64484 0.0
C202 C 0.97469 0.77955 0.67439 0.0
C203 C 0.9796 0.78786 0.65148 0.0
C204 C 1.00864 0.80295 0.69034 0.0
C205 C 0.04597 0.83441 0.68369 0.0
U206 U 0.13546 0.90316 0.62077 0.0
O207 O 0.16895 0.97065 0.616 0.0
O208 O 0.20226 0.94084 0.62926 0.0
C209 C 0.20417 0.97611 0.62443 0.0
C210 C 0.0894 0.87892 0.65494 0.0
C211 C 0.22862 1.01301 0.64097 0.0
C212 C 0.23387 0.06391 0.67061 0.0
C213 C 0.21003 0.02745 0.65602 0.0
C214 C 0.2953 0.07163 0.65571 0.0
C215 C 0.27674 0.08649 0.67053 0.0
C216 C 0.27142 0.03529 0.64102 0.0
C217 C 0.13096 0.85769 0.56049 0.0
C218 C 0.17984 0.89695 0.53359 0.0
C219 C 0.13013 0.82324 0.52428 0.0
C220 C 0.11417 0.82176 0.54518 0.0
C221 C 0.16327 0.86081 0.51821 0.0
C222 C 0.16392 0.89536 0.55456 0.0
C223 C 0.1139 0.85515 0.58253 0.0
O224 O 0.11957 0.87161 0.65237 0.0
O225 O 0.08668 0.90229 0.63973 0.0
O226 O 0.10131 0.88182 0.58715 0.0
O227 O 0.13464 0.85166 0.59984 0.0
H228 H 1.01971 0.82547 0.62719 0.0
H229 H 0.95431 0.77058 0.63864 0.0
H230 H 1.00625 0.79763 0.70809 0.0
H231 H 0.07127 0.85248 0.69644 0.0
H232 H 0.21867 0.07453 0.68189 0.0
H233 H 0.17708 1.01084 0.65634 0.0
H234 H 0.32823 0.08816 0.65537 0.0
H235 H 0.28639 1.02476 0.62951 0.0
H236 H 0.20563 0.92626 0.5296 0.0
H237 H 0.11625 0.79498 0.51278 0.0
H238 H 0.08866 0.79242 0.54941 0.0
H239 H 0.17744 0.92345 0.56619 0.0
C240 C 0.89003 0.5404 0.71969 0.0
C241 C 0.87487 0.56199 0.73249 0.0
C242 C 0.87821 0.60277 0.70077 0.0
C243 C 0.8689 0.5929 0.72304 0.0
C244 C 0.89437 0.58194 0.68835 0.0
C245 C 0.90039 0.55129 0.69773 0.0
U246 U 0.91379 0.48058 0.76453 0.0
O247 O 0.88028 0.41332 0.7699 0.0
O248 O 0.94297 0.44212 0.75991 0.0
C249 C 0.90981 0.40718 0.76367 0.0
C250 C 0.89252 0.50437 0.72779 0.0
C251 C 0.89781 0.37008 0.74757 0.0
C252 C 0.85 0.31558 0.71886 0.0
C253 C 0.86172 0.35204 0.73301 0.0
C254 C 0.91061 0.31501 0.73315 0.0
C255 C 0.87421 0.29656 0.71886 0.0
C256 C 0.92217 0.35132 0.74743 0.0
C257 C 0.955 0.52905 0.8254 0.0
C258 C 0.96137 0.49065 0.85595 0.0
C259 C 0.99401 0.56655 0.86094 0.0
C260 C 0.97876 0.56676 0.83906 0.0
C261 C 0.98568 0.52853 0.86963 0.0
C262 C 0.94632 0.49093 0.83397 0.0
C263 C 0.94017 0.53035 0.80223 0.0
O264 O 0.92943 0.51047 0.7325 0.0
O265 O 0.8665 0.48207 0.74223 0.0
O266 O 0.90126 0.50374 0.79624 0.0
O267 O 0.96409 0.53268 0.78643 0.0
H268 H 0.86632 0.55397 0.74943 0.0
H269 H 0.85474 0.6071 0.73263 0.0
H270 H 0.90134 0.58856 0.67105 0.0
H271 H 0.91191 0.535 0.6875 0.0
H272 H 0.82184 0.30218 0.70797 0.0
H273 H 0.84234 0.36583 0.7327 0.0
H274 H 0.93008 0.30135 0.73336 0.0
H275 H 0.95009 0.3646 0.75854 0.0
H276 H 0.95478 0.46091 0.86206 0.0
H277 H 1.01222 0.5962 0.87111 0.0
H278 H 0.98571 0.59647 0.83275 0.0
H279 H 0.92819 0.46147 0.82361 0.0
C280 C 0.66227 0.54528 0.73283 0.0
C281 C 0.69566 0.57119 0.74855 0.0
C282 C 0.73709 0.6079 0.71797 0.0
C283 C 0.73264 0.60218 0.7412 0.0
C284 C 0.70307 0.58255 0.7024 0.0
C285 C 0.66616 0.55163 0.70978 0.0
U286 U 0.57806 0.48156 0.77361 0.0
O287 O 0.5116 0.44292 0.76425 0.0
O288 O 0.54603 0.41324 0.776 0.0
C289 C 0.51093 0.4075 0.76715 0.0
C290 C 0.62406 0.50963 0.73959 0.0
C291 C 0.48924 0.3735 0.74864 0.0
C292 C 0.48844 0.32537 0.71867 0.0
C293 C 0.51006 0.35895 0.73535 0.0
C294 C 0.42505 0.32105 0.72782 0.0
C295 C 0.44567 0.30584 0.71487 0.0
C296 C 0.44661 0.35438 0.74461 0.0
C297 C 0.58087 0.52182 0.83551 0.0
C298 C 0.53478 0.48076 0.86324 0.0
C299 C 0.58121 0.55535 0.872 0.0
C300 C 0.59638 0.55772 0.85077 0.0
C301 C 0.55007 0.51689 0.87856 0.0
C302 C 0.54994 0.48323 0.84191 0.0
C303 C 0.59756 0.52568 0.81317 0.0
O304 O 0.62795 0.48612 0.75428 0.0
O305 O 0.59384 0.51645 0.74307 0.0
O306 O 0.57665 0.53002 0.79626 0.0
O307 O 0.61089 0.49997 0.80762 0.0
H308 H 0.69344 0.5669 0.76643 0.0
H309 H 0.758 0.62105 0.75378 0.0
H310 H 0.70512 0.58588 0.68444 0.0
H311 H 0.6408 0.5319 0.69734 0.0
H312 H 0.50518 0.31445 0.70888 0.0
H313 H 0.54297 0.3732 0.73798 0.0
H314 H 0.39219 0.30705 0.72507 0.0
H315 H 0.42988 0.36507 0.75459 0.0
H316 H 0.51055 0.4507 0.86756 0.0
H317 H 0.59422 0.5837 0.88338 0.0
H318 H 0.62037 0.58779 0.84625 0.0
H319 H 0.53741 0.45509 0.83038 0.0
C320 C 0.51794 0.15299 0.72817 0.0
C321 C 0.49823 0.16419 0.74421 0.0
C322 C 0.45282 0.16536 0.7141 0.0
C323 C 0.46595 0.17047 0.73721 0.0
C324 C 0.47226 0.15327 0.69827 0.0
C325 C 0.50446 0.14725 0.70525 0.0
U326 U 0.57566 0.12055 0.76947 0.0
O327 O 0.60639 0.08462 0.76202 0.0
O328 O 0.64168 0.14879 0.77862 0.0
C329 C 0.64273 0.11628 0.76933 0.0
C330 C 0.55244 0.14692 0.73471 0.0
C331 C 0.67633 0.12612 0.75478 0.0
C332 C 0.70671 0.1408 0.71858 0.0
C333 C 0.67303 0.13008 0.73141 0.0
C334 C 0.74651 0.14328 0.75239 0.0
C335 C 0.74407 0.14807 0.72906 0.0
C336 C 0.71318 0.13248 0.76499 0.0
C337 C 0.52697 0.08289 0.82652 0.0
C338 C 0.5521 0.08996 0.86602 0.0
C339 C 0.48316 0.03542 0.85295 0.0
C340 C 0.4895 0.0487 0.83116 0.0
C341 C 0.51419 0.05609 0.87077 0.0
C342 C 0.55845 0.10325 0.84412 0.0
C343 C 0.53033 0.09885 0.8039 0.0
O344 O 0.57828 0.17241 0.75155 0.0
O345 O 0.54313 0.10765 0.73571 0.0
O346 O 0.52422 0.07252 0.78637 0.0
O347 O 0.55973 0.13749 0.80188 0.0
H348 H 0.50798 0.16839 0.76207 0.0
H349 H 0.45165 0.17973 0.74982 0.0
H350 H 0.46305 0.14891 0.68033 0.0
H351 H 0.5191 0.13834 0.69266 0.0
H352 H 0.70382 0.14432 0.70071 0.0
H353 H 0.64471 0.12534 0.72319 0.0
H354 H 0.77448 0.1481 0.76116 0.0
H355 H 0.7164 0.12949 0.78293 0.0
H356 H 0.57682 0.10631 0.87926 0.0
H357 H 0.45336 1.00973 0.85597 0.0
H358 H 0.46454 0.03288 0.818 0.0
H359 H 0.58766 0.12987 0.84109 0.0
C360 C 0.7184 0.57818 0.99219 0.0
C361 C 0.68303 0.5616 0.97712 0.0
C362 C 0.64351 0.5631 1.00797 0.0
C363 C 0.64587 0.55415 0.98495 0.0
C364 C 0.67943 0.58116 1.02272 0.0
C365 C 0.71636 0.58854 1.0149 0.0
U366 U 0.80466 0.60471 0.95211 0.0
O367 O 0.87059 0.63283 0.9619 0.0
O368 O 0.83561 0.56917 0.94462 0.0
C369 C 0.87066 0.5984 0.95503 0.0
C370 C 0.75696 0.582 0.98541 0.0
C371 C 0.89192 0.58338 0.97018 0.0
C372 C 0.92961 0.58721 1.00571 0.0
C373 C 0.90589 0.59969 0.99288 0.0
C374 C 0.92417 0.54112 0.97356 0.0
C375 C 0.93983 0.55853 0.99592 0.0
C376 C 0.90073 0.55347 0.9609 0.0
C377 C 0.80419 0.64446 0.89384 0.0
C378 C 0.86048 0.66586 0.86995 0.0
C379 C 0.7964 0.65821 0.85483 0.0
C380 C 0.78038 0.64659 0.87571 0.0
C381 C 0.8367 0.66805 0.85163 0.0
C382 C 0.84434 0.65408 0.89082 0.0
C383 C 0.78631 0.63123 0.91552 0.0
O384 O 0.75404 0.55562 0.96869 0.0
O385 O 0.78792 0.62033 0.98471 0.0
O386 O 0.80743 0.65626 0.93368 0.0
O387 O 0.77157 0.59129 0.91845 0.0
H388 H 0.68385 0.55341 0.95947 0.0
H389 H 0.61884 0.54029 0.97311 0.0
H390 H 0.67894 0.58871 0.04051 0.0
H391 H 0.74324 0.6013 0.02682 0.0
H392 H 0.9413 0.60126 1.02284 0.0
H393 H 0.89946 0.62281 1.00051 0.0
H394 H 0.93101 0.51863 0.96546 0.0
H395 H 0.89043 0.54042 0.94349 0.0
H396 H 0.89175 0.67366 0.86827 0.0
H397 H 0.77687 0.65879 0.84109 0.0
H398 H 0.7492 0.63894 0.87764 0.0
H399 H 0.86319 0.65246 0.9046 0.0
C400 C 0.48739 0.1757 1.0015 0.0
C401 C 0.50194 0.15266 0.98953 0.0
C402 C 0.50002 0.11576 1.02287 0.0
C403 C 0.5082 0.12288 1.00017 0.0
C404 C 0.48459 0.13812 0.03451 0.0
C405 C 0.47813 0.16753 1.02391 0.0
U406 U 0.46778 0.23917 0.95599 0.0
O407 O 0.5038 0.30738 0.95333 0.0
O408 O 0.44021 0.27886 0.96175 0.0
C409 C 0.47467 0.31389 0.95992 0.0
C410 C 0.48537 0.21131 0.99235 0.0
C411 C 0.48656 0.34839 0.97792 0.0
C412 C 0.53534 0.4006 1.00734 0.0
C413 C 0.52417 0.36674 0.9912 0.0
C414 C 0.47128 0.39786 0.99765 0.0
C415 C 0.50915 0.41672 1.01062 0.0
C416 C 0.46024 0.36424 0.9814 0.0
C417 C 0.42978 0.19658 0.8934 0.0
C418 C 0.42244 0.23622 0.86373 0.0
C419 C 0.39762 0.1619 0.85604 0.0
C420 C 0.41086 0.16038 0.87822 0.0
C421 C 0.40301 0.19977 0.84847 0.0
C422 C 0.4356 0.23461 0.886 0.0
C423 C 0.44287 0.19357 0.91677 0.0
O424 O 0.51252 0.23356 0.9784 0.0
O425 O 0.44887 0.20569 0.98684 0.0
O426 O 0.4181 0.19043 0.93222 0.0
O427 O 0.48162 0.2191 0.92368 0.0
H428 H 0.50981 0.1587 0.97231 0.0
H429 H 0.52158 0.10725 0.99109 0.0
H430 H 0.47841 0.13359 0.05206 0.0
H431 H 0.46723 0.18512 0.03355 0.0
H432 H 0.56468 0.41439 1.01713 0.0
H433 H 0.54515 0.35525 0.989 0.0
H434 H 0.4502 0.40917 1.0 0.0
H435 H 0.43111 0.35074 0.9714 0.0
H436 H 0.42674 0.26582 0.85861 0.0
H437 H 0.38338 0.13335 0.84476 0.0
H438 H 0.40622 0.13075 0.88354 0.0
H439 H 0.45006 0.26294 0.89748 0.0
C440 C 0.71711 0.17663 0.99428 0.0
C441 C 0.68374 0.1527 0.97815 0.0
C442 C 0.64139 0.1129 1.0077 0.0
C443 C 0.64629 0.12122 0.98479 0.0
C444 C 0.67534 0.13631 1.02365 0.0
C445 C 0.71267 0.16777 1.01699 0.0
U446 U 0.80213 0.23654 0.95407 0.0
O447 O 0.8356 0.30402 0.94929 0.0
O448 O 0.86893 0.27423 0.96256 0.0
C449 C 0.87083 0.3095 0.95772 0.0
C450 C 0.75607 0.2123 0.98824 0.0
C451 C 0.89528 0.34641 0.97426 0.0
C452 C 0.90054 0.39736 1.00386 0.0
C453 C 0.87669 0.36089 0.98928 0.0
C454 C 0.96197 0.40502 0.98899 0.0
C455 C 0.94341 0.41991 1.0038 0.0
C456 C 0.93808 0.36867 0.97431 0.0
C457 C 0.79767 0.19103 0.8938 0.0
C458 C 0.8461 0.23043 0.86674 0.0
C459 C 0.7973 0.15638 0.85777 0.0
C460 C 0.78133 0.15491 0.87866 0.0
C461 C 0.82998 0.19412 0.85153 0.0
C462 C 0.83017 0.22887 0.88771 0.0
C463 C 0.78061 0.1885 0.91584 0.0
O464 O 0.78625 0.205 0.98568 0.0
O465 O 0.75334 0.23565 0.97302 0.0
O466 O 0.76799 0.21515 0.92046 0.0
O467 O 0.80134 0.18502 0.93316 0.0
H468 H 0.68637 0.15884 0.9605 0.0
H469 H 0.62099 0.10393 0.97196 0.0
H470 H 0.67296 0.13098 0.0414 0.0
H471 H 0.73797 0.18585 0.02974 0.0
H472 H 0.88534 0.408 1.01513 0.0
H473 H 0.84375 0.34429 0.98959 0.0
H474 H 0.99489 0.42153 0.98867 0.0
H475 H 0.95305 0.35811 0.96282 0.0
H476 H 0.87153 0.25989 0.86262 0.0
H477 H 0.78378 0.12797 0.8464 0.0
H478 H 0.75618 0.12544 0.88302 0.0
H479 H 0.84335 0.25709 0.89921 0.0
C480 C 0.55672 0.87373 0.05301 0.0
C481 C 0.54157 0.89532 0.06581 0.0
C482 C 0.54491 0.93611 0.03409 0.0
C483 C 0.5356 0.92624 0.05636 0.0
C484 C 0.56107 0.91527 1.02166 0.0
C485 C 0.56708 0.88461 0.03105 0.0
U486 U 0.58045 0.81389 0.09785 0.0
O487 O 0.54693 0.74663 0.10321 0.0
O488 O 0.60963 0.77543 0.09323 0.0
C489 C 0.57646 0.74049 0.09699 0.0
C490 C 0.5592 0.83769 0.0611 0.0
C491 C 0.56446 0.7034 0.08088 0.0
C492 C 0.51666 0.64889 0.05218 0.0
C493 C 0.52837 0.68535 0.06633 0.0
C494 C 0.57728 0.64834 0.06646 0.0
C495 C 0.54087 0.62988 0.05218 0.0
C496 C 0.58884 0.68464 0.08074 0.0
C497 C 0.6216 0.86235 0.15873 0.0
C498 C 0.62802 0.82396 0.18927 0.0
C499 C 0.66052 0.89985 0.19429 0.0
C500 C 0.64529 0.90005 0.1724 0.0
C501 C 0.65225 0.86184 0.20297 0.0
C502 C 0.61298 0.82423 0.16729 0.0
C503 C 0.6068 0.86365 0.13555 0.0
O504 O 0.59611 0.84379 0.06582 0.0
O505 O 0.53317 0.81539 0.07554 0.0
O506 O 0.56789 0.83704 0.12956 0.0
O507 O 0.63073 0.86599 0.11976 0.0
H508 H 0.53302 0.8873 0.08274 0.0
H509 H 0.52145 0.94044 0.06594 0.0
H510 H 0.56803 0.92189 1.00436 0.0
H511 H 0.5786 0.86831 1.02081 0.0
H512 H 0.48849 0.63548 0.0413 0.0
H513 H 0.50899 0.69913 0.06602 0.0
H514 H 0.59676 0.63469 0.06667 0.0
H515 H 0.61676 0.69794 0.09185 0.0
H516 H 0.62147 0.79423 0.19537 0.0
H517 H 0.67868 0.92949 0.20447 0.0
H518 H 0.6522 0.92976 0.1661 0.0
H519 H 0.59491 0.79478 0.15691 0.0
C520 C 0.329 0.87862 0.06619 0.0
C521 C 0.3624 0.90453 0.0819 0.0
C522 C 0.40382 0.94125 0.05131 0.0
C523 C 0.39938 0.93552 0.07455 0.0
C524 C 0.36979 0.91589 0.03575 0.0
C525 C 0.33288 0.88498 0.04313 0.0
U526 U 0.24479 0.8149 0.10696 0.0
O527 O 0.17833 0.77624 0.0976 0.0
O528 O 0.21277 0.74658 0.10935 0.0
C529 C 0.17767 0.74083 0.1005 0.0
C530 C 0.2908 0.84298 0.07294 0.0
C531 C 0.156 0.70683 0.08198 0.0
C532 C 0.1552 0.65868 0.05203 0.0
C533 C 0.17681 0.69224 0.06871 0.0
C534 C 0.09182 0.65443 0.06113 0.0
C535 C 0.11244 0.63919 0.04821 0.0
C536 C 0.11337 0.68775 0.07793 0.0
C537 C 0.24758 0.85516 0.16886 0.0
C538 C 0.20145 0.8141 0.19657 0.0
C539 C 0.24792 0.88868 0.20535 0.0
C540 C 0.2631 0.89105 0.18412 0.0
C541 C 0.21675 0.85022 0.2119 0.0
C542 C 0.21662 0.81657 0.17524 0.0
C543 C 0.26427 0.85901 0.14652 0.0
O544 O 0.29469 0.81947 0.08764 0.0
O545 O 0.26057 0.84978 0.07642 0.0
O546 O 0.24337 0.86335 0.1296 0.0
O547 O 0.27762 0.83331 0.14097 0.0
H548 H 0.36019 0.90023 0.09977 0.0
H549 H 0.42475 0.95439 0.08713 0.0
H550 H 0.37183 0.91923 1.01779 0.0
H551 H 0.30752 0.86525 0.03069 0.0
H552 H 0.17194 0.64773 0.04226 0.0
H553 H 0.20971 0.70647 0.07137 0.0
H554 H 0.05897 0.64046 0.05836 0.0
H555 H 0.09664 0.69846 0.08789 0.0
H556 H 0.1772 0.78405 0.20089 0.0
H557 H 0.26094 0.91702 0.21673 0.0
H558 H 0.28711 0.92111 0.17962 0.0
H559 H 0.20408 0.78844 0.16371 0.0
C560 C 0.18456 0.48629 0.06151 0.0
C561 C 0.16495 0.49763 0.07754 0.0
C562 C 0.11944 0.49865 0.04744 0.0
C563 C 0.13266 0.50391 0.07054 0.0
C564 C 0.13878 0.4864 0.03162 0.0
C565 C 0.17098 0.48038 0.0386 0.0
U566 U 0.24233 0.45389 0.10281 0.0
O567 O 0.27305 0.41794 0.09535 0.0
O568 O 0.30835 0.48212 0.11194 0.0
C569 C 0.30939 0.4496 0.10265 0.0
C570 C 0.21908 0.48023 0.06805 0.0
C571 C 0.34297 0.4594 0.08809 0.0
C572 C 0.37339 0.47423 0.05191 0.0
C573 C 0.33972 0.46352 0.06474 0.0
C574 C 0.41309 0.47636 0.08568 0.0
C575 C 0.4107 0.48132 0.06237 0.0
C576 C 0.37977 0.46558 0.09829 0.0
C577 C 0.19365 0.41624 0.15987 0.0
C578 C 0.21877 0.42332 0.19937 0.0
C579 C 0.14985 0.36875 0.18629 0.0
C580 C 0.15619 0.38202 0.1645 0.0
C581 C 0.18086 0.38943 0.20411 0.0
C582 C 0.22513 0.43661 0.17747 0.0
C583 C 0.19702 0.4322 0.13724 0.0
O584 O 0.24493 0.50574 0.08489 0.0
O585 O 0.20978 0.44097 0.06905 0.0
O586 O 0.1909 0.40587 0.11971 0.0
O587 O 0.22643 0.47084 0.13522 0.0
H588 H 0.17478 0.50196 0.09539 0.0
H589 H 0.11844 0.51329 0.08315 0.0
H590 H 0.12949 0.48192 1.01369 0.0
H591 H 0.18554 0.47136 0.02602 0.0
H592 H 0.37054 0.47787 0.03406 0.0
H593 H 0.31144 0.45892 0.05655 0.0
H594 H 0.44102 0.48105 0.09443 0.0
H595 H 0.38295 0.46247 0.11621 0.0
H596 H 0.24348 0.43969 0.21261 0.0
H597 H 0.12005 0.34304 0.1893 0.0
H598 H 0.13124 0.36619 0.15133 0.0
H599 H 0.25433 0.46325 0.17444 0.0
C600 C 0.38505 0.91154 0.3255 0.0
C601 C 0.34967 0.89494 0.31044 0.0
C602 C 0.31015 0.89646 0.34129 0.0
C603 C 0.31251 0.88748 0.31827 0.0
C604 C 0.34608 0.91454 0.35604 0.0
C605 C 0.38302 0.92192 0.34821 0.0
U606 U 0.47133 0.93803 0.28544 0.0
O607 O 0.53725 0.96611 0.29525 0.0
O608 O 0.50226 0.90246 0.27797 0.0
C609 C 0.5373 0.93167 0.2884 0.0
C610 C 0.4236 0.91534 0.31872 0.0
C611 C 0.55851 0.91662 0.30357 0.0
C612 C 0.59641 0.92069 0.33906 0.0
C613 C 0.5727 0.93317 0.32622 0.0
C614 C 0.59049 0.87412 0.30704 0.0
C615 C 0.60638 0.89177 0.32934 0.0
C616 C 0.56706 0.88647 0.29436 0.0
C617 C 0.47092 0.97781 0.22716 0.0
C618 C 0.52721 0.99916 0.20327 0.0
C619 C 0.46317 0.99162 0.18816 0.0
C620 C 0.44715 0.97999 0.20904 0.0
C621 C 0.50346 1.00141 0.18495 0.0
C622 C 0.51106 0.98738 0.22414 0.0
C623 C 0.45303 0.96458 0.24884 0.0
O624 O 0.42068 0.88896 0.30201 0.0
O625 O 0.45458 0.95367 0.31803 0.0
O626 O 0.47415 0.9896 0.267 0.0
O627 O 0.43827 0.92463 0.25177 0.0
H628 H 0.35048 0.88673 0.29278 0.0
H629 H 0.28547 0.87361 0.30644 0.0
H630 H 0.3456 0.9221 0.37383 0.0
H631 H 0.4099 0.93469 0.36012 0.0
H632 H 0.60829 0.93492 0.35615 0.0
H633 H 0.56649 0.95649 0.3338 0.0
H634 H 0.59713 0.85145 0.29899 0.0
H635 H 0.55658 0.87324 0.27699 0.0
H636 H 0.55847 1.00692 0.20159 0.0
H637 H 0.44367 0.99225 0.17443 0.0
H638 H 0.41597 0.97239 0.21098 0.0
H639 H 0.52989 0.98571 0.23792 0.0
C640 C 0.15401 0.50903 0.33479 0.0
C641 C 0.16857 0.48599 0.32283 0.0
C642 C 0.16665 0.4491 0.35617 0.0
C643 C 0.17483 0.45621 0.33347 0.0
C644 C 0.15121 0.47146 0.3678 0.0
C645 C 0.14473 0.50086 0.35719 0.0
U646 U 0.1344 0.57252 0.28928 0.0
O647 O 0.17044 0.64074 0.28663 0.0
O648 O 0.10685 0.61222 0.29505 0.0
C649 C 0.14132 0.64725 0.29323 0.0
C650 C 0.15199 0.54463 0.32563 0.0
C651 C 0.1532 0.68174 0.31124 0.0
C652 C 0.202 0.73395 0.34065 0.0
C653 C 0.19082 0.7001 0.32451 0.0
C654 C 0.13793 0.7312 0.33098 0.0
C655 C 0.1758 0.75006 0.34394 0.0
C656 C 0.12688 0.69759 0.31472 0.0
C657 C 0.09639 0.52997 0.22668 0.0
C658 C 0.08906 0.56962 0.19702 0.0
C659 C 0.06421 0.4953 0.18933 0.0
C660 C 0.07745 0.49377 0.2115 0.0
C661 C 0.06961 0.53317 0.18176 0.0
C662 C 0.10222 0.56801 0.21929 0.0
C663 C 0.10948 0.52695 0.25005 0.0
O664 O 0.17914 0.56688 0.31168 0.0
O665 O 0.11549 0.53902 0.32012 0.0
O666 O 0.08471 0.5238 0.2655 0.0
O667 O 0.14823 0.55247 0.25696 0.0
H668 H 0.17644 0.49202 0.30561 0.0
H669 H 0.18822 0.44059 0.3244 0.0
H670 H 0.14503 0.46694 0.38536 0.0
H671 H 0.13383 0.51845 0.36683 0.0
H672 H 0.23134 0.74774 0.35044 0.0
H673 H 0.21181 0.68861 0.3223 0.0
H674 H 0.11684 0.74251 0.33334 0.0
H675 H 0.09775 0.68408 0.30473 0.0
H676 H 0.09337 0.59923 0.1919 0.0
H677 H 0.04995 0.46675 0.17804 0.0
H678 H 0.0728 0.46413 0.21681 0.0
H679 H 0.11669 0.59633 0.23076 0.0
C680 C 0.38376 0.50997 0.32763 0.0
C681 C 0.35039 0.48605 0.3115 0.0
C682 C 0.30803 0.44625 0.34104 0.0
C683 C 0.31293 0.45457 0.31813 0.0
C684 C 0.34197 0.46965 0.35699 0.0
C685 C 0.3793 0.50111 0.35034 0.0
U686 U 0.46879 0.56987 0.28743 0.0
O687 O 0.50228 0.63736 0.28265 0.0
O688 O 0.53559 0.60755 0.29591 0.0
C689 C 0.5375 0.64282 0.29108 0.0
C690 C 0.42273 0.54564 0.3216 0.0
C691 C 0.56195 0.67973 0.30762 0.0
C692 C 0.56721 0.73064 0.33725 0.0
C693 C 0.54336 0.69418 0.32267 0.0
C694 C 0.62864 0.73834 0.32235 0.0
C695 C 0.61008 0.75321 0.33718 0.0
C696 C 0.60475 0.702 0.30767 0.0
C697 C 0.46429 0.52439 0.22715 0.0
C698 C 0.51316 0.56363 0.20025 0.0
C699 C 0.46347 0.48992 0.19095 0.0
C700 C 0.4475 0.48844 0.21185 0.0
C701 C 0.4966 0.52749 0.18488 0.0
C702 C 0.49723 0.56206 0.22122 0.0
C703 C 0.44723 0.52184 0.24919 0.0
O704 O 0.4529 0.53833 0.31904 0.0
O705 O 0.42001 0.56901 0.30638 0.0
O706 O 0.43464 0.54852 0.25381 0.0
O707 O 0.46797 0.51836 0.2665 0.0
H708 H 0.35303 0.49219 0.29385 0.0
H709 H 0.28764 0.43729 0.3053 0.0
H710 H 0.33959 0.46432 0.37474 0.0
H711 H 0.40461 0.51918 0.36309 0.0
H712 H 0.55201 0.74127 0.34853 0.0
H713 H 0.51042 0.67757 0.32298 0.0
H714 H 0.66156 0.75486 0.32202 0.0
H715 H 0.61972 0.69146 0.29616 0.0
H716 H 0.53894 0.59295 0.19625 0.0
H717 H 0.4496 0.46166 0.17946 0.0
H718 H 0.422 0.4591 0.21608 0.0
H719 H 0.51075 0.59015 0.23285 0.0
C720 C 0.56902 0.04757 0.09783 0.0
Eu721 Eu 0.54073 0.04335 0.0563 0.0
C722 C 0.55217 0.03632 0.12005 0.0
C723 C 0.5262 0.04974 0.12842 0.0
C724 C 0.51063 0.03864 0.14946 0.0
C725 C 0.52044 1.01363 0.16259 0.0
C726 C 0.54636 1.00016 0.15406 0.0
C727 C 0.56206 1.01144 0.13307 0.0
C728 C 0.51168 0.0891 0.03542 0.0
C729 C 0.44422 0.97193 0.04345 0.0
C730 C 0.47323 1.00224 0.9606 0.0
Eu731 Eu 0.50439 1.00959 1.00184 0.0
C732 C 0.48599 1.01703 0.93812 0.0
C733 C 0.47262 0.98726 0.91936 0.0
C734 C 0.48268 0.9999 0.89769 0.0
C735 C 0.50623 0.04277 0.89418 0.0
C736 C 0.52041 0.07262 0.91311 0.0
C737 C 0.5104 0.05989 0.93487 0.0
C738 C 0.53293 0.96322 1.02233 0.0
C739 C 0.60075 0.08157 1.01502 0.0
O740 O 0.55961 1.01618 0.0828 0.0
O741 O 0.56832 0.07907 0.08896 0.0
O742 O 0.52482 0.09616 0.05675 0.0
O743 O 0.51388 0.05815 0.02768 0.0
O744 O 0.47525 0.99313 0.05921 0.0
O745 O 0.44762 0.97543 1.02127 0.0
O746 O 0.4753 0.02936 0.97653 0.0
O747 O 0.48435 0.97642 0.96816 0.0
O748 O 0.51924 0.95634 1.00114 0.0
O749 O 0.53143 0.99447 0.03043 0.0
O750 O 0.56933 0.06228 0.99925 0.0
O751 O 0.59761 0.07564 0.037 0.0
H752 H 0.51788 0.06886 0.11876 0.0
H753 H 0.49125 0.05011 0.15554 0.0
H754 H 0.55409 0.98032 0.16344 0.0
H755 H 0.58183 1.0005 0.12694 0.0
H756 H 0.45396 0.95404 0.92145 0.0
H757 H 0.47181 0.97597 0.88364 0.0
H758 H 0.53828 0.1059 0.91104 0.0
H759 H 0.52132 0.08359 0.94904 0.0
C760 C 1.00598 0.53703 0.09108 0.0
Eu761 Eu 1.01343 0.52863 0.04781 0.0
C762 C 1.02387 0.53568 0.11371 0.0
C763 C 1.00125 0.50186 0.12664 0.0
C764 C 1.01621 0.50102 0.14852 0.0
C765 C 0.05417 0.53417 0.15822 0.0
C766 C 0.07688 0.5681 0.14529 0.0
C767 C 0.06194 0.56887 0.12331 0.0
C768 C 0.96819 0.4587 1.01915 0.0
C769 C 0.08707 0.50747 0.03935 0.0
C770 C 0.05717 0.53031 0.95851 0.0
Eu771 Eu 0.0458 0.53351 1.00137 0.0
C772 C 0.03775 0.52945 0.93612 0.0
C773 C 0.06131 0.55875 0.92117 0.0
C774 C 0.04431 0.55851 0.89971 0.0
C775 C 1.00332 0.52872 0.89263 0.0
C776 C 0.97966 0.49926 0.90762 0.0
C777 C 0.99665 0.49972 0.92922 0.0
C778 C 0.08949 0.6029 0.03102 0.0
C779 C 0.96969 0.54914 1.00738 0.0
O780 O 0.02804 0.56856 0.07928 0.0
O781 O 0.98484 0.50154 0.07842 0.0
O782 O 0.9528 0.47303 0.03376 0.0
O783 O 1.00686 0.48039 1.02117 0.0
O784 O 0.0692 0.52023 0.05391 0.0
O785 O 0.07831 0.50414 1.01737 0.0
O786 O 0.03887 0.49699 0.96974 0.0
O787 O 0.07275 0.56539 0.97153 0.0
O788 O 0.10608 0.58844 1.01735 0.0
O789 O 0.0511 0.58111 0.02787 0.0
O790 O 0.98776 0.53488 0.99413 0.0
O791 O 0.97859 0.55559 0.02962 0.0
H792 H 0.97154 0.47617 0.11993 0.0
H793 H 0.9975 0.47469 0.15804 0.0
H794 H 0.10637 0.59401 0.1521 0.0
H795 H 0.08011 0.59565 0.11394 0.0
H796 H 0.0931 0.58182 0.92606 0.0
H797 H 0.06351 0.58128 0.8885 0.0
H798 H 0.9479 0.47617 0.90274 0.0
H799 H 0.97766 0.47682 0.94044 0.0
C800 C 0.48374 0.51012 0.96588 0.0
Eu801 Eu 0.50527 0.52129 1.00939 0.0
C802 C 0.50186 0.51186 0.94395 0.0
C803 C 0.51136 0.54565 0.93076 0.0
C804 C 0.52701 0.54724 0.90973 0.0
C805 C 0.53338 0.51489 0.90112 0.0
C806 C 0.52368 0.48089 0.91427 0.0
C807 C 0.50816 0.47939 0.93541 0.0
C808 C 0.5279 0.59107 0.03727 0.0
C809 C 0.60374 0.55151 1.01704 0.0
C810 C 0.56604 0.53121 0.09927 0.0
Eu811 Eu 0.54489 0.52272 0.05596 0.0
C812 C 0.54765 0.53051 0.12089 0.0
C813 C 0.53604 0.49632 0.13404 0.0
C814 C 0.51934 0.4953 0.15464 0.0
C815 C 0.5141 0.52865 0.16277 0.0
C816 C 0.52589 0.563 0.14966 0.0
C817 C 0.5424 0.56392 0.12895 0.0
C818 C 0.52154 0.45323 0.02729 0.0
C819 C 0.44831 0.4955 0.05025 0.0
O820 O 0.47754 0.47953 0.97833 0.0
O821 O 0.49688 0.54575 0.97807 0.0
O822 O 0.49561 0.57373 1.02294 0.0
O823 O 0.54808 0.57242 0.03531 0.0
O824 O 0.56999 0.5353 1.00303 0.0
O825 O 0.60275 0.55547 0.03913 0.0
O826 O 0.57523 0.56298 0.08717 0.0
O827 O 0.55045 0.49551 0.08677 0.0
O828 O 0.55455 0.47064 0.04106 0.0
O829 O 0.50174 0.47198 0.03008 0.0
O830 O 0.48302 0.51242 0.06318 0.0
O831 O 0.44727 0.49088 0.02788 0.0
H832 H 0.50632 0.57085 0.93663 0.0
H833 H 0.53343 0.57359 0.90001 0.0
H834 H 0.52847 0.45558 0.90833 0.0
H835 H 0.50097 0.45268 0.94498 0.0
H836 H 0.54009 0.47033 0.12845 0.0
H837 H 0.51119 0.46863 0.16442 0.0
H838 H 0.52195 0.58904 0.15528 0.0
H839 H 0.55108 0.59086 0.11932 0.0
C840 C 0.23565 0.38097 0.43116 0.0
Eu841 Eu 0.20735 0.37672 0.38963 0.0
C842 C 0.21882 0.3697 0.45338 0.0
C843 C 0.19288 0.38316 0.46178 0.0
C844 C 0.17733 0.37205 0.48282 0.0
C845 C 0.18711 0.347 0.49593 0.0
C846 C 0.21299 0.3335 0.48738 0.0
C847 C 0.22868 0.34479 0.46639 0.0
C848 C 0.17832 0.42246 0.36873 0.0
C849 C 0.11085 0.30528 0.37679 0.0
C850 C 0.13987 0.33556 0.29394 0.0
Eu851 Eu 0.17103 0.34293 0.33518 0.0
C852 C 0.15264 0.35036 0.27146 0.0
C853 C 0.13929 0.3206 0.2527 0.0
C854 C 0.14936 0.33324 0.23103 0.0
C855 C 0.1729 0.37611 0.22752 0.0
C856 C 0.18704 0.40596 0.24644 0.0
C857 C 0.17702 0.39322 0.26821 0.0
C858 C 0.19955 0.29657 0.35568 0.0
C859 C 0.26738 0.41491 0.34836 0.0
O860 O 0.22628 0.34959 0.41613 0.0
O861 O 0.23492 0.41245 0.42229 0.0
O862 O 0.19143 0.42952 0.39007 0.0
O863 O 0.18053 0.39152 0.361 0.0
O864 O 0.14188 0.3265 0.39255 0.0
O865 O 0.11425 0.30878 0.3546 0.0
O866 O 0.14191 0.36267 0.30986 0.0
O867 O 0.15102 0.30977 0.30149 0.0
O868 O 0.18588 0.28969 0.33449 0.0
O869 O 0.19805 0.32782 0.36377 0.0
O870 O 0.23597 0.39563 0.33258 0.0
O871 O 0.26424 0.40899 0.37034 0.0
H872 H 0.18459 0.40231 0.45213 0.0
H873 H 0.15798 0.38354 0.48891 0.0
H874 H 0.22071 0.31363 0.49674 0.0
H875 H 0.24843 0.33382 0.46024 0.0
H876 H 0.12065 0.28736 0.25478 0.0
H877 H 0.13852 0.30931 0.21698 0.0
H878 H 0.20489 0.43924 0.24438 0.0
H879 H 0.18791 0.41692 0.28238 0.0
C880 C 0.67268 0.87035 0.42446 0.0
Eu881 Eu 0.68009 0.86195 0.38118 0.0
C882 C 0.69058 0.86899 0.44708 0.0
C883 C 0.66795 0.83517 0.46001 0.0
C884 C 0.68292 0.83433 0.48189 0.0
C885 C 0.72088 0.86747 0.49159 0.0
C886 C 0.7436 0.90139 0.47865 0.0
C887 C 0.72866 0.90216 0.45667 0.0
C888 C 0.63486 0.792 0.35253 0.0
C889 C 0.75376 0.84084 0.37269 0.0
C890 C 0.72373 0.86364 0.29185 0.0
Eu891 Eu 0.71241 0.86683 0.33472 0.0
C892 C 0.70431 0.86277 0.26946 0.0
C893 C 0.72785 0.89213 0.25453 0.0
C894 C 0.71085 0.89188 0.23307 0.0
C895 C 0.66989 0.86203 0.22597 0.0
C896 C 0.64626 0.83252 0.24094 0.0
C897 C 0.66324 0.83298 0.26254 0.0
C898 C 0.7561 0.93624 0.36436 0.0
C899 C 0.63628 0.88241 0.34077 0.0
O900 O 0.69475 0.90187 0.41265 0.0
O901 O 0.65152 0.83487 0.41179 0.0
O902 O 0.61947 0.80632 0.36715 0.0
O903 O 0.67353 0.81371 0.35453 0.0
O904 O 0.73588 0.85358 0.38726 0.0
O905 O 0.74498 0.83752 0.35071 0.0
O906 O 0.70545 0.83031 0.30308 0.0
O907 O 0.73932 0.89871 0.30488 0.0
O908 O 0.77268 0.92179 0.35068 0.0
O909 O 0.71771 0.91442 0.36123 0.0
O910 O 0.65433 0.86815 0.32751 0.0
O911 O 0.64522 0.88889 0.363 0.0
H912 H 0.63823 0.8095 0.45331 0.0
H913 H 0.6642 0.80801 0.49141 0.0
H914 H 0.77309 0.92729 0.48545 0.0
H915 H 0.74683 0.92894 0.44731 0.0
H916 H 0.75962 0.91524 0.25943 0.0
H917 H 0.73004 0.91469 0.22187 0.0
H918 H 0.61451 0.80938 0.23605 0.0
H919 H 0.64427 0.81003 0.27375 0.0
C920 C 0.15039 0.84346 0.29921 0.0
Eu921 Eu 0.17192 0.85463 0.34272 0.0
C922 C 0.16852 0.84519 0.27728 0.0
C923 C 0.17805 0.879 0.2641 0.0
C924 C 0.19371 0.88059 0.24307 0.0
C925 C 0.20006 0.84823 0.23446 0.0
C926 C 0.19031 0.81421 0.2476 0.0
C927 C 0.17479 0.81271 0.26874 0.0
C928 C 0.19454 0.92441 0.3706 0.0
C929 C 0.27039 0.88486 0.35036 0.0
C930 C 0.2327 0.86455 0.43259 0.0
Eu931 Eu 0.21154 0.85606 0.38928 0.0
C932 C 0.21431 0.86384 0.45422 0.0
C933 C 0.20268 0.82964 0.46736 0.0
C934 C 0.18599 0.82861 0.48797 0.0
C935 C 0.18077 0.86197 0.4961 0.0
C936 C 0.19257 0.89634 0.483 0.0
C937 C 0.20908 0.89726 0.46229 0.0
C938 C 0.18819 0.78658 0.36062 0.0
C939 C 0.11496 0.82884 0.38358 0.0
O940 O 0.14418 0.81286 0.31166 0.0
O941 O 0.16352 0.87909 0.3114 0.0
O942 O 0.16225 0.90706 0.35627 0.0
O943 O 0.21472 0.90576 0.36863 0.0
O944 O 0.23664 0.86864 0.33636 0.0
O945 O 0.2694 0.88882 0.37246 0.0
O946 O 0.24188 0.89632 0.42049 0.0
O947 O 0.21712 0.82885 0.4201 0.0
O948 O 0.2212 0.80398 0.37438 0.0
O949 O 0.16839 0.80532 0.36341 0.0
O950 O 0.14967 0.84576 0.39651 0.0
O951 O 0.11392 0.82422 0.36121 0.0
H952 H 0.17303 0.90421 0.26997 0.0
H953 H 0.20015 0.90695 0.23335 0.0
H954 H 0.19509 0.78889 0.24166 0.0
H955 H 0.16757 0.78598 0.27831 0.0
H956 H 0.20672 0.80365 0.46176 0.0
H957 H 0.17782 0.80193 0.49773 0.0
H958 H 0.18865 0.92238 0.48863 0.0
H959 H 0.21778 0.92421 0.45266 0.0
C960 C 0.90227 0.71423 0.7645 0.0
Eu961 Eu 0.87401 0.71002 0.72297 0.0
C962 C 0.88542 0.70297 0.78672 0.0
C963 C 0.85939 0.71634 0.79508 0.0
C964 C 0.84382 0.70523 0.81612 0.0
C965 C 0.85367 0.68027 0.82926 0.0
C966 C 0.87964 0.66685 0.82075 0.0
C967 C 0.89534 0.67814 0.79976 0.0
C968 C 0.84497 0.75577 0.70208 0.0
C969 C 0.7775 0.63859 0.71011 0.0
C970 C 0.80655 0.6689 0.62727 0.0
Eu971 Eu 0.83769 0.67624 0.66851 0.0
C972 C 0.81932 0.6837 0.60479 0.0
C973 C 0.80597 0.65393 0.58603 0.0
C974 C 0.81603 0.66658 0.56436 0.0
C975 C 0.83957 0.70945 0.56086 0.0
C976 C 0.85372 0.73929 0.57978 0.0
C977 C 0.84371 0.72656 0.60154 0.0
C978 C 0.86621 0.62987 0.68901 0.0
C979 C 0.93405 0.74822 0.6817 0.0
O980 O 0.89289 0.68285 0.74947 0.0
O981 O 0.90156 0.74573 0.75563 0.0
O982 O 0.8581 0.76282 0.72341 0.0
O983 O 0.84718 0.72482 0.69434 0.0
O984 O 0.80853 0.65979 0.72588 0.0
O985 O 0.78091 0.64209 0.68793 0.0
O986 O 0.80859 0.696 0.64319 0.0
O987 O 0.81768 0.64309 0.63482 0.0
O988 O 0.85254 0.623 0.66782 0.0
O989 O 0.86471 0.66113 0.6971 0.0
O990 O 0.90263 0.72894 0.66592 0.0
O991 O 0.9309 0.74229 0.70368 0.0
H992 H 0.85104 0.73542 0.78541 0.0
H993 H 0.8244 0.71666 0.82218 0.0
H994 H 0.88741 0.64705 0.83013 0.0
H995 H 0.91516 0.66723 0.79363 0.0
H996 H 0.78732 0.6207 0.58811 0.0
H997 H 0.80518 0.64265 0.55031 0.0
H998 H 0.87158 0.77258 0.57772 0.0
H999 H 0.85461 0.75025 0.61572 0.0
C1000 C 0.33936 0.20365 0.75781 0.0
Eu1001 Eu 0.34675 0.19524 0.71453 0.0
C1002 C 0.35726 0.20229 0.78043 0.0
C1003 C 0.33465 0.16845 0.79335 0.0
C1004 C 0.34962 0.16761 0.81523 0.0
C1005 C 0.38757 0.20076 0.82494 0.0
C1006 C 0.41027 0.2347 0.81201 0.0
C1007 C 0.39533 0.23547 0.79003 0.0
C1008 C 0.30152 0.12528 0.68589 0.0
C1009 C 0.42043 0.17416 0.70603 0.0
C1010 C 0.39035 0.19692 0.62519 0.0
Eu1011 Eu 0.37904 0.20012 0.66806 0.0
C1012 C 0.37093 0.19606 0.60281 0.0
C1013 C 0.39448 0.2254 0.58786 0.0
C1014 C 0.37748 0.22516 0.5664 0.0
C1015 C 0.33651 0.19533 0.55931 0.0
C1016 C 0.31287 0.16584 0.57429 0.0
C1017 C 0.32984 0.16629 0.59588 0.0
C1018 C 0.42273 0.26953 0.6977 0.0
C1019 C 0.3029 0.21568 0.67413 0.0
O1020 O 0.36143 0.23516 0.74601 0.0
O1021 O 0.31818 0.16816 0.74515 0.0
O1022 O 0.28613 0.13959 0.70051 0.0
O1023 O 0.34019 0.147 0.68788 0.0
O1024 O 0.40254 0.18688 0.7206 0.0
O1025 O 0.41164 0.17083 0.68404 0.0
O1026 O 0.37205 0.16359 0.63642 0.0
O1027 O 0.40594 0.232 0.63822 0.0
O1028 O 0.43931 0.2551 0.68402 0.0
O1029 O 0.38433 0.24771 0.69457 0.0
O1030 O 0.32094 0.20142 0.66087 0.0
O1031 O 0.31187 0.22217 0.69636 0.0
H1032 H 0.30494 0.14276 0.78665 0.0
H1033 H 0.33091 0.14128 0.82475 0.0
H1034 H 0.43976 0.26061 0.81882 0.0
H1035 H 0.41349 0.26226 0.78067 0.0
H1036 H 0.42626 0.24849 0.59277 0.0
H1037 H 0.39668 0.24796 0.5552 0.0
H1038 H 0.28111 0.14272 0.5694 0.0
H1039 H 0.31086 0.14336 0.6071 0.0
C1040 C 0.81706 0.17683 0.63256 0.0
Eu1041 Eu 0.83861 0.18799 0.67607 0.0
C1042 C 0.83518 0.17856 0.61062 0.0
C1043 C 0.84459 0.2123 0.59741 0.0
C1044 C 0.86024 0.21389 0.57638 0.0
C1045 C 0.8667 0.18159 0.5678 0.0
C1046 C 0.85708 0.14764 0.58097 0.0
C1047 C 0.84156 0.14614 0.60211 0.0
C1048 C 0.86123 0.25776 0.70395 0.0
C1049 C 0.93708 0.21822 0.68369 0.0
C1050 C 0.8994 0.19782 0.76592 0.0
Eu1051 Eu 0.87823 0.1894 0.72262 0.0
C1052 C 0.88104 0.19715 0.78755 0.0
C1053 C 0.87014 0.16333 0.8009 0.0
C1054 C 0.85344 0.16231 0.8215 0.0
C1055 C 0.8475 0.19528 0.82943 0.0
C1056 C 0.85857 0.22927 0.81611 0.0
C1057 C 0.87507 0.23018 0.7954 0.0
C1058 C 0.85489 0.11993 0.69394 0.0
C1059 C 0.78167 0.16222 0.71694 0.0
O1060 O 0.81084 0.14623 0.64501 0.0
O1061 O 0.83022 0.21246 0.64475 0.0
O1062 O 0.82895 0.24042 0.68962 0.0
O1063 O 0.88142 0.23911 0.70198 0.0
O1064 O 0.90333 0.202 0.6697 0.0
O1065 O 0.93609 0.22216 0.70579 0.0
O1066 O 0.90864 0.22962 0.75383 0.0
O1067 O 0.88372 0.16211 0.75342 0.0
O1068 O 0.8879 0.13734 0.7077 0.0
O1069 O 0.83508 0.13866 0.69674 0.0
O1070 O 0.81639 0.17916 0.72986 0.0
O1071 O 0.78062 0.15758 0.69456 0.0
H1072 H 0.83949 0.23746 0.60326 0.0
H1073 H 0.86659 0.2402 0.56664 0.0
H1074 H 0.86194 0.12236 0.57505 0.0
H1075 H 0.83444 0.11946 0.6117 0.0
H1076 H 0.87475 0.13764 0.79545 0.0
H1077 H 0.84585 0.13593 0.83143 0.0
H1078 H 0.85407 0.25501 0.82158 0.0
H1079 H 0.88317 0.25682 0.7856 0.0
loop_
_geom_bond_atom_site_label_1
_geom_bond_atom_site_label_2
_geom_bond_distance
_geom_bond_site_symmetry_2
_ccdc_geom_bond_type
C0 C1 1.264 . S
C0 C5 1.479 . S
C0 C10 1.465 . S
C1 C0 1.264 . S
C1 C3 1.339 . S
C1 H28 0.931 . S
C2 C3 1.395 . S
C2 C4 1.320 . S
C3 C1 1.339 . S
C3 C2 1.395 . S
C3 H29 0.929 . S
C4 C2 1.320 . S
C4 C5 1.405 . S
C4 H30 0.930 . S
C5 C0 1.479 . S
C5 C4 1.405 . S
C5 H31 0.931 . S
U6 O7 2.454 . S
U6 O8 2.458 . S
U6 C9 2.984 . S
U6 C10 2.847 . S
U6 C23 2.882 . S
U6 O24 2.441 . S
U6 O25 2.420 . S
U6 O26 2.455 . S
U6 O27 2.449 . S
O7 U6 2.454 . S
O7 C9 1.353 . S
O8 U6 2.458 . S
O8 C9 1.286 . S
C9 U6 2.984 . S
C9 O7 1.353 . S
C9 O8 1.286 . S
C9 C11 1.363 . S
C10 C0 1.465 . S
C10 U6 2.847 . S
C10 O24 1.249 . S
C10 O25 1.202 . S
C11 C9 1.363 . S
C11 C13 1.408 . S
C11 C16 1.342 . S
C12 C13 1.310 . S
C12 C15 1.461 1_545 S
C12 H32 0.932 . S
C13 C11 1.408 . S
C13 C12 1.310 . S
C13 H33 0.930 . S
C14 C15 1.474 . S
C14 C16 1.285 1_565 S
C14 H34 0.929 . S
C15 C12 1.461 1_565 S
C15 C14 1.474 . S
C16 C11 1.342 . S
C16 C14 1.285 1_545 S
C16 H35 0.930 . S
C17 C20 1.424 . S
C17 C22 1.245 . S
C17 C23 1.428 . S
C18 C21 1.260 . S
C18 C22 1.477 . S
C18 H36 0.932 . S
C19 C20 1.384 . S
C19 C21 1.479 . S
C19 H37 0.929 . S
C20 C17 1.424 . S
C20 C19 1.384 . S
C20 H38 0.928 . S
C21 C18 1.260 . S
C21 C19 1.479 . S
C22 C17 1.245 . S
C22 C18 1.477 . S
C22 H39 0.932 . S
C23 U6 2.882 . S
C23 C17 1.428 . S
C23 O26 1.301 . S
C23 O27 1.282 . S
O24 U6 2.441 . S
O24 C10 1.249 . S
O25 U6 2.420 . S
O25 C10 1.202 . S
O26 U6 2.455 . S
O26 C23 1.301 . S
O27 U6 2.449 . S
O27 C23 1.282 . S
H28 C1 0.931 . S
H29 C3 0.929 . S
H30 C4 0.930 . S
H31 C5 0.931 . S
H32 C12 0.932 . S
H33 C13 0.930 . S
H34 C14 0.929 . S
H35 C16 0.930 . S
H36 C18 0.932 . S
H37 C19 0.929 . S
H38 C20 0.928 . S
H39 C22 0.932 . S
C40 C41 1.264 . S
C40 C45 1.479 . S
C40 C50 1.465 . S
C41 C40 1.264 . S
C41 C43 1.339 1_655 S
C41 H68 0.931 . S
C42 C43 1.395 . S
C42 C44 1.320 . S
C43 C41 1.339 1_455 S
C43 C42 1.395 . S
C43 H69 0.929 . S
C44 C42 1.320 . S
C44 C45 1.405 1_455 S
C44 H70 0.930 . S
C45 C40 1.479 . S
C45 C44 1.405 1_655 S
C45 H71 0.931 . S
U46 O47 2.454 . S
U46 O48 2.458 . S
U46 C49 2.984 . S
U46 C50 2.847 . S
U46 C63 2.882 . S
U46 O64 2.441 . S
U46 O65 2.420 . S
U46 O66 2.455 . S
U46 O67 2.449 . S
O47 U46 2.454 . S
O47 C49 1.353 . S
O48 U46 2.458 . S
O48 C49 1.286 . S
C49 U46 2.984 . S
C49 O47 1.353 . S
C49 O48 1.286 . S
C49 C51 1.363 . S
C50 C40 1.465 . S
C50 U46 2.847 . S
C50 O64 1.249 . S
C50 O65 1.202 . S
C51 C49 1.363 . S
C51 C53 1.408 . S
C51 C56 1.342 . S
C52 C53 1.294 1_565 S
C52 C55 1.472 . S
C52 H72 0.939 . S
C53 C51 1.408 . S
C53 C52 1.294 1_545 S
C53 H73 0.930 . S
C54 C55 1.474 . S
C54 C56 1.285 1_565 S
C54 H74 0.929 . S
C55 C52 1.472 . S
C55 C54 1.474 . S
C56 C51 1.342 . S
C56 C54 1.285 1_545 S
C56 H75 0.930 . S
C57 C60 1.424 . S
C57 C62 1.245 . S
C57 C63 1.428 . S
C58 C61 1.260 . S
C58 C62 1.477 . S
C58 H76 0.932 . S
C59 C60 1.384 . S
C59 C61 1.479 . S
C59 H77 0.929 . S
C60 C57 1.424 . S
C60 C59 1.384 . S
C60 H78 0.928 . S
C61 C58 1.260 . S
C61 C59 1.479 . S
C62 C57 1.245 . S
C62 C58 1.477 . S
C62 H79 0.932 . S
C63 U46 2.882 . S
C63 C57 1.428 . S
C63 O66 1.301 . S
C63 O67 1.282 . S
O64 U46 2.441 . S
O64 C50 1.249 . S
O65 U46 2.420 . S
O65 C50 1.202 . S
O66 U46 2.455 . S
O66 C63 1.301 . S
O67 U46 2.449 . S
O67 C63 1.282 . S
H68 C41 0.931 . S
H69 C43 0.929 . S
H70 C44 0.930 . S
H71 C45 0.931 . S
H72 C52 0.939 . S
H73 C53 0.930 . S
H74 C54 0.929 . S
H75 C56 0.930 . S
H76 C58 0.932 . S
H77 C59 0.929 . S
H78 C60 0.928 . S
H79 C62 0.932 . S
C80 C81 1.264 . S
C80 C85 1.479 . S
C80 C90 1.465 . S
C81 C80 1.264 . S
C81 C83 1.339 . S
C81 H108 0.931 . S
C82 C83 1.395 . S
C82 C84 1.320 . S
C83 C81 1.339 . S
C83 C82 1.395 . S
C83 H109 0.929 . S
C84 C82 1.320 . S
C84 C85 1.405 . S
C84 H110 0.930 . S
C85 C80 1.479 . S
C85 C84 1.405 . S
C85 H111 0.931 . S
U86 O87 2.454 . S
U86 O88 2.458 . S
U86 C89 2.984 . S
U86 C90 2.847 . S
U86 C103 2.882 . S
U86 O104 2.441 . S
U86 O105 2.420 . S
U86 O106 2.455 . S
U86 O107 2.449 . S
O87 U86 2.454 . S
O87 C89 1.353 . S
O88 U86 2.458 . S
O88 C89 1.286 . S
C89 U86 2.984 . S
C89 O87 1.353 . S
C89 O88 1.286 . S
C89 C91 1.363 . S
C90 C80 1.465 . S
C90 U86 2.847 . S
C90 O104 1.249 . S
C90 O105 1.202 . S
C91 C89 1.363 . S
C91 C93 1.408 . S
C91 C96 1.342 1_655 S
C92 C93 1.310 1_455 S
C92 C95 1.461 . S
C92 H112 0.932 . S
C93 C91 1.408 . S
C93 C92 1.310 1_655 S
C93 H113 0.930 . S
C94 C95 1.474 . S
C94 C96 1.285 . S
C94 H114 0.929 . S
C95 C92 1.461 . S
C95 C94 1.474 . S
C96 C91 1.342 1_455 S
C96 C94 1.285 . S
C96 H115 0.930 . S
C97 C100 1.424 . S
C97 C102 1.245 . S
C97 C103 1.428 . S
C98 C101 1.260 . S
C98 C102 1.477 . S
C98 H116 0.932 . S
C99 C100 1.384 . S
C99 C101 1.479 . S
C99 H117 0.929 . S
C100 C97 1.424 . S
C100 C99 1.384 . S
C100 H118 0.928 . S
C101 C98 1.260 . S
C101 C99 1.479 . S
C102 C97 1.245 . S
C102 C98 1.477 . S
C102 H119 0.932 . S
C103 U86 2.882 . S
C103 C97 1.428 . S
C103 O106 1.301 . S
C103 O107 1.282 . S
O104 U86 2.441 . S
O104 C90 1.249 . S
O105 U86 2.420 . S
O105 C90 1.202 . S
O106 U86 2.455 . S
O106 C103 1.301 . S
O107 U86 2.449 . S
O107 C103 1.282 . S
H108 C81 0.931 . S
H109 C83 0.929 . S
H110 C84 0.930 . S
H111 C85 0.931 . S
H112 C92 0.932 . S
H113 C93 0.930 . S
H114 C94 0.929 . S
H115 C96 0.930 . S
H116 C98 0.932 . S
H117 C99 0.929 . S
H118 C100 0.928 . S
H119 C102 0.932 . S
C120 C121 1.236 1_455 S
C120 C125 1.479 . S
C120 C130 1.465 . S
C121 C120 1.236 1_655 S
C121 C123 1.369 . S
C121 H148 0.929 1_655 S
C122 C123 1.395 . S
C122 C124 1.320 . S
C123 C121 1.369 . S
C123 C122 1.395 . S
C123 H149 0.929 . S
C124 C122 1.320 . S
C124 C125 1.405 1_655 S
C124 H150 0.930 . S
C125 C120 1.479 . S
C125 C124 1.405 1_455 S
C125 H151 0.931 . S
U126 O127 2.454 . S
U126 O128 2.458 . S
U126 C129 2.984 . S
U126 C130 2.847 . S
U126 C143 2.882 . S
U126 O144 2.441 . S
U126 O145 2.420 . S
U126 O146 2.455 . S
U126 O147 2.449 . S
O127 U126 2.454 . S
O127 C129 1.353 . S
O128 U126 2.458 . S
O128 C129 1.286 . S
C129 U126 2.984 . S
C129 O127 1.353 . S
C129 O128 1.286 . S
C129 C131 1.363 . S
C130 C120 1.465 . S
C130 U126 2.847 . S
C130 O144 1.249 . S
C130 O145 1.202 . S
C131 C129 1.363 . S
C131 C133 1.408 . S
C131 C136 1.342 . S
C132 C133 1.310 . S
C132 C135 1.461 . S
C132 H152 0.932 . S
C133 C131 1.408 . S
C133 C132 1.310 . S
C133 H153 0.930 . S
C134 C135 1.474 . S
C134 C136 1.285 . S
C134 H154 0.929 . S
C135 C132 1.461 . S
C135 C134 1.474 . S
C136 C131 1.342 . S
C136 C134 1.285 . S
C136 H155 0.930 . S
C137 C140 1.424 . S
C137 C142 1.245 . S
C137 C143 1.428 . S
C138 C141 1.260 . S
C138 C142 1.477 . S
C138 H156 0.932 . S
C139 C140 1.384 . S
C139 C141 1.479 . S
C139 H157 0.929 . S
C140 C137 1.424 . S
C140 C139 1.384 . S
C140 H158 0.928 . S
C141 C138 1.260 . S
C141 C139 1.479 . S
C142 C137 1.245 . S
C142 C138 1.477 . S
C142 H159 0.932 . S
C143 U126 2.882 . S
C143 C137 1.428 . S
C143 O146 1.301 . S
C143 O147 1.282 . S
O144 U126 2.441 . S
O144 C130 1.249 . S
O145 U126 2.420 . S
O145 C130 1.202 . S
O146 U126 2.455 . S
O146 C143 1.301 . S
O147 U126 2.449 . S
O147 C143 1.282 . S
H148 C121 0.929 1_455 S
H149 C123 0.929 . S
H150 C124 0.930 . S
H151 C125 0.931 . S
H152 C132 0.932 . S
H153 C133 0.930 . S
H154 C134 0.929 . S
H155 C136 0.930 . S
H156 C138 0.932 . S
H157 C139 0.929 . S
H158 C140 0.928 . S
H159 C142 0.932 . S
C160 C161 1.264 . S
C160 C165 1.479 . S
C160 C170 1.465 . S
C161 C160 1.264 . S
C161 C163 1.339 . S
C161 H188 0.931 . S
C162 C163 1.395 . S
C162 C164 1.320 . S
C163 C161 1.339 . S
C163 C162 1.395 . S
C163 H189 0.929 . S
C164 C162 1.320 . S
C164 C165 1.405 . S
C164 H190 0.930 . S
C165 C160 1.479 . S
C165 C164 1.405 . S
C165 H191 0.931 . S
U166 O167 2.454 . S
U166 O168 2.458 . S
U166 C169 2.984 . S
U166 C170 2.847 . S
U166 C183 2.882 . S
U166 O184 2.441 . S
U166 O185 2.420 . S
U166 O186 2.455 . S
U166 O187 2.449 . S
O167 U166 2.454 . S
O167 C169 1.353 . S
O168 U166 2.458 . S
O168 C169 1.286 . S
C169 U166 2.984 . S
C169 O167 1.353 . S
C169 O168 1.286 . S
C169 C171 1.363 . S
C170 C160 1.465 . S
C170 U166 2.847 . S
C170 O184 1.249 . S
C170 O185 1.202 . S
C171 C169 1.363 . S
C171 C173 1.408 . S
C171 C176 1.342 . S
C172 C173 1.310 . S
C172 C175 1.461 1_565 S
C172 H192 0.932 . S
C173 C171 1.408 . S
C173 C172 1.310 . S
C173 H193 0.930 . S
C174 C175 1.474 . S
C174 C176 1.285 1_545 S
C174 H194 0.929 . S
C175 C172 1.461 1_545 S
C175 C174 1.474 . S
C176 C171 1.342 . S
C176 C174 1.285 1_565 S
C176 H195 0.930 . S
C177 C180 1.424 . S
C177 C182 1.245 . S
C177 C183 1.428 . S
C178 C181 1.260 . S
C178 C182 1.477 . S
C178 H196 0.932 . S
C179 C180 1.384 . S
C179 C181 1.479 . S
C179 H197 0.929 . S
C180 C177 1.424 . S
C180 C179 1.384 . S
C180 H198 0.928 . S
C181 C178 1.260 . S
C181 C179 1.479 . S
C182 C177 1.245 . S
C182 C178 1.477 . S
C182 H199 0.932 . S
C183 U166 2.882 . S
C183 C177 1.428 . S
C183 O186 1.301 . S
C183 O187 1.282 . S
O184 U166 2.441 . S
O184 C170 1.249 . S
O185 U166 2.420 . S
O185 C170 1.202 . S
O186 U166 2.455 . S
O186 C183 1.301 . S
O187 U166 2.449 . S
O187 C183 1.282 . S
H188 C161 0.931 . S
H189 C163 0.929 . S
H190 C164 0.930 . S
H191 C165 0.931 . S
H192 C172 0.932 . S
H193 C173 0.930 . S
H194 C174 0.929 . S
H195 C176 0.930 . S
H196 C178 0.932 . S
H197 C179 0.929 . S
H198 C180 0.928 . S
H199 C182 0.932 . S
C200 C201 1.264 1_455 S
C200 C205 1.479 . S
C200 C210 1.465 . S
C201 C200 1.264 1_655 S
C201 C203 1.339 . S
C201 H228 0.931 . S
C202 C203 1.395 . S
C202 C204 1.320 . S
C203 C201 1.339 . S
C203 C202 1.395 . S
C203 H229 0.929 . S
C204 C202 1.320 . S
C204 C205 1.405 1_655 S
C204 H230 0.930 . S
C205 C200 1.479 . S
C205 C204 1.405 1_455 S
C205 H231 0.931 . S
U206 O207 2.454 . S
U206 O208 2.458 . S
U206 C209 2.984 . S
U206 C210 2.847 . S
U206 C223 2.882 . S
U206 O224 2.441 . S
U206 O225 2.420 . S
U206 O226 2.455 . S
U206 O227 2.449 . S
O207 U206 2.454 . S
O207 C209 1.353 . S
O208 U206 2.458 . S
O208 C209 1.286 . S
C209 U206 2.984 . S
C209 O207 1.353 . S
C209 O208 1.286 . S
C209 C211 1.363 . S
C210 C200 1.465 . S
C210 U206 2.847 . S
C210 O224 1.249 . S
C210 O225 1.202 . S
C211 C209 1.363 . S
C211 C213 1.408 . S
C211 C216 1.342 . S
C212 C213 1.310 1_545 S
C212 C215 1.461 . S
C212 H232 0.932 . S
C213 C211 1.408 . S
C213 C212 1.310 1_565 S
C213 H233 0.930 . S
C214 C215 1.474 . S
C214 C216 1.285 1_545 S
C214 H234 0.929 . S
C215 C212 1.461 . S
C215 C214 1.474 . S
C216 C211 1.342 . S
C216 C214 1.285 1_565 S
C216 H235 0.930 . S
C217 C220 1.424 . S
C217 C222 1.245 . S
C217 C223 1.428 . S
C218 C221 1.260 . S
C218 C222 1.477 . S
C218 H236 0.932 . S
C219 C220 1.384 . S
C219 C221 1.479 . S
C219 H237 0.929 . S
C220 C217 1.424 . S
C220 C219 1.384 . S
C220 H238 0.928 . S
C221 C218 1.260 . S
C221 C219 1.479 . S
C222 C217 1.245 . S
C222 C218 1.477 . S
C222 H239 0.932 . S
C223 U206 2.882 . S
C223 C217 1.428 . S
C223 O226 1.301 . S
C223 O227 1.282 . S
O224 U206 2.441 . S
O224 C210 1.249 . S
O225 U206 2.420 . S
O225 C210 1.202 . S
O226 U206 2.455 . S
O226 C223 1.301 . S
O227 U206 2.449 . S
O227 C223 1.282 . S
H228 C201 0.931 . S
H229 C203 0.929 . S
H230 C204 0.930 . S
H231 C205 0.931 . S
H232 C212 0.932 . S
H233 C213 0.930 . S
H234 C214 0.929 . S
H235 C216 0.930 . S
H236 C218 0.932 . S
H237 C219 0.929 . S
H238 C220 0.928 . S
H239 C222 0.932 . S
C240 C241 1.264 . S
C240 C245 1.479 . S
C240 C250 1.465 . S
C241 C240 1.264 . S
C241 C243 1.339 . S
C241 H268 0.931 . S
C242 C243 1.395 . S
C242 C244 1.320 . S
C243 C241 1.339 . S
C243 C242 1.395 . S
C243 H269 0.929 . S
C244 C242 1.320 . S
C244 C245 1.405 . S
C244 H270 0.930 . S
C245 C240 1.479 . S
C245 C244 1.405 . S
C245 H271 0.931 . S
U246 O247 2.454 . S
U246 O248 2.458 . S
U246 C249 2.984 . S
U246 C250 2.847 . S
U246 C263 2.882 . S
U246 O264 2.441 . S
U246 O265 2.420 . S
U246 O266 2.455 . S
U246 O267 2.449 . S
O247 U246 2.454 . S
O247 C249 1.353 . S
O248 U246 2.458 . S
O248 C249 1.286 . S
C249 U246 2.984 . S
C249 O247 1.353 . S
C249 O248 1.286 . S
C249 C251 1.363 . S
C250 C240 1.465 . S
C250 U246 2.847 . S
C250 O264 1.249 . S
C250 O265 1.202 . S
C251 C249 1.363 . S
C251 C253 1.408 . S
C251 C256 1.342 . S
C252 C253 1.310 . S
C252 C255 1.461 . S
C252 H272 0.932 . S
C253 C251 1.408 . S
C253 C252 1.310 . S
C253 H273 0.930 . S
C254 C255 1.474 . S
C254 C256 1.285 . S
C254 H274 0.929 . S
C255 C252 1.461 . S
C255 C254 1.474 . S
C256 C251 1.342 . S
C256 C254 1.285 . S
C256 H275 0.930 . S
C257 C260 1.424 . S
C257 C262 1.245 . S
C257 C263 1.428 . S
C258 C261 1.260 1_655 S
C258 C262 1.477 . S
C258 H276 0.932 . S
C259 C260 1.384 . S
C259 C261 1.479 1_655 S
C259 H277 0.929 . S
C260 C257 1.424 . S
C260 C259 1.384 . S
C260 H278 0.928 . S
C261 C258 1.260 1_455 S
C261 C259 1.479 1_455 S
C262 C257 1.245 . S
C262 C258 1.477 . S
C262 H279 0.932 . S
C263 U246 2.882 . S
C263 C257 1.428 . S
C263 O266 1.301 . S
C263 O267 1.282 . S
O264 U246 2.441 . S
O264 C250 1.249 . S
O265 U246 2.420 . S
O265 C250 1.202 . S
O266 U246 2.455 . S
O266 C263 1.301 . S
O267 U246 2.449 . S
O267 C263 1.282 . S
H268 C241 0.931 . S
H269 C243 0.929 . S
H270 C244 0.930 . S
H271 C245 0.931 . S
H272 C252 0.932 . S
H273 C253 0.930 . S
H274 C254 0.929 . S
H275 C256 0.930 . S
H276 C258 0.932 . S
H277 C259 0.929 . S
H278 C260 0.928 . S
H279 C262 0.932 . S
C280 C281 1.264 . S
C280 C285 1.479 . S
C280 C290 1.465 . S
C281 C280 1.264 . S
C281 C283 1.339 . S
C281 H308 0.931 . S
C282 C283 1.395 . S
C282 C284 1.320 . S
C283 C281 1.339 . S
C283 C282 1.395 . S
C283 H309 0.929 . S
C284 C282 1.320 . S
C284 C285 1.405 . S
C284 H310 0.930 . S
C285 C280 1.479 . S
C285 C284 1.405 . S
C285 H311 0.931 . S
U286 O287 2.454 . S
U286 O288 2.458 . S
U286 C289 2.984 . S
U286 C290 2.847 . S
U286 C303 2.882 . S
U286 O304 2.441 . S
U286 O305 2.420 . S
U286 O306 2.455 . S
U286 O307 2.449 . S
O287 U286 2.454 . S
O287 C289 1.353 . S
O288 U286 2.458 . S
O288 C289 1.286 . S
C289 U286 2.984 . S
C289 O287 1.353 . S
C289 O288 1.286 . S
C289 C291 1.363 . S
C290 C280 1.465 . S
C290 U286 2.847 . S
C290 O304 1.249 . S
C290 O305 1.202 . S
C291 C289 1.363 . S
C291 C293 1.408 . S
C291 C296 1.342 . S
C292 C293 1.310 . S
C292 C295 1.461 . S
C292 H312 0.932 . S
C293 C291 1.408 . S
C293 C292 1.310 . S
C293 H313 0.930 . S
C294 C295 1.474 . S
C294 C296 1.285 . S
C294 H314 0.929 . S
C295 C292 1.461 . S
C295 C294 1.474 . S
C296 C291 1.342 . S
C296 C294 1.285 . S
C296 H315 0.930 . S
C297 C300 1.424 . S
C297 C302 1.245 . S
C297 C303 1.428 . S
C298 C301 1.260 . S
C298 C302 1.477 . S
C298 H316 0.932 . S
C299 C300 1.384 . S
C299 C301 1.479 . S
C299 H317 0.929 . S
C300 C297 1.424 . S
C300 C299 1.384 . S
C300 H318 0.928 . S
C301 C298 1.260 . S
C301 C299 1.479 . S
C302 C297 1.245 . S
C302 C298 1.477 . S
C302 H319 0.932 . S
C303 U286 2.882 . S
C303 C297 1.428 . S
C303 O306 1.301 . S
C303 O307 1.282 . S
O304 U286 2.441 . S
O304 C290 1.249 . S
O305 U286 2.420 . S
O305 C290 1.202 . S
O306 U286 2.455 . S
O306 C303 1.301 . S
O307 U286 2.449 . S
O307 C303 1.282 . S
H308 C281 0.931 . S
H309 C283 0.929 . S
H310 C284 0.930 . S
H311 C285 0.931 . S
H312 C292 0.932 . S
H313 C293 0.930 . S
H314 C294 0.929 . S
H315 C296 0.930 . S
H316 C298 0.932 . S
H317 C299 0.929 . S
H318 C300 0.928 . S
H319 C302 0.932 . S
C320 C321 1.264 . S
C320 C325 1.479 . S
C320 C330 1.465 . S
C321 C320 1.264 . S
C321 C323 1.339 . S
C321 H348 0.931 . S
C322 C323 1.395 . S
C322 C324 1.320 . S
C323 C321 1.339 . S
C323 C322 1.395 . S
C323 H349 0.929 . S
C324 C322 1.320 . S
C324 C325 1.405 . S
C324 H350 0.930 . S
C325 C320 1.479 . S
C325 C324 1.405 . S
C325 H351 0.931 . S
U326 O327 2.454 . S
U326 O328 2.458 . S
U326 C329 2.984 . S
U326 C330 2.847 . S
U326 C343 2.882 . S
U326 O344 2.441 . S
U326 O345 2.420 . S
U326 O346 2.455 . S
U326 O347 2.449 . S
O327 U326 2.454 . S
O327 C329 1.353 . S
O328 U326 2.458 . S
O328 C329 1.286 . S
C329 U326 2.984 . S
C329 O327 1.353 . S
C329 O328 1.286 . S
C329 C331 1.363 . S
C330 C320 1.465 . S
C330 U326 2.847 . S
C330 O344 1.249 . S
C330 O345 1.202 . S
C331 C329 1.363 . S
C331 C333 1.408 . S
C331 C336 1.342 . S
C332 C333 1.310 . S
C332 C335 1.461 . S
C332 H352 0.932 . S
C333 C331 1.408 . S
C333 C332 1.310 . S
C333 H353 0.930 . S
C334 C335 1.474 . S
C334 C336 1.285 . S
C334 H354 0.929 . S
C335 C332 1.461 . S
C335 C334 1.474 . S
C336 C331 1.342 . S
C336 C334 1.285 . S
C336 H355 0.930 . S
C337 C340 1.424 . S
C337 C342 1.245 . S
C337 C343 1.428 . S
C338 C341 1.260 . S
C338 C342 1.477 . S
C338 H356 0.932 . S
C339 C340 1.384 . S
C339 C341 1.479 . S
C339 H357 0.929 . S
C340 C337 1.424 . S
C340 C339 1.384 . S
C340 H358 0.928 . S
C341 C338 1.260 . S
C341 C339 1.479 . S
C342 C337 1.245 . S
C342 C338 1.477 . S
C342 H359 0.932 . S
C343 U326 2.882 . S
C343 C337 1.428 . S
C343 O346 1.301 . S
C343 O347 1.282 . S
O344 U326 2.441 . S
O344 C330 1.249 . S
O345 U326 2.420 . S
O345 C330 1.202 . S
O346 U326 2.455 . S
O346 C343 1.301 . S
O347 U326 2.449 . S
O347 C343 1.282 . S
H348 C321 0.931 . S
H349 C323 0.929 . S
H350 C324 0.930 . S
H351 C325 0.931 . S
H352 C332 0.932 . S
H353 C333 0.930 . S
H354 C334 0.929 . S
H355 C336 0.930 . S
H356 C338 0.932 . S
H357 C339 0.929 . S
H358 C340 0.928 . S
H359 C342 0.932 . S
C360 C361 1.264 . S
C360 C365 1.479 . S
C360 C370 1.465 . S
C361 C360 1.264 . S
C361 C363 1.339 . S
C361 H388 0.931 . S
C362 C363 1.395 . S
C362 C364 1.320 . S
C363 C361 1.339 . S
C363 C362 1.395 . S
C363 H389 0.929 . S
C364 C362 1.320 . S
C364 C365 1.405 . S
C364 H390 0.930 1_556 S
C365 C360 1.479 . S
C365 C364 1.405 . S
C365 H391 0.931 . S
U366 O367 2.454 . S
U366 O368 2.458 . S
U366 C369 2.984 . S
U366 C370 2.847 . S
U366 C383 2.882 . S
U366 O384 2.441 . S
U366 O385 2.420 . S
U366 O386 2.455 . S
U366 O387 2.449 . S
O367 U366 2.454 . S
O367 C369 1.353 . S
O368 U366 2.458 . S
O368 C369 1.286 . S
C369 U366 2.984 . S
C369 O367 1.353 . S
C369 O368 1.286 . S
C369 C371 1.363 . S
C370 C360 1.465 . S
C370 U366 2.847 . S
C370 O384 1.249 . S
C370 O385 1.202 . S
C371 C369 1.363 . S
C371 C373 1.408 . S
C371 C376 1.342 . S
C372 C373 1.310 . S
C372 C375 1.461 . S
C372 H392 0.932 1_556 S
C373 C371 1.408 . S
C373 C372 1.310 . S
C373 H393 0.930 . S
C374 C375 1.474 . S
C374 C376 1.285 . S
C374 H394 0.929 . S
C375 C372 1.461 . S
C375 C374 1.474 . S
C376 C371 1.342 . S
C376 C374 1.285 . S
C376 H395 0.930 . S
C377 C380 1.424 . S
C377 C382 1.245 . S
C377 C383 1.428 . S
C378 C381 1.260 . S
C378 C382 1.477 . S
C378 H396 0.932 . S
C379 C380 1.384 . S
C379 C381 1.479 . S
C379 H397 0.929 . S
C380 C377 1.424 . S
C380 C379 1.384 . S
C380 H398 0.928 . S
C381 C378 1.260 . S
C381 C379 1.479 . S
C382 C377 1.245 . S
C382 C378 1.477 . S
C382 H399 0.932 . S
C383 U366 2.882 . S
C383 C377 1.428 . S
C383 O386 1.301 . S
C383 O387 1.282 . S
O384 U366 2.441 . S
O384 C370 1.249 . S
O385 U366 2.420 . S
O385 C370 1.202 . S
O386 U366 2.455 . S
O386 C383 1.301 . S
O387 U366 2.449 . S
O387 C383 1.282 . S
H388 C361 0.931 . S
H389 C363 0.929 . S
H390 C364 0.930 1_554 S
H391 C365 0.931 . S
H392 C372 0.932 1_554 S
H393 C373 0.930 . S
H394 C374 0.929 . S
H395 C376 0.930 . S
H396 C378 0.932 . S
H397 C379 0.929 . S
H398 C380 0.928 . S
H399 C382 0.932 . S
C400 C401 1.264 . S
C400 C405 1.479 1_556 S
C400 C410 1.465 . S
C401 C400 1.264 . S
C401 C403 1.339 . S
C401 H428 0.931 . S
C402 C403 1.395 1_554 S
C402 C404 1.320 . S
C403 C401 1.339 . S
C403 C402 1.395 1_556 S
C403 H429 0.929 1_545 S
C404 C402 1.320 . S
C404 C405 1.405 . S
C404 H430 0.930 . S
C405 C400 1.479 1_554 S
C405 C404 1.405 . S
C405 H431 0.931 . S
U406 O407 2.454 . S
U406 O408 2.458 . S
U406 C409 2.984 . S
U406 C410 2.847 . S
U406 C423 2.882 . S
U406 O424 2.441 . S
U406 O425 2.420 . S
U406 O426 2.455 . S
U406 O427 2.449 . S
O407 U406 2.454 . S
O407 C409 1.353 . S
O408 U406 2.458 . S
O408 C409 1.286 . S
C409 U406 2.984 . S
C409 O407 1.353 . S
C409 O408 1.286 . S
C409 C411 1.363 . S
C410 C400 1.465 . S
C410 U406 2.847 . S
C410 O424 1.249 . S
C410 O425 1.202 . S
C411 C409 1.363 . S
C411 C413 1.408 1_556 S
C411 C416 1.342 . S
C412 C413 1.310 . S
C412 C415 1.461 . S
C412 H432 0.932 . S
C413 C411 1.408 1_554 S
C413 C412 1.310 . S
C413 H433 0.930 . S
C414 C415 1.474 1_556 S
C414 C416 1.285 . S
C414 H434 0.929 . S
C415 C412 1.461 . S
C415 C414 1.474 1_554 S
C416 C411 1.342 . S
C416 C414 1.285 . S
C416 H435 0.930 . S
C417 C420 1.424 . S
C417 C422 1.245 . S
C417 C423 1.428 . S
C418 C421 1.260 . S
C418 C422 1.477 . S
C418 H436 0.932 . S
C419 C420 1.384 . S
C419 C421 1.479 . S
C419 H437 0.929 . S
C420 C417 1.424 . S
C420 C419 1.384 . S
C420 H438 0.928 . S
C421 C418 1.260 . S
C421 C419 1.479 . S
C422 C417 1.245 . S
C422 C418 1.477 . S
C422 H439 0.932 . S
C423 U406 2.882 . S
C423 C417 1.428 . S
C423 O426 1.301 . S
C423 O427 1.282 . S
O424 U406 2.441 . S
O424 C410 1.249 . S
O425 U406 2.420 . S
O425 C410 1.202 . S
O426 U406 2.455 . S
O426 C423 1.301 . S
O427 U406 2.449 . S
O427 C423 1.282 . S
H428 C401 0.931 . S
H429 C403 0.929 1_565 S
H430 C404 0.930 . S
H431 C405 0.931 . S
H432 C412 0.932 . S
H433 C413 0.930 . S
H434 C414 0.929 . S
H435 C416 0.930 . S
H436 C418 0.932 . S
H437 C419 0.929 . S
H438 C420 0.928 . S
H439 C422 0.932 . S
C440 C441 1.264 . S
C440 C445 1.479 . S
C440 C450 1.465 . S
C441 C440 1.264 . S
C441 C443 1.339 . S
C441 H468 0.931 . S
C442 C443 1.395 . S
C442 C444 1.320 1_556 S
C443 C441 1.339 . S
C443 C442 1.395 . S
C443 H469 0.929 . S
C444 C442 1.320 1_554 S
C444 C445 1.405 1_554 S
C444 H470 0.930 . S
C445 C440 1.479 . S
C445 C444 1.405 1_556 S
C445 H471 0.931 1_556 S
U446 O447 2.454 . S
U446 O448 2.458 . S
U446 C449 2.984 . S
U446 C450 2.847 . S
U446 C463 2.882 . S
U446 O464 2.441 . S
U446 O465 2.420 . S
U446 O466 2.455 . S
U446 O467 2.449 . S
O447 U446 2.454 . S
O447 C449 1.353 . S
O448 U446 2.458 . S
O448 C449 1.286 . S
C449 U446 2.984 . S
C449 O447 1.353 . S
C449 O448 1.286 . S
C449 C451 1.363 . S
C450 C440 1.465 . S
C450 U446 2.847 . S
C450 O464 1.249 . S
C450 O465 1.202 . S
C451 C449 1.363 . S
C451 C453 1.408 1_556 S
C451 C456 1.342 . S
C452 C453 1.310 . S
C452 C455 1.461 . S
C452 H472 0.932 . S
C453 C451 1.408 1_554 S
C453 C452 1.310 . S
C453 H473 0.930 . S
C454 C455 1.474 1_556 S
C454 C456 1.285 . S
C454 H474 0.929 . S
C455 C452 1.461 . S
C455 C454 1.474 1_554 S
C456 C451 1.342 . S
C456 C454 1.285 . S
C456 H475 0.930 . S
C457 C460 1.424 . S
C457 C462 1.245 . S
C457 C463 1.428 . S
C458 C461 1.260 . S
C458 C462 1.477 . S
C458 H476 0.932 . S
C459 C460 1.384 . S
C459 C461 1.479 . S
C459 H477 0.929 . S
C460 C457 1.424 . S
C460 C459 1.384 . S
C460 H478 0.928 . S
C461 C458 1.260 . S
C461 C459 1.479 . S
C462 C457 1.245 . S
C462 C458 1.477 . S
C462 H479 0.932 . S
C463 U446 2.882 . S
C463 C457 1.428 . S
C463 O466 1.301 . S
C463 O467 1.282 . S
O464 U446 2.441 . S
O464 C450 1.249 . S
O465 U446 2.420 . S
O465 C450 1.202 . S
O466 U446 2.455 . S
O466 C463 1.301 . S
O467 U446 2.449 . S
O467 C463 1.282 . S
H468 C441 0.931 . S
H469 C443 0.929 . S
H470 C444 0.930 . S
H471 C445 0.931 1_554 S
H472 C452 0.932 . S
H473 C453 0.930 . S
H474 C454 0.929 . S
H475 C456 0.930 . S
H476 C458 0.932 . S
H477 C459 0.929 . S
H478 C460 0.928 . S
H479 C462 0.932 . S
C480 C481 1.264 . S
C480 C485 1.479 . S
C480 C490 1.465 . S
C481 C480 1.264 . S
C481 C483 1.339 . S
C481 H508 0.931 . S
C482 C483 1.395 . S
C482 C484 1.320 1_554 S
C483 C481 1.339 . S
C483 C482 1.395 . S
C483 H509 0.929 . S
C484 C482 1.320 1_556 S
C484 C485 1.405 1_556 S
C484 H510 0.930 . S
C485 C480 1.479 . S
C485 C484 1.405 1_554 S
C485 H511 0.931 1_554 S
U486 O487 2.454 . S
U486 O488 2.458 . S
U486 C489 2.984 . S
U486 C490 2.847 . S
U486 C503 2.882 . S
U486 O504 2.441 . S
U486 O505 2.420 . S
U486 O506 2.455 . S
U486 O507 2.449 . S
O487 U486 2.454 . S
O487 C489 1.353 . S
O488 U486 2.458 . S
O488 C489 1.286 . S
C489 U486 2.984 . S
C489 O487 1.353 . S
C489 O488 1.286 . S
C489 C491 1.363 . S
C490 C480 1.465 . S
C490 U486 2.847 . S
C490 O504 1.249 . S
C490 O505 1.202 . S
C491 C489 1.363 . S
C491 C493 1.425 . S
C491 C496 1.342 . S
C492 C493 1.302 1_556 S
C492 C495 1.440 1_556 S
C492 H512 0.932 . S
C493 C491 1.425 . S
C493 C492 1.302 1_554 S
C493 H513 0.921 1_554 S
C494 C495 1.513 . S
C494 C496 1.285 . S
C494 H514 0.929 . S
C495 C492 1.440 1_554 S
C495 C494 1.513 . S
C496 C491 1.342 . S
C496 C494 1.285 . S
C496 H515 0.930 . S
C497 C500 1.424 . S
C497 C502 1.245 . S
C497 C503 1.428 . S
C498 C501 1.260 . S
C498 C502 1.477 . S
C498 H516 0.932 . S
C499 C500 1.384 . S
C499 C501 1.479 . S
C499 H517 0.929 . S
C500 C497 1.424 . S
C500 C499 1.384 . S
C500 H518 0.928 . S
C501 C498 1.260 . S
C501 C499 1.479 . S
C502 C497 1.245 . S
C502 C498 1.477 . S
C502 H519 0.932 . S
C503 U486 2.882 . S
C503 C497 1.428 . S
C503 O506 1.301 . S
C503 O507 1.282 . S
O504 U486 2.441 . S
O504 C490 1.249 . S
O505 U486 2.420 . S
O505 C490 1.202 . S
O506 U486 2.455 . S
O506 C503 1.301 . S
O507 U486 2.449 . S
O507 C503 1.282 . S
H508 C481 0.931 . S
H509 C483 0.929 . S
H510 C484 0.930 . S
H511 C485 0.931 1_556 S
H512 C492 0.932 . S
H513 C493 0.921 1_556 S
H514 C494 0.929 . S
H515 C496 0.930 . S
H516 C498 0.932 . S
H517 C499 0.929 . S
H518 C500 0.928 . S
H519 C502 0.932 . S
C520 C521 1.264 . S
C520 C525 1.479 . S
C520 C530 1.465 . S
C521 C520 1.264 . S
C521 C523 1.339 . S
C521 H548 0.931 . S
C522 C523 1.395 . S
C522 C524 1.320 . S
C523 C521 1.339 . S
C523 C522 1.395 . S
C523 H549 0.929 . S
C524 C522 1.320 . S
C524 C525 1.405 . S
C524 H550 0.930 1_554 S
C525 C520 1.479 . S
C525 C524 1.405 . S
C525 H551 0.931 . S
U526 O527 2.454 . S
U526 O528 2.458 . S
U526 C529 2.984 . S
U526 C530 2.847 . S
U526 C543 2.882 . S
U526 O544 2.441 . S
U526 O545 2.420 . S
U526 O546 2.455 . S
U526 O547 2.449 . S
O527 U526 2.454 . S
O527 C529 1.353 . S
O528 U526 2.458 . S
O528 C529 1.286 . S
C529 U526 2.984 . S
C529 O527 1.353 . S
C529 O528 1.286 . S
C529 C531 1.363 . S
C530 C520 1.465 . S
C530 U526 2.847 . S
C530 O544 1.249 . S
C530 O545 1.202 . S
C531 C529 1.363 . S
C531 C533 1.408 . S
C531 C536 1.342 . S
C532 C533 1.310 1_556 S
C532 C535 1.461 1_556 S
C532 H552 0.932 . S
C533 C531 1.408 . S
C533 C532 1.310 1_554 S
C533 H553 0.930 1_554 S
C534 C535 1.474 . S
C534 C536 1.285 . S
C534 H554 0.929 . S
C535 C532 1.461 1_554 S
C535 C534 1.474 . S
C536 C531 1.342 . S
C536 C534 1.285 . S
C536 H555 0.930 . S
C537 C540 1.424 . S
C537 C542 1.245 . S
C537 C543 1.428 . S
C538 C541 1.260 . S
C538 C542 1.477 . S
C538 H556 0.932 . S
C539 C540 1.384 . S
C539 C541 1.479 . S
C539 H557 0.929 . S
C540 C537 1.424 . S
C540 C539 1.384 . S
C540 H558 0.928 . S
C541 C538 1.260 . S
C541 C539 1.479 . S
C542 C537 1.245 . S
C542 C538 1.477 . S
C542 H559 0.932 . S
C543 U526 2.882 . S
C543 C537 1.428 . S
C543 O546 1.301 . S
C543 O547 1.282 . S
O544 U526 2.441 . S
O544 C530 1.249 . S
O545 U526 2.420 . S
O545 C530 1.202 . S
O546 U526 2.455 . S
O546 C543 1.301 . S
O547 U526 2.449 . S
O547 C543 1.282 . S
H548 C521 0.931 . S
H549 C523 0.929 . S
H550 C524 0.930 1_556 S
H551 C525 0.931 . S
H552 C532 0.932 . S
H553 C533 0.930 1_556 S
H554 C534 0.929 . S
H555 C536 0.930 . S
H556 C538 0.932 . S
H557 C539 0.929 . S
H558 C540 0.928 . S
H559 C542 0.932 . S
C560 C561 1.264 . S
C560 C565 1.479 . S
C560 C570 1.465 . S
C561 C560 1.264 . S
C561 C563 1.339 . S
C561 H588 0.931 . S
C562 C563 1.395 . S
C562 C564 1.320 . S
C563 C561 1.339 . S
C563 C562 1.395 . S
C563 H589 0.929 . S
C564 C562 1.320 . S
C564 C565 1.405 . S
C564 H590 0.930 1_554 S
C565 C560 1.479 . S
C565 C564 1.405 . S
C565 H591 0.931 . S
U566 O567 2.454 . S
U566 O568 2.458 . S
U566 C569 2.984 . S
U566 C570 2.847 . S
U566 C583 2.882 . S
U566 O584 2.441 . S
U566 O585 2.420 . S
U566 O586 2.455 . S
U566 O587 2.449 . S
O567 U566 2.454 . S
O567 C569 1.353 . S
O568 U566 2.458 . S
O568 C569 1.286 . S
C569 U566 2.984 . S
C569 O567 1.353 . S
C569 O568 1.286 . S
C569 C571 1.363 . S
C570 C560 1.465 . S
C570 U566 2.847 . S
C570 O584 1.249 . S
C570 O585 1.202 . S
C571 C569 1.363 . S
C571 C573 1.408 . S
C571 C576 1.342 . S
C572 C573 1.310 . S
C572 C575 1.461 . S
C572 H592 0.932 . S
C573 C571 1.408 . S
C573 C572 1.310 . S
C573 H593 0.930 . S
C574 C575 1.474 . S
C574 C576 1.285 . S
C574 H594 0.929 . S
C575 C572 1.461 . S
C575 C574 1.474 . S
C576 C571 1.342 . S
C576 C574 1.285 . S
C576 H595 0.930 . S
C577 C580 1.424 . S
C577 C582 1.245 . S
C577 C583 1.428 . S
C578 C581 1.260 . S
C578 C582 1.477 . S
C578 H596 0.932 . S
C579 C580 1.384 . S
C579 C581 1.479 . S
C579 H597 0.929 . S
C580 C577 1.424 . S
C580 C579 1.384 . S
C580 H598 0.928 . S
C581 C578 1.260 . S
C581 C579 1.479 . S
C582 C577 1.245 . S
C582 C578 1.477 . S
C582 H599 0.932 . S
C583 U566 2.882 . S
C583 C577 1.428 . S
C583 O586 1.301 . S
C583 O587 1.282 . S
O584 U566 2.441 . S
O584 C570 1.249 . S
O585 U566 2.420 . S
O585 C570 1.202 . S
O586 U566 2.455 . S
O586 C583 1.301 . S
O587 U566 2.449 . S
O587 C583 1.282 . S
H588 C561 0.931 . S
H589 C563 0.929 . S
H590 C564 0.930 1_556 S
H591 C565 0.931 . S
H592 C572 0.932 . S
H593 C573 0.930 . S
H594 C574 0.929 . S
H595 C576 0.930 . S
H596 C578 0.932 . S
H597 C579 0.929 . S
H598 C580 0.928 . S
H599 C582 0.932 . S
C600 C601 1.264 . S
C600 C605 1.479 . S
C600 C610 1.465 . S
C601 C600 1.264 . S
C601 C603 1.339 . S
C601 H628 0.931 . S
C602 C603 1.395 . S
C602 C604 1.320 . S
C603 C601 1.339 . S
C603 C602 1.395 . S
C603 H629 0.929 . S
C604 C602 1.320 . S
C604 C605 1.405 . S
C604 H630 0.930 . S
C605 C600 1.479 . S
C605 C604 1.405 . S
C605 H631 0.931 . S
U606 O607 2.454 . S
U606 O608 2.458 . S
U606 C609 2.984 . S
U606 C610 2.847 . S
U606 C623 2.882 . S
U606 O624 2.441 . S
U606 O625 2.420 . S
U606 O626 2.455 . S
U606 O627 2.449 . S
O607 U606 2.454 . S
O607 C609 1.353 . S
O608 U606 2.458 . S
O608 C609 1.286 . S
C609 U606 2.984 . S
C609 O607 1.353 . S
C609 O608 1.286 . S
C609 C611 1.363 . S
C610 C600 1.465 . S
C610 U606 2.847 . S
C610 O624 1.249 . S
C610 O625 1.202 . S
C611 C609 1.363 . S
C611 C613 1.408 . S
C611 C616 1.342 . S
C612 C613 1.310 . S
C612 C615 1.461 . S
C612 H632 0.932 . S
C613 C611 1.408 . S
C613 C612 1.310 . S
C613 H633 0.930 . S
C614 C615 1.474 . S
C614 C616 1.285 . S
C614 H634 0.929 . S
C615 C612 1.461 . S
C615 C614 1.474 . S
C616 C611 1.342 . S
C616 C614 1.285 . S
C616 H635 0.930 . S
C617 C620 1.424 . S
C617 C622 1.245 . S
C617 C623 1.428 . S
C618 C621 1.260 . S
C618 C622 1.477 . S
C618 H636 0.932 . S
C619 C620 1.384 . S
C619 C621 1.479 . S
C619 H637 0.929 . S
C620 C617 1.424 . S
C620 C619 1.384 . S
C620 H638 0.928 . S
C621 C618 1.260 . S
C621 C619 1.479 . S
C622 C617 1.245 . S
C622 C618 1.477 . S
C622 H639 0.932 . S
C623 U606 2.882 . S
C623 C617 1.428 . S
C623 O626 1.301 . S
C623 O627 1.282 . S
O624 U606 2.441 . S
O624 C610 1.249 . S
O625 U606 2.420 . S
O625 C610 1.202 . S
O626 U606 2.455 . S
O626 C623 1.301 . S
O627 U606 2.449 . S
O627 C623 1.282 . S
H628 C601 0.931 . S
H629 C603 0.929 . S
H630 C604 0.930 . S
H631 C605 0.931 . S
H632 C612 0.932 . S
H633 C613 0.930 . S
H634 C614 0.929 . S
H635 C616 0.930 . S
H636 C618 0.932 . S
H637 C619 0.929 . S
H638 C620 0.928 . S
H639 C622 0.932 . S
C640 C641 1.264 . S
C640 C645 1.479 . S
C640 C650 1.465 . S
C641 C640 1.264 . S
C641 C643 1.339 . S
C641 H668 0.931 . S
C642 C643 1.395 . S
C642 C644 1.320 . S
C643 C641 1.339 . S
C643 C642 1.395 . S
C643 H669 0.929 . S
C644 C642 1.320 . S
C644 C645 1.405 . S
C644 H670 0.930 . S
C645 C640 1.479 . S
C645 C644 1.405 . S
C645 H671 0.931 . S
U646 O647 2.454 . S
U646 O648 2.458 . S
U646 C649 2.984 . S
U646 C650 2.847 . S
U646 C663 2.882 1_455 S
U646 O664 2.441 . S
U646 O665 2.420 . S
U646 O666 2.455 . S
U646 O667 2.449 1_455 S
O647 U646 2.454 . S
O647 C649 1.353 . S
O648 U646 2.458 . S
O648 C649 1.286 . S
C649 U646 2.984 . S
C649 O647 1.353 . S
C649 O648 1.286 . S
C649 C651 1.363 . S
C650 C640 1.465 . S
C650 U646 2.847 . S
C650 O664 1.249 . S
C650 O665 1.202 . S
C651 C649 1.363 . S
C651 C653 1.408 . S
C651 C656 1.342 . S
C652 C653 1.310 . S
C652 C655 1.461 . S
C652 H672 0.932 . S
C653 C651 1.408 . S
C653 C652 1.310 . S
C653 H673 0.930 . S
C654 C655 1.474 . S
C654 C656 1.285 . S
C654 H674 0.929 . S
C655 C652 1.461 . S
C655 C654 1.474 . S
C656 C651 1.342 . S
C656 C654 1.285 . S
C656 H675 0.930 . S
C657 C660 1.424 . S
C657 C662 1.245 . S
C657 C663 1.428 . S
C658 C661 1.260 . S
C658 C662 1.477 . S
C658 H676 0.932 . S
C659 C660 1.384 . S
C659 C661 1.479 . S
C659 H677 0.929 . S
C660 C657 1.424 . S
C660 C659 1.384 . S
C660 H678 0.928 . S
C661 C658 1.260 . S
C661 C659 1.479 . S
C662 C657 1.245 . S
C662 C658 1.477 . S
C662 H679 0.932 . S
C663 U646 2.882 1_655 S
C663 C657 1.428 . S
C663 O666 1.301 1_655 S
C663 O667 1.282 . S
O664 U646 2.441 . S
O664 C650 1.249 . S
O665 U646 2.420 . S
O665 C650 1.202 . S
O666 U646 2.455 . S
O666 C663 1.301 1_455 S
O667 U646 2.449 1_655 S
O667 C663 1.282 . S
H668 C641 0.931 . S
H669 C643 0.929 . S
H670 C644 0.930 . S
H671 C645 0.931 . S
H672 C652 0.932 . S
H673 C653 0.930 . S
H674 C654 0.929 . S
H675 C656 0.930 . S
H676 C658 0.932 . S
H677 C659 0.929 . S
H678 C660 0.928 . S
H679 C662 0.932 . S
C680 C681 1.264 . S
C680 C685 1.479 . S
C680 C690 1.465 . S
C681 C680 1.264 . S
C681 C683 1.339 . S
C681 H708 0.931 . S
C682 C683 1.395 . S
C682 C684 1.320 . S
C683 C681 1.339 . S
C683 C682 1.395 . S
C683 H709 0.929 . S
C684 C682 1.320 . S
C684 C685 1.405 . S
C684 H710 0.930 . S
C685 C680 1.479 . S
C685 C684 1.405 . S
C685 H711 0.931 . S
U686 O687 2.454 . S
U686 O688 2.458 . S
U686 C689 2.984 . S
U686 C690 2.847 . S
U686 C703 2.882 . S
U686 O704 2.441 . S
U686 O705 2.420 . S
U686 O706 2.455 . S
U686 O707 2.449 . S
O687 U686 2.454 . S
O687 C689 1.353 . S
O688 U686 2.458 . S
O688 C689 1.286 . S
C689 U686 2.984 . S
C689 O687 1.353 . S
C689 O688 1.286 . S
C689 C691 1.363 . S
C690 C680 1.465 . S
C690 U686 2.847 . S
C690 O704 1.249 . S
C690 O705 1.202 . S
C691 C689 1.363 . S
C691 C693 1.408 . S
C691 C696 1.342 . S
C692 C693 1.310 . S
C692 C695 1.461 . S
C692 H712 0.932 . S
C693 C691 1.408 . S
C693 C692 1.310 . S
C693 H713 0.930 . S
C694 C695 1.474 . S
C694 C696 1.285 . S
C694 H714 0.929 . S
C695 C692 1.461 . S
C695 C694 1.474 . S
C696 C691 1.342 . S
C696 C694 1.285 . S
C696 H715 0.930 . S
C697 C700 1.424 . S
C697 C702 1.245 . S
C697 C703 1.428 . S
C698 C701 1.260 . S
C698 C702 1.477 . S
C698 H716 0.932 . S
C699 C700 1.384 . S
C699 C701 1.479 . S
C699 H717 0.929 . S
C700 C697 1.424 . S
C700 C699 1.384 . S
C700 H718 0.928 . S
C701 C698 1.260 . S
C701 C699 1.479 . S
C702 C697 1.245 . S
C702 C698 1.477 . S
C702 H719 0.932 . S
C703 U686 2.882 . S
C703 C697 1.428 . S
C703 O706 1.301 . S
C703 O707 1.282 . S
O704 U686 2.441 . S
O704 C690 1.249 . S
O705 U686 2.420 . S
O705 C690 1.202 . S
O706 U686 2.455 . S
O706 C703 1.301 . S
O707 U686 2.449 . S
O707 C703 1.282 . S
H708 C681 0.931 . S
H709 C683 0.929 . S
H710 C684 0.930 . S
H711 C685 0.931 . S
H712 C692 0.932 . S
H713 C693 0.930 . S
H714 C694 0.929 . S
H715 C696 0.930 . S
H716 C698 0.932 . S
H717 C699 0.929 . S
H718 C700 0.928 . S
H719 C702 0.932 . S
C720 Eu721 2.835 . S
C720 C722 1.500 . S
C720 O740 1.257 1_545 S
C720 O741 1.260 . S
Eu721 C720 2.835 . S
Eu721 O740 2.473 1_545 S
Eu721 O741 2.480 . S
Eu721 O742 2.430 . S
Eu721 O743 2.670 1_554 S
Eu721 O744 2.394 1_545 S
Eu721 O749 2.355 1_545 S
Eu721 O751 2.374 . S
C722 C720 1.500 . S
C722 C723 1.377 . S
C722 C727 1.377 1_545 S
C723 C722 1.377 . S
C723 C724 1.395 . S
C723 H752 0.931 . S
C724 C723 1.395 . S
C724 C725 1.383 1_545 S
C724 H753 0.931 . S
C725 C724 1.383 1_565 S
C725 C726 1.394 . S
C726 C725 1.394 . S
C726 C727 1.378 . S
C726 H754 0.931 . S
C727 C722 1.377 1_565 S
C727 C726 1.378 . S
C727 H755 0.931 . S
C728 O742 1.299 . S
C728 O743 1.256 1_554 S
C729 O744 1.251 . S
C729 O745 1.205 1_554 S
C730 Eu731 2.835 . S
C730 C732 1.500 . S
C730 O746 1.257 1_565 S
C730 O747 1.260 . S
Eu731 C730 2.835 . S
Eu731 O743 2.355 1_565 S
Eu731 O745 2.408 . S
Eu731 O746 2.473 1_565 S
Eu731 O747 2.480 . S
Eu731 O748 2.430 . S
Eu731 O749 2.670 1_556 S
Eu731 O750 2.394 1_565 S
C732 C730 1.500 . S
C732 C733 1.377 . S
C732 C737 1.377 1_565 S
C733 C732 1.377 . S
C733 C734 1.395 . S
C733 H756 0.931 . S
C734 C733 1.395 . S
C734 C735 1.383 1_565 S
C734 H757 0.931 . S
C735 C734 1.383 1_545 S
C735 C736 1.394 . S
C736 C735 1.394 . S
C736 C737 1.378 . S
C736 H758 0.931 . S
C737 C732 1.377 1_545 S
C737 C736 1.378 . S
C737 H759 0.931 . S
C738 O748 1.259 1_554 S
C738 O749 1.270 . S
C739 O750 1.251 . S
C739 O751 1.251 1_556 S
O740 C720 1.257 1_565 S
O740 Eu721 2.473 1_565 S
O741 C720 1.260 . S
O741 Eu721 2.480 . S
O742 Eu721 2.430 . S
O742 C728 1.299 . S
O743 Eu721 2.670 1_556 S
O743 C728 1.256 1_556 S
O743 Eu731 2.355 1_545 S
O744 Eu721 2.394 1_565 S
O744 C729 1.251 . S
O745 C729 1.205 1_556 S
O745 Eu731 2.408 . S
O746 C730 1.257 1_545 S
O746 Eu731 2.473 1_545 S
O747 C730 1.260 . S
O747 Eu731 2.480 . S
O748 Eu731 2.430 . S
O748 C738 1.259 1_556 S
O749 Eu721 2.355 1_565 S
O749 Eu731 2.670 1_554 S
O749 C738 1.270 . S
O750 Eu731 2.394 1_545 S
O750 C739 1.251 . S
O751 Eu721 2.374 . S
O751 C739 1.251 1_554 S
H752 C723 0.931 . S
H753 C724 0.931 . S
H754 C726 0.931 . S
H755 C727 0.931 . S
H756 C733 0.931 . S
H757 C734 0.931 . S
H758 C736 0.931 . S
H759 C737 0.931 . S
C760 Eu761 2.835 . S
C760 C762 1.500 1_655 S
C760 O780 1.257 1_655 S
C760 O781 1.260 . S
Eu761 C760 2.835 . S
Eu761 O780 2.473 1_655 S
Eu761 O781 2.480 . S
Eu761 O782 2.430 . S
Eu761 O783 2.670 1_554 S
Eu761 O784 2.394 1_655 S
Eu761 O789 2.355 1_655 S
Eu761 O791 2.374 . S
C762 C760 1.500 1_455 S
C762 C763 1.377 1_455 S
C762 C767 1.377 . S
C763 C762 1.377 1_655 S
C763 C764 1.395 . S
C763 H792 0.931 . S
C764 C763 1.395 . S
C764 C765 1.383 1_655 S
C764 H793 0.931 . S
C765 C764 1.383 1_455 S
C765 C766 1.394 . S
C766 C765 1.394 . S
C766 C767 1.378 . S
C766 H794 0.931 . S
C767 C762 1.377 . S
C767 C766 1.378 . S
C767 H795 0.931 . S
C768 O782 1.259 1_556 S
C768 O783 1.270 . S
C769 O784 1.251 . S
C769 O785 1.251 . S
C770 Eu771 2.835 . S
C770 C772 1.500 1_455 S
C770 O786 1.257 1_455 S
C770 O787 1.260 . S
Eu771 C770 2.835 . S
Eu771 O783 2.355 1_455 S
Eu771 O785 2.374 1_556 S
Eu771 O786 2.473 1_455 S
Eu771 O787 2.480 . S
Eu771 O788 2.430 . S
Eu771 O789 2.670 1_556 S
Eu771 O790 2.394 1_455 S
C772 C770 1.500 1_655 S
C772 C773 1.377 1_655 S
C772 C777 1.377 . S
C773 C772 1.377 1_455 S
C773 C774 1.395 . S
C773 H796 0.931 . S
C774 C773 1.395 . S
C774 C775 1.383 1_455 S
C774 H797 0.931 . S
C775 C774 1.383 1_655 S
C775 C776 1.394 . S
C776 C775 1.394 . S
C776 C777 1.378 . S
C776 H798 0.931 . S
C777 C772 1.377 . S
C777 C776 1.378 . S
C777 H799 0.931 . S
C778 O788 1.259 1_554 S
C778 O789 1.270 . S
C779 O790 1.251 . S
C779 O791 1.251 1_556 S
O780 C760 1.257 1_455 S
O780 Eu761 2.473 1_455 S
O781 C760 1.260 . S
O781 Eu761 2.480 . S
O782 Eu761 2.430 . S
O782 C768 1.259 1_554 S
O783 Eu761 2.670 1_556 S
O783 C768 1.270 . S
O783 Eu771 2.355 1_655 S
O784 Eu761 2.394 1_455 S
O784 C769 1.251 . S
O785 C769 1.251 . S
O785 Eu771 2.374 1_554 S
O786 C770 1.257 1_655 S
O786 Eu771 2.473 1_655 S
O787 C770 1.260 . S
O787 Eu771 2.480 . S
O788 Eu771 2.430 . S
O788 C778 1.259 1_556 S
O789 Eu761 2.355 1_455 S
O789 Eu771 2.670 1_554 S
O789 C778 1.270 . S
O790 Eu771 2.394 1_655 S
O790 C779 1.251 . S
O791 Eu761 2.374 . S
O791 C779 1.251 1_554 S
H792 C763 0.931 . S
H793 C764 0.931 . S
H794 C766 0.931 . S
H795 C767 0.931 . S
H796 C773 0.931 . S
H797 C774 0.931 . S
H798 C776 0.931 . S
H799 C777 0.931 . S
C800 Eu801 2.835 . S
C800 C802 1.500 . S
C800 O820 1.257 . S
C800 O821 1.260 . S
Eu801 C800 2.835 . S
Eu801 O820 2.473 . S
Eu801 O821 2.480 . S
Eu801 O822 2.430 . S
Eu801 O823 2.670 1_556 S
Eu801 O824 2.394 . S
Eu801 O829 2.355 . S
Eu801 O831 2.374 1_556 S
C802 C800 1.500 . S
C802 C803 1.377 . S
C802 C807 1.377 . S
C803 C802 1.377 . S
C803 C804 1.395 . S
C803 H832 0.931 . S
C804 C803 1.395 . S
C804 C805 1.383 . S
C804 H833 0.931 . S
C805 C804 1.383 . S
C805 C806 1.394 . S
C806 C805 1.394 . S
C806 C807 1.378 . S
C806 H834 0.931 . S
C807 C802 1.377 . S
C807 C806 1.378 . S
C807 H835 0.931 . S
C808 O822 1.259 1_554 S
C808 O823 1.270 . S
C809 O824 1.251 . S
C809 O825 1.251 1_556 S
C810 Eu811 2.835 . S
C810 C812 1.500 . S
C810 O826 1.257 . S
C810 O827 1.260 . S
Eu811 C810 2.835 . S
Eu811 O823 2.355 . S
Eu811 O825 2.374 . S
Eu811 O826 2.473 . S
Eu811 O827 2.480 . S
Eu811 O828 2.430 . S
Eu811 O829 2.670 1_554 S
Eu811 O830 2.394 . S
C812 C810 1.500 . S
C812 C813 1.377 . S
C812 C817 1.377 . S
C813 C812 1.377 . S
C813 C814 1.395 . S
C813 H836 0.931 . S
C814 C813 1.395 . S
C814 C815 1.383 . S
C814 H837 0.931 . S
C815 C814 1.383 . S
C815 C816 1.394 . S
C816 C815 1.394 . S
C816 C817 1.378 . S
C816 H838 0.931 . S
C817 C812 1.377 . S
C817 C816 1.378 . S
C817 H839 0.931 . S
C818 O828 1.259 1_556 S
C818 O829 1.270 . S
C819 O830 1.251 . S
C819 O831 1.251 . S
O820 C800 1.257 . S
O820 Eu801 2.473 . S
O821 C800 1.260 . S
O821 Eu801 2.480 . S
O822 Eu801 2.430 . S
O822 C808 1.259 1_556 S
O823 Eu801 2.670 1_554 S
O823 C808 1.270 . S
O823 Eu811 2.355 . S
O824 Eu801 2.394 . S
O824 C809 1.251 . S
O825 C809 1.251 1_554 S
O825 Eu811 2.374 . S
O826 C810 1.257 . S
O826 Eu811 2.473 . S
O827 C810 1.260 . S
O827 Eu811 2.480 . S
O828 Eu811 2.430 . S
O828 C818 1.259 1_554 S
O829 Eu801 2.355 . S
O829 Eu811 2.670 1_556 S
O829 C818 1.270 . S
O830 Eu811 2.394 . S
O830 C819 1.251 . S
O831 Eu801 2.374 1_554 S
O831 C819 1.251 . S
H832 C803 0.931 . S
H833 C804 0.931 . S
H834 C806 0.931 . S
H835 C807 0.931 . S
H836 C813 0.931 . S
H837 C814 0.931 . S
H838 C816 0.931 . S
H839 C817 0.931 . S
C840 Eu841 2.835 . S
C840 C842 1.500 . S
C840 O860 1.257 . S
C840 O861 1.260 . S
Eu841 C840 2.835 . S
Eu841 O860 2.473 . S
Eu841 O861 2.480 . S
Eu841 O862 2.430 . S
Eu841 O863 2.670 . S
Eu841 O864 2.394 . S
Eu841 O869 2.355 . S
Eu841 O871 2.374 . S
C842 C840 1.500 . S
C842 C843 1.377 . S
C842 C847 1.377 . S
C843 C842 1.377 . S
C843 C844 1.395 . S
C843 H872 0.931 . S
C844 C843 1.395 . S
C844 C845 1.383 . S
C844 H873 0.931 . S
C845 C844 1.383 . S
C845 C846 1.394 . S
C846 C845 1.394 . S
C846 C847 1.378 . S
C846 H874 0.931 . S
C847 C842 1.377 . S
C847 C846 1.378 . S
C847 H875 0.931 . S
C848 O862 1.259 . S
C848 O863 1.270 . S
C849 O864 1.251 . S
C849 O865 1.251 . S
C850 Eu851 2.835 . S
C850 C852 1.500 . S
C850 O866 1.257 . S
C850 O867 1.260 . S
Eu851 C850 2.835 . S
Eu851 O863 2.355 . S
Eu851 O865 2.374 . S
Eu851 O866 2.473 . S
Eu851 O867 2.480 . S
Eu851 O868 2.430 . S
Eu851 O869 2.670 . S
Eu851 O870 2.394 . S
C852 C850 1.500 . S
C852 C853 1.377 . S
C852 C857 1.377 . S
C853 C852 1.377 . S
C853 C854 1.395 . S
C853 H876 0.931 . S
C854 C853 1.395 . S
C854 C855 1.383 . S
C854 H877 0.931 . S
C855 C854 1.383 . S
C855 C856 1.394 . S
C856 C855 1.394 . S
C856 C857 1.378 . S
C856 H878 0.931 . S
C857 C852 1.377 . S
C857 C856 1.378 . S
C857 H879 0.931 . S
C858 O868 1.259 . S
C858 O869 1.270 . S
C859 O870 1.251 . S
C859 O871 1.251 . S
O860 C840 1.257 . S
O860 Eu841 2.473 . S
O861 C840 1.260 . S
O861 Eu841 2.480 . S
O862 Eu841 2.430 . S
O862 C848 1.259 . S
O863 Eu841 2.670 . S
O863 C848 1.270 . S
O863 Eu851 2.355 . S
O864 Eu841 2.394 . S
O864 C849 1.251 . S
O865 C849 1.251 . S
O865 Eu851 2.374 . S
O866 C850 1.257 . S
O866 Eu851 2.473 . S
O867 C850 1.260 . S
O867 Eu851 2.480 . S
O868 Eu851 2.430 . S
O868 C858 1.259 . S
O869 Eu841 2.355 . S
O869 Eu851 2.670 . S
O869 C858 1.270 . S
O870 Eu851 2.394 . S
O870 C859 1.251 . S
O871 Eu841 2.374 . S
O871 C859 1.251 . S
H872 C843 0.931 . S
H873 C844 0.931 . S
H874 C846 0.931 . S
H875 C847 0.931 . S
H876 C853 0.931 . S
H877 C854 0.931 . S
H878 C856 0.931 . S
H879 C857 0.931 . S
C880 Eu881 2.835 . S
C880 C882 1.500 . S
C880 O900 1.257 . S
C880 O901 1.260 . S
Eu881 C880 2.835 . S
Eu881 O900 2.473 . S
Eu881 O901 2.480 . S
Eu881 O902 2.430 . S
Eu881 O903 2.670 . S
Eu881 O904 2.394 . S
Eu881 O909 2.355 . S
Eu881 O911 2.374 . S
C882 C880 1.500 . S
C882 C883 1.377 . S
C882 C887 1.377 . S
C883 C882 1.377 . S
C883 C884 1.395 . S
C883 H912 0.931 . S
C884 C883 1.395 . S
C884 C885 1.383 . S
C884 H913 0.931 . S
C885 C884 1.383 . S
C885 C886 1.394 . S
C886 C885 1.394 . S
C886 C887 1.378 . S
C886 H914 0.931 . S
C887 C882 1.377 . S
C887 C886 1.378 . S
C887 H915 0.931 . S
C888 O902 1.259 . S
C888 O903 1.270 . S
C889 O904 1.251 . S
C889 O905 1.251 . S
C890 Eu891 2.835 . S
C890 C892 1.500 . S
C890 O906 1.257 . S
C890 O907 1.260 . S
Eu891 C890 2.835 . S
Eu891 O903 2.355 . S
Eu891 O905 2.374 . S
Eu891 O906 2.473 . S
Eu891 O907 2.480 . S
Eu891 O908 2.430 . S
Eu891 O909 2.670 . S
Eu891 O910 2.394 . S
C892 C890 1.500 . S
C892 C893 1.377 . S
C892 C897 1.377 . S
C893 C892 1.377 . S
C893 C894 1.395 . S
C893 H916 0.931 . S
C894 C893 1.395 . S
C894 C895 1.383 . S
C894 H917 0.931 . S
C895 C894 1.383 . S
C895 C896 1.394 . S
C896 C895 1.394 . S
C896 C897 1.378 . S
C896 H918 0.931 . S
C897 C892 1.377 . S
C897 C896 1.378 . S
C897 H919 0.931 . S
C898 O908 1.259 . S
C898 O909 1.270 . S
C899 O910 1.251 . S
C899 O911 1.251 . S
O900 C880 1.257 . S
O900 Eu881 2.473 . S
O901 C880 1.260 . S
O901 Eu881 2.480 . S
O902 Eu881 2.430 . S
O902 C888 1.259 . S
O903 Eu881 2.670 . S
O903 C888 1.270 . S
O903 Eu891 2.355 . S
O904 Eu881 2.394 . S
O904 C889 1.251 . S
O905 C889 1.251 . S
O905 Eu891 2.374 . S
O906 C890 1.257 . S
O906 Eu891 2.473 . S
O907 C890 1.260 . S
O907 Eu891 2.480 . S
O908 Eu891 2.430 . S
O908 C898 1.259 . S
O909 Eu881 2.355 . S
O909 Eu891 2.670 . S
O909 C898 1.270 . S
O910 Eu891 2.394 . S
O910 C899 1.251 . S
O911 Eu881 2.374 . S
O911 C899 1.251 . S
H912 C883 0.931 . S
H913 C884 0.931 . S
H914 C886 0.931 . S
H915 C887 0.931 . S
H916 C893 0.931 . S
H917 C894 0.931 . S
H918 C896 0.931 . S
H919 C897 0.931 . S
C920 Eu921 2.835 . S
C920 C922 1.500 . S
C920 O940 1.257 . S
C920 O941 1.260 . S
Eu921 C920 2.835 . S
Eu921 O940 2.473 . S
Eu921 O941 2.480 . S
Eu921 O942 2.430 . S
Eu921 O943 2.670 . S
Eu921 O944 2.394 . S
Eu921 O949 2.355 . S
Eu921 O951 2.374 . S
C922 C920 1.500 . S
C922 C923 1.377 . S
C922 C927 1.377 . S
C923 C922 1.377 . S
C923 C924 1.395 . S
C923 H952 0.931 . S
C924 C923 1.395 . S
C924 C925 1.383 . S
C924 H953 0.931 . S
C925 C924 1.383 . S
C925 C926 1.394 . S
C926 C925 1.394 . S
C926 C927 1.378 . S
C926 H954 0.931 . S
C927 C922 1.377 . S
C927 C926 1.378 . S
C927 H955 0.931 . S
C928 O942 1.259 . S
C928 O943 1.270 . S
C929 O944 1.251 . S
C929 O945 1.251 . S
C930 Eu931 2.835 . S
C930 C932 1.500 . S
C930 O946 1.257 . S
C930 O947 1.260 . S
Eu931 C930 2.835 . S
Eu931 O943 2.355 . S
Eu931 O945 2.374 . S
Eu931 O946 2.473 . S
Eu931 O947 2.480 . S
Eu931 O948 2.430 . S
Eu931 O949 2.670 . S
Eu931 O950 2.394 . S
C932 C930 1.500 . S
C932 C933 1.377 . S
C932 C937 1.377 . S
C933 C932 1.377 . S
C933 C934 1.395 . S
C933 H956 0.931 . S
C934 C933 1.395 . S
C934 C935 1.383 . S
C934 H957 0.931 . S
C935 C934 1.383 . S
C935 C936 1.394 . S
C936 C935 1.394 . S
C936 C937 1.378 . S
C936 H958 0.931 . S
C937 C932 1.377 . S
C937 C936 1.378 . S
C937 H959 0.931 . S
C938 O948 1.259 . S
C938 O949 1.270 . S
C939 O950 1.251 . S
C939 O951 1.251 . S
O940 C920 1.257 . S
O940 Eu921 2.473 . S
O941 C920 1.260 . S
O941 Eu921 2.480 . S
O942 Eu921 2.430 . S
O942 C928 1.259 . S
O943 Eu921 2.670 . S
O943 C928 1.270 . S
O943 Eu931 2.355 . S
O944 Eu921 2.394 . S
O944 C929 1.251 . S
O945 C929 1.251 . S
O945 Eu931 2.374 . S
O946 C930 1.257 . S
O946 Eu931 2.473 . S
O947 C930 1.260 . S
O947 Eu931 2.480 . S
O948 Eu931 2.430 . S
O948 C938 1.259 . S
O949 Eu921 2.355 . S
O949 Eu931 2.670 . S
O949 C938 1.270 . S
O950 Eu931 2.394 . S
O950 C939 1.251 . S
O951 Eu921 2.374 . S
O951 C939 1.251 . S
H952 C923 0.931 . S
H953 C924 0.931 . S
H954 C926 0.931 . S
H955 C927 0.931 . S
H956 C933 0.931 . S
H957 C934 0.931 . S
H958 C936 0.931 . S
H959 C937 0.931 . S
C960 Eu961 2.835 . S
C960 C962 1.500 . S
C960 O980 1.257 . S
C960 O981 1.260 . S
Eu961 C960 2.835 . S
Eu961 O980 2.473 . S
Eu961 O981 2.480 . S
Eu961 O982 2.430 . S
Eu961 O983 2.670 . S
Eu961 O984 2.394 . S
Eu961 O989 2.355 . S
Eu961 O991 2.374 . S
C962 C960 1.500 . S
C962 C963 1.377 . S
C962 C967 1.377 . S
C963 C962 1.377 . S
C963 C964 1.395 . S
C963 H992 0.931 . S
C964 C963 1.395 . S
C964 C965 1.383 . S
C964 H993 0.931 . S
C965 C964 1.383 . S
C965 C966 1.394 . S
C966 C965 1.394 . S
C966 C967 1.378 . S
C966 H994 0.931 . S
C967 C962 1.377 . S
C967 C966 1.378 . S
C967 H995 0.931 . S
C968 O982 1.259 . S
C968 O983 1.270 . S
C969 O984 1.251 . S
C969 O985 1.251 . S
C970 Eu971 2.835 . S
C970 C972 1.500 . S
C970 O986 1.257 . S
C970 O987 1.260 . S
Eu971 C970 2.835 . S
Eu971 O983 2.355 . S
Eu971 O985 2.374 . S
Eu971 O986 2.473 . S
Eu971 O987 2.480 . S
Eu971 O988 2.430 . S
Eu971 O989 2.670 . S
Eu971 O990 2.394 . S
C972 C970 1.500 . S
C972 C973 1.377 . S
C972 C977 1.377 . S
C973 C972 1.377 . S
C973 C974 1.395 . S
C973 H996 0.931 . S
C974 C973 1.395 . S
C974 C975 1.383 . S
C974 H997 0.931 . S
C975 C974 1.383 . S
C975 C976 1.394 . S
C976 C975 1.394 . S
C976 C977 1.378 . S
C976 H998 0.931 . S
C977 C972 1.377 . S
C977 C976 1.378 . S
C977 H999 0.931 . S
C978 O988 1.259 . S
C978 O989 1.270 . S
C979 O990 1.251 . S
C979 O991 1.251 . S
O980 C960 1.257 . S
O980 Eu961 2.473 . S
O981 C960 1.260 . S
O981 Eu961 2.480 . S
O982 Eu961 2.430 . S
O982 C968 1.259 . S
O983 Eu961 2.670 . S
O983 C968 1.270 . S
O983 Eu971 2.355 . S
O984 Eu961 2.394 . S
O984 C969 1.251 . S
O985 C969 1.251 . S
O985 Eu971 2.374 . S
O986 C970 1.257 . S
O986 Eu971 2.473 . S
O987 C970 1.260 . S
O987 Eu971 2.480 . S
O988 Eu971 2.430 . S
O988 C978 1.259 . S
O989 Eu961 2.355 . S
O989 Eu971 2.670 . S
O989 C978 1.270 . S
O990 Eu971 2.394 . S
O990 C979 1.251 . S
O991 Eu961 2.374 . S
O991 C979 1.251 . S
H992 C963 0.931 . S
H993 C964 0.931 . S
H994 C966 0.931 . S
H995 C967 0.931 . S
H996 C973 0.931 . S
H997 C974 0.931 . S
H998 C976 0.931 . S
H999 C977 0.931 . S
C1000 Eu1001 2.835 . S
C1000 C1002 1.500 . S
C1000 O1020 1.257 . S
C1000 O1021 1.260 . S
Eu1001 C1000 2.835 . S
Eu1001 O1020 2.473 . S
Eu1001 O1021 2.480 . S
Eu1001 O1022 2.430 . S
Eu1001 O1023 2.670 . S
Eu1001 O1024 2.394 . S
Eu1001 O1029 2.355 . S
Eu1001 O1031 2.374 . S
C1002 C1000 1.500 . S
C1002 C1003 1.377 . S
C1002 C1007 1.377 . S
C1003 C1002 1.377 . S
C1003 C1004 1.395 . S
C1003 H1032 0.931 . S
C1004 C1003 1.395 . S
C1004 C1005 1.383 . S
C1004 H1033 0.931 . S
C1005 C1004 1.383 . S
C1005 C1006 1.394 . S
C1006 C1005 1.394 . S
C1006 C1007 1.378 . S
C1006 H1034 0.931 . S
C1007 C1002 1.377 . S
C1007 C1006 1.378 . S
C1007 H1035 0.931 . S
C1008 O1022 1.259 . S
C1008 O1023 1.270 . S
C1009 O1024 1.251 . S
C1009 O1025 1.251 . S
C1010 Eu1011 2.835 . S
C1010 C1012 1.500 . S
C1010 O1026 1.257 . S
C1010 O1027 1.260 . S
Eu1011 C1010 2.835 . S
Eu1011 O1023 2.355 . S
Eu1011 O1025 2.374 . S
Eu1011 O1026 2.473 . S
Eu1011 O1027 2.480 . S
Eu1011 O1028 2.430 . S
Eu1011 O1029 2.670 . S
Eu1011 O1030 2.394 . S
C1012 C1010 1.500 . S
C1012 C1013 1.377 . S
C1012 C1017 1.377 . S
C1013 C1012 1.377 . S
C1013 C1014 1.395 . S
C1013 H1036 0.931 . S
C1014 C1013 1.395 . S
C1014 C1015 1.383 . S
C1014 H1037 0.931 . S
C1015 C1014 1.383 . S
C1015 C1016 1.394 . S
C1016 C1015 1.394 . S
C1016 C1017 1.378 . S
C1016 H1038 0.931 . S
C1017 C1012 1.377 . S
C1017 C1016 1.378 . S
C1017 H1039 0.931 . S
C1018 O1028 1.259 . S
C1018 O1029 1.270 . S
C1019 O1030 1.251 . S
C1019 O1031 1.251 . S
O1020 C1000 1.257 . S
O1020 Eu1001 2.473 . S
O1021 C1000 1.260 . S
O1021 Eu1001 2.480 . S
O1022 Eu1001 2.430 . S
O1022 C1008 1.259 . S
O1023 Eu1001 2.670 . S
O1023 C1008 1.270 . S
O1023 Eu1011 2.355 . S
O1024 Eu1001 2.394 . S
O1024 C1009 1.251 . S
O1025 C1009 1.251 . S
O1025 Eu1011 2.374 . S
O1026 C1010 1.257 . S
O1026 Eu1011 2.473 . S
O1027 C1010 1.260 . S
O1027 Eu1011 2.480 . S
O1028 Eu1011 2.430 . S
O1028 C1018 1.259 . S
O1029 Eu1001 2.355 . S
O1029 Eu1011 2.670 . S
O1029 C1018 1.270 . S
O1030 Eu1011 2.394 . S
O1030 C1019 1.251 . S
O1031 Eu1001 2.374 . S
O1031 C1019 1.251 . S
H1032 C1003 0.931 . S
H1033 C1004 0.931 . S
H1034 C1006 0.931 . S
H1035 C1007 0.931 . S
H1036 C1013 0.931 . S
H1037 C1014 0.931 . S
H1038 C1016 0.931 . S
H1039 C1017 0.931 . S
C1040 Eu1041 2.835 . S
C1040 C1042 1.500 . S
C1040 O1060 1.257 . S
C1040 O1061 1.260 . S
Eu1041 C1040 2.835 . S
Eu1041 O1060 2.473 . S
Eu1041 O1061 2.480 . S
Eu1041 O1062 2.430 . S
Eu1041 O1063 2.670 . S
Eu1041 O1064 2.394 . S
Eu1041 O1069 2.355 . S
Eu1041 O1071 2.374 . S
C1042 C1040 1.500 . S
C1042 C1043 1.377 . S
C1042 C1047 1.377 . S
C1043 C1042 1.377 . S
C1043 C1044 1.395 . S
C1043 H1072 0.931 . S
C1044 C1043 1.395 . S
C1044 C1045 1.383 . S
C1044 H1073 0.931 . S
C1045 C1044 1.383 . S
C1045 C1046 1.394 . S
C1046 C1045 1.394 . S
C1046 C1047 1.378 . S
C1046 H1074 0.931 . S
C1047 C1042 1.377 . S
C1047 C1046 1.378 . S
C1047 H1075 0.931 . S
C1048 O1062 1.259 . S
C1048 O1063 1.270 . S
C1049 O1064 1.251 . S
C1049 O1065 1.251 . S
C1050 Eu1051 2.835 . S
C1050 C1052 1.500 . S
C1050 O1066 1.257 . S
C1050 O1067 1.260 . S
Eu1051 C1050 2.835 . S
Eu1051 O1063 2.355 . S
Eu1051 O1065 2.374 . S
Eu1051 O1066 2.473 . S
Eu1051 O1067 2.480 . S
Eu1051 O1068 2.430 . S
Eu1051 O1069 2.670 . S
Eu1051 O1070 2.394 . S
C1052 C1050 1.500 . S
C1052 C1053 1.377 . S
C1052 C1057 1.377 . S
C1053 C1052 1.377 . S
C1053 C1054 1.395 . S
C1053 H1076 0.931 . S
C1054 C1053 1.395 . S
C1054 C1055 1.383 . S
C1054 H1077 0.931 . S
C1055 C1054 1.383 . S
C1055 C1056 1.394 . S
C1056 C1055 1.394 . S
C1056 C1057 1.378 . S
C1056 H1078 0.931 . S
C1057 C1052 1.377 . S
C1057 C1056 1.378 . S
C1057 H1079 0.931 . S
C1058 O1068 1.259 . S
C1058 O1069 1.270 . S
C1059 O1070 1.251 . S
C1059 O1071 1.251 . S
O1060 C1040 1.257 . S
O1060 Eu1041 2.473 . S
O1061 C1040 1.260 . S
O1061 Eu1041 2.480 . S
O1062 Eu1041 2.430 . S
O1062 C1048 1.259 . S
O1063 Eu1041 2.670 . S
O1063 C1048 1.270 . S
O1063 Eu1051 2.355 . S
O1064 Eu1041 2.394 . S
O1064 C1049 1.251 . S
O1065 C1049 1.251 . S
O1065 Eu1051 2.374 . S
O1066 C1050 1.257 . S
O1066 Eu1051 2.473 . S
O1067 C1050 1.260 . S
O1067 Eu1051 2.480 . S
O1068 Eu1051 2.430 . S
O1068 C1058 1.259 . S
O1069 Eu1041 2.355 . S
O1069 Eu1051 2.670 . S
O1069 C1058 1.270 . S
O1070 Eu1051 2.394 . S
O1070 C1059 1.251 . S
O1071 Eu1041 2.374 . S
O1071 C1059 1.251 . S
H1072 C1043 0.931 . S
H1073 C1044 0.931 . S
H1074 C1046 0.931 . S
H1075 C1047 0.931 . S
H1076 C1053 0.931 . S
H1077 C1054 0.931 . S
H1078 C1056 0.931 . S
H1079 C1057 0.931 . S
C522 C729 2.618 . S
C562 C769 2.303 . S
C495 C808 2.938 . S
C455 C768 2.464 1_554 S
C809 C362 2.002 . S
C402 C728 2.829 . S
C739 C442 2.367 . S
C779 C375 2.179 . S
C415 C818 2.964 1_554 S
C535 C778 2.501 . S
C575 C819 1.894 . S
C738 C482 2.535 . S
C849 C42 2.620 . S
C82 C889 2.302 . S
C15 C928 2.925 . S
C695 C888 2.464 . S
C602 C929 2.001 . S
C642 C848 2.825 . S
C682 C859 2.367 . S
C615 C899 2.178 . S
C938 C655 2.965 . S
C55 C898 2.502 . S
C939 C95 1.892 . S
C2 C858 2.535 . S
C969 C282 2.618 . S
C322 C1009 2.302 . S
C1048 C255 2.926 . S
C1008 C215 2.465 . S
C1049 C122 2.000 . S
C162 C968 2.825 . S
C202 C979 2.368 . S
C135 C1019 2.179 . S
C1058 C175 2.964 . S
C295 C1018 2.501 . S
C335 C1059 1.893 . S
C242 C978 2.535 . S
C621 C725 1.394 . S
C765 C661 2.459 1_455 S
C701 C815 1.682 . S
C261 C775 2.231 1_455 S
C301 C805 1.827 . S
C735 C341 1.437 . S
C141 C845 1.394 . S
C181 C885 2.459 . S
C221 C935 1.683 . S
C501 C895 2.231 . S
C925 C541 1.827 . S
C581 C855 1.437 . S
C381 C965 1.395 . S
C421 C1005 2.459 . S
C1055 C461 1.682 . S
C21 C1015 2.231 . S
C61 C1045 1.828 . S
C101 C975 1.437 . S
