# Generated by pormake.
# Topology gar, (4,6)-cn, num edge types: 1
# Building blocks:
#     Node 0, Type 0, BuildingBlock: NAHDIM_clean_sbu_0, # of connection points: 4
#     Node 1, Type 0, BuildingBlock: NAHDIM_clean_sbu_0, # of connection points: 4
#     Node 2, Type 0, BuildingBlock: NAHDIM_clean_sbu_0, # of connection points: 4
#     Node 3, Type 0, BuildingBlock: NAHDIM_clean_sbu_0, # of connection points: 4
#     Node 4, Type 0, BuildingBlock: NAHDIM_clean_sbu_0, # of connection points: 4
#     Node 5, Type 0, BuildingBlock: NAHDIM_clean_sbu_0, # of connection points: 4
#     Node 6, Type 0, BuildingBlock: NAHDIM_clean_sbu_0, # of connection points: 4
#     Node 7, Type 0, BuildingBlock: NAHDIM_clean_sbu_0, # of connection points: 4
#     Node 8, Type 0, BuildingBlock: NAHDIM_clean_sbu_0, # of connection points: 4
#     Node 9, Type 0, BuildingBlock: NAHDIM_clean_sbu_0, # of connection points: 4
#     Node 10, Type 0, BuildingBlock: NAHDIM_clean_sbu_0, # of connection points: 4
#     Node 11, Type 0, BuildingBlock: NAHDIM_clean_sbu_0, # of connection points: 4
#     Node 12, Type 0, BuildingBlock: NAHDIM_clean_sbu_0, # of connection points: 4
#     Node 13, Type 0, BuildingBlock: NAHDIM_clean_sbu_0, # of connection points: 4
#     Node 14, Type 0, BuildingBlock: NAHDIM_clean_sbu_0, # of connection points: 4
#     Node 15, Type 0, BuildingBlock: NAHDIM_clean_sbu_0, # of connection points: 4
#     Node 16, Type 0, BuildingBlock: NAHDIM_clean_sbu_0, # of connection points: 4
#     Node 17, Type 0, BuildingBlock: NAHDIM_clean_sbu_0, # of connection points: 4
#     Node 18, Type 0, BuildingBlock: NAHDIM_clean_sbu_0, # of connection points: 4
#     Node 19, Type 0, BuildingBlock: NAHDIM_clean_sbu_0, # of connection points: 4
#     Node 20, Type 0, BuildingBlock: NAHDIM_clean_sbu_0, # of connection points: 4
#     Node 21, Type 0, BuildingBlock: NAHDIM_clean_sbu_0, # of connection points: 4
#     Node 22, Type 0, BuildingBlock: NAHDIM_clean_sbu_0, # of connection points: 4
#     Node 23, Type 0, BuildingBlock: NAHDIM_clean_sbu_0, # of connection points: 4
#     Node 24, Type 1, BuildingBlock: INOVEN_clean_sbu_0, # of connection points: 6
#     Node 25, Type 1, BuildingBlock: INOVEN_clean_sbu_0, # of connection points: 6
#     Node 26, Type 1, BuildingBlock: INOVEN_clean_sbu_0, # of connection points: 6
#     Node 27, Type 1, BuildingBlock: INOVEN_clean_sbu_0, # of connection points: 6
#     Node 28, Type 1, BuildingBlock: INOVEN_clean_sbu_0, # of connection points: 6
#     Node 29, Type 1, BuildingBlock: INOVEN_clean_sbu_0, # of connection points: 6
#     Node 30, Type 1, BuildingBlock: INOVEN_clean_sbu_0, # of connection points: 6
#     Node 31, Type 1, BuildingBlock: INOVEN_clean_sbu_0, # of connection points: 6
#     Node 32, Type 1, BuildingBlock: INOVEN_clean_sbu_0, # of connection points: 6
#     Node 33, Type 1, BuildingBlock: INOVEN_clean_sbu_0, # of connection points: 6
#     Node 34, Type 1, BuildingBlock: INOVEN_clean_sbu_0, # of connection points: 6
#     Node 35, Type 1, BuildingBlock: INOVEN_clean_sbu_0, # of connection points: 6
#     Node 36, Type 1, BuildingBlock: INOVEN_clean_sbu_0, # of connection points: 6
#     Node 37, Type 1, BuildingBlock: INOVEN_clean_sbu_0, # of connection points: 6
#     Node 38, Type 1, BuildingBlock: INOVEN_clean_sbu_0, # of connection points: 6
#     Node 39, Type 1, BuildingBlock: INOVEN_clean_sbu_0, # of connection points: 6
#     Edge 40, Type (0, 1), BuildingBlock: MIFKUJ_clean_linker_0, # of connection points: 2
#     Edge 41, Type (0, 1), BuildingBlock: MIFKUJ_clean_linker_0, # of connection points: 2
#     Edge 42, Type (0, 1), BuildingBlock: MIFKUJ_clean_linker_0, # of connection points: 2
#     Edge 43, Type (0, 1), BuildingBlock: MIFKUJ_clean_linker_0, # of connection points: 2
#     Edge 44, Type (0, 1), BuildingBlock: MIFKUJ_clean_linker_0, # of connection points: 2
#     Edge 45, Type (0, 1), BuildingBlock: MIFKUJ_clean_linker_0, # of connection points: 2
#     Edge 46, Type (0, 1), BuildingBlock: MIFKUJ_clean_linker_0, # of connection points: 2
#     Edge 47, Type (0, 1), BuildingBlock: MIFKUJ_clean_linker_0, # of connection points: 2
#     Edge 48, Type (0, 1), BuildingBlock: MIFKUJ_clean_linker_0, # of connection points: 2
#     Edge 49, Type (0, 1), BuildingBlock: MIFKUJ_clean_linker_0, # of connection points: 2
#     Edge 50, Type (0, 1), BuildingBlock: MIFKUJ_clean_linker_0, # of connection points: 2
#     Edge 51, Type (0, 1), BuildingBlock: MIFKUJ_clean_linker_0, # of connection points: 2
#     Edge 52, Type (0, 1), BuildingBlock: MIFKUJ_clean_linker_0, # of connection points: 2
#     Edge 53, Type (0, 1), BuildingBlock: MIFKUJ_clean_linker_0, # of connection points: 2
#     Edge 54, Type (0, 1), BuildingBlock: MIFKUJ_clean_linker_0, # of connection points: 2
#     Edge 55, Type (0, 1), BuildingBlock: MIFKUJ_clean_linker_0, # of connection points: 2
#     Edge 56, Type (0, 1), BuildingBlock: MIFKUJ_clean_linker_0, # of connection points: 2
#     Edge 57, Type (0, 1), BuildingBlock: MIFKUJ_clean_linker_0, # of connection points: 2
#     Edge 58, Type (0, 1), BuildingBlock: MIFKUJ_clean_linker_0, # of connection points: 2
#     Edge 59, Type (0, 1), BuildingBlock: MIFKUJ_clean_linker_0, # of connection points: 2
#     Edge 60, Type (0, 1), BuildingBlock: MIFKUJ_clean_linker_0, # of connection points: 2
#     Edge 61, Type (0, 1), BuildingBlock: MIFKUJ_clean_linker_0, # of connection points: 2
#     Edge 62, Type (0, 1), BuildingBlock: MIFKUJ_clean_linker_0, # of connection points: 2
#     Edge 63, Type (0, 1), BuildingBlock: MIFKUJ_clean_linker_0, # of connection points: 2
#     Edge 64, Type (0, 1), BuildingBlock: MIFKUJ_clean_linker_0, # of connection points: 2
#     Edge 65, Type (0, 1), BuildingBlock: MIFKUJ_clean_linker_0, # of connection points: 2
#     Edge 66, Type (0, 1), BuildingBlock: MIFKUJ_clean_linker_0, # of connection points: 2
#     Edge 67, Type (0, 1), BuildingBlock: MIFKUJ_clean_linker_0, # of connection points: 2
#     Edge 68, Type (0, 1), BuildingBlock: MIFKUJ_clean_linker_0, # of connection points: 2
#     Edge 69, Type (0, 1), BuildingBlock: MIFKUJ_clean_linker_0, # of connection points: 2
#     Edge 70, Type (0, 1), BuildingBlock: MIFKUJ_clean_linker_0, # of connection points: 2
#     Edge 71, Type (0, 1), BuildingBlock: MIFKUJ_clean_linker_0, # of connection points: 2
#     Edge 72, Type (0, 1), BuildingBlock: MIFKUJ_clean_linker_0, # of connection points: 2
#     Edge 73, Type (0, 1), BuildingBlock: MIFKUJ_clean_linker_0, # of connection points: 2
#     Edge 74, Type (0, 1), BuildingBlock: MIFKUJ_clean_linker_0, # of connection points: 2
#     Edge 75, Type (0, 1), BuildingBlock: MIFKUJ_clean_linker_0, # of connection points: 2
#     Edge 76, Type (0, 1), BuildingBlock: MIFKUJ_clean_linker_0, # of connection points: 2
#     Edge 77, Type (0, 1), BuildingBlock: MIFKUJ_clean_linker_0, # of connection points: 2
#     Edge 78, Type (0, 1), BuildingBlock: MIFKUJ_clean_linker_0, # of connection points: 2
#     Edge 79, Type (0, 1), BuildingBlock: MIFKUJ_clean_linker_0, # of connection points: 2
#     Edge 80, Type (0, 1), BuildingBlock: MIFKUJ_clean_linker_0, # of connection points: 2
#     Edge 81, Type (0, 1), BuildingBlock: MIFKUJ_clean_linker_0, # of connection points: 2
#     Edge 82, Type (0, 1), BuildingBlock: MIFKUJ_clean_linker_0, # of connection points: 2
#     Edge 83, Type (0, 1), BuildingBlock: MIFKUJ_clean_linker_0, # of connection points: 2
#     Edge 84, Type (0, 1), BuildingBlock: MIFKUJ_clean_linker_0, # of connection points: 2
#     Edge 85, Type (0, 1), BuildingBlock: MIFKUJ_clean_linker_0, # of connection points: 2
#     Edge 86, Type (0, 1), BuildingBlock: MIFKUJ_clean_linker_0, # of connection points: 2
#     Edge 87, Type (0, 1), BuildingBlock: MIFKUJ_clean_linker_0, # of connection points: 2
#     Edge 88, Type (0, 1), BuildingBlock: MIFKUJ_clean_linker_0, # of connection points: 2
#     Edge 89, Type (0, 1), BuildingBlock: MIFKUJ_clean_linker_0, # of connection points: 2
#     Edge 90, Type (0, 1), BuildingBlock: MIFKUJ_clean_linker_0, # of connection points: 2
#     Edge 91, Type (0, 1), BuildingBlock: MIFKUJ_clean_linker_0, # of connection points: 2
#     Edge 92, Type (0, 1), BuildingBlock: MIFKUJ_clean_linker_0, # of connection points: 2
#     Edge 93, Type (0, 1), BuildingBlock: MIFKUJ_clean_linker_0, # of connection points: 2
#     Edge 94, Type (0, 1), BuildingBlock: MIFKUJ_clean_linker_0, # of connection points: 2
#     Edge 95, Type (0, 1), BuildingBlock: MIFKUJ_clean_linker_0, # of connection points: 2
#     Edge 96, Type (0, 1), BuildingBlock: MIFKUJ_clean_linker_0, # of connection points: 2
#     Edge 97, Type (0, 1), BuildingBlock: MIFKUJ_clean_linker_0, # of connection points: 2
#     Edge 98, Type (0, 1), BuildingBlock: MIFKUJ_clean_linker_0, # of connection points: 2
#     Edge 99, Type (0, 1), BuildingBlock: MIFKUJ_clean_linker_0, # of connection points: 2
#     Edge 100, Type (0, 1), BuildingBlock: MIFKUJ_clean_linker_0, # of connection points: 2
#     Edge 101, Type (0, 1), BuildingBlock: MIFKUJ_clean_linker_0, # of connection points: 2
#     Edge 102, Type (0, 1), BuildingBlock: MIFKUJ_clean_linker_0, # of connection points: 2
#     Edge 103, Type (0, 1), BuildingBlock: MIFKUJ_clean_linker_0, # of connection points: 2
#     Edge 104, Type (0, 1), BuildingBlock: MIFKUJ_clean_linker_0, # of connection points: 2
#     Edge 105, Type (0, 1), BuildingBlock: MIFKUJ_clean_linker_0, # of connection points: 2
#     Edge 106, Type (0, 1), BuildingBlock: MIFKUJ_clean_linker_0, # of connection points: 2
#     Edge 107, Type (0, 1), BuildingBlock: MIFKUJ_clean_linker_0, # of connection points: 2
#     Edge 108, Type (0, 1), BuildingBlock: MIFKUJ_clean_linker_0, # of connection points: 2
#     Edge 109, Type (0, 1), BuildingBlock: MIFKUJ_clean_linker_0, # of connection points: 2
#     Edge 110, Type (0, 1), BuildingBlock: MIFKUJ_clean_linker_0, # of connection points: 2
#     Edge 111, Type (0, 1), BuildingBlock: MIFKUJ_clean_linker_0, # of connection points: 2
#     Edge 112, Type (0, 1), BuildingBlock: MIFKUJ_clean_linker_0, # of connection points: 2
#     Edge 113, Type (0, 1), BuildingBlock: MIFKUJ_clean_linker_0, # of connection points: 2
#     Edge 114, Type (0, 1), BuildingBlock: MIFKUJ_clean_linker_0, # of connection points: 2
#     Edge 115, Type (0, 1), BuildingBlock: MIFKUJ_clean_linker_0, # of connection points: 2
#     Edge 116, Type (0, 1), BuildingBlock: MIFKUJ_clean_linker_0, # of connection points: 2
#     Edge 117, Type (0, 1), BuildingBlock: MIFKUJ_clean_linker_0, # of connection points: 2
#     Edge 118, Type (0, 1), BuildingBlock: MIFKUJ_clean_linker_0, # of connection points: 2
#     Edge 119, Type (0, 1), BuildingBlock: MIFKUJ_clean_linker_0, # of connection points: 2
#     Edge 120, Type (0, 1), BuildingBlock: MIFKUJ_clean_linker_0, # of connection points: 2
#     Edge 121, Type (0, 1), BuildingBlock: MIFKUJ_clean_linker_0, # of connection points: 2
#     Edge 122, Type (0, 1), BuildingBlock: MIFKUJ_clean_linker_0, # of connection points: 2
#     Edge 123, Type (0, 1), BuildingBlock: MIFKUJ_clean_linker_0, # of connection points: 2
#     Edge 124, Type (0, 1), BuildingBlock: MIFKUJ_clean_linker_0, # of connection points: 2
#     Edge 125, Type (0, 1), BuildingBlock: MIFKUJ_clean_linker_0, # of connection points: 2
#     Edge 126, Type (0, 1), BuildingBlock: MIFKUJ_clean_linker_0, # of connection points: 2
#     Edge 127, Type (0, 1), BuildingBlock: MIFKUJ_clean_linker_0, # of connection points: 2
#     Edge 128, Type (0, 1), BuildingBlock: MIFKUJ_clean_linker_0, # of connection points: 2
#     Edge 129, Type (0, 1), BuildingBlock: MIFKUJ_clean_linker_0, # of connection points: 2
#     Edge 130, Type (0, 1), BuildingBlock: MIFKUJ_clean_linker_0, # of connection points: 2
#     Edge 131, Type (0, 1), BuildingBlock: MIFKUJ_clean_linker_0, # of connection points: 2
#     Edge 132, Type (0, 1), BuildingBlock: MIFKUJ_clean_linker_0, # of connection points: 2
#     Edge 133, Type (0, 1), BuildingBlock: MIFKUJ_clean_linker_0, # of connection points: 2
#     Edge 134, Type (0, 1), BuildingBlock: MIFKUJ_clean_linker_0, # of connection points: 2
#     Edge 135, Type (0, 1), BuildingBlock: MIFKUJ_clean_linker_0, # of connection points: 2
# Relax obj value: 0.166
# Max RMSD: 0.281
# Mean RMSD: 0.175
data_MOF--net-gar--node1-NAHDIM_clean_sbu_0--node2-INOVEN_clean_sbu_0--edge1-MIFKUJ_clean_linker_0
_symmetry_space_group_name_H-M    P1
_symmetry_Int_Tables_number       1
_symmetry_cell_setting            triclinic
loop_
_symmetry_equiv_pos_as_xyz
'x, y, z'
_cell_length_a     79.563424
_cell_length_b     73.170857
_cell_length_c     72.017927
_cell_angle_alpha  98.884165
_cell_angle_beta   95.306706
_cell_angle_gamma 103.33598
loop_
_atom_site_label
_atom_site_type_symbol
_atom_site_fract_x
_atom_site_fract_y
_atom_site_fract_z
_atom_type_partial_charge
C0 C 0.11994 0.31121 0.36783 0.0
O1 O 0.12229 0.31042 0.38595 0.0
O2 O 0.07812 0.28868 0.38565 0.0
Zn3 Zn 0.08525 0.31137 0.37384 0.0
O4 O 0.08972 0.33488 0.39287 0.0
C5 C 0.05577 0.29728 0.34555 0.0
O6 O 0.06017 0.28097 0.34478 0.0
O7 O 0.10507 0.31121 0.35994 0.0
C8 C 0.07594 0.33797 0.39878 0.0
O9 O 0.06113 0.32498 0.39336 0.0
C10 C 0.08386 0.28839 0.40257 0.0
O11 O 0.09586 0.30301 0.41237 0.0
O12 O 0.06535 0.31215 0.35612 0.0
C13 C 0.95665 0.74629 0.65396 0.0
O14 O 0.95268 0.74367 0.63547 0.0
O15 O 0.98797 0.72507 0.62955 0.0
Zn16 Zn 0.9915 0.75018 0.64602 0.0
O17 O 0.99498 0.77156 0.6313 0.0
C18 C 0.02726 0.75701 0.65711 0.0
O19 O 0.02737 0.75871 0.63923 0.0
O20 O 0.97239 0.74976 0.66123 0.0
C21 C 0.00386 0.78796 0.63972 0.0
O22 O 0.00904 0.79072 0.65802 0.0
C23 C 0.99381 0.72412 0.61376 0.0
O24 O 1.00017 0.73994 0.60757 0.0
O25 O 0.01289 0.75331 0.6637 0.0
C26 C 0.61865 0.81004 0.86445 0.0
O27 O 0.61854 0.80275 0.88001 0.0
O28 O 0.58408 0.79014 0.88617 0.0
Zn29 Zn 0.58523 0.81148 0.87156 0.0
O30 O 0.58664 0.83605 0.88836 0.0
C31 C 0.55034 0.79416 0.85625 0.0
O32 O 0.55111 0.78582 0.87108 0.0
O33 O 0.6054 0.81493 0.8579 0.0
C34 C 0.57269 0.83972 0.89323 0.0
O35 O 0.55779 0.827 0.88757 0.0
C36 C 0.58106 0.79217 0.90325 0.0
O37 O 0.5806 0.80906 0.91217 0.0
O38 O 0.56389 0.80548 0.85287 0.0
C39 C 0.46051 0.24231 0.16147 0.0
O40 O 0.45589 0.22919 0.14603 0.0
O41 O 0.48852 0.2272 0.13129 0.0
Zn42 Zn 0.49228 0.25321 0.14637 0.0
O43 O 0.49351 0.27365 0.13118 0.0
C44 C 0.52047 0.2459 0.1681 0.0
O45 O 0.51022 0.22857 0.16517 0.0
O46 O 0.47526 0.25411 0.16404 0.0
C47 C 0.50681 0.27701 0.12263 0.0
O48 O 0.51783 0.26614 0.12303 0.0
C49 C 0.48787 0.22322 0.11348 0.0
O50 O 0.48845 0.23667 0.10328 0.0
O51 O 0.51521 0.25903 0.16163 0.0
C52 C 0.03697 0.78611 0.13321 0.0
O53 O 0.03842 0.77108 0.12151 0.0
O54 O 0.06944 0.77991 0.10387 0.0
Zn55 Zn 0.07112 0.80478 0.12166 0.0
O56 O 0.06876 0.82614 0.10606 0.0
C57 C 0.10794 0.8042 0.13306 0.0
O58 O 0.10702 0.79926 0.11459 0.0
O59 O 0.04938 0.80129 0.13614 0.0
C60 C 0.08001 0.8377 0.09912 0.0
O61 O 0.09643 0.8371 0.10172 0.0
C62 C 0.05933 0.77237 0.08852 0.0
O63 O 0.0481 0.7813 0.08208 0.0
O64 O 0.09469 0.80859 0.13974 0.0
C65 C 0.54575 0.76817 0.39624 0.0
O66 O 0.54735 0.76587 0.414 0.0
O67 O 0.50926 0.73956 0.41575 0.0
Zn68 Zn 0.50967 0.7635 0.40301 0.0
O69 O 0.51519 0.78873 0.42176 0.0
C70 C 0.47199 0.76229 0.39109 0.0
O71 O 0.47087 0.76254 0.4092 0.0
O72 O 0.53059 0.76708 0.38788 0.0
C73 C 0.50816 0.79383 0.4362 0.0
O74 O 0.49563 0.78139 0.44148 0.0
C75 C 0.51506 0.74005 0.43304 0.0
O76 O 0.52105 0.75672 0.44428 0.0
O77 O 0.48662 0.76184 0.38519 0.0
C78 C 0.53697 0.29085 0.62996 0.0
O79 O 0.53535 0.28243 0.61221 0.0
O80 O 0.57054 0.28141 0.60318 0.0
Zn81 Zn 0.57264 0.30595 0.62199 0.0
O82 O 0.56974 0.32849 0.60844 0.0
C83 C 0.60087 0.29517 0.64326 0.0
O84 O 0.58888 0.27894 0.63876 0.0
O85 O 0.55187 0.30136 0.63779 0.0
C86 C 0.5749 0.33239 0.5929 0.0
O87 O 0.58405 0.32183 0.58406 0.0
C88 C 0.56165 0.27463 0.58695 0.0
O89 O 0.55183 0.28445 0.57936 0.0
O90 O 0.59711 0.31004 0.63838 0.0
C91 C 0.04655 0.27217 0.89749 0.0
O92 O 0.04824 0.27412 0.91606 0.0
O93 O 0.01054 0.23962 0.91603 0.0
Zn94 Zn 0.01043 0.2637 0.90348 0.0
O95 O 0.01558 0.28935 0.92161 0.0
C96 C 0.97356 0.26444 0.89175 0.0
O97 O 0.97321 0.26723 0.91015 0.0
O98 O 0.03122 0.26717 0.88829 0.0
C99 C 0.01 0.29514 0.93687 0.0
O100 O 0.99874 0.28314 0.94424 0.0
C101 C 0.01286 0.23871 0.93365 0.0
O102 O 0.01482 0.25425 0.94632 0.0
O103 O 0.98751 0.26172 0.88555 0.0
C104 C 0.40382 0.06686 0.28967 0.0
O105 O 0.42089 0.07025 0.29111 0.0
O106 O 0.42131 0.03945 0.25914 0.0
Zn107 Zn 0.40947 0.03244 0.28078 0.0
O108 O 0.42655 0.03302 0.30226 0.0
C109 C 0.40532 0.99513 0.26503 0.0
O110 O 0.42238 1.0009 0.268 0.0
O111 O 0.39488 0.04976 0.28711 0.0
C112 C 0.42439 0.02004 0.31218 0.0
O113 O 0.40981 0.00653 0.30901 0.0
C114 C 0.43735 0.04029 0.25875 0.0
O115 O 0.44754 0.04178 0.27461 0.0
O116 O 0.39604 0.00626 0.27071 0.0
C117 C 0.31485 0.16728 0.49721 0.0
O118 O 0.31817 0.18502 0.49449 0.0
O119 O 0.28233 0.19106 0.51898 0.0
Zn120 Zn 0.27949 0.17248 0.49403 0.0
O121 O 0.28136 0.18554 0.47047 0.0
C122 C 0.24359 0.15937 0.50191 0.0
O123 O 0.24796 0.17635 0.51272 0.0
O124 O 0.29899 0.1583 0.49686 0.0
C125 C 0.28472 0.20349 0.47061 0.0
O126 O 0.28692 0.21525 0.48686 0.0
C127 C 0.29391 0.20581 0.52743 0.0
O128 O 0.30762 0.21241 0.51935 0.0
O129 O 0.25476 0.15416 0.49196 0.0
C130 C 0.17823 0.97322 0.75791 0.0
O131 O 0.17139 0.9734 0.74065 0.0
O132 O 0.14619 0.00987 0.74504 0.0
Zn133 Zn 0.16208 0.01056 0.77191 0.0
O134 O 0.14642 0.00942 0.79641 0.0
C135 C 0.17549 0.05306 0.768 0.0
O136 O 0.15938 0.04939 0.75966 0.0
O137 O 0.1762 0.98632 0.7714 0.0
C138 C 0.13938 0.02209 0.805 0.0
O139 O 0.14102 0.03816 0.79854 0.0
C140 C 0.13359 0.99794 0.73366 0.0
O141 O 0.12766 0.98102 0.73793 0.0
O142 O 0.18014 0.03938 0.77499 0.0
C143 C 0.2633 0.93617 0.00223 0.0
O144 O 0.26134 0.91767 1.00092 0.0
O145 O 0.29392 0.91917 0.02431 0.0
Zn146 Zn 0.29697 0.9336 0.0032 0.0
O147 O 0.2974 0.91688 0.97903 0.0
C148 C 0.33098 0.94928 0.02213 0.0
O149 O 0.32683 0.93421 0.03012 0.0
O150 O 0.27826 0.94672 1.00188 0.0
C151 C 0.30755 0.90581 0.97885 0.0
O152 O 0.31698 0.90518 0.99458 0.0
C153 C 0.28981 0.90135 0.02409 0.0
O154 O 0.28413 0.88943 0.00793 0.0
O155 O 0.31995 0.95238 0.00986 0.0
C156 C 0.26615 0.40223 0.03129 0.0
O157 O 0.26239 0.38558 0.03671 0.0
O158 O 0.2988 0.3825 0.05615 0.0
Zn159 Zn 0.30034 0.39434 0.0316 0.0
O160 O 0.29401 0.37519 0.00686 0.0
C161 C 0.33915 0.40906 0.03818 0.0
O162 O 0.33858 0.39534 0.0481 0.0
O163 O 0.28187 0.40958 0.0292 0.0
C164 C 0.30128 0.36223 1.0004 0.0
O165 O 0.31432 0.359 0.01087 0.0
C166 C 0.29694 0.36487 0.05713 0.0
O167 O 0.29587 0.35254 0.0415 0.0
O168 O 0.32486 0.41147 0.03061 0.0
C169 C 0.82075 0.13748 0.02388 0.0
O170 O 0.822 0.15503 0.02107 0.0
O171 O 0.78224 0.15253 0.0512 0.0
Zn172 Zn 0.78593 0.13774 0.02719 0.0
O173 O 0.7858 0.15355 0.00744 0.0
C174 C 0.75511 0.10796 0.02686 0.0
O175 O 0.75868 0.11151 0.04543 0.0
O176 O 0.80679 0.1281 0.02847 0.0
C177 C 0.77107 0.15707 0.00387 0.0
O178 O 0.7588 0.1518 0.01437 0.0
C179 C 0.78876 0.17042 0.0542 0.0
O180 O 0.79883 0.17793 0.04246 0.0
O181 O 0.76576 0.11629 0.01706 0.0
C182 C 0.17144 0.49617 0.23758 0.0
O183 O 0.15456 0.49045 0.23783 0.0
O184 O 0.14837 0.52605 0.21146 0.0
Zn185 Zn 0.1634 0.53061 0.23521 0.0
O186 O 0.15207 0.53193 0.25872 0.0
C187 C 0.17269 0.56969 0.23479 0.0
O188 O 0.15582 0.56741 0.23089 0.0
O189 O 0.17793 0.51294 0.23519 0.0
C190 C 0.13963 0.53972 0.26158 0.0
O191 O 0.13188 0.54584 0.24776 0.0
C192 C 0.13206 0.51955 0.20883 0.0
O193 O 0.12394 0.51257 0.22223 0.0
O194 O 0.17891 0.5556 0.23685 0.0
C195 C 0.76415 0.89861 0.5228 0.0
O196 O 0.76091 0.88008 0.51692 0.0
O197 O 0.80025 0.88176 0.55567 0.0
Zn198 Zn 0.79908 0.89353 0.53145 0.0
O199 O 0.79342 0.87308 0.5078 0.0
C200 C 0.83703 0.9118 0.53936 0.0
O201 O 0.83653 0.90097 0.55235 0.0
O202 O 0.77959 0.90773 0.5302 0.0
C203 C 0.80525 0.86621 0.50089 0.0
O204 O 0.82106 0.8713 0.51027 0.0
C205 C 0.78856 0.86761 0.5584 0.0
O206 O 0.7751 0.86012 0.54525 0.0
O207 O 0.82283 0.91145 0.52934 0.0
C208 C 0.90791 0.10063 0.26187 0.0
O209 O 0.92438 0.10757 0.26897 0.0
O210 O 0.93181 0.05549 0.22911 0.0
Zn211 Zn 0.91816 0.05905 0.25515 0.0
O212 O 0.93586 0.06401 0.28205 0.0
C213 C 0.90349 0.0145 0.25028 0.0
O214 O 0.91805 0.01424 0.24312 0.0
O215 O 0.90287 0.08225 0.25562 0.0
C216 C 0.94061 0.05039 0.28892 0.0
O217 O 0.93562 0.03323 0.27853 0.0
C218 C 0.94383 0.06722 0.22273 0.0
O219 O 0.9497 0.08452 0.23278 0.0
O220 O 0.90027 0.03097 0.25535 0.0
C221 C 0.31895 0.63541 0.52205 0.0
O222 O 0.32039 0.65322 0.52001 0.0
O223 O 0.29048 0.65818 0.55405 0.0
Zn224 Zn 0.28678 0.6392 0.53031 0.0
O225 O 0.28449 0.6516 0.50774 0.0
C226 C 0.25201 0.62839 0.52629 0.0
O227 O 0.25565 0.64709 0.52851 0.0
O228 O 0.30551 0.62641 0.52793 0.0
C229 C 0.27585 0.64176 0.4923 0.0
O230 O 0.26986 0.62322 0.49086 0.0
C231 C 0.28741 0.67435 0.5534 0.0
O232 O 0.28362 0.67909 0.53694 0.0
O233 O 0.26426 0.62025 0.52868 0.0
C234 C 0.40367 0.59823 0.7671 0.0
O235 O 0.41567 0.60158 0.78186 0.0
O236 O 0.43037 0.55653 0.72877 0.0
Zn237 Zn 0.41659 0.55883 0.75496 0.0
O238 O 0.43263 0.56244 0.78262 0.0
C239 C 0.40327 0.51476 0.75225 0.0
O240 O 0.41958 0.51552 0.7499 0.0
O241 O 0.40186 0.58245 0.75501 0.0
C242 C 0.44641 0.55669 0.78704 0.0
O243 O 0.45337 0.54854 0.77322 0.0
C244 C 0.44664 0.56103 0.72611 0.0
O245 O 0.45822 0.56874 0.74114 0.0
O246 O 0.39857 0.53066 0.75409 0.0
C247 C 0.67003 0.99115 0.73261 0.0
O248 O 0.65357 0.98468 0.73453 0.0
O249 O 0.64662 0.03013 0.71734 0.0
Zn250 Zn 0.66158 0.02614 0.73812 0.0
O251 O 0.65044 0.02166 0.76106 0.0
C252 C 0.67137 0.06474 0.75133 0.0
O253 O 0.6544 0.06199 0.75064 0.0
O254 O 0.67546 0.00831 0.7308 0.0
C255 C 0.63608 0.02558 0.76392 0.0
O256 O 0.62606 0.02873 0.74986 0.0
C257 C 0.6319 0.01975 0.70985 0.0
O258 O 0.62565 1.00344 0.71522 0.0
O259 O 0.67786 0.05079 0.74633 0.0
C260 C 0.81524 0.66885 1.00056 0.0
O261 O 0.81884 0.68717 1.00004 0.0
O262 O 0.7803 0.69087 0.01966 0.0
Zn263 Zn 0.77959 0.67342 0.99482 0.0
O264 O 0.78412 0.68958 0.97379 0.0
C265 C 0.74148 0.66098 0.9933 0.0
O266 O 0.74312 0.6795 0.99587 0.0
O267 O 0.79928 0.6595 0.99815 0.0
C268 C 0.77274 0.69066 0.96061 0.0
O269 O 0.75662 0.68066 0.95976 0.0
C270 C 0.79099 0.70678 0.02664 0.0
O271 O 0.80345 0.71398 0.01715 0.0
O272 O 0.75505 0.65466 0.99142 0.0
C273 C 0.90198 0.56484 0.78902 0.0
O274 O 0.91902 0.56935 0.79337 0.0
O275 O 0.92445 0.53993 0.76155 0.0
Zn276 Zn 0.91018 0.53171 0.78124 0.0
O277 O 0.92478 0.53235 0.80495 0.0
C278 C 0.89624 0.49805 0.75361 0.0
O279 O 0.89989 0.50893 0.74091 0.0
O280 O 0.89391 0.54742 0.7849 0.0
C281 C 0.93014 0.51757 0.80646 0.0
O282 O 0.92647 0.50294 0.79245 0.0
C283 C 0.94002 0.53846 0.76228 0.0
O284 O 0.94832 0.53733 0.7785 0.0
O285 O 0.89796 0.50524 0.77106 0.0
C286 C 0.76522 0.43731 0.50216 0.0
O287 O 0.76338 0.41881 0.50074 0.0
O288 O 0.79392 0.41944 0.52399 0.0
Zn289 Zn 0.79838 0.43421 0.50336 0.0
O290 O 0.79775 0.41658 0.47919 0.0
C291 C 0.8324 0.44541 0.5218 0.0
O292 O 0.82794 0.42748 0.52379 0.0
O293 O 0.78015 0.44799 0.50189 0.0
C294 C 0.81159 0.41378 0.47313 0.0
O295 O 0.82681 0.42366 0.48224 0.0
C296 C 0.79335 0.40183 0.52241 0.0
O297 O 0.79228 0.3915 0.50552 0.0
O298 O 0.82175 0.45208 0.51223 0.0
C299 C 0.67302 0.46937 0.27077 0.0
O300 O 0.65755 0.46397 0.27607 0.0
O301 O 0.64681 0.51039 0.24415 0.0
Zn302 Zn 0.66301 0.51079 0.2708 0.0
O303 O 0.64955 0.51187 0.29725 0.0
C304 C 0.67654 0.55484 0.27361 0.0
O305 O 0.66014 0.55415 0.27545 0.0
O306 O 0.67764 0.4869 0.26789 0.0
C307 C 0.63331 0.51015 0.29968 0.0
O308 O 0.62193 0.50708 0.28444 0.0
C309 C 0.6309 0.50315 0.23636 0.0
O310 O 0.62039 0.49211 0.24537 0.0
O311 O 0.68125 0.53894 0.27229 0.0
Gd312 Gd 0.02117 0.02191 1.00032 0.0
Gd313 Gd 0.05547 0.04366 0.02379 0.0
C314 C 0.034 0.06783 0.00246 0.0
C315 C 0.98846 0.00836 0.98828 0.0
C316 C 0.97367 0.01702 0.98781 0.0
C317 C 0.9605 0.01073 0.97232 0.0
C318 C 0.97387 0.03322 1.00116 0.0
C319 C 0.94786 0.03696 0.98327 0.0
C320 C 0.96098 0.04305 0.99897 0.0
C321 C 0.94767 0.02063 0.97004 0.0
C322 C 0.04644 0.02093 0.97625 0.0
C323 C 0.04306 0.99738 0.0207 0.0
C324 C 0.08821 0.05708 0.03569 0.0
C325 C 0.10287 0.04832 0.03504 0.0
C326 C 0.11761 0.05573 0.04862 0.0
C327 C 0.10123 0.03108 0.02258 0.0
C328 C 0.12896 0.02852 0.03755 0.0
C329 C 0.11422 0.02126 0.02379 0.0
C330 C 0.13062 0.04591 0.04986 0.0
C331 C 0.03053 0.0451 0.0481 0.0
O332 O 0.02057 0.05273 0.99964 0.0
O333 O 0.04952 0.06738 0.0102 0.0
O334 O 0.99994 0.01481 0.97753 0.0
O335 O 0.99549 0.00678 0.00495 0.0
O336 O 0.03018 0.01207 0.97217 0.0
O337 O 0.0488 0.02888 0.99374 0.0
O338 O 0.05611 0.01291 0.02436 0.0
O339 O 0.02756 0.99759 0.01261 0.0
O340 O 0.07689 0.04988 0.04626 0.0
O341 O 0.08097 0.05949 0.01945 0.0
O342 O 0.04678 0.05404 0.05169 0.0
O343 O 0.02771 0.03687 0.03061 0.0
H344 H 0.96046 0.99851 0.96166 0.0
H345 H 0.9842 0.03851 0.01301 0.0
H346 H 0.96128 0.05541 0.00957 0.0
H347 H 0.93784 0.01575 0.9577 0.0
H348 H 0.1188 0.0688 0.0586 0.0
H349 H 0.08972 0.02501 0.01223 0.0
H350 H 0.11274 0.00802 0.01396 0.0
H351 H 0.14177 0.05168 0.06071 0.0
Gd352 Gd 0.29741 0.77971 0.23964 0.0
Gd353 Gd 0.28461 0.78557 0.2809 0.0
C354 C 0.29698 0.82141 0.26134 0.0
C355 C 0.30089 0.77719 0.20447 0.0
C356 C 0.31237 0.79021 0.19485 0.0
C357 C 0.32138 0.78293 0.18088 0.0
C358 C 0.31437 0.81002 0.19955 0.0
C359 C 0.33145 0.81473 0.17373 0.0
C360 C 0.32372 0.82217 0.18898 0.0
C361 C 0.33104 0.79515 0.1705 0.0
C362 C 0.32515 0.78691 0.26801 0.0
C363 C 0.28619 0.74405 0.25969 0.0
C364 C 0.28126 0.78797 0.31615 0.0
C365 C 0.27117 0.77436 0.32631 0.0
C366 C 0.26338 0.78101 0.34174 0.0
C367 C 0.26984 0.7547 0.32113 0.0
C368 C 0.25583 0.749 0.34875 0.0
C369 C 0.26224 0.74206 0.33234 0.0
C370 C 0.25573 0.76836 0.35294 0.0
C371 C 0.25687 0.77826 0.25234 0.0
O372 O 0.29645 0.81006 0.24505 0.0
O373 O 0.29566 0.81554 0.27769 0.0
O374 O 0.30866 0.7682 0.21557 0.0
O375 O 0.28851 0.78376 0.2118 0.0
O376 O 0.32635 0.7848 0.25005 0.0
O377 O 0.30934 0.78644 0.26952 0.0
O378 O 0.28626 0.75539 0.27585 0.0
O379 O 0.28699 0.74983 0.24326 0.0
O380 O 0.27219 0.79548 0.30472 0.0
O381 O 0.2943 0.7828 0.30893 0.0
O382 O 0.25565 0.78046 0.2703 0.0
O383 O 0.2727 0.77884 0.25094 0.0
H384 H 0.32043 0.76774 0.17752 0.0
H385 H 0.308 0.81607 0.21075 0.0
H386 H 0.32367 0.83713 0.19189 0.0
H387 H 0.33728 0.7891 0.15917 0.0
H388 H 0.26396 0.79607 0.34563 0.0
H389 H 0.27545 0.74923 0.30901 0.0
H390 H 0.2626 0.7272 0.32901 0.0
H391 H 0.25074 0.77385 0.36557 0.0
Gd392 Gd 0.5627 0.03867 0.50813 0.0
Gd393 Gd 0.52218 0.0342 0.50829 0.0
C394 C 0.53525 0.99595 0.5005 0.0
C395 C 0.59433 0.03538 0.51433 0.0
C396 C 0.6049 0.02146 0.5093 0.0
C397 C 0.61814 0.02586 0.49789 0.0
C398 C 0.60285 0.00449 0.51673 0.0
C399 C 0.62797 0.99748 0.50264 0.0
C400 C 0.61426 0.99265 0.51344 0.0
C401 C 0.62947 0.01401 0.49454 0.0
C402 C 0.54412 0.03789 0.47522 0.0
C403 C 0.54956 0.0768 0.51548 0.0
C404 C 0.49036 0.0373 0.50278 0.0
C405 C 0.47947 0.05094 0.50772 0.0
C406 C 0.46675 0.04669 0.51978 0.0
C407 C 0.48057 0.06735 0.49948 0.0
C408 C 0.45571 0.07417 0.51433 0.0
C409 C 0.46886 0.07883 0.50278 0.0
C410 C 0.45508 0.05816 0.52309 0.0
C411 C 0.54101 0.03554 0.54131 0.0
O412 O 0.55145 0.00669 0.5053 0.0
O413 O 0.5216 1.00334 0.49848 0.0
O414 O 0.58897 0.04353 0.50072 0.0
O415 O 0.58273 0.0313 0.52587 0.0
O416 O 0.56025 0.04759 0.47959 0.0
O417 O 0.53938 0.02813 0.48748 0.0
O418 O 0.53348 0.06598 0.50976 0.0
O419 O 0.56303 0.06934 0.51858 0.0
O420 O 0.49618 0.02959 0.51649 0.0
O421 O 0.50166 0.04127 0.49092 0.0
O422 O 0.5249 0.02579 0.53708 0.0
O423 O 0.54557 0.04502 0.52884 0.0
H424 H 0.62004 0.03879 0.49193 0.0
H425 H 0.59274 1.0006 0.52551 0.0
H426 H 0.61276 0.98013 0.52003 0.0
H427 H 0.63966 0.01802 0.48587 0.0
H428 H 0.46553 0.03416 0.52633 0.0
H429 H 0.49016 0.07106 0.49007 0.0
H430 H 0.46969 0.09094 0.49565 0.0
H431 H 0.44535 0.05429 0.53232 0.0
Gd432 Gd 0.27039 0.28823 0.76143 0.0
Gd433 Gd 0.30943 0.28101 0.76276 0.0
C434 C 0.29539 0.29554 0.80183 0.0
C435 C 0.23765 0.28243 0.76537 0.0
C436 C 0.22584 0.28828 0.77876 0.0
C437 C 0.21507 0.3001 0.77406 0.0
C438 C 0.22388 0.28055 0.79539 0.0
C439 C 0.19983 0.29521 0.80158 0.0
C440 C 0.21108 0.28396 0.80663 0.0
C441 C 0.20229 0.30359 0.78536 0.0
C442 C 0.29525 0.32203 0.76154 0.0
C443 C 0.28508 0.2758 0.72252 0.0
C444 C 0.34236 0.28478 0.75992 0.0
C445 C 0.35465 0.28363 0.74556 0.0
C446 C 0.35853 0.2662 0.73863 0.0
C447 C 0.364 0.30032 0.74015 0.0
C448 C 0.38159 0.28241 0.72233 0.0
C449 C 0.37724 0.29971 0.72867 0.0
C450 C 0.37176 0.26558 0.7271 0.0
C451 C 0.28425 0.24738 0.76321 0.0
O452 O 0.28 0.29464 0.79252 0.0
O453 O 0.30877 0.29155 0.79375 0.0
O454 O 0.24528 0.2948 0.75544 0.0
O455 O 0.24774 0.27195 0.77104 0.0
O456 O 0.27858 0.32039 0.76129 0.0
O457 O 0.2974 0.30531 0.76181 0.0
O458 O 0.30095 0.27915 0.7318 0.0
O459 O 0.27094 0.27615 0.73085 0.0
O460 O 0.33184 0.26887 0.76205 0.0
O461 O 0.33501 0.29913 0.76154 0.0
O462 O 0.30095 0.24913 0.76441 0.0
O463 O 0.28235 0.264 0.76198 0.0
H464 H 0.21616 0.30622 0.76132 0.0
H465 H 0.23181 0.27124 0.79945 0.0
H466 H 0.20952 0.27703 0.81882 0.0
H467 H 0.1941 0.31258 0.78115 0.0
H468 H 0.35174 0.25306 0.74261 0.0
H469 H 0.36145 0.31401 0.74525 0.0
H470 H 0.38429 0.31291 0.72501 0.0
H471 H 0.37477 0.25202 0.7226 0.0
Gd472 Gd 0.03676 0.05376 0.52314 0.0
Gd473 Gd 0.04049 0.01697 0.50631 0.0
C474 C 0.0261 0.03974 0.47681 0.0
C475 C 0.03624 0.08918 0.5306 0.0
C476 C 0.03661 0.10347 0.51836 0.0
C477 C 0.02549 0.11577 0.5203 0.0
C478 C 0.04752 0.10435 0.5041 0.0
C479 C 0.03709 0.13062 0.49476 0.0
C480 C 0.04782 0.1179 0.49247 0.0
C481 C 0.02567 0.12926 0.5085 0.0
C482 C 0.00925 0.02481 0.52571 0.0
C483 C 0.052 0.03167 0.55262 0.0
C484 C 0.03957 0.98107 0.49894 0.0
C485 C 0.04017 0.96678 0.51101 0.0
C486 C 0.04684 0.95113 0.50484 0.0
C487 C 0.03424 0.96875 0.52881 0.0
C488 C 0.04093 0.93902 0.53378 0.0
C489 C 0.03468 0.95501 0.54015 0.0
C490 C 0.04718 0.93729 0.51612 0.0
C491 C 0.06804 0.04552 0.50308 0.0
O492 O 0.03182 0.05442 0.49111 0.0
O493 O 0.02654 0.02242 0.47961 0.0
O494 O 0.02211 0.07529 0.52752 0.0
O495 O 0.05047 0.0833 0.53308 0.0
O496 O 0.01656 0.03878 0.53956 0.0
O497 O 0.01691 0.02677 0.51132 0.0
O498 O 0.04648 0.01695 0.53834 0.0
O499 O 0.05112 0.04886 0.54985 0.0
O500 O 0.05389 0.99448 0.50034 0.0
O501 O 0.0256 0.9876 0.49857 0.0
O502 O 0.06088 0.03096 0.48975 0.0
O503 O 0.06044 0.04416 0.51767 0.0
H504 H 0.01676 0.11501 0.53101 0.0
H505 H 0.05591 0.09466 0.50199 0.0
H506 H 0.05654 0.11855 0.48175 0.0
H507 H 0.0173 0.13897 0.51047 0.0
H508 H 0.05162 0.94952 0.49123 0.0
H509 H 0.029 0.98074 0.53382 0.0
H510 H 0.02962 0.95658 0.5536 0.0
H511 H 0.05223 0.92518 0.51101 0.0
Gd512 Gd 0.30393 0.7989 0.76796 0.0
Gd513 Gd 0.27142 0.7675 0.76416 0.0
C514 C 0.30747 0.75359 0.76744 0.0
C515 C 0.33371 0.82239 0.77962 0.0
C516 C 0.3515 0.82019 0.78108 0.0
C517 C 0.35646 0.80733 0.76736 0.0
C518 C 0.36299 0.82931 0.7975 0.0
C519 C 0.38397 0.81201 0.78706 0.0
C520 C 0.37914 0.82523 0.80051 0.0
C521 C 0.3727 0.80338 0.77029 0.0
C522 C 0.29053 0.78176 0.73251 0.0
C523 C 0.26798 0.81274 0.76391 0.0
C524 C 0.24169 0.74381 0.75259 0.0
C525 C 0.22369 0.74555 0.7508 0.0
C526 C 0.21668 0.75369 0.76635 0.0
C527 C 0.21395 0.74072 0.73276 0.0
C528 C 0.1911 0.7536 0.7454 0.0
C529 C 0.1978 0.74483 0.73004 0.0
C530 C 0.20035 0.75755 0.76365 0.0
C531 C 0.28466 0.78496 0.79972 0.0
O532 O 0.31524 0.77238 0.772 0.0
O533 O 0.29036 0.74818 0.76205 0.0
O534 O 0.32564 0.82027 0.76243 0.0
O535 O 0.3241 0.81365 0.79098 0.0
O536 O 0.29757 0.79997 0.73694 0.0
O537 O 0.29193 0.77377 0.74651 0.0
O538 O 0.26023 0.79394 0.75955 0.0
O539 O 0.28503 0.81831 0.76962 0.0
O540 O 0.24975 0.74614 0.76982 0.0
O541 O 0.25135 0.75242 0.74116 0.0
O542 O 0.27747 0.76675 0.7954 0.0
O543 O 0.28339 0.79266 0.7855 0.0
H544 H 0.34758 0.79987 0.75473 0.0
H545 H 0.35922 0.83908 0.80829 0.0
H546 H 0.38776 0.83217 0.81347 0.0
H547 H 0.37617 0.79305 0.75983 0.0
H548 H 0.22401 0.75765 0.78042 0.0
H549 H 0.21914 0.73445 0.72063 0.0
H550 H 0.19066 0.74148 0.71588 0.0
H551 H 0.19529 0.7643 0.77562 0.0
Gd552 Gd 0.55127 0.03265 0.03865 0.0
Gd553 Gd 0.53926 0.03203 0.99743 0.0
C554 C 0.51145 0.01138 0.019 0.0
C555 C 0.55195 0.03171 0.07405 0.0
C556 C 0.53861 0.02094 0.08377 0.0
C557 C 0.54229 0.00634 0.09273 0.0
C558 C 0.52172 0.02385 0.08272 0.0
C559 C 0.5129 0.99889 0.10105 0.0
C560 C 0.50902 0.01299 0.09135 0.0
C561 C 0.52952 0.99531 0.10117 0.0
C562 C 0.55881 0.00575 0.01378 0.0
C563 C 0.57856 0.05526 0.0172 0.0
C564 C 0.5389 0.03105 0.9618 0.0
C565 C 0.5518 0.04179 0.9516 0.0
C566 C 0.54712 0.05505 0.94136 0.0
C567 C 0.56905 0.03985 0.9529 0.0
C568 C 0.57603 0.06258 0.93192 0.0
C569 C 0.58108 0.05018 0.94309 0.0
C570 C 0.55917 0.06545 0.93168 0.0
C571 C 0.53118 0.05887 0.0219 0.0
O572 O 0.52208 0.0204 0.03456 0.0
O573 O 0.51634 0.01077 1.00204 0.0
O574 O 0.55942 0.02115 0.06285 0.0
O575 O 0.54811 0.04581 0.06672 0.0
O576 O 0.56963 0.01525 0.02851 0.0
O577 O 0.54462 0.01047 0.01323 0.0
O578 O 0.56787 0.04637 1.00167 0.0
O579 O 0.57434 0.05429 0.03433 0.0
O580 O 0.53049 0.04136 0.97205 0.0
O581 O 0.54369 0.01809 0.97028 0.0
O582 O 0.52093 0.04971 0.0066 0.0
O583 O 0.54547 0.05428 0.02295 0.0
H584 H 0.55509 1.0035 0.09325 0.0
H585 H 0.51832 0.03465 0.07544 0.0
H586 H 0.49644 0.01632 0.09116 0.0
H587 H 0.5328 0.98435 0.1083 0.0
H588 H 0.53403 0.05712 0.94056 0.0
H589 H 0.57318 0.03008 0.96113 0.0
H590 H 0.59397 0.0476 0.94332 0.0
H591 H 0.55507 0.07505 0.9232 0.0
Gd592 Gd 0.3022 0.31032 0.27622 0.0
Gd593 Gd 0.28607 0.26738 0.25981 0.0
C594 C 0.26011 0.29302 0.26952 0.0
C595 C 0.31032 0.34676 0.28663 0.0
C596 C 0.29992 0.36061 0.28971 0.0
C597 C 0.30543 0.37595 0.30493 0.0
C598 C 0.28372 0.35762 0.27873 0.0
C599 C 0.27884 0.38573 0.2978 0.0
C600 C 0.27326 0.37014 0.2827 0.0
C601 C 0.29495 0.38848 0.30896 0.0
C602 C 0.30211 0.28612 0.30108 0.0
C603 C 0.32715 0.28588 0.26107 0.0
C604 C 0.27876 0.23113 0.25749 0.0
C605 C 0.28805 0.21732 0.24956 0.0
C606 C 0.27879 0.19953 0.2391 0.0
C607 C 0.30635 0.22189 0.2525 0.0
C608 C 0.306 0.19024 0.23647 0.0
C609 C 0.31525 0.20847 0.24604 0.0
C610 C 0.28773 0.18602 0.23257 0.0
C611 C 0.28993 0.2868 0.23044 0.0
O612 O 0.27335 0.30835 0.27229 0.0
O613 O 0.26192 0.27545 0.266 0.0
O614 O 0.30896 0.33498 0.29861 0.0
O615 O 0.30978 0.33841 0.26904 0.0
O616 O 0.31511 0.30038 0.30058 0.0
O617 O 0.28985 0.28526 0.28825 0.0
O618 O 0.31482 0.27062 0.26182 0.0
O619 O 0.32497 0.30331 0.26411 0.0
O620 O 0.27127 0.23928 0.24524 0.0
O621 O 0.28713 0.24306 0.27279 0.0
O622 O 0.28378 0.26849 0.22835 0.0
O623 O 0.29381 0.2935 0.24792 0.0
H624 H 0.31776 0.37811 0.31376 0.0
H625 H 0.27914 0.34564 0.26708 0.0
H626 H 0.26105 0.3679 0.27363 0.0
H627 H 0.29944 0.40034 0.32074 0.0
H628 H 0.26469 0.19592 0.23645 0.0
H629 H 0.31385 0.23555 0.26046 0.0
H630 H 0.3293 0.21203 0.24958 0.0
H631 H 0.28036 0.17205 0.2251 0.0
Gd632 Gd 0.53773 0.5557 0.0201 0.0
Gd633 Gd 0.54048 0.51731 0.00867 0.0
C634 C 0.52576 0.53913 0.976 0.0
C635 C 0.5422 0.592 0.03 0.0
C636 C 0.54114 0.6067 0.01827 0.0
C637 C 0.52525 0.61147 0.01402 0.0
C638 C 0.5557 0.61508 0.01006 0.0
C639 C 0.53833 0.6321 0.99308 0.0
C640 C 0.55429 0.62761 0.99759 0.0
C641 C 0.52385 0.624 1.00151 0.0
C642 C 0.50739 0.52906 0.0193 0.0
C643 C 0.55237 0.53435 0.05282 0.0
C644 C 0.53649 0.48111 0.99788 0.0
C645 C 0.53707 0.46553 0.00846 0.0
C646 C 0.54801 0.45343 0.00393 0.0
C647 C 0.52755 0.46328 0.02379 0.0
C648 C 0.53986 0.43691 0.02984 0.0
C649 C 0.52882 0.44904 0.03425 0.0
C650 C 0.54944 0.43928 0.01455 0.0
C651 C 0.57083 0.54377 0.00978 0.0
O652 O 0.53118 0.55501 0.9887 0.0
O653 O 0.52698 0.52259 0.98076 0.0
O654 O 0.52756 0.57974 0.03082 0.0
O655 O 0.55513 0.58391 0.02807 0.0
O656 O 0.50851 0.54488 0.013 0.0
O657 O 0.52233 0.5281 0.02609 0.0
O658 O 0.54609 0.51829 0.04044 0.0
O659 O 0.55193 0.5509 0.04767 0.0
O660 O 0.55131 0.49358 0.99863 0.0
O661 O 0.5234 0.48901 0.99961 0.0
O662 O 0.56955 0.52792 0.01603 0.0
O663 O 0.55597 0.54488 0.00282 0.0
H664 H 0.5138 0.60526 0.0201 0.0
H665 H 0.56816 0.61181 0.01307 0.0
H666 H 0.5658 0.63397 0.99166 0.0
H667 H 0.51138 0.62717 0.99825 0.0
H668 H 0.55564 0.45512 0.99232 0.0
H669 H 0.51916 0.47256 0.02779 0.0
H670 H 0.52098 0.44745 0.04568 0.0
H671 H 0.55825 0.43039 0.01094 0.0
Gd672 Gd 0.80417 0.29778 0.26326 0.0
Gd673 Gd 0.77246 0.2689 0.26586 0.0
C674 C 0.8072 0.25282 0.26451 0.0
C675 C 0.83485 0.32044 0.26917 0.0
C676 C 0.85229 0.31825 0.27531 0.0
C677 C 0.86339 0.31487 0.26181 0.0
C678 C 0.85774 0.3187 0.29455 0.0
C679 C 0.88467 0.31153 0.28651 0.0
C680 C 0.87379 0.3153 0.30008 0.0
C681 C 0.87943 0.31143 0.26736 0.0
C682 C 0.78478 0.28223 0.22966 0.0
C683 C 0.76931 0.31365 0.26321 0.0
C684 C 0.74163 0.24685 0.26172 0.0
C685 C 0.72453 0.25011 0.25663 0.0
C686 C 0.71091 0.24348 0.26676 0.0
C687 C 0.722 0.26095 0.24261 0.0
C688 C 0.69207 0.25781 0.2484 0.0
C689 C 0.70584 0.26468 0.23845 0.0
C690 C 0.69478 0.24735 0.26272 0.0
C691 C 0.79211 0.28475 0.29933 0.0
O692 O 0.81546 0.27135 0.26682 0.0
O693 O 0.78989 0.24797 0.26231 0.0
O694 O 0.82748 0.31095 0.25236 0.0
O695 O 0.82404 0.31977 0.28184 0.0
O696 O 0.79316 0.30006 0.2342 0.0
O697 O 0.78787 0.27336 0.24271 0.0
O698 O 0.76112 0.29522 0.26198 0.0
O699 O 0.78659 0.31855 0.265 0.0
O700 O 0.74976 0.25632 0.2782 0.0
O701 O 0.75171 0.24699 0.24838 0.0
O702 O 0.78408 0.26682 0.29482 0.0
O703 O 0.7886 0.29338 0.28626 0.0
H704 H 0.85958 0.31465 0.24692 0.0
H705 H 0.84958 0.32145 0.30533 0.0
H706 H 0.87759 0.31537 0.31494 0.0
H707 H 0.8878 0.30886 0.25672 0.0
H708 H 0.71281 0.23544 0.27788 0.0
H709 H 0.73249 0.26652 0.23485 0.0
H710 H 0.70404 0.27259 0.2272 0.0
H711 H 0.68442 0.24215 0.27079 0.0
Gd712 Gd 0.05073 0.52935 0.54115 0.0
Gd713 Gd 0.04099 0.52924 0.49644 0.0
C714 C 0.0109 0.51124 0.51849 0.0
C715 C 0.04943 0.52921 0.57641 0.0
C716 C 0.03522 0.51892 0.58547 0.0
C717 C 0.03244 0.49912 0.585 0.0
C718 C 0.02336 0.52847 0.59314 0.0
C719 C 0.00625 0.49869 0.59973 0.0
C720 C 0.00899 0.51844 0.60016 0.0
C721 C 0.01807 0.48911 0.59207 0.0
C722 C 0.05812 0.5025 0.51618 0.0
C723 C 0.07885 0.55197 0.51982 0.0
C724 C 0.04279 0.52255 0.46101 0.0
C725 C 0.05386 0.53431 0.44981 0.0
C726 C 0.0511 0.55199 0.44672 0.0
C727 C 0.0685 0.52873 0.44381 0.0
C728 C 0.07725 0.558 0.43152 0.0
C729 C 0.08015 0.54052 0.43485 0.0
C730 C 0.06267 0.56368 0.4375 0.0
C731 C 0.03891 0.56174 0.51857 0.0
O732 O 0.02168 0.51643 0.53465 0.0
O733 O 0.01542 0.51324 0.50164 0.0
O734 O 0.05755 0.51849 0.5662 0.0
O735 O 0.04614 0.54315 0.56834 0.0
O736 O 0.06801 0.51026 0.53212 0.0
O737 O 0.04465 0.50863 0.51468 0.0
O738 O 0.06943 0.5428 0.50358 0.0
O739 O 0.07382 0.55109 0.5367 0.0
O740 O 0.03014 0.52922 0.46778 0.0
O741 O 0.0514 0.51536 0.47327 0.0
O742 O 0.03563 0.55893 0.50019 0.0
O743 O 0.04312 0.54753 0.52315 0.0
H744 H 0.04129 0.49128 0.57909 0.0
H745 H 0.02515 0.54368 0.59366 0.0
H746 H 1.00036 0.52632 0.60656 0.0
H747 H 0.01632 0.47393 0.59177 0.0
H748 H 0.04008 0.55685 0.45145 0.0
H749 H 0.07101 0.51527 0.44616 0.0
H750 H 0.09107 0.53564 0.42985 0.0
H751 H 0.06014 0.57703 0.43481 0.0
Gd752 Gd 0.76963 0.78852 0.26044 0.0
Gd753 Gd 0.80893 0.7819 0.26389 0.0
C754 C 0.79272 0.79465 0.302 0.0
C755 C 0.73655 0.78292 0.26291 0.0
C756 C 0.72468 0.7871 0.27699 0.0
C757 C 0.71781 0.80323 0.27761 0.0
C758 C 0.71902 0.77411 0.28899 0.0
C759 C 0.69937 0.79281 0.30131 0.0
C760 C 0.7066 0.77693 0.30098 0.0
C761 C 0.70537 0.80608 0.28965 0.0
C762 C 0.79449 0.82265 0.26165 0.0
C763 C 0.78596 0.77656 0.22246 0.0
C764 C 0.84207 0.78692 0.2615 0.0
C765 C 0.85413 0.78399 0.24721 0.0
C766 C 0.86293 0.76937 0.24716 0.0
C767 C 0.85822 0.79683 0.23463 0.0
C768 C 0.88031 0.78119 0.22317 0.0
C769 C 0.87109 0.79544 0.2228 0.0
C770 C 0.87578 0.76792 0.23524 0.0
C771 C 0.78373 0.74781 0.26204 0.0
O772 O 0.77754 0.79283 0.29173 0.0
O773 O 0.80697 0.79236 0.29459 0.0
O774 O 0.7453 0.79706 0.25576 0.0
O775 O 0.74567 0.77072 0.26619 0.0
O776 O 0.7777 0.82057 0.26003 0.0
O777 O 0.79677 0.80609 0.26263 0.0
O778 O 0.80129 0.77913 0.23272 0.0
O779 O 0.77147 0.77761 0.22989 0.0
O780 O 0.83273 0.77192 0.26689 0.0
O781 O 0.83346 0.79993 0.25988 0.0
O782 O 0.80044 0.7495 0.26314 0.0
O783 O 0.78182 0.76456 0.26169 0.0
H784 H 0.72177 0.81348 0.26851 0.0
H785 H 0.72382 0.76138 0.28877 0.0
H786 H 0.70218 0.76621 0.30945 0.0
H787 H 0.70033 0.81861 0.28966 0.0
H788 H 0.86026 0.75935 0.25676 0.0
H789 H 0.85181 0.80833 0.23422 0.0
H790 H 0.87399 0.80574 0.21351 0.0
H791 H 0.88266 0.75685 0.23607 0.0
Gd792 Gd 0.79948 0.28067 0.73809 0.0
Gd793 Gd 0.78626 0.28459 0.77972 0.0
C794 C 0.80084 0.32178 0.76335 0.0
C795 C 0.8025 0.28072 0.70312 0.0
C796 C 0.81437 0.29385 0.6939 0.0
C797 C 0.82431 0.28668 0.68084 0.0
C798 C 0.81579 0.3136 0.69795 0.0
C799 C 0.83459 0.31838 0.67357 0.0
C800 C 0.82571 0.32573 0.68778 0.0
C801 C 0.83449 0.2989 0.67086 0.0
C802 C 0.82648 0.28462 0.76651 0.0
C803 C 0.78369 0.24398 0.75521 0.0
C804 C 0.78165 0.28438 0.81434 0.0
C805 C 0.7713 0.26942 0.82278 0.0
C806 C 0.7623 0.27427 0.83783 0.0
C807 C 0.77094 0.25018 0.81629 0.0
C808 C 0.75576 0.24139 0.84226 0.0
C809 C 0.76333 0.23626 0.82613 0.0
C810 C 0.75445 0.26022 0.84755 0.0
C811 C 0.75948 0.27942 0.7505 0.0
O812 O 0.80047 0.31156 0.74639 0.0
O813 O 0.79844 0.31468 0.77889 0.0
O814 O 0.80966 0.27007 0.71284 0.0
O815 O 0.79087 0.28779 0.71157 0.0
O816 O 0.82794 0.28292 0.74858 0.0
O817 O 0.8108 0.28481 0.76795 0.0
O818 O 0.7874 0.25447 0.77232 0.0
O819 O 0.78506 0.25101 0.73945 0.0
O820 O 0.77279 0.2925 0.80335 0.0
O821 O 0.79528 0.28035 0.80741 0.0
O822 O 0.75734 0.28027 0.76817 0.0
O823 O 0.77539 0.28039 0.74993 0.0
H824 H 0.82371 0.27155 0.67789 0.0
H825 H 0.80863 0.31962 0.70835 0.0
H826 H 0.82531 0.3406 0.69013 0.0
H827 H 0.84145 0.29291 0.66022 0.0
H828 H 0.76219 0.289 0.84271 0.0
H829 H 0.77749 0.24603 0.80441 0.0
H830 H 0.76465 0.22182 0.82216 0.0
H831 H 0.74882 0.26436 0.86019 0.0
Gd832 Gd 0.80327 0.80977 0.77624 0.0
Gd833 Gd 0.78808 0.77053 0.75894 0.0
C834 C 0.76178 0.79386 0.77037 0.0
C835 C 0.81132 0.84607 0.78835 0.0
C836 C 0.80065 0.85984 0.79027 0.0
C837 C 0.80246 0.87237 0.80753 0.0
C838 C 0.78753 0.85934 0.77566 0.0
C839 C 0.77813 0.88391 0.79557 0.0
C840 C 0.77646 0.8714 0.77823 0.0
C841 C 0.79123 0.88433 0.8102 0.0
C842 C 0.80349 0.78541 0.80104 0.0
C843 C 0.82952 0.78718 0.76329 0.0
C844 C 0.77969 0.73409 0.74767 0.0
C845 C 0.79021 0.72035 0.74443 0.0
C846 C 0.78463 0.7048 0.72943 0.0
C847 C 0.80644 0.72347 0.75541 0.0
C848 C 0.81126 0.69514 0.73678 0.0
C849 C 0.81688 0.71091 0.75164 0.0
C850 C 0.7951 0.69219 0.72563 0.0
C851 C 0.78742 0.79452 0.73394 0.0
O852 O 0.77473 0.80882 0.77049 0.0
O853 O 0.76435 0.77668 0.769 0.0
O854 O 0.80856 0.83361 0.79957 0.0
O855 O 0.81261 0.83845 0.77105 0.0
O856 O 0.81662 0.79925 0.79993 0.0
O857 O 0.79093 0.78479 0.7887 0.0
O858 O 0.81688 0.77197 0.7633 0.0
O859 O 0.82683 0.80428 0.76531 0.0
O860 O 0.78103 0.74619 0.73603 0.0
O861 O 0.78027 0.74213 0.76532 0.0
O862 O 0.77451 0.7805 0.73519 0.0
O863 O 0.80017 0.79549 0.74624 0.0
H864 H 0.81233 0.87263 0.81906 0.0
H865 H 0.78567 0.84952 0.76231 0.0
H866 H 0.76672 0.87103 0.76653 0.0
H867 H 0.79268 0.89372 0.82374 0.0
H868 H 0.77224 0.70247 0.72067 0.0
H869 H 0.81102 0.73552 0.76697 0.0
H870 H 0.82912 0.71325 0.76071 0.0
H871 H 0.79057 0.6801 0.71409 0.0
Gd872 Gd 0.52156 0.52299 0.50053 0.0
Gd873 Gd 0.55556 0.54315 0.52322 0.0
C874 C 0.53504 0.56876 0.50244 0.0
C875 C 0.48845 0.51021 0.4899 0.0
C876 C 0.47414 0.5194 0.48742 0.0
C877 C 0.46009 0.51073 0.47324 0.0
C878 C 0.47501 0.53741 0.49808 0.0
C879 C 0.44735 0.53763 0.48087 0.0
C880 C 0.46166 0.54643 0.49489 0.0
C881 C 0.44679 0.51979 0.46995 0.0
C882 C 0.54549 0.52084 0.47517 0.0
C883 C 0.54277 0.49724 0.51969 0.0
C884 C 0.58848 0.55654 0.53411 0.0
C885 C 0.60333 0.54828 0.53218 0.0
C886 C 0.6189 0.55656 0.5443 0.0
C887 C 0.60123 0.53068 0.52015 0.0
C888 C 0.63006 0.52931 0.53296 0.0
C889 C 0.61453 0.52124 0.52053 0.0
C890 C 0.63225 0.54716 0.54465 0.0
C891 C 0.53172 0.54461 0.54885 0.0
O892 O 0.52214 0.55329 0.49698 0.0
O893 O 0.54951 0.56855 0.51273 0.0
O894 O 0.4998 0.51334 0.47813 0.0
O895 O 0.49565 0.51155 0.50727 0.0
O896 O 0.52906 0.51254 0.47211 0.0
O897 O 0.54913 0.52897 0.49272 0.0
O898 O 0.55622 0.51228 0.52276 0.0
O899 O 0.52724 0.49816 0.51248 0.0
O900 O 0.57765 0.54837 0.54467 0.0
O901 O 0.58066 0.55966 0.51851 0.0
O902 O 0.54823 0.55234 0.55206 0.0
O903 O 0.52812 0.53677 0.53122 0.0
H904 H 0.45949 0.49702 0.46462 0.0
H905 H 0.48598 0.54448 0.50886 0.0
H906 H 0.46236 0.56007 0.50369 0.0
H907 H 0.43607 0.51283 0.45885 0.0
H908 H 0.62049 0.56997 0.55392 0.0
H909 H 0.58912 0.52401 0.51089 0.0
H910 H 0.61264 0.50759 0.51124 0.0
H911 H 0.64405 0.55355 0.55448 0.0
Gd912 Gd 0.0623 0.53724 0.00648 0.0
Gd913 Gd 0.02231 0.535 0.00611 0.0
C914 C 0.03394 0.49604 1.00049 0.0
C915 C 0.09383 0.53302 0.01121 0.0
C916 C 0.10408 0.51851 0.00777 0.0
C917 C 0.10794 0.51199 0.98959 0.0
C918 C 0.1113 0.51215 0.02333 0.0
C919 C 0.12656 0.4936 0.00291 0.0
C920 C 0.12234 0.49989 0.02096 0.0
C921 C 0.11905 0.49966 0.98719 0.0
C922 C 0.04394 0.53647 0.97319 0.0
C923 C 0.05103 0.57647 0.01296 0.0
C924 C 0.99091 0.53912 0.99962 0.0
C925 C 0.97979 0.55211 0.00582 0.0
C926 C 0.96535 0.54533 0.01492 0.0
C927 C 0.98246 0.57058 1.00147 0.0
C928 C 0.95558 0.57447 0.01372 0.0
C929 C 0.97052 0.58164 0.00542 0.0
C930 C 0.95345 0.55637 0.01889 0.0
C931 C 0.04005 0.53686 0.04007 0.0
O932 O 0.04996 0.5062 0.00735 0.0
O933 O 0.02133 0.50412 0.99553 0.0
O934 O 0.08756 0.53927 0.99664 0.0
O935 O 0.08314 0.53089 0.02391 0.0
O936 O 0.06001 0.54618 0.97783 0.0
O937 O 0.03902 0.52706 0.9856 0.0
O938 O 0.03486 0.5663 0.0066 0.0
O939 O 0.06386 0.56828 0.01689 0.0
O940 O 0.99541 0.52884 0.01169 0.0
O941 O 0.00337 0.5453 0.98972 0.0
O942 O 0.02363 0.5284 0.03566 0.0
O943 O 0.04559 0.54534 0.02722 0.0
H944 H 0.10266 0.51667 0.97726 0.0
H945 H 0.10877 0.51709 0.03753 0.0
H946 H 0.12808 0.4959 0.03347 0.0
H947 H 0.12184 0.49497 0.97306 0.0
H948 H 0.96296 0.5312 0.01852 0.0
H949 H 0.99343 0.57629 0.99443 0.0
H950 H 0.97259 0.59543 1.00109 0.0
H951 H 0.94238 0.55052 0.02572 0.0
H952 H 0.02388 0.20869 0.9151 0.0
H953 H 0.02819 0.18033 0.92708 0.0
H954 H 0.00862 0.19903 0.97876 0.0
H955 H 0.00548 0.22796 0.9673 0.0
H956 H 0.03283 0.18535 0.98884 0.0
H957 H 0.98455 0.15955 0.93957 0.0
H958 H 0.96856 0.15368 0.90733 0.0
H959 H 0.00743 0.12775 0.88498 0.0
H960 H 0.02374 0.13363 0.91707 0.0
H961 H 0.00863 0.08697 0.00897 0.0
H962 H 0.00569 0.11666 0.99825 0.0
H963 H 0.0512 0.11776 0.96991 0.0
H964 H 0.05468 0.08874 0.98137 0.0
H965 H 0.01404 0.12085 0.94871 0.0
H966 H 0.06151 0.1471 1.00064 0.0
H967 H 0.07497 0.15223 0.03385 0.0
H968 H 0.03377 0.17647 0.0524 0.0
H969 H 0.01985 0.17109 0.01928 0.0
C970 C 0.02037 0.20666 0.92895 0.0
C971 C 0.01419 0.22058 0.94014 0.0
C972 C 0.02274 0.19031 0.93581 0.0
C973 C 0.01841 0.18705 0.9538 0.0
C974 C 0.01213 0.20097 0.96489 0.0
C975 C 0.01021 0.21754 0.95824 0.0
C976 C 0.02063 0.16942 0.96121 0.0
C977 C 0.02847 0.17128 0.98002 0.0
C978 C 0.01521 0.15083 0.94993 0.0
C979 C 0.00543 0.1472 0.93066 0.0
C980 C 0.98973 0.15269 0.92775 0.0
C981 C 0.9806 0.14935 0.90952 0.0
C982 C 0.987 0.1404 0.89411 0.0
C983 C 1.0025 0.1347 0.89692 0.0
C984 C 0.01168 0.13802 0.91512 0.0
C985 C 0.01803 0.09365 1.00054 0.0
C986 C 0.03191 0.08561 0.99603 0.0
C987 C 0.01638 0.1106 0.99447 0.0
C988 C 0.02828 0.11949 0.98334 0.0
C989 C 0.04196 0.11126 0.97859 0.0
C990 C 0.04394 0.0947 0.98515 0.0
C991 C 0.02613 0.13698 0.97609 0.0
C992 C 0.0183 0.13501 0.95739 0.0
C993 C 0.03121 0.15536 0.98758 0.0
C994 C 0.03948 0.15838 0.00749 0.0
C995 C 0.05516 0.15323 0.01181 0.0
C996 C 0.06292 0.15625 0.03062 0.0
C997 C 0.05519 0.16459 0.04524 0.0
C998 C 0.03971 0.16995 0.04107 0.0
C999 C 0.03188 0.16691 0.02228 0.0
H1000 H 0.06124 0.16696 0.05979 0.0
H1001 H 0.97992 0.13783 0.88 0.0
H1002 H 0.14005 0.80327 0.12283 0.0
H1003 H 0.16549 0.79906 0.14164 0.0
H1004 H 0.13755 0.79706 0.19012 0.0
H1005 H 0.11214 0.80214 0.17137 0.0
H1006 H 0.16887 0.81521 0.20251 0.0
H1007 H 0.14616 0.75539 0.15975 0.0
H1008 H 0.13612 0.73409 0.1287 0.0
H1009 H 0.18639 0.75316 0.1112 0.0
H1010 H 0.19667 0.77475 0.14206 0.0
H1011 H 0.22307 0.77445 0.25725 0.0
H1012 H 0.19907 0.77877 0.23627 0.0
H1013 H 0.23277 0.78834 0.19336 0.0
H1014 H 0.25709 0.78385 0.21459 0.0
H1015 H 0.19969 0.76694 0.17737 0.0
H1016 H 0.22243 0.82595 0.22085 0.0
H1017 H 0.23225 0.84681 0.25214 0.0
H1018 H 0.18135 0.82851 0.26846 0.0
H1019 H 0.17129 0.80732 0.23736 0.0
C1020 C 0.13927 0.80206 0.13754 0.0
C1021 C 0.12386 0.80305 0.14547 0.0
C1022 C 0.1539 0.7994 0.14832 0.0
C1023 C 0.15359 0.79713 0.16736 0.0
C1024 C 0.13834 0.79861 0.17549 0.0
C1025 C 0.12372 0.80157 0.16473 0.0
C1026 C 0.16915 0.7935 0.17877 0.0
C1027 C 0.17536 0.80442 0.19701 0.0
C1028 C 0.17827 0.77983 0.17169 0.0
C1029 C 0.17213 0.76682 0.15315 0.0
C1030 C 0.15503 0.75513 0.14923 0.0
C1031 C 0.14931 0.74299 0.13168 0.0
C1032 C 0.1606 0.74231 0.11797 0.0
C1033 C 0.17765 0.75372 0.12182 0.0
C1034 C 0.18344 0.7659 0.13934 0.0
C1035 C 0.22548 0.77732 0.24329 0.0
C1036 C 0.24221 0.77878 0.23775 0.0
C1037 C 0.21164 0.77991 0.23127 0.0
C1038 C 0.21396 0.78431 0.21321 0.0
C1039 C 0.23049 0.78507 0.20722 0.0
C1040 C 0.24447 0.78243 0.21937 0.0
C1041 C 0.19917 0.78849 0.2011 0.0
C1042 C 0.19315 0.77772 0.18278 0.0
C1043 C 0.19014 0.80221 0.20811 0.0
C1044 C 0.19616 0.81493 0.22683 0.0
C1045 C 0.21337 0.82626 0.23117 0.0
C1046 C 0.21897 0.83817 0.24886 0.0
C1047 C 0.20744 0.83896 0.26229 0.0
C1048 C 0.19027 0.82787 0.25805 0.0
C1049 C 0.18461 0.81592 0.24039 0.0
H1050 H 0.2118 0.8482 0.27598 0.0
H1051 H 0.15614 0.7329 0.10439 0.0
H1052 H 0.53467 0.82281 0.43018 0.0
H1053 H 0.54061 0.85684 0.44355 0.0
H1054 H 0.49848 0.84513 0.47703 0.0
H1055 H 0.4924 0.81108 0.4637 0.0
H1056 H 0.49616 0.87309 0.45642 0.0
H1057 H 0.54121 0.85833 0.49739 0.0
H1058 H 0.56739 0.8468 0.5049 0.0
H1059 H 0.59697 0.88728 0.47549 0.0
H1060 H 0.57091 0.89885 0.46756 0.0
H1061 H 0.50769 0.96768 0.50535 0.0
H1062 H 0.50406 0.93313 0.49693 0.0
H1063 H 0.55313 0.9429 0.47428 0.0
H1064 H 0.55733 0.97724 0.48403 0.0
H1065 H 0.55203 0.91536 0.49016 0.0
H1066 H 0.50975 0.9287 0.44605 0.0
H1067 H 0.48487 0.94106 0.43542 0.0
H1068 H 0.45167 0.90426 0.46536 0.0
H1069 H 0.47642 0.89185 0.47636 0.0
C1070 C 0.52679 0.82742 0.44057 0.0
C1071 C 0.51297 0.81418 0.44578 0.0
C1072 C 0.53028 0.8469 0.44828 0.0
C1073 C 0.52004 0.85355 0.46136 0.0
C1074 C 0.50656 0.84032 0.46697 0.0
C1075 C 0.50312 0.82084 0.45936 0.0
C1076 C 0.52241 0.87438 0.46804 0.0
C1077 C 0.50831 0.88231 0.46406 0.0
C1078 C 0.53848 0.88656 0.47723 0.0
C1079 C 0.55404 0.8793 0.4817 0.0
C1080 C 0.55324 0.86462 0.49233 0.0
C1081 C 0.56808 0.85811 0.49671 0.0
C1082 C 0.58382 0.86626 0.49062 0.0
C1083 C 0.58476 0.88095 0.48016 0.0
C1084 C 0.56997 0.88748 0.47573 0.0
C1085 C 0.51768 0.96236 0.49862 0.0
C1086 C 0.53277 0.97508 0.49533 0.0
C1087 C 0.51556 0.94261 0.49365 0.0
C1088 C 0.52814 0.93522 0.48454 0.0
C1089 C 0.54322 0.94806 0.48131 0.0
C1090 C 0.5456 0.96774 0.48683 0.0
C1091 C 0.52577 0.91421 0.47848 0.0
C1092 C 0.53985 0.90622 0.48254 0.0
C1093 C 0.50986 0.90204 0.46873 0.0
C1094 C 0.49498 0.9095 0.46219 0.0
C1095 C 0.49717 0.92335 0.45047 0.0
C1096 C 0.48309 0.93034 0.44437 0.0
C1097 C 0.46671 0.92349 0.44976 0.0
C1098 C 0.46437 0.90958 0.46123 0.0
C1099 C 0.47842 0.90255 0.46739 0.0
H1100 H 0.45582 0.92892 0.44501 0.0
H1101 H 0.59529 0.86123 0.49406 0.0
H1102 H 0.5059 0.26435 0.61913 0.0
H1103 H 0.47934 0.2612 0.634 0.0
H1104 H 0.50507 0.30934 0.67782 0.0
H1105 H 0.53205 0.31214 0.66326 0.0
H1106 H 0.4861 0.28329 0.69314 0.0
H1107 H 0.47422 0.31092 0.63777 0.0
H1108 H 0.47112 0.31228 0.60363 0.0
H1109 H 0.43262 0.25868 0.59213 0.0
H1110 H 0.43564 0.25689 0.62616 0.0
H1111 H 0.41348 0.30808 0.72911 0.0
H1112 H 0.4389 0.30748 0.71271 0.0
H1113 H 0.41039 0.2554 0.6755 0.0
H1114 H 0.38467 0.25603 0.69177 0.0
H1115 H 0.42964 0.28081 0.656 0.0
H1116 H 0.43997 0.25256 0.70939 0.0
H1117 H 0.44201 0.24928 0.74303 0.0
H1118 H 0.48249 0.30129 0.75753 0.0
H1119 H 0.48051 0.30502 0.72398 0.0
C1120 C 0.50599 0.27428 0.63198 0.0
C1121 C 0.52118 0.28858 0.63994 0.0
C1122 C 0.49065 0.27254 0.64041 0.0
C1123 C 0.4899 0.28531 0.65685 0.0
C1124 C 0.50518 0.29935 0.66509 0.0
C1125 C 0.52065 0.30095 0.65676 0.0
C1126 C 0.47334 0.28385 0.66559 0.0
C1127 C 0.47385 0.28307 0.68501 0.0
C1128 C 0.45702 0.28264 0.65495 0.0
C1129 C 0.4553 0.28369 0.63448 0.0
C1130 C 0.46519 0.29936 0.62794 0.0
C1131 C 0.46343 0.30021 0.60861 0.0
C1132 C 0.45172 0.28555 0.59572 0.0
C1133 C 0.44171 0.27001 0.60212 0.0
C1134 C 0.44343 0.26908 0.62143 0.0
C1135 C 0.41248 0.29659 0.7173 0.0
C1136 C 0.39693 0.28214 0.71177 0.0
C1137 C 0.42713 0.29617 0.70802 0.0
C1138 C 0.42669 0.28131 0.69295 0.0
C1139 C 0.41111 0.26701 0.68711 0.0
C1140 C 0.39643 0.26733 0.69652 0.0
C1141 C 0.44261 0.2808 0.68355 0.0
C1142 C 0.44194 0.28108 0.66406 0.0
C1143 C 0.45873 0.28129 0.69401 0.0
C1144 C 0.45998 0.27916 0.7142 0.0
C1145 C 0.4492 0.26338 0.71978 0.0
C1146 C 0.45037 0.26143 0.73882 0.0
C1147 C 0.46234 0.27509 0.75241 0.0
C1148 C 0.4732 0.29073 0.74698 0.0
C1149 C 0.47208 0.29276 0.72795 0.0
H1150 H 0.46323 0.27355 0.76715 0.0
H1151 H 0.45037 0.28625 0.58077 0.0
H1152 H 0.99695 0.7864 0.60149 0.0
H1153 H 0.00646 0.81194 0.58366 0.0
H1154 H 0.03356 0.84927 0.63533 0.0
H1155 H 0.02399 0.82395 0.65329 0.0
H1156 H 0.01253 0.86554 0.61542 0.0
H1157 H 0.05597 0.83084 0.60249 0.0
H1158 H 0.06703 0.80282 0.5913 0.0
H1159 H 0.0401 0.79754 0.53549 0.0
H1160 H 0.02866 0.82536 0.54642 0.0
H1161 H 0.05042 0.94248 0.57187 0.0
H1162 H 0.04699 0.91684 0.59047 0.0
H1163 H 0.02479 0.87543 0.53954 0.0
H1164 H 0.02876 0.90088 0.52092 0.0
H1165 H 0.04499 0.86147 0.55999 0.0
H1166 H 0.99958 0.89342 0.57229 0.0
H1167 H 0.98671 0.92028 0.58266 0.0
H1168 H 0.01497 0.92927 0.63841 0.0
H1169 H 0.02821 0.90265 0.62829 0.0
C1170 C 0.00494 0.80005 0.60905 0.0
C1171 C 0.00956 0.80326 0.62883 0.0
C1172 C 0.0105 0.81454 0.59882 0.0
C1173 C 0.02082 0.8324 0.60819 0.0
C1174 C 0.02562 0.83555 0.62787 0.0
C1175 C 0.02008 0.82109 0.6381 0.0
C1176 C 0.02556 0.8483 0.59777 0.0
C1177 C 0.0199 0.86481 0.60349 0.0
C1178 C 0.03465 0.84699 0.58185 0.0
C1179 C 0.04131 0.83007 0.57534 0.0
C1180 C 0.05225 0.82358 0.58789 0.0
C1181 C 0.05862 0.80776 0.58157 0.0
C1182 C 0.05423 0.79837 0.56271 0.0
C1183 C 0.04347 0.8048 0.55011 0.0
C1184 C 0.03705 0.8206 0.55635 0.0
C1185 C 0.04495 0.92787 0.56469 0.0
C1186 C 0.03988 0.92361 0.54499 0.0
C1187 C 0.04291 0.91326 0.57531 0.0
C1188 C 0.03535 0.89424 0.56642 0.0
C1189 C 0.03067 0.88998 0.54669 0.0
C1190 C 0.03296 0.90452 0.53606 0.0
C1191 C 0.03191 0.87874 0.57761 0.0
C1192 C 0.03775 0.86228 0.57201 0.0
C1193 C 0.02272 0.87994 0.59349 0.0
C1194 C 0.01506 0.89621 0.59946 0.0
C1195 C 0.00319 0.90127 0.5867 0.0
C1196 C 0.9958 0.91642 0.59254 0.0
C1197 C 1.00007 0.92652 0.61116 0.0
C1198 C 0.01172 0.92148 0.62398 0.0
C1199 C 0.01917 0.90637 0.61819 0.0
H1200 H 0.9943 0.93821 0.61567 0.0
H1201 H 0.0592 0.78615 0.55785 0.0
H1202 H 0.51997 0.78981 0.87087 0.0
H1203 H 0.492 0.79162 0.85551 0.0
H1204 H 0.51447 0.79984 0.80416 0.0
H1205 H 0.54296 0.79906 0.81994 0.0
H1206 H 0.49322 0.82332 0.81274 0.0
H1207 H 0.48959 0.75567 0.80835 0.0
H1208 H 0.49385 0.72849 0.82306 0.0
H1209 H 0.45702 0.73805 0.86115 0.0
H1210 H 0.45272 0.76544 0.84683 0.0
H1211 H 0.40878 0.81044 0.76365 0.0
H1212 H 0.43729 0.80402 0.7714 0.0
H1213 H 0.4246 0.79562 0.82698 0.0
H1214 H 0.39608 0.80167 0.8192 0.0
H1215 H 0.44147 0.76994 0.81187 0.0
H1216 H 0.44717 0.8376 0.82165 0.0
H1217 H 0.44419 0.8679 0.81248 0.0
H1218 H 0.47737 0.86117 0.76948 0.0
H1219 H 0.4803 0.8306 0.7782 0.0
C1220 C 0.5189 0.79176 0.85623 0.0
C1221 C 0.5334 0.79386 0.84636 0.0
C1222 C 0.50297 0.79285 0.84751 0.0
C1223 C 0.50115 0.79533 0.82858 0.0
C1224 C 0.51568 0.79771 0.81874 0.0
C1225 C 0.5318 0.79712 0.82766 0.0
C1226 C 0.48395 0.79522 0.81917 0.0
C1227 C 0.48195 0.81148 0.81207 0.0
C1228 C 0.46928 0.77994 0.81891 0.0
C1229 C 0.47082 0.76257 0.82649 0.0
C1230 C 0.48233 0.7519 0.81979 0.0
C1231 C 0.4848 0.73651 0.8281 0.0
C1232 C 0.47571 0.73155 0.84302 0.0
C1233 C 0.46402 0.74188 0.84956 0.0
C1234 C 0.46152 0.7573 0.84131 0.0
C1235 C 0.41205 0.80693 0.77738 0.0
C1236 C 0.4005 0.80681 0.79098 0.0
C1237 C 0.42826 0.80334 0.78179 0.0
C1238 C 0.43299 0.79958 0.79979 0.0
C1239 C 0.42111 0.79854 0.81302 0.0
C1240 C 0.40497 0.80218 0.80866 0.0
C1241 C 0.45072 0.79807 0.8055 0.0
C1242 C 0.4528 0.78154 0.81198 0.0
C1243 C 0.46541 0.81328 0.80559 0.0
C1244 C 0.46375 0.83168 0.80038 0.0
C1245 C 0.45369 0.84248 0.81011 0.0
C1246 C 0.45203 0.85972 0.80502 0.0
C1247 C 0.46053 0.86642 0.79035 0.0
C1248 C 0.47076 0.85592 0.7808 0.0
C1249 C 0.47242 0.83864 0.78581 0.0
H1250 H 0.45924 0.87977 0.78643 0.0
H1251 H 0.47773 0.7197 0.84952 0.0
H1252 H 0.46662 0.18798 0.09981 0.0
H1253 H 0.47585 0.15876 0.08887 0.0
H1254 H 0.52974 0.19075 0.10159 0.0
H1255 H 0.52042 0.21991 0.11176 0.0
H1256 H 0.52488 0.17085 0.06855 0.0
H1257 H 0.51147 0.1574 0.12843 0.0
H1258 H 0.49509 0.15261 0.15545 0.0
H1259 H 0.4559 0.1074 0.11962 0.0
H1260 H 0.47191 0.1121 0.09231 0.0
H1261 H 0.55435 0.08582 0.048 0.0
H1262 H 0.54848 0.11351 0.0677 0.0
H1263 H 0.49402 0.09414 0.0448 0.0
H1264 H 0.49983 0.0666 0.02487 0.0
H1265 H 0.50219 0.1076 0.08598 0.0
H1266 H 0.51661 0.12524 0.02543 0.0
H1267 H 0.53572 0.12965 1.00053 0.0
H1268 H 0.57645 0.16744 0.04153 0.0
H1269 H 0.55765 0.16304 0.06672 0.0
C1270 C 0.48038 0.18862 0.1 0.0
C1271 C 0.49288 0.20596 0.106 0.0
C1272 C 0.48566 0.17199 0.09411 0.0
C1273 C 0.50349 0.1726 0.0946 0.0
C1274 C 0.51594 0.19 0.10105 0.0
C1275 C 0.51064 0.20659 0.10668 0.0
C1276 C 0.50915 0.15552 0.08681 0.0
C1277 C 0.52017 0.15713 0.0727 0.0
C1278 C 0.50291 0.13758 0.09208 0.0
C1279 C 0.4928 0.13527 0.10826 0.0
C1280 C 0.49923 0.14663 0.12624 0.0
C1281 C 0.49005 0.14387 0.14163 0.0
C1282 C 0.47444 0.12975 0.13924 0.0
C1283 C 0.46797 0.11837 0.12145 0.0
C1284 C 0.4771 0.12106 0.10601 0.0
C1285 C 0.54112 0.08743 0.04735 0.0
C1286 C 0.52753 0.07438 0.03487 0.0
C1287 C 0.53782 0.10315 0.05855 0.0
C1288 C 0.52088 0.10574 0.05748 0.0
C1289 C 0.50716 0.09223 0.04569 0.0
C1290 C 0.51049 0.07666 0.03431 0.0
C1291 C 0.51754 0.12312 0.06776 0.0
C1292 C 0.50699 0.12149 0.08221 0.0
C1293 C 0.5245 0.14113 0.06313 0.0
C1294 C 0.53581 0.14361 0.04798 0.0
C1295 C 0.52971 0.13432 0.02916 0.0
C1296 C 0.54047 0.13686 0.01499 0.0
C1297 C 0.55731 0.14876 0.01946 0.0
C1298 C 0.56342 0.15819 0.0381 0.0
C1299 C 0.55272 0.15568 0.05232 0.0
H1300 H 0.56561 0.15073 0.00846 0.0
H1301 H 0.46739 0.12759 0.1512 0.0
H1302 H 0.15121 0.30298 0.37629 0.0
H1303 H 0.17418 0.30317 0.35588 0.0
H1304 H 0.14398 0.32265 0.3136 0.0
H1305 H 0.12088 0.32203 0.33357 0.0
H1306 H 0.1553 0.29328 0.29816 0.0
H1307 H 0.18072 0.3535 0.34001 0.0
H1308 H 0.1905 0.37488 0.37105 0.0
H1309 H 0.22575 0.34129 0.38563 0.0
H1310 H 0.21612 0.31967 0.35471 0.0
H1311 H 0.24674 0.32369 0.26608 0.0
H1312 H 0.22002 0.32936 0.27781 0.0
H1313 H 0.2095 0.27422 0.2947 0.0
H1314 H 0.23543 0.26811 0.28245 0.0
H1315 H 0.2177 0.32573 0.31918 0.0
H1316 H 0.18013 0.25964 0.28176 0.0
H1317 H 0.17083 0.23891 0.25031 0.0
H1318 H 0.15884 0.28575 0.22706 0.0
H1319 H 0.16866 0.3069 0.2583 0.0
C1320 C 0.14959 0.30745 0.36272 0.0
C1321 C 0.1343 0.31237 0.35643 0.0
C1322 C 0.16269 0.30764 0.35115 0.0
C1323 C 0.16074 0.3131 0.33338 0.0
C1324 C 0.14564 0.31839 0.32728 0.0
C1325 C 0.1325 0.318 0.3387 0.0
C1326 C 0.17401 0.31227 0.32066 0.0
C1327 C 0.1689 0.30061 0.30268 0.0
C1328 C 0.1917 0.32186 0.32656 0.0
C1329 C 0.19764 0.33493 0.34509 0.0
C1330 C 0.1905 0.35064 0.34988 0.0
C1331 C 0.19604 0.36281 0.36744 0.0
C1332 C 0.20871 0.35942 0.38032 0.0
C1333 C 0.21594 0.3439 0.37564 0.0
C1334 C 0.21049 0.33172 0.35808 0.0
C1335 C 0.23836 0.31258 0.27173 0.0
C1336 C 0.24299 0.29546 0.2733 0.0
C1337 C 0.22317 0.31579 0.27831 0.0
C1338 C 0.2127 0.30194 0.28655 0.0
C1339 C 0.21705 0.28464 0.28757 0.0
C1340 C 0.23196 0.28128 0.28071 0.0
C1341 C 0.19895 0.30657 0.29703 0.0
C1342 C 0.20401 0.31884 0.3146 0.0
C1343 C 0.18127 0.29755 0.29084 0.0
C1344 C 0.17545 0.28489 0.27218 0.0
C1345 C 0.17577 0.26557 0.26986 0.0
C1346 C 0.1704 0.25374 0.25209 0.0
C1347 C 0.16434 0.26103 0.23666 0.0
C1348 C 0.16365 0.28016 0.23898 0.0
C1349 C 0.16921 0.29209 0.25668 0.0
H1350 H 0.1601 0.25184 0.22294 0.0
H1351 H 0.21296 0.36884 0.39392 0.0
H1352 H 0.93977 0.03201 0.19735 0.0
H1353 H 0.95289 0.02612 0.16787 0.0
H1354 H 0.97882 0.08584 0.17604 0.0
H1355 H 0.96594 0.0917 0.20505 0.0
H1356 H 0.96871 0.07665 0.14089 0.0
H1357 H 1.0003 0.04841 0.18168 0.0
H1358 H 0.00665 0.0275 0.2037 0.0
H1359 H 0.98275 0.97801 0.16115 0.0
H1360 H 0.976 0.99865 0.13893 0.0
H1361 H 0.03332 0.07383 0.07799 0.0
H1362 H 0.01782 0.07508 0.10568 0.0
H1363 H 0.98551 0.01875 0.08311 0.0
H1364 H 1.00108 0.01758 0.05481 0.0
H1365 H 0.99771 0.02438 0.12431 0.0
H1366 H 0.96826 0.05688 0.08312 0.0
H1367 H 0.96758 0.08079 0.06256 0.0
H1368 H 0.9935 0.12575 0.10897 0.0
H1369 H 0.99453 0.10208 0.12974 0.0
C1370 C 0.94825 0.04394 0.19292 0.0
C1371 C 0.95149 0.06244 0.20408 0.0
C1372 C 0.95596 0.04052 0.1759 0.0
C1373 C 0.96718 0.05545 0.1691 0.0
C1374 C 0.9703 0.07383 0.1803 0.0
C1375 C 0.96281 0.07719 0.19725 0.0
C1376 C 0.97539 0.05243 0.15044 0.0
C1377 C 0.97506 0.06516 0.13754 0.0
C1378 C 0.98395 0.03759 0.14526 0.0
C1379 C 0.98735 0.02508 0.15875 0.0
C1380 C 0.99614 0.03306 0.1771 0.0
C1381 C 0.99988 0.02126 0.1896 0.0
C1382 C 0.99503 1.00143 0.18386 0.0
C1383 C 0.98643 0.99337 0.1656 0.0
C1384 C 0.98263 0.00512 0.15305 0.0
C1385 C 0.0227 0.06172 0.07856 0.0
C1386 C 0.01844 0.04577 0.06354 0.0
C1387 C 0.01379 0.06243 0.09471 0.0
C1388 C 1.00019 0.04708 0.09704 0.0
C1389 C 0.99583 0.03096 0.08209 0.0
C1390 C 0.00465 0.03037 0.06559 0.0
C1391 C 0.99068 0.04839 0.11485 0.0
C1392 C 0.99099 0.03555 0.12761 0.0
C1393 C 0.98253 0.06345 0.12026 0.0
C1394 C 0.98153 0.07771 0.10795 0.0
C1395 C 0.97386 0.07187 0.08892 0.0
C1396 C 0.97342 0.08537 0.07723 0.0
C1397 C 0.98051 0.10477 0.08445 0.0
C1398 C 0.98801 0.11072 0.1034 0.0
C1399 C 0.9885 0.09727 0.11514 0.0
H1400 H 0.98018 0.11521 0.07537 0.0
H1401 H 0.99799 0.99232 0.19354 0.0
H1402 H 0.24998 0.62751 0.46249 0.0
H1403 H 0.24124 0.64432 0.43784 0.0
H1404 H 0.28174 0.6946 0.46333 0.0
H1405 H 0.29029 0.67808 0.48818 0.0
H1406 H 0.25197 0.70366 0.45316 0.0
H1407 H 0.28759 0.6646 0.42532 0.0
H1408 H 0.29573 0.63427 0.41599 0.0
H1409 H 0.2467 0.61124 0.38028 0.0
H1410 H 0.23817 0.64138 0.38965 0.0
H1411 H 0.27311 0.75722 0.38379 0.0
H1412 H 0.27167 0.73683 0.40746 0.0
H1413 H 0.23101 0.69362 0.37039 0.0
H1414 H 0.23328 0.71386 0.34591 0.0
H1415 H 0.25467 0.67847 0.38571 0.0
H1416 H 0.2221 0.72225 0.41138 0.0
H1417 H 0.21762 0.75455 0.42022 0.0
H1418 H 0.26454 0.7707 0.45987 0.0
H1419 H 0.26938 0.73855 0.45117 0.0
C1420 C 0.25708 0.6421 0.46273 0.0
C1421 C 0.27097 0.65145 0.47704 0.0
C1422 C 0.25203 0.65168 0.44873 0.0
C1423 C 0.26096 0.67059 0.44876 0.0
C1424 C 0.27467 0.68 0.46316 0.0
C1425 C 0.27962 0.67051 0.47723 0.0
C1426 C 0.2565 0.68053 0.43345 0.0
C1427 C 0.2525 0.69817 0.43839 0.0
C1428 C 0.25694 0.67312 0.41423 0.0
C1429 C 0.26215 0.65513 0.40836 0.0
C1430 C 0.2785 0.65301 0.41559 0.0
C1431 C 0.28319 0.63587 0.41028 0.0
C1432 C 0.27172 0.62081 0.39761 0.0
C1433 C 0.25556 0.6229 0.39014 0.0
C1434 C 0.25079 0.64001 0.39544 0.0
C1435 C 0.2636 0.74354 0.38087 0.0
C1436 C 0.25296 0.7372 0.36338 0.0
C1437 C 0.26274 0.73192 0.39439 0.0
C1438 C 0.25078 0.71401 0.39094 0.0
C1439 C 0.2401 0.70756 0.3734 0.0
C1440 C 0.2413 0.71908 0.35956 0.0
C1441 C 0.25041 0.7018 0.40542 0.0
C1442 C 0.25355 0.68372 0.40037 0.0
C1443 C 0.24947 0.70896 0.42461 0.0
C1444 C 0.24605 0.72796 0.43065 0.0
C1445 C 0.23142 0.73267 0.42204 0.0
C1446 C 0.22885 0.75097 0.42699 0.0
C1447 C 0.24078 0.76466 0.44061 0.0
C1448 C 0.25527 0.76006 0.44938 0.0
C1449 C 0.2579 0.74177 0.44449 0.0
H1450 H 0.23881 0.77885 0.44436 0.0
H1451 H 0.27537 0.60754 0.39352 0.0
H1452 H 0.64407 0.04982 0.69288 0.0
H1453 H 0.62931 0.05898 0.66612 0.0
H1454 H 0.58275 0.01576 0.66852 0.0
H1455 H 0.59763 0.00606 0.69521 0.0
H1456 H 0.59902 0.0102 0.63637 0.0
H1457 H 0.58381 0.06382 0.67539 0.0
H1458 H 0.59092 0.09447 0.69781 0.0
H1459 H 0.62352 0.12102 0.66022 0.0
H1460 H 0.61677 0.09049 0.63766 0.0
H1461 H 0.53449 0.01353 0.56797 0.0
H1462 H 0.55358 0.01523 0.5971 0.0
H1463 H 0.59215 0.06066 0.58207 0.0
H1464 H 0.573 0.05922 0.55304 0.0
H1465 H 0.58583 0.06873 0.61862 0.0
H1466 H 0.60229 0.02011 0.57983 0.0
H1467 H 0.60003 0.99097 0.55644 0.0
H1468 H 0.57124 0.95692 0.59197 0.0
H1469 H 0.57326 0.98585 0.61558 0.0
C1470 C 0.63056 0.04245 0.68796 0.0
C1471 C 0.62208 0.02674 0.69558 0.0
C1472 C 0.62211 0.04797 0.67289 0.0
C1473 C 0.60506 0.038 0.66549 0.0
C1474 C 0.596 0.02354 0.67422 0.0
C1475 C 0.60452 0.01784 0.68919 0.0
C1476 C 0.5983 0.03933 0.64636 0.0
C1477 C 0.59578 0.02288 0.63254 0.0
C1478 C 0.59584 0.05648 0.64123 0.0
C1479 C 0.59992 0.07479 0.65493 0.0
C1480 C 0.59264 0.07613 0.67199 0.0
C1481 C 0.59656 0.09351 0.6847 0.0
C1482 C 0.60771 0.10967 0.68047 0.0
C1483 C 0.61491 0.1085 0.66349 0.0
C1484 C 0.61101 0.09117 0.65073 0.0
C1485 C 0.54704 0.02381 0.57091 0.0
C1486 C 0.55238 0.03621 0.55847 0.0
C1487 C 0.55793 0.02471 0.58738 0.0
C1488 C 0.57423 0.03794 0.59142 0.0
C1489 C 0.5796 0.05036 0.579 0.0
C1490 C 0.5687 0.04946 0.56252 0.0
C1491 C 0.58518 0.03909 0.60914 0.0
C1492 C 0.58902 0.05606 0.62253 0.0
C1493 C 0.58954 0.02264 0.61383 0.0
C1494 C 0.58784 0.00519 0.59944 0.0
C1495 C 0.59532 0.00644 0.58258 0.0
C1496 C 0.59412 0.98995 0.56929 0.0
C1497 C 0.58543 0.97212 0.57267 0.0
C1498 C 0.57795 0.97074 0.58936 0.0
C1499 C 0.57917 0.98717 0.60273 0.0
H1500 H 0.58453 0.95937 0.56237 0.0
H1501 H 0.61073 0.1231 0.69033 0.0
H1502 H 0.29034 0.37733 0.97064 0.0
H1503 H 0.28669 0.36366 0.937 0.0
H1504 H 0.29708 0.31168 0.95108 0.0
H1505 H 0.30209 0.32604 0.98477 0.0
H1506 H 0.31505 0.32018 0.92636 0.0
H1507 H 0.2545 0.31729 0.92913 0.0
H1508 H 0.22823 0.32847 0.93536 0.0
H1509 H 0.24052 0.36943 0.89881 0.0
H1510 H 0.26697 0.35868 0.89253 0.0
H1511 H 0.30014 0.27461 0.82904 0.0
H1512 H 0.29837 0.2833 0.86298 0.0
H1513 H 0.29289 0.33895 0.85461 0.0
H1514 H 0.29362 0.32975 0.82057 0.0
H1515 H 0.27055 0.32579 0.87614 0.0
H1516 H 0.33263 0.3299 0.87628 0.0
H1517 H 0.35757 0.31673 0.86859 0.0
H1518 H 0.34047 0.27146 0.89927 0.0
H1519 H 0.31537 0.28429 0.907 0.0
C1520 C 0.29159 0.36287 0.96654 0.0
C1521 C 0.29662 0.35277 0.98029 0.0
C1522 C 0.28932 0.35495 0.94724 0.0
C1523 C 0.29138 0.33645 0.94128 0.0
C1524 C 0.29551 0.326 0.95517 0.0
C1525 C 0.29834 0.33417 0.97445 0.0
C1526 C 0.2912 0.32886 0.92075 0.0
C1527 C 0.30504 0.3211 0.9155 0.0
C1528 C 0.27848 0.3304 0.90629 0.0
C1529 C 0.26282 0.33727 0.9105 0.0
C1530 C 0.2517 0.32881 0.92258 0.0
C1531 C 0.23675 0.33505 0.92607 0.0
C1532 C 0.23273 0.34967 0.91751 0.0
C1533 C 0.24366 0.35811 0.90545 0.0
C1534 C 0.25862 0.35194 0.9019 0.0
C1535 C 0.29891 0.2888 0.83462 0.0
C1536 C 0.29735 0.30169 0.82245 0.0
C1537 C 0.29787 0.29378 0.85398 0.0
C1538 C 0.29573 0.31192 0.86149 0.0
C1539 C 0.29451 0.32488 0.84923 0.0
C1540 C 0.29514 0.31973 0.82986 0.0
C1541 C 0.29442 0.3174 0.88201 0.0
C1542 C 0.28036 0.32477 0.88717 0.0
C1543 C 0.30682 0.3154 0.89643 0.0
C1544 C 0.32211 0.30798 0.89211 0.0
C1545 C 0.33419 0.31712 0.88133 0.0
C1546 C 0.34834 0.30971 0.87697 0.0
C1547 C 0.35058 0.29325 0.88341 0.0
C1548 C 0.33872 0.2842 0.89429 0.0
C1549 C 0.32455 0.29155 0.8987 0.0
H1550 H 0.36153 0.28752 0.87999 0.0
H1551 H 0.22112 0.35443 0.92019 0.0
H1552 H 0.95894 0.08333 0.3158 0.0
H1553 H 0.97483 0.08445 0.34739 0.0
H1554 H 0.96102 0.023 0.33834 0.0
H1555 H 0.94558 0.02178 0.30737 0.0
H1556 H 0.95531 0.0358 0.37273 0.0
H1557 H 1.00297 0.05107 0.33665 0.0
H1558 H 0.02271 0.06946 0.31792 0.0
H1559 H 0.0355 0.11787 0.36338 0.0
H1560 H 0.01556 0.0999 0.38224 0.0
H1561 H 0.00856 0.01249 0.44589 0.0
H1562 H 0.99557 0.01685 0.41523 0.0
H1563 H 0.01359 0.07788 0.43253 0.0
H1564 H 0.02663 0.07357 0.46339 0.0
H1565 H 0.01726 0.06842 0.39541 0.0
H1566 H 0.9705 0.05451 0.43145 0.0
H1567 H 0.95163 0.03688 0.45146 0.0
H1568 H 0.93727 0.98749 0.40706 0.0
H1569 H 0.95632 0.00473 0.38689 0.0
C1570 C 0.95931 0.07006 0.32051 0.0
C1571 C 0.95074 0.05246 0.30861 0.0
C1572 C 0.96855 0.07069 0.33868 0.0
C1573 C 0.96936 0.05376 0.34568 0.0
C1574 C 0.96078 0.03636 0.33374 0.0
C1575 C 0.95185 0.03572 0.31572 0.0
C1576 C 0.97837 0.05361 0.36542 0.0
C1577 C 0.96892 0.04285 0.37746 0.0
C1578 C 0.99608 0.06318 0.3724 0.0
C1579 C 0.00749 0.07424 0.36072 0.0
C1580 C 0.00974 0.06574 0.34253 0.0
C1581 C 0.02103 0.07607 0.33191 0.0
C1582 C 0.03028 0.09486 0.33941 0.0
C1583 C 0.02826 0.10336 0.35754 0.0
C1584 C 0.01694 0.09311 0.36819 0.0
C1585 C 0.00988 0.0269 0.44327 0.0
C1586 C 0.01871 0.04263 0.45748 0.0
C1587 C 1.00229 0.02941 0.42557 0.0
C1588 C 0.00322 0.04776 0.42122 0.0
C1589 C 0.01248 0.06352 0.4352 0.0
C1590 C 0.01994 0.06101 0.45303 0.0
C1591 C 0.99422 0.05036 0.40241 0.0
C1592 C 0.00362 0.0615 0.39064 0.0
C1593 C 0.97641 0.04133 0.39567 0.0
C1594 C 0.96498 0.03086 0.40774 0.0
C1595 C 0.96344 0.03983 0.42601 0.0
C1596 C 0.9527 0.02992 0.43738 0.0
C1597 C 0.94329 0.01106 0.43055 0.0
C1598 C 0.9446 1.00209 0.41234 0.0
C1599 C 0.95536 0.01193 0.40093 0.0
H1600 H 0.93497 1.00341 0.43937 0.0
H1601 H 0.03906 0.1028 0.33119 0.0
H1602 H 0.2646 0.69666 0.55699 0.0
H1603 H 0.25783 0.71312 0.5865 0.0
H1604 H 0.29714 0.69401 0.6183 0.0
H1605 H 0.30332 0.67678 0.5889 0.0
H1606 H 0.26875 0.69035 0.63502 0.0
H1607 H 0.30406 0.74009 0.60634 0.0
H1608 H 0.30979 0.75854 0.58067 0.0
H1609 H 0.26151 0.77481 0.58437 0.0
H1610 H 0.25543 0.75627 0.60992 0.0
H1611 H 0.30357 0.75273 0.71866 0.0
H1612 H 0.29612 0.73308 0.68716 0.0
H1613 H 0.25931 0.76541 0.67245 0.0
H1614 H 0.26788 0.78614 0.70386 0.0
H1615 H 0.27689 0.76063 0.64536 0.0
H1616 H 0.24645 0.71692 0.68087 0.0
H1617 H 0.24253 0.69928 0.70734 0.0
H1618 H 0.28262 0.67168 0.69181 0.0
H1619 H 0.28697 0.68934 0.66543 0.0
C1620 C 0.2719 0.6962 0.5703 0.0
C1621 C 0.28465 0.68577 0.57081 0.0
C1622 C 0.26796 0.70548 0.5871 0.0
C1623 C 0.27709 0.70489 0.60451 0.0
C1624 C 0.28989 0.69453 0.60498 0.0
C1625 C 0.29354 0.6849 0.58824 0.0
C1626 C 0.27391 0.71554 0.62236 0.0
C1627 C 0.2705 0.70573 0.63738 0.0
C1628 C 0.27544 0.73542 0.62506 0.0
C1629 C 0.27921 0.74665 0.60984 0.0
C1630 C 0.29464 0.74752 0.60158 0.0
C1631 C 0.29795 0.75799 0.58707 0.0
C1632 C 0.286 0.76779 0.58085 0.0
C1633 C 0.27074 0.76719 0.58917 0.0
C1634 C 0.26735 0.75671 0.60366 0.0
C1635 C 0.29397 0.75565 0.7086 0.0
C1636 C 0.28636 0.7709 0.71332 0.0
C1637 C 0.28947 0.74423 0.69076 0.0
C1638 C 0.2767 0.74735 0.67767 0.0
C1639 C 0.26905 0.76266 0.68245 0.0
C1640 C 0.274 0.77453 0.7002 0.0
C1641 C 0.27273 0.73565 0.65848 0.0
C1642 C 0.27459 0.74519 0.64306 0.0
C1643 C 0.26991 0.71551 0.6555 0.0
C1644 C 0.26702 0.70449 0.67113 0.0
C1645 C 0.25445 0.70713 0.68311 0.0
C1646 C 0.25217 0.69712 0.69812 0.0
C1647 C 0.26231 0.68437 0.70124 0.0
C1648 C 0.27474 0.68154 0.68935 0.0
C1649 C 0.27709 0.69151 0.67433 0.0
H1650 H 0.26055 0.67667 0.71289 0.0
H1651 H 0.28858 0.77589 0.56961 0.0
H1652 H 0.60572 0.02356 0.77883 0.0
H1653 H 0.60216 0.03947 0.81018 0.0
H1654 H 0.65793 0.06193 0.82307 0.0
H1655 H 0.66158 0.04513 0.79227 0.0
H1656 H 0.64523 0.05052 0.85253 0.0
H1657 H 0.62999 0.09102 0.81002 0.0
H1658 H 0.61433 0.09683 0.78115 0.0
H1659 H 0.56529 0.0737 0.79952 0.0
H1660 H 0.58062 0.06763 0.82839 0.0
H1661 H 0.61095 0.08097 0.93665 0.0
H1662 H 0.62892 0.08695 0.9111 0.0
H1663 H 0.58302 0.06274 0.86977 0.0
H1664 H 0.56535 0.05794 0.89482 0.0
H1665 H 0.60168 0.0892 0.85723 0.0
H1666 H 0.61506 0.03696 0.88975 0.0
H1667 H 0.62827 0.02581 0.9169 0.0
H1668 H 0.67709 0.06567 0.91625 0.0
H1669 H 0.66408 0.07713 0.88918 0.0
C1670 C 0.61717 0.03163 0.78853 0.0
C1671 C 0.63387 0.03298 0.78334 0.0
C1672 C 0.61516 0.04095 0.80626 0.0
C1673 C 0.62979 0.05238 0.81865 0.0
C1674 C 0.64651 0.05332 0.81364 0.0
C1675 C 0.64855 0.04359 0.79614 0.0
C1676 C 0.62755 0.06289 0.83706 0.0
C1677 C 0.63594 0.05929 0.85361 0.0
C1678 C 0.61568 0.07458 0.83843 0.0
C1679 C 0.60648 0.07897 0.82141 0.0
C1680 C 0.61587 0.08723 0.80791 0.0
C1681 C 0.60705 0.09054 0.79154 0.0
C1682 C 0.58883 0.08566 0.78852 0.0
C1683 C 0.5794 0.07754 0.8019 0.0
C1684 C 0.58815 0.07424 0.81831 0.0
C1685 C 0.6048 0.07752 0.92206 0.0
C1686 C 0.58681 0.06918 0.91761 0.0
C1687 C 0.61502 0.08081 0.90752 0.0
C1688 C 0.60737 0.07513 0.88848 0.0
C1689 C 0.58928 0.06755 0.88429 0.0
C1690 C 0.57912 0.06476 0.89866 0.0
C1691 C 0.61772 0.07485 0.87246 0.0
C1692 C 0.61137 0.08092 0.85624 0.0
C1693 C 0.63092 0.06479 0.87131 0.0
C1694 C 0.63854 0.0581 0.88772 0.0
C1695 C 0.62857 0.04342 0.89551 0.0
C1696 C 0.63602 0.03704 0.91086 0.0
C1697 C 0.65349 0.04509 0.91835 0.0
C1698 C 0.66355 0.05951 0.91049 0.0
C1699 C 0.65614 0.06597 0.89517 0.0
H1700 H 0.65924 0.04012 0.93021 0.0
H1701 H 0.58203 0.08817 0.7758 0.0
H1702 H 0.30256 0.33142 0.06545 0.0
H1703 H 0.30107 0.31983 0.09535 0.0
H1704 H 0.28698 0.37068 0.1206 0.0
H1705 H 0.28938 0.38282 0.09078 0.0
H1706 H 0.30795 0.36299 0.14534 0.0
H1707 H 0.25658 0.32317 0.10543 0.0
H1708 H 0.23976 0.30089 0.07703 0.0
H1709 H 0.26901 0.25994 0.08665 0.0
H1710 H 0.28613 0.28204 0.11498 0.0
H1711 H 0.28664 0.32317 0.22827 0.0
H1712 H 0.28651 0.33782 0.19976 0.0
H1713 H 0.29855 0.28842 0.16802 0.0
H1714 H 0.29733 0.27339 0.19596 0.0
H1715 H 0.27621 0.29662 0.14701 0.0
H1716 H 0.32909 0.33718 0.18535 0.0
H1717 H 0.34566 0.35908 0.21411 0.0
H1718 H 0.31355 0.39807 0.20756 0.0
H1719 H 0.2967 0.37631 0.17886 0.0
C1720 C 0.29912 0.34018 0.07734 0.0
C1721 C 0.29603 0.35806 0.07562 0.0
C1722 C 0.29811 0.33342 0.09449 0.0
C1723 C 0.29345 0.34406 0.11032 0.0
C1724 C 0.29052 0.36205 0.10868 0.0
C1725 C 0.29187 0.36901 0.09158 0.0
C1726 C 0.2921 0.33662 0.12862 0.0
C1727 C 0.30079 0.34853 0.14567 0.0
C1728 C 0.28303 0.31764 0.1293 0.0
C1729 C 0.27273 0.30434 0.11225 0.0
C1730 C 0.2595 0.30947 0.10142 0.0
C1731 C 0.2499 0.29685 0.08535 0.0
C1732 C 0.25334 0.27903 0.08002 0.0
C1733 C 0.26636 0.27375 0.09078 0.0
C1734 C 0.276 0.2863 0.10686 0.0
C1735 C 0.28946 0.31563 0.21522 0.0
C1736 C 0.29209 0.2972 0.21434 0.0
C1737 C 0.28946 0.32402 0.19888 0.0
C1738 C 0.29275 0.31444 0.18152 0.0
C1739 C 0.29585 0.29621 0.181 0.0
C1740 C 0.2953 0.28764 0.19708 0.0
C1741 C 0.29251 0.3228 0.16367 0.0
C1742 C 0.28339 0.31107 0.14669 0.0
C1743 C 0.30125 0.34188 0.16305 0.0
C1744 C 0.31157 0.35507 0.18007 0.0
C1745 C 0.32555 0.3504 0.19009 0.0
C1746 C 0.33498 0.36278 0.20637 0.0
C1747 C 0.33064 0.37993 0.21268 0.0
C1748 C 0.31689 0.38477 0.20267 0.0
C1749 C 0.30741 0.37244 0.18639 0.0
H1750 H 0.33794 0.38949 0.2253 0.0
H1751 H 0.24589 0.26929 0.06758 0.0
H1752 H 0.23074 0.91809 0.00788 0.0
H1753 H 0.20797 0.933 0.01848 0.0
H1754 H 0.24132 0.98875 0.01908 0.0
H1755 H 0.26424 0.97407 0.0086 0.0
H1756 H 0.22308 0.9857 0.05153 0.0
H1757 H 0.21258 0.97313 0.98293 0.0
H1758 H 0.21 0.95182 0.95216 0.0
H1759 H 0.16704 0.91199 0.9673 0.0
H1760 H 0.16948 0.93304 0.99826 0.0
H1761 H 0.16401 0.04346 0.04187 0.0
H1762 H 0.18668 0.02605 0.04074 0.0
H1763 H 0.14769 0.97279 0.03451 0.0
H1764 H 0.12487 0.99018 0.03573 0.0
H1765 H 0.16831 0.9725 0.00717 0.0
H1766 H 0.17669 0.98879 0.07491 0.0
H1767 H 0.18113 0.00981 0.10613 0.0
H1768 H 0.22911 0.04307 0.09319 0.0
H1769 H 0.22487 0.02236 0.0618 0.0
C1770 C 0.2332 0.93351 0.01018 0.0
C1771 C 0.24916 0.94493 0.00725 0.0
C1772 C 0.22027 0.94197 0.01636 0.0
C1773 C 0.22313 0.96188 0.01956 0.0
C1774 C 0.23906 0.97334 0.0168 0.0
C1775 C 0.25199 0.96491 0.01061 0.0
C1776 C 0.209 0.97068 0.02444 0.0
C1777 C 0.2111 0.98299 0.04188 0.0
C1778 C 0.19343 0.96672 0.01186 0.0
C1779 C 0.19122 0.9546 0.99287 0.0
C1780 C 0.20256 0.95983 0.97966 0.0
C1781 C 0.20115 0.9478 0.96221 0.0
C1782 C 0.18837 0.93055 0.95778 0.0
C1783 C 0.17691 0.92537 0.97074 0.0
C1784 C 0.17827 0.93737 0.98822 0.0
C1785 C 0.1603 0.02809 0.04071 0.0
C1786 C 0.14271 0.01813 0.03874 0.0
C1787 C 0.17326 0.01817 0.04012 0.0
C1788 C 0.1688 0.99819 0.03769 0.0
C1789 C 0.15131 0.98824 0.03641 0.0
C1790 C 0.13833 0.99815 0.03698 0.0
C1791 C 0.18224 0.98768 0.03441 0.0
C1792 C 0.18009 0.97508 0.01709 0.0
C1793 C 0.19781 0.99153 0.04711 0.0
C1794 C 0.20039 1.00409 0.06595 0.0
C1795 C 0.18812 1.00068 0.07866 0.0
C1796 C 0.19062 0.01251 0.0964 0.0
C1797 C 0.20538 0.02779 0.10163 0.0
C1798 C 0.21769 0.03123 0.08913 0.0
C1799 C 0.21526 0.01943 0.07137 0.0
H1800 H 0.20729 0.03693 0.11537 0.0
H1801 H 0.18735 0.9212 0.9443 0.0
H1802 H 0.73416 0.62856 0.00896 0.0
H1803 H 0.7055 0.60976 0.01318 0.0
H1804 H 0.68083 0.6452 0.98288 0.0
H1805 H 0.70951 0.66487 0.98009 0.0
H1806 H 0.66339 0.63875 0.009 0.0
H1807 H 0.68412 0.59471 0.96437 0.0
H1808 H 0.7049 0.57625 0.95369 0.0
H1809 H 0.70044 0.54861 0.0021 0.0
H1810 H 0.67977 0.56704 0.01314 0.0
H1811 H 0.57758 0.57488 0.99169 0.0
H1812 H 0.60623 0.59524 0.98912 0.0
H1813 H 0.63114 0.56335 0.02378 0.0
H1814 H 0.60276 0.5428 0.02585 0.0
H1815 H 0.64818 0.56799 0.9957 0.0
H1816 H 0.62688 0.61066 0.03983 0.0
H1817 H 0.60557 0.62828 0.05065 0.0
H1818 H 0.61072 0.658 0.00372 0.0
H1819 H 0.6319 0.64037 0.99248 0.0
C1820 C 0.72259 0.63216 0.003 0.0
C1821 C 0.72413 0.64806 0.99396 0.0
C1822 C 0.7061 0.62132 0.00534 0.0
C1823 C 0.69066 0.62558 0.99797 0.0
C1824 C 0.69232 0.64142 0.98876 0.0
C1825 C 0.70879 0.65261 0.98699 0.0
C1826 C 0.67284 0.61387 1.0 0.0
C1827 C 0.66007 0.62327 0.00579 0.0
C1828 C 0.6683 0.59358 0.99643 0.0
C1829 C 0.68053 0.58235 0.98963 0.0
C1830 C 0.68763 0.58474 0.97275 0.0
C1831 C 0.69938 0.57429 0.96664 0.0
C1832 C 0.70401 0.5613 0.97723 0.0
C1833 C 0.69685 0.55869 0.99392 0.0
C1834 C 0.68511 0.56911 1.00009 0.0
C1835 C 0.58919 0.5723 0.99879 0.0
C1836 C 0.58788 0.55711 0.00885 0.0
C1837 C 0.60561 0.58402 0.99742 0.0
C1838 C 0.62105 0.58101 0.00634 0.0
C1839 C 0.61958 0.56602 0.01665 0.0
C1840 C 0.60327 0.55426 0.01787 0.0
C1841 C 0.63878 0.59286 0.00452 0.0
C1842 C 0.65151 0.58348 0.99882 0.0
C1843 C 0.64325 0.61312 0.00821 0.0
C1844 C 0.63085 0.62407 0.01522 0.0
C1845 C 0.62341 0.62089 0.03177 0.0
C1846 C 0.61136 0.63088 0.03798 0.0
C1847 C 0.60676 0.64421 0.02785 0.0
C1848 C 0.61428 0.64765 0.01154 0.0
C1849 C 0.62632 0.63768 0.00526 0.0
H1850 H 0.59739 0.65189 0.03265 0.0
H1851 H 0.71313 0.55324 0.97249 0.0
H1852 H 0.66516 0.4329 0.27869 0.0
H1853 H 0.68102 0.40818 0.27617 0.0
H1854 H 0.72263 0.44512 0.25557 0.0
H1855 H 0.70641 0.47037 0.25792 0.0
H1856 H 0.71896 0.40827 0.23665 0.0
H1857 H 0.72528 0.43389 0.3031 0.0
H1858 H 0.71508 0.44404 0.33341 0.0
H1859 H 0.68376 0.38716 0.33062 0.0
H1860 H 0.69361 0.37672 0.30015 0.0
H1861 H 0.77996 0.35008 0.25449 0.0
H1862 H 0.76444 0.37545 0.2542 0.0
H1863 H 0.71989 0.33946 0.27122 0.0
H1864 H 0.73522 0.31372 0.27088 0.0
H1865 H 0.72568 0.37615 0.29167 0.0
H1866 H 0.71872 0.34979 0.2266 0.0
H1867 H 0.72688 0.33843 0.19551 0.0
H1868 H 0.75751 0.39484 0.19472 0.0
H1869 H 0.74976 0.4065 0.226 0.0
C1870 C 0.67771 0.43615 0.27363 0.0
C1871 C 0.68418 0.45434 0.26873 0.0
C1872 C 0.68701 0.42165 0.27227 0.0
C1873 C 0.70358 0.42421 0.26599 0.0
C1874 C 0.71006 0.44222 0.26062 0.0
C1875 C 0.70068 0.45694 0.26206 0.0
C1876 C 0.71376 0.40822 0.26543 0.0
C1877 C 0.72065 0.40164 0.24892 0.0
C1878 C 0.71585 0.39843 0.2809 0.0
C1879 C 0.71007 0.40458 0.29929 0.0
C1880 C 0.71614 0.42358 0.30891 0.0
C1881 C 0.71043 0.42938 0.32612 0.0
C1882 C 0.69875 0.41626 0.33392 0.0
C1883 C 0.69279 0.3973 0.32455 0.0
C1884 C 0.69845 0.39143 0.30732 0.0
C1885 C 0.7668 0.34734 0.25808 0.0
C1886 C 0.75912 0.32935 0.26268 0.0
C1887 C 0.75778 0.36209 0.25787 0.0
C1888 C 0.74063 0.35996 0.26266 0.0
C1889 C 0.73298 0.34204 0.26743 0.0
C1890 C 0.74186 0.32706 0.26717 0.0
C1891 C 0.731 0.37632 0.26299 0.0
C1892 C 0.72414 0.3829 0.27945 0.0
C1893 C 0.72884 0.38594 0.24742 0.0
C1894 C 0.73385 0.37898 0.22879 0.0
C1895 C 0.72738 0.35974 0.21993 0.0
C1896 C 0.73189 0.35325 0.20224 0.0
C1897 C 0.74276 0.36589 0.19317 0.0
C1898 C 0.74913 0.38506 0.20179 0.0
C1899 C 0.74468 0.39162 0.2195 0.0
H1900 H 0.74621 0.36085 0.17945 0.0
H1901 H 0.69433 0.42079 0.34724 0.0
H1902 H 0.85855 0.43342 0.53919 0.0
H1903 H 0.88934 0.44935 0.54415 0.0
H1904 H 0.87764 0.49869 0.525 0.0
H1905 H 0.84663 0.48251 0.51937 0.0
H1906 H 0.8977 0.48316 0.50351 0.0
H1907 H 0.89795 0.50096 0.5708 0.0
H1908 H 0.89295 0.49642 0.60326 0.0
H1909 H 0.92501 0.45651 0.60143 0.0
H1910 H 0.92994 0.46051 0.56887 0.0
H1911 H 0.98642 0.52758 0.50617 0.0
H1912 H 0.95563 0.51926 0.51006 0.0
H1913 H 0.9634 0.47187 0.53613 0.0
H1914 H 0.99467 0.48133 0.5336 0.0
H1915 H 0.94529 0.48956 0.55544 0.0
H1916 H 0.94224 0.46705 0.48851 0.0
H1917 H 0.94766 0.46926 0.45566 0.0
H1918 H 0.92074 0.51381 0.45579 0.0
H1919 H 0.91533 0.51203 0.48872 0.0
C1920 C 0.86245 0.44784 0.53643 0.0
C1921 C 0.8503 0.45658 0.5284 0.0
C1922 C 0.88007 0.45702 0.53953 0.0
C1923 C 0.88569 0.47518 0.53496 0.0
C1924 C 0.87343 0.48465 0.5286 0.0
C1925 C 0.85579 0.47537 0.5253 0.0
C1926 C 0.90413 0.48236 0.53311 0.0
C1927 C 0.90814 0.48501 0.51499 0.0
C1928 C 0.91761 0.48376 0.54787 0.0
C1929 C 0.91421 0.48096 0.5673 0.0
C1930 C 0.90377 0.49104 0.57723 0.0
C1931 C 0.90098 0.4886 0.59567 0.0
C1932 C 0.90864 0.47617 0.60439 0.0
C1933 C 0.91907 0.46612 0.59467 0.0
C1934 C 0.92187 0.46848 0.57622 0.0
C1935 C 0.9814 0.5153 0.51257 0.0
C1936 C 0.99251 0.5049 0.51952 0.0
C1937 C 0.96388 0.51048 0.51466 0.0
C1938 C 0.95721 0.49472 0.52301 0.0
C1939 C 0.96836 0.48408 0.52962 0.0
C1940 C 0.98606 0.48935 0.52814 0.0
C1941 C 0.93879 0.49001 0.52581 0.0
C1942 C 0.93482 0.48785 0.54404 0.0
C1943 C 0.92529 0.48848 0.51102 0.0
C1944 C 0.92852 0.48952 0.49116 0.0
C1945 C 0.93758 0.47741 0.48159 0.0
C1946 C 0.94063 0.47857 0.46294 0.0
C1947 C 0.93459 0.4917 0.45366 0.0
C1948 C 0.92543 0.50366 0.46299 0.0
C1949 C 0.92235 0.50257 0.48164 0.0
H1950 H 0.93697 0.49258 0.43923 0.0
H1951 H 0.90651 0.47435 0.6187 0.0
H1952 H 0.4175 0.09674 0.27323 0.0
H1953 H 0.4014 0.11622 0.25808 0.0
H1954 H 0.35445 0.08824 0.27824 0.0
H1955 H 0.37038 0.06804 0.29282 0.0
H1956 H 0.34894 0.09115 0.24093 0.0
H1957 H 0.37666 0.13253 0.30049 0.0
H1958 H 0.40289 0.14677 0.3239 0.0
H1959 H 0.42842 0.17473 0.2822 0.0
H1960 H 0.40236 0.1605 0.25849 0.0
H1961 H 0.29603 0.15481 0.2446 0.0
H1962 H 0.31409 0.13261 0.24742 0.0
H1963 H 0.35543 0.16934 0.22575 0.0
H1964 H 0.33731 0.19194 0.22305 0.0
H1965 H 0.3664 0.16185 0.25888 0.0
H1966 H 0.33485 0.12413 0.20071 0.0
H1967 H 0.30847 0.1083 0.17801 0.0
H1968 H 0.28957 0.07244 0.21735 0.0
H1969 H 0.31573 0.08822 0.2404 0.0
C1970 C 0.40385 0.09506 0.27483 0.0
C1971 C 0.39515 0.08114 0.28437 0.0
C1972 C 0.39466 0.10602 0.266 0.0
C1973 C 0.37682 0.10361 0.26714 0.0
C1974 C 0.36822 0.09013 0.27717 0.0
C1975 C 0.37733 0.07888 0.28569 0.0
C1976 C 0.36723 0.11554 0.25828 0.0
C1977 C 0.35263 0.1066 0.24483 0.0
C1978 C 0.37251 0.13563 0.26312 0.0
C1979 C 0.38759 0.14548 0.27774 0.0
C1980 C 0.38784 0.14182 0.29637 0.0
C1981 C 0.40268 0.14983 0.30966 0.0
C1982 C 0.41731 0.16165 0.30454 0.0
C1983 C 0.41706 0.16561 0.28615 0.0
C1984 C 0.40224 0.15763 0.2728 0.0
C1985 C 0.30866 0.15781 0.23967 0.0
C1986 C 0.31527 0.17503 0.23354 0.0
C1987 C 0.31901 0.14512 0.24132 0.0
C1988 C 0.336 0.14929 0.2366 0.0
C1989 C 0.34229 0.1659 0.22936 0.0
C1990 C 0.33195 0.17872 0.22781 0.0
C1991 C 0.34775 0.13749 0.24166 0.0
C1992 C 0.36282 0.14643 0.25453 0.0
C1993 C 0.34279 0.11738 0.23636 0.0
C1994 C 0.32727 0.10739 0.2223 0.0
C1995 C 0.32505 0.11289 0.20454 0.0
C1996 C 0.31013 0.10394 0.19161 0.0
C1997 C 0.29735 0.08938 0.19624 0.0
C1998 C 0.2995 0.0837 0.21378 0.0
C1999 C 0.3144 0.09261 0.22676 0.0
H2000 H 0.28579 0.08249 0.18623 0.0
H2001 H 0.42884 0.16773 0.31481 0.0
H2002 H 0.31356 0.13031 0.50214 0.0
H2003 H 0.33815 0.11614 0.5083 0.0
H2004 H 0.37411 0.17012 0.50806 0.0
H2005 H 0.34973 0.18417 0.50152 0.0
H2006 H 0.38489 0.14384 0.48856 0.0
H2007 H 0.36724 0.15206 0.54971 0.0
H2008 H 0.34746 0.14972 0.57412 0.0
H2009 H 0.33671 0.08853 0.56151 0.0
H2010 H 0.35626 0.09049 0.53682 0.0
H2011 H 0.45978 0.11312 0.5185 0.0
H2012 H 0.43701 0.13063 0.51936 0.0
H2013 H 0.39801 0.0778 0.51521 0.0
H2014 H 0.42065 0.06028 0.51453 0.0
H2015 H 0.39009 0.10553 0.53895 0.0
H2016 H 0.40789 0.09955 0.47561 0.0
H2017 H 0.42987 0.10425 0.45361 0.0
H2018 H 0.44247 0.16484 0.4736 0.0
H2019 H 0.4207 0.16045 0.49587 0.0
C2020 C 0.3267 0.13916 0.50341 0.0
C2021 C 0.32959 0.15837 0.50119 0.0
C2022 C 0.3408 0.13107 0.50709 0.0
C2023 C 0.35811 0.14206 0.50883 0.0
C2024 C 0.36096 0.16126 0.50675 0.0
C2025 C 0.34693 0.1693 0.503 0.0
C2026 C 0.37326 0.13345 0.51201 0.0
C2027 C 0.38608 0.1357 0.49978 0.0
C2028 C 0.37498 0.12271 0.52657 0.0
C2029 C 0.36306 0.12142 0.54125 0.0
C2030 C 0.36052 0.13809 0.552 0.0
C2031 C 0.34938 0.13684 0.56592 0.0
C2032 C 0.34079 0.11898 0.56932 0.0
C2033 C 0.34335 0.10234 0.55883 0.0
C2034 C 0.35447 0.10352 0.54488 0.0
C2035 C 0.44636 0.10522 0.5178 0.0
C2036 C 0.4421 0.08522 0.51629 0.0
C2037 C 0.43332 0.11527 0.51832 0.0
C2038 C 0.41567 0.10553 0.51699 0.0
C2039 C 0.41148 0.08569 0.51623 0.0
C2040 C 0.4245 0.07566 0.51587 0.0
C2041 C 0.40144 0.1157 0.51531 0.0
C2042 C 0.38884 0.11374 0.52781 0.0
C2043 C 0.40007 0.12702 0.50123 0.0
C2044 C 0.41277 0.12966 0.48746 0.0
C2045 C 0.41538 0.11386 0.47532 0.0
C2046 C 0.4278 0.11647 0.46283 0.0
C2047 C 0.43758 0.13483 0.46223 0.0
C2048 C 0.4349 0.15063 0.47408 0.0
C2049 C 0.42251 0.14809 0.48662 0.0
H2050 H 0.44721 0.13681 0.45257 0.0
H2051 H 0.33218 0.11804 0.58012 0.0
H2052 H 0.70759 0.56401 0.25723 0.0
H2053 H 0.72449 0.59571 0.25378 0.0
H2054 H 0.68982 0.62196 0.28488 0.0
H2055 H 0.67256 0.59049 0.28735 0.0
H2056 H 0.69652 0.6421 0.26097 0.0
H2057 H 0.73753 0.62116 0.30161 0.0
H2058 H 0.75524 0.5993 0.31002 0.0
H2059 H 0.78048 0.60483 0.26026 0.0
H2060 H 0.76279 0.62658 0.25148 0.0
H2061 H 0.75146 0.73932 0.27649 0.0
H2062 H 0.7332 0.70767 0.27826 0.0
H2063 H 0.76808 0.68097 0.24793 0.0
H2064 H 0.7865 0.71235 0.24704 0.0
H2065 H 0.76099 0.66104 0.27133 0.0
H2066 H 0.72057 0.68243 0.23078 0.0
H2067 H 0.7025 0.7037 0.22173 0.0
H2068 H 0.67592 0.69716 0.27045 0.0
H2069 H 0.69396 0.67601 0.2799 0.0
C2070 C 0.70367 0.57652 0.26355 0.0
C2071 C 0.6886 0.57427 0.27279 0.0
C2072 C 0.71349 0.59494 0.26165 0.0
C2073 C 0.70899 0.61201 0.26935 0.0
C2074 C 0.69397 0.60958 0.27864 0.0
C2075 C 0.68403 0.59127 0.2802 0.0
C2076 C 0.71945 0.63223 0.26772 0.0
C2077 C 0.71064 0.64615 0.26351 0.0
C2078 C 0.73801 0.63818 0.27044 0.0
C2079 C 0.74875 0.62533 0.27582 0.0
C2080 C 0.74682 0.61764 0.29245 0.0
C2081 C 0.75685 0.60528 0.29727 0.0
C2082 C 0.76894 0.60064 0.28566 0.0
C2083 C 0.77109 0.60841 0.26923 0.0
C2084 C 0.76108 0.62077 0.26433 0.0
C2085 C 0.75503 0.72673 0.2698 0.0
C2086 C 0.77051 0.72876 0.2613 0.0
C2087 C 0.74447 0.70834 0.27082 0.0
C2088 C 0.74876 0.69116 0.26304 0.0
C2089 C 0.76409 0.69343 0.25427 0.0
C2090 C 0.7747 0.71166 0.25359 0.0
C2091 C 0.73809 0.67097 0.2645 0.0
C2092 C 0.74687 0.65704 0.26874 0.0
C2093 C 0.7195 0.66503 0.26175 0.0
C2094 C 0.70876 0.67783 0.25616 0.0
C2095 C 0.71096 0.68565 0.23963 0.0
C2096 C 0.70071 0.69766 0.23442 0.0
C2097 C 0.68811 0.70184 0.24554 0.0
C2098 C 0.68571 0.69396 0.26188 0.0
C2099 C 0.69594 0.68195 0.26716 0.0
H2100 H 0.68019 0.71113 0.24148 0.0
H2101 H 0.77668 0.59105 0.28941 0.0
H2102 H 0.90503 0.473 0.77383 0.0
H2103 H 0.89052 0.43972 0.77016 0.0
H2104 H 0.86154 0.44262 0.71734 0.0
H2105 H 0.87578 0.47679 0.72158 0.0
H2106 H 0.84137 0.43649 0.74334 0.0
H2107 H 0.88648 0.40821 0.72179 0.0
H2108 H 0.91631 0.40396 0.72139 0.0
H2109 H 0.91708 0.39226 0.77804 0.0
H2110 H 0.8874 0.39673 0.77892 0.0
H2111 H 0.79269 0.34205 0.73733 0.0
H2112 H 0.8091 0.37394 0.73523 0.0
H2113 H 0.83753 0.37919 0.79068 0.0
H2114 H 0.8211 0.34708 0.79283 0.0
H2115 H 0.85762 0.37936 0.76089 0.0
H2116 H 0.81646 0.41132 0.78528 0.0
H2117 H 0.78685 0.41535 0.78826 0.0
H2118 H 0.77986 0.42089 0.72973 0.0
H2119 H 0.80939 0.41667 0.72634 0.0
C2120 C 0.89599 0.46645 0.76112 0.0
C2121 C 0.89104 0.47738 0.74823 0.0
C2122 C 0.88794 0.44725 0.75881 0.0
C2123 C 0.87493 0.43873 0.74348 0.0
C2124 C 0.87159 0.44908 0.72927 0.0
C2125 C 0.87959 0.46851 0.73172 0.0
C2126 C 0.86191 0.4217 0.74558 0.0
C2127 C 0.84486 0.42374 0.7466 0.0
C2128 C 0.86676 0.40565 0.75096 0.0
C2129 C 0.88466 0.40285 0.7504 0.0
C2130 C 0.89303 0.40484 0.7342 0.0
C2131 C 0.90993 0.40238 0.7339 0.0
C2132 C 0.91858 0.39784 0.74968 0.0
C2133 C 0.91036 0.39574 0.76581 0.0
C2134 C 0.89348 0.3982 0.7662 0.0
C2135 C 0.80197 0.35035 0.74935 0.0
C2136 C 0.80608 0.34227 0.76502 0.0
C2137 C 0.81122 0.36851 0.7482 0.0
C2138 C 0.82455 0.37855 0.76273 0.0
C2139 C 0.82725 0.37139 0.77939 0.0
C2140 C 0.81786 0.35321 0.78062 0.0
C2141 C 0.83749 0.3945 0.75873 0.0
C2142 C 0.85432 0.39212 0.75737 0.0
C2143 C 0.83264 0.41043 0.75343 0.0
C2144 C 0.81511 0.41363 0.75554 0.0
C2145 C 0.80859 0.41335 0.77303 0.0
C2146 C 0.79182 0.41567 0.7748 0.0
C2147 C 0.78148 0.41836 0.75919 0.0
C2148 C 0.78791 0.41883 0.74181 0.0
C2149 C 0.80467 0.41653 0.73997 0.0
H2150 H 0.76848 0.4201 0.76057 0.0
H2151 H 0.93166 0.39595 0.7494 0.0
H2152 H 0.04693 0.83986 0.0856 0.0
H2153 H 0.03885 0.86456 0.06959 0.0
H2154 H 0.09312 0.89326 0.07328 0.0
H2155 H 0.1013 0.86862 0.08891 0.0
H2156 H 0.07243 0.91722 0.08733 0.0
H2157 H 0.07151 0.87037 0.03181 0.0
H2158 H 0.06192 0.83936 0.01 0.0
H2159 H 0.00941 0.84552 0.00396 0.0
H2160 H 0.01864 0.87645 0.02599 0.0
H2161 H 0.07368 0.99034 0.03494 0.0
H2162 H 0.07803 0.96158 0.0458 0.0
H2163 H 0.02322 0.93464 0.03046 0.0
H2164 H 0.01881 0.96331 0.01912 0.0
H2165 H 0.04134 0.90871 0.02244 0.0
H2166 H 0.04027 0.95365 0.07709 0.0
H2167 H 0.04807 0.98488 0.0986 0.0
H2168 H 0.10141 0.98178 0.10707 0.0
H2169 H 0.09396 0.95062 0.08541 0.0
C2170 C 0.05716 0.85135 0.08289 0.0
C2171 C 0.07481 0.85222 0.08871 0.0
C2172 C 0.05251 0.86544 0.07362 0.0
C2173 C 0.06536 0.88083 0.07015 0.0
C2174 C 0.08293 0.88157 0.07575 0.0
C2175 C 0.0876 0.86741 0.08473 0.0
C2176 C 0.06071 0.89693 0.06193 0.0
C2177 C 0.0658 0.91533 0.07305 0.0
C2178 C 0.05138 0.89449 0.04356 0.0
C2179 C 0.04573 0.87559 0.03082 0.0
C2180 C 0.05787 0.86498 0.02608 0.0
C2181 C 0.05251 0.84745 0.0136 0.0
C2182 C 0.03505 0.84043 0.00566 0.0
C2183 C 0.02292 0.85094 0.01017 0.0
C2184 C 0.02821 0.86847 0.02266 0.0
C2185 C 0.06252 0.9783 0.03376 0.0
C2186 C 0.04585 0.97933 0.02629 0.0
C2187 C 0.06502 0.96181 0.04007 0.0
C2188 C 0.05091 0.94593 0.03937 0.0
C2189 C 0.03435 0.94664 0.03129 0.0
C2190 C 0.03183 0.96313 0.02485 0.0
C2191 C 0.05348 0.92903 0.04773 0.0
C2192 C 0.04791 0.91055 0.03674 0.0
C2193 C 0.06204 0.93124 0.06639 0.0
C2194 C 0.06658 0.94988 0.07954 0.0
C2195 C 0.05368 0.95969 0.08346 0.0
C2196 C 0.05804 0.97736 0.09568 0.0
C2197 C 0.07523 0.98532 0.10417 0.0
C2198 C 0.0881 0.9756 0.10048 0.0
C2199 C 0.08382 0.95792 0.08825 0.0
H2200 H 0.07858 0.99901 0.11363 0.0
H2201 H 0.03095 0.82689 0.99596 0.0
H2202 H 0.97072 0.26594 0.8534 0.0
H2203 H 0.9456 0.2697 0.83315 0.0
H2204 H 0.91627 0.26982 0.88057 0.0
H2205 H 0.94116 0.26597 0.90073 0.0
H2206 H 0.89577 0.249 0.84993 0.0
H2207 H 0.9343 0.31138 0.8649 0.0
H2208 H 0.96192 0.33581 0.86722 0.0
H2209 H 0.96061 0.32361 0.80676 0.0
H2210 H 0.93309 0.29889 0.8041 0.0
H2211 H 0.82635 0.2823 0.805 0.0
H2212 H 0.85049 0.27917 0.82724 0.0
H2213 H 0.88341 0.28144 0.78291 0.0
H2214 H 0.85964 0.2849 0.76107 0.0
H2215 H 0.90182 0.30177 0.81343 0.0
H2216 H 0.86278 0.23841 0.79915 0.0
H2217 H 0.83511 0.21429 0.79798 0.0
H2218 H 0.83724 0.22906 0.85836 0.0
H2219 H 0.86478 0.25343 0.85987 0.0
C2220 C 0.95889 0.26663 0.85949 0.0
C2221 C 0.95809 0.26565 0.87879 0.0
C2222 C 0.94452 0.26892 0.8479 0.0
C2223 C 0.92893 0.27027 0.85527 0.0
C2224 C 0.92803 0.26885 0.87441 0.0
C2225 C 0.94238 0.26668 0.88599 0.0
C2226 C 0.91361 0.27327 0.84322 0.0
C2227 C 0.8971 0.26068 0.84212 0.0
C2228 C 0.91515 0.28837 0.83278 0.0
C2229 C 0.93174 0.30313 0.83432 0.0
C2230 C 0.93999 0.31378 0.85211 0.0
C2231 C 0.9556 0.32771 0.85348 0.0
C2232 C 0.96304 0.33123 0.83715 0.0
C2233 C 0.95485 0.32085 0.8194 0.0
C2234 C 0.93924 0.30688 0.81795 0.0
C2235 C 0.83872 0.28224 0.80006 0.0
C2236 C 0.84088 0.28382 0.78115 0.0
C2237 C 0.85258 0.28029 0.81277 0.0
C2238 C 0.86894 0.27979 0.80684 0.0
C2239 C 0.87109 0.28176 0.78805 0.0
C2240 C 0.85735 0.28371 0.77548 0.0
C2241 C 0.88395 0.27731 0.81986 0.0
C2242 C 0.90045 0.29005 0.82119 0.0
C2243 C 0.88236 0.2624 0.83058 0.0
C2244 C 0.86572 0.2479 0.82959 0.0
C2245 C 0.85726 0.23663 0.81215 0.0
C2246 C 0.84162 0.2229 0.81143 0.0
C2247 C 0.83441 0.22022 0.82808 0.0
C2248 C 0.84283 0.2312 0.84548 0.0
C2249 C 0.85844 0.24497 0.84627 0.0
H2250 H 0.82233 0.20962 0.82755 0.0
H2251 H 0.97512 0.34203 0.83824 0.0
H2252 H 0.5365 0.25033 0.55997 0.0
H2253 H 0.53487 0.21689 0.54675 0.0
H2254 H 0.58395 0.22095 0.58001 0.0
H2255 H 0.58554 0.25421 0.59351 0.0
H2256 H 0.58115 0.20283 0.54153 0.0
H2257 H 0.54928 0.2002 0.59501 0.0
H2258 H 0.52671 0.20611 0.61476 0.0
H2259 H 0.48668 0.17606 0.56897 0.0
H2260 H 0.50903 0.17029 0.5488 0.0
H2261 H 0.57857 0.10377 0.53415 0.0
H2262 H 0.58121 0.13784 0.54479 0.0
H2263 H 0.52853 0.13117 0.51887 0.0
H2264 H 0.52566 0.09716 0.50852 0.0
H2265 H 0.53326 0.1509 0.55336 0.0
H2266 H 0.56421 0.15336 0.49962 0.0
H2267 H 0.58625 0.14674 0.4794 0.0
H2268 H 0.62714 0.17653 0.52442 0.0
H2269 H 0.60532 0.18308 0.54503 0.0
C2270 C 0.54702 0.24415 0.56433 0.0
C2271 C 0.56116 0.25491 0.57777 0.0
C2272 C 0.54602 0.22503 0.55684 0.0
C2273 C 0.55925 0.21645 0.56249 0.0
C2274 C 0.57361 0.22731 0.57548 0.0
C2275 C 0.57447 0.2463 0.5832 0.0
C2276 C 0.55805 0.19606 0.55507 0.0
C2277 C 0.57078 0.19144 0.54425 0.0
C2278 C 0.5443 0.18126 0.5583 0.0
C2279 C 0.53085 0.18508 0.57029 0.0
C2280 C 0.53568 0.19509 0.58905 0.0
C2281 C 0.52292 0.19836 0.60035 0.0
C2282 C 0.50528 0.19154 0.5931 0.0
C2283 C 0.50036 0.1814 0.57455 0.0
C2284 C 0.51306 0.17814 0.56317 0.0
C2285 C 0.56762 0.1096 0.53052 0.0
C2286 C 0.55191 0.09772 0.52049 0.0
C2287 C 0.56916 0.1291 0.53659 0.0
C2288 C 0.5551 0.13711 0.53253 0.0
C2289 C 0.53954 0.12532 0.52221 0.0
C2290 C 0.53795 0.10586 0.51625 0.0
C2291 C 0.55628 0.1576 0.53965 0.0
C2292 C 0.54358 0.16226 0.5505 0.0
C2293 C 0.56996 0.17242 0.53629 0.0
C2294 C 0.58312 0.16855 0.52393 0.0
C2295 C 0.5779 0.15837 0.50527 0.0
C2296 C 0.59035 0.15465 0.49372 0.0
C2297 C 0.60808 0.16117 0.50063 0.0
C2298 C 0.6134 0.17146 0.51909 0.0
C2299 C 0.60099 0.17519 0.53071 0.0
H2300 H 0.61771 0.15829 0.49167 0.0
H2301 H 0.49542 0.19404 0.60189 0.0
H2302 H 0.54961 0.78369 0.36396 0.0
H2303 H 0.57615 0.79215 0.34916 0.0
H2304 H 0.60432 0.77108 0.39181 0.0
H2305 H 0.57808 0.76346 0.4071 0.0
H2306 H 0.62463 0.80175 0.38522 0.0
H2307 H 0.58782 0.74502 0.34391 0.0
H2308 H 0.56075 0.72632 0.32359 0.0
H2309 H 0.56558 0.76865 0.28789 0.0
H2310 H 0.59257 0.78769 0.30812 0.0
H2311 H 0.69526 0.78407 0.33682 0.0
H2312 H 0.67003 0.78375 0.35379 0.0
H2313 H 0.64565 0.80626 0.3095 0.0
H2314 H 0.67042 0.80574 0.29202 0.0
H2315 H 0.62338 0.77762 0.31676 0.0
H2316 H 0.66159 0.83287 0.35565 0.0
H2317 H 0.68835 0.85243 0.37586 0.0
H2318 H 0.68119 0.81445 0.41594 0.0
H2319 H 0.6545 0.79449 0.39584 0.0
C2320 C 0.56144 0.78079 0.37013 0.0
C2321 C 0.56162 0.77269 0.38662 0.0
C2322 C 0.57666 0.7856 0.36163 0.0
C2323 C 0.59233 0.78196 0.36909 0.0
C2324 C 0.59251 0.77407 0.38568 0.0
C2325 C 0.57741 0.76958 0.39437 0.0
C2326 C 0.60842 0.78592 0.3595 0.0
C2327 C 0.62438 0.79629 0.37029 0.0
C2328 C 0.60817 0.7794 0.33987 0.0
C2329 C 0.5921 0.76783 0.3276 0.0
C2330 C 0.58305 0.75036 0.33177 0.0
C2331 C 0.56773 0.73971 0.32027 0.0
C2332 C 0.56143 0.74631 0.30449 0.0
C2333 C 0.57046 0.76356 0.30013 0.0
C2334 C 0.58578 0.77427 0.31159 0.0
C2335 C 0.68455 0.78898 0.33065 0.0
C2336 C 0.68493 0.79478 0.31288 0.0
C2337 C 0.67017 0.78903 0.34054 0.0
C2338 C 0.65585 0.79509 0.33305 0.0
C2339 C 0.65647 0.80151 0.31565 0.0
C2340 C 0.67079 0.80137 0.30571 0.0
C2341 C 0.63969 0.79325 0.34249 0.0
C2342 C 0.62369 0.78323 0.33168 0.0
C2343 C 0.63995 0.80019 0.36206 0.0
C2344 C 0.65611 0.81206 0.37412 0.0
C2345 C 0.6658 0.82857 0.36868 0.0
C2346 C 0.68094 0.83976 0.38014 0.0
C2347 C 0.68649 0.83466 0.39715 0.0
C2348 C 0.67689 0.81837 0.40275 0.0
C2349 C 0.66174 0.80712 0.39133 0.0
H2350 H 0.6982 0.84335 0.40602 0.0
H2351 H 0.54956 0.73806 0.29561 0.0
H2352 H 0.05204 0.26361 0.39213 0.0
H2353 H 0.03974 0.23575 0.40598 0.0
H2354 H 0.0865 0.24822 0.44595 0.0
H2355 H 0.09879 0.27641 0.43248 0.0
H2356 H 0.07276 0.2084 0.42019 0.0
H2357 H 0.05633 0.2581 0.46388 0.0
H2358 H 0.04124 0.28386 0.47022 0.0
H2359 H 0.99259 0.24513 0.44446 0.0
H2360 H 0.00747 0.2192 0.43772 0.0
H2361 H 0.06685 0.15517 0.49054 0.0
H2362 H 0.07029 0.18047 0.47182 0.0
H2363 H 0.01463 0.16618 0.45506 0.0
H2364 H 0.0111 0.14087 0.47433 0.0
H2365 H 0.02738 0.20396 0.46336 0.0
H2366 H 0.04029 0.15377 0.42269 0.0
H2367 H 0.05293 0.12669 0.41255 0.0
H2368 H 0.10448 0.16361 0.4272 0.0
H2369 H 0.09216 0.19089 0.43759 0.0
C2370 C 0.05967 0.26045 0.40393 0.0
C2371 C 0.0764 0.27202 0.41123 0.0
C2372 C 0.05259 0.24465 0.41183 0.0
C2373 C 0.06227 0.24015 0.4269 0.0
C2374 C 0.07891 0.25169 0.43431 0.0
C2375 C 0.08588 0.2677 0.42665 0.0
C2376 C 0.0555 0.22276 0.43435 0.0
C2377 C 0.06293 0.20739 0.42973 0.0
C2378 C 0.04194 0.22125 0.44578 0.0
C2379 C 0.03304 0.23679 0.45009 0.0
C2380 C 0.04245 0.25513 0.45941 0.0
C2381 C 0.03392 0.26975 0.46311 0.0
C2382 C 0.01598 0.26615 0.45769 0.0
C2383 C 0.0065 0.2479 0.44862 0.0
C2384 C 0.01496 0.23324 0.44487 0.0
C2385 C 0.05537 0.15735 0.48276 0.0
C2386 C 0.03875 0.146 0.4836 0.0
C2387 C 0.05733 0.17174 0.47206 0.0
C2388 C 0.04274 0.17483 0.4617 0.0
C2389 C 0.02603 0.16384 0.46285 0.0
C2390 C 0.02403 0.14948 0.4738 0.0
C2391 C 0.04533 0.18984 0.45001 0.0
C2392 C 0.03703 0.20474 0.45361 0.0
C2393 C 0.05774 0.19072 0.4371 0.0
C2394 C 0.06529 0.17436 0.431 0.0
C2395 C 0.05433 0.15609 0.42387 0.0
C2396 C 0.06143 0.14071 0.41805 0.0
C2397 C 0.0795 0.14342 0.41926 0.0
C2398 C 0.09049 0.16153 0.42627 0.0
C2399 C 0.08345 0.17697 0.43208 0.0
H2400 H 0.08498 0.1315 0.41475 0.0
H2401 H 0.0094 0.27749 0.46055 0.0
H2402 H 0.53646 0.22129 0.18312 0.0
H2403 H 0.56628 0.22849 0.19916 0.0
H2404 H 0.57434 0.28706 0.19146 0.0
H2405 H 0.54464 0.28003 0.17528 0.0
H2406 H 0.60135 0.27062 0.18187 0.0
H2407 H 0.5683 0.27812 0.23377 0.0
H2408 H 0.54407 0.2682 0.25198 0.0
H2409 H 0.562 0.21872 0.26057 0.0
H2410 H 0.5862 0.22819 0.24217 0.0
H2411 H 0.68373 0.29019 0.2401 0.0
H2412 H 0.65472 0.29352 0.22888 0.0
H2413 H 0.63247 0.23496 0.23341 0.0
H2414 H 0.6612 0.23147 0.24435 0.0
H2415 H 0.61303 0.25816 0.24705 0.0
H2416 H 0.64222 0.24675 0.19173 0.0
H2417 H 0.66546 0.25387 0.17158 0.0
H2418 H 0.65422 0.30794 0.16784 0.0
H2419 H 0.63107 0.30125 0.18823 0.0
C2420 C 0.54455 0.2357 0.18491 0.0
C2421 C 0.53822 0.25012 0.17809 0.0
C2422 C 0.56152 0.23979 0.19407 0.0
C2423 C 0.57229 0.25834 0.1966 0.0
C2424 C 0.5661 0.2727 0.18964 0.0
C2425 C 0.54915 0.26865 0.18049 0.0
C2426 C 0.5901 0.26261 0.20643 0.0
C2427 C 0.60399 0.26833 0.19628 0.0
C2428 C 0.59333 0.25934 0.22509 0.0
C2429 C 0.57902 0.25384 0.23653 0.0
C2430 C 0.56703 0.26508 0.23948 0.0
C2431 C 0.5533 0.25954 0.24983 0.0
C2432 C 0.55149 0.24283 0.25741 0.0
C2433 C 0.56343 0.23166 0.2547 0.0
C2434 C 0.57717 0.23713 0.24434 0.0
C2435 C 0.6726 0.27808 0.23873 0.0
C2436 C 0.67464 0.26057 0.24307 0.0
C2437 C 0.65611 0.28002 0.2324 0.0
C2438 C 0.64159 0.26445 0.2303 0.0
C2439 C 0.64357 0.24716 0.23512 0.0
C2440 C 0.65996 0.24522 0.24141 0.0
C2441 C 0.62429 0.26555 0.22229 0.0
C2442 C 0.61045 0.26092 0.23282 0.0
C2443 C 0.62112 0.26956 0.20388 0.0
C2444 C 0.63511 0.27363 0.19174 0.0
C2445 C 0.64484 0.26025 0.18678 0.0
C2446 C 0.65796 0.26418 0.17528 0.0
C2447 C 0.66137 0.28138 0.1685 0.0
C2448 C 0.65161 0.29465 0.17316 0.0
C2449 C 0.63849 0.2908 0.18469 0.0
H2450 H 0.67152 0.28439 0.15958 0.0
H2451 H 0.54083 0.23855 0.26541 0.0
H2452 H 0.54527 0.85187 0.9058 0.0
H2453 H 0.54607 0.88265 0.92501 0.0
H2454 H 0.60196 0.89957 0.92689 0.0
H2455 H 0.60136 0.8687 0.90777 0.0
H2456 H 0.58945 0.90708 0.96227 0.0
H2457 H 0.57885 0.91726 0.89779 0.0
H2458 H 0.56325 0.90829 0.86521 0.0
H2459 H 0.5152 0.91155 0.8866 0.0
H2460 H 0.53048 0.92034 0.91932 0.0
H2461 H 0.59038 1.00011 0.00704 0.0
H2462 H 0.59593 0.97458 0.98395 0.0
H2463 H 0.54052 0.95293 0.96635 0.0
H2464 H 0.53506 0.97889 0.98863 0.0
H2465 H 0.55659 0.94997 0.93705 0.0
H2466 H 0.56309 0.93407 0.99933 0.0
H2467 H 0.57522 0.93973 0.03309 0.0
H2468 H 0.62662 0.94365 0.01764 0.0
H2469 H 0.61479 0.93822 0.98377 0.0
C2470 C 0.55774 0.86211 0.91031 0.0
C2471 C 0.57324 0.85799 0.90521 0.0
C2472 C 0.55816 0.87966 0.92121 0.0
C2473 C 0.57405 0.8933 0.92701 0.0
C2474 C 0.5896 0.88913 0.92236 0.0
C2475 C 0.58921 0.87156 0.91144 0.0
C2476 C 0.57429 0.91196 0.938 0.0
C2477 C 0.58261 0.91672 0.9567 0.0
C2478 C 0.5649 0.92405 0.93071 0.0
C2479 C 0.55581 0.91941 0.91099 0.0
C2480 C 0.56495 0.91603 0.89554 0.0
C2481 C 0.55616 0.91097 0.87705 0.0
C2482 C 0.53824 0.90934 0.87384 0.0
C2483 C 0.52908 0.91285 0.8891 0.0
C2484 C 0.53781 0.91791 0.90762 0.0
C2485 C 0.57947 0.98993 0.99809 0.0
C2486 C 0.56233 0.99113 0.99963 0.0
C2487 C 0.58262 0.97542 0.98498 0.0
C2488 C 0.5686 0.96174 0.97374 0.0
C2489 C 0.5515 0.96338 0.9749 0.0
C2490 C 0.54839 0.97809 0.98768 0.0
C2491 C 0.5715 0.94503 0.96152 0.0
C2492 C 0.56376 0.94059 0.94256 0.0
C2493 C 0.58098 0.93292 0.96875 0.0
C2494 C 0.5881 0.93595 0.98906 0.0
C2495 C 0.57699 0.93625 0.00315 0.0
C2496 C 0.58381 0.9394 0.02229 0.0
C2497 C 0.60169 0.9421 0.02751 0.0
C2498 C 0.61278 0.94159 0.01358 0.0
C2499 C 0.60603 0.93845 0.99441 0.0
H2500 H 0.60695 0.94456 0.04234 0.0
H2501 H 0.53145 0.90538 0.85952 0.0
H2502 H 0.95885 0.74055 0.69028 0.0
H2503 H 0.93885 0.74604 0.7131 0.0
H2504 H 0.90486 0.75887 0.66939 0.0
H2505 H 0.92473 0.75319 0.64632 0.0
H2506 H 0.91926 0.78844 0.70365 0.0
H2507 H 0.89146 0.72059 0.68375 0.0
H2508 H 0.88952 0.68606 0.67957 0.0
H2509 H 0.90393 0.69113 0.73944 0.0
H2510 H 0.90637 0.72578 0.74392 0.0
H2511 H 0.84188 0.79865 0.73294 0.0
H2512 H 0.867 0.79199 0.71922 0.0
H2513 H 0.87911 0.76454 0.76607 0.0
H2514 H 0.85262 0.76973 0.77887 0.0
H2515 H 0.88112 0.74366 0.73629 0.0
H2516 H 0.90593 0.80984 0.75795 0.0
H2517 H 0.90707 0.84423 0.76376 0.0
H2518 H 0.89965 0.84334 0.70378 0.0
H2519 H 0.89825 0.80891 0.69759 0.0
C2520 C 0.94694 0.74419 0.68545 0.0
C2521 C 0.94334 0.74667 0.66664 0.0
C2522 C 0.93555 0.74721 0.69846 0.0
C2523 C 0.92056 0.75285 0.69279 0.0
C2524 C 0.91647 0.75445 0.67384 0.0
C2525 C 0.92774 0.75118 0.66073 0.0
C2526 C 0.91017 0.75922 0.70701 0.0
C2527 C 0.91081 0.77873 0.7108 0.0
C2528 C 0.90014 0.74656 0.71703 0.0
C2529 C 0.89943 0.72587 0.71411 0.0
C2530 C 0.89456 0.71443 0.69597 0.0
C2531 C 0.89329 0.6948 0.69356 0.0
C2532 C 0.89669 0.68642 0.70921 0.0
C2533 C 0.90139 0.69765 0.72731 0.0
C2534 C 0.90275 0.71728 0.72978 0.0
C2535 C 0.85011 0.79145 0.74039 0.0
C2536 C 0.84566 0.78472 0.75686 0.0
C2537 C 0.86459 0.78788 0.73273 0.0
C2538 C 0.87532 0.77834 0.74196 0.0
C2539 C 0.8711 0.77211 0.75885 0.0
C2540 C 0.8561 0.77503 0.76614 0.0
C2541 C 0.88953 0.77293 0.73249 0.0
C2542 C 0.88985 0.75361 0.72965 0.0
C2543 C 0.90078 0.78587 0.72366 0.0
C2544 C 0.90201 0.80674 0.72732 0.0
C2545 C 0.90452 0.81696 0.746 0.0
C2546 C 0.90519 0.83647 0.74935 0.0
C2547 C 0.90344 0.84596 0.73415 0.0
C2548 C 0.90106 0.83598 0.71555 0.0
C2549 C 0.90038 0.81647 0.71211 0.0
H2550 H 0.90394 0.86106 0.73678 0.0
H2551 H 0.8956 0.67121 0.70733 0.0
H2552 H 0.1247 0.04807 0.8252 0.0
H2553 H 0.10979 0.04646 0.85312 0.0
H2554 H 0.11615 0.98972 0.85363 0.0
H2555 H 0.13129 0.99123 0.82515 0.0
H2556 H 0.08277 0.99282 0.86342 0.0
H2557 H 0.14205 0.02958 0.88603 0.0
H2558 H 0.16779 0.0557 0.8854 0.0
H2559 H 0.1375 0.09682 0.89633 0.0
H2560 H 0.11154 0.07091 0.89682 0.0
H2561 H 0.05374 0.99022 0.95444 0.0
H2562 H 0.06955 0.98899 0.92695 0.0
H2563 H 0.08117 0.05039 0.93396 0.0
H2564 H 0.06646 0.05151 0.96255 0.0
H2565 H 0.10574 0.04403 0.91963 0.0
H2566 H 0.0469 0.011 0.89612 0.0
H2567 H 0.01882 0.98713 0.89321 0.0
H2568 H 0.04433 0.94184 0.88063 0.0
H2569 H 0.0726 0.96545 0.88366 0.0
C2570 C 0.12307 0.0351 0.83105 0.0
C2571 C 0.12964 0.01986 0.82246 0.0
C2572 C 0.11442 0.03424 0.84737 0.0
C2573 C 0.11178 0.0181 0.85626 0.0
C2574 C 0.11787 1.00253 0.84749 0.0
C2575 C 0.12669 1.00342 0.83105 0.0
C2576 C 0.10317 0.01802 0.87471 0.0
C2577 C 0.08804 1.00386 0.8758 0.0
C2578 C 0.10916 0.03274 0.89101 0.0
C2579 C 0.12487 0.04832 0.89139 0.0
C2580 C 0.1409 0.0442 0.88828 0.0
C2581 C 0.15551 0.05896 0.88793 0.0
C2582 C 0.15427 0.07791 0.8908 0.0
C2583 C 0.13844 0.08214 0.89412 0.0
C2584 C 0.12379 0.06743 0.89447 0.0
C2585 C 0.06008 1.00356 0.95049 0.0
C2586 C 0.05909 0.02099 0.96143 0.0
C2587 C 0.06888 1.00285 0.93418 0.0
C2588 C 0.07645 0.01952 0.92719 0.0
C2589 C 0.07571 0.03705 0.93841 0.0
C2590 C 0.0673 0.03777 0.95512 0.0
C2591 C 0.08515 0.01874 0.90864 0.0
C2592 C 0.10035 0.03283 0.90743 0.0
C2593 C 0.07884 0.00425 0.89202 0.0
C2594 C 0.0619 0.99 0.89035 0.0
C2595 C 0.04654 0.99595 0.89287 0.0
C2596 C 0.03059 0.98247 0.89117 0.0
C2597 C 0.02981 0.96298 0.8868 0.0
C2598 C 0.04497 0.95694 0.88406 0.0
C2599 C 0.06096 0.97037 0.88576 0.0
H2600 H 0.01745 0.95257 0.88548 0.0
H2601 H 0.16559 0.08931 0.89047 0.0
H2602 H 0.80891 0.42367 0.55638 0.0
H2603 H 0.82276 0.41334 0.58306 0.0
H2604 H 0.80576 0.35486 0.55389 0.0
H2605 H 0.79228 0.36509 0.52651 0.0
H2606 H 0.79752 0.36963 0.59563 0.0
H2607 H 0.84226 0.36747 0.55331 0.0
H2608 H 0.86376 0.382 0.53387 0.0
H2609 H 0.89038 0.42384 0.58248 0.0
H2610 H 0.86885 0.40972 0.60214 0.0
H2611 H 0.83017 0.30653 0.63549 0.0
H2612 H 0.83049 0.32668 0.61182 0.0
H2613 H 0.85116 0.37685 0.65494 0.0
H2614 H 0.85133 0.35661 0.67911 0.0
H2615 H 0.86051 0.37266 0.60986 0.0
H2616 H 0.81763 0.37724 0.65246 0.0
H2617 H 0.79608 0.3655 0.67312 0.0
H2618 H 0.76598 0.32385 0.62608 0.0
H2619 H 0.78761 0.33506 0.60526 0.0
C2620 C 0.80797 0.40856 0.55559 0.0
C2621 C 0.79943 0.3951 0.53936 0.0
C2622 C 0.81611 0.4028 0.57075 0.0
C2623 C 0.81551 0.38351 0.57007 0.0
C2624 C 0.80652 0.36989 0.55429 0.0
C2625 C 0.7987 0.37569 0.53885 0.0
C2626 C 0.82285 0.37738 0.58666 0.0
C2627 C 0.81128 0.37024 0.59875 0.0
C2628 C 0.84092 0.37923 0.59103 0.0
C2629 C 0.85376 0.38773 0.57912 0.0
C2630 C 0.85253 0.37993 0.55979 0.0
C2631 C 0.86478 0.38805 0.54875 0.0
C2632 C 0.87838 0.40389 0.55691 0.0
C2633 C 0.87981 0.41161 0.57616 0.0
C2634 C 0.86759 0.40355 0.58725 0.0
C2635 C 0.83571 0.32173 0.63998 0.0
C2636 C 0.84048 0.33 0.65925 0.0
C2637 C 0.83577 0.33324 0.62637 0.0
C2638 C 0.8406 0.3531 0.63183 0.0
C2639 C 0.84737 0.36145 0.65064 0.0
C2640 C 0.84734 0.3499 0.66437 0.0
C2641 C 0.83506 0.36442 0.61849 0.0
C2642 C 0.84685 0.37248 0.60696 0.0
C2643 C 0.8172 0.36398 0.61485 0.0
C2644 C 0.80443 0.35674 0.62741 0.0
C2645 C 0.8066 0.36534 0.64661 0.0
C2646 C 0.79433 0.35884 0.65833 0.0
C2647 C 0.77972 0.34386 0.65095 0.0
C2648 C 0.77735 0.33538 0.63182 0.0
C2649 C 0.78963 0.34178 0.62006 0.0
H2650 H 0.77023 0.3389 0.66006 0.0
H2651 H 0.88784 0.41014 0.54834 0.0
H2652 H 0.42366 0.9966 0.33826 0.0
H2653 H 0.44621 0.99961 0.36486 0.0
H2654 H 0.47891 0.04704 0.34593 0.0
H2655 H 0.45669 0.04409 0.3193 0.0
H2656 H 0.49725 0.02231 0.36024 0.0
H2657 H 0.45438 0.05749 0.37688 0.0
H2658 H 0.42423 0.06026 0.37866 0.0
H2659 H 0.41619 0.01718 0.41348 0.0
H2660 H 0.44624 0.01399 0.41169 0.0
H2661 H 0.55031 0.0609 0.44901 0.0
H2662 H 0.5306 0.05984 0.42029 0.0
H2663 H 0.49265 0.01389 0.4354 0.0
H2664 H 0.51205 0.01492 0.46385 0.0
H2665 H 0.47787 0.04033 0.42262 0.0
H2666 H 0.51893 1.00325 0.40506 0.0
H2667 H 0.54872 0.99912 0.40375 0.0
H2668 H 0.55984 0.04398 0.37127 0.0
H2669 H 0.53014 0.04853 0.37261 0.0
C2670 C 0.43575 0.00748 0.33965 0.0
C2671 C 0.43831 0.02038 0.32705 0.0
C2672 C 0.44858 0.00912 0.35472 0.0
C2673 C 0.46397 0.0237 0.35728 0.0
C2674 C 0.46704 0.03576 0.34405 0.0
C2675 C 0.45426 0.03414 0.32901 0.0
C2676 C 0.47597 0.02782 0.37484 0.0
C2677 C 0.49314 0.02644 0.37389 0.0
C2678 C 0.47038 0.03311 0.39248 0.0
C2679 C 0.45249 0.03541 0.39403 0.0
C2680 C 0.44615 0.04856 0.38485 0.0
C2681 C 0.42909 0.0502 0.38586 0.0
C2682 C 0.41829 0.03888 0.39614 0.0
C2683 C 0.42456 0.02594 0.40551 0.0
C2684 C 0.44161 0.02422 0.40452 0.0
C2685 C 0.53772 0.05069 0.44613 0.0
C2686 C 0.53262 0.03794 0.45838 0.0
C2687 C 0.52653 0.05014 0.42989 0.0
C2688 C 0.51033 0.03674 0.4259 0.0
C2689 C 0.50511 0.02437 0.43842 0.0
C2690 C 0.51622 0.02492 0.45455 0.0
C2691 C 0.49909 0.03453 0.40809 0.0
C2692 C 0.48205 0.03635 0.40897 0.0
C2693 C 0.50476 0.02947 0.39044 0.0
C2694 C 0.52239 0.02633 0.38905 0.0
C2695 C 0.52775 0.01227 0.39769 0.0
C2696 C 0.54461 0.00985 0.39695 0.0
C2697 C 0.55618 0.0213 0.38747 0.0
C2698 C 0.55087 0.03513 0.37862 0.0
C2699 C 0.53402 0.03762 0.37934 0.0
H2700 H 0.56924 0.01944 0.38694 0.0
H2701 H 0.40507 0.04015 0.39688 0.0
H2702 H 0.8171 0.73174 0.05182 0.0
H2703 H 0.81546 0.74552 0.0847 0.0
H2704 H 0.76068 0.71755 0.0776 0.0
H2705 H 0.76228 0.70339 0.04491 0.0
H2706 H 0.77091 0.75802 0.09709 0.0
H2707 H 0.78457 0.69694 0.09791 0.0
H2708 H 0.80164 0.67309 0.09123 0.0
H2709 H 0.84733 0.71252 0.12339 0.0
H2710 H 0.83058 0.73675 0.12996 0.0
H2711 H 0.7573 0.76334 0.19498 0.0
H2712 H 0.75739 0.75369 0.16079 0.0
H2713 H 0.81361 0.7701 0.16891 0.0
H2714 H 0.8137 0.77954 0.20272 0.0
H2715 H 0.8022 0.73556 0.14841 0.0
H2716 H 0.7906 0.79651 0.14814 0.0
H2717 H 0.77535 0.82203 0.15501 0.0
H2718 H 0.72837 0.78564 0.12234 0.0
H2719 H 0.7433 0.75978 0.11551 0.0
C2720 C 0.80467 0.72872 0.05721 0.0
C2721 C 0.78983 0.71645 0.04586 0.0
C2722 C 0.80377 0.73654 0.07596 0.0
C2723 C 0.78795 0.73247 0.0835 0.0
C2724 C 0.77298 0.72085 0.07198 0.0
C2725 C 0.77394 0.71272 0.05337 0.0
C2726 C 0.7872 0.73952 0.10369 0.0
C2727 C 0.77757 0.75299 0.10836 0.0
C2728 C 0.79628 0.73326 0.11828 0.0
C2729 C 0.80638 0.71875 0.1142 0.0
C2730 C 0.79831 0.70061 0.10336 0.0
C2731 C 0.80791 0.68701 0.09963 0.0
C2732 C 0.82557 0.69131 0.10682 0.0
C2733 C 0.83366 0.70922 0.11778 0.0
C2734 C 0.82412 0.7229 0.12151 0.0
C2735 C 0.76965 0.76505 0.18942 0.0
C2736 C 0.78547 0.77203 0.20163 0.0
C2737 C 0.76969 0.75958 0.1699 0.0
C2738 C 0.78553 0.76115 0.16233 0.0
C2739 C 0.80125 0.76862 0.17445 0.0
C2740 C 0.80124 0.77401 0.19383 0.0
C2741 C 0.78594 0.75421 0.14197 0.0
C2742 C 0.79551 0.74067 0.13722 0.0
C2743 C 0.77706 0.76068 0.12736 0.0
C2744 C 0.768 0.77613 0.13151 0.0
C2745 C 0.77697 0.79388 0.14258 0.0
C2746 C 0.76839 0.80842 0.14643 0.0
C2747 C 0.75088 0.80544 0.13916 0.0
C2748 C 0.74193 0.78792 0.12799 0.0
C2749 C 0.75044 0.77331 0.12411 0.0
H2750 H 0.74427 0.81672 0.14215 0.0
H2751 H 0.83298 0.68074 0.10395 0.0
H2752 H 0.13893 0.03259 0.72015 0.0
H2753 H 0.12511 0.0392 0.69069 0.0
H2754 H 0.09564 0.98053 0.67614 0.0
H2755 H 0.10926 0.97391 0.70531 0.0
H2756 H 0.10661 0.99045 0.64515 0.0
H2757 H 0.07699 0.01873 0.69198 0.0
H2758 H 0.07382 0.03981 0.72096 0.0
H2759 H 0.09878 0.08901 0.69903 0.0
H2760 H 0.10229 0.06819 0.66999 0.0
H2761 H 0.04847 0.99826 0.56711 0.0
H2762 H 0.06094 0.99352 0.59778 0.0
H2763 H 0.08596 0.05366 0.61266 0.0
H2764 H 0.07257 0.05857 0.58234 0.0
H2765 H 0.07781 0.04355 0.64357 0.0
H2766 H 0.10729 0.01425 0.59622 0.0
H2767 H 0.10808 0.99253 0.56667 0.0
H2768 H 0.08215 0.94452 0.5897 0.0
H2769 H 0.0809 0.966 0.61926 0.0
C2770 C 0.1295 0.02106 0.71072 0.0
C2771 C 0.1254 1.00264 0.71547 0.0
C2772 C 0.12145 0.02489 0.69376 0.0
C2773 C 0.10903 0.01045 0.68079 0.0
C2774 C 0.10508 0.99208 0.68552 0.0
C2775 C 0.11296 0.9883 0.70246 0.0
C2776 C 0.10032 0.01414 0.66229 0.0
C2777 C 0.10021 1.00201 0.64498 0.0
C2778 C 0.092 0.02933 0.66143 0.0
C2779 C 0.09011 0.04189 0.67893 0.0
C2780 C 0.08196 0.03403 0.69342 0.0
C2781 C 0.08007 0.04593 0.70984 0.0
C2782 C 0.08616 0.06573 0.71187 0.0
C2783 C 0.09411 0.07367 0.69746 0.0
C2784 C 0.09605 0.06183 0.68102 0.0
C2785 C 0.05659 0.01054 0.57687 0.0
C2786 C 0.0595 0.02881 0.57187 0.0
C2787 C 0.06396 0.00779 0.59457 0.0
C2788 C 0.0751 0.02306 0.60784 0.0
C2789 C 0.07765 0.04142 0.603 0.0
C2790 C 0.06996 0.04424 0.58544 0.0
C2791 C 0.08419 0.01991 0.62642 0.0
C2792 C 0.08434 0.0321 0.64373 0.0
C2793 C 0.09253 0.00474 0.62732 0.0
C2794 C 0.09393 0.99174 0.6099 0.0
C2795 C 0.10175 0.99906 0.59497 0.0
C2796 C 0.10223 0.9868 0.5782 0.0
C2797 C 0.09511 0.96716 0.57628 0.0
C2798 C 0.08762 0.95973 0.59119 0.0
C2799 C 0.08703 0.97194 0.60796 0.0
H2800 H 0.09544 0.9577 0.56326 0.0
H2801 H 0.08466 0.07492 0.72458 0.0
H2802 H 0.7823 0.38864 0.45342 0.0
H2803 H 0.78049 0.3641 0.42567 0.0
H2804 H 0.83643 0.38037 0.42785 0.0
H2805 H 0.8384 0.40506 0.45558 0.0
H2806 H 0.81816 0.37887 0.39261 0.0
H2807 H 0.81743 0.33913 0.44083 0.0
H2808 H 0.80623 0.3254 0.4678 0.0
H2809 H 0.75587 0.30212 0.43483 0.0
H2810 H 0.76671 0.31589 0.40774 0.0
H2811 H 0.82276 0.30763 0.31732 0.0
H2812 H 0.82771 0.32773 0.34889 0.0
H2813 H 0.77387 0.30522 0.35572 0.0
H2814 H 0.76935 0.28448 0.32468 0.0
H2815 H 0.79215 0.30951 0.38748 0.0
H2816 H 0.78901 0.34934 0.34137 0.0
H2817 H 0.79635 0.36432 0.31378 0.0
H2818 H 0.84865 0.3892 0.34142 0.0
H2819 H 0.84168 0.37413 0.36907 0.0
C2820 C 0.79423 0.38698 0.44803 0.0
C2821 C 0.81049 0.39886 0.45655 0.0
C2822 C 0.79317 0.37285 0.4323 0.0
C2823 C 0.80835 0.37039 0.42493 0.0
C2824 C 0.8246 0.38209 0.43348 0.0
C2825 C 0.82569 0.39618 0.44925 0.0
C2826 C 0.80715 0.35654 0.40745 0.0
C2827 C 0.8128 0.36363 0.39151 0.0
C2828 C 0.79937 0.33688 0.40598 0.0
C2829 C 0.79286 0.32866 0.42231 0.0
C2830 C 0.80394 0.33121 0.43939 0.0
C2831 C 0.79766 0.32339 0.45468 0.0
C2832 C 0.78034 0.31293 0.45304 0.0
C2833 C 0.76927 0.31023 0.43609 0.0
C2834 C 0.77549 0.31802 0.42075 0.0
C2835 C 0.8122 0.30681 0.32585 0.0
C2836 C 0.7958 0.29459 0.31894 0.0
C2837 C 0.81493 0.31834 0.34372 0.0
C2838 C 0.80106 0.31823 0.35448 0.0
C2839 C 0.78477 0.3055 0.34769 0.0
C2840 C 0.78219 0.29367 0.33005 0.0
C2841 C 0.80327 0.33179 0.37252 0.0
C2842 C 0.79772 0.3247 0.38854 0.0
C2843 C 0.81057 0.3516 0.37392 0.0
C2844 C 0.81489 0.3604 0.35718 0.0
C2845 C 0.80213 0.35784 0.34148 0.0
C2846 C 0.80621 0.36638 0.32585 0.0
C2847 C 0.82297 0.37765 0.32582 0.0
C2848 C 0.83568 0.38043 0.34144 0.0
C2849 C 0.83167 0.37189 0.35709 0.0
H2850 H 0.8261 0.38429 0.31373 0.0
H2851 H 0.77551 0.30687 0.46489 0.0
H2852 H 0.47025 0.045 0.2491 0.0
H2853 H 0.47859 0.02973 0.21969 0.0
H2854 H 0.42459 1.00223 0.19934 0.0
H2855 H 0.41607 0.0177 0.22812 0.0
H2856 H 0.45494 0.97895 0.1973 0.0
H2857 H 0.43165 0.03125 0.17798 0.0
H2858 H 0.42998 0.06484 0.18472 0.0
H2859 H 0.48554 0.08364 0.18715 0.0
H2860 H 0.48753 0.0501 0.18064 0.0
H2861 H 0.47711 0.98687 0.09428 0.0
H2862 H 0.45782 0.98379 0.11886 0.0
H2863 H 0.50206 0.98959 0.16062 0.0
H2864 H 0.52129 0.99292 0.13662 0.0
H2865 H 0.4707 0.01962 0.14924 0.0
H2866 H 0.49223 0.96762 0.18255 0.0
H2867 H 0.49513 0.93438 0.17726 0.0
H2868 H 0.44312 0.91519 0.14744 0.0
H2869 H 0.44013 0.94842 0.15223 0.0
C2870 C 0.4602 0.03587 0.23824 0.0
C2871 C 0.44256 0.03283 0.24069 0.0
C2872 C 0.46496 0.02702 0.22167 0.0
C2873 C 0.45213 0.01478 0.20769 0.0
C2874 C 0.43458 0.01153 0.21017 0.0
C2875 C 0.42978 0.02065 0.22647 0.0
C2876 C 0.45694 0.00669 0.1897 0.0
C2877 C 0.4582 0.9877 0.18666 0.0
C2878 C 0.46095 0.01814 0.17592 0.0
C2879 C 0.45973 0.03824 0.17886 0.0
C2880 C 0.4435 0.04257 0.17996 0.0
C2881 C 0.4425 0.06158 0.18376 0.0
C2882 C 0.45765 0.07637 0.18637 0.0
C2883 C 0.47382 0.07217 0.1851 0.0
C2884 C 0.47489 0.05317 0.18132 0.0
C2885 C 0.48261 0.98677 0.10858 0.0
C2886 C 0.50076 0.99052 0.11359 0.0
C2887 C 0.47157 0.98484 0.12251 0.0
C2888 C 0.47859 0.98639 0.14142 0.0
C2889 C 0.49638 0.98785 0.14599 0.0
C2890 C 0.5074 0.98984 0.13218 0.0
C2891 C 0.46889 0.99185 0.15678 0.0
C2892 C 0.4669 0.01059 0.15954 0.0
C2893 C 0.4643 0.98021 0.17028 0.0
C2894 C 0.46601 0.96037 0.16761 0.0
C2895 C 0.48147 0.95628 0.17479 0.0
C2896 C 0.48314 0.93748 0.17186 0.0
C2897 C 0.46933 0.92268 0.16199 0.0
C2898 C 0.45383 0.92667 0.15501 0.0
C2899 C 0.45217 0.94548 0.15776 0.0
H2900 H 0.47062 0.90813 0.15977 0.0
H2901 H 0.45685 0.09108 0.18936 0.0
H2902 H 0.75183 0.69363 0.92952 0.0
H2903 H 0.75967 0.71165 0.90447 0.0
H2904 H 0.81222 0.73309 0.93308 0.0
H2905 H 0.8045 0.71486 0.95837 0.0
H2906 H 0.79727 0.76145 0.91679 0.0
H2907 H 0.80883 0.70085 0.89834 0.0
H2908 H 0.80267 0.66574 0.89387 0.0
H2909 H 0.75725 0.6608 0.85442 0.0
H2910 H 0.76304 0.69594 0.85885 0.0
H2911 H 0.82748 0.79132 0.83242 0.0
H2912 H 0.82433 0.77716 0.86096 0.0
H2913 H 0.77245 0.74465 0.83668 0.0
H2914 H 0.77559 0.75875 0.80803 0.0
H2915 H 0.7905 0.7227 0.85234 0.0
H2916 H 0.78011 0.78458 0.87155 0.0
H2917 H 0.78697 0.81986 0.87696 0.0
H2918 H 0.83205 0.82271 0.91602 0.0
H2919 H 0.82559 0.7875 0.9105 0.0
C2920 C 0.76506 0.70221 0.93063 0.0
C2921 C 0.77756 0.70258 0.94594 0.0
C2922 C 0.76951 0.71256 0.91626 0.0
C2923 C 0.78655 0.72364 0.91681 0.0
C2924 C 0.79898 0.72466 0.93237 0.0
C2925 C 0.79456 0.71413 0.94676 0.0
C2926 C 0.79134 0.73302 0.9004 0.0
C2927 C 0.79612 0.75302 0.90274 0.0
C2928 C 0.78971 0.72207 0.88205 0.0
C2929 C 0.78629 0.70098 0.87904 0.0
C2930 C 0.79747 0.69226 0.8888 0.0
C2931 C 0.79406 0.67237 0.88626 0.0
C2932 C 0.77956 0.66105 0.8739 0.0
C2933 C 0.76847 0.6696 0.864 0.0
C2934 C 0.77183 0.6895 0.86649 0.0
C2935 C 0.81541 0.7811 0.83313 0.0
C2936 C 0.80178 0.77613 0.81795 0.0
C2937 C 0.81359 0.77311 0.84954 0.0
C2938 C 0.79808 0.75997 0.85114 0.0
C2939 C 0.78454 0.75478 0.83584 0.0
C2940 C 0.78634 0.76283 0.81946 0.0
C2941 C 0.79605 0.75123 0.86851 0.0
C2942 C 0.79182 0.73124 0.86636 0.0
C2943 C 0.79847 0.76229 0.88704 0.0
C2944 C 0.80248 0.78345 0.89036 0.0
C2945 C 0.79158 0.7928 0.88109 0.0
C2946 C 0.79538 0.81275 0.88421 0.0
C2947 C 0.80998 0.82352 0.89677 0.0
C2948 C 0.82078 0.81435 0.90625 0.0
C2949 C 0.81705 0.7944 0.90312 0.0
H2950 H 0.81289 0.83896 0.8992 0.0
H2951 H 0.77692 0.64564 0.87197 0.0
H2952 H 0.85427 0.15251 0.01833 0.0
H2953 H 0.87476 0.13472 0.0062 0.0
H2954 H 0.83594 0.08168 0.00234 0.0
H2955 H 0.81587 0.09913 0.01513 0.0
H2956 H 0.86504 0.07868 0.01781 0.0
H2957 H 0.84641 0.09967 0.96209 0.0
H2958 H 0.83963 0.12305 0.9432 0.0
H2959 H 0.89339 0.15425 0.95343 0.0
H2960 H 0.90046 0.13113 0.97257 0.0
H2961 H 0.91308 0.02173 0.97227 0.0
H2962 H 0.89005 0.0387 0.97249 0.0
H2963 H 0.9285 0.09241 0.98999 0.0
H2964 H 0.95175 0.07561 0.98916 0.0
H2965 H 0.89796 0.09343 0.96441 0.0
H2966 H 0.91382 0.07204 0.02383 0.0
H2967 H 0.9184 0.04738 0.0422 0.0
H2968 H 0.86601 0.0144 0.02221 0.0
H2969 H 0.8612 0.03883 0.0036 0.0
C2970 C 0.85024 0.13706 0.01501 0.0
C2971 C 0.83362 0.12719 0.01782 0.0
C2972 C 0.86182 0.12695 0.00789 0.0
C2973 C 0.85671 0.10693 0.00312 0.0
C2974 C 0.84011 0.09712 0.00595 0.0
C2975 C 0.82871 0.10714 0.01337 0.0
C2976 C 0.86894 0.09602 0.99617 0.0
C2977 C 0.87196 0.0817 0.0059 0.0
C2978 C 0.87801 0.10004 0.98071 0.0
C2979 C 0.87395 0.11374 0.96886 0.0
C2980 C 0.85678 0.11156 0.96038 0.0
C2981 C 0.85288 0.12475 0.94962 0.0
C2982 C 0.86607 0.14015 0.94715 0.0
C2983 C 0.88319 0.14231 0.95536 0.0
C2984 C 0.88716 0.12914 0.96613 0.0
C2985 C 0.91669 0.03719 0.97558 0.0
C2986 C 0.93418 0.04735 0.98101 0.0
C2987 C 0.90353 0.04683 0.9757 0.0
C2988 C 0.90769 0.0667 0.98141 0.0
C2989 C 0.92514 0.07704 0.98551 0.0
C2990 C 0.93834 0.06741 0.98532 0.0
C2991 C 0.89395 0.07628 0.98614 0.0
C2992 C 0.89075 0.09034 0.97609 0.0
C2993 C 0.88432 0.07174 1.00104 0.0
C2994 C 0.88723 0.05712 0.01222 0.0
C2995 C 0.90334 0.05946 0.02327 0.0
C2996 C 0.90596 0.04555 0.03374 0.0
C2997 C 0.89252 0.02931 0.03333 0.0
C2998 C 0.87641 0.02697 0.02249 0.0
C2999 C 0.87373 0.04084 0.012 0.0
H3000 H 0.89457 0.01855 0.04145 0.0
H3001 H 0.86302 0.15038 0.93885 0.0
H3002 H 0.34649 0.43252 0.01189 0.0
H3003 H 0.37506 0.45164 0.00742 0.0
H3004 H 0.3994 0.43218 0.054 0.0
H3005 H 0.37103 0.41292 0.05838 0.0
H3006 H 0.41083 0.47114 0.05635 0.0
H3007 H 0.40332 0.41457 0.00957 0.0
H3008 H 0.38865 0.38986 0.98194 0.0
H3009 H 0.39135 0.43267 0.94696 0.0
H3010 H 0.40578 0.45771 0.97448 0.0
H3011 H 0.50039 0.50239 0.04251 0.0
H3012 H 0.4719 0.48145 0.04489 0.0
H3013 H 0.44795 0.50347 0.99997 0.0
H3014 H 0.4762 0.52474 0.99795 0.0
H3015 H 0.43628 0.46315 0.99618 0.0
H3016 H 0.44245 0.51952 0.04187 0.0
H3017 H 0.45632 0.54515 0.06903 0.0
H3018 H 0.45511 0.50371 0.10542 0.0
H3019 H 0.44151 0.47776 0.07837 0.0
C3020 C 0.35792 0.43234 0.02121 0.0
C3021 C 0.35638 0.42117 0.03554 0.0
C3022 C 0.37429 0.44321 0.01856 0.0
C3023 C 0.38951 0.44334 0.03031 0.0
C3024 C 0.38794 0.43237 0.04473 0.0
C3025 C 0.37165 0.42131 0.0472 0.0
C3026 C 0.40701 0.45517 0.02792 0.0
C3027 C 0.41647 0.46915 0.04327 0.0
C3028 C 0.41428 0.45306 0.01069 0.0
C3029 C 0.40544 0.43806 0.99416 0.0
C3030 C 0.4006 0.41876 0.99605 0.0
C3031 C 0.39237 0.40468 0.98039 0.0
C3032 C 0.38901 0.4097 0.96272 0.0
C3033 C 0.39392 0.42881 0.96067 0.0
C3034 C 0.40213 0.44295 0.97629 0.0
C3035 C 0.48905 0.50269 0.03311 0.0
C3036 C 0.49053 0.51534 0.02014 0.0
C3037 C 0.47276 0.49074 0.03449 0.0
C3038 C 0.45768 0.49089 0.02266 0.0
C3039 C 0.45931 0.50304 0.00926 0.0
C3040 C 0.47548 0.51526 0.00817 0.0
C3041 C 0.44012 0.47894 0.02469 0.0
C3042 C 0.43064 0.46503 0.00928 0.0
C3043 C 0.43273 0.48118 0.0418 0.0
C3044 C 0.44121 0.49667 0.05803 0.0
C3045 C 0.44536 0.51584 0.05561 0.0
C3046 C 0.45313 0.53043 0.07099 0.0
C3047 C 0.45666 0.52605 0.08893 0.0
C3048 C 0.45242 0.50707 0.09151 0.0
C3049 C 0.44469 0.49241 0.07615 0.0
H3050 H 0.46262 0.53738 0.10084 0.0
H3051 H 0.38266 0.39878 0.95061 0.0
H3052 H 0.37769 0.60136 0.73816 0.0
H3053 H 0.36173 0.62653 0.73751 0.0
H3054 H 0.38933 0.6556 0.79221 0.0
H3055 H 0.40482 0.63067 0.79302 0.0
H3056 H 0.36032 0.6618 0.79411 0.0
H3057 H 0.39553 0.67122 0.74534 0.0
H3058 H 0.40829 0.6636 0.71608 0.0
H3059 H 0.35753 0.64913 0.68349 0.0
H3060 H 0.34444 0.65646 0.71264 0.0
H3061 H 0.33959 0.75407 0.78813 0.0
H3062 H 0.35501 0.72834 0.78788 0.0
H3063 H 0.31499 0.69174 0.74515 0.0
H3064 H 0.29926 0.71699 0.74593 0.0
H3065 H 0.34995 0.68973 0.737 0.0
H3066 H 0.31623 0.68338 0.78893 0.0
H3067 H 0.30648 0.69408 0.81935 0.0
H3068 H 0.35897 0.7068 0.84732 0.0
H3069 H 0.36908 0.69644 0.81698 0.0
C3070 C 0.38041 0.61305 0.7501 0.0
C3071 C 0.39291 0.61341 0.76563 0.0
C3072 C 0.37124 0.62782 0.7497 0.0
C3073 C 0.37406 0.64381 0.76476 0.0
C3074 C 0.3864 0.64391 0.78025 0.0
C3075 C 0.39551 0.62932 0.78063 0.0
C3076 C 0.36439 0.66022 0.76478 0.0
C3077 C 0.35837 0.66788 0.78151 0.0
C3078 C 0.36129 0.66886 0.7487 0.0
C3079 C 0.36898 0.66411 0.73119 0.0
C3080 C 0.38707 0.66622 0.73196 0.0
C3081 C 0.39437 0.662 0.71539 0.0
C3082 C 0.38372 0.65581 0.69794 0.0
C3083 C 0.36575 0.65387 0.69703 0.0
C3084 C 0.35838 0.65806 0.71357 0.0
C3085 C 0.33398 0.74058 0.77865 0.0
C3086 C 0.31788 0.73805 0.76711 0.0
C3087 C 0.3429 0.72564 0.77852 0.0
C3088 C 0.33647 0.70753 0.76646 0.0
C3089 C 0.32061 0.70521 0.75466 0.0
C3090 C 0.31146 0.71989 0.75518 0.0
C3091 C 0.34597 0.69111 0.76623 0.0
C3092 C 0.35194 0.68353 0.7495 0.0
C3093 C 0.34946 0.68291 0.78245 0.0
C3094 C 0.34344 0.68934 0.80064 0.0
C3095 C 0.32573 0.68866 0.80152 0.0
C3096 C 0.32013 0.69462 0.81876 0.0
C3097 C 0.33211 0.70117 0.83525 0.0
C3098 C 0.34971 0.70176 0.83453 0.0
C3099 C 0.35538 0.69584 0.81732 0.0
H3100 H 0.32775 0.70574 0.84859 0.0
H3101 H 0.3894 0.65257 0.68513 0.0
H3102 H 0.23114 0.63903 0.50073 0.0
H3103 H 0.20097 0.62293 0.48815 0.0
H3104 H 0.20428 0.57679 0.51799 0.0
H3105 H 0.23484 0.5927 0.5303 0.0
H3106 H 0.17952 0.56553 0.4842 0.0
H3107 H 0.19509 0.61142 0.5426 0.0
H3108 H 0.20951 0.64206 0.56362 0.0
H3109 H 0.18397 0.67184 0.52755 0.0
H3110 H 0.1696 0.64132 0.50613 0.0
H3111 H 0.10852 0.54561 0.5352 0.0
H3112 H 0.13733 0.5567 0.52543 0.0
H3113 H 0.11645 0.591 0.4901 0.0
H3114 H 0.08756 0.5796 0.49954 0.0
H3115 H 0.14781 0.60885 0.51771 0.0
H3116 H 0.12406 0.55636 0.46712 0.0
H3117 H 0.1082 0.52314 0.45359 0.0
H3118 H 0.1481 0.50261 0.48179 0.0
H3119 H 0.16402 0.53565 0.49593 0.0
C3120 C 0.2255 0.62528 0.50434 0.0
C3121 C 0.23485 0.61734 0.51705 0.0
C3122 C 0.20846 0.61598 0.49685 0.0
C3123 C 0.20051 0.59893 0.50243 0.0
C3124 C 0.21036 0.58997 0.51356 0.0
C3125 C 0.22761 0.59916 0.52081 0.0
C3126 C 0.18152 0.59327 0.50083 0.0
C3127 C 0.17247 0.57494 0.49135 0.0
C3128 C 0.17252 0.60575 0.51019 0.0
C3129 C 0.1816 0.62419 0.52257 0.0
C3130 C 0.19279 0.62454 0.53899 0.0
C3131 C 0.20089 0.64186 0.55102 0.0
C3132 C 0.19774 0.6589 0.54687 0.0
C3133 C 0.18647 0.65864 0.53068 0.0
C3134 C 0.17836 0.64135 0.51858 0.0
C3135 C 0.11032 0.55593 0.5258 0.0
C3136 C 0.09627 0.56222 0.51833 0.0
C3137 C 0.1265 0.56183 0.5199 0.0
C3138 C 0.1286 0.57413 0.50671 0.0
C3139 C 0.11476 0.58118 0.50001 0.0
C3140 C 0.09852 0.57502 0.50564 0.0
C3141 C 0.14582 0.58101 0.50147 0.0
C3142 C 0.15463 0.59966 0.50979 0.0
C3143 C 0.15452 0.56851 0.4917 0.0
C3144 C 0.14523 0.54857 0.4827 0.0
C3145 C 0.12943 0.54479 0.47057 0.0
C3146 C 0.12041 0.52597 0.46277 0.0
C3147 C 0.12713 0.51079 0.46683 0.0
C3148 C 0.14291 0.51439 0.47865 0.0
C3149 C 0.15195 0.53317 0.48655 0.0
H3150 H 0.1201 0.49624 0.46082 0.0
H3151 H 0.20396 0.6723 0.55623 0.0
H3152 H 0.66628 0.95311 0.73196 0.0
H3153 H 0.68629 0.93863 0.74909 0.0
H3154 H 0.72187 0.99417 0.76813 0.0
H3155 H 0.70271 0.00839 0.75012 0.0
H3156 H 0.73939 0.96994 0.76079 0.0
H3157 H 0.69369 0.97322 0.7982 0.0
H3158 H 0.66299 0.96928 0.8036 0.0
H3159 H 0.65344 0.90854 0.78626 0.0
H3160 H 0.68406 0.91214 0.78062 0.0
H3161 H 0.78703 0.92144 0.81272 0.0
H3162 H 0.76916 0.94432 0.81126 0.0
H3163 H 0.72603 0.89907 0.78094 0.0
H3164 H 0.74332 0.87596 0.78357 0.0
H3165 H 0.71449 0.92533 0.80231 0.0
H3166 H 0.759 0.9256 0.75746 0.0
H3167 H 0.7894 0.93112 0.7505 0.0
H3168 H 0.80121 0.98784 0.78328 0.0
H3169 H 0.77089 0.98259 0.79046 0.0
C3170 C 0.67857 0.96205 0.73945 0.0
C3171 C 0.68295 0.98175 0.73974 0.0
C3172 C 0.68984 0.9539 0.74944 0.0
C3173 C 0.70522 0.9655 0.76038 0.0
C3174 C 0.70999 0.98503 0.7599 0.0
C3175 C 0.69903 0.99307 0.74949 0.0
C3176 C 0.71635 0.95727 0.77236 0.0
C3177 C 0.73403 0.96054 0.77022 0.0
C3178 C 0.70939 0.94531 0.78487 0.0
C3179 C 0.69116 0.94295 0.78899 0.0
C3180 C 0.68504 0.95902 0.79556 0.0
C3181 C 0.66766 0.95685 0.79865 0.0
C3182 C 0.65628 0.93867 0.79527 0.0
C3183 C 0.66229 0.92261 0.78891 0.0
C3184 C 0.67967 0.9247 0.78583 0.0
C3185 C 0.77353 0.91627 0.8064 0.0
C3186 C 0.76665 0.89703 0.79785 0.0
C3187 C 0.76341 0.92937 0.80547 0.0
C3188 C 0.7465 0.9234 0.79559 0.0
C3189 C 0.73912 0.90395 0.78854 0.0
C3190 C 0.74909 0.89082 0.78979 0.0
C3191 C 0.73726 0.93728 0.78995 0.0
C3192 C 0.71993 0.93524 0.79337 0.0
C3193 C 0.7446 0.95064 0.77884 0.0
C3194 C 0.76281 0.95363 0.77468 0.0
C3195 C 0.76813 0.93919 0.76326 0.0
C3196 C 0.78533 0.94228 0.75925 0.0
C3197 C 0.79724 0.95979 0.7665 0.0
C3198 C 0.79198 0.97427 0.77772 0.0
C3199 C 0.77481 0.97125 0.78175 0.0
H3200 H 0.81054 0.96216 0.76338 0.0
H3201 H 0.6428 0.93703 0.79759 0.0
H3202 H 0.76654 0.93726 0.52879 0.0
H3203 H 0.74322 0.95325 0.52302 0.0
H3204 H 0.70635 0.89852 0.5048 0.0
H3205 H 0.72964 0.88251 0.51001 0.0
H3206 H 0.69969 0.9211 0.48227 0.0
H3207 H 0.70858 0.92671 0.54961 0.0
H3208 H 0.72485 0.93485 0.58184 0.0
H3209 H 0.74029 0.99379 0.57633 0.0
H3210 H 0.72426 0.98596 0.54397 0.0
H3211 H 0.62341 0.95834 0.49711 0.0
H3212 H 0.64615 0.94062 0.49739 0.0
H3213 H 0.68566 0.99352 0.50504 0.0
H3214 H 0.66321 0.01126 0.50497 0.0
H3215 H 0.69019 0.97107 0.53218 0.0
H3216 H 0.67884 0.96421 0.46436 0.0
H3217 H 0.66151 0.95468 0.43268 0.0
H3218 H 0.64873 0.89617 0.43999 0.0
H3219 H 0.66577 0.90537 0.47186 0.0
C3220 C 0.75346 0.92863 0.52362 0.0
C3221 C 0.75 0.90858 0.52 0.0
C3222 C 0.74009 0.93779 0.52036 0.0
C3223 C 0.72288 0.92713 0.51368 0.0
C3224 C 0.71946 0.90712 0.50993 0.0
C3225 C 0.73282 0.89797 0.51304 0.0
C3226 C 0.70844 0.93678 0.51075 0.0
C3227 C 0.69749 0.93185 0.49329 0.0
C3228 C 0.70556 0.95098 0.52497 0.0
C3229 C 0.7154 0.95571 0.5443 0.0
C3230 C 0.71558 0.94138 0.55521 0.0
C3231 C 0.72473 0.94594 0.57351 0.0
C3232 C 0.73365 0.96481 0.58111 0.0
C3233 C 0.73341 0.97917 0.57042 0.0
C3234 C 0.72429 0.97469 0.5521 0.0
C3235 C 0.63694 0.96618 0.49871 0.0
C3236 C 0.64144 0.98627 0.50105 0.0
C3237 C 0.64991 0.95601 0.4987 0.0
C3238 C 0.66762 0.96575 0.50118 0.0
C3239 C 0.67209 0.9857 0.50303 0.0
C3240 C 0.65919 0.99583 0.50288 0.0
C3241 C 0.68159 0.95553 0.5037 0.0
C3242 C 0.69241 0.96032 0.52115 0.0
C3243 C 0.68409 0.94101 0.48957 0.0
C3244 C 0.6734 0.93554 0.47063 0.0
C3245 C 0.67214 0.94935 0.45934 0.0
C3246 C 0.66241 0.94399 0.44131 0.0
C3247 C 0.65397 0.92484 0.43435 0.0
C3248 C 0.65524 0.911 0.44541 0.0
C3249 C 0.66493 0.91629 0.46346 0.0
H3250 H 0.6465 0.92072 0.42036 0.0
H3251 H 0.7407 0.96832 0.59529 0.0
H3252 H 0.40872 0.47931 0.74067 0.0
H3253 H 0.39144 0.44772 0.74269 0.0
H3254 H 0.35313 0.47292 0.76776 0.0
H3255 H 0.37063 0.50504 0.76571 0.0
H3256 H 0.35864 0.44395 0.78615 0.0
H3257 H 0.34555 0.44767 0.72084 0.0
H3258 H 0.3524 0.45345 0.68922 0.0
H3259 H 0.37992 0.40924 0.68508 0.0
H3260 H 0.37343 0.40336 0.7168 0.0
H3261 H 0.29141 0.35757 0.77446 0.0
H3262 H 0.30986 0.38897 0.77346 0.0
H3263 H 0.34711 0.36243 0.74779 0.0
H3264 H 0.32846 0.33057 0.74893 0.0
H3265 H 0.34277 0.39188 0.72988 0.0
H3266 H 0.35592 0.38746 0.79424 0.0
H3267 H 0.3506 0.38192 0.82633 0.0
H3268 H 0.32454 0.42733 0.83287 0.0
H3269 H 0.32947 0.43296 0.80068 0.0
C3270 C 0.39657 0.47836 0.74653 0.0
C3271 C 0.39126 0.49521 0.75287 0.0
C3272 C 0.38653 0.45998 0.74763 0.0
C3273 C 0.3706 0.45733 0.75521 0.0
C3274 C 0.36524 0.47413 0.76175 0.0
C3275 C 0.37527 0.49267 0.76045 0.0
C3276 C 0.35989 0.43717 0.75627 0.0
C3277 C 0.35495 0.43274 0.7737 0.0
C3278 C 0.35536 0.42185 0.74039 0.0
C3279 C 0.35913 0.42519 0.72126 0.0
C3280 C 0.35316 0.43926 0.71323 0.0
C3281 C 0.35696 0.44255 0.69529 0.0
C3282 C 0.36662 0.43175 0.68517 0.0
C3283 C 0.37245 0.4176 0.69295 0.0
C3284 C 0.3687 0.41427 0.7109 0.0
C3285 C 0.30364 0.35824 0.76879 0.0
C3286 C 0.30832 0.34114 0.76204 0.0
C3287 C 0.31432 0.37647 0.76825 0.0
C3288 C 0.33025 0.37866 0.76069 0.0
C3289 C 0.33504 0.36157 0.75381 0.0
C3290 C 0.32437 0.34317 0.75465 0.0
C3291 C 0.34137 0.39868 0.75974 0.0
C3292 C 0.34641 0.40308 0.74233 0.0
C3293 C 0.3461 0.41395 0.77568 0.0
C3294 C 0.34288 0.41048 0.79494 0.0
C3295 C 0.34889 0.39614 0.80243 0.0
C3296 C 0.34598 0.39301 0.82066 0.0
C3297 C 0.33719 0.40423 0.83161 0.0
C3298 C 0.33131 0.41862 0.82435 0.0
C3299 C 0.33417 0.4218 0.80612 0.0
H3300 H 0.33497 0.4018 0.84573 0.0
H3301 H 0.36957 0.43432 0.67128 0.0
H3302 H 0.2053 0.57954 0.2265 0.0
H3303 H 0.22678 0.60961 0.23859 0.0
H3304 H 0.18823 0.63182 0.26701 0.0
H3305 H 0.16637 0.60169 0.25428 0.0
H3306 H 0.20645 0.65708 0.24971 0.0
H3307 H 0.221 0.62121 0.29457 0.0
H3308 H 0.22654 0.59348 0.30739 0.0
H3309 H 0.26987 0.5939 0.27592 0.0
H3310 H 0.26451 0.62152 0.26278 0.0
H3311 H 0.289 0.72739 0.29065 0.0
H3312 H 0.2725 0.69544 0.29248 0.0
H3313 H 0.26069 0.68237 0.23148 0.0
H3314 H 0.27624 0.71468 0.22951 0.0
H3315 H 0.26599 0.65595 0.27655 0.0
H3316 H 0.2234 0.6781 0.22166 0.0
H3317 H 0.21796 0.70748 0.21215 0.0
H3318 H 0.2291 0.73596 0.27033 0.0
H3319 H 0.23483 0.70679 0.2801 0.0
C3320 C 0.20141 0.59096 0.23515 0.0
C3321 C 0.18437 0.58858 0.23954 0.0
C3322 C 0.21369 0.60792 0.24229 0.0
C3323 C 0.20915 0.62249 0.25425 0.0
C3324 C 0.19192 0.62047 0.25806 0.0
C3325 C 0.17949 0.60349 0.25063 0.0
C3326 C 0.22239 0.64029 0.26135 0.0
C3327 C 0.21934 0.65692 0.25599 0.0
C3328 C 0.23907 0.64016 0.26999 0.0
C3329 C 0.24233 0.62344 0.27769 0.0
C3330 C 0.23165 0.61532 0.2903 0.0
C3331 C 0.23478 0.59964 0.29765 0.0
C3332 C 0.24855 0.59193 0.29247 0.0
C3333 C 0.25923 0.59991 0.27995 0.0
C3334 C 0.25619 0.61561 0.27259 0.0
C3335 C 0.28321 0.71756 0.27759 0.0
C3336 C 0.28283 0.7237 0.26003 0.0
C3337 C 0.27406 0.69929 0.27868 0.0
C3338 C 0.26497 0.68716 0.26217 0.0
C3339 C 0.26741 0.692 0.24436 0.0
C3340 C 0.27625 0.71041 0.24326 0.0
C3341 C 0.25011 0.67187 0.26362 0.0
C3342 C 0.25292 0.65605 0.27081 0.0
C3343 C 0.23307 0.6729 0.25733 0.0
C3344 C 0.22946 0.69033 0.25157 0.0
C3345 C 0.22459 0.69063 0.23239 0.0
C3346 C 0.22156 0.70724 0.22696 0.0
C3347 C 0.22314 0.72355 0.24063 0.0
C3348 C 0.22789 0.72332 0.25976 0.0
C3349 C 0.23111 0.70679 0.26524 0.0
H3350 H 0.22068 0.73633 0.23638 0.0
H3351 H 0.25094 0.57979 0.29818 0.0
H3352 H 0.52027 0.73568 0.47007 0.0
H3353 H 0.52337 0.70722 0.48243 0.0
H3354 H 0.51628 0.67564 0.42534 0.0
H3355 H 0.51241 0.70398 0.4129 0.0
H3356 H 0.49969 0.6537 0.44613 0.0
H3357 H 0.55845 0.69544 0.45614 0.0
H3358 H 0.58077 0.72537 0.46912 0.0
H3359 H 0.57021 0.71947 0.52559 0.0
H3360 H 0.54771 0.68963 0.51293 0.0
H3361 H 0.52739 0.57331 0.46621 0.0
H3362 H 0.52564 0.60267 0.45473 0.0
H3363 H 0.53687 0.63373 0.51236 0.0
H3364 H 0.54028 0.60457 0.52357 0.0
H3365 H 0.55079 0.65638 0.49239 0.0
H3366 H 0.49482 0.61376 0.4842 0.0
H3367 H 0.47465 0.58234 0.47271 0.0
H3368 H 0.47666 0.59059 0.41518 0.0
H3369 H 0.49856 0.6212 0.42621 0.0
C3370 C 0.5193 0.72267 0.46009 0.0
C3371 C 0.51613 0.72224 0.44043 0.0
C3372 C 0.52124 0.70636 0.46722 0.0
C3373 C 0.52054 0.6892 0.4549 0.0
C3374 C 0.51701 0.68863 0.43525 0.0
C3375 C 0.51478 0.70489 0.4281 0.0
C3376 C 0.5233 0.67186 0.46241 0.0
C3377 C 0.51101 0.65426 0.45604 0.0
C3378 C 0.53767 0.67253 0.47601 0.0
C3379 C 0.55129 0.69041 0.48356 0.0
C3380 C 0.56083 0.70059 0.47131 0.0
C3381 C 0.57352 0.71753 0.47862 0.0
C3382 C 0.57687 0.72435 0.49816 0.0
C3383 C 0.56759 0.7142 0.51046 0.0
C3384 C 0.55488 0.69727 0.50323 0.0
C3385 C 0.52951 0.58645 0.47639 0.0
C3386 C 0.53362 0.58662 0.49581 0.0
C3387 C 0.52844 0.60327 0.46984 0.0
C3388 C 0.53047 0.62052 0.48264 0.0
C3389 C 0.53504 0.62072 0.50208 0.0
C3390 C 0.53685 0.60402 0.50855 0.0
C3391 C 0.52733 0.63808 0.47584 0.0
C3392 C 0.53947 0.65574 0.48245 0.0
C3393 C 0.51262 0.63752 0.46273 0.0
C3394 C 0.49852 0.61977 0.45607 0.0
C3395 C 0.49106 0.60889 0.46908 0.0
C3396 C 0.47932 0.59115 0.46264 0.0
C3397 C 0.47401 0.58461 0.44325 0.0
C3398 C 0.48073 0.59569 0.43022 0.0
C3399 C 0.49303 0.61314 0.43655 0.0
H3400 H 0.4648 0.5709 0.43833 0.0
H3401 H 0.58669 0.73747 0.50378 0.0
H3402 H 0.60996 0.26612 0.65803 0.0
H3403 H 0.63796 0.26488 0.67375 0.0
H3404 H 0.66018 0.32268 0.66722 0.0
H3405 H 0.6318 0.32406 0.65118 0.0
H3406 H 0.68282 0.29745 0.65933 0.0
H3407 H 0.65049 0.31491 0.70979 0.0
H3408 H 0.62444 0.31121 0.72632 0.0
H3409 H 0.62745 0.25463 0.73276 0.0
H3410 H 0.65341 0.25792 0.71606 0.0
H3411 H 0.76002 0.30343 0.72444 0.0
H3412 H 0.7348 0.30772 0.70478 0.0
H3413 H 0.70195 0.25939 0.72228 0.0
H3414 H 0.72685 0.25626 0.74294 0.0
H3415 H 0.68512 0.28295 0.72436 0.0
H3416 H 0.71636 0.26369 0.6738 0.0
H3417 H 0.74092 0.265 0.6551 0.0
H3418 H 0.73895 0.32121 0.64625 0.0
H3419 H 0.7147 0.32045 0.66531 0.0
C3420 C 0.6207 0.2787 0.65988 0.0
C3421 C 0.61837 0.29528 0.65335 0.0
C3422 C 0.63683 0.27792 0.66896 0.0
C3423 C 0.65134 0.2937 0.67192 0.0
C3424 C 0.64926 0.31026 0.66518 0.0
C3425 C 0.63295 0.3111 0.65611 0.0
C3426 C 0.6683 0.29276 0.6826 0.0
C3427 C 0.68345 0.29457 0.67367 0.0
C3428 C 0.66915 0.28844 0.70113 0.0
C3429 C 0.65384 0.28663 0.71161 0.0
C3430 C 0.64556 0.30166 0.71469 0.0
C3431 C 0.63081 0.29963 0.72408 0.0
C3432 C 0.62428 0.28269 0.73057 0.0
C3433 C 0.63253 0.26775 0.72774 0.0
C3434 C 0.64728 0.2697 0.71834 0.0
C3435 C 0.74748 0.29344 0.72366 0.0
C3436 C 0.74551 0.27931 0.73506 0.0
C3437 C 0.73293 0.29588 0.71235 0.0
C3438 C 0.71609 0.28385 0.71167 0.0
C3439 C 0.7145 0.26913 0.72245 0.0
C3440 C 0.72887 0.26712 0.73415 0.0
C3441 C 0.69991 0.28711 0.70103 0.0
C3442 C 0.68477 0.28581 0.71002 0.0
C3443 C 0.69908 0.29155 0.68242 0.0
C3444 C 0.71385 0.29211 0.67121 0.0
C3445 C 0.7213 0.27642 0.66806 0.0
C3446 C 0.73518 0.27707 0.65739 0.0
C3447 C 0.74158 0.29323 0.6496 0.0
C3448 C 0.73408 0.30876 0.65241 0.0
C3449 C 0.72029 0.30824 0.66316 0.0
H3450 H 0.7523 0.29368 0.64131 0.0
H3451 H 0.61284 0.28113 0.73781 0.0
H3452 H 0.00967 0.31176 0.97356 0.0
H3453 H 0.01638 0.34589 0.98682 0.0
H3454 H 0.02751 0.35919 0.9322 0.0
H3455 H 0.02183 0.32516 0.91924 0.0
H3456 H 0.04881 0.38438 0.95752 0.0
H3457 H 0.98638 0.35836 0.95018 0.0
H3458 H 0.95922 0.33649 0.95517 0.0
H3459 H 0.97145 0.35614 0.01534 0.0
H3460 H 0.99879 0.37796 0.01071 0.0
H3461 H 0.02264 0.47361 0.96597 0.0
H3462 H 0.02105 0.43933 0.95727 0.0
H3463 H 0.0371 0.43754 0.01568 0.0
H3464 H 0.03954 0.47204 0.02424 0.0
H3465 H 0.00363 0.40738 0.99081 0.0
H3466 H 0.06553 0.43518 0.99732 0.0
H3467 H 0.09171 0.45795 0.99143 0.0
H3468 H 0.07962 0.43564 0.9317 0.0
H3469 H 0.0531 0.41303 0.9372 0.0
C3470 C 0.0137 0.32198 0.96444 0.0
C3471 C 0.01504 0.31576 0.94531 0.0
C3472 C 0.01745 0.34151 0.972 0.0
C3473 C 0.02201 0.35523 0.96042 0.0
C3474 C 0.02396 0.34899 0.94147 0.0
C3475 C 0.02064 0.32949 0.93403 0.0
C3476 C 0.02399 0.37596 0.96771 0.0
C3477 C 0.03884 0.38935 0.96468 0.0
C3478 C 0.01118 0.38262 0.97735 0.0
C3479 C 0.99469 0.36963 0.98011 0.0
C3480 C 0.98331 0.35793 0.96447 0.0
C3481 C 0.96789 0.34555 0.96724 0.0
C3482 C 0.96364 0.34488 0.98556 0.0
C3483 C 0.97477 0.35664 1.00116 0.0
C3484 C 0.99022 0.36902 0.99847 0.0
C3485 C 0.02564 0.46579 0.97693 0.0
C3486 C 0.03105 0.47522 0.99577 0.0
C3487 C 0.02486 0.44634 0.97195 0.0
C3488 C 0.02909 0.43605 0.98584 0.0
C3489 C 0.03391 0.44534 0.00479 0.0
C3490 C 0.03522 0.46492 0.00966 0.0
C3491 C 0.02827 0.41551 0.9805 0.0
C3492 C 0.01362 0.40227 0.9838 0.0
C3493 C 0.04117 0.40905 0.97102 0.0
C3494 C 0.05715 0.42259 0.96765 0.0
C3495 C 0.06829 0.43531 0.9829 0.0
C3496 C 0.08323 0.44816 0.97964 0.0
C3497 C 0.08729 0.44829 0.96119 0.0
C3498 C 0.07643 0.43555 0.94598 0.0
C3499 C 0.06144 0.42272 0.94916 0.0
H3500 H 0.09888 0.45822 0.9587 0.0
H3501 H 0.95169 0.33528 0.98767 0.0
H3502 H 0.00961 0.75507 0.13157 0.0
H3503 H 0.98244 0.75359 0.14509 0.0
H3504 H 0.99926 0.81399 0.16759 0.0
H3505 H 0.02681 0.81544 0.15449 0.0
H3506 H 0.9855 0.79683 0.19324 0.0
H3507 H 0.96658 0.79257 0.1269 0.0
H3508 H 0.96246 0.77946 0.09265 0.0
H3509 H 0.9338 0.72533 0.1027 0.0
H3510 H 0.93794 0.73804 0.13703 0.0
H3511 H 0.90543 0.81171 0.21753 0.0
H3512 H 0.93061 0.81153 0.20062 0.0
H3513 H 0.91481 0.75008 0.18662 0.0
H3514 H 0.88926 0.75014 0.20332 0.0
H3515 H 0.92729 0.76654 0.15628 0.0
H3516 H 0.94639 0.76996 0.22183 0.0
H3517 H 0.94954 0.78257 0.25609 0.0
H3518 H 0.97746 0.83752 0.24723 0.0
H3519 H 0.97426 0.82529 0.21284 0.0
C3520 C 0.0076 0.76809 0.13941 0.0
C3521 C 0.02053 0.78539 0.14195 0.0
C3522 C 0.99188 0.76724 0.14701 0.0
C3523 C 0.98848 0.78373 0.15715 0.0
C3524 C 1.00143 0.80102 0.1598 0.0
C3525 C 0.01724 0.80185 0.15231 0.0
C3526 C 0.97181 0.78283 0.16564 0.0
C3527 C 0.97281 0.79047 0.18498 0.0
C3528 C 0.95508 0.77393 0.15521 0.0
C3529 C 0.95274 0.76621 0.13457 0.0
C3530 C 0.95954 0.77782 0.12183 0.0
C3531 C 0.95717 0.77047 0.10239 0.0
C3532 C 0.94793 0.75156 0.09551 0.0
C3533 C 0.94099 0.73997 0.10805 0.0
C3534 C 0.94333 0.74724 0.1275 0.0
C3535 C 0.90709 0.79813 0.21063 0.0
C3536 C 0.89524 0.78093 0.2119 0.0
C3537 C 0.92162 0.79805 0.20105 0.0
C3538 C 0.92479 0.78079 0.19247 0.0
C3539 C 0.91272 0.76359 0.19314 0.0
C3540 C 0.89818 0.76365 0.20285 0.0
C3541 C 0.94113 0.78082 0.18365 0.0
C3542 C 0.94004 0.77294 0.16439 0.0
C3543 C 0.9578 0.78941 0.1941 0.0
C3544 C 0.95996 0.79676 0.21476 0.0
C3545 C 0.9531 0.78477 0.22718 0.0
C3546 C 0.95491 0.79184 0.24661 0.0
C3547 C 0.96366 0.81084 0.25383 0.0
C3548 C 0.97067 0.8228 0.24162 0.0
C3549 C 0.96888 0.81581 0.22216 0.0
H3550 H 0.96505 0.81629 0.26889 0.0
H3551 H 0.9461 0.74591 0.08046 0.0
H3552 H 0.50373 0.31234 0.13668 0.0
H3553 H 0.51238 0.34116 0.1231 0.0
H3554 H 0.52633 0.30789 0.07461 0.0
H3555 H 0.51907 0.27941 0.08908 0.0
H3556 H 0.54967 0.33865 0.08446 0.0
H3557 H 0.48614 0.32501 0.07573 0.0
H3558 H 0.45725 0.31943 0.08679 0.0
H3559 H 0.47255 0.37426 0.1235 0.0
H3560 H 0.50158 0.38007 0.11279 0.0
H3561 H 0.54284 0.40047 0.0172 0.0
H3562 H 0.54138 0.37473 0.03547 0.0
H3563 H 0.53771 0.41317 0.08588 0.0
H3564 H 0.53925 0.43872 0.06783 0.0
H3565 H 0.51056 0.38166 0.07725 0.0
H3566 H 0.57267 0.39653 0.08479 0.0
H3567 H 0.60234 0.4024 0.07578 0.0
H3568 H 0.59017 0.34594 0.04239 0.0
H3569 H 0.56035 0.33982 0.05101 0.0
C3570 C 0.50855 0.31127 0.12306 0.0
C3571 C 0.51066 0.29383 0.11373 0.0
C3572 C 0.51339 0.32767 0.11526 0.0
C3573 C 0.51964 0.32662 0.09761 0.0
C3574 C 0.52153 0.30904 0.08824 0.0
C3575 C 0.51731 0.2928 0.09639 0.0
C3576 C 0.52463 0.34385 0.08904 0.0
C3577 C 0.54098 0.34788 0.08259 0.0
C3578 C 0.51361 0.35634 0.08736 0.0
C3579 C 0.49606 0.3529 0.09356 0.0
C3580 C 0.48336 0.33583 0.08621 0.0
C3581 C 0.46696 0.33263 0.09241 0.0
C3582 C 0.46308 0.34646 0.10586 0.0
C3583 C 0.47557 0.36355 0.11309 0.0
C3584 C 0.49198 0.36682 0.10694 0.0
C3585 C 0.54221 0.4036 0.03227 0.0
C3586 C 0.54105 0.42175 0.04106 0.0
C3587 C 0.54139 0.38888 0.04268 0.0
C3588 C 0.53944 0.39213 0.06198 0.0
C3589 C 0.5392 0.4104 0.07097 0.0
C3590 C 0.54001 0.42502 0.06061 0.0
C3591 C 0.53534 0.37607 0.07221 0.0
C3592 C 0.51919 0.37235 0.07905 0.0
C3593 C 0.54652 0.36388 0.07421 0.0
C3594 C 0.5642 0.3678 0.06836 0.0
C3595 C 0.57623 0.38546 0.07531 0.0
C3596 C 0.59311 0.38881 0.07034 0.0
C3597 C 0.59812 0.37457 0.05848 0.0
C3598 C 0.58626 0.35697 0.05155 0.0
C3599 C 0.56938 0.35355 0.05648 0.0
H3600 H 0.61121 0.37717 0.05471 0.0
H3601 H 0.45039 0.34395 0.11066 0.0
H3602 H 0.03244 0.26999 0.3193 0.0
H3603 H 1.00245 0.27045 0.30816 0.0
H3604 H 0.01002 0.32611 0.34272 0.0
H3605 H 0.03986 0.32605 0.3536 0.0
H3606 H 0.97924 0.29681 0.34693 0.0
H3607 H 0.00954 0.32796 0.30111 0.0
H3608 H 0.02989 0.33084 0.27728 0.0
H3609 H 0.9987 0.27877 0.24269 0.0
H3610 H 0.97827 0.27547 0.26649 0.0
H3611 H 0.90907 0.33242 0.31544 0.0
H3612 H 0.93764 0.32726 0.32481 0.0
H3613 H 0.92696 0.27765 0.28032 0.0
H3614 H 0.89837 0.28295 0.27069 0.0
H3615 H 0.95867 0.30075 0.28079 0.0
H3616 H 0.92611 0.27241 0.32674 0.0
H3617 H 0.90634 0.27161 0.35121 0.0
H3618 H 0.94218 0.32034 0.38636 0.0
H3619 H 0.96208 0.32155 0.36202 0.0
C3620 C 0.02774 0.28239 0.32431 0.0
C3621 C 0.03844 0.29796 0.33725 0.0
C3622 C 0.01069 0.2826 0.31801 0.0
C3623 C 0.00421 0.29826 0.32482 0.0
C3624 C 0.01491 0.3139 0.33749 0.0
C3625 C 0.03196 0.31385 0.34353 0.0
C3626 C 0.98616 0.29838 0.3189 0.0
C3627 C 0.97466 0.29771 0.33251 0.0
C3628 C 0.98041 0.29933 0.30007 0.0
C3629 C 0.99252 0.30135 0.28565 0.0
C3630 C 0.00712 0.31704 0.2885 0.0
C3631 C 0.01864 0.31877 0.27499 0.0
C3632 C 0.01563 0.30496 0.25851 0.0
C3633 C 1.00103 0.28944 0.25548 0.0
C3634 C 0.98947 0.28764 0.26896 0.0
C3635 C 0.91278 0.32031 0.30782 0.0
C3636 C 0.90163 0.30804 0.29241 0.0
C3637 C 0.92902 0.31735 0.31318 0.0
C3638 C 0.9342 0.30191 0.3034 0.0
C3639 C 0.92309 0.2896 0.28802 0.0
C3640 C 0.90686 0.29265 0.28254 0.0
C3641 C 0.95158 0.29917 0.30882 0.0
C3642 C 0.96305 0.29944 0.29514 0.0
C3643 C 0.95733 0.29803 0.32768 0.0
C3644 C 0.94554 0.29711 0.34251 0.0
C3645 C 0.92974 0.28299 0.33966 0.0
C3646 C 0.91851 0.28247 0.35351 0.0
C3647 C 0.92299 0.29593 0.37032 0.0
C3648 C 0.93873 0.30991 0.37334 0.0
C3649 C 0.95001 0.3105 0.35954 0.0
H3650 H 0.91427 0.29551 0.38101 0.0
H3651 H 0.02457 0.30631 0.24807 0.0
H3652 H 0.01063 0.71795 0.58309 0.0
H3653 H 0.01781 0.68843 0.56988 0.0
H3654 H 0.99054 0.65958 0.61036 0.0
H3655 H 0.98346 0.68921 0.62394 0.0
H3656 H 0.02319 0.65203 0.60689 0.0
H3657 H 0.97111 0.64998 0.56675 0.0
H3658 H 0.95185 0.66359 0.54709 0.0
H3659 H 0.99024 0.67347 0.50917 0.0
H3660 H 0.0098 0.66009 0.52873 0.0
H3661 H 0.02652 0.56146 0.55231 0.0
H3662 H 0.01909 0.58813 0.57198 0.0
H3663 H 0.03852 0.62501 0.5332 0.0
H3664 H 0.04543 0.59818 0.51332 0.0
H3665 H 0.00655 0.62568 0.53818 0.0
H3666 H 0.05945 0.62911 0.57966 0.0
H3667 H 0.07872 0.61604 0.5999 0.0
H3668 H 0.03882 0.60326 0.63559 0.0
H3669 H 0.01924 0.61607 0.61543 0.0
C3670 C 0.00597 0.7053 0.58905 0.0
C3671 C 0.99639 0.70585 0.60444 0.0
C3672 C 0.01014 0.68849 0.58155 0.0
C3673 C 0.0046 0.67192 0.58915 0.0
C3674 C 0.99492 0.6723 0.6044 0.0
C3675 C 0.99078 0.68917 0.61198 0.0
C3676 C 0.00882 0.65419 0.58078 0.0
C3677 C 0.01937 0.64599 0.59193 0.0
C3678 C 0.00384 0.64655 0.56132 0.0
C3679 C 0.99192 0.6541 0.54923 0.0
C3680 C 0.97545 0.6551 0.55424 0.0
C3681 C 0.96449 0.66278 0.54312 0.0
C3682 C 0.96982 0.66941 0.5269 0.0
C3683 C 0.98611 0.66831 0.52172 0.0
C3684 C 0.99712 0.66064 0.53279 0.0
C3685 C 0.02966 0.57544 0.54841 0.0
C3686 C 0.03661 0.57803 0.53154 0.0
C3687 C 0.0254 0.59061 0.55958 0.0
C3688 C 0.02836 0.60853 0.55406 0.0
C3689 C 0.03611 0.61124 0.53763 0.0
C3690 C 0.04004 0.59601 0.52632 0.0
C3691 C 0.02167 0.62393 0.56402 0.0
C3692 C 0.01038 0.63156 0.55317 0.0
C3693 C 0.02598 0.63092 0.58374 0.0
C3694 C 0.03782 0.62337 0.59592 0.0
C3695 C 0.05474 0.62339 0.59174 0.0
C3696 C 0.06573 0.61605 0.60322 0.0
C3697 C 0.05998 0.60877 0.61899 0.0
C3698 C 0.04325 0.60888 0.62335 0.0
C3699 C 0.03221 0.6162 0.61192 0.0
H3700 H 0.0685 0.60309 0.62784 0.0
H3701 H 0.96133 0.67539 0.51833 0.0
H3702 H 0.63006 0.83592 0.84237 0.0
H3703 H 0.65357 0.83616 0.82268 0.0
H3704 H 0.66203 0.78512 0.84112 0.0
H3705 H 0.63936 0.78558 0.8616 0.0
H3706 H 0.69099 0.80894 0.84293 0.0
H3707 H 0.63929 0.7868 0.79617 0.0
H3708 H 0.61209 0.78876 0.77805 0.0
H3709 H 0.63968 0.83889 0.75936 0.0
H3710 H 0.66697 0.83741 0.77762 0.0
H3711 H 0.73432 0.76726 0.77727 0.0
H3712 H 0.70805 0.77321 0.78904 0.0
H3713 H 0.72382 0.83203 0.78227 0.0
H3714 H 0.75045 0.82635 0.77059 0.0
H3715 H 0.68424 0.80962 0.77384 0.0
H3716 H 0.73648 0.82917 0.82047 0.0
H3717 H 0.7631 0.82406 0.837 0.0
H3718 H 0.73272 0.77498 0.85501 0.0
H3719 H 0.70595 0.7795 0.83816 0.0
C3720 C 0.63711 0.82489 0.84225 0.0
C3721 C 0.63317 0.8108 0.85348 0.0
C3722 C 0.65034 0.82492 0.8309 0.0
C3723 C 0.6593 0.81051 0.83026 0.0
C3724 C 0.65526 0.79641 0.84148 0.0
C3725 C 0.64241 0.7967 0.85321 0.0
C3726 C 0.67355 0.81039 0.81872 0.0
C3727 C 0.6894 0.80896 0.8278 0.0
C3728 C 0.67164 0.81109 0.7991 0.0
C3729 C 0.65512 0.81215 0.7885 0.0
C3730 C 0.63951 0.79837 0.78839 0.0
C3731 C 0.62409 0.79937 0.77805 0.0
C3732 C 0.62414 0.81398 0.76762 0.0
C3733 C 0.63963 0.82762 0.76749 0.0
C3734 C 0.65508 0.82671 0.77784 0.0
C3735 C 0.73203 0.78135 0.77778 0.0
C3736 C 0.74456 0.7965 0.77347 0.0
C3737 C 0.717 0.78466 0.78441 0.0
C3738 C 0.71433 0.80305 0.78661 0.0
C3739 C 0.72588 0.81777 0.78058 0.0
C3740 C 0.74107 0.81453 0.7741 0.0
C3741 C 0.70109 0.80737 0.79804 0.0
C3742 C 0.68566 0.80979 0.78901 0.0
C3743 C 0.70316 0.80722 0.81767 0.0
C3744 C 0.71926 0.80453 0.82782 0.0
C3745 C 0.7355 0.81714 0.82773 0.0
C3746 C 0.75061 0.81438 0.83718 0.0
C3747 C 0.74958 0.79917 0.84694 0.0
C3748 C 0.73348 0.78672 0.84736 0.0
C3749 C 0.71834 0.78936 0.83785 0.0
H3750 H 0.76128 0.79707 0.85419 0.0
H3751 H 0.6122 0.81471 0.75959 0.0
H3752 H 0.4806 0.56518 0.71883 0.0
H3753 H 0.49268 0.56135 0.68912 0.0
H3754 H 0.44105 0.5464 0.65816 0.0
H3755 H 0.42867 0.54965 0.68842 0.0
H3756 H 0.45897 0.52549 0.63905 0.0
H3757 H 0.4751 0.59376 0.66374 0.0
H3758 H 0.48862 0.62287 0.68746 0.0
H3759 H 0.53805 0.60858 0.68826 0.0
H3760 H 0.52479 0.57929 0.66472 0.0
H3761 H 0.49473 0.53319 0.54933 0.0
H3762 H 0.47876 0.53522 0.57717 0.0
H3763 H 0.52754 0.55754 0.61388 0.0
H3764 H 0.5431 0.55627 0.58655 0.0
H3765 H 0.50933 0.57549 0.62919 0.0
H3766 H 0.49615 0.50825 0.6082 0.0
H3767 H 0.48524 0.4776 0.58597 0.0
H3768 H 0.43396 0.48733 0.58006 0.0
H3769 H 0.44464 0.51818 0.60209 0.0
C3770 C 0.47158 0.5611 0.70582 0.0
C3771 C 0.45339 0.55795 0.70663 0.0
C3772 C 0.47869 0.55905 0.68846 0.0
C3773 C 0.46814 0.55407 0.67064 0.0
C3774 C 0.44987 0.55043 0.67131 0.0
C3775 C 0.44267 0.55235 0.68885 0.0
C3776 C 0.47624 0.5527 0.65173 0.0
C3777 C 0.46981 0.53668 0.63691 0.0
C3778 C 0.49097 0.56664 0.64843 0.0
C3779 C 0.4989 0.58426 0.66258 0.0
C3780 C 0.48882 0.59678 0.66906 0.0
C3781 C 0.49645 0.61332 0.68246 0.0
C3782 C 0.51417 0.61755 0.68939 0.0
C3783 C 0.52432 0.60528 0.6829 0.0
C3784 C 0.51676 0.58872 0.66952 0.0
C3785 C 0.50206 0.53851 0.56332 0.0
C3786 C 0.52047 0.54459 0.56521 0.0
C3787 C 0.49284 0.53958 0.57954 0.0
C3788 C 0.5016 0.54648 0.59841 0.0
C3789 C 0.51995 0.55233 0.60001 0.0
C3790 C 0.52902 0.55147 0.58401 0.0
C3791 C 0.49224 0.54816 0.61647 0.0
C3792 C 0.49846 0.56427 0.63119 0.0
C3793 C 0.47771 0.53405 0.61987 0.0
C3794 C 0.47124 0.51561 0.6066 0.0
C3795 C 0.48258 0.50392 0.60204 0.0
C3796 C 0.47643 0.4865 0.5895 0.0
C3797 C 0.45893 0.48055 0.58156 0.0
C3798 C 0.44753 0.49198 0.58619 0.0
C3799 C 0.45362 0.50943 0.5987 0.0
H3800 H 0.45419 0.46706 0.57186 0.0
H3801 H 0.52004 0.63036 0.69976 0.0
H3802 H 0.79423 0.17408 0.98246 0.0
H3803 H 0.78755 0.18607 0.95353 0.0
H3804 H 0.73262 0.16922 0.95789 0.0
H3805 H 0.73911 0.1572 0.98693 0.0
H3806 H 0.74396 0.15927 0.91972 0.0
H3807 H 0.74873 0.21208 0.97155 0.0
H3808 H 0.7636 0.23339 1.00134 0.0
H3809 H 0.8085 0.25267 0.97408 0.0
H3810 H 0.79401 0.23122 0.9442 0.0
H3811 H 0.72603 0.22277 0.85446 0.0
H3812 H 0.72485 0.20539 0.88131 0.0
H3813 H 0.78098 0.21653 0.88876 0.0
H3814 H 0.78213 0.23322 0.8619 0.0
H3815 H 0.7646 0.22902 0.92146 0.0
H3816 H 0.76393 0.1764 0.87245 0.0
H3817 H 0.75266 0.15446 0.84203 0.0
H3818 H 0.70425 0.13394 0.86286 0.0
H3819 H 0.71509 0.15619 0.8933 0.0
C3820 C 0.78073 0.17296 0.97728 0.0
C3821 C 0.76718 0.16493 0.98697 0.0
C3822 C 0.77697 0.1797 0.96077 0.0
C3823 C 0.75963 0.17843 0.95379 0.0
C3824 C 0.74604 0.17017 0.9632 0.0
C3825 C 0.7498 0.16356 0.97982 0.0
C3826 C 0.75592 0.18677 0.93718 0.0
C3827 C 0.74806 0.17455 0.92009 0.0
C3828 C 0.76178 0.20662 0.93785 0.0
C3829 C 0.7703 0.21997 0.95566 0.0
C3830 C 0.7618 0.22079 0.97193 0.0
C3831 C 0.77017 0.2329 0.98883 0.0
C3832 C 0.78699 0.24436 0.98961 0.0
C3833 C 0.79547 0.24379 0.97346 0.0
C3834 C 0.78717 0.23168 0.95653 0.0
C3835 C 0.73796 0.22104 0.86169 0.0
C3836 C 0.75413 0.22899 0.8563 0.0
C3837 C 0.73731 0.21126 0.87689 0.0
C3838 C 0.75286 0.20989 0.88682 0.0
C3839 C 0.76892 0.21753 0.88112 0.0
C3840 C 0.76955 0.22689 0.86582 0.0
C3841 C 0.75276 0.20154 0.90395 0.0
C3842 C 0.76001 0.2138 0.92115 0.0
C3843 C 0.74673 0.18172 0.90324 0.0
C3844 C 0.7402 0.16822 0.88503 0.0
C3845 C 0.75078 0.16743 0.87046 0.0
C3846 C 0.7445 0.15489 0.85323 0.0
C3847 C 0.72771 0.14287 0.85048 0.0
C3848 C 0.71722 0.14333 0.86499 0.0
C3849 C 0.72342 0.15592 0.88223 0.0
H3850 H 0.72287 0.13316 0.83714 0.0
H3851 H 0.79345 0.2537 0.00272 0.0
H3852 H 0.10002 0.5268 0.20687 0.0
H3853 H 0.08579 0.53835 0.18102 0.0
H3854 H 0.12945 0.53666 0.14997 0.0
H3855 H 0.14384 0.52545 0.17577 0.0
H3856 H 0.11409 0.56753 0.14517 0.0
H3857 H 0.09929 0.49861 0.14117 0.0
H3858 H 0.09042 0.47035 0.15611 0.0
H3859 H 0.04277 0.48567 0.16677 0.0
H3860 H 0.05152 0.51419 0.15211 0.0
H3861 H 0.07482 0.55041 0.04988 0.0
H3862 H 0.09142 0.55162 0.08022 0.0
H3863 H 0.04325 0.53651 0.10414 0.0
H3864 H 0.02683 0.53163 0.07272 0.0
H3865 H 0.06169 0.51689 0.11455 0.0
H3866 H 0.07638 0.58503 0.11156 0.0
H3867 H 0.08777 0.61216 0.09586 0.0
H3868 H 0.13734 0.5982 0.09701 0.0
H3869 H 0.1262 0.57083 0.11243 0.0
C3870 C 0.10646 0.52876 0.19445 0.0
C3871 C 0.12267 0.52467 0.1929 0.0
C3872 C 0.09857 0.53577 0.18 0.0
C3873 C 0.10669 0.53831 0.16379 0.0
C3874 C 0.12317 0.53495 0.16255 0.0
C3875 C 0.13113 0.52815 0.17704 0.0
C3876 C 0.09667 0.54069 0.14671 0.0
C3877 C 0.1025 0.55668 0.13842 0.0
C3878 C 0.08186 0.52627 0.13801 0.0
C3879 C 0.07606 0.5085 0.14564 0.0
C3880 C 0.08691 0.4959 0.14667 0.0
C3881 C 0.08193 0.47988 0.15513 0.0
C3882 C 0.06605 0.47623 0.16241 0.0
C3883 C 0.05507 0.48852 0.16112 0.0
C3884 C 0.06001 0.50459 0.15272 0.0
C3885 C 0.06788 0.54666 0.06148 0.0
C3886 C 0.04972 0.53995 0.05889 0.0
C3887 C 0.07734 0.5481 0.07904 0.0
C3888 C 0.06861 0.54455 0.09465 0.0
C3889 C 0.05029 0.53918 0.09226 0.0
C3890 C 0.04092 0.53641 0.07438 0.0
C3891 C 0.07837 0.54438 0.11299 0.0
C3892 C 0.07279 0.52835 0.12141 0.0
C3893 C 0.0935 0.55878 0.12154 0.0
C3894 C 0.10042 0.57584 0.11312 0.0
C3895 C 0.08971 0.58776 0.10848 0.0
C3896 C 0.09612 0.60316 0.09959 0.0
C3897 C 0.11326 0.60689 0.09543 0.0
C3898 C 0.12407 0.5953 0.10025 0.0
C3899 C 0.11773 0.57987 0.1091 0.0
H3900 H 0.11816 0.61876 0.08848 0.0
H3901 H 0.06225 0.46387 0.16903 0.0
H3902 H 0.8288 0.85351 0.48045 0.0
H3903 H 0.82445 0.8389 0.44701 0.0
H3904 H 0.77006 0.83891 0.44332 0.0
H3905 H 0.77429 0.8537 0.47695 0.0
H3906 H 0.7762 0.80541 0.42215 0.0
H3907 H 0.79343 0.87222 0.4277 0.0
H3908 H 0.8104 0.90518 0.44049 0.0
H3909 H 0.85661 0.89118 0.42257 0.0
H3910 H 0.83994 0.85799 0.40992 0.0
H3911 H 0.76559 0.79809 0.32172 0.0
H3912 H 0.76632 0.80783 0.3556 0.0
H3913 H 0.82162 0.81243 0.36393 0.0
H3914 H 0.82115 0.80298 0.32964 0.0
H3915 H 0.81283 0.84366 0.38264 0.0
H3916 H 0.79145 0.7746 0.37565 0.0
H3917 H 0.77101 0.74377 0.36121 0.0
H3918 H 0.72817 0.76489 0.3798 0.0
H3919 H 0.74833 0.79593 0.39418 0.0
C3920 C 0.81584 0.85018 0.47267 0.0
C3921 C 0.80194 0.85496 0.48136 0.0
C3922 C 0.81338 0.84184 0.45353 0.0
C3923 C 0.79699 0.83803 0.44266 0.0
C3924 C 0.78282 0.84175 0.45148 0.0
C3925 C 0.78529 0.85025 0.47067 0.0
C3926 C 0.7952 0.83158 0.42185 0.0
C3927 C 0.78408 0.81381 0.41345 0.0
C3928 C 0.80532 0.84266 0.41049 0.0
C3929 C 0.81548 0.86256 0.41807 0.0
C3930 C 0.80725 0.87611 0.42666 0.0
C3931 C 0.8168 0.89485 0.43385 0.0
C3932 C 0.83459 0.90026 0.4324 0.0
C3933 C 0.84284 0.88695 0.42371 0.0
C3934 C 0.83334 0.86817 0.41652 0.0
C3935 C 0.77798 0.80107 0.33065 0.0
C3936 C 0.79337 0.79976 0.32285 0.0
C3937 C 0.7783 0.80653 0.35012 0.0
C3938 C 0.79396 0.8106 0.36234 0.0
C3939 C 0.80936 0.80924 0.35471 0.0
C3940 C 0.80907 0.8038 0.33513 0.0
C3941 C 0.79435 0.81713 0.38298 0.0
C3942 C 0.80509 0.83511 0.39133 0.0
C3943 C 0.78343 0.80647 0.39409 0.0
C3944 C 0.77139 0.78762 0.38591 0.0
C3945 C 0.77766 0.77269 0.37661 0.0
C3946 C 0.76613 0.75518 0.36844 0.0
C3947 C 0.7483 0.75238 0.36957 0.0
C3948 C 0.74198 0.76707 0.37895 0.0
C3949 C 0.75346 0.78461 0.38714 0.0
H3950 H 0.73939 0.73883 0.3632 0.0
H3951 H 0.84197 0.91478 0.43797 0.0
H3952 H 0.48056 0.55926 0.80001 0.0
H3953 H 0.49396 0.55808 0.83149 0.0
H3954 H 0.44447 0.55428 0.85235 0.0
H3955 H 0.43115 0.5566 0.82074 0.0
H3956 H 0.46835 0.57369 0.88026 0.0
H3957 H 0.46594 0.51334 0.8385 0.0
H3958 H 0.47254 0.49421 0.81 0.0
H3959 H 0.5273 0.5191 0.82675 0.0
H3960 H 0.52101 0.5385 0.85521 0.0
H3961 H 0.49235 0.54113 0.96509 0.0
H3962 H 0.47906 0.54452 0.93409 0.0
H3963 H 0.5274 0.54403 0.91167 0.0
H3964 H 0.54036 0.53974 0.94258 0.0
H3965 H 0.50444 0.52722 0.88464 0.0
H3966 H 0.51014 0.58674 0.92425 0.0
H3967 H 0.50724 0.60877 0.95267 0.0
H3968 H 0.45147 0.5901 0.94029 0.0
H3969 H 0.45404 0.56775 0.9119 0.0
C3970 C 0.47243 0.55835 0.81126 0.0
C3971 C 0.45459 0.55797 0.80742 0.0
C3972 C 0.48017 0.55741 0.82947 0.0
C3973 C 0.47034 0.55528 0.84472 0.0
C3974 C 0.4526 0.55565 0.84114 0.0
C3975 C 0.44489 0.55704 0.82289 0.0
C3976 C 0.47848 0.55241 0.864 0.0
C3977 C 0.47598 0.56325 0.88109 0.0
C3978 C 0.48927 0.53948 0.86574 0.0
C3979 C 0.49299 0.52743 0.84889 0.0
C3980 C 0.47938 0.51473 0.83607 0.0
C3981 C 0.48307 0.50387 0.81992 0.0
C3982 C 0.50032 0.50547 0.81655 0.0
C3983 C 0.51394 0.51787 0.82936 0.0
C3984 C 0.51033 0.52878 0.84551 0.0
C3985 C 0.50011 0.54159 0.9535 0.0
C3986 C 0.51746 0.54006 0.95647 0.0
C3987 C 0.49253 0.54379 0.93565 0.0
C3988 C 0.50212 0.54509 0.92009 0.0
C3989 C 0.51944 0.54319 0.92307 0.0
C3990 C 0.52694 0.54072 0.94088 0.0
C3991 C 0.49417 0.54832 0.90092 0.0
C3992 C 0.49673 0.53758 0.88387 0.0
C3993 C 0.48393 0.56178 0.89921 0.0
C3994 C 0.48228 0.57545 0.91603 0.0
C3995 C 0.49725 0.58727 0.92763 0.0
C3996 C 0.49567 0.59982 0.94373 0.0
C3997 C 0.47918 0.6008 0.9483 0.0
C3998 C 0.46424 0.5893 0.93673 0.0
C3999 C 0.46575 0.57671 0.92062 0.0
H4000 H 0.47798 0.6105 0.96079 0.0
H4001 H 0.50314 0.49707 0.80403 0.0
H4002 H 0.76251 0.1612 0.07547 0.0
H4003 H 0.75673 0.18112 0.10355 0.0
H4004 H 0.79968 0.22698 0.09729 0.0
H4005 H 0.80544 0.20733 0.06909 0.0
H4006 H 0.80041 0.21192 0.13303 0.0
H4007 H 0.76344 0.23477 0.08941 0.0
H4008 H 0.73893 0.23214 0.06472 0.0
H4009 H 0.7028 0.20662 0.09976 0.0
H4010 H 0.72713 0.20886 0.12455 0.0
H4011 H 0.80036 0.29181 0.19952 0.0
H4012 H 0.79644 0.27186 0.16811 0.0
H4013 H 0.75474 0.23065 0.18415 0.0
H4014 H 0.75898 0.25032 0.21581 0.0
H4015 H 0.75059 0.24048 0.14438 0.0
H4016 H 0.7862 0.2186 0.18847 0.0
H4017 H 0.8099 0.22125 0.21406 0.0
H4018 H 0.84778 0.2421 0.17861 0.0
H4019 H 0.82426 0.24039 0.15308 0.0
C4020 C 0.77063 0.17559 0.08 0.0
C4021 C 0.78462 0.18266 0.07036 0.0
C4022 C 0.76718 0.18696 0.09586 0.0
C4023 C 0.77778 0.20541 0.10229 0.0
C4024 C 0.79137 0.21273 0.09235 0.0
C4025 C 0.79468 0.20149 0.07636 0.0
C4026 C 0.77622 0.21618 0.12068 0.0
C4027 C 0.78963 0.21836 0.1355 0.0
C4028 C 0.76169 0.22367 0.1239 0.0
C4029 C 0.74714 0.22171 0.10871 0.0
C4030 C 0.7503 0.22832 0.09173 0.0
C4031 C 0.73643 0.22698 0.07775 0.0
C4032 C 0.71933 0.21915 0.08064 0.0
C4033 C 0.71606 0.21264 0.09751 0.0
C4034 C 0.72988 0.21393 0.11153 0.0
C4035 C 0.79006 0.27876 0.19616 0.0
C4036 C 0.77997 0.27245 0.20997 0.0
C4037 C 0.7879 0.26739 0.17833 0.0
C4038 C 0.77542 0.24985 0.17409 0.0
C4039 C 0.76443 0.2442 0.18735 0.0
C4040 C 0.76689 0.25536 0.20536 0.0
C4041 C 0.77509 0.23675 0.15644 0.0
C4042 C 0.76131 0.23394 0.14189 0.0
C4043 C 0.78917 0.22838 0.15349 0.0
C4044 C 0.8034 0.22974 0.16896 0.0
C4045 C 0.79955 0.22417 0.18626 0.0
C4046 C 0.81296 0.2255 0.20076 0.0
C4047 C 0.83033 0.23194 0.198 0.0
C4048 C 0.83431 0.23718 0.18076 0.0
C4049 C 0.82094 0.23613 0.1663 0.0
H4050 H 0.8407 0.23275 0.20918 0.0
H4051 H 0.7086 0.21819 0.06983 0.0
H4052 H 0.16181 0.54543 0.29408 0.0
H4053 H 0.1566 0.55665 0.32622 0.0
H4054 H 0.10384 0.55598 0.30498 0.0
H4055 H 0.10932 0.54571 0.27262 0.0
H4056 H 0.11761 0.58722 0.32919 0.0
H4057 H 0.11523 0.5201 0.32793 0.0
H4058 H 0.12678 0.49142 0.32372 0.0
H4059 H 0.16971 0.5194 0.36709 0.0
H4060 H 0.15852 0.54834 0.37138 0.0
H4061 H 0.06568 0.56791 0.39921 0.0
H4062 H 0.08251 0.57456 0.37362 0.0
H4063 H 0.12992 0.57814 0.41004 0.0
H4064 H 0.11272 0.57033 0.43556 0.0
H4065 H 0.12619 0.55184 0.38125 0.0
H4066 H 0.12283 0.61684 0.38645 0.0
H4067 H 0.10829 0.64327 0.39063 0.0
H4068 H 0.073 0.61714 0.33972 0.0
H4069 H 0.08718 0.59048 0.33532 0.0
C4070 C 0.14904 0.54749 0.29632 0.0
C4071 C 0.13587 0.5446 0.28098 0.0
C4072 C 0.14611 0.55392 0.31467 0.0
C4073 C 0.1298 0.55698 0.31798 0.0
C4074 C 0.11656 0.5538 0.30268 0.0
C4075 C 0.11962 0.54781 0.28427 0.0
C4076 C 0.12641 0.56353 0.33737 0.0
C4077 C 0.11944 0.5795 0.34062 0.0
C4078 C 0.12946 0.55387 0.3524 0.0
C4079 C 0.13617 0.53646 0.3498 0.0
C4080 C 0.12721 0.52018 0.33645 0.0
C4081 C 0.13367 0.50387 0.33408 0.0
C4082 C 0.149 0.50361 0.34508 0.0
C4083 C 0.15787 0.51964 0.35854 0.0
C4084 C 0.15147 0.53599 0.36095 0.0
C4085 C 0.07976 0.571 0.40202 0.0
C4086 C 0.08795 0.56847 0.41916 0.0
C4087 C 0.08945 0.57494 0.38739 0.0
C4088 C 0.10754 0.57696 0.38989 0.0
C4089 C 0.11597 0.57661 0.40781 0.0
C4090 C 0.1062 0.57221 0.42235 0.0
C4091 C 0.11665 0.57513 0.37298 0.0
C4092 C 0.12482 0.56003 0.37011 0.0
C4093 C 0.11438 0.58538 0.35821 0.0
C4094 C 0.10612 0.60168 0.36055 0.0
C4095 C 0.11196 0.61673 0.37616 0.0
C4096 C 0.10377 0.63175 0.37856 0.0
C4097 C 0.08974 0.63189 0.36544 0.0
C4098 C 0.0839 0.61705 0.34984 0.0
C4099 C 0.09205 0.60202 0.34735 0.0
H4100 H 0.08339 0.64351 0.36736 0.0
H4101 H 0.15399 0.49097 0.34322 0.0
H4102 H 0.76374 0.84095 0.57026 0.0
H4103 H 0.76516 0.82865 0.59988 0.0
H4104 H 0.81745 0.8638 0.61681 0.0
H4105 H 0.81614 0.87633 0.5871 0.0
H4106 H 0.81246 0.82519 0.62433 0.0
H4107 H 0.78603 0.87875 0.63539 0.0
H4108 H 0.76447 0.8968 0.62778 0.0
H4109 H 0.72282 0.84893 0.63164 0.0
H4110 H 0.74414 0.83052 0.63904 0.0
H4111 H 0.81632 0.81643 0.72249 0.0
H4112 H 0.81795 0.82865 0.69258 0.0
H4113 H 0.76289 0.80359 0.67617 0.0
H4114 H 0.7612 0.79167 0.70593 0.0
H4115 H 0.77037 0.83774 0.6684 0.0
H4116 H 0.79359 0.78355 0.65632 0.0
H4117 H 0.81277 0.76225 0.66163 0.0
H4118 H 0.85748 0.8065 0.6573 0.0
H4119 H 0.83856 0.82817 0.65219 0.0
C4120 C 0.77561 0.84606 0.58021 0.0
C4121 C 0.78979 0.85978 0.57629 0.0
C4122 C 0.77638 0.83899 0.59718 0.0
C4123 C 0.79137 0.84538 0.61067 0.0
C4124 C 0.80575 0.85865 0.60662 0.0
C4125 C 0.80494 0.86589 0.58967 0.0
C4126 C 0.79161 0.8388 0.62929 0.0
C4127 C 0.80348 0.8282 0.63414 0.0
C4128 C 0.77947 0.84208 0.6418 0.0
C4129 C 0.76667 0.85323 0.63762 0.0
C4130 C 0.77227 0.87204 0.6345 0.0
C4131 C 0.76009 0.88234 0.63024 0.0
C4132 C 0.74228 0.874 0.62918 0.0
C4133 C 0.73661 0.85537 0.63245 0.0
C4134 C 0.74874 0.845 0.6367 0.0
C4135 C 0.80457 0.81368 0.71253 0.0
C4136 C 0.78862 0.80312 0.71659 0.0
C4137 C 0.80553 0.82051 0.69536 0.0
C4138 C 0.79057 0.81691 0.68194 0.0
C4139 C 0.77463 0.80661 0.6862 0.0
C4140 C 0.77368 0.79978 0.70326 0.0
C4141 C 0.79127 0.82411 0.66362 0.0
C4142 C 0.77951 0.83481 0.65875 0.0
C4143 C 0.80321 0.82047 0.65093 0.0
C4144 C 0.81468 0.80758 0.65414 0.0
C4145 C 0.80753 0.78881 0.6567 0.0
C4146 C 0.81835 0.77666 0.65962 0.0
C4147 C 0.83634 0.78305 0.65988 0.0
C4148 C 0.84354 0.80159 0.65714 0.0
C4149 C 0.83277 0.81382 0.65422 0.0
H4150 H 0.84469 0.77361 0.66213 0.0
H4151 H 0.73288 0.882 0.62587 0.0
H4152 H 0.73484 0.41967 0.51323 0.0
H4153 H 0.71205 0.43442 0.52397 0.0
H4154 H 0.74093 0.48887 0.51404 0.0
H4155 H 0.76401 0.47435 0.50362 0.0
H4156 H 0.72601 0.49087 0.5483 0.0
H4157 H 0.70935 0.46396 0.48079 0.0
H4158 H 0.70502 0.43692 0.45422 0.0
H4159 H 0.66702 0.40262 0.48157 0.0
H4160 H 0.67124 0.42946 0.50837 0.0
H4161 H 0.66474 0.54389 0.53325 0.0
H4162 H 0.68753 0.52663 0.53312 0.0
H4163 H 0.6494 0.47446 0.53473 0.0
H4164 H 0.62643 0.49165 0.53437 0.0
H4165 H 0.66826 0.46849 0.50849 0.0
H4166 H 0.68108 0.49761 0.5737 0.0
H4167 H 0.68689 0.52349 0.60158 0.0
H4168 H 0.73254 0.55268 0.58071 0.0
H4169 H 0.72691 0.52708 0.5526 0.0
C4170 C 0.7363 0.43476 0.51323 0.0
C4171 C 0.75103 0.44585 0.50735 0.0
C4172 C 0.72338 0.44315 0.51952 0.0
C4173 C 0.72493 0.46264 0.5197 0.0
C4174 C 0.73968 0.47381 0.51408 0.0
C4175 C 0.75269 0.46546 0.50793 0.0
C4176 C 0.71048 0.47106 0.52425 0.0
C4177 C 0.71336 0.48614 0.53964 0.0
C4178 C 0.69399 0.46433 0.51317 0.0
C4179 C 0.69061 0.44866 0.49654 0.0
C4180 C 0.70002 0.45066 0.48108 0.0
C4181 C 0.69762 0.43537 0.46601 0.0
C4182 C 0.68576 0.41806 0.46621 0.0
C4183 C 0.67618 0.41605 0.48142 0.0
C4184 C 0.67853 0.43131 0.49652 0.0
C4185 C 0.66129 0.52881 0.53388 0.0
C4186 C 0.6439 0.51906 0.53384 0.0
C4187 C 0.67431 0.51899 0.53394 0.0
C4188 C 0.67016 0.49936 0.53431 0.0
C4189 C 0.65283 0.48965 0.5346 0.0
C4190 C 0.63976 0.49943 0.53431 0.0
C4191 C 0.6837 0.48871 0.53253 0.0
C4192 C 0.68072 0.47315 0.51752 0.0
C4193 C 0.70006 0.49498 0.5441 0.0
C4194 C 0.7035 0.51046 0.56097 0.0
C4195 C 0.69229 0.50961 0.57499 0.0
C4196 C 0.69557 0.52422 0.59085 0.0
C4197 C 0.71006 0.53973 0.5929 0.0
C4198 C 0.72132 0.54065 0.57911 0.0
C4199 C 0.71811 0.52608 0.56322 0.0
H4200 H 0.71257 0.55102 0.60519 0.0
H4201 H 0.68398 0.4062 0.45459 0.0
H4202 H 0.22553 0.12719 0.47598 0.0
H4203 H 0.19581 0.10785 0.47618 0.0
H4204 H 0.19204 0.1438 0.52822 0.0
H4205 H 0.2214 0.1631 0.52804 0.0
H4206 H 0.17929 0.10632 0.52974 0.0
H4207 H 0.17197 0.149 0.48734 0.0
H4208 H 0.17702 0.16477 0.45977 0.0
H4209 H 0.1592 0.11051 0.4223 0.0
H4210 H 0.15429 0.09437 0.44971 0.0
H4211 H 0.08729 0.07495 0.53093 0.0
H4212 H 0.11694 0.09435 0.53107 0.0
H4213 H 0.11871 0.06309 0.47565 0.0
H4214 H 0.089 0.04423 0.47524 0.0
H4215 H 0.1328 0.09845 0.47618 0.0
H4216 H 0.13986 0.05577 0.51942 0.0
H4217 H 0.13485 0.04072 0.54746 0.0
H4218 H 0.15318 0.09553 0.58388 0.0
H4219 H 0.15805 0.11095 0.55603 0.0
C4220 C 0.21838 0.1309 0.48749 0.0
C4221 C 0.22589 0.14678 0.50194 0.0
C4222 C 0.20135 0.11988 0.48756 0.0
C4223 C 0.19155 0.12439 0.50218 0.0
C4224 C 0.19923 0.13996 0.51679 0.0
C4225 C 0.21607 0.15107 0.5166 0.0
C4226 C 0.17325 0.11315 0.50229 0.0
C4227 C 0.16908 0.10473 0.51809 0.0
C4228 C 0.15989 0.11084 0.48706 0.0
C4229 C 0.16298 0.12046 0.47058 0.0
C4230 C 0.16931 0.14041 0.47324 0.0
C4231 C 0.17211 0.14942 0.45764 0.0
C4232 C 0.16849 0.13864 0.4393 0.0
C4233 C 0.16203 0.11883 0.43652 0.0
C4234 C 0.15924 0.10975 0.45208 0.0
C4235 C 0.09399 0.07231 0.51876 0.0
C4236 C 0.08576 0.05798 0.5031 0.0
C4237 C 0.11104 0.08331 0.51889 0.0
C4238 C 0.12038 0.08007 0.5035 0.0
C4239 C 0.11196 0.06597 0.48775 0.0
C4240 C 0.09491 0.05512 0.48754 0.0
C4241 C 0.13877 0.09132 0.50355 0.0
C4242 C 0.14297 0.09986 0.48781 0.0
C4243 C 0.15215 0.09378 0.51888 0.0
C4244 C 0.14913 0.08453 0.53562 0.0
C4245 C 0.14268 0.06463 0.5334 0.0
C4246 C 0.13989 0.05603 0.54926 0.0
C4247 C 0.14364 0.06717 0.56744 0.0
C4248 C 0.15023 0.08693 0.56979 0.0
C4249 C 0.15302 0.0956 0.55397 0.0
H4250 H 0.14148 0.06048 0.5797 0.0
H4251 H 0.17064 0.14565 0.42724 0.0
H4252 H 0.19057 0.96038 0.79105 0.0
H4253 H 0.2045 0.93381 0.79309 0.0
H4254 H 0.20258 0.92311 0.73234 0.0
H4255 H 0.1882 0.94879 0.7303 0.0
H4256 H 0.19763 0.89089 0.73902 0.0
H4257 H 0.24311 0.94505 0.77176 0.0
H4258 H 0.25615 0.97358 0.79634 0.0
H4259 H 0.24537 0.94019 0.83989 0.0
H4260 H 0.23212 0.91149 0.81555 0.0
H4261 H 0.25337 0.82536 0.73301 0.0
H4262 H 0.23936 0.85183 0.73249 0.0
H4263 H 0.24443 0.86207 0.79354 0.0
H4264 H 0.25966 0.83645 0.7939 0.0
H4265 H 0.24709 0.8941 0.78742 0.0
H4266 H 0.20136 0.8399 0.75452 0.0
H4267 H 0.1882 0.81152 0.72986 0.0
H4268 H 0.19948 0.84496 0.68644 0.0
H4269 H 0.21274 0.87357 0.71088 0.0
C4270 C 0.19318 0.95252 0.77808 0.0
C4271 C 0.18801 0.9574 0.76049 0.0
C4272 C 0.20142 0.93709 0.77923 0.0
C4273 C 0.20527 0.92584 0.76288 0.0
C4274 C 0.20007 0.93087 0.74543 0.0
C4275 C 0.19174 0.94601 0.74428 0.0
C4276 C 0.21425 0.9089 0.76348 0.0
C4277 C 0.20859 0.89196 0.74959 0.0
C4278 C 0.22847 0.90905 0.77726 0.0
C4279 C 0.23646 0.92621 0.79186 0.0
C4280 C 0.24344 0.94383 0.78658 0.0
C4281 C 0.25088 0.96002 0.80046 0.0
C4282 C 0.25154 0.95871 0.81966 0.0
C4283 C 0.24482 0.94119 0.82502 0.0
C4284 C 0.23736 0.92496 0.81119 0.0
C4285 C 0.25132 0.83304 0.74637 0.0
C4286 C 0.25752 0.82809 0.76348 0.0
C4287 C 0.24298 0.84838 0.74612 0.0
C4288 C 0.23983 0.85937 0.76297 0.0
C4289 C 0.2462 0.85435 0.78009 0.0
C4290 C 0.25492 0.83932 0.78033 0.0
C4291 C 0.23049 0.8761 0.76292 0.0
C4292 C 0.23609 0.893 0.77688 0.0
C4293 C 0.21619 0.87592 0.74919 0.0
C4294 C 0.20815 0.85881 0.73451 0.0
C4295 C 0.20107 0.84117 0.73971 0.0
C4296 C 0.19359 0.82505 0.72577 0.0
C4297 C 0.19306 0.82639 0.70659 0.0
C4298 C 0.19992 0.84392 0.7013 0.0
C4299 C 0.20738 0.8601 0.71519 0.0
H4300 H 0.18728 0.81387 0.69582 0.0
H4301 H 0.25729 0.97126 0.83039 0.0
H4302 H 0.34574 0.97722 0.00333 0.0
H4303 H 0.37683 0.99214 0.00539 0.0
H4304 H 0.38786 0.96183 0.05007 0.0
H4305 H 0.35689 0.94694 0.04826 0.0
H4306 H 0.40874 0.99927 0.05537 0.0
H4307 H 0.39007 0.9417 0.00746 0.0
H4308 H 0.37288 0.92016 0.97881 0.0
H4309 H 0.38863 0.96349 0.94553 0.0
H4310 H 0.4058 0.98534 0.97404 0.0
H4311 H 0.49595 0.99478 0.0464 0.0
H4312 H 0.46474 0.98779 0.04937 0.0
H4313 H 0.45504 0.01053 0.99858 0.0
H4314 H 0.48579 0.01627 0.99496 0.0
H4315 H 0.43313 0.97882 0.99692 0.0
H4316 H 0.45524 0.03527 0.04507 0.0
H4317 H 0.47428 0.05479 0.07363 0.0
H4318 H 0.45323 0.01312 0.10676 0.0
H4319 H 0.43434 0.9931 0.07831 0.0
C4320 C 0.35475 0.97408 0.01388 0.0
C4321 C 0.349 0.96074 0.02545 0.0
C4322 C 0.37243 0.98258 0.01501 0.0
C4323 C 0.38444 0.97782 0.02772 0.0
C4324 C 0.37865 0.96561 0.04021 0.0
C4325 C 0.361 0.95706 0.03906 0.0
C4326 C 0.40308 0.98382 0.0266 0.0
C4327 C 0.41419 0.99488 0.04265 0.0
C4328 C 0.40992 0.97805 0.0099 0.0
C4329 C 0.39898 0.96524 0.99293 0.0
C4330 C 0.38966 0.94672 0.99409 0.0
C4331 C 0.37999 0.93443 0.97786 0.0
C4332 C 0.37961 0.94048 0.96038 0.0
C4333 C 0.38889 0.95884 0.95909 0.0
C4334 C 0.39859 0.97118 0.97527 0.0
C4335 C 0.48699 0.99794 0.0358 0.0
C4336 C 0.49296 0.00558 0.02026 0.0
C4337 C 0.46933 0.99427 0.03764 0.0
C4338 C 0.45772 0.99894 0.02433 0.0
C4339 C 0.46382 0.00677 0.00893 0.0
C4340 C 0.4813 0.00985 0.00678 0.0
C4341 C 0.43899 0.99464 0.0256 0.0
C4342 C 0.42779 0.98368 0.00958 0.0
C4343 C 0.43219 1.00051 0.04234 0.0
C4344 C 0.44344 0.01263 0.05951 0.0
C4345 C 0.45476 0.03019 0.05841 0.0
C4346 C 0.46554 0.04133 0.07458 0.0
C4347 C 0.46501 0.03514 0.09198 0.0
C4348 C 0.45367 0.01783 0.09325 0.0
C4349 C 0.44292 0.00659 0.07712 0.0
H4350 H 0.47337 0.04378 0.10448 0.0
H4351 H 0.37217 0.93091 0.94783 0.0
H4352 H 0.8672 0.55989 0.779 0.0
H4353 H 0.85327 0.58142 0.76419 0.0
H4354 H 0.90306 0.62226 0.77007 0.0
H4355 H 0.91708 0.60105 0.78519 0.0
H4356 H 0.87794 0.63747 0.7828 0.0
H4357 H 0.8842 0.59478 0.72699 0.0
H4358 H 0.88027 0.56361 0.70612 0.0
H4359 H 0.8247 0.55451 0.70234 0.0
H4360 H 0.82827 0.58548 0.72342 0.0
H4361 H 0.84639 0.7016 0.73664 0.0
H4362 H 0.86379 0.6785 0.74016 0.0
H4363 H 0.81666 0.63379 0.73542 0.0
H4364 H 0.79924 0.65672 0.73203 0.0
H4365 H 0.84219 0.62065 0.71952 0.0
H4366 H 0.83407 0.65746 0.77758 0.0
H4367 H 0.83519 0.68557 0.80189 0.0
H4368 H 0.89089 0.70255 0.80467 0.0
H4369 H 0.89006 0.67469 0.78012 0.0
C4370 C 0.87514 0.57357 0.77734 0.0
C4371 C 0.8932 0.57888 0.78325 0.0
C4372 C 0.86722 0.58564 0.76861 0.0
C4373 C 0.87731 0.60304 0.76563 0.0
C4374 C 0.89521 0.60866 0.77206 0.0
C4375 C 0.90312 0.59668 0.7809 0.0
C4376 C 0.86898 0.61628 0.75739 0.0
C4377 C 0.87049 0.63402 0.76875 0.0
C4378 C 0.85866 0.61117 0.73944 0.0
C4379 C 0.85652 0.59242 0.72692 0.0
C4380 C 0.87114 0.58606 0.72186 0.0
C4381 C 0.86897 0.56844 0.70996 0.0
C4382 C 0.85225 0.55708 0.70294 0.0
C4383 C 0.83765 0.56332 0.7078 0.0
C4384 C 0.83974 0.58091 0.71971 0.0
C4385 C 0.83979 0.68674 0.73591 0.0
C4386 C 0.82154 0.68089 0.73434 0.0
C4387 C 0.8497 0.67363 0.73786 0.0
C4388 C 0.8414 0.65466 0.73835 0.0
C4389 C 0.8232 0.64844 0.73503 0.0
C4390 C 0.81329 0.66152 0.73307 0.0
C4391 C 0.85144 0.64193 0.74485 0.0
C4392 C 0.85007 0.62425 0.73332 0.0
C4393 C 0.86155 0.64679 0.7629 0.0
C4394 C 0.86196 0.66422 0.77673 0.0
C4395 C 0.84652 0.66739 0.7831 0.0
C4396 C 0.84711 0.68322 0.797 0.0
C4397 C 0.86309 0.69589 0.80475 0.0
C4398 C 0.87851 0.69278 0.79858 0.0
C4399 C 0.87798 0.677 0.78465 0.0
H4400 H 0.86353 0.70808 0.8156 0.0
H4401 H 0.8506 0.54346 0.6937 0.0
H4402 H 0.84927 0.6864 0.01412 0.0
H4403 H 0.87347 0.67184 0.01971 0.0
H4404 H 0.83883 0.61589 1.00057 0.0
H4405 H 0.81429 0.63046 0.99562 0.0
H4406 H 0.86063 0.61544 0.03047 0.0
H4407 H 0.86863 0.64099 0.97202 0.0
H4408 H 0.87289 0.66675 0.95317 0.0
H4409 H 0.91863 0.69787 0.99155 0.0
H4410 H 0.91452 0.6724 0.01072 0.0
H4411 H 0.92013 0.55997 0.00794 0.0
H4412 H 0.89742 0.57721 0.00957 0.0
H4413 H 0.93652 0.63061 0.02552 0.0
H4414 H 0.95945 0.61334 0.02388 0.0
H4415 H 0.91382 0.63457 1.00007 0.0
H4416 H 0.90901 0.61168 0.05745 0.0
H4417 H 0.9064 0.58906 0.07971 0.0
H4418 H 0.85718 0.55677 0.04847 0.0
H4419 H 0.85959 0.57908 0.02586 0.0
C4420 C 0.84674 0.67097 0.01106 0.0
C4421 C 0.8298 0.65961 0.0042 0.0
C4422 C 0.86068 0.66265 0.01419 0.0
C4423 C 0.85818 0.64272 0.01014 0.0
C4424 C 0.84119 0.6313 0.0037 0.0
C4425 C 0.82714 0.63964 1.00082 0.0
C4426 C 0.87323 0.63381 0.01254 0.0
C4427 C 0.87215 0.61943 0.02358 0.0
C4428 C 0.88876 0.63965 0.00446 0.0
C4429 C 0.89117 0.65489 0.99287 0.0
C4430 C 0.87952 0.65339 0.97648 0.0
C4431 C 0.88193 0.66793 0.96574 0.0
C4432 C 0.896 0.68396 0.97119 0.0
C4433 C 0.90772 0.68547 0.98736 0.0
C4434 C 0.90537 0.67098 0.99815 0.0
C4435 C 0.92398 0.57535 0.01219 0.0
C4436 C 0.94173 0.58519 0.01586 0.0
C4437 C 0.91089 0.58525 0.01313 0.0
C4438 C 0.91512 0.60528 0.01792 0.0
C4439 C 0.93283 0.61517 0.02179 0.0
C4440 C 0.94597 0.60526 0.02079 0.0
C4441 C 0.90107 0.61582 0.01761 0.0
C4442 C 0.90234 0.63054 0.00701 0.0
C4443 C 0.88595 0.61066 0.02654 0.0
C4444 C 0.88457 0.59695 0.03984 0.0
C4445 C 0.89771 0.59964 0.0552 0.0
C4446 C 0.89625 0.58691 0.06792 0.0
C4447 C 0.88165 0.57146 0.06548 0.0
C4448 C 0.86849 0.56873 0.05033 0.0
C4449 C 0.86989 0.58143 0.03757 0.0
H4450 H 0.88053 0.56163 0.07536 0.0
H4451 H 0.89783 0.6952 0.96285 0.0
H4452 H 0.21068 0.07003 0.78425 0.0
H4453 H 0.22831 0.10245 0.78378 0.0
H4454 H 0.18466 0.11431 0.75213 0.0
H4455 H 0.16738 0.08232 0.75226 0.0
H4456 H 0.21054 0.13061 0.73812 0.0
H4457 H 0.20084 0.13351 0.80265 0.0
H4458 H 0.20105 0.1241 0.83408 0.0
H4459 H 0.25682 0.13448 0.83991 0.0
H4460 H 0.25691 0.14373 0.80837 0.0
H4461 H 0.24768 0.23394 0.75164 0.0
H4462 H 0.22887 0.20208 0.75257 0.0
H4463 H 0.27293 0.18633 0.77898 0.0
H4464 H 0.29146 0.21763 0.77797 0.0
H4465 H 0.24616 0.17248 0.79571 0.0
H4466 H 0.25467 0.17044 0.73007 0.0
H4467 H 0.25298 0.18035 0.69888 0.0
H4468 H 0.19729 0.16927 0.69572 0.0
H4469 H 0.19868 0.15958 0.72705 0.0
C4470 C 0.20479 0.0795 0.7772 0.0
C4471 C 0.18731 0.07305 0.7684 0.0
C4472 C 0.21494 0.09833 0.77701 0.0
C4473 C 0.20807 0.11158 0.76807 0.0
C4474 C 0.19071 0.10493 0.75915 0.0
C4475 C 0.18065 0.0863 0.75935 0.0
C4476 C 0.21858 0.13216 0.76784 0.0
C4477 C 0.21811 0.13972 0.75089 0.0
C4478 C 0.22884 0.14466 0.78417 0.0
C4479 C 0.22886 0.13908 0.80307 0.0
C4480 C 0.21314 0.13364 0.81057 0.0
C4481 C 0.2132 0.12836 0.82842 0.0
C4482 C 0.22894 0.12863 0.83896 0.0
C4483 C 0.24464 0.13424 0.8317 0.0
C4484 C 0.24464 0.13951 0.81385 0.0
C4485 C 0.25333 0.22379 0.75784 0.0
C4486 C 0.2713 0.22878 0.76481 0.0
C4487 C 0.24252 0.20531 0.75822 0.0
C4488 C 0.24923 0.19115 0.76574 0.0
C4489 C 0.26705 0.1965 0.77308 0.0
C4490 C 0.27778 0.21467 0.77247 0.0
C4491 C 0.23817 0.17087 0.76601 0.0
C4492 C 0.23856 0.16337 0.78297 0.0
C4493 C 0.22763 0.15854 0.74975 0.0
C4494 C 0.2268 0.16453 0.73102 0.0
C4495 C 0.24208 0.1703 0.72281 0.0
C4496 C 0.24117 0.17585 0.70509 0.0
C4497 C 0.22504 0.1755 0.69536 0.0
C4498 C 0.20978 0.16958 0.70331 0.0
C4499 C 0.21062 0.16406 0.72104 0.0
H4500 H 0.22437 0.17978 0.68163 0.0
H4501 H 0.22896 0.12454 0.85278 0.0
H4502 H 0.38565 0.98099 0.2311 0.0
H4503 H 0.3668 0.94854 0.22125 0.0
H4504 H 0.38661 0.93361 0.27331 0.0
H4505 H 0.40603 0.96554 0.28246 0.0
H4506 H 0.37862 0.90363 0.24667 0.0
H4507 H 0.35058 0.95493 0.2695 0.0
H4508 H 0.34029 0.98407 0.26785 0.0
H4509 H 0.31267 0.95896 0.21229 0.0
H4510 H 0.32293 0.92974 0.21362 0.0
H4511 H 0.3176 0.84916 0.2887 0.0
H4512 H 0.33486 0.87931 0.28255 0.0
H4513 H 0.30558 0.86875 0.22678 0.0
H4514 H 0.28806 0.83881 0.23296 0.0
H4515 H 0.31699 0.90755 0.24433 0.0
H4516 H 0.33909 0.85162 0.22988 0.0
H4517 H 0.3473 0.82287 0.23759 0.0
H4518 H 0.38579 0.85771 0.28271 0.0
H4519 H 0.37755 0.88648 0.27564 0.0
C4520 C 0.38629 0.97042 0.23997 0.0
C4521 C 0.39698 0.97534 0.25745 0.0
C4522 C 0.37559 0.95204 0.23442 0.0
C4523 C 0.37512 0.9389 0.24673 0.0
C4524 C 0.38685 0.94355 0.26357 0.0
C4525 C 0.39784 0.96172 0.26885 0.0
C4526 C 0.36087 0.92159 0.24396 0.0
C4527 C 0.36512 0.90439 0.24594 0.0
C4528 C 0.34323 0.92257 0.24261 0.0
C4529 C 0.33777 0.94039 0.2415 0.0
C4530 C 0.34249 0.95576 0.25686 0.0
C4531 C 0.33662 0.97225 0.256 0.0
C4532 C 0.3259 0.97341 0.23993 0.0
C4533 C 0.32103 0.95808 0.22469 0.0
C4534 C 0.32688 0.94158 0.22547 0.0
C4535 C 0.31428 0.85377 0.27555 0.0
C4536 C 0.30193 0.84169 0.26107 0.0
C4537 C 0.32424 0.87079 0.27197 0.0
C4538 C 0.32175 0.87558 0.25398 0.0
C4539 C 0.30774 0.86492 0.24058 0.0
C4540 C 0.29779 0.84794 0.24416 0.0
C4541 C 0.335 0.89025 0.24837 0.0
C4542 C 0.33043 0.90663 0.24441 0.0
C4543 C 0.35236 0.88864 0.2484 0.0
C4544 C 0.35765 0.87124 0.25225 0.0
C4545 C 0.34925 0.85312 0.24151 0.0
C4546 C 0.3539 0.83679 0.2458 0.0
C4547 C 0.36706 0.83842 0.26067 0.0
C4548 C 0.3756 0.85638 0.27123 0.0
C4549 C 0.37095 0.87272 0.26708 0.0
H4550 H 0.37067 0.82579 0.264 0.0
H4551 H 0.32132 0.98615 0.23933 0.0
H4552 H 0.54987 0.35179 0.60159 0.0
H4553 H 0.54277 0.37808 0.58753 0.0
H4554 H 0.58274 0.37586 0.55136 0.0
H4555 H 0.58969 0.34947 0.56504 0.0
H4556 H 0.58465 0.4127 0.57043 0.0
H4557 H 0.54139 0.35955 0.53268 0.0
H4558 H 0.51652 0.3312 0.52666 0.0
H4559 H 0.48474 0.36444 0.55388 0.0
H4560 H 0.50951 0.39295 0.56029 0.0
H4561 H 0.57037 0.48115 0.51589 0.0
H4562 H 0.57435 0.45175 0.52577 0.0
H4563 H 0.52484 0.44386 0.54747 0.0
H4564 H 0.52018 0.47224 0.53583 0.0
H4565 H 0.52737 0.41146 0.53603 0.0
H4566 H 0.56977 0.46418 0.57543 0.0
H4567 H 0.59426 0.49299 0.58247 0.0
H4568 H 0.62719 0.46137 0.55514 0.0
H4569 H 0.60281 0.43253 0.54753 0.0
C4570 C 0.55714 0.35687 0.59062 0.0
C4571 C 0.57045 0.3485 0.58456 0.0
C4572 C 0.55297 0.37185 0.58249 0.0
C4573 C 0.56216 0.37898 0.56828 0.0
C4574 C 0.57543 0.37065 0.56225 0.0
C4575 C 0.5794 0.35552 0.57013 0.0
C4576 C 0.55864 0.3957 0.5603 0.0
C4577 C 0.57217 0.41237 0.56274 0.0
C4578 C 0.54221 0.39556 0.55074 0.0
C4579 C 0.5274 0.37833 0.5472 0.0
C4580 C 0.52917 0.36077 0.5376 0.0
C4581 C 0.51507 0.34468 0.53406 0.0
C4582 C 0.49907 0.346 0.53995 0.0
C4583 C 0.49714 0.36343 0.54937 0.0
C4584 C 0.51121 0.37956 0.55295 0.0
C4585 C 0.5603 0.47302 0.52263 0.0
C4586 C 0.54503 0.47908 0.5252 0.0
C4587 C 0.56265 0.45625 0.52853 0.0
C4588 C 0.55024 0.44567 0.53815 0.0
C4589 C 0.53476 0.45159 0.54027 0.0
C4590 C 0.53211 0.46793 0.53366 0.0
C4591 C 0.55343 0.42873 0.54621 0.0
C4592 C 0.53985 0.41197 0.54382 0.0
C4593 C 0.56976 0.42888 0.55619 0.0
C4594 C 0.58443 0.44624 0.56079 0.0
C4595 C 0.58221 0.46342 0.57082 0.0
C4596 C 0.59607 0.47976 0.57488 0.0
C4597 C 0.61226 0.47903 0.56921 0.0
C4598 C 0.61464 0.46195 0.55946 0.0
C4599 C 0.6008 0.44561 0.55526 0.0
H4600 H 0.62298 0.49169 0.57238 0.0
H4601 H 0.48817 0.33353 0.53717 0.0
H4602 H 0.43957 0.76379 0.40017 0.0
H4603 H 0.41462 0.76757 0.38016 0.0
H4604 H 0.44375 0.76758 0.33258 0.0
H4605 H 0.46905 0.76414 0.35278 0.0
H4606 H 0.42735 0.79491 0.33361 0.0
H4607 H 0.40894 0.72859 0.33722 0.0
H4608 H 0.40276 0.70086 0.35335 0.0
H4609 H 0.36488 0.72346 0.38189 0.0
H4610 H 0.371 0.75146 0.36611 0.0
H4611 H 0.35822 0.78731 0.26207 0.0
H4612 H 0.38198 0.78284 0.2831 0.0
H4613 H 0.3498 0.78008 0.32808 0.0
H4614 H 0.32548 0.78389 0.30648 0.0
H4615 H 0.36741 0.75421 0.32927 0.0
H4616 H 0.38678 0.82102 0.32762 0.0
H4617 H 0.39436 0.85019 0.31386 0.0
H4618 H 0.43066 0.82723 0.28276 0.0
H4619 H 0.4234 0.79798 0.29654 0.0
C4620 C 0.44072 0.76444 0.38541 0.0
C4621 C 0.45647 0.76357 0.37818 0.0
C4622 C 0.42628 0.7665 0.37387 0.0
C4623 C 0.42698 0.7676 0.35462 0.0
C4624 C 0.44269 0.7667 0.34732 0.0
C4625 C 0.4572 0.76466 0.3589 0.0
C4626 C 0.41165 0.77051 0.34242 0.0
C4627 C 0.41432 0.78576 0.33245 0.0
C4628 C 0.39437 0.75911 0.34126 0.0
C4629 C 0.39054 0.7422 0.35061 0.0
C4630 C 0.39937 0.7277 0.34702 0.0
C4631 C 0.39587 0.71193 0.35609 0.0
C4632 C 0.38347 0.71042 0.36867 0.0
C4633 C 0.3745 0.72465 0.37216 0.0
C4634 C 0.37796 0.74047 0.36314 0.0
C4635 C 0.35612 0.78597 0.2765 0.0
C4636 C 0.33978 0.78617 0.2825 0.0
C4637 C 0.36991 0.78352 0.28867 0.0
C4638 C 0.36811 0.78148 0.30753 0.0
C4639 C 0.35178 0.78172 0.31369 0.0
C4640 C 0.33781 0.78406 0.30134 0.0
C4641 C 0.38314 0.77861 0.32035 0.0
C4642 C 0.38043 0.76336 0.33042 0.0
C4643 C 0.40043 0.79005 0.32172 0.0
C4644 C 0.40443 0.8073 0.31297 0.0
C4645 C 0.39627 0.82215 0.31773 0.0
C4646 C 0.40056 0.83872 0.30998 0.0
C4647 C 0.41293 0.84054 0.29736 0.0
C4648 C 0.42107 0.8258 0.29251 0.0
C4649 C 0.41693 0.80927 0.30035 0.0
H4650 H 0.41626 0.85339 0.29138 0.0
H4651 H 0.38079 0.6982 0.37569 0.0
H4652 H 0.03665 0.74929 0.05841 0.0
H4653 H 0.03603 0.71642 0.04425 0.0
H4654 H 0.08119 0.71842 0.08332 0.0
H4655 H 0.08204 0.75121 0.09736 0.0
H4656 H 0.08407 0.70188 0.04833 0.0
H4657 H 0.04045 0.69636 0.09035 0.0
H4658 H 0.01406 0.70162 0.10348 0.0
H4659 H 0.98299 0.67507 0.04998 0.0
H4660 H 0.00926 0.66999 0.03641 0.0
H4661 H 0.07763 0.60166 0.03756 0.0
H4662 H 0.07994 0.6355 0.04921 0.0
H4663 H 0.03314 0.63227 0.01206 0.0
H4664 H 0.03049 0.59842 1.0008 0.0
H4665 H 0.03124 0.64955 0.04593 0.0
H4666 H 0.07487 0.6553 0.00373 0.0
H4667 H 0.10113 0.64913 0.99094 0.0
H4668 H 0.13191 0.67448 0.04486 0.0
H4669 H 0.10578 0.68057 0.05805 0.0
C4670 C 0.04652 0.74277 0.06389 0.0
C4671 C 0.05935 0.75287 0.07907 0.0
C4672 C 0.04609 0.72395 0.05586 0.0
C4673 C 0.05845 0.71488 0.06288 0.0
C4674 C 0.07151 0.7251 0.07769 0.0
C4675 C 0.07193 0.74386 0.08574 0.0
C4676 C 0.05776 0.6947 0.05497 0.0
C4677 C 0.07257 0.69041 0.04796 0.0
C4678 C 0.04266 0.67976 0.05419 0.0
C4679 C 0.02688 0.68304 0.06228 0.0
C4680 C 0.02803 0.69185 0.08131 0.0
C4681 C 0.01308 0.69477 0.08885 0.0
C4682 C 0.99687 0.68875 0.07755 0.0
C4683 C 0.99557 0.67978 0.0587 0.0
C4684 C 0.01048 0.67689 0.05107 0.0
C4685 C 0.06801 0.60826 0.03164 0.0
C4686 C 0.0539 0.59739 0.01823 0.0
C4687 C 0.06934 0.62761 0.03831 0.0
C4688 C 0.05677 0.63649 0.03142 0.0
C4689 C 0.04296 0.62574 0.01764 0.0
C4690 C 0.04151 0.6064 0.01115 0.0
C4691 C 0.05747 0.65675 0.03907 0.0
C4692 C 0.0427 0.66104 0.04615 0.0
C4693 C 0.07258 0.67168 0.03988 0.0
C4694 C 0.08834 0.66825 0.03191 0.0
C4695 C 0.08722 0.65946 0.01289 0.0
C4696 C 0.10209 0.65598 0.00556 0.0
C4697 C 0.11817 0.66137 0.01709 0.0
C4698 C 0.11944 0.6703 0.03595 0.0
C4699 C 0.10461 0.67378 0.04336 0.0
H4700 H 0.12967 0.65866 0.01139 0.0
H4701 H 0.98531 0.69099 0.08342 0.0
H4702 H 0.04851 0.27404 0.85982 0.0
H4703 H 0.07475 0.28105 0.84427 0.0
H4704 H 0.10675 0.28623 0.89747 0.0
H4705 H 0.08065 0.27984 0.91317 0.0
H4706 H 0.12198 0.31261 0.87983 0.0
H4707 H 0.09771 0.24525 0.862 0.0
H4708 H 0.07491 0.21571 0.84917 0.0
H4709 H 0.07014 0.23327 0.79512 0.0
H4710 H 0.09277 0.26305 0.80772 0.0
H4711 H 0.19881 0.29845 0.84016 0.0
H4712 H 0.17336 0.2974 0.85697 0.0
H4713 H 0.14151 0.29521 0.80448 0.0
H4714 H 0.16663 0.29541 0.78747 0.0
H4715 H 0.1265 0.26823 0.82214 0.0
H4716 H 0.15337 0.33559 0.84103 0.0
H4717 H 0.17722 0.36385 0.855 0.0
H4718 H 0.17865 0.34478 0.90846 0.0
H4719 H 0.15493 0.31627 0.89475 0.0
C4720 C 0.06112 0.27666 0.86821 0.0
C4721 C 0.06239 0.27619 0.88773 0.0
C4722 C 0.07617 0.28064 0.85929 0.0
C4723 C 0.09285 0.28392 0.86958 0.0
C4724 C 0.09412 0.28377 0.88914 0.0
C4725 C 0.07911 0.27998 0.89809 0.0
C4726 C 0.10891 0.28697 0.85994 0.0
C4727 C 0.12302 0.30279 0.86731 0.0
C4728 C 0.11036 0.27434 0.84349 0.0
C4729 C 0.09679 0.25645 0.83586 0.0
C4730 C 0.09171 0.24287 0.84742 0.0
C4731 C 0.07883 0.22608 0.84018 0.0
C4732 C 0.07105 0.22264 0.82136 0.0
C4733 C 0.07616 0.23597 0.80971 0.0
C4734 C 0.08902 0.2528 0.81688 0.0
C4735 C 0.18641 0.29779 0.83217 0.0
C4736 C 0.18486 0.29692 0.81237 0.0
C4737 C 0.17186 0.29741 0.84187 0.0
C4738 C 0.15544 0.29633 0.83206 0.0
C4739 C 0.154 0.29606 0.81242 0.0
C4740 C 0.16848 0.29637 0.80271 0.0
C4741 C 0.1395 0.29398 0.84183 0.0
C4742 C 0.12543 0.27817 0.83456 0.0
C4743 C 0.13827 0.30648 0.85851 0.0
C4744 C 0.15247 0.32369 0.8668 0.0
C4745 C 0.15885 0.33734 0.85573 0.0
C4746 C 0.17233 0.35343 0.86361 0.0
C4747 C 0.17947 0.35608 0.88259 0.0
C4748 C 0.17311 0.34269 0.89375 0.0
C4749 C 0.15963 0.32658 0.88594 0.0
H4750 H 0.18991 0.36853 0.88866 0.0
H4751 H 0.06108 0.20963 0.81578 0.0
H4752 H 0.58538 0.75637 0.89214 0.0
H4753 H 0.57337 0.72775 0.90491 0.0
H4754 H 0.54965 0.76084 0.94483 0.0
H4755 H 0.56222 0.78955 0.93273 0.0
H4756 H 0.56459 0.74 0.96201 0.0
H4757 H 0.52557 0.72827 0.90472 0.0
H4758 H 0.51702 0.72502 0.87034 0.0
H4759 H 0.54134 0.6785 0.85954 0.0
H4760 H 0.55025 0.68163 0.89385 0.0
H4761 H 0.52187 0.66106 0.99749 0.0
H4762 H 0.52358 0.68656 0.97898 0.0
H4763 H 0.55434 0.66031 0.94188 0.0
H4764 H 0.55209 0.6343 0.95986 0.0
H4765 H 0.53259 0.67765 0.92273 0.0
H4766 H 0.57404 0.69313 0.98073 0.0
H4767 H 0.58253 0.6977 0.01528 0.0
H4768 H 0.55191 0.73874 0.02445 0.0
H4769 H 0.54307 0.73421 0.98996 0.0
C4770 C 0.57769 0.75751 0.90374 0.0
C4771 C 0.57486 0.77517 0.91159 0.0
C4772 C 0.57065 0.74113 0.91083 0.0
C4773 C 0.56034 0.74211 0.92558 0.0
C4774 C 0.55753 0.75976 0.93342 0.0
C4775 C 0.56482 0.77618 0.92658 0.0
C4776 C 0.55346 0.72504 0.93379 0.0
C4777 C 0.55725 0.7265 0.95342 0.0
C4778 C 0.54416 0.70734 0.92253 0.0
C4779 C 0.5387 0.70529 0.90187 0.0
C4780 C 0.52921 0.71743 0.89501 0.0
C4781 C 0.52428 0.7156 0.87554 0.0
C4782 C 0.52867 0.70159 0.86277 0.0
C4783 C 0.53796 0.68935 0.86945 0.0
C4784 C 0.54293 0.69113 0.88892 0.0
C4785 C 0.52856 0.6604 0.98506 0.0
C4786 C 0.53714 0.6459 0.98032 0.0
C4787 C 0.52958 0.67502 0.97456 0.0
C4788 C 0.53938 0.67546 0.95934 0.0
C4789 C 0.54682 0.66025 0.95368 0.0
C4790 C 0.54571 0.64556 0.96409 0.0
C4791 C 0.54373 0.69278 0.95086 0.0
C4792 C 0.53961 0.69132 0.93123 0.0
C4793 C 0.55254 0.71064 0.9621 0.0
C4794 C 0.55773 0.71315 0.98282 0.0
C4795 C 0.569 0.70299 0.99014 0.0
C4796 C 0.5739 0.7056 0.0097 0.0
C4797 C 0.56772 0.71846 0.02206 0.0
C4798 C 0.55665 0.72875 0.01487 0.0
C4799 C 0.55169 0.72616 0.99533 0.0
H4800 H 0.57155 0.72048 0.0372 0.0
H4801 H 0.52485 0.70021 0.84769 0.0
H4802 H 0.05958 0.77543 0.65164 0.0
H4803 H 0.08703 0.77817 0.67127 0.0
H4804 H 0.0593 0.74632 0.70956 0.0
H4805 H 0.03164 0.74414 0.69031 0.0
H4806 H 0.08619 0.77507 0.72861 0.0
H4807 H 0.07774 0.72327 0.67619 0.0
H4808 H 0.07098 0.70778 0.64251 0.0
H4809 H 0.11493 0.74774 0.6293 0.0
H4810 H 0.12185 0.76359 0.66288 0.0
H4811 H 0.16165 0.74347 0.76177 0.0
H4812 H 0.13292 0.74811 0.75129 0.0
H4813 H 0.15552 0.78117 0.71096 0.0
H4814 H 0.18397 0.77601 0.72096 0.0
H4815 H 0.13007 0.75032 0.69452 0.0
H4816 H 0.13868 0.80163 0.74828 0.0
H4817 H 0.14509 0.81581 0.7823 0.0
H4818 H 0.10078 0.77501 0.79364 0.0
H4819 H 0.09422 0.76042 0.75969 0.0
C4820 C 0.05934 0.76913 0.66431 0.0
C4821 C 0.04361 0.75938 0.66939 0.0
C4822 C 0.07498 0.77072 0.67549 0.0
C4823 C 0.07512 0.76213 0.69161 0.0
C4824 C 0.05938 0.753 0.69713 0.0
C4825 C 0.04366 0.75169 0.6861 0.0
C4826 C 0.09182 0.7617 0.70186 0.0
C4827 C 0.09576 0.76949 0.72128 0.0
C4828 C 0.10419 0.7544 0.69217 0.0
C4829 C 0.10024 0.74468 0.67202 0.0
C4830 C 0.08592 0.7288 0.66608 0.0
C4831 C 0.08206 0.71995 0.64701 0.0
C4832 C 0.0925 0.72679 0.63377 0.0
C4833 C 0.10686 0.74246 0.63958 0.0
C4834 C 0.11077 0.75136 0.65863 0.0
C4835 C 0.16044 0.7521 0.75102 0.0
C4836 C 0.17474 0.75921 0.74191 0.0
C4837 C 0.14414 0.75482 0.74513 0.0
C4838 C 0.1422 0.76491 0.73033 0.0
C4839 C 0.15682 0.77326 0.72233 0.0
C4840 C 0.17298 0.77031 0.72799 0.0
C4841 C 0.12477 0.76436 0.72116 0.0
C4842 C 0.12058 0.75603 0.70191 0.0
C4843 C 0.1122 0.77095 0.7311 0.0
C4844 C 0.11605 0.77983 0.75147 0.0
C4845 C 0.13037 0.79559 0.75804 0.0
C4846 C 0.13402 0.80372 0.77731 0.0
C4847 C 0.12337 0.79629 0.79013 0.0
C4848 C 0.10902 0.78074 0.78369 0.0
C4849 C 0.10532 0.77256 0.76444 0.0
H4850 H 0.12622 0.8026 0.80504 0.0
H4851 H 0.08948 0.71994 0.61901 0.0
H4852 H 0.04811 0.35274 0.40439 0.0
H4853 H 0.04855 0.38455 0.42116 0.0
H4854 H 0.10453 0.39735 0.43388 0.0
H4855 H 0.10429 0.36555 0.41697 0.0
H4856 H 0.08526 0.40331 0.4654 0.0
H4857 H 0.08986 0.41883 0.40284 0.0
H4858 H 0.08089 0.41443 0.3684 0.0
H4859 H 0.03056 0.42265 0.37851 0.0
H4860 H 0.03916 0.42687 0.413 0.0
H4861 H 0.08974 0.49547 0.5125 0.0
H4862 H 0.0962 0.47104 0.48889 0.0
H4863 H 0.04238 0.4549 0.46336 0.0
H4864 H 0.03596 0.47949 0.48667 0.0
H4865 H 0.06391 0.45271 0.43686 0.0
H4866 H 0.05436 0.43131 0.49521 0.0
H4867 H 0.05858 0.43281 0.52981 0.0
H4868 H 0.11213 0.43165 0.52798 0.0
H4869 H 0.10826 0.43043 0.49335 0.0
C4870 C 0.06051 0.3623 0.4108 0.0
C4871 C 0.07616 0.35671 0.40954 0.0
C4872 C 0.06074 0.38048 0.42014 0.0
C4873 C 0.07659 0.39318 0.42841 0.0
C4874 C 0.09223 0.38765 0.42733 0.0
C4875 C 0.09205 0.36954 0.4178 0.0
C4876 C 0.0766 0.41169 0.43951 0.0
C4877 C 0.08105 0.41437 0.45916 0.0
C4878 C 0.0703 0.42553 0.43124 0.0
C4879 C 0.06514 0.42305 0.4105 0.0
C4880 C 0.07684 0.41956 0.39771 0.0
C4881 C 0.07183 0.41713 0.37818 0.0
C4882 C 0.05516 0.41823 0.37127 0.0
C4883 C 0.04347 0.4218 0.38388 0.0
C4884 C 0.04842 0.42425 0.40342 0.0
C4885 C 0.07939 0.48679 0.50171 0.0
C4886 C 0.06234 0.48899 0.50141 0.0
C4887 C 0.08309 0.473 0.48824 0.0
C4888 C 0.06969 0.46113 0.47464 0.0
C4889 C 0.05285 0.46401 0.47377 0.0
C4890 C 0.04918 0.47788 0.48713 0.0
C4891 C 0.07268 0.44435 0.46274 0.0
C4892 C 0.06861 0.44189 0.44303 0.0
C4893 C 0.07869 0.43031 0.47096 0.0
C4894 C 0.08109 0.43104 0.49176 0.0
C4895 C 0.06708 0.43156 0.50222 0.0
C4896 C 0.06939 0.43232 0.52182 0.0
C4897 C 0.08563 0.4324 0.5311 0.0
C4898 C 0.09957 0.43165 0.52077 0.0
C4899 C 0.09733 0.43091 0.50116 0.0
H4900 H 0.0874 0.43298 0.54628 0.0
H4901 H 0.0513 0.41634 0.35615 0.0
H4902 H 0.42526 0.22796 0.15628 0.0
H4903 H 0.40489 0.23682 0.17738 0.0
H4904 H 0.44801 0.27134 0.21816 0.0
H4905 H 0.46843 0.2625 0.19732 0.0
H4906 H 0.42031 0.25116 0.23455 0.0
H4907 H 0.43092 0.2932 0.18948 0.0
H4908 H 0.43321 0.30105 0.15757 0.0
H4909 H 0.37909 0.27308 0.14023 0.0
H4910 H 0.37655 0.26476 0.17195 0.0
H4911 H 0.36037 0.30771 0.2723 0.0
H4912 H 0.38668 0.30232 0.259 0.0
H4913 H 0.35515 0.25263 0.22039 0.0
H4914 H 0.32921 0.25743 0.23391 0.0
H4915 H 0.38071 0.28591 0.20617 0.0
H4916 H 0.37194 0.23874 0.24843 0.0
H4917 H 0.36875 0.23029 0.27996 0.0
H4918 H 0.41887 0.26794 0.30224 0.0
H4919 H 0.42215 0.27694 0.27085 0.0
C4920 C 0.43037 0.23709 0.1699 0.0
C4921 C 0.44833 0.24483 0.17508 0.0
C4922 C 0.41878 0.24216 0.18187 0.0
C4923 C 0.4251 0.25495 0.19904 0.0
C4924 C 0.44302 0.26154 0.20487 0.0
C4925 C 0.45459 0.25656 0.19291 0.0
C4926 C 0.41303 0.26274 0.2101 0.0
C4927 C 0.41184 0.25904 0.22851 0.0
C4928 C 0.40215 0.27308 0.20209 0.0
C4929 C 0.40359 0.27822 0.18305 0.0
C4930 C 0.41954 0.28859 0.17882 0.0
C4931 C 0.42088 0.29314 0.16077 0.0
C4932 C 0.40631 0.28753 0.14687 0.0
C4933 C 0.39037 0.2774 0.15101 0.0
C4934 C 0.38897 0.27277 0.16902 0.0
C4935 C 0.35924 0.29558 0.26111 0.0
C4936 C 0.34303 0.2828 0.25419 0.0
C4937 C 0.37411 0.29256 0.25359 0.0
C4938 C 0.37258 0.27709 0.23888 0.0
C4939 C 0.35638 0.26455 0.23185 0.0
C4940 C 0.34169 0.26723 0.23964 0.0
C4941 C 0.3877 0.2738 0.23027 0.0
C4942 C 0.38949 0.27843 0.21233 0.0
C4943 C 0.39904 0.26427 0.23865 0.0
C4944 C 0.39715 0.25876 0.25742 0.0
C4945 C 0.38216 0.24542 0.26011 0.0
C4946 C 0.38036 0.24049 0.27794 0.0
C4947 C 0.39357 0.24864 0.29313 0.0
C4948 C 0.40862 0.2617 0.29048 0.0
C4949 C 0.41045 0.26673 0.27269 0.0
H4950 H 0.39216 0.24479 0.30692 0.0
H4951 H 0.40737 0.29107 0.13291 0.0
H4952 H 0.65091 0.52288 0.3374 0.0
H4953 H 0.63826 0.52597 0.36736 0.0
H4954 H 0.5868 0.50289 0.33635 0.0
H4955 H 0.59925 0.50058 0.30677 0.0
H4956 H 0.58148 0.52617 0.36127 0.0
H4957 H 0.61236 0.47899 0.36883 0.0
H4958 H 0.63737 0.46441 0.37027 0.0
H4959 H 0.66459 0.50917 0.41628 0.0
H4960 H 0.6398 0.52414 0.41495 0.0
H4961 H 0.53514 0.50357 0.43823 0.0
H4962 H 0.55092 0.50268 0.41096 0.0
H4963 H 0.59773 0.53665 0.4462 0.0
H4964 H 0.58168 0.53738 0.47415 0.0
H4965 H 0.60638 0.50986 0.42032 0.0
H4966 H 0.57075 0.55433 0.41225 0.0
H4967 H 0.54321 0.56438 0.4097 0.0
H4968 H 0.52178 0.51851 0.36264 0.0
H4969 H 0.5491 0.50803 0.36507 0.0
C4970 C 0.63691 0.51836 0.3369 0.0
C4971 C 0.62636 0.51141 0.31911 0.0
C4972 C 0.62951 0.52002 0.35432 0.0
C4973 C 0.6112 0.51452 0.3549 0.0
C4974 C 0.60083 0.5075 0.33707 0.0
C4975 C 0.60814 0.50605 0.31981 0.0
C4976 C 0.60267 0.51624 0.37355 0.0
C4977 C 0.58702 0.52232 0.37399 0.0
C4978 C 0.60939 0.51161 0.39086 0.0
C4979 C 0.62435 0.50281 0.39163 0.0
C4980 C 0.62375 0.4858 0.37915 0.0
C4981 C 0.63786 0.47745 0.37996 0.0
C4982 C 0.65258 0.4859 0.39331 0.0
C4983 C 0.65319 0.50268 0.40591 0.0
C4984 C 0.63912 0.5111 0.40514 0.0
C4985 C 0.54882 0.51095 0.44048 0.0
C4986 C 0.55684 0.52062 0.4589 0.0
C4987 C 0.55795 0.51053 0.4245 0.0
C4988 C 0.57575 0.51991 0.42577 0.0
C4989 C 0.58405 0.5293 0.44427 0.0
C4990 C 0.57479 0.52976 0.46047 0.0
C4991 C 0.58527 0.51969 0.40788 0.0
C4992 C 0.60101 0.51383 0.40758 0.0
C4993 C 0.57832 0.52392 0.39047 0.0
C4994 C 0.56195 0.53033 0.38894 0.0
C4995 C 0.56013 0.54633 0.40143 0.0
C4996 C 0.54456 0.5521 0.39999 0.0
C4997 C 0.53074 0.54207 0.38604 0.0
C4998 C 0.53248 0.52626 0.37345 0.0
C4999 C 0.54802 0.52042 0.37484 0.0
H5000 H 0.5187 0.54656 0.38495 0.0
H5001 H 0.6635 0.47941 0.39393 0.0
H5002 H 0.28698 0.86444 0.02919 0.0
H5003 H 0.30036 0.85419 0.05661 0.0
H5004 H 0.32054 0.91293 0.0841 0.0
H5005 H 0.30665 0.92333 0.05755 0.0
H5006 H 0.34334 0.87648 0.0777 0.0
H5007 H 0.30115 0.90767 0.11039 0.0
H5008 H 0.27184 0.91376 0.10847 0.0
H5009 H 0.24856 0.85341 0.09448 0.0
H5010 H 0.27781 0.84705 0.09611 0.0
H5011 H 0.3479 0.85305 0.17886 0.0
H5012 H 0.3474 0.87324 0.15469 0.0
H5013 H 0.32535 0.82312 0.11189 0.0
H5014 H 0.32523 0.80302 0.13557 0.0
H5015 H 0.30765 0.86169 0.12907 0.0
H5016 H 0.35005 0.83151 0.09279 0.0
H5017 H 0.37928 0.82523 0.09435 0.0
H5018 H 0.40263 0.88466 0.1162 0.0
H5019 H 0.37345 0.89116 0.11502 0.0
C5020 C 0.29404 0.87513 0.04119 0.0
C5021 C 0.29576 0.89466 0.04117 0.0
C5022 C 0.30185 0.86929 0.05664 0.0
C5023 C 0.31159 0.88292 0.07201 0.0
C5024 C 0.31319 0.90233 0.07217 0.0
C5025 C 0.30511 0.90816 0.05701 0.0
C5026 C 0.31902 0.8768 0.0886 0.0
C5027 C 0.3357 0.87348 0.08909 0.0
C5028 C 0.30908 0.87324 0.10344 0.0
C5029 C 0.29157 0.87691 0.10333 0.0
C5030 C 0.28975 0.89573 0.1069 0.0
C5031 C 0.27318 0.89923 0.10584 0.0
C5032 C 0.25834 0.88398 0.10134 0.0
C5033 C 0.26006 0.8652 0.09797 0.0
C5034 C 0.27663 0.86164 0.09898 0.0
C5035 C 0.34343 0.84631 0.1642 0.0
C5036 C 0.33647 0.82642 0.15919 0.0
C5037 C 0.34326 0.85785 0.15048 0.0
C5038 C 0.33645 0.84951 0.13167 0.0
C5039 C 0.33096 0.82966 0.12636 0.0
C5040 C 0.33101 0.81818 0.13997 0.0
C5041 C 0.33191 0.8611 0.11812 0.0
C5042 C 0.31559 0.86529 0.11806 0.0
C5043 C 0.34224 0.86557 0.10381 0.0
C5044 C 0.35967 0.86178 0.10392 0.0
C5045 C 0.36143 0.84319 0.09799 0.0
C5046 C 0.37797 0.8396 0.09881 0.0
C5047 C 0.39281 0.85453 0.1054 0.0
C5048 C 0.39113 0.8731 0.11112 0.0
C5049 C 0.37461 0.87675 0.11039 0.0
H5050 H 0.4056 0.85172 0.10604 0.0
H5051 H 0.24551 0.88671 0.10048 0.0
H5052 H 0.96306 0.53883 0.81445 0.0
H5053 H 0.9831 0.54192 0.84329 0.0
H5054 H 0.94422 0.50092 0.86375 0.0
H5055 H 0.92424 0.49753 0.83455 0.0
H5056 H 0.95749 0.53587 0.88865 0.0
H5057 H 0.97748 0.48737 0.85237 0.0
H5058 H 0.98807 0.47085 0.8251 0.0
H5059 H 0.03364 0.51738 0.83201 0.0
H5060 H 0.02317 0.53436 0.85914 0.0
H5061 H 0.01049 0.51662 0.96354 0.0
H5062 H 0.99068 0.51733 0.93608 0.0
H5063 H 0.03082 0.55941 0.91871 0.0
H5064 H 0.05085 0.55907 0.94669 0.0
H5065 H 0.01704 0.52542 0.89236 0.0
H5066 H 0.99625 0.57231 0.93179 0.0
H5067 H 0.98419 0.58655 0.95921 0.0
H5068 H 0.93879 0.53947 0.94734 0.0
H5069 H 0.95067 0.52475 0.92006 0.0
C5070 C 0.959 0.5303 0.82502 0.0
C5071 C 0.94236 0.51798 0.82267 0.0
C5072 C 0.97038 0.532 0.84133 0.0
C5073 C 0.96501 0.52158 0.8554 0.0
C5074 C 0.94846 0.50895 0.85285 0.0
C5075 C 0.93717 0.507 0.83634 0.0
C5076 C 0.97628 0.52516 0.87339 0.0
C5077 C 0.97044 0.53336 0.88964 0.0
C5078 C 0.99322 0.52225 0.87421 0.0
C5079 C 0.99942 0.51226 0.85765 0.0
C5080 C 0.98965 0.49421 0.84793 0.0
C5081 C 0.99565 0.48473 0.83253 0.0
C5082 C 0.01149 0.49308 0.82679 0.0
C5083 C 0.02136 0.51094 0.83645 0.0
C5084 C 0.01539 0.5205 0.85184 0.0
C5085 C 0.01503 0.5263 0.95408 0.0
C5086 C 0.03215 0.53776 0.95704 0.0
C5087 C 0.00365 0.5268 0.93854 0.0
C5088 C 0.00933 0.53861 0.92569 0.0
C5089 C 0.0263 0.55041 0.92877 0.0
C5090 C 0.03769 0.55008 0.94453 0.0
C5091 C 0.99831 0.53624 0.90771 0.0
C5092 C 0.00417 0.52815 0.8914 0.0
C5093 C 0.98125 0.53887 0.90697 0.0
C5094 C 0.97442 0.54736 0.92389 0.0
C5095 C 0.9838 0.56485 0.93516 0.0
C5096 C 0.97696 0.57305 0.95064 0.0
C5097 C 0.96071 0.56394 0.95496 0.0
C5098 C 0.95135 0.54652 0.94394 0.0
C5099 C 0.95813 0.53826 0.92846 0.0
H5100 H 0.9553 0.57041 0.96676 0.0
H5101 H 0.01614 0.4857 0.81489 0.0
H5102 H 0.27288 0.19032 0.5517 0.0
H5103 H 0.27064 0.20426 0.58404 0.0
H5104 H 0.30832 0.2557 0.57941 0.0
H5105 H 0.3112 0.24138 0.54714 0.0
H5106 H 0.31537 0.24653 0.61207 0.0
H5107 H 0.26258 0.25232 0.5778 0.0
H5108 H 0.23506 0.2407 0.55594 0.0
H5109 H 0.21505 0.20109 0.59155 0.0
H5110 H 0.24252 0.21233 0.61352 0.0
H5111 H 0.30346 0.29621 0.69961 0.0
H5112 H 0.3035 0.28708 0.66549 0.0
H5113 H 0.26432 0.23508 0.66506 0.0
H5114 H 0.26338 0.24505 0.69899 0.0
H5115 H 0.25818 0.24653 0.63428 0.0
H5116 H 0.3115 0.23964 0.66783 0.0
H5117 H 0.33908 0.25117 0.68967 0.0
H5118 H 0.35829 0.29241 0.65534 0.0
H5119 H 0.33075 0.28134 0.63347 0.0
C5120 C 0.28063 0.20465 0.55749 0.0
C5121 C 0.29218 0.21478 0.54681 0.0
C5122 C 0.27926 0.21267 0.57599 0.0
C5123 C 0.28903 0.23122 0.5841 0.0
C5124 C 0.30058 0.2414 0.57346 0.0
C5125 C 0.3022 0.23322 0.55501 0.0
C5126 C 0.28759 0.23967 0.60388 0.0
C5127 C 0.30288 0.24682 0.61685 0.0
C5128 C 0.27128 0.23966 0.61029 0.0
C5129 C 0.25466 0.23309 0.59723 0.0
C5130 C 0.25234 0.24108 0.58092 0.0
C5131 C 0.23675 0.23456 0.56851 0.0
C5132 C 0.22333 0.22014 0.57233 0.0
C5133 C 0.22546 0.21225 0.58861 0.0
C5134 C 0.24102 0.21871 0.60105 0.0
C5135 C 0.29465 0.28301 0.69207 0.0
C5136 C 0.28343 0.27128 0.70176 0.0
C5137 C 0.29481 0.27767 0.67265 0.0
C5138 C 0.28435 0.26005 0.66274 0.0
C5139 C 0.27261 0.24868 0.67235 0.0
C5140 C 0.27204 0.25435 0.6917 0.0
C5141 C 0.28594 0.2532 0.64256 0.0
C5142 C 0.27069 0.24634 0.6295 0.0
C5143 C 0.3023 0.2534 0.6361 0.0
C5144 C 0.31899 0.25977 0.6491 0.0
C5145 C 0.32158 0.25122 0.66499 0.0
C5146 C 0.3372 0.25767 0.67737 0.0
C5147 C 0.35039 0.27254 0.67391 0.0
C5148 C 0.34804 0.28092 0.65801 0.0
C5149 C 0.33244 0.27456 0.64562 0.0
H5150 H 0.36244 0.27756 0.68351 0.0
H5151 H 0.21128 0.2151 0.5627 0.0
H5152 H 0.64808 0.52253 0.21003 0.0
H5153 H 0.63558 0.52861 0.17976 0.0
H5154 H 0.58433 0.5 0.18962 0.0
H5155 H 0.59681 0.49327 0.21924 0.0
H5156 H 0.58346 0.49106 0.15511 0.0
H5157 H 0.60148 0.55241 0.19369 0.0
H5158 H 0.62139 0.58002 0.21511 0.0
H5159 H 0.6547 0.58813 0.17188 0.0
H5160 H 0.63508 0.56038 0.15026 0.0
H5161 H 0.53604 0.52292 0.08277 0.0
H5162 H 0.5492 0.52051 0.11425 0.0
H5163 H 0.60039 0.54092 0.09892 0.0
H5164 H 0.58708 0.54443 0.06782 0.0
H5165 H 0.60124 0.55423 0.13597 0.0
H5166 H 0.57775 0.4919 0.09665 0.0
H5167 H 0.55228 0.47031 0.07631 0.0
H5168 H 0.52453 0.46587 0.12454 0.0
H5169 H 0.54946 0.48891 0.14493 0.0
C5170 C 0.63414 0.5175 0.20579 0.0
C5171 C 0.62363 0.50737 0.21749 0.0
C5172 C 0.62686 0.52115 0.18835 0.0
C5173 C 0.6087 0.51516 0.18199 0.0
C5174 C 0.5983 0.50491 0.19367 0.0
C5175 C 0.60556 0.50109 0.21091 0.0
C5176 C 0.60047 0.51936 0.1634 0.0
C5177 C 0.58738 0.505 0.15121 0.0
C5178 C 0.60513 0.53745 0.15763 0.0
C5179 C 0.61693 0.55419 0.17045 0.0
C5180 C 0.61312 0.56001 0.1888 0.0
C5181 C 0.62434 0.57568 0.20097 0.0
C5182 C 0.63934 0.58578 0.19488 0.0
C5183 C 0.6431 0.58026 0.17658 0.0
C5184 C 0.63193 0.56457 0.16436 0.0
C5185 C 0.5501 0.52709 0.08617 0.0
C5186 C 0.56043 0.53375 0.07256 0.0
C5187 C 0.55772 0.52561 0.10428 0.0
C5188 C 0.57604 0.52998 0.10927 0.0
C5189 C 0.58632 0.53726 0.0958 0.0
C5190 C 0.57866 0.53919 0.07785 0.0
C5191 C 0.5844 0.52594 0.12782 0.0
C5192 C 0.59749 0.54029 0.13993 0.0
C5193 C 0.57934 0.50803 0.13385 0.0
C5194 C 0.56543 0.49225 0.12228 0.0
C5195 C 0.56626 0.48624 0.10295 0.0
C5196 C 0.55183 0.47386 0.09137 0.0
C5197 C 0.53677 0.46652 0.09914 0.0
C5198 C 0.53618 0.47157 0.11854 0.0
C5199 C 0.55042 0.48446 0.13009 0.0
H5200 H 0.52553 0.457 0.09014 0.0
H5201 H 0.64802 0.59792 0.20432 0.0
H5202 H 0.30987 0.86904 0.97414 0.0
H5203 H 0.30843 0.84763 0.94404 0.0
H5204 H 0.3066 0.89407 0.914 0.0
H5205 H 0.30678 0.915 0.94396 0.0
H5206 H 0.28347 0.86549 0.89736 0.0
H5207 H 0.34364 0.87456 0.92019 0.0
H5208 H 0.36903 0.87527 0.94294 0.0
H5209 H 0.35018 0.81518 0.94206 0.0
H5210 H 0.32453 0.81416 0.91952 0.0
H5211 H 0.29761 0.82307 0.80892 0.0
H5212 H 0.30446 0.84265 0.84041 0.0
H5213 H 0.29096 0.79212 0.86533 0.0
H5214 H 0.2843 0.77214 0.83349 0.0
H5215 H 0.32177 0.8215 0.88447 0.0
H5216 H 0.26122 0.81471 0.85942 0.0
H5217 H 0.23815 0.81629 0.83481 0.0
H5218 H 0.26126 0.876 0.83797 0.0
H5219 H 0.28462 0.87472 0.86241 0.0
C5220 C 0.30932 0.8746 0.96107 0.0
C5221 C 0.30835 0.89349 0.96115 0.0
C5222 C 0.30862 0.86246 0.94392 0.0
C5223 C 0.30761 0.86931 0.92677 0.0
C5224 C 0.30728 0.88845 0.92704 0.0
C5225 C 0.30741 0.90039 0.94409 0.0
C5226 C 0.30567 0.85629 0.90844 0.0
C5227 C 0.29204 0.8561 0.89452 0.0
C5228 C 0.31663 0.84376 0.90481 0.0
C5229 C 0.33208 0.84432 0.91831 0.0
C5230 C 0.34484 0.86152 0.92496 0.0
C5231 C 0.35929 0.86198 0.9378 0.0
C5232 C 0.3612 0.84529 0.94398 0.0
C5233 C 0.34867 0.8281 0.93729 0.0
C5234 C 0.33419 0.82757 0.92447 0.0
C5235 C 0.29638 0.81604 0.82108 0.0
C5236 C 0.29033 0.79612 0.81887 0.0
C5237 C 0.30027 0.82726 0.83902 0.0
C5238 C 0.29796 0.81877 0.85502 0.0
C5239 C 0.29275 0.79881 0.85301 0.0
C5240 C 0.28891 0.78748 0.83492 0.0
C5241 C 0.29978 0.83099 0.87363 0.0
C5242 C 0.31329 0.83096 0.88752 0.0
C5243 C 0.28904 0.84373 0.87708 0.0
C5244 C 0.27474 0.84458 0.86267 0.0
C5245 C 0.26144 0.82815 0.8548 0.0
C5246 C 0.2483 0.829 0.84089 0.0
C5247 C 0.24825 0.84623 0.83482 0.0
C5248 C 0.26131 0.86266 0.84269 0.0
C5249 C 0.27449 0.86189 0.85659 0.0
H5250 H 0.23807 0.84684 0.82405 0.0
H5251 H 0.37239 0.84567 0.95392 0.0
H5252 H 0.92647 0.53937 0.72639 0.0
H5253 H 0.93276 0.52246 0.6969 0.0
H5254 H 0.97181 0.50294 0.72854 0.0
H5255 H 0.96582 0.51999 0.75803 0.0
H5256 H 0.98377 0.51903 0.7006 0.0
H5257 H 0.93353 0.46934 0.70571 0.0
H5258 H 0.90312 0.45447 0.70897 0.0
H5259 H 0.88511 0.47665 0.6611 0.0
H5260 H 0.91552 0.49125 0.65729 0.0
H5261 H 0.00971 0.47504 0.6246 0.0
H5262 H 0.99224 0.47043 0.65022 0.0
H5263 H 0.95515 0.49685 0.62448 0.0
H5264 H 0.97234 0.50099 0.59834 0.0
H5265 H 0.9412 0.47329 0.65003 0.0
H5266 H 0.99029 0.52555 0.64679 0.0
H5267 H 0.02041 0.5408 0.64264 0.0
H5268 H 0.04013 0.51665 0.68815 0.0
H5269 H 0.01009 0.50093 0.6923 0.0
C5270 C 0.93652 0.53162 0.72703 0.0
C5271 C 0.94577 0.53113 0.74447 0.0
C5272 C 0.93983 0.52167 0.71024 0.0
C5273 C 0.95238 0.51106 0.71068 0.0
C5274 C 0.96188 0.51086 0.72802 0.0
C5275 C 0.95865 0.52086 0.7448 0.0
C5276 C 0.95727 0.50229 0.6929 0.0
C5277 C 0.97455 0.50861 0.68978 0.0
C5278 C 0.94503 0.48935 0.67852 0.0
C5279 C 0.92676 0.48153 0.68136 0.0
C5280 C 0.92307 0.47122 0.69602 0.0
C5281 C 0.90583 0.46275 0.6979 0.0
C5282 C 0.89215 0.46475 0.68536 0.0
C5283 C 0.8957 0.47514 0.67084 0.0
C5284 C 0.91294 0.48341 0.66874 0.0
C5285 C 0.99731 0.47882 0.62374 0.0
C5286 C 0.99265 0.48903 0.60994 0.0
C5287 C 0.98735 0.47618 0.63843 0.0
C5288 C 0.97288 0.48399 0.63946 0.0
C5289 C 0.96649 0.49104 0.62398 0.0
C5290 C 0.9764 0.49357 0.60918 0.0
C5291 C 0.96774 0.48974 0.65809 0.0
C5292 C 0.95045 0.48323 0.66117 0.0
C5293 C 0.97991 0.50279 0.67248 0.0
C5294 C 0.99797 0.51173 0.66958 0.0
C5295 C 1.00105 0.52323 0.6557 0.0
C5296 C 0.01811 0.53202 0.65339 0.0
C5297 C 0.03218 0.5296 0.66505 0.0
C5298 C 0.02922 0.51842 0.67905 0.0
C5299 C 0.01219 0.50953 0.68136 0.0
H5300 H 0.04537 0.53648 0.66329 0.0
H5301 H 0.8788 0.45817 0.68683 0.0
H5302 H 0.2723 0.18507 0.43396 0.0
H5303 H 0.27449 0.19847 0.40491 0.0
H5304 H 0.30392 0.25274 0.43778 0.0
H5305 H 0.30086 0.23969 0.46683 0.0
H5306 H 0.28422 0.26049 0.41322 0.0
H5307 H 0.32241 0.21927 0.40849 0.0
H5308 H 0.33201 0.1895 0.40814 0.0
H5309 H 0.29362 0.16183 0.36006 0.0
H5310 H 0.28364 0.19138 0.36028 0.0
H5311 H 0.32334 0.29537 0.33481 0.0
H5312 H 0.31943 0.28101 0.36315 0.0
H5313 H 0.27267 0.2408 0.33365 0.0
H5314 H 0.27608 0.25568 0.3054 0.0
H5315 H 0.30074 0.22604 0.35561 0.0
H5316 H 0.26495 0.27187 0.36172 0.0
H5317 H 0.25999 0.30407 0.36304 0.0
H5318 H 0.30052 0.32597 0.41027 0.0
H5319 H 0.30589 0.29395 0.40904 0.0
C5320 C 0.27925 0.19985 0.43497 0.0
C5321 C 0.28641 0.21127 0.45275 0.0
C5322 C 0.28062 0.20751 0.4183 0.0
C5323 C 0.28965 0.22664 0.41892 0.0
C5324 C 0.29683 0.238 0.43673 0.0
C5325 C 0.29513 0.23047 0.4534 0.0
C5326 C 0.29141 0.23493 0.40117 0.0
C5327 C 0.28803 0.25294 0.40076 0.0
C5328 C 0.2963 0.22528 0.38466 0.0
C5329 C 0.30214 0.20745 0.38455 0.0
C5330 C 0.31591 0.20678 0.39795 0.0
C5331 C 0.32144 0.18996 0.39775 0.0
C5332 C 0.31339 0.17376 0.38412 0.0
C5333 C 0.29982 0.17437 0.37063 0.0
C5334 C 0.29423 0.19115 0.37078 0.0
C5335 C 0.31225 0.28342 0.33429 0.0
C5336 C 0.3001 0.27654 0.31777 0.0
C5337 C 0.31002 0.27527 0.35053 0.0
C5338 C 0.29577 0.25985 0.35051 0.0
C5339 C 0.28378 0.25267 0.33394 0.0
C5340 C 0.28578 0.26113 0.31779 0.0
C5341 C 0.29346 0.2513 0.36784 0.0
C5342 C 0.29683 0.23337 0.36813 0.0
C5343 C 0.28919 0.26131 0.38444 0.0
C5344 C 0.28594 0.28055 0.38516 0.0
C5345 C 0.27292 0.28359 0.37226 0.0
C5346 C 0.27001 0.3018 0.37302 0.0
C5347 C 0.27996 0.31707 0.38669 0.0
C5348 C 0.29283 0.31414 0.39966 0.0
C5349 C 0.29581 0.29596 0.39895 0.0
H5350 H 0.27768 0.33115 0.38727 0.0
H5351 H 0.31769 0.16076 0.38399 0.0
H5352 H 0.31498 0.5971 0.51609 0.0
H5353 H 0.33522 0.5795 0.50381 0.0
H5354 H 0.3714 0.6324 0.50026 0.0
H5355 H 0.35085 0.65028 0.51208 0.0
H5356 H 0.36878 0.60452 0.46925 0.0
H5357 H 0.37729 0.61118 0.53715 0.0
H5358 H 0.36756 0.60906 0.56845 0.0
H5359 H 0.34786 0.54835 0.55146 0.0
H5360 H 0.35724 0.55016 0.51994 0.0
H5361 H 0.44848 0.57546 0.4818 0.0
H5362 H 0.42411 0.5903 0.48182 0.0
H5363 H 0.38837 0.53496 0.47578 0.0
H5364 H 0.41272 0.51988 0.47542 0.0
H5365 H 0.38921 0.56246 0.50934 0.0
H5366 H 0.384 0.5561 0.44206 0.0
H5367 H 0.39331 0.5591 0.41075 0.0
H5368 H 0.40767 0.62019 0.42689 0.0
H5369 H 0.39877 0.61757 0.45846 0.0
C5370 C 0.32726 0.60504 0.51277 0.0
C5371 C 0.33152 0.62507 0.51528 0.0
C5372 C 0.33874 0.59495 0.50569 0.0
C5373 C 0.35479 0.60474 0.50142 0.0
C5374 C 0.359 0.6247 0.50355 0.0
C5375 C 0.34738 0.63485 0.51042 0.0
C5376 C 0.36747 0.59407 0.49558 0.0
C5377 C 0.37346 0.59548 0.47804 0.0
C5378 C 0.37309 0.58201 0.507 0.0
C5379 C 0.36784 0.58083 0.52613 0.0
C5380 C 0.37081 0.59739 0.54005 0.0
C5381 C 0.36536 0.59625 0.55783 0.0
C5382 C 0.35707 0.57859 0.56193 0.0
C5383 C 0.35427 0.56203 0.54827 0.0
C5384 C 0.35966 0.5631 0.53044 0.0
C5385 C 0.43547 0.56636 0.47987 0.0
C5386 C 0.43257 0.54648 0.47847 0.0
C5387 C 0.42155 0.57487 0.47978 0.0
C5388 C 0.40457 0.56362 0.47859 0.0
C5389 C 0.40147 0.54374 0.47643 0.0
C5390 C 0.41538 0.53519 0.47622 0.0
C5391 C 0.39061 0.5729 0.48298 0.0
C5392 C 0.38445 0.57135 0.5004 0.0
C5393 C 0.38507 0.58498 0.47155 0.0
C5394 C 0.3909 0.58661 0.45274 0.0
C5395 C 0.38938 0.57017 0.43906 0.0
C5396 C 0.39453 0.57181 0.42122 0.0
C5397 C 0.40113 0.58982 0.41685 0.0
C5398 C 0.4026 0.60624 0.43031 0.0
C5399 C 0.3975 0.60469 0.44818 0.0
H5400 H 0.40506 0.59106 0.40301 0.0
H5401 H 0.35283 0.57773 0.57569 0.0
H5402 H 0.86802 0.9211 0.5626 0.0
H5403 H 0.89622 0.9401 0.55755 0.0
H5404 H 0.87343 0.94806 0.50367 0.0
H5405 H 0.84492 0.92915 0.50874 0.0
H5406 H 0.90732 0.93836 0.5035 0.0
H5407 H 0.88083 0.98385 0.53678 0.0
H5408 H 0.86526 0.99584 0.56219 0.0
H5409 H 0.90731 0.99564 0.60403 0.0
H5410 H 0.92302 0.98337 0.57885 0.0
H5411 H 0.98436 0.00874 0.49495 0.0
H5412 H 0.9545 0.99019 0.4948 0.0
H5413 H 0.96471 0.99305 0.55527 0.0
H5414 H 0.9941 0.0128 0.55553 0.0
H5415 H 0.9352 0.99803 0.54931 0.0
H5416 H 0.9612 0.95073 0.51676 0.0
H5417 H 0.97651 0.93743 0.49175 0.0
H5418 H 0.93589 0.93958 0.44913 0.0
H5419 H 0.92045 0.95315 0.47387 0.0
C5420 C 0.86892 0.92688 0.54966 0.0
C5421 C 0.8541 0.92367 0.53615 0.0
C5422 C 0.88511 0.93775 0.54678 0.0
C5423 C 0.887 0.94558 0.53025 0.0
C5424 C 0.87233 0.94216 0.51653 0.0
C5425 C 0.856 0.93146 0.51952 0.0
C5426 C 0.90424 0.95779 0.52783 0.0
C5427 C 0.91337 0.95156 0.51333 0.0
C5428 C 0.91228 0.97484 0.54081 0.0
C5429 C 0.90303 0.98257 0.55595 0.0
C5430 C 0.8867 0.98626 0.55141 0.0
C5431 C 0.87786 0.99311 0.56577 0.0
C5432 C 0.88528 0.99647 0.58472 0.0
C5433 C 0.90158 0.99303 0.58934 0.0
C5434 C 0.91047 0.98615 0.57503 0.0
C5435 C 0.98023 0.00528 0.50818 0.0
C5436 C 0.9916 0.01218 0.52527 0.0
C5437 C 0.96312 0.99451 0.50809 0.0
C5438 C 0.95716 0.98974 0.52498 0.0
C5439 C 0.96875 0.99645 0.54199 0.0
C5440 C 0.98565 0.00768 0.54215 0.0
C5441 C 0.93883 0.97841 0.52528 0.0
C5442 C 0.92934 0.98486 0.53938 0.0
C5443 C 0.93058 0.96146 0.512 0.0
C5444 C 0.93977 0.95313 0.49715 0.0
C5445 C 0.95558 0.94847 0.50204 0.0
C5446 C 0.96428 0.94087 0.48792 0.0
C5447 C 0.9572 0.9377 0.46886 0.0
C5448 C 0.94137 0.94207 0.46389 0.0
C5449 C 0.93264 0.9497 0.47796 0.0
H5450 H 0.96395 0.93183 0.45795 0.0
H5451 H 0.8784 1.00176 0.59582 0.0
H5452 H 0.91793 0.13999 0.27081 0.0
H5453 H 0.90126 0.1639 0.27133 0.0
H5454 H 0.85392 0.11956 0.25377 0.0
H5455 H 0.87099 0.09521 0.25253 0.0
H5456 H 0.84792 0.14628 0.23839 0.0
H5457 H 0.8699 0.15213 0.30309 0.0
H5458 H 0.89101 0.15653 0.33172 0.0
H5459 H 0.91757 0.21136 0.32131 0.0
H5460 H 0.89677 0.20718 0.29246 0.0
H5461 H 0.79448 0.21314 0.25765 0.0
H5462 H 0.80995 0.18786 0.25739 0.0
H5463 H 0.85895 0.23018 0.27029 0.0
H5464 H 0.84335 0.25565 0.27087 0.0
H5465 H 0.86306 0.20385 0.28887 0.0
H5466 H 0.84154 0.19454 0.22129 0.0
H5467 H 0.81933 0.18849 0.19324 0.0
H5468 H 0.78968 0.13959 0.21213 0.0
H5469 H 0.81199 0.14497 0.23995 0.0
C5470 C 0.90395 0.13499 0.26703 0.0
C5471 C 0.89621 0.11506 0.26166 0.0
C5472 C 0.89416 0.14905 0.26759 0.0
C5473 C 0.87579 0.14428 0.26317 0.0
C5474 C 0.86792 0.12433 0.25749 0.0
C5475 C 0.87783 0.11012 0.25677 0.0
C5476 C 0.86522 0.15998 0.26402 0.0
C5477 C 0.85128 0.15863 0.24972 0.0
C5478 C 0.86906 0.17684 0.27841 0.0
C5479 C 0.88189 0.17921 0.29546 0.0
C5480 C 0.88036 0.16503 0.30678 0.0
C5481 C 0.89225 0.16751 0.32308 0.0
C5482 C 0.90566 0.18418 0.32829 0.0
C5483 C 0.90721 0.19843 0.31722 0.0
C5484 C 0.89537 0.19601 0.3009 0.0
C5485 C 0.80858 0.21728 0.26039 0.0
C5486 C 0.81734 0.23697 0.26423 0.0
C5487 C 0.81762 0.2025 0.26003 0.0
C5488 C 0.83607 0.20638 0.26339 0.0
C5489 C 0.84486 0.2261 0.26748 0.0
C5490 C 0.83579 0.24094 0.26777 0.0
C5491 C 0.84603 0.19021 0.26311 0.0
C5492 C 0.85982 0.19148 0.27755 0.0
C5493 C 0.84189 0.17315 0.24907 0.0
C5494 C 0.8283 0.17026 0.23274 0.0
C5495 C 0.83022 0.18257 0.21949 0.0
C5496 C 0.81766 0.17924 0.20363 0.0
C5497 C 0.80301 0.16383 0.20103 0.0
C5498 C 0.80099 0.15157 0.21419 0.0
C5499 C 0.81365 0.15466 0.22992 0.0
H5500 H 0.79328 0.16132 0.18877 0.0
H5501 H 0.91483 0.18609 0.34093 0.0
H5502 H 0.72982 0.08277 0.03952 0.0
H5503 H 0.69871 0.07352 0.02719 0.0
H5504 H 0.7089 0.1055 0.98218 0.0
H5505 H 0.73996 0.11416 0.9938 0.0
H5506 H 0.68539 0.11556 0.0145 0.0
H5507 H 0.69135 0.06964 0.96188 0.0
H5508 H 0.70225 0.04314 0.94611 0.0
H5509 H 0.67765 0.00677 0.98242 0.0
H5510 H 0.6667 0.03312 0.99849 0.0
H5511 H 0.58845 0.07341 0.98852 0.0
H5512 H 0.61837 0.08392 0.98145 0.0
H5513 H 0.63781 0.06768 0.03279 0.0
H5514 H 0.60804 0.0575 0.04015 0.0
H5515 H 0.6451 0.05266 0.98651 0.0
H5516 H 0.65413 0.10416 0.04635 0.0
H5517 H 0.64144 0.12852 0.06348 0.0
H5518 H 0.63603 0.15245 0.01307 0.0
H5519 H 0.6485 0.12801 0.99563 0.0
C5520 C 0.72548 0.08727 0.02666 0.0
C5521 C 0.73722 0.09919 0.01769 0.0
C5522 C 0.70781 0.08197 0.01962 0.0
C5523 C 0.70178 0.08887 0.00382 0.0
C5524 C 0.71351 0.09994 0.99426 0.0
C5525 C 0.7312 0.10484 1.00097 0.0
C5526 C 0.68311 0.08696 0.99951 0.0
C5527 C 0.67653 0.10204 0.00777 0.0
C5528 C 0.67175 0.06927 0.99095 0.0
C5529 C 0.67832 0.05338 0.98145 0.0
C5530 C 0.6884 0.05604 0.9666 0.0
C5531 C 0.69454 0.04103 0.95758 0.0
C5532 C 0.69068 0.02329 0.96329 0.0
C5533 C 0.68063 0.02051 0.97801 0.0
C5534 C 0.67441 0.03546 0.98704 0.0
C5535 C 0.59919 0.0725 0.99845 0.0
C5536 C 0.59617 0.06479 0.01489 0.0
C5537 C 0.61611 0.07835 0.99434 0.0
C5538 C 0.62996 0.0763 0.00656 0.0
C5539 C 0.62705 0.06927 0.0233 0.0
C5540 C 0.61018 0.06369 0.02758 0.0
C5541 C 0.64765 0.08105 1.0019 0.0
C5542 C 0.65396 0.06648 0.99224 0.0
C5543 C 0.6588 0.09914 0.00918 0.0
C5544 C 0.6523 0.11444 0.01979 0.0
C5545 C 0.65032 0.11471 0.039 0.0
C5546 C 0.64311 0.12846 0.04873 0.0
C5547 C 0.63796 0.14205 0.03938 0.0
C5548 C 0.64005 0.14193 0.02029 0.0
C5549 C 0.64718 0.12814 0.01049 0.0
H5550 H 0.63234 0.15266 0.04691 0.0
H5551 H 0.69546 0.01169 0.9563 0.0
H5552 H 0.20646 0.50872 0.247 0.0
H5553 H 0.22575 0.4927 0.26234 0.0
H5554 H 0.18295 0.44314 0.25851 0.0
H5555 H 0.16314 0.4595 0.24376 0.0
H5556 H 0.2016 0.45372 0.29339 0.0
H5557 H 0.21381 0.44439 0.22843 0.0
H5558 H 0.2219 0.45546 0.19907 0.0
H5559 H 0.27102 0.48957 0.22902 0.0
H5560 H 0.26311 0.47895 0.25864 0.0
H5561 H 0.24361 0.37928 0.29698 0.0
H5562 H 0.22649 0.40251 0.2934 0.0
H5563 H 0.2738 0.44752 0.30137 0.0
H5564 H 0.29101 0.42428 0.30419 0.0
H5565 H 0.25507 0.44343 0.26768 0.0
H5566 H 0.24448 0.44921 0.33171 0.0
H5567 H 0.23629 0.43871 0.36125 0.0
H5568 H 0.18439 0.41157 0.33362 0.0
H5569 H 0.19234 0.42156 0.30378 0.0
C5570 C 0.20111 0.49431 0.24917 0.0
C5571 C 0.18328 0.48527 0.24417 0.0
C5572 C 0.21218 0.48523 0.25796 0.0
C5573 C 0.20571 0.46678 0.26137 0.0
C5574 C 0.18805 0.45746 0.25596 0.0
C5575 C 0.17684 0.4667 0.24743 0.0
C5576 C 0.21741 0.45733 0.27086 0.0
C5577 C 0.21321 0.45121 0.28774 0.0
C5578 C 0.23287 0.45498 0.26374 0.0
C5579 C 0.2378 0.461 0.2458 0.0
C5580 C 0.2263 0.45433 0.22878 0.0
C5581 C 0.23085 0.46053 0.21209 0.0
C5582 C 0.24694 0.47325 0.21219 0.0
C5583 C 0.25855 0.47974 0.22896 0.0
C5584 C 0.25404 0.47362 0.24571 0.0
C5585 C 0.25031 0.39421 0.29842 0.0
C5586 C 0.26858 0.40001 0.30055 0.0
C5587 C 0.24055 0.40747 0.29662 0.0
C5588 C 0.24898 0.42665 0.29715 0.0
C5589 C 0.26716 0.43274 0.30102 0.0
C5590 C 0.27694 0.41947 0.3027 0.0
C5591 C 0.23907 0.43928 0.29006 0.0
C5592 C 0.2436 0.44609 0.27357 0.0
C5593 C 0.22391 0.44219 0.29752 0.0
C5594 C 0.21907 0.43603 0.31543 0.0
C5595 C 0.23137 0.44083 0.33186 0.0
C5596 C 0.22676 0.43499 0.34868 0.0
C5597 C 0.20984 0.42444 0.3493 0.0
C5598 C 0.19749 0.41973 0.33311 0.0
C5599 C 0.20205 0.42549 0.31624 0.0
H5600 H 0.20629 0.41995 0.36234 0.0
H5601 H 0.25044 0.47804 0.19925 0.0
H5602 H 0.23404 0.39658 0.04316 0.0
H5603 H 0.21015 0.41051 0.03405 0.0
H5604 H 0.24157 0.4414 0.99772 0.0
H5605 H 0.26587 0.42828 0.00771 0.0
H5606 H 0.22574 0.46361 0.01324 0.0
H5607 H 0.20491 0.39953 0.98094 0.0
H5608 H 0.19675 0.36433 0.97583 0.0
H5609 H 0.15927 0.36581 0.01491 0.0
H5610 H 0.16735 0.40102 0.02045 0.0
H5611 H 0.15224 0.49529 0.97954 0.0
H5612 H 0.17512 0.47796 0.9791 0.0
H5613 H 0.15349 0.44825 0.02208 0.0
H5614 H 0.13004 0.46456 0.02173 0.0
H5615 H 0.16465 0.42483 0.9979 0.0
H5616 H 0.18946 0.49107 0.0311 0.0
H5617 H 0.19735 0.52597 0.03247 0.0
H5618 H 0.22735 0.51918 0.98642 0.0
H5619 H 0.21948 0.48425 0.98465 0.0
C5620 C 0.23589 0.40641 0.03329 0.0
C5621 C 0.2519 0.41136 0.02622 0.0
C5622 C 0.22209 0.41421 0.02786 0.0
C5623 C 0.22374 0.42672 0.01476 0.0
C5624 C 0.23982 0.43178 0.00779 0.0
C5625 C 0.25377 0.42429 0.01355 0.0
C5626 C 0.209 0.43516 0.00906 0.0
C5627 C 0.21245 0.45497 0.00956 0.0
C5628 C 0.1915 0.42412 0.00421 0.0
C5629 C 0.18688 0.40293 1.00125 0.0
C5630 C 0.19506 0.39235 0.9886 0.0
C5631 C 0.19041 0.3724 0.98559 0.0
C5632 C 0.17754 0.36284 0.99508 0.0
C5633 C 0.16926 0.37323 0.00759 0.0
C5634 C 0.17386 0.39318 0.01066 0.0
C5635 C 0.15211 0.48475 0.9886 0.0
C5636 C 0.1394 0.4816 1.00092 0.0
C5637 C 0.16538 0.47502 0.98852 0.0
C5638 C 0.16639 0.46215 1.00096 0.0
C5639 C 0.15318 0.45825 0.01249 0.0
C5640 C 0.13984 0.46777 0.01242 0.0
C5641 C 0.18142 0.4532 0.00271 0.0
C5642 C 0.17801 0.43331 1.00141 0.0
C5643 C 0.19898 0.46409 0.00639 0.0
C5644 C 0.20376 0.48508 0.00764 0.0
C5645 C 0.19767 0.49704 0.02122 0.0
C5646 C 0.20214 0.51681 0.02206 0.0
C5647 C 0.2128 0.52478 0.00951 0.0
C5648 C 0.21907 0.513 0.99611 0.0
C5649 C 0.21461 0.49322 0.99519 0.0
H5650 H 0.21625 0.54009 0.01019 0.0
H5651 H 0.17394 0.34739 0.99271 0.0
H5652 H 0.91393 0.98239 0.25563 0.0
H5653 H 0.89702 0.95115 0.25904 0.0
H5654 H 0.85 0.97076 0.25436 0.0
H5655 H 0.86732 1.00281 0.25207 0.0
H5656 H 0.84529 0.94737 0.27707 0.0
H5657 H 0.86581 0.93821 0.21617 0.0
H5658 H 0.88808 0.94009 0.19439 0.0
H5659 H 0.91376 0.90607 0.22501 0.0
H5660 H 0.89174 0.90416 0.2471 0.0
H5661 H 0.78639 0.85559 0.25578 0.0
H5662 H 0.80493 0.88679 0.25483 0.0
H5663 H 0.85051 0.86575 0.26545 0.0
H5664 H 0.83168 0.83403 0.26639 0.0
H5665 H 0.85672 0.88934 0.24043 0.0
H5666 H 0.83617 0.89741 0.30045 0.0
H5667 H 0.81454 0.8957 0.32295 0.0
H5668 H 0.78949 0.93176 0.29459 0.0
H5669 H 0.81085 0.93349 0.27177 0.0
C5670 C 0.89996 0.98023 0.25532 0.0
C5671 C 0.89219 0.99549 0.25334 0.0
C5672 C 0.89012 0.96198 0.25707 0.0
C5673 C 0.8718 0.95768 0.25625 0.0
C5674 C 0.86398 0.97311 0.25485 0.0
C5675 C 0.87397 0.99165 0.25352 0.0
C5676 C 0.86106 0.93738 0.25703 0.0
C5677 C 0.84772 0.93482 0.26873 0.0
C5678 C 0.86418 0.92035 0.24683 0.0
C5679 C 0.87721 0.92117 0.23336 0.0
C5680 C 0.87624 0.93118 0.21828 0.0
C5681 C 0.88882 0.93226 0.20589 0.0
C5682 C 0.90234 0.92324 0.20834 0.0
C5683 C 0.90328 0.91306 0.22314 0.0
C5684 C 0.89074 0.91195 0.23558 0.0
C5685 C 0.80037 0.85737 0.25797 0.0
C5686 C 0.80725 0.84174 0.26111 0.0
C5687 C 0.81111 0.87557 0.25753 0.0
C5688 C 0.82944 0.87933 0.26038 0.0
C5689 C 0.8365 0.86368 0.26323 0.0
C5690 C 0.82563 0.84529 0.26372 0.0
C5691 C 0.84084 0.89944 0.26025 0.0
C5692 C 0.85429 0.90194 0.24871 0.0
C5693 C 0.83786 0.91642 0.27061 0.0
C5694 C 0.82502 0.91544 0.2843 0.0
C5695 C 0.82597 0.90487 0.29893 0.0
C5696 C 0.81378 0.90391 0.31175 0.0
C5697 C 0.80063 0.91358 0.31017 0.0
C5698 C 0.79967 0.92426 0.29579 0.0
C5699 C 0.81183 0.92525 0.28291 0.0
H5700 H 0.79119 0.91282 0.32011 0.0
H5701 H 0.91208 0.92412 0.19875 0.0
H5702 H 0.66272 0.09767 0.76549 0.0
H5703 H 0.68181 0.13001 0.77121 0.0
H5704 H 0.72431 0.10696 0.75352 0.0
H5705 H 0.70574 0.07492 0.74843 0.0
H5706 H 0.73573 0.13507 0.78221 0.0
H5707 H 0.69717 0.1224 0.72226 0.0
H5708 H 0.66913 0.1155 0.70154 0.0
H5709 H 0.65713 0.16484 0.7326 0.0
H5710 H 0.68503 0.1719 0.75362 0.0
H5711 H 0.78937 0.20881 0.74339 0.0
H5712 H 0.76989 0.17816 0.74661 0.0
H5713 H 0.7336 0.20848 0.76953 0.0
H5714 H 0.75253 0.23854 0.76588 0.0
H5715 H 0.71822 0.17864 0.74207 0.0
H5716 H 0.7605 0.19359 0.79821 0.0
H5717 H 0.78996 0.20069 0.816 0.0
H5718 H 0.79635 0.14648 0.78926 0.0
H5719 H 0.76702 0.13923 0.77114 0.0
C5720 C 0.67621 0.09957 0.76312 0.0
C5721 C 0.68277 0.08392 0.75637 0.0
C5722 C 0.68703 0.11795 0.76638 0.0
C5723 C 0.70431 0.12068 0.76258 0.0
C5724 C 0.71101 0.10501 0.75662 0.0
C5725 C 0.70034 0.08674 0.7536 0.0
C5726 C 0.71525 0.13976 0.7631 0.0
C5727 C 0.73196 0.14467 0.77346 0.0
C5728 C 0.71008 0.15219 0.75183 0.0
C5729 C 0.69301 0.14746 0.7397 0.0
C5730 C 0.68843 0.13161 0.72482 0.0
C5731 C 0.6726 0.12772 0.71298 0.0
C5732 C 0.66131 0.13967 0.71581 0.0
C5733 C 0.66584 0.15554 0.73048 0.0
C5734 C 0.68165 0.15949 0.74236 0.0
C5735 C 0.77705 0.20862 0.74873 0.0
C5736 C 0.77211 0.22556 0.75429 0.0
C5737 C 0.76616 0.19138 0.75081 0.0
C5738 C 0.75056 0.19138 0.75851 0.0
C5739 C 0.74563 0.20838 0.76361 0.0
C5740 C 0.75633 0.22538 0.76145 0.0
C5741 C 0.73881 0.17369 0.76077 0.0
C5742 C 0.72193 0.16917 0.75103 0.0
C5743 C 0.74395 0.16154 0.77234 0.0
C5744 C 0.76162 0.16596 0.78321 0.0
C5745 C 0.76826 0.18328 0.79602 0.0
C5746 C 0.78493 0.18731 0.80618 0.0
C5747 C 0.79505 0.17405 0.80372 0.0
C5748 C 0.78851 0.15674 0.79113 0.0
C5749 C 0.77186 0.15267 0.78093 0.0
H5750 H 0.80793 0.17711 0.8116 0.0
H5751 H 0.64909 0.13666 0.70658 0.0
loop_
_geom_bond_atom_site_label_1
_geom_bond_atom_site_label_2
_geom_bond_distance
_geom_bond_site_symmetry_2
_ccdc_geom_bond_type
C0 O1 1.160 . S
C0 O7 1.185 . S
O1 C0 1.160 . S
O2 Zn3 1.899 . S
O2 C10 1.284 . S
Zn3 O2 1.899 . S
Zn3 O4 2.032 . S
Zn3 O7 2.086 . S
Zn3 O12 1.977 . S
O4 Zn3 2.032 . S
O4 C8 1.278 . S
C5 O6 1.203 . S
C5 O12 1.267 . S
O6 C5 1.203 . S
O7 C0 1.185 . S
O7 Zn3 2.086 . S
C8 O4 1.278 . S
C8 O9 1.211 . S
O9 C8 1.211 . S
C10 O2 1.284 . S
C10 O11 1.273 . S
O11 C10 1.273 . S
O12 Zn3 1.977 . S
O12 C5 1.267 . S
C13 O14 1.160 . S
C13 O20 1.185 . S
O14 C13 1.160 . S
O15 Zn16 1.899 . S
O15 C23 1.284 . S
Zn16 O15 1.899 . S
Zn16 O17 2.032 . S
Zn16 O20 2.086 . S
Zn16 O25 1.977 1_655 S
O17 Zn16 2.032 . S
O17 C21 1.278 1_655 S
C18 O19 1.203 . S
C18 O25 1.267 . S
O19 C18 1.203 . S
O20 C13 1.185 . S
O20 Zn16 2.086 . S
C21 O17 1.278 1_455 S
C21 O22 1.211 . S
O22 C21 1.211 . S
C23 O15 1.284 . S
C23 O24 1.273 1_655 S
O24 C23 1.273 1_455 S
O25 Zn16 1.977 1_455 S
O25 C18 1.267 . S
C26 O27 1.160 . S
C26 O33 1.185 . S
O27 C26 1.160 . S
O28 Zn29 1.899 . S
O28 C36 1.284 . S
Zn29 O28 1.899 . S
Zn29 O30 2.032 . S
Zn29 O33 2.086 . S
Zn29 O38 1.977 . S
O30 Zn29 2.032 . S
O30 C34 1.278 . S
C31 O32 1.203 . S
C31 O38 1.267 . S
O32 C31 1.203 . S
O33 C26 1.185 . S
O33 Zn29 2.086 . S
C34 O30 1.278 . S
C34 O35 1.211 . S
O35 C34 1.211 . S
C36 O28 1.284 . S
C36 O37 1.273 . S
O37 C36 1.273 . S
O38 Zn29 1.977 . S
O38 C31 1.267 . S
C39 O40 1.160 . S
C39 O46 1.185 . S
O40 C39 1.160 . S
O41 Zn42 1.899 . S
O41 C49 1.284 . S
Zn42 O41 1.899 . S
Zn42 O43 2.032 . S
Zn42 O46 2.086 . S
Zn42 O51 1.977 . S
O43 Zn42 2.032 . S
O43 C47 1.278 . S
C44 O45 1.203 . S
C44 O51 1.267 . S
O45 C44 1.203 . S
O46 C39 1.185 . S
O46 Zn42 2.086 . S
C47 O43 1.278 . S
C47 O48 1.211 . S
O48 C47 1.211 . S
C49 O41 1.284 . S
C49 O50 1.273 . S
O50 C49 1.273 . S
O51 Zn42 1.977 . S
O51 C44 1.267 . S
C52 O53 1.160 . S
C52 O59 1.185 . S
O53 C52 1.160 . S
O54 Zn55 1.899 . S
O54 C62 1.284 . S
Zn55 O54 1.899 . S
Zn55 O56 2.032 . S
Zn55 O59 2.086 . S
Zn55 O64 1.977 . S
O56 Zn55 2.032 . S
O56 C60 1.278 . S
C57 O58 1.203 . S
C57 O64 1.267 . S
O58 C57 1.203 . S
O59 C52 1.185 . S
O59 Zn55 2.086 . S
C60 O56 1.278 . S
C60 O61 1.211 . S
O61 C60 1.211 . S
C62 O54 1.284 . S
C62 O63 1.273 . S
O63 C62 1.273 . S
O64 Zn55 1.977 . S
O64 C57 1.267 . S
C65 O66 1.160 . S
C65 O72 1.185 . S
O66 C65 1.160 . S
O67 Zn68 1.899 . S
O67 C75 1.284 . S
Zn68 O67 1.899 . S
Zn68 O69 2.032 . S
Zn68 O72 2.086 . S
Zn68 O77 1.977 . S
O69 Zn68 2.032 . S
O69 C73 1.278 . S
C70 O71 1.203 . S
C70 O77 1.267 . S
O71 C70 1.203 . S
O72 C65 1.185 . S
O72 Zn68 2.086 . S
C73 O69 1.278 . S
C73 O74 1.211 . S
O74 C73 1.211 . S
C75 O67 1.284 . S
C75 O76 1.273 . S
O76 C75 1.273 . S
O77 Zn68 1.977 . S
O77 C70 1.267 . S
C78 O79 1.160 . S
C78 O85 1.185 . S
O79 C78 1.160 . S
O80 Zn81 1.899 . S
O80 C88 1.284 . S
Zn81 O80 1.899 . S
Zn81 O82 2.032 . S
Zn81 O85 2.086 . S
Zn81 O90 1.977 . S
O82 Zn81 2.032 . S
O82 C86 1.278 . S
C83 O84 1.203 . S
C83 O90 1.267 . S
O84 C83 1.203 . S
O85 C78 1.185 . S
O85 Zn81 2.086 . S
C86 O82 1.278 . S
C86 O87 1.211 . S
O87 C86 1.211 . S
C88 O80 1.284 . S
C88 O89 1.273 . S
O89 C88 1.273 . S
O90 Zn81 1.977 . S
O90 C83 1.267 . S
C91 O92 1.160 . S
C91 O98 1.185 . S
O92 C91 1.160 . S
O93 Zn94 1.899 . S
O93 C101 1.284 . S
Zn94 O93 1.899 . S
Zn94 O95 2.032 . S
Zn94 O98 2.086 . S
Zn94 O103 1.977 1_455 S
O95 Zn94 2.032 . S
O95 C99 1.278 . S
C96 O97 1.203 . S
C96 O103 1.267 . S
O97 C96 1.203 . S
O98 C91 1.185 . S
O98 Zn94 2.086 . S
C99 O95 1.278 . S
C99 O100 1.213 1_455 S
O100 C99 1.213 1_655 S
C101 O93 1.284 . S
C101 O102 1.273 . S
O102 C101 1.273 . S
O103 Zn94 1.977 1_655 S
O103 C96 1.267 . S
C104 O105 1.160 . S
C104 O111 1.185 . S
O105 C104 1.160 . S
O106 Zn107 1.899 . S
O106 C114 1.284 . S
Zn107 O106 1.899 . S
Zn107 O108 2.032 . S
Zn107 O111 2.086 . S
Zn107 O116 1.977 1_545 S
O108 Zn107 2.032 . S
O108 C112 1.278 . S
C109 O110 1.203 . S
C109 O116 1.267 . S
O110 C109 1.203 . S
O111 C104 1.185 . S
O111 Zn107 2.086 . S
C112 O108 1.278 . S
C112 O113 1.211 1_545 S
O113 C112 1.211 1_565 S
C114 O106 1.284 . S
C114 O115 1.273 . S
O115 C114 1.273 . S
O116 Zn107 1.977 1_565 S
O116 C109 1.267 . S
C117 O118 1.160 . S
C117 O124 1.185 . S
O118 C117 1.160 . S
O119 Zn120 1.899 . S
O119 C127 1.284 . S
Zn120 O119 1.899 . S
Zn120 O121 2.032 . S
Zn120 O124 2.086 . S
Zn120 O129 1.977 . S
O121 Zn120 2.032 . S
O121 C125 1.278 . S
C122 O123 1.203 . S
C122 O129 1.267 . S
O123 C122 1.203 . S
O124 C117 1.185 . S
O124 Zn120 2.086 . S
C125 O121 1.278 . S
C125 O126 1.211 . S
O126 C125 1.211 . S
C127 O119 1.284 . S
C127 O128 1.273 . S
O128 C127 1.273 . S
O129 Zn120 1.977 . S
O129 C122 1.267 . S
C130 O131 1.160 . S
C130 O137 1.185 . S
O131 C130 1.160 . S
O132 Zn133 1.899 . S
O132 C140 1.284 . S
Zn133 O132 1.899 . S
Zn133 O134 2.032 . S
Zn133 O137 2.086 . S
Zn133 O142 1.977 1_565 S
O134 Zn133 2.032 . S
O134 C138 1.278 1_565 S
C135 O136 1.203 . S
C135 O142 1.267 . S
O136 C135 1.203 . S
O137 C130 1.185 . S
O137 Zn133 2.086 . S
C138 O134 1.278 1_545 S
C138 O139 1.211 . S
O139 C138 1.211 . S
C140 O132 1.284 . S
C140 O141 1.273 1_565 S
O141 C140 1.273 1_545 S
O142 Zn133 1.977 1_545 S
O142 C135 1.267 . S
C143 O144 1.160 . S
C143 O150 1.185 . S
O144 C143 1.160 . S
O145 Zn146 1.899 . S
O145 C153 1.284 . S
Zn146 O145 1.899 . S
Zn146 O147 2.032 1_554 S
Zn146 O150 2.086 . S
Zn146 O155 1.977 . S
O147 Zn146 2.032 1_556 S
O147 C151 1.278 . S
C148 O149 1.203 . S
C148 O155 1.267 . S
O149 C148 1.203 . S
O150 C143 1.185 . S
O150 Zn146 2.086 . S
C151 O147 1.278 . S
C151 O152 1.211 . S
O152 C151 1.211 . S
C153 O145 1.284 . S
C153 O154 1.273 . S
O154 C153 1.273 . S
O155 Zn146 1.977 . S
O155 C148 1.267 . S
C156 O157 1.160 . S
C156 O163 1.185 . S
O157 C156 1.160 . S
O158 Zn159 1.899 . S
O158 C166 1.284 . S
Zn159 O158 1.899 . S
Zn159 O160 2.032 1_554 S
Zn159 O163 2.086 . S
Zn159 O168 1.977 . S
O160 Zn159 2.032 1_556 S
O160 C164 1.278 . S
C161 O162 1.203 . S
C161 O168 1.267 . S
O162 C161 1.203 . S
O163 C156 1.185 . S
O163 Zn159 2.086 . S
C164 O160 1.278 . S
C164 O165 1.211 . S
O165 C164 1.211 . S
C166 O158 1.284 . S
C166 O167 1.273 . S
O167 C166 1.273 . S
O168 Zn159 1.977 . S
O168 C161 1.267 . S
C169 O170 1.160 . S
C169 O176 1.185 . S
O170 C169 1.160 . S
O171 Zn172 1.899 . S
O171 C179 1.284 . S
Zn172 O171 1.899 . S
Zn172 O173 2.032 1_554 S
Zn172 O176 2.086 . S
Zn172 O181 1.977 . S
O173 Zn172 2.032 1_556 S
O173 C177 1.278 . S
C174 O175 1.203 . S
C174 O181 1.267 . S
O175 C174 1.203 . S
O176 C169 1.185 . S
O176 Zn172 2.086 . S
C177 O173 1.278 . S
C177 O178 1.211 . S
O178 C177 1.211 . S
C179 O171 1.284 . S
C179 O180 1.273 . S
O180 C179 1.273 . S
O181 Zn172 1.977 . S
O181 C174 1.267 . S
C182 O183 1.160 . S
C182 O189 1.185 . S
O183 C182 1.160 . S
O184 Zn185 1.899 . S
O184 C192 1.284 . S
Zn185 O184 1.899 . S
Zn185 O186 2.032 . S
Zn185 O189 2.086 . S
Zn185 O194 1.977 . S
O186 Zn185 2.032 . S
O186 C190 1.278 . S
C187 O188 1.203 . S
C187 O194 1.267 . S
O188 C187 1.203 . S
O189 C182 1.185 . S
O189 Zn185 2.086 . S
C190 O186 1.278 . S
C190 O191 1.211 . S
O191 C190 1.211 . S
C192 O184 1.284 . S
C192 O193 1.273 . S
O193 C192 1.273 . S
O194 Zn185 1.977 . S
O194 C187 1.267 . S
C195 O196 1.160 . S
C195 O202 1.185 . S
O196 C195 1.160 . S
O197 Zn198 1.899 . S
O197 C205 1.284 . S
Zn198 O197 1.899 . S
Zn198 O199 2.032 . S
Zn198 O202 2.086 . S
Zn198 O207 1.977 . S
O199 Zn198 2.032 . S
O199 C203 1.278 . S
C200 O201 1.203 . S
C200 O207 1.267 . S
O201 C200 1.203 . S
O202 C195 1.185 . S
O202 Zn198 2.086 . S
C203 O199 1.278 . S
C203 O204 1.211 . S
O204 C203 1.211 . S
C205 O197 1.284 . S
C205 O206 1.273 . S
O206 C205 1.273 . S
O207 Zn198 1.977 . S
O207 C200 1.267 . S
C208 O209 1.160 . S
C208 O215 1.185 . S
O209 C208 1.160 . S
O210 Zn211 1.899 . S
O210 C218 1.284 . S
Zn211 O210 1.899 . S
Zn211 O212 2.032 . S
Zn211 O215 2.086 . S
Zn211 O220 1.977 . S
O212 Zn211 2.032 . S
O212 C216 1.278 . S
C213 O214 1.203 . S
C213 O220 1.267 . S
O214 C213 1.203 . S
O215 C208 1.185 . S
O215 Zn211 2.086 . S
C216 O212 1.278 . S
C216 O217 1.211 . S
O217 C216 1.211 . S
C218 O210 1.284 . S
C218 O219 1.273 . S
O219 C218 1.273 . S
O220 Zn211 1.977 . S
O220 C213 1.267 . S
C221 O222 1.160 . S
C221 O228 1.185 . S
O222 C221 1.160 . S
O223 Zn224 1.899 . S
O223 C231 1.284 . S
Zn224 O223 1.899 . S
Zn224 O225 2.032 . S
Zn224 O228 2.086 . S
Zn224 O233 1.977 . S
O225 Zn224 2.032 . S
O225 C229 1.278 . S
C226 O227 1.203 . S
C226 O233 1.267 . S
O227 C226 1.203 . S
O228 C221 1.185 . S
O228 Zn224 2.086 . S
C229 O225 1.278 . S
C229 O230 1.211 . S
O230 C229 1.211 . S
C231 O223 1.284 . S
C231 O232 1.273 . S
O232 C231 1.273 . S
O233 Zn224 1.977 . S
O233 C226 1.267 . S
C234 O235 1.160 . S
C234 O241 1.185 . S
O235 C234 1.160 . S
O236 Zn237 1.899 . S
O236 C244 1.284 . S
Zn237 O236 1.899 . S
Zn237 O238 2.032 . S
Zn237 O241 2.086 . S
Zn237 O246 1.977 . S
O238 Zn237 2.032 . S
O238 C242 1.278 . S
C239 O240 1.203 . S
C239 O246 1.267 . S
O240 C239 1.203 . S
O241 C234 1.185 . S
O241 Zn237 2.086 . S
C242 O238 1.278 . S
C242 O243 1.211 . S
O243 C242 1.211 . S
C244 O236 1.284 . S
C244 O245 1.273 . S
O245 C244 1.273 . S
O246 Zn237 1.977 . S
O246 C239 1.267 . S
C247 O248 1.160 . S
C247 O254 1.185 . S
O248 C247 1.160 . S
O249 Zn250 1.899 . S
O249 C257 1.284 . S
Zn250 O249 1.899 . S
Zn250 O251 2.032 . S
Zn250 O254 2.086 . S
Zn250 O259 1.977 . S
O251 Zn250 2.032 . S
O251 C255 1.278 . S
C252 O253 1.203 . S
C252 O259 1.267 . S
O253 C252 1.203 . S
O254 C247 1.185 . S
O254 Zn250 2.086 . S
C255 O251 1.278 . S
C255 O256 1.211 . S
O256 C255 1.211 . S
C257 O249 1.284 . S
C257 O258 1.273 . S
O258 C257 1.273 . S
O259 Zn250 1.977 . S
O259 C252 1.267 . S
C260 O261 1.160 . S
C260 O267 1.191 . S
O261 C260 1.160 . S
O262 Zn263 1.899 . S
O262 C270 1.284 . S
Zn263 O262 1.899 . S
Zn263 O264 2.032 1_554 S
Zn263 O267 2.090 . S
Zn263 O272 1.977 1_554 S
O264 Zn263 2.032 1_556 S
O264 C268 1.278 . S
C265 O266 1.203 . S
C265 O272 1.267 1_554 S
O266 C265 1.203 . S
O267 C260 1.191 . S
O267 Zn263 2.090 . S
C268 O264 1.278 . S
C268 O269 1.211 . S
O269 C268 1.211 . S
C270 O262 1.284 . S
C270 O271 1.273 . S
O271 C270 1.273 . S
O272 Zn263 1.977 1_556 S
O272 C265 1.267 1_556 S
C273 O274 1.160 . S
C273 O280 1.185 . S
O274 C273 1.160 . S
O275 Zn276 1.899 . S
O275 C283 1.284 . S
Zn276 O275 1.899 . S
Zn276 O277 2.032 . S
Zn276 O280 2.086 . S
Zn276 O285 1.977 . S
O277 Zn276 2.032 . S
O277 C281 1.278 . S
C278 O279 1.203 . S
C278 O285 1.267 . S
O279 C278 1.203 . S
O280 C273 1.185 . S
O280 Zn276 2.086 . S
C281 O277 1.278 . S
C281 O282 1.211 . S
O282 C281 1.211 . S
C283 O275 1.284 . S
C283 O284 1.273 . S
O284 C283 1.273 . S
O285 Zn276 1.977 . S
O285 C278 1.267 . S
C286 O287 1.160 . S
C286 O293 1.185 . S
O287 C286 1.160 . S
O288 Zn289 1.899 . S
O288 C296 1.284 . S
Zn289 O288 1.899 . S
Zn289 O290 2.032 . S
Zn289 O293 2.086 . S
Zn289 O298 1.977 . S
O290 Zn289 2.032 . S
O290 C294 1.278 . S
C291 O292 1.203 . S
C291 O298 1.267 . S
O292 C291 1.203 . S
O293 C286 1.185 . S
O293 Zn289 2.086 . S
C294 O290 1.278 . S
C294 O295 1.211 . S
O295 C294 1.211 . S
C296 O288 1.284 . S
C296 O297 1.273 . S
O297 C296 1.273 . S
O298 Zn289 1.977 . S
O298 C291 1.267 . S
C299 O300 1.160 . S
C299 O306 1.185 . S
O300 C299 1.160 . S
O301 Zn302 1.899 . S
O301 C309 1.284 . S
Zn302 O301 1.899 . S
Zn302 O303 2.032 . S
Zn302 O306 2.086 . S
Zn302 O311 1.977 . S
O303 Zn302 2.032 . S
O303 C307 1.278 . S
C304 O305 1.203 . S
C304 O311 1.267 . S
O305 C304 1.203 . S
O306 C299 1.185 . S
O306 Zn302 2.086 . S
C307 O303 1.278 . S
C307 O308 1.211 . S
O308 C307 1.211 . S
C309 O301 1.284 . S
C309 O310 1.273 . S
O310 C309 1.273 . S
O311 Zn302 1.977 . S
O311 C304 1.267 . S
Gd312 C315 2.818 1_455 S
Gd312 O332 2.377 . S
Gd312 O334 2.448 1_455 S
Gd312 O335 2.506 1_456 S
Gd312 O336 2.435 . S
Gd312 O337 2.717 . S
Gd312 O339 2.395 1_546 S
Gd312 O343 2.327 1_556 S
Gd313 C324 2.818 . S
Gd313 O333 2.395 . S
Gd313 O337 2.327 1_554 S
Gd313 O338 2.377 . S
Gd313 O340 2.448 . S
Gd313 O341 2.506 . S
Gd313 O342 2.435 . S
Gd313 O343 2.717 . S
C314 O332 1.240 1_554 S
C314 O333 1.240 . S
C315 Gd312 2.818 1_655 S
C315 C316 1.510 . S
C315 O334 1.249 . S
C315 O335 1.252 1_556 S
C316 C315 1.510 . S
C316 C317 1.404 . S
C316 C318 1.352 . S
C317 C316 1.404 . S
C317 C321 1.389 . S
C317 H344 0.930 . S
C318 C316 1.352 . S
C318 C320 1.374 . S
C318 H345 0.931 1_556 S
C319 C320 1.359 . S
C319 C321 1.364 . S
C320 C318 1.374 . S
C320 C319 1.359 . S
C320 H346 0.931 1_556 S
C321 C317 1.389 . S
C321 C319 1.364 . S
C321 H347 0.931 . S
C322 O336 1.256 . S
C322 O337 1.257 . S
C323 O338 1.240 1_565 S
C323 O339 1.240 . S
C324 Gd313 2.818 . S
C324 C325 1.510 . S
C324 O340 1.249 . S
C324 O341 1.252 . S
C325 C324 1.510 . S
C325 C326 1.404 . S
C325 C327 1.352 . S
C326 C325 1.404 . S
C326 C330 1.389 . S
C326 H348 0.930 . S
C327 C325 1.352 . S
C327 C329 1.374 1_545 S
C327 H349 0.931 1_545 S
C328 C329 1.359 1_545 S
C328 C330 1.375 . S
C329 C327 1.374 1_565 S
C329 C328 1.359 1_565 S
C329 H350 0.931 . S
C330 C326 1.389 . S
C330 C328 1.375 . S
C330 H351 0.931 . S
C331 O342 1.256 . S
C331 O343 1.257 . S
O332 Gd312 2.377 . S
O332 C314 1.240 1_556 S
O333 Gd313 2.395 . S
O333 C314 1.240 . S
O334 Gd312 2.448 1_655 S
O334 C315 1.249 . S
O335 Gd312 2.506 1_654 S
O335 C315 1.252 1_554 S
O336 Gd312 2.435 . S
O336 C322 1.256 . S
O337 Gd312 2.717 . S
O337 Gd313 2.327 1_556 S
O337 C322 1.257 . S
O338 Gd313 2.377 . S
O338 C323 1.240 1_545 S
O339 Gd312 2.395 1_564 S
O339 C323 1.240 . S
O340 Gd313 2.448 . S
O340 C324 1.249 . S
O341 Gd313 2.506 . S
O341 C324 1.252 . S
O342 Gd313 2.435 . S
O342 C331 1.256 . S
O343 Gd312 2.327 1_554 S
O343 Gd313 2.717 . S
O343 C331 1.257 . S
H344 C317 0.930 . S
H345 C318 0.931 1_554 S
H346 C320 0.931 1_554 S
H347 C321 0.931 . S
H348 C326 0.930 . S
H349 C327 0.931 1_565 S
H350 C329 0.931 . S
H351 C330 0.931 . S
Gd352 C355 2.818 . S
Gd352 O372 2.377 . S
Gd352 O374 2.448 . S
Gd352 O375 2.506 . S
Gd352 O376 2.435 . S
Gd352 O377 2.717 . S
Gd352 O379 2.395 . S
Gd352 O383 2.327 . S
Gd353 C364 2.818 . S
Gd353 O373 2.395 . S
Gd353 O377 2.327 . S
Gd353 O378 2.377 . S
Gd353 O380 2.448 . S
Gd353 O381 2.506 . S
Gd353 O382 2.435 . S
Gd353 O383 2.717 . S
C354 O372 1.240 . S
C354 O373 1.240 . S
C355 Gd352 2.818 . S
C355 C356 1.510 . S
C355 O374 1.249 . S
C355 O375 1.252 . S
C356 C355 1.510 . S
C356 C357 1.404 . S
C356 C358 1.352 . S
C357 C356 1.404 . S
C357 C361 1.389 . S
C357 H384 0.930 . S
C358 C356 1.352 . S
C358 C360 1.374 . S
C358 H385 0.931 . S
C359 C360 1.359 . S
C359 C361 1.364 . S
C360 C358 1.374 . S
C360 C359 1.359 . S
C360 H386 0.931 . S
C361 C357 1.389 . S
C361 C359 1.364 . S
C361 H387 0.931 . S
C362 O376 1.256 . S
C362 O377 1.257 . S
C363 O378 1.240 . S
C363 O379 1.240 . S
C364 Gd353 2.818 . S
C364 C365 1.510 . S
C364 O380 1.249 . S
C364 O381 1.252 . S
C365 C364 1.510 . S
C365 C366 1.404 . S
C365 C367 1.352 . S
C366 C365 1.404 . S
C366 C370 1.389 . S
C366 H388 0.930 . S
C367 C365 1.352 . S
C367 C369 1.374 . S
C367 H389 0.931 . S
C368 C369 1.359 . S
C368 C370 1.364 . S
C369 C367 1.374 . S
C369 C368 1.359 . S
C369 H390 0.931 . S
C370 C366 1.389 . S
C370 C368 1.364 . S
C370 H391 0.931 . S
C371 O382 1.256 . S
C371 O383 1.257 . S
O372 Gd352 2.377 . S
O372 C354 1.240 . S
O373 Gd353 2.395 . S
O373 C354 1.240 . S
O374 Gd352 2.448 . S
O374 C355 1.249 . S
O375 Gd352 2.506 . S
O375 C355 1.252 . S
O376 Gd352 2.435 . S
O376 C362 1.256 . S
O377 Gd352 2.717 . S
O377 Gd353 2.327 . S
O377 C362 1.257 . S
O378 Gd353 2.377 . S
O378 C363 1.240 . S
O379 Gd352 2.395 . S
O379 C363 1.240 . S
O380 Gd353 2.448 . S
O380 C364 1.249 . S
O381 Gd353 2.506 . S
O381 C364 1.252 . S
O382 Gd353 2.435 . S
O382 C371 1.256 . S
O383 Gd352 2.327 . S
O383 Gd353 2.717 . S
O383 C371 1.257 . S
H384 C357 0.930 . S
H385 C358 0.931 . S
H386 C360 0.931 . S
H387 C361 0.931 . S
H388 C366 0.930 . S
H389 C367 0.931 . S
H390 C369 0.931 . S
H391 C370 0.931 . S
Gd392 C395 2.818 . S
Gd392 O412 2.377 . S
Gd392 O414 2.448 . S
Gd392 O415 2.506 . S
Gd392 O416 2.435 . S
Gd392 O417 2.717 . S
Gd392 O419 2.395 . S
Gd392 O423 2.327 . S
Gd393 C404 2.818 . S
Gd393 O413 2.395 1_545 S
Gd393 O417 2.327 . S
Gd393 O418 2.377 . S
Gd393 O420 2.448 . S
Gd393 O421 2.506 . S
Gd393 O422 2.435 . S
Gd393 O423 2.717 . S
C394 O412 1.240 1_565 S
C394 O413 1.240 . S
C395 Gd392 2.818 . S
C395 C396 1.510 . S
C395 O414 1.249 . S
C395 O415 1.252 . S
C396 C395 1.510 . S
C396 C397 1.404 . S
C396 C398 1.352 1_545 S
C397 C396 1.404 . S
C397 C401 1.389 1_545 S
C397 H424 0.930 . S
C398 C396 1.352 1_565 S
C398 C400 1.374 . S
C398 H425 0.931 . S
C399 C400 1.359 . S
C399 C401 1.364 . S
C400 C398 1.374 . S
C400 C399 1.359 . S
C400 H426 0.931 . S
C401 C397 1.389 1_565 S
C401 C399 1.364 . S
C401 H427 0.931 . S
C402 O416 1.256 . S
C402 O417 1.257 . S
C403 O418 1.240 . S
C403 O419 1.240 . S
C404 Gd393 2.818 . S
C404 C405 1.510 . S
C404 O420 1.249 . S
C404 O421 1.252 . S
C405 C404 1.510 . S
C405 C406 1.404 . S
C405 C407 1.352 . S
C406 C405 1.404 . S
C406 C410 1.389 . S
C406 H428 0.930 . S
C407 C405 1.352 . S
C407 C409 1.374 . S
C407 H429 0.931 . S
C408 C409 1.359 . S
C408 C410 1.364 . S
C409 C407 1.374 . S
C409 C408 1.359 . S
C409 H430 0.931 . S
C410 C406 1.389 . S
C410 C408 1.364 . S
C410 H431 0.931 . S
C411 O422 1.256 . S
C411 O423 1.257 . S
O412 Gd392 2.377 . S
O412 C394 1.240 1_545 S
O413 Gd393 2.395 1_565 S
O413 C394 1.240 . S
O414 Gd392 2.448 . S
O414 C395 1.249 . S
O415 Gd392 2.506 . S
O415 C395 1.252 . S
O416 Gd392 2.435 . S
O416 C402 1.256 . S
O417 Gd392 2.717 . S
O417 Gd393 2.327 . S
O417 C402 1.257 . S
O418 Gd393 2.377 . S
O418 C403 1.240 . S
O419 Gd392 2.395 . S
O419 C403 1.240 . S
O420 Gd393 2.448 . S
O420 C404 1.249 . S
O421 Gd393 2.506 . S
O421 C404 1.252 . S
O422 Gd393 2.435 . S
O422 C411 1.256 . S
O423 Gd392 2.327 . S
O423 Gd393 2.717 . S
O423 C411 1.257 . S
H424 C397 0.930 . S
H425 C398 0.931 . S
H426 C400 0.931 . S
H427 C401 0.931 . S
H428 C406 0.930 . S
H429 C407 0.931 . S
H430 C409 0.931 . S
H431 C410 0.931 . S
Gd432 C435 2.818 . S
Gd432 O452 2.377 . S
Gd432 O454 2.448 . S
Gd432 O455 2.506 . S
Gd432 O456 2.435 . S
Gd432 O457 2.717 . S
Gd432 O459 2.395 . S
Gd432 O463 2.327 . S
Gd433 C444 2.818 . S
Gd433 O453 2.395 . S
Gd433 O457 2.327 . S
Gd433 O458 2.377 . S
Gd433 O460 2.448 . S
Gd433 O461 2.506 . S
Gd433 O462 2.435 . S
Gd433 O463 2.717 . S
C434 O452 1.240 . S
C434 O453 1.240 . S
C435 Gd432 2.818 . S
C435 C436 1.510 . S
C435 O454 1.249 . S
C435 O455 1.252 . S
C436 C435 1.510 . S
C436 C437 1.404 . S
C436 C438 1.352 . S
C437 C436 1.404 . S
C437 C441 1.389 . S
C437 H464 0.930 . S
C438 C436 1.352 . S
C438 C440 1.374 . S
C438 H465 0.931 . S
C439 C440 1.359 . S
C439 C441 1.364 . S
C440 C438 1.374 . S
C440 C439 1.359 . S
C440 H466 0.931 . S
C441 C437 1.389 . S
C441 C439 1.364 . S
C441 H467 0.931 . S
C442 O456 1.256 . S
C442 O457 1.257 . S
C443 O458 1.240 . S
C443 O459 1.240 . S
C444 Gd433 2.818 . S
C444 C445 1.510 . S
C444 O460 1.249 . S
C444 O461 1.252 . S
C445 C444 1.510 . S
C445 C446 1.404 . S
C445 C447 1.352 . S
C446 C445 1.404 . S
C446 C450 1.389 . S
C446 H468 0.930 . S
C447 C445 1.352 . S
C447 C449 1.374 . S
C447 H469 0.931 . S
C448 C449 1.359 . S
C448 C450 1.364 . S
C449 C447 1.374 . S
C449 C448 1.359 . S
C449 H470 0.931 . S
C450 C446 1.389 . S
C450 C448 1.364 . S
C450 H471 0.931 . S
C451 O462 1.256 . S
C451 O463 1.257 . S
O452 Gd432 2.377 . S
O452 C434 1.240 . S
O453 Gd433 2.395 . S
O453 C434 1.240 . S
O454 Gd432 2.448 . S
O454 C435 1.249 . S
O455 Gd432 2.506 . S
O455 C435 1.252 . S
O456 Gd432 2.435 . S
O456 C442 1.256 . S
O457 Gd432 2.717 . S
O457 Gd433 2.327 . S
O457 C442 1.257 . S
O458 Gd433 2.377 . S
O458 C443 1.240 . S
O459 Gd432 2.395 . S
O459 C443 1.240 . S
O460 Gd433 2.448 . S
O460 C444 1.249 . S
O461 Gd433 2.506 . S
O461 C444 1.252 . S
O462 Gd433 2.435 . S
O462 C451 1.256 . S
O463 Gd432 2.327 . S
O463 Gd433 2.717 . S
O463 C451 1.257 . S
H464 C437 0.930 . S
H465 C438 0.931 . S
H466 C440 0.931 . S
H467 C441 0.931 . S
H468 C446 0.930 . S
H469 C447 0.931 . S
H470 C449 0.931 . S
H471 C450 0.931 . S
Gd472 C475 2.818 . S
Gd472 O492 2.377 . S
Gd472 O494 2.448 . S
Gd472 O495 2.506 . S
Gd472 O496 2.435 . S
Gd472 O497 2.717 . S
Gd472 O499 2.395 . S
Gd472 O503 2.327 . S
Gd473 C484 2.818 1_545 S
Gd473 O493 2.395 . S
Gd473 O497 2.327 . S
Gd473 O498 2.377 . S
Gd473 O500 2.448 1_545 S
Gd473 O501 2.506 1_545 S
Gd473 O502 2.435 . S
Gd473 O503 2.717 . S
C474 O492 1.240 . S
C474 O493 1.240 . S
C475 Gd472 2.818 . S
C475 C476 1.510 . S
C475 O494 1.249 . S
C475 O495 1.252 . S
C476 C475 1.510 . S
C476 C477 1.404 . S
C476 C478 1.352 . S
C477 C476 1.404 . S
C477 C481 1.389 . S
C477 H504 0.930 . S
C478 C476 1.352 . S
C478 C480 1.374 . S
C478 H505 0.931 . S
C479 C480 1.359 . S
C479 C481 1.364 . S
C480 C478 1.374 . S
C480 C479 1.359 . S
C480 H506 0.931 . S
C481 C477 1.389 . S
C481 C479 1.364 . S
C481 H507 0.931 . S
C482 O496 1.256 . S
C482 O497 1.257 . S
C483 O498 1.240 . S
C483 O499 1.240 . S
C484 Gd473 2.818 1_565 S
C484 C485 1.510 . S
C484 O500 1.249 . S
C484 O501 1.252 . S
C485 C484 1.510 . S
C485 C486 1.404 . S
C485 C487 1.352 . S
C486 C485 1.404 . S
C486 C490 1.389 . S
C486 H508 0.930 . S
C487 C485 1.352 . S
C487 C489 1.374 . S
C487 H509 0.931 . S
C488 C489 1.359 . S
C488 C490 1.364 . S
C489 C487 1.374 . S
C489 C488 1.359 . S
C489 H510 0.931 . S
C490 C486 1.389 . S
C490 C488 1.364 . S
C490 H511 0.931 . S
C491 O502 1.256 . S
C491 O503 1.257 . S
O492 Gd472 2.377 . S
O492 C474 1.240 . S
O493 Gd473 2.395 . S
O493 C474 1.240 . S
O494 Gd472 2.448 . S
O494 C475 1.249 . S
O495 Gd472 2.506 . S
O495 C475 1.252 . S
O496 Gd472 2.435 . S
O496 C482 1.256 . S
O497 Gd472 2.717 . S
O497 Gd473 2.327 . S
O497 C482 1.257 . S
O498 Gd473 2.377 . S
O498 C483 1.240 . S
O499 Gd472 2.395 . S
O499 C483 1.240 . S
O500 Gd473 2.448 1_565 S
O500 C484 1.249 . S
O501 Gd473 2.506 1_565 S
O501 C484 1.252 . S
O502 Gd473 2.435 . S
O502 C491 1.256 . S
O503 Gd472 2.327 . S
O503 Gd473 2.717 . S
O503 C491 1.257 . S
H504 C477 0.930 . S
H505 C478 0.931 . S
H506 C480 0.931 . S
H507 C481 0.931 . S
H508 C486 0.930 . S
H509 C487 0.931 . S
H510 C489 0.931 . S
H511 C490 0.931 . S
Gd512 C515 2.818 . S
Gd512 O532 2.377 . S
Gd512 O534 2.448 . S
Gd512 O535 2.506 . S
Gd512 O536 2.435 . S
Gd512 O537 2.717 . S
Gd512 O539 2.395 . S
Gd512 O543 2.327 . S
Gd513 C524 2.818 . S
Gd513 O533 2.395 . S
Gd513 O537 2.327 . S
Gd513 O538 2.377 . S
Gd513 O540 2.448 . S
Gd513 O541 2.506 . S
Gd513 O542 2.435 . S
Gd513 O543 2.717 . S
C514 O532 1.240 . S
C514 O533 1.240 . S
C515 Gd512 2.818 . S
C515 C516 1.510 . S
C515 O534 1.249 . S
C515 O535 1.252 . S
C516 C515 1.510 . S
C516 C517 1.404 . S
C516 C518 1.352 . S
C517 C516 1.404 . S
C517 C521 1.389 . S
C517 H544 0.930 . S
C518 C516 1.352 . S
C518 C520 1.374 . S
C518 H545 0.931 . S
C519 C520 1.359 . S
C519 C521 1.364 . S
C520 C518 1.374 . S
C520 C519 1.359 . S
C520 H546 0.931 . S
C521 C517 1.389 . S
C521 C519 1.364 . S
C521 H547 0.931 . S
C522 O536 1.256 . S
C522 O537 1.257 . S
C523 O538 1.240 . S
C523 O539 1.240 . S
C524 Gd513 2.818 . S
C524 C525 1.510 . S
C524 O540 1.249 . S
C524 O541 1.252 . S
C525 C524 1.510 . S
C525 C526 1.404 . S
C525 C527 1.352 . S
C526 C525 1.404 . S
C526 C530 1.389 . S
C526 H548 0.930 . S
C527 C525 1.352 . S
C527 C529 1.374 . S
C527 H549 0.931 . S
C528 C529 1.359 . S
C528 C530 1.364 . S
C529 C527 1.374 . S
C529 C528 1.359 . S
C529 H550 0.931 . S
C530 C526 1.389 . S
C530 C528 1.364 . S
C530 H551 0.931 . S
C531 O542 1.256 . S
C531 O543 1.257 . S
O532 Gd512 2.377 . S
O532 C514 1.240 . S
O533 Gd513 2.395 . S
O533 C514 1.240 . S
O534 Gd512 2.448 . S
O534 C515 1.249 . S
O535 Gd512 2.506 . S
O535 C515 1.252 . S
O536 Gd512 2.435 . S
O536 C522 1.256 . S
O537 Gd512 2.717 . S
O537 Gd513 2.327 . S
O537 C522 1.257 . S
O538 Gd513 2.377 . S
O538 C523 1.240 . S
O539 Gd512 2.395 . S
O539 C523 1.240 . S
O540 Gd513 2.448 . S
O540 C524 1.249 . S
O541 Gd513 2.506 . S
O541 C524 1.252 . S
O542 Gd513 2.435 . S
O542 C531 1.256 . S
O543 Gd512 2.327 . S
O543 Gd513 2.717 . S
O543 C531 1.257 . S
H544 C517 0.930 . S
H545 C518 0.931 . S
H546 C520 0.931 . S
H547 C521 0.931 . S
H548 C526 0.930 . S
H549 C527 0.931 . S
H550 C529 0.931 . S
H551 C530 0.931 . S
Gd552 C555 2.818 . S
Gd552 O572 2.377 . S
Gd552 O574 2.452 1_545 S
Gd552 O575 2.506 . S
Gd552 O576 2.435 1_545 S
Gd552 O577 2.771 . S
Gd552 O579 2.395 . S
Gd552 O583 2.327 . S
Gd553 C564 2.818 . S
Gd553 O573 2.398 . S
Gd553 O577 2.300 1_556 S
Gd553 O578 2.377 1_556 S
Gd553 O580 2.448 . S
Gd553 O581 2.506 . S
Gd553 O582 2.435 1_556 S
Gd553 O583 2.717 1_556 S
C554 O572 1.240 . S
C554 O573 1.236 1_554 S
C555 Gd552 2.818 . S
C555 C556 1.510 . S
C555 O574 1.253 1_545 S
C555 O575 1.252 . S
C556 C555 1.510 . S
C556 C557 1.404 1_545 S
C556 C558 1.352 . S
C557 C556 1.404 1_565 S
C557 C561 1.389 . S
C557 H584 0.930 . S
C558 C556 1.352 . S
C558 C560 1.374 . S
C558 H585 0.931 . S
C559 C560 1.359 1_565 S
C559 C561 1.364 . S
C560 C558 1.374 . S
C560 C559 1.359 1_545 S
C560 H586 0.931 . S
C561 C557 1.389 . S
C561 C559 1.364 . S
C561 H587 0.931 . S
C562 O576 1.256 . S
C562 O577 1.276 1_565 S
C563 O578 1.240 . S
C563 O579 1.240 . S
C564 Gd553 2.818 . S
C564 C565 1.510 . S
C564 O580 1.249 . S
C564 O581 1.252 . S
C565 C564 1.510 . S
C565 C566 1.404 . S
C565 C567 1.352 . S
C566 C565 1.404 . S
C566 C570 1.389 . S
C566 H588 0.930 . S
C567 C565 1.352 . S
C567 C569 1.374 . S
C567 H589 0.931 . S
C568 C569 1.359 . S
C568 C570 1.364 . S
C569 C567 1.374 . S
C569 C568 1.359 . S
C569 H590 0.931 . S
C570 C566 1.389 . S
C570 C568 1.364 . S
C570 H591 0.931 . S
C571 O582 1.256 . S
C571 O583 1.257 . S
O572 Gd552 2.377 . S
O572 C554 1.240 . S
O573 Gd553 2.398 . S
O573 C554 1.236 1_556 S
O574 Gd552 2.452 1_565 S
O574 C555 1.253 1_565 S
O575 Gd552 2.506 . S
O575 C555 1.252 . S
O576 Gd552 2.435 1_565 S
O576 C562 1.256 . S
O577 Gd552 2.771 . S
O577 Gd553 2.300 1_554 S
O577 C562 1.276 1_545 S
O578 Gd553 2.377 1_554 S
O578 C563 1.240 . S
O579 Gd552 2.395 . S
O579 C563 1.240 . S
O580 Gd553 2.448 . S
O580 C564 1.249 . S
O581 Gd553 2.506 . S
O581 C564 1.252 . S
O582 Gd553 2.435 1_554 S
O582 C571 1.256 . S
O583 Gd552 2.327 . S
O583 Gd553 2.717 1_554 S
O583 C571 1.257 . S
H584 C557 0.930 . S
H585 C558 0.931 . S
H586 C560 0.931 . S
H587 C561 0.931 . S
H588 C566 0.930 . S
H589 C567 0.931 . S
H590 C569 0.931 . S
H591 C570 0.931 . S
Gd592 C595 2.818 . S
Gd592 O612 2.377 . S
Gd592 O614 2.448 . S
Gd592 O615 2.506 . S
Gd592 O616 2.435 . S
Gd592 O617 2.717 . S
Gd592 O619 2.395 . S
Gd592 O623 2.327 . S
Gd593 C604 2.818 . S
Gd593 O613 2.395 . S
Gd593 O617 2.327 . S
Gd593 O618 2.377 . S
Gd593 O620 2.448 . S
Gd593 O621 2.506 . S
Gd593 O622 2.435 . S
Gd593 O623 2.717 . S
C594 O612 1.240 . S
C594 O613 1.240 . S
C595 Gd592 2.818 . S
C595 C596 1.510 . S
C595 O614 1.249 . S
C595 O615 1.252 . S
C596 C595 1.510 . S
C596 C597 1.404 . S
C596 C598 1.352 . S
C597 C596 1.404 . S
C597 C601 1.389 . S
C597 H624 0.930 . S
C598 C596 1.352 . S
C598 C600 1.374 . S
C598 H625 0.931 . S
C599 C600 1.359 . S
C599 C601 1.364 . S
C600 C598 1.374 . S
C600 C599 1.359 . S
C600 H626 0.931 . S
C601 C597 1.389 . S
C601 C599 1.364 . S
C601 H627 0.931 . S
C602 O616 1.256 . S
C602 O617 1.257 . S
C603 O618 1.240 . S
C603 O619 1.240 . S
C604 Gd593 2.818 . S
C604 C605 1.510 . S
C604 O620 1.249 . S
C604 O621 1.252 . S
C605 C604 1.510 . S
C605 C606 1.404 . S
C605 C607 1.352 . S
C606 C605 1.404 . S
C606 C610 1.389 . S
C606 H628 0.930 . S
C607 C605 1.352 . S
C607 C609 1.374 . S
C607 H629 0.931 . S
C608 C609 1.359 . S
C608 C610 1.364 . S
C609 C607 1.374 . S
C609 C608 1.359 . S
C609 H630 0.931 . S
C610 C606 1.389 . S
C610 C608 1.364 . S
C610 H631 0.931 . S
C611 O622 1.256 . S
C611 O623 1.257 . S
O612 Gd592 2.377 . S
O612 C594 1.240 . S
O613 Gd593 2.395 . S
O613 C594 1.240 . S
O614 Gd592 2.448 . S
O614 C595 1.249 . S
O615 Gd592 2.506 . S
O615 C595 1.252 . S
O616 Gd592 2.435 . S
O616 C602 1.256 . S
O617 Gd592 2.717 . S
O617 Gd593 2.327 . S
O617 C602 1.257 . S
O618 Gd593 2.377 . S
O618 C603 1.240 . S
O619 Gd592 2.395 . S
O619 C603 1.240 . S
O620 Gd593 2.448 . S
O620 C604 1.249 . S
O621 Gd593 2.506 . S
O621 C604 1.252 . S
O622 Gd593 2.435 . S
O622 C611 1.256 . S
O623 Gd592 2.327 . S
O623 Gd593 2.717 . S
O623 C611 1.257 . S
H624 C597 0.930 . S
H625 C598 0.931 . S
H626 C600 0.931 . S
H627 C601 0.931 . S
H628 C606 0.930 . S
H629 C607 0.931 . S
H630 C609 0.931 . S
H631 C610 0.931 . S
Gd632 C635 2.818 . S
Gd632 O652 2.377 1_554 S
Gd632 O654 2.448 . S
Gd632 O655 2.506 . S
Gd632 O656 2.435 . S
Gd632 O657 2.717 . S
Gd632 O659 2.395 . S
Gd632 O663 2.327 . S
Gd633 C644 2.818 . S
Gd633 O653 2.395 1_554 S
Gd633 O657 2.327 . S
Gd633 O658 2.377 . S
Gd633 O660 2.448 . S
Gd633 O661 2.506 . S
Gd633 O662 2.435 . S
Gd633 O663 2.717 . S
C634 O652 1.240 . S
C634 O653 1.240 . S
C635 Gd632 2.818 . S
C635 C636 1.510 1_554 S
C635 O654 1.249 . S
C635 O655 1.252 . S
C636 C635 1.510 1_556 S
C636 C637 1.404 . S
C636 C638 1.352 . S
C637 C636 1.404 . S
C637 C641 1.389 . S
C637 H664 0.930 1_556 S
C638 C636 1.352 . S
C638 C640 1.374 . S
C638 H665 0.931 . S
C639 C640 1.359 . S
C639 C641 1.364 . S
C640 C638 1.374 . S
C640 C639 1.359 . S
C640 H666 0.931 . S
C641 C637 1.389 . S
C641 C639 1.364 . S
C641 H667 0.931 . S
C642 O656 1.256 . S
C642 O657 1.257 . S
C643 O658 1.240 . S
C643 O659 1.240 . S
C644 Gd633 2.818 . S
C644 C645 1.510 . S
C644 O660 1.249 . S
C644 O661 1.252 . S
C645 C644 1.510 . S
C645 C646 1.404 . S
C645 C647 1.352 . S
C646 C645 1.404 . S
C646 C650 1.389 . S
C646 H668 0.930 . S
C647 C645 1.352 . S
C647 C649 1.374 . S
C647 H669 0.931 . S
C648 C649 1.359 . S
C648 C650 1.364 . S
C649 C647 1.374 . S
C649 C648 1.359 . S
C649 H670 0.931 . S
C650 C646 1.389 . S
C650 C648 1.364 . S
C650 H671 0.931 . S
C651 O662 1.256 . S
C651 O663 1.257 . S
O652 Gd632 2.377 1_556 S
O652 C634 1.240 . S
O653 Gd633 2.395 1_556 S
O653 C634 1.240 . S
O654 Gd632 2.448 . S
O654 C635 1.249 . S
O655 Gd632 2.506 . S
O655 C635 1.252 . S
O656 Gd632 2.435 . S
O656 C642 1.256 . S
O657 Gd632 2.717 . S
O657 Gd633 2.327 . S
O657 C642 1.257 . S
O658 Gd633 2.377 . S
O658 C643 1.240 . S
O659 Gd632 2.395 . S
O659 C643 1.240 . S
O660 Gd633 2.448 . S
O660 C644 1.249 . S
O661 Gd633 2.506 . S
O661 C644 1.252 . S
O662 Gd633 2.435 . S
O662 C651 1.256 . S
O663 Gd632 2.327 . S
O663 Gd633 2.717 . S
O663 C651 1.257 . S
H664 C637 0.930 1_554 S
H665 C638 0.931 . S
H666 C640 0.931 . S
H667 C641 0.931 . S
H668 C646 0.930 . S
H669 C647 0.931 . S
H670 C649 0.931 . S
H671 C650 0.931 . S
Gd672 C675 2.818 . S
Gd672 O692 2.377 . S
Gd672 O694 2.448 . S
Gd672 O695 2.506 . S
Gd672 O696 2.435 . S
Gd672 O697 2.717 . S
Gd672 O699 2.395 . S
Gd672 O703 2.327 . S
Gd673 C684 2.818 . S
Gd673 O693 2.395 . S
Gd673 O697 2.327 . S
Gd673 O698 2.377 . S
Gd673 O700 2.448 . S
Gd673 O701 2.506 . S
Gd673 O702 2.435 . S
Gd673 O703 2.717 . S
C674 O692 1.240 . S
C674 O693 1.240 . S
C675 Gd672 2.818 . S
C675 C676 1.510 . S
C675 O694 1.249 . S
C675 O695 1.252 . S
C676 C675 1.510 . S
C676 C677 1.404 . S
C676 C678 1.352 . S
C677 C676 1.404 . S
C677 C681 1.389 . S
C677 H704 0.930 . S
C678 C676 1.352 . S
C678 C680 1.374 . S
C678 H705 0.931 . S
C679 C680 1.359 . S
C679 C681 1.364 . S
C680 C678 1.374 . S
C680 C679 1.359 . S
C680 H706 0.931 . S
C681 C677 1.389 . S
C681 C679 1.364 . S
C681 H707 0.931 . S
C682 O696 1.256 . S
C682 O697 1.257 . S
C683 O698 1.240 . S
C683 O699 1.240 . S
C684 Gd673 2.818 . S
C684 C685 1.510 . S
C684 O700 1.249 . S
C684 O701 1.252 . S
C685 C684 1.510 . S
C685 C686 1.404 . S
C685 C687 1.352 . S
C686 C685 1.404 . S
C686 C690 1.389 . S
C686 H708 0.930 . S
C687 C685 1.352 . S
C687 C689 1.374 . S
C687 H709 0.931 . S
C688 C689 1.359 . S
C688 C690 1.364 . S
C689 C687 1.374 . S
C689 C688 1.359 . S
C689 H710 0.931 . S
C690 C686 1.389 . S
C690 C688 1.364 . S
C690 H711 0.931 . S
C691 O702 1.256 . S
C691 O703 1.257 . S
O692 Gd672 2.377 . S
O692 C674 1.240 . S
O693 Gd673 2.395 . S
O693 C674 1.240 . S
O694 Gd672 2.448 . S
O694 C675 1.249 . S
O695 Gd672 2.506 . S
O695 C675 1.252 . S
O696 Gd672 2.435 . S
O696 C682 1.256 . S
O697 Gd672 2.717 . S
O697 Gd673 2.327 . S
O697 C682 1.257 . S
O698 Gd673 2.377 . S
O698 C683 1.240 . S
O699 Gd672 2.395 . S
O699 C683 1.240 . S
O700 Gd673 2.448 . S
O700 C684 1.249 . S
O701 Gd673 2.506 . S
O701 C684 1.252 . S
O702 Gd673 2.435 . S
O702 C691 1.256 . S
O703 Gd672 2.327 . S
O703 Gd673 2.717 . S
O703 C691 1.257 . S
H704 C677 0.930 . S
H705 C678 0.931 . S
H706 C680 0.931 . S
H707 C681 0.931 . S
H708 C686 0.930 . S
H709 C687 0.931 . S
H710 C689 0.931 . S
H711 C690 0.931 . S
Gd712 C715 2.818 . S
Gd712 O732 2.377 . S
Gd712 O734 2.448 . S
Gd712 O735 2.506 . S
Gd712 O736 2.435 . S
Gd712 O737 2.717 . S
Gd712 O739 2.395 . S
Gd712 O743 2.327 . S
Gd713 C724 2.818 . S
Gd713 O733 2.395 . S
Gd713 O737 2.327 . S
Gd713 O738 2.377 . S
Gd713 O740 2.448 . S
Gd713 O741 2.506 . S
Gd713 O742 2.435 . S
Gd713 O743 2.717 . S
C714 O732 1.240 . S
C714 O733 1.240 . S
C715 Gd712 2.818 . S
C715 C716 1.510 . S
C715 O734 1.249 . S
C715 O735 1.252 . S
C716 C715 1.510 . S
C716 C717 1.404 . S
C716 C718 1.352 . S
C717 C716 1.404 . S
C717 C721 1.389 . S
C717 H744 0.930 . S
C718 C716 1.352 . S
C718 C720 1.374 1_455 S
C718 H745 0.931 . S
C719 C720 1.359 . S
C719 C721 1.364 1_655 S
C720 C718 1.374 1_655 S
C720 C719 1.359 . S
C720 H746 0.931 . S
C721 C717 1.389 . S
C721 C719 1.364 1_455 S
C721 H747 0.931 . S
C722 O736 1.256 . S
C722 O737 1.257 . S
C723 O738 1.240 . S
C723 O739 1.240 . S
C724 Gd713 2.818 . S
C724 C725 1.510 . S
C724 O740 1.249 . S
C724 O741 1.252 . S
C725 C724 1.510 . S
C725 C726 1.404 . S
C725 C727 1.352 . S
C726 C725 1.404 . S
C726 C730 1.389 . S
C726 H748 0.930 . S
C727 C725 1.352 . S
C727 C729 1.374 . S
C727 H749 0.931 . S
C728 C729 1.359 . S
C728 C730 1.364 . S
C729 C727 1.374 . S
C729 C728 1.359 . S
C729 H750 0.931 . S
C730 C726 1.389 . S
C730 C728 1.364 . S
C730 H751 0.931 . S
C731 O742 1.256 . S
C731 O743 1.257 . S
O732 Gd712 2.377 . S
O732 C714 1.240 . S
O733 Gd713 2.395 . S
O733 C714 1.240 . S
O734 Gd712 2.448 . S
O734 C715 1.249 . S
O735 Gd712 2.506 . S
O735 C715 1.252 . S
O736 Gd712 2.435 . S
O736 C722 1.256 . S
O737 Gd712 2.717 . S
O737 Gd713 2.327 . S
O737 C722 1.257 . S
O738 Gd713 2.377 . S
O738 C723 1.240 . S
O739 Gd712 2.395 . S
O739 C723 1.240 . S
O740 Gd713 2.448 . S
O740 C724 1.249 . S
O741 Gd713 2.506 . S
O741 C724 1.252 . S
O742 Gd713 2.435 . S
O742 C731 1.256 . S
O743 Gd712 2.327 . S
O743 Gd713 2.717 . S
O743 C731 1.257 . S
H744 C717 0.930 . S
H745 C718 0.931 . S
H746 C720 0.931 . S
H747 C721 0.931 . S
H748 C726 0.930 . S
H749 C727 0.931 . S
H750 C729 0.931 . S
H751 C730 0.931 . S
Gd752 C755 2.818 . S
Gd752 O772 2.377 . S
Gd752 O774 2.448 . S
Gd752 O775 2.506 . S
Gd752 O776 2.435 . S
Gd752 O777 2.717 . S
Gd752 O779 2.395 . S
Gd752 O783 2.327 . S
Gd753 C764 2.818 . S
Gd753 O773 2.395 . S
Gd753 O777 2.327 . S
Gd753 O778 2.377 . S
Gd753 O780 2.448 . S
Gd753 O781 2.506 . S
Gd753 O782 2.435 . S
Gd753 O783 2.717 . S
C754 O772 1.240 . S
C754 O773 1.240 . S
C755 Gd752 2.818 . S
C755 C756 1.510 . S
C755 O774 1.249 . S
C755 O775 1.252 . S
C756 C755 1.510 . S
C756 C757 1.404 . S
C756 C758 1.352 . S
C757 C756 1.404 . S
C757 C761 1.389 . S
C757 H784 0.930 . S
C758 C756 1.352 . S
C758 C760 1.374 . S
C758 H785 0.931 . S
C759 C760 1.359 . S
C759 C761 1.364 . S
C760 C758 1.374 . S
C760 C759 1.359 . S
C760 H786 0.931 . S
C761 C757 1.389 . S
C761 C759 1.364 . S
C761 H787 0.931 . S
C762 O776 1.256 . S
C762 O777 1.257 . S
C763 O778 1.240 . S
C763 O779 1.240 . S
C764 Gd753 2.818 . S
C764 C765 1.510 . S
C764 O780 1.249 . S
C764 O781 1.252 . S
C765 C764 1.510 . S
C765 C766 1.404 . S
C765 C767 1.352 . S
C766 C765 1.404 . S
C766 C770 1.389 . S
C766 H788 0.930 . S
C767 C765 1.352 . S
C767 C769 1.374 . S
C767 H789 0.931 . S
C768 C769 1.359 . S
C768 C770 1.364 . S
C769 C767 1.374 . S
C769 C768 1.359 . S
C769 H790 0.931 . S
C770 C766 1.389 . S
C770 C768 1.364 . S
C770 H791 0.931 . S
C771 O782 1.256 . S
C771 O783 1.257 . S
O772 Gd752 2.377 . S
O772 C754 1.240 . S
O773 Gd753 2.395 . S
O773 C754 1.240 . S
O774 Gd752 2.448 . S
O774 C755 1.249 . S
O775 Gd752 2.506 . S
O775 C755 1.252 . S
O776 Gd752 2.435 . S
O776 C762 1.256 . S
O777 Gd752 2.717 . S
O777 Gd753 2.327 . S
O777 C762 1.257 . S
O778 Gd753 2.377 . S
O778 C763 1.240 . S
O779 Gd752 2.395 . S
O779 C763 1.240 . S
O780 Gd753 2.448 . S
O780 C764 1.249 . S
O781 Gd753 2.506 . S
O781 C764 1.252 . S
O782 Gd753 2.435 . S
O782 C771 1.256 . S
O783 Gd752 2.327 . S
O783 Gd753 2.717 . S
O783 C771 1.257 . S
H784 C757 0.930 . S
H785 C758 0.931 . S
H786 C760 0.931 . S
H787 C761 0.931 . S
H788 C766 0.930 . S
H789 C767 0.931 . S
H790 C769 0.931 . S
H791 C770 0.931 . S
Gd792 C795 2.818 . S
Gd792 O812 2.377 . S
Gd792 O814 2.448 . S
Gd792 O815 2.506 . S
Gd792 O816 2.435 . S
Gd792 O817 2.717 . S
Gd792 O819 2.395 . S
Gd792 O823 2.327 . S
Gd793 C804 2.818 . S
Gd793 O813 2.395 . S
Gd793 O817 2.327 . S
Gd793 O818 2.377 . S
Gd793 O820 2.448 . S
Gd793 O821 2.506 . S
Gd793 O822 2.435 . S
Gd793 O823 2.717 . S
C794 O812 1.240 . S
C794 O813 1.240 . S
C795 Gd792 2.818 . S
C795 C796 1.510 . S
C795 O814 1.249 . S
C795 O815 1.252 . S
C796 C795 1.510 . S
C796 C797 1.404 . S
C796 C798 1.352 . S
C797 C796 1.404 . S
C797 C801 1.389 . S
C797 H824 0.930 . S
C798 C796 1.352 . S
C798 C800 1.374 . S
C798 H825 0.931 . S
C799 C800 1.359 . S
C799 C801 1.364 . S
C800 C798 1.374 . S
C800 C799 1.359 . S
C800 H826 0.931 . S
C801 C797 1.389 . S
C801 C799 1.364 . S
C801 H827 0.931 . S
C802 O816 1.256 . S
C802 O817 1.257 . S
C803 O818 1.240 . S
C803 O819 1.240 . S
C804 Gd793 2.818 . S
C804 C805 1.510 . S
C804 O820 1.249 . S
C804 O821 1.252 . S
C805 C804 1.510 . S
C805 C806 1.404 . S
C805 C807 1.352 . S
C806 C805 1.404 . S
C806 C810 1.389 . S
C806 H828 0.930 . S
C807 C805 1.352 . S
C807 C809 1.374 . S
C807 H829 0.931 . S
C808 C809 1.359 . S
C808 C810 1.364 . S
C809 C807 1.374 . S
C809 C808 1.359 . S
C809 H830 0.931 . S
C810 C806 1.389 . S
C810 C808 1.364 . S
C810 H831 0.931 . S
C811 O822 1.256 . S
C811 O823 1.257 . S
O812 Gd792 2.377 . S
O812 C794 1.240 . S
O813 Gd793 2.395 . S
O813 C794 1.240 . S
O814 Gd792 2.448 . S
O814 C795 1.249 . S
O815 Gd792 2.506 . S
O815 C795 1.252 . S
O816 Gd792 2.435 . S
O816 C802 1.256 . S
O817 Gd792 2.717 . S
O817 Gd793 2.327 . S
O817 C802 1.257 . S
O818 Gd793 2.377 . S
O818 C803 1.240 . S
O819 Gd792 2.395 . S
O819 C803 1.240 . S
O820 Gd793 2.448 . S
O820 C804 1.249 . S
O821 Gd793 2.506 . S
O821 C804 1.252 . S
O822 Gd793 2.435 . S
O822 C811 1.256 . S
O823 Gd792 2.327 . S
O823 Gd793 2.717 . S
O823 C811 1.257 . S
H824 C797 0.930 . S
H825 C798 0.931 . S
H826 C800 0.931 . S
H827 C801 0.931 . S
H828 C806 0.930 . S
H829 C807 0.931 . S
H830 C809 0.931 . S
H831 C810 0.931 . S
Gd832 C835 2.818 . S
Gd832 O852 2.377 . S
Gd832 O854 2.448 . S
Gd832 O855 2.506 . S
Gd832 O856 2.435 . S
Gd832 O857 2.717 . S
Gd832 O859 2.395 . S
Gd832 O863 2.327 . S
Gd833 C844 2.818 . S
Gd833 O853 2.395 . S
Gd833 O857 2.327 . S
Gd833 O858 2.377 . S
Gd833 O860 2.448 . S
Gd833 O861 2.506 . S
Gd833 O862 2.435 . S
Gd833 O863 2.717 . S
C834 O852 1.240 . S
C834 O853 1.240 . S
C835 Gd832 2.818 . S
C835 C836 1.510 . S
C835 O854 1.249 . S
C835 O855 1.252 . S
C836 C835 1.510 . S
C836 C837 1.404 . S
C836 C838 1.352 . S
C837 C836 1.404 . S
C837 C841 1.389 . S
C837 H864 0.930 . S
C838 C836 1.352 . S
C838 C840 1.374 . S
C838 H865 0.931 . S
C839 C840 1.359 . S
C839 C841 1.364 . S
C840 C838 1.374 . S
C840 C839 1.359 . S
C840 H866 0.931 . S
C841 C837 1.389 . S
C841 C839 1.364 . S
C841 H867 0.931 . S
C842 O856 1.256 . S
C842 O857 1.257 . S
C843 O858 1.240 . S
C843 O859 1.240 . S
C844 Gd833 2.818 . S
C844 C845 1.510 . S
C844 O860 1.249 . S
C844 O861 1.252 . S
C845 C844 1.510 . S
C845 C846 1.404 . S
C845 C847 1.352 . S
C846 C845 1.404 . S
C846 C850 1.389 . S
C846 H868 0.930 . S
C847 C845 1.352 . S
C847 C849 1.374 . S
C847 H869 0.931 . S
C848 C849 1.359 . S
C848 C850 1.364 . S
C849 C847 1.374 . S
C849 C848 1.359 . S
C849 H870 0.931 . S
C850 C846 1.389 . S
C850 C848 1.364 . S
C850 H871 0.931 . S
C851 O862 1.256 . S
C851 O863 1.257 . S
O852 Gd832 2.377 . S
O852 C834 1.240 . S
O853 Gd833 2.395 . S
O853 C834 1.240 . S
O854 Gd832 2.448 . S
O854 C835 1.249 . S
O855 Gd832 2.506 . S
O855 C835 1.252 . S
O856 Gd832 2.435 . S
O856 C842 1.256 . S
O857 Gd832 2.717 . S
O857 Gd833 2.327 . S
O857 C842 1.257 . S
O858 Gd833 2.377 . S
O858 C843 1.240 . S
O859 Gd832 2.395 . S
O859 C843 1.240 . S
O860 Gd833 2.448 . S
O860 C844 1.249 . S
O861 Gd833 2.506 . S
O861 C844 1.252 . S
O862 Gd833 2.435 . S
O862 C851 1.256 . S
O863 Gd832 2.327 . S
O863 Gd833 2.717 . S
O863 C851 1.257 . S
H864 C837 0.930 . S
H865 C838 0.931 . S
H866 C840 0.931 . S
H867 C841 0.931 . S
H868 C846 0.930 . S
H869 C847 0.931 . S
H870 C849 0.931 . S
H871 C850 0.931 . S
Gd872 C875 2.818 . S
Gd872 O892 2.377 . S
Gd872 O894 2.448 . S
Gd872 O895 2.506 . S
Gd872 O896 2.435 . S
Gd872 O897 2.717 . S
Gd872 O899 2.395 . S
Gd872 O903 2.327 . S
Gd873 C884 2.818 . S
Gd873 O893 2.395 . S
Gd873 O897 2.327 . S
Gd873 O898 2.377 . S
Gd873 O900 2.448 . S
Gd873 O901 2.506 . S
Gd873 O902 2.435 . S
Gd873 O903 2.717 . S
C874 O892 1.240 . S
C874 O893 1.240 . S
C875 Gd872 2.818 . S
C875 C876 1.510 . S
C875 O894 1.249 . S
C875 O895 1.252 . S
C876 C875 1.510 . S
C876 C877 1.404 . S
C876 C878 1.352 . S
C877 C876 1.404 . S
C877 C881 1.389 . S
C877 H904 0.930 . S
C878 C876 1.352 . S
C878 C880 1.374 . S
C878 H905 0.931 . S
C879 C880 1.359 . S
C879 C881 1.364 . S
C880 C878 1.374 . S
C880 C879 1.359 . S
C880 H906 0.931 . S
C881 C877 1.389 . S
C881 C879 1.364 . S
C881 H907 0.931 . S
C882 O896 1.256 . S
C882 O897 1.257 . S
C883 O898 1.240 . S
C883 O899 1.240 . S
C884 Gd873 2.818 . S
C884 C885 1.510 . S
C884 O900 1.249 . S
C884 O901 1.252 . S
C885 C884 1.510 . S
C885 C886 1.404 . S
C885 C887 1.352 . S
C886 C885 1.404 . S
C886 C890 1.389 . S
C886 H908 0.930 . S
C887 C885 1.352 . S
C887 C889 1.374 . S
C887 H909 0.931 . S
C888 C889 1.359 . S
C888 C890 1.364 . S
C889 C887 1.374 . S
C889 C888 1.359 . S
C889 H910 0.931 . S
C890 C886 1.389 . S
C890 C888 1.364 . S
C890 H911 0.931 . S
C891 O902 1.256 . S
C891 O903 1.257 . S
O892 Gd872 2.377 . S
O892 C874 1.240 . S
O893 Gd873 2.395 . S
O893 C874 1.240 . S
O894 Gd872 2.448 . S
O894 C875 1.249 . S
O895 Gd872 2.506 . S
O895 C875 1.252 . S
O896 Gd872 2.435 . S
O896 C882 1.256 . S
O897 Gd872 2.717 . S
O897 Gd873 2.327 . S
O897 C882 1.257 . S
O898 Gd873 2.377 . S
O898 C883 1.240 . S
O899 Gd872 2.395 . S
O899 C883 1.240 . S
O900 Gd873 2.448 . S
O900 C884 1.249 . S
O901 Gd873 2.506 . S
O901 C884 1.252 . S
O902 Gd873 2.435 . S
O902 C891 1.256 . S
O903 Gd872 2.327 . S
O903 Gd873 2.717 . S
O903 C891 1.257 . S
H904 C877 0.930 . S
H905 C878 0.931 . S
H906 C880 0.931 . S
H907 C881 0.931 . S
H908 C886 0.930 . S
H909 C887 0.931 . S
H910 C889 0.931 . S
H911 C890 0.931 . S
Gd912 C915 2.818 . S
Gd912 O932 2.377 . S
Gd912 O934 2.448 . S
Gd912 O935 2.506 1_556 S
Gd912 O936 2.435 . S
Gd912 O937 2.717 . S
Gd912 O939 2.395 1_556 S
Gd912 O943 2.327 1_556 S
Gd913 C924 2.818 1_455 S
Gd913 O933 2.395 . S
Gd913 O937 2.327 1_554 S
Gd913 O938 2.377 . S
Gd913 O940 2.448 1_455 S
Gd913 O941 2.506 1_455 S
Gd913 O942 2.435 . S
Gd913 O943 2.717 . S
C914 O932 1.272 . S
C914 O933 1.215 1_556 S
C915 Gd912 2.818 . S
C915 C916 1.510 . S
C915 O934 1.249 . S
C915 O935 1.252 1_556 S
C916 C915 1.510 . S
C916 C917 1.404 . S
C916 C918 1.352 1_556 S
C917 C916 1.404 . S
C917 C921 1.389 . S
C917 H944 0.930 . S
C918 C916 1.352 1_554 S
C918 C920 1.368 1_554 S
C918 H945 0.931 . S
C919 C920 1.404 . S
C919 C921 1.364 . S
C920 C918 1.368 1_556 S
C920 C919 1.404 . S
C920 H946 0.893 1_556 S
C921 C917 1.389 . S
C921 C919 1.364 . S
C921 H947 0.931 . S
C922 O936 1.256 . S
C922 O937 1.257 . S
C923 O938 1.240 . S
C923 O939 1.240 . S
C924 Gd913 2.818 1_655 S
C924 C925 1.510 . S
C924 O940 1.249 . S
C924 O941 1.252 . S
C925 C924 1.510 . S
C925 C926 1.404 . S
C925 C927 1.352 . S
C926 C925 1.404 . S
C926 C930 1.389 . S
C926 H948 0.930 . S
C927 C925 1.352 . S
C927 C929 1.374 . S
C927 H949 0.928 . S
C928 C929 1.359 . S
C928 C930 1.364 . S
C929 C927 1.374 . S
C929 C928 1.359 . S
C929 H950 0.931 . S
C930 C926 1.389 . S
C930 C928 1.364 . S
C930 H951 0.931 . S
C931 O942 1.256 . S
C931 O943 1.257 . S
O932 Gd912 2.377 . S
O932 C914 1.272 . S
O933 Gd913 2.395 . S
O933 C914 1.215 1_554 S
O934 Gd912 2.448 . S
O934 C915 1.249 . S
O935 Gd912 2.506 1_554 S
O935 C915 1.252 1_554 S
O936 Gd912 2.435 . S
O936 C922 1.256 . S
O937 Gd912 2.717 . S
O937 Gd913 2.327 1_556 S
O937 C922 1.257 . S
O938 Gd913 2.377 . S
O938 C923 1.240 . S
O939 Gd912 2.395 1_554 S
O939 C923 1.240 . S
O940 Gd913 2.448 1_655 S
O940 C924 1.249 . S
O941 Gd913 2.506 1_655 S
O941 C924 1.252 . S
O942 Gd913 2.435 . S
O942 C931 1.256 . S
O943 Gd912 2.327 1_554 S
O943 Gd913 2.717 . S
O943 C931 1.257 . S
H944 C917 0.930 . S
H945 C918 0.931 . S
H946 C920 0.893 1_554 S
H947 C921 0.931 . S
H948 C926 0.930 . S
H949 C927 0.928 . S
H950 C929 0.931 . S
H951 C930 0.931 . S
H952 C970 0.951 . S
H953 C972 0.951 . S
H954 C974 0.950 . S
H955 C975 0.950 1_655 S
H956 C977 0.950 . S
H957 C980 0.950 . S
H958 C981 0.950 . S
H959 C983 0.950 . S
H960 C984 0.950 . S
H961 C985 0.951 . S
H962 C987 0.960 . S
H963 C989 0.950 . S
H964 C990 0.950 . S
H965 C992 0.950 . S
H966 C995 0.950 . S
H967 C996 0.950 . S
H968 C998 0.950 . S
H969 C999 0.950 . S
C970 H952 0.951 . S
C970 C971 1.366 . S
C970 C972 1.388 . S
C971 C970 1.366 . S
C971 C975 1.385 . S
C972 H953 0.951 . S
C972 C970 1.388 . S
C972 C973 1.366 . S
C973 C972 1.366 . S
C973 C974 1.414 . S
C973 C976 1.499 . S
C974 H954 0.950 . S
C974 C973 1.414 . S
C974 C975 1.374 . S
C975 H955 0.950 1_455 S
C975 C971 1.385 . S
C975 C974 1.374 . S
C976 C973 1.499 . S
C976 C977 1.373 . S
C976 C978 1.389 . S
C977 H956 0.950 . S
C977 C976 1.373 . S
C977 C993 1.377 . S
C978 C976 1.389 . S
C978 C979 1.524 . S
C978 C992 1.377 . S
C979 C978 1.524 . S
C979 C980 1.397 1_455 S
C979 C984 1.363 . S
C980 H957 0.950 . S
C980 C979 1.397 1_655 S
C980 C981 1.334 . S
C981 H958 0.950 . S
C981 C980 1.334 . S
C981 C982 1.287 . S
C982 C981 1.287 . S
C982 C983 1.524 1_655 S
C982 H1001 0.913 . S
C983 H959 0.950 . S
C983 C982 1.524 1_455 S
C983 C984 1.415 . S
C984 H960 0.950 . S
C984 C979 1.363 . S
C984 C983 1.415 . S
C985 H961 0.951 . S
C985 C986 1.366 1_554 S
C985 C987 1.396 . S
C986 C985 1.366 1_556 S
C986 C990 1.385 . S
C987 H962 0.960 . S
C987 C985 1.396 . S
C987 C988 1.349 1_554 S
C988 C987 1.349 1_556 S
C988 C989 1.414 . S
C988 C991 1.499 . S
C989 H963 0.950 . S
C989 C988 1.414 . S
C989 C990 1.374 . S
C990 H964 0.950 . S
C990 C986 1.385 . S
C990 C989 1.374 . S
C991 C988 1.499 . S
C991 C992 1.373 . S
C991 C993 1.389 . S
C992 H965 0.950 . S
C992 C978 1.377 . S
C992 C991 1.373 . S
C993 C977 1.377 . S
C993 C991 1.389 . S
C993 C994 1.524 1_556 S
C994 C993 1.524 1_554 S
C994 C995 1.397 . S
C994 C999 1.363 . S
C995 H966 0.950 . S
C995 C994 1.397 . S
C995 C996 1.334 . S
C996 H967 0.950 . S
C996 C995 1.334 . S
C996 C997 1.287 . S
C997 C996 1.287 . S
C997 C998 1.524 . S
C997 H1000 0.999 . S
C998 H968 0.950 . S
C998 C997 1.524 . S
C998 C999 1.415 . S
C999 H969 0.950 . S
C999 C994 1.363 . S
C999 C998 1.415 . S
H1000 C997 0.999 . S
H1001 C982 0.913 . S
H1002 C1020 0.951 . S
H1003 C1022 0.951 . S
H1004 C1024 0.950 . S
H1005 C1025 0.950 . S
H1006 C1027 0.950 . S
H1007 C1030 0.950 . S
H1008 C1031 0.950 . S
H1009 C1033 0.950 . S
H1010 C1034 0.950 . S
H1011 C1035 0.951 . S
H1012 C1037 0.951 . S
H1013 C1039 0.950 . S
H1014 C1040 0.950 . S
H1015 C1042 0.950 . S
H1016 C1045 0.950 . S
H1017 C1046 0.950 . S
H1018 C1048 0.950 . S
H1019 C1049 0.950 . S
C1020 H1002 0.951 . S
C1020 C1021 1.366 . S
C1020 C1022 1.388 . S
C1021 C1020 1.366 . S
C1021 C1025 1.385 . S
C1022 H1003 0.951 . S
C1022 C1020 1.388 . S
C1022 C1023 1.366 . S
C1023 C1022 1.366 . S
C1023 C1024 1.414 . S
C1023 C1026 1.499 . S
C1024 H1004 0.950 . S
C1024 C1023 1.414 . S
C1024 C1025 1.374 . S
C1025 H1005 0.950 . S
C1025 C1021 1.385 . S
C1025 C1024 1.374 . S
C1026 C1023 1.499 . S
C1026 C1027 1.373 . S
C1026 C1028 1.389 . S
C1027 H1006 0.950 . S
C1027 C1026 1.373 . S
C1027 C1043 1.377 . S
C1028 C1026 1.389 . S
C1028 C1029 1.524 . S
C1028 C1042 1.377 . S
C1029 C1028 1.524 . S
C1029 C1030 1.397 . S
C1029 C1034 1.363 . S
C1030 H1007 0.950 . S
C1030 C1029 1.397 . S
C1030 C1031 1.334 . S
C1031 H1008 0.950 . S
C1031 C1030 1.334 . S
C1031 C1032 1.287 . S
C1032 C1031 1.287 . S
C1032 C1033 1.524 . S
C1032 H1051 0.913 . S
C1033 H1009 0.950 . S
C1033 C1032 1.524 . S
C1033 C1034 1.415 . S
C1034 H1010 0.950 . S
C1034 C1029 1.363 . S
C1034 C1033 1.415 . S
C1035 H1011 0.951 . S
C1035 C1036 1.366 . S
C1035 C1037 1.388 . S
C1036 C1035 1.366 . S
C1036 C1040 1.385 . S
C1037 H1012 0.951 . S
C1037 C1035 1.388 . S
C1037 C1038 1.366 . S
C1038 C1037 1.366 . S
C1038 C1039 1.414 . S
C1038 C1041 1.499 . S
C1039 H1013 0.950 . S
C1039 C1038 1.414 . S
C1039 C1040 1.374 . S
C1040 H1014 0.950 . S
C1040 C1036 1.385 . S
C1040 C1039 1.374 . S
C1041 C1038 1.499 . S
C1041 C1042 1.373 . S
C1041 C1043 1.389 . S
C1042 H1015 0.950 . S
C1042 C1028 1.377 . S
C1042 C1041 1.373 . S
C1043 C1027 1.377 . S
C1043 C1041 1.389 . S
C1043 C1044 1.524 . S
C1044 C1043 1.524 . S
C1044 C1045 1.397 . S
C1044 C1049 1.363 . S
C1045 H1016 0.950 . S
C1045 C1044 1.397 . S
C1045 C1046 1.334 . S
C1046 H1017 0.950 . S
C1046 C1045 1.334 . S
C1046 C1047 1.287 . S
C1047 C1046 1.287 . S
C1047 C1048 1.524 . S
C1047 H1050 0.999 . S
C1048 H1018 0.950 . S
C1048 C1047 1.524 . S
C1048 C1049 1.415 . S
C1049 H1019 0.950 . S
C1049 C1044 1.363 . S
C1049 C1048 1.415 . S
H1050 C1047 0.999 . S
H1051 C1032 0.913 . S
H1052 C1070 0.951 . S
H1053 C1072 0.951 . S
H1054 C1074 0.950 . S
H1055 C1075 0.950 . S
H1056 C1077 0.950 . S
H1057 C1080 0.950 . S
H1058 C1081 0.950 . S
H1059 C1083 0.950 . S
H1060 C1084 0.950 . S
H1061 C1085 0.951 . S
H1062 C1087 0.951 . S
H1063 C1089 0.950 . S
H1064 C1090 0.950 . S
H1065 C1092 0.950 . S
H1066 C1095 0.950 . S
H1067 C1096 0.950 . S
H1068 C1098 0.950 . S
H1069 C1099 0.950 . S
C1070 H1052 0.951 . S
C1070 C1071 1.366 . S
C1070 C1072 1.388 . S
C1071 C1070 1.366 . S
C1071 C1075 1.385 . S
C1072 H1053 0.951 . S
C1072 C1070 1.388 . S
C1072 C1073 1.366 . S
C1073 C1072 1.366 . S
C1073 C1074 1.414 . S
C1073 C1076 1.499 . S
C1074 H1054 0.950 . S
C1074 C1073 1.414 . S
C1074 C1075 1.374 . S
C1075 H1055 0.950 . S
C1075 C1071 1.385 . S
C1075 C1074 1.374 . S
C1076 C1073 1.499 . S
C1076 C1077 1.373 . S
C1076 C1078 1.389 . S
C1077 H1056 0.950 . S
C1077 C1076 1.373 . S
C1077 C1093 1.377 . S
C1078 C1076 1.389 . S
C1078 C1079 1.524 . S
C1078 C1092 1.377 . S
C1079 C1078 1.524 . S
C1079 C1080 1.397 . S
C1079 C1084 1.363 . S
C1080 H1057 0.950 . S
C1080 C1079 1.397 . S
C1080 C1081 1.334 . S
C1081 H1058 0.950 . S
C1081 C1080 1.334 . S
C1081 C1082 1.287 . S
C1082 C1081 1.287 . S
C1082 C1083 1.524 . S
C1082 H1101 0.913 . S
C1083 H1059 0.950 . S
C1083 C1082 1.524 . S
C1083 C1084 1.415 . S
C1084 H1060 0.950 . S
C1084 C1079 1.363 . S
C1084 C1083 1.415 . S
C1085 H1061 0.951 . S
C1085 C1086 1.366 . S
C1085 C1087 1.388 . S
C1086 C1085 1.366 . S
C1086 C1090 1.385 . S
C1087 H1062 0.951 . S
C1087 C1085 1.388 . S
C1087 C1088 1.366 . S
C1088 C1087 1.366 . S
C1088 C1089 1.414 . S
C1088 C1091 1.499 . S
C1089 H1063 0.950 . S
C1089 C1088 1.414 . S
C1089 C1090 1.374 . S
C1090 H1064 0.950 . S
C1090 C1086 1.385 . S
C1090 C1089 1.374 . S
C1091 C1088 1.499 . S
C1091 C1092 1.373 . S
C1091 C1093 1.389 . S
C1092 H1065 0.950 . S
C1092 C1078 1.377 . S
C1092 C1091 1.373 . S
C1093 C1077 1.377 . S
C1093 C1091 1.389 . S
C1093 C1094 1.524 . S
C1094 C1093 1.524 . S
C1094 C1095 1.397 . S
C1094 C1099 1.363 . S
C1095 H1066 0.950 . S
C1095 C1094 1.397 . S
C1095 C1096 1.334 . S
C1096 H1067 0.950 . S
C1096 C1095 1.334 . S
C1096 C1097 1.287 . S
C1097 C1096 1.287 . S
C1097 C1098 1.524 . S
C1097 H1100 0.999 . S
C1098 H1068 0.950 . S
C1098 C1097 1.524 . S
C1098 C1099 1.415 . S
C1099 H1069 0.950 . S
C1099 C1094 1.363 . S
C1099 C1098 1.415 . S
H1100 C1097 0.999 . S
H1101 C1082 0.913 . S
H1102 C1120 0.951 . S
H1103 C1122 0.951 . S
H1104 C1124 0.950 . S
H1105 C1125 0.950 . S
H1106 C1127 0.950 . S
H1107 C1130 0.950 . S
H1108 C1131 0.950 . S
H1109 C1133 0.950 . S
H1110 C1134 0.950 . S
H1111 C1135 0.951 . S
H1112 C1137 0.951 . S
H1113 C1139 0.950 . S
H1114 C1140 0.950 . S
H1115 C1142 0.950 . S
H1116 C1145 0.950 . S
H1117 C1146 0.950 . S
H1118 C1148 0.950 . S
H1119 C1149 0.950 . S
C1120 H1102 0.951 . S
C1120 C1121 1.366 . S
C1120 C1122 1.388 . S
C1121 C1120 1.366 . S
C1121 C1125 1.385 . S
C1122 H1103 0.951 . S
C1122 C1120 1.388 . S
C1122 C1123 1.366 . S
C1123 C1122 1.366 . S
C1123 C1124 1.414 . S
C1123 C1126 1.499 . S
C1124 H1104 0.950 . S
C1124 C1123 1.414 . S
C1124 C1125 1.374 . S
C1125 H1105 0.950 . S
C1125 C1121 1.385 . S
C1125 C1124 1.374 . S
C1126 C1123 1.499 . S
C1126 C1127 1.373 . S
C1126 C1128 1.389 . S
C1127 H1106 0.950 . S
C1127 C1126 1.373 . S
C1127 C1143 1.377 . S
C1128 C1126 1.389 . S
C1128 C1129 1.524 . S
C1128 C1142 1.377 . S
C1129 C1128 1.524 . S
C1129 C1130 1.397 . S
C1129 C1134 1.363 . S
C1130 H1107 0.950 . S
C1130 C1129 1.397 . S
C1130 C1131 1.334 . S
C1131 H1108 0.950 . S
C1131 C1130 1.334 . S
C1131 C1132 1.287 . S
C1132 C1131 1.287 . S
C1132 C1133 1.524 . S
C1132 H1151 0.913 . S
C1133 H1109 0.950 . S
C1133 C1132 1.524 . S
C1133 C1134 1.415 . S
C1134 H1110 0.950 . S
C1134 C1129 1.363 . S
C1134 C1133 1.415 . S
C1135 H1111 0.951 . S
C1135 C1136 1.366 . S
C1135 C1137 1.388 . S
C1136 C1135 1.366 . S
C1136 C1140 1.385 . S
C1137 H1112 0.951 . S
C1137 C1135 1.388 . S
C1137 C1138 1.366 . S
C1138 C1137 1.366 . S
C1138 C1139 1.414 . S
C1138 C1141 1.499 . S
C1139 H1113 0.950 . S
C1139 C1138 1.414 . S
C1139 C1140 1.374 . S
C1140 H1114 0.950 . S
C1140 C1136 1.385 . S
C1140 C1139 1.374 . S
C1141 C1138 1.499 . S
C1141 C1142 1.373 . S
C1141 C1143 1.389 . S
C1142 H1115 0.950 . S
C1142 C1128 1.377 . S
C1142 C1141 1.373 . S
C1143 C1127 1.377 . S
C1143 C1141 1.389 . S
C1143 C1144 1.524 . S
C1144 C1143 1.524 . S
C1144 C1145 1.397 . S
C1144 C1149 1.363 . S
C1145 H1116 0.950 . S
C1145 C1144 1.397 . S
C1145 C1146 1.334 . S
C1146 H1117 0.950 . S
C1146 C1145 1.334 . S
C1146 C1147 1.287 . S
C1147 C1146 1.287 . S
C1147 C1148 1.524 . S
C1147 H1150 0.999 . S
C1148 H1118 0.950 . S
C1148 C1147 1.524 . S
C1148 C1149 1.415 . S
C1149 H1119 0.950 . S
C1149 C1144 1.363 . S
C1149 C1148 1.415 . S
H1150 C1147 0.999 . S
H1151 C1132 0.913 . S
H1152 C1170 0.951 1_655 S
H1153 C1172 0.951 . S
H1154 C1174 0.950 . S
H1155 C1175 0.950 . S
H1156 C1177 0.950 . S
H1157 C1180 0.950 . S
H1158 C1181 0.950 . S
H1159 C1183 0.950 . S
H1160 C1184 0.950 . S
H1161 C1185 0.951 . S
H1162 C1187 0.951 . S
H1163 C1189 0.950 . S
H1164 C1190 0.950 . S
H1165 C1192 0.950 . S
H1166 C1195 0.950 . S
H1167 C1196 0.950 . S
H1168 C1198 0.950 . S
H1169 C1199 0.950 . S
C1170 H1152 0.951 1_455 S
C1170 C1171 1.366 . S
C1170 C1172 1.388 . S
C1171 C1170 1.366 . S
C1171 C1175 1.385 . S
C1172 H1153 0.951 . S
C1172 C1170 1.388 . S
C1172 C1173 1.366 . S
C1173 C1172 1.366 . S
C1173 C1174 1.414 . S
C1173 C1176 1.499 . S
C1174 H1154 0.950 . S
C1174 C1173 1.414 . S
C1174 C1175 1.374 . S
C1175 H1155 0.950 . S
C1175 C1171 1.385 . S
C1175 C1174 1.374 . S
C1176 C1173 1.499 . S
C1176 C1177 1.373 . S
C1176 C1178 1.389 . S
C1177 H1156 0.950 . S
C1177 C1176 1.373 . S
C1177 C1193 1.377 . S
C1178 C1176 1.389 . S
C1178 C1179 1.524 . S
C1178 C1192 1.377 . S
C1179 C1178 1.524 . S
C1179 C1180 1.397 . S
C1179 C1184 1.363 . S
C1180 H1157 0.950 . S
C1180 C1179 1.397 . S
C1180 C1181 1.334 . S
C1181 H1158 0.950 . S
C1181 C1180 1.334 . S
C1181 C1182 1.287 . S
C1182 C1181 1.287 . S
C1182 C1183 1.524 . S
C1182 H1201 0.913 . S
C1183 H1159 0.950 . S
C1183 C1182 1.524 . S
C1183 C1184 1.415 . S
C1184 H1160 0.950 . S
C1184 C1179 1.363 . S
C1184 C1183 1.415 . S
C1185 H1161 0.951 . S
C1185 C1186 1.366 . S
C1185 C1187 1.388 . S
C1186 C1185 1.366 . S
C1186 C1190 1.385 . S
C1187 H1162 0.951 . S
C1187 C1185 1.388 . S
C1187 C1188 1.366 . S
C1188 C1187 1.366 . S
C1188 C1189 1.414 . S
C1188 C1191 1.499 . S
C1189 H1163 0.950 . S
C1189 C1188 1.414 . S
C1189 C1190 1.374 . S
C1190 H1164 0.950 . S
C1190 C1186 1.385 . S
C1190 C1189 1.374 . S
C1191 C1188 1.499 . S
C1191 C1192 1.373 . S
C1191 C1193 1.389 . S
C1192 H1165 0.950 . S
C1192 C1178 1.377 . S
C1192 C1191 1.373 . S
C1193 C1177 1.377 . S
C1193 C1191 1.389 . S
C1193 C1194 1.524 . S
C1194 C1193 1.524 . S
C1194 C1195 1.397 . S
C1194 C1199 1.363 . S
C1195 H1166 0.950 . S
C1195 C1194 1.397 . S
C1195 C1196 1.334 1_455 S
C1196 H1167 0.950 . S
C1196 C1195 1.334 1_655 S
C1196 C1197 1.287 . S
C1197 C1196 1.287 . S
C1197 C1198 1.524 1_655 S
C1197 H1200 0.999 . S
C1198 H1168 0.950 . S
C1198 C1197 1.524 1_455 S
C1198 C1199 1.415 . S
C1199 H1169 0.950 . S
C1199 C1194 1.363 . S
C1199 C1198 1.415 . S
H1200 C1197 0.999 . S
H1201 C1182 0.913 . S
H1202 C1220 0.951 . S
H1203 C1222 0.951 . S
H1204 C1224 0.950 . S
H1205 C1225 0.950 . S
H1206 C1227 0.950 . S
H1207 C1230 0.950 . S
H1208 C1231 0.950 . S
H1209 C1233 0.950 . S
H1210 C1234 0.950 . S
H1211 C1235 0.951 . S
H1212 C1237 0.951 . S
H1213 C1239 0.950 . S
H1214 C1240 0.950 . S
H1215 C1242 0.950 . S
H1216 C1245 0.950 . S
H1217 C1246 0.950 . S
H1218 C1248 0.950 . S
H1219 C1249 0.950 . S
C1220 H1202 0.951 . S
C1220 C1221 1.366 . S
C1220 C1222 1.388 . S
C1221 C1220 1.366 . S
C1221 C1225 1.385 . S
C1222 H1203 0.951 . S
C1222 C1220 1.388 . S
C1222 C1223 1.366 . S
C1223 C1222 1.366 . S
C1223 C1224 1.414 . S
C1223 C1226 1.499 . S
C1224 H1204 0.950 . S
C1224 C1223 1.414 . S
C1224 C1225 1.374 . S
C1225 H1205 0.950 . S
C1225 C1221 1.385 . S
C1225 C1224 1.374 . S
C1226 C1223 1.499 . S
C1226 C1227 1.373 . S
C1226 C1228 1.389 . S
C1227 H1206 0.950 . S
C1227 C1226 1.373 . S
C1227 C1243 1.377 . S
C1228 C1226 1.389 . S
C1228 C1229 1.524 . S
C1228 C1242 1.377 . S
C1229 C1228 1.524 . S
C1229 C1230 1.397 . S
C1229 C1234 1.363 . S
C1230 H1207 0.950 . S
C1230 C1229 1.397 . S
C1230 C1231 1.334 . S
C1231 H1208 0.950 . S
C1231 C1230 1.334 . S
C1231 C1232 1.287 . S
C1232 C1231 1.287 . S
C1232 C1233 1.524 . S
C1232 H1251 0.913 . S
C1233 H1209 0.950 . S
C1233 C1232 1.524 . S
C1233 C1234 1.415 . S
C1234 H1210 0.950 . S
C1234 C1229 1.363 . S
C1234 C1233 1.415 . S
C1235 H1211 0.951 . S
C1235 C1236 1.366 . S
C1235 C1237 1.388 . S
C1236 C1235 1.366 . S
C1236 C1240 1.385 . S
C1237 H1212 0.951 . S
C1237 C1235 1.388 . S
C1237 C1238 1.366 . S
C1238 C1237 1.366 . S
C1238 C1239 1.414 . S
C1238 C1241 1.499 . S
C1239 H1213 0.950 . S
C1239 C1238 1.414 . S
C1239 C1240 1.374 . S
C1240 H1214 0.950 . S
C1240 C1236 1.385 . S
C1240 C1239 1.374 . S
C1241 C1238 1.499 . S
C1241 C1242 1.373 . S
C1241 C1243 1.389 . S
C1242 H1215 0.950 . S
C1242 C1228 1.377 . S
C1242 C1241 1.373 . S
C1243 C1227 1.377 . S
C1243 C1241 1.389 . S
C1243 C1244 1.524 . S
C1244 C1243 1.524 . S
C1244 C1245 1.397 . S
C1244 C1249 1.363 . S
C1245 H1216 0.950 . S
C1245 C1244 1.397 . S
C1245 C1246 1.334 . S
C1246 H1217 0.950 . S
C1246 C1245 1.334 . S
C1246 C1247 1.287 . S
C1247 C1246 1.287 . S
C1247 C1248 1.524 . S
C1247 H1250 0.999 . S
C1248 H1218 0.950 . S
C1248 C1247 1.524 . S
C1248 C1249 1.415 . S
C1249 H1219 0.950 . S
C1249 C1244 1.363 . S
C1249 C1248 1.415 . S
H1250 C1247 0.999 . S
H1251 C1232 0.913 . S
H1252 C1270 0.951 . S
H1253 C1272 0.951 . S
H1254 C1274 0.950 . S
H1255 C1275 0.950 . S
H1256 C1277 0.950 . S
H1257 C1280 0.950 . S
H1258 C1281 0.950 . S
H1259 C1283 0.950 . S
H1260 C1284 0.950 . S
H1261 C1285 0.951 . S
H1262 C1287 0.951 . S
H1263 C1289 0.950 . S
H1264 C1290 0.950 . S
H1265 C1292 0.950 . S
H1266 C1295 0.950 . S
H1267 C1296 0.950 . S
H1268 C1298 0.950 . S
H1269 C1299 0.950 . S
C1270 H1252 0.951 . S
C1270 C1271 1.366 . S
C1270 C1272 1.388 . S
C1271 C1270 1.366 . S
C1271 C1275 1.385 . S
C1272 H1253 0.951 . S
C1272 C1270 1.388 . S
C1272 C1273 1.366 . S
C1273 C1272 1.366 . S
C1273 C1274 1.414 . S
C1273 C1276 1.499 . S
C1274 H1254 0.950 . S
C1274 C1273 1.414 . S
C1274 C1275 1.374 . S
C1275 H1255 0.950 . S
C1275 C1271 1.385 . S
C1275 C1274 1.374 . S
C1276 C1273 1.499 . S
C1276 C1277 1.373 . S
C1276 C1278 1.389 . S
C1277 H1256 0.950 . S
C1277 C1276 1.373 . S
C1277 C1293 1.377 . S
C1278 C1276 1.389 . S
C1278 C1279 1.524 . S
C1278 C1292 1.377 . S
C1279 C1278 1.524 . S
C1279 C1280 1.397 . S
C1279 C1284 1.363 . S
C1280 H1257 0.950 . S
C1280 C1279 1.397 . S
C1280 C1281 1.334 . S
C1281 H1258 0.950 . S
C1281 C1280 1.334 . S
C1281 C1282 1.287 . S
C1282 C1281 1.287 . S
C1282 C1283 1.524 . S
C1282 H1301 0.913 . S
C1283 H1259 0.950 . S
C1283 C1282 1.524 . S
C1283 C1284 1.415 . S
C1284 H1260 0.950 . S
C1284 C1279 1.363 . S
C1284 C1283 1.415 . S
C1285 H1261 0.951 . S
C1285 C1286 1.366 . S
C1285 C1287 1.388 . S
C1286 C1285 1.366 . S
C1286 C1290 1.385 . S
C1287 H1262 0.951 . S
C1287 C1285 1.388 . S
C1287 C1288 1.366 . S
C1288 C1287 1.366 . S
C1288 C1289 1.414 . S
C1288 C1291 1.499 . S
C1289 H1263 0.950 . S
C1289 C1288 1.414 . S
C1289 C1290 1.374 . S
C1290 H1264 0.950 . S
C1290 C1286 1.385 . S
C1290 C1289 1.374 . S
C1291 C1288 1.499 . S
C1291 C1292 1.373 . S
C1291 C1293 1.389 . S
C1292 H1265 0.950 . S
C1292 C1278 1.377 . S
C1292 C1291 1.373 . S
C1293 C1277 1.377 . S
C1293 C1291 1.389 . S
C1293 C1294 1.524 . S
C1294 C1293 1.524 . S
C1294 C1295 1.397 . S
C1294 C1299 1.363 . S
C1295 H1266 0.950 . S
C1295 C1294 1.397 . S
C1295 C1296 1.334 . S
C1296 H1267 0.950 . S
C1296 C1295 1.334 . S
C1296 C1297 1.287 . S
C1297 C1296 1.287 . S
C1297 C1298 1.524 . S
C1297 H1300 0.999 . S
C1298 H1268 0.950 . S
C1298 C1297 1.524 . S
C1298 C1299 1.415 . S
C1299 H1269 0.950 . S
C1299 C1294 1.363 . S
C1299 C1298 1.415 . S
H1300 C1297 0.999 . S
H1301 C1282 0.913 . S
H1302 C1320 0.951 . S
H1303 C1322 0.951 . S
H1304 C1324 0.950 . S
H1305 C1325 0.950 . S
H1306 C1327 0.950 . S
H1307 C1330 0.950 . S
H1308 C1331 0.950 . S
H1309 C1333 0.950 . S
H1310 C1334 0.950 . S
H1311 C1335 0.951 . S
H1312 C1337 0.951 . S
H1313 C1339 0.950 . S
H1314 C1340 0.950 . S
H1315 C1342 0.950 . S
H1316 C1345 0.950 . S
H1317 C1346 0.950 . S
H1318 C1348 0.950 . S
H1319 C1349 0.950 . S
C1320 H1302 0.951 . S
C1320 C1321 1.366 . S
C1320 C1322 1.388 . S
C1321 C1320 1.366 . S
C1321 C1325 1.385 . S
C1322 H1303 0.951 . S
C1322 C1320 1.388 . S
C1322 C1323 1.366 . S
C1323 C1322 1.366 . S
C1323 C1324 1.414 . S
C1323 C1326 1.499 . S
C1324 H1304 0.950 . S
C1324 C1323 1.414 . S
C1324 C1325 1.374 . S
C1325 H1305 0.950 . S
C1325 C1321 1.385 . S
C1325 C1324 1.374 . S
C1326 C1323 1.499 . S
C1326 C1327 1.373 . S
C1326 C1328 1.389 . S
C1327 H1306 0.950 . S
C1327 C1326 1.373 . S
C1327 C1343 1.377 . S
C1328 C1326 1.389 . S
C1328 C1329 1.524 . S
C1328 C1342 1.377 . S
C1329 C1328 1.524 . S
C1329 C1330 1.397 . S
C1329 C1334 1.363 . S
C1330 H1307 0.950 . S
C1330 C1329 1.397 . S
C1330 C1331 1.334 . S
C1331 H1308 0.950 . S
C1331 C1330 1.334 . S
C1331 C1332 1.287 . S
C1332 C1331 1.287 . S
C1332 C1333 1.524 . S
C1332 H1351 0.913 . S
C1333 H1309 0.950 . S
C1333 C1332 1.524 . S
C1333 C1334 1.415 . S
C1334 H1310 0.950 . S
C1334 C1329 1.363 . S
C1334 C1333 1.415 . S
C1335 H1311 0.951 . S
C1335 C1336 1.366 . S
C1335 C1337 1.388 . S
C1336 C1335 1.366 . S
C1336 C1340 1.385 . S
C1337 H1312 0.951 . S
C1337 C1335 1.388 . S
C1337 C1338 1.366 . S
C1338 C1337 1.366 . S
C1338 C1339 1.414 . S
C1338 C1341 1.499 . S
C1339 H1313 0.950 . S
C1339 C1338 1.414 . S
C1339 C1340 1.374 . S
C1340 H1314 0.950 . S
C1340 C1336 1.385 . S
C1340 C1339 1.374 . S
C1341 C1338 1.499 . S
C1341 C1342 1.373 . S
C1341 C1343 1.389 . S
C1342 H1315 0.950 . S
C1342 C1328 1.377 . S
C1342 C1341 1.373 . S
C1343 C1327 1.377 . S
C1343 C1341 1.389 . S
C1343 C1344 1.524 . S
C1344 C1343 1.524 . S
C1344 C1345 1.397 . S
C1344 C1349 1.363 . S
C1345 H1316 0.950 . S
C1345 C1344 1.397 . S
C1345 C1346 1.334 . S
C1346 H1317 0.950 . S
C1346 C1345 1.334 . S
C1346 C1347 1.287 . S
C1347 C1346 1.287 . S
C1347 C1348 1.524 . S
C1347 H1350 0.999 . S
C1348 H1318 0.950 . S
C1348 C1347 1.524 . S
C1348 C1349 1.415 . S
C1349 H1319 0.950 . S
C1349 C1344 1.363 . S
C1349 C1348 1.415 . S
H1350 C1347 0.999 . S
H1351 C1332 0.913 . S
H1352 C1370 0.951 . S
H1353 C1372 0.951 . S
H1354 C1374 0.950 . S
H1355 C1375 0.950 . S
H1356 C1377 0.950 . S
H1357 C1380 0.950 . S
H1358 C1381 0.950 . S
H1359 C1383 0.950 . S
H1360 C1384 0.950 1_565 S
H1361 C1385 0.951 . S
H1362 C1387 0.951 . S
H1363 C1389 0.950 . S
H1364 C1390 0.950 . S
H1365 C1392 0.919 1_455 S
H1366 C1395 0.950 . S
H1367 C1396 0.950 . S
H1368 C1398 0.950 . S
H1369 C1399 0.950 . S
C1370 H1352 0.951 . S
C1370 C1371 1.366 . S
C1370 C1372 1.388 . S
C1371 C1370 1.366 . S
C1371 C1375 1.385 . S
C1372 H1353 0.951 . S
C1372 C1370 1.388 . S
C1372 C1373 1.366 . S
C1373 C1372 1.366 . S
C1373 C1374 1.414 . S
C1373 C1376 1.499 . S
C1374 H1354 0.950 . S
C1374 C1373 1.414 . S
C1374 C1375 1.374 . S
C1375 H1355 0.950 . S
C1375 C1371 1.385 . S
C1375 C1374 1.374 . S
C1376 C1373 1.499 . S
C1376 C1377 1.373 . S
C1376 C1378 1.389 . S
C1377 H1356 0.950 . S
C1377 C1376 1.373 . S
C1377 C1393 1.377 . S
C1378 C1376 1.389 . S
C1378 C1379 1.524 . S
C1378 C1392 1.377 . S
C1379 C1378 1.524 . S
C1379 C1380 1.397 1_655 S
C1379 C1384 1.363 . S
C1380 H1357 0.950 . S
C1380 C1379 1.397 1_455 S
C1380 C1381 1.334 . S
C1381 H1358 0.950 . S
C1381 C1380 1.334 . S
C1381 C1382 1.287 . S
C1382 C1381 1.287 . S
C1382 C1383 1.524 1_445 S
C1382 H1401 0.913 1_545 S
C1383 H1359 0.950 . S
C1383 C1382 1.524 1_665 S
C1383 C1384 1.415 1_565 S
C1384 H1360 0.950 1_545 S
C1384 C1379 1.363 . S
C1384 C1383 1.415 1_545 S
C1385 H1361 0.951 . S
C1385 C1386 1.366 . S
C1385 C1387 1.388 . S
C1386 C1385 1.366 . S
C1386 C1390 1.385 . S
C1387 H1362 0.951 . S
C1387 C1385 1.388 . S
C1387 C1388 1.366 . S
C1388 C1387 1.366 . S
C1388 C1389 1.414 1_455 S
C1388 C1391 1.499 1_455 S
C1389 H1363 0.950 . S
C1389 C1388 1.414 1_655 S
C1389 C1390 1.374 1_655 S
C1390 H1364 0.950 . S
C1390 C1386 1.385 . S
C1390 C1389 1.374 1_455 S
C1391 C1388 1.499 1_655 S
C1391 C1392 1.373 . S
C1391 C1393 1.389 . S
C1392 H1365 0.919 1_655 S
C1392 C1378 1.377 . S
C1392 C1391 1.373 . S
C1393 C1377 1.377 . S
C1393 C1391 1.389 . S
C1393 C1394 1.524 . S
C1394 C1393 1.524 . S
C1394 C1395 1.397 . S
C1394 C1399 1.363 . S
C1395 H1366 0.950 . S
C1395 C1394 1.397 . S
C1395 C1396 1.334 . S
C1396 H1367 0.950 . S
C1396 C1395 1.334 . S
C1396 C1397 1.287 . S
C1397 C1396 1.287 . S
C1397 C1398 1.524 . S
C1397 H1400 0.999 . S
C1398 H1368 0.950 . S
C1398 C1397 1.524 . S
C1398 C1399 1.415 . S
C1399 H1369 0.950 . S
C1399 C1394 1.363 . S
C1399 C1398 1.415 . S
H1400 C1397 0.999 . S
H1401 C1382 0.913 1_565 S
H1402 C1420 0.951 . S
H1403 C1422 0.951 . S
H1404 C1424 0.950 . S
H1405 C1425 0.950 . S
H1406 C1427 0.950 . S
H1407 C1430 0.950 . S
H1408 C1431 0.950 . S
H1409 C1433 0.950 . S
H1410 C1434 0.950 . S
H1411 C1435 0.951 . S
H1412 C1437 0.951 . S
H1413 C1439 0.950 . S
H1414 C1440 0.950 . S
H1415 C1442 0.950 . S
H1416 C1445 0.950 . S
H1417 C1446 0.950 . S
H1418 C1448 0.950 . S
H1419 C1449 0.950 . S
C1420 H1402 0.951 . S
C1420 C1421 1.366 . S
C1420 C1422 1.388 . S
C1421 C1420 1.366 . S
C1421 C1425 1.385 . S
C1422 H1403 0.951 . S
C1422 C1420 1.388 . S
C1422 C1423 1.366 . S
C1423 C1422 1.366 . S
C1423 C1424 1.414 . S
C1423 C1426 1.499 . S
C1424 H1404 0.950 . S
C1424 C1423 1.414 . S
C1424 C1425 1.374 . S
C1425 H1405 0.950 . S
C1425 C1421 1.385 . S
C1425 C1424 1.374 . S
C1426 C1423 1.499 . S
C1426 C1427 1.373 . S
C1426 C1428 1.389 . S
C1427 H1406 0.950 . S
C1427 C1426 1.373 . S
C1427 C1443 1.377 . S
C1428 C1426 1.389 . S
C1428 C1429 1.524 . S
C1428 C1442 1.377 . S
C1429 C1428 1.524 . S
C1429 C1430 1.397 . S
C1429 C1434 1.363 . S
C1430 H1407 0.950 . S
C1430 C1429 1.397 . S
C1430 C1431 1.334 . S
C1431 H1408 0.950 . S
C1431 C1430 1.334 . S
C1431 C1432 1.287 . S
C1432 C1431 1.287 . S
C1432 C1433 1.524 . S
C1432 H1451 0.913 . S
C1433 H1409 0.950 . S
C1433 C1432 1.524 . S
C1433 C1434 1.415 . S
C1434 H1410 0.950 . S
C1434 C1429 1.363 . S
C1434 C1433 1.415 . S
C1435 H1411 0.951 . S
C1435 C1436 1.366 . S
C1435 C1437 1.388 . S
C1436 C1435 1.366 . S
C1436 C1440 1.385 . S
C1437 H1412 0.951 . S
C1437 C1435 1.388 . S
C1437 C1438 1.366 . S
C1438 C1437 1.366 . S
C1438 C1439 1.414 . S
C1438 C1441 1.499 . S
C1439 H1413 0.950 . S
C1439 C1438 1.414 . S
C1439 C1440 1.374 . S
C1440 H1414 0.950 . S
C1440 C1436 1.385 . S
C1440 C1439 1.374 . S
C1441 C1438 1.499 . S
C1441 C1442 1.373 . S
C1441 C1443 1.389 . S
C1442 H1415 0.950 . S
C1442 C1428 1.377 . S
C1442 C1441 1.373 . S
C1443 C1427 1.377 . S
C1443 C1441 1.389 . S
C1443 C1444 1.524 . S
C1444 C1443 1.524 . S
C1444 C1445 1.397 . S
C1444 C1449 1.363 . S
C1445 H1416 0.950 . S
C1445 C1444 1.397 . S
C1445 C1446 1.334 . S
C1446 H1417 0.950 . S
C1446 C1445 1.334 . S
C1446 C1447 1.287 . S
C1447 C1446 1.287 . S
C1447 C1448 1.524 . S
C1447 H1450 0.999 . S
C1448 H1418 0.950 . S
C1448 C1447 1.524 . S
C1448 C1449 1.415 . S
C1449 H1419 0.950 . S
C1449 C1444 1.363 . S
C1449 C1448 1.415 . S
H1450 C1447 0.999 . S
H1451 C1432 0.913 . S
H1452 C1470 0.951 . S
H1453 C1472 0.951 . S
H1454 C1474 0.950 . S
H1455 C1475 0.950 . S
H1456 C1477 0.950 . S
H1457 C1480 0.950 . S
H1458 C1481 0.950 . S
H1459 C1483 0.950 . S
H1460 C1484 0.950 . S
H1461 C1485 0.951 . S
H1462 C1487 0.951 . S
H1463 C1489 0.950 . S
H1464 C1490 0.950 . S
H1465 C1492 0.950 . S
H1466 C1495 0.950 . S
H1467 C1496 0.950 . S
H1468 C1498 0.950 . S
H1469 C1499 0.950 . S
C1470 H1452 0.951 . S
C1470 C1471 1.366 . S
C1470 C1472 1.388 . S
C1471 C1470 1.366 . S
C1471 C1475 1.385 . S
C1472 H1453 0.951 . S
C1472 C1470 1.388 . S
C1472 C1473 1.366 . S
C1473 C1472 1.366 . S
C1473 C1474 1.414 . S
C1473 C1476 1.499 . S
C1474 H1454 0.950 . S
C1474 C1473 1.414 . S
C1474 C1475 1.374 . S
C1475 H1455 0.950 . S
C1475 C1471 1.385 . S
C1475 C1474 1.374 . S
C1476 C1473 1.499 . S
C1476 C1477 1.373 . S
C1476 C1478 1.389 . S
C1477 H1456 0.950 . S
C1477 C1476 1.373 . S
C1477 C1493 1.377 . S
C1478 C1476 1.389 . S
C1478 C1479 1.524 . S
C1478 C1492 1.377 . S
C1479 C1478 1.524 . S
C1479 C1480 1.397 . S
C1479 C1484 1.363 . S
C1480 H1457 0.950 . S
C1480 C1479 1.397 . S
C1480 C1481 1.334 . S
C1481 H1458 0.950 . S
C1481 C1480 1.334 . S
C1481 C1482 1.287 . S
C1482 C1481 1.287 . S
C1482 C1483 1.524 . S
C1482 H1501 0.913 . S
C1483 H1459 0.950 . S
C1483 C1482 1.524 . S
C1483 C1484 1.415 . S
C1484 H1460 0.950 . S
C1484 C1479 1.363 . S
C1484 C1483 1.415 . S
C1485 H1461 0.951 . S
C1485 C1486 1.366 . S
C1485 C1487 1.388 . S
C1486 C1485 1.366 . S
C1486 C1490 1.385 . S
C1487 H1462 0.951 . S
C1487 C1485 1.388 . S
C1487 C1488 1.366 . S
C1488 C1487 1.366 . S
C1488 C1489 1.414 . S
C1488 C1491 1.499 . S
C1489 H1463 0.950 . S
C1489 C1488 1.414 . S
C1489 C1490 1.374 . S
C1490 H1464 0.950 . S
C1490 C1486 1.385 . S
C1490 C1489 1.374 . S
C1491 C1488 1.499 . S
C1491 C1492 1.373 . S
C1491 C1493 1.389 . S
C1492 H1465 0.950 . S
C1492 C1478 1.377 . S
C1492 C1491 1.373 . S
C1493 C1477 1.377 . S
C1493 C1491 1.389 . S
C1493 C1494 1.524 . S
C1494 C1493 1.524 . S
C1494 C1495 1.397 . S
C1494 C1499 1.363 1_545 S
C1495 H1466 0.950 . S
C1495 C1494 1.397 . S
C1495 C1496 1.334 1_545 S
C1496 H1467 0.950 . S
C1496 C1495 1.334 1_565 S
C1496 C1497 1.287 . S
C1497 C1496 1.287 . S
C1497 C1498 1.524 . S
C1497 H1500 0.999 . S
C1498 H1468 0.950 . S
C1498 C1497 1.524 . S
C1498 C1499 1.415 . S
C1499 H1469 0.950 . S
C1499 C1494 1.363 1_565 S
C1499 C1498 1.415 . S
H1500 C1497 0.999 . S
H1501 C1482 0.913 . S
H1502 C1520 0.951 . S
H1503 C1522 0.951 . S
H1504 C1524 0.950 . S
H1505 C1525 0.950 . S
H1506 C1527 0.950 . S
H1507 C1530 0.950 . S
H1508 C1531 0.950 . S
H1509 C1533 0.950 . S
H1510 C1534 0.950 . S
H1511 C1535 0.951 . S
H1512 C1537 0.951 . S
H1513 C1539 0.950 . S
H1514 C1540 0.950 . S
H1515 C1542 0.950 . S
H1516 C1545 0.950 . S
H1517 C1546 0.950 . S
H1518 C1548 0.950 . S
H1519 C1549 0.950 . S
C1520 H1502 0.951 . S
C1520 C1521 1.366 . S
C1520 C1522 1.388 . S
C1521 C1520 1.366 . S
C1521 C1525 1.385 . S
C1522 H1503 0.951 . S
C1522 C1520 1.388 . S
C1522 C1523 1.366 . S
C1523 C1522 1.366 . S
C1523 C1524 1.414 . S
C1523 C1526 1.499 . S
C1524 H1504 0.950 . S
C1524 C1523 1.414 . S
C1524 C1525 1.374 . S
C1525 H1505 0.950 . S
C1525 C1521 1.385 . S
C1525 C1524 1.374 . S
C1526 C1523 1.499 . S
C1526 C1527 1.373 . S
C1526 C1528 1.389 . S
C1527 H1506 0.950 . S
C1527 C1526 1.373 . S
C1527 C1543 1.377 . S
C1528 C1526 1.389 . S
C1528 C1529 1.524 . S
C1528 C1542 1.377 . S
C1529 C1528 1.524 . S
C1529 C1530 1.397 . S
C1529 C1534 1.363 . S
C1530 H1507 0.950 . S
C1530 C1529 1.397 . S
C1530 C1531 1.334 . S
C1531 H1508 0.950 . S
C1531 C1530 1.334 . S
C1531 C1532 1.287 . S
C1532 C1531 1.287 . S
C1532 C1533 1.524 . S
C1532 H1551 0.913 . S
C1533 H1509 0.950 . S
C1533 C1532 1.524 . S
C1533 C1534 1.415 . S
C1534 H1510 0.950 . S
C1534 C1529 1.363 . S
C1534 C1533 1.415 . S
C1535 H1511 0.951 . S
C1535 C1536 1.366 . S
C1535 C1537 1.388 . S
C1536 C1535 1.366 . S
C1536 C1540 1.385 . S
C1537 H1512 0.951 . S
C1537 C1535 1.388 . S
C1537 C1538 1.366 . S
C1538 C1537 1.366 . S
C1538 C1539 1.414 . S
C1538 C1541 1.499 . S
C1539 H1513 0.950 . S
C1539 C1538 1.414 . S
C1539 C1540 1.374 . S
C1540 H1514 0.950 . S
C1540 C1536 1.385 . S
C1540 C1539 1.374 . S
C1541 C1538 1.499 . S
C1541 C1542 1.373 . S
C1541 C1543 1.389 . S
C1542 H1515 0.950 . S
C1542 C1528 1.377 . S
C1542 C1541 1.373 . S
C1543 C1527 1.377 . S
C1543 C1541 1.389 . S
C1543 C1544 1.524 . S
C1544 C1543 1.524 . S
C1544 C1545 1.397 . S
C1544 C1549 1.363 . S
C1545 H1516 0.950 . S
C1545 C1544 1.397 . S
C1545 C1546 1.334 . S
C1546 H1517 0.950 . S
C1546 C1545 1.334 . S
C1546 C1547 1.287 . S
C1547 C1546 1.287 . S
C1547 C1548 1.524 . S
C1547 H1550 0.999 . S
C1548 H1518 0.950 . S
C1548 C1547 1.524 . S
C1548 C1549 1.415 . S
C1549 H1519 0.950 . S
C1549 C1544 1.363 . S
C1549 C1548 1.415 . S
H1550 C1547 0.999 . S
H1551 C1532 0.913 . S
H1552 C1570 0.951 . S
H1553 C1572 0.951 . S
H1554 C1574 0.950 . S
H1555 C1575 0.950 . S
H1556 C1577 0.950 . S
H1557 C1580 0.950 . S
H1558 C1581 0.950 . S
H1559 C1583 0.950 . S
H1560 C1584 0.950 . S
H1561 C1585 0.951 . S
H1562 C1587 0.951 1_655 S
H1563 C1589 0.950 . S
H1564 C1590 0.950 . S
H1565 C1592 0.950 . S
H1566 C1595 0.950 . S
H1567 C1596 0.950 . S
H1568 C1598 0.950 1_565 S
H1569 C1599 0.950 . S
C1570 H1552 0.951 . S
C1570 C1571 1.366 . S
C1570 C1572 1.388 . S
C1571 C1570 1.366 . S
C1571 C1575 1.385 . S
C1572 H1553 0.951 . S
C1572 C1570 1.388 . S
C1572 C1573 1.366 . S
C1573 C1572 1.366 . S
C1573 C1574 1.414 . S
C1573 C1576 1.499 . S
C1574 H1554 0.950 . S
C1574 C1573 1.414 . S
C1574 C1575 1.374 . S
C1575 H1555 0.950 . S
C1575 C1571 1.385 . S
C1575 C1574 1.374 . S
C1576 C1573 1.499 . S
C1576 C1577 1.373 . S
C1576 C1578 1.378 1_655 S
C1577 H1556 0.950 . S
C1577 C1576 1.373 . S
C1577 C1593 1.377 . S
C1578 C1576 1.378 1_455 S
C1578 C1579 1.533 . S
C1578 C1592 1.381 . S
C1579 C1578 1.533 . S
C1579 C1580 1.397 . S
C1579 C1584 1.363 . S
C1580 H1557 0.950 . S
C1580 C1579 1.397 . S
C1580 C1581 1.334 . S
C1581 H1558 0.950 . S
C1581 C1580 1.334 . S
C1581 C1582 1.287 . S
C1582 C1581 1.287 . S
C1582 C1583 1.524 . S
C1582 H1601 0.913 . S
C1583 H1559 0.950 . S
C1583 C1582 1.524 . S
C1583 C1584 1.415 . S
C1584 H1560 0.950 . S
C1584 C1579 1.363 . S
C1584 C1583 1.415 . S
C1585 H1561 0.951 . S
C1585 C1586 1.366 . S
C1585 C1587 1.388 . S
C1586 C1585 1.366 . S
C1586 C1590 1.385 . S
C1587 H1562 0.951 1_455 S
C1587 C1585 1.388 . S
C1587 C1588 1.366 . S
C1588 C1587 1.366 . S
C1588 C1589 1.414 . S
C1588 C1591 1.499 1_455 S
C1589 H1563 0.950 . S
C1589 C1588 1.414 . S
C1589 C1590 1.374 . S
C1590 H1564 0.950 . S
C1590 C1586 1.385 . S
C1590 C1589 1.374 . S
C1591 C1588 1.499 1_655 S
C1591 C1592 1.373 1_655 S
C1591 C1593 1.389 . S
C1592 H1565 0.950 . S
C1592 C1578 1.381 . S
C1592 C1591 1.373 1_455 S
C1593 C1577 1.377 . S
C1593 C1591 1.389 . S
C1593 C1594 1.524 . S
C1594 C1593 1.524 . S
C1594 C1595 1.397 . S
C1594 C1599 1.363 . S
C1595 H1566 0.950 . S
C1595 C1594 1.397 . S
C1595 C1596 1.334 . S
C1596 H1567 0.950 . S
C1596 C1595 1.334 . S
C1596 C1597 1.287 . S
C1597 C1596 1.287 . S
C1597 C1598 1.524 . S
C1597 H1600 0.999 . S
C1598 H1568 0.950 1_545 S
C1598 C1597 1.524 . S
C1598 C1599 1.415 . S
C1599 H1569 0.950 . S
C1599 C1594 1.363 . S
C1599 C1598 1.415 . S
H1600 C1597 0.999 . S
H1601 C1582 0.913 . S
H1602 C1620 0.951 . S
H1603 C1622 0.951 . S
H1604 C1624 0.950 . S
H1605 C1625 0.950 . S
H1606 C1627 0.950 . S
H1607 C1630 0.950 . S
H1608 C1631 0.950 . S
H1609 C1633 0.950 . S
H1610 C1634 0.950 . S
H1611 C1635 0.951 . S
H1612 C1637 0.951 . S
H1613 C1639 0.950 . S
H1614 C1640 0.950 . S
H1615 C1642 0.950 . S
H1616 C1645 0.950 . S
H1617 C1646 0.950 . S
H1618 C1648 0.950 . S
H1619 C1649 0.950 . S
C1620 H1602 0.951 . S
C1620 C1621 1.366 . S
C1620 C1622 1.388 . S
C1621 C1620 1.366 . S
C1621 C1625 1.385 . S
C1622 H1603 0.951 . S
C1622 C1620 1.388 . S
C1622 C1623 1.366 . S
C1623 C1622 1.366 . S
C1623 C1624 1.414 . S
C1623 C1626 1.499 . S
C1624 H1604 0.950 . S
C1624 C1623 1.414 . S
C1624 C1625 1.374 . S
C1625 H1605 0.950 . S
C1625 C1621 1.385 . S
C1625 C1624 1.374 . S
C1626 C1623 1.499 . S
C1626 C1627 1.373 . S
C1626 C1628 1.389 . S
C1627 H1606 0.950 . S
C1627 C1626 1.373 . S
C1627 C1643 1.377 . S
C1628 C1626 1.389 . S
C1628 C1629 1.524 . S
C1628 C1642 1.377 . S
C1629 C1628 1.524 . S
C1629 C1630 1.397 . S
C1629 C1634 1.363 . S
C1630 H1607 0.950 . S
C1630 C1629 1.397 . S
C1630 C1631 1.334 . S
C1631 H1608 0.950 . S
C1631 C1630 1.334 . S
C1631 C1632 1.287 . S
C1632 C1631 1.287 . S
C1632 C1633 1.524 . S
C1632 H1651 0.913 . S
C1633 H1609 0.950 . S
C1633 C1632 1.524 . S
C1633 C1634 1.415 . S
C1634 H1610 0.950 . S
C1634 C1629 1.363 . S
C1634 C1633 1.415 . S
C1635 H1611 0.951 . S
C1635 C1636 1.366 . S
C1635 C1637 1.388 . S
C1636 C1635 1.366 . S
C1636 C1640 1.385 . S
C1637 H1612 0.951 . S
C1637 C1635 1.388 . S
C1637 C1638 1.366 . S
C1638 C1637 1.366 . S
C1638 C1639 1.414 . S
C1638 C1641 1.499 . S
C1639 H1613 0.950 . S
C1639 C1638 1.414 . S
C1639 C1640 1.374 . S
C1640 H1614 0.950 . S
C1640 C1636 1.385 . S
C1640 C1639 1.374 . S
C1641 C1638 1.499 . S
C1641 C1642 1.373 . S
C1641 C1643 1.389 . S
C1642 H1615 0.950 . S
C1642 C1628 1.377 . S
C1642 C1641 1.373 . S
C1643 C1627 1.377 . S
C1643 C1641 1.389 . S
C1643 C1644 1.524 . S
C1644 C1643 1.524 . S
C1644 C1645 1.397 . S
C1644 C1649 1.363 . S
C1645 H1616 0.950 . S
C1645 C1644 1.397 . S
C1645 C1646 1.334 . S
C1646 H1617 0.950 . S
C1646 C1645 1.334 . S
C1646 C1647 1.287 . S
C1647 C1646 1.287 . S
C1647 C1648 1.524 . S
C1647 H1650 0.999 . S
C1648 H1618 0.950 . S
C1648 C1647 1.524 . S
C1648 C1649 1.415 . S
C1649 H1619 0.950 . S
C1649 C1644 1.363 . S
C1649 C1648 1.415 . S
H1650 C1647 0.999 . S
H1651 C1632 0.913 . S
H1652 C1670 0.951 . S
H1653 C1672 0.951 . S
H1654 C1674 0.950 . S
H1655 C1675 0.950 . S
H1656 C1677 0.950 . S
H1657 C1680 0.950 . S
H1658 C1681 0.950 . S
H1659 C1683 0.950 . S
H1660 C1684 0.950 . S
H1661 C1685 0.951 . S
H1662 C1687 0.951 . S
H1663 C1689 0.950 . S
H1664 C1690 0.950 . S
H1665 C1692 0.950 . S
H1666 C1695 0.950 . S
H1667 C1696 0.950 . S
H1668 C1698 0.950 . S
H1669 C1699 0.950 . S
C1670 H1652 0.951 . S
C1670 C1671 1.366 . S
C1670 C1672 1.388 . S
C1671 C1670 1.366 . S
C1671 C1675 1.385 . S
C1672 H1653 0.951 . S
C1672 C1670 1.388 . S
C1672 C1673 1.366 . S
C1673 C1672 1.366 . S
C1673 C1674 1.414 . S
C1673 C1676 1.499 . S
C1674 H1654 0.950 . S
C1674 C1673 1.414 . S
C1674 C1675 1.374 . S
C1675 H1655 0.950 . S
C1675 C1671 1.385 . S
C1675 C1674 1.374 . S
C1676 C1673 1.499 . S
C1676 C1677 1.373 . S
C1676 C1678 1.389 . S
C1677 H1656 0.950 . S
C1677 C1676 1.373 . S
C1677 C1693 1.377 . S
C1678 C1676 1.389 . S
C1678 C1679 1.524 . S
C1678 C1692 1.377 . S
C1679 C1678 1.524 . S
C1679 C1680 1.397 . S
C1679 C1684 1.363 . S
C1680 H1657 0.950 . S
C1680 C1679 1.397 . S
C1680 C1681 1.334 . S
C1681 H1658 0.950 . S
C1681 C1680 1.334 . S
C1681 C1682 1.287 . S
C1682 C1681 1.287 . S
C1682 C1683 1.524 . S
C1682 H1701 0.913 . S
C1683 H1659 0.950 . S
C1683 C1682 1.524 . S
C1683 C1684 1.415 . S
C1684 H1660 0.950 . S
C1684 C1679 1.363 . S
C1684 C1683 1.415 . S
C1685 H1661 0.951 . S
C1685 C1686 1.366 . S
C1685 C1687 1.388 . S
C1686 C1685 1.366 . S
C1686 C1690 1.385 . S
C1687 H1662 0.951 . S
C1687 C1685 1.388 . S
C1687 C1688 1.366 . S
C1688 C1687 1.366 . S
C1688 C1689 1.414 . S
C1688 C1691 1.499 . S
C1689 H1663 0.950 . S
C1689 C1688 1.414 . S
C1689 C1690 1.374 . S
C1690 H1664 0.950 . S
C1690 C1686 1.385 . S
C1690 C1689 1.374 . S
C1691 C1688 1.499 . S
C1691 C1692 1.373 . S
C1691 C1693 1.389 . S
C1692 H1665 0.950 . S
C1692 C1678 1.377 . S
C1692 C1691 1.373 . S
C1693 C1677 1.377 . S
C1693 C1691 1.389 . S
C1693 C1694 1.524 . S
C1694 C1693 1.524 . S
C1694 C1695 1.397 . S
C1694 C1699 1.363 . S
C1695 H1666 0.950 . S
C1695 C1694 1.397 . S
C1695 C1696 1.334 . S
C1696 H1667 0.950 . S
C1696 C1695 1.334 . S
C1696 C1697 1.287 . S
C1697 C1696 1.287 . S
C1697 C1698 1.524 . S
C1697 H1700 0.999 . S
C1698 H1668 0.950 . S
C1698 C1697 1.524 . S
C1698 C1699 1.415 . S
C1699 H1669 0.950 . S
C1699 C1694 1.363 . S
C1699 C1698 1.415 . S
H1700 C1697 0.999 . S
H1701 C1682 0.913 . S
H1702 C1720 0.951 . S
H1703 C1722 0.951 . S
H1704 C1724 0.950 . S
H1705 C1725 0.950 . S
H1706 C1727 0.950 . S
H1707 C1730 0.950 . S
H1708 C1731 0.950 . S
H1709 C1733 0.950 . S
H1710 C1734 0.950 . S
H1711 C1735 0.951 . S
H1712 C1737 0.951 . S
H1713 C1739 0.950 . S
H1714 C1740 0.950 . S
H1715 C1742 0.950 . S
H1716 C1745 0.950 . S
H1717 C1746 0.950 . S
H1718 C1748 0.950 . S
H1719 C1749 0.950 . S
C1720 H1702 0.951 . S
C1720 C1721 1.366 . S
C1720 C1722 1.388 . S
C1721 C1720 1.366 . S
C1721 C1725 1.385 . S
C1722 H1703 0.951 . S
C1722 C1720 1.388 . S
C1722 C1723 1.366 . S
C1723 C1722 1.366 . S
C1723 C1724 1.414 . S
C1723 C1726 1.499 . S
C1724 H1704 0.950 . S
C1724 C1723 1.414 . S
C1724 C1725 1.374 . S
C1725 H1705 0.950 . S
C1725 C1721 1.385 . S
C1725 C1724 1.374 . S
C1726 C1723 1.499 . S
C1726 C1727 1.373 . S
C1726 C1728 1.389 . S
C1727 H1706 0.950 . S
C1727 C1726 1.373 . S
C1727 C1743 1.377 . S
C1728 C1726 1.389 . S
C1728 C1729 1.524 . S
C1728 C1742 1.377 . S
C1729 C1728 1.524 . S
C1729 C1730 1.397 . S
C1729 C1734 1.363 . S
C1730 H1707 0.950 . S
C1730 C1729 1.397 . S
C1730 C1731 1.334 . S
C1731 H1708 0.950 . S
C1731 C1730 1.334 . S
C1731 C1732 1.287 . S
C1732 C1731 1.287 . S
C1732 C1733 1.524 . S
C1732 H1751 0.913 . S
C1733 H1709 0.950 . S
C1733 C1732 1.524 . S
C1733 C1734 1.415 . S
C1734 H1710 0.950 . S
C1734 C1729 1.363 . S
C1734 C1733 1.415 . S
C1735 H1711 0.951 . S
C1735 C1736 1.366 . S
C1735 C1737 1.388 . S
C1736 C1735 1.366 . S
C1736 C1740 1.385 . S
C1737 H1712 0.951 . S
C1737 C1735 1.388 . S
C1737 C1738 1.366 . S
C1738 C1737 1.366 . S
C1738 C1739 1.414 . S
C1738 C1741 1.499 . S
C1739 H1713 0.950 . S
C1739 C1738 1.414 . S
C1739 C1740 1.374 . S
C1740 H1714 0.950 . S
C1740 C1736 1.385 . S
C1740 C1739 1.374 . S
C1741 C1738 1.499 . S
C1741 C1742 1.373 . S
C1741 C1743 1.389 . S
C1742 H1715 0.950 . S
C1742 C1728 1.377 . S
C1742 C1741 1.373 . S
C1743 C1727 1.377 . S
C1743 C1741 1.389 . S
C1743 C1744 1.524 . S
C1744 C1743 1.524 . S
C1744 C1745 1.397 . S
C1744 C1749 1.363 . S
C1745 H1716 0.950 . S
C1745 C1744 1.397 . S
C1745 C1746 1.334 . S
C1746 H1717 0.950 . S
C1746 C1745 1.334 . S
C1746 C1747 1.287 . S
C1747 C1746 1.287 . S
C1747 C1748 1.524 . S
C1747 H1750 0.999 . S
C1748 H1718 0.950 . S
C1748 C1747 1.524 . S
C1748 C1749 1.415 . S
C1749 H1719 0.950 . S
C1749 C1744 1.363 . S
C1749 C1748 1.415 . S
H1750 C1747 0.999 . S
H1751 C1732 0.913 . S
H1752 C1770 0.951 . S
H1753 C1772 0.951 . S
H1754 C1774 0.950 . S
H1755 C1775 0.950 . S
H1756 C1777 0.950 . S
H1757 C1780 0.950 . S
H1758 C1781 0.950 . S
H1759 C1783 0.950 . S
H1760 C1784 0.950 . S
H1761 C1785 0.951 . S
H1762 C1787 0.951 . S
H1763 C1789 0.950 . S
H1764 C1790 0.950 . S
H1765 C1792 0.950 . S
H1766 C1795 0.950 . S
H1767 C1796 0.944 1_565 S
H1768 C1798 0.950 . S
H1769 C1799 0.950 . S
C1770 H1752 0.951 . S
C1770 C1771 1.366 . S
C1770 C1772 1.388 . S
C1771 C1770 1.366 . S
C1771 C1775 1.385 . S
C1772 H1753 0.951 . S
C1772 C1770 1.388 . S
C1772 C1773 1.366 . S
C1773 C1772 1.366 . S
C1773 C1774 1.414 . S
C1773 C1776 1.499 . S
C1774 H1754 0.950 . S
C1774 C1773 1.414 . S
C1774 C1775 1.374 . S
C1775 H1755 0.950 . S
C1775 C1771 1.385 . S
C1775 C1774 1.374 . S
C1776 C1773 1.499 . S
C1776 C1777 1.373 . S
C1776 C1778 1.389 . S
C1777 H1756 0.950 . S
C1777 C1776 1.373 . S
C1777 C1793 1.377 . S
C1778 C1776 1.389 . S
C1778 C1779 1.524 1_554 S
C1778 C1792 1.377 . S
C1779 C1778 1.524 1_556 S
C1779 C1780 1.397 . S
C1779 C1784 1.363 . S
C1780 H1757 0.950 . S
C1780 C1779 1.397 . S
C1780 C1781 1.334 . S
C1781 H1758 0.950 . S
C1781 C1780 1.334 . S
C1781 C1782 1.287 . S
C1782 C1781 1.287 . S
C1782 C1783 1.524 . S
C1782 H1801 0.913 . S
C1783 H1759 0.950 . S
C1783 C1782 1.524 . S
C1783 C1784 1.415 . S
C1784 H1760 0.950 . S
C1784 C1779 1.363 . S
C1784 C1783 1.415 . S
C1785 H1761 0.951 . S
C1785 C1786 1.366 1_545 S
C1785 C1787 1.388 . S
C1786 C1785 1.366 1_565 S
C1786 C1790 1.385 . S
C1787 H1762 0.951 . S
C1787 C1785 1.388 . S
C1787 C1788 1.366 1_545 S
C1788 C1787 1.366 1_565 S
C1788 C1789 1.414 . S
C1788 C1791 1.499 . S
C1789 H1763 0.950 . S
C1789 C1788 1.414 . S
C1789 C1790 1.374 . S
C1790 H1764 0.950 . S
C1790 C1786 1.385 . S
C1790 C1789 1.374 . S
C1791 C1788 1.499 . S
C1791 C1792 1.373 . S
C1791 C1793 1.389 . S
C1792 H1765 0.950 . S
C1792 C1778 1.377 . S
C1792 C1791 1.373 . S
C1793 C1777 1.377 . S
C1793 C1791 1.389 . S
C1793 C1794 1.524 . S
C1794 C1793 1.524 . S
C1794 C1795 1.397 . S
C1794 C1799 1.363 1_565 S
C1795 H1766 0.950 . S
C1795 C1794 1.397 . S
C1795 C1796 1.334 1_565 S
C1796 H1767 0.944 1_545 S
C1796 C1795 1.334 1_545 S
C1796 C1797 1.287 . S
C1797 C1796 1.287 . S
C1797 C1798 1.524 . S
C1797 H1800 0.999 . S
C1798 H1768 0.950 . S
C1798 C1797 1.524 . S
C1798 C1799 1.415 . S
C1799 H1769 0.950 . S
C1799 C1794 1.363 1_545 S
C1799 C1798 1.415 . S
H1800 C1797 0.999 . S
H1801 C1782 0.913 . S
H1802 C1820 0.951 . S
H1803 C1822 0.951 . S
H1804 C1824 0.950 . S
H1805 C1825 0.950 . S
H1806 C1827 0.950 . S
H1807 C1830 0.950 . S
H1808 C1831 0.950 . S
H1809 C1833 0.950 1_554 S
H1810 C1834 0.950 . S
H1811 C1835 0.951 . S
H1812 C1837 0.951 . S
H1813 C1839 0.950 . S
H1814 C1840 0.950 . S
H1815 C1842 0.950 . S
H1816 C1845 0.950 . S
H1817 C1846 0.950 . S
H1818 C1848 0.950 . S
H1819 C1849 0.950 1_556 S
C1820 H1802 0.951 . S
C1820 C1821 1.402 . S
C1820 C1822 1.388 . S
C1821 C1820 1.402 . S
C1821 C1825 1.359 1_554 S
C1822 H1803 0.951 . S
C1822 C1820 1.388 . S
C1822 C1823 1.366 . S
C1823 C1822 1.366 . S
C1823 C1824 1.414 1_554 S
C1823 C1826 1.499 . S
C1824 H1804 0.950 . S
C1824 C1823 1.414 1_556 S
C1824 C1825 1.374 . S
C1825 H1805 0.950 . S
C1825 C1821 1.359 1_556 S
C1825 C1824 1.374 . S
C1826 C1823 1.499 . S
C1826 C1827 1.373 . S
C1826 C1828 1.392 1_554 S
C1827 H1806 0.950 . S
C1827 C1826 1.373 . S
C1827 C1843 1.377 . S
C1828 C1826 1.392 1_556 S
C1828 C1829 1.532 . S
C1828 C1842 1.368 1_556 S
C1829 C1828 1.532 . S
C1829 C1830 1.397 . S
C1829 C1834 1.363 1_556 S
C1830 H1807 0.950 . S
C1830 C1829 1.397 . S
C1830 C1831 1.334 . S
C1831 H1808 0.950 . S
C1831 C1830 1.334 . S
C1831 C1832 1.287 . S
C1832 C1831 1.287 . S
C1832 C1833 1.524 . S
C1832 H1851 0.913 . S
C1833 H1809 0.950 1_556 S
C1833 C1832 1.524 . S
C1833 C1834 1.415 1_556 S
C1834 H1810 0.950 . S
C1834 C1829 1.363 1_554 S
C1834 C1833 1.415 1_554 S
C1835 H1811 0.951 . S
C1835 C1836 1.366 1_556 S
C1835 C1837 1.388 . S
C1836 C1835 1.366 1_554 S
C1836 C1840 1.385 . S
C1837 H1812 0.951 . S
C1837 C1835 1.388 . S
C1837 C1838 1.366 1_556 S
C1838 C1837 1.366 1_554 S
C1838 C1839 1.414 . S
C1838 C1841 1.499 . S
C1839 H1813 0.950 . S
C1839 C1838 1.414 . S
C1839 C1840 1.374 . S
C1840 H1814 0.950 . S
C1840 C1836 1.385 . S
C1840 C1839 1.374 . S
C1841 C1838 1.499 . S
C1841 C1842 1.373 . S
C1841 C1843 1.389 . S
C1842 H1815 0.950 . S
C1842 C1828 1.368 1_554 S
C1842 C1841 1.373 . S
C1843 C1827 1.377 . S
C1843 C1841 1.389 . S
C1843 C1844 1.524 . S
C1844 C1843 1.524 . S
C1844 C1845 1.397 . S
C1844 C1849 1.363 . S
C1845 H1816 0.950 . S
C1845 C1844 1.397 . S
C1845 C1846 1.334 . S
C1846 H1817 0.950 . S
C1846 C1845 1.334 . S
C1846 C1847 1.287 . S
C1847 C1846 1.287 . S
C1847 C1848 1.524 . S
C1847 H1850 0.999 . S
C1848 H1818 0.950 . S
C1848 C1847 1.524 . S
C1848 C1849 1.415 . S
C1849 H1819 0.950 1_554 S
C1849 C1844 1.363 . S
C1849 C1848 1.415 . S
H1850 C1847 0.999 . S
H1851 C1832 0.913 . S
H1852 C1870 0.951 . S
H1853 C1872 0.951 . S
H1854 C1874 0.950 . S
H1855 C1875 0.950 . S
H1856 C1877 0.950 . S
H1857 C1880 0.950 . S
H1858 C1881 0.950 . S
H1859 C1883 0.950 . S
H1860 C1884 0.950 . S
H1861 C1885 0.951 . S
H1862 C1887 0.951 . S
H1863 C1889 0.950 . S
H1864 C1890 0.950 . S
H1865 C1892 0.950 . S
H1866 C1895 0.950 . S
H1867 C1896 0.950 . S
H1868 C1898 0.950 . S
H1869 C1899 0.950 . S
C1870 H1852 0.951 . S
C1870 C1871 1.366 . S
C1870 C1872 1.388 . S
C1871 C1870 1.366 . S
C1871 C1875 1.385 . S
C1872 H1853 0.951 . S
C1872 C1870 1.388 . S
C1872 C1873 1.366 . S
C1873 C1872 1.366 . S
C1873 C1874 1.414 . S
C1873 C1876 1.499 . S
C1874 H1854 0.950 . S
C1874 C1873 1.414 . S
C1874 C1875 1.374 . S
C1875 H1855 0.950 . S
C1875 C1871 1.385 . S
C1875 C1874 1.374 . S
C1876 C1873 1.499 . S
C1876 C1877 1.373 . S
C1876 C1878 1.389 . S
C1877 H1856 0.950 . S
C1877 C1876 1.373 . S
C1877 C1893 1.377 . S
C1878 C1876 1.389 . S
C1878 C1879 1.524 . S
C1878 C1892 1.377 . S
C1879 C1878 1.524 . S
C1879 C1880 1.397 . S
C1879 C1884 1.363 . S
C1880 H1857 0.950 . S
C1880 C1879 1.397 . S
C1880 C1881 1.334 . S
C1881 H1858 0.950 . S
C1881 C1880 1.334 . S
C1881 C1882 1.287 . S
C1882 C1881 1.287 . S
C1882 C1883 1.524 . S
C1882 H1901 0.913 . S
C1883 H1859 0.950 . S
C1883 C1882 1.524 . S
C1883 C1884 1.415 . S
C1884 H1860 0.950 . S
C1884 C1879 1.363 . S
C1884 C1883 1.415 . S
C1885 H1861 0.951 . S
C1885 C1886 1.366 . S
C1885 C1887 1.388 . S
C1886 C1885 1.366 . S
C1886 C1890 1.385 . S
C1887 H1862 0.951 . S
C1887 C1885 1.388 . S
C1887 C1888 1.366 . S
C1888 C1887 1.366 . S
C1888 C1889 1.414 . S
C1888 C1891 1.499 . S
C1889 H1863 0.950 . S
C1889 C1888 1.414 . S
C1889 C1890 1.374 . S
C1890 H1864 0.950 . S
C1890 C1886 1.385 . S
C1890 C1889 1.374 . S
C1891 C1888 1.499 . S
C1891 C1892 1.373 . S
C1891 C1893 1.389 . S
C1892 H1865 0.950 . S
C1892 C1878 1.377 . S
C1892 C1891 1.373 . S
C1893 C1877 1.377 . S
C1893 C1891 1.389 . S
C1893 C1894 1.524 . S
C1894 C1893 1.524 . S
C1894 C1895 1.397 . S
C1894 C1899 1.363 . S
C1895 H1866 0.950 . S
C1895 C1894 1.397 . S
C1895 C1896 1.334 . S
C1896 H1867 0.950 . S
C1896 C1895 1.334 . S
C1896 C1897 1.287 . S
C1897 C1896 1.287 . S
C1897 C1898 1.524 . S
C1897 H1900 0.999 . S
C1898 H1868 0.950 . S
C1898 C1897 1.524 . S
C1898 C1899 1.415 . S
C1899 H1869 0.950 . S
C1899 C1894 1.363 . S
C1899 C1898 1.415 . S
H1900 C1897 0.999 . S
H1901 C1882 0.913 . S
H1902 C1920 0.951 . S
H1903 C1922 0.951 . S
H1904 C1924 0.950 . S
H1905 C1925 0.950 . S
H1906 C1927 0.950 . S
H1907 C1930 0.950 . S
H1908 C1931 0.950 . S
H1909 C1933 0.950 . S
H1910 C1934 0.950 . S
H1911 C1935 0.951 . S
H1912 C1937 0.951 . S
H1913 C1939 0.950 . S
H1914 C1940 0.950 1_455 S
H1915 C1942 0.950 . S
H1916 C1945 0.950 . S
H1917 C1946 0.950 . S
H1918 C1948 0.950 . S
H1919 C1949 0.950 . S
C1920 H1902 0.951 . S
C1920 C1921 1.366 . S
C1920 C1922 1.388 . S
C1921 C1920 1.366 . S
C1921 C1925 1.385 . S
C1922 H1903 0.951 . S
C1922 C1920 1.388 . S
C1922 C1923 1.366 . S
C1923 C1922 1.366 . S
C1923 C1924 1.414 . S
C1923 C1926 1.499 . S
C1924 H1904 0.950 . S
C1924 C1923 1.414 . S
C1924 C1925 1.374 . S
C1925 H1905 0.950 . S
C1925 C1921 1.385 . S
C1925 C1924 1.374 . S
C1926 C1923 1.499 . S
C1926 C1927 1.373 . S
C1926 C1928 1.389 . S
C1927 H1906 0.950 . S
C1927 C1926 1.373 . S
C1927 C1943 1.377 . S
C1928 C1926 1.389 . S
C1928 C1929 1.524 . S
C1928 C1942 1.377 . S
C1929 C1928 1.524 . S
C1929 C1930 1.397 . S
C1929 C1934 1.363 . S
C1930 H1907 0.950 . S
C1930 C1929 1.397 . S
C1930 C1931 1.334 . S
C1931 H1908 0.950 . S
C1931 C1930 1.334 . S
C1931 C1932 1.287 . S
C1932 C1931 1.287 . S
C1932 C1933 1.524 . S
C1932 H1951 0.913 . S
C1933 H1909 0.950 . S
C1933 C1932 1.524 . S
C1933 C1934 1.415 . S
C1934 H1910 0.950 . S
C1934 C1929 1.363 . S
C1934 C1933 1.415 . S
C1935 H1911 0.951 . S
C1935 C1936 1.366 . S
C1935 C1937 1.388 . S
C1936 C1935 1.366 . S
C1936 C1940 1.385 . S
C1937 H1912 0.951 . S
C1937 C1935 1.388 . S
C1937 C1938 1.366 . S
C1938 C1937 1.366 . S
C1938 C1939 1.414 . S
C1938 C1941 1.499 . S
C1939 H1913 0.950 . S
C1939 C1938 1.414 . S
C1939 C1940 1.374 . S
C1940 H1914 0.950 1_655 S
C1940 C1936 1.385 . S
C1940 C1939 1.374 . S
C1941 C1938 1.499 . S
C1941 C1942 1.373 . S
C1941 C1943 1.389 . S
C1942 H1915 0.950 . S
C1942 C1928 1.377 . S
C1942 C1941 1.373 . S
C1943 C1927 1.377 . S
C1943 C1941 1.389 . S
C1943 C1944 1.524 . S
C1944 C1943 1.524 . S
C1944 C1945 1.397 . S
C1944 C1949 1.363 . S
C1945 H1916 0.950 . S
C1945 C1944 1.397 . S
C1945 C1946 1.334 . S
C1946 H1917 0.950 . S
C1946 C1945 1.334 . S
C1946 C1947 1.287 . S
C1947 C1946 1.287 . S
C1947 C1948 1.524 . S
C1947 H1950 0.999 . S
C1948 H1918 0.950 . S
C1948 C1947 1.524 . S
C1948 C1949 1.415 . S
C1949 H1919 0.950 . S
C1949 C1944 1.363 . S
C1949 C1948 1.415 . S
H1950 C1947 0.999 . S
H1951 C1932 0.913 . S
H1952 C1970 0.951 . S
H1953 C1972 0.951 . S
H1954 C1974 0.950 . S
H1955 C1975 0.950 . S
H1956 C1977 0.950 . S
H1957 C1980 0.950 . S
H1958 C1981 0.950 . S
H1959 C1983 0.950 . S
H1960 C1984 0.950 . S
H1961 C1985 0.951 . S
H1962 C1987 0.951 . S
H1963 C1989 0.950 . S
H1964 C1990 0.950 . S
H1965 C1992 0.950 . S
H1966 C1995 0.950 . S
H1967 C1996 0.950 . S
H1968 C1998 0.950 . S
H1969 C1999 0.950 . S
C1970 H1952 0.951 . S
C1970 C1971 1.366 . S
C1970 C1972 1.388 . S
C1971 C1970 1.366 . S
C1971 C1975 1.385 . S
C1972 H1953 0.951 . S
C1972 C1970 1.388 . S
C1972 C1973 1.366 . S
C1973 C1972 1.366 . S
C1973 C1974 1.414 . S
C1973 C1976 1.499 . S
C1974 H1954 0.950 . S
C1974 C1973 1.414 . S
C1974 C1975 1.374 . S
C1975 H1955 0.950 . S
C1975 C1971 1.385 . S
C1975 C1974 1.374 . S
C1976 C1973 1.499 . S
C1976 C1977 1.373 . S
C1976 C1978 1.389 . S
C1977 H1956 0.950 . S
C1977 C1976 1.373 . S
C1977 C1993 1.377 . S
C1978 C1976 1.389 . S
C1978 C1979 1.524 . S
C1978 C1992 1.377 . S
C1979 C1978 1.524 . S
C1979 C1980 1.397 . S
C1979 C1984 1.363 . S
C1980 H1957 0.950 . S
C1980 C1979 1.397 . S
C1980 C1981 1.334 . S
C1981 H1958 0.950 . S
C1981 C1980 1.334 . S
C1981 C1982 1.287 . S
C1982 C1981 1.287 . S
C1982 C1983 1.524 . S
C1982 H2001 0.913 . S
C1983 H1959 0.950 . S
C1983 C1982 1.524 . S
C1983 C1984 1.415 . S
C1984 H1960 0.950 . S
C1984 C1979 1.363 . S
C1984 C1983 1.415 . S
C1985 H1961 0.951 . S
C1985 C1986 1.366 . S
C1985 C1987 1.388 . S
C1986 C1985 1.366 . S
C1986 C1990 1.385 . S
C1987 H1962 0.951 . S
C1987 C1985 1.388 . S
C1987 C1988 1.366 . S
C1988 C1987 1.366 . S
C1988 C1989 1.414 . S
C1988 C1991 1.499 . S
C1989 H1963 0.950 . S
C1989 C1988 1.414 . S
C1989 C1990 1.374 . S
C1990 H1964 0.950 . S
C1990 C1986 1.385 . S
C1990 C1989 1.374 . S
C1991 C1988 1.499 . S
C1991 C1992 1.373 . S
C1991 C1993 1.389 . S
C1992 H1965 0.950 . S
C1992 C1978 1.377 . S
C1992 C1991 1.373 . S
C1993 C1977 1.377 . S
C1993 C1991 1.389 . S
C1993 C1994 1.524 . S
C1994 C1993 1.524 . S
C1994 C1995 1.397 . S
C1994 C1999 1.363 . S
C1995 H1966 0.950 . S
C1995 C1994 1.397 . S
C1995 C1996 1.334 . S
C1996 H1967 0.950 . S
C1996 C1995 1.334 . S
C1996 C1997 1.287 . S
C1997 C1996 1.287 . S
C1997 C1998 1.524 . S
C1997 H2000 0.999 . S
C1998 H1968 0.950 . S
C1998 C1997 1.524 . S
C1998 C1999 1.415 . S
C1999 H1969 0.950 . S
C1999 C1994 1.363 . S
C1999 C1998 1.415 . S
H2000 C1997 0.999 . S
H2001 C1982 0.913 . S
H2002 C2020 0.951 . S
H2003 C2022 0.951 . S
H2004 C2024 0.950 . S
H2005 C2025 0.950 . S
H2006 C2027 0.950 . S
H2007 C2030 0.950 . S
H2008 C2031 0.950 . S
H2009 C2033 0.950 . S
H2010 C2034 0.950 . S
H2011 C2035 0.951 . S
H2012 C2037 0.951 . S
H2013 C2039 0.950 . S
H2014 C2040 0.950 . S
H2015 C2042 0.950 . S
H2016 C2045 0.950 . S
H2017 C2046 0.950 . S
H2018 C2048 0.950 . S
H2019 C2049 0.950 . S
C2020 H2002 0.951 . S
C2020 C2021 1.366 . S
C2020 C2022 1.388 . S
C2021 C2020 1.366 . S
C2021 C2025 1.385 . S
C2022 H2003 0.951 . S
C2022 C2020 1.388 . S
C2022 C2023 1.366 . S
C2023 C2022 1.366 . S
C2023 C2024 1.414 . S
C2023 C2026 1.499 . S
C2024 H2004 0.950 . S
C2024 C2023 1.414 . S
C2024 C2025 1.374 . S
C2025 H2005 0.950 . S
C2025 C2021 1.385 . S
C2025 C2024 1.374 . S
C2026 C2023 1.499 . S
C2026 C2027 1.373 . S
C2026 C2028 1.389 . S
C2027 H2006 0.950 . S
C2027 C2026 1.373 . S
C2027 C2043 1.377 . S
C2028 C2026 1.389 . S
C2028 C2029 1.524 . S
C2028 C2042 1.377 . S
C2029 C2028 1.524 . S
C2029 C2030 1.397 . S
C2029 C2034 1.363 . S
C2030 H2007 0.950 . S
C2030 C2029 1.397 . S
C2030 C2031 1.334 . S
C2031 H2008 0.950 . S
C2031 C2030 1.334 . S
C2031 C2032 1.287 . S
C2032 C2031 1.287 . S
C2032 C2033 1.524 . S
C2032 H2051 0.913 . S
C2033 H2009 0.950 . S
C2033 C2032 1.524 . S
C2033 C2034 1.415 . S
C2034 H2010 0.950 . S
C2034 C2029 1.363 . S
C2034 C2033 1.415 . S
C2035 H2011 0.951 . S
C2035 C2036 1.366 . S
C2035 C2037 1.388 . S
C2036 C2035 1.366 . S
C2036 C2040 1.385 . S
C2037 H2012 0.951 . S
C2037 C2035 1.388 . S
C2037 C2038 1.366 . S
C2038 C2037 1.366 . S
C2038 C2039 1.414 . S
C2038 C2041 1.499 . S
C2039 H2013 0.950 . S
C2039 C2038 1.414 . S
C2039 C2040 1.374 . S
C2040 H2014 0.950 . S
C2040 C2036 1.385 . S
C2040 C2039 1.374 . S
C2041 C2038 1.499 . S
C2041 C2042 1.373 . S
C2041 C2043 1.389 . S
C2042 H2015 0.950 . S
C2042 C2028 1.377 . S
C2042 C2041 1.373 . S
C2043 C2027 1.377 . S
C2043 C2041 1.389 . S
C2043 C2044 1.524 . S
C2044 C2043 1.524 . S
C2044 C2045 1.397 . S
C2044 C2049 1.363 . S
C2045 H2016 0.950 . S
C2045 C2044 1.397 . S
C2045 C2046 1.334 . S
C2046 H2017 0.950 . S
C2046 C2045 1.334 . S
C2046 C2047 1.287 . S
C2047 C2046 1.287 . S
C2047 C2048 1.524 . S
C2047 H2050 0.999 . S
C2048 H2018 0.950 . S
C2048 C2047 1.524 . S
C2048 C2049 1.415 . S
C2049 H2019 0.950 . S
C2049 C2044 1.363 . S
C2049 C2048 1.415 . S
H2050 C2047 0.999 . S
H2051 C2032 0.913 . S
H2052 C2070 0.951 . S
H2053 C2072 0.951 . S
H2054 C2074 0.950 . S
H2055 C2075 0.950 . S
H2056 C2077 0.950 . S
H2057 C2080 0.950 . S
H2058 C2081 0.950 . S
H2059 C2083 0.950 . S
H2060 C2084 0.950 . S
H2061 C2085 0.951 . S
H2062 C2087 0.951 . S
H2063 C2089 0.950 . S
H2064 C2090 0.950 . S
H2065 C2092 0.950 . S
H2066 C2095 0.950 . S
H2067 C2096 0.950 . S
H2068 C2098 0.950 . S
H2069 C2099 0.950 . S
C2070 H2052 0.951 . S
C2070 C2071 1.366 . S
C2070 C2072 1.388 . S
C2071 C2070 1.366 . S
C2071 C2075 1.385 . S
C2072 H2053 0.951 . S
C2072 C2070 1.388 . S
C2072 C2073 1.366 . S
C2073 C2072 1.366 . S
C2073 C2074 1.414 . S
C2073 C2076 1.499 . S
C2074 H2054 0.950 . S
C2074 C2073 1.414 . S
C2074 C2075 1.374 . S
C2075 H2055 0.950 . S
C2075 C2071 1.385 . S
C2075 C2074 1.374 . S
C2076 C2073 1.499 . S
C2076 C2077 1.373 . S
C2076 C2078 1.389 . S
C2077 H2056 0.950 . S
C2077 C2076 1.373 . S
C2077 C2093 1.377 . S
C2078 C2076 1.389 . S
C2078 C2079 1.524 . S
C2078 C2092 1.377 . S
C2079 C2078 1.524 . S
C2079 C2080 1.397 . S
C2079 C2084 1.363 . S
C2080 H2057 0.950 . S
C2080 C2079 1.397 . S
C2080 C2081 1.334 . S
C2081 H2058 0.950 . S
C2081 C2080 1.334 . S
C2081 C2082 1.287 . S
C2082 C2081 1.287 . S
C2082 C2083 1.524 . S
C2082 H2101 0.913 . S
C2083 H2059 0.950 . S
C2083 C2082 1.524 . S
C2083 C2084 1.415 . S
C2084 H2060 0.950 . S
C2084 C2079 1.363 . S
C2084 C2083 1.415 . S
C2085 H2061 0.951 . S
C2085 C2086 1.366 . S
C2085 C2087 1.388 . S
C2086 C2085 1.366 . S
C2086 C2090 1.385 . S
C2087 H2062 0.951 . S
C2087 C2085 1.388 . S
C2087 C2088 1.366 . S
C2088 C2087 1.366 . S
C2088 C2089 1.414 . S
C2088 C2091 1.499 . S
C2089 H2063 0.950 . S
C2089 C2088 1.414 . S
C2089 C2090 1.374 . S
C2090 H2064 0.950 . S
C2090 C2086 1.385 . S
C2090 C2089 1.374 . S
C2091 C2088 1.499 . S
C2091 C2092 1.373 . S
C2091 C2093 1.389 . S
C2092 H2065 0.950 . S
C2092 C2078 1.377 . S
C2092 C2091 1.373 . S
C2093 C2077 1.377 . S
C2093 C2091 1.389 . S
C2093 C2094 1.524 . S
C2094 C2093 1.524 . S
C2094 C2095 1.397 . S
C2094 C2099 1.363 . S
C2095 H2066 0.950 . S
C2095 C2094 1.397 . S
C2095 C2096 1.334 . S
C2096 H2067 0.950 . S
C2096 C2095 1.334 . S
C2096 C2097 1.287 . S
C2097 C2096 1.287 . S
C2097 C2098 1.524 . S
C2097 H2100 0.999 . S
C2098 H2068 0.950 . S
C2098 C2097 1.524 . S
C2098 C2099 1.415 . S
C2099 H2069 0.950 . S
C2099 C2094 1.363 . S
C2099 C2098 1.415 . S
H2100 C2097 0.999 . S
H2101 C2082 0.913 . S
H2102 C2120 0.951 . S
H2103 C2122 0.951 . S
H2104 C2124 0.950 . S
H2105 C2125 0.950 . S
H2106 C2127 0.950 . S
H2107 C2130 0.950 . S
H2108 C2131 0.950 . S
H2109 C2133 0.950 . S
H2110 C2134 0.950 . S
H2111 C2135 0.951 . S
H2112 C2137 0.951 . S
H2113 C2139 0.950 . S
H2114 C2140 0.950 . S
H2115 C2142 0.950 . S
H2116 C2145 0.950 . S
H2117 C2146 0.950 . S
H2118 C2148 0.950 . S
H2119 C2149 0.950 . S
C2120 H2102 0.951 . S
C2120 C2121 1.366 . S
C2120 C2122 1.388 . S
C2121 C2120 1.366 . S
C2121 C2125 1.385 . S
C2122 H2103 0.951 . S
C2122 C2120 1.388 . S
C2122 C2123 1.366 . S
C2123 C2122 1.366 . S
C2123 C2124 1.414 . S
C2123 C2126 1.499 . S
C2124 H2104 0.950 . S
C2124 C2123 1.414 . S
C2124 C2125 1.374 . S
C2125 H2105 0.950 . S
C2125 C2121 1.385 . S
C2125 C2124 1.374 . S
C2126 C2123 1.499 . S
C2126 C2127 1.373 . S
C2126 C2128 1.389 . S
C2127 H2106 0.950 . S
C2127 C2126 1.373 . S
C2127 C2143 1.377 . S
C2128 C2126 1.389 . S
C2128 C2129 1.524 . S
C2128 C2142 1.377 . S
C2129 C2128 1.524 . S
C2129 C2130 1.397 . S
C2129 C2134 1.363 . S
C2130 H2107 0.950 . S
C2130 C2129 1.397 . S
C2130 C2131 1.334 . S
C2131 H2108 0.950 . S
C2131 C2130 1.334 . S
C2131 C2132 1.287 . S
C2132 C2131 1.287 . S
C2132 C2133 1.524 . S
C2132 H2151 0.913 . S
C2133 H2109 0.950 . S
C2133 C2132 1.524 . S
C2133 C2134 1.415 . S
C2134 H2110 0.950 . S
C2134 C2129 1.363 . S
C2134 C2133 1.415 . S
C2135 H2111 0.951 . S
C2135 C2136 1.366 . S
C2135 C2137 1.388 . S
C2136 C2135 1.366 . S
C2136 C2140 1.385 . S
C2137 H2112 0.951 . S
C2137 C2135 1.388 . S
C2137 C2138 1.366 . S
C2138 C2137 1.366 . S
C2138 C2139 1.414 . S
C2138 C2141 1.499 . S
C2139 H2113 0.950 . S
C2139 C2138 1.414 . S
C2139 C2140 1.374 . S
C2140 H2114 0.950 . S
C2140 C2136 1.385 . S
C2140 C2139 1.374 . S
C2141 C2138 1.499 . S
C2141 C2142 1.373 . S
C2141 C2143 1.389 . S
C2142 H2115 0.950 . S
C2142 C2128 1.377 . S
C2142 C2141 1.373 . S
C2143 C2127 1.377 . S
C2143 C2141 1.389 . S
C2143 C2144 1.524 . S
C2144 C2143 1.524 . S
C2144 C2145 1.397 . S
C2144 C2149 1.363 . S
C2145 H2116 0.950 . S
C2145 C2144 1.397 . S
C2145 C2146 1.334 . S
C2146 H2117 0.950 . S
C2146 C2145 1.334 . S
C2146 C2147 1.287 . S
C2147 C2146 1.287 . S
C2147 C2148 1.524 . S
C2147 H2150 0.999 . S
C2148 H2118 0.950 . S
C2148 C2147 1.524 . S
C2148 C2149 1.415 . S
C2149 H2119 0.950 . S
C2149 C2144 1.363 . S
C2149 C2148 1.415 . S
H2150 C2147 0.999 . S
H2151 C2132 0.913 . S
H2152 C2170 0.951 . S
H2153 C2172 0.951 . S
H2154 C2174 0.950 . S
H2155 C2175 0.950 . S
H2156 C2177 0.950 . S
H2157 C2180 0.950 . S
H2158 C2181 0.949 . S
H2159 C2183 0.950 . S
H2160 C2184 0.950 . S
H2161 C2185 0.951 . S
H2162 C2187 0.951 . S
H2163 C2189 0.950 . S
H2164 C2190 0.950 . S
H2165 C2192 0.950 . S
H2166 C2195 0.950 . S
H2167 C2196 0.950 . S
H2168 C2198 0.950 . S
H2169 C2199 0.950 . S
C2170 H2152 0.951 . S
C2170 C2171 1.366 . S
C2170 C2172 1.388 . S
C2171 C2170 1.366 . S
C2171 C2175 1.385 . S
C2172 H2153 0.951 . S
C2172 C2170 1.388 . S
C2172 C2173 1.366 . S
C2173 C2172 1.366 . S
C2173 C2174 1.414 . S
C2173 C2176 1.499 . S
C2174 H2154 0.950 . S
C2174 C2173 1.414 . S
C2174 C2175 1.374 . S
C2175 H2155 0.950 . S
C2175 C2171 1.385 . S
C2175 C2174 1.374 . S
C2176 C2173 1.499 . S
C2176 C2177 1.373 . S
C2176 C2178 1.389 . S
C2177 H2156 0.950 . S
C2177 C2176 1.373 . S
C2177 C2193 1.377 . S
C2178 C2176 1.389 . S
C2178 C2179 1.524 . S
C2178 C2192 1.377 . S
C2179 C2178 1.524 . S
C2179 C2180 1.397 . S
C2179 C2184 1.363 . S
C2180 H2157 0.950 . S
C2180 C2179 1.397 . S
C2180 C2181 1.334 . S
C2181 H2158 0.949 . S
C2181 C2180 1.334 . S
C2181 C2182 1.287 1_554 S
C2182 C2181 1.287 1_556 S
C2182 C2183 1.524 . S
C2182 H2201 0.913 . S
C2183 H2159 0.950 . S
C2183 C2182 1.524 . S
C2183 C2184 1.415 1_556 S
C2184 H2160 0.950 . S
C2184 C2179 1.363 . S
C2184 C2183 1.415 1_554 S
C2185 H2161 0.951 . S
C2185 C2186 1.366 . S
C2185 C2187 1.388 . S
C2186 C2185 1.366 . S
C2186 C2190 1.385 . S
C2187 H2162 0.951 . S
C2187 C2185 1.388 . S
C2187 C2188 1.366 . S
C2188 C2187 1.366 . S
C2188 C2189 1.414 . S
C2188 C2191 1.499 . S
C2189 H2163 0.950 . S
C2189 C2188 1.414 . S
C2189 C2190 1.374 . S
C2190 H2164 0.950 . S
C2190 C2186 1.385 . S
C2190 C2189 1.374 . S
C2191 C2188 1.499 . S
C2191 C2192 1.373 . S
C2191 C2193 1.389 . S
C2192 H2165 0.950 . S
C2192 C2178 1.377 . S
C2192 C2191 1.373 . S
C2193 C2177 1.377 . S
C2193 C2191 1.389 . S
C2193 C2194 1.524 . S
C2194 C2193 1.524 . S
C2194 C2195 1.397 . S
C2194 C2199 1.363 . S
C2195 H2166 0.950 . S
C2195 C2194 1.397 . S
C2195 C2196 1.334 . S
C2196 H2167 0.950 . S
C2196 C2195 1.334 . S
C2196 C2197 1.287 . S
C2197 C2196 1.287 . S
C2197 C2198 1.524 . S
C2197 H2200 0.999 . S
C2198 H2168 0.950 . S
C2198 C2197 1.524 . S
C2198 C2199 1.415 . S
C2199 H2169 0.950 . S
C2199 C2194 1.363 . S
C2199 C2198 1.415 . S
H2200 C2197 0.999 . S
H2201 C2182 0.913 . S
H2202 C2220 0.951 . S
H2203 C2222 0.951 . S
H2204 C2224 0.950 . S
H2205 C2225 0.950 . S
H2206 C2227 0.950 . S
H2207 C2230 0.950 . S
H2208 C2231 0.950 . S
H2209 C2233 0.950 . S
H2210 C2234 0.950 . S
H2211 C2235 0.951 . S
H2212 C2237 0.951 . S
H2213 C2239 0.950 . S
H2214 C2240 0.950 . S
H2215 C2242 0.950 . S
H2216 C2245 0.950 . S
H2217 C2246 0.950 . S
H2218 C2248 0.950 . S
H2219 C2249 0.950 . S
C2220 H2202 0.951 . S
C2220 C2221 1.366 . S
C2220 C2222 1.388 . S
C2221 C2220 1.366 . S
C2221 C2225 1.385 . S
C2222 H2203 0.951 . S
C2222 C2220 1.388 . S
C2222 C2223 1.366 . S
C2223 C2222 1.366 . S
C2223 C2224 1.414 . S
C2223 C2226 1.499 . S
C2224 H2204 0.950 . S
C2224 C2223 1.414 . S
C2224 C2225 1.374 . S
C2225 H2205 0.950 . S
C2225 C2221 1.385 . S
C2225 C2224 1.374 . S
C2226 C2223 1.499 . S
C2226 C2227 1.373 . S
C2226 C2228 1.389 . S
C2227 H2206 0.950 . S
C2227 C2226 1.373 . S
C2227 C2243 1.377 . S
C2228 C2226 1.389 . S
C2228 C2229 1.524 . S
C2228 C2242 1.377 . S
C2229 C2228 1.524 . S
C2229 C2230 1.397 . S
C2229 C2234 1.363 . S
C2230 H2207 0.950 . S
C2230 C2229 1.397 . S
C2230 C2231 1.334 . S
C2231 H2208 0.950 . S
C2231 C2230 1.334 . S
C2231 C2232 1.287 . S
C2232 C2231 1.287 . S
C2232 C2233 1.524 . S
C2232 H2251 0.913 . S
C2233 H2209 0.950 . S
C2233 C2232 1.524 . S
C2233 C2234 1.415 . S
C2234 H2210 0.950 . S
C2234 C2229 1.363 . S
C2234 C2233 1.415 . S
C2235 H2211 0.951 . S
C2235 C2236 1.366 . S
C2235 C2237 1.388 . S
C2236 C2235 1.366 . S
C2236 C2240 1.385 . S
C2237 H2212 0.951 . S
C2237 C2235 1.388 . S
C2237 C2238 1.366 . S
C2238 C2237 1.366 . S
C2238 C2239 1.414 . S
C2238 C2241 1.499 . S
C2239 H2213 0.950 . S
C2239 C2238 1.414 . S
C2239 C2240 1.374 . S
C2240 H2214 0.950 . S
C2240 C2236 1.385 . S
C2240 C2239 1.374 . S
C2241 C2238 1.499 . S
C2241 C2242 1.373 . S
C2241 C2243 1.389 . S
C2242 H2215 0.950 . S
C2242 C2228 1.377 . S
C2242 C2241 1.373 . S
C2243 C2227 1.377 . S
C2243 C2241 1.389 . S
C2243 C2244 1.524 . S
C2244 C2243 1.524 . S
C2244 C2245 1.397 . S
C2244 C2249 1.363 . S
C2245 H2216 0.950 . S
C2245 C2244 1.397 . S
C2245 C2246 1.334 . S
C2246 H2217 0.950 . S
C2246 C2245 1.334 . S
C2246 C2247 1.287 . S
C2247 C2246 1.287 . S
C2247 C2248 1.524 . S
C2247 H2250 0.999 . S
C2248 H2218 0.950 . S
C2248 C2247 1.524 . S
C2248 C2249 1.415 . S
C2249 H2219 0.950 . S
C2249 C2244 1.363 . S
C2249 C2248 1.415 . S
H2250 C2247 0.999 . S
H2251 C2232 0.913 . S
H2252 C2270 0.951 . S
H2253 C2272 0.951 . S
H2254 C2274 0.950 . S
H2255 C2275 0.950 . S
H2256 C2277 0.950 . S
H2257 C2280 0.950 . S
H2258 C2281 0.950 . S
H2259 C2283 0.950 . S
H2260 C2284 0.950 . S
H2261 C2285 0.951 . S
H2262 C2287 0.951 . S
H2263 C2289 0.950 . S
H2264 C2290 0.950 . S
H2265 C2292 0.950 . S
H2266 C2295 0.950 . S
H2267 C2296 0.950 . S
H2268 C2298 0.950 . S
H2269 C2299 0.950 . S
C2270 H2252 0.951 . S
C2270 C2271 1.366 . S
C2270 C2272 1.388 . S
C2271 C2270 1.366 . S
C2271 C2275 1.385 . S
C2272 H2253 0.951 . S
C2272 C2270 1.388 . S
C2272 C2273 1.366 . S
C2273 C2272 1.366 . S
C2273 C2274 1.414 . S
C2273 C2276 1.499 . S
C2274 H2254 0.950 . S
C2274 C2273 1.414 . S
C2274 C2275 1.374 . S
C2275 H2255 0.950 . S
C2275 C2271 1.385 . S
C2275 C2274 1.374 . S
C2276 C2273 1.499 . S
C2276 C2277 1.373 . S
C2276 C2278 1.389 . S
C2277 H2256 0.950 . S
C2277 C2276 1.373 . S
C2277 C2293 1.377 . S
C2278 C2276 1.389 . S
C2278 C2279 1.524 . S
C2278 C2292 1.377 . S
C2279 C2278 1.524 . S
C2279 C2280 1.397 . S
C2279 C2284 1.363 . S
C2280 H2257 0.950 . S
C2280 C2279 1.397 . S
C2280 C2281 1.334 . S
C2281 H2258 0.950 . S
C2281 C2280 1.334 . S
C2281 C2282 1.287 . S
C2282 C2281 1.287 . S
C2282 C2283 1.524 . S
C2282 H2301 0.913 . S
C2283 H2259 0.950 . S
C2283 C2282 1.524 . S
C2283 C2284 1.415 . S
C2284 H2260 0.950 . S
C2284 C2279 1.363 . S
C2284 C2283 1.415 . S
C2285 H2261 0.951 . S
C2285 C2286 1.366 . S
C2285 C2287 1.388 . S
C2286 C2285 1.366 . S
C2286 C2290 1.385 . S
C2287 H2262 0.951 . S
C2287 C2285 1.388 . S
C2287 C2288 1.366 . S
C2288 C2287 1.366 . S
C2288 C2289 1.414 . S
C2288 C2291 1.499 . S
C2289 H2263 0.950 . S
C2289 C2288 1.414 . S
C2289 C2290 1.374 . S
C2290 H2264 0.950 . S
C2290 C2286 1.385 . S
C2290 C2289 1.374 . S
C2291 C2288 1.499 . S
C2291 C2292 1.373 . S
C2291 C2293 1.389 . S
C2292 H2265 0.950 . S
C2292 C2278 1.377 . S
C2292 C2291 1.373 . S
C2293 C2277 1.377 . S
C2293 C2291 1.389 . S
C2293 C2294 1.524 . S
C2294 C2293 1.524 . S
C2294 C2295 1.397 . S
C2294 C2299 1.363 . S
C2295 H2266 0.950 . S
C2295 C2294 1.397 . S
C2295 C2296 1.334 . S
C2296 H2267 0.950 . S
C2296 C2295 1.334 . S
C2296 C2297 1.287 . S
C2297 C2296 1.287 . S
C2297 C2298 1.524 . S
C2297 H2300 0.999 . S
C2298 H2268 0.950 . S
C2298 C2297 1.524 . S
C2298 C2299 1.415 . S
C2299 H2269 0.950 . S
C2299 C2294 1.363 . S
C2299 C2298 1.415 . S
H2300 C2297 0.999 . S
H2301 C2282 0.913 . S
H2302 C2320 0.951 . S
H2303 C2322 0.951 . S
H2304 C2324 0.950 . S
H2305 C2325 0.950 . S
H2306 C2327 0.950 . S
H2307 C2330 0.950 . S
H2308 C2331 0.950 . S
H2309 C2333 0.950 . S
H2310 C2334 0.950 . S
H2311 C2335 0.951 . S
H2312 C2337 0.951 . S
H2313 C2339 0.950 . S
H2314 C2340 0.950 . S
H2315 C2342 0.950 . S
H2316 C2345 0.950 . S
H2317 C2346 0.950 . S
H2318 C2348 0.950 . S
H2319 C2349 0.950 . S
C2320 H2302 0.951 . S
C2320 C2321 1.366 . S
C2320 C2322 1.388 . S
C2321 C2320 1.366 . S
C2321 C2325 1.385 . S
C2322 H2303 0.951 . S
C2322 C2320 1.388 . S
C2322 C2323 1.366 . S
C2323 C2322 1.366 . S
C2323 C2324 1.414 . S
C2323 C2326 1.499 . S
C2324 H2304 0.950 . S
C2324 C2323 1.414 . S
C2324 C2325 1.374 . S
C2325 H2305 0.950 . S
C2325 C2321 1.385 . S
C2325 C2324 1.374 . S
C2326 C2323 1.499 . S
C2326 C2327 1.373 . S
C2326 C2328 1.389 . S
C2327 H2306 0.950 . S
C2327 C2326 1.373 . S
C2327 C2343 1.377 . S
C2328 C2326 1.389 . S
C2328 C2329 1.524 . S
C2328 C2342 1.377 . S
C2329 C2328 1.524 . S
C2329 C2330 1.397 . S
C2329 C2334 1.363 . S
C2330 H2307 0.950 . S
C2330 C2329 1.397 . S
C2330 C2331 1.334 . S
C2331 H2308 0.950 . S
C2331 C2330 1.334 . S
C2331 C2332 1.287 . S
C2332 C2331 1.287 . S
C2332 C2333 1.524 . S
C2332 H2351 0.913 . S
C2333 H2309 0.950 . S
C2333 C2332 1.524 . S
C2333 C2334 1.415 . S
C2334 H2310 0.950 . S
C2334 C2329 1.363 . S
C2334 C2333 1.415 . S
C2335 H2311 0.951 . S
C2335 C2336 1.366 . S
C2335 C2337 1.388 . S
C2336 C2335 1.366 . S
C2336 C2340 1.385 . S
C2337 H2312 0.951 . S
C2337 C2335 1.388 . S
C2337 C2338 1.366 . S
C2338 C2337 1.366 . S
C2338 C2339 1.414 . S
C2338 C2341 1.499 . S
C2339 H2313 0.950 . S
C2339 C2338 1.414 . S
C2339 C2340 1.374 . S
C2340 H2314 0.950 . S
C2340 C2336 1.385 . S
C2340 C2339 1.374 . S
C2341 C2338 1.499 . S
C2341 C2342 1.373 . S
C2341 C2343 1.389 . S
C2342 H2315 0.950 . S
C2342 C2328 1.377 . S
C2342 C2341 1.373 . S
C2343 C2327 1.377 . S
C2343 C2341 1.389 . S
C2343 C2344 1.524 . S
C2344 C2343 1.524 . S
C2344 C2345 1.397 . S
C2344 C2349 1.363 . S
C2345 H2316 0.950 . S
C2345 C2344 1.397 . S
C2345 C2346 1.334 . S
C2346 H2317 0.950 . S
C2346 C2345 1.334 . S
C2346 C2347 1.287 . S
C2347 C2346 1.287 . S
C2347 C2348 1.524 . S
C2347 H2350 0.999 . S
C2348 H2318 0.950 . S
C2348 C2347 1.524 . S
C2348 C2349 1.415 . S
C2349 H2319 0.950 . S
C2349 C2344 1.363 . S
C2349 C2348 1.415 . S
H2350 C2347 0.999 . S
H2351 C2332 0.913 . S
H2352 C2370 0.951 . S
H2353 C2372 0.951 . S
H2354 C2374 0.950 . S
H2355 C2375 0.950 . S
H2356 C2377 0.950 . S
H2357 C2380 0.950 . S
H2358 C2381 0.950 . S
H2359 C2383 0.950 1_655 S
H2360 C2384 0.950 . S
H2361 C2385 0.951 . S
H2362 C2387 0.951 . S
H2363 C2389 0.950 . S
H2364 C2390 0.898 1_655 S
H2365 C2392 0.950 . S
H2366 C2395 0.950 . S
H2367 C2396 0.950 . S
H2368 C2398 0.950 . S
H2369 C2399 0.950 . S
C2370 H2352 0.951 . S
C2370 C2371 1.366 . S
C2370 C2372 1.388 . S
C2371 C2370 1.366 . S
C2371 C2375 1.385 . S
C2372 H2353 0.951 . S
C2372 C2370 1.388 . S
C2372 C2373 1.366 . S
C2373 C2372 1.366 . S
C2373 C2374 1.414 . S
C2373 C2376 1.499 . S
C2374 H2354 0.950 . S
C2374 C2373 1.414 . S
C2374 C2375 1.374 . S
C2375 H2355 0.950 . S
C2375 C2371 1.385 . S
C2375 C2374 1.374 . S
C2376 C2373 1.499 . S
C2376 C2377 1.373 . S
C2376 C2378 1.389 . S
C2377 H2356 0.950 . S
C2377 C2376 1.373 . S
C2377 C2393 1.377 . S
C2378 C2376 1.389 . S
C2378 C2379 1.524 . S
C2378 C2392 1.377 . S
C2379 C2378 1.524 . S
C2379 C2380 1.397 . S
C2379 C2384 1.363 . S
C2380 H2357 0.950 . S
C2380 C2379 1.397 . S
C2380 C2381 1.334 . S
C2381 H2358 0.950 . S
C2381 C2380 1.334 . S
C2381 C2382 1.287 . S
C2382 C2381 1.287 . S
C2382 C2383 1.524 . S
C2382 H2401 0.913 . S
C2383 H2359 0.950 1_455 S
C2383 C2382 1.524 . S
C2383 C2384 1.415 . S
C2384 H2360 0.950 . S
C2384 C2379 1.363 . S
C2384 C2383 1.415 . S
C2385 H2361 0.951 . S
C2385 C2386 1.366 . S
C2385 C2387 1.388 . S
C2386 C2385 1.366 . S
C2386 C2390 1.385 . S
C2387 H2362 0.951 . S
C2387 C2385 1.388 . S
C2387 C2388 1.366 . S
C2388 C2387 1.366 . S
C2388 C2389 1.414 . S
C2388 C2391 1.499 . S
C2389 H2363 0.950 . S
C2389 C2388 1.414 . S
C2389 C2390 1.374 . S
C2390 H2364 0.898 1_455 S
C2390 C2386 1.385 . S
C2390 C2389 1.374 . S
C2391 C2388 1.499 . S
C2391 C2392 1.373 . S
C2391 C2393 1.389 . S
C2392 H2365 0.950 . S
C2392 C2378 1.377 . S
C2392 C2391 1.373 . S
C2393 C2377 1.377 . S
C2393 C2391 1.389 . S
C2393 C2394 1.524 . S
C2394 C2393 1.524 . S
C2394 C2395 1.397 . S
C2394 C2399 1.363 . S
C2395 H2366 0.950 . S
C2395 C2394 1.397 . S
C2395 C2396 1.334 . S
C2396 H2367 0.950 . S
C2396 C2395 1.334 . S
C2396 C2397 1.287 . S
C2397 C2396 1.287 . S
C2397 C2398 1.524 . S
C2397 H2400 0.999 . S
C2398 H2368 0.950 . S
C2398 C2397 1.524 . S
C2398 C2399 1.415 . S
C2399 H2369 0.950 . S
C2399 C2394 1.363 . S
C2399 C2398 1.415 . S
H2400 C2397 0.999 . S
H2401 C2382 0.913 . S
H2402 C2420 0.951 . S
H2403 C2422 0.951 . S
H2404 C2424 0.950 . S
H2405 C2425 0.950 . S
H2406 C2427 0.950 . S
H2407 C2430 0.950 . S
H2408 C2431 0.950 . S
H2409 C2433 0.950 . S
H2410 C2434 0.950 . S
H2411 C2435 0.951 . S
H2412 C2437 0.951 . S
H2413 C2439 0.950 . S
H2414 C2440 0.950 . S
H2415 C2442 0.950 . S
H2416 C2445 0.950 . S
H2417 C2446 0.950 . S
H2418 C2448 0.950 . S
H2419 C2449 0.950 . S
C2420 H2402 0.951 . S
C2420 C2421 1.366 . S
C2420 C2422 1.388 . S
C2421 C2420 1.366 . S
C2421 C2425 1.385 . S
C2422 H2403 0.951 . S
C2422 C2420 1.388 . S
C2422 C2423 1.366 . S
C2423 C2422 1.366 . S
C2423 C2424 1.414 . S
C2423 C2426 1.499 . S
C2424 H2404 0.950 . S
C2424 C2423 1.414 . S
C2424 C2425 1.374 . S
C2425 H2405 0.950 . S
C2425 C2421 1.385 . S
C2425 C2424 1.374 . S
C2426 C2423 1.499 . S
C2426 C2427 1.373 . S
C2426 C2428 1.389 . S
C2427 H2406 0.950 . S
C2427 C2426 1.373 . S
C2427 C2443 1.377 . S
C2428 C2426 1.389 . S
C2428 C2429 1.524 . S
C2428 C2442 1.377 . S
C2429 C2428 1.524 . S
C2429 C2430 1.397 . S
C2429 C2434 1.363 . S
C2430 H2407 0.950 . S
C2430 C2429 1.397 . S
C2430 C2431 1.334 . S
C2431 H2408 0.950 . S
C2431 C2430 1.334 . S
C2431 C2432 1.287 . S
C2432 C2431 1.287 . S
C2432 C2433 1.524 . S
C2432 H2451 0.913 . S
C2433 H2409 0.950 . S
C2433 C2432 1.524 . S
C2433 C2434 1.415 . S
C2434 H2410 0.950 . S
C2434 C2429 1.363 . S
C2434 C2433 1.415 . S
C2435 H2411 0.951 . S
C2435 C2436 1.366 . S
C2435 C2437 1.388 . S
C2436 C2435 1.366 . S
C2436 C2440 1.385 . S
C2437 H2412 0.951 . S
C2437 C2435 1.388 . S
C2437 C2438 1.366 . S
C2438 C2437 1.366 . S
C2438 C2439 1.414 . S
C2438 C2441 1.499 . S
C2439 H2413 0.950 . S
C2439 C2438 1.414 . S
C2439 C2440 1.374 . S
C2440 H2414 0.950 . S
C2440 C2436 1.385 . S
C2440 C2439 1.374 . S
C2441 C2438 1.499 . S
C2441 C2442 1.373 . S
C2441 C2443 1.389 . S
C2442 H2415 0.950 . S
C2442 C2428 1.377 . S
C2442 C2441 1.373 . S
C2443 C2427 1.377 . S
C2443 C2441 1.389 . S
C2443 C2444 1.524 . S
C2444 C2443 1.524 . S
C2444 C2445 1.397 . S
C2444 C2449 1.363 . S
C2445 H2416 0.950 . S
C2445 C2444 1.397 . S
C2445 C2446 1.334 . S
C2446 H2417 0.950 . S
C2446 C2445 1.334 . S
C2446 C2447 1.287 . S
C2447 C2446 1.287 . S
C2447 C2448 1.524 . S
C2447 H2450 0.999 . S
C2448 H2418 0.950 . S
C2448 C2447 1.524 . S
C2448 C2449 1.415 . S
C2449 H2419 0.950 . S
C2449 C2444 1.363 . S
C2449 C2448 1.415 . S
H2450 C2447 0.999 . S
H2451 C2432 0.913 . S
H2452 C2470 0.951 . S
H2453 C2472 0.951 . S
H2454 C2474 0.950 . S
H2455 C2475 0.950 . S
H2456 C2477 0.950 . S
H2457 C2480 0.950 . S
H2458 C2481 0.950 . S
H2459 C2483 0.950 . S
H2460 C2484 0.950 . S
H2461 C2485 0.951 . S
H2462 C2487 0.951 . S
H2463 C2489 0.950 . S
H2464 C2490 0.950 . S
H2465 C2492 0.950 . S
H2466 C2495 0.950 1_556 S
H2467 C2496 0.950 . S
H2468 C2498 0.950 . S
H2469 C2499 0.950 . S
C2470 H2452 0.951 . S
C2470 C2471 1.366 . S
C2470 C2472 1.388 . S
C2471 C2470 1.366 . S
C2471 C2475 1.385 . S
C2472 H2453 0.951 . S
C2472 C2470 1.388 . S
C2472 C2473 1.366 . S
C2473 C2472 1.366 . S
C2473 C2474 1.414 . S
C2473 C2476 1.499 . S
C2474 H2454 0.950 . S
C2474 C2473 1.414 . S
C2474 C2475 1.374 . S
C2475 H2455 0.950 . S
C2475 C2471 1.385 . S
C2475 C2474 1.374 . S
C2476 C2473 1.499 . S
C2476 C2477 1.373 . S
C2476 C2478 1.389 . S
C2477 H2456 0.950 . S
C2477 C2476 1.373 . S
C2477 C2493 1.377 . S
C2478 C2476 1.389 . S
C2478 C2479 1.524 . S
C2478 C2492 1.377 . S
C2479 C2478 1.524 . S
C2479 C2480 1.397 . S
C2479 C2484 1.363 . S
C2480 H2457 0.950 . S
C2480 C2479 1.397 . S
C2480 C2481 1.334 . S
C2481 H2458 0.950 . S
C2481 C2480 1.334 . S
C2481 C2482 1.287 . S
C2482 C2481 1.287 . S
C2482 C2483 1.524 . S
C2482 H2501 0.913 . S
C2483 H2459 0.950 . S
C2483 C2482 1.524 . S
C2483 C2484 1.415 . S
C2484 H2460 0.950 . S
C2484 C2479 1.363 . S
C2484 C2483 1.415 . S
C2485 H2461 0.951 . S
C2485 C2486 1.366 . S
C2485 C2487 1.388 . S
C2486 C2485 1.366 . S
C2486 C2490 1.385 . S
C2487 H2462 0.951 . S
C2487 C2485 1.388 . S
C2487 C2488 1.366 . S
C2488 C2487 1.366 . S
C2488 C2489 1.414 . S
C2488 C2491 1.499 . S
C2489 H2463 0.950 . S
C2489 C2488 1.414 . S
C2489 C2490 1.374 . S
C2490 H2464 0.950 . S
C2490 C2486 1.385 . S
C2490 C2489 1.374 . S
C2491 C2488 1.499 . S
C2491 C2492 1.373 . S
C2491 C2493 1.389 . S
C2492 H2465 0.950 . S
C2492 C2478 1.377 . S
C2492 C2491 1.373 . S
C2493 C2477 1.377 . S
C2493 C2491 1.389 . S
C2493 C2494 1.524 . S
C2494 C2493 1.524 . S
C2494 C2495 1.397 1_556 S
C2494 C2499 1.363 . S
C2495 H2466 0.950 1_554 S
C2495 C2494 1.397 1_554 S
C2495 C2496 1.334 . S
C2496 H2467 0.950 . S
C2496 C2495 1.334 . S
C2496 C2497 1.287 . S
C2497 C2496 1.287 . S
C2497 C2498 1.524 . S
C2497 H2500 0.999 . S
C2498 H2468 0.950 . S
C2498 C2497 1.524 . S
C2498 C2499 1.415 1_554 S
C2499 H2469 0.950 . S
C2499 C2494 1.363 . S
C2499 C2498 1.415 1_556 S
H2500 C2497 0.999 . S
H2501 C2482 0.913 . S
H2502 C2520 0.951 . S
H2503 C2522 0.951 . S
H2504 C2524 0.950 . S
H2505 C2525 0.950 . S
H2506 C2527 0.950 . S
H2507 C2530 0.950 . S
H2508 C2531 0.950 . S
H2509 C2533 0.950 . S
H2510 C2534 0.950 . S
H2511 C2535 0.951 . S
H2512 C2537 0.951 . S
H2513 C2539 0.950 . S
H2514 C2540 0.950 . S
H2515 C2542 0.950 . S
H2516 C2545 0.950 . S
H2517 C2546 0.950 . S
H2518 C2548 0.950 . S
H2519 C2549 0.950 . S
C2520 H2502 0.951 . S
C2520 C2521 1.366 . S
C2520 C2522 1.388 . S
C2521 C2520 1.366 . S
C2521 C2525 1.385 . S
C2522 H2503 0.951 . S
C2522 C2520 1.388 . S
C2522 C2523 1.366 . S
C2523 C2522 1.366 . S
C2523 C2524 1.414 . S
C2523 C2526 1.499 . S
C2524 H2504 0.950 . S
C2524 C2523 1.414 . S
C2524 C2525 1.374 . S
C2525 H2505 0.950 . S
C2525 C2521 1.385 . S
C2525 C2524 1.374 . S
C2526 C2523 1.499 . S
C2526 C2527 1.373 . S
C2526 C2528 1.389 . S
C2527 H2506 0.950 . S
C2527 C2526 1.373 . S
C2527 C2543 1.377 . S
C2528 C2526 1.389 . S
C2528 C2529 1.524 . S
C2528 C2542 1.377 . S
C2529 C2528 1.524 . S
C2529 C2530 1.397 . S
C2529 C2534 1.363 . S
C2530 H2507 0.950 . S
C2530 C2529 1.397 . S
C2530 C2531 1.334 . S
C2531 H2508 0.950 . S
C2531 C2530 1.334 . S
C2531 C2532 1.287 . S
C2532 C2531 1.287 . S
C2532 C2533 1.524 . S
C2532 H2551 0.913 . S
C2533 H2509 0.950 . S
C2533 C2532 1.524 . S
C2533 C2534 1.415 . S
C2534 H2510 0.950 . S
C2534 C2529 1.363 . S
C2534 C2533 1.415 . S
C2535 H2511 0.951 . S
C2535 C2536 1.366 . S
C2535 C2537 1.388 . S
C2536 C2535 1.366 . S
C2536 C2540 1.385 . S
C2537 H2512 0.951 . S
C2537 C2535 1.388 . S
C2537 C2538 1.366 . S
C2538 C2537 1.366 . S
C2538 C2539 1.414 . S
C2538 C2541 1.499 . S
C2539 H2513 0.950 . S
C2539 C2538 1.414 . S
C2539 C2540 1.374 . S
C2540 H2514 0.950 . S
C2540 C2536 1.385 . S
C2540 C2539 1.374 . S
C2541 C2538 1.499 . S
C2541 C2542 1.373 . S
C2541 C2543 1.389 . S
C2542 H2515 0.950 . S
C2542 C2528 1.377 . S
C2542 C2541 1.373 . S
C2543 C2527 1.377 . S
C2543 C2541 1.389 . S
C2543 C2544 1.524 . S
C2544 C2543 1.524 . S
C2544 C2545 1.397 . S
C2544 C2549 1.363 . S
C2545 H2516 0.950 . S
C2545 C2544 1.397 . S
C2545 C2546 1.334 . S
C2546 H2517 0.950 . S
C2546 C2545 1.334 . S
C2546 C2547 1.287 . S
C2547 C2546 1.287 . S
C2547 C2548 1.524 . S
C2547 H2550 0.999 . S
C2548 H2518 0.950 . S
C2548 C2547 1.524 . S
C2548 C2549 1.415 . S
C2549 H2519 0.950 . S
C2549 C2544 1.363 . S
C2549 C2548 1.415 . S
H2550 C2547 0.999 . S
H2551 C2532 0.913 . S
H2552 C2570 0.951 . S
H2553 C2572 0.951 . S
H2554 C2574 0.950 . S
H2555 C2575 0.950 . S
H2556 C2577 0.950 . S
H2557 C2580 0.950 . S
H2558 C2581 0.950 . S
H2559 C2583 0.950 . S
H2560 C2584 0.950 . S
H2561 C2585 0.951 . S
H2562 C2587 0.951 . S
H2563 C2589 0.950 . S
H2564 C2590 0.950 . S
H2565 C2592 0.950 . S
H2566 C2595 0.950 . S
H2567 C2596 0.950 . S
H2568 C2598 0.950 . S
H2569 C2599 0.950 . S
C2570 H2552 0.951 . S
C2570 C2571 1.366 . S
C2570 C2572 1.388 . S
C2571 C2570 1.366 . S
C2571 C2575 1.385 1_545 S
C2572 H2553 0.951 . S
C2572 C2570 1.388 . S
C2572 C2573 1.366 . S
C2573 C2572 1.366 . S
C2573 C2574 1.414 1_545 S
C2573 C2576 1.499 . S
C2574 H2554 0.950 . S
C2574 C2573 1.414 1_565 S
C2574 C2575 1.374 . S
C2575 H2555 0.950 . S
C2575 C2571 1.385 1_565 S
C2575 C2574 1.374 . S
C2576 C2573 1.499 . S
C2576 C2577 1.373 1_545 S
C2576 C2578 1.389 . S
C2577 H2556 0.950 . S
C2577 C2576 1.373 1_565 S
C2577 C2593 1.377 . S
C2578 C2576 1.389 . S
C2578 C2579 1.524 . S
C2578 C2592 1.377 . S
C2579 C2578 1.524 . S
C2579 C2580 1.397 . S
C2579 C2584 1.363 . S
C2580 H2557 0.950 . S
C2580 C2579 1.397 . S
C2580 C2581 1.334 . S
C2581 H2558 0.950 . S
C2581 C2580 1.334 . S
C2581 C2582 1.287 . S
C2582 C2581 1.287 . S
C2582 C2583 1.524 . S
C2582 H2601 0.913 . S
C2583 H2559 0.950 . S
C2583 C2582 1.524 . S
C2583 C2584 1.415 . S
C2584 H2560 0.950 . S
C2584 C2579 1.363 . S
C2584 C2583 1.415 . S
C2585 H2561 0.951 . S
C2585 C2586 1.366 1_565 S
C2585 C2587 1.388 . S
C2586 C2585 1.366 1_545 S
C2586 C2590 1.385 . S
C2587 H2562 0.951 . S
C2587 C2585 1.388 . S
C2587 C2588 1.366 1_565 S
C2588 C2587 1.366 1_545 S
C2588 C2589 1.414 . S
C2588 C2591 1.499 . S
C2589 H2563 0.950 . S
C2589 C2588 1.414 . S
C2589 C2590 1.374 . S
C2590 H2564 0.950 . S
C2590 C2586 1.385 . S
C2590 C2589 1.374 . S
C2591 C2588 1.499 . S
C2591 C2592 1.373 . S
C2591 C2593 1.389 1_545 S
C2592 H2565 0.950 . S
C2592 C2578 1.377 . S
C2592 C2591 1.373 . S
C2593 C2577 1.377 . S
C2593 C2591 1.389 1_565 S
C2593 C2594 1.524 . S
C2594 C2593 1.524 . S
C2594 C2595 1.397 . S
C2594 C2599 1.363 . S
C2595 H2566 0.950 . S
C2595 C2594 1.397 . S
C2595 C2596 1.334 . S
C2596 H2567 0.950 . S
C2596 C2595 1.334 . S
C2596 C2597 1.287 . S
C2597 C2596 1.287 . S
C2597 C2598 1.524 . S
C2597 H2600 0.999 . S
C2598 H2568 0.950 . S
C2598 C2597 1.524 . S
C2598 C2599 1.415 . S
C2599 H2569 0.950 . S
C2599 C2594 1.363 . S
C2599 C2598 1.415 . S
H2600 C2597 0.999 . S
H2601 C2582 0.913 . S
H2602 C2620 0.951 . S
H2603 C2622 0.951 . S
H2604 C2624 0.950 . S
H2605 C2625 0.950 . S
H2606 C2627 0.950 . S
H2607 C2630 0.950 . S
H2608 C2631 0.950 . S
H2609 C2633 0.950 . S
H2610 C2634 0.950 . S
H2611 C2635 0.951 . S
H2612 C2637 0.951 . S
H2613 C2639 0.950 . S
H2614 C2640 0.950 . S
H2615 C2642 0.950 . S
H2616 C2645 0.950 . S
H2617 C2646 0.950 . S
H2618 C2648 0.950 . S
H2619 C2649 0.950 . S
C2620 H2602 0.951 . S
C2620 C2621 1.366 . S
C2620 C2622 1.388 . S
C2621 C2620 1.366 . S
C2621 C2625 1.385 . S
C2622 H2603 0.951 . S
C2622 C2620 1.388 . S
C2622 C2623 1.366 . S
C2623 C2622 1.366 . S
C2623 C2624 1.414 . S
C2623 C2626 1.499 . S
C2624 H2604 0.950 . S
C2624 C2623 1.414 . S
C2624 C2625 1.374 . S
C2625 H2605 0.950 . S
C2625 C2621 1.385 . S
C2625 C2624 1.374 . S
C2626 C2623 1.499 . S
C2626 C2627 1.373 . S
C2626 C2628 1.389 . S
C2627 H2606 0.950 . S
C2627 C2626 1.373 . S
C2627 C2643 1.377 . S
C2628 C2626 1.389 . S
C2628 C2629 1.524 . S
C2628 C2642 1.377 . S
C2629 C2628 1.524 . S
C2629 C2630 1.397 . S
C2629 C2634 1.363 . S
C2630 H2607 0.950 . S
C2630 C2629 1.397 . S
C2630 C2631 1.334 . S
C2631 H2608 0.950 . S
C2631 C2630 1.334 . S
C2631 C2632 1.287 . S
C2632 C2631 1.287 . S
C2632 C2633 1.524 . S
C2632 H2651 0.913 . S
C2633 H2609 0.950 . S
C2633 C2632 1.524 . S
C2633 C2634 1.415 . S
C2634 H2610 0.950 . S
C2634 C2629 1.363 . S
C2634 C2633 1.415 . S
C2635 H2611 0.951 . S
C2635 C2636 1.366 . S
C2635 C2637 1.388 . S
C2636 C2635 1.366 . S
C2636 C2640 1.385 . S
C2637 H2612 0.951 . S
C2637 C2635 1.388 . S
C2637 C2638 1.366 . S
C2638 C2637 1.366 . S
C2638 C2639 1.414 . S
C2638 C2641 1.499 . S
C2639 H2613 0.950 . S
C2639 C2638 1.414 . S
C2639 C2640 1.374 . S
C2640 H2614 0.950 . S
C2640 C2636 1.385 . S
C2640 C2639 1.374 . S
C2641 C2638 1.499 . S
C2641 C2642 1.373 . S
C2641 C2643 1.389 . S
C2642 H2615 0.950 . S
C2642 C2628 1.377 . S
C2642 C2641 1.373 . S
C2643 C2627 1.377 . S
C2643 C2641 1.389 . S
C2643 C2644 1.524 . S
C2644 C2643 1.524 . S
C2644 C2645 1.397 . S
C2644 C2649 1.363 . S
C2645 H2616 0.950 . S
C2645 C2644 1.397 . S
C2645 C2646 1.334 . S
C2646 H2617 0.950 . S
C2646 C2645 1.334 . S
C2646 C2647 1.287 . S
C2647 C2646 1.287 . S
C2647 C2648 1.524 . S
C2647 H2650 0.999 . S
C2648 H2618 0.950 . S
C2648 C2647 1.524 . S
C2648 C2649 1.415 . S
C2649 H2619 0.950 . S
C2649 C2644 1.363 . S
C2649 C2648 1.415 . S
H2650 C2647 0.999 . S
H2651 C2632 0.913 . S
H2652 C2670 0.951 1_565 S
H2653 C2672 0.930 1_565 S
H2654 C2674 0.950 . S
H2655 C2675 0.950 . S
H2656 C2677 0.950 . S
H2657 C2680 0.950 . S
H2658 C2681 0.950 . S
H2659 C2683 0.950 . S
H2660 C2684 0.950 . S
H2661 C2685 0.951 . S
H2662 C2687 0.951 . S
H2663 C2689 0.950 . S
H2664 C2690 0.950 . S
H2665 C2692 0.950 . S
H2666 C2695 0.939 1_565 S
H2667 C2696 0.950 1_565 S
H2668 C2698 0.950 . S
H2669 C2699 0.950 . S
C2670 H2652 0.951 1_545 S
C2670 C2671 1.366 . S
C2670 C2672 1.388 . S
C2671 C2670 1.366 . S
C2671 C2675 1.385 . S
C2672 H2653 0.930 1_545 S
C2672 C2670 1.388 . S
C2672 C2673 1.366 . S
C2673 C2672 1.366 . S
C2673 C2674 1.414 . S
C2673 C2676 1.499 . S
C2674 H2654 0.950 . S
C2674 C2673 1.414 . S
C2674 C2675 1.374 . S
C2675 H2655 0.950 . S
C2675 C2671 1.385 . S
C2675 C2674 1.374 . S
C2676 C2673 1.499 . S
C2676 C2677 1.373 . S
C2676 C2678 1.389 . S
C2677 H2656 0.950 . S
C2677 C2676 1.373 . S
C2677 C2693 1.377 . S
C2678 C2676 1.389 . S
C2678 C2679 1.524 . S
C2678 C2692 1.377 . S
C2679 C2678 1.524 . S
C2679 C2680 1.397 . S
C2679 C2684 1.363 . S
C2680 H2657 0.950 . S
C2680 C2679 1.397 . S
C2680 C2681 1.334 . S
C2681 H2658 0.950 . S
C2681 C2680 1.334 . S
C2681 C2682 1.287 . S
C2682 C2681 1.287 . S
C2682 C2683 1.524 . S
C2682 H2701 0.913 . S
C2683 H2659 0.950 . S
C2683 C2682 1.524 . S
C2683 C2684 1.415 . S
C2684 H2660 0.950 . S
C2684 C2679 1.363 . S
C2684 C2683 1.415 . S
C2685 H2661 0.951 . S
C2685 C2686 1.366 . S
C2685 C2687 1.388 . S
C2686 C2685 1.366 . S
C2686 C2690 1.385 . S
C2687 H2662 0.951 . S
C2687 C2685 1.388 . S
C2687 C2688 1.366 . S
C2688 C2687 1.366 . S
C2688 C2689 1.414 . S
C2688 C2691 1.499 . S
C2689 H2663 0.950 . S
C2689 C2688 1.414 . S
C2689 C2690 1.374 . S
C2690 H2664 0.950 . S
C2690 C2686 1.385 . S
C2690 C2689 1.374 . S
C2691 C2688 1.499 . S
C2691 C2692 1.373 . S
C2691 C2693 1.389 . S
C2692 H2665 0.950 . S
C2692 C2678 1.377 . S
C2692 C2691 1.373 . S
C2693 C2677 1.377 . S
C2693 C2691 1.389 . S
C2693 C2694 1.524 . S
C2694 C2693 1.524 . S
C2694 C2695 1.397 . S
C2694 C2699 1.363 . S
C2695 H2666 0.939 1_545 S
C2695 C2694 1.397 . S
C2695 C2696 1.334 . S
C2696 H2667 0.950 1_545 S
C2696 C2695 1.334 . S
C2696 C2697 1.287 . S
C2697 C2696 1.287 . S
C2697 C2698 1.524 . S
C2697 H2700 0.999 . S
C2698 H2668 0.950 . S
C2698 C2697 1.524 . S
C2698 C2699 1.415 . S
C2699 H2669 0.950 . S
C2699 C2694 1.363 . S
C2699 C2698 1.415 . S
H2700 C2697 0.999 . S
H2701 C2682 0.913 . S
H2702 C2720 0.951 . S
H2703 C2722 0.951 . S
H2704 C2724 0.950 . S
H2705 C2725 0.950 . S
H2706 C2727 0.950 . S
H2707 C2730 0.950 . S
H2708 C2731 0.950 . S
H2709 C2733 0.950 . S
H2710 C2734 0.950 . S
H2711 C2735 0.951 . S
H2712 C2737 0.951 . S
H2713 C2739 0.950 . S
H2714 C2740 0.950 . S
H2715 C2742 0.950 . S
H2716 C2745 0.950 . S
H2717 C2746 0.950 . S
H2718 C2748 0.950 . S
H2719 C2749 0.950 . S
C2720 H2702 0.951 . S
C2720 C2721 1.366 . S
C2720 C2722 1.388 . S
C2721 C2720 1.366 . S
C2721 C2725 1.385 . S
C2722 H2703 0.951 . S
C2722 C2720 1.388 . S
C2722 C2723 1.366 . S
C2723 C2722 1.366 . S
C2723 C2724 1.414 . S
C2723 C2726 1.499 . S
C2724 H2704 0.950 . S
C2724 C2723 1.414 . S
C2724 C2725 1.374 . S
C2725 H2705 0.950 . S
C2725 C2721 1.385 . S
C2725 C2724 1.374 . S
C2726 C2723 1.499 . S
C2726 C2727 1.373 . S
C2726 C2728 1.389 . S
C2727 H2706 0.950 . S
C2727 C2726 1.373 . S
C2727 C2743 1.377 . S
C2728 C2726 1.389 . S
C2728 C2729 1.524 . S
C2728 C2742 1.377 . S
C2729 C2728 1.524 . S
C2729 C2730 1.397 . S
C2729 C2734 1.363 . S
C2730 H2707 0.950 . S
C2730 C2729 1.397 . S
C2730 C2731 1.334 . S
C2731 H2708 0.950 . S
C2731 C2730 1.334 . S
C2731 C2732 1.287 . S
C2732 C2731 1.287 . S
C2732 C2733 1.524 . S
C2732 H2751 0.913 . S
C2733 H2709 0.950 . S
C2733 C2732 1.524 . S
C2733 C2734 1.415 . S
C2734 H2710 0.950 . S
C2734 C2729 1.363 . S
C2734 C2733 1.415 . S
C2735 H2711 0.951 . S
C2735 C2736 1.366 . S
C2735 C2737 1.388 . S
C2736 C2735 1.366 . S
C2736 C2740 1.385 . S
C2737 H2712 0.951 . S
C2737 C2735 1.388 . S
C2737 C2738 1.366 . S
C2738 C2737 1.366 . S
C2738 C2739 1.414 . S
C2738 C2741 1.499 . S
C2739 H2713 0.950 . S
C2739 C2738 1.414 . S
C2739 C2740 1.374 . S
C2740 H2714 0.950 . S
C2740 C2736 1.385 . S
C2740 C2739 1.374 . S
C2741 C2738 1.499 . S
C2741 C2742 1.373 . S
C2741 C2743 1.389 . S
C2742 H2715 0.950 . S
C2742 C2728 1.377 . S
C2742 C2741 1.373 . S
C2743 C2727 1.377 . S
C2743 C2741 1.389 . S
C2743 C2744 1.524 . S
C2744 C2743 1.524 . S
C2744 C2745 1.397 . S
C2744 C2749 1.363 . S
C2745 H2716 0.950 . S
C2745 C2744 1.397 . S
C2745 C2746 1.334 . S
C2746 H2717 0.950 . S
C2746 C2745 1.334 . S
C2746 C2747 1.287 . S
C2747 C2746 1.287 . S
C2747 C2748 1.524 . S
C2747 H2750 0.999 . S
C2748 H2718 0.950 . S
C2748 C2747 1.524 . S
C2748 C2749 1.415 . S
C2749 H2719 0.950 . S
C2749 C2744 1.363 . S
C2749 C2748 1.415 . S
H2750 C2747 0.999 . S
H2751 C2732 0.913 . S
H2752 C2770 0.951 . S
H2753 C2772 0.951 . S
H2754 C2774 0.950 . S
H2755 C2775 0.950 . S
H2756 C2777 0.950 . S
H2757 C2780 0.950 . S
H2758 C2781 0.950 . S
H2759 C2783 0.950 . S
H2760 C2784 0.950 . S
H2761 C2785 0.951 1_565 S
H2762 C2787 0.951 1_565 S
H2763 C2789 0.950 . S
H2764 C2790 0.950 . S
H2765 C2792 0.950 . S
H2766 C2795 0.950 1_545 S
H2767 C2796 0.950 . S
H2768 C2798 0.950 . S
H2769 C2799 0.950 . S
C2770 H2752 0.951 . S
C2770 C2771 1.366 1_545 S
C2770 C2772 1.388 . S
C2771 C2770 1.366 1_565 S
C2771 C2775 1.385 . S
C2772 H2753 0.951 . S
C2772 C2770 1.388 . S
C2772 C2773 1.366 . S
C2773 C2772 1.366 . S
C2773 C2774 1.414 1_545 S
C2773 C2776 1.499 . S
C2774 H2754 0.950 . S
C2774 C2773 1.414 1_565 S
C2774 C2775 1.374 . S
C2775 H2755 0.950 . S
C2775 C2771 1.385 . S
C2775 C2774 1.374 . S
C2776 C2773 1.499 . S
C2776 C2777 1.373 1_545 S
C2776 C2778 1.389 . S
C2777 H2756 0.950 . S
C2777 C2776 1.373 1_565 S
C2777 C2793 1.377 . S
C2778 C2776 1.389 . S
C2778 C2779 1.524 . S
C2778 C2792 1.377 . S
C2779 C2778 1.524 . S
C2779 C2780 1.397 . S
C2779 C2784 1.363 . S
C2780 H2757 0.950 . S
C2780 C2779 1.397 . S
C2780 C2781 1.334 . S
C2781 H2758 0.950 . S
C2781 C2780 1.334 . S
C2781 C2782 1.287 . S
C2782 C2781 1.287 . S
C2782 C2783 1.524 . S
C2782 H2801 0.913 . S
C2783 H2759 0.950 . S
C2783 C2782 1.524 . S
C2783 C2784 1.415 . S
C2784 H2760 0.950 . S
C2784 C2779 1.363 . S
C2784 C2783 1.415 . S
C2785 H2761 0.951 1_545 S
C2785 C2786 1.366 . S
C2785 C2787 1.388 . S
C2786 C2785 1.366 . S
C2786 C2790 1.385 . S
C2787 H2762 0.951 1_545 S
C2787 C2785 1.388 . S
C2787 C2788 1.366 . S
C2788 C2787 1.366 . S
C2788 C2789 1.414 . S
C2788 C2791 1.499 . S
C2789 H2763 0.950 . S
C2789 C2788 1.414 . S
C2789 C2790 1.374 . S
C2790 H2764 0.950 . S
C2790 C2786 1.385 . S
C2790 C2789 1.374 . S
C2791 C2788 1.499 . S
C2791 C2792 1.373 . S
C2791 C2793 1.389 1_545 S
C2792 H2765 0.950 . S
C2792 C2778 1.377 . S
C2792 C2791 1.373 . S
C2793 C2777 1.377 . S
C2793 C2791 1.389 1_565 S
C2793 C2794 1.524 . S
C2794 C2793 1.524 . S
C2794 C2795 1.397 . S
C2794 C2799 1.363 . S
C2795 H2766 0.950 1_565 S
C2795 C2794 1.397 . S
C2795 C2796 1.334 . S
C2796 H2767 0.950 . S
C2796 C2795 1.334 . S
C2796 C2797 1.287 . S
C2797 C2796 1.287 . S
C2797 C2798 1.524 . S
C2797 H2800 0.999 . S
C2798 H2768 0.950 . S
C2798 C2797 1.524 . S
C2798 C2799 1.415 . S
C2799 H2769 0.950 . S
C2799 C2794 1.363 . S
C2799 C2798 1.415 . S
H2800 C2797 0.999 . S
H2801 C2782 0.913 . S
H2802 C2820 0.951 . S
H2803 C2822 0.951 . S
H2804 C2824 0.950 . S
H2805 C2825 0.950 . S
H2806 C2827 0.950 . S
H2807 C2830 0.950 . S
H2808 C2831 0.950 . S
H2809 C2833 0.950 . S
H2810 C2834 0.950 . S
H2811 C2835 0.951 . S
H2812 C2837 0.951 . S
H2813 C2839 0.950 . S
H2814 C2840 0.950 . S
H2815 C2842 0.950 . S
H2816 C2845 0.950 . S
H2817 C2846 0.950 . S
H2818 C2848 0.950 . S
H2819 C2849 0.950 . S
C2820 H2802 0.951 . S
C2820 C2821 1.366 . S
C2820 C2822 1.388 . S
C2821 C2820 1.366 . S
C2821 C2825 1.385 . S
C2822 H2803 0.951 . S
C2822 C2820 1.388 . S
C2822 C2823 1.366 . S
C2823 C2822 1.366 . S
C2823 C2824 1.414 . S
C2823 C2826 1.499 . S
C2824 H2804 0.950 . S
C2824 C2823 1.414 . S
C2824 C2825 1.374 . S
C2825 H2805 0.950 . S
C2825 C2821 1.385 . S
C2825 C2824 1.374 . S
C2826 C2823 1.499 . S
C2826 C2827 1.373 . S
C2826 C2828 1.389 . S
C2827 H2806 0.950 . S
C2827 C2826 1.373 . S
C2827 C2843 1.377 . S
C2828 C2826 1.389 . S
C2828 C2829 1.524 . S
C2828 C2842 1.377 . S
C2829 C2828 1.524 . S
C2829 C2830 1.397 . S
C2829 C2834 1.363 . S
C2830 H2807 0.950 . S
C2830 C2829 1.397 . S
C2830 C2831 1.334 . S
C2831 H2808 0.950 . S
C2831 C2830 1.334 . S
C2831 C2832 1.287 . S
C2832 C2831 1.287 . S
C2832 C2833 1.524 . S
C2832 H2851 0.913 . S
C2833 H2809 0.950 . S
C2833 C2832 1.524 . S
C2833 C2834 1.415 . S
C2834 H2810 0.950 . S
C2834 C2829 1.363 . S
C2834 C2833 1.415 . S
C2835 H2811 0.951 . S
C2835 C2836 1.366 . S
C2835 C2837 1.388 . S
C2836 C2835 1.366 . S
C2836 C2840 1.385 . S
C2837 H2812 0.951 . S
C2837 C2835 1.388 . S
C2837 C2838 1.366 . S
C2838 C2837 1.366 . S
C2838 C2839 1.414 . S
C2838 C2841 1.499 . S
C2839 H2813 0.950 . S
C2839 C2838 1.414 . S
C2839 C2840 1.374 . S
C2840 H2814 0.950 . S
C2840 C2836 1.385 . S
C2840 C2839 1.374 . S
C2841 C2838 1.499 . S
C2841 C2842 1.373 . S
C2841 C2843 1.389 . S
C2842 H2815 0.950 . S
C2842 C2828 1.377 . S
C2842 C2841 1.373 . S
C2843 C2827 1.377 . S
C2843 C2841 1.389 . S
C2843 C2844 1.524 . S
C2844 C2843 1.524 . S
C2844 C2845 1.397 . S
C2844 C2849 1.363 . S
C2845 H2816 0.950 . S
C2845 C2844 1.397 . S
C2845 C2846 1.334 . S
C2846 H2817 0.950 . S
C2846 C2845 1.334 . S
C2846 C2847 1.287 . S
C2847 C2846 1.287 . S
C2847 C2848 1.524 . S
C2847 H2850 0.999 . S
C2848 H2818 0.950 . S
C2848 C2847 1.524 . S
C2848 C2849 1.415 . S
C2849 H2819 0.950 . S
C2849 C2844 1.363 . S
C2849 C2848 1.415 . S
H2850 C2847 0.999 . S
H2851 C2832 0.913 . S
H2852 C2870 0.951 . S
H2853 C2872 0.951 . S
H2854 C2874 0.950 . S
H2855 C2875 0.950 . S
H2856 C2877 0.950 . S
H2857 C2880 0.950 . S
H2858 C2881 0.950 . S
H2859 C2883 0.950 . S
H2860 C2884 0.950 . S
H2861 C2885 0.951 . S
H2862 C2887 0.951 . S
H2863 C2889 0.950 . S
H2864 C2890 0.950 . S
H2865 C2892 0.950 . S
H2866 C2895 0.950 . S
H2867 C2896 0.950 . S
H2868 C2898 0.950 . S
H2869 C2899 0.950 . S
C2870 H2852 0.951 . S
C2870 C2871 1.366 . S
C2870 C2872 1.388 . S
C2871 C2870 1.366 . S
C2871 C2875 1.385 1_545 S
C2872 H2853 0.951 . S
C2872 C2870 1.388 . S
C2872 C2873 1.366 . S
C2873 C2872 1.366 . S
C2873 C2874 1.414 1_545 S
C2873 C2876 1.499 . S
C2874 H2854 0.950 . S
C2874 C2873 1.414 1_565 S
C2874 C2875 1.374 . S
C2875 H2855 0.950 . S
C2875 C2871 1.385 1_565 S
C2875 C2874 1.374 . S
C2876 C2873 1.499 . S
C2876 C2877 1.373 1_545 S
C2876 C2878 1.389 . S
C2877 H2856 0.950 . S
C2877 C2876 1.373 1_565 S
C2877 C2893 1.377 . S
C2878 C2876 1.389 . S
C2878 C2879 1.524 . S
C2878 C2892 1.377 . S
C2879 C2878 1.524 . S
C2879 C2880 1.397 . S
C2879 C2884 1.363 . S
C2880 H2857 0.950 . S
C2880 C2879 1.397 . S
C2880 C2881 1.334 . S
C2881 H2858 0.950 . S
C2881 C2880 1.334 . S
C2881 C2882 1.287 . S
C2882 C2881 1.287 . S
C2882 C2883 1.524 . S
C2882 H2901 0.913 . S
C2883 H2859 0.950 . S
C2883 C2882 1.524 . S
C2883 C2884 1.415 . S
C2884 H2860 0.950 . S
C2884 C2879 1.363 . S
C2884 C2883 1.415 . S
C2885 H2861 0.951 . S
C2885 C2886 1.366 . S
C2885 C2887 1.388 . S
C2886 C2885 1.366 . S
C2886 C2890 1.385 1_565 S
C2887 H2862 0.951 . S
C2887 C2885 1.388 . S
C2887 C2888 1.366 . S
C2888 C2887 1.366 . S
C2888 C2889 1.414 1_565 S
C2888 C2891 1.499 . S
C2889 H2863 0.950 . S
C2889 C2888 1.414 1_545 S
C2889 C2890 1.374 . S
C2890 H2864 0.950 . S
C2890 C2886 1.385 1_545 S
C2890 C2889 1.374 . S
C2891 C2888 1.499 . S
C2891 C2892 1.373 1_565 S
C2891 C2893 1.389 . S
C2892 H2865 0.950 . S
C2892 C2878 1.377 . S
C2892 C2891 1.373 1_545 S
C2893 C2877 1.377 . S
C2893 C2891 1.389 . S
C2893 C2894 1.524 . S
C2894 C2893 1.524 . S
C2894 C2895 1.397 . S
C2894 C2899 1.363 . S
C2895 H2866 0.950 . S
C2895 C2894 1.397 . S
C2895 C2896 1.334 . S
C2896 H2867 0.950 . S
C2896 C2895 1.334 . S
C2896 C2897 1.287 . S
C2897 C2896 1.287 . S
C2897 C2898 1.524 . S
C2897 H2900 0.999 . S
C2898 H2868 0.950 . S
C2898 C2897 1.524 . S
C2898 C2899 1.415 . S
C2899 H2869 0.950 . S
C2899 C2894 1.363 . S
C2899 C2898 1.415 . S
H2900 C2897 0.999 . S
H2901 C2882 0.913 . S
H2902 C2920 0.951 . S
H2903 C2922 0.951 . S
H2904 C2924 0.950 . S
H2905 C2925 0.950 . S
H2906 C2927 0.950 . S
H2907 C2930 0.950 . S
H2908 C2931 0.950 . S
H2909 C2933 0.950 . S
H2910 C2934 0.950 . S
H2911 C2935 0.951 . S
H2912 C2937 0.951 . S
H2913 C2939 0.950 . S
H2914 C2940 0.950 . S
H2915 C2942 0.950 . S
H2916 C2945 0.950 . S
H2917 C2946 0.950 . S
H2918 C2948 0.950 . S
H2919 C2949 0.950 . S
C2920 H2902 0.951 . S
C2920 C2921 1.366 . S
C2920 C2922 1.388 . S
C2921 C2920 1.366 . S
C2921 C2925 1.385 . S
C2922 H2903 0.951 . S
C2922 C2920 1.388 . S
C2922 C2923 1.366 . S
C2923 C2922 1.366 . S
C2923 C2924 1.414 . S
C2923 C2926 1.499 . S
C2924 H2904 0.950 . S
C2924 C2923 1.414 . S
C2924 C2925 1.374 . S
C2925 H2905 0.950 . S
C2925 C2921 1.385 . S
C2925 C2924 1.374 . S
C2926 C2923 1.499 . S
C2926 C2927 1.373 . S
C2926 C2928 1.389 . S
C2927 H2906 0.950 . S
C2927 C2926 1.373 . S
C2927 C2943 1.377 . S
C2928 C2926 1.389 . S
C2928 C2929 1.524 . S
C2928 C2942 1.377 . S
C2929 C2928 1.524 . S
C2929 C2930 1.397 . S
C2929 C2934 1.363 . S
C2930 H2907 0.950 . S
C2930 C2929 1.397 . S
C2930 C2931 1.334 . S
C2931 H2908 0.950 . S
C2931 C2930 1.334 . S
C2931 C2932 1.287 . S
C2932 C2931 1.287 . S
C2932 C2933 1.524 . S
C2932 H2951 0.913 . S
C2933 H2909 0.950 . S
C2933 C2932 1.524 . S
C2933 C2934 1.415 . S
C2934 H2910 0.950 . S
C2934 C2929 1.363 . S
C2934 C2933 1.415 . S
C2935 H2911 0.951 . S
C2935 C2936 1.366 . S
C2935 C2937 1.388 . S
C2936 C2935 1.366 . S
C2936 C2940 1.385 . S
C2937 H2912 0.951 . S
C2937 C2935 1.388 . S
C2937 C2938 1.366 . S
C2938 C2937 1.366 . S
C2938 C2939 1.414 . S
C2938 C2941 1.499 . S
C2939 H2913 0.950 . S
C2939 C2938 1.414 . S
C2939 C2940 1.374 . S
C2940 H2914 0.950 . S
C2940 C2936 1.385 . S
C2940 C2939 1.374 . S
C2941 C2938 1.499 . S
C2941 C2942 1.373 . S
C2941 C2943 1.389 . S
C2942 H2915 0.950 . S
C2942 C2928 1.377 . S
C2942 C2941 1.373 . S
C2943 C2927 1.377 . S
C2943 C2941 1.389 . S
C2943 C2944 1.524 . S
C2944 C2943 1.524 . S
C2944 C2945 1.397 . S
C2944 C2949 1.363 . S
C2945 H2916 0.950 . S
C2945 C2944 1.397 . S
C2945 C2946 1.334 . S
C2946 H2917 0.950 . S
C2946 C2945 1.334 . S
C2946 C2947 1.287 . S
C2947 C2946 1.287 . S
C2947 C2948 1.524 . S
C2947 H2950 0.999 . S
C2948 H2918 0.950 . S
C2948 C2947 1.524 . S
C2948 C2949 1.415 . S
C2949 H2919 0.950 . S
C2949 C2944 1.363 . S
C2949 C2948 1.415 . S
H2950 C2947 0.999 . S
H2951 C2932 0.913 . S
H2952 C2970 0.951 . S
H2953 C2972 0.951 . S
H2954 C2974 0.950 . S
H2955 C2975 0.950 . S
H2956 C2977 0.950 . S
H2957 C2980 0.950 . S
H2958 C2981 0.950 . S
H2959 C2983 0.950 . S
H2960 C2984 0.950 . S
H2961 C2985 0.951 . S
H2962 C2987 0.951 . S
H2963 C2989 0.950 . S
H2964 C2990 0.950 . S
H2965 C2992 0.950 . S
H2966 C2995 0.950 . S
H2967 C2996 0.950 . S
H2968 C2998 0.950 . S
H2969 C2999 0.950 . S
C2970 H2952 0.951 . S
C2970 C2971 1.366 . S
C2970 C2972 1.388 . S
C2971 C2970 1.366 . S
C2971 C2975 1.384 1_554 S
C2972 H2953 0.951 . S
C2972 C2970 1.388 . S
C2972 C2973 1.366 1_554 S
C2973 C2972 1.366 1_556 S
C2973 C2974 1.414 . S
C2973 C2976 1.499 . S
C2974 H2954 0.950 . S
C2974 C2973 1.414 . S
C2974 C2975 1.374 . S
C2975 H2955 0.950 . S
C2975 C2971 1.384 1_556 S
C2975 C2974 1.374 . S
C2976 C2973 1.499 . S
C2976 C2977 1.373 1_556 S
C2976 C2978 1.389 . S
C2977 H2956 0.950 . S
C2977 C2976 1.373 1_554 S
C2977 C2993 1.373 1_554 S
C2978 C2976 1.389 . S
C2978 C2979 1.524 . S
C2978 C2992 1.377 . S
C2979 C2978 1.524 . S
C2979 C2980 1.397 . S
C2979 C2984 1.363 . S
C2980 H2957 0.950 . S
C2980 C2979 1.397 . S
C2980 C2981 1.334 . S
C2981 H2958 0.950 . S
C2981 C2980 1.334 . S
C2981 C2982 1.287 . S
C2982 C2981 1.287 . S
C2982 C2983 1.524 . S
C2982 H3001 0.913 . S
C2983 H2959 0.950 . S
C2983 C2982 1.524 . S
C2983 C2984 1.415 . S
C2984 H2960 0.950 . S
C2984 C2979 1.363 . S
C2984 C2983 1.415 . S
C2985 H2961 0.951 . S
C2985 C2986 1.366 . S
C2985 C2987 1.388 . S
C2986 C2985 1.366 . S
C2986 C2990 1.385 . S
C2987 H2962 0.951 . S
C2987 C2985 1.388 . S
C2987 C2988 1.366 . S
C2988 C2987 1.366 . S
C2988 C2989 1.414 . S
C2988 C2991 1.499 . S
C2989 H2963 0.950 . S
C2989 C2988 1.414 . S
C2989 C2990 1.374 . S
C2990 H2964 0.950 . S
C2990 C2986 1.385 . S
C2990 C2989 1.374 . S
C2991 C2988 1.499 . S
C2991 C2992 1.373 . S
C2991 C2993 1.407 . S
C2992 H2965 0.950 . S
C2992 C2978 1.377 . S
C2992 C2991 1.373 . S
C2993 C2977 1.373 1_556 S
C2993 C2991 1.407 . S
C2993 C2994 1.508 1_556 S
C2994 C2993 1.508 1_554 S
C2994 C2995 1.397 . S
C2994 C2999 1.363 . S
C2995 H2966 0.950 . S
C2995 C2994 1.397 . S
C2995 C2996 1.334 . S
C2996 H2967 0.950 . S
C2996 C2995 1.334 . S
C2996 C2997 1.287 . S
C2997 C2996 1.287 . S
C2997 C2998 1.524 . S
C2997 H3000 0.999 . S
C2998 H2968 0.950 . S
C2998 C2997 1.524 . S
C2998 C2999 1.415 . S
C2999 H2969 0.950 . S
C2999 C2994 1.363 . S
C2999 C2998 1.415 . S
H3000 C2997 0.999 . S
H3001 C2982 0.913 . S
H3002 C3020 0.930 1_556 S
H3003 C3022 0.951 1_556 S
H3004 C3024 0.950 . S
H3005 C3025 0.950 . S
H3006 C3027 0.950 . S
H3007 C3030 0.950 1_554 S
H3008 C3031 0.950 . S
H3009 C3033 0.950 . S
H3010 C3034 0.950 . S
H3011 C3035 0.951 . S
H3012 C3037 0.951 . S
H3013 C3039 0.950 1_556 S
H3014 C3040 0.950 1_556 S
H3015 C3042 0.950 1_556 S
H3016 C3045 0.950 . S
H3017 C3046 0.950 . S
H3018 C3048 0.950 . S
H3019 C3049 0.950 . S
C3020 H3002 0.930 1_554 S
C3020 C3021 1.366 . S
C3020 C3022 1.388 . S
C3021 C3020 1.366 . S
C3021 C3025 1.385 . S
C3022 H3003 0.951 1_554 S
C3022 C3020 1.388 . S
C3022 C3023 1.366 . S
C3023 C3022 1.366 . S
C3023 C3024 1.414 . S
C3023 C3026 1.499 . S
C3024 H3004 0.950 . S
C3024 C3023 1.414 . S
C3024 C3025 1.374 . S
C3025 H3005 0.950 . S
C3025 C3021 1.385 . S
C3025 C3024 1.374 . S
C3026 C3023 1.499 . S
C3026 C3027 1.373 . S
C3026 C3028 1.389 . S
C3027 H3006 0.950 . S
C3027 C3026 1.373 . S
C3027 C3043 1.377 . S
C3028 C3026 1.389 . S
C3028 C3029 1.524 1_554 S
C3028 C3042 1.377 . S
C3029 C3028 1.524 1_556 S
C3029 C3030 1.397 . S
C3029 C3034 1.363 . S
C3030 H3007 0.950 1_556 S
C3030 C3029 1.397 . S
C3030 C3031 1.334 . S
C3031 H3008 0.950 . S
C3031 C3030 1.334 . S
C3031 C3032 1.287 . S
C3032 C3031 1.287 . S
C3032 C3033 1.524 . S
C3032 H3051 0.913 . S
C3033 H3009 0.950 . S
C3033 C3032 1.524 . S
C3033 C3034 1.415 . S
C3034 H3010 0.950 . S
C3034 C3029 1.363 . S
C3034 C3033 1.415 . S
C3035 H3011 0.951 . S
C3035 C3036 1.366 . S
C3035 C3037 1.388 . S
C3036 C3035 1.366 . S
C3036 C3040 1.385 . S
C3037 H3012 0.951 . S
C3037 C3035 1.388 . S
C3037 C3038 1.366 . S
C3038 C3037 1.366 . S
C3038 C3039 1.414 . S
C3038 C3041 1.499 . S
C3039 H3013 0.950 1_554 S
C3039 C3038 1.414 . S
C3039 C3040 1.374 . S
C3040 H3014 0.950 1_554 S
C3040 C3036 1.385 . S
C3040 C3039 1.374 . S
C3041 C3038 1.499 . S
C3041 C3042 1.373 . S
C3041 C3043 1.389 . S
C3042 H3015 0.950 1_554 S
C3042 C3028 1.377 . S
C3042 C3041 1.373 . S
C3043 C3027 1.377 . S
C3043 C3041 1.389 . S
C3043 C3044 1.524 . S
C3044 C3043 1.524 . S
C3044 C3045 1.397 . S
C3044 C3049 1.363 . S
C3045 H3016 0.950 . S
C3045 C3044 1.397 . S
C3045 C3046 1.334 . S
C3046 H3017 0.950 . S
C3046 C3045 1.334 . S
C3046 C3047 1.287 . S
C3047 C3046 1.287 . S
C3047 C3048 1.524 . S
C3047 H3050 0.999 . S
C3048 H3018 0.950 . S
C3048 C3047 1.524 . S
C3048 C3049 1.415 . S
C3049 H3019 0.950 . S
C3049 C3044 1.363 . S
C3049 C3048 1.415 . S
H3050 C3047 0.999 . S
H3051 C3032 0.913 . S
H3052 C3070 0.951 . S
H3053 C3072 0.951 . S
H3054 C3074 0.950 . S
H3055 C3075 0.950 . S
H3056 C3077 0.950 . S
H3057 C3080 0.950 . S
H3058 C3081 0.950 . S
H3059 C3083 0.950 . S
H3060 C3084 0.950 . S
H3061 C3085 0.951 . S
H3062 C3087 0.951 . S
H3063 C3089 0.950 . S
H3064 C3090 0.950 . S
H3065 C3092 0.950 . S
H3066 C3095 0.950 . S
H3067 C3096 0.950 . S
H3068 C3098 0.950 . S
H3069 C3099 0.950 . S
C3070 H3052 0.951 . S
C3070 C3071 1.366 . S
C3070 C3072 1.388 . S
C3071 C3070 1.366 . S
C3071 C3075 1.385 . S
C3072 H3053 0.951 . S
C3072 C3070 1.388 . S
C3072 C3073 1.366 . S
C3073 C3072 1.366 . S
C3073 C3074 1.414 . S
C3073 C3076 1.499 . S
C3074 H3054 0.950 . S
C3074 C3073 1.414 . S
C3074 C3075 1.374 . S
C3075 H3055 0.950 . S
C3075 C3071 1.385 . S
C3075 C3074 1.374 . S
C3076 C3073 1.499 . S
C3076 C3077 1.373 . S
C3076 C3078 1.389 . S
C3077 H3056 0.950 . S
C3077 C3076 1.373 . S
C3077 C3093 1.377 . S
C3078 C3076 1.389 . S
C3078 C3079 1.524 . S
C3078 C3092 1.377 . S
C3079 C3078 1.524 . S
C3079 C3080 1.397 . S
C3079 C3084 1.363 . S
C3080 H3057 0.950 . S
C3080 C3079 1.397 . S
C3080 C3081 1.334 . S
C3081 H3058 0.950 . S
C3081 C3080 1.334 . S
C3081 C3082 1.287 . S
C3082 C3081 1.287 . S
C3082 C3083 1.524 . S
C3082 H3101 0.913 . S
C3083 H3059 0.950 . S
C3083 C3082 1.524 . S
C3083 C3084 1.415 . S
C3084 H3060 0.950 . S
C3084 C3079 1.363 . S
C3084 C3083 1.415 . S
C3085 H3061 0.951 . S
C3085 C3086 1.366 . S
C3085 C3087 1.388 . S
C3086 C3085 1.366 . S
C3086 C3090 1.385 . S
C3087 H3062 0.951 . S
C3087 C3085 1.388 . S
C3087 C3088 1.366 . S
C3088 C3087 1.366 . S
C3088 C3089 1.414 . S
C3088 C3091 1.499 . S
C3089 H3063 0.950 . S
C3089 C3088 1.414 . S
C3089 C3090 1.374 . S
C3090 H3064 0.950 . S
C3090 C3086 1.385 . S
C3090 C3089 1.374 . S
C3091 C3088 1.499 . S
C3091 C3092 1.373 . S
C3091 C3093 1.389 . S
C3092 H3065 0.950 . S
C3092 C3078 1.377 . S
C3092 C3091 1.373 . S
C3093 C3077 1.377 . S
C3093 C3091 1.389 . S
C3093 C3094 1.524 . S
C3094 C3093 1.524 . S
C3094 C3095 1.397 . S
C3094 C3099 1.363 . S
C3095 H3066 0.950 . S
C3095 C3094 1.397 . S
C3095 C3096 1.334 . S
C3096 H3067 0.950 . S
C3096 C3095 1.334 . S
C3096 C3097 1.287 . S
C3097 C3096 1.287 . S
C3097 C3098 1.524 . S
C3097 H3100 0.999 . S
C3098 H3068 0.950 . S
C3098 C3097 1.524 . S
C3098 C3099 1.415 . S
C3099 H3069 0.950 . S
C3099 C3094 1.363 . S
C3099 C3098 1.415 . S
H3100 C3097 0.999 . S
H3101 C3082 0.913 . S
H3102 C3120 0.951 . S
H3103 C3122 0.951 . S
H3104 C3124 0.950 . S
H3105 C3125 0.950 . S
H3106 C3127 0.950 . S
H3107 C3130 0.950 . S
H3108 C3131 0.950 . S
H3109 C3133 0.950 . S
H3110 C3134 0.950 . S
H3111 C3135 0.951 . S
H3112 C3137 0.951 . S
H3113 C3139 0.950 . S
H3114 C3140 0.950 . S
H3115 C3142 0.950 . S
H3116 C3145 0.950 . S
H3117 C3146 0.950 . S
H3118 C3148 0.950 . S
H3119 C3149 0.950 . S
C3120 H3102 0.951 . S
C3120 C3121 1.366 . S
C3120 C3122 1.388 . S
C3121 C3120 1.366 . S
C3121 C3125 1.385 . S
C3122 H3103 0.951 . S
C3122 C3120 1.388 . S
C3122 C3123 1.366 . S
C3123 C3122 1.366 . S
C3123 C3124 1.414 . S
C3123 C3126 1.499 . S
C3124 H3104 0.950 . S
C3124 C3123 1.414 . S
C3124 C3125 1.374 . S
C3125 H3105 0.950 . S
C3125 C3121 1.385 . S
C3125 C3124 1.374 . S
C3126 C3123 1.499 . S
C3126 C3127 1.373 . S
C3126 C3128 1.389 . S
C3127 H3106 0.950 . S
C3127 C3126 1.373 . S
C3127 C3143 1.377 . S
C3128 C3126 1.389 . S
C3128 C3129 1.524 . S
C3128 C3142 1.377 . S
C3129 C3128 1.524 . S
C3129 C3130 1.397 . S
C3129 C3134 1.363 . S
C3130 H3107 0.950 . S
C3130 C3129 1.397 . S
C3130 C3131 1.334 . S
C3131 H3108 0.950 . S
C3131 C3130 1.334 . S
C3131 C3132 1.287 . S
C3132 C3131 1.287 . S
C3132 C3133 1.524 . S
C3132 H3151 0.913 . S
C3133 H3109 0.950 . S
C3133 C3132 1.524 . S
C3133 C3134 1.415 . S
C3134 H3110 0.950 . S
C3134 C3129 1.363 . S
C3134 C3133 1.415 . S
C3135 H3111 0.951 . S
C3135 C3136 1.366 . S
C3135 C3137 1.388 . S
C3136 C3135 1.366 . S
C3136 C3140 1.385 . S
C3137 H3112 0.951 . S
C3137 C3135 1.388 . S
C3137 C3138 1.366 . S
C3138 C3137 1.366 . S
C3138 C3139 1.414 . S
C3138 C3141 1.499 . S
C3139 H3113 0.950 . S
C3139 C3138 1.414 . S
C3139 C3140 1.374 . S
C3140 H3114 0.950 . S
C3140 C3136 1.385 . S
C3140 C3139 1.374 . S
C3141 C3138 1.499 . S
C3141 C3142 1.373 . S
C3141 C3143 1.389 . S
C3142 H3115 0.950 . S
C3142 C3128 1.377 . S
C3142 C3141 1.373 . S
C3143 C3127 1.377 . S
C3143 C3141 1.389 . S
C3143 C3144 1.524 . S
C3144 C3143 1.524 . S
C3144 C3145 1.397 . S
C3144 C3149 1.363 . S
C3145 H3116 0.950 . S
C3145 C3144 1.397 . S
C3145 C3146 1.334 . S
C3146 H3117 0.950 . S
C3146 C3145 1.334 . S
C3146 C3147 1.287 . S
C3147 C3146 1.287 . S
C3147 C3148 1.524 . S
C3147 H3150 0.999 . S
C3148 H3118 0.950 . S
C3148 C3147 1.524 . S
C3148 C3149 1.415 . S
C3149 H3119 0.950 . S
C3149 C3144 1.363 . S
C3149 C3148 1.415 . S
H3150 C3147 0.999 . S
H3151 C3132 0.913 . S
H3152 C3170 0.951 . S
H3153 C3172 0.951 . S
H3154 C3174 0.950 . S
H3155 C3175 0.950 . S
H3156 C3177 0.950 . S
H3157 C3180 0.950 . S
H3158 C3181 0.950 . S
H3159 C3183 0.950 . S
H3160 C3184 0.950 . S
H3161 C3185 0.951 . S
H3162 C3187 0.951 . S
H3163 C3189 0.950 . S
H3164 C3190 0.950 . S
H3165 C3192 0.950 . S
H3166 C3195 0.950 . S
H3167 C3196 0.950 . S
H3168 C3198 0.950 . S
H3169 C3199 0.950 . S
C3170 H3152 0.951 . S
C3170 C3171 1.366 1_565 S
C3170 C3172 1.388 . S
C3171 C3170 1.366 1_545 S
C3171 C3175 1.385 . S
C3172 H3153 0.951 . S
C3172 C3170 1.388 . S
C3172 C3173 1.366 . S
C3173 C3172 1.366 . S
C3173 C3174 1.414 1_565 S
C3173 C3176 1.499 . S
C3174 H3154 0.950 . S
C3174 C3173 1.414 1_545 S
C3174 C3175 1.374 . S
C3175 H3155 0.950 . S
C3175 C3171 1.385 . S
C3175 C3174 1.374 . S
C3176 C3173 1.499 . S
C3176 C3177 1.373 . S
C3176 C3178 1.389 . S
C3177 H3156 0.950 . S
C3177 C3176 1.373 . S
C3177 C3193 1.377 . S
C3178 C3176 1.389 . S
C3178 C3179 1.524 . S
C3178 C3192 1.377 . S
C3179 C3178 1.524 . S
C3179 C3180 1.397 . S
C3179 C3184 1.363 . S
C3180 H3157 0.950 . S
C3180 C3179 1.397 . S
C3180 C3181 1.334 . S
C3181 H3158 0.950 . S
C3181 C3180 1.334 . S
C3181 C3182 1.287 . S
C3182 C3181 1.287 . S
C3182 C3183 1.524 . S
C3182 H3201 0.913 . S
C3183 H3159 0.950 . S
C3183 C3182 1.524 . S
C3183 C3184 1.415 . S
C3184 H3160 0.950 . S
C3184 C3179 1.363 . S
C3184 C3183 1.415 . S
C3185 H3161 0.951 . S
C3185 C3186 1.366 . S
C3185 C3187 1.388 . S
C3186 C3185 1.366 . S
C3186 C3190 1.385 . S
C3187 H3162 0.951 . S
C3187 C3185 1.388 . S
C3187 C3188 1.366 . S
C3188 C3187 1.366 . S
C3188 C3189 1.414 . S
C3188 C3191 1.499 . S
C3189 H3163 0.950 . S
C3189 C3188 1.414 . S
C3189 C3190 1.374 . S
C3190 H3164 0.950 . S
C3190 C3186 1.385 . S
C3190 C3189 1.374 . S
C3191 C3188 1.499 . S
C3191 C3192 1.373 . S
C3191 C3193 1.389 . S
C3192 H3165 0.950 . S
C3192 C3178 1.377 . S
C3192 C3191 1.373 . S
C3193 C3177 1.377 . S
C3193 C3191 1.389 . S
C3193 C3194 1.524 . S
C3194 C3193 1.524 . S
C3194 C3195 1.397 . S
C3194 C3199 1.363 . S
C3195 H3166 0.950 . S
C3195 C3194 1.397 . S
C3195 C3196 1.334 . S
C3196 H3167 0.950 . S
C3196 C3195 1.334 . S
C3196 C3197 1.287 . S
C3197 C3196 1.287 . S
C3197 C3198 1.524 . S
C3197 H3200 0.999 . S
C3198 H3168 0.950 . S
C3198 C3197 1.524 . S
C3198 C3199 1.415 . S
C3199 H3169 0.950 . S
C3199 C3194 1.363 . S
C3199 C3198 1.415 . S
H3200 C3197 0.999 . S
H3201 C3182 0.913 . S
H3202 C3220 0.951 . S
H3203 C3222 0.951 . S
H3204 C3224 0.950 . S
H3205 C3225 0.950 . S
H3206 C3227 0.950 . S
H3207 C3230 0.950 . S
H3208 C3231 0.950 . S
H3209 C3233 0.950 . S
H3210 C3234 0.950 . S
H3211 C3235 0.951 . S
H3212 C3237 0.951 . S
H3213 C3239 0.950 . S
H3214 C3240 0.950 . S
H3215 C3242 0.950 . S
H3216 C3245 0.950 . S
H3217 C3246 0.950 . S
H3218 C3248 0.950 . S
H3219 C3249 0.950 . S
C3220 H3202 0.951 . S
C3220 C3221 1.366 . S
C3220 C3222 1.388 . S
C3221 C3220 1.366 . S
C3221 C3225 1.385 . S
C3222 H3203 0.951 . S
C3222 C3220 1.388 . S
C3222 C3223 1.366 . S
C3223 C3222 1.366 . S
C3223 C3224 1.414 . S
C3223 C3226 1.499 . S
C3224 H3204 0.950 . S
C3224 C3223 1.414 . S
C3224 C3225 1.374 . S
C3225 H3205 0.950 . S
C3225 C3221 1.385 . S
C3225 C3224 1.374 . S
C3226 C3223 1.499 . S
C3226 C3227 1.373 . S
C3226 C3228 1.389 . S
C3227 H3206 0.950 . S
C3227 C3226 1.373 . S
C3227 C3243 1.377 . S
C3228 C3226 1.389 . S
C3228 C3229 1.524 . S
C3228 C3242 1.377 . S
C3229 C3228 1.524 . S
C3229 C3230 1.397 . S
C3229 C3234 1.363 . S
C3230 H3207 0.950 . S
C3230 C3229 1.397 . S
C3230 C3231 1.334 . S
C3231 H3208 0.950 . S
C3231 C3230 1.334 . S
C3231 C3232 1.287 . S
C3232 C3231 1.287 . S
C3232 C3233 1.524 . S
C3232 H3251 0.913 . S
C3233 H3209 0.950 . S
C3233 C3232 1.524 . S
C3233 C3234 1.415 . S
C3234 H3210 0.950 . S
C3234 C3229 1.363 . S
C3234 C3233 1.415 . S
C3235 H3211 0.951 . S
C3235 C3236 1.366 . S
C3235 C3237 1.388 . S
C3236 C3235 1.366 . S
C3236 C3240 1.385 . S
C3237 H3212 0.951 . S
C3237 C3235 1.388 . S
C3237 C3238 1.366 . S
C3238 C3237 1.366 . S
C3238 C3239 1.414 . S
C3238 C3241 1.499 . S
C3239 H3213 0.950 . S
C3239 C3238 1.414 . S
C3239 C3240 1.374 . S
C3240 H3214 0.950 . S
C3240 C3236 1.385 . S
C3240 C3239 1.374 . S
C3241 C3238 1.499 . S
C3241 C3242 1.373 . S
C3241 C3243 1.389 . S
C3242 H3215 0.950 . S
C3242 C3228 1.377 . S
C3242 C3241 1.373 . S
C3243 C3227 1.377 . S
C3243 C3241 1.389 . S
C3243 C3244 1.524 . S
C3244 C3243 1.524 . S
C3244 C3245 1.397 . S
C3244 C3249 1.363 . S
C3245 H3216 0.950 . S
C3245 C3244 1.397 . S
C3245 C3246 1.334 . S
C3246 H3217 0.950 . S
C3246 C3245 1.334 . S
C3246 C3247 1.287 . S
C3247 C3246 1.287 . S
C3247 C3248 1.524 . S
C3247 H3250 0.999 . S
C3248 H3218 0.950 . S
C3248 C3247 1.524 . S
C3248 C3249 1.415 . S
C3249 H3219 0.950 . S
C3249 C3244 1.363 . S
C3249 C3248 1.415 . S
H3250 C3247 0.999 . S
H3251 C3232 0.913 . S
H3252 C3270 0.951 . S
H3253 C3272 0.951 . S
H3254 C3274 0.950 . S
H3255 C3275 0.950 . S
H3256 C3277 0.950 . S
H3257 C3280 0.950 . S
H3258 C3281 0.950 . S
H3259 C3283 0.950 . S
H3260 C3284 0.950 . S
H3261 C3285 0.951 . S
H3262 C3287 0.951 . S
H3263 C3289 0.950 . S
H3264 C3290 0.950 . S
H3265 C3292 0.950 . S
H3266 C3295 0.950 . S
H3267 C3296 0.950 . S
H3268 C3298 0.950 . S
H3269 C3299 0.950 . S
C3270 H3252 0.951 . S
C3270 C3271 1.366 . S
C3270 C3272 1.388 . S
C3271 C3270 1.366 . S
C3271 C3275 1.385 . S
C3272 H3253 0.951 . S
C3272 C3270 1.388 . S
C3272 C3273 1.366 . S
C3273 C3272 1.366 . S
C3273 C3274 1.414 . S
C3273 C3276 1.499 . S
C3274 H3254 0.950 . S
C3274 C3273 1.414 . S
C3274 C3275 1.374 . S
C3275 H3255 0.950 . S
C3275 C3271 1.385 . S
C3275 C3274 1.374 . S
C3276 C3273 1.499 . S
C3276 C3277 1.373 . S
C3276 C3278 1.389 . S
C3277 H3256 0.950 . S
C3277 C3276 1.373 . S
C3277 C3293 1.377 . S
C3278 C3276 1.389 . S
C3278 C3279 1.524 . S
C3278 C3292 1.377 . S
C3279 C3278 1.524 . S
C3279 C3280 1.397 . S
C3279 C3284 1.363 . S
C3280 H3257 0.950 . S
C3280 C3279 1.397 . S
C3280 C3281 1.334 . S
C3281 H3258 0.950 . S
C3281 C3280 1.334 . S
C3281 C3282 1.287 . S
C3282 C3281 1.287 . S
C3282 C3283 1.524 . S
C3282 H3301 0.913 . S
C3283 H3259 0.950 . S
C3283 C3282 1.524 . S
C3283 C3284 1.415 . S
C3284 H3260 0.950 . S
C3284 C3279 1.363 . S
C3284 C3283 1.415 . S
C3285 H3261 0.951 . S
C3285 C3286 1.366 . S
C3285 C3287 1.388 . S
C3286 C3285 1.366 . S
C3286 C3290 1.385 . S
C3287 H3262 0.951 . S
C3287 C3285 1.388 . S
C3287 C3288 1.366 . S
C3288 C3287 1.366 . S
C3288 C3289 1.414 . S
C3288 C3291 1.499 . S
C3289 H3263 0.950 . S
C3289 C3288 1.414 . S
C3289 C3290 1.374 . S
C3290 H3264 0.950 . S
C3290 C3286 1.385 . S
C3290 C3289 1.374 . S
C3291 C3288 1.499 . S
C3291 C3292 1.373 . S
C3291 C3293 1.389 . S
C3292 H3265 0.950 . S
C3292 C3278 1.377 . S
C3292 C3291 1.373 . S
C3293 C3277 1.377 . S
C3293 C3291 1.389 . S
C3293 C3294 1.524 . S
C3294 C3293 1.524 . S
C3294 C3295 1.397 . S
C3294 C3299 1.363 . S
C3295 H3266 0.950 . S
C3295 C3294 1.397 . S
C3295 C3296 1.334 . S
C3296 H3267 0.950 . S
C3296 C3295 1.334 . S
C3296 C3297 1.287 . S
C3297 C3296 1.287 . S
C3297 C3298 1.524 . S
C3297 H3300 0.999 . S
C3298 H3268 0.950 . S
C3298 C3297 1.524 . S
C3298 C3299 1.415 . S
C3299 H3269 0.950 . S
C3299 C3294 1.363 . S
C3299 C3298 1.415 . S
H3300 C3297 0.999 . S
H3301 C3282 0.913 . S
H3302 C3320 0.951 . S
H3303 C3322 0.951 . S
H3304 C3324 0.950 . S
H3305 C3325 0.950 . S
H3306 C3327 0.950 . S
H3307 C3330 0.950 . S
H3308 C3331 0.950 . S
H3309 C3333 0.950 . S
H3310 C3334 0.950 . S
H3311 C3335 0.951 . S
H3312 C3337 0.951 . S
H3313 C3339 0.950 . S
H3314 C3340 0.950 . S
H3315 C3342 0.950 . S
H3316 C3345 0.950 . S
H3317 C3346 0.950 . S
H3318 C3348 0.950 . S
H3319 C3349 0.950 . S
C3320 H3302 0.951 . S
C3320 C3321 1.366 . S
C3320 C3322 1.388 . S
C3321 C3320 1.366 . S
C3321 C3325 1.385 . S
C3322 H3303 0.951 . S
C3322 C3320 1.388 . S
C3322 C3323 1.366 . S
C3323 C3322 1.366 . S
C3323 C3324 1.414 . S
C3323 C3326 1.499 . S
C3324 H3304 0.950 . S
C3324 C3323 1.414 . S
C3324 C3325 1.374 . S
C3325 H3305 0.950 . S
C3325 C3321 1.385 . S
C3325 C3324 1.374 . S
C3326 C3323 1.499 . S
C3326 C3327 1.373 . S
C3326 C3328 1.389 . S
C3327 H3306 0.950 . S
C3327 C3326 1.373 . S
C3327 C3343 1.377 . S
C3328 C3326 1.389 . S
C3328 C3329 1.524 . S
C3328 C3342 1.377 . S
C3329 C3328 1.524 . S
C3329 C3330 1.397 . S
C3329 C3334 1.363 . S
C3330 H3307 0.950 . S
C3330 C3329 1.397 . S
C3330 C3331 1.334 . S
C3331 H3308 0.950 . S
C3331 C3330 1.334 . S
C3331 C3332 1.287 . S
C3332 C3331 1.287 . S
C3332 C3333 1.524 . S
C3332 H3351 0.913 . S
C3333 H3309 0.950 . S
C3333 C3332 1.524 . S
C3333 C3334 1.415 . S
C3334 H3310 0.950 . S
C3334 C3329 1.363 . S
C3334 C3333 1.415 . S
C3335 H3311 0.951 . S
C3335 C3336 1.366 . S
C3335 C3337 1.388 . S
C3336 C3335 1.366 . S
C3336 C3340 1.385 . S
C3337 H3312 0.951 . S
C3337 C3335 1.388 . S
C3337 C3338 1.366 . S
C3338 C3337 1.366 . S
C3338 C3339 1.414 . S
C3338 C3341 1.499 . S
C3339 H3313 0.950 . S
C3339 C3338 1.414 . S
C3339 C3340 1.374 . S
C3340 H3314 0.950 . S
C3340 C3336 1.385 . S
C3340 C3339 1.374 . S
C3341 C3338 1.499 . S
C3341 C3342 1.373 . S
C3341 C3343 1.389 . S
C3342 H3315 0.950 . S
C3342 C3328 1.377 . S
C3342 C3341 1.373 . S
C3343 C3327 1.377 . S
C3343 C3341 1.389 . S
C3343 C3344 1.524 . S
C3344 C3343 1.524 . S
C3344 C3345 1.397 . S
C3344 C3349 1.363 . S
C3345 H3316 0.950 . S
C3345 C3344 1.397 . S
C3345 C3346 1.334 . S
C3346 H3317 0.950 . S
C3346 C3345 1.334 . S
C3346 C3347 1.287 . S
C3347 C3346 1.287 . S
C3347 C3348 1.524 . S
C3347 H3350 0.999 . S
C3348 H3318 0.950 . S
C3348 C3347 1.524 . S
C3348 C3349 1.415 . S
C3349 H3319 0.950 . S
C3349 C3344 1.363 . S
C3349 C3348 1.415 . S
H3350 C3347 0.999 . S
H3351 C3332 0.913 . S
H3352 C3370 0.951 . S
H3353 C3372 0.951 . S
H3354 C3374 0.950 . S
H3355 C3375 0.950 . S
H3356 C3377 0.950 . S
H3357 C3380 0.950 . S
H3358 C3381 0.950 . S
H3359 C3383 0.950 . S
H3360 C3384 0.950 . S
H3361 C3385 0.951 . S
H3362 C3387 0.951 . S
H3363 C3389 0.950 . S
H3364 C3390 0.950 . S
H3365 C3392 0.950 . S
H3366 C3395 0.950 . S
H3367 C3396 0.950 . S
H3368 C3398 0.950 . S
H3369 C3399 0.950 . S
C3370 H3352 0.951 . S
C3370 C3371 1.366 . S
C3370 C3372 1.388 . S
C3371 C3370 1.366 . S
C3371 C3375 1.385 . S
C3372 H3353 0.951 . S
C3372 C3370 1.388 . S
C3372 C3373 1.366 . S
C3373 C3372 1.366 . S
C3373 C3374 1.414 . S
C3373 C3376 1.499 . S
C3374 H3354 0.950 . S
C3374 C3373 1.414 . S
C3374 C3375 1.374 . S
C3375 H3355 0.950 . S
C3375 C3371 1.385 . S
C3375 C3374 1.374 . S
C3376 C3373 1.499 . S
C3376 C3377 1.373 . S
C3376 C3378 1.389 . S
C3377 H3356 0.950 . S
C3377 C3376 1.373 . S
C3377 C3393 1.377 . S
C3378 C3376 1.389 . S
C3378 C3379 1.524 . S
C3378 C3392 1.377 . S
C3379 C3378 1.524 . S
C3379 C3380 1.397 . S
C3379 C3384 1.363 . S
C3380 H3357 0.950 . S
C3380 C3379 1.397 . S
C3380 C3381 1.334 . S
C3381 H3358 0.950 . S
C3381 C3380 1.334 . S
C3381 C3382 1.287 . S
C3382 C3381 1.287 . S
C3382 C3383 1.524 . S
C3382 H3401 0.913 . S
C3383 H3359 0.950 . S
C3383 C3382 1.524 . S
C3383 C3384 1.415 . S
C3384 H3360 0.950 . S
C3384 C3379 1.363 . S
C3384 C3383 1.415 . S
C3385 H3361 0.951 . S
C3385 C3386 1.366 . S
C3385 C3387 1.388 . S
C3386 C3385 1.366 . S
C3386 C3390 1.385 . S
C3387 H3362 0.951 . S
C3387 C3385 1.388 . S
C3387 C3388 1.366 . S
C3388 C3387 1.366 . S
C3388 C3389 1.414 . S
C3388 C3391 1.499 . S
C3389 H3363 0.950 . S
C3389 C3388 1.414 . S
C3389 C3390 1.374 . S
C3390 H3364 0.950 . S
C3390 C3386 1.385 . S
C3390 C3389 1.374 . S
C3391 C3388 1.499 . S
C3391 C3392 1.373 . S
C3391 C3393 1.389 . S
C3392 H3365 0.950 . S
C3392 C3378 1.377 . S
C3392 C3391 1.373 . S
C3393 C3377 1.377 . S
C3393 C3391 1.389 . S
C3393 C3394 1.524 . S
C3394 C3393 1.524 . S
C3394 C3395 1.397 . S
C3394 C3399 1.363 . S
C3395 H3366 0.950 . S
C3395 C3394 1.397 . S
C3395 C3396 1.334 . S
C3396 H3367 0.950 . S
C3396 C3395 1.334 . S
C3396 C3397 1.287 . S
C3397 C3396 1.287 . S
C3397 C3398 1.524 . S
C3397 H3400 0.999 . S
C3398 H3368 0.950 . S
C3398 C3397 1.524 . S
C3398 C3399 1.415 . S
C3399 H3369 0.950 . S
C3399 C3394 1.363 . S
C3399 C3398 1.415 . S
H3400 C3397 0.999 . S
H3401 C3382 0.913 . S
H3402 C3420 0.951 . S
H3403 C3422 0.951 . S
H3404 C3424 0.950 . S
H3405 C3425 0.950 . S
H3406 C3427 0.950 . S
H3407 C3430 0.950 . S
H3408 C3431 0.950 . S
H3409 C3433 0.950 . S
H3410 C3434 0.950 . S
H3411 C3435 0.951 . S
H3412 C3437 0.951 . S
H3413 C3439 0.950 . S
H3414 C3440 0.950 . S
H3415 C3442 0.950 . S
H3416 C3445 0.950 . S
H3417 C3446 0.950 . S
H3418 C3448 0.950 . S
H3419 C3449 0.950 . S
C3420 H3402 0.951 . S
C3420 C3421 1.366 . S
C3420 C3422 1.388 . S
C3421 C3420 1.366 . S
C3421 C3425 1.385 . S
C3422 H3403 0.951 . S
C3422 C3420 1.388 . S
C3422 C3423 1.366 . S
C3423 C3422 1.366 . S
C3423 C3424 1.414 . S
C3423 C3426 1.499 . S
C3424 H3404 0.950 . S
C3424 C3423 1.414 . S
C3424 C3425 1.374 . S
C3425 H3405 0.950 . S
C3425 C3421 1.385 . S
C3425 C3424 1.374 . S
C3426 C3423 1.499 . S
C3426 C3427 1.373 . S
C3426 C3428 1.389 . S
C3427 H3406 0.950 . S
C3427 C3426 1.373 . S
C3427 C3443 1.377 . S
C3428 C3426 1.389 . S
C3428 C3429 1.524 . S
C3428 C3442 1.377 . S
C3429 C3428 1.524 . S
C3429 C3430 1.397 . S
C3429 C3434 1.363 . S
C3430 H3407 0.950 . S
C3430 C3429 1.397 . S
C3430 C3431 1.334 . S
C3431 H3408 0.950 . S
C3431 C3430 1.334 . S
C3431 C3432 1.287 . S
C3432 C3431 1.287 . S
C3432 C3433 1.524 . S
C3432 H3451 0.913 . S
C3433 H3409 0.950 . S
C3433 C3432 1.524 . S
C3433 C3434 1.415 . S
C3434 H3410 0.950 . S
C3434 C3429 1.363 . S
C3434 C3433 1.415 . S
C3435 H3411 0.951 . S
C3435 C3436 1.366 . S
C3435 C3437 1.388 . S
C3436 C3435 1.366 . S
C3436 C3440 1.385 . S
C3437 H3412 0.951 . S
C3437 C3435 1.388 . S
C3437 C3438 1.366 . S
C3438 C3437 1.366 . S
C3438 C3439 1.414 . S
C3438 C3441 1.499 . S
C3439 H3413 0.950 . S
C3439 C3438 1.414 . S
C3439 C3440 1.374 . S
C3440 H3414 0.950 . S
C3440 C3436 1.385 . S
C3440 C3439 1.374 . S
C3441 C3438 1.499 . S
C3441 C3442 1.373 . S
C3441 C3443 1.389 . S
C3442 H3415 0.950 . S
C3442 C3428 1.377 . S
C3442 C3441 1.373 . S
C3443 C3427 1.377 . S
C3443 C3441 1.389 . S
C3443 C3444 1.524 . S
C3444 C3443 1.524 . S
C3444 C3445 1.397 . S
C3444 C3449 1.363 . S
C3445 H3416 0.950 . S
C3445 C3444 1.397 . S
C3445 C3446 1.334 . S
C3446 H3417 0.950 . S
C3446 C3445 1.334 . S
C3446 C3447 1.287 . S
C3447 C3446 1.287 . S
C3447 C3448 1.524 . S
C3447 H3450 0.999 . S
C3448 H3418 0.950 . S
C3448 C3447 1.524 . S
C3448 C3449 1.415 . S
C3449 H3419 0.950 . S
C3449 C3444 1.363 . S
C3449 C3448 1.415 . S
H3450 C3447 0.999 . S
H3451 C3432 0.913 . S
H3452 C3470 0.951 . S
H3453 C3472 0.951 . S
H3454 C3474 0.950 . S
H3455 C3475 0.950 . S
H3456 C3477 0.950 . S
H3457 C3480 0.950 . S
H3458 C3481 0.950 . S
H3459 C3483 0.950 . S
H3460 C3484 0.924 1_454 S
H3461 C3485 0.951 . S
H3462 C3487 0.951 . S
H3463 C3489 0.950 . S
H3464 C3490 0.950 . S
H3465 C3492 0.950 . S
H3466 C3495 0.950 . S
H3467 C3496 0.950 . S
H3468 C3498 0.950 . S
H3469 C3499 0.950 . S
C3470 H3452 0.951 . S
C3470 C3471 1.366 . S
C3470 C3472 1.388 . S
C3471 C3470 1.366 . S
C3471 C3475 1.385 . S
C3472 H3453 0.951 . S
C3472 C3470 1.388 . S
C3472 C3473 1.366 . S
C3473 C3472 1.366 . S
C3473 C3474 1.414 . S
C3473 C3476 1.499 . S
C3474 H3454 0.950 . S
C3474 C3473 1.414 . S
C3474 C3475 1.374 . S
C3475 H3455 0.950 . S
C3475 C3471 1.385 . S
C3475 C3474 1.374 . S
C3476 C3473 1.499 . S
C3476 C3477 1.373 . S
C3476 C3478 1.389 . S
C3477 H3456 0.950 . S
C3477 C3476 1.373 . S
C3477 C3493 1.377 . S
C3478 C3476 1.389 . S
C3478 C3479 1.524 1_455 S
C3478 C3492 1.377 . S
C3479 C3478 1.524 1_655 S
C3479 C3480 1.397 . S
C3479 C3484 1.408 . S
C3480 H3457 0.950 . S
C3480 C3479 1.397 . S
C3480 C3481 1.334 . S
C3481 H3458 0.950 . S
C3481 C3480 1.334 . S
C3481 C3482 1.287 . S
C3482 C3481 1.287 . S
C3482 C3483 1.524 1_556 S
C3482 H3501 0.913 . S
C3483 H3459 0.950 . S
C3483 C3482 1.524 1_554 S
C3483 C3484 1.397 1_554 S
C3484 H3460 0.924 1_656 S
C3484 C3479 1.408 . S
C3484 C3483 1.397 1_556 S
C3485 H3461 0.951 . S
C3485 C3486 1.366 . S
C3485 C3487 1.388 . S
C3486 C3485 1.366 . S
C3486 C3490 1.385 1_556 S
C3487 H3462 0.951 . S
C3487 C3485 1.388 . S
C3487 C3488 1.366 . S
C3488 C3487 1.366 . S
C3488 C3489 1.414 1_556 S
C3488 C3491 1.499 . S
C3489 H3463 0.950 . S
C3489 C3488 1.414 1_554 S
C3489 C3490 1.374 . S
C3490 H3464 0.950 . S
C3490 C3486 1.385 1_554 S
C3490 C3489 1.374 . S
C3491 C3488 1.499 . S
C3491 C3492 1.373 . S
C3491 C3493 1.389 . S
C3492 H3465 0.950 . S
C3492 C3478 1.377 . S
C3492 C3491 1.373 . S
C3493 C3477 1.377 . S
C3493 C3491 1.389 . S
C3493 C3494 1.524 . S
C3494 C3493 1.524 . S
C3494 C3495 1.397 . S
C3494 C3499 1.363 . S
C3495 H3466 0.950 . S
C3495 C3494 1.397 . S
C3495 C3496 1.334 . S
C3496 H3467 0.950 . S
C3496 C3495 1.334 . S
C3496 C3497 1.287 . S
C3497 C3496 1.287 . S
C3497 C3498 1.524 . S
C3497 H3500 0.999 . S
C3498 H3468 0.950 . S
C3498 C3497 1.524 . S
C3498 C3499 1.415 . S
C3499 H3469 0.950 . S
C3499 C3494 1.363 . S
C3499 C3498 1.415 . S
H3500 C3497 0.999 . S
H3501 C3482 0.913 . S
H3502 C3520 0.951 . S
H3503 C3522 0.951 . S
H3504 C3524 0.950 . S
H3505 C3525 0.950 . S
H3506 C3527 0.950 . S
H3507 C3530 0.950 . S
H3508 C3531 0.950 . S
H3509 C3533 0.950 . S
H3510 C3534 0.950 . S
H3511 C3535 0.951 . S
H3512 C3537 0.951 . S
H3513 C3539 0.950 . S
H3514 C3540 0.950 . S
H3515 C3542 0.950 . S
H3516 C3545 0.950 . S
H3517 C3546 0.950 . S
H3518 C3548 0.950 . S
H3519 C3549 0.950 . S
C3520 H3502 0.951 . S
C3520 C3521 1.366 . S
C3520 C3522 1.388 1_455 S
C3521 C3520 1.366 . S
C3521 C3525 1.385 . S
C3522 H3503 0.951 . S
C3522 C3520 1.388 1_655 S
C3522 C3523 1.366 . S
C3523 C3522 1.366 . S
C3523 C3524 1.414 . S
C3523 C3526 1.499 . S
C3524 H3504 0.950 . S
C3524 C3523 1.414 . S
C3524 C3525 1.374 1_655 S
C3525 H3505 0.950 . S
C3525 C3521 1.385 . S
C3525 C3524 1.374 1_455 S
C3526 C3523 1.499 . S
C3526 C3527 1.373 . S
C3526 C3528 1.389 . S
C3527 H3506 0.950 . S
C3527 C3526 1.373 . S
C3527 C3543 1.377 . S
C3528 C3526 1.389 . S
C3528 C3529 1.524 . S
C3528 C3542 1.377 . S
C3529 C3528 1.524 . S
C3529 C3530 1.397 . S
C3529 C3534 1.363 . S
C3530 H3507 0.950 . S
C3530 C3529 1.397 . S
C3530 C3531 1.334 . S
C3531 H3508 0.950 . S
C3531 C3530 1.334 . S
C3531 C3532 1.287 . S
C3532 C3531 1.287 . S
C3532 C3533 1.524 . S
C3532 H3551 0.913 . S
C3533 H3509 0.950 . S
C3533 C3532 1.524 . S
C3533 C3534 1.415 . S
C3534 H3510 0.950 . S
C3534 C3529 1.363 . S
C3534 C3533 1.415 . S
C3535 H3511 0.951 . S
C3535 C3536 1.366 . S
C3535 C3537 1.388 . S
C3536 C3535 1.366 . S
C3536 C3540 1.385 . S
C3537 H3512 0.951 . S
C3537 C3535 1.388 . S
C3537 C3538 1.366 . S
C3538 C3537 1.366 . S
C3538 C3539 1.414 . S
C3538 C3541 1.499 . S
C3539 H3513 0.950 . S
C3539 C3538 1.414 . S
C3539 C3540 1.374 . S
C3540 H3514 0.950 . S
C3540 C3536 1.385 . S
C3540 C3539 1.374 . S
C3541 C3538 1.499 . S
C3541 C3542 1.373 . S
C3541 C3543 1.389 . S
C3542 H3515 0.950 . S
C3542 C3528 1.377 . S
C3542 C3541 1.373 . S
C3543 C3527 1.377 . S
C3543 C3541 1.389 . S
C3543 C3544 1.524 . S
C3544 C3543 1.524 . S
C3544 C3545 1.397 . S
C3544 C3549 1.363 . S
C3545 H3516 0.950 . S
C3545 C3544 1.397 . S
C3545 C3546 1.334 . S
C3546 H3517 0.950 . S
C3546 C3545 1.334 . S
C3546 C3547 1.287 . S
C3547 C3546 1.287 . S
C3547 C3548 1.524 . S
C3547 H3550 0.999 . S
C3548 H3518 0.950 . S
C3548 C3547 1.524 . S
C3548 C3549 1.415 . S
C3549 H3519 0.950 . S
C3549 C3544 1.363 . S
C3549 C3548 1.415 . S
H3550 C3547 0.999 . S
H3551 C3532 0.913 . S
H3552 C3570 0.951 . S
H3553 C3572 0.951 . S
H3554 C3574 0.950 . S
H3555 C3575 0.950 . S
H3556 C3577 0.950 . S
H3557 C3580 0.950 . S
H3558 C3581 0.950 . S
H3559 C3583 0.950 . S
H3560 C3584 0.950 . S
H3561 C3585 0.951 . S
H3562 C3587 0.951 . S
H3563 C3589 0.950 . S
H3564 C3590 0.950 . S
H3565 C3592 0.950 . S
H3566 C3595 0.950 . S
H3567 C3596 0.950 . S
H3568 C3598 0.950 . S
H3569 C3599 0.950 . S
C3570 H3552 0.951 . S
C3570 C3571 1.366 . S
C3570 C3572 1.388 . S
C3571 C3570 1.366 . S
C3571 C3575 1.385 . S
C3572 H3553 0.951 . S
C3572 C3570 1.388 . S
C3572 C3573 1.366 . S
C3573 C3572 1.366 . S
C3573 C3574 1.414 . S
C3573 C3576 1.499 . S
C3574 H3554 0.950 . S
C3574 C3573 1.414 . S
C3574 C3575 1.374 . S
C3575 H3555 0.950 . S
C3575 C3571 1.385 . S
C3575 C3574 1.374 . S
C3576 C3573 1.499 . S
C3576 C3577 1.373 . S
C3576 C3578 1.389 . S
C3577 H3556 0.950 . S
C3577 C3576 1.373 . S
C3577 C3593 1.377 . S
C3578 C3576 1.389 . S
C3578 C3579 1.524 . S
C3578 C3592 1.377 . S
C3579 C3578 1.524 . S
C3579 C3580 1.397 . S
C3579 C3584 1.363 . S
C3580 H3557 0.950 . S
C3580 C3579 1.397 . S
C3580 C3581 1.334 . S
C3581 H3558 0.950 . S
C3581 C3580 1.334 . S
C3581 C3582 1.287 . S
C3582 C3581 1.287 . S
C3582 C3583 1.524 . S
C3582 H3601 0.913 . S
C3583 H3559 0.950 . S
C3583 C3582 1.524 . S
C3583 C3584 1.415 . S
C3584 H3560 0.950 . S
C3584 C3579 1.363 . S
C3584 C3583 1.415 . S
C3585 H3561 0.951 . S
C3585 C3586 1.366 . S
C3585 C3587 1.388 . S
C3586 C3585 1.366 . S
C3586 C3590 1.385 . S
C3587 H3562 0.951 . S
C3587 C3585 1.388 . S
C3587 C3588 1.366 . S
C3588 C3587 1.366 . S
C3588 C3589 1.414 . S
C3588 C3591 1.499 . S
C3589 H3563 0.950 . S
C3589 C3588 1.414 . S
C3589 C3590 1.374 . S
C3590 H3564 0.950 . S
C3590 C3586 1.385 . S
C3590 C3589 1.374 . S
C3591 C3588 1.499 . S
C3591 C3592 1.373 . S
C3591 C3593 1.389 . S
C3592 H3565 0.950 . S
C3592 C3578 1.377 . S
C3592 C3591 1.373 . S
C3593 C3577 1.377 . S
C3593 C3591 1.389 . S
C3593 C3594 1.524 . S
C3594 C3593 1.524 . S
C3594 C3595 1.397 . S
C3594 C3599 1.363 . S
C3595 H3566 0.950 . S
C3595 C3594 1.397 . S
C3595 C3596 1.334 . S
C3596 H3567 0.950 . S
C3596 C3595 1.334 . S
C3596 C3597 1.287 . S
C3597 C3596 1.287 . S
C3597 C3598 1.524 . S
C3597 H3600 0.999 . S
C3598 H3568 0.950 . S
C3598 C3597 1.524 . S
C3598 C3599 1.415 . S
C3599 H3569 0.950 . S
C3599 C3594 1.363 . S
C3599 C3598 1.415 . S
H3600 C3597 0.999 . S
H3601 C3582 0.913 . S
H3602 C3620 0.951 . S
H3603 C3622 0.951 . S
H3604 C3624 0.950 . S
H3605 C3625 0.950 . S
H3606 C3627 0.950 . S
H3607 C3630 0.950 . S
H3608 C3631 0.950 . S
H3609 C3633 0.943 . S
H3610 C3634 0.950 . S
H3611 C3635 0.951 . S
H3612 C3637 0.951 . S
H3613 C3639 0.950 . S
H3614 C3640 0.950 . S
H3615 C3642 0.950 . S
H3616 C3645 0.950 . S
H3617 C3646 0.950 . S
H3618 C3648 0.950 . S
H3619 C3649 0.950 . S
C3620 H3602 0.951 . S
C3620 C3621 1.366 . S
C3620 C3622 1.388 . S
C3621 C3620 1.366 . S
C3621 C3625 1.385 . S
C3622 H3603 0.951 . S
C3622 C3620 1.388 . S
C3622 C3623 1.366 . S
C3623 C3622 1.366 . S
C3623 C3624 1.414 . S
C3623 C3626 1.499 1_455 S
C3624 H3604 0.950 . S
C3624 C3623 1.414 . S
C3624 C3625 1.374 . S
C3625 H3605 0.950 . S
C3625 C3621 1.385 . S
C3625 C3624 1.374 . S
C3626 C3623 1.499 1_655 S
C3626 C3627 1.373 . S
C3626 C3628 1.389 . S
C3627 H3606 0.950 . S
C3627 C3626 1.373 . S
C3627 C3643 1.377 . S
C3628 C3626 1.389 . S
C3628 C3629 1.524 . S
C3628 C3642 1.377 . S
C3629 C3628 1.524 . S
C3629 C3630 1.397 1_655 S
C3629 C3634 1.363 . S
C3630 H3607 0.950 . S
C3630 C3629 1.397 1_455 S
C3630 C3631 1.334 . S
C3631 H3608 0.950 . S
C3631 C3630 1.334 . S
C3631 C3632 1.287 . S
C3632 C3631 1.287 . S
C3632 C3633 1.524 . S
C3632 H3651 0.913 . S
C3633 H3609 0.943 . S
C3633 C3632 1.524 . S
C3633 C3634 1.415 1_455 S
C3634 H3610 0.950 . S
C3634 C3629 1.363 . S
C3634 C3633 1.415 1_655 S
C3635 H3611 0.951 . S
C3635 C3636 1.366 . S
C3635 C3637 1.388 . S
C3636 C3635 1.366 . S
C3636 C3640 1.385 . S
C3637 H3612 0.951 . S
C3637 C3635 1.388 . S
C3637 C3638 1.366 . S
C3638 C3637 1.366 . S
C3638 C3639 1.414 . S
C3638 C3641 1.499 . S
C3639 H3613 0.950 . S
C3639 C3638 1.414 . S
C3639 C3640 1.374 . S
C3640 H3614 0.950 . S
C3640 C3636 1.385 . S
C3640 C3639 1.374 . S
C3641 C3638 1.499 . S
C3641 C3642 1.373 . S
C3641 C3643 1.389 . S
C3642 H3615 0.950 . S
C3642 C3628 1.377 . S
C3642 C3641 1.373 . S
C3643 C3627 1.377 . S
C3643 C3641 1.389 . S
C3643 C3644 1.524 . S
C3644 C3643 1.524 . S
C3644 C3645 1.397 . S
C3644 C3649 1.363 . S
C3645 H3616 0.950 . S
C3645 C3644 1.397 . S
C3645 C3646 1.334 . S
C3646 H3617 0.950 . S
C3646 C3645 1.334 . S
C3646 C3647 1.287 . S
C3647 C3646 1.287 . S
C3647 C3648 1.524 . S
C3647 H3650 0.999 . S
C3648 H3618 0.950 . S
C3648 C3647 1.524 . S
C3648 C3649 1.415 . S
C3649 H3619 0.950 . S
C3649 C3644 1.363 . S
C3649 C3648 1.415 . S
H3650 C3647 0.999 . S
H3651 C3632 0.913 . S
H3652 C3670 0.951 . S
H3653 C3672 0.951 . S
H3654 C3674 0.950 . S
H3655 C3675 0.950 . S
H3656 C3677 0.950 . S
H3657 C3680 0.950 . S
H3658 C3681 0.950 . S
H3659 C3683 0.950 . S
H3660 C3684 0.944 1_455 S
H3661 C3685 0.951 . S
H3662 C3687 0.951 . S
H3663 C3689 0.950 . S
H3664 C3690 0.950 . S
H3665 C3692 0.950 . S
H3666 C3695 0.950 . S
H3667 C3696 0.950 . S
H3668 C3698 0.950 . S
H3669 C3699 0.950 . S
C3670 H3652 0.951 . S
C3670 C3671 1.366 1_455 S
C3670 C3672 1.388 . S
C3671 C3670 1.366 1_655 S
C3671 C3675 1.385 . S
C3672 H3653 0.951 . S
C3672 C3670 1.388 . S
C3672 C3673 1.366 . S
C3673 C3672 1.366 . S
C3673 C3674 1.414 1_455 S
C3673 C3676 1.499 . S
C3674 H3654 0.950 . S
C3674 C3673 1.414 1_655 S
C3674 C3675 1.374 . S
C3675 H3655 0.950 . S
C3675 C3671 1.385 . S
C3675 C3674 1.374 . S
C3676 C3673 1.499 . S
C3676 C3677 1.373 . S
C3676 C3678 1.389 . S
C3677 H3656 0.950 . S
C3677 C3676 1.373 . S
C3677 C3693 1.377 . S
C3678 C3676 1.389 . S
C3678 C3679 1.524 1_455 S
C3678 C3692 1.377 . S
C3679 C3678 1.524 1_655 S
C3679 C3680 1.397 . S
C3679 C3684 1.365 . S
C3680 H3657 0.950 . S
C3680 C3679 1.397 . S
C3680 C3681 1.334 . S
C3681 H3658 0.950 . S
C3681 C3680 1.334 . S
C3681 C3682 1.287 . S
C3682 C3681 1.287 . S
C3682 C3683 1.524 . S
C3682 H3701 0.913 . S
C3683 H3659 0.950 . S
C3683 C3682 1.524 . S
C3683 C3684 1.419 . S
C3684 H3660 0.944 1_655 S
C3684 C3679 1.365 . S
C3684 C3683 1.419 . S
C3685 H3661 0.951 . S
C3685 C3686 1.366 . S
C3685 C3687 1.388 . S
C3686 C3685 1.366 . S
C3686 C3690 1.385 . S
C3687 H3662 0.951 . S
C3687 C3685 1.388 . S
C3687 C3688 1.366 . S
C3688 C3687 1.366 . S
C3688 C3689 1.414 . S
C3688 C3691 1.499 . S
C3689 H3663 0.950 . S
C3689 C3688 1.414 . S
C3689 C3690 1.374 . S
C3690 H3664 0.950 . S
C3690 C3686 1.385 . S
C3690 C3689 1.374 . S
C3691 C3688 1.499 . S
C3691 C3692 1.373 . S
C3691 C3693 1.389 . S
C3692 H3665 0.950 . S
C3692 C3678 1.377 . S
C3692 C3691 1.373 . S
C3693 C3677 1.377 . S
C3693 C3691 1.389 . S
C3693 C3694 1.524 . S
C3694 C3693 1.524 . S
C3694 C3695 1.397 . S
C3694 C3699 1.363 . S
C3695 H3666 0.950 . S
C3695 C3694 1.397 . S
C3695 C3696 1.334 . S
C3696 H3667 0.950 . S
C3696 C3695 1.334 . S
C3696 C3697 1.287 . S
C3697 C3696 1.287 . S
C3697 C3698 1.524 . S
C3697 H3700 0.999 . S
C3698 H3668 0.950 . S
C3698 C3697 1.524 . S
C3698 C3699 1.415 . S
C3699 H3669 0.950 . S
C3699 C3694 1.363 . S
C3699 C3698 1.415 . S
H3700 C3697 0.999 . S
H3701 C3682 0.913 . S
H3702 C3720 0.951 . S
H3703 C3722 0.951 . S
H3704 C3724 0.950 . S
H3705 C3725 0.950 . S
H3706 C3727 0.950 . S
H3707 C3730 0.950 . S
H3708 C3731 0.950 . S
H3709 C3733 0.950 . S
H3710 C3734 0.950 . S
H3711 C3735 0.951 . S
H3712 C3737 0.951 . S
H3713 C3739 0.950 . S
H3714 C3740 0.950 . S
H3715 C3742 0.950 . S
H3716 C3745 0.950 . S
H3717 C3746 0.950 . S
H3718 C3748 0.950 . S
H3719 C3749 0.950 . S
C3720 H3702 0.951 . S
C3720 C3721 1.366 . S
C3720 C3722 1.388 . S
C3721 C3720 1.366 . S
C3721 C3725 1.385 . S
C3722 H3703 0.951 . S
C3722 C3720 1.388 . S
C3722 C3723 1.366 . S
C3723 C3722 1.366 . S
C3723 C3724 1.414 . S
C3723 C3726 1.499 . S
C3724 H3704 0.950 . S
C3724 C3723 1.414 . S
C3724 C3725 1.374 . S
C3725 H3705 0.950 . S
C3725 C3721 1.385 . S
C3725 C3724 1.374 . S
C3726 C3723 1.499 . S
C3726 C3727 1.373 . S
C3726 C3728 1.389 . S
C3727 H3706 0.950 . S
C3727 C3726 1.373 . S
C3727 C3743 1.377 . S
C3728 C3726 1.389 . S
C3728 C3729 1.524 . S
C3728 C3742 1.377 . S
C3729 C3728 1.524 . S
C3729 C3730 1.397 . S
C3729 C3734 1.363 . S
C3730 H3707 0.950 . S
C3730 C3729 1.397 . S
C3730 C3731 1.334 . S
C3731 H3708 0.950 . S
C3731 C3730 1.334 . S
C3731 C3732 1.287 . S
C3732 C3731 1.287 . S
C3732 C3733 1.524 . S
C3732 H3751 0.913 . S
C3733 H3709 0.950 . S
C3733 C3732 1.524 . S
C3733 C3734 1.415 . S
C3734 H3710 0.950 . S
C3734 C3729 1.363 . S
C3734 C3733 1.415 . S
C3735 H3711 0.951 . S
C3735 C3736 1.366 . S
C3735 C3737 1.388 . S
C3736 C3735 1.366 . S
C3736 C3740 1.385 . S
C3737 H3712 0.951 . S
C3737 C3735 1.388 . S
C3737 C3738 1.366 . S
C3738 C3737 1.366 . S
C3738 C3739 1.414 . S
C3738 C3741 1.499 . S
C3739 H3713 0.950 . S
C3739 C3738 1.414 . S
C3739 C3740 1.374 . S
C3740 H3714 0.950 . S
C3740 C3736 1.385 . S
C3740 C3739 1.374 . S
C3741 C3738 1.499 . S
C3741 C3742 1.373 . S
C3741 C3743 1.389 . S
C3742 H3715 0.950 . S
C3742 C3728 1.377 . S
C3742 C3741 1.373 . S
C3743 C3727 1.377 . S
C3743 C3741 1.389 . S
C3743 C3744 1.524 . S
C3744 C3743 1.524 . S
C3744 C3745 1.397 . S
C3744 C3749 1.363 . S
C3745 H3716 0.950 . S
C3745 C3744 1.397 . S
C3745 C3746 1.334 . S
C3746 H3717 0.950 . S
C3746 C3745 1.334 . S
C3746 C3747 1.287 . S
C3747 C3746 1.287 . S
C3747 C3748 1.524 . S
C3747 H3750 0.999 . S
C3748 H3718 0.950 . S
C3748 C3747 1.524 . S
C3748 C3749 1.415 . S
C3749 H3719 0.950 . S
C3749 C3744 1.363 . S
C3749 C3748 1.415 . S
H3750 C3747 0.999 . S
H3751 C3732 0.913 . S
H3752 C3770 0.951 . S
H3753 C3772 0.951 . S
H3754 C3774 0.950 . S
H3755 C3775 0.950 . S
H3756 C3777 0.950 . S
H3757 C3780 0.950 . S
H3758 C3781 0.950 . S
H3759 C3783 0.950 . S
H3760 C3784 0.950 . S
H3761 C3785 0.951 . S
H3762 C3787 0.951 . S
H3763 C3789 0.950 . S
H3764 C3790 0.950 . S
H3765 C3792 0.950 . S
H3766 C3795 0.950 . S
H3767 C3796 0.950 . S
H3768 C3798 0.950 . S
H3769 C3799 0.950 . S
C3770 H3752 0.951 . S
C3770 C3771 1.366 . S
C3770 C3772 1.388 . S
C3771 C3770 1.366 . S
C3771 C3775 1.385 . S
C3772 H3753 0.951 . S
C3772 C3770 1.388 . S
C3772 C3773 1.366 . S
C3773 C3772 1.366 . S
C3773 C3774 1.414 . S
C3773 C3776 1.499 . S
C3774 H3754 0.950 . S
C3774 C3773 1.414 . S
C3774 C3775 1.374 . S
C3775 H3755 0.950 . S
C3775 C3771 1.385 . S
C3775 C3774 1.374 . S
C3776 C3773 1.499 . S
C3776 C3777 1.373 . S
C3776 C3778 1.389 . S
C3777 H3756 0.950 . S
C3777 C3776 1.373 . S
C3777 C3793 1.377 . S
C3778 C3776 1.389 . S
C3778 C3779 1.524 . S
C3778 C3792 1.377 . S
C3779 C3778 1.524 . S
C3779 C3780 1.397 . S
C3779 C3784 1.363 . S
C3780 H3757 0.950 . S
C3780 C3779 1.397 . S
C3780 C3781 1.334 . S
C3781 H3758 0.950 . S
C3781 C3780 1.334 . S
C3781 C3782 1.287 . S
C3782 C3781 1.287 . S
C3782 C3783 1.524 . S
C3782 H3801 0.913 . S
C3783 H3759 0.950 . S
C3783 C3782 1.524 . S
C3783 C3784 1.415 . S
C3784 H3760 0.950 . S
C3784 C3779 1.363 . S
C3784 C3783 1.415 . S
C3785 H3761 0.951 . S
C3785 C3786 1.366 . S
C3785 C3787 1.388 . S
C3786 C3785 1.366 . S
C3786 C3790 1.385 . S
C3787 H3762 0.951 . S
C3787 C3785 1.388 . S
C3787 C3788 1.366 . S
C3788 C3787 1.366 . S
C3788 C3789 1.414 . S
C3788 C3791 1.499 . S
C3789 H3763 0.950 . S
C3789 C3788 1.414 . S
C3789 C3790 1.374 . S
C3790 H3764 0.950 . S
C3790 C3786 1.385 . S
C3790 C3789 1.374 . S
C3791 C3788 1.499 . S
C3791 C3792 1.373 . S
C3791 C3793 1.389 . S
C3792 H3765 0.950 . S
C3792 C3778 1.377 . S
C3792 C3791 1.373 . S
C3793 C3777 1.377 . S
C3793 C3791 1.389 . S
C3793 C3794 1.524 . S
C3794 C3793 1.524 . S
C3794 C3795 1.397 . S
C3794 C3799 1.363 . S
C3795 H3766 0.950 . S
C3795 C3794 1.397 . S
C3795 C3796 1.334 . S
C3796 H3767 0.950 . S
C3796 C3795 1.334 . S
C3796 C3797 1.287 . S
C3797 C3796 1.287 . S
C3797 C3798 1.524 . S
C3797 H3800 0.999 . S
C3798 H3768 0.950 . S
C3798 C3797 1.524 . S
C3798 C3799 1.415 . S
C3799 H3769 0.950 . S
C3799 C3794 1.363 . S
C3799 C3798 1.415 . S
H3800 C3797 0.999 . S
H3801 C3782 0.913 . S
H3802 C3820 0.951 . S
H3803 C3822 0.951 . S
H3804 C3824 0.950 . S
H3805 C3825 0.950 . S
H3806 C3827 0.950 . S
H3807 C3830 0.950 . S
H3808 C3831 0.950 . S
H3809 C3833 0.950 . S
H3810 C3834 0.950 . S
H3811 C3835 0.951 . S
H3812 C3837 0.951 . S
H3813 C3839 0.950 . S
H3814 C3840 0.950 . S
H3815 C3842 0.950 . S
H3816 C3845 0.950 . S
H3817 C3846 0.950 . S
H3818 C3848 0.950 . S
H3819 C3849 0.950 . S
C3820 H3802 0.951 . S
C3820 C3821 1.366 . S
C3820 C3822 1.388 . S
C3821 C3820 1.366 . S
C3821 C3825 1.385 . S
C3822 H3803 0.951 . S
C3822 C3820 1.388 . S
C3822 C3823 1.366 . S
C3823 C3822 1.366 . S
C3823 C3824 1.414 . S
C3823 C3826 1.499 . S
C3824 H3804 0.950 . S
C3824 C3823 1.414 . S
C3824 C3825 1.374 . S
C3825 H3805 0.950 . S
C3825 C3821 1.385 . S
C3825 C3824 1.374 . S
C3826 C3823 1.499 . S
C3826 C3827 1.373 . S
C3826 C3828 1.389 . S
C3827 H3806 0.950 . S
C3827 C3826 1.373 . S
C3827 C3843 1.377 . S
C3828 C3826 1.389 . S
C3828 C3829 1.524 . S
C3828 C3842 1.377 . S
C3829 C3828 1.524 . S
C3829 C3830 1.397 . S
C3829 C3834 1.363 . S
C3830 H3807 0.950 . S
C3830 C3829 1.397 . S
C3830 C3831 1.334 . S
C3831 H3808 0.950 . S
C3831 C3830 1.334 . S
C3831 C3832 1.287 . S
C3832 C3831 1.287 . S
C3832 C3833 1.524 . S
C3832 H3851 0.913 . S
C3833 H3809 0.950 . S
C3833 C3832 1.524 . S
C3833 C3834 1.415 . S
C3834 H3810 0.950 . S
C3834 C3829 1.363 . S
C3834 C3833 1.415 . S
C3835 H3811 0.951 . S
C3835 C3836 1.366 . S
C3835 C3837 1.388 . S
C3836 C3835 1.366 . S
C3836 C3840 1.385 . S
C3837 H3812 0.951 . S
C3837 C3835 1.388 . S
C3837 C3838 1.366 . S
C3838 C3837 1.366 . S
C3838 C3839 1.414 . S
C3838 C3841 1.499 . S
C3839 H3813 0.950 . S
C3839 C3838 1.414 . S
C3839 C3840 1.374 . S
C3840 H3814 0.950 . S
C3840 C3836 1.385 . S
C3840 C3839 1.374 . S
C3841 C3838 1.499 . S
C3841 C3842 1.373 . S
C3841 C3843 1.389 . S
C3842 H3815 0.950 . S
C3842 C3828 1.377 . S
C3842 C3841 1.373 . S
C3843 C3827 1.377 . S
C3843 C3841 1.389 . S
C3843 C3844 1.524 . S
C3844 C3843 1.524 . S
C3844 C3845 1.397 . S
C3844 C3849 1.363 . S
C3845 H3816 0.950 . S
C3845 C3844 1.397 . S
C3845 C3846 1.334 . S
C3846 H3817 0.950 . S
C3846 C3845 1.334 . S
C3846 C3847 1.287 . S
C3847 C3846 1.287 . S
C3847 C3848 1.524 . S
C3847 H3850 0.999 . S
C3848 H3818 0.950 . S
C3848 C3847 1.524 . S
C3848 C3849 1.415 . S
C3849 H3819 0.950 . S
C3849 C3844 1.363 . S
C3849 C3848 1.415 . S
H3850 C3847 0.999 . S
H3851 C3832 0.913 . S
H3852 C3870 0.951 . S
H3853 C3872 0.951 . S
H3854 C3874 0.950 . S
H3855 C3875 0.950 . S
H3856 C3877 0.950 . S
H3857 C3880 0.950 . S
H3858 C3881 0.950 . S
H3859 C3883 0.950 . S
H3860 C3884 0.950 . S
H3861 C3885 0.951 . S
H3862 C3887 0.951 . S
H3863 C3889 0.950 . S
H3864 C3890 0.950 . S
H3865 C3892 0.950 . S
H3866 C3895 0.950 . S
H3867 C3896 0.950 . S
H3868 C3898 0.950 . S
H3869 C3899 0.950 . S
C3870 H3852 0.951 . S
C3870 C3871 1.366 . S
C3870 C3872 1.388 . S
C3871 C3870 1.366 . S
C3871 C3875 1.385 . S
C3872 H3853 0.951 . S
C3872 C3870 1.388 . S
C3872 C3873 1.366 . S
C3873 C3872 1.366 . S
C3873 C3874 1.414 . S
C3873 C3876 1.499 . S
C3874 H3854 0.950 . S
C3874 C3873 1.414 . S
C3874 C3875 1.374 . S
C3875 H3855 0.950 . S
C3875 C3871 1.385 . S
C3875 C3874 1.374 . S
C3876 C3873 1.499 . S
C3876 C3877 1.373 . S
C3876 C3878 1.389 . S
C3877 H3856 0.950 . S
C3877 C3876 1.373 . S
C3877 C3893 1.377 . S
C3878 C3876 1.389 . S
C3878 C3879 1.524 . S
C3878 C3892 1.377 . S
C3879 C3878 1.524 . S
C3879 C3880 1.397 . S
C3879 C3884 1.363 . S
C3880 H3857 0.950 . S
C3880 C3879 1.397 . S
C3880 C3881 1.334 . S
C3881 H3858 0.950 . S
C3881 C3880 1.334 . S
C3881 C3882 1.287 . S
C3882 C3881 1.287 . S
C3882 C3883 1.524 . S
C3882 H3901 0.913 . S
C3883 H3859 0.950 . S
C3883 C3882 1.524 . S
C3883 C3884 1.415 . S
C3884 H3860 0.950 . S
C3884 C3879 1.363 . S
C3884 C3883 1.415 . S
C3885 H3861 0.951 . S
C3885 C3886 1.366 . S
C3885 C3887 1.388 . S
C3886 C3885 1.366 . S
C3886 C3890 1.385 . S
C3887 H3862 0.951 . S
C3887 C3885 1.388 . S
C3887 C3888 1.366 . S
C3888 C3887 1.366 . S
C3888 C3889 1.414 . S
C3888 C3891 1.499 . S
C3889 H3863 0.950 . S
C3889 C3888 1.414 . S
C3889 C3890 1.374 . S
C3890 H3864 0.950 . S
C3890 C3886 1.385 . S
C3890 C3889 1.374 . S
C3891 C3888 1.499 . S
C3891 C3892 1.373 . S
C3891 C3893 1.389 . S
C3892 H3865 0.950 . S
C3892 C3878 1.377 . S
C3892 C3891 1.373 . S
C3893 C3877 1.377 . S
C3893 C3891 1.389 . S
C3893 C3894 1.524 . S
C3894 C3893 1.524 . S
C3894 C3895 1.397 . S
C3894 C3899 1.363 . S
C3895 H3866 0.950 . S
C3895 C3894 1.397 . S
C3895 C3896 1.334 . S
C3896 H3867 0.950 . S
C3896 C3895 1.334 . S
C3896 C3897 1.287 . S
C3897 C3896 1.287 . S
C3897 C3898 1.524 . S
C3897 H3900 0.999 . S
C3898 H3868 0.950 . S
C3898 C3897 1.524 . S
C3898 C3899 1.415 . S
C3899 H3869 0.950 . S
C3899 C3894 1.363 . S
C3899 C3898 1.415 . S
H3900 C3897 0.999 . S
H3901 C3882 0.913 . S
H3902 C3920 0.951 . S
H3903 C3922 0.951 . S
H3904 C3924 0.950 . S
H3905 C3925 0.950 . S
H3906 C3927 0.950 . S
H3907 C3930 0.950 . S
H3908 C3931 0.950 . S
H3909 C3933 0.950 . S
H3910 C3934 0.950 . S
H3911 C3935 0.951 . S
H3912 C3937 0.951 . S
H3913 C3939 0.950 . S
H3914 C3940 0.950 . S
H3915 C3942 0.950 . S
H3916 C3945 0.950 . S
H3917 C3946 0.950 . S
H3918 C3948 0.950 . S
H3919 C3949 0.950 . S
C3920 H3902 0.951 . S
C3920 C3921 1.366 . S
C3920 C3922 1.388 . S
C3921 C3920 1.366 . S
C3921 C3925 1.385 . S
C3922 H3903 0.951 . S
C3922 C3920 1.388 . S
C3922 C3923 1.366 . S
C3923 C3922 1.366 . S
C3923 C3924 1.414 . S
C3923 C3926 1.499 . S
C3924 H3904 0.950 . S
C3924 C3923 1.414 . S
C3924 C3925 1.374 . S
C3925 H3905 0.950 . S
C3925 C3921 1.385 . S
C3925 C3924 1.374 . S
C3926 C3923 1.499 . S
C3926 C3927 1.373 . S
C3926 C3928 1.389 . S
C3927 H3906 0.950 . S
C3927 C3926 1.373 . S
C3927 C3943 1.377 . S
C3928 C3926 1.389 . S
C3928 C3929 1.524 . S
C3928 C3942 1.377 . S
C3929 C3928 1.524 . S
C3929 C3930 1.397 . S
C3929 C3934 1.363 . S
C3930 H3907 0.950 . S
C3930 C3929 1.397 . S
C3930 C3931 1.334 . S
C3931 H3908 0.950 . S
C3931 C3930 1.334 . S
C3931 C3932 1.287 . S
C3932 C3931 1.287 . S
C3932 C3933 1.524 . S
C3932 H3951 0.913 . S
C3933 H3909 0.950 . S
C3933 C3932 1.524 . S
C3933 C3934 1.415 . S
C3934 H3910 0.950 . S
C3934 C3929 1.363 . S
C3934 C3933 1.415 . S
C3935 H3911 0.951 . S
C3935 C3936 1.366 . S
C3935 C3937 1.388 . S
C3936 C3935 1.366 . S
C3936 C3940 1.385 . S
C3937 H3912 0.951 . S
C3937 C3935 1.388 . S
C3937 C3938 1.366 . S
C3938 C3937 1.366 . S
C3938 C3939 1.414 . S
C3938 C3941 1.499 . S
C3939 H3913 0.950 . S
C3939 C3938 1.414 . S
C3939 C3940 1.374 . S
C3940 H3914 0.950 . S
C3940 C3936 1.385 . S
C3940 C3939 1.374 . S
C3941 C3938 1.499 . S
C3941 C3942 1.373 . S
C3941 C3943 1.389 . S
C3942 H3915 0.950 . S
C3942 C3928 1.377 . S
C3942 C3941 1.373 . S
C3943 C3927 1.377 . S
C3943 C3941 1.389 . S
C3943 C3944 1.524 . S
C3944 C3943 1.524 . S
C3944 C3945 1.397 . S
C3944 C3949 1.363 . S
C3945 H3916 0.950 . S
C3945 C3944 1.397 . S
C3945 C3946 1.334 . S
C3946 H3917 0.950 . S
C3946 C3945 1.334 . S
C3946 C3947 1.287 . S
C3947 C3946 1.287 . S
C3947 C3948 1.524 . S
C3947 H3950 0.999 . S
C3948 H3918 0.950 . S
C3948 C3947 1.524 . S
C3948 C3949 1.415 . S
C3949 H3919 0.950 . S
C3949 C3944 1.363 . S
C3949 C3948 1.415 . S
H3950 C3947 0.999 . S
H3951 C3932 0.913 . S
H3952 C3970 0.951 . S
H3953 C3972 0.951 . S
H3954 C3974 0.950 . S
H3955 C3975 0.950 . S
H3956 C3977 0.950 . S
H3957 C3980 0.950 . S
H3958 C3981 0.950 . S
H3959 C3983 0.950 . S
H3960 C3984 0.950 . S
H3961 C3985 0.951 . S
H3962 C3987 0.951 . S
H3963 C3989 0.950 . S
H3964 C3990 0.950 . S
H3965 C3992 0.950 . S
H3966 C3995 0.950 . S
H3967 C3996 0.950 . S
H3968 C3998 0.950 . S
H3969 C3999 0.950 . S
C3970 H3952 0.951 . S
C3970 C3971 1.366 . S
C3970 C3972 1.388 . S
C3971 C3970 1.366 . S
C3971 C3975 1.385 . S
C3972 H3953 0.951 . S
C3972 C3970 1.388 . S
C3972 C3973 1.366 . S
C3973 C3972 1.366 . S
C3973 C3974 1.414 . S
C3973 C3976 1.499 . S
C3974 H3954 0.950 . S
C3974 C3973 1.414 . S
C3974 C3975 1.374 . S
C3975 H3955 0.950 . S
C3975 C3971 1.385 . S
C3975 C3974 1.374 . S
C3976 C3973 1.499 . S
C3976 C3977 1.373 . S
C3976 C3978 1.389 . S
C3977 H3956 0.950 . S
C3977 C3976 1.373 . S
C3977 C3993 1.377 . S
C3978 C3976 1.389 . S
C3978 C3979 1.524 . S
C3978 C3992 1.377 . S
C3979 C3978 1.524 . S
C3979 C3980 1.397 . S
C3979 C3984 1.363 . S
C3980 H3957 0.950 . S
C3980 C3979 1.397 . S
C3980 C3981 1.334 . S
C3981 H3958 0.950 . S
C3981 C3980 1.334 . S
C3981 C3982 1.287 . S
C3982 C3981 1.287 . S
C3982 C3983 1.524 . S
C3982 H4001 0.913 . S
C3983 H3959 0.950 . S
C3983 C3982 1.524 . S
C3983 C3984 1.415 . S
C3984 H3960 0.950 . S
C3984 C3979 1.363 . S
C3984 C3983 1.415 . S
C3985 H3961 0.951 . S
C3985 C3986 1.366 . S
C3985 C3987 1.388 . S
C3986 C3985 1.366 . S
C3986 C3990 1.385 . S
C3987 H3962 0.951 . S
C3987 C3985 1.388 . S
C3987 C3988 1.366 . S
C3988 C3987 1.366 . S
C3988 C3989 1.414 . S
C3988 C3991 1.499 . S
C3989 H3963 0.950 . S
C3989 C3988 1.414 . S
C3989 C3990 1.374 . S
C3990 H3964 0.950 . S
C3990 C3986 1.385 . S
C3990 C3989 1.374 . S
C3991 C3988 1.499 . S
C3991 C3992 1.373 . S
C3991 C3993 1.389 . S
C3992 H3965 0.950 . S
C3992 C3978 1.377 . S
C3992 C3991 1.373 . S
C3993 C3977 1.377 . S
C3993 C3991 1.389 . S
C3993 C3994 1.524 . S
C3994 C3993 1.524 . S
C3994 C3995 1.397 . S
C3994 C3999 1.363 . S
C3995 H3966 0.950 . S
C3995 C3994 1.397 . S
C3995 C3996 1.334 . S
C3996 H3967 0.950 . S
C3996 C3995 1.334 . S
C3996 C3997 1.287 . S
C3997 C3996 1.287 . S
C3997 C3998 1.524 . S
C3997 H4000 0.999 . S
C3998 H3968 0.950 . S
C3998 C3997 1.524 . S
C3998 C3999 1.415 . S
C3999 H3969 0.950 . S
C3999 C3994 1.363 . S
C3999 C3998 1.415 . S
H4000 C3997 0.999 . S
H4001 C3982 0.913 . S
H4002 C4020 0.951 . S
H4003 C4022 0.951 . S
H4004 C4024 0.950 . S
H4005 C4025 0.950 . S
H4006 C4027 0.950 . S
H4007 C4030 0.950 . S
H4008 C4031 0.950 . S
H4009 C4033 0.950 . S
H4010 C4034 0.950 . S
H4011 C4035 0.951 . S
H4012 C4037 0.951 . S
H4013 C4039 0.950 . S
H4014 C4040 0.950 . S
H4015 C4042 0.950 . S
H4016 C4045 0.950 . S
H4017 C4046 0.950 . S
H4018 C4048 0.950 . S
H4019 C4049 0.950 . S
C4020 H4002 0.951 . S
C4020 C4021 1.366 . S
C4020 C4022 1.388 . S
C4021 C4020 1.366 . S
C4021 C4025 1.385 . S
C4022 H4003 0.951 . S
C4022 C4020 1.388 . S
C4022 C4023 1.366 . S
C4023 C4022 1.366 . S
C4023 C4024 1.414 . S
C4023 C4026 1.499 . S
C4024 H4004 0.950 . S
C4024 C4023 1.414 . S
C4024 C4025 1.374 . S
C4025 H4005 0.950 . S
C4025 C4021 1.385 . S
C4025 C4024 1.374 . S
C4026 C4023 1.499 . S
C4026 C4027 1.373 . S
C4026 C4028 1.389 . S
C4027 H4006 0.950 . S
C4027 C4026 1.373 . S
C4027 C4043 1.377 . S
C4028 C4026 1.389 . S
C4028 C4029 1.524 . S
C4028 C4042 1.377 . S
C4029 C4028 1.524 . S
C4029 C4030 1.397 . S
C4029 C4034 1.363 . S
C4030 H4007 0.950 . S
C4030 C4029 1.397 . S
C4030 C4031 1.334 . S
C4031 H4008 0.950 . S
C4031 C4030 1.334 . S
C4031 C4032 1.287 . S
C4032 C4031 1.287 . S
C4032 C4033 1.524 . S
C4032 H4051 0.913 . S
C4033 H4009 0.950 . S
C4033 C4032 1.524 . S
C4033 C4034 1.415 . S
C4034 H4010 0.950 . S
C4034 C4029 1.363 . S
C4034 C4033 1.415 . S
C4035 H4011 0.951 . S
C4035 C4036 1.366 . S
C4035 C4037 1.388 . S
C4036 C4035 1.366 . S
C4036 C4040 1.385 . S
C4037 H4012 0.951 . S
C4037 C4035 1.388 . S
C4037 C4038 1.366 . S
C4038 C4037 1.366 . S
C4038 C4039 1.414 . S
C4038 C4041 1.499 . S
C4039 H4013 0.950 . S
C4039 C4038 1.414 . S
C4039 C4040 1.374 . S
C4040 H4014 0.950 . S
C4040 C4036 1.385 . S
C4040 C4039 1.374 . S
C4041 C4038 1.499 . S
C4041 C4042 1.373 . S
C4041 C4043 1.389 . S
C4042 H4015 0.950 . S
C4042 C4028 1.377 . S
C4042 C4041 1.373 . S
C4043 C4027 1.377 . S
C4043 C4041 1.389 . S
C4043 C4044 1.524 . S
C4044 C4043 1.524 . S
C4044 C4045 1.397 . S
C4044 C4049 1.363 . S
C4045 H4016 0.950 . S
C4045 C4044 1.397 . S
C4045 C4046 1.334 . S
C4046 H4017 0.950 . S
C4046 C4045 1.334 . S
C4046 C4047 1.287 . S
C4047 C4046 1.287 . S
C4047 C4048 1.524 . S
C4047 H4050 0.999 . S
C4048 H4018 0.950 . S
C4048 C4047 1.524 . S
C4048 C4049 1.415 . S
C4049 H4019 0.950 . S
C4049 C4044 1.363 . S
C4049 C4048 1.415 . S
H4050 C4047 0.999 . S
H4051 C4032 0.913 . S
H4052 C4070 0.951 . S
H4053 C4072 0.951 . S
H4054 C4074 0.950 . S
H4055 C4075 0.950 . S
H4056 C4077 0.950 . S
H4057 C4080 0.950 . S
H4058 C4081 0.950 . S
H4059 C4083 0.950 . S
H4060 C4084 0.950 . S
H4061 C4085 0.951 . S
H4062 C4087 0.951 . S
H4063 C4089 0.950 . S
H4064 C4090 0.950 . S
H4065 C4092 0.950 . S
H4066 C4095 0.950 . S
H4067 C4096 0.950 . S
H4068 C4098 0.950 . S
H4069 C4099 0.950 . S
C4070 H4052 0.951 . S
C4070 C4071 1.366 . S
C4070 C4072 1.388 . S
C4071 C4070 1.366 . S
C4071 C4075 1.385 . S
C4072 H4053 0.951 . S
C4072 C4070 1.388 . S
C4072 C4073 1.366 . S
C4073 C4072 1.366 . S
C4073 C4074 1.414 . S
C4073 C4076 1.499 . S
C4074 H4054 0.950 . S
C4074 C4073 1.414 . S
C4074 C4075 1.374 . S
C4075 H4055 0.950 . S
C4075 C4071 1.385 . S
C4075 C4074 1.374 . S
C4076 C4073 1.499 . S
C4076 C4077 1.373 . S
C4076 C4078 1.389 . S
C4077 H4056 0.950 . S
C4077 C4076 1.373 . S
C4077 C4093 1.377 . S
C4078 C4076 1.389 . S
C4078 C4079 1.524 . S
C4078 C4092 1.377 . S
C4079 C4078 1.524 . S
C4079 C4080 1.397 . S
C4079 C4084 1.363 . S
C4080 H4057 0.950 . S
C4080 C4079 1.397 . S
C4080 C4081 1.334 . S
C4081 H4058 0.950 . S
C4081 C4080 1.334 . S
C4081 C4082 1.287 . S
C4082 C4081 1.287 . S
C4082 C4083 1.524 . S
C4082 H4101 0.913 . S
C4083 H4059 0.950 . S
C4083 C4082 1.524 . S
C4083 C4084 1.415 . S
C4084 H4060 0.950 . S
C4084 C4079 1.363 . S
C4084 C4083 1.415 . S
C4085 H4061 0.951 . S
C4085 C4086 1.366 . S
C4085 C4087 1.388 . S
C4086 C4085 1.366 . S
C4086 C4090 1.385 . S
C4087 H4062 0.951 . S
C4087 C4085 1.388 . S
C4087 C4088 1.366 . S
C4088 C4087 1.366 . S
C4088 C4089 1.414 . S
C4088 C4091 1.499 . S
C4089 H4063 0.950 . S
C4089 C4088 1.414 . S
C4089 C4090 1.374 . S
C4090 H4064 0.950 . S
C4090 C4086 1.385 . S
C4090 C4089 1.374 . S
C4091 C4088 1.499 . S
C4091 C4092 1.373 . S
C4091 C4093 1.389 . S
C4092 H4065 0.950 . S
C4092 C4078 1.377 . S
C4092 C4091 1.373 . S
C4093 C4077 1.377 . S
C4093 C4091 1.389 . S
C4093 C4094 1.524 . S
C4094 C4093 1.524 . S
C4094 C4095 1.397 . S
C4094 C4099 1.363 . S
C4095 H4066 0.950 . S
C4095 C4094 1.397 . S
C4095 C4096 1.334 . S
C4096 H4067 0.950 . S
C4096 C4095 1.334 . S
C4096 C4097 1.287 . S
C4097 C4096 1.287 . S
C4097 C4098 1.524 . S
C4097 H4100 0.999 . S
C4098 H4068 0.950 . S
C4098 C4097 1.524 . S
C4098 C4099 1.415 . S
C4099 H4069 0.950 . S
C4099 C4094 1.363 . S
C4099 C4098 1.415 . S
H4100 C4097 0.999 . S
H4101 C4082 0.913 . S
H4102 C4120 0.951 . S
H4103 C4122 0.951 . S
H4104 C4124 0.950 . S
H4105 C4125 0.950 . S
H4106 C4127 0.950 . S
H4107 C4130 0.950 . S
H4108 C4131 0.950 . S
H4109 C4133 0.950 . S
H4110 C4134 0.950 . S
H4111 C4135 0.951 . S
H4112 C4137 0.951 . S
H4113 C4139 0.950 . S
H4114 C4140 0.950 . S
H4115 C4142 0.950 . S
H4116 C4145 0.950 . S
H4117 C4146 0.950 . S
H4118 C4148 0.950 . S
H4119 C4149 0.950 . S
C4120 H4102 0.951 . S
C4120 C4121 1.366 . S
C4120 C4122 1.388 . S
C4121 C4120 1.366 . S
C4121 C4125 1.385 . S
C4122 H4103 0.951 . S
C4122 C4120 1.388 . S
C4122 C4123 1.366 . S
C4123 C4122 1.366 . S
C4123 C4124 1.414 . S
C4123 C4126 1.499 . S
C4124 H4104 0.950 . S
C4124 C4123 1.414 . S
C4124 C4125 1.374 . S
C4125 H4105 0.950 . S
C4125 C4121 1.385 . S
C4125 C4124 1.374 . S
C4126 C4123 1.499 . S
C4126 C4127 1.373 . S
C4126 C4128 1.389 . S
C4127 H4106 0.950 . S
C4127 C4126 1.373 . S
C4127 C4143 1.377 . S
C4128 C4126 1.389 . S
C4128 C4129 1.524 . S
C4128 C4142 1.377 . S
C4129 C4128 1.524 . S
C4129 C4130 1.397 . S
C4129 C4134 1.363 . S
C4130 H4107 0.950 . S
C4130 C4129 1.397 . S
C4130 C4131 1.334 . S
C4131 H4108 0.950 . S
C4131 C4130 1.334 . S
C4131 C4132 1.287 . S
C4132 C4131 1.287 . S
C4132 C4133 1.524 . S
C4132 H4151 0.913 . S
C4133 H4109 0.950 . S
C4133 C4132 1.524 . S
C4133 C4134 1.415 . S
C4134 H4110 0.950 . S
C4134 C4129 1.363 . S
C4134 C4133 1.415 . S
C4135 H4111 0.951 . S
C4135 C4136 1.366 . S
C4135 C4137 1.388 . S
C4136 C4135 1.366 . S
C4136 C4140 1.385 . S
C4137 H4112 0.951 . S
C4137 C4135 1.388 . S
C4137 C4138 1.366 . S
C4138 C4137 1.366 . S
C4138 C4139 1.414 . S
C4138 C4141 1.499 . S
C4139 H4113 0.950 . S
C4139 C4138 1.414 . S
C4139 C4140 1.374 . S
C4140 H4114 0.950 . S
C4140 C4136 1.385 . S
C4140 C4139 1.374 . S
C4141 C4138 1.499 . S
C4141 C4142 1.373 . S
C4141 C4143 1.389 . S
C4142 H4115 0.950 . S
C4142 C4128 1.377 . S
C4142 C4141 1.373 . S
C4143 C4127 1.377 . S
C4143 C4141 1.389 . S
C4143 C4144 1.524 . S
C4144 C4143 1.524 . S
C4144 C4145 1.397 . S
C4144 C4149 1.363 . S
C4145 H4116 0.950 . S
C4145 C4144 1.397 . S
C4145 C4146 1.334 . S
C4146 H4117 0.950 . S
C4146 C4145 1.334 . S
C4146 C4147 1.287 . S
C4147 C4146 1.287 . S
C4147 C4148 1.524 . S
C4147 H4150 0.999 . S
C4148 H4118 0.950 . S
C4148 C4147 1.524 . S
C4148 C4149 1.415 . S
C4149 H4119 0.950 . S
C4149 C4144 1.363 . S
C4149 C4148 1.415 . S
H4150 C4147 0.999 . S
H4151 C4132 0.913 . S
H4152 C4170 0.951 . S
H4153 C4172 0.951 . S
H4154 C4174 0.950 . S
H4155 C4175 0.950 . S
H4156 C4177 0.950 . S
H4157 C4180 0.950 . S
H4158 C4181 0.950 . S
H4159 C4183 0.950 . S
H4160 C4184 0.950 . S
H4161 C4185 0.951 . S
H4162 C4187 0.951 . S
H4163 C4189 0.950 . S
H4164 C4190 0.950 . S
H4165 C4192 0.950 . S
H4166 C4195 0.950 . S
H4167 C4196 0.950 . S
H4168 C4198 0.950 . S
H4169 C4199 0.950 . S
C4170 H4152 0.951 . S
C4170 C4171 1.366 . S
C4170 C4172 1.388 . S
C4171 C4170 1.366 . S
C4171 C4175 1.385 . S
C4172 H4153 0.951 . S
C4172 C4170 1.388 . S
C4172 C4173 1.366 . S
C4173 C4172 1.366 . S
C4173 C4174 1.414 . S
C4173 C4176 1.499 . S
C4174 H4154 0.950 . S
C4174 C4173 1.414 . S
C4174 C4175 1.374 . S
C4175 H4155 0.950 . S
C4175 C4171 1.385 . S
C4175 C4174 1.374 . S
C4176 C4173 1.499 . S
C4176 C4177 1.373 . S
C4176 C4178 1.389 . S
C4177 H4156 0.950 . S
C4177 C4176 1.373 . S
C4177 C4193 1.377 . S
C4178 C4176 1.389 . S
C4178 C4179 1.524 . S
C4178 C4192 1.377 . S
C4179 C4178 1.524 . S
C4179 C4180 1.397 . S
C4179 C4184 1.363 . S
C4180 H4157 0.950 . S
C4180 C4179 1.397 . S
C4180 C4181 1.334 . S
C4181 H4158 0.950 . S
C4181 C4180 1.334 . S
C4181 C4182 1.287 . S
C4182 C4181 1.287 . S
C4182 C4183 1.524 . S
C4182 H4201 0.913 . S
C4183 H4159 0.950 . S
C4183 C4182 1.524 . S
C4183 C4184 1.415 . S
C4184 H4160 0.950 . S
C4184 C4179 1.363 . S
C4184 C4183 1.415 . S
C4185 H4161 0.951 . S
C4185 C4186 1.366 . S
C4185 C4187 1.388 . S
C4186 C4185 1.366 . S
C4186 C4190 1.385 . S
C4187 H4162 0.951 . S
C4187 C4185 1.388 . S
C4187 C4188 1.366 . S
C4188 C4187 1.366 . S
C4188 C4189 1.414 . S
C4188 C4191 1.499 . S
C4189 H4163 0.950 . S
C4189 C4188 1.414 . S
C4189 C4190 1.374 . S
C4190 H4164 0.950 . S
C4190 C4186 1.385 . S
C4190 C4189 1.374 . S
C4191 C4188 1.499 . S
C4191 C4192 1.373 . S
C4191 C4193 1.389 . S
C4192 H4165 0.950 . S
C4192 C4178 1.377 . S
C4192 C4191 1.373 . S
C4193 C4177 1.377 . S
C4193 C4191 1.389 . S
C4193 C4194 1.524 . S
C4194 C4193 1.524 . S
C4194 C4195 1.397 . S
C4194 C4199 1.363 . S
C4195 H4166 0.950 . S
C4195 C4194 1.397 . S
C4195 C4196 1.334 . S
C4196 H4167 0.950 . S
C4196 C4195 1.334 . S
C4196 C4197 1.287 . S
C4197 C4196 1.287 . S
C4197 C4198 1.524 . S
C4197 H4200 0.999 . S
C4198 H4168 0.950 . S
C4198 C4197 1.524 . S
C4198 C4199 1.415 . S
C4199 H4169 0.950 . S
C4199 C4194 1.363 . S
C4199 C4198 1.415 . S
H4200 C4197 0.999 . S
H4201 C4182 0.913 . S
H4202 C4220 0.951 . S
H4203 C4222 0.951 . S
H4204 C4224 0.950 . S
H4205 C4225 0.950 . S
H4206 C4227 0.950 . S
H4207 C4230 0.950 . S
H4208 C4231 0.950 . S
H4209 C4233 0.950 . S
H4210 C4234 0.950 . S
H4211 C4235 0.951 . S
H4212 C4237 0.951 . S
H4213 C4239 0.950 . S
H4214 C4240 0.950 . S
H4215 C4242 0.950 . S
H4216 C4245 0.950 . S
H4217 C4246 0.950 . S
H4218 C4248 0.950 . S
H4219 C4249 0.950 . S
C4220 H4202 0.951 . S
C4220 C4221 1.366 . S
C4220 C4222 1.388 . S
C4221 C4220 1.366 . S
C4221 C4225 1.385 . S
C4222 H4203 0.951 . S
C4222 C4220 1.388 . S
C4222 C4223 1.366 . S
C4223 C4222 1.366 . S
C4223 C4224 1.414 . S
C4223 C4226 1.499 . S
C4224 H4204 0.950 . S
C4224 C4223 1.414 . S
C4224 C4225 1.374 . S
C4225 H4205 0.950 . S
C4225 C4221 1.385 . S
C4225 C4224 1.374 . S
C4226 C4223 1.499 . S
C4226 C4227 1.373 . S
C4226 C4228 1.389 . S
C4227 H4206 0.950 . S
C4227 C4226 1.373 . S
C4227 C4243 1.377 . S
C4228 C4226 1.389 . S
C4228 C4229 1.524 . S
C4228 C4242 1.377 . S
C4229 C4228 1.524 . S
C4229 C4230 1.397 . S
C4229 C4234 1.363 . S
C4230 H4207 0.950 . S
C4230 C4229 1.397 . S
C4230 C4231 1.334 . S
C4231 H4208 0.950 . S
C4231 C4230 1.334 . S
C4231 C4232 1.287 . S
C4232 C4231 1.287 . S
C4232 C4233 1.524 . S
C4232 H4251 0.913 . S
C4233 H4209 0.950 . S
C4233 C4232 1.524 . S
C4233 C4234 1.415 . S
C4234 H4210 0.950 . S
C4234 C4229 1.363 . S
C4234 C4233 1.415 . S
C4235 H4211 0.951 . S
C4235 C4236 1.366 . S
C4235 C4237 1.388 . S
C4236 C4235 1.366 . S
C4236 C4240 1.385 . S
C4237 H4212 0.951 . S
C4237 C4235 1.388 . S
C4237 C4238 1.366 . S
C4238 C4237 1.366 . S
C4238 C4239 1.414 . S
C4238 C4241 1.499 . S
C4239 H4213 0.950 . S
C4239 C4238 1.414 . S
C4239 C4240 1.374 . S
C4240 H4214 0.950 . S
C4240 C4236 1.385 . S
C4240 C4239 1.374 . S
C4241 C4238 1.499 . S
C4241 C4242 1.373 . S
C4241 C4243 1.389 . S
C4242 H4215 0.950 . S
C4242 C4228 1.377 . S
C4242 C4241 1.373 . S
C4243 C4227 1.377 . S
C4243 C4241 1.389 . S
C4243 C4244 1.524 . S
C4244 C4243 1.524 . S
C4244 C4245 1.397 . S
C4244 C4249 1.363 . S
C4245 H4216 0.950 . S
C4245 C4244 1.397 . S
C4245 C4246 1.334 . S
C4246 H4217 0.950 . S
C4246 C4245 1.334 . S
C4246 C4247 1.287 . S
C4247 C4246 1.287 . S
C4247 C4248 1.524 . S
C4247 H4250 0.999 . S
C4248 H4218 0.950 . S
C4248 C4247 1.524 . S
C4248 C4249 1.415 . S
C4249 H4219 0.950 . S
C4249 C4244 1.363 . S
C4249 C4248 1.415 . S
H4250 C4247 0.999 . S
H4251 C4232 0.913 . S
H4252 C4270 0.951 . S
H4253 C4272 0.951 . S
H4254 C4274 0.950 . S
H4255 C4275 0.950 . S
H4256 C4277 0.950 . S
H4257 C4280 0.950 . S
H4258 C4281 0.950 . S
H4259 C4283 0.950 . S
H4260 C4284 0.950 . S
H4261 C4285 0.951 . S
H4262 C4287 0.951 . S
H4263 C4289 0.950 . S
H4264 C4290 0.950 . S
H4265 C4292 0.950 . S
H4266 C4295 0.950 . S
H4267 C4296 0.950 . S
H4268 C4298 0.950 . S
H4269 C4299 0.950 . S
C4270 H4252 0.951 . S
C4270 C4271 1.366 . S
C4270 C4272 1.388 . S
C4271 C4270 1.366 . S
C4271 C4275 1.385 . S
C4272 H4253 0.951 . S
C4272 C4270 1.388 . S
C4272 C4273 1.366 . S
C4273 C4272 1.366 . S
C4273 C4274 1.414 . S
C4273 C4276 1.499 . S
C4274 H4254 0.950 . S
C4274 C4273 1.414 . S
C4274 C4275 1.374 . S
C4275 H4255 0.950 . S
C4275 C4271 1.385 . S
C4275 C4274 1.374 . S
C4276 C4273 1.499 . S
C4276 C4277 1.373 . S
C4276 C4278 1.389 . S
C4277 H4256 0.950 . S
C4277 C4276 1.373 . S
C4277 C4293 1.377 . S
C4278 C4276 1.389 . S
C4278 C4279 1.524 . S
C4278 C4292 1.377 . S
C4279 C4278 1.524 . S
C4279 C4280 1.397 . S
C4279 C4284 1.363 . S
C4280 H4257 0.950 . S
C4280 C4279 1.397 . S
C4280 C4281 1.334 . S
C4281 H4258 0.950 . S
C4281 C4280 1.334 . S
C4281 C4282 1.287 . S
C4282 C4281 1.287 . S
C4282 C4283 1.524 . S
C4282 H4301 0.913 . S
C4283 H4259 0.950 . S
C4283 C4282 1.524 . S
C4283 C4284 1.415 . S
C4284 H4260 0.950 . S
C4284 C4279 1.363 . S
C4284 C4283 1.415 . S
C4285 H4261 0.951 . S
C4285 C4286 1.366 . S
C4285 C4287 1.388 . S
C4286 C4285 1.366 . S
C4286 C4290 1.385 . S
C4287 H4262 0.951 . S
C4287 C4285 1.388 . S
C4287 C4288 1.366 . S
C4288 C4287 1.366 . S
C4288 C4289 1.414 . S
C4288 C4291 1.499 . S
C4289 H4263 0.950 . S
C4289 C4288 1.414 . S
C4289 C4290 1.374 . S
C4290 H4264 0.950 . S
C4290 C4286 1.385 . S
C4290 C4289 1.374 . S
C4291 C4288 1.499 . S
C4291 C4292 1.373 . S
C4291 C4293 1.389 . S
C4292 H4265 0.950 . S
C4292 C4278 1.377 . S
C4292 C4291 1.373 . S
C4293 C4277 1.377 . S
C4293 C4291 1.389 . S
C4293 C4294 1.524 . S
C4294 C4293 1.524 . S
C4294 C4295 1.397 . S
C4294 C4299 1.363 . S
C4295 H4266 0.950 . S
C4295 C4294 1.397 . S
C4295 C4296 1.334 . S
C4296 H4267 0.950 . S
C4296 C4295 1.334 . S
C4296 C4297 1.287 . S
C4297 C4296 1.287 . S
C4297 C4298 1.524 . S
C4297 H4300 0.999 . S
C4298 H4268 0.950 . S
C4298 C4297 1.524 . S
C4298 C4299 1.415 . S
C4299 H4269 0.950 . S
C4299 C4294 1.363 . S
C4299 C4298 1.415 . S
H4300 C4297 0.999 . S
H4301 C4282 0.913 . S
H4302 C4320 0.951 1_556 S
H4303 C4322 0.951 1_556 S
H4304 C4324 0.950 . S
H4305 C4325 0.950 . S
H4306 C4327 0.950 . S
H4307 C4330 0.950 . S
H4308 C4331 0.950 . S
H4309 C4333 0.950 . S
H4310 C4334 0.950 . S
H4311 C4335 0.960 . S
H4312 C4337 0.951 . S
H4313 C4339 0.950 1_556 S
H4314 C4340 0.950 1_556 S
H4315 C4342 0.944 1_556 S
H4316 C4345 0.950 . S
H4317 C4346 0.950 . S
H4318 C4348 0.950 . S
H4319 C4349 0.950 . S
C4320 H4302 0.951 1_554 S
C4320 C4321 1.366 . S
C4320 C4322 1.388 . S
C4321 C4320 1.366 . S
C4321 C4325 1.385 . S
C4322 H4303 0.951 1_554 S
C4322 C4320 1.388 . S
C4322 C4323 1.366 . S
C4323 C4322 1.366 . S
C4323 C4324 1.414 . S
C4323 C4326 1.499 . S
C4324 H4304 0.950 . S
C4324 C4323 1.414 . S
C4324 C4325 1.374 . S
C4325 H4305 0.950 . S
C4325 C4321 1.385 . S
C4325 C4324 1.374 . S
C4326 C4323 1.499 . S
C4326 C4327 1.373 . S
C4326 C4328 1.418 . S
C4327 H4306 0.950 . S
C4327 C4326 1.373 . S
C4327 C4343 1.377 . S
C4328 C4326 1.418 . S
C4328 C4329 1.501 1_554 S
C4328 C4342 1.372 . S
C4329 C4328 1.501 1_556 S
C4329 C4330 1.397 . S
C4329 C4334 1.363 . S
C4330 H4307 0.950 . S
C4330 C4329 1.397 . S
C4330 C4331 1.334 . S
C4331 H4308 0.950 . S
C4331 C4330 1.334 . S
C4331 C4332 1.287 . S
C4332 C4331 1.287 . S
C4332 C4333 1.524 . S
C4332 H4351 0.913 . S
C4333 H4309 0.950 . S
C4333 C4332 1.524 . S
C4333 C4334 1.415 . S
C4334 H4310 0.950 . S
C4334 C4329 1.363 . S
C4334 C4333 1.415 . S
C4335 H4311 0.960 . S
C4335 C4336 1.354 1_565 S
C4335 C4337 1.390 . S
C4336 C4335 1.354 1_545 S
C4336 C4340 1.385 . S
C4337 H4312 0.951 . S
C4337 C4335 1.390 . S
C4337 C4338 1.366 . S
C4338 C4337 1.366 . S
C4338 C4339 1.414 1_565 S
C4338 C4341 1.499 . S
C4339 H4313 0.950 1_554 S
C4339 C4338 1.414 1_545 S
C4339 C4340 1.374 . S
C4340 H4314 0.950 1_554 S
C4340 C4336 1.385 . S
C4340 C4339 1.374 . S
C4341 C4338 1.499 . S
C4341 C4342 1.378 . S
C4341 C4343 1.389 . S
C4342 H4315 0.944 1_554 S
C4342 C4328 1.372 . S
C4342 C4341 1.378 . S
C4343 C4327 1.377 . S
C4343 C4341 1.389 . S
C4343 C4344 1.524 1_565 S
C4344 C4343 1.524 1_545 S
C4344 C4345 1.397 . S
C4344 C4349 1.363 1_545 S
C4345 H4316 0.950 . S
C4345 C4344 1.397 . S
C4345 C4346 1.334 . S
C4346 H4317 0.950 . S
C4346 C4345 1.334 . S
C4346 C4347 1.287 . S
C4347 C4346 1.287 . S
C4347 C4348 1.524 . S
C4347 H4350 0.999 . S
C4348 H4318 0.950 . S
C4348 C4347 1.524 . S
C4348 C4349 1.415 1_545 S
C4349 H4319 0.950 . S
C4349 C4344 1.363 1_565 S
C4349 C4348 1.415 1_565 S
H4350 C4347 0.999 . S
H4351 C4332 0.913 . S
H4352 C4370 0.951 . S
H4353 C4372 0.951 . S
H4354 C4374 0.950 . S
H4355 C4375 0.950 . S
H4356 C4377 0.950 . S
H4357 C4380 0.950 . S
H4358 C4381 0.950 . S
H4359 C4383 0.950 . S
H4360 C4384 0.950 . S
H4361 C4385 0.951 . S
H4362 C4387 0.951 . S
H4363 C4389 0.950 . S
H4364 C4390 0.950 . S
H4365 C4392 0.950 . S
H4366 C4395 0.950 . S
H4367 C4396 0.950 . S
H4368 C4398 0.950 . S
H4369 C4399 0.950 . S
C4370 H4352 0.951 . S
C4370 C4371 1.366 . S
C4370 C4372 1.388 . S
C4371 C4370 1.366 . S
C4371 C4375 1.385 . S
C4372 H4353 0.951 . S
C4372 C4370 1.388 . S
C4372 C4373 1.366 . S
C4373 C4372 1.366 . S
C4373 C4374 1.414 . S
C4373 C4376 1.499 . S
C4374 H4354 0.950 . S
C4374 C4373 1.414 . S
C4374 C4375 1.374 . S
C4375 H4355 0.950 . S
C4375 C4371 1.385 . S
C4375 C4374 1.374 . S
C4376 C4373 1.499 . S
C4376 C4377 1.373 . S
C4376 C4378 1.389 . S
C4377 H4356 0.950 . S
C4377 C4376 1.373 . S
C4377 C4393 1.377 . S
C4378 C4376 1.389 . S
C4378 C4379 1.524 . S
C4378 C4392 1.377 . S
C4379 C4378 1.524 . S
C4379 C4380 1.397 . S
C4379 C4384 1.363 . S
C4380 H4357 0.950 . S
C4380 C4379 1.397 . S
C4380 C4381 1.334 . S
C4381 H4358 0.950 . S
C4381 C4380 1.334 . S
C4381 C4382 1.287 . S
C4382 C4381 1.287 . S
C4382 C4383 1.524 . S
C4382 H4401 0.913 . S
C4383 H4359 0.950 . S
C4383 C4382 1.524 . S
C4383 C4384 1.415 . S
C4384 H4360 0.950 . S
C4384 C4379 1.363 . S
C4384 C4383 1.415 . S
C4385 H4361 0.951 . S
C4385 C4386 1.366 . S
C4385 C4387 1.388 . S
C4386 C4385 1.366 . S
C4386 C4390 1.385 . S
C4387 H4362 0.951 . S
C4387 C4385 1.388 . S
C4387 C4388 1.366 . S
C4388 C4387 1.366 . S
C4388 C4389 1.414 . S
C4388 C4391 1.499 . S
C4389 H4363 0.950 . S
C4389 C4388 1.414 . S
C4389 C4390 1.374 . S
C4390 H4364 0.950 . S
C4390 C4386 1.385 . S
C4390 C4389 1.374 . S
C4391 C4388 1.499 . S
C4391 C4392 1.373 . S
C4391 C4393 1.389 . S
C4392 H4365 0.950 . S
C4392 C4378 1.377 . S
C4392 C4391 1.373 . S
C4393 C4377 1.377 . S
C4393 C4391 1.389 . S
C4393 C4394 1.524 . S
C4394 C4393 1.524 . S
C4394 C4395 1.397 . S
C4394 C4399 1.363 . S
C4395 H4366 0.950 . S
C4395 C4394 1.397 . S
C4395 C4396 1.334 . S
C4396 H4367 0.950 . S
C4396 C4395 1.334 . S
C4396 C4397 1.287 . S
C4397 C4396 1.287 . S
C4397 C4398 1.524 . S
C4397 H4400 0.999 . S
C4398 H4368 0.950 . S
C4398 C4397 1.524 . S
C4398 C4399 1.415 . S
C4399 H4369 0.950 . S
C4399 C4394 1.363 . S
C4399 C4398 1.415 . S
H4400 C4397 0.999 . S
H4401 C4382 0.913 . S
H4402 C4420 0.951 . S
H4403 C4422 0.951 . S
H4404 C4424 0.949 1_556 S
H4405 C4425 0.962 . S
H4406 C4427 0.950 . S
H4407 C4430 0.950 . S
H4408 C4431 0.950 . S
H4409 C4433 0.950 . S
H4410 C4434 0.950 . S
H4411 C4435 0.951 . S
H4412 C4437 0.951 . S
H4413 C4439 0.950 . S
H4414 C4440 0.950 . S
H4415 C4442 0.950 . S
H4416 C4445 0.950 . S
H4417 C4446 0.950 . S
H4418 C4448 0.950 . S
H4419 C4449 0.950 . S
C4420 H4402 0.951 . S
C4420 C4421 1.366 . S
C4420 C4422 1.388 . S
C4421 C4420 1.366 . S
C4421 C4425 1.382 1_554 S
C4422 H4403 0.951 . S
C4422 C4420 1.388 . S
C4422 C4423 1.366 . S
C4423 C4422 1.366 . S
C4423 C4424 1.414 . S
C4423 C4426 1.499 . S
C4424 H4404 0.949 1_554 S
C4424 C4423 1.414 . S
C4424 C4425 1.367 1_554 S
C4425 H4405 0.962 . S
C4425 C4421 1.382 1_556 S
C4425 C4424 1.367 1_556 S
C4426 C4423 1.499 . S
C4426 C4427 1.373 . S
C4426 C4428 1.389 . S
C4427 H4406 0.950 . S
C4427 C4426 1.373 . S
C4427 C4443 1.377 . S
C4428 C4426 1.389 . S
C4428 C4429 1.524 1_554 S
C4428 C4442 1.377 . S
C4429 C4428 1.524 1_556 S
C4429 C4430 1.397 . S
C4429 C4434 1.363 1_556 S
C4430 H4407 0.950 . S
C4430 C4429 1.397 . S
C4430 C4431 1.334 . S
C4431 H4408 0.950 . S
C4431 C4430 1.334 . S
C4431 C4432 1.287 . S
C4432 C4431 1.287 . S
C4432 C4433 1.524 . S
C4432 H4451 0.913 . S
C4433 H4409 0.950 . S
C4433 C4432 1.524 . S
C4433 C4434 1.415 1_556 S
C4434 H4410 0.950 . S
C4434 C4429 1.363 1_554 S
C4434 C4433 1.415 1_554 S
C4435 H4411 0.951 . S
C4435 C4436 1.366 . S
C4435 C4437 1.388 . S
C4436 C4435 1.366 . S
C4436 C4440 1.385 . S
C4437 H4412 0.951 . S
C4437 C4435 1.388 . S
C4437 C4438 1.366 . S
C4438 C4437 1.366 . S
C4438 C4439 1.414 . S
C4438 C4441 1.499 . S
C4439 H4413 0.950 . S
C4439 C4438 1.414 . S
C4439 C4440 1.374 . S
C4440 H4414 0.950 . S
C4440 C4436 1.385 . S
C4440 C4439 1.374 . S
C4441 C4438 1.499 . S
C4441 C4442 1.373 . S
C4441 C4443 1.389 . S
C4442 H4415 0.950 . S
C4442 C4428 1.377 . S
C4442 C4441 1.373 . S
C4443 C4427 1.377 . S
C4443 C4441 1.389 . S
C4443 C4444 1.524 . S
C4444 C4443 1.524 . S
C4444 C4445 1.397 . S
C4444 C4449 1.363 . S
C4445 H4416 0.950 . S
C4445 C4444 1.397 . S
C4445 C4446 1.334 . S
C4446 H4417 0.950 . S
C4446 C4445 1.334 . S
C4446 C4447 1.287 . S
C4447 C4446 1.287 . S
C4447 C4448 1.524 . S
C4447 H4450 0.999 . S
C4448 H4418 0.950 . S
C4448 C4447 1.524 . S
C4448 C4449 1.415 . S
C4449 H4419 0.950 . S
C4449 C4444 1.363 . S
C4449 C4448 1.415 . S
H4450 C4447 0.999 . S
H4451 C4432 0.913 . S
H4452 C4470 0.951 . S
H4453 C4472 0.951 . S
H4454 C4474 0.950 . S
H4455 C4475 0.950 . S
H4456 C4477 0.950 . S
H4457 C4480 0.950 . S
H4458 C4481 0.950 . S
H4459 C4483 0.950 . S
H4460 C4484 0.950 . S
H4461 C4485 0.951 . S
H4462 C4487 0.951 . S
H4463 C4489 0.950 . S
H4464 C4490 0.950 . S
H4465 C4492 0.950 . S
H4466 C4495 0.950 . S
H4467 C4496 0.950 . S
H4468 C4498 0.950 . S
H4469 C4499 0.950 . S
C4470 H4452 0.951 . S
C4470 C4471 1.366 . S
C4470 C4472 1.388 . S
C4471 C4470 1.366 . S
C4471 C4475 1.385 . S
C4472 H4453 0.951 . S
C4472 C4470 1.388 . S
C4472 C4473 1.366 . S
C4473 C4472 1.366 . S
C4473 C4474 1.414 . S
C4473 C4476 1.499 . S
C4474 H4454 0.950 . S
C4474 C4473 1.414 . S
C4474 C4475 1.374 . S
C4475 H4455 0.950 . S
C4475 C4471 1.385 . S
C4475 C4474 1.374 . S
C4476 C4473 1.499 . S
C4476 C4477 1.373 . S
C4476 C4478 1.389 . S
C4477 H4456 0.950 . S
C4477 C4476 1.373 . S
C4477 C4493 1.377 . S
C4478 C4476 1.389 . S
C4478 C4479 1.524 . S
C4478 C4492 1.377 . S
C4479 C4478 1.524 . S
C4479 C4480 1.397 . S
C4479 C4484 1.363 . S
C4480 H4457 0.950 . S
C4480 C4479 1.397 . S
C4480 C4481 1.334 . S
C4481 H4458 0.950 . S
C4481 C4480 1.334 . S
C4481 C4482 1.287 . S
C4482 C4481 1.287 . S
C4482 C4483 1.524 . S
C4482 H4501 0.913 . S
C4483 H4459 0.950 . S
C4483 C4482 1.524 . S
C4483 C4484 1.415 . S
C4484 H4460 0.950 . S
C4484 C4479 1.363 . S
C4484 C4483 1.415 . S
C4485 H4461 0.951 . S
C4485 C4486 1.366 . S
C4485 C4487 1.388 . S
C4486 C4485 1.366 . S
C4486 C4490 1.385 . S
C4487 H4462 0.951 . S
C4487 C4485 1.388 . S
C4487 C4488 1.366 . S
C4488 C4487 1.366 . S
C4488 C4489 1.414 . S
C4488 C4491 1.499 . S
C4489 H4463 0.950 . S
C4489 C4488 1.414 . S
C4489 C4490 1.374 . S
C4490 H4464 0.950 . S
C4490 C4486 1.385 . S
C4490 C4489 1.374 . S
C4491 C4488 1.499 . S
C4491 C4492 1.373 . S
C4491 C4493 1.389 . S
C4492 H4465 0.950 . S
C4492 C4478 1.377 . S
C4492 C4491 1.373 . S
C4493 C4477 1.377 . S
C4493 C4491 1.389 . S
C4493 C4494 1.524 . S
C4494 C4493 1.524 . S
C4494 C4495 1.397 . S
C4494 C4499 1.363 . S
C4495 H4466 0.950 . S
C4495 C4494 1.397 . S
C4495 C4496 1.334 . S
C4496 H4467 0.950 . S
C4496 C4495 1.334 . S
C4496 C4497 1.287 . S
C4497 C4496 1.287 . S
C4497 C4498 1.524 . S
C4497 H4500 0.999 . S
C4498 H4468 0.950 . S
C4498 C4497 1.524 . S
C4498 C4499 1.415 . S
C4499 H4469 0.950 . S
C4499 C4494 1.363 . S
C4499 C4498 1.415 . S
H4500 C4497 0.999 . S
H4501 C4482 0.913 . S
H4502 C4520 0.951 . S
H4503 C4522 0.951 . S
H4504 C4524 0.950 . S
H4505 C4525 0.950 . S
H4506 C4527 0.950 . S
H4507 C4530 0.950 . S
H4508 C4531 0.950 . S
H4509 C4533 0.950 . S
H4510 C4534 0.950 . S
H4511 C4535 0.951 . S
H4512 C4537 0.951 . S
H4513 C4539 0.950 . S
H4514 C4540 0.950 . S
H4515 C4542 0.950 . S
H4516 C4545 0.950 . S
H4517 C4546 0.950 . S
H4518 C4548 0.950 . S
H4519 C4549 0.950 . S
C4520 H4502 0.951 . S
C4520 C4521 1.366 . S
C4520 C4522 1.388 . S
C4521 C4520 1.366 . S
C4521 C4525 1.385 . S
C4522 H4503 0.951 . S
C4522 C4520 1.388 . S
C4522 C4523 1.366 . S
C4523 C4522 1.366 . S
C4523 C4524 1.414 . S
C4523 C4526 1.499 . S
C4524 H4504 0.950 . S
C4524 C4523 1.414 . S
C4524 C4525 1.374 . S
C4525 H4505 0.950 . S
C4525 C4521 1.385 . S
C4525 C4524 1.374 . S
C4526 C4523 1.499 . S
C4526 C4527 1.373 . S
C4526 C4528 1.389 . S
C4527 H4506 0.950 . S
C4527 C4526 1.373 . S
C4527 C4543 1.377 . S
C4528 C4526 1.389 . S
C4528 C4529 1.524 . S
C4528 C4542 1.377 . S
C4529 C4528 1.524 . S
C4529 C4530 1.397 . S
C4529 C4534 1.363 . S
C4530 H4507 0.950 . S
C4530 C4529 1.397 . S
C4530 C4531 1.334 . S
C4531 H4508 0.950 . S
C4531 C4530 1.334 . S
C4531 C4532 1.287 . S
C4532 C4531 1.287 . S
C4532 C4533 1.524 . S
C4532 H4551 0.913 . S
C4533 H4509 0.950 . S
C4533 C4532 1.524 . S
C4533 C4534 1.415 . S
C4534 H4510 0.950 . S
C4534 C4529 1.363 . S
C4534 C4533 1.415 . S
C4535 H4511 0.951 . S
C4535 C4536 1.366 . S
C4535 C4537 1.388 . S
C4536 C4535 1.366 . S
C4536 C4540 1.385 . S
C4537 H4512 0.951 . S
C4537 C4535 1.388 . S
C4537 C4538 1.366 . S
C4538 C4537 1.366 . S
C4538 C4539 1.414 . S
C4538 C4541 1.499 . S
C4539 H4513 0.950 . S
C4539 C4538 1.414 . S
C4539 C4540 1.374 . S
C4540 H4514 0.950 . S
C4540 C4536 1.385 . S
C4540 C4539 1.374 . S
C4541 C4538 1.499 . S
C4541 C4542 1.373 . S
C4541 C4543 1.389 . S
C4542 H4515 0.950 . S
C4542 C4528 1.377 . S
C4542 C4541 1.373 . S
C4543 C4527 1.377 . S
C4543 C4541 1.389 . S
C4543 C4544 1.524 . S
C4544 C4543 1.524 . S
C4544 C4545 1.397 . S
C4544 C4549 1.363 . S
C4545 H4516 0.950 . S
C4545 C4544 1.397 . S
C4545 C4546 1.334 . S
C4546 H4517 0.950 . S
C4546 C4545 1.334 . S
C4546 C4547 1.287 . S
C4547 C4546 1.287 . S
C4547 C4548 1.524 . S
C4547 H4550 0.999 . S
C4548 H4518 0.950 . S
C4548 C4547 1.524 . S
C4548 C4549 1.415 . S
C4549 H4519 0.950 . S
C4549 C4544 1.363 . S
C4549 C4548 1.415 . S
H4550 C4547 0.999 . S
H4551 C4532 0.913 . S
H4552 C4570 0.951 . S
H4553 C4572 0.951 . S
H4554 C4574 0.950 . S
H4555 C4575 0.950 . S
H4556 C4577 0.950 . S
H4557 C4580 0.950 . S
H4558 C4581 0.950 . S
H4559 C4583 0.950 . S
H4560 C4584 0.950 . S
H4561 C4585 0.951 . S
H4562 C4587 0.951 . S
H4563 C4589 0.950 . S
H4564 C4590 0.950 . S
H4565 C4592 0.950 . S
H4566 C4595 0.950 . S
H4567 C4596 0.950 . S
H4568 C4598 0.950 . S
H4569 C4599 0.950 . S
C4570 H4552 0.951 . S
C4570 C4571 1.366 . S
C4570 C4572 1.388 . S
C4571 C4570 1.366 . S
C4571 C4575 1.385 . S
C4572 H4553 0.951 . S
C4572 C4570 1.388 . S
C4572 C4573 1.366 . S
C4573 C4572 1.366 . S
C4573 C4574 1.414 . S
C4573 C4576 1.499 . S
C4574 H4554 0.950 . S
C4574 C4573 1.414 . S
C4574 C4575 1.374 . S
C4575 H4555 0.950 . S
C4575 C4571 1.385 . S
C4575 C4574 1.374 . S
C4576 C4573 1.499 . S
C4576 C4577 1.373 . S
C4576 C4578 1.389 . S
C4577 H4556 0.950 . S
C4577 C4576 1.373 . S
C4577 C4593 1.377 . S
C4578 C4576 1.389 . S
C4578 C4579 1.524 . S
C4578 C4592 1.377 . S
C4579 C4578 1.524 . S
C4579 C4580 1.397 . S
C4579 C4584 1.363 . S
C4580 H4557 0.950 . S
C4580 C4579 1.397 . S
C4580 C4581 1.334 . S
C4581 H4558 0.950 . S
C4581 C4580 1.334 . S
C4581 C4582 1.287 . S
C4582 C4581 1.287 . S
C4582 C4583 1.524 . S
C4582 H4601 0.913 . S
C4583 H4559 0.950 . S
C4583 C4582 1.524 . S
C4583 C4584 1.415 . S
C4584 H4560 0.950 . S
C4584 C4579 1.363 . S
C4584 C4583 1.415 . S
C4585 H4561 0.951 . S
C4585 C4586 1.366 . S
C4585 C4587 1.388 . S
C4586 C4585 1.366 . S
C4586 C4590 1.385 . S
C4587 H4562 0.951 . S
C4587 C4585 1.388 . S
C4587 C4588 1.366 . S
C4588 C4587 1.366 . S
C4588 C4589 1.414 . S
C4588 C4591 1.499 . S
C4589 H4563 0.950 . S
C4589 C4588 1.414 . S
C4589 C4590 1.374 . S
C4590 H4564 0.950 . S
C4590 C4586 1.385 . S
C4590 C4589 1.374 . S
C4591 C4588 1.499 . S
C4591 C4592 1.373 . S
C4591 C4593 1.389 . S
C4592 H4565 0.950 . S
C4592 C4578 1.377 . S
C4592 C4591 1.373 . S
C4593 C4577 1.377 . S
C4593 C4591 1.389 . S
C4593 C4594 1.524 . S
C4594 C4593 1.524 . S
C4594 C4595 1.397 . S
C4594 C4599 1.363 . S
C4595 H4566 0.950 . S
C4595 C4594 1.397 . S
C4595 C4596 1.334 . S
C4596 H4567 0.950 . S
C4596 C4595 1.334 . S
C4596 C4597 1.287 . S
C4597 C4596 1.287 . S
C4597 C4598 1.524 . S
C4597 H4600 0.999 . S
C4598 H4568 0.950 . S
C4598 C4597 1.524 . S
C4598 C4599 1.415 . S
C4599 H4569 0.950 . S
C4599 C4594 1.363 . S
C4599 C4598 1.415 . S
H4600 C4597 0.999 . S
H4601 C4582 0.913 . S
H4602 C4620 0.951 . S
H4603 C4622 0.951 . S
H4604 C4624 0.950 . S
H4605 C4625 0.950 . S
H4606 C4627 0.950 . S
H4607 C4630 0.950 . S
H4608 C4631 0.950 . S
H4609 C4633 0.950 . S
H4610 C4634 0.950 . S
H4611 C4635 0.951 . S
H4612 C4637 0.951 . S
H4613 C4639 0.950 . S
H4614 C4640 0.950 . S
H4615 C4642 0.950 . S
H4616 C4645 0.950 . S
H4617 C4646 0.950 . S
H4618 C4648 0.950 . S
H4619 C4649 0.950 . S
C4620 H4602 0.951 . S
C4620 C4621 1.366 . S
C4620 C4622 1.388 . S
C4621 C4620 1.366 . S
C4621 C4625 1.385 . S
C4622 H4603 0.951 . S
C4622 C4620 1.388 . S
C4622 C4623 1.366 . S
C4623 C4622 1.366 . S
C4623 C4624 1.414 . S
C4623 C4626 1.499 . S
C4624 H4604 0.950 . S
C4624 C4623 1.414 . S
C4624 C4625 1.374 . S
C4625 H4605 0.950 . S
C4625 C4621 1.385 . S
C4625 C4624 1.374 . S
C4626 C4623 1.499 . S
C4626 C4627 1.373 . S
C4626 C4628 1.389 . S
C4627 H4606 0.950 . S
C4627 C4626 1.373 . S
C4627 C4643 1.377 . S
C4628 C4626 1.389 . S
C4628 C4629 1.524 . S
C4628 C4642 1.377 . S
C4629 C4628 1.524 . S
C4629 C4630 1.397 . S
C4629 C4634 1.363 . S
C4630 H4607 0.950 . S
C4630 C4629 1.397 . S
C4630 C4631 1.334 . S
C4631 H4608 0.950 . S
C4631 C4630 1.334 . S
C4631 C4632 1.287 . S
C4632 C4631 1.287 . S
C4632 C4633 1.524 . S
C4632 H4651 0.913 . S
C4633 H4609 0.950 . S
C4633 C4632 1.524 . S
C4633 C4634 1.415 . S
C4634 H4610 0.950 . S
C4634 C4629 1.363 . S
C4634 C4633 1.415 . S
C4635 H4611 0.951 . S
C4635 C4636 1.366 . S
C4635 C4637 1.388 . S
C4636 C4635 1.366 . S
C4636 C4640 1.385 . S
C4637 H4612 0.951 . S
C4637 C4635 1.388 . S
C4637 C4638 1.366 . S
C4638 C4637 1.366 . S
C4638 C4639 1.414 . S
C4638 C4641 1.499 . S
C4639 H4613 0.950 . S
C4639 C4638 1.414 . S
C4639 C4640 1.374 . S
C4640 H4614 0.950 . S
C4640 C4636 1.385 . S
C4640 C4639 1.374 . S
C4641 C4638 1.499 . S
C4641 C4642 1.373 . S
C4641 C4643 1.389 . S
C4642 H4615 0.950 . S
C4642 C4628 1.377 . S
C4642 C4641 1.373 . S
C4643 C4627 1.377 . S
C4643 C4641 1.389 . S
C4643 C4644 1.524 . S
C4644 C4643 1.524 . S
C4644 C4645 1.397 . S
C4644 C4649 1.363 . S
C4645 H4616 0.950 . S
C4645 C4644 1.397 . S
C4645 C4646 1.334 . S
C4646 H4617 0.950 . S
C4646 C4645 1.334 . S
C4646 C4647 1.287 . S
C4647 C4646 1.287 . S
C4647 C4648 1.524 . S
C4647 H4650 0.999 . S
C4648 H4618 0.950 . S
C4648 C4647 1.524 . S
C4648 C4649 1.415 . S
C4649 H4619 0.950 . S
C4649 C4644 1.363 . S
C4649 C4648 1.415 . S
H4650 C4647 0.999 . S
H4651 C4632 0.913 . S
H4652 C4670 0.951 . S
H4653 C4672 0.951 . S
H4654 C4674 0.950 . S
H4655 C4675 0.950 . S
H4656 C4677 0.950 . S
H4657 C4680 0.950 . S
H4658 C4681 0.950 . S
H4659 C4683 0.950 . S
H4660 C4684 0.950 . S
H4661 C4685 0.951 . S
H4662 C4687 0.951 . S
H4663 C4689 0.950 . S
H4664 C4690 0.952 1_556 S
H4665 C4692 0.950 . S
H4666 C4695 0.950 . S
H4667 C4696 0.950 1_556 S
H4668 C4698 0.950 . S
H4669 C4699 0.950 . S
C4670 H4652 0.951 . S
C4670 C4671 1.366 . S
C4670 C4672 1.388 . S
C4671 C4670 1.366 . S
C4671 C4675 1.385 . S
C4672 H4653 0.951 . S
C4672 C4670 1.388 . S
C4672 C4673 1.366 . S
C4673 C4672 1.366 . S
C4673 C4674 1.414 . S
C4673 C4676 1.499 . S
C4674 H4654 0.950 . S
C4674 C4673 1.414 . S
C4674 C4675 1.374 . S
C4675 H4655 0.950 . S
C4675 C4671 1.385 . S
C4675 C4674 1.374 . S
C4676 C4673 1.499 . S
C4676 C4677 1.373 . S
C4676 C4678 1.389 . S
C4677 H4656 0.950 . S
C4677 C4676 1.373 . S
C4677 C4693 1.377 . S
C4678 C4676 1.389 . S
C4678 C4679 1.524 . S
C4678 C4692 1.377 . S
C4679 C4678 1.524 . S
C4679 C4680 1.397 . S
C4679 C4684 1.363 . S
C4680 H4657 0.950 . S
C4680 C4679 1.397 . S
C4680 C4681 1.334 . S
C4681 H4658 0.950 . S
C4681 C4680 1.334 . S
C4681 C4682 1.287 1_455 S
C4682 C4681 1.287 1_655 S
C4682 C4683 1.524 . S
C4682 H4701 0.913 . S
C4683 H4659 0.950 . S
C4683 C4682 1.524 . S
C4683 C4684 1.415 1_655 S
C4684 H4660 0.950 . S
C4684 C4679 1.363 . S
C4684 C4683 1.415 1_455 S
C4685 H4661 0.951 . S
C4685 C4686 1.366 . S
C4685 C4687 1.388 . S
C4686 C4685 1.366 . S
C4686 C4690 1.385 . S
C4687 H4662 0.951 . S
C4687 C4685 1.388 . S
C4687 C4688 1.366 . S
C4688 C4687 1.366 . S
C4688 C4689 1.414 . S
C4688 C4691 1.499 . S
C4689 H4663 0.950 . S
C4689 C4688 1.414 . S
C4689 C4690 1.374 . S
C4690 H4664 0.952 1_554 S
C4690 C4686 1.385 . S
C4690 C4689 1.374 . S
C4691 C4688 1.499 . S
C4691 C4692 1.373 . S
C4691 C4693 1.389 . S
C4692 H4665 0.950 . S
C4692 C4678 1.377 . S
C4692 C4691 1.373 . S
C4693 C4677 1.377 . S
C4693 C4691 1.389 . S
C4693 C4694 1.524 . S
C4694 C4693 1.524 . S
C4694 C4695 1.397 . S
C4694 C4699 1.363 . S
C4695 H4666 0.950 . S
C4695 C4694 1.397 . S
C4695 C4696 1.334 . S
C4696 H4667 0.950 1_554 S
C4696 C4695 1.334 . S
C4696 C4697 1.287 . S
C4697 C4696 1.287 . S
C4697 C4698 1.524 . S
C4697 H4700 0.999 . S
C4698 H4668 0.950 . S
C4698 C4697 1.524 . S
C4698 C4699 1.415 . S
C4699 H4669 0.950 . S
C4699 C4694 1.363 . S
C4699 C4698 1.415 . S
H4700 C4697 0.999 . S
H4701 C4682 0.913 . S
H4702 C4720 0.951 . S
H4703 C4722 0.951 . S
H4704 C4724 0.950 . S
H4705 C4725 0.950 . S
H4706 C4727 0.950 . S
H4707 C4730 0.950 . S
H4708 C4731 0.950 . S
H4709 C4733 0.950 . S
H4710 C4734 0.950 . S
H4711 C4735 0.951 . S
H4712 C4737 0.951 . S
H4713 C4739 0.950 . S
H4714 C4740 0.950 . S
H4715 C4742 0.950 . S
H4716 C4745 0.950 . S
H4717 C4746 0.950 . S
H4718 C4748 0.950 . S
H4719 C4749 0.950 . S
C4720 H4702 0.951 . S
C4720 C4721 1.366 . S
C4720 C4722 1.388 . S
C4721 C4720 1.366 . S
C4721 C4725 1.385 . S
C4722 H4703 0.951 . S
C4722 C4720 1.388 . S
C4722 C4723 1.366 . S
C4723 C4722 1.366 . S
C4723 C4724 1.414 . S
C4723 C4726 1.499 . S
C4724 H4704 0.950 . S
C4724 C4723 1.414 . S
C4724 C4725 1.374 . S
C4725 H4705 0.950 . S
C4725 C4721 1.385 . S
C4725 C4724 1.374 . S
C4726 C4723 1.499 . S
C4726 C4727 1.373 . S
C4726 C4728 1.389 . S
C4727 H4706 0.950 . S
C4727 C4726 1.373 . S
C4727 C4743 1.377 . S
C4728 C4726 1.389 . S
C4728 C4729 1.524 . S
C4728 C4742 1.377 . S
C4729 C4728 1.524 . S
C4729 C4730 1.397 . S
C4729 C4734 1.363 . S
C4730 H4707 0.950 . S
C4730 C4729 1.397 . S
C4730 C4731 1.334 . S
C4731 H4708 0.950 . S
C4731 C4730 1.334 . S
C4731 C4732 1.287 . S
C4732 C4731 1.287 . S
C4732 C4733 1.524 . S
C4732 H4751 0.913 . S
C4733 H4709 0.950 . S
C4733 C4732 1.524 . S
C4733 C4734 1.415 . S
C4734 H4710 0.950 . S
C4734 C4729 1.363 . S
C4734 C4733 1.415 . S
C4735 H4711 0.951 . S
C4735 C4736 1.366 . S
C4735 C4737 1.388 . S
C4736 C4735 1.366 . S
C4736 C4740 1.385 . S
C4737 H4712 0.951 . S
C4737 C4735 1.388 . S
C4737 C4738 1.366 . S
C4738 C4737 1.366 . S
C4738 C4739 1.414 . S
C4738 C4741 1.499 . S
C4739 H4713 0.950 . S
C4739 C4738 1.414 . S
C4739 C4740 1.374 . S
C4740 H4714 0.950 . S
C4740 C4736 1.385 . S
C4740 C4739 1.374 . S
C4741 C4738 1.499 . S
C4741 C4742 1.373 . S
C4741 C4743 1.389 . S
C4742 H4715 0.950 . S
C4742 C4728 1.377 . S
C4742 C4741 1.373 . S
C4743 C4727 1.377 . S
C4743 C4741 1.389 . S
C4743 C4744 1.524 . S
C4744 C4743 1.524 . S
C4744 C4745 1.397 . S
C4744 C4749 1.363 . S
C4745 H4716 0.950 . S
C4745 C4744 1.397 . S
C4745 C4746 1.334 . S
C4746 H4717 0.950 . S
C4746 C4745 1.334 . S
C4746 C4747 1.287 . S
C4747 C4746 1.287 . S
C4747 C4748 1.524 . S
C4747 H4750 0.999 . S
C4748 H4718 0.950 . S
C4748 C4747 1.524 . S
C4748 C4749 1.415 . S
C4749 H4719 0.950 . S
C4749 C4744 1.363 . S
C4749 C4748 1.415 . S
H4750 C4747 0.999 . S
H4751 C4732 0.913 . S
H4752 C4770 0.951 . S
H4753 C4772 0.951 . S
H4754 C4774 0.950 . S
H4755 C4775 0.950 . S
H4756 C4777 0.950 . S
H4757 C4780 0.950 . S
H4758 C4781 0.950 . S
H4759 C4783 0.950 . S
H4760 C4784 0.950 . S
H4761 C4785 0.951 . S
H4762 C4787 0.951 . S
H4763 C4789 0.950 . S
H4764 C4790 0.950 . S
H4765 C4792 0.950 . S
H4766 C4795 0.950 . S
H4767 C4796 0.950 . S
H4768 C4798 0.950 . S
H4769 C4799 0.950 . S
C4770 H4752 0.951 . S
C4770 C4771 1.366 . S
C4770 C4772 1.388 . S
C4771 C4770 1.366 . S
C4771 C4775 1.385 . S
C4772 H4753 0.951 . S
C4772 C4770 1.388 . S
C4772 C4773 1.366 . S
C4773 C4772 1.366 . S
C4773 C4774 1.414 . S
C4773 C4776 1.499 . S
C4774 H4754 0.950 . S
C4774 C4773 1.414 . S
C4774 C4775 1.374 . S
C4775 H4755 0.950 . S
C4775 C4771 1.385 . S
C4775 C4774 1.374 . S
C4776 C4773 1.499 . S
C4776 C4777 1.373 . S
C4776 C4778 1.389 . S
C4777 H4756 0.950 . S
C4777 C4776 1.373 . S
C4777 C4793 1.377 . S
C4778 C4776 1.389 . S
C4778 C4779 1.524 . S
C4778 C4792 1.377 . S
C4779 C4778 1.524 . S
C4779 C4780 1.397 . S
C4779 C4784 1.363 . S
C4780 H4757 0.950 . S
C4780 C4779 1.397 . S
C4780 C4781 1.334 . S
C4781 H4758 0.950 . S
C4781 C4780 1.334 . S
C4781 C4782 1.287 . S
C4782 C4781 1.287 . S
C4782 C4783 1.524 . S
C4782 H4801 0.913 . S
C4783 H4759 0.950 . S
C4783 C4782 1.524 . S
C4783 C4784 1.415 . S
C4784 H4760 0.950 . S
C4784 C4779 1.363 . S
C4784 C4783 1.415 . S
C4785 H4761 0.951 . S
C4785 C4786 1.366 . S
C4785 C4787 1.388 . S
C4786 C4785 1.366 . S
C4786 C4790 1.385 . S
C4787 H4762 0.951 . S
C4787 C4785 1.388 . S
C4787 C4788 1.366 . S
C4788 C4787 1.366 . S
C4788 C4789 1.414 . S
C4788 C4791 1.499 . S
C4789 H4763 0.950 . S
C4789 C4788 1.414 . S
C4789 C4790 1.374 . S
C4790 H4764 0.950 . S
C4790 C4786 1.385 . S
C4790 C4789 1.374 . S
C4791 C4788 1.499 . S
C4791 C4792 1.373 . S
C4791 C4793 1.389 . S
C4792 H4765 0.950 . S
C4792 C4778 1.377 . S
C4792 C4791 1.373 . S
C4793 C4777 1.377 . S
C4793 C4791 1.389 . S
C4793 C4794 1.524 . S
C4794 C4793 1.524 . S
C4794 C4795 1.397 . S
C4794 C4799 1.363 . S
C4795 H4766 0.950 . S
C4795 C4794 1.397 . S
C4795 C4796 1.334 1_556 S
C4796 H4767 0.950 . S
C4796 C4795 1.334 1_554 S
C4796 C4797 1.287 . S
C4797 C4796 1.287 . S
C4797 C4798 1.524 . S
C4797 H4800 0.999 . S
C4798 H4768 0.950 . S
C4798 C4797 1.524 . S
C4798 C4799 1.415 1_554 S
C4799 H4769 0.950 . S
C4799 C4794 1.363 . S
C4799 C4798 1.415 1_556 S
H4800 C4797 0.999 . S
H4801 C4782 0.913 . S
H4802 C4820 0.951 . S
H4803 C4822 0.951 . S
H4804 C4824 0.950 . S
H4805 C4825 0.950 . S
H4806 C4827 0.950 . S
H4807 C4830 0.950 . S
H4808 C4831 0.950 . S
H4809 C4833 0.950 . S
H4810 C4834 0.950 . S
H4811 C4835 0.951 . S
H4812 C4837 0.951 . S
H4813 C4839 0.950 . S
H4814 C4840 0.950 . S
H4815 C4842 0.950 . S
H4816 C4845 0.950 . S
H4817 C4846 0.950 . S
H4818 C4848 0.950 . S
H4819 C4849 0.950 . S
C4820 H4802 0.951 . S
C4820 C4821 1.366 . S
C4820 C4822 1.388 . S
C4821 C4820 1.366 . S
C4821 C4825 1.385 . S
C4822 H4803 0.951 . S
C4822 C4820 1.388 . S
C4822 C4823 1.366 . S
C4823 C4822 1.366 . S
C4823 C4824 1.414 . S
C4823 C4826 1.499 . S
C4824 H4804 0.950 . S
C4824 C4823 1.414 . S
C4824 C4825 1.374 . S
C4825 H4805 0.950 . S
C4825 C4821 1.385 . S
C4825 C4824 1.374 . S
C4826 C4823 1.499 . S
C4826 C4827 1.373 . S
C4826 C4828 1.389 . S
C4827 H4806 0.950 . S
C4827 C4826 1.373 . S
C4827 C4843 1.377 . S
C4828 C4826 1.389 . S
C4828 C4829 1.524 . S
C4828 C4842 1.377 . S
C4829 C4828 1.524 . S
C4829 C4830 1.397 . S
C4829 C4834 1.363 . S
C4830 H4807 0.950 . S
C4830 C4829 1.397 . S
C4830 C4831 1.334 . S
C4831 H4808 0.950 . S
C4831 C4830 1.334 . S
C4831 C4832 1.287 . S
C4832 C4831 1.287 . S
C4832 C4833 1.524 . S
C4832 H4851 0.913 . S
C4833 H4809 0.950 . S
C4833 C4832 1.524 . S
C4833 C4834 1.415 . S
C4834 H4810 0.950 . S
C4834 C4829 1.363 . S
C4834 C4833 1.415 . S
C4835 H4811 0.951 . S
C4835 C4836 1.366 . S
C4835 C4837 1.388 . S
C4836 C4835 1.366 . S
C4836 C4840 1.385 . S
C4837 H4812 0.951 . S
C4837 C4835 1.388 . S
C4837 C4838 1.366 . S
C4838 C4837 1.366 . S
C4838 C4839 1.414 . S
C4838 C4841 1.499 . S
C4839 H4813 0.950 . S
C4839 C4838 1.414 . S
C4839 C4840 1.374 . S
C4840 H4814 0.950 . S
C4840 C4836 1.385 . S
C4840 C4839 1.374 . S
C4841 C4838 1.499 . S
C4841 C4842 1.373 . S
C4841 C4843 1.389 . S
C4842 H4815 0.950 . S
C4842 C4828 1.377 . S
C4842 C4841 1.373 . S
C4843 C4827 1.377 . S
C4843 C4841 1.389 . S
C4843 C4844 1.524 . S
C4844 C4843 1.524 . S
C4844 C4845 1.397 . S
C4844 C4849 1.363 . S
C4845 H4816 0.950 . S
C4845 C4844 1.397 . S
C4845 C4846 1.334 . S
C4846 H4817 0.950 . S
C4846 C4845 1.334 . S
C4846 C4847 1.287 . S
C4847 C4846 1.287 . S
C4847 C4848 1.524 . S
C4847 H4850 0.999 . S
C4848 H4818 0.950 . S
C4848 C4847 1.524 . S
C4848 C4849 1.415 . S
C4849 H4819 0.950 . S
C4849 C4844 1.363 . S
C4849 C4848 1.415 . S
H4850 C4847 0.999 . S
H4851 C4832 0.913 . S
H4852 C4870 0.951 . S
H4853 C4872 0.951 . S
H4854 C4874 0.950 . S
H4855 C4875 0.950 . S
H4856 C4877 0.950 . S
H4857 C4880 0.950 . S
H4858 C4881 0.950 . S
H4859 C4883 0.950 . S
H4860 C4884 0.950 . S
H4861 C4885 0.951 . S
H4862 C4887 0.951 . S
H4863 C4889 0.950 . S
H4864 C4890 0.950 . S
H4865 C4892 0.950 . S
H4866 C4895 0.950 . S
H4867 C4896 0.950 . S
H4868 C4898 0.950 . S
H4869 C4899 0.950 . S
C4870 H4852 0.951 . S
C4870 C4871 1.366 . S
C4870 C4872 1.388 . S
C4871 C4870 1.366 . S
C4871 C4875 1.385 . S
C4872 H4853 0.951 . S
C4872 C4870 1.388 . S
C4872 C4873 1.366 . S
C4873 C4872 1.366 . S
C4873 C4874 1.414 . S
C4873 C4876 1.499 . S
C4874 H4854 0.950 . S
C4874 C4873 1.414 . S
C4874 C4875 1.374 . S
C4875 H4855 0.950 . S
C4875 C4871 1.385 . S
C4875 C4874 1.374 . S
C4876 C4873 1.499 . S
C4876 C4877 1.373 . S
C4876 C4878 1.389 . S
C4877 H4856 0.950 . S
C4877 C4876 1.373 . S
C4877 C4893 1.377 . S
C4878 C4876 1.389 . S
C4878 C4879 1.524 . S
C4878 C4892 1.377 . S
C4879 C4878 1.524 . S
C4879 C4880 1.397 . S
C4879 C4884 1.363 . S
C4880 H4857 0.950 . S
C4880 C4879 1.397 . S
C4880 C4881 1.334 . S
C4881 H4858 0.950 . S
C4881 C4880 1.334 . S
C4881 C4882 1.287 . S
C4882 C4881 1.287 . S
C4882 C4883 1.524 . S
C4882 H4901 0.913 . S
C4883 H4859 0.950 . S
C4883 C4882 1.524 . S
C4883 C4884 1.415 . S
C4884 H4860 0.950 . S
C4884 C4879 1.363 . S
C4884 C4883 1.415 . S
C4885 H4861 0.951 . S
C4885 C4886 1.366 . S
C4885 C4887 1.388 . S
C4886 C4885 1.366 . S
C4886 C4890 1.385 . S
C4887 H4862 0.951 . S
C4887 C4885 1.388 . S
C4887 C4888 1.366 . S
C4888 C4887 1.366 . S
C4888 C4889 1.414 . S
C4888 C4891 1.499 . S
C4889 H4863 0.950 . S
C4889 C4888 1.414 . S
C4889 C4890 1.374 . S
C4890 H4864 0.950 . S
C4890 C4886 1.385 . S
C4890 C4889 1.374 . S
C4891 C4888 1.499 . S
C4891 C4892 1.373 . S
C4891 C4893 1.389 . S
C4892 H4865 0.950 . S
C4892 C4878 1.377 . S
C4892 C4891 1.373 . S
C4893 C4877 1.377 . S
C4893 C4891 1.389 . S
C4893 C4894 1.524 . S
C4894 C4893 1.524 . S
C4894 C4895 1.397 . S
C4894 C4899 1.363 . S
C4895 H4866 0.950 . S
C4895 C4894 1.397 . S
C4895 C4896 1.334 . S
C4896 H4867 0.950 . S
C4896 C4895 1.334 . S
C4896 C4897 1.287 . S
C4897 C4896 1.287 . S
C4897 C4898 1.524 . S
C4897 H4900 0.999 . S
C4898 H4868 0.950 . S
C4898 C4897 1.524 . S
C4898 C4899 1.415 . S
C4899 H4869 0.950 . S
C4899 C4894 1.363 . S
C4899 C4898 1.415 . S
H4900 C4897 0.999 . S
H4901 C4882 0.913 . S
H4902 C4920 0.951 . S
H4903 C4922 0.951 . S
H4904 C4924 0.950 . S
H4905 C4925 0.950 . S
H4906 C4927 0.950 . S
H4907 C4930 0.950 . S
H4908 C4931 0.950 . S
H4909 C4933 0.950 . S
H4910 C4934 0.950 . S
H4911 C4935 0.951 . S
H4912 C4937 0.951 . S
H4913 C4939 0.950 . S
H4914 C4940 0.950 . S
H4915 C4942 0.950 . S
H4916 C4945 0.950 . S
H4917 C4946 0.950 . S
H4918 C4948 0.950 . S
H4919 C4949 0.950 . S
C4920 H4902 0.951 . S
C4920 C4921 1.366 . S
C4920 C4922 1.388 . S
C4921 C4920 1.366 . S
C4921 C4925 1.385 . S
C4922 H4903 0.951 . S
C4922 C4920 1.388 . S
C4922 C4923 1.366 . S
C4923 C4922 1.366 . S
C4923 C4924 1.414 . S
C4923 C4926 1.499 . S
C4924 H4904 0.950 . S
C4924 C4923 1.414 . S
C4924 C4925 1.374 . S
C4925 H4905 0.950 . S
C4925 C4921 1.385 . S
C4925 C4924 1.374 . S
C4926 C4923 1.499 . S
C4926 C4927 1.373 . S
C4926 C4928 1.389 . S
C4927 H4906 0.950 . S
C4927 C4926 1.373 . S
C4927 C4943 1.377 . S
C4928 C4926 1.389 . S
C4928 C4929 1.524 . S
C4928 C4942 1.377 . S
C4929 C4928 1.524 . S
C4929 C4930 1.397 . S
C4929 C4934 1.363 . S
C4930 H4907 0.950 . S
C4930 C4929 1.397 . S
C4930 C4931 1.334 . S
C4931 H4908 0.950 . S
C4931 C4930 1.334 . S
C4931 C4932 1.287 . S
C4932 C4931 1.287 . S
C4932 C4933 1.524 . S
C4932 H4951 0.913 . S
C4933 H4909 0.950 . S
C4933 C4932 1.524 . S
C4933 C4934 1.415 . S
C4934 H4910 0.950 . S
C4934 C4929 1.363 . S
C4934 C4933 1.415 . S
C4935 H4911 0.951 . S
C4935 C4936 1.366 . S
C4935 C4937 1.388 . S
C4936 C4935 1.366 . S
C4936 C4940 1.385 . S
C4937 H4912 0.951 . S
C4937 C4935 1.388 . S
C4937 C4938 1.366 . S
C4938 C4937 1.366 . S
C4938 C4939 1.414 . S
C4938 C4941 1.499 . S
C4939 H4913 0.950 . S
C4939 C4938 1.414 . S
C4939 C4940 1.374 . S
C4940 H4914 0.950 . S
C4940 C4936 1.385 . S
C4940 C4939 1.374 . S
C4941 C4938 1.499 . S
C4941 C4942 1.373 . S
C4941 C4943 1.389 . S
C4942 H4915 0.950 . S
C4942 C4928 1.377 . S
C4942 C4941 1.373 . S
C4943 C4927 1.377 . S
C4943 C4941 1.389 . S
C4943 C4944 1.524 . S
C4944 C4943 1.524 . S
C4944 C4945 1.397 . S
C4944 C4949 1.363 . S
C4945 H4916 0.950 . S
C4945 C4944 1.397 . S
C4945 C4946 1.334 . S
C4946 H4917 0.950 . S
C4946 C4945 1.334 . S
C4946 C4947 1.287 . S
C4947 C4946 1.287 . S
C4947 C4948 1.524 . S
C4947 H4950 0.999 . S
C4948 H4918 0.950 . S
C4948 C4947 1.524 . S
C4948 C4949 1.415 . S
C4949 H4919 0.950 . S
C4949 C4944 1.363 . S
C4949 C4948 1.415 . S
H4950 C4947 0.999 . S
H4951 C4932 0.913 . S
H4952 C4970 0.951 . S
H4953 C4972 0.951 . S
H4954 C4974 0.950 . S
H4955 C4975 0.950 . S
H4956 C4977 0.950 . S
H4957 C4980 0.950 . S
H4958 C4981 0.950 . S
H4959 C4983 0.950 . S
H4960 C4984 0.950 . S
H4961 C4985 0.951 . S
H4962 C4987 0.951 . S
H4963 C4989 0.950 . S
H4964 C4990 0.950 . S
H4965 C4992 0.950 . S
H4966 C4995 0.950 . S
H4967 C4996 0.950 . S
H4968 C4998 0.950 . S
H4969 C4999 0.950 . S
C4970 H4952 0.951 . S
C4970 C4971 1.366 . S
C4970 C4972 1.388 . S
C4971 C4970 1.366 . S
C4971 C4975 1.385 . S
C4972 H4953 0.951 . S
C4972 C4970 1.388 . S
C4972 C4973 1.366 . S
C4973 C4972 1.366 . S
C4973 C4974 1.414 . S
C4973 C4976 1.499 . S
C4974 H4954 0.950 . S
C4974 C4973 1.414 . S
C4974 C4975 1.374 . S
C4975 H4955 0.950 . S
C4975 C4971 1.385 . S
C4975 C4974 1.374 . S
C4976 C4973 1.499 . S
C4976 C4977 1.373 . S
C4976 C4978 1.389 . S
C4977 H4956 0.950 . S
C4977 C4976 1.373 . S
C4977 C4993 1.377 . S
C4978 C4976 1.389 . S
C4978 C4979 1.524 . S
C4978 C4992 1.377 . S
C4979 C4978 1.524 . S
C4979 C4980 1.397 . S
C4979 C4984 1.363 . S
C4980 H4957 0.950 . S
C4980 C4979 1.397 . S
C4980 C4981 1.334 . S
C4981 H4958 0.950 . S
C4981 C4980 1.334 . S
C4981 C4982 1.287 . S
C4982 C4981 1.287 . S
C4982 C4983 1.524 . S
C4982 H5001 0.913 . S
C4983 H4959 0.950 . S
C4983 C4982 1.524 . S
C4983 C4984 1.415 . S
C4984 H4960 0.950 . S
C4984 C4979 1.363 . S
C4984 C4983 1.415 . S
C4985 H4961 0.951 . S
C4985 C4986 1.366 . S
C4985 C4987 1.388 . S
C4986 C4985 1.366 . S
C4986 C4990 1.385 . S
C4987 H4962 0.951 . S
C4987 C4985 1.388 . S
C4987 C4988 1.366 . S
C4988 C4987 1.366 . S
C4988 C4989 1.414 . S
C4988 C4991 1.499 . S
C4989 H4963 0.950 . S
C4989 C4988 1.414 . S
C4989 C4990 1.374 . S
C4990 H4964 0.950 . S
C4990 C4986 1.385 . S
C4990 C4989 1.374 . S
C4991 C4988 1.499 . S
C4991 C4992 1.373 . S
C4991 C4993 1.389 . S
C4992 H4965 0.950 . S
C4992 C4978 1.377 . S
C4992 C4991 1.373 . S
C4993 C4977 1.377 . S
C4993 C4991 1.389 . S
C4993 C4994 1.524 . S
C4994 C4993 1.524 . S
C4994 C4995 1.397 . S
C4994 C4999 1.363 . S
C4995 H4966 0.950 . S
C4995 C4994 1.397 . S
C4995 C4996 1.334 . S
C4996 H4967 0.950 . S
C4996 C4995 1.334 . S
C4996 C4997 1.287 . S
C4997 C4996 1.287 . S
C4997 C4998 1.524 . S
C4997 H5000 0.999 . S
C4998 H4968 0.950 . S
C4998 C4997 1.524 . S
C4998 C4999 1.415 . S
C4999 H4969 0.950 . S
C4999 C4994 1.363 . S
C4999 C4998 1.415 . S
H5000 C4997 0.999 . S
H5001 C4982 0.913 . S
H5002 C5020 0.951 . S
H5003 C5022 0.951 . S
H5004 C5024 0.950 . S
H5005 C5025 0.950 . S
H5006 C5027 0.950 . S
H5007 C5030 0.950 . S
H5008 C5031 0.950 . S
H5009 C5033 0.950 . S
H5010 C5034 0.950 . S
H5011 C5035 0.951 . S
H5012 C5037 0.951 . S
H5013 C5039 0.950 . S
H5014 C5040 0.950 . S
H5015 C5042 0.950 . S
H5016 C5045 0.950 . S
H5017 C5046 0.950 . S
H5018 C5048 0.950 . S
H5019 C5049 0.950 . S
C5020 H5002 0.951 . S
C5020 C5021 1.366 . S
C5020 C5022 1.388 . S
C5021 C5020 1.366 . S
C5021 C5025 1.385 . S
C5022 H5003 0.951 . S
C5022 C5020 1.388 . S
C5022 C5023 1.366 . S
C5023 C5022 1.366 . S
C5023 C5024 1.414 . S
C5023 C5026 1.499 . S
C5024 H5004 0.950 . S
C5024 C5023 1.414 . S
C5024 C5025 1.374 . S
C5025 H5005 0.950 . S
C5025 C5021 1.385 . S
C5025 C5024 1.374 . S
C5026 C5023 1.499 . S
C5026 C5027 1.373 . S
C5026 C5028 1.389 . S
C5027 H5006 0.950 . S
C5027 C5026 1.373 . S
C5027 C5043 1.377 . S
C5028 C5026 1.389 . S
C5028 C5029 1.524 . S
C5028 C5042 1.377 . S
C5029 C5028 1.524 . S
C5029 C5030 1.397 . S
C5029 C5034 1.363 . S
C5030 H5007 0.950 . S
C5030 C5029 1.397 . S
C5030 C5031 1.334 . S
C5031 H5008 0.950 . S
C5031 C5030 1.334 . S
C5031 C5032 1.287 . S
C5032 C5031 1.287 . S
C5032 C5033 1.524 . S
C5032 H5051 0.913 . S
C5033 H5009 0.950 . S
C5033 C5032 1.524 . S
C5033 C5034 1.415 . S
C5034 H5010 0.950 . S
C5034 C5029 1.363 . S
C5034 C5033 1.415 . S
C5035 H5011 0.951 . S
C5035 C5036 1.366 . S
C5035 C5037 1.388 . S
C5036 C5035 1.366 . S
C5036 C5040 1.385 . S
C5037 H5012 0.951 . S
C5037 C5035 1.388 . S
C5037 C5038 1.366 . S
C5038 C5037 1.366 . S
C5038 C5039 1.414 . S
C5038 C5041 1.499 . S
C5039 H5013 0.950 . S
C5039 C5038 1.414 . S
C5039 C5040 1.374 . S
C5040 H5014 0.950 . S
C5040 C5036 1.385 . S
C5040 C5039 1.374 . S
C5041 C5038 1.499 . S
C5041 C5042 1.373 . S
C5041 C5043 1.389 . S
C5042 H5015 0.950 . S
C5042 C5028 1.377 . S
C5042 C5041 1.373 . S
C5043 C5027 1.377 . S
C5043 C5041 1.389 . S
C5043 C5044 1.524 . S
C5044 C5043 1.524 . S
C5044 C5045 1.397 . S
C5044 C5049 1.363 . S
C5045 H5016 0.950 . S
C5045 C5044 1.397 . S
C5045 C5046 1.334 . S
C5046 H5017 0.950 . S
C5046 C5045 1.334 . S
C5046 C5047 1.287 . S
C5047 C5046 1.287 . S
C5047 C5048 1.524 . S
C5047 H5050 0.999 . S
C5048 H5018 0.950 . S
C5048 C5047 1.524 . S
C5048 C5049 1.415 . S
C5049 H5019 0.950 . S
C5049 C5044 1.363 . S
C5049 C5048 1.415 . S
H5050 C5047 0.999 . S
H5051 C5032 0.913 . S
H5052 C5070 0.951 . S
H5053 C5072 0.951 . S
H5054 C5074 0.950 . S
H5055 C5075 0.950 . S
H5056 C5077 0.950 . S
H5057 C5080 0.950 . S
H5058 C5081 0.950 . S
H5059 C5083 0.950 . S
H5060 C5084 0.950 . S
H5061 C5085 0.951 1_655 S
H5062 C5087 0.951 . S
H5063 C5089 0.950 . S
H5064 C5090 0.950 . S
H5065 C5092 0.950 1_455 S
H5066 C5095 0.950 . S
H5067 C5096 0.950 . S
H5068 C5098 0.950 . S
H5069 C5099 0.950 . S
C5070 H5052 0.951 . S
C5070 C5071 1.366 . S
C5070 C5072 1.388 . S
C5071 C5070 1.366 . S
C5071 C5075 1.385 . S
C5072 H5053 0.951 . S
C5072 C5070 1.388 . S
C5072 C5073 1.366 . S
C5073 C5072 1.366 . S
C5073 C5074 1.414 . S
C5073 C5076 1.499 . S
C5074 H5054 0.950 . S
C5074 C5073 1.414 . S
C5074 C5075 1.374 . S
C5075 H5055 0.950 . S
C5075 C5071 1.385 . S
C5075 C5074 1.374 . S
C5076 C5073 1.499 . S
C5076 C5077 1.373 . S
C5076 C5078 1.389 . S
C5077 H5056 0.950 . S
C5077 C5076 1.373 . S
C5077 C5093 1.377 . S
C5078 C5076 1.389 . S
C5078 C5079 1.524 . S
C5078 C5092 1.377 . S
C5079 C5078 1.524 . S
C5079 C5080 1.397 . S
C5079 C5084 1.363 1_655 S
C5080 H5057 0.950 . S
C5080 C5079 1.397 . S
C5080 C5081 1.334 . S
C5081 H5058 0.950 . S
C5081 C5080 1.334 . S
C5081 C5082 1.287 1_655 S
C5082 C5081 1.287 1_455 S
C5082 C5083 1.524 . S
C5082 H5101 0.913 . S
C5083 H5059 0.950 . S
C5083 C5082 1.524 . S
C5083 C5084 1.415 . S
C5084 H5060 0.950 . S
C5084 C5079 1.363 1_455 S
C5084 C5083 1.415 . S
C5085 H5061 0.951 1_455 S
C5085 C5086 1.366 . S
C5085 C5087 1.388 1_455 S
C5086 C5085 1.366 . S
C5086 C5090 1.385 . S
C5087 H5062 0.951 . S
C5087 C5085 1.388 1_655 S
C5087 C5088 1.366 1_655 S
C5088 C5087 1.366 1_455 S
C5088 C5089 1.414 . S
C5088 C5091 1.499 1_455 S
C5089 H5063 0.950 . S
C5089 C5088 1.414 . S
C5089 C5090 1.374 . S
C5090 H5064 0.950 . S
C5090 C5086 1.385 . S
C5090 C5089 1.374 . S
C5091 C5088 1.499 1_655 S
C5091 C5092 1.373 . S
C5091 C5093 1.389 . S
C5092 H5065 0.950 1_655 S
C5092 C5078 1.377 . S
C5092 C5091 1.373 . S
C5093 C5077 1.377 . S
C5093 C5091 1.389 . S
C5093 C5094 1.524 . S
C5094 C5093 1.524 . S
C5094 C5095 1.397 . S
C5094 C5099 1.363 . S
C5095 H5066 0.950 . S
C5095 C5094 1.397 . S
C5095 C5096 1.334 . S
C5096 H5067 0.950 . S
C5096 C5095 1.334 . S
C5096 C5097 1.287 . S
C5097 C5096 1.287 . S
C5097 C5098 1.524 . S
C5097 H5100 0.999 . S
C5098 H5068 0.950 . S
C5098 C5097 1.524 . S
C5098 C5099 1.415 . S
C5099 H5069 0.950 . S
C5099 C5094 1.363 . S
C5099 C5098 1.415 . S
H5100 C5097 0.999 . S
H5101 C5082 0.913 . S
H5102 C5120 0.951 . S
H5103 C5122 0.951 . S
H5104 C5124 0.950 . S
H5105 C5125 0.950 . S
H5106 C5127 0.950 . S
H5107 C5130 0.950 . S
H5108 C5131 0.950 . S
H5109 C5133 0.950 . S
H5110 C5134 0.950 . S
H5111 C5135 0.951 . S
H5112 C5137 0.951 . S
H5113 C5139 0.950 . S
H5114 C5140 0.950 . S
H5115 C5142 0.950 . S
H5116 C5145 0.950 . S
H5117 C5146 0.950 . S
H5118 C5148 0.950 . S
H5119 C5149 0.950 . S
C5120 H5102 0.951 . S
C5120 C5121 1.366 . S
C5120 C5122 1.388 . S
C5121 C5120 1.366 . S
C5121 C5125 1.385 . S
C5122 H5103 0.951 . S
C5122 C5120 1.388 . S
C5122 C5123 1.366 . S
C5123 C5122 1.366 . S
C5123 C5124 1.414 . S
C5123 C5126 1.499 . S
C5124 H5104 0.950 . S
C5124 C5123 1.414 . S
C5124 C5125 1.374 . S
C5125 H5105 0.950 . S
C5125 C5121 1.385 . S
C5125 C5124 1.374 . S
C5126 C5123 1.499 . S
C5126 C5127 1.373 . S
C5126 C5128 1.389 . S
C5127 H5106 0.950 . S
C5127 C5126 1.373 . S
C5127 C5143 1.377 . S
C5128 C5126 1.389 . S
C5128 C5129 1.524 . S
C5128 C5142 1.377 . S
C5129 C5128 1.524 . S
C5129 C5130 1.397 . S
C5129 C5134 1.363 . S
C5130 H5107 0.950 . S
C5130 C5129 1.397 . S
C5130 C5131 1.334 . S
C5131 H5108 0.950 . S
C5131 C5130 1.334 . S
C5131 C5132 1.287 . S
C5132 C5131 1.287 . S
C5132 C5133 1.524 . S
C5132 H5151 0.913 . S
C5133 H5109 0.950 . S
C5133 C5132 1.524 . S
C5133 C5134 1.415 . S
C5134 H5110 0.950 . S
C5134 C5129 1.363 . S
C5134 C5133 1.415 . S
C5135 H5111 0.951 . S
C5135 C5136 1.366 . S
C5135 C5137 1.388 . S
C5136 C5135 1.366 . S
C5136 C5140 1.385 . S
C5137 H5112 0.951 . S
C5137 C5135 1.388 . S
C5137 C5138 1.366 . S
C5138 C5137 1.366 . S
C5138 C5139 1.414 . S
C5138 C5141 1.499 . S
C5139 H5113 0.950 . S
C5139 C5138 1.414 . S
C5139 C5140 1.374 . S
C5140 H5114 0.950 . S
C5140 C5136 1.385 . S
C5140 C5139 1.374 . S
C5141 C5138 1.499 . S
C5141 C5142 1.373 . S
C5141 C5143 1.389 . S
C5142 H5115 0.950 . S
C5142 C5128 1.377 . S
C5142 C5141 1.373 . S
C5143 C5127 1.377 . S
C5143 C5141 1.389 . S
C5143 C5144 1.524 . S
C5144 C5143 1.524 . S
C5144 C5145 1.397 . S
C5144 C5149 1.363 . S
C5145 H5116 0.950 . S
C5145 C5144 1.397 . S
C5145 C5146 1.334 . S
C5146 H5117 0.950 . S
C5146 C5145 1.334 . S
C5146 C5147 1.287 . S
C5147 C5146 1.287 . S
C5147 C5148 1.524 . S
C5147 H5150 0.999 . S
C5148 H5118 0.950 . S
C5148 C5147 1.524 . S
C5148 C5149 1.415 . S
C5149 H5119 0.950 . S
C5149 C5144 1.363 . S
C5149 C5148 1.415 . S
H5150 C5147 0.999 . S
H5151 C5132 0.913 . S
H5152 C5170 0.951 . S
H5153 C5172 0.951 . S
H5154 C5174 0.950 . S
H5155 C5175 0.950 . S
H5156 C5177 0.950 . S
H5157 C5180 0.950 . S
H5158 C5181 0.950 . S
H5159 C5183 0.950 . S
H5160 C5184 0.950 . S
H5161 C5185 0.951 . S
H5162 C5187 0.951 . S
H5163 C5189 0.950 . S
H5164 C5190 0.950 . S
H5165 C5192 0.950 . S
H5166 C5195 0.950 . S
H5167 C5196 0.950 . S
H5168 C5198 0.950 . S
H5169 C5199 0.950 . S
C5170 H5152 0.951 . S
C5170 C5171 1.366 . S
C5170 C5172 1.388 . S
C5171 C5170 1.366 . S
C5171 C5175 1.385 . S
C5172 H5153 0.951 . S
C5172 C5170 1.388 . S
C5172 C5173 1.366 . S
C5173 C5172 1.366 . S
C5173 C5174 1.414 . S
C5173 C5176 1.499 . S
C5174 H5154 0.950 . S
C5174 C5173 1.414 . S
C5174 C5175 1.374 . S
C5175 H5155 0.950 . S
C5175 C5171 1.385 . S
C5175 C5174 1.374 . S
C5176 C5173 1.499 . S
C5176 C5177 1.373 . S
C5176 C5178 1.389 . S
C5177 H5156 0.950 . S
C5177 C5176 1.373 . S
C5177 C5193 1.377 . S
C5178 C5176 1.389 . S
C5178 C5179 1.524 . S
C5178 C5192 1.377 . S
C5179 C5178 1.524 . S
C5179 C5180 1.397 . S
C5179 C5184 1.363 . S
C5180 H5157 0.950 . S
C5180 C5179 1.397 . S
C5180 C5181 1.334 . S
C5181 H5158 0.950 . S
C5181 C5180 1.334 . S
C5181 C5182 1.287 . S
C5182 C5181 1.287 . S
C5182 C5183 1.524 . S
C5182 H5201 0.913 . S
C5183 H5159 0.950 . S
C5183 C5182 1.524 . S
C5183 C5184 1.415 . S
C5184 H5160 0.950 . S
C5184 C5179 1.363 . S
C5184 C5183 1.415 . S
C5185 H5161 0.951 . S
C5185 C5186 1.366 . S
C5185 C5187 1.388 . S
C5186 C5185 1.366 . S
C5186 C5190 1.385 . S
C5187 H5162 0.951 . S
C5187 C5185 1.388 . S
C5187 C5188 1.366 . S
C5188 C5187 1.366 . S
C5188 C5189 1.414 . S
C5188 C5191 1.499 . S
C5189 H5163 0.950 . S
C5189 C5188 1.414 . S
C5189 C5190 1.374 . S
C5190 H5164 0.950 . S
C5190 C5186 1.385 . S
C5190 C5189 1.374 . S
C5191 C5188 1.499 . S
C5191 C5192 1.373 . S
C5191 C5193 1.389 . S
C5192 H5165 0.950 . S
C5192 C5178 1.377 . S
C5192 C5191 1.373 . S
C5193 C5177 1.377 . S
C5193 C5191 1.389 . S
C5193 C5194 1.524 . S
C5194 C5193 1.524 . S
C5194 C5195 1.397 . S
C5194 C5199 1.363 . S
C5195 H5166 0.950 . S
C5195 C5194 1.397 . S
C5195 C5196 1.334 . S
C5196 H5167 0.950 . S
C5196 C5195 1.334 . S
C5196 C5197 1.287 . S
C5197 C5196 1.287 . S
C5197 C5198 1.524 . S
C5197 H5200 0.999 . S
C5198 H5168 0.950 . S
C5198 C5197 1.524 . S
C5198 C5199 1.415 . S
C5199 H5169 0.950 . S
C5199 C5194 1.363 . S
C5199 C5198 1.415 . S
H5200 C5197 0.999 . S
H5201 C5182 0.913 . S
H5202 C5220 0.951 . S
H5203 C5222 0.951 . S
H5204 C5224 0.950 . S
H5205 C5225 0.950 . S
H5206 C5227 0.950 . S
H5207 C5230 0.950 . S
H5208 C5231 0.950 . S
H5209 C5233 0.950 . S
H5210 C5234 0.950 . S
H5211 C5235 0.951 . S
H5212 C5237 0.951 . S
H5213 C5239 0.950 . S
H5214 C5240 0.950 . S
H5215 C5242 0.950 . S
H5216 C5245 0.950 . S
H5217 C5246 0.950 . S
H5218 C5248 0.950 . S
H5219 C5249 0.950 . S
C5220 H5202 0.951 . S
C5220 C5221 1.366 . S
C5220 C5222 1.388 . S
C5221 C5220 1.366 . S
C5221 C5225 1.385 . S
C5222 H5203 0.951 . S
C5222 C5220 1.388 . S
C5222 C5223 1.366 . S
C5223 C5222 1.366 . S
C5223 C5224 1.414 . S
C5223 C5226 1.499 . S
C5224 H5204 0.950 . S
C5224 C5223 1.414 . S
C5224 C5225 1.374 . S
C5225 H5205 0.950 . S
C5225 C5221 1.385 . S
C5225 C5224 1.374 . S
C5226 C5223 1.499 . S
C5226 C5227 1.373 . S
C5226 C5228 1.389 . S
C5227 H5206 0.950 . S
C5227 C5226 1.373 . S
C5227 C5243 1.377 . S
C5228 C5226 1.389 . S
C5228 C5229 1.524 . S
C5228 C5242 1.377 . S
C5229 C5228 1.524 . S
C5229 C5230 1.397 . S
C5229 C5234 1.363 . S
C5230 H5207 0.950 . S
C5230 C5229 1.397 . S
C5230 C5231 1.334 . S
C5231 H5208 0.950 . S
C5231 C5230 1.334 . S
C5231 C5232 1.287 . S
C5232 C5231 1.287 . S
C5232 C5233 1.524 . S
C5232 H5251 0.913 . S
C5233 H5209 0.950 . S
C5233 C5232 1.524 . S
C5233 C5234 1.415 . S
C5234 H5210 0.950 . S
C5234 C5229 1.363 . S
C5234 C5233 1.415 . S
C5235 H5211 0.951 . S
C5235 C5236 1.366 . S
C5235 C5237 1.388 . S
C5236 C5235 1.366 . S
C5236 C5240 1.385 . S
C5237 H5212 0.951 . S
C5237 C5235 1.388 . S
C5237 C5238 1.366 . S
C5238 C5237 1.366 . S
C5238 C5239 1.414 . S
C5238 C5241 1.499 . S
C5239 H5213 0.950 . S
C5239 C5238 1.414 . S
C5239 C5240 1.374 . S
C5240 H5214 0.950 . S
C5240 C5236 1.385 . S
C5240 C5239 1.374 . S
C5241 C5238 1.499 . S
C5241 C5242 1.373 . S
C5241 C5243 1.389 . S
C5242 H5215 0.950 . S
C5242 C5228 1.377 . S
C5242 C5241 1.373 . S
C5243 C5227 1.377 . S
C5243 C5241 1.389 . S
C5243 C5244 1.524 . S
C5244 C5243 1.524 . S
C5244 C5245 1.397 . S
C5244 C5249 1.363 . S
C5245 H5216 0.950 . S
C5245 C5244 1.397 . S
C5245 C5246 1.334 . S
C5246 H5217 0.950 . S
C5246 C5245 1.334 . S
C5246 C5247 1.287 . S
C5247 C5246 1.287 . S
C5247 C5248 1.524 . S
C5247 H5250 0.999 . S
C5248 H5218 0.950 . S
C5248 C5247 1.524 . S
C5248 C5249 1.415 . S
C5249 H5219 0.950 . S
C5249 C5244 1.363 . S
C5249 C5248 1.415 . S
H5250 C5247 0.999 . S
H5251 C5232 0.913 . S
H5252 C5270 0.951 . S
H5253 C5272 0.951 . S
H5254 C5274 0.950 . S
H5255 C5275 0.950 . S
H5256 C5277 0.950 . S
H5257 C5280 0.950 . S
H5258 C5281 0.950 . S
H5259 C5283 0.950 . S
H5260 C5284 0.950 . S
H5261 C5285 0.972 . S
H5262 C5287 0.951 . S
H5263 C5289 0.950 . S
H5264 C5290 0.950 . S
H5265 C5292 0.950 . S
H5266 C5295 0.950 1_655 S
H5267 C5296 0.950 . S
H5268 C5298 0.950 . S
H5269 C5299 0.950 . S
C5270 H5252 0.951 . S
C5270 C5271 1.366 . S
C5270 C5272 1.388 . S
C5271 C5270 1.366 . S
C5271 C5275 1.385 . S
C5272 H5253 0.951 . S
C5272 C5270 1.388 . S
C5272 C5273 1.366 . S
C5273 C5272 1.366 . S
C5273 C5274 1.414 . S
C5273 C5276 1.499 . S
C5274 H5254 0.950 . S
C5274 C5273 1.414 . S
C5274 C5275 1.374 . S
C5275 H5255 0.950 . S
C5275 C5271 1.385 . S
C5275 C5274 1.374 . S
C5276 C5273 1.499 . S
C5276 C5277 1.373 . S
C5276 C5278 1.389 . S
C5277 H5256 0.950 . S
C5277 C5276 1.373 . S
C5277 C5293 1.377 . S
C5278 C5276 1.389 . S
C5278 C5279 1.524 . S
C5278 C5292 1.377 . S
C5279 C5278 1.524 . S
C5279 C5280 1.397 . S
C5279 C5284 1.363 . S
C5280 H5257 0.950 . S
C5280 C5279 1.397 . S
C5280 C5281 1.334 . S
C5281 H5258 0.950 . S
C5281 C5280 1.334 . S
C5281 C5282 1.287 . S
C5282 C5281 1.287 . S
C5282 C5283 1.524 . S
C5282 H5301 0.913 . S
C5283 H5259 0.950 . S
C5283 C5282 1.524 . S
C5283 C5284 1.415 . S
C5284 H5260 0.950 . S
C5284 C5279 1.363 . S
C5284 C5283 1.415 . S
C5285 H5261 0.972 . S
C5285 C5286 1.358 1_455 S
C5285 C5287 1.375 1_455 S
C5286 C5285 1.358 1_655 S
C5286 C5290 1.385 . S
C5287 H5262 0.951 . S
C5287 C5285 1.375 1_655 S
C5287 C5288 1.366 . S
C5288 C5287 1.366 . S
C5288 C5289 1.414 . S
C5288 C5291 1.499 . S
C5289 H5263 0.950 . S
C5289 C5288 1.414 . S
C5289 C5290 1.374 . S
C5290 H5264 0.950 . S
C5290 C5286 1.385 . S
C5290 C5289 1.374 . S
C5291 C5288 1.499 . S
C5291 C5292 1.373 . S
C5291 C5293 1.389 . S
C5292 H5265 0.950 . S
C5292 C5278 1.377 . S
C5292 C5291 1.373 . S
C5293 C5277 1.377 . S
C5293 C5291 1.389 . S
C5293 C5294 1.524 . S
C5294 C5293 1.524 . S
C5294 C5295 1.397 1_655 S
C5294 C5299 1.363 1_655 S
C5295 H5266 0.950 1_455 S
C5295 C5294 1.397 1_455 S
C5295 C5296 1.334 . S
C5296 H5267 0.950 . S
C5296 C5295 1.334 . S
C5296 C5297 1.287 . S
C5297 C5296 1.287 . S
C5297 C5298 1.524 . S
C5297 H5300 0.999 . S
C5298 H5268 0.950 . S
C5298 C5297 1.524 . S
C5298 C5299 1.415 . S
C5299 H5269 0.950 . S
C5299 C5294 1.363 1_455 S
C5299 C5298 1.415 . S
H5300 C5297 0.999 . S
H5301 C5282 0.913 . S
H5302 C5320 0.951 . S
H5303 C5322 0.951 . S
H5304 C5324 0.950 . S
H5305 C5325 0.950 . S
H5306 C5327 0.950 . S
H5307 C5330 0.950 . S
H5308 C5331 0.950 . S
H5309 C5333 0.950 . S
H5310 C5334 0.950 . S
H5311 C5335 0.951 . S
H5312 C5337 0.951 . S
H5313 C5339 0.950 . S
H5314 C5340 0.950 . S
H5315 C5342 0.950 . S
H5316 C5345 0.950 . S
H5317 C5346 0.950 . S
H5318 C5348 0.950 . S
H5319 C5349 0.950 . S
C5320 H5302 0.951 . S
C5320 C5321 1.366 . S
C5320 C5322 1.388 . S
C5321 C5320 1.366 . S
C5321 C5325 1.385 . S
C5322 H5303 0.951 . S
C5322 C5320 1.388 . S
C5322 C5323 1.366 . S
C5323 C5322 1.366 . S
C5323 C5324 1.414 . S
C5323 C5326 1.499 . S
C5324 H5304 0.950 . S
C5324 C5323 1.414 . S
C5324 C5325 1.374 . S
C5325 H5305 0.950 . S
C5325 C5321 1.385 . S
C5325 C5324 1.374 . S
C5326 C5323 1.499 . S
C5326 C5327 1.373 . S
C5326 C5328 1.389 . S
C5327 H5306 0.950 . S
C5327 C5326 1.373 . S
C5327 C5343 1.377 . S
C5328 C5326 1.389 . S
C5328 C5329 1.524 . S
C5328 C5342 1.377 . S
C5329 C5328 1.524 . S
C5329 C5330 1.397 . S
C5329 C5334 1.363 . S
C5330 H5307 0.950 . S
C5330 C5329 1.397 . S
C5330 C5331 1.334 . S
C5331 H5308 0.950 . S
C5331 C5330 1.334 . S
C5331 C5332 1.287 . S
C5332 C5331 1.287 . S
C5332 C5333 1.524 . S
C5332 H5351 0.913 . S
C5333 H5309 0.950 . S
C5333 C5332 1.524 . S
C5333 C5334 1.415 . S
C5334 H5310 0.950 . S
C5334 C5329 1.363 . S
C5334 C5333 1.415 . S
C5335 H5311 0.951 . S
C5335 C5336 1.366 . S
C5335 C5337 1.388 . S
C5336 C5335 1.366 . S
C5336 C5340 1.385 . S
C5337 H5312 0.951 . S
C5337 C5335 1.388 . S
C5337 C5338 1.366 . S
C5338 C5337 1.366 . S
C5338 C5339 1.414 . S
C5338 C5341 1.499 . S
C5339 H5313 0.950 . S
C5339 C5338 1.414 . S
C5339 C5340 1.374 . S
C5340 H5314 0.950 . S
C5340 C5336 1.385 . S
C5340 C5339 1.374 . S
C5341 C5338 1.499 . S
C5341 C5342 1.373 . S
C5341 C5343 1.389 . S
C5342 H5315 0.950 . S
C5342 C5328 1.377 . S
C5342 C5341 1.373 . S
C5343 C5327 1.377 . S
C5343 C5341 1.389 . S
C5343 C5344 1.524 . S
C5344 C5343 1.524 . S
C5344 C5345 1.397 . S
C5344 C5349 1.363 . S
C5345 H5316 0.950 . S
C5345 C5344 1.397 . S
C5345 C5346 1.334 . S
C5346 H5317 0.950 . S
C5346 C5345 1.334 . S
C5346 C5347 1.287 . S
C5347 C5346 1.287 . S
C5347 C5348 1.524 . S
C5347 H5350 0.999 . S
C5348 H5318 0.950 . S
C5348 C5347 1.524 . S
C5348 C5349 1.415 . S
C5349 H5319 0.950 . S
C5349 C5344 1.363 . S
C5349 C5348 1.415 . S
H5350 C5347 0.999 . S
H5351 C5332 0.913 . S
H5352 C5370 0.951 . S
H5353 C5372 0.951 . S
H5354 C5374 0.950 . S
H5355 C5375 0.950 . S
H5356 C5377 0.950 . S
H5357 C5380 0.950 . S
H5358 C5381 0.950 . S
H5359 C5383 0.950 . S
H5360 C5384 0.950 . S
H5361 C5385 0.951 . S
H5362 C5387 0.951 . S
H5363 C5389 0.950 . S
H5364 C5390 0.950 . S
H5365 C5392 0.950 . S
H5366 C5395 0.950 . S
H5367 C5396 0.950 . S
H5368 C5398 0.950 . S
H5369 C5399 0.950 . S
C5370 H5352 0.951 . S
C5370 C5371 1.366 . S
C5370 C5372 1.388 . S
C5371 C5370 1.366 . S
C5371 C5375 1.385 . S
C5372 H5353 0.951 . S
C5372 C5370 1.388 . S
C5372 C5373 1.366 . S
C5373 C5372 1.366 . S
C5373 C5374 1.414 . S
C5373 C5376 1.499 . S
C5374 H5354 0.950 . S
C5374 C5373 1.414 . S
C5374 C5375 1.374 . S
C5375 H5355 0.950 . S
C5375 C5371 1.385 . S
C5375 C5374 1.374 . S
C5376 C5373 1.499 . S
C5376 C5377 1.373 . S
C5376 C5378 1.389 . S
C5377 H5356 0.950 . S
C5377 C5376 1.373 . S
C5377 C5393 1.377 . S
C5378 C5376 1.389 . S
C5378 C5379 1.524 . S
C5378 C5392 1.377 . S
C5379 C5378 1.524 . S
C5379 C5380 1.397 . S
C5379 C5384 1.363 . S
C5380 H5357 0.950 . S
C5380 C5379 1.397 . S
C5380 C5381 1.334 . S
C5381 H5358 0.950 . S
C5381 C5380 1.334 . S
C5381 C5382 1.287 . S
C5382 C5381 1.287 . S
C5382 C5383 1.524 . S
C5382 H5401 0.913 . S
C5383 H5359 0.950 . S
C5383 C5382 1.524 . S
C5383 C5384 1.415 . S
C5384 H5360 0.950 . S
C5384 C5379 1.363 . S
C5384 C5383 1.415 . S
C5385 H5361 0.951 . S
C5385 C5386 1.366 . S
C5385 C5387 1.388 . S
C5386 C5385 1.366 . S
C5386 C5390 1.385 . S
C5387 H5362 0.951 . S
C5387 C5385 1.388 . S
C5387 C5388 1.366 . S
C5388 C5387 1.366 . S
C5388 C5389 1.414 . S
C5388 C5391 1.499 . S
C5389 H5363 0.950 . S
C5389 C5388 1.414 . S
C5389 C5390 1.374 . S
C5390 H5364 0.950 . S
C5390 C5386 1.385 . S
C5390 C5389 1.374 . S
C5391 C5388 1.499 . S
C5391 C5392 1.373 . S
C5391 C5393 1.389 . S
C5392 H5365 0.950 . S
C5392 C5378 1.377 . S
C5392 C5391 1.373 . S
C5393 C5377 1.377 . S
C5393 C5391 1.389 . S
C5393 C5394 1.524 . S
C5394 C5393 1.524 . S
C5394 C5395 1.397 . S
C5394 C5399 1.363 . S
C5395 H5366 0.950 . S
C5395 C5394 1.397 . S
C5395 C5396 1.334 . S
C5396 H5367 0.950 . S
C5396 C5395 1.334 . S
C5396 C5397 1.287 . S
C5397 C5396 1.287 . S
C5397 C5398 1.524 . S
C5397 H5400 0.999 . S
C5398 H5368 0.950 . S
C5398 C5397 1.524 . S
C5398 C5399 1.415 . S
C5399 H5369 0.950 . S
C5399 C5394 1.363 . S
C5399 C5398 1.415 . S
H5400 C5397 0.999 . S
H5401 C5382 0.913 . S
H5402 C5420 0.951 . S
H5403 C5422 0.951 . S
H5404 C5424 0.950 . S
H5405 C5425 0.950 . S
H5406 C5427 0.950 . S
H5407 C5430 0.950 . S
H5408 C5431 0.950 . S
H5409 C5433 0.950 . S
H5410 C5434 0.950 . S
H5411 C5435 0.978 . S
H5412 C5437 0.951 . S
H5413 C5439 0.950 . S
H5414 C5440 0.956 1_545 S
H5415 C5442 0.950 . S
H5416 C5445 0.950 . S
H5417 C5446 0.950 . S
H5418 C5448 0.950 . S
H5419 C5449 0.950 . S
C5420 H5402 0.951 . S
C5420 C5421 1.366 . S
C5420 C5422 1.388 . S
C5421 C5420 1.366 . S
C5421 C5425 1.385 . S
C5422 H5403 0.951 . S
C5422 C5420 1.388 . S
C5422 C5423 1.366 . S
C5423 C5422 1.366 . S
C5423 C5424 1.414 . S
C5423 C5426 1.499 . S
C5424 H5404 0.950 . S
C5424 C5423 1.414 . S
C5424 C5425 1.374 . S
C5425 H5405 0.950 . S
C5425 C5421 1.385 . S
C5425 C5424 1.374 . S
C5426 C5423 1.499 . S
C5426 C5427 1.373 . S
C5426 C5428 1.389 . S
C5427 H5406 0.950 . S
C5427 C5426 1.373 . S
C5427 C5443 1.377 . S
C5428 C5426 1.389 . S
C5428 C5429 1.524 . S
C5428 C5442 1.377 . S
C5429 C5428 1.524 . S
C5429 C5430 1.397 . S
C5429 C5434 1.363 . S
C5430 H5407 0.950 . S
C5430 C5429 1.397 . S
C5430 C5431 1.334 . S
C5431 H5408 0.950 . S
C5431 C5430 1.334 . S
C5431 C5432 1.287 . S
C5432 C5431 1.287 . S
C5432 C5433 1.524 . S
C5432 H5451 0.913 . S
C5433 H5409 0.950 . S
C5433 C5432 1.524 . S
C5433 C5434 1.415 . S
C5434 H5410 0.950 . S
C5434 C5429 1.363 . S
C5434 C5433 1.415 . S
C5435 H5411 0.978 . S
C5435 C5436 1.365 . S
C5435 C5437 1.365 1_545 S
C5436 C5435 1.365 . S
C5436 C5440 1.357 1_545 S
C5437 H5412 0.951 . S
C5437 C5435 1.365 1_565 S
C5437 C5438 1.366 . S
C5438 C5437 1.366 . S
C5438 C5439 1.414 . S
C5438 C5441 1.499 . S
C5439 H5413 0.950 . S
C5439 C5438 1.414 . S
C5439 C5440 1.401 . S
C5440 H5414 0.956 1_565 S
C5440 C5436 1.357 1_565 S
C5440 C5439 1.401 . S
C5441 C5438 1.499 . S
C5441 C5442 1.373 . S
C5441 C5443 1.389 . S
C5442 H5415 0.950 . S
C5442 C5428 1.377 . S
C5442 C5441 1.373 . S
C5443 C5427 1.377 . S
C5443 C5441 1.389 . S
C5443 C5444 1.524 . S
C5444 C5443 1.524 . S
C5444 C5445 1.397 . S
C5444 C5449 1.363 . S
C5445 H5416 0.950 . S
C5445 C5444 1.397 . S
C5445 C5446 1.334 . S
C5446 H5417 0.950 . S
C5446 C5445 1.334 . S
C5446 C5447 1.287 . S
C5447 C5446 1.287 . S
C5447 C5448 1.524 . S
C5447 H5450 0.999 . S
C5448 H5418 0.950 . S
C5448 C5447 1.524 . S
C5448 C5449 1.415 . S
C5449 H5419 0.950 . S
C5449 C5444 1.363 . S
C5449 C5448 1.415 . S
H5450 C5447 0.999 . S
H5451 C5432 0.913 . S
H5452 C5470 0.951 . S
H5453 C5472 0.951 . S
H5454 C5474 0.950 . S
H5455 C5475 0.950 . S
H5456 C5477 0.950 . S
H5457 C5480 0.950 . S
H5458 C5481 0.950 . S
H5459 C5483 0.950 . S
H5460 C5484 0.950 . S
H5461 C5485 0.951 . S
H5462 C5487 0.951 . S
H5463 C5489 0.950 . S
H5464 C5490 0.950 . S
H5465 C5492 0.950 . S
H5466 C5495 0.950 . S
H5467 C5496 0.950 . S
H5468 C5498 0.950 . S
H5469 C5499 0.950 . S
C5470 H5452 0.951 . S
C5470 C5471 1.366 . S
C5470 C5472 1.388 . S
C5471 C5470 1.366 . S
C5471 C5475 1.385 . S
C5472 H5453 0.951 . S
C5472 C5470 1.388 . S
C5472 C5473 1.366 . S
C5473 C5472 1.366 . S
C5473 C5474 1.414 . S
C5473 C5476 1.499 . S
C5474 H5454 0.950 . S
C5474 C5473 1.414 . S
C5474 C5475 1.374 . S
C5475 H5455 0.950 . S
C5475 C5471 1.385 . S
C5475 C5474 1.374 . S
C5476 C5473 1.499 . S
C5476 C5477 1.373 . S
C5476 C5478 1.389 . S
C5477 H5456 0.950 . S
C5477 C5476 1.373 . S
C5477 C5493 1.377 . S
C5478 C5476 1.389 . S
C5478 C5479 1.524 . S
C5478 C5492 1.377 . S
C5479 C5478 1.524 . S
C5479 C5480 1.397 . S
C5479 C5484 1.363 . S
C5480 H5457 0.950 . S
C5480 C5479 1.397 . S
C5480 C5481 1.334 . S
C5481 H5458 0.950 . S
C5481 C5480 1.334 . S
C5481 C5482 1.287 . S
C5482 C5481 1.287 . S
C5482 C5483 1.524 . S
C5482 H5501 0.913 . S
C5483 H5459 0.950 . S
C5483 C5482 1.524 . S
C5483 C5484 1.415 . S
C5484 H5460 0.950 . S
C5484 C5479 1.363 . S
C5484 C5483 1.415 . S
C5485 H5461 0.951 . S
C5485 C5486 1.366 . S
C5485 C5487 1.388 . S
C5486 C5485 1.366 . S
C5486 C5490 1.385 . S
C5487 H5462 0.951 . S
C5487 C5485 1.388 . S
C5487 C5488 1.366 . S
C5488 C5487 1.366 . S
C5488 C5489 1.414 . S
C5488 C5491 1.499 . S
C5489 H5463 0.950 . S
C5489 C5488 1.414 . S
C5489 C5490 1.374 . S
C5490 H5464 0.950 . S
C5490 C5486 1.385 . S
C5490 C5489 1.374 . S
C5491 C5488 1.499 . S
C5491 C5492 1.373 . S
C5491 C5493 1.389 . S
C5492 H5465 0.950 . S
C5492 C5478 1.377 . S
C5492 C5491 1.373 . S
C5493 C5477 1.377 . S
C5493 C5491 1.389 . S
C5493 C5494 1.524 . S
C5494 C5493 1.524 . S
C5494 C5495 1.397 . S
C5494 C5499 1.363 . S
C5495 H5466 0.950 . S
C5495 C5494 1.397 . S
C5495 C5496 1.334 . S
C5496 H5467 0.950 . S
C5496 C5495 1.334 . S
C5496 C5497 1.287 . S
C5497 C5496 1.287 . S
C5497 C5498 1.524 . S
C5497 H5500 0.999 . S
C5498 H5468 0.950 . S
C5498 C5497 1.524 . S
C5498 C5499 1.415 . S
C5499 H5469 0.950 . S
C5499 C5494 1.363 . S
C5499 C5498 1.415 . S
H5500 C5497 0.999 . S
H5501 C5482 0.913 . S
H5502 C5520 0.951 . S
H5503 C5522 0.951 . S
H5504 C5524 0.950 . S
H5505 C5525 0.950 . S
H5506 C5527 0.950 . S
H5507 C5530 0.950 . S
H5508 C5531 0.950 . S
H5509 C5533 0.950 . S
H5510 C5534 0.956 . S
H5511 C5535 0.951 1_556 S
H5512 C5537 0.951 1_556 S
H5513 C5539 0.950 . S
H5514 C5540 0.950 . S
H5515 C5542 0.950 . S
H5516 C5545 0.950 . S
H5517 C5546 0.950 . S
H5518 C5548 0.950 . S
H5519 C5549 0.950 . S
C5520 H5502 0.951 . S
C5520 C5521 1.366 . S
C5520 C5522 1.388 . S
C5521 C5520 1.366 . S
C5521 C5525 1.385 1_554 S
C5522 H5503 0.951 . S
C5522 C5520 1.388 . S
C5522 C5523 1.366 . S
C5523 C5522 1.366 . S
C5523 C5524 1.414 1_554 S
C5523 C5526 1.499 . S
C5524 H5504 0.950 . S
C5524 C5523 1.414 1_556 S
C5524 C5525 1.374 . S
C5525 H5505 0.950 . S
C5525 C5521 1.385 1_556 S
C5525 C5524 1.374 . S
C5526 C5523 1.499 . S
C5526 C5527 1.373 . S
C5526 C5528 1.389 . S
C5527 H5506 0.950 . S
C5527 C5526 1.373 . S
C5527 C5543 1.377 . S
C5528 C5526 1.389 . S
C5528 C5529 1.524 1_554 S
C5528 C5542 1.377 . S
C5529 C5528 1.524 1_556 S
C5529 C5530 1.397 . S
C5529 C5534 1.359 1_556 S
C5530 H5507 0.950 . S
C5530 C5529 1.397 . S
C5530 C5531 1.334 . S
C5531 H5508 0.950 . S
C5531 C5530 1.334 . S
C5531 C5532 1.287 . S
C5532 C5531 1.287 . S
C5532 C5533 1.524 . S
C5532 H5551 0.913 . S
C5533 H5509 0.950 . S
C5533 C5532 1.524 . S
C5533 C5534 1.412 1_556 S
C5534 H5510 0.956 . S
C5534 C5529 1.359 1_554 S
C5534 C5533 1.412 1_554 S
C5535 H5511 0.951 1_554 S
C5535 C5536 1.366 . S
C5535 C5537 1.388 . S
C5536 C5535 1.366 . S
C5536 C5540 1.385 . S
C5537 H5512 0.951 1_554 S
C5537 C5535 1.388 . S
C5537 C5538 1.366 . S
C5538 C5537 1.366 . S
C5538 C5539 1.414 . S
C5538 C5541 1.499 . S
C5539 H5513 0.950 . S
C5539 C5538 1.414 . S
C5539 C5540 1.374 . S
C5540 H5514 0.950 . S
C5540 C5536 1.385 . S
C5540 C5539 1.374 . S
C5541 C5538 1.499 . S
C5541 C5542 1.373 . S
C5541 C5543 1.389 . S
C5542 H5515 0.950 . S
C5542 C5528 1.377 . S
C5542 C5541 1.373 . S
C5543 C5527 1.377 . S
C5543 C5541 1.389 . S
C5543 C5544 1.524 . S
C5544 C5543 1.524 . S
C5544 C5545 1.397 . S
C5544 C5549 1.363 . S
C5545 H5516 0.950 . S
C5545 C5544 1.397 . S
C5545 C5546 1.334 . S
C5546 H5517 0.950 . S
C5546 C5545 1.334 . S
C5546 C5547 1.287 . S
C5547 C5546 1.287 . S
C5547 C5548 1.524 . S
C5547 H5550 0.999 . S
C5548 H5518 0.950 . S
C5548 C5547 1.524 . S
C5548 C5549 1.415 . S
C5549 H5519 0.950 . S
C5549 C5544 1.363 . S
C5549 C5548 1.415 . S
H5550 C5547 0.999 . S
H5551 C5532 0.913 . S
H5552 C5570 0.951 . S
H5553 C5572 0.951 . S
H5554 C5574 0.950 . S
H5555 C5575 0.950 . S
H5556 C5577 0.950 . S
H5557 C5580 0.950 . S
H5558 C5581 0.950 . S
H5559 C5583 0.950 . S
H5560 C5584 0.950 . S
H5561 C5585 0.951 . S
H5562 C5587 0.951 . S
H5563 C5589 0.950 . S
H5564 C5590 0.950 . S
H5565 C5592 0.950 . S
H5566 C5595 0.950 . S
H5567 C5596 0.950 . S
H5568 C5598 0.950 . S
H5569 C5599 0.950 . S
C5570 H5552 0.951 . S
C5570 C5571 1.366 . S
C5570 C5572 1.388 . S
C5571 C5570 1.366 . S
C5571 C5575 1.385 . S
C5572 H5553 0.951 . S
C5572 C5570 1.388 . S
C5572 C5573 1.366 . S
C5573 C5572 1.366 . S
C5573 C5574 1.414 . S
C5573 C5576 1.499 . S
C5574 H5554 0.950 . S
C5574 C5573 1.414 . S
C5574 C5575 1.374 . S
C5575 H5555 0.950 . S
C5575 C5571 1.385 . S
C5575 C5574 1.374 . S
C5576 C5573 1.499 . S
C5576 C5577 1.373 . S
C5576 C5578 1.389 . S
C5577 H5556 0.950 . S
C5577 C5576 1.373 . S
C5577 C5593 1.377 . S
C5578 C5576 1.389 . S
C5578 C5579 1.524 . S
C5578 C5592 1.377 . S
C5579 C5578 1.524 . S
C5579 C5580 1.397 . S
C5579 C5584 1.363 . S
C5580 H5557 0.950 . S
C5580 C5579 1.397 . S
C5580 C5581 1.334 . S
C5581 H5558 0.950 . S
C5581 C5580 1.334 . S
C5581 C5582 1.287 . S
C5582 C5581 1.287 . S
C5582 C5583 1.524 . S
C5582 H5601 0.913 . S
C5583 H5559 0.950 . S
C5583 C5582 1.524 . S
C5583 C5584 1.415 . S
C5584 H5560 0.950 . S
C5584 C5579 1.363 . S
C5584 C5583 1.415 . S
C5585 H5561 0.951 . S
C5585 C5586 1.366 . S
C5585 C5587 1.388 . S
C5586 C5585 1.366 . S
C5586 C5590 1.385 . S
C5587 H5562 0.951 . S
C5587 C5585 1.388 . S
C5587 C5588 1.366 . S
C5588 C5587 1.366 . S
C5588 C5589 1.414 . S
C5588 C5591 1.499 . S
C5589 H5563 0.950 . S
C5589 C5588 1.414 . S
C5589 C5590 1.374 . S
C5590 H5564 0.950 . S
C5590 C5586 1.385 . S
C5590 C5589 1.374 . S
C5591 C5588 1.499 . S
C5591 C5592 1.373 . S
C5591 C5593 1.389 . S
C5592 H5565 0.950 . S
C5592 C5578 1.377 . S
C5592 C5591 1.373 . S
C5593 C5577 1.377 . S
C5593 C5591 1.389 . S
C5593 C5594 1.524 . S
C5594 C5593 1.524 . S
C5594 C5595 1.397 . S
C5594 C5599 1.363 . S
C5595 H5566 0.950 . S
C5595 C5594 1.397 . S
C5595 C5596 1.334 . S
C5596 H5567 0.950 . S
C5596 C5595 1.334 . S
C5596 C5597 1.287 . S
C5597 C5596 1.287 . S
C5597 C5598 1.524 . S
C5597 H5600 0.999 . S
C5598 H5568 0.950 . S
C5598 C5597 1.524 . S
C5598 C5599 1.415 . S
C5599 H5569 0.950 . S
C5599 C5594 1.363 . S
C5599 C5598 1.415 . S
H5600 C5597 0.999 . S
H5601 C5582 0.913 . S
H5602 C5620 0.951 . S
H5603 C5622 0.951 . S
H5604 C5624 0.950 . S
H5605 C5625 0.947 1_556 S
H5606 C5627 0.950 . S
H5607 C5630 0.950 . S
H5608 C5631 0.950 . S
H5609 C5633 0.950 . S
H5610 C5634 0.950 . S
H5611 C5635 0.951 . S
H5612 C5637 0.951 . S
H5613 C5639 0.988 . S
H5614 C5640 0.950 1_554 S
H5615 C5642 0.950 . S
H5616 C5645 0.950 . S
H5617 C5646 0.950 . S
H5618 C5648 0.950 . S
H5619 C5649 0.950 . S
C5620 H5602 0.951 . S
C5620 C5621 1.366 . S
C5620 C5622 1.388 . S
C5621 C5620 1.366 . S
C5621 C5625 1.389 . S
C5622 H5603 0.951 . S
C5622 C5620 1.388 . S
C5622 C5623 1.366 . S
C5623 C5622 1.366 . S
C5623 C5624 1.414 1_554 S
C5623 C5626 1.499 . S
C5624 H5604 0.950 . S
C5624 C5623 1.414 1_556 S
C5624 C5625 1.373 1_556 S
C5625 H5605 0.947 1_554 S
C5625 C5621 1.389 . S
C5625 C5624 1.373 1_554 S
C5626 C5623 1.499 . S
C5626 C5627 1.375 . S
C5626 C5628 1.395 1_554 S
C5627 H5606 0.950 . S
C5627 C5626 1.375 . S
C5627 C5643 1.376 1_554 S
C5628 C5626 1.395 1_556 S
C5628 C5629 1.516 . S
C5628 C5642 1.386 . S
C5629 C5628 1.516 . S
C5629 C5630 1.397 . S
C5629 C5634 1.363 1_556 S
C5630 H5607 0.950 . S
C5630 C5629 1.397 . S
C5630 C5631 1.334 . S
C5631 H5608 0.950 . S
C5631 C5630 1.334 . S
C5631 C5632 1.287 . S
C5632 C5631 1.287 . S
C5632 C5633 1.524 1_556 S
C5632 H5651 0.913 . S
C5633 H5609 0.950 . S
C5633 C5632 1.524 1_554 S
C5633 C5634 1.415 . S
C5634 H5610 0.950 . S
C5634 C5629 1.363 1_554 S
C5634 C5633 1.415 . S
C5635 H5611 0.951 . S
C5635 C5636 1.366 . S
C5635 C5637 1.388 . S
C5636 C5635 1.366 . S
C5636 C5640 1.385 . S
C5637 H5612 0.951 . S
C5637 C5635 1.388 . S
C5637 C5638 1.366 . S
C5638 C5637 1.366 . S
C5638 C5639 1.387 1_556 S
C5638 C5641 1.499 . S
C5639 H5613 0.988 . S
C5639 C5638 1.387 1_554 S
C5639 C5640 1.364 1_554 S
C5640 H5614 0.950 1_556 S
C5640 C5636 1.385 . S
C5640 C5639 1.364 1_556 S
C5641 C5638 1.499 . S
C5641 C5642 1.373 . S
C5641 C5643 1.389 . S
C5642 H5615 0.950 . S
C5642 C5628 1.386 . S
C5642 C5641 1.373 . S
C5643 C5627 1.376 1_556 S
C5643 C5641 1.389 . S
C5643 C5644 1.524 . S
C5644 C5643 1.524 . S
C5644 C5645 1.397 1_556 S
C5644 C5649 1.363 . S
C5645 H5616 0.950 . S
C5645 C5644 1.397 1_554 S
C5645 C5646 1.334 . S
C5646 H5617 0.950 . S
C5646 C5645 1.334 . S
C5646 C5647 1.287 . S
C5647 C5646 1.287 . S
C5647 C5648 1.524 1_554 S
C5647 H5650 0.999 . S
C5648 H5618 0.950 . S
C5648 C5647 1.524 1_556 S
C5648 C5649 1.415 . S
C5649 H5619 0.950 . S
C5649 C5644 1.363 . S
C5649 C5648 1.415 . S
H5650 C5647 0.999 . S
H5651 C5632 0.913 . S
H5652 C5670 0.951 . S
H5653 C5672 0.951 . S
H5654 C5674 0.950 . S
H5655 C5675 0.955 . S
H5656 C5677 0.950 . S
H5657 C5680 0.950 . S
H5658 C5681 0.950 . S
H5659 C5683 0.950 . S
H5660 C5684 0.950 . S
H5661 C5685 0.951 . S
H5662 C5687 0.951 . S
H5663 C5689 0.950 . S
H5664 C5690 0.950 . S
H5665 C5692 0.950 . S
H5666 C5695 0.950 . S
H5667 C5696 0.950 . S
H5668 C5698 0.950 . S
H5669 C5699 0.950 . S
C5670 H5652 0.951 . S
C5670 C5671 1.366 . S
C5670 C5672 1.388 . S
C5671 C5670 1.366 . S
C5671 C5675 1.385 . S
C5672 H5653 0.951 . S
C5672 C5670 1.388 . S
C5672 C5673 1.366 . S
C5673 C5672 1.366 . S
C5673 C5674 1.414 . S
C5673 C5676 1.499 . S
C5674 H5654 0.950 . S
C5674 C5673 1.414 . S
C5674 C5675 1.374 . S
C5675 H5655 0.955 . S
C5675 C5671 1.385 . S
C5675 C5674 1.374 . S
C5676 C5673 1.499 . S
C5676 C5677 1.373 . S
C5676 C5678 1.389 . S
C5677 H5656 0.950 . S
C5677 C5676 1.373 . S
C5677 C5693 1.377 . S
C5678 C5676 1.389 . S
C5678 C5679 1.524 . S
C5678 C5692 1.377 . S
C5679 C5678 1.524 . S
C5679 C5680 1.397 . S
C5679 C5684 1.363 . S
C5680 H5657 0.950 . S
C5680 C5679 1.397 . S
C5680 C5681 1.334 . S
C5681 H5658 0.950 . S
C5681 C5680 1.334 . S
C5681 C5682 1.287 . S
C5682 C5681 1.287 . S
C5682 C5683 1.524 . S
C5682 H5701 0.913 . S
C5683 H5659 0.950 . S
C5683 C5682 1.524 . S
C5683 C5684 1.415 . S
C5684 H5660 0.950 . S
C5684 C5679 1.363 . S
C5684 C5683 1.415 . S
C5685 H5661 0.951 . S
C5685 C5686 1.366 . S
C5685 C5687 1.388 . S
C5686 C5685 1.366 . S
C5686 C5690 1.385 . S
C5687 H5662 0.951 . S
C5687 C5685 1.388 . S
C5687 C5688 1.366 . S
C5688 C5687 1.366 . S
C5688 C5689 1.414 . S
C5688 C5691 1.499 . S
C5689 H5663 0.950 . S
C5689 C5688 1.414 . S
C5689 C5690 1.374 . S
C5690 H5664 0.950 . S
C5690 C5686 1.385 . S
C5690 C5689 1.374 . S
C5691 C5688 1.499 . S
C5691 C5692 1.373 . S
C5691 C5693 1.389 . S
C5692 H5665 0.950 . S
C5692 C5678 1.377 . S
C5692 C5691 1.373 . S
C5693 C5677 1.377 . S
C5693 C5691 1.389 . S
C5693 C5694 1.524 . S
C5694 C5693 1.524 . S
C5694 C5695 1.397 . S
C5694 C5699 1.363 . S
C5695 H5666 0.950 . S
C5695 C5694 1.397 . S
C5695 C5696 1.334 . S
C5696 H5667 0.950 . S
C5696 C5695 1.334 . S
C5696 C5697 1.287 . S
C5697 C5696 1.287 . S
C5697 C5698 1.524 . S
C5697 H5700 0.999 . S
C5698 H5668 0.950 . S
C5698 C5697 1.524 . S
C5698 C5699 1.415 . S
C5699 H5669 0.950 . S
C5699 C5694 1.363 . S
C5699 C5698 1.415 . S
H5700 C5697 0.999 . S
H5701 C5682 0.913 . S
H5702 C5720 0.951 . S
H5703 C5722 0.951 . S
H5704 C5724 0.950 . S
H5705 C5725 0.950 . S
H5706 C5727 0.950 . S
H5707 C5730 0.950 . S
H5708 C5731 0.950 . S
H5709 C5733 0.950 . S
H5710 C5734 0.950 . S
H5711 C5735 0.951 . S
H5712 C5737 0.951 . S
H5713 C5739 0.950 . S
H5714 C5740 0.950 . S
H5715 C5742 0.950 . S
H5716 C5745 0.950 . S
H5717 C5746 0.950 . S
H5718 C5748 0.950 . S
H5719 C5749 0.950 . S
C5720 H5702 0.951 . S
C5720 C5721 1.366 . S
C5720 C5722 1.388 . S
C5721 C5720 1.366 . S
C5721 C5725 1.385 . S
C5722 H5703 0.951 . S
C5722 C5720 1.388 . S
C5722 C5723 1.366 . S
C5723 C5722 1.366 . S
C5723 C5724 1.414 . S
C5723 C5726 1.499 . S
C5724 H5704 0.950 . S
C5724 C5723 1.414 . S
C5724 C5725 1.374 . S
C5725 H5705 0.950 . S
C5725 C5721 1.385 . S
C5725 C5724 1.374 . S
C5726 C5723 1.499 . S
C5726 C5727 1.373 . S
C5726 C5728 1.389 . S
C5727 H5706 0.950 . S
C5727 C5726 1.373 . S
C5727 C5743 1.377 . S
C5728 C5726 1.389 . S
C5728 C5729 1.524 . S
C5728 C5742 1.377 . S
C5729 C5728 1.524 . S
C5729 C5730 1.397 . S
C5729 C5734 1.363 . S
C5730 H5707 0.950 . S
C5730 C5729 1.397 . S
C5730 C5731 1.334 . S
C5731 H5708 0.950 . S
C5731 C5730 1.334 . S
C5731 C5732 1.287 . S
C5732 C5731 1.287 . S
C5732 C5733 1.524 . S
C5732 H5751 0.913 . S
C5733 H5709 0.950 . S
C5733 C5732 1.524 . S
C5733 C5734 1.415 . S
C5734 H5710 0.950 . S
C5734 C5729 1.363 . S
C5734 C5733 1.415 . S
C5735 H5711 0.951 . S
C5735 C5736 1.366 . S
C5735 C5737 1.388 . S
C5736 C5735 1.366 . S
C5736 C5740 1.385 . S
C5737 H5712 0.951 . S
C5737 C5735 1.388 . S
C5737 C5738 1.366 . S
C5738 C5737 1.366 . S
C5738 C5739 1.414 . S
C5738 C5741 1.499 . S
C5739 H5713 0.950 . S
C5739 C5738 1.414 . S
C5739 C5740 1.374 . S
C5740 H5714 0.950 . S
C5740 C5736 1.385 . S
C5740 C5739 1.374 . S
C5741 C5738 1.499 . S
C5741 C5742 1.373 . S
C5741 C5743 1.389 . S
C5742 H5715 0.950 . S
C5742 C5728 1.377 . S
C5742 C5741 1.373 . S
C5743 C5727 1.377 . S
C5743 C5741 1.389 . S
C5743 C5744 1.524 . S
C5744 C5743 1.524 . S
C5744 C5745 1.397 . S
C5744 C5749 1.363 . S
C5745 H5716 0.950 . S
C5745 C5744 1.397 . S
C5745 C5746 1.334 . S
C5746 H5717 0.950 . S
C5746 C5745 1.334 . S
C5746 C5747 1.287 . S
C5747 C5746 1.287 . S
C5747 C5748 1.524 . S
C5747 H5750 0.999 . S
C5748 H5718 0.950 . S
C5748 C5747 1.524 . S
C5748 C5749 1.415 . S
C5749 H5719 0.950 . S
C5749 C5744 1.363 . S
C5749 C5748 1.415 . S
H5750 C5747 0.999 . S
H5751 C5732 0.913 . S
C971 C101 2.194 . S
C986 C314 2.179 1_556 S
C1021 C57 2.069 . S
C1036 C371 2.103 . S
C1071 C73 1.091 . S
C1086 C394 1.128 . S
C1136 C448 1.398 . S
C1121 C78 1.372 . S
C1171 C21 1.210 . S
C1186 C488 1.236 . S
C1236 C519 0.321 . S
C1221 C31 0.416 . S
C1286 C571 1.187 . S
C1271 C49 1.175 . S
C1321 C0 1.572 . S
C1336 C594 1.613 . S
C1386 C331 2.409 . S
C1371 C218 2.427 . S
C1421 C229 0.387 . S
C1436 C368 0.353 . S
C1486 C411 1.351 . S
C1471 C257 1.364 . S
C1536 C434 1.214 . S
C1521 C164 1.160 . S
C1571 C216 1.637 . S
C1586 C474 1.734 . S
C1636 C522 1.454 . S
C1621 C231 1.483 . S
C1686 C568 0.296 . S
C1671 C255 0.362 . S
C1736 C611 1.916 . S
C1721 C166 1.946 . S
C1786 C328 1.383 1_565 S
C1771 C143 1.356 . S
C1821 C265 2.007 . S
C1836 C651 2.045 . S
C1886 C683 2.500 . S
C1871 C299 2.510 . S
C1936 C714 0.548 1_655 S
C1921 C291 0.583 . S
C1971 C104 1.090 . S
C1986 C608 1.115 . S
C2021 C117 1.425 . S
C2036 C408 1.457 . S
C2071 C304 2.256 . S
C2086 C771 2.282 . S
C2136 C794 0.380 . S
C2121 C278 0.371 . S
C2186 C323 2.135 . S
C2171 C60 2.139 . S
C2236 C802 1.994 . S
C2221 C96 1.993 . S
C2271 C88 1.001 . S
C2286 C403 0.991 . S
C2321 C65 1.313 . S
C2336 C759 1.317 . S
C2386 C479 1.180 . S
C2371 C10 1.203 . S
C2421 C44 0.389 . S
C2436 C688 0.278 . S
C2486 C562 1.044 1_556 S
C2471 C34 0.991 . S
C2536 C843 1.564 . S
C2521 C13 1.610 . S
C2586 C322 2.336 . S
C2571 C138 2.294 . S
C2636 C799 0.360 . S
C2621 C296 0.231 . S
C2671 C112 1.240 . S
C2686 C402 1.262 . S
C2721 C270 1.099 . S
C2736 C763 1.091 . S
C2771 C140 1.635 . S
C2786 C483 1.627 . S
C2836 C691 1.397 . S
C2821 C294 1.394 . S
C2871 C114 0.141 . S
C2886 C559 0.320 . S
C2921 C268 1.829 . S
C2936 C842 1.844 . S
C2971 C169 1.370 . S
C2986 C319 1.354 . S
C3021 C161 1.941 . S
C3036 C642 1.950 . S
C3071 C234 2.453 . S
C3086 C514 2.435 . S
C3121 C226 0.477 . S
C3136 C723 0.381 . S
C3186 C839 1.111 . S
C3171 C247 1.147 . S
C3221 C195 1.445 . S
C3236 C399 1.416 . S
C3286 C442 2.181 . S
C3271 C239 2.173 . S
C3336 C363 0.341 . S
C3321 C187 0.299 . S
C3371 C75 2.194 . S
C3386 C874 2.179 . S
C3436 C811 2.102 . S
C3421 C83 2.069 . S
C3471 C99 1.092 . S
C3486 C914 1.127 . S
C3521 C52 1.372 . S
C3536 C768 1.399 . S
C3571 C47 1.208 . S
C3586 C648 1.234 . S
C3636 C679 0.323 . S
C3621 C5 0.413 . S
C3686 C731 1.186 . S
C3671 C23 1.173 . S
C3736 C834 1.614 . S
C3721 C26 1.572 . S
C3786 C891 2.409 . S
C3771 C244 2.427 . S
C3821 C177 0.387 . S
C3836 C808 0.355 . S
C3886 C931 1.352 . S
C3871 C192 1.364 . S
C3936 C754 1.214 . S
C3921 C203 1.162 . S
C3986 C634 1.734 . S
C3971 C242 1.637 . S
C4021 C179 1.483 . S
C4036 C682 1.454 . S
C4086 C728 0.293 . S
C4071 C190 0.360 . S
C4121 C205 1.946 . S
C4136 C851 1.917 . S
C4186 C888 1.393 . S
C4171 C286 1.356 . S
C4221 C122 2.013 . S
C4236 C491 2.045 . S
C4286 C523 2.501 . S
C4271 C130 2.517 . S
C4336 C554 0.547 . S
C4321 C148 0.584 . S
C4386 C848 1.116 . S
C4371 C273 1.092 . S
C4421 C260 1.424 . S
C4436 C928 1.456 . S
C4486 C451 2.281 . S
C4471 C135 2.248 . S
C4536 C354 0.382 . S
C4521 C109 0.368 . S
C4571 C86 2.139 . S
C4586 C883 2.135 . S
C4636 C362 1.994 . S
C4621 C70 1.993 . S
C4671 C62 1.000 . S
C4686 C923 0.990 . S
C4721 C91 1.314 . S
C4736 C439 1.317 . S
C4771 C36 1.202 . S
C4786 C639 1.179 . S
C4836 C528 0.274 . S
C4821 C18 0.394 . S
C4871 C8 0.991 . S
C4886 C722 1.045 . S
C4921 C39 1.604 . S
C4936 C603 1.564 . S
C4986 C882 2.337 . S
C4971 C307 2.293 . S
C5021 C153 0.228 . S
C5036 C359 0.355 . S
C5086 C922 1.261 . S
C5071 C281 1.240 . S
C5121 C127 1.100 . S
C5136 C443 1.092 . S
C5171 C309 1.635 . S
C5186 C643 1.630 . S
C5236 C531 1.397 . S
C5221 C151 1.394 . S
C5271 C283 0.142 . S
C5286 C719 0.323 . S
C5336 C602 1.844 . S
C5321 C125 1.829 . S
C5386 C879 1.353 . S
C5371 C221 1.371 . S
C5436 C482 1.951 1_655 S
C5421 C200 1.941 . S
C5471 C208 2.452 . S
C5486 C674 2.435 . S
C5536 C563 0.383 . S
C5521 C174 0.473 . S
C5571 C182 1.147 . S
C5586 C599 1.110 . S
C5621 C156 1.445 . S
C5636 C919 1.417 . S
C5686 C762 2.182 . S
C5671 C213 2.173 1_565 S
C5736 C803 0.338 . S
C5721 C252 0.303 . S
