# Generated by pormake.
# Topology gar, (4,6)-cn, num edge types: 1
# Building blocks:
#     Node 0, Type 0, BuildingBlock: KUFVIS_clean_sbu_0, # of connection points: 4
#     Node 1, Type 0, BuildingBlock: KUFVIS_clean_sbu_0, # of connection points: 4
#     Node 2, Type 0, BuildingBlock: KUFVIS_clean_sbu_0, # of connection points: 4
#     Node 3, Type 0, BuildingBlock: KUFVIS_clean_sbu_0, # of connection points: 4
#     Node 4, Type 0, BuildingBlock: KUFVIS_clean_sbu_0, # of connection points: 4
#     Node 5, Type 0, BuildingBlock: KUFVIS_clean_sbu_0, # of connection points: 4
#     Node 6, Type 0, BuildingBlock: KUFVIS_clean_sbu_0, # of connection points: 4
#     Node 7, Type 0, BuildingBlock: KUFVIS_clean_sbu_0, # of connection points: 4
#     Node 8, Type 0, BuildingBlock: KUFVIS_clean_sbu_0, # of connection points: 4
#     Node 9, Type 0, BuildingBlock: KUFVIS_clean_sbu_0, # of connection points: 4
#     Node 10, Type 0, BuildingBlock: KUFVIS_clean_sbu_0, # of connection points: 4
#     Node 11, Type 0, BuildingBlock: KUFVIS_clean_sbu_0, # of connection points: 4
#     Node 12, Type 0, BuildingBlock: KUFVIS_clean_sbu_0, # of connection points: 4
#     Node 13, Type 0, BuildingBlock: KUFVIS_clean_sbu_0, # of connection points: 4
#     Node 14, Type 0, BuildingBlock: KUFVIS_clean_sbu_0, # of connection points: 4
#     Node 15, Type 0, BuildingBlock: KUFVIS_clean_sbu_0, # of connection points: 4
#     Node 16, Type 0, BuildingBlock: KUFVIS_clean_sbu_0, # of connection points: 4
#     Node 17, Type 0, BuildingBlock: KUFVIS_clean_sbu_0, # of connection points: 4
#     Node 18, Type 0, BuildingBlock: KUFVIS_clean_sbu_0, # of connection points: 4
#     Node 19, Type 0, BuildingBlock: KUFVIS_clean_sbu_0, # of connection points: 4
#     Node 20, Type 0, BuildingBlock: KUFVIS_clean_sbu_0, # of connection points: 4
#     Node 21, Type 0, BuildingBlock: KUFVIS_clean_sbu_0, # of connection points: 4
#     Node 22, Type 0, BuildingBlock: KUFVIS_clean_sbu_0, # of connection points: 4
#     Node 23, Type 0, BuildingBlock: KUFVIS_clean_sbu_0, # of connection points: 4
#     Node 24, Type 1, BuildingBlock: PAMTOO_clean_sbu_0, # of connection points: 6
#     Node 25, Type 1, BuildingBlock: PAMTOO_clean_sbu_0, # of connection points: 6
#     Node 26, Type 1, BuildingBlock: PAMTOO_clean_sbu_0, # of connection points: 6
#     Node 27, Type 1, BuildingBlock: PAMTOO_clean_sbu_0, # of connection points: 6
#     Node 28, Type 1, BuildingBlock: PAMTOO_clean_sbu_0, # of connection points: 6
#     Node 29, Type 1, BuildingBlock: PAMTOO_clean_sbu_0, # of connection points: 6
#     Node 30, Type 1, BuildingBlock: PAMTOO_clean_sbu_0, # of connection points: 6
#     Node 31, Type 1, BuildingBlock: PAMTOO_clean_sbu_0, # of connection points: 6
#     Node 32, Type 1, BuildingBlock: PAMTOO_clean_sbu_0, # of connection points: 6
#     Node 33, Type 1, BuildingBlock: PAMTOO_clean_sbu_0, # of connection points: 6
#     Node 34, Type 1, BuildingBlock: PAMTOO_clean_sbu_0, # of connection points: 6
#     Node 35, Type 1, BuildingBlock: PAMTOO_clean_sbu_0, # of connection points: 6
#     Node 36, Type 1, BuildingBlock: PAMTOO_clean_sbu_0, # of connection points: 6
#     Node 37, Type 1, BuildingBlock: PAMTOO_clean_sbu_0, # of connection points: 6
#     Node 38, Type 1, BuildingBlock: PAMTOO_clean_sbu_0, # of connection points: 6
#     Node 39, Type 1, BuildingBlock: PAMTOO_clean_sbu_0, # of connection points: 6
#     Edge 40, Type (0, 1), BuildingBlock: CIFDUS_clean_linker_0, # of connection points: 2
#     Edge 41, Type (0, 1), BuildingBlock: CIFDUS_clean_linker_0, # of connection points: 2
#     Edge 42, Type (0, 1), BuildingBlock: CIFDUS_clean_linker_0, # of connection points: 2
#     Edge 43, Type (0, 1), BuildingBlock: CIFDUS_clean_linker_0, # of connection points: 2
#     Edge 44, Type (0, 1), BuildingBlock: CIFDUS_clean_linker_0, # of connection points: 2
#     Edge 45, Type (0, 1), BuildingBlock: CIFDUS_clean_linker_0, # of connection points: 2
#     Edge 46, Type (0, 1), BuildingBlock: CIFDUS_clean_linker_0, # of connection points: 2
#     Edge 47, Type (0, 1), BuildingBlock: CIFDUS_clean_linker_0, # of connection points: 2
#     Edge 48, Type (0, 1), BuildingBlock: CIFDUS_clean_linker_0, # of connection points: 2
#     Edge 49, Type (0, 1), BuildingBlock: CIFDUS_clean_linker_0, # of connection points: 2
#     Edge 50, Type (0, 1), BuildingBlock: CIFDUS_clean_linker_0, # of connection points: 2
#     Edge 51, Type (0, 1), BuildingBlock: CIFDUS_clean_linker_0, # of connection points: 2
#     Edge 52, Type (0, 1), BuildingBlock: CIFDUS_clean_linker_0, # of connection points: 2
#     Edge 53, Type (0, 1), BuildingBlock: CIFDUS_clean_linker_0, # of connection points: 2
#     Edge 54, Type (0, 1), BuildingBlock: CIFDUS_clean_linker_0, # of connection points: 2
#     Edge 55, Type (0, 1), BuildingBlock: CIFDUS_clean_linker_0, # of connection points: 2
#     Edge 56, Type (0, 1), BuildingBlock: CIFDUS_clean_linker_0, # of connection points: 2
#     Edge 57, Type (0, 1), BuildingBlock: CIFDUS_clean_linker_0, # of connection points: 2
#     Edge 58, Type (0, 1), BuildingBlock: CIFDUS_clean_linker_0, # of connection points: 2
#     Edge 59, Type (0, 1), BuildingBlock: CIFDUS_clean_linker_0, # of connection points: 2
#     Edge 60, Type (0, 1), BuildingBlock: CIFDUS_clean_linker_0, # of connection points: 2
#     Edge 61, Type (0, 1), BuildingBlock: CIFDUS_clean_linker_0, # of connection points: 2
#     Edge 62, Type (0, 1), BuildingBlock: CIFDUS_clean_linker_0, # of connection points: 2
#     Edge 63, Type (0, 1), BuildingBlock: CIFDUS_clean_linker_0, # of connection points: 2
#     Edge 64, Type (0, 1), BuildingBlock: CIFDUS_clean_linker_0, # of connection points: 2
#     Edge 65, Type (0, 1), BuildingBlock: CIFDUS_clean_linker_0, # of connection points: 2
#     Edge 66, Type (0, 1), BuildingBlock: CIFDUS_clean_linker_0, # of connection points: 2
#     Edge 67, Type (0, 1), BuildingBlock: CIFDUS_clean_linker_0, # of connection points: 2
#     Edge 68, Type (0, 1), BuildingBlock: CIFDUS_clean_linker_0, # of connection points: 2
#     Edge 69, Type (0, 1), BuildingBlock: CIFDUS_clean_linker_0, # of connection points: 2
#     Edge 70, Type (0, 1), BuildingBlock: CIFDUS_clean_linker_0, # of connection points: 2
#     Edge 71, Type (0, 1), BuildingBlock: CIFDUS_clean_linker_0, # of connection points: 2
#     Edge 72, Type (0, 1), BuildingBlock: CIFDUS_clean_linker_0, # of connection points: 2
#     Edge 73, Type (0, 1), BuildingBlock: CIFDUS_clean_linker_0, # of connection points: 2
#     Edge 74, Type (0, 1), BuildingBlock: CIFDUS_clean_linker_0, # of connection points: 2
#     Edge 75, Type (0, 1), BuildingBlock: CIFDUS_clean_linker_0, # of connection points: 2
#     Edge 76, Type (0, 1), BuildingBlock: CIFDUS_clean_linker_0, # of connection points: 2
#     Edge 77, Type (0, 1), BuildingBlock: CIFDUS_clean_linker_0, # of connection points: 2
#     Edge 78, Type (0, 1), BuildingBlock: CIFDUS_clean_linker_0, # of connection points: 2
#     Edge 79, Type (0, 1), BuildingBlock: CIFDUS_clean_linker_0, # of connection points: 2
#     Edge 80, Type (0, 1), BuildingBlock: CIFDUS_clean_linker_0, # of connection points: 2
#     Edge 81, Type (0, 1), BuildingBlock: CIFDUS_clean_linker_0, # of connection points: 2
#     Edge 82, Type (0, 1), BuildingBlock: CIFDUS_clean_linker_0, # of connection points: 2
#     Edge 83, Type (0, 1), BuildingBlock: CIFDUS_clean_linker_0, # of connection points: 2
#     Edge 84, Type (0, 1), BuildingBlock: CIFDUS_clean_linker_0, # of connection points: 2
#     Edge 85, Type (0, 1), BuildingBlock: CIFDUS_clean_linker_0, # of connection points: 2
#     Edge 86, Type (0, 1), BuildingBlock: CIFDUS_clean_linker_0, # of connection points: 2
#     Edge 87, Type (0, 1), BuildingBlock: CIFDUS_clean_linker_0, # of connection points: 2
#     Edge 88, Type (0, 1), BuildingBlock: CIFDUS_clean_linker_0, # of connection points: 2
#     Edge 89, Type (0, 1), BuildingBlock: CIFDUS_clean_linker_0, # of connection points: 2
#     Edge 90, Type (0, 1), BuildingBlock: CIFDUS_clean_linker_0, # of connection points: 2
#     Edge 91, Type (0, 1), BuildingBlock: CIFDUS_clean_linker_0, # of connection points: 2
#     Edge 92, Type (0, 1), BuildingBlock: CIFDUS_clean_linker_0, # of connection points: 2
#     Edge 93, Type (0, 1), BuildingBlock: CIFDUS_clean_linker_0, # of connection points: 2
#     Edge 94, Type (0, 1), BuildingBlock: CIFDUS_clean_linker_0, # of connection points: 2
#     Edge 95, Type (0, 1), BuildingBlock: CIFDUS_clean_linker_0, # of connection points: 2
#     Edge 96, Type (0, 1), BuildingBlock: CIFDUS_clean_linker_0, # of connection points: 2
#     Edge 97, Type (0, 1), BuildingBlock: CIFDUS_clean_linker_0, # of connection points: 2
#     Edge 98, Type (0, 1), BuildingBlock: CIFDUS_clean_linker_0, # of connection points: 2
#     Edge 99, Type (0, 1), BuildingBlock: CIFDUS_clean_linker_0, # of connection points: 2
#     Edge 100, Type (0, 1), BuildingBlock: CIFDUS_clean_linker_0, # of connection points: 2
#     Edge 101, Type (0, 1), BuildingBlock: CIFDUS_clean_linker_0, # of connection points: 2
#     Edge 102, Type (0, 1), BuildingBlock: CIFDUS_clean_linker_0, # of connection points: 2
#     Edge 103, Type (0, 1), BuildingBlock: CIFDUS_clean_linker_0, # of connection points: 2
#     Edge 104, Type (0, 1), BuildingBlock: CIFDUS_clean_linker_0, # of connection points: 2
#     Edge 105, Type (0, 1), BuildingBlock: CIFDUS_clean_linker_0, # of connection points: 2
#     Edge 106, Type (0, 1), BuildingBlock: CIFDUS_clean_linker_0, # of connection points: 2
#     Edge 107, Type (0, 1), BuildingBlock: CIFDUS_clean_linker_0, # of connection points: 2
#     Edge 108, Type (0, 1), BuildingBlock: CIFDUS_clean_linker_0, # of connection points: 2
#     Edge 109, Type (0, 1), BuildingBlock: CIFDUS_clean_linker_0, # of connection points: 2
#     Edge 110, Type (0, 1), BuildingBlock: CIFDUS_clean_linker_0, # of connection points: 2
#     Edge 111, Type (0, 1), BuildingBlock: CIFDUS_clean_linker_0, # of connection points: 2
#     Edge 112, Type (0, 1), BuildingBlock: CIFDUS_clean_linker_0, # of connection points: 2
#     Edge 113, Type (0, 1), BuildingBlock: CIFDUS_clean_linker_0, # of connection points: 2
#     Edge 114, Type (0, 1), BuildingBlock: CIFDUS_clean_linker_0, # of connection points: 2
#     Edge 115, Type (0, 1), BuildingBlock: CIFDUS_clean_linker_0, # of connection points: 2
#     Edge 116, Type (0, 1), BuildingBlock: CIFDUS_clean_linker_0, # of connection points: 2
#     Edge 117, Type (0, 1), BuildingBlock: CIFDUS_clean_linker_0, # of connection points: 2
#     Edge 118, Type (0, 1), BuildingBlock: CIFDUS_clean_linker_0, # of connection points: 2
#     Edge 119, Type (0, 1), BuildingBlock: CIFDUS_clean_linker_0, # of connection points: 2
#     Edge 120, Type (0, 1), BuildingBlock: CIFDUS_clean_linker_0, # of connection points: 2
#     Edge 121, Type (0, 1), BuildingBlock: CIFDUS_clean_linker_0, # of connection points: 2
#     Edge 122, Type (0, 1), BuildingBlock: CIFDUS_clean_linker_0, # of connection points: 2
#     Edge 123, Type (0, 1), BuildingBlock: CIFDUS_clean_linker_0, # of connection points: 2
#     Edge 124, Type (0, 1), BuildingBlock: CIFDUS_clean_linker_0, # of connection points: 2
#     Edge 125, Type (0, 1), BuildingBlock: CIFDUS_clean_linker_0, # of connection points: 2
#     Edge 126, Type (0, 1), BuildingBlock: CIFDUS_clean_linker_0, # of connection points: 2
#     Edge 127, Type (0, 1), BuildingBlock: CIFDUS_clean_linker_0, # of connection points: 2
#     Edge 128, Type (0, 1), BuildingBlock: CIFDUS_clean_linker_0, # of connection points: 2
#     Edge 129, Type (0, 1), BuildingBlock: CIFDUS_clean_linker_0, # of connection points: 2
#     Edge 130, Type (0, 1), BuildingBlock: CIFDUS_clean_linker_0, # of connection points: 2
#     Edge 131, Type (0, 1), BuildingBlock: CIFDUS_clean_linker_0, # of connection points: 2
#     Edge 132, Type (0, 1), BuildingBlock: CIFDUS_clean_linker_0, # of connection points: 2
#     Edge 133, Type (0, 1), BuildingBlock: CIFDUS_clean_linker_0, # of connection points: 2
#     Edge 134, Type (0, 1), BuildingBlock: CIFDUS_clean_linker_0, # of connection points: 2
#     Edge 135, Type (0, 1), BuildingBlock: CIFDUS_clean_linker_0, # of connection points: 2
# Relax obj value: 0.153
# Max RMSD: 0.274
# Mean RMSD: 0.159
data_MOF--net-gar--node1-KUFVIS_clean_sbu_0--node2-PAMTOO_clean_sbu_0--edge1-CIFDUS_clean_linker_0
_symmetry_space_group_name_H-M    P1
_symmetry_Int_Tables_number       1
_symmetry_cell_setting            triclinic
loop_
_symmetry_equiv_pos_as_xyz
'x, y, z'
_cell_length_a     51.785471
_cell_length_b     52.143379
_cell_length_c     51.11199
_cell_angle_alpha  97.205425
_cell_angle_beta   96.360929
_cell_angle_gamma 105.5138
loop_
_atom_site_label
_atom_site_type_symbol
_atom_site_fract_x
_atom_site_fract_y
_atom_site_fract_z
_atom_type_partial_charge
Mn0 Mn 0.06719 0.33944 0.3898 0.0
Mn1 Mn 0.07088 0.3777 0.34148 0.0
C2 C 0.02647 0.3441 0.36741 0.0
C3 C 0.06641 0.30056 0.40904 0.0
C4 C 0.08161 0.40189 0.40062 0.0
O5 O 0.10522 0.34113 0.37902 0.0
O6 O 0.10665 0.36747 0.34742 0.0
C7 C 0.07285 0.33661 0.29654 0.0
N8 N 0.06058 0.35452 0.30759 0.0
C9 C 0.02536 0.3426 0.26954 0.0
C10 C 0.03778 0.32424 0.25772 0.0
C11 C 0.06161 0.32123 0.2713 0.0
C12 C 0.03761 0.35756 0.29466 0.0
H13 H 0.09103 0.33394 0.30688 0.0
C14 C 0.11724 0.35253 0.36103 0.0
O15 O 0.0763 0.32468 0.42222 0.0
O16 O 0.05678 0.29849 0.38397 0.0
N17 N 0.03857 0.38807 0.33241 0.0
C18 C 0.02827 0.40568 0.34697 0.0
C19 C 1.00411 0.41046 0.33638 0.0
C20 C 0.99076 0.39712 0.31093 0.0
C21 C 1.00177 0.37923 0.29624 0.0
C22 C 0.02606 0.37543 0.30772 0.0
H23 H 0.03815 0.41579 0.36668 0.0
O24 O 0.02803 0.33808 0.39132 0.0
O25 O 0.04912 0.34725 0.35717 0.0
O26 O 0.07861 0.37898 0.4079 0.0
O27 O 0.0804 0.40437 0.37591 0.0
C28 C 0.98929 0.3646 0.27087 0.0
C29 C 1.00107 0.3463 0.25753 0.0
H30 H 0.02907 0.3122 0.23833 0.0
H31 H 0.07123 0.30699 0.26238 0.0
H32 H 0.99567 0.4242 0.34791 0.0
H33 H 0.97194 0.40061 0.30297 0.0
H34 H 0.97045 0.36705 0.26155 0.0
H35 H 0.99113 0.33497 0.23814 0.0
Mn36 Mn 0.04693 0.76426 0.71998 0.0
Mn37 Mn 0.07125 0.81617 0.77111 0.0
C38 C 0.09487 0.78002 0.73658 0.0
C39 C 0.03292 0.71857 0.69713 0.0
C40 C 0.05827 0.82476 0.71473 0.0
O41 O 1.0104 0.76574 0.73546 0.0
O42 O 0.03024 0.80302 0.76555 0.0
C43 C 0.05447 0.78332 0.81287 0.0
N44 N 0.07429 0.80023 0.80263 0.0
C45 C 0.10843 0.79818 0.83769 0.0
C46 C 0.08835 0.78085 0.84867 0.0
C47 C 0.06127 0.77338 0.83618 0.0
C48 C 0.10045 0.80739 0.81438 0.0
H49 H 0.03366 0.77737 0.80327 0.0
C50 C 1.00863 0.78504 0.75323 0.0
O51 O 0.02739 0.73817 0.68665 0.0
O52 O 0.04342 0.72474 0.72224 0.0
N53 N 0.10974 0.8315 0.77954 0.0
C54 C 0.12638 0.84967 0.76736 0.0
C55 C 0.15409 0.8597 0.77773 0.0
C56 C 0.16431 0.85131 0.80076 0.0
C57 C 0.1466 0.83339 0.81353 0.0
C58 C 0.11915 0.82424 0.80237 0.0
H59 H 0.11864 0.85623 0.74968 0.0
O60 O 0.08533 0.76755 0.71254 0.0
O61 O 0.07597 0.78326 0.75072 0.0
O62 O 0.04781 0.79965 0.70598 0.0
O63 O 0.06946 0.8339 0.73892 0.0
C64 C 0.1551 0.82431 0.83692 0.0
C65 C 0.13604 0.80663 0.84894 0.0
H66 H 0.0935 0.77314 0.86666 0.0
H67 H 0.04567 0.75995 0.84449 0.0
H68 H 0.16755 0.87378 0.76793 0.0
H69 H 0.18572 0.85891 0.80857 0.0
H70 H 0.17624 0.83083 0.84586 0.0
H71 H 0.14282 0.79978 0.86692 0.0
Mn72 Mn 0.57339 0.84327 0.89006 0.0
Mn73 Mn 0.5746 0.88022 0.84077 0.0
C74 C 0.5316 0.84722 0.86839 0.0
C75 C 0.57176 0.80345 0.90823 0.0
C76 C 0.5857 0.90566 0.89968 0.0
O77 O 0.61187 0.8455 0.87871 0.0
O78 O 0.61101 0.87174 0.84725 0.0
C79 C 0.57746 0.83854 0.79689 0.0
N80 N 0.56467 0.85622 0.8074 0.0
C81 C 0.52931 0.84264 0.76941 0.0
C82 C 0.54225 0.82449 0.75813 0.0
C83 C 0.56641 0.82243 0.77195 0.0
C84 C 0.54136 0.85832 0.79427 0.0
H85 H 0.5959 0.83663 0.80744 0.0
C86 C 0.62304 0.85771 0.86066 0.0
O87 O 0.58223 0.82724 0.92217 0.0
O88 O 0.56307 0.80257 0.88317 0.0
N89 N 0.54174 0.88946 0.83127 0.0
C90 C 0.53123 0.90732 0.84519 0.0
C91 C 0.5068 0.91135 0.83426 0.0
C92 C 0.49349 0.89712 0.8091 0.0
C93 C 0.50483 0.87913 0.79499 0.0
C94 C 0.52935 0.87606 0.8068 0.0
H95 H 0.54116 0.91818 0.86464 0.0
O96 O 0.53404 0.84135 0.89228 0.0
O97 O 0.55395 0.85042 0.85761 0.0
O98 O 0.58427 0.88342 0.90827 0.0
O99 O 0.58358 0.90692 0.87467 0.0
C100 C 0.49251 0.86374 0.76988 0.0
C101 C 0.50473 0.8455 0.75711 0.0
H102 H 0.53372 0.81191 0.73895 0.0
H103 H 0.57644 0.80835 0.76344 0.0
H104 H 0.49815 0.92524 0.8453 0.0
H105 H 0.47449 0.90006 0.80087 0.0
H106 H 0.4735 0.86559 0.76033 0.0
H107 H 0.49493 0.83361 0.73792 0.0
Mn108 Mn 0.54191 0.26135 0.21728 0.0
Mn109 Mn 0.48872 0.2428 0.16676 0.0
C110 C 0.52412 0.21564 0.19556 0.0
C111 C 0.59115 0.27414 0.23139 0.0
C112 C 0.48115 0.26006 0.22436 0.0
O113 O 0.54342 0.29706 0.20306 0.0
O114 O 0.50811 0.28174 0.16917 0.0
C115 C 0.51856 0.24951 0.12072 0.0
N116 N 0.50085 0.23348 0.13383 0.0
C117 C 0.4936 0.19523 0.09935 0.0
C118 C 0.51164 0.21139 0.08542 0.0
C119 C 0.52422 0.23862 0.09619 0.0
C120 C 0.48856 0.20726 0.1236 0.0
H121 H 0.52833 0.27044 0.12894 0.0
C122 C 0.52811 0.30051 0.18299 0.0
O123 O 0.57449 0.27865 0.24743 0.0
O124 O 0.57949 0.26297 0.20747 0.0
N125 N 0.46921 0.20539 0.16254 0.0
C126 C 0.45415 0.19209 0.17954 0.0
C127 C 0.44129 0.1643 0.17241 0.0
C128 C 0.44405 0.15052 0.14791 0.0
C129 C 0.45971 0.16464 0.13077 0.0
C130 C 0.47191 0.19234 0.13888 0.0
H131 H 0.45215 0.20257 0.19848 0.0
O132 O 0.53655 0.22143 0.21997 0.0
O133 O 0.52078 0.23647 0.1858 0.0
O134 O 0.50627 0.26388 0.23471 0.0
O135 O 0.47313 0.25169 0.19942 0.0
C136 C 0.4642 0.15219 0.10626 0.0
C137 C 0.48107 0.16749 0.09053 0.0
H138 H 0.51629 0.20299 0.06664 0.0
H139 H 0.5383 0.25117 0.08564 0.0
H140 H 0.42939 0.15351 0.18581 0.0
H141 H 0.43431 0.12904 0.14259 0.0
H142 H 0.45509 0.13078 0.0995 0.0
H143 H 0.48472 0.15761 0.07194 0.0
Mn144 Mn 0.11003 0.83272 0.14118 0.0
Mn145 Mn 0.05984 0.81118 0.08855 0.0
C146 C 0.09575 0.78611 0.12127 0.0
C147 C 0.15522 0.84767 0.16514 0.0
C148 C 0.04883 0.82072 0.1452 0.0
O149 O 0.1087 0.86943 0.12783 0.0
O150 O 0.07323 0.85222 0.09493 0.0
C151 C 0.09334 0.82867 0.04713 0.0
N152 N 0.0761 0.80874 0.05686 0.0
C153 C 0.07706 0.77558 0.01998 0.0
C154 C 0.09469 0.79579 1.00949 0.0
C155 C 0.10288 0.82243 0.02315 0.0
C156 C 0.06812 0.78302 0.0439 0.0
H157 H 0.09982 0.84915 0.0576 0.0
C158 C 0.09122 0.8727 0.10924 0.0
O159 O 0.13453 0.85147 0.17536 0.0
O160 O 0.15034 0.83774 0.13983 0.0
N161 N 0.04476 0.77288 0.07936 0.0
C162 C 0.02842 0.75559 0.0926 0.0
C163 C 1.01887 0.72803 0.08184 0.0
C164 C 0.02599 0.71859 0.05749 0.0
C165 C 0.0425 0.73683 0.04404 0.0
C166 C 0.05133 0.76408 0.05569 0.0
H167 H 1.02296 0.76269 0.11138 0.0
O168 O 0.10702 0.79406 0.14591 0.0
O169 O 0.09275 0.80587 0.10865 0.0
O170 O 0.07384 0.83001 0.15492 0.0
O171 O 0.04075 0.81214 0.12031 0.0
C172 C 0.051 0.72894 0.01983 0.0
C173 C 0.06829 0.7483 1.00782 0.0
H174 H 0.10218 0.79105 0.99106 0.0
H175 H 0.11658 0.83812 0.01524 0.0
H176 H 1.00616 0.71409 0.09235 0.0
H177 H 1.01879 0.69729 0.04938 0.0
H178 H 0.04459 0.708 1.01041 0.0
H179 H 0.07489 0.74195 0.98933 0.0
Mn180 Mn 0.51102 0.7837 0.46827 0.0
Mn181 Mn 0.50885 0.82342 0.41939 0.0
C182 C 0.46854 0.78506 0.44447 0.0
C183 C 0.51534 0.74111 0.48302 0.0
C184 C 0.52009 0.84712 0.47828 0.0
O185 O 0.54973 0.79161 0.45835 0.0
O186 O 0.54465 0.81716 0.42684 0.0
C187 C 0.51457 0.78399 0.37497 0.0
N188 N 0.50126 0.80129 0.38517 0.0
C189 C 0.47334 0.79595 0.34286 0.0
C190 C 0.48673 0.77808 0.33186 0.0
C191 C 0.50727 0.77189 0.34806 0.0
C192 C 0.48097 0.80678 0.36997 0.0
H193 H 0.53074 0.77966 0.38725 0.0
C194 C 0.55884 0.80571 0.44078 0.0
O195 O 0.52208 0.7641 0.49884 0.0
O196 O 0.50556 0.7426 0.45891 0.0
N197 N 0.47601 0.83219 0.40891 0.0
C198 C 0.46498 0.8497 0.42261 0.0
C199 C 0.44413 0.85799 0.40934 0.0
C200 C 0.4354 0.84888 0.38192 0.0
C201 C 0.44751 0.83144 0.36805 0.0
C202 C 0.46797 0.82361 0.38242 0.0
H203 H 0.47213 0.85739 0.44347 0.0
O204 O 0.47001 0.77711 0.46758 0.0
O205 O 0.49159 0.79186 0.43575 0.0
O206 O 0.51937 0.82477 0.48721 0.0
O207 O 0.5163 0.84835 0.45346 0.0
C208 C 0.44013 0.82155 0.34051 0.0
C209 C 0.45283 0.80359 0.32798 0.0
H210 H 0.48143 0.76901 0.31102 0.0
H211 H 0.51771 0.75813 0.33971 0.0
H212 H 0.43503 0.87161 0.42016 0.0
H213 H 0.41938 0.85539 0.37173 0.0
H214 H 0.42437 0.82725 0.32889 0.0
H215 H 0.44662 0.79572 0.30691 0.0
Mn216 Mn 0.60345 0.32618 0.63579 0.0
Mn217 Mn 0.55785 0.30181 0.57955 0.0
C218 C 0.59242 0.27944 0.61611 0.0
C219 C 0.6468 0.34257 0.66369 0.0
C220 C 0.54114 0.3101 0.63402 0.0
O221 O 0.60168 0.36273 0.62141 0.0
O222 O 0.56938 0.34246 0.58641 0.0
C223 C 0.59526 0.3213 0.54181 0.0
N224 N 0.57741 0.30067 0.55002 0.0
C225 C 0.58259 0.26858 0.51426 0.0
C226 C 0.6009 0.28952 0.50533 0.0
C227 C 0.60729 0.31598 0.5192 0.0
C228 C 0.57122 0.27511 0.5369 0.0
H229 H 0.60031 0.34165 0.55244 0.0
C230 C 0.58501 0.36414 0.60106 0.0
O231 O 0.62463 0.34532 0.67143 0.0
O232 O 0.64461 0.33323 0.63845 0.0
N233 N 0.5446 0.26341 0.56976 0.0
C234 C 0.52678 0.24545 0.58112 0.0
C235 C 0.51847 0.21803 0.56977 0.0
C236 C 0.52825 0.20942 0.54668 0.0
C237 C 0.54609 0.22836 0.53501 0.0
C238 C 0.55358 0.25544 0.54715 0.0
H239 H 0.51916 0.25193 0.59886 0.0
O240 O 0.60155 0.28775 0.64121 0.0
O241 O 0.58978 0.29875 0.60283 0.0
O242 O 0.56528 0.32114 0.64594 0.0
O243 O 0.53574 0.30139 0.60896 0.0
C244 C 0.55708 0.22138 0.51205 0.0
C245 C 0.57537 0.24146 0.50173 0.0
H246 H 0.61027 0.28549 0.48794 0.0
H247 H 0.62149 0.33223 0.51249 0.0
H248 H 0.50464 0.20354 0.57886 0.0
H249 H 0.52198 0.18822 0.53813 0.0
H250 H 0.55179 0.20059 0.50232 0.0
H251 H 0.58385 0.23581 0.48419 0.0
Mn252 Mn 1.01033 0.28899 0.97005 0.0
Mn253 Mn 1.00645 0.32589 0.91902 0.0
C254 C 0.96709 0.28936 0.94665 0.0
C255 C 1.01591 0.24804 0.98808 0.0
C256 C 1.01933 0.35274 0.97726 0.0
O257 O 0.04863 0.29601 0.95895 0.0
O258 O 0.04253 0.3201 0.92647 0.0
C259 C 1.01153 0.2843 0.87633 0.0
N260 N 0.99836 0.30208 0.88571 0.0
C261 C 0.96937 0.29413 0.84359 0.0
C262 C 0.98264 0.27576 0.83342 0.0
C263 C 1.00366 0.27065 0.84994 0.0
C264 C 0.97766 0.30659 0.87022 0.0
H265 H 0.028 0.2807 0.88883 0.0
C266 C 0.0572 0.30922 0.94057 0.0
O267 O 1.02267 0.27207 1.00194 0.0
O268 O 1.00508 0.24729 0.96369 0.0
N269 N 0.97331 0.33395 0.90812 0.0
C270 C 0.96219 0.35181 0.92112 0.0
C271 C 0.94116 0.35945 0.90734 0.0
C272 C 0.93206 0.34903 0.88019 0.0
C273 C 0.94396 0.3309 0.86712 0.0
C274 C 0.96483 0.32402 0.8819 0.0
H275 H 0.96914 0.35993 0.9419 0.0
O276 O 0.96942 0.28277 0.97035 0.0
O277 O 0.98975 0.29538 0.9371 0.0
O278 O 1.01915 0.3309 0.98705 0.0
O279 O 1.0144 0.35255 0.95218 0.0
C280 C 0.93587 0.3193 0.84001 0.0
C281 C 0.94835 0.30068 0.82834 0.0
H282 H 0.97687 0.26546 0.81298 0.0
H283 H 1.01399 0.25649 0.84225 0.0
H284 H 0.93203 0.37339 0.91762 0.0
H285 H 0.9158 0.35493 0.86964 0.0
H286 H 0.91972 0.32417 0.8281 0.0
H287 H 0.94162 0.29151 0.80762 0.0
Mn288 Mn 0.41879 0.06385 0.32927 0.0
Mn289 Mn 0.37274 0.03065 0.36404 0.0
C290 C 0.41072 0.01815 0.32838 0.0
C291 C 0.43065 0.07873 0.29026 0.0
C292 C 0.42854 0.06635 0.38956 0.0
O293 O 0.39623 0.08944 0.33598 0.0
O294 O 0.36506 0.06493 0.35756 0.0
C295 C 0.32406 0.01824 0.32302 0.0
N296 N 0.3412 1.00966 0.33971 0.0
C297 C 0.31562 0.96324 0.3247 0.0
C298 C 0.29762 0.97161 0.3075 0.0
C299 C 0.3019 0.99923 0.30663 0.0
C300 C 0.33733 0.98312 0.34062 0.0
H301 H 0.32729 0.03942 0.32212 0.0
C302 C 0.37465 0.08562 0.34666 0.0
O303 O 0.44525 0.09008 0.31322 0.0
O304 O 0.4083 0.06013 0.29036 0.0
N305 N 0.37747 0.99669 0.37069 0.0
C306 C 0.39754 0.99176 0.38714 0.0
C307 C 0.39629 0.96509 0.39023 0.0
C308 C 0.37453 0.94374 0.37625 0.0
C309 C 0.35428 0.94926 0.35919 0.0
C310 C 0.35637 0.97627 0.35724 0.0
H311 H 0.41454 1.00798 0.39757 0.0
O312 O 0.43369 0.03231 0.32312 0.0
O313 O 0.39373 0.03134 0.33458 0.0
O314 O 0.43648 0.07286 0.368 0.0
O315 O 0.40498 0.05095 0.39057 0.0
C316 C 0.33242 0.92897 0.34363 0.0
C317 C 0.31314 0.93593 0.32633 0.0
H318 H 0.28057 0.95701 0.29473 0.0
H319 H 0.28817 1.00585 0.29329 0.0
H320 H 0.41221 0.96098 0.40316 0.0
H321 H 0.37381 0.92316 0.37841 0.0
H322 H 0.33056 0.90795 0.34447 0.0
H323 H 0.29664 0.9201 0.31419 0.0
Mn324 Mn 0.28075 0.22401 0.54108 0.0
Mn325 Mn 0.26754 0.17054 0.49163 0.0
C326 C 0.23628 0.19904 0.52369 0.0
C327 C 0.28634 0.24012 0.58782 0.0
C328 C 0.28624 0.22855 0.48162 0.0
O329 O 0.31677 0.2143 0.54358 0.0
O330 O 0.30519 0.17843 0.51029 0.0
C331 C 0.26978 0.12809 0.52454 0.0
N332 N 0.25584 0.13792 0.50594 0.0
C333 C 0.2168 0.09928 0.50118 0.0
C334 C 0.23081 0.08868 0.52016 0.0
C335 C 0.25739 0.10318 0.53192 0.0
C336 C 0.23025 0.12411 0.49448 0.0
H337 H 0.29018 0.1392 0.5337 0.0
C338 C 0.32207 0.19487 0.52928 0.0
O339 O 0.29532 0.25619 0.57125 0.0
O340 O 0.27563 0.21509 0.57747 0.0
N341 N 0.23146 0.16082 0.47253 0.0
C342 C 0.22012 0.17473 0.456 0.0
C343 C 0.19315 0.16356 0.4435 0.0
C344 C 0.17816 0.1382 0.44807 0.0
C345 C 0.19031 0.12421 0.46507 0.0
C346 C 0.21732 0.13627 0.47682 0.0
H347 H 0.23152 0.19428 0.45252 0.0
O348 O 0.24151 0.22387 0.53526 0.0
O349 O 0.25726 0.1903 0.52175 0.0
O350 O 0.28798 0.24014 0.50584 0.0
O351 O 0.27883 0.20293 0.47486 0.0
C352 C 0.17651 0.09903 0.47123 0.0
C353 C 0.18976 0.08654 0.48923 0.0
H354 H 0.22124 0.06959 0.5261 0.0
H355 H 0.26828 0.09521 0.54671 0.0
H356 H 0.18389 0.17451 0.43047 0.0
H357 H 0.15729 0.12976 0.43858 0.0
H358 H 0.15557 0.08927 0.46253 0.0
H359 H 0.1788 0.06739 0.49413 0.0
Mn360 Mn 0.13841 0.07636 0.80787 0.0
Mn361 Mn 0.19398 0.09399 0.85523 0.0
C362 C 0.16243 0.1214 0.8223 0.0
C363 C 0.11862 0.06605 0.76235 0.0
C364 C 0.13687 0.0752 0.86832 0.0
O365 O 0.1495 0.04136 0.80665 0.0
O366 O 0.18632 0.0557 0.83877 0.0
C367 C 0.23509 0.08983 0.82024 0.0
N368 N 0.22574 0.10472 0.8388 0.0
C369 C 0.2641 0.14342 0.84066 0.0
C370 C 0.27421 0.12846 0.82167 0.0
C371 C 0.25959 0.10158 0.81136 0.0
C372 C 0.2396 0.13063 0.84879 0.0
H373 H 0.22393 0.06916 0.81226 0.0
C374 C 0.16963 0.03755 0.82097 0.0
O375 O 0.10463 0.0585 0.78106 0.0
O376 O 0.14406 0.07855 0.76992 0.0
N377 N 0.20365 0.13079 0.87232 0.0
C378 C 0.19026 0.1429 0.88922 0.0
C379 C 0.20161 0.17019 0.90047 0.0
C380 C 0.22665 0.18466 0.89435 0.0
C381 C 0.24014 0.1717 0.87705 0.0
C382 C 0.22789 0.14444 0.86654 0.0
H383 H 0.17101 0.13187 0.89397 0.0
O384 O 0.13706 0.11491 0.81191 0.0
O385 O 0.1724 0.1014 0.82478 0.0
O386 O 0.12455 0.07134 0.8443 0.0
O387 O 0.16264 0.08382 0.87426 0.0
C388 C 0.26502 0.18486 0.86948 0.0
C389 C 0.27703 0.17072 0.85135 0.0
H390 H 0.29301 0.13749 0.81465 0.0
H391 H 0.26719 0.08994 0.79659 0.0
H392 H 0.19106 0.18006 0.91376 0.0
H393 H 0.23524 0.20575 0.90291 0.0
H394 H 0.27492 0.20596 0.8772 0.0
H395 H 0.29595 0.18117 0.84536 0.0
Mn396 Mn 0.30286 0.9388 0.02506 0.0
Mn397 Mn 0.3103 0.99217 0.99247 0.0
C398 C 0.34481 0.96233 0.01727 0.0
C399 C 0.30267 0.91783 0.0624 0.0
C400 C 0.28889 0.93468 0.96458 0.0
O401 O 0.26859 0.94912 0.0298 0.0
O402 O 0.27463 0.98283 1.00533 0.0
C403 C 0.31117 0.03325 0.03858 0.0
N404 N 0.32316 0.02461 0.01811 0.0
C405 C 0.36119 0.06453 0.02913 0.0
C406 C 0.34915 0.07389 0.05018 0.0
C407 C 0.32405 0.05816 0.05494 0.0
C408 C 0.34731 0.03963 1.01335 0.0
H409 H 0.29197 0.02126 0.04249 0.0
C410 C 0.261 0.9677 0.01998 0.0
O411 O 0.29016 0.90482 0.03918 0.0
O412 O 0.31389 0.9436 0.06434 0.0
N413 N 0.3444 1.00388 0.97989 0.0
C414 C 0.35433 0.99118 0.9601 0.0
C415 C 0.37964 1.00393 0.95333 0.0
C416 C 0.39453 0.02962 0.96699 0.0
C417 C 0.38396 0.04233 0.98731 0.0
C418 C 0.35847 0.02875 0.99298 0.0
H419 H 0.34332 0.97126 0.94999 0.0
O420 O 0.34005 0.93716 0.02006 0.0
O421 O 0.32478 0.97274 0.0182 0.0
O422 O 0.28869 0.9245 0.98587 0.0
O423 O 0.29781 0.95992 0.96423 0.0
C424 C 0.39804 0.06764 1.00261 0.0
C425 C 0.38668 0.07872 0.02353 0.0
H426 H 0.3591 0.09301 0.06296 0.0
H427 H 0.31467 0.06518 0.07123 0.0
H428 H 0.38779 0.99383 0.93784 0.0
H429 H 0.41423 0.03923 0.96199 0.0
H430 H 0.41782 0.07854 0.99874 0.0
H431 H 0.39788 0.098 0.03541 0.0
Mn432 Mn 0.32399 0.39583 0.06625 0.0
Mn433 Mn 0.34043 0.44263 0.02545 0.0
C434 C 0.36925 0.41783 0.0645 0.0
C435 C 0.3149 0.38443 0.10894 0.0
C436 C 0.32369 0.3824 1.00487 0.0
O437 O 0.28851 0.40608 0.05885 0.0
O438 O 0.30205 0.43549 0.03098 0.0
C439 C 0.33435 0.48917 0.06145 0.0
N440 N 0.34939 0.47807 0.04568 0.0
C441 C 0.38365 0.52062 0.05046 0.0
C442 C 0.36848 0.53254 0.06668 0.0
C443 C 0.34383 0.51669 0.07236 0.0
C444 C 0.37339 0.49302 0.04055 0.0
H445 H 0.31519 0.47718 0.06553 0.0
C446 C 0.28418 0.4228 0.04378 0.0
O447 O 0.30698 0.36666 0.0873 0.0
O448 O 0.32703 0.40868 0.10558 0.0
N449 N 0.37694 0.45277 0.01806 0.0
C450 C 0.39022 0.43779 1.00402 0.0
C451 C 0.41548 0.45046 0.99708 0.0
C452 C 0.42677 0.47846 1.00447 0.0
C453 C 0.41286 0.49346 0.01911 0.0
C454 C 0.38778 0.47969 0.02551 0.0
H455 H 0.38189 0.41628 0.99878 0.0
O456 O 0.36257 0.39452 0.07231 0.0
O457 O 0.34944 0.42763 0.05757 0.0
O458 O 0.31822 0.37459 0.02708 0.0
O459 O 0.33232 0.40723 1.00261 0.0
C460 C 0.42308 0.52146 0.028 0.0
C461 C 0.40858 0.53501 0.04383 0.0
H462 H 0.37562 0.5538 0.07496 0.0
H463 H 0.33203 0.52573 0.08491 0.0
H464 H 0.42628 0.43865 0.98615 0.0
H465 H 0.44631 0.48815 0.9992 0.0
H466 H 0.4424 0.53266 0.02333 0.0
H467 H 0.41694 0.55642 0.05105 0.0
Mn468 Mn 0.80193 0.17809 0.08002 0.0
Mn469 Mn 0.76154 0.12361 0.03719 0.0
C470 C 0.7564 0.16366 0.08244 0.0
C471 C 0.8299 0.19875 0.11979 0.0
C472 C 0.77882 0.17916 0.02247 0.0
O473 O 0.82945 0.16102 0.06551 0.0
O474 O 0.80012 0.12599 0.03779 0.0
C475 C 0.774 0.08229 0.06726 0.0
N476 N 0.75552 0.09285 0.05489 0.0
C477 C 0.71847 0.05583 0.0607 0.0
C478 C 0.73708 0.0445 0.0735 0.0
C479 C 0.76495 0.05791 0.07698 0.0
C480 C 0.72866 0.08051 0.05209 0.0
H481 H 0.79545 0.09231 0.06952 0.0
C482 C 0.82414 0.13985 0.04814 0.0
O483 O 0.83071 0.21039 0.09878 0.0
O484 O 0.8144 0.17416 0.11703 0.0
N485 N 0.72319 0.11758 0.0335 0.0
C486 C 0.70796 0.13125 0.02078 0.0
C487 C 0.67968 0.12056 0.01565 0.0
C488 C 0.6674 0.09533 0.02247 0.0
C489 C 0.6835 0.08135 0.03503 0.0
C490 C 0.71156 0.0933 0.04018 0.0
H491 H 0.71733 0.15023 0.01469 0.0
O492 O 0.77045 0.18816 0.09233 0.0
O493 O 0.7693 0.14769 0.07185 0.0
O494 O 0.79379 0.19068 0.04457 0.0
O495 O 0.76598 0.15413 0.01752 0.0
C496 C 0.67281 0.05608 0.04274 0.0
C497 C 0.69025 0.0435 0.05591 0.0
H498 H 0.73021 0.02551 0.08068 0.0
H499 H 0.77944 0.04929 0.08682 0.0
H500 H 0.66744 0.13179 1.00642 0.0
H501 H 0.6456 0.08697 0.01827 0.0
H502 H 0.65116 0.04638 0.03907 0.0
H503 H 0.68177 0.0243 0.06215 0.0
Mn504 Mn 0.19067 0.56577 0.27383 0.0
Mn505 Mn 0.24329 0.60377 0.32015 0.0
C506 C 0.20823 0.61111 0.27322 0.0
C507 C 0.17123 0.53963 0.23276 0.0
C508 C 0.18568 0.58663 0.33109 0.0
O509 O 0.2058 0.53729 0.28818 0.0
O510 O 0.24022 0.56502 0.31815 0.0
C511 C 0.28727 0.59206 0.29262 0.0
N512 N 0.27569 0.61024 0.30426 0.0
C513 C 0.31209 0.6475 0.29761 0.0
C514 C 0.32446 0.62917 0.28563 0.0
C515 C 0.31192 0.60133 0.28301 0.0
C516 C 0.28735 0.63707 0.30647 0.0
H517 H 0.27778 0.57064 0.2907 0.0
C518 C 0.22629 0.54152 0.3062 0.0
O519 O 0.1583 0.53852 0.2531 0.0
O520 O 0.19644 0.5541 0.23697 0.0
N521 N 0.24925 0.64203 0.32443 0.0
C522 C 0.23484 0.65705 0.33673 0.0
C523 C 0.24496 0.6853 0.34152 0.0
C524 C 0.26994 0.69783 0.33397 0.0
C525 C 0.28462 0.68198 0.32171 0.0
C526 C 0.2736 0.6539 0.31762 0.0
H527 H 0.21581 0.64757 0.34296 0.0
O528 O 0.18353 0.5987 0.26216 0.0
O529 O 0.22193 0.59688 0.28444 0.0
O530 O 0.17574 0.57304 0.30807 0.0
O531 O 0.21083 0.59895 0.33803 0.0
C532 C 0.30972 0.69293 0.31336 0.0
C533 C 0.32333 0.67571 0.30109 0.0
H534 H 0.34355 0.63624 0.27834 0.0
H535 H 0.3213 0.58706 0.27374 0.0
H536 H 0.23355 0.6974 0.35107 0.0
H537 H 0.27762 0.71963 0.33758 0.0
H538 H 0.31863 0.71458 0.31607 0.0
H539 H 0.34248 0.68438 0.29451 0.0
Mn540 Mn 0.82283 0.8932 0.5665 0.0
Mn541 Mn 0.8369 0.94615 0.5323 0.0
C542 C 0.86777 0.91756 0.56593 0.0
C543 C 0.8128 0.87556 0.60657 0.0
C544 C 0.8208 0.8875 0.50491 0.0
O545 O 0.78631 0.90201 0.5605 0.0
O546 O 0.79961 0.93899 0.5411 0.0
C547 C 0.83557 0.98964 0.57494 0.0
N548 N 0.84858 0.97972 0.55612 0.0
C549 C 0.88417 0.02154 0.56299 0.0
C550 C 0.87106 0.03228 0.58236 0.0
C551 C 0.84677 0.01617 0.58851 0.0
C552 C 0.87228 0.99482 0.5505 0.0
H553 H 0.81675 0.97742 0.57942 0.0
C554 C 0.78194 0.92225 0.55089 0.0
O555 O 0.80647 0.86056 0.5832 0.0
O556 O 0.82435 0.90093 0.60666 0.0
N557 N 0.87228 0.95628 0.5221 0.0
C558 C 0.88304 0.9425 0.50385 0.0
C559 C 0.90771 0.9555 0.49597 0.0
C560 C 0.92078 0.9827 0.50645 0.0
C561 C 0.90914 0.99661 0.52489 0.0
C562 C 0.88464 0.98252 0.53218 0.0
H563 H 0.87294 0.92172 0.4954 0.0
O564 O 0.8619 0.89337 0.57182 0.0
O565 O 0.84738 0.92718 0.56092 0.0
O566 O 0.81873 0.8765 0.52605 0.0
O567 O 0.826 0.91295 0.50565 0.0
C568 C 0.92099 0.02383 0.53649 0.0
C569 C 0.90859 0.03625 0.55565 0.0
H570 H 0.87952 0.05281 0.5927 0.0
H571 H 0.83657 0.02428 0.60348 0.0
H572 H 0.91655 0.94462 0.48172 0.0
H573 H 0.9398 0.99266 0.50033 0.0
H574 H 0.93992 0.03524 0.53124 0.0
H575 H 0.91818 0.05702 0.56484 0.0
Mn576 Mn 0.97249 0.03629 0.28393 0.0
Mn577 Mn 0.92065 0.02294 0.32033 0.0
C578 C 0.94707 0.992 0.28338 0.0
C579 C 0.98836 0.04719 0.24358 0.0
C580 C 0.97994 0.03654 0.3451 0.0
O581 O 0.96525 0.07292 0.29218 0.0
O582 O 0.92938 0.06074 0.31389 0.0
C583 C 0.87688 0.02822 0.28069 0.0
N584 N 0.88646 1.0137 0.29778 0.0
C585 C 0.84329 0.97992 0.29095 0.0
C586 C 0.83291 0.99454 0.27331 0.0
C587 C 0.84985 0.01869 0.26801 0.0
C588 C 0.87052 0.99016 0.30257 0.0
H589 H 0.88973 0.04699 0.27693 0.0
C590 C 0.94624 0.07804 0.30388 0.0
O591 O 1.00453 0.05252 0.26614 0.0
O592 O 0.96304 0.03581 0.2445 0.0
N593 N 0.90915 0.98716 0.32849 0.0
C594 C 0.92267 0.97475 0.34485 0.0
C595 C 0.90881 0.95002 0.35168 0.0
C596 C 0.88107 0.93856 0.34208 0.0
C597 C 0.8675 0.95182 0.3255 0.0
C598 C 0.88244 0.97629 0.31917 0.0
H599 H 0.94391 0.98355 0.35249 0.0
O600 O 0.97112 0.99726 0.27659 0.0
O601 O 0.93829 1.01265 0.29009 0.0
O602 O 0.9904 0.0393 0.32358 0.0
O603 O 0.95449 0.03143 0.34549 0.0
C604 C 0.83979 0.94161 0.3148 0.0
C605 C 0.82773 0.95556 0.2974 0.0
H606 H 0.81201 0.98739 0.26368 0.0
H607 H 0.84201 0.03008 0.2544 0.0
H608 H 0.91946 0.93988 0.36444 0.0
H609 H 0.87045 0.91948 0.34739 0.0
H610 H 0.82771 0.92275 0.31937 0.0
H611 H 0.80656 0.94723 0.28886 0.0
Mn612 Mn 0.30258 0.6922 0.57526 0.0
Mn613 Mn 0.26801 0.6466 0.52144 0.0
C614 C 0.25621 0.6822 0.56568 0.0
C615 C 0.32111 0.7053 0.61983 0.0
C616 C 0.29862 0.70374 0.51805 0.0
O617 O 0.32958 0.67183 0.56686 0.0
O618 O 0.30511 0.64328 0.53028 0.0
C619 C 0.26465 0.59737 0.54583 0.0
N620 N 0.25218 0.61305 0.53277 0.0
C621 C 0.20861 0.58039 0.52899 0.0
C622 C 0.22101 0.56385 0.5423 0.0
C623 C 0.24913 0.57245 0.55089 0.0
C624 C 0.22507 0.60516 0.52483 0.0
H625 H 0.28628 0.60376 0.55228 0.0
C626 C 0.32657 0.65271 0.54758 0.0
O627 O 0.32975 0.71965 0.6019 0.0
O628 O 0.30276 0.68235 0.61159 0.0
N629 N 0.23143 0.64678 0.5106 0.0
C630 C 0.22238 0.6656 0.49912 0.0
C631 C 0.19461 0.66029 0.48979 0.0
C632 C 0.17646 0.6356 0.49215 0.0
C633 C 0.18623 0.61648 0.50392 0.0
C634 C 0.21412 0.6229 0.51284 0.0
H635 H 0.23617 0.68463 0.49738 0.0
O636 O 0.27014 0.70517 0.57984 0.0
O637 O 0.26971 0.66587 0.55742 0.0
O638 O 0.30819 0.71045 0.54269 0.0
O639 O 0.28281 0.68048 0.5078 0.0
C640 C 0.16936 0.59138 0.50733 0.0
C641 C 0.18054 0.57337 0.5199 0.0
H642 H 0.20913 0.54457 0.54614 0.0
H643 H 0.25884 0.55983 0.56125 0.0
H644 H 0.18723 0.67521 0.48084 0.0
H645 H 0.15505 0.63162 0.48503 0.0
H646 H 0.14771 0.58589 0.50069 0.0
H647 H 0.1673 0.55431 0.52278 0.0
Mn648 Mn 0.46735 0.53675 0.78282 0.0
Mn649 Mn 0.41725 0.52755 0.82149 0.0
C650 C 0.43917 0.49364 0.78334 0.0
C651 C 0.48102 0.54473 0.74065 0.0
C652 C 0.47666 0.5376 0.84429 0.0
O653 O 0.46279 0.57473 0.79098 0.0
O654 O 0.4286 0.56521 0.81519 0.0
C655 C 0.37465 0.53599 0.78266 0.0
N656 N 0.38306 0.52049 0.7994 0.0
C657 C 0.33938 0.4874 0.79022 0.0
C658 C 0.33019 0.50306 0.77297 0.0
C659 C 0.34795 0.52739 0.76908 0.0
C660 C 0.36628 0.49685 0.80298 0.0
H661 H 0.3882 0.55476 0.77973 0.0
C662 C 0.4454 0.58152 0.80415 0.0
O663 O 0.49858 0.55009 0.76229 0.0
O664 O 0.45595 0.53548 0.74372 0.0
N665 N 0.40359 0.49201 0.82963 0.0
C666 C 0.41567 0.47914 0.84676 0.0
C667 C 0.40053 0.45472 0.8532 0.0
C668 C 0.37307 0.44387 0.84217 0.0
C669 C 0.36097 0.45762 0.82486 0.0
C670 C 0.377 0.48202 0.8194 0.0
H671 H 0.43671 0.48739 0.85542 0.0
O672 O 0.46273 0.49674 0.7757 0.0
O673 O 0.43287 0.51559 0.79063 0.0
O674 O 0.48644 0.53959 0.82224 0.0
O675 O 0.45145 0.53383 0.84556 0.0
C676 C 0.33368 0.44794 0.81263 0.0
C677 C 0.32296 0.46272 0.79516 0.0
H678 H 0.30957 0.49656 0.76254 0.0
H679 H 0.34103 0.53955 0.75573 0.0
H680 H 0.41003 0.44423 0.86657 0.0
H681 H 0.36154 0.42489 0.84697 0.0
H682 H 0.32087 0.429 0.81628 0.0
H683 H 0.30205 0.45491 0.78562 0.0
Mn684 Mn 0.69597 0.06633 0.75853 0.0
Mn685 Mn 0.75101 0.10812 0.79956 0.0
C686 C 0.70736 0.11217 0.75852 0.0
C687 C 0.67364 0.03926 0.71884 0.0
C688 C 0.69765 0.08435 0.81805 0.0
O689 O 0.7167 0.04026 0.76903 0.0
O690 O 0.75259 0.07061 0.79488 0.0
C691 C 0.79103 0.10294 0.76356 0.0
N692 N 0.77956 0.11873 0.77898 0.0
C693 C 0.81071 0.15921 0.77073 0.0
C694 C 0.82292 0.14339 0.75481 0.0
C695 C 0.81291 0.11513 0.75106 0.0
C696 C 0.78854 0.14591 0.78209 0.0
H697 H 0.78356 0.08122 0.76086 0.0
C698 C 0.73972 0.04655 0.78377 0.0
O699 O 0.664 0.03664 0.74102 0.0
O700 O 0.69746 0.0562 0.72009 0.0
N701 N 0.75312 0.14562 0.80651 0.0
C702 C 0.73999 0.15792 0.82359 0.0
C703 C 0.74875 0.18607 0.83103 0.0
C704 C 0.77106 0.20134 0.82104 0.0
C705 C 0.78439 0.18832 0.80365 0.0
C706 C 0.77501 0.16015 0.79728 0.0
H707 H 0.7232 0.14632 0.83183 0.0
O708 O 0.68272 0.09741 0.74992 0.0
O709 O 0.72469 0.09991 0.7667 0.0
O710 O 0.68569 0.07102 0.79544 0.0
O711 O 0.72229 0.0989 0.82219 0.0
C712 C 0.80693 0.20214 0.79276 0.0
C713 C 0.81983 0.18761 0.77598 0.0
H714 H 0.84003 0.15272 0.74542 0.0
H715 H 0.8222 0.10279 0.73878 0.0
H716 H 0.73842 0.19598 0.84456 0.0
H717 H 0.77781 0.22305 0.8269 0.0
H718 H 0.81445 0.22395 0.79712 0.0
H719 H 0.83701 0.19847 0.76757 0.0
Mn720 Mn 0.78564 0.72171 0.04039 0.0
Mn721 Mn 0.77049 0.66303 0.99733 0.0
C722 C 0.74085 0.69562 0.02696 0.0
C723 C 0.79453 0.74401 0.08556 0.0
C724 C 0.78636 0.71786 0.97906 0.0
O725 O 0.82169 0.71228 0.04348 0.0
O726 O 0.80917 0.67347 0.01389 0.0
C727 C 0.77714 0.6267 0.03612 0.0
N728 N 0.76149 0.63325 0.01628 0.0
C729 C 0.72482 0.59343 0.016 0.0
C730 C 0.74062 0.58618 0.03631 0.0
C731 C 0.76685 0.60295 0.04649 0.0
C732 C 0.73617 0.61732 1.00643 0.0
H733 H 0.79733 0.63948 0.04398 0.0
C734 C 0.82664 0.69169 0.03098 0.0
O735 O 0.8019 0.75695 0.0662 0.0
O736 O 0.78303 0.71844 0.07882 0.0
N737 N 0.73349 0.65031 0.98037 0.0
C738 C 0.71991 0.66158 0.96285 0.0
C739 C 0.6929 0.64803 0.95176 0.0
C740 C 0.68012 0.62307 0.95883 0.0
C741 C 0.69441 0.61199 0.97711 0.0
C742 C 0.72134 0.62634 0.98739 0.0
H743 H 0.72941 0.68101 0.95783 0.0
O744 O 0.74636 0.72131 0.03539 0.0
O745 O 0.76162 0.68636 0.02578 0.0
O746 O 0.79054 0.73255 1.00224 0.0
O747 O 0.77881 0.69211 0.97579 0.0
C748 C 0.68279 0.58757 0.98599 0.0
C749 C 0.69802 0.57825 1.00536 0.0
H750 H 0.7327 0.56796 0.04446 0.0
H751 H 0.77911 0.59757 0.06227 0.0
H752 H 0.68189 0.6569 0.93795 0.0
H753 H 0.6592 0.61281 0.95044 0.0
H754 H 0.66199 0.57605 0.97843 0.0
H755 H 0.68869 0.55971 1.0124 0.0
Mn756 Mn 0.93594 0.55972 0.8323 0.0
Mn757 Mn 0.8849 0.53797 0.8668 0.0
C758 C 0.9259 0.51666 0.84207 0.0
C759 C 0.95098 0.56502 0.79203 0.0
C760 C 0.93972 0.57626 0.89176 0.0
O761 O 0.91459 0.58685 0.82949 0.0
O762 O 0.87848 0.56766 0.84861 0.0
C763 C 0.83959 0.51497 0.8221 0.0
N764 N 0.8551 0.51186 0.84413 0.0
C765 C 0.82918 0.4654 0.84043 0.0
C766 C 0.81262 0.46828 0.818 0.0
C767 C 0.81796 0.49313 0.80871 0.0
C768 C 0.85036 0.48792 0.85304 0.0
H769 H 0.84379 0.53391 0.81469 0.0
C770 C 0.89107 0.58537 0.83564 0.0
O771 O 0.96481 0.57995 0.81405 0.0
O772 O 0.92794 0.54804 0.79337 0.0
N773 N 0.88874 0.50863 0.88455 0.0
C774 C 0.90782 0.5086 0.90517 0.0
C775 C 0.90634 0.48479 0.91583 0.0
C776 C 0.88523 0.46131 0.90528 0.0
C777 C 0.86577 0.46185 0.88413 0.0
C778 C 0.86822 0.48619 0.87438 0.0
H779 H 0.92411 0.52655 0.91337 0.0
O780 O 0.94968 0.52782 0.8363 0.0
O781 O 0.90906 0.53112 0.84188 0.0
O782 O 0.95083 0.57581 0.87081 0.0
O783 O 0.91485 0.56407 0.89217 0.0
C784 C 0.84433 0.43904 0.87204 0.0
C785 C 0.82601 0.44083 0.85024 0.0
H786 H 0.79608 0.4514 0.80747 0.0
H787 H 0.80551 0.4954 0.7912 0.0
H788 H 0.92148 0.48453 0.9321 0.0
H789 H 0.88427 0.44294 0.91344 0.0
H790 H 0.84199 0.41992 0.87908 0.0
H791 H 0.80991 0.42304 0.84081 0.0
Mn792 Mn 0.80508 0.42994 0.52373 0.0
Mn793 Mn 0.81768 0.48307 0.49084 0.0
C794 C 0.84839 0.45064 0.51687 0.0
C795 C 0.802 0.4102 0.56184 0.0
C796 C 0.79355 0.42578 0.46299 0.0
O797 O 0.77201 0.443 0.52701 0.0
O798 O 0.78123 0.47625 0.50207 0.0
C799 C 0.81975 0.5247 0.53687 0.0
N800 N 0.83183 0.51499 0.51703 0.0
C801 C 0.87248 0.55196 0.53051 0.0
C802 C 0.8604 0.56238 0.55098 0.0
C803 C 0.83393 0.54866 0.55418 0.0
C804 C 0.85736 0.52798 0.51387 0.0
H805 H 0.79946 0.51426 0.53955 0.0
C806 C 0.76612 0.46189 0.51623 0.0
O807 O 0.78961 0.39687 0.53866 0.0
O808 O 0.81486 0.43548 0.56306 0.0
N809 N 0.85265 0.49247 0.47954 0.0
C810 C 0.86161 0.4797 0.45904 0.0
C811 C 0.88758 0.49109 0.45291 0.0
C812 C 0.90412 0.51551 0.46795 0.0
C813 C 0.89448 0.52836 0.48891 0.0
C814 C 0.86824 0.51626 0.49381 0.0
H815 H 0.84918 0.46085 0.44765 0.0
O816 O 0.8418 0.42557 0.52019 0.0
O817 O 0.82932 0.46243 0.51687 0.0
O818 O 0.79173 0.41568 0.48434 0.0
O819 O 0.80409 0.45085 0.46261 0.0
C820 C 0.90998 0.5526 0.50527 0.0
C821 C 0.89903 0.56433 0.52614 0.0
H822 H 0.87129 0.58083 0.56441 0.0
H823 H 0.82449 0.55652 0.56999 0.0
H824 H 0.89493 0.48093 0.4368 0.0
H825 H 0.92428 0.52406 0.46339 0.0
H826 H 0.93042 0.56227 0.50211 0.0
H827 H 0.91122 0.58285 0.53873 0.0
Mn828 Mn 0.64343 0.57915 0.30798 0.0
Mn829 Mn 0.69806 0.59094 0.35534 0.0
C830 C 0.67164 0.62277 0.32348 0.0
C831 C 0.62641 0.57323 0.26167 0.0
C832 C 0.64022 0.57553 0.36785 0.0
O833 O 0.65072 0.54217 0.30552 0.0
O834 O 0.68815 0.55319 0.33682 0.0
C835 C 0.739 0.58578 0.32047 0.0
N836 N 0.73028 0.60083 0.33945 0.0
C837 C 0.76931 0.63888 0.34132 0.0
C838 C 0.77875 0.62374 0.32189 0.0
C839 C 0.76352 0.59709 0.31142 0.0
C840 C 0.74484 0.62647 0.34974 0.0
H841 H 0.72728 0.56534 0.31223 0.0
C842 C 0.67035 0.53637 0.31875 0.0
O843 O 0.61031 0.56585 0.27888 0.0
O844 O 0.65187 0.58231 0.27111 0.0
N845 N 0.70945 0.62729 0.3739 0.0
C846 C 0.69661 0.63973 0.39114 0.0
C847 C 0.70875 0.66679 0.40278 0.0
C848 C 0.73394 0.68077 0.39657 0.0
C849 C 0.74678 0.66753 0.3788 0.0
C850 C 0.73383 0.64047 0.36801 0.0
H851 H 0.67717 0.62913 0.39584 0.0
O852 O 0.64661 0.61908 0.31322 0.0
O853 O 0.6783 0.60095 0.32579 0.0
O854 O 0.62808 0.57419 0.34407 0.0
O855 O 0.666 0.58153 0.37353 0.0
C856 C 0.7716 0.68032 0.37088 0.0
C857 C 0.78286 0.666 0.35216 0.0
H858 H 0.79752 0.63246 0.31467 0.0
H859 H 0.7706 0.58532 0.29631 0.0
H860 H 0.69865 0.67691 0.41638 0.0
H861 H 0.74308 0.70173 0.40535 0.0
H862 H 0.78199 0.70128 0.37875 0.0
H863 H 0.80175 0.67617 0.34593 0.0
Dy864 Dy 0.07664 0.07732 0.06838 0.0
Dy865 Dy 1.02245 0.04032 0.03174 0.0
C866 C 0.07708 0.05743 1.0063 0.0
O867 O 0.06044 0.10867 0.04873 0.0
O868 O 1.0173 0.08258 0.03157 0.0
O869 O 0.11568 0.10698 0.07282 0.0
O870 O 0.10161 0.09049 0.1071 0.0
O871 O 1.01222 0.04251 0.07363 0.0
O872 O 0.04567 0.07975 0.09492 0.0
O873 O 0.04627 1.01038 0.0391 0.0
O874 O 0.07486 0.03415 0.07654 0.0
O875 O 0.98713 1.00572 0.02613 0.0
O876 O 0.99488 0.0293 0.99461 0.0
C877 C 0.03588 0.10641 0.03612 0.0
O878 O 0.09054 0.06243 0.03062 0.0
O879 O 0.05063 0.05154 1.00234 0.0
C880 C 0.14601 0.09201 0.09976 0.0
C881 C 0.18116 0.06291 0.08287 0.0
C882 C 0.18748 0.09086 0.08258 0.0
C883 C 0.1699 0.1053 0.09086 0.0
C884 C 0.14189 0.06508 0.10372 0.0
C885 C 0.15919 0.05059 0.09514 0.0
C886 C 0.12257 0.1028 0.0969 0.0
C887 C 1.0233 0.06071 0.09498 0.0
C888 C 0.0631 1.01076 0.06068 0.0
C889 C 0.95029 0.0161 1.00283 0.0
C890 C 0.90918 0.04163 1.00436 0.0
C891 C 0.91911 0.03292 0.02726 0.0
C892 C 0.93955 0.02028 0.02655 0.0
C893 C 0.93831 0.02218 0.97927 0.0
C894 C 0.91785 0.03495 0.98002 0.0
C895 C 0.97705 1.01137 1.00381 0.0
H896 H 0.20484 0.1011 0.07404 0.0
H897 H 0.17353 0.12607 0.08775 0.0
H898 H 0.12375 0.05425 0.11075 0.0
H899 H 0.15372 0.02915 0.09582 0.0
H900 H 0.91217 0.03728 0.04611 0.0
H901 H 0.94823 0.01571 0.04506 0.0
H902 H 0.94632 0.01912 0.96078 0.0
H903 H 0.91031 0.04136 0.96207 0.0
Dy904 Dy 0.335 0.80212 0.26914 0.0
Dy905 Dy 0.30558 0.82451 0.31598 0.0
C906 C 0.35737 0.86034 0.29973 0.0
O907 O 0.35967 0.79784 0.30675 0.0
O908 O 0.33091 0.80171 0.33749 0.0
O909 O 0.37002 0.80687 0.24877 0.0
O910 O 0.33415 0.77326 0.23474 0.0
O911 O 0.27701 0.78581 0.29452 0.0
O912 O 0.3089 0.7662 0.28171 0.0
O913 O 0.28963 0.83954 0.27945 0.0
O914 O 0.29734 0.80848 0.24773 0.0
O915 O 0.27333 0.81889 0.33963 0.0
O916 O 0.30316 0.85783 0.34458 0.0
C917 C 0.35293 0.79589 0.3308 0.0
O918 O 0.3478 0.84701 0.27572 0.0
O919 O 0.34789 0.85075 0.32015 0.0
C920 C 0.35432 0.7967 0.20228 0.0
C921 C 0.34135 0.82023 0.15776 0.0
C922 C 0.36511 0.83285 0.17601 0.0
C923 C 0.37157 0.82118 0.19805 0.0
C924 C 0.33199 0.78289 0.18264 0.0
C925 C 0.32547 0.79462 0.16069 0.0
C926 C 0.3566 0.78816 0.22877 0.0
C927 C 0.28404 0.76439 0.2858 0.0
C928 C 0.28486 0.82666 0.25466 0.0
C929 C 0.28818 0.84108 0.38272 0.0
C930 C 0.28981 0.81395 0.42635 0.0
C931 C 0.31349 0.82355 0.4153 0.0
C932 C 0.31266 0.83703 0.39349 0.0
C933 C 0.26575 0.83509 0.3962 0.0
C934 C 0.26656 0.82156 0.418 0.0
C935 C 0.28347 0.84255 0.35433 0.0
H936 H 0.37815 0.85227 0.17383 0.0
H937 H 0.38917 0.83215 0.21257 0.0
H938 H 0.31843 0.76384 0.18512 0.0
H939 H 0.30706 0.78434 0.14696 0.0
H940 H 0.33168 0.81797 0.42141 0.0
H941 H 0.33017 0.84136 0.38321 0.0
H942 H 0.24669 0.83796 0.38804 0.0
H943 H 0.2482 0.81471 0.42659 0.0
Dy944 Dy 0.5198 0.05541 0.56679 0.0
Dy945 Dy 0.58448 0.06507 0.54224 0.0
C946 C 0.53959 0.07 0.5101 0.0
O947 O 0.51901 1.01315 0.54911 0.0
O948 O 0.56088 0.0198 0.53328 0.0
O949 O 0.47977 0.05156 0.5469 0.0
O950 O 0.48815 0.05823 0.59036 0.0
O951 O 0.58349 0.04962 0.58137 0.0
O952 O 0.54301 0.04314 0.59936 0.0
O953 O 0.58144 0.10763 0.55901 0.0
O954 O 0.54303 0.09928 0.58061 0.0
O955 O 0.62779 0.07946 0.55588 0.0
O956 O 0.61226 0.05597 0.51647 0.0
C957 C 0.53722 1.0039 0.53738 0.0
O958 O 0.54033 0.06588 0.53436 0.0
O959 O 0.56348 0.07312 0.5039 0.0
C960 C 0.45691 0.07856 0.57027 0.0
C961 C 0.42852 0.11801 0.57074 0.0
C962 C 0.45281 0.12175 0.55982 0.0
C963 C 0.46693 0.10226 0.55967 0.0
C964 C 0.43303 0.07499 0.58159 0.0
C965 C 0.41899 0.0945 0.58188 0.0
C966 C 0.47084 0.05726 0.56925 0.0
C967 C 0.56826 0.04217 0.59982 0.0
C968 C 0.56474 0.11606 0.57407 0.0
C969 C 0.64982 0.04719 0.54088 0.0
C970 C 0.68182 1.01248 0.55281 0.0
C971 C 0.69349 0.0406 0.55601 0.0
C972 C 0.67768 0.05772 0.55006 0.0
C973 C 0.63799 0.01912 0.53786 0.0
C974 C 0.65386 1.00194 0.54358 0.0
C975 C 0.63326 0.06562 0.53517 0.0
H976 H 0.46085 0.13972 0.55132 0.0
H977 H 0.48549 0.10554 0.55102 0.0
H978 H 0.42499 0.05687 0.58988 0.0
H979 H 0.40019 0.09077 0.59012 0.0
H980 H 0.715 0.0494 0.56278 0.0
H981 H 0.68724 0.07925 0.55266 0.0
H982 H 0.61645 1.01044 0.53114 0.0
H983 H 0.64417 0.98045 0.54116 0.0
Dy984 Dy 0.33585 0.289 0.80052 0.0
Dy985 Dy 0.28298 0.31356 0.79929 0.0
C986 C 0.34272 0.35101 0.79871 0.0
O987 O 0.32931 0.29374 0.8438 0.0
O988 O 0.30419 0.32415 0.84149 0.0
O989 O 0.37813 0.29169 0.81284 0.0
O990 O 0.35331 0.25895 0.7828 0.0
O991 O 0.27135 0.27476 0.81503 0.0
O992 O 0.29884 0.25369 0.79459 0.0
O993 O 0.28246 0.29417 0.7568 0.0
O994 O 0.32814 0.30047 0.76019 0.0
O995 O 0.23969 0.30662 0.78908 0.0
O996 O 0.2647 0.34545 0.81025 0.0
C997 C 0.31828 0.31151 0.85537 0.0
O998 O 0.35131 0.33339 0.81062 0.0
O999 O 0.317 0.34592 0.78837 0.0
C1000 C 0.39883 0.27756 0.77666 0.0
C1001 C 0.43944 0.28884 0.74317 0.0
C1002 C 0.41382 0.29264 0.73604 0.0
C1003 C 0.3938 0.28716 0.75262 0.0
C1004 C 0.42423 0.27357 0.78376 0.0
C1005 C 0.44429 0.27912 0.76725 0.0
C1006 C 0.37787 0.27189 0.79442 0.0
C1007 C 0.27697 0.25268 0.80564 0.0
C1008 C 0.30435 0.29521 0.7455 0.0
C1009 C 0.22093 0.32893 0.8229 0.0
C1010 C 0.18328 0.32909 0.85964 0.0
C1011 C 0.18338 0.30489 0.84397 0.0
C1012 C 0.20192 0.3048 0.82583 0.0
C1013 C 0.2213 0.35292 0.83908 0.0
C1014 C 0.20291 0.35299 0.85724 0.0
C1015 C 0.24005 0.32957 0.80293 0.0
H1016 H 0.40938 0.30037 0.71788 0.0
H1017 H 0.37441 0.29054 0.74669 0.0
H1018 H 0.42859 0.26614 0.80213 0.0
H1019 H 0.46358 0.27558 0.77329 0.0
H1020 H 0.16851 0.28613 0.84501 0.0
H1021 H 0.20102 0.28586 0.8138 0.0
H1022 H 0.23569 0.37182 0.83749 0.0
H1023 H 0.2039 0.37198 0.86923 0.0
Dy1024 Dy 0.0681 0.02769 0.55095 0.0
Dy1025 Dy 0.04611 0.08165 0.55353 0.0
C1026 C 1.00852 0.02569 0.56387 0.0
O1027 O 0.05995 0.03275 0.50764 0.0
O1028 O 0.02869 0.05614 0.51377 0.0
O1029 O 0.06283 0.9849 0.53987 0.0
O1030 O 0.09998 1.01036 0.56387 0.0
O1031 O 0.08254 0.09 0.5329 0.0
O1032 O 0.10409 0.06356 0.55347 0.0
O1033 O 0.07043 0.08473 0.59391 0.0
O1034 O 0.06434 0.0396 0.59375 0.0
O1035 O 0.05493 0.12511 0.56263 0.0
O1036 O 1.01465 0.10076 0.54448 0.0
C1037 C 0.04026 0.04224 0.49803 0.0
O1038 O 0.02344 1.01381 0.55038 0.0
O1039 O 1.01589 0.05204 0.57154 0.0
C1040 C 0.08278 0.96716 0.57527 0.0
C1041 C 0.08006 0.93482 0.61622 0.0
C1042 C 0.05641 0.93897 0.60328 0.0
C1043 C 0.05776 0.95508 0.58316 0.0
C1044 C 0.10634 0.96274 0.58793 0.0
C1045 C 0.10503 0.94686 0.6082 0.0
C1046 C 0.08499 0.9857 0.55526 0.0
C1047 C 0.10489 0.08432 0.54117 0.0
C1048 C 0.07122 0.0644 0.60664 0.0
C1049 C 0.032 0.14275 0.52988 0.0
C1050 C 0.03624 0.1775 0.49105 0.0
C1051 C 0.02891 0.14933 0.48328 0.0
C1052 C 0.02699 0.13214 0.50248 0.0
C1053 C 0.03894 0.17079 0.53765 0.0
C1054 C 0.04108 0.18796 0.5185 0.0
C1055 C 0.03138 0.12504 0.5505 0.0
H1056 H 0.03689 0.93024 0.60912 0.0
H1057 H 0.03924 0.95838 0.5741 0.0
H1058 H 0.12589 0.9719 0.58235 0.0
H1059 H 0.1236 0.94386 0.6175 0.0
H1060 H 0.02529 0.1406 0.46236 0.0
H1061 H 1.02194 0.11058 0.4959 0.0
H1062 H 0.043 0.17945 0.55861 0.0
H1063 H 0.04644 0.20952 0.52521 0.0
Dy1064 Dy 0.31775 0.84719 0.79057 0.0
Dy1065 Dy 0.31042 0.78471 0.81671 0.0
C1066 C 0.30439 0.82986 0.84824 0.0
O1067 O 0.36139 0.84874 0.80621 0.0
O1068 O 0.35558 0.80884 0.82466 0.0
O1069 O 0.32242 0.88787 0.80935 0.0
O1070 O 0.31457 0.87733 0.766 0.0
O1071 O 0.32139 0.78216 0.77503 0.0
O1072 O 0.32685 0.82216 0.75704 0.0
O1073 O 0.26726 0.7868 0.8022 0.0
O1074 O 0.27242 0.82492 0.78106 0.0
O1075 O 0.29965 0.7413 0.80466 0.0
O1076 O 0.31753 0.75948 0.84534 0.0
C1077 C 0.37124 0.8316 0.8188 0.0
O1078 O 0.31061 0.82892 0.82465 0.0
O1079 O 0.3009 0.80623 0.85449 0.0
C1080 C 0.29349 0.90865 0.78627 0.0
C1081 C 0.25169 0.93423 0.78673 0.0
C1082 C 0.2733 0.9411 0.80799 0.0
C1083 C 0.29397 0.92852 0.80771 0.0
C1084 C 0.27181 0.90162 0.76502 0.0
C1085 C 0.25118 0.91436 0.76522 0.0
C1086 C 0.31543 0.89529 0.78674 0.0
C1087 C 0.32706 0.79682 0.75587 0.0
C1088 C 0.25693 0.80306 0.7886 0.0
C1089 C 0.33226 0.723 0.82631 0.0
C1090 C 0.37157 0.69429 0.825 0.0
C1091 C 0.34928 0.68784 0.8045 0.0
C1092 C 0.32977 0.70199 0.8052 0.0
C1093 C 0.35491 0.72976 0.84647 0.0
C1094 C 0.3743 0.71564 0.84578 0.0
C1095 C 0.31149 0.73786 0.82735 0.0
H1096 H 0.27455 0.95664 0.82466 0.0
H1097 H 0.3104 0.93436 0.82433 0.0
H1098 H 0.2707 0.88626 0.74824 0.0
H1099 H 0.23474 0.90854 0.74863 0.0
H1100 H 0.34642 0.67125 0.78839 0.0
H1101 H 0.31257 0.69627 0.78939 0.0
H1102 H 0.35766 0.74588 0.86302 0.0
H1103 H 0.39135 0.72125 0.86175 0.0
Dy1104 Dy 0.55428 0.07657 0.02595 0.0
Dy1105 Dy 0.5488 0.03858 0.07154 0.0
C1106 C 0.56929 0.01877 0.01712 0.0
O1107 O 0.51058 0.06084 0.02918 0.0
O1108 O 0.51604 0.021 0.03711 0.0
O1109 O 0.54326 0.08049 0.98491 0.0
O1110 O 0.56688 0.11539 0.01344 0.0
O1111 O 0.53247 0.07335 0.08694 0.0
O1112 O 0.5544 0.10429 0.06311 0.0
O1113 O 0.59055 0.06567 0.08335 0.0
O1114 O 0.59678 0.08232 0.04409 0.0
O1115 O 0.55852 0.02959 0.11104 0.0
O1116 O 0.52505 1.0023 0.08335 0.0
C1117 C 0.5007 0.03493 0.02801 0.0
O1118 O 0.56131 0.03779 1.00652 0.0
O1119 O 0.57015 0.01789 0.04298 0.0
C1120 C 0.57902 0.11069 0.97088 0.0
C1121 C 0.61726 0.11499 0.93583 0.0
C1122 C 0.62319 0.10857 0.96112 0.0
C1123 C 0.60422 0.10647 0.97857 0.0
C1124 C 0.57315 0.11759 0.94574 0.0
C1125 C 0.59222 0.11966 0.9282 0.0
C1126 C 0.55834 0.10543 0.98833 0.0
C1127 C 0.54174 0.09868 0.08347 0.0
C1128 C 0.60571 0.07989 0.06845 0.0
C1129 C 0.51724 0.01501 0.12689 0.0
C1130 C 0.48623 0.03424 0.1623 0.0
C1131 C 0.47718 0.02898 0.13477 0.0
C1132 C 0.49259 0.0196 0.11721 0.0
C1133 C 0.52585 0.0194 0.15446 0.0
C1134 C 0.51047 0.02899 0.17206 0.0
C1135 C 0.53587 1.0104 0.10828 0.0
H1136 H 0.64193 0.10381 0.96674 0.0
H1137 H 0.60882 0.10063 0.99772 0.0
H1138 H 0.55363 0.12055 0.93944 0.0
H1139 H 0.58722 0.1242 0.90848 0.0
H1140 H 0.45864 0.03297 0.12675 0.0
H1141 H 0.48566 0.01701 0.09599 0.0
H1142 H 0.54495 0.01642 0.16231 0.0
H1143 H 0.51763 0.03251 0.19329 0.0
Dy1144 Dy 0.27954 0.27778 0.28149 0.0
Dy1145 Dy 0.32018 0.33369 0.3096 0.0
C1146 C 0.30507 0.2842 0.34199 0.0
O1147 O 0.25287 0.2984 0.30417 0.0
O1148 O 0.27861 0.3419 0.3077 0.0
O1149 O 0.2435 0.24556 0.28233 0.0
O1150 O 0.26672 0.24311 0.25006 0.0
O1151 O 0.31376 0.33854 0.26612 0.0
O1152 O 0.27525 0.30384 0.25057 0.0
O1153 O 0.34977 0.30928 0.29979 0.0
O1154 O 0.32013 0.27694 0.2681 0.0
O1155 O 0.35386 0.36882 0.30996 0.0
O1156 O 0.33473 0.36366 0.3451 0.0
C1157 C 0.25532 0.32443 0.30971 0.0
O1158 O 0.30018 0.26875 0.31867 0.0
O1159 O 0.30931 0.31026 0.34313 0.0
C1160 C 0.25339 0.20455 0.26996 0.0
C1161 C 0.27981 0.16694 0.28509 0.0
C1162 C 0.27089 0.1828 0.30437 0.0
C1163 C 0.25777 0.2014 0.29689 0.0
C1164 C 0.25949 0.18659 0.25043 0.0
C1165 C 0.2726 0.16788 0.25794 0.0
C1166 C 0.24882 0.22976 0.26312 0.0
C1167 C 0.29372 0.32537 0.2469 0.0
C1168 C 0.34541 0.28936 0.27958 0.0
C1169 C 0.34509 0.40665 0.33362 0.0
C1170 C 0.32041 0.44846 0.33519 0.0
C1171 C 0.32361 0.43521 0.31064 0.0
C1172 C 0.33574 0.4144 0.30983 0.0
C1173 C 0.34398 0.42138 0.35819 0.0
C1174 C 0.33167 0.44218 0.35899 0.0
C1175 C 0.35063 0.38044 0.33297 0.0
H1176 H 0.27607 0.18259 0.32545 0.0
H1177 H 0.25327 0.21486 0.31253 0.0
H1178 H 0.25619 0.18854 0.22955 0.0
H1179 H 0.27861 0.15536 0.24259 0.0
H1180 H 0.3157 0.44017 0.292 0.0
H1181 H 0.33623 0.40338 0.29054 0.0
H1182 H 0.35091 0.41557 0.37674 0.0
H1183 H 0.32951 0.45218 0.37818 0.0
Dy1184 Dy 0.56833 0.52534 0.04767 0.0
Dy1185 Dy 0.54968 0.58154 0.05397 0.0
C1186 C 0.50919 0.52592 0.06203 0.0
O1187 O 0.55979 0.53288 1.00516 0.0
O1188 O 0.53008 0.55745 0.01394 0.0
O1189 O 0.56117 0.48272 0.03336 0.0
O1190 O 0.59831 0.50521 0.05919 0.0
O1191 O 0.58599 0.58811 0.03339 0.0
O1192 O 0.60577 0.56044 0.05367 0.0
O1193 O 0.57041 0.57982 0.09502 0.0
O1194 O 0.56319 0.53402 0.09045 0.0
O1195 O 0.5609 0.62439 0.06827 0.0
O1196 O 0.52249 0.60506 0.04297 0.0
C1197 C 0.54038 0.5434 0.99692 0.0
O1198 O 0.52387 0.51333 0.04888 0.0
O1199 O 0.51685 0.55235 0.06941 0.0
C1200 C 0.57864 0.46075 0.06614 0.0
C1201 C 0.57282 0.42254 0.10175 0.0
C1202 C 0.55897 0.44245 0.10348 0.0
C1203 C 0.56188 0.46133 0.0859 0.0
C1204 C 0.59238 0.44094 0.06423 0.0
C1205 C 0.5895 0.42205 0.08178 0.0
C1206 C 0.58273 0.48136 0.0483 0.0
C1207 C 0.60779 0.58196 0.04233 0.0
C1208 C 0.56932 0.55774 0.10553 0.0
C1209 C 0.54659 0.64906 0.03586 0.0
C1210 C 0.55799 0.69039 1.0037 0.0
C1211 C 0.57891 0.68547 0.0206 0.0
C1212 C 0.57333 0.6651 0.03638 0.0
C1213 C 0.5257 0.65365 0.01864 0.0
C1214 C 0.53133 0.67395 1.00265 0.0
C1215 C 0.54039 0.62794 0.05334 0.0
H1216 H 0.54621 0.44376 0.11871 0.0
H1217 H 0.55121 0.47657 0.0879 0.0
H1218 H 0.60546 0.44014 0.04919 0.0
H1219 H 0.60015 0.40684 0.07947 0.0
H1220 H 0.59972 0.69748 0.02169 0.0
H1221 H 0.59006 0.66214 0.04917 0.0
H1222 H 0.50489 0.64171 0.01776 0.0
H1223 H 0.5147 0.67731 0.99007 0.0
Dy1224 Dy 0.81409 0.34142 0.28442 0.0
Dy1225 Dy 0.80673 0.27734 0.3075 0.0
C1226 C 0.80073 0.32117 0.34121 0.0
O1227 O 0.8574 0.34258 0.30032 0.0
O1228 O 0.85163 0.30183 0.31723 0.0
O1229 O 0.82266 0.38207 0.30501 0.0
O1230 O 0.80786 0.37246 0.26227 0.0
O1231 O 0.8212 0.2782 0.2672 0.0
O1232 O 0.8251 0.31872 0.25043 0.0
O1233 O 0.7638 0.28012 0.2934 0.0
O1234 O 0.76884 0.31933 0.27411 0.0
O1235 O 0.79148 0.23428 0.29446 0.0
O1236 O 0.81681 0.25018 0.33289 0.0
C1237 C 0.86716 0.3252 0.31252 0.0
O1238 O 0.80568 0.32129 0.31722 0.0
O1239 O 0.7979 0.29723 0.34648 0.0
C1240 C 0.79259 0.40499 0.2885 0.0
C1241 C 0.75403 0.43207 0.30114 0.0
C1242 C 0.78142 0.44272 0.31265 0.0
C1243 C 0.80048 0.42935 0.30635 0.0
C1244 C 0.76527 0.39435 0.27666 0.0
C1245 C 0.74617 0.40793 0.28278 0.0
C1246 C 0.81287 0.39036 0.28403 0.0
C1247 C 0.8271 0.29391 0.24881 0.0
C1248 C 0.75345 0.29688 0.28066 0.0
C1249 C 0.82329 0.21141 0.30875 0.0
C1250 C 0.85941 0.18029 0.29889 0.0
C1251 C 0.84865 0.19192 0.27844 0.0
C1252 C 0.83071 0.20718 0.2833 0.0
C1253 C 0.83387 0.19977 0.32917 0.0
C1254 C 0.85167 0.18433 0.3243 0.0
C1255 C 0.80576 0.22894 0.31472 0.0
H1256 H 0.78815 0.46149 0.32658 0.0
H1257 H 0.82138 0.43783 0.31579 0.0
H1258 H 0.75857 0.37537 0.26306 0.0
H1259 H 0.72518 0.39924 0.27372 0.0
H1260 H 0.85426 0.18944 0.25869 0.0
H1261 H 0.82274 0.21576 0.26716 0.0
H1262 H 0.82843 0.20272 0.34896 0.0
H1263 H 0.85904 0.17524 0.34039 0.0
Dy1264 Dy 0.04767 0.58252 0.51955 0.0
Dy1265 Dy 0.05889 0.547 0.5643 0.0
C1266 C 0.06603 0.52838 0.50257 0.0
O1267 O 1.01492 0.54361 0.51091 0.0
O1268 O 1.01449 0.5403 0.55458 0.0
O1269 O 1.01991 0.59396 0.49155 0.0
O1270 O 0.06284 0.61501 0.49825 0.0
O1271 O 0.05572 0.58607 0.58756 0.0
O1272 O 0.03037 0.59837 0.55456 0.0
O1273 O 0.09857 0.56688 0.55361 0.0
O1274 O 0.08726 0.6044 0.54514 0.0
O1275 O 0.08292 0.54362 0.60026 0.0
O1276 O 0.04767 0.51071 0.58177 0.0
C1277 C 1.00248 0.53384 0.52988 0.0
O1278 O 0.06571 0.55263 0.49767 0.0
O1279 O 0.06119 0.52102 0.52587 0.0
C1280 C 0.04122 0.6067 0.45479 0.0
C1281 C 0.06347 0.59866 0.40815 0.0
C1282 C 0.04798 0.57645 0.41786 0.0
C1283 C 0.03704 0.58045 0.44123 0.0
C1284 C 0.05384 0.62889 0.44331 0.0
C1285 C 0.06501 0.62489 0.42009 0.0
C1286 C 0.03959 0.61088 0.48328 0.0
C1287 C 0.04032 0.60109 0.57995 0.0
C1288 C 0.10557 0.59261 0.55256 0.0
C1289 C 0.05277 0.52518 0.62767 0.0
C1290 C 0.03307 0.53943 0.67469 0.0
C1291 C 1.02255 0.5452 0.65035 0.0
C1292 C 0.03221 0.53805 0.62711 0.0
C1293 C 0.06347 0.51927 0.65181 0.0
C1294 C 0.05357 0.52628 0.67528 0.0
C1295 C 0.06493 0.52183 0.60349 0.0
H1296 H 0.04673 0.55606 0.40903 0.0
H1297 H 0.02769 0.56304 0.45 0.0
H1298 H 0.05745 0.64925 0.4537 0.0
H1299 H 0.07682 0.64226 0.41275 0.0
H1300 H 1.00723 0.55585 0.64932 0.0
H1301 H 0.02415 0.54338 0.60875 0.0
H1302 H 0.07974 0.50983 0.65259 0.0
H1303 H 0.06191 0.52149 0.69382 0.0
Dy1304 Dy 0.83076 0.7971 0.29791 0.0
Dy1305 Dy 0.77713 0.81982 0.29422 0.0
C1306 C 0.83355 0.85571 0.2833 0.0
O1307 O 0.8265 0.80875 0.34137 0.0
O1308 O 0.80276 0.8393 0.33362 0.0
O1309 O 0.87386 0.80271 0.30919 0.0
O1310 O 0.84879 0.76578 0.28463 0.0
O1311 O 0.77026 0.78735 0.31904 0.0
O1312 O 0.79476 0.7621 0.29963 0.0
O1313 O 0.77382 0.79323 0.25471 0.0
O1314 O 0.8191 0.79948 0.25481 0.0
O1315 O 0.73357 0.80987 0.28464 0.0
O1316 O 0.75676 0.85062 0.30228 0.0
C1317 C 0.81689 0.82885 0.3501 0.0
O1318 O 0.84477 0.84122 0.2976 0.0
O1319 O 0.80715 0.84887 0.27563 0.0
C1320 C 0.8924 0.78431 0.27332 0.0
C1321 C 0.92863 0.79131 0.23503 0.0
C1322 C 0.90131 0.79064 0.22826 0.0
C1323 C 0.88349 0.78725 0.24714 0.0
C1324 C 0.91963 0.7851 0.28025 0.0
C1325 C 0.93754 0.78857 0.26136 0.0
C1326 C 0.87349 0.7809 0.29336 0.0
C1327 C 0.77484 0.76408 0.31289 0.0
C1328 C 0.79432 0.79224 0.24187 0.0
C1329 C 0.71445 0.83286 0.31648 0.0
C1330 C 0.67899 0.83171 0.35512 0.0
C1331 C 0.7003 0.81978 0.35809 0.0
C1332 C 0.71793 0.82047 0.33902 0.0
C1333 C 0.69311 0.84449 0.3133 0.0
C1334 C 0.6756 0.84394 0.33237 0.0
C1335 C 0.73268 0.83337 0.29607 0.0
H1336 H 0.89369 0.79309 0.2084 0.0
H1337 H 0.86268 0.78693 0.24119 0.0
H1338 H 0.92705 0.78296 0.30029 0.0
H1339 H 0.95831 0.78868 0.26731 0.0
H1340 H 0.70365 0.81037 0.37539 0.0
H1341 H 0.73433 0.81139 0.3419 0.0
H1342 H 0.68993 0.85399 0.29602 0.0
H1343 H 0.65917 0.85294 0.32914 0.0
Dy1344 Dy 0.82811 0.30642 0.77719 0.0
Dy1345 Dy 0.79397 0.32166 0.82323 0.0
C1346 C 0.84052 0.36458 0.80766 0.0
O1347 O 0.84192 0.28702 0.81093 0.0
O1348 O 0.83139 0.31346 0.84489 0.0
O1349 O 0.85882 0.32154 0.75341 0.0
O1350 O 0.84007 0.27844 0.7494 0.0
O1351 O 0.77819 0.27741 0.81026 0.0
O1352 O 0.78778 0.27622 0.76768 0.0
O1353 O 0.76844 0.32614 0.78604 0.0
O1354 O 0.79781 0.32391 0.75558 0.0
O1355 O 0.75738 0.31706 0.8409 0.0
O1356 O 0.795 0.34546 0.86131 0.0
C1357 C 0.84483 0.29649 0.83655 0.0
O1358 O 0.85164 0.3451 0.80314 0.0
O1359 O 0.81487 0.35926 0.80968 0.0
C1360 C 0.84712 0.29779 0.71035 0.0
C1361 C 0.82997 0.31347 0.66243 0.0
C1362 C 0.85765 0.32087 0.67291 0.0
C1363 C 0.86619 0.31296 0.69668 0.0
C1364 C 0.81971 0.2884 0.69864 0.0
C1365 C 0.81122 0.29603 0.67466 0.0
C1366 C 0.85464 0.29796 0.73891 0.0
C1367 C 0.77331 0.26597 0.78523 0.0
C1368 C 0.77475 0.32757 0.76178 0.0
C1369 C 0.76924 0.31668 0.88599 0.0
C1370 C 0.76907 0.28731 0.92833 0.0
C1371 C 0.77824 0.27908 0.90476 0.0
C1372 C 0.7783 0.29359 0.88385 0.0
C1373 C 0.76031 0.32536 0.90951 0.0
C1374 C 0.76028 0.3107 0.93072 0.0
C1375 C 0.77056 0.33152 0.86354 0.0
H1376 H 0.87243 0.33421 0.66362 0.0
H1377 H 0.88733 0.32065 0.70554 0.0
H1378 H 0.80452 0.27705 0.70904 0.0
H1379 H 0.78977 0.29023 0.66696 0.0
H1380 H 0.78575 0.26154 0.90259 0.0
H1381 H 0.78564 0.28683 0.86594 0.0
H1382 H 0.75351 0.34333 0.91147 0.0
H1383 H 0.75321 0.31744 0.94879 0.0
Dy1384 Dy 0.79215 0.78264 0.78568 0.0
Dy1385 Dy 0.82812 0.84001 0.81715 0.0
C1386 C 0.81372 0.79066 0.84922 0.0
O1387 O 0.75947 0.80299 0.79452 0.0
O1388 O 0.78475 0.83969 0.82492 0.0
O1389 O 0.75766 0.74745 0.78187 0.0
O1390 O 0.78556 0.74942 0.75342 0.0
O1391 O 0.81408 0.84988 0.77721 0.0
O1392 O 0.79713 0.80754 0.75262 0.0
O1393 O 0.85998 0.82325 0.79881 0.0
O1394 O 0.8356 0.77895 0.78783 0.0
O1395 O 0.85858 0.87784 0.8187 0.0
O1396 O 0.84122 0.86812 0.85403 0.0
C1397 C 0.76069 0.82371 0.81298 0.0
O1398 O 0.79469 0.77797 0.8291 0.0
O1399 O 0.83247 0.81232 0.84655 0.0
C1400 C 0.773 0.70994 0.77123 0.0
C1401 C 0.79293 0.66757 0.78422 0.0
C1402 C 0.80094 0.69242 0.80122 0.0
C1403 C 0.79114 0.7134 0.79474 0.0
C1404 C 0.76397 0.68478 0.75459 0.0
C1405 C 0.77384 0.66348 0.76119 0.0
C1406 C 0.76653 0.73383 0.76357 0.0
C1407 C 0.80526 0.83389 0.75402 0.0
C1408 C 0.85894 0.79798 0.79001 0.0
C1409 C 0.84856 0.91256 0.84527 0.0
C1410 C 0.82887 0.95633 0.83679 0.0
C1411 C 0.85481 0.95623 0.83128 0.0
C1412 C 0.86463 0.93444 0.83556 0.0
C1413 C 0.82361 0.91379 0.85286 0.0
C1414 C 0.81391 0.93558 0.84875 0.0
C1415 C 0.8555 0.88699 0.84271 0.0
H1416 H 0.81552 0.69587 0.81916 0.0
H1417 H 0.79865 0.73272 0.80765 0.0
H1418 H 0.75017 0.68193 0.73623 0.0
H1419 H 0.76755 0.64433 0.74785 0.0
H1420 H 0.86672 0.97202 0.82202 0.0
H1421 H 0.88388 0.93379 0.82951 0.0
H1422 H 0.81075 0.89721 0.86044 0.0
H1423 H 0.79409 0.93556 0.85369 0.0
Dy1424 Dy 0.59146 0.58045 0.5721 0.0
Dy1425 Dy 0.53383 0.54467 0.54005 0.0
C1426 C 0.58538 0.55771 0.50866 0.0
O1427 O 0.57595 0.61284 0.55506 0.0
O1428 O 0.5323 0.58825 0.53759 0.0
O1429 O 0.63209 0.6064 0.57372 0.0
O1430 O 0.61847 0.5935 0.60961 0.0
O1431 O 0.52892 0.54944 0.58379 0.0
O1432 O 0.56301 0.58771 0.59998 0.0
O1433 O 0.55469 0.51201 0.54768 0.0
O1434 O 0.58777 0.53779 0.58122 0.0
O1435 O 0.49548 0.51553 0.5409 0.0
O1436 O 0.50291 0.53238 0.5052 0.0
C1437 C 0.55166 0.6116 0.54275 0.0
O1438 O 0.60104 0.56586 0.53198 0.0
O1439 O 0.5589 0.54984 0.5069 0.0
C1440 C 0.66152 0.59035 0.60131 0.0
C1441 C 0.69317 0.55496 0.59224 0.0
C1442 C 0.69841 0.57914 0.58167 0.0
C1443 C 0.68277 0.59678 0.58628 0.0
C1444 C 0.65845 0.56772 0.61439 0.0
C1445 C 0.67417 0.55014 0.60985 0.0
C1446 C 0.63937 0.6031 0.59804 0.0
C1447 C 0.54143 0.56927 0.60334 0.0
C1448 C 0.57386 0.51371 0.56785 0.0
C1449 C 0.46189 0.53112 0.51995 0.0
C1450 C 0.42126 0.55755 0.52152 0.0
C1451 C 0.44669 0.56889 0.53746 0.0
C1452 C 0.46653 0.55563 0.53697 0.0
C1453 C 0.43668 0.51941 0.50394 0.0
C1454 C 0.41631 0.53248 0.50488 0.0
C1455 C 0.48463 0.51973 0.51824 0.0
H1456 H 0.71343 0.58352 0.56845 0.0
H1457 H 0.68573 0.61419 0.57618 0.0
H1458 H 0.64241 0.56225 0.62633 0.0
H1459 H 0.66988 0.53169 0.61834 0.0
H1460 H 0.45171 0.58844 0.54994 0.0
H1461 H 0.48587 0.56491 0.54957 0.0
H1462 H 0.43288 0.50049 0.49062 0.0
H1463 H 0.39685 0.52304 0.49254 0.0
Dy1464 Dy 0.02973 0.56276 0.07196 0.0
Dy1465 Dy 0.08957 0.57077 0.05378 0.0
C1466 C 0.04193 0.583 0.01795 0.0
O1467 O 0.02673 0.52391 0.04419 0.0
O1468 O 0.07148 0.52513 0.04928 0.0
O1469 O 0.98633 0.54912 0.06062 0.0
O1470 O 1.0036 0.56871 0.10109 0.0
O1471 O 0.09345 0.56734 0.09674 0.0
O1472 O 0.05062 0.54228 0.09971 0.0
O1473 O 0.08742 0.61442 0.06436 0.0
O1474 O 0.05456 0.60507 0.09127 0.0
O1475 O 0.13333 0.58129 0.06391 0.0
O1476 O 0.11425 0.56595 0.02314 0.0
C1477 C 0.04574 0.51147 0.04183 0.0
O1478 O 0.03152 0.58732 0.03959 0.0
O1479 O 0.06144 0.57139 0.01772 0.0
C1480 C 0.96484 0.57966 0.08104 0.0
C1481 C 0.93342 0.61642 0.07657 0.0
C1482 C 0.93378 0.5976 0.05442 0.0
C1483 C 0.94924 0.57949 0.05662 0.0
C1484 C 0.96437 0.59831 0.10327 0.0
C1485 C 0.9489 0.6165 0.10105 0.0
C1486 C 0.98187 0.56086 0.08309 0.0
C1487 C 0.0768 0.55004 0.10801 0.0
C1488 C 0.07317 0.62288 0.08194 0.0
C1489 C 0.15163 0.55056 0.03833 0.0
C1490 C 0.18076 0.51146 0.03384 0.0
C1491 C 0.1821 0.52744 0.05858 0.0
C1492 C 0.16774 0.54678 0.0608 0.0
C1493 C 0.15002 0.53429 0.01375 0.0
C1494 C 0.16421 0.51495 1.01157 0.0
C1495 C 0.13636 0.57107 0.04019 0.0
H1496 H 0.92171 0.59647 0.03538 0.0
H1497 H 0.9489 0.56534 0.03907 0.0
H1498 H 0.97608 0.59897 0.12239 0.0
H1499 H 0.94929 0.63078 0.1185 0.0
H1500 H 0.19487 0.52558 0.07609 0.0
H1501 H 0.1695 0.55892 0.08007 0.0
H1502 H 0.13779 0.53654 0.99604 0.0
H1503 H 0.1623 0.50278 0.99228 0.0
H1504 H 0.99165 0.19127 0.97328 0.0
H1505 H 0.05481 0.24914 0.02964 0.0
H1506 H 0.06708 0.21255 0.04878 0.0
H1507 H 0.0606 0.16312 0.05018 0.0
H1508 H 0.99487 0.10539 0.99641 0.0
H1509 H 0.9834 0.14189 0.9765 0.0
C1510 C 1.00812 0.19604 0.98975 0.0
C1511 C 1.02223 0.22378 0.99954 0.0
C1512 C 1.01484 0.17438 1.00154 0.0
C1513 C 0.0433 0.22859 0.02128 0.0
C1514 C 0.05047 0.20738 0.03239 0.0
C1515 C 0.04367 0.15834 0.03416 0.0
C1516 C 0.02887 0.13064 0.02515 0.0
C1517 C 0.0365 0.18002 0.02282 0.0
C1518 C 1.0069 0.12588 1.00429 0.0
C1519 C 1.00025 0.14705 0.99264 0.0
H1520 H 0.19692 0.82524 0.15579 0.0
H1521 H 0.17215 0.8757 0.21565 0.0
H1522 H 0.21021 0.87503 0.24806 0.0
H1523 H 0.24896 0.85736 0.26093 0.0
H1524 H 0.27334 0.80626 0.20123 0.0
H1525 H 0.23766 0.81008 0.16789 0.0
C1526 C 0.20015 0.83657 0.17574 0.0
C1527 C 0.18145 0.85062 0.18298 0.0
C1528 C 0.22207 0.83571 0.19473 0.0
C1529 C 0.18602 0.86476 0.20924 0.0
C1530 C 0.20784 0.86428 0.22797 0.0
C1531 C 0.2467 0.84725 0.24059 0.0
C1532 C 0.26404 0.83134 0.23401 0.0
C1533 C 0.22574 0.84937 0.2212 0.0
C1534 C 0.26044 0.81849 0.2073 0.0
C1535 C 0.2399 0.82067 0.18803 0.0
H1536 H 0.48628 0.87842 0.48907 0.0
H1537 H 0.56942 0.87803 0.50579 0.0
H1538 H 0.58259 0.9262 0.52479 0.0
H1539 H 0.57088 0.96993 0.53404 0.0
H1540 H 0.48704 0.96903 0.51864 0.0
H1541 H 0.47404 0.92069 0.50177 0.0
C1542 C 0.50721 0.88865 0.4975 0.0
C1543 C 0.52667 0.87403 0.49643 0.0
C1544 C 0.51468 0.91665 0.50825 0.0
C1545 C 0.55377 0.88818 0.50701 0.0
C1546 C 0.56139 0.91601 0.51754 0.0
C1547 C 0.54974 0.95919 0.52703 0.0
C1548 C 0.53006 0.9737 0.52754 0.0
C1549 C 0.54213 0.93073 0.51782 0.0
C1550 C 0.50276 0.95888 0.51864 0.0
C1551 C 0.49524 0.93102 0.50892 0.0
H1552 H 0.54484 0.32242 0.68822 0.0
H1553 H 0.4864 0.28787 0.61704 0.0
H1554 H 0.44996 0.27876 0.64417 0.0
H1555 H 0.43467 0.27923 0.68838 0.0
H1556 H 0.49354 0.31369 0.75925 0.0
H1557 H 0.5296 0.32384 0.73198 0.0
C1558 C 0.52414 0.31305 0.6785 0.0
C1559 C 0.51858 0.30595 0.65044 0.0
C1560 C 0.50323 0.30758 0.69425 0.0
C1561 C 0.49148 0.29369 0.63848 0.0
C1562 C 0.47055 0.28838 0.65404 0.0
C1563 C 0.45535 0.28919 0.69788 0.0
C1564 C 0.46124 0.29546 0.72599 0.0
C1565 C 0.47618 0.29507 0.68198 0.0
C1566 C 0.48831 0.30813 0.73779 0.0
C1567 C 0.509 0.31413 0.72216 0.0
H1568 H 0.09207 0.87582 0.71654 0.0
H1569 H 1.02311 0.81613 0.66869 0.0
H1570 H 1.02317 0.84501 0.63475 0.0
H1571 H 0.04378 0.88635 0.61743 0.0
H1572 H 0.11359 0.94568 0.66413 0.0
H1573 H 0.11233 0.91787 0.69939 0.0
C1574 C 0.07691 0.86925 0.69881 0.0
C1575 C 0.05765 0.84373 0.69528 0.0
C1576 C 0.07734 0.88583 0.67893 0.0
C1577 C 0.03831 0.83554 0.67198 0.0
C1578 C 0.03829 0.85207 0.65248 0.0
C1579 C 0.05856 0.89334 0.63543 0.0
C1580 C 0.07878 0.91809 0.63802 0.0
C1581 C 0.05787 0.87712 0.65556 0.0
C1582 C 0.09799 0.92659 0.6614 0.0
C1583 C 0.09721 0.91074 0.68167 0.0
H1584 H 0.49218 0.8702 0.88423 0.0
H1585 H 0.50606 0.81591 0.82022 0.0
H1586 H 0.45883 0.80644 0.79905 0.0
H1587 H 0.41196 0.81183 0.79956 0.0
H1588 H 0.39916 0.86818 0.86241 0.0
H1589 H 0.44671 0.87851 0.88274 0.0
C1590 C 0.48503 0.8566 0.86541 0.0
C1591 C 0.50337 0.84433 0.8537 0.0
C1592 C 0.45754 0.85141 0.85306 0.0
C1593 C 0.49309 0.82632 0.82953 0.0
C1594 C 0.46578 0.82069 0.81746 0.0
C1595 C 0.41963 0.82661 0.81755 0.0
C1596 C 0.4015 0.8392 0.8293 0.0
C1597 C 0.44759 0.83288 0.82909 0.0
C1598 C 0.41224 0.85822 0.8527 0.0
C1599 C 0.43962 0.86409 0.86445 0.0
H1600 H 0.54602 0.21193 0.15012 0.0
H1601 H 0.50333 0.16213 0.2016 0.0
H1602 H 0.50423 0.12133 0.17195 0.0
H1603 H 0.51759 0.09961 0.13045 0.0
H1604 H 0.56001 0.15184 0.08002 0.0
H1605 H 0.55861 0.19112 0.10978 0.0
C1606 C 0.53661 0.19214 0.15475 0.0
C1607 C 0.52397 0.19024 0.17777 0.0
C1608 C 0.53726 0.16887 0.13761 0.0
C1609 C 0.51281 0.16433 0.18385 0.0
C1610 C 0.51333 0.14093 0.16679 0.0
C1611 C 0.52639 0.11956 0.12588 0.0
C1612 C 0.53894 0.1222 0.10258 0.0
C1613 C 0.52548 0.14286 0.14342 0.0
C1614 C 0.55021 0.14856 0.09745 0.0
C1615 C 0.54951 0.17136 0.11462 0.0
H1616 H 0.16018 0.37979 0.33502 0.0
H1617 H 0.13323 0.30803 0.37012 0.0
H1618 H 0.1713 0.29294 0.35718 0.0
H1619 H 0.21273 0.29888 0.33522 0.0
H1620 H 0.24294 0.3722 0.3038 0.0
H1621 H 0.20417 0.38737 0.31579 0.0
C1622 C 0.16262 0.36092 0.34007 0.0
C1623 C 0.14301 0.34532 0.35385 0.0
C1624 C 0.18559 0.3523 0.33299 0.0
C1625 C 0.14741 0.32094 0.35991 0.0
C1626 C 0.16941 0.31206 0.35231 0.0
C1627 C 0.21098 0.31822 0.33091 0.0
C1628 C 0.23125 0.33403 0.3181 0.0
C1629 C 0.1887 0.32738 0.33872 0.0
C1630 C 0.22814 0.35926 0.31339 0.0
C1631 C 0.20569 0.36803 0.32031 0.0
H1632 H 0.96075 0.03108 0.19247 0.0
H1633 H 0.03855 0.07736 0.23687 0.0
H1634 H 0.05544 0.08716 0.19533 0.0
H1635 H 0.04883 0.08144 0.14612 0.0
H1636 H 0.97186 0.03321 0.10146 0.0
H1637 H 0.95403 0.02559 0.1431 0.0
C1638 C 0.98138 0.04342 0.1931 0.0
C1639 C 0.9983 0.05346 0.21799 0.0
C1640 C 0.99116 0.0487 0.16895 0.0
C1641 C 0.02502 0.06928 0.21819 0.0
C1642 C 0.03472 0.07494 0.19435 0.0
C1643 C 0.02802 0.06955 0.14543 0.0
C1644 C 1.01169 0.05813 0.12046 0.0
C1645 C 1.01806 0.06466 0.16957 0.0
C1646 C 0.98493 0.04236 0.12021 0.0
C1647 C 0.97471 0.03792 0.14411 0.0
H1648 H 0.26773 0.70557 0.47245 0.0
H1649 H 0.34026 0.75035 0.52669 0.0
H1650 H 0.34409 0.78891 0.50315 0.0
H1651 H 0.32505 0.81079 0.46874 0.0
H1652 H 0.25052 0.76646 0.41719 0.0
H1653 H 0.24862 0.72717 0.43887 0.0
C1654 C 0.28443 0.72367 0.47913 0.0
C1655 C 0.30348 0.72518 0.50142 0.0
C1656 C 0.28574 0.74612 0.46644 0.0
C1657 C 0.32521 0.74876 0.5096 0.0
C1658 C 0.32732 0.77087 0.4963 0.0
C1659 C 0.30834 0.79256 0.4625 0.0
C1660 C 0.28772 0.79164 0.44182 0.0
C1661 C 0.30732 0.76999 0.47508 0.0
C1662 C 0.26624 0.76788 0.43363 0.0
C1663 C 0.26532 0.74528 0.44572 0.0
H1664 H 0.61908 0.02534 0.71091 0.0
H1665 H 0.6881 0.03165 0.66934 0.0
H1666 H 0.65924 0.0282 0.62706 0.0
H1667 H 0.61707 0.03204 0.6041 0.0
H1668 H 0.54943 0.03167 0.64674 0.0
H1669 H 0.57511 0.02388 0.68658 0.0
C1670 C 0.62765 0.0251 0.69249 0.0
C1671 C 0.65569 0.02898 0.69316 0.0
C1672 C 0.61133 0.02486 0.66866 0.0
C1673 C 0.66658 0.0288 0.66923 0.0
C1674 C 0.65014 0.02709 0.64515 0.0
C1675 C 0.60771 0.03007 0.62199 0.0
C1676 C 0.58159 0.03323 0.62266 0.0
C1677 C 0.62288 0.0266 0.64496 0.0
C1678 C 0.56964 0.02979 0.64581 0.0
C1679 C 0.58434 0.02535 0.66859 0.0
H1680 H 0.35435 0.38826 0.9651 0.0
H1681 H 0.28638 0.33194 0.98761 0.0
H1682 H 0.2796 0.30318 0.94385 0.0
H1683 H 0.29112 0.29649 0.89723 0.0
H1684 H 0.3614 0.35252 0.87797 0.0
H1685 H 0.36958 0.37869 0.92268 0.0
C1686 C 0.33839 0.36945 0.96098 0.0
C1687 C 0.32093 0.36251 0.97997 0.0
C1688 C 0.33511 0.35288 0.93618 0.0
C1689 C 0.30024 0.33792 0.97363 0.0
C1690 C 0.29631 0.32151 0.94848 0.0
C1691 C 0.30871 0.31392 0.90323 0.0
C1692 C 0.32601 0.32229 0.88439 0.0
C1693 C 0.31339 0.32902 0.92934 0.0
C1694 C 0.34824 0.34533 0.8922 0.0
C1695 C 0.35274 0.36047 0.91771 0.0
H1696 H 0.96232 0.01989 0.38981 0.0
H1697 H 0.03611 0.05592 0.36005 0.0
H1698 H 0.06222 0.05871 0.40416 0.0
H1699 H 0.06336 0.053 0.45258 0.0
H1700 H 0.98821 0.01654 0.47981 0.0
H1701 H 0.96353 1.01127 0.43516 0.0
C1702 C 0.98416 0.02825 0.39259 0.0
C1703 C 0.99704 0.03787 0.37132 0.0
C1704 C 0.9989 0.02946 0.41773 0.0
C1705 C 0.02547 0.04843 0.37586 0.0
C1706 C 0.04043 0.04999 0.40117 0.0
C1707 C 0.04171 0.04328 0.44844 0.0
C1708 C 0.02765 0.03482 0.4695 0.0
C1709 C 0.02733 0.04075 0.42243 0.0
C1710 C 0.9995 0.02292 0.46398 0.0
C1711 C 0.98534 0.02009 0.43846 0.0
H1712 H 0.34667 0.7572 0.6408 0.0
H1713 H 0.30994 0.67985 0.66263 0.0
H1714 H 0.31166 0.70159 0.70833 0.0
H1715 H 0.31744 0.74297 0.73977 0.0
H1716 H 0.3505 0.82047 0.71627 0.0
H1717 H 0.35626 0.79818 0.67337 0.0
C1718 C 0.33961 0.74498 0.65568 0.0
C1719 C 0.32796 0.717 0.64834 0.0
C1720 C 0.33947 0.75771 0.68143 0.0
C1721 C 0.31887 0.70146 0.66782 0.0
C1722 C 0.31966 0.7139 0.69387 0.0
C1723 C 0.32624 0.75503 0.72543 0.0
C1724 C 0.3331 0.78337 0.73106 0.0
C1725 C 0.32889 0.7421 0.70055 0.0
C1726 C 0.34459 0.79864 0.71227 0.0
C1727 C 0.34799 0.78591 0.68777 0.0
H1728 H 0.71062 0.11737 0.86644 0.0
H1729 H 0.64669 0.05221 0.81792 0.0
H1730 H 0.6161 0.05698 0.84968 0.0
H1731 H 0.60654 0.08081 0.88999 0.0
H1732 H 0.66999 0.14468 0.93983 0.0
H1733 H 0.70171 0.13964 0.90854 0.0
C1734 C 0.6901 0.10405 0.86294 0.0
C1735 C 0.68092 0.08477 0.83959 0.0
C1736 C 0.67238 0.10701 0.88121 0.0
C1737 C 0.65429 0.06747 0.83555 0.0
C1738 C 0.63666 0.07021 0.85363 0.0
C1739 C 0.62725 0.09378 0.89371 0.0
C1740 C 0.63597 0.11346 0.91655 0.0
C1741 C 0.64531 0.09025 0.87616 0.0
C1742 C 0.66296 0.12971 0.92193 0.0
C1743 C 0.68103 0.12669 0.90421 0.0
H1744 H 0.2835 0.33809 0.12378 0.0
H1745 H 0.34038 0.41543 0.15649 0.0
H1746 H 0.33869 0.40469 0.20147 0.0
H1747 H 0.32225 0.3728 0.23208 0.0
H1748 H 0.26375 0.29624 0.19977 0.0
H1749 H 0.2648 0.30725 0.1548 0.0
C1750 C 0.29543 0.35265 0.14074 0.0
C1751 C 0.31215 0.37757 0.13643 0.0
C1752 C 0.29411 0.34647 0.16696 0.0
C1753 C 0.32728 0.39613 0.15891 0.0
C1754 C 0.32639 0.38997 0.18481 0.0
C1755 C 0.30956 0.35857 0.21526 0.0
C1756 C 0.29298 0.33362 0.21967 0.0
C1757 C 0.31004 0.36514 0.18916 0.0
C1758 C 0.27666 0.31563 0.19734 0.0
C1759 C 0.27732 0.32187 0.17142 0.0
H1760 H 0.23691 1.00336 1.00168 0.0
H1761 H 0.23577 0.95256 0.06237 0.0
H1762 H 0.21046 0.97775 0.08743 0.0
H1763 H 0.1946 0.01809 0.09506 0.0
H1764 H 0.19659 0.06893 0.03427 0.0
H1765 H 0.21707 0.04056 1.00702 0.0
C1766 C 0.2307 0.99739 0.02013 0.0
C1767 C 0.23872 0.97646 0.03036 0.0
C1768 C 0.21736 1.01267 0.03501 0.0
C1769 C 0.23 0.96868 0.05404 0.0
C1770 C 0.21588 0.98335 0.06862 0.0
C1771 C 0.1993 0.02285 0.07576 0.0
C1772 C 0.19468 0.04603 0.06709 0.0
C1773 C 0.21054 1.0061 0.05983 0.0
C1774 C 0.20088 0.05184 0.04197 0.0
C1775 C 0.21215 0.03536 0.02611 0.0
H1776 H 0.72914 0.65348 0.0531 0.0
H1777 H 0.6918 0.69832 1.00319 0.0
H1778 H 0.647 0.66684 1.00339 0.0
H1779 H 0.61897 0.62577 0.01685 0.0
H1780 H 0.6572 0.58074 0.06622 0.0
H1781 H 0.70127 0.61302 0.06698 0.0
C1782 C 0.71116 0.65615 0.04205 0.0
C1783 C 0.71366 0.67748 0.02735 0.0
C1784 C 0.68576 0.63793 0.04214 0.0
C1785 C 0.69026 0.68161 0.01414 0.0
C1786 C 0.66476 0.66361 0.01422 0.0
C1787 C 0.63695 0.62288 0.02763 0.0
C1788 C 0.63473 0.60069 0.04133 0.0
C1789 C 0.66233 0.64147 0.02788 0.0
C1790 C 0.65827 0.59744 0.05533 0.0
C1791 C 0.68348 0.616 0.05593 0.0
H1792 H 0.6924 0.5092 0.35189 0.0
H1793 H 0.66105 0.50521 0.26931 0.0
H1794 H 0.68188 0.46934 0.25647 0.0
H1795 H 0.71537 0.44477 0.26841 0.0
H1796 H 0.74791 0.4512 0.3512 0.0
H1797 H 0.72038 0.48054 0.3643 0.0
C1798 C 0.68957 0.50002 0.33112 0.0
C1799 C 0.6755 0.51001 0.31155 0.0
C1800 C 0.70235 0.48026 0.32391 0.0
C1801 C 0.67171 0.49778 0.28477 0.0
C1802 C 0.68393 0.47752 0.27741 0.0
C1803 C 0.71594 0.45217 0.28932 0.0
C1804 C 0.73404 0.4463 0.30879 0.0
C1805 C 0.70029 0.46945 0.29672 0.0
C1806 C 0.73459 0.45595 0.33583 0.0
C1807 C 0.71879 0.47263 0.34334 0.0
H1808 H 0.89008 0.44619 0.49046 0.0
H1809 H 0.86948 0.4907 0.55799 0.0
H1810 H 0.9161 0.51963 0.56903 0.0
H1811 H 0.96206 0.53354 0.5583 0.0
H1812 H 0.98184 0.49345 0.48757 0.0
H1813 H 0.93618 0.46163 0.47853 0.0
C1814 C 0.89605 0.46218 0.50759 0.0
C1815 C 0.87671 0.46676 0.52325 0.0
C1816 C 0.92258 0.47951 0.51307 0.0
C1817 C 0.88427 0.48727 0.54554 0.0
C1818 C 0.9108 0.50375 0.55185 0.0
C1819 C 0.95629 0.51776 0.54096 0.0
C1820 C 0.97497 0.51553 0.52366 0.0
C1821 C 0.92999 0.50031 0.53553 0.0
C1822 C 0.96747 0.49542 0.50102 0.0
C1823 C 0.94154 0.47718 0.49599 0.0
H1824 H 0.37711 0.11864 0.30972 0.0
H1825 H 0.33215 0.09121 0.37213 0.0
H1826 H 0.29823 0.11354 0.35813 0.0
H1827 H 0.27988 0.13813 0.32616 0.0
H1828 H 0.32508 0.16474 0.26362 0.0
H1829 H 0.35992 0.14449 0.27919 0.0
C1830 C 0.36023 0.11797 0.32068 0.0
C1831 C 0.35723 0.10335 0.342 0.0
C1832 C 0.34041 0.12997 0.31199 0.0
C1833 C 0.33497 0.10241 0.35569 0.0
C1834 C 0.31545 0.11495 0.34755 0.0
C1835 C 0.29739 0.13954 0.316 0.0
C1836 C 0.29963 0.15259 0.29353 0.0
C1837 C 0.31766 0.12825 0.32533 0.0
C1838 C 0.32241 0.15416 0.2805 0.0
C1839 C 0.34259 0.14295 0.28962 0.0
H1840 H 0.34419 0.1859 0.57671 0.0
H1841 H 0.35682 0.18829 0.49506 0.0
H1842 H 0.39343 0.16724 0.50163 0.0
H1843 H 0.41731 0.14253 0.52864 0.0
H1844 H 0.40283 0.13731 0.60955 0.0
H1845 H 0.37153 0.16484 0.60528 0.0
C1846 C 0.35565 0.18262 0.56071 0.0
C1847 C 0.34817 0.18893 0.53556 0.0
C1848 C 0.3759 0.16936 0.56433 0.0
C1849 C 0.36253 0.18386 0.51467 0.0
C1850 C 0.38327 0.1716 0.51836 0.0
C1851 C 0.40781 0.14792 0.54555 0.0
C1852 C 0.41227 0.13763 0.5693 0.0
C1853 C 0.38947 0.16339 0.54281 0.0
C1854 C 0.39944 0.14457 0.59089 0.0
C1855 C 0.3816 0.16042 0.5885 0.0
H1856 H 0.68009 0.67533 0.34623 0.0
H1857 H 0.70957 0.62389 0.29168 0.0
H1858 H 0.7453 0.66252 0.28464 0.0
H1859 H 0.76789 0.71115 0.29334 0.0
H1860 H 0.73869 0.76301 0.34796 0.0
H1861 H 0.70383 0.72424 0.35606 0.0
C1862 C 0.69439 0.67276 0.33286 0.0
C1863 C 0.69259 0.64691 0.31982 0.0
C1864 C 0.71515 0.69514 0.32906 0.0
C1865 C 0.71096 0.64367 0.30227 0.0
C1866 C 0.73136 0.66573 0.29819 0.0
C1867 C 0.7541 0.71394 0.30722 0.0
C1868 C 0.75588 0.73998 0.31985 0.0
C1869 C 0.73375 0.69157 0.31154 0.0
C1870 C 0.73771 0.7432 0.33775 0.0
C1871 C 0.71764 0.72103 0.34237 0.0
H1872 H 0.88506 0.48744 0.80572 0.0
H1873 H 0.94522 0.48098 0.86781 0.0
H1874 H 0.92547 0.43164 0.86055 0.0
H1875 H 0.88836 0.39113 0.83859 0.0
H1876 H 0.82688 0.39972 0.77891 0.0
H1877 H 0.85019 0.44766 0.78257 0.0
C1878 C 0.89375 0.47514 0.81767 0.0
C1879 C 0.91571 0.48738 0.83784 0.0
C1880 C 0.88221 0.44736 0.81355 0.0
C1881 C 0.92777 0.4716 0.8526 0.0
C1882 C 0.91654 0.44358 0.84841 0.0
C1883 C 0.88045 0.40362 0.82628 0.0
C1884 C 0.85614 0.39242 0.80859 0.0
C1885 C 0.89336 0.43133 0.8293 0.0
C1886 C 0.8456 0.40834 0.79271 0.0
C1887 C 0.85886 0.43559 0.79478 0.0
H1888 H 0.06034 0.88709 0.06823 0.0
H1889 H 0.12054 0.9239 0.1374 0.0
H1890 H 0.11799 0.96873 0.12926 0.0
H1891 H 0.09771 0.99865 0.10254 0.0
H1892 H 0.03811 0.96003 0.03308 0.0
H1893 H 0.04158 0.91614 0.04138 0.0
C1894 C 0.0731 0.90477 0.08169 0.0
C1895 C 0.09068 0.90118 0.10367 0.0
C1896 C 0.07159 0.93092 0.07679 0.0
C1897 C 0.10681 0.92516 0.12034 0.0
C1898 C 0.10528 0.95114 0.11565 0.0
C1899 C 0.08548 0.98073 0.08908 0.0
C1900 C 0.06748 0.98367 0.06693 0.0
C1901 C 0.08762 0.95452 0.09395 0.0
C1902 C 0.05217 0.95942 0.05017 0.0
C1903 C 0.05409 0.93385 0.05496 0.0
H1904 H 0.94347 0.26349 0.89596 0.0
H1905 H 0.92937 0.31376 0.96312 0.0
H1906 H 0.88921 0.31896 0.93629 0.0
H1907 H 0.861 0.31363 0.89164 0.0
H1908 H 0.87505 0.26185 0.82525 0.0
H1909 H 0.91145 0.25278 0.85362 0.0
C1910 C 0.93143 0.27535 0.90485 0.0
C1911 C 0.9402 0.28902 0.93139 0.0
C1912 C 0.90813 0.27816 0.8892 0.0
C1913 C 0.9236 0.30343 0.94269 0.0
C1914 C 0.90058 0.30649 0.92722 0.0
C1915 C 0.87177 0.30012 0.88337 0.0
C1916 C 0.86519 0.289 0.85579 0.0
C1917 C 0.89311 0.29475 0.90008 0.0
C1918 C 0.87947 0.27118 0.84602 0.0
C1919 C 0.90046 0.26582 0.86237 0.0
H1920 H 0.56704 0.23284 0.63388 0.0
H1921 H 0.61252 0.26009 0.57218 0.0
H1922 H 0.60946 0.2132 0.55412 0.0
H1923 H 0.59313 0.1632 0.55547 0.0
H1924 H 0.5469 0.13739 0.61754 0.0
H1925 H 0.55093 0.18395 0.63525 0.0
C1926 C 0.57614 0.22857 0.61634 0.0
C1927 C 0.58925 0.25034 0.60401 0.0
C1928 C 0.57422 0.2013 0.60596 0.0
C1929 C 0.60148 0.24402 0.58169 0.0
C1930 C 0.59992 0.21701 0.57145 0.0
C1931 C 0.58414 0.1677 0.57301 0.0
C1932 C 0.56974 0.146 0.58497 0.0
C1933 C 0.58622 0.19525 0.5833 0.0
C1934 C 0.55806 0.15297 0.60756 0.0
C1935 C 0.56035 0.17991 0.61788 0.0
H1936 H 0.59288 0.84951 0.4282 0.0
H1937 H 0.58541 0.76649 0.43528 0.0
H1938 H 0.62394 0.76765 0.41086 0.0
H1939 H 0.65556 0.79082 0.38206 0.0
H1940 H 0.66108 0.87367 0.37483 0.0
H1941 H 0.62738 0.8739 0.4044 0.0
C1942 C 0.60012 0.83183 0.42499 0.0
C1943 C 0.58628 0.80794 0.43353 0.0
C1944 C 0.62155 0.83245 0.41027 0.0
C1945 C 0.5959 0.78523 0.42924 0.0
C1946 C 0.61769 0.78581 0.41491 0.0
C1947 C 0.64971 0.80904 0.38732 0.0
C1948 C 0.66051 0.83204 0.37565 0.0
C1949 C 0.63004 0.80905 0.40446 0.0
C1950 C 0.65265 0.85547 0.38282 0.0
C1951 C 0.63348 0.8557 0.39993 0.0
H1952 H 0.02961 0.24979 0.40028 0.0
H1953 H 0.10297 0.29961 0.45029 0.0
H1954 H 0.10083 0.26563 0.47913 0.0
H1955 H 0.07669 0.22344 0.4924 0.0
H1956 H 1.00273 0.17316 0.44397 0.0
H1957 H 1.00663 0.20522 0.41236 0.0
C1958 C 0.04535 0.25287 0.41719 0.0
C1959 C 0.06637 0.2773 0.42314 0.0
C1960 C 0.04373 0.23327 0.43426 0.0
C1961 C 0.08647 0.28111 0.44532 0.0
C1962 C 0.08525 0.2617 0.46193 0.0
C1963 C 0.06136 0.21949 0.47497 0.0
C1964 C 0.03928 0.19607 0.47082 0.0
C1965 C 0.06366 0.23803 0.45701 0.0
C1966 C 1.01998 0.19101 0.44771 0.0
C1967 C 1.02215 0.20941 0.42964 0.0
H1968 H 0.62297 0.26082 0.2726 0.0
H1969 H 0.62925 0.30439 0.2063 0.0
H1970 H 0.67882 0.31609 0.2156 0.0
H1971 H 0.72135 0.31347 0.24212 0.0
H1972 H 0.71489 0.26607 0.30567 0.0
H1973 H 0.66555 0.2565 0.29791 0.0
C1974 C 0.63516 0.27311 0.26034 0.0
C1975 C 0.6219 0.28207 0.23893 0.0
C1976 C 0.66413 0.27898 0.26521 0.0
C1977 C 0.63848 0.29737 0.22301 0.0
C1978 C 0.66705 0.30404 0.22831 0.0
C1979 C 0.70924 0.301 0.25432 0.0
C1980 C 0.72255 0.29063 0.27462 0.0
C1981 C 0.68028 0.29488 0.24927 0.0
C1982 C 0.70584 0.27435 0.28983 0.0
C1983 C 0.67733 0.26889 0.28544 0.0
H1984 H 0.58703 0.91173 0.95476 0.0
H1985 H 0.58568 0.95618 0.8891 0.0
H1986 H 0.58127 0.99461 0.91898 0.0
H1987 H 0.5752 0.01538 0.96353 0.0
H1988 H 0.57753 0.97139 0.02941 0.0
H1989 H 0.5842 0.93376 0.99998 0.0
C1990 C 0.58617 0.92991 0.94692 0.0
C1991 C 0.58672 0.93054 0.91928 0.0
C1992 C 0.58355 0.95231 0.96442 0.0
C1993 C 0.58541 0.95462 0.91 0.0
C1994 C 0.58274 0.97678 0.92719 0.0
C1995 C 0.57735 0.99768 0.9716 0.0
C1996 C 0.57565 0.99658 0.999 0.0
C1997 C 0.58136 0.97581 0.9544 0.0
C1998 C 0.57869 0.97322 1.00867 0.0
C1999 C 0.58247 0.95147 0.99171 0.0
H2000 H 0.95393 0.74913 0.7484 0.0
H2001 H 1.00054 0.83238 0.7739 0.0
H2002 H 0.96091 0.84348 0.78714 0.0
H2003 H 0.91228 0.83095 0.7925 0.0
H2004 H 0.86441 0.74822 0.76849 0.0
H2005 H 0.90404 0.73629 0.75434 0.0
C2006 C 0.95555 0.76975 0.75672 0.0
C2007 C 0.98137 0.78965 0.75987 0.0
C2008 C 0.93186 0.77646 0.76497 0.0
C2009 C 0.98188 0.81613 0.77106 0.0
C2010 C 0.95883 0.82275 0.77878 0.0
C2011 C 0.91027 0.81021 0.78426 0.0
C2012 C 0.88451 0.79073 0.7819 0.0
C2013 C 0.93361 0.80324 0.77605 0.0
C2014 C 0.88336 0.76402 0.77092 0.0
C2015 C 0.90634 0.75708 0.76264 0.0
H2016 H 0.15687 0.07711 0.92056 0.0
H2017 H 0.08136 0.06081 0.86758 0.0
H2018 H 0.05637 0.053 0.90521 0.0
H2019 H 0.056 0.05189 0.95345 0.0
H2020 H 0.13187 0.06835 1.00596 0.0
H2021 H 0.15651 0.0748 0.96812 0.0
C2022 C 0.13492 0.07182 0.91704 0.0
C2023 C 0.12114 0.0697 0.89098 0.0
C2024 C 0.12067 0.06733 0.93878 0.0
C2025 C 0.09264 0.06266 0.8872 0.0
C2026 C 0.07831 0.05819 0.9088 0.0
C2027 C 0.07793 0.05671 0.95668 0.0
C2028 C 0.09195 0.05961 0.98277 0.0
C2029 C 0.09211 0.06059 0.93472 0.0
C2030 C 0.12041 0.06595 0.9863 0.0
C2031 C 0.13457 0.06972 0.96461 0.0
H2032 H 0.78347 0.35652 0.56307 0.0
H2033 H 0.82762 0.43262 0.6122 0.0
H2034 H 0.83965 0.40903 0.64788 0.0
H2035 H 0.84073 0.36686 0.66364 0.0
H2036 H 0.79685 0.29063 0.61507 0.0
H2037 H 0.78159 0.31421 0.5804 0.0
C2038 C 0.79534 0.36797 0.58175 0.0
C2039 C 0.80484 0.39627 0.58491 0.0
C2040 C 0.8026 0.35425 0.602 0.0
C2041 C 0.82014 0.41082 0.60924 0.0
C2042 C 0.82718 0.39736 0.62958 0.0
C2043 C 0.82794 0.35547 0.64535 0.0
C2044 C 0.82038 0.32717 0.64143 0.0
C2045 C 0.81915 0.3691 0.62586 0.0
C2046 C 0.80314 0.31248 0.61818 0.0
C2047 C 0.79441 0.32593 0.59849 0.0
H2048 H 0.42878 0.04256 0.43401 0.0
H2049 H 0.47464 0.10854 0.39962 0.0
H2050 H 0.5127 0.11668 0.4353 0.0
H2051 H 0.53479 0.10187 0.47345 0.0
H2052 H 0.49097 0.03239 0.50398 0.0
H2053 H 0.45034 0.02846 0.47257 0.0
C2054 C 0.44696 0.05886 0.4344 0.0
C2055 C 0.44901 0.07457 0.4139 0.0
C2056 C 0.46925 0.0626 0.45421 0.0
C2057 C 0.47265 0.09592 0.41501 0.0
C2058 C 0.49449 0.10051 0.43531 0.0
C2059 C 0.51618 0.08609 0.47327 0.0
C2060 C 0.51526 0.06805 0.49151 0.0
C2061 C 0.49335 0.0834 0.45447 0.0
C2062 C 0.49144 0.04733 0.49099 0.0
C2063 C 0.46842 0.04485 0.47277 0.0
H2064 H 0.76028 0.7319 0.12181 0.0
H2065 H 0.83673 0.78605 0.11323 0.0
H2066 H 0.8437 0.80551 0.16069 0.0
H2067 H 0.82842 0.80627 0.20521 0.0
H2068 H 0.74983 0.75499 0.2123 0.0
H2069 H 0.74323 0.73549 0.16507 0.0
C2070 C 0.77843 0.74806 0.13031 0.0
C2071 C 0.7981 0.75732 0.11395 0.0
C2072 C 0.78187 0.7597 0.15745 0.0
C2073 C 0.82128 0.77854 0.12525 0.0
C2074 C 0.82528 0.78962 0.15246 0.0
C2075 C 0.80977 0.79093 0.19637 0.0
C2076 C 0.78969 0.78202 0.21249 0.0
C2077 C 0.80579 0.78025 0.16885 0.0
C2078 C 0.76557 0.76233 0.20051 0.0
C2079 C 0.76184 0.75108 0.17346 0.0
H2080 H 0.13132 0.09965 0.72617 0.0
H2081 H 0.07772 0.02318 0.73459 0.0
H2082 H 0.05838 0.01573 0.68726 0.0
H2083 H 0.05734 0.03073 0.64305 0.0
H2084 H 0.10803 0.1092 0.636 0.0
H2085 H 0.12763 0.11623 0.68307 0.0
C2086 C 0.11539 0.08134 0.71761 0.0
C2087 C 0.1062 0.06182 0.73383 0.0
C2088 C 0.10376 0.07764 0.69059 0.0
C2089 C 0.0852 0.03847 0.72257 0.0
C2090 C 0.07417 0.03421 0.69548 0.0
C2091 C 0.07257 0.04944 0.65187 0.0
C2092 C 0.08128 0.06938 0.63588 0.0
C2093 C 0.08335 0.05362 0.67923 0.0
C2094 C 0.10083 0.09359 0.64777 0.0
C2095 C 0.11216 0.09756 0.6747 0.0
H2096 H 0.81739 0.42942 0.41843 0.0
H2097 H 0.75345 0.37835 0.45158 0.0
H2098 H 0.74832 0.34159 0.41492 0.0
H2099 H 0.76619 0.32224 0.37681 0.0
H2100 H 0.83509 0.37136 0.34883 0.0
H2101 H 0.83442 0.41068 0.37999 0.0
C2102 C 0.80209 0.41045 0.41745 0.0
C2103 C 0.7861 0.4065 0.43784 0.0
C2104 C 0.80041 0.38897 0.3973 0.0
C2105 C 0.76614 0.38177 0.43614 0.0
C2106 C 0.76335 0.36069 0.41534 0.0
C2107 C 0.7808 0.34169 0.37748 0.0
C2108 C 0.79989 0.34452 0.35987 0.0
C2109 C 0.7811 0.36374 0.39642 0.0
C2110 C 0.81915 0.36944 0.36106 0.0
C2111 C 0.81908 0.3917 0.37923 0.0
H2112 H 0.40647 0.05349 0.24073 0.0
H2113 H 0.48006 0.11062 0.28354 0.0
H2114 H 0.5033 0.10423 0.24522 0.0
H2115 H 0.50477 0.07602 0.20331 0.0
H2116 H 0.43185 0.01651 0.16243 0.0
H2117 H 0.40624 0.0302 0.19623 0.0
C2118 C 0.4274 0.0651 0.24147 0.0
C2119 C 0.44173 0.08199 0.26514 0.0
C2120 C 0.44092 0.06036 0.21994 0.0
C2121 C 0.46868 0.09723 0.26563 0.0
C2122 C 0.48207 0.09337 0.24383 0.0
C2123 C 0.48323 0.06624 0.20179 0.0
C2124 C 0.47028 0.04491 0.18086 0.0
C2125 C 0.46878 0.07386 0.22155 0.0
C2126 C 0.44224 0.03286 0.17853 0.0
C2127 C 0.42762 0.04063 0.19785 0.0
H2128 H 0.81774 0.76837 0.97013 0.0
H2129 H 0.76084 0.69358 0.92946 0.0
H2130 H 0.76422 0.709 0.88713 0.0
H2131 H 0.78326 0.74288 0.86033 0.0
H2132 H 0.84197 0.81722 0.89855 0.0
H2133 H 0.83821 0.80278 0.94219 0.0
C2134 C 0.80591 0.75558 0.95207 0.0
C2135 C 0.78872 0.7298 0.95364 0.0
C2136 C 0.80847 0.76435 0.92685 0.0
C2137 C 0.77403 0.71355 0.92955 0.0
C2138 C 0.77601 0.72229 0.90496 0.0
C2139 C 0.79536 0.756 0.87814 0.0
C2140 C 0.81289 0.78117 0.87584 0.0
C2141 C 0.79322 0.74752 0.90323 0.0
C2142 C 0.82839 0.79764 0.89942 0.0
C2143 C 0.82613 0.78943 0.92455 0.0
H2144 H 0.82162 0.10434 1.00427 0.0
H2145 H 0.87563 0.15012 0.07515 0.0
H2146 H 0.90793 0.12448 0.06639 0.0
H2147 H 0.91809 0.08591 0.04131 0.0
H2148 H 0.86255 0.03874 0.97207 0.0
H2149 H 0.83321 0.06822 0.97755 0.0
C2150 C 0.84057 0.10894 0.01774 0.0
C2151 C 0.84606 0.12874 0.0406 0.0
C2152 C 0.85843 0.09365 1.01307 0.0
C2153 C 0.87094 0.1349 0.05748 0.0
C2154 C 0.88925 0.1201 0.05261 0.0
C2155 C 0.89947 0.08207 0.02752 0.0
C2156 C 0.89202 0.05994 1.00667 0.0
C2157 C 0.88271 0.09885 0.03099 0.0
C2158 C 0.86843 0.05557 0.98836 0.0
C2159 C 0.85173 0.07236 0.99151 0.0
H2160 H 0.39221 0.4701 0.08674 0.0
H2161 H 0.41056 0.39989 0.04882 0.0
H2162 H 0.45677 0.42705 0.04714 0.0
H2163 H 0.48942 0.47138 0.05118 0.0
H2164 H 0.47129 0.54229 0.08839 0.0
H2165 H 0.42754 0.51413 0.09601 0.0
C2166 C 0.40649 0.46085 0.07825 0.0
C2167 C 0.3979 0.43342 0.06679 0.0
C2168 C 0.43287 0.47668 0.07716 0.0
C2169 C 0.41669 0.42116 0.05706 0.0
C2170 C 0.44301 0.43669 0.05606 0.0
C2171 C 0.47603 0.48084 0.06104 0.0
C2172 C 0.4834 0.50911 0.06853 0.0
C2173 C 0.45091 0.46463 0.06507 0.0
C2174 C 0.46598 0.5207 0.08196 0.0
C2175 C 0.441 0.50458 0.08641 0.0
H2176 H 0.43769 0.61226 0.84692 0.0
H2177 H 0.44262 0.61027 0.76317 0.0
H2178 H 0.42153 0.64719 0.76241 0.0
H2179 H 0.39566 0.67526 0.7845 0.0
H2180 H 0.39 0.67515 0.86814 0.0
H2181 H 0.41743 0.64397 0.87005 0.0
C2182 C 0.43492 0.62053 0.82869 0.0
C2183 C 0.44164 0.60866 0.80515 0.0
C2184 C 0.4221 0.641 0.82829 0.0
C2185 C 0.43792 0.61938 0.78162 0.0
C2186 C 0.42546 0.64017 0.78111 0.0
C2187 C 0.40067 0.66855 0.80315 0.0
C2188 C 0.39059 0.6774 0.8261 0.0
C2189 C 0.41642 0.65033 0.80411 0.0
C2190 C 0.39758 0.66884 0.85023 0.0
C2191 C 0.4132 0.6509 0.85134 0.0
H2192 H 0.23146 0.63718 0.58229 0.0
H2193 H 0.21671 0.70577 0.55117 0.0
H2194 H 0.16749 0.68491 0.54664 0.0
H2195 H 0.12942 0.64438 0.5464 0.0
H2196 H 0.1457 0.57595 0.57742 0.0
H2197 H 0.19376 0.59968 0.58741 0.0
C2198 C 0.21736 0.64759 0.57474 0.0
C2199 C 0.22715 0.67223 0.56602 0.0
C2200 C 0.18955 0.63548 0.57213 0.0
C2201 C 0.20918 0.68635 0.55734 0.0
C2202 C 0.18121 0.67442 0.55474 0.0
C2203 C 0.14347 0.63483 0.55562 0.0
C2204 C 0.13414 0.60825 0.56059 0.0
C2205 C 0.17122 0.64852 0.56116 0.0
C2206 C 0.15246 0.59621 0.5729 0.0
C2207 C 0.17993 0.60979 0.57878 0.0
H2208 H 0.79169 0.05448 0.80504 0.0
H2209 H 0.71718 0.99151 0.77488 0.0
H2210 H 0.73877 0.9578 0.78842 0.0
H2211 H 0.7782 0.94691 0.81052 0.0
H2212 H 0.8517 1.0106 0.84202 0.0
H2213 H 0.83083 0.04373 0.82612 0.0
C2214 C 0.78001 0.03339 0.80138 0.0
C2215 C 0.75273 0.02551 0.78929 0.0
C2216 C 0.79229 1.01443 0.80959 0.0
C2217 C 0.73818 0.99806 0.78422 0.0
C2218 C 0.75046 0.97886 0.79208 0.0
C2219 C 0.7895 0.96811 0.81419 0.0
C2220 C 0.81628 0.97648 0.82772 0.0
C2221 C 0.77735 0.98694 0.80517 0.0
C2222 C 0.83105 1.0038 0.83168 0.0
C2223 C 0.81914 0.02267 0.82264 0.0
H2224 H 0.77199 0.9576 0.58852 0.0
H2225 H 0.73555 0.90386 0.51495 0.0
H2226 H 0.69916 0.92574 0.51014 0.0
H2227 H 0.68172 0.96448 0.52373 0.0
H2228 H 0.72059 0.01991 0.59602 0.0
H2229 H 0.75217 0.99346 0.6043 0.0
C2230 C 0.75559 0.9502 0.57188 0.0
C2231 C 0.75611 0.92888 0.55235 0.0
C2232 C 0.7356 0.96375 0.56866 0.0
C2233 C 0.73512 0.91978 0.53057 0.0
C2234 C 0.71459 0.9326 0.52763 0.0
C2235 C 0.69678 0.97048 0.54154 0.0
C2236 C 0.69899 0.99444 0.55902 0.0
C2237 C 0.71519 0.95526 0.54605 0.0
C2238 C 0.71876 1.00194 0.58194 0.0
C2239 C 0.73675 0.98671 0.58679 0.0
H2240 H 0.44545 0.45062 0.80461 0.0
H2241 H 0.38912 0.47686 0.75371 0.0
H2242 H 0.3541 0.43411 0.7521 0.0
H2243 H 0.33818 0.39107 0.76942 0.0
H2244 H 0.39493 0.36743 0.82313 0.0
H2245 H 0.43055 0.40717 0.8198 0.0
C2246 C 0.42559 0.4467 0.79292 0.0
C2247 C 0.41944 0.46684 0.77993 0.0
C2248 C 0.40537 0.42263 0.79298 0.0
C2249 C 0.39391 0.46165 0.76441 0.0
C2250 C 0.37393 0.43726 0.7635 0.0
C2251 C 0.35831 0.39465 0.78036 0.0
C2252 C 0.36357 0.37622 0.79663 0.0
C2253 C 0.37909 0.41795 0.77856 0.0
C2254 C 0.38999 0.38116 0.81049 0.0
C2255 C 0.41062 0.4039 0.80853 0.0
H2256 H 0.19341 0.6566 0.28457 0.0
H2257 H 0.25225 0.62454 0.24912 0.0
H2258 H 0.2791 0.66995 0.2457 0.0
H2259 H 0.28939 0.71833 0.2597 0.0
H2260 H 0.23296 0.7511 0.29917 0.0
H2261 H 0.20148 0.70593 0.29413 0.0
C2262 C 0.21186 0.65977 0.27569 0.0
C2263 C 0.22157 0.63785 0.26787 0.0
C2264 C 0.22771 0.68596 0.27488 0.0
C2265 C 0.24506 0.64157 0.25588 0.0
C2266 C 0.2603 0.66741 0.25389 0.0
C2267 C 0.27009 0.71567 0.26698 0.0
C2268 C 0.26377 0.73783 0.28037 0.0
C2269 C 0.25249 0.68975 0.26454 0.0
C2270 C 0.23845 0.73419 0.28915 0.0
C2271 C 0.22041 0.70841 0.28622 0.0
H2272 H 0.5489 0.73249 0.52658 0.0
H2273 H 0.48943 0.68869 0.45894 0.0
H2274 H 0.49366 0.64593 0.47132 0.0
H2275 H 0.51483 0.61969 0.50123 0.0
H2276 H 0.577 0.66394 0.56663 0.0
H2277 H 0.57109 0.70644 0.55545 0.0
C2278 C 0.53671 0.71366 0.51449 0.0
C2279 C 0.51856 0.71457 0.49167 0.0
C2280 C 0.53979 0.68855 0.52145 0.0
C2281 C 0.50351 0.68935 0.4765 0.0
C2282 C 0.50594 0.66457 0.48367 0.0
C2283 C 0.52704 0.63856 0.51322 0.0
C2284 C 0.54636 0.6378 0.53519 0.0
C2285 C 0.52406 0.66368 0.5061 0.0
C2286 C 0.56198 0.66311 0.54978 0.0
C2287 C 0.55858 0.68777 0.54332 0.0
H2288 H 0.69519 0.32996 0.65718 0.0
H2289 H 0.65379 0.36097 0.71698 0.0
H2290 H 0.68899 0.35956 0.75202 0.0
H2291 H 0.7304 0.34694 0.76672 0.0
H2292 H 0.77335 0.31777 0.70747 0.0
H2293 H 0.73931 0.32116 0.67192 0.0
C2294 C 0.69409 0.33689 0.67782 0.0
C2295 C 0.67144 0.34554 0.68406 0.0
C2296 C 0.71478 0.33608 0.69835 0.0
C2297 C 0.67067 0.35421 0.71118 0.0
C2298 C 0.69088 0.3533 0.73146 0.0
C2299 C 0.73249 0.34148 0.74605 0.0
C2300 C 0.75464 0.3319 0.74012 0.0
C2301 C 0.71282 0.34381 0.72543 0.0
C2302 C 0.75676 0.32521 0.71297 0.0
C2303 C 0.73712 0.32709 0.69247 0.0
H2304 H 0.99982 0.3956 0.96837 0.0
H2305 H 0.05444 0.37369 0.02542 0.0
H2306 H 0.06836 0.42026 0.0498 0.0
H2307 H 0.06596 0.46859 0.0542 0.0
H2308 H 1.00723 0.48737 0.99884 0.0
H2309 H 0.99414 0.44117 0.97493 0.0
C2310 C 1.01446 0.40058 0.98637 0.0
C2311 C 0.0258 0.3804 0.99478 0.0
C2312 C 1.0219 0.42738 1.00067 0.0
C2313 C 0.04494 0.38817 0.0183 0.0
C2314 C 0.05309 0.41508 0.03222 0.0
C2315 C 0.05025 0.46256 0.03693 0.0
C2316 C 0.03785 0.48208 0.02837 0.0
C2317 C 0.04192 0.4351 0.0235 0.0
C2318 C 1.01724 0.4733 1.0061 0.0
C2319 C 1.00971 0.44668 0.99229 0.0
H2320 H 0.99434 0.79292 0.13661 0.0
H2321 H 0.05801 0.84467 0.19733 0.0
H2322 H 0.02692 0.8403 0.22992 0.0
H2323 H 0.98189 0.82133 0.24194 0.0
H2324 H 0.9181 0.76893 0.18193 0.0
H2325 H 0.94875 0.77428 0.14866 0.0
C2326 C 1.00139 0.80343 0.1569 0.0
C2327 C 0.02869 0.81908 0.16428 0.0
C2328 C 0.98331 0.80069 0.1759 0.0
C2329 C 0.03727 0.83237 0.19086 0.0
C2330 C 1.01946 0.82989 0.20966 0.0
C2331 C 0.97468 0.81087 0.22165 0.0
C2332 C 0.94758 0.7947 0.21466 0.0
C2333 C 0.9925 0.81392 0.20253 0.0
C2334 C 0.93868 0.78177 0.18801 0.0
C2335 C 0.95628 0.78471 0.1689 0.0
H2336 H 0.57677 0.33253 0.17439 0.0
H2337 H 0.49166 0.32666 0.16838 0.0
H2338 H 0.49812 0.36478 0.14408 0.0
H2339 H 0.52689 0.39688 0.12066 0.0
H2340 H 0.61192 0.40229 0.12515 0.0
H2341 H 0.6065 0.36727 0.15336 0.0
C2342 C 0.55985 0.34014 0.16838 0.0
C2343 C 0.53381 0.32695 0.17347 0.0
C2344 C 0.56355 0.36163 0.15351 0.0
C2345 C 0.51192 0.33658 0.16491 0.0
C2346 C 0.51557 0.35828 0.15082 0.0
C2347 C 0.54439 0.3908 0.12814 0.0
C2348 C 0.56974 0.40223 0.12044 0.0
C2349 C 0.54114 0.37053 0.14438 0.0
C2350 C 0.59201 0.3936 0.13019 0.0
C2351 C 0.58899 0.37365 0.14656 0.0
H2352 H 0.98596 0.36597 0.38167 0.0
H2353 H 1.00328 0.31311 0.31864 0.0
H2354 H 0.95652 0.30273 0.29587 0.0
H2355 H 0.9091 0.30674 0.29483 0.0
H2356 H 0.89288 0.36177 0.3567 0.0
H2357 H 0.94003 0.37313 0.37856 0.0
C2358 C 0.97965 0.3525 0.36273 0.0
C2359 C 0.99872 0.34085 0.35176 0.0
C2360 C 0.95247 0.34677 0.34949 0.0
C2361 C 0.98963 0.32302 0.32737 0.0
C2362 C 0.96263 0.31685 0.3144 0.0
C2363 C 0.91595 0.32143 0.31296 0.0
C2364 C 0.89706 0.33332 0.32403 0.0
C2365 C 0.94363 0.32834 0.32535 0.0
C2366 C 0.90666 0.35232 0.34757 0.0
C2367 C 0.93376 0.35879 0.36018 0.0
H2368 H 1.01401 0.70223 0.64359 0.0
H2369 H 0.05138 0.67632 0.71111 0.0
H2370 H 0.0565 0.63761 0.68167 0.0
H2371 H 0.05298 0.61224 0.63571 0.0
H2372 H 1.01514 0.63911 0.5689 0.0
H2373 H 1.00783 0.67571 0.59881 0.0
C2374 C 1.02292 0.68795 0.65207 0.0
C2375 C 0.03217 0.69249 0.67984 0.0
C2376 C 0.02611 0.66576 0.63487 0.0
C2377 C 0.04381 0.67354 0.69003 0.0
C2378 C 0.04695 0.65137 0.67306 0.0
C2379 C 0.04302 0.626 0.62766 0.0
C2380 C 0.03487 0.6226 0.59967 0.0
C2381 C 0.03864 0.64745 0.64528 0.0
C2382 C 1.0218 0.64082 0.59006 0.0
C2383 C 1.01756 0.66199 0.60727 0.0
H2384 H 0.64043 0.81215 0.84479 0.0
H2385 H 0.6695 0.8988 0.86051 0.0
H2386 H 0.71379 0.89692 0.84883 0.0
H2387 H 0.74542 0.87053 0.83317 0.0
H2388 H 0.71385 0.78407 0.81294 0.0
H2389 H 0.67084 0.78616 0.82698 0.0
C2390 C 0.65647 0.8307 0.84598 0.0
C2391 C 0.65108 0.85569 0.85434 0.0
C2392 C 0.6821 0.82953 0.83806 0.0
C2393 C 0.6725 0.87923 0.85469 0.0
C2394 C 0.69812 0.87814 0.84784 0.0
C2395 C 0.72921 0.85207 0.83177 0.0
C2396 C 0.7338 0.82699 0.82175 0.0
C2397 C 0.70339 0.85341 0.83934 0.0
C2398 C 0.71171 0.8037 0.8202 0.0
C2399 C 0.68675 0.80486 0.82842 0.0
H2400 H 0.52821 0.57591 0.72657 0.0
H2401 H 0.4506 0.51977 0.69292 0.0
H2402 H 0.46171 0.52253 0.64803 0.0
H2403 H 0.49381 0.54007 0.61771 0.0
H2404 H 0.57046 0.59819 0.65092 0.0
H2405 H 0.55934 0.59565 0.69588 0.0
C2406 C 0.51374 0.5643 0.70942 0.0
C2407 C 0.4886 0.54751 0.71339 0.0
C2408 C 0.52005 0.5664 0.68326 0.0
C2409 C 0.47007 0.53289 0.69071 0.0
C2410 C 0.47642 0.53442 0.66488 0.0
C2411 C 0.50802 0.55236 0.63474 0.0
C2412 C 0.53301 0.5693 0.6306 0.0
C2413 C 0.50138 0.55103 0.66082 0.0
C2414 C 0.55101 0.58507 0.65317 0.0
C2415 C 0.54472 0.58353 0.67907 0.0
H2416 H 0.79208 0.23391 0.02864 0.0
H2417 H 0.75541 0.16183 0.9705 0.0
H2418 H 0.74684 0.18916 0.9371 0.0
H2419 H 0.7509 0.2333 0.92402 0.0
H2420 H 0.78837 0.30559 0.98128 0.0
H2421 H 0.79473 0.27827 0.0158 0.0
C2422 C 0.78239 0.22416 1.00862 0.0
C2423 C 0.77472 0.19587 1.00202 0.0
C2424 C 0.77733 0.23997 0.98952 0.0
C2425 C 0.76173 0.18357 0.9761 0.0
C2426 C 0.75671 0.19916 0.95699 0.0
C2427 C 0.76039 0.24305 0.9441 0.0
C2428 C 0.7694 0.27132 0.95014 0.0
C2429 C 0.76454 0.22732 0.96347 0.0
C2430 C 0.78115 0.28381 0.97629 0.0
C2431 C 0.78505 0.26822 0.99589 0.0
H2432 H 0.11668 0.52242 0.21823 0.0
H2433 H 0.19195 0.53892 0.18594 0.0
H2434 H 0.16779 0.54012 0.14252 0.0
H2435 H 0.12722 0.54505 0.11678 0.0
H2436 H 0.05233 0.53135 0.14955 0.0
H2437 H 0.07445 0.52047 0.18993 0.0
C2438 C 0.12771 0.52547 0.2015 0.0
C2439 C 0.15616 0.53113 0.20541 0.0
C2440 C 0.11388 0.52738 0.17697 0.0
C2441 C 0.17011 0.5348 0.1835 0.0
C2442 C 0.15634 0.53576 0.15875 0.0
C2443 C 0.11566 0.53946 0.13269 0.0
C2444 C 0.08845 0.53975 0.13067 0.0
C2445 C 0.12855 0.5336 0.15577 0.0
C2446 C 0.07343 0.53163 0.15093 0.0
C2447 C 0.08608 0.52544 0.17396 0.0
H2448 H 0.83174 0.90634 0.45886 0.0
H2449 H 0.80668 0.83155 0.48948 0.0
H2450 H 0.80535 0.80637 0.44501 0.0
H2451 H 0.81007 0.80584 0.39626 0.0
H2452 H 0.83538 0.88193 0.36806 0.0
H2453 H 0.83842 0.90613 0.41273 0.0
C2454 C 0.82595 0.88449 0.45614 0.0
C2455 C 0.8191 0.87106 0.4779 0.0
C2456 C 0.82561 0.87026 0.43072 0.0
C2457 C 0.81189 0.84265 0.47335 0.0
C2458 C 0.81124 0.8282 0.44783 0.0
C2459 C 0.81684 0.82769 0.40012 0.0
C2460 C 0.82282 0.84204 0.37871 0.0
C2461 C 0.81804 0.84178 0.42622 0.0
C2462 C 0.83088 0.87037 0.38404 0.0
C2463 C 0.83245 0.88427 0.40962 0.0
H2464 H 0.45968 0.52556 0.89081 0.0
H2465 H 0.53324 0.55155 0.85702 0.0
H2466 H 0.56003 0.55358 0.90061 0.0
H2467 H 0.56218 0.54987 0.94969 0.0
H2468 H 0.48701 0.52381 0.98083 0.0
H2469 H 0.46142 0.5194 0.93685 0.0
C2470 C 0.48159 0.53158 0.89257 0.0
C2471 C 0.49421 0.53855 0.87025 0.0
C2472 C 0.4967 0.53249 0.91746 0.0
C2473 C 0.52275 0.54614 0.8736 0.0
C2474 C 0.53811 0.54727 0.89863 0.0
C2475 C 0.54024 0.54269 0.94661 0.0
C2476 C 0.52654 0.53697 0.96866 0.0
C2477 C 0.52531 0.54065 0.92089 0.0
C2478 C 0.49807 0.52822 0.96435 0.0
C2479 C 0.48337 0.52583 0.93916 0.0
H2480 H 0.84309 0.25286 0.13289 0.0
H2481 H 0.83849 0.1803 0.16675 0.0
H2482 H 0.84151 0.20528 0.21133 0.0
H2483 H 0.83724 0.2454 0.23881 0.0
H2484 H 0.83655 0.3164 0.2038 0.0
H2485 H 0.84411 0.29446 0.16152 0.0
C2486 C 0.8436 0.24267 0.15011 0.0
C2487 C 0.84028 0.21474 0.14657 0.0
C2488 C 0.84372 0.25676 0.17535 0.0
C2489 C 0.84089 0.20179 0.16902 0.0
C2490 C 0.84235 0.216 0.19444 0.0
C2491 C 0.83882 0.25615 0.22203 0.0
C2492 C 0.83544 0.28218 0.22435 0.0
C2493 C 0.84231 0.24311 0.19757 0.0
C2494 C 0.83852 0.29614 0.20254 0.0
C2495 C 0.84287 0.28361 0.17831 0.0
H2496 H 0.13124 0.56384 0.32302 0.0
H2497 H 0.19685 0.61761 0.38067 0.0
H2498 H 0.16429 0.62688 0.40887 0.0
H2499 H 0.11732 0.62043 0.4166 0.0
H2500 H 0.05186 0.56631 0.35952 0.0
H2501 H 0.08447 0.55667 0.33118 0.0
C2502 C 0.13854 0.5775 0.34181 0.0
C2503 C 0.16649 0.59011 0.34963 0.0
C2504 C 0.11977 0.58297 0.35772 0.0
C2505 C 0.17548 0.60761 0.37414 0.0
C2506 C 0.15688 0.61306 0.3902 0.0
C2507 C 0.11022 0.60691 0.39769 0.0
C2508 C 0.08235 0.59452 0.38968 0.0
C2509 C 0.12901 0.60113 0.38198 0.0
C2510 C 0.07328 0.57631 0.36571 0.0
C2511 C 0.09188 0.57072 0.34969 0.0
H2512 H 0.8232 0.90216 0.65862 0.0
H2513 H 0.79185 0.82266 0.61179 0.0
H2514 H 0.78583 0.80301 0.65244 0.0
H2515 H 0.79073 0.80788 0.70171 0.0
H2516 H 0.8219 0.88741 0.74865 0.0
H2517 H 0.82644 0.9072 0.70795 0.0
C2518 C 0.81491 0.88054 0.65724 0.0
C2519 C 0.80808 0.86403 0.63184 0.0
C2520 C 0.81144 0.8692 0.68094 0.0
C2521 C 0.79735 0.83602 0.63079 0.0
C2522 C 0.7939 0.82469 0.65417 0.0
C2523 C 0.79831 0.82958 0.70314 0.0
C2524 C 0.80592 0.84595 0.72863 0.0
C2525 C 0.80103 0.841 0.67943 0.0
C2526 C 0.81578 0.87408 0.72963 0.0
C2527 C 0.81849 0.88551 0.70621 0.0
H2528 H 0.75294 0.46674 0.56569 0.0
H2529 H 0.73156 0.48136 0.48607 0.0
H2530 H 0.70518 0.51055 0.50296 0.0
H2531 H 0.69365 0.53649 0.54087 0.0
H2532 H 0.71749 0.52455 0.62094 0.0
H2533 H 0.73766 0.48967 0.60345 0.0
C2534 C 0.74166 0.47555 0.55196 0.0
C2535 C 0.74396 0.47191 0.5247 0.0
C2536 C 0.72777 0.49337 0.56201 0.0
C2537 C 0.72984 0.48385 0.50711 0.0
C2538 C 0.71508 0.50076 0.5168 0.0
C2539 C 0.70339 0.5263 0.55447 0.0
C2540 C 0.70482 0.53344 0.58212 0.0
C2541 C 0.71495 0.50655 0.54431 0.0
C2542 C 0.71657 0.51954 0.59957 0.0
C2543 C 0.72798 0.49961 0.58958 0.0
H2544 H 0.22568 0.15501 0.54691 0.0
H2545 H 0.18666 0.20157 0.50084 0.0
H2546 H 0.14217 0.16957 0.5014 0.0
H2547 H 0.1147 0.12833 0.51549 0.0
H2548 H 0.15508 0.08202 0.56113 0.0
H2549 H 0.1988 0.11379 0.55994 0.0
C2550 C 0.20742 0.15791 0.53667 0.0
C2551 C 0.20932 0.18003 0.52316 0.0
C2552 C 0.18224 0.1395 0.53706 0.0
C2553 C 0.18557 0.18432 0.51092 0.0
C2554 C 0.16024 0.16603 0.51124 0.0
C2555 C 0.13307 0.12506 0.52501 0.0
C2556 C 0.13148 0.10274 0.53843 0.0
C2557 C 0.15835 0.14348 0.52423 0.0
C2558 C 0.15557 0.09891 0.55063 0.0
C2559 C 0.18063 0.11716 0.55009 0.0
H2560 H 0.17824 1.01224 0.77443 0.0
H2561 H 0.17732 1.00639 0.85766 0.0
H2562 H 0.20002 0.9709 0.85353 0.0
H2563 H 0.22587 0.9465 0.82798 0.0
H2564 H 0.22997 0.95454 0.74548 0.0
H2565 H 0.20004 0.9837 0.74735 0.0
C2566 C 0.18218 1.00243 0.79133 0.0
C2567 C 0.17597 1.01161 0.81625 0.0
C2568 C 0.19632 0.98281 0.78905 0.0
C2569 C 0.18176 0.99937 0.83826 0.0
C2570 C 0.19495 0.97929 0.83595 0.0
C2571 C 0.22004 0.95448 0.81035 0.0
C2572 C 0.23049 0.9487 0.78677 0.0
C2573 C 0.20333 0.97168 0.81174 0.0
C2574 C 0.22223 0.95867 0.76391 0.0
C2575 C 0.20522 0.97549 0.76501 0.0
H2576 H 0.38545 0.95346 0.99202 0.0
H2577 H 0.36639 1.00859 0.05179 0.0
H2578 H 0.41271 0.03823 0.05805 0.0
H2579 H 0.45901 0.04768 0.04738 0.0
H2580 H 0.47932 0.99068 0.99063 0.0
H2581 H 0.43198 0.96289 0.98142 0.0
C2582 C 0.3916 0.97204 1.00626 0.0
C2583 C 0.37269 0.97952 0.02077 0.0
C2584 C 0.41826 0.98878 1.00989 0.0
C2585 C 0.38068 1.00311 0.0398 0.0
C2586 C 0.40708 0.01996 0.04345 0.0
C2587 C 0.45277 0.0295 0.03258 0.0
C2588 C 0.47205 0.02126 0.01925 0.0
C2589 C 0.42599 1.01307 0.02848 0.0
C2590 C 0.46436 0.99734 1.00072 0.0
C2591 C 0.43748 0.9814 0.99569 0.0
H2592 H 0.83674 0.57752 0.82704 0.0
H2593 H 0.91297 0.63399 0.82069 0.0
H2594 H 0.88878 0.66339 0.80197 0.0
H2595 H 0.84615 0.67348 0.78866 0.0
H2596 H 0.76994 0.61679 0.79378 0.0
H2597 H 0.79401 0.58628 0.81105 0.0
C2598 C 0.84811 0.59626 0.82162 0.0
C2599 C 0.87662 0.60371 0.82545 0.0
C2600 C 0.83409 0.61268 0.81032 0.0
C2601 C 0.89102 0.62791 0.81803 0.0
C2602 C 0.87723 0.64465 0.80725 0.0
C2603 C 0.83491 0.65423 0.79327 0.0
C2604 C 0.80651 0.64718 0.79017 0.0
C2605 C 0.84882 0.63722 0.80338 0.0
C2606 C 0.79187 0.62232 0.79594 0.0
C2607 C 0.80561 0.60513 0.80602 0.0
H2608 H 0.84592 0.68103 0.07835 0.0
H2609 H 0.86396 0.68745 0.9988 0.0
H2610 H 0.90095 0.66705 1.00697 0.0
H2611 H 0.92447 0.64268 0.03488 0.0
H2612 H 0.90316 0.63214 0.11294 0.0
H2613 H 0.87163 0.65911 0.10748 0.0
C2614 C 0.85863 0.67876 0.06321 0.0
C2615 C 0.85274 0.68619 0.03822 0.0
C2616 C 0.87897 0.6658 0.06765 0.0
C2617 C 0.86857 0.68231 0.01833 0.0
C2618 C 0.88949 0.67039 0.02292 0.0
C2619 C 0.91295 0.64626 0.05074 0.0
C2620 C 0.91612 0.63508 0.0742 0.0
C2621 C 0.89424 0.66121 0.04718 0.0
C2622 C 0.90142 0.64057 0.09474 0.0
C2623 C 0.88318 0.65589 0.09157 0.0
H2624 H 0.20546 0.13235 0.79691 0.0
H2625 H 0.15868 0.17064 0.84485 0.0
H2626 H 0.19022 0.2151 0.84398 0.0
H2627 H 0.23189 0.24256 0.83037 0.0
H2628 H 0.27852 0.20307 0.78284 0.0
H2629 H 0.24625 0.15947 0.78287 0.0
C2630 C 0.20232 0.15047 0.80732 0.0
C2631 C 0.18042 0.1484 0.82162 0.0
C2632 C 0.22048 0.17563 0.80677 0.0
C2633 C 0.17579 0.1719 0.83415 0.0
C2634 C 0.19382 0.1972 0.83367 0.0
C2635 C 0.23507 0.22442 0.82009 0.0
C2636 C 0.25774 0.22617 0.8067 0.0
C2637 C 0.21643 0.19926 0.82027 0.0
C2638 C 0.26141 0.20241 0.79342 0.0
C2639 C 0.24288 0.17743 0.7933 0.0
H2640 H 0.43053 0.97806 0.34311 0.0
H2641 H 0.36956 0.99477 0.28884 0.0
H2642 H 0.35049 0.94675 0.27142 0.0
H2643 H 0.34789 0.89997 0.27534 0.0
H2644 H 0.40393 0.88253 0.33445 0.0
H2645 H 0.42856 0.93064 0.34622 0.0
C2646 C 0.41325 0.97098 0.32734 0.0
C2647 C 0.40095 0.98943 0.31756 0.0
C2648 C 0.40167 0.94327 0.3183 0.0
C2649 C 0.37882 0.98053 0.29692 0.0
C2650 C 0.36802 0.9532 0.28691 0.0
C2651 C 0.36592 0.90679 0.29029 0.0
C2652 C 0.37451 0.88815 0.30383 0.0
C2653 C 0.3788 0.93436 0.29796 0.0
C2654 C 0.39731 0.89687 0.32373 0.0
C2655 C 0.41127 0.92426 0.33047 0.0
H2656 H 0.61188 0.42044 0.62246 0.0
H2657 H 0.55003 0.36967 0.55947 0.0
H2658 H 0.54139 0.40888 0.54406 0.0
H2659 H 0.5499 0.45846 0.5474 0.0
H2660 H 0.61174 0.51051 0.60917 0.0
H2661 H 0.62129 0.47119 0.62511 0.0
C2662 C 0.59654 0.41778 0.60534 0.0
C2663 C 0.58181 0.39096 0.59263 0.0
C2664 C 0.59132 0.44128 0.59587 0.0
C2665 C 0.56208 0.38916 0.5703 0.0
C2666 C 0.5569 0.41198 0.56116 0.0
C2667 C 0.56558 0.46143 0.56432 0.0
C2668 C 0.57987 0.48827 0.57675 0.0
C2669 C 0.57121 0.43827 0.57367 0.0
C2670 C 0.60008 0.49069 0.59877 0.0
C2671 C 0.60565 0.46788 0.6081 0.0
H2672 H 0.44779 0.76086 0.39303 0.0
H2673 H 0.42921 0.80765 0.46006 0.0
H2674 H 0.38977 0.81282 0.43195 0.0
H2675 H 0.364 0.80907 0.38636 0.0
H2676 H 0.38371 0.7622 0.31981 0.0
H2677 H 0.41834 0.75169 0.34943 0.0
C2678 C 0.4349 0.77192 0.40158 0.0
C2679 C 0.44212 0.78464 0.42848 0.0
C2680 C 0.41224 0.77488 0.38517 0.0
C2681 C 0.42456 0.79808 0.43936 0.0
C2682 C 0.40198 0.80112 0.42318 0.0
C2683 C 0.37555 0.79619 0.3784 0.0
C2684 C 0.37132 0.78691 0.35052 0.0
C2685 C 0.39614 0.79047 0.39573 0.0
C2686 C 0.38659 0.77009 0.3409 0.0
C2687 C 0.40648 0.76394 0.35793 0.0
H2688 H 0.07416 0.73965 0.14115 0.0
H2689 H 0.1106 0.76627 0.07402 0.0
H2690 H 0.10789 0.71946 0.05601 0.0
H2691 H 0.0955 0.66974 0.05958 0.0
H2692 H 0.05887 0.64459 0.12747 0.0
H2693 H 0.06147 0.69102 0.14445 0.0
C2694 C 0.08124 0.73526 0.12237 0.0
C2695 C 0.09169 0.75688 0.10863 0.0
C2696 C 0.07984 0.70804 0.1122 0.0
C2697 C 0.10145 0.75036 0.0847 0.0
C2698 C 0.1002 0.72338 0.07451 0.0
C2699 C 0.08829 0.67436 0.07821 0.0
C2700 C 0.07714 0.65287 0.09211 0.0
C2701 C 0.0895 0.70183 0.08808 0.0
C2702 C 0.06762 0.66 0.11605 0.0
C2703 C 0.06905 0.68686 0.12593 0.0
H2704 H 0.08751 0.34894 0.91853 0.0
H2705 H 0.08778 0.2731 0.94357 0.0
H2706 H 0.12765 0.27277 0.92155 0.0
H2707 H 0.16013 0.29257 0.89163 0.0
H2708 H 0.15696 0.36768 0.86596 0.0
H2709 H 0.12068 0.36962 0.89167 0.0
C2710 C 0.09645 0.33243 0.91956 0.0
C2711 C 0.08449 0.31101 0.93267 0.0
C2712 C 0.1188 0.33211 0.90637 0.0
C2713 C 0.09662 0.28998 0.93389 0.0
C2714 C 0.11925 0.28966 0.92099 0.0
C2715 C 0.15153 0.30938 0.8917 0.0
C2716 C 0.16164 0.33004 0.87678 0.0
C2717 C 0.13012 0.31032 0.90653 0.0
C2718 C 0.15022 0.35173 0.87745 0.0
C2719 C 0.12922 0.3528 0.89208 0.0
H2720 H 0.59283 0.80036 0.95849 0.0
H2721 H 0.5424 0.7512 0.88733 0.0
H2722 H 0.5336 0.71187 0.91029 0.0
H2723 H 0.53913 0.69169 0.95141 0.0
H2724 H 0.59019 0.74153 0.02199 0.0
H2725 H 0.59982 0.78011 0.99847 0.0
C2726 C 0.58005 0.78102 0.94787 0.0
C2727 C 0.56826 0.77886 0.92117 0.0
C2728 C 0.57507 0.75852 0.96121 0.0
C2729 C 0.55183 0.75352 0.90782 0.0
C2730 C 0.54669 0.73101 0.92101 0.0
C2731 C 0.55233 0.71101 0.96162 0.0
C2732 C 0.56393 0.71357 0.98852 0.0
C2733 C 0.55796 0.73331 0.94784 0.0
C2734 C 0.58122 0.73877 1.00129 0.0
C2735 C 0.58666 0.76095 0.98786 0.0
H2736 H 0.12599 0.76664 0.77866 0.0
H2737 H 0.13358 0.81123 0.71314 0.0
H2738 H 0.18304 0.82287 0.72318 0.0
H2739 H 0.22516 0.81995 0.75001 0.0
H2740 H 0.21778 0.77232 0.81335 0.0
H2741 H 0.16841 0.76279 0.80497 0.0
C2742 C 0.13845 0.77927 0.76683 0.0
C2743 C 0.12551 0.78883 0.74561 0.0
C2744 C 0.16745 0.78528 0.77224 0.0
C2745 C 0.1425 0.80411 0.72996 0.0
C2746 C 0.17103 0.81071 0.73565 0.0
C2747 C 0.21287 0.80741 0.76204 0.0
C2748 C 0.22597 0.7969 0.78239 0.0
C2749 C 0.18392 0.80136 0.75667 0.0
C2750 C 0.20896 0.78064 0.79742 0.0
C2751 C 0.18041 0.77518 0.79265 0.0
H2752 H 0.0761 0.45352 0.39652 0.0
H2753 H 0.09115 0.40373 0.45454 0.0
H2754 H 0.08793 0.43746 0.49036 0.0
H2755 H 0.0783 0.48024 0.50605 0.0
H2756 H 0.06466 0.53131 0.44903 0.0
H2757 H 0.06981 0.49848 0.41286 0.0
C2758 C 0.07911 0.45016 0.41698 0.0
C2759 C 0.08376 0.42554 0.42228 0.0
C2760 C 0.07715 0.47 0.43809 0.0
C2761 C 0.08744 0.42205 0.44929 0.0
C2762 C 0.0855 0.44146 0.47006 0.0
C2763 C 0.07655 0.48435 0.48576 0.0
C2764 C 0.07085 0.50848 0.48065 0.0
C2765 C 0.07987 0.46533 0.46479 0.0
C2766 C 0.06898 0.51314 0.45396 0.0
C2767 C 0.07192 0.49421 0.43307 0.0
H2768 H 0.42524 0.24306 0.21104 0.0
H2769 H 0.48707 0.29242 0.27435 0.0
H2770 H 0.45197 0.3059 0.29693 0.0
H2771 H 0.40264 0.30512 0.29809 0.0
H2772 H 0.34217 0.25398 0.23426 0.0
H2773 H 0.37726 0.24034 0.2132 0.0
C2774 C 0.43135 0.25666 0.22992 0.0
C2775 C 0.45951 0.26647 0.24062 0.0
C2776 C 0.41083 0.26438 0.24294 0.0
C2777 C 0.46605 0.28407 0.26531 0.0
C2778 C 0.44573 0.292 0.27826 0.0
C2779 C 0.397 0.2909 0.27963 0.0
C2780 C 0.36892 0.28091 0.26811 0.0
C2781 C 0.41787 0.28255 0.26722 0.0
C2782 C 0.36293 0.26235 0.24408 0.0
C2783 C 0.38326 0.2544 0.23179 0.0
H2784 H 0.66043 0.57299 0.41872 0.0
H2785 H 0.58481 0.5657 0.36932 0.0
H2786 H 0.56091 0.55816 0.40789 0.0
H2787 H 0.56189 0.55509 0.4565 0.0
H2788 H 0.63856 0.56318 0.50456 0.0
H2789 H 0.66136 0.56874 0.46564 0.0
C2790 C 0.63867 0.56973 0.41608 0.0
C2791 C 0.62462 0.5701 0.39078 0.0
C2792 C 0.62513 0.56547 0.43831 0.0
C2793 C 0.59635 0.56563 0.3883 0.0
C2794 C 0.58264 0.5613 0.41046 0.0
C2795 C 0.58354 0.55776 0.45841 0.0
C2796 C 0.59836 0.55865 0.48376 0.0
C2797 C 0.59685 0.56133 0.43568 0.0
C2798 C 0.62648 0.56242 0.48561 0.0
C2799 C 0.63963 0.56566 0.46326 0.0
H2800 H 0.29564 0.86431 0.05873 0.0
H2801 H 0.32153 0.93851 0.11504 0.0
H2802 H 0.33539 0.9145 0.1498 0.0
H2803 H 0.3421 0.87289 0.16333 0.0
H2804 H 0.31893 0.79954 0.10586 0.0
H2805 H 0.30193 0.82285 0.07227 0.0
C2806 C 0.30392 0.87519 0.07872 0.0
C2807 C 0.30747 0.9031 0.08439 0.0
C2808 C 0.31263 0.86149 0.09822 0.0
C2809 C 0.31854 0.91698 0.11026 0.0
C2810 C 0.3266 0.9033 0.13005 0.0
C2811 C 0.33367 0.86208 0.14335 0.0
C2812 C 0.332 0.83457 0.13702 0.0
C2813 C 0.32424 0.87567 0.12408 0.0
C2814 C 0.32035 0.82068 0.11125 0.0
C2815 C 0.31067 0.834 0.09205 0.0
H2816 H 0.99396 0.58521 0.90115 0.0
H2817 H 0.92543 0.59112 0.94014 0.0
H2818 H 0.95336 0.59834 0.98368 0.0
H2819 H 0.99445 0.59518 1.00977 0.0
H2820 H 0.06114 0.58398 0.9703 0.0
H2821 H 0.03663 0.58682 0.92758 0.0
C2822 C 0.98525 0.58879 0.91913 0.0
C2823 C 0.95758 0.58731 0.91746 0.0
C2824 C 1.00096 0.59148 0.94391 0.0
C2825 C 0.94663 0.59193 0.94096 0.0
C2826 C 0.96254 0.5959 0.96581 0.0
C2827 C 1.00389 0.59384 0.99192 0.0
C2828 C 0.02938 0.58894 0.99305 0.0
C2829 C 0.98931 0.59445 0.96742 0.0
C2830 C 0.04136 0.58737 0.96981 0.0
C2831 C 0.02737 0.589 0.94542 0.0
H2832 H 0.32228 0.28244 0.62366 0.0
H2833 H 0.24832 0.21813 0.61706 0.0
H2834 H 0.24566 0.23076 0.66404 0.0
H2835 H 0.26517 0.2588 0.70811 0.0
H2836 H 0.34144 0.32014 0.71619 0.0
H2837 H 0.34229 0.31024 0.66825 0.0
C2838 C 0.30553 0.27135 0.6325 0.0
C2839 C 0.28551 0.24935 0.61663 0.0
C2840 C 0.30449 0.27823 0.66009 0.0
C2841 C 0.26413 0.23504 0.62867 0.0
C2842 C 0.26251 0.24229 0.65564 0.0
C2843 C 0.28174 0.27026 0.69928 0.0
C2844 C 0.30301 0.29047 0.7158 0.0
C2845 C 0.28266 0.26371 0.67169 0.0
C2846 C 0.32468 0.30462 0.70402 0.0
C2847 C 0.32523 0.29889 0.67652 0.0
H2848 H 0.58229 0.53923 0.22657 0.0
H2849 H 0.64979 0.61028 0.2326 0.0
H2850 H 0.63701 0.61352 0.18606 0.0
H2851 H 0.60786 0.59525 0.14248 0.0
H2852 H 0.54314 0.5217 0.13476 0.0
H2853 H 0.55333 0.52044 0.18243 0.0
C2854 C 0.59404 0.55547 0.21769 0.0
C2855 C 0.61698 0.57448 0.23323 0.0
C2856 C 0.58704 0.5568 0.19033 0.0
C2857 C 0.63214 0.59524 0.2212 0.0
C2858 C 0.62481 0.59719 0.19449 0.0
C2859 C 0.59578 0.57918 0.15134 0.0
C2860 C 0.57457 0.55878 0.13505 0.0
C2861 C 0.60245 0.57799 0.17871 0.0
C2862 C 0.55952 0.53774 0.14681 0.0
C2863 C 0.56538 0.53697 0.17413 0.0
H2864 H 0.31318 0.93899 0.92039 0.0
H2865 H 0.24968 0.88667 0.95292 0.0
H2866 H 0.24668 0.84966 0.91719 0.0
H2867 H 0.26713 0.83048 0.88104 0.0
H2868 H 0.33618 0.8811 0.85455 0.0
H2869 H 0.33232 0.92052 0.88342 0.0
C2870 C 0.29838 0.9197 0.91941 0.0
C2871 C 0.28196 0.91546 0.93942 0.0
C2872 C 0.2981 0.89811 0.89997 0.0
C2873 C 0.26266 0.89032 0.93774 0.0
C2874 C 0.26112 0.8691 0.9175 0.0
C2875 C 0.28101 0.85028 0.88143 0.0
C2876 C 0.30113 0.8534 0.86491 0.0
C2877 C 0.27959 0.87245 0.89926 0.0
C2878 C 0.31946 0.87881 0.86584 0.0
C2879 C 0.31758 0.90118 0.88275 0.0
H2880 H 1.00405 0.57824 0.78669 0.0
H2881 H 0.9234 0.54842 0.74187 0.0
H2882 H 0.94205 0.5382 0.70131 0.0
H2883 H 0.98067 0.53393 0.67978 0.0
H2884 H 0.06152 0.56267 0.72424 0.0
H2885 H 0.0433 0.5764 0.7642 0.0
C2886 C 0.99066 0.57011 0.76789 0.0
C2887 C 0.96247 0.56412 0.7671 0.0
C2888 C 1.00147 0.56342 0.74489 0.0
C2889 C 0.94521 0.55319 0.74281 0.0
C2890 C 0.95582 0.54717 0.71972 0.0
C2891 C 0.99437 0.54354 0.69812 0.0
C2892 C 1.02236 0.54726 0.69913 0.0
C2893 C 0.98383 0.55154 0.72073 0.0
C2894 C 0.03983 0.55924 0.72313 0.0
C2895 C 0.02946 0.56733 0.74585 0.0
H2896 H 0.29308 0.20983 0.43145 0.0
H2897 H 0.29328 0.28336 0.48082 0.0
H2898 H 0.30026 0.30747 0.4426 0.0
H2899 H 0.30433 0.30701 0.39406 0.0
H2900 H 0.30378 0.23241 0.34622 0.0
H2901 H 0.29884 0.20961 0.38483 0.0
C2902 C 0.29468 0.23119 0.43414 0.0
C2903 C 0.29243 0.24457 0.45931 0.0
C2904 C 0.29855 0.24481 0.4121 0.0
C2905 C 0.29491 0.27237 0.46194 0.0
C2906 C 0.29883 0.28616 0.43995 0.0
C2907 C 0.30339 0.28583 0.39214 0.0
C2908 C 0.3043 0.27153 0.36689 0.0
C2909 C 0.30043 0.27254 0.41478 0.0
C2910 C 0.30294 0.24403 0.36505 0.0
C2911 C 0.30013 0.23089 0.38725 0.0
H2912 H 0.33468 0.62135 0.50465 0.0
H2913 H 0.36493 0.65157 0.58815 0.0
H2914 H 0.39537 0.62305 0.58769 0.0
H2915 H 0.41167 0.58835 0.56426 0.0
H2916 H 0.3846 0.56087 0.47982 0.0
H2917 H 0.35332 0.58854 0.48039 0.0
C2918 C 0.34811 0.62188 0.5227 0.0
C2919 C 0.34755 0.63851 0.5464 0.0
C2920 C 0.36551 0.60546 0.52231 0.0
C2921 C 0.36516 0.63912 0.56958 0.0
C2922 C 0.38235 0.62263 0.56941 0.0
C2923 C 0.39933 0.58868 0.5458 0.0
C2924 C 0.4007 0.57262 0.522 0.0
C2925 C 0.38244 0.60554 0.54597 0.0
C2926 C 0.38375 0.57268 0.49854 0.0
C2927 C 0.36612 0.58878 0.49875 0.0
H2928 H 0.89332 0.96818 0.59229 0.0
H2929 H 0.90608 0.90119 0.54224 0.0
H2930 H 0.95187 0.92828 0.53907 0.0
H2931 H 0.98589 0.97213 0.54641 0.0
H2932 H 0.97345 0.04 0.59576 0.0
H2933 H 0.93003 1.01137 0.60367 0.0
C2934 C 0.90628 0.95963 0.58079 0.0
C2935 C 0.89618 0.93321 0.56657 0.0
C2936 C 0.93251 0.97545 0.57893 0.0
C2937 C 0.91335 0.92174 0.55275 0.0
C2938 C 0.93944 0.93724 0.55091 0.0
C2939 C 0.97383 0.98079 0.55901 0.0
C2940 C 0.98276 1.00842 0.57003 0.0
C2941 C 0.94884 0.96436 0.56317 0.0
C2942 C 0.96693 0.01896 0.58667 0.0
C2943 C 0.94215 1.00255 0.5913 0.0
H2944 H 0.91643 0.09125 0.2645 0.0
H2945 H 0.96092 0.12124 0.34359 0.0
H2946 H 0.93964 0.15802 0.34804 0.0
H2947 H 0.9039 0.17763 0.33157 0.0
H2948 H 0.85608 0.14409 0.25407 0.0
H2949 H 0.88323 0.113 0.24668 0.0
C2950 C 0.92209 0.10646 0.2823 0.0
C2951 C 0.94053 0.10407 0.30349 0.0
C2952 C 0.90871 0.12655 0.28516 0.0
C2953 C 0.94723 0.12323 0.32683 0.0
C2954 C 0.93477 0.14396 0.32948 0.0
C2955 C 0.89942 0.16356 0.31304 0.0
C2956 C 0.87773 0.16313 0.29355 0.0
C2957 C 0.91469 0.14516 0.30917 0.0
C2958 C 0.8727 0.14512 0.26939 0.0
C2959 C 0.88815 0.12717 0.26517 0.0
H2960 H 0.73074 0.12038 0.10282 0.0
H2961 H 0.71875 0.18846 0.06854 0.0
H2962 H 0.66957 0.17015 0.06529 0.0
H2963 H 0.63088 0.13064 0.06408 0.0
H2964 H 0.6423 0.06258 0.09881 0.0
H2965 H 0.69106 0.08515 0.11063 0.0
C2966 C 0.7172 0.13124 0.09503 0.0
C2967 C 0.7277 0.1548 0.08461 0.0
C2968 C 0.68913 0.12059 0.09327 0.0
C2969 C 0.7106 0.16974 0.0758 0.0
C2970 C 0.68264 0.15933 0.07399 0.0
C2971 C 0.64408 0.12102 0.07462 0.0
C2972 C 0.63366 0.09475 0.07969 0.0
C2973 C 0.67176 0.13406 0.08127 0.0
C2974 C 0.65034 0.08267 0.09428 0.0
C2975 C 0.67808 0.09555 0.10103 0.0
H2976 H 0.26748 0.54341 0.34448 0.0
H2977 H 0.20917 0.48879 0.28092 0.0
H2978 H 0.2324 0.45418 0.28601 0.0
H2979 H 0.27178 0.44141 0.30541 0.0
H2980 H 0.33153 0.49758 0.36658 0.0
H2981 H 0.30496 0.52985 0.36553 0.0
C2982 C 0.25957 0.52388 0.33182 0.0
C2983 C 0.23683 0.51886 0.31203 0.0
C2984 C 0.27346 0.50456 0.33422 0.0
C2985 C 0.22671 0.49325 0.2962 0.0
C2986 C 0.24008 0.47353 0.29897 0.0
C2987 C 0.27903 0.4608 0.3184 0.0
C2988 C 0.30378 0.46742 0.3357 0.0
C2989 C 0.26395 0.47934 0.31733 0.0
C2990 C 0.31257 0.49216 0.35305 0.0
C2991 C 0.29745 0.51058 0.3524 0.0
H2992 H 0.26278 0.44569 1.00548 0.0
H2993 H 0.24969 0.42081 0.08145 0.0
H2994 H 0.21525 0.44507 0.08468 0.0
H2995 H 0.19228 0.47735 0.06776 0.0
H2996 H 0.20835 0.50334 0.99267 0.0
H2997 H 0.23812 0.47474 0.98741 0.0
C2998 C 0.25212 0.44514 0.02262 0.0
C2999 C 0.259 0.43152 0.04327 0.0
C3000 C 0.23307 0.45975 0.02469 0.0
C3001 C 0.24472 0.43091 0.06515 0.0
C3002 C 0.22525 0.4451 0.06715 0.0
C3003 C 0.20227 0.47672 0.05024 0.0
C3004 C 0.19791 0.49261 0.03064 0.0
C3005 C 0.21987 0.46031 0.0474 0.0
C3006 C 0.21085 0.49117 1.00792 0.0
C3007 C 0.22808 0.47488 1.00492 0.0
H3008 H 0.8955 0.96976 0.25811 0.0
H3009 H 0.96201 0.95137 0.30272 0.0
H3010 H 0.93304 0.90614 0.30408 0.0
H3011 H 0.88795 0.87454 0.29752 0.0
H3012 H 0.82039 0.89251 0.25383 0.0
H3013 H 0.85079 0.93514 0.24667 0.0
C3014 C 0.90352 0.95568 0.26799 0.0
C3015 C 0.93035 0.96399 0.28134 0.0
C3016 C 0.88664 0.92982 0.26884 0.0
C3017 C 0.94115 0.94544 0.29298 0.0
C3018 C 0.9246 0.91968 0.29378 0.0
C3019 C 0.87969 0.88762 0.28631 0.0
C3020 C 0.8517 0.88059 0.27682 0.0
C3021 C 0.8971 0.9121 0.28267 0.0
C3022 C 0.84172 0.8976 0.26176 0.0
C3023 C 0.85912 0.92194 0.2576 0.0
H3024 H 0.69016 0.15356 0.77937 0.0
H3025 H 0.74382 0.13216 0.72751 0.0
H3026 H 0.76491 0.17971 0.7259 0.0
H3027 H 0.77427 0.22642 0.7468 0.0
H3028 H 0.72634 0.24769 0.8052 0.0
H3029 H 0.69628 0.20148 0.79644 0.0
C3030 C 0.706 0.15954 0.76726 0.0
C3031 C 0.71611 0.14 0.75411 0.0
C3032 C 0.7191 0.18688 0.76785 0.0
C3033 C 0.73636 0.14733 0.73819 0.0
C3034 C 0.74832 0.17439 0.73725 0.0
C3035 C 0.75684 0.22104 0.7571 0.0
C3036 C 0.75269 0.23996 0.77695 0.0
C3037 C 0.74088 0.19428 0.75321 0.0
C3038 C 0.73009 0.23304 0.7902 0.0
C3039 C 0.71292 0.20673 0.78514 0.0
loop_
_geom_bond_atom_site_label_1
_geom_bond_atom_site_label_2
_geom_bond_distance
_geom_bond_site_symmetry_2
_ccdc_geom_bond_type
Mn0 O5 2.095 . S
Mn0 O15 2.162 . S
Mn0 O16 2.297 . S
Mn0 O24 2.385 1_455 S
Mn0 O25 2.209 . S
Mn0 O26 2.094 . S
Mn1 O6 2.121 . S
Mn1 N8 2.257 . S
Mn1 N17 2.282 . S
Mn1 O25 2.215 . S
Mn1 O27 2.117 . S
C2 O24 1.234 . S
C2 O25 1.283 1_655 S
C3 O15 1.281 . S
C3 O16 1.236 . S
C4 O26 1.240 . S
C4 O27 1.264 . S
O5 Mn0 2.095 . S
O5 C14 1.250 . S
O6 Mn1 2.121 . S
O6 C14 1.258 . S
C7 N8 1.326 . S
C7 C11 1.460 . S
C7 H13 0.929 . S
N8 Mn1 2.257 . S
N8 C7 1.326 . S
N8 C12 1.362 . S
C9 C10 1.246 1_655 S
C9 C12 1.431 1_655 S
C9 C29 1.449 . S
C10 C9 1.246 1_455 S
C10 C11 1.495 . S
C10 H30 0.926 1_455 S
C11 C7 1.460 . S
C11 C10 1.495 . S
C11 H31 0.930 . S
C12 N8 1.362 . S
C12 C9 1.431 1_455 S
C12 C22 1.476 1_455 S
H13 C7 0.929 . S
C14 O5 1.250 . S
C14 O6 1.258 . S
O15 Mn0 2.162 . S
O15 C3 1.281 . S
O16 Mn0 2.297 . S
O16 C3 1.236 . S
N17 Mn1 2.282 . S
N17 C18 1.328 1_455 S
N17 C22 1.318 1_455 S
C18 N17 1.328 1_655 S
C18 C19 1.457 . S
C18 H23 0.932 . S
C19 C18 1.457 . S
C19 C20 1.291 . S
C19 H32 0.931 . S
C20 C19 1.291 . S
C20 C21 1.373 . S
C20 H33 0.929 . S
C21 C20 1.373 . S
C21 C22 1.396 . S
C21 C28 1.403 . S
C22 C12 1.476 1_655 S
C22 N17 1.318 1_655 S
C22 C21 1.396 . S
H23 C18 0.932 . S
O24 Mn0 2.385 1_655 S
O24 C2 1.234 . S
O25 Mn0 2.209 . S
O25 Mn1 2.215 . S
O25 C2 1.283 1_455 S
O26 Mn0 2.094 . S
O26 C4 1.240 . S
O27 Mn1 2.117 . S
O27 C4 1.264 . S
C28 C21 1.403 . S
C28 C29 1.399 . S
C28 H34 0.929 . S
C29 C9 1.449 . S
C29 C28 1.399 . S
C29 H35 0.930 . S
H30 C10 0.926 1_655 S
H31 C11 0.930 . S
H32 C19 0.931 . S
H33 C20 0.929 . S
H34 C28 0.929 . S
H35 C29 0.930 . S
Mn36 O41 2.095 1_455 S
Mn36 O51 2.162 . S
Mn36 O52 2.297 . S
Mn36 O60 2.385 . S
Mn36 O61 2.209 . S
Mn36 O62 2.094 . S
Mn37 O42 2.121 . S
Mn37 N44 2.257 . S
Mn37 N53 2.282 . S
Mn37 O61 2.215 . S
Mn37 O63 2.117 . S
C38 O60 1.234 . S
C38 O61 1.283 . S
C39 O51 1.281 . S
C39 O52 1.236 . S
C40 O62 1.240 . S
C40 O63 1.264 . S
O41 Mn36 2.095 1_655 S
O41 C50 1.250 . S
O42 Mn37 2.121 . S
O42 C50 1.258 1_455 S
C43 N44 1.326 . S
C43 C47 1.460 . S
C43 H49 0.929 . S
N44 Mn37 2.257 . S
N44 C43 1.326 . S
N44 C48 1.362 . S
C45 C46 1.258 . S
C45 C48 1.431 . S
C45 C65 1.449 . S
C46 C45 1.258 . S
C46 C47 1.477 . S
C46 H66 0.931 . S
C47 C43 1.460 . S
C47 C46 1.477 . S
C47 H67 0.930 . S
C48 N44 1.362 . S
C48 C45 1.431 . S
C48 C58 1.476 . S
H49 C43 0.929 . S
C50 O41 1.250 . S
C50 O42 1.258 1_655 S
O51 Mn36 2.162 . S
O51 C39 1.281 . S
O52 Mn36 2.297 . S
O52 C39 1.236 . S
N53 Mn37 2.282 . S
N53 C54 1.328 . S
N53 C58 1.318 . S
C54 N53 1.328 . S
C54 C55 1.457 . S
C54 H59 0.929 . S
C55 C54 1.457 . S
C55 C56 1.291 . S
C55 H68 0.931 . S
C56 C55 1.291 . S
C56 C57 1.373 . S
C56 H69 0.929 . S
C57 C56 1.373 . S
C57 C58 1.396 . S
C57 C64 1.403 . S
C58 C48 1.476 . S
C58 N53 1.318 . S
C58 C57 1.396 . S
H59 C54 0.929 . S
O60 Mn36 2.385 . S
O60 C38 1.234 . S
O61 Mn36 2.209 . S
O61 Mn37 2.215 . S
O61 C38 1.283 . S
O62 Mn36 2.094 . S
O62 C40 1.240 . S
O63 Mn37 2.117 . S
O63 C40 1.264 . S
C64 C57 1.403 . S
C64 C65 1.399 . S
C64 H70 0.929 . S
C65 C45 1.449 . S
C65 C64 1.399 . S
C65 H71 0.930 . S
H66 C46 0.931 . S
H67 C47 0.930 . S
H68 C55 0.931 . S
H69 C56 0.929 . S
H70 C64 0.929 . S
H71 C65 0.930 . S
Mn72 O77 2.095 . S
Mn72 O87 2.162 . S
Mn72 O88 2.297 . S
Mn72 O96 2.385 . S
Mn72 O97 2.209 . S
Mn72 O98 2.094 . S
Mn73 O78 2.121 . S
Mn73 N80 2.257 . S
Mn73 N89 2.282 . S
Mn73 O97 2.215 . S
Mn73 O99 2.117 . S
C74 O96 1.234 . S
C74 O97 1.283 . S
C75 O87 1.281 . S
C75 O88 1.236 . S
C76 O98 1.240 . S
C76 O99 1.264 . S
O77 Mn72 2.095 . S
O77 C86 1.250 . S
O78 Mn73 2.121 . S
O78 C86 1.258 . S
C79 N80 1.326 . S
C79 C83 1.460 . S
C79 H85 0.929 . S
N80 Mn73 2.257 . S
N80 C79 1.326 . S
N80 C84 1.362 . S
C81 C82 1.258 . S
C81 C84 1.431 . S
C81 C101 1.449 . S
C82 C81 1.258 . S
C82 C83 1.477 . S
C82 H102 0.931 . S
C83 C79 1.460 . S
C83 C82 1.477 . S
C83 H103 0.930 . S
C84 N80 1.362 . S
C84 C81 1.431 . S
C84 C94 1.476 . S
H85 C79 0.929 . S
C86 O77 1.250 . S
C86 O78 1.258 . S
O87 Mn72 2.162 . S
O87 C75 1.281 . S
O88 Mn72 2.297 . S
O88 C75 1.236 . S
N89 Mn73 2.282 . S
N89 C90 1.328 . S
N89 C94 1.318 . S
C90 N89 1.328 . S
C90 C91 1.457 . S
C90 H95 0.929 . S
C91 C90 1.457 . S
C91 C92 1.291 . S
C91 H104 0.931 . S
C92 C91 1.291 . S
C92 C93 1.373 . S
C92 H105 0.929 . S
C93 C92 1.373 . S
C93 C94 1.396 . S
C93 C100 1.403 . S
C94 C84 1.476 . S
C94 N89 1.318 . S
C94 C93 1.396 . S
H95 C90 0.929 . S
O96 Mn72 2.385 . S
O96 C74 1.234 . S
O97 Mn72 2.209 . S
O97 Mn73 2.215 . S
O97 C74 1.283 . S
O98 Mn72 2.094 . S
O98 C76 1.240 . S
O99 Mn73 2.117 . S
O99 C76 1.264 . S
C100 C93 1.403 . S
C100 C101 1.399 . S
C100 H106 0.929 . S
C101 C81 1.449 . S
C101 C100 1.399 . S
C101 H107 0.930 . S
H102 C82 0.931 . S
H103 C83 0.930 . S
H104 C91 0.931 . S
H105 C92 0.929 . S
H106 C100 0.929 . S
H107 C101 0.930 . S
Mn108 O113 2.095 . S
Mn108 O123 2.162 . S
Mn108 O124 2.297 . S
Mn108 O132 2.385 . S
Mn108 O133 2.209 . S
Mn108 O134 2.094 . S
Mn109 O114 2.121 . S
Mn109 N116 2.257 . S
Mn109 N125 2.282 . S
Mn109 O133 2.215 . S
Mn109 O135 2.117 . S
C110 O132 1.234 . S
C110 O133 1.283 . S
C111 O123 1.281 . S
C111 O124 1.236 . S
C112 O134 1.240 . S
C112 O135 1.264 . S
O113 Mn108 2.095 . S
O113 C122 1.250 . S
O114 Mn109 2.121 . S
O114 C122 1.258 . S
C115 N116 1.326 . S
C115 C119 1.460 . S
C115 H121 0.929 . S
N116 Mn109 2.257 . S
N116 C115 1.326 . S
N116 C120 1.362 . S
C117 C118 1.258 . S
C117 C120 1.431 . S
C117 C137 1.449 . S
C118 C117 1.258 . S
C118 C119 1.477 . S
C118 H138 0.931 . S
C119 C115 1.460 . S
C119 C118 1.477 . S
C119 H139 0.930 . S
C120 N116 1.362 . S
C120 C117 1.431 . S
C120 C130 1.476 . S
H121 C115 0.929 . S
C122 O113 1.250 . S
C122 O114 1.258 . S
O123 Mn108 2.162 . S
O123 C111 1.281 . S
O124 Mn108 2.297 . S
O124 C111 1.236 . S
N125 Mn109 2.282 . S
N125 C126 1.328 . S
N125 C130 1.318 . S
C126 N125 1.328 . S
C126 C127 1.457 . S
C126 H131 0.929 . S
C127 C126 1.457 . S
C127 C128 1.291 . S
C127 H140 0.931 . S
C128 C127 1.291 . S
C128 C129 1.373 . S
C128 H141 0.929 . S
C129 C128 1.373 . S
C129 C130 1.396 . S
C129 C136 1.403 . S
C130 C120 1.476 . S
C130 N125 1.318 . S
C130 C129 1.396 . S
H131 C126 0.929 . S
O132 Mn108 2.385 . S
O132 C110 1.234 . S
O133 Mn108 2.209 . S
O133 Mn109 2.215 . S
O133 C110 1.283 . S
O134 Mn108 2.094 . S
O134 C112 1.240 . S
O135 Mn109 2.117 . S
O135 C112 1.264 . S
C136 C129 1.403 . S
C136 C137 1.399 . S
C136 H142 0.929 . S
C137 C117 1.449 . S
C137 C136 1.399 . S
C137 H143 0.930 . S
H138 C118 0.931 . S
H139 C119 0.930 . S
H140 C127 0.931 . S
H141 C128 0.929 . S
H142 C136 0.929 . S
H143 C137 0.930 . S
Mn144 O149 2.095 . S
Mn144 O159 2.162 . S
Mn144 O160 2.297 . S
Mn144 O168 2.385 . S
Mn144 O169 2.209 . S
Mn144 O170 2.094 . S
Mn145 O150 2.121 . S
Mn145 N152 2.257 . S
Mn145 N161 2.282 1_455 S
Mn145 O169 2.215 . S
Mn145 O171 2.117 . S
C146 O168 1.234 . S
C146 O169 1.283 . S
C147 O159 1.281 . S
C147 O160 1.236 . S
C148 O170 1.240 . S
C148 O171 1.264 . S
O149 Mn144 2.095 . S
O149 C158 1.250 . S
O150 Mn145 2.121 . S
O150 C158 1.258 . S
C151 N152 1.326 . S
C151 C155 1.460 1_554 S
C151 H157 0.929 . S
N152 Mn145 2.257 . S
N152 C151 1.326 . S
N152 C156 1.362 . S
C153 C154 1.258 . S
C153 C156 1.431 1_556 S
C153 C173 1.449 1_455 S
C154 C153 1.258 . S
C154 C155 1.477 . S
C154 H174 0.931 . S
C155 C151 1.460 1_556 S
C155 C154 1.477 . S
C155 H175 0.930 . S
C156 N152 1.362 . S
C156 C153 1.431 1_554 S
C156 C166 1.476 1_455 S
H157 C151 0.929 . S
C158 O149 1.250 . S
C158 O150 1.258 . S
O159 Mn144 2.162 . S
O159 C147 1.281 . S
O160 Mn144 2.297 . S
O160 C147 1.236 . S
N161 Mn145 2.282 1_655 S
N161 C162 1.328 . S
N161 C166 1.318 . S
C162 N161 1.328 . S
C162 C163 1.457 . S
C162 H167 0.929 . S
C163 C162 1.457 . S
C163 C164 1.291 . S
C163 H176 0.931 . S
C164 C163 1.291 . S
C164 C165 1.373 . S
C164 H177 0.929 . S
C165 C164 1.373 . S
C165 C166 1.396 . S
C165 C172 1.403 1_554 S
C166 C156 1.476 1_655 S
C166 N161 1.318 . S
C166 C165 1.396 . S
H167 C162 0.929 . S
O168 Mn144 2.385 . S
O168 C146 1.234 . S
O169 Mn144 2.209 . S
O169 Mn145 2.215 . S
O169 C146 1.283 . S
O170 Mn144 2.094 . S
O170 C148 1.240 . S
O171 Mn145 2.117 . S
O171 C148 1.264 . S
C172 C165 1.403 1_556 S
C172 C173 1.399 . S
C172 H178 0.929 . S
C173 C153 1.449 1_655 S
C173 C172 1.399 . S
C173 H179 0.930 . S
H174 C154 0.931 . S
H175 C155 0.930 . S
H176 C163 0.931 . S
H177 C164 0.929 . S
H178 C172 0.929 . S
H179 C173 0.930 . S
Mn180 O185 2.095 . S
Mn180 O195 2.162 . S
Mn180 O196 2.297 . S
Mn180 O204 2.385 . S
Mn180 O205 2.209 . S
Mn180 O206 2.094 . S
Mn181 O186 2.121 . S
Mn181 N188 2.257 . S
Mn181 N197 2.282 . S
Mn181 O205 2.215 . S
Mn181 O207 2.117 . S
C182 O204 1.234 . S
C182 O205 1.283 . S
C183 O195 1.281 . S
C183 O196 1.236 . S
C184 O206 1.240 . S
C184 O207 1.264 . S
O185 Mn180 2.095 . S
O185 C194 1.250 . S
O186 Mn181 2.121 . S
O186 C194 1.258 . S
C187 N188 1.326 . S
C187 C191 1.460 . S
C187 H193 0.929 . S
N188 Mn181 2.257 . S
N188 C187 1.326 . S
N188 C192 1.362 . S
C189 C190 1.258 . S
C189 C192 1.431 . S
C189 C209 1.449 . S
C190 C189 1.258 . S
C190 C191 1.477 . S
C190 H210 0.931 . S
C191 C187 1.460 . S
C191 C190 1.477 . S
C191 H211 0.930 . S
C192 N188 1.362 . S
C192 C189 1.431 . S
C192 C202 1.476 . S
H193 C187 0.929 . S
C194 O185 1.250 . S
C194 O186 1.258 . S
O195 Mn180 2.162 . S
O195 C183 1.281 . S
O196 Mn180 2.297 . S
O196 C183 1.236 . S
N197 Mn181 2.282 . S
N197 C198 1.328 . S
N197 C202 1.318 . S
C198 N197 1.328 . S
C198 C199 1.457 . S
C198 H203 0.929 . S
C199 C198 1.457 . S
C199 C200 1.291 . S
C199 H212 0.931 . S
C200 C199 1.291 . S
C200 C201 1.373 . S
C200 H213 0.929 . S
C201 C200 1.373 . S
C201 C202 1.396 . S
C201 C208 1.403 . S
C202 C192 1.476 . S
C202 N197 1.318 . S
C202 C201 1.396 . S
H203 C198 0.929 . S
O204 Mn180 2.385 . S
O204 C182 1.234 . S
O205 Mn180 2.209 . S
O205 Mn181 2.215 . S
O205 C182 1.283 . S
O206 Mn180 2.094 . S
O206 C184 1.240 . S
O207 Mn181 2.117 . S
O207 C184 1.264 . S
C208 C201 1.403 . S
C208 C209 1.399 . S
C208 H214 0.929 . S
C209 C189 1.449 . S
C209 C208 1.399 . S
C209 H215 0.930 . S
H210 C190 0.931 . S
H211 C191 0.930 . S
H212 C199 0.931 . S
H213 C200 0.929 . S
H214 C208 0.929 . S
H215 C209 0.930 . S
Mn216 O221 2.095 . S
Mn216 O231 2.162 . S
Mn216 O232 2.297 . S
Mn216 O240 2.385 . S
Mn216 O241 2.209 . S
Mn216 O242 2.094 . S
Mn217 O222 2.121 . S
Mn217 N224 2.257 . S
Mn217 N233 2.282 . S
Mn217 O241 2.215 . S
Mn217 O243 2.117 . S
C218 O240 1.234 . S
C218 O241 1.283 . S
C219 O231 1.281 . S
C219 O232 1.236 . S
C220 O242 1.240 . S
C220 O243 1.264 . S
O221 Mn216 2.095 . S
O221 C230 1.250 . S
O222 Mn217 2.121 . S
O222 C230 1.258 . S
C223 N224 1.326 . S
C223 C227 1.460 . S
C223 H229 0.929 . S
N224 Mn217 2.257 . S
N224 C223 1.326 . S
N224 C228 1.362 . S
C225 C226 1.258 . S
C225 C228 1.431 . S
C225 C245 1.449 . S
C226 C225 1.258 . S
C226 C227 1.477 . S
C226 H246 0.931 . S
C227 C223 1.460 . S
C227 C226 1.477 . S
C227 H247 0.930 . S
C228 N224 1.362 . S
C228 C225 1.431 . S
C228 C238 1.476 . S
H229 C223 0.929 . S
C230 O221 1.250 . S
C230 O222 1.258 . S
O231 Mn216 2.162 . S
O231 C219 1.281 . S
O232 Mn216 2.297 . S
O232 C219 1.236 . S
N233 Mn217 2.282 . S
N233 C234 1.328 . S
N233 C238 1.318 . S
C234 N233 1.328 . S
C234 C235 1.457 . S
C234 H239 0.929 . S
C235 C234 1.457 . S
C235 C236 1.291 . S
C235 H248 0.931 . S
C236 C235 1.291 . S
C236 C237 1.373 . S
C236 H249 0.929 . S
C237 C236 1.373 . S
C237 C238 1.396 . S
C237 C244 1.403 . S
C238 C228 1.476 . S
C238 N233 1.318 . S
C238 C237 1.396 . S
H239 C234 0.929 . S
O240 Mn216 2.385 . S
O240 C218 1.234 . S
O241 Mn216 2.209 . S
O241 Mn217 2.215 . S
O241 C218 1.283 . S
O242 Mn216 2.094 . S
O242 C220 1.240 . S
O243 Mn217 2.117 . S
O243 C220 1.264 . S
C244 C237 1.403 . S
C244 C245 1.399 . S
C244 H250 0.929 . S
C245 C225 1.449 . S
C245 C244 1.399 . S
C245 H251 0.930 . S
H246 C226 0.931 . S
H247 C227 0.930 . S
H248 C235 0.931 . S
H249 C236 0.929 . S
H250 C244 0.929 . S
H251 C245 0.930 . S
Mn252 O257 2.061 1_655 S
Mn252 O267 2.157 1_656 S
Mn252 O268 2.291 . S
Mn252 O276 2.423 . S
Mn252 O277 2.225 . S
Mn252 O278 2.100 1_656 S
Mn253 O258 2.114 1_655 S
Mn253 N260 2.258 . S
Mn253 N269 2.290 . S
Mn253 O277 2.217 . S
Mn253 O279 2.118 1_655 S
C254 O276 1.234 . S
C254 O277 1.283 . S
C255 O267 1.281 1_656 S
C255 O268 1.236 . S
C256 O278 1.240 1_556 S
C256 O279 1.264 . S
O257 Mn252 2.061 1_455 S
O257 C266 1.250 . S
O258 Mn253 2.114 1_455 S
O258 C266 1.258 . S
C259 N260 1.326 . S
C259 C263 1.460 . S
C259 H265 0.929 1_655 S
N260 Mn253 2.258 . S
N260 C259 1.326 . S
N260 C264 1.362 . S
C261 C262 1.258 . S
C261 C264 1.431 . S
C261 C281 1.449 . S
C262 C261 1.258 . S
C262 C263 1.477 . S
C262 H282 0.931 . S
C263 C259 1.460 . S
C263 C262 1.477 . S
C263 H283 0.930 . S
C264 N260 1.362 . S
C264 C261 1.431 . S
C264 C274 1.476 . S
H265 C259 0.929 1_455 S
C266 O257 1.250 . S
C266 O258 1.258 . S
O267 Mn252 2.157 1_454 S
O267 C255 1.281 1_454 S
O268 Mn252 2.291 . S
O268 C255 1.236 . S
N269 Mn253 2.290 . S
N269 C270 1.328 . S
N269 C274 1.318 . S
C270 N269 1.328 . S
C270 C271 1.457 . S
C270 H275 0.929 . S
C271 C270 1.457 . S
C271 C272 1.291 . S
C271 H284 0.931 . S
C272 C271 1.291 . S
C272 C273 1.373 . S
C272 H285 0.929 . S
C273 C272 1.373 . S
C273 C274 1.396 . S
C273 C280 1.403 . S
C274 C264 1.476 . S
C274 N269 1.318 . S
C274 C273 1.396 . S
H275 C270 0.929 . S
O276 Mn252 2.423 . S
O276 C254 1.234 . S
O277 Mn252 2.225 . S
O277 Mn253 2.217 . S
O277 C254 1.283 . S
O278 Mn252 2.100 1_454 S
O278 C256 1.240 1_554 S
O279 Mn253 2.118 1_455 S
O279 C256 1.264 . S
C280 C273 1.403 . S
C280 C281 1.399 . S
C280 H286 0.929 . S
C281 C261 1.449 . S
C281 C280 1.399 . S
C281 H287 0.930 . S
H282 C262 0.931 . S
H283 C263 0.930 . S
H284 C271 0.931 . S
H285 C272 0.929 . S
H286 C280 0.929 . S
H287 C281 0.930 . S
Mn288 O293 2.095 . S
Mn288 O303 2.162 . S
Mn288 O304 2.297 1_545 S
Mn288 O312 2.385 1_545 S
Mn288 O313 2.209 1_545 S
Mn288 O314 2.094 . S
Mn289 O294 2.121 1_565 S
Mn289 N296 2.257 . S
Mn289 N305 2.282 . S
Mn289 O313 2.215 . S
Mn289 O315 2.117 1_565 S
C290 O312 1.234 . S
C290 O313 1.283 . S
C291 O303 1.281 . S
C291 O304 1.236 1_545 S
C292 O314 1.240 . S
C292 O315 1.264 . S
O293 Mn288 2.095 . S
O293 C302 1.250 . S
O294 Mn289 2.121 1_545 S
O294 C302 1.258 . S
C295 N296 1.326 . S
C295 C299 1.460 . S
C295 H301 0.929 . S
N296 Mn289 2.257 . S
N296 C295 1.326 . S
N296 C300 1.362 . S
C297 C298 1.258 . S
C297 C300 1.431 . S
C297 C317 1.449 . S
C298 C297 1.258 . S
C298 C299 1.477 . S
C298 H318 0.931 . S
C299 C295 1.460 . S
C299 C298 1.477 . S
C299 H319 0.930 . S
C300 N296 1.362 . S
C300 C297 1.431 . S
C300 C310 1.476 . S
H301 C295 0.929 . S
C302 O293 1.250 . S
C302 O294 1.258 . S
O303 Mn288 2.162 . S
O303 C291 1.281 . S
O304 Mn288 2.297 1_565 S
O304 C291 1.236 1_565 S
N305 Mn289 2.282 . S
N305 C306 1.328 . S
N305 C310 1.318 . S
C306 N305 1.328 . S
C306 C307 1.457 . S
C306 H311 0.929 . S
C307 C306 1.457 . S
C307 C308 1.291 . S
C307 H320 0.931 . S
C308 C307 1.291 . S
C308 C309 1.373 . S
C308 H321 0.929 . S
C309 C308 1.373 . S
C309 C310 1.396 . S
C309 C316 1.403 . S
C310 C300 1.476 . S
C310 N305 1.318 . S
C310 C309 1.396 . S
H311 C306 0.929 . S
O312 Mn288 2.385 1_565 S
O312 C290 1.234 . S
O313 Mn288 2.209 1_565 S
O313 Mn289 2.215 . S
O313 C290 1.283 . S
O314 Mn288 2.094 . S
O314 C292 1.240 . S
O315 Mn289 2.117 1_545 S
O315 C292 1.264 . S
C316 C309 1.403 . S
C316 C317 1.399 . S
C316 H322 0.929 . S
C317 C297 1.449 . S
C317 C316 1.399 . S
C317 H323 0.930 . S
H318 C298 0.931 . S
H319 C299 0.930 . S
H320 C307 0.931 . S
H321 C308 0.929 . S
H322 C316 0.929 . S
H323 C317 0.930 . S
Mn324 O329 2.095 . S
Mn324 O339 2.162 . S
Mn324 O340 2.297 . S
Mn324 O348 2.385 . S
Mn324 O349 2.209 . S
Mn324 O350 2.094 . S
Mn325 O330 2.121 . S
Mn325 N332 2.257 . S
Mn325 N341 2.282 . S
Mn325 O349 2.215 . S
Mn325 O351 2.117 . S
C326 O348 1.234 . S
C326 O349 1.283 . S
C327 O339 1.281 . S
C327 O340 1.236 . S
C328 O350 1.240 . S
C328 O351 1.264 . S
O329 Mn324 2.095 . S
O329 C338 1.250 . S
O330 Mn325 2.121 . S
O330 C338 1.258 . S
C331 N332 1.326 . S
C331 C335 1.460 . S
C331 H337 0.929 . S
N332 Mn325 2.257 . S
N332 C331 1.326 . S
N332 C336 1.362 . S
C333 C334 1.258 . S
C333 C336 1.431 . S
C333 C353 1.449 . S
C334 C333 1.258 . S
C334 C335 1.477 . S
C334 H354 0.931 . S
C335 C331 1.460 . S
C335 C334 1.477 . S
C335 H355 0.930 . S
C336 N332 1.362 . S
C336 C333 1.431 . S
C336 C346 1.476 . S
H337 C331 0.929 . S
C338 O329 1.250 . S
C338 O330 1.258 . S
O339 Mn324 2.162 . S
O339 C327 1.281 . S
O340 Mn324 2.297 . S
O340 C327 1.236 . S
N341 Mn325 2.282 . S
N341 C342 1.328 . S
N341 C346 1.318 . S
C342 N341 1.328 . S
C342 C343 1.457 . S
C342 H347 0.929 . S
C343 C342 1.457 . S
C343 C344 1.291 . S
C343 H356 0.931 . S
C344 C343 1.291 . S
C344 C345 1.373 . S
C344 H357 0.929 . S
C345 C344 1.373 . S
C345 C346 1.396 . S
C345 C352 1.403 . S
C346 C336 1.476 . S
C346 N341 1.318 . S
C346 C345 1.396 . S
H347 C342 0.929 . S
O348 Mn324 2.385 . S
O348 C326 1.234 . S
O349 Mn324 2.209 . S
O349 Mn325 2.215 . S
O349 C326 1.283 . S
O350 Mn324 2.094 . S
O350 C328 1.240 . S
O351 Mn325 2.117 . S
O351 C328 1.264 . S
C352 C345 1.403 . S
C352 C353 1.399 . S
C352 H358 0.929 . S
C353 C333 1.449 . S
C353 C352 1.399 . S
C353 H359 0.930 . S
H354 C334 0.931 . S
H355 C335 0.930 . S
H356 C343 0.931 . S
H357 C344 0.929 . S
H358 C352 0.929 . S
H359 C353 0.930 . S
Mn360 O365 2.095 . S
Mn360 O375 2.162 . S
Mn360 O376 2.297 . S
Mn360 O384 2.385 . S
Mn360 O385 2.209 . S
Mn360 O386 2.094 . S
Mn361 O366 2.121 . S
Mn361 N368 2.257 . S
Mn361 N377 2.282 . S
Mn361 O385 2.215 . S
Mn361 O387 2.117 . S
C362 O384 1.234 . S
C362 O385 1.283 . S
C363 O375 1.281 . S
C363 O376 1.236 . S
C364 O386 1.240 . S
C364 O387 1.264 . S
O365 Mn360 2.095 . S
O365 C374 1.250 . S
O366 Mn361 2.121 . S
O366 C374 1.258 . S
C367 N368 1.326 . S
C367 C371 1.460 . S
C367 H373 0.929 . S
N368 Mn361 2.257 . S
N368 C367 1.326 . S
N368 C372 1.362 . S
C369 C370 1.258 . S
C369 C372 1.431 . S
C369 C389 1.449 . S
C370 C369 1.258 . S
C370 C371 1.477 . S
C370 H390 0.931 . S
C371 C367 1.460 . S
C371 C370 1.477 . S
C371 H391 0.930 . S
C372 N368 1.362 . S
C372 C369 1.431 . S
C372 C382 1.476 . S
H373 C367 0.929 . S
C374 O365 1.250 . S
C374 O366 1.258 . S
O375 Mn360 2.162 . S
O375 C363 1.281 . S
O376 Mn360 2.297 . S
O376 C363 1.236 . S
N377 Mn361 2.282 . S
N377 C378 1.328 . S
N377 C382 1.318 . S
C378 N377 1.328 . S
C378 C379 1.457 . S
C378 H383 0.929 . S
C379 C378 1.457 . S
C379 C380 1.291 . S
C379 H392 0.931 . S
C380 C379 1.291 . S
C380 C381 1.373 . S
C380 H393 0.929 . S
C381 C380 1.373 . S
C381 C382 1.396 . S
C381 C388 1.403 . S
C382 C372 1.476 . S
C382 N377 1.318 . S
C382 C381 1.396 . S
H383 C378 0.929 . S
O384 Mn360 2.385 . S
O384 C362 1.234 . S
O385 Mn360 2.209 . S
O385 Mn361 2.215 . S
O385 C362 1.283 . S
O386 Mn360 2.094 . S
O386 C364 1.240 . S
O387 Mn361 2.117 . S
O387 C364 1.264 . S
C388 C381 1.403 . S
C388 C389 1.399 . S
C388 H394 0.929 . S
C389 C369 1.449 . S
C389 C388 1.399 . S
C389 H395 0.930 . S
H390 C370 0.931 . S
H391 C371 0.930 . S
H392 C379 0.931 . S
H393 C380 0.929 . S
H394 C388 0.929 . S
H395 C389 0.930 . S
Mn396 O401 2.095 1_554 S
Mn396 O411 2.162 . S
Mn396 O412 2.297 . S
Mn396 O420 2.385 . S
Mn396 O421 2.215 . S
Mn396 O422 2.094 1_554 S
Mn397 O402 2.121 . S
Mn397 N404 2.257 1_565 S
Mn397 N413 2.282 . S
Mn397 O421 2.194 1_556 S
Mn397 O423 2.117 . S
C398 O420 1.234 . S
C398 O421 1.287 . S
C399 O411 1.281 . S
C399 O412 1.236 . S
C400 O422 1.240 . S
C400 O423 1.264 . S
O401 Mn396 2.095 1_556 S
O401 C410 1.250 . S
O402 Mn397 2.121 . S
O402 C410 1.258 . S
C403 N404 1.326 . S
C403 C407 1.460 . S
C403 H409 0.929 . S
N404 Mn397 2.257 1_545 S
N404 C403 1.326 . S
N404 C408 1.362 . S
C405 C406 1.258 . S
C405 C408 1.431 . S
C405 C425 1.449 . S
C406 C405 1.258 . S
C406 C407 1.477 . S
C406 H426 0.931 . S
C407 C403 1.460 . S
C407 C406 1.477 . S
C407 H427 0.911 1_556 S
C408 N404 1.362 . S
C408 C405 1.431 . S
C408 C418 1.476 1_545 S
H409 C403 0.929 . S
C410 O401 1.250 . S
C410 O402 1.258 . S
O411 Mn396 2.162 . S
O411 C399 1.281 . S
O412 Mn396 2.297 . S
O412 C399 1.236 . S
N413 Mn397 2.282 . S
N413 C414 1.328 . S
N413 C418 1.318 . S
C414 N413 1.328 . S
C414 C415 1.457 . S
C414 H419 0.929 . S
C415 C414 1.457 . S
C415 C416 1.291 . S
C415 H428 0.931 . S
C416 C415 1.291 . S
C416 C417 1.373 1_565 S
C416 H429 0.929 . S
C417 C416 1.373 1_545 S
C417 C418 1.396 1_545 S
C417 C424 1.403 . S
C418 C408 1.476 1_565 S
C418 N413 1.318 . S
C418 C417 1.396 1_565 S
H419 C414 0.929 . S
O420 Mn396 2.385 . S
O420 C398 1.234 . S
O421 Mn396 2.215 . S
O421 Mn397 2.194 1_554 S
O421 C398 1.287 . S
O422 Mn396 2.094 1_556 S
O422 C400 1.240 . S
O423 Mn397 2.117 . S
O423 C400 1.264 . S
C424 C417 1.403 . S
C424 C425 1.399 . S
C424 H430 0.929 . S
C425 C405 1.449 . S
C425 C424 1.399 . S
C425 H431 0.930 . S
H426 C406 0.931 . S
H427 C407 0.911 1_554 S
H428 C415 0.931 . S
H429 C416 0.929 . S
H430 C424 0.929 . S
H431 C425 0.930 . S
Mn432 O437 2.095 . S
Mn432 O447 2.162 . S
Mn432 O448 2.297 . S
Mn432 O456 2.385 . S
Mn432 O457 2.209 . S
Mn432 O458 2.094 . S
Mn433 O438 2.121 . S
Mn433 N440 2.257 . S
Mn433 N449 2.282 1_554 S
Mn433 O457 2.215 . S
Mn433 O459 2.117 1_554 S
C434 O456 1.234 . S
C434 O457 1.283 . S
C435 O447 1.281 . S
C435 O448 1.236 . S
C436 O458 1.240 1_556 S
C436 O459 1.264 . S
O437 Mn432 2.095 . S
O437 C446 1.250 . S
O438 Mn433 2.121 . S
O438 C446 1.258 . S
C439 N440 1.326 . S
C439 C443 1.460 . S
C439 H445 0.929 . S
N440 Mn433 2.257 . S
N440 C439 1.326 . S
N440 C444 1.362 . S
C441 C442 1.258 . S
C441 C444 1.431 . S
C441 C461 1.449 . S
C442 C441 1.258 . S
C442 C443 1.477 . S
C442 H462 0.931 . S
C443 C439 1.460 . S
C443 C442 1.477 . S
C443 H463 0.930 . S
C444 N440 1.362 . S
C444 C441 1.431 . S
C444 C454 1.476 1_554 S
H445 C439 0.929 . S
C446 O437 1.250 . S
C446 O438 1.258 . S
O447 Mn432 2.162 . S
O447 C435 1.281 . S
O448 Mn432 2.297 . S
O448 C435 1.236 . S
N449 Mn433 2.282 1_556 S
N449 C450 1.328 . S
N449 C454 1.318 . S
C450 N449 1.328 . S
C450 C451 1.457 . S
C450 H455 0.929 . S
C451 C450 1.457 . S
C451 C452 1.291 . S
C451 H464 0.931 . S
C452 C451 1.291 . S
C452 C453 1.373 . S
C452 H465 0.929 . S
C453 C452 1.373 . S
C453 C454 1.396 . S
C453 C460 1.403 . S
C454 C444 1.476 1_556 S
C454 N449 1.318 . S
C454 C453 1.396 . S
H455 C450 0.929 . S
O456 Mn432 2.385 . S
O456 C434 1.234 . S
O457 Mn432 2.209 . S
O457 Mn433 2.215 . S
O457 C434 1.283 . S
O458 Mn432 2.094 . S
O458 C436 1.240 1_554 S
O459 Mn433 2.117 1_556 S
O459 C436 1.264 . S
C460 C453 1.403 . S
C460 C461 1.399 1_556 S
C460 H466 0.929 . S
C461 C441 1.449 . S
C461 C460 1.399 1_554 S
C461 H467 0.930 . S
H462 C442 0.931 . S
H463 C443 0.930 . S
H464 C451 0.931 . S
H465 C452 0.929 . S
H466 C460 0.929 . S
H467 C461 0.930 . S
Mn468 O473 2.095 . S
Mn468 O483 2.162 . S
Mn468 O484 2.297 . S
Mn468 O492 2.385 . S
Mn468 O493 2.209 . S
Mn468 O494 2.094 . S
Mn469 O474 2.121 . S
Mn469 N476 2.257 . S
Mn469 N485 2.282 . S
Mn469 O493 2.215 . S
Mn469 O495 2.117 . S
C470 O492 1.234 . S
C470 O493 1.283 . S
C471 O483 1.281 . S
C471 O484 1.236 . S
C472 O494 1.240 . S
C472 O495 1.264 . S
O473 Mn468 2.095 . S
O473 C482 1.250 . S
O474 Mn469 2.121 . S
O474 C482 1.258 . S
C475 N476 1.326 . S
C475 C479 1.460 . S
C475 H481 0.929 . S
N476 Mn469 2.257 . S
N476 C475 1.326 . S
N476 C480 1.362 . S
C477 C478 1.258 . S
C477 C480 1.431 . S
C477 C497 1.452 . S
C478 C477 1.258 . S
C478 C479 1.477 . S
C478 H498 0.931 . S
C479 C475 1.460 . S
C479 C478 1.477 . S
C479 H499 0.930 . S
C480 N476 1.362 . S
C480 C477 1.431 . S
C480 C490 1.476 . S
H481 C475 0.929 . S
C482 O473 1.250 . S
C482 O474 1.258 . S
O483 Mn468 2.162 . S
O483 C471 1.281 . S
O484 Mn468 2.297 . S
O484 C471 1.236 . S
N485 Mn469 2.282 . S
N485 C486 1.328 1_554 S
N485 C490 1.318 . S
C486 N485 1.328 1_556 S
C486 C487 1.457 . S
C486 H491 0.928 . S
C487 C486 1.457 . S
C487 C488 1.291 . S
C487 H500 0.931 . S
C488 C487 1.291 . S
C488 C489 1.373 . S
C488 H501 0.929 . S
C489 C488 1.373 . S
C489 C490 1.396 1_556 S
C489 C496 1.403 . S
C490 C480 1.476 . S
C490 N485 1.318 . S
C490 C489 1.396 1_554 S
H491 C486 0.928 . S
O492 Mn468 2.385 . S
O492 C470 1.234 . S
O493 Mn468 2.209 . S
O493 Mn469 2.215 . S
O493 C470 1.283 . S
O494 Mn468 2.094 . S
O494 C472 1.240 . S
O495 Mn469 2.117 . S
O495 C472 1.264 . S
C496 C489 1.403 . S
C496 C497 1.396 1_556 S
C496 H502 0.929 . S
C497 C477 1.452 . S
C497 C496 1.396 1_554 S
C497 H503 0.930 1_554 S
H498 C478 0.931 . S
H499 C479 0.930 . S
H500 C487 0.931 . S
H501 C488 0.929 . S
H502 C496 0.929 . S
H503 C497 0.930 1_556 S
Mn504 O509 2.095 . S
Mn504 O519 2.162 . S
Mn504 O520 2.297 . S
Mn504 O528 2.385 . S
Mn504 O529 2.209 . S
Mn504 O530 2.094 . S
Mn505 O510 2.121 . S
Mn505 N512 2.257 . S
Mn505 N521 2.282 . S
Mn505 O529 2.215 . S
Mn505 O531 2.117 . S
C506 O528 1.234 . S
C506 O529 1.283 . S
C507 O519 1.281 . S
C507 O520 1.236 . S
C508 O530 1.240 . S
C508 O531 1.264 . S
O509 Mn504 2.095 . S
O509 C518 1.250 . S
O510 Mn505 2.121 . S
O510 C518 1.258 . S
C511 N512 1.326 . S
C511 C515 1.460 . S
C511 H517 0.929 . S
N512 Mn505 2.257 . S
N512 C511 1.326 . S
N512 C516 1.362 . S
C513 C514 1.258 . S
C513 C516 1.431 . S
C513 C533 1.449 . S
C514 C513 1.258 . S
C514 C515 1.477 . S
C514 H534 0.931 . S
C515 C511 1.460 . S
C515 C514 1.477 . S
C515 H535 0.930 . S
C516 N512 1.362 . S
C516 C513 1.431 . S
C516 C526 1.476 . S
H517 C511 0.929 . S
C518 O509 1.250 . S
C518 O510 1.258 . S
O519 Mn504 2.162 . S
O519 C507 1.281 . S
O520 Mn504 2.297 . S
O520 C507 1.236 . S
N521 Mn505 2.282 . S
N521 C522 1.328 . S
N521 C526 1.318 . S
C522 N521 1.328 . S
C522 C523 1.457 . S
C522 H527 0.929 . S
C523 C522 1.457 . S
C523 C524 1.291 . S
C523 H536 0.931 . S
C524 C523 1.291 . S
C524 C525 1.373 . S
C524 H537 0.929 . S
C525 C524 1.373 . S
C525 C526 1.396 . S
C525 C532 1.403 . S
C526 C516 1.476 . S
C526 N521 1.318 . S
C526 C525 1.396 . S
H527 C522 0.929 . S
O528 Mn504 2.385 . S
O528 C506 1.234 . S
O529 Mn504 2.209 . S
O529 Mn505 2.215 . S
O529 C506 1.283 . S
O530 Mn504 2.094 . S
O530 C508 1.240 . S
O531 Mn505 2.117 . S
O531 C508 1.264 . S
C532 C525 1.403 . S
C532 C533 1.399 . S
C532 H538 0.929 . S
C533 C513 1.449 . S
C533 C532 1.399 . S
C533 H539 0.930 . S
H534 C514 0.931 . S
H535 C515 0.930 . S
H536 C523 0.931 . S
H537 C524 0.929 . S
H538 C532 0.929 . S
H539 C533 0.930 . S
Mn540 O545 2.095 . S
Mn540 O555 2.162 . S
Mn540 O556 2.297 . S
Mn540 O564 2.385 . S
Mn540 O565 2.209 . S
Mn540 O566 2.094 . S
Mn541 O546 2.121 . S
Mn541 N548 2.257 . S
Mn541 N557 2.282 . S
Mn541 O565 2.215 . S
Mn541 O567 2.117 . S
C542 O564 1.234 . S
C542 O565 1.283 . S
C543 O555 1.281 . S
C543 O556 1.236 . S
C544 O566 1.240 . S
C544 O567 1.264 . S
O545 Mn540 2.095 . S
O545 C554 1.250 . S
O546 Mn541 2.121 . S
O546 C554 1.258 . S
C547 N548 1.326 . S
C547 C551 1.460 1_565 S
C547 H553 0.929 . S
N548 Mn541 2.257 . S
N548 C547 1.326 . S
N548 C552 1.362 . S
C549 C550 1.258 1_565 S
C549 C552 1.431 . S
C549 C569 1.449 1_565 S
C550 C549 1.258 1_545 S
C550 C551 1.477 . S
C550 H570 0.931 . S
C551 C547 1.460 1_545 S
C551 C550 1.477 . S
C551 H571 0.930 . S
C552 N548 1.362 . S
C552 C549 1.431 . S
C552 C562 1.476 . S
H553 C547 0.929 . S
C554 O545 1.250 . S
C554 O546 1.258 . S
O555 Mn540 2.162 . S
O555 C543 1.281 . S
O556 Mn540 2.297 . S
O556 C543 1.236 . S
N557 Mn541 2.282 . S
N557 C558 1.328 . S
N557 C562 1.318 . S
C558 N557 1.328 . S
C558 C559 1.457 . S
C558 H563 0.929 . S
C559 C558 1.457 . S
C559 C560 1.291 . S
C559 H572 0.931 . S
C560 C559 1.291 . S
C560 C561 1.373 . S
C560 H573 0.929 . S
C561 C560 1.373 . S
C561 C562 1.396 . S
C561 C568 1.403 . S
C562 C552 1.476 . S
C562 N557 1.318 . S
C562 C561 1.396 . S
H563 C558 0.929 . S
O564 Mn540 2.385 . S
O564 C542 1.234 . S
O565 Mn540 2.209 . S
O565 Mn541 2.215 . S
O565 C542 1.283 . S
O566 Mn540 2.094 . S
O566 C544 1.240 . S
O567 Mn541 2.117 . S
O567 C544 1.264 . S
C568 C561 1.403 . S
C568 C569 1.399 1_565 S
C568 H574 0.929 . S
C569 C549 1.449 1_545 S
C569 C568 1.399 1_545 S
C569 H575 0.930 . S
H570 C550 0.931 . S
H571 C551 0.930 . S
H572 C559 0.931 . S
H573 C560 0.929 . S
H574 C568 0.929 . S
H575 C569 0.930 . S
Mn576 O581 2.095 . S
Mn576 O591 2.162 . S
Mn576 O592 2.297 . S
Mn576 O600 2.385 1_545 S
Mn576 O601 2.209 . S
Mn576 O602 2.094 . S
Mn577 O582 2.121 . S
Mn577 N584 2.263 . S
Mn577 N593 2.282 1_545 S
Mn577 O601 2.215 . S
Mn577 O603 2.117 . S
C578 O600 1.234 . S
C578 O601 1.283 1_565 S
C579 O591 1.281 . S
C579 O592 1.236 . S
C580 O602 1.240 . S
C580 O603 1.264 . S
O581 Mn576 2.095 . S
O581 C590 1.250 . S
O582 Mn577 2.121 . S
O582 C590 1.258 . S
C583 N584 1.359 . S
C583 C587 1.460 1_545 S
C583 H589 0.929 . S
N584 Mn577 2.263 . S
N584 C583 1.359 . S
N584 C588 1.322 1_545 S
C585 C586 1.258 . S
C585 C588 1.431 . S
C585 C605 1.449 . S
C586 C585 1.258 . S
C586 C587 1.477 . S
C586 H606 0.931 . S
C587 C583 1.460 1_565 S
C587 C586 1.477 . S
C587 H607 0.930 1_565 S
C588 N584 1.322 1_565 S
C588 C585 1.431 . S
C588 C598 1.476 . S
H589 C583 0.929 . S
C590 O581 1.250 . S
C590 O582 1.258 . S
O591 Mn576 2.162 . S
O591 C579 1.281 . S
O592 Mn576 2.297 . S
O592 C579 1.236 . S
N593 Mn577 2.282 1_565 S
N593 C594 1.328 . S
N593 C598 1.318 . S
C594 N593 1.328 . S
C594 C595 1.457 . S
C594 H599 0.929 . S
C595 C594 1.457 . S
C595 C596 1.291 . S
C595 H608 0.931 . S
C596 C595 1.291 . S
C596 C597 1.373 . S
C596 H609 0.929 . S
C597 C596 1.373 . S
C597 C598 1.396 . S
C597 C604 1.403 . S
C598 C588 1.476 . S
C598 N593 1.318 . S
C598 C597 1.396 . S
H599 C594 0.929 . S
O600 Mn576 2.385 1_565 S
O600 C578 1.234 . S
O601 Mn576 2.209 . S
O601 Mn577 2.215 . S
O601 C578 1.283 1_545 S
O602 Mn576 2.094 . S
O602 C580 1.240 . S
O603 Mn577 2.117 . S
O603 C580 1.264 . S
C604 C597 1.403 . S
C604 C605 1.399 . S
C604 H610 0.929 . S
C605 C585 1.449 . S
C605 C604 1.399 . S
C605 H611 0.930 . S
H606 C586 0.931 . S
H607 C587 0.930 1_545 S
H608 C595 0.931 . S
H609 C596 0.929 . S
H610 C604 0.929 . S
H611 C605 0.930 . S
Mn612 O617 2.095 . S
Mn612 O627 2.162 . S
Mn612 O628 2.297 . S
Mn612 O636 2.385 . S
Mn612 O637 2.209 . S
Mn612 O638 2.094 . S
Mn613 O618 2.121 . S
Mn613 N620 2.257 . S
Mn613 N629 2.282 . S
Mn613 O637 2.215 . S
Mn613 O639 2.117 . S
C614 O636 1.234 . S
C614 O637 1.283 . S
C615 O627 1.281 . S
C615 O628 1.236 . S
C616 O638 1.240 . S
C616 O639 1.264 . S
O617 Mn612 2.095 . S
O617 C626 1.250 . S
O618 Mn613 2.121 . S
O618 C626 1.258 . S
C619 N620 1.326 . S
C619 C623 1.460 . S
C619 H625 0.929 . S
N620 Mn613 2.257 . S
N620 C619 1.326 . S
N620 C624 1.362 . S
C621 C622 1.258 . S
C621 C624 1.431 . S
C621 C641 1.449 . S
C622 C621 1.258 . S
C622 C623 1.477 . S
C622 H642 0.931 . S
C623 C619 1.460 . S
C623 C622 1.477 . S
C623 H643 0.930 . S
C624 N620 1.362 . S
C624 C621 1.431 . S
C624 C634 1.476 . S
H625 C619 0.929 . S
C626 O617 1.250 . S
C626 O618 1.258 . S
O627 Mn612 2.162 . S
O627 C615 1.281 . S
O628 Mn612 2.297 . S
O628 C615 1.236 . S
N629 Mn613 2.282 . S
N629 C630 1.328 . S
N629 C634 1.318 . S
C630 N629 1.328 . S
C630 C631 1.457 . S
C630 H635 0.929 . S
C631 C630 1.457 . S
C631 C632 1.291 . S
C631 H644 0.931 . S
C632 C631 1.291 . S
C632 C633 1.373 . S
C632 H645 0.929 . S
C633 C632 1.373 . S
C633 C634 1.396 . S
C633 C640 1.403 . S
C634 C624 1.476 . S
C634 N629 1.318 . S
C634 C633 1.396 . S
H635 C630 0.929 . S
O636 Mn612 2.385 . S
O636 C614 1.234 . S
O637 Mn612 2.209 . S
O637 Mn613 2.215 . S
O637 C614 1.283 . S
O638 Mn612 2.094 . S
O638 C616 1.240 . S
O639 Mn613 2.117 . S
O639 C616 1.264 . S
C640 C633 1.403 . S
C640 C641 1.399 . S
C640 H646 0.929 . S
C641 C621 1.449 . S
C641 C640 1.399 . S
C641 H647 0.930 . S
H642 C622 0.931 . S
H643 C623 0.930 . S
H644 C631 0.931 . S
H645 C632 0.929 . S
H646 C640 0.929 . S
H647 C641 0.930 . S
Mn648 O653 2.095 . S
Mn648 O663 2.162 . S
Mn648 O664 2.297 . S
Mn648 O672 2.385 . S
Mn648 O673 2.209 . S
Mn648 O674 2.094 . S
Mn649 O654 2.121 . S
Mn649 N656 2.257 . S
Mn649 N665 2.282 . S
Mn649 O673 2.215 . S
Mn649 O675 2.117 . S
C650 O672 1.234 . S
C650 O673 1.283 . S
C651 O663 1.281 . S
C651 O664 1.236 . S
C652 O674 1.240 . S
C652 O675 1.264 . S
O653 Mn648 2.095 . S
O653 C662 1.250 . S
O654 Mn649 2.121 . S
O654 C662 1.258 . S
C655 N656 1.326 . S
C655 C659 1.460 . S
C655 H661 0.929 . S
N656 Mn649 2.257 . S
N656 C655 1.326 . S
N656 C660 1.362 . S
C657 C658 1.258 . S
C657 C660 1.431 . S
C657 C677 1.449 . S
C658 C657 1.258 . S
C658 C659 1.477 . S
C658 H678 0.931 . S
C659 C655 1.460 . S
C659 C658 1.477 . S
C659 H679 0.930 . S
C660 N656 1.362 . S
C660 C657 1.431 . S
C660 C670 1.476 . S
H661 C655 0.929 . S
C662 O653 1.250 . S
C662 O654 1.258 . S
O663 Mn648 2.162 . S
O663 C651 1.281 . S
O664 Mn648 2.297 . S
O664 C651 1.236 . S
N665 Mn649 2.282 . S
N665 C666 1.328 . S
N665 C670 1.318 . S
C666 N665 1.328 . S
C666 C667 1.457 . S
C666 H671 0.929 . S
C667 C666 1.457 . S
C667 C668 1.291 . S
C667 H680 0.931 . S
C668 C667 1.291 . S
C668 C669 1.373 . S
C668 H681 0.929 . S
C669 C668 1.373 . S
C669 C670 1.396 . S
C669 C676 1.403 . S
C670 C660 1.476 . S
C670 N665 1.318 . S
C670 C669 1.396 . S
H671 C666 0.929 . S
O672 Mn648 2.385 . S
O672 C650 1.234 . S
O673 Mn648 2.209 . S
O673 Mn649 2.215 . S
O673 C650 1.283 . S
O674 Mn648 2.094 . S
O674 C652 1.240 . S
O675 Mn649 2.117 . S
O675 C652 1.264 . S
C676 C669 1.403 . S
C676 C677 1.399 . S
C676 H682 0.929 . S
C677 C657 1.449 . S
C677 C676 1.399 . S
C677 H683 0.930 . S
H678 C658 0.931 . S
H679 C659 0.930 . S
H680 C667 0.931 . S
H681 C668 0.929 . S
H682 C676 0.929 . S
H683 C677 0.930 . S
Mn684 O689 2.095 . S
Mn684 O699 2.162 . S
Mn684 O700 2.297 . S
Mn684 O708 2.385 . S
Mn684 O709 2.209 . S
Mn684 O710 2.094 . S
Mn685 O690 2.121 . S
Mn685 N692 2.257 . S
Mn685 N701 2.282 . S
Mn685 O709 2.215 . S
Mn685 O711 2.117 . S
C686 O708 1.234 . S
C686 O709 1.283 . S
C687 O699 1.281 . S
C687 O700 1.236 . S
C688 O710 1.240 . S
C688 O711 1.264 . S
O689 Mn684 2.095 . S
O689 C698 1.250 . S
O690 Mn685 2.121 . S
O690 C698 1.258 . S
C691 N692 1.326 . S
C691 C695 1.460 . S
C691 H697 0.929 . S
N692 Mn685 2.257 . S
N692 C691 1.326 . S
N692 C696 1.362 . S
C693 C694 1.258 . S
C693 C696 1.431 . S
C693 C713 1.449 . S
C694 C693 1.258 . S
C694 C695 1.477 . S
C694 H714 0.931 . S
C695 C691 1.460 . S
C695 C694 1.477 . S
C695 H715 0.930 . S
C696 N692 1.362 . S
C696 C693 1.431 . S
C696 C706 1.476 . S
H697 C691 0.929 . S
C698 O689 1.250 . S
C698 O690 1.258 . S
O699 Mn684 2.162 . S
O699 C687 1.281 . S
O700 Mn684 2.297 . S
O700 C687 1.236 . S
N701 Mn685 2.282 . S
N701 C702 1.328 . S
N701 C706 1.318 . S
C702 N701 1.328 . S
C702 C703 1.457 . S
C702 H707 0.929 . S
C703 C702 1.457 . S
C703 C704 1.291 . S
C703 H716 0.931 . S
C704 C703 1.291 . S
C704 C705 1.373 . S
C704 H717 0.929 . S
C705 C704 1.373 . S
C705 C706 1.396 . S
C705 C712 1.403 . S
C706 C696 1.476 . S
C706 N701 1.318 . S
C706 C705 1.396 . S
H707 C702 0.929 . S
O708 Mn684 2.385 . S
O708 C686 1.234 . S
O709 Mn684 2.209 . S
O709 Mn685 2.215 . S
O709 C686 1.283 . S
O710 Mn684 2.094 . S
O710 C688 1.240 . S
O711 Mn685 2.117 . S
O711 C688 1.264 . S
C712 C705 1.403 . S
C712 C713 1.399 . S
C712 H718 0.929 . S
C713 C693 1.449 . S
C713 C712 1.399 . S
C713 H719 0.930 . S
H714 C694 0.931 . S
H715 C695 0.930 . S
H716 C703 0.931 . S
H717 C704 0.929 . S
H718 C712 0.929 . S
H719 C713 0.930 . S
Mn720 O725 2.095 . S
Mn720 O735 2.162 . S
Mn720 O736 2.297 . S
Mn720 O744 2.385 . S
Mn720 O745 2.209 . S
Mn720 O746 2.094 . S
Mn721 O726 2.121 1_556 S
Mn721 N728 2.257 . S
Mn721 N737 2.282 . S
Mn721 O745 2.215 1_556 S
Mn721 O747 2.117 . S
C722 O744 1.234 . S
C722 O745 1.283 . S
C723 O735 1.281 . S
C723 O736 1.236 . S
C724 O746 1.240 1_556 S
C724 O747 1.264 . S
O725 Mn720 2.095 . S
O725 C734 1.250 . S
O726 Mn721 2.121 1_554 S
O726 C734 1.258 . S
C727 N728 1.326 . S
C727 C731 1.460 . S
C727 H733 0.929 1_556 S
N728 Mn721 2.257 . S
N728 C727 1.326 . S
N728 C732 1.362 . S
C729 C730 1.258 . S
C729 C732 1.431 . S
C729 C749 1.449 . S
C730 C729 1.258 . S
C730 C731 1.477 . S
C730 H750 0.931 . S
C731 C727 1.460 . S
C731 C730 1.477 . S
C731 H751 0.930 1_556 S
C732 N728 1.362 . S
C732 C729 1.431 . S
C732 C742 1.476 . S
H733 C727 0.929 1_554 S
C734 O725 1.250 . S
C734 O726 1.258 . S
O735 Mn720 2.162 . S
O735 C723 1.281 . S
O736 Mn720 2.297 . S
O736 C723 1.236 . S
N737 Mn721 2.282 . S
N737 C738 1.328 . S
N737 C742 1.318 . S
C738 N737 1.328 . S
C738 C739 1.457 . S
C738 H743 0.929 . S
C739 C738 1.457 . S
C739 C740 1.291 . S
C739 H752 0.931 . S
C740 C739 1.291 . S
C740 C741 1.373 . S
C740 H753 0.929 . S
C741 C740 1.373 . S
C741 C742 1.396 . S
C741 C748 1.403 . S
C742 C732 1.476 . S
C742 N737 1.318 . S
C742 C741 1.396 . S
H743 C738 0.929 . S
O744 Mn720 2.385 . S
O744 C722 1.234 . S
O745 Mn720 2.209 . S
O745 Mn721 2.215 1_554 S
O745 C722 1.283 . S
O746 Mn720 2.094 . S
O746 C724 1.240 1_554 S
O747 Mn721 2.117 . S
O747 C724 1.264 . S
C748 C741 1.403 . S
C748 C749 1.399 . S
C748 H754 0.929 . S
C749 C729 1.449 . S
C749 C748 1.399 . S
C749 H755 0.930 . S
H750 C730 0.931 . S
H751 C731 0.930 1_554 S
H752 C739 0.931 . S
H753 C740 0.929 . S
H754 C748 0.929 . S
H755 C749 0.930 . S
Mn756 O761 2.095 . S
Mn756 O771 2.162 . S
Mn756 O772 2.297 . S
Mn756 O780 2.385 . S
Mn756 O781 2.209 . S
Mn756 O782 2.094 . S
Mn757 O762 2.121 . S
Mn757 N764 2.257 . S
Mn757 N773 2.282 . S
Mn757 O781 2.215 . S
Mn757 O783 2.117 . S
C758 O780 1.234 . S
C758 O781 1.283 . S
C759 O771 1.281 . S
C759 O772 1.236 . S
C760 O782 1.240 . S
C760 O783 1.264 . S
O761 Mn756 2.095 . S
O761 C770 1.250 . S
O762 Mn757 2.121 . S
O762 C770 1.258 . S
C763 N764 1.326 . S
C763 C767 1.460 . S
C763 H769 0.929 . S
N764 Mn757 2.257 . S
N764 C763 1.326 . S
N764 C768 1.362 . S
C765 C766 1.258 . S
C765 C768 1.431 . S
C765 C785 1.449 . S
C766 C765 1.258 . S
C766 C767 1.477 . S
C766 H786 0.931 . S
C767 C763 1.460 . S
C767 C766 1.477 . S
C767 H787 0.930 . S
C768 N764 1.362 . S
C768 C765 1.431 . S
C768 C778 1.476 . S
H769 C763 0.929 . S
C770 O761 1.250 . S
C770 O762 1.258 . S
O771 Mn756 2.162 . S
O771 C759 1.281 . S
O772 Mn756 2.297 . S
O772 C759 1.236 . S
N773 Mn757 2.282 . S
N773 C774 1.328 . S
N773 C778 1.318 . S
C774 N773 1.328 . S
C774 C775 1.457 . S
C774 H779 0.929 . S
C775 C774 1.457 . S
C775 C776 1.291 . S
C775 H788 0.931 . S
C776 C775 1.291 . S
C776 C777 1.373 . S
C776 H789 0.929 . S
C777 C776 1.373 . S
C777 C778 1.396 . S
C777 C784 1.403 . S
C778 C768 1.476 . S
C778 N773 1.318 . S
C778 C777 1.396 . S
H779 C774 0.929 . S
O780 Mn756 2.385 . S
O780 C758 1.234 . S
O781 Mn756 2.209 . S
O781 Mn757 2.215 . S
O781 C758 1.283 . S
O782 Mn756 2.094 . S
O782 C760 1.240 . S
O783 Mn757 2.117 . S
O783 C760 1.264 . S
C784 C777 1.403 . S
C784 C785 1.399 . S
C784 H790 0.929 . S
C785 C765 1.449 . S
C785 C784 1.399 . S
C785 H791 0.930 . S
H786 C766 0.931 . S
H787 C767 0.930 . S
H788 C775 0.931 . S
H789 C776 0.929 . S
H790 C784 0.929 . S
H791 C785 0.930 . S
Mn792 O797 2.095 . S
Mn792 O807 2.162 . S
Mn792 O808 2.297 . S
Mn792 O816 2.385 . S
Mn792 O817 2.209 . S
Mn792 O818 2.094 . S
Mn793 O798 2.121 . S
Mn793 N800 2.257 . S
Mn793 N809 2.282 . S
Mn793 O817 2.215 . S
Mn793 O819 2.117 . S
C794 O816 1.234 . S
C794 O817 1.283 . S
C795 O807 1.281 . S
C795 O808 1.236 . S
C796 O818 1.240 . S
C796 O819 1.264 . S
O797 Mn792 2.095 . S
O797 C806 1.250 . S
O798 Mn793 2.121 . S
O798 C806 1.258 . S
C799 N800 1.326 . S
C799 C803 1.460 . S
C799 H805 0.929 . S
N800 Mn793 2.257 . S
N800 C799 1.326 . S
N800 C804 1.362 . S
C801 C802 1.258 . S
C801 C804 1.431 . S
C801 C821 1.449 . S
C802 C801 1.258 . S
C802 C803 1.477 . S
C802 H822 0.931 . S
C803 C799 1.460 . S
C803 C802 1.477 . S
C803 H823 0.930 . S
C804 N800 1.362 . S
C804 C801 1.431 . S
C804 C814 1.476 . S
H805 C799 0.929 . S
C806 O797 1.250 . S
C806 O798 1.258 . S
O807 Mn792 2.162 . S
O807 C795 1.281 . S
O808 Mn792 2.297 . S
O808 C795 1.236 . S
N809 Mn793 2.282 . S
N809 C810 1.328 . S
N809 C814 1.318 . S
C810 N809 1.328 . S
C810 C811 1.457 . S
C810 H815 0.929 . S
C811 C810 1.457 . S
C811 C812 1.291 . S
C811 H824 0.931 . S
C812 C811 1.291 . S
C812 C813 1.373 . S
C812 H825 0.929 . S
C813 C812 1.373 . S
C813 C814 1.396 . S
C813 C820 1.403 . S
C814 C804 1.476 . S
C814 N809 1.318 . S
C814 C813 1.396 . S
H815 C810 0.929 . S
O816 Mn792 2.385 . S
O816 C794 1.234 . S
O817 Mn792 2.209 . S
O817 Mn793 2.215 . S
O817 C794 1.283 . S
O818 Mn792 2.094 . S
O818 C796 1.240 . S
O819 Mn793 2.117 . S
O819 C796 1.264 . S
C820 C813 1.403 . S
C820 C821 1.399 . S
C820 H826 0.929 . S
C821 C801 1.449 . S
C821 C820 1.399 . S
C821 H827 0.930 . S
H822 C802 0.931 . S
H823 C803 0.930 . S
H824 C811 0.931 . S
H825 C812 0.929 . S
H826 C820 0.929 . S
H827 C821 0.930 . S
Mn828 O833 2.095 . S
Mn828 O843 2.162 . S
Mn828 O844 2.297 . S
Mn828 O852 2.385 . S
Mn828 O853 2.209 . S
Mn828 O854 2.094 . S
Mn829 O834 2.121 . S
Mn829 N836 2.257 . S
Mn829 N845 2.282 . S
Mn829 O853 2.215 . S
Mn829 O855 2.117 . S
C830 O852 1.234 . S
C830 O853 1.283 . S
C831 O843 1.281 . S
C831 O844 1.236 . S
C832 O854 1.240 . S
C832 O855 1.264 . S
O833 Mn828 2.095 . S
O833 C842 1.250 . S
O834 Mn829 2.121 . S
O834 C842 1.258 . S
C835 N836 1.326 . S
C835 C839 1.460 . S
C835 H841 0.929 . S
N836 Mn829 2.257 . S
N836 C835 1.326 . S
N836 C840 1.362 . S
C837 C838 1.258 . S
C837 C840 1.431 . S
C837 C857 1.449 . S
C838 C837 1.258 . S
C838 C839 1.477 . S
C838 H858 0.931 . S
C839 C835 1.460 . S
C839 C838 1.477 . S
C839 H859 0.930 . S
C840 N836 1.362 . S
C840 C837 1.431 . S
C840 C850 1.476 . S
H841 C835 0.929 . S
C842 O833 1.250 . S
C842 O834 1.258 . S
O843 Mn828 2.162 . S
O843 C831 1.281 . S
O844 Mn828 2.297 . S
O844 C831 1.236 . S
N845 Mn829 2.282 . S
N845 C846 1.328 . S
N845 C850 1.318 . S
C846 N845 1.328 . S
C846 C847 1.457 . S
C846 H851 0.929 . S
C847 C846 1.457 . S
C847 C848 1.291 . S
C847 H860 0.931 . S
C848 C847 1.291 . S
C848 C849 1.373 . S
C848 H861 0.929 . S
C849 C848 1.373 . S
C849 C850 1.396 . S
C849 C856 1.403 . S
C850 C840 1.476 . S
C850 N845 1.318 . S
C850 C849 1.396 . S
H851 C846 0.929 . S
O852 Mn828 2.385 . S
O852 C830 1.234 . S
O853 Mn828 2.209 . S
O853 Mn829 2.215 . S
O853 C830 1.283 . S
O854 Mn828 2.094 . S
O854 C832 1.240 . S
O855 Mn829 2.117 . S
O855 C832 1.264 . S
C856 C849 1.403 . S
C856 C857 1.399 . S
C856 H862 0.929 . S
C857 C837 1.449 . S
C857 C856 1.399 . S
C857 H863 0.930 . S
H858 C838 0.931 . S
H859 C839 0.930 . S
H860 C847 0.931 . S
H861 C848 0.929 . S
H862 C856 0.929 . S
H863 C857 0.930 . S
Dy864 O867 2.307 . S
Dy864 O869 2.395 . S
Dy864 O870 2.379 . S
Dy864 O872 2.339 . S
Dy864 O874 2.298 . S
Dy864 O878 2.275 . S
Dy864 C886 2.738 . S
Dy865 O868 2.298 1_655 S
Dy865 O871 2.275 1_655 S
Dy865 O873 2.307 1_645 S
Dy865 O875 2.395 . S
Dy865 O876 2.379 1_554 S
Dy865 O879 2.339 1_654 S
Dy865 C895 2.738 . S
C866 O878 1.254 1_556 S
C866 O879 1.257 . S
O867 Dy864 2.307 . S
O867 C877 1.266 . S
O868 Dy865 2.298 1_455 S
O868 C877 1.236 . S
O869 Dy864 2.395 . S
O869 C886 1.255 . S
O870 Dy864 2.379 . S
O870 C886 1.249 . S
O871 Dy865 2.275 1_455 S
O871 C887 1.254 . S
O872 Dy864 2.339 . S
O872 C887 1.257 . S
O873 Dy865 2.307 1_465 S
O873 C888 1.266 . S
O874 Dy864 2.298 . S
O874 C888 1.236 1_545 S
O875 Dy865 2.395 . S
O875 C895 1.255 . S
O876 Dy865 2.379 1_556 S
O876 C895 1.249 1_556 S
C877 O867 1.266 . S
C877 O868 1.236 . S
O878 Dy864 2.275 . S
O878 C866 1.254 1_554 S
O879 Dy865 2.339 1_456 S
O879 C866 1.257 . S
C880 C883 1.344 . S
C880 C884 1.328 . S
C880 C886 1.516 . S
C881 C882 1.304 . S
C881 C885 1.323 . S
C882 C881 1.304 . S
C882 C883 1.371 . S
C882 H896 0.930 1_545 S
C883 C880 1.344 . S
C883 C882 1.371 . S
C883 H897 0.931 . S
C884 C880 1.328 . S
C884 C885 1.433 . S
C884 H898 0.931 . S
C885 C881 1.323 . S
C885 C884 1.433 . S
C885 H899 0.933 . S
C886 Dy864 2.738 . S
C886 O869 1.255 . S
C886 O870 1.249 . S
C886 C880 1.516 . S
C887 O871 1.254 . S
C887 O872 1.257 . S
C888 O873 1.266 . S
C888 O874 1.236 1_565 S
C889 C892 1.344 . S
C889 C893 1.328 1_554 S
C889 C895 1.516 . S
C890 C891 1.304 . S
C890 C894 1.323 1_554 S
C891 C890 1.304 . S
C891 C892 1.371 . S
C891 H900 0.930 . S
C892 C889 1.344 . S
C892 C891 1.371 . S
C892 H901 0.931 . S
C893 C889 1.328 1_556 S
C893 C894 1.433 . S
C893 H902 0.931 . S
C894 C890 1.323 1_556 S
C894 C893 1.433 . S
C894 H903 0.933 . S
C895 Dy865 2.738 . S
C895 O875 1.255 . S
C895 O876 1.249 1_554 S
C895 C889 1.516 . S
H896 C882 0.930 1_565 S
H897 C883 0.931 . S
H898 C884 0.931 . S
H899 C885 0.933 . S
H900 C891 0.930 . S
H901 C892 0.931 . S
H902 C893 0.931 . S
H903 C894 0.933 . S
Dy904 O907 2.307 . S
Dy904 O909 2.395 . S
Dy904 O910 2.379 . S
Dy904 O912 2.339 . S
Dy904 O914 2.298 . S
Dy904 O918 2.275 . S
Dy904 C926 2.738 . S
Dy905 O908 2.298 . S
Dy905 O911 2.275 . S
Dy905 O913 2.307 . S
Dy905 O915 2.395 . S
Dy905 O916 2.379 . S
Dy905 O919 2.339 . S
Dy905 C935 2.738 . S
C906 O918 1.254 . S
C906 O919 1.257 . S
O907 Dy904 2.307 . S
O907 C917 1.266 . S
O908 Dy905 2.298 . S
O908 C917 1.236 . S
O909 Dy904 2.395 . S
O909 C926 1.255 . S
O910 Dy904 2.379 . S
O910 C926 1.249 . S
O911 Dy905 2.275 . S
O911 C927 1.254 . S
O912 Dy904 2.339 . S
O912 C927 1.257 . S
O913 Dy905 2.307 . S
O913 C928 1.266 . S
O914 Dy904 2.298 . S
O914 C928 1.236 . S
O915 Dy905 2.395 . S
O915 C935 1.255 . S
O916 Dy905 2.379 . S
O916 C935 1.249 . S
C917 O907 1.266 . S
C917 O908 1.236 . S
O918 Dy904 2.275 . S
O918 C906 1.254 . S
O919 Dy905 2.339 . S
O919 C906 1.257 . S
C920 C923 1.344 . S
C920 C924 1.328 . S
C920 C926 1.516 . S
C921 C922 1.304 . S
C921 C925 1.323 . S
C922 C921 1.304 . S
C922 C923 1.371 . S
C922 H936 0.930 . S
C923 C920 1.344 . S
C923 C922 1.371 . S
C923 H937 0.931 . S
C924 C920 1.328 . S
C924 C925 1.433 . S
C924 H938 0.931 . S
C925 C921 1.323 . S
C925 C924 1.433 . S
C925 H939 0.933 . S
C926 Dy904 2.738 . S
C926 O909 1.255 . S
C926 O910 1.249 . S
C926 C920 1.516 . S
C927 O911 1.254 . S
C927 O912 1.257 . S
C928 O913 1.266 . S
C928 O914 1.236 . S
C929 C932 1.344 . S
C929 C933 1.328 . S
C929 C935 1.516 . S
C930 C931 1.304 . S
C930 C934 1.323 . S
C931 C930 1.304 . S
C931 C932 1.371 . S
C931 H940 0.930 . S
C932 C929 1.344 . S
C932 C931 1.371 . S
C932 H941 0.931 . S
C933 C929 1.328 . S
C933 C934 1.433 . S
C933 H942 0.931 . S
C934 C930 1.323 . S
C934 C933 1.433 . S
C934 H943 0.933 . S
C935 Dy905 2.738 . S
C935 O915 1.255 . S
C935 O916 1.249 . S
C935 C929 1.516 . S
H936 C922 0.930 . S
H937 C923 0.931 . S
H938 C924 0.931 . S
H939 C925 0.933 . S
H940 C931 0.930 . S
H941 C932 0.931 . S
H942 C933 0.931 . S
H943 C934 0.933 . S
Dy944 O947 2.307 . S
Dy944 O949 2.395 . S
Dy944 O950 2.379 . S
Dy944 O952 2.339 . S
Dy944 O954 2.298 . S
Dy944 O958 2.275 . S
Dy944 C966 2.738 . S
Dy945 O948 2.298 . S
Dy945 O951 2.275 . S
Dy945 O953 2.307 . S
Dy945 O955 2.395 . S
Dy945 O956 2.379 . S
Dy945 O959 2.339 . S
Dy945 C975 2.738 . S
C946 O958 1.254 . S
C946 O959 1.257 . S
O947 Dy944 2.307 . S
O947 C957 1.266 1_545 S
O948 Dy945 2.298 . S
O948 C957 1.236 1_545 S
O949 Dy944 2.395 . S
O949 C966 1.255 . S
O950 Dy944 2.379 . S
O950 C966 1.249 . S
O951 Dy945 2.275 . S
O951 C967 1.254 . S
O952 Dy944 2.339 . S
O952 C967 1.257 . S
O953 Dy945 2.307 . S
O953 C968 1.266 . S
O954 Dy944 2.298 . S
O954 C968 1.236 . S
O955 Dy945 2.395 . S
O955 C975 1.255 . S
O956 Dy945 2.379 . S
O956 C975 1.249 . S
C957 O947 1.266 1_565 S
C957 O948 1.236 1_565 S
O958 Dy944 2.275 . S
O958 C946 1.254 . S
O959 Dy945 2.339 . S
O959 C946 1.257 . S
C960 C963 1.344 . S
C960 C964 1.328 . S
C960 C966 1.516 . S
C961 C962 1.304 . S
C961 C965 1.323 . S
C962 C961 1.304 . S
C962 C963 1.371 . S
C962 H976 0.930 . S
C963 C960 1.344 . S
C963 C962 1.371 . S
C963 H977 0.931 . S
C964 C960 1.328 . S
C964 C965 1.433 . S
C964 H978 0.931 . S
C965 C961 1.323 . S
C965 C964 1.433 . S
C965 H979 0.933 . S
C966 Dy944 2.738 . S
C966 O949 1.255 . S
C966 O950 1.249 . S
C966 C960 1.516 . S
C967 O951 1.254 . S
C967 O952 1.257 . S
C968 O953 1.266 . S
C968 O954 1.236 . S
C969 C972 1.346 1_545 S
C969 C973 1.328 . S
C969 C975 1.516 . S
C970 C971 1.304 . S
C970 C974 1.323 . S
C971 C970 1.304 . S
C971 C972 1.369 . S
C971 H980 0.930 . S
C972 C969 1.346 1_565 S
C972 C971 1.369 . S
C972 H981 0.931 1_565 S
C973 C969 1.328 . S
C973 C974 1.433 1_545 S
C973 H982 0.931 . S
C974 C970 1.323 . S
C974 C973 1.433 1_565 S
C974 H983 0.933 . S
C975 Dy945 2.738 . S
C975 O955 1.255 . S
C975 O956 1.249 . S
C975 C969 1.516 . S
H976 C962 0.930 . S
H977 C963 0.931 . S
H978 C964 0.931 . S
H979 C965 0.933 . S
H980 C971 0.930 . S
H981 C972 0.931 1_545 S
H982 C973 0.931 . S
H983 C974 0.933 . S
Dy984 O987 2.307 . S
Dy984 O989 2.395 . S
Dy984 O990 2.379 . S
Dy984 O992 2.339 . S
Dy984 O994 2.298 . S
Dy984 O998 2.275 . S
Dy984 C1006 2.738 . S
Dy985 O988 2.298 . S
Dy985 O991 2.275 . S
Dy985 O993 2.307 . S
Dy985 O995 2.395 . S
Dy985 O996 2.379 . S
Dy985 O999 2.339 . S
Dy985 C1015 2.738 . S
C986 O998 1.254 . S
C986 O999 1.257 . S
O987 Dy984 2.307 . S
O987 C997 1.266 . S
O988 Dy985 2.298 . S
O988 C997 1.236 . S
O989 Dy984 2.395 . S
O989 C1006 1.255 . S
O990 Dy984 2.379 . S
O990 C1006 1.249 . S
O991 Dy985 2.275 . S
O991 C1007 1.254 . S
O992 Dy984 2.339 . S
O992 C1007 1.257 . S
O993 Dy985 2.307 . S
O993 C1008 1.266 . S
O994 Dy984 2.298 . S
O994 C1008 1.236 . S
O995 Dy985 2.395 . S
O995 C1015 1.255 . S
O996 Dy985 2.379 . S
O996 C1015 1.249 . S
C997 O987 1.266 . S
C997 O988 1.236 . S
O998 Dy984 2.275 . S
O998 C986 1.254 . S
O999 Dy985 2.339 . S
O999 C986 1.257 . S
C1000 C1003 1.344 . S
C1000 C1004 1.328 . S
C1000 C1006 1.516 . S
C1001 C1002 1.304 . S
C1001 C1005 1.323 . S
C1002 C1001 1.304 . S
C1002 C1003 1.371 . S
C1002 H1016 0.930 . S
C1003 C1000 1.344 . S
C1003 C1002 1.371 . S
C1003 H1017 0.931 . S
C1004 C1000 1.328 . S
C1004 C1005 1.433 . S
C1004 H1018 0.931 . S
C1005 C1001 1.323 . S
C1005 C1004 1.433 . S
C1005 H1019 0.933 . S
C1006 Dy984 2.738 . S
C1006 O989 1.255 . S
C1006 O990 1.249 . S
C1006 C1000 1.516 . S
C1007 O991 1.254 . S
C1007 O992 1.257 . S
C1008 O993 1.266 . S
C1008 O994 1.236 . S
C1009 C1012 1.344 . S
C1009 C1013 1.328 . S
C1009 C1015 1.516 . S
C1010 C1011 1.304 . S
C1010 C1014 1.323 . S
C1011 C1010 1.304 . S
C1011 C1012 1.371 . S
C1011 H1020 0.930 . S
C1012 C1009 1.344 . S
C1012 C1011 1.371 . S
C1012 H1021 0.931 . S
C1013 C1009 1.328 . S
C1013 C1014 1.433 . S
C1013 H1022 0.931 . S
C1014 C1010 1.323 . S
C1014 C1013 1.433 . S
C1014 H1023 0.933 . S
C1015 Dy985 2.738 . S
C1015 O995 1.255 . S
C1015 O996 1.249 . S
C1015 C1009 1.516 . S
H1016 C1002 0.930 . S
H1017 C1003 0.931 . S
H1018 C1004 0.931 . S
H1019 C1005 0.933 . S
H1020 C1011 0.930 . S
H1021 C1012 0.931 . S
H1022 C1013 0.931 . S
H1023 C1014 0.933 . S
Dy1024 O1027 2.307 . S
Dy1024 O1029 2.395 1_545 S
Dy1024 O1030 2.379 1_545 S
Dy1024 O1032 2.339 . S
Dy1024 O1034 2.298 . S
Dy1024 O1038 2.275 . S
Dy1024 C1046 2.738 1_545 S
Dy1025 O1028 2.298 . S
Dy1025 O1031 2.275 . S
Dy1025 O1033 2.307 . S
Dy1025 O1035 2.395 . S
Dy1025 O1036 2.379 1_455 S
Dy1025 O1039 2.339 1_455 S
Dy1025 C1055 2.738 . S
C1026 O1038 1.254 1_655 S
C1026 O1039 1.257 . S
O1027 Dy1024 2.307 . S
O1027 C1037 1.266 . S
O1028 Dy1025 2.298 . S
O1028 C1037 1.236 . S
O1029 Dy1024 2.395 1_565 S
O1029 C1046 1.255 . S
O1030 Dy1024 2.379 1_565 S
O1030 C1046 1.249 . S
O1031 Dy1025 2.275 . S
O1031 C1047 1.254 . S
O1032 Dy1024 2.339 . S
O1032 C1047 1.257 . S
O1033 Dy1025 2.307 . S
O1033 C1048 1.266 . S
O1034 Dy1024 2.298 . S
O1034 C1048 1.236 . S
O1035 Dy1025 2.395 . S
O1035 C1055 1.255 . S
O1036 Dy1025 2.379 1_655 S
O1036 C1055 1.249 1_655 S
C1037 O1027 1.266 . S
C1037 O1028 1.236 . S
O1038 Dy1024 2.275 . S
O1038 C1026 1.254 1_455 S
O1039 Dy1025 2.339 1_655 S
O1039 C1026 1.257 . S
C1040 C1043 1.344 . S
C1040 C1044 1.328 . S
C1040 C1046 1.516 . S
C1041 C1042 1.304 . S
C1041 C1045 1.323 . S
C1042 C1041 1.304 . S
C1042 C1043 1.371 . S
C1042 H1056 0.930 . S
C1043 C1040 1.344 . S
C1043 C1042 1.371 . S
C1043 H1057 0.931 . S
C1044 C1040 1.328 . S
C1044 C1045 1.433 . S
C1044 H1058 0.931 . S
C1045 C1041 1.323 . S
C1045 C1044 1.433 . S
C1045 H1059 0.933 . S
C1046 Dy1024 2.738 1_565 S
C1046 O1029 1.255 . S
C1046 O1030 1.249 . S
C1046 C1040 1.516 . S
C1047 O1031 1.254 . S
C1047 O1032 1.257 . S
C1048 O1033 1.266 . S
C1048 O1034 1.236 . S
C1049 C1052 1.344 . S
C1049 C1053 1.328 1_455 S
C1049 C1055 1.516 . S
C1050 C1051 1.304 . S
C1050 C1054 1.323 1_455 S
C1051 C1050 1.304 . S
C1051 C1052 1.371 . S
C1051 H1060 0.930 . S
C1052 C1049 1.344 . S
C1052 C1051 1.371 . S
C1052 H1061 0.931 . S
C1053 C1049 1.328 1_655 S
C1053 C1054 1.433 . S
C1053 H1062 0.931 . S
C1054 C1050 1.323 1_655 S
C1054 C1053 1.433 . S
C1054 H1063 0.933 . S
C1055 Dy1025 2.738 . S
C1055 O1035 1.255 . S
C1055 O1036 1.249 1_455 S
C1055 C1049 1.516 . S
H1056 C1042 0.930 . S
H1057 C1043 0.931 . S
H1058 C1044 0.931 . S
H1059 C1045 0.933 . S
H1060 C1051 0.930 . S
H1061 C1052 0.931 . S
H1062 C1053 0.931 . S
H1063 C1054 0.933 . S
Dy1064 O1067 2.307 . S
Dy1064 O1069 2.395 . S
Dy1064 O1070 2.379 . S
Dy1064 O1072 2.339 . S
Dy1064 O1074 2.298 . S
Dy1064 O1078 2.275 . S
Dy1064 C1086 2.738 . S
Dy1065 O1068 2.298 . S
Dy1065 O1071 2.275 . S
Dy1065 O1073 2.307 . S
Dy1065 O1075 2.395 . S
Dy1065 O1076 2.379 . S
Dy1065 O1079 2.339 . S
Dy1065 C1095 2.738 . S
C1066 O1078 1.254 . S
C1066 O1079 1.257 . S
O1067 Dy1064 2.307 . S
O1067 C1077 1.266 . S
O1068 Dy1065 2.298 . S
O1068 C1077 1.236 . S
O1069 Dy1064 2.395 . S
O1069 C1086 1.255 . S
O1070 Dy1064 2.379 . S
O1070 C1086 1.249 . S
O1071 Dy1065 2.275 . S
O1071 C1087 1.254 . S
O1072 Dy1064 2.339 . S
O1072 C1087 1.257 . S
O1073 Dy1065 2.307 . S
O1073 C1088 1.266 . S
O1074 Dy1064 2.298 . S
O1074 C1088 1.236 . S
O1075 Dy1065 2.395 . S
O1075 C1095 1.255 . S
O1076 Dy1065 2.379 . S
O1076 C1095 1.249 . S
C1077 O1067 1.266 . S
C1077 O1068 1.236 . S
O1078 Dy1064 2.275 . S
O1078 C1066 1.254 . S
O1079 Dy1065 2.339 . S
O1079 C1066 1.257 . S
C1080 C1083 1.344 . S
C1080 C1084 1.328 . S
C1080 C1086 1.516 . S
C1081 C1082 1.304 . S
C1081 C1085 1.323 . S
C1082 C1081 1.304 . S
C1082 C1083 1.371 . S
C1082 H1096 0.930 . S
C1083 C1080 1.344 . S
C1083 C1082 1.371 . S
C1083 H1097 0.931 . S
C1084 C1080 1.328 . S
C1084 C1085 1.433 . S
C1084 H1098 0.931 . S
C1085 C1081 1.323 . S
C1085 C1084 1.433 . S
C1085 H1099 0.933 . S
C1086 Dy1064 2.738 . S
C1086 O1069 1.255 . S
C1086 O1070 1.249 . S
C1086 C1080 1.516 . S
C1087 O1071 1.254 . S
C1087 O1072 1.257 . S
C1088 O1073 1.266 . S
C1088 O1074 1.236 . S
C1089 C1092 1.344 . S
C1089 C1093 1.328 . S
C1089 C1095 1.516 . S
C1090 C1091 1.304 . S
C1090 C1094 1.323 . S
C1091 C1090 1.304 . S
C1091 C1092 1.371 . S
C1091 H1100 0.930 . S
C1092 C1089 1.344 . S
C1092 C1091 1.371 . S
C1092 H1101 0.931 . S
C1093 C1089 1.328 . S
C1093 C1094 1.433 . S
C1093 H1102 0.931 . S
C1094 C1090 1.323 . S
C1094 C1093 1.433 . S
C1094 H1103 0.933 . S
C1095 Dy1065 2.738 . S
C1095 O1075 1.255 . S
C1095 O1076 1.249 . S
C1095 C1089 1.516 . S
H1096 C1082 0.930 . S
H1097 C1083 0.931 . S
H1098 C1084 0.931 . S
H1099 C1085 0.933 . S
H1100 C1091 0.930 . S
H1101 C1092 0.931 . S
H1102 C1093 0.931 . S
H1103 C1094 0.933 . S
Dy1104 O1107 2.307 . S
Dy1104 O1109 2.395 1_554 S
Dy1104 O1110 2.379 1_554 S
Dy1104 O1112 2.339 . S
Dy1104 O1114 2.298 . S
Dy1104 O1118 2.275 . S
Dy1104 C1126 2.738 1_554 S
Dy1105 O1108 2.298 . S
Dy1105 O1111 2.275 . S
Dy1105 O1113 2.307 . S
Dy1105 O1115 2.395 . S
Dy1105 O1116 2.379 . S
Dy1105 O1119 2.339 1_545 S
Dy1105 C1135 2.738 . S
C1106 O1118 1.254 . S
C1106 O1119 1.257 1_545 S
O1107 Dy1104 2.307 . S
O1107 C1117 1.266 . S
O1108 Dy1105 2.298 . S
O1108 C1117 1.236 . S
O1109 Dy1104 2.395 1_556 S
O1109 C1126 1.255 . S
O1110 Dy1104 2.379 1_556 S
O1110 C1126 1.249 . S
O1111 Dy1105 2.275 . S
O1111 C1127 1.254 . S
O1112 Dy1104 2.339 . S
O1112 C1127 1.257 . S
O1113 Dy1105 2.307 . S
O1113 C1128 1.266 . S
O1114 Dy1104 2.298 . S
O1114 C1128 1.236 . S
O1115 Dy1105 2.395 . S
O1115 C1135 1.255 . S
O1116 Dy1105 2.379 . S
O1116 C1135 1.249 . S
C1117 O1107 1.266 . S
C1117 O1108 1.236 . S
O1118 Dy1104 2.275 . S
O1118 C1106 1.254 . S
O1119 Dy1105 2.339 1_565 S
O1119 C1106 1.257 1_565 S
C1120 C1123 1.344 . S
C1120 C1124 1.328 . S
C1120 C1126 1.516 . S
C1121 C1122 1.304 . S
C1121 C1125 1.323 . S
C1122 C1121 1.304 . S
C1122 C1123 1.371 . S
C1122 H1136 0.930 . S
C1123 C1120 1.344 . S
C1123 C1122 1.371 . S
C1123 H1137 0.931 . S
C1124 C1120 1.328 . S
C1124 C1125 1.433 . S
C1124 H1138 0.931 . S
C1125 C1121 1.323 . S
C1125 C1124 1.433 . S
C1125 H1139 0.933 . S
C1126 Dy1104 2.738 1_556 S
C1126 O1109 1.255 . S
C1126 O1110 1.249 . S
C1126 C1120 1.516 . S
C1127 O1111 1.254 . S
C1127 O1112 1.257 . S
C1128 O1113 1.266 . S
C1128 O1114 1.236 . S
C1129 C1132 1.344 . S
C1129 C1133 1.328 1_545 S
C1129 C1135 1.516 . S
C1130 C1131 1.304 1_565 S
C1130 C1134 1.323 . S
C1131 C1130 1.304 1_545 S
C1131 C1132 1.371 . S
C1131 H1140 0.930 . S
C1132 C1129 1.344 . S
C1132 C1131 1.371 . S
C1132 H1141 0.931 . S
C1133 C1129 1.328 1_565 S
C1133 C1134 1.433 . S
C1133 H1142 0.931 . S
C1134 C1130 1.323 . S
C1134 C1133 1.433 . S
C1134 H1143 0.933 . S
C1135 Dy1105 2.738 . S
C1135 O1115 1.255 . S
C1135 O1116 1.249 . S
C1135 C1129 1.516 . S
H1136 C1122 0.930 . S
H1137 C1123 0.931 . S
H1138 C1124 0.931 . S
H1139 C1125 0.933 . S
H1140 C1131 0.930 . S
H1141 C1132 0.931 . S
H1142 C1133 0.931 . S
H1143 C1134 0.933 . S
Dy1144 O1147 2.307 . S
Dy1144 O1149 2.395 . S
Dy1144 O1150 2.379 . S
Dy1144 O1152 2.339 . S
Dy1144 O1154 2.298 . S
Dy1144 O1158 2.275 . S
Dy1144 C1166 2.738 . S
Dy1145 O1148 2.298 . S
Dy1145 O1151 2.275 . S
Dy1145 O1153 2.307 . S
Dy1145 O1155 2.395 . S
Dy1145 O1156 2.379 . S
Dy1145 O1159 2.339 . S
Dy1145 C1175 2.738 . S
C1146 O1158 1.254 . S
C1146 O1159 1.257 . S
O1147 Dy1144 2.307 . S
O1147 C1157 1.266 . S
O1148 Dy1145 2.298 . S
O1148 C1157 1.236 . S
O1149 Dy1144 2.395 . S
O1149 C1166 1.255 . S
O1150 Dy1144 2.379 . S
O1150 C1166 1.249 . S
O1151 Dy1145 2.275 . S
O1151 C1167 1.254 . S
O1152 Dy1144 2.339 . S
O1152 C1167 1.257 . S
O1153 Dy1145 2.307 . S
O1153 C1168 1.266 . S
O1154 Dy1144 2.298 . S
O1154 C1168 1.236 . S
O1155 Dy1145 2.395 . S
O1155 C1175 1.255 . S
O1156 Dy1145 2.379 . S
O1156 C1175 1.249 . S
C1157 O1147 1.266 . S
C1157 O1148 1.236 . S
O1158 Dy1144 2.275 . S
O1158 C1146 1.254 . S
O1159 Dy1145 2.339 . S
O1159 C1146 1.257 . S
C1160 C1163 1.344 . S
C1160 C1164 1.328 . S
C1160 C1166 1.516 . S
C1161 C1162 1.304 . S
C1161 C1165 1.323 . S
C1162 C1161 1.304 . S
C1162 C1163 1.371 . S
C1162 H1176 0.930 . S
C1163 C1160 1.344 . S
C1163 C1162 1.371 . S
C1163 H1177 0.931 . S
C1164 C1160 1.328 . S
C1164 C1165 1.433 . S
C1164 H1178 0.931 . S
C1165 C1161 1.323 . S
C1165 C1164 1.433 . S
C1165 H1179 0.933 . S
C1166 Dy1144 2.738 . S
C1166 O1149 1.255 . S
C1166 O1150 1.249 . S
C1166 C1160 1.516 . S
C1167 O1151 1.254 . S
C1167 O1152 1.257 . S
C1168 O1153 1.266 . S
C1168 O1154 1.236 . S
C1169 C1172 1.344 . S
C1169 C1173 1.328 . S
C1169 C1175 1.516 . S
C1170 C1171 1.304 . S
C1170 C1174 1.323 . S
C1171 C1170 1.304 . S
C1171 C1172 1.371 . S
C1171 H1180 0.930 . S
C1172 C1169 1.344 . S
C1172 C1171 1.371 . S
C1172 H1181 0.931 . S
C1173 C1169 1.328 . S
C1173 C1174 1.433 . S
C1173 H1182 0.931 . S
C1174 C1170 1.323 . S
C1174 C1173 1.433 . S
C1174 H1183 0.933 . S
C1175 Dy1145 2.738 . S
C1175 O1155 1.255 . S
C1175 O1156 1.249 . S
C1175 C1169 1.516 . S
H1176 C1162 0.930 . S
H1177 C1163 0.931 . S
H1178 C1164 0.931 . S
H1179 C1165 0.933 . S
H1180 C1171 0.930 . S
H1181 C1172 0.931 . S
H1182 C1173 0.931 . S
H1183 C1174 0.933 . S
Dy1184 O1187 2.307 1_554 S
Dy1184 O1189 2.395 . S
Dy1184 O1190 2.379 . S
Dy1184 O1192 2.339 . S
Dy1184 O1194 2.298 . S
Dy1184 O1198 2.275 . S
Dy1184 C1206 2.738 . S
Dy1185 O1188 2.298 1_554 S
Dy1185 O1191 2.275 . S
Dy1185 O1193 2.307 . S
Dy1185 O1195 2.395 . S
Dy1185 O1196 2.379 . S
Dy1185 O1199 2.339 . S
Dy1185 C1215 2.738 . S
C1186 O1198 1.254 . S
C1186 O1199 1.257 . S
O1187 Dy1184 2.307 1_556 S
O1187 C1197 1.266 . S
O1188 Dy1185 2.298 1_556 S
O1188 C1197 1.236 . S
O1189 Dy1184 2.395 . S
O1189 C1206 1.255 . S
O1190 Dy1184 2.379 . S
O1190 C1206 1.249 . S
O1191 Dy1185 2.275 . S
O1191 C1207 1.254 . S
O1192 Dy1184 2.339 . S
O1192 C1207 1.257 . S
O1193 Dy1185 2.307 . S
O1193 C1208 1.266 . S
O1194 Dy1184 2.298 . S
O1194 C1208 1.236 . S
O1195 Dy1185 2.395 . S
O1195 C1215 1.255 . S
O1196 Dy1185 2.379 . S
O1196 C1215 1.249 . S
C1197 O1187 1.266 . S
C1197 O1188 1.236 . S
O1198 Dy1184 2.275 . S
O1198 C1186 1.254 . S
O1199 Dy1185 2.339 . S
O1199 C1186 1.257 . S
C1200 C1203 1.344 . S
C1200 C1204 1.328 . S
C1200 C1206 1.516 . S
C1201 C1202 1.304 . S
C1201 C1205 1.323 . S
C1202 C1201 1.304 . S
C1202 C1203 1.371 . S
C1202 H1216 0.930 . S
C1203 C1200 1.344 . S
C1203 C1202 1.371 . S
C1203 H1217 0.931 . S
C1204 C1200 1.328 . S
C1204 C1205 1.433 . S
C1204 H1218 0.931 . S
C1205 C1201 1.323 . S
C1205 C1204 1.433 . S
C1205 H1219 0.933 . S
C1206 Dy1184 2.738 . S
C1206 O1189 1.255 . S
C1206 O1190 1.249 . S
C1206 C1200 1.516 . S
C1207 O1191 1.254 . S
C1207 O1192 1.257 . S
C1208 O1193 1.266 . S
C1208 O1194 1.236 . S
C1209 C1212 1.344 . S
C1209 C1213 1.328 . S
C1209 C1215 1.516 1_556 S
C1210 C1211 1.304 . S
C1210 C1214 1.323 . S
C1211 C1210 1.304 . S
C1211 C1212 1.371 . S
C1211 H1220 0.930 . S
C1212 C1209 1.344 . S
C1212 C1211 1.371 . S
C1212 H1221 0.931 . S
C1213 C1209 1.328 . S
C1213 C1214 1.433 . S
C1213 H1222 0.931 1_556 S
C1214 C1210 1.323 . S
C1214 C1213 1.433 . S
C1214 H1223 0.933 . S
C1215 Dy1185 2.738 . S
C1215 O1195 1.255 . S
C1215 O1196 1.249 . S
C1215 C1209 1.516 1_554 S
H1216 C1202 0.930 . S
H1217 C1203 0.931 . S
H1218 C1204 0.931 . S
H1219 C1205 0.933 . S
H1220 C1211 0.930 . S
H1221 C1212 0.931 . S
H1222 C1213 0.931 1_554 S
H1223 C1214 0.933 . S
Dy1224 O1227 2.307 . S
Dy1224 O1229 2.395 . S
Dy1224 O1230 2.379 . S
Dy1224 O1232 2.339 . S
Dy1224 O1234 2.298 . S
Dy1224 O1238 2.275 . S
Dy1224 C1246 2.738 . S
Dy1225 O1228 2.298 . S
Dy1225 O1231 2.275 . S
Dy1225 O1233 2.307 . S
Dy1225 O1235 2.395 . S
Dy1225 O1236 2.379 . S
Dy1225 O1239 2.339 . S
Dy1225 C1255 2.738 . S
C1226 O1238 1.254 . S
C1226 O1239 1.257 . S
O1227 Dy1224 2.307 . S
O1227 C1237 1.266 . S
O1228 Dy1225 2.298 . S
O1228 C1237 1.236 . S
O1229 Dy1224 2.395 . S
O1229 C1246 1.255 . S
O1230 Dy1224 2.379 . S
O1230 C1246 1.249 . S
O1231 Dy1225 2.275 . S
O1231 C1247 1.254 . S
O1232 Dy1224 2.339 . S
O1232 C1247 1.257 . S
O1233 Dy1225 2.307 . S
O1233 C1248 1.266 . S
O1234 Dy1224 2.298 . S
O1234 C1248 1.236 . S
O1235 Dy1225 2.395 . S
O1235 C1255 1.255 . S
O1236 Dy1225 2.379 . S
O1236 C1255 1.249 . S
C1237 O1227 1.266 . S
C1237 O1228 1.236 . S
O1238 Dy1224 2.275 . S
O1238 C1226 1.254 . S
O1239 Dy1225 2.339 . S
O1239 C1226 1.257 . S
C1240 C1243 1.344 . S
C1240 C1244 1.328 . S
C1240 C1246 1.516 . S
C1241 C1242 1.304 . S
C1241 C1245 1.323 . S
C1242 C1241 1.304 . S
C1242 C1243 1.371 . S
C1242 H1256 0.930 . S
C1243 C1240 1.344 . S
C1243 C1242 1.371 . S
C1243 H1257 0.931 . S
C1244 C1240 1.328 . S
C1244 C1245 1.433 . S
C1244 H1258 0.931 . S
C1245 C1241 1.323 . S
C1245 C1244 1.433 . S
C1245 H1259 0.933 . S
C1246 Dy1224 2.738 . S
C1246 O1229 1.255 . S
C1246 O1230 1.249 . S
C1246 C1240 1.516 . S
C1247 O1231 1.254 . S
C1247 O1232 1.257 . S
C1248 O1233 1.266 . S
C1248 O1234 1.236 . S
C1249 C1252 1.344 . S
C1249 C1253 1.328 . S
C1249 C1255 1.516 . S
C1250 C1251 1.304 . S
C1250 C1254 1.323 . S
C1251 C1250 1.304 . S
C1251 C1252 1.371 . S
C1251 H1260 0.930 . S
C1252 C1249 1.344 . S
C1252 C1251 1.371 . S
C1252 H1261 0.931 . S
C1253 C1249 1.328 . S
C1253 C1254 1.433 . S
C1253 H1262 0.931 . S
C1254 C1250 1.323 . S
C1254 C1253 1.433 . S
C1254 H1263 0.933 . S
C1255 Dy1225 2.738 . S
C1255 O1235 1.255 . S
C1255 O1236 1.249 . S
C1255 C1249 1.516 . S
H1256 C1242 0.930 . S
H1257 C1243 0.931 . S
H1258 C1244 0.931 . S
H1259 C1245 0.933 . S
H1260 C1251 0.930 . S
H1261 C1252 0.931 . S
H1262 C1253 0.931 . S
H1263 C1254 0.933 . S
Dy1264 O1267 2.307 1_455 S
Dy1264 O1269 2.395 . S
Dy1264 O1270 2.379 . S
Dy1264 O1272 2.339 . S
Dy1264 O1274 2.298 . S
Dy1264 O1278 2.275 . S
Dy1264 C1286 2.738 . S
Dy1265 O1268 2.298 1_455 S
Dy1265 O1271 2.275 . S
Dy1265 O1273 2.307 . S
Dy1265 O1275 2.395 . S
Dy1265 O1276 2.379 . S
Dy1265 O1279 2.339 . S
Dy1265 C1295 2.738 . S
C1266 O1278 1.254 . S
C1266 O1279 1.257 . S
O1267 Dy1264 2.307 1_655 S
O1267 C1277 1.266 . S
O1268 Dy1265 2.298 1_655 S
O1268 C1277 1.236 . S
O1269 Dy1264 2.395 . S
O1269 C1286 1.255 . S
O1270 Dy1264 2.379 . S
O1270 C1286 1.249 . S
O1271 Dy1265 2.275 . S
O1271 C1287 1.254 . S
O1272 Dy1264 2.339 . S
O1272 C1287 1.257 . S
O1273 Dy1265 2.307 . S
O1273 C1288 1.266 . S
O1274 Dy1264 2.298 . S
O1274 C1288 1.236 . S
O1275 Dy1265 2.395 . S
O1275 C1295 1.255 . S
O1276 Dy1265 2.379 . S
O1276 C1295 1.249 . S
C1277 O1267 1.266 . S
C1277 O1268 1.236 . S
O1278 Dy1264 2.275 . S
O1278 C1266 1.254 . S
O1279 Dy1265 2.339 . S
O1279 C1266 1.257 . S
C1280 C1283 1.344 . S
C1280 C1284 1.328 . S
C1280 C1286 1.516 . S
C1281 C1282 1.304 . S
C1281 C1285 1.323 . S
C1282 C1281 1.304 . S
C1282 C1283 1.371 . S
C1282 H1296 0.930 . S
C1283 C1280 1.344 . S
C1283 C1282 1.371 . S
C1283 H1297 0.931 . S
C1284 C1280 1.328 . S
C1284 C1285 1.433 . S
C1284 H1298 0.931 . S
C1285 C1281 1.323 . S
C1285 C1284 1.433 . S
C1285 H1299 0.933 . S
C1286 Dy1264 2.738 . S
C1286 O1269 1.255 . S
C1286 O1270 1.249 . S
C1286 C1280 1.516 . S
C1287 O1271 1.254 . S
C1287 O1272 1.257 . S
C1288 O1273 1.266 . S
C1288 O1274 1.236 . S
C1289 C1292 1.344 . S
C1289 C1293 1.328 . S
C1289 C1295 1.516 1_655 S
C1290 C1291 1.304 . S
C1290 C1294 1.323 . S
C1291 C1290 1.304 . S
C1291 C1292 1.371 . S
C1291 H1300 0.930 . S
C1292 C1289 1.344 . S
C1292 C1291 1.371 . S
C1292 H1301 0.931 . S
C1293 C1289 1.328 . S
C1293 C1294 1.433 . S
C1293 H1302 0.904 1_655 S
C1294 C1290 1.323 . S
C1294 C1293 1.433 . S
C1294 H1303 0.933 . S
C1295 Dy1265 2.738 . S
C1295 O1275 1.255 . S
C1295 O1276 1.249 . S
C1295 C1289 1.516 1_455 S
H1296 C1282 0.930 . S
H1297 C1283 0.931 . S
H1298 C1284 0.931 . S
H1299 C1285 0.933 . S
H1300 C1291 0.930 . S
H1301 C1292 0.931 . S
H1302 C1293 0.904 1_455 S
H1303 C1294 0.933 . S
Dy1304 O1307 2.307 . S
Dy1304 O1309 2.395 . S
Dy1304 O1310 2.379 . S
Dy1304 O1312 2.339 . S
Dy1304 O1314 2.298 . S
Dy1304 O1318 2.275 . S
Dy1304 C1326 2.738 . S
Dy1305 O1308 2.298 . S
Dy1305 O1311 2.275 . S
Dy1305 O1313 2.307 . S
Dy1305 O1315 2.395 . S
Dy1305 O1316 2.379 . S
Dy1305 O1319 2.339 . S
Dy1305 C1335 2.738 . S
C1306 O1318 1.254 . S
C1306 O1319 1.257 . S
O1307 Dy1304 2.307 . S
O1307 C1317 1.266 . S
O1308 Dy1305 2.298 . S
O1308 C1317 1.236 . S
O1309 Dy1304 2.395 . S
O1309 C1326 1.255 . S
O1310 Dy1304 2.379 . S
O1310 C1326 1.249 . S
O1311 Dy1305 2.275 . S
O1311 C1327 1.254 . S
O1312 Dy1304 2.339 . S
O1312 C1327 1.257 . S
O1313 Dy1305 2.307 . S
O1313 C1328 1.266 . S
O1314 Dy1304 2.298 . S
O1314 C1328 1.236 . S
O1315 Dy1305 2.395 . S
O1315 C1335 1.255 . S
O1316 Dy1305 2.379 . S
O1316 C1335 1.249 . S
C1317 O1307 1.266 . S
C1317 O1308 1.236 . S
O1318 Dy1304 2.275 . S
O1318 C1306 1.254 . S
O1319 Dy1305 2.339 . S
O1319 C1306 1.257 . S
C1320 C1323 1.344 . S
C1320 C1324 1.328 . S
C1320 C1326 1.516 . S
C1321 C1322 1.304 . S
C1321 C1325 1.323 . S
C1322 C1321 1.304 . S
C1322 C1323 1.371 . S
C1322 H1336 0.930 . S
C1323 C1320 1.344 . S
C1323 C1322 1.371 . S
C1323 H1337 0.931 . S
C1324 C1320 1.328 . S
C1324 C1325 1.433 . S
C1324 H1338 0.931 . S
C1325 C1321 1.323 . S
C1325 C1324 1.433 . S
C1325 H1339 0.933 . S
C1326 Dy1304 2.738 . S
C1326 O1309 1.255 . S
C1326 O1310 1.249 . S
C1326 C1320 1.516 . S
C1327 O1311 1.254 . S
C1327 O1312 1.257 . S
C1328 O1313 1.266 . S
C1328 O1314 1.236 . S
C1329 C1332 1.344 . S
C1329 C1333 1.328 . S
C1329 C1335 1.516 . S
C1330 C1331 1.304 . S
C1330 C1334 1.323 . S
C1331 C1330 1.304 . S
C1331 C1332 1.371 . S
C1331 H1340 0.930 . S
C1332 C1329 1.344 . S
C1332 C1331 1.371 . S
C1332 H1341 0.931 . S
C1333 C1329 1.328 . S
C1333 C1334 1.433 . S
C1333 H1342 0.931 . S
C1334 C1330 1.323 . S
C1334 C1333 1.433 . S
C1334 H1343 0.933 . S
C1335 Dy1305 2.738 . S
C1335 O1315 1.255 . S
C1335 O1316 1.249 . S
C1335 C1329 1.516 . S
H1336 C1322 0.930 . S
H1337 C1323 0.931 . S
H1338 C1324 0.931 . S
H1339 C1325 0.933 . S
H1340 C1331 0.930 . S
H1341 C1332 0.931 . S
H1342 C1333 0.931 . S
H1343 C1334 0.933 . S
Dy1344 O1347 2.307 . S
Dy1344 O1349 2.395 . S
Dy1344 O1350 2.379 . S
Dy1344 O1352 2.339 . S
Dy1344 O1354 2.298 . S
Dy1344 O1358 2.275 . S
Dy1344 C1366 2.738 . S
Dy1345 O1348 2.298 . S
Dy1345 O1351 2.275 . S
Dy1345 O1353 2.307 . S
Dy1345 O1355 2.395 . S
Dy1345 O1356 2.379 . S
Dy1345 O1359 2.339 . S
Dy1345 C1375 2.738 . S
C1346 O1358 1.254 . S
C1346 O1359 1.257 . S
O1347 Dy1344 2.307 . S
O1347 C1357 1.266 . S
O1348 Dy1345 2.298 . S
O1348 C1357 1.236 . S
O1349 Dy1344 2.395 . S
O1349 C1366 1.255 . S
O1350 Dy1344 2.379 . S
O1350 C1366 1.249 . S
O1351 Dy1345 2.275 . S
O1351 C1367 1.254 . S
O1352 Dy1344 2.339 . S
O1352 C1367 1.257 . S
O1353 Dy1345 2.307 . S
O1353 C1368 1.266 . S
O1354 Dy1344 2.298 . S
O1354 C1368 1.236 . S
O1355 Dy1345 2.395 . S
O1355 C1375 1.255 . S
O1356 Dy1345 2.379 . S
O1356 C1375 1.249 . S
C1357 O1347 1.266 . S
C1357 O1348 1.236 . S
O1358 Dy1344 2.275 . S
O1358 C1346 1.254 . S
O1359 Dy1345 2.339 . S
O1359 C1346 1.257 . S
C1360 C1363 1.344 . S
C1360 C1364 1.328 . S
C1360 C1366 1.516 . S
C1361 C1362 1.304 . S
C1361 C1365 1.323 . S
C1362 C1361 1.304 . S
C1362 C1363 1.371 . S
C1362 H1376 0.930 . S
C1363 C1360 1.344 . S
C1363 C1362 1.371 . S
C1363 H1377 0.931 . S
C1364 C1360 1.328 . S
C1364 C1365 1.433 . S
C1364 H1378 0.931 . S
C1365 C1361 1.323 . S
C1365 C1364 1.433 . S
C1365 H1379 0.933 . S
C1366 Dy1344 2.738 . S
C1366 O1349 1.255 . S
C1366 O1350 1.249 . S
C1366 C1360 1.516 . S
C1367 O1351 1.254 . S
C1367 O1352 1.257 . S
C1368 O1353 1.266 . S
C1368 O1354 1.236 . S
C1369 C1372 1.344 . S
C1369 C1373 1.328 . S
C1369 C1375 1.516 . S
C1370 C1371 1.304 . S
C1370 C1374 1.323 . S
C1371 C1370 1.304 . S
C1371 C1372 1.371 . S
C1371 H1380 0.930 . S
C1372 C1369 1.344 . S
C1372 C1371 1.371 . S
C1372 H1381 0.931 . S
C1373 C1369 1.328 . S
C1373 C1374 1.433 . S
C1373 H1382 0.931 . S
C1374 C1370 1.323 . S
C1374 C1373 1.433 . S
C1374 H1383 0.933 . S
C1375 Dy1345 2.738 . S
C1375 O1355 1.255 . S
C1375 O1356 1.249 . S
C1375 C1369 1.516 . S
H1376 C1362 0.930 . S
H1377 C1363 0.931 . S
H1378 C1364 0.931 . S
H1379 C1365 0.933 . S
H1380 C1371 0.930 . S
H1381 C1372 0.931 . S
H1382 C1373 0.931 . S
H1383 C1374 0.933 . S
Dy1384 O1387 2.307 . S
Dy1384 O1389 2.395 . S
Dy1384 O1390 2.379 . S
Dy1384 O1392 2.339 . S
Dy1384 O1394 2.298 . S
Dy1384 O1398 2.275 . S
Dy1384 C1406 2.738 . S
Dy1385 O1388 2.298 . S
Dy1385 O1391 2.275 . S
Dy1385 O1393 2.307 . S
Dy1385 O1395 2.395 . S
Dy1385 O1396 2.379 . S
Dy1385 O1399 2.339 . S
Dy1385 C1415 2.738 . S
C1386 O1398 1.254 . S
C1386 O1399 1.257 . S
O1387 Dy1384 2.307 . S
O1387 C1397 1.266 . S
O1388 Dy1385 2.298 . S
O1388 C1397 1.236 . S
O1389 Dy1384 2.395 . S
O1389 C1406 1.255 . S
O1390 Dy1384 2.379 . S
O1390 C1406 1.249 . S
O1391 Dy1385 2.275 . S
O1391 C1407 1.254 . S
O1392 Dy1384 2.339 . S
O1392 C1407 1.257 . S
O1393 Dy1385 2.307 . S
O1393 C1408 1.266 . S
O1394 Dy1384 2.298 . S
O1394 C1408 1.236 . S
O1395 Dy1385 2.395 . S
O1395 C1415 1.255 . S
O1396 Dy1385 2.379 . S
O1396 C1415 1.249 . S
C1397 O1387 1.266 . S
C1397 O1388 1.236 . S
O1398 Dy1384 2.275 . S
O1398 C1386 1.254 . S
O1399 Dy1385 2.339 . S
O1399 C1386 1.257 . S
C1400 C1403 1.344 . S
C1400 C1404 1.328 . S
C1400 C1406 1.516 . S
C1401 C1402 1.304 . S
C1401 C1405 1.323 . S
C1402 C1401 1.304 . S
C1402 C1403 1.371 . S
C1402 H1416 0.930 . S
C1403 C1400 1.344 . S
C1403 C1402 1.371 . S
C1403 H1417 0.931 . S
C1404 C1400 1.328 . S
C1404 C1405 1.433 . S
C1404 H1418 0.931 . S
C1405 C1401 1.323 . S
C1405 C1404 1.433 . S
C1405 H1419 0.933 . S
C1406 Dy1384 2.738 . S
C1406 O1389 1.255 . S
C1406 O1390 1.249 . S
C1406 C1400 1.516 . S
C1407 O1391 1.254 . S
C1407 O1392 1.257 . S
C1408 O1393 1.266 . S
C1408 O1394 1.236 . S
C1409 C1412 1.344 . S
C1409 C1413 1.328 . S
C1409 C1415 1.516 . S
C1410 C1411 1.304 . S
C1410 C1414 1.323 . S
C1411 C1410 1.304 . S
C1411 C1412 1.371 . S
C1411 H1420 0.930 . S
C1412 C1409 1.344 . S
C1412 C1411 1.371 . S
C1412 H1421 0.931 . S
C1413 C1409 1.328 . S
C1413 C1414 1.433 . S
C1413 H1422 0.931 . S
C1414 C1410 1.323 . S
C1414 C1413 1.433 . S
C1414 H1423 0.933 . S
C1415 Dy1385 2.738 . S
C1415 O1395 1.255 . S
C1415 O1396 1.249 . S
C1415 C1409 1.516 . S
H1416 C1402 0.930 . S
H1417 C1403 0.931 . S
H1418 C1404 0.931 . S
H1419 C1405 0.933 . S
H1420 C1411 0.930 . S
H1421 C1412 0.931 . S
H1422 C1413 0.931 . S
H1423 C1414 0.933 . S
Dy1424 O1427 2.307 . S
Dy1424 O1429 2.395 . S
Dy1424 O1430 2.379 . S
Dy1424 O1432 2.339 . S
Dy1424 O1434 2.298 . S
Dy1424 O1438 2.275 . S
Dy1424 C1446 2.738 . S
Dy1425 O1428 2.298 . S
Dy1425 O1431 2.275 . S
Dy1425 O1433 2.307 . S
Dy1425 O1435 2.395 . S
Dy1425 O1436 2.379 . S
Dy1425 O1439 2.339 . S
Dy1425 C1455 2.738 . S
C1426 O1438 1.254 . S
C1426 O1439 1.257 . S
O1427 Dy1424 2.307 . S
O1427 C1437 1.266 . S
O1428 Dy1425 2.298 . S
O1428 C1437 1.236 . S
O1429 Dy1424 2.395 . S
O1429 C1446 1.255 . S
O1430 Dy1424 2.379 . S
O1430 C1446 1.249 . S
O1431 Dy1425 2.275 . S
O1431 C1447 1.254 . S
O1432 Dy1424 2.339 . S
O1432 C1447 1.257 . S
O1433 Dy1425 2.307 . S
O1433 C1448 1.266 . S
O1434 Dy1424 2.298 . S
O1434 C1448 1.236 . S
O1435 Dy1425 2.395 . S
O1435 C1455 1.255 . S
O1436 Dy1425 2.379 . S
O1436 C1455 1.249 . S
C1437 O1427 1.266 . S
C1437 O1428 1.236 . S
O1438 Dy1424 2.275 . S
O1438 C1426 1.254 . S
O1439 Dy1425 2.339 . S
O1439 C1426 1.257 . S
C1440 C1443 1.344 . S
C1440 C1444 1.328 . S
C1440 C1446 1.516 . S
C1441 C1442 1.304 . S
C1441 C1445 1.323 . S
C1442 C1441 1.304 . S
C1442 C1443 1.371 . S
C1442 H1456 0.930 . S
C1443 C1440 1.344 . S
C1443 C1442 1.371 . S
C1443 H1457 0.931 . S
C1444 C1440 1.328 . S
C1444 C1445 1.433 . S
C1444 H1458 0.931 . S
C1445 C1441 1.323 . S
C1445 C1444 1.433 . S
C1445 H1459 0.933 . S
C1446 Dy1424 2.738 . S
C1446 O1429 1.255 . S
C1446 O1430 1.249 . S
C1446 C1440 1.516 . S
C1447 O1431 1.254 . S
C1447 O1432 1.257 . S
C1448 O1433 1.266 . S
C1448 O1434 1.236 . S
C1449 C1452 1.344 . S
C1449 C1453 1.328 . S
C1449 C1455 1.516 . S
C1450 C1451 1.304 . S
C1450 C1454 1.323 . S
C1451 C1450 1.304 . S
C1451 C1452 1.371 . S
C1451 H1460 0.930 . S
C1452 C1449 1.344 . S
C1452 C1451 1.371 . S
C1452 H1461 0.931 . S
C1453 C1449 1.328 . S
C1453 C1454 1.433 . S
C1453 H1462 0.931 . S
C1454 C1450 1.323 . S
C1454 C1453 1.433 . S
C1454 H1463 0.933 . S
C1455 Dy1425 2.738 . S
C1455 O1435 1.255 . S
C1455 O1436 1.249 . S
C1455 C1449 1.516 . S
H1456 C1442 0.930 . S
H1457 C1443 0.931 . S
H1458 C1444 0.931 . S
H1459 C1445 0.933 . S
H1460 C1451 0.930 . S
H1461 C1452 0.931 . S
H1462 C1453 0.931 . S
H1463 C1454 0.933 . S
Dy1464 O1467 2.307 . S
Dy1464 O1469 2.395 1_455 S
Dy1464 O1470 2.379 1_455 S
Dy1464 O1472 2.339 . S
Dy1464 O1474 2.298 . S
Dy1464 O1478 2.275 . S
Dy1464 C1486 2.738 1_455 S
Dy1465 O1468 2.298 . S
Dy1465 O1471 2.275 . S
Dy1465 O1473 2.307 . S
Dy1465 O1475 2.395 . S
Dy1465 O1476 2.379 1_554 S
Dy1465 O1479 2.339 1_554 S
Dy1465 C1495 2.738 . S
C1466 O1478 1.254 1_556 S
C1466 O1479 1.257 . S
O1467 Dy1464 2.307 . S
O1467 C1477 1.266 . S
O1468 Dy1465 2.298 . S
O1468 C1477 1.236 . S
O1469 Dy1464 2.395 1_655 S
O1469 C1486 1.255 . S
O1470 Dy1464 2.379 1_655 S
O1470 C1486 1.249 . S
O1471 Dy1465 2.275 . S
O1471 C1487 1.254 . S
O1472 Dy1464 2.339 . S
O1472 C1487 1.257 . S
O1473 Dy1465 2.307 . S
O1473 C1488 1.266 . S
O1474 Dy1464 2.298 . S
O1474 C1488 1.236 . S
O1475 Dy1465 2.395 . S
O1475 C1495 1.255 . S
O1476 Dy1465 2.379 1_556 S
O1476 C1495 1.249 1_556 S
C1477 O1467 1.266 . S
C1477 O1468 1.236 . S
O1478 Dy1464 2.275 . S
O1478 C1466 1.254 1_554 S
O1479 Dy1465 2.339 1_556 S
O1479 C1466 1.257 . S
C1480 C1483 1.344 . S
C1480 C1484 1.328 . S
C1480 C1486 1.516 . S
C1481 C1482 1.304 . S
C1481 C1485 1.323 . S
C1482 C1481 1.304 . S
C1482 C1483 1.371 . S
C1482 H1496 0.930 . S
C1483 C1480 1.344 . S
C1483 C1482 1.371 . S
C1483 H1497 0.931 . S
C1484 C1480 1.328 . S
C1484 C1485 1.433 . S
C1484 H1498 0.931 . S
C1485 C1481 1.323 . S
C1485 C1484 1.433 . S
C1485 H1499 0.933 . S
C1486 Dy1464 2.738 1_655 S
C1486 O1469 1.255 . S
C1486 O1470 1.249 . S
C1486 C1480 1.516 . S
C1487 O1471 1.254 . S
C1487 O1472 1.257 . S
C1488 O1473 1.266 . S
C1488 O1474 1.236 . S
C1489 C1492 1.344 . S
C1489 C1493 1.328 1_554 S
C1489 C1495 1.516 . S
C1490 C1491 1.304 . S
C1490 C1494 1.323 1_554 S
C1491 C1490 1.304 . S
C1491 C1492 1.371 . S
C1491 H1500 0.930 . S
C1492 C1489 1.344 . S
C1492 C1491 1.371 . S
C1492 H1501 0.931 . S
C1493 C1489 1.328 1_556 S
C1493 C1494 1.433 . S
C1493 H1502 0.931 . S
C1494 C1490 1.323 1_556 S
C1494 C1493 1.433 . S
C1494 H1503 0.933 . S
C1495 Dy1465 2.738 . S
C1495 O1475 1.255 . S
C1495 O1476 1.249 1_554 S
C1495 C1489 1.516 . S
H1496 C1482 0.930 . S
H1497 C1483 0.931 . S
H1498 C1484 0.931 . S
H1499 C1485 0.933 . S
H1500 C1491 0.930 . S
H1501 C1492 0.931 . S
H1502 C1493 0.931 . S
H1503 C1494 0.933 . S
H1504 C1510 0.930 . S
H1505 C1513 0.930 . S
H1506 C1514 0.930 . S
H1507 C1515 0.930 . S
H1508 C1518 0.930 . S
H1509 C1519 0.930 . S
C1510 H1504 0.930 . S
C1510 C1511 1.356 1_556 S
C1510 C1512 1.413 1_656 S
C1511 C1510 1.356 1_554 S
C1511 C1513 1.419 1_655 S
C1512 C1510 1.413 1_454 S
C1512 C1517 1.425 . S
C1512 C1519 1.409 1_554 S
C1513 H1505 0.930 . S
C1513 C1511 1.419 1_455 S
C1513 C1514 1.362 . S
C1514 H1506 0.930 . S
C1514 C1513 1.362 . S
C1514 C1517 1.409 . S
C1515 H1507 0.930 . S
C1515 C1516 1.355 . S
C1515 C1517 1.415 . S
C1516 C1515 1.355 . S
C1516 C1518 1.419 1_554 S
C1517 C1512 1.425 . S
C1517 C1514 1.409 . S
C1517 C1515 1.415 . S
C1518 H1508 0.930 . S
C1518 C1516 1.419 1_556 S
C1518 C1519 1.362 . S
C1519 H1509 0.930 . S
C1519 C1512 1.409 1_556 S
C1519 C1518 1.362 . S
H1520 C1526 0.930 . S
H1521 C1529 0.930 . S
H1522 C1530 0.930 . S
H1523 C1531 0.930 . S
H1524 C1534 0.930 . S
H1525 C1535 0.930 . S
C1526 H1520 0.930 . S
C1526 C1527 1.355 . S
C1526 C1528 1.415 . S
C1527 C1526 1.355 . S
C1527 C1529 1.419 . S
C1528 C1526 1.415 . S
C1528 C1533 1.425 . S
C1528 C1535 1.409 . S
C1529 H1521 0.930 . S
C1529 C1527 1.419 . S
C1529 C1530 1.362 . S
C1530 H1522 0.930 . S
C1530 C1529 1.362 . S
C1530 C1533 1.409 . S
C1531 H1523 0.930 . S
C1531 C1532 1.355 . S
C1531 C1533 1.415 . S
C1532 C1531 1.355 . S
C1532 C1534 1.419 . S
C1533 C1528 1.425 . S
C1533 C1530 1.409 . S
C1533 C1531 1.415 . S
C1534 H1524 0.930 . S
C1534 C1532 1.419 . S
C1534 C1535 1.362 . S
C1535 H1525 0.930 . S
C1535 C1528 1.409 . S
C1535 C1534 1.362 . S
H1536 C1542 0.930 . S
H1537 C1545 0.930 . S
H1538 C1546 0.930 . S
H1539 C1547 0.930 . S
H1540 C1550 0.930 . S
H1541 C1551 0.930 . S
C1542 H1536 0.930 . S
C1542 C1543 1.355 . S
C1542 C1544 1.415 . S
C1543 C1542 1.355 . S
C1543 C1545 1.419 . S
C1544 C1542 1.415 . S
C1544 C1549 1.425 . S
C1544 C1551 1.409 . S
C1545 H1537 0.930 . S
C1545 C1543 1.419 . S
C1545 C1546 1.362 . S
C1546 H1538 0.930 . S
C1546 C1545 1.362 . S
C1546 C1549 1.409 . S
C1547 H1539 0.930 . S
C1547 C1548 1.355 . S
C1547 C1549 1.415 . S
C1548 C1547 1.355 . S
C1548 C1550 1.419 . S
C1549 C1544 1.425 . S
C1549 C1546 1.409 . S
C1549 C1547 1.415 . S
C1550 H1540 0.930 . S
C1550 C1548 1.419 . S
C1550 C1551 1.362 . S
C1551 H1541 0.930 . S
C1551 C1544 1.409 . S
C1551 C1550 1.362 . S
H1552 C1558 0.930 . S
H1553 C1561 0.930 . S
H1554 C1562 0.930 . S
H1555 C1563 0.930 . S
H1556 C1566 0.930 . S
H1557 C1567 0.930 . S
C1558 H1552 0.930 . S
C1558 C1559 1.355 . S
C1558 C1560 1.415 . S
C1559 C1558 1.355 . S
C1559 C1561 1.419 . S
C1560 C1558 1.415 . S
C1560 C1565 1.425 . S
C1560 C1567 1.409 . S
C1561 H1553 0.930 . S
C1561 C1559 1.419 . S
C1561 C1562 1.362 . S
C1562 H1554 0.930 . S
C1562 C1561 1.362 . S
C1562 C1565 1.409 . S
C1563 H1555 0.930 . S
C1563 C1564 1.355 . S
C1563 C1565 1.415 . S
C1564 C1563 1.355 . S
C1564 C1566 1.419 . S
C1565 C1560 1.425 . S
C1565 C1562 1.409 . S
C1565 C1563 1.415 . S
C1566 H1556 0.930 . S
C1566 C1564 1.419 . S
C1566 C1567 1.362 . S
C1567 H1557 0.930 . S
C1567 C1560 1.409 . S
C1567 C1566 1.362 . S
H1568 C1574 0.930 . S
H1569 C1577 0.930 1_655 S
H1570 C1578 0.930 1_655 S
H1571 C1579 0.930 . S
H1572 C1582 0.930 . S
H1573 C1583 0.930 . S
C1574 H1568 0.930 . S
C1574 C1575 1.355 . S
C1574 C1576 1.415 . S
C1575 C1574 1.355 . S
C1575 C1577 1.419 . S
C1576 C1574 1.415 . S
C1576 C1581 1.425 . S
C1576 C1583 1.409 . S
C1577 H1569 0.930 1_455 S
C1577 C1575 1.419 . S
C1577 C1578 1.362 . S
C1578 H1570 0.930 1_455 S
C1578 C1577 1.362 . S
C1578 C1581 1.409 . S
C1579 H1571 0.930 . S
C1579 C1580 1.355 . S
C1579 C1581 1.415 . S
C1580 C1579 1.355 . S
C1580 C1582 1.419 . S
C1581 C1576 1.425 . S
C1581 C1578 1.409 . S
C1581 C1579 1.415 . S
C1582 H1572 0.930 . S
C1582 C1580 1.419 . S
C1582 C1583 1.362 . S
C1583 H1573 0.930 . S
C1583 C1576 1.409 . S
C1583 C1582 1.362 . S
H1584 C1590 0.930 . S
H1585 C1593 0.930 . S
H1586 C1594 0.930 . S
H1587 C1595 0.930 . S
H1588 C1598 0.930 . S
H1589 C1599 0.930 . S
C1590 H1584 0.930 . S
C1590 C1591 1.355 . S
C1590 C1592 1.415 . S
C1591 C1590 1.355 . S
C1591 C1593 1.419 . S
C1592 C1590 1.415 . S
C1592 C1597 1.425 . S
C1592 C1599 1.409 . S
C1593 H1585 0.930 . S
C1593 C1591 1.419 . S
C1593 C1594 1.362 . S
C1594 H1586 0.930 . S
C1594 C1593 1.362 . S
C1594 C1597 1.409 . S
C1595 H1587 0.930 . S
C1595 C1596 1.355 . S
C1595 C1597 1.415 . S
C1596 C1595 1.355 . S
C1596 C1598 1.419 . S
C1597 C1592 1.425 . S
C1597 C1594 1.409 . S
C1597 C1595 1.415 . S
C1598 H1588 0.930 . S
C1598 C1596 1.419 . S
C1598 C1599 1.362 . S
C1599 H1589 0.930 . S
C1599 C1592 1.409 . S
C1599 C1598 1.362 . S
H1600 C1606 0.930 . S
H1601 C1609 0.930 . S
H1602 C1610 0.930 . S
H1603 C1611 0.930 . S
H1604 C1614 0.930 . S
H1605 C1615 0.930 . S
C1606 H1600 0.930 . S
C1606 C1607 1.355 . S
C1606 C1608 1.415 . S
C1607 C1606 1.355 . S
C1607 C1609 1.419 . S
C1608 C1606 1.415 . S
C1608 C1613 1.425 . S
C1608 C1615 1.409 . S
C1609 H1601 0.930 . S
C1609 C1607 1.419 . S
C1609 C1610 1.362 . S
C1610 H1602 0.930 . S
C1610 C1609 1.362 . S
C1610 C1613 1.409 . S
C1611 H1603 0.930 . S
C1611 C1612 1.355 . S
C1611 C1613 1.415 . S
C1612 C1611 1.355 . S
C1612 C1614 1.419 . S
C1613 C1608 1.425 . S
C1613 C1610 1.409 . S
C1613 C1611 1.415 . S
C1614 H1604 0.930 . S
C1614 C1612 1.419 . S
C1614 C1615 1.362 . S
C1615 H1605 0.930 . S
C1615 C1608 1.409 . S
C1615 C1614 1.362 . S
H1616 C1622 0.930 . S
H1617 C1625 0.930 . S
H1618 C1626 0.930 . S
H1619 C1627 0.930 . S
H1620 C1630 0.930 . S
H1621 C1631 0.930 . S
C1622 H1616 0.930 . S
C1622 C1623 1.355 . S
C1622 C1624 1.415 . S
C1623 C1622 1.355 . S
C1623 C1625 1.419 . S
C1624 C1622 1.415 . S
C1624 C1629 1.425 . S
C1624 C1631 1.409 . S
C1625 H1617 0.930 . S
C1625 C1623 1.419 . S
C1625 C1626 1.362 . S
C1626 H1618 0.930 . S
C1626 C1625 1.362 . S
C1626 C1629 1.409 . S
C1627 H1619 0.930 . S
C1627 C1628 1.355 . S
C1627 C1629 1.415 . S
C1628 C1627 1.355 . S
C1628 C1630 1.419 . S
C1629 C1624 1.425 . S
C1629 C1626 1.409 . S
C1629 C1627 1.415 . S
C1630 H1620 0.930 . S
C1630 C1628 1.419 . S
C1630 C1631 1.362 . S
C1631 H1621 0.930 . S
C1631 C1624 1.409 . S
C1631 C1630 1.362 . S
H1632 C1638 0.930 1_565 S
H1633 C1641 0.930 . S
H1634 C1642 0.930 . S
H1635 C1643 0.930 . S
H1636 C1646 0.930 . S
H1637 C1647 0.930 1_565 S
C1638 H1632 0.930 1_545 S
C1638 C1639 1.355 . S
C1638 C1640 1.415 . S
C1639 C1638 1.355 . S
C1639 C1641 1.419 . S
C1640 C1638 1.415 . S
C1640 C1645 1.425 1_655 S
C1640 C1647 1.409 . S
C1641 H1633 0.930 . S
C1641 C1639 1.419 . S
C1641 C1642 1.362 1_655 S
C1642 H1634 0.930 . S
C1642 C1641 1.362 1_455 S
C1642 C1645 1.409 . S
C1643 H1635 0.930 . S
C1643 C1644 1.355 . S
C1643 C1645 1.415 . S
C1644 C1643 1.355 . S
C1644 C1646 1.419 1_455 S
C1645 C1640 1.425 1_455 S
C1645 C1642 1.409 . S
C1645 C1643 1.415 . S
C1646 H1636 0.930 . S
C1646 C1644 1.419 1_655 S
C1646 C1647 1.362 . S
C1647 H1637 0.930 1_545 S
C1647 C1640 1.409 . S
C1647 C1646 1.362 . S
H1648 C1654 0.930 . S
H1649 C1657 0.930 . S
H1650 C1658 0.930 . S
H1651 C1659 0.930 . S
H1652 C1662 0.930 . S
H1653 C1663 0.930 . S
C1654 H1648 0.930 . S
C1654 C1655 1.355 . S
C1654 C1656 1.415 . S
C1655 C1654 1.355 . S
C1655 C1657 1.419 . S
C1656 C1654 1.415 . S
C1656 C1661 1.425 . S
C1656 C1663 1.409 . S
C1657 H1649 0.930 . S
C1657 C1655 1.419 . S
C1657 C1658 1.362 . S
C1658 H1650 0.930 . S
C1658 C1657 1.362 . S
C1658 C1661 1.409 . S
C1659 H1651 0.930 . S
C1659 C1660 1.355 . S
C1659 C1661 1.415 . S
C1660 C1659 1.355 . S
C1660 C1662 1.419 . S
C1661 C1656 1.425 . S
C1661 C1658 1.409 . S
C1661 C1659 1.415 . S
C1662 H1652 0.930 . S
C1662 C1660 1.419 . S
C1662 C1663 1.362 . S
C1663 H1653 0.930 . S
C1663 C1656 1.409 . S
C1663 C1662 1.362 . S
H1664 C1670 0.930 . S
H1665 C1673 0.930 . S
H1666 C1674 0.930 . S
H1667 C1675 0.930 . S
H1668 C1678 0.930 . S
H1669 C1679 0.930 . S
C1670 H1664 0.930 . S
C1670 C1671 1.355 . S
C1670 C1672 1.415 . S
C1671 C1670 1.355 . S
C1671 C1673 1.419 . S
C1672 C1670 1.415 . S
C1672 C1677 1.425 . S
C1672 C1679 1.409 . S
C1673 H1665 0.930 . S
C1673 C1671 1.419 . S
C1673 C1674 1.362 . S
C1674 H1666 0.930 . S
C1674 C1673 1.362 . S
C1674 C1677 1.409 . S
C1675 H1667 0.930 . S
C1675 C1676 1.355 . S
C1675 C1677 1.415 . S
C1676 C1675 1.355 . S
C1676 C1678 1.419 . S
C1677 C1672 1.425 . S
C1677 C1674 1.409 . S
C1677 C1675 1.415 . S
C1678 H1668 0.930 . S
C1678 C1676 1.419 . S
C1678 C1679 1.362 . S
C1679 H1669 0.930 . S
C1679 C1672 1.409 . S
C1679 C1678 1.362 . S
H1680 C1686 0.930 . S
H1681 C1689 0.930 . S
H1682 C1690 0.930 . S
H1683 C1691 0.930 . S
H1684 C1694 0.930 . S
H1685 C1695 0.930 . S
C1686 H1680 0.930 . S
C1686 C1687 1.355 . S
C1686 C1688 1.415 . S
C1687 C1686 1.355 . S
C1687 C1689 1.419 . S
C1688 C1686 1.415 . S
C1688 C1693 1.425 . S
C1688 C1695 1.409 . S
C1689 H1681 0.930 . S
C1689 C1687 1.419 . S
C1689 C1690 1.362 . S
C1690 H1682 0.930 . S
C1690 C1689 1.362 . S
C1690 C1693 1.409 . S
C1691 H1683 0.930 . S
C1691 C1692 1.355 . S
C1691 C1693 1.415 . S
C1692 C1691 1.355 . S
C1692 C1694 1.419 . S
C1693 C1688 1.425 . S
C1693 C1690 1.409 . S
C1693 C1691 1.415 . S
C1694 H1684 0.930 . S
C1694 C1692 1.419 . S
C1694 C1695 1.362 . S
C1695 H1685 0.930 . S
C1695 C1688 1.409 . S
C1695 C1694 1.362 . S
H1696 C1702 0.930 . S
H1697 C1705 0.930 . S
H1698 C1706 0.930 . S
H1699 C1707 0.930 . S
H1700 C1710 0.930 . S
H1701 C1711 0.930 . S
C1702 H1696 0.930 . S
C1702 C1703 1.355 . S
C1702 C1704 1.415 . S
C1703 C1702 1.355 . S
C1703 C1705 1.419 1_655 S
C1704 C1702 1.415 . S
C1704 C1709 1.425 1_655 S
C1704 C1711 1.409 . S
C1705 H1697 0.930 . S
C1705 C1703 1.419 1_455 S
C1705 C1706 1.362 . S
C1706 H1698 0.930 . S
C1706 C1705 1.362 . S
C1706 C1709 1.409 . S
C1707 H1699 0.930 . S
C1707 C1708 1.355 . S
C1707 C1709 1.415 . S
C1708 C1707 1.355 . S
C1708 C1710 1.419 1_455 S
C1709 C1704 1.425 1_455 S
C1709 C1706 1.409 . S
C1709 C1707 1.415 . S
C1710 H1700 0.930 . S
C1710 C1708 1.419 1_655 S
C1710 C1711 1.362 . S
C1711 H1701 0.930 . S
C1711 C1704 1.409 . S
C1711 C1710 1.362 . S
H1712 C1718 0.930 . S
H1713 C1721 0.930 . S
H1714 C1722 0.930 . S
H1715 C1723 0.930 . S
H1716 C1726 0.930 . S
H1717 C1727 0.930 . S
C1718 H1712 0.930 . S
C1718 C1719 1.355 . S
C1718 C1720 1.415 . S
C1719 C1718 1.355 . S
C1719 C1721 1.419 . S
C1720 C1718 1.415 . S
C1720 C1725 1.425 . S
C1720 C1727 1.409 . S
C1721 H1713 0.930 . S
C1721 C1719 1.419 . S
C1721 C1722 1.362 . S
C1722 H1714 0.930 . S
C1722 C1721 1.362 . S
C1722 C1725 1.409 . S
C1723 H1715 0.930 . S
C1723 C1724 1.355 . S
C1723 C1725 1.415 . S
C1724 C1723 1.355 . S
C1724 C1726 1.419 . S
C1725 C1720 1.425 . S
C1725 C1722 1.409 . S
C1725 C1723 1.415 . S
C1726 H1716 0.930 . S
C1726 C1724 1.419 . S
C1726 C1727 1.362 . S
C1727 H1717 0.930 . S
C1727 C1720 1.409 . S
C1727 C1726 1.362 . S
H1728 C1734 0.930 . S
H1729 C1737 0.930 . S
H1730 C1738 0.930 . S
H1731 C1739 0.930 . S
H1732 C1742 0.930 . S
H1733 C1743 0.930 . S
C1734 H1728 0.930 . S
C1734 C1735 1.355 . S
C1734 C1736 1.415 . S
C1735 C1734 1.355 . S
C1735 C1737 1.419 . S
C1736 C1734 1.415 . S
C1736 C1741 1.425 . S
C1736 C1743 1.409 . S
C1737 H1729 0.930 . S
C1737 C1735 1.419 . S
C1737 C1738 1.362 . S
C1738 H1730 0.930 . S
C1738 C1737 1.362 . S
C1738 C1741 1.409 . S
C1739 H1731 0.930 . S
C1739 C1740 1.355 . S
C1739 C1741 1.415 . S
C1740 C1739 1.355 . S
C1740 C1742 1.419 . S
C1741 C1736 1.425 . S
C1741 C1738 1.409 . S
C1741 C1739 1.415 . S
C1742 H1732 0.930 . S
C1742 C1740 1.419 . S
C1742 C1743 1.362 . S
C1743 H1733 0.930 . S
C1743 C1736 1.409 . S
C1743 C1742 1.362 . S
H1744 C1750 0.930 . S
H1745 C1753 0.930 . S
H1746 C1754 0.930 . S
H1747 C1755 0.930 . S
H1748 C1758 0.930 . S
H1749 C1759 0.930 . S
C1750 H1744 0.930 . S
C1750 C1751 1.355 . S
C1750 C1752 1.415 . S
C1751 C1750 1.355 . S
C1751 C1753 1.419 . S
C1752 C1750 1.415 . S
C1752 C1757 1.425 . S
C1752 C1759 1.409 . S
C1753 H1745 0.930 . S
C1753 C1751 1.419 . S
C1753 C1754 1.362 . S
C1754 H1746 0.930 . S
C1754 C1753 1.362 . S
C1754 C1757 1.409 . S
C1755 H1747 0.930 . S
C1755 C1756 1.355 . S
C1755 C1757 1.415 . S
C1756 C1755 1.355 . S
C1756 C1758 1.419 . S
C1757 C1752 1.425 . S
C1757 C1754 1.409 . S
C1757 C1755 1.415 . S
C1758 H1748 0.930 . S
C1758 C1756 1.419 . S
C1758 C1759 1.362 . S
C1759 H1749 0.930 . S
C1759 C1752 1.409 . S
C1759 C1758 1.362 . S
H1760 C1766 0.930 1_556 S
H1761 C1769 0.930 . S
H1762 C1770 0.930 1_545 S
H1763 C1771 0.930 . S
H1764 C1774 0.930 . S
H1765 C1775 0.930 . S
C1766 H1760 0.930 1_554 S
C1766 C1767 1.355 . S
C1766 C1768 1.415 . S
C1767 C1766 1.355 . S
C1767 C1769 1.419 . S
C1768 C1766 1.415 . S
C1768 C1773 1.425 . S
C1768 C1775 1.409 . S
C1769 H1761 0.930 . S
C1769 C1767 1.419 . S
C1769 C1770 1.362 . S
C1770 H1762 0.930 1_565 S
C1770 C1769 1.362 . S
C1770 C1773 1.409 . S
C1771 H1763 0.930 . S
C1771 C1772 1.355 1_545 S
C1771 C1773 1.415 1_545 S
C1772 C1771 1.355 1_565 S
C1772 C1774 1.419 . S
C1773 C1768 1.425 . S
C1773 C1770 1.409 . S
C1773 C1771 1.415 1_565 S
C1774 H1764 0.930 . S
C1774 C1772 1.419 . S
C1774 C1775 1.362 . S
C1775 H1765 0.930 . S
C1775 C1768 1.409 . S
C1775 C1774 1.362 . S
H1776 C1782 0.930 . S
H1777 C1785 0.930 . S
H1778 C1786 0.930 . S
H1779 C1787 0.930 . S
H1780 C1790 0.930 . S
H1781 C1791 0.930 . S
C1782 H1776 0.930 . S
C1782 C1783 1.355 . S
C1782 C1784 1.415 . S
C1783 C1782 1.355 . S
C1783 C1785 1.419 . S
C1784 C1782 1.415 . S
C1784 C1789 1.425 . S
C1784 C1791 1.409 . S
C1785 H1777 0.930 . S
C1785 C1783 1.419 . S
C1785 C1786 1.362 . S
C1786 H1778 0.930 . S
C1786 C1785 1.362 . S
C1786 C1789 1.409 . S
C1787 H1779 0.930 . S
C1787 C1788 1.355 . S
C1787 C1789 1.415 . S
C1788 C1787 1.355 . S
C1788 C1790 1.419 . S
C1789 C1784 1.425 . S
C1789 C1786 1.409 . S
C1789 C1787 1.415 . S
C1790 H1780 0.930 . S
C1790 C1788 1.419 . S
C1790 C1791 1.362 . S
C1791 H1781 0.930 . S
C1791 C1784 1.409 . S
C1791 C1790 1.362 . S
H1792 C1798 0.930 . S
H1793 C1801 0.930 . S
H1794 C1802 0.930 . S
H1795 C1803 0.930 . S
H1796 C1806 0.930 . S
H1797 C1807 0.930 . S
C1798 H1792 0.930 . S
C1798 C1799 1.355 . S
C1798 C1800 1.415 . S
C1799 C1798 1.355 . S
C1799 C1801 1.419 . S
C1800 C1798 1.415 . S
C1800 C1805 1.425 . S
C1800 C1807 1.409 . S
C1801 H1793 0.930 . S
C1801 C1799 1.419 . S
C1801 C1802 1.362 . S
C1802 H1794 0.930 . S
C1802 C1801 1.362 . S
C1802 C1805 1.409 . S
C1803 H1795 0.930 . S
C1803 C1804 1.355 . S
C1803 C1805 1.415 . S
C1804 C1803 1.355 . S
C1804 C1806 1.419 . S
C1805 C1800 1.425 . S
C1805 C1802 1.409 . S
C1805 C1803 1.415 . S
C1806 H1796 0.930 . S
C1806 C1804 1.419 . S
C1806 C1807 1.362 . S
C1807 H1797 0.930 . S
C1807 C1800 1.409 . S
C1807 C1806 1.362 . S
H1808 C1814 0.930 . S
H1809 C1817 0.930 . S
H1810 C1818 0.930 . S
H1811 C1819 0.930 . S
H1812 C1822 0.930 . S
H1813 C1823 0.930 . S
C1814 H1808 0.930 . S
C1814 C1815 1.355 . S
C1814 C1816 1.415 . S
C1815 C1814 1.355 . S
C1815 C1817 1.419 . S
C1816 C1814 1.415 . S
C1816 C1821 1.425 . S
C1816 C1823 1.409 . S
C1817 H1809 0.930 . S
C1817 C1815 1.419 . S
C1817 C1818 1.362 . S
C1818 H1810 0.930 . S
C1818 C1817 1.362 . S
C1818 C1821 1.409 . S
C1819 H1811 0.930 . S
C1819 C1820 1.355 . S
C1819 C1821 1.415 . S
C1820 C1819 1.355 . S
C1820 C1822 1.419 . S
C1821 C1816 1.425 . S
C1821 C1818 1.409 . S
C1821 C1819 1.415 . S
C1822 H1812 0.930 . S
C1822 C1820 1.419 . S
C1822 C1823 1.362 . S
C1823 H1813 0.930 . S
C1823 C1816 1.409 . S
C1823 C1822 1.362 . S
H1824 C1830 0.930 . S
H1825 C1833 0.930 . S
H1826 C1834 0.930 . S
H1827 C1835 0.930 . S
H1828 C1838 0.930 . S
H1829 C1839 0.930 . S
C1830 H1824 0.930 . S
C1830 C1831 1.355 . S
C1830 C1832 1.415 . S
C1831 C1830 1.355 . S
C1831 C1833 1.419 . S
C1832 C1830 1.415 . S
C1832 C1837 1.425 . S
C1832 C1839 1.409 . S
C1833 H1825 0.930 . S
C1833 C1831 1.419 . S
C1833 C1834 1.362 . S
C1834 H1826 0.930 . S
C1834 C1833 1.362 . S
C1834 C1837 1.409 . S
C1835 H1827 0.930 . S
C1835 C1836 1.355 . S
C1835 C1837 1.415 . S
C1836 C1835 1.355 . S
C1836 C1838 1.419 . S
C1837 C1832 1.425 . S
C1837 C1834 1.409 . S
C1837 C1835 1.415 . S
C1838 H1828 0.930 . S
C1838 C1836 1.419 . S
C1838 C1839 1.362 . S
C1839 H1829 0.930 . S
C1839 C1832 1.409 . S
C1839 C1838 1.362 . S
H1840 C1846 0.930 . S
H1841 C1849 0.930 . S
H1842 C1850 0.930 . S
H1843 C1851 0.930 . S
H1844 C1854 0.930 . S
H1845 C1855 0.930 . S
C1846 H1840 0.930 . S
C1846 C1847 1.355 . S
C1846 C1848 1.415 . S
C1847 C1846 1.355 . S
C1847 C1849 1.419 . S
C1848 C1846 1.415 . S
C1848 C1853 1.425 . S
C1848 C1855 1.409 . S
C1849 H1841 0.930 . S
C1849 C1847 1.419 . S
C1849 C1850 1.362 . S
C1850 H1842 0.930 . S
C1850 C1849 1.362 . S
C1850 C1853 1.409 . S
C1851 H1843 0.930 . S
C1851 C1852 1.355 . S
C1851 C1853 1.415 . S
C1852 C1851 1.355 . S
C1852 C1854 1.419 . S
C1853 C1848 1.425 . S
C1853 C1850 1.409 . S
C1853 C1851 1.415 . S
C1854 H1844 0.930 . S
C1854 C1852 1.419 . S
C1854 C1855 1.362 . S
C1855 H1845 0.930 . S
C1855 C1848 1.409 . S
C1855 C1854 1.362 . S
H1856 C1862 0.930 . S
H1857 C1865 0.930 . S
H1858 C1866 0.930 . S
H1859 C1867 0.930 . S
H1860 C1870 0.930 . S
H1861 C1871 0.930 . S
C1862 H1856 0.930 . S
C1862 C1863 1.355 . S
C1862 C1864 1.415 . S
C1863 C1862 1.355 . S
C1863 C1865 1.419 . S
C1864 C1862 1.415 . S
C1864 C1869 1.425 . S
C1864 C1871 1.409 . S
C1865 H1857 0.930 . S
C1865 C1863 1.419 . S
C1865 C1866 1.362 . S
C1866 H1858 0.930 . S
C1866 C1865 1.362 . S
C1866 C1869 1.409 . S
C1867 H1859 0.930 . S
C1867 C1868 1.355 . S
C1867 C1869 1.415 . S
C1868 C1867 1.355 . S
C1868 C1870 1.419 . S
C1869 C1864 1.425 . S
C1869 C1866 1.409 . S
C1869 C1867 1.415 . S
C1870 H1860 0.930 . S
C1870 C1868 1.419 . S
C1870 C1871 1.362 . S
C1871 H1861 0.930 . S
C1871 C1864 1.409 . S
C1871 C1870 1.362 . S
H1872 C1878 0.930 . S
H1873 C1881 0.930 . S
H1874 C1882 0.930 . S
H1875 C1883 0.930 . S
H1876 C1886 0.930 . S
H1877 C1887 0.930 . S
C1878 H1872 0.930 . S
C1878 C1879 1.355 . S
C1878 C1880 1.415 . S
C1879 C1878 1.355 . S
C1879 C1881 1.419 . S
C1880 C1878 1.415 . S
C1880 C1885 1.425 . S
C1880 C1887 1.409 . S
C1881 H1873 0.930 . S
C1881 C1879 1.419 . S
C1881 C1882 1.362 . S
C1882 H1874 0.930 . S
C1882 C1881 1.362 . S
C1882 C1885 1.409 . S
C1883 H1875 0.930 . S
C1883 C1884 1.355 . S
C1883 C1885 1.415 . S
C1884 C1883 1.355 . S
C1884 C1886 1.419 . S
C1885 C1880 1.425 . S
C1885 C1882 1.409 . S
C1885 C1883 1.415 . S
C1886 H1876 0.930 . S
C1886 C1884 1.419 . S
C1886 C1887 1.362 . S
C1887 H1877 0.930 . S
C1887 C1880 1.409 . S
C1887 C1886 1.362 . S
H1888 C1894 0.930 . S
H1889 C1897 0.930 . S
H1890 C1898 0.930 . S
H1891 C1899 0.930 . S
H1892 C1902 0.895 1_655 S
H1893 C1903 0.930 . S
C1894 H1888 0.930 . S
C1894 C1895 1.355 . S
C1894 C1896 1.415 . S
C1895 C1894 1.355 . S
C1895 C1897 1.419 . S
C1896 C1894 1.415 . S
C1896 C1901 1.425 . S
C1896 C1903 1.409 . S
C1897 H1889 0.930 . S
C1897 C1895 1.419 . S
C1897 C1898 1.362 . S
C1898 H1890 0.930 . S
C1898 C1897 1.362 . S
C1898 C1901 1.409 . S
C1899 H1891 0.930 . S
C1899 C1900 1.355 . S
C1899 C1901 1.415 . S
C1900 C1899 1.355 . S
C1900 C1902 1.419 . S
C1901 C1896 1.425 . S
C1901 C1898 1.409 . S
C1901 C1899 1.415 . S
C1902 H1892 0.895 1_455 S
C1902 C1900 1.419 . S
C1902 C1903 1.362 . S
C1903 H1893 0.930 . S
C1903 C1896 1.409 . S
C1903 C1902 1.362 . S
H1904 C1910 0.930 . S
H1905 C1913 0.930 . S
H1906 C1914 0.930 . S
H1907 C1915 0.930 . S
H1908 C1918 0.930 . S
H1909 C1919 0.930 . S
C1910 H1904 0.930 . S
C1910 C1911 1.355 . S
C1910 C1912 1.415 . S
C1911 C1910 1.355 . S
C1911 C1913 1.419 . S
C1912 C1910 1.415 . S
C1912 C1917 1.425 . S
C1912 C1919 1.409 . S
C1913 H1905 0.930 . S
C1913 C1911 1.419 . S
C1913 C1914 1.362 . S
C1914 H1906 0.930 . S
C1914 C1913 1.362 . S
C1914 C1917 1.409 . S
C1915 H1907 0.930 . S
C1915 C1916 1.355 . S
C1915 C1917 1.415 . S
C1916 C1915 1.355 . S
C1916 C1918 1.419 . S
C1917 C1912 1.425 . S
C1917 C1914 1.409 . S
C1917 C1915 1.415 . S
C1918 H1908 0.930 . S
C1918 C1916 1.419 . S
C1918 C1919 1.362 . S
C1919 H1909 0.930 . S
C1919 C1912 1.409 . S
C1919 C1918 1.362 . S
H1920 C1926 0.930 . S
H1921 C1929 0.930 . S
H1922 C1930 0.930 . S
H1923 C1931 0.930 . S
H1924 C1934 0.930 . S
H1925 C1935 0.930 . S
C1926 H1920 0.930 . S
C1926 C1927 1.355 . S
C1926 C1928 1.415 . S
C1927 C1926 1.355 . S
C1927 C1929 1.419 . S
C1928 C1926 1.415 . S
C1928 C1933 1.425 . S
C1928 C1935 1.409 . S
C1929 H1921 0.930 . S
C1929 C1927 1.419 . S
C1929 C1930 1.362 . S
C1930 H1922 0.930 . S
C1930 C1929 1.362 . S
C1930 C1933 1.409 . S
C1931 H1923 0.930 . S
C1931 C1932 1.355 . S
C1931 C1933 1.415 . S
C1932 C1931 1.355 . S
C1932 C1934 1.419 . S
C1933 C1928 1.425 . S
C1933 C1930 1.409 . S
C1933 C1931 1.415 . S
C1934 H1924 0.930 . S
C1934 C1932 1.419 . S
C1934 C1935 1.362 . S
C1935 H1925 0.930 . S
C1935 C1928 1.409 . S
C1935 C1934 1.362 . S
H1936 C1942 0.930 . S
H1937 C1945 0.930 . S
H1938 C1946 0.930 . S
H1939 C1947 0.930 . S
H1940 C1950 0.930 . S
H1941 C1951 0.930 . S
C1942 H1936 0.930 . S
C1942 C1943 1.355 . S
C1942 C1944 1.415 . S
C1943 C1942 1.355 . S
C1943 C1945 1.419 . S
C1944 C1942 1.415 . S
C1944 C1949 1.425 . S
C1944 C1951 1.409 . S
C1945 H1937 0.930 . S
C1945 C1943 1.419 . S
C1945 C1946 1.362 . S
C1946 H1938 0.930 . S
C1946 C1945 1.362 . S
C1946 C1949 1.409 . S
C1947 H1939 0.930 . S
C1947 C1948 1.355 . S
C1947 C1949 1.415 . S
C1948 C1947 1.355 . S
C1948 C1950 1.419 . S
C1949 C1944 1.425 . S
C1949 C1946 1.409 . S
C1949 C1947 1.415 . S
C1950 H1940 0.930 . S
C1950 C1948 1.419 . S
C1950 C1951 1.362 . S
C1951 H1941 0.930 . S
C1951 C1944 1.409 . S
C1951 C1950 1.362 . S
H1952 C1958 0.930 . S
H1953 C1961 0.930 . S
H1954 C1962 0.930 . S
H1955 C1963 0.930 1_655 S
H1956 C1966 0.930 . S
H1957 C1967 0.930 . S
C1958 H1952 0.930 . S
C1958 C1959 1.355 . S
C1958 C1960 1.415 . S
C1959 C1958 1.355 . S
C1959 C1961 1.419 . S
C1960 C1958 1.415 . S
C1960 C1965 1.425 . S
C1960 C1967 1.409 . S
C1961 H1953 0.930 . S
C1961 C1959 1.419 . S
C1961 C1962 1.362 . S
C1962 H1954 0.930 . S
C1962 C1961 1.362 . S
C1962 C1965 1.409 . S
C1963 H1955 0.930 1_455 S
C1963 C1964 1.355 . S
C1963 C1965 1.415 . S
C1964 C1963 1.355 . S
C1964 C1966 1.419 . S
C1965 C1960 1.425 . S
C1965 C1962 1.409 . S
C1965 C1963 1.415 . S
C1966 H1956 0.930 . S
C1966 C1964 1.419 . S
C1966 C1967 1.362 . S
C1967 H1957 0.930 . S
C1967 C1960 1.409 . S
C1967 C1966 1.362 . S
H1968 C1974 0.930 . S
H1969 C1977 0.930 . S
H1970 C1978 0.930 . S
H1971 C1979 0.930 . S
H1972 C1982 0.930 . S
H1973 C1983 0.930 . S
C1974 H1968 0.930 . S
C1974 C1975 1.355 . S
C1974 C1976 1.415 . S
C1975 C1974 1.355 . S
C1975 C1977 1.419 . S
C1976 C1974 1.415 . S
C1976 C1981 1.425 . S
C1976 C1983 1.409 . S
C1977 H1969 0.930 . S
C1977 C1975 1.419 . S
C1977 C1978 1.362 . S
C1978 H1970 0.930 . S
C1978 C1977 1.362 . S
C1978 C1981 1.409 . S
C1979 H1971 0.930 . S
C1979 C1980 1.355 . S
C1979 C1981 1.415 . S
C1980 C1979 1.355 . S
C1980 C1982 1.419 . S
C1981 C1976 1.425 . S
C1981 C1978 1.409 . S
C1981 C1979 1.415 . S
C1982 H1972 0.930 . S
C1982 C1980 1.419 . S
C1982 C1983 1.362 . S
C1983 H1973 0.930 . S
C1983 C1976 1.409 . S
C1983 C1982 1.362 . S
H1984 C1990 0.930 . S
H1985 C1993 0.930 . S
H1986 C1994 0.930 . S
H1987 C1995 0.930 . S
H1988 C1998 0.952 . S
H1989 C1999 0.930 . S
C1990 H1984 0.930 . S
C1990 C1991 1.355 . S
C1990 C1992 1.415 . S
C1991 C1990 1.355 . S
C1991 C1993 1.419 . S
C1992 C1990 1.415 . S
C1992 C1997 1.425 . S
C1992 C1999 1.409 . S
C1993 H1985 0.930 . S
C1993 C1991 1.419 . S
C1993 C1994 1.362 . S
C1994 H1986 0.930 . S
C1994 C1993 1.362 . S
C1994 C1997 1.409 . S
C1995 H1987 0.930 . S
C1995 C1996 1.355 . S
C1995 C1997 1.415 . S
C1996 C1995 1.355 . S
C1996 C1998 1.414 1_556 S
C1997 C1992 1.425 . S
C1997 C1994 1.409 . S
C1997 C1995 1.415 . S
C1998 H1988 0.952 . S
C1998 C1996 1.414 1_554 S
C1998 C1999 1.346 1_554 S
C1999 H1989 0.930 . S
C1999 C1992 1.409 . S
C1999 C1998 1.346 1_556 S
H2000 C2006 0.930 . S
H2001 C2009 0.930 . S
H2002 C2010 0.930 . S
H2003 C2011 0.930 . S
H2004 C2014 0.930 . S
H2005 C2015 0.930 . S
C2006 H2000 0.930 . S
C2006 C2007 1.355 . S
C2006 C2008 1.415 . S
C2007 C2006 1.355 . S
C2007 C2009 1.419 . S
C2008 C2006 1.415 . S
C2008 C2013 1.425 . S
C2008 C2015 1.409 . S
C2009 H2001 0.930 . S
C2009 C2007 1.419 . S
C2009 C2010 1.362 . S
C2010 H2002 0.930 . S
C2010 C2009 1.362 . S
C2010 C2013 1.409 . S
C2011 H2003 0.930 . S
C2011 C2012 1.355 . S
C2011 C2013 1.415 . S
C2012 C2011 1.355 . S
C2012 C2014 1.419 . S
C2013 C2008 1.425 . S
C2013 C2010 1.409 . S
C2013 C2011 1.415 . S
C2014 H2004 0.930 . S
C2014 C2012 1.419 . S
C2014 C2015 1.362 . S
C2015 H2005 0.930 . S
C2015 C2008 1.409 . S
C2015 C2014 1.362 . S
H2016 C2022 0.930 . S
H2017 C2025 0.930 . S
H2018 C2026 0.930 . S
H2019 C2027 0.930 . S
H2020 C2030 0.930 . S
H2021 C2031 0.930 . S
C2022 H2016 0.930 . S
C2022 C2023 1.355 . S
C2022 C2024 1.415 . S
C2023 C2022 1.355 . S
C2023 C2025 1.419 . S
C2024 C2022 1.415 . S
C2024 C2029 1.425 . S
C2024 C2031 1.409 . S
C2025 H2017 0.930 . S
C2025 C2023 1.419 . S
C2025 C2026 1.362 . S
C2026 H2018 0.930 . S
C2026 C2025 1.362 . S
C2026 C2029 1.409 . S
C2027 H2019 0.930 . S
C2027 C2028 1.355 . S
C2027 C2029 1.415 . S
C2028 C2027 1.355 . S
C2028 C2030 1.419 . S
C2029 C2024 1.425 . S
C2029 C2026 1.409 . S
C2029 C2027 1.415 . S
C2030 H2020 0.930 . S
C2030 C2028 1.419 . S
C2030 C2031 1.362 . S
C2031 H2021 0.930 . S
C2031 C2024 1.409 . S
C2031 C2030 1.362 . S
H2032 C2038 0.930 . S
H2033 C2041 0.930 . S
H2034 C2042 0.930 . S
H2035 C2043 0.930 . S
H2036 C2046 0.930 . S
H2037 C2047 0.930 . S
C2038 H2032 0.930 . S
C2038 C2039 1.355 . S
C2038 C2040 1.415 . S
C2039 C2038 1.355 . S
C2039 C2041 1.419 . S
C2040 C2038 1.415 . S
C2040 C2045 1.425 . S
C2040 C2047 1.409 . S
C2041 H2033 0.930 . S
C2041 C2039 1.419 . S
C2041 C2042 1.362 . S
C2042 H2034 0.930 . S
C2042 C2041 1.362 . S
C2042 C2045 1.409 . S
C2043 H2035 0.930 . S
C2043 C2044 1.355 . S
C2043 C2045 1.415 . S
C2044 C2043 1.355 . S
C2044 C2046 1.419 . S
C2045 C2040 1.425 . S
C2045 C2042 1.409 . S
C2045 C2043 1.415 . S
C2046 H2036 0.930 . S
C2046 C2044 1.419 . S
C2046 C2047 1.362 . S
C2047 H2037 0.930 . S
C2047 C2040 1.409 . S
C2047 C2046 1.362 . S
H2048 C2054 0.930 1_565 S
H2049 C2057 0.930 . S
H2050 C2058 0.930 . S
H2051 C2059 0.930 . S
H2052 C2062 0.930 . S
H2053 C2063 0.930 1_565 S
C2054 H2048 0.930 1_545 S
C2054 C2055 1.355 . S
C2054 C2056 1.415 . S
C2055 C2054 1.355 . S
C2055 C2057 1.419 . S
C2056 C2054 1.415 . S
C2056 C2061 1.425 . S
C2056 C2063 1.409 . S
C2057 H2049 0.930 . S
C2057 C2055 1.419 . S
C2057 C2058 1.362 . S
C2058 H2050 0.930 . S
C2058 C2057 1.362 . S
C2058 C2061 1.409 . S
C2059 H2051 0.930 . S
C2059 C2060 1.355 . S
C2059 C2061 1.415 . S
C2060 C2059 1.355 . S
C2060 C2062 1.419 . S
C2061 C2056 1.425 . S
C2061 C2058 1.409 . S
C2061 C2059 1.415 . S
C2062 H2052 0.930 . S
C2062 C2060 1.419 . S
C2062 C2063 1.362 . S
C2063 H2053 0.930 1_545 S
C2063 C2056 1.409 . S
C2063 C2062 1.362 . S
H2064 C2070 0.930 . S
H2065 C2073 0.930 . S
H2066 C2074 0.930 . S
H2067 C2075 0.930 . S
H2068 C2078 0.930 . S
H2069 C2079 0.930 . S
C2070 H2064 0.930 . S
C2070 C2071 1.355 . S
C2070 C2072 1.415 . S
C2071 C2070 1.355 . S
C2071 C2073 1.419 . S
C2072 C2070 1.415 . S
C2072 C2077 1.425 . S
C2072 C2079 1.409 . S
C2073 H2065 0.930 . S
C2073 C2071 1.419 . S
C2073 C2074 1.362 . S
C2074 H2066 0.930 . S
C2074 C2073 1.362 . S
C2074 C2077 1.409 . S
C2075 H2067 0.930 . S
C2075 C2076 1.355 . S
C2075 C2077 1.415 . S
C2076 C2075 1.355 . S
C2076 C2078 1.419 . S
C2077 C2072 1.425 . S
C2077 C2074 1.409 . S
C2077 C2075 1.415 . S
C2078 H2068 0.930 . S
C2078 C2076 1.419 . S
C2078 C2079 1.362 . S
C2079 H2069 0.930 . S
C2079 C2072 1.409 . S
C2079 C2078 1.362 . S
H2080 C2086 0.930 . S
H2081 C2089 0.930 . S
H2082 C2090 0.930 . S
H2083 C2091 0.930 . S
H2084 C2094 0.930 . S
H2085 C2095 0.930 . S
C2086 H2080 0.930 . S
C2086 C2087 1.355 . S
C2086 C2088 1.415 . S
C2087 C2086 1.355 . S
C2087 C2089 1.419 . S
C2088 C2086 1.415 . S
C2088 C2093 1.425 . S
C2088 C2095 1.409 . S
C2089 H2081 0.930 . S
C2089 C2087 1.419 . S
C2089 C2090 1.362 . S
C2090 H2082 0.930 . S
C2090 C2089 1.362 . S
C2090 C2093 1.409 . S
C2091 H2083 0.930 . S
C2091 C2092 1.355 . S
C2091 C2093 1.415 . S
C2092 C2091 1.355 . S
C2092 C2094 1.419 . S
C2093 C2088 1.425 . S
C2093 C2090 1.409 . S
C2093 C2091 1.415 . S
C2094 H2084 0.930 . S
C2094 C2092 1.419 . S
C2094 C2095 1.362 . S
C2095 H2085 0.930 . S
C2095 C2088 1.409 . S
C2095 C2094 1.362 . S
H2096 C2102 0.930 . S
H2097 C2105 0.930 . S
H2098 C2106 0.930 . S
H2099 C2107 0.930 . S
H2100 C2110 0.930 . S
H2101 C2111 0.930 . S
C2102 H2096 0.930 . S
C2102 C2103 1.355 . S
C2102 C2104 1.415 . S
C2103 C2102 1.355 . S
C2103 C2105 1.419 . S
C2104 C2102 1.415 . S
C2104 C2109 1.425 . S
C2104 C2111 1.409 . S
C2105 H2097 0.930 . S
C2105 C2103 1.419 . S
C2105 C2106 1.362 . S
C2106 H2098 0.930 . S
C2106 C2105 1.362 . S
C2106 C2109 1.409 . S
C2107 H2099 0.930 . S
C2107 C2108 1.355 . S
C2107 C2109 1.415 . S
C2108 C2107 1.355 . S
C2108 C2110 1.419 . S
C2109 C2104 1.425 . S
C2109 C2106 1.409 . S
C2109 C2107 1.415 . S
C2110 H2100 0.930 . S
C2110 C2108 1.419 . S
C2110 C2111 1.362 . S
C2111 H2101 0.930 . S
C2111 C2104 1.409 . S
C2111 C2110 1.362 . S
H2112 C2118 0.930 . S
H2113 C2121 0.930 . S
H2114 C2122 0.930 . S
H2115 C2123 0.930 . S
H2116 C2126 0.930 . S
H2117 C2127 0.930 . S
C2118 H2112 0.930 . S
C2118 C2119 1.355 1_545 S
C2118 C2120 1.415 . S
C2119 C2118 1.355 1_565 S
C2119 C2121 1.419 . S
C2120 C2118 1.415 . S
C2120 C2125 1.425 1_545 S
C2120 C2127 1.409 . S
C2121 H2113 0.930 . S
C2121 C2119 1.419 . S
C2121 C2122 1.362 . S
C2122 H2114 0.930 . S
C2122 C2121 1.362 . S
C2122 C2125 1.409 . S
C2123 H2115 0.930 . S
C2123 C2124 1.355 . S
C2123 C2125 1.415 . S
C2124 C2123 1.355 . S
C2124 C2126 1.419 1_565 S
C2125 C2120 1.425 1_565 S
C2125 C2122 1.409 . S
C2125 C2123 1.415 . S
C2126 H2116 0.930 . S
C2126 C2124 1.419 1_545 S
C2126 C2127 1.362 . S
C2127 H2117 0.930 . S
C2127 C2120 1.409 . S
C2127 C2126 1.362 . S
H2128 C2134 0.930 . S
H2129 C2137 0.930 . S
H2130 C2138 0.930 . S
H2131 C2139 0.930 . S
H2132 C2142 0.930 . S
H2133 C2143 0.930 . S
C2134 H2128 0.930 . S
C2134 C2135 1.355 . S
C2134 C2136 1.415 . S
C2135 C2134 1.355 . S
C2135 C2137 1.419 . S
C2136 C2134 1.415 . S
C2136 C2141 1.425 . S
C2136 C2143 1.409 . S
C2137 H2129 0.930 . S
C2137 C2135 1.419 . S
C2137 C2138 1.362 . S
C2138 H2130 0.930 . S
C2138 C2137 1.362 . S
C2138 C2141 1.409 . S
C2139 H2131 0.930 . S
C2139 C2140 1.355 . S
C2139 C2141 1.415 . S
C2140 C2139 1.355 . S
C2140 C2142 1.419 . S
C2141 C2136 1.425 . S
C2141 C2138 1.409 . S
C2141 C2139 1.415 . S
C2142 H2132 0.930 . S
C2142 C2140 1.419 . S
C2142 C2143 1.362 . S
C2143 H2133 0.930 . S
C2143 C2136 1.409 . S
C2143 C2142 1.362 . S
H2144 C2150 0.930 . S
H2145 C2153 0.930 . S
H2146 C2154 0.930 . S
H2147 C2155 0.930 . S
H2148 C2158 0.930 1_556 S
H2149 C2159 0.930 . S
C2150 H2144 0.930 . S
C2150 C2151 1.355 . S
C2150 C2152 1.415 . S
C2151 C2150 1.355 . S
C2151 C2153 1.419 . S
C2152 C2150 1.415 . S
C2152 C2157 1.425 . S
C2152 C2159 1.409 . S
C2153 H2145 0.930 . S
C2153 C2151 1.419 . S
C2153 C2154 1.362 . S
C2154 H2146 0.930 . S
C2154 C2153 1.362 . S
C2154 C2157 1.409 . S
C2155 H2147 0.930 . S
C2155 C2156 1.355 . S
C2155 C2157 1.415 . S
C2156 C2155 1.355 . S
C2156 C2158 1.419 . S
C2157 C2152 1.425 . S
C2157 C2154 1.409 . S
C2157 C2155 1.415 . S
C2158 H2148 0.930 1_554 S
C2158 C2156 1.419 . S
C2158 C2159 1.362 . S
C2159 H2149 0.930 . S
C2159 C2152 1.409 . S
C2159 C2158 1.362 . S
H2160 C2166 0.930 . S
H2161 C2169 0.930 . S
H2162 C2170 0.930 . S
H2163 C2171 0.930 . S
H2164 C2174 0.930 . S
H2165 C2175 0.930 . S
C2166 H2160 0.930 . S
C2166 C2167 1.355 . S
C2166 C2168 1.415 . S
C2167 C2166 1.355 . S
C2167 C2169 1.419 . S
C2168 C2166 1.415 . S
C2168 C2173 1.425 . S
C2168 C2175 1.409 . S
C2169 H2161 0.930 . S
C2169 C2167 1.419 . S
C2169 C2170 1.362 . S
C2170 H2162 0.930 . S
C2170 C2169 1.362 . S
C2170 C2173 1.409 . S
C2171 H2163 0.930 . S
C2171 C2172 1.355 . S
C2171 C2173 1.415 . S
C2172 C2171 1.355 . S
C2172 C2174 1.419 . S
C2173 C2168 1.425 . S
C2173 C2170 1.409 . S
C2173 C2171 1.415 . S
C2174 H2164 0.930 . S
C2174 C2172 1.419 . S
C2174 C2175 1.362 . S
C2175 H2165 0.930 . S
C2175 C2168 1.409 . S
C2175 C2174 1.362 . S
H2176 C2182 0.930 . S
H2177 C2185 0.930 . S
H2178 C2186 0.930 . S
H2179 C2187 0.930 . S
H2180 C2190 0.930 . S
H2181 C2191 0.930 . S
C2182 H2176 0.930 . S
C2182 C2183 1.355 . S
C2182 C2184 1.415 . S
C2183 C2182 1.355 . S
C2183 C2185 1.419 . S
C2184 C2182 1.415 . S
C2184 C2189 1.425 . S
C2184 C2191 1.409 . S
C2185 H2177 0.930 . S
C2185 C2183 1.419 . S
C2185 C2186 1.362 . S
C2186 H2178 0.930 . S
C2186 C2185 1.362 . S
C2186 C2189 1.409 . S
C2187 H2179 0.930 . S
C2187 C2188 1.355 . S
C2187 C2189 1.415 . S
C2188 C2187 1.355 . S
C2188 C2190 1.419 . S
C2189 C2184 1.425 . S
C2189 C2186 1.409 . S
C2189 C2187 1.415 . S
C2190 H2180 0.930 . S
C2190 C2188 1.419 . S
C2190 C2191 1.362 . S
C2191 H2181 0.930 . S
C2191 C2184 1.409 . S
C2191 C2190 1.362 . S
H2192 C2198 0.930 . S
H2193 C2201 0.930 . S
H2194 C2202 0.930 . S
H2195 C2203 0.930 . S
H2196 C2206 0.930 . S
H2197 C2207 0.930 . S
C2198 H2192 0.930 . S
C2198 C2199 1.355 . S
C2198 C2200 1.415 . S
C2199 C2198 1.355 . S
C2199 C2201 1.419 . S
C2200 C2198 1.415 . S
C2200 C2205 1.425 . S
C2200 C2207 1.409 . S
C2201 H2193 0.930 . S
C2201 C2199 1.419 . S
C2201 C2202 1.362 . S
C2202 H2194 0.930 . S
C2202 C2201 1.362 . S
C2202 C2205 1.409 . S
C2203 H2195 0.930 . S
C2203 C2204 1.355 . S
C2203 C2205 1.415 . S
C2204 C2203 1.355 . S
C2204 C2206 1.419 . S
C2205 C2200 1.425 . S
C2205 C2202 1.409 . S
C2205 C2203 1.415 . S
C2206 H2196 0.930 . S
C2206 C2204 1.419 . S
C2206 C2207 1.362 . S
C2207 H2197 0.930 . S
C2207 C2200 1.409 . S
C2207 C2206 1.362 . S
H2208 C2214 0.930 . S
H2209 C2217 0.930 . S
H2210 C2218 0.930 . S
H2211 C2219 0.937 . S
H2212 C2222 0.930 . S
H2213 C2223 0.930 . S
C2214 H2208 0.930 . S
C2214 C2215 1.355 . S
C2214 C2216 1.386 1_545 S
C2215 C2214 1.355 . S
C2215 C2217 1.419 . S
C2216 C2214 1.386 1_565 S
C2216 C2221 1.420 1_565 S
C2216 C2223 1.443 . S
C2217 H2209 0.930 . S
C2217 C2215 1.419 . S
C2217 C2218 1.362 . S
C2218 H2210 0.930 . S
C2218 C2217 1.362 . S
C2218 C2221 1.409 . S
C2219 H2211 0.937 . S
C2219 C2220 1.355 . S
C2219 C2221 1.415 1_565 S
C2220 C2219 1.355 . S
C2220 C2222 1.419 . S
C2221 C2216 1.420 1_545 S
C2221 C2218 1.409 . S
C2221 C2219 1.415 1_545 S
C2222 H2212 0.930 . S
C2222 C2220 1.419 . S
C2222 C2223 1.362 . S
C2223 H2213 0.930 . S
C2223 C2216 1.443 . S
C2223 C2222 1.362 . S
H2224 C2230 0.930 . S
H2225 C2233 0.930 . S
H2226 C2234 0.930 . S
H2227 C2235 0.930 . S
H2228 C2238 0.930 . S
H2229 C2239 0.930 . S
C2230 H2224 0.930 . S
C2230 C2231 1.355 . S
C2230 C2232 1.415 . S
C2231 C2230 1.355 . S
C2231 C2233 1.419 . S
C2232 C2230 1.415 . S
C2232 C2237 1.425 . S
C2232 C2239 1.409 . S
C2233 H2225 0.930 . S
C2233 C2231 1.419 . S
C2233 C2234 1.362 . S
C2234 H2226 0.930 . S
C2234 C2233 1.362 . S
C2234 C2237 1.409 . S
C2235 H2227 0.930 . S
C2235 C2236 1.355 . S
C2235 C2237 1.415 . S
C2236 C2235 1.355 . S
C2236 C2238 1.419 . S
C2237 C2232 1.425 . S
C2237 C2234 1.409 . S
C2237 C2235 1.415 . S
C2238 H2228 0.930 . S
C2238 C2236 1.419 . S
C2238 C2239 1.362 . S
C2239 H2229 0.930 . S
C2239 C2232 1.409 . S
C2239 C2238 1.362 . S
H2240 C2246 0.930 . S
H2241 C2249 0.930 . S
H2242 C2250 0.930 . S
H2243 C2251 0.930 . S
H2244 C2254 0.930 . S
H2245 C2255 0.930 . S
C2246 H2240 0.930 . S
C2246 C2247 1.355 . S
C2246 C2248 1.415 . S
C2247 C2246 1.355 . S
C2247 C2249 1.419 . S
C2248 C2246 1.415 . S
C2248 C2253 1.425 . S
C2248 C2255 1.409 . S
C2249 H2241 0.930 . S
C2249 C2247 1.419 . S
C2249 C2250 1.362 . S
C2250 H2242 0.930 . S
C2250 C2249 1.362 . S
C2250 C2253 1.409 . S
C2251 H2243 0.930 . S
C2251 C2252 1.355 . S
C2251 C2253 1.415 . S
C2252 C2251 1.355 . S
C2252 C2254 1.419 . S
C2253 C2248 1.425 . S
C2253 C2250 1.409 . S
C2253 C2251 1.415 . S
C2254 H2244 0.930 . S
C2254 C2252 1.419 . S
C2254 C2255 1.362 . S
C2255 H2245 0.930 . S
C2255 C2248 1.409 . S
C2255 C2254 1.362 . S
H2256 C2262 0.930 . S
H2257 C2265 0.930 . S
H2258 C2266 0.930 . S
H2259 C2267 0.930 . S
H2260 C2270 0.930 . S
H2261 C2271 0.930 . S
C2262 H2256 0.930 . S
C2262 C2263 1.355 . S
C2262 C2264 1.415 . S
C2263 C2262 1.355 . S
C2263 C2265 1.419 . S
C2264 C2262 1.415 . S
C2264 C2269 1.425 . S
C2264 C2271 1.409 . S
C2265 H2257 0.930 . S
C2265 C2263 1.419 . S
C2265 C2266 1.362 . S
C2266 H2258 0.930 . S
C2266 C2265 1.362 . S
C2266 C2269 1.409 . S
C2267 H2259 0.930 . S
C2267 C2268 1.355 . S
C2267 C2269 1.415 . S
C2268 C2267 1.355 . S
C2268 C2270 1.419 . S
C2269 C2264 1.425 . S
C2269 C2266 1.409 . S
C2269 C2267 1.415 . S
C2270 H2260 0.930 . S
C2270 C2268 1.419 . S
C2270 C2271 1.362 . S
C2271 H2261 0.930 . S
C2271 C2264 1.409 . S
C2271 C2270 1.362 . S
H2272 C2278 0.930 . S
H2273 C2281 0.930 . S
H2274 C2282 0.930 . S
H2275 C2283 0.930 . S
H2276 C2286 0.930 . S
H2277 C2287 0.930 . S
C2278 H2272 0.930 . S
C2278 C2279 1.355 . S
C2278 C2280 1.415 . S
C2279 C2278 1.355 . S
C2279 C2281 1.419 . S
C2280 C2278 1.415 . S
C2280 C2285 1.425 . S
C2280 C2287 1.409 . S
C2281 H2273 0.930 . S
C2281 C2279 1.419 . S
C2281 C2282 1.362 . S
C2282 H2274 0.930 . S
C2282 C2281 1.362 . S
C2282 C2285 1.409 . S
C2283 H2275 0.930 . S
C2283 C2284 1.355 . S
C2283 C2285 1.415 . S
C2284 C2283 1.355 . S
C2284 C2286 1.419 . S
C2285 C2280 1.425 . S
C2285 C2282 1.409 . S
C2285 C2283 1.415 . S
C2286 H2276 0.930 . S
C2286 C2284 1.419 . S
C2286 C2287 1.362 . S
C2287 H2277 0.930 . S
C2287 C2280 1.409 . S
C2287 C2286 1.362 . S
H2288 C2294 0.930 . S
H2289 C2297 0.930 . S
H2290 C2298 0.930 . S
H2291 C2299 0.930 . S
H2292 C2302 0.930 . S
H2293 C2303 0.930 . S
C2294 H2288 0.930 . S
C2294 C2295 1.355 . S
C2294 C2296 1.415 . S
C2295 C2294 1.355 . S
C2295 C2297 1.419 . S
C2296 C2294 1.415 . S
C2296 C2301 1.425 . S
C2296 C2303 1.409 . S
C2297 H2289 0.930 . S
C2297 C2295 1.419 . S
C2297 C2298 1.362 . S
C2298 H2290 0.930 . S
C2298 C2297 1.362 . S
C2298 C2301 1.409 . S
C2299 H2291 0.930 . S
C2299 C2300 1.355 . S
C2299 C2301 1.415 . S
C2300 C2299 1.355 . S
C2300 C2302 1.419 . S
C2301 C2296 1.425 . S
C2301 C2298 1.409 . S
C2301 C2299 1.415 . S
C2302 H2292 0.930 . S
C2302 C2300 1.419 . S
C2302 C2303 1.362 . S
C2303 H2293 0.930 . S
C2303 C2296 1.409 . S
C2303 C2302 1.362 . S
H2304 C2310 0.944 1_556 S
H2305 C2313 0.930 . S
H2306 C2314 0.930 . S
H2307 C2315 0.930 . S
H2308 C2318 0.930 . S
H2309 C2319 0.930 1_556 S
C2310 H2304 0.944 1_554 S
C2310 C2311 1.339 1_655 S
C2310 C2312 1.417 1_655 S
C2311 C2310 1.339 1_455 S
C2311 C2313 1.419 . S
C2312 C2310 1.417 1_455 S
C2312 C2317 1.425 . S
C2312 C2319 1.409 1_455 S
C2313 H2305 0.930 . S
C2313 C2311 1.419 . S
C2313 C2314 1.362 . S
C2314 H2306 0.930 . S
C2314 C2313 1.362 . S
C2314 C2317 1.409 . S
C2315 H2307 0.930 . S
C2315 C2316 1.355 . S
C2315 C2317 1.415 . S
C2316 C2315 1.355 . S
C2316 C2318 1.419 1_455 S
C2317 C2312 1.425 . S
C2317 C2314 1.409 . S
C2317 C2315 1.415 . S
C2318 H2308 0.930 . S
C2318 C2316 1.419 1_655 S
C2318 C2319 1.362 . S
C2319 H2309 0.930 1_554 S
C2319 C2312 1.409 1_655 S
C2319 C2318 1.362 . S
H2320 C2326 0.930 . S
H2321 C2329 0.930 . S
H2322 C2330 0.922 1_455 S
H2323 C2331 0.930 . S
H2324 C2334 0.930 . S
H2325 C2335 0.930 . S
C2326 H2320 0.930 . S
C2326 C2327 1.356 1_655 S
C2326 C2328 1.415 . S
C2327 C2326 1.356 1_455 S
C2327 C2329 1.418 . S
C2328 C2326 1.415 . S
C2328 C2333 1.425 . S
C2328 C2335 1.409 . S
C2329 H2321 0.930 . S
C2329 C2327 1.418 . S
C2329 C2330 1.351 1_455 S
C2330 H2322 0.922 1_655 S
C2330 C2329 1.351 1_655 S
C2330 C2333 1.429 . S
C2331 H2323 0.930 . S
C2331 C2332 1.355 . S
C2331 C2333 1.415 . S
C2332 C2331 1.355 . S
C2332 C2334 1.419 . S
C2333 C2328 1.425 . S
C2333 C2330 1.429 . S
C2333 C2331 1.415 . S
C2334 H2324 0.930 . S
C2334 C2332 1.419 . S
C2334 C2335 1.362 . S
C2335 H2325 0.930 . S
C2335 C2328 1.409 . S
C2335 C2334 1.362 . S
H2336 C2342 0.930 . S
H2337 C2345 0.930 . S
H2338 C2346 0.930 . S
H2339 C2347 0.930 . S
H2340 C2350 0.930 . S
H2341 C2351 0.930 . S
C2342 H2336 0.930 . S
C2342 C2343 1.355 . S
C2342 C2344 1.415 . S
C2343 C2342 1.355 . S
C2343 C2345 1.419 . S
C2344 C2342 1.415 . S
C2344 C2349 1.425 . S
C2344 C2351 1.409 . S
C2345 H2337 0.930 . S
C2345 C2343 1.419 . S
C2345 C2346 1.362 . S
C2346 H2338 0.930 . S
C2346 C2345 1.362 . S
C2346 C2349 1.409 . S
C2347 H2339 0.930 . S
C2347 C2348 1.355 . S
C2347 C2349 1.415 . S
C2348 C2347 1.355 . S
C2348 C2350 1.419 . S
C2349 C2344 1.425 . S
C2349 C2346 1.409 . S
C2349 C2347 1.415 . S
C2350 H2340 0.930 . S
C2350 C2348 1.419 . S
C2350 C2351 1.362 . S
C2351 H2341 0.930 . S
C2351 C2344 1.409 . S
C2351 C2350 1.362 . S
H2352 C2358 0.930 . S
H2353 C2361 0.930 . S
H2354 C2362 0.930 . S
H2355 C2363 0.930 . S
H2356 C2366 0.930 . S
H2357 C2367 0.930 . S
C2358 H2352 0.930 . S
C2358 C2359 1.355 . S
C2358 C2360 1.415 . S
C2359 C2358 1.355 . S
C2359 C2361 1.419 . S
C2360 C2358 1.415 . S
C2360 C2365 1.425 . S
C2360 C2367 1.409 . S
C2361 H2353 0.930 . S
C2361 C2359 1.419 . S
C2361 C2362 1.362 . S
C2362 H2354 0.930 . S
C2362 C2361 1.362 . S
C2362 C2365 1.409 . S
C2363 H2355 0.930 . S
C2363 C2364 1.355 . S
C2363 C2365 1.415 . S
C2364 C2363 1.355 . S
C2364 C2366 1.419 . S
C2365 C2360 1.425 . S
C2365 C2362 1.409 . S
C2365 C2363 1.415 . S
C2366 H2356 0.930 . S
C2366 C2364 1.419 . S
C2366 C2367 1.362 . S
C2367 H2357 0.930 . S
C2367 C2360 1.409 . S
C2367 C2366 1.362 . S
H2368 C2374 0.930 1_655 S
H2369 C2377 0.930 . S
H2370 C2378 0.930 . S
H2371 C2379 0.930 . S
H2372 C2382 0.930 . S
H2373 C2383 0.930 . S
C2374 H2368 0.930 1_455 S
C2374 C2375 1.355 . S
C2374 C2376 1.415 . S
C2375 C2374 1.355 . S
C2375 C2377 1.419 . S
C2376 C2374 1.415 . S
C2376 C2381 1.425 . S
C2376 C2383 1.409 1_455 S
C2377 H2369 0.930 . S
C2377 C2375 1.419 . S
C2377 C2378 1.362 . S
C2378 H2370 0.930 . S
C2378 C2377 1.362 . S
C2378 C2381 1.409 . S
C2379 H2371 0.930 . S
C2379 C2380 1.355 . S
C2379 C2381 1.415 . S
C2380 C2379 1.355 . S
C2380 C2382 1.419 1_455 S
C2381 C2376 1.425 . S
C2381 C2378 1.409 . S
C2381 C2379 1.415 . S
C2382 H2372 0.930 . S
C2382 C2380 1.419 1_655 S
C2382 C2383 1.362 . S
C2383 H2373 0.930 . S
C2383 C2376 1.409 1_655 S
C2383 C2382 1.362 . S
H2384 C2390 0.930 . S
H2385 C2393 0.930 . S
H2386 C2394 0.930 . S
H2387 C2395 0.930 . S
H2388 C2398 0.930 . S
H2389 C2399 0.930 . S
C2390 H2384 0.930 . S
C2390 C2391 1.355 . S
C2390 C2392 1.415 . S
C2391 C2390 1.355 . S
C2391 C2393 1.419 . S
C2392 C2390 1.415 . S
C2392 C2397 1.425 . S
C2392 C2399 1.409 . S
C2393 H2385 0.930 . S
C2393 C2391 1.419 . S
C2393 C2394 1.362 . S
C2394 H2386 0.930 . S
C2394 C2393 1.362 . S
C2394 C2397 1.409 . S
C2395 H2387 0.930 . S
C2395 C2396 1.355 . S
C2395 C2397 1.415 . S
C2396 C2395 1.355 . S
C2396 C2398 1.419 . S
C2397 C2392 1.425 . S
C2397 C2394 1.409 . S
C2397 C2395 1.415 . S
C2398 H2388 0.930 . S
C2398 C2396 1.419 . S
C2398 C2399 1.362 . S
C2399 H2389 0.930 . S
C2399 C2392 1.409 . S
C2399 C2398 1.362 . S
H2400 C2406 0.930 . S
H2401 C2409 0.930 . S
H2402 C2410 0.930 . S
H2403 C2411 0.930 . S
H2404 C2414 0.930 . S
H2405 C2415 0.930 . S
C2406 H2400 0.930 . S
C2406 C2407 1.355 . S
C2406 C2408 1.415 . S
C2407 C2406 1.355 . S
C2407 C2409 1.419 . S
C2408 C2406 1.415 . S
C2408 C2413 1.425 . S
C2408 C2415 1.409 . S
C2409 H2401 0.930 . S
C2409 C2407 1.419 . S
C2409 C2410 1.362 . S
C2410 H2402 0.930 . S
C2410 C2409 1.362 . S
C2410 C2413 1.409 . S
C2411 H2403 0.930 . S
C2411 C2412 1.355 . S
C2411 C2413 1.415 . S
C2412 C2411 1.355 . S
C2412 C2414 1.419 . S
C2413 C2408 1.425 . S
C2413 C2410 1.409 . S
C2413 C2411 1.415 . S
C2414 H2404 0.930 . S
C2414 C2412 1.419 . S
C2414 C2415 1.362 . S
C2415 H2405 0.930 . S
C2415 C2408 1.409 . S
C2415 C2414 1.362 . S
H2416 C2422 0.930 . S
H2417 C2425 0.930 . S
H2418 C2426 0.930 . S
H2419 C2427 0.930 . S
H2420 C2430 0.930 . S
H2421 C2431 0.920 1_554 S
C2422 H2416 0.930 . S
C2422 C2423 1.355 . S
C2422 C2424 1.415 1_554 S
C2423 C2422 1.355 . S
C2423 C2425 1.419 1_554 S
C2424 C2422 1.415 1_556 S
C2424 C2429 1.425 . S
C2424 C2431 1.408 . S
C2425 H2417 0.930 . S
C2425 C2423 1.419 1_556 S
C2425 C2426 1.362 . S
C2426 H2418 0.930 . S
C2426 C2425 1.362 . S
C2426 C2429 1.409 . S
C2427 H2419 0.930 . S
C2427 C2428 1.355 . S
C2427 C2429 1.415 . S
C2428 C2427 1.355 . S
C2428 C2430 1.419 . S
C2429 C2424 1.425 . S
C2429 C2426 1.409 . S
C2429 C2427 1.415 . S
C2430 H2420 0.930 . S
C2430 C2428 1.419 . S
C2430 C2431 1.373 . S
C2431 H2421 0.920 1_556 S
C2431 C2424 1.408 . S
C2431 C2430 1.373 . S
H2432 C2438 0.930 . S
H2433 C2441 0.930 . S
H2434 C2442 0.930 . S
H2435 C2443 0.930 . S
H2436 C2446 0.930 . S
H2437 C2447 0.930 . S
C2438 H2432 0.930 . S
C2438 C2439 1.355 . S
C2438 C2440 1.415 . S
C2439 C2438 1.355 . S
C2439 C2441 1.419 . S
C2440 C2438 1.415 . S
C2440 C2445 1.425 . S
C2440 C2447 1.409 . S
C2441 H2433 0.930 . S
C2441 C2439 1.419 . S
C2441 C2442 1.362 . S
C2442 H2434 0.930 . S
C2442 C2441 1.362 . S
C2442 C2445 1.409 . S
C2443 H2435 0.930 . S
C2443 C2444 1.355 . S
C2443 C2445 1.415 . S
C2444 C2443 1.355 . S
C2444 C2446 1.419 . S
C2445 C2440 1.425 . S
C2445 C2442 1.409 . S
C2445 C2443 1.415 . S
C2446 H2436 0.930 . S
C2446 C2444 1.419 . S
C2446 C2447 1.362 . S
C2447 H2437 0.930 . S
C2447 C2440 1.409 . S
C2447 C2446 1.362 . S
H2448 C2454 0.930 . S
H2449 C2457 0.930 . S
H2450 C2458 0.930 . S
H2451 C2459 0.930 . S
H2452 C2462 0.930 . S
H2453 C2463 0.930 . S
C2454 H2448 0.930 . S
C2454 C2455 1.355 . S
C2454 C2456 1.415 . S
C2455 C2454 1.355 . S
C2455 C2457 1.419 . S
C2456 C2454 1.415 . S
C2456 C2461 1.425 . S
C2456 C2463 1.409 . S
C2457 H2449 0.930 . S
C2457 C2455 1.419 . S
C2457 C2458 1.362 . S
C2458 H2450 0.930 . S
C2458 C2457 1.362 . S
C2458 C2461 1.409 . S
C2459 H2451 0.930 . S
C2459 C2460 1.355 . S
C2459 C2461 1.415 . S
C2460 C2459 1.355 . S
C2460 C2462 1.419 . S
C2461 C2456 1.425 . S
C2461 C2458 1.409 . S
C2461 C2459 1.415 . S
C2462 H2452 0.930 . S
C2462 C2460 1.419 . S
C2462 C2463 1.362 . S
C2463 H2453 0.930 . S
C2463 C2456 1.409 . S
C2463 C2462 1.362 . S
H2464 C2470 0.930 . S
H2465 C2473 0.930 . S
H2466 C2474 0.930 . S
H2467 C2475 0.930 . S
H2468 C2478 0.930 . S
H2469 C2479 0.930 . S
C2470 H2464 0.930 . S
C2470 C2471 1.355 . S
C2470 C2472 1.415 . S
C2471 C2470 1.355 . S
C2471 C2473 1.419 . S
C2472 C2470 1.415 . S
C2472 C2477 1.425 . S
C2472 C2479 1.409 . S
C2473 H2465 0.930 . S
C2473 C2471 1.419 . S
C2473 C2474 1.362 . S
C2474 H2466 0.930 . S
C2474 C2473 1.362 . S
C2474 C2477 1.409 . S
C2475 H2467 0.930 . S
C2475 C2476 1.355 . S
C2475 C2477 1.415 . S
C2476 C2475 1.355 . S
C2476 C2478 1.419 . S
C2477 C2472 1.425 . S
C2477 C2474 1.409 . S
C2477 C2475 1.415 . S
C2478 H2468 0.930 . S
C2478 C2476 1.419 . S
C2478 C2479 1.362 . S
C2479 H2469 0.930 . S
C2479 C2472 1.409 . S
C2479 C2478 1.362 . S
H2480 C2486 0.930 . S
H2481 C2489 0.930 . S
H2482 C2490 0.930 . S
H2483 C2491 0.930 . S
H2484 C2494 0.930 . S
H2485 C2495 0.930 . S
C2486 H2480 0.930 . S
C2486 C2487 1.355 . S
C2486 C2488 1.415 . S
C2487 C2486 1.355 . S
C2487 C2489 1.419 . S
C2488 C2486 1.415 . S
C2488 C2493 1.425 . S
C2488 C2495 1.409 . S
C2489 H2481 0.930 . S
C2489 C2487 1.419 . S
C2489 C2490 1.362 . S
C2490 H2482 0.930 . S
C2490 C2489 1.362 . S
C2490 C2493 1.409 . S
C2491 H2483 0.930 . S
C2491 C2492 1.355 . S
C2491 C2493 1.415 . S
C2492 C2491 1.355 . S
C2492 C2494 1.419 . S
C2493 C2488 1.425 . S
C2493 C2490 1.409 . S
C2493 C2491 1.415 . S
C2494 H2484 0.930 . S
C2494 C2492 1.419 . S
C2494 C2495 1.362 . S
C2495 H2485 0.930 . S
C2495 C2488 1.409 . S
C2495 C2494 1.362 . S
H2496 C2502 0.930 . S
H2497 C2505 0.930 . S
H2498 C2506 0.930 . S
H2499 C2507 0.930 . S
H2500 C2510 0.930 . S
H2501 C2511 0.930 . S
C2502 H2496 0.930 . S
C2502 C2503 1.355 . S
C2502 C2504 1.415 . S
C2503 C2502 1.355 . S
C2503 C2505 1.419 . S
C2504 C2502 1.415 . S
C2504 C2509 1.425 . S
C2504 C2511 1.409 . S
C2505 H2497 0.930 . S
C2505 C2503 1.419 . S
C2505 C2506 1.362 . S
C2506 H2498 0.930 . S
C2506 C2505 1.362 . S
C2506 C2509 1.409 . S
C2507 H2499 0.930 . S
C2507 C2508 1.355 . S
C2507 C2509 1.415 . S
C2508 C2507 1.355 . S
C2508 C2510 1.419 . S
C2509 C2504 1.425 . S
C2509 C2506 1.409 . S
C2509 C2507 1.415 . S
C2510 H2500 0.930 . S
C2510 C2508 1.419 . S
C2510 C2511 1.362 . S
C2511 H2501 0.930 . S
C2511 C2504 1.409 . S
C2511 C2510 1.362 . S
H2512 C2518 0.930 . S
H2513 C2521 0.930 . S
H2514 C2522 0.930 . S
H2515 C2523 0.930 . S
H2516 C2526 0.930 . S
H2517 C2527 0.930 . S
C2518 H2512 0.930 . S
C2518 C2519 1.355 . S
C2518 C2520 1.415 . S
C2519 C2518 1.355 . S
C2519 C2521 1.419 . S
C2520 C2518 1.415 . S
C2520 C2525 1.425 . S
C2520 C2527 1.409 . S
C2521 H2513 0.930 . S
C2521 C2519 1.419 . S
C2521 C2522 1.362 . S
C2522 H2514 0.930 . S
C2522 C2521 1.362 . S
C2522 C2525 1.409 . S
C2523 H2515 0.930 . S
C2523 C2524 1.355 . S
C2523 C2525 1.415 . S
C2524 C2523 1.355 . S
C2524 C2526 1.419 . S
C2525 C2520 1.425 . S
C2525 C2522 1.409 . S
C2525 C2523 1.415 . S
C2526 H2516 0.930 . S
C2526 C2524 1.419 . S
C2526 C2527 1.362 . S
C2527 H2517 0.930 . S
C2527 C2520 1.409 . S
C2527 C2526 1.362 . S
H2528 C2534 0.930 . S
H2529 C2537 0.930 . S
H2530 C2538 0.930 . S
H2531 C2539 0.930 . S
H2532 C2542 0.930 . S
H2533 C2543 0.930 . S
C2534 H2528 0.930 . S
C2534 C2535 1.355 . S
C2534 C2536 1.415 . S
C2535 C2534 1.355 . S
C2535 C2537 1.419 . S
C2536 C2534 1.415 . S
C2536 C2541 1.425 . S
C2536 C2543 1.409 . S
C2537 H2529 0.930 . S
C2537 C2535 1.419 . S
C2537 C2538 1.362 . S
C2538 H2530 0.930 . S
C2538 C2537 1.362 . S
C2538 C2541 1.409 . S
C2539 H2531 0.930 . S
C2539 C2540 1.355 . S
C2539 C2541 1.415 . S
C2540 C2539 1.355 . S
C2540 C2542 1.419 . S
C2541 C2536 1.425 . S
C2541 C2538 1.409 . S
C2541 C2539 1.415 . S
C2542 H2532 0.930 . S
C2542 C2540 1.419 . S
C2542 C2543 1.362 . S
C2543 H2533 0.930 . S
C2543 C2536 1.409 . S
C2543 C2542 1.362 . S
H2544 C2550 0.930 . S
H2545 C2553 0.930 . S
H2546 C2554 0.930 . S
H2547 C2555 0.930 . S
H2548 C2558 0.930 . S
H2549 C2559 0.930 . S
C2550 H2544 0.930 . S
C2550 C2551 1.355 . S
C2550 C2552 1.415 . S
C2551 C2550 1.355 . S
C2551 C2553 1.419 . S
C2552 C2550 1.415 . S
C2552 C2557 1.425 . S
C2552 C2559 1.409 . S
C2553 H2545 0.930 . S
C2553 C2551 1.419 . S
C2553 C2554 1.362 . S
C2554 H2546 0.930 . S
C2554 C2553 1.362 . S
C2554 C2557 1.409 . S
C2555 H2547 0.930 . S
C2555 C2556 1.355 . S
C2555 C2557 1.415 . S
C2556 C2555 1.355 . S
C2556 C2558 1.419 . S
C2557 C2552 1.425 . S
C2557 C2554 1.409 . S
C2557 C2555 1.415 . S
C2558 H2548 0.930 . S
C2558 C2556 1.419 . S
C2558 C2559 1.362 . S
C2559 H2549 0.930 . S
C2559 C2552 1.409 . S
C2559 C2558 1.362 . S
H2560 C2566 0.930 . S
H2561 C2569 0.930 . S
H2562 C2570 0.930 . S
H2563 C2571 0.930 . S
H2564 C2574 0.930 . S
H2565 C2575 0.930 1_545 S
C2566 H2560 0.930 . S
C2566 C2567 1.355 1_545 S
C2566 C2568 1.415 1_545 S
C2567 C2566 1.355 1_565 S
C2567 C2569 1.419 . S
C2568 C2566 1.415 1_565 S
C2568 C2573 1.425 . S
C2568 C2575 1.409 . S
C2569 H2561 0.930 . S
C2569 C2567 1.419 . S
C2569 C2570 1.362 . S
C2570 H2562 0.930 . S
C2570 C2569 1.362 . S
C2570 C2573 1.409 . S
C2571 H2563 0.930 . S
C2571 C2572 1.355 . S
C2571 C2573 1.415 . S
C2572 C2571 1.355 . S
C2572 C2574 1.419 . S
C2573 C2568 1.425 . S
C2573 C2570 1.409 . S
C2573 C2571 1.415 . S
C2574 H2564 0.930 . S
C2574 C2572 1.419 . S
C2574 C2575 1.362 . S
C2575 H2565 0.930 1_565 S
C2575 C2568 1.409 . S
C2575 C2574 1.362 . S
H2576 C2582 0.930 1_556 S
H2577 C2585 0.930 . S
H2578 C2586 0.930 . S
H2579 C2587 0.930 . S
H2580 C2590 0.930 . S
H2581 C2591 0.930 1_556 S
C2582 H2576 0.930 1_554 S
C2582 C2583 1.355 . S
C2582 C2584 1.415 . S
C2583 C2582 1.355 . S
C2583 C2585 1.419 . S
C2584 C2582 1.415 . S
C2584 C2589 1.425 1_565 S
C2584 C2591 1.409 . S
C2585 H2577 0.930 . S
C2585 C2583 1.419 . S
C2585 C2586 1.362 1_565 S
C2586 H2578 0.930 . S
C2586 C2585 1.362 1_545 S
C2586 C2589 1.409 . S
C2587 H2579 0.930 . S
C2587 C2588 1.355 . S
C2587 C2589 1.415 . S
C2588 C2587 1.355 . S
C2588 C2590 1.419 1_545 S
C2589 C2584 1.425 1_545 S
C2589 C2586 1.409 . S
C2589 C2587 1.415 . S
C2590 H2580 0.930 . S
C2590 C2588 1.419 1_565 S
C2590 C2591 1.362 . S
C2591 H2581 0.930 1_554 S
C2591 C2584 1.409 . S
C2591 C2590 1.362 . S
H2592 C2598 0.930 . S
H2593 C2601 0.930 . S
H2594 C2602 0.930 . S
H2595 C2603 0.930 . S
H2596 C2606 0.930 . S
H2597 C2607 0.930 . S
C2598 H2592 0.930 . S
C2598 C2599 1.355 . S
C2598 C2600 1.415 . S
C2599 C2598 1.355 . S
C2599 C2601 1.419 . S
C2600 C2598 1.415 . S
C2600 C2605 1.425 . S
C2600 C2607 1.409 . S
C2601 H2593 0.930 . S
C2601 C2599 1.419 . S
C2601 C2602 1.362 . S
C2602 H2594 0.930 . S
C2602 C2601 1.362 . S
C2602 C2605 1.409 . S
C2603 H2595 0.930 . S
C2603 C2604 1.355 . S
C2603 C2605 1.415 . S
C2604 C2603 1.355 . S
C2604 C2606 1.419 . S
C2605 C2600 1.425 . S
C2605 C2602 1.409 . S
C2605 C2603 1.415 . S
C2606 H2596 0.930 . S
C2606 C2604 1.419 . S
C2606 C2607 1.362 . S
C2607 H2597 0.930 . S
C2607 C2600 1.409 . S
C2607 C2606 1.362 . S
H2608 C2614 0.930 . S
H2609 C2617 0.930 . S
H2610 C2618 0.930 . S
H2611 C2619 0.930 . S
H2612 C2622 0.930 . S
H2613 C2623 0.930 . S
C2614 H2608 0.930 . S
C2614 C2615 1.355 . S
C2614 C2616 1.415 . S
C2615 C2614 1.355 . S
C2615 C2617 1.419 . S
C2616 C2614 1.415 . S
C2616 C2621 1.425 . S
C2616 C2623 1.409 . S
C2617 H2609 0.930 . S
C2617 C2615 1.419 . S
C2617 C2618 1.362 . S
C2618 H2610 0.930 . S
C2618 C2617 1.362 . S
C2618 C2621 1.409 . S
C2619 H2611 0.930 . S
C2619 C2620 1.355 . S
C2619 C2621 1.415 . S
C2620 C2619 1.355 . S
C2620 C2622 1.419 . S
C2621 C2616 1.425 . S
C2621 C2618 1.409 . S
C2621 C2619 1.415 . S
C2622 H2612 0.930 . S
C2622 C2620 1.419 . S
C2622 C2623 1.362 . S
C2623 H2613 0.930 . S
C2623 C2616 1.409 . S
C2623 C2622 1.362 . S
H2624 C2630 0.930 . S
H2625 C2633 0.930 . S
H2626 C2634 0.930 . S
H2627 C2635 0.930 . S
H2628 C2638 0.930 . S
H2629 C2639 0.930 . S
C2630 H2624 0.930 . S
C2630 C2631 1.355 . S
C2630 C2632 1.415 . S
C2631 C2630 1.355 . S
C2631 C2633 1.419 . S
C2632 C2630 1.415 . S
C2632 C2637 1.425 . S
C2632 C2639 1.409 . S
C2633 H2625 0.930 . S
C2633 C2631 1.419 . S
C2633 C2634 1.362 . S
C2634 H2626 0.930 . S
C2634 C2633 1.362 . S
C2634 C2637 1.409 . S
C2635 H2627 0.930 . S
C2635 C2636 1.355 . S
C2635 C2637 1.415 . S
C2636 C2635 1.355 . S
C2636 C2638 1.419 . S
C2637 C2632 1.425 . S
C2637 C2634 1.409 . S
C2637 C2635 1.415 . S
C2638 H2628 0.930 . S
C2638 C2636 1.419 . S
C2638 C2639 1.362 . S
C2639 H2629 0.930 . S
C2639 C2632 1.409 . S
C2639 C2638 1.362 . S
H2640 C2646 0.930 . S
H2641 C2649 0.930 . S
H2642 C2650 0.930 . S
H2643 C2651 0.930 . S
H2644 C2654 0.930 . S
H2645 C2655 0.930 . S
C2646 H2640 0.930 . S
C2646 C2647 1.355 . S
C2646 C2648 1.415 . S
C2647 C2646 1.355 . S
C2647 C2649 1.419 . S
C2648 C2646 1.415 . S
C2648 C2653 1.425 . S
C2648 C2655 1.409 . S
C2649 H2641 0.930 . S
C2649 C2647 1.419 . S
C2649 C2650 1.362 . S
C2650 H2642 0.930 . S
C2650 C2649 1.362 . S
C2650 C2653 1.409 . S
C2651 H2643 0.930 . S
C2651 C2652 1.355 . S
C2651 C2653 1.415 . S
C2652 C2651 1.355 . S
C2652 C2654 1.419 . S
C2653 C2648 1.425 . S
C2653 C2650 1.409 . S
C2653 C2651 1.415 . S
C2654 H2644 0.930 . S
C2654 C2652 1.419 . S
C2654 C2655 1.362 . S
C2655 H2645 0.930 . S
C2655 C2648 1.409 . S
C2655 C2654 1.362 . S
H2656 C2662 0.930 . S
H2657 C2665 0.930 . S
H2658 C2666 0.930 . S
H2659 C2667 0.930 . S
H2660 C2670 0.930 . S
H2661 C2671 0.930 . S
C2662 H2656 0.930 . S
C2662 C2663 1.355 . S
C2662 C2664 1.415 . S
C2663 C2662 1.355 . S
C2663 C2665 1.419 . S
C2664 C2662 1.415 . S
C2664 C2669 1.425 . S
C2664 C2671 1.409 . S
C2665 H2657 0.930 . S
C2665 C2663 1.419 . S
C2665 C2666 1.362 . S
C2666 H2658 0.930 . S
C2666 C2665 1.362 . S
C2666 C2669 1.409 . S
C2667 H2659 0.930 . S
C2667 C2668 1.355 . S
C2667 C2669 1.415 . S
C2668 C2667 1.355 . S
C2668 C2670 1.419 . S
C2669 C2664 1.425 . S
C2669 C2666 1.409 . S
C2669 C2667 1.415 . S
C2670 H2660 0.930 . S
C2670 C2668 1.419 . S
C2670 C2671 1.362 . S
C2671 H2661 0.930 . S
C2671 C2664 1.409 . S
C2671 C2670 1.362 . S
H2672 C2678 0.930 . S
H2673 C2681 0.930 . S
H2674 C2682 0.930 . S
H2675 C2683 0.930 . S
H2676 C2686 0.930 . S
H2677 C2687 0.930 . S
C2678 H2672 0.930 . S
C2678 C2679 1.355 . S
C2678 C2680 1.415 . S
C2679 C2678 1.355 . S
C2679 C2681 1.419 . S
C2680 C2678 1.415 . S
C2680 C2685 1.425 . S
C2680 C2687 1.409 . S
C2681 H2673 0.930 . S
C2681 C2679 1.419 . S
C2681 C2682 1.362 . S
C2682 H2674 0.930 . S
C2682 C2681 1.362 . S
C2682 C2685 1.409 . S
C2683 H2675 0.930 . S
C2683 C2684 1.355 . S
C2683 C2685 1.415 . S
C2684 C2683 1.355 . S
C2684 C2686 1.419 . S
C2685 C2680 1.425 . S
C2685 C2682 1.409 . S
C2685 C2683 1.415 . S
C2686 H2676 0.930 . S
C2686 C2684 1.419 . S
C2686 C2687 1.362 . S
C2687 H2677 0.930 . S
C2687 C2680 1.409 . S
C2687 C2686 1.362 . S
H2688 C2694 0.930 . S
H2689 C2697 0.930 . S
H2690 C2698 0.930 . S
H2691 C2699 0.930 . S
H2692 C2702 0.930 . S
H2693 C2703 0.950 . S
C2694 H2688 0.930 . S
C2694 C2695 1.355 . S
C2694 C2696 1.415 . S
C2695 C2694 1.355 . S
C2695 C2697 1.419 . S
C2696 C2694 1.415 . S
C2696 C2701 1.425 . S
C2696 C2703 1.409 . S
C2697 H2689 0.930 . S
C2697 C2695 1.419 . S
C2697 C2698 1.362 . S
C2698 H2690 0.930 . S
C2698 C2697 1.362 . S
C2698 C2701 1.409 . S
C2699 H2691 0.930 . S
C2699 C2700 1.355 . S
C2699 C2701 1.415 . S
C2700 C2699 1.355 . S
C2700 C2702 1.419 . S
C2701 C2696 1.425 . S
C2701 C2698 1.409 . S
C2701 C2699 1.415 . S
C2702 H2692 0.930 . S
C2702 C2700 1.419 . S
C2702 C2703 1.362 . S
C2703 H2693 0.950 . S
C2703 C2696 1.409 . S
C2703 C2702 1.362 . S
H2704 C2710 0.930 . S
H2705 C2713 0.930 . S
H2706 C2714 0.930 . S
H2707 C2715 0.930 . S
H2708 C2718 0.930 . S
H2709 C2719 0.930 . S
C2710 H2704 0.930 . S
C2710 C2711 1.355 . S
C2710 C2712 1.415 . S
C2711 C2710 1.355 . S
C2711 C2713 1.419 . S
C2712 C2710 1.415 . S
C2712 C2717 1.425 . S
C2712 C2719 1.409 . S
C2713 H2705 0.930 . S
C2713 C2711 1.419 . S
C2713 C2714 1.362 . S
C2714 H2706 0.930 . S
C2714 C2713 1.362 . S
C2714 C2717 1.409 . S
C2715 H2707 0.930 . S
C2715 C2716 1.355 . S
C2715 C2717 1.415 . S
C2716 C2715 1.355 . S
C2716 C2718 1.419 . S
C2717 C2712 1.425 . S
C2717 C2714 1.409 . S
C2717 C2715 1.415 . S
C2718 H2708 0.930 . S
C2718 C2716 1.419 . S
C2718 C2719 1.362 . S
C2719 H2709 0.930 . S
C2719 C2712 1.409 . S
C2719 C2718 1.362 . S
H2720 C2726 0.930 . S
H2721 C2729 0.930 . S
H2722 C2730 0.930 . S
H2723 C2731 0.930 . S
H2724 C2734 0.930 . S
H2725 C2735 0.930 . S
C2726 H2720 0.930 . S
C2726 C2727 1.355 . S
C2726 C2728 1.415 . S
C2727 C2726 1.355 . S
C2727 C2729 1.419 . S
C2728 C2726 1.415 . S
C2728 C2733 1.425 . S
C2728 C2735 1.409 . S
C2729 H2721 0.930 . S
C2729 C2727 1.419 . S
C2729 C2730 1.362 . S
C2730 H2722 0.930 . S
C2730 C2729 1.362 . S
C2730 C2733 1.409 . S
C2731 H2723 0.930 . S
C2731 C2732 1.355 . S
C2731 C2733 1.415 . S
C2732 C2731 1.355 . S
C2732 C2734 1.419 . S
C2733 C2728 1.425 . S
C2733 C2730 1.409 . S
C2733 C2731 1.415 . S
C2734 H2724 0.930 . S
C2734 C2732 1.419 . S
C2734 C2735 1.362 . S
C2735 H2725 0.930 . S
C2735 C2728 1.409 . S
C2735 C2734 1.362 . S
H2736 C2742 0.930 . S
H2737 C2745 0.930 . S
H2738 C2746 0.930 . S
H2739 C2747 0.930 . S
H2740 C2750 0.930 . S
H2741 C2751 0.930 . S
C2742 H2736 0.930 . S
C2742 C2743 1.355 . S
C2742 C2744 1.415 . S
C2743 C2742 1.355 . S
C2743 C2745 1.419 . S
C2744 C2742 1.415 . S
C2744 C2749 1.425 . S
C2744 C2751 1.409 . S
C2745 H2737 0.930 . S
C2745 C2743 1.419 . S
C2745 C2746 1.362 . S
C2746 H2738 0.930 . S
C2746 C2745 1.362 . S
C2746 C2749 1.409 . S
C2747 H2739 0.930 . S
C2747 C2748 1.355 . S
C2747 C2749 1.415 . S
C2748 C2747 1.355 . S
C2748 C2750 1.419 . S
C2749 C2744 1.425 . S
C2749 C2746 1.409 . S
C2749 C2747 1.415 . S
C2750 H2740 0.930 . S
C2750 C2748 1.419 . S
C2750 C2751 1.362 . S
C2751 H2741 0.930 . S
C2751 C2744 1.409 . S
C2751 C2750 1.362 . S
H2752 C2758 0.930 . S
H2753 C2761 0.930 . S
H2754 C2762 0.930 . S
H2755 C2763 0.930 . S
H2756 C2766 0.930 . S
H2757 C2767 0.930 . S
C2758 H2752 0.930 . S
C2758 C2759 1.355 . S
C2758 C2760 1.415 . S
C2759 C2758 1.355 . S
C2759 C2761 1.419 . S
C2760 C2758 1.415 . S
C2760 C2765 1.425 . S
C2760 C2767 1.409 . S
C2761 H2753 0.930 . S
C2761 C2759 1.419 . S
C2761 C2762 1.362 . S
C2762 H2754 0.930 . S
C2762 C2761 1.362 . S
C2762 C2765 1.409 . S
C2763 H2755 0.930 . S
C2763 C2764 1.355 . S
C2763 C2765 1.415 . S
C2764 C2763 1.355 . S
C2764 C2766 1.419 . S
C2765 C2760 1.425 . S
C2765 C2762 1.409 . S
C2765 C2763 1.415 . S
C2766 H2756 0.930 . S
C2766 C2764 1.419 . S
C2766 C2767 1.362 . S
C2767 H2757 0.930 . S
C2767 C2760 1.409 . S
C2767 C2766 1.362 . S
H2768 C2774 0.930 . S
H2769 C2777 0.930 . S
H2770 C2778 0.930 . S
H2771 C2779 0.930 . S
H2772 C2782 0.930 . S
H2773 C2783 0.930 . S
C2774 H2768 0.930 . S
C2774 C2775 1.355 . S
C2774 C2776 1.415 . S
C2775 C2774 1.355 . S
C2775 C2777 1.419 . S
C2776 C2774 1.415 . S
C2776 C2781 1.425 . S
C2776 C2783 1.409 . S
C2777 H2769 0.930 . S
C2777 C2775 1.419 . S
C2777 C2778 1.362 . S
C2778 H2770 0.930 . S
C2778 C2777 1.362 . S
C2778 C2781 1.409 . S
C2779 H2771 0.930 . S
C2779 C2780 1.355 . S
C2779 C2781 1.415 . S
C2780 C2779 1.355 . S
C2780 C2782 1.419 . S
C2781 C2776 1.425 . S
C2781 C2778 1.409 . S
C2781 C2779 1.415 . S
C2782 H2772 0.930 . S
C2782 C2780 1.419 . S
C2782 C2783 1.362 . S
C2783 H2773 0.930 . S
C2783 C2776 1.409 . S
C2783 C2782 1.362 . S
H2784 C2790 0.930 . S
H2785 C2793 0.930 . S
H2786 C2794 0.930 . S
H2787 C2795 0.930 . S
H2788 C2798 0.930 . S
H2789 C2799 0.930 . S
C2790 H2784 0.930 . S
C2790 C2791 1.355 . S
C2790 C2792 1.415 . S
C2791 C2790 1.355 . S
C2791 C2793 1.419 . S
C2792 C2790 1.415 . S
C2792 C2797 1.425 . S
C2792 C2799 1.409 . S
C2793 H2785 0.930 . S
C2793 C2791 1.419 . S
C2793 C2794 1.362 . S
C2794 H2786 0.930 . S
C2794 C2793 1.362 . S
C2794 C2797 1.409 . S
C2795 H2787 0.930 . S
C2795 C2796 1.355 . S
C2795 C2797 1.415 . S
C2796 C2795 1.355 . S
C2796 C2798 1.419 . S
C2797 C2792 1.425 . S
C2797 C2794 1.409 . S
C2797 C2795 1.415 . S
C2798 H2788 0.930 . S
C2798 C2796 1.419 . S
C2798 C2799 1.362 . S
C2799 H2789 0.930 . S
C2799 C2792 1.409 . S
C2799 C2798 1.362 . S
H2800 C2806 0.930 . S
H2801 C2809 0.930 . S
H2802 C2810 0.930 . S
H2803 C2811 0.930 . S
H2804 C2814 0.930 . S
H2805 C2815 0.930 . S
C2806 H2800 0.930 . S
C2806 C2807 1.355 . S
C2806 C2808 1.415 . S
C2807 C2806 1.355 . S
C2807 C2809 1.419 . S
C2808 C2806 1.415 . S
C2808 C2813 1.425 . S
C2808 C2815 1.409 . S
C2809 H2801 0.930 . S
C2809 C2807 1.419 . S
C2809 C2810 1.362 . S
C2810 H2802 0.930 . S
C2810 C2809 1.362 . S
C2810 C2813 1.409 . S
C2811 H2803 0.930 . S
C2811 C2812 1.355 . S
C2811 C2813 1.415 . S
C2812 C2811 1.355 . S
C2812 C2814 1.419 . S
C2813 C2808 1.425 . S
C2813 C2810 1.409 . S
C2813 C2811 1.415 . S
C2814 H2804 0.930 . S
C2814 C2812 1.419 . S
C2814 C2815 1.362 . S
C2815 H2805 0.930 . S
C2815 C2808 1.409 . S
C2815 C2814 1.362 . S
H2816 C2822 0.930 . S
H2817 C2825 0.930 . S
H2818 C2826 0.930 . S
H2819 C2827 0.930 . S
H2820 C2830 0.930 . S
H2821 C2831 0.930 . S
C2822 H2816 0.930 . S
C2822 C2823 1.355 . S
C2822 C2824 1.415 . S
C2823 C2822 1.355 . S
C2823 C2825 1.419 . S
C2824 C2822 1.415 . S
C2824 C2829 1.425 . S
C2824 C2831 1.409 . S
C2825 H2817 0.930 . S
C2825 C2823 1.419 . S
C2825 C2826 1.362 . S
C2826 H2818 0.930 . S
C2826 C2825 1.362 . S
C2826 C2829 1.409 . S
C2827 H2819 0.930 . S
C2827 C2828 1.339 1_655 S
C2827 C2829 1.415 . S
C2828 C2827 1.339 1_455 S
C2828 C2830 1.426 . S
C2829 C2824 1.425 . S
C2829 C2826 1.409 . S
C2829 C2827 1.415 . S
C2830 H2820 0.930 . S
C2830 C2828 1.426 . S
C2830 C2831 1.362 1_455 S
C2831 H2821 0.930 . S
C2831 C2824 1.409 . S
C2831 C2830 1.362 1_655 S
H2832 C2838 0.930 . S
H2833 C2841 0.930 . S
H2834 C2842 0.930 . S
H2835 C2843 0.930 . S
H2836 C2846 0.930 . S
H2837 C2847 0.930 . S
C2838 H2832 0.930 . S
C2838 C2839 1.355 . S
C2838 C2840 1.415 . S
C2839 C2838 1.355 . S
C2839 C2841 1.419 . S
C2840 C2838 1.415 . S
C2840 C2845 1.425 . S
C2840 C2847 1.409 . S
C2841 H2833 0.930 . S
C2841 C2839 1.419 . S
C2841 C2842 1.362 . S
C2842 H2834 0.930 . S
C2842 C2841 1.362 . S
C2842 C2845 1.409 . S
C2843 H2835 0.930 . S
C2843 C2844 1.355 . S
C2843 C2845 1.415 . S
C2844 C2843 1.355 . S
C2844 C2846 1.419 . S
C2845 C2840 1.425 . S
C2845 C2842 1.409 . S
C2845 C2843 1.415 . S
C2846 H2836 0.930 . S
C2846 C2844 1.419 . S
C2846 C2847 1.362 . S
C2847 H2837 0.930 . S
C2847 C2840 1.409 . S
C2847 C2846 1.362 . S
H2848 C2854 0.930 . S
H2849 C2857 0.930 . S
H2850 C2858 0.930 . S
H2851 C2859 0.930 . S
H2852 C2862 0.930 . S
H2853 C2863 0.930 . S
C2854 H2848 0.930 . S
C2854 C2855 1.355 . S
C2854 C2856 1.415 . S
C2855 C2854 1.355 . S
C2855 C2857 1.419 . S
C2856 C2854 1.415 . S
C2856 C2861 1.425 . S
C2856 C2863 1.409 . S
C2857 H2849 0.930 . S
C2857 C2855 1.419 . S
C2857 C2858 1.362 . S
C2858 H2850 0.930 . S
C2858 C2857 1.362 . S
C2858 C2861 1.409 . S
C2859 H2851 0.930 . S
C2859 C2860 1.355 . S
C2859 C2861 1.415 . S
C2860 C2859 1.355 . S
C2860 C2862 1.419 . S
C2861 C2856 1.425 . S
C2861 C2858 1.409 . S
C2861 C2859 1.415 . S
C2862 H2852 0.930 . S
C2862 C2860 1.419 . S
C2862 C2863 1.362 . S
C2863 H2853 0.930 . S
C2863 C2856 1.409 . S
C2863 C2862 1.362 . S
H2864 C2870 0.930 . S
H2865 C2873 0.930 . S
H2866 C2874 0.930 . S
H2867 C2875 0.930 . S
H2868 C2878 0.930 . S
H2869 C2879 0.930 . S
C2870 H2864 0.930 . S
C2870 C2871 1.355 . S
C2870 C2872 1.415 . S
C2871 C2870 1.355 . S
C2871 C2873 1.419 . S
C2872 C2870 1.415 . S
C2872 C2877 1.425 . S
C2872 C2879 1.409 . S
C2873 H2865 0.930 . S
C2873 C2871 1.419 . S
C2873 C2874 1.362 . S
C2874 H2866 0.930 . S
C2874 C2873 1.362 . S
C2874 C2877 1.409 . S
C2875 H2867 0.930 . S
C2875 C2876 1.355 . S
C2875 C2877 1.415 . S
C2876 C2875 1.355 . S
C2876 C2878 1.419 . S
C2877 C2872 1.425 . S
C2877 C2874 1.409 . S
C2877 C2875 1.415 . S
C2878 H2868 0.930 . S
C2878 C2876 1.419 . S
C2878 C2879 1.362 . S
C2879 H2869 0.930 . S
C2879 C2872 1.409 . S
C2879 C2878 1.362 . S
H2880 C2886 0.930 . S
H2881 C2889 0.930 . S
H2882 C2890 0.930 . S
H2883 C2891 0.930 . S
H2884 C2894 0.930 . S
H2885 C2895 0.930 . S
C2886 H2880 0.930 . S
C2886 C2887 1.355 . S
C2886 C2888 1.415 . S
C2887 C2886 1.355 . S
C2887 C2889 1.419 . S
C2888 C2886 1.415 . S
C2888 C2893 1.425 . S
C2888 C2895 1.409 . S
C2889 H2881 0.930 . S
C2889 C2887 1.419 . S
C2889 C2890 1.362 . S
C2890 H2882 0.930 . S
C2890 C2889 1.362 . S
C2890 C2893 1.409 . S
C2891 H2883 0.930 . S
C2891 C2892 1.355 . S
C2891 C2893 1.415 . S
C2892 C2891 1.355 . S
C2892 C2894 1.419 . S
C2893 C2888 1.425 . S
C2893 C2890 1.409 . S
C2893 C2891 1.415 . S
C2894 H2884 0.930 . S
C2894 C2892 1.419 . S
C2894 C2895 1.362 . S
C2895 H2885 0.930 . S
C2895 C2888 1.409 . S
C2895 C2894 1.362 . S
H2896 C2902 0.930 . S
H2897 C2905 0.930 . S
H2898 C2906 0.930 . S
H2899 C2907 0.930 . S
H2900 C2910 0.930 . S
H2901 C2911 0.930 . S
C2902 H2896 0.930 . S
C2902 C2903 1.355 . S
C2902 C2904 1.415 . S
C2903 C2902 1.355 . S
C2903 C2905 1.419 . S
C2904 C2902 1.415 . S
C2904 C2909 1.425 . S
C2904 C2911 1.409 . S
C2905 H2897 0.930 . S
C2905 C2903 1.419 . S
C2905 C2906 1.362 . S
C2906 H2898 0.930 . S
C2906 C2905 1.362 . S
C2906 C2909 1.409 . S
C2907 H2899 0.930 . S
C2907 C2908 1.355 . S
C2907 C2909 1.415 . S
C2908 C2907 1.355 . S
C2908 C2910 1.419 . S
C2909 C2904 1.425 . S
C2909 C2906 1.409 . S
C2909 C2907 1.415 . S
C2910 H2900 0.930 . S
C2910 C2908 1.419 . S
C2910 C2911 1.362 . S
C2911 H2901 0.930 . S
C2911 C2904 1.409 . S
C2911 C2910 1.362 . S
H2912 C2918 0.930 . S
H2913 C2921 0.930 . S
H2914 C2922 0.930 . S
H2915 C2923 0.930 . S
H2916 C2926 0.930 . S
H2917 C2927 0.930 . S
C2918 H2912 0.930 . S
C2918 C2919 1.355 . S
C2918 C2920 1.415 . S
C2919 C2918 1.355 . S
C2919 C2921 1.419 . S
C2920 C2918 1.415 . S
C2920 C2925 1.425 . S
C2920 C2927 1.409 . S
C2921 H2913 0.930 . S
C2921 C2919 1.419 . S
C2921 C2922 1.362 . S
C2922 H2914 0.930 . S
C2922 C2921 1.362 . S
C2922 C2925 1.409 . S
C2923 H2915 0.930 . S
C2923 C2924 1.355 . S
C2923 C2925 1.415 . S
C2924 C2923 1.355 . S
C2924 C2926 1.419 . S
C2925 C2920 1.425 . S
C2925 C2922 1.409 . S
C2925 C2923 1.415 . S
C2926 H2916 0.930 . S
C2926 C2924 1.419 . S
C2926 C2927 1.362 . S
C2927 H2917 0.930 . S
C2927 C2920 1.409 . S
C2927 C2926 1.362 . S
H2928 C2934 0.930 . S
H2929 C2937 0.930 . S
H2930 C2938 0.930 . S
H2931 C2939 0.930 . S
H2932 C2942 0.930 . S
H2933 C2943 0.930 1_545 S
C2934 H2928 0.930 . S
C2934 C2935 1.355 . S
C2934 C2936 1.415 . S
C2935 C2934 1.355 . S
C2935 C2937 1.419 . S
C2936 C2934 1.415 . S
C2936 C2941 1.425 . S
C2936 C2943 1.409 . S
C2937 H2929 0.930 . S
C2937 C2935 1.419 . S
C2937 C2938 1.362 . S
C2938 H2930 0.930 . S
C2938 C2937 1.362 . S
C2938 C2941 1.409 . S
C2939 H2931 0.930 . S
C2939 C2940 1.355 1_565 S
C2939 C2941 1.415 . S
C2940 C2939 1.355 1_545 S
C2940 C2942 1.419 . S
C2941 C2936 1.425 . S
C2941 C2938 1.409 . S
C2941 C2939 1.415 . S
C2942 H2932 0.930 . S
C2942 C2940 1.419 . S
C2942 C2943 1.362 1_545 S
C2943 H2933 0.930 1_565 S
C2943 C2936 1.409 . S
C2943 C2942 1.362 1_565 S
H2944 C2950 0.930 . S
H2945 C2953 0.930 . S
H2946 C2954 0.930 . S
H2947 C2955 0.930 . S
H2948 C2958 0.930 . S
H2949 C2959 0.930 . S
C2950 H2944 0.930 . S
C2950 C2951 1.355 . S
C2950 C2952 1.415 . S
C2951 C2950 1.355 . S
C2951 C2953 1.419 . S
C2952 C2950 1.415 . S
C2952 C2957 1.425 . S
C2952 C2959 1.409 . S
C2953 H2945 0.930 . S
C2953 C2951 1.419 . S
C2953 C2954 1.362 . S
C2954 H2946 0.930 . S
C2954 C2953 1.362 . S
C2954 C2957 1.409 . S
C2955 H2947 0.930 . S
C2955 C2956 1.355 . S
C2955 C2957 1.415 . S
C2956 C2955 1.355 . S
C2956 C2958 1.419 . S
C2957 C2952 1.425 . S
C2957 C2954 1.409 . S
C2957 C2955 1.415 . S
C2958 H2948 0.930 . S
C2958 C2956 1.419 . S
C2958 C2959 1.362 . S
C2959 H2949 0.930 . S
C2959 C2952 1.409 . S
C2959 C2958 1.362 . S
H2960 C2966 0.930 . S
H2961 C2969 0.930 . S
H2962 C2970 0.930 . S
H2963 C2971 0.930 . S
H2964 C2974 0.930 . S
H2965 C2975 0.930 . S
C2966 H2960 0.930 . S
C2966 C2967 1.355 . S
C2966 C2968 1.415 . S
C2967 C2966 1.355 . S
C2967 C2969 1.419 . S
C2968 C2966 1.415 . S
C2968 C2973 1.425 . S
C2968 C2975 1.409 . S
C2969 H2961 0.930 . S
C2969 C2967 1.419 . S
C2969 C2970 1.362 . S
C2970 H2962 0.930 . S
C2970 C2969 1.362 . S
C2970 C2973 1.409 . S
C2971 H2963 0.930 . S
C2971 C2972 1.355 . S
C2971 C2973 1.415 . S
C2972 C2971 1.355 . S
C2972 C2974 1.419 . S
C2973 C2968 1.425 . S
C2973 C2970 1.409 . S
C2973 C2971 1.415 . S
C2974 H2964 0.930 . S
C2974 C2972 1.419 . S
C2974 C2975 1.362 . S
C2975 H2965 0.930 . S
C2975 C2968 1.409 . S
C2975 C2974 1.362 . S
H2976 C2982 0.930 . S
H2977 C2985 0.930 . S
H2978 C2986 0.930 . S
H2979 C2987 0.930 . S
H2980 C2990 0.930 . S
H2981 C2991 0.930 . S
C2982 H2976 0.930 . S
C2982 C2983 1.355 . S
C2982 C2984 1.415 . S
C2983 C2982 1.355 . S
C2983 C2985 1.419 . S
C2984 C2982 1.415 . S
C2984 C2989 1.425 . S
C2984 C2991 1.409 . S
C2985 H2977 0.930 . S
C2985 C2983 1.419 . S
C2985 C2986 1.362 . S
C2986 H2978 0.930 . S
C2986 C2985 1.362 . S
C2986 C2989 1.409 . S
C2987 H2979 0.930 . S
C2987 C2988 1.355 . S
C2987 C2989 1.415 . S
C2988 C2987 1.355 . S
C2988 C2990 1.419 . S
C2989 C2984 1.425 . S
C2989 C2986 1.409 . S
C2989 C2987 1.415 . S
C2990 H2980 0.930 . S
C2990 C2988 1.419 . S
C2990 C2991 1.362 . S
C2991 H2981 0.930 . S
C2991 C2984 1.409 . S
C2991 C2990 1.362 . S
H2992 C2998 0.930 . S
H2993 C3001 0.930 . S
H2994 C3002 0.930 . S
H2995 C3003 0.930 . S
H2996 C3006 0.930 . S
H2997 C3007 0.930 . S
C2998 H2992 0.930 . S
C2998 C2999 1.355 . S
C2998 C3000 1.415 . S
C2999 C2998 1.355 . S
C2999 C3001 1.419 . S
C3000 C2998 1.415 . S
C3000 C3005 1.425 . S
C3000 C3007 1.409 1_554 S
C3001 H2993 0.930 . S
C3001 C2999 1.419 . S
C3001 C3002 1.362 . S
C3002 H2994 0.930 . S
C3002 C3001 1.362 . S
C3002 C3005 1.409 . S
C3003 H2995 0.930 . S
C3003 C3004 1.355 . S
C3003 C3005 1.415 . S
C3004 C3003 1.355 . S
C3004 C3006 1.419 1_554 S
C3005 C3000 1.425 . S
C3005 C3002 1.409 . S
C3005 C3003 1.415 . S
C3006 H2996 0.930 . S
C3006 C3004 1.419 1_556 S
C3006 C3007 1.362 . S
C3007 H2997 0.930 . S
C3007 C3000 1.409 1_556 S
C3007 C3006 1.362 . S
H3008 C3014 0.930 . S
H3009 C3017 0.930 . S
H3010 C3018 0.930 . S
H3011 C3019 0.930 . S
H3012 C3022 0.930 . S
H3013 C3023 0.930 . S
C3014 H3008 0.930 . S
C3014 C3015 1.355 . S
C3014 C3016 1.415 . S
C3015 C3014 1.355 . S
C3015 C3017 1.419 . S
C3016 C3014 1.415 . S
C3016 C3021 1.425 . S
C3016 C3023 1.409 . S
C3017 H3009 0.930 . S
C3017 C3015 1.419 . S
C3017 C3018 1.362 . S
C3018 H3010 0.930 . S
C3018 C3017 1.362 . S
C3018 C3021 1.409 . S
C3019 H3011 0.930 . S
C3019 C3020 1.355 . S
C3019 C3021 1.415 . S
C3020 C3019 1.355 . S
C3020 C3022 1.419 . S
C3021 C3016 1.425 . S
C3021 C3018 1.409 . S
C3021 C3019 1.415 . S
C3022 H3012 0.930 . S
C3022 C3020 1.419 . S
C3022 C3023 1.362 . S
C3023 H3013 0.930 . S
C3023 C3016 1.409 . S
C3023 C3022 1.362 . S
H3024 C3030 0.930 . S
H3025 C3033 0.930 . S
H3026 C3034 0.930 . S
H3027 C3035 0.930 . S
H3028 C3038 0.930 . S
H3029 C3039 0.930 . S
C3030 H3024 0.930 . S
C3030 C3031 1.355 . S
C3030 C3032 1.415 . S
C3031 C3030 1.355 . S
C3031 C3033 1.419 . S
C3032 C3030 1.415 . S
C3032 C3037 1.425 . S
C3032 C3039 1.409 . S
C3033 H3025 0.930 . S
C3033 C3031 1.419 . S
C3033 C3034 1.362 . S
C3034 H3026 0.930 . S
C3034 C3033 1.362 . S
C3034 C3037 1.409 . S
C3035 H3027 0.930 . S
C3035 C3036 1.355 . S
C3035 C3037 1.415 . S
C3036 C3035 1.355 . S
C3036 C3038 1.419 . S
C3037 C3032 1.425 . S
C3037 C3034 1.409 . S
C3037 C3035 1.415 . S
C3038 H3028 0.930 . S
C3038 C3036 1.419 . S
C3038 C3039 1.362 . S
C3039 H3029 0.930 . S
C3039 C3032 1.409 . S
C3039 C3038 1.362 . S
C1511 C255 2.225 1_554 S
C1516 C877 2.197 . S
C1527 C147 2.056 . S
C1532 C928 2.082 . S
C1543 C184 1.576 . S
C1548 C957 1.631 . S
C1564 C1001 1.459 . S
C1559 C220 1.498 . S
C1575 C40 1.363 . S
C1580 C1041 1.328 . S
C1596 C1077 1.700 . S
C1591 C74 1.724 . S
C1612 C1127 1.928 . S
C1607 C110 1.936 . S
C1623 C14 2.368 . S
C1628 C1157 2.334 . S
C1644 C887 1.996 . S
C1639 C579 2.017 . S
C1655 C616 0.673 . S
C1660 C930 0.641 . S
C1676 C967 1.317 . S
C1671 C687 1.337 . S
C1692 C997 1.507 . S
C1687 C436 1.485 . S
C1703 C580 1.530 . S
C1708 C1037 1.510 . S
C1724 C1087 0.909 . S
C1719 C615 0.934 . S
C1740 C1121 0.934 . S
C1735 C688 0.973 . S
C1756 C1167 1.967 . S
C1751 C435 2.002 . S
C1772 C881 1.186 1_565 S
C1767 C410 1.265 1_554 S
C1783 C722 1.774 . S
C1788 C1207 1.761 . S
C1804 C1241 1.453 . S
C1799 C842 1.494 . S
C1820 C1277 0.836 . S
C1815 C794 0.894 . S
C1831 C302 1.547 . S
C1836 C1161 1.457 . S
C1847 C338 1.530 . S
C1852 C961 1.519 . S
C1863 C830 1.706 . S
C1868 C1327 1.716 . S
C1884 C1346 0.480 . S
C1879 C758 0.447 . S
C1900 C888 2.216 . S
C1895 C158 2.130 . S
C1916 C1357 2.068 . S
C1911 C254 2.082 . S
C1927 C218 1.635 . S
C1932 C968 1.612 . S
C1943 C194 1.322 . S
C1948 C1330 1.380 . S
C1964 C1050 1.247 . S
C1959 C3 1.319 . S
C1975 C111 1.572 . S
C1980 C1248 1.570 . S
C1996 C1106 1.904 1_566 S
C1991 C76 1.859 . S
C2012 C1408 2.368 . S
C2007 C50 2.252 . S
C2028 C866 1.970 . S
C2023 C364 2.000 . S
C2044 C1361 0.766 . S
C2039 C795 0.722 . S
C2055 C292 1.289 . S
C2060 C946 1.257 . S
C2071 C723 1.459 . S
C2076 C1328 1.422 . S
C2087 C363 1.508 . S
C2092 C1048 1.485 . S
C2108 C1226 0.906 . S
C2103 C796 0.936 . S
C2119 C291 0.893 1_565 S
C2124 C1130 0.817 . S
C2135 C724 1.991 . S
C2140 C1386 1.968 . S
C2151 C482 1.269 . S
C2156 C890 1.324 . S
C2167 C434 1.724 . S
C2172 C1186 1.718 . S
C2183 C662 1.449 . S
C2188 C1090 1.497 . S
C2199 C614 0.885 . S
C2204 C1288 0.845 . S
C2220 C1410 1.405 . S
C2215 C698 1.313 . S
C2231 C554 1.407 . S
C2236 C970 1.484 . S
C2252 C986 1.667 . S
C2247 C650 1.670 . S
C2268 C927 0.444 . S
C2263 C506 0.314 . S
C2279 C183 2.203 . S
C2284 C1437 2.227 . S
C2300 C1368 2.083 . S
C2295 C219 2.049 . S
C2311 C256 1.606 1_554 S
C2316 C1477 1.618 . S
C2327 C148 1.480 . S
C2332 C1321 1.415 . S
C2343 C122 1.329 . S
C2348 C1201 1.362 . S
C2364 C1237 1.630 . S
C2359 C2 1.655 . S
C2380 C1287 1.860 . S
C2375 C39 1.814 . S
C2396 C1397 2.362 . S
C2391 C86 2.417 . S
C2412 C1447 1.991 . S
C2407 C651 2.027 . S
C2423 C472 0.688 . S
C2428 C1370 0.751 . S
C2444 C1487 1.292 . S
C2439 C507 1.312 . S
C2460 C1317 1.501 . S
C2455 C544 1.526 . S
C2476 C1197 1.512 . S
C2471 C652 1.510 . S
C2487 C471 0.903 . S
C2492 C1247 0.902 . S
C2508 C1281 0.919 . S
C2503 C508 0.921 . S
C2519 C543 2.023 . S
C2524 C1407 2.002 . S
C2540 C1441 1.261 . S
C2535 C806 1.341 . S
C2551 C326 1.750 . S
C2556 C1047 1.733 . S
C2572 C1081 1.470 . S
C2567 C374 1.527 1_565 S
C2588 C1117 0.849 . S
C2583 C398 0.914 . S
C2604 C1401 1.393 . S
C2599 C770 1.533 . S
C2615 C734 1.571 . S
C2620 C1481 1.494 . S
C2636 C1007 1.678 . S
C2631 C362 1.699 . S
C2652 C906 0.456 . S
C2647 C290 0.510 . S
C2663 C230 2.058 . S
C2668 C1448 2.194 . S
C2684 C917 2.077 . S
C2679 C182 2.082 . S
C2695 C146 1.598 . S
C2700 C1488 1.635 . S
C2711 C266 1.420 . S
C2716 C1010 1.456 . S
C2727 C75 1.370 . S
C2732 C1210 1.291 . S
C2748 C1088 1.720 . S
C2743 C38 1.664 . S
C2759 C4 1.795 . S
C2764 C1266 1.846 . S
C2775 C112 2.295 . S
C2780 C1168 2.280 . S
C2796 C1426 1.956 . S
C2791 C832 1.993 . S
C2807 C399 0.747 . S
C2812 C921 0.784 . S
C2828 C1466 1.276 . S
C2823 C760 1.303 . S
C2839 C327 1.440 . S
C2844 C1008 1.436 . S
C2855 C831 1.528 . S
C2860 C1208 1.534 . S
C2876 C1066 0.919 . S
C2871 C400 0.940 . S
C2887 C759 0.976 . S
C2892 C1290 0.958 . S
C2908 C1146 2.001 . S
C2903 C328 2.014 . S
C2924 C1450 1.318 . S
C2919 C626 1.267 . S
C2940 C1026 1.732 . S
C2935 C542 1.734 . S
C2951 C590 1.400 . S
C2956 C1250 1.452 . S
C2972 C1128 0.915 . S
C2967 C470 0.867 . S
C2983 C518 1.403 . S
C2988 C1170 1.469 . S
C2999 C446 1.508 . S
C3004 C1490 1.563 . S
C3020 C1306 1.673 . S
C3015 C578 1.687 . S
C3036 C1367 0.410 . S
C3031 C686 0.343 . S
