# Generated by pormake.
# Topology rtl, (3,6)-cn, num edge types: 1
# Building blocks:
#     Node 0, Type 0, BuildingBlock: OLANEW_clean_sbu_2, # of connection points: 3
#     Node 1, Type 0, BuildingBlock: OLANEW_clean_sbu_2, # of connection points: 3
#     Node 2, Type 0, BuildingBlock: OLANEW_clean_sbu_2, # of connection points: 3
#     Node 3, Type 0, BuildingBlock: OLANEW_clean_sbu_2, # of connection points: 3
#     Node 4, Type 1, BuildingBlock: FUNLAD_clean_sbu_0, # of connection points: 6
#     Node 5, Type 1, BuildingBlock: FUNLAD_clean_sbu_0, # of connection points: 6
#     Edge 6, Type (0, 1), BuildingBlock: FUNLAD_clean_linker_1, # of connection points: 2
#     Edge 7, Type (0, 1), BuildingBlock: FUNLAD_clean_linker_1, # of connection points: 2
#     Edge 8, Type (0, 1), BuildingBlock: FUNLAD_clean_linker_1, # of connection points: 2
#     Edge 9, Type (0, 1), BuildingBlock: FUNLAD_clean_linker_1, # of connection points: 2
#     Edge 10, Type (0, 1), BuildingBlock: FUNLAD_clean_linker_1, # of connection points: 2
#     Edge 11, Type (0, 1), BuildingBlock: FUNLAD_clean_linker_1, # of connection points: 2
#     Edge 12, Type (0, 1), BuildingBlock: FUNLAD_clean_linker_1, # of connection points: 2
#     Edge 13, Type (0, 1), BuildingBlock: FUNLAD_clean_linker_1, # of connection points: 2
#     Edge 14, Type (0, 1), BuildingBlock: FUNLAD_clean_linker_1, # of connection points: 2
#     Edge 15, Type (0, 1), BuildingBlock: FUNLAD_clean_linker_1, # of connection points: 2
#     Edge 16, Type (0, 1), BuildingBlock: FUNLAD_clean_linker_1, # of connection points: 2
#     Edge 17, Type (0, 1), BuildingBlock: FUNLAD_clean_linker_1, # of connection points: 2
# Relax obj value: 0.013
# Max RMSD: 0.078
# Mean RMSD: 0.052
data_MOF--net-rtl--node1-OLANEW_clean_sbu_2--node2-FUNLAD_clean_sbu_0--edge1-FUNLAD_clean_linker_1
_symmetry_space_group_name_H-M    P1
_symmetry_Int_Tables_number       1
_symmetry_cell_setting            triclinic
loop_
_symmetry_equiv_pos_as_xyz
'x, y, z'
_cell_length_a     45.161863
_cell_length_b     42.553113
_cell_length_c     23.443284
_cell_angle_alpha  87.098919
_cell_angle_beta   93.840162
_cell_angle_gamma 90.270491
loop_
_atom_site_label
_atom_site_type_symbol
_atom_site_fract_x
_atom_site_fract_y
_atom_site_fract_z
_atom_type_partial_charge
O0 O 0.12818 0.7652 0.91374 0.0
Cd1 Cd 0.14422 0.71998 0.97621 0.0
O2 O 0.12097 0.78894 0.99235 0.0
Cd3 Cd 0.10771 0.82949 0.03807 0.0
O4 O 0.0989 0.86634 0.09613 0.0
C5 C 0.07871 0.86181 0.13076 0.0
O6 O 0.06326 0.83557 0.12966 0.0
C7 C 0.11973 0.78929 0.93808 0.0
C8 C 0.19882 0.69547 0.95297 0.0
O9 O 0.17472 0.68545 0.92817 0.0
O10 O 0.19721 0.71742 0.98813 0.0
O11 O 0.61672 0.75789 0.65556 0.0
Cd12 Cd 0.63178 0.79935 0.58745 0.0
O13 O 0.61259 0.72797 0.58244 0.0
Cd14 Cd 0.60061 0.68848 0.52922 0.0
O15 O 0.59142 0.66038 0.45462 0.0
C16 C 0.56537 0.65042 0.44188 0.0
O17 O 0.54399 0.65614 0.47514 0.0
C18 C 0.61015 0.73139 0.63555 0.0
C19 C 0.69262 0.81054 0.5896 0.0
O20 O 0.67595 0.82614 0.62014 0.0
O21 O 0.68069 0.78923 0.55892 0.0
O22 O 0.8209 0.16882 0.20254 0.0
Cd23 Cd 0.78123 0.17253 0.12638 0.0
O24 O 0.85135 0.18167 0.13642 0.0
Cd25 Cd 0.89535 0.18459 0.10341 0.0
O26 O 0.9301 0.17483 0.04661 0.0
C27 C 0.92067 0.16628 0.99758 0.0
O28 O 0.89189 0.16495 0.98511 0.0
C29 C 0.84727 0.17299 0.18788 0.0
C30 C 0.74661 0.22648 0.12088 0.0
O31 O 0.73965 0.20214 0.15155 0.0
O32 O 0.77037 0.22568 0.09396 0.0
O33 O 0.38215 0.27211 0.67354 0.0
Cd34 Cd 0.3666 0.22574 0.62134 0.0
O35 O 0.39908 0.28749 0.59151 0.0
Cd36 Cd 0.42137 0.32014 0.53372 0.0
O37 O 0.43595 0.34699 0.45892 0.0
C38 C 0.46155 0.34258 0.44141 0.0
O39 O 0.47966 0.32244 0.46982 0.0
C40 C 0.3961 0.29232 0.64381 0.0
C41 C 0.30598 0.21337 0.60808 0.0
O42 O 0.3221 0.20027 0.64965 0.0
O43 O 0.31824 0.23311 0.5739 0.0
C44 C 0.01458 0.9729 0.48633 0.0
N45 N 0.05888 0.04894 0.5633 0.0
C46 C 0.08513 0.03471 0.55587 0.0
C47 C 0.11135 0.05222 0.55592 0.0
C48 C 0.11071 0.08471 0.56372 0.0
C49 C 0.08305 0.09898 0.5693 0.0
C50 C 0.05735 0.08054 0.56902 0.0
Zn51 Zn 0.02171 0.02193 0.57221 0.0
C52 C 0.9687 0.04785 0.50592 0.0
N53 N 0.94469 0.96498 0.59556 0.0
C54 C 0.9455 0.93313 0.59255 0.0
C55 C 0.91918 0.98 0.60561 0.0
C56 C 0.89313 0.96298 0.61287 0.0
C57 C 0.8931 0.93021 0.6091 0.0
C58 C 0.91982 0.91516 0.59922 0.0
Zn59 Zn 0.98199 0.99161 0.5852 0.0
O60 O 0.0311 0.99593 0.50048 0.0
C61 C 0.03481 0.96518 0.6509 0.0
O62 O 0.99245 0.9656 0.51498 0.0
H63 H 0.91898 0.00531 0.60791 0.0
H64 H 0.08588 0.00956 0.55144 0.0
H65 H 0.96609 0.92163 0.58505 0.0
O66 O 0.04683 0.98912 0.62741 0.0
O67 O 0.0072 0.9603 0.64119 0.0
H68 H 0.03624 0.0914 0.57492 0.0
O69 O 0.97217 0.01791 0.65522 0.0
O70 O 0.0115 0.04754 0.64403 0.0
O71 O 0.95729 0.02336 0.52867 0.0
O72 O 0.99602 0.05391 0.5169 0.0
C73 C 0.98867 0.04051 0.67091 0.0
H74 H 0.13211 0.04025 0.55124 0.0
H75 H 0.0809 0.12386 0.57508 0.0
H76 H 0.87304 0.97542 0.6207 0.0
H77 H 0.92116 0.88986 0.59739 0.0
C78 C 0.4817 0.47131 0.89291 0.0
N79 N 0.56545 0.46116 0.98095 0.0
C80 C 0.55953 0.42985 0.98725 0.0
C81 C 0.58264 0.40811 0.99519 0.0
C82 C 0.6122 0.41873 0.99686 0.0
C83 C 0.61765 0.45104 0.98835 0.0
C84 C 0.59383 0.47201 0.98082 0.0
Zn85 Zn 0.53069 0.49191 0.9749 0.0
C86 C 0.53669 0.54314 0.88643 0.0
N87 N 0.45665 0.55442 0.96544 0.0
C88 C 0.42867 0.5424 0.96434 0.0
C89 C 0.46151 0.58601 0.96539 0.0
C90 C 0.43764 0.60684 0.96479 0.0
C91 C 0.40855 0.59509 0.96348 0.0
C92 C 0.4042 0.56235 0.96338 0.0
Zn93 Zn 0.49172 0.52406 0.97008 0.0
O94 O 0.50755 0.46383 0.91394 0.0
C95 C 0.4865 0.47369 0.06022 0.0
O96 O 0.46956 0.49613 0.90803 0.0
H97 H 0.48395 0.59507 0.96651 0.0
H98 H 0.53681 0.42168 0.98671 0.0
H99 H 0.42532 0.51721 0.96516 0.0
O100 O 0.5114 0.46617 0.04269 0.0
O101 O 0.47234 0.49696 0.03616 0.0
H102 H 0.59802 0.49701 0.97567 0.0
O103 O 0.51407 0.55087 0.03346 0.0
O104 O 0.55304 0.52 0.03633 0.0
O105 O 0.51196 0.55112 0.90435 0.0
O106 O 0.54973 0.5185 0.90795 0.0
C107 C 0.53992 0.54346 0.0545 0.0
H108 H 0.57726 0.38334 0.99954 0.0
H109 H 0.64014 0.46004 0.98875 0.0
H110 H 0.44189 0.6319 0.9655 0.0
H111 H 0.3823 0.55201 0.96432 0.0
H112 H 0.2612 0.21865 0.56478 0.0
C113 C 0.27443 0.205 0.59757 0.0
H114 H 0.27543 0.16602 0.65706 0.0
H115 H 0.13879 0.14942 0.67959 0.0
H116 H 0.15436 0.16878 0.77235 0.0
H117 H 0.20503 0.18927 0.79169 0.0
H118 H 0.24054 0.19027 0.71845 0.0
C119 C 0.26248 0.17965 0.62385 0.0
C120 C 0.23128 0.16961 0.60998 0.0
C121 C 0.21059 0.16975 0.65287 0.0
C122 C 0.1812 0.15844 0.6414 0.0
C123 C 0.16127 0.15811 0.68561 0.0
C124 C 0.16992 0.16913 0.73915 0.0
C125 C 0.19846 0.18063 0.75006 0.0
C126 C 0.21864 0.18099 0.70764 0.0
H127 H 0.15961 0.08835 0.5658 0.0
C128 C 0.13947 0.10204 0.56811 0.0
H129 H 0.12342 0.14781 0.58123 0.0
H130 H 0.26594 0.16299 0.51922 0.0
H131 H 0.24947 0.1466 0.42494 0.0
H132 H 0.19724 0.13186 0.40254 0.0
H133 H 0.16138 0.13271 0.47498 0.0
C134 C 0.14246 0.13298 0.57684 0.0
C135 C 0.17246 0.14724 0.58684 0.0
C136 C 0.19273 0.14839 0.54311 0.0
C137 C 0.22243 0.15866 0.55514 0.0
C138 C 0.24276 0.15706 0.51188 0.0
C139 C 0.23365 0.14742 0.45756 0.0
C140 C 0.20429 0.13899 0.44502 0.0
C141 C 0.18399 0.13938 0.48712 0.0
H142 H 0.22711 0.66148 0.9142 0.0
C143 C 0.22737 0.68091 0.94263 0.0
H144 H 0.25357 0.70833 0.99934 0.0
H145 H 0.34791 0.59933 0.05306 0.0
H146 H 0.32554 0.60166 0.14388 0.0
H147 H 0.28251 0.63598 0.15373 0.0
H148 H 0.26156 0.66812 0.0728 0.0
C149 C 0.25312 0.6897 0.96925 0.0
C150 C 0.28079 0.6715 0.96415 0.0
C151 C 0.29313 0.65338 0.0123 0.0
C152 C 0.31803 0.63372 0.00673 0.0
C153 C 0.3293 0.61504 0.05502 0.0
C154 C 0.3166 0.61605 0.10742 0.0
C155 C 0.29236 0.63536 0.11295 0.0
C156 C 0.2806 0.65375 0.0661 0.0
H157 H 0.38795 0.63997 0.98385 0.0
C158 C 0.38344 0.61729 0.96565 0.0
H159 H 0.35043 0.58917 0.92449 0.0
H160 H 0.26523 0.70665 0.86568 0.0
H161 H 0.28808 0.7048 0.77509 0.0
H162 H 0.33057 0.66974 0.76492 0.0
H163 H 0.35061 0.63648 0.84545 0.0
C164 C 0.35555 0.61059 0.9464 0.0
C165 C 0.33071 0.63253 0.95317 0.0
C166 C 0.31899 0.65138 0.90553 0.0
C167 C 0.29417 0.67116 0.91114 0.0
C168 C 0.28351 0.69053 0.86334 0.0
C169 C 0.29655 0.68986 0.81121 0.0
C170 C 0.3205 0.67015 0.8055 0.0
C171 C 0.33173 0.65113 0.85199 0.0
H172 H 0.7378 0.80301 0.5623 0.0
C173 C 0.72454 0.8176 0.58753 0.0
H174 H 0.72417 0.85697 0.63881 0.0
H175 H 0.86152 0.86355 0.70126 0.0
H176 H 0.84394 0.84407 0.79212 0.0
H177 H 0.79189 0.82731 0.79925 0.0
H178 H 0.7571 0.82989 0.71563 0.0
C179 C 0.73704 0.84253 0.61265 0.0
C180 C 0.7688 0.85094 0.60713 0.0
C181 C 0.78881 0.84932 0.65645 0.0
C182 C 0.81878 0.85914 0.65245 0.0
C183 C 0.8384 0.85691 0.7022 0.0
C184 C 0.82864 0.84562 0.75452 0.0
C185 C 0.79933 0.83616 0.75852 0.0
C186 C 0.77957 0.83786 0.71021 0.0
H187 H 0.84737 0.92492 0.63635 0.0
C188 C 0.86487 0.91289 0.6163 0.0
H189 H 0.87472 0.87242 0.57192 0.0
H190 H 0.73592 0.85932 0.50446 0.0
H191 H 0.75402 0.87754 0.41373 0.0
H192 H 0.80653 0.8924 0.40637 0.0
H193 H 0.84118 0.88939 0.49008 0.0
C194 C 0.85887 0.88442 0.59596 0.0
C195 C 0.82863 0.87072 0.59923 0.0
C196 C 0.80896 0.87134 0.54951 0.0
C197 C 0.77885 0.86197 0.55355 0.0
C198 C 0.75926 0.8649 0.50376 0.0
C199 C 0.7693 0.87563 0.45133 0.0
C200 C 0.79885 0.88405 0.4472 0.0
C201 C 0.8185 0.88217 0.49561 0.0
H202 H 0.70618 0.25254 0.13661 0.0
C203 C 0.72668 0.25391 0.11478 0.0
H204 H 0.75195 0.28048 0.05694 0.0
H205 H 0.63819 0.34789 0.93554 0.0
H206 H 0.65465 0.31664 0.86013 0.0
H207 H 0.69627 0.27941 0.87886 0.0
H208 H 0.72162 0.27316 0.97314 0.0
C209 C 0.73207 0.27931 0.08064 0.0
C210 C 0.70922 0.30426 0.06838 0.0
C211 C 0.69511 0.30813 0.01256 0.0
C212 C 0.67126 0.32977 0.00161 0.0
C213 C 0.65679 0.33228 0.94605 0.0
C214 C 0.66592 0.31435 0.90236 0.0
C215 C 0.68934 0.29337 0.91292 0.0
C216 C 0.70375 0.29008 0.9673 0.0
H217 H 0.65884 0.40392 0.99077 0.0
C218 C 0.63762 0.39671 0.00662 0.0
H219 H 0.61571 0.36214 0.05661 0.0
H220 H 0.73442 0.30605 0.17777 0.0
H221 H 0.71827 0.33778 0.25299 0.0
H222 H 0.67606 0.37433 0.23461 0.0
H223 H 0.64991 0.37955 0.14073 0.0
C224 C 0.63581 0.36896 0.03622 0.0
C225 C 0.66184 0.34773 0.04637 0.0
C226 C 0.67654 0.3446 0.10167 0.0
C227 C 0.7005 0.32311 0.11255 0.0
C228 C 0.71548 0.32128 0.16765 0.0
C229 C 0.70659 0.33954 0.2111 0.0
C230 C 0.68285 0.36015 0.20073 0.0
C231 C 0.66799 0.36284 0.14669 0.0
H232 H 0.08812 0.90591 0.17442 0.0
C233 C 0.07411 0.88507 0.17383 0.0
H234 H 0.04083 0.85918 0.21465 0.0
H235 H 0.07007 0.91522 0.45564 0.0
H236 H 0.091 0.86289 0.47186 0.0
H237 H 0.09456 0.82791 0.39184 0.0
H238 H 0.0773 0.84507 0.29515 0.0
C239 C 0.05417 0.8805 0.21341 0.0
C240 C 0.05232 0.90209 0.26095 0.0
C241 C 0.06224 0.89153 0.3173 0.0
C242 C 0.05992 0.91154 0.36351 0.0
C243 C 0.07068 0.90071 0.41916 0.0
C244 C 0.08292 0.87079 0.42903 0.0
C245 C 0.08495 0.85111 0.38398 0.0
C246 C 0.07486 0.86125 0.32868 0.0
H247 H 0.00718 0.93344 0.42993 0.0
C248 C 0.02078 0.95418 0.43745 0.0
H249 H 0.05543 0.98291 0.40747 0.0
H250 H 0.03026 0.92931 0.15843 0.0
H251 H 0.00981 0.98186 0.14235 0.0
H252 H 0.00645 0.01682 0.22248 0.0
H253 H 0.02344 0.99935 0.3193 0.0
C254 C 0.04224 0.9617 0.40224 0.0
C255 C 0.04724 0.94189 0.35338 0.0
C256 C 0.03797 0.95277 0.29691 0.0
C257 C 0.04027 0.93275 0.25062 0.0
C258 C 0.02968 0.94375 0.19498 0.0
C259 C 0.01773 0.97382 0.1852 0.0
C260 C 0.0158 0.99349 0.23032 0.0
C261 C 0.02566 0.98318 0.28566 0.0
H262 H 0.59 0.71368 0.71365 0.0
C263 C 0.59826 0.7065 0.67378 0.0
H264 H 0.6065 0.66787 0.62393 0.0
H265 H 0.58332 0.60971 0.88876 0.0
H266 H 0.62965 0.63518 0.91736 0.0
H267 H 0.65672 0.66741 0.84747 0.0
H268 H 0.63722 0.67488 0.7488 0.0
C269 C 0.59796 0.67583 0.66278 0.0
C270 C 0.58456 0.65215 0.70249 0.0
C271 C 0.59707 0.64669 0.75929 0.0
C272 C 0.58223 0.62679 0.79883 0.0
C273 C 0.59421 0.62348 0.85625 0.0
C274 C 0.62074 0.63814 0.87339 0.0
C275 C 0.63592 0.65639 0.83411 0.0
C276 C 0.62435 0.66068 0.77769 0.0
H277 H 0.57237 0.55516 0.82922 0.0
C278 C 0.55115 0.56287 0.8428 0.0
H279 H 0.51831 0.59834 0.83402 0.0
H280 H 0.55567 0.65588 0.59591 0.0
H281 H 0.51078 0.62797 0.56576 0.0
H282 H 0.48616 0.59183 0.6333 0.0
H283 H 0.50615 0.58349 0.73158 0.0
C284 C 0.53979 0.59055 0.82191 0.0
C285 C 0.55572 0.61108 0.78068 0.0
C286 C 0.54394 0.61545 0.72327 0.0
C287 C 0.55836 0.63602 0.68414 0.0
C288 C 0.5458 0.64033 0.62729 0.0
C289 C 0.52003 0.62447 0.60941 0.0
C290 C 0.50614 0.60414 0.64746 0.0
C291 C 0.51783 0.5996 0.70377 0.0
H292 H 0.89512 0.16827 0.21335 0.0
C293 C 0.87295 0.16487 0.22806 0.0
H294 H 0.84767 0.14752 0.2955 0.0
H295 H 0.96799 0.0616 0.35076 0.0
H296 H 0.95513 0.03832 0.25994 0.0
H297 H 0.91415 0.0599 0.19495 0.0
H298 H 0.88611 0.10495 0.21986 0.0
C299 C 0.86963 0.15072 0.27975 0.0
C300 C 0.89539 0.13843 0.31698 0.0
C301 C 0.91111 0.11156 0.30185 0.0
C302 C 0.934 0.09836 0.34015 0.0
C303 C 0.94987 0.072 0.32377 0.0
C304 C 0.94281 0.0585 0.27171 0.0
C305 C 0.9198 0.07071 0.23507 0.0
C306 C 0.90399 0.09681 0.2498 0.0
H307 H 0.92734 0.06027 0.45543 0.0
C308 C 0.95008 0.06785 0.46515 0.0
H309 H 0.98252 0.10252 0.44739 0.0
H310 H 0.87112 0.19109 0.35716 0.0
H311 H 0.88404 0.21385 0.44852 0.0
H312 H 0.92294 0.18995 0.51581 0.0
H313 H 0.94927 0.14318 0.49202 0.0
C314 C 0.96011 0.09392 0.43812 0.0
C315 C 0.9403 0.11121 0.39422 0.0
C316 C 0.92549 0.13869 0.40838 0.0
C317 C 0.90295 0.15231 0.36973 0.0
C318 C 0.88825 0.17962 0.38518 0.0
C319 C 0.8955 0.19295 0.43741 0.0
C320 C 0.91741 0.17951 0.47529 0.0
C321 C 0.9323 0.15266 0.4612 0.0
H322 H 0.42623 0.33321 0.6454 0.0
C323 C 0.4101 0.32012 0.66956 0.0
H324 H 0.38881 0.31545 0.74678 0.0
H325 H 0.48607 0.37826 0.90658 0.0
H326 H 0.48431 0.32505 0.94773 0.0
H327 H 0.45496 0.28411 0.89887 0.0
H328 H 0.42684 0.29628 0.80906 0.0
C329 C 0.40458 0.3288 0.72216 0.0
C330 C 0.42231 0.35391 0.75095 0.0
C331 C 0.43927 0.34619 0.80293 0.0
C332 C 0.45693 0.36957 0.83024 0.0
C333 C 0.47282 0.36136 0.88311 0.0
C334 C 0.47196 0.33087 0.90743 0.0
C335 C 0.45539 0.30785 0.87999 0.0
C336 C 0.43924 0.31524 0.8284 0.0
H337 H 0.44123 0.45504 0.84526 0.0
C338 C 0.46472 0.45026 0.8547 0.0
H339 H 0.50017 0.41939 0.84497 0.0
H340 H 0.38873 0.37842 0.65743 0.0
H341 H 0.39266 0.43087 0.61323 0.0
H342 H 0.42797 0.46945 0.6541 0.0
H343 H 0.45887 0.45607 0.74037 0.0
C344 C 0.47685 0.42464 0.83448 0.0
C345 C 0.45829 0.40049 0.80489 0.0
C346 C 0.44174 0.40811 0.75241 0.0
C347 C 0.42288 0.38516 0.7266 0.0
C348 C 0.40472 0.39427 0.67697 0.0
C349 C 0.40654 0.42442 0.65144 0.0
C350 C 0.42631 0.44619 0.67461 0.0
C351 C 0.44375 0.43827 0.72446 0.0
H352 H 0.5361 0.62508 0.38061 0.0
C353 C 0.55851 0.63398 0.38872 0.0
H354 H 0.60056 0.64102 0.3555 0.0
H355 H 0.53739 0.52878 0.19915 0.0
H356 H 0.54519 0.49509 0.2852 0.0
H357 H 0.5646 0.51668 0.37595 0.0
H358 H 0.5765 0.57217 0.38106 0.0
C359 C 0.57846 0.63103 0.34929 0.0
C360 C 0.56987 0.6172 0.29355 0.0
C361 C 0.56378 0.58456 0.29096 0.0
C362 C 0.55342 0.57197 0.2382 0.0
C363 C 0.54627 0.53952 0.23747 0.0
C364 C 0.55043 0.5199 0.28673 0.0
C365 C 0.56132 0.53206 0.33785 0.0
C366 C 0.56792 0.56399 0.34024 0.0
H367 H 0.57601 0.5533 0.11944 0.0
C368 C 0.55355 0.55974 0.10367 0.0
H369 H 0.51538 0.58607 0.11797 0.0
H370 H 0.58104 0.68049 0.28325 0.0
H371 H 0.57573 0.7138 0.1961 0.0
H372 H 0.55881 0.69174 0.10416 0.0
H373 H 0.54702 0.6362 0.09886 0.0
C374 C 0.53785 0.57935 0.13309 0.0
C375 C 0.55006 0.59195 0.1878 0.0
C376 C 0.55705 0.62435 0.1901 0.0
C377 C 0.56704 0.637 0.243 0.0
C378 C 0.57356 0.66957 0.24415 0.0
C379 C 0.57058 0.68898 0.19443 0.0
C380 C 0.56104 0.67656 0.14268 0.0
C381 C 0.5543 0.64466 0.14026 0.0
H382 H 0.96533 0.15661 0.9691 0.0
C383 C 0.94169 0.15582 0.95699 0.0
H384 H 0.90853 0.14355 0.89419 0.0
H385 H 0.98327 0.13668 0.68197 0.0
H386 H 0.9588 0.18696 0.66034 0.0
H387 H 0.93178 0.21247 0.73349 0.0
H388 H 0.92888 0.18772 0.82863 0.0
C389 C 0.93207 0.14374 0.90725 0.0
C390 C 0.9526 0.13092 0.86729 0.0
C391 C 0.95474 0.14609 0.81246 0.0
C392 C 0.97061 0.13159 0.77053 0.0
C393 C 0.97163 0.14677 0.71552 0.0
C394 C 0.95772 0.17564 0.70256 0.0
C395 C 0.94248 0.18999 0.74373 0.0
C396 C 0.94092 0.17549 0.7981 0.0
H397 H 0.96113 0.05056 0.74143 0.0
C398 C 0.98059 0.05834 0.71961 0.0
H399 H 0.01423 0.09298 0.7144 0.0
H400 H 0.95323 0.09514 0.96857 0.0
H401 H 0.98029 0.04668 0.99141 0.0
H402 H 0.01055 0.02359 0.9204 0.0
H403 H 0.0134 0.04874 0.82553 0.0
C404 C 0.99543 0.08395 0.73684 0.0
C405 C 0.98427 0.10199 0.78362 0.0
C406 C 0.98417 0.08805 0.83981 0.0
C407 C 0.96777 0.10213 0.88144 0.0
C408 C 0.96623 0.08631 0.93584 0.0
C409 C 0.98155 0.05829 0.94947 0.0
C410 C 0.9985 0.04524 0.90945 0.0
C411 C 0.99983 0.0598 0.85513 0.0
H412 H 0.49274 0.35405 0.37486 0.0
C413 C 0.47061 0.35861 0.38814 0.0
H414 H 0.43023 0.38295 0.36812 0.0
H415 H 0.49078 0.48546 0.20702 0.0
H416 H 0.48194 0.51611 0.28842 0.0
H417 H 0.46386 0.49081 0.37649 0.0
H418 H 0.4544 0.43463 0.38351 0.0
C419 C 0.45217 0.37755 0.35493 0.0
C420 C 0.4616 0.3928 0.3006 0.0
C421 C 0.46638 0.42576 0.29673 0.0
C422 C 0.47639 0.4404 0.24561 0.0
C423 C 0.48223 0.47318 0.24394 0.0
C424 C 0.4775 0.49106 0.29063 0.0
C425 C 0.46736 0.47682 0.34024 0.0
C426 C 0.46196 0.44455 0.34362 0.0
H427 H 0.45276 0.4628 0.12226 0.0
C428 C 0.47491 0.45701 0.1106 0.0
H429 H 0.51393 0.43076 0.13334 0.0
H430 H 0.45149 0.32957 0.29164 0.0
H431 H 0.45965 0.29895 0.20973 0.0
H432 H 0.47775 0.3242 0.12158 0.0
H433 H 0.4876 0.38029 0.11475 0.0
C434 C 0.49183 0.43696 0.14466 0.0
C435 C 0.48096 0.42206 0.19804 0.0
C436 C 0.47587 0.38916 0.20171 0.0
C437 C 0.46589 0.37453 0.25284 0.0
C438 C 0.4599 0.3418 0.25451 0.0
C439 C 0.46429 0.32395 0.20761 0.0
C440 C 0.47444 0.33816 0.15796 0.0
C441 C 0.48009 0.37039 0.1547 0.0
H442 H 0.09491 0.83385 0.9264 0.0
C443 C 0.10732 0.81689 0.90438 0.0
H444 H 0.12213 0.80402 0.82546 0.0
H445 H 0.02225 0.87212 0.66675 0.0
H446 H 0.01512 0.81747 0.64506 0.0
H447 H 0.04331 0.77548 0.70075 0.0
H448 H 0.07906 0.78791 0.77786 0.0
C449 C 0.11004 0.82111 0.84778 0.0
C450 C 0.09388 0.84684 0.8133 0.0
C451 C 0.07261 0.83904 0.7689 0.0
C452 C 0.05575 0.86318 0.73783 0.0
C453 C 0.03523 0.85475 0.69268 0.0
C454 C 0.03095 0.82344 0.67958 0.0
C455 C 0.04686 0.79981 0.71086 0.0
C456 C 0.06742 0.80735 0.75502 0.0
H457 H 0.07721 0.9448 0.68733 0.0
C458 C 0.05321 0.94273 0.6875 0.0
H459 H 0.01716 0.91732 0.71944 0.0
H460 H 0.1368 0.87072 0.88754 0.0
H461 H 0.14216 0.92508 0.91289 0.0
H462 H 0.10857 0.96605 0.86766 0.0
H463 H 0.07013 0.95305 0.79559 0.0
C464 C 0.04114 0.91977 0.71992 0.0
C465 C 0.05962 0.89501 0.75205 0.0
C466 C 0.08078 0.90282 0.79666 0.0
C467 C 0.09873 0.87886 0.82571 0.0
C468 C 0.12138 0.88766 0.8666 0.0
C469 C 0.12488 0.91885 0.88118 0.0
C470 C 0.10609 0.94193 0.8555 0.0
C471 C 0.08425 0.93416 0.81377 0.0
loop_
_geom_bond_atom_site_label_1
_geom_bond_atom_site_label_2
_geom_bond_distance
_geom_bond_site_symmetry_2
_ccdc_geom_bond_type
O0 Cd1 2.300 1_556 S
O0 C7 1.275 . S
Cd1 O0 2.300 1_554 S
Cd1 O9 2.381 . S
Cd1 O10 2.378 . S
O2 Cd3 2.385 . S
O2 C7 1.255 1_554 S
Cd3 O2 2.385 . S
Cd3 O4 2.317 . S
O4 Cd3 2.317 . S
O4 C5 1.232 . S
C5 O4 1.232 . S
C5 O6 1.218 . S
O6 C5 1.218 . S
C7 O0 1.275 . S
C7 O2 1.255 1_556 S
C8 O9 1.258 . S
C8 O10 1.256 . S
O9 Cd1 2.381 . S
O9 C8 1.258 . S
O10 Cd1 2.378 . S
O10 C8 1.256 . S
O11 Cd12 2.300 . S
O11 C18 1.275 . S
Cd12 O11 2.300 . S
Cd12 O20 2.381 . S
Cd12 O21 2.378 . S
O13 Cd14 2.385 . S
O13 C18 1.255 . S
Cd14 O13 2.385 . S
Cd14 O15 2.317 . S
O15 Cd14 2.317 . S
O15 C16 1.232 . S
C16 O15 1.232 . S
C16 O17 1.218 . S
O17 C16 1.218 . S
C18 O11 1.275 . S
C18 O13 1.255 . S
C19 O20 1.258 . S
C19 O21 1.256 . S
O20 Cd12 2.381 . S
O20 C19 1.258 . S
O21 Cd12 2.378 . S
O21 C19 1.256 . S
O22 Cd23 2.300 . S
O22 C29 1.275 . S
Cd23 O22 2.300 . S
Cd23 O31 2.381 . S
Cd23 O32 2.378 . S
O24 Cd25 2.385 . S
O24 C29 1.255 . S
Cd25 O24 2.385 . S
Cd25 O26 2.317 1_554 S
O26 Cd25 2.317 1_556 S
O26 C27 1.232 . S
C27 O26 1.232 . S
C27 O28 1.218 . S
O28 C27 1.218 . S
C29 O22 1.275 . S
C29 O24 1.255 . S
C30 O31 1.258 . S
C30 O32 1.256 . S
O31 Cd23 2.381 . S
O31 C30 1.258 . S
O32 Cd23 2.378 . S
O32 C30 1.256 . S
O33 Cd34 2.300 . S
O33 C40 1.275 . S
Cd34 O33 2.300 . S
Cd34 O42 2.381 . S
Cd34 O43 2.378 . S
O35 Cd36 2.385 . S
O35 C40 1.255 . S
Cd36 O35 2.385 . S
Cd36 O37 2.317 . S
O37 Cd36 2.317 . S
O37 C38 1.232 . S
C38 O37 1.232 . S
C38 O39 1.218 . S
O39 C38 1.218 . S
C40 O33 1.275 . S
C40 O35 1.255 . S
C41 O42 1.258 . S
C41 O43 1.256 . S
O42 Cd34 2.381 . S
O42 C41 1.258 . S
O43 Cd34 2.378 . S
O43 C41 1.256 . S
C44 O60 1.251 . S
C44 O62 1.254 . S
N45 C46 1.333 . S
N45 C50 1.307 . S
N45 Zn51 2.020 . S
C46 N45 1.333 . S
C46 C47 1.379 . S
C46 H64 0.952 . S
C47 C46 1.379 . S
C47 C48 1.390 . S
C47 H74 0.949 . S
C48 C47 1.390 . S
C48 C49 1.357 . S
C49 C48 1.357 . S
C49 C50 1.370 . S
C49 H75 0.950 . S
C50 N45 1.307 . S
C50 C49 1.370 . S
C50 H68 0.948 . S
Zn51 N45 2.020 . S
Zn51 O60 2.039 1_545 S
Zn51 O66 2.034 1_545 S
Zn51 O70 2.025 . S
Zn51 O72 2.035 . S
C52 O71 1.246 . S
C52 O72 1.233 1_655 S
N53 C54 1.307 . S
N53 C55 1.333 . S
N53 Zn59 2.020 . S
C54 N53 1.307 . S
C54 C58 1.370 . S
C54 H65 0.948 . S
C55 N53 1.333 . S
C55 C56 1.379 . S
C55 H63 0.952 . S
C56 C55 1.379 . S
C56 C57 1.390 . S
C56 H76 0.949 . S
C57 C56 1.390 . S
C57 C58 1.357 . S
C58 C54 1.370 . S
C58 C57 1.357 . S
C58 H77 0.950 . S
Zn59 N53 2.020 . S
Zn59 O62 2.025 1_655 S
Zn59 O67 2.024 1_655 S
Zn59 O69 2.039 1_565 S
Zn59 O71 2.034 1_565 S
O60 C44 1.251 . S
O60 Zn51 2.039 1_565 S
C61 O66 1.246 . S
C61 O67 1.249 . S
O62 C44 1.254 . S
O62 Zn59 2.025 1_455 S
H63 C55 0.952 . S
H64 C46 0.952 . S
H65 C54 0.948 . S
O66 Zn51 2.034 1_565 S
O66 C61 1.246 . S
O67 Zn59 2.024 1_455 S
O67 C61 1.249 . S
H68 C50 0.948 . S
O69 Zn59 2.039 1_545 S
O69 C73 1.251 . S
O70 Zn51 2.025 . S
O70 C73 1.254 1_455 S
O71 C52 1.246 . S
O71 Zn59 2.034 1_545 S
O72 Zn51 2.035 . S
O72 C52 1.233 1_455 S
C73 O69 1.251 . S
C73 O70 1.254 1_655 S
H74 C47 0.949 . S
H75 C49 0.950 . S
H76 C56 0.949 . S
H77 C58 0.950 . S
C78 O94 1.251 . S
C78 O96 1.254 . S
N79 C80 1.333 . S
N79 C84 1.307 . S
N79 Zn85 2.020 . S
C80 N79 1.333 . S
C80 C81 1.379 . S
C80 H98 0.952 1_554 S
C81 C80 1.379 . S
C81 C82 1.390 . S
C81 H108 0.949 1_554 S
C82 C81 1.390 . S
C82 C83 1.357 . S
C83 C82 1.357 . S
C83 C84 1.370 . S
C83 H109 0.950 . S
C84 N79 1.307 . S
C84 C83 1.370 . S
C84 H102 0.948 . S
Zn85 N79 2.020 . S
Zn85 O94 2.039 1_554 S
Zn85 O100 2.034 . S
Zn85 O104 2.025 . S
Zn85 O106 2.024 1_554 S
C86 O105 1.246 . S
C86 O106 1.249 . S
N87 C88 1.307 1_554 S
N87 C89 1.333 . S
N87 Zn93 2.020 . S
C88 N87 1.307 1_556 S
C88 C92 1.370 . S
C88 H99 0.948 . S
C89 N87 1.333 . S
C89 C90 1.379 . S
C89 H97 0.952 . S
C90 C89 1.379 . S
C90 C91 1.390 . S
C90 H110 0.949 . S
C91 C90 1.390 . S
C91 C92 1.357 1_554 S
C92 C88 1.370 . S
C92 C91 1.357 1_556 S
C92 H111 0.950 . S
Zn93 N87 2.020 . S
Zn93 O96 2.025 1_554 S
Zn93 O101 2.024 . S
Zn93 O103 2.039 . S
Zn93 O105 2.034 1_554 S
O94 C78 1.251 . S
O94 Zn85 2.039 1_556 S
C95 O100 1.246 . S
C95 O101 1.249 . S
O96 C78 1.254 . S
O96 Zn93 2.025 1_556 S
H97 C89 0.952 . S
H98 C80 0.952 1_556 S
H99 C88 0.948 . S
O100 Zn85 2.034 . S
O100 C95 1.246 . S
O101 Zn93 2.024 . S
O101 C95 1.249 . S
H102 C84 0.948 . S
O103 Zn93 2.039 . S
O103 C107 1.251 . S
O104 Zn85 2.025 . S
O104 C107 1.254 . S
O105 C86 1.246 . S
O105 Zn93 2.034 1_556 S
O106 Zn85 2.024 1_556 S
O106 C86 1.249 . S
C107 O103 1.251 . S
C107 O104 1.254 . S
H108 C81 0.949 1_556 S
H109 C83 0.950 . S
H110 C90 0.949 . S
H111 C92 0.950 . S
H112 C113 0.951 . S
C113 H112 0.951 . S
C113 C119 1.265 . S
H114 C119 0.950 . S
H115 C123 0.949 . S
H116 C124 0.950 . S
H117 C125 0.951 . S
H118 C126 0.951 . S
C119 C113 1.265 . S
C119 H114 0.950 . S
C119 C120 1.478 . S
C120 C119 1.478 . S
C120 C121 1.397 . S
C120 C137 1.394 . S
C121 C120 1.397 . S
C121 C122 1.438 . S
C121 C126 1.429 . S
C122 C121 1.438 . S
C122 C123 1.428 . S
C122 C135 1.394 . S
C123 H115 0.949 . S
C123 C122 1.428 . S
C123 C124 1.345 . S
C124 H116 0.950 . S
C124 C123 1.345 . S
C124 C125 1.424 . S
C125 H117 0.951 . S
C125 C124 1.424 . S
C125 C126 1.347 . S
C126 H118 0.951 . S
C126 C121 1.429 . S
C126 C125 1.347 . S
H127 C128 0.951 . S
C128 H127 0.951 . S
C128 C134 1.265 . S
H129 C134 0.950 . S
H130 C138 0.949 . S
H131 C139 0.950 . S
H132 C140 0.951 . S
H133 C141 0.951 . S
C134 C128 1.265 . S
C134 H129 0.950 . S
C134 C135 1.478 . S
C135 C122 1.394 . S
C135 C134 1.478 . S
C135 C136 1.397 . S
C136 C135 1.397 . S
C136 C137 1.438 . S
C136 C141 1.429 . S
C137 C120 1.394 . S
C137 C136 1.438 . S
C137 C138 1.428 . S
C138 H130 0.949 . S
C138 C137 1.428 . S
C138 C139 1.345 . S
C139 H131 0.950 . S
C139 C138 1.345 . S
C139 C140 1.424 . S
C140 H132 0.951 . S
C140 C139 1.424 . S
C140 C141 1.347 . S
C141 H133 0.951 . S
C141 C136 1.429 . S
C141 C140 1.347 . S
H142 C143 0.951 1_556 S
C143 H142 0.951 1_554 S
C143 C149 1.265 . S
H144 C149 0.950 . S
H145 C153 0.949 . S
H146 C154 0.950 . S
H147 C155 0.951 . S
H148 C156 0.951 . S
C149 C143 1.265 . S
C149 H144 0.950 . S
C149 C150 1.478 . S
C150 C149 1.478 . S
C150 C151 1.397 . S
C150 C167 1.394 1_554 S
C151 C150 1.397 . S
C151 C152 1.438 . S
C151 C156 1.429 . S
C152 C151 1.438 . S
C152 C153 1.428 . S
C152 C165 1.394 . S
C153 H145 0.949 . S
C153 C152 1.428 . S
C153 C154 1.345 . S
C154 H146 0.950 . S
C154 C153 1.345 . S
C154 C155 1.424 . S
C155 H147 0.951 . S
C155 C154 1.424 . S
C155 C156 1.347 . S
C156 H148 0.951 . S
C156 C151 1.429 . S
C156 C155 1.347 . S
H157 C158 0.951 . S
C158 H157 0.951 . S
C158 C164 1.265 1_554 S
H159 C164 0.950 . S
H160 C168 0.949 . S
H161 C169 0.950 . S
H162 C170 0.951 . S
H163 C171 0.951 . S
C164 C158 1.265 1_556 S
C164 H159 0.950 . S
C164 C165 1.478 1_556 S
C165 C152 1.394 . S
C165 C164 1.478 1_554 S
C165 C166 1.397 1_554 S
C166 C165 1.397 1_556 S
C166 C167 1.438 . S
C166 C171 1.429 . S
C167 C150 1.394 1_556 S
C167 C166 1.438 . S
C167 C168 1.428 . S
C168 H160 0.949 . S
C168 C167 1.428 . S
C168 C169 1.345 . S
C169 H161 0.950 . S
C169 C168 1.345 . S
C169 C170 1.424 . S
C170 H162 0.951 . S
C170 C169 1.424 . S
C170 C171 1.347 . S
C171 H163 0.951 . S
C171 C166 1.429 . S
C171 C170 1.347 . S
H172 C173 0.951 . S
C173 H172 0.951 . S
C173 C179 1.265 . S
H174 C179 0.950 . S
H175 C183 0.949 . S
H176 C184 0.950 . S
H177 C185 0.951 . S
H178 C186 0.951 . S
C179 C173 1.265 . S
C179 H174 0.950 . S
C179 C180 1.478 . S
C180 C179 1.478 . S
C180 C181 1.397 . S
C180 C197 1.394 . S
C181 C180 1.397 . S
C181 C182 1.438 . S
C181 C186 1.429 . S
C182 C181 1.438 . S
C182 C183 1.428 . S
C182 C195 1.394 . S
C183 H175 0.949 . S
C183 C182 1.428 . S
C183 C184 1.345 . S
C184 H176 0.950 . S
C184 C183 1.345 . S
C184 C185 1.424 . S
C185 H177 0.951 . S
C185 C184 1.424 . S
C185 C186 1.347 . S
C186 H178 0.951 . S
C186 C181 1.429 . S
C186 C185 1.347 . S
H187 C188 0.951 . S
C188 H187 0.951 . S
C188 C194 1.265 . S
H189 C194 0.950 . S
H190 C198 0.949 . S
H191 C199 0.950 . S
H192 C200 0.951 . S
H193 C201 0.951 . S
C194 C188 1.265 . S
C194 H189 0.950 . S
C194 C195 1.478 . S
C195 C182 1.394 . S
C195 C194 1.478 . S
C195 C196 1.397 . S
C196 C195 1.397 . S
C196 C197 1.438 . S
C196 C201 1.429 . S
C197 C180 1.394 . S
C197 C196 1.438 . S
C197 C198 1.428 . S
C198 H190 0.949 . S
C198 C197 1.428 . S
C198 C199 1.345 . S
C199 H191 0.950 . S
C199 C198 1.345 . S
C199 C200 1.424 . S
C200 H192 0.951 . S
C200 C199 1.424 . S
C200 C201 1.347 . S
C201 H193 0.951 . S
C201 C196 1.429 . S
C201 C200 1.347 . S
H202 C203 0.951 . S
C203 H202 0.951 . S
C203 C209 1.265 . S
H204 C209 0.950 . S
H205 C213 0.949 . S
H206 C214 0.950 . S
H207 C215 0.951 . S
H208 C216 0.951 . S
C209 C203 1.265 . S
C209 H204 0.950 . S
C209 C210 1.478 . S
C210 C209 1.478 . S
C210 C211 1.397 1_554 S
C210 C227 1.394 . S
C211 C210 1.397 1_556 S
C211 C212 1.438 . S
C211 C216 1.429 . S
C212 C211 1.438 . S
C212 C213 1.428 . S
C212 C225 1.394 1_556 S
C213 H205 0.949 . S
C213 C212 1.428 . S
C213 C214 1.345 . S
C214 H206 0.950 . S
C214 C213 1.345 . S
C214 C215 1.424 . S
C215 H207 0.951 . S
C215 C214 1.424 . S
C215 C216 1.347 . S
C216 H208 0.951 . S
C216 C211 1.429 . S
C216 C215 1.347 . S
H217 C218 0.951 . S
C218 H217 0.951 . S
C218 C224 1.265 . S
H219 C224 0.950 . S
H220 C228 0.949 . S
H221 C229 0.950 . S
H222 C230 0.951 . S
H223 C231 0.951 . S
C224 C218 1.265 . S
C224 H219 0.950 . S
C224 C225 1.478 . S
C225 C212 1.394 1_554 S
C225 C224 1.478 . S
C225 C226 1.397 . S
C226 C225 1.397 . S
C226 C227 1.438 . S
C226 C231 1.429 . S
C227 C210 1.394 . S
C227 C226 1.438 . S
C227 C228 1.428 . S
C228 H220 0.949 . S
C228 C227 1.428 . S
C228 C229 1.345 . S
C229 H221 0.950 . S
C229 C228 1.345 . S
C229 C230 1.424 . S
C230 H222 0.951 . S
C230 C229 1.424 . S
C230 C231 1.347 . S
C231 H223 0.951 . S
C231 C226 1.429 . S
C231 C230 1.347 . S
H232 C233 0.951 . S
C233 H232 0.951 . S
C233 C239 1.265 . S
H234 C239 0.950 . S
H235 C243 0.949 . S
H236 C244 0.950 . S
H237 C245 0.951 . S
H238 C246 0.951 . S
C239 C233 1.265 . S
C239 H234 0.950 . S
C239 C240 1.478 . S
C240 C239 1.478 . S
C240 C241 1.397 . S
C240 C257 1.394 . S
C241 C240 1.397 . S
C241 C242 1.438 . S
C241 C246 1.429 . S
C242 C241 1.438 . S
C242 C243 1.428 . S
C242 C255 1.394 . S
C243 H235 0.949 . S
C243 C242 1.428 . S
C243 C244 1.345 . S
C244 H236 0.950 . S
C244 C243 1.345 . S
C244 C245 1.424 . S
C245 H237 0.951 . S
C245 C244 1.424 . S
C245 C246 1.347 . S
C246 H238 0.951 . S
C246 C241 1.429 . S
C246 C245 1.347 . S
H247 C248 0.951 . S
C248 H247 0.951 . S
C248 C254 1.265 . S
H249 C254 0.950 . S
H250 C258 0.949 . S
H251 C259 0.950 . S
H252 C260 0.951 1_545 S
H253 C261 0.951 . S
C254 C248 1.265 . S
C254 H249 0.950 . S
C254 C255 1.478 . S
C255 C242 1.394 . S
C255 C254 1.478 . S
C255 C256 1.397 . S
C256 C255 1.397 . S
C256 C257 1.438 . S
C256 C261 1.429 . S
C257 C240 1.394 . S
C257 C256 1.438 . S
C257 C258 1.428 . S
C258 H250 0.949 . S
C258 C257 1.428 . S
C258 C259 1.345 . S
C259 H251 0.950 . S
C259 C258 1.345 . S
C259 C260 1.424 . S
C260 H252 0.951 1_565 S
C260 C259 1.424 . S
C260 C261 1.347 . S
C261 H253 0.951 . S
C261 C256 1.429 . S
C261 C260 1.347 . S
H262 C263 0.951 . S
C263 H262 0.951 . S
C263 C269 1.265 . S
H264 C269 0.950 . S
H265 C273 0.949 . S
H266 C274 0.950 . S
H267 C275 0.951 . S
H268 C276 0.951 . S
C269 C263 1.265 . S
C269 H264 0.950 . S
C269 C270 1.478 . S
C270 C269 1.478 . S
C270 C271 1.397 . S
C270 C287 1.394 . S
C271 C270 1.397 . S
C271 C272 1.438 . S
C271 C276 1.429 . S
C272 C271 1.438 . S
C272 C273 1.428 . S
C272 C285 1.394 . S
C273 H265 0.949 . S
C273 C272 1.428 . S
C273 C274 1.345 . S
C274 H266 0.950 . S
C274 C273 1.345 . S
C274 C275 1.424 . S
C275 H267 0.951 . S
C275 C274 1.424 . S
C275 C276 1.347 . S
C276 H268 0.951 . S
C276 C271 1.429 . S
C276 C275 1.347 . S
H277 C278 0.951 . S
C278 H277 0.951 . S
C278 C284 1.265 . S
H279 C284 0.950 . S
H280 C288 0.949 . S
H281 C289 0.950 . S
H282 C290 0.951 . S
H283 C291 0.951 . S
C284 C278 1.265 . S
C284 H279 0.950 . S
C284 C285 1.478 . S
C285 C272 1.394 . S
C285 C284 1.478 . S
C285 C286 1.397 . S
C286 C285 1.397 . S
C286 C287 1.438 . S
C286 C291 1.429 . S
C287 C270 1.394 . S
C287 C286 1.438 . S
C287 C288 1.428 . S
C288 H280 0.949 . S
C288 C287 1.428 . S
C288 C289 1.345 . S
C289 H281 0.950 . S
C289 C288 1.345 . S
C289 C290 1.424 . S
C290 H282 0.951 . S
C290 C289 1.424 . S
C290 C291 1.347 . S
C291 H283 0.951 . S
C291 C286 1.429 . S
C291 C290 1.347 . S
H292 C293 0.951 . S
C293 H292 0.951 . S
C293 C299 1.265 . S
H294 C299 0.950 . S
H295 C303 0.949 . S
H296 C304 0.938 1_565 S
H297 C305 0.951 . S
H298 C306 0.951 . S
C299 C293 1.265 . S
C299 H294 0.950 . S
C299 C300 1.478 . S
C300 C299 1.478 . S
C300 C301 1.397 . S
C300 C317 1.394 . S
C301 C300 1.397 . S
C301 C302 1.438 . S
C301 C306 1.429 . S
C302 C301 1.438 . S
C302 C303 1.428 . S
C302 C315 1.394 . S
C303 H295 0.949 . S
C303 C302 1.428 . S
C303 C304 1.345 . S
C304 H296 0.938 1_545 S
C304 C303 1.345 . S
C304 C305 1.424 . S
C305 H297 0.951 . S
C305 C304 1.424 . S
C305 C306 1.347 . S
C306 H298 0.951 . S
C306 C301 1.429 . S
C306 C305 1.347 . S
H307 C308 0.951 . S
C308 H307 0.951 . S
C308 C314 1.265 . S
H309 C314 0.950 . S
H310 C318 0.949 . S
H311 C319 0.950 . S
H312 C320 0.951 . S
H313 C321 0.951 . S
C314 C308 1.265 . S
C314 H309 0.950 . S
C314 C315 1.478 . S
C315 C302 1.394 . S
C315 C314 1.478 . S
C315 C316 1.397 . S
C316 C315 1.397 . S
C316 C317 1.438 . S
C316 C321 1.429 . S
C317 C300 1.394 . S
C317 C316 1.438 . S
C317 C318 1.428 . S
C318 H310 0.949 . S
C318 C317 1.428 . S
C318 C319 1.345 . S
C319 H311 0.950 . S
C319 C318 1.345 . S
C319 C320 1.424 . S
C320 H312 0.951 . S
C320 C319 1.424 . S
C320 C321 1.347 . S
C321 H313 0.951 . S
C321 C316 1.429 . S
C321 C320 1.347 . S
H322 C323 0.951 . S
C323 H322 0.951 . S
C323 C329 1.265 . S
H324 C329 0.950 . S
H325 C333 0.949 . S
H326 C334 0.950 . S
H327 C335 0.951 . S
H328 C336 0.951 . S
C329 C323 1.265 . S
C329 H324 0.950 . S
C329 C330 1.478 . S
C330 C329 1.478 . S
C330 C331 1.397 . S
C330 C347 1.394 . S
C331 C330 1.397 . S
C331 C332 1.438 . S
C331 C336 1.429 . S
C332 C331 1.438 . S
C332 C333 1.428 . S
C332 C345 1.394 . S
C333 H325 0.949 . S
C333 C332 1.428 . S
C333 C334 1.345 . S
C334 H326 0.950 . S
C334 C333 1.345 . S
C334 C335 1.424 . S
C335 H327 0.951 . S
C335 C334 1.424 . S
C335 C336 1.347 . S
C336 H328 0.951 . S
C336 C331 1.429 . S
C336 C335 1.347 . S
H337 C338 0.951 . S
C338 H337 0.951 . S
C338 C344 1.265 . S
H339 C344 0.950 . S
H340 C348 0.949 . S
H341 C349 0.950 . S
H342 C350 0.951 . S
H343 C351 0.951 . S
C344 C338 1.265 . S
C344 H339 0.950 . S
C344 C345 1.478 . S
C345 C332 1.394 . S
C345 C344 1.478 . S
C345 C346 1.397 . S
C346 C345 1.397 . S
C346 C347 1.438 . S
C346 C351 1.429 . S
C347 C330 1.394 . S
C347 C346 1.438 . S
C347 C348 1.428 . S
C348 H340 0.949 . S
C348 C347 1.428 . S
C348 C349 1.345 . S
C349 H341 0.950 . S
C349 C348 1.345 . S
C349 C350 1.424 . S
C350 H342 0.951 . S
C350 C349 1.424 . S
C350 C351 1.347 . S
C351 H343 0.951 . S
C351 C346 1.429 . S
C351 C350 1.347 . S
H352 C353 0.951 . S
C353 H352 0.951 . S
C353 C359 1.265 . S
H354 C359 0.950 . S
H355 C363 0.949 . S
H356 C364 0.950 . S
H357 C365 0.951 . S
H358 C366 0.951 . S
C359 C353 1.265 . S
C359 H354 0.950 . S
C359 C360 1.478 . S
C360 C359 1.478 . S
C360 C361 1.397 . S
C360 C377 1.394 . S
C361 C360 1.397 . S
C361 C362 1.438 . S
C361 C366 1.429 . S
C362 C361 1.438 . S
C362 C363 1.428 . S
C362 C375 1.394 . S
C363 H355 0.949 . S
C363 C362 1.428 . S
C363 C364 1.345 . S
C364 H356 0.950 . S
C364 C363 1.345 . S
C364 C365 1.424 . S
C365 H357 0.951 . S
C365 C364 1.424 . S
C365 C366 1.347 . S
C366 H358 0.951 . S
C366 C361 1.429 . S
C366 C365 1.347 . S
H367 C368 0.951 . S
C368 H367 0.951 . S
C368 C374 1.265 . S
H369 C374 0.950 . S
H370 C378 0.949 . S
H371 C379 0.950 . S
H372 C380 0.951 . S
H373 C381 0.951 . S
C374 C368 1.265 . S
C374 H369 0.950 . S
C374 C375 1.478 . S
C375 C362 1.394 . S
C375 C374 1.478 . S
C375 C376 1.397 . S
C376 C375 1.397 . S
C376 C377 1.438 . S
C376 C381 1.429 . S
C377 C360 1.394 . S
C377 C376 1.438 . S
C377 C378 1.428 . S
C378 H370 0.949 . S
C378 C377 1.428 . S
C378 C379 1.345 . S
C379 H371 0.950 . S
C379 C378 1.345 . S
C379 C380 1.424 . S
C380 H372 0.951 . S
C380 C379 1.424 . S
C380 C381 1.347 . S
C381 H373 0.951 . S
C381 C376 1.429 . S
C381 C380 1.347 . S
H382 C383 0.951 . S
C383 H382 0.951 . S
C383 C389 1.265 . S
H384 C389 0.950 . S
H385 C393 0.949 . S
H386 C394 0.950 . S
H387 C395 0.951 . S
H388 C396 0.951 . S
C389 C383 1.265 . S
C389 H384 0.950 . S
C389 C390 1.478 . S
C390 C389 1.478 . S
C390 C391 1.397 . S
C390 C407 1.394 . S
C391 C390 1.397 . S
C391 C392 1.438 . S
C391 C396 1.429 . S
C392 C391 1.438 . S
C392 C393 1.428 . S
C392 C405 1.394 . S
C393 H385 0.949 . S
C393 C392 1.428 . S
C393 C394 1.345 . S
C394 H386 0.950 . S
C394 C393 1.345 . S
C394 C395 1.424 . S
C395 H387 0.951 . S
C395 C394 1.424 . S
C395 C396 1.347 . S
C396 H388 0.951 . S
C396 C391 1.429 . S
C396 C395 1.347 . S
H397 C398 0.951 . S
C398 H397 0.951 . S
C398 C404 1.265 . S
H399 C404 0.950 . S
H400 C408 0.949 . S
H401 C409 0.950 . S
H402 C410 0.940 1_455 S
H403 C411 0.951 . S
C404 C398 1.265 . S
C404 H399 0.950 . S
C404 C405 1.478 . S
C405 C392 1.394 . S
C405 C404 1.478 . S
C405 C406 1.397 . S
C406 C405 1.397 . S
C406 C407 1.438 . S
C406 C411 1.429 . S
C407 C390 1.394 . S
C407 C406 1.438 . S
C407 C408 1.428 . S
C408 H400 0.949 . S
C408 C407 1.428 . S
C408 C409 1.345 . S
C409 H401 0.950 . S
C409 C408 1.345 . S
C409 C410 1.424 . S
C410 H402 0.940 1_655 S
C410 C409 1.424 . S
C410 C411 1.347 . S
C411 H403 0.951 . S
C411 C406 1.429 . S
C411 C410 1.347 . S
H412 C413 0.951 . S
C413 H412 0.951 . S
C413 C419 1.265 . S
H414 C419 0.950 . S
H415 C423 0.949 . S
H416 C424 0.950 . S
H417 C425 0.951 . S
H418 C426 0.951 . S
C419 C413 1.265 . S
C419 H414 0.950 . S
C419 C420 1.478 . S
C420 C419 1.478 . S
C420 C421 1.397 . S
C420 C437 1.394 . S
C421 C420 1.397 . S
C421 C422 1.438 . S
C421 C426 1.429 . S
C422 C421 1.438 . S
C422 C423 1.428 . S
C422 C435 1.394 . S
C423 H415 0.949 . S
C423 C422 1.428 . S
C423 C424 1.345 . S
C424 H416 0.950 . S
C424 C423 1.345 . S
C424 C425 1.424 . S
C425 H417 0.951 . S
C425 C424 1.424 . S
C425 C426 1.347 . S
C426 H418 0.951 . S
C426 C421 1.429 . S
C426 C425 1.347 . S
H427 C428 0.951 . S
C428 H427 0.951 . S
C428 C434 1.265 . S
H429 C434 0.950 . S
H430 C438 0.949 . S
H431 C439 0.950 . S
H432 C440 0.951 . S
H433 C441 0.951 . S
C434 C428 1.265 . S
C434 H429 0.950 . S
C434 C435 1.478 . S
C435 C422 1.394 . S
C435 C434 1.478 . S
C435 C436 1.397 . S
C436 C435 1.397 . S
C436 C437 1.438 . S
C436 C441 1.429 . S
C437 C420 1.394 . S
C437 C436 1.438 . S
C437 C438 1.428 . S
C438 H430 0.949 . S
C438 C437 1.428 . S
C438 C439 1.345 . S
C439 H431 0.950 . S
C439 C438 1.345 . S
C439 C440 1.424 . S
C440 H432 0.951 . S
C440 C439 1.424 . S
C440 C441 1.347 . S
C441 H433 0.951 . S
C441 C436 1.429 . S
C441 C440 1.347 . S
H442 C443 0.951 . S
C443 H442 0.951 . S
C443 C449 1.265 . S
H444 C449 0.950 . S
H445 C453 0.949 . S
H446 C454 0.950 . S
H447 C455 0.951 . S
H448 C456 0.951 . S
C449 C443 1.265 . S
C449 H444 0.950 . S
C449 C450 1.478 . S
C450 C449 1.478 . S
C450 C451 1.397 . S
C450 C467 1.394 . S
C451 C450 1.397 . S
C451 C452 1.438 . S
C451 C456 1.429 . S
C452 C451 1.438 . S
C452 C453 1.428 . S
C452 C465 1.394 . S
C453 H445 0.949 . S
C453 C452 1.428 . S
C453 C454 1.345 . S
C454 H446 0.950 . S
C454 C453 1.345 . S
C454 C455 1.424 . S
C455 H447 0.951 . S
C455 C454 1.424 . S
C455 C456 1.347 . S
C456 H448 0.951 . S
C456 C451 1.429 . S
C456 C455 1.347 . S
H457 C458 0.951 . S
C458 H457 0.951 . S
C458 C464 1.265 . S
H459 C464 0.950 . S
H460 C468 0.949 . S
H461 C469 0.950 . S
H462 C470 0.951 1_545 S
H463 C471 0.951 . S
C464 C458 1.265 . S
C464 H459 0.950 . S
C464 C465 1.478 . S
C465 C452 1.394 . S
C465 C464 1.478 . S
C465 C466 1.397 . S
C466 C465 1.397 . S
C466 C467 1.438 . S
C466 C471 1.429 . S
C467 C450 1.394 . S
C467 C466 1.438 . S
C467 C468 1.428 . S
C468 H460 0.949 . S
C468 C467 1.428 . S
C468 C469 1.345 . S
C469 H461 0.950 . S
C469 C468 1.345 . S
C469 C470 1.424 . S
C470 H462 0.951 1_565 S
C470 C469 1.424 . S
C470 C471 1.347 . S
C471 H463 0.951 . S
C471 C466 1.429 . S
C471 C470 1.347 . S
C128 C48 1.520 . S
C113 C41 1.468 . S
C143 C8 1.496 . S
C158 C91 1.504 . S
C173 C19 1.475 . S
C188 C57 1.529 . S
C203 C30 1.515 . S
C218 C82 1.497 . S
C248 C44 1.563 . S
C233 C5 1.264 . S
C278 C86 1.633 . S
C263 C18 1.631 . S
C293 C29 1.550 . S
C308 C52 1.565 . S
C323 C40 1.625 . S
C338 C78 1.645 . S
C368 C107 1.393 . S
C353 C16 1.214 . S
C398 C73 1.406 . S
C383 C27 1.157 . S
C428 C95 1.375 . S
C413 C38 1.231 . S
C443 C7 1.396 . S
C458 C61 1.385 . S
