# Generated by pormake.
# Topology ocu, (6,8)-cn, num edge types: 1
# Building blocks:
#     Node 0, Type 0, BuildingBlock: HISSIN_clean_sbu_0, # of connection points: 6
#     Node 1, Type 0, BuildingBlock: HISSIN_clean_sbu_0, # of connection points: 6
#     Node 2, Type 0, BuildingBlock: HISSIN_clean_sbu_0, # of connection points: 6
#     Node 3, Type 0, BuildingBlock: HISSIN_clean_sbu_0, # of connection points: 6
#     Node 4, Type 0, BuildingBlock: HISSIN_clean_sbu_0, # of connection points: 6
#     Node 5, Type 0, BuildingBlock: HISSIN_clean_sbu_0, # of connection points: 6
#     Node 6, Type 0, BuildingBlock: HISSIN_clean_sbu_0, # of connection points: 6
#     Node 7, Type 0, BuildingBlock: HISSIN_clean_sbu_0, # of connection points: 6
#     Node 8, Type 1, BuildingBlock: VETTIZ_charged_sbu_0, # of connection points: 8
#     Node 9, Type 1, BuildingBlock: VETTIZ_charged_sbu_0, # of connection points: 8
#     Node 10, Type 1, BuildingBlock: VETTIZ_charged_sbu_0, # of connection points: 8
#     Node 11, Type 1, BuildingBlock: VETTIZ_charged_sbu_0, # of connection points: 8
#     Node 12, Type 1, BuildingBlock: VETTIZ_charged_sbu_0, # of connection points: 8
#     Node 13, Type 1, BuildingBlock: VETTIZ_charged_sbu_0, # of connection points: 8
#     Edge 14, Type (0, 1), BuildingBlock: XIVTED_clean_linker_0, # of connection points: 2
#     Edge 15, Type (0, 1), BuildingBlock: XIVTED_clean_linker_0, # of connection points: 2
#     Edge 16, Type (0, 1), BuildingBlock: XIVTED_clean_linker_0, # of connection points: 2
#     Edge 17, Type (0, 1), BuildingBlock: XIVTED_clean_linker_0, # of connection points: 2
#     Edge 18, Type (0, 1), BuildingBlock: XIVTED_clean_linker_0, # of connection points: 2
#     Edge 19, Type (0, 1), BuildingBlock: XIVTED_clean_linker_0, # of connection points: 2
#     Edge 20, Type (0, 1), BuildingBlock: XIVTED_clean_linker_0, # of connection points: 2
#     Edge 21, Type (0, 1), BuildingBlock: XIVTED_clean_linker_0, # of connection points: 2
#     Edge 22, Type (0, 1), BuildingBlock: XIVTED_clean_linker_0, # of connection points: 2
#     Edge 23, Type (0, 1), BuildingBlock: XIVTED_clean_linker_0, # of connection points: 2
#     Edge 24, Type (0, 1), BuildingBlock: XIVTED_clean_linker_0, # of connection points: 2
#     Edge 25, Type (0, 1), BuildingBlock: XIVTED_clean_linker_0, # of connection points: 2
#     Edge 26, Type (0, 1), BuildingBlock: XIVTED_clean_linker_0, # of connection points: 2
#     Edge 27, Type (0, 1), BuildingBlock: XIVTED_clean_linker_0, # of connection points: 2
#     Edge 28, Type (0, 1), BuildingBlock: XIVTED_clean_linker_0, # of connection points: 2
#     Edge 29, Type (0, 1), BuildingBlock: XIVTED_clean_linker_0, # of connection points: 2
#     Edge 30, Type (0, 1), BuildingBlock: XIVTED_clean_linker_0, # of connection points: 2
#     Edge 31, Type (0, 1), BuildingBlock: XIVTED_clean_linker_0, # of connection points: 2
#     Edge 32, Type (0, 1), BuildingBlock: XIVTED_clean_linker_0, # of connection points: 2
#     Edge 33, Type (0, 1), BuildingBlock: XIVTED_clean_linker_0, # of connection points: 2
#     Edge 34, Type (0, 1), BuildingBlock: XIVTED_clean_linker_0, # of connection points: 2
#     Edge 35, Type (0, 1), BuildingBlock: XIVTED_clean_linker_0, # of connection points: 2
#     Edge 36, Type (0, 1), BuildingBlock: XIVTED_clean_linker_0, # of connection points: 2
#     Edge 37, Type (0, 1), BuildingBlock: XIVTED_clean_linker_0, # of connection points: 2
#     Edge 38, Type (0, 1), BuildingBlock: XIVTED_clean_linker_0, # of connection points: 2
#     Edge 39, Type (0, 1), BuildingBlock: XIVTED_clean_linker_0, # of connection points: 2
#     Edge 40, Type (0, 1), BuildingBlock: XIVTED_clean_linker_0, # of connection points: 2
#     Edge 41, Type (0, 1), BuildingBlock: XIVTED_clean_linker_0, # of connection points: 2
#     Edge 42, Type (0, 1), BuildingBlock: XIVTED_clean_linker_0, # of connection points: 2
#     Edge 43, Type (0, 1), BuildingBlock: XIVTED_clean_linker_0, # of connection points: 2
#     Edge 44, Type (0, 1), BuildingBlock: XIVTED_clean_linker_0, # of connection points: 2
#     Edge 45, Type (0, 1), BuildingBlock: XIVTED_clean_linker_0, # of connection points: 2
#     Edge 46, Type (0, 1), BuildingBlock: XIVTED_clean_linker_0, # of connection points: 2
#     Edge 47, Type (0, 1), BuildingBlock: XIVTED_clean_linker_0, # of connection points: 2
#     Edge 48, Type (0, 1), BuildingBlock: XIVTED_clean_linker_0, # of connection points: 2
#     Edge 49, Type (0, 1), BuildingBlock: XIVTED_clean_linker_0, # of connection points: 2
#     Edge 50, Type (0, 1), BuildingBlock: XIVTED_clean_linker_0, # of connection points: 2
#     Edge 51, Type (0, 1), BuildingBlock: XIVTED_clean_linker_0, # of connection points: 2
#     Edge 52, Type (0, 1), BuildingBlock: XIVTED_clean_linker_0, # of connection points: 2
#     Edge 53, Type (0, 1), BuildingBlock: XIVTED_clean_linker_0, # of connection points: 2
#     Edge 54, Type (0, 1), BuildingBlock: XIVTED_clean_linker_0, # of connection points: 2
#     Edge 55, Type (0, 1), BuildingBlock: XIVTED_clean_linker_0, # of connection points: 2
#     Edge 56, Type (0, 1), BuildingBlock: XIVTED_clean_linker_0, # of connection points: 2
#     Edge 57, Type (0, 1), BuildingBlock: XIVTED_clean_linker_0, # of connection points: 2
#     Edge 58, Type (0, 1), BuildingBlock: XIVTED_clean_linker_0, # of connection points: 2
#     Edge 59, Type (0, 1), BuildingBlock: XIVTED_clean_linker_0, # of connection points: 2
#     Edge 60, Type (0, 1), BuildingBlock: XIVTED_clean_linker_0, # of connection points: 2
#     Edge 61, Type (0, 1), BuildingBlock: XIVTED_clean_linker_0, # of connection points: 2
# Relax obj value: 0.110
# Max RMSD: 0.183
# Mean RMSD: 0.130
data_MOF--net-ocu--node1-HISSIN_clean_sbu_0--node2-VETTIZ_charged_sbu_0--edge1-XIVTED_clean_linker_0
_symmetry_space_group_name_H-M    P1
_symmetry_Int_Tables_number       1
_symmetry_cell_setting            triclinic
loop_
_symmetry_equiv_pos_as_xyz
'x, y, z'
_cell_length_a     41.147471
_cell_length_b     42.017781
_cell_length_c     41.265069
_cell_angle_alpha  100.9554
_cell_angle_beta   80.522029
_cell_angle_gamma 104.07846
loop_
_atom_site_label
_atom_site_type_symbol
_atom_site_fract_x
_atom_site_fract_y
_atom_site_fract_z
_atom_type_partial_charge
Eu0 Eu 0.30017 0.26253 0.29298 0.0
Eu1 Eu 0.24861 0.25092 0.23526 0.0
C2 C 0.23722 0.19997 0.28925 0.0
C3 C 0.35124 0.2414 0.35153 0.0
C4 C 0.34852 0.20902 0.33382 0.0
C5 C 0.37913 0.22638 0.39227 0.0
C6 C 0.36115 0.18555 0.34515 0.0
C7 C 0.36656 0.24986 0.38085 0.0
C8 C 0.37668 0.19388 0.37455 0.0
C9 C 0.33737 0.26604 0.34 0.0
O10 O 0.23435 0.29414 0.27309 0.0
O11 O 0.2566 0.28832 0.31848 0.0
C12 C 0.23594 0.3007 0.30541 0.0
O13 O 0.32343 0.30638 0.26525 0.0
O14 O 0.19722 0.24311 0.22281 0.0
O15 O 0.23912 0.24735 0.18376 0.0
O16 O 0.28893 0.29554 0.22383 0.0
C17 C 0.31528 0.31322 0.23811 0.0
O18 O 0.32383 0.22917 0.24976 0.0
O19 O 0.28592 0.217 0.21127 0.0
O20 O 0.2231 0.21415 0.27105 0.0
O21 O 0.34971 0.27325 0.31043 0.0
O22 O 0.30461 0.26187 0.34491 0.0
O23 O 0.26921 0.21046 0.29321 0.0
C24 C 0.19319 0.27089 0.17831 0.0
C25 C 0.20477 0.27776 0.14581 0.0
C26 C 0.15505 0.30877 0.18389 0.0
C27 C 0.19195 0.29997 0.13264 0.0
C28 C 0.16801 0.28664 0.19714 0.0
C29 C 0.16691 0.31591 0.15146 0.0
C30 C 0.20704 0.24698 0.19183 0.0
C31 C 0.31421 0.21378 0.22071 0.0
H32 H 0.33649 0.20186 0.31127 0.0
H33 H 0.39125 0.23387 0.41474 0.0
H34 H 0.35835 0.16073 0.33106 0.0
H35 H 0.36881 0.27467 0.39494 0.0
H36 H 0.22381 0.26584 0.13043 0.0
H37 H 0.13606 0.32069 0.19933 0.0
H38 H 0.20141 0.30428 0.1074 0.0
H39 H 0.15829 0.28197 0.22223 0.0
Eu40 Eu 0.79499 0.22441 0.2586 0.0
Eu41 Eu 0.74681 0.27856 0.26546 0.0
C42 C 0.80848 0.29321 0.30967 0.0
C43 C 0.83717 0.16494 0.28585 0.0
C44 C 0.82384 0.17391 0.31899 0.0
C45 C 0.8625 0.12553 0.3037 0.0
C46 C 0.82989 0.15892 0.34432 0.0
C47 C 0.85639 0.14054 0.27837 0.0
C48 C 0.84949 0.13463 0.3371 0.0
C49 C 0.83093 0.18089 0.25918 0.0
O50 O 0.7799 0.28128 0.21584 0.0
O51 O 0.82446 0.26223 0.2258 0.0
C52 C 0.81181 0.2791 0.20907 0.0
O53 O 0.76403 0.20618 0.21497 0.0
O54 O 0.74175 0.32859 0.26303 0.0
O55 O 0.69711 0.29086 0.27374 0.0
O56 O 0.71971 0.23108 0.23664 0.0
C57 C 0.73265 0.20871 0.21515 0.0
O58 O 0.749 0.20762 0.29418 0.0
O59 O 0.73018 0.25582 0.31296 0.0
O60 O 0.79159 0.30579 0.29274 0.0
O61 O 0.80013 0.17289 0.25165 0.0
O62 O 0.8434 0.21277 0.26118 0.0
O63 O 0.80668 0.26104 0.3054 0.0
C64 C 0.69185 0.33096 0.24204 0.0
C65 C 0.65854 0.31503 0.23632 0.0
C66 C 0.6926 0.36754 0.20248 0.0
C67 C 0.64253 0.32512 0.21379 0.0
C68 C 0.70853 0.35754 0.22503 0.0
C69 C 0.65944 0.3514 0.19644 0.0
C70 C 0.70883 0.32066 0.26624 0.0
C71 C 0.73067 0.22529 0.31597 0.0
H72 H 0.8088 0.19261 0.32528 0.0
H73 H 0.87807 0.10731 0.29716 0.0
H74 H 0.81905 0.16629 0.36958 0.0
H75 H 0.8669 0.13327 0.25295 0.0
H76 H 0.64478 0.29469 0.24924 0.0
H77 H 0.70616 0.38831 0.19009 0.0
H78 H 0.61707 0.31203 0.20963 0.0
H79 H 0.73396 0.37077 0.22921 0.0
Eu80 Eu 0.78145 0.78504 0.23588 0.0
Eu81 Eu 0.76868 0.73212 0.29003 0.0
C82 C 0.72025 0.71843 0.23241 0.0
C83 C 0.76313 0.84132 0.18016 0.0
C84 C 0.7726 0.85098 0.14862 0.0
C85 C 0.71088 0.86064 0.18423 0.0
C86 C 0.75168 0.86552 0.13508 0.0
C87 C 0.73189 0.84603 0.19776 0.0
C88 C 0.72058 0.87091 0.15275 0.0
C89 C 0.78635 0.82687 0.19425 0.0
O90 O 0.801 0.70969 0.24486 0.0
O91 O 0.82194 0.75356 0.21572 0.0
C92 C 0.82188 0.7231 0.22059 0.0
O93 O 0.81313 0.81107 0.27729 0.0
O94 O 0.7564 0.68215 0.3032 0.0
O95 O 0.77022 0.72474 0.34076 0.0
O96 O 0.82027 0.76501 0.29454 0.0
C97 C 0.8281 0.79719 0.29483 0.0
O98 O 0.73507 0.79583 0.27145 0.0
O99 O 0.73869 0.77184 0.31599 0.0
O100 O 0.72325 0.71317 0.26207 0.0
O101 O 0.78903 0.83583 0.22587 0.0
O102 O 0.78535 0.79528 0.18495 0.0
O103 O 0.74133 0.74175 0.21768 0.0
C104 C 0.78558 0.67518 0.34542 0.0
C105 C 0.81966 0.67818 0.33211 0.0
C106 C 0.79292 0.6391 0.38212 0.0
C107 C 0.84023 0.66171 0.34373 0.0
C108 C 0.77241 0.65554 0.37047 0.0
C109 C 0.82715 0.64191 0.36894 0.0
C110 C 0.76352 0.69241 0.33361 0.0
C111 C 0.72613 0.79211 0.30303 0.0
H112 H 0.7964 0.84742 0.13441 0.0
H113 H 0.68737 0.86451 0.1988 0.0
H114 H 0.75988 0.87234 0.11054 0.0
H115 H 0.72385 0.8387 0.22212 0.0
H116 H 0.83036 0.69334 0.31282 0.0
H117 H 0.78177 0.62377 0.40117 0.0
H118 H 0.86651 0.66488 0.33325 0.0
H119 H 0.74615 0.65284 0.38101 0.0
Eu120 Eu 0.28341 0.74425 0.26515 0.0
Eu121 Eu 0.2369 0.79473 0.2662 0.0
C122 C 0.22154 0.72434 0.22092 0.0
C123 C 0.35477 0.71199 0.22665 0.0
C124 C 0.35006 0.72771 0.20119 0.0
C125 C 0.40997 0.70711 0.19835 0.0
C126 C 0.37508 0.7334 0.17466 0.0
C127 C 0.38518 0.70248 0.22564 0.0
C128 C 0.40483 0.72202 0.17218 0.0
C129 C 0.32855 0.70905 0.25513 0.0
O130 O 0.20952 0.76527 0.30794 0.0
O131 O 0.23726 0.72203 0.29708 0.0
C132 C 0.21264 0.73602 0.31295 0.0
O133 O 0.28723 0.77819 0.31441 0.0
O134 O 0.21827 0.82225 0.23649 0.0
O135 O 0.20745 0.83152 0.29027 0.0
O136 O 0.28134 0.8227 0.29414 0.0
C137 C 0.29323 0.81047 0.31565 0.0
O138 O 0.31586 0.78661 0.24047 0.0
O139 O 0.2737 0.79719 0.21869 0.0
O140 O 0.20741 0.74592 0.24221 0.0
O141 O 0.33028 0.7361 0.27684 0.0
O142 O 0.29796 0.69668 0.24749 0.0
O143 O 0.25387 0.72519 0.22038 0.0
C144 C 0.16731 0.83761 0.25848 0.0
C145 C 0.14312 0.80781 0.25315 0.0
C146 C 0.1245 0.86875 0.26129 0.0
C147 C 0.10932 0.80855 0.25316 0.0
C148 C 0.15813 0.86792 0.26111 0.0
C149 C 0.09931 0.83912 0.25896 0.0
C150 C 0.20206 0.83769 0.26198 0.0
C151 C 0.30596 0.79885 0.21802 0.0
H152 H 0.32665 0.73518 0.20149 0.0
H153 H 0.43232 0.69742 0.19704 0.0
H154 H 0.3704 0.7453 0.15532 0.0
H155 H 0.38941 0.69088 0.24543 0.0
H156 H 0.15013 0.7841 0.25038 0.0
H157 H 0.11814 0.89288 0.26623 0.0
H158 H 0.09077 0.78529 0.25082 0.0
H159 H 0.17672 0.89109 0.26469 0.0
Eu160 Eu 0.29463 0.72645 0.75594 0.0
Eu161 Eu 0.24742 0.78102 0.76155 0.0
C162 C 0.30808 0.79647 0.80663 0.0
C163 C 0.34873 0.67324 0.77985 0.0
C164 C 0.38256 0.68775 0.78476 0.0
C165 C 0.34682 0.63675 0.81991 0.0
C166 C 0.39825 0.677 0.80713 0.0
C167 C 0.33119 0.64742 0.79755 0.0
C168 C 0.38053 0.65143 0.82512 0.0
C169 C 0.33222 0.68405 0.75557 0.0
O170 O 0.29656 0.79855 0.73017 0.0
O171 O 0.31077 0.74881 0.70829 0.0
C172 C 0.31373 0.78052 0.70749 0.0
O173 O 0.2493 0.69945 0.72923 0.0
O174 O 0.24273 0.83257 0.76698 0.0
O175 O 0.19936 0.79275 0.75776 0.0
O176 O 0.23711 0.74453 0.71436 0.0
C177 C 0.23374 0.71221 0.71113 0.0
O178 O 0.26197 0.72495 0.8056 0.0
O179 O 0.21759 0.74401 0.79523 0.0
O180 O 0.27679 0.79895 0.8062 0.0
O181 O 0.29929 0.67628 0.7583 0.0
O182 O 0.34426 0.71395 0.74838 0.0
O183 O 0.32135 0.77405 0.7854 0.0
C184 C 0.2052 0.84069 0.73322 0.0
C185 C 0.21771 0.83176 0.69979 0.0
C186 C 0.17953 0.88055 0.71658 0.0
C187 C 0.21102 0.847 0.67491 0.0
C188 C 0.18619 0.86526 0.74141 0.0
C189 C 0.19173 0.87157 0.68292 0.0
C190 C 0.21187 0.82459 0.75961 0.0
C191 C 0.23022 0.72747 0.81238 0.0
H192 H 0.39698 0.70744 0.77129 0.0
H193 H 0.33255 0.61655 0.83276 0.0
H194 H 0.42415 0.68902 0.81062 0.0
H195 H 0.30532 0.63524 0.79404 0.0
H196 H 0.23262 0.81296 0.69294 0.0
H197 H 0.16418 0.89894 0.72374 0.0
H198 H 0.2212 0.83967 0.6494 0.0
H199 H 0.17628 0.87249 0.76705 0.0
Eu200 Eu 0.26991 0.27272 0.73041 0.0
Eu201 Eu 0.25756 0.21978 0.7842 0.0
C202 C 0.21056 0.20784 0.72584 0.0
C203 C 0.25208 0.33012 0.67543 0.0
C204 C 0.23955 0.31826 0.64465 0.0
C205 C 0.22463 0.37678 0.68229 0.0
C206 C 0.2197 0.33533 0.63289 0.0
C207 C 0.24444 0.35969 0.69407 0.0
C208 C 0.21197 0.36488 0.65151 0.0
C209 C 0.27407 0.31228 0.68703 0.0
O210 O 0.30346 0.20845 0.74821 0.0
O211 O 0.3 0.23308 0.70406 0.0
C212 C 0.31249 0.21253 0.71674 0.0
O213 O 0.316 0.29113 0.75734 0.0
O214 O 0.24868 0.16865 0.7941 0.0
O215 O 0.25433 0.20943 0.83478 0.0
O216 O 0.29907 0.26202 0.80144 0.0
C217 C 0.31996 0.28526 0.78644 0.0
O218 O 0.23845 0.29572 0.7761 0.0
O219 O 0.2176 0.25173 0.80503 0.0
O220 O 0.22601 0.19385 0.74277 0.0
O221 O 0.28275 0.32254 0.71693 0.0
O222 O 0.26732 0.27993 0.67983 0.0
O223 O 0.21811 0.24007 0.72661 0.0
C224 C 0.27542 0.16232 0.8387 0.0
C225 C 0.30821 0.17967 0.84488 0.0
C226 C 0.28508 0.11484 0.8588 0.0
C227 C 0.32908 0.16484 0.85831 0.0
C228 C 0.26428 0.12969 0.84551 0.0
C229 C 0.31769 0.13227 0.86584 0.0
C230 C 0.25235 0.17765 0.8255 0.0
C231 C 0.21776 0.2823 0.80048 0.0
H232 H 0.24517 0.29573 0.62953 0.0
H233 H 0.2197 0.39969 0.69714 0.0
H234 H 0.21011 0.3251 0.60931 0.0
H235 H 0.25395 0.36984 0.71771 0.0
H236 H 0.31759 0.20483 0.83966 0.0
H237 H 0.27551 0.08954 0.86347 0.0
H238 H 0.35382 0.17925 0.86352 0.0
H239 H 0.23926 0.11565 0.84071 0.0
Eu240 Eu 0.80087 0.21948 0.75283 0.0
Eu241 Eu 0.75416 0.27214 0.75893 0.0
C242 C 0.73654 0.2005 0.71375 0.0
C243 C 0.86976 0.17528 0.76043 0.0
C244 C 0.87763 0.14455 0.75905 0.0
C245 C 0.92812 0.20266 0.76612 0.0
C246 C 0.91083 0.14262 0.75943 0.0
C247 C 0.89471 0.20451 0.76555 0.0
C248 C 0.93694 0.17153 0.76102 0.0
C249 C 0.83591 0.17597 0.75459 0.0
O250 O 0.73581 0.24773 0.80508 0.0
O251 O 0.75082 0.19904 0.78187 0.0
C252 C 0.73253 0.21584 0.80466 0.0
O253 O 0.82106 0.26166 0.79275 0.0
O254 O 0.71973 0.28798 0.7336 0.0
O255 O 0.72885 0.31175 0.78368 0.0
O256 O 0.79896 0.30386 0.78346 0.0
C257 C 0.81985 0.29329 0.79767 0.0
O258 O 0.83329 0.25729 0.72159 0.0
O259 O 0.79082 0.27996 0.71258 0.0
O260 O 0.72495 0.22222 0.73704 0.0
O261 O 0.81686 0.18777 0.78021 0.0
O262 O 0.83362 0.18636 0.72732 0.0
O263 O 0.76843 0.19892 0.71056 0.0
C264 C 0.67317 0.2947 0.77274 0.0
C265 C 0.65155 0.31673 0.77988 0.0
C266 C 0.63207 0.2554 0.80313 0.0
C267 C 0.62089 0.30874 0.79998 0.0
C268 C 0.66235 0.26317 0.78261 0.0
C269 C 0.61221 0.27903 0.81366 0.0
C270 C 0.70882 0.30587 0.76072 0.0
C271 C 0.82199 0.27579 0.70553 0.0
H272 H 0.85842 0.12181 0.75563 0.0
H273 H 0.94731 0.22547 0.76816 0.0
H274 H 0.91613 0.11807 0.75524 0.0
H275 H 0.88869 0.22855 0.76738 0.0
H276 H 0.65957 0.34111 0.77243 0.0
H277 H 0.62606 0.23258 0.81361 0.0
H278 H 0.60616 0.32761 0.80814 0.0
H279 H 0.67877 0.24579 0.77724 0.0
Eu280 Eu 0.7921 0.75558 0.78623 0.0
Eu281 Eu 0.73988 0.74429 0.72847 0.0
C282 C 0.72624 0.69237 0.78221 0.0
C283 C 0.84797 0.73582 0.8431 0.0
C284 C 0.87094 0.71813 0.82289 0.0
C285 C 0.85304 0.70944 0.88947 0.0
C286 C 0.88479 0.69644 0.83586 0.0
C287 C 0.83939 0.73124 0.87657 0.0
C288 C 0.87596 0.69163 0.86934 0.0
C289 C 0.83323 0.75941 0.83008 0.0
O290 O 0.71737 0.77862 0.77139 0.0
O291 O 0.75422 0.78881 0.81065 0.0
C292 C 0.72658 0.7931 0.8008 0.0
O293 O 0.81737 0.7932 0.75141 0.0
O294 O 0.69001 0.73443 0.71187 0.0
O295 O 0.73467 0.74458 0.67661 0.0
O296 O 0.77212 0.7957 0.72687 0.0
C297 C 0.80373 0.80675 0.7322 0.0
O298 O 0.80839 0.7144 0.74692 0.0
O299 O 0.78261 0.71759 0.70262 0.0
O300 O 0.71652 0.70068 0.75664 0.0
O301 O 0.84333 0.76446 0.79945 0.0
O302 O 0.80087 0.75763 0.83772 0.0
O303 O 0.75353 0.70913 0.79545 0.0
C304 C 0.68839 0.76593 0.67041 0.0
C305 C 0.6909 0.79826 0.68822 0.0
C306 C 0.66108 0.7812 0.62931 0.0
C307 C 0.67845 0.82181 0.67677 0.0
C308 C 0.67346 0.75764 0.64085 0.0
C309 C 0.66332 0.81364 0.64712 0.0
C310 C 0.702 0.74113 0.68206 0.0
C311 C 0.80495 0.70673 0.71496 0.0
H312 H 0.87822 0.72093 0.79697 0.0
H313 H 0.84594 0.7069 0.91546 0.0
H314 H 0.90204 0.683 0.81945 0.0
H315 H 0.82206 0.74467 0.89292 0.0
H316 H 0.70264 0.80533 0.71094 0.0
H317 H 0.64927 0.77379 0.60666 0.0
H318 H 0.6811 0.84658 0.69096 0.0
H319 H 0.67135 0.73288 0.62667 0.0
Fe320 Fe 0.02827 0.07612 0.49982 0.0
O321 O 1.01838 0.02706 0.49393 0.0
Fe322 Fe 0.05832 0.00517 0.49749 0.0
Fe323 Fe 0.98145 1.0004 0.52261 0.0
O324 O 0.0221 0.02774 0.49326 0.0
O325 O 0.02138 0.97852 0.5262 0.0
O326 O 1.01766 0.97784 0.52686 0.0
Fe327 Fe 1.01142 0.92946 0.52037 0.0
C328 C 1.00071 0.06475 0.56899 0.0
O329 O 0.98311 0.06637 0.48095 0.0
O330 O 0.94833 0.02817 0.51247 0.0
O331 O 0.03941 0.92508 0.4745 0.0
O332 O 0.04444 0.97231 0.45579 0.0
O333 O 0.09207 0.03666 0.46502 0.0
O334 O 0.05935 0.07079 0.45559 0.0
O335 O 0.96762 0.96733 0.48083 0.0
O336 O 0.96832 0.91998 0.49699 0.0
C337 C 0.08569 0.05774 0.44837 0.0
O338 O 0.0566 0.93921 0.53929 0.0
O339 O 0.09142 0.97732 0.50767 0.0
O340 O 1.00033 0.08054 0.54575 0.0
O341 O 0.99527 0.03324 0.56436 0.0
C342 C 0.95374 0.04967 0.49187 0.0
C343 C 0.95983 0.93577 0.47741 0.0
C344 C 0.95399 0.94791 0.57173 0.0
O345 O 0.94769 0.96897 0.55503 0.0
O346 O 0.98031 0.93483 0.56457 0.0
C347 C 0.03874 0.9408 0.4513 0.0
O348 O 0.07206 0.03822 0.53928 0.0
O349 O 0.07134 0.08557 0.52314 0.0
C350 C 0.08599 0.95586 0.52833 0.0
C351 C 0.07957 0.06978 0.54288 0.0
Fe352 Fe 0.52008 0.96498 1.00631 0.0
O353 O 0.5463 0.00451 0.98559 0.0
Fe354 Fe 0.44578 0.99273 0.04251 0.0
Fe355 Fe 0.59576 0.01555 0.97746 0.0
O356 O 0.49553 0.99946 0.03398 0.0
O357 O 0.49539 0.00385 0.03468 0.0
O358 O 0.54603 0.00877 0.98612 0.0
Fe359 Fe 0.5214 0.04328 0.01351 0.0
C360 C 0.58501 0.97524 0.03551 0.0
O361 O 0.55193 0.93471 0.973 0.0
O362 O 0.58871 0.97216 0.94253 0.0
O363 O 0.48815 0.03454 0.97823 0.0
O364 O 0.43967 0.02316 0.01121 0.0
O365 O 0.43798 0.95312 1.0041 0.0
O366 O 0.48664 0.95347 0.97071 0.0
O367 O 0.589 0.04855 0.94935 0.0
O368 O 0.55367 0.07898 0.9849 0.0
C369 C 0.45437 0.94525 0.97584 0.0
O370 O 0.48932 0.07341 0.047 0.0
O371 O 0.45298 0.03586 0.07778 0.0
O372 O 0.55313 0.97302 0.04168 0.0
O373 O 0.60206 0.98583 1.0095 0.0
C374 C 0.57603 0.94196 0.94841 0.0
C375 C 0.57551 0.07435 0.95832 0.0
C376 C 0.58743 0.06322 0.04364 0.0
O377 O 0.60356 0.05568 0.01517 0.0
O378 O 0.55515 0.05529 0.04893 0.0
C379 C 0.45644 0.03305 0.98481 0.0
O380 O 0.45183 0.9588 0.07007 0.0
O381 O 0.48726 0.92902 0.03378 0.0
C382 C 0.46546 0.06609 0.07183 0.0
C383 C 0.46467 0.93272 0.05982 0.0
Fe384 Fe 0.02471 0.54406 0.01612 0.0
O385 O 0.99392 0.50418 0.0334 0.0
Fe386 Fe 0.09794 0.51167 0.98592 0.0
Fe387 Fe 0.94443 0.49627 0.03588 0.0
O388 O 0.04866 0.50846 0.98963 0.0
O389 O 0.0485 0.50376 0.98872 0.0
O390 O 0.99371 0.49943 0.03239 0.0
Fe391 Fe 1.01767 0.46385 1.00584 0.0
C392 C 0.96629 0.56777 0.07094 0.0
O393 O 0.99648 0.53998 0.97756 0.0
O394 O 0.94526 0.53073 1.00587 0.0
O395 O 0.04965 0.4325 0.97343 0.0
O396 O 0.09151 0.47058 0.94818 0.0
O397 O 0.0987 0.54895 0.95924 0.0
O398 O 0.06189 0.57986 0.99156 0.0
O399 O 0.93816 0.45922 0.99498 0.0
O400 O 0.98887 0.45588 0.96695 0.0
C401 C 0.08684 0.57582 0.96791 0.0
O402 O 0.04578 0.46788 0.04434 0.0
O403 O 0.0972 0.47745 0.01633 0.0
O404 O 0.99268 0.57528 0.04843 0.0
O405 O 0.9508 0.53722 0.07378 0.0
C406 C 0.96557 0.54193 0.98181 0.0
C407 C 0.95671 0.44977 0.96871 0.0
C408 C 0.95503 0.43181 0.05363 0.0
O409 O 0.94331 0.45873 0.06235 0.0
O410 O 0.98019 0.42786 0.03015 0.0
C411 C 0.07599 0.44004 0.95088 0.0
O412 O 0.10438 0.54916 0.02628 0.0
O413 O 0.05401 0.55255 0.05497 0.0
C414 C 0.0767 0.46604 0.04022 0.0
C415 C 0.08629 0.55919 0.05262 0.0
Fe416 Fe 0.52259 0.49628 0.96987 0.0
O417 O 0.55361 0.51911 1.00402 0.0
Fe418 Fe 0.44352 0.48583 0.01556 0.0
Fe419 Fe 0.6007 0.51342 1.00077 0.0
O420 O 0.4905 0.48253 1.00917 0.0
O421 O 0.49072 0.48078 0.01256 0.0
O422 O 0.55381 0.51733 1.00738 0.0
Fe423 Fe 0.52149 0.50412 0.04682 0.0
C424 C 0.56729 0.44743 0.9635 0.0
O425 O 0.56146 0.51421 0.93261 0.0
O426 O 0.60681 0.53962 0.96154 0.0
O427 O 0.50545 0.5464 0.04871 0.0
O428 O 0.44978 0.52863 0.05009 0.0
O429 O 0.45008 0.51535 0.97937 0.0
O430 O 0.50486 0.53854 0.97112 0.0
O431 O 0.60387 0.55274 0.03967 0.0
O432 O 0.55835 0.53272 0.07709 0.0
C433 C 0.47412 0.53811 0.96934 0.0
O434 O 0.48231 0.48653 0.08414 0.0
O435 O 0.43767 0.45968 0.05465 0.0
O436 O 0.53844 0.45399 0.96723 0.0
O437 O 0.59414 0.47003 0.96645 0.0
C438 C 0.59112 0.53406 0.93544 0.0
C439 C 0.58673 0.5534 0.06925 0.0
C440 C 0.56963 0.46183 0.04752 0.0
O441 O 0.59391 0.48417 0.03715 0.0
O442 O 0.53895 0.46189 0.04617 0.0
C443 C 0.47615 0.55192 0.05188 0.0
O444 O 0.44077 0.44676 0.97659 0.0
O445 O 0.48584 0.46797 0.93941 0.0
C446 C 0.45285 0.46627 0.08118 0.0
C447 C 0.45787 0.4467 0.94705 0.0
Fe448 Fe 0.02191 0.46569 0.50578 0.0
O449 O 0.99827 0.49906 0.53643 0.0
Fe450 Fe 0.04571 0.50303 0.43443 0.0
Fe451 Fe 0.99502 0.50463 0.58545 0.0
O452 O 0.043 0.50504 0.48275 0.0
O453 O 0.04281 0.50929 0.48353 0.0
O454 O 0.99818 0.50323 0.53724 0.0
Fe455 Fe 1.01893 0.54264 0.51412 0.0
C456 C 0.96948 0.43129 0.55994 0.0
O457 O 0.06116 0.4773 0.53426 0.0
O458 O 0.0316 0.47802 0.58459 0.0
O459 O 0.04551 0.57885 0.48335 0.0
O460 O 0.07734 0.54926 0.44249 0.0
O461 O 0.07993 0.47303 0.4331 0.0
O462 O 0.05233 0.43661 0.46925 0.0
O463 O 0.03166 0.54784 0.59265 0.0
O464 O 0.05875 0.55768 0.54282 0.0
C465 C 0.07572 0.44526 0.44457 0.0
O466 O 0.97947 0.53053 0.48576 0.0
O467 O 1.00845 0.5288 0.4351 0.0
O468 O 0.9944 0.42936 0.5358 0.0
O469 O 0.96257 0.45877 0.57699 0.0
C470 C 0.05803 0.47397 0.56473 0.0
C471 C 0.05741 0.56151 0.57443 0.0
C472 C 0.96539 0.56294 0.57558 0.0
O473 O 0.96136 0.53521 0.58704 0.0
O474 O 0.98842 0.57158 0.55065 0.0
C475 C 0.06899 0.57674 0.45777 0.0
O476 O 1.00984 0.45928 0.42736 0.0
O477 O 0.98209 0.45114 0.47721 0.0
C478 C 0.98229 0.53335 0.45516 0.0
C479 C 0.98373 0.44641 0.44559 0.0
Fe480 Fe 0.5185 0.96359 0.50466 0.0
O481 O 0.49678 0.99821 0.53572 0.0
Fe482 Fe 0.54725 0.00355 0.43487 0.0
Fe483 Fe 0.49226 1.00263 0.58469 0.0
O484 O 0.54285 1.00311 0.48294 0.0
O485 O 0.5429 0.00725 0.48377 0.0
O486 O 0.49664 1.00247 0.53647 0.0
Fe487 Fe 0.52196 0.04203 0.51533 0.0
C488 C 0.46475 0.93012 0.55876 0.0
O489 O 0.55676 0.97099 0.5338 0.0
O490 O 0.52661 0.9735 0.58391 0.0
O491 O 0.55357 0.07825 0.48708 0.0
O492 O 0.58279 0.04707 0.44499 0.0
O493 O 0.57727 0.96928 0.43252 0.0
O494 O 0.54693 0.933 0.46775 0.0
O495 O 0.52997 0.04463 0.59342 0.0
O496 O 0.5608 0.05094 0.54464 0.0
C497 C 0.57088 0.94092 0.4433 0.0
O498 O 0.48404 0.03608 0.48619 0.0
O499 O 0.5145 0.03442 0.43631 0.0
O500 O 0.48862 0.92747 0.53372 0.0
O501 O 0.45817 0.95801 0.57505 0.0
C502 C 0.55205 0.96652 0.56408 0.0
C503 C 0.55769 0.05577 0.57633 0.0
C504 C 0.46852 0.0644 0.57608 0.0
O505 O 0.4612 0.03557 0.58607 0.0
O506 O 0.49353 0.07271 0.55257 0.0
C507 C 0.57825 0.07509 0.46289 0.0
O508 O 0.50763 0.96304 0.42621 0.0
O509 O 0.47952 0.95305 0.4756 0.0
C510 C 0.48901 0.04119 0.45614 0.0
C511 C 0.48109 0.95025 0.4441 0.0
H512 H 0.25779 0.16766 0.33178 0.0
H513 H 0.07015 0.07201 0.3921 0.0
H514 H 0.16898 0.17124 0.29089 0.0
H515 H 0.15609 0.07281 0.43972 0.0
H516 H 0.10754 0.10225 0.35052 0.0
H517 H 0.22284 0.12817 0.3669 0.0
C518 C 0.231 0.15993 0.3298 0.0
C519 C 0.21646 0.17312 0.30813 0.0
C520 C 0.11846 0.09559 0.36974 0.0
C521 C 0.17602 0.12755 0.34884 0.0
C522 C 0.09707 0.07809 0.39353 0.0
C523 C 0.10985 0.06981 0.41969 0.0
C524 C 0.15327 0.10542 0.37189 0.0
C525 C 0.14505 0.07838 0.41996 0.0
C526 C 0.21101 0.13734 0.35006 0.0
C527 C 0.1815 0.16196 0.30704 0.0
N528 N 0.16546 0.09603 0.39671 0.0
N529 N 0.1626 0.14007 0.32712 0.0
H530 H 0.86365 0.16543 0.39977 0.0
H531 H 0.91284 0.00872 0.44805 0.0
H532 H 0.85346 0.06984 0.33681 0.0
H533 H 0.93328 0.10766 0.50338 0.0
H534 H 0.88064 0.02736 0.41282 0.0
H535 H 0.8795 0.14174 0.44284 0.0
C536 C 0.86429 0.13933 0.39507 0.0
C537 C 0.85734 0.11975 0.36433 0.0
C538 C 0.8914 0.04479 0.43323 0.0
C539 C 0.87604 0.09238 0.41382 0.0
C540 C 0.9093 0.03399 0.45365 0.0
C541 C 0.92524 0.0566 0.47892 0.0
C542 C 0.88964 0.07846 0.43815 0.0
C543 C 0.9209 0.08937 0.48444 0.0
C544 C 0.87356 0.12582 0.41972 0.0
C545 C 0.85916 0.08613 0.35979 0.0
N546 N 0.90383 0.09938 0.46408 0.0
N547 N 0.86849 0.07359 0.38412 0.0
H548 H 0.86308 0.77655 0.33497 0.0
H549 H 0.94001 0.95902 0.42722 0.0
H550 H 0.84723 0.86563 0.30827 0.0
H551 H 0.93812 0.86817 0.46254 0.0
H552 H 0.91107 0.92612 0.38031 0.0
H553 H 0.89664 0.81062 0.37762 0.0
C554 C 0.86689 0.80332 0.33778 0.0
C555 C 0.85203 0.81813 0.31794 0.0
C556 C 0.91695 0.91345 0.39841 0.0
C557 C 0.89046 0.85752 0.36739 0.0
C558 C 0.93334 0.93223 0.42532 0.0
C559 C 0.94125 0.91647 0.44926 0.0
C560 C 0.90859 0.8786 0.39516 0.0
C561 C 0.93236 0.88158 0.44503 0.0
C562 C 0.886 0.8228 0.36236 0.0
C563 C 0.8581 0.85304 0.32293 0.0
N564 N 0.91663 0.86393 0.41861 0.0
N565 N 0.87667 0.87152 0.34725 0.0
H566 H 0.0638 0.88449 0.25015 0.0
H567 H 1.01217 0.87434 0.43698 0.0
H568 H 0.05226 0.7983 0.29702 0.0
H569 H 0.04117 0.964 0.39284 0.0
H570 H 0.99993 0.84237 0.38301 0.0
H571 H 0.02594 0.90646 0.29623 0.0
C572 C 0.05226 0.86947 0.26937 0.0
C573 C 0.06369 0.84106 0.27136 0.0
C574 C 1.00856 0.86909 0.38517 0.0
C575 C 0.02048 0.86575 0.3236 0.0
C576 C 1.01613 0.88733 0.41588 0.0
C577 C 0.02942 0.92171 0.41903 0.0
C578 C 1.01527 0.88514 0.35714 0.0
C579 C 0.03228 0.93736 0.39123 0.0
C580 C 0.03067 0.8821 0.29574 0.0
C581 C 0.046 0.82146 0.29539 0.0
N582 N 0.0261 0.91884 0.36122 0.0
N583 N 0.02628 0.83483 0.32144 0.0
H584 H 0.18864 0.93678 0.6846 0.0
H585 H 0.10846 0.89883 0.51407 0.0
H586 H 0.17593 0.84192 0.62031 0.0
H587 H 0.12466 0.99527 0.57475 0.0
H588 H 0.14079 0.88008 0.54861 0.0
H589 H 0.17136 0.96054 0.64214 0.0
C590 C 0.18229 0.9209 0.66157 0.0
C591 C 0.18352 0.88711 0.65632 0.0
C592 C 0.1381 0.90562 0.55401 0.0
C593 C 0.16398 0.91442 0.60722 0.0
C594 C 0.12004 0.91644 0.53395 0.0
C595 C 0.11449 0.94882 0.5412 0.0
C596 C 0.15008 0.92709 0.58212 0.0
C597 C 0.12902 0.97034 0.56793 0.0
C598 C 0.17266 0.9346 0.63719 0.0
C599 C 0.17564 0.86809 0.62557 0.0
N600 N 0.14572 0.95897 0.58775 0.0
N601 N 0.16597 0.8819 0.60243 0.0
H602 H 0.1748 0.22864 0.68655 0.0
H603 H 0.10073 0.04637 0.5921 0.0
H604 H 0.192 0.13948 0.71182 0.0
H605 H 0.09855 0.13746 0.5595 0.0
H606 H 0.12925 0.07914 0.63928 0.0
H607 H 0.14104 0.19469 0.64399 0.0
C608 C 0.17123 0.20188 0.68346 0.0
C609 C 0.18653 0.187 0.70284 0.0
C610 C 0.12257 0.0919 0.62173 0.0
C611 C 0.14791 0.14777 0.65353 0.0
C612 C 0.10642 0.0732 0.59466 0.0
C613 C 0.0976 0.08907 0.57135 0.0
C614 C 0.12978 0.12678 0.62575 0.0
C615 C 0.10514 0.12399 0.57646 0.0
C616 C 0.152 0.18247 0.65894 0.0
C617 C 0.18079 0.15211 0.69751 0.0
N618 N 0.12073 0.14157 0.60299 0.0
N619 N 0.16213 0.13371 0.67325 0.0
H620 H 0.98581 0.21136 0.72326 0.0
H621 H 1.00131 0.04095 0.62648 0.0
H622 H 0.97015 0.12396 0.76937 0.0
H623 H 0.02127 0.13194 0.58541 0.0
H624 H 1.01091 0.07372 0.68107 0.0
H625 H 0.02426 0.18865 0.6795 0.0
C626 C 0.99127 0.18789 0.72514 0.0
C627 C 0.97224 0.16817 0.74858 0.0
C628 C 1.01376 0.0865 0.65999 0.0
C629 C 1.01492 0.1413 0.69721 0.0
C630 C 1.00779 0.0678 0.62891 0.0
C631 C 1.00873 0.08377 0.60173 0.0
C632 C 0.02039 0.12137 0.6639 0.0
C633 C 1.01866 0.11854 0.60599 0.0
C634 C 1.01313 0.17464 0.69959 0.0
C635 C 0.98216 0.1388 0.75014 0.0
N636 N 0.02349 0.13614 0.63658 0.0
N637 N 1.00146 0.12526 0.7237 0.0
H638 H 0.87153 0.836 0.73282 0.0
H639 H 0.88374 0.93559 0.58096 0.0
H640 H 0.78454 0.83871 0.6884 0.0
H641 H 0.96885 0.93113 0.62714 0.0
H642 H 0.84586 0.90544 0.62346 0.0
H643 H 0.90644 0.87552 0.69767 0.0
C644 C 0.85962 0.84512 0.716 0.0
C645 C 0.8249 0.8337 0.71371 0.0
C646 C 0.87282 0.91148 0.6245 0.0
C647 C 0.8651 0.87908 0.67275 0.0
C648 C 0.89442 0.929 0.60039 0.0
C649 C 0.92961 0.93583 0.60026 0.0
C650 C 0.88651 0.90084 0.64872 0.0
C651 C 0.94196 0.9262 0.62594 0.0
C652 C 0.87965 0.86771 0.69577 0.0
C653 C 0.81114 0.84659 0.69117 0.0
N654 N 0.92061 0.90912 0.64877 0.0
N655 N 0.83122 0.86827 0.6715 0.0
H656 H 0.35932 0.18287 0.23848 0.0
H657 H 0.44396 0.11804 0.05408 0.0
H658 H 0.32201 0.19526 0.15114 0.0
H659 H 0.44435 0.0731 0.13938 0.0
H660 H 0.40722 0.15354 0.08883 0.0
H661 H 0.3971 0.14976 0.20296 0.0
C662 C 0.35891 0.17874 0.21182 0.0
C663 C 0.33676 0.19212 0.19826 0.0
C664 C 0.41568 0.1362 0.10007 0.0
C665 C 0.38162 0.15407 0.1565 0.0
C666 C 0.43718 0.11613 0.08024 0.0
C667 C 0.44817 0.09254 0.09359 0.0
C668 C 0.40523 0.13347 0.13402 0.0
C669 C 0.43719 0.09093 0.12771 0.0
C670 C 0.38071 0.15964 0.1914 0.0
C671 C 0.33808 0.18546 0.16317 0.0
N672 N 0.41688 0.11098 0.14646 0.0
N673 N 0.36009 0.16738 0.14373 0.0
H674 H 0.88078 0.28596 0.19015 0.0
H675 H 0.88724 0.41312 0.06531 0.0
H676 H 0.79395 0.31416 0.16756 0.0
H677 H 0.97728 0.38669 0.08199 0.0
H678 H 0.8533 0.37334 0.09996 0.0
H679 H 0.91667 0.31907 0.14907 0.0
C680 C 0.86913 0.29881 0.17644 0.0
C681 C 0.83407 0.29715 0.1826 0.0
C682 C 0.88041 0.37582 0.09602 0.0
C683 C 0.87528 0.33531 0.13541 0.0
C684 C 0.89992 0.39859 0.07605 0.0
C685 C 0.93528 0.40344 0.07069 0.0
C686 C 0.89608 0.35758 0.11148 0.0
C687 C 0.95012 0.38367 0.08524 0.0
C688 C 0.88974 0.31778 0.15297 0.0
C689 C 0.8207 0.31455 0.16397 0.0
N690 N 0.93049 0.36187 0.10528 0.0
N691 N 0.84121 0.33281 0.14152 0.0
H692 H 0.65064 0.85839 0.15701 0.0
H693 H 0.65272 0.99102 0.03942 0.0
H694 H 0.74074 0.92207 0.11582 0.0
H695 H 0.56002 0.93155 0.08125 0.0
H696 H 0.68438 0.96718 0.06975 0.0
H697 H 0.61651 0.88558 0.13212 0.0
C698 C 0.66335 0.87817 0.14297 0.0
C699 C 0.6989 0.8876 0.13844 0.0
C700 C 0.65711 0.95935 0.07258 0.0
C701 C 0.65966 0.91881 0.10956 0.0
C702 C 0.63889 0.97305 0.05519 0.0
C703 C 0.60349 0.96325 0.0575 0.0
C704 C 0.64013 0.93528 0.09255 0.0
C705 C 0.58722 0.93999 0.07871 0.0
C706 C 0.64375 0.8936 0.12861 0.0
C707 C 0.71362 0.91327 0.11959 0.0
N708 N 0.60565 0.9266 0.09516 0.0
N709 N 0.69406 0.92777 0.10592 0.0
H710 H 0.15377 0.71512 0.21615 0.0
H711 H 0.15246 0.56696 0.06113 0.0
H712 H 0.24123 0.67585 0.17158 0.0
H713 H 0.06272 0.60166 0.10701 0.0
H714 H 0.1844 0.60581 0.10237 0.0
H715 H 0.11985 0.67385 0.17753 0.0
C716 C 0.16596 0.69786 0.19827 0.0
C717 C 0.20066 0.69922 0.19725 0.0
C718 C 0.15771 0.60494 0.10366 0.0
C719 C 0.16152 0.6515 0.15266 0.0
C720 C 0.13928 0.58262 0.08 0.0
C721 C 0.10461 0.58088 0.08027 0.0
C722 C 0.14173 0.62621 0.12807 0.0
C723 C 0.08926 0.60189 0.10572 0.0
C724 C 0.14643 0.67419 0.1762 0.0
C725 C 0.21471 0.67598 0.17342 0.0
N726 N 0.10792 0.62377 0.12838 0.0
N727 N 0.1952 0.65327 0.15218 0.0
H728 H 0.28982 0.84273 0.85942 0.0
H729 H 0.47614 0.90866 0.91619 0.0
H730 H 0.37573 0.80316 0.80995 0.0
H731 H 0.38635 0.93487 0.97388 0.0
H732 H 0.44105 0.87331 0.87446 0.0
H733 H 0.32585 0.87979 0.89914 0.0
C734 C 0.31621 0.8418 0.85681 0.0
C735 C 0.32953 0.81954 0.83118 0.0
C736 C 0.42908 0.88687 0.89626 0.0
C737 C 0.37127 0.86231 0.87675 0.0
C738 C 0.44917 0.90719 0.92006 0.0
C739 C 0.43434 0.92476 0.94888 0.0
C740 C 0.39386 0.88427 0.90102 0.0
C741 C 0.39909 0.92169 0.95236 0.0
C742 C 0.33684 0.863 0.87958 0.0
C743 C 0.3641 0.81969 0.82927 0.0
N744 N 0.38024 0.90198 0.92889 0.0
N745 N 0.38366 0.84065 0.85159 0.0
H746 H 0.1707 0.26768 0.85672 0.0
H747 H 0.11728 0.44612 0.89169 0.0
H748 H 0.21024 0.34537 0.7969 0.0
H749 H 0.07361 0.37272 0.95571 0.0
H750 H 0.14922 0.40773 0.85677 0.0
H751 H 0.13431 0.30299 0.89239 0.0
C752 C 0.17188 0.292 0.85084 0.0
C753 C 0.19418 0.30303 0.82319 0.0
C754 C 0.1326 0.39962 0.87826 0.0
C755 C 0.15175 0.34431 0.86474 0.0
C756 C 0.11396 0.42177 0.8985 0.0
C757 C 0.09201 0.41329 0.92727 0.0
C758 C 0.1302 0.36789 0.88615 0.0
C759 C 0.0896 0.38082 0.9339 0.0
C760 C 0.1509 0.31231 0.87143 0.0
C761 C 0.19393 0.33517 0.81756 0.0
N762 N 0.10839 0.35965 0.91383 0.0
N763 N 0.17346 0.35422 0.8378 0.0
H764 H 0.70692 0.14915 0.7981 0.0
H765 H 0.59781 0.14256 0.97522 0.0
H766 H 0.69635 0.24036 0.86325 0.0
H767 H 0.58449 0.06423 0.89119 0.0
H768 H 0.63317 0.18019 0.93741 0.0
H769 H 0.66334 0.11834 0.83471 0.0
C770 C 0.69554 0.16279 0.82024 0.0
C771 C 0.7057 0.19749 0.82762 0.0
C772 C 0.62182 0.15496 0.92726 0.0
C773 C 0.65514 0.1619 0.8702 0.0
C774 C 0.60135 0.13361 0.94876 0.0
C775 C 0.58823 0.10016 0.93634 0.0
C776 C 0.62935 0.14253 0.89333 0.0
C777 C 0.59422 0.08973 0.90191 0.0
C778 C 0.67033 0.14511 0.84112 0.0
C779 C 0.68947 0.21362 0.85663 0.0
N780 N 0.61458 0.11056 0.88185 0.0
N781 N 0.66524 0.19568 0.87709 0.0
H782 H 0.94093 0.68058 0.85766 0.0
H783 H 0.90014 0.54451 0.98016 0.0
H784 H 0.84356 0.64845 0.91293 0.0
H785 H 1.00143 0.58267 0.93599 0.0
H786 H 0.8791 0.57924 0.95133 0.0
H787 H 0.96332 0.64244 0.88185 0.0
C788 C 0.92414 0.66542 0.87468 0.0
C789 C 0.8902 0.66805 0.88328 0.0
C790 C 0.90593 0.58003 0.94771 0.0
C791 C 0.91588 0.62418 0.91121 0.0
C792 C 0.91808 0.56001 0.96418 0.0
C793 C 0.9528 0.56057 0.96079 0.0
C794 C 0.92845 0.60113 0.92742 0.0
C795 C 0.9745 0.58125 0.93942 0.0
C796 C 0.93706 0.64374 0.88863 0.0
C797 C 0.86995 0.64787 0.90582 0.0
N798 N 0.96202 0.6008 0.92371 0.0
N799 N 0.88303 0.62694 0.91885 0.0
H800 H 0.20186 0.36223 0.11197 0.0
H801 H 0.03996 0.42565 0.08567 0.0
H802 H 0.1014 0.32489 0.15853 0.0
H803 H 0.14188 0.46229 0.04209 0.0
H804 H 0.06137 0.39042 0.11466 0.0
H805 H 0.17982 0.40007 0.08778 0.0
C806 C 0.17509 0.36179 0.11704 0.0
C807 C 0.15355 0.33994 0.13727 0.0
C808 C 0.07903 0.40637 0.09893 0.0
C809 C 0.12791 0.38396 0.10961 0.0
C810 C 0.06683 0.42666 0.08247 0.0
C811 C 0.08904 0.44708 0.0612 0.0
C812 C 0.11374 0.40642 0.09417 0.0
C813 C 0.12362 0.44699 0.05799 0.0
C814 C 0.1625 0.38368 0.10332 0.0
C815 C 0.11914 0.34133 0.14335 0.0
N816 N 0.13475 0.427 0.07406 0.0
N817 N 0.10741 0.36275 0.1295 0.0
H818 H 0.24957 0.69608 0.85589 0.0
H819 H 0.06317 0.62181 0.94242 0.0
H820 H 0.16081 0.71848 0.83055 0.0
H821 H 0.15442 0.5935 0.95269 0.0
H822 H 0.09725 0.66251 0.90696 0.0
H823 H 0.21418 0.66391 0.89678 0.0
C824 C 0.22259 0.69445 0.85898 0.0
C825 C 0.20834 0.71005 0.83937 0.0
C826 C 0.10972 0.64754 0.9173 0.0
C827 C 0.167 0.67248 0.88672 0.0
C828 C 0.09031 0.62452 0.93772 0.0
C829 C 0.10592 0.60403 0.9504 0.0
C830 C 0.14493 0.65028 0.90996 0.0
C831 C 0.14117 0.60844 0.94324 0.0
C832 C 0.20224 0.6759 0.88248 0.0
C833 C 0.17303 0.70691 0.84499 0.0
N834 N 0.15926 0.63082 0.92362 0.0
N835 N 0.15356 0.68834 0.86795 0.0
H836 H 0.29709 0.09108 0.91322 0.0
H837 H 0.48183 0.07184 0.93472 0.0
H838 H 0.38728 0.13804 0.85562 0.0
H839 H 0.38828 0.02259 0.9856 0.0
H840 H 0.44909 0.09549 0.90412 0.0
H841 H 0.33125 0.06549 0.93883 0.0
C842 C 0.32407 0.09584 0.9056 0.0
C843 C 0.33904 0.11672 0.88182 0.0
C844 C 0.43583 0.07934 0.92187 0.0
C845 C 0.37896 0.08753 0.91196 0.0
C846 C 0.45452 0.06567 0.93923 0.0
C847 C 0.43793 0.04525 0.96303 0.0
C848 C 0.4003 0.0725 0.92831 0.0
C849 C 0.4024 0.03837 0.96783 0.0
C850 C 0.34372 0.08129 0.92051 0.0
C851 C 0.37446 0.12242 0.87395 0.0
N852 N 0.38499 0.05199 0.95087 0.0
N853 N 0.39316 0.10794 0.88893 0.0
H854 H 0.87649 0.28539 0.82004 0.0
H855 H 0.89573 0.45204 0.95234 0.0
H856 H 0.81459 0.35655 0.82768 0.0
H857 H 0.97718 0.40078 0.92026 0.0
H858 H 0.86423 0.41547 0.90907 0.0
H859 H 0.91194 0.32491 0.85882 0.0
C860 C 0.8703 0.3093 0.82981 0.0
C861 C 0.8423 0.31749 0.82051 0.0
C862 C 0.88909 0.41232 0.91125 0.0
C863 C 0.88285 0.36289 0.86534 0.0
C864 C 0.90713 0.4332 0.93603 0.0
C865 C 0.93925 0.42957 0.94007 0.0
C866 C 0.90276 0.38694 0.8905 0.0
C867 C 0.95265 0.40468 0.918 0.0
C868 C 0.89071 0.33193 0.85187 0.0
C869 C 0.83583 0.34903 0.83397 0.0
N870 N 0.9342 0.38409 0.89448 0.0
N871 N 0.85567 0.37033 0.85583 0.0
H872 H 0.68324 0.82569 0.78263 0.0
H873 H 0.59607 0.88923 0.96626 0.0
H874 H 0.71751 0.81048 0.8705 0.0
H875 H 0.59835 0.93548 0.88114 0.0
H876 H 0.63269 0.85342 0.93186 0.0
H877 H 0.64562 0.85908 0.81787 0.0
C878 C 0.68301 0.82926 0.80936 0.0
C879 C 0.70425 0.81499 0.82316 0.0
C880 C 0.62486 0.87113 0.92058 0.0
C881 C 0.65957 0.8534 0.86455 0.0
C882 C 0.60342 0.89138 0.9402 0.0
C883 C 0.59324 0.91542 0.92679 0.0
C884 C 0.63603 0.87416 0.8868 0.0
C885 C 0.6049 0.91731 0.89284 0.0
C886 C 0.66131 0.84852 0.82961 0.0
C887 C 0.70216 0.82097 0.85831 0.0
N888 N 0.62514 0.8971 0.87429 0.0
N889 N 0.68024 0.83926 0.87757 0.0
H890 H 0.82897 0.66048 0.22547 0.0
H891 H 0.97049 0.63512 0.06577 0.0
H892 H 0.86984 0.73704 0.16448 0.0
H893 H 0.92287 0.56193 0.12908 0.0
H894 H 0.93748 0.674 0.10109 0.0
H895 H 0.86535 0.6261 0.19064 0.0
C896 C 0.84556 0.67036 0.20478 0.0
C897 C 0.84567 0.7023 0.19847 0.0
C898 C 0.93445 0.64949 0.10737 0.0
C899 C 0.88876 0.66172 0.15723 0.0
C900 C 0.95365 0.62719 0.08721 0.0
C901 C 0.95007 0.59463 0.09399 0.0
C902 C 0.91124 0.6396 0.13492 0.0
C903 C 0.92701 0.58635 0.12223 0.0
C904 C 0.86662 0.6504 0.18464 0.0
C905 C 0.8684 0.71286 0.1708 0.0
N906 N 0.90888 0.60825 0.14114 0.0
N907 N 0.88874 0.69283 0.15143 0.0
H908 H 0.37479 0.81586 0.21671 0.0
H909 H 0.40986 0.88557 0.04352 0.0
H910 H 0.29567 0.81734 0.16053 0.0
H911 H 0.47888 0.91796 0.11709 0.0
H912 H 0.37191 0.84907 0.08026 0.0
H913 H 0.41657 0.84285 0.1752 0.0
C914 C 0.36614 0.82175 0.19561 0.0
C915 C 0.33149 0.81457 0.19237 0.0
C916 C 0.3957 0.86356 0.08808 0.0
C917 C 0.37952 0.84511 0.14437 0.0
C918 C 0.41759 0.88397 0.06692 0.0
C919 C 0.44787 0.90414 0.07701 0.0
C920 C 0.40413 0.86331 0.11966 0.0
C921 C 0.45613 0.90217 0.10811 0.0
C922 C 0.39009 0.83718 0.17192 0.0
C923 C 0.32199 0.82266 0.16429 0.0
N924 N 0.43435 0.88219 0.1284 0.0
N925 N 0.34583 0.83743 0.14141 0.0
H926 H 0.66518 0.20345 0.21282 0.0
H927 H 0.65496 0.07049 0.04551 0.0
H928 H 0.74945 0.16205 0.16179 0.0
H929 H 0.56715 0.10075 0.10341 0.0
H930 H 0.68961 0.10434 0.0874 0.0
H931 H 0.62931 0.16714 0.17293 0.0
C932 C 0.67628 0.18673 0.19326 0.0
C933 C 0.71068 0.18604 0.19083 0.0
C934 C 0.66279 0.1036 0.09111 0.0
C935 C 0.66921 0.14408 0.14462 0.0
C936 C 0.64283 0.08427 0.06706 0.0
C937 C 0.60788 0.0828 0.0706 0.0
C938 C 0.64804 0.1221 0.11917 0.0
C939 C 0.59388 0.10103 0.09946 0.0
C940 C 0.6556 0.16588 0.17046 0.0
C941 C 0.72322 0.16361 0.16481 0.0
N942 N 0.614 0.12006 0.12244 0.0
N943 N 0.7026 0.14372 0.14275 0.0
H944 H 0.74797 0.65669 0.81952 0.0
H945 H 0.5653 0.55263 0.88507 0.0
H946 H 0.65764 0.66283 0.78306 0.0
H947 H 0.65885 0.55762 0.92204 0.0
H948 H 0.59716 0.58779 0.84355 0.0
H949 H 0.71468 0.6152 0.8524 0.0
C950 C 0.72104 0.64914 0.81818 0.0
C951 C 0.70572 0.66366 0.79849 0.0
C952 C 0.61061 0.58091 0.86065 0.0
C953 C 0.66671 0.61567 0.83705 0.0
C954 C 0.59246 0.56069 0.88427 0.0
C955 C 0.60925 0.55223 0.90744 0.0
C956 C 0.64585 0.59243 0.85998 0.0
C957 C 0.64453 0.56364 0.90515 0.0
C958 C 0.7019 0.62531 0.83715 0.0
C959 C 0.67062 0.65233 0.79777 0.0
N960 N 0.66138 0.583 0.88214 0.0
N961 N 0.65224 0.62927 0.81703 0.0
H962 H 0.35282 0.6345 0.88626 0.0
H963 H 0.51225 0.57236 0.91988 0.0
H964 H 0.44565 0.64219 0.81915 0.0
H965 H 0.41485 0.55816 0.9794 0.0
H966 H 0.49184 0.60451 0.88648 0.0
H967 H 0.37828 0.6124 0.92391 0.0
C968 C 0.37858 0.63149 0.87936 0.0
C969 C 0.39688 0.63988 0.84918 0.0
C970 C 0.47513 0.59465 0.90711 0.0
C971 C 0.42659 0.6147 0.89266 0.0
C972 C 0.48686 0.57653 0.92632 0.0
C973 C 0.46512 0.56228 0.95227 0.0
C974 C 0.44157 0.5987 0.91416 0.0
C975 C 0.43239 0.56832 0.9594 0.0
C976 C 0.39324 0.61902 0.90103 0.0
C977 C 0.43055 0.63616 0.84214 0.0
N978 N 0.42163 0.58581 0.9404 0.0
N979 N 0.44422 0.62361 0.86356 0.0
H980 H 0.36055 0.34561 0.77401 0.0
H981 H 0.42123 0.3846 0.95323 0.0
H982 H 0.34209 0.27394 0.841 0.0
H983 H 0.46221 0.44979 0.88033 0.0
H984 H 0.39364 0.34332 0.91075 0.0
H985 H 0.39994 0.38355 0.81025 0.0
C986 C 0.36513 0.33763 0.79598 0.0
C987 C 0.34753 0.30674 0.80473 0.0
C988 C 0.40885 0.36649 0.90381 0.0
C989 C 0.39219 0.34999 0.84628 0.0
C990 C 0.4245 0.39016 0.92816 0.0
C991 C 0.44372 0.42079 0.92037 0.0
C992 C 0.41186 0.37357 0.87138 0.0
C993 C 0.44752 0.42646 0.88734 0.0
C994 C 0.38756 0.35931 0.81667 0.0
C995 C 0.35454 0.2977 0.83348 0.0
N996 N 0.43128 0.40323 0.86408 0.0
N997 N 0.37596 0.31932 0.85331 0.0
H998 H 0.54689 0.28668 0.82838 0.0
H999 H 0.6227 0.419 0.95221 0.0
H1000 H 0.62983 0.27335 0.87217 0.0
H1001 H 0.51406 0.39477 0.95502 0.0
H1002 H 0.6232 0.36081 0.92979 0.0
H1003 H 0.52734 0.31708 0.88148 0.0
C1004 C 0.55988 0.28861 0.84972 0.0
C1005 C 0.59059 0.27876 0.84577 0.0
C1006 C 0.59919 0.36817 0.93621 0.0
C1007 C 0.5698 0.31483 0.90556 0.0
C1008 C 0.59902 0.40147 0.94849 0.0
C1009 C 0.56856 0.41206 0.95406 0.0
C1010 C 0.56881 0.34575 0.929 0.0
C1011 C 0.53839 0.38804 0.94986 0.0
C1012 C 0.54897 0.30622 0.88001 0.0
C1013 C 0.60644 0.28148 0.87413 0.0
N1014 N 0.53936 0.35619 0.93676 0.0
N1015 N 0.59683 0.30079 0.90259 0.0
H1016 H 0.59364 0.3582 0.20166 0.0
H1017 H 0.6271 0.43857 0.03503 0.0
H1018 H 0.68721 0.36907 0.13563 0.0
H1019 H 0.53256 0.43065 0.09936 0.0
H1020 H 0.64645 0.40692 0.06873 0.0
H1021 H 0.56824 0.37897 0.16237 0.0
C1022 C 0.60876 0.36462 0.17878 0.0
C1023 C 0.64279 0.36218 0.17216 0.0
C1024 C 0.62133 0.41173 0.07545 0.0
C1025 C 0.61386 0.3861 0.12716 0.0
C1026 C 0.61022 0.42978 0.05611 0.0
C1027 C 0.5783 0.43757 0.06459 0.0
C1028 C 0.6006 0.40155 0.10389 0.0
C1029 C 0.55736 0.42519 0.09196 0.0
C1030 C 0.59425 0.3766 0.15643 0.0
C1031 C 0.66115 0.37112 0.14219 0.0
N1032 N 0.56906 0.40816 0.11096 0.0
N1033 N 0.64653 0.38276 0.12099 0.0
H1034 H 0.67929 0.65813 0.24495 0.0
H1035 H 0.6265 0.61417 0.06204 0.0
H1036 H 0.701 0.7277 0.17542 0.0
H1037 H 0.58007 0.55214 0.13667 0.0
H1038 H 0.65367 0.65584 0.10449 0.0
H1039 H 0.64183 0.61899 0.20754 0.0
C1040 C 0.67584 0.6654 0.22215 0.0
C1041 C 0.69376 0.69611 0.21315 0.0
C1042 C 0.63738 0.63327 0.11179 0.0
C1043 C 0.65133 0.65143 0.17025 0.0
C1044 C 0.62197 0.60934 0.08746 0.0
C1045 C 0.60121 0.57949 0.09575 0.0
C1046 C 0.63258 0.62727 0.14478 0.0
C1047 C 0.59591 0.57484 0.12923 0.0
C1048 C 0.65452 0.64302 0.2008 0.0
C1049 C 0.68824 0.70416 0.18328 0.0
N1050 N 0.61187 0.59832 0.15252 0.0
N1051 N 0.66789 0.6819 0.16286 0.0
H1052 H 0.38558 0.70847 0.10957 0.0
H1053 H 0.52498 0.60726 0.06766 0.0
H1054 H 0.47398 0.72855 0.16027 0.0
H1055 H 0.42217 0.57603 0.04466 0.0
H1056 H 0.51915 0.66482 0.0787 0.0
H1057 H 0.41452 0.67895 0.06202 0.0
C1058 C 0.41162 0.70803 0.11039 0.0
C1059 C 0.42665 0.71909 0.13993 0.0
C1060 C 0.49816 0.6454 0.07053 0.0
C1061 C 0.45908 0.68408 0.08592 0.0
C1062 C 0.50121 0.6125 0.06471 0.0
C1063 C 0.47339 0.58674 0.05677 0.0
C1064 C 0.46709 0.6525 0.06852 0.0
C1065 C 0.44372 0.59504 0.05217 0.0
C1066 C 0.42808 0.69086 0.08306 0.0
C1067 C 0.46072 0.71842 0.13873 0.0
N1068 N 0.44116 0.62724 0.05866 0.0
N1069 N 0.47549 0.69986 0.11257 0.0
H1070 H 0.38321 0.3437 0.2408 0.0
H1071 H 0.38487 0.44685 0.09507 0.0
H1072 H 0.29639 0.34617 0.19607 0.0
H1073 H 0.47682 0.44662 0.13222 0.0
H1074 H 0.35269 0.41406 0.13668 0.0
H1075 H 0.41812 0.38477 0.20638 0.0
C1076 C 0.37135 0.35319 0.22422 0.0
C1077 C 0.33671 0.34118 0.22131 0.0
C1078 C 0.37987 0.42113 0.13608 0.0
C1079 C 0.37654 0.38803 0.18177 0.0
C1080 C 0.39842 0.44 0.11213 0.0
C1081 C 0.43382 0.44938 0.10969 0.0
C1082 C 0.39648 0.4109 0.1581 0.0
C1083 C 0.44962 0.43998 0.13307 0.0
C1084 C 0.39136 0.37649 0.20443 0.0
C1085 C 0.32293 0.35427 0.19913 0.0
N1086 N 0.43089 0.42094 0.15608 0.0
N1087 N 0.34276 0.37665 0.18035 0.0
H1088 H 0.81921 0.69568 0.64531 0.0
H1089 H 0.93728 0.56659 0.64075 0.0
H1090 H 0.84431 0.6694 0.73261 0.0
H1091 H 0.94067 0.6126 0.55506 0.0
H1092 H 0.89931 0.60084 0.67249 0.0
H1093 H 0.85849 0.66301 0.61053 0.0
C1094 C 0.83266 0.68296 0.65732 0.0
C1095 C 0.82785 0.68559 0.6924 0.0
C1096 C 0.90823 0.60369 0.64679 0.0
C1097 C 0.87342 0.64751 0.65207 0.0
C1098 C 0.93011 0.58387 0.62833 0.0
C1099 C 0.94277 0.5862 0.59467 0.0
C1100 C 0.89768 0.62635 0.63196 0.0
C1101 C 0.9321 0.6097 0.58079 0.0
C1102 C 0.85538 0.66437 0.63729 0.0
C1103 C 0.84667 0.66846 0.70595 0.0
N1104 N 0.91014 0.62848 0.59926 0.0
N1105 N 0.86808 0.6503 0.68602 0.0
H1106 H 0.33437 0.75678 0.64167 0.0
H1107 H 0.47192 0.92407 0.62026 0.0
H1108 H 0.34989 0.84378 0.71683 0.0
H1109 H 0.42021 0.87134 0.53662 0.0
H1110 H 0.43786 0.88355 0.65432 0.0
H1111 H 0.37452 0.7887 0.60146 0.0
C1112 C 0.34639 0.78239 0.64976 0.0
C1113 C 0.33873 0.79772 0.68262 0.0
C1114 C 0.43418 0.88046 0.62841 0.0
C1115 C 0.38475 0.83378 0.6373 0.0
C1116 C 0.45374 0.90345 0.6089 0.0
C1117 C 0.44872 0.9011 0.57568 0.0
C1118 C 0.40914 0.8547 0.61481 0.0
C1119 C 0.42487 0.87387 0.56215 0.0
C1120 C 0.36906 0.80054 0.62682 0.0
C1121 C 0.35481 0.83099 0.69176 0.0
N1122 N 0.40558 0.85174 0.58193 0.0
N1123 N 0.37711 0.8477 0.6694 0.0
H1124 H 0.1634 0.39704 0.6872 0.0
H1125 H 0.11162 0.44913 0.52857 0.0
H1126 H 0.21181 0.37443 0.58716 0.0
H1127 H 0.06357 0.47012 0.62906 0.0
H1128 H 0.15059 0.42435 0.5495 0.0
H1129 H 0.12866 0.42626 0.66634 0.0
C1130 C 0.16698 0.39839 0.66087 0.0
C1131 C 0.19071 0.38309 0.63899 0.0
C1132 C 0.13164 0.43456 0.56697 0.0
C1133 C 0.15041 0.41643 0.61472 0.0
C1134 C 0.10945 0.44889 0.55505 0.0
C1135 C 0.08407 0.46169 0.57702 0.0
C1136 C 0.12854 0.43303 0.60114 0.0
C1137 C 0.0825 0.46043 0.61108 0.0
C1138 C 0.14692 0.41498 0.64891 0.0
C1139 C 0.19359 0.38534 0.60498 0.0
N1140 N 0.10424 0.44629 0.62199 0.0
N1141 N 0.17371 0.40161 0.59393 0.0
H1142 H 0.66855 0.1835 0.7291 0.0
H1143 H 0.62499 0.07919 0.55221 0.0
H1144 H 0.74795 0.16385 0.65082 0.0
H1145 H 0.55561 0.07877 0.6429 0.0
H1146 H 0.67037 0.11268 0.58474 0.0
H1147 H 0.62702 0.14801 0.69498 0.0
C1148 C 0.67736 0.17162 0.70465 0.0
C1149 C 0.71197 0.1768 0.6929 0.0
C1150 C 0.64519 0.10506 0.59737 0.0
C1151 C 0.66384 0.13578 0.65307 0.0
C1152 C 0.61922 0.08607 0.57882 0.0
C1153 C 0.58621 0.07607 0.59469 0.0
C1154 C 0.63797 0.11445 0.63194 0.0
C1155 C 0.58045 0.0857 0.62932 0.0
C1156 C 0.65348 0.15118 0.68511 0.0
C1157 C 0.72157 0.16043 0.66097 0.0
N1158 N 0.60584 0.10432 0.64654 0.0
N1159 N 0.69761 0.14084 0.642 0.0
H1160 H 0.83678 0.27808 0.35948 0.0
H1161 H 0.96387 0.4539 0.38831 0.0
H1162 H 0.8328 0.36047 0.31293 0.0
H1163 H 0.93801 0.39034 0.46355 0.0
H1164 H 0.91922 0.41748 0.35771 0.0
H1165 H 0.87678 0.31595 0.39524 0.0
C1166 C 0.84414 0.30411 0.35684 0.0
C1167 C 0.83128 0.316 0.33303 0.0
C1168 C 0.9231 0.41151 0.38099 0.0
C1169 C 0.87753 0.3594 0.37365 0.0
C1170 C 0.94871 0.43225 0.39846 0.0
C1171 C 0.95483 0.42516 0.42855 0.0
C1172 C 0.90368 0.38282 0.39314 0.0
C1173 C 0.93412 0.39684 0.44054 0.0
C1174 C 0.8669 0.32572 0.37737 0.0
C1175 C 0.84182 0.35007 0.3309 0.0
N1176 N 0.90977 0.37645 0.42259 0.0
N1177 N 0.8645 0.37037 0.35059 0.0
H1178 H 0.70105 0.84166 0.28681 0.0
H1179 H 0.58231 0.88247 0.46028 0.0
H1180 H 0.69493 0.78965 0.36885 0.0
H1181 H 0.60928 0.94276 0.3822 0.0
H1182 H 0.61885 0.84549 0.42768 0.0
H1183 H 0.6635 0.87536 0.32101 0.0
C1184 C 0.69179 0.83703 0.31198 0.0
C1185 C 0.70171 0.8123 0.32447 0.0
C1186 C 0.6167 0.86685 0.41775 0.0
C1187 C 0.65749 0.85178 0.36478 0.0
C1188 C 0.59562 0.88805 0.43641 0.0
C1189 C 0.59228 0.91636 0.42449 0.0
C1190 C 0.63449 0.87344 0.38647 0.0
C1191 C 0.61071 0.92175 0.39312 0.0
C1192 C 0.67018 0.85658 0.33174 0.0
C1193 C 0.68836 0.8082 0.35773 0.0
N1194 N 0.63049 0.90079 0.37557 0.0
N1195 N 0.6671 0.82749 0.37649 0.0
H1196 H 0.1873 0.6702 0.30124 0.0
H1197 H 0.0979 0.64287 0.48225 0.0
H1198 H 0.17984 0.75632 0.37544 0.0
H1199 H 0.07378 0.57598 0.39217 0.0
H1200 H 0.1297 0.68566 0.44784 0.0
H1201 H 0.14881 0.63531 0.33803 0.0
C1202 C 0.17734 0.68182 0.32535 0.0
C1203 C 0.18677 0.71622 0.33522 0.0
C1204 C 0.11693 0.66172 0.43585 0.0
C1205 C 0.14253 0.67601 0.37818 0.0
C1206 C 0.09877 0.63741 0.45544 0.0
C1207 C 0.08374 0.60562 0.43999 0.0
C1208 C 0.11994 0.65383 0.40085 0.0
C1209 C 0.0856 0.59984 0.40516 0.0
C1210 C 0.1552 0.66185 0.34641 0.0
C1211 C 0.17294 0.72987 0.36681 0.0
N1212 N 0.10357 0.62338 0.38696 0.0
N1213 N 0.15176 0.70964 0.38747 0.0
H1214 H 0.41063 0.14764 0.3373 0.0
H1215 H 0.44357 0.07659 0.49368 0.0
H1216 H 0.37477 0.18309 0.43887 0.0
H1217 H 0.48553 0.04827 0.39228 0.0
H1218 H 0.41385 0.11194 0.47408 0.0
H1219 H 0.43407 0.10777 0.35698 0.0
C1220 C 0.40739 0.14691 0.36375 0.0
C1221 C 0.39064 0.16896 0.38639 0.0
C1222 C 0.42936 0.09777 0.45612 0.0
C1223 C 0.41791 0.12323 0.40928 0.0
C1224 C 0.44617 0.07737 0.46727 0.0
C1225 C 0.46726 0.05941 0.44465 0.0
C1226 C 0.43349 0.10018 0.42207 0.0
C1227 C 0.46977 0.06174 0.41073 0.0
C1228 C 0.421 0.12418 0.37502 0.0
C1229 C 0.38783 0.16699 0.42046 0.0
N1230 N 0.45328 0.08177 0.40057 0.0
N1231 N 0.40132 0.14462 0.43083 0.0
H1232 H 0.62919 0.85996 0.68405 0.0
H1233 H 0.59804 0.9314 0.52705 0.0
H1234 H 0.66586 0.8246 0.58271 0.0
H1235 H 0.55496 0.95938 0.62811 0.0
H1236 H 0.62746 0.89603 0.54702 0.0
H1237 H 0.60607 0.8999 0.66407 0.0
C1238 C 0.63268 0.86072 0.6576 0.0
C1239 C 0.64957 0.83866 0.63512 0.0
C1240 C 0.61179 0.91015 0.56483 0.0
C1241 C 0.62265 0.8845 0.61187 0.0
C1242 C 0.59515 0.93058 0.55347 0.0
C1243 C 0.57384 0.94849 0.57587 0.0
C1244 C 0.60727 0.90762 0.59888 0.0
C1245 C 0.57094 0.94604 0.60981 0.0
C1246 C 0.61925 0.88349 0.64616 0.0
C1247 C 0.65268 0.84069 0.60102 0.0
N1248 N 0.58727 0.92597 0.62017 0.0
N1249 N 0.63938 0.8631 0.59048 0.0
H1250 H 0.74404 0.1765 0.34288 0.0
H1251 H 0.56504 0.13399 0.45355 0.0
H1252 H 0.67092 0.2371 0.35354 0.0
H1253 H 0.64581 0.08316 0.44597 0.0
H1254 H 0.6038 0.17596 0.4226 0.0
H1255 H 0.70923 0.14593 0.38518 0.0
C1256 C 0.72063 0.18354 0.35428 0.0
C1257 C 0.71034 0.20931 0.34432 0.0
C1258 C 0.61317 0.15599 0.42836 0.0
C1259 C 0.66956 0.17369 0.39314 0.0
C1260 C 0.59115 0.13225 0.44633 0.0
C1261 C 0.60224 0.10503 0.45233 0.0
C1262 C 0.64638 0.15235 0.41641 0.0
C1263 C 0.63614 0.10363 0.4418 0.0
C1264 C 0.70066 0.16602 0.37863 0.0
C1265 C 0.67983 0.21741 0.36043 0.0
N1266 N 0.65675 0.12662 0.42422 0.0
N1267 N 0.66025 0.19935 0.38374 0.0
H1268 H 0.87645 0.61075 0.3331 0.0
H1269 H 0.92821 0.55752 0.49126 0.0
H1270 H 0.82781 0.63239 0.43319 0.0
H1271 H 0.97716 0.53805 0.39091 0.0
H1272 H 0.88928 0.58244 0.47045 0.0
H1273 H 0.91216 0.58241 0.35386 0.0
C1274 C 0.87334 0.60974 0.35948 0.0
C1275 C 0.84901 0.62421 0.38135 0.0
C1276 C 0.90842 0.57253 0.45297 0.0
C1277 C 0.88982 0.59119 0.4054 0.0
C1278 C 0.9306 0.55811 0.46483 0.0
C1279 C 0.9562 0.54566 0.44288 0.0
C1280 C 0.91176 0.57454 0.41889 0.0
C1281 C 0.95803 0.5474 0.40889 0.0
C1282 C 0.89364 0.59329 0.37132 0.0
C1283 C 0.84587 0.62137 0.41524 0.0
N1284 N 0.9363 0.56164 0.39804 0.0
N1285 N 0.86604 0.60533 0.42619 0.0
H1286 H 0.31449 0.79644 0.3702 0.0
H1287 H 0.46539 0.95648 0.38403 0.0
H1288 H 0.32791 0.87462 0.31176 0.0
H1289 H 0.42873 0.90046 0.46509 0.0
H1290 H 0.41771 0.92411 0.35511 0.0
H1291 H 0.35817 0.83147 0.40341 0.0
C1292 C 0.32637 0.82106 0.3645 0.0
C1293 C 0.31735 0.83254 0.33809 0.0
C1294 C 0.41996 0.91895 0.37928 0.0
C1295 C 0.36796 0.87258 0.37572 0.0
C1296 C 0.44733 0.93733 0.39579 0.0
C1297 C 0.45128 0.93118 0.42708 0.0
C1298 C 0.39644 0.89363 0.39372 0.0
C1299 C 0.42674 0.90617 0.44108 0.0
C1300 C 0.35131 0.84105 0.38351 0.0
C1301 C 0.33379 0.8647 0.33192 0.0
N1302 N 0.40062 0.8881 0.42418 0.0
N1303 N 0.35846 0.88335 0.35028 0.0
H1304 H 0.2011 0.34135 0.28647 0.0
H1305 H 0.09587 0.39297 0.46503 0.0
H1306 H 0.21706 0.30947 0.37471 0.0
H1307 H 0.10902 0.44403 0.38099 0.0
H1308 H 0.13489 0.35819 0.43309 0.0
H1309 H 0.1629 0.37456 0.32061 0.0
C1310 C 0.19677 0.34125 0.31306 0.0
C1311 C 0.21305 0.32232 0.32729 0.0
C1312 C 0.12918 0.37704 0.42169 0.0
C1313 C 0.16773 0.36078 0.36742 0.0
C1314 C 0.10663 0.39691 0.43997 0.0
C1315 C 0.0987 0.42201 0.42615 0.0
C1316 C 0.14371 0.38154 0.38885 0.0
C1317 C 0.11408 0.42551 0.39331 0.0
C1318 C 0.1747 0.36042 0.33273 0.0
C1319 C 0.20566 0.32364 0.36225 0.0
N1320 N 0.13525 0.40572 0.37612 0.0
N1321 N 0.18362 0.34216 0.38087 0.0
H1322 H 0.33703 0.16235 0.73235 0.0
H1323 H 0.45822 0.12378 0.55992 0.0
H1324 H 0.34445 0.21587 0.65117 0.0
H1325 H 0.42897 0.06173 0.6365 0.0
H1326 H 0.42148 0.16062 0.59253 0.0
H1327 H 0.37479 0.12894 0.69807 0.0
C1328 C 0.34661 0.16737 0.70734 0.0
C1329 C 0.33698 0.19245 0.69513 0.0
C1330 C 0.42318 0.1389 0.60213 0.0
C1331 C 0.38152 0.15328 0.65472 0.0
C1332 C 0.44439 0.11779 0.58346 0.0
C1333 C 0.44713 0.089 0.59494 0.0
C1334 C 0.40468 0.13177 0.63299 0.0
C1335 C 0.42802 0.0831 0.62591 0.0
C1336 C 0.36836 0.14798 0.68753 0.0
C1337 C 0.35077 0.19703 0.66208 0.0
N1338 N 0.40816 0.10398 0.64347 0.0
N1339 N 0.37217 0.1779 0.64327 0.0
H1340 H 0.89071 0.28077 0.68641 0.0
H1341 H 0.90129 0.41429 0.56802 0.0
H1342 H 0.80486 0.31091 0.66405 0.0
H1343 H 0.9887 0.3805 0.58006 0.0
H1344 H 0.86545 0.372 0.59911 0.0
H1345 H 0.92697 0.3131 0.64492 0.0
C1346 C 0.8794 0.2939 0.67268 0.0
C1347 C 0.8446 0.29324 0.6791 0.0
C1348 C 0.89238 0.37326 0.59459 0.0
C1349 C 0.88599 0.33027 0.63151 0.0
C1350 C 0.91281 0.39728 0.57655 0.0
C1351 C 0.94793 0.40065 0.57116 0.0
C1352 C 0.9071 0.35273 0.6082 0.0
C1353 C 0.96164 0.37832 0.58323 0.0
C1354 C 0.90014 0.31234 0.64895 0.0
C1355 C 0.83148 0.31078 0.66039 0.0
N1356 N 0.94125 0.35559 0.60164 0.0
N1357 N 0.85211 0.32857 0.63776 0.0
H1358 H 0.20681 0.72773 0.66061 0.0
H1359 H 0.07758 0.55286 0.63114 0.0
H1360 H 0.2077 0.64516 0.70837 0.0
H1361 H 0.10324 0.61797 0.5573 0.0
H1362 H 0.12238 0.58858 0.66193 0.0
H1363 H 0.16656 0.69052 0.62475 0.0
C1364 C 0.19873 0.70179 0.6635 0.0
C1365 C 0.21081 0.68967 0.6877 0.0
C1366 C 0.11843 0.59506 0.63892 0.0
C1367 C 0.16422 0.64699 0.64689 0.0
C1368 C 0.09271 0.5747 0.62133 0.0
C1369 C 0.08645 0.58242 0.59156 0.0
C1370 C 0.13791 0.62397 0.62723 0.0
C1371 C 0.1072 0.61098 0.58003 0.0
C1372 C 0.1758 0.68054 0.64291 0.0
C1373 C 0.19931 0.65573 0.69012 0.0
N1374 N 0.1317 0.63094 0.59809 0.0
N1375 N 0.17652 0.63579 0.67032 0.0
loop_
_geom_bond_atom_site_label_1
_geom_bond_atom_site_label_2
_geom_bond_distance
_geom_bond_site_symmetry_2
_ccdc_geom_bond_type
Eu0 C9 2.828 . S
Eu0 O11 2.392 . S
Eu0 O13 2.418 . S
Eu0 O18 2.373 . S
Eu0 O21 2.488 . S
Eu0 O22 2.471 . S
Eu0 O23 2.349 . S
Eu1 O10 2.373 . S
Eu1 O14 2.488 . S
Eu1 O15 2.471 . S
Eu1 O16 2.349 . S
Eu1 O19 2.392 . S
Eu1 O20 2.418 . S
Eu1 C30 2.828 . S
C2 O20 1.244 . S
C2 O23 1.265 . S
C3 C4 1.379 . S
C3 C7 1.373 . S
C3 C9 1.505 . S
C4 C3 1.379 . S
C4 C6 1.369 . S
C4 H32 0.930 . S
C5 C7 1.383 . S
C5 C8 1.382 . S
C5 H33 0.930 . S
C6 C4 1.369 . S
C6 C8 1.392 . S
C6 H34 0.930 . S
C7 C3 1.373 . S
C7 C5 1.383 . S
C7 H35 0.931 . S
C8 C5 1.382 . S
C8 C6 1.392 . S
C9 Eu0 2.828 . S
C9 C3 1.505 . S
C9 O21 1.249 . S
C9 O22 1.244 . S
O10 Eu1 2.373 . S
O10 C12 1.258 . S
O11 Eu0 2.392 . S
O11 C12 1.242 . S
C12 O10 1.258 . S
C12 O11 1.242 . S
O13 Eu0 2.418 . S
O13 C17 1.244 . S
O14 Eu1 2.488 . S
O14 C30 1.249 . S
O15 Eu1 2.471 . S
O15 C30 1.244 . S
O16 Eu1 2.349 . S
O16 C17 1.265 . S
C17 O13 1.244 . S
C17 O16 1.265 . S
O18 Eu0 2.373 . S
O18 C31 1.258 . S
O19 Eu1 2.392 . S
O19 C31 1.242 . S
O20 Eu1 2.418 . S
O20 C2 1.244 . S
O21 Eu0 2.488 . S
O21 C9 1.249 . S
O22 Eu0 2.471 . S
O22 C9 1.244 . S
O23 Eu0 2.349 . S
O23 C2 1.265 . S
C24 C25 1.379 . S
C24 C28 1.373 . S
C24 C30 1.505 . S
C25 C24 1.379 . S
C25 C27 1.369 . S
C25 H36 0.930 . S
C26 C28 1.383 . S
C26 C29 1.382 . S
C26 H37 0.930 . S
C27 C25 1.369 . S
C27 C29 1.392 . S
C27 H38 0.930 . S
C28 C24 1.373 . S
C28 C26 1.383 . S
C28 H39 0.931 . S
C29 C26 1.382 . S
C29 C27 1.392 . S
C30 Eu1 2.828 . S
C30 O14 1.249 . S
C30 O15 1.244 . S
C30 C24 1.505 . S
C31 O18 1.258 . S
C31 O19 1.242 . S
H32 C4 0.930 . S
H33 C5 0.930 . S
H34 C6 0.930 . S
H35 C7 0.931 . S
H36 C25 0.930 . S
H37 C26 0.930 . S
H38 C27 0.930 . S
H39 C28 0.931 . S
Eu40 C49 2.828 . S
Eu40 O51 2.392 . S
Eu40 O53 2.418 . S
Eu40 O58 2.373 . S
Eu40 O61 2.488 . S
Eu40 O62 2.471 . S
Eu40 O63 2.349 . S
Eu41 O50 2.373 . S
Eu41 O54 2.488 . S
Eu41 O55 2.471 . S
Eu41 O56 2.349 . S
Eu41 O59 2.392 . S
Eu41 O60 2.418 . S
Eu41 C70 2.828 . S
C42 O60 1.244 . S
C42 O63 1.265 . S
C43 C44 1.379 . S
C43 C47 1.373 . S
C43 C49 1.505 . S
C44 C43 1.379 . S
C44 C46 1.369 . S
C44 H72 0.930 . S
C45 C47 1.383 . S
C45 C48 1.382 . S
C45 H73 0.930 . S
C46 C44 1.369 . S
C46 C48 1.392 . S
C46 H74 0.930 . S
C47 C43 1.373 . S
C47 C45 1.383 . S
C47 H75 0.931 . S
C48 C45 1.382 . S
C48 C46 1.392 . S
C49 Eu40 2.828 . S
C49 C43 1.505 . S
C49 O61 1.249 . S
C49 O62 1.244 . S
O50 Eu41 2.373 . S
O50 C52 1.258 . S
O51 Eu40 2.392 . S
O51 C52 1.242 . S
C52 O50 1.258 . S
C52 O51 1.242 . S
O53 Eu40 2.418 . S
O53 C57 1.244 . S
O54 Eu41 2.488 . S
O54 C70 1.249 . S
O55 Eu41 2.471 . S
O55 C70 1.244 . S
O56 Eu41 2.349 . S
O56 C57 1.265 . S
C57 O53 1.244 . S
C57 O56 1.265 . S
O58 Eu40 2.373 . S
O58 C71 1.258 . S
O59 Eu41 2.392 . S
O59 C71 1.242 . S
O60 Eu41 2.418 . S
O60 C42 1.244 . S
O61 Eu40 2.488 . S
O61 C49 1.249 . S
O62 Eu40 2.471 . S
O62 C49 1.244 . S
O63 Eu40 2.349 . S
O63 C42 1.265 . S
C64 C65 1.379 . S
C64 C68 1.373 . S
C64 C70 1.505 . S
C65 C64 1.379 . S
C65 C67 1.369 . S
C65 H76 0.930 . S
C66 C68 1.383 . S
C66 C69 1.382 . S
C66 H77 0.930 . S
C67 C65 1.369 . S
C67 C69 1.392 . S
C67 H78 0.930 . S
C68 C64 1.373 . S
C68 C66 1.383 . S
C68 H79 0.931 . S
C69 C66 1.382 . S
C69 C67 1.392 . S
C70 Eu41 2.828 . S
C70 O54 1.249 . S
C70 O55 1.244 . S
C70 C64 1.505 . S
C71 O58 1.258 . S
C71 O59 1.242 . S
H72 C44 0.930 . S
H73 C45 0.930 . S
H74 C46 0.930 . S
H75 C47 0.931 . S
H76 C65 0.930 . S
H77 C66 0.930 . S
H78 C67 0.930 . S
H79 C68 0.931 . S
Eu80 C89 2.828 . S
Eu80 O91 2.392 . S
Eu80 O93 2.418 . S
Eu80 O98 2.373 . S
Eu80 O101 2.488 . S
Eu80 O102 2.471 . S
Eu80 O103 2.349 . S
Eu81 O90 2.373 . S
Eu81 O94 2.488 . S
Eu81 O95 2.471 . S
Eu81 O96 2.349 . S
Eu81 O99 2.392 . S
Eu81 O100 2.418 . S
Eu81 C110 2.828 . S
C82 O100 1.244 . S
C82 O103 1.265 . S
C83 C84 1.379 . S
C83 C87 1.373 . S
C83 C89 1.505 . S
C84 C83 1.379 . S
C84 C86 1.369 . S
C84 H112 0.930 . S
C85 C87 1.383 . S
C85 C88 1.382 . S
C85 H113 0.930 . S
C86 C84 1.369 . S
C86 C88 1.392 . S
C86 H114 0.930 . S
C87 C83 1.373 . S
C87 C85 1.383 . S
C87 H115 0.931 . S
C88 C85 1.382 . S
C88 C86 1.392 . S
C89 Eu80 2.828 . S
C89 C83 1.505 . S
C89 O101 1.249 . S
C89 O102 1.244 . S
O90 Eu81 2.373 . S
O90 C92 1.258 . S
O91 Eu80 2.392 . S
O91 C92 1.242 . S
C92 O90 1.258 . S
C92 O91 1.242 . S
O93 Eu80 2.418 . S
O93 C97 1.244 . S
O94 Eu81 2.488 . S
O94 C110 1.249 . S
O95 Eu81 2.471 . S
O95 C110 1.244 . S
O96 Eu81 2.349 . S
O96 C97 1.265 . S
C97 O93 1.244 . S
C97 O96 1.265 . S
O98 Eu80 2.373 . S
O98 C111 1.258 . S
O99 Eu81 2.392 . S
O99 C111 1.242 . S
O100 Eu81 2.418 . S
O100 C82 1.244 . S
O101 Eu80 2.488 . S
O101 C89 1.249 . S
O102 Eu80 2.471 . S
O102 C89 1.244 . S
O103 Eu80 2.349 . S
O103 C82 1.265 . S
C104 C105 1.379 . S
C104 C108 1.373 . S
C104 C110 1.505 . S
C105 C104 1.379 . S
C105 C107 1.369 . S
C105 H116 0.930 . S
C106 C108 1.383 . S
C106 C109 1.382 . S
C106 H117 0.930 . S
C107 C105 1.369 . S
C107 C109 1.392 . S
C107 H118 0.930 . S
C108 C104 1.373 . S
C108 C106 1.383 . S
C108 H119 0.931 . S
C109 C106 1.382 . S
C109 C107 1.392 . S
C110 Eu81 2.828 . S
C110 O94 1.249 . S
C110 O95 1.244 . S
C110 C104 1.505 . S
C111 O98 1.258 . S
C111 O99 1.242 . S
H112 C84 0.930 . S
H113 C85 0.930 . S
H114 C86 0.930 . S
H115 C87 0.931 . S
H116 C105 0.930 . S
H117 C106 0.930 . S
H118 C107 0.930 . S
H119 C108 0.931 . S
Eu120 C129 2.828 . S
Eu120 O131 2.392 . S
Eu120 O133 2.418 . S
Eu120 O138 2.373 . S
Eu120 O141 2.488 . S
Eu120 O142 2.471 . S
Eu120 O143 2.349 . S
Eu121 O130 2.373 . S
Eu121 O134 2.488 . S
Eu121 O135 2.471 . S
Eu121 O136 2.349 . S
Eu121 O139 2.392 . S
Eu121 O140 2.418 . S
Eu121 C150 2.828 . S
C122 O140 1.244 . S
C122 O143 1.265 . S
C123 C124 1.379 . S
C123 C127 1.373 . S
C123 C129 1.505 . S
C124 C123 1.379 . S
C124 C126 1.369 . S
C124 H152 0.930 . S
C125 C127 1.383 . S
C125 C128 1.382 . S
C125 H153 0.930 . S
C126 C124 1.369 . S
C126 C128 1.392 . S
C126 H154 0.930 . S
C127 C123 1.373 . S
C127 C125 1.383 . S
C127 H155 0.931 . S
C128 C125 1.382 . S
C128 C126 1.392 . S
C129 Eu120 2.828 . S
C129 C123 1.505 . S
C129 O141 1.249 . S
C129 O142 1.244 . S
O130 Eu121 2.373 . S
O130 C132 1.258 . S
O131 Eu120 2.392 . S
O131 C132 1.242 . S
C132 O130 1.258 . S
C132 O131 1.242 . S
O133 Eu120 2.418 . S
O133 C137 1.244 . S
O134 Eu121 2.488 . S
O134 C150 1.249 . S
O135 Eu121 2.471 . S
O135 C150 1.244 . S
O136 Eu121 2.349 . S
O136 C137 1.265 . S
C137 O133 1.244 . S
C137 O136 1.265 . S
O138 Eu120 2.373 . S
O138 C151 1.258 . S
O139 Eu121 2.392 . S
O139 C151 1.242 . S
O140 Eu121 2.418 . S
O140 C122 1.244 . S
O141 Eu120 2.488 . S
O141 C129 1.249 . S
O142 Eu120 2.471 . S
O142 C129 1.244 . S
O143 Eu120 2.349 . S
O143 C122 1.265 . S
C144 C145 1.379 . S
C144 C148 1.373 . S
C144 C150 1.505 . S
C145 C144 1.379 . S
C145 C147 1.369 . S
C145 H156 0.930 . S
C146 C148 1.383 . S
C146 C149 1.382 . S
C146 H157 0.930 . S
C147 C145 1.369 . S
C147 C149 1.392 . S
C147 H158 0.930 . S
C148 C144 1.373 . S
C148 C146 1.383 . S
C148 H159 0.931 . S
C149 C146 1.382 . S
C149 C147 1.392 . S
C150 Eu121 2.828 . S
C150 O134 1.249 . S
C150 O135 1.244 . S
C150 C144 1.505 . S
C151 O138 1.258 . S
C151 O139 1.242 . S
H152 C124 0.930 . S
H153 C125 0.930 . S
H154 C126 0.930 . S
H155 C127 0.931 . S
H156 C145 0.930 . S
H157 C146 0.930 . S
H158 C147 0.930 . S
H159 C148 0.931 . S
Eu160 C169 2.828 . S
Eu160 O171 2.392 . S
Eu160 O173 2.418 . S
Eu160 O178 2.373 . S
Eu160 O181 2.488 . S
Eu160 O182 2.471 . S
Eu160 O183 2.349 . S
Eu161 O170 2.373 . S
Eu161 O174 2.488 . S
Eu161 O175 2.471 . S
Eu161 O176 2.349 . S
Eu161 O179 2.392 . S
Eu161 O180 2.418 . S
Eu161 C190 2.828 . S
C162 O180 1.244 . S
C162 O183 1.265 . S
C163 C164 1.379 . S
C163 C167 1.373 . S
C163 C169 1.505 . S
C164 C163 1.379 . S
C164 C166 1.369 . S
C164 H192 0.930 . S
C165 C167 1.383 . S
C165 C168 1.382 . S
C165 H193 0.930 . S
C166 C164 1.369 . S
C166 C168 1.392 . S
C166 H194 0.930 . S
C167 C163 1.373 . S
C167 C165 1.383 . S
C167 H195 0.931 . S
C168 C165 1.382 . S
C168 C166 1.392 . S
C169 Eu160 2.828 . S
C169 C163 1.505 . S
C169 O181 1.249 . S
C169 O182 1.244 . S
O170 Eu161 2.373 . S
O170 C172 1.258 . S
O171 Eu160 2.392 . S
O171 C172 1.242 . S
C172 O170 1.258 . S
C172 O171 1.242 . S
O173 Eu160 2.418 . S
O173 C177 1.244 . S
O174 Eu161 2.488 . S
O174 C190 1.249 . S
O175 Eu161 2.471 . S
O175 C190 1.244 . S
O176 Eu161 2.349 . S
O176 C177 1.265 . S
C177 O173 1.244 . S
C177 O176 1.265 . S
O178 Eu160 2.373 . S
O178 C191 1.258 . S
O179 Eu161 2.392 . S
O179 C191 1.242 . S
O180 Eu161 2.418 . S
O180 C162 1.244 . S
O181 Eu160 2.488 . S
O181 C169 1.249 . S
O182 Eu160 2.471 . S
O182 C169 1.244 . S
O183 Eu160 2.349 . S
O183 C162 1.265 . S
C184 C185 1.379 . S
C184 C188 1.373 . S
C184 C190 1.505 . S
C185 C184 1.379 . S
C185 C187 1.369 . S
C185 H196 0.930 . S
C186 C188 1.383 . S
C186 C189 1.382 . S
C186 H197 0.930 . S
C187 C185 1.369 . S
C187 C189 1.392 . S
C187 H198 0.930 . S
C188 C184 1.373 . S
C188 C186 1.383 . S
C188 H199 0.931 . S
C189 C186 1.382 . S
C189 C187 1.392 . S
C190 Eu161 2.828 . S
C190 O174 1.249 . S
C190 O175 1.244 . S
C190 C184 1.505 . S
C191 O178 1.258 . S
C191 O179 1.242 . S
H192 C164 0.930 . S
H193 C165 0.930 . S
H194 C166 0.930 . S
H195 C167 0.931 . S
H196 C185 0.930 . S
H197 C186 0.930 . S
H198 C187 0.930 . S
H199 C188 0.931 . S
Eu200 C209 2.828 . S
Eu200 O211 2.392 . S
Eu200 O213 2.418 . S
Eu200 O218 2.373 . S
Eu200 O221 2.488 . S
Eu200 O222 2.471 . S
Eu200 O223 2.349 . S
Eu201 O210 2.373 . S
Eu201 O214 2.488 . S
Eu201 O215 2.471 . S
Eu201 O216 2.349 . S
Eu201 O219 2.392 . S
Eu201 O220 2.418 . S
Eu201 C230 2.828 . S
C202 O220 1.244 . S
C202 O223 1.265 . S
C203 C204 1.379 . S
C203 C207 1.373 . S
C203 C209 1.505 . S
C204 C203 1.379 . S
C204 C206 1.369 . S
C204 H232 0.930 . S
C205 C207 1.383 . S
C205 C208 1.382 . S
C205 H233 0.930 . S
C206 C204 1.369 . S
C206 C208 1.392 . S
C206 H234 0.930 . S
C207 C203 1.373 . S
C207 C205 1.383 . S
C207 H235 0.931 . S
C208 C205 1.382 . S
C208 C206 1.392 . S
C209 Eu200 2.828 . S
C209 C203 1.505 . S
C209 O221 1.249 . S
C209 O222 1.244 . S
O210 Eu201 2.373 . S
O210 C212 1.258 . S
O211 Eu200 2.392 . S
O211 C212 1.242 . S
C212 O210 1.258 . S
C212 O211 1.242 . S
O213 Eu200 2.418 . S
O213 C217 1.244 . S
O214 Eu201 2.488 . S
O214 C230 1.249 . S
O215 Eu201 2.471 . S
O215 C230 1.244 . S
O216 Eu201 2.349 . S
O216 C217 1.265 . S
C217 O213 1.244 . S
C217 O216 1.265 . S
O218 Eu200 2.373 . S
O218 C231 1.258 . S
O219 Eu201 2.392 . S
O219 C231 1.242 . S
O220 Eu201 2.418 . S
O220 C202 1.244 . S
O221 Eu200 2.488 . S
O221 C209 1.249 . S
O222 Eu200 2.471 . S
O222 C209 1.244 . S
O223 Eu200 2.349 . S
O223 C202 1.265 . S
C224 C225 1.379 . S
C224 C228 1.373 . S
C224 C230 1.505 . S
C225 C224 1.379 . S
C225 C227 1.369 . S
C225 H236 0.930 . S
C226 C228 1.383 . S
C226 C229 1.382 . S
C226 H237 0.930 . S
C227 C225 1.369 . S
C227 C229 1.392 . S
C227 H238 0.930 . S
C228 C224 1.373 . S
C228 C226 1.383 . S
C228 H239 0.931 . S
C229 C226 1.382 . S
C229 C227 1.392 . S
C230 Eu201 2.828 . S
C230 O214 1.249 . S
C230 O215 1.244 . S
C230 C224 1.505 . S
C231 O218 1.258 . S
C231 O219 1.242 . S
H232 C204 0.930 . S
H233 C205 0.930 . S
H234 C206 0.930 . S
H235 C207 0.931 . S
H236 C225 0.930 . S
H237 C226 0.930 . S
H238 C227 0.930 . S
H239 C228 0.931 . S
Eu240 C249 2.828 . S
Eu240 O251 2.392 . S
Eu240 O253 2.418 . S
Eu240 O258 2.373 . S
Eu240 O261 2.488 . S
Eu240 O262 2.471 . S
Eu240 O263 2.349 . S
Eu241 O250 2.373 . S
Eu241 O254 2.488 . S
Eu241 O255 2.471 . S
Eu241 O256 2.349 . S
Eu241 O259 2.392 . S
Eu241 O260 2.418 . S
Eu241 C270 2.828 . S
C242 O260 1.244 . S
C242 O263 1.265 . S
C243 C244 1.379 . S
C243 C247 1.373 . S
C243 C249 1.505 . S
C244 C243 1.379 . S
C244 C246 1.369 . S
C244 H272 0.930 . S
C245 C247 1.383 . S
C245 C248 1.382 . S
C245 H273 0.930 . S
C246 C244 1.369 . S
C246 C248 1.392 . S
C246 H274 0.930 . S
C247 C243 1.373 . S
C247 C245 1.383 . S
C247 H275 0.931 . S
C248 C245 1.382 . S
C248 C246 1.392 . S
C249 Eu240 2.828 . S
C249 C243 1.505 . S
C249 O261 1.249 . S
C249 O262 1.244 . S
O250 Eu241 2.373 . S
O250 C252 1.258 . S
O251 Eu240 2.392 . S
O251 C252 1.242 . S
C252 O250 1.258 . S
C252 O251 1.242 . S
O253 Eu240 2.418 . S
O253 C257 1.244 . S
O254 Eu241 2.488 . S
O254 C270 1.249 . S
O255 Eu241 2.471 . S
O255 C270 1.244 . S
O256 Eu241 2.349 . S
O256 C257 1.265 . S
C257 O253 1.244 . S
C257 O256 1.265 . S
O258 Eu240 2.373 . S
O258 C271 1.258 . S
O259 Eu241 2.392 . S
O259 C271 1.242 . S
O260 Eu241 2.418 . S
O260 C242 1.244 . S
O261 Eu240 2.488 . S
O261 C249 1.249 . S
O262 Eu240 2.471 . S
O262 C249 1.244 . S
O263 Eu240 2.349 . S
O263 C242 1.265 . S
C264 C265 1.379 . S
C264 C268 1.373 . S
C264 C270 1.505 . S
C265 C264 1.379 . S
C265 C267 1.369 . S
C265 H276 0.930 . S
C266 C268 1.383 . S
C266 C269 1.382 . S
C266 H277 0.930 . S
C267 C265 1.369 . S
C267 C269 1.392 . S
C267 H278 0.930 . S
C268 C264 1.373 . S
C268 C266 1.383 . S
C268 H279 0.931 . S
C269 C266 1.382 . S
C269 C267 1.392 . S
C270 Eu241 2.828 . S
C270 O254 1.249 . S
C270 O255 1.244 . S
C270 C264 1.505 . S
C271 O258 1.258 . S
C271 O259 1.242 . S
H272 C244 0.930 . S
H273 C245 0.930 . S
H274 C246 0.930 . S
H275 C247 0.931 . S
H276 C265 0.930 . S
H277 C266 0.930 . S
H278 C267 0.930 . S
H279 C268 0.931 . S
Eu280 C289 2.828 . S
Eu280 O291 2.392 . S
Eu280 O293 2.418 . S
Eu280 O298 2.373 . S
Eu280 O301 2.488 . S
Eu280 O302 2.471 . S
Eu280 O303 2.349 . S
Eu281 O290 2.373 . S
Eu281 O294 2.488 . S
Eu281 O295 2.471 . S
Eu281 O296 2.349 . S
Eu281 O299 2.392 . S
Eu281 O300 2.418 . S
Eu281 C310 2.828 . S
C282 O300 1.244 . S
C282 O303 1.265 . S
C283 C284 1.379 . S
C283 C287 1.373 . S
C283 C289 1.505 . S
C284 C283 1.379 . S
C284 C286 1.369 . S
C284 H312 0.930 . S
C285 C287 1.383 . S
C285 C288 1.382 . S
C285 H313 0.930 . S
C286 C284 1.369 . S
C286 C288 1.392 . S
C286 H314 0.930 . S
C287 C283 1.373 . S
C287 C285 1.383 . S
C287 H315 0.931 . S
C288 C285 1.382 . S
C288 C286 1.392 . S
C289 Eu280 2.828 . S
C289 C283 1.505 . S
C289 O301 1.249 . S
C289 O302 1.244 . S
O290 Eu281 2.373 . S
O290 C292 1.258 . S
O291 Eu280 2.392 . S
O291 C292 1.242 . S
C292 O290 1.258 . S
C292 O291 1.242 . S
O293 Eu280 2.418 . S
O293 C297 1.244 . S
O294 Eu281 2.488 . S
O294 C310 1.249 . S
O295 Eu281 2.471 . S
O295 C310 1.244 . S
O296 Eu281 2.349 . S
O296 C297 1.265 . S
C297 O293 1.244 . S
C297 O296 1.265 . S
O298 Eu280 2.373 . S
O298 C311 1.258 . S
O299 Eu281 2.392 . S
O299 C311 1.242 . S
O300 Eu281 2.418 . S
O300 C282 1.244 . S
O301 Eu280 2.488 . S
O301 C289 1.249 . S
O302 Eu280 2.471 . S
O302 C289 1.244 . S
O303 Eu280 2.349 . S
O303 C282 1.265 . S
C304 C305 1.379 . S
C304 C308 1.373 . S
C304 C310 1.505 . S
C305 C304 1.379 . S
C305 C307 1.369 . S
C305 H316 0.930 . S
C306 C308 1.383 . S
C306 C309 1.382 . S
C306 H317 0.930 . S
C307 C305 1.369 . S
C307 C309 1.392 . S
C307 H318 0.930 . S
C308 C304 1.373 . S
C308 C306 1.383 . S
C308 H319 0.931 . S
C309 C306 1.382 . S
C309 C307 1.392 . S
C310 Eu281 2.828 . S
C310 O294 1.249 . S
C310 O295 1.244 . S
C310 C304 1.505 . S
C311 O298 1.258 . S
C311 O299 1.242 . S
H312 C284 0.930 . S
H313 C285 0.930 . S
H314 C286 0.930 . S
H315 C287 0.931 . S
H316 C305 0.930 . S
H317 C306 0.930 . S
H318 C307 0.930 . S
H319 C308 0.931 . S
Fe320 O321 1.886 1_455 S
Fe320 O324 1.715 . S
Fe320 O329 2.077 1_455 S
Fe320 O334 1.935 . S
Fe320 O340 2.077 1_455 S
Fe320 O349 1.935 . S
O321 Fe320 1.886 1_655 S
O321 Fe323 1.715 1_545 S
Fe322 O324 1.886 . S
Fe322 O325 1.715 1_545 S
Fe322 O332 1.935 1_545 S
Fe322 O333 2.077 . S
Fe322 O339 1.935 1_545 S
Fe322 O348 2.077 . S
Fe323 O321 1.715 1_565 S
Fe323 O326 1.886 . S
Fe323 O330 1.935 1_565 S
Fe323 O335 2.077 . S
Fe323 O341 1.935 1_565 S
Fe323 O345 2.077 . S
O324 Fe320 1.715 . S
O324 Fe322 1.886 . S
O325 Fe322 1.715 1_565 S
O325 Fe327 1.886 1_455 S
O326 Fe323 1.886 . S
O326 Fe327 1.715 . S
Fe327 O325 1.886 1_655 S
Fe327 O326 1.715 . S
Fe327 O331 2.077 1_655 S
Fe327 O336 1.935 . S
Fe327 O338 2.077 1_655 S
Fe327 O346 1.935 . S
C328 O340 1.381 . S
C328 O341 1.421 . S
O329 Fe320 2.077 1_655 S
O329 C342 1.381 . S
O330 Fe323 1.935 1_545 S
O330 C342 1.421 . S
O331 Fe327 2.077 1_455 S
O331 C347 1.381 . S
O332 Fe322 1.935 1_565 S
O332 C347 1.421 . S
O333 Fe322 2.077 . S
O333 C337 1.381 . S
O334 Fe320 1.935 . S
O334 C337 1.421 . S
O335 Fe323 2.077 . S
O335 C343 1.381 . S
O336 Fe327 1.935 . S
O336 C343 1.421 . S
C337 O333 1.381 . S
C337 O334 1.421 . S
O338 Fe327 2.077 1_455 S
O338 C350 1.381 . S
O339 Fe322 1.935 1_565 S
O339 C350 1.421 . S
O340 Fe320 2.077 1_655 S
O340 C328 1.381 . S
O341 Fe323 1.935 1_545 S
O341 C328 1.421 . S
C342 O329 1.381 . S
C342 O330 1.421 . S
C343 O335 1.381 . S
C343 O336 1.421 . S
C344 O345 1.381 . S
C344 O346 1.421 . S
O345 Fe323 2.077 . S
O345 C344 1.381 . S
O346 Fe327 1.935 . S
O346 C344 1.421 . S
C347 O331 1.381 . S
C347 O332 1.421 . S
O348 Fe322 2.077 . S
O348 C351 1.381 . S
O349 Fe320 1.935 . S
O349 C351 1.421 . S
C350 O338 1.381 . S
C350 O339 1.421 . S
C351 O348 1.381 . S
C351 O349 1.421 . S
Fe352 O353 1.886 . S
Fe352 O356 1.715 . S
Fe352 O361 2.077 . S
Fe352 O366 1.935 . S
Fe352 O372 2.077 1_556 S
Fe352 O381 1.935 1_556 S
O353 Fe352 1.886 . S
O353 Fe355 1.715 1_565 S
Fe354 O356 1.886 1_554 S
Fe354 O357 1.715 1_565 S
Fe354 O364 1.935 1_564 S
Fe354 O365 2.077 1_554 S
Fe354 O371 1.935 1_565 S
Fe354 O380 2.077 . S
Fe355 O353 1.715 1_545 S
Fe355 O358 1.886 1_556 S
Fe355 O362 1.935 1_545 S
Fe355 O367 2.077 . S
Fe355 O373 1.935 1_546 S
Fe355 O377 2.077 1_556 S
O356 Fe352 1.715 . S
O356 Fe354 1.886 1_556 S
O357 Fe354 1.715 1_545 S
O357 Fe359 1.886 . S
O358 Fe355 1.886 1_554 S
O358 Fe359 1.715 . S
Fe359 O357 1.886 . S
Fe359 O358 1.715 . S
Fe359 O363 2.077 1_554 S
Fe359 O368 1.935 1_554 S
Fe359 O370 2.077 . S
Fe359 O378 1.935 . S
C360 O372 1.381 . S
C360 O373 1.421 . S
O361 Fe352 2.077 . S
O361 C374 1.381 . S
O362 Fe355 1.935 1_565 S
O362 C374 1.421 . S
O363 Fe359 2.077 1_556 S
O363 C379 1.381 . S
O364 Fe354 1.935 1_546 S
O364 C379 1.421 . S
O365 Fe354 2.077 1_556 S
O365 C369 1.381 . S
O366 Fe352 1.935 . S
O366 C369 1.421 . S
O367 Fe355 2.077 . S
O367 C375 1.381 . S
O368 Fe359 1.935 1_556 S
O368 C375 1.421 . S
C369 O365 1.381 . S
C369 O366 1.421 . S
O370 Fe359 2.077 . S
O370 C382 1.381 . S
O371 Fe354 1.935 1_545 S
O371 C382 1.421 . S
O372 Fe352 2.077 1_554 S
O372 C360 1.381 . S
O373 Fe355 1.935 1_564 S
O373 C360 1.421 . S
C374 O361 1.381 . S
C374 O362 1.421 . S
C375 O367 1.381 . S
C375 O368 1.421 . S
C376 O377 1.381 . S
C376 O378 1.421 . S
O377 Fe355 2.077 1_554 S
O377 C376 1.381 . S
O378 Fe359 1.935 . S
O378 C376 1.421 . S
C379 O363 1.381 . S
C379 O364 1.421 . S
O380 Fe354 2.077 . S
O380 C383 1.381 . S
O381 Fe352 1.935 1_554 S
O381 C383 1.421 . S
C382 O370 1.381 . S
C382 O371 1.421 . S
C383 O380 1.381 . S
C383 O381 1.421 . S
Fe384 O385 1.886 1_455 S
Fe384 O388 1.715 . S
Fe384 O393 2.077 1_454 S
Fe384 O398 1.935 1_554 S
Fe384 O404 2.077 1_455 S
Fe384 O413 1.935 . S
O385 Fe384 1.886 1_655 S
O385 Fe387 1.715 . S
Fe386 O388 1.886 1_556 S
Fe386 O389 1.715 . S
Fe386 O396 1.935 . S
Fe386 O397 2.077 . S
Fe386 O403 1.935 1_556 S
Fe386 O412 2.077 1_556 S
Fe387 O385 1.715 . S
Fe387 O390 1.886 1_554 S
Fe387 O394 1.935 1_554 S
Fe387 O399 2.077 1_554 S
Fe387 O405 1.935 . S
Fe387 O409 2.077 . S
O388 Fe384 1.715 . S
O388 Fe386 1.886 1_554 S
O389 Fe386 1.715 . S
O389 Fe391 1.886 1_455 S
O390 Fe387 1.886 1_556 S
O390 Fe391 1.715 . S
Fe391 O389 1.886 1_655 S
Fe391 O390 1.715 . S
Fe391 O395 2.077 1_655 S
Fe391 O400 1.935 . S
Fe391 O402 2.077 1_656 S
Fe391 O410 1.935 1_556 S
C392 O404 1.381 . S
C392 O405 1.421 . S
O393 Fe384 2.077 1_656 S
O393 C406 1.381 . S
O394 Fe387 1.935 1_556 S
O394 C406 1.421 . S
O395 Fe391 2.077 1_455 S
O395 C411 1.381 . S
O396 Fe386 1.935 . S
O396 C411 1.421 . S
O397 Fe386 2.077 . S
O397 C401 1.381 . S
O398 Fe384 1.935 1_556 S
O398 C401 1.421 . S
O399 Fe387 2.077 1_556 S
O399 C407 1.381 . S
O400 Fe391 1.935 . S
O400 C407 1.421 . S
C401 O397 1.381 . S
C401 O398 1.421 . S
O402 Fe391 2.077 1_454 S
O402 C414 1.381 . S
O403 Fe386 1.935 1_554 S
O403 C414 1.421 . S
O404 Fe384 2.077 1_655 S
O404 C392 1.381 . S
O405 Fe387 1.935 . S
O405 C392 1.421 . S
C406 O393 1.381 . S
C406 O394 1.421 . S
C407 O399 1.381 . S
C407 O400 1.421 . S
C408 O409 1.381 . S
C408 O410 1.421 . S
O409 Fe387 2.077 . S
O409 C408 1.381 . S
O410 Fe391 1.935 1_554 S
O410 C408 1.421 . S
C411 O395 1.381 . S
C411 O396 1.421 . S
O412 Fe386 2.077 1_554 S
O412 C415 1.381 . S
O413 Fe384 1.935 . S
O413 C415 1.421 . S
C414 O402 1.381 . S
C414 O403 1.421 . S
C415 O412 1.381 . S
C415 O413 1.421 . S
Fe416 O417 1.886 . S
Fe416 O420 1.715 . S
Fe416 O425 2.077 . S
Fe416 O430 1.935 . S
Fe416 O436 2.077 . S
Fe416 O445 1.935 . S
O417 Fe416 1.886 . S
O417 Fe419 1.715 . S
Fe418 O420 1.886 1_554 S
Fe418 O421 1.715 . S
Fe418 O428 1.935 . S
Fe418 O429 2.077 1_554 S
Fe418 O435 1.935 . S
Fe418 O444 2.077 1_554 S
Fe419 O417 1.715 . S
Fe419 O422 1.886 1_556 S
Fe419 O426 1.935 . S
Fe419 O431 2.077 1_556 S
Fe419 O437 1.935 . S
Fe419 O441 2.077 1_556 S
O420 Fe416 1.715 . S
O420 Fe418 1.886 1_556 S
O421 Fe418 1.715 . S
O421 Fe423 1.886 . S
O422 Fe419 1.886 1_554 S
O422 Fe423 1.715 . S
Fe423 O421 1.886 . S
Fe423 O422 1.715 . S
Fe423 O427 2.077 . S
Fe423 O432 1.935 . S
Fe423 O434 2.077 . S
Fe423 O442 1.935 . S
C424 O436 1.381 . S
C424 O437 1.421 . S
O425 Fe416 2.077 . S
O425 C438 1.381 . S
O426 Fe419 1.935 . S
O426 C438 1.421 . S
O427 Fe423 2.077 . S
O427 C443 1.381 . S
O428 Fe418 1.935 . S
O428 C443 1.421 . S
O429 Fe418 2.077 1_556 S
O429 C433 1.381 . S
O430 Fe416 1.935 . S
O430 C433 1.421 . S
O431 Fe419 2.077 1_554 S
O431 C439 1.381 . S
O432 Fe423 1.935 . S
O432 C439 1.421 . S
C433 O429 1.381 . S
C433 O430 1.421 . S
O434 Fe423 2.077 . S
O434 C446 1.381 . S
O435 Fe418 1.935 . S
O435 C446 1.421 . S
O436 Fe416 2.077 . S
O436 C424 1.381 . S
O437 Fe419 1.935 . S
O437 C424 1.421 . S
C438 O425 1.381 . S
C438 O426 1.421 . S
C439 O431 1.381 . S
C439 O432 1.421 . S
C440 O441 1.381 . S
C440 O442 1.421 . S
O441 Fe419 2.077 1_554 S
O441 C440 1.381 . S
O442 Fe423 1.935 . S
O442 C440 1.421 . S
C443 O427 1.381 . S
C443 O428 1.421 . S
O444 Fe418 2.077 1_556 S
O444 C447 1.381 . S
O445 Fe416 1.935 . S
O445 C447 1.421 . S
C446 O434 1.381 . S
C446 O435 1.421 . S
C447 O444 1.381 . S
C447 O445 1.421 . S
Fe448 O449 1.886 . S
Fe448 O452 1.715 . S
Fe448 O457 2.077 1_655 S
Fe448 O462 1.935 1_655 S
Fe448 O468 2.077 . S
Fe448 O477 1.935 . S
O449 Fe448 1.886 . S
O449 Fe451 1.715 . S
Fe450 O452 1.886 1_455 S
Fe450 O453 1.715 . S
Fe450 O460 1.935 . S
Fe450 O461 2.077 . S
Fe450 O467 1.935 1_455 S
Fe450 O476 2.077 1_455 S
Fe451 O449 1.715 . S
Fe451 O454 1.886 1_655 S
Fe451 O458 1.935 1_655 S
Fe451 O463 2.077 1_655 S
Fe451 O469 1.935 . S
Fe451 O473 2.077 . S
O452 Fe448 1.715 . S
O452 Fe450 1.886 1_655 S
O453 Fe450 1.715 . S
O453 Fe455 1.886 . S
O454 Fe451 1.886 1_455 S
O454 Fe455 1.715 . S
Fe455 O453 1.886 . S
Fe455 O454 1.715 . S
Fe455 O459 2.077 . S
Fe455 O464 1.935 . S
Fe455 O466 2.077 1_455 S
Fe455 O474 1.935 1_455 S
C456 O468 1.381 . S
C456 O469 1.421 . S
O457 Fe448 2.077 1_455 S
O457 C470 1.381 . S
O458 Fe451 1.935 1_455 S
O458 C470 1.421 . S
O459 Fe455 2.077 . S
O459 C475 1.381 . S
O460 Fe450 1.935 . S
O460 C475 1.421 . S
O461 Fe450 2.077 . S
O461 C465 1.381 . S
O462 Fe448 1.935 1_455 S
O462 C465 1.421 . S
O463 Fe451 2.077 1_455 S
O463 C471 1.381 . S
O464 Fe455 1.935 . S
O464 C471 1.421 . S
C465 O461 1.381 . S
C465 O462 1.421 . S
O466 Fe455 2.077 1_655 S
O466 C478 1.381 . S
O467 Fe450 1.935 1_655 S
O467 C478 1.421 . S
O468 Fe448 2.077 . S
O468 C456 1.381 . S
O469 Fe451 1.935 . S
O469 C456 1.421 . S
C470 O457 1.381 . S
C470 O458 1.421 . S
C471 O463 1.381 . S
C471 O464 1.421 . S
C472 O473 1.381 . S
C472 O474 1.421 . S
O473 Fe451 2.077 . S
O473 C472 1.381 . S
O474 Fe455 1.935 1_655 S
O474 C472 1.421 . S
C475 O459 1.381 . S
C475 O460 1.421 . S
O476 Fe450 2.077 1_655 S
O476 C479 1.381 . S
O477 Fe448 1.935 . S
O477 C479 1.421 . S
C478 O466 1.381 . S
C478 O467 1.421 . S
C479 O476 1.381 . S
C479 O477 1.421 . S
Fe480 O481 1.886 . S
Fe480 O484 1.715 . S
Fe480 O489 2.077 . S
Fe480 O494 1.935 . S
Fe480 O500 2.077 . S
Fe480 O509 1.935 . S
O481 Fe480 1.886 . S
O481 Fe483 1.715 1_565 S
Fe482 O484 1.886 . S
Fe482 O485 1.715 1_565 S
Fe482 O492 1.935 1_565 S
Fe482 O493 2.077 . S
Fe482 O499 1.935 1_565 S
Fe482 O508 2.077 . S
Fe483 O481 1.715 1_545 S
Fe483 O486 1.886 . S
Fe483 O490 1.935 1_545 S
Fe483 O495 2.077 . S
Fe483 O501 1.935 1_545 S
Fe483 O505 2.077 . S
O484 Fe480 1.715 . S
O484 Fe482 1.886 . S
O485 Fe482 1.715 1_545 S
O485 Fe487 1.886 . S
O486 Fe483 1.886 . S
O486 Fe487 1.715 . S
Fe487 O485 1.886 . S
Fe487 O486 1.715 . S
Fe487 O491 2.077 . S
Fe487 O496 1.935 . S
Fe487 O498 2.077 . S
Fe487 O506 1.935 . S
C488 O500 1.381 . S
C488 O501 1.421 . S
O489 Fe480 2.077 . S
O489 C502 1.381 . S
O490 Fe483 1.935 1_565 S
O490 C502 1.421 . S
O491 Fe487 2.077 . S
O491 C507 1.381 . S
O492 Fe482 1.935 1_545 S
O492 C507 1.421 . S
O493 Fe482 2.077 . S
O493 C497 1.381 . S
O494 Fe480 1.935 . S
O494 C497 1.421 . S
O495 Fe483 2.077 . S
O495 C503 1.381 . S
O496 Fe487 1.935 . S
O496 C503 1.421 . S
C497 O493 1.381 . S
C497 O494 1.421 . S
O498 Fe487 2.077 . S
O498 C510 1.381 . S
O499 Fe482 1.935 1_545 S
O499 C510 1.421 . S
O500 Fe480 2.077 . S
O500 C488 1.381 . S
O501 Fe483 1.935 1_565 S
O501 C488 1.421 . S
C502 O489 1.381 . S
C502 O490 1.421 . S
C503 O495 1.381 . S
C503 O496 1.421 . S
C504 O505 1.381 . S
C504 O506 1.421 . S
O505 Fe483 2.077 . S
O505 C504 1.381 . S
O506 Fe487 1.935 . S
O506 C504 1.421 . S
C507 O491 1.381 . S
C507 O492 1.421 . S
O508 Fe482 2.077 . S
O508 C511 1.381 . S
O509 Fe480 1.935 . S
O509 C511 1.421 . S
C510 O498 1.381 . S
C510 O499 1.421 . S
C511 O508 1.381 . S
C511 O509 1.421 . S
H512 C518 0.930 . S
H513 C522 0.930 . S
H514 C527 0.929 . S
H515 C525 0.929 . S
H516 C520 0.929 . S
H517 C526 0.929 . S
C518 H512 0.930 . S
C518 C519 1.367 . S
C518 C526 1.378 . S
C519 C518 1.367 . S
C519 C527 1.433 . S
C520 H516 0.929 . S
C520 C522 1.378 . S
C520 C524 1.350 . S
C521 C524 1.463 . S
C521 C526 1.350 . S
C521 N529 1.427 . S
C522 H513 0.930 . S
C522 C520 1.378 . S
C522 C523 1.367 . S
C523 C522 1.367 . S
C523 C525 1.433 . S
C524 C520 1.350 . S
C524 C521 1.463 . S
C524 N528 1.427 . S
C525 H515 0.929 . S
C525 C523 1.433 . S
C525 N528 1.384 . S
C526 H517 0.929 . S
C526 C518 1.378 . S
C526 C521 1.350 . S
C527 H514 0.929 . S
C527 C519 1.433 . S
C527 N529 1.384 . S
N528 C524 1.427 . S
N528 C525 1.384 . S
N529 C521 1.427 . S
N529 C527 1.384 . S
H530 C536 0.930 . S
H531 C540 0.930 . S
H532 C545 0.929 . S
H533 C543 0.929 . S
H534 C538 0.929 . S
H535 C544 0.929 . S
C536 H530 0.930 . S
C536 C537 1.367 . S
C536 C544 1.378 . S
C537 C536 1.367 . S
C537 C545 1.433 . S
C538 H534 0.929 . S
C538 C540 1.378 . S
C538 C542 1.350 . S
C539 C542 1.463 . S
C539 C544 1.350 . S
C539 N547 1.427 . S
C540 H531 0.930 . S
C540 C538 1.378 . S
C540 C541 1.367 . S
C541 C540 1.367 . S
C541 C543 1.433 . S
C542 C538 1.350 . S
C542 C539 1.463 . S
C542 N546 1.427 . S
C543 H533 0.929 . S
C543 C541 1.433 . S
C543 N546 1.384 . S
C544 H535 0.929 . S
C544 C536 1.378 . S
C544 C539 1.350 . S
C545 H532 0.929 . S
C545 C537 1.433 . S
C545 N547 1.384 . S
N546 C542 1.427 . S
N546 C543 1.384 . S
N547 C539 1.427 . S
N547 C545 1.384 . S
H548 C554 0.930 . S
H549 C558 0.930 . S
H550 C563 0.929 . S
H551 C561 0.929 . S
H552 C556 0.929 . S
H553 C562 0.929 . S
C554 H548 0.930 . S
C554 C555 1.367 . S
C554 C562 1.378 . S
C555 C554 1.367 . S
C555 C563 1.433 . S
C556 H552 0.929 . S
C556 C558 1.378 . S
C556 C560 1.350 . S
C557 C560 1.463 . S
C557 C562 1.350 . S
C557 N565 1.427 . S
C558 H549 0.930 . S
C558 C556 1.378 . S
C558 C559 1.367 . S
C559 C558 1.367 . S
C559 C561 1.433 . S
C560 C556 1.350 . S
C560 C557 1.463 . S
C560 N564 1.427 . S
C561 H551 0.929 . S
C561 C559 1.433 . S
C561 N564 1.384 . S
C562 H553 0.929 . S
C562 C554 1.378 . S
C562 C557 1.350 . S
C563 H550 0.929 . S
C563 C555 1.433 . S
C563 N565 1.384 . S
N564 C560 1.427 . S
N564 C561 1.384 . S
N565 C557 1.427 . S
N565 C563 1.384 . S
H566 C572 0.930 . S
H567 C576 0.930 . S
H568 C581 0.929 . S
H569 C579 0.929 . S
H570 C574 0.929 . S
H571 C580 0.929 . S
C572 H566 0.930 . S
C572 C573 1.367 . S
C572 C580 1.378 . S
C573 C572 1.367 . S
C573 C581 1.433 . S
C574 H570 0.929 . S
C574 C576 1.378 . S
C574 C578 1.350 . S
C575 C578 1.463 . S
C575 C580 1.350 . S
C575 N583 1.427 . S
C576 H567 0.930 . S
C576 C574 1.378 . S
C576 C577 1.367 . S
C577 C576 1.367 . S
C577 C579 1.433 . S
C578 C574 1.350 . S
C578 C575 1.463 . S
C578 N582 1.427 . S
C579 H569 0.929 . S
C579 C577 1.433 . S
C579 N582 1.384 . S
C580 H571 0.929 . S
C580 C572 1.378 . S
C580 C575 1.350 . S
C581 H568 0.929 . S
C581 C573 1.433 . S
C581 N583 1.384 . S
N582 C578 1.427 . S
N582 C579 1.384 . S
N583 C575 1.427 . S
N583 C581 1.384 . S
H584 C590 0.930 . S
H585 C594 0.930 . S
H586 C599 0.929 . S
H587 C597 0.929 . S
H588 C592 0.929 . S
H589 C598 0.929 . S
C590 H584 0.930 . S
C590 C591 1.367 . S
C590 C598 1.378 . S
C591 C590 1.367 . S
C591 C599 1.433 . S
C592 H588 0.929 . S
C592 C594 1.378 . S
C592 C596 1.350 . S
C593 C596 1.463 . S
C593 C598 1.350 . S
C593 N601 1.427 . S
C594 H585 0.930 . S
C594 C592 1.378 . S
C594 C595 1.367 . S
C595 C594 1.367 . S
C595 C597 1.433 . S
C596 C592 1.350 . S
C596 C593 1.463 . S
C596 N600 1.427 . S
C597 H587 0.929 . S
C597 C595 1.433 . S
C597 N600 1.384 . S
C598 H589 0.929 . S
C598 C590 1.378 . S
C598 C593 1.350 . S
C599 H586 0.929 . S
C599 C591 1.433 . S
C599 N601 1.384 . S
N600 C596 1.427 . S
N600 C597 1.384 . S
N601 C593 1.427 . S
N601 C599 1.384 . S
H602 C608 0.930 . S
H603 C612 0.930 . S
H604 C617 0.929 . S
H605 C615 0.929 . S
H606 C610 0.929 . S
H607 C616 0.929 . S
C608 H602 0.930 . S
C608 C609 1.367 . S
C608 C616 1.378 . S
C609 C608 1.367 . S
C609 C617 1.433 . S
C610 H606 0.929 . S
C610 C612 1.378 . S
C610 C614 1.350 . S
C611 C614 1.463 . S
C611 C616 1.350 . S
C611 N619 1.427 . S
C612 H603 0.930 . S
C612 C610 1.378 . S
C612 C613 1.367 . S
C613 C612 1.367 . S
C613 C615 1.433 . S
C614 C610 1.350 . S
C614 C611 1.463 . S
C614 N618 1.427 . S
C615 H605 0.929 . S
C615 C613 1.433 . S
C615 N618 1.384 . S
C616 H607 0.929 . S
C616 C608 1.378 . S
C616 C611 1.350 . S
C617 H604 0.929 . S
C617 C609 1.433 . S
C617 N619 1.384 . S
N618 C614 1.427 . S
N618 C615 1.384 . S
N619 C611 1.427 . S
N619 C617 1.384 . S
H620 C626 0.930 . S
H621 C630 0.930 . S
H622 C635 0.929 . S
H623 C633 0.929 . S
H624 C628 0.929 . S
H625 C634 0.929 . S
C626 H620 0.930 . S
C626 C627 1.367 . S
C626 C634 1.378 . S
C627 C626 1.367 . S
C627 C635 1.433 . S
C628 H624 0.929 . S
C628 C630 1.378 . S
C628 C632 1.350 . S
C629 C632 1.463 . S
C629 C634 1.350 . S
C629 N637 1.427 . S
C630 H621 0.930 . S
C630 C628 1.378 . S
C630 C631 1.367 . S
C631 C630 1.367 . S
C631 C633 1.433 . S
C632 C628 1.350 . S
C632 C629 1.463 . S
C632 N636 1.427 . S
C633 H623 0.929 . S
C633 C631 1.433 . S
C633 N636 1.384 . S
C634 H625 0.929 . S
C634 C626 1.378 . S
C634 C629 1.350 . S
C635 H622 0.929 . S
C635 C627 1.433 . S
C635 N637 1.384 . S
N636 C632 1.427 . S
N636 C633 1.384 . S
N637 C629 1.427 . S
N637 C635 1.384 . S
H638 C644 0.930 . S
H639 C648 0.930 . S
H640 C653 0.929 . S
H641 C651 0.929 . S
H642 C646 0.929 . S
H643 C652 0.929 . S
C644 H638 0.930 . S
C644 C645 1.367 . S
C644 C652 1.378 . S
C645 C644 1.367 . S
C645 C653 1.433 . S
C646 H642 0.929 . S
C646 C648 1.378 . S
C646 C650 1.350 . S
C647 C650 1.463 . S
C647 C652 1.350 . S
C647 N655 1.427 . S
C648 H639 0.930 . S
C648 C646 1.378 . S
C648 C649 1.367 . S
C649 C648 1.367 . S
C649 C651 1.433 . S
C650 C646 1.350 . S
C650 C647 1.463 . S
C650 N654 1.427 . S
C651 H641 0.929 . S
C651 C649 1.433 . S
C651 N654 1.384 . S
C652 H643 0.929 . S
C652 C644 1.378 . S
C652 C647 1.350 . S
C653 H640 0.929 . S
C653 C645 1.433 . S
C653 N655 1.384 . S
N654 C650 1.427 . S
N654 C651 1.384 . S
N655 C647 1.427 . S
N655 C653 1.384 . S
H656 C662 0.930 . S
H657 C666 0.930 . S
H658 C671 0.929 . S
H659 C669 0.929 . S
H660 C664 0.929 . S
H661 C670 0.929 . S
C662 H656 0.930 . S
C662 C663 1.367 . S
C662 C670 1.378 . S
C663 C662 1.367 . S
C663 C671 1.433 . S
C664 H660 0.929 . S
C664 C666 1.378 . S
C664 C668 1.350 . S
C665 C668 1.463 . S
C665 C670 1.350 . S
C665 N673 1.427 . S
C666 H657 0.930 . S
C666 C664 1.378 . S
C666 C667 1.367 . S
C667 C666 1.367 . S
C667 C669 1.433 . S
C668 C664 1.350 . S
C668 C665 1.463 . S
C668 N672 1.427 . S
C669 H659 0.929 . S
C669 C667 1.433 . S
C669 N672 1.384 . S
C670 H661 0.929 . S
C670 C662 1.378 . S
C670 C665 1.350 . S
C671 H658 0.929 . S
C671 C663 1.433 . S
C671 N673 1.384 . S
N672 C668 1.427 . S
N672 C669 1.384 . S
N673 C665 1.427 . S
N673 C671 1.384 . S
H674 C680 0.930 . S
H675 C684 0.930 . S
H676 C689 0.929 . S
H677 C687 0.929 . S
H678 C682 0.929 . S
H679 C688 0.929 . S
C680 H674 0.930 . S
C680 C681 1.367 . S
C680 C688 1.378 . S
C681 C680 1.367 . S
C681 C689 1.433 . S
C682 H678 0.929 . S
C682 C684 1.378 . S
C682 C686 1.350 . S
C683 C686 1.463 . S
C683 C688 1.350 . S
C683 N691 1.427 . S
C684 H675 0.930 . S
C684 C682 1.378 . S
C684 C685 1.367 . S
C685 C684 1.367 . S
C685 C687 1.433 . S
C686 C682 1.350 . S
C686 C683 1.463 . S
C686 N690 1.427 . S
C687 H677 0.929 . S
C687 C685 1.433 . S
C687 N690 1.384 . S
C688 H679 0.929 . S
C688 C680 1.378 . S
C688 C683 1.350 . S
C689 H676 0.929 . S
C689 C681 1.433 . S
C689 N691 1.384 . S
N690 C686 1.427 . S
N690 C687 1.384 . S
N691 C683 1.427 . S
N691 C689 1.384 . S
H692 C698 0.930 . S
H693 C702 0.930 . S
H694 C707 0.929 . S
H695 C705 0.929 . S
H696 C700 0.929 . S
H697 C706 0.929 . S
C698 H692 0.930 . S
C698 C699 1.367 . S
C698 C706 1.378 . S
C699 C698 1.367 . S
C699 C707 1.433 . S
C700 H696 0.929 . S
C700 C702 1.378 . S
C700 C704 1.350 . S
C701 C704 1.463 . S
C701 C706 1.350 . S
C701 N709 1.427 . S
C702 H693 0.930 . S
C702 C700 1.378 . S
C702 C703 1.367 . S
C703 C702 1.367 . S
C703 C705 1.433 . S
C704 C700 1.350 . S
C704 C701 1.463 . S
C704 N708 1.427 . S
C705 H695 0.929 . S
C705 C703 1.433 . S
C705 N708 1.384 . S
C706 H697 0.929 . S
C706 C698 1.378 . S
C706 C701 1.350 . S
C707 H694 0.929 . S
C707 C699 1.433 . S
C707 N709 1.384 . S
N708 C704 1.427 . S
N708 C705 1.384 . S
N709 C701 1.427 . S
N709 C707 1.384 . S
H710 C716 0.930 . S
H711 C720 0.930 . S
H712 C725 0.929 . S
H713 C723 0.929 . S
H714 C718 0.929 . S
H715 C724 0.929 . S
C716 H710 0.930 . S
C716 C717 1.367 . S
C716 C724 1.378 . S
C717 C716 1.367 . S
C717 C725 1.433 . S
C718 H714 0.929 . S
C718 C720 1.378 . S
C718 C722 1.350 . S
C719 C722 1.463 . S
C719 C724 1.350 . S
C719 N727 1.427 . S
C720 H711 0.930 . S
C720 C718 1.378 . S
C720 C721 1.367 . S
C721 C720 1.367 . S
C721 C723 1.433 . S
C722 C718 1.350 . S
C722 C719 1.463 . S
C722 N726 1.427 . S
C723 H713 0.929 . S
C723 C721 1.433 . S
C723 N726 1.384 . S
C724 H715 0.929 . S
C724 C716 1.378 . S
C724 C719 1.350 . S
C725 H712 0.929 . S
C725 C717 1.433 . S
C725 N727 1.384 . S
N726 C722 1.427 . S
N726 C723 1.384 . S
N727 C719 1.427 . S
N727 C725 1.384 . S
H728 C734 0.930 . S
H729 C738 0.930 . S
H730 C743 0.929 . S
H731 C741 0.929 . S
H732 C736 0.929 . S
H733 C742 0.929 . S
C734 H728 0.930 . S
C734 C735 1.367 . S
C734 C742 1.378 . S
C735 C734 1.367 . S
C735 C743 1.433 . S
C736 H732 0.929 . S
C736 C738 1.378 . S
C736 C740 1.350 . S
C737 C740 1.463 . S
C737 C742 1.350 . S
C737 N745 1.427 . S
C738 H729 0.930 . S
C738 C736 1.378 . S
C738 C739 1.367 . S
C739 C738 1.367 . S
C739 C741 1.433 . S
C740 C736 1.350 . S
C740 C737 1.463 . S
C740 N744 1.427 . S
C741 H731 0.929 . S
C741 C739 1.433 . S
C741 N744 1.384 . S
C742 H733 0.929 . S
C742 C734 1.378 . S
C742 C737 1.350 . S
C743 H730 0.929 . S
C743 C735 1.433 . S
C743 N745 1.384 . S
N744 C740 1.427 . S
N744 C741 1.384 . S
N745 C737 1.427 . S
N745 C743 1.384 . S
H746 C752 0.930 . S
H747 C756 0.930 . S
H748 C761 0.929 . S
H749 C759 0.929 . S
H750 C754 0.929 . S
H751 C760 0.929 . S
C752 H746 0.930 . S
C752 C753 1.367 . S
C752 C760 1.378 . S
C753 C752 1.367 . S
C753 C761 1.433 . S
C754 H750 0.929 . S
C754 C756 1.378 . S
C754 C758 1.350 . S
C755 C758 1.463 . S
C755 C760 1.350 . S
C755 N763 1.427 . S
C756 H747 0.930 . S
C756 C754 1.378 . S
C756 C757 1.367 . S
C757 C756 1.367 . S
C757 C759 1.433 . S
C758 C754 1.350 . S
C758 C755 1.463 . S
C758 N762 1.427 . S
C759 H749 0.929 . S
C759 C757 1.433 . S
C759 N762 1.384 . S
C760 H751 0.929 . S
C760 C752 1.378 . S
C760 C755 1.350 . S
C761 H748 0.929 . S
C761 C753 1.433 . S
C761 N763 1.384 . S
N762 C758 1.427 . S
N762 C759 1.384 . S
N763 C755 1.427 . S
N763 C761 1.384 . S
H764 C770 0.930 . S
H765 C774 0.930 . S
H766 C779 0.929 . S
H767 C777 0.929 . S
H768 C772 0.929 . S
H769 C778 0.929 . S
C770 H764 0.930 . S
C770 C771 1.367 . S
C770 C778 1.378 . S
C771 C770 1.367 . S
C771 C779 1.433 . S
C772 H768 0.929 . S
C772 C774 1.378 . S
C772 C776 1.350 . S
C773 C776 1.463 . S
C773 C778 1.350 . S
C773 N781 1.427 . S
C774 H765 0.930 . S
C774 C772 1.378 . S
C774 C775 1.367 . S
C775 C774 1.367 . S
C775 C777 1.433 . S
C776 C772 1.350 . S
C776 C773 1.463 . S
C776 N780 1.427 . S
C777 H767 0.929 . S
C777 C775 1.433 . S
C777 N780 1.384 . S
C778 H769 0.929 . S
C778 C770 1.378 . S
C778 C773 1.350 . S
C779 H766 0.929 . S
C779 C771 1.433 . S
C779 N781 1.384 . S
N780 C776 1.427 . S
N780 C777 1.384 . S
N781 C773 1.427 . S
N781 C779 1.384 . S
H782 C788 0.930 . S
H783 C792 0.930 . S
H784 C797 0.929 . S
H785 C795 0.929 . S
H786 C790 0.929 . S
H787 C796 0.929 . S
C788 H782 0.930 . S
C788 C789 1.367 . S
C788 C796 1.378 . S
C789 C788 1.367 . S
C789 C797 1.433 . S
C790 H786 0.929 . S
C790 C792 1.378 . S
C790 C794 1.350 . S
C791 C794 1.463 . S
C791 C796 1.350 . S
C791 N799 1.427 . S
C792 H783 0.930 . S
C792 C790 1.378 . S
C792 C793 1.367 . S
C793 C792 1.367 . S
C793 C795 1.433 . S
C794 C790 1.350 . S
C794 C791 1.463 . S
C794 N798 1.427 . S
C795 H785 0.929 . S
C795 C793 1.433 . S
C795 N798 1.384 . S
C796 H787 0.929 . S
C796 C788 1.378 . S
C796 C791 1.350 . S
C797 H784 0.929 . S
C797 C789 1.433 . S
C797 N799 1.384 . S
N798 C794 1.427 . S
N798 C795 1.384 . S
N799 C791 1.427 . S
N799 C797 1.384 . S
H800 C806 0.930 . S
H801 C810 0.930 . S
H802 C815 0.929 . S
H803 C813 0.929 . S
H804 C808 0.929 . S
H805 C814 0.929 . S
C806 H800 0.930 . S
C806 C807 1.367 . S
C806 C814 1.378 . S
C807 C806 1.367 . S
C807 C815 1.433 . S
C808 H804 0.929 . S
C808 C810 1.378 . S
C808 C812 1.350 . S
C809 C812 1.463 . S
C809 C814 1.350 . S
C809 N817 1.427 . S
C810 H801 0.930 . S
C810 C808 1.378 . S
C810 C811 1.367 . S
C811 C810 1.367 . S
C811 C813 1.433 . S
C812 C808 1.350 . S
C812 C809 1.463 . S
C812 N816 1.427 . S
C813 H803 0.929 . S
C813 C811 1.433 . S
C813 N816 1.384 . S
C814 H805 0.929 . S
C814 C806 1.378 . S
C814 C809 1.350 . S
C815 H802 0.929 . S
C815 C807 1.433 . S
C815 N817 1.384 . S
N816 C812 1.427 . S
N816 C813 1.384 . S
N817 C809 1.427 . S
N817 C815 1.384 . S
H818 C824 0.930 . S
H819 C828 0.930 . S
H820 C833 0.929 . S
H821 C831 0.929 . S
H822 C826 0.929 . S
H823 C832 0.929 . S
C824 H818 0.930 . S
C824 C825 1.367 . S
C824 C832 1.378 . S
C825 C824 1.367 . S
C825 C833 1.433 . S
C826 H822 0.929 . S
C826 C828 1.378 . S
C826 C830 1.350 . S
C827 C830 1.463 . S
C827 C832 1.350 . S
C827 N835 1.427 . S
C828 H819 0.930 . S
C828 C826 1.378 . S
C828 C829 1.367 . S
C829 C828 1.367 . S
C829 C831 1.433 . S
C830 C826 1.350 . S
C830 C827 1.463 . S
C830 N834 1.427 . S
C831 H821 0.929 . S
C831 C829 1.433 . S
C831 N834 1.384 . S
C832 H823 0.929 . S
C832 C824 1.378 . S
C832 C827 1.350 . S
C833 H820 0.929 . S
C833 C825 1.433 . S
C833 N835 1.384 . S
N834 C830 1.427 . S
N834 C831 1.384 . S
N835 C827 1.427 . S
N835 C833 1.384 . S
H836 C842 0.930 . S
H837 C846 0.930 . S
H838 C851 0.929 . S
H839 C849 0.929 . S
H840 C844 0.929 . S
H841 C850 0.929 . S
C842 H836 0.930 . S
C842 C843 1.367 . S
C842 C850 1.378 . S
C843 C842 1.367 . S
C843 C851 1.433 . S
C844 H840 0.929 . S
C844 C846 1.378 . S
C844 C848 1.350 . S
C845 C848 1.463 . S
C845 C850 1.350 . S
C845 N853 1.427 . S
C846 H837 0.930 . S
C846 C844 1.378 . S
C846 C847 1.367 . S
C847 C846 1.367 . S
C847 C849 1.433 . S
C848 C844 1.350 . S
C848 C845 1.463 . S
C848 N852 1.427 . S
C849 H839 0.929 . S
C849 C847 1.433 . S
C849 N852 1.384 . S
C850 H841 0.929 . S
C850 C842 1.378 . S
C850 C845 1.350 . S
C851 H838 0.929 . S
C851 C843 1.433 . S
C851 N853 1.384 . S
N852 C848 1.427 . S
N852 C849 1.384 . S
N853 C845 1.427 . S
N853 C851 1.384 . S
H854 C860 0.930 . S
H855 C864 0.930 . S
H856 C869 0.929 . S
H857 C867 0.929 . S
H858 C862 0.929 . S
H859 C868 0.929 . S
C860 H854 0.930 . S
C860 C861 1.367 . S
C860 C868 1.378 . S
C861 C860 1.367 . S
C861 C869 1.433 . S
C862 H858 0.929 . S
C862 C864 1.378 . S
C862 C866 1.350 . S
C863 C866 1.463 . S
C863 C868 1.350 . S
C863 N871 1.427 . S
C864 H855 0.930 . S
C864 C862 1.378 . S
C864 C865 1.367 . S
C865 C864 1.367 . S
C865 C867 1.433 . S
C866 C862 1.350 . S
C866 C863 1.463 . S
C866 N870 1.427 . S
C867 H857 0.929 . S
C867 C865 1.433 . S
C867 N870 1.384 . S
C868 H859 0.929 . S
C868 C860 1.378 . S
C868 C863 1.350 . S
C869 H856 0.929 . S
C869 C861 1.433 . S
C869 N871 1.384 . S
N870 C866 1.427 . S
N870 C867 1.384 . S
N871 C863 1.427 . S
N871 C869 1.384 . S
H872 C878 0.930 . S
H873 C882 0.930 . S
H874 C887 0.929 . S
H875 C885 0.929 . S
H876 C880 0.929 . S
H877 C886 0.929 . S
C878 H872 0.930 . S
C878 C879 1.367 . S
C878 C886 1.378 . S
C879 C878 1.367 . S
C879 C887 1.433 . S
C880 H876 0.929 . S
C880 C882 1.378 . S
C880 C884 1.350 . S
C881 C884 1.463 . S
C881 C886 1.350 . S
C881 N889 1.427 . S
C882 H873 0.930 . S
C882 C880 1.378 . S
C882 C883 1.367 . S
C883 C882 1.367 . S
C883 C885 1.433 . S
C884 C880 1.350 . S
C884 C881 1.463 . S
C884 N888 1.427 . S
C885 H875 0.929 . S
C885 C883 1.433 . S
C885 N888 1.384 . S
C886 H877 0.929 . S
C886 C878 1.378 . S
C886 C881 1.350 . S
C887 H874 0.929 . S
C887 C879 1.433 . S
C887 N889 1.384 . S
N888 C884 1.427 . S
N888 C885 1.384 . S
N889 C881 1.427 . S
N889 C887 1.384 . S
H890 C896 0.930 . S
H891 C900 0.930 . S
H892 C905 0.929 . S
H893 C903 0.929 . S
H894 C898 0.929 . S
H895 C904 0.929 . S
C896 H890 0.930 . S
C896 C897 1.367 . S
C896 C904 1.378 . S
C897 C896 1.367 . S
C897 C905 1.433 . S
C898 H894 0.929 . S
C898 C900 1.378 . S
C898 C902 1.350 . S
C899 C902 1.463 . S
C899 C904 1.350 . S
C899 N907 1.427 . S
C900 H891 0.930 . S
C900 C898 1.378 . S
C900 C901 1.367 . S
C901 C900 1.367 . S
C901 C903 1.433 . S
C902 C898 1.350 . S
C902 C899 1.463 . S
C902 N906 1.427 . S
C903 H893 0.929 . S
C903 C901 1.433 . S
C903 N906 1.384 . S
C904 H895 0.929 . S
C904 C896 1.378 . S
C904 C899 1.350 . S
C905 H892 0.929 . S
C905 C897 1.433 . S
C905 N907 1.384 . S
N906 C902 1.427 . S
N906 C903 1.384 . S
N907 C899 1.427 . S
N907 C905 1.384 . S
H908 C914 0.930 . S
H909 C918 0.930 . S
H910 C923 0.929 . S
H911 C921 0.929 . S
H912 C916 0.929 . S
H913 C922 0.929 . S
C914 H908 0.930 . S
C914 C915 1.367 . S
C914 C922 1.378 . S
C915 C914 1.367 . S
C915 C923 1.433 . S
C916 H912 0.929 . S
C916 C918 1.378 . S
C916 C920 1.350 . S
C917 C920 1.463 . S
C917 C922 1.350 . S
C917 N925 1.427 . S
C918 H909 0.930 . S
C918 C916 1.378 . S
C918 C919 1.367 . S
C919 C918 1.367 . S
C919 C921 1.433 . S
C920 C916 1.350 . S
C920 C917 1.463 . S
C920 N924 1.427 . S
C921 H911 0.929 . S
C921 C919 1.433 . S
C921 N924 1.384 . S
C922 H913 0.929 . S
C922 C914 1.378 . S
C922 C917 1.350 . S
C923 H910 0.929 . S
C923 C915 1.433 . S
C923 N925 1.384 . S
N924 C920 1.427 . S
N924 C921 1.384 . S
N925 C917 1.427 . S
N925 C923 1.384 . S
H926 C932 0.930 . S
H927 C936 0.930 . S
H928 C941 0.929 . S
H929 C939 0.929 . S
H930 C934 0.929 . S
H931 C940 0.929 . S
C932 H926 0.930 . S
C932 C933 1.367 . S
C932 C940 1.378 . S
C933 C932 1.367 . S
C933 C941 1.433 . S
C934 H930 0.929 . S
C934 C936 1.378 . S
C934 C938 1.350 . S
C935 C938 1.463 . S
C935 C940 1.350 . S
C935 N943 1.427 . S
C936 H927 0.930 . S
C936 C934 1.378 . S
C936 C937 1.367 . S
C937 C936 1.367 . S
C937 C939 1.433 . S
C938 C934 1.350 . S
C938 C935 1.463 . S
C938 N942 1.427 . S
C939 H929 0.929 . S
C939 C937 1.433 . S
C939 N942 1.384 . S
C940 H931 0.929 . S
C940 C932 1.378 . S
C940 C935 1.350 . S
C941 H928 0.929 . S
C941 C933 1.433 . S
C941 N943 1.384 . S
N942 C938 1.427 . S
N942 C939 1.384 . S
N943 C935 1.427 . S
N943 C941 1.384 . S
H944 C950 0.930 . S
H945 C954 0.930 . S
H946 C959 0.929 . S
H947 C957 0.929 . S
H948 C952 0.929 . S
H949 C958 0.929 . S
C950 H944 0.930 . S
C950 C951 1.367 . S
C950 C958 1.378 . S
C951 C950 1.367 . S
C951 C959 1.433 . S
C952 H948 0.929 . S
C952 C954 1.378 . S
C952 C956 1.350 . S
C953 C956 1.463 . S
C953 C958 1.350 . S
C953 N961 1.427 . S
C954 H945 0.930 . S
C954 C952 1.378 . S
C954 C955 1.367 . S
C955 C954 1.367 . S
C955 C957 1.433 . S
C956 C952 1.350 . S
C956 C953 1.463 . S
C956 N960 1.427 . S
C957 H947 0.929 . S
C957 C955 1.433 . S
C957 N960 1.384 . S
C958 H949 0.929 . S
C958 C950 1.378 . S
C958 C953 1.350 . S
C959 H946 0.929 . S
C959 C951 1.433 . S
C959 N961 1.384 . S
N960 C956 1.427 . S
N960 C957 1.384 . S
N961 C953 1.427 . S
N961 C959 1.384 . S
H962 C968 0.930 . S
H963 C972 0.930 . S
H964 C977 0.929 . S
H965 C975 0.929 . S
H966 C970 0.929 . S
H967 C976 0.929 . S
C968 H962 0.930 . S
C968 C969 1.367 . S
C968 C976 1.378 . S
C969 C968 1.367 . S
C969 C977 1.433 . S
C970 H966 0.929 . S
C970 C972 1.378 . S
C970 C974 1.350 . S
C971 C974 1.463 . S
C971 C976 1.350 . S
C971 N979 1.427 . S
C972 H963 0.930 . S
C972 C970 1.378 . S
C972 C973 1.367 . S
C973 C972 1.367 . S
C973 C975 1.433 . S
C974 C970 1.350 . S
C974 C971 1.463 . S
C974 N978 1.427 . S
C975 H965 0.929 . S
C975 C973 1.433 . S
C975 N978 1.384 . S
C976 H967 0.929 . S
C976 C968 1.378 . S
C976 C971 1.350 . S
C977 H964 0.929 . S
C977 C969 1.433 . S
C977 N979 1.384 . S
N978 C974 1.427 . S
N978 C975 1.384 . S
N979 C971 1.427 . S
N979 C977 1.384 . S
H980 C986 0.930 . S
H981 C990 0.930 . S
H982 C995 0.929 . S
H983 C993 0.929 . S
H984 C988 0.929 . S
H985 C994 0.929 . S
C986 H980 0.930 . S
C986 C987 1.367 . S
C986 C994 1.378 . S
C987 C986 1.367 . S
C987 C995 1.433 . S
C988 H984 0.929 . S
C988 C990 1.378 . S
C988 C992 1.350 . S
C989 C992 1.463 . S
C989 C994 1.350 . S
C989 N997 1.427 . S
C990 H981 0.930 . S
C990 C988 1.378 . S
C990 C991 1.367 . S
C991 C990 1.367 . S
C991 C993 1.433 . S
C992 C988 1.350 . S
C992 C989 1.463 . S
C992 N996 1.427 . S
C993 H983 0.929 . S
C993 C991 1.433 . S
C993 N996 1.384 . S
C994 H985 0.929 . S
C994 C986 1.378 . S
C994 C989 1.350 . S
C995 H982 0.929 . S
C995 C987 1.433 . S
C995 N997 1.384 . S
N996 C992 1.427 . S
N996 C993 1.384 . S
N997 C989 1.427 . S
N997 C995 1.384 . S
H998 C1004 0.930 . S
H999 C1008 0.930 . S
H1000 C1013 0.929 . S
H1001 C1011 0.929 . S
H1002 C1006 0.929 . S
H1003 C1012 0.929 . S
C1004 H998 0.930 . S
C1004 C1005 1.367 . S
C1004 C1012 1.378 . S
C1005 C1004 1.367 . S
C1005 C1013 1.433 . S
C1006 H1002 0.929 . S
C1006 C1008 1.378 . S
C1006 C1010 1.350 . S
C1007 C1010 1.463 . S
C1007 C1012 1.350 . S
C1007 N1015 1.427 . S
C1008 H999 0.930 . S
C1008 C1006 1.378 . S
C1008 C1009 1.367 . S
C1009 C1008 1.367 . S
C1009 C1011 1.433 . S
C1010 C1006 1.350 . S
C1010 C1007 1.463 . S
C1010 N1014 1.427 . S
C1011 H1001 0.929 . S
C1011 C1009 1.433 . S
C1011 N1014 1.384 . S
C1012 H1003 0.929 . S
C1012 C1004 1.378 . S
C1012 C1007 1.350 . S
C1013 H1000 0.929 . S
C1013 C1005 1.433 . S
C1013 N1015 1.384 . S
N1014 C1010 1.427 . S
N1014 C1011 1.384 . S
N1015 C1007 1.427 . S
N1015 C1013 1.384 . S
H1016 C1022 0.930 . S
H1017 C1026 0.930 . S
H1018 C1031 0.929 . S
H1019 C1029 0.929 . S
H1020 C1024 0.929 . S
H1021 C1030 0.929 . S
C1022 H1016 0.930 . S
C1022 C1023 1.367 . S
C1022 C1030 1.378 . S
C1023 C1022 1.367 . S
C1023 C1031 1.433 . S
C1024 H1020 0.929 . S
C1024 C1026 1.378 . S
C1024 C1028 1.350 . S
C1025 C1028 1.463 . S
C1025 C1030 1.350 . S
C1025 N1033 1.427 . S
C1026 H1017 0.930 . S
C1026 C1024 1.378 . S
C1026 C1027 1.367 . S
C1027 C1026 1.367 . S
C1027 C1029 1.433 . S
C1028 C1024 1.350 . S
C1028 C1025 1.463 . S
C1028 N1032 1.427 . S
C1029 H1019 0.929 . S
C1029 C1027 1.433 . S
C1029 N1032 1.384 . S
C1030 H1021 0.929 . S
C1030 C1022 1.378 . S
C1030 C1025 1.350 . S
C1031 H1018 0.929 . S
C1031 C1023 1.433 . S
C1031 N1033 1.384 . S
N1032 C1028 1.427 . S
N1032 C1029 1.384 . S
N1033 C1025 1.427 . S
N1033 C1031 1.384 . S
H1034 C1040 0.930 . S
H1035 C1044 0.930 . S
H1036 C1049 0.929 . S
H1037 C1047 0.929 . S
H1038 C1042 0.929 . S
H1039 C1048 0.929 . S
C1040 H1034 0.930 . S
C1040 C1041 1.367 . S
C1040 C1048 1.378 . S
C1041 C1040 1.367 . S
C1041 C1049 1.433 . S
C1042 H1038 0.929 . S
C1042 C1044 1.378 . S
C1042 C1046 1.350 . S
C1043 C1046 1.463 . S
C1043 C1048 1.350 . S
C1043 N1051 1.427 . S
C1044 H1035 0.930 . S
C1044 C1042 1.378 . S
C1044 C1045 1.367 . S
C1045 C1044 1.367 . S
C1045 C1047 1.433 . S
C1046 C1042 1.350 . S
C1046 C1043 1.463 . S
C1046 N1050 1.427 . S
C1047 H1037 0.929 . S
C1047 C1045 1.433 . S
C1047 N1050 1.384 . S
C1048 H1039 0.929 . S
C1048 C1040 1.378 . S
C1048 C1043 1.350 . S
C1049 H1036 0.929 . S
C1049 C1041 1.433 . S
C1049 N1051 1.384 . S
N1050 C1046 1.427 . S
N1050 C1047 1.384 . S
N1051 C1043 1.427 . S
N1051 C1049 1.384 . S
H1052 C1058 0.930 . S
H1053 C1062 0.930 . S
H1054 C1067 0.929 . S
H1055 C1065 0.929 . S
H1056 C1060 0.929 . S
H1057 C1066 0.929 . S
C1058 H1052 0.930 . S
C1058 C1059 1.367 . S
C1058 C1066 1.378 . S
C1059 C1058 1.367 . S
C1059 C1067 1.433 . S
C1060 H1056 0.929 . S
C1060 C1062 1.378 . S
C1060 C1064 1.350 . S
C1061 C1064 1.463 . S
C1061 C1066 1.350 . S
C1061 N1069 1.427 . S
C1062 H1053 0.930 . S
C1062 C1060 1.378 . S
C1062 C1063 1.367 . S
C1063 C1062 1.367 . S
C1063 C1065 1.433 . S
C1064 C1060 1.350 . S
C1064 C1061 1.463 . S
C1064 N1068 1.427 . S
C1065 H1055 0.929 . S
C1065 C1063 1.433 . S
C1065 N1068 1.384 . S
C1066 H1057 0.929 . S
C1066 C1058 1.378 . S
C1066 C1061 1.350 . S
C1067 H1054 0.929 . S
C1067 C1059 1.433 . S
C1067 N1069 1.384 . S
N1068 C1064 1.427 . S
N1068 C1065 1.384 . S
N1069 C1061 1.427 . S
N1069 C1067 1.384 . S
H1070 C1076 0.930 . S
H1071 C1080 0.930 . S
H1072 C1085 0.929 . S
H1073 C1083 0.929 . S
H1074 C1078 0.929 . S
H1075 C1084 0.929 . S
C1076 H1070 0.930 . S
C1076 C1077 1.367 . S
C1076 C1084 1.378 . S
C1077 C1076 1.367 . S
C1077 C1085 1.433 . S
C1078 H1074 0.929 . S
C1078 C1080 1.378 . S
C1078 C1082 1.350 . S
C1079 C1082 1.463 . S
C1079 C1084 1.350 . S
C1079 N1087 1.427 . S
C1080 H1071 0.930 . S
C1080 C1078 1.378 . S
C1080 C1081 1.367 . S
C1081 C1080 1.367 . S
C1081 C1083 1.433 . S
C1082 C1078 1.350 . S
C1082 C1079 1.463 . S
C1082 N1086 1.427 . S
C1083 H1073 0.929 . S
C1083 C1081 1.433 . S
C1083 N1086 1.384 . S
C1084 H1075 0.929 . S
C1084 C1076 1.378 . S
C1084 C1079 1.350 . S
C1085 H1072 0.929 . S
C1085 C1077 1.433 . S
C1085 N1087 1.384 . S
N1086 C1082 1.427 . S
N1086 C1083 1.384 . S
N1087 C1079 1.427 . S
N1087 C1085 1.384 . S
H1088 C1094 0.930 . S
H1089 C1098 0.930 . S
H1090 C1103 0.929 . S
H1091 C1101 0.929 . S
H1092 C1096 0.929 . S
H1093 C1102 0.929 . S
C1094 H1088 0.930 . S
C1094 C1095 1.367 . S
C1094 C1102 1.378 . S
C1095 C1094 1.367 . S
C1095 C1103 1.433 . S
C1096 H1092 0.929 . S
C1096 C1098 1.378 . S
C1096 C1100 1.350 . S
C1097 C1100 1.463 . S
C1097 C1102 1.350 . S
C1097 N1105 1.427 . S
C1098 H1089 0.930 . S
C1098 C1096 1.378 . S
C1098 C1099 1.367 . S
C1099 C1098 1.367 . S
C1099 C1101 1.433 . S
C1100 C1096 1.350 . S
C1100 C1097 1.463 . S
C1100 N1104 1.427 . S
C1101 H1091 0.929 . S
C1101 C1099 1.433 . S
C1101 N1104 1.384 . S
C1102 H1093 0.929 . S
C1102 C1094 1.378 . S
C1102 C1097 1.350 . S
C1103 H1090 0.929 . S
C1103 C1095 1.433 . S
C1103 N1105 1.384 . S
N1104 C1100 1.427 . S
N1104 C1101 1.384 . S
N1105 C1097 1.427 . S
N1105 C1103 1.384 . S
H1106 C1112 0.930 . S
H1107 C1116 0.930 . S
H1108 C1121 0.929 . S
H1109 C1119 0.929 . S
H1110 C1114 0.929 . S
H1111 C1120 0.929 . S
C1112 H1106 0.930 . S
C1112 C1113 1.367 . S
C1112 C1120 1.378 . S
C1113 C1112 1.367 . S
C1113 C1121 1.433 . S
C1114 H1110 0.929 . S
C1114 C1116 1.378 . S
C1114 C1118 1.350 . S
C1115 C1118 1.463 . S
C1115 C1120 1.350 . S
C1115 N1123 1.427 . S
C1116 H1107 0.930 . S
C1116 C1114 1.378 . S
C1116 C1117 1.367 . S
C1117 C1116 1.367 . S
C1117 C1119 1.433 . S
C1118 C1114 1.350 . S
C1118 C1115 1.463 . S
C1118 N1122 1.427 . S
C1119 H1109 0.929 . S
C1119 C1117 1.433 . S
C1119 N1122 1.384 . S
C1120 H1111 0.929 . S
C1120 C1112 1.378 . S
C1120 C1115 1.350 . S
C1121 H1108 0.929 . S
C1121 C1113 1.433 . S
C1121 N1123 1.384 . S
N1122 C1118 1.427 . S
N1122 C1119 1.384 . S
N1123 C1115 1.427 . S
N1123 C1121 1.384 . S
H1124 C1130 0.930 . S
H1125 C1134 0.930 . S
H1126 C1139 0.929 . S
H1127 C1137 0.929 . S
H1128 C1132 0.929 . S
H1129 C1138 0.929 . S
C1130 H1124 0.930 . S
C1130 C1131 1.367 . S
C1130 C1138 1.378 . S
C1131 C1130 1.367 . S
C1131 C1139 1.433 . S
C1132 H1128 0.929 . S
C1132 C1134 1.378 . S
C1132 C1136 1.350 . S
C1133 C1136 1.463 . S
C1133 C1138 1.350 . S
C1133 N1141 1.427 . S
C1134 H1125 0.930 . S
C1134 C1132 1.378 . S
C1134 C1135 1.367 . S
C1135 C1134 1.367 . S
C1135 C1137 1.433 . S
C1136 C1132 1.350 . S
C1136 C1133 1.463 . S
C1136 N1140 1.427 . S
C1137 H1127 0.929 . S
C1137 C1135 1.433 . S
C1137 N1140 1.384 . S
C1138 H1129 0.929 . S
C1138 C1130 1.378 . S
C1138 C1133 1.350 . S
C1139 H1126 0.929 . S
C1139 C1131 1.433 . S
C1139 N1141 1.384 . S
N1140 C1136 1.427 . S
N1140 C1137 1.384 . S
N1141 C1133 1.427 . S
N1141 C1139 1.384 . S
H1142 C1148 0.930 . S
H1143 C1152 0.930 . S
H1144 C1157 0.929 . S
H1145 C1155 0.929 . S
H1146 C1150 0.929 . S
H1147 C1156 0.929 . S
C1148 H1142 0.930 . S
C1148 C1149 1.367 . S
C1148 C1156 1.378 . S
C1149 C1148 1.367 . S
C1149 C1157 1.433 . S
C1150 H1146 0.929 . S
C1150 C1152 1.378 . S
C1150 C1154 1.350 . S
C1151 C1154 1.463 . S
C1151 C1156 1.350 . S
C1151 N1159 1.427 . S
C1152 H1143 0.930 . S
C1152 C1150 1.378 . S
C1152 C1153 1.367 . S
C1153 C1152 1.367 . S
C1153 C1155 1.433 . S
C1154 C1150 1.350 . S
C1154 C1151 1.463 . S
C1154 N1158 1.427 . S
C1155 H1145 0.929 . S
C1155 C1153 1.433 . S
C1155 N1158 1.384 . S
C1156 H1147 0.929 . S
C1156 C1148 1.378 . S
C1156 C1151 1.350 . S
C1157 H1144 0.929 . S
C1157 C1149 1.433 . S
C1157 N1159 1.384 . S
N1158 C1154 1.427 . S
N1158 C1155 1.384 . S
N1159 C1151 1.427 . S
N1159 C1157 1.384 . S
H1160 C1166 0.930 . S
H1161 C1170 0.930 . S
H1162 C1175 0.929 . S
H1163 C1173 0.929 . S
H1164 C1168 0.929 . S
H1165 C1174 0.929 . S
C1166 H1160 0.930 . S
C1166 C1167 1.367 . S
C1166 C1174 1.378 . S
C1167 C1166 1.367 . S
C1167 C1175 1.433 . S
C1168 H1164 0.929 . S
C1168 C1170 1.378 . S
C1168 C1172 1.350 . S
C1169 C1172 1.463 . S
C1169 C1174 1.350 . S
C1169 N1177 1.427 . S
C1170 H1161 0.930 . S
C1170 C1168 1.378 . S
C1170 C1171 1.367 . S
C1171 C1170 1.367 . S
C1171 C1173 1.433 . S
C1172 C1168 1.350 . S
C1172 C1169 1.463 . S
C1172 N1176 1.427 . S
C1173 H1163 0.929 . S
C1173 C1171 1.433 . S
C1173 N1176 1.384 . S
C1174 H1165 0.929 . S
C1174 C1166 1.378 . S
C1174 C1169 1.350 . S
C1175 H1162 0.929 . S
C1175 C1167 1.433 . S
C1175 N1177 1.384 . S
N1176 C1172 1.427 . S
N1176 C1173 1.384 . S
N1177 C1169 1.427 . S
N1177 C1175 1.384 . S
H1178 C1184 0.930 . S
H1179 C1188 0.930 . S
H1180 C1193 0.929 . S
H1181 C1191 0.929 . S
H1182 C1186 0.929 . S
H1183 C1192 0.929 . S
C1184 H1178 0.930 . S
C1184 C1185 1.367 . S
C1184 C1192 1.378 . S
C1185 C1184 1.367 . S
C1185 C1193 1.433 . S
C1186 H1182 0.929 . S
C1186 C1188 1.378 . S
C1186 C1190 1.350 . S
C1187 C1190 1.463 . S
C1187 C1192 1.350 . S
C1187 N1195 1.427 . S
C1188 H1179 0.930 . S
C1188 C1186 1.378 . S
C1188 C1189 1.367 . S
C1189 C1188 1.367 . S
C1189 C1191 1.433 . S
C1190 C1186 1.350 . S
C1190 C1187 1.463 . S
C1190 N1194 1.427 . S
C1191 H1181 0.929 . S
C1191 C1189 1.433 . S
C1191 N1194 1.384 . S
C1192 H1183 0.929 . S
C1192 C1184 1.378 . S
C1192 C1187 1.350 . S
C1193 H1180 0.929 . S
C1193 C1185 1.433 . S
C1193 N1195 1.384 . S
N1194 C1190 1.427 . S
N1194 C1191 1.384 . S
N1195 C1187 1.427 . S
N1195 C1193 1.384 . S
H1196 C1202 0.930 . S
H1197 C1206 0.930 . S
H1198 C1211 0.929 . S
H1199 C1209 0.929 . S
H1200 C1204 0.929 . S
H1201 C1210 0.929 . S
C1202 H1196 0.930 . S
C1202 C1203 1.367 . S
C1202 C1210 1.378 . S
C1203 C1202 1.367 . S
C1203 C1211 1.433 . S
C1204 H1200 0.929 . S
C1204 C1206 1.378 . S
C1204 C1208 1.350 . S
C1205 C1208 1.463 . S
C1205 C1210 1.350 . S
C1205 N1213 1.427 . S
C1206 H1197 0.930 . S
C1206 C1204 1.378 . S
C1206 C1207 1.367 . S
C1207 C1206 1.367 . S
C1207 C1209 1.433 . S
C1208 C1204 1.350 . S
C1208 C1205 1.463 . S
C1208 N1212 1.427 . S
C1209 H1199 0.929 . S
C1209 C1207 1.433 . S
C1209 N1212 1.384 . S
C1210 H1201 0.929 . S
C1210 C1202 1.378 . S
C1210 C1205 1.350 . S
C1211 H1198 0.929 . S
C1211 C1203 1.433 . S
C1211 N1213 1.384 . S
N1212 C1208 1.427 . S
N1212 C1209 1.384 . S
N1213 C1205 1.427 . S
N1213 C1211 1.384 . S
H1214 C1220 0.930 . S
H1215 C1224 0.930 . S
H1216 C1229 0.929 . S
H1217 C1227 0.929 . S
H1218 C1222 0.929 . S
H1219 C1228 0.929 . S
C1220 H1214 0.930 . S
C1220 C1221 1.367 . S
C1220 C1228 1.378 . S
C1221 C1220 1.367 . S
C1221 C1229 1.433 . S
C1222 H1218 0.929 . S
C1222 C1224 1.378 . S
C1222 C1226 1.350 . S
C1223 C1226 1.463 . S
C1223 C1228 1.350 . S
C1223 N1231 1.427 . S
C1224 H1215 0.930 . S
C1224 C1222 1.378 . S
C1224 C1225 1.367 . S
C1225 C1224 1.367 . S
C1225 C1227 1.433 . S
C1226 C1222 1.350 . S
C1226 C1223 1.463 . S
C1226 N1230 1.427 . S
C1227 H1217 0.929 . S
C1227 C1225 1.433 . S
C1227 N1230 1.384 . S
C1228 H1219 0.929 . S
C1228 C1220 1.378 . S
C1228 C1223 1.350 . S
C1229 H1216 0.929 . S
C1229 C1221 1.433 . S
C1229 N1231 1.384 . S
N1230 C1226 1.427 . S
N1230 C1227 1.384 . S
N1231 C1223 1.427 . S
N1231 C1229 1.384 . S
H1232 C1238 0.930 . S
H1233 C1242 0.930 . S
H1234 C1247 0.929 . S
H1235 C1245 0.929 . S
H1236 C1240 0.929 . S
H1237 C1246 0.929 . S
C1238 H1232 0.930 . S
C1238 C1239 1.367 . S
C1238 C1246 1.378 . S
C1239 C1238 1.367 . S
C1239 C1247 1.433 . S
C1240 H1236 0.929 . S
C1240 C1242 1.378 . S
C1240 C1244 1.350 . S
C1241 C1244 1.463 . S
C1241 C1246 1.350 . S
C1241 N1249 1.427 . S
C1242 H1233 0.930 . S
C1242 C1240 1.378 . S
C1242 C1243 1.367 . S
C1243 C1242 1.367 . S
C1243 C1245 1.433 . S
C1244 C1240 1.350 . S
C1244 C1241 1.463 . S
C1244 N1248 1.427 . S
C1245 H1235 0.929 . S
C1245 C1243 1.433 . S
C1245 N1248 1.384 . S
C1246 H1237 0.929 . S
C1246 C1238 1.378 . S
C1246 C1241 1.350 . S
C1247 H1234 0.929 . S
C1247 C1239 1.433 . S
C1247 N1249 1.384 . S
N1248 C1244 1.427 . S
N1248 C1245 1.384 . S
N1249 C1241 1.427 . S
N1249 C1247 1.384 . S
H1250 C1256 0.930 . S
H1251 C1260 0.930 . S
H1252 C1265 0.929 . S
H1253 C1263 0.929 . S
H1254 C1258 0.929 . S
H1255 C1264 0.929 . S
C1256 H1250 0.930 . S
C1256 C1257 1.367 . S
C1256 C1264 1.378 . S
C1257 C1256 1.367 . S
C1257 C1265 1.433 . S
C1258 H1254 0.929 . S
C1258 C1260 1.378 . S
C1258 C1262 1.350 . S
C1259 C1262 1.463 . S
C1259 C1264 1.350 . S
C1259 N1267 1.427 . S
C1260 H1251 0.930 . S
C1260 C1258 1.378 . S
C1260 C1261 1.367 . S
C1261 C1260 1.367 . S
C1261 C1263 1.433 . S
C1262 C1258 1.350 . S
C1262 C1259 1.463 . S
C1262 N1266 1.427 . S
C1263 H1253 0.929 . S
C1263 C1261 1.433 . S
C1263 N1266 1.384 . S
C1264 H1255 0.929 . S
C1264 C1256 1.378 . S
C1264 C1259 1.350 . S
C1265 H1252 0.929 . S
C1265 C1257 1.433 . S
C1265 N1267 1.384 . S
N1266 C1262 1.427 . S
N1266 C1263 1.384 . S
N1267 C1259 1.427 . S
N1267 C1265 1.384 . S
H1268 C1274 0.930 . S
H1269 C1278 0.930 . S
H1270 C1283 0.929 . S
H1271 C1281 0.929 . S
H1272 C1276 0.929 . S
H1273 C1282 0.929 . S
C1274 H1268 0.930 . S
C1274 C1275 1.367 . S
C1274 C1282 1.378 . S
C1275 C1274 1.367 . S
C1275 C1283 1.433 . S
C1276 H1272 0.929 . S
C1276 C1278 1.378 . S
C1276 C1280 1.350 . S
C1277 C1280 1.463 . S
C1277 C1282 1.350 . S
C1277 N1285 1.427 . S
C1278 H1269 0.930 . S
C1278 C1276 1.378 . S
C1278 C1279 1.367 . S
C1279 C1278 1.367 . S
C1279 C1281 1.433 . S
C1280 C1276 1.350 . S
C1280 C1277 1.463 . S
C1280 N1284 1.427 . S
C1281 H1271 0.929 . S
C1281 C1279 1.433 . S
C1281 N1284 1.384 . S
C1282 H1273 0.929 . S
C1282 C1274 1.378 . S
C1282 C1277 1.350 . S
C1283 H1270 0.929 . S
C1283 C1275 1.433 . S
C1283 N1285 1.384 . S
N1284 C1280 1.427 . S
N1284 C1281 1.384 . S
N1285 C1277 1.427 . S
N1285 C1283 1.384 . S
H1286 C1292 0.930 . S
H1287 C1296 0.930 . S
H1288 C1301 0.929 . S
H1289 C1299 0.929 . S
H1290 C1294 0.929 . S
H1291 C1300 0.929 . S
C1292 H1286 0.930 . S
C1292 C1293 1.367 . S
C1292 C1300 1.378 . S
C1293 C1292 1.367 . S
C1293 C1301 1.433 . S
C1294 H1290 0.929 . S
C1294 C1296 1.378 . S
C1294 C1298 1.350 . S
C1295 C1298 1.463 . S
C1295 C1300 1.350 . S
C1295 N1303 1.427 . S
C1296 H1287 0.930 . S
C1296 C1294 1.378 . S
C1296 C1297 1.367 . S
C1297 C1296 1.367 . S
C1297 C1299 1.433 . S
C1298 C1294 1.350 . S
C1298 C1295 1.463 . S
C1298 N1302 1.427 . S
C1299 H1289 0.929 . S
C1299 C1297 1.433 . S
C1299 N1302 1.384 . S
C1300 H1291 0.929 . S
C1300 C1292 1.378 . S
C1300 C1295 1.350 . S
C1301 H1288 0.929 . S
C1301 C1293 1.433 . S
C1301 N1303 1.384 . S
N1302 C1298 1.427 . S
N1302 C1299 1.384 . S
N1303 C1295 1.427 . S
N1303 C1301 1.384 . S
H1304 C1310 0.930 . S
H1305 C1314 0.930 . S
H1306 C1319 0.929 . S
H1307 C1317 0.929 . S
H1308 C1312 0.929 . S
H1309 C1318 0.929 . S
C1310 H1304 0.930 . S
C1310 C1311 1.367 . S
C1310 C1318 1.378 . S
C1311 C1310 1.367 . S
C1311 C1319 1.433 . S
C1312 H1308 0.929 . S
C1312 C1314 1.378 . S
C1312 C1316 1.350 . S
C1313 C1316 1.463 . S
C1313 C1318 1.350 . S
C1313 N1321 1.427 . S
C1314 H1305 0.930 . S
C1314 C1312 1.378 . S
C1314 C1315 1.367 . S
C1315 C1314 1.367 . S
C1315 C1317 1.433 . S
C1316 C1312 1.350 . S
C1316 C1313 1.463 . S
C1316 N1320 1.427 . S
C1317 H1307 0.929 . S
C1317 C1315 1.433 . S
C1317 N1320 1.384 . S
C1318 H1309 0.929 . S
C1318 C1310 1.378 . S
C1318 C1313 1.350 . S
C1319 H1306 0.929 . S
C1319 C1311 1.433 . S
C1319 N1321 1.384 . S
N1320 C1316 1.427 . S
N1320 C1317 1.384 . S
N1321 C1313 1.427 . S
N1321 C1319 1.384 . S
H1322 C1328 0.930 . S
H1323 C1332 0.930 . S
H1324 C1337 0.929 . S
H1325 C1335 0.929 . S
H1326 C1330 0.929 . S
H1327 C1336 0.929 . S
C1328 H1322 0.930 . S
C1328 C1329 1.367 . S
C1328 C1336 1.378 . S
C1329 C1328 1.367 . S
C1329 C1337 1.433 . S
C1330 H1326 0.929 . S
C1330 C1332 1.378 . S
C1330 C1334 1.350 . S
C1331 C1334 1.463 . S
C1331 C1336 1.350 . S
C1331 N1339 1.427 . S
C1332 H1323 0.930 . S
C1332 C1330 1.378 . S
C1332 C1333 1.367 . S
C1333 C1332 1.367 . S
C1333 C1335 1.433 . S
C1334 C1330 1.350 . S
C1334 C1331 1.463 . S
C1334 N1338 1.427 . S
C1335 H1325 0.929 . S
C1335 C1333 1.433 . S
C1335 N1338 1.384 . S
C1336 H1327 0.929 . S
C1336 C1328 1.378 . S
C1336 C1331 1.350 . S
C1337 H1324 0.929 . S
C1337 C1329 1.433 . S
C1337 N1339 1.384 . S
N1338 C1334 1.427 . S
N1338 C1335 1.384 . S
N1339 C1331 1.427 . S
N1339 C1337 1.384 . S
H1340 C1346 0.930 . S
H1341 C1350 0.930 . S
H1342 C1355 0.929 . S
H1343 C1353 0.929 . S
H1344 C1348 0.929 . S
H1345 C1354 0.929 . S
C1346 H1340 0.930 . S
C1346 C1347 1.367 . S
C1346 C1354 1.378 . S
C1347 C1346 1.367 . S
C1347 C1355 1.433 . S
C1348 H1344 0.929 . S
C1348 C1350 1.378 . S
C1348 C1352 1.350 . S
C1349 C1352 1.463 . S
C1349 C1354 1.350 . S
C1349 N1357 1.427 . S
C1350 H1341 0.930 . S
C1350 C1348 1.378 . S
C1350 C1351 1.367 . S
C1351 C1350 1.367 . S
C1351 C1353 1.433 . S
C1352 C1348 1.350 . S
C1352 C1349 1.463 . S
C1352 N1356 1.427 . S
C1353 H1343 0.929 . S
C1353 C1351 1.433 . S
C1353 N1356 1.384 . S
C1354 H1345 0.929 . S
C1354 C1346 1.378 . S
C1354 C1349 1.350 . S
C1355 H1342 0.929 . S
C1355 C1347 1.433 . S
C1355 N1357 1.384 . S
N1356 C1352 1.427 . S
N1356 C1353 1.384 . S
N1357 C1349 1.427 . S
N1357 C1355 1.384 . S
H1358 C1364 0.930 . S
H1359 C1368 0.930 . S
H1360 C1373 0.929 . S
H1361 C1371 0.929 . S
H1362 C1366 0.929 . S
H1363 C1372 0.929 . S
C1364 H1358 0.930 . S
C1364 C1365 1.367 . S
C1364 C1372 1.378 . S
C1365 C1364 1.367 . S
C1365 C1373 1.433 . S
C1366 H1362 0.929 . S
C1366 C1368 1.378 . S
C1366 C1370 1.350 . S
C1367 C1370 1.463 . S
C1367 C1372 1.350 . S
C1367 N1375 1.427 . S
C1368 H1359 0.930 . S
C1368 C1366 1.378 . S
C1368 C1369 1.367 . S
C1369 C1368 1.367 . S
C1369 C1371 1.433 . S
C1370 C1366 1.350 . S
C1370 C1367 1.463 . S
C1370 N1374 1.427 . S
C1371 H1361 0.929 . S
C1371 C1369 1.433 . S
C1371 N1374 1.384 . S
C1372 H1363 0.929 . S
C1372 C1364 1.378 . S
C1372 C1367 1.350 . S
C1373 H1360 0.929 . S
C1373 C1365 1.433 . S
C1373 N1375 1.384 . S
N1374 C1370 1.427 . S
N1374 C1371 1.384 . S
N1375 C1367 1.427 . S
N1375 C1373 1.384 . S
C523 C337 1.824 . S
C519 C2 1.838 . S
C541 C342 1.225 . S
C537 C48 1.244 . S
C559 C343 1.407 . S
C555 C97 1.422 . S
C573 C149 0.511 . S
C577 C347 0.592 . S
C591 C189 1.257 . S
C595 C350 1.230 . S
C613 C351 1.409 . S
C609 C202 1.418 . S
C627 C248 0.522 . S
C631 C328 0.632 . S
C645 C297 1.837 . S
C649 C344 1.824 . S
C667 C382 2.587 . S
C663 C31 2.684 . S
C681 C52 1.680 . S
C685 C408 1.647 . S
C703 C360 1.208 . S
C699 C88 1.247 . S
C721 C415 1.336 . S
C717 C122 1.343 . S
C735 C162 1.397 . S
C739 C369 1.383 . S
C757 C411 2.577 . S
C753 C231 2.665 . S
C771 C252 1.703 . S
C775 C375 1.670 . S
C789 C288 1.272 . S
C793 C406 1.251 . S
C807 C29 1.269 . S
C811 C414 1.246 . S
C825 C191 1.681 . S
C829 C401 1.646 . S
C847 C379 1.222 . S
C843 C229 1.235 . S
C865 C407 1.341 . S
C861 C257 1.342 . S
C879 C292 2.687 . S
C883 C374 2.589 . S
C897 C92 2.665 . S
C901 C392 2.570 . S
C919 C383 1.672 . S
C915 C151 1.705 . S
C933 C57 1.400 . S
C937 C376 1.371 . S
C951 C282 1.807 . S
C955 C438 1.755 . S
C969 C168 1.228 . S
C973 C433 1.203 . S
C991 C447 1.330 . S
C987 C217 1.395 . S
C1009 C424 0.184 . S
C1005 C269 0.507 . S
C1023 C69 1.216 . S
C1027 C440 1.180 . S
C1045 C439 1.331 . S
C1041 C82 1.390 . S
C1059 C128 0.494 . S
C1063 C443 0.214 . S
C1077 C17 1.808 . S
C1081 C446 1.762 . S
C1095 C311 2.694 . S
C1099 C472 2.672 . S
C1117 C488 1.620 . S
C1113 C172 1.689 . S
C1131 C208 1.255 . S
C1135 C470 1.239 . S
C1149 C242 1.356 . S
C1153 C503 1.356 . S
C1171 C479 1.367 . S
C1167 C42 1.390 . S
C1185 C111 2.702 . S
C1189 C497 2.646 . S
C1207 C475 1.620 . S
C1203 C132 1.683 . S
C1225 C510 1.244 . S
C1221 C8 1.294 . S
C1243 C502 1.237 . S
C1239 C309 1.296 . S
C1257 C71 1.686 . S
C1261 C507 1.618 . S
C1275 C109 1.250 . S
C1279 C478 1.252 . S
C1297 C511 1.352 . S
C1293 C137 1.359 . S
C1311 C12 2.696 . S
C1315 C465 2.666 . S
C1329 C212 2.701 . S
C1333 C504 2.640 . S
C1351 C456 1.621 . S
C1347 C271 1.692 . S
C1369 C471 1.364 . S
C1365 C177 1.386 . S
