# Generated by pormake.
# Topology gar, (4,6)-cn, num edge types: 1
# Building blocks:
#     Node 0, Type 0, BuildingBlock: TATPOV_clean_sbu_0, # of connection points: 4
#     Node 1, Type 0, BuildingBlock: TATPOV_clean_sbu_0, # of connection points: 4
#     Node 2, Type 0, BuildingBlock: TATPOV_clean_sbu_0, # of connection points: 4
#     Node 3, Type 0, BuildingBlock: TATPOV_clean_sbu_0, # of connection points: 4
#     Node 4, Type 0, BuildingBlock: TATPOV_clean_sbu_0, # of connection points: 4
#     Node 5, Type 0, BuildingBlock: TATPOV_clean_sbu_0, # of connection points: 4
#     Node 6, Type 0, BuildingBlock: TATPOV_clean_sbu_0, # of connection points: 4
#     Node 7, Type 0, BuildingBlock: TATPOV_clean_sbu_0, # of connection points: 4
#     Node 8, Type 0, BuildingBlock: TATPOV_clean_sbu_0, # of connection points: 4
#     Node 9, Type 0, BuildingBlock: TATPOV_clean_sbu_0, # of connection points: 4
#     Node 10, Type 0, BuildingBlock: TATPOV_clean_sbu_0, # of connection points: 4
#     Node 11, Type 0, BuildingBlock: TATPOV_clean_sbu_0, # of connection points: 4
#     Node 12, Type 0, BuildingBlock: TATPOV_clean_sbu_0, # of connection points: 4
#     Node 13, Type 0, BuildingBlock: TATPOV_clean_sbu_0, # of connection points: 4
#     Node 14, Type 0, BuildingBlock: TATPOV_clean_sbu_0, # of connection points: 4
#     Node 15, Type 0, BuildingBlock: TATPOV_clean_sbu_0, # of connection points: 4
#     Node 16, Type 0, BuildingBlock: TATPOV_clean_sbu_0, # of connection points: 4
#     Node 17, Type 0, BuildingBlock: TATPOV_clean_sbu_0, # of connection points: 4
#     Node 18, Type 0, BuildingBlock: TATPOV_clean_sbu_0, # of connection points: 4
#     Node 19, Type 0, BuildingBlock: TATPOV_clean_sbu_0, # of connection points: 4
#     Node 20, Type 0, BuildingBlock: TATPOV_clean_sbu_0, # of connection points: 4
#     Node 21, Type 0, BuildingBlock: TATPOV_clean_sbu_0, # of connection points: 4
#     Node 22, Type 0, BuildingBlock: TATPOV_clean_sbu_0, # of connection points: 4
#     Node 23, Type 0, BuildingBlock: TATPOV_clean_sbu_0, # of connection points: 4
#     Node 24, Type 1, BuildingBlock: NUHQIS_clean_sbu_0, # of connection points: 6
#     Node 25, Type 1, BuildingBlock: NUHQIS_clean_sbu_0, # of connection points: 6
#     Node 26, Type 1, BuildingBlock: NUHQIS_clean_sbu_0, # of connection points: 6
#     Node 27, Type 1, BuildingBlock: NUHQIS_clean_sbu_0, # of connection points: 6
#     Node 28, Type 1, BuildingBlock: NUHQIS_clean_sbu_0, # of connection points: 6
#     Node 29, Type 1, BuildingBlock: NUHQIS_clean_sbu_0, # of connection points: 6
#     Node 30, Type 1, BuildingBlock: NUHQIS_clean_sbu_0, # of connection points: 6
#     Node 31, Type 1, BuildingBlock: NUHQIS_clean_sbu_0, # of connection points: 6
#     Node 32, Type 1, BuildingBlock: NUHQIS_clean_sbu_0, # of connection points: 6
#     Node 33, Type 1, BuildingBlock: NUHQIS_clean_sbu_0, # of connection points: 6
#     Node 34, Type 1, BuildingBlock: NUHQIS_clean_sbu_0, # of connection points: 6
#     Node 35, Type 1, BuildingBlock: NUHQIS_clean_sbu_0, # of connection points: 6
#     Node 36, Type 1, BuildingBlock: NUHQIS_clean_sbu_0, # of connection points: 6
#     Node 37, Type 1, BuildingBlock: NUHQIS_clean_sbu_0, # of connection points: 6
#     Node 38, Type 1, BuildingBlock: NUHQIS_clean_sbu_0, # of connection points: 6
#     Node 39, Type 1, BuildingBlock: NUHQIS_clean_sbu_0, # of connection points: 6
#     Edge 40, Type (0, 1), BuildingBlock: CIFDUS_clean_linker_0, # of connection points: 2
#     Edge 41, Type (0, 1), BuildingBlock: CIFDUS_clean_linker_0, # of connection points: 2
#     Edge 42, Type (0, 1), BuildingBlock: CIFDUS_clean_linker_0, # of connection points: 2
#     Edge 43, Type (0, 1), BuildingBlock: CIFDUS_clean_linker_0, # of connection points: 2
#     Edge 44, Type (0, 1), BuildingBlock: CIFDUS_clean_linker_0, # of connection points: 2
#     Edge 45, Type (0, 1), BuildingBlock: CIFDUS_clean_linker_0, # of connection points: 2
#     Edge 46, Type (0, 1), BuildingBlock: CIFDUS_clean_linker_0, # of connection points: 2
#     Edge 47, Type (0, 1), BuildingBlock: CIFDUS_clean_linker_0, # of connection points: 2
#     Edge 48, Type (0, 1), BuildingBlock: CIFDUS_clean_linker_0, # of connection points: 2
#     Edge 49, Type (0, 1), BuildingBlock: CIFDUS_clean_linker_0, # of connection points: 2
#     Edge 50, Type (0, 1), BuildingBlock: CIFDUS_clean_linker_0, # of connection points: 2
#     Edge 51, Type (0, 1), BuildingBlock: CIFDUS_clean_linker_0, # of connection points: 2
#     Edge 52, Type (0, 1), BuildingBlock: CIFDUS_clean_linker_0, # of connection points: 2
#     Edge 53, Type (0, 1), BuildingBlock: CIFDUS_clean_linker_0, # of connection points: 2
#     Edge 54, Type (0, 1), BuildingBlock: CIFDUS_clean_linker_0, # of connection points: 2
#     Edge 55, Type (0, 1), BuildingBlock: CIFDUS_clean_linker_0, # of connection points: 2
#     Edge 56, Type (0, 1), BuildingBlock: CIFDUS_clean_linker_0, # of connection points: 2
#     Edge 57, Type (0, 1), BuildingBlock: CIFDUS_clean_linker_0, # of connection points: 2
#     Edge 58, Type (0, 1), BuildingBlock: CIFDUS_clean_linker_0, # of connection points: 2
#     Edge 59, Type (0, 1), BuildingBlock: CIFDUS_clean_linker_0, # of connection points: 2
#     Edge 60, Type (0, 1), BuildingBlock: CIFDUS_clean_linker_0, # of connection points: 2
#     Edge 61, Type (0, 1), BuildingBlock: CIFDUS_clean_linker_0, # of connection points: 2
#     Edge 62, Type (0, 1), BuildingBlock: CIFDUS_clean_linker_0, # of connection points: 2
#     Edge 63, Type (0, 1), BuildingBlock: CIFDUS_clean_linker_0, # of connection points: 2
#     Edge 64, Type (0, 1), BuildingBlock: CIFDUS_clean_linker_0, # of connection points: 2
#     Edge 65, Type (0, 1), BuildingBlock: CIFDUS_clean_linker_0, # of connection points: 2
#     Edge 66, Type (0, 1), BuildingBlock: CIFDUS_clean_linker_0, # of connection points: 2
#     Edge 67, Type (0, 1), BuildingBlock: CIFDUS_clean_linker_0, # of connection points: 2
#     Edge 68, Type (0, 1), BuildingBlock: CIFDUS_clean_linker_0, # of connection points: 2
#     Edge 69, Type (0, 1), BuildingBlock: CIFDUS_clean_linker_0, # of connection points: 2
#     Edge 70, Type (0, 1), BuildingBlock: CIFDUS_clean_linker_0, # of connection points: 2
#     Edge 71, Type (0, 1), BuildingBlock: CIFDUS_clean_linker_0, # of connection points: 2
#     Edge 72, Type (0, 1), BuildingBlock: CIFDUS_clean_linker_0, # of connection points: 2
#     Edge 73, Type (0, 1), BuildingBlock: CIFDUS_clean_linker_0, # of connection points: 2
#     Edge 74, Type (0, 1), BuildingBlock: CIFDUS_clean_linker_0, # of connection points: 2
#     Edge 75, Type (0, 1), BuildingBlock: CIFDUS_clean_linker_0, # of connection points: 2
#     Edge 76, Type (0, 1), BuildingBlock: CIFDUS_clean_linker_0, # of connection points: 2
#     Edge 77, Type (0, 1), BuildingBlock: CIFDUS_clean_linker_0, # of connection points: 2
#     Edge 78, Type (0, 1), BuildingBlock: CIFDUS_clean_linker_0, # of connection points: 2
#     Edge 79, Type (0, 1), BuildingBlock: CIFDUS_clean_linker_0, # of connection points: 2
#     Edge 80, Type (0, 1), BuildingBlock: CIFDUS_clean_linker_0, # of connection points: 2
#     Edge 81, Type (0, 1), BuildingBlock: CIFDUS_clean_linker_0, # of connection points: 2
#     Edge 82, Type (0, 1), BuildingBlock: CIFDUS_clean_linker_0, # of connection points: 2
#     Edge 83, Type (0, 1), BuildingBlock: CIFDUS_clean_linker_0, # of connection points: 2
#     Edge 84, Type (0, 1), BuildingBlock: CIFDUS_clean_linker_0, # of connection points: 2
#     Edge 85, Type (0, 1), BuildingBlock: CIFDUS_clean_linker_0, # of connection points: 2
#     Edge 86, Type (0, 1), BuildingBlock: CIFDUS_clean_linker_0, # of connection points: 2
#     Edge 87, Type (0, 1), BuildingBlock: CIFDUS_clean_linker_0, # of connection points: 2
#     Edge 88, Type (0, 1), BuildingBlock: CIFDUS_clean_linker_0, # of connection points: 2
#     Edge 89, Type (0, 1), BuildingBlock: CIFDUS_clean_linker_0, # of connection points: 2
#     Edge 90, Type (0, 1), BuildingBlock: CIFDUS_clean_linker_0, # of connection points: 2
#     Edge 91, Type (0, 1), BuildingBlock: CIFDUS_clean_linker_0, # of connection points: 2
#     Edge 92, Type (0, 1), BuildingBlock: CIFDUS_clean_linker_0, # of connection points: 2
#     Edge 93, Type (0, 1), BuildingBlock: CIFDUS_clean_linker_0, # of connection points: 2
#     Edge 94, Type (0, 1), BuildingBlock: CIFDUS_clean_linker_0, # of connection points: 2
#     Edge 95, Type (0, 1), BuildingBlock: CIFDUS_clean_linker_0, # of connection points: 2
#     Edge 96, Type (0, 1), BuildingBlock: CIFDUS_clean_linker_0, # of connection points: 2
#     Edge 97, Type (0, 1), BuildingBlock: CIFDUS_clean_linker_0, # of connection points: 2
#     Edge 98, Type (0, 1), BuildingBlock: CIFDUS_clean_linker_0, # of connection points: 2
#     Edge 99, Type (0, 1), BuildingBlock: CIFDUS_clean_linker_0, # of connection points: 2
#     Edge 100, Type (0, 1), BuildingBlock: CIFDUS_clean_linker_0, # of connection points: 2
#     Edge 101, Type (0, 1), BuildingBlock: CIFDUS_clean_linker_0, # of connection points: 2
#     Edge 102, Type (0, 1), BuildingBlock: CIFDUS_clean_linker_0, # of connection points: 2
#     Edge 103, Type (0, 1), BuildingBlock: CIFDUS_clean_linker_0, # of connection points: 2
#     Edge 104, Type (0, 1), BuildingBlock: CIFDUS_clean_linker_0, # of connection points: 2
#     Edge 105, Type (0, 1), BuildingBlock: CIFDUS_clean_linker_0, # of connection points: 2
#     Edge 106, Type (0, 1), BuildingBlock: CIFDUS_clean_linker_0, # of connection points: 2
#     Edge 107, Type (0, 1), BuildingBlock: CIFDUS_clean_linker_0, # of connection points: 2
#     Edge 108, Type (0, 1), BuildingBlock: CIFDUS_clean_linker_0, # of connection points: 2
#     Edge 109, Type (0, 1), BuildingBlock: CIFDUS_clean_linker_0, # of connection points: 2
#     Edge 110, Type (0, 1), BuildingBlock: CIFDUS_clean_linker_0, # of connection points: 2
#     Edge 111, Type (0, 1), BuildingBlock: CIFDUS_clean_linker_0, # of connection points: 2
#     Edge 112, Type (0, 1), BuildingBlock: CIFDUS_clean_linker_0, # of connection points: 2
#     Edge 113, Type (0, 1), BuildingBlock: CIFDUS_clean_linker_0, # of connection points: 2
#     Edge 114, Type (0, 1), BuildingBlock: CIFDUS_clean_linker_0, # of connection points: 2
#     Edge 115, Type (0, 1), BuildingBlock: CIFDUS_clean_linker_0, # of connection points: 2
#     Edge 116, Type (0, 1), BuildingBlock: CIFDUS_clean_linker_0, # of connection points: 2
#     Edge 117, Type (0, 1), BuildingBlock: CIFDUS_clean_linker_0, # of connection points: 2
#     Edge 118, Type (0, 1), BuildingBlock: CIFDUS_clean_linker_0, # of connection points: 2
#     Edge 119, Type (0, 1), BuildingBlock: CIFDUS_clean_linker_0, # of connection points: 2
#     Edge 120, Type (0, 1), BuildingBlock: CIFDUS_clean_linker_0, # of connection points: 2
#     Edge 121, Type (0, 1), BuildingBlock: CIFDUS_clean_linker_0, # of connection points: 2
#     Edge 122, Type (0, 1), BuildingBlock: CIFDUS_clean_linker_0, # of connection points: 2
#     Edge 123, Type (0, 1), BuildingBlock: CIFDUS_clean_linker_0, # of connection points: 2
#     Edge 124, Type (0, 1), BuildingBlock: CIFDUS_clean_linker_0, # of connection points: 2
#     Edge 125, Type (0, 1), BuildingBlock: CIFDUS_clean_linker_0, # of connection points: 2
#     Edge 126, Type (0, 1), BuildingBlock: CIFDUS_clean_linker_0, # of connection points: 2
#     Edge 127, Type (0, 1), BuildingBlock: CIFDUS_clean_linker_0, # of connection points: 2
#     Edge 128, Type (0, 1), BuildingBlock: CIFDUS_clean_linker_0, # of connection points: 2
#     Edge 129, Type (0, 1), BuildingBlock: CIFDUS_clean_linker_0, # of connection points: 2
#     Edge 130, Type (0, 1), BuildingBlock: CIFDUS_clean_linker_0, # of connection points: 2
#     Edge 131, Type (0, 1), BuildingBlock: CIFDUS_clean_linker_0, # of connection points: 2
#     Edge 132, Type (0, 1), BuildingBlock: CIFDUS_clean_linker_0, # of connection points: 2
#     Edge 133, Type (0, 1), BuildingBlock: CIFDUS_clean_linker_0, # of connection points: 2
#     Edge 134, Type (0, 1), BuildingBlock: CIFDUS_clean_linker_0, # of connection points: 2
#     Edge 135, Type (0, 1), BuildingBlock: CIFDUS_clean_linker_0, # of connection points: 2
# Relax obj value: 0.260
# Max RMSD: 0.353
# Mean RMSD: 0.165
data_MOF--net-gar--node1-TATPOV_clean_sbu_0--node2-NUHQIS_clean_sbu_0--edge1-CIFDUS_clean_linker_0
_symmetry_space_group_name_H-M    P1
_symmetry_Int_Tables_number       1
_symmetry_cell_setting            triclinic
loop_
_symmetry_equiv_pos_as_xyz
'x, y, z'
_cell_length_a     49.398188
_cell_length_b     51.701662
_cell_length_c     50.010407
_cell_angle_alpha  94.218182
_cell_angle_beta   96.697855
_cell_angle_gamma 100.90649
loop_
_atom_site_label
_atom_site_type_symbol
_atom_site_fract_x
_atom_site_fract_y
_atom_site_fract_z
_atom_type_partial_charge
Zn0 Zn 0.07454 0.31064 0.45223 0.0
Zn1 Zn 0.11316 0.31245 0.4214 0.0
O2 O 0.11806 0.35241 0.4446 0.0
O3 O 0.08521 0.34809 0.47098 0.0
O4 O 0.14994 0.3175 0.39996 0.0
O5 O 0.08155 0.27742 0.46966 0.0
O6 O 0.11305 0.27505 0.44256 0.0
C7 C 0.10497 0.36295 0.46218 0.0
C8 C 0.05049 0.30718 0.39615 0.0
O9 O 0.07595 0.30824 0.39193 0.0
O10 O 1.0447 0.30732 0.42016 0.0
C11 C 0.15606 0.30368 0.37977 0.0
O12 O 0.1378 0.28253 0.36902 0.0
C13 C 0.09893 0.26484 0.46086 0.0
Zn14 Zn 0.08573 0.79009 0.6901 0.0
Zn15 Zn 0.0885 0.82484 0.65586 0.0
O16 O 0.05145 0.82653 0.67765 0.0
O17 O 0.05109 0.79535 0.70522 0.0
O18 O 0.09048 0.85887 0.63033 0.0
O19 O 0.12323 0.80424 0.71139 0.0
O20 O 0.12946 0.83241 0.68077 0.0
C21 C 1.03988 0.81342 0.69588 0.0
C22 C 0.08475 0.76202 0.63836 0.0
O23 O 0.08543 0.78572 0.63089 0.0
O24 O 0.08413 0.7589 0.66315 0.0
C25 C 0.09378 0.88374 0.63901 0.0
O26 O 0.09629 0.88969 0.66529 0.0
C27 C 0.13923 0.82219 0.70171 0.0
Zn28 Zn 0.57474 0.80749 0.95287 0.0
Zn29 Zn 0.61331 0.81111 0.91958 0.0
O30 O 0.61754 0.85075 0.9422 0.0
O31 O 0.58892 0.84536 0.97279 0.0
O32 O 0.64989 0.81486 0.89739 0.0
O33 O 0.58057 0.77249 0.9676 0.0
O34 O 0.6131 0.77401 0.94088 0.0
C35 C 0.60669 0.86079 0.96189 0.0
C36 C 0.55032 0.80502 0.89592 0.0
O37 O 0.57579 0.8076 0.89123 0.0
O38 O 0.54492 0.80399 0.92005 0.0
C39 C 0.65548 0.80025 0.87743 0.0
O40 O 0.63665 0.7793 0.86721 0.0
C41 C 0.59881 0.76166 0.95799 0.0
Zn42 Zn 0.58323 0.28834 0.18951 0.0
Zn43 Zn 0.58695 0.32322 0.15411 0.0
O44 O 0.54932 0.32353 0.17499 0.0
O45 O 0.55025 0.29655 0.2069 0.0
O46 O 0.58878 0.36058 0.13363 0.0
O47 O 0.62201 0.30049 0.20902 0.0
O48 O 0.62782 0.32949 0.17912 0.0
C49 C 0.53846 0.31301 0.19499 0.0
C50 C 0.58135 0.26118 0.13538 0.0
O51 O 0.58393 0.28508 0.12805 0.0
O52 O 0.57914 0.25797 0.16 0.0
C53 C 0.5954 0.37007 0.11144 0.0
O54 O 0.60353 0.35443 0.09345 0.0
C55 C 0.63795 0.31853 0.19936 0.0
Zn56 Zn 0.2267 0.88621 0.14825 0.0
Zn57 Zn 0.18539 0.88558 0.18059 0.0
O58 O 0.17985 0.91322 0.15495 0.0
O59 O 0.21032 0.91227 0.12625 0.0
O60 O 0.15276 0.88287 0.20143 0.0
O61 O 0.2149 0.8461 0.13983 0.0
O62 O 0.18118 0.84758 0.16462 0.0
C63 C 0.19067 0.92179 0.13462 0.0
C64 C 0.24518 0.90413 0.2056 0.0
O65 O 0.21954 0.89795 0.20837 0.0
O66 O 0.25301 0.90131 0.18247 0.0
C67 C 0.148 0.8639 0.21611 0.0
O68 O 0.16561 0.84782 0.21861 0.0
C69 C 0.19401 0.83441 0.14979 0.0
Zn70 Zn 0.50202 0.73643 0.42854 0.0
Zn71 Zn 0.5458 0.74722 0.3999 0.0
O72 O 0.54057 0.7836 0.41388 0.0
O73 O 0.50589 0.77623 0.4381 0.0
O74 O 0.57828 0.75593 0.3797 0.0
O75 O 0.52481 0.71562 0.45229 0.0
O76 O 0.5591 0.724 0.42778 0.0
C77 C 0.52404 0.79224 0.42833 0.0
C78 C 0.4888 0.72097 0.37035 0.0
O79 O 0.51459 0.73019 0.37061 0.0
O80 O 0.47844 0.7203 0.39243 0.0
C81 C 0.57821 0.77255 0.36223 0.0
O82 O 0.55635 0.78338 0.35733 0.0
C83 C 0.54893 0.71334 0.44748 0.0
Zn84 Zn 0.70815 0.38055 0.63741 0.0
Zn85 Zn 0.67774 0.37814 0.68068 0.0
O86 O 0.65955 0.39999 0.65549 0.0
O87 O 0.68015 0.40058 0.61878 0.0
O88 O 0.65123 0.37218 0.7078 0.0
O89 O 0.70143 0.33983 0.63354 0.0
O90 O 0.67623 0.34033 0.66698 0.0
C91 C 0.66161 0.40707 0.63193 0.0
C92 C 0.73847 0.40398 0.69085 0.0
O93 O 0.71545 0.39628 0.69973 0.0
O94 O 0.74024 0.40028 0.66576 0.0
C95 C 0.65173 0.38004 0.73253 0.0
O96 O 0.67366 0.39646 0.74556 0.0
C97 C 0.68633 0.32759 0.64929 0.0
Zn98 Zn 0.98903 0.24099 0.9362 0.0
Zn99 Zn 1.03287 0.23744 0.90841 0.0
O100 O 1.03593 0.27689 0.91454 0.0
O101 O 0.99985 0.28141 0.93521 0.0
O102 O 0.06434 0.23507 0.88745 0.0
O103 O 1.0076 0.22217 0.96575 0.0
O104 O 1.04242 0.22033 0.94234 0.0
C105 C 1.02109 0.29156 0.92473 0.0
C106 C 0.97276 0.21486 0.88223 0.0
O107 O 0.99891 0.2201 0.88182 0.0
O108 O 0.96294 0.22038 0.90379 0.0
C109 C 0.06315 0.2441 0.86452 0.0
O110 O 1.04115 0.25338 0.85557 0.0
C111 C 1.03085 0.21584 0.96338 0.0
Zn112 Zn 0.605 0.14706 0.35884 0.0
Zn113 Zn 0.55363 0.15556 0.36037 0.0
O114 O 0.57543 0.17561 0.39587 0.0
O115 O 0.61787 0.16919 0.39381 0.0
O116 O 0.51497 0.16272 0.36024 0.0
O117 O 0.60796 0.16465 0.32491 0.0
O118 O 0.56407 0.16774 0.32406 0.0
C119 C 0.60083 0.17914 0.40628 0.0
C120 C 0.56385 0.09886 0.3588 0.0
O121 O 0.5478 0.11532 0.36043 0.0
O122 O 0.58952 0.10715 0.35764 0.0
C123 C 0.49446 0.14657 0.34673 0.0
O124 O 0.49894 0.12527 0.33338 0.0
C125 C 0.58639 0.17093 0.3132 0.0
Zn126 Zn 0.34231 0.22427 0.52499 0.0
Zn127 Zn 0.37445 0.19137 0.52666 0.0
O128 O 0.37551 0.21098 0.48805 0.0
O129 O 0.34972 0.24104 0.49068 0.0
O130 O 0.4079 0.16891 0.52513 0.0
O131 O 0.35449 0.24395 0.56168 0.0
O132 O 0.3798 0.21364 0.56751 0.0
C133 C 0.36509 0.22963 0.47736 0.0
C134 C 0.31121 0.1704 0.52565 0.0
O135 O 0.33524 0.16419 0.52543 0.0
O136 O 0.30918 0.19439 0.52464 0.0
C137 C 0.42546 0.16292 0.54374 0.0
O138 O 0.42376 0.17047 0.56904 0.0
C139 C 0.3698 0.23311 0.57751 0.0
Zn140 Zn 0.16333 0.11247 0.86232 0.0
Zn141 Zn 0.20031 0.08458 0.84504 0.0
O142 O 0.19786 0.07259 0.88272 0.0
O143 O 0.16623 0.09384 0.89596 0.0
O144 O 0.227 0.0644 0.83062 0.0
O145 O 0.13462 0.09459 0.83171 0.0
O146 O 0.16473 0.07167 0.81834 0.0
C147 C 0.18229 0.07774 0.90003 0.0
C148 C 0.21305 0.14526 0.84914 0.0
O149 O 0.21959 0.12299 0.84374 0.0
O150 O 0.19004 0.14631 0.85759 0.0
C151 C 0.25023 0.06467 0.84459 0.0
O152 O 0.25643 0.07843 0.86841 0.0
C153 C 0.14051 0.0771 0.81557 0.0
Zn154 Zn 0.3948 0.86986 0.04922 0.0
Zn155 Zn 0.36407 0.90545 0.05722 0.0
O156 O 0.35026 0.88898 0.0173 0.0
O157 O 0.37461 0.85787 1.01202 0.0
O158 O 0.33956 0.93229 0.06316 0.0
O159 O 0.38434 0.85167 0.08124 0.0
O160 O 0.36013 0.88218 0.08988 0.0
C161 C 0.35655 0.87034 1.00253 0.0
C162 C 0.42686 0.92277 0.05938 0.0
O163 O 0.40306 0.9286 0.0603 0.0
O164 O 0.42905 0.89888 0.05494 0.0
C165 C 0.34868 0.9537 0.07849 0.0
O166 O 0.37405 0.95796 0.09148 0.0
C167 C 0.36972 0.8619 0.09653 0.0
Zn168 Zn 0.35941 0.40384 0.04108 0.0
Zn169 Zn 0.31997 0.43056 0.03704 0.0
O170 O 0.31418 0.40713 0.99716 0.0
O171 O 0.34959 0.38696 1.00234 0.0
O172 O 0.2859 0.45235 0.0383 0.0
O173 O 0.34891 0.3836 0.07257 0.0
O174 O 0.31772 0.40867 0.07422 0.0
C175 C 0.32913 0.39179 0.98713 0.0
C176 C 0.38435 0.45838 0.04358 0.0
O177 O 0.3585 0.45994 0.03844 0.0
O178 O 0.39044 0.43622 0.04788 0.0
C179 C 0.26706 0.45655 0.01984 0.0
O180 O 0.26727 0.44689 0.99485 0.0
C181 C 0.33016 0.39109 0.08457 0.0
Zn182 Zn 0.80129 0.27 0.03153 0.0
Zn183 Zn 0.83511 0.23459 0.03752 0.0
O184 O 0.84409 0.25037 1.00235 0.0
O185 O 0.81915 0.28139 0.9988 0.0
O186 O 0.86227 0.21091 0.04457 0.0
O187 O 0.81716 0.28863 0.06881 0.0
O188 O 0.8435 0.25889 0.07285 0.0
C189 C 0.83645 0.26891 0.98982 0.0
C190 C 0.773 0.21418 0.02835 0.0
O191 O 0.79748 0.20974 0.03298 0.0
O192 O 0.76924 0.23767 0.02668 0.0
C193 C 0.86965 0.19578 0.02684 0.0
O194 O 0.85898 0.19488 1.00138 0.0
C195 C 0.83537 0.27908 0.08262 0.0
Zn196 Zn 0.07626 0.51614 0.21946 0.0
Zn197 Zn 0.12036 0.49584 0.23541 0.0
O198 O 0.095 0.48661 0.26463 0.0
O199 O 0.05954 0.50518 0.25219 0.0
O200 O 0.15416 0.48079 0.2463 0.0
O201 O 0.06755 0.49044 0.18646 0.0
O202 O 0.10632 0.47647 0.19749 0.0
C203 C 0.07151 0.49197 0.26846 0.0
C204 C 0.12664 0.55541 0.22866 0.0
O205 O 0.13662 0.53563 0.23591 0.0
O206 O 0.10104 0.55236 0.21974 0.0
C207 C 0.17391 0.49233 0.26432 0.0
O208 O 0.17199 0.51469 0.27754 0.0
C209 C 0.08436 0.47572 0.18111 0.0
Zn210 Zn 0.86402 0.90313 0.54101 0.0
Zn211 Zn 0.82924 0.9351 0.53935 0.0
O212 O 0.82395 0.91355 0.49828 0.0
O213 O 0.85182 0.88521 0.50316 0.0
O214 O 0.79768 0.95954 0.53978 0.0
O215 O 0.85405 0.88595 0.57508 0.0
O216 O 0.8259 0.91404 0.57673 0.0
C217 C 0.8352 0.8952 0.48778 0.0
C218 C 0.8934 0.95759 0.54281 0.0
O219 O 0.86872 0.96235 0.54269 0.0
O220 O 0.89683 0.93391 0.54276 0.0
C221 C 0.77266 0.95516 0.52718 0.0
O222 O 0.76402 0.93318 0.51104 0.0
C223 C 0.83685 0.89574 0.58752 0.0
Zn224 Zn 1.00677 0.99248 0.22339 0.0
Zn225 Zn 0.97876 0.02766 0.23837 0.0
O226 O 0.98794 1.01248 0.27406 0.0
O227 O 1.00483 0.97827 0.25972 0.0
O228 O 0.95614 0.05469 0.2477 0.0
O229 O 1.03924 1.02048 0.21882 0.0
O230 O 1.01252 0.0495 0.22437 0.0
C231 C 0.9968 0.99139 0.27859 0.0
C232 C 0.95342 0.98015 0.19618 0.0
O233 O 0.95164 0.99903 0.21328 0.0
O234 O 0.9772 0.97592 0.19255 0.0
C235 C 0.93657 0.05936 0.23105 0.0
O236 O 0.93082 0.04617 0.20694 0.0
C237 C 1.03559 0.04405 0.21928 0.0
Zn238 Zn 0.29435 0.75721 0.53434 0.0
Zn239 Zn 0.33119 0.7237 0.52944 0.0
O240 O 0.33962 0.75069 0.50209 0.0
O241 O 0.31148 0.7787 0.50586 0.0
O242 O 0.35699 0.6988 0.52194 0.0
O243 O 0.31213 0.76499 0.57396 0.0
O244 O 0.34051 0.73706 0.56979 0.0
C245 C 0.33079 0.77104 0.49482 0.0
C246 C 0.26803 0.70234 0.51865 0.0
O247 O 0.29323 0.69973 0.52129 0.0
O248 O 0.26224 0.72509 0.52251 0.0
C249 C 0.34945 0.68046 0.50257 0.0
O250 O 0.325 0.67795 0.48806 0.0
C251 C 0.33095 0.75366 0.58426 0.0
Zn252 Zn 0.45389 0.52004 0.72423 0.0
Zn253 Zn 0.41089 0.53539 0.71087 0.0
O254 O 0.41428 0.54339 0.75218 0.0
O255 O 0.4428 0.51638 0.76107 0.0
O256 O 0.37642 0.54834 0.69798 0.0
O257 O 0.47911 0.5529 0.7166 0.0
O258 O 0.4408 0.55783 0.69241 0.0
C259 C 0.42635 0.53044 0.76885 0.0
C260 C 0.4187 0.47899 0.69521 0.0
O261 O 0.40307 0.49521 0.70053 0.0
O262 O 0.44477 0.48716 0.69828 0.0
C263 C 0.35269 0.53887 0.70444 0.0
O264 O 0.3498 0.51778 0.71781 0.0
C265 C 0.46706 0.5645 0.69883 0.0
Zn266 Zn 0.59001 1.00901 0.70497 0.0
Zn267 Zn 0.63905 0.99189 0.71211 0.0
O268 O 0.62191 0.9831 0.74642 0.0
O269 O 0.58102 0.99454 0.73944 0.0
O270 O 0.67708 0.98312 0.71865 0.0
O271 O 0.58025 0.98298 0.67187 0.0
O272 O 0.61938 0.96839 0.67811 0.0
C273 C 0.59837 0.98449 0.75379 0.0
C274 C 0.63726 0.05099 0.70613 0.0
O275 O 0.64942 0.03148 0.70793 0.0
O276 O 0.61103 0.04727 0.70501 0.0
C277 C 0.69528 0.99912 0.73516 0.0
O278 O 0.68803 1.01943 0.74777 0.0
C279 C 0.59548 0.9672 0.66484 0.0
Zn280 Zn 0.83039 0.72061 0.02149 0.0
Zn281 Zn 0.86693 0.69031 0.02634 0.0
O282 O 0.86985 0.7105 0.9886 0.0
O283 O 0.84286 0.73974 0.98971 0.0
O284 O 0.89848 0.66593 0.02604 0.0
O285 O 0.84074 0.73748 0.0601 0.0
O286 O 0.87313 0.71371 0.06594 0.0
C287 C 0.85993 0.72933 0.97777 0.0
C288 C 0.80253 0.66623 0.01989 0.0
O289 O 0.82778 0.66309 0.02518 0.0
O290 O 0.79805 0.68891 1.01517 0.0
C291 C 0.9235 0.67031 0.03858 0.0
O292 O 0.93217 0.69229 0.0547 0.0
C293 C 0.85971 0.73062 0.07567 0.0
Zn294 Zn 0.1396 0.61924 0.85116 0.0
Zn295 Zn 0.09363 0.63624 0.83223 0.0
O296 O 0.10442 0.65694 0.86966 0.0
O297 O 0.14346 0.64481 0.88408 0.0
O298 O 0.05773 0.6471 0.81795 0.0
O299 O 0.15831 0.63198 0.82017 0.0
O300 O 0.12135 0.64741 0.80509 0.0
C301 C 0.12531 0.65858 0.88767 0.0
C302 C 0.09175 0.57717 0.84178 0.0
O303 O 0.0803 0.59603 0.83422 0.0
O304 O 0.11762 0.58163 0.8499 0.0
C305 C 1.03749 0.64121 0.83145 0.0
O306 O 1.04139 0.62927 0.85347 0.0
C307 C 0.14616 0.64438 0.8032 0.0
Zn308 Zn 0.89527 0.37477 0.54715 0.0
Zn309 Zn 0.85672 0.40566 0.54855 0.0
O310 O 0.84613 0.38617 0.50991 0.0
O311 O 0.87597 0.35934 0.51003 0.0
O312 O 0.82865 0.42919 0.55284 0.0
O313 O 0.88454 0.35802 0.58021 0.0
O314 O 0.85328 0.38313 0.58102 0.0
C315 C 0.85588 0.36792 0.49809 0.0
C316 C 0.91878 0.43072 0.55432 0.0
O317 O 0.89339 0.43282 0.55284 0.0
O318 O 0.9251 0.40809 0.55229 0.0
C319 C 0.80811 0.42346 0.56601 0.0
O320 O 0.80333 0.4004 0.5758 0.0
C321 C 0.86536 0.36576 0.5913 0.0
Zn322 Zn 0.68565 0.63328 0.37864 0.0
Zn323 Zn 0.70235 0.5977 0.3433 0.0
O324 O 0.70099 0.57822 0.37657 0.0
O325 O 0.69163 0.60769 0.40641 0.0
O326 O 0.71729 0.57326 0.3185 0.0
O327 O 0.64929 0.62787 0.35321 0.0
O328 O 0.66371 0.59927 0.32588 0.0
C329 C 0.69722 0.58522 0.40043 0.0
C330 C 0.73393 0.65574 0.35656 0.0
O331 O 0.73052 0.63238 0.34506 0.0
O332 O 0.7172 0.66168 0.37219 0.0
C333 C 0.74299 0.57332 0.32469 0.0
O334 O 0.75698 0.58926 0.34546 0.0
C335 C 0.64512 0.61183 0.33205 0.0
Tb336 Tb 0.10297 0.08609 0.07901 0.0
Eu337 Eu 0.16943 0.11675 0.09199 0.0
C338 C 0.14556 0.07214 0.04145 0.0
C339 C 0.14718 0.05856 0.10766 0.0
C340 C 1.0276 0.08041 0.06522 0.0
C341 C 0.9831 0.08038 0.03887 0.0
C342 C 1.00462 0.06735 0.04685 0.0
C343 C 1.02873 0.10657 0.07576 0.0
C344 C 1.00718 0.11951 0.06796 0.0
C345 C 0.98425 0.10664 0.04927 0.0
C346 C 0.05144 0.06763 0.07125 0.0
O347 O 0.10779 0.12271 0.10466 0.0
O348 O 0.14844 0.121 0.12915 0.0
O349 O 0.14638 0.14672 0.07419 0.0
O350 O 0.10903 0.11625 0.05135 0.0
C351 C 0.12336 0.126 0.12805 0.0
O352 O 0.20721 0.12614 0.12119 0.0
O353 O 0.2082 0.13856 0.08082 0.0
O354 O 0.16308 0.09423 0.05094 0.0
O355 O 0.12317 0.06312 0.05243 0.0
O356 O 0.12275 0.0647 0.10878 0.0
O357 O 0.16674 0.07366 0.09708 0.0
C358 C 0.12388 0.14042 0.05617 0.0
O359 O 0.06745 0.06768 0.05231 0.0
O360 O 0.06579 0.07404 0.09524 0.0
C361 C 0.24469 0.11846 0.09915 0.0
C362 C 0.27961 0.08111 0.09627 0.0
C363 C 0.28263 0.09929 0.11934 0.0
C364 C 0.26529 0.11776 0.12077 0.0
C365 C 0.24244 0.10105 0.07567 0.0
C366 C 0.25975 0.08268 0.07421 0.0
C367 C 0.22282 0.13387 0.10281 0.0
H368 H 0.96557 0.06994 0.0246 0.0
H369 H 1.00359 0.04727 0.03828 0.0
H370 H 0.04655 0.11723 0.08955 0.0
H371 H 1.00884 0.13987 0.076 0.0
H372 H 0.29755 0.09851 0.13678 0.0
H373 H 0.26711 0.13066 0.13924 0.0
H374 H 0.22657 0.10088 0.05877 0.0
H375 H 0.25719 0.06936 0.05594 0.0
Tb376 Tb 0.39197 0.83826 0.30579 0.0
Eu377 Eu 0.3279 0.80183 0.29406 0.0
C378 C 0.33958 0.863 0.31312 0.0
C379 C 0.36512 0.80696 0.35041 0.0
C380 C 0.45293 0.89548 0.32274 0.0
C381 C 0.4528 0.93805 0.34683 0.0
C382 C 0.44065 0.91128 0.33979 0.0
C383 C 0.47755 0.90669 0.31304 0.0
C384 C 0.48958 0.93342 0.31986 0.0
C385 C 0.4773 0.94956 0.33671 0.0
C386 C 0.44006 0.86763 0.31383 0.0
O387 O 0.3983 0.79786 0.30216 0.0
O388 O 0.35532 0.77398 0.28203 0.0
O389 O 0.33435 0.82915 0.26152 0.0
O390 O 0.38015 0.82801 0.26224 0.0
C391 C 0.38193 0.77586 0.29042 0.0
O392 O 0.2932 0.78143 0.26459 0.0
O393 O 0.28844 0.78407 0.30726 0.0
O394 O 0.32669 0.83975 0.31853 0.0
O395 O 0.36389 0.86583 0.30424 0.0
O396 O 0.37761 0.83038 0.3448 0.0
O397 O 0.34908 0.78991 0.33181 0.0
C398 C 0.35671 0.83204 0.24958 0.0
O399 O 0.42926 0.85325 0.33172 0.0
O400 O 0.42406 0.86342 0.29074 0.0
C401 C 0.26256 0.74643 0.27931 0.0
C402 C 0.23328 0.69355 0.26859 0.0
C403 C 0.26255 0.69951 0.27103 0.0
C404 C 0.27707 0.72576 0.27635 0.0
C405 C 0.23351 0.74058 0.27737 0.0
C406 C 0.21899 0.7144 0.27212 0.0
C407 C 0.27717 0.77422 0.28282 0.0
H408 H 0.44294 0.94971 0.36014 0.0
H409 H 0.42156 0.90302 0.34744 0.0
H410 H 0.48724 0.89483 0.29971 0.0
H411 H 0.50811 0.94156 0.31126 0.0
H412 H 0.27419 0.68398 0.26823 0.0
H413 H 0.29955 0.72997 0.27769 0.0
H414 H 0.22201 0.75633 0.27959 0.0
H415 H 0.19653 0.71051 0.27089 0.0
Tb416 Tb 0.58856 0.05292 0.5029 0.0
Eu417 Eu 0.61551 0.07209 0.5655 0.0
C418 C 0.57731 1.01493 0.54752 0.0
C419 C 0.55671 0.08654 0.53938 0.0
C420 C 0.56213 1.0042 0.44695 0.0
C421 C 0.56215 0.95948 0.45857 0.0
C422 C 0.56894 0.98665 0.46554 0.0
C423 C 0.54841 0.99414 0.4211 0.0
C424 C 0.54173 0.96669 0.41395 0.0
C425 C 0.5484 0.94916 0.43278 0.0
C426 C 0.56878 0.03268 0.45568 0.0
O427 O 0.61957 0.08863 0.50118 0.0
O428 O 0.62262 0.10862 0.54425 0.0
O429 O 0.64987 0.05745 0.54532 0.0
O430 O 0.62051 0.02902 0.51293 0.0
C431 C 0.62677 0.10947 0.51907 0.0
O432 O 0.65015 0.077 0.59796 0.0
O433 O 0.61224 0.08904 0.60618 0.0
O434 O 0.5985 0.02878 0.56401 0.0
O435 O 0.56618 1.0243 0.52629 0.0
O436 O 0.56409 0.08252 0.51508 0.0
O437 O 0.57052 0.07862 0.56057 0.0
C438 C 0.64526 0.03651 0.52752 0.0
O439 O 0.5537 0.04013 0.47335 0.0
O440 O 0.59513 0.04253 0.46306 0.0
C441 C 0.65434 0.11758 0.62394 0.0
C442 C 0.67754 0.17172 0.63757 0.0
C443 C 0.68198 0.15867 0.61332 0.0
C444 C 0.67043 0.13194 0.60654 0.0
C445 C 0.65096 0.13012 0.64879 0.0
C446 C 0.66256 0.15701 0.65563 0.0
C447 C 0.63857 0.09075 0.61449 0.0
H448 H 0.56796 0.9465 0.47334 0.0
H449 H 0.57945 0.99396 0.48562 0.0
H450 H 0.54272 1.00744 0.40669 0.0
H451 H 0.53101 0.95911 0.39398 0.0
H452 H 0.69292 0.16944 0.59873 0.0
H453 H 0.67301 0.12285 0.58703 0.0
H454 H 0.63837 0.11943 0.6623 0.0
H455 H 0.65895 0.16652 0.67454 0.0
Tb456 Tb 0.31446 0.31181 0.77352 0.0
Eu457 Eu 0.37692 0.30226 0.79247 0.0
C458 C 0.36488 0.35267 0.76426 0.0
C459 C 0.34985 0.28745 0.73029 0.0
C460 C 0.23871 0.30749 0.76284 0.0
C461 C 0.19264 0.31344 0.77043 0.0
C462 C 0.21854 0.32321 0.76256 0.0
C463 C 0.23258 0.28168 0.77052 0.0
C464 C 0.20667 0.27184 0.7782 0.0
C465 C 0.18656 0.28775 0.77863 0.0
C466 C 0.26646 0.31851 0.75628 0.0
O467 O 0.30696 0.27194 0.78475 0.0
O468 O 0.34862 0.27003 0.80981 0.0
O469 O 0.36473 0.32645 0.82755 0.0
O470 O 0.31716 0.31873 0.81814 0.0
C471 C 0.322 0.26078 0.80198 0.0
O472 O 0.40932 0.27886 0.79713 0.0
O473 O 0.41794 0.31997 0.81375 0.0
O474 O 0.38052 0.33483 0.76439 0.0
O475 O 0.3428 0.34925 0.77651 0.0
O476 O 0.3322 0.30289 0.7358 0.0
O477 O 0.36641 0.2807 0.75 0.0
C478 C 0.34019 0.32735 0.83522 0.0
O479 O 0.28307 0.33404 0.77549 0.0
O480 O 0.27902 0.30173 0.74458 0.0
C481 C 0.45448 0.30389 0.79731 0.0
C482 C 0.5053 0.3175 0.77669 0.0
C483 C 0.50491 0.31207 0.8038 0.0
C484 C 0.47963 0.3053 0.81402 0.0
C485 C 0.45472 0.30907 0.77022 0.0
C486 C 0.47993 0.31577 0.75997 0.0
C487 C 0.42824 0.29897 0.8087 0.0
H488 H 0.17775 0.32633 0.77095 0.0
H489 H 0.22305 0.34323 0.75683 0.0
H490 H 0.24791 0.26921 0.77093 0.0
H491 H 0.20251 0.25187 0.78408 0.0
H492 H 0.52412 0.31303 0.81706 0.0
H493 H 0.47971 0.30153 0.83505 0.0
H494 H 0.43542 0.30842 0.75717 0.0
H495 H 0.47959 0.32021 0.73911 0.0
Tb496 Tb 0.10683 0.05413 0.51365 0.0
Eu497 Eu 0.09591 0.0867 0.56705 0.0
C498 C 0.15717 0.09506 0.5471 0.0
C499 C 0.10294 1.02447 0.56822 0.0
C500 C 0.10142 1.00364 0.45606 0.0
C501 C 0.0948 0.97684 0.4133 0.0
C502 C 0.11184 0.99535 0.43281 0.0
C503 C 0.07514 0.99098 0.46133 0.0
C504 C 0.05793 0.97265 0.4417 0.0
C505 C 0.06702 0.96686 0.41675 0.0
C506 C 0.11571 0.02826 0.47198 0.0
O507 O 0.06121 0.04265 0.51193 0.0
O508 O 0.05478 0.05853 0.55427 0.0
O509 O 0.09016 0.1153 0.53533 0.0
O510 O 0.10872 0.09546 0.50136 0.0
C511 C 1.04526 0.04419 0.53122 0.0
O512 O 0.06953 0.10843 0.58782 0.0
O513 O 0.1091 0.1036 0.60871 0.0
O514 O 0.13934 0.10573 0.55958 0.0
O515 O 0.14916 0.07186 0.53299 0.0
O516 O 0.09989 1.02235 0.54147 0.0
O517 O 0.10619 0.04809 0.58174 0.0
C518 C 0.09979 0.11621 0.5119 0.0
O519 O 0.10177 0.04731 0.47148 0.0
O520 O 0.12714 0.02613 0.49631 0.0
C521 C 0.07156 0.10084 0.63338 0.0
C522 C 0.05505 0.08064 0.68065 0.0
C523 C 0.06163 0.10817 0.67914 0.0
C524 C 0.06999 0.1182 0.65563 0.0
C525 C 0.06226 0.07351 0.63377 0.0
C526 C 0.054 0.06343 0.6573 0.0
C527 C 0.08544 0.11084 0.61094 0.0
H528 H 0.10234 0.97289 0.39422 0.0
H529 H 0.1322 1.00488 0.42861 0.0
H530 H 0.06708 0.99702 0.47949 0.0
H531 H 1.03665 0.96515 0.44487 0.0
H532 H 0.06299 0.12193 0.69689 0.0
H533 H 0.07695 0.13936 0.65547 0.0
H534 H 0.06315 0.05989 0.61649 0.0
H535 H 0.04899 0.04218 0.65794 0.0
Tb536 Tb 0.33333 0.78143 0.79466 0.0
Eu537 Eu 0.35903 0.84419 0.79153 0.0
C538 C 0.33847 0.82209 0.84588 0.0
C539 C 0.29357 0.82 0.77659 0.0
C540 C 0.30239 0.70992 0.77507 0.0
C541 C 0.29661 0.6624 0.76624 0.0
C542 C 0.29956 0.68485 0.7844 0.0
C543 C 0.30027 0.71226 0.74717 0.0
C544 C 0.29702 0.68973 0.72888 0.0
C545 C 0.29633 0.66461 0.73829 0.0
C546 C 0.3103 0.73328 0.79486 0.0
O547 O 0.33828 0.78458 0.75227 0.0
O548 O 0.3704 0.82347 0.75472 0.0
O549 O 0.39662 0.8283 0.80897 0.0
O550 O 0.37801 0.7837 0.80724 0.0
C551 C 0.35612 0.8014 0.74133 0.0
O552 O 0.36037 0.88037 0.77124 0.0
O553 O 0.38709 0.88077 0.80882 0.0
O554 O 0.33952 0.8417 0.83043 0.0
O555 O 0.34024 0.79825 0.8363 0.0
O556 O 0.2984 0.8022 0.79307 0.0
O557 O 0.31461 0.83642 0.76943 0.0
C558 C 0.39921 0.80397 0.81309 0.0
O559 O 0.33687 0.74239 0.80077 0.0
O560 O 0.29677 0.75226 0.79131 0.0
C561 C 0.36918 0.91908 0.80128 0.0
C562 C 0.3498 0.96419 0.81922 0.0
C563 C 0.36064 0.96296 0.7945 0.0
C564 C 0.37036 0.94057 0.78565 0.0
C565 C 0.35884 0.92047 0.82623 0.0
C566 C 0.34939 0.94293 0.8352 0.0
C567 C 0.37752 0.89492 0.79081 0.0
H568 H 0.29662 0.64362 0.77447 0.0
H569 H 0.3012 0.68274 0.8059 0.0
H570 H 0.30234 0.73155 0.73962 0.0
H571 H 0.29643 0.69216 0.70751 0.0
H572 H 0.36122 0.97915 0.78187 0.0
H573 H 0.37825 0.93979 0.76634 0.0
H574 H 0.35747 0.90398 0.83853 0.0
H575 H 0.34073 0.94322 0.85413 0.0
Tb576 Tb 0.61787 0.05917 0.07415 0.0
Eu577 Eu 0.58701 0.0694 0.01699 0.0
C578 C 0.61153 1.01332 0.02657 0.0
C579 C 0.65374 0.08854 0.03346 0.0
C580 C 0.62215 0.06842 0.14486 0.0
C581 C 0.62796 0.09821 0.18569 0.0
C582 C 0.63901 0.08224 0.16784 0.0
C583 C 0.59395 0.07019 0.14032 0.0
C584 C 0.58297 0.08617 0.158 0.0
C585 C 0.59996 0.10081 0.18057 0.0
C586 C 0.63454 0.05671 0.1229 0.0
O587 O 0.60256 0.09659 0.08195 0.0
O588 O 0.5868 0.10894 0.04078 0.0
O589 O 0.55348 0.06203 0.04359 0.0
O590 O 0.57596 0.03578 0.06845 0.0
C591 C 0.59349 0.11431 0.06718 0.0
O592 O 0.58499 0.08817 0.9794 0.0
O593 O 0.55211 0.05572 0.98503 0.0
O594 O 0.59621 0.02681 1.01166 0.0
O595 O 0.62425 1.02364 0.05077 0.0
O596 O 0.65332 0.07404 0.05388 0.0
O597 O 0.63111 0.09023 0.01782 0.0
C598 C 0.55293 0.04307 0.05944 0.0
O599 O 0.61827 0.03698 0.10773 0.0
O600 O 0.64706 0.074 0.10844 0.0
C601 C 0.57059 0.05435 0.94448 0.0
C602 C 0.58326 1.02271 0.90154 0.0
C603 C 0.56017 0.03515 0.89805 0.0
C604 C 0.55376 0.05076 0.91952 0.0
C605 C 0.59348 0.04189 0.94803 0.0
C606 C 0.59959 0.026 0.92687 0.0
C607 C 0.56427 0.06987 0.96767 0.0
H608 H 0.64142 0.10871 0.20334 0.0
H609 H 0.6609 0.08149 0.1714 0.0
H610 H 0.58063 0.06027 0.12231 0.0
H611 H 0.56145 0.08788 0.15333 0.0
H612 H 0.5475 0.03343 0.87858 0.0
H613 H 0.53596 0.06017 0.91658 0.0
H614 H 0.60682 0.04462 0.96719 0.0
H615 H 0.6173 1.01653 0.9303 0.0
Tb616 Tb 0.35709 0.34579 0.29856 0.0
Eu617 Eu 0.33755 0.28695 0.26789 0.0
C618 C 0.36079 0.2963 0.3336 0.0
C619 C 0.39915 0.32039 0.26649 0.0
C620 C 0.35712 0.41567 0.31498 0.0
C621 C 0.3279 0.44382 0.33299 0.0
C622 C 0.34709 0.4273 0.3371 0.0
C623 C 0.34943 0.42261 0.28893 0.0
C624 C 0.33025 0.43904 0.28482 0.0
C625 C 0.31842 0.44889 0.30666 0.0
C626 C 0.37155 0.39338 0.31869 0.0
O627 O 0.34167 0.35314 0.25695 0.0
O628 O 0.32601 0.31185 0.23392 0.0
O629 O 0.2998 0.2934 0.28765 0.0
O630 O 0.31272 0.33682 0.30551 0.0
C631 C 0.33114 0.3379 0.23429 0.0
O632 O 0.35029 0.25311 0.24851 0.0
O633 O 0.30683 0.2509 0.25257 0.0
O634 O 0.3547 0.27981 0.31126 0.0
O635 O 0.36256 0.32195 0.33243 0.0
O636 O 0.3959 0.33278 0.28965 0.0
O637 O 0.37742 0.30525 0.25188 0.0
C638 C 0.29439 0.31418 0.30137 0.0
O639 O 0.35861 0.37448 0.33104 0.0
O640 O 0.38112 0.38388 0.29768 0.0
C641 C 0.32671 0.21323 0.2596 0.0
C642 C 0.35004 0.17595 0.28775 0.0
C643 C 0.34682 0.17398 0.25928 0.0
C644 C 0.33528 0.19257 0.24532 0.0
C645 C 0.32662 0.21326 0.28767 0.0
C646 C 0.33811 0.19464 0.30165 0.0
C647 C 0.32589 0.23777 0.24688 0.0
H648 H 0.31909 0.45111 0.35019 0.0
H649 H 0.35272 0.42226 0.35738 0.0
H650 H 0.35697 0.4142 0.27147 0.0
H651 H 0.32367 0.44302 0.26436 0.0
H652 H 0.35589 0.15994 0.24792 0.0
H653 H 0.33576 0.19241 0.2237 0.0
H654 H 0.32021 0.22915 0.2991 0.0
H655 H 0.33988 0.19637 0.32354 0.0
Tb656 Tb 0.58527 0.5522 1.00416 0.0
Eu657 Eu 0.60101 0.57945 0.0642 0.0
C658 C 0.64881 0.58113 0.02596 0.0
C659 C 0.59915 0.51641 0.05346 0.0
C660 C 0.54492 0.52504 0.93977 0.0
C661 C 0.513 0.50145 0.90167 0.0
C662 C 0.53867 0.50555 0.91789 0.0
C663 C 0.525 0.53989 0.94589 0.0
C664 C 0.49934 0.53586 0.92966 0.0
C665 C 0.49322 0.5168 0.9072 0.0
C666 C 0.57156 0.52901 0.95714 0.0
O667 O 0.54359 0.54613 0.01663 0.0
O668 O 0.5559 0.55793 0.06194 0.0
O669 O 0.60331 0.61351 0.03649 0.0
O670 O 0.57369 0.59138 1.00045 0.0
C671 C 0.53711 0.54721 0.04132 0.0
O672 O 0.58925 0.60791 0.09269 0.0
O673 O 0.62505 0.59013 0.104 0.0
O674 O 0.64364 0.58047 0.05112 0.0
O675 O 0.6287 0.57316 1.00558 0.0
O676 O 0.59982 0.52116 0.02777 0.0
O677 O 0.59779 0.53578 0.07158 0.0
C678 C 0.58819 0.61396 1.01309 0.0
O679 O 0.58506 0.5534 0.96225 0.0
O680 O 0.57072 0.51686 0.97895 0.0
C681 C 0.59654 0.59746 0.13771 0.0
C682 C 0.57824 0.58735 0.18793 0.0
C683 C 0.56976 0.60746 0.17355 0.0
C684 C 0.57902 0.61259 0.14875 0.0
C685 C 0.6035 0.57626 0.15115 0.0
C686 C 0.59457 0.57135 0.17599 0.0
C687 C 0.60746 0.60395 0.11233 0.0
H688 H 0.50907 0.48697 0.88416 0.0
H689 H 0.55374 0.49374 0.91317 0.0
H690 H 0.52941 0.55478 0.96306 0.0
H691 H 0.48449 0.54791 0.93436 0.0
H692 H 0.55691 0.61994 0.18195 0.0
H693 H 0.57303 0.62879 0.1385 0.0
H694 H 0.61665 0.56395 0.14301 0.0
H695 H 0.60205 0.55599 0.18653 0.0
Tb696 Tb 0.84278 0.29147 0.29647 0.0
Eu697 Eu 0.85885 0.35334 0.28428 0.0
C698 C 0.8366 0.33792 0.33905 0.0
C699 C 0.7952 0.3206 0.27115 0.0
C700 C 0.84576 0.22113 0.30081 0.0
C701 C 0.84305 0.17458 0.28709 0.0
C702 C 0.82992 0.1957 0.29267 0.0
C703 C 0.87492 0.22521 0.30343 0.0
C704 C 0.88803 0.2041 0.29811 0.0
C705 C 0.87223 0.17861 0.28976 0.0
C706 C 0.83174 0.24341 0.30544 0.0
O707 O 0.8476 0.29022 0.25389 0.0
O708 O 0.87584 0.33058 0.25255 0.0
O709 O 0.89528 0.3444 0.31181 0.0
O710 O 0.88872 0.29966 0.3015 0.0
C711 C 0.8643 0.30671 0.24159 0.0
O712 O 0.86075 0.38375 0.25621 0.0
O713 O 0.87913 0.39412 0.29798 0.0
O714 O 0.83517 0.35398 0.32004 0.0
O715 O 0.844 0.31506 0.33456 0.0
O716 O 0.80232 0.30356 0.28786 0.0
O717 O 0.81422 0.33928 0.26391 0.0
C718 C 0.90467 0.3222 0.31249 0.0
O719 O 0.84487 0.26248 0.32343 0.0
O720 O 0.82138 0.2525 0.28377 0.0
C721 C 0.85882 0.42565 0.27632 0.0
C722 C 0.83423 0.47006 0.28282 0.0
C723 C 0.86145 0.4729 0.27614 0.0
C724 C 0.87366 0.45081 0.27291 0.0
C725 C 0.83145 0.42257 0.28231 0.0
C726 C 0.81922 0.44461 0.28551 0.0
C727 C 0.87232 0.40286 0.27485 0.0
H728 H 0.8304 0.1551 0.28081 0.0
H729 H 0.80741 0.19224 0.29039 0.0
H730 H 0.88759 0.24475 0.30935 0.0
H731 H 0.91053 0.20782 0.29996 0.0
H732 H 0.87341 0.49224 0.27374 0.0
H733 H 0.89483 0.45341 0.26826 0.0
H734 H 0.8198 0.40321 0.28513 0.0
H735 H 0.7984 0.44183 0.29108 0.0
Tb736 Tb 0.11993 0.56204 0.56425 0.0
Eu737 Eu 0.07108 0.56946 0.51833 0.0
C738 C 0.10034 0.51622 0.51588 0.0
C739 C 0.13378 0.59381 0.5146 0.0
C740 C 0.16971 0.58214 0.62432 0.0
C741 C 0.20905 0.60655 0.65578 0.0
C742 C 0.19817 0.58711 0.63413 0.0
C743 C 0.15271 0.59782 0.63522 0.0
C744 C 0.16333 0.61692 0.65665 0.0
C745 C 0.19148 0.62113 0.6679 0.0
C746 C 0.15725 0.56105 0.60263 0.0
O747 O 0.104 0.59697 0.58056 0.0
O748 O 0.08114 0.60997 0.54276 0.0
O749 O 0.05308 0.56008 0.55637 0.0
O750 O 0.08265 0.53329 0.56776 0.0
C751 C 0.09269 0.6151 0.56819 0.0
O752 O 0.05137 0.58843 0.48595 0.0
O753 O 1.02874 0.55271 0.49939 0.0
O754 O 0.07863 0.52723 0.50943 0.0
O755 O 0.12135 0.52892 0.53381 0.0
O756 O 0.13838 0.59229 0.54065 0.0
O757 O 0.11037 0.58198 0.50002 0.0
C758 C 0.05795 0.53902 0.56736 0.0
O759 O 0.13094 0.55121 0.60291 0.0
O760 O 0.16256 0.56592 0.57837 0.0
C761 C 1.02628 0.55517 0.45305 0.0
C762 C 1.0205 0.52369 0.40369 0.0
C763 C 0.9968 0.5276 0.4153 0.0
C764 C 0.9997 0.54319 0.43999 0.0
C765 C 0.04983 0.55138 0.44135 0.0
C766 C 0.04698 0.53602 0.41689 0.0
C767 C 1.03014 0.56865 0.48038 0.0
H768 H 0.23089 0.6094 0.66364 0.0
H769 H 0.21176 0.57554 0.62556 0.0
H770 H 0.13072 0.59455 0.62801 0.0
H771 H 0.14863 0.6269 0.66546 0.0
H772 H 0.97615 0.5184 0.40548 0.0
H773 H 0.98134 0.54548 0.4491 0.0
H774 H 0.07059 0.55999 0.45134 0.0
H775 H 0.06566 0.53412 0.40816 0.0
Tb776 Tb 0.82501 0.83286 0.27023 0.0
Eu777 Eu 0.8816 0.80954 0.28965 0.0
C778 C 0.88192 0.85921 0.25492 0.0
C779 C 0.85113 0.79582 0.22759 0.0
C780 C 0.75568 0.84804 0.26666 0.0
C781 C 0.70531 0.8415 0.26072 0.0
C782 C 0.73053 0.84708 0.25009 0.0
C783 C 0.75552 0.84438 0.29416 0.0
C784 C 0.73046 0.83887 0.30475 0.0
C785 C 0.70508 0.83664 0.28799 0.0
C786 C 0.78163 0.84958 0.25483 0.0
O787 O 0.80898 0.79698 0.2877 0.0
O788 O 0.84778 0.78056 0.30334 0.0
O789 O 0.87349 0.83538 0.3259 0.0
O790 O 0.82895 0.84165 0.31459 0.0
C791 C 0.82092 0.77986 0.30035 0.0
O792 O 0.90811 0.78029 0.29393 0.0
O793 O 0.92317 0.82072 0.31192 0.0
O794 O 0.89226 0.83824 0.25934 0.0
O795 O 0.86007 0.86357 0.26559 0.0
O796 O 0.83513 0.81299 0.23287 0.0
O797 O 0.86853 0.78933 0.24682 0.0
C798 C 0.85091 0.84296 0.33272 0.0
O799 O 0.80373 0.86436 0.26902 0.0
O800 O 0.78637 0.82676 0.24588 0.0
C801 C 0.9557 0.79911 0.29478 0.0
C802 C 1.00788 0.80853 0.27605 0.0
C803 C 1.00505 0.79878 0.30132 0.0
C804 C 0.97913 0.7942 0.31065 0.0
C805 C 0.95819 0.80796 0.26917 0.0
C806 C 0.98408 0.81263 0.25987 0.0
C807 C 0.92948 0.79776 0.30609 0.0
H808 H 0.68602 0.83974 0.24734 0.0
H809 H 0.73032 0.84958 0.22875 0.0
H810 H 0.7747 0.84483 0.30726 0.0
H811 H 0.73091 0.83561 0.32594 0.0
H812 H 1.02304 0.79565 0.31431 0.0
H813 H 0.97754 0.78763 0.33059 0.0
H814 H 0.94026 0.81198 0.25674 0.0
H815 H 0.98555 0.81977 0.24016 0.0
Tb816 Tb 0.88864 0.33285 0.79852 0.0
Eu817 Eu 0.82295 0.29988 0.78283 0.0
C818 C 0.83867 0.36237 0.79345 0.0
C819 C 0.85323 0.31141 0.84276 0.0
C820 C 0.95119 0.38777 0.81911 0.0
C821 C 0.98994 0.41968 0.84451 0.0
C822 C 0.9752 0.39358 0.83823 0.0
C823 C 0.94157 0.40862 0.80707 0.0
C824 C 0.95636 0.43467 0.81321 0.0
C825 C 0.98102 0.44055 0.83169 0.0
C826 C 0.9376 0.35988 0.8107 0.0
O827 O 0.89083 0.29162 0.80196 0.0
O828 O 0.84828 0.26825 0.77986 0.0
O829 O 0.83778 0.32086 0.74799 0.0
O830 O 0.88276 0.31655 0.75644 0.0
C831 C 0.87382 0.26942 0.79152 0.0
O832 O 0.79017 0.28205 0.75023 0.0
O833 O 0.78061 0.28484 0.79146 0.0
O834 O 0.82265 0.3412 0.8001 0.0
O835 O 0.86369 0.36177 0.78726 0.0
O836 O 0.86818 0.33265 0.83491 0.0
O837 O 0.83761 0.29282 0.82531 0.0
C838 C 0.86163 0.31983 0.73953 0.0
O839 O 0.92364 0.34721 0.82791 0.0
O840 O 0.92447 0.35468 0.78617 0.0
C841 C 0.75238 0.25069 0.75989 0.0
C842 C 0.71647 0.20124 0.74379 0.0
C843 C 0.7432 0.20268 0.75796 0.0
C844 C 0.76105 0.22722 0.76591 0.0
C845 C 0.72582 0.24935 0.74581 0.0
C846 C 0.70802 0.2249 0.73785 0.0
C847 C 0.77118 0.27667 0.76614 0.0
H848 H 1.00853 0.42342 0.85915 0.0
H849 H 0.98292 0.37782 0.84789 0.0
H850 H 0.92303 0.40472 0.79232 0.0
H851 H 0.94896 0.45004 0.80264 0.0
H852 H 0.75025 0.18484 0.76309 0.0
H853 H 0.78162 0.22788 0.77651 0.0
H854 H 0.71897 0.26727 0.74061 0.0
H855 H 0.68779 0.22452 0.72662 0.0
Tb856 Tb 0.85479 0.83946 0.79369 0.0
Eu857 Eu 0.83827 0.7786 0.76996 0.0
C858 C 0.86096 0.794 0.83409 0.0
C859 C 0.89925 0.81116 0.76866 0.0
C860 C 0.86276 0.91119 0.79658 0.0
C861 C 0.83764 0.94711 0.79625 0.0
C862 C 0.85252 0.93095 0.8105 0.0
C863 C 0.86112 0.91004 0.76827 0.0
C864 C 0.84653 0.92646 0.75397 0.0
C865 C 0.83293 0.94386 0.76776 0.0
C866 C 0.86702 0.88804 0.81056 0.0
O867 O 0.83509 0.84335 0.75232 0.0
O868 O 0.83624 0.80218 0.73298 0.0
O869 O 0.79657 0.78795 0.7788 0.0
O870 O 0.81406 0.82511 0.80801 0.0
C871 C 0.83393 0.82696 0.73048 0.0
O872 O 0.84289 0.7491 0.73809 0.0
O873 O 0.81996 0.73669 0.77065 0.0
O874 O 0.84752 0.77575 0.81501 0.0
O875 O 0.869 0.81886 0.82871 0.0
O876 O 0.8884 0.83255 0.76945 0.0
O877 O 0.88536 0.78967 0.77691 0.0
C878 C 0.79314 0.8056 0.798 0.0
O879 O 0.84381 0.87238 0.81314 0.0
O880 O 0.88508 0.8748 0.8026 0.0
C881 C 0.85316 0.71198 0.75813 0.0
C882 C 0.89974 0.68834 0.77019 0.0
C883 C 0.88653 0.68668 0.74343 0.0
C884 C 0.86345 0.6984 0.73747 0.0
C885 C 0.86561 0.71264 0.785 0.0
C886 C 0.88854 0.7009 0.79095 0.0
C887 C 0.83328 0.72933 0.7513 0.0
H888 H 0.82747 0.96013 0.8077 0.0
H889 H 0.85335 0.93196 0.83232 0.0
H890 H 0.86884 0.89485 0.75707 0.0
H891 H 0.84399 0.92396 0.73207 0.0
H892 H 0.89447 0.67691 0.727 0.0
H893 H 0.85446 0.69795 0.71657 0.0
H894 H 0.85857 0.72341 0.80135 0.0
H895 H 0.89838 0.70293 0.81172 0.0
Tb896 Tb 0.56564 0.55069 0.52632 0.0
Eu897 Eu 0.61679 0.56983 0.57731 0.0
C898 C 0.6276 0.54805 0.51967 0.0
C899 C 0.58644 0.51011 0.56086 0.0
C900 C 0.50257 0.55885 0.49013 0.0
C901 C 0.46508 0.57672 0.46711 0.0
C902 C 0.48317 0.55872 0.46725 0.0
C903 C 0.50345 0.57686 0.51272 0.0
C904 C 0.48565 0.59463 0.51264 0.0
C905 C 0.46656 0.59515 0.48973 0.0
C906 C 0.52407 0.54265 0.49058 0.0
O907 O 0.54804 0.55507 0.56404 0.0
O908 O 0.5815 0.58686 0.59001 0.0
O909 O 0.61749 0.60511 0.55305 0.0
O910 O 0.57172 0.59321 0.53396 0.0
C911 C 0.55553 0.57456 0.58356 0.0
O912 O 0.63228 0.56858 0.61984 0.0
O913 O 0.66027 0.58633 0.59293 0.0
O914 O 0.63342 0.54712 0.54566 0.0
O915 O 0.60421 0.55384 0.50873 0.0
O916 O 0.57953 0.51469 0.53582 0.0
O917 O 0.59148 0.52936 0.58044 0.0
C918 C 0.595 0.61062 0.5399 0.0
O919 O 0.54848 0.55574 0.48705 0.0
O920 O 0.52577 0.52862 0.5112 0.0
C921 C 0.67621 0.55632 0.62075 0.0
C922 C 0.70984 0.51799 0.61715 0.0
C923 C 0.68106 0.51021 0.61744 0.0
C924 C 0.66442 0.52914 0.6191 0.0
C925 C 0.70515 0.56417 0.62211 0.0
C926 C 0.72183 0.54518 0.62034 0.0
C927 C 0.65818 0.57569 0.61567 0.0
H928 H 0.45052 0.57672 0.44915 0.0
H929 H 0.48243 0.54521 0.44945 0.0
H930 H 0.51846 0.57763 0.5304 0.0
H931 H 0.48698 0.60813 0.5306 0.0
H932 H 0.67112 0.48948 0.61478 0.0
H933 H 0.64211 0.52238 0.61754 0.0
H934 H 0.71468 0.58495 0.62305 0.0
H935 H 0.74402 0.55179 0.62057 0.0
Tb936 Tb 0.07817 0.54938 1.00214 0.0
Eu937 Eu 0.10922 0.57282 0.06251 0.0
C938 C 0.06891 0.51657 0.05084 0.0
C939 C 0.05114 0.58933 0.03787 0.0
C940 C 0.05203 0.50243 0.94224 0.0
C941 C 0.0634 0.45893 0.94367 0.0
C942 C 0.06955 0.48592 0.95212 0.0
C943 C 1.02917 0.49193 0.9226 0.0
C944 C 1.0229 0.46481 0.91417 0.0
C945 C 1.03948 0.4479 0.9253 0.0
C946 C 0.05482 0.5291 0.9558 0.0
O947 O 0.09238 0.59145 1.00048 0.0
O948 O 0.12957 0.59911 0.03385 0.0
O949 O 0.13235 0.54058 0.05003 0.0
O950 O 0.12045 0.53969 1.00425 0.0
C951 C 0.11552 0.60638 1.01292 0.0
O952 O 0.14609 0.58114 0.09271 0.0
O953 O 0.10804 0.59182 0.10283 0.0
O954 O 0.07546 0.53849 0.0671 0.0
O955 O 0.07439 0.51578 0.02592 0.0
O956 O 0.0466 0.56822 0.02006 0.0
O957 O 0.07552 0.59682 0.05309 0.0
C958 C 0.13646 0.53365 0.02518 0.0
O959 O 1.04206 0.52974 0.97714 0.0
O960 O 0.07989 0.54363 0.96033 0.0
C961 C 0.14964 0.62248 0.11728 0.0
C962 C 0.17212 0.677 0.12874 0.0
C963 C 0.17559 0.66341 0.10443 0.0
C964 C 0.16436 0.63649 0.0987 0.0
C965 C 0.14692 0.63572 0.14202 0.0
C966 C 0.15806 0.66283 0.14772 0.0
C967 C 0.13485 0.59499 0.10952 0.0
H968 H 0.07639 0.44648 0.95296 0.0
H969 H 0.08707 0.4936 0.96761 0.0
H970 H 1.01533 0.50442 0.9149 0.0
H971 H 1.00448 0.45692 0.89983 0.0
H972 H 0.18591 0.67384 0.08925 0.0
H973 H 0.16642 0.62685 0.07927 0.0
H974 H 0.13547 0.62529 0.15652 0.0
H975 H 0.15524 0.67281 0.16671 0.0
H976 H 0.0862 0.21832 0.97585 0.0
H977 H 1.00653 0.18479 0.99917 0.0
H978 H 1.02922 0.16036 0.03207 0.0
H979 H 0.07105 0.14583 0.05127 0.0
H980 H 0.15103 0.17965 0.02924 0.0
H981 H 0.12896 0.20734 0.99898 0.0
C982 C 0.07387 0.20577 0.98829 0.0
C983 C 1.04472 0.20298 0.98487 0.0
C984 C 0.0871 0.19205 1.00734 0.0
C985 C 1.02897 0.18714 1.00141 0.0
C986 C 1.04192 0.17315 0.02016 0.0
C987 C 0.08366 0.15959 0.04011 0.0
C988 C 0.11247 0.1607 0.04209 0.0
C989 C 0.07085 0.17511 0.02289 0.0
C990 C 0.12881 0.17869 0.02796 0.0
C991 C 0.11615 0.19425 1.01056 0.0
H992 H 0.23823 0.89594 0.2575 0.0
H993 H 0.29981 0.92735 0.20754 0.0
H994 H 0.3369 0.9258 0.24367 0.0
H995 H 0.35095 0.90401 0.28286 0.0
H996 H 0.2891 0.86622 0.32935 0.0
H997 H 0.25323 0.88315 0.30221 0.0
C998 C 0.25973 0.90327 0.25486 0.0
C999 C 0.26637 0.9109 0.22964 0.0
C1000 C 0.28097 0.901 0.27518 0.0
C1001 C 0.29426 0.92074 0.22659 0.0
C1002 C 0.31548 0.91986 0.24725 0.0
C1003 C 0.32983 0.90029 0.28779 0.0
C1004 C 0.3224 0.88285 0.3072 0.0
C1005 C 0.30905 0.90824 0.27076 0.0
C1006 C 0.29516 0.87897 0.31392 0.0
C1007 C 0.27457 0.88837 0.29817 0.0
H1008 H 0.54298 0.82911 0.39562 0.0
H1009 H 0.50688 0.81971 0.46971 0.0
H1010 H 0.50943 0.86751 0.47657 0.0
H1011 H 0.5238 0.91202 0.46246 0.0
H1012 H 0.55879 0.92137 0.38786 0.0
H1013 H 0.55412 0.87333 0.3798 0.0
C1014 C 0.53575 0.83755 0.41332 0.0
C1015 C 0.52518 0.82102 0.4324 0.0
C1016 C 0.53682 0.86492 0.41685 0.0
C1017 C 0.51528 0.8321 0.45488 0.0
C1018 C 0.5167 0.85938 0.45877 0.0
C1019 C 0.53023 0.90347 0.44436 0.0
C1020 C 0.54189 0.92012 0.4259 0.0
C1021 C 0.52766 0.87597 0.44002 0.0
C1022 C 0.54968 0.90889 0.40228 0.0
C1023 C 0.54724 0.88148 0.39781 0.0
H1024 H 0.607 0.34253 0.71165 0.0
H1025 H 0.64111 0.3955 0.7835 0.0
H1026 H 0.59904 0.37997 0.80409 0.0
H1027 H 0.55172 0.35256 0.8006 0.0
H1028 H 0.51865 0.2999 0.72831 0.0
H1029 H 0.56132 0.31435 0.70883 0.0
C1030 C 0.60538 0.35076 0.73186 0.0
C1031 C 0.62711 0.37032 0.74594 0.0
C1032 C 0.58128 0.34187 0.7434 0.0
C1033 C 0.62465 0.38049 0.77219 0.0
C1034 C 0.6006 0.37163 0.78393 0.0
C1035 C 0.55405 0.34403 0.78073 0.0
C1036 C 0.53199 0.32531 0.76582 0.0
C1037 C 0.57868 0.35248 0.7696 0.0
C1038 C 0.53515 0.31462 0.74 0.0
C1039 C 0.55957 0.32278 0.7289 0.0
H1040 H 0.10106 0.93737 0.65413 0.0
H1041 H 0.08911 0.88298 0.58227 0.0
H1042 H 0.09095 0.92043 0.55431 0.0
H1043 H 0.09588 0.96975 0.54995 0.0
H1044 H 0.10772 1.02264 0.62315 0.0
H1045 H 0.10597 0.98523 0.65008 0.0
C1046 C 0.09883 0.93338 0.63232 0.0
C1047 C 0.09491 0.90664 0.62076 0.0
C1048 C 0.09993 0.95523 0.61624 0.0
C1049 C 0.09215 0.90282 0.59223 0.0
C1050 C 0.09321 0.92449 0.5761 0.0
C1051 C 0.09819 0.97322 0.5718 0.0
C1052 C 0.10212 0.99984 0.58405 0.0
C1053 C 0.09711 0.95098 0.58778 0.0
C1054 C 0.10483 1.00307 0.61259 0.0
C1055 C 0.10379 0.9814 0.62826 0.0
H1056 H 0.49855 0.77375 0.88967 0.0
H1057 H 0.54734 0.83721 0.85443 0.0
H1058 H 0.50539 0.84281 0.82556 0.0
H1059 H 0.4535 0.8316 0.81264 0.0
H1060 H 0.40633 0.76557 0.84606 0.0
H1061 H 0.44854 0.7591 0.87293 0.0
C1062 C 0.50017 0.78847 0.87526 0.0
C1063 C 0.52633 0.80495 0.87428 0.0
C1064 C 0.47593 0.79134 0.85847 0.0
C1065 C 0.52777 0.82396 0.85546 0.0
C1066 C 0.50361 0.82734 0.83911 0.0
C1067 C 0.4525 0.81563 0.8256 0.0
C1068 C 0.42634 0.79922 0.82725 0.0
C1069 C 0.47736 0.81149 0.84078 0.0
C1070 C 0.42584 0.77851 0.84409 0.0
C1071 C 0.4501 0.77481 0.85965 0.0
H1072 H 0.58493 0.21187 0.1503 0.0
H1073 H 0.58085 0.25323 0.07865 0.0
H1074 H 0.5832 0.21224 0.05112 0.0
H1075 H 0.58703 0.16357 0.04744 0.0
H1076 H 0.593 0.12522 0.12113 0.0
H1077 H 0.58922 0.16552 0.14712 0.0
C1078 C 0.5844 0.21228 0.12861 0.0
C1079 C 0.58246 0.23631 0.11695 0.0
C1080 C 0.58612 0.18864 0.11295 0.0
C1081 C 0.5822 0.23555 0.08863 0.0
C1082 C 0.58356 0.21186 0.07278 0.0
C1083 C 0.58734 0.16392 0.06916 0.0
C1084 C 0.59015 0.14048 0.08191 0.0
C1085 C 0.58558 0.18808 0.08466 0.0
C1086 C 0.5908 0.14219 0.11027 0.0
C1087 C 0.58865 0.16555 0.12539 0.0
H1088 H 0.17369 0.27737 0.33718 0.0
H1089 H 0.20114 0.34575 0.3954 0.0
H1090 H 0.24517 0.35598 0.37626 0.0
H1091 H 0.27707 0.34486 0.34294 0.0
H1092 H 0.24813 0.27561 0.28579 0.0
H1093 H 0.2043 0.26683 0.3043 0.0
C1094 C 0.18915 0.29462 0.34584 0.0
C1095 C 0.1835 0.31065 0.36803 0.0
C1096 C 0.21464 0.30038 0.33469 0.0
C1097 C 0.20437 0.33287 0.37851 0.0
C1098 C 0.22976 0.33876 0.36745 0.0
C1099 C 0.26111 0.32799 0.33431 0.0
C1100 C 0.26655 0.31104 0.3126 0.0
C1101 C 0.23533 0.32263 0.34548 0.0
C1102 C 0.24521 0.28915 0.30229 0.0
C1103 C 0.21985 0.284 0.31298 0.0
H1104 H 1.02972 0.08836 0.19528 0.0
H1105 H 0.09102 0.04537 0.22727 0.0
H1106 H 0.12691 0.07374 0.20727 0.0
H1107 H 0.1381 0.10366 0.17312 0.0
H1108 H 0.07549 0.14255 0.1361 0.0
H1109 H 1.0432 0.12385 0.16639 0.0
C1110 C 0.0511 0.08575 0.19844 0.0
C1111 C 0.05773 0.06459 0.21217 0.0
C1112 C 0.07137 0.10139 0.18588 0.0
C1113 C 0.08544 0.0613 0.21626 0.0
C1114 C 0.10596 0.07752 0.20489 0.0
C1115 C 0.11779 0.1089 0.17239 0.0
C1116 C 0.10893 0.12399 0.15214 0.0
C1117 C 0.09882 0.09667 0.18852 0.0
C1118 C 0.08259 0.13069 0.15142 0.0
C1119 C 0.06403 0.11976 0.16852 0.0
H1120 H 0.35719 0.75065 0.45635 0.0
H1121 H 0.32728 0.82069 0.48109 0.0
H1122 H 0.33948 0.84001 0.43982 0.0
H1123 H 0.35381 0.83475 0.39432 0.0
H1124 H 0.37877 0.76258 0.36813 0.0
H1125 H 0.37383 0.74644 0.41241 0.0
C1126 C 0.35378 0.77034 0.45296 0.0
C1127 C 0.34125 0.78417 0.47169 0.0
C1128 C 0.35991 0.78088 0.42882 0.0
C1129 C 0.33673 0.80956 0.46687 0.0
C1130 C 0.3437 0.82062 0.44328 0.0
C1131 C 0.3588 0.81582 0.3987 0.0
C1132 C 0.36685 0.79988 0.37834 0.0
C1133 C 0.35463 0.80617 0.42378 0.0
C1134 C 0.37266 0.77511 0.38373 0.0
C1135 C 0.36972 0.76586 0.40895 0.0
H1136 H 0.54451 0.95498 0.63525 0.0
H1137 H 0.62908 0.94547 0.6334 0.0
H1138 H 0.62427 0.94895 0.5849 0.0
H1139 H 0.60485 0.9757 0.55218 0.0
H1140 H 0.52519 0.99579 0.559 0.0
H1141 H 0.51836 0.9669 0.59516 0.0
C1142 C 0.56142 0.95242 0.6239 0.0
C1143 C 0.58777 0.95222 0.6379 0.0
C1144 C 0.5594 0.95739 0.59672 0.0
C1145 C 0.60898 0.94706 0.62314 0.0
C1146 C 0.60633 0.94942 0.59539 0.0
C1147 C 0.58533 0.97234 0.56061 0.0
C1148 C 0.56605 0.98839 0.5542 0.0
C1149 C 0.583 0.95793 0.58306 0.0
C1150 C 0.54048 0.98386 0.56428 0.0
C1151 C 0.53684 0.96766 0.58525 0.0
H1152 H 0.36344 0.36598 0.96123 0.0
H1153 H 0.28563 0.39181 0.94544 0.0
H1154 H 0.28106 0.37356 0.89776 0.0
H1155 H 0.30016 0.35045 0.85959 0.0
H1156 H 0.3794 0.32744 0.8778 0.0
H1157 H 0.38208 0.34416 0.92481 0.0
C1158 C 0.34524 0.36766 0.94761 0.0
C1159 C 0.32483 0.38035 0.95757 0.0
C1160 C 0.343 0.35748 0.92014 0.0
C1161 C 0.30174 0.38222 0.93888 0.0
C1162 C 0.29915 0.37172 0.91142 0.0
C1163 C 0.31794 0.34897 0.87386 0.0
C1164 C 0.33961 0.33746 0.86451 0.0
C1165 C 0.31974 0.35929 0.90163 0.0
C1166 C 0.36244 0.33614 0.88374 0.0
C1167 C 0.36403 0.34574 0.91093 0.0
H1168 H 1.02106 0.95161 0.29588 0.0
H1169 H 0.97887 1.01251 0.32337 0.0
H1170 H 0.99104 1.00413 0.37016 0.0
H1171 H 1.02153 0.98642 0.40264 0.0
H1172 H 0.06809 0.92926 0.37541 0.0
H1173 H 1.04551 0.9285 0.32902 0.0
C1174 C 1.01408 0.96274 0.31206 0.0
C1175 C 0.99976 0.98318 0.30624 0.0
C1176 C 1.02193 0.95842 0.33893 0.0
C1177 C 0.99045 0.99708 0.32737 0.0
C1178 C 0.99734 0.99226 0.35413 0.0
C1179 C 1.02583 0.97289 0.38678 0.0
C1180 C 0.04659 0.95808 0.39228 0.0
C1181 C 1.01419 0.97391 0.36013 0.0
C1182 C 0.05223 0.94089 0.37151 0.0
C1183 C 1.03959 0.94074 0.345 0.0
H1184 H 0.3456 0.80088 0.61467 0.0
H1185 H 0.336 0.71686 0.61958 0.0
H1186 H 0.3442 0.72405 0.66911 0.0
H1187 H 0.35034 0.75427 0.71101 0.0
H1188 H 0.36375 0.83855 0.70581 0.0
H1189 H 0.35829 0.83135 0.65647 0.0
C1190 C 0.34576 0.78424 0.62666 0.0
C1191 C 0.34003 0.7584 0.61368 0.0
C1192 C 0.35112 0.78859 0.65503 0.0
C1193 C 0.3405 0.73693 0.62925 0.0
C1194 C 0.34503 0.74103 0.65753 0.0
C1195 C 0.35251 0.77103 0.69903 0.0
C1196 C 0.35726 0.79689 0.71198 0.0
C1197 C 0.34982 0.76676 0.67065 0.0
C1198 C 0.36025 0.81846 0.6963 0.0
C1199 C 0.35693 0.81436 0.66808 0.0
H1200 H 0.63518 0.99272 0.79905 0.0
H1201 H 0.54837 0.96429 0.7691 0.0
H1202 H 0.53644 0.96856 0.81505 0.0
H1203 H 0.5497 0.98947 0.8614 0.0
H1204 H 0.63595 1.02385 0.88942 0.0
H1205 H 0.6492 1.00754 0.84702 0.0
C1206 C 0.61381 0.98654 0.80279 0.0
C1207 C 0.5926 0.97862 0.78098 0.0
C1208 C 0.60697 0.99064 0.82892 0.0
C1209 C 0.56494 0.97074 0.7858 0.0
C1210 C 0.55811 0.97337 0.81197 0.0
C1211 C 0.57141 0.99313 0.85829 0.0
C1212 C 0.59166 1.00835 0.87823 0.0
C1213 C 0.57877 0.98488 0.83336 0.0
C1214 C 0.61986 1.01222 0.87437 0.0
C1215 C 0.62749 1.00308 0.85002 0.0
H1216 H 0.32817 0.41329 0.13725 0.0
H1217 H 0.31902 0.33855 0.08962 0.0
H1218 H 0.31678 0.31534 0.13034 0.0
H1219 H 0.32114 0.31588 0.18042 0.0
H1220 H 0.33174 0.39061 0.2286 0.0
H1221 H 0.32964 0.41351 0.18765 0.0
C1222 C 0.32489 0.39188 0.13567 0.0
C1223 C 0.32321 0.37784 0.10982 0.0
C1224 C 0.32435 0.37837 0.15972 0.0
C1225 C 0.31995 0.35006 0.10882 0.0
C1226 C 0.31888 0.33666 0.13232 0.0
C1227 C 0.3226 0.33714 0.18209 0.0
C1228 C 0.32669 0.35118 0.20821 0.0
C1229 C 0.32161 0.35053 0.15805 0.0
C1230 C 0.32875 0.3789 0.20926 0.0
C1231 C 0.32753 0.39219 0.18559 0.0
H1232 H 0.36562 1.00456 0.10099 0.0
H1233 H 0.29326 0.94916 0.06072 0.0
H1234 H 0.26551 0.98351 0.06316 0.0
H1235 H 0.26195 0.02938 0.0762 0.0
H1236 H 0.33479 0.08514 0.11494 0.0
H1237 H 0.36209 0.05041 0.11389 0.0
C1238 C 0.34375 0.99992 0.09283 0.0
C1239 C 0.33157 0.97428 0.08068 0.0
C1240 C 0.328 1.01985 0.09399 0.0
C1241 C 0.30321 0.96872 0.0701 0.0
C1242 C 0.28732 0.98837 0.07148 0.0
C1243 C 0.28389 0.03405 0.08414 0.0
C1244 C 0.2963 0.05995 0.09551 0.0
C1245 C 0.29956 1.01405 0.08319 0.0
C1246 C 0.32461 0.0654 0.10628 0.0
C1247 C 0.34028 0.04556 0.10556 0.0
H1248 H 0.75201 0.65632 0.98863 0.0
H1249 H 0.79673 0.62867 0.05629 0.0
H1250 H 0.75359 0.59969 0.06454 0.0
H1251 H 0.70173 0.5845 0.0543 0.0
H1252 H 0.65884 0.6104 0.98416 0.0
H1253 H 0.70222 0.63743 0.97524 0.0
C1254 C 0.75248 0.64358 1.00489 0.0
C1255 C 0.77779 0.64476 0.02176 0.0
C1256 C 0.72761 0.62671 1.00929 0.0
C1257 C 0.77779 0.62803 0.04273 0.0
C1258 C 0.75296 0.6116 0.04762 0.0
C1259 C 0.70197 0.59582 0.0369 0.0
C1260 C 0.67671 0.59527 0.01999 0.0
C1261 C 0.72752 0.61111 0.03135 0.0
C1262 C 0.6777 0.61008 0.99746 0.0
C1263 C 0.70262 0.62575 0.99236 0.0
H1264 H 0.79772 0.57175 0.33093 0.0
H1265 H 0.71859 0.53176 0.28709 0.0
H1266 H 0.74053 0.49721 0.26823 0.0
H1267 H 0.78146 0.4766 0.26731 0.0
H1268 H 0.85999 0.51619 0.31263 0.0
H1269 H 0.83906 0.55295 0.3274 0.0
C1270 C 0.78527 0.55561 0.31708 0.0
C1271 C 0.75652 0.55413 0.31071 0.0
C1272 C 0.79791 0.53574 0.30659 0.0
C1273 C 0.74076 0.53327 0.29243 0.0
C1274 C 0.75327 0.51347 0.28171 0.0
C1275 C 0.79398 0.49335 0.28032 0.0
C1276 C 0.82217 0.49359 0.289 0.0
C1277 C 0.7817 0.51421 0.28916 0.0
C1278 C 0.83831 0.51562 0.30546 0.0
C1279 C 0.82631 0.53655 0.31411 0.0
H1280 H 0.97291 0.4337 0.57345 0.0
H1281 H 0.91471 0.48145 0.54511 0.0
H1282 H 0.9525 0.52031 0.54958 0.0
H1283 H 1.00256 0.53966 0.55811 0.0
H1284 H 0.0604 0.49143 0.58648 0.0
H1285 H 1.02209 0.45393 0.58592 0.0
C1286 C 0.96846 0.45263 0.56832 0.0
C1287 C 0.94115 0.45462 0.55856 0.0
C1288 C 0.99018 0.47481 0.57106 0.0
C1289 C 0.93561 0.47938 0.5525 0.0
C1290 C 0.9572 0.50159 0.55505 0.0
C1291 C 1.00677 0.5211 0.56465 0.0
C1292 C 1.03437 0.51832 0.57205 0.0
C1293 C 0.98465 0.49942 0.56389 0.0
C1294 C 1.03939 0.49412 0.58054 0.0
C1295 C 1.0175 0.47259 0.58008 0.0
H1296 H 0.44702 0.11697 0.31838 0.0
H1297 H 0.47888 0.19082 0.36809 0.0
H1298 H 0.43445 0.20438 0.35766 0.0
H1299 H 0.38959 0.19806 0.32937 0.0
H1300 H 0.35797 0.12506 0.27829 0.0
H1301 H 0.39931 0.10822 0.29461 0.0
C1302 C 0.44415 0.13589 0.32723 0.0
C1303 C 0.46643 0.15307 0.34357 0.0
C1304 C 0.41869 0.14376 0.3208 0.0
C1305 C 0.46221 0.17735 0.35517 0.0
C1306 C 0.43681 0.18514 0.34921 0.0
C1307 C 0.39118 0.17809 0.32246 0.0
C1308 C 0.37078 0.1629 0.30245 0.0
C1309 C 0.41527 0.16887 0.33136 0.0
C1310 C 0.37352 0.13723 0.29346 0.0
C1311 C 0.3972 0.12766 0.30271 0.0
H1312 H 0.46281 0.14483 0.57959 0.0
H1313 H 0.44072 0.14729 0.494 0.0
H1314 H 0.47857 0.12454 0.48484 0.0
H1315 H 0.51896 0.10379 0.50125 0.0
H1316 H 0.53944 0.10138 0.58722 0.0
H1317 H 0.50181 0.12391 0.59572 0.0
C1318 C 0.46606 0.14043 0.55882 0.0
C1319 C 0.4484 0.1481 0.53758 0.0
C1320 C 0.488 0.12715 0.55365 0.0
C1321 C 0.45352 0.14185 0.51092 0.0
C1322 C 0.47538 0.12877 0.50565 0.0
C1323 C 0.51524 0.10812 0.52188 0.0
C1324 C 0.53262 0.10052 0.54351 0.0
C1325 C 0.49294 0.12128 0.52685 0.0
C1326 C 0.5269 0.10661 0.56998 0.0
C1327 C 0.50517 0.11966 0.57496 0.0
H1328 H 0.73122 0.70692 0.35484 0.0
H1329 H 0.78372 0.65097 0.34017 0.0
H1330 H 0.81658 0.68523 0.3227 0.0
H1331 H 0.82863 0.73043 0.30911 0.0
H1332 H 0.77327 0.78455 0.32023 0.0
H1333 H 0.74307 0.75157 0.34148 0.0
C1334 C 0.7501 0.70236 0.34824 0.0
C1335 C 0.75529 0.67667 0.34894 0.0
C1336 C 0.7681 0.7217 0.33726 0.0
C1337 C 0.77946 0.67075 0.33983 0.0
C1338 C 0.79813 0.69025 0.32978 0.0
C1339 C 0.81001 0.73493 0.31632 0.0
C1340 C 0.80303 0.75969 0.31303 0.0
C1341 C 0.79238 0.71567 0.32796 0.0
C1342 C 0.77882 0.76542 0.32226 0.0
C1343 C 0.76164 0.74667 0.33454 0.0
H1344 H 1.03532 0.56254 0.83883 0.0
H1345 H 0.11037 0.53087 0.8447 0.0
H1346 H 0.08298 0.48617 0.84369 0.0
H1347 H 1.0377 0.45583 0.83878 0.0
H1348 H 0.96262 0.48748 0.83487 0.0
H1349 H 0.99007 0.5323 0.83737 0.0
C1350 C 1.04568 0.54586 0.83983 0.0
C1351 C 0.07487 0.55009 0.84149 0.0
C1352 C 1.02981 0.52014 0.83953 0.0
C1353 C 0.08795 0.52824 0.84326 0.0
C1354 C 0.0723 0.50263 0.8427 0.0
C1355 C 1.02727 0.47249 0.83897 0.0
C1356 C 0.99799 0.46806 0.83625 0.0
C1357 C 1.0432 0.49831 0.8406 0.0
C1358 C 0.98503 0.49009 0.8363 0.0
C1359 C 1.00074 0.51581 0.83785 0.0
H1360 H 0.14996 0.94677 0.14816 0.0
H1361 H 0.2148 0.95048 0.09673 0.0
H1362 H 0.20727 0.99358 0.08433 0.0
H1363 H 0.18409 0.0311 0.09004 0.0
H1364 H 0.1192 0.02741 0.1413 0.0
H1365 H 0.12525 0.98333 0.15215 0.0
C1366 C 0.16223 0.95681 0.13396 0.0
C1367 C 0.18301 0.94547 0.12351 0.0
C1368 C 0.15812 0.98172 0.12726 0.0
C1369 C 0.19862 0.95872 0.10504 0.0
C1370 C 0.19449 0.98347 0.0981 0.0
C1371 C 0.17141 1.02073 0.10376 0.0
C1372 C 0.15149 0.03254 0.11517 0.0
C1373 C 0.17471 0.99535 0.10954 0.0
C1374 C 0.13479 1.0187 0.13242 0.0
C1375 C 0.13817 0.99352 0.13854 0.0
H1376 H 0.91599 0.20189 0.87403 0.0
H1377 H 0.98764 0.21754 0.83146 0.0
H1378 H 0.95961 0.23084 0.79369 0.0
H1379 H 0.91919 0.25085 0.78031 0.0
H1380 H 0.84739 0.2349 0.8222 0.0
H1381 H 0.87078 0.20858 0.85243 0.0
C1382 C 0.92521 0.20711 0.85601 0.0
C1383 C 0.95413 0.21003 0.85617 0.0
C1384 C 0.90905 0.21529 0.83446 0.0
C1385 C 0.96558 0.21591 0.8323 0.0
C1386 C 0.9496 0.22378 0.81068 0.0
C1387 C 0.90821 0.24035 0.79511 0.0
C1388 C 0.88195 0.24498 0.79946 0.0
C1389 C 0.92194 0.22555 0.8126 0.0
C1390 C 0.86769 0.23146 0.81859 0.0
C1391 C 0.8812 0.21669 0.8361 0.0
H1392 H 0.71974 0.29438 0.63408 0.0
H1393 H 0.64132 0.29578 0.66363 0.0
H1394 H 0.63287 0.24791 0.66493 0.0
H1395 H 0.64678 0.20559 0.65611 0.0
H1396 H 0.7258 0.20367 0.62806 0.0
H1397 H 0.73515 0.25183 0.62805 0.0
C1398 C 0.70073 0.28411 0.64055 0.0
C1399 C 0.68101 0.29848 0.64837 0.0
C1400 C 0.69623 0.25657 0.64181 0.0
C1401 C 0.65673 0.28507 0.65733 0.0
C1402 C 0.65192 0.25773 0.6582 0.0
C1403 C 0.66636 0.2157 0.65061 0.0
C1404 C 0.68548 0.20102 0.64199 0.0
C1405 C 0.67149 0.24329 0.65046 0.0
C1406 C 0.71057 0.2145 0.63451 0.0
C1407 C 0.7159 0.24202 0.63442 0.0
H1408 H 0.58735 0.81125 0.32834 0.0
H1409 H 0.625 0.7517 0.3659 0.0
H1410 H 0.66713 0.76603 0.34562 0.0
H1411 H 0.69368 0.79594 0.31829 0.0
H1412 H 0.6571 0.85614 0.28112 0.0
H1413 H 0.61388 0.84082 0.29993 0.0
C1414 C 0.60472 0.80132 0.33197 0.0
C1415 C 0.60306 0.78052 0.34871 0.0
C1416 C 0.62903 0.80978 0.32038 0.0
C1417 C 0.62575 0.76784 0.3532 0.0
C1418 C 0.64987 0.77602 0.34163 0.0
C1419 C 0.67633 0.80588 0.31451 0.0
C1420 C 0.67863 0.82734 0.29868 0.0
C1421 C 0.65181 0.7971 0.32545 0.0
C1422 C 0.65576 0.83956 0.29328 0.0
C1423 C 0.63114 0.83088 0.30409 0.0
H1424 H 0.11293 0.2165 0.43927 0.0
H1425 H 0.09021 0.2533 0.5114 0.0
H1426 H 0.08802 0.21236 0.53254 0.0
H1427 H 0.0908 0.1652 0.5314 0.0
H1428 H 0.11389 0.12671 0.46065 0.0
H1429 H 0.11745 0.16815 0.4389 0.0
C1430 C 0.10793 0.21578 0.45975 0.0
C1431 C 0.10183 0.2389 0.47339 0.0
C1432 C 0.10635 0.19128 0.47231 0.0
C1433 C 0.09501 0.23653 0.49992 0.0
C1434 C 0.09364 0.21279 0.51225 0.0
C1435 C 0.09657 0.1656 0.51115 0.0
C1436 C 0.10177 0.14203 0.49794 0.0
C1437 C 0.09888 0.18986 0.49869 0.0
C1438 C 0.10951 0.14393 0.47169 0.0
C1439 C 0.11164 0.16793 0.45912 0.0
H1440 H 0.66349 0.29541 0.23994 0.0
H1441 H 0.68214 0.35444 0.1846 0.0
H1442 H 0.7319 0.36087 0.202 0.0
H1443 H 0.77073 0.34854 0.23242 0.0
H1444 H 0.75025 0.28832 0.2863 0.0
H1445 H 0.70107 0.28368 0.26993 0.0
C1446 C 0.67824 0.30991 0.23162 0.0
C1447 C 0.66854 0.32448 0.21083 0.0
C1448 C 0.70686 0.3132 0.24148 0.0
C1449 C 0.68854 0.34297 0.20058 0.0
C1450 C 0.71716 0.34657 0.21053 0.0
C1451 C 0.75554 0.33445 0.24068 0.0
C1452 C 0.76474 0.31878 0.26079 0.0
C1453 C 0.7267 0.33163 0.23089 0.0
C1454 C 0.74434 0.30066 0.27094 0.0
C1455 C 0.71597 0.29797 0.26154 0.0
H1456 H 0.60421 0.88721 1.01181 0.0
H1457 H 0.6195 0.90269 0.93092 0.0
H1458 H 0.6213 0.95008 0.94245 0.0
H1459 H 0.61694 0.98805 0.97562 0.0
H1460 H 0.60644 0.97211 0.05759 0.0
H1461 H 0.60438 0.92506 0.04564 0.0
C1462 C 0.60835 0.9009 0.99668 0.0
C1463 C 0.6118 0.89069 0.97032 0.0
C1464 C 0.61 0.92858 1.00372 0.0
C1465 C 0.61708 0.90937 0.95138 0.0
C1466 C 0.61789 0.93672 0.95798 0.0
C1467 C 0.61433 0.97435 0.99094 0.0
C1468 C 0.61173 0.98428 0.01774 0.0
C1469 C 0.61413 0.94674 0.98407 0.0
C1470 C 0.60865 0.96567 0.03698 0.0
C1471 C 0.60739 0.93846 0.0301 0.0
H1472 H 1.01011 0.78393 0.72983 0.0
H1473 H 1.00904 0.85321 0.68707 0.0
H1474 H 0.96669 0.85959 0.7062 0.0
H1475 H 0.92899 0.8449 0.73541 0.0
H1476 H 0.93147 0.77446 0.77623 0.0
H1477 H 0.97376 0.76946 0.75776 0.0
C1478 C 1.00086 0.80059 0.72453 0.0
C1479 C 1.01337 0.81808 0.70679 0.0
C1480 C 0.97639 0.80402 0.73553 0.0
C1481 C 1.00034 0.8393 0.70047 0.0
C1482 C 0.97596 0.84297 0.71155 0.0
C1483 C 0.93891 0.8286 0.74049 0.0
C1484 C 0.9266 0.8102 0.75767 0.0
C1485 C 0.96367 0.82545 0.72922 0.0
C1486 C 0.93997 0.78906 0.76338 0.0
C1487 C 0.96438 0.78611 0.7527 0.0
H1488 H 0.13874 0.04976 0.91885 0.0
H1489 H 0.22683 0.08012 0.93811 0.0
H1490 H 0.22402 0.07447 0.98602 0.0
H1491 H 0.19433 0.07178 0.02224 0.0
H1492 H 0.10572 0.04378 1.00258 0.0
H1493 H 0.11087 0.03649 0.95485 0.0
C1494 C 0.15742 0.05411 0.93351 0.0
C1495 C 0.18282 0.06574 0.92552 0.0
C1496 C 0.1554 0.05152 0.96083 0.0
C1497 C 0.2071 0.0712 0.94418 0.0
C1498 C 0.20541 0.06821 0.97149 0.0
C1499 C 0.17631 0.06335 1.00755 0.0
C1500 C 0.14962 0.0592 1.01554 0.0
C1501 C 0.17935 0.06007 0.98014 0.0
C1502 C 0.12643 0.04749 0.99671 0.0
C1503 C 0.12934 0.04354 0.96941 0.0
H1504 H 0.89501 0.33835 0.6237 0.0
H1505 H 0.82154 0.37259 0.6181 0.0
H1506 H 0.81334 0.36026 0.66314 0.0
H1507 H 0.82827 0.34163 0.70475 0.0
H1508 H 0.90305 0.30946 0.71121 0.0
H1509 H 0.90952 0.31916 0.66499 0.0
C1510 C 0.87699 0.34286 0.63215 0.0
C1511 C 0.85887 0.35632 0.61749 0.0
C1512 C 0.87275 0.33622 0.65822 0.0
C1513 C 0.8358 0.36223 0.62891 0.0
C1514 C 0.83113 0.35523 0.65469 0.0
C1515 C 0.84585 0.33649 0.69597 0.0
C1516 C 0.86513 0.32475 0.71133 0.0
C1517 C 0.84966 0.3425 0.66962 0.0
C1518 C 0.88798 0.31855 0.69981 0.0
C1519 C 0.89166 0.32405 0.67339 0.0
H1520 H 0.65201 0.18521 0.43481 0.0
H1521 H 0.56768 0.19118 0.44416 0.0
H1522 H 0.57353 0.17643 0.48927 0.0
H1523 H 0.59524 0.14574 0.51569 0.0
H1524 H 0.67405 0.12928 0.49861 0.0
H1525 H 0.67811 0.1635 0.4672 0.0
C1526 C 0.63523 0.18424 0.44716 0.0
C1527 C 0.60883 0.18731 0.43553 0.0
C1528 C 0.63762 0.17257 0.47143 0.0
C1529 C 0.58788 0.18772 0.45221 0.0
C1530 C 0.59106 0.1788 0.47787 0.0
C1531 C 0.61382 0.15066 0.50593 0.0
C1532 C 0.63422 0.1352 0.50891 0.0
C1533 C 0.61468 0.16853 0.4862 0.0
C1534 C 0.65815 0.14109 0.49624 0.0
C1535 C 0.66033 0.16051 0.47825 0.0
H1536 H 0.83102 0.76381 0.10018 0.0
H1537 H 0.8968 0.72123 0.11897 0.0
H1538 H 0.9001 0.73706 0.16715 0.0
H1539 H 0.88348 0.76294 0.20461 0.0
H1540 H 0.81679 0.80415 0.18361 0.0
H1541 H 0.8148 0.78881 0.13625 0.0
C1542 C 0.84632 0.75794 0.1146 0.0
C1543 C 0.86376 0.74124 0.10536 0.0
C1544 C 0.84782 0.76685 0.14232 0.0
C1545 C 0.88316 0.73407 0.12499 0.0
C1546 C 0.88496 0.7431 0.15272 0.0
C1547 C 0.86841 0.7685 0.18973 0.0
C1548 C 0.85022 0.78487 0.19834 0.0
C1549 C 0.86725 0.75945 0.16179 0.0
C1550 C 0.83108 0.79173 0.17825 0.0
C1551 C 0.82991 0.78294 0.15086 0.0
H1552 H 0.08853 0.08634 0.80275 0.0
H1553 H 0.14696 0.04155 0.7747 0.0
H1554 H 0.11897 0.03179 0.73036 0.0
H1555 H 0.08551 0.04565 0.69756 0.0
H1556 H 1.03017 0.09447 0.72433 0.0
H1557 H 0.04881 0.09234 0.77144 0.0
C1558 C 0.09483 0.07393 0.78714 0.0
C1559 C 0.1203 0.06549 0.79166 0.0
C1560 C 0.07926 0.0693 0.76142 0.0
C1561 C 0.12779 0.04884 0.77151 0.0
C1562 C 0.11181 0.04328 0.74613 0.0
C1563 C 0.07658 0.05481 0.71372 0.0
C1564 C 0.05695 0.07067 0.70759 0.0
C1565 C 0.08853 0.0548 0.74046 0.0
C1566 C 1.04561 0.08248 0.72869 0.0
C1567 C 0.05647 0.08147 0.75555 0.0
H1568 H 0.8399 0.39484 0.45593 0.0
H1569 H 0.84943 0.3173 0.47684 0.0
H1570 H 0.84063 0.30041 0.42916 0.0
H1571 H 0.83596 0.30878 0.38184 0.0
H1572 H 0.82972 0.38679 0.35974 0.0
H1573 H 0.83111 0.4023 0.40745 0.0
C1574 C 0.83935 0.37413 0.44998 0.0
C1575 C 0.84534 0.3573 0.4698 0.0
C1576 C 0.83525 0.36473 0.42232 0.0
C1577 C 0.84498 0.3306 0.46189 0.0
C1578 C 0.84004 0.32096 0.43465 0.0
C1579 C 0.83458 0.32914 0.3873 0.0
C1580 C 0.83312 0.34665 0.36719 0.0
C1581 C 0.8361 0.33804 0.4147 0.0
C1582 C 0.83101 0.37287 0.37478 0.0
C1583 C 0.83191 0.38179 0.4021 0.0
H1584 H 0.54586 0.14669 0.27446 0.0
H1585 H 0.62592 0.19941 0.2874 0.0
H1586 H 0.63469 0.18529 0.24203 0.0
H1587 H 0.62504 0.14949 0.20519 0.0
H1588 H 0.54852 0.09139 0.19728 0.0
H1589 H 0.53271 0.11603 0.23365 0.0
C1590 C 0.5646 0.15603 0.26678 0.0
C1591 C 0.58543 0.17366 0.28417 0.0
C1592 C 0.57055 0.14596 0.24187 0.0
C1593 C 0.60969 0.18565 0.27422 0.0
C1594 C 0.6149 0.17721 0.24851 0.0
C1595 C 0.60482 0.14236 0.21131 0.0
C1596 C 0.5884 0.11822 0.19913 0.0
C1597 C 0.59646 0.15587 0.23321 0.0
C1598 C 0.56174 0.10978 0.20646 0.0
C1599 C 0.55269 0.12382 0.22738 0.0
H1600 H 0.86276 0.77886 0.96013 0.0
H1601 H 0.86892 0.69953 0.93257 0.0
H1602 H 0.87026 0.71218 0.88624 0.0
H1603 H 0.86639 0.74535 0.85249 0.0
H1604 H 0.86405 0.82547 0.88132 0.0
H1605 H 0.86467 0.81307 0.92763 0.0
C1606 C 0.86488 0.76436 0.94412 0.0
C1607 C 0.86573 0.73809 0.95027 0.0
C1608 C 0.8661 0.77196 0.9174 0.0
C1609 C 0.8685 0.71985 0.92891 0.0
C1610 C 0.86903 0.72709 0.9022 0.0
C1611 C 0.86638 0.76023 0.86892 0.0
C1612 C 0.86506 0.78651 0.86293 0.0
C1613 C 0.86736 0.75301 0.89602 0.0
C1614 C 0.86524 0.80528 0.88488 0.0
C1615 C 0.86543 0.7981 0.91155 0.0
H1616 H 0.89241 0.1632 0.99453 0.0
H1617 H 0.89378 0.1925 0.07794 0.0
H1618 H 0.92879 0.16715 0.09208 0.0
H1619 H 0.95942 0.1371 0.08099 0.0
H1620 H 0.95902 0.10799 0.99786 0.0
H1621 H 0.92302 0.13257 0.98344 0.0
C1622 C 0.90032 0.16398 1.0158 0.0
C1623 C 0.89049 0.17979 0.03509 0.0
C1624 C 0.92059 0.14935 0.02388 0.0
C1625 C 0.90098 0.18057 0.0626 0.0
C1626 C 0.92103 0.16606 0.07076 0.0
C1627 C 0.95154 0.13625 0.0597 0.0
C1628 C 0.96185 0.12082 0.04052 0.0
C1629 C 0.93106 0.15051 0.05158 0.0
C1630 C 0.95117 0.11954 1.01304 0.0
C1631 C 0.93072 0.13371 1.00477 0.0
H1632 H 0.43206 0.47445 0.07891 0.0
H1633 H 0.3913 0.49172 1.00338 0.0
H1634 H 0.43454 0.52082 0.99553 0.0
H1635 H 0.48575 0.53864 1.00862 0.0
H1636 H 0.52447 0.52361 0.08627 0.0
H1637 H 0.4807 0.49677 0.09471 0.0
C1638 C 0.43238 0.48514 0.06105 0.0
C1639 C 0.40814 0.48096 0.04191 0.0
C1640 C 0.45734 0.50211 0.05683 0.0
C1641 C 0.40926 0.49484 0.01875 0.0
C1642 C 0.43422 0.51128 1.0141 0.0
C1643 C 0.48451 0.52977 0.02754 0.0
C1644 C 0.5088 0.53325 0.04671 0.0
C1645 C 0.45867 0.51467 0.03273 0.0
C1646 C 0.50643 0.52159 0.07114 0.0
C1647 C 0.48128 0.50605 0.07599 0.0
H1648 H 0.3535 0.5841 0.68005 0.0
H1649 H 0.30396 0.53123 0.72667 0.0
H1650 H 0.27684 0.5649 0.73622 0.0
H1651 H 0.27435 0.61197 0.73944 0.0
H1652 H 0.32791 0.66565 0.69674 0.0
H1653 H 0.34536 0.62893 0.67682 0.0
C1654 C 0.33635 0.57967 0.69178 0.0
C1655 C 0.33135 0.55551 0.70335 0.0
C1656 C 0.32163 0.59945 0.69813 0.0
C1657 C 0.30861 0.54985 0.71792 0.0
C1658 C 0.29317 0.56917 0.72353 0.0
C1659 C 0.28949 0.61561 0.72541 0.0
C1660 C 0.30023 0.64174 0.72026 0.0
C1661 C 0.30064 0.59453 0.71508 0.0
C1662 C 0.31915 0.64589 0.70126 0.0
C1663 C 0.3295 0.62487 0.69005 0.0
H1664 H 0.21287 0.69868 0.49993 0.0
H1665 H 0.27351 0.65172 0.52406 0.0
H1666 H 0.23704 0.61229 0.51979 0.0
H1667 H 0.18755 0.59244 0.51556 0.0
H1668 H 0.12628 0.6382 0.49121 0.0
H1669 H 0.16326 0.6766 0.48839 0.0
C1670 C 0.21807 0.67975 0.50393 0.0
C1671 C 0.2458 0.6783 0.51285 0.0
C1672 C 0.19691 0.6569 0.50121 0.0
C1673 C 0.25232 0.65352 0.51745 0.0
C1674 C 0.23148 0.63089 0.515 0.0
C1675 C 0.18244 0.61055 0.50858 0.0
C1676 C 0.15449 0.61263 0.50337 0.0
C1677 C 0.20368 0.6325 0.50767 0.0
C1678 C 0.1478 0.63615 0.49477 0.0
C1679 C 0.16892 0.65818 0.49363 0.0
H1680 H 0.71711 0.95929 0.71303 0.0
H1681 H 0.73837 0.02968 0.7694 0.0
H1682 H 0.78495 1.02114 0.78111 0.0
H1683 H 0.81803 0.9915 0.77861 0.0
H1684 H 0.79522 0.91941 0.72463 0.0
H1685 H 0.75167 0.93157 0.70784 0.0
C1686 C 0.73199 0.97287 0.72773 0.0
C1687 C 0.72408 0.99482 0.74064 0.0
C1688 C 0.7587 0.96773 0.73462 0.0
C1689 C 0.74375 1.01241 0.7594 0.0
C1690 C 0.77046 1.0076 0.76607 0.0
C1691 C 0.80365 0.97853 0.76302 0.0
C1692 C 0.80994 0.95443 0.75325 0.0
C1693 C 0.77792 0.98498 0.7543 0.0
C1694 C 0.7913 0.93824 0.73247 0.0
C1695 C 0.76605 0.94496 0.72308 0.0
H1696 H 0.7195 0.95113 0.50114 0.0
H1697 H 0.78004 1.00213 0.5608 0.0
H1698 H 0.74702 0.03163 0.56624 0.0
H1699 H 0.69997 0.04306 0.55427 0.0
H1700 H 0.64051 0.99113 0.49414 0.0
H1701 H 0.67373 0.9625 0.48893 0.0
C1702 C 0.72572 0.9687 0.51539 0.0
C1703 C 0.7527 0.97404 0.53052 0.0
C1704 C 0.70649 0.98571 0.51841 0.0
C1705 C 0.75975 0.99717 0.54876 0.0
C1706 C 0.7407 1.01415 0.5519 0.0
C1707 C 0.69424 0.02555 0.53994 0.0
C1708 C 0.66724 1.01969 0.52461 0.0
C1709 C 0.71385 1.00869 0.53687 0.0
C1710 C 0.66074 0.99662 0.50628 0.0
C1711 C 0.67989 0.98002 0.50325 0.0
H1712 H 0.36789 0.45575 0.70557 0.0
H1713 H 0.44581 0.43794 0.68663 0.0
H1714 H 0.435 0.39526 0.70511 0.0
H1715 H 0.40731 0.36704 0.73418 0.0
H1716 H 0.33192 0.38852 0.75646 0.0
H1717 H 0.33835 0.42594 0.72989 0.0
C1718 C 0.38223 0.44228 0.70471 0.0
C1719 C 0.40791 0.45034 0.69538 0.0
C1720 C 0.37685 0.41879 0.71704 0.0
C1721 C 0.42598 0.43236 0.69405 0.0
C1722 C 0.42003 0.40812 0.70501 0.0
C1723 C 0.39233 0.37992 0.73316 0.0
C1724 C 0.36958 0.37528 0.74785 0.0
C1725 C 0.39628 0.40187 0.718 0.0
C1726 C 0.35001 0.39186 0.74589 0.0
C1727 C 0.35347 0.41321 0.73046 0.0
H1728 H 0.17785 0.57181 0.25811 0.0
H1729 H 0.11569 0.59923 0.20563 0.0
H1730 H 0.14381 0.64398 0.21234 0.0
H1731 H 0.1851 0.67568 0.23443 0.0
H1732 H 0.24631 0.64883 0.28856 0.0
H1733 H 0.21973 0.60348 0.27952 0.0
C1734 C 0.17054 0.58753 0.24799 0.0
C1735 C 0.14461 0.58216 0.23152 0.0
C1736 C 0.18662 0.61336 0.25227 0.0
C1737 C 0.13545 0.60282 0.21861 0.0
C1738 C 0.15152 0.62844 0.22241 0.0
C1739 C 0.19255 0.65996 0.24444 0.0
C1740 C 0.21761 0.66576 0.26232 0.0
C1741 C 0.17693 0.63401 0.23951 0.0
C1742 C 0.22724 0.64497 0.27455 0.0
C1743 C 0.21195 0.61903 0.26952 0.0
H1744 H 0.54249 0.70144 0.49856 0.0
H1745 H 0.59201 0.69079 0.43455 0.0
H1746 H 0.61573 0.66163 0.46083 0.0
H1747 H 0.61747 0.6343 0.49923 0.0
H1748 H 0.5669 0.64423 0.56228 0.0
H1749 H 0.54913 0.67914 0.53969 0.0
C1750 C 0.55866 0.69294 0.49049 0.0
C1751 C 0.5651 0.69783 0.46446 0.0
C1752 C 0.57227 0.67631 0.50573 0.0
C1753 C 0.58648 0.68711 0.45446 0.0
C1754 C 0.60009 0.67046 0.46948 0.0
C1755 C 0.60362 0.64509 0.50856 0.0
C1756 C 0.59386 0.63728 0.53255 0.0
C1757 C 0.59265 0.66437 0.49484 0.0
C1758 C 0.57513 0.65055 0.54412 0.0
C1759 C 0.56462 0.67013 0.53098 0.0
H1760 H 0.74256 0.40991 0.74559 0.0
H1761 H 0.79237 0.41486 0.68 0.0
H1762 H 0.83272 0.4099 0.71069 0.0
H1763 H 0.84898 0.39139 0.75181 0.0
H1764 H 0.79668 0.38016 0.81498 0.0
H1765 H 0.7626 0.40112 0.79008 0.0
C1766 C 0.76247 0.4108 0.73816 0.0
C1767 C 0.76418 0.41165 0.71036 0.0
C1768 C 0.78513 0.40642 0.75556 0.0
C1769 C 0.79029 0.41356 0.70121 0.0
C1770 C 0.81338 0.41055 0.71874 0.0
C1771 C 0.83071 0.39462 0.76068 0.0
C1772 C 0.82493 0.3838 0.78484 0.0
C1773 C 0.81041 0.40499 0.74539 0.0
C1774 C 0.80126 0.38806 0.79617 0.0
C1775 C 0.78169 0.39982 0.78182 0.0
H1776 H 0.98687 0.32709 0.92599 0.0
H1777 H 0.07167 0.32058 0.91914 0.0
H1778 H 0.08421 0.36806 0.91581 0.0
H1779 H 0.07166 0.41166 0.91678 0.0
H1780 H 0.98704 0.41855 0.92385 0.0
H1781 H 0.97364 0.37063 0.92401 0.0
C1782 C 1.0081 0.33612 0.92391 0.0
C1783 C 1.0284 0.32043 0.92325 0.0
C1784 C 1.01512 0.36343 0.92158 0.0
C1785 C 0.0557 0.33227 0.91992 0.0
C1786 C 0.06289 0.3594 0.91792 0.0
C1787 C 0.05025 0.40265 0.91823 0.0
C1788 C 1.03048 0.41869 0.92059 0.0
C1789 C 1.04283 0.37519 0.91896 0.0
C1790 C 1.00268 0.40667 0.92182 0.0
C1791 C 0.99505 0.37928 0.92227 0.0
H1792 H 0.12868 0.8215 0.2425 0.0
H1793 H 0.10792 0.89379 0.21594 0.0
H1794 H 0.06292 0.88309 0.23244 0.0
H1795 H 1.029 0.85269 0.25326 0.0
H1796 H 0.04927 0.78002 0.27904 0.0
H1797 H 0.09509 0.79151 0.26415 0.0
C1798 C 0.11442 0.83503 0.24048 0.0
C1799 C 0.12166 0.85838 0.22794 0.0
C1800 C 0.08846 0.82864 0.24976 0.0
C1801 C 0.10288 0.87566 0.22547 0.0
C1802 C 0.0771 0.86953 0.23484 0.0
C1803 C 1.04336 0.83926 0.2554 0.0
C1804 C 1.03569 0.81544 0.26703 0.0
C1805 C 0.06957 0.84594 0.24672 0.0
C1806 C 0.05475 0.79852 0.27024 0.0
C1807 C 0.08089 0.80504 0.26166 0.0
H1808 H 0.60612 0.39429 0.06494 0.0
H1809 H 0.58323 0.41177 0.14384 0.0
H1810 H 0.58299 0.45761 0.13386 0.0
H1811 H 0.58917 0.4937 0.10222 0.0
H1812 H 0.61117 0.4746 0.02317 0.0
H1813 H 0.61189 0.42945 0.03379 0.0
C1814 C 0.60102 0.40795 0.08015 0.0
C1815 C 0.59469 0.39878 0.10537 0.0
C1816 C 0.60084 0.4346 0.07417 0.0
C1817 C 0.58817 0.41754 0.12432 0.0
C1818 C 0.58808 0.44405 0.11855 0.0
C1819 C 0.59431 0.47979 0.08728 0.0
C1820 C 0.6003 0.48843 0.06168 0.0
C1821 C 0.59441 0.45301 0.0935 0.0
C1822 C 0.60652 0.46933 0.04293 0.0
C1823 C 0.60692 0.44316 0.04903 0.0
H1824 H 1.01671 0.34245 0.39473 0.0
H1825 H 1.03022 0.27301 0.34954 0.0
H1826 H 0.98625 0.27079 0.31966 0.0
H1827 H 0.94189 0.28761 0.30804 0.0
H1828 H 0.93158 0.35882 0.3531 0.0
H1829 H 0.97581 0.36119 0.381 0.0
C1830 C 1.01036 0.32709 0.37798 0.0
C1831 C 1.02707 0.30809 0.37433 0.0
C1832 C 0.98515 0.32606 0.36091 0.0
C1833 C 1.01821 0.28821 0.35262 0.0
C1834 C 0.9928 0.2868 0.33569 0.0
C1835 C 0.9494 0.3037 0.32387 0.0
C1836 C 0.93291 0.32298 0.32829 0.0
C1837 C 0.97573 0.3054 0.33988 0.0
C1838 C 0.94344 0.34373 0.34889 0.0
C1839 C 0.9689 0.34513 0.36504 0.0
H1840 H 0.09581 0.71483 0.65328 0.0
H1841 H 0.07597 0.7523 0.58134 0.0
H1842 H 0.07617 0.71088 0.55352 0.0
H1843 H 0.08156 0.66289 0.54965 0.0
H1844 H 0.10254 0.62779 0.62302 0.0
H1845 H 0.1023 0.66898 0.6497 0.0
C1846 C 0.09143 0.71426 0.63148 0.0
C1847 C 0.08566 0.7373 0.61979 0.0
C1848 C 0.09179 0.69036 0.61561 0.0
C1849 C 0.08048 0.73542 0.5913 0.0
C1850 C 0.08053 0.71148 0.57531 0.0
C1851 C 0.08603 0.66416 0.57149 0.0
C1852 C 0.09209 0.64151 0.58398 0.0
C1853 C 0.08605 0.68862 0.58719 0.0
C1854 C 0.09799 0.64428 0.61242 0.0
C1855 C 0.09776 0.66807 0.62788 0.0
H1856 H 0.67133 0.77319 0.83394 0.0
H1857 H 0.70261 0.83997 0.89351 0.0
H1858 H 0.74684 0.84791 0.87453 0.0
H1859 H 0.77764 0.83547 0.84098 0.0
H1860 H 0.74518 0.76845 0.78177 0.0
H1861 H 0.70121 0.76138 0.80045 0.0
C1862 C 0.68768 0.7896 0.84293 0.0
C1863 C 0.683 0.80589 0.86549 0.0
C1864 C 0.71332 0.79411 0.83178 0.0
C1865 C 0.70502 0.82698 0.87634 0.0
C1866 C 0.73054 0.83153 0.86538 0.0
C1867 C 0.76095 0.81936 0.83197 0.0
C1868 C 0.76539 0.80259 0.80957 0.0
C1869 C 0.73511 0.8152 0.84307 0.0
C1870 C 0.74303 0.78185 0.79873 0.0
C1871 C 0.7176 0.77771 0.80954 0.0
H1872 H 0.45353 0.56833 0.64596 0.0
H1873 H 0.51925 0.59446 0.71247 0.0
H1874 H 0.55275 0.60568 0.68076 0.0
H1875 H 0.56465 0.59764 0.63507 0.0
H1876 H 0.49939 0.56429 0.56979 0.0
H1877 H 0.46443 0.56655 0.59981 0.0
C1878 C 0.47498 0.57744 0.6535 0.0
C1879 C 0.48414 0.58016 0.68134 0.0
C1880 C 0.49435 0.58186 0.63525 0.0
C1881 C 0.51192 0.59195 0.69098 0.0
C1882 C 0.53109 0.59809 0.67288 0.0
C1883 C 0.54275 0.59147 0.62731 0.0
C1884 C 0.53461 0.58043 0.60042 0.0
C1885 C 0.52282 0.59143 0.64506 0.0
C1886 C 0.50619 0.57258 0.59052 0.0
C1887 C 0.48616 0.57383 0.60769 0.0
H1888 H 0.84105 0.31498 0.96657 0.0
H1889 H 0.85091 0.23408 0.95322 0.0
H1890 H 0.85761 0.24031 0.90627 0.0
H1891 H 0.85665 0.26775 0.86808 0.0
H1892 H 0.84993 0.3494 0.88205 0.0
H1893 H 0.84597 0.34399 0.92982 0.0
C1894 C 0.84504 0.29885 0.95345 0.0
C1895 C 0.84518 0.27405 0.96317 0.0
C1896 C 0.84908 0.30264 0.9266 0.0
C1897 C 0.85075 0.25338 0.94616 0.0
C1898 C 0.85436 0.25686 0.91928 0.0
C1899 C 0.85444 0.28432 0.88171 0.0
C1900 C 0.85305 0.30877 0.87175 0.0
C1901 C 0.85287 0.2812 0.90914 0.0
C1902 C 0.85086 0.33037 0.88946 0.0
C1903 C 0.84857 0.32726 0.91667 0.0
H1904 H 1.03708 0.46195 0.14609 0.0
H1905 H 0.12476 0.4614 0.15336 0.0
H1906 H 0.1242 0.46473 0.10494 0.0
H1907 H 0.10335 0.48537 0.06715 0.0
H1908 H 1.01852 0.4952 0.0641 0.0
H1909 H 1.0128 0.4703 0.10341 0.0
C1910 C 0.05578 0.46139 0.13679 0.0
C1911 C 0.08121 0.46299 0.15328 0.0
C1912 C 0.05577 0.46578 0.10955 0.0
C1913 C 0.10507 0.46103 0.14112 0.0
C1914 C 0.10483 0.46333 0.11344 0.0
C1915 C 0.08323 0.48063 0.0743 0.0
C1916 C 0.06143 0.49211 0.06333 0.0
C1917 C 0.08101 0.46845 0.09826 0.0
C1918 C 1.03546 0.48641 0.07252 0.0
C1919 C 1.03237 0.47248 0.09517 0.0
H1920 H 0.86848 0.86878 0.46111 0.0
H1921 H 0.79622 0.9035 0.44522 0.0
H1922 H 0.79401 0.89043 0.39643 0.0
H1923 H 0.8133 0.8689 0.35753 0.0
H1924 H 0.88743 0.83711 0.37591 0.0
H1925 H 0.888 0.84926 0.42376 0.0
C1926 C 0.85196 0.87347 0.44719 0.0
C1927 C 0.83229 0.88699 0.45748 0.0
C1928 C 0.85125 0.86643 0.41912 0.0
C1929 C 0.81158 0.89304 0.43843 0.0
C1930 C 0.81038 0.88555 0.41034 0.0
C1931 C 0.82964 0.86469 0.37197 0.0
C1932 C 0.8504 0.85194 0.36239 0.0
C1933 C 0.8302 0.87222 0.40027 0.0
C1934 C 0.87125 0.8469 0.38194 0.0
C1935 C 0.87158 0.85381 0.40964 0.0
H1936 H 0.4155 0.49093 0.79976 0.0
H1937 H 0.43416 0.57592 0.80228 0.0
H1938 H 0.45135 0.57932 0.85062 0.0
H1939 H 0.47302 0.55752 0.887 0.0
H1940 H 0.45759 0.47225 0.88274 0.0
H1941 H 0.42673 0.46936 0.84034 0.0
C1942 C 0.42215 0.51018 0.81131 0.0
C1943 C 0.42418 0.53313 0.79778 0.0
C1944 C 0.43326 0.5118 0.83852 0.0
C1945 C 0.43254 0.55805 0.81253 0.0
C1946 C 0.44275 0.55993 0.84002 0.0
C1947 C 0.46198 0.53834 0.87739 0.0
C1948 C 0.46813 0.5151 0.88742 0.0
C1949 C 0.44508 0.53687 0.85258 0.0
C1950 C 0.45366 0.49036 0.87489 0.0
C1951 C 0.43606 0.48871 0.85068 0.0
H1952 H 0.85401 0.25285 0.12351 0.0
H1953 H 0.83867 0.32946 0.10521 0.0
H1954 H 0.85088 0.34605 0.15305 0.0
H1955 H 0.86107 0.33733 0.20048 0.0
H1956 H 0.87058 0.25918 0.21902 0.0
H1957 H 0.86598 0.24463 0.17069 0.0
C1958 C 0.8538 0.2733 0.12995 0.0
C1959 C 0.84547 0.28993 0.11092 0.0
C1960 C 0.85975 0.28235 0.15755 0.0
C1961 C 0.84489 0.31627 0.11955 0.0
C1962 C 0.85187 0.32575 0.14687 0.0
C1963 C 0.86283 0.31732 0.19385 0.0
C1964 C 0.86646 0.29936 0.21307 0.0
C1965 C 0.8587 0.30879 0.16611 0.0
C1966 C 0.86797 0.2733 0.20442 0.0
C1967 C 0.86519 0.26498 0.17686 0.0
H1968 H 1.02195 0.50025 0.28129 0.0
H1969 H 0.09405 0.47001 0.31188 0.0
H1970 H 0.07946 0.47076 0.3569 0.0
H1971 H 0.05213 0.48902 0.38866 0.0
H1972 H 0.98424 0.52516 0.35845 0.0
H1973 H 0.99046 0.51201 0.31209 0.0
C1974 C 1.03424 0.49332 0.29766 0.0
C1975 C 0.05952 0.4859 0.29348 0.0
C1976 C 1.02646 0.49498 0.32362 0.0
C1977 C 0.07478 0.4763 0.3147 0.0
C1978 C 0.0665 0.47681 0.34046 0.0
C1979 C 1.03841 0.49361 0.37188 0.0
C1980 C 1.01837 0.50878 0.37688 0.0
C1981 C 1.0433 0.48756 0.34538 0.0
C1982 C 0.99999 0.51372 0.35513 0.0
C1983 C 1.00377 0.50649 0.3286 0.0
H1984 H 0.84308 0.8485 0.60686 0.0
H1985 H 0.81909 0.92159 0.63139 0.0
H1986 H 0.81586 0.90764 0.67716 0.0
H1987 H 0.82181 0.8747 0.71158 0.0
H1988 H 0.8436 0.80104 0.68425 0.0
H1989 H 0.84554 0.81512 0.63919 0.0
C1990 C 0.83685 0.86144 0.62203 0.0
C1991 C 0.83139 0.88629 0.61508 0.0
C1992 C 0.83473 0.8531 0.64839 0.0
C1993 C 0.82326 0.90236 0.63554 0.0
C1994 C 0.82158 0.89436 0.66199 0.0
C1995 C 0.82678 0.8616 0.69577 0.0
C1996 C 0.83257 0.83652 0.70211 0.0
C1997 C 0.82754 0.86979 0.66891 0.0
C1998 C 0.83886 0.82022 0.68073 0.0
C1999 C 0.8401 0.82834 0.65461 0.0
H2000 H 0.76836 0.42042 0.59976 0.0
H2001 H 0.8101 0.47162 0.54635 0.0
H2002 H 0.78393 0.50545 0.55806 0.0
H2003 H 0.74926 0.52054 0.58334 0.0
H2004 H 0.70772 0.4697 0.63708 0.0
H2005 H 0.73374 0.43567 0.62527 0.0
C2006 C 0.77165 0.43891 0.59055 0.0
C2007 C 0.79117 0.44341 0.57214 0.0
C2008 C 0.75668 0.45841 0.59753 0.0
C2009 C 0.79523 0.46758 0.56055 0.0
C2010 C 0.78031 0.48699 0.56728 0.0
C2011 C 0.7462 0.50219 0.59282 0.0
C2012 C 0.72676 0.49782 0.61128 0.0
C2013 C 0.76111 0.48268 0.58585 0.0
C2014 C 0.72253 0.47359 0.62279 0.0
C2015 C 0.7374 0.45412 0.61605 0.0
H2016 H 0.26792 0.18098 0.54986 0.0
H2017 H 0.29575 0.11615 0.50965 0.0
H2018 H 0.25104 0.08672 0.51321 0.0
H2019 H 0.20263 0.08017 0.52619 0.0
H2020 H 0.17752 0.14608 0.56798 0.0
H2021 H 0.22236 0.174 0.56536 0.0
C2022 C 0.26438 0.16037 0.54183 0.0
C2023 C 0.28528 0.15101 0.52915 0.0
C2024 C 0.23886 0.14365 0.54424 0.0
C2025 C 0.28021 0.12405 0.51945 0.0
C2026 C 0.25452 0.10724 0.52143 0.0
C2027 C 0.20705 0.10057 0.53496 0.0
C2028 C 0.18622 0.11079 0.54725 0.0
C2029 C 0.23345 0.11687 0.53356 0.0
C2030 C 0.19272 0.13737 0.55846 0.0
C2031 C 0.2185 0.15352 0.5569 0.0
H2032 H 0.29439 0.05093 0.87368 0.0
H2033 H 0.24817 0.04129 0.79359 0.0
H2034 H 0.27685 1.01114 0.77813 0.0
H2035 H 0.3125 0.98493 0.7882 0.0
H2036 H 0.35734 0.99271 0.86863 0.0
H2037 H 0.33177 0.02629 0.88317 0.0
C2038 C 0.2908 0.04246 0.85277 0.0
C2039 C 0.26909 0.0482 0.83486 0.0
C2040 C 0.307 1.02472 0.84414 0.0
C2041 C 0.26462 0.03701 0.80785 0.0
C2042 C 0.281 1.01978 0.79897 0.0
C2043 C 0.31703 0.99437 0.80876 0.0
C2044 C 0.33673 0.98648 0.82733 0.0
C2045 C 0.3019 1.01315 0.81706 0.0
C2046 C 0.3421 0.99846 0.85406 0.0
C2047 C 0.32752 1.0176 0.86235 0.0
H2048 H 0.43151 0.9749 0.05114 0.0
H2049 H 0.479 0.91727 0.07771 0.0
H2050 H 0.52173 0.95065 0.08321 0.0
H2051 H 0.54587 0.99478 0.07747 0.0
H2052 H 0.5 0.05218 0.04721 0.0
H2053 H 0.45621 1.0204 0.04659 0.0
C2054 C 0.45122 0.9698 0.05834 0.0
C2055 C 0.45218 0.94366 0.06383 0.0
C2056 C 0.47591 0.98898 0.0608 0.0
C2057 C 0.4778 0.93719 0.07305 0.0
C2058 C 0.50222 0.95627 0.0763 0.0
C2059 C 0.52633 1.0006 0.07106 0.0
C2060 C 0.52619 0.02579 0.06232 0.0
C2061 C 0.50155 0.98204 0.0698 0.0
C2062 C 0.50064 0.03285 0.05397 0.0
C2063 C 0.47564 1.01467 0.05352 0.0
H2064 H 1.02098 0.66351 0.78588 0.0
H2065 H 0.99167 0.63276 0.85755 0.0
H2066 H 0.94628 0.64325 0.84423 0.0
H2067 H 0.91504 0.66202 0.81292 0.0
H2068 H 0.94424 0.69373 0.7417 0.0
H2069 H 0.98915 0.68147 0.75385 0.0
C2070 C 1.00466 0.65908 0.79857 0.0
C2071 C 1.00988 0.64748 0.82276 0.0
C2072 C 0.97843 0.66515 0.79078 0.0
C2073 C 0.98837 0.64175 0.83886 0.0
C2074 C 0.96232 0.64772 0.83126 0.0
C2075 C 0.93123 0.66628 0.80005 0.0
C2076 C 0.92619 0.6788 0.77643 0.0
C2077 C 0.95716 0.65956 0.80737 0.0
C2078 C 0.94733 0.68378 0.7598 0.0
C2079 C 0.97315 0.677 0.76687 0.0
H2080 H 0.97649 0.67413 0.06479 0.0
H2081 H 0.91625 0.62364 1.00449 0.0
H2082 H 0.94938 0.59429 0.99878 0.0
H2083 H 0.9965 0.58287 1.01071 0.0
H2084 H 0.05549 0.63436 0.07159 0.0
H2085 H 1.02218 0.66277 0.07698 0.0
C2086 C 0.97036 0.65671 0.05034 0.0
C2087 C 0.94346 0.65146 0.03511 0.0
C2088 C 0.98963 0.63979 0.04717 0.0
C2089 C 0.9365 0.62851 0.01662 0.0
C2090 C 0.95561 0.61162 1.01331 0.0
C2091 C 1.00211 0.60025 0.02523 0.0
C2092 C 1.02904 0.60604 0.04069 0.0
C2093 C 0.98241 0.617 0.02843 0.0
C2094 C 1.03535 0.62892 0.0593 0.0
C2095 C 1.01614 0.64541 0.06245 0.0
H2096 H 0.26789 0.15258 0.84228 0.0
H2097 H 0.19916 0.1932 0.84354 0.0
H2098 H 0.22752 0.23273 0.83012 0.0
H2099 H 0.27062 0.25487 0.81556 0.0
H2100 H 0.34038 0.21586 0.81538 0.0
H2101 H 0.31293 0.17653 0.83124 0.0
C2102 C 0.25923 0.17016 0.8398 0.0
C2103 C 0.23137 0.16985 0.84365 0.0
C2104 C 0.27576 0.19299 0.83225 0.0
C2105 C 0.22051 0.19288 0.84071 0.0
C2106 C 0.23667 0.21548 0.83294 0.0
C2107 C 0.27982 0.23773 0.81901 0.0
C2108 C 0.3072 0.2379 0.81389 0.0
C2109 C 0.2641 0.21558 0.82824 0.0
C2110 C 0.31924 0.21599 0.81911 0.0
C2111 C 0.30353 0.19356 0.82805 0.0
H2112 H 0.50937 0.07461 0.35501 0.0
H2113 H 0.59211 0.0581 0.35834 0.0
H2114 H 0.57273 1.01062 0.35277 0.0
H2115 H 0.53231 0.97384 0.34574 0.0
H2116 H 0.44956 0.99057 0.34082 0.0
H2117 H 0.46905 0.03785 0.34871 0.0
C2118 C 0.52323 0.06067 0.35467 0.0
C2119 C 0.55219 0.07001 0.35699 0.0
C2120 C 0.51196 0.03338 0.3512 0.0
C2121 C 0.56975 0.05155 0.35649 0.0
C2122 C 0.55868 1.02436 0.35325 0.0
C2123 C 0.51846 0.98778 0.34619 0.0
C2124 C 0.48942 0.97844 0.3427 0.0
C2125 C 0.5298 1.01506 0.35028 0.0
C2126 C 0.47196 0.99697 0.3439 0.0
C2127 C 0.48309 1.0241 0.34818 0.0
H2128 H 0.65254 0.41981 0.5799 0.0
H2129 H 0.62832 0.43211 0.65943 0.0
H2130 H 0.59946 0.46224 0.64309 0.0
H2131 H 0.5845 0.48825 0.60771 0.0
H2132 H 0.60839 0.47719 0.52813 0.0
H2133 H 0.6332 0.44281 0.54273 0.0
C2134 C 0.64074 0.42892 0.59354 0.0
C2135 C 0.64284 0.42389 0.62088 0.0
C2136 C 0.6239 0.44625 0.58398 0.0
C2137 C 0.62722 0.43566 0.63829 0.0
C2138 C 0.61063 0.45291 0.629 0.0
C2139 C 0.59458 0.47782 0.5934 0.0
C2140 C 0.59476 0.48517 0.56701 0.0
C2141 C 0.60922 0.45869 0.60207 0.0
C2142 C 0.60778 0.4716 0.54854 0.0
C2143 C 0.62227 0.45222 0.55698 0.0
H2144 H 0.43244 0.70308 0.36085 0.0
H2145 H 0.50327 0.73344 0.32114 0.0
H2146 H 0.4731 0.74827 0.28614 0.0
H2147 H 0.42964 0.76446 0.27587 0.0
H2148 H 0.35871 0.73409 0.31497 0.0
H2149 H 0.38561 0.70697 0.34068 0.0
C2150 C 0.44115 0.71194 0.34394 0.0
C2151 C 0.47019 0.7183 0.34439 0.0
C2152 C 0.42368 0.72092 0.32399 0.0
C2153 C 0.48105 0.72899 0.32184 0.0
C2154 C 0.46381 0.7377 0.30181 0.0
C2155 C 0.41972 0.75075 0.2889 0.0
C2156 C 0.39256 0.75152 0.29399 0.0
C2157 C 0.43549 0.73562 0.30397 0.0
C2158 C 0.37968 0.73374 0.31078 0.0
C2159 C 0.3952 0.71852 0.3258 0.0
H2160 H 0.22383 0.79879 0.1323 0.0
H2161 H 0.14535 0.80452 0.1599 0.0
H2162 H 0.1323 0.75641 0.15709 0.0
H2163 H 0.14295 0.71268 0.14659 0.0
H2164 H 0.2216 0.70667 0.11974 0.0
H2165 H 0.23487 0.75491 0.12262 0.0
C2166 C 0.20377 0.7895 0.13746 0.0
C2167 C 0.18554 0.80524 0.14611 0.0
C2168 C 0.19653 0.76179 0.13619 0.0
C2169 C 0.15976 0.79289 0.15308 0.0
C2170 C 0.1523 0.76536 0.15158 0.0
C2171 C 0.16318 0.72195 0.1418 0.0
C2172 C 0.1813 0.70616 0.13305 0.0
C2173 C 0.17057 0.74963 0.14331 0.0
C2174 C 0.20724 0.71843 0.12641 0.0
C2175 C 0.21482 0.74599 0.12801 0.0
H2176 H 0.06787 0.26442 0.8164 0.0
H2177 H 0.11297 0.23007 0.87918 0.0
H2178 H 0.15471 0.23907 0.85697 0.0
H2179 H 0.17929 0.26007 0.82211 0.0
H2180 H 0.13441 0.29436 0.75917 0.0
H2181 H 0.09164 0.28224 0.77937 0.0
C2182 C 0.08675 0.25867 0.82511 0.0
C2183 C 0.08739 0.24686 0.84955 0.0
C2184 C 0.11075 0.26416 0.81242 0.0
C2185 C 0.11196 0.23935 0.86046 0.0
C2186 C 0.13586 0.24454 0.84782 0.0
C2187 C 0.16005 0.26442 0.81244 0.0
C2188 C 0.16007 0.27825 0.78926 0.0
C2189 C 0.13562 0.25741 0.82412 0.0
C2190 C 0.13503 0.2841 0.77728 0.0
C2191 C 0.11056 0.27708 0.78874 0.0
H2192 H 0.55802 0.71984 0.96715 0.0
H2193 H 0.64685 0.74112 0.96896 0.0
H2194 H 0.65175 0.69886 0.98682 0.0
H2195 H 0.6307 0.65535 1.00337 0.0
H2196 H 0.54143 0.6327 0.99618 0.0
H2197 H 0.53695 0.67522 0.97931 0.0
C2198 C 0.57856 0.71529 0.97124 0.0
C2199 C 0.60208 0.73435 0.96662 0.0
C2200 C 0.58115 0.69032 0.98087 0.0
C2201 C 0.62829 0.72734 0.97199 0.0
C2202 C 0.63108 0.703 0.98243 0.0
C2203 C 0.61022 0.65967 0.9981 0.0
C2204 C 0.58635 0.6404 1.00162 0.0
C2205 C 0.6077 0.68426 0.98722 0.0
C2206 C 0.56017 0.64668 0.994 0.0
C2207 C 0.55761 0.67123 0.98429 0.0
H2208 H 0.16255 0.80517 0.74755 0.0
H2209 H 0.18505 0.85264 0.68318 0.0
H2210 H 0.23454 0.85748 0.70104 0.0
H2211 H 0.27201 0.84569 0.73394 0.0
H2212 H 0.24717 0.79678 0.79673 0.0
H2213 H 0.19855 0.79512 0.78045 0.0
C2214 C 0.1781 0.81685 0.73736 0.0
C2215 C 0.16959 0.82851 0.71384 0.0
C2216 C 0.20649 0.81912 0.74747 0.0
C2217 C 0.19056 0.84352 0.70131 0.0
C2218 C 0.21902 0.84614 0.7115 0.0
C2219 C 0.25597 0.83489 0.74423 0.0
C2220 C 0.26375 0.82131 0.76672 0.0
C2221 C 0.22737 0.83368 0.73442 0.0
C2222 C 0.24232 0.80734 0.77945 0.0
C2223 C 0.21426 0.80636 0.77012 0.0
H2224 H 0.06703 0.39234 0.47558 0.0
H2225 H 0.15433 0.40149 0.46877 0.0
H2226 H 0.16135 0.44875 0.48529 0.0
H2227 H 0.14231 0.48832 0.50273 0.0
H2228 H 0.05384 0.47786 0.50482 0.0
H2229 H 0.04796 0.43115 0.48941 0.0
C2230 C 0.08773 0.40453 0.47765 0.0
C2231 C 0.11015 0.39269 0.47103 0.0
C2232 C 0.09145 0.43197 0.48651 0.0
C2233 C 0.13657 0.4095 0.47358 0.0
C2234 C 0.14058 0.43674 0.48318 0.0
C2235 C 0.12173 0.47586 0.49976 0.0
C2236 C 0.09853 0.48729 0.50522 0.0
C2237 C 0.11818 0.44837 0.4899 0.0
C2238 C 0.07214 0.47031 0.50081 0.0
C2239 C 0.0687 0.44328 0.492 0.0
H2240 H 0.52446 0.31647 0.24676 0.0
H2241 H 0.49089 0.32076 0.16412 0.0
H2242 H 0.44539 0.32303 0.17845 0.0
H2243 H 0.41393 0.32156 0.21456 0.0
H2244 H 0.44917 0.32191 0.2976 0.0
H2245 H 0.49462 0.32015 0.2832 0.0
C2246 C 0.50732 0.31827 0.23183 0.0
C2247 C 0.51152 0.31838 0.20416 0.0
C2248 C 0.48115 0.32021 0.2404 0.0
C2249 C 0.48876 0.32084 0.18544 0.0
C2250 C 0.46251 0.32195 0.19369 0.0
C2251 C 0.4316 0.32146 0.22957 0.0
C2252 C 0.42767 0.32165 0.25735 0.0
C2253 C 0.45825 0.3213 0.22111 0.0
C2254 C 0.45118 0.32183 0.27626 0.0
C2255 C 0.47732 0.32073 0.26794 0.0
H2256 H 0.71913 0.58941 0.45276 0.0
H2257 H 0.66285 0.53757 0.39048 0.0
H2258 H 0.63748 0.51612 0.42454 0.0
H2259 H 0.62403 0.52207 0.4702 0.0
H2260 H 0.68097 0.57328 0.53259 0.0
H2261 H 0.71388 0.58472 0.50051 0.0
C2262 C 0.70223 0.57248 0.44688 0.0
C2263 C 0.69224 0.56539 0.41949 0.0
C2264 C 0.6875 0.56068 0.46651 0.0
C2265 C 0.67064 0.54333 0.41167 0.0
C2266 C 0.65588 0.53134 0.43109 0.0
C2267 C 0.64412 0.53493 0.47683 0.0
C2268 C 0.64995 0.54755 0.50315 0.0
C2269 C 0.66289 0.54136 0.45833 0.0
C2270 C 0.6761 0.5637 0.51211 0.0
C2271 C 0.69483 0.57034 0.4938 0.0
H2272 H 0.33873 0.8762 0.13549 0.0
H2273 H 0.396 0.82534 0.11858 0.0
H2274 H 0.39764 0.8124 0.16425 0.0
H2275 H 0.38454 0.81649 0.20983 0.0
H2276 H 0.3249 0.86436 0.22681 0.0
H2277 H 0.3226 0.87756 0.18066 0.0
C2278 C 0.3513 0.86207 0.14172 0.0
C2279 C 0.36731 0.85197 0.12349 0.0
C2280 C 0.35202 0.85434 0.16823 0.0
C2281 C 0.3834 0.83355 0.13199 0.0
C2282 C 0.38452 0.82615 0.15826 0.0
C2283 C 0.3711 0.82984 0.20338 0.0
C2284 C 0.35519 0.83968 0.22166 0.0
C2285 C 0.36927 0.83668 0.17666 0.0
C2286 C 0.33742 0.85659 0.213 0.0
C2287 C 0.33609 0.86412 0.18663 0.0
H2288 H 0.16764 0.66896 0.92907 0.0
H2289 H 0.0817 0.67429 0.90903 0.0
H2290 H 0.0731 0.66584 0.95481 0.0
H2291 H 0.08544 0.63965 0.99158 0.0
H2292 H 0.16948 0.62764 1.00834 0.0
H2293 H 0.18364 0.65602 0.97334 0.0
C2294 C 0.14734 0.66945 0.93513 0.0
C2295 C 0.12485 0.67026 0.91538 0.0
C2296 C 0.14204 0.66226 0.96072 0.0
C2297 C 0.0991 0.67252 0.92364 0.0
C2298 C 0.09405 0.66726 0.94976 0.0
C2299 C 0.10708 0.64418 0.9882 0.0
C2300 C 0.12622 0.63085 1.00133 0.0
C2301 C 0.11458 0.65924 0.9672 0.0
C2302 C 0.15436 0.63733 0.99783 0.0
C2303 C 0.16236 0.65339 0.97771 0.0
H2304 H 0.34489 0.2696 0.60206 0.0
H2305 H 0.39886 0.21533 0.62186 0.0
H2306 H 0.39808 0.22723 0.67037 0.0
H2307 H 0.38054 0.25255 0.70776 0.0
H2308 H 0.3249 0.30488 0.68545 0.0
H2309 H 0.32786 0.29408 0.63795 0.0
C2310 C 0.35682 0.26036 0.61678 0.0
C2311 C 0.37217 0.24157 0.6077 0.0
C2312 C 0.35573 0.26687 0.64464 0.0
C2313 C 0.38705 0.22995 0.62774 0.0
C2314 C 0.38645 0.23672 0.65566 0.0
C2315 C 0.36903 0.26161 0.69254 0.0
C2316 C 0.35235 0.27965 0.70084 0.0
C2317 C 0.37062 0.25503 0.66449 0.0
C2318 C 0.33777 0.29095 0.68033 0.0
C2319 C 0.3395 0.2848 0.65287 0.0
H2320 H 0.61281 0.56793 0.30453 0.0
H2321 H 0.62352 0.65289 0.31456 0.0
H2322 H 0.59547 0.65216 0.27081 0.0
H2323 H 0.5804 0.62845 0.22591 0.0
H2324 H 0.56891 0.54323 0.21575 0.0
H2325 H 0.58412 0.54288 0.26386 0.0
C2326 C 0.60797 0.58611 0.29753 0.0
C2327 C 0.62061 0.61045 0.31208 0.0
C2328 C 0.59223 0.58553 0.27226 0.0
C2329 C 0.61405 0.63396 0.30338 0.0
C2330 C 0.59825 0.63356 0.27829 0.0
C2331 C 0.57986 0.60963 0.23425 0.0
C2332 C 0.57499 0.586 0.21698 0.0
C2333 C 0.58897 0.6096 0.26183 0.0
C2334 C 0.57389 0.56183 0.22845 0.0
C2335 C 0.58261 0.5616 0.25596 0.0
H2336 H 0.3481 0.82347 0.97252 0.0
H2337 H 0.34148 0.90486 0.96707 0.0
H2338 H 0.33351 0.89705 0.91749 0.0
H2339 H 0.33366 0.86786 0.87561 0.0
H2340 H 0.33995 0.78631 0.88286 0.0
H2341 H 0.34274 0.79349 0.93155 0.0
C2342 C 0.34439 0.83939 0.9605 0.0
C2343 C 0.34558 0.86471 0.9734 0.0
C2344 C 0.34015 0.83483 0.9322 0.0
C2345 C 0.3405 0.88512 0.9576 0.0
C2346 C 0.33624 0.88071 0.92924 0.0
C2347 C 0.33532 0.85161 0.88783 0.0
C2348 C 0.33701 0.82668 0.87536 0.0
C2349 C 0.33686 0.85579 0.91626 0.0
C2350 C 0.33887 0.80581 0.89164 0.0
C2351 C 0.34047 0.80983 0.91965 0.0
H2352 H 0.1938 0.63221 0.78914 0.0
H2353 H 0.13032 0.67611 0.76507 0.0
H2354 H 0.14821 0.68187 0.72187 0.0
H2355 H 0.17397 0.66508 0.68784 0.0
H2356 H 0.22854 0.61175 0.70978 0.0
H2357 H 0.22462 0.62147 0.75717 0.0
C2358 C 0.18417 0.64354 0.77472 0.0
C2359 C 0.16016 0.65295 0.77989 0.0
C2360 C 0.19348 0.64539 0.74945 0.0
C2361 C 0.14836 0.66805 0.76124 0.0
C2362 C 0.15865 0.67142 0.73659 0.0
C2363 C 0.18527 0.65578 0.70304 0.0
C2364 C 0.20008 0.63641 0.69498 0.0
C2365 C 0.17999 0.65867 0.72988 0.0
C2366 C 0.21636 0.62623 0.71504 0.0
C2367 C 0.21362 0.63131 0.74227 0.0
H2368 H 0.36266 0.27757 0.45872 0.0
H2369 H 0.37542 0.20039 0.4315 0.0
H2370 H 0.37524 0.21318 0.38492 0.0
H2371 H 0.36904 0.24653 0.35079 0.0
H2372 H 0.3587 0.32402 0.38123 0.0
H2373 H 0.36027 0.31083 0.42667 0.0
C2374 C 0.36572 0.26346 0.44276 0.0
C2375 C 0.36905 0.23788 0.44915 0.0
C2376 C 0.36578 0.27107 0.41602 0.0
C2377 C 0.37306 0.22024 0.42772 0.0
C2378 C 0.37272 0.22758 0.40084 0.0
C2379 C 0.36734 0.26061 0.36735 0.0
C2380 C 0.36372 0.28654 0.36177 0.0
C2381 C 0.36873 0.25295 0.3945 0.0
C2382 C 0.36165 0.30413 0.3841 0.0
C2383 C 0.36247 0.29656 0.41047 0.0
H2384 H 0.40562 0.68913 0.51374 0.0
H2385 H 0.33428 0.63051 0.47708 0.0
H2386 H 0.36436 0.59928 0.46797 0.0
H2387 H 0.41085 0.58785 0.47277 0.0
H2388 H 0.48217 0.64744 0.50772 0.0
H2389 H 0.45227 0.67909 0.51488 0.0
C2390 C 0.3967 0.66952 0.50375 0.0
C2391 C 0.36781 0.662 0.4964 0.0
C2392 C 0.41412 0.65184 0.49821 0.0
C2393 C 0.35651 0.63671 0.48302 0.0
C2394 C 0.37368 0.61884 0.4778 0.0
C2395 C 0.41985 0.6079 0.48148 0.0
C2396 C 0.4486 0.61513 0.49011 0.0
C2397 C 0.40251 0.6261 0.48553 0.0
C2398 C 0.45999 0.64121 0.50143 0.0
C2399 C 0.44294 0.65935 0.50552 0.0
H2400 H 0.9348 0.95526 0.5121 0.0
H2401 H 0.90902 1.00745 0.57087 0.0
H2402 H 0.95327 0.03914 0.57221 0.0
H2403 H 1.00085 0.05076 0.5584 0.0
H2404 H 1.02415 0.99937 0.49692 0.0
H2405 H 0.97955 0.96897 0.4948 0.0
C2406 C 0.9387 0.97372 0.52504 0.0
C2407 C 0.91853 0.97879 0.54154 0.0
C2408 C 0.96397 0.99203 0.52526 0.0
C2409 C 0.92396 1.00298 0.55791 0.0
C2410 C 0.94941 1.02105 0.55875 0.0
C2411 C 0.99608 0.03306 0.5443 0.0
C2412 C 1.01631 0.02748 0.52793 0.0
C2413 C 0.96982 1.01565 0.54279 0.0
C2414 C 1.00935 1.00443 0.50972 0.0
C2415 C 0.98373 0.98687 0.50858 0.0
H2416 H 0.94699 0.09346 0.27671 0.0
H2417 H 0.8907 0.07118 0.20232 0.0
H2418 H 0.86518 0.10547 0.21444 0.0
H2419 H 0.85964 0.1426 0.24561 0.0
H2420 H 0.91652 0.16532 0.31945 0.0
H2421 H 0.9411 0.13004 0.30805 0.0
C2422 C 0.92908 0.09601 0.26317 0.0
C2423 C 0.9208 0.07979 0.23863 0.0
C2424 C 0.91466 0.11589 0.27013 0.0
C2425 C 0.89759 0.08345 0.2213 0.0
C2426 C 0.88296 0.10303 0.22821 0.0
C2427 C 0.87723 0.13959 0.25931 0.0
C2428 C 0.88628 0.15648 0.28332 0.0
C2429 C 0.89139 0.11944 0.25251 0.0
C2430 C 0.90934 0.15268 0.30074 0.0
C2431 C 0.92334 0.13249 0.29427 0.0
H2432 H 0.7711 0.16465 0.04425 0.0
H2433 H 0.72055 0.21375 1.00433 0.0
H2434 H 0.68008 0.17767 0.99939 0.0
H2435 H 0.65843 0.1336 1.00896 0.0
H2436 H 0.7074 0.08531 0.0522 0.0
H2437 H 0.74932 0.11952 0.05285 0.0
C2438 C 0.75126 0.16736 0.0343 0.0
C2439 C 0.74881 0.1919 0.02478 0.0
C2440 C 0.72787 0.14668 0.03203 0.0
C2441 C 0.72295 0.19517 1.01206 0.0
C2442 C 0.69981 0.17451 1.00913 0.0
C2443 C 0.67834 0.13024 0.01808 0.0
C2444 C 0.67983 0.10684 0.03037 0.0
C2445 C 0.70197 0.15035 0.01934 0.0
C2446 C 0.70573 0.10311 0.04252 0.0
C2447 C 0.72965 0.12272 0.04302 0.0
H2448 H 0.21982 0.51131 0.30143 0.0
H2449 H 0.18518 0.4483 0.23813 0.0
H2450 H 0.22721 0.43019 0.24514 0.0
H2451 H 0.27335 0.43169 0.26941 0.0
H2452 H 0.3084 0.4938 0.33321 0.0
H2453 H 0.26657 0.51282 0.32588 0.0
C2454 C 0.22146 0.4936 0.28919 0.0
C2455 C 0.19933 0.4812 0.2693 0.0
C2456 C 0.24575 0.48318 0.29335 0.0
C2457 C 0.20182 0.45825 0.25363 0.0
C2458 C 0.22588 0.44788 0.25757 0.0
C2459 C 0.27203 0.44964 0.28144 0.0
C2460 C 0.29402 0.46154 0.30159 0.0
C2461 C 0.24794 0.46018 0.27731 0.0
C2462 C 0.29171 0.48435 0.31754 0.0
C2463 C 0.26783 0.49519 0.31334 0.0
H2464 H 0.22603 0.46993 0.98405 0.0
H2465 H 0.25622 0.47799 0.06927 0.0
H2466 H 0.21927 0.50185 0.07854 0.0
H2467 H 0.17764 0.52072 0.06249 0.0
H2468 H 0.14848 0.51257 0.97694 0.0
H2469 H 0.18525 0.48881 0.96812 0.0
C2470 C 0.22473 0.47686 1.00476 0.0
C2471 C 0.24444 0.47184 0.02588 0.0
C2472 C 0.20325 0.49076 1.00999 0.0
C2473 C 0.2418 0.4813 0.05245 0.0
C2474 C 0.22047 0.49504 0.05778 0.0
C2475 C 0.17924 0.51379 0.04186 0.0
C2476 C 0.15976 0.51881 0.02045 0.0
C2477 C 0.20094 0.49994 0.03674 0.0
C2478 C 0.16274 0.5094 0.99397 0.0
C2479 C 0.18396 0.49565 0.98885 0.0
H2480 H 0.95464 0.92883 0.1827 0.0
H2481 H 0.89832 0.98068 0.19882 0.0
H2482 H 0.86817 0.94487 0.21674 0.0
H2483 H 0.86508 0.9035 0.23868 0.0
H2484 H 0.9255 0.85449 0.22749 0.0
H2485 H 0.94738 0.88492 0.19789 0.0
C2486 C 0.93524 0.93211 0.18916 0.0
C2487 C 0.92943 0.95772 0.19071 0.0
C2488 C 0.91958 0.91233 0.20184 0.0
C2489 C 0.90366 0.96127 0.1981 0.0
C2490 C 0.88674 0.94097 0.20895 0.0
C2491 C 0.88294 0.89941 0.22966 0.0
C2492 C 0.8942 0.87725 0.23606 0.0
C2493 C 0.89579 0.91724 0.21295 0.0
C2494 C 0.91687 0.87182 0.22358 0.0
C2495 C 0.92925 0.88906 0.20638 0.0
H2496 H 0.62221 0.09774 0.7203 0.0
H2497 H 0.69104 0.06506 0.69669 0.0
H2498 H 0.72126 0.10879 0.70506 0.0
H2499 H 0.72903 0.15582 0.72183 0.0
H2500 H 0.66069 0.1883 0.74691 0.0
H2501 H 0.62947 0.14533 0.73499 0.0
C2502 C 0.64372 0.10025 0.71664 0.0
C2503 C 0.65433 0.0781 0.70797 0.0
C2504 C 0.66122 0.12542 0.72203 0.0
C2505 C 0.68233 0.08172 0.70347 0.0
C2506 C 0.69968 0.10673 0.70833 0.0
C2507 C 0.70734 0.15346 0.72481 0.0
C2508 C 0.69733 0.17523 0.7355 0.0
C2509 C 0.68952 0.12861 0.71817 0.0
C2510 C 0.66898 0.17194 0.73863 0.0
C2511 C 0.6511 0.14732 0.73194 0.0
loop_
_geom_bond_atom_site_label_1
_geom_bond_atom_site_label_2
_geom_bond_distance
_geom_bond_site_symmetry_2
_ccdc_geom_bond_type
Zn0 O3 2.031 . S
Zn0 O5 2.049 . S
Zn0 O10 2.067 1_455 S
Zn1 O2 1.962 . S
Zn1 O4 1.986 . S
Zn1 O6 1.996 . S
Zn1 O9 1.943 . S
O2 Zn1 1.962 . S
O2 C7 1.254 . S
O3 Zn0 2.031 . S
O3 C7 1.269 . S
O4 Zn1 1.986 . S
O4 C11 1.262 . S
O5 Zn0 2.049 . S
O5 C13 1.260 . S
O6 Zn1 1.996 . S
O6 C13 1.257 . S
C7 O2 1.254 . S
C7 O3 1.269 . S
C8 O9 1.249 . S
C8 O10 1.270 1_455 S
O9 Zn1 1.943 . S
O9 C8 1.249 . S
O10 Zn0 2.067 1_655 S
O10 C8 1.270 1_655 S
C11 O4 1.262 . S
C11 O12 1.232 . S
O12 C11 1.232 . S
C13 O5 1.260 . S
C13 O6 1.257 . S
Zn14 O17 2.031 . S
Zn14 O19 2.049 . S
Zn14 O24 2.067 . S
Zn15 O16 1.962 . S
Zn15 O18 1.986 . S
Zn15 O20 1.996 . S
Zn15 O23 1.943 . S
O16 Zn15 1.962 . S
O16 C21 1.254 . S
O17 Zn14 2.031 . S
O17 C21 1.269 . S
O18 Zn15 1.986 . S
O18 C25 1.262 . S
O19 Zn14 2.049 . S
O19 C27 1.260 . S
O20 Zn15 1.996 . S
O20 C27 1.257 . S
C21 O16 1.254 . S
C21 O17 1.269 . S
C22 O23 1.249 . S
C22 O24 1.270 . S
O23 Zn15 1.943 . S
O23 C22 1.249 . S
O24 Zn14 2.067 . S
O24 C22 1.270 . S
C25 O18 1.262 . S
C25 O26 1.232 . S
O26 C25 1.232 . S
C27 O19 1.260 . S
C27 O20 1.257 . S
Zn28 O31 2.031 . S
Zn28 O33 2.049 . S
Zn28 O38 2.067 . S
Zn29 O30 1.962 . S
Zn29 O32 1.986 . S
Zn29 O34 1.996 . S
Zn29 O37 1.943 . S
O30 Zn29 1.962 . S
O30 C35 1.254 . S
O31 Zn28 2.031 . S
O31 C35 1.269 . S
O32 Zn29 1.986 . S
O32 C39 1.262 . S
O33 Zn28 2.049 . S
O33 C41 1.260 . S
O34 Zn29 1.996 . S
O34 C41 1.257 . S
C35 O30 1.254 . S
C35 O31 1.269 . S
C36 O37 1.249 . S
C36 O38 1.270 . S
O37 Zn29 1.943 . S
O37 C36 1.249 . S
O38 Zn28 2.067 . S
O38 C36 1.270 . S
C39 O32 1.262 . S
C39 O40 1.232 . S
O40 C39 1.232 . S
C41 O33 1.260 . S
C41 O34 1.257 . S
Zn42 O45 2.031 . S
Zn42 O47 2.049 . S
Zn42 O52 2.067 . S
Zn43 O44 1.962 . S
Zn43 O46 1.986 . S
Zn43 O48 1.996 . S
Zn43 O51 1.943 . S
O44 Zn43 1.962 . S
O44 C49 1.254 . S
O45 Zn42 2.031 . S
O45 C49 1.269 . S
O46 Zn43 1.986 . S
O46 C53 1.262 . S
O47 Zn42 2.049 . S
O47 C55 1.260 . S
O48 Zn43 1.996 . S
O48 C55 1.257 . S
C49 O44 1.254 . S
C49 O45 1.269 . S
C50 O51 1.249 . S
C50 O52 1.270 . S
O51 Zn43 1.943 . S
O51 C50 1.249 . S
O52 Zn42 2.067 . S
O52 C50 1.270 . S
C53 O46 1.262 . S
C53 O54 1.232 . S
O54 C53 1.232 . S
C55 O47 1.260 . S
C55 O48 1.257 . S
Zn56 O59 2.031 . S
Zn56 O61 2.049 . S
Zn56 O66 2.067 . S
Zn57 O58 1.962 . S
Zn57 O60 1.986 . S
Zn57 O62 1.996 . S
Zn57 O65 1.943 . S
O58 Zn57 1.962 . S
O58 C63 1.254 . S
O59 Zn56 2.031 . S
O59 C63 1.269 . S
O60 Zn57 1.986 . S
O60 C67 1.262 . S
O61 Zn56 2.049 . S
O61 C69 1.260 . S
O62 Zn57 1.996 . S
O62 C69 1.257 . S
C63 O58 1.254 . S
C63 O59 1.269 . S
C64 O65 1.249 . S
C64 O66 1.270 . S
O65 Zn57 1.943 . S
O65 C64 1.249 . S
O66 Zn56 2.067 . S
O66 C64 1.270 . S
C67 O60 1.262 . S
C67 O68 1.232 . S
O68 C67 1.232 . S
C69 O61 1.260 . S
C69 O62 1.257 . S
Zn70 O73 2.031 . S
Zn70 O75 2.049 . S
Zn70 O80 2.067 . S
Zn71 O72 1.962 . S
Zn71 O74 1.986 . S
Zn71 O76 1.996 . S
Zn71 O79 1.943 . S
O72 Zn71 1.962 . S
O72 C77 1.254 . S
O73 Zn70 2.031 . S
O73 C77 1.269 . S
O74 Zn71 1.986 . S
O74 C81 1.262 . S
O75 Zn70 2.049 . S
O75 C83 1.260 . S
O76 Zn71 1.996 . S
O76 C83 1.257 . S
C77 O72 1.254 . S
C77 O73 1.269 . S
C78 O79 1.249 . S
C78 O80 1.270 . S
O79 Zn71 1.943 . S
O79 C78 1.249 . S
O80 Zn70 2.067 . S
O80 C78 1.270 . S
C81 O74 1.262 . S
C81 O82 1.232 . S
O82 C81 1.232 . S
C83 O75 1.260 . S
C83 O76 1.257 . S
Zn84 O87 2.031 . S
Zn84 O89 2.049 . S
Zn84 O94 2.067 . S
Zn85 O86 1.962 . S
Zn85 O88 1.986 . S
Zn85 O90 1.996 . S
Zn85 O93 1.943 . S
O86 Zn85 1.962 . S
O86 C91 1.254 . S
O87 Zn84 2.031 . S
O87 C91 1.269 . S
O88 Zn85 1.986 . S
O88 C95 1.262 . S
O89 Zn84 2.049 . S
O89 C97 1.260 . S
O90 Zn85 1.996 . S
O90 C97 1.257 . S
C91 O86 1.254 . S
C91 O87 1.269 . S
C92 O93 1.249 . S
C92 O94 1.270 . S
O93 Zn85 1.943 . S
O93 C92 1.249 . S
O94 Zn84 2.067 . S
O94 C92 1.270 . S
C95 O88 1.262 . S
C95 O96 1.232 . S
O96 C95 1.232 . S
C97 O89 1.260 . S
C97 O90 1.257 . S
Zn98 O101 2.031 . S
Zn98 O103 2.049 . S
Zn98 O108 2.067 . S
Zn99 O100 1.962 . S
Zn99 O102 1.986 . S
Zn99 O104 1.996 . S
Zn99 O107 1.943 1_455 S
O100 Zn99 1.962 . S
O100 C105 1.254 . S
O101 Zn98 2.031 . S
O101 C105 1.269 1_655 S
O102 Zn99 1.986 . S
O102 C109 1.262 . S
O103 Zn98 2.049 . S
O103 C111 1.260 . S
O104 Zn99 1.996 . S
O104 C111 1.257 1_455 S
C105 O100 1.254 . S
C105 O101 1.269 1_455 S
C106 O107 1.249 . S
C106 O108 1.270 . S
O107 Zn99 1.943 1_655 S
O107 C106 1.249 . S
O108 Zn98 2.067 . S
O108 C106 1.270 . S
C109 O102 1.262 . S
C109 O110 1.232 . S
O110 C109 1.232 . S
C111 O103 1.260 . S
C111 O104 1.257 1_655 S
Zn112 O115 2.031 . S
Zn112 O117 2.049 . S
Zn112 O122 2.067 . S
Zn113 O114 1.962 . S
Zn113 O116 1.986 . S
Zn113 O118 1.996 . S
Zn113 O121 1.943 . S
O114 Zn113 1.962 . S
O114 C119 1.254 . S
O115 Zn112 2.031 . S
O115 C119 1.269 . S
O116 Zn113 1.986 . S
O116 C123 1.262 . S
O117 Zn112 2.049 . S
O117 C125 1.260 . S
O118 Zn113 1.996 . S
O118 C125 1.257 . S
C119 O114 1.254 . S
C119 O115 1.269 . S
C120 O121 1.249 . S
C120 O122 1.270 . S
O121 Zn113 1.943 . S
O121 C120 1.249 . S
O122 Zn112 2.067 . S
O122 C120 1.270 . S
C123 O116 1.262 . S
C123 O124 1.232 . S
O124 C123 1.232 . S
C125 O117 1.260 . S
C125 O118 1.257 . S
Zn126 O129 2.031 . S
Zn126 O131 2.049 . S
Zn126 O136 2.067 . S
Zn127 O128 1.962 . S
Zn127 O130 1.986 . S
Zn127 O132 1.996 . S
Zn127 O135 1.943 . S
O128 Zn127 1.962 . S
O128 C133 1.254 . S
O129 Zn126 2.031 . S
O129 C133 1.269 . S
O130 Zn127 1.986 . S
O130 C137 1.262 . S
O131 Zn126 2.049 . S
O131 C139 1.260 . S
O132 Zn127 1.996 . S
O132 C139 1.257 . S
C133 O128 1.254 . S
C133 O129 1.269 . S
C134 O135 1.249 . S
C134 O136 1.270 . S
O135 Zn127 1.943 . S
O135 C134 1.249 . S
O136 Zn126 2.067 . S
O136 C134 1.270 . S
C137 O130 1.262 . S
C137 O138 1.232 . S
O138 C137 1.232 . S
C139 O131 1.260 . S
C139 O132 1.257 . S
Zn140 O143 2.031 . S
Zn140 O145 2.049 . S
Zn140 O150 2.067 . S
Zn141 O142 1.962 . S
Zn141 O144 1.986 . S
Zn141 O146 1.996 . S
Zn141 O149 1.943 . S
O142 Zn141 1.962 . S
O142 C147 1.254 . S
O143 Zn140 2.031 . S
O143 C147 1.269 . S
O144 Zn141 1.986 . S
O144 C151 1.262 . S
O145 Zn140 2.049 . S
O145 C153 1.260 . S
O146 Zn141 1.996 . S
O146 C153 1.257 . S
C147 O142 1.254 . S
C147 O143 1.269 . S
C148 O149 1.249 . S
C148 O150 1.270 . S
O149 Zn141 1.943 . S
O149 C148 1.249 . S
O150 Zn140 2.067 . S
O150 C148 1.270 . S
C151 O144 1.262 . S
C151 O152 1.232 . S
O152 C151 1.232 . S
C153 O145 1.260 . S
C153 O146 1.257 . S
Zn154 O157 2.031 . S
Zn154 O159 2.049 . S
Zn154 O164 2.067 . S
Zn155 O156 1.962 . S
Zn155 O158 1.986 . S
Zn155 O160 1.996 . S
Zn155 O163 1.943 . S
O156 Zn155 1.962 . S
O156 C161 1.254 . S
O157 Zn154 2.031 . S
O157 C161 1.269 . S
O158 Zn155 1.986 . S
O158 C165 1.262 . S
O159 Zn154 2.049 . S
O159 C167 1.260 . S
O160 Zn155 1.996 . S
O160 C167 1.257 . S
C161 O156 1.254 . S
C161 O157 1.269 . S
C162 O163 1.249 . S
C162 O164 1.270 . S
O163 Zn155 1.943 . S
O163 C162 1.249 . S
O164 Zn154 2.067 . S
O164 C162 1.270 . S
C165 O158 1.262 . S
C165 O166 1.232 . S
O166 C165 1.232 . S
C167 O159 1.260 . S
C167 O160 1.257 . S
Zn168 O171 2.031 1_554 S
Zn168 O173 2.049 . S
Zn168 O178 2.067 . S
Zn169 O170 1.962 1_554 S
Zn169 O172 1.986 . S
Zn169 O174 1.996 . S
Zn169 O177 1.943 . S
O170 Zn169 1.962 1_556 S
O170 C175 1.254 . S
O171 Zn168 2.031 1_556 S
O171 C175 1.269 . S
O172 Zn169 1.986 . S
O172 C179 1.262 . S
O173 Zn168 2.049 . S
O173 C181 1.260 . S
O174 Zn169 1.996 . S
O174 C181 1.257 . S
C175 O170 1.254 . S
C175 O171 1.269 . S
C176 O177 1.249 . S
C176 O178 1.270 . S
O177 Zn169 1.943 . S
O177 C176 1.249 . S
O178 Zn168 2.067 . S
O178 C176 1.270 . S
C179 O172 1.262 . S
C179 O180 1.232 . S
O180 C179 1.232 . S
C181 O173 1.260 . S
C181 O174 1.257 . S
Zn182 O185 2.031 1_554 S
Zn182 O187 2.049 . S
Zn182 O192 2.067 . S
Zn183 O184 1.965 . S
Zn183 O186 1.984 1_556 S
Zn183 O188 1.993 1_556 S
Zn183 O191 1.943 . S
O184 Zn183 1.965 . S
O184 C189 1.254 . S
O185 Zn182 2.031 1_556 S
O185 C189 1.269 . S
O186 Zn183 1.984 1_554 S
O186 C193 1.262 . S
O187 Zn182 2.049 . S
O187 C195 1.260 . S
O188 Zn183 1.993 1_554 S
O188 C195 1.257 . S
C189 O184 1.254 . S
C189 O185 1.269 . S
C190 O191 1.249 . S
C190 O192 1.270 1_556 S
O191 Zn183 1.943 . S
O191 C190 1.249 . S
O192 Zn182 2.067 . S
O192 C190 1.270 1_554 S
C193 O186 1.262 . S
C193 O194 1.232 1_554 S
O194 C193 1.232 1_556 S
C195 O187 1.260 . S
C195 O188 1.257 . S
Zn196 O199 2.031 . S
Zn196 O201 2.049 . S
Zn196 O206 2.067 . S
Zn197 O198 1.962 . S
Zn197 O200 1.986 . S
Zn197 O202 1.996 . S
Zn197 O205 1.943 . S
O198 Zn197 1.962 . S
O198 C203 1.254 . S
O199 Zn196 2.031 . S
O199 C203 1.269 . S
O200 Zn197 1.986 . S
O200 C207 1.262 . S
O201 Zn196 2.049 . S
O201 C209 1.260 . S
O202 Zn197 1.996 . S
O202 C209 1.257 . S
C203 O198 1.254 . S
C203 O199 1.269 . S
C204 O205 1.249 . S
C204 O206 1.270 . S
O205 Zn197 1.943 . S
O205 C204 1.249 . S
O206 Zn196 2.067 . S
O206 C204 1.270 . S
C207 O200 1.262 . S
C207 O208 1.232 . S
O208 C207 1.232 . S
C209 O201 1.260 . S
C209 O202 1.257 . S
Zn210 O213 2.031 . S
Zn210 O215 2.049 . S
Zn210 O220 2.067 . S
Zn211 O212 1.962 . S
Zn211 O214 1.986 . S
Zn211 O216 1.996 . S
Zn211 O219 1.943 . S
O212 Zn211 1.962 . S
O212 C217 1.254 . S
O213 Zn210 2.031 . S
O213 C217 1.269 . S
O214 Zn211 1.986 . S
O214 C221 1.262 . S
O215 Zn210 2.049 . S
O215 C223 1.260 . S
O216 Zn211 1.996 . S
O216 C223 1.257 . S
C217 O212 1.254 . S
C217 O213 1.269 . S
C218 O219 1.249 . S
C218 O220 1.270 . S
O219 Zn211 1.943 . S
O219 C218 1.249 . S
O220 Zn210 2.067 . S
O220 C218 1.270 . S
C221 O214 1.262 . S
C221 O222 1.232 . S
O222 C221 1.232 . S
C223 O215 1.260 . S
C223 O216 1.257 . S
Zn224 O227 2.031 . S
Zn224 O229 2.049 . S
Zn224 O234 2.067 . S
Zn225 O226 1.962 . S
Zn225 O228 1.986 . S
Zn225 O230 1.996 . S
Zn225 O233 1.943 1_545 S
O226 Zn225 1.962 . S
O226 C231 1.262 . S
O227 Zn224 2.031 . S
O227 C231 1.261 1_565 S
O228 Zn225 1.986 . S
O228 C235 1.262 . S
O229 Zn224 2.049 . S
O229 C237 1.260 . S
O230 Zn225 1.996 . S
O230 C237 1.257 1_545 S
C231 O226 1.262 . S
C231 O227 1.261 1_545 S
C232 O233 1.249 . S
C232 O234 1.270 . S
O233 Zn225 1.943 1_565 S
O233 C232 1.249 . S
O234 Zn224 2.067 . S
O234 C232 1.270 . S
C235 O228 1.262 . S
C235 O236 1.232 . S
O236 C235 1.232 . S
C237 O229 1.260 . S
C237 O230 1.257 1_565 S
Zn238 O241 2.031 . S
Zn238 O243 2.049 . S
Zn238 O248 2.067 . S
Zn239 O240 1.962 . S
Zn239 O242 1.986 . S
Zn239 O244 1.996 . S
Zn239 O247 1.943 . S
O240 Zn239 1.962 . S
O240 C245 1.254 . S
O241 Zn238 2.031 . S
O241 C245 1.269 . S
O242 Zn239 1.986 . S
O242 C249 1.262 . S
O243 Zn238 2.049 . S
O243 C251 1.260 . S
O244 Zn239 1.996 . S
O244 C251 1.257 . S
C245 O240 1.254 . S
C245 O241 1.269 . S
C246 O247 1.249 . S
C246 O248 1.270 . S
O247 Zn239 1.943 . S
O247 C246 1.249 . S
O248 Zn238 2.067 . S
O248 C246 1.270 . S
C249 O242 1.262 . S
C249 O250 1.232 . S
O250 C249 1.232 . S
C251 O243 1.260 . S
C251 O244 1.257 . S
Zn252 O255 2.031 . S
Zn252 O257 2.049 . S
Zn252 O262 2.067 . S
Zn253 O254 1.962 . S
Zn253 O256 1.986 . S
Zn253 O258 1.996 . S
Zn253 O261 1.943 . S
O254 Zn253 1.962 . S
O254 C259 1.254 . S
O255 Zn252 2.031 . S
O255 C259 1.269 . S
O256 Zn253 1.986 . S
O256 C263 1.262 . S
O257 Zn252 2.049 . S
O257 C265 1.260 . S
O258 Zn253 1.996 . S
O258 C265 1.257 . S
C259 O254 1.254 . S
C259 O255 1.269 . S
C260 O261 1.249 . S
C260 O262 1.270 . S
O261 Zn253 1.943 . S
O261 C260 1.249 . S
O262 Zn252 2.067 . S
O262 C260 1.270 . S
C263 O256 1.262 . S
C263 O264 1.232 . S
O264 C263 1.232 . S
C265 O257 1.260 . S
C265 O258 1.257 . S
Zn266 O269 2.031 . S
Zn266 O271 2.049 . S
Zn266 O276 2.067 . S
Zn267 O268 1.962 . S
Zn267 O270 1.986 . S
Zn267 O272 1.996 . S
Zn267 O275 1.943 1_565 S
O268 Zn267 1.962 . S
O268 C273 1.254 1_565 S
O269 Zn266 2.031 . S
O269 C273 1.269 . S
O270 Zn267 1.986 . S
O270 C277 1.262 . S
O271 Zn266 2.049 . S
O271 C279 1.260 . S
O272 Zn267 1.996 . S
O272 C279 1.257 1_565 S
C273 O268 1.254 1_545 S
C273 O269 1.269 . S
C274 O275 1.249 . S
C274 O276 1.270 . S
O275 Zn267 1.943 1_545 S
O275 C274 1.249 . S
O276 Zn266 2.067 . S
O276 C274 1.270 . S
C277 O270 1.262 . S
C277 O278 1.232 . S
O278 C277 1.232 . S
C279 O271 1.260 . S
C279 O272 1.257 1_545 S
Zn280 O283 2.031 1_554 S
Zn280 O285 2.049 . S
Zn280 O290 2.067 . S
Zn281 O282 1.962 1_554 S
Zn281 O284 1.986 . S
Zn281 O286 1.996 . S
Zn281 O289 1.943 . S
O282 Zn281 1.962 1_556 S
O282 C287 1.254 . S
O283 Zn280 2.031 1_556 S
O283 C287 1.269 . S
O284 Zn281 1.986 . S
O284 C291 1.262 . S
O285 Zn280 2.049 . S
O285 C293 1.260 . S
O286 Zn281 1.996 . S
O286 C293 1.257 . S
C287 O282 1.254 . S
C287 O283 1.269 . S
C288 O289 1.249 . S
C288 O290 1.270 . S
O289 Zn281 1.943 . S
O289 C288 1.249 . S
O290 Zn280 2.067 . S
O290 C288 1.270 . S
C291 O284 1.262 . S
C291 O292 1.232 1_554 S
O292 C291 1.232 1_556 S
C293 O285 1.260 . S
C293 O286 1.257 . S
Zn294 O297 2.031 . S
Zn294 O299 2.049 . S
Zn294 O304 2.067 1_455 S
Zn295 O296 1.976 . S
Zn295 O298 1.972 1_455 S
Zn295 O300 2.020 . S
Zn295 O303 1.930 1_455 S
O296 Zn295 1.976 . S
O296 C301 1.254 . S
O297 Zn294 2.031 . S
O297 C301 1.269 . S
O298 Zn295 1.972 1_655 S
O298 C305 1.262 . S
O299 Zn294 2.049 . S
O299 C307 1.260 . S
O300 Zn295 2.020 . S
O300 C307 1.257 . S
C301 O296 1.254 . S
C301 O297 1.269 . S
C302 O303 1.249 . S
C302 O304 1.270 . S
O303 Zn295 1.930 1_655 S
O303 C302 1.249 . S
O304 Zn294 2.067 1_655 S
O304 C302 1.270 . S
C305 O298 1.262 . S
C305 O306 1.232 . S
O306 C305 1.232 . S
C307 O299 1.260 . S
C307 O300 1.257 . S
Zn308 O311 2.031 . S
Zn308 O313 2.049 . S
Zn308 O318 2.067 . S
Zn309 O310 1.962 . S
Zn309 O312 1.986 . S
Zn309 O314 1.996 . S
Zn309 O317 1.943 . S
O310 Zn309 1.962 . S
O310 C315 1.254 . S
O311 Zn308 2.031 . S
O311 C315 1.269 . S
O312 Zn309 1.986 . S
O312 C319 1.262 . S
O313 Zn308 2.049 . S
O313 C321 1.260 . S
O314 Zn309 1.996 . S
O314 C321 1.257 . S
C315 O310 1.254 . S
C315 O311 1.269 . S
C316 O317 1.249 . S
C316 O318 1.270 . S
O317 Zn309 1.943 . S
O317 C316 1.249 . S
O318 Zn308 2.067 . S
O318 C316 1.270 . S
C319 O312 1.262 . S
C319 O320 1.232 . S
O320 C319 1.232 . S
C321 O313 1.260 . S
C321 O314 1.257 . S
Zn322 O325 2.031 . S
Zn322 O327 2.049 . S
Zn322 O332 2.067 . S
Zn323 O324 1.962 . S
Zn323 O326 1.986 . S
Zn323 O328 1.996 . S
Zn323 O331 1.943 . S
O324 Zn323 1.962 . S
O324 C329 1.254 . S
O325 Zn322 2.031 . S
O325 C329 1.269 . S
O326 Zn323 1.986 . S
O326 C333 1.262 . S
O327 Zn322 2.049 . S
O327 C335 1.260 . S
O328 Zn323 1.996 . S
O328 C335 1.257 . S
C329 O324 1.254 . S
C329 O325 1.269 . S
C330 O331 1.249 . S
C330 O332 1.270 . S
O331 Zn323 1.943 . S
O331 C330 1.249 . S
O332 Zn322 2.067 . S
O332 C330 1.270 . S
C333 O326 1.262 . S
C333 O334 1.232 . S
O334 C333 1.232 . S
C335 O327 1.260 . S
C335 O328 1.257 . S
Tb336 C346 2.825 1_454 S
Tb336 O347 2.347 . S
Tb336 O350 2.366 . S
Tb336 O355 2.418 1_554 S
Tb336 O356 2.378 1_545 S
Tb336 O359 2.479 1_454 S
Tb336 O360 2.471 1_455 S
Eu337 O348 2.418 . S
Eu337 O349 2.384 . S
Eu337 O352 2.479 . S
Eu337 O353 2.471 . S
Eu337 O354 2.347 . S
Eu337 O357 2.366 . S
Eu337 C367 2.825 . S
C338 O354 1.259 1_556 S
C338 O355 1.265 . S
C339 O356 1.252 . S
C339 O357 1.254 1_565 S
C340 C342 1.380 . S
C340 C343 1.374 . S
C340 C346 1.507 . S
C341 C342 1.384 . S
C341 C345 1.387 . S
C341 H368 0.930 . S
C342 C340 1.380 . S
C342 C341 1.384 . S
C342 H369 0.931 . S
C343 C340 1.374 . S
C343 C344 1.390 . S
C343 H370 0.930 1_556 S
C344 C343 1.390 . S
C344 C345 1.391 . S
C344 H371 0.913 1_556 S
C345 C341 1.387 . S
C345 C344 1.391 . S
C346 Tb336 2.825 1_656 S
C346 C340 1.507 . S
C346 O359 1.238 . S
C346 O360 1.247 1_556 S
O347 Tb336 2.347 . S
O347 C351 1.259 . S
O348 Eu337 2.418 . S
O348 C351 1.265 . S
O349 Eu337 2.384 . S
O349 C358 1.255 . S
O350 Tb336 2.366 . S
O350 C358 1.265 . S
C351 O347 1.259 . S
C351 O348 1.265 . S
O352 Eu337 2.479 . S
O352 C367 1.238 . S
O353 Eu337 2.471 . S
O353 C367 1.247 . S
O354 Eu337 2.347 . S
O354 C338 1.259 1_554 S
O355 Tb336 2.418 1_556 S
O355 C338 1.265 . S
O356 Tb336 2.378 1_565 S
O356 C339 1.252 . S
O357 Eu337 2.366 . S
O357 C339 1.254 1_545 S
C358 O349 1.255 . S
C358 O350 1.265 . S
O359 Tb336 2.479 1_656 S
O359 C346 1.238 . S
O360 Tb336 2.471 1_655 S
O360 C346 1.247 1_554 S
C361 C364 1.380 . S
C361 C365 1.374 . S
C361 C367 1.507 . S
C362 C363 1.387 . S
C362 C366 1.391 . S
C363 C362 1.387 . S
C363 C364 1.384 . S
C363 H372 0.930 . S
C364 C361 1.380 . S
C364 C363 1.384 . S
C364 H373 0.931 . S
C365 C361 1.374 . S
C365 C366 1.390 . S
C365 H374 0.930 . S
C366 C362 1.391 . S
C366 C365 1.390 . S
C366 H375 0.930 . S
C367 Eu337 2.825 . S
C367 O352 1.238 . S
C367 O353 1.247 . S
C367 C361 1.507 . S
H368 C341 0.930 . S
H369 C342 0.931 . S
H370 C343 0.930 1_554 S
H371 C344 0.913 1_554 S
H372 C363 0.930 . S
H373 C364 0.931 . S
H374 C365 0.930 . S
H375 C366 0.930 . S
Tb376 C386 2.825 . S
Tb376 O387 2.347 . S
Tb376 O390 2.366 . S
Tb376 O395 2.418 . S
Tb376 O396 2.384 . S
Tb376 O399 2.479 . S
Tb376 O400 2.471 . S
Eu377 O388 2.418 . S
Eu377 O389 2.384 . S
Eu377 O392 2.479 . S
Eu377 O393 2.471 . S
Eu377 O394 2.347 . S
Eu377 O397 2.366 . S
Eu377 C407 2.825 . S
C378 O394 1.259 . S
C378 O395 1.265 . S
C379 O396 1.255 . S
C379 O397 1.265 . S
C380 C382 1.380 . S
C380 C383 1.374 . S
C380 C386 1.507 . S
C381 C382 1.384 . S
C381 C385 1.387 . S
C381 H408 0.930 . S
C382 C380 1.380 . S
C382 C381 1.384 . S
C382 H409 0.931 . S
C383 C380 1.374 . S
C383 C384 1.390 . S
C383 H410 0.930 . S
C384 C383 1.390 . S
C384 C385 1.391 . S
C384 H411 0.930 . S
C385 C381 1.387 . S
C385 C384 1.391 . S
C386 Tb376 2.825 . S
C386 C380 1.507 . S
C386 O399 1.238 . S
C386 O400 1.247 . S
O387 Tb376 2.347 . S
O387 C391 1.259 . S
O388 Eu377 2.418 . S
O388 C391 1.265 . S
O389 Eu377 2.384 . S
O389 C398 1.255 . S
O390 Tb376 2.366 . S
O390 C398 1.265 . S
C391 O387 1.259 . S
C391 O388 1.265 . S
O392 Eu377 2.479 . S
O392 C407 1.238 . S
O393 Eu377 2.471 . S
O393 C407 1.247 . S
O394 Eu377 2.347 . S
O394 C378 1.259 . S
O395 Tb376 2.418 . S
O395 C378 1.265 . S
O396 Tb376 2.384 . S
O396 C379 1.255 . S
O397 Eu377 2.366 . S
O397 C379 1.265 . S
C398 O389 1.255 . S
C398 O390 1.265 . S
O399 Tb376 2.479 . S
O399 C386 1.238 . S
O400 Tb376 2.471 . S
O400 C386 1.247 . S
C401 C404 1.380 . S
C401 C405 1.374 . S
C401 C407 1.507 . S
C402 C403 1.387 . S
C402 C406 1.391 . S
C403 C402 1.387 . S
C403 C404 1.384 . S
C403 H412 0.930 . S
C404 C401 1.380 . S
C404 C403 1.384 . S
C404 H413 0.931 . S
C405 C401 1.374 . S
C405 C406 1.390 . S
C405 H414 0.930 . S
C406 C402 1.391 . S
C406 C405 1.390 . S
C406 H415 0.930 . S
C407 Eu377 2.825 . S
C407 O392 1.238 . S
C407 O393 1.247 . S
C407 C401 1.507 . S
H408 C381 0.930 . S
H409 C382 0.931 . S
H410 C383 0.930 . S
H411 C384 0.930 . S
H412 C403 0.930 . S
H413 C404 0.931 . S
H414 C405 0.930 . S
H415 C406 0.930 . S
Tb416 C426 2.825 1_545 S
Tb416 O427 2.347 . S
Tb416 O430 2.352 1_545 S
Tb416 O435 2.423 . S
Tb416 O436 2.384 . S
Tb416 O439 2.479 1_545 S
Tb416 O440 2.471 1_545 S
Eu417 O428 2.418 . S
Eu417 O429 2.384 . S
Eu417 O432 2.479 . S
Eu417 O433 2.471 . S
Eu417 O434 2.347 . S
Eu417 O437 2.366 . S
Eu417 C447 2.825 . S
C418 O434 1.259 . S
C418 O435 1.290 . S
C419 O436 1.255 . S
C419 O437 1.265 . S
C420 C422 1.380 . S
C420 C423 1.374 . S
C420 C426 1.507 . S
C421 C422 1.384 . S
C421 C425 1.387 . S
C421 H448 0.930 . S
C422 C420 1.380 . S
C422 C421 1.384 . S
C422 H449 0.931 . S
C423 C420 1.374 . S
C423 C424 1.390 . S
C423 H450 0.930 . S
C424 C423 1.390 . S
C424 C425 1.391 . S
C424 H451 0.930 . S
C425 C421 1.387 . S
C425 C424 1.391 . S
C426 Tb416 2.825 1_565 S
C426 C420 1.507 . S
C426 O439 1.238 . S
C426 O440 1.247 . S
O427 Tb416 2.347 . S
O427 C431 1.259 . S
O428 Eu417 2.418 . S
O428 C431 1.265 . S
O429 Eu417 2.384 . S
O429 C438 1.255 . S
O430 Tb416 2.352 1_565 S
O430 C438 1.249 1_565 S
C431 O427 1.259 . S
C431 O428 1.265 . S
O432 Eu417 2.479 . S
O432 C447 1.238 . S
O433 Eu417 2.471 . S
O433 C447 1.247 . S
O434 Eu417 2.347 . S
O434 C418 1.259 . S
O435 Tb416 2.423 . S
O435 C418 1.290 . S
O436 Tb416 2.384 . S
O436 C419 1.255 . S
O437 Eu417 2.366 . S
O437 C419 1.265 . S
C438 O429 1.255 . S
C438 O430 1.249 1_545 S
O439 Tb416 2.479 1_565 S
O439 C426 1.238 . S
O440 Tb416 2.471 1_565 S
O440 C426 1.247 . S
C441 C444 1.380 . S
C441 C445 1.374 . S
C441 C447 1.507 . S
C442 C443 1.387 . S
C442 C446 1.391 . S
C443 C442 1.387 . S
C443 C444 1.384 . S
C443 H452 0.930 . S
C444 C441 1.380 . S
C444 C443 1.384 . S
C444 H453 0.931 . S
C445 C441 1.374 . S
C445 C446 1.390 . S
C445 H454 0.930 . S
C446 C442 1.391 . S
C446 C445 1.390 . S
C446 H455 0.930 . S
C447 Eu417 2.825 . S
C447 O432 1.238 . S
C447 O433 1.247 . S
C447 C441 1.507 . S
H448 C421 0.930 . S
H449 C422 0.931 . S
H450 C423 0.930 . S
H451 C424 0.930 . S
H452 C443 0.930 . S
H453 C444 0.931 . S
H454 C445 0.930 . S
H455 C446 0.930 . S
Tb456 C466 2.825 . S
Tb456 O467 2.347 . S
Tb456 O470 2.366 . S
Tb456 O475 2.418 . S
Tb456 O476 2.384 . S
Tb456 O479 2.479 . S
Tb456 O480 2.471 . S
Eu457 O468 2.418 . S
Eu457 O469 2.384 . S
Eu457 O472 2.479 . S
Eu457 O473 2.471 . S
Eu457 O474 2.347 . S
Eu457 O477 2.366 . S
Eu457 C487 2.825 . S
C458 O474 1.259 . S
C458 O475 1.265 . S
C459 O476 1.255 . S
C459 O477 1.265 . S
C460 C462 1.380 . S
C460 C463 1.374 . S
C460 C466 1.507 . S
C461 C462 1.384 . S
C461 C465 1.387 . S
C461 H488 0.930 . S
C462 C460 1.380 . S
C462 C461 1.384 . S
C462 H489 0.931 . S
C463 C460 1.374 . S
C463 C464 1.390 . S
C463 H490 0.930 . S
C464 C463 1.390 . S
C464 C465 1.391 . S
C464 H491 0.930 . S
C465 C461 1.387 . S
C465 C464 1.391 . S
C466 Tb456 2.825 . S
C466 C460 1.507 . S
C466 O479 1.238 . S
C466 O480 1.247 . S
O467 Tb456 2.347 . S
O467 C471 1.259 . S
O468 Eu457 2.418 . S
O468 C471 1.265 . S
O469 Eu457 2.384 . S
O469 C478 1.255 . S
O470 Tb456 2.366 . S
O470 C478 1.265 . S
C471 O467 1.259 . S
C471 O468 1.265 . S
O472 Eu457 2.479 . S
O472 C487 1.238 . S
O473 Eu457 2.471 . S
O473 C487 1.247 . S
O474 Eu457 2.347 . S
O474 C458 1.259 . S
O475 Tb456 2.418 . S
O475 C458 1.265 . S
O476 Tb456 2.384 . S
O476 C459 1.255 . S
O477 Eu457 2.366 . S
O477 C459 1.265 . S
C478 O469 1.255 . S
C478 O470 1.265 . S
O479 Tb456 2.479 . S
O479 C466 1.238 . S
O480 Tb456 2.471 . S
O480 C466 1.247 . S
C481 C484 1.380 . S
C481 C485 1.374 . S
C481 C487 1.507 . S
C482 C483 1.387 . S
C482 C486 1.391 . S
C483 C482 1.387 . S
C483 C484 1.384 . S
C483 H492 0.930 . S
C484 C481 1.380 . S
C484 C483 1.384 . S
C484 H493 0.931 . S
C485 C481 1.374 . S
C485 C486 1.390 . S
C485 H494 0.930 . S
C486 C482 1.391 . S
C486 C485 1.390 . S
C486 H495 0.930 . S
C487 Eu457 2.825 . S
C487 O472 1.238 . S
C487 O473 1.247 . S
C487 C481 1.507 . S
H488 C461 0.930 . S
H489 C462 0.931 . S
H490 C463 0.930 . S
H491 C464 0.930 . S
H492 C483 0.930 . S
H493 C484 0.931 . S
H494 C485 0.930 . S
H495 C486 0.930 . S
Tb496 C506 2.825 . S
Tb496 O507 2.347 . S
Tb496 O510 2.366 . S
Tb496 O515 2.418 . S
Tb496 O516 2.384 1_545 S
Tb496 O519 2.479 . S
Tb496 O520 2.471 . S
Eu497 O508 2.418 . S
Eu497 O509 2.384 . S
Eu497 O512 2.479 . S
Eu497 O513 2.471 . S
Eu497 O514 2.347 . S
Eu497 O517 2.366 . S
Eu497 C527 2.825 . S
C498 O514 1.259 . S
C498 O515 1.265 . S
C499 O516 1.255 . S
C499 O517 1.265 1_565 S
C500 C502 1.380 . S
C500 C503 1.374 1_455 S
C500 C506 1.507 . S
C501 C502 1.384 . S
C501 C505 1.387 1_455 S
C501 H528 0.930 . S
C502 C500 1.380 . S
C502 C501 1.384 . S
C502 H529 0.931 . S
C503 C500 1.374 1_655 S
C503 C504 1.390 . S
C503 H530 0.930 . S
C504 C503 1.390 . S
C504 C505 1.391 . S
C504 H531 0.930 . S
C505 C501 1.387 1_655 S
C505 C504 1.391 . S
C506 Tb496 2.825 . S
C506 C500 1.507 . S
C506 O519 1.238 . S
C506 O520 1.247 . S
O507 Tb496 2.347 . S
O507 C511 1.289 . S
O508 Eu497 2.418 . S
O508 C511 1.264 . S
O509 Eu497 2.384 . S
O509 C518 1.255 . S
O510 Tb496 2.366 . S
O510 C518 1.265 . S
C511 O507 1.289 . S
C511 O508 1.264 . S
O512 Eu497 2.479 . S
O512 C527 1.238 . S
O513 Eu497 2.471 . S
O513 C527 1.247 . S
O514 Eu497 2.347 . S
O514 C498 1.259 . S
O515 Tb496 2.418 . S
O515 C498 1.265 . S
O516 Tb496 2.384 1_565 S
O516 C499 1.255 . S
O517 Eu497 2.366 . S
O517 C499 1.265 1_545 S
C518 O509 1.255 . S
C518 O510 1.265 . S
O519 Tb496 2.479 . S
O519 C506 1.238 . S
O520 Tb496 2.471 . S
O520 C506 1.247 . S
C521 C524 1.380 . S
C521 C525 1.374 . S
C521 C527 1.507 . S
C522 C523 1.387 . S
C522 C526 1.391 . S
C523 C522 1.387 . S
C523 C524 1.384 . S
C523 H532 0.930 . S
C524 C521 1.380 . S
C524 C523 1.384 . S
C524 H533 0.931 . S
C525 C521 1.374 . S
C525 C526 1.390 . S
C525 H534 0.930 . S
C526 C522 1.391 . S
C526 C525 1.390 . S
C526 H535 0.930 . S
C527 Eu497 2.825 . S
C527 O512 1.238 . S
C527 O513 1.247 . S
C527 C521 1.507 . S
H528 C501 0.930 . S
H529 C502 0.931 . S
H530 C503 0.930 . S
H531 C504 0.930 . S
H532 C523 0.930 . S
H533 C524 0.931 . S
H534 C525 0.930 . S
H535 C526 0.930 . S
Tb536 C546 2.825 . S
Tb536 O547 2.347 . S
Tb536 O550 2.366 . S
Tb536 O555 2.418 . S
Tb536 O556 2.384 . S
Tb536 O559 2.479 . S
Tb536 O560 2.471 . S
Eu537 O548 2.418 . S
Eu537 O549 2.384 . S
Eu537 O552 2.479 . S
Eu537 O553 2.471 . S
Eu537 O554 2.347 . S
Eu537 O557 2.366 . S
Eu537 C567 2.825 . S
C538 O554 1.259 . S
C538 O555 1.265 . S
C539 O556 1.255 . S
C539 O557 1.265 . S
C540 C542 1.380 . S
C540 C543 1.374 . S
C540 C546 1.507 . S
C541 C542 1.384 . S
C541 C545 1.387 . S
C541 H568 0.930 . S
C542 C540 1.380 . S
C542 C541 1.384 . S
C542 H569 0.931 . S
C543 C540 1.374 . S
C543 C544 1.390 . S
C543 H570 0.930 . S
C544 C543 1.390 . S
C544 C545 1.391 . S
C544 H571 0.930 . S
C545 C541 1.387 . S
C545 C544 1.391 . S
C546 Tb536 2.825 . S
C546 C540 1.507 . S
C546 O559 1.238 . S
C546 O560 1.247 . S
O547 Tb536 2.347 . S
O547 C551 1.259 . S
O548 Eu537 2.418 . S
O548 C551 1.265 . S
O549 Eu537 2.384 . S
O549 C558 1.255 . S
O550 Tb536 2.366 . S
O550 C558 1.265 . S
C551 O547 1.259 . S
C551 O548 1.265 . S
O552 Eu537 2.479 . S
O552 C567 1.238 . S
O553 Eu537 2.471 . S
O553 C567 1.247 . S
O554 Eu537 2.347 . S
O554 C538 1.259 . S
O555 Tb536 2.418 . S
O555 C538 1.265 . S
O556 Tb536 2.384 . S
O556 C539 1.255 . S
O557 Eu537 2.366 . S
O557 C539 1.265 . S
C558 O549 1.255 . S
C558 O550 1.265 . S
O559 Tb536 2.479 . S
O559 C546 1.238 . S
O560 Tb536 2.471 . S
O560 C546 1.247 . S
C561 C564 1.380 . S
C561 C565 1.374 . S
C561 C567 1.507 . S
C562 C563 1.387 . S
C562 C566 1.391 . S
C563 C562 1.387 . S
C563 C564 1.384 . S
C563 H572 0.930 . S
C564 C561 1.380 . S
C564 C563 1.384 . S
C564 H573 0.931 . S
C565 C561 1.374 . S
C565 C566 1.390 . S
C565 H574 0.930 . S
C566 C562 1.391 . S
C566 C565 1.390 . S
C566 H575 0.930 . S
C567 Eu537 2.825 . S
C567 O552 1.238 . S
C567 O553 1.247 . S
C567 C561 1.507 . S
H568 C541 0.930 . S
H569 C542 0.931 . S
H570 C543 0.930 . S
H571 C544 0.930 . S
H572 C563 0.930 . S
H573 C564 0.931 . S
H574 C565 0.930 . S
H575 C566 0.930 . S
Tb576 C586 2.825 . S
Tb576 O587 2.347 . S
Tb576 O590 2.366 . S
Tb576 O595 2.427 . S
Tb576 O596 2.384 . S
Tb576 O599 2.479 . S
Tb576 O600 2.471 . S
Eu577 O588 2.418 1_556 S
Eu577 O589 2.384 1_556 S
Eu577 O592 2.479 . S
Eu577 O593 2.471 . S
Eu577 O594 2.347 1_556 S
Eu577 O597 2.366 . S
Eu577 C607 2.825 . S
C578 O594 1.280 . S
C578 O595 1.263 . S
C579 O596 1.255 . S
C579 O597 1.265 1_554 S
C580 C582 1.380 . S
C580 C583 1.374 . S
C580 C586 1.507 . S
C581 C582 1.384 . S
C581 C585 1.387 . S
C581 H608 0.930 1_545 S
C582 C580 1.380 . S
C582 C581 1.384 . S
C582 H609 0.931 . S
C583 C580 1.374 . S
C583 C584 1.390 . S
C583 H610 0.930 . S
C584 C583 1.390 . S
C584 C585 1.391 . S
C584 H611 0.930 . S
C585 C581 1.387 . S
C585 C584 1.391 . S
C586 Tb576 2.825 . S
C586 C580 1.507 . S
C586 O599 1.238 . S
C586 O600 1.247 . S
O587 Tb576 2.347 . S
O587 C591 1.259 . S
O588 Eu577 2.418 1_554 S
O588 C591 1.265 . S
O589 Eu577 2.384 1_554 S
O589 C598 1.255 . S
O590 Tb576 2.366 . S
O590 C598 1.265 . S
C591 O587 1.259 . S
C591 O588 1.265 . S
O592 Eu577 2.479 . S
O592 C607 1.238 . S
O593 Eu577 2.471 . S
O593 C607 1.247 . S
O594 Eu577 2.347 1_554 S
O594 C578 1.280 . S
O595 Tb576 2.427 . S
O595 C578 1.263 . S
O596 Tb576 2.384 . S
O596 C579 1.255 . S
O597 Eu577 2.366 . S
O597 C579 1.265 1_556 S
C598 O589 1.255 . S
C598 O590 1.265 . S
O599 Tb576 2.479 . S
O599 C586 1.238 . S
O600 Tb576 2.471 . S
O600 C586 1.247 . S
C601 C604 1.380 . S
C601 C605 1.374 . S
C601 C607 1.507 . S
C602 C603 1.387 . S
C602 C606 1.391 . S
C603 C602 1.387 . S
C603 C604 1.384 . S
C603 H612 0.930 . S
C604 C601 1.380 . S
C604 C603 1.384 . S
C604 H613 0.931 . S
C605 C601 1.374 . S
C605 C606 1.390 . S
C605 H614 0.930 . S
C606 C602 1.391 . S
C606 C605 1.390 . S
C606 H615 0.930 . S
C607 Eu577 2.825 . S
C607 O592 1.238 . S
C607 O593 1.247 . S
C607 C601 1.507 . S
H608 C581 0.930 1_565 S
H609 C582 0.931 . S
H610 C583 0.930 . S
H611 C584 0.930 . S
H612 C603 0.930 . S
H613 C604 0.931 . S
H614 C605 0.930 . S
H615 C606 0.930 . S
Tb616 C626 2.825 . S
Tb616 O627 2.347 . S
Tb616 O630 2.366 . S
Tb616 O635 2.418 . S
Tb616 O636 2.384 . S
Tb616 O639 2.479 . S
Tb616 O640 2.471 . S
Eu617 O628 2.418 . S
Eu617 O629 2.384 . S
Eu617 O632 2.479 . S
Eu617 O633 2.471 . S
Eu617 O634 2.347 . S
Eu617 O637 2.366 . S
Eu617 C647 2.825 . S
C618 O634 1.259 . S
C618 O635 1.265 . S
C619 O636 1.255 . S
C619 O637 1.265 . S
C620 C622 1.380 . S
C620 C623 1.374 . S
C620 C626 1.507 . S
C621 C622 1.384 . S
C621 C625 1.387 . S
C621 H648 0.930 . S
C622 C620 1.380 . S
C622 C621 1.384 . S
C622 H649 0.931 . S
C623 C620 1.374 . S
C623 C624 1.390 . S
C623 H650 0.930 . S
C624 C623 1.390 . S
C624 C625 1.391 . S
C624 H651 0.930 . S
C625 C621 1.387 . S
C625 C624 1.391 . S
C626 Tb616 2.825 . S
C626 C620 1.507 . S
C626 O639 1.238 . S
C626 O640 1.247 . S
O627 Tb616 2.347 . S
O627 C631 1.259 . S
O628 Eu617 2.418 . S
O628 C631 1.265 . S
O629 Eu617 2.384 . S
O629 C638 1.255 . S
O630 Tb616 2.366 . S
O630 C638 1.265 . S
C631 O627 1.259 . S
C631 O628 1.265 . S
O632 Eu617 2.479 . S
O632 C647 1.238 . S
O633 Eu617 2.471 . S
O633 C647 1.247 . S
O634 Eu617 2.347 . S
O634 C618 1.259 . S
O635 Tb616 2.418 . S
O635 C618 1.265 . S
O636 Tb616 2.384 . S
O636 C619 1.255 . S
O637 Eu617 2.366 . S
O637 C619 1.265 . S
C638 O629 1.255 . S
C638 O630 1.265 . S
O639 Tb616 2.479 . S
O639 C626 1.238 . S
O640 Tb616 2.471 . S
O640 C626 1.247 . S
C641 C644 1.380 . S
C641 C645 1.374 . S
C641 C647 1.507 . S
C642 C643 1.387 . S
C642 C646 1.391 . S
C643 C642 1.387 . S
C643 C644 1.384 . S
C643 H652 0.930 . S
C644 C641 1.380 . S
C644 C643 1.384 . S
C644 H653 0.931 . S
C645 C641 1.374 . S
C645 C646 1.390 . S
C645 H654 0.930 . S
C646 C642 1.391 . S
C646 C645 1.390 . S
C646 H655 0.930 . S
C647 Eu617 2.825 . S
C647 O632 1.238 . S
C647 O633 1.247 . S
C647 C641 1.507 . S
H648 C621 0.930 . S
H649 C622 0.931 . S
H650 C623 0.930 . S
H651 C624 0.930 . S
H652 C643 0.930 . S
H653 C644 0.931 . S
H654 C645 0.930 . S
H655 C646 0.930 . S
Tb656 C666 2.825 . S
Tb656 O667 2.347 1_556 S
Tb656 O670 2.366 . S
Tb656 O675 2.418 . S
Tb656 O676 2.384 1_556 S
Tb656 O679 2.479 . S
Tb656 O680 2.471 . S
Eu657 O668 2.418 . S
Eu657 O669 2.384 . S
Eu657 O672 2.479 . S
Eu657 O673 2.471 . S
Eu657 O674 2.347 . S
Eu657 O677 2.366 . S
Eu657 C687 2.825 . S
C658 O674 1.259 . S
C658 O675 1.265 1_554 S
C659 O676 1.255 . S
C659 O677 1.265 . S
C660 C662 1.380 . S
C660 C663 1.374 . S
C660 C666 1.507 . S
C661 C662 1.384 . S
C661 C665 1.387 . S
C661 H688 0.930 . S
C662 C660 1.380 . S
C662 C661 1.384 . S
C662 H689 0.931 . S
C663 C660 1.374 . S
C663 C664 1.390 . S
C663 H690 0.930 . S
C664 C663 1.390 . S
C664 C665 1.391 . S
C664 H691 0.930 . S
C665 C661 1.387 . S
C665 C664 1.391 . S
C666 Tb656 2.825 . S
C666 C660 1.507 . S
C666 O679 1.238 . S
C666 O680 1.247 . S
O667 Tb656 2.347 1_554 S
O667 C671 1.259 . S
O668 Eu657 2.418 . S
O668 C671 1.265 . S
O669 Eu657 2.384 . S
O669 C678 1.255 1_554 S
O670 Tb656 2.366 . S
O670 C678 1.265 . S
C671 O667 1.259 . S
C671 O668 1.265 . S
O672 Eu657 2.479 . S
O672 C687 1.238 . S
O673 Eu657 2.471 . S
O673 C687 1.247 . S
O674 Eu657 2.347 . S
O674 C658 1.259 . S
O675 Tb656 2.418 . S
O675 C658 1.265 1_556 S
O676 Tb656 2.384 1_554 S
O676 C659 1.255 . S
O677 Eu657 2.366 . S
O677 C659 1.265 . S
C678 O669 1.255 1_556 S
C678 O670 1.265 . S
O679 Tb656 2.479 . S
O679 C666 1.238 . S
O680 Tb656 2.471 . S
O680 C666 1.247 . S
C681 C684 1.380 . S
C681 C685 1.374 . S
C681 C687 1.507 . S
C682 C683 1.387 . S
C682 C686 1.391 . S
C683 C682 1.387 . S
C683 C684 1.384 . S
C683 H692 0.930 . S
C684 C681 1.380 . S
C684 C683 1.384 . S
C684 H693 0.931 . S
C685 C681 1.374 . S
C685 C686 1.390 . S
C685 H694 0.930 . S
C686 C682 1.391 . S
C686 C685 1.390 . S
C686 H695 0.930 . S
C687 Eu657 2.825 . S
C687 O672 1.238 . S
C687 O673 1.247 . S
C687 C681 1.507 . S
H688 C661 0.930 . S
H689 C662 0.931 . S
H690 C663 0.930 . S
H691 C664 0.930 . S
H692 C683 0.930 . S
H693 C684 0.931 . S
H694 C685 0.930 . S
H695 C686 0.930 . S
Tb696 C706 2.825 . S
Tb696 O707 2.347 . S
Tb696 O710 2.366 . S
Tb696 O715 2.418 . S
Tb696 O716 2.384 . S
Tb696 O719 2.479 . S
Tb696 O720 2.471 . S
Eu697 O708 2.418 . S
Eu697 O709 2.384 . S
Eu697 O712 2.479 . S
Eu697 O713 2.471 . S
Eu697 O714 2.347 . S
Eu697 O717 2.366 . S
Eu697 C727 2.825 . S
C698 O714 1.259 . S
C698 O715 1.265 . S
C699 O716 1.255 . S
C699 O717 1.265 . S
C700 C702 1.380 . S
C700 C703 1.374 . S
C700 C706 1.507 . S
C701 C702 1.384 . S
C701 C705 1.387 . S
C701 H728 0.930 . S
C702 C700 1.380 . S
C702 C701 1.384 . S
C702 H729 0.931 . S
C703 C700 1.374 . S
C703 C704 1.390 . S
C703 H730 0.930 . S
C704 C703 1.390 . S
C704 C705 1.391 . S
C704 H731 0.930 . S
C705 C701 1.387 . S
C705 C704 1.391 . S
C706 Tb696 2.825 . S
C706 C700 1.507 . S
C706 O719 1.238 . S
C706 O720 1.247 . S
O707 Tb696 2.347 . S
O707 C711 1.259 . S
O708 Eu697 2.418 . S
O708 C711 1.265 . S
O709 Eu697 2.384 . S
O709 C718 1.255 . S
O710 Tb696 2.366 . S
O710 C718 1.265 . S
C711 O707 1.259 . S
C711 O708 1.265 . S
O712 Eu697 2.479 . S
O712 C727 1.238 . S
O713 Eu697 2.471 . S
O713 C727 1.247 . S
O714 Eu697 2.347 . S
O714 C698 1.259 . S
O715 Tb696 2.418 . S
O715 C698 1.265 . S
O716 Tb696 2.384 . S
O716 C699 1.255 . S
O717 Eu697 2.366 . S
O717 C699 1.265 . S
C718 O709 1.255 . S
C718 O710 1.265 . S
O719 Tb696 2.479 . S
O719 C706 1.238 . S
O720 Tb696 2.471 . S
O720 C706 1.247 . S
C721 C724 1.380 . S
C721 C725 1.374 . S
C721 C727 1.507 . S
C722 C723 1.387 . S
C722 C726 1.391 . S
C723 C722 1.387 . S
C723 C724 1.384 . S
C723 H732 0.930 . S
C724 C721 1.380 . S
C724 C723 1.384 . S
C724 H733 0.931 . S
C725 C721 1.374 . S
C725 C726 1.390 . S
C725 H734 0.930 . S
C726 C722 1.391 . S
C726 C725 1.390 . S
C726 H735 0.930 . S
C727 Eu697 2.825 . S
C727 O712 1.238 . S
C727 O713 1.247 . S
C727 C721 1.507 . S
H728 C701 0.930 . S
H729 C702 0.931 . S
H730 C703 0.930 . S
H731 C704 0.930 . S
H732 C723 0.930 . S
H733 C724 0.931 . S
H734 C725 0.930 . S
H735 C726 0.930 . S
Tb736 C746 2.825 . S
Tb736 O747 2.347 . S
Tb736 O750 2.366 . S
Tb736 O755 2.418 . S
Tb736 O756 2.384 . S
Tb736 O759 2.479 . S
Tb736 O760 2.471 . S
Eu737 O748 2.418 . S
Eu737 O749 2.384 1_455 S
Eu737 O752 2.479 . S
Eu737 O753 2.471 . S
Eu737 O754 2.347 . S
Eu737 O757 2.366 . S
Eu737 C767 2.825 . S
C738 O754 1.259 . S
C738 O755 1.265 . S
C739 O756 1.255 . S
C739 O757 1.265 . S
C740 C742 1.380 . S
C740 C743 1.374 . S
C740 C746 1.507 . S
C741 C742 1.384 . S
C741 C745 1.387 . S
C741 H768 0.930 . S
C742 C740 1.380 . S
C742 C741 1.384 . S
C742 H769 0.931 . S
C743 C740 1.374 . S
C743 C744 1.390 . S
C743 H770 0.930 . S
C744 C743 1.390 . S
C744 C745 1.391 . S
C744 H771 0.919 1_455 S
C745 C741 1.387 . S
C745 C744 1.391 . S
C746 Tb736 2.825 . S
C746 C740 1.507 . S
C746 O759 1.238 . S
C746 O760 1.247 . S
O747 Tb736 2.347 . S
O747 C751 1.259 . S
O748 Eu737 2.418 . S
O748 C751 1.265 . S
O749 Eu737 2.384 1_655 S
O749 C758 1.255 . S
O750 Tb736 2.366 . S
O750 C758 1.265 1_455 S
C751 O747 1.259 . S
C751 O748 1.265 . S
O752 Eu737 2.479 . S
O752 C767 1.238 . S
O753 Eu737 2.471 . S
O753 C767 1.247 . S
O754 Eu737 2.347 . S
O754 C738 1.259 . S
O755 Tb736 2.418 . S
O755 C738 1.265 . S
O756 Tb736 2.384 . S
O756 C739 1.255 . S
O757 Eu737 2.366 . S
O757 C739 1.265 . S
C758 O749 1.255 . S
C758 O750 1.265 1_655 S
O759 Tb736 2.479 . S
O759 C746 1.238 . S
O760 Tb736 2.471 . S
O760 C746 1.247 . S
C761 C764 1.380 . S
C761 C765 1.374 . S
C761 C767 1.507 . S
C762 C763 1.387 . S
C762 C766 1.391 . S
C763 C762 1.387 . S
C763 C764 1.384 . S
C763 H772 0.930 . S
C764 C761 1.380 . S
C764 C763 1.384 . S
C764 H773 0.931 . S
C765 C761 1.374 . S
C765 C766 1.390 . S
C765 H774 0.930 . S
C766 C762 1.391 . S
C766 C765 1.390 . S
C766 H775 0.930 . S
C767 Eu737 2.825 . S
C767 O752 1.238 . S
C767 O753 1.247 . S
C767 C761 1.507 . S
H768 C741 0.930 . S
H769 C742 0.931 . S
H770 C743 0.930 . S
H771 C744 0.919 1_655 S
H772 C763 0.930 . S
H773 C764 0.931 . S
H774 C765 0.930 . S
H775 C766 0.930 . S
Tb776 C786 2.825 . S
Tb776 O787 2.347 . S
Tb776 O790 2.366 . S
Tb776 O795 2.418 . S
Tb776 O796 2.384 . S
Tb776 O799 2.479 . S
Tb776 O800 2.471 . S
Eu777 O788 2.418 . S
Eu777 O789 2.384 . S
Eu777 O792 2.479 . S
Eu777 O793 2.471 . S
Eu777 O794 2.347 . S
Eu777 O797 2.366 . S
Eu777 C807 2.825 . S
C778 O794 1.259 . S
C778 O795 1.265 . S
C779 O796 1.255 . S
C779 O797 1.265 . S
C780 C782 1.380 . S
C780 C783 1.374 . S
C780 C786 1.507 . S
C781 C782 1.384 . S
C781 C785 1.387 . S
C781 H808 0.930 . S
C782 C780 1.380 . S
C782 C781 1.384 . S
C782 H809 0.931 . S
C783 C780 1.374 . S
C783 C784 1.390 . S
C783 H810 0.930 . S
C784 C783 1.390 . S
C784 C785 1.391 . S
C784 H811 0.930 . S
C785 C781 1.387 . S
C785 C784 1.391 . S
C786 Tb776 2.825 . S
C786 C780 1.507 . S
C786 O799 1.238 . S
C786 O800 1.247 . S
O787 Tb776 2.347 . S
O787 C791 1.259 . S
O788 Eu777 2.418 . S
O788 C791 1.265 . S
O789 Eu777 2.384 . S
O789 C798 1.255 . S
O790 Tb776 2.366 . S
O790 C798 1.265 . S
C791 O787 1.259 . S
C791 O788 1.265 . S
O792 Eu777 2.479 . S
O792 C807 1.238 . S
O793 Eu777 2.471 . S
O793 C807 1.247 . S
O794 Eu777 2.347 . S
O794 C778 1.259 . S
O795 Tb776 2.418 . S
O795 C778 1.265 . S
O796 Tb776 2.384 . S
O796 C779 1.255 . S
O797 Eu777 2.366 . S
O797 C779 1.265 . S
C798 O789 1.255 . S
C798 O790 1.265 . S
O799 Tb776 2.479 . S
O799 C786 1.238 . S
O800 Tb776 2.471 . S
O800 C786 1.247 . S
C801 C804 1.380 . S
C801 C805 1.374 . S
C801 C807 1.507 . S
C802 C803 1.387 . S
C802 C806 1.391 . S
C803 C802 1.387 . S
C803 C804 1.384 . S
C803 H812 0.930 . S
C804 C801 1.380 . S
C804 C803 1.384 . S
C804 H813 0.931 . S
C805 C801 1.374 . S
C805 C806 1.390 . S
C805 H814 0.930 . S
C806 C802 1.391 . S
C806 C805 1.390 . S
C806 H815 0.930 . S
C807 Eu777 2.825 . S
C807 O792 1.238 . S
C807 O793 1.247 . S
C807 C801 1.507 . S
H808 C781 0.930 . S
H809 C782 0.931 . S
H810 C783 0.930 . S
H811 C784 0.930 . S
H812 C803 0.930 . S
H813 C804 0.931 . S
H814 C805 0.930 . S
H815 C806 0.930 . S
Tb816 C826 2.825 . S
Tb816 O827 2.347 . S
Tb816 O830 2.366 . S
Tb816 O835 2.418 . S
Tb816 O836 2.384 . S
Tb816 O839 2.479 . S
Tb816 O840 2.471 . S
Eu817 O828 2.418 . S
Eu817 O829 2.384 . S
Eu817 O832 2.479 . S
Eu817 O833 2.471 . S
Eu817 O834 2.347 . S
Eu817 O837 2.366 . S
Eu817 C847 2.825 . S
C818 O834 1.259 . S
C818 O835 1.265 . S
C819 O836 1.255 . S
C819 O837 1.265 . S
C820 C822 1.380 . S
C820 C823 1.374 . S
C820 C826 1.507 . S
C821 C822 1.384 . S
C821 C825 1.387 . S
C821 H848 0.930 . S
C822 C820 1.380 . S
C822 C821 1.384 . S
C822 H849 0.931 . S
C823 C820 1.374 . S
C823 C824 1.390 . S
C823 H850 0.930 . S
C824 C823 1.390 . S
C824 C825 1.391 . S
C824 H851 0.930 . S
C825 C821 1.387 . S
C825 C824 1.391 . S
C826 Tb816 2.825 . S
C826 C820 1.507 . S
C826 O839 1.238 . S
C826 O840 1.247 . S
O827 Tb816 2.347 . S
O827 C831 1.259 . S
O828 Eu817 2.418 . S
O828 C831 1.265 . S
O829 Eu817 2.384 . S
O829 C838 1.255 . S
O830 Tb816 2.366 . S
O830 C838 1.265 . S
C831 O827 1.259 . S
C831 O828 1.265 . S
O832 Eu817 2.479 . S
O832 C847 1.238 . S
O833 Eu817 2.471 . S
O833 C847 1.247 . S
O834 Eu817 2.347 . S
O834 C818 1.259 . S
O835 Tb816 2.418 . S
O835 C818 1.265 . S
O836 Tb816 2.384 . S
O836 C819 1.255 . S
O837 Eu817 2.366 . S
O837 C819 1.265 . S
C838 O829 1.255 . S
C838 O830 1.265 . S
O839 Tb816 2.479 . S
O839 C826 1.238 . S
O840 Tb816 2.471 . S
O840 C826 1.247 . S
C841 C844 1.380 . S
C841 C845 1.374 . S
C841 C847 1.507 . S
C842 C843 1.387 . S
C842 C846 1.391 . S
C843 C842 1.387 . S
C843 C844 1.384 . S
C843 H852 0.930 . S
C844 C841 1.380 . S
C844 C843 1.384 . S
C844 H853 0.931 . S
C845 C841 1.374 . S
C845 C846 1.390 . S
C845 H854 0.930 . S
C846 C842 1.391 . S
C846 C845 1.390 . S
C846 H855 0.930 . S
C847 Eu817 2.825 . S
C847 O832 1.238 . S
C847 O833 1.247 . S
C847 C841 1.507 . S
H848 C821 0.930 . S
H849 C822 0.931 . S
H850 C823 0.930 . S
H851 C824 0.930 . S
H852 C843 0.930 . S
H853 C844 0.931 . S
H854 C845 0.930 . S
H855 C846 0.930 . S
Tb856 C866 2.825 . S
Tb856 O867 2.347 . S
Tb856 O870 2.366 . S
Tb856 O875 2.418 . S
Tb856 O876 2.384 . S
Tb856 O879 2.479 . S
Tb856 O880 2.471 . S
Eu857 O868 2.418 . S
Eu857 O869 2.384 . S
Eu857 O872 2.479 . S
Eu857 O873 2.471 . S
Eu857 O874 2.347 . S
Eu857 O877 2.366 . S
Eu857 C887 2.825 . S
C858 O874 1.259 . S
C858 O875 1.265 . S
C859 O876 1.255 . S
C859 O877 1.265 . S
C860 C862 1.380 . S
C860 C863 1.374 . S
C860 C866 1.507 . S
C861 C862 1.384 . S
C861 C865 1.387 . S
C861 H888 0.930 . S
C862 C860 1.380 . S
C862 C861 1.384 . S
C862 H889 0.931 . S
C863 C860 1.374 . S
C863 C864 1.390 . S
C863 H890 0.930 . S
C864 C863 1.390 . S
C864 C865 1.391 . S
C864 H891 0.930 . S
C865 C861 1.387 . S
C865 C864 1.391 . S
C866 Tb856 2.825 . S
C866 C860 1.507 . S
C866 O879 1.238 . S
C866 O880 1.247 . S
O867 Tb856 2.347 . S
O867 C871 1.259 . S
O868 Eu857 2.418 . S
O868 C871 1.265 . S
O869 Eu857 2.384 . S
O869 C878 1.255 . S
O870 Tb856 2.366 . S
O870 C878 1.265 . S
C871 O867 1.259 . S
C871 O868 1.265 . S
O872 Eu857 2.479 . S
O872 C887 1.238 . S
O873 Eu857 2.471 . S
O873 C887 1.247 . S
O874 Eu857 2.347 . S
O874 C858 1.259 . S
O875 Tb856 2.418 . S
O875 C858 1.265 . S
O876 Tb856 2.384 . S
O876 C859 1.255 . S
O877 Eu857 2.366 . S
O877 C859 1.265 . S
C878 O869 1.255 . S
C878 O870 1.265 . S
O879 Tb856 2.479 . S
O879 C866 1.238 . S
O880 Tb856 2.471 . S
O880 C866 1.247 . S
C881 C884 1.380 . S
C881 C885 1.374 . S
C881 C887 1.507 . S
C882 C883 1.387 . S
C882 C886 1.391 . S
C883 C882 1.387 . S
C883 C884 1.384 . S
C883 H892 0.930 . S
C884 C881 1.380 . S
C884 C883 1.384 . S
C884 H893 0.931 . S
C885 C881 1.374 . S
C885 C886 1.390 . S
C885 H894 0.930 . S
C886 C882 1.391 . S
C886 C885 1.390 . S
C886 H895 0.930 . S
C887 Eu857 2.825 . S
C887 O872 1.238 . S
C887 O873 1.247 . S
C887 C881 1.507 . S
H888 C861 0.930 . S
H889 C862 0.931 . S
H890 C863 0.930 . S
H891 C864 0.930 . S
H892 C883 0.930 . S
H893 C884 0.931 . S
H894 C885 0.930 . S
H895 C886 0.930 . S
Tb896 C906 2.825 . S
Tb896 O907 2.347 . S
Tb896 O910 2.366 . S
Tb896 O915 2.418 . S
Tb896 O916 2.384 . S
Tb896 O919 2.479 . S
Tb896 O920 2.471 . S
Eu897 O908 2.418 . S
Eu897 O909 2.384 . S
Eu897 O912 2.479 . S
Eu897 O913 2.471 . S
Eu897 O914 2.347 . S
Eu897 O917 2.366 . S
Eu897 C927 2.825 . S
C898 O914 1.259 . S
C898 O915 1.265 . S
C899 O916 1.255 . S
C899 O917 1.265 . S
C900 C902 1.380 . S
C900 C903 1.374 . S
C900 C906 1.507 . S
C901 C902 1.384 . S
C901 C905 1.387 . S
C901 H928 0.930 . S
C902 C900 1.380 . S
C902 C901 1.384 . S
C902 H929 0.931 . S
C903 C900 1.374 . S
C903 C904 1.390 . S
C903 H930 0.930 . S
C904 C903 1.390 . S
C904 C905 1.391 . S
C904 H931 0.930 . S
C905 C901 1.387 . S
C905 C904 1.391 . S
C906 Tb896 2.825 . S
C906 C900 1.507 . S
C906 O919 1.238 . S
C906 O920 1.247 . S
O907 Tb896 2.347 . S
O907 C911 1.259 . S
O908 Eu897 2.418 . S
O908 C911 1.265 . S
O909 Eu897 2.384 . S
O909 C918 1.255 . S
O910 Tb896 2.366 . S
O910 C918 1.265 . S
C911 O907 1.259 . S
C911 O908 1.265 . S
O912 Eu897 2.479 . S
O912 C927 1.238 . S
O913 Eu897 2.471 . S
O913 C927 1.247 . S
O914 Eu897 2.347 . S
O914 C898 1.259 . S
O915 Tb896 2.418 . S
O915 C898 1.265 . S
O916 Tb896 2.384 . S
O916 C899 1.255 . S
O917 Eu897 2.366 . S
O917 C899 1.265 . S
C918 O909 1.255 . S
C918 O910 1.265 . S
O919 Tb896 2.479 . S
O919 C906 1.238 . S
O920 Tb896 2.471 . S
O920 C906 1.247 . S
C921 C924 1.380 . S
C921 C925 1.374 . S
C921 C927 1.507 . S
C922 C923 1.387 . S
C922 C926 1.391 . S
C923 C922 1.387 . S
C923 C924 1.384 . S
C923 H932 0.930 . S
C924 C921 1.380 . S
C924 C923 1.384 . S
C924 H933 0.931 . S
C925 C921 1.374 . S
C925 C926 1.390 . S
C925 H934 0.930 . S
C926 C922 1.391 . S
C926 C925 1.390 . S
C926 H935 0.930 . S
C927 Eu897 2.825 . S
C927 O912 1.238 . S
C927 O913 1.247 . S
C927 C921 1.507 . S
H928 C901 0.930 . S
H929 C902 0.931 . S
H930 C903 0.930 . S
H931 C904 0.930 . S
H932 C923 0.930 . S
H933 C924 0.931 . S
H934 C925 0.930 . S
H935 C926 0.930 . S
Tb936 C946 2.825 1_554 S
Tb936 O947 2.347 1_554 S
Tb936 O950 2.366 . S
Tb936 O955 2.418 . S
Tb936 O956 2.384 . S
Tb936 O959 2.479 . S
Tb936 O960 2.471 1_554 S
Eu937 O948 2.418 1_554 S
Eu937 O949 2.384 . S
Eu937 O952 2.479 . S
Eu937 O953 2.471 . S
Eu937 O954 2.347 . S
Eu937 O957 2.366 . S
Eu937 C967 2.825 . S
C938 O954 1.259 . S
C938 O955 1.265 . S
C939 O956 1.255 . S
C939 O957 1.265 . S
C940 C942 1.380 . S
C940 C943 1.374 . S
C940 C946 1.507 . S
C941 C942 1.384 . S
C941 C945 1.387 . S
C941 H968 0.930 . S
C942 C940 1.380 . S
C942 C941 1.384 . S
C942 H969 0.931 1_556 S
C943 C940 1.374 . S
C943 C944 1.390 . S
C943 H970 0.930 . S
C944 C943 1.390 . S
C944 C945 1.391 . S
C944 H971 0.930 . S
C945 C941 1.387 . S
C945 C944 1.391 . S
C946 Tb936 2.825 1_556 S
C946 C940 1.507 . S
C946 O959 1.238 1_556 S
C946 O960 1.247 . S
O947 Tb936 2.347 1_556 S
O947 C951 1.259 . S
O948 Eu937 2.418 1_556 S
O948 C951 1.265 . S
O949 Eu937 2.384 . S
O949 C958 1.255 . S
O950 Tb936 2.366 . S
O950 C958 1.265 . S
C951 O947 1.259 . S
C951 O948 1.265 . S
O952 Eu937 2.479 . S
O952 C967 1.238 . S
O953 Eu937 2.471 . S
O953 C967 1.247 . S
O954 Eu937 2.347 . S
O954 C938 1.259 . S
O955 Tb936 2.418 . S
O955 C938 1.265 . S
O956 Tb936 2.384 . S
O956 C939 1.255 . S
O957 Eu937 2.366 . S
O957 C939 1.265 . S
C958 O949 1.255 . S
C958 O950 1.265 . S
O959 Tb936 2.479 . S
O959 C946 1.238 1_554 S
O960 Tb936 2.471 1_556 S
O960 C946 1.247 . S
C961 C964 1.380 . S
C961 C965 1.374 . S
C961 C967 1.507 . S
C962 C963 1.387 . S
C962 C966 1.391 . S
C963 C962 1.387 . S
C963 C964 1.384 . S
C963 H972 0.930 . S
C964 C961 1.380 . S
C964 C963 1.384 . S
C964 H973 0.931 . S
C965 C961 1.374 . S
C965 C966 1.390 . S
C965 H974 0.930 . S
C966 C962 1.391 . S
C966 C965 1.390 . S
C966 H975 0.930 . S
C967 Eu937 2.825 . S
C967 O952 1.238 . S
C967 O953 1.247 . S
C967 C961 1.507 . S
H968 C941 0.930 . S
H969 C942 0.931 1_554 S
H970 C943 0.930 . S
H971 C944 0.930 . S
H972 C963 0.930 . S
H973 C964 0.931 . S
H974 C965 0.930 . S
H975 C966 0.930 . S
H976 C982 0.930 . S
H977 C985 0.930 . S
H978 C986 0.930 . S
H979 C987 0.930 1_554 S
H980 C990 0.930 . S
H981 C991 0.930 . S
C982 H976 0.930 . S
C982 C983 1.355 . S
C982 C984 1.415 . S
C983 C982 1.355 . S
C983 C985 1.419 1_455 S
C984 C982 1.415 . S
C984 C989 1.425 . S
C984 C991 1.409 . S
C985 H977 0.930 . S
C985 C983 1.419 1_655 S
C985 C986 1.362 . S
C986 H978 0.930 . S
C986 C985 1.362 . S
C986 C989 1.409 1_655 S
C987 H979 0.930 1_556 S
C987 C988 1.355 1_556 S
C987 C989 1.415 . S
C988 C987 1.355 1_554 S
C988 C990 1.419 1_554 S
C989 C984 1.425 . S
C989 C986 1.409 1_455 S
C989 C987 1.415 . S
C990 H980 0.930 . S
C990 C988 1.419 1_556 S
C990 C991 1.362 . S
C991 H981 0.930 . S
C991 C984 1.409 . S
C991 C990 1.362 . S
H992 C998 0.930 . S
H993 C1001 0.930 . S
H994 C1002 0.930 . S
H995 C1003 0.930 . S
H996 C1006 0.930 . S
H997 C1007 0.930 . S
C998 H992 0.930 . S
C998 C999 1.355 . S
C998 C1000 1.415 . S
C999 C998 1.355 . S
C999 C1001 1.419 . S
C1000 C998 1.415 . S
C1000 C1005 1.425 . S
C1000 C1007 1.409 . S
C1001 H993 0.930 . S
C1001 C999 1.419 . S
C1001 C1002 1.362 . S
C1002 H994 0.930 . S
C1002 C1001 1.362 . S
C1002 C1005 1.409 . S
C1003 H995 0.930 . S
C1003 C1004 1.355 . S
C1003 C1005 1.415 . S
C1004 C1003 1.355 . S
C1004 C1006 1.419 . S
C1005 C1000 1.425 . S
C1005 C1002 1.409 . S
C1005 C1003 1.415 . S
C1006 H996 0.930 . S
C1006 C1004 1.419 . S
C1006 C1007 1.362 . S
C1007 H997 0.930 . S
C1007 C1000 1.409 . S
C1007 C1006 1.362 . S
H1008 C1014 0.930 . S
H1009 C1017 0.930 . S
H1010 C1018 0.930 . S
H1011 C1019 0.930 . S
H1012 C1022 0.930 . S
H1013 C1023 0.930 . S
C1014 H1008 0.930 . S
C1014 C1015 1.355 . S
C1014 C1016 1.415 . S
C1015 C1014 1.355 . S
C1015 C1017 1.419 . S
C1016 C1014 1.415 . S
C1016 C1021 1.425 . S
C1016 C1023 1.409 . S
C1017 H1009 0.930 . S
C1017 C1015 1.419 . S
C1017 C1018 1.362 . S
C1018 H1010 0.930 . S
C1018 C1017 1.362 . S
C1018 C1021 1.409 . S
C1019 H1011 0.930 . S
C1019 C1020 1.355 . S
C1019 C1021 1.415 . S
C1020 C1019 1.355 . S
C1020 C1022 1.419 . S
C1021 C1016 1.425 . S
C1021 C1018 1.409 . S
C1021 C1019 1.415 . S
C1022 H1012 0.930 . S
C1022 C1020 1.419 . S
C1022 C1023 1.362 . S
C1023 H1013 0.930 . S
C1023 C1016 1.409 . S
C1023 C1022 1.362 . S
H1024 C1030 0.930 . S
H1025 C1033 0.930 . S
H1026 C1034 0.930 . S
H1027 C1035 0.930 . S
H1028 C1038 0.930 . S
H1029 C1039 0.930 . S
C1030 H1024 0.930 . S
C1030 C1031 1.355 . S
C1030 C1032 1.415 . S
C1031 C1030 1.355 . S
C1031 C1033 1.419 . S
C1032 C1030 1.415 . S
C1032 C1037 1.425 . S
C1032 C1039 1.409 . S
C1033 H1025 0.930 . S
C1033 C1031 1.419 . S
C1033 C1034 1.362 . S
C1034 H1026 0.930 . S
C1034 C1033 1.362 . S
C1034 C1037 1.409 . S
C1035 H1027 0.930 . S
C1035 C1036 1.355 . S
C1035 C1037 1.415 . S
C1036 C1035 1.355 . S
C1036 C1038 1.419 . S
C1037 C1032 1.425 . S
C1037 C1034 1.409 . S
C1037 C1035 1.415 . S
C1038 H1028 0.930 . S
C1038 C1036 1.419 . S
C1038 C1039 1.362 . S
C1039 H1029 0.930 . S
C1039 C1032 1.409 . S
C1039 C1038 1.362 . S
H1040 C1046 0.930 . S
H1041 C1049 0.930 . S
H1042 C1050 0.930 . S
H1043 C1051 0.930 . S
H1044 C1054 0.930 . S
H1045 C1055 0.930 . S
C1046 H1040 0.930 . S
C1046 C1047 1.355 . S
C1046 C1048 1.415 . S
C1047 C1046 1.355 . S
C1047 C1049 1.419 . S
C1048 C1046 1.415 . S
C1048 C1053 1.425 . S
C1048 C1055 1.409 . S
C1049 H1041 0.930 . S
C1049 C1047 1.419 . S
C1049 C1050 1.362 . S
C1050 H1042 0.930 . S
C1050 C1049 1.362 . S
C1050 C1053 1.409 . S
C1051 H1043 0.930 . S
C1051 C1052 1.355 . S
C1051 C1053 1.415 . S
C1052 C1051 1.355 . S
C1052 C1054 1.419 . S
C1053 C1048 1.425 . S
C1053 C1050 1.409 . S
C1053 C1051 1.415 . S
C1054 H1044 0.930 . S
C1054 C1052 1.419 . S
C1054 C1055 1.362 . S
C1055 H1045 0.930 . S
C1055 C1048 1.409 . S
C1055 C1054 1.362 . S
H1056 C1062 0.930 . S
H1057 C1065 0.930 . S
H1058 C1066 0.930 . S
H1059 C1067 0.930 . S
H1060 C1070 0.930 . S
H1061 C1071 0.930 . S
C1062 H1056 0.930 . S
C1062 C1063 1.355 . S
C1062 C1064 1.415 . S
C1063 C1062 1.355 . S
C1063 C1065 1.419 . S
C1064 C1062 1.415 . S
C1064 C1069 1.425 . S
C1064 C1071 1.409 . S
C1065 H1057 0.930 . S
C1065 C1063 1.419 . S
C1065 C1066 1.362 . S
C1066 H1058 0.930 . S
C1066 C1065 1.362 . S
C1066 C1069 1.409 . S
C1067 H1059 0.930 . S
C1067 C1068 1.355 . S
C1067 C1069 1.415 . S
C1068 C1067 1.355 . S
C1068 C1070 1.419 . S
C1069 C1064 1.425 . S
C1069 C1066 1.409 . S
C1069 C1067 1.415 . S
C1070 H1060 0.930 . S
C1070 C1068 1.419 . S
C1070 C1071 1.362 . S
C1071 H1061 0.930 . S
C1071 C1064 1.409 . S
C1071 C1070 1.362 . S
H1072 C1078 0.930 . S
H1073 C1081 0.930 . S
H1074 C1082 0.930 . S
H1075 C1083 0.930 . S
H1076 C1086 0.930 . S
H1077 C1087 0.930 . S
C1078 H1072 0.930 . S
C1078 C1079 1.355 . S
C1078 C1080 1.415 . S
C1079 C1078 1.355 . S
C1079 C1081 1.419 . S
C1080 C1078 1.415 . S
C1080 C1085 1.425 . S
C1080 C1087 1.409 . S
C1081 H1073 0.930 . S
C1081 C1079 1.419 . S
C1081 C1082 1.362 . S
C1082 H1074 0.930 . S
C1082 C1081 1.362 . S
C1082 C1085 1.409 . S
C1083 H1075 0.930 . S
C1083 C1084 1.355 . S
C1083 C1085 1.415 . S
C1084 C1083 1.355 . S
C1084 C1086 1.419 . S
C1085 C1080 1.425 . S
C1085 C1082 1.409 . S
C1085 C1083 1.415 . S
C1086 H1076 0.930 . S
C1086 C1084 1.419 . S
C1086 C1087 1.362 . S
C1087 H1077 0.930 . S
C1087 C1080 1.409 . S
C1087 C1086 1.362 . S
H1088 C1094 0.930 . S
H1089 C1097 0.930 . S
H1090 C1098 0.930 . S
H1091 C1099 0.930 . S
H1092 C1102 0.930 . S
H1093 C1103 0.930 . S
C1094 H1088 0.930 . S
C1094 C1095 1.355 . S
C1094 C1096 1.415 . S
C1095 C1094 1.355 . S
C1095 C1097 1.419 . S
C1096 C1094 1.415 . S
C1096 C1101 1.425 . S
C1096 C1103 1.409 . S
C1097 H1089 0.930 . S
C1097 C1095 1.419 . S
C1097 C1098 1.362 . S
C1098 H1090 0.930 . S
C1098 C1097 1.362 . S
C1098 C1101 1.409 . S
C1099 H1091 0.930 . S
C1099 C1100 1.355 . S
C1099 C1101 1.415 . S
C1100 C1099 1.355 . S
C1100 C1102 1.419 . S
C1101 C1096 1.425 . S
C1101 C1098 1.409 . S
C1101 C1099 1.415 . S
C1102 H1092 0.930 . S
C1102 C1100 1.419 . S
C1102 C1103 1.362 . S
C1103 H1093 0.930 . S
C1103 C1096 1.409 . S
C1103 C1102 1.362 . S
H1104 C1110 0.930 . S
H1105 C1113 0.930 . S
H1106 C1114 0.930 . S
H1107 C1115 0.930 . S
H1108 C1118 0.930 . S
H1109 C1119 0.930 . S
C1110 H1104 0.930 . S
C1110 C1111 1.355 . S
C1110 C1112 1.415 . S
C1111 C1110 1.355 . S
C1111 C1113 1.419 1_545 S
C1112 C1110 1.415 . S
C1112 C1117 1.425 . S
C1112 C1119 1.409 . S
C1113 H1105 0.930 . S
C1113 C1111 1.419 1_565 S
C1113 C1114 1.362 . S
C1114 H1106 0.930 . S
C1114 C1113 1.362 . S
C1114 C1117 1.409 1_565 S
C1115 H1107 0.930 . S
C1115 C1116 1.355 . S
C1115 C1117 1.415 1_455 S
C1116 C1115 1.355 . S
C1116 C1118 1.419 . S
C1117 C1112 1.425 . S
C1117 C1114 1.409 1_545 S
C1117 C1115 1.415 1_655 S
C1118 H1108 0.930 . S
C1118 C1116 1.419 . S
C1118 C1119 1.362 1_455 S
C1119 H1109 0.930 . S
C1119 C1112 1.409 . S
C1119 C1118 1.362 1_655 S
H1120 C1126 0.930 . S
H1121 C1129 0.930 . S
H1122 C1130 0.930 . S
H1123 C1131 0.930 . S
H1124 C1134 0.930 . S
H1125 C1135 0.930 . S
C1126 H1120 0.930 . S
C1126 C1127 1.355 . S
C1126 C1128 1.415 . S
C1127 C1126 1.355 . S
C1127 C1129 1.419 . S
C1128 C1126 1.415 . S
C1128 C1133 1.425 . S
C1128 C1135 1.409 . S
C1129 H1121 0.930 . S
C1129 C1127 1.419 . S
C1129 C1130 1.362 . S
C1130 H1122 0.930 . S
C1130 C1129 1.362 . S
C1130 C1133 1.409 . S
C1131 H1123 0.930 . S
C1131 C1132 1.355 . S
C1131 C1133 1.415 . S
C1132 C1131 1.355 . S
C1132 C1134 1.419 . S
C1133 C1128 1.425 . S
C1133 C1130 1.409 . S
C1133 C1131 1.415 . S
C1134 H1124 0.930 . S
C1134 C1132 1.419 . S
C1134 C1135 1.362 . S
C1135 H1125 0.930 . S
C1135 C1128 1.409 . S
C1135 C1134 1.362 . S
H1136 C1142 0.930 . S
H1137 C1145 0.930 . S
H1138 C1146 0.930 . S
H1139 C1147 0.930 . S
H1140 C1150 0.930 . S
H1141 C1151 0.930 . S
C1142 H1136 0.930 . S
C1142 C1143 1.355 . S
C1142 C1144 1.408 1_565 S
C1143 C1142 1.355 . S
C1143 C1145 1.419 1_565 S
C1144 C1142 1.408 1_545 S
C1144 C1149 1.432 . S
C1144 C1151 1.409 1_545 S
C1145 H1137 0.930 . S
C1145 C1143 1.419 1_545 S
C1145 C1146 1.362 . S
C1146 H1138 0.930 . S
C1146 C1145 1.362 . S
C1146 C1149 1.409 . S
C1147 H1139 0.930 . S
C1147 C1148 1.355 . S
C1147 C1149 1.415 . S
C1148 C1147 1.355 . S
C1148 C1150 1.419 . S
C1149 C1144 1.432 . S
C1149 C1146 1.409 . S
C1149 C1147 1.415 . S
C1150 H1140 0.930 . S
C1150 C1148 1.419 . S
C1150 C1151 1.362 1_545 S
C1151 H1141 0.930 . S
C1151 C1144 1.409 1_565 S
C1151 C1150 1.362 1_565 S
H1152 C1158 0.930 . S
H1153 C1161 0.930 . S
H1154 C1162 0.930 . S
H1155 C1163 0.930 . S
H1156 C1166 0.930 . S
H1157 C1167 0.930 . S
C1158 H1152 0.930 . S
C1158 C1159 1.355 . S
C1158 C1160 1.415 . S
C1159 C1158 1.355 . S
C1159 C1161 1.419 . S
C1160 C1158 1.415 . S
C1160 C1165 1.425 . S
C1160 C1167 1.409 . S
C1161 H1153 0.930 . S
C1161 C1159 1.419 . S
C1161 C1162 1.362 . S
C1162 H1154 0.930 . S
C1162 C1161 1.362 . S
C1162 C1165 1.409 . S
C1163 H1155 0.930 . S
C1163 C1164 1.355 . S
C1163 C1165 1.415 . S
C1164 C1163 1.355 . S
C1164 C1166 1.419 . S
C1165 C1160 1.425 . S
C1165 C1162 1.409 . S
C1165 C1163 1.415 . S
C1166 H1156 0.930 . S
C1166 C1164 1.419 . S
C1166 C1167 1.362 . S
C1167 H1157 0.930 . S
C1167 C1160 1.409 . S
C1167 C1166 1.362 . S
H1168 C1174 0.930 . S
H1169 C1177 0.930 . S
H1170 C1178 0.930 . S
H1171 C1179 0.930 . S
H1172 C1182 0.930 . S
H1173 C1183 0.919 1_465 S
C1174 H1168 0.930 . S
C1174 C1175 1.345 1_565 S
C1174 C1176 1.415 1_565 S
C1175 C1174 1.345 1_545 S
C1175 C1177 1.436 . S
C1176 C1174 1.415 1_545 S
C1176 C1181 1.425 . S
C1176 C1183 1.409 . S
C1177 H1169 0.930 . S
C1177 C1175 1.436 . S
C1177 C1178 1.362 . S
C1178 H1170 0.930 . S
C1178 C1177 1.362 . S
C1178 C1181 1.409 . S
C1179 H1171 0.930 . S
C1179 C1180 1.355 . S
C1179 C1181 1.415 . S
C1180 C1179 1.355 . S
C1180 C1182 1.419 1_655 S
C1181 C1176 1.425 . S
C1181 C1178 1.409 . S
C1181 C1179 1.415 . S
C1182 H1172 0.930 . S
C1182 C1180 1.419 1_455 S
C1182 C1183 1.362 1_455 S
C1183 H1173 0.919 1_645 S
C1183 C1176 1.409 . S
C1183 C1182 1.362 1_655 S
H1184 C1190 0.930 . S
H1185 C1193 0.930 . S
H1186 C1194 0.930 . S
H1187 C1195 0.930 . S
H1188 C1198 0.930 . S
H1189 C1199 0.930 . S
C1190 H1184 0.930 . S
C1190 C1191 1.355 . S
C1190 C1192 1.415 . S
C1191 C1190 1.355 . S
C1191 C1193 1.419 . S
C1192 C1190 1.415 . S
C1192 C1197 1.425 . S
C1192 C1199 1.409 . S
C1193 H1185 0.930 . S
C1193 C1191 1.419 . S
C1193 C1194 1.362 . S
C1194 H1186 0.930 . S
C1194 C1193 1.362 . S
C1194 C1197 1.409 . S
C1195 H1187 0.930 . S
C1195 C1196 1.355 . S
C1195 C1197 1.415 . S
C1196 C1195 1.355 . S
C1196 C1198 1.419 . S
C1197 C1192 1.425 . S
C1197 C1194 1.409 . S
C1197 C1195 1.415 . S
C1198 H1188 0.930 . S
C1198 C1196 1.419 . S
C1198 C1199 1.362 . S
C1199 H1189 0.930 . S
C1199 C1192 1.409 . S
C1199 C1198 1.362 . S
H1200 C1206 0.930 . S
H1201 C1209 0.930 . S
H1202 C1210 0.913 1_565 S
H1203 C1211 0.930 . S
H1204 C1214 0.930 . S
H1205 C1215 0.930 . S
C1206 H1200 0.930 . S
C1206 C1207 1.389 . S
C1206 C1208 1.415 . S
C1207 C1206 1.389 . S
C1207 C1209 1.406 1_545 S
C1208 C1206 1.415 . S
C1208 C1213 1.425 . S
C1208 C1215 1.409 . S
C1209 H1201 0.930 . S
C1209 C1207 1.406 1_565 S
C1209 C1210 1.362 1_565 S
C1210 H1202 0.913 1_545 S
C1210 C1209 1.362 1_545 S
C1210 C1213 1.409 . S
C1211 H1203 0.930 . S
C1211 C1212 1.355 . S
C1211 C1213 1.415 . S
C1212 C1211 1.355 . S
C1212 C1214 1.419 . S
C1213 C1208 1.425 . S
C1213 C1210 1.409 . S
C1213 C1211 1.415 . S
C1214 H1204 0.930 . S
C1214 C1212 1.419 . S
C1214 C1215 1.362 . S
C1215 H1205 0.930 . S
C1215 C1208 1.409 . S
C1215 C1214 1.362 . S
H1216 C1222 0.930 . S
H1217 C1225 0.930 . S
H1218 C1226 0.930 . S
H1219 C1227 0.930 . S
H1220 C1230 0.930 . S
H1221 C1231 0.930 . S
C1222 H1216 0.930 . S
C1222 C1223 1.355 . S
C1222 C1224 1.415 . S
C1223 C1222 1.355 . S
C1223 C1225 1.419 . S
C1224 C1222 1.415 . S
C1224 C1229 1.425 . S
C1224 C1231 1.409 . S
C1225 H1217 0.930 . S
C1225 C1223 1.419 . S
C1225 C1226 1.362 . S
C1226 H1218 0.930 . S
C1226 C1225 1.362 . S
C1226 C1229 1.409 . S
C1227 H1219 0.930 . S
C1227 C1228 1.355 . S
C1227 C1229 1.415 . S
C1228 C1227 1.355 . S
C1228 C1230 1.419 . S
C1229 C1224 1.425 . S
C1229 C1226 1.409 . S
C1229 C1227 1.415 . S
C1230 H1220 0.930 . S
C1230 C1228 1.419 . S
C1230 C1231 1.362 . S
C1231 H1221 0.930 . S
C1231 C1224 1.409 . S
C1231 C1230 1.362 . S
H1232 C1238 0.930 . S
H1233 C1241 0.930 . S
H1234 C1242 0.930 . S
H1235 C1243 0.930 . S
H1236 C1246 0.930 . S
H1237 C1247 0.930 1_545 S
C1238 H1232 0.930 . S
C1238 C1239 1.355 . S
C1238 C1240 1.415 . S
C1239 C1238 1.355 . S
C1239 C1241 1.419 . S
C1240 C1238 1.415 . S
C1240 C1245 1.425 . S
C1240 C1247 1.409 . S
C1241 H1233 0.930 . S
C1241 C1239 1.419 . S
C1241 C1242 1.362 . S
C1242 H1234 0.930 . S
C1242 C1241 1.362 . S
C1242 C1245 1.409 . S
C1243 H1235 0.930 . S
C1243 C1244 1.355 . S
C1243 C1245 1.415 . S
C1244 C1243 1.355 . S
C1244 C1246 1.419 1_565 S
C1245 C1240 1.425 . S
C1245 C1242 1.409 . S
C1245 C1243 1.415 . S
C1246 H1236 0.930 . S
C1246 C1244 1.419 1_545 S
C1246 C1247 1.362 1_545 S
C1247 H1237 0.930 1_565 S
C1247 C1240 1.409 . S
C1247 C1246 1.362 1_565 S
H1248 C1254 0.930 . S
H1249 C1257 0.930 1_556 S
H1250 C1258 0.930 1_556 S
H1251 C1259 0.930 . S
H1252 C1262 0.930 . S
H1253 C1263 0.930 . S
C1254 H1248 0.930 . S
C1254 C1255 1.355 . S
C1254 C1256 1.415 . S
C1255 C1254 1.355 . S
C1255 C1257 1.419 . S
C1256 C1254 1.415 . S
C1256 C1261 1.425 . S
C1256 C1263 1.409 . S
C1257 H1249 0.930 1_554 S
C1257 C1255 1.419 . S
C1257 C1258 1.362 . S
C1258 H1250 0.930 1_554 S
C1258 C1257 1.362 . S
C1258 C1261 1.409 . S
C1259 H1251 0.930 . S
C1259 C1260 1.355 . S
C1259 C1261 1.415 . S
C1260 C1259 1.355 . S
C1260 C1262 1.419 . S
C1261 C1256 1.425 . S
C1261 C1258 1.409 . S
C1261 C1259 1.415 . S
C1262 H1252 0.930 . S
C1262 C1260 1.419 . S
C1262 C1263 1.362 . S
C1263 H1253 0.930 . S
C1263 C1256 1.409 . S
C1263 C1262 1.362 . S
H1264 C1270 0.930 . S
H1265 C1273 0.930 . S
H1266 C1274 0.930 . S
H1267 C1275 0.930 . S
H1268 C1278 0.930 . S
H1269 C1279 0.930 . S
C1270 H1264 0.930 . S
C1270 C1271 1.355 . S
C1270 C1272 1.415 . S
C1271 C1270 1.355 . S
C1271 C1273 1.419 . S
C1272 C1270 1.415 . S
C1272 C1277 1.425 . S
C1272 C1279 1.409 . S
C1273 H1265 0.930 . S
C1273 C1271 1.419 . S
C1273 C1274 1.362 . S
C1274 H1266 0.930 . S
C1274 C1273 1.362 . S
C1274 C1277 1.409 . S
C1275 H1267 0.930 . S
C1275 C1276 1.355 . S
C1275 C1277 1.415 . S
C1276 C1275 1.355 . S
C1276 C1278 1.419 . S
C1277 C1272 1.425 . S
C1277 C1274 1.409 . S
C1277 C1275 1.415 . S
C1278 H1268 0.930 . S
C1278 C1276 1.419 . S
C1278 C1279 1.362 . S
C1279 H1269 0.930 . S
C1279 C1272 1.409 . S
C1279 C1278 1.362 . S
H1280 C1286 0.930 . S
H1281 C1289 0.930 . S
H1282 C1290 0.930 . S
H1283 C1291 0.930 . S
H1284 C1294 0.930 1_455 S
H1285 C1295 0.930 . S
C1286 H1280 0.930 . S
C1286 C1287 1.355 . S
C1286 C1288 1.415 . S
C1287 C1286 1.355 . S
C1287 C1289 1.419 . S
C1288 C1286 1.415 . S
C1288 C1293 1.425 . S
C1288 C1295 1.409 . S
C1289 H1281 0.930 . S
C1289 C1287 1.419 . S
C1289 C1290 1.362 . S
C1290 H1282 0.930 . S
C1290 C1289 1.362 . S
C1290 C1293 1.409 . S
C1291 H1283 0.930 . S
C1291 C1292 1.355 . S
C1291 C1293 1.415 . S
C1292 C1291 1.355 . S
C1292 C1294 1.419 . S
C1293 C1288 1.425 . S
C1293 C1290 1.409 . S
C1293 C1291 1.415 . S
C1294 H1284 0.930 1_655 S
C1294 C1292 1.419 . S
C1294 C1295 1.362 . S
C1295 H1285 0.930 . S
C1295 C1288 1.409 . S
C1295 C1294 1.362 . S
H1296 C1302 0.930 . S
H1297 C1305 0.930 . S
H1298 C1306 0.930 . S
H1299 C1307 0.930 . S
H1300 C1310 0.930 . S
H1301 C1311 0.930 . S
C1302 H1296 0.930 . S
C1302 C1303 1.355 . S
C1302 C1304 1.415 . S
C1303 C1302 1.355 . S
C1303 C1305 1.419 . S
C1304 C1302 1.415 . S
C1304 C1309 1.425 . S
C1304 C1311 1.409 . S
C1305 H1297 0.930 . S
C1305 C1303 1.419 . S
C1305 C1306 1.362 . S
C1306 H1298 0.930 . S
C1306 C1305 1.362 . S
C1306 C1309 1.409 . S
C1307 H1299 0.930 . S
C1307 C1308 1.355 . S
C1307 C1309 1.415 . S
C1308 C1307 1.355 . S
C1308 C1310 1.419 . S
C1309 C1304 1.425 . S
C1309 C1306 1.409 . S
C1309 C1307 1.415 . S
C1310 H1300 0.930 . S
C1310 C1308 1.419 . S
C1310 C1311 1.362 . S
C1311 H1301 0.930 . S
C1311 C1304 1.409 . S
C1311 C1310 1.362 . S
H1312 C1318 0.930 . S
H1313 C1321 0.930 . S
H1314 C1322 0.930 . S
H1315 C1323 0.930 . S
H1316 C1326 0.930 . S
H1317 C1327 0.930 . S
C1318 H1312 0.930 . S
C1318 C1319 1.355 . S
C1318 C1320 1.415 . S
C1319 C1318 1.355 . S
C1319 C1321 1.419 . S
C1320 C1318 1.415 . S
C1320 C1325 1.425 . S
C1320 C1327 1.409 . S
C1321 H1313 0.930 . S
C1321 C1319 1.419 . S
C1321 C1322 1.362 . S
C1322 H1314 0.930 . S
C1322 C1321 1.362 . S
C1322 C1325 1.409 . S
C1323 H1315 0.930 . S
C1323 C1324 1.355 . S
C1323 C1325 1.415 . S
C1324 C1323 1.355 . S
C1324 C1326 1.419 . S
C1325 C1320 1.425 . S
C1325 C1322 1.409 . S
C1325 C1323 1.415 . S
C1326 H1316 0.930 . S
C1326 C1324 1.419 . S
C1326 C1327 1.362 . S
C1327 H1317 0.930 . S
C1327 C1320 1.409 . S
C1327 C1326 1.362 . S
H1328 C1334 0.930 . S
H1329 C1337 0.930 . S
H1330 C1338 0.930 . S
H1331 C1339 0.930 . S
H1332 C1342 0.930 . S
H1333 C1343 0.930 . S
C1334 H1328 0.930 . S
C1334 C1335 1.355 . S
C1334 C1336 1.415 . S
C1335 C1334 1.355 . S
C1335 C1337 1.419 . S
C1336 C1334 1.415 . S
C1336 C1341 1.425 . S
C1336 C1343 1.409 . S
C1337 H1329 0.930 . S
C1337 C1335 1.419 . S
C1337 C1338 1.362 . S
C1338 H1330 0.930 . S
C1338 C1337 1.362 . S
C1338 C1341 1.409 . S
C1339 H1331 0.930 . S
C1339 C1340 1.355 . S
C1339 C1341 1.415 . S
C1340 C1339 1.355 . S
C1340 C1342 1.419 . S
C1341 C1336 1.425 . S
C1341 C1338 1.409 . S
C1341 C1339 1.415 . S
C1342 H1332 0.930 . S
C1342 C1340 1.419 . S
C1342 C1343 1.362 . S
C1343 H1333 0.930 . S
C1343 C1336 1.409 . S
C1343 C1342 1.362 . S
H1344 C1350 0.930 . S
H1345 C1353 0.930 . S
H1346 C1354 0.930 . S
H1347 C1355 0.930 . S
H1348 C1358 0.930 . S
H1349 C1359 0.930 . S
C1350 H1344 0.930 . S
C1350 C1351 1.355 . S
C1350 C1352 1.415 . S
C1351 C1350 1.355 . S
C1351 C1353 1.419 . S
C1352 C1350 1.415 . S
C1352 C1357 1.425 . S
C1352 C1359 1.409 . S
C1353 H1345 0.930 . S
C1353 C1351 1.419 . S
C1353 C1354 1.362 . S
C1354 H1346 0.930 . S
C1354 C1353 1.362 . S
C1354 C1357 1.409 . S
C1355 H1347 0.930 . S
C1355 C1356 1.355 . S
C1355 C1357 1.415 . S
C1356 C1355 1.355 . S
C1356 C1358 1.419 . S
C1357 C1352 1.425 . S
C1357 C1354 1.409 . S
C1357 C1355 1.415 . S
C1358 H1348 0.930 . S
C1358 C1356 1.419 . S
C1358 C1359 1.362 . S
C1359 H1349 0.930 . S
C1359 C1352 1.409 . S
C1359 C1358 1.362 . S
H1360 C1366 0.930 . S
H1361 C1369 0.930 . S
H1362 C1370 0.930 . S
H1363 C1371 0.930 . S
H1364 C1374 0.930 . S
H1365 C1375 0.930 . S
C1366 H1360 0.930 . S
C1366 C1367 1.355 . S
C1366 C1368 1.415 . S
C1367 C1366 1.355 . S
C1367 C1369 1.419 . S
C1368 C1366 1.415 . S
C1368 C1373 1.425 . S
C1368 C1375 1.409 . S
C1369 H1361 0.930 . S
C1369 C1367 1.419 . S
C1369 C1370 1.362 . S
C1370 H1362 0.930 . S
C1370 C1369 1.362 . S
C1370 C1373 1.409 . S
C1371 H1363 0.930 . S
C1371 C1372 1.355 . S
C1371 C1373 1.415 . S
C1372 C1371 1.355 . S
C1372 C1374 1.419 . S
C1373 C1368 1.425 . S
C1373 C1370 1.409 . S
C1373 C1371 1.415 . S
C1374 H1364 0.930 . S
C1374 C1372 1.419 . S
C1374 C1375 1.362 . S
C1375 H1365 0.930 . S
C1375 C1368 1.409 . S
C1375 C1374 1.362 . S
H1376 C1382 0.930 . S
H1377 C1385 0.930 . S
H1378 C1386 0.930 . S
H1379 C1387 0.930 . S
H1380 C1390 0.930 . S
H1381 C1391 0.930 . S
C1382 H1376 0.930 . S
C1382 C1383 1.355 . S
C1382 C1384 1.415 . S
C1383 C1382 1.355 . S
C1383 C1385 1.419 . S
C1384 C1382 1.415 . S
C1384 C1389 1.425 . S
C1384 C1391 1.409 . S
C1385 H1377 0.930 . S
C1385 C1383 1.419 . S
C1385 C1386 1.362 . S
C1386 H1378 0.930 . S
C1386 C1385 1.362 . S
C1386 C1389 1.409 . S
C1387 H1379 0.930 . S
C1387 C1388 1.355 . S
C1387 C1389 1.415 . S
C1388 C1387 1.355 . S
C1388 C1390 1.419 . S
C1389 C1384 1.425 . S
C1389 C1386 1.409 . S
C1389 C1387 1.415 . S
C1390 H1380 0.930 . S
C1390 C1388 1.419 . S
C1390 C1391 1.362 . S
C1391 H1381 0.930 . S
C1391 C1384 1.409 . S
C1391 C1390 1.362 . S
H1392 C1398 0.930 . S
H1393 C1401 0.930 . S
H1394 C1402 0.930 . S
H1395 C1403 0.930 . S
H1396 C1406 0.930 . S
H1397 C1407 0.930 . S
C1398 H1392 0.930 . S
C1398 C1399 1.355 . S
C1398 C1400 1.415 . S
C1399 C1398 1.355 . S
C1399 C1401 1.419 . S
C1400 C1398 1.415 . S
C1400 C1405 1.425 . S
C1400 C1407 1.409 . S
C1401 H1393 0.930 . S
C1401 C1399 1.419 . S
C1401 C1402 1.362 . S
C1402 H1394 0.930 . S
C1402 C1401 1.362 . S
C1402 C1405 1.409 . S
C1403 H1395 0.930 . S
C1403 C1404 1.355 . S
C1403 C1405 1.415 . S
C1404 C1403 1.355 . S
C1404 C1406 1.419 . S
C1405 C1400 1.425 . S
C1405 C1402 1.409 . S
C1405 C1403 1.415 . S
C1406 H1396 0.930 . S
C1406 C1404 1.419 . S
C1406 C1407 1.362 . S
C1407 H1397 0.930 . S
C1407 C1400 1.409 . S
C1407 C1406 1.362 . S
H1408 C1414 0.930 . S
H1409 C1417 0.930 . S
H1410 C1418 0.930 . S
H1411 C1419 0.930 . S
H1412 C1422 0.930 . S
H1413 C1423 0.930 . S
C1414 H1408 0.930 . S
C1414 C1415 1.355 . S
C1414 C1416 1.415 . S
C1415 C1414 1.355 . S
C1415 C1417 1.419 . S
C1416 C1414 1.415 . S
C1416 C1421 1.425 . S
C1416 C1423 1.409 . S
C1417 H1409 0.930 . S
C1417 C1415 1.419 . S
C1417 C1418 1.362 . S
C1418 H1410 0.930 . S
C1418 C1417 1.362 . S
C1418 C1421 1.409 . S
C1419 H1411 0.930 . S
C1419 C1420 1.355 . S
C1419 C1421 1.415 . S
C1420 C1419 1.355 . S
C1420 C1422 1.419 . S
C1421 C1416 1.425 . S
C1421 C1418 1.409 . S
C1421 C1419 1.415 . S
C1422 H1412 0.930 . S
C1422 C1420 1.419 . S
C1422 C1423 1.362 . S
C1423 H1413 0.930 . S
C1423 C1416 1.409 . S
C1423 C1422 1.362 . S
H1424 C1430 0.930 . S
H1425 C1433 0.930 . S
H1426 C1434 0.930 . S
H1427 C1435 0.930 . S
H1428 C1438 0.930 . S
H1429 C1439 0.930 . S
C1430 H1424 0.930 . S
C1430 C1431 1.355 . S
C1430 C1432 1.415 . S
C1431 C1430 1.355 . S
C1431 C1433 1.419 . S
C1432 C1430 1.415 . S
C1432 C1437 1.425 . S
C1432 C1439 1.409 . S
C1433 H1425 0.930 . S
C1433 C1431 1.419 . S
C1433 C1434 1.362 . S
C1434 H1426 0.930 . S
C1434 C1433 1.362 . S
C1434 C1437 1.409 . S
C1435 H1427 0.930 . S
C1435 C1436 1.355 . S
C1435 C1437 1.415 . S
C1436 C1435 1.355 . S
C1436 C1438 1.419 . S
C1437 C1432 1.425 . S
C1437 C1434 1.409 . S
C1437 C1435 1.415 . S
C1438 H1428 0.930 . S
C1438 C1436 1.419 . S
C1438 C1439 1.362 . S
C1439 H1429 0.930 . S
C1439 C1432 1.409 . S
C1439 C1438 1.362 . S
H1440 C1446 0.930 . S
H1441 C1449 0.930 . S
H1442 C1450 0.930 . S
H1443 C1451 0.930 . S
H1444 C1454 0.930 . S
H1445 C1455 0.930 . S
C1446 H1440 0.930 . S
C1446 C1447 1.355 . S
C1446 C1448 1.415 . S
C1447 C1446 1.355 . S
C1447 C1449 1.419 . S
C1448 C1446 1.415 . S
C1448 C1453 1.425 . S
C1448 C1455 1.409 . S
C1449 H1441 0.930 . S
C1449 C1447 1.419 . S
C1449 C1450 1.362 . S
C1450 H1442 0.930 . S
C1450 C1449 1.362 . S
C1450 C1453 1.409 . S
C1451 H1443 0.930 . S
C1451 C1452 1.355 . S
C1451 C1453 1.415 . S
C1452 C1451 1.355 . S
C1452 C1454 1.419 . S
C1453 C1448 1.425 . S
C1453 C1450 1.409 . S
C1453 C1451 1.415 . S
C1454 H1444 0.930 . S
C1454 C1452 1.419 . S
C1454 C1455 1.362 . S
C1455 H1445 0.930 . S
C1455 C1448 1.409 . S
C1455 C1454 1.362 . S
H1456 C1462 0.930 . S
H1457 C1465 0.930 . S
H1458 C1466 0.930 . S
H1459 C1467 0.930 . S
H1460 C1470 0.930 . S
H1461 C1471 0.952 . S
C1462 H1456 0.930 . S
C1462 C1463 1.355 . S
C1462 C1464 1.415 . S
C1463 C1462 1.355 . S
C1463 C1465 1.419 . S
C1464 C1462 1.415 . S
C1464 C1469 1.425 . S
C1464 C1471 1.382 1_556 S
C1465 H1457 0.930 . S
C1465 C1463 1.419 . S
C1465 C1466 1.362 . S
C1466 H1458 0.930 . S
C1466 C1465 1.362 . S
C1466 C1469 1.409 . S
C1467 H1459 0.930 . S
C1467 C1468 1.355 . S
C1467 C1469 1.415 . S
C1468 C1467 1.355 . S
C1468 C1470 1.419 1_556 S
C1469 C1464 1.425 . S
C1469 C1466 1.409 . S
C1469 C1467 1.415 . S
C1470 H1460 0.930 . S
C1470 C1468 1.419 1_554 S
C1470 C1471 1.369 . S
C1471 H1461 0.952 . S
C1471 C1464 1.382 1_554 S
C1471 C1470 1.369 . S
H1472 C1478 0.930 . S
H1473 C1481 0.930 . S
H1474 C1482 0.930 . S
H1475 C1483 0.930 . S
H1476 C1486 0.930 . S
H1477 C1487 0.930 . S
C1478 H1472 0.930 . S
C1478 C1479 1.355 . S
C1478 C1480 1.415 . S
C1479 C1478 1.355 . S
C1479 C1481 1.419 . S
C1480 C1478 1.415 . S
C1480 C1485 1.425 . S
C1480 C1487 1.409 . S
C1481 H1473 0.930 . S
C1481 C1479 1.419 . S
C1481 C1482 1.362 . S
C1482 H1474 0.930 . S
C1482 C1481 1.362 . S
C1482 C1485 1.409 . S
C1483 H1475 0.930 . S
C1483 C1484 1.355 . S
C1483 C1485 1.415 . S
C1484 C1483 1.355 . S
C1484 C1486 1.419 . S
C1485 C1480 1.425 . S
C1485 C1482 1.409 . S
C1485 C1483 1.415 . S
C1486 H1476 0.930 . S
C1486 C1484 1.419 . S
C1486 C1487 1.362 . S
C1487 H1477 0.930 . S
C1487 C1480 1.409 . S
C1487 C1486 1.362 . S
H1488 C1494 0.930 . S
H1489 C1497 0.930 . S
H1490 C1498 0.930 . S
H1491 C1499 0.930 . S
H1492 C1502 0.930 . S
H1493 C1503 0.930 . S
C1494 H1488 0.930 . S
C1494 C1495 1.355 . S
C1494 C1496 1.415 . S
C1495 C1494 1.355 . S
C1495 C1497 1.419 . S
C1496 C1494 1.415 . S
C1496 C1501 1.425 . S
C1496 C1503 1.409 . S
C1497 H1489 0.930 . S
C1497 C1495 1.419 . S
C1497 C1498 1.362 . S
C1498 H1490 0.930 . S
C1498 C1497 1.362 . S
C1498 C1501 1.409 . S
C1499 H1491 0.930 . S
C1499 C1500 1.355 . S
C1499 C1501 1.415 . S
C1500 C1499 1.355 . S
C1500 C1502 1.419 . S
C1501 C1496 1.425 . S
C1501 C1498 1.409 . S
C1501 C1499 1.415 . S
C1502 H1492 0.930 . S
C1502 C1500 1.419 . S
C1502 C1503 1.362 . S
C1503 H1493 0.930 . S
C1503 C1496 1.409 . S
C1503 C1502 1.362 . S
H1504 C1510 0.930 . S
H1505 C1513 0.930 . S
H1506 C1514 0.930 . S
H1507 C1515 0.930 . S
H1508 C1518 0.930 . S
H1509 C1519 0.930 . S
C1510 H1504 0.930 . S
C1510 C1511 1.355 . S
C1510 C1512 1.415 . S
C1511 C1510 1.355 . S
C1511 C1513 1.419 . S
C1512 C1510 1.415 . S
C1512 C1517 1.425 . S
C1512 C1519 1.409 . S
C1513 H1505 0.930 . S
C1513 C1511 1.419 . S
C1513 C1514 1.362 . S
C1514 H1506 0.930 . S
C1514 C1513 1.362 . S
C1514 C1517 1.409 . S
C1515 H1507 0.930 . S
C1515 C1516 1.355 . S
C1515 C1517 1.415 . S
C1516 C1515 1.355 . S
C1516 C1518 1.419 . S
C1517 C1512 1.425 . S
C1517 C1514 1.409 . S
C1517 C1515 1.415 . S
C1518 H1508 0.930 . S
C1518 C1516 1.419 . S
C1518 C1519 1.362 . S
C1519 H1509 0.930 . S
C1519 C1512 1.409 . S
C1519 C1518 1.362 . S
H1520 C1526 0.930 . S
H1521 C1529 0.930 . S
H1522 C1530 0.930 . S
H1523 C1531 0.930 . S
H1524 C1534 0.930 . S
H1525 C1535 0.930 . S
C1526 H1520 0.930 . S
C1526 C1527 1.355 . S
C1526 C1528 1.415 . S
C1527 C1526 1.355 . S
C1527 C1529 1.419 . S
C1528 C1526 1.415 . S
C1528 C1533 1.425 . S
C1528 C1535 1.409 . S
C1529 H1521 0.930 . S
C1529 C1527 1.419 . S
C1529 C1530 1.362 . S
C1530 H1522 0.930 . S
C1530 C1529 1.362 . S
C1530 C1533 1.409 . S
C1531 H1523 0.930 . S
C1531 C1532 1.355 . S
C1531 C1533 1.415 . S
C1532 C1531 1.355 . S
C1532 C1534 1.419 . S
C1533 C1528 1.425 . S
C1533 C1530 1.409 . S
C1533 C1531 1.415 . S
C1534 H1524 0.930 . S
C1534 C1532 1.419 . S
C1534 C1535 1.362 . S
C1535 H1525 0.930 . S
C1535 C1528 1.409 . S
C1535 C1534 1.362 . S
H1536 C1542 0.930 . S
H1537 C1545 0.930 . S
H1538 C1546 0.930 . S
H1539 C1547 0.930 . S
H1540 C1550 0.930 . S
H1541 C1551 0.930 . S
C1542 H1536 0.930 . S
C1542 C1543 1.355 . S
C1542 C1544 1.415 . S
C1543 C1542 1.355 . S
C1543 C1545 1.419 . S
C1544 C1542 1.415 . S
C1544 C1549 1.425 . S
C1544 C1551 1.409 . S
C1545 H1537 0.930 . S
C1545 C1543 1.419 . S
C1545 C1546 1.362 . S
C1546 H1538 0.930 . S
C1546 C1545 1.362 . S
C1546 C1549 1.409 . S
C1547 H1539 0.930 . S
C1547 C1548 1.355 . S
C1547 C1549 1.415 . S
C1548 C1547 1.355 . S
C1548 C1550 1.419 . S
C1549 C1544 1.425 . S
C1549 C1546 1.409 . S
C1549 C1547 1.415 . S
C1550 H1540 0.930 . S
C1550 C1548 1.419 . S
C1550 C1551 1.362 . S
C1551 H1541 0.930 . S
C1551 C1544 1.409 . S
C1551 C1550 1.362 . S
H1552 C1558 0.930 . S
H1553 C1561 0.930 . S
H1554 C1562 0.930 . S
H1555 C1563 0.930 . S
H1556 C1566 0.930 . S
H1557 C1567 0.930 . S
C1558 H1552 0.930 . S
C1558 C1559 1.355 . S
C1558 C1560 1.415 . S
C1559 C1558 1.355 . S
C1559 C1561 1.419 . S
C1560 C1558 1.415 . S
C1560 C1565 1.425 . S
C1560 C1567 1.409 . S
C1561 H1553 0.930 . S
C1561 C1559 1.419 . S
C1561 C1562 1.362 . S
C1562 H1554 0.930 . S
C1562 C1561 1.362 . S
C1562 C1565 1.409 . S
C1563 H1555 0.930 . S
C1563 C1564 1.355 . S
C1563 C1565 1.415 . S
C1564 C1563 1.355 . S
C1564 C1566 1.419 . S
C1565 C1560 1.425 . S
C1565 C1562 1.409 . S
C1565 C1563 1.415 . S
C1566 H1556 0.930 . S
C1566 C1564 1.419 . S
C1566 C1567 1.362 . S
C1567 H1557 0.930 . S
C1567 C1560 1.409 . S
C1567 C1566 1.362 . S
H1568 C1574 0.930 . S
H1569 C1577 0.930 . S
H1570 C1578 0.930 . S
H1571 C1579 0.930 . S
H1572 C1582 0.930 . S
H1573 C1583 0.930 . S
C1574 H1568 0.930 . S
C1574 C1575 1.355 . S
C1574 C1576 1.415 . S
C1575 C1574 1.355 . S
C1575 C1577 1.419 . S
C1576 C1574 1.415 . S
C1576 C1581 1.425 . S
C1576 C1583 1.409 . S
C1577 H1569 0.930 . S
C1577 C1575 1.419 . S
C1577 C1578 1.362 . S
C1578 H1570 0.930 . S
C1578 C1577 1.362 . S
C1578 C1581 1.409 . S
C1579 H1571 0.930 . S
C1579 C1580 1.355 . S
C1579 C1581 1.415 . S
C1580 C1579 1.355 . S
C1580 C1582 1.419 . S
C1581 C1576 1.425 . S
C1581 C1578 1.409 . S
C1581 C1579 1.415 . S
C1582 H1572 0.930 . S
C1582 C1580 1.419 . S
C1582 C1583 1.362 . S
C1583 H1573 0.930 . S
C1583 C1576 1.409 . S
C1583 C1582 1.362 . S
H1584 C1590 0.930 . S
H1585 C1593 0.930 . S
H1586 C1594 0.930 . S
H1587 C1595 0.930 . S
H1588 C1598 0.930 . S
H1589 C1599 0.930 . S
C1590 H1584 0.930 . S
C1590 C1591 1.355 . S
C1590 C1592 1.415 . S
C1591 C1590 1.355 . S
C1591 C1593 1.419 . S
C1592 C1590 1.415 . S
C1592 C1597 1.425 . S
C1592 C1599 1.409 . S
C1593 H1585 0.930 . S
C1593 C1591 1.419 . S
C1593 C1594 1.362 . S
C1594 H1586 0.930 . S
C1594 C1593 1.362 . S
C1594 C1597 1.409 . S
C1595 H1587 0.930 . S
C1595 C1596 1.355 . S
C1595 C1597 1.415 . S
C1596 C1595 1.355 . S
C1596 C1598 1.419 . S
C1597 C1592 1.425 . S
C1597 C1594 1.409 . S
C1597 C1595 1.415 . S
C1598 H1588 0.930 . S
C1598 C1596 1.419 . S
C1598 C1599 1.362 . S
C1599 H1589 0.930 . S
C1599 C1592 1.409 . S
C1599 C1598 1.362 . S
H1600 C1606 0.930 . S
H1601 C1609 0.930 . S
H1602 C1610 0.930 . S
H1603 C1611 0.930 . S
H1604 C1614 0.930 . S
H1605 C1615 0.930 . S
C1606 H1600 0.930 . S
C1606 C1607 1.355 . S
C1606 C1608 1.415 . S
C1607 C1606 1.355 . S
C1607 C1609 1.419 . S
C1608 C1606 1.415 . S
C1608 C1613 1.425 . S
C1608 C1615 1.409 . S
C1609 H1601 0.930 . S
C1609 C1607 1.419 . S
C1609 C1610 1.362 . S
C1610 H1602 0.930 . S
C1610 C1609 1.362 . S
C1610 C1613 1.409 . S
C1611 H1603 0.930 . S
C1611 C1612 1.355 . S
C1611 C1613 1.415 . S
C1612 C1611 1.355 . S
C1612 C1614 1.419 . S
C1613 C1608 1.425 . S
C1613 C1610 1.409 . S
C1613 C1611 1.415 . S
C1614 H1604 0.930 . S
C1614 C1612 1.419 . S
C1614 C1615 1.362 . S
C1615 H1605 0.930 . S
C1615 C1608 1.409 . S
C1615 C1614 1.362 . S
H1616 C1622 0.930 . S
H1617 C1625 0.930 . S
H1618 C1626 0.930 1_554 S
H1619 C1627 0.930 . S
H1620 C1630 0.930 . S
H1621 C1631 0.930 . S
C1622 H1616 0.930 . S
C1622 C1623 1.355 . S
C1622 C1624 1.415 . S
C1623 C1622 1.355 . S
C1623 C1625 1.419 1_556 S
C1624 C1622 1.415 . S
C1624 C1629 1.425 . S
C1624 C1631 1.409 . S
C1625 H1617 0.930 . S
C1625 C1623 1.419 1_554 S
C1625 C1626 1.362 1_554 S
C1626 H1618 0.930 1_556 S
C1626 C1625 1.362 1_556 S
C1626 C1629 1.409 . S
C1627 H1619 0.930 . S
C1627 C1628 1.355 . S
C1627 C1629 1.415 . S
C1628 C1627 1.355 . S
C1628 C1630 1.419 . S
C1629 C1624 1.425 . S
C1629 C1626 1.409 . S
C1629 C1627 1.415 . S
C1630 H1620 0.930 . S
C1630 C1628 1.419 . S
C1630 C1631 1.362 . S
C1631 H1621 0.930 . S
C1631 C1624 1.409 . S
C1631 C1630 1.362 . S
H1632 C1638 0.930 . S
H1633 C1641 0.930 . S
H1634 C1642 0.930 . S
H1635 C1643 0.930 . S
H1636 C1646 0.930 . S
H1637 C1647 0.930 . S
C1638 H1632 0.930 . S
C1638 C1639 1.355 . S
C1638 C1640 1.415 . S
C1639 C1638 1.355 . S
C1639 C1641 1.419 . S
C1640 C1638 1.415 . S
C1640 C1645 1.425 . S
C1640 C1647 1.409 . S
C1641 H1633 0.930 . S
C1641 C1639 1.419 . S
C1641 C1642 1.362 . S
C1642 H1634 0.930 . S
C1642 C1641 1.362 . S
C1642 C1645 1.409 . S
C1643 H1635 0.930 . S
C1643 C1644 1.355 . S
C1643 C1645 1.415 . S
C1644 C1643 1.355 . S
C1644 C1646 1.419 . S
C1645 C1640 1.425 . S
C1645 C1642 1.409 . S
C1645 C1643 1.415 . S
C1646 H1636 0.930 . S
C1646 C1644 1.419 . S
C1646 C1647 1.362 . S
C1647 H1637 0.930 . S
C1647 C1640 1.409 . S
C1647 C1646 1.362 . S
H1648 C1654 0.930 . S
H1649 C1657 0.930 . S
H1650 C1658 0.930 . S
H1651 C1659 0.930 . S
H1652 C1662 0.930 . S
H1653 C1663 0.930 . S
C1654 H1648 0.930 . S
C1654 C1655 1.355 . S
C1654 C1656 1.415 . S
C1655 C1654 1.355 . S
C1655 C1657 1.419 . S
C1656 C1654 1.415 . S
C1656 C1661 1.425 . S
C1656 C1663 1.409 . S
C1657 H1649 0.930 . S
C1657 C1655 1.419 . S
C1657 C1658 1.362 . S
C1658 H1650 0.930 . S
C1658 C1657 1.362 . S
C1658 C1661 1.409 . S
C1659 H1651 0.930 . S
C1659 C1660 1.355 . S
C1659 C1661 1.415 . S
C1660 C1659 1.355 . S
C1660 C1662 1.419 . S
C1661 C1656 1.425 . S
C1661 C1658 1.409 . S
C1661 C1659 1.415 . S
C1662 H1652 0.930 . S
C1662 C1660 1.419 . S
C1662 C1663 1.362 . S
C1663 H1653 0.930 . S
C1663 C1656 1.409 . S
C1663 C1662 1.362 . S
H1664 C1670 0.930 . S
H1665 C1673 0.930 . S
H1666 C1674 0.930 . S
H1667 C1675 0.930 . S
H1668 C1678 0.930 . S
H1669 C1679 0.930 . S
C1670 H1664 0.930 . S
C1670 C1671 1.355 . S
C1670 C1672 1.415 . S
C1671 C1670 1.355 . S
C1671 C1673 1.419 . S
C1672 C1670 1.415 . S
C1672 C1677 1.425 . S
C1672 C1679 1.409 . S
C1673 H1665 0.930 . S
C1673 C1671 1.419 . S
C1673 C1674 1.362 . S
C1674 H1666 0.930 . S
C1674 C1673 1.362 . S
C1674 C1677 1.409 . S
C1675 H1667 0.930 . S
C1675 C1676 1.355 . S
C1675 C1677 1.415 . S
C1676 C1675 1.355 . S
C1676 C1678 1.419 . S
C1677 C1672 1.425 . S
C1677 C1674 1.409 . S
C1677 C1675 1.415 . S
C1678 H1668 0.930 . S
C1678 C1676 1.419 . S
C1678 C1679 1.362 . S
C1679 H1669 0.930 . S
C1679 C1672 1.409 . S
C1679 C1678 1.362 . S
H1680 C1686 0.930 . S
H1681 C1689 0.930 . S
H1682 C1690 0.930 . S
H1683 C1691 0.930 . S
H1684 C1694 0.930 . S
H1685 C1695 0.930 . S
C1686 H1680 0.930 . S
C1686 C1687 1.355 . S
C1686 C1688 1.415 . S
C1687 C1686 1.355 . S
C1687 C1689 1.419 . S
C1688 C1686 1.415 . S
C1688 C1693 1.425 . S
C1688 C1695 1.409 . S
C1689 H1681 0.930 . S
C1689 C1687 1.419 . S
C1689 C1690 1.362 . S
C1690 H1682 0.930 . S
C1690 C1689 1.362 . S
C1690 C1693 1.409 . S
C1691 H1683 0.930 . S
C1691 C1692 1.355 . S
C1691 C1693 1.415 . S
C1692 C1691 1.355 . S
C1692 C1694 1.419 . S
C1693 C1688 1.425 . S
C1693 C1690 1.409 . S
C1693 C1691 1.415 . S
C1694 H1684 0.930 . S
C1694 C1692 1.419 . S
C1694 C1695 1.362 . S
C1695 H1685 0.930 . S
C1695 C1688 1.409 . S
C1695 C1694 1.362 . S
H1696 C1702 0.930 . S
H1697 C1705 0.930 . S
H1698 C1706 0.930 1_545 S
H1699 C1707 0.930 . S
H1700 C1710 0.930 . S
H1701 C1711 0.930 . S
C1702 H1696 0.930 . S
C1702 C1703 1.355 . S
C1702 C1704 1.415 . S
C1703 C1702 1.355 . S
C1703 C1705 1.419 . S
C1704 C1702 1.415 . S
C1704 C1709 1.425 . S
C1704 C1711 1.409 . S
C1705 H1697 0.930 . S
C1705 C1703 1.419 . S
C1705 C1706 1.362 . S
C1706 H1698 0.930 1_565 S
C1706 C1705 1.362 . S
C1706 C1709 1.409 . S
C1707 H1699 0.930 . S
C1707 C1708 1.355 1_545 S
C1707 C1709 1.415 1_545 S
C1708 C1707 1.355 1_565 S
C1708 C1710 1.419 . S
C1709 C1704 1.425 . S
C1709 C1706 1.409 . S
C1709 C1707 1.415 1_565 S
C1710 H1700 0.930 . S
C1710 C1708 1.419 . S
C1710 C1711 1.362 . S
C1711 H1701 0.930 . S
C1711 C1704 1.409 . S
C1711 C1710 1.362 . S
H1712 C1718 0.930 . S
H1713 C1721 0.930 . S
H1714 C1722 0.930 . S
H1715 C1723 0.930 . S
H1716 C1726 0.930 . S
H1717 C1727 0.930 . S
C1718 H1712 0.930 . S
C1718 C1719 1.355 . S
C1718 C1720 1.415 . S
C1719 C1718 1.355 . S
C1719 C1721 1.419 . S
C1720 C1718 1.415 . S
C1720 C1725 1.425 . S
C1720 C1727 1.409 . S
C1721 H1713 0.930 . S
C1721 C1719 1.419 . S
C1721 C1722 1.362 . S
C1722 H1714 0.930 . S
C1722 C1721 1.362 . S
C1722 C1725 1.409 . S
C1723 H1715 0.930 . S
C1723 C1724 1.355 . S
C1723 C1725 1.415 . S
C1724 C1723 1.355 . S
C1724 C1726 1.419 . S
C1725 C1720 1.425 . S
C1725 C1722 1.409 . S
C1725 C1723 1.415 . S
C1726 H1716 0.930 . S
C1726 C1724 1.419 . S
C1726 C1727 1.362 . S
C1727 H1717 0.930 . S
C1727 C1720 1.409 . S
C1727 C1726 1.362 . S
H1728 C1734 0.930 . S
H1729 C1737 0.930 . S
H1730 C1738 0.930 . S
H1731 C1739 0.930 . S
H1732 C1742 0.930 . S
H1733 C1743 0.930 . S
C1734 H1728 0.930 . S
C1734 C1735 1.355 . S
C1734 C1736 1.415 . S
C1735 C1734 1.355 . S
C1735 C1737 1.419 . S
C1736 C1734 1.415 . S
C1736 C1741 1.425 . S
C1736 C1743 1.409 . S
C1737 H1729 0.930 . S
C1737 C1735 1.419 . S
C1737 C1738 1.362 . S
C1738 H1730 0.930 . S
C1738 C1737 1.362 . S
C1738 C1741 1.409 . S
C1739 H1731 0.930 . S
C1739 C1740 1.355 . S
C1739 C1741 1.415 . S
C1740 C1739 1.355 . S
C1740 C1742 1.419 . S
C1741 C1736 1.425 . S
C1741 C1738 1.409 . S
C1741 C1739 1.415 . S
C1742 H1732 0.930 . S
C1742 C1740 1.419 . S
C1742 C1743 1.362 . S
C1743 H1733 0.930 . S
C1743 C1736 1.409 . S
C1743 C1742 1.362 . S
H1744 C1750 0.930 . S
H1745 C1753 0.930 . S
H1746 C1754 0.930 . S
H1747 C1755 0.930 . S
H1748 C1758 0.930 . S
H1749 C1759 0.930 . S
C1750 H1744 0.930 . S
C1750 C1751 1.355 . S
C1750 C1752 1.415 . S
C1751 C1750 1.355 . S
C1751 C1753 1.419 . S
C1752 C1750 1.415 . S
C1752 C1757 1.425 . S
C1752 C1759 1.409 . S
C1753 H1745 0.930 . S
C1753 C1751 1.419 . S
C1753 C1754 1.362 . S
C1754 H1746 0.930 . S
C1754 C1753 1.362 . S
C1754 C1757 1.409 . S
C1755 H1747 0.930 . S
C1755 C1756 1.355 . S
C1755 C1757 1.415 . S
C1756 C1755 1.355 . S
C1756 C1758 1.419 . S
C1757 C1752 1.425 . S
C1757 C1754 1.409 . S
C1757 C1755 1.415 . S
C1758 H1748 0.930 . S
C1758 C1756 1.419 . S
C1758 C1759 1.362 . S
C1759 H1749 0.930 . S
C1759 C1752 1.409 . S
C1759 C1758 1.362 . S
H1760 C1766 0.930 . S
H1761 C1769 0.930 . S
H1762 C1770 0.930 . S
H1763 C1771 0.930 . S
H1764 C1774 0.930 . S
H1765 C1775 0.930 . S
C1766 H1760 0.930 . S
C1766 C1767 1.355 . S
C1766 C1768 1.415 . S
C1767 C1766 1.355 . S
C1767 C1769 1.419 . S
C1768 C1766 1.415 . S
C1768 C1773 1.425 . S
C1768 C1775 1.409 . S
C1769 H1761 0.930 . S
C1769 C1767 1.419 . S
C1769 C1770 1.362 . S
C1770 H1762 0.930 . S
C1770 C1769 1.362 . S
C1770 C1773 1.409 . S
C1771 H1763 0.930 . S
C1771 C1772 1.355 . S
C1771 C1773 1.415 . S
C1772 C1771 1.355 . S
C1772 C1774 1.419 . S
C1773 C1768 1.425 . S
C1773 C1770 1.409 . S
C1773 C1771 1.415 . S
C1774 H1764 0.930 . S
C1774 C1772 1.419 . S
C1774 C1775 1.362 . S
C1775 H1765 0.930 . S
C1775 C1768 1.409 . S
C1775 C1774 1.362 . S
H1776 C1782 0.930 . S
H1777 C1785 0.930 . S
H1778 C1786 0.930 . S
H1779 C1787 0.930 . S
H1780 C1790 0.930 . S
H1781 C1791 0.930 . S
C1782 H1776 0.930 . S
C1782 C1783 1.355 1_655 S
C1782 C1784 1.414 1_655 S
C1783 C1782 1.355 1_455 S
C1783 C1785 1.419 . S
C1784 C1782 1.414 1_455 S
C1784 C1789 1.441 . S
C1784 C1791 1.395 1_455 S
C1785 H1777 0.930 . S
C1785 C1783 1.419 . S
C1785 C1786 1.362 . S
C1786 H1778 0.930 . S
C1786 C1785 1.362 . S
C1786 C1789 1.409 . S
C1787 H1779 0.930 . S
C1787 C1788 1.355 . S
C1787 C1789 1.415 . S
C1788 C1787 1.355 . S
C1788 C1790 1.419 1_455 S
C1789 C1784 1.441 . S
C1789 C1786 1.409 . S
C1789 C1787 1.415 . S
C1790 H1780 0.930 . S
C1790 C1788 1.419 1_655 S
C1790 C1791 1.362 . S
C1791 H1781 0.930 . S
C1791 C1784 1.395 1_655 S
C1791 C1790 1.362 . S
H1792 C1798 0.930 . S
H1793 C1801 0.930 . S
H1794 C1802 0.930 1_655 S
H1795 C1803 0.930 . S
H1796 C1806 0.930 . S
H1797 C1807 0.930 . S
C1798 H1792 0.930 . S
C1798 C1799 1.355 . S
C1798 C1800 1.415 . S
C1799 C1798 1.355 . S
C1799 C1801 1.419 . S
C1800 C1798 1.415 . S
C1800 C1805 1.425 . S
C1800 C1807 1.409 . S
C1801 H1793 0.930 . S
C1801 C1799 1.419 . S
C1801 C1802 1.362 . S
C1802 H1794 0.930 1_455 S
C1802 C1801 1.362 . S
C1802 C1805 1.409 . S
C1803 H1795 0.930 . S
C1803 C1804 1.355 . S
C1803 C1805 1.415 1_655 S
C1804 C1803 1.355 . S
C1804 C1806 1.419 . S
C1805 C1800 1.425 . S
C1805 C1802 1.409 . S
C1805 C1803 1.415 1_455 S
C1806 H1796 0.930 . S
C1806 C1804 1.419 . S
C1806 C1807 1.362 1_655 S
C1807 H1797 0.930 . S
C1807 C1800 1.409 . S
C1807 C1806 1.362 1_455 S
H1808 C1814 0.930 . S
H1809 C1817 0.930 . S
H1810 C1818 0.930 . S
H1811 C1819 0.930 . S
H1812 C1822 0.930 . S
H1813 C1823 0.930 . S
C1814 H1808 0.930 . S
C1814 C1815 1.355 . S
C1814 C1816 1.415 . S
C1815 C1814 1.355 . S
C1815 C1817 1.419 . S
C1816 C1814 1.415 . S
C1816 C1821 1.425 . S
C1816 C1823 1.409 . S
C1817 H1809 0.930 . S
C1817 C1815 1.419 . S
C1817 C1818 1.362 . S
C1818 H1810 0.930 . S
C1818 C1817 1.362 . S
C1818 C1821 1.409 . S
C1819 H1811 0.930 . S
C1819 C1820 1.355 . S
C1819 C1821 1.415 . S
C1820 C1819 1.355 . S
C1820 C1822 1.419 . S
C1821 C1816 1.425 . S
C1821 C1818 1.409 . S
C1821 C1819 1.415 . S
C1822 H1812 0.930 . S
C1822 C1820 1.419 . S
C1822 C1823 1.362 . S
C1823 H1813 0.930 . S
C1823 C1816 1.409 . S
C1823 C1822 1.362 . S
H1824 C1830 0.930 . S
H1825 C1833 0.930 . S
H1826 C1834 0.930 . S
H1827 C1835 0.930 . S
H1828 C1838 0.930 . S
H1829 C1839 0.930 . S
C1830 H1824 0.930 . S
C1830 C1831 1.355 . S
C1830 C1832 1.415 . S
C1831 C1830 1.355 . S
C1831 C1833 1.419 . S
C1832 C1830 1.415 . S
C1832 C1837 1.425 . S
C1832 C1839 1.409 . S
C1833 H1825 0.930 . S
C1833 C1831 1.419 . S
C1833 C1834 1.362 . S
C1834 H1826 0.930 . S
C1834 C1833 1.362 . S
C1834 C1837 1.409 . S
C1835 H1827 0.930 . S
C1835 C1836 1.355 . S
C1835 C1837 1.415 . S
C1836 C1835 1.355 . S
C1836 C1838 1.419 . S
C1837 C1832 1.425 . S
C1837 C1834 1.409 . S
C1837 C1835 1.415 . S
C1838 H1828 0.930 . S
C1838 C1836 1.419 . S
C1838 C1839 1.362 . S
C1839 H1829 0.930 . S
C1839 C1832 1.409 . S
C1839 C1838 1.362 . S
H1840 C1846 0.930 . S
H1841 C1849 0.930 . S
H1842 C1850 0.930 . S
H1843 C1851 0.930 . S
H1844 C1854 0.930 . S
H1845 C1855 0.930 . S
C1846 H1840 0.930 . S
C1846 C1847 1.355 . S
C1846 C1848 1.415 . S
C1847 C1846 1.355 . S
C1847 C1849 1.419 . S
C1848 C1846 1.415 . S
C1848 C1853 1.425 . S
C1848 C1855 1.409 . S
C1849 H1841 0.930 . S
C1849 C1847 1.419 . S
C1849 C1850 1.362 . S
C1850 H1842 0.930 . S
C1850 C1849 1.362 . S
C1850 C1853 1.409 . S
C1851 H1843 0.930 . S
C1851 C1852 1.355 . S
C1851 C1853 1.415 . S
C1852 C1851 1.355 . S
C1852 C1854 1.419 . S
C1853 C1848 1.425 . S
C1853 C1850 1.409 . S
C1853 C1851 1.415 . S
C1854 H1844 0.930 . S
C1854 C1852 1.419 . S
C1854 C1855 1.362 . S
C1855 H1845 0.930 . S
C1855 C1848 1.409 . S
C1855 C1854 1.362 . S
H1856 C1862 0.930 . S
H1857 C1865 0.930 . S
H1858 C1866 0.930 . S
H1859 C1867 0.930 . S
H1860 C1870 0.930 . S
H1861 C1871 0.930 . S
C1862 H1856 0.930 . S
C1862 C1863 1.355 . S
C1862 C1864 1.415 . S
C1863 C1862 1.355 . S
C1863 C1865 1.419 . S
C1864 C1862 1.415 . S
C1864 C1869 1.425 . S
C1864 C1871 1.409 . S
C1865 H1857 0.930 . S
C1865 C1863 1.419 . S
C1865 C1866 1.362 . S
C1866 H1858 0.930 . S
C1866 C1865 1.362 . S
C1866 C1869 1.409 . S
C1867 H1859 0.930 . S
C1867 C1868 1.355 . S
C1867 C1869 1.415 . S
C1868 C1867 1.355 . S
C1868 C1870 1.419 . S
C1869 C1864 1.425 . S
C1869 C1866 1.409 . S
C1869 C1867 1.415 . S
C1870 H1860 0.930 . S
C1870 C1868 1.419 . S
C1870 C1871 1.362 . S
C1871 H1861 0.930 . S
C1871 C1864 1.409 . S
C1871 C1870 1.362 . S
H1872 C1878 0.930 . S
H1873 C1881 0.930 . S
H1874 C1882 0.930 . S
H1875 C1883 0.930 . S
H1876 C1886 0.930 . S
H1877 C1887 0.930 . S
C1878 H1872 0.930 . S
C1878 C1879 1.355 . S
C1878 C1880 1.415 . S
C1879 C1878 1.355 . S
C1879 C1881 1.419 . S
C1880 C1878 1.415 . S
C1880 C1885 1.425 . S
C1880 C1887 1.409 . S
C1881 H1873 0.930 . S
C1881 C1879 1.419 . S
C1881 C1882 1.362 . S
C1882 H1874 0.930 . S
C1882 C1881 1.362 . S
C1882 C1885 1.409 . S
C1883 H1875 0.930 . S
C1883 C1884 1.355 . S
C1883 C1885 1.415 . S
C1884 C1883 1.355 . S
C1884 C1886 1.419 . S
C1885 C1880 1.425 . S
C1885 C1882 1.409 . S
C1885 C1883 1.415 . S
C1886 H1876 0.930 . S
C1886 C1884 1.419 . S
C1886 C1887 1.362 . S
C1887 H1877 0.930 . S
C1887 C1880 1.409 . S
C1887 C1886 1.362 . S
H1888 C1894 0.930 . S
H1889 C1897 0.930 . S
H1890 C1898 0.930 . S
H1891 C1899 0.930 . S
H1892 C1902 0.930 . S
H1893 C1903 0.930 . S
C1894 H1888 0.930 . S
C1894 C1895 1.355 . S
C1894 C1896 1.415 . S
C1895 C1894 1.355 . S
C1895 C1897 1.419 . S
C1896 C1894 1.415 . S
C1896 C1901 1.425 . S
C1896 C1903 1.409 . S
C1897 H1889 0.930 . S
C1897 C1895 1.419 . S
C1897 C1898 1.362 . S
C1898 H1890 0.930 . S
C1898 C1897 1.362 . S
C1898 C1901 1.409 . S
C1899 H1891 0.930 . S
C1899 C1900 1.355 . S
C1899 C1901 1.415 . S
C1900 C1899 1.355 . S
C1900 C1902 1.419 . S
C1901 C1896 1.425 . S
C1901 C1898 1.409 . S
C1901 C1899 1.415 . S
C1902 H1892 0.930 . S
C1902 C1900 1.419 . S
C1902 C1903 1.362 . S
C1903 H1893 0.930 . S
C1903 C1896 1.409 . S
C1903 C1902 1.362 . S
H1904 C1910 0.930 . S
H1905 C1913 0.930 . S
H1906 C1914 0.930 . S
H1907 C1915 0.930 . S
H1908 C1918 0.930 . S
H1909 C1919 0.930 . S
C1910 H1904 0.930 . S
C1910 C1911 1.355 . S
C1910 C1912 1.415 . S
C1911 C1910 1.355 . S
C1911 C1913 1.419 . S
C1912 C1910 1.415 . S
C1912 C1917 1.425 . S
C1912 C1919 1.409 . S
C1913 H1905 0.930 . S
C1913 C1911 1.419 . S
C1913 C1914 1.362 . S
C1914 H1906 0.930 . S
C1914 C1913 1.362 . S
C1914 C1917 1.409 . S
C1915 H1907 0.930 . S
C1915 C1916 1.355 . S
C1915 C1917 1.415 . S
C1916 C1915 1.355 . S
C1916 C1918 1.419 . S
C1917 C1912 1.425 . S
C1917 C1914 1.409 . S
C1917 C1915 1.415 . S
C1918 H1908 0.930 . S
C1918 C1916 1.419 . S
C1918 C1919 1.362 . S
C1919 H1909 0.930 . S
C1919 C1912 1.409 . S
C1919 C1918 1.362 . S
H1920 C1926 0.930 . S
H1921 C1929 0.930 . S
H1922 C1930 0.930 . S
H1923 C1931 0.930 . S
H1924 C1934 0.930 . S
H1925 C1935 0.930 . S
C1926 H1920 0.930 . S
C1926 C1927 1.355 . S
C1926 C1928 1.415 . S
C1927 C1926 1.355 . S
C1927 C1929 1.419 . S
C1928 C1926 1.415 . S
C1928 C1933 1.425 . S
C1928 C1935 1.409 . S
C1929 H1921 0.930 . S
C1929 C1927 1.419 . S
C1929 C1930 1.362 . S
C1930 H1922 0.930 . S
C1930 C1929 1.362 . S
C1930 C1933 1.409 . S
C1931 H1923 0.930 . S
C1931 C1932 1.355 . S
C1931 C1933 1.415 . S
C1932 C1931 1.355 . S
C1932 C1934 1.419 . S
C1933 C1928 1.425 . S
C1933 C1930 1.409 . S
C1933 C1931 1.415 . S
C1934 H1924 0.930 . S
C1934 C1932 1.419 . S
C1934 C1935 1.362 . S
C1935 H1925 0.930 . S
C1935 C1928 1.409 . S
C1935 C1934 1.362 . S
H1936 C1942 0.930 . S
H1937 C1945 0.930 . S
H1938 C1946 0.930 . S
H1939 C1947 0.930 . S
H1940 C1950 0.930 . S
H1941 C1951 0.930 . S
C1942 H1936 0.930 . S
C1942 C1943 1.355 . S
C1942 C1944 1.415 . S
C1943 C1942 1.355 . S
C1943 C1945 1.419 . S
C1944 C1942 1.415 . S
C1944 C1949 1.425 . S
C1944 C1951 1.409 . S
C1945 H1937 0.930 . S
C1945 C1943 1.419 . S
C1945 C1946 1.362 . S
C1946 H1938 0.930 . S
C1946 C1945 1.362 . S
C1946 C1949 1.409 . S
C1947 H1939 0.930 . S
C1947 C1948 1.355 . S
C1947 C1949 1.415 . S
C1948 C1947 1.355 . S
C1948 C1950 1.419 . S
C1949 C1944 1.425 . S
C1949 C1946 1.409 . S
C1949 C1947 1.415 . S
C1950 H1940 0.930 . S
C1950 C1948 1.419 . S
C1950 C1951 1.362 . S
C1951 H1941 0.930 . S
C1951 C1944 1.409 . S
C1951 C1950 1.362 . S
H1952 C1958 0.930 . S
H1953 C1961 0.930 . S
H1954 C1962 0.930 . S
H1955 C1963 0.930 . S
H1956 C1966 0.930 . S
H1957 C1967 0.930 . S
C1958 H1952 0.930 . S
C1958 C1959 1.355 . S
C1958 C1960 1.415 . S
C1959 C1958 1.355 . S
C1959 C1961 1.419 . S
C1960 C1958 1.415 . S
C1960 C1965 1.425 . S
C1960 C1967 1.409 . S
C1961 H1953 0.930 . S
C1961 C1959 1.419 . S
C1961 C1962 1.362 . S
C1962 H1954 0.930 . S
C1962 C1961 1.362 . S
C1962 C1965 1.409 . S
C1963 H1955 0.930 . S
C1963 C1964 1.355 . S
C1963 C1965 1.415 . S
C1964 C1963 1.355 . S
C1964 C1966 1.419 . S
C1965 C1960 1.425 . S
C1965 C1962 1.409 . S
C1965 C1963 1.415 . S
C1966 H1956 0.930 . S
C1966 C1964 1.419 . S
C1966 C1967 1.362 . S
C1967 H1957 0.930 . S
C1967 C1960 1.409 . S
C1967 C1966 1.362 . S
H1968 C1974 0.930 . S
H1969 C1977 0.930 . S
H1970 C1978 0.930 . S
H1971 C1979 0.930 . S
H1972 C1982 0.930 . S
H1973 C1983 0.930 . S
C1974 H1968 0.930 . S
C1974 C1975 1.355 . S
C1974 C1976 1.415 . S
C1975 C1974 1.355 . S
C1975 C1977 1.419 . S
C1976 C1974 1.415 . S
C1976 C1981 1.425 . S
C1976 C1983 1.409 . S
C1977 H1969 0.930 . S
C1977 C1975 1.419 . S
C1977 C1978 1.362 . S
C1978 H1970 0.930 . S
C1978 C1977 1.362 . S
C1978 C1981 1.409 . S
C1979 H1971 0.930 . S
C1979 C1980 1.355 . S
C1979 C1981 1.415 . S
C1980 C1979 1.355 . S
C1980 C1982 1.419 . S
C1981 C1976 1.425 . S
C1981 C1978 1.409 . S
C1981 C1979 1.415 . S
C1982 H1972 0.930 . S
C1982 C1980 1.419 . S
C1982 C1983 1.362 . S
C1983 H1973 0.930 . S
C1983 C1976 1.409 . S
C1983 C1982 1.362 . S
H1984 C1990 0.930 . S
H1985 C1993 0.930 . S
H1986 C1994 0.930 . S
H1987 C1995 0.930 . S
H1988 C1998 0.930 . S
H1989 C1999 0.930 . S
C1990 H1984 0.930 . S
C1990 C1991 1.355 . S
C1990 C1992 1.415 . S
C1991 C1990 1.355 . S
C1991 C1993 1.419 . S
C1992 C1990 1.415 . S
C1992 C1997 1.425 . S
C1992 C1999 1.409 . S
C1993 H1985 0.930 . S
C1993 C1991 1.419 . S
C1993 C1994 1.362 . S
C1994 H1986 0.930 . S
C1994 C1993 1.362 . S
C1994 C1997 1.409 . S
C1995 H1987 0.930 . S
C1995 C1996 1.355 . S
C1995 C1997 1.415 . S
C1996 C1995 1.355 . S
C1996 C1998 1.419 . S
C1997 C1992 1.425 . S
C1997 C1994 1.409 . S
C1997 C1995 1.415 . S
C1998 H1988 0.930 . S
C1998 C1996 1.419 . S
C1998 C1999 1.362 . S
C1999 H1989 0.930 . S
C1999 C1992 1.409 . S
C1999 C1998 1.362 . S
H2000 C2006 0.930 . S
H2001 C2009 0.930 . S
H2002 C2010 0.930 . S
H2003 C2011 0.930 . S
H2004 C2014 0.930 . S
H2005 C2015 0.930 . S
C2006 H2000 0.930 . S
C2006 C2007 1.355 . S
C2006 C2008 1.415 . S
C2007 C2006 1.355 . S
C2007 C2009 1.419 . S
C2008 C2006 1.415 . S
C2008 C2013 1.425 . S
C2008 C2015 1.409 . S
C2009 H2001 0.930 . S
C2009 C2007 1.419 . S
C2009 C2010 1.362 . S
C2010 H2002 0.930 . S
C2010 C2009 1.362 . S
C2010 C2013 1.409 . S
C2011 H2003 0.930 . S
C2011 C2012 1.355 . S
C2011 C2013 1.415 . S
C2012 C2011 1.355 . S
C2012 C2014 1.419 . S
C2013 C2008 1.425 . S
C2013 C2010 1.409 . S
C2013 C2011 1.415 . S
C2014 H2004 0.930 . S
C2014 C2012 1.419 . S
C2014 C2015 1.362 . S
C2015 H2005 0.930 . S
C2015 C2008 1.409 . S
C2015 C2014 1.362 . S
H2016 C2022 0.930 . S
H2017 C2025 0.930 . S
H2018 C2026 0.930 . S
H2019 C2027 0.930 . S
H2020 C2030 0.930 . S
H2021 C2031 0.930 . S
C2022 H2016 0.930 . S
C2022 C2023 1.355 . S
C2022 C2024 1.415 . S
C2023 C2022 1.355 . S
C2023 C2025 1.419 . S
C2024 C2022 1.415 . S
C2024 C2029 1.425 . S
C2024 C2031 1.409 . S
C2025 H2017 0.930 . S
C2025 C2023 1.419 . S
C2025 C2026 1.362 . S
C2026 H2018 0.930 . S
C2026 C2025 1.362 . S
C2026 C2029 1.409 . S
C2027 H2019 0.930 . S
C2027 C2028 1.355 . S
C2027 C2029 1.415 . S
C2028 C2027 1.355 . S
C2028 C2030 1.419 . S
C2029 C2024 1.425 . S
C2029 C2026 1.409 . S
C2029 C2027 1.415 . S
C2030 H2020 0.930 . S
C2030 C2028 1.419 . S
C2030 C2031 1.362 . S
C2031 H2021 0.930 . S
C2031 C2024 1.409 . S
C2031 C2030 1.362 . S
H2032 C2038 0.930 . S
H2033 C2041 0.930 . S
H2034 C2042 0.930 . S
H2035 C2043 0.930 . S
H2036 C2046 0.930 . S
H2037 C2047 0.930 . S
C2038 H2032 0.930 . S
C2038 C2039 1.355 1_565 S
C2038 C2040 1.415 . S
C2039 C2038 1.355 1_545 S
C2039 C2041 1.419 . S
C2040 C2038 1.415 . S
C2040 C2045 1.425 . S
C2040 C2047 1.409 . S
C2041 H2033 0.930 . S
C2041 C2039 1.419 . S
C2041 C2042 1.362 . S
C2042 H2034 0.930 . S
C2042 C2041 1.362 . S
C2042 C2045 1.409 1_545 S
C2043 H2035 0.930 . S
C2043 C2044 1.355 . S
C2043 C2045 1.415 . S
C2044 C2043 1.355 . S
C2044 C2046 1.419 . S
C2045 C2040 1.425 . S
C2045 C2042 1.409 1_565 S
C2045 C2043 1.415 . S
C2046 H2036 0.930 . S
C2046 C2044 1.419 . S
C2046 C2047 1.362 . S
C2047 H2037 0.930 . S
C2047 C2040 1.409 . S
C2047 C2046 1.362 . S
H2048 C2054 0.930 . S
H2049 C2057 0.930 . S
H2050 C2058 0.930 . S
H2051 C2059 0.930 . S
H2052 C2062 0.930 . S
H2053 C2063 0.930 1_545 S
C2054 H2048 0.930 . S
C2054 C2055 1.355 . S
C2054 C2056 1.415 . S
C2055 C2054 1.355 . S
C2055 C2057 1.419 . S
C2056 C2054 1.415 . S
C2056 C2061 1.425 . S
C2056 C2063 1.409 . S
C2057 H2049 0.930 . S
C2057 C2055 1.419 . S
C2057 C2058 1.362 . S
C2058 H2050 0.930 . S
C2058 C2057 1.362 . S
C2058 C2061 1.409 . S
C2059 H2051 0.930 . S
C2059 C2060 1.355 1_565 S
C2059 C2061 1.415 . S
C2060 C2059 1.355 1_545 S
C2060 C2062 1.419 . S
C2061 C2056 1.425 . S
C2061 C2058 1.409 . S
C2061 C2059 1.415 . S
C2062 H2052 0.930 . S
C2062 C2060 1.419 . S
C2062 C2063 1.362 1_545 S
C2063 H2053 0.930 1_565 S
C2063 C2056 1.409 . S
C2063 C2062 1.362 1_565 S
H2064 C2070 0.930 . S
H2065 C2073 0.930 . S
H2066 C2074 0.930 . S
H2067 C2075 0.930 . S
H2068 C2078 0.930 . S
H2069 C2079 0.930 . S
C2070 H2064 0.930 . S
C2070 C2071 1.355 . S
C2070 C2072 1.415 . S
C2071 C2070 1.355 . S
C2071 C2073 1.419 . S
C2072 C2070 1.415 . S
C2072 C2077 1.425 . S
C2072 C2079 1.409 . S
C2073 H2065 0.930 . S
C2073 C2071 1.419 . S
C2073 C2074 1.362 . S
C2074 H2066 0.930 . S
C2074 C2073 1.362 . S
C2074 C2077 1.409 . S
C2075 H2067 0.930 . S
C2075 C2076 1.355 . S
C2075 C2077 1.415 . S
C2076 C2075 1.355 . S
C2076 C2078 1.419 . S
C2077 C2072 1.425 . S
C2077 C2074 1.409 . S
C2077 C2075 1.415 . S
C2078 H2068 0.930 . S
C2078 C2076 1.419 . S
C2078 C2079 1.362 . S
C2079 H2069 0.930 . S
C2079 C2072 1.409 . S
C2079 C2078 1.362 . S
H2080 C2086 0.930 . S
H2081 C2089 0.920 1_556 S
H2082 C2090 0.930 1_556 S
H2083 C2091 0.930 . S
H2084 C2094 0.908 1_455 S
H2085 C2095 0.930 . S
C2086 H2080 0.930 . S
C2086 C2087 1.355 . S
C2086 C2088 1.415 . S
C2087 C2086 1.355 . S
C2087 C2089 1.419 . S
C2088 C2086 1.415 . S
C2088 C2093 1.425 . S
C2088 C2095 1.409 . S
C2089 H2081 0.920 1_554 S
C2089 C2087 1.419 . S
C2089 C2090 1.362 . S
C2090 H2082 0.930 1_554 S
C2090 C2089 1.362 . S
C2090 C2093 1.409 . S
C2091 H2083 0.930 . S
C2091 C2092 1.355 . S
C2091 C2093 1.415 . S
C2092 C2091 1.355 . S
C2092 C2094 1.419 . S
C2093 C2088 1.425 . S
C2093 C2090 1.409 . S
C2093 C2091 1.415 . S
C2094 H2084 0.908 1_655 S
C2094 C2092 1.419 . S
C2094 C2095 1.362 . S
C2095 H2085 0.930 . S
C2095 C2088 1.409 . S
C2095 C2094 1.362 . S
H2096 C2102 0.930 . S
H2097 C2105 0.930 . S
H2098 C2106 0.930 . S
H2099 C2107 0.930 . S
H2100 C2110 0.930 . S
H2101 C2111 0.930 . S
C2102 H2096 0.930 . S
C2102 C2103 1.355 . S
C2102 C2104 1.415 . S
C2103 C2102 1.355 . S
C2103 C2105 1.419 . S
C2104 C2102 1.415 . S
C2104 C2109 1.425 . S
C2104 C2111 1.409 . S
C2105 H2097 0.930 . S
C2105 C2103 1.419 . S
C2105 C2106 1.362 . S
C2106 H2098 0.930 . S
C2106 C2105 1.362 . S
C2106 C2109 1.409 . S
C2107 H2099 0.930 . S
C2107 C2108 1.355 . S
C2107 C2109 1.415 . S
C2108 C2107 1.355 . S
C2108 C2110 1.419 . S
C2109 C2104 1.425 . S
C2109 C2106 1.409 . S
C2109 C2107 1.415 . S
C2110 H2100 0.930 . S
C2110 C2108 1.419 . S
C2110 C2111 1.362 . S
C2111 H2101 0.930 . S
C2111 C2104 1.409 . S
C2111 C2110 1.362 . S
H2112 C2118 0.930 . S
H2113 C2121 0.930 . S
H2114 C2122 0.930 . S
H2115 C2123 0.930 . S
H2116 C2126 0.930 . S
H2117 C2127 0.930 1_545 S
C2118 H2112 0.930 . S
C2118 C2119 1.355 . S
C2118 C2120 1.415 . S
C2119 C2118 1.355 . S
C2119 C2121 1.419 . S
C2120 C2118 1.415 . S
C2120 C2125 1.425 1_545 S
C2120 C2127 1.409 1_545 S
C2121 H2113 0.930 . S
C2121 C2119 1.419 . S
C2121 C2122 1.362 1_545 S
C2122 H2114 0.930 . S
C2122 C2121 1.362 1_565 S
C2122 C2125 1.409 . S
C2123 H2115 0.930 . S
C2123 C2124 1.355 . S
C2123 C2125 1.415 . S
C2124 C2123 1.355 . S
C2124 C2126 1.419 . S
C2125 C2120 1.425 1_565 S
C2125 C2122 1.409 . S
C2125 C2123 1.415 . S
C2126 H2116 0.930 . S
C2126 C2124 1.419 . S
C2126 C2127 1.362 . S
C2127 H2117 0.930 1_565 S
C2127 C2120 1.409 1_565 S
C2127 C2126 1.362 . S
H2128 C2134 0.930 . S
H2129 C2137 0.930 . S
H2130 C2138 0.930 . S
H2131 C2139 0.930 . S
H2132 C2142 0.930 . S
H2133 C2143 0.930 . S
C2134 H2128 0.930 . S
C2134 C2135 1.355 . S
C2134 C2136 1.415 . S
C2135 C2134 1.355 . S
C2135 C2137 1.419 . S
C2136 C2134 1.415 . S
C2136 C2141 1.425 . S
C2136 C2143 1.409 . S
C2137 H2129 0.930 . S
C2137 C2135 1.419 . S
C2137 C2138 1.362 . S
C2138 H2130 0.930 . S
C2138 C2137 1.362 . S
C2138 C2141 1.409 . S
C2139 H2131 0.930 . S
C2139 C2140 1.355 . S
C2139 C2141 1.415 . S
C2140 C2139 1.355 . S
C2140 C2142 1.419 . S
C2141 C2136 1.425 . S
C2141 C2138 1.409 . S
C2141 C2139 1.415 . S
C2142 H2132 0.930 . S
C2142 C2140 1.419 . S
C2142 C2143 1.362 . S
C2143 H2133 0.930 . S
C2143 C2136 1.409 . S
C2143 C2142 1.362 . S
H2144 C2150 0.930 . S
H2145 C2153 0.930 . S
H2146 C2154 0.930 . S
H2147 C2155 0.930 . S
H2148 C2158 0.930 . S
H2149 C2159 0.930 . S
C2150 H2144 0.930 . S
C2150 C2151 1.355 . S
C2150 C2152 1.415 . S
C2151 C2150 1.355 . S
C2151 C2153 1.419 . S
C2152 C2150 1.415 . S
C2152 C2157 1.425 . S
C2152 C2159 1.409 . S
C2153 H2145 0.930 . S
C2153 C2151 1.419 . S
C2153 C2154 1.362 . S
C2154 H2146 0.930 . S
C2154 C2153 1.362 . S
C2154 C2157 1.409 . S
C2155 H2147 0.930 . S
C2155 C2156 1.355 . S
C2155 C2157 1.415 . S
C2156 C2155 1.355 . S
C2156 C2158 1.419 . S
C2157 C2152 1.425 . S
C2157 C2154 1.409 . S
C2157 C2155 1.415 . S
C2158 H2148 0.930 . S
C2158 C2156 1.419 . S
C2158 C2159 1.362 . S
C2159 H2149 0.930 . S
C2159 C2152 1.409 . S
C2159 C2158 1.362 . S
H2160 C2166 0.930 . S
H2161 C2169 0.930 . S
H2162 C2170 0.930 . S
H2163 C2171 0.930 . S
H2164 C2174 0.930 . S
H2165 C2175 0.930 . S
C2166 H2160 0.930 . S
C2166 C2167 1.355 . S
C2166 C2168 1.415 . S
C2167 C2166 1.355 . S
C2167 C2169 1.419 . S
C2168 C2166 1.415 . S
C2168 C2173 1.425 . S
C2168 C2175 1.409 . S
C2169 H2161 0.930 . S
C2169 C2167 1.419 . S
C2169 C2170 1.362 . S
C2170 H2162 0.930 . S
C2170 C2169 1.362 . S
C2170 C2173 1.409 . S
C2171 H2163 0.930 . S
C2171 C2172 1.355 . S
C2171 C2173 1.415 . S
C2172 C2171 1.355 . S
C2172 C2174 1.419 . S
C2173 C2168 1.425 . S
C2173 C2170 1.409 . S
C2173 C2171 1.415 . S
C2174 H2164 0.930 . S
C2174 C2172 1.419 . S
C2174 C2175 1.362 . S
C2175 H2165 0.930 . S
C2175 C2168 1.409 . S
C2175 C2174 1.362 . S
H2176 C2182 0.930 . S
H2177 C2185 0.930 . S
H2178 C2186 0.930 . S
H2179 C2187 0.930 . S
H2180 C2190 0.930 . S
H2181 C2191 0.930 . S
C2182 H2176 0.930 . S
C2182 C2183 1.355 . S
C2182 C2184 1.415 . S
C2183 C2182 1.355 . S
C2183 C2185 1.419 . S
C2184 C2182 1.415 . S
C2184 C2189 1.425 . S
C2184 C2191 1.409 . S
C2185 H2177 0.930 . S
C2185 C2183 1.419 . S
C2185 C2186 1.362 . S
C2186 H2178 0.930 . S
C2186 C2185 1.362 . S
C2186 C2189 1.409 . S
C2187 H2179 0.930 . S
C2187 C2188 1.355 . S
C2187 C2189 1.415 . S
C2188 C2187 1.355 . S
C2188 C2190 1.419 . S
C2189 C2184 1.425 . S
C2189 C2186 1.409 . S
C2189 C2187 1.415 . S
C2190 H2180 0.930 . S
C2190 C2188 1.419 . S
C2190 C2191 1.362 . S
C2191 H2181 0.930 . S
C2191 C2184 1.409 . S
C2191 C2190 1.362 . S
H2192 C2198 0.930 . S
H2193 C2201 0.930 . S
H2194 C2202 0.930 . S
H2195 C2203 0.908 1_554 S
H2196 C2206 0.930 . S
H2197 C2207 0.930 . S
C2198 H2192 0.930 . S
C2198 C2199 1.355 . S
C2198 C2200 1.415 . S
C2199 C2198 1.355 . S
C2199 C2201 1.419 . S
C2200 C2198 1.415 . S
C2200 C2205 1.425 . S
C2200 C2207 1.409 . S
C2201 H2193 0.930 . S
C2201 C2199 1.419 . S
C2201 C2202 1.362 . S
C2202 H2194 0.930 . S
C2202 C2201 1.362 . S
C2202 C2205 1.409 . S
C2203 H2195 0.908 1_556 S
C2203 C2204 1.355 . S
C2203 C2205 1.415 . S
C2204 C2203 1.355 . S
C2204 C2206 1.419 . S
C2205 C2200 1.425 . S
C2205 C2202 1.409 . S
C2205 C2203 1.415 . S
C2206 H2196 0.930 . S
C2206 C2204 1.419 . S
C2206 C2207 1.362 . S
C2207 H2197 0.930 . S
C2207 C2200 1.409 . S
C2207 C2206 1.362 . S
H2208 C2214 0.930 . S
H2209 C2217 0.930 . S
H2210 C2218 0.930 . S
H2211 C2219 0.930 . S
H2212 C2222 0.930 . S
H2213 C2223 0.930 . S
C2214 H2208 0.930 . S
C2214 C2215 1.355 . S
C2214 C2216 1.415 . S
C2215 C2214 1.355 . S
C2215 C2217 1.419 . S
C2216 C2214 1.415 . S
C2216 C2221 1.425 . S
C2216 C2223 1.409 . S
C2217 H2209 0.930 . S
C2217 C2215 1.419 . S
C2217 C2218 1.362 . S
C2218 H2210 0.930 . S
C2218 C2217 1.362 . S
C2218 C2221 1.409 . S
C2219 H2211 0.930 . S
C2219 C2220 1.355 . S
C2219 C2221 1.415 . S
C2220 C2219 1.355 . S
C2220 C2222 1.419 . S
C2221 C2216 1.425 . S
C2221 C2218 1.409 . S
C2221 C2219 1.415 . S
C2222 H2212 0.930 . S
C2222 C2220 1.419 . S
C2222 C2223 1.362 . S
C2223 H2213 0.930 . S
C2223 C2216 1.409 . S
C2223 C2222 1.362 . S
H2224 C2230 0.930 . S
H2225 C2233 0.930 . S
H2226 C2234 0.930 . S
H2227 C2235 0.930 . S
H2228 C2238 0.930 . S
H2229 C2239 0.930 . S
C2230 H2224 0.930 . S
C2230 C2231 1.355 . S
C2230 C2232 1.415 . S
C2231 C2230 1.355 . S
C2231 C2233 1.419 . S
C2232 C2230 1.415 . S
C2232 C2237 1.425 . S
C2232 C2239 1.409 . S
C2233 H2225 0.930 . S
C2233 C2231 1.419 . S
C2233 C2234 1.362 . S
C2234 H2226 0.930 . S
C2234 C2233 1.362 . S
C2234 C2237 1.409 . S
C2235 H2227 0.930 . S
C2235 C2236 1.355 . S
C2235 C2237 1.415 . S
C2236 C2235 1.355 . S
C2236 C2238 1.419 . S
C2237 C2232 1.425 . S
C2237 C2234 1.409 . S
C2237 C2235 1.415 . S
C2238 H2228 0.930 . S
C2238 C2236 1.419 . S
C2238 C2239 1.362 . S
C2239 H2229 0.930 . S
C2239 C2232 1.409 . S
C2239 C2238 1.362 . S
H2240 C2246 0.930 . S
H2241 C2249 0.930 . S
H2242 C2250 0.930 . S
H2243 C2251 0.930 . S
H2244 C2254 0.930 . S
H2245 C2255 0.930 . S
C2246 H2240 0.930 . S
C2246 C2247 1.355 . S
C2246 C2248 1.415 . S
C2247 C2246 1.355 . S
C2247 C2249 1.419 . S
C2248 C2246 1.415 . S
C2248 C2253 1.425 . S
C2248 C2255 1.409 . S
C2249 H2241 0.930 . S
C2249 C2247 1.419 . S
C2249 C2250 1.362 . S
C2250 H2242 0.930 . S
C2250 C2249 1.362 . S
C2250 C2253 1.409 . S
C2251 H2243 0.930 . S
C2251 C2252 1.355 . S
C2251 C2253 1.415 . S
C2252 C2251 1.355 . S
C2252 C2254 1.419 . S
C2253 C2248 1.425 . S
C2253 C2250 1.409 . S
C2253 C2251 1.415 . S
C2254 H2244 0.930 . S
C2254 C2252 1.419 . S
C2254 C2255 1.362 . S
C2255 H2245 0.930 . S
C2255 C2248 1.409 . S
C2255 C2254 1.362 . S
H2256 C2262 0.930 . S
H2257 C2265 0.930 . S
H2258 C2266 0.930 . S
H2259 C2267 0.930 . S
H2260 C2270 0.930 . S
H2261 C2271 0.930 . S
C2262 H2256 0.930 . S
C2262 C2263 1.355 . S
C2262 C2264 1.415 . S
C2263 C2262 1.355 . S
C2263 C2265 1.419 . S
C2264 C2262 1.415 . S
C2264 C2269 1.425 . S
C2264 C2271 1.409 . S
C2265 H2257 0.930 . S
C2265 C2263 1.419 . S
C2265 C2266 1.362 . S
C2266 H2258 0.930 . S
C2266 C2265 1.362 . S
C2266 C2269 1.409 . S
C2267 H2259 0.930 . S
C2267 C2268 1.355 . S
C2267 C2269 1.415 . S
C2268 C2267 1.355 . S
C2268 C2270 1.419 . S
C2269 C2264 1.425 . S
C2269 C2266 1.409 . S
C2269 C2267 1.415 . S
C2270 H2260 0.930 . S
C2270 C2268 1.419 . S
C2270 C2271 1.362 . S
C2271 H2261 0.930 . S
C2271 C2264 1.409 . S
C2271 C2270 1.362 . S
H2272 C2278 0.930 . S
H2273 C2281 0.930 . S
H2274 C2282 0.930 . S
H2275 C2283 0.930 . S
H2276 C2286 0.930 . S
H2277 C2287 0.930 . S
C2278 H2272 0.930 . S
C2278 C2279 1.355 . S
C2278 C2280 1.415 . S
C2279 C2278 1.355 . S
C2279 C2281 1.419 . S
C2280 C2278 1.415 . S
C2280 C2285 1.425 . S
C2280 C2287 1.409 . S
C2281 H2273 0.930 . S
C2281 C2279 1.419 . S
C2281 C2282 1.362 . S
C2282 H2274 0.930 . S
C2282 C2281 1.362 . S
C2282 C2285 1.409 . S
C2283 H2275 0.930 . S
C2283 C2284 1.355 . S
C2283 C2285 1.415 . S
C2284 C2283 1.355 . S
C2284 C2286 1.419 . S
C2285 C2280 1.425 . S
C2285 C2282 1.409 . S
C2285 C2283 1.415 . S
C2286 H2276 0.930 . S
C2286 C2284 1.419 . S
C2286 C2287 1.362 . S
C2287 H2277 0.930 . S
C2287 C2280 1.409 . S
C2287 C2286 1.362 . S
H2288 C2294 0.930 . S
H2289 C2297 0.930 . S
H2290 C2298 0.930 . S
H2291 C2299 0.930 . S
H2292 C2302 0.930 . S
H2293 C2303 0.930 . S
C2294 H2288 0.930 . S
C2294 C2295 1.355 . S
C2294 C2296 1.415 . S
C2295 C2294 1.355 . S
C2295 C2297 1.419 . S
C2296 C2294 1.415 . S
C2296 C2301 1.425 . S
C2296 C2303 1.409 . S
C2297 H2289 0.930 . S
C2297 C2295 1.419 . S
C2297 C2298 1.362 . S
C2298 H2290 0.930 . S
C2298 C2297 1.362 . S
C2298 C2301 1.409 . S
C2299 H2291 0.930 . S
C2299 C2300 1.355 . S
C2299 C2301 1.415 . S
C2300 C2299 1.355 . S
C2300 C2302 1.419 . S
C2301 C2296 1.425 . S
C2301 C2298 1.409 . S
C2301 C2299 1.415 . S
C2302 H2292 0.930 . S
C2302 C2300 1.419 . S
C2302 C2303 1.362 . S
C2303 H2293 0.930 . S
C2303 C2296 1.409 . S
C2303 C2302 1.362 . S
H2304 C2310 0.930 . S
H2305 C2313 0.930 . S
H2306 C2314 0.930 . S
H2307 C2315 0.930 . S
H2308 C2318 0.930 . S
H2309 C2319 0.930 . S
C2310 H2304 0.930 . S
C2310 C2311 1.355 . S
C2310 C2312 1.415 . S
C2311 C2310 1.355 . S
C2311 C2313 1.419 . S
C2312 C2310 1.415 . S
C2312 C2317 1.425 . S
C2312 C2319 1.409 . S
C2313 H2305 0.930 . S
C2313 C2311 1.419 . S
C2313 C2314 1.362 . S
C2314 H2306 0.930 . S
C2314 C2313 1.362 . S
C2314 C2317 1.409 . S
C2315 H2307 0.930 . S
C2315 C2316 1.355 . S
C2315 C2317 1.415 . S
C2316 C2315 1.355 . S
C2316 C2318 1.419 . S
C2317 C2312 1.425 . S
C2317 C2314 1.409 . S
C2317 C2315 1.415 . S
C2318 H2308 0.930 . S
C2318 C2316 1.419 . S
C2318 C2319 1.362 . S
C2319 H2309 0.930 . S
C2319 C2312 1.409 . S
C2319 C2318 1.362 . S
H2320 C2326 0.930 . S
H2321 C2329 0.930 . S
H2322 C2330 0.930 . S
H2323 C2331 0.930 . S
H2324 C2334 0.930 . S
H2325 C2335 0.930 . S
C2326 H2320 0.930 . S
C2326 C2327 1.355 . S
C2326 C2328 1.415 . S
C2327 C2326 1.355 . S
C2327 C2329 1.419 . S
C2328 C2326 1.415 . S
C2328 C2333 1.425 . S
C2328 C2335 1.409 . S
C2329 H2321 0.930 . S
C2329 C2327 1.419 . S
C2329 C2330 1.362 . S
C2330 H2322 0.930 . S
C2330 C2329 1.362 . S
C2330 C2333 1.409 . S
C2331 H2323 0.930 . S
C2331 C2332 1.355 . S
C2331 C2333 1.415 . S
C2332 C2331 1.355 . S
C2332 C2334 1.419 . S
C2333 C2328 1.425 . S
C2333 C2330 1.409 . S
C2333 C2331 1.415 . S
C2334 H2324 0.930 . S
C2334 C2332 1.419 . S
C2334 C2335 1.362 . S
C2335 H2325 0.930 . S
C2335 C2328 1.409 . S
C2335 C2334 1.362 . S
H2336 C2342 0.930 . S
H2337 C2345 0.930 . S
H2338 C2346 0.930 . S
H2339 C2347 0.930 . S
H2340 C2350 0.930 . S
H2341 C2351 0.930 . S
C2342 H2336 0.930 . S
C2342 C2343 1.355 . S
C2342 C2344 1.415 . S
C2343 C2342 1.355 . S
C2343 C2345 1.419 . S
C2344 C2342 1.415 . S
C2344 C2349 1.425 . S
C2344 C2351 1.409 . S
C2345 H2337 0.930 . S
C2345 C2343 1.419 . S
C2345 C2346 1.362 . S
C2346 H2338 0.930 . S
C2346 C2345 1.362 . S
C2346 C2349 1.409 . S
C2347 H2339 0.930 . S
C2347 C2348 1.355 . S
C2347 C2349 1.415 . S
C2348 C2347 1.355 . S
C2348 C2350 1.419 . S
C2349 C2344 1.425 . S
C2349 C2346 1.409 . S
C2349 C2347 1.415 . S
C2350 H2340 0.930 . S
C2350 C2348 1.419 . S
C2350 C2351 1.362 . S
C2351 H2341 0.930 . S
C2351 C2344 1.409 . S
C2351 C2350 1.362 . S
H2352 C2358 0.930 . S
H2353 C2361 0.930 . S
H2354 C2362 0.930 . S
H2355 C2363 0.930 . S
H2356 C2366 0.930 . S
H2357 C2367 0.930 . S
C2358 H2352 0.930 . S
C2358 C2359 1.355 . S
C2358 C2360 1.415 . S
C2359 C2358 1.355 . S
C2359 C2361 1.419 . S
C2360 C2358 1.415 . S
C2360 C2365 1.425 . S
C2360 C2367 1.409 1_455 S
C2361 H2353 0.930 . S
C2361 C2359 1.419 . S
C2361 C2362 1.362 . S
C2362 H2354 0.930 . S
C2362 C2361 1.362 . S
C2362 C2365 1.409 . S
C2363 H2355 0.930 . S
C2363 C2364 1.355 . S
C2363 C2365 1.415 . S
C2364 C2363 1.355 . S
C2364 C2366 1.419 1_455 S
C2365 C2360 1.425 . S
C2365 C2362 1.409 . S
C2365 C2363 1.415 . S
C2366 H2356 0.930 . S
C2366 C2364 1.419 1_655 S
C2366 C2367 1.362 . S
C2367 H2357 0.930 . S
C2367 C2360 1.409 1_655 S
C2367 C2366 1.362 . S
H2368 C2374 0.930 . S
H2369 C2377 0.930 . S
H2370 C2378 0.930 . S
H2371 C2379 0.930 . S
H2372 C2382 0.930 . S
H2373 C2383 0.930 . S
C2374 H2368 0.930 . S
C2374 C2375 1.355 . S
C2374 C2376 1.415 . S
C2375 C2374 1.355 . S
C2375 C2377 1.419 . S
C2376 C2374 1.415 . S
C2376 C2381 1.425 . S
C2376 C2383 1.409 . S
C2377 H2369 0.930 . S
C2377 C2375 1.419 . S
C2377 C2378 1.362 . S
C2378 H2370 0.930 . S
C2378 C2377 1.362 . S
C2378 C2381 1.409 . S
C2379 H2371 0.930 . S
C2379 C2380 1.355 . S
C2379 C2381 1.415 . S
C2380 C2379 1.355 . S
C2380 C2382 1.419 . S
C2381 C2376 1.425 . S
C2381 C2378 1.409 . S
C2381 C2379 1.415 . S
C2382 H2372 0.930 . S
C2382 C2380 1.419 . S
C2382 C2383 1.362 . S
C2383 H2373 0.930 . S
C2383 C2376 1.409 . S
C2383 C2382 1.362 . S
H2384 C2390 0.930 . S
H2385 C2393 0.930 . S
H2386 C2394 0.930 . S
H2387 C2395 0.930 . S
H2388 C2398 0.930 . S
H2389 C2399 0.930 . S
C2390 H2384 0.930 . S
C2390 C2391 1.355 . S
C2390 C2392 1.415 . S
C2391 C2390 1.355 . S
C2391 C2393 1.419 . S
C2392 C2390 1.415 . S
C2392 C2397 1.425 . S
C2392 C2399 1.409 . S
C2393 H2385 0.930 . S
C2393 C2391 1.419 . S
C2393 C2394 1.362 . S
C2394 H2386 0.930 . S
C2394 C2393 1.362 . S
C2394 C2397 1.409 . S
C2395 H2387 0.930 . S
C2395 C2396 1.355 . S
C2395 C2397 1.415 . S
C2396 C2395 1.355 . S
C2396 C2398 1.419 . S
C2397 C2392 1.425 . S
C2397 C2394 1.409 . S
C2397 C2395 1.415 . S
C2398 H2388 0.930 . S
C2398 C2396 1.419 . S
C2398 C2399 1.362 . S
C2399 H2389 0.930 . S
C2399 C2392 1.409 . S
C2399 C2398 1.362 . S
H2400 C2406 0.930 . S
H2401 C2409 0.930 . S
H2402 C2410 0.930 1_545 S
H2403 C2411 0.930 . S
H2404 C2414 0.930 . S
H2405 C2415 0.930 . S
C2406 H2400 0.930 . S
C2406 C2407 1.355 . S
C2406 C2408 1.415 . S
C2407 C2406 1.355 . S
C2407 C2409 1.419 . S
C2408 C2406 1.415 . S
C2408 C2413 1.425 . S
C2408 C2415 1.409 . S
C2409 H2401 0.930 . S
C2409 C2407 1.419 . S
C2409 C2410 1.362 . S
C2410 H2402 0.930 1_565 S
C2410 C2409 1.362 . S
C2410 C2413 1.409 . S
C2411 H2403 0.930 . S
C2411 C2412 1.355 . S
C2411 C2413 1.415 1_545 S
C2412 C2411 1.355 . S
C2412 C2414 1.419 1_545 S
C2413 C2408 1.425 . S
C2413 C2410 1.409 . S
C2413 C2411 1.415 1_565 S
C2414 H2404 0.930 . S
C2414 C2412 1.419 1_565 S
C2414 C2415 1.362 . S
C2415 H2405 0.930 . S
C2415 C2408 1.409 . S
C2415 C2414 1.362 . S
H2416 C2422 0.930 . S
H2417 C2425 0.930 . S
H2418 C2426 0.930 . S
H2419 C2427 0.930 . S
H2420 C2430 0.930 . S
H2421 C2431 0.930 . S
C2422 H2416 0.930 . S
C2422 C2423 1.355 . S
C2422 C2424 1.415 . S
C2423 C2422 1.355 . S
C2423 C2425 1.419 . S
C2424 C2422 1.415 . S
C2424 C2429 1.425 . S
C2424 C2431 1.409 . S
C2425 H2417 0.930 . S
C2425 C2423 1.419 . S
C2425 C2426 1.362 . S
C2426 H2418 0.930 . S
C2426 C2425 1.362 . S
C2426 C2429 1.409 . S
C2427 H2419 0.930 . S
C2427 C2428 1.355 . S
C2427 C2429 1.415 . S
C2428 C2427 1.355 . S
C2428 C2430 1.419 . S
C2429 C2424 1.425 . S
C2429 C2426 1.409 . S
C2429 C2427 1.415 . S
C2430 H2420 0.930 . S
C2430 C2428 1.419 . S
C2430 C2431 1.362 . S
C2431 H2421 0.930 . S
C2431 C2424 1.409 . S
C2431 C2430 1.362 . S
H2432 C2438 0.930 . S
H2433 C2441 0.930 . S
H2434 C2442 0.930 . S
H2435 C2443 0.930 . S
H2436 C2446 0.930 . S
H2437 C2447 0.930 . S
C2438 H2432 0.930 . S
C2438 C2439 1.355 1_554 S
C2438 C2440 1.415 . S
C2439 C2438 1.355 1_556 S
C2439 C2441 1.419 . S
C2440 C2438 1.415 . S
C2440 C2445 1.425 1_554 S
C2440 C2447 1.409 . S
C2441 H2433 0.930 . S
C2441 C2439 1.419 . S
C2441 C2442 1.362 . S
C2442 H2434 0.930 . S
C2442 C2441 1.362 . S
C2442 C2445 1.409 . S
C2443 H2435 0.930 . S
C2443 C2444 1.355 1_556 S
C2443 C2445 1.415 . S
C2444 C2443 1.355 1_554 S
C2444 C2446 1.419 . S
C2445 C2440 1.425 1_556 S
C2445 C2442 1.409 . S
C2445 C2443 1.415 . S
C2446 H2436 0.930 . S
C2446 C2444 1.419 . S
C2446 C2447 1.362 . S
C2447 H2437 0.930 . S
C2447 C2440 1.409 . S
C2447 C2446 1.362 . S
H2448 C2454 0.930 . S
H2449 C2457 0.930 . S
H2450 C2458 0.930 . S
H2451 C2459 0.930 . S
H2452 C2462 0.930 . S
H2453 C2463 0.930 . S
C2454 H2448 0.930 . S
C2454 C2455 1.355 . S
C2454 C2456 1.415 . S
C2455 C2454 1.355 . S
C2455 C2457 1.419 . S
C2456 C2454 1.415 . S
C2456 C2461 1.425 . S
C2456 C2463 1.409 . S
C2457 H2449 0.930 . S
C2457 C2455 1.419 . S
C2457 C2458 1.362 . S
C2458 H2450 0.930 . S
C2458 C2457 1.362 . S
C2458 C2461 1.409 . S
C2459 H2451 0.930 . S
C2459 C2460 1.355 . S
C2459 C2461 1.415 . S
C2460 C2459 1.355 . S
C2460 C2462 1.419 . S
C2461 C2456 1.425 . S
C2461 C2458 1.409 . S
C2461 C2459 1.415 . S
C2462 H2452 0.930 . S
C2462 C2460 1.419 . S
C2462 C2463 1.362 . S
C2463 H2453 0.930 . S
C2463 C2456 1.409 . S
C2463 C2462 1.362 . S
H2464 C2470 0.930 . S
H2465 C2473 0.930 . S
H2466 C2474 0.930 . S
H2467 C2475 0.930 . S
H2468 C2478 0.930 . S
H2469 C2479 0.930 . S
C2470 H2464 0.930 . S
C2470 C2471 1.355 . S
C2470 C2472 1.415 . S
C2471 C2470 1.355 . S
C2471 C2473 1.419 . S
C2472 C2470 1.415 . S
C2472 C2477 1.425 . S
C2472 C2479 1.409 . S
C2473 H2465 0.930 . S
C2473 C2471 1.419 . S
C2473 C2474 1.362 . S
C2474 H2466 0.930 . S
C2474 C2473 1.362 . S
C2474 C2477 1.409 . S
C2475 H2467 0.930 . S
C2475 C2476 1.355 . S
C2475 C2477 1.415 . S
C2476 C2475 1.355 . S
C2476 C2478 1.419 . S
C2477 C2472 1.425 . S
C2477 C2474 1.409 . S
C2477 C2475 1.415 . S
C2478 H2468 0.930 . S
C2478 C2476 1.419 . S
C2478 C2479 1.362 . S
C2479 H2469 0.930 . S
C2479 C2472 1.409 . S
C2479 C2478 1.362 . S
H2480 C2486 0.930 . S
H2481 C2489 0.930 . S
H2482 C2490 0.930 . S
H2483 C2491 0.930 . S
H2484 C2494 0.930 . S
H2485 C2495 0.930 . S
C2486 H2480 0.930 . S
C2486 C2487 1.355 . S
C2486 C2488 1.415 . S
C2487 C2486 1.355 . S
C2487 C2489 1.419 . S
C2488 C2486 1.415 . S
C2488 C2493 1.425 . S
C2488 C2495 1.409 . S
C2489 H2481 0.930 . S
C2489 C2487 1.419 . S
C2489 C2490 1.362 . S
C2490 H2482 0.930 . S
C2490 C2489 1.362 . S
C2490 C2493 1.409 . S
C2491 H2483 0.930 . S
C2491 C2492 1.355 . S
C2491 C2493 1.415 . S
C2492 C2491 1.355 . S
C2492 C2494 1.419 . S
C2493 C2488 1.425 . S
C2493 C2490 1.409 . S
C2493 C2491 1.415 . S
C2494 H2484 0.930 . S
C2494 C2492 1.419 . S
C2494 C2495 1.362 . S
C2495 H2485 0.930 . S
C2495 C2488 1.409 . S
C2495 C2494 1.362 . S
H2496 C2502 0.930 . S
H2497 C2505 0.930 . S
H2498 C2506 0.930 . S
H2499 C2507 0.930 . S
H2500 C2510 0.930 . S
H2501 C2511 0.930 . S
C2502 H2496 0.930 . S
C2502 C2503 1.355 . S
C2502 C2504 1.415 . S
C2503 C2502 1.355 . S
C2503 C2505 1.419 . S
C2504 C2502 1.415 . S
C2504 C2509 1.425 . S
C2504 C2511 1.409 . S
C2505 H2497 0.930 . S
C2505 C2503 1.419 . S
C2505 C2506 1.362 . S
C2506 H2498 0.930 . S
C2506 C2505 1.362 . S
C2506 C2509 1.409 . S
C2507 H2499 0.930 . S
C2507 C2508 1.355 . S
C2507 C2509 1.415 . S
C2508 C2507 1.355 . S
C2508 C2510 1.419 . S
C2509 C2504 1.425 . S
C2509 C2506 1.409 . S
C2509 C2507 1.415 . S
C2510 H2500 0.930 . S
C2510 C2508 1.419 . S
C2510 C2511 1.362 . S
C2511 H2501 0.930 . S
C2511 C2504 1.409 . S
C2511 C2510 1.362 . S
C983 C111 1.737 1_455 S
C988 C358 1.782 . S
C999 C64 1.316 . S
C1004 C378 1.378 . S
C1015 C77 0.698 . S
C1020 C425 0.734 . S
C1036 C482 0.968 . S
C1031 C95 1.008 . S
C1047 C25 2.406 . S
C1052 C499 2.394 . S
C1068 C558 1.890 . S
C1063 C36 1.843 . S
C1084 C591 2.694 . S
C1079 C50 2.592 . S
C1095 C11 2.437 . S
C1100 C638 2.417 . S
C1116 C351 1.643 . S
C1111 C237 1.491 1_545 S
C1127 C245 1.445 . S
C1132 C379 1.405 . S
C1148 C418 0.507 . S
C1143 C279 0.600 1_565 S
C1164 C478 2.129 . S
C1159 C175 2.117 . S
C1175 C231 0.446 . S
C1180 C505 0.459 . S
C1196 C551 2.159 . S
C1191 C251 2.145 . S
C1212 C602 0.842 . S
C1207 C273 0.840 . S
C1228 C631 2.285 . S
C1223 C181 2.115 . S
C1244 C362 1.855 1_565 S
C1239 C165 1.961 . S
C1255 C288 2.101 . S
C1260 C658 2.181 . S
C1276 C722 1.284 . S
C1271 C333 1.315 . S
C1292 C758 1.430 . S
C1287 C316 1.484 . S
C1303 C123 1.572 . S
C1308 C642 1.496 . S
C1319 C137 2.472 . S
C1324 C419 2.471 . S
C1335 C330 1.266 . S
C1340 C791 1.436 . S
C1356 C825 0.422 . S
C1351 C302 0.533 . S
C1372 C339 1.941 . S
C1367 C63 1.928 . S
C1388 C831 1.476 . S
C1383 C106 1.547 . S
C1399 C97 0.827 . S
C1404 C442 0.747 . S
C1415 C81 1.072 . S
C1420 C785 1.092 . S
C1436 C518 2.545 . S
C1431 C13 2.451 . S
C1447 C55 1.731 . S
C1452 C699 1.880 . S
C1468 C578 2.614 1_566 S
C1463 C35 2.638 . S
C1484 C859 2.572 . S
C1479 C21 2.589 1_655 S
C1500 C338 1.636 . S
C1495 C147 1.637 . S
C1516 C838 1.615 . S
C1511 C321 1.598 . S
C1527 C119 0.647 . S
C1532 C431 0.668 . S
C1543 C293 2.097 . S
C1548 C779 2.231 . S
C1559 C153 0.639 . S
C1564 C522 0.512 . S
C1580 C698 2.296 . S
C1575 C315 2.306 . S
C1591 C125 0.681 . S
C1596 C585 0.737 . S
C1607 C287 2.370 . S
C1612 C858 2.355 . S
C1623 C193 1.826 1_556 S
C1628 C345 1.784 . S
C1639 C176 2.125 . S
C1644 C671 2.160 . S
C1655 C263 1.294 . S
C1660 C545 1.369 . S
C1671 C246 1.492 . S
C1676 C739 1.520 . S
C1692 C865 1.386 . S
C1687 C277 1.361 . S
C1703 C221 2.536 . S
C1708 C438 2.540 1_565 S
C1724 C458 1.494 . S
C1719 C260 1.454 . S
C1740 C402 0.637 . S
C1735 C204 0.525 . S
C1751 C83 1.816 . S
C1756 C918 1.836 . S
C1772 C818 1.293 . S
C1767 C92 1.230 . S
C1783 C105 0.640 . S
C1788 C945 0.610 . S
C1799 C67 1.017 . S
C1804 C802 1.016 . S
C1815 C53 2.376 . S
C1820 C659 2.395 . S
C1836 C718 1.900 . S
C1831 C8 1.854 1_655 S
C1852 C751 2.696 . S
C1847 C22 2.608 . S
C1868 C878 2.359 . S
C1863 C39 2.404 . S
C1884 C911 1.583 . S
C1879 C265 1.435 . S
C1895 C189 1.426 . S
C1900 C819 1.389 . S
C1916 C938 0.519 . S
C1911 C209 0.610 . S
C1932 C798 2.127 . S
C1927 C217 2.116 . S
C1948 C665 0.453 . S
C1943 C259 0.434 . S
C1959 C195 2.127 . S
C1964 C711 2.190 . S
C1980 C762 0.778 . S
C1975 C203 0.769 . S
C1991 C223 2.169 . S
C1996 C871 2.255 . S
C2012 C922 1.833 . S
C2007 C319 1.958 . S
C2023 C134 2.110 . S
C2028 C498 2.175 . S
C2044 C562 1.285 . S
C2039 C151 1.320 . S
C2060 C598 1.477 . S
C2055 C162 1.476 . S
C2076 C882 1.402 . S
C2071 C305 1.435 . S
C2087 C291 2.479 . S
C2092 C939 2.489 1_655 S
C2108 C471 1.462 . S
C2103 C148 1.294 . S
C2124 C385 0.486 . S
C2119 C120 0.488 . S
C2135 C91 1.909 . S
C2140 C899 1.930 . S
C2156 C391 1.355 . S
C2151 C78 1.422 . S
C2167 C69 0.834 . S
C2172 C962 0.748 . S
C2183 C109 0.977 . S
C2188 C465 0.986 . S
C2199 C41 2.448 . S
C2204 C678 2.538 . S
C2220 C539 1.895 . S
C2215 C27 1.773 . S
C2231 C7 2.665 . S
C2236 C738 2.656 . S
C2247 C49 2.554 . S
C2252 C619 2.522 . S
C2268 C898 1.648 . S
C2263 C329 1.604 . S
C2279 C167 1.548 . S
C2284 C398 1.574 . S
C2300 C951 0.685 . S
C2295 C301 0.665 . S
C2311 C139 2.116 . S
C2316 C459 2.243 . S
C2327 C335 0.454 . S
C2332 C682 0.573 . S
C2348 C538 2.304 . S
C2343 C161 2.329 1_556 S
C2359 C307 0.779 . S
C2364 C745 0.789 . S
C2380 C618 2.351 . S
C2375 C133 2.370 . S
C2396 C905 1.803 . S
C2391 C249 1.853 . S
C2412 C511 2.161 1_655 S
C2407 C218 2.198 . S
C2423 C235 1.330 . S
C2428 C705 1.391 . S
C2444 C579 1.501 . S
C2439 C190 1.487 . S
C2455 C207 1.460 . S
C2460 C625 1.473 . S
C2471 C179 2.556 . S
C2476 C958 2.559 . S
C2492 C778 1.527 . S
C2487 C232 1.521 . S
C2508 C842 0.661 . S
C2503 C274 0.576 . S
