# Generated by pormake.
# Topology gar, (4,6)-cn, num edge types: 1
# Building blocks:
#     Node 0, Type 0, BuildingBlock: QUQFOY_clean_sbu_3, # of connection points: 4
#     Node 1, Type 0, BuildingBlock: QUQFOY_clean_sbu_3, # of connection points: 4
#     Node 2, Type 0, BuildingBlock: QUQFOY_clean_sbu_3, # of connection points: 4
#     Node 3, Type 0, BuildingBlock: QUQFOY_clean_sbu_3, # of connection points: 4
#     Node 4, Type 0, BuildingBlock: QUQFOY_clean_sbu_3, # of connection points: 4
#     Node 5, Type 0, BuildingBlock: QUQFOY_clean_sbu_3, # of connection points: 4
#     Node 6, Type 0, BuildingBlock: QUQFOY_clean_sbu_3, # of connection points: 4
#     Node 7, Type 0, BuildingBlock: QUQFOY_clean_sbu_3, # of connection points: 4
#     Node 8, Type 0, BuildingBlock: QUQFOY_clean_sbu_3, # of connection points: 4
#     Node 9, Type 0, BuildingBlock: QUQFOY_clean_sbu_3, # of connection points: 4
#     Node 10, Type 0, BuildingBlock: QUQFOY_clean_sbu_3, # of connection points: 4
#     Node 11, Type 0, BuildingBlock: QUQFOY_clean_sbu_3, # of connection points: 4
#     Node 12, Type 0, BuildingBlock: QUQFOY_clean_sbu_3, # of connection points: 4
#     Node 13, Type 0, BuildingBlock: QUQFOY_clean_sbu_3, # of connection points: 4
#     Node 14, Type 0, BuildingBlock: QUQFOY_clean_sbu_3, # of connection points: 4
#     Node 15, Type 0, BuildingBlock: QUQFOY_clean_sbu_3, # of connection points: 4
#     Node 16, Type 0, BuildingBlock: QUQFOY_clean_sbu_3, # of connection points: 4
#     Node 17, Type 0, BuildingBlock: QUQFOY_clean_sbu_3, # of connection points: 4
#     Node 18, Type 0, BuildingBlock: QUQFOY_clean_sbu_3, # of connection points: 4
#     Node 19, Type 0, BuildingBlock: QUQFOY_clean_sbu_3, # of connection points: 4
#     Node 20, Type 0, BuildingBlock: QUQFOY_clean_sbu_3, # of connection points: 4
#     Node 21, Type 0, BuildingBlock: QUQFOY_clean_sbu_3, # of connection points: 4
#     Node 22, Type 0, BuildingBlock: QUQFOY_clean_sbu_3, # of connection points: 4
#     Node 23, Type 0, BuildingBlock: QUQFOY_clean_sbu_3, # of connection points: 4
#     Node 24, Type 1, BuildingBlock: HISSIN_clean_sbu_0, # of connection points: 6
#     Node 25, Type 1, BuildingBlock: HISSIN_clean_sbu_0, # of connection points: 6
#     Node 26, Type 1, BuildingBlock: HISSIN_clean_sbu_0, # of connection points: 6
#     Node 27, Type 1, BuildingBlock: HISSIN_clean_sbu_0, # of connection points: 6
#     Node 28, Type 1, BuildingBlock: HISSIN_clean_sbu_0, # of connection points: 6
#     Node 29, Type 1, BuildingBlock: HISSIN_clean_sbu_0, # of connection points: 6
#     Node 30, Type 1, BuildingBlock: HISSIN_clean_sbu_0, # of connection points: 6
#     Node 31, Type 1, BuildingBlock: HISSIN_clean_sbu_0, # of connection points: 6
#     Node 32, Type 1, BuildingBlock: HISSIN_clean_sbu_0, # of connection points: 6
#     Node 33, Type 1, BuildingBlock: HISSIN_clean_sbu_0, # of connection points: 6
#     Node 34, Type 1, BuildingBlock: HISSIN_clean_sbu_0, # of connection points: 6
#     Node 35, Type 1, BuildingBlock: HISSIN_clean_sbu_0, # of connection points: 6
#     Node 36, Type 1, BuildingBlock: HISSIN_clean_sbu_0, # of connection points: 6
#     Node 37, Type 1, BuildingBlock: HISSIN_clean_sbu_0, # of connection points: 6
#     Node 38, Type 1, BuildingBlock: HISSIN_clean_sbu_0, # of connection points: 6
#     Node 39, Type 1, BuildingBlock: HISSIN_clean_sbu_0, # of connection points: 6
#     Edge 40, Type (0, 1), BuildingBlock: UVAHIK_clean_linker_0, # of connection points: 2
#     Edge 41, Type (0, 1), BuildingBlock: UVAHIK_clean_linker_0, # of connection points: 2
#     Edge 42, Type (0, 1), BuildingBlock: UVAHIK_clean_linker_0, # of connection points: 2
#     Edge 43, Type (0, 1), BuildingBlock: UVAHIK_clean_linker_0, # of connection points: 2
#     Edge 44, Type (0, 1), BuildingBlock: UVAHIK_clean_linker_0, # of connection points: 2
#     Edge 45, Type (0, 1), BuildingBlock: UVAHIK_clean_linker_0, # of connection points: 2
#     Edge 46, Type (0, 1), BuildingBlock: UVAHIK_clean_linker_0, # of connection points: 2
#     Edge 47, Type (0, 1), BuildingBlock: UVAHIK_clean_linker_0, # of connection points: 2
#     Edge 48, Type (0, 1), BuildingBlock: UVAHIK_clean_linker_0, # of connection points: 2
#     Edge 49, Type (0, 1), BuildingBlock: UVAHIK_clean_linker_0, # of connection points: 2
#     Edge 50, Type (0, 1), BuildingBlock: UVAHIK_clean_linker_0, # of connection points: 2
#     Edge 51, Type (0, 1), BuildingBlock: UVAHIK_clean_linker_0, # of connection points: 2
#     Edge 52, Type (0, 1), BuildingBlock: UVAHIK_clean_linker_0, # of connection points: 2
#     Edge 53, Type (0, 1), BuildingBlock: UVAHIK_clean_linker_0, # of connection points: 2
#     Edge 54, Type (0, 1), BuildingBlock: UVAHIK_clean_linker_0, # of connection points: 2
#     Edge 55, Type (0, 1), BuildingBlock: UVAHIK_clean_linker_0, # of connection points: 2
#     Edge 56, Type (0, 1), BuildingBlock: UVAHIK_clean_linker_0, # of connection points: 2
#     Edge 57, Type (0, 1), BuildingBlock: UVAHIK_clean_linker_0, # of connection points: 2
#     Edge 58, Type (0, 1), BuildingBlock: UVAHIK_clean_linker_0, # of connection points: 2
#     Edge 59, Type (0, 1), BuildingBlock: UVAHIK_clean_linker_0, # of connection points: 2
#     Edge 60, Type (0, 1), BuildingBlock: UVAHIK_clean_linker_0, # of connection points: 2
#     Edge 61, Type (0, 1), BuildingBlock: UVAHIK_clean_linker_0, # of connection points: 2
#     Edge 62, Type (0, 1), BuildingBlock: UVAHIK_clean_linker_0, # of connection points: 2
#     Edge 63, Type (0, 1), BuildingBlock: UVAHIK_clean_linker_0, # of connection points: 2
#     Edge 64, Type (0, 1), BuildingBlock: UVAHIK_clean_linker_0, # of connection points: 2
#     Edge 65, Type (0, 1), BuildingBlock: UVAHIK_clean_linker_0, # of connection points: 2
#     Edge 66, Type (0, 1), BuildingBlock: UVAHIK_clean_linker_0, # of connection points: 2
#     Edge 67, Type (0, 1), BuildingBlock: UVAHIK_clean_linker_0, # of connection points: 2
#     Edge 68, Type (0, 1), BuildingBlock: UVAHIK_clean_linker_0, # of connection points: 2
#     Edge 69, Type (0, 1), BuildingBlock: UVAHIK_clean_linker_0, # of connection points: 2
#     Edge 70, Type (0, 1), BuildingBlock: UVAHIK_clean_linker_0, # of connection points: 2
#     Edge 71, Type (0, 1), BuildingBlock: UVAHIK_clean_linker_0, # of connection points: 2
#     Edge 72, Type (0, 1), BuildingBlock: UVAHIK_clean_linker_0, # of connection points: 2
#     Edge 73, Type (0, 1), BuildingBlock: UVAHIK_clean_linker_0, # of connection points: 2
#     Edge 74, Type (0, 1), BuildingBlock: UVAHIK_clean_linker_0, # of connection points: 2
#     Edge 75, Type (0, 1), BuildingBlock: UVAHIK_clean_linker_0, # of connection points: 2
#     Edge 76, Type (0, 1), BuildingBlock: UVAHIK_clean_linker_0, # of connection points: 2
#     Edge 77, Type (0, 1), BuildingBlock: UVAHIK_clean_linker_0, # of connection points: 2
#     Edge 78, Type (0, 1), BuildingBlock: UVAHIK_clean_linker_0, # of connection points: 2
#     Edge 79, Type (0, 1), BuildingBlock: UVAHIK_clean_linker_0, # of connection points: 2
#     Edge 80, Type (0, 1), BuildingBlock: UVAHIK_clean_linker_0, # of connection points: 2
#     Edge 81, Type (0, 1), BuildingBlock: UVAHIK_clean_linker_0, # of connection points: 2
#     Edge 82, Type (0, 1), BuildingBlock: UVAHIK_clean_linker_0, # of connection points: 2
#     Edge 83, Type (0, 1), BuildingBlock: UVAHIK_clean_linker_0, # of connection points: 2
#     Edge 84, Type (0, 1), BuildingBlock: UVAHIK_clean_linker_0, # of connection points: 2
#     Edge 85, Type (0, 1), BuildingBlock: UVAHIK_clean_linker_0, # of connection points: 2
#     Edge 86, Type (0, 1), BuildingBlock: UVAHIK_clean_linker_0, # of connection points: 2
#     Edge 87, Type (0, 1), BuildingBlock: UVAHIK_clean_linker_0, # of connection points: 2
#     Edge 88, Type (0, 1), BuildingBlock: UVAHIK_clean_linker_0, # of connection points: 2
#     Edge 89, Type (0, 1), BuildingBlock: UVAHIK_clean_linker_0, # of connection points: 2
#     Edge 90, Type (0, 1), BuildingBlock: UVAHIK_clean_linker_0, # of connection points: 2
#     Edge 91, Type (0, 1), BuildingBlock: UVAHIK_clean_linker_0, # of connection points: 2
#     Edge 92, Type (0, 1), BuildingBlock: UVAHIK_clean_linker_0, # of connection points: 2
#     Edge 93, Type (0, 1), BuildingBlock: UVAHIK_clean_linker_0, # of connection points: 2
#     Edge 94, Type (0, 1), BuildingBlock: UVAHIK_clean_linker_0, # of connection points: 2
#     Edge 95, Type (0, 1), BuildingBlock: UVAHIK_clean_linker_0, # of connection points: 2
#     Edge 96, Type (0, 1), BuildingBlock: UVAHIK_clean_linker_0, # of connection points: 2
#     Edge 97, Type (0, 1), BuildingBlock: UVAHIK_clean_linker_0, # of connection points: 2
#     Edge 98, Type (0, 1), BuildingBlock: UVAHIK_clean_linker_0, # of connection points: 2
#     Edge 99, Type (0, 1), BuildingBlock: UVAHIK_clean_linker_0, # of connection points: 2
#     Edge 100, Type (0, 1), BuildingBlock: UVAHIK_clean_linker_0, # of connection points: 2
#     Edge 101, Type (0, 1), BuildingBlock: UVAHIK_clean_linker_0, # of connection points: 2
#     Edge 102, Type (0, 1), BuildingBlock: UVAHIK_clean_linker_0, # of connection points: 2
#     Edge 103, Type (0, 1), BuildingBlock: UVAHIK_clean_linker_0, # of connection points: 2
#     Edge 104, Type (0, 1), BuildingBlock: UVAHIK_clean_linker_0, # of connection points: 2
#     Edge 105, Type (0, 1), BuildingBlock: UVAHIK_clean_linker_0, # of connection points: 2
#     Edge 106, Type (0, 1), BuildingBlock: UVAHIK_clean_linker_0, # of connection points: 2
#     Edge 107, Type (0, 1), BuildingBlock: UVAHIK_clean_linker_0, # of connection points: 2
#     Edge 108, Type (0, 1), BuildingBlock: UVAHIK_clean_linker_0, # of connection points: 2
#     Edge 109, Type (0, 1), BuildingBlock: UVAHIK_clean_linker_0, # of connection points: 2
#     Edge 110, Type (0, 1), BuildingBlock: UVAHIK_clean_linker_0, # of connection points: 2
#     Edge 111, Type (0, 1), BuildingBlock: UVAHIK_clean_linker_0, # of connection points: 2
#     Edge 112, Type (0, 1), BuildingBlock: UVAHIK_clean_linker_0, # of connection points: 2
#     Edge 113, Type (0, 1), BuildingBlock: UVAHIK_clean_linker_0, # of connection points: 2
#     Edge 114, Type (0, 1), BuildingBlock: UVAHIK_clean_linker_0, # of connection points: 2
#     Edge 115, Type (0, 1), BuildingBlock: UVAHIK_clean_linker_0, # of connection points: 2
#     Edge 116, Type (0, 1), BuildingBlock: UVAHIK_clean_linker_0, # of connection points: 2
#     Edge 117, Type (0, 1), BuildingBlock: UVAHIK_clean_linker_0, # of connection points: 2
#     Edge 118, Type (0, 1), BuildingBlock: UVAHIK_clean_linker_0, # of connection points: 2
#     Edge 119, Type (0, 1), BuildingBlock: UVAHIK_clean_linker_0, # of connection points: 2
#     Edge 120, Type (0, 1), BuildingBlock: UVAHIK_clean_linker_0, # of connection points: 2
#     Edge 121, Type (0, 1), BuildingBlock: UVAHIK_clean_linker_0, # of connection points: 2
#     Edge 122, Type (0, 1), BuildingBlock: UVAHIK_clean_linker_0, # of connection points: 2
#     Edge 123, Type (0, 1), BuildingBlock: UVAHIK_clean_linker_0, # of connection points: 2
#     Edge 124, Type (0, 1), BuildingBlock: UVAHIK_clean_linker_0, # of connection points: 2
#     Edge 125, Type (0, 1), BuildingBlock: UVAHIK_clean_linker_0, # of connection points: 2
#     Edge 126, Type (0, 1), BuildingBlock: UVAHIK_clean_linker_0, # of connection points: 2
#     Edge 127, Type (0, 1), BuildingBlock: UVAHIK_clean_linker_0, # of connection points: 2
#     Edge 128, Type (0, 1), BuildingBlock: UVAHIK_clean_linker_0, # of connection points: 2
#     Edge 129, Type (0, 1), BuildingBlock: UVAHIK_clean_linker_0, # of connection points: 2
#     Edge 130, Type (0, 1), BuildingBlock: UVAHIK_clean_linker_0, # of connection points: 2
#     Edge 131, Type (0, 1), BuildingBlock: UVAHIK_clean_linker_0, # of connection points: 2
#     Edge 132, Type (0, 1), BuildingBlock: UVAHIK_clean_linker_0, # of connection points: 2
#     Edge 133, Type (0, 1), BuildingBlock: UVAHIK_clean_linker_0, # of connection points: 2
#     Edge 134, Type (0, 1), BuildingBlock: UVAHIK_clean_linker_0, # of connection points: 2
#     Edge 135, Type (0, 1), BuildingBlock: UVAHIK_clean_linker_0, # of connection points: 2
# Relax obj value: 0.143
# Max RMSD: 0.272
# Mean RMSD: 0.129
data_MOF--net-gar--node1-QUQFOY_clean_sbu_3--node2-HISSIN_clean_sbu_0--edge1-UVAHIK_clean_linker_0
_symmetry_space_group_name_H-M    P1
_symmetry_Int_Tables_number       1
_symmetry_cell_setting            triclinic
loop_
_symmetry_equiv_pos_as_xyz
'x, y, z'
_cell_length_a     76.467419
_cell_length_b     77.278815
_cell_length_c     75.321003
_cell_angle_alpha  99.966214
_cell_angle_beta   93.123189
_cell_angle_gamma 100.32688
loop_
_atom_site_label
_atom_site_type_symbol
_atom_site_fract_x
_atom_site_fract_y
_atom_site_fract_z
_atom_type_partial_charge
C0 C 0.04727 0.29911 0.36536 0.0
O1 O 0.05776 0.3064 0.3551 0.0
Cd2 Cd 0.0891 0.31065 0.35712 0.0
O3 O 0.05295 0.29258 0.37847 0.0
Cd4 Cd 0.0819 0.28958 0.39278 0.0
C5 C 0.0916 0.33492 0.40048 0.0
O6 O 0.09262 0.28334 0.36476 0.0
O7 O 0.11313 0.28667 0.38639 0.0
O8 O 0.06696 0.26006 0.39429 0.0
C9 C 0.10863 0.28327 0.36949 0.0
O10 O 0.09385 0.3339 0.38373 0.0
C11 C 0.07082 0.26123 0.41108 0.0
O12 O 0.08712 0.32095 0.4073 0.0
O13 O 0.08008 0.27592 0.41972 0.0
C14 C 0.95881 0.748 0.65338 0.0
O15 O 0.96979 0.74129 0.66198 0.0
Cd16 Cd -5e-05 0.74152 0.65716 0.0
O17 O 0.96341 0.7562 0.64059 0.0
Cd18 Cd 0.99103 0.76186 0.62554 0.0
C19 C 0.9906 0.71843 0.61361 0.0
O20 O 0.01226 0.77052 0.65204 0.0
O21 O 0.02299 0.76316 0.62659 0.0
O22 O 0.98627 0.79108 0.62097 0.0
C23 C 0.02586 0.76966 0.64332 0.0
O24 O -0.00326 0.71931 0.62985 0.0
C25 C 0.9904 0.78854 0.60475 0.0
O26 O 0.98619 0.7319 0.60829 0.0
O27 O 0.99316 0.77316 0.59802 0.0
C28 C 0.54664 0.8027 0.86655 0.0
O29 O 0.5573 0.81041 0.85671 0.0
Cd30 Cd 0.58869 0.81593 0.85986 0.0
O31 O 0.5522 0.79649 0.87996 0.0
Cd32 Cd 0.58106 0.79487 0.89557 0.0
C33 C 0.58953 0.84038 0.90284 0.0
O34 O 0.59267 0.78898 0.86801 0.0
O35 O 0.61277 0.79275 0.89012 0.0
O36 O 0.56713 0.76484 0.89663 0.0
C37 C 0.60863 0.78916 0.87315 0.0
O38 O 0.59231 0.83932 0.88622 0.0
C39 C 0.57036 0.76601 0.91352 0.0
O40 O 0.58507 0.82641 0.90968 0.0
O41 O 0.57866 0.781 0.92251 0.0
C42 C 0.45999 0.2472 0.15273 0.0
O43 O 0.47123 0.24074 0.16127 0.0
Cd44 Cd 0.50119 0.24111 0.15546 0.0
O45 O 0.46422 0.25516 0.13969 0.0
Cd46 Cd 0.49113 0.26117 0.12366 0.0
C47 C 0.4908 0.21749 0.11224 0.0
O48 O 0.5127 0.26999 0.14955 0.0
O49 O 0.52339 0.26335 0.12394 0.0
O50 O 0.48692 0.29083 0.12095 0.0
C51 C 0.52629 0.26952 0.14076 0.0
O52 O 0.49711 0.21852 0.12845 0.0
C53 C 0.48817 0.28852 0.10401 0.0
O54 O 0.48656 0.23096 0.10675 0.0
O55 O 0.48948 0.27297 0.09606 0.0
C56 C 0.02461 0.75259 0.14378 0.0
O57 O 0.03533 0.74563 0.15247 0.0
Cd58 Cd 0.06628 0.74766 0.14884 0.0
O59 O 0.02984 0.76183 0.13197 0.0
Cd60 Cd 0.0576 0.76976 0.11835 0.0
C61 C 0.05872 0.72629 0.10502 0.0
O62 O 0.07756 0.77756 0.145 0.0
O63 O 0.08973 0.77352 0.11972 0.0
O64 O 0.05455 0.79954 0.11565 0.0
C65 C 0.0916 0.77866 0.13676 0.0
O66 O 0.06428 0.72576 0.12112 0.0
C67 C 0.05383 0.79634 0.0985 0.0
O68 O 0.05479 0.74044 0.10087 0.0
O69 O 0.05403 0.78048 0.09063 0.0
C70 C 0.48379 0.79729 0.36421 0.0
O71 O 0.49697 0.80457 0.35678 0.0
Cd72 Cd 0.52759 0.80802 0.36707 0.0
O73 O 0.48601 0.78993 0.37779 0.0
Cd74 Cd 0.51035 0.78481 0.39714 0.0
C75 C 0.52197 0.82953 0.40939 0.0
O76 O 0.53127 0.78059 0.37546 0.0
O77 O 0.54211 0.786 0.40335 0.0
O78 O 0.49735 0.75406 0.39732 0.0
C79 C 0.54469 0.7825 0.38674 0.0
O80 O 0.52822 0.8304 0.39418 0.0
C81 C 0.49655 0.75645 0.41434 0.0
O82 O 0.51436 0.81487 0.41339 0.0
O83 O 0.50154 0.7723 0.42324 0.0
C84 C 0.5291 0.25792 0.65177 0.0
O85 O 0.53916 0.24991 0.66 0.0
Cd86 Cd 0.56987 0.24961 0.656 0.0
O87 O 0.53481 0.26694 0.63999 0.0
Cd88 Cd 0.56252 0.27188 0.62557 0.0
C89 C 0.56009 0.22754 0.61284 0.0
O90 O 0.58456 0.27815 0.65084 0.0
O91 O 0.59383 0.27158 0.6243 0.0
O92 O 0.56163 0.302 0.62129 0.0
C93 C 0.59753 0.2769 0.64119 0.0
O94 O 0.56651 0.22704 0.62866 0.0
C95 C 0.55975 0.29762 0.60415 0.0
O96 O 0.55649 0.2419 0.60887 0.0
O97 O 0.55885 0.28128 0.59724 0.0
C98 C 0.97291 0.29021 0.86044 0.0
O99 O 0.98544 0.29757 0.85227 0.0
Cd100 Cd 0.01681 0.30117 0.85933 0.0
O101 O 0.97607 0.28302 0.8739 0.0
Cd102 Cd 0.00282 0.28005 0.89128 0.0
C103 C 0.01535 0.32494 0.90151 0.0
O104 O 0.02365 0.27529 0.8689 0.0
O105 O 0.03468 0.28358 0.89675 0.0
O106 O 0.99249 0.24941 0.89406 0.0
C107 C 0.03727 0.27902 0.88027 0.0
O108 O 0.02067 0.32466 0.88576 0.0
C109 C 0.99267 0.25285 0.91119 0.0
O110 O 0.00755 0.3108 0.90647 0.0
O111 O -0.00322 0.26918 0.91894 0.0
C112 C 0.43573 0.01618 0.29986 0.0
O113 O 0.44209 0.00801 0.28635 0.0
Cd114 Cd 0.43054 0.00266 0.25554 0.0
O115 O 0.42199 0.02307 0.29794 0.0
Cd116 Cd 0.40096 0.02639 0.27384 0.0
C117 C 0.38817 0.98156 0.26205 0.0
O118 O 0.42174 0.02955 0.25211 0.0
O119 O 0.39441 0.02546 0.24143 0.0
O120 O 0.40111 0.05723 0.28635 0.0
C121 C 0.41071 0.02732 0.23842 0.0
O122 O 0.40295 0.98113 0.25506 0.0
C123 C 0.38424 0.05505 0.28629 0.0
O124 O 0.3847 0.99609 0.27064 0.0
O125 O 0.37539 0.03916 0.28176 0.0
C126 C 0.30014 0.15599 0.50082 0.0
O127 O 0.28856 0.14598 0.50782 0.0
Cd128 Cd 0.25861 0.14909 0.5108 0.0
O129 O 0.29619 0.16877 0.49368 0.0
Cd130 Cd 0.26883 0.18159 0.48853 0.0
C131 C 0.26965 0.19297 0.53397 0.0
O132 O 0.24718 0.15382 0.4826 0.0
O133 O 0.236 0.17757 0.48854 0.0
O134 O 0.27546 0.18181 0.45747 0.0
C135 C 0.23336 0.16065 0.48401 0.0
O136 O 0.26405 0.17632 0.53331 0.0
C137 C 0.27515 0.19821 0.45775 0.0
O138 O 0.27303 0.19925 0.51967 0.0
O139 O 0.27233 0.20734 0.4727 0.0
C140 C 0.12935 0.01723 0.79693 0.0
O141 O 0.122 0.02567 0.78655 0.0
Cd142 Cd 0.13018 0.02949 0.75664 0.0
O143 O 0.14225 0.00954 0.79089 0.0
Cd144 Cd 0.1592 0.00619 0.75818 0.0
C145 C 0.17243 0.05526 0.76024 0.0
O146 O 0.1309 0.00258 0.73511 0.0
O147 O 0.15573 0.00914 0.72417 0.0
O148 O 0.16149 0.9719 0.75828 0.0
C149 C 0.13883 0.00551 0.72116 0.0
O150 O 0.15564 0.05397 0.75734 0.0
C151 C 0.17816 0.9724 0.75719 0.0
O152 O 0.1784 0.04099 0.76253 0.0
O153 O 0.18653 0.98813 0.75657 0.0
C154 C 0.30106 0.96078 0.99503 0.0
O155 O 0.29227 0.96805 0.98464 0.0
Cd156 Cd 0.26074 0.95683 0.97674 0.0
O157 O 0.29288 0.94812 0.00211 0.0
Cd158 Cd 0.2609 0.93153 0.0015 0.0
C159 C 0.26075 0.91405 0.95652 0.0
O160 O 0.24361 0.95664 0.00324 0.0
O161 O 0.22807 0.9299 -0.00159 0.0
O162 O 0.26997 0.93108 0.03331 0.0
C163 C 0.22828 0.94659 0.00184 0.0
O164 O 0.2589 0.92953 0.95408 0.0
C165 C 0.26476 0.91433 0.03204 0.0
O166 O 0.26229 0.91094 0.97253 0.0
O167 O 0.25732 0.90572 0.0168 0.0
C168 C 0.32725 0.40381 0.01816 0.0
O169 O 0.31663 0.4088 0.00742 0.0
Cd170 Cd 0.28505 0.39956 0.00261 0.0
O171 O 0.32154 0.39194 0.02742 0.0
Cd172 Cd 0.29143 0.37277 0.0286 0.0
C173 C 0.28479 0.35631 0.98357 0.0
O174 O 0.27432 0.39649 0.03092 0.0
O175 O 0.25866 0.36987 0.02364 0.0
O176 O 0.2971 0.37431 0.06103 0.0
C177 C 0.25903 0.38653 0.02803 0.0
O178 O 0.27979 0.37091 0.98231 0.0
C179 C 0.29349 0.35757 0.06064 0.0
O180 O 0.29175 0.35382 -0.00152 0.0
O181 O 0.28963 0.3476 0.04513 0.0
C182 C 0.83055 0.09602 0.02276 0.0
O183 O 0.82083 0.08708 0.03242 0.0
Cd184 Cd 0.79287 0.09554 0.04063 0.0
O185 O 0.8249 0.1087 0.01682 0.0
Cd186 Cd 0.79542 0.12003 0.01877 0.0
C187 C 0.79856 0.1379 0.06326 0.0
O188 O 0.77032 0.09303 0.01575 0.0
O189 O 0.76428 0.11914 0.02475 0.0
O190 O 0.79281 0.12119 0.98644 0.0
C191 C 0.75851 0.10262 0.01887 0.0
O192 O 0.79492 0.1216 0.06503 0.0
C193 C 0.79387 0.13801 0.98881 0.0
O194 O 0.80103 0.14165 0.04768 0.0
O195 O 0.79654 0.14648 0.00502 0.0
C196 C 0.13005 0.54772 0.27014 0.0
O197 O 0.11886 0.55128 0.25892 0.0
Cd198 Cd 0.12333 0.5482 0.22753 0.0
O199 O 0.14318 0.54069 0.26516 0.0
Cd200 Cd 0.1569 0.52839 0.23888 0.0
C201 C 0.16705 0.5715 0.23463 0.0
O202 O 0.13036 0.51925 0.21999 0.0
O203 O 0.15417 0.51799 0.20624 0.0
O204 O 0.15957 0.50447 0.25436 0.0
C205 C 0.13732 0.5162 0.2052 0.0
O206 O 0.15074 0.57095 0.22949 0.0
C207 C 0.17574 0.50459 0.25123 0.0
O208 O 0.17226 0.55795 0.23895 0.0
O209 O 0.18312 0.51593 0.24223 0.0
C210 C 0.82757 0.90464 0.51966 0.0
O211 O 0.81725 0.91043 0.50932 0.0
Cd212 Cd 0.78597 0.90078 0.50288 0.0
O213 O 0.82153 0.89209 0.52802 0.0
Cd214 Cd 0.791 0.87302 0.52858 0.0
C215 C 0.78695 0.85763 0.48331 0.0
O216 O 0.77372 0.89656 0.53038 0.0
O217 O 0.75825 0.86994 0.5224 0.0
O218 O 0.79533 0.87427 0.56115 0.0
C219 C 0.75847 0.88657 0.52681 0.0
O220 O 0.7834 0.87281 0.48188 0.0
C221 C 0.79213 0.85748 0.56054 0.0
O222 O 0.79158 0.85409 0.4986 0.0
O223 O 0.78904 0.84765 0.5449 0.0
C224 C 0.93746 0.04262 0.29229 0.0
O225 O 0.94429 0.03303 0.28017 0.0
Cd226 Cd 0.93493 0.02552 0.24841 0.0
O227 O 0.9248 0.05041 0.28714 0.0
Cd228 Cd 0.90707 0.0508 0.2533 0.0
C229 C 0.89257 0.00159 0.24937 0.0
O230 O 0.93475 0.05104 0.23379 0.0
O231 O 0.90986 0.0439 0.21802 0.0
O232 O 0.90476 0.0856 0.26117 0.0
C233 C 0.92676 0.04725 0.21793 0.0
O234 O 0.90863 0.00157 0.24572 0.0
C235 C 0.8883 0.08483 0.25651 0.0
O236 O 0.88761 0.01693 0.25335 0.0
O237 O 0.88004 0.06873 0.25083 0.0
C238 C 0.3298 0.59684 0.52235 0.0
O239 O 0.31963 0.58821 0.53191 0.0
Cd240 Cd 0.2911 0.59603 0.53883 0.0
O241 O 0.32462 0.60956 0.51602 0.0
Cd242 Cd 0.29551 0.62172 0.51761 0.0
C243 C 0.29695 0.63833 0.56212 0.0
O244 O 0.27028 0.59473 0.51307 0.0
O245 O 0.26423 0.62033 0.52417 0.0
O246 O 0.29446 0.62387 0.48536 0.0
C247 C 0.25845 0.60403 0.5172 0.0
O248 O 0.29142 0.62195 0.56284 0.0
C249 C 0.29454 0.64055 0.48801 0.0
O250 O 0.30185 0.64257 0.54729 0.0
O251 O 0.29592 0.64855 0.50436 0.0
C252 C 0.43775 0.54289 0.79246 0.0
O253 O 0.44466 0.53343 0.78031 0.0
Cd254 Cd 0.43525 0.52596 0.74857 0.0
O255 O 0.42502 0.55062 0.78737 0.0
Cd256 Cd 0.40728 0.55115 0.75354 0.0
C257 C 0.3929 0.50197 0.74963 0.0
O258 O 0.43496 0.55152 0.73403 0.0
O259 O 0.41005 0.54428 0.71827 0.0
O260 O 0.40494 0.58593 0.76135 0.0
C261 C 0.42695 0.54771 0.71818 0.0
O262 O 0.40898 0.50201 0.74603 0.0
C263 C 0.38846 0.58513 0.75672 0.0
O264 O 0.38786 0.51727 0.75352 0.0
O265 O 0.38022 0.56902 0.7511 0.0
C266 C 0.62854 0.04461 0.76909 0.0
O267 O 0.61643 0.04764 0.75847 0.0
Cd268 Cd 0.62001 0.04498 0.72677 0.0
O269 O 0.6418 0.0385 0.763 0.0
Cd270 Cd 0.65638 0.02822 0.73697 0.0
C271 C 0.66185 0.07189 0.73507 0.0
O272 O 0.6299 0.01743 0.71847 0.0
O273 O 0.65368 0.01868 0.70428 0.0
O274 O 0.66077 0.00524 0.75282 0.0
C275 C 0.63677 0.01542 0.70353 0.0
O276 O 0.64556 0.06984 0.72901 0.0
C277 C 0.67702 0.00616 0.74965 0.0
O278 O 0.66849 0.05904 0.73922 0.0
O279 O 0.68371 0.01745 0.74025 0.0
C280 C 0.7984 0.65702 0.00136 0.0
O281 O 0.78669 0.64715 0.00838 0.0
Cd282 Cd 0.75667 0.65008 0.01099 0.0
O283 O 0.79461 0.66974 0.99405 0.0
Cd284 Cd 0.76738 0.68265 0.98888 0.0
C285 C 0.76759 0.69376 0.03444 0.0
O286 O 0.74588 0.65492 0.98261 0.0
O287 O 0.7345 0.67854 0.9886 0.0
O288 O 0.77377 0.68294 0.95782 0.0
C289 C 0.732 0.66165 0.98385 0.0
O290 O 0.76167 0.67715 0.03374 0.0
C291 C 0.77381 0.69943 0.95826 0.0
O292 O 0.77137 0.69993 0.02017 0.0
O293 O 0.77136 0.7086 0.97332 0.0
C294 C 0.93924 0.51975 0.8011 0.0
O295 O 0.94509 0.51074 0.78777 0.0
Cd296 Cd 0.93092 0.50312 0.75773 0.0
O297 O 0.92499 0.52581 0.79919 0.0
Cd298 Cd 0.90224 0.5257 0.77541 0.0
C299 C 0.89103 0.48121 0.76867 0.0
O300 O 0.9212 0.52907 0.75171 0.0
O301 O 0.89325 0.52037 0.74301 0.0
O302 O 0.90102 0.5565 0.78654 0.0
C303 C 0.90901 0.52495 0.73882 0.0
O304 O 0.90457 0.48069 0.7596 0.0
C305 C 0.88411 0.55368 0.78625 0.0
O306 O 0.88796 0.49586 0.77728 0.0
O307 O 0.87586 0.53754 0.78225 0.0
C308 C 0.8012 0.46162 0.4935 0.0
O309 O 0.79278 0.46862 0.48253 0.0
Cd310 Cd 0.76116 0.45731 0.4743 0.0
O311 O 0.79265 0.44932 0.50075 0.0
Cd312 Cd 0.76062 0.43313 0.49961 0.0
C313 C 0.76021 0.41434 0.45499 0.0
O314 O 0.74321 0.45798 0.50035 0.0
O315 O 0.72791 0.43118 0.49728 0.0
O316 O 0.76782 0.43334 0.53178 0.0
C317 C 0.728 0.44785 0.49979 0.0
O318 O 0.75905 0.42978 0.45192 0.0
C319 C 0.76489 0.41641 0.53011 0.0
O320 O 0.76133 0.41176 0.4712 0.0
O321 O 0.75924 0.4074 0.51447 0.0
C322 C 0.6292 0.51714 0.29705 0.0
O323 O 0.6219 0.52563 0.28668 0.0
Cd324 Cd 0.62998 0.52955 0.25675 0.0
O325 O 0.64209 0.50941 0.29104 0.0
Cd326 Cd 0.65908 0.50598 0.25834 0.0
C327 C 0.67238 0.55504 0.26025 0.0
O328 O 0.63075 0.50257 0.23541 0.0
O329 O 0.65552 0.50867 0.22425 0.0
O330 O 0.66145 0.47169 0.25847 0.0
C331 C 0.63861 0.50532 0.22138 0.0
O332 O 0.6556 0.55383 0.25736 0.0
C333 C 0.67812 0.47222 0.25738 0.0
O334 O 0.6783 0.54076 0.26261 0.0
O335 O 0.68646 0.48796 0.25676 0.0
Eu336 Eu 0.04333 0.04895 0.01631 0.0
Eu337 Eu 0.02104 0.00891 0.00307 0.0
C338 C 0.04589 0.02826 0.97425 0.0
C339 C 0.05725 0.09759 0.01794 0.0
C340 C 0.05109 0.09509 -0.00038 0.0
C341 C 0.05341 0.12841 0.02208 0.0
C342 C 0.04607 0.10911 0.99259 0.0
C343 C 0.05852 0.11433 0.02912 0.0
C344 C 0.047 0.12582 0.00378 0.0
C345 C 0.05991 0.08213 0.02573 0.0
O346 O 0.04723 0.0039 0.01494 0.0
O347 O 0.0641 0.0323 0.0205 0.0
C348 C 0.06273 0.01492 0.01907 0.0
O349 O 0.03247 0.04246 0.04297 0.0
O350 O 0.01533 0.98375 0.98356 0.0
O351 O -0.00034 0.98724 0.00639 0.0
O352 O 0.01246 0.01656 0.03195 0.0
C353 C 0.01896 0.03 0.04542 0.0
O354 O 0.01571 0.05333 0.00804 0.0
O355 O 0.00161 0.0251 0.99422 0.0
O356 O 0.03698 0.01352 0.97862 0.0
O357 O 0.0464 0.07521 0.03364 0.0
O358 O 0.06631 0.06995 0.0153 0.0
O359 O 0.04759 0.0437 0.9857 0.0
C360 C 0.00916 0.95998 -0.00119 0.0
C361 C 0.01624 0.96096 0.01662 0.0
C362 C 0.01703 0.93088 0.99025 0.0
C363 C 0.02379 0.94713 0.02116 0.0
C364 C 0.00933 0.94477 0.9857 0.0
C365 C 0.02468 0.9322 0.00793 0.0
C366 C 0.00425 0.97588 0.99349 0.0
C367 C 0.00151 0.04215 -0.00039 0.0
H368 H 0.04956 0.08212 0.99087 0.0
H369 H 0.05428 0.14123 0.03093 0.0
H370 H 0.04086 0.10666 0.97853 0.0
H371 H 0.06295 0.11632 0.04337 0.0
H372 H 0.01652 0.97269 0.02695 0.0
H373 H 0.01756 0.91946 0.97983 0.0
H374 H 0.02917 0.94827 0.03501 0.0
H375 H 0.00417 0.94397 0.97184 0.0
Eu376 Eu 0.28656 0.77603 0.24057 0.0
Eu377 Eu 0.27057 0.77704 0.28113 0.0
C378 C 0.24529 0.77125 0.24559 0.0
C379 C 0.29785 0.79056 0.19596 0.0
C380 C 0.29567 0.80829 0.20161 0.0
C381 C 0.29795 0.79532 0.16494 0.0
C382 C 0.29459 0.81945 0.18896 0.0
C383 C 0.2991 0.78422 0.17759 0.0
C384 C 0.29553 0.81302 0.17044 0.0
C385 C 0.29837 0.7784 0.20892 0.0
O386 O 0.26793 0.74835 0.26823 0.0
O387 O 0.28825 0.7489 0.24657 0.0
C388 C 0.27781 0.74045 0.25691 0.0
O389 O 0.30925 0.78588 0.26224 0.0
O390 O 0.24887 0.76879 0.29728 0.0
O391 O 0.27338 0.78601 0.31038 0.0
O392 O 0.29773 0.77061 0.28369 0.0
C393 C 0.31128 0.77925 0.27693 0.0
O394 O 0.27725 0.80193 0.24841 0.0
O395 O 0.28284 0.80514 0.27904 0.0
O396 O 0.24905 0.78099 0.26184 0.0
O397 O 0.3079 0.78499 0.22426 0.0
O398 O 0.28314 0.76866 0.21106 0.0
O399 O 0.25742 0.76409 0.23697 0.0
C400 C 0.25939 0.76375 0.32534 0.0
C401 C 0.27094 0.75149 0.32288 0.0
C402 C 0.24955 0.7523 0.35184 0.0
C403 C 0.27192 0.73981 0.33495 0.0
C404 C 0.24862 0.76402 0.33977 0.0
C405 C 0.2613 0.74015 0.34964 0.0
C406 C 0.25831 0.77594 0.31259 0.0
C407 C 0.28149 0.81208 0.26444 0.0
H408 H 0.29458 0.81342 0.21575 0.0
H409 H 0.29895 0.79003 0.15082 0.0
H410 H 0.29253 0.83294 0.19362 0.0
H411 H 0.30081 0.77059 0.17299 0.0
H412 H 0.27927 0.75104 0.31168 0.0
H413 H 0.24099 0.75271 0.36283 0.0
H414 H 0.28125 0.73078 0.33298 0.0
H415 H 0.2395 0.77328 0.34169 0.0
Eu416 Eu 0.55094 0.02192 0.50183 0.0
Eu417 Eu 0.51166 0.02809 0.51762 0.0
C418 C 0.54735 0.03295 0.54362 0.0
C419 C 0.59351 0.00387 0.49243 0.0
C420 C 0.59895 0.00167 0.50988 0.0
C421 C 0.61211 0.98328 0.47973 0.0
C422 C 0.61111 0.99058 0.51223 0.0
C423 C 0.60007 0.9945 0.47739 0.0
C424 C 0.61788 0.98136 0.49719 0.0
C425 C 0.58091 0.01568 0.48959 0.0
O426 O 0.52152 0.0506 0.50346 0.0
O427 O 0.55156 0.05151 0.5081 0.0
C428 C 0.53805 0.05934 0.50527 0.0
O429 O 0.53305 0.02423 0.47826 0.0
O430 O 0.49764 0.04361 0.53688 0.0
O431 O 0.48259 0.02169 0.51692 0.0
O432 O 0.5059 0.01472 0.48864 0.0
C433 C 0.51582 0.01805 0.47555 0.0
O434 O 0.53555 0.99511 0.50445 0.0
O435 O 0.5148 0.0018 0.52447 0.0
O436 O 0.53323 0.03952 0.53997 0.0
O437 O 0.56527 0.00777 0.48157 0.0
O438 O 0.57996 0.02859 0.50301 0.0
O439 O 0.55403 0.02235 0.53146 0.0
C440 C 0.46953 0.04682 0.52579 0.0
C441 C 0.47263 0.05748 0.51255 0.0
C442 C 0.44381 0.05982 0.53355 0.0
C443 C 0.4614 0.06939 0.50991 0.0
C444 C 0.45502 0.04794 0.53615 0.0
C445 C 0.447 0.07082 0.52055 0.0
C446 C 0.48188 0.03526 0.52963 0.0
C447 C 0.52373 0.99063 0.51569 0.0
H448 H 0.59388 0.00855 0.5217 0.0
H449 H 0.6172 0.97641 0.46792 0.0
H450 H 0.61515 0.98914 0.52582 0.0
H451 H 0.59595 0.99596 0.46382 0.0
H452 H 0.48389 0.05678 0.50449 0.0
H453 H 0.43262 0.06039 0.54171 0.0
H454 H 0.46423 0.07776 0.49988 0.0
H455 H 0.4525 0.03979 0.54642 0.0
Eu456 Eu 0.26304 0.28535 0.7555 0.0
Eu457 Eu 0.30065 0.27461 0.76173 0.0
C458 C 0.26433 0.24403 0.76055 0.0
C459 C 0.21724 0.29348 0.76311 0.0
C460 C 0.2149 0.28035 0.77394 0.0
C461 C 0.19415 0.30689 0.77748 0.0
C462 C 0.20228 0.28052 0.78654 0.0
C463 C 0.20674 0.30665 0.76479 0.0
C464 C 0.19198 0.29394 0.78857 0.0
C465 C 0.23238 0.29511 0.7522 0.0
O466 O 0.29335 0.26544 0.73194 0.0
O467 O 0.27314 0.28316 0.72789 0.0
C468 C 0.28364 0.27245 0.72134 0.0
O469 O 0.28293 0.31224 0.76027 0.0
O470 O 0.31639 0.25379 0.76129 0.0
O471 O 0.32896 0.28149 0.77099 0.0
O472 O 0.30835 0.30212 0.75324 0.0
C473 C 0.29968 0.31555 0.75635 0.0
O474 O 0.26529 0.28338 0.78508 0.0
O475 O 0.29562 0.28854 0.78892 0.0
O476 O 0.28091 0.2504 0.76768 0.0
O477 O 0.24669 0.30559 0.76072 0.0
O478 O 0.23568 0.28023 0.74314 0.0
O479 O 0.25559 0.25459 0.75298 0.0
C480 C 0.34504 0.26284 0.75362 0.0
C481 C 0.34539 0.27071 0.73817 0.0
C482 C 0.36899 0.24806 0.74379 0.0
C483 C 0.35764 0.26739 0.72562 0.0
C484 C 0.35681 0.25149 0.75638 0.0
C485 C 0.36955 0.25603 0.72834 0.0
C486 C 0.33134 0.26514 0.76597 0.0
C487 C 0.28019 0.28777 0.79566 0.0
H488 H 0.22327 0.27035 0.7731 0.0
H489 H 0.1862 0.31725 0.77871 0.0
H490 H 0.20097 0.27052 0.79509 0.0
H491 H 0.20869 0.31706 0.75672 0.0
H492 H 0.33608 0.27928 0.73575 0.0
H493 H 0.37782 0.239 0.74603 0.0
H494 H 0.35791 0.27382 0.71393 0.0
H495 H 0.35637 0.24507 0.76809 0.0
Eu496 Eu 0.02736 0.04489 0.51964 0.0
Eu497 Eu 0.0409 0.01002 0.50004 0.0
C498 C 0.06548 0.0489 0.50152 0.0
C499 C 0.0149 0.08824 0.52084 0.0
C500 C 0.02431 0.08819 0.50537 0.0
C501 C 0.00537 0.11541 0.51598 0.0
C502 C 0.02444 0.10169 0.49538 0.0
C503 C 0.0053 0.1018 0.52607 0.0
C504 C 0.015 0.11546 0.50057 0.0
C505 C 0.01504 0.07366 0.53082 0.0
O506 O 0.04811 0.01143 0.53073 0.0
O507 O 0.04349 0.03908 0.54382 0.0
C508 C 0.0495 0.02431 0.54516 0.0
O509 O 0.00959 0.02182 0.52828 0.0
O510 O 0.06146 0.99376 0.49693 0.0
O511 O 0.03515 0.98336 0.48322 0.0
O512 O 0.0117 0.00167 0.50312 0.0
C513 C 0.00337 0.00668 0.51723 0.0
O514 O 0.01609 0.04064 0.48961 0.0
O515 O 0.03089 0.01986 0.47499 0.0
O516 O 0.0633 0.03156 0.4961 0.0
O517 O 0.00483 0.05855 0.52309 0.0
O518 O 0.03093 0.07159 0.53612 0.0
O519 O 0.05359 0.05646 0.51022 0.0
C520 C 0.04805 0.9649 0.49896 0.0
C521 C 0.03928 0.96695 0.51483 0.0
C522 C 0.05262 0.93585 0.50377 0.0
C523 C 0.03735 0.95372 0.52522 0.0
C524 C 0.05487 0.9494 0.49348 0.0
C525 C 0.0437 0.93788 0.51967 0.0
C526 C 0.05014 0.97952 0.4889 0.0
C527 C 0.01997 0.03125 0.47436 0.0
H528 H 0.0317 0.07772 0.50106 0.0
H529 H -0.0021 0.12583 0.52019 0.0
H530 H 0.03227 0.10153 0.48382 0.0
H531 H -0.00218 0.10186 0.53788 0.0
H532 H 0.03383 0.97881 0.51919 0.0
H533 H 0.05751 0.9237 0.49908 0.0
H534 H 0.03079 0.95591 0.53758 0.0
H535 H 0.06172 0.94773 0.48127 0.0
Eu536 Eu 0.30119 0.79089 0.75591 0.0
Eu537 Eu 0.26463 0.76669 0.76171 0.0
C538 C 0.28581 0.79372 0.79481 0.0
C539 C 0.35005 0.80405 0.76018 0.0
C540 C 0.35051 0.7929 0.77298 0.0
C541 C 0.3816 0.80529 0.75755 0.0
C542 C 0.36643 0.78831 0.77835 0.0
C543 C 0.36557 0.81001 0.75225 0.0
C544 C 0.3822 0.79462 0.77087 0.0
C545 C 0.33316 0.80904 0.75521 0.0
O546 O 0.25652 0.79405 0.75859 0.0
O547 O 0.28196 0.80961 0.74977 0.0
C548 C 0.26513 0.80883 0.75365 0.0
O549 O 0.29244 0.77621 0.72758 0.0
O550 O 0.24015 0.76468 0.77543 0.0
O551 O 0.2454 0.74157 0.75745 0.0
O552 O 0.26481 0.7606 0.73127 0.0
C553 C 0.27777 0.76475 0.7211 0.0
O554 O 0.31015 0.76489 0.76228 0.0
O555 O 0.28329 0.74609 0.76124 0.0
O556 O 0.27837 0.77683 0.78986 0.0
O557 O 0.32394 0.79912 0.74083 0.0
O558 O 0.32334 0.81189 0.76859 0.0
O559 O 0.29258 0.80253 0.78271 0.0
C560 C 0.21612 0.74667 0.75672 0.0
C561 C 0.21495 0.74756 0.73826 0.0
C562 C 0.18453 0.74681 0.75731 0.0
C563 C 0.19873 0.7483 0.72943 0.0
C564 C 0.20081 0.746 0.76614 0.0
C565 C 0.18346 0.7483 0.73896 0.0
C566 C 0.23359 0.74862 0.76651 0.0
C567 C 0.30091 0.74848 0.76195 0.0
H568 H 0.33862 0.78807 0.77923 0.0
H569 H 0.39354 0.81016 0.7514 0.0
H570 H 0.36644 0.78038 0.78887 0.0
H571 H 0.36534 0.81843 0.74217 0.0
H572 H 0.2267 0.7484 0.7308 0.0
H573 H 0.17289 0.74666 0.76489 0.0
H574 H 0.19836 0.74974 0.71537 0.0
H575 H 0.20157 0.74549 0.78044 0.0
Eu576 Eu 0.53473 0.02214 0.02851 0.0
Eu577 Eu 0.52726 0.02526 0.9829 0.0
C578 C 0.52831 0.05802 0.01353 0.0
C579 C 0.52645 0.01842 0.07603 0.0
C580 C 0.50896 0.02164 0.07651 0.0
C581 C 0.5198 0.99732 0.09623 0.0
C582 C 0.49696 0.01259 0.08648 0.0
C583 C 0.5319 0.00644 0.08621 0.0
C584 C 0.50214 1.00008 0.09611 0.0
C585 C 0.53832 0.02607 0.06355 0.0
O586 O 0.55631 0.03836 0.99093 0.0
O587 O 0.56176 0.02753 0.01728 0.0
C588 C 0.56731 0.03561 0.0039 0.0
O589 O 0.53526 0.99287 0.01956 0.0
O590 O 0.51632 0.02989 0.95731 0.0
O591 O 0.5328 0.00971 0.9576 0.0
O592 O 0.53128 0.00302 0.99497 0.0
C593 C 0.53368 0.98972 0.00215 0.0
O594 O 0.50461 0.01393 0.02099 0.0
O595 O 0.49987 0.0149 0.99035 0.0
O596 O 0.52167 0.05079 0.99701 0.0
O597 O 0.54561 0.01471 0.05293 0.0
O598 O 0.53232 0.03739 0.05497 0.0
O599 O 0.53829 0.05047 0.02349 0.0
C600 C 0.53839 0.02879 0.93672 0.0
C601 C 0.55184 0.0203 0.92941 0.0
C602 C 0.55308 0.05662 0.92894 0.0
C603 C 0.56612 0.03008 0.9225 0.0
C604 C 0.53883 0.04688 0.93586 0.0
C605 C 0.56706 0.04842 0.92269 0.0
C606 C 0.52598 0.01985 0.948 0.0
C607 C 0.49404 0.01196 0.00593 0.0
H608 H 0.50432 0.03083 0.06885 0.0
H609 H 0.52413 0.98786 0.10374 0.0
H610 H 0.48359 0.01541 0.08665 0.0
H611 H 0.54533 0.00377 0.08599 0.0
H612 H 0.55176 0.00633 0.92983 0.0
H613 H 0.55343 0.07071 0.92901 0.0
H614 H 0.57652 0.02335 0.91716 0.0
H615 H 0.52864 0.05382 0.94132 0.0
Eu616 Eu 0.28884 0.29604 0.26955 0.0
Eu617 Eu 0.27457 0.25527 0.24646 0.0
C618 C 0.28054 0.2894 0.22684 0.0
C619 C 0.28805 0.34257 0.28728 0.0
C620 C 0.27414 0.33984 0.27358 0.0
C621 C 0.28093 0.37116 0.29979 0.0
C622 C 0.2639 0.35278 0.27276 0.0
C623 C 0.29135 0.35814 0.30053 0.0
C624 C 0.26733 0.36856 0.28575 0.0
C625 C 0.29798 0.32832 0.28796 0.0
O626 O 0.3033 0.25756 0.25618 0.0
O627 O 0.31218 0.28744 0.25681 0.0
C628 C 0.31573 0.27136 0.25531 0.0
O629 O 0.29334 0.27762 0.28855 0.0
O630 O 0.27534 0.23632 0.2217 0.0
O631 O 0.25976 0.22781 0.24285 0.0
O632 O 0.27163 0.25354 0.27576 0.0
C633 C 0.28245 0.26276 0.28965 0.0
O634 O 0.25917 0.29059 0.26995 0.0
O635 O 0.25001 0.26709 0.24603 0.0
O636 O 0.28284 0.27294 0.22643 0.0
O637 O 0.28951 0.31505 0.29463 0.0
O638 O 0.30478 0.32293 0.27292 0.0
O639 O 0.27884 0.29983 0.24209 0.0
C640 C 0.27664 0.20835 0.22797 0.0
C641 C 0.29105 0.21076 0.24102 0.0
C642 C 0.28337 0.17991 0.21417 0.0
C643 C 0.30165 0.19793 0.24061 0.0
C644 C 0.27282 0.19295 0.21448 0.0
C645 C 0.29793 0.18242 0.22718 0.0
C646 C 0.26678 0.22279 0.22786 0.0
C647 C 0.24679 0.28021 0.25813 0.0
H648 H 0.27115 0.32764 0.26352 0.0
H649 H 0.28369 0.38334 0.3099 0.0
H650 H 0.25329 0.35047 0.26199 0.0
H651 H 0.30186 0.36018 0.31134 0.0
H652 H 0.29414 0.22261 0.25152 0.0
H653 H 0.28025 0.16797 0.20376 0.0
H654 H 0.31252 0.19998 0.25106 0.0
H655 H 0.26183 0.1911 0.20421 0.0
Eu656 Eu 0.52733 0.54508 0.01973 0.0
Eu657 Eu 0.54062 0.50961 0.00057 0.0
C658 C 0.56544 0.54838 0.00173 0.0
C659 C 0.51678 0.5894 0.02058 0.0
C660 C 0.52868 0.59063 0.00711 0.0
C661 C 0.50623 0.6154 0.01353 0.0
C662 C 0.52951 0.60419 0.99708 0.0
C663 C 0.50545 0.60176 0.02369 0.0
C664 C 0.51828 0.6167 0.00012 0.0
C665 C 0.51577 0.57446 0.03033 0.0
O666 O 0.54715 0.51101 0.03133 0.0
O667 O 0.54327 0.5391 0.04399 0.0
C668 C 0.54886 0.52415 0.04557 0.0
O669 O 0.50886 0.52235 0.02814 0.0
O670 O 0.56151 0.49374 -0.00226 0.0
O671 O 0.53517 0.48271 0.98429 0.0
O672 O 0.5114 0.50146 0.0036 0.0
C673 C 0.50278 0.50701 0.01732 0.0
O674 O 0.5165 0.54078 0.9896 0.0
O675 O 0.53033 0.51896 0.97529 0.0
O676 O 0.56305 0.53103 0.9963 0.0
O677 O 0.50536 0.55966 0.02211 0.0
O678 O 0.53115 0.57171 0.03641 0.0
O679 O 0.55374 0.55609 0.01052 0.0
C680 C 0.54941 0.46426 -0.00096 0.0
C681 C 0.53934 0.4641 0.01403 0.0
C682 C 0.55773 0.43641 0.00337 0.0
C683 C 0.5383 0.45013 0.02353 0.0
C684 C 0.55875 0.45048 0.99381 0.0
C685 C 0.54741 0.43609 0.01827 0.0
C686 C 0.55051 0.47933 0.98961 0.0
C687 C 0.51991 0.53081 0.97449 0.0
H688 H 0.53736 0.58107 0.0043 0.0
H689 H 0.49731 0.6248 0.01604 0.0
H690 H 0.53917 0.60499 0.9871 0.0
H691 H 0.49599 0.6008 0.03383 0.0
H692 H 0.53213 0.47475 0.01831 0.0
H693 H 0.56498 0.42581 -0.00087 0.0
H694 H 0.52995 0.45011 0.0347 0.0
H695 H 0.56676 0.45061 0.98239 0.0
Eu696 Eu 0.80159 0.29105 0.25761 0.0
Eu697 Eu 0.7646 0.26643 0.26099 0.0
C698 C 0.78444 0.29293 0.29525 0.0
C699 C 0.85064 0.30395 0.26067 0.0
C700 C 0.85188 0.29075 0.27108 0.0
C701 C 0.88236 0.30763 0.25763 0.0
C702 C 0.86825 0.28643 0.27525 0.0
C703 C 0.86585 0.31206 0.25355 0.0
C704 C 0.88375 0.29515 0.26898 0.0
C705 C 0.83356 0.3096 0.25823 0.0
O706 O 0.75659 0.29396 0.25868 0.0
O707 O 0.78236 0.30955 0.25053 0.0
C708 C 0.7654 0.30879 0.25404 0.0
O709 O 0.79551 0.2736 0.23024 0.0
O710 O 0.73968 0.26327 0.2739 0.0
O711 O 0.74554 0.24118 0.25486 0.0
O712 O 0.76567 0.26301 0.23058 0.0
C713 C 0.78025 0.26459 0.22204 0.0
O714 O 0.81021 0.26501 0.26426 0.0
O715 O 0.78332 0.24583 0.26009 0.0
O716 O 0.77714 0.27605 0.28975 0.0
O717 O 0.82373 0.30226 0.24318 0.0
O718 O 0.82439 0.30978 0.27231 0.0
O719 O 0.79142 0.30217 0.28361 0.0
C720 C 0.71617 0.24592 0.25406 0.0
C721 C 0.71547 0.24865 0.23613 0.0
C722 C 0.6843 0.24448 0.25398 0.0
C723 C 0.69933 0.24947 0.22723 0.0
C724 C 0.70051 0.24359 0.26288 0.0
C725 C 0.68366 0.24771 0.23618 0.0
C726 C 0.73344 0.24754 0.26408 0.0
C727 C 0.80094 0.24838 0.26235 0.0
H728 H 0.84033 0.28435 0.2768 0.0
H729 H 0.89409 0.31437 0.2524 0.0
H730 H 0.86881 0.27703 0.28429 0.0
H731 H 0.86506 0.32215 0.24534 0.0
H732 H 0.7275 0.25081 0.2292 0.0
H733 H 0.67234 0.24298 0.26109 0.0
H734 H 0.69927 0.25229 0.21363 0.0
H735 H 0.70092 0.24165 0.27679 0.0
Eu736 Eu 0.03537 0.51929 0.52496 0.0
Eu737 Eu 0.02728 0.52643 0.48478 0.0
C738 C 0.02523 0.55548 0.51919 0.0
C739 C 0.02946 0.50834 0.57046 0.0
C740 C 0.01348 0.5148 0.57039 0.0
C741 C 0.01953 0.49104 0.59311 0.0
C742 C 0.00054 0.50934 0.58153 0.0
C743 C 0.03255 0.49659 0.58195 0.0
C744 C 0.00329 0.49713 0.59271 0.0
C745 C 0.04153 0.51177 0.55669 0.0
O746 O 0.05747 0.5301 0.48884 0.0
O747 O 0.0603 0.53765 0.51973 0.0
C748 C 0.06728 0.53721 0.50414 0.0
O749 O 0.04595 0.49963 0.50527 0.0
O750 O 0.01915 0.5432 0.46659 0.0
O751 O 0.02574 0.5176 0.45566 0.0
O752 O 0.02392 0.49679 0.48315 0.0
C753 C 0.03612 0.49014 0.49102 0.0
O754 O 0.00578 0.50699 0.51799 0.0
O755 O -0.00011 0.52098 0.49441 0.0
O756 O 0.03226 0.55297 0.50371 0.0
O757 O 0.03809 0.49972 0.54189 0.0
O758 O 0.04446 0.5281 0.55355 0.0
O759 O 0.02144 0.54243 0.52814 0.0
C760 C 0.03677 0.542 0.44194 0.0
C761 C 0.04968 0.53288 0.43432 0.0
C762 C 0.05258 0.56944 0.43408 0.0
C763 C 0.06412 0.54203 0.42717 0.0
C764 C 0.03811 0.56028 0.44138 0.0
C765 C 0.0659 0.56043 0.42736 0.0
C766 C 0.02338 0.53309 0.45237 0.0
C767 C 0.99438 0.51143 0.50657 0.0
H768 H 0.01078 0.52368 0.56133 0.0
H769 H 0.02194 0.48162 0.60163 0.0
H770 H 0.98833 0.51459 0.58129 0.0
H771 H 0.04474 0.49128 0.58184 0.0
H772 H 0.04898 0.51876 0.43433 0.0
H773 H 0.05357 0.58359 0.43406 0.0
H774 H 0.07392 0.53466 0.42145 0.0
H775 H 0.02829 0.56761 0.44711 0.0
Eu776 Eu 0.76289 0.78484 0.25459 0.0
Eu777 Eu 0.80027 0.77429 0.26154 0.0
C778 C 0.76413 0.74367 0.26013 0.0
C779 C 0.71673 0.79238 0.26038 0.0
C780 C 0.71428 0.77927 0.27124 0.0
C781 C 0.69384 0.80608 0.2748 0.0
C782 C 0.70183 0.7797 0.28399 0.0
C783 C 0.70628 0.8056 0.26197 0.0
C784 C 0.6918 0.79333 0.28612 0.0
C785 C 0.7322 0.7942 0.24999 0.0
O786 O 0.79321 0.76471 0.23169 0.0
O787 O 0.77405 0.78335 0.22755 0.0
C788 C 0.78416 0.77225 0.22102 0.0
O789 O 0.78268 0.81184 0.26019 0.0
O790 O 0.8164 0.75383 0.26129 0.0
O791 O 0.82834 0.78158 0.27165 0.0
O792 O 0.80796 0.8017 0.25277 0.0
C793 C 0.79939 0.81518 0.25613 0.0
O794 O 0.76441 0.78297 0.28422 0.0
O795 O 0.79472 0.78849 0.28844 0.0
O796 O 0.78054 0.7502 0.26768 0.0
O797 O 0.74621 0.80484 0.25895 0.0
O798 O 0.73591 0.77939 0.24121 0.0
O799 O 0.7556 0.75406 0.25208 0.0
C800 C 0.84502 0.76386 0.2542 0.0
C801 C 0.84354 0.76966 0.23764 0.0
C802 C 0.87154 0.75282 0.24595 0.0
C803 C 0.85604 0.76701 0.22522 0.0
C804 C 0.85902 0.75548 0.25837 0.0
C805 C 0.87009 0.75852 0.22927 0.0
C806 C 0.83114 0.76541 0.26643 0.0
C807 C 0.77918 0.78766 0.29497 0.0
H808 H 0.7226 0.76923 0.27047 0.0
H809 H 0.68609 0.8166 0.27612 0.0
H810 H 0.70064 0.76987 0.29272 0.0
H811 H 0.70831 0.81597 0.25388 0.0
H812 H 0.8326 0.77602 0.23425 0.0
H813 H 0.88214 0.74599 0.24924 0.0
H814 H 0.85476 0.77164 0.21251 0.0
H815 H 0.86008 0.75075 0.27104 0.0
Eu816 Eu 0.7859 0.27461 0.73381 0.0
Eu817 Eu 0.77419 0.27786 0.78341 0.0
C818 C 0.74715 0.27141 0.75473 0.0
C819 C 0.78479 0.28765 0.6878 0.0
C820 C 0.77725 0.30309 0.69094 0.0
C821 C 0.7988 0.29804 0.66241 0.0
C822 C 0.78022 0.31572 0.67973 0.0
C823 C 0.79572 0.28532 0.67356 0.0
C824 C 0.79092 0.31329 0.66525 0.0
C825 C 0.78144 0.274 0.69931 0.0
O826 O 0.77237 0.24876 0.77073 0.0
O827 O 0.78056 0.2467 0.74038 0.0
C828 C 0.77546 0.23983 0.75478 0.0
O829 O 0.81468 0.28109 0.74616 0.0
O830 O 0.76479 0.28228 0.81023 0.0
O831 O 0.79218 0.27857 0.807 0.0
O832 O 0.79486 0.27706 0.76455 0.0
C833 C 0.8117 0.28114 0.76296 0.0
O834 O 0.78674 0.30338 0.7464 0.0
O835 O 0.77926 0.30574 0.77684 0.0
O836 O 0.74542 0.27337 0.77199 0.0
O837 O 0.79557 0.26992 0.70698 0.0
O838 O 0.76878 0.27539 0.71017 0.0
O839 O 0.76373 0.27271 0.75144 0.0
C840 C 0.77712 0.26651 0.83009 0.0
C841 C 0.78306 0.25021 0.82608 0.0
C842 C 0.7651 0.25775 0.85702 0.0
C843 C 0.78028 0.23789 0.83766 0.0
C844 C 0.76803 0.27012 0.84554 0.0
C845 C 0.77134 0.24157 0.85331 0.0
C846 C 0.77954 0.27955 0.81798 0.0
C847 C 0.7837 0.31246 0.76223 0.0
H848 H 0.76887 0.30536 0.70191 0.0
H849 H 0.80732 0.29589 0.65153 0.0
H850 H 0.77372 0.32715 0.68215 0.0
H851 H 0.8018 0.2736 0.67101 0.0
H852 H 0.7899 0.24701 0.81408 0.0
H853 H 0.7579 0.26085 0.86879 0.0
H854 H 0.78546 0.22567 0.83452 0.0
H855 H 0.76312 0.28251 0.84869 0.0
Eu856 Eu 0.78735 0.79607 0.76926 0.0
Eu857 Eu 0.77309 0.75519 0.74672 0.0
C858 C 0.77881 0.78897 0.72657 0.0
C859 C 0.78621 0.84251 0.78674 0.0
C860 C 0.77174 0.83927 0.77358 0.0
C861 C 0.77945 0.87139 0.79865 0.0
C862 C 0.7614 0.85212 0.7727 0.0
C863 C 0.78996 0.85847 0.79945 0.0
C864 C 0.76531 0.86831 0.78509 0.0
C865 C 0.79642 0.82847 0.78733 0.0
O866 O 0.80182 0.75754 0.75649 0.0
O867 O 0.81067 0.78732 0.75664 0.0
C868 C 0.81425 0.77128 0.75543 0.0
O869 O 0.79218 0.77795 0.78849 0.0
O870 O 0.7743 0.7359 0.72233 0.0
O871 O 0.75814 0.72781 0.74326 0.0
O872 O 0.77034 0.75386 0.77613 0.0
C873 C 0.7813 0.76318 0.78987 0.0
O874 O 0.75775 0.79037 0.77021 0.0
O875 O 0.74837 0.7668 0.74642 0.0
O876 O 0.78114 0.77256 0.72638 0.0
O877 O 0.78833 0.81523 0.79428 0.0
O878 O 0.80296 0.82305 0.77215 0.0
O879 O 0.77711 0.79953 0.74173 0.0
C880 C 0.77556 0.70827 0.72948 0.0
C881 C 0.7887 0.71045 0.74383 0.0
C882 C 0.78438 0.68088 0.71563 0.0
C883 C 0.79964 0.69799 0.74408 0.0
C884 C 0.77345 0.69351 0.71533 0.0
C885 C 0.79764 0.68313 0.72997 0.0
C886 C 0.76561 0.72253 0.72864 0.0
C887 C 0.74524 0.77988 0.75862 0.0
H888 H 0.76845 0.82679 0.76393 0.0
H889 H 0.78261 0.88391 0.80827 0.0
H890 H 0.75039 0.84947 0.7623 0.0
H891 H 0.80094 0.86092 0.80984 0.0
H892 H 0.79059 0.72191 0.75478 0.0
H893 H 0.78262 0.66949 0.70462 0.0
H894 H 0.80948 0.69984 0.7555 0.0
H895 H 0.76355 0.6919 0.70403 0.0
Eu896 Eu 0.54273 0.54956 0.51588 0.0
Eu897 Eu 0.5215 0.50902 0.50378 0.0
C898 C 0.54555 0.52837 0.47436 0.0
C899 C 0.55617 0.59794 0.51617 0.0
C900 C 0.54795 0.59451 0.4985 0.0
C901 C 0.55402 0.62913 0.51903 0.0
C902 C 0.54257 0.60822 0.49121 0.0
C903 C 0.55941 0.61532 0.52635 0.0
C904 C 0.54527 0.6256 0.5015 0.0
C905 C 0.55905 0.5829 0.52453 0.0
O906 O 0.54764 0.50518 0.51679 0.0
O907 O 0.56414 0.53345 0.51934 0.0
C908 C 0.56309 0.51634 0.51943 0.0
O909 O 0.53225 0.54336 0.54284 0.0
O910 O 0.51616 0.48387 0.48421 0.0
O911 O 0.50159 0.48649 0.50793 0.0
O912 O 0.51257 0.5171 0.53237 0.0
C913 C 0.51894 0.53082 0.54559 0.0
O914 O 0.51491 0.55315 0.50733 0.0
O915 O 0.50099 0.52432 0.49527 0.0
O916 O 0.53782 0.51355 0.47949 0.0
O917 O 0.54556 0.57611 0.53256 0.0
O918 O 0.56553 0.57059 0.5144 0.0
O919 O 0.54613 0.54399 0.48513 0.0
C920 C 0.51221 0.45995 0.49958 0.0
C921 C 0.52024 0.46114 0.51706 0.0
C922 C 0.51901 0.4304 0.49093 0.0
C923 C 0.52739 0.44702 0.52151 0.0
C924 C 0.51163 0.44454 0.48652 0.0
C925 C 0.527 0.43156 0.50848 0.0
C926 C 0.50613 0.4755 0.49465 0.0
C927 C 0.50067 0.54144 0.49979 0.0
H928 H 0.54499 0.58105 0.49058 0.0
H929 H 0.55637 0.64246 0.52719 0.0
H930 H 0.53555 0.60498 0.47782 0.0
H931 H 0.56554 0.61806 0.54011 0.0
H932 H 0.52116 0.47306 0.52731 0.0
H933 H 0.51866 0.4187 0.48057 0.0
H934 H 0.53304 0.44821 0.53527 0.0
H935 H 0.50579 0.44359 0.47288 0.0
Eu936 Eu 0.05057 0.5228 0.00201 0.0
Eu937 Eu 0.00891 0.52831 0.02341 0.0
C938 C 0.04777 0.53574 0.04617 0.0
C939 C 0.08942 0.49799 0.99172 0.0
C940 C 0.09651 0.49849 0.00942 0.0
C941 C 0.10751 0.47646 0.9803 0.0
C942 C 0.10927 0.48821 0.01249 0.0
C943 C 0.09485 0.48681 0.97724 0.0
C944 C 0.11499 0.47719 -0.00207 0.0
C945 C 0.07658 0.50915 0.98789 0.0
O946 O 0.03075 0.542 0.01102 0.0
O947 O 0.0532 0.55172 -0.00203 0.0
C948 C 0.03964 0.55584 0.00602 0.0
O949 O 0.02702 0.51709 0.98079 0.0
O950 O 0.00018 0.55013 0.04043 0.0
O951 O 0.98092 0.52568 0.02882 0.0
O952 O 0.0031 0.52814 0.99396 0.0
C953 C 0.01106 0.52149 0.97992 0.0
O954 O 0.03749 0.50419 0.01959 0.0
O955 O 0.00715 0.49887 0.01722 0.0
O956 O 0.03024 0.53061 0.0456 0.0
O957 O 0.05986 0.50115 0.98487 0.0
O958 O 0.07876 0.5252 -0.00227 0.0
O959 O 0.05726 0.53499 0.03187 0.0
C960 C 0.97083 0.55313 0.03302 0.0
C961 C 0.97436 0.5639 0.01993 0.0
C962 C 0.94382 0.56456 0.03863 0.0
C963 C 0.96273 0.57515 0.01637 0.0
C964 C 0.95545 0.55337 0.04218 0.0
C965 C 0.94746 0.57574 0.02587 0.0
C966 C 0.9834 0.54216 0.03787 0.0
C967 C 0.02215 0.49305 0.01509 0.0
H968 H 0.09232 0.50692 0.0208 0.0
H969 H 0.11176 0.46822 0.96881 0.0
H970 H 0.11463 0.48883 0.02624 0.0
H971 H 0.08945 0.48626 0.9635 0.0
H972 H 0.98625 0.56383 0.01273 0.0
H973 H 0.93197 0.56446 0.04589 0.0
H974 H 0.96588 0.58367 0.00652 0.0
H975 H 0.95254 0.54506 0.05227 0.0
C976 C 0.99225 0.22109 0.91331 0.0
C977 C 0.99098 0.23845 0.92177 0.0
C978 C 0.99517 0.20849 0.9237 0.0
C979 C 0.99332 0.19132 0.96367 0.0
H980 H 0.04351 0.18918 0.96141 0.0
C981 C 0.02929 0.15019 0.00577 0.0
C982 C 0.04063 0.1402 0.99633 0.0
C983 C 0.02223 0.16284 -0.00202 0.0
C984 C 0.02946 0.18951 0.96207 0.0
H985 H 0.98994 0.25574 0.94752 0.0
H986 H 0.9948 0.23337 0.96571 0.0
H987 H 0.03044 0.2088 0.94477 0.0
H988 H 0.05386 0.13577 0.97166 0.0
H989 H 0.04128 0.1575 0.95791 0.0
H990 H 0.99214 0.17153 0.98048 0.0
C991 C 0.99365 0.22973 0.95108 0.0
C992 C 0.02206 0.20075 0.95264 0.0
C993 C 0.99095 0.24246 0.94069 0.0
C994 C 0.04505 0.14324 0.97917 0.0
C995 C 0.03798 0.1558 0.97138 0.0
C996 C 0.00069 0.17985 0.973 0.0
C997 C -0.00351 0.213 0.9426 0.0
C998 C 0.00396 0.20154 0.95324 0.0
C999 C 0.02645 0.16567 0.98067 0.0
C1000 C 0.01879 0.17869 0.97205 0.0
H1001 H 0.99235 0.21764 0.89875 0.0
H1002 H -0.00252 0.1956 0.91704 0.0
H1003 H 0.9793 0.19191 0.96422 0.0
H1004 H 0.02553 0.14791 0.01895 0.0
H1005 H 0.01348 0.17038 0.00548 0.0
C1006 C 0.11109 0.78982 0.16524 0.0
C1007 C 0.10903 0.78167 0.14691 0.0
C1008 C 0.12664 0.79007 0.1758 0.0
C1009 C 0.15856 0.76217 0.17922 0.0
H1010 H 0.18577 0.80234 0.21377 0.0
C1011 C 0.22409 0.75994 0.21821 0.0
C1012 C 0.2278 0.76977 0.23594 0.0
C1013 C 0.20866 0.76061 0.20799 0.0
C1014 C 0.17806 0.79097 0.2044 0.0
H1015 H 0.12184 0.76851 0.12482 0.0
H1016 H 0.14904 0.76872 0.1435 0.0
H1017 H 0.16197 0.80717 0.19333 0.0
H1018 H 0.21771 0.78683 0.25742 0.0
H1019 H 0.19048 0.78776 0.23953 0.0
H1020 H 0.17433 0.74586 0.19043 0.0
C1021 C 0.1386 0.77486 0.1496 0.0
C1022 C 0.16466 0.79378 0.19263 0.0
C1023 C 0.12314 0.77482 0.13896 0.0
C1024 C 0.21526 0.7793 0.24371 0.0
C1025 C 0.19977 0.77991 0.23347 0.0
C1026 C 0.17185 0.75931 0.19108 0.0
C1027 C 0.14017 0.78201 0.16816 0.0
C1028 C 0.15493 0.77941 0.17993 0.0
C1029 C 0.19665 0.77102 0.21537 0.0
C1030 C 0.18174 0.77371 0.20371 0.0
H1031 H 0.1004 0.79532 0.17158 0.0
H1032 H 0.12763 0.7956 0.19014 0.0
H1033 H 0.15088 0.75085 0.16972 0.0
H1034 H 0.23344 0.75233 0.21192 0.0
H1035 H 0.20661 0.75371 0.19402 0.0
C1036 C 0.53189 0.85003 0.43851 0.0
C1037 C 0.52162 0.84595 0.42188 0.0
C1038 C 0.52977 0.86459 0.45139 0.0
C1039 C 0.50959 0.90519 0.45703 0.0
H1040 H 0.5161 0.90236 0.50786 0.0
C1041 C 0.50098 0.96301 0.50935 0.0
C1042 C 0.51847 0.97162 0.51578 0.0
C1043 C 0.49744 0.94474 0.50222 0.0
C1044 C 0.51392 0.90307 0.49369 0.0
H1045 H 0.50116 0.8532 0.40526 0.0
H1046 H 0.4967 0.87814 0.428 0.0
H1047 H 0.51858 0.87668 0.48477 0.0
H1048 H 0.54537 0.96812 0.52222 0.0
H1049 H 0.53903 0.93596 0.51038 0.0
H1050 H 0.50482 0.93153 0.46605 0.0
C1051 C 0.50689 0.87075 0.43104 0.0
C1052 C 0.51565 0.88859 0.48047 0.0
C1053 C 0.50938 0.8565 0.41802 0.0
C1054 C 0.53178 0.96156 0.51739 0.0
C1055 C 0.52814 0.94323 0.51068 0.0
C1056 C 0.50742 0.91942 0.47021 0.0
C1057 C 0.51693 0.87485 0.44796 0.0
C1058 C 0.51392 0.88967 0.462 0.0
C1059 C 0.5113 0.93505 0.50191 0.0
C1060 C 0.50991 0.91857 0.48859 0.0
H1061 H 0.54135 0.84184 0.44159 0.0
H1062 H 0.53808 0.86767 0.46405 0.0
H1063 H 0.50853 0.9067 0.44301 0.0
H1064 H 0.49063 0.9707 0.50782 0.0
H1065 H 0.48441 0.93858 0.49535 0.0
C1066 C 0.50115 0.2371 0.65404 0.0
C1067 C 0.51001 0.2546 0.65397 0.0
C1068 C 0.48287 0.23351 0.6555 0.0
C1069 C 0.44229 0.25444 0.65774 0.0
H1070 H 0.43101 0.22331 0.69242 0.0
C1071 C 0.37838 0.24999 0.69663 0.0
C1072 C 0.38288 0.25282 0.71541 0.0
C1073 C 0.39121 0.24688 0.68459 0.0
C1074 C 0.43388 0.23185 0.68253 0.0
H1075 H 0.50697 0.28198 0.65459 0.0
H1076 H 0.47517 0.27611 0.65882 0.0
H1077 H 0.45895 0.22434 0.67887 0.0
H1078 H 0.40431 0.25526 0.73632 0.0
H1079 H 0.42651 0.24964 0.71542 0.0
H1080 H 0.41765 0.26308 0.66303 0.0
C1081 C 0.48208 0.26496 0.65697 0.0
C1082 C 0.44985 0.23234 0.67456 0.0
C1083 C 0.50033 0.26843 0.65489 0.0
C1084 C 0.40035 0.25266 0.72194 0.0
C1085 C 0.41304 0.24944 0.70998 0.0
C1086 C 0.42633 0.2541 0.66595 0.0
C1087 C 0.4732 0.24748 0.65759 0.0
C1088 C 0.45463 0.24424 0.6627 0.0
C1089 C 0.40856 0.24639 0.69124 0.0
C1090 C 0.42252 0.24343 0.67906 0.0
H1091 H 0.50835 0.22614 0.65273 0.0
H1092 H 0.4764 0.21982 0.65537 0.0
H1093 H 0.44537 0.26338 0.64828 0.0
H1094 H 0.36494 0.24997 0.69128 0.0
H1095 H 0.38756 0.24465 0.67016 0.0
C1096 C 0.00897 0.80341 0.58397 0.0
C1097 C 0.99502 0.80351 0.59529 0.0
C1098 C 0.01556 0.81851 0.57697 0.0
C1099 C 0.01552 0.8672 0.5831 0.0
H1100 H 0.03332 0.86131 0.53559 0.0
C1101 C 0.02388 0.91994 0.53779 0.0
C1102 C 0.04027 0.9234 0.53021 0.0
C1103 C 0.02039 0.90634 0.54769 0.0
C1104 C 0.02864 0.86309 0.54899 0.0
H1105 H 0.97661 0.81905 0.60787 0.0
H1106 H 0.98716 0.84517 0.5944 0.0
H1107 H 0.02165 0.83503 0.54796 0.0
H1108 H 0.06594 0.91546 0.52728 0.0
H1109 H 0.05936 0.89089 0.54401 0.0
H1110 H 0.02152 0.89541 0.58332 0.0
C1111 C 0.99357 0.83372 0.59157 0.0
C1112 C 0.02197 0.84808 0.55613 0.0
C1113 C 0.98732 0.81872 0.59906 0.0
C1114 C 0.05311 0.91294 0.53275 0.0
C1115 C 0.04946 0.89906 0.54242 0.0
C1116 C 0.02183 0.88222 0.57574 0.0
C1117 C 0.00798 0.83387 0.58067 0.0
C1118 C 0.01523 0.84993 0.57324 0.0
C1119 C 0.03306 0.89571 0.54989 0.0
C1120 C 0.02833 0.8802 0.55861 0.0
H1121 H 0.01542 0.79195 0.58125 0.0
H1122 H 0.02695 0.81824 0.56907 0.0
H1123 H 0.01084 0.86917 0.59648 0.0
H1124 H 0.01352 0.92747 0.53574 0.0
H1125 H 0.00752 0.90368 0.55306 0.0
C1126 C 0.51587 0.78426 0.86176 0.0
C1127 C 0.52752 0.8005 0.86164 0.0
C1128 C 0.49868 0.78092 0.85297 0.0
C1129 C 0.47851 0.79315 0.81399 0.0
H1130 H 0.43203 0.77651 0.82968 0.0
C1131 C 0.41433 0.80525 0.78167 0.0
C1132 C 0.39932 0.79134 0.77826 0.0
C1133 C 0.4298 0.80309 0.79089 0.0
C1134 C 0.445 0.7808 0.82507 0.0
H1135 H 0.53001 0.82673 0.85444 0.0
H1136 H 0.49999 0.82108 0.8395 0.0
H1137 H 0.45898 0.77965 0.85025 0.0
H1138 H 0.38903 0.76392 0.78099 0.0
H1139 H 0.41615 0.76039 0.79763 0.0
H1140 H 0.46474 0.79492 0.78916 0.0
C1141 C 0.50421 0.81075 0.84582 0.0
C1142 C 0.4603 0.78265 0.83681 0.0
C1143 C 0.52131 0.81399 0.85436 0.0
C1144 C 0.40032 0.77498 0.78369 0.0
C1145 C 0.41577 0.77291 0.79315 0.0
C1146 C 0.46334 0.79132 0.80236 0.0
C1147 C 0.49315 0.79389 0.84421 0.0
C1148 C 0.47706 0.78948 0.83151 0.0
C1149 C 0.43051 0.78705 0.79697 0.0
C1150 C 0.44646 0.78571 0.80801 0.0
H1151 H 0.52048 0.77371 0.86738 0.0
H1152 H 0.49025 0.76787 0.85193 0.0
H1153 H 0.4914 0.79801 0.80951 0.0
H1154 H 0.41389 0.81812 0.77802 0.0
H1155 H 0.44097 0.81427 0.79393 0.0
C1156 C 0.48775 0.18457 0.10635 0.0
C1157 C 0.48932 0.20053 0.0996 0.0
C1158 C 0.48936 0.16881 0.09511 0.0
C1159 C 0.49133 0.14625 0.04857 0.0
H1160 H 0.52673 0.12511 0.07159 0.0
C1161 C 0.52184 0.08808 0.01148 0.0
C1162 C 0.5241 0.07503 0.02175 0.0
C1163 C 0.51697 0.10391 0.01973 0.0
C1164 C 0.51668 0.13072 0.06503 0.0
H1165 H 0.49238 0.21245 0.07564 0.0
H1166 H 0.49566 0.18472 0.05593 0.0
H1167 H 0.51722 0.15103 0.08817 0.0
H1168 H 0.52216 0.06745 0.04806 0.0
H1169 H 0.5131 0.09455 0.06224 0.0
H1170 H 0.49068 0.12558 0.02544 0.0
C1171 C 0.49299 0.18445 0.06986 0.0
C1172 C 0.51123 0.14552 0.07453 0.0
C1173 C 0.49118 0.20026 0.08112 0.0
C1174 C 0.52104 0.07764 0.04007 0.0
C1175 C 0.51584 0.09315 0.04816 0.0
C1176 C 0.49669 0.13121 0.03904 0.0
C1177 C 0.4928 0.16883 0.07702 0.0
C1178 C 0.49835 0.15324 0.0665 0.0
C1179 C 0.51402 0.10655 0.03818 0.0
C1180 C 0.50921 0.1232 0.04735 0.0
H1181 H 0.48596 0.1844 0.1205 0.0
H1182 H 0.4888 0.15678 0.10078 0.0
H1183 H 0.48145 0.15213 0.04212 0.0
H1184 H 0.524 0.08612 0.99723 0.0
H1185 H 0.5157 0.1141 0.01178 0.0
C1186 C 0.11542 0.28195 0.33763 0.0
C1187 C 0.1216 0.28332 0.35583 0.0
C1188 C 0.12731 0.28295 0.32444 0.0
C1189 C 0.17437 0.29833 0.31821 0.0
H1190 H 0.16233 0.26598 0.2719 0.0
C1191 C 0.22471 0.29914 0.26661 0.0
C1192 C 0.22838 0.28211 0.26044 0.0
C1193 C 0.2087 0.30084 0.27399 0.0
C1194 C 0.16583 0.27515 0.28473 0.0
H1195 H 0.14502 0.2866 0.37454 0.0
H1196 H 0.16602 0.28783 0.35118 0.0
H1197 H 0.14142 0.26501 0.29509 0.0
H1198 H 0.21786 0.2536 0.25527 0.0
H1199 H 0.19012 0.25644 0.26879 0.0
H1200 H 0.19921 0.30769 0.30837 0.0
C1201 C 0.15192 0.28635 0.34728 0.0
C1202 C 0.15383 0.27468 0.29796 0.0
C1203 C 0.13994 0.28548 0.3606 0.0
C1204 C 0.2152 0.26686 0.25994 0.0
C1205 C 0.1993 0.26853 0.26766 0.0
C1206 C 0.18642 0.29869 0.30505 0.0
C1207 C 0.14566 0.28515 0.3291 0.0
C1208 C 0.15812 0.28609 0.31491 0.0
C1209 C 0.19639 0.2855 0.27567 0.0
C1210 C 0.18239 0.28691 0.28827 0.0
H1211 H 0.10134 0.28037 0.33352 0.0
H1212 H 0.12212 0.28228 0.31062 0.0
H1213 H 0.17787 0.30749 0.33103 0.0
H1214 H 0.23471 0.31107 0.26685 0.0
H1215 H 0.20655 0.3141 0.27959 0.0
C1216 C 0.9271 0.04032 0.18298 0.0
C1217 C 0.9365 0.04562 0.20038 0.0
C1218 C 0.936 0.03862 0.16676 0.0
C1219 C 0.98215 0.04972 0.14806 0.0
H1220 H 0.95816 0.01837 0.10461 0.0
C1221 C 0.01527 0.04655 0.07775 0.0
C1222 C 0.01033 0.03141 0.06364 0.0
C1223 C 0.00665 0.0482 0.09417 0.0
C1224 C 0.96541 0.02715 0.11648 0.0
H1225 H 0.96338 0.0532 0.21344 0.0
H1226 H 0.97871 0.0502 0.18571 0.0
H1227 H 0.94334 0.02097 0.13238 0.0
H1228 H 0.99188 0.00601 0.0568 0.0
H1229 H 0.9774 0.00855 0.08496 0.0
H1230 H 0.00439 0.05558 0.13227 0.0
C1231 C 0.96428 0.0475 0.18437 0.0
C1232 C 0.95658 0.02888 0.13274 0.0
C1233 C 0.95536 0.04916 0.20059 0.0
C1234 C 0.99635 0.01796 0.06699 0.0
C1235 C 0.98778 0.01956 0.08342 0.0
C1236 C 0.99098 0.048 0.13179 0.0
C1237 C 0.95491 0.04214 0.16687 0.0
C1238 C 0.96463 0.04023 0.14911 0.0
C1239 C 0.99255 0.03478 0.09756 0.0
C1240 C 0.98293 0.03665 0.1154 0.0
H1241 H 0.91265 0.03743 0.18183 0.0
H1242 H 0.92781 0.03473 0.15403 0.0
H1243 H 0.9892 0.05882 0.15985 0.0
H1244 H 0.02574 0.05743 0.07604 0.0
H1245 H 0.01098 0.06036 0.10408 0.0
C1246 C 0.28937 0.66778 0.47644 0.0
C1247 C 0.29183 0.64997 0.47288 0.0
C1248 C 0.28529 0.67629 0.46228 0.0
C1249 C 0.28772 0.67499 0.41351 0.0
H1250 H 0.251 0.70373 0.41945 0.0
C1251 C 0.26509 0.71052 0.35721 0.0
C1252 C 0.26289 0.72826 0.36291 0.0
C1253 C 0.26739 0.69966 0.36985 0.0
C1254 C 0.26138 0.69588 0.41763 0.0
H1255 H 0.29232 0.62723 0.45164 0.0
H1256 H 0.28532 0.64222 0.42685 0.0
H1257 H 0.25797 0.68744 0.44301 0.0
H1258 H 0.26141 0.74846 0.38638 0.0
H1259 H 0.26538 0.72959 0.40835 0.0
H1260 H 0.29135 0.68371 0.38826 0.0
C1261 C 0.28657 0.64956 0.44062 0.0
C1262 C 0.26537 0.68654 0.43113 0.0
C1263 C 0.29054 0.64098 0.45481 0.0
C1264 C 0.26276 0.73478 0.3815 0.0
C1265 C 0.26504 0.72394 0.39411 0.0
C1266 C 0.28377 0.6844 0.40001 0.0
C1267 C 0.28365 0.66723 0.44424 0.0
C1268 C 0.27877 0.67623 0.42935 0.0
C1269 C 0.26751 0.7063 0.38846 0.0
C1270 C 0.27074 0.69517 0.40206 0.0
H1271 H 0.29025 0.67508 0.4902 0.0
H1272 H 0.28341 0.69002 0.46548 0.0
H1273 H 0.29818 0.66723 0.41181 0.0
H1274 H 0.26497 0.705 0.34296 0.0
H1275 H 0.26901 0.68604 0.36505 0.0
C1276 C 0.63454 0.02093 0.67206 0.0
C1277 C 0.62613 0.01583 0.68694 0.0
C1278 C 0.6246 0.0251 0.65795 0.0
C1279 C 0.57921 0.01967 0.63697 0.0
H1280 H 0.60019 0.06116 0.61741 0.0
C1281 C 0.54498 0.0394 0.57665 0.0
C1282 C 0.55556 0.03709 0.56211 0.0
C1283 C 0.55248 0.04109 0.59426 0.0
C1284 C 0.59412 0.04975 0.62301 0.0
H1285 H 0.60072 0.00982 0.69827 0.0
H1286 H 0.58335 0.01712 0.67358 0.0
H1287 H 0.61562 0.05367 0.6435 0.0
H1288 H 0.58228 0.03614 0.55425 0.0
H1289 H 0.59549 0.03942 0.58514 0.0
H1290 H 0.55792 0.01556 0.61622 0.0
C1291 C 0.59759 0.01798 0.67285 0.0
C1292 C 0.60298 0.04533 0.63769 0.0
C1293 C 0.60752 0.01379 0.68695 0.0
C1294 C 0.5739 0.03773 0.56534 0.0
C1295 C 0.58145 0.03982 0.58293 0.0
C1296 C 0.57026 0.02422 0.62244 0.0
C1297 C 0.60613 0.02417 0.65853 0.0
C1298 C 0.59588 0.0299 0.64434 0.0
C1299 C 0.57067 0.04092 0.59739 0.0
C1300 C 0.57797 0.03893 0.61506 0.0
H1301 H 0.64888 0.02258 0.67172 0.0
H1302 H 0.6314 0.02941 0.64676 0.0
H1303 H 0.5735 0.00767 0.64182 0.0
H1304 H 0.53077 0.03891 0.57436 0.0
H1305 H 0.544 0.04181 0.60533 0.0
C1306 C 0.26737 0.3378 0.95593 0.0
C1307 C 0.28355 0.34298 0.96688 0.0
C1308 C 0.26679 0.32844 0.93825 0.0
C1309 C 0.29497 0.32652 0.90144 0.0
H1310 H 0.25832 0.28684 0.87697 0.0
C1311 C 0.29621 0.29689 0.82652 0.0
C1312 C 0.27998 0.29214 0.81555 0.0
C1313 C 0.29644 0.30138 0.84525 0.0
C1314 C 0.26852 0.29806 0.88358 0.0
H1315 H 0.3117 0.34214 0.96837 0.0
H1316 H 0.31085 0.32605 0.93714 0.0
H1317 H 0.25934 0.29653 0.90979 0.0
H1318 H 0.2512 0.28814 0.81574 0.0
H1319 H 0.25159 0.29629 0.84866 0.0
H1320 H 0.30381 0.32863 0.87538 0.0
C1321 C 0.29856 0.32897 0.94236 0.0
C1322 C 0.26917 0.30349 0.90236 0.0
C1323 C 0.29904 0.33798 0.96022 0.0
C1324 C 0.26392 0.29177 0.82381 0.0
C1325 C 0.26415 0.29633 0.84267 0.0
C1326 C 0.29421 0.32123 0.88271 0.0
C1327 C 0.28251 0.32455 0.93108 0.0
C1328 C 0.28243 0.31776 0.91144 0.0
C1329 C 0.28045 0.30134 0.85358 0.0
C1330 C 0.28101 0.30692 0.87353 0.0
H1331 H 0.25531 0.34171 0.9608 0.0
H1332 H 0.25429 0.32532 0.92982 0.0
H1333 H 0.30505 0.33785 0.90803 0.0
H1334 H 0.30887 0.29722 0.82067 0.0
H1335 H 0.30921 0.30482 0.85322 0.0
C1336 C 0.95465 0.03014 0.31553 0.0
C1337 C 0.94443 0.04301 0.31208 0.0
C1338 C 0.96216 0.02974 0.33299 0.0
C1339 C 0.96237 0.04796 0.38382 0.0
H1340 H 0.00481 0.02735 0.38612 0.0
C1341 C 0.00111 0.04666 0.45456 0.0
C1342 C 0.01142 0.03338 0.45602 0.0
C1343 C 0.993 0.04845 0.43763 0.0
C1344 C 0.99282 0.03293 0.38606 0.0
H1345 H 0.93427 0.06565 0.32582 0.0
H1346 H 0.94759 0.06518 0.35636 0.0
H1347 H 0.99117 0.02968 0.35712 0.0
H1348 H 0.02075 0.01145 0.4398 0.0
H1349 H 0.00665 0.01423 0.41087 0.0
H1350 H 0.96426 0.05134 0.41295 0.0
C1351 C 0.94966 0.05511 0.3452 0.0
C1352 C 0.98478 0.0343 0.36902 0.0
C1353 C 0.94193 0.05545 0.32747 0.0
C1354 C 0.01316 0.02198 0.43962 0.0
C1355 C 0.005 0.02371 0.42272 0.0
C1356 C 0.97047 0.0466 0.40096 0.0
C1357 C 0.9602 0.0423 0.34842 0.0
C1358 C 0.96918 0.04167 0.36728 0.0
C1359 C 0.99467 0.03702 0.42115 0.0
C1360 C 0.98589 0.03889 0.40261 0.0
H1361 H 0.95692 0.01998 0.30453 0.0
H1362 H 0.96944 0.01917 0.33427 0.0
H1363 H 0.95044 0.05366 0.38362 0.0
H1364 H -0.00068 0.05587 0.4666 0.0
H1365 H 0.98557 0.05911 0.43756 0.0
C1366 C 0.3045 0.67033 0.57907 0.0
C1367 C 0.29594 0.65243 0.57804 0.0
C1368 C 0.30237 0.68365 0.59361 0.0
C1369 C 0.27115 0.69417 0.62758 0.0
H1370 H 0.31173 0.72737 0.65462 0.0
C1371 C 0.26515 0.73809 0.69673 0.0
C1372 C 0.27702 0.75454 0.7023 0.0
C1373 C 0.26672 0.72684 0.6804 0.0
C1374 C 0.30015 0.7185 0.64705 0.0
H1375 H 0.27841 0.63458 0.59158 0.0
H1376 H 0.27454 0.65775 0.61661 0.0
H1377 H 0.31636 0.70569 0.62854 0.0
H1378 H 0.29918 0.7725 0.69441 0.0
H1379 H 0.30144 0.75334 0.66573 0.0
H1380 H 0.25485 0.70702 0.64575 0.0
C1381 C 0.28294 0.6615 0.60624 0.0
C1382 C 0.30287 0.70597 0.63212 0.0
C1383 C 0.28531 0.64818 0.59195 0.0
C1384 C 0.28984 0.75989 0.69063 0.0
C1385 C 0.29129 0.74874 0.67422 0.0
C1386 C 0.26839 0.70684 0.64234 0.0
C1387 C 0.29135 0.6794 0.60722 0.0
C1388 C 0.28843 0.69349 0.62238 0.0
C1389 C 0.28008 0.7318 0.66907 0.0
C1390 C 0.28287 0.71906 0.65249 0.0
H1391 H 0.31273 0.67408 0.56858 0.0
H1392 H 0.30899 0.69734 0.59396 0.0
H1393 H 0.25971 0.6849 0.62018 0.0
H1394 H 0.25522 0.73341 0.70543 0.0
H1395 H 0.25793 0.71387 0.67714 0.0
C1396 C 0.64237 0.04663 0.80015 0.0
C1397 C 0.6286 0.04989 0.78876 0.0
C1398 C 0.64363 0.05299 0.81867 0.0
C1399 C 0.6272 0.08426 0.85363 0.0
H1400 H 0.62778 0.04679 0.88167 0.0
C1401 C 0.5791 0.06957 0.90308 0.0
C1402 C 0.58224 0.05874 0.91556 0.0
C1403 C 0.59284 0.07637 0.89344 0.0
C1404 C 0.6283 0.05777 0.87439 0.0
H1405 H 0.60532 0.06225 0.78778 0.0
H1406 H 0.60715 0.07283 0.82037 0.0
H1407 H 0.63614 0.04222 0.85107 0.0
H1408 H 0.60247 0.04863 0.92981 0.0
H1409 H 0.62666 0.06049 0.91275 0.0
H1410 H 0.61799 0.09923 0.87664 0.0
C1411 C 0.61726 0.06581 0.81482 0.0
C1412 C 0.63298 0.05505 0.85672 0.0
C1413 C 0.61601 0.05948 0.79624 0.0
C1414 C 0.59971 0.05654 0.91981 0.0
C1415 C 0.61353 0.06346 0.91022 0.0
C1416 C 0.6226 0.08704 0.87139 0.0
C1417 C 0.63112 0.06266 0.82615 0.0
C1418 C 0.63129 0.06778 0.84587 0.0
C1419 C 0.60993 0.07241 0.89612 0.0
C1420 C 0.6218 0.07323 0.88141 0.0
H1421 H 0.65235 0.03933 0.79478 0.0
H1422 H 0.65437 0.05032 0.82715 0.0
H1423 H 0.62628 0.09445 0.84557 0.0
H1424 H 0.56573 0.0715 0.89963 0.0
H1425 H 0.58952 0.08307 0.88257 0.0
C1426 C 0.29011 0.33173 0.07717 0.0
C1427 C 0.29286 0.35026 0.07757 0.0
C1428 C 0.28863 0.32498 0.09324 0.0
C1429 C 0.29791 0.33884 0.14327 0.0
H1430 H 0.26427 0.295 0.1438 0.0
C1431 C 0.28078 0.31457 0.2097 0.0
C1432 C 0.28057 0.29635 0.20972 0.0
C1433 C 0.28165 0.32112 0.19351 0.0
C1434 C 0.2738 0.30721 0.14383 0.0
H1435 H 0.2961 0.37624 0.09512 0.0
H1436 H 0.2931 0.36454 0.12292 0.0
H1437 H 0.26745 0.30631 0.11563 0.0
H1438 H 0.28064 0.27065 0.19264 0.0
H1439 H 0.28213 0.28209 0.16453 0.0
H1440 H 0.30408 0.3398 0.17152 0.0
C1441 C 0.29253 0.35516 0.11034 0.0
C1442 C 0.27569 0.31366 0.12766 0.0
C1443 C 0.29417 0.36189 0.09434 0.0
C1444 C 0.28084 0.28478 0.19316 0.0
C1445 C 0.28158 0.2913 0.177 0.0
C1446 C 0.2959 0.33246 0.15944 0.0
C1447 C 0.28972 0.33662 0.11003 0.0
C1448 C 0.2878 0.32956 0.12716 0.0
C1449 C 0.28218 0.30956 0.177 0.0
C1450 C 0.28386 0.31656 0.1599 0.0
H1451 H 0.28905 0.32243 0.06446 0.0
H1452 H 0.28675 0.31064 0.09248 0.0
H1453 H 0.30762 0.35093 0.14338 0.0
H1454 H 0.28054 0.32383 0.22221 0.0
H1455 H 0.28189 0.33523 0.19391 0.0
C1456 C 0.21172 0.97229 0.00917 0.0
C1457 C 0.21142 0.95381 0.00427 0.0
C1458 C 0.1958 0.97886 0.01153 0.0
C1459 C 0.14615 0.96587 0.00023 0.0
H1460 H 0.14487 0.00639 0.03811 0.0
C1461 C 0.07928 0.98901 0.01613 0.0
C1462 C 0.07956 0.00755 0.02041 0.0
C1463 C 0.09524 0.98234 0.01507 0.0
C1464 C 0.14494 0.99517 0.02731 0.0
H1465 H 0.19386 0.9278 -0.00193 0.0
H1466 H 0.16634 0.93913 0.00224 0.0
H1467 H 0.17263 0.99541 0.0341 0.0
H1468 H 0.09727 0.03348 0.02737 0.0
H1469 H 0.12482 0.02195 0.02551 0.0
H1470 H 0.11853 0.96567 0.99335 0.0
C1471 C 0.17882 0.94867 0.00407 0.0
C1472 C 0.16098 0.98885 0.02499 0.0
C1473 C 0.19471 0.94212 0.00178 0.0
C1474 C 0.09636 0.01912 0.02414 0.0
C1475 C 0.11229 0.01246 0.02312 0.0
C1476 C 0.13013 0.97219 0.00254 0.0
C1477 C 0.17904 0.96716 0.00898 0.0
C1478 C 0.16189 0.97408 0.01141 0.0
C1479 C 0.11205 0.99396 0.01829 0.0
C1480 C 0.1292 0.98696 0.01612 0.0
H1481 H 0.22429 0.98173 0.01119 0.0
H1482 H 0.19664 0.99319 0.01511 0.0
H1483 H 0.14624 0.95469 0.9894 0.0
H1484 H 0.0667 0.97961 0.01309 0.0
H1485 H 0.09435 0.968 0.01162 0.0
C1486 C 0.7117 0.63173 0.97654 0.0
C1487 C 0.71431 0.65015 0.98361 0.0
C1488 C 0.69544 0.62051 0.97755 0.0
C1489 C 0.65701 0.61716 0.00447 0.0
H1490 H 0.63354 0.58113 0.96372 0.0
C1491 C 0.58582 0.5782 0.00563 0.0
C1492 C 0.58224 0.55976 -0.00156 0.0
C1493 C 0.60199 0.58889 0.00337 0.0
C1494 C 0.64005 0.59097 0.97528 0.0
H1495 H 0.70185 0.67135 0.99701 0.0
H1496 H 0.67344 0.6517 -0.0011 0.0
H1497 H 0.66163 0.60059 0.96035 0.0
H1498 H 0.5928 0.53815 0.98298 0.0
H1499 H 0.62109 0.55687 0.97907 0.0
H1500 H 0.63561 0.60751 0.01949 0.0
C1501 C 0.68402 0.64595 0.99261 0.0
C1502 C 0.65609 0.60213 0.97333 0.0
C1503 C 0.70022 0.65721 0.99141 0.0
C1504 C 0.59512 0.55231 0.98868 0.0
C1505 C 0.61131 0.56304 0.98637 0.0
C1506 C 0.64104 0.60597 0.00645 0.0
C1507 C 0.68153 0.62747 0.98584 0.0
C1508 C 0.66464 0.61544 0.98787 0.0
C1509 C 0.61497 0.58143 0.99384 0.0
C1510 C 0.63229 0.59286 0.99183 0.0
H1511 H 0.72234 0.62592 0.97044 0.0
H1512 H 0.69392 0.6063 0.97232 0.0
H1513 H 0.66351 0.62706 0.01601 0.0
H1514 H 0.57622 0.58443 0.01319 0.0
H1515 H 0.60427 0.60306 0.00902 0.0
C1516 C 0.70548 0.45587 0.25421 0.0
C1517 C 0.68716 0.45544 0.25687 0.0
C1518 C 0.71365 0.44043 0.25367 0.0
C1519 C 0.70603 0.39159 0.26344 0.0
H1520 H 0.74901 0.38885 0.23926 0.0
C1521 C 0.73827 0.32533 0.25767 0.0
C1522 C 0.75618 0.32531 0.25351 0.0
C1523 C 0.73004 0.34069 0.25789 0.0
C1524 C 0.73713 0.38909 0.24636 0.0
H1525 H 0.66355 0.43701 0.26106 0.0
H1526 H 0.67737 0.41069 0.26018 0.0
H1527 H 0.73526 0.41497 0.24007 0.0
H1528 H 0.779 0.34288 0.24639 0.0
H1529 H 0.76516 0.36906 0.24688 0.0
H1530 H 0.70791 0.3658 0.26984 0.0
C1531 C 0.68578 0.42307 0.25859 0.0
C1532 C 0.72901 0.40453 0.24683 0.0
C1533 C 0.6776 0.43847 0.25901 0.0
C1534 C 0.76525 0.34173 0.24956 0.0
C1535 C 0.75704 0.3571 0.2498 0.0
C1536 C 0.71419 0.37617 0.26303 0.0
C1537 C 0.70413 0.4234 0.25588 0.0
C1538 C 0.71311 0.40642 0.25538 0.0
C1539 C 0.7391 0.35725 0.25403 0.0
C1540 C 0.73009 0.37425 0.25446 0.0
H1541 H 0.7137 0.46832 0.25248 0.0
H1542 H 0.72772 0.44209 0.25174 0.0
H1543 H 0.69413 0.39188 0.27052 0.0
H1544 H 0.73043 0.31334 0.26089 0.0
H1545 H 0.71629 0.3393 0.26103 0.0
C1546 C 0.83063 0.46055 0.51009 0.0
C1547 C 0.82104 0.4672 0.49713 0.0
C1548 C 0.84934 0.46542 0.51293 0.0
C1549 C 0.88774 0.49948 0.50396 0.0
H1550 H 0.91623 0.46463 0.51292 0.0
C1551 C 0.96284 0.51063 0.49475 0.0
C1552 C 0.97468 0.50591 0.50725 0.0
C1553 C 0.94435 0.50594 0.49517 0.0
C1554 C 0.90848 0.47461 0.51066 0.0
H1555 H 0.82388 0.48413 0.47692 0.0
H1556 H 0.85621 0.49228 0.48157 0.0
H1557 H 0.88364 0.45647 0.5105 0.0
H1558 H 0.97603 0.49235 0.53005 0.0
H1559 H 0.94355 0.48408 0.53075 0.0
H1560 H 0.91248 0.51749 0.50378 0.0
C1561 C 0.84935 0.48363 0.48991 0.0
C1562 C 0.88973 0.46993 0.50927 0.0
C1563 C 0.8307 0.47885 0.48714 0.0
C1564 C 0.96738 0.49619 0.52017 0.0
C1565 C 0.94874 0.49139 0.52053 0.0
C1566 C 0.90639 0.5041 0.50525 0.0
C1567 C 0.85902 0.47704 0.50286 0.0
C1568 C 0.87905 0.48222 0.50559 0.0
C1569 C 0.93697 0.49634 0.50809 0.0
C1570 C 0.91707 0.49166 0.50831 0.0
H1571 H 0.82368 0.45155 0.51805 0.0
H1572 H 0.85618 0.46018 0.52317 0.0
H1573 H 0.88012 0.50954 0.50164 0.0
H1574 H 0.96781 0.51802 0.48451 0.0
H1575 H 0.93581 0.50971 0.48514 0.0
C1576 C 0.35664 0.06737 0.28355 0.0
C1577 C 0.37524 0.07039 0.28723 0.0
C1578 C 0.3486 0.0806 0.27813 0.0
C1579 C 0.35515 0.12765 0.27293 0.0
H1580 H 0.32537 0.10767 0.22806 0.0
C1581 C 0.32711 0.17314 0.23182 0.0
C1582 C 0.30851 0.16842 0.228 0.0
C1583 C 0.33667 0.16082 0.23691 0.0
C1584 C 0.33362 0.11341 0.24058 0.0
H1585 H 0.39972 0.0903 0.2906 0.0
H1586 H 0.3856 0.11343 0.28115 0.0
H1587 H 0.3381 0.08788 0.24474 0.0
H1588 H 0.28547 0.1469 0.22496 0.0
H1589 H 0.30215 0.12532 0.23385 0.0
H1590 H 0.35049 0.15316 0.26889 0.0
C1591 C 0.37729 0.1008 0.28223 0.0
C1592 C 0.34077 0.10211 0.2502 0.0
C1593 C 0.38535 0.08756 0.28767 0.0
C1594 C 0.29983 0.15079 0.22774 0.0
C1595 C 0.30938 0.13846 0.23286 0.0
C1596 C 0.34795 0.13896 0.26333 0.0
C1597 C 0.35904 0.09701 0.27641 0.0
C1598 C 0.35137 0.10912 0.26657 0.0
C1599 C 0.32773 0.14364 0.23825 0.0
C1600 C 0.33695 0.13189 0.24719 0.0
H1601 H 0.34848 0.05432 0.28333 0.0
H1602 H 0.33438 0.07759 0.27416 0.0
H1603 H 0.36333 0.13333 0.2855 0.0
H1604 H 0.3341 0.18663 0.2318 0.0
H1605 H 0.35089 0.16497 0.24062 0.0
C1606 C 0.32645 0.15338 0.51982 0.0
C1607 C 0.31864 0.15344 0.50259 0.0
C1608 C 0.34284 0.14819 0.52181 0.0
C1609 C 0.38151 0.13612 0.49784 0.0
H1610 H 0.38118 0.10478 0.53291 0.0
C1611 C 0.42912 0.08574 0.501 0.0
C1612 C 0.43529 0.08374 0.51831 0.0
C1613 C 0.41687 0.09685 0.49905 0.0
C1614 C 0.38163 0.11371 0.52326 0.0
H1615 H 0.32194 0.14903 0.47393 0.0
H1616 H 0.35049 0.1391 0.47725 0.0
H1617 H 0.35636 0.11977 0.5295 0.0
H1618 H 0.4345 0.09276 0.54713 0.0
H1619 H 0.41308 0.11203 0.54371 0.0
H1620 H 0.40672 0.12933 0.49127 0.0
C1621 C 0.34418 0.14351 0.48929 0.0
C1622 C 0.3674 0.12238 0.52132 0.0
C1623 C 0.32785 0.14912 0.48735 0.0
C1624 C 0.42964 0.0937 0.53361 0.0
C1625 C 0.41743 0.10476 0.53166 0.0
C1626 C 0.39578 0.12728 0.49971 0.0
C1627 C 0.35153 0.14242 0.50654 0.0
C1628 C 0.36716 0.13376 0.50866 0.0
C1629 C 0.4106 0.10613 0.51438 0.0
C1630 C 0.39596 0.11603 0.51248 0.0
H1631 H 0.31958 0.15688 0.53176 0.0
H1632 H 0.34837 0.14807 0.53533 0.0
H1633 H 0.38177 0.14486 0.48802 0.0
H1634 H 0.4332 0.07816 0.48897 0.0
H1635 H 0.41173 0.09756 0.48556 0.0
C1636 C 0.702 0.57944 0.2676 0.0
C1637 C 0.68405 0.57359 0.26018 0.0
C1638 C 0.71144 0.59732 0.26782 0.0
C1639 C 0.70889 0.63897 0.24666 0.0
H1640 H 0.74439 0.66419 0.28539 0.0
C1641 C 0.73795 0.71643 0.2522 0.0
C1642 C 0.75526 0.72418 0.26057 0.0
C1643 C 0.72996 0.6983 0.25229 0.0
C1644 C 0.73467 0.65749 0.27424 0.0
H1645 H 0.66259 0.58299 0.24693 0.0
H1646 H 0.67847 0.61299 0.24731 0.0
H1647 H 0.73035 0.63309 0.2851 0.0
H1648 H 0.77742 0.71789 0.27575 0.0
H1649 H 0.76383 0.68678 0.27584 0.0
H1650 H 0.71317 0.66311 0.23566 0.0
C1651 C 0.68562 0.60402 0.25291 0.0
C1652 C 0.72648 0.63932 0.27409 0.0
C1653 C 0.67627 0.58645 0.25284 0.0
C1654 C 0.7641 0.71281 0.26914 0.0
C1655 C 0.75612 0.69469 0.26926 0.0
C1656 C 0.71706 0.65704 0.24678 0.0
C1657 C 0.70346 0.61011 0.26041 0.0
C1658 C 0.7132 0.62956 0.26037 0.0
C1659 C 0.73881 0.68681 0.26077 0.0
C1660 C 0.73013 0.66697 0.26063 0.0
H1661 H 0.70873 0.57033 0.27351 0.0
H1662 H 0.72512 0.60103 0.2737 0.0
H1663 H 0.6992 0.6323 0.23546 0.0
H1664 H 0.73043 0.7244 0.24544 0.0
H1665 H 0.7166 0.69342 0.2458 0.0
C1666 C 0.87558 0.45076 0.75359 0.0
C1667 C 0.87831 0.46462 0.76873 0.0
C1668 C 0.86292 0.43531 0.75326 0.0
C1669 C 0.8239 0.41697 0.77627 0.0
H1670 H 0.83395 0.37189 0.75171 0.0
C1671 C 0.7921 0.3432 0.7809 0.0
C1672 C 0.78728 0.332 0.7639 0.0
C1673 C 0.79973 0.36121 0.78198 0.0
C1674 C 0.83097 0.38446 0.75848 0.0
H1675 H 0.87042 0.47326 0.79553 0.0
H1676 H 0.84896 0.4458 0.79541 0.0
H1677 H 0.85577 0.39921 0.75315 0.0
H1678 H 0.7844 0.33125 0.73488 0.0
H1679 H 0.79809 0.36252 0.73689 0.0
H1680 H 0.79935 0.40161 0.78231 0.0
C1681 C 0.85604 0.44709 0.7835 0.0
C1682 C 0.84338 0.40011 0.75924 0.0
C1683 C 0.86842 0.46273 0.78365 0.0
C1684 C 0.78838 0.33947 0.74816 0.0
C1685 C 0.79608 0.35735 0.74926 0.0
C1686 C 0.8116 0.40115 0.77582 0.0
C1687 C 0.85308 0.43324 0.76825 0.0
C1688 C 0.83994 0.41659 0.76796 0.0
C1689 C 0.80255 0.36804 0.76609 0.0
C1690 C 0.81504 0.3849 0.76672 0.0
H1691 H 0.88289 0.45205 0.74182 0.0
H1692 H 0.86071 0.42512 0.74111 0.0
H1693 H 0.82073 0.42946 0.78292 0.0
H1694 H 0.79131 0.33782 0.79325 0.0
H1695 H 0.80475 0.36936 0.79507 0.0
C1696 C 0.04673 0.8068 0.07018 0.0
C1697 C 0.05405 0.81066 0.08818 0.0
C1698 C 0.04758 0.82038 0.06016 0.0
C1699 C 0.0541 0.86944 0.06627 0.0
H1700 H 0.0556 0.8595 0.01413 0.0
C1701 C 0.04944 0.92296 0.02447 0.0
C1702 C 0.03362 0.91818 0.01287 0.0
C1703 C 0.05637 0.90998 0.03164 0.0
C1704 C 0.0554 0.86241 0.02871 0.0
H1705 H 0.06856 0.83129 0.10982 0.0
H1706 H 0.07079 0.85495 0.09211 0.0
H1707 H 0.05962 0.83647 0.03165 0.0
H1708 H 0.01346 0.89607 -0.00153 0.0
H1709 H 0.02585 0.87322 0.01086 0.0
H1710 H 0.04991 0.89538 0.06327 0.0
C1711 C 0.06378 0.84165 0.08587 0.0
C1712 C 0.0575 0.84926 0.03871 0.0
C1713 C 0.06252 0.82814 0.09601 0.0
C1714 C 0.02569 0.90006 0.00734 0.0
C1715 C 0.03277 0.88703 0.01437 0.0
C1716 C 0.05239 0.88266 0.05633 0.0
C1717 C 0.05618 0.83794 0.06789 0.0
C1718 C 0.05633 0.85249 0.05753 0.0
C1719 C 0.04774 0.89204 0.02706 0.0
C1720 C 0.05257 0.87905 0.03747 0.0
H1721 H 0.04015 0.79333 0.06394 0.0
H1722 H 0.04121 0.81715 0.04649 0.0
H1723 H 0.05281 0.8723 0.08068 0.0
H1724 H 0.05605 0.93683 0.02857 0.0
H1725 H 0.068 0.914 0.04136 0.0
C1726 C 0.95173 0.30812 0.85094 0.0
C1727 C 0.95464 0.29205 0.85564 0.0
C1728 C 0.93457 0.31018 0.84605 0.0
C1729 C 0.88651 0.29019 0.84316 0.0
H1730 H 0.88649 0.30813 0.79818 0.0
C1731 C 0.82674 0.27392 0.78963 0.0
C1732 C 0.82526 0.28606 0.77811 0.0
C1733 C 0.84074 0.27769 0.80317 0.0
C1734 C 0.88613 0.30355 0.81098 0.0
H1735 H 0.94209 0.26589 0.86008 0.0
H1736 H 0.91187 0.26904 0.8503 0.0
H1737 H 0.91444 0.30888 0.81483 0.0
H1738 H 0.83585 0.31206 0.7721 0.0
H1739 H 0.86 0.3192 0.79638 0.0
H1740 H 0.85798 0.28433 0.83878 0.0
C1741 C 0.92284 0.2802 0.85087 0.0
C1742 C 0.90224 0.30394 0.82053 0.0
C1743 C 0.94007 0.2783 0.85621 0.0
C1744 C 0.83711 0.30247 0.7808 0.0
C1745 C 0.85084 0.30647 0.79463 0.0
C1746 C 0.87026 0.28989 0.83358 0.0
C1747 C 0.92005 0.29602 0.84531 0.0
C1748 C 0.90264 0.29704 0.83655 0.0
C1749 C 0.85325 0.29381 0.80547 0.0
C1750 C 0.86996 0.2963 0.8172 0.0
H1751 H 0.96276 0.31911 0.85101 0.0
H1752 H 0.93274 0.32268 0.84227 0.0
H1753 H 0.88649 0.28488 0.85556 0.0
H1754 H 0.81757 0.26116 0.7876 0.0
H1755 H 0.8423 0.26755 0.8111 0.0
C1756 C 0.55344 0.21256 0.58056 0.0
C1757 C 0.55672 0.21131 0.5988 0.0
C1758 C 0.55045 0.19727 0.56715 0.0
C1759 C 0.53476 0.14954 0.55896 0.0
H1760 H 0.56625 0.14716 0.52021 0.0
C1761 C 0.55772 0.08935 0.51449 0.0
C1762 C 0.54103 0.07891 0.5074 0.0
C1763 C 0.55926 0.10759 0.52114 0.0
C1764 C 0.55725 0.14784 0.53082 0.0
H1765 H 0.55903 0.19313 0.6174 0.0
H1766 H 0.55353 0.16627 0.59382 0.0
H1767 H 0.56891 0.17508 0.54229 0.0
H1768 H 0.51342 0.07964 0.49956 0.0
H1769 H 0.51614 0.11141 0.51156 0.0
H1770 H 0.5233 0.12228 0.54777 0.0
C1771 C 0.5534 0.17915 0.59003 0.0
C1772 C 0.55874 0.16367 0.54336 0.0
C1773 C 0.55665 0.19448 0.60344 0.0
C1774 C 0.5264 0.0873 0.50525 0.0
C1775 C 0.52791 0.10545 0.51204 0.0
C1776 C 0.53305 0.13386 0.54626 0.0
C1777 C 0.55043 0.18051 0.57182 0.0
C1778 C 0.54775 0.16445 0.5577 0.0
C1779 C 0.54412 0.11546 0.52077 0.0
C1780 C 0.54447 0.13284 0.53231 0.0
H1781 H 0.55338 0.22538 0.5766 0.0
H1782 H 0.54807 0.19849 0.55315 0.0
H1783 H 0.52615 0.14997 0.56993 0.0
H1784 H 0.56925 0.08326 0.51624 0.0
H1785 H 0.57186 0.11516 0.52795 0.0
C1786 C 0.56513 0.77984 0.36244 0.0
C1787 C 0.56275 0.78483 0.38082 0.0
C1788 C 0.58202 0.78339 0.35641 0.0
C1789 C 0.61808 0.80952 0.35216 0.0
H1790 H 0.649 0.7749 0.35284 0.0
C1791 C 0.67978 0.81113 0.31183 0.0
C1792 C 0.67977 0.79459 0.30064 0.0
C1793 C 0.66847 0.81223 0.32569 0.0
C1794 C 0.64062 0.78481 0.3528 0.0
H1795 H 0.57603 0.79724 0.40739 0.0
H1796 H 0.60585 0.80327 0.39663 0.0
H1797 H 0.62277 0.77286 0.37018 0.0
H1798 H 0.66815 0.76627 0.29505 0.0
H1799 H 0.64827 0.76818 0.31915 0.0
H1800 H 0.63516 0.82084 0.3339 0.0
C1801 C 0.59452 0.79666 0.38709 0.0
C1802 C 0.62579 0.7837 0.36276 0.0
C1803 C 0.57758 0.79312 0.39316 0.0
C1804 C 0.6685 0.77914 0.30363 0.0
C1805 C 0.65725 0.78022 0.31747 0.0
C1806 C 0.63297 0.81072 0.34228 0.0
C1807 C 0.59669 0.79195 0.36868 0.0
C1808 C 0.61419 0.79567 0.36193 0.0
C1809 C 0.65709 0.79677 0.32855 0.0
C1810 C 0.6439 0.79791 0.34196 0.0
H1811 H 0.55393 0.7734 0.35268 0.0
H1812 H 0.58366 0.77956 0.34215 0.0
H1813 H 0.60906 0.81874 0.35135 0.0
H1814 H 0.68861 0.82318 0.30995 0.0
H1815 H 0.66855 0.82512 0.33412 0.0
C1816 C 0.06402 0.24859 0.43882 0.0
C1817 C 0.06449 0.24609 0.41998 0.0
C1818 C 0.0571 0.23423 0.44697 0.0
C1819 C 0.04879 0.1855 0.4402 0.0
H1820 H 0.01446 0.19141 0.47578 0.0
C1821 C 0.01598 0.12668 0.47139 0.0
C1822 C 0.01619 0.13023 0.49035 0.0
C1823 C 0.01973 0.14067 0.46192 0.0
C1824 C 0.02411 0.18962 0.46594 0.0
H1825 H 0.05856 0.22668 0.39486 0.0
H1826 H 0.04674 0.2016 0.40914 0.0
H1827 H 0.02635 0.21645 0.4613 0.0
H1828 H 0.01966 0.15119 0.51418 0.0
H1829 H 0.02611 0.17565 0.49763 0.0
H1830 H 0.04693 0.15885 0.44507 0.0
C1831 C 0.0516 0.21463 0.41758 0.0
C1832 C 0.03091 0.20392 0.45771 0.0
C1833 C 0.05829 0.22899 0.40944 0.0
C1834 C 0.01922 0.14805 0.49956 0.0
C1835 C 0.02294 0.16206 0.49008 0.0
C1836 C 0.04208 0.17124 0.4485 0.0
C1837 C 0.05081 0.21717 0.43638 0.0
C1838 C 0.0434 0.202 0.44489 0.0
C1839 C 0.02368 0.15848 0.47123 0.0
C1840 C 0.02977 0.17321 0.46154 0.0
H1841 H 0.06868 0.26167 0.44722 0.0
H1842 H 0.05677 0.23644 0.46153 0.0
H1843 H 0.05853 0.18377 0.43045 0.0
H1844 H 0.01335 0.11305 0.46391 0.0
H1845 H 0.01987 0.13754 0.44735 0.0
C1846 C 0.54716 0.28011 0.16854 0.0
C1847 C 0.54405 0.27187 0.15024 0.0
C1848 C 0.56328 0.2804 0.17823 0.0
C1849 C 0.60911 0.27197 0.17333 0.0
H1850 H 0.6041 0.25844 0.22033 0.0
C1851 C 0.66223 0.24325 0.20889 0.0
C1852 C 0.66705 0.25053 0.22727 0.0
C1853 C 0.64753 0.24738 0.2 0.0
C1854 C 0.60571 0.26244 0.20733 0.0
H1855 H 0.55549 0.25815 0.12745 0.0
H1856 H 0.58345 0.25817 0.14447 0.0
H1857 H 0.57827 0.26414 0.20357 0.0
H1858 H 0.66028 0.26765 0.25086 0.0
H1859 H 0.63431 0.27465 0.2353 0.0
H1860 H 0.63647 0.26962 0.17693 0.0
C1861 C 0.57363 0.26474 0.15128 0.0
C1862 C 0.59098 0.2658 0.19776 0.0
C1863 C 0.55759 0.26464 0.14155 0.0
C1864 C 0.65666 0.26163 0.23675 0.0
C1865 C 0.6419 0.26571 0.22786 0.0
C1866 C 0.62381 0.26847 0.18284 0.0
C1867 C 0.57646 0.27227 0.16981 0.0
C1868 C 0.59249 0.27038 0.18057 0.0
C1869 C 0.63739 0.2588 0.20937 0.0
C1870 C 0.62214 0.26346 0.1998 0.0
H1871 H 0.53697 0.28595 0.1755 0.0
H1872 H 0.56524 0.28661 0.19241 0.0
H1873 H 0.61072 0.27574 0.16023 0.0
H1874 H 0.66992 0.23448 0.20136 0.0
H1875 H 0.64408 0.24164 0.1858 0.0
C1876 C 0.58757 0.86068 0.9321 0.0
C1877 C 0.58822 0.85799 0.91324 0.0
C1878 C 0.58322 0.87641 0.9413 0.0
C1879 C 0.55442 0.90584 0.93634 0.0
H1880 H 0.58433 0.94188 0.97326 0.0
C1881 C 0.53319 0.95723 0.99317 0.0
C1882 C 0.53917 0.97481 0.99097 0.0
C1883 C 0.53879 0.9433 0.98201 0.0
C1884 C 0.57596 0.93185 0.96292 0.0
H1885 H 0.58544 0.8699 0.88933 0.0
H1886 H 0.57738 0.89704 0.90547 0.0
H1887 H 0.59664 0.91677 0.95749 0.0
H1888 H 0.55517 0.99208 0.97556 0.0
H1889 H 0.56553 0.96767 0.95659 0.0
H1890 H 0.53354 0.9206 0.94226 0.0
C1891 C 0.58049 0.88708 0.91302 0.0
C1892 C 0.58292 0.91763 0.95404 0.0
C1893 C 0.5852 0.8716 0.90389 0.0
C1894 C 0.55046 0.97847 0.97742 0.0
C1895 C 0.55636 0.96466 0.96661 0.0
C1896 C 0.54735 0.91987 0.94549 0.0
C1897 C 0.57917 0.88937 0.93167 0.0
C1898 C 0.57215 0.90458 0.94077 0.0
C1899 C 0.55065 0.94708 0.96901 0.0
C1900 C 0.5581 0.93281 0.95883 0.0
H1901 H 0.58979 0.8504 0.93961 0.0
H1902 H 0.58216 0.87809 0.95576 0.0
H1903 H 0.54599 0.89578 0.9261 0.0
H1904 H 0.52423 0.95433 0.00338 0.0
H1905 H 0.53434 0.92967 0.98386 0.0
C1906 C 0.93316 0.73225 0.66659 0.0
C1907 C 0.94082 0.74697 0.65919 0.0
C1908 C 0.91771 0.7326 0.67539 0.0
C1909 C 0.88222 0.75869 0.68606 0.0
H1910 H 0.88702 0.74339 0.73229 0.0
C1911 C 0.84325 0.78224 0.7442 0.0
C1912 C 0.83145 0.76816 0.74928 0.0
C1913 C 0.85723 0.77863 0.73406 0.0
C1914 C 0.88555 0.74759 0.71938 0.0
H1915 H 0.93788 0.77297 0.65378 0.0
H1916 H 0.91118 0.77401 0.66986 0.0
H1917 H 0.9084 0.7378 0.71016 0.0
H1918 H 0.82616 0.73966 0.74966 0.0
H1919 H 0.851 0.73347 0.73211 0.0
H1920 H 0.85978 0.76918 0.6958 0.0
C1921 C 0.91684 0.76201 0.66858 0.0
C1922 C 0.89759 0.74426 0.70663 0.0
C1923 C 0.93214 0.76149 0.65944 0.0
C1924 C 0.83496 0.75072 0.74574 0.0
C1925 C 0.84911 0.74716 0.73574 0.0
C1926 C 0.87035 0.76225 0.69893 0.0
C1927 C 0.90994 0.74787 0.67726 0.0
C1928 C 0.89612 0.74991 0.68991 0.0
C1929 C 0.85972 0.76099 0.72916 0.0
C1930 C 0.87211 0.75688 0.71569 0.0
H1931 H 0.93954 0.72076 0.66621 0.0
H1932 H 0.91235 0.72129 0.68148 0.0
H1933 H 0.88063 0.76297 0.67322 0.0
H1934 H 0.84102 0.79586 0.74693 0.0
H1935 H 0.86555 0.78947 0.72929 0.0
C1936 C 0.12773 0.00795 0.82913 0.0
C1937 C 0.12215 0.01726 0.81585 0.0
C1938 C 0.12016 0.0087 0.84627 0.0
C1939 C 0.0916 0.03562 0.87725 0.0
H1940 H 0.08739 0.99649 0.90349 0.0
C1941 C 0.06366 0.0424 0.95005 0.0
C1942 C 0.0546 0.02712 0.95608 0.0
C1943 C 0.07209 0.04109 0.93352 0.0
C1944 C 0.08823 0.00765 0.89646 0.0
H1945 H 0.10357 0.03462 0.81134 0.0
H1946 H 0.09086 0.03575 0.84002 0.0
H1947 H 0.10133 0.99424 0.87489 0.0
H1948 H 0.04792 0.99822 0.94842 0.0
H1949 H 0.06228 0.99596 0.92013 0.0
H1950 H 0.07838 0.04898 0.89855 0.0
C1951 C 0.10127 0.02802 0.83767 0.0
C1952 C 0.09657 0.0064 0.87985 0.0
C1953 C 0.10866 0.02721 0.82075 0.0
C1954 C 0.05454 0.01047 0.94463 0.0
C1955 C 0.06307 0.00915 0.92818 0.0
C1956 C 0.0834 0.03692 0.89386 0.0
C1957 C 0.10675 0.01891 0.85109 0.0
C1958 C 0.09839 0.0203 0.86961 0.0
C1959 C 0.07213 0.02441 0.92205 0.0
C1960 C 0.08134 0.02296 0.904 0.0
H1961 H 0.13794 1.00005 0.82633 0.0
H1962 H 0.12509 0.0014 0.85586 0.0
H1963 H 0.09271 0.04697 0.87047 0.0
H1964 H 0.06434 0.05554 0.95819 0.0
H1965 H 0.07892 0.05336 0.92994 0.0
C1966 C 0.7693 0.38919 0.54202 0.0
C1967 C 0.76893 0.40756 0.5453 0.0
C1968 C 0.77426 0.38092 0.55603 0.0
C1969 C 0.77645 0.38448 0.60503 0.0
H1970 H 0.80828 0.35067 0.59617 0.0
C1971 C 0.79435 0.34458 0.659 0.0
C1972 C 0.79295 0.32613 0.65261 0.0
C1973 C 0.79437 0.35637 0.64689 0.0
C1974 C 0.79933 0.36002 0.59883 0.0
H1975 H 0.77323 0.43166 0.56588 0.0
H1976 H 0.78161 0.41705 0.59054 0.0
H1977 H 0.80199 0.36778 0.57303 0.0
H1978 H 0.791 0.30571 0.62848 0.0
H1979 H 0.79112 0.3262 0.60744 0.0
H1980 H 0.77327 0.37631 0.63056 0.0
C1981 C 0.77813 0.40912 0.57706 0.0
C1982 C 0.79574 0.36981 0.5856 0.0
C1983 C 0.77335 0.41746 0.56296 0.0
C1984 C 0.79234 0.31985 0.63389 0.0
C1985 C 0.79241 0.33163 0.6218 0.0
C1986 C 0.77996 0.37462 0.61825 0.0
C1987 C 0.7788 0.39081 0.57367 0.0
C1988 C 0.78396 0.38183 0.58842 0.0
C1989 C 0.79307 0.34996 0.62814 0.0
C1990 C 0.79113 0.362 0.61512 0.0
H1991 H 0.76603 0.38121 0.52854 0.0
H1992 H 0.7744 0.36672 0.55309 0.0
H1993 H 0.76724 0.39359 0.60751 0.0
H1994 H 0.79521 0.34989 0.67337 0.0
H1995 H 0.7952 0.37047 0.65219 0.0
C1996 C 0.45843 0.00856 0.32062 0.0
C1997 C 0.44408 0.01722 0.31813 0.0
C1998 C 0.46606 0.00914 0.33793 0.0
C1999 C 0.45658 0.0145 0.38482 0.0
H2000 H 0.50808 0.02646 0.3946 0.0
C2001 C 0.49082 0.02297 0.45619 0.0
C2002 C 0.50699 0.01701 0.45772 0.0
C2003 C 0.48301 0.02342 0.43923 0.0
C2004 C 0.4937 0.02283 0.39202 0.0
H2005 H 0.42646 0.03331 0.33176 0.0
H2006 H 0.43994 0.03431 0.3621 0.0
H2007 H 0.49462 0.02655 0.3646 0.0
H2008 H 0.52764 0.00651 0.44325 0.0
H2009 H 0.51346 0.00624 0.41338 0.0
H2010 H 0.45558 0.01022 0.41199 0.0
C2011 C 0.44513 0.02703 0.3506 0.0
C2012 C 0.48604 0.02299 0.37491 0.0
C2013 C 0.43751 0.0265 0.33326 0.0
C2014 C 0.51514 0.01117 0.44221 0.0
C2015 C 0.50711 0.0112 0.42521 0.0
C2016 C 0.46425 0.0141 0.40188 0.0
C2017 C 0.45945 0.01837 0.353 0.0
C2018 C 0.46745 0.01876 0.37121 0.0
C2019 C 0.49108 0.01754 0.42357 0.0
C2020 C 0.48289 0.01818 0.4056 0.0
H2021 H 0.46369 0.00118 0.30923 0.0
H2022 H 0.47697 0.00217 0.33957 0.0
H2023 H 0.4422 0.01103 0.38213 0.0
H2024 H 0.48455 0.02787 0.46812 0.0
H2025 H 0.47087 0.02874 0.43844 0.0
C2026 C 0.77629 0.69806 0.06734 0.0
C2027 C 0.77137 0.70542 0.05246 0.0
C2028 C 0.77971 0.70852 0.0846 0.0
C2029 C 0.76712 0.74486 0.11373 0.0
H2030 H 0.81024 0.74485 0.14336 0.0
C2031 C 0.77711 0.77717 0.18961 0.0
C2032 C 0.78493 0.76773 0.20123 0.0
C2033 C 0.77716 0.77235 0.17086 0.0
C2034 C 0.79805 0.74488 0.13535 0.0
H2035 H 0.76619 0.72952 0.04391 0.0
H2036 H 0.77158 0.74787 0.07462 0.0
H2037 H 0.80715 0.73142 0.11131 0.0
H2038 H 0.7991 0.74595 0.20229 0.0
H2039 H 0.79869 0.73718 0.16972 0.0
H2040 H 0.75747 0.75727 0.13787 0.0
C2041 C 0.77302 0.73399 0.07266 0.0
C2042 C 0.79639 0.73735 0.11697 0.0
C2043 C 0.76999 0.72356 0.05518 0.0
C2044 C 0.79303 0.75356 0.19372 0.0
C2045 C 0.79291 0.74862 0.17499 0.0
C2046 C 0.76866 0.75217 0.1322 0.0
C2047 C 0.77798 0.72651 0.08746 0.0
C2048 C 0.78078 0.73696 0.1061 0.0
C2049 C 0.78488 0.75787 0.16329 0.0
C2050 C 0.78399 0.7519 0.14333 0.0
H2051 H 0.7776 0.68415 0.06565 0.0
H2052 H 0.78334 0.70241 0.09583 0.0
H2053 H 0.75488 0.74451 0.10561 0.0
H2054 H 0.77088 0.78826 0.19498 0.0
H2055 H 0.77111 0.77997 0.1623 0.0
C2056 C 0.13825 0.01561 0.69025 0.0
C2057 C 0.12915 0.00683 0.70305 0.0
C2058 C 0.12946 0.0174 0.67369 0.0
C2059 C 0.08829 0.9984 0.64042 0.0
H2060 H 0.10136 0.04215 0.62176 0.0
C2061 C 0.06187 0.00544 0.5664 0.0
C2062 C 0.0581 0.02206 0.56343 0.0
C2063 C 0.06994 0.00342 0.58326 0.0
C2064 C 0.09735 0.02977 0.62662 0.0
H2065 H 0.10304 0.99289 0.7075 0.0
H2066 H 0.08795 0.99547 0.67864 0.0
H2067 H 0.11593 0.03898 0.65043 0.0
H2068 H 0.06039 0.04961 0.57685 0.0
H2069 H 0.07455 0.04624 0.6057 0.0
H2070 H 0.06986 0.98911 0.61646 0.0
C2071 C 0.10203 0.00118 0.68148 0.0
C2072 C 0.10595 0.02787 0.64324 0.0
C2073 C 0.11076 0.99973 0.69827 0.0
C2074 C 0.06291 0.03654 0.57823 0.0
C2075 C 0.07125 0.03459 0.59497 0.0
C2076 C 0.07993 1.00016 0.6236 0.0
C2077 C 0.11111 0.01019 0.66876 0.0
C2078 C 0.10166 0.01216 0.65068 0.0
C2079 C 0.07501 0.01798 0.59801 0.0
C2080 C 0.08416 0.01594 0.61623 0.0
H2081 H 0.15232 0.02138 0.69311 0.0
H2082 H 0.13726 0.02431 0.66456 0.0
H2083 H 0.08442 0.98598 0.64525 0.0
H2084 H 0.05851 0.99381 0.55563 0.0
H2085 H 0.07254 0.99036 0.58456 0.0
C2086 C 0.76667 0.40394 0.42306 0.0
C2087 C 0.76156 0.39975 0.4397 0.0
C2088 C 0.76931 0.39053 0.409 0.0
C2089 C 0.75715 0.3435 0.38885 0.0
H2090 H 0.80274 0.3513 0.36848 0.0
C2091 C 0.77376 0.29441 0.32669 0.0
C2092 C 0.78324 0.30259 0.31388 0.0
C2093 C 0.77172 0.30449 0.34363 0.0
C2094 C 0.78983 0.34894 0.3738 0.0
H2095 H 0.75468 0.37804 0.45438 0.0
H2096 H 0.75877 0.35444 0.42941 0.0
H2097 H 0.7971 0.37246 0.39441 0.0
H2098 H 0.79816 0.3278 0.30907 0.0
H2099 H 0.79424 0.34513 0.33782 0.0
H2100 H 0.74949 0.32046 0.36766 0.0
C2101 C 0.76092 0.36821 0.42747 0.0
C2102 C 0.78668 0.36105 0.38876 0.0
C2103 C 0.75864 0.38171 0.44174 0.0
C2104 C 0.79084 0.32092 0.31854 0.0
C2105 C 0.78871 0.33093 0.33525 0.0
C2106 C 0.76018 0.33148 0.3736 0.0
C2107 C 0.76658 0.37256 0.41108 0.0
C2108 C 0.77022 0.35866 0.39624 0.0
C2109 C 0.7791 0.32296 0.34808 0.0
C2110 C 0.77644 0.33428 0.3656 0.0
H2111 H 0.76912 0.41767 0.42103 0.0
H2112 H 0.77356 0.39423 0.39646 0.0
H2113 H 0.74432 0.34137 0.39439 0.0
H2114 H 0.76769 0.28033 0.32352 0.0
H2115 H 0.76435 0.29782 0.3532 0.0
C2116 C 0.43358 0.01858 0.21851 0.0
C2117 C 0.41583 0.02042 0.22046 0.0
C2118 C 0.43811 0.00919 0.20257 0.0
C2119 C 0.44136 0.97938 0.17241 0.0
H2120 H 0.43452 0.99768 0.12833 0.0
C2121 C 0.47135 0.98449 0.0994 0.0
C2122 C 0.48914 0.99078 0.10664 0.0
C2123 C 0.45817 0.97949 0.11056 0.0
C2124 C 0.43606 0.99188 0.14028 0.0
H2125 H 0.38905 0.01478 0.20696 0.0
H2126 H 0.39726 0.99873 0.1786 0.0
H2127 H 0.41835 0.00697 0.15408 0.0
H2128 H 0.50748 0.99509 0.13064 0.0
H2129 H 0.48456 0.98649 0.15018 0.0
H2130 H 0.46005 0.96532 0.15908 0.0
C2131 C 0.40745 0.00424 0.18969 0.0
C2132 C 0.42684 0.99729 0.15503 0.0
C2133 C 0.40284 0.01352 0.2058 0.0
C2134 C 0.49387 0.99024 0.12473 0.0
C2135 C 0.48071 0.98522 0.13589 0.0
C2136 C 0.45052 0.97392 0.15765 0.0
C2137 C 0.42502 0.00163 0.18821 0.0
C2138 C 0.43031 0.99193 0.17149 0.0
C2139 C 0.46265 0.98069 0.12909 0.0
C2140 C 0.44879 0.98103 0.14188 0.0
H2141 H 0.4439 0.02384 0.22953 0.0
H2142 H 0.45188 0.0078 0.20147 0.0
H2143 H 0.44392 0.97486 0.18497 0.0
H2144 H 0.46747 0.98444 0.08533 0.0
H2145 H 0.44437 0.97585 0.10499 0.0
C2146 C 0.7786 0.72573 0.94236 0.0
C2147 C 0.77574 0.70713 0.94166 0.0
C2148 C 0.7797 0.73269 0.92638 0.0
C2149 C 0.76445 0.72097 0.8784 0.0
H2150 H 0.80412 0.7574 0.87149 0.0
C2151 C 0.77414 0.73931 0.80837 0.0
C2152 C 0.78121 0.75714 0.80743 0.0
C2153 C 0.77378 0.73374 0.82505 0.0
C2154 C 0.79277 0.74744 0.87326 0.0
H2155 H 0.77188 0.68128 0.92374 0.0
H2156 H 0.77348 0.69341 0.896 0.0
H2157 H 0.80268 0.7473 0.90044 0.0
H2158 H 0.79331 0.7832 0.82319 0.0
H2159 H 0.79207 0.77369 0.8523 0.0
H2160 H 0.75418 0.72128 0.85159 0.0
C2161 C 0.77493 0.70259 0.90885 0.0
C2162 C 0.79202 0.74164 0.88984 0.0
C2163 C 0.77412 0.69567 0.92475 0.0
C2164 C 0.78792 0.7693 0.82348 0.0
C2165 C 0.78729 0.76381 0.84019 0.0
C2166 C 0.76503 0.72694 0.86196 0.0
C2167 C 0.77763 0.72113 0.90949 0.0
C2168 C 0.77797 0.72818 0.89244 0.0
C2169 C 0.78019 0.74595 0.84122 0.0
C2170 C 0.77933 0.74008 0.85904 0.0
H2171 H 0.77991 0.73487 0.9552 0.0
H2172 H 0.78176 0.74705 0.92719 0.0
H2173 H 0.75334 0.71073 0.88019 0.0
H2174 H 0.76903 0.7296 0.79621 0.0
H2175 H 0.7686 0.71978 0.8252 0.0
C2176 C 0.86193 0.10386 0.01324 0.0
C2177 C 0.84822 0.09139 0.01835 0.0
C2178 C 0.87865 0.09941 0.00974 0.0
C2179 C 0.90065 0.06102 0.9959 0.0
H2180 H 0.94409 0.09179 0.02003 0.0
C2181 C 0.96791 0.03623 0.99559 0.0
C2182 C 0.98421 0.04852 -0.00199 0.0
C2183 C 0.95158 0.04208 0.9966 0.0
C2184 C 0.93223 0.08312 0.0128 0.0
H2185 H 0.84141 0.0643 0.02334 0.0
H2186 H 0.8702 0.05644 0.01671 0.0
H2187 H 0.91548 0.10098 0.02418 0.0
H2188 H 0.9959 0.07677 0.00274 0.0
H2189 H 0.96753 0.08702 0.00351 0.0
H2190 H 0.91712 0.04338 0.98403 0.0
C2191 C 0.86813 0.06973 0.01562 0.0
C2192 C 0.91572 0.08842 0.01532 0.0
C2193 C 0.85161 0.07429 0.01951 0.0
C2194 C 0.98364 0.06688 0.00081 0.0
C2195 C 0.96726 0.07276 0.00149 0.0
C2196 C 0.91714 0.05588 0.99308 0.0
C2197 C 0.88195 0.08224 0.01082 0.0
C2198 C 0.89968 0.0773 0.00714 0.0
C2199 C 0.95088 0.06048 -0.00027 0.0
C2200 C 0.93327 0.06666 0.00173 0.0
H2201 H 0.85984 0.11717 0.01224 0.0
H2202 H 0.88896 0.10935 0.00599 0.0
H2203 H 0.88859 0.05224 0.98917 0.0
H2204 H 0.96773 0.02198 0.9937 0.0
H2205 H 0.93956 0.03203 0.99556 0.0
C2206 C 0.35379 0.41749 0.00434 0.0
C2207 C 0.34636 0.41217 0.01962 0.0
C2208 C 0.37117 0.42718 0.00567 0.0
C2209 C 0.41376 0.44224 0.03537 0.0
H2210 H 0.42099 0.47799 0.00476 0.0
C2211 C 0.47821 0.49756 0.03655 0.0
C2212 C 0.48533 0.49621 0.01966 0.0
C2213 C 0.46153 0.48728 0.03836 0.0
C2214 C 0.41913 0.46809 0.01342 0.0
H2215 H 0.35146 0.41224 0.04818 0.0
H2216 H 0.38184 0.4299 0.05075 0.0
H2217 H 0.39143 0.46001 0.00469 0.0
H2218 H 0.48058 0.48316 0.99143 0.0
H2219 H 0.45135 0.46579 0.99452 0.0
H2220 H 0.44167 0.45094 0.04432 0.0
C2221 C 0.37432 0.42625 0.03762 0.0
C2222 C 0.40224 0.45762 0.01326 0.0
C2223 C 0.35692 0.41616 0.03619 0.0
C2224 C 0.4755 0.48445 0.00465 0.0
C2225 C 0.45876 0.47454 0.00637 0.0
C2226 C 0.43068 0.453 0.03575 0.0
C2227 C 0.3815 0.43225 0.02242 0.0
C2228 C 0.39938 0.44421 0.02386 0.0
C2229 C 0.45161 0.47588 0.0232 0.0
C2230 C 0.43353 0.46574 0.02447 0.0
H2231 H 0.34604 0.41432 0.99132 0.0
H2232 H 0.37639 0.43092 0.99351 0.0
H2233 H 0.41212 0.43203 0.04367 0.0
H2234 H 0.48555 0.50646 0.04835 0.0
H2235 H 0.45621 0.48853 0.05145 0.0
C2236 C 0.38918 0.61975 0.76354 0.0
C2237 C 0.37952 0.60199 0.75758 0.0
C2238 C 0.3811 0.63523 0.76411 0.0
C2239 C 0.33666 0.65061 0.75042 0.0
H2240 H 0.36114 0.69672 0.77706 0.0
C2241 C 0.30056 0.7142 0.75902 0.0
C2242 C 0.31035 0.73206 0.76203 0.0
C2243 C 0.3089 0.69893 0.7585 0.0
C2244 C 0.35391 0.68412 0.76931 0.0
H2245 H 0.35287 0.58772 0.74754 0.0
H2246 H 0.33895 0.61392 0.74872 0.0
H2247 H 0.37491 0.67059 0.7763 0.0
H2248 H 0.3376 0.74674 0.76688 0.0
H2249 H 0.35195 0.72066 0.76619 0.0
H2250 H 0.3156 0.66421 0.74356 0.0
C2251 C 0.35305 0.61627 0.75285 0.0
C2252 C 0.36202 0.66866 0.76884 0.0
C2253 C 0.36117 0.6008 0.75225 0.0
C2254 C 0.32917 0.73358 0.76459 0.0
C2255 C 0.33755 0.71827 0.76425 0.0
C2256 C 0.32851 0.66604 0.75099 0.0
C2257 C 0.36268 0.63416 0.75878 0.0
C2258 C 0.35375 0.65123 0.75936 0.0
C2259 C 0.32773 0.70033 0.76109 0.0
C2260 C 0.33679 0.68342 0.76046 0.0
H2261 H 0.40328 0.62181 0.76777 0.0
H2262 H 0.38966 0.64817 0.76863 0.0
H2263 H 0.32935 0.63812 0.74257 0.0
H2264 H 0.28614 0.71187 0.7569 0.0
H2265 H 0.30031 0.68587 0.75625 0.0
C2266 C 0.23183 0.57969 0.50402 0.0
C2267 C 0.23893 0.59644 0.51499 0.0
C2268 C 0.21331 0.57305 0.50188 0.0
C2269 C 0.17252 0.57602 0.52483 0.0
H2270 H 0.14666 0.55888 0.47755 0.0
C2271 C 0.09553 0.55813 0.51813 0.0
C2272 C 0.08665 0.54454 0.50403 0.0
C2273 C 0.11391 0.5646 0.51861 0.0
C2274 C 0.1536 0.56329 0.49092 0.0
H2275 H 0.232 0.61926 0.53231 0.0
H2276 H 0.19997 0.6075 0.52894 0.0
H2277 H 0.17901 0.56893 0.48004 0.0
H2278 H 0.09017 0.52714 0.47923 0.0
H2279 H 0.12235 0.53765 0.48047 0.0
H2280 H 0.14758 0.56988 0.53594 0.0
C2281 C 0.20867 0.59954 0.52191 0.0
C2282 C 0.17222 0.56915 0.4923 0.0
C2283 C 0.22706 0.60629 0.52379 0.0
C2284 C 0.0966 0.53769 0.49026 0.0
C2285 C 0.11512 0.54385 0.49095 0.0
C2286 C 0.15402 0.56986 0.5235 0.0
C2287 C 0.20152 0.58285 0.51093 0.0
C2288 C 0.18187 0.57577 0.50928 0.0
C2289 C 0.12417 0.55733 0.50525 0.0
C2290 C 0.14414 0.56357 0.50652 0.0
H2291 H 0.24057 0.57179 0.49699 0.0
H2292 H 0.20821 0.5601 0.49338 0.0
H2293 H 0.17958 0.58082 0.53814 0.0
H2294 H 0.08821 0.5639 0.52882 0.0
H2295 H 0.12001 0.57538 0.52954 0.0
C2296 C 0.68238 0.98636 0.77101 0.0
C2297 C 0.68731 0.99393 0.75596 0.0
C2298 C 0.69085 0.97322 0.77593 0.0
C2299 C 0.70903 0.93666 0.75598 0.0
H2300 H 0.73577 0.93958 0.80202 0.0
C2301 C 0.75362 0.88736 0.76612 0.0
C2302 C 0.75518 0.88224 0.78299 0.0
C2303 C 0.74404 0.90052 0.76377 0.0
C2304 C 0.72801 0.93843 0.78926 0.0
H2305 H 0.70516 0.99444 0.73456 0.0
H2306 H 0.71971 0.97089 0.74294 0.0
H2307 H 0.72222 0.96473 0.79655 0.0
H2308 H 0.74787 0.88624 0.81055 0.0
H2309 H 0.73054 0.90921 0.80638 0.0
H2310 H 0.71428 0.91032 0.74869 0.0
C2311 C 0.70944 0.97533 0.75094 0.0
C2312 C 0.72047 0.95283 0.78613 0.0
C2313 C 0.70122 0.98874 0.74625 0.0
C2314 C 0.7469 0.89025 0.79749 0.0
C2315 C 0.73706 0.90332 0.79509 0.0
C2316 C 0.71625 0.92215 0.75921 0.0
C2317 C 0.70405 0.96736 0.76561 0.0
C2318 C 0.71133 0.95209 0.76934 0.0
C2319 C 0.73566 0.90862 0.77822 0.0
C2320 C 0.72619 0.92308 0.77571 0.0
H2321 H 0.67173 0.99032 0.77873 0.0
H2322 H 0.68661 0.96709 0.78727 0.0
H2323 H 0.70166 0.93587 0.74306 0.0
H2324 H 0.7601 0.88138 0.75482 0.0
H2325 H 0.74357 0.90462 0.75074 0.0
C2326 C 0.74275 0.91231 0.53188 0.0
C2327 C 0.74238 0.89427 0.52447 0.0
C2328 C 0.72801 0.92009 0.52897 0.0
C2329 C 0.68953 0.91726 0.49741 0.0
H2330 H 0.673 0.94651 0.53781 0.0
C2331 C 0.62976 0.953 0.48924 0.0
C2332 C 0.63128 0.97016 0.4998 0.0
C2333 C 0.64236 0.94244 0.49202 0.0
C2334 C 0.67757 0.93858 0.52633 0.0
H2335 H 0.72629 0.87019 0.50818 0.0
H2336 H 0.70046 0.88399 0.50287 0.0
H2337 H 0.69667 0.93032 0.54324 0.0
H2338 H 0.64748 0.99002 0.521 0.0
H2339 H 0.66962 0.97189 0.52559 0.0
H2340 H 0.67086 0.92601 0.48039 0.0
C2341 C 0.7122 0.892 0.511 0.0
C2342 C 0.69106 0.92923 0.52948 0.0
C2343 C 0.7269 0.8841 0.51415 0.0
C2344 C 0.64578 0.97669 0.51292 0.0
C2345 C 0.65843 0.96625 0.51558 0.0
C2346 C 0.67613 0.9268 0.4942 0.0
C2347 C 0.71265 0.91006 0.5184 0.0
C2348 C 0.69734 0.91869 0.51505 0.0
C2349 C 0.6568 0.94892 0.50532 0.0
C2350 C 0.67019 0.9378 0.50862 0.0
H2351 H 0.75451 0.92047 0.53985 0.0
H2352 H 0.72877 0.9341 0.53468 0.0
H2353 H 0.69425 0.9093 0.48603 0.0
H2354 H 0.61864 0.94761 0.47909 0.0
H2355 H 0.6406 0.9291 0.48399 0.0
C2356 C 0.36382 0.48056 0.75571 0.0
C2357 C 0.38121 0.48347 0.74981 0.0
C2358 C 0.35433 0.46291 0.75635 0.0
C2359 C 0.35589 0.41282 0.74024 0.0
H2360 H 0.32078 0.40447 0.7744 0.0
C2361 C 0.32637 0.33916 0.75053 0.0
C2362 C 0.30878 0.33485 0.75557 0.0
C2363 C 0.3346 0.35707 0.74982 0.0
C2364 C 0.33041 0.40635 0.76456 0.0
H2365 H 0.40168 0.46896 0.74001 0.0
H2366 H 0.38587 0.43945 0.7414 0.0
H2367 H 0.33517 0.43507 0.77305 0.0
H2368 H 0.28642 0.34703 0.7639 0.0
H2369 H 0.30048 0.37773 0.76265 0.0
H2370 H 0.35124 0.3842 0.73178 0.0
C2371 C 0.37906 0.45046 0.74522 0.0
C2372 C 0.3388 0.42422 0.76377 0.0
C2373 C 0.3884 0.46785 0.74456 0.0
C2374 C 0.29992 0.34942 0.75995 0.0
C2375 C 0.30816 0.36732 0.75934 0.0
C2376 C 0.3476 0.39502 0.7411 0.0
C2377 C 0.36172 0.44732 0.75107 0.0
C2378 C 0.35192 0.42801 0.75166 0.0
C2379 C 0.32574 0.37171 0.75421 0.0
C2380 C 0.33466 0.39119 0.75332 0.0
H2381 H 0.35757 0.4919 0.76002 0.0
H2382 H 0.34105 0.46156 0.76088 0.0
H2383 H 0.36537 0.41454 0.73025 0.0
H2384 H 0.3339 0.32863 0.74708 0.0
H2385 H 0.34815 0.3594 0.74604 0.0
C2386 C 0.19838 0.58826 0.24034 0.0
C2387 C 0.18019 0.58827 0.23647 0.0
C2388 C 0.21092 0.60408 0.2428 0.0
C2389 C 0.21815 0.64893 0.23194 0.0
H2390 H 0.25735 0.65831 0.26941 0.0
C2391 C 0.27268 0.7104 0.23737 0.0
C2392 C 0.27505 0.721 0.25471 0.0
C2393 C 0.26429 0.69246 0.23494 0.0
C2394 C 0.24651 0.65581 0.25886 0.0
H2395 H 0.16083 0.6049 0.2324 0.0
H2396 H 0.18287 0.63273 0.23686 0.0
H2397 H 0.23432 0.63148 0.26666 0.0
H2398 H 0.27272 0.72113 0.28327 0.0
H2399 H 0.25813 0.68995 0.27908 0.0
H2400 H 0.22989 0.6736 0.22462 0.0
C2401 C 0.18738 0.62036 0.2377 0.0
C2402 C 0.23338 0.64046 0.25723 0.0
C2403 C 0.17478 0.60446 0.23516 0.0
C2404 C 0.27087 0.71311 0.26975 0.0
C2405 C 0.26256 0.69525 0.26734 0.0
C2406 C 0.23124 0.6643 0.23361 0.0
C2407 C 0.20557 0.62027 0.24153 0.0
C2408 C 0.2191 0.63687 0.24374 0.0
C2409 C 0.2583 0.68506 0.24983 0.0
C2410 C 0.24555 0.66788 0.24706 0.0
H2411 H 0.203 0.576 0.24143 0.0
H2412 H 0.22487 0.60356 0.24543 0.0
H2413 H 0.20739 0.64641 0.22131 0.0
H2414 H 0.27578 0.71629 0.22561 0.0
H2415 H 0.26144 0.68473 0.22132 0.0
C2416 C 0.48995 0.74405 0.44214 0.0
C2417 C 0.49255 0.74122 0.42365 0.0
C2418 C 0.49009 0.73028 0.45185 0.0
C2419 C 0.49308 0.68198 0.447 0.0
H2420 H 0.52388 0.69916 0.49158 0.0
C2421 C 0.53849 0.64057 0.47585 0.0
C2422 C 0.53782 0.63954 0.49424 0.0
C2423 C 0.52982 0.6524 0.46852 0.0
C2424 C 0.51505 0.6942 0.47931 0.0
H2425 H 0.49591 0.72153 0.40045 0.0
H2426 H 0.49691 0.69779 0.4174 0.0
H2427 H 0.51232 0.72048 0.47624 0.0
H2428 H 0.52785 0.65027 0.51946 0.0
H2429 H 0.51321 0.67152 0.50663 0.0
H2430 H 0.49698 0.65576 0.4496 0.0
C2431 C 0.49433 0.7104 0.42446 0.0
C2432 C 0.50828 0.70636 0.47056 0.0
C2433 C 0.49387 0.72407 0.41472 0.0
C2434 C 0.52882 0.65098 0.5053 0.0
C2435 C 0.52031 0.66298 0.49797 0.0
C2436 C 0.5001 0.66986 0.45561 0.0
C2437 C 0.49317 0.71358 0.44328 0.0
C2438 C 0.49759 0.70042 0.45406 0.0
C2439 C 0.52053 0.66353 0.47949 0.0
C2440 C 0.51145 0.67597 0.47158 0.0
H2441 H 0.48868 0.75714 0.44928 0.0
H2442 H 0.48868 0.73299 0.46624 0.0
H2443 H 0.4846 0.67694 0.43452 0.0
H2444 H 0.54558 0.63213 0.46709 0.0
H2445 H 0.53045 0.65293 0.45428 0.0
C2446 C 0.62841 0.27097 0.63966 0.0
C2447 C 0.61563 0.27847 0.64951 0.0
C2448 C 0.64511 0.27108 0.64812 0.0
C2449 C 0.67597 0.29286 0.68769 0.0
H2450 H 0.68816 0.24613 0.68708 0.0
C2451 C 0.71869 0.27935 0.7454 0.0
C2452 C 0.73265 0.27037 0.74105 0.0
C2453 C 0.70598 0.28028 0.73189 0.0
C2454 C 0.6851 0.25929 0.68709 0.0
H2455 H 0.61035 0.29256 0.67555 0.0
H2456 H 0.63959 0.29291 0.69029 0.0
H2457 H 0.66353 0.24921 0.66647 0.0
H2458 H 0.74356 0.25374 0.72002 0.0
H2459 H 0.72135 0.25564 0.69602 0.0
H2460 H 0.69707 0.30287 0.70869 0.0
C2461 C 0.63671 0.28698 0.67607 0.0
C2462 C 0.67111 0.26105 0.67531 0.0
C2463 C 0.61998 0.28667 0.6677 0.0
C2464 C 0.73319 0.26133 0.72334 0.0
C2465 C 0.72044 0.26223 0.70977 0.0
C2466 C 0.68994 0.29111 0.69939 0.0
C2467 C 0.64927 0.27896 0.66642 0.0
C2468 C 0.66608 0.27774 0.67603 0.0
C2469 C 0.70704 0.27212 0.71391 0.0
C2470 C 0.69415 0.27421 0.69965 0.0
H2471 H 0.62533 0.26452 0.6256 0.0
H2472 H 0.65466 0.26483 0.64048 0.0
H2473 H 0.67242 0.30589 0.68824 0.0
H2474 H 0.71799 0.28622 0.75909 0.0
H2475 H 0.69543 0.28757 0.73545 0.0
C2476 C 0.01949 0.3423 0.93288 0.0
C2477 C 0.0181 0.342 0.9142 0.0
C2478 C 0.02155 0.35845 0.94498 0.0
C2479 C 0.03387 0.40719 0.94876 0.0
H2480 H 0.00378 0.40804 0.98867 0.0
C2481 C 0.00608 0.46337 -0.00163 0.0
C2482 C 0.02199 0.47443 0.00682 0.0
C2483 C 0.00642 0.44653 0.98838 0.0
C2484 C 0.01227 0.40788 0.97761 0.0
H2485 H 0.0179 0.35813 0.89334 0.0
H2486 H 0.02097 0.38641 0.91454 0.0
H2487 H 0.00339 0.37985 0.96806 0.0
H2488 H 0.05059 0.47645 0.01206 0.0
H2489 H 0.05108 0.44697 0.99442 0.0
H2490 H 0.04246 0.43538 0.95826 0.0
C2491 C 0.0209 0.37423 0.91983 0.0
C2492 C 0.01217 0.39182 0.96593 0.0
C2493 C 0.01906 0.35808 0.90773 0.0
C2494 C 0.03812 0.46819 0.00565 0.0
C2495 C 0.03846 0.45142 0.99555 0.0
C2496 C 0.03408 0.42323 0.96056 0.0
C2497 C 0.02201 0.3745 0.93854 0.0
C2498 C 0.02286 0.39138 0.95133 0.0
C2499 C 0.02265 0.44066 0.98667 0.0
C2500 C 0.02317 0.42364 0.97492 0.0
H2501 H 0.01902 0.33005 0.93816 0.0
H2502 H 0.02269 0.35838 0.95936 0.0
H2503 H 0.04231 0.40715 0.93766 0.0
H2504 H 0.9935 0.46796 -0.00111 0.0
H2505 H 0.99413 0.43837 0.98143 0.0
C2506 C -0.00216 0.73245 0.15058 0.0
C2507 C 0.00565 0.74901 0.1466 0.0
C2508 C 0.97991 0.72907 0.15372 0.0
C2509 C 0.9384 0.74827 0.15405 0.0
H2510 H 0.93338 0.72836 0.19777 0.0
C2511 C 0.87779 0.74883 0.19774 0.0
C2512 C 0.88325 0.75549 0.21616 0.0
C2513 C 0.89034 0.74503 0.18563 0.0
C2514 C 0.93453 0.73378 0.18544 0.0
H2515 H 0.001 0.77473 0.1419 0.0
H2516 H 0.96992 0.7694 0.1487 0.0
H2517 H 0.95972 0.72649 0.1818 0.0
H2518 H 0.90596 0.76435 0.23625 0.0
H2519 H 0.92782 0.75765 0.21517 0.0
H2520 H 0.91363 0.75682 0.15888 0.0
C2521 C 0.97735 0.75872 0.14873 0.0
C2522 C 0.94952 0.73252 0.17612 0.0
C2523 C 0.99519 0.76191 0.1451 0.0
C2524 C 0.9014 0.75882 0.2222 0.0
C2525 C 0.91386 0.75498 0.21017 0.0
C2526 C 0.92339 0.74966 0.16354 0.0
C2527 C 0.96964 0.74241 0.15349 0.0
C2528 C 0.95198 0.74038 0.16074 0.0
C2529 C 0.9084 0.74775 0.1919 0.0
C2530 C 0.92184 0.7431 0.17972 0.0
H2531 H 0.00561 0.72212 0.15131 0.0
H2532 H 0.97425 0.71621 0.15691 0.0
H2533 H 0.93979 0.75413 0.14202 0.0
H2534 H 0.86381 0.74611 0.19283 0.0
H2535 H 0.88593 0.73953 0.17154 0.0
C2536 C 0.49311 0.3213 0.10438 0.0
C2537 C 0.49072 0.30374 0.09451 0.0
C2538 C 0.49899 0.33582 0.09611 0.0
C2539 C 0.5041 0.34949 0.05213 0.0
H2540 H 0.54414 0.38458 0.07798 0.0
C2541 C 0.54179 0.40316 0.01766 0.0
C2542 C 0.54499 0.42068 0.02767 0.0
C2543 C 0.53663 0.38865 0.02615 0.0
C2544 C 0.53288 0.37497 0.07068 0.0
H2545 H 0.49154 0.2876 0.06808 0.0
H2546 H 0.50167 0.313 0.05361 0.0
H2547 H 0.53021 0.36009 0.09215 0.0
H2548 H 0.54672 0.43673 0.0546 0.0
H2549 H 0.53718 0.41141 0.06933 0.0
H2550 H 0.50658 0.36438 0.03075 0.0
C2551 C 0.49904 0.31552 0.06771 0.0
C2552 C 0.52488 0.36101 0.07879 0.0
C2553 C 0.49324 0.301 0.07599 0.0
C2554 C 0.54402 0.42336 0.0465 0.0
C2555 C 0.53873 0.40886 0.05496 0.0
C2556 C 0.51204 0.36346 0.04405 0.0
C2557 C 0.50244 0.33301 0.07784 0.0
C2558 C 0.51044 0.34815 0.06955 0.0
C2559 C 0.53446 0.39141 0.04476 0.0
C2560 C 0.52654 0.37631 0.05322 0.0
H2561 H 0.49127 0.32381 0.11869 0.0
H2562 H 0.50125 0.34922 0.10411 0.0
H2563 H 0.49287 0.33984 0.04482 0.0
H2564 H 0.54237 0.40068 0.00313 0.0
H2565 H 0.53379 0.3753 0.01803 0.0
C2566 C 0.0161 0.28187 0.35978 0.0
C2567 C 0.02819 0.29815 0.36151 0.0
C2568 C -0.00109 0.28006 0.35144 0.0
C2569 C 0.97988 0.29856 0.31598 0.0
H2570 H 0.93335 0.27547 0.32669 0.0
C2571 C 0.91502 0.30784 0.28185 0.0
C2572 C 0.90131 0.29281 0.2763 0.0
C2573 C 0.93047 0.3064 0.29162 0.0
C2574 C 0.94636 0.28168 0.32348 0.0
H2575 H 0.03157 0.32583 0.35832 0.0
H2576 H 0.00148 0.32287 0.34431 0.0
H2577 H 0.95958 0.27774 0.34796 0.0
H2578 H 0.89349 0.26425 0.2757 0.0
H2579 H 0.92054 0.2619 0.29325 0.0
H2580 H 0.96686 0.30279 0.29177 0.0
C2581 C 0.00532 0.31137 0.34876 0.0
C2582 C 0.96125 0.28305 0.33563 0.0
C2583 C 0.02245 0.31308 0.35678 0.0
C2584 C 0.90373 0.27613 0.28004 0.0
C2585 C 0.91913 0.27475 0.29007 0.0
C2586 C 0.96512 0.29721 0.30394 0.0
C2587 C 0.99383 0.2946 0.34502 0.0
C2588 C 0.97801 0.29195 0.33214 0.0
C2589 C 0.93245 0.28996 0.29614 0.0
C2590 C 0.94821 0.28912 0.30777 0.0
H2591 H 0.02038 0.27023 0.36343 0.0
H2592 H 0.99019 0.26703 0.34873 0.0
H2593 H 0.9928 0.30499 0.31274 0.0
H2594 H 0.91347 0.32095 0.27955 0.0
H2595 H 0.94054 0.31836 0.29635 0.0
C2596 C 0.98776 0.6856 0.60702 0.0
C2597 C 0.98981 0.70179 0.6007 0.0
C2598 C 0.99029 0.67018 0.59582 0.0
C2599 C 0.99534 0.64874 0.54964 0.0
H2600 H 0.02648 0.62489 0.57519 0.0
C2601 C 0.02426 0.58718 0.51698 0.0
C2602 C 0.02158 0.57313 0.52674 0.0
C2603 C 0.02066 0.60388 0.52436 0.0
C2604 C 0.01779 0.63143 0.56791 0.0
H2605 H 0.99467 0.7145 0.57746 0.0
H2606 H -0.00045 0.68733 0.55781 0.0
H2607 H 0.01811 0.65202 0.59077 0.0
H2608 H 0.01287 0.56539 0.55172 0.0
H2609 H 0.00667 0.59444 0.56451 0.0
H2610 H 0.99502 0.62781 0.52677 0.0
C2611 C 0.99584 0.68662 0.57138 0.0
C2612 C 0.01293 0.64686 0.57681 0.0
C2613 C 0.99307 0.7021 0.58258 0.0
C2614 C 0.01517 0.57597 0.54389 0.0
C2615 C 0.01168 0.5926 0.55126 0.0
C2616 C 0.00028 0.63321 0.54066 0.0
C2617 C 0.99518 0.67077 0.57822 0.0
C2618 C 0.00124 0.65533 0.56794 0.0
C2619 C 0.01451 0.60668 0.54162 0.0
C2620 C 0.01113 0.62424 0.54995 0.0
H2621 H 0.9849 0.68501 0.62086 0.0
H2622 H 0.98922 0.65793 0.6012 0.0
H2623 H 0.98642 0.65518 0.54254 0.0
H2624 H 0.02914 0.5853 0.50368 0.0
H2625 H 0.02295 0.61464 0.51676 0.0
C2626 C 0.61587 0.78649 0.84135 0.0
C2627 C 0.6218 0.78849 0.85971 0.0
C2628 C 0.62787 0.78625 0.82822 0.0
C2629 C 0.67503 0.79938 0.82158 0.0
H2630 H 0.66195 0.76525 0.77649 0.0
C2631 C 0.72309 0.79854 0.76756 0.0
C2632 C 0.72687 0.78153 0.76155 0.0
C2633 C 0.70753 0.80023 0.77585 0.0
C2634 C 0.66576 0.77487 0.78898 0.0
H2635 H 0.64494 0.7918 0.87879 0.0
H2636 H 0.66617 0.79099 0.85555 0.0
H2637 H 0.64147 0.76576 0.80013 0.0
H2638 H 0.71693 0.75296 0.75768 0.0
H2639 H 0.68992 0.75583 0.7727 0.0
H2640 H 0.69967 0.80789 0.8109 0.0
C2641 C 0.65214 0.78987 0.85147 0.0
C2642 C 0.65402 0.77524 0.80247 0.0
C2643 C 0.64005 0.79021 0.86472 0.0
C2644 C 0.71414 0.76621 0.76216 0.0
C2645 C 0.6987 0.76789 0.77077 0.0
C2646 C 0.68682 0.79893 0.80816 0.0
C2647 C 0.64609 0.78785 0.8331 0.0
C2648 C 0.65861 0.78743 0.81892 0.0
C2649 C 0.69579 0.78492 0.77858 0.0
C2650 C 0.68234 0.7866 0.79177 0.0
H2651 H 0.60188 0.78525 0.83702 0.0
H2652 H 0.62286 0.78503 0.81424 0.0
H2653 H 0.6788 0.80907 0.83404 0.0
H2654 H 0.73275 0.81051 0.767 0.0
H2655 H 0.70534 0.81352 0.78128 0.0
C2656 C 0.42728 0.54085 0.68323 0.0
C2657 C 0.43669 0.54617 0.70062 0.0
C2658 C 0.43617 0.53923 0.66701 0.0
C2659 C 0.48225 0.55065 0.64827 0.0
H2660 H 0.45838 0.51912 0.60487 0.0
C2661 C 0.51517 0.5476 0.57783 0.0
C2662 C 0.51036 0.53234 0.56384 0.0
C2663 C 0.50659 0.54925 0.59427 0.0
C2664 C 0.46559 0.52795 0.61673 0.0
H2665 H 0.46356 0.55388 0.71367 0.0
H2666 H 0.47889 0.55102 0.68593 0.0
H2667 H 0.44358 0.52162 0.63266 0.0
H2668 H 0.4922 0.50674 0.55723 0.0
H2669 H 0.47778 0.50932 0.5854 0.0
H2670 H 0.50442 0.55667 0.63243 0.0
C2671 C 0.46446 0.54824 0.6846 0.0
C2672 C 0.45678 0.52962 0.633 0.0
C2673 C 0.45554 0.54981 0.70083 0.0
C2674 C 0.49656 0.51879 0.56732 0.0
C2675 C 0.48802 0.5204 0.58375 0.0
C2676 C 0.49106 0.54899 0.63198 0.0
C2677 C 0.45508 0.54286 0.66711 0.0
C2678 C 0.46478 0.54103 0.64934 0.0
C2679 C 0.49265 0.53573 0.59778 0.0
C2680 C 0.48305 0.53757 0.61563 0.0
H2681 H 0.41283 0.53789 0.68208 0.0
H2682 H 0.42798 0.53533 0.65428 0.0
H2683 H 0.48925 0.5598 0.66004 0.0
H2684 H 0.52551 0.55855 0.57601 0.0
H2685 H 0.51079 0.56149 0.6041 0.0
C2686 C 0.78648 0.1374 0.95587 0.0
C2687 C 0.79076 0.14716 0.97361 0.0
C2688 C 0.78202 0.14591 0.94181 0.0
C2689 C 0.76584 0.18628 0.9337 0.0
H2690 H 0.78599 0.17735 0.88762 0.0
C2691 C 0.77171 0.23558 0.88489 0.0
C2692 C 0.76932 0.22898 0.86616 0.0
C2693 C 0.77121 0.22389 0.89707 0.0
C2694 C 0.77997 0.17973 0.90028 0.0
H2695 H 0.79411 0.17352 0.99046 0.0
H2696 H 0.78662 0.18837 0.96592 0.0
H2697 H 0.79185 0.16011 0.91076 0.0
H2698 H 0.76361 0.20484 0.84555 0.0
H2699 H 0.76304 0.18436 0.86694 0.0
H2700 H 0.75434 0.20622 0.92341 0.0
C2701 C 0.78638 0.1741 0.96292 0.0
C2702 C 0.78337 0.1699 0.91354 0.0
C2703 C 0.79085 0.16563 0.97694 0.0
C2704 C 0.76585 0.21036 0.85989 0.0
C2705 C 0.76546 0.19864 0.87211 0.0
C2706 C 0.76245 0.19611 0.92046 0.0
C2707 C 0.78172 0.1643 0.94525 0.0
C2708 C 0.7767 0.1734 0.93054 0.0
C2709 C 0.7684 0.20532 0.8908 0.0
C2710 C 0.76985 0.19323 0.9038 0.0
H2711 H 0.78622 0.12313 0.95291 0.0
H2712 H 0.77842 0.13801 0.92833 0.0
H2713 H 0.76016 0.18897 0.94653 0.0
H2714 H 0.77469 0.24984 0.89019 0.0
H2715 H 0.7738 0.22946 0.91139 0.0
C2716 C 0.10895 0.51645 0.18794 0.0
C2717 C 0.12744 0.51722 0.18836 0.0
C2718 C 0.09995 0.52116 0.17356 0.0
C2719 C 0.10796 0.54766 0.1379 0.0
H2720 H 0.06163 0.52037 0.11706 0.0
C2721 C 0.07606 0.54333 0.06642 0.0
C2722 C 0.05741 0.54135 0.06421 0.0
C2723 C 0.08468 0.54566 0.08366 0.0
C2724 C 0.07438 0.52836 0.12304 0.0
H2725 H 0.1509 0.52237 0.17366 0.0
H2726 H 0.13498 0.53012 0.14817 0.0
H2727 H 0.07658 0.51147 0.14227 0.0
H2728 H 0.03346 0.54267 0.07832 0.0
H2729 H 0.04857 0.54636 0.1083 0.0
H2730 H 0.10599 0.56397 0.11786 0.0
C2731 C 0.12759 0.52637 0.15923 0.0
C2732 C 0.08296 0.52322 0.13738 0.0
C2733 C 0.13662 0.52166 0.17365 0.0
C2734 C 0.04779 0.5436 0.07955 0.0
C2735 C 0.0564 0.54588 0.09672 0.0
C2736 C 0.09942 0.55271 0.12338 0.0
C2737 C 0.10928 0.52659 0.15933 0.0
C2738 C 0.09993 0.53263 0.14473 0.0
C2739 C 0.07473 0.54603 0.09877 0.0
C2740 C 0.08269 0.54292 0.11575 0.0
H2741 H 0.10158 0.51304 0.19914 0.0
H2742 H 0.08582 0.52124 0.17395 0.0
H2743 H 0.12091 0.55534 0.14364 0.0
H2744 H 0.08386 0.54196 0.05486 0.0
H2745 H 0.09887 0.5457 0.08502 0.0
C2746 C 0.77127 0.83324 0.45864 0.0
C2747 C 0.78705 0.84488 0.46651 0.0
C2748 C 0.77009 0.82455 0.44056 0.0
C2749 C 0.78989 0.83247 0.39875 0.0
H2750 H 0.76467 0.78439 0.37807 0.0
C2751 C 0.79468 0.80106 0.32545 0.0
C2752 C 0.77878 0.79264 0.31478 0.0
C2753 C 0.79474 0.80617 0.34409 0.0
C2754 C 0.77157 0.7979 0.3837 0.0
H2755 H 0.81411 0.85625 0.46229 0.0
H2756 H 0.81232 0.84081 0.4309 0.0
H2757 H 0.76746 0.79468 0.411 0.0
H2758 H 0.7505 0.78263 0.3154 0.0
H2759 H 0.75067 0.79154 0.34838 0.0
H2760 H 0.79412 0.83574 0.37164 0.0
C2761 C 0.80077 0.83843 0.43849 0.0
C2762 C 0.77322 0.80377 0.40251 0.0
C2763 C 0.80192 0.84707 0.45649 0.0
C2764 C 0.76293 0.78917 0.32327 0.0
C2765 C 0.76304 0.79416 0.3421 0.0
C2766 C 0.7883 0.82662 0.38009 0.0
C2767 C 0.78464 0.82761 0.43011 0.0
C2768 C 0.78262 0.82106 0.41023 0.0
C2769 C 0.77895 0.80291 0.35261 0.0
C2770 C 0.77933 0.80923 0.37237 0.0
H2771 H 0.75955 0.83172 0.46611 0.0
H2772 H 0.75747 0.81639 0.43449 0.0
H2773 H 0.79672 0.84605 0.40418 0.0
H2774 H 0.80716 0.80394 0.31941 0.0
H2775 H 0.80723 0.81269 0.35188 0.0
C2776 C 0.45512 0.53041 0.81557 0.0
C2777 C 0.44472 0.54318 0.81223 0.0
C2778 C 0.4626 0.52989 0.83302 0.0
C2779 C 0.46248 0.54762 0.88394 0.0
H2780 H 0.50501 0.52714 0.88622 0.0
C2781 C 0.50125 0.54629 0.9546 0.0
C2782 C 0.51143 0.53291 0.9561 0.0
C2783 C 0.49316 0.54809 0.93768 0.0
C2784 C 0.49299 0.53269 0.88616 0.0
H2785 H 0.43421 0.56549 0.82616 0.0
H2786 H 0.44748 0.56485 0.85666 0.0
H2787 H 0.49145 0.52965 0.85724 0.0
H2788 H 0.52057 0.51083 0.93993 0.0
H2789 H 0.50654 0.51369 0.91095 0.0
H2790 H 0.46428 0.55081 0.91306 0.0
C2791 C 0.44972 0.55494 0.84543 0.0
C2792 C 0.48499 0.53415 0.86913 0.0
C2793 C 0.44202 0.55539 0.82772 0.0
C2794 C 0.51307 0.52143 0.93972 0.0
C2795 C 0.50496 0.5232 0.92281 0.0
C2796 C 0.47054 0.54618 0.90106 0.0
C2797 C 0.46043 0.54223 0.84854 0.0
C2798 C 0.46936 0.54148 0.86739 0.0
C2799 C 0.49474 0.5366 0.92122 0.0
C2800 C 0.48599 0.53852 0.9027 0.0
H2801 H 0.45756 0.52042 0.8045 0.0
H2802 H 0.47001 0.51941 0.83419 0.0
H2803 H 0.45052 0.55326 0.88375 0.0
H2804 H 0.49952 0.55556 0.96662 0.0
H2805 H 0.48581 0.55881 0.93759 0.0
C2806 C 0.79512 0.16921 0.07635 0.0
C2807 C 0.79816 0.15236 0.07899 0.0
C2808 C 0.79284 0.18219 0.09107 0.0
C2809 C 0.80312 0.19654 0.14009 0.0
H2810 H 0.76232 0.21989 0.13846 0.0
C2811 C 0.79644 0.25588 0.19493 0.0
C2812 C 0.78039 0.25439 0.20337 0.0
C2813 C 0.79793 0.24436 0.17887 0.0
C2814 C 0.77374 0.21345 0.13909 0.0
H2815 H 0.80166 0.13619 0.09925 0.0
H2816 H 0.79824 0.15905 0.12495 0.0
H2817 H 0.76698 0.19797 0.11223 0.0
H2818 H 0.75296 0.24013 0.20079 0.0
H2819 H 0.75551 0.22013 0.1723 0.0
H2820 H 0.81002 0.21204 0.1668 0.0
C2821 C 0.79744 0.16212 0.11147 0.0
C2822 C 0.77649 0.20103 0.12406 0.0
C2823 C 0.79939 0.14902 0.09674 0.0
C2824 C 0.7655 0.2417 0.19467 0.0
C2825 C 0.76696 0.23023 0.17838 0.0
C2826 C 0.80056 0.20914 0.15495 0.0
C2827 C 0.79388 0.17875 0.10879 0.0
C2828 C 0.79117 0.19236 0.12445 0.0
C2829 C 0.78337 0.23112 0.17062 0.0
C2830 C 0.78582 0.21772 0.15466 0.0
H2831 H 0.79396 0.17219 0.06286 0.0
H2832 H 0.79027 0.19495 0.08861 0.0
H2833 H 0.81459 0.19015 0.14078 0.0
H2834 H 0.80819 0.26553 0.20107 0.0
H2835 H 0.81065 0.24558 0.17307 0.0
C2836 C 0.14043 0.56912 0.29841 0.0
C2837 C 0.12912 0.5534 0.28935 0.0
C2838 C 0.14061 0.57418 0.31707 0.0
C2839 C 0.1288 0.55649 0.35774 0.0
H2840 H 0.11775 0.60316 0.37543 0.0
C2841 C 0.09832 0.56632 0.42304 0.0
C2842 C 0.08115 0.56965 0.41935 0.0
C2843 C 0.11172 0.57081 0.41193 0.0
C2844 C 0.12124 0.59026 0.3708 0.0
H2845 H 0.10954 0.53028 0.29201 0.0
H2846 H 0.10964 0.53916 0.32486 0.0
H2847 H 0.12635 0.59617 0.34466 0.0
H2848 H 0.06502 0.58216 0.4028 0.0
H2849 H 0.08823 0.58974 0.38321 0.0
H2850 H 0.12225 0.54991 0.38314 0.0
C2851 C 0.11843 0.54754 0.31763 0.0
C2852 C 0.12618 0.58627 0.35325 0.0
C2853 C 0.11814 0.54258 0.29894 0.0
C2854 C 0.07816 0.57945 0.40587 0.0
C2855 C 0.09153 0.58388 0.39472 0.0
C2856 C 0.1239 0.56046 0.37525 0.0
C2857 C 0.12967 0.56337 0.3268 0.0
C2858 C 0.12899 0.56902 0.34633 0.0
C2859 C 0.10804 0.57855 0.39697 0.0
C2860 C 0.11907 0.57702 0.38155 0.0
H2861 H 0.14915 0.57741 0.29103 0.0
H2862 H 0.14934 0.58642 0.32391 0.0
H2863 H 0.13124 0.5432 0.35271 0.0
H2864 H 0.10097 0.55908 0.43367 0.0
H2865 H 0.12444 0.56682 0.41409 0.0
C2866 C 0.79147 0.86125 0.59413 0.0
C2867 C 0.79115 0.84991 0.57732 0.0
C2868 C 0.78956 0.85422 0.60994 0.0
C2869 C 0.79467 0.81515 0.62995 0.0
H2870 H 0.76339 0.83322 0.66445 0.0
C2871 C 0.77975 0.78404 0.69295 0.0
C2872 C 0.77885 0.79568 0.7093 0.0
C2873 C 0.78049 0.79031 0.67666 0.0
C2874 C 0.77235 0.82818 0.65509 0.0
H2875 H 0.78882 0.82229 0.56397 0.0
H2876 H 0.78572 0.80999 0.59173 0.0
H2877 H 0.76642 0.8447 0.63637 0.0
H2878 H 0.77777 0.82304 0.72127 0.0
H2879 H 0.77938 0.83409 0.69284 0.0
H2880 H 0.8009 0.79888 0.64873 0.0
C2881 C 0.78743 0.82435 0.59261 0.0
C2882 C 0.77405 0.83473 0.63896 0.0
C2883 C 0.78916 0.83138 0.57672 0.0
C2884 C 0.77844 0.81371 0.70892 0.0
C2885 C 0.77926 0.82002 0.69259 0.0
C2886 C 0.79308 0.80869 0.64612 0.0
C2887 C 0.78745 0.8357 0.60937 0.0
C2888 C 0.78528 0.82834 0.62625 0.0
C2889 C 0.78045 0.80841 0.67627 0.0
C2890 C 0.78194 0.81515 0.65893 0.0
H2891 H 0.79294 0.87559 0.59507 0.0
H2892 H 0.78987 0.86333 0.62267 0.0
H2893 H 0.8036 0.81013 0.62052 0.0
H2894 H 0.77995 0.77002 0.69269 0.0
H2895 H 0.78103 0.7809 0.66434 0.0
C2896 C 0.71118 0.47347 0.50467 0.0
C2897 C 0.71121 0.45503 0.50264 0.0
C2898 C 0.69534 0.48008 0.50733 0.0
C2899 C 0.64891 0.46776 0.52116 0.0
H2900 H 0.64042 0.50729 0.49868 0.0
C2901 C 0.58002 0.49089 0.51932 0.0
C2902 C 0.58011 0.50932 0.52067 0.0
C2903 C 0.59599 0.48423 0.51814 0.0
C2904 C 0.6426 0.49639 0.5053 0.0
H2905 H 0.69434 0.42913 0.50192 0.0
H2906 H 0.66688 0.44054 0.5064 0.0
H2907 H 0.66795 0.49602 0.49457 0.0
H2908 H 0.59748 0.53516 0.52232 0.0
H2909 H 0.62503 0.52367 0.52048 0.0
H2910 H 0.62344 0.4681 0.53178 0.0
C2911 C 0.67911 0.45001 0.50615 0.0
C2912 C 0.65851 0.48989 0.50292 0.0
C2913 C 0.69492 0.44342 0.50343 0.0
C2914 C 0.59672 0.5209 0.52132 0.0
C2915 C 0.61262 0.51425 0.52005 0.0
C2916 C 0.63297 0.47426 0.52352 0.0
C2917 C 0.67901 0.46846 0.50813 0.0
C2918 C 0.66198 0.47548 0.51082 0.0
C2919 C 0.61253 0.49579 0.51813 0.0
C2920 C 0.62955 0.48871 0.51565 0.0
H2921 H 0.72343 0.48285 0.50419 0.0
H2922 H 0.69598 0.49439 0.50901 0.0
H2923 H 0.65109 0.45683 0.52772 0.0
H2924 H 0.56754 0.48149 0.51865 0.0
H2925 H 0.59526 0.46992 0.51658 0.0
C2926 C 0.21288 0.13077 0.47756 0.0
C2927 C 0.2156 0.14933 0.484 0.0
C2928 C 0.19646 0.11982 0.47863 0.0
C2929 C 0.15721 0.11783 0.50457 0.0
H2930 H 0.13446 0.08086 0.46428 0.0
C2931 C 0.08569 0.07888 0.50517 0.0
C2932 C 0.08228 0.06037 0.49831 0.0
C2933 C 0.10192 0.08957 0.50301 0.0
C2934 C 0.14075 0.09098 0.47573 0.0
H2935 H 0.20319 0.17099 0.49641 0.0
H2936 H 0.17453 0.15183 0.49839 0.0
H2937 H 0.16289 0.09984 0.46113 0.0
H2938 H 0.09323 0.03866 0.48354 0.0
H2939 H 0.12156 0.05733 0.47985 0.0
H2940 H 0.13525 0.10891 0.51927 0.0
C2941 C 0.18513 0.14577 0.49256 0.0
C2942 C 0.157 0.10186 0.4739 0.0
C2943 C 0.20149 0.15675 0.49129 0.0
C2944 C 0.09538 0.05287 0.48898 0.0
C2945 C 0.11161 0.06359 0.48679 0.0
C2946 C 0.14102 0.1069 0.50643 0.0
C2947 C 0.18249 0.12718 0.48635 0.0
C2948 C 0.16534 0.11548 0.48827 0.0
C2949 C 0.11512 0.08205 0.4939 0.0
C2950 C 0.13253 0.09342 0.49199 0.0
H2951 H 0.22352 0.12467 0.47186 0.0
H2952 H 0.19485 0.10553 0.47385 0.0
H2953 H 0.1635 0.12799 0.51599 0.0
H2954 H 0.07591 0.08513 0.51241 0.0
H2955 H 0.10407 0.10379 0.5084 0.0
C2956 C 0.20546 0.95598 0.75398 0.0
C2957 C 0.18715 0.95559 0.75668 0.0
C2958 C 0.21358 0.94051 0.75344 0.0
C2959 C 0.2059 0.89175 0.76334 0.0
H2960 H 0.24864 0.88875 0.7388 0.0
C2961 C 0.23802 0.8254 0.7576 0.0
C2962 C 0.25585 0.82531 0.75319 0.0
C2963 C 0.2298 0.84077 0.75786 0.0
C2964 C 0.23683 0.88905 0.74601 0.0
H2965 H 0.16351 0.93724 0.76093 0.0
H2966 H 0.17726 0.91088 0.76005 0.0
H2967 H 0.23496 0.91491 0.73965 0.0
H2968 H 0.27854 0.84275 0.74568 0.0
H2969 H 0.26474 0.86894 0.74623 0.0
H2970 H 0.20777 0.86599 0.76982 0.0
C2971 C 0.18568 0.92323 0.75844 0.0
C2972 C 0.22875 0.90453 0.7465 0.0
C2973 C 0.17756 0.93866 0.75885 0.0
C2974 C 0.26485 0.84167 0.74903 0.0
C2975 C 0.25666 0.85704 0.74931 0.0
C2976 C 0.21401 0.8763 0.76292 0.0
C2977 C 0.20402 0.92351 0.75568 0.0
C2978 C 0.21294 0.9065 0.75517 0.0
C2979 C 0.2388 0.85727 0.75378 0.0
C2980 C 0.22982 0.87429 0.75423 0.0
H2981 H 0.2137 0.9684 0.75223 0.0
H2982 H 0.22764 0.94212 0.75147 0.0
H2983 H 0.19406 0.89211 0.77051 0.0
H2984 H 0.23025 0.81346 0.76099 0.0
H2985 H 0.21612 0.83945 0.76119 0.0
C2986 C 0.33011 0.97795 0.98763 0.0
C2987 C 0.3209 0.96655 -0.00185 0.0
C2988 C 0.34875 0.98294 0.98988 0.0
C2989 C 0.38987 0.97056 0.00968 0.0
H2990 H 0.41196 0.01702 0.00053 0.0
C2991 C 0.46697 0.99918 0.02084 0.0
C2992 C 0.47435 0.00653 0.00643 0.0
C2993 C 0.44836 0.99425 0.02106 0.0
C2994 C 0.40601 0.00396 0.00307 0.0
H2995 H 0.32435 0.9516 0.01951 0.0
H2996 H 0.35682 0.96074 0.02387 0.0
H2997 H 0.3796 0.00892 -0.00088 0.0
H2998 H 0.46771 0.0146 0.98107 0.0
H2999 H 0.43556 0.00634 0.98167 0.0
H3000 H 0.41654 0.96591 0.01395 0.0
C3001 C 0.34965 0.96555 0.01354 0.0
C3002 C 0.38737 0.99922 0.00215 0.0
C3003 C 0.33094 0.96039 0.01114 0.0
C3004 C 0.46262 0.00892 0.99237 0.0
C3005 C 0.44411 0.00429 0.99275 0.0
C3006 C 0.40857 0.97543 0.01083 0.0
C3007 C 0.35889 0.97689 0.00291 0.0
C3008 C 0.37893 0.98231 0.00511 0.0
C3009 C 0.4367 0.99689 0.00707 0.0
C3010 C 0.41687 0.99208 0.00723 0.0
H3011 H 0.32293 0.98283 0.97735 0.0
H3012 H 0.3552 0.9913 0.98108 0.0
H3013 H 0.38402 0.95736 0.01186 0.0
H3014 H 0.47556 0.99713 0.0319 0.0
H3015 H 0.44309 0.98866 0.03234 0.0
C3016 C 0.88404 0.58614 0.78888 0.0
C3017 C 0.87446 0.5685 0.78661 0.0
C3018 C 0.87592 0.59944 0.78367 0.0
C3019 C 0.84173 0.60223 0.74973 0.0
H3020 H 0.84756 0.65182 0.7735 0.0
C3021 C 0.80053 0.65143 0.72865 0.0
C3022 C 0.80865 0.66954 0.73117 0.0
C3023 C 0.81009 0.639 0.73354 0.0
C3024 C 0.84613 0.63808 0.76656 0.0
H3025 H 0.84841 0.55133 0.7792 0.0
H3026 H 0.8342 0.57465 0.7703 0.0
H3027 H 0.85998 0.63078 0.78875 0.0
H3028 H 0.83347 0.68871 0.73887 0.0
H3029 H 0.85025 0.6669 0.74736 0.0
H3030 H 0.82788 0.60947 0.72756 0.0
C3031 C 0.84807 0.57805 0.77568 0.0
C3032 C 0.85308 0.62606 0.77536 0.0
C3033 C 0.85616 0.56478 0.78095 0.0
C3034 C 0.82685 0.67482 0.73716 0.0
C3035 C 0.83641 0.66241 0.74205 0.0
C3036 C 0.83484 0.61425 0.74091 0.0
C3037 C 0.85814 0.59521 0.77615 0.0
C3038 C 0.85071 0.60801 0.7671 0.0
C3039 C 0.82789 0.64456 0.74097 0.0
C3040 C 0.8368 0.63222 0.74934 0.0
H3041 H 0.89815 0.58938 0.79332 0.0
H3042 H 0.88391 0.61263 0.78424 0.0
H3043 H 0.84016 0.58843 0.74289 0.0
H3044 H 0.78649 0.64707 0.72415 0.0
H3045 H 0.80318 0.62532 0.73265 0.0
C3046 C 0.82416 0.65355 0.02055 0.0
C3047 C 0.81685 0.65438 0.00334 0.0
C3048 C 0.84053 0.64839 0.02266 0.0
C3049 C 0.88033 0.63828 -0.00017 0.0
H3050 H 0.87882 0.60498 0.03306 0.0
C3051 C 0.93004 0.58995 0.00517 0.0
C3052 C 0.93534 0.58805 0.02278 0.0
C3053 C 0.91734 0.60038 0.00237 0.0
C3054 C 0.87956 0.61442 0.02391 0.0
H3055 H 0.82106 0.65148 0.9749 0.0
H3056 H 0.84966 0.64161 0.97841 0.0
H3057 H 0.85357 0.6192 0.02885 0.0
H3058 H 0.93257 0.5966 0.0513 0.0
H3059 H 0.91034 0.6146 0.04642 0.0
H3060 H 0.90635 0.63283 0.99461 0.0
C3061 C 0.8429 0.64534 0.99035 0.0
C3062 C 0.8651 0.62265 0.02152 0.0
C3063 C 0.82657 0.65092 0.9883 0.0
C3064 C 0.9284 0.59745 0.03755 0.0
C3065 C 0.91574 0.6078 0.03477 0.0
C3066 C 0.89485 0.62987 0.00214 0.0
C3067 C 0.84972 0.64345 0.00751 0.0
C3068 C 0.86536 0.63484 0.00964 0.0
C3069 C 0.90975 0.609 0.01715 0.0
C3070 C 0.89462 0.61801 0.01435 0.0
H3071 H 0.81693 0.65642 0.03236 0.0
H3072 H 0.84568 0.64764 0.03613 0.0
H3073 H 0.88093 0.64761 0.99059 0.0
H3074 H 0.93515 0.58281 0.99353 0.0
H3075 H 0.91286 0.60103 0.98865 0.0
C3076 C 0.17596 0.08709 0.75394 0.0
C3077 C 0.18402 0.0739 0.76033 0.0
C3078 C 0.18531 0.10466 0.75404 0.0
C3079 C 0.22723 0.13927 0.77365 0.0
H3080 H 0.21196 0.16406 0.73689 0.0
C3081 C 0.26459 0.21287 0.7687 0.0
C3082 C 0.25545 0.22453 0.76093 0.0
C3083 C 0.25659 0.19473 0.76876 0.0
C3084 C 0.21642 0.15771 0.74756 0.0
H3085 H 0.20924 0.07007 0.77199 0.0
H3086 H 0.22563 0.10077 0.77221 0.0
H3087 H 0.19793 0.13327 0.73665 0.0
H3088 H 0.23006 0.22525 0.74718 0.0
H3089 H 0.21619 0.19428 0.74747 0.0
H3090 H 0.24577 0.16383 0.78454 0.0
C3091 C 0.21172 0.09732 0.76708 0.0
C3092 C 0.20821 0.13965 0.74741 0.0
C3093 C 0.20226 0.07944 0.76685 0.0
C3094 C 0.23782 0.21705 0.7533 0.0
C3095 C 0.22981 0.19892 0.75335 0.0
C3096 C 0.23546 0.15743 0.77383 0.0
C3097 C 0.20346 0.11043 0.76059 0.0
C3098 C 0.21321 0.12987 0.76052 0.0
C3099 C 0.23895 0.18713 0.76102 0.0
C3100 C 0.23023 0.16728 0.76083 0.0
H3101 H 0.16205 0.0839 0.74876 0.0
H3102 H 0.17794 0.11389 0.74919 0.0
H3103 H 0.23167 0.13274 0.78419 0.0
H3104 H 0.27816 0.21772 0.77471 0.0
H3105 H 0.26455 0.18659 0.77469 0.0
C3106 C 0.35933 0.96456 0.26942 0.0
C3107 C 0.37502 0.96481 0.2605 0.0
C3108 C 0.34738 0.94851 0.26872 0.0
C3109 C 0.34676 0.90094 0.2636 0.0
H3110 H 0.29527 0.8959 0.25684 0.0
C3111 C 0.29987 0.84102 0.28016 0.0
C3112 C 0.28798 0.83129 0.26549 0.0
C3113 C 0.30886 0.85821 0.27958 0.0
C3114 C 0.30963 0.89721 0.25872 0.0
H3115 H 0.39014 0.94857 0.24324 0.0
H3116 H 0.36923 0.92056 0.24207 0.0
H3117 H 0.31451 0.92425 0.25432 0.0
H3118 H 0.27515 0.83221 0.23934 0.0
H3119 H 0.29071 0.86257 0.23856 0.0
H3120 H 0.34194 0.87401 0.26812 0.0
C3121 C 0.36633 0.93277 0.24975 0.0
C3122 C 0.32058 0.91334 0.25735 0.0
C3123 C 0.37826 0.9488 0.25042 0.0
C3124 C 0.28429 0.83945 0.2508 0.0
C3125 C 0.29313 0.85677 0.25036 0.0
C3126 C 0.33583 0.88493 0.26516 0.0
C3127 C 0.35094 0.93247 0.25911 0.0
C3128 C 0.33923 0.91531 0.2598 0.0
C3129 C 0.3059 0.86598 0.26447 0.0
C3130 C 0.31722 0.883 0.26283 0.0
H3131 H 0.35644 0.97668 0.27728 0.0
H3132 H 0.33568 0.94856 0.27619 0.0
H3133 H 0.36109 0.9022 0.26573 0.0
H3134 H 0.30304 0.83501 0.2916 0.0
H3135 H 0.31858 0.86521 0.29067 0.0
C3136 C 0.55123 0.30521 0.57467 0.0
C3137 C 0.55868 0.31086 0.59263 0.0
C3138 C 0.54985 0.3177 0.5637 0.0
C3139 C 0.56809 0.36116 0.55532 0.0
H3140 H 0.51976 0.36257 0.53798 0.0
C3141 C 0.54939 0.41981 0.52604 0.0
C3142 C 0.53421 0.4165 0.51366 0.0
C3143 C 0.55437 0.40595 0.53343 0.0
C3144 C 0.53338 0.3621 0.54228 0.0
H3145 H 0.57107 0.33374 0.61315 0.0
H3146 H 0.56891 0.35572 0.59364 0.0
H3147 H 0.52487 0.34025 0.5557 0.0
H3148 H 0.51331 0.39585 0.49808 0.0
H3149 H 0.52269 0.37148 0.51009 0.0
H3150 H 0.57672 0.38278 0.54164 0.0
C3151 C 0.56407 0.34162 0.58824 0.0
C3152 C 0.53624 0.34944 0.55256 0.0
C3153 C 0.56515 0.32913 0.59936 0.0
C3154 C 0.52506 0.39885 0.5076 0.0
C3155 C 0.53027 0.38492 0.51471 0.0
C3156 C 0.56528 0.37366 0.5447 0.0
C3157 C 0.55621 0.33593 0.57046 0.0
C3158 C 0.55355 0.34902 0.55924 0.0
C3159 C 0.54448 0.38845 0.52827 0.0
C3160 C 0.54786 0.37434 0.5382 0.0
H3161 H 0.54616 0.29118 0.56919 0.0
H3162 H 0.54374 0.31316 0.54996 0.0
H3163 H 0.58156 0.36087 0.56036 0.0
H3164 H 0.55701 0.43324 0.5306 0.0
H3165 H 0.56537 0.40917 0.54387 0.0
C3166 C 0.45085 0.78673 0.36205 0.0
C3167 C 0.46566 0.79837 0.35776 0.0
C3168 C 0.43368 0.78771 0.35567 0.0
C3169 C 0.41161 0.80096 0.31785 0.0
H3170 H 0.36945 0.79242 0.34385 0.0
C3171 C 0.34196 0.79721 0.28419 0.0
C3172 C 0.32882 0.78305 0.28707 0.0
C3173 C 0.35828 0.80148 0.29454 0.0
C3174 C 0.38114 0.79476 0.33646 0.0
H3175 H 0.47419 0.82094 0.34461 0.0
H3176 H 0.44418 0.82276 0.33364 0.0
H3177 H 0.39901 0.79629 0.35981 0.0
H3178 H 0.32229 0.76215 0.30284 0.0
H3179 H 0.35113 0.76922 0.32053 0.0
H3180 H 0.39394 0.79888 0.29441 0.0
C3181 C 0.44587 0.8126 0.34151 0.0
C3182 C 0.39798 0.79701 0.34557 0.0
C3183 C 0.46301 0.8115 0.3477 0.0
C3184 C 0.33223 0.77316 0.3004 0.0
C3185 C 0.34863 0.77732 0.31063 0.0
C3186 C 0.39484 0.79869 0.30877 0.0
C3187 C 0.4311 0.80045 0.34507 0.0
C3188 C 0.41333 0.79989 0.33624 0.0
C3189 C 0.36179 0.79151 0.30778 0.0
C3190 C 0.37946 0.79532 0.31791 0.0
H3191 H 0.45255 0.77658 0.36994 0.0
H3192 H 0.42251 0.77805 0.35844 0.0
H3193 H 0.42321 0.80281 0.31024 0.0
H3194 H 0.33953 0.80522 0.27417 0.0
H3195 H 0.36813 0.81263 0.29224 0.0
C3196 C 0.05397 0.71094 0.07279 0.0
C3197 C 0.05517 0.7099 0.09125 0.0
C3198 C 0.04894 0.69543 0.05972 0.0
C3199 C 0.02388 0.65014 0.05283 0.0
H3200 H 0.05751 0.63748 0.01842 0.0
C3201 C 0.03023 0.579 0.02782 0.0
C3202 C 0.03607 0.57381 0.01082 0.0
C3203 C 0.02815 0.59648 0.03351 0.0
C3204 C 0.04766 0.641 0.02748 0.0
H3205 H 0.05215 0.69201 0.1106 0.0
H3206 H 0.04317 0.66486 0.08765 0.0
H3207 H 0.06295 0.66737 0.03694 0.0
H3208 H 0.04425 0.58229 0.98614 0.0
H3209 H 0.04055 0.6133 0.99605 0.0
H3210 H 0.00879 0.6237 0.04379 0.0
C3211 C 0.04612 0.67769 0.0834 0.0
C3212 C 0.05087 0.65804 0.03815 0.0
C3213 C 0.05146 0.69315 0.09645 0.0
C3214 C 0.0396 0.58617 -0.00069 0.0
C3215 C 0.03746 0.60379 0.00496 0.0
C3216 C 0.0205 0.63322 0.04196 0.0
C3217 C 0.0447 0.67879 0.065 0.0
C3218 C 0.03943 0.66237 0.05142 0.0
C3219 C 0.03204 0.60915 0.02228 0.0
C3220 C 0.03284 0.6282 0.02987 0.0
H3221 H 0.05678 0.72375 0.06848 0.0
H3222 H 0.04803 0.69644 0.04554 0.0
H3223 H 0.01479 0.65343 0.06286 0.0
H3224 H 0.02846 0.56985 0.03721 0.0
H3225 H 0.0246 0.60028 0.04717 0.0
C3226 C 0.05829 0.27641 0.85628 0.0
C3227 C 0.05541 0.28194 0.87445 0.0
C3228 C 0.07538 0.28005 0.85062 0.0
C3229 C 0.11257 0.30708 0.84805 0.0
H3230 H 0.14277 0.272 0.85015 0.0
C3231 C 0.178 0.31063 0.81359 0.0
C3232 C 0.17906 0.29442 0.80232 0.0
C3233 C 0.16539 0.31105 0.82626 0.0
C3234 C 0.13455 0.28199 0.84965 0.0
H3235 H 0.06803 0.29566 0.90095 0.0
H3236 H 0.09803 0.30187 0.89085 0.0
H3237 H 0.11499 0.26934 0.86503 0.0
H3238 H 0.16809 0.26599 0.79547 0.0
H3239 H 0.14597 0.26672 0.81743 0.0
H3240 H 0.13151 0.31925 0.83187 0.0
C3241 C 0.08699 0.29474 0.88118 0.0
C3242 C 0.11881 0.2805 0.85819 0.0
C3243 C 0.0699 0.29109 0.88688 0.0
C3244 C 0.16764 0.27861 0.80415 0.0
C3245 C 0.15507 0.27902 0.81678 0.0
C3246 C 0.12835 0.30863 0.83955 0.0
C3247 C 0.08971 0.28927 0.86304 0.0
C3248 C 0.10756 0.29272 0.85693 0.0
C3249 C 0.15372 0.29526 0.82782 0.0
C3250 C 0.13912 0.29572 0.83974 0.0
H3251 H 0.04736 0.26937 0.84645 0.0
H3252 H 0.07745 0.27568 0.83656 0.0
H3253 H 0.10388 0.31656 0.84699 0.0
H3254 H 0.1869 0.32295 0.81258 0.0
H3255 H 0.16465 0.32371 0.83471 0.0
C3256 C 0.56248 0.75262 0.94064 0.0
C3257 C 0.56457 0.75046 0.92205 0.0
C3258 C 0.55612 0.73776 0.94833 0.0
C3259 C 0.55287 0.68947 0.94212 0.0
H3260 H 0.51405 0.69084 0.97309 0.0
C3261 C 0.52252 0.62808 0.97119 0.0
C3262 C 0.51982 0.63138 0.98969 0.0
C3263 C 0.52616 0.6422 0.96184 0.0
C3264 C 0.52499 0.69032 0.96459 0.0
H3265 H 0.56217 0.73117 0.89698 0.0
H3266 H 0.55144 0.70523 0.91051 0.0
H3267 H 0.525 0.71671 0.95941 0.0
H3268 H 0.51816 0.65196 0.01272 0.0
H3269 H 0.52451 0.67664 0.99644 0.0
H3270 H 0.55327 0.66333 0.9476 0.0
C3271 C 0.55453 0.71837 0.91907 0.0
C3272 C 0.53123 0.7051 0.95679 0.0
C3273 C 0.56059 0.73322 0.91135 0.0
C3274 C 0.52 0.64899 -0.00156 0.0
C3275 C 0.52365 0.66312 0.98909 0.0
C3276 C 0.54674 0.67475 0.95004 0.0
C3277 C 0.55209 0.72054 0.93758 0.0
C3278 C 0.5453 0.70483 0.94561 0.0
C3279 C 0.52715 0.65991 0.97081 0.0
C3280 C 0.53282 0.67507 0.96147 0.0
H3281 H 0.56542 0.76579 0.94915 0.0
H3282 H 0.55447 0.7397 0.96269 0.0
H3283 H 0.56383 0.68901 0.93362 0.0
H3284 H 0.52212 0.61458 0.964 0.0
H3285 H 0.52843 0.63926 0.94766 0.0
C3286 C 0.04712 0.78085 0.67082 0.0
C3287 C 0.0436 0.77183 0.6528 0.0
C3288 C 0.06332 0.78122 0.68042 0.0
C3289 C 0.10862 0.77102 0.67513 0.0
H3290 H 0.10469 0.76132 0.72375 0.0
C3291 C 0.16125 0.74272 0.71209 0.0
C3292 C 0.16691 0.75124 0.73002 0.0
C3293 C 0.14659 0.74682 0.70308 0.0
C3294 C 0.106 0.76423 0.71027 0.0
H3295 H 0.05433 0.75665 0.63041 0.0
H3296 H 0.08229 0.7567 0.64729 0.0
H3297 H 0.07876 0.76678 0.70696 0.0
H3298 H 0.16168 0.77059 0.75265 0.0
H3299 H 0.13576 0.77749 0.73693 0.0
H3300 H 0.13573 0.76774 0.6783 0.0
C3301 C 0.07282 0.7639 0.65394 0.0
C3302 C 0.09121 0.76747 0.70068 0.0
C3303 C 0.05675 0.76377 0.64429 0.0
C3304 C 0.1574 0.7636 0.73893 0.0
C3305 C 0.14267 0.76762 0.72994 0.0
C3306 C 0.12335 0.7676 0.68466 0.0
C3307 C 0.07614 0.77234 0.67221 0.0
C3308 C 0.09231 0.77067 0.68293 0.0
C3309 C 0.13732 0.75942 0.71188 0.0
C3310 C 0.12206 0.76396 0.7022 0.0
H3311 H 0.03721 0.78732 0.6776 0.0
H3312 H 0.06565 0.78814 0.69437 0.0
H3313 H 0.10996 0.77376 0.6616 0.0
H3314 H 0.16825 0.73299 0.70499 0.0
H3315 H 0.14248 0.74011 0.68923 0.0
C3316 C 0.09228 0.35577 0.43 0.0
C3317 C 0.09041 0.35246 0.41102 0.0
C3318 C 0.088 0.37133 0.43971 0.0
C3319 C 0.07589 0.41489 0.43383 0.0
H3320 H 0.05136 0.40975 0.47691 0.0
C3321 C 0.03417 0.46495 0.46498 0.0
C3322 C 0.04015 0.4728 0.483 0.0
C3323 C 0.03991 0.4496 0.45685 0.0
C3324 C 0.0582 0.41126 0.46488 0.0
H3325 H 0.08288 0.36283 0.3873 0.0
H3326 H 0.0746 0.38918 0.404 0.0
H3327 H 0.06409 0.38501 0.46167 0.0
H3328 H 0.05581 0.4703 0.50704 0.0
H3329 H 0.06561 0.4433 0.49281 0.0
H3330 H 0.06921 0.44088 0.43672 0.0
C3331 C 0.08007 0.38038 0.41158 0.0
C3332 C 0.06569 0.39725 0.45627 0.0
C3333 C 0.08479 0.36517 0.40194 0.0
C3334 C 0.05112 0.46457 0.49306 0.0
C3335 C 0.05665 0.44911 0.485 0.0
C3336 C 0.06805 0.42869 0.44221 0.0
C3337 C 0.08132 0.38353 0.43058 0.0
C3338 C 0.07455 0.39887 0.44057 0.0
C3339 C 0.05144 0.44182 0.46674 0.0
C3340 C 0.05912 0.42693 0.45772 0.0
H3341 H 0.0966 0.34615 0.43728 0.0
H3342 H 0.08951 0.37355 0.45435 0.0
H3343 H 0.08298 0.41682 0.42206 0.0
H3344 H 0.02567 0.47104 0.45696 0.0
H3345 H 0.03569 0.44401 0.44274 0.0
C3346 C 0.43476 0.23177 0.1668 0.0
C3347 C 0.44214 0.24624 0.1589 0.0
C3348 C 0.41937 0.23223 0.17571 0.0
C3349 C 0.38362 0.25816 0.18577 0.0
H3350 H 0.38873 0.24394 0.23251 0.0
C3351 C 0.34451 0.28234 0.24364 0.0
C3352 C 0.33291 0.26832 0.24905 0.0
C3353 C 0.35848 0.27871 0.23349 0.0
C3354 C 0.38717 0.24784 0.21946 0.0
H3355 H 0.43879 0.27186 0.15274 0.0
H3356 H 0.41227 0.27312 0.16903 0.0
H3357 H 0.41011 0.23807 0.21045 0.0
H3358 H 0.32799 0.23993 0.24997 0.0
H3359 H 0.3528 0.23371 0.23241 0.0
H3360 H 0.36109 0.26864 0.19529 0.0
C3361 C 0.41806 0.26123 0.16805 0.0
C3362 C 0.39922 0.24435 0.20676 0.0
C3363 C 0.43327 0.26058 0.1588 0.0
C3364 C 0.33662 0.25094 0.24579 0.0
C3365 C 0.35076 0.24737 0.23579 0.0
C3366 C 0.37176 0.26189 0.19859 0.0
C3367 C 0.41141 0.24736 0.17719 0.0
C3368 C 0.39762 0.24959 0.18984 0.0
C3369 C 0.36118 0.26111 0.22892 0.0
C3370 C 0.37361 0.2569 0.21553 0.0
H3371 H 0.44127 0.2204 0.16669 0.0
H3372 H 0.41421 0.22111 0.18215 0.0
H3373 H 0.38192 0.26212 0.17278 0.0
H3374 H 0.34212 0.29591 0.24612 0.0
H3375 H 0.36665 0.28949 0.22848 0.0
C3376 C 0.6078 0.52635 0.32045 0.0
C3377 C 0.62188 0.5171 0.31592 0.0
C3378 C 0.60037 0.52719 0.33735 0.0
C3379 C 0.59725 0.50692 0.38052 0.0
H3380 H 0.57615 0.54804 0.3975 0.0
C3381 C 0.5554 0.51046 0.44544 0.0
C3382 C 0.55424 0.52715 0.45617 0.0
C3383 C 0.56392 0.50914 0.429 0.0
C3384 C 0.582 0.53641 0.39331 0.0
H3385 H 0.63871 0.50117 0.32708 0.0
H3386 H 0.62584 0.50261 0.35659 0.0
H3387 H 0.5905 0.54605 0.36946 0.0
H3388 H 0.56181 0.55565 0.45698 0.0
H3389 H 0.57638 0.55347 0.42875 0.0
H3390 H 0.58893 0.49747 0.40467 0.0
C3391 C 0.62044 0.5093 0.3467 0.0
C3392 C 0.59021 0.5351 0.37671 0.0
C3393 C 0.62801 0.5085 0.32956 0.0
C3394 C 0.56209 0.54247 0.44941 0.0
C3395 C 0.57052 0.54115 0.43289 0.0
C3396 C 0.58892 0.50819 0.39715 0.0
C3397 C 0.60643 0.51884 0.35115 0.0
C3398 C 0.59804 0.52028 0.36967 0.0
C3399 C 0.57177 0.52443 0.42213 0.0
C3400 C 0.58099 0.52298 0.40408 0.0
H3401 H 0.60224 0.53317 0.31074 0.0
H3402 H 0.58949 0.53433 0.33937 0.0
H3403 H 0.60284 0.49516 0.37607 0.0
H3404 H 0.54974 0.49818 0.44982 0.0
H3405 H 0.56408 0.4959 0.42152 0.0
C3406 C 0.27852 0.91423 0.06309 0.0
C3407 C 0.26772 0.90514 0.04734 0.0
C3408 C 0.28183 0.90526 0.07719 0.0
C3409 C 0.26383 0.86507 0.09576 0.0
H3410 H 0.31156 0.87182 0.11935 0.0
C3411 C 0.28255 0.8171 0.14052 0.0
C3412 C 0.29322 0.82441 0.1568 0.0
C3413 C 0.27985 0.82776 0.12783 0.0
C3414 C 0.29812 0.86996 0.11304 0.0
H3415 H 0.25188 0.87954 0.0341 0.0
H3416 H 0.25759 0.86395 0.05862 0.0
H3417 H 0.30587 0.88913 0.0961 0.0
H3418 H 0.30974 0.84863 0.17234 0.0
H3419 H 0.30489 0.86737 0.15015 0.0
H3420 H 0.25605 0.84587 0.11253 0.0
C3421 C 0.2634 0.87804 0.06018 0.0
C3422 C 0.29485 0.87988 0.09973 0.0
C3423 C 0.2602 0.88696 0.04607 0.0
C3424 C 0.30132 0.84264 0.15999 0.0
C3425 C 0.29867 0.85333 0.14722 0.0
C3426 C 0.26708 0.85519 0.10901 0.0
C3427 C 0.27428 0.88706 0.0759 0.0
C3428 C 0.2777 0.87736 0.09077 0.0
C3429 C 0.28775 0.84603 0.13107 0.0
C3430 C 0.2843 0.85732 0.11765 0.0
H3431 H 0.28457 0.92824 0.06445 0.0
H3432 H 0.29015 0.91263 0.08918 0.0
H3433 H 0.25038 0.86309 0.08941 0.0
H3434 H 0.27598 0.80317 0.13769 0.0
H3435 H 0.27158 0.82165 0.11542 0.0
C3436 C 0.96169 0.51252 0.82247 0.0
C3437 C 0.94817 0.52203 0.81933 0.0
C3438 C 0.96878 0.51319 0.84003 0.0
C3439 C 0.95706 0.52129 0.88658 0.0
H3440 H 0.00768 0.52454 0.89844 0.0
C3441 C 0.98891 0.53005 0.95931 0.0
C3442 C 0.00228 0.5202 0.96184 0.0
C3443 C 0.98185 0.53018 0.94193 0.0
C3444 C 0.99349 0.52343 0.89524 0.0
H3445 H 0.932 0.54032 0.83197 0.0
H3446 H 0.94463 0.54167 0.86264 0.0
H3447 H -0.0031 0.52595 0.86779 0.0
H3448 H 0.01817 0.50207 0.94839 0.0
H3449 H 0.00559 0.50209 0.91805 0.0
H3450 H 0.95365 0.51869 0.91403 0.0
C3451 C 0.94946 0.53345 0.85153 0.0
C3452 C 0.98736 0.52428 0.87777 0.0
C3453 C 0.94233 0.53274 0.83399 0.0
C3454 C 0.00802 0.50996 0.94681 0.0
C3455 C 0.0009 0.51003 0.92946 0.0
C3456 C 0.9632 0.52043 0.90407 0.0
C3457 C 0.96251 0.52344 0.8547 0.0
C3458 C 0.9691 0.52316 0.8733 0.0
C3459 C 0.98801 0.52039 0.92688 0.0
C3460 C 0.98145 0.5214 0.90848 0.0
H3461 H 0.96639 0.50408 0.81144 0.0
H3462 H 0.97872 0.50522 0.84218 0.0
H3463 H 0.94287 0.52012 0.88336 0.0
H3464 H 0.98432 0.53817 0.97067 0.0
H3465 H 0.97201 0.53839 0.94024 0.0
C3466 C 0.28151 0.19792 0.56594 0.0
C3467 C 0.27352 0.2045 0.55198 0.0
C3468 C 0.28363 0.2074 0.58362 0.0
C3469 C 0.28191 0.25092 0.61274 0.0
H3470 H 0.27329 0.22047 0.6485 0.0
C3471 C 0.27424 0.27505 0.68956 0.0
C3472 C 0.28397 0.26742 0.70152 0.0
C3473 C 0.2736 0.26919 0.67084 0.0
C3474 C 0.27584 0.22914 0.63868 0.0
H3475 H 0.2621 0.22646 0.54525 0.0
H3476 H 0.26518 0.24297 0.57661 0.0
H3477 H 0.27064 0.20704 0.61667 0.0
H3478 H 0.30124 0.24818 0.70313 0.0
H3479 H 0.29989 0.23788 0.67061 0.0
H3480 H 0.28662 0.27308 0.63516 0.0
C3481 C 0.27012 0.23058 0.57377 0.0
C3482 C 0.27442 0.22147 0.62042 0.0
C3483 C 0.26832 0.22117 0.55586 0.0
C3484 C 0.2935 0.25426 0.69435 0.0
C3485 C 0.29271 0.24832 0.67572 0.0
C3486 C 0.2831 0.25865 0.63114 0.0
C3487 C 0.27739 0.22352 0.58791 0.0
C3488 C 0.27783 0.23219 0.60721 0.0
C3489 C 0.28252 0.25549 0.66381 0.0
C3490 C 0.28041 0.24776 0.64426 0.0
H3491 H 0.28593 0.18523 0.56322 0.0
H3492 H 0.28989 0.20186 0.594 0.0
H3493 H 0.28463 0.25956 0.60294 0.0
H3494 H 0.26682 0.28528 0.69465 0.0
H3495 H 0.26562 0.27488 0.6619 0.0
C3496 C 0.61026 0.50064 0.19908 0.0
C3497 C 0.62888 0.5067 0.20332 0.0
C3498 C 0.60146 0.50217 0.18236 0.0
C3499 C 0.60644 0.52734 0.14292 0.0
H3500 H 0.5676 0.49026 0.11821 0.0
C3501 C 0.5633 0.53675 0.07824 0.0
C3502 C 0.55741 0.52199 0.06391 0.0
C3503 C 0.5717 0.53485 0.09498 0.0
C3504 C 0.57844 0.50083 0.12477 0.0
H3505 H 0.65241 0.51946 0.19244 0.0
H3506 H 0.63729 0.52246 0.16395 0.0
H3507 H 0.58226 0.4871 0.14693 0.0
H3508 H 0.55594 0.49335 0.05693 0.0
H3509 H 0.57 0.48999 0.08588 0.0
H3510 H 0.60252 0.54117 0.1209 0.0
C3511 C 0.62933 0.51636 0.17349 0.0
C3512 C 0.58688 0.49907 0.14156 0.0
C3513 C 0.63816 0.51451 0.19001 0.0
C3514 C 0.56014 0.50518 0.06734 0.0
C3515 C 0.56824 0.50322 0.08421 0.0
C3516 C 0.59779 0.52927 0.12633 0.0
C3517 C 0.61073 0.5102 0.16912 0.0
C3518 C 0.60123 0.51221 0.15107 0.0
C3519 C 0.57441 0.51803 0.09848 0.0
C3520 C 0.58361 0.51602 0.11668 0.0
H3521 H 0.60239 0.49458 0.20871 0.0
H3522 H 0.5872 0.49731 0.17997 0.0
H3523 H 0.6172 0.53798 0.14952 0.0
H3524 H 0.56163 0.54999 0.07649 0.0
H3525 H 0.5759 0.54671 0.10535 0.0
C3526 C 0.26072 0.88195 0.9421 0.0
C3527 C 0.26208 0.90004 0.94062 0.0
C3528 C 0.26241 0.86901 0.92703 0.0
C3529 C 0.26223 0.86241 0.87641 0.0
H3530 H 0.28505 0.82246 0.88186 0.0
C3531 C 0.28999 0.82264 0.81682 0.0
C3532 C 0.28426 0.80391 0.81315 0.0
C3533 C 0.28684 0.8329 0.83305 0.0
C3534 C 0.2785 0.83347 0.88019 0.0
H3535 H 0.26673 0.91869 0.92215 0.0
H3536 H 0.27032 0.89654 0.89634 0.0
H3537 H 0.28029 0.84334 0.90876 0.0
H3538 H 0.27132 0.78129 0.8242 0.0
H3539 H 0.2662 0.79941 0.85301 0.0
H3540 H 0.26116 0.85296 0.84785 0.0
C3541 C 0.26727 0.89204 0.90885 0.0
C3542 C 0.27569 0.84544 0.8956 0.0
C3543 C 0.26532 0.90486 0.92378 0.0
C3544 C 0.27594 0.79566 0.82658 0.0
C3545 C 0.273 0.80601 0.84305 0.0
C3546 C 0.2653 0.85068 0.8611 0.0
C3547 C 0.26573 0.87387 0.91014 0.0
C3548 C 0.26775 0.86028 0.89392 0.0
C3549 C 0.27806 0.82478 0.84624 0.0
C3550 C 0.27368 0.83622 0.86277 0.0
H3551 H 0.25822 0.87776 0.95487 0.0
H3552 H 0.26092 0.85518 0.92861 0.0
H3553 H 0.25555 0.87324 0.87443 0.0
H3554 H 0.2965 0.82954 0.80691 0.0
H3555 H 0.29111 0.84731 0.83521 0.0
C3556 C 0.93143 0.52403 0.71638 0.0
C3557 C 0.91352 0.52035 0.72016 0.0
C3558 C 0.9364 0.51704 0.6996 0.0
C3559 C 0.93953 0.48449 0.6701 0.0
H3560 H 0.93713 0.50682 0.62798 0.0
C3561 C 0.97123 0.48755 0.5974 0.0
C3562 C 0.98927 0.49127 0.60419 0.0
C3563 C 0.95783 0.48504 0.609 0.0
C3564 C 0.93742 0.50001 0.63938 0.0
H3565 H 0.88657 0.50747 0.70908 0.0
H3566 H 0.89547 0.49542 0.67931 0.0
H3567 H 0.92021 0.51562 0.65352 0.0
H3568 H 0.0075 0.49388 0.62799 0.0
H3569 H 0.98412 0.48947 0.64826 0.0
H3570 H 0.9576 0.46971 0.65658 0.0
C3571 C 0.9055 0.50355 0.68957 0.0
C3572 C 0.9278 0.5051 0.65393 0.0
C3573 C 0.90048 0.51048 0.70648 0.0
C3574 C 0.9937 0.49096 0.62241 0.0
C3575 C 0.98031 0.48837 0.63399 0.0
C3576 C 0.94907 0.47934 0.65555 0.0
C3577 C 0.92353 0.50642 0.68635 0.0
C3578 C 0.92945 0.49787 0.66957 0.0
C3579 C 0.9623 0.48608 0.62748 0.0
C3580 C 0.94874 0.48767 0.64045 0.0
H3581 H 0.94172 0.5317 0.72663 0.0
H3582 H 0.95038 0.51949 0.6971 0.0
H3583 H 0.94089 0.47888 0.68221 0.0
H3584 H 0.96749 0.4873 0.58326 0.0
H3585 H 0.94403 0.48311 0.60369 0.0
C3586 C 0.27838 0.22433 0.44157 0.0
C3587 C 0.27715 0.20588 0.44112 0.0
C3588 C 0.27946 0.2312 0.42555 0.0
C3589 C 0.26695 0.2181 0.37699 0.0
H3590 H 0.30339 0.25841 0.37202 0.0
C3591 C 0.27671 0.23834 0.30767 0.0
C3592 C 0.28224 0.25652 0.30708 0.0
C3593 C 0.27643 0.23254 0.32425 0.0
C3594 C 0.29291 0.24733 0.37321 0.0
H3595 H 0.27629 0.18025 0.42358 0.0
H3596 H 0.27794 0.19222 0.39575 0.0
H3597 H 0.30202 0.24814 0.40085 0.0
H3598 H 0.29155 0.28297 0.32331 0.0
H3599 H 0.29027 0.27307 0.35221 0.0
H3600 H 0.25739 0.21745 0.34971 0.0
C3601 C 0.27806 0.20134 0.40844 0.0
C3602 C 0.29221 0.24143 0.38974 0.0
C3603 C 0.27721 0.19452 0.42441 0.0
C3604 C 0.2874 0.26882 0.32336 0.0
C3605 C 0.28676 0.2631 0.33995 0.0
C3606 C 0.26744 0.22416 0.36059 0.0
C3607 C 0.27906 0.2197 0.40883 0.0
C3608 C 0.27935 0.22663 0.39169 0.0
C3609 C 0.2813 0.24486 0.34065 0.0
C3610 C 0.28055 0.23873 0.35837 0.0
H3611 H 0.27836 0.23341 0.45425 0.0
H3612 H 0.28018 0.24543 0.42617 0.0
H3613 H 0.25674 0.20679 0.37824 0.0
H3614 H 0.27283 0.22855 0.2953 0.0
H3615 H 0.27254 0.21834 0.32413 0.0
C3616 C 0.36112 0.6032 0.5121 0.0
C3617 C 0.34745 0.59174 0.51853 0.0
C3618 C 0.37777 0.5983 0.50916 0.0
C3619 C 0.40542 0.56471 0.51981 0.0
H3620 H 0.43453 0.58207 0.48367 0.0
C3621 C 0.46705 0.5351 0.49789 0.0
C3622 C 0.48314 0.54742 0.49837 0.0
C3623 C 0.45071 0.54088 0.49936 0.0
C3624 C 0.42658 0.57717 0.49387 0.0
H3625 H 0.34059 0.56578 0.52623 0.0
H3626 H 0.36886 0.55695 0.5204 0.0
H3627 H 0.4058 0.59118 0.48801 0.0
H3628 H 0.49436 0.57554 0.50008 0.0
H3629 H 0.46569 0.58554 0.50197 0.0
H3630 H 0.42598 0.55024 0.52518 0.0
C3631 C 0.36725 0.57009 0.5183 0.0
C3632 C 0.41006 0.58248 0.49649 0.0
C3633 C 0.3508 0.57511 0.52152 0.0
C3634 C 0.48227 0.56564 0.49958 0.0
C3635 C 0.46582 0.57139 0.50067 0.0
C3636 C 0.4217 0.55916 0.51694 0.0
C3637 C 0.3812 0.58165 0.51228 0.0
C3638 C 0.39911 0.57629 0.50949 0.0
C3639 C 0.44987 0.55912 0.50101 0.0
C3640 C 0.43252 0.56527 0.50393 0.0
H3641 H 0.35908 0.61613 0.50967 0.0
H3642 H 0.38805 0.60778 0.50475 0.0
H3643 H 0.39791 0.55998 0.53037 0.0
H3644 H 0.46711 0.52099 0.49716 0.0
H3645 H 0.43869 0.53105 0.49943 0.0
C3646 C 0.85447 0.91695 0.50564 0.0
C3647 C 0.84681 0.91245 0.52113 0.0
C3648 C 0.87197 0.92631 0.5068 0.0
C3649 C 0.91447 0.94209 0.5366 0.0
H3650 H 0.92206 0.97633 0.50438 0.0
C3651 C 0.97899 0.99703 0.53664 0.0
C3652 C 0.9861 0.99559 0.51973 0.0
C3653 C 0.96241 0.98664 0.53857 0.0
C3654 C 0.92012 0.96683 0.51346 0.0
H3655 H 0.85161 0.91359 0.54992 0.0
H3656 H 0.88225 0.9307 0.55218 0.0
H3657 H 0.89245 0.95865 0.50467 0.0
H3658 H 0.98142 0.98211 0.49163 0.0
H3659 H 0.95238 0.96452 0.49494 0.0
H3660 H 0.94235 0.95095 0.54562 0.0
C3661 C 0.8748 0.92666 0.53903 0.0
C3662 C 0.90318 0.95653 0.51354 0.0
C3663 C 0.85726 0.91688 0.53777 0.0
C3664 C 0.97637 0.98352 0.50486 0.0
C3665 C 0.95972 0.97347 0.50671 0.0
C3666 C 0.93144 0.9527 0.53673 0.0
C3667 C 0.88221 0.93189 0.52358 0.0
C3668 C 0.90017 0.94367 0.52475 0.0
C3669 C 0.95255 0.97498 0.52353 0.0
C3670 C 0.93444 0.96489 0.52488 0.0
H3671 H 0.84679 0.91343 0.49258 0.0
H3672 H 0.87735 0.92942 0.49448 0.0
H3673 H 0.9127 0.93233 0.54539 0.0
H3674 H 0.98624 0.00616 0.54835 0.0
H3675 H 0.95708 0.98804 0.55167 0.0
C3676 C 0.88902 0.11945 0.26357 0.0
C3677 C 0.87937 0.10171 0.25742 0.0
C3678 C 0.88096 0.13495 0.26421 0.0
C3679 C 0.83682 0.15052 0.25002 0.0
H3680 H 0.86068 0.19624 0.27802 0.0
C3681 C 0.80061 0.21402 0.25842 0.0
C3682 C 0.81035 0.23192 0.26237 0.0
C3683 C 0.80894 0.19874 0.25785 0.0
C3684 C 0.85362 0.18377 0.26988 0.0
H3685 H 0.85277 0.0875 0.24711 0.0
H3686 H 0.83888 0.11374 0.24838 0.0
H3687 H 0.87441 0.17007 0.27714 0.0
H3688 H 0.83748 0.24664 0.26881 0.0
H3689 H 0.8518 0.22054 0.26799 0.0
H3690 H 0.81599 0.16425 0.24286 0.0
C3691 C 0.85296 0.11605 0.25261 0.0
C3692 C 0.86173 0.16829 0.26934 0.0
C3693 C 0.86106 0.10056 0.25197 0.0
C3694 C 0.82908 0.23345 0.26579 0.0
C3695 C 0.83744 0.21813 0.26537 0.0
C3696 C 0.8287 0.16596 0.25064 0.0
C3697 C 0.86257 0.13391 0.25874 0.0
C3698 C 0.85367 0.151 0.25938 0.0
C3699 C 0.82769 0.20015 0.26129 0.0
C3700 C 0.83675 0.18321 0.2606 0.0
H3701 H 0.90309 0.12147 0.26791 0.0
H3702 H 0.88949 0.14788 0.26887 0.0
H3703 H 0.82971 0.13813 0.24179 0.0
H3704 H 0.78626 0.21168 0.2556 0.0
H3705 H 0.80037 0.18566 0.25488 0.0
C3706 C 0.73201 0.07713 0.00886 0.0
C3707 C 0.73892 0.09531 0.01592 0.0
C3708 C 0.71345 0.07067 0.00626 0.0
C3709 C 0.671 0.08162 0.02243 0.0
H3710 H 0.64836 0.04666 0.98052 0.0
C3711 C 0.59817 0.04433 0.01995 0.0
C3712 C 0.58692 0.04229 0.004 0.0
C3713 C 0.61653 0.05085 0.02046 0.0
C3714 C 0.65447 0.05651 0.99225 0.0
H3715 H 0.73156 0.12096 0.02543 0.0
H3716 H 0.69955 0.10978 0.02095 0.0
H3717 H 0.6807 0.05776 0.98301 0.0
H3718 H 0.58646 0.04534 0.9759 0.0
H3719 H 0.6187 0.05654 0.97675 0.0
H3720 H 0.64492 0.08043 0.03171 0.0
C3721 C 0.70836 0.1004 0.0176 0.0
C3722 C 0.67304 0.06274 0.99378 0.0
C3723 C 0.7268 0.10684 0.02011 0.0
C3724 C 0.59467 0.04679 0.98845 0.0
C3725 C 0.61318 0.05311 0.98891 0.0
C3726 C 0.65254 0.0753 0.02099 0.0
C3727 C 0.70136 0.0822 0.01077 0.0
C3728 C 0.68158 0.07539 0.00892 0.0
C3729 C 0.62433 0.05538 0.00499 0.0
C3730 C 0.64399 0.06258 0.00594 0.0
H3731 H 0.74092 0.06788 0.00542 0.0
H3732 H 0.70857 0.05655 0.00109 0.0
H3733 H 0.67705 0.09122 0.03436 0.0
H3734 H 0.59278 0.04108 0.03222 0.0
H3735 H 0.62469 0.05219 0.03302 0.0
C3736 C 0.17948 0.4832 0.27147 0.0
C3737 C 0.18526 0.49157 0.25715 0.0
C3738 C 0.18774 0.46985 0.27629 0.0
C3739 C 0.20818 0.43451 0.25686 0.0
H3740 H 0.23381 0.43786 0.30359 0.0
C3741 C 0.25593 0.3883 0.2674 0.0
C3742 C 0.25707 0.38247 0.28394 0.0
C3743 C 0.24576 0.40102 0.26515 0.0
C3744 C 0.22637 0.43657 0.29063 0.0
H3745 H 0.20424 0.49306 0.23682 0.0
H3746 H 0.2184 0.46922 0.24499 0.0
H3747 H 0.21878 0.46205 0.29808 0.0
H3748 H 0.24858 0.3849 0.31106 0.0
H3749 H 0.23027 0.40713 0.30705 0.0
H3750 H 0.21535 0.40902 0.24934 0.0
C3751 C 0.20763 0.47318 0.25252 0.0
C3752 C 0.21794 0.45042 0.28749 0.0
C3753 C 0.19962 0.48677 0.24794 0.0
C3754 C 0.24794 0.38947 0.29827 0.0
C3755 C 0.23753 0.4021 0.29596 0.0
C3756 C 0.2163 0.42055 0.26008 0.0
C3757 C 0.20157 0.46459 0.26656 0.0
C3758 C 0.20922 0.44957 0.27046 0.0
C3759 C 0.23636 0.40796 0.27935 0.0
C3760 C 0.22589 0.42168 0.27682 0.0
H3761 H 0.16847 0.48683 0.2788 0.0
H3762 H 0.18299 0.46325 0.28716 0.0
H3763 H 0.2012 0.43365 0.24372 0.0
H3764 H 0.26305 0.3831 0.25625 0.0
H3765 H 0.24549 0.40561 0.25236 0.0
C3766 C 0.2271 0.38398 0.01649 0.0
C3767 C 0.24292 0.39429 0.02603 0.0
C3768 C 0.2124 0.3919 0.0135 0.0
C3769 C 0.19242 0.43041 0.03106 0.0
H3770 H 0.16918 0.42325 0.98258 0.0
C3771 C 0.14427 0.47484 0.01285 0.0
C3772 C 0.12902 0.46684 0.00106 0.0
C3773 C 0.15762 0.46522 0.01571 0.0
C3774 C 0.17534 0.42518 0.99624 0.0
H3775 H 0.25567 0.4208 0.04022 0.0
H3776 H 0.22996 0.43452 0.03524 0.0
H3777 H 0.19316 0.40732 0.98831 0.0
H3778 H 0.11574 0.44248 0.98302 0.0
H3779 H 0.13896 0.42553 0.98821 0.0
H3780 H 0.17466 0.44813 0.03913 0.0
C3781 C 0.22891 0.42036 0.03005 0.0
C3782 C 0.18907 0.41607 -0.0005 0.0
C3783 C 0.24364 0.41252 0.03285 0.0
C3784 C 0.12743 0.44903 0.99209 0.0
C3785 C 0.14075 0.43935 0.99502 0.0
C3786 C 0.17864 0.43939 0.02785 0.0
C3787 C 0.21321 0.41017 0.02023 0.0
C3788 C 0.19788 0.4188 0.0169 0.0
C3789 C 0.15597 0.44732 0.00694 0.0
C3790 C 0.17009 0.43708 0.01037 0.0
H3791 H 0.22622 0.36991 0.011 0.0
H3792 H 0.20039 0.38374 0.00598 0.0
H3793 H 0.19882 0.43255 0.04466 0.0
H3794 H 0.14604 0.48866 0.01967 0.0
H3795 H 0.16936 0.47191 0.02464 0.0
C3796 C 0.8876 0.96743 0.24331 0.0
C3797 C 0.88081 0.98311 0.24947 0.0
C3798 C 0.87828 0.95004 0.24401 0.0
C3799 C 0.83919 0.92382 0.26427 0.0
H3800 H 0.84973 0.88393 0.23058 0.0
C3801 C 0.79995 0.84916 0.26057 0.0
C3802 C 0.80852 0.83449 0.25545 0.0
C3803 C 0.80821 0.86707 0.26 0.0
C3804 C 0.84664 0.89471 0.24037 0.0
H3805 H 0.8579 0.99167 0.26133 0.0
H3806 H 0.84141 0.96135 0.26226 0.0
H3807 H 0.86379 0.91428 0.22898 0.0
H3808 H 0.83312 0.8281 0.24565 0.0
H3809 H 0.84738 0.85888 0.24461 0.0
H3810 H 0.82175 0.90403 0.27543 0.0
C3811 C 0.85436 0.96264 0.25697 0.0
C3812 C 0.8549 0.91252 0.23948 0.0
C3813 C 0.86383 0.98028 0.25629 0.0
C3814 C 0.82583 0.83871 0.2497 0.0
C3815 C 0.83406 0.85663 0.249 0.0
C3816 C 0.83082 0.90595 0.2651 0.0
C3817 C 0.86137 0.94697 0.25083 0.0
C3818 C 0.8516 0.92766 0.2515 0.0
C3819 C 0.82549 0.87136 0.25413 0.0
C3820 C 0.8344 0.89084 0.25323 0.0
H3821 H 0.90055 0.96848 0.23802 0.0
H3822 H 0.88479 0.93895 0.23946 0.0
H3823 H 0.83611 0.93463 0.27403 0.0
H3824 H 0.78668 0.84683 0.26509 0.0
H3825 H 0.80076 0.87756 0.26392 0.0
C3826 C 0.67143 0.10204 0.7274 0.0
C3827 C 0.67315 0.08971 0.73866 0.0
C3828 C 0.6833 0.11842 0.7303 0.0
C3829 C 0.72844 0.13898 0.75194 0.0
H3830 H 0.71542 0.18219 0.74032 0.0
C3831 C 0.76976 0.21179 0.76711 0.0
C3832 C 0.77015 0.22037 0.75211 0.0
C3833 C 0.7601 0.19444 0.76553 0.0
C3834 C 0.71916 0.17011 0.74349 0.0
H3835 H 0.68732 0.08513 0.76264 0.0
H3836 H 0.7075 0.11397 0.76819 0.0
H3837 H 0.69225 0.15577 0.73924 0.0
H3838 H 0.76234 0.21717 0.7234 0.0
H3839 H 0.74524 0.18691 0.7208 0.0
H3840 H 0.75534 0.15377 0.75677 0.0
C3841 C 0.69767 0.11078 0.75662 0.0
C3842 C 0.70597 0.15503 0.74285 0.0
C3843 C 0.6861 0.09431 0.75348 0.0
C3844 C 0.76227 0.21083 0.73516 0.0
C3845 C 0.75241 0.19362 0.73367 0.0
C3846 C 0.74159 0.1542 0.7529 0.0
C3847 C 0.69678 0.12277 0.74474 0.0
C3848 C 0.71051 0.13921 0.74678 0.0
C3849 C 0.75064 0.18572 0.74902 0.0
C3850 C 0.73702 0.16969 0.74836 0.0
H3851 H 0.66144 0.09872 0.71596 0.0
H3852 H 0.68234 0.12732 0.72081 0.0
H3853 H 0.73243 0.12692 0.7548 0.0
H3854 H 0.77589 0.21889 0.78028 0.0
H3855 H 0.75887 0.18842 0.77748 0.0
loop_
_geom_bond_atom_site_label_1
_geom_bond_atom_site_label_2
_geom_bond_distance
_geom_bond_site_symmetry_2
_ccdc_geom_bond_type
C0 O1 1.306 . S
C0 O3 1.160 . S
O1 C0 1.306 . S
O1 Cd2 2.228 . S
Cd2 O1 2.228 . S
Cd2 O6 2.273 . S
Cd2 O10 2.277 . S
O3 C0 1.160 . S
O3 Cd4 2.203 . S
Cd4 O3 2.203 . S
Cd4 O6 2.411 . S
Cd4 O7 2.333 . S
Cd4 O8 2.352 . S
Cd4 O12 2.277 . S
Cd4 O13 2.356 . S
C5 O10 1.209 . S
C5 O12 1.226 . S
O6 Cd2 2.273 . S
O6 Cd4 2.411 . S
O6 C9 1.320 . S
O7 Cd4 2.333 . S
O7 C9 1.214 . S
O8 Cd4 2.352 . S
O8 C11 1.258 . S
C9 O6 1.320 . S
C9 O7 1.214 . S
O10 Cd2 2.277 . S
O10 C5 1.209 . S
C11 O8 1.258 . S
C11 O13 1.282 . S
O12 Cd4 2.277 . S
O12 C5 1.226 . S
O13 Cd4 2.356 . S
O13 C11 1.282 . S
C14 O15 1.306 . S
C14 O17 1.160 . S
O15 C14 1.306 . S
O15 Cd16 2.228 1_655 S
Cd16 O15 2.228 1_455 S
Cd16 O20 2.273 . S
Cd16 O24 2.277 1_455 S
O17 C14 1.160 . S
O17 Cd18 2.145 1_655 S
Cd18 O17 2.145 1_455 S
Cd18 O20 2.440 . S
Cd18 O21 2.393 . S
Cd18 O22 2.344 . S
Cd18 O26 2.280 1_455 S
Cd18 O27 2.361 . S
C19 O24 1.209 . S
C19 O26 1.226 . S
O20 Cd16 2.273 . S
O20 Cd18 2.440 . S
O20 C23 1.320 . S
O21 Cd18 2.393 . S
O21 C23 1.214 . S
O22 Cd18 2.344 . S
O22 C25 1.258 . S
C23 O20 1.320 . S
C23 O21 1.214 . S
O24 Cd16 2.277 1_655 S
O24 C19 1.209 . S
C25 O22 1.258 . S
C25 O27 1.282 . S
O26 Cd18 2.280 1_655 S
O26 C19 1.226 . S
O27 Cd18 2.361 . S
O27 C25 1.282 . S
C28 O29 1.306 . S
C28 O31 1.160 . S
O29 C28 1.306 . S
O29 Cd30 2.228 . S
Cd30 O29 2.228 . S
Cd30 O34 2.273 . S
Cd30 O38 2.277 . S
O31 C28 1.160 . S
O31 Cd32 2.203 . S
Cd32 O31 2.203 . S
Cd32 O34 2.411 . S
Cd32 O35 2.333 . S
Cd32 O36 2.352 . S
Cd32 O40 2.277 . S
Cd32 O41 2.356 . S
C33 O38 1.209 . S
C33 O40 1.226 . S
O34 Cd30 2.273 . S
O34 Cd32 2.411 . S
O34 C37 1.320 . S
O35 Cd32 2.333 . S
O35 C37 1.214 . S
O36 Cd32 2.352 . S
O36 C39 1.258 . S
C37 O34 1.320 . S
C37 O35 1.214 . S
O38 Cd30 2.277 . S
O38 C33 1.209 . S
C39 O36 1.258 . S
C39 O41 1.282 . S
O40 Cd32 2.277 . S
O40 C33 1.226 . S
O41 Cd32 2.356 . S
O41 C39 1.282 . S
C42 O43 1.306 . S
C42 O45 1.160 . S
O43 C42 1.306 . S
O43 Cd44 2.228 . S
Cd44 O43 2.228 . S
Cd44 O48 2.273 . S
Cd44 O52 2.277 . S
O45 C42 1.160 . S
O45 Cd46 2.203 . S
Cd46 O45 2.203 . S
Cd46 O48 2.411 . S
Cd46 O49 2.333 . S
Cd46 O50 2.352 . S
Cd46 O54 2.277 . S
Cd46 O55 2.356 . S
C47 O52 1.209 . S
C47 O54 1.226 . S
O48 Cd44 2.273 . S
O48 Cd46 2.411 . S
O48 C51 1.320 . S
O49 Cd46 2.333 . S
O49 C51 1.214 . S
O50 Cd46 2.352 . S
O50 C53 1.258 . S
C51 O48 1.320 . S
C51 O49 1.214 . S
O52 Cd44 2.277 . S
O52 C47 1.209 . S
C53 O50 1.258 . S
C53 O55 1.282 . S
O54 Cd46 2.277 . S
O54 C47 1.226 . S
O55 Cd46 2.356 . S
O55 C53 1.282 . S
C56 O57 1.306 . S
C56 O59 1.160 . S
O57 C56 1.306 . S
O57 Cd58 2.228 . S
Cd58 O57 2.228 . S
Cd58 O62 2.273 . S
Cd58 O66 2.277 . S
O59 C56 1.160 . S
O59 Cd60 2.203 . S
Cd60 O59 2.203 . S
Cd60 O62 2.411 . S
Cd60 O63 2.333 . S
Cd60 O64 2.352 . S
Cd60 O68 2.277 . S
Cd60 O69 2.356 . S
C61 O66 1.209 . S
C61 O68 1.226 . S
O62 Cd58 2.273 . S
O62 Cd60 2.411 . S
O62 C65 1.320 . S
O63 Cd60 2.333 . S
O63 C65 1.214 . S
O64 Cd60 2.352 . S
O64 C67 1.258 . S
C65 O62 1.320 . S
C65 O63 1.214 . S
O66 Cd58 2.277 . S
O66 C61 1.209 . S
C67 O64 1.258 . S
C67 O69 1.282 . S
O68 Cd60 2.277 . S
O68 C61 1.226 . S
O69 Cd60 2.356 . S
O69 C67 1.282 . S
C70 O71 1.306 . S
C70 O73 1.160 . S
O71 C70 1.306 . S
O71 Cd72 2.228 . S
Cd72 O71 2.228 . S
Cd72 O76 2.273 . S
Cd72 O80 2.277 . S
O73 C70 1.160 . S
O73 Cd74 2.203 . S
Cd74 O73 2.203 . S
Cd74 O76 2.411 . S
Cd74 O77 2.333 . S
Cd74 O78 2.352 . S
Cd74 O82 2.277 . S
Cd74 O83 2.356 . S
C75 O80 1.209 . S
C75 O82 1.226 . S
O76 Cd72 2.273 . S
O76 Cd74 2.411 . S
O76 C79 1.320 . S
O77 Cd74 2.333 . S
O77 C79 1.214 . S
O78 Cd74 2.352 . S
O78 C81 1.258 . S
C79 O76 1.320 . S
C79 O77 1.214 . S
O80 Cd72 2.277 . S
O80 C75 1.209 . S
C81 O78 1.258 . S
C81 O83 1.282 . S
O82 Cd74 2.277 . S
O82 C75 1.226 . S
O83 Cd74 2.356 . S
O83 C81 1.282 . S
C84 O85 1.306 . S
C84 O87 1.160 . S
O85 C84 1.306 . S
O85 Cd86 2.228 . S
Cd86 O85 2.228 . S
Cd86 O90 2.273 . S
Cd86 O94 2.277 . S
O87 C84 1.160 . S
O87 Cd88 2.203 . S
Cd88 O87 2.203 . S
Cd88 O90 2.411 . S
Cd88 O91 2.333 . S
Cd88 O92 2.352 . S
Cd88 O96 2.277 . S
Cd88 O97 2.356 . S
C89 O94 1.209 . S
C89 O96 1.226 . S
O90 Cd86 2.273 . S
O90 Cd88 2.411 . S
O90 C93 1.320 . S
O91 Cd88 2.333 . S
O91 C93 1.214 . S
O92 Cd88 2.352 . S
O92 C95 1.258 . S
C93 O90 1.320 . S
C93 O91 1.214 . S
O94 Cd86 2.277 . S
O94 C89 1.209 . S
C95 O92 1.258 . S
C95 O97 1.282 . S
O96 Cd88 2.277 . S
O96 C89 1.226 . S
O97 Cd88 2.356 . S
O97 C95 1.282 . S
C98 O99 1.306 . S
C98 O101 1.160 . S
O99 C98 1.306 . S
O99 Cd100 2.228 1_655 S
Cd100 O99 2.228 1_455 S
Cd100 O104 2.273 . S
Cd100 O108 2.277 . S
O101 C98 1.160 . S
O101 Cd102 2.203 1_655 S
Cd102 O101 2.203 1_455 S
Cd102 O104 2.411 . S
Cd102 O105 2.333 . S
Cd102 O106 2.352 . S
Cd102 O110 2.277 . S
Cd102 O111 2.356 . S
C103 O108 1.209 . S
C103 O110 1.226 . S
O104 Cd100 2.273 . S
O104 Cd102 2.411 . S
O104 C107 1.320 . S
O105 Cd102 2.333 . S
O105 C107 1.214 . S
O106 Cd102 2.352 . S
O106 C109 1.258 . S
C107 O104 1.320 . S
C107 O105 1.214 . S
O108 Cd100 2.277 . S
O108 C103 1.209 . S
C109 O106 1.258 . S
C109 O111 1.282 . S
O110 Cd102 2.277 . S
O110 C103 1.226 . S
O111 Cd102 2.356 . S
O111 C109 1.282 . S
C112 O113 1.306 . S
C112 O115 1.160 . S
O113 C112 1.306 . S
O113 Cd114 2.228 1_545 S
Cd114 O113 2.228 1_565 S
Cd114 O118 2.273 1_565 S
Cd114 O122 2.277 . S
O115 C112 1.160 . S
O115 Cd116 2.203 . S
Cd116 O115 2.203 . S
Cd116 O118 2.411 . S
Cd116 O119 2.333 . S
Cd116 O120 2.352 . S
Cd116 O124 2.277 1_545 S
Cd116 O125 2.356 . S
C117 O122 1.209 . S
C117 O124 1.226 . S
O118 Cd114 2.273 1_545 S
O118 Cd116 2.411 . S
O118 C121 1.320 . S
O119 Cd116 2.333 . S
O119 C121 1.214 . S
O120 Cd116 2.352 . S
O120 C123 1.258 . S
C121 O118 1.320 . S
C121 O119 1.214 . S
O122 Cd114 2.277 . S
O122 C117 1.209 . S
C123 O120 1.258 . S
C123 O125 1.282 . S
O124 Cd116 2.277 1_565 S
O124 C117 1.226 . S
O125 Cd116 2.356 . S
O125 C123 1.282 . S
C126 O127 1.306 . S
C126 O129 1.160 . S
O127 C126 1.306 . S
O127 Cd128 2.228 . S
Cd128 O127 2.228 . S
Cd128 O132 2.273 . S
Cd128 O136 2.277 . S
O129 C126 1.160 . S
O129 Cd130 2.203 . S
Cd130 O129 2.203 . S
Cd130 O132 2.411 . S
Cd130 O133 2.333 . S
Cd130 O134 2.352 . S
Cd130 O138 2.277 . S
Cd130 O139 2.356 . S
C131 O136 1.209 . S
C131 O138 1.226 . S
O132 Cd128 2.273 . S
O132 Cd130 2.411 . S
O132 C135 1.320 . S
O133 Cd130 2.333 . S
O133 C135 1.214 . S
O134 Cd130 2.352 . S
O134 C137 1.258 . S
C135 O132 1.320 . S
C135 O133 1.214 . S
O136 Cd128 2.277 . S
O136 C131 1.209 . S
C137 O134 1.258 . S
C137 O139 1.282 . S
O138 Cd130 2.277 . S
O138 C131 1.226 . S
O139 Cd130 2.356 . S
O139 C137 1.282 . S
C140 O141 1.306 . S
C140 O143 1.160 . S
O141 C140 1.306 . S
O141 Cd142 2.228 . S
Cd142 O141 2.228 . S
Cd142 O146 2.273 . S
Cd142 O150 2.277 . S
O143 C140 1.160 . S
O143 Cd144 2.203 . S
Cd144 O143 2.203 . S
Cd144 O146 2.411 . S
Cd144 O147 2.332 1_545 S
Cd144 O148 2.352 1_545 S
Cd144 O152 2.277 . S
Cd144 O153 2.356 1_545 S
C145 O150 1.209 . S
C145 O152 1.226 . S
O146 Cd142 2.273 . S
O146 Cd144 2.411 . S
O146 C149 1.320 . S
O147 Cd144 2.332 1_565 S
O147 C149 1.213 1_565 S
O148 Cd144 2.352 1_565 S
O148 C151 1.258 . S
C149 O146 1.320 . S
C149 O147 1.213 1_545 S
O150 Cd142 2.277 . S
O150 C145 1.209 . S
C151 O148 1.258 . S
C151 O153 1.282 . S
O152 Cd144 2.277 . S
O152 C145 1.226 . S
O153 Cd144 2.356 1_565 S
O153 C151 1.282 . S
C154 O155 1.306 . S
C154 O157 1.160 . S
O155 C154 1.306 . S
O155 Cd156 2.228 1_554 S
Cd156 O155 2.228 1_556 S
Cd156 O160 2.273 1_556 S
Cd156 O164 2.277 . S
O157 C154 1.160 . S
O157 Cd158 2.203 . S
Cd158 O157 2.203 . S
Cd158 O160 2.411 . S
Cd158 O161 2.333 . S
Cd158 O162 2.352 . S
Cd158 O166 2.277 1_554 S
Cd158 O167 2.356 . S
C159 O164 1.209 . S
C159 O166 1.226 . S
O160 Cd156 2.273 1_554 S
O160 Cd158 2.411 . S
O160 C163 1.320 . S
O161 Cd158 2.333 . S
O161 C163 1.214 . S
O162 Cd158 2.352 . S
O162 C165 1.258 . S
C163 O160 1.320 . S
C163 O161 1.214 . S
O164 Cd156 2.277 . S
O164 C159 1.209 . S
C165 O162 1.258 . S
C165 O167 1.282 . S
O166 Cd158 2.277 1_556 S
O166 C159 1.226 . S
O167 Cd158 2.356 . S
O167 C165 1.282 . S
C168 O169 1.306 . S
C168 O171 1.160 . S
O169 C168 1.306 . S
O169 Cd170 2.228 1_554 S
Cd170 O169 2.228 1_556 S
Cd170 O174 2.273 1_556 S
Cd170 O178 2.277 . S
O171 C168 1.160 . S
O171 Cd172 2.203 . S
Cd172 O171 2.203 . S
Cd172 O174 2.411 . S
Cd172 O175 2.333 . S
Cd172 O176 2.352 . S
Cd172 O180 2.277 1_554 S
Cd172 O181 2.356 . S
C173 O178 1.209 . S
C173 O180 1.226 . S
O174 Cd170 2.273 1_554 S
O174 Cd172 2.411 . S
O174 C177 1.320 . S
O175 Cd172 2.333 . S
O175 C177 1.214 . S
O176 Cd172 2.352 . S
O176 C179 1.258 . S
C177 O174 1.320 . S
C177 O175 1.214 . S
O178 Cd170 2.277 . S
O178 C173 1.209 . S
C179 O176 1.258 . S
C179 O181 1.282 . S
O180 Cd172 2.277 1_556 S
O180 C173 1.226 . S
O181 Cd172 2.356 . S
O181 C179 1.282 . S
C182 O183 1.306 . S
C182 O185 1.160 . S
O183 C182 1.306 . S
O183 Cd184 2.228 . S
Cd184 O183 2.228 . S
Cd184 O188 2.273 . S
Cd184 O192 2.277 . S
O185 C182 1.160 . S
O185 Cd186 2.203 . S
Cd186 O185 2.203 . S
Cd186 O188 2.411 . S
Cd186 O189 2.333 . S
Cd186 O190 2.352 1_554 S
Cd186 O194 2.277 . S
Cd186 O195 2.356 1_554 S
C187 O192 1.209 . S
C187 O194 1.226 . S
O188 Cd184 2.273 . S
O188 Cd186 2.411 . S
O188 C191 1.320 . S
O189 Cd186 2.333 . S
O189 C191 1.214 . S
O190 Cd186 2.352 1_556 S
O190 C193 1.258 . S
C191 O188 1.320 . S
C191 O189 1.214 . S
O192 Cd184 2.277 . S
O192 C187 1.209 . S
C193 O190 1.258 . S
C193 O195 1.282 . S
O194 Cd186 2.277 . S
O194 C187 1.226 . S
O195 Cd186 2.356 1_556 S
O195 C193 1.282 . S
C196 O197 1.306 . S
C196 O199 1.160 . S
O197 C196 1.306 . S
O197 Cd198 2.228 . S
Cd198 O197 2.228 . S
Cd198 O202 2.273 . S
Cd198 O206 2.277 . S
O199 C196 1.160 . S
O199 Cd200 2.203 . S
Cd200 O199 2.203 . S
Cd200 O202 2.411 . S
Cd200 O203 2.333 . S
Cd200 O204 2.352 . S
Cd200 O208 2.277 . S
Cd200 O209 2.356 . S
C201 O206 1.209 . S
C201 O208 1.226 . S
O202 Cd198 2.273 . S
O202 Cd200 2.411 . S
O202 C205 1.320 . S
O203 Cd200 2.333 . S
O203 C205 1.214 . S
O204 Cd200 2.352 . S
O204 C207 1.258 . S
C205 O202 1.320 . S
C205 O203 1.214 . S
O206 Cd198 2.277 . S
O206 C201 1.209 . S
C207 O204 1.258 . S
C207 O209 1.282 . S
O208 Cd200 2.277 . S
O208 C201 1.226 . S
O209 Cd200 2.356 . S
O209 C207 1.282 . S
C210 O211 1.306 . S
C210 O213 1.160 . S
O211 C210 1.306 . S
O211 Cd212 2.228 . S
Cd212 O211 2.228 . S
Cd212 O216 2.273 . S
Cd212 O220 2.277 . S
O213 C210 1.160 . S
O213 Cd214 2.203 . S
Cd214 O213 2.203 . S
Cd214 O216 2.411 . S
Cd214 O217 2.333 . S
Cd214 O218 2.352 . S
Cd214 O222 2.277 . S
Cd214 O223 2.356 . S
C215 O220 1.209 . S
C215 O222 1.226 . S
O216 Cd212 2.273 . S
O216 Cd214 2.411 . S
O216 C219 1.320 . S
O217 Cd214 2.333 . S
O217 C219 1.214 . S
O218 Cd214 2.352 . S
O218 C221 1.258 . S
C219 O216 1.320 . S
C219 O217 1.214 . S
O220 Cd212 2.277 . S
O220 C215 1.209 . S
C221 O218 1.258 . S
C221 O223 1.282 . S
O222 Cd214 2.277 . S
O222 C215 1.226 . S
O223 Cd214 2.356 . S
O223 C221 1.282 . S
C224 O225 1.306 . S
C224 O227 1.160 . S
O225 C224 1.306 . S
O225 Cd226 2.228 . S
Cd226 O225 2.228 . S
Cd226 O230 2.273 . S
Cd226 O234 2.277 . S
O227 C224 1.160 . S
O227 Cd228 2.203 . S
Cd228 O227 2.203 . S
Cd228 O230 2.411 . S
Cd228 O231 2.333 . S
Cd228 O232 2.352 . S
Cd228 O236 2.277 . S
Cd228 O237 2.356 . S
C229 O234 1.209 . S
C229 O236 1.226 . S
O230 Cd226 2.273 . S
O230 Cd228 2.411 . S
O230 C233 1.320 . S
O231 Cd228 2.333 . S
O231 C233 1.214 . S
O232 Cd228 2.352 . S
O232 C235 1.258 . S
C233 O230 1.320 . S
C233 O231 1.214 . S
O234 Cd226 2.277 . S
O234 C229 1.209 . S
C235 O232 1.258 . S
C235 O237 1.282 . S
O236 Cd228 2.277 . S
O236 C229 1.226 . S
O237 Cd228 2.356 . S
O237 C235 1.282 . S
C238 O239 1.306 . S
C238 O241 1.160 . S
O239 C238 1.306 . S
O239 Cd240 2.228 . S
Cd240 O239 2.228 . S
Cd240 O244 2.273 . S
Cd240 O248 2.277 . S
O241 C238 1.160 . S
O241 Cd242 2.203 . S
Cd242 O241 2.203 . S
Cd242 O244 2.411 . S
Cd242 O245 2.333 . S
Cd242 O246 2.352 . S
Cd242 O250 2.277 . S
Cd242 O251 2.356 . S
C243 O248 1.209 . S
C243 O250 1.226 . S
O244 Cd240 2.273 . S
O244 Cd242 2.411 . S
O244 C247 1.320 . S
O245 Cd242 2.333 . S
O245 C247 1.214 . S
O246 Cd242 2.352 . S
O246 C249 1.258 . S
C247 O244 1.320 . S
C247 O245 1.214 . S
O248 Cd240 2.277 . S
O248 C243 1.209 . S
C249 O246 1.258 . S
C249 O251 1.282 . S
O250 Cd242 2.277 . S
O250 C243 1.226 . S
O251 Cd242 2.356 . S
O251 C249 1.282 . S
C252 O253 1.306 . S
C252 O255 1.160 . S
O253 C252 1.306 . S
O253 Cd254 2.228 . S
Cd254 O253 2.228 . S
Cd254 O258 2.273 . S
Cd254 O262 2.277 . S
O255 C252 1.160 . S
O255 Cd256 2.203 . S
Cd256 O255 2.203 . S
Cd256 O258 2.411 . S
Cd256 O259 2.333 . S
Cd256 O260 2.352 . S
Cd256 O264 2.277 . S
Cd256 O265 2.356 . S
C257 O262 1.209 . S
C257 O264 1.226 . S
O258 Cd254 2.273 . S
O258 Cd256 2.411 . S
O258 C261 1.320 . S
O259 Cd256 2.333 . S
O259 C261 1.214 . S
O260 Cd256 2.352 . S
O260 C263 1.258 . S
C261 O258 1.320 . S
C261 O259 1.214 . S
O262 Cd254 2.277 . S
O262 C257 1.209 . S
C263 O260 1.258 . S
C263 O265 1.282 . S
O264 Cd256 2.277 . S
O264 C257 1.226 . S
O265 Cd256 2.356 . S
O265 C263 1.282 . S
C266 O267 1.306 . S
C266 O269 1.160 . S
O267 C266 1.306 . S
O267 Cd268 2.228 . S
Cd268 O267 2.228 . S
Cd268 O272 2.273 . S
Cd268 O276 2.277 . S
O269 C266 1.160 . S
O269 Cd270 2.203 . S
Cd270 O269 2.203 . S
Cd270 O272 2.411 . S
Cd270 O273 2.333 . S
Cd270 O274 2.352 . S
Cd270 O278 2.277 . S
Cd270 O279 2.356 . S
C271 O276 1.209 . S
C271 O278 1.226 . S
O272 Cd268 2.273 . S
O272 Cd270 2.411 . S
O272 C275 1.320 . S
O273 Cd270 2.333 . S
O273 C275 1.214 . S
O274 Cd270 2.352 . S
O274 C277 1.258 . S
C275 O272 1.320 . S
C275 O273 1.214 . S
O276 Cd268 2.277 . S
O276 C271 1.209 . S
C277 O274 1.258 . S
C277 O279 1.282 . S
O278 Cd270 2.277 . S
O278 C271 1.226 . S
O279 Cd270 2.356 . S
O279 C277 1.282 . S
C280 O281 1.306 . S
C280 O283 1.160 . S
O281 C280 1.306 . S
O281 Cd282 2.228 . S
Cd282 O281 2.228 . S
Cd282 O286 2.273 . S
Cd282 O290 2.277 . S
O283 C280 1.160 . S
O283 Cd284 2.203 . S
Cd284 O283 2.203 . S
Cd284 O286 2.411 . S
Cd284 O287 2.333 . S
Cd284 O288 2.352 1_554 S
Cd284 O292 2.277 . S
Cd284 O293 2.356 1_554 S
C285 O290 1.209 . S
C285 O292 1.226 . S
O286 Cd282 2.273 . S
O286 Cd284 2.411 . S
O286 C289 1.320 . S
O287 Cd284 2.333 . S
O287 C289 1.214 . S
O288 Cd284 2.352 1_556 S
O288 C291 1.258 . S
C289 O286 1.320 . S
C289 O287 1.214 . S
O290 Cd282 2.277 . S
O290 C285 1.209 . S
C291 O288 1.258 . S
C291 O293 1.282 . S
O292 Cd284 2.277 . S
O292 C285 1.226 . S
O293 Cd284 2.356 1_556 S
O293 C291 1.282 . S
C294 O295 1.306 . S
C294 O297 1.160 . S
O295 C294 1.306 . S
O295 Cd296 2.228 . S
Cd296 O295 2.228 . S
Cd296 O300 2.273 . S
Cd296 O304 2.277 . S
O297 C294 1.160 . S
O297 Cd298 2.203 . S
Cd298 O297 2.203 . S
Cd298 O300 2.411 . S
Cd298 O301 2.333 . S
Cd298 O302 2.352 . S
Cd298 O306 2.277 . S
Cd298 O307 2.356 . S
C299 O304 1.209 . S
C299 O306 1.226 . S
O300 Cd296 2.273 . S
O300 Cd298 2.411 . S
O300 C303 1.320 . S
O301 Cd298 2.333 . S
O301 C303 1.214 . S
O302 Cd298 2.352 . S
O302 C305 1.258 . S
C303 O300 1.320 . S
C303 O301 1.214 . S
O304 Cd296 2.277 . S
O304 C299 1.209 . S
C305 O302 1.258 . S
C305 O307 1.282 . S
O306 Cd298 2.277 . S
O306 C299 1.226 . S
O307 Cd298 2.356 . S
O307 C305 1.282 . S
C308 O309 1.306 . S
C308 O311 1.160 . S
O309 C308 1.306 . S
O309 Cd310 2.228 . S
Cd310 O309 2.228 . S
Cd310 O314 2.273 . S
Cd310 O318 2.277 . S
O311 C308 1.160 . S
O311 Cd312 2.203 . S
Cd312 O311 2.203 . S
Cd312 O314 2.411 . S
Cd312 O315 2.333 . S
Cd312 O316 2.352 . S
Cd312 O320 2.277 . S
Cd312 O321 2.356 . S
C313 O318 1.209 . S
C313 O320 1.226 . S
O314 Cd310 2.273 . S
O314 Cd312 2.411 . S
O314 C317 1.320 . S
O315 Cd312 2.333 . S
O315 C317 1.214 . S
O316 Cd312 2.352 . S
O316 C319 1.258 . S
C317 O314 1.320 . S
C317 O315 1.214 . S
O318 Cd310 2.277 . S
O318 C313 1.209 . S
C319 O316 1.258 . S
C319 O321 1.282 . S
O320 Cd312 2.277 . S
O320 C313 1.226 . S
O321 Cd312 2.356 . S
O321 C319 1.282 . S
C322 O323 1.306 . S
C322 O325 1.160 . S
O323 C322 1.306 . S
O323 Cd324 2.228 . S
Cd324 O323 2.228 . S
Cd324 O328 2.273 . S
Cd324 O332 2.277 . S
O325 C322 1.160 . S
O325 Cd326 2.203 . S
Cd326 O325 2.203 . S
Cd326 O328 2.411 . S
Cd326 O329 2.333 . S
Cd326 O330 2.352 . S
Cd326 O334 2.277 . S
Cd326 O335 2.356 . S
C327 O332 1.209 . S
C327 O334 1.226 . S
O328 Cd324 2.273 . S
O328 Cd326 2.411 . S
O328 C331 1.320 . S
O329 Cd326 2.333 . S
O329 C331 1.214 . S
O330 Cd326 2.352 . S
O330 C333 1.258 . S
C331 O328 1.320 . S
C331 O329 1.214 . S
O332 Cd324 2.277 . S
O332 C327 1.209 . S
C333 O330 1.258 . S
C333 O335 1.282 . S
O334 Cd326 2.277 . S
O334 C327 1.226 . S
O335 Cd326 2.356 . S
O335 C333 1.282 . S
Eu336 C345 2.828 . S
Eu336 O347 2.392 . S
Eu336 O349 2.418 . S
Eu336 O354 2.373 . S
Eu336 O357 2.488 . S
Eu336 O358 2.471 1_554 S
Eu336 O359 2.349 1_554 S
Eu337 O346 2.373 . S
Eu337 O350 2.487 1_544 S
Eu337 O351 2.471 1_545 S
Eu337 O352 2.349 . S
Eu337 O355 2.392 1_554 S
Eu337 O356 2.418 1_554 S
Eu337 C366 2.828 1_545 S
C338 O356 1.244 . S
C338 O359 1.265 . S
C339 C340 1.379 1_554 S
C339 C343 1.373 . S
C339 C345 1.505 . S
C340 C339 1.379 1_556 S
C340 C342 1.369 . S
C340 H368 0.930 . S
C341 C343 1.383 . S
C341 C344 1.382 1_554 S
C341 H369 0.930 . S
C342 C340 1.369 . S
C342 C344 1.392 . S
C342 H370 0.930 . S
C343 C339 1.373 . S
C343 C341 1.383 . S
C343 H371 0.931 . S
C344 C341 1.382 1_556 S
C344 C342 1.392 . S
C345 Eu336 2.828 . S
C345 C339 1.505 . S
C345 O357 1.249 . S
C345 O358 1.244 1_554 S
O346 Eu337 2.373 . S
O346 C348 1.258 . S
O347 Eu336 2.392 . S
O347 C348 1.242 . S
C348 O346 1.258 . S
C348 O347 1.242 . S
O349 Eu336 2.418 . S
O349 C353 1.244 . S
O350 Eu337 2.487 1_566 S
O350 C366 1.216 1_556 S
O351 Eu337 2.471 1_565 S
O351 C366 1.244 . S
O352 Eu337 2.349 . S
O352 C353 1.265 . S
C353 O349 1.244 . S
C353 O352 1.265 . S
O354 Eu336 2.373 . S
O354 C367 1.258 . S
O355 Eu337 2.392 1_556 S
O355 C367 1.242 1_556 S
O356 Eu337 2.418 1_556 S
O356 C338 1.244 . S
O357 Eu336 2.488 . S
O357 C345 1.249 . S
O358 Eu336 2.471 1_556 S
O358 C345 1.244 1_556 S
O359 Eu336 2.349 1_556 S
O359 C338 1.265 . S
C360 C361 1.379 . S
C360 C364 1.373 . S
C360 C366 1.505 . S
C361 C360 1.379 . S
C361 C363 1.369 . S
C361 H372 0.930 . S
C362 C364 1.383 . S
C362 C365 1.382 . S
C362 H373 0.930 . S
C363 C361 1.369 . S
C363 C365 1.392 . S
C363 H374 0.930 . S
C364 C360 1.373 . S
C364 C362 1.383 . S
C364 H375 0.931 1_554 S
C365 C362 1.382 . S
C365 C363 1.392 . S
C366 Eu337 2.828 1_565 S
C366 O350 1.216 1_554 S
C366 O351 1.244 . S
C366 C360 1.505 . S
C367 O354 1.258 . S
C367 O355 1.242 1_554 S
H368 C340 0.930 . S
H369 C341 0.930 . S
H370 C342 0.930 . S
H371 C343 0.931 . S
H372 C361 0.930 . S
H373 C362 0.930 . S
H374 C363 0.930 . S
H375 C364 0.931 1_556 S
Eu376 C385 2.828 . S
Eu376 O387 2.392 . S
Eu376 O389 2.418 . S
Eu376 O394 2.373 . S
Eu376 O397 2.488 . S
Eu376 O398 2.471 . S
Eu376 O399 2.349 . S
Eu377 O386 2.373 . S
Eu377 O390 2.488 . S
Eu377 O391 2.471 . S
Eu377 O392 2.349 . S
Eu377 O395 2.392 . S
Eu377 O396 2.418 . S
Eu377 C406 2.828 . S
C378 O396 1.244 . S
C378 O399 1.265 . S
C379 C380 1.379 . S
C379 C383 1.373 . S
C379 C385 1.505 . S
C380 C379 1.379 . S
C380 C382 1.369 . S
C380 H408 0.930 . S
C381 C383 1.383 . S
C381 C384 1.382 . S
C381 H409 0.930 . S
C382 C380 1.369 . S
C382 C384 1.392 . S
C382 H410 0.930 . S
C383 C379 1.373 . S
C383 C381 1.383 . S
C383 H411 0.931 . S
C384 C381 1.382 . S
C384 C382 1.392 . S
C385 Eu376 2.828 . S
C385 C379 1.505 . S
C385 O397 1.249 . S
C385 O398 1.244 . S
O386 Eu377 2.373 . S
O386 C388 1.258 . S
O387 Eu376 2.392 . S
O387 C388 1.242 . S
C388 O386 1.258 . S
C388 O387 1.242 . S
O389 Eu376 2.418 . S
O389 C393 1.244 . S
O390 Eu377 2.488 . S
O390 C406 1.249 . S
O391 Eu377 2.471 . S
O391 C406 1.244 . S
O392 Eu377 2.349 . S
O392 C393 1.265 . S
C393 O389 1.244 . S
C393 O392 1.265 . S
O394 Eu376 2.373 . S
O394 C407 1.258 . S
O395 Eu377 2.392 . S
O395 C407 1.242 . S
O396 Eu377 2.418 . S
O396 C378 1.244 . S
O397 Eu376 2.488 . S
O397 C385 1.249 . S
O398 Eu376 2.471 . S
O398 C385 1.244 . S
O399 Eu376 2.349 . S
O399 C378 1.265 . S
C400 C401 1.379 . S
C400 C404 1.373 . S
C400 C406 1.505 . S
C401 C400 1.379 . S
C401 C403 1.369 . S
C401 H412 0.930 . S
C402 C404 1.383 . S
C402 C405 1.382 . S
C402 H413 0.930 . S
C403 C401 1.369 . S
C403 C405 1.392 . S
C403 H414 0.930 . S
C404 C400 1.373 . S
C404 C402 1.383 . S
C404 H415 0.931 . S
C405 C402 1.382 . S
C405 C403 1.392 . S
C406 Eu377 2.828 . S
C406 O390 1.249 . S
C406 O391 1.244 . S
C406 C400 1.505 . S
C407 O394 1.258 . S
C407 O395 1.242 . S
H408 C380 0.930 . S
H409 C381 0.930 . S
H410 C382 0.930 . S
H411 C383 0.931 . S
H412 C401 0.930 . S
H413 C402 0.930 . S
H414 C403 0.930 . S
H415 C404 0.931 . S
Eu416 C425 2.828 . S
Eu416 O427 2.392 . S
Eu416 O429 2.418 . S
Eu416 O434 2.324 1_545 S
Eu416 O437 2.488 . S
Eu416 O438 2.471 . S
Eu416 O439 2.349 . S
Eu417 O426 2.373 . S
Eu417 O430 2.488 . S
Eu417 O431 2.471 . S
Eu417 O432 2.349 . S
Eu417 O435 2.392 1_545 S
Eu417 O436 2.418 . S
Eu417 C446 2.828 . S
C418 O436 1.244 . S
C418 O439 1.265 . S
C419 C420 1.379 . S
C419 C423 1.373 . S
C419 C425 1.505 1_565 S
C420 C419 1.379 . S
C420 C422 1.369 . S
C420 H448 0.930 . S
C421 C423 1.383 . S
C421 C424 1.382 . S
C421 H449 0.930 . S
C422 C420 1.369 . S
C422 C424 1.392 . S
C422 H450 0.930 . S
C423 C419 1.373 . S
C423 C421 1.383 . S
C423 H451 0.931 1_565 S
C424 C421 1.382 . S
C424 C422 1.392 . S
C425 Eu416 2.828 . S
C425 C419 1.505 1_545 S
C425 O437 1.249 . S
C425 O438 1.244 . S
O426 Eu417 2.373 . S
O426 C428 1.258 . S
O427 Eu416 2.392 . S
O427 C428 1.242 . S
C428 O426 1.258 . S
C428 O427 1.242 . S
O429 Eu416 2.418 . S
O429 C433 1.244 . S
O430 Eu417 2.488 . S
O430 C446 1.249 . S
O431 Eu417 2.471 . S
O431 C446 1.244 . S
O432 Eu417 2.349 . S
O432 C433 1.265 . S
C433 O429 1.244 . S
C433 O432 1.265 . S
O434 Eu416 2.324 1_565 S
O434 C447 1.289 . S
O435 Eu417 2.392 1_565 S
O435 C447 1.242 . S
O436 Eu417 2.418 . S
O436 C418 1.244 . S
O437 Eu416 2.488 . S
O437 C425 1.249 . S
O438 Eu416 2.471 . S
O438 C425 1.244 . S
O439 Eu416 2.349 . S
O439 C418 1.265 . S
C440 C441 1.379 . S
C440 C444 1.373 . S
C440 C446 1.505 . S
C441 C440 1.379 . S
C441 C443 1.369 . S
C441 H452 0.930 . S
C442 C444 1.383 . S
C442 C445 1.382 . S
C442 H453 0.930 . S
C443 C441 1.369 . S
C443 C445 1.392 . S
C443 H454 0.930 . S
C444 C440 1.373 . S
C444 C442 1.383 . S
C444 H455 0.931 . S
C445 C442 1.382 . S
C445 C443 1.392 . S
C446 Eu417 2.828 . S
C446 O430 1.249 . S
C446 O431 1.244 . S
C446 C440 1.505 . S
C447 O434 1.289 . S
C447 O435 1.242 . S
H448 C420 0.930 . S
H449 C421 0.930 . S
H450 C422 0.930 . S
H451 C423 0.931 1_545 S
H452 C441 0.930 . S
H453 C442 0.930 . S
H454 C443 0.930 . S
H455 C444 0.931 . S
Eu456 C465 2.828 . S
Eu456 O467 2.392 . S
Eu456 O469 2.418 . S
Eu456 O474 2.373 . S
Eu456 O477 2.488 . S
Eu456 O478 2.471 . S
Eu456 O479 2.349 . S
Eu457 O466 2.373 . S
Eu457 O470 2.488 . S
Eu457 O471 2.471 . S
Eu457 O472 2.349 . S
Eu457 O475 2.392 . S
Eu457 O476 2.418 . S
Eu457 C486 2.828 . S
C458 O476 1.244 . S
C458 O479 1.265 . S
C459 C460 1.379 . S
C459 C463 1.373 . S
C459 C465 1.505 . S
C460 C459 1.379 . S
C460 C462 1.369 . S
C460 H488 0.930 . S
C461 C463 1.383 . S
C461 C464 1.382 . S
C461 H489 0.930 . S
C462 C460 1.369 . S
C462 C464 1.392 . S
C462 H490 0.930 . S
C463 C459 1.373 . S
C463 C461 1.383 . S
C463 H491 0.931 . S
C464 C461 1.382 . S
C464 C462 1.392 . S
C465 Eu456 2.828 . S
C465 C459 1.505 . S
C465 O477 1.249 . S
C465 O478 1.244 . S
O466 Eu457 2.373 . S
O466 C468 1.258 . S
O467 Eu456 2.392 . S
O467 C468 1.242 . S
C468 O466 1.258 . S
C468 O467 1.242 . S
O469 Eu456 2.418 . S
O469 C473 1.244 . S
O470 Eu457 2.488 . S
O470 C486 1.249 . S
O471 Eu457 2.471 . S
O471 C486 1.244 . S
O472 Eu457 2.349 . S
O472 C473 1.265 . S
C473 O469 1.244 . S
C473 O472 1.265 . S
O474 Eu456 2.373 . S
O474 C487 1.258 . S
O475 Eu457 2.392 . S
O475 C487 1.242 . S
O476 Eu457 2.418 . S
O476 C458 1.244 . S
O477 Eu456 2.488 . S
O477 C465 1.249 . S
O478 Eu456 2.471 . S
O478 C465 1.244 . S
O479 Eu456 2.349 . S
O479 C458 1.265 . S
C480 C481 1.379 . S
C480 C484 1.373 . S
C480 C486 1.505 . S
C481 C480 1.379 . S
C481 C483 1.369 . S
C481 H492 0.930 . S
C482 C484 1.383 . S
C482 C485 1.382 . S
C482 H493 0.930 . S
C483 C481 1.369 . S
C483 C485 1.392 . S
C483 H494 0.930 . S
C484 C480 1.373 . S
C484 C482 1.383 . S
C484 H495 0.931 . S
C485 C482 1.382 . S
C485 C483 1.392 . S
C486 Eu457 2.828 . S
C486 O470 1.249 . S
C486 O471 1.244 . S
C486 C480 1.505 . S
C487 O474 1.258 . S
C487 O475 1.242 . S
H488 C460 0.930 . S
H489 C461 0.930 . S
H490 C462 0.930 . S
H491 C463 0.931 . S
H492 C481 0.930 . S
H493 C482 0.930 . S
H494 C483 0.930 . S
H495 C484 0.931 . S
Eu496 C505 2.828 . S
Eu496 O507 2.392 . S
Eu496 O509 2.418 . S
Eu496 O514 2.373 . S
Eu496 O517 2.488 . S
Eu496 O518 2.471 . S
Eu496 O519 2.349 . S
Eu497 O506 2.373 . S
Eu497 O510 2.488 1_545 S
Eu497 O511 2.471 1_545 S
Eu497 O512 2.349 . S
Eu497 O515 2.392 . S
Eu497 O516 2.418 . S
Eu497 C526 2.828 1_545 S
C498 O516 1.244 . S
C498 O519 1.265 . S
C499 C500 1.379 . S
C499 C503 1.373 . S
C499 C505 1.505 . S
C500 C499 1.379 . S
C500 C502 1.369 . S
C500 H528 0.930 . S
C501 C503 1.383 . S
C501 C504 1.382 . S
C501 H529 0.930 1_455 S
C502 C500 1.369 . S
C502 C504 1.392 . S
C502 H530 0.930 . S
C503 C499 1.373 . S
C503 C501 1.383 . S
C503 H531 0.956 . S
C504 C501 1.382 . S
C504 C502 1.392 . S
C505 Eu496 2.828 . S
C505 C499 1.505 . S
C505 O517 1.249 . S
C505 O518 1.244 . S
O506 Eu497 2.373 . S
O506 C508 1.258 . S
O507 Eu496 2.392 . S
O507 C508 1.242 . S
C508 O506 1.258 . S
C508 O507 1.242 . S
O509 Eu496 2.418 . S
O509 C513 1.244 . S
O510 Eu497 2.488 1_565 S
O510 C526 1.249 . S
O511 Eu497 2.471 1_565 S
O511 C526 1.244 . S
O512 Eu497 2.349 . S
O512 C513 1.265 . S
C513 O509 1.244 . S
C513 O512 1.265 . S
O514 Eu496 2.373 . S
O514 C527 1.258 . S
O515 Eu497 2.392 . S
O515 C527 1.242 . S
O516 Eu497 2.418 . S
O516 C498 1.244 . S
O517 Eu496 2.488 . S
O517 C505 1.249 . S
O518 Eu496 2.471 . S
O518 C505 1.244 . S
O519 Eu496 2.349 . S
O519 C498 1.265 . S
C520 C521 1.379 . S
C520 C524 1.373 . S
C520 C526 1.505 . S
C521 C520 1.379 . S
C521 C523 1.369 . S
C521 H532 0.930 . S
C522 C524 1.383 . S
C522 C525 1.382 . S
C522 H533 0.930 . S
C523 C521 1.369 . S
C523 C525 1.392 . S
C523 H534 0.930 . S
C524 C520 1.373 . S
C524 C522 1.383 . S
C524 H535 0.931 . S
C525 C522 1.382 . S
C525 C523 1.392 . S
C526 Eu497 2.828 1_565 S
C526 O510 1.249 . S
C526 O511 1.244 . S
C526 C520 1.505 . S
C527 O514 1.258 . S
C527 O515 1.242 . S
H528 C500 0.930 . S
H529 C501 0.930 1_655 S
H530 C502 0.930 . S
H531 C503 0.956 . S
H532 C521 0.930 . S
H533 C522 0.930 . S
H534 C523 0.930 . S
H535 C524 0.931 . S
Eu536 C545 2.828 . S
Eu536 O547 2.392 . S
Eu536 O549 2.418 . S
Eu536 O554 2.373 . S
Eu536 O557 2.488 . S
Eu536 O558 2.471 . S
Eu536 O559 2.349 . S
Eu537 O546 2.373 . S
Eu537 O550 2.488 . S
Eu537 O551 2.471 . S
Eu537 O552 2.349 . S
Eu537 O555 2.392 . S
Eu537 O556 2.418 . S
Eu537 C566 2.828 . S
C538 O556 1.244 . S
C538 O559 1.265 . S
C539 C540 1.379 . S
C539 C543 1.373 . S
C539 C545 1.505 . S
C540 C539 1.379 . S
C540 C542 1.369 . S
C540 H568 0.930 . S
C541 C543 1.383 . S
C541 C544 1.382 . S
C541 H569 0.930 . S
C542 C540 1.369 . S
C542 C544 1.392 . S
C542 H570 0.930 . S
C543 C539 1.373 . S
C543 C541 1.383 . S
C543 H571 0.931 . S
C544 C541 1.382 . S
C544 C542 1.392 . S
C545 Eu536 2.828 . S
C545 C539 1.505 . S
C545 O557 1.249 . S
C545 O558 1.244 . S
O546 Eu537 2.373 . S
O546 C548 1.258 . S
O547 Eu536 2.392 . S
O547 C548 1.242 . S
C548 O546 1.258 . S
C548 O547 1.242 . S
O549 Eu536 2.418 . S
O549 C553 1.244 . S
O550 Eu537 2.488 . S
O550 C566 1.249 . S
O551 Eu537 2.471 . S
O551 C566 1.244 . S
O552 Eu537 2.349 . S
O552 C553 1.265 . S
C553 O549 1.244 . S
C553 O552 1.265 . S
O554 Eu536 2.373 . S
O554 C567 1.258 . S
O555 Eu537 2.392 . S
O555 C567 1.242 . S
O556 Eu537 2.418 . S
O556 C538 1.244 . S
O557 Eu536 2.488 . S
O557 C545 1.249 . S
O558 Eu536 2.471 . S
O558 C545 1.244 . S
O559 Eu536 2.349 . S
O559 C538 1.265 . S
C560 C561 1.379 . S
C560 C564 1.373 . S
C560 C566 1.505 . S
C561 C560 1.379 . S
C561 C563 1.369 . S
C561 H572 0.930 . S
C562 C564 1.383 . S
C562 C565 1.382 . S
C562 H573 0.930 . S
C563 C561 1.369 . S
C563 C565 1.392 . S
C563 H574 0.930 . S
C564 C560 1.373 . S
C564 C562 1.383 . S
C564 H575 0.931 . S
C565 C562 1.382 . S
C565 C563 1.392 . S
C566 Eu537 2.828 . S
C566 O550 1.249 . S
C566 O551 1.244 . S
C566 C560 1.505 . S
C567 O554 1.258 . S
C567 O555 1.242 . S
H568 C540 0.930 . S
H569 C541 0.930 . S
H570 C542 0.930 . S
H571 C543 0.931 . S
H572 C561 0.930 . S
H573 C562 0.930 . S
H574 C563 0.930 . S
H575 C564 0.931 . S
Eu576 C585 2.828 . S
Eu576 O587 2.392 . S
Eu576 O589 2.418 1_545 S
Eu576 O594 2.373 . S
Eu576 O597 2.488 . S
Eu576 O598 2.471 . S
Eu576 O599 2.349 . S
Eu577 O586 2.373 . S
Eu577 O590 2.488 . S
Eu577 O591 2.471 . S
Eu577 O592 2.349 . S
Eu577 O595 2.392 . S
Eu577 O596 2.418 1_556 S
Eu577 C606 2.828 . S
C578 O596 1.244 . S
C578 O599 1.265 . S
C579 C580 1.379 . S
C579 C583 1.373 1_545 S
C579 C585 1.505 . S
C580 C579 1.379 . S
C580 C582 1.369 . S
C580 H608 0.930 . S
C581 C583 1.383 . S
C581 C584 1.382 1_565 S
C581 H609 0.930 . S
C582 C580 1.369 . S
C582 C584 1.392 . S
C582 H610 0.930 . S
C583 C579 1.373 1_565 S
C583 C581 1.383 . S
C583 H611 0.931 . S
C584 C581 1.382 1_545 S
C584 C582 1.392 . S
C585 Eu576 2.828 . S
C585 C579 1.505 . S
C585 O597 1.249 . S
C585 O598 1.244 . S
O586 Eu577 2.373 . S
O586 C588 1.258 1_556 S
O587 Eu576 2.392 . S
O587 C588 1.242 . S
C588 O586 1.258 1_554 S
C588 O587 1.242 . S
O589 Eu576 2.418 1_565 S
O589 C593 1.265 . S
O590 Eu577 2.488 . S
O590 C606 1.249 . S
O591 Eu577 2.471 . S
O591 C606 1.244 . S
O592 Eu577 2.349 . S
O592 C593 1.257 1_546 S
C593 O589 1.265 . S
C593 O592 1.257 1_564 S
O594 Eu576 2.373 . S
O594 C607 1.258 . S
O595 Eu577 2.392 . S
O595 C607 1.242 1_556 S
O596 Eu577 2.418 1_554 S
O596 C578 1.244 . S
O597 Eu576 2.488 . S
O597 C585 1.249 . S
O598 Eu576 2.471 . S
O598 C585 1.244 . S
O599 Eu576 2.349 . S
O599 C578 1.265 . S
C600 C601 1.379 . S
C600 C604 1.373 . S
C600 C606 1.505 . S
C601 C600 1.379 . S
C601 C603 1.369 . S
C601 H612 0.930 . S
C602 C604 1.383 . S
C602 C605 1.382 . S
C602 H613 0.930 . S
C603 C601 1.369 . S
C603 C605 1.392 . S
C603 H614 0.930 . S
C604 C600 1.373 . S
C604 C602 1.383 . S
C604 H615 0.931 . S
C605 C602 1.382 . S
C605 C603 1.392 . S
C606 Eu577 2.828 . S
C606 O590 1.249 . S
C606 O591 1.244 . S
C606 C600 1.505 . S
C607 O594 1.258 . S
C607 O595 1.242 1_554 S
H608 C580 0.930 . S
H609 C581 0.930 . S
H610 C582 0.930 . S
H611 C583 0.931 . S
H612 C601 0.930 . S
H613 C602 0.930 . S
H614 C603 0.930 . S
H615 C604 0.931 . S
Eu616 C625 2.828 . S
Eu616 O627 2.392 . S
Eu616 O629 2.418 . S
Eu616 O634 2.373 . S
Eu616 O637 2.488 . S
Eu616 O638 2.471 . S
Eu616 O639 2.349 . S
Eu617 O626 2.373 . S
Eu617 O630 2.488 . S
Eu617 O631 2.471 . S
Eu617 O632 2.349 . S
Eu617 O635 2.392 . S
Eu617 O636 2.418 . S
Eu617 C646 2.828 . S
C618 O636 1.244 . S
C618 O639 1.265 . S
C619 C620 1.379 . S
C619 C623 1.373 . S
C619 C625 1.505 . S
C620 C619 1.379 . S
C620 C622 1.369 . S
C620 H648 0.930 . S
C621 C623 1.383 . S
C621 C624 1.382 . S
C621 H649 0.930 . S
C622 C620 1.369 . S
C622 C624 1.392 . S
C622 H650 0.930 . S
C623 C619 1.373 . S
C623 C621 1.383 . S
C623 H651 0.931 . S
C624 C621 1.382 . S
C624 C622 1.392 . S
C625 Eu616 2.828 . S
C625 C619 1.505 . S
C625 O637 1.249 . S
C625 O638 1.244 . S
O626 Eu617 2.373 . S
O626 C628 1.258 . S
O627 Eu616 2.392 . S
O627 C628 1.242 . S
C628 O626 1.258 . S
C628 O627 1.242 . S
O629 Eu616 2.418 . S
O629 C633 1.244 . S
O630 Eu617 2.488 . S
O630 C646 1.249 . S
O631 Eu617 2.471 . S
O631 C646 1.244 . S
O632 Eu617 2.349 . S
O632 C633 1.265 . S
C633 O629 1.244 . S
C633 O632 1.265 . S
O634 Eu616 2.373 . S
O634 C647 1.258 . S
O635 Eu617 2.392 . S
O635 C647 1.242 . S
O636 Eu617 2.418 . S
O636 C618 1.244 . S
O637 Eu616 2.488 . S
O637 C625 1.249 . S
O638 Eu616 2.471 . S
O638 C625 1.244 . S
O639 Eu616 2.349 . S
O639 C618 1.265 . S
C640 C641 1.379 . S
C640 C644 1.373 . S
C640 C646 1.505 . S
C641 C640 1.379 . S
C641 C643 1.369 . S
C641 H652 0.930 . S
C642 C644 1.383 . S
C642 C645 1.382 . S
C642 H653 0.930 . S
C643 C641 1.369 . S
C643 C645 1.392 . S
C643 H654 0.930 . S
C644 C640 1.373 . S
C644 C642 1.383 . S
C644 H655 0.931 . S
C645 C642 1.382 . S
C645 C643 1.392 . S
C646 Eu617 2.828 . S
C646 O630 1.249 . S
C646 O631 1.244 . S
C646 C640 1.505 . S
C647 O634 1.258 . S
C647 O635 1.242 . S
H648 C620 0.930 . S
H649 C621 0.930 . S
H650 C622 0.930 . S
H651 C623 0.931 . S
H652 C641 0.930 . S
H653 C642 0.930 . S
H654 C643 0.930 . S
H655 C644 0.931 . S
Eu656 C665 2.828 . S
Eu656 O667 2.392 . S
Eu656 O669 2.418 . S
Eu656 O674 2.373 1_554 S
Eu656 O677 2.488 . S
Eu656 O678 2.471 . S
Eu656 O679 2.349 . S
Eu657 O666 2.407 . S
Eu657 O670 2.502 . S
Eu657 O671 2.494 . S
Eu657 O672 2.361 . S
Eu657 O675 2.362 1_554 S
Eu657 O676 2.414 . S
Eu657 C686 2.849 . S
C658 O676 1.244 . S
C658 O679 1.265 . S
C659 C660 1.379 . S
C659 C663 1.373 . S
C659 C665 1.505 1_556 S
C660 C659 1.379 . S
C660 C662 1.369 . S
C660 H688 0.930 . S
C661 C663 1.383 . S
C661 C664 1.382 . S
C661 H689 0.930 . S
C662 C660 1.369 . S
C662 C664 1.392 . S
C662 H690 0.930 . S
C663 C659 1.373 . S
C663 C661 1.383 . S
C663 H691 0.931 1_556 S
C664 C661 1.382 . S
C664 C662 1.392 . S
C665 Eu656 2.828 . S
C665 C659 1.505 1_554 S
C665 O677 1.249 . S
C665 O678 1.244 . S
O666 Eu657 2.407 . S
O666 C668 1.258 . S
O667 Eu656 2.392 . S
O667 C668 1.242 . S
C668 O666 1.258 . S
C668 O667 1.242 . S
O669 Eu656 2.418 . S
O669 C673 1.244 . S
O670 Eu657 2.502 . S
O670 C686 1.249 . S
O671 Eu657 2.494 . S
O671 C686 1.244 . S
O672 Eu657 2.361 . S
O672 C673 1.265 . S
C673 O669 1.244 . S
C673 O672 1.265 . S
O674 Eu656 2.373 1_556 S
O674 C687 1.258 . S
O675 Eu657 2.362 1_556 S
O675 C687 1.242 . S
O676 Eu657 2.414 . S
O676 C658 1.244 . S
O677 Eu656 2.488 . S
O677 C665 1.249 . S
O678 Eu656 2.471 . S
O678 C665 1.244 . S
O679 Eu656 2.349 . S
O679 C658 1.265 . S
C680 C681 1.379 . S
C680 C684 1.373 . S
C680 C686 1.505 . S
C681 C680 1.379 . S
C681 C683 1.369 . S
C681 H692 0.930 . S
C682 C684 1.383 . S
C682 C685 1.382 . S
C682 H693 0.930 . S
C683 C681 1.369 . S
C683 C685 1.392 . S
C683 H694 0.930 . S
C684 C680 1.373 . S
C684 C682 1.383 . S
C684 H695 0.931 . S
C685 C682 1.382 . S
C685 C683 1.392 . S
C686 Eu657 2.849 . S
C686 O670 1.249 . S
C686 O671 1.244 . S
C686 C680 1.505 . S
C687 O674 1.258 . S
C687 O675 1.242 . S
H688 C660 0.930 . S
H689 C661 0.930 . S
H690 C662 0.930 . S
H691 C663 0.931 1_554 S
H692 C681 0.930 . S
H693 C682 0.930 . S
H694 C683 0.930 . S
H695 C684 0.931 . S
Eu696 C705 2.828 . S
Eu696 O707 2.392 . S
Eu696 O709 2.418 . S
Eu696 O714 2.373 . S
Eu696 O717 2.488 . S
Eu696 O718 2.471 . S
Eu696 O719 2.349 . S
Eu697 O706 2.373 . S
Eu697 O710 2.488 . S
Eu697 O711 2.471 . S
Eu697 O712 2.349 . S
Eu697 O715 2.392 . S
Eu697 O716 2.418 . S
Eu697 C726 2.828 . S
C698 O716 1.244 . S
C698 O719 1.265 . S
C699 C700 1.379 . S
C699 C703 1.373 . S
C699 C705 1.505 . S
C700 C699 1.379 . S
C700 C702 1.369 . S
C700 H728 0.930 . S
C701 C703 1.383 . S
C701 C704 1.382 . S
C701 H729 0.930 . S
C702 C700 1.369 . S
C702 C704 1.392 . S
C702 H730 0.930 . S
C703 C699 1.373 . S
C703 C701 1.383 . S
C703 H731 0.931 . S
C704 C701 1.382 . S
C704 C702 1.392 . S
C705 Eu696 2.828 . S
C705 C699 1.505 . S
C705 O717 1.249 . S
C705 O718 1.244 . S
O706 Eu697 2.373 . S
O706 C708 1.258 . S
O707 Eu696 2.392 . S
O707 C708 1.242 . S
C708 O706 1.258 . S
C708 O707 1.242 . S
O709 Eu696 2.418 . S
O709 C713 1.244 . S
O710 Eu697 2.488 . S
O710 C726 1.249 . S
O711 Eu697 2.471 . S
O711 C726 1.244 . S
O712 Eu697 2.349 . S
O712 C713 1.265 . S
C713 O709 1.244 . S
C713 O712 1.265 . S
O714 Eu696 2.373 . S
O714 C727 1.258 . S
O715 Eu697 2.392 . S
O715 C727 1.242 . S
O716 Eu697 2.418 . S
O716 C698 1.244 . S
O717 Eu696 2.488 . S
O717 C705 1.249 . S
O718 Eu696 2.471 . S
O718 C705 1.244 . S
O719 Eu696 2.349 . S
O719 C698 1.265 . S
C720 C721 1.379 . S
C720 C724 1.373 . S
C720 C726 1.505 . S
C721 C720 1.379 . S
C721 C723 1.369 . S
C721 H732 0.930 . S
C722 C724 1.383 . S
C722 C725 1.382 . S
C722 H733 0.930 . S
C723 C721 1.369 . S
C723 C725 1.392 . S
C723 H734 0.930 . S
C724 C720 1.373 . S
C724 C722 1.383 . S
C724 H735 0.931 . S
C725 C722 1.382 . S
C725 C723 1.392 . S
C726 Eu697 2.828 . S
C726 O710 1.249 . S
C726 O711 1.244 . S
C726 C720 1.505 . S
C727 O714 1.258 . S
C727 O715 1.242 . S
H728 C700 0.930 . S
H729 C701 0.930 . S
H730 C702 0.930 . S
H731 C703 0.931 . S
H732 C721 0.930 . S
H733 C722 0.930 . S
H734 C723 0.930 . S
H735 C724 0.931 . S
Eu736 C745 2.828 . S
Eu736 O747 2.392 . S
Eu736 O749 2.418 . S
Eu736 O754 2.373 . S
Eu736 O757 2.488 . S
Eu736 O758 2.471 . S
Eu736 O759 2.349 . S
Eu737 O746 2.373 . S
Eu737 O750 2.488 . S
Eu737 O751 2.471 . S
Eu737 O752 2.349 . S
Eu737 O755 2.392 . S
Eu737 O756 2.418 . S
Eu737 C766 2.828 . S
C738 O756 1.244 . S
C738 O759 1.265 . S
C739 C740 1.379 1_455 S
C739 C743 1.373 . S
C739 C745 1.505 . S
C740 C739 1.379 1_655 S
C740 C742 1.369 . S
C740 H768 0.930 . S
C741 C743 1.383 1_655 S
C741 C744 1.382 . S
C741 H769 0.940 . S
C742 C740 1.369 . S
C742 C744 1.392 . S
C742 H770 0.930 . S
C743 C739 1.373 . S
C743 C741 1.383 1_455 S
C743 H771 0.931 . S
C744 C741 1.382 . S
C744 C742 1.392 . S
C745 Eu736 2.828 . S
C745 C739 1.505 . S
C745 O757 1.249 . S
C745 O758 1.244 . S
O746 Eu737 2.373 . S
O746 C748 1.258 . S
O747 Eu736 2.392 . S
O747 C748 1.242 . S
C748 O746 1.258 . S
C748 O747 1.242 . S
O749 Eu736 2.418 . S
O749 C753 1.244 . S
O750 Eu737 2.488 . S
O750 C766 1.249 . S
O751 Eu737 2.471 . S
O751 C766 1.244 . S
O752 Eu737 2.349 . S
O752 C753 1.265 . S
C753 O749 1.244 . S
C753 O752 1.265 . S
O754 Eu736 2.373 . S
O754 C767 1.258 1_455 S
O755 Eu737 2.392 . S
O755 C767 1.242 1_455 S
O756 Eu737 2.418 . S
O756 C738 1.244 . S
O757 Eu736 2.488 . S
O757 C745 1.249 . S
O758 Eu736 2.471 . S
O758 C745 1.244 . S
O759 Eu736 2.349 . S
O759 C738 1.265 . S
C760 C761 1.379 . S
C760 C764 1.373 . S
C760 C766 1.505 . S
C761 C760 1.379 . S
C761 C763 1.369 . S
C761 H772 0.930 . S
C762 C764 1.383 . S
C762 C765 1.382 . S
C762 H773 0.930 . S
C763 C761 1.369 . S
C763 C765 1.392 . S
C763 H774 0.930 . S
C764 C760 1.373 . S
C764 C762 1.383 . S
C764 H775 0.931 . S
C765 C762 1.382 . S
C765 C763 1.392 . S
C766 Eu737 2.828 . S
C766 O750 1.249 . S
C766 O751 1.244 . S
C766 C760 1.505 . S
C767 O754 1.258 1_655 S
C767 O755 1.242 1_655 S
H768 C740 0.930 . S
H769 C741 0.940 . S
H770 C742 0.930 . S
H771 C743 0.931 . S
H772 C761 0.930 . S
H773 C762 0.930 . S
H774 C763 0.930 . S
H775 C764 0.931 . S
Eu776 C785 2.828 . S
Eu776 O787 2.392 . S
Eu776 O789 2.418 . S
Eu776 O794 2.373 . S
Eu776 O797 2.488 . S
Eu776 O798 2.471 . S
Eu776 O799 2.349 . S
Eu777 O786 2.373 . S
Eu777 O790 2.488 . S
Eu777 O791 2.471 . S
Eu777 O792 2.349 . S
Eu777 O795 2.392 . S
Eu777 O796 2.418 . S
Eu777 C806 2.828 . S
C778 O796 1.244 . S
C778 O799 1.265 . S
C779 C780 1.379 . S
C779 C783 1.373 . S
C779 C785 1.505 . S
C780 C779 1.379 . S
C780 C782 1.369 . S
C780 H808 0.930 . S
C781 C783 1.383 . S
C781 C784 1.382 . S
C781 H809 0.930 . S
C782 C780 1.369 . S
C782 C784 1.392 . S
C782 H810 0.930 . S
C783 C779 1.373 . S
C783 C781 1.383 . S
C783 H811 0.931 . S
C784 C781 1.382 . S
C784 C782 1.392 . S
C785 Eu776 2.828 . S
C785 C779 1.505 . S
C785 O797 1.249 . S
C785 O798 1.244 . S
O786 Eu777 2.373 . S
O786 C788 1.258 . S
O787 Eu776 2.392 . S
O787 C788 1.242 . S
C788 O786 1.258 . S
C788 O787 1.242 . S
O789 Eu776 2.418 . S
O789 C793 1.244 . S
O790 Eu777 2.488 . S
O790 C806 1.249 . S
O791 Eu777 2.471 . S
O791 C806 1.244 . S
O792 Eu777 2.349 . S
O792 C793 1.265 . S
C793 O789 1.244 . S
C793 O792 1.265 . S
O794 Eu776 2.373 . S
O794 C807 1.258 . S
O795 Eu777 2.392 . S
O795 C807 1.242 . S
O796 Eu777 2.418 . S
O796 C778 1.244 . S
O797 Eu776 2.488 . S
O797 C785 1.249 . S
O798 Eu776 2.471 . S
O798 C785 1.244 . S
O799 Eu776 2.349 . S
O799 C778 1.265 . S
C800 C801 1.379 . S
C800 C804 1.373 . S
C800 C806 1.505 . S
C801 C800 1.379 . S
C801 C803 1.369 . S
C801 H812 0.930 . S
C802 C804 1.383 . S
C802 C805 1.382 . S
C802 H813 0.930 . S
C803 C801 1.369 . S
C803 C805 1.392 . S
C803 H814 0.930 . S
C804 C800 1.373 . S
C804 C802 1.383 . S
C804 H815 0.931 . S
C805 C802 1.382 . S
C805 C803 1.392 . S
C806 Eu777 2.828 . S
C806 O790 1.249 . S
C806 O791 1.244 . S
C806 C800 1.505 . S
C807 O794 1.258 . S
C807 O795 1.242 . S
H808 C780 0.930 . S
H809 C781 0.930 . S
H810 C782 0.930 . S
H811 C783 0.931 . S
H812 C801 0.930 . S
H813 C802 0.930 . S
H814 C803 0.930 . S
H815 C804 0.931 . S
Eu816 C825 2.828 . S
Eu816 O827 2.392 . S
Eu816 O829 2.418 . S
Eu816 O834 2.373 . S
Eu816 O837 2.488 . S
Eu816 O838 2.471 . S
Eu816 O839 2.349 . S
Eu817 O826 2.373 . S
Eu817 O830 2.488 . S
Eu817 O831 2.471 . S
Eu817 O832 2.349 . S
Eu817 O835 2.392 . S
Eu817 O836 2.418 . S
Eu817 C846 2.828 . S
C818 O836 1.244 . S
C818 O839 1.265 . S
C819 C820 1.379 . S
C819 C823 1.373 . S
C819 C825 1.505 . S
C820 C819 1.379 . S
C820 C822 1.369 . S
C820 H848 0.930 . S
C821 C823 1.383 . S
C821 C824 1.382 . S
C821 H849 0.930 . S
C822 C820 1.369 . S
C822 C824 1.392 . S
C822 H850 0.930 . S
C823 C819 1.373 . S
C823 C821 1.383 . S
C823 H851 0.931 . S
C824 C821 1.382 . S
C824 C822 1.392 . S
C825 Eu816 2.828 . S
C825 C819 1.505 . S
C825 O837 1.249 . S
C825 O838 1.244 . S
O826 Eu817 2.373 . S
O826 C828 1.258 . S
O827 Eu816 2.392 . S
O827 C828 1.242 . S
C828 O826 1.258 . S
C828 O827 1.242 . S
O829 Eu816 2.418 . S
O829 C833 1.244 . S
O830 Eu817 2.488 . S
O830 C846 1.249 . S
O831 Eu817 2.471 . S
O831 C846 1.244 . S
O832 Eu817 2.349 . S
O832 C833 1.265 . S
C833 O829 1.244 . S
C833 O832 1.265 . S
O834 Eu816 2.373 . S
O834 C847 1.258 . S
O835 Eu817 2.392 . S
O835 C847 1.242 . S
O836 Eu817 2.418 . S
O836 C818 1.244 . S
O837 Eu816 2.488 . S
O837 C825 1.249 . S
O838 Eu816 2.471 . S
O838 C825 1.244 . S
O839 Eu816 2.349 . S
O839 C818 1.265 . S
C840 C841 1.379 . S
C840 C844 1.373 . S
C840 C846 1.505 . S
C841 C840 1.379 . S
C841 C843 1.369 . S
C841 H852 0.930 . S
C842 C844 1.383 . S
C842 C845 1.382 . S
C842 H853 0.930 . S
C843 C841 1.369 . S
C843 C845 1.392 . S
C843 H854 0.930 . S
C844 C840 1.373 . S
C844 C842 1.383 . S
C844 H855 0.931 . S
C845 C842 1.382 . S
C845 C843 1.392 . S
C846 Eu817 2.828 . S
C846 O830 1.249 . S
C846 O831 1.244 . S
C846 C840 1.505 . S
C847 O834 1.258 . S
C847 O835 1.242 . S
H848 C820 0.930 . S
H849 C821 0.930 . S
H850 C822 0.930 . S
H851 C823 0.931 . S
H852 C841 0.930 . S
H853 C842 0.930 . S
H854 C843 0.930 . S
H855 C844 0.931 . S
Eu856 C865 2.828 . S
Eu856 O867 2.392 . S
Eu856 O869 2.418 . S
Eu856 O874 2.373 . S
Eu856 O877 2.488 . S
Eu856 O878 2.471 . S
Eu856 O879 2.349 . S
Eu857 O866 2.373 . S
Eu857 O870 2.488 . S
Eu857 O871 2.471 . S
Eu857 O872 2.349 . S
Eu857 O875 2.392 . S
Eu857 O876 2.418 . S
Eu857 C886 2.828 . S
C858 O876 1.244 . S
C858 O879 1.265 . S
C859 C860 1.379 . S
C859 C863 1.373 . S
C859 C865 1.505 . S
C860 C859 1.379 . S
C860 C862 1.369 . S
C860 H888 0.930 . S
C861 C863 1.383 . S
C861 C864 1.382 . S
C861 H889 0.930 . S
C862 C860 1.369 . S
C862 C864 1.392 . S
C862 H890 0.930 . S
C863 C859 1.373 . S
C863 C861 1.383 . S
C863 H891 0.931 . S
C864 C861 1.382 . S
C864 C862 1.392 . S
C865 Eu856 2.828 . S
C865 C859 1.505 . S
C865 O877 1.249 . S
C865 O878 1.244 . S
O866 Eu857 2.373 . S
O866 C868 1.258 . S
O867 Eu856 2.392 . S
O867 C868 1.242 . S
C868 O866 1.258 . S
C868 O867 1.242 . S
O869 Eu856 2.418 . S
O869 C873 1.244 . S
O870 Eu857 2.488 . S
O870 C886 1.249 . S
O871 Eu857 2.471 . S
O871 C886 1.244 . S
O872 Eu857 2.349 . S
O872 C873 1.265 . S
C873 O869 1.244 . S
C873 O872 1.265 . S
O874 Eu856 2.373 . S
O874 C887 1.258 . S
O875 Eu857 2.392 . S
O875 C887 1.242 . S
O876 Eu857 2.418 . S
O876 C858 1.244 . S
O877 Eu856 2.488 . S
O877 C865 1.249 . S
O878 Eu856 2.471 . S
O878 C865 1.244 . S
O879 Eu856 2.349 . S
O879 C858 1.265 . S
C880 C881 1.379 . S
C880 C884 1.373 . S
C880 C886 1.505 . S
C881 C880 1.379 . S
C881 C883 1.369 . S
C881 H892 0.930 . S
C882 C884 1.383 . S
C882 C885 1.382 . S
C882 H893 0.930 . S
C883 C881 1.369 . S
C883 C885 1.392 . S
C883 H894 0.930 . S
C884 C880 1.373 . S
C884 C882 1.383 . S
C884 H895 0.931 . S
C885 C882 1.382 . S
C885 C883 1.392 . S
C886 Eu857 2.828 . S
C886 O870 1.249 . S
C886 O871 1.244 . S
C886 C880 1.505 . S
C887 O874 1.258 . S
C887 O875 1.242 . S
H888 C860 0.930 . S
H889 C861 0.930 . S
H890 C862 0.930 . S
H891 C863 0.931 . S
H892 C881 0.930 . S
H893 C882 0.930 . S
H894 C883 0.930 . S
H895 C884 0.931 . S
Eu896 C905 2.828 . S
Eu896 O907 2.392 . S
Eu896 O909 2.418 . S
Eu896 O914 2.373 . S
Eu896 O917 2.488 . S
Eu896 O918 2.471 . S
Eu896 O919 2.349 . S
Eu897 O906 2.373 . S
Eu897 O910 2.488 . S
Eu897 O911 2.471 . S
Eu897 O912 2.349 . S
Eu897 O915 2.392 . S
Eu897 O916 2.418 . S
Eu897 C926 2.828 . S
C898 O916 1.244 . S
C898 O919 1.265 . S
C899 C900 1.379 . S
C899 C903 1.373 . S
C899 C905 1.505 . S
C900 C899 1.379 . S
C900 C902 1.369 . S
C900 H928 0.930 . S
C901 C903 1.383 . S
C901 C904 1.382 . S
C901 H929 0.930 . S
C902 C900 1.369 . S
C902 C904 1.392 . S
C902 H930 0.930 . S
C903 C899 1.373 . S
C903 C901 1.383 . S
C903 H931 0.931 . S
C904 C901 1.382 . S
C904 C902 1.392 . S
C905 Eu896 2.828 . S
C905 C899 1.505 . S
C905 O917 1.249 . S
C905 O918 1.244 . S
O906 Eu897 2.373 . S
O906 C908 1.258 . S
O907 Eu896 2.392 . S
O907 C908 1.242 . S
C908 O906 1.258 . S
C908 O907 1.242 . S
O909 Eu896 2.418 . S
O909 C913 1.244 . S
O910 Eu897 2.488 . S
O910 C926 1.249 . S
O911 Eu897 2.471 . S
O911 C926 1.244 . S
O912 Eu897 2.349 . S
O912 C913 1.265 . S
C913 O909 1.244 . S
C913 O912 1.265 . S
O914 Eu896 2.373 . S
O914 C927 1.258 . S
O915 Eu897 2.392 . S
O915 C927 1.242 . S
O916 Eu897 2.418 . S
O916 C898 1.244 . S
O917 Eu896 2.488 . S
O917 C905 1.249 . S
O918 Eu896 2.471 . S
O918 C905 1.244 . S
O919 Eu896 2.349 . S
O919 C898 1.265 . S
C920 C921 1.379 . S
C920 C924 1.373 . S
C920 C926 1.505 . S
C921 C920 1.379 . S
C921 C923 1.369 . S
C921 H932 0.930 . S
C922 C924 1.383 . S
C922 C925 1.382 . S
C922 H933 0.930 . S
C923 C921 1.369 . S
C923 C925 1.392 . S
C923 H934 0.930 . S
C924 C920 1.373 . S
C924 C922 1.383 . S
C924 H935 0.931 . S
C925 C922 1.382 . S
C925 C923 1.392 . S
C926 Eu897 2.828 . S
C926 O910 1.249 . S
C926 O911 1.244 . S
C926 C920 1.505 . S
C927 O914 1.258 . S
C927 O915 1.242 . S
H928 C900 0.930 . S
H929 C901 0.930 . S
H930 C902 0.930 . S
H931 C903 0.931 . S
H932 C921 0.930 . S
H933 C922 0.930 . S
H934 C923 0.930 . S
H935 C924 0.931 . S
Eu936 C945 2.828 1_554 S
Eu936 O947 2.392 . S
Eu936 O949 2.418 1_554 S
Eu936 O954 2.373 1_554 S
Eu936 O957 2.488 1_554 S
Eu936 O958 2.471 . S
Eu936 O959 2.349 . S
Eu937 O946 2.373 . S
Eu937 O950 2.488 1_455 S
Eu937 O951 2.471 1_455 S
Eu937 O952 2.349 1_554 S
Eu937 O955 2.392 . S
Eu937 O956 2.418 . S
Eu937 C966 2.828 1_455 S
C938 O956 1.244 . S
C938 O959 1.265 . S
C939 C940 1.379 1_556 S
C939 C943 1.373 . S
C939 C945 1.505 . S
C940 C939 1.379 1_554 S
C940 C942 1.369 . S
C940 H968 0.930 . S
C941 C943 1.383 . S
C941 C944 1.382 . S
C941 H969 0.930 . S
C942 C940 1.369 . S
C942 C944 1.392 1_554 S
C942 H970 0.930 . S
C943 C939 1.373 . S
C943 C941 1.383 . S
C943 H971 0.931 . S
C944 C941 1.382 . S
C944 C942 1.392 1_556 S
C945 Eu936 2.828 1_556 S
C945 C939 1.505 . S
C945 O957 1.249 . S
C945 O958 1.244 1_556 S
O946 Eu937 2.373 . S
O946 C948 1.258 . S
O947 Eu936 2.392 . S
O947 C948 1.242 . S
C948 O946 1.258 . S
C948 O947 1.242 . S
O949 Eu936 2.418 1_556 S
O949 C953 1.244 . S
O950 Eu937 2.488 1_655 S
O950 C966 1.249 . S
O951 Eu937 2.471 1_655 S
O951 C966 1.244 . S
O952 Eu937 2.349 1_556 S
O952 C953 1.265 . S
C953 O949 1.244 . S
C953 O952 1.265 . S
O954 Eu936 2.373 1_556 S
O954 C967 1.258 1_556 S
O955 Eu937 2.392 . S
O955 C967 1.242 . S
O956 Eu937 2.418 . S
O956 C938 1.244 . S
O957 Eu936 2.488 1_556 S
O957 C945 1.249 . S
O958 Eu936 2.471 . S
O958 C945 1.244 1_554 S
O959 Eu936 2.349 . S
O959 C938 1.265 . S
C960 C961 1.379 . S
C960 C964 1.373 . S
C960 C966 1.505 . S
C961 C960 1.379 . S
C961 C963 1.369 . S
C961 H972 0.930 . S
C962 C964 1.383 . S
C962 C965 1.382 . S
C962 H973 0.930 . S
C963 C961 1.369 . S
C963 C965 1.392 . S
C963 H974 0.930 . S
C964 C960 1.373 . S
C964 C962 1.383 . S
C964 H975 0.931 . S
C965 C962 1.382 . S
C965 C963 1.392 . S
C966 Eu937 2.828 1_655 S
C966 O950 1.249 . S
C966 O951 1.244 . S
C966 C960 1.505 . S
C967 O954 1.258 1_554 S
C967 O955 1.242 . S
H968 C940 0.930 . S
H969 C941 0.930 . S
H970 C942 0.930 . S
H971 C943 0.931 . S
H972 C961 0.930 . S
H973 C962 0.930 . S
H974 C963 0.930 . S
H975 C964 0.931 . S
C976 C977 1.349 . S
C976 C978 1.327 . S
C976 H1001 0.950 . S
C977 C976 1.349 . S
C977 C993 1.349 1_455 S
C978 C976 1.327 . S
C978 C997 1.429 . S
C978 H1002 0.950 . S
C979 C996 1.578 . S
C979 C998 1.380 . S
C979 H1003 0.935 1_455 S
H980 C984 0.949 . S
C981 C982 1.349 . S
C981 C983 1.327 . S
C981 H1004 0.950 . S
C982 C981 1.349 . S
C982 C994 1.349 . S
C983 C981 1.327 . S
C983 C999 1.429 . S
C983 H1005 0.950 1_455 S
C984 H980 0.949 . S
C984 C992 1.574 . S
C984 C1000 1.368 . S
H985 C993 0.950 . S
H986 C991 0.950 . S
H987 C992 0.949 . S
H988 C994 0.950 . S
H989 C995 0.950 . S
H990 C996 0.949 1_655 S
C991 H986 0.950 . S
C991 C993 1.327 . S
C991 C997 1.429 1_655 S
C992 C984 1.574 . S
C992 H987 0.949 . S
C992 C998 1.368 . S
C993 C977 1.349 1_655 S
C993 H985 0.950 . S
C993 C991 1.327 . S
C994 C982 1.349 . S
C994 H988 0.950 . S
C994 C995 1.327 . S
C995 H989 0.950 . S
C995 C994 1.327 . S
C995 C999 1.429 . S
C996 C979 1.578 . S
C996 H990 0.949 1_455 S
C996 C1000 1.368 . S
C997 C978 1.429 . S
C997 C991 1.429 1_455 S
C997 C998 1.523 . S
C998 C979 1.380 . S
C998 C992 1.368 . S
C998 C997 1.523 . S
C999 C983 1.429 . S
C999 C995 1.429 . S
C999 C1000 1.523 . S
C1000 C984 1.368 . S
C1000 C996 1.368 . S
C1000 C999 1.523 . S
H1001 C976 0.950 . S
H1002 C978 0.950 . S
H1003 C979 0.935 1_655 S
H1004 C981 0.950 . S
H1005 C983 0.950 1_655 S
C1006 C1007 1.349 . S
C1006 C1008 1.327 . S
C1006 H1031 0.950 . S
C1007 C1006 1.349 . S
C1007 C1023 1.349 . S
C1008 C1006 1.327 . S
C1008 C1027 1.429 . S
C1008 H1032 0.950 . S
C1009 C1026 1.574 . S
C1009 C1028 1.368 . S
C1009 H1033 0.949 . S
H1010 C1014 0.949 . S
C1011 C1012 1.349 . S
C1011 C1013 1.327 . S
C1011 H1034 0.950 . S
C1012 C1011 1.349 . S
C1012 C1024 1.349 . S
C1013 C1011 1.327 . S
C1013 C1029 1.429 . S
C1013 H1035 0.950 . S
C1014 H1010 0.949 . S
C1014 C1022 1.574 . S
C1014 C1030 1.368 . S
H1015 C1023 0.950 . S
H1016 C1021 0.950 . S
H1017 C1022 0.949 . S
H1018 C1024 0.950 . S
H1019 C1025 0.950 . S
H1020 C1026 0.949 . S
C1021 H1016 0.950 . S
C1021 C1023 1.327 . S
C1021 C1027 1.429 . S
C1022 C1014 1.574 . S
C1022 H1017 0.949 . S
C1022 C1028 1.368 . S
C1023 C1007 1.349 . S
C1023 H1015 0.950 . S
C1023 C1021 1.327 . S
C1024 C1012 1.349 . S
C1024 H1018 0.950 . S
C1024 C1025 1.327 . S
C1025 H1019 0.950 . S
C1025 C1024 1.327 . S
C1025 C1029 1.429 . S
C1026 C1009 1.574 . S
C1026 H1020 0.949 . S
C1026 C1030 1.368 . S
C1027 C1008 1.429 . S
C1027 C1021 1.429 . S
C1027 C1028 1.523 . S
C1028 C1009 1.368 . S
C1028 C1022 1.368 . S
C1028 C1027 1.523 . S
C1029 C1013 1.429 . S
C1029 C1025 1.429 . S
C1029 C1030 1.523 . S
C1030 C1014 1.368 . S
C1030 C1026 1.368 . S
C1030 C1029 1.523 . S
H1031 C1006 0.950 . S
H1032 C1008 0.950 . S
H1033 C1009 0.949 . S
H1034 C1011 0.950 . S
H1035 C1013 0.950 . S
C1036 C1037 1.349 . S
C1036 C1038 1.327 . S
C1036 H1061 0.950 . S
C1037 C1036 1.349 . S
C1037 C1053 1.349 . S
C1038 C1036 1.327 . S
C1038 C1057 1.429 . S
C1038 H1062 0.950 . S
C1039 C1056 1.574 . S
C1039 C1058 1.368 . S
C1039 H1063 0.949 . S
H1040 C1044 0.949 . S
C1041 C1042 1.349 . S
C1041 C1043 1.327 . S
C1041 H1064 0.950 . S
C1042 C1041 1.349 . S
C1042 C1054 1.349 . S
C1043 C1041 1.327 . S
C1043 C1059 1.429 . S
C1043 H1065 0.950 . S
C1044 H1040 0.949 . S
C1044 C1052 1.574 . S
C1044 C1060 1.368 . S
H1045 C1053 0.950 . S
H1046 C1051 0.950 . S
H1047 C1052 0.949 . S
H1048 C1054 0.950 . S
H1049 C1055 0.950 . S
H1050 C1056 0.949 . S
C1051 H1046 0.950 . S
C1051 C1053 1.327 . S
C1051 C1057 1.429 . S
C1052 C1044 1.574 . S
C1052 H1047 0.949 . S
C1052 C1058 1.368 . S
C1053 C1037 1.349 . S
C1053 H1045 0.950 . S
C1053 C1051 1.327 . S
C1054 C1042 1.349 . S
C1054 H1048 0.950 . S
C1054 C1055 1.327 . S
C1055 H1049 0.950 . S
C1055 C1054 1.327 . S
C1055 C1059 1.429 . S
C1056 C1039 1.574 . S
C1056 H1050 0.949 . S
C1056 C1060 1.368 . S
C1057 C1038 1.429 . S
C1057 C1051 1.429 . S
C1057 C1058 1.523 . S
C1058 C1039 1.368 . S
C1058 C1052 1.368 . S
C1058 C1057 1.523 . S
C1059 C1043 1.429 . S
C1059 C1055 1.429 . S
C1059 C1060 1.523 . S
C1060 C1044 1.368 . S
C1060 C1056 1.368 . S
C1060 C1059 1.523 . S
H1061 C1036 0.950 . S
H1062 C1038 0.950 . S
H1063 C1039 0.949 . S
H1064 C1041 0.950 . S
H1065 C1043 0.950 . S
C1066 C1067 1.349 . S
C1066 C1068 1.327 . S
C1066 H1091 0.950 . S
C1067 C1066 1.349 . S
C1067 C1083 1.349 . S
C1068 C1066 1.327 . S
C1068 C1087 1.429 . S
C1068 H1092 0.950 . S
C1069 C1086 1.574 . S
C1069 C1088 1.368 . S
C1069 H1093 0.949 . S
H1070 C1074 0.949 . S
C1071 C1072 1.349 . S
C1071 C1073 1.327 . S
C1071 H1094 0.950 . S
C1072 C1071 1.349 . S
C1072 C1084 1.349 . S
C1073 C1071 1.327 . S
C1073 C1089 1.429 . S
C1073 H1095 0.950 . S
C1074 H1070 0.949 . S
C1074 C1082 1.574 . S
C1074 C1090 1.368 . S
H1075 C1083 0.950 . S
H1076 C1081 0.950 . S
H1077 C1082 0.949 . S
H1078 C1084 0.950 . S
H1079 C1085 0.950 . S
H1080 C1086 0.949 . S
C1081 H1076 0.950 . S
C1081 C1083 1.327 . S
C1081 C1087 1.429 . S
C1082 C1074 1.574 . S
C1082 H1077 0.949 . S
C1082 C1088 1.368 . S
C1083 C1067 1.349 . S
C1083 H1075 0.950 . S
C1083 C1081 1.327 . S
C1084 C1072 1.349 . S
C1084 H1078 0.950 . S
C1084 C1085 1.327 . S
C1085 H1079 0.950 . S
C1085 C1084 1.327 . S
C1085 C1089 1.429 . S
C1086 C1069 1.574 . S
C1086 H1080 0.949 . S
C1086 C1090 1.368 . S
C1087 C1068 1.429 . S
C1087 C1081 1.429 . S
C1087 C1088 1.523 . S
C1088 C1069 1.368 . S
C1088 C1082 1.368 . S
C1088 C1087 1.523 . S
C1089 C1073 1.429 . S
C1089 C1085 1.429 . S
C1089 C1090 1.523 . S
C1090 C1074 1.368 . S
C1090 C1086 1.368 . S
C1090 C1089 1.523 . S
H1091 C1066 0.950 . S
H1092 C1068 0.950 . S
H1093 C1069 0.949 . S
H1094 C1071 0.950 . S
H1095 C1073 0.950 . S
C1096 C1097 1.349 . S
C1096 C1098 1.327 . S
C1096 H1121 0.950 . S
C1097 C1096 1.349 . S
C1097 C1113 1.349 1_455 S
C1098 C1096 1.327 . S
C1098 C1117 1.429 . S
C1098 H1122 0.950 . S
C1099 C1116 1.574 . S
C1099 C1118 1.368 . S
C1099 H1123 0.949 1_455 S
H1100 C1104 0.949 . S
C1101 C1102 1.349 . S
C1101 C1103 1.327 . S
C1101 H1124 0.950 . S
C1102 C1101 1.349 . S
C1102 C1114 1.349 . S
C1103 C1101 1.327 . S
C1103 C1119 1.429 . S
C1103 H1125 0.950 . S
C1104 H1100 0.949 . S
C1104 C1112 1.574 . S
C1104 C1120 1.368 . S
H1105 C1113 0.950 . S
H1106 C1111 0.959 . S
H1107 C1112 0.949 . S
H1108 C1114 0.950 . S
H1109 C1115 0.950 . S
H1110 C1116 0.949 . S
C1111 H1106 0.959 . S
C1111 C1113 1.329 . S
C1111 C1117 1.418 1_655 S
C1112 C1104 1.574 . S
C1112 H1107 0.949 . S
C1112 C1118 1.368 . S
C1113 C1097 1.349 1_655 S
C1113 H1105 0.950 . S
C1113 C1111 1.329 . S
C1114 C1102 1.349 . S
C1114 H1108 0.950 . S
C1114 C1115 1.327 . S
C1115 H1109 0.950 . S
C1115 C1114 1.327 . S
C1115 C1119 1.429 . S
C1116 C1099 1.574 . S
C1116 H1110 0.949 . S
C1116 C1120 1.368 . S
C1117 C1098 1.429 . S
C1117 C1111 1.418 1_455 S
C1117 C1118 1.523 . S
C1118 C1099 1.368 . S
C1118 C1112 1.368 . S
C1118 C1117 1.523 . S
C1119 C1103 1.429 . S
C1119 C1115 1.429 . S
C1119 C1120 1.523 . S
C1120 C1104 1.368 . S
C1120 C1116 1.368 . S
C1120 C1119 1.523 . S
H1121 C1096 0.950 . S
H1122 C1098 0.950 . S
H1123 C1099 0.949 1_655 S
H1124 C1101 0.950 . S
H1125 C1103 0.950 . S
C1126 C1127 1.349 . S
C1126 C1128 1.327 . S
C1126 H1151 0.950 . S
C1127 C1126 1.349 . S
C1127 C1143 1.349 . S
C1128 C1126 1.327 . S
C1128 C1147 1.429 . S
C1128 H1152 0.950 . S
C1129 C1146 1.574 . S
C1129 C1148 1.368 . S
C1129 H1153 0.949 . S
H1130 C1134 0.949 . S
C1131 C1132 1.349 . S
C1131 C1133 1.327 . S
C1131 H1154 0.950 . S
C1132 C1131 1.349 . S
C1132 C1144 1.349 . S
C1133 C1131 1.327 . S
C1133 C1149 1.429 . S
C1133 H1155 0.950 . S
C1134 H1130 0.949 . S
C1134 C1142 1.574 . S
C1134 C1150 1.368 . S
H1135 C1143 0.950 . S
H1136 C1141 0.950 . S
H1137 C1142 0.949 . S
H1138 C1144 0.950 . S
H1139 C1145 0.950 . S
H1140 C1146 0.949 . S
C1141 H1136 0.950 . S
C1141 C1143 1.327 . S
C1141 C1147 1.429 . S
C1142 C1134 1.574 . S
C1142 H1137 0.949 . S
C1142 C1148 1.368 . S
C1143 C1127 1.349 . S
C1143 H1135 0.950 . S
C1143 C1141 1.327 . S
C1144 C1132 1.349 . S
C1144 H1138 0.950 . S
C1144 C1145 1.327 . S
C1145 H1139 0.950 . S
C1145 C1144 1.327 . S
C1145 C1149 1.429 . S
C1146 C1129 1.574 . S
C1146 H1140 0.949 . S
C1146 C1150 1.368 . S
C1147 C1128 1.429 . S
C1147 C1141 1.429 . S
C1147 C1148 1.523 . S
C1148 C1129 1.368 . S
C1148 C1142 1.368 . S
C1148 C1147 1.523 . S
C1149 C1133 1.429 . S
C1149 C1145 1.429 . S
C1149 C1150 1.523 . S
C1150 C1134 1.368 . S
C1150 C1146 1.368 . S
C1150 C1149 1.523 . S
H1151 C1126 0.950 . S
H1152 C1128 0.950 . S
H1153 C1129 0.949 . S
H1154 C1131 0.950 . S
H1155 C1133 0.950 . S
C1156 C1157 1.349 . S
C1156 C1158 1.327 . S
C1156 H1181 0.950 . S
C1157 C1156 1.349 . S
C1157 C1173 1.349 . S
C1158 C1156 1.327 . S
C1158 C1177 1.429 . S
C1158 H1182 0.950 . S
C1159 C1176 1.574 . S
C1159 C1178 1.368 . S
C1159 H1183 0.949 . S
H1160 C1164 0.949 . S
C1161 C1162 1.349 . S
C1161 C1163 1.327 . S
C1161 H1184 0.950 . S
C1162 C1161 1.349 . S
C1162 C1174 1.349 . S
C1163 C1161 1.327 . S
C1163 C1179 1.429 . S
C1163 H1185 0.950 . S
C1164 H1160 0.949 . S
C1164 C1172 1.574 . S
C1164 C1180 1.368 . S
H1165 C1173 0.950 . S
H1166 C1171 0.950 . S
H1167 C1172 0.949 . S
H1168 C1174 0.950 . S
H1169 C1175 0.950 . S
H1170 C1176 0.949 . S
C1171 H1166 0.950 . S
C1171 C1173 1.327 . S
C1171 C1177 1.429 . S
C1172 C1164 1.574 . S
C1172 H1167 0.949 . S
C1172 C1178 1.368 . S
C1173 C1157 1.349 . S
C1173 H1165 0.950 . S
C1173 C1171 1.327 . S
C1174 C1162 1.349 . S
C1174 H1168 0.950 . S
C1174 C1175 1.327 . S
C1175 H1169 0.950 . S
C1175 C1174 1.327 . S
C1175 C1179 1.429 . S
C1176 C1159 1.574 . S
C1176 H1170 0.949 . S
C1176 C1180 1.368 . S
C1177 C1158 1.429 . S
C1177 C1171 1.429 . S
C1177 C1178 1.523 . S
C1178 C1159 1.368 . S
C1178 C1172 1.368 . S
C1178 C1177 1.523 . S
C1179 C1163 1.429 . S
C1179 C1175 1.429 . S
C1179 C1180 1.523 . S
C1180 C1164 1.368 . S
C1180 C1176 1.368 . S
C1180 C1179 1.523 . S
H1181 C1156 0.950 . S
H1182 C1158 0.950 . S
H1183 C1159 0.949 . S
H1184 C1161 0.950 . S
H1185 C1163 0.950 . S
C1186 C1187 1.349 . S
C1186 C1188 1.327 . S
C1186 H1211 0.950 . S
C1187 C1186 1.349 . S
C1187 C1203 1.349 . S
C1188 C1186 1.327 . S
C1188 C1207 1.429 . S
C1188 H1212 0.950 . S
C1189 C1206 1.574 . S
C1189 C1208 1.368 . S
C1189 H1213 0.949 . S
H1190 C1194 0.949 . S
C1191 C1192 1.349 . S
C1191 C1193 1.327 . S
C1191 H1214 0.950 . S
C1192 C1191 1.349 . S
C1192 C1204 1.349 . S
C1193 C1191 1.327 . S
C1193 C1209 1.429 . S
C1193 H1215 0.950 . S
C1194 H1190 0.949 . S
C1194 C1202 1.574 . S
C1194 C1210 1.368 . S
H1195 C1203 0.950 . S
H1196 C1201 0.950 . S
H1197 C1202 0.949 . S
H1198 C1204 0.950 . S
H1199 C1205 0.950 . S
H1200 C1206 0.949 . S
C1201 H1196 0.950 . S
C1201 C1203 1.327 . S
C1201 C1207 1.429 . S
C1202 C1194 1.574 . S
C1202 H1197 0.949 . S
C1202 C1208 1.368 . S
C1203 C1187 1.349 . S
C1203 H1195 0.950 . S
C1203 C1201 1.327 . S
C1204 C1192 1.349 . S
C1204 H1198 0.950 . S
C1204 C1205 1.327 . S
C1205 H1199 0.950 . S
C1205 C1204 1.327 . S
C1205 C1209 1.429 . S
C1206 C1189 1.574 . S
C1206 H1200 0.949 . S
C1206 C1210 1.368 . S
C1207 C1188 1.429 . S
C1207 C1201 1.429 . S
C1207 C1208 1.523 . S
C1208 C1189 1.368 . S
C1208 C1202 1.368 . S
C1208 C1207 1.523 . S
C1209 C1193 1.429 . S
C1209 C1205 1.429 . S
C1209 C1210 1.523 . S
C1210 C1194 1.368 . S
C1210 C1206 1.368 . S
C1210 C1209 1.523 . S
H1211 C1186 0.950 . S
H1212 C1188 0.950 . S
H1213 C1189 0.949 . S
H1214 C1191 0.950 . S
H1215 C1193 0.950 . S
C1216 C1217 1.349 . S
C1216 C1218 1.327 . S
C1216 H1241 0.950 . S
C1217 C1216 1.349 . S
C1217 C1233 1.349 . S
C1218 C1216 1.327 . S
C1218 C1237 1.429 . S
C1218 H1242 0.950 . S
C1219 C1236 1.586 . S
C1219 C1238 1.368 . S
C1219 H1243 0.949 . S
H1220 C1224 0.949 . S
C1221 C1222 1.349 . S
C1221 C1223 1.327 . S
C1221 H1244 0.950 . S
C1222 C1221 1.349 . S
C1222 C1234 1.349 . S
C1223 C1221 1.327 . S
C1223 C1239 1.429 . S
C1223 H1245 0.950 . S
C1224 H1220 0.949 . S
C1224 C1232 1.574 . S
C1224 C1240 1.368 . S
H1225 C1233 0.950 . S
H1226 C1231 0.950 . S
H1227 C1232 0.949 . S
H1228 C1234 0.952 . S
H1229 C1235 0.950 . S
H1230 C1236 0.935 1_455 S
C1231 H1226 0.950 . S
C1231 C1233 1.327 . S
C1231 C1237 1.429 . S
C1232 C1224 1.574 . S
C1232 H1227 0.949 . S
C1232 C1238 1.368 . S
C1233 C1217 1.349 . S
C1233 H1225 0.950 . S
C1233 C1231 1.327 . S
C1234 C1222 1.349 . S
C1234 H1228 0.952 . S
C1234 C1235 1.327 1_455 S
C1235 H1229 0.950 . S
C1235 C1234 1.327 1_655 S
C1235 C1239 1.429 1_655 S
C1236 C1219 1.586 . S
C1236 H1230 0.935 1_655 S
C1236 C1240 1.373 . S
C1237 C1218 1.429 . S
C1237 C1231 1.429 . S
C1237 C1238 1.523 . S
C1238 C1219 1.368 . S
C1238 C1232 1.368 . S
C1238 C1237 1.523 . S
C1239 C1223 1.429 . S
C1239 C1235 1.429 1_455 S
C1239 C1240 1.523 1_455 S
C1240 C1224 1.368 . S
C1240 C1236 1.373 . S
C1240 C1239 1.523 1_655 S
H1241 C1216 0.950 . S
H1242 C1218 0.950 . S
H1243 C1219 0.949 . S
H1244 C1221 0.950 . S
H1245 C1223 0.950 . S
C1246 C1247 1.349 . S
C1246 C1248 1.327 . S
C1246 H1271 0.950 . S
C1247 C1246 1.349 . S
C1247 C1263 1.349 . S
C1248 C1246 1.327 . S
C1248 C1267 1.429 . S
C1248 H1272 0.950 . S
C1249 C1266 1.574 . S
C1249 C1268 1.368 . S
C1249 H1273 0.949 . S
H1250 C1254 0.949 . S
C1251 C1252 1.349 . S
C1251 C1253 1.327 . S
C1251 H1274 0.950 . S
C1252 C1251 1.349 . S
C1252 C1264 1.349 . S
C1253 C1251 1.327 . S
C1253 C1269 1.429 . S
C1253 H1275 0.950 . S
C1254 H1250 0.949 . S
C1254 C1262 1.574 . S
C1254 C1270 1.368 . S
H1255 C1263 0.950 . S
H1256 C1261 0.950 . S
H1257 C1262 0.949 . S
H1258 C1264 0.950 . S
H1259 C1265 0.950 . S
H1260 C1266 0.949 . S
C1261 H1256 0.950 . S
C1261 C1263 1.327 . S
C1261 C1267 1.429 . S
C1262 C1254 1.574 . S
C1262 H1257 0.949 . S
C1262 C1268 1.368 . S
C1263 C1247 1.349 . S
C1263 H1255 0.950 . S
C1263 C1261 1.327 . S
C1264 C1252 1.349 . S
C1264 H1258 0.950 . S
C1264 C1265 1.327 . S
C1265 H1259 0.950 . S
C1265 C1264 1.327 . S
C1265 C1269 1.429 . S
C1266 C1249 1.574 . S
C1266 H1260 0.949 . S
C1266 C1270 1.368 . S
C1267 C1248 1.429 . S
C1267 C1261 1.429 . S
C1267 C1268 1.523 . S
C1268 C1249 1.368 . S
C1268 C1262 1.368 . S
C1268 C1267 1.523 . S
C1269 C1253 1.429 . S
C1269 C1265 1.429 . S
C1269 C1270 1.523 . S
C1270 C1254 1.368 . S
C1270 C1266 1.368 . S
C1270 C1269 1.523 . S
H1271 C1246 0.950 . S
H1272 C1248 0.950 . S
H1273 C1249 0.949 . S
H1274 C1251 0.950 . S
H1275 C1253 0.950 . S
C1276 C1277 1.349 . S
C1276 C1278 1.327 . S
C1276 H1301 0.950 . S
C1277 C1276 1.349 . S
C1277 C1293 1.349 . S
C1278 C1276 1.327 . S
C1278 C1297 1.429 . S
C1278 H1302 0.950 . S
C1279 C1296 1.574 . S
C1279 C1298 1.368 . S
C1279 H1303 0.949 . S
H1280 C1284 0.949 . S
C1281 C1282 1.349 . S
C1281 C1283 1.327 . S
C1281 H1304 0.950 . S
C1282 C1281 1.349 . S
C1282 C1294 1.349 . S
C1283 C1281 1.327 . S
C1283 C1299 1.429 . S
C1283 H1305 0.950 . S
C1284 H1280 0.949 . S
C1284 C1292 1.574 . S
C1284 C1300 1.368 . S
H1285 C1293 0.950 . S
H1286 C1291 0.950 . S
H1287 C1292 0.949 . S
H1288 C1294 0.950 . S
H1289 C1295 0.950 . S
H1290 C1296 0.949 . S
C1291 H1286 0.950 . S
C1291 C1293 1.327 . S
C1291 C1297 1.429 . S
C1292 C1284 1.574 . S
C1292 H1287 0.949 . S
C1292 C1298 1.368 . S
C1293 C1277 1.349 . S
C1293 H1285 0.950 . S
C1293 C1291 1.327 . S
C1294 C1282 1.349 . S
C1294 H1288 0.950 . S
C1294 C1295 1.327 . S
C1295 H1289 0.950 . S
C1295 C1294 1.327 . S
C1295 C1299 1.429 . S
C1296 C1279 1.574 . S
C1296 H1290 0.949 . S
C1296 C1300 1.368 . S
C1297 C1278 1.429 . S
C1297 C1291 1.429 . S
C1297 C1298 1.523 . S
C1298 C1279 1.368 . S
C1298 C1292 1.368 . S
C1298 C1297 1.523 . S
C1299 C1283 1.429 . S
C1299 C1295 1.429 . S
C1299 C1300 1.523 . S
C1300 C1284 1.368 . S
C1300 C1296 1.368 . S
C1300 C1299 1.523 . S
H1301 C1276 0.950 . S
H1302 C1278 0.950 . S
H1303 C1279 0.949 . S
H1304 C1281 0.950 . S
H1305 C1283 0.950 . S
C1306 C1307 1.349 . S
C1306 C1308 1.327 . S
C1306 H1331 0.950 . S
C1307 C1306 1.349 . S
C1307 C1323 1.349 . S
C1308 C1306 1.327 . S
C1308 C1327 1.429 . S
C1308 H1332 0.950 . S
C1309 C1326 1.574 . S
C1309 C1328 1.368 . S
C1309 H1333 0.949 . S
H1310 C1314 0.949 . S
C1311 C1312 1.349 . S
C1311 C1313 1.327 . S
C1311 H1334 0.950 . S
C1312 C1311 1.349 . S
C1312 C1324 1.349 . S
C1313 C1311 1.327 . S
C1313 C1329 1.429 . S
C1313 H1335 0.950 . S
C1314 H1310 0.949 . S
C1314 C1322 1.574 . S
C1314 C1330 1.368 . S
H1315 C1323 0.950 . S
H1316 C1321 0.950 . S
H1317 C1322 0.949 . S
H1318 C1324 0.950 . S
H1319 C1325 0.950 . S
H1320 C1326 0.949 . S
C1321 H1316 0.950 . S
C1321 C1323 1.327 . S
C1321 C1327 1.429 . S
C1322 C1314 1.574 . S
C1322 H1317 0.949 . S
C1322 C1328 1.368 . S
C1323 C1307 1.349 . S
C1323 H1315 0.950 . S
C1323 C1321 1.327 . S
C1324 C1312 1.349 . S
C1324 H1318 0.950 . S
C1324 C1325 1.327 . S
C1325 H1319 0.950 . S
C1325 C1324 1.327 . S
C1325 C1329 1.429 . S
C1326 C1309 1.574 . S
C1326 H1320 0.949 . S
C1326 C1330 1.368 . S
C1327 C1308 1.429 . S
C1327 C1321 1.429 . S
C1327 C1328 1.523 . S
C1328 C1309 1.368 . S
C1328 C1322 1.368 . S
C1328 C1327 1.523 . S
C1329 C1313 1.429 . S
C1329 C1325 1.429 . S
C1329 C1330 1.523 . S
C1330 C1314 1.368 . S
C1330 C1326 1.368 . S
C1330 C1329 1.523 . S
H1331 C1306 0.950 . S
H1332 C1308 0.950 . S
H1333 C1309 0.949 . S
H1334 C1311 0.950 . S
H1335 C1313 0.950 . S
C1336 C1337 1.349 . S
C1336 C1338 1.327 . S
C1336 H1361 0.950 . S
C1337 C1336 1.349 . S
C1337 C1353 1.349 . S
C1338 C1336 1.327 . S
C1338 C1357 1.429 . S
C1338 H1362 0.950 . S
C1339 C1356 1.574 . S
C1339 C1358 1.368 . S
C1339 H1363 0.949 . S
H1340 C1344 0.949 . S
C1341 C1342 1.349 . S
C1341 C1343 1.327 . S
C1341 H1364 0.950 . S
C1342 C1341 1.349 . S
C1342 C1354 1.349 . S
C1343 C1341 1.327 . S
C1343 C1359 1.429 . S
C1343 H1365 0.950 1_455 S
C1344 H1340 0.949 . S
C1344 C1352 1.574 . S
C1344 C1360 1.368 . S
H1345 C1353 0.950 . S
H1346 C1351 0.950 . S
H1347 C1352 0.949 . S
H1348 C1354 0.950 . S
H1349 C1355 0.950 . S
H1350 C1356 0.949 . S
C1351 H1346 0.950 . S
C1351 C1353 1.327 . S
C1351 C1357 1.429 . S
C1352 C1344 1.574 . S
C1352 H1347 0.949 . S
C1352 C1358 1.368 . S
C1353 C1337 1.349 . S
C1353 H1345 0.950 . S
C1353 C1351 1.327 . S
C1354 C1342 1.349 . S
C1354 H1348 0.950 . S
C1354 C1355 1.327 . S
C1355 H1349 0.950 . S
C1355 C1354 1.327 . S
C1355 C1359 1.429 . S
C1356 C1339 1.574 . S
C1356 H1350 0.949 . S
C1356 C1360 1.368 . S
C1357 C1338 1.429 . S
C1357 C1351 1.429 . S
C1357 C1358 1.523 . S
C1358 C1339 1.368 . S
C1358 C1352 1.368 . S
C1358 C1357 1.523 . S
C1359 C1343 1.429 . S
C1359 C1355 1.429 . S
C1359 C1360 1.523 1_455 S
C1360 C1344 1.368 . S
C1360 C1356 1.368 . S
C1360 C1359 1.523 1_655 S
H1361 C1336 0.950 . S
H1362 C1338 0.950 . S
H1363 C1339 0.949 . S
H1364 C1341 0.950 . S
H1365 C1343 0.950 1_655 S
C1366 C1367 1.349 . S
C1366 C1368 1.327 . S
C1366 H1391 0.950 . S
C1367 C1366 1.349 . S
C1367 C1383 1.349 . S
C1368 C1366 1.327 . S
C1368 C1387 1.429 . S
C1368 H1392 0.950 . S
C1369 C1386 1.574 . S
C1369 C1388 1.368 . S
C1369 H1393 0.949 . S
H1370 C1374 0.949 . S
C1371 C1372 1.349 . S
C1371 C1373 1.327 . S
C1371 H1394 0.950 . S
C1372 C1371 1.349 . S
C1372 C1384 1.349 . S
C1373 C1371 1.327 . S
C1373 C1389 1.429 . S
C1373 H1395 0.950 . S
C1374 H1370 0.949 . S
C1374 C1382 1.574 . S
C1374 C1390 1.368 . S
H1375 C1383 0.950 . S
H1376 C1381 0.950 . S
H1377 C1382 0.949 . S
H1378 C1384 0.950 . S
H1379 C1385 0.950 . S
H1380 C1386 0.949 . S
C1381 H1376 0.950 . S
C1381 C1383 1.327 . S
C1381 C1387 1.429 . S
C1382 C1374 1.574 . S
C1382 H1377 0.949 . S
C1382 C1388 1.368 . S
C1383 C1367 1.349 . S
C1383 H1375 0.950 . S
C1383 C1381 1.327 . S
C1384 C1372 1.349 . S
C1384 H1378 0.950 . S
C1384 C1385 1.327 . S
C1385 H1379 0.950 . S
C1385 C1384 1.327 . S
C1385 C1389 1.429 . S
C1386 C1369 1.574 . S
C1386 H1380 0.949 . S
C1386 C1390 1.368 . S
C1387 C1368 1.429 . S
C1387 C1381 1.429 . S
C1387 C1388 1.523 . S
C1388 C1369 1.368 . S
C1388 C1382 1.368 . S
C1388 C1387 1.523 . S
C1389 C1373 1.429 . S
C1389 C1385 1.429 . S
C1389 C1390 1.523 . S
C1390 C1374 1.368 . S
C1390 C1386 1.368 . S
C1390 C1389 1.523 . S
H1391 C1366 0.950 . S
H1392 C1368 0.950 . S
H1393 C1369 0.949 . S
H1394 C1371 0.950 . S
H1395 C1373 0.950 . S
C1396 C1397 1.349 . S
C1396 C1398 1.327 . S
C1396 H1421 0.950 . S
C1397 C1396 1.349 . S
C1397 C1413 1.349 . S
C1398 C1396 1.327 . S
C1398 C1417 1.429 . S
C1398 H1422 0.950 . S
C1399 C1416 1.574 . S
C1399 C1418 1.368 . S
C1399 H1423 0.949 . S
H1400 C1404 0.949 . S
C1401 C1402 1.349 . S
C1401 C1403 1.327 . S
C1401 H1424 0.950 . S
C1402 C1401 1.349 . S
C1402 C1414 1.349 . S
C1403 C1401 1.327 . S
C1403 C1419 1.429 . S
C1403 H1425 0.950 . S
C1404 H1400 0.949 . S
C1404 C1412 1.574 . S
C1404 C1420 1.368 . S
H1405 C1413 0.950 . S
H1406 C1411 0.950 . S
H1407 C1412 0.949 . S
H1408 C1414 0.950 . S
H1409 C1415 0.950 . S
H1410 C1416 0.949 . S
C1411 H1406 0.950 . S
C1411 C1413 1.327 . S
C1411 C1417 1.429 . S
C1412 C1404 1.574 . S
C1412 H1407 0.949 . S
C1412 C1418 1.368 . S
C1413 C1397 1.349 . S
C1413 H1405 0.950 . S
C1413 C1411 1.327 . S
C1414 C1402 1.349 . S
C1414 H1408 0.950 . S
C1414 C1415 1.327 . S
C1415 H1409 0.950 . S
C1415 C1414 1.327 . S
C1415 C1419 1.429 . S
C1416 C1399 1.574 . S
C1416 H1410 0.949 . S
C1416 C1420 1.368 . S
C1417 C1398 1.429 . S
C1417 C1411 1.429 . S
C1417 C1418 1.523 . S
C1418 C1399 1.368 . S
C1418 C1412 1.368 . S
C1418 C1417 1.523 . S
C1419 C1403 1.429 . S
C1419 C1415 1.429 . S
C1419 C1420 1.523 . S
C1420 C1404 1.368 . S
C1420 C1416 1.368 . S
C1420 C1419 1.523 . S
H1421 C1396 0.950 . S
H1422 C1398 0.950 . S
H1423 C1399 0.949 . S
H1424 C1401 0.950 . S
H1425 C1403 0.950 . S
C1426 C1427 1.349 . S
C1426 C1428 1.327 . S
C1426 H1451 0.950 . S
C1427 C1426 1.349 . S
C1427 C1443 1.349 . S
C1428 C1426 1.327 . S
C1428 C1447 1.429 . S
C1428 H1452 0.950 . S
C1429 C1446 1.574 . S
C1429 C1448 1.368 . S
C1429 H1453 0.949 . S
H1430 C1434 0.949 . S
C1431 C1432 1.349 . S
C1431 C1433 1.327 . S
C1431 H1454 0.950 . S
C1432 C1431 1.349 . S
C1432 C1444 1.349 . S
C1433 C1431 1.327 . S
C1433 C1449 1.429 . S
C1433 H1455 0.950 . S
C1434 H1430 0.949 . S
C1434 C1442 1.574 . S
C1434 C1450 1.368 . S
H1435 C1443 0.950 . S
H1436 C1441 0.950 . S
H1437 C1442 0.949 . S
H1438 C1444 0.950 . S
H1439 C1445 0.950 . S
H1440 C1446 0.949 . S
C1441 H1436 0.950 . S
C1441 C1443 1.327 . S
C1441 C1447 1.429 . S
C1442 C1434 1.574 . S
C1442 H1437 0.949 . S
C1442 C1448 1.368 . S
C1443 C1427 1.349 . S
C1443 H1435 0.950 . S
C1443 C1441 1.327 . S
C1444 C1432 1.349 . S
C1444 H1438 0.950 . S
C1444 C1445 1.327 . S
C1445 H1439 0.950 . S
C1445 C1444 1.327 . S
C1445 C1449 1.429 . S
C1446 C1429 1.574 . S
C1446 H1440 0.949 . S
C1446 C1450 1.368 . S
C1447 C1428 1.429 . S
C1447 C1441 1.429 . S
C1447 C1448 1.523 . S
C1448 C1429 1.368 . S
C1448 C1442 1.368 . S
C1448 C1447 1.523 . S
C1449 C1433 1.429 . S
C1449 C1445 1.429 . S
C1449 C1450 1.523 . S
C1450 C1434 1.368 . S
C1450 C1446 1.368 . S
C1450 C1449 1.523 . S
H1451 C1426 0.950 . S
H1452 C1428 0.950 . S
H1453 C1429 0.949 . S
H1454 C1431 0.950 . S
H1455 C1433 0.950 . S
C1456 C1457 1.349 . S
C1456 C1458 1.327 . S
C1456 H1481 0.950 . S
C1457 C1456 1.349 . S
C1457 C1473 1.349 1_554 S
C1458 C1456 1.327 . S
C1458 C1477 1.429 . S
C1458 H1482 0.950 . S
C1459 C1476 1.574 . S
C1459 C1478 1.377 . S
C1459 H1483 0.940 1_554 S
H1460 C1464 0.949 1_545 S
C1461 C1462 1.349 1_565 S
C1461 C1463 1.327 . S
C1461 H1484 0.950 1_554 S
C1462 C1461 1.349 1_545 S
C1462 C1474 1.349 . S
C1463 C1461 1.327 . S
C1463 C1479 1.429 . S
C1463 H1485 0.950 1_554 S
C1464 H1460 0.949 1_565 S
C1464 C1472 1.574 . S
C1464 C1480 1.368 . S
H1465 C1473 0.950 . S
H1466 C1471 0.950 . S
H1467 C1472 0.949 . S
H1468 C1474 0.950 . S
H1469 C1475 0.950 . S
H1470 C1476 0.949 1_556 S
C1471 H1466 0.950 . S
C1471 C1473 1.327 . S
C1471 C1477 1.429 1_556 S
C1472 C1464 1.574 . S
C1472 H1467 0.949 . S
C1472 C1478 1.368 . S
C1473 C1457 1.349 1_556 S
C1473 H1465 0.950 . S
C1473 C1471 1.327 . S
C1474 C1462 1.349 . S
C1474 H1468 0.950 . S
C1474 C1475 1.327 . S
C1475 H1469 0.950 . S
C1475 C1474 1.327 . S
C1475 C1479 1.429 1_545 S
C1476 C1459 1.574 . S
C1476 H1470 0.949 1_554 S
C1476 C1480 1.368 . S
C1477 C1458 1.429 . S
C1477 C1471 1.429 1_554 S
C1477 C1478 1.523 . S
C1478 C1459 1.377 . S
C1478 C1472 1.368 . S
C1478 C1477 1.523 . S
C1479 C1463 1.429 . S
C1479 C1475 1.429 1_565 S
C1479 C1480 1.523 . S
C1480 C1464 1.368 . S
C1480 C1476 1.368 . S
C1480 C1479 1.523 . S
H1481 C1456 0.950 . S
H1482 C1458 0.950 . S
H1483 C1459 0.940 1_556 S
H1484 C1461 0.950 1_556 S
H1485 C1463 0.950 1_556 S
C1486 C1487 1.349 1_556 S
C1486 C1488 1.327 . S
C1486 H1511 0.950 . S
C1487 C1486 1.349 1_554 S
C1487 C1503 1.349 . S
C1488 C1486 1.327 . S
C1488 C1507 1.429 1_556 S
C1488 H1512 0.950 . S
C1489 C1506 1.574 . S
C1489 C1508 1.368 . S
C1489 H1513 0.949 . S
H1490 C1494 0.949 . S
C1491 C1492 1.349 . S
C1491 C1493 1.327 . S
C1491 H1514 0.950 . S
C1492 C1491 1.349 . S
C1492 C1504 1.349 1_554 S
C1493 C1491 1.327 . S
C1493 C1509 1.429 . S
C1493 H1515 0.950 . S
C1494 H1490 0.949 . S
C1494 C1502 1.574 . S
C1494 C1510 1.368 1_556 S
H1495 C1503 0.950 . S
H1496 C1501 0.950 . S
H1497 C1502 0.949 . S
H1498 C1504 0.950 . S
H1499 C1505 0.950 . S
H1500 C1506 0.949 . S
C1501 H1496 0.950 . S
C1501 C1503 1.327 . S
C1501 C1507 1.429 . S
C1502 C1494 1.574 . S
C1502 H1497 0.949 . S
C1502 C1508 1.368 1_556 S
C1503 C1487 1.349 . S
C1503 H1495 0.950 . S
C1503 C1501 1.327 . S
C1504 C1492 1.349 1_556 S
C1504 H1498 0.950 . S
C1504 C1505 1.327 . S
C1505 H1499 0.950 . S
C1505 C1504 1.327 . S
C1505 C1509 1.429 1_556 S
C1506 C1489 1.574 . S
C1506 H1500 0.949 . S
C1506 C1510 1.368 . S
C1507 C1488 1.429 1_554 S
C1507 C1501 1.429 . S
C1507 C1508 1.523 . S
C1508 C1489 1.368 . S
C1508 C1502 1.368 1_554 S
C1508 C1507 1.523 . S
C1509 C1493 1.429 . S
C1509 C1505 1.429 1_554 S
C1509 C1510 1.523 . S
C1510 C1494 1.368 1_554 S
C1510 C1506 1.368 . S
C1510 C1509 1.523 . S
H1511 C1486 0.950 . S
H1512 C1488 0.950 . S
H1513 C1489 0.949 . S
H1514 C1491 0.950 . S
H1515 C1493 0.950 . S
C1516 C1517 1.349 . S
C1516 C1518 1.327 . S
C1516 H1541 0.950 . S
C1517 C1516 1.349 . S
C1517 C1533 1.349 . S
C1518 C1516 1.327 . S
C1518 C1537 1.429 . S
C1518 H1542 0.950 . S
C1519 C1536 1.574 . S
C1519 C1538 1.368 . S
C1519 H1543 0.949 . S
H1520 C1524 0.949 . S
C1521 C1522 1.349 . S
C1521 C1523 1.327 . S
C1521 H1544 0.950 . S
C1522 C1521 1.349 . S
C1522 C1534 1.349 . S
C1523 C1521 1.327 . S
C1523 C1539 1.429 . S
C1523 H1545 0.950 . S
C1524 H1520 0.949 . S
C1524 C1532 1.574 . S
C1524 C1540 1.368 . S
H1525 C1533 0.950 . S
H1526 C1531 0.950 . S
H1527 C1532 0.949 . S
H1528 C1534 0.950 . S
H1529 C1535 0.950 . S
H1530 C1536 0.949 . S
C1531 H1526 0.950 . S
C1531 C1533 1.327 . S
C1531 C1537 1.429 . S
C1532 C1524 1.574 . S
C1532 H1527 0.949 . S
C1532 C1538 1.368 . S
C1533 C1517 1.349 . S
C1533 H1525 0.950 . S
C1533 C1531 1.327 . S
C1534 C1522 1.349 . S
C1534 H1528 0.950 . S
C1534 C1535 1.327 . S
C1535 H1529 0.950 . S
C1535 C1534 1.327 . S
C1535 C1539 1.429 . S
C1536 C1519 1.574 . S
C1536 H1530 0.949 . S
C1536 C1540 1.368 . S
C1537 C1518 1.429 . S
C1537 C1531 1.429 . S
C1537 C1538 1.523 . S
C1538 C1519 1.368 . S
C1538 C1532 1.368 . S
C1538 C1537 1.523 . S
C1539 C1523 1.429 . S
C1539 C1535 1.429 . S
C1539 C1540 1.523 . S
C1540 C1524 1.368 . S
C1540 C1536 1.368 . S
C1540 C1539 1.523 . S
H1541 C1516 0.950 . S
H1542 C1518 0.950 . S
H1543 C1519 0.949 . S
H1544 C1521 0.950 . S
H1545 C1523 0.950 . S
C1546 C1547 1.349 . S
C1546 C1548 1.327 . S
C1546 H1571 0.950 . S
C1547 C1546 1.349 . S
C1547 C1563 1.349 . S
C1548 C1546 1.327 . S
C1548 C1567 1.429 . S
C1548 H1572 0.950 . S
C1549 C1566 1.574 . S
C1549 C1568 1.368 . S
C1549 H1573 0.949 . S
H1550 C1554 0.949 . S
C1551 C1552 1.349 . S
C1551 C1553 1.327 . S
C1551 H1574 0.950 . S
C1552 C1551 1.349 . S
C1552 C1564 1.349 . S
C1553 C1551 1.327 . S
C1553 C1569 1.429 . S
C1553 H1575 0.950 . S
C1554 H1550 0.949 . S
C1554 C1562 1.574 . S
C1554 C1570 1.368 . S
H1555 C1563 0.950 . S
H1556 C1561 0.950 . S
H1557 C1562 0.949 . S
H1558 C1564 0.950 . S
H1559 C1565 0.950 . S
H1560 C1566 0.949 . S
C1561 H1556 0.950 . S
C1561 C1563 1.327 . S
C1561 C1567 1.429 . S
C1562 C1554 1.574 . S
C1562 H1557 0.949 . S
C1562 C1568 1.368 . S
C1563 C1547 1.349 . S
C1563 H1555 0.950 . S
C1563 C1561 1.327 . S
C1564 C1552 1.349 . S
C1564 H1558 0.950 . S
C1564 C1565 1.327 . S
C1565 H1559 0.950 . S
C1565 C1564 1.327 . S
C1565 C1569 1.429 . S
C1566 C1549 1.574 . S
C1566 H1560 0.949 . S
C1566 C1570 1.368 . S
C1567 C1548 1.429 . S
C1567 C1561 1.429 . S
C1567 C1568 1.523 . S
C1568 C1549 1.368 . S
C1568 C1562 1.368 . S
C1568 C1567 1.523 . S
C1569 C1553 1.429 . S
C1569 C1565 1.429 . S
C1569 C1570 1.523 . S
C1570 C1554 1.368 . S
C1570 C1566 1.368 . S
C1570 C1569 1.523 . S
H1571 C1546 0.950 . S
H1572 C1548 0.950 . S
H1573 C1549 0.949 . S
H1574 C1551 0.950 . S
H1575 C1553 0.950 . S
C1576 C1577 1.349 . S
C1576 C1578 1.327 . S
C1576 H1601 0.950 . S
C1577 C1576 1.349 . S
C1577 C1593 1.349 . S
C1578 C1576 1.327 . S
C1578 C1597 1.429 . S
C1578 H1602 0.950 . S
C1579 C1596 1.574 . S
C1579 C1598 1.368 . S
C1579 H1603 0.949 . S
H1580 C1584 0.949 . S
C1581 C1582 1.349 . S
C1581 C1583 1.327 . S
C1581 H1604 0.950 . S
C1582 C1581 1.349 . S
C1582 C1594 1.349 . S
C1583 C1581 1.327 . S
C1583 C1599 1.429 . S
C1583 H1605 0.950 . S
C1584 H1580 0.949 . S
C1584 C1592 1.574 . S
C1584 C1600 1.368 . S
H1585 C1593 0.950 . S
H1586 C1591 0.950 . S
H1587 C1592 0.949 . S
H1588 C1594 0.950 . S
H1589 C1595 0.950 . S
H1590 C1596 0.949 . S
C1591 H1586 0.950 . S
C1591 C1593 1.327 . S
C1591 C1597 1.429 . S
C1592 C1584 1.574 . S
C1592 H1587 0.949 . S
C1592 C1598 1.368 . S
C1593 C1577 1.349 . S
C1593 H1585 0.950 . S
C1593 C1591 1.327 . S
C1594 C1582 1.349 . S
C1594 H1588 0.950 . S
C1594 C1595 1.327 . S
C1595 H1589 0.950 . S
C1595 C1594 1.327 . S
C1595 C1599 1.429 . S
C1596 C1579 1.574 . S
C1596 H1590 0.949 . S
C1596 C1600 1.368 . S
C1597 C1578 1.429 . S
C1597 C1591 1.429 . S
C1597 C1598 1.523 . S
C1598 C1579 1.368 . S
C1598 C1592 1.368 . S
C1598 C1597 1.523 . S
C1599 C1583 1.429 . S
C1599 C1595 1.429 . S
C1599 C1600 1.523 . S
C1600 C1584 1.368 . S
C1600 C1596 1.368 . S
C1600 C1599 1.523 . S
H1601 C1576 0.950 . S
H1602 C1578 0.950 . S
H1603 C1579 0.949 . S
H1604 C1581 0.950 . S
H1605 C1583 0.950 . S
C1606 C1607 1.349 . S
C1606 C1608 1.327 . S
C1606 H1631 0.950 . S
C1607 C1606 1.349 . S
C1607 C1623 1.349 . S
C1608 C1606 1.327 . S
C1608 C1627 1.429 . S
C1608 H1632 0.950 . S
C1609 C1626 1.574 . S
C1609 C1628 1.368 . S
C1609 H1633 0.949 . S
H1610 C1614 0.949 . S
C1611 C1612 1.349 . S
C1611 C1613 1.327 . S
C1611 H1634 0.950 . S
C1612 C1611 1.349 . S
C1612 C1624 1.349 . S
C1613 C1611 1.327 . S
C1613 C1629 1.429 . S
C1613 H1635 0.950 . S
C1614 H1610 0.949 . S
C1614 C1622 1.574 . S
C1614 C1630 1.368 . S
H1615 C1623 0.950 . S
H1616 C1621 0.950 . S
H1617 C1622 0.949 . S
H1618 C1624 0.950 . S
H1619 C1625 0.950 . S
H1620 C1626 0.949 . S
C1621 H1616 0.950 . S
C1621 C1623 1.327 . S
C1621 C1627 1.429 . S
C1622 C1614 1.574 . S
C1622 H1617 0.949 . S
C1622 C1628 1.368 . S
C1623 C1607 1.349 . S
C1623 H1615 0.950 . S
C1623 C1621 1.327 . S
C1624 C1612 1.349 . S
C1624 H1618 0.950 . S
C1624 C1625 1.327 . S
C1625 H1619 0.950 . S
C1625 C1624 1.327 . S
C1625 C1629 1.429 . S
C1626 C1609 1.574 . S
C1626 H1620 0.949 . S
C1626 C1630 1.368 . S
C1627 C1608 1.429 . S
C1627 C1621 1.429 . S
C1627 C1628 1.523 . S
C1628 C1609 1.368 . S
C1628 C1622 1.368 . S
C1628 C1627 1.523 . S
C1629 C1613 1.429 . S
C1629 C1625 1.429 . S
C1629 C1630 1.523 . S
C1630 C1614 1.368 . S
C1630 C1626 1.368 . S
C1630 C1629 1.523 . S
H1631 C1606 0.950 . S
H1632 C1608 0.950 . S
H1633 C1609 0.949 . S
H1634 C1611 0.950 . S
H1635 C1613 0.950 . S
C1636 C1637 1.349 . S
C1636 C1638 1.327 . S
C1636 H1661 0.950 . S
C1637 C1636 1.349 . S
C1637 C1653 1.349 . S
C1638 C1636 1.327 . S
C1638 C1657 1.429 . S
C1638 H1662 0.950 . S
C1639 C1656 1.574 . S
C1639 C1658 1.368 . S
C1639 H1663 0.949 . S
H1640 C1644 0.949 . S
C1641 C1642 1.349 . S
C1641 C1643 1.327 . S
C1641 H1664 0.950 . S
C1642 C1641 1.349 . S
C1642 C1654 1.349 . S
C1643 C1641 1.327 . S
C1643 C1659 1.429 . S
C1643 H1665 0.950 . S
C1644 H1640 0.949 . S
C1644 C1652 1.574 . S
C1644 C1660 1.368 . S
H1645 C1653 0.950 . S
H1646 C1651 0.950 . S
H1647 C1652 0.949 . S
H1648 C1654 0.950 . S
H1649 C1655 0.950 . S
H1650 C1656 0.949 . S
C1651 H1646 0.950 . S
C1651 C1653 1.327 . S
C1651 C1657 1.429 . S
C1652 C1644 1.574 . S
C1652 H1647 0.949 . S
C1652 C1658 1.368 . S
C1653 C1637 1.349 . S
C1653 H1645 0.950 . S
C1653 C1651 1.327 . S
C1654 C1642 1.349 . S
C1654 H1648 0.950 . S
C1654 C1655 1.327 . S
C1655 H1649 0.950 . S
C1655 C1654 1.327 . S
C1655 C1659 1.429 . S
C1656 C1639 1.574 . S
C1656 H1650 0.949 . S
C1656 C1660 1.368 . S
C1657 C1638 1.429 . S
C1657 C1651 1.429 . S
C1657 C1658 1.523 . S
C1658 C1639 1.368 . S
C1658 C1652 1.368 . S
C1658 C1657 1.523 . S
C1659 C1643 1.429 . S
C1659 C1655 1.429 . S
C1659 C1660 1.523 . S
C1660 C1644 1.368 . S
C1660 C1656 1.368 . S
C1660 C1659 1.523 . S
H1661 C1636 0.950 . S
H1662 C1638 0.950 . S
H1663 C1639 0.949 . S
H1664 C1641 0.950 . S
H1665 C1643 0.950 . S
C1666 C1667 1.349 . S
C1666 C1668 1.327 . S
C1666 H1691 0.950 . S
C1667 C1666 1.349 . S
C1667 C1683 1.349 . S
C1668 C1666 1.327 . S
C1668 C1687 1.429 . S
C1668 H1692 0.950 . S
C1669 C1686 1.574 . S
C1669 C1688 1.368 . S
C1669 H1693 0.949 . S
H1670 C1674 0.949 . S
C1671 C1672 1.349 . S
C1671 C1673 1.327 . S
C1671 H1694 0.950 . S
C1672 C1671 1.349 . S
C1672 C1684 1.349 . S
C1673 C1671 1.327 . S
C1673 C1689 1.429 . S
C1673 H1695 0.950 . S
C1674 H1670 0.949 . S
C1674 C1682 1.574 . S
C1674 C1690 1.368 . S
H1675 C1683 0.950 . S
H1676 C1681 0.950 . S
H1677 C1682 0.949 . S
H1678 C1684 0.950 . S
H1679 C1685 0.950 . S
H1680 C1686 0.949 . S
C1681 H1676 0.950 . S
C1681 C1683 1.327 . S
C1681 C1687 1.429 . S
C1682 C1674 1.574 . S
C1682 H1677 0.949 . S
C1682 C1688 1.368 . S
C1683 C1667 1.349 . S
C1683 H1675 0.950 . S
C1683 C1681 1.327 . S
C1684 C1672 1.349 . S
C1684 H1678 0.950 . S
C1684 C1685 1.327 . S
C1685 H1679 0.950 . S
C1685 C1684 1.327 . S
C1685 C1689 1.429 . S
C1686 C1669 1.574 . S
C1686 H1680 0.949 . S
C1686 C1690 1.368 . S
C1687 C1668 1.429 . S
C1687 C1681 1.429 . S
C1687 C1688 1.523 . S
C1688 C1669 1.368 . S
C1688 C1682 1.368 . S
C1688 C1687 1.523 . S
C1689 C1673 1.429 . S
C1689 C1685 1.429 . S
C1689 C1690 1.523 . S
C1690 C1674 1.368 . S
C1690 C1686 1.368 . S
C1690 C1689 1.523 . S
H1691 C1666 0.950 . S
H1692 C1668 0.950 . S
H1693 C1669 0.949 . S
H1694 C1671 0.950 . S
H1695 C1673 0.950 . S
C1696 C1697 1.349 . S
C1696 C1698 1.327 . S
C1696 H1721 0.950 . S
C1697 C1696 1.349 . S
C1697 C1713 1.349 . S
C1698 C1696 1.327 . S
C1698 C1717 1.429 . S
C1698 H1722 0.950 . S
C1699 C1716 1.574 . S
C1699 C1718 1.368 . S
C1699 H1723 0.949 . S
H1700 C1704 0.949 . S
C1701 C1702 1.349 . S
C1701 C1703 1.327 . S
C1701 H1724 0.950 . S
C1702 C1701 1.349 . S
C1702 C1714 1.349 . S
C1703 C1701 1.327 . S
C1703 C1719 1.429 . S
C1703 H1725 0.950 . S
C1704 H1700 0.949 . S
C1704 C1712 1.574 . S
C1704 C1720 1.368 . S
H1705 C1713 0.950 . S
H1706 C1711 0.950 . S
H1707 C1712 0.949 . S
H1708 C1714 0.950 . S
H1709 C1715 0.950 . S
H1710 C1716 0.949 . S
C1711 H1706 0.950 . S
C1711 C1713 1.327 . S
C1711 C1717 1.429 . S
C1712 C1704 1.574 . S
C1712 H1707 0.949 . S
C1712 C1718 1.368 . S
C1713 C1697 1.349 . S
C1713 H1705 0.950 . S
C1713 C1711 1.327 . S
C1714 C1702 1.349 . S
C1714 H1708 0.950 . S
C1714 C1715 1.327 . S
C1715 H1709 0.950 . S
C1715 C1714 1.327 . S
C1715 C1719 1.429 . S
C1716 C1699 1.574 . S
C1716 H1710 0.949 . S
C1716 C1720 1.368 . S
C1717 C1698 1.429 . S
C1717 C1711 1.429 . S
C1717 C1718 1.523 . S
C1718 C1699 1.368 . S
C1718 C1712 1.368 . S
C1718 C1717 1.523 . S
C1719 C1703 1.429 . S
C1719 C1715 1.429 . S
C1719 C1720 1.523 . S
C1720 C1704 1.368 . S
C1720 C1716 1.368 . S
C1720 C1719 1.523 . S
H1721 C1696 0.950 . S
H1722 C1698 0.950 . S
H1723 C1699 0.949 . S
H1724 C1701 0.950 . S
H1725 C1703 0.950 . S
C1726 C1727 1.349 . S
C1726 C1728 1.327 . S
C1726 H1751 0.950 . S
C1727 C1726 1.349 . S
C1727 C1743 1.349 . S
C1728 C1726 1.327 . S
C1728 C1747 1.429 . S
C1728 H1752 0.950 . S
C1729 C1746 1.574 . S
C1729 C1748 1.368 . S
C1729 H1753 0.949 . S
H1730 C1734 0.949 . S
C1731 C1732 1.349 . S
C1731 C1733 1.327 . S
C1731 H1754 0.950 . S
C1732 C1731 1.349 . S
C1732 C1744 1.349 . S
C1733 C1731 1.327 . S
C1733 C1749 1.429 . S
C1733 H1755 0.950 . S
C1734 H1730 0.949 . S
C1734 C1742 1.574 . S
C1734 C1750 1.368 . S
H1735 C1743 0.950 . S
H1736 C1741 0.950 . S
H1737 C1742 0.949 . S
H1738 C1744 0.950 . S
H1739 C1745 0.950 . S
H1740 C1746 0.949 . S
C1741 H1736 0.950 . S
C1741 C1743 1.327 . S
C1741 C1747 1.429 . S
C1742 C1734 1.574 . S
C1742 H1737 0.949 . S
C1742 C1748 1.368 . S
C1743 C1727 1.349 . S
C1743 H1735 0.950 . S
C1743 C1741 1.327 . S
C1744 C1732 1.349 . S
C1744 H1738 0.950 . S
C1744 C1745 1.327 . S
C1745 H1739 0.950 . S
C1745 C1744 1.327 . S
C1745 C1749 1.429 . S
C1746 C1729 1.574 . S
C1746 H1740 0.949 . S
C1746 C1750 1.368 . S
C1747 C1728 1.429 . S
C1747 C1741 1.429 . S
C1747 C1748 1.523 . S
C1748 C1729 1.368 . S
C1748 C1742 1.368 . S
C1748 C1747 1.523 . S
C1749 C1733 1.429 . S
C1749 C1745 1.429 . S
C1749 C1750 1.523 . S
C1750 C1734 1.368 . S
C1750 C1746 1.368 . S
C1750 C1749 1.523 . S
H1751 C1726 0.950 . S
H1752 C1728 0.950 . S
H1753 C1729 0.949 . S
H1754 C1731 0.950 . S
H1755 C1733 0.950 . S
C1756 C1757 1.349 . S
C1756 C1758 1.327 . S
C1756 H1781 0.950 . S
C1757 C1756 1.349 . S
C1757 C1773 1.349 . S
C1758 C1756 1.327 . S
C1758 C1777 1.429 . S
C1758 H1782 0.950 . S
C1759 C1776 1.574 . S
C1759 C1778 1.368 . S
C1759 H1783 0.949 . S
H1760 C1764 0.949 . S
C1761 C1762 1.349 . S
C1761 C1763 1.327 . S
C1761 H1784 0.950 . S
C1762 C1761 1.349 . S
C1762 C1774 1.349 . S
C1763 C1761 1.327 . S
C1763 C1779 1.429 . S
C1763 H1785 0.950 . S
C1764 H1760 0.949 . S
C1764 C1772 1.574 . S
C1764 C1780 1.368 . S
H1765 C1773 0.950 . S
H1766 C1771 0.950 . S
H1767 C1772 0.949 . S
H1768 C1774 0.950 . S
H1769 C1775 0.950 . S
H1770 C1776 0.949 . S
C1771 H1766 0.950 . S
C1771 C1773 1.327 . S
C1771 C1777 1.429 . S
C1772 C1764 1.574 . S
C1772 H1767 0.949 . S
C1772 C1778 1.368 . S
C1773 C1757 1.349 . S
C1773 H1765 0.950 . S
C1773 C1771 1.327 . S
C1774 C1762 1.349 . S
C1774 H1768 0.950 . S
C1774 C1775 1.327 . S
C1775 H1769 0.950 . S
C1775 C1774 1.327 . S
C1775 C1779 1.429 . S
C1776 C1759 1.574 . S
C1776 H1770 0.949 . S
C1776 C1780 1.368 . S
C1777 C1758 1.429 . S
C1777 C1771 1.429 . S
C1777 C1778 1.523 . S
C1778 C1759 1.368 . S
C1778 C1772 1.368 . S
C1778 C1777 1.523 . S
C1779 C1763 1.429 . S
C1779 C1775 1.429 . S
C1779 C1780 1.523 . S
C1780 C1764 1.368 . S
C1780 C1776 1.368 . S
C1780 C1779 1.523 . S
H1781 C1756 0.950 . S
H1782 C1758 0.950 . S
H1783 C1759 0.949 . S
H1784 C1761 0.950 . S
H1785 C1763 0.950 . S
C1786 C1787 1.349 . S
C1786 C1788 1.327 . S
C1786 H1811 0.950 . S
C1787 C1786 1.349 . S
C1787 C1803 1.349 . S
C1788 C1786 1.327 . S
C1788 C1807 1.429 . S
C1788 H1812 0.950 . S
C1789 C1806 1.574 . S
C1789 C1808 1.368 . S
C1789 H1813 0.949 . S
H1790 C1794 0.949 . S
C1791 C1792 1.349 . S
C1791 C1793 1.327 . S
C1791 H1814 0.950 . S
C1792 C1791 1.349 . S
C1792 C1804 1.349 . S
C1793 C1791 1.327 . S
C1793 C1809 1.429 . S
C1793 H1815 0.950 . S
C1794 H1790 0.949 . S
C1794 C1802 1.574 . S
C1794 C1810 1.368 . S
H1795 C1803 0.950 . S
H1796 C1801 0.950 . S
H1797 C1802 0.949 . S
H1798 C1804 0.950 . S
H1799 C1805 0.950 . S
H1800 C1806 0.949 . S
C1801 H1796 0.950 . S
C1801 C1803 1.327 . S
C1801 C1807 1.429 . S
C1802 C1794 1.574 . S
C1802 H1797 0.949 . S
C1802 C1808 1.368 . S
C1803 C1787 1.349 . S
C1803 H1795 0.950 . S
C1803 C1801 1.327 . S
C1804 C1792 1.349 . S
C1804 H1798 0.950 . S
C1804 C1805 1.327 . S
C1805 H1799 0.950 . S
C1805 C1804 1.327 . S
C1805 C1809 1.429 . S
C1806 C1789 1.574 . S
C1806 H1800 0.949 . S
C1806 C1810 1.368 . S
C1807 C1788 1.429 . S
C1807 C1801 1.429 . S
C1807 C1808 1.523 . S
C1808 C1789 1.368 . S
C1808 C1802 1.368 . S
C1808 C1807 1.523 . S
C1809 C1793 1.429 . S
C1809 C1805 1.429 . S
C1809 C1810 1.523 . S
C1810 C1794 1.368 . S
C1810 C1806 1.368 . S
C1810 C1809 1.523 . S
H1811 C1786 0.950 . S
H1812 C1788 0.950 . S
H1813 C1789 0.949 . S
H1814 C1791 0.950 . S
H1815 C1793 0.950 . S
C1816 C1817 1.349 . S
C1816 C1818 1.327 . S
C1816 H1841 0.950 . S
C1817 C1816 1.349 . S
C1817 C1833 1.349 . S
C1818 C1816 1.327 . S
C1818 C1837 1.429 . S
C1818 H1842 0.950 . S
C1819 C1836 1.574 . S
C1819 C1838 1.368 . S
C1819 H1843 0.949 . S
H1820 C1824 0.949 . S
C1821 C1822 1.349 . S
C1821 C1823 1.327 . S
C1821 H1844 0.950 . S
C1822 C1821 1.349 . S
C1822 C1834 1.349 . S
C1823 C1821 1.327 . S
C1823 C1839 1.429 . S
C1823 H1845 0.950 . S
C1824 H1820 0.949 . S
C1824 C1832 1.574 . S
C1824 C1840 1.368 . S
H1825 C1833 0.950 . S
H1826 C1831 0.950 . S
H1827 C1832 0.949 . S
H1828 C1834 0.950 . S
H1829 C1835 0.950 . S
H1830 C1836 0.949 . S
C1831 H1826 0.950 . S
C1831 C1833 1.327 . S
C1831 C1837 1.429 . S
C1832 C1824 1.574 . S
C1832 H1827 0.949 . S
C1832 C1838 1.368 . S
C1833 C1817 1.349 . S
C1833 H1825 0.950 . S
C1833 C1831 1.327 . S
C1834 C1822 1.349 . S
C1834 H1828 0.950 . S
C1834 C1835 1.327 . S
C1835 H1829 0.950 . S
C1835 C1834 1.327 . S
C1835 C1839 1.429 . S
C1836 C1819 1.574 . S
C1836 H1830 0.949 . S
C1836 C1840 1.368 . S
C1837 C1818 1.429 . S
C1837 C1831 1.429 . S
C1837 C1838 1.523 . S
C1838 C1819 1.368 . S
C1838 C1832 1.368 . S
C1838 C1837 1.523 . S
C1839 C1823 1.429 . S
C1839 C1835 1.429 . S
C1839 C1840 1.523 . S
C1840 C1824 1.368 . S
C1840 C1836 1.368 . S
C1840 C1839 1.523 . S
H1841 C1816 0.950 . S
H1842 C1818 0.950 . S
H1843 C1819 0.949 . S
H1844 C1821 0.950 . S
H1845 C1823 0.950 . S
C1846 C1847 1.349 . S
C1846 C1848 1.327 . S
C1846 H1871 0.950 . S
C1847 C1846 1.349 . S
C1847 C1863 1.349 . S
C1848 C1846 1.327 . S
C1848 C1867 1.429 . S
C1848 H1872 0.950 . S
C1849 C1866 1.574 . S
C1849 C1868 1.368 . S
C1849 H1873 0.949 . S
H1850 C1854 0.949 . S
C1851 C1852 1.349 . S
C1851 C1853 1.327 . S
C1851 H1874 0.950 . S
C1852 C1851 1.349 . S
C1852 C1864 1.349 . S
C1853 C1851 1.327 . S
C1853 C1869 1.429 . S
C1853 H1875 0.950 . S
C1854 H1850 0.949 . S
C1854 C1862 1.574 . S
C1854 C1870 1.368 . S
H1855 C1863 0.950 . S
H1856 C1861 0.950 . S
H1857 C1862 0.949 . S
H1858 C1864 0.950 . S
H1859 C1865 0.950 . S
H1860 C1866 0.949 . S
C1861 H1856 0.950 . S
C1861 C1863 1.327 . S
C1861 C1867 1.429 . S
C1862 C1854 1.574 . S
C1862 H1857 0.949 . S
C1862 C1868 1.368 . S
C1863 C1847 1.349 . S
C1863 H1855 0.950 . S
C1863 C1861 1.327 . S
C1864 C1852 1.349 . S
C1864 H1858 0.950 . S
C1864 C1865 1.327 . S
C1865 H1859 0.950 . S
C1865 C1864 1.327 . S
C1865 C1869 1.429 . S
C1866 C1849 1.574 . S
C1866 H1860 0.949 . S
C1866 C1870 1.368 . S
C1867 C1848 1.429 . S
C1867 C1861 1.429 . S
C1867 C1868 1.523 . S
C1868 C1849 1.368 . S
C1868 C1862 1.368 . S
C1868 C1867 1.523 . S
C1869 C1853 1.429 . S
C1869 C1865 1.429 . S
C1869 C1870 1.523 . S
C1870 C1854 1.368 . S
C1870 C1866 1.368 . S
C1870 C1869 1.523 . S
H1871 C1846 0.950 . S
H1872 C1848 0.950 . S
H1873 C1849 0.949 . S
H1874 C1851 0.950 . S
H1875 C1853 0.950 . S
C1876 C1877 1.349 . S
C1876 C1878 1.327 . S
C1876 H1901 0.950 . S
C1877 C1876 1.349 . S
C1877 C1893 1.349 . S
C1878 C1876 1.327 . S
C1878 C1897 1.429 . S
C1878 H1902 0.950 . S
C1879 C1896 1.574 . S
C1879 C1898 1.368 . S
C1879 H1903 0.949 . S
H1880 C1884 0.949 . S
C1881 C1882 1.349 . S
C1881 C1883 1.327 . S
C1881 H1904 0.950 . S
C1882 C1881 1.349 . S
C1882 C1894 1.349 . S
C1883 C1881 1.327 . S
C1883 C1899 1.429 . S
C1883 H1905 0.950 . S
C1884 H1880 0.949 . S
C1884 C1892 1.574 . S
C1884 C1900 1.368 . S
H1885 C1893 0.950 . S
H1886 C1891 0.950 . S
H1887 C1892 0.949 . S
H1888 C1894 0.950 . S
H1889 C1895 0.950 . S
H1890 C1896 0.949 . S
C1891 H1886 0.950 . S
C1891 C1893 1.327 . S
C1891 C1897 1.429 . S
C1892 C1884 1.574 . S
C1892 H1887 0.949 . S
C1892 C1898 1.368 . S
C1893 C1877 1.349 . S
C1893 H1885 0.950 . S
C1893 C1891 1.327 . S
C1894 C1882 1.349 . S
C1894 H1888 0.950 . S
C1894 C1895 1.327 . S
C1895 H1889 0.950 . S
C1895 C1894 1.327 . S
C1895 C1899 1.429 . S
C1896 C1879 1.574 . S
C1896 H1890 0.949 . S
C1896 C1900 1.368 . S
C1897 C1878 1.429 . S
C1897 C1891 1.429 . S
C1897 C1898 1.523 . S
C1898 C1879 1.368 . S
C1898 C1892 1.368 . S
C1898 C1897 1.523 . S
C1899 C1883 1.429 . S
C1899 C1895 1.429 . S
C1899 C1900 1.523 . S
C1900 C1884 1.368 . S
C1900 C1896 1.368 . S
C1900 C1899 1.523 . S
H1901 C1876 0.950 . S
H1902 C1878 0.950 . S
H1903 C1879 0.949 . S
H1904 C1881 0.950 . S
H1905 C1883 0.950 . S
C1906 C1907 1.349 . S
C1906 C1908 1.327 . S
C1906 H1931 0.950 . S
C1907 C1906 1.349 . S
C1907 C1923 1.349 . S
C1908 C1906 1.327 . S
C1908 C1927 1.429 . S
C1908 H1932 0.950 . S
C1909 C1926 1.574 . S
C1909 C1928 1.368 . S
C1909 H1933 0.949 . S
H1910 C1914 0.949 . S
C1911 C1912 1.349 . S
C1911 C1913 1.327 . S
C1911 H1934 0.950 . S
C1912 C1911 1.349 . S
C1912 C1924 1.349 . S
C1913 C1911 1.327 . S
C1913 C1929 1.429 . S
C1913 H1935 0.950 . S
C1914 H1910 0.949 . S
C1914 C1922 1.574 . S
C1914 C1930 1.368 . S
H1915 C1923 0.950 . S
H1916 C1921 0.950 . S
H1917 C1922 0.949 . S
H1918 C1924 0.950 . S
H1919 C1925 0.950 . S
H1920 C1926 0.949 . S
C1921 H1916 0.950 . S
C1921 C1923 1.327 . S
C1921 C1927 1.429 . S
C1922 C1914 1.574 . S
C1922 H1917 0.949 . S
C1922 C1928 1.368 . S
C1923 C1907 1.349 . S
C1923 H1915 0.950 . S
C1923 C1921 1.327 . S
C1924 C1912 1.349 . S
C1924 H1918 0.950 . S
C1924 C1925 1.327 . S
C1925 H1919 0.950 . S
C1925 C1924 1.327 . S
C1925 C1929 1.429 . S
C1926 C1909 1.574 . S
C1926 H1920 0.949 . S
C1926 C1930 1.368 . S
C1927 C1908 1.429 . S
C1927 C1921 1.429 . S
C1927 C1928 1.523 . S
C1928 C1909 1.368 . S
C1928 C1922 1.368 . S
C1928 C1927 1.523 . S
C1929 C1913 1.429 . S
C1929 C1925 1.429 . S
C1929 C1930 1.523 . S
C1930 C1914 1.368 . S
C1930 C1926 1.368 . S
C1930 C1929 1.523 . S
H1931 C1906 0.950 . S
H1932 C1908 0.950 . S
H1933 C1909 0.949 . S
H1934 C1911 0.950 . S
H1935 C1913 0.950 . S
C1936 C1937 1.349 1_565 S
C1936 C1938 1.327 . S
C1936 H1961 0.950 . S
C1937 C1936 1.349 1_545 S
C1937 C1953 1.349 . S
C1938 C1936 1.327 . S
C1938 C1957 1.391 1_565 S
C1938 H1962 0.990 . S
C1939 C1956 1.574 . S
C1939 C1958 1.368 . S
C1939 H1963 0.949 . S
H1940 C1944 0.949 1_565 S
C1941 C1942 1.349 . S
C1941 C1943 1.327 . S
C1941 H1964 0.950 . S
C1942 C1941 1.349 . S
C1942 C1954 1.349 . S
C1943 C1941 1.327 . S
C1943 C1959 1.429 . S
C1943 H1965 0.950 . S
C1944 H1940 0.949 1_545 S
C1944 C1952 1.574 . S
C1944 C1960 1.368 . S
H1945 C1953 0.950 . S
H1946 C1951 0.950 . S
H1947 C1952 0.949 1_565 S
H1948 C1954 0.910 1_565 S
H1949 C1955 0.950 1_565 S
H1950 C1956 0.949 . S
C1951 H1946 0.950 . S
C1951 C1953 1.327 . S
C1951 C1957 1.429 . S
C1952 C1944 1.574 . S
C1952 H1947 0.949 1_545 S
C1952 C1958 1.368 . S
C1953 C1937 1.349 . S
C1953 H1945 0.950 . S
C1953 C1951 1.327 . S
C1954 C1942 1.349 . S
C1954 H1948 0.910 1_545 S
C1954 C1955 1.327 . S
C1955 H1949 0.950 1_545 S
C1955 C1954 1.327 . S
C1955 C1959 1.429 . S
C1956 C1939 1.574 . S
C1956 H1950 0.949 . S
C1956 C1960 1.368 . S
C1957 C1938 1.391 1_545 S
C1957 C1951 1.429 . S
C1957 C1958 1.523 . S
C1958 C1939 1.368 . S
C1958 C1952 1.368 . S
C1958 C1957 1.523 . S
C1959 C1943 1.429 . S
C1959 C1955 1.429 . S
C1959 C1960 1.523 . S
C1960 C1944 1.368 . S
C1960 C1956 1.368 . S
C1960 C1959 1.523 . S
H1961 C1936 0.950 . S
H1962 C1938 0.990 . S
H1963 C1939 0.949 . S
H1964 C1941 0.950 . S
H1965 C1943 0.950 . S
C1966 C1967 1.349 . S
C1966 C1968 1.327 . S
C1966 H1991 0.950 . S
C1967 C1966 1.349 . S
C1967 C1983 1.349 . S
C1968 C1966 1.327 . S
C1968 C1987 1.429 . S
C1968 H1992 0.950 . S
C1969 C1986 1.574 . S
C1969 C1988 1.368 . S
C1969 H1993 0.949 . S
H1970 C1974 0.949 . S
C1971 C1972 1.349 . S
C1971 C1973 1.327 . S
C1971 H1994 0.950 . S
C1972 C1971 1.349 . S
C1972 C1984 1.349 . S
C1973 C1971 1.327 . S
C1973 C1989 1.429 . S
C1973 H1995 0.950 . S
C1974 H1970 0.949 . S
C1974 C1982 1.574 . S
C1974 C1990 1.368 . S
H1975 C1983 0.950 . S
H1976 C1981 0.950 . S
H1977 C1982 0.949 . S
H1978 C1984 0.950 . S
H1979 C1985 0.950 . S
H1980 C1986 0.949 . S
C1981 H1976 0.950 . S
C1981 C1983 1.327 . S
C1981 C1987 1.429 . S
C1982 C1974 1.574 . S
C1982 H1977 0.949 . S
C1982 C1988 1.368 . S
C1983 C1967 1.349 . S
C1983 H1975 0.950 . S
C1983 C1981 1.327 . S
C1984 C1972 1.349 . S
C1984 H1978 0.950 . S
C1984 C1985 1.327 . S
C1985 H1979 0.950 . S
C1985 C1984 1.327 . S
C1985 C1989 1.429 . S
C1986 C1969 1.574 . S
C1986 H1980 0.949 . S
C1986 C1990 1.368 . S
C1987 C1968 1.429 . S
C1987 C1981 1.429 . S
C1987 C1988 1.523 . S
C1988 C1969 1.368 . S
C1988 C1982 1.368 . S
C1988 C1987 1.523 . S
C1989 C1973 1.429 . S
C1989 C1985 1.429 . S
C1989 C1990 1.523 . S
C1990 C1974 1.368 . S
C1990 C1986 1.368 . S
C1990 C1989 1.523 . S
H1991 C1966 0.950 . S
H1992 C1968 0.950 . S
H1993 C1969 0.949 . S
H1994 C1971 0.950 . S
H1995 C1973 0.950 . S
C1996 C1997 1.341 1_565 S
C1996 C1998 1.329 1_565 S
C1996 H2021 0.956 . S
C1997 C1996 1.341 1_545 S
C1997 C2013 1.349 . S
C1998 C1996 1.329 1_545 S
C1998 C2017 1.429 . S
C1998 H2022 0.950 1_545 S
C1999 C2016 1.574 . S
C1999 C2018 1.368 . S
C1999 H2023 0.949 . S
H2000 C2004 0.949 1_565 S
C2001 C2002 1.349 . S
C2001 C2003 1.327 . S
C2001 H2024 0.950 . S
C2002 C2001 1.349 . S
C2002 C2014 1.349 . S
C2003 C2001 1.327 . S
C2003 C2019 1.429 . S
C2003 H2025 0.950 . S
C2004 H2000 0.949 1_545 S
C2004 C2012 1.574 . S
C2004 C2020 1.368 . S
H2005 C2013 0.950 . S
H2006 C2011 0.950 . S
H2007 C2012 0.949 1_565 S
H2008 C2014 0.950 . S
H2009 C2015 0.950 . S
H2010 C2016 0.949 . S
C2011 H2006 0.950 . S
C2011 C2013 1.327 . S
C2011 C2017 1.429 . S
C2012 C2004 1.574 . S
C2012 H2007 0.949 1_545 S
C2012 C2018 1.368 . S
C2013 C1997 1.349 . S
C2013 H2005 0.950 . S
C2013 C2011 1.327 . S
C2014 C2002 1.349 . S
C2014 H2008 0.950 . S
C2014 C2015 1.327 . S
C2015 H2009 0.950 . S
C2015 C2014 1.327 . S
C2015 C2019 1.429 . S
C2016 C1999 1.574 . S
C2016 H2010 0.949 . S
C2016 C2020 1.368 . S
C2017 C1998 1.429 . S
C2017 C2011 1.429 . S
C2017 C2018 1.523 . S
C2018 C1999 1.368 . S
C2018 C2012 1.368 . S
C2018 C2017 1.523 . S
C2019 C2003 1.429 . S
C2019 C2015 1.429 . S
C2019 C2020 1.523 . S
C2020 C2004 1.368 . S
C2020 C2016 1.368 . S
C2020 C2019 1.523 . S
H2021 C1996 0.956 . S
H2022 C1998 0.950 1_565 S
H2023 C1999 0.949 . S
H2024 C2001 0.950 . S
H2025 C2003 0.950 . S
C2026 C2027 1.349 . S
C2026 C2028 1.327 . S
C2026 H2051 0.950 . S
C2027 C2026 1.349 . S
C2027 C2043 1.349 . S
C2028 C2026 1.327 . S
C2028 C2047 1.429 . S
C2028 H2052 0.950 . S
C2029 C2046 1.574 . S
C2029 C2048 1.368 . S
C2029 H2053 0.949 . S
H2030 C2034 0.949 . S
C2031 C2032 1.349 . S
C2031 C2033 1.327 . S
C2031 H2054 0.950 . S
C2032 C2031 1.349 . S
C2032 C2044 1.349 . S
C2033 C2031 1.327 . S
C2033 C2049 1.429 . S
C2033 H2055 0.950 . S
C2034 H2030 0.949 . S
C2034 C2042 1.574 . S
C2034 C2050 1.368 . S
H2035 C2043 0.950 . S
H2036 C2041 0.950 . S
H2037 C2042 0.949 . S
H2038 C2044 0.950 . S
H2039 C2045 0.950 . S
H2040 C2046 0.949 . S
C2041 H2036 0.950 . S
C2041 C2043 1.327 . S
C2041 C2047 1.429 . S
C2042 C2034 1.574 . S
C2042 H2037 0.949 . S
C2042 C2048 1.368 . S
C2043 C2027 1.349 . S
C2043 H2035 0.950 . S
C2043 C2041 1.327 . S
C2044 C2032 1.349 . S
C2044 H2038 0.950 . S
C2044 C2045 1.327 . S
C2045 H2039 0.950 . S
C2045 C2044 1.327 . S
C2045 C2049 1.429 . S
C2046 C2029 1.574 . S
C2046 H2040 0.949 . S
C2046 C2050 1.368 . S
C2047 C2028 1.429 . S
C2047 C2041 1.429 . S
C2047 C2048 1.523 . S
C2048 C2029 1.368 . S
C2048 C2042 1.368 . S
C2048 C2047 1.523 . S
C2049 C2033 1.429 . S
C2049 C2045 1.429 . S
C2049 C2050 1.523 . S
C2050 C2034 1.368 . S
C2050 C2046 1.368 . S
C2050 C2049 1.523 . S
H2051 C2026 0.950 . S
H2052 C2028 0.950 . S
H2053 C2029 0.949 . S
H2054 C2031 0.950 . S
H2055 C2033 0.950 . S
C2056 C2057 1.349 . S
C2056 C2058 1.327 . S
C2056 H2081 0.950 . S
C2057 C2056 1.349 . S
C2057 C2073 1.349 1_545 S
C2058 C2056 1.327 . S
C2058 C2077 1.429 . S
C2058 H2082 0.950 . S
C2059 C2076 1.574 . S
C2059 C2078 1.368 1_565 S
C2059 H2083 0.949 . S
H2060 C2064 0.949 . S
C2061 C2062 1.349 . S
C2061 C2063 1.327 . S
C2061 H2084 0.950 1_545 S
C2062 C2061 1.349 . S
C2062 C2074 1.349 . S
C2063 C2061 1.327 . S
C2063 C2079 1.429 . S
C2063 H2085 0.950 1_545 S
C2064 H2060 0.949 . S
C2064 C2072 1.574 . S
C2064 C2080 1.368 . S
H2065 C2073 0.950 . S
H2066 C2071 0.950 . S
H2067 C2072 0.949 . S
H2068 C2074 0.950 . S
H2069 C2075 0.950 . S
H2070 C2076 0.949 . S
C2071 H2066 0.950 . S
C2071 C2073 1.327 . S
C2071 C2077 1.429 1_565 S
C2072 C2064 1.574 . S
C2072 H2067 0.949 . S
C2072 C2078 1.368 . S
C2073 C2057 1.349 1_565 S
C2073 H2065 0.950 . S
C2073 C2071 1.327 . S
C2074 C2062 1.349 . S
C2074 H2068 0.950 . S
C2074 C2075 1.327 . S
C2075 H2069 0.950 . S
C2075 C2074 1.327 . S
C2075 C2079 1.429 . S
C2076 C2059 1.574 . S
C2076 H2070 0.949 . S
C2076 C2080 1.368 1_565 S
C2077 C2058 1.429 . S
C2077 C2071 1.429 1_545 S
C2077 C2078 1.523 . S
C2078 C2059 1.368 1_545 S
C2078 C2072 1.368 . S
C2078 C2077 1.523 . S
C2079 C2063 1.429 . S
C2079 C2075 1.429 . S
C2079 C2080 1.523 . S
C2080 C2064 1.368 . S
C2080 C2076 1.368 1_545 S
C2080 C2079 1.523 . S
H2081 C2056 0.950 . S
H2082 C2058 0.950 . S
H2083 C2059 0.949 . S
H2084 C2061 0.950 1_565 S
H2085 C2063 0.950 1_565 S
C2086 C2087 1.349 . S
C2086 C2088 1.327 . S
C2086 H2111 0.950 . S
C2087 C2086 1.349 . S
C2087 C2103 1.349 . S
C2088 C2086 1.327 . S
C2088 C2107 1.429 . S
C2088 H2112 0.950 . S
C2089 C2106 1.574 . S
C2089 C2108 1.368 . S
C2089 H2113 0.949 . S
H2090 C2094 0.949 . S
C2091 C2092 1.349 . S
C2091 C2093 1.327 . S
C2091 H2114 0.950 . S
C2092 C2091 1.349 . S
C2092 C2104 1.349 . S
C2093 C2091 1.327 . S
C2093 C2109 1.429 . S
C2093 H2115 0.950 . S
C2094 H2090 0.949 . S
C2094 C2102 1.574 . S
C2094 C2110 1.368 . S
H2095 C2103 0.950 . S
H2096 C2101 0.950 . S
H2097 C2102 0.949 . S
H2098 C2104 0.950 . S
H2099 C2105 0.950 . S
H2100 C2106 0.949 . S
C2101 H2096 0.950 . S
C2101 C2103 1.327 . S
C2101 C2107 1.429 . S
C2102 C2094 1.574 . S
C2102 H2097 0.949 . S
C2102 C2108 1.368 . S
C2103 C2087 1.349 . S
C2103 H2095 0.950 . S
C2103 C2101 1.327 . S
C2104 C2092 1.349 . S
C2104 H2098 0.950 . S
C2104 C2105 1.327 . S
C2105 H2099 0.950 . S
C2105 C2104 1.327 . S
C2105 C2109 1.429 . S
C2106 C2089 1.574 . S
C2106 H2100 0.949 . S
C2106 C2110 1.368 . S
C2107 C2088 1.429 . S
C2107 C2101 1.429 . S
C2107 C2108 1.523 . S
C2108 C2089 1.368 . S
C2108 C2102 1.368 . S
C2108 C2107 1.523 . S
C2109 C2093 1.429 . S
C2109 C2105 1.429 . S
C2109 C2110 1.523 . S
C2110 C2094 1.368 . S
C2110 C2106 1.368 . S
C2110 C2109 1.523 . S
H2111 C2086 0.950 . S
H2112 C2088 0.950 . S
H2113 C2089 0.949 . S
H2114 C2091 0.950 . S
H2115 C2093 0.950 . S
C2116 C2117 1.349 . S
C2116 C2118 1.327 . S
C2116 H2141 0.950 . S
C2117 C2116 1.349 . S
C2117 C2133 1.349 1_545 S
C2118 C2116 1.327 . S
C2118 C2137 1.429 . S
C2118 H2142 0.950 . S
C2119 C2136 1.574 . S
C2119 C2138 1.368 1_565 S
C2119 H2143 0.949 . S
H2120 C2124 0.949 . S
C2121 C2122 1.349 1_565 S
C2121 C2123 1.327 . S
C2121 H2144 0.950 . S
C2122 C2121 1.349 1_545 S
C2122 C2134 1.349 . S
C2123 C2121 1.327 . S
C2123 C2139 1.429 1_565 S
C2123 H2145 0.950 . S
C2124 H2120 0.949 . S
C2124 C2132 1.574 . S
C2124 C2140 1.368 . S
H2125 C2133 0.950 . S
H2126 C2131 0.950 . S
H2127 C2132 0.949 . S
H2128 C2134 0.950 . S
H2129 C2135 0.950 . S
H2130 C2136 0.949 . S
C2131 H2126 0.950 . S
C2131 C2133 1.327 . S
C2131 C2137 1.429 1_565 S
C2132 C2124 1.574 . S
C2132 H2127 0.949 . S
C2132 C2138 1.368 . S
C2133 C2117 1.349 1_565 S
C2133 H2125 0.950 . S
C2133 C2131 1.327 . S
C2134 C2122 1.349 . S
C2134 H2128 0.950 . S
C2134 C2135 1.327 . S
C2135 H2129 0.950 . S
C2135 C2134 1.327 . S
C2135 C2139 1.429 . S
C2136 C2119 1.574 . S
C2136 H2130 0.949 . S
C2136 C2140 1.368 1_565 S
C2137 C2118 1.429 . S
C2137 C2131 1.429 1_545 S
C2137 C2138 1.523 . S
C2138 C2119 1.368 1_545 S
C2138 C2132 1.368 . S
C2138 C2137 1.523 . S
C2139 C2123 1.429 1_545 S
C2139 C2135 1.429 . S
C2139 C2140 1.523 . S
C2140 C2124 1.368 . S
C2140 C2136 1.368 1_545 S
C2140 C2139 1.523 . S
H2141 C2116 0.950 . S
H2142 C2118 0.950 . S
H2143 C2119 0.949 . S
H2144 C2121 0.950 . S
H2145 C2123 0.950 . S
C2146 C2147 1.349 . S
C2146 C2148 1.327 . S
C2146 H2171 0.950 . S
C2147 C2146 1.349 . S
C2147 C2163 1.349 . S
C2148 C2146 1.327 . S
C2148 C2167 1.429 . S
C2148 H2172 0.950 . S
C2149 C2166 1.574 . S
C2149 C2168 1.368 . S
C2149 H2173 0.949 . S
H2150 C2154 0.949 . S
C2151 C2152 1.349 . S
C2151 C2153 1.327 . S
C2151 H2174 0.950 . S
C2152 C2151 1.349 . S
C2152 C2164 1.349 . S
C2153 C2151 1.327 . S
C2153 C2169 1.429 . S
C2153 H2175 0.950 . S
C2154 H2150 0.949 . S
C2154 C2162 1.574 . S
C2154 C2170 1.368 . S
H2155 C2163 0.950 . S
H2156 C2161 0.950 . S
H2157 C2162 0.949 . S
H2158 C2164 0.950 . S
H2159 C2165 0.950 . S
H2160 C2166 0.949 . S
C2161 H2156 0.950 . S
C2161 C2163 1.327 . S
C2161 C2167 1.429 . S
C2162 C2154 1.574 . S
C2162 H2157 0.949 . S
C2162 C2168 1.368 . S
C2163 C2147 1.349 . S
C2163 H2155 0.950 . S
C2163 C2161 1.327 . S
C2164 C2152 1.349 . S
C2164 H2158 0.950 . S
C2164 C2165 1.327 . S
C2165 H2159 0.950 . S
C2165 C2164 1.327 . S
C2165 C2169 1.429 . S
C2166 C2149 1.574 . S
C2166 H2160 0.949 . S
C2166 C2170 1.368 . S
C2167 C2148 1.429 . S
C2167 C2161 1.429 . S
C2167 C2168 1.523 . S
C2168 C2149 1.368 . S
C2168 C2162 1.368 . S
C2168 C2167 1.523 . S
C2169 C2153 1.429 . S
C2169 C2165 1.429 . S
C2169 C2170 1.523 . S
C2170 C2154 1.368 . S
C2170 C2166 1.368 . S
C2170 C2169 1.523 . S
H2171 C2146 0.950 . S
H2172 C2148 0.950 . S
H2173 C2149 0.949 . S
H2174 C2151 0.950 . S
H2175 C2153 0.950 . S
C2176 C2177 1.349 . S
C2176 C2178 1.327 . S
C2176 H2201 0.950 . S
C2177 C2176 1.349 . S
C2177 C2193 1.349 . S
C2178 C2176 1.327 . S
C2178 C2197 1.429 . S
C2178 H2202 0.950 . S
C2179 C2196 1.572 1_554 S
C2179 C2198 1.374 . S
C2179 H2203 0.946 1_554 S
H2180 C2184 0.949 . S
C2181 C2182 1.349 1_556 S
C2181 C2183 1.327 . S
C2181 H2204 0.950 . S
C2182 C2181 1.349 1_554 S
C2182 C2194 1.349 . S
C2183 C2181 1.327 . S
C2183 C2199 1.429 1_556 S
C2183 H2205 0.950 . S
C2184 H2180 0.949 . S
C2184 C2192 1.574 . S
C2184 C2200 1.368 . S
H2185 C2193 0.957 . S
H2186 C2191 0.950 1_556 S
H2187 C2192 0.949 . S
H2188 C2194 0.950 . S
H2189 C2195 0.950 . S
H2190 C2196 0.960 . S
C2191 H2186 0.950 1_554 S
C2191 C2193 1.327 . S
C2191 C2197 1.429 . S
C2192 C2184 1.574 . S
C2192 H2187 0.949 . S
C2192 C2198 1.368 . S
C2193 C2177 1.349 . S
C2193 H2185 0.957 . S
C2193 C2191 1.327 . S
C2194 C2182 1.349 . S
C2194 H2188 0.950 . S
C2194 C2195 1.327 . S
C2195 H2189 0.950 . S
C2195 C2194 1.327 . S
C2195 C2199 1.429 . S
C2196 C2179 1.572 1_556 S
C2196 H2190 0.960 . S
C2196 C2200 1.362 1_556 S
C2197 C2178 1.429 . S
C2197 C2191 1.429 . S
C2197 C2198 1.523 . S
C2198 C2179 1.374 . S
C2198 C2192 1.368 . S
C2198 C2197 1.523 . S
C2199 C2183 1.429 1_554 S
C2199 C2195 1.429 . S
C2199 C2200 1.523 . S
C2200 C2184 1.368 . S
C2200 C2196 1.362 1_554 S
C2200 C2199 1.523 . S
H2201 C2176 0.950 . S
H2202 C2178 0.950 . S
H2203 C2179 0.946 1_556 S
H2204 C2181 0.950 . S
H2205 C2183 0.950 . S
C2206 C2207 1.349 . S
C2206 C2208 1.327 . S
C2206 H2231 0.950 1_554 S
C2207 C2206 1.349 . S
C2207 C2223 1.349 . S
C2208 C2206 1.327 . S
C2208 C2227 1.429 . S
C2208 H2232 0.950 1_554 S
C2209 C2226 1.574 . S
C2209 C2228 1.368 . S
C2209 H2233 0.949 . S
H2210 C2214 0.949 1_556 S
C2211 C2212 1.349 . S
C2211 C2213 1.327 . S
C2211 H2234 0.950 . S
C2212 C2211 1.349 . S
C2212 C2224 1.389 . S
C2213 C2211 1.327 . S
C2213 C2229 1.429 . S
C2213 H2235 0.950 . S
C2214 H2210 0.949 1_554 S
C2214 C2222 1.574 . S
C2214 C2230 1.368 . S
H2215 C2223 0.950 . S
H2216 C2221 0.950 . S
H2217 C2222 0.949 1_556 S
H2218 C2224 0.899 1_556 S
H2219 C2225 0.950 1_556 S
H2220 C2226 0.949 . S
C2221 H2216 0.950 . S
C2221 C2223 1.327 . S
C2221 C2227 1.429 . S
C2222 C2214 1.574 . S
C2222 H2217 0.949 1_554 S
C2222 C2228 1.368 . S
C2223 C2207 1.349 . S
C2223 H2215 0.950 . S
C2223 C2221 1.327 . S
C2224 C2212 1.389 . S
C2224 H2218 0.899 1_554 S
C2224 C2225 1.339 . S
C2225 H2219 0.950 1_554 S
C2225 C2224 1.339 . S
C2225 C2229 1.429 . S
C2226 C2209 1.574 . S
C2226 H2220 0.949 . S
C2226 C2230 1.368 . S
C2227 C2208 1.429 . S
C2227 C2221 1.429 . S
C2227 C2228 1.523 . S
C2228 C2209 1.368 . S
C2228 C2222 1.368 . S
C2228 C2227 1.523 . S
C2229 C2213 1.429 . S
C2229 C2225 1.429 . S
C2229 C2230 1.523 . S
C2230 C2214 1.368 . S
C2230 C2226 1.368 . S
C2230 C2229 1.523 . S
H2231 C2206 0.950 1_556 S
H2232 C2208 0.950 1_556 S
H2233 C2209 0.949 . S
H2234 C2211 0.950 . S
H2235 C2213 0.950 . S
C2236 C2237 1.349 . S
C2236 C2238 1.327 . S
C2236 H2261 0.950 . S
C2237 C2236 1.349 . S
C2237 C2253 1.349 . S
C2238 C2236 1.327 . S
C2238 C2257 1.429 . S
C2238 H2262 0.950 . S
C2239 C2256 1.574 . S
C2239 C2258 1.368 . S
C2239 H2263 0.949 . S
H2240 C2244 0.949 . S
C2241 C2242 1.349 . S
C2241 C2243 1.327 . S
C2241 H2264 0.950 . S
C2242 C2241 1.349 . S
C2242 C2254 1.349 . S
C2243 C2241 1.327 . S
C2243 C2259 1.429 . S
C2243 H2265 0.950 . S
C2244 H2240 0.949 . S
C2244 C2252 1.574 . S
C2244 C2260 1.368 . S
H2245 C2253 0.950 . S
H2246 C2251 0.950 . S
H2247 C2252 0.949 . S
H2248 C2254 0.950 . S
H2249 C2255 0.950 . S
H2250 C2256 0.949 . S
C2251 H2246 0.950 . S
C2251 C2253 1.327 . S
C2251 C2257 1.429 . S
C2252 C2244 1.574 . S
C2252 H2247 0.949 . S
C2252 C2258 1.368 . S
C2253 C2237 1.349 . S
C2253 H2245 0.950 . S
C2253 C2251 1.327 . S
C2254 C2242 1.349 . S
C2254 H2248 0.950 . S
C2254 C2255 1.327 . S
C2255 H2249 0.950 . S
C2255 C2254 1.327 . S
C2255 C2259 1.429 . S
C2256 C2239 1.574 . S
C2256 H2250 0.949 . S
C2256 C2260 1.368 . S
C2257 C2238 1.429 . S
C2257 C2251 1.429 . S
C2257 C2258 1.523 . S
C2258 C2239 1.368 . S
C2258 C2252 1.368 . S
C2258 C2257 1.523 . S
C2259 C2243 1.429 . S
C2259 C2255 1.429 . S
C2259 C2260 1.523 . S
C2260 C2244 1.368 . S
C2260 C2256 1.368 . S
C2260 C2259 1.523 . S
H2261 C2236 0.950 . S
H2262 C2238 0.950 . S
H2263 C2239 0.949 . S
H2264 C2241 0.950 . S
H2265 C2243 0.950 . S
C2266 C2267 1.349 . S
C2266 C2268 1.327 . S
C2266 H2291 0.950 . S
C2267 C2266 1.349 . S
C2267 C2283 1.349 . S
C2268 C2266 1.327 . S
C2268 C2287 1.429 . S
C2268 H2292 0.950 . S
C2269 C2286 1.574 . S
C2269 C2288 1.368 . S
C2269 H2293 0.949 . S
H2270 C2274 0.949 . S
C2271 C2272 1.349 . S
C2271 C2273 1.327 . S
C2271 H2294 0.950 . S
C2272 C2271 1.349 . S
C2272 C2284 1.349 . S
C2273 C2271 1.327 . S
C2273 C2289 1.429 . S
C2273 H2295 0.950 . S
C2274 H2270 0.949 . S
C2274 C2282 1.574 . S
C2274 C2290 1.368 . S
H2275 C2283 0.950 . S
H2276 C2281 0.950 . S
H2277 C2282 0.949 . S
H2278 C2284 0.950 . S
H2279 C2285 0.950 . S
H2280 C2286 0.949 . S
C2281 H2276 0.950 . S
C2281 C2283 1.327 . S
C2281 C2287 1.429 . S
C2282 C2274 1.574 . S
C2282 H2277 0.949 . S
C2282 C2288 1.368 . S
C2283 C2267 1.349 . S
C2283 H2275 0.950 . S
C2283 C2281 1.327 . S
C2284 C2272 1.349 . S
C2284 H2278 0.950 . S
C2284 C2285 1.327 . S
C2285 H2279 0.950 . S
C2285 C2284 1.327 . S
C2285 C2289 1.429 . S
C2286 C2269 1.574 . S
C2286 H2280 0.949 . S
C2286 C2290 1.368 . S
C2287 C2268 1.429 . S
C2287 C2281 1.429 . S
C2287 C2288 1.523 . S
C2288 C2269 1.368 . S
C2288 C2282 1.368 . S
C2288 C2287 1.523 . S
C2289 C2273 1.429 . S
C2289 C2285 1.429 . S
C2289 C2290 1.523 . S
C2290 C2274 1.368 . S
C2290 C2286 1.368 . S
C2290 C2289 1.523 . S
H2291 C2266 0.950 . S
H2292 C2268 0.950 . S
H2293 C2269 0.949 . S
H2294 C2271 0.950 . S
H2295 C2273 0.950 . S
C2296 C2297 1.334 1_565 S
C2296 C2298 1.374 . S
C2296 H2321 0.917 1_565 S
C2297 C2296 1.334 1_545 S
C2297 C2313 1.344 1_545 S
C2298 C2296 1.374 . S
C2298 C2317 1.429 . S
C2298 H2322 0.950 . S
C2299 C2316 1.574 . S
C2299 C2318 1.368 . S
C2299 H2323 0.949 . S
H2300 C2304 0.949 . S
C2301 C2302 1.349 . S
C2301 C2303 1.327 . S
C2301 H2324 0.950 . S
C2302 C2301 1.349 . S
C2302 C2314 1.349 . S
C2303 C2301 1.327 . S
C2303 C2319 1.429 . S
C2303 H2325 0.950 . S
C2304 H2300 0.949 . S
C2304 C2312 1.574 . S
C2304 C2320 1.368 . S
H2305 C2313 0.950 . S
H2306 C2311 0.950 . S
H2307 C2312 0.949 . S
H2308 C2314 0.950 . S
H2309 C2315 0.950 . S
H2310 C2316 0.949 . S
C2311 H2306 0.950 . S
C2311 C2313 1.327 . S
C2311 C2317 1.429 . S
C2312 C2304 1.574 . S
C2312 H2307 0.949 . S
C2312 C2318 1.368 . S
C2313 C2297 1.344 1_565 S
C2313 H2305 0.950 . S
C2313 C2311 1.327 . S
C2314 C2302 1.349 . S
C2314 H2308 0.950 . S
C2314 C2315 1.327 . S
C2315 H2309 0.950 . S
C2315 C2314 1.327 . S
C2315 C2319 1.429 . S
C2316 C2299 1.574 . S
C2316 H2310 0.949 . S
C2316 C2320 1.368 . S
C2317 C2298 1.429 . S
C2317 C2311 1.429 . S
C2317 C2318 1.523 . S
C2318 C2299 1.368 . S
C2318 C2312 1.368 . S
C2318 C2317 1.523 . S
C2319 C2303 1.429 . S
C2319 C2315 1.429 . S
C2319 C2320 1.523 . S
C2320 C2304 1.368 . S
C2320 C2316 1.368 . S
C2320 C2319 1.523 . S
H2321 C2296 0.917 1_545 S
H2322 C2298 0.950 . S
H2323 C2299 0.949 . S
H2324 C2301 0.950 . S
H2325 C2303 0.950 . S
C2326 C2327 1.349 . S
C2326 C2328 1.327 . S
C2326 H2351 0.950 . S
C2327 C2326 1.349 . S
C2327 C2343 1.349 . S
C2328 C2326 1.327 . S
C2328 C2347 1.429 . S
C2328 H2352 0.950 . S
C2329 C2346 1.574 . S
C2329 C2348 1.368 . S
C2329 H2353 0.949 . S
H2330 C2334 0.949 . S
C2331 C2332 1.349 . S
C2331 C2333 1.327 . S
C2331 H2354 0.950 . S
C2332 C2331 1.349 . S
C2332 C2344 1.349 . S
C2333 C2331 1.327 . S
C2333 C2349 1.429 . S
C2333 H2355 0.950 . S
C2334 H2330 0.949 . S
C2334 C2342 1.574 . S
C2334 C2350 1.368 . S
H2335 C2343 0.950 . S
H2336 C2341 0.950 . S
H2337 C2342 0.949 . S
H2338 C2344 0.950 . S
H2339 C2345 0.950 . S
H2340 C2346 0.949 . S
C2341 H2336 0.950 . S
C2341 C2343 1.327 . S
C2341 C2347 1.429 . S
C2342 C2334 1.574 . S
C2342 H2337 0.949 . S
C2342 C2348 1.368 . S
C2343 C2327 1.349 . S
C2343 H2335 0.950 . S
C2343 C2341 1.327 . S
C2344 C2332 1.349 . S
C2344 H2338 0.950 . S
C2344 C2345 1.327 . S
C2345 H2339 0.950 . S
C2345 C2344 1.327 . S
C2345 C2349 1.429 . S
C2346 C2329 1.574 . S
C2346 H2340 0.949 . S
C2346 C2350 1.368 . S
C2347 C2328 1.429 . S
C2347 C2341 1.429 . S
C2347 C2348 1.523 . S
C2348 C2329 1.368 . S
C2348 C2342 1.368 . S
C2348 C2347 1.523 . S
C2349 C2333 1.429 . S
C2349 C2345 1.429 . S
C2349 C2350 1.523 . S
C2350 C2334 1.368 . S
C2350 C2346 1.368 . S
C2350 C2349 1.523 . S
H2351 C2326 0.950 . S
H2352 C2328 0.950 . S
H2353 C2329 0.949 . S
H2354 C2331 0.950 . S
H2355 C2333 0.950 . S
C2356 C2357 1.349 . S
C2356 C2358 1.327 . S
C2356 H2381 0.950 . S
C2357 C2356 1.349 . S
C2357 C2373 1.349 . S
C2358 C2356 1.327 . S
C2358 C2377 1.429 . S
C2358 H2382 0.950 . S
C2359 C2376 1.574 . S
C2359 C2378 1.368 . S
C2359 H2383 0.949 . S
H2360 C2364 0.949 . S
C2361 C2362 1.349 . S
C2361 C2363 1.327 . S
C2361 H2384 0.950 . S
C2362 C2361 1.349 . S
C2362 C2374 1.349 . S
C2363 C2361 1.327 . S
C2363 C2379 1.429 . S
C2363 H2385 0.950 . S
C2364 H2360 0.949 . S
C2364 C2372 1.574 . S
C2364 C2380 1.368 . S
H2365 C2373 0.950 . S
H2366 C2371 0.950 . S
H2367 C2372 0.949 . S
H2368 C2374 0.950 . S
H2369 C2375 0.950 . S
H2370 C2376 0.949 . S
C2371 H2366 0.950 . S
C2371 C2373 1.327 . S
C2371 C2377 1.429 . S
C2372 C2364 1.574 . S
C2372 H2367 0.949 . S
C2372 C2378 1.368 . S
C2373 C2357 1.349 . S
C2373 H2365 0.950 . S
C2373 C2371 1.327 . S
C2374 C2362 1.349 . S
C2374 H2368 0.950 . S
C2374 C2375 1.327 . S
C2375 H2369 0.950 . S
C2375 C2374 1.327 . S
C2375 C2379 1.429 . S
C2376 C2359 1.574 . S
C2376 H2370 0.949 . S
C2376 C2380 1.368 . S
C2377 C2358 1.429 . S
C2377 C2371 1.429 . S
C2377 C2378 1.523 . S
C2378 C2359 1.368 . S
C2378 C2372 1.368 . S
C2378 C2377 1.523 . S
C2379 C2363 1.429 . S
C2379 C2375 1.429 . S
C2379 C2380 1.523 . S
C2380 C2364 1.368 . S
C2380 C2376 1.368 . S
C2380 C2379 1.523 . S
H2381 C2356 0.950 . S
H2382 C2358 0.950 . S
H2383 C2359 0.949 . S
H2384 C2361 0.950 . S
H2385 C2363 0.950 . S
C2386 C2387 1.349 . S
C2386 C2388 1.327 . S
C2386 H2411 0.950 . S
C2387 C2386 1.349 . S
C2387 C2403 1.349 . S
C2388 C2386 1.327 . S
C2388 C2407 1.429 . S
C2388 H2412 0.950 . S
C2389 C2406 1.574 . S
C2389 C2408 1.368 . S
C2389 H2413 0.949 . S
H2390 C2394 0.949 . S
C2391 C2392 1.349 . S
C2391 C2393 1.327 . S
C2391 H2414 0.950 . S
C2392 C2391 1.349 . S
C2392 C2404 1.349 . S
C2393 C2391 1.327 . S
C2393 C2409 1.429 . S
C2393 H2415 0.950 . S
C2394 H2390 0.949 . S
C2394 C2402 1.574 . S
C2394 C2410 1.368 . S
H2395 C2403 0.950 . S
H2396 C2401 0.950 . S
H2397 C2402 0.949 . S
H2398 C2404 0.950 . S
H2399 C2405 0.950 . S
H2400 C2406 0.949 . S
C2401 H2396 0.950 . S
C2401 C2403 1.327 . S
C2401 C2407 1.429 . S
C2402 C2394 1.574 . S
C2402 H2397 0.949 . S
C2402 C2408 1.368 . S
C2403 C2387 1.349 . S
C2403 H2395 0.950 . S
C2403 C2401 1.327 . S
C2404 C2392 1.349 . S
C2404 H2398 0.950 . S
C2404 C2405 1.327 . S
C2405 H2399 0.950 . S
C2405 C2404 1.327 . S
C2405 C2409 1.429 . S
C2406 C2389 1.574 . S
C2406 H2400 0.949 . S
C2406 C2410 1.368 . S
C2407 C2388 1.429 . S
C2407 C2401 1.429 . S
C2407 C2408 1.523 . S
C2408 C2389 1.368 . S
C2408 C2402 1.368 . S
C2408 C2407 1.523 . S
C2409 C2393 1.429 . S
C2409 C2405 1.429 . S
C2409 C2410 1.523 . S
C2410 C2394 1.368 . S
C2410 C2406 1.368 . S
C2410 C2409 1.523 . S
H2411 C2386 0.950 . S
H2412 C2388 0.950 . S
H2413 C2389 0.949 . S
H2414 C2391 0.950 . S
H2415 C2393 0.950 . S
C2416 C2417 1.349 . S
C2416 C2418 1.327 . S
C2416 H2441 0.950 . S
C2417 C2416 1.349 . S
C2417 C2433 1.349 . S
C2418 C2416 1.327 . S
C2418 C2437 1.429 . S
C2418 H2442 0.950 . S
C2419 C2436 1.574 . S
C2419 C2438 1.368 . S
C2419 H2443 0.949 . S
H2420 C2424 0.949 . S
C2421 C2422 1.349 . S
C2421 C2423 1.327 . S
C2421 H2444 0.950 . S
C2422 C2421 1.349 . S
C2422 C2434 1.349 . S
C2423 C2421 1.327 . S
C2423 C2439 1.429 . S
C2423 H2445 0.950 . S
C2424 H2420 0.949 . S
C2424 C2432 1.574 . S
C2424 C2440 1.368 . S
H2425 C2433 0.950 . S
H2426 C2431 0.950 . S
H2427 C2432 0.949 . S
H2428 C2434 0.950 . S
H2429 C2435 0.950 . S
H2430 C2436 0.949 . S
C2431 H2426 0.950 . S
C2431 C2433 1.327 . S
C2431 C2437 1.429 . S
C2432 C2424 1.574 . S
C2432 H2427 0.949 . S
C2432 C2438 1.368 . S
C2433 C2417 1.349 . S
C2433 H2425 0.950 . S
C2433 C2431 1.327 . S
C2434 C2422 1.349 . S
C2434 H2428 0.950 . S
C2434 C2435 1.327 . S
C2435 H2429 0.950 . S
C2435 C2434 1.327 . S
C2435 C2439 1.429 . S
C2436 C2419 1.574 . S
C2436 H2430 0.949 . S
C2436 C2440 1.368 . S
C2437 C2418 1.429 . S
C2437 C2431 1.429 . S
C2437 C2438 1.523 . S
C2438 C2419 1.368 . S
C2438 C2432 1.368 . S
C2438 C2437 1.523 . S
C2439 C2423 1.429 . S
C2439 C2435 1.429 . S
C2439 C2440 1.523 . S
C2440 C2424 1.368 . S
C2440 C2436 1.368 . S
C2440 C2439 1.523 . S
H2441 C2416 0.950 . S
H2442 C2418 0.950 . S
H2443 C2419 0.949 . S
H2444 C2421 0.950 . S
H2445 C2423 0.950 . S
C2446 C2447 1.349 . S
C2446 C2448 1.327 . S
C2446 H2471 0.950 . S
C2447 C2446 1.349 . S
C2447 C2463 1.349 . S
C2448 C2446 1.327 . S
C2448 C2467 1.429 . S
C2448 H2472 0.950 . S
C2449 C2466 1.574 . S
C2449 C2468 1.368 . S
C2449 H2473 0.949 . S
H2450 C2454 0.949 . S
C2451 C2452 1.349 . S
C2451 C2453 1.327 . S
C2451 H2474 0.950 . S
C2452 C2451 1.349 . S
C2452 C2464 1.349 . S
C2453 C2451 1.327 . S
C2453 C2469 1.429 . S
C2453 H2475 0.950 . S
C2454 H2450 0.949 . S
C2454 C2462 1.574 . S
C2454 C2470 1.368 . S
H2455 C2463 0.950 . S
H2456 C2461 0.950 . S
H2457 C2462 0.949 . S
H2458 C2464 0.950 . S
H2459 C2465 0.950 . S
H2460 C2466 0.949 . S
C2461 H2456 0.950 . S
C2461 C2463 1.327 . S
C2461 C2467 1.429 . S
C2462 C2454 1.574 . S
C2462 H2457 0.949 . S
C2462 C2468 1.368 . S
C2463 C2447 1.349 . S
C2463 H2455 0.950 . S
C2463 C2461 1.327 . S
C2464 C2452 1.349 . S
C2464 H2458 0.950 . S
C2464 C2465 1.327 . S
C2465 H2459 0.950 . S
C2465 C2464 1.327 . S
C2465 C2469 1.429 . S
C2466 C2449 1.574 . S
C2466 H2460 0.949 . S
C2466 C2470 1.368 . S
C2467 C2448 1.429 . S
C2467 C2461 1.429 . S
C2467 C2468 1.523 . S
C2468 C2449 1.368 . S
C2468 C2462 1.368 . S
C2468 C2467 1.523 . S
C2469 C2453 1.429 . S
C2469 C2465 1.429 . S
C2469 C2470 1.523 . S
C2470 C2454 1.368 . S
C2470 C2466 1.368 . S
C2470 C2469 1.523 . S
H2471 C2446 0.950 . S
H2472 C2448 0.950 . S
H2473 C2449 0.949 . S
H2474 C2451 0.950 . S
H2475 C2453 0.950 . S
C2476 C2477 1.349 . S
C2476 C2478 1.327 . S
C2476 H2501 0.950 . S
C2477 C2476 1.349 . S
C2477 C2493 1.349 . S
C2478 C2476 1.327 . S
C2478 C2497 1.429 . S
C2478 H2502 0.950 . S
C2479 C2496 1.574 . S
C2479 C2498 1.368 . S
C2479 H2503 0.949 . S
H2480 C2484 0.949 . S
C2481 C2482 1.287 1_556 S
C2481 C2483 1.327 . S
C2481 H2504 0.950 . S
C2482 C2481 1.287 1_554 S
C2482 C2494 1.388 . S
C2483 C2481 1.327 . S
C2483 C2499 1.429 . S
C2483 H2505 0.950 . S
C2484 H2480 0.949 . S
C2484 C2492 1.574 . S
C2484 C2500 1.368 . S
H2485 C2493 0.950 . S
H2486 C2491 0.950 . S
H2487 C2492 0.949 . S
H2488 C2494 0.950 . S
H2489 C2495 0.948 . S
H2490 C2496 0.949 . S
C2491 H2486 0.950 . S
C2491 C2493 1.327 . S
C2491 C2497 1.429 . S
C2492 C2484 1.574 . S
C2492 H2487 0.949 . S
C2492 C2498 1.368 . S
C2493 C2477 1.349 . S
C2493 H2485 0.950 . S
C2493 C2491 1.327 . S
C2494 C2482 1.388 . S
C2494 H2488 0.950 . S
C2494 C2495 1.326 . S
C2495 H2489 0.948 . S
C2495 C2494 1.326 . S
C2495 C2499 1.430 1_554 S
C2496 C2479 1.574 . S
C2496 H2490 0.949 . S
C2496 C2500 1.368 . S
C2497 C2478 1.429 . S
C2497 C2491 1.429 . S
C2497 C2498 1.523 . S
C2498 C2479 1.368 . S
C2498 C2492 1.368 . S
C2498 C2497 1.523 . S
C2499 C2483 1.429 . S
C2499 C2495 1.430 1_556 S
C2499 C2500 1.523 . S
C2500 C2484 1.368 . S
C2500 C2496 1.368 . S
C2500 C2499 1.523 . S
H2501 C2476 0.950 . S
H2502 C2478 0.950 . S
H2503 C2479 0.949 . S
H2504 C2481 0.950 . S
H2505 C2483 0.950 . S
C2506 C2507 1.349 . S
C2506 C2508 1.327 . S
C2506 H2531 0.950 . S
C2507 C2506 1.349 . S
C2507 C2523 1.349 . S
C2508 C2506 1.327 . S
C2508 C2527 1.429 1_455 S
C2508 H2532 0.948 1_455 S
C2509 C2526 1.574 . S
C2509 C2528 1.368 . S
C2509 H2533 0.949 . S
H2510 C2514 0.949 . S
C2511 C2512 1.349 . S
C2511 C2513 1.327 . S
C2511 H2534 0.950 . S
C2512 C2511 1.349 . S
C2512 C2524 1.349 . S
C2513 C2511 1.327 . S
C2513 C2529 1.429 . S
C2513 H2535 0.950 . S
C2514 H2510 0.949 . S
C2514 C2522 1.574 . S
C2514 C2530 1.368 . S
H2515 C2523 0.950 . S
H2516 C2521 0.950 . S
H2517 C2522 0.949 . S
H2518 C2524 0.950 . S
H2519 C2525 0.950 . S
H2520 C2526 0.949 . S
C2521 H2516 0.950 . S
C2521 C2523 1.327 1_655 S
C2521 C2527 1.429 . S
C2522 C2514 1.574 . S
C2522 H2517 0.949 . S
C2522 C2528 1.368 . S
C2523 C2507 1.349 . S
C2523 H2515 0.950 . S
C2523 C2521 1.327 1_455 S
C2524 C2512 1.349 . S
C2524 H2518 0.950 . S
C2524 C2525 1.327 . S
C2525 H2519 0.950 . S
C2525 C2524 1.327 . S
C2525 C2529 1.429 . S
C2526 C2509 1.574 . S
C2526 H2520 0.949 . S
C2526 C2530 1.368 . S
C2527 C2508 1.429 1_655 S
C2527 C2521 1.429 . S
C2527 C2528 1.523 . S
C2528 C2509 1.368 . S
C2528 C2522 1.368 . S
C2528 C2527 1.523 . S
C2529 C2513 1.429 . S
C2529 C2525 1.429 . S
C2529 C2530 1.523 . S
C2530 C2514 1.368 . S
C2530 C2526 1.368 . S
C2530 C2529 1.523 . S
H2531 C2506 0.950 . S
H2532 C2508 0.948 1_655 S
H2533 C2509 0.949 . S
H2534 C2511 0.950 . S
H2535 C2513 0.950 . S
C2536 C2537 1.349 . S
C2536 C2538 1.327 . S
C2536 H2561 0.950 . S
C2537 C2536 1.349 . S
C2537 C2553 1.349 . S
C2538 C2536 1.327 . S
C2538 C2557 1.429 . S
C2538 H2562 0.950 . S
C2539 C2556 1.574 . S
C2539 C2558 1.368 . S
C2539 H2563 0.949 . S
H2540 C2544 0.949 . S
C2541 C2542 1.349 . S
C2541 C2543 1.327 . S
C2541 H2564 0.950 . S
C2542 C2541 1.349 . S
C2542 C2554 1.349 . S
C2543 C2541 1.327 . S
C2543 C2559 1.429 . S
C2543 H2565 0.950 . S
C2544 H2540 0.949 . S
C2544 C2552 1.574 . S
C2544 C2560 1.368 . S
H2545 C2553 0.950 . S
H2546 C2551 0.950 . S
H2547 C2552 0.949 . S
H2548 C2554 0.950 . S
H2549 C2555 0.950 . S
H2550 C2556 0.949 . S
C2551 H2546 0.950 . S
C2551 C2553 1.327 . S
C2551 C2557 1.429 . S
C2552 C2544 1.574 . S
C2552 H2547 0.949 . S
C2552 C2558 1.368 . S
C2553 C2537 1.349 . S
C2553 H2545 0.950 . S
C2553 C2551 1.327 . S
C2554 C2542 1.349 . S
C2554 H2548 0.950 . S
C2554 C2555 1.327 . S
C2555 H2549 0.950 . S
C2555 C2554 1.327 . S
C2555 C2559 1.429 . S
C2556 C2539 1.574 . S
C2556 H2550 0.949 . S
C2556 C2560 1.368 . S
C2557 C2538 1.429 . S
C2557 C2551 1.429 . S
C2557 C2558 1.523 . S
C2558 C2539 1.368 . S
C2558 C2552 1.368 . S
C2558 C2557 1.523 . S
C2559 C2543 1.429 . S
C2559 C2555 1.429 . S
C2559 C2560 1.523 . S
C2560 C2544 1.368 . S
C2560 C2556 1.368 . S
C2560 C2559 1.523 . S
H2561 C2536 0.950 . S
H2562 C2538 0.950 . S
H2563 C2539 0.949 . S
H2564 C2541 0.950 . S
H2565 C2543 0.950 . S
C2566 C2567 1.349 . S
C2566 C2568 1.327 . S
C2566 H2591 0.950 . S
C2567 C2566 1.349 . S
C2567 C2583 1.349 . S
C2568 C2566 1.327 . S
C2568 C2587 1.429 . S
C2568 H2592 0.950 1_455 S
C2569 C2586 1.574 . S
C2569 C2588 1.368 . S
C2569 H2593 0.949 . S
H2570 C2574 0.949 . S
C2571 C2572 1.349 . S
C2571 C2573 1.327 . S
C2571 H2594 0.950 . S
C2572 C2571 1.349 . S
C2572 C2584 1.349 . S
C2573 C2571 1.327 . S
C2573 C2589 1.429 . S
C2573 H2595 0.950 . S
C2574 H2570 0.949 . S
C2574 C2582 1.574 . S
C2574 C2590 1.368 . S
H2575 C2583 0.950 . S
H2576 C2581 0.950 . S
H2577 C2582 0.949 . S
H2578 C2584 0.950 . S
H2579 C2585 0.950 . S
H2580 C2586 0.949 . S
C2581 H2576 0.950 . S
C2581 C2583 1.327 . S
C2581 C2587 1.429 . S
C2582 C2574 1.574 . S
C2582 H2577 0.949 . S
C2582 C2588 1.368 . S
C2583 C2567 1.349 . S
C2583 H2575 0.950 . S
C2583 C2581 1.327 . S
C2584 C2572 1.349 . S
C2584 H2578 0.950 . S
C2584 C2585 1.327 . S
C2585 H2579 0.950 . S
C2585 C2584 1.327 . S
C2585 C2589 1.429 . S
C2586 C2569 1.574 . S
C2586 H2580 0.949 . S
C2586 C2590 1.368 . S
C2587 C2568 1.429 . S
C2587 C2581 1.429 . S
C2587 C2588 1.523 1_455 S
C2588 C2569 1.368 . S
C2588 C2582 1.368 . S
C2588 C2587 1.523 1_655 S
C2589 C2573 1.429 . S
C2589 C2585 1.429 . S
C2589 C2590 1.523 . S
C2590 C2574 1.368 . S
C2590 C2586 1.368 . S
C2590 C2589 1.523 . S
H2591 C2566 0.950 . S
H2592 C2568 0.950 1_655 S
H2593 C2569 0.949 . S
H2594 C2571 0.950 . S
H2595 C2573 0.950 . S
C2596 C2597 1.349 . S
C2596 C2598 1.327 . S
C2596 H2621 0.950 . S
C2597 C2596 1.349 . S
C2597 C2613 1.349 1_655 S
C2598 C2596 1.327 . S
C2598 C2617 1.429 1_655 S
C2598 H2622 0.950 . S
C2599 C2616 1.574 . S
C2599 C2618 1.368 . S
C2599 H2623 0.949 . S
H2600 C2604 0.949 . S
C2601 C2602 1.349 . S
C2601 C2603 1.327 . S
C2601 H2624 0.950 . S
C2602 C2601 1.349 . S
C2602 C2614 1.349 . S
C2603 C2601 1.327 . S
C2603 C2619 1.429 . S
C2603 H2625 0.950 . S
C2604 H2600 0.949 . S
C2604 C2612 1.574 . S
C2604 C2620 1.368 . S
H2605 C2613 0.950 . S
H2606 C2611 0.950 . S
H2607 C2612 0.949 1_655 S
H2608 C2614 0.950 . S
H2609 C2615 0.950 . S
H2610 C2616 0.949 . S
C2611 H2606 0.950 . S
C2611 C2613 1.327 . S
C2611 C2617 1.429 . S
C2612 C2604 1.574 . S
C2612 H2607 0.949 1_455 S
C2612 C2618 1.368 . S
C2613 C2597 1.349 1_455 S
C2613 H2605 0.950 . S
C2613 C2611 1.327 . S
C2614 C2602 1.349 . S
C2614 H2608 0.950 . S
C2614 C2615 1.327 . S
C2615 H2609 0.950 . S
C2615 C2614 1.327 . S
C2615 C2619 1.429 . S
C2616 C2599 1.574 . S
C2616 H2610 0.949 . S
C2616 C2620 1.368 . S
C2617 C2598 1.429 1_455 S
C2617 C2611 1.429 . S
C2617 C2618 1.523 . S
C2618 C2599 1.368 . S
C2618 C2612 1.368 . S
C2618 C2617 1.523 . S
C2619 C2603 1.429 . S
C2619 C2615 1.429 . S
C2619 C2620 1.523 . S
C2620 C2604 1.368 . S
C2620 C2616 1.368 . S
C2620 C2619 1.523 . S
H2621 C2596 0.950 . S
H2622 C2598 0.950 . S
H2623 C2599 0.949 . S
H2624 C2601 0.950 . S
H2625 C2603 0.950 . S
C2626 C2627 1.349 . S
C2626 C2628 1.327 . S
C2626 H2651 0.950 . S
C2627 C2626 1.349 . S
C2627 C2643 1.349 . S
C2628 C2626 1.327 . S
C2628 C2647 1.429 . S
C2628 H2652 0.950 . S
C2629 C2646 1.574 . S
C2629 C2648 1.368 . S
C2629 H2653 0.949 . S
H2630 C2634 0.949 . S
C2631 C2632 1.349 . S
C2631 C2633 1.327 . S
C2631 H2654 0.950 . S
C2632 C2631 1.349 . S
C2632 C2644 1.349 . S
C2633 C2631 1.327 . S
C2633 C2649 1.429 . S
C2633 H2655 0.950 . S
C2634 H2630 0.949 . S
C2634 C2642 1.574 . S
C2634 C2650 1.368 . S
H2635 C2643 0.950 . S
H2636 C2641 0.950 . S
H2637 C2642 0.949 . S
H2638 C2644 0.950 . S
H2639 C2645 0.950 . S
H2640 C2646 0.949 . S
C2641 H2636 0.950 . S
C2641 C2643 1.327 . S
C2641 C2647 1.429 . S
C2642 C2634 1.574 . S
C2642 H2637 0.949 . S
C2642 C2648 1.368 . S
C2643 C2627 1.349 . S
C2643 H2635 0.950 . S
C2643 C2641 1.327 . S
C2644 C2632 1.349 . S
C2644 H2638 0.950 . S
C2644 C2645 1.327 . S
C2645 H2639 0.950 . S
C2645 C2644 1.327 . S
C2645 C2649 1.429 . S
C2646 C2629 1.574 . S
C2646 H2640 0.949 . S
C2646 C2650 1.368 . S
C2647 C2628 1.429 . S
C2647 C2641 1.429 . S
C2647 C2648 1.523 . S
C2648 C2629 1.368 . S
C2648 C2642 1.368 . S
C2648 C2647 1.523 . S
C2649 C2633 1.429 . S
C2649 C2645 1.429 . S
C2649 C2650 1.523 . S
C2650 C2634 1.368 . S
C2650 C2646 1.368 . S
C2650 C2649 1.523 . S
H2651 C2626 0.950 . S
H2652 C2628 0.950 . S
H2653 C2629 0.949 . S
H2654 C2631 0.950 . S
H2655 C2633 0.950 . S
C2656 C2657 1.349 . S
C2656 C2658 1.327 . S
C2656 H2681 0.950 . S
C2657 C2656 1.349 . S
C2657 C2673 1.349 . S
C2658 C2656 1.327 . S
C2658 C2677 1.429 . S
C2658 H2682 0.950 . S
C2659 C2676 1.574 . S
C2659 C2678 1.368 . S
C2659 H2683 0.949 . S
H2660 C2664 0.949 . S
C2661 C2662 1.349 . S
C2661 C2663 1.327 . S
C2661 H2684 0.950 . S
C2662 C2661 1.349 . S
C2662 C2674 1.349 . S
C2663 C2661 1.327 . S
C2663 C2679 1.429 . S
C2663 H2685 0.950 . S
C2664 H2660 0.949 . S
C2664 C2672 1.574 . S
C2664 C2680 1.368 . S
H2665 C2673 0.950 . S
H2666 C2671 0.950 . S
H2667 C2672 0.949 . S
H2668 C2674 0.950 . S
H2669 C2675 0.950 . S
H2670 C2676 0.949 . S
C2671 H2666 0.950 . S
C2671 C2673 1.327 . S
C2671 C2677 1.429 . S
C2672 C2664 1.574 . S
C2672 H2667 0.949 . S
C2672 C2678 1.368 . S
C2673 C2657 1.349 . S
C2673 H2665 0.950 . S
C2673 C2671 1.327 . S
C2674 C2662 1.349 . S
C2674 H2668 0.950 . S
C2674 C2675 1.327 . S
C2675 H2669 0.950 . S
C2675 C2674 1.327 . S
C2675 C2679 1.429 . S
C2676 C2659 1.574 . S
C2676 H2670 0.949 . S
C2676 C2680 1.368 . S
C2677 C2658 1.429 . S
C2677 C2671 1.429 . S
C2677 C2678 1.523 . S
C2678 C2659 1.368 . S
C2678 C2672 1.368 . S
C2678 C2677 1.523 . S
C2679 C2663 1.429 . S
C2679 C2675 1.429 . S
C2679 C2680 1.523 . S
C2680 C2664 1.368 . S
C2680 C2676 1.368 . S
C2680 C2679 1.523 . S
H2681 C2656 0.950 . S
H2682 C2658 0.950 . S
H2683 C2659 0.949 . S
H2684 C2661 0.950 . S
H2685 C2663 0.950 . S
C2686 C2687 1.349 . S
C2686 C2688 1.327 . S
C2686 H2711 0.950 . S
C2687 C2686 1.349 . S
C2687 C2703 1.349 . S
C2688 C2686 1.327 . S
C2688 C2707 1.429 . S
C2688 H2712 0.950 . S
C2689 C2706 1.574 . S
C2689 C2708 1.368 . S
C2689 H2713 0.949 . S
H2690 C2694 0.949 . S
C2691 C2692 1.349 . S
C2691 C2693 1.327 . S
C2691 H2714 0.950 . S
C2692 C2691 1.349 . S
C2692 C2704 1.349 . S
C2693 C2691 1.327 . S
C2693 C2709 1.429 . S
C2693 H2715 0.950 . S
C2694 H2690 0.949 . S
C2694 C2702 1.574 . S
C2694 C2710 1.368 . S
H2695 C2703 0.950 . S
H2696 C2701 0.950 . S
H2697 C2702 0.949 . S
H2698 C2704 0.950 . S
H2699 C2705 0.950 . S
H2700 C2706 0.949 . S
C2701 H2696 0.950 . S
C2701 C2703 1.327 . S
C2701 C2707 1.429 . S
C2702 C2694 1.574 . S
C2702 H2697 0.949 . S
C2702 C2708 1.368 . S
C2703 C2687 1.349 . S
C2703 H2695 0.950 . S
C2703 C2701 1.327 . S
C2704 C2692 1.349 . S
C2704 H2698 0.950 . S
C2704 C2705 1.327 . S
C2705 H2699 0.950 . S
C2705 C2704 1.327 . S
C2705 C2709 1.429 . S
C2706 C2689 1.574 . S
C2706 H2700 0.949 . S
C2706 C2710 1.368 . S
C2707 C2688 1.429 . S
C2707 C2701 1.429 . S
C2707 C2708 1.523 . S
C2708 C2689 1.368 . S
C2708 C2702 1.368 . S
C2708 C2707 1.523 . S
C2709 C2693 1.429 . S
C2709 C2705 1.429 . S
C2709 C2710 1.523 . S
C2710 C2694 1.368 . S
C2710 C2706 1.368 . S
C2710 C2709 1.523 . S
H2711 C2686 0.950 . S
H2712 C2688 0.950 . S
H2713 C2689 0.949 . S
H2714 C2691 0.950 . S
H2715 C2693 0.950 . S
C2716 C2717 1.349 . S
C2716 C2718 1.327 . S
C2716 H2741 0.950 . S
C2717 C2716 1.349 . S
C2717 C2733 1.349 . S
C2718 C2716 1.327 . S
C2718 C2737 1.429 . S
C2718 H2742 0.950 . S
C2719 C2736 1.574 . S
C2719 C2738 1.368 . S
C2719 H2743 0.949 . S
H2720 C2724 0.949 . S
C2721 C2722 1.349 . S
C2721 C2723 1.327 . S
C2721 H2744 0.950 . S
C2722 C2721 1.349 . S
C2722 C2734 1.349 . S
C2723 C2721 1.327 . S
C2723 C2739 1.429 . S
C2723 H2745 0.950 . S
C2724 H2720 0.949 . S
C2724 C2732 1.574 . S
C2724 C2740 1.368 . S
H2725 C2733 0.950 . S
H2726 C2731 0.950 . S
H2727 C2732 0.949 . S
H2728 C2734 0.950 . S
H2729 C2735 0.950 . S
H2730 C2736 0.949 . S
C2731 H2726 0.950 . S
C2731 C2733 1.327 . S
C2731 C2737 1.429 . S
C2732 C2724 1.574 . S
C2732 H2727 0.949 . S
C2732 C2738 1.368 . S
C2733 C2717 1.349 . S
C2733 H2725 0.950 . S
C2733 C2731 1.327 . S
C2734 C2722 1.349 . S
C2734 H2728 0.950 . S
C2734 C2735 1.327 . S
C2735 H2729 0.950 . S
C2735 C2734 1.327 . S
C2735 C2739 1.429 . S
C2736 C2719 1.574 . S
C2736 H2730 0.949 . S
C2736 C2740 1.368 . S
C2737 C2718 1.429 . S
C2737 C2731 1.429 . S
C2737 C2738 1.523 . S
C2738 C2719 1.368 . S
C2738 C2732 1.368 . S
C2738 C2737 1.523 . S
C2739 C2723 1.429 . S
C2739 C2735 1.429 . S
C2739 C2740 1.523 . S
C2740 C2724 1.368 . S
C2740 C2736 1.368 . S
C2740 C2739 1.523 . S
H2741 C2716 0.950 . S
H2742 C2718 0.950 . S
H2743 C2719 0.949 . S
H2744 C2721 0.950 . S
H2745 C2723 0.950 . S
C2746 C2747 1.349 . S
C2746 C2748 1.327 . S
C2746 H2771 0.950 . S
C2747 C2746 1.349 . S
C2747 C2763 1.349 . S
C2748 C2746 1.327 . S
C2748 C2767 1.429 . S
C2748 H2772 0.950 . S
C2749 C2766 1.574 . S
C2749 C2768 1.368 . S
C2749 H2773 0.949 . S
H2750 C2754 0.949 . S
C2751 C2752 1.349 . S
C2751 C2753 1.327 . S
C2751 H2774 0.950 . S
C2752 C2751 1.349 . S
C2752 C2764 1.349 . S
C2753 C2751 1.327 . S
C2753 C2769 1.429 . S
C2753 H2775 0.950 . S
C2754 H2750 0.949 . S
C2754 C2762 1.574 . S
C2754 C2770 1.368 . S
H2755 C2763 0.950 . S
H2756 C2761 0.950 . S
H2757 C2762 0.949 . S
H2758 C2764 0.950 . S
H2759 C2765 0.950 . S
H2760 C2766 0.949 . S
C2761 H2756 0.950 . S
C2761 C2763 1.327 . S
C2761 C2767 1.429 . S
C2762 C2754 1.574 . S
C2762 H2757 0.949 . S
C2762 C2768 1.368 . S
C2763 C2747 1.349 . S
C2763 H2755 0.950 . S
C2763 C2761 1.327 . S
C2764 C2752 1.349 . S
C2764 H2758 0.950 . S
C2764 C2765 1.327 . S
C2765 H2759 0.950 . S
C2765 C2764 1.327 . S
C2765 C2769 1.429 . S
C2766 C2749 1.574 . S
C2766 H2760 0.949 . S
C2766 C2770 1.368 . S
C2767 C2748 1.429 . S
C2767 C2761 1.429 . S
C2767 C2768 1.523 . S
C2768 C2749 1.368 . S
C2768 C2762 1.368 . S
C2768 C2767 1.523 . S
C2769 C2753 1.429 . S
C2769 C2765 1.429 . S
C2769 C2770 1.523 . S
C2770 C2754 1.368 . S
C2770 C2766 1.368 . S
C2770 C2769 1.523 . S
H2771 C2746 0.950 . S
H2772 C2748 0.950 . S
H2773 C2749 0.949 . S
H2774 C2751 0.950 . S
H2775 C2753 0.950 . S
C2776 C2777 1.349 . S
C2776 C2778 1.327 . S
C2776 H2801 0.950 . S
C2777 C2776 1.349 . S
C2777 C2793 1.349 . S
C2778 C2776 1.327 . S
C2778 C2797 1.429 . S
C2778 H2802 0.950 . S
C2779 C2796 1.574 . S
C2779 C2798 1.368 . S
C2779 H2803 0.949 . S
H2780 C2784 0.949 . S
C2781 C2782 1.349 . S
C2781 C2783 1.327 . S
C2781 H2804 0.950 . S
C2782 C2781 1.349 . S
C2782 C2794 1.349 . S
C2783 C2781 1.327 . S
C2783 C2799 1.429 . S
C2783 H2805 0.950 . S
C2784 H2780 0.949 . S
C2784 C2792 1.574 . S
C2784 C2800 1.368 . S
H2785 C2793 0.950 . S
H2786 C2791 0.950 . S
H2787 C2792 0.949 . S
H2788 C2794 0.950 . S
H2789 C2795 0.950 . S
H2790 C2796 0.949 . S
C2791 H2786 0.950 . S
C2791 C2793 1.327 . S
C2791 C2797 1.429 . S
C2792 C2784 1.574 . S
C2792 H2787 0.949 . S
C2792 C2798 1.368 . S
C2793 C2777 1.349 . S
C2793 H2785 0.950 . S
C2793 C2791 1.327 . S
C2794 C2782 1.349 . S
C2794 H2788 0.950 . S
C2794 C2795 1.327 . S
C2795 H2789 0.950 . S
C2795 C2794 1.327 . S
C2795 C2799 1.429 . S
C2796 C2779 1.574 . S
C2796 H2790 0.949 . S
C2796 C2800 1.368 . S
C2797 C2778 1.429 . S
C2797 C2791 1.429 . S
C2797 C2798 1.523 . S
C2798 C2779 1.368 . S
C2798 C2792 1.368 . S
C2798 C2797 1.523 . S
C2799 C2783 1.429 . S
C2799 C2795 1.429 . S
C2799 C2800 1.523 . S
C2800 C2784 1.368 . S
C2800 C2796 1.368 . S
C2800 C2799 1.523 . S
H2801 C2776 0.950 . S
H2802 C2778 0.950 . S
H2803 C2779 0.949 . S
H2804 C2781 0.950 . S
H2805 C2783 0.950 . S
C2806 C2807 1.349 . S
C2806 C2808 1.327 . S
C2806 H2831 0.950 . S
C2807 C2806 1.349 . S
C2807 C2823 1.349 . S
C2808 C2806 1.327 . S
C2808 C2827 1.429 . S
C2808 H2832 0.950 . S
C2809 C2826 1.574 . S
C2809 C2828 1.368 . S
C2809 H2833 0.949 . S
H2810 C2814 0.949 . S
C2811 C2812 1.349 . S
C2811 C2813 1.327 . S
C2811 H2834 0.950 . S
C2812 C2811 1.349 . S
C2812 C2824 1.349 . S
C2813 C2811 1.327 . S
C2813 C2829 1.429 . S
C2813 H2835 0.950 . S
C2814 H2810 0.949 . S
C2814 C2822 1.574 . S
C2814 C2830 1.368 . S
H2815 C2823 0.950 . S
H2816 C2821 0.950 . S
H2817 C2822 0.949 . S
H2818 C2824 0.950 . S
H2819 C2825 0.950 . S
H2820 C2826 0.949 . S
C2821 H2816 0.950 . S
C2821 C2823 1.327 . S
C2821 C2827 1.429 . S
C2822 C2814 1.574 . S
C2822 H2817 0.949 . S
C2822 C2828 1.368 . S
C2823 C2807 1.349 . S
C2823 H2815 0.950 . S
C2823 C2821 1.327 . S
C2824 C2812 1.349 . S
C2824 H2818 0.950 . S
C2824 C2825 1.327 . S
C2825 H2819 0.950 . S
C2825 C2824 1.327 . S
C2825 C2829 1.429 . S
C2826 C2809 1.574 . S
C2826 H2820 0.949 . S
C2826 C2830 1.368 . S
C2827 C2808 1.429 . S
C2827 C2821 1.429 . S
C2827 C2828 1.523 . S
C2828 C2809 1.368 . S
C2828 C2822 1.368 . S
C2828 C2827 1.523 . S
C2829 C2813 1.429 . S
C2829 C2825 1.429 . S
C2829 C2830 1.523 . S
C2830 C2814 1.368 . S
C2830 C2826 1.368 . S
C2830 C2829 1.523 . S
H2831 C2806 0.950 . S
H2832 C2808 0.950 . S
H2833 C2809 0.949 . S
H2834 C2811 0.950 . S
H2835 C2813 0.950 . S
C2836 C2837 1.349 . S
C2836 C2838 1.327 . S
C2836 H2861 0.950 . S
C2837 C2836 1.349 . S
C2837 C2853 1.349 . S
C2838 C2836 1.327 . S
C2838 C2857 1.429 . S
C2838 H2862 0.950 . S
C2839 C2856 1.574 . S
C2839 C2858 1.368 . S
C2839 H2863 0.949 . S
H2840 C2844 0.949 . S
C2841 C2842 1.349 . S
C2841 C2843 1.327 . S
C2841 H2864 0.950 . S
C2842 C2841 1.349 . S
C2842 C2854 1.349 . S
C2843 C2841 1.327 . S
C2843 C2859 1.429 . S
C2843 H2865 0.950 . S
C2844 H2840 0.949 . S
C2844 C2852 1.574 . S
C2844 C2860 1.368 . S
H2845 C2853 0.950 . S
H2846 C2851 0.950 . S
H2847 C2852 0.949 . S
H2848 C2854 0.950 . S
H2849 C2855 0.950 . S
H2850 C2856 0.949 . S
C2851 H2846 0.950 . S
C2851 C2853 1.327 . S
C2851 C2857 1.429 . S
C2852 C2844 1.574 . S
C2852 H2847 0.949 . S
C2852 C2858 1.368 . S
C2853 C2837 1.349 . S
C2853 H2845 0.950 . S
C2853 C2851 1.327 . S
C2854 C2842 1.349 . S
C2854 H2848 0.950 . S
C2854 C2855 1.327 . S
C2855 H2849 0.950 . S
C2855 C2854 1.327 . S
C2855 C2859 1.429 . S
C2856 C2839 1.574 . S
C2856 H2850 0.949 . S
C2856 C2860 1.368 . S
C2857 C2838 1.429 . S
C2857 C2851 1.429 . S
C2857 C2858 1.523 . S
C2858 C2839 1.368 . S
C2858 C2852 1.368 . S
C2858 C2857 1.523 . S
C2859 C2843 1.429 . S
C2859 C2855 1.429 . S
C2859 C2860 1.523 . S
C2860 C2844 1.368 . S
C2860 C2856 1.368 . S
C2860 C2859 1.523 . S
H2861 C2836 0.950 . S
H2862 C2838 0.950 . S
H2863 C2839 0.949 . S
H2864 C2841 0.950 . S
H2865 C2843 0.950 . S
C2866 C2867 1.349 . S
C2866 C2868 1.327 . S
C2866 H2891 0.950 . S
C2867 C2866 1.349 . S
C2867 C2883 1.349 . S
C2868 C2866 1.327 . S
C2868 C2887 1.429 . S
C2868 H2892 0.950 . S
C2869 C2886 1.574 . S
C2869 C2888 1.368 . S
C2869 H2893 0.949 . S
H2870 C2874 0.949 . S
C2871 C2872 1.349 . S
C2871 C2873 1.327 . S
C2871 H2894 0.950 . S
C2872 C2871 1.349 . S
C2872 C2884 1.349 . S
C2873 C2871 1.327 . S
C2873 C2889 1.429 . S
C2873 H2895 0.950 . S
C2874 H2870 0.949 . S
C2874 C2882 1.574 . S
C2874 C2890 1.368 . S
H2875 C2883 0.950 . S
H2876 C2881 0.950 . S
H2877 C2882 0.949 . S
H2878 C2884 0.950 . S
H2879 C2885 0.950 . S
H2880 C2886 0.949 . S
C2881 H2876 0.950 . S
C2881 C2883 1.327 . S
C2881 C2887 1.429 . S
C2882 C2874 1.574 . S
C2882 H2877 0.949 . S
C2882 C2888 1.368 . S
C2883 C2867 1.349 . S
C2883 H2875 0.950 . S
C2883 C2881 1.327 . S
C2884 C2872 1.349 . S
C2884 H2878 0.950 . S
C2884 C2885 1.327 . S
C2885 H2879 0.950 . S
C2885 C2884 1.327 . S
C2885 C2889 1.429 . S
C2886 C2869 1.574 . S
C2886 H2880 0.949 . S
C2886 C2890 1.368 . S
C2887 C2868 1.429 . S
C2887 C2881 1.429 . S
C2887 C2888 1.523 . S
C2888 C2869 1.368 . S
C2888 C2882 1.368 . S
C2888 C2887 1.523 . S
C2889 C2873 1.429 . S
C2889 C2885 1.429 . S
C2889 C2890 1.523 . S
C2890 C2874 1.368 . S
C2890 C2886 1.368 . S
C2890 C2889 1.523 . S
H2891 C2866 0.950 . S
H2892 C2868 0.950 . S
H2893 C2869 0.949 . S
H2894 C2871 0.950 . S
H2895 C2873 0.950 . S
C2896 C2897 1.349 . S
C2896 C2898 1.327 . S
C2896 H2921 0.950 . S
C2897 C2896 1.349 . S
C2897 C2913 1.349 . S
C2898 C2896 1.327 . S
C2898 C2917 1.429 . S
C2898 H2922 0.950 . S
C2899 C2916 1.574 . S
C2899 C2918 1.368 . S
C2899 H2923 0.949 . S
H2900 C2904 0.949 . S
C2901 C2902 1.349 . S
C2901 C2903 1.327 . S
C2901 H2924 0.950 . S
C2902 C2901 1.349 . S
C2902 C2914 1.349 . S
C2903 C2901 1.327 . S
C2903 C2919 1.429 . S
C2903 H2925 0.950 . S
C2904 H2900 0.949 . S
C2904 C2912 1.574 . S
C2904 C2920 1.368 . S
H2905 C2913 0.950 . S
H2906 C2911 0.950 . S
H2907 C2912 0.949 . S
H2908 C2914 0.950 . S
H2909 C2915 0.950 . S
H2910 C2916 0.949 . S
C2911 H2906 0.950 . S
C2911 C2913 1.327 . S
C2911 C2917 1.429 . S
C2912 C2904 1.574 . S
C2912 H2907 0.949 . S
C2912 C2918 1.368 . S
C2913 C2897 1.349 . S
C2913 H2905 0.950 . S
C2913 C2911 1.327 . S
C2914 C2902 1.349 . S
C2914 H2908 0.950 . S
C2914 C2915 1.327 . S
C2915 H2909 0.950 . S
C2915 C2914 1.327 . S
C2915 C2919 1.429 . S
C2916 C2899 1.574 . S
C2916 H2910 0.949 . S
C2916 C2920 1.368 . S
C2917 C2898 1.429 . S
C2917 C2911 1.429 . S
C2917 C2918 1.523 . S
C2918 C2899 1.368 . S
C2918 C2912 1.368 . S
C2918 C2917 1.523 . S
C2919 C2903 1.429 . S
C2919 C2915 1.429 . S
C2919 C2920 1.523 . S
C2920 C2904 1.368 . S
C2920 C2916 1.368 . S
C2920 C2919 1.523 . S
H2921 C2896 0.950 . S
H2922 C2898 0.950 . S
H2923 C2899 0.949 . S
H2924 C2901 0.950 . S
H2925 C2903 0.950 . S
C2926 C2927 1.349 . S
C2926 C2928 1.327 . S
C2926 H2951 0.950 . S
C2927 C2926 1.349 . S
C2927 C2943 1.349 . S
C2928 C2926 1.327 . S
C2928 C2947 1.429 . S
C2928 H2952 0.950 . S
C2929 C2946 1.574 . S
C2929 C2948 1.368 . S
C2929 H2953 0.949 . S
H2930 C2934 0.949 . S
C2931 C2932 1.349 . S
C2931 C2933 1.327 . S
C2931 H2954 0.950 . S
C2932 C2931 1.349 . S
C2932 C2944 1.349 . S
C2933 C2931 1.327 . S
C2933 C2949 1.429 . S
C2933 H2955 0.950 . S
C2934 H2930 0.949 . S
C2934 C2942 1.574 . S
C2934 C2950 1.368 . S
H2935 C2943 0.950 . S
H2936 C2941 0.950 . S
H2937 C2942 0.949 . S
H2938 C2944 0.950 . S
H2939 C2945 0.950 . S
H2940 C2946 0.949 . S
C2941 H2936 0.950 . S
C2941 C2943 1.327 . S
C2941 C2947 1.429 . S
C2942 C2934 1.574 . S
C2942 H2937 0.949 . S
C2942 C2948 1.368 . S
C2943 C2927 1.349 . S
C2943 H2935 0.950 . S
C2943 C2941 1.327 . S
C2944 C2932 1.349 . S
C2944 H2938 0.950 . S
C2944 C2945 1.327 . S
C2945 H2939 0.950 . S
C2945 C2944 1.327 . S
C2945 C2949 1.429 . S
C2946 C2929 1.574 . S
C2946 H2940 0.949 . S
C2946 C2950 1.368 . S
C2947 C2928 1.429 . S
C2947 C2941 1.429 . S
C2947 C2948 1.523 . S
C2948 C2929 1.368 . S
C2948 C2942 1.368 . S
C2948 C2947 1.523 . S
C2949 C2933 1.429 . S
C2949 C2945 1.429 . S
C2949 C2950 1.523 . S
C2950 C2934 1.368 . S
C2950 C2946 1.368 . S
C2950 C2949 1.523 . S
H2951 C2926 0.950 . S
H2952 C2928 0.950 . S
H2953 C2929 0.949 . S
H2954 C2931 0.950 . S
H2955 C2933 0.950 . S
C2956 C2957 1.349 . S
C2956 C2958 1.327 . S
C2956 H2981 0.950 . S
C2957 C2956 1.349 . S
C2957 C2973 1.349 . S
C2958 C2956 1.327 . S
C2958 C2977 1.429 . S
C2958 H2982 0.950 . S
C2959 C2976 1.574 . S
C2959 C2978 1.368 . S
C2959 H2983 0.949 . S
H2960 C2964 0.949 . S
C2961 C2962 1.349 . S
C2961 C2963 1.327 . S
C2961 H2984 0.950 . S
C2962 C2961 1.349 . S
C2962 C2974 1.349 . S
C2963 C2961 1.327 . S
C2963 C2979 1.429 . S
C2963 H2985 0.950 . S
C2964 H2960 0.949 . S
C2964 C2972 1.574 . S
C2964 C2980 1.368 . S
H2965 C2973 0.950 . S
H2966 C2971 0.950 . S
H2967 C2972 0.949 . S
H2968 C2974 0.950 . S
H2969 C2975 0.950 . S
H2970 C2976 0.949 . S
C2971 H2966 0.950 . S
C2971 C2973 1.327 . S
C2971 C2977 1.429 . S
C2972 C2964 1.574 . S
C2972 H2967 0.949 . S
C2972 C2978 1.368 . S
C2973 C2957 1.349 . S
C2973 H2965 0.950 . S
C2973 C2971 1.327 . S
C2974 C2962 1.349 . S
C2974 H2968 0.950 . S
C2974 C2975 1.327 . S
C2975 H2969 0.950 . S
C2975 C2974 1.327 . S
C2975 C2979 1.429 . S
C2976 C2959 1.574 . S
C2976 H2970 0.949 . S
C2976 C2980 1.368 . S
C2977 C2958 1.429 . S
C2977 C2971 1.429 . S
C2977 C2978 1.523 . S
C2978 C2959 1.368 . S
C2978 C2972 1.368 . S
C2978 C2977 1.523 . S
C2979 C2963 1.429 . S
C2979 C2975 1.429 . S
C2979 C2980 1.523 . S
C2980 C2964 1.368 . S
C2980 C2976 1.368 . S
C2980 C2979 1.523 . S
H2981 C2956 0.950 . S
H2982 C2958 0.950 . S
H2983 C2959 0.949 . S
H2984 C2961 0.950 . S
H2985 C2963 0.950 . S
C2986 C2987 1.362 . S
C2986 C2988 1.324 . S
C2986 H3011 0.939 1_554 S
C2987 C2986 1.362 . S
C2987 C3003 1.349 . S
C2988 C2986 1.324 . S
C2988 C3007 1.425 . S
C2988 H3012 0.955 1_554 S
C2989 C3006 1.574 . S
C2989 C3008 1.368 . S
C2989 H3013 0.949 . S
H2990 C2994 0.989 . S
C2991 C2992 1.349 1_565 S
C2991 C2993 1.327 . S
C2991 H3014 0.950 . S
C2992 C2991 1.349 1_545 S
C2992 C3004 1.351 . S
C2993 C2991 1.327 . S
C2993 C3009 1.429 . S
C2993 H3015 0.950 . S
C2994 H2990 0.989 . S
C2994 C3002 1.573 . S
C2994 C3010 1.338 1_556 S
H2995 C3003 0.950 . S
H2996 C3001 0.950 . S
H2997 C3002 0.975 . S
H2998 C3004 0.948 1_556 S
H2999 C3005 0.951 . S
H3000 C3006 0.949 . S
C3001 H2996 0.950 . S
C3001 C3003 1.327 . S
C3001 C3007 1.429 . S
C3002 C2994 1.573 . S
C3002 H2997 0.975 . S
C3002 C3008 1.336 1_556 S
C3003 C2987 1.349 . S
C3003 H2995 0.950 . S
C3003 C3001 1.327 . S
C3004 C2992 1.351 . S
C3004 H2998 0.948 1_554 S
C3004 C3005 1.328 1_554 S
C3005 H2999 0.951 . S
C3005 C3004 1.328 1_556 S
C3005 C3009 1.427 1_546 S
C3006 C2989 1.574 . S
C3006 H3000 0.949 . S
C3006 C3010 1.368 . S
C3007 C2988 1.425 . S
C3007 C3001 1.429 . S
C3007 C3008 1.523 . S
C3008 C2989 1.368 . S
C3008 C3002 1.336 1_554 S
C3008 C3007 1.523 . S
C3009 C2993 1.429 . S
C3009 C3005 1.427 1_564 S
C3009 C3010 1.523 . S
C3010 C2994 1.338 1_554 S
C3010 C3006 1.368 . S
C3010 C3009 1.523 . S
H3011 C2986 0.939 1_556 S
H3012 C2988 0.955 1_556 S
H3013 C2989 0.949 . S
H3014 C2991 0.950 . S
H3015 C2993 0.950 . S
C3016 C3017 1.349 . S
C3016 C3018 1.327 . S
C3016 H3041 0.950 . S
C3017 C3016 1.349 . S
C3017 C3033 1.349 . S
C3018 C3016 1.327 . S
C3018 C3037 1.429 . S
C3018 H3042 0.950 . S
C3019 C3036 1.574 . S
C3019 C3038 1.368 . S
C3019 H3043 0.949 . S
H3020 C3024 0.949 . S
C3021 C3022 1.349 . S
C3021 C3023 1.327 . S
C3021 H3044 0.950 . S
C3022 C3021 1.349 . S
C3022 C3034 1.349 . S
C3023 C3021 1.327 . S
C3023 C3039 1.429 . S
C3023 H3045 0.950 . S
C3024 H3020 0.949 . S
C3024 C3032 1.574 . S
C3024 C3040 1.368 . S
H3025 C3033 0.950 . S
H3026 C3031 0.950 . S
H3027 C3032 0.949 . S
H3028 C3034 0.950 . S
H3029 C3035 0.950 . S
H3030 C3036 0.949 . S
C3031 H3026 0.950 . S
C3031 C3033 1.327 . S
C3031 C3037 1.429 . S
C3032 C3024 1.574 . S
C3032 H3027 0.949 . S
C3032 C3038 1.368 . S
C3033 C3017 1.349 . S
C3033 H3025 0.950 . S
C3033 C3031 1.327 . S
C3034 C3022 1.349 . S
C3034 H3028 0.950 . S
C3034 C3035 1.327 . S
C3035 H3029 0.950 . S
C3035 C3034 1.327 . S
C3035 C3039 1.429 . S
C3036 C3019 1.574 . S
C3036 H3030 0.949 . S
C3036 C3040 1.368 . S
C3037 C3018 1.429 . S
C3037 C3031 1.429 . S
C3037 C3038 1.523 . S
C3038 C3019 1.368 . S
C3038 C3032 1.368 . S
C3038 C3037 1.523 . S
C3039 C3023 1.429 . S
C3039 C3035 1.429 . S
C3039 C3040 1.523 . S
C3040 C3024 1.368 . S
C3040 C3036 1.368 . S
C3040 C3039 1.523 . S
H3041 C3016 0.950 . S
H3042 C3018 0.950 . S
H3043 C3019 0.949 . S
H3044 C3021 0.950 . S
H3045 C3023 0.950 . S
C3046 C3047 1.349 . S
C3046 C3048 1.327 . S
C3046 H3071 0.950 . S
C3047 C3046 1.349 . S
C3047 C3063 1.349 1_554 S
C3048 C3046 1.327 . S
C3048 C3067 1.429 . S
C3048 H3072 0.950 . S
C3049 C3066 1.574 . S
C3049 C3068 1.368 . S
C3049 H3073 0.949 1_554 S
H3050 C3054 0.949 . S
C3051 C3052 1.349 . S
C3051 C3053 1.327 . S
C3051 H3074 0.950 . S
C3052 C3051 1.349 . S
C3052 C3064 1.349 . S
C3053 C3051 1.327 . S
C3053 C3069 1.429 . S
C3053 H3075 0.950 . S
C3054 H3050 0.949 . S
C3054 C3062 1.574 . S
C3054 C3070 1.368 . S
H3055 C3063 0.950 . S
H3056 C3061 0.950 . S
H3057 C3062 0.949 . S
H3058 C3064 0.950 . S
H3059 C3065 0.950 . S
H3060 C3066 0.950 1_556 S
C3061 H3056 0.950 . S
C3061 C3063 1.327 . S
C3061 C3067 1.429 1_556 S
C3062 C3054 1.574 . S
C3062 H3057 0.949 . S
C3062 C3068 1.368 . S
C3063 C3047 1.349 1_556 S
C3063 H3055 0.950 . S
C3063 C3061 1.327 . S
C3064 C3052 1.349 . S
C3064 H3058 0.950 . S
C3064 C3065 1.327 . S
C3065 H3059 0.950 . S
C3065 C3064 1.327 . S
C3065 C3069 1.429 . S
C3066 C3049 1.574 . S
C3066 H3060 0.950 1_554 S
C3066 C3070 1.368 . S
C3067 C3048 1.429 . S
C3067 C3061 1.429 1_554 S
C3067 C3068 1.523 . S
C3068 C3049 1.368 . S
C3068 C3062 1.368 . S
C3068 C3067 1.523 . S
C3069 C3053 1.429 . S
C3069 C3065 1.429 . S
C3069 C3070 1.523 . S
C3070 C3054 1.368 . S
C3070 C3066 1.368 . S
C3070 C3069 1.523 . S
H3071 C3046 0.950 . S
H3072 C3048 0.950 . S
H3073 C3049 0.949 1_556 S
H3074 C3051 0.950 . S
H3075 C3053 0.950 . S
C3076 C3077 1.349 . S
C3076 C3078 1.327 . S
C3076 H3101 0.950 . S
C3077 C3076 1.349 . S
C3077 C3093 1.349 . S
C3078 C3076 1.327 . S
C3078 C3097 1.429 . S
C3078 H3102 0.950 . S
C3079 C3096 1.574 . S
C3079 C3098 1.368 . S
C3079 H3103 0.949 . S
H3080 C3084 0.949 . S
C3081 C3082 1.349 . S
C3081 C3083 1.327 . S
C3081 H3104 0.950 . S
C3082 C3081 1.349 . S
C3082 C3094 1.349 . S
C3083 C3081 1.327 . S
C3083 C3099 1.429 . S
C3083 H3105 0.950 . S
C3084 H3080 0.949 . S
C3084 C3092 1.574 . S
C3084 C3100 1.368 . S
H3085 C3093 0.950 . S
H3086 C3091 0.950 . S
H3087 C3092 0.949 . S
H3088 C3094 0.950 . S
H3089 C3095 0.950 . S
H3090 C3096 0.949 . S
C3091 H3086 0.950 . S
C3091 C3093 1.327 . S
C3091 C3097 1.429 . S
C3092 C3084 1.574 . S
C3092 H3087 0.949 . S
C3092 C3098 1.368 . S
C3093 C3077 1.349 . S
C3093 H3085 0.950 . S
C3093 C3091 1.327 . S
C3094 C3082 1.349 . S
C3094 H3088 0.950 . S
C3094 C3095 1.327 . S
C3095 H3089 0.950 . S
C3095 C3094 1.327 . S
C3095 C3099 1.429 . S
C3096 C3079 1.574 . S
C3096 H3090 0.949 . S
C3096 C3100 1.368 . S
C3097 C3078 1.429 . S
C3097 C3091 1.429 . S
C3097 C3098 1.523 . S
C3098 C3079 1.368 . S
C3098 C3092 1.368 . S
C3098 C3097 1.523 . S
C3099 C3083 1.429 . S
C3099 C3095 1.429 . S
C3099 C3100 1.523 . S
C3100 C3084 1.368 . S
C3100 C3096 1.368 . S
C3100 C3099 1.523 . S
H3101 C3076 0.950 . S
H3102 C3078 0.950 . S
H3103 C3079 0.949 . S
H3104 C3081 0.950 . S
H3105 C3083 0.950 . S
C3106 C3107 1.349 . S
C3106 C3108 1.327 . S
C3106 H3131 0.950 . S
C3107 C3106 1.349 . S
C3107 C3123 1.349 . S
C3108 C3106 1.327 . S
C3108 C3127 1.429 . S
C3108 H3132 0.950 . S
C3109 C3126 1.574 . S
C3109 C3128 1.368 . S
C3109 H3133 0.949 . S
H3110 C3114 0.949 . S
C3111 C3112 1.349 . S
C3111 C3113 1.327 . S
C3111 H3134 0.950 . S
C3112 C3111 1.349 . S
C3112 C3124 1.349 . S
C3113 C3111 1.327 . S
C3113 C3129 1.429 . S
C3113 H3135 0.950 . S
C3114 H3110 0.949 . S
C3114 C3122 1.574 . S
C3114 C3130 1.368 . S
H3115 C3123 0.950 . S
H3116 C3121 0.950 . S
H3117 C3122 0.949 . S
H3118 C3124 0.950 . S
H3119 C3125 0.950 . S
H3120 C3126 0.949 . S
C3121 H3116 0.950 . S
C3121 C3123 1.327 . S
C3121 C3127 1.429 . S
C3122 C3114 1.574 . S
C3122 H3117 0.949 . S
C3122 C3128 1.368 . S
C3123 C3107 1.349 . S
C3123 H3115 0.950 . S
C3123 C3121 1.327 . S
C3124 C3112 1.349 . S
C3124 H3118 0.950 . S
C3124 C3125 1.327 . S
C3125 H3119 0.950 . S
C3125 C3124 1.327 . S
C3125 C3129 1.429 . S
C3126 C3109 1.574 . S
C3126 H3120 0.949 . S
C3126 C3130 1.368 . S
C3127 C3108 1.429 . S
C3127 C3121 1.429 . S
C3127 C3128 1.523 . S
C3128 C3109 1.368 . S
C3128 C3122 1.368 . S
C3128 C3127 1.523 . S
C3129 C3113 1.429 . S
C3129 C3125 1.429 . S
C3129 C3130 1.523 . S
C3130 C3114 1.368 . S
C3130 C3126 1.368 . S
C3130 C3129 1.523 . S
H3131 C3106 0.950 . S
H3132 C3108 0.950 . S
H3133 C3109 0.949 . S
H3134 C3111 0.950 . S
H3135 C3113 0.950 . S
C3136 C3137 1.349 . S
C3136 C3138 1.327 . S
C3136 H3161 0.950 . S
C3137 C3136 1.349 . S
C3137 C3153 1.349 . S
C3138 C3136 1.327 . S
C3138 C3157 1.429 . S
C3138 H3162 0.950 . S
C3139 C3156 1.574 . S
C3139 C3158 1.368 . S
C3139 H3163 0.949 . S
H3140 C3144 0.949 . S
C3141 C3142 1.349 . S
C3141 C3143 1.327 . S
C3141 H3164 0.950 . S
C3142 C3141 1.349 . S
C3142 C3154 1.349 . S
C3143 C3141 1.327 . S
C3143 C3159 1.429 . S
C3143 H3165 0.950 . S
C3144 H3140 0.949 . S
C3144 C3152 1.574 . S
C3144 C3160 1.368 . S
H3145 C3153 0.950 . S
H3146 C3151 0.950 . S
H3147 C3152 0.949 . S
H3148 C3154 0.950 . S
H3149 C3155 0.950 . S
H3150 C3156 0.949 . S
C3151 H3146 0.950 . S
C3151 C3153 1.327 . S
C3151 C3157 1.429 . S
C3152 C3144 1.574 . S
C3152 H3147 0.949 . S
C3152 C3158 1.368 . S
C3153 C3137 1.349 . S
C3153 H3145 0.950 . S
C3153 C3151 1.327 . S
C3154 C3142 1.349 . S
C3154 H3148 0.950 . S
C3154 C3155 1.327 . S
C3155 H3149 0.950 . S
C3155 C3154 1.327 . S
C3155 C3159 1.429 . S
C3156 C3139 1.574 . S
C3156 H3150 0.949 . S
C3156 C3160 1.368 . S
C3157 C3138 1.429 . S
C3157 C3151 1.429 . S
C3157 C3158 1.523 . S
C3158 C3139 1.368 . S
C3158 C3152 1.368 . S
C3158 C3157 1.523 . S
C3159 C3143 1.429 . S
C3159 C3155 1.429 . S
C3159 C3160 1.523 . S
C3160 C3144 1.368 . S
C3160 C3156 1.368 . S
C3160 C3159 1.523 . S
H3161 C3136 0.950 . S
H3162 C3138 0.950 . S
H3163 C3139 0.949 . S
H3164 C3141 0.950 . S
H3165 C3143 0.950 . S
C3166 C3167 1.349 . S
C3166 C3168 1.327 . S
C3166 H3191 0.950 . S
C3167 C3166 1.349 . S
C3167 C3183 1.349 . S
C3168 C3166 1.327 . S
C3168 C3187 1.429 . S
C3168 H3192 0.950 . S
C3169 C3186 1.574 . S
C3169 C3188 1.368 . S
C3169 H3193 0.949 . S
H3170 C3174 0.949 . S
C3171 C3172 1.349 . S
C3171 C3173 1.327 . S
C3171 H3194 0.950 . S
C3172 C3171 1.349 . S
C3172 C3184 1.349 . S
C3173 C3171 1.327 . S
C3173 C3189 1.429 . S
C3173 H3195 0.950 . S
C3174 H3170 0.949 . S
C3174 C3182 1.574 . S
C3174 C3190 1.368 . S
H3175 C3183 0.950 . S
H3176 C3181 0.950 . S
H3177 C3182 0.949 . S
H3178 C3184 0.950 . S
H3179 C3185 0.950 . S
H3180 C3186 0.949 . S
C3181 H3176 0.950 . S
C3181 C3183 1.327 . S
C3181 C3187 1.429 . S
C3182 C3174 1.574 . S
C3182 H3177 0.949 . S
C3182 C3188 1.368 . S
C3183 C3167 1.349 . S
C3183 H3175 0.950 . S
C3183 C3181 1.327 . S
C3184 C3172 1.349 . S
C3184 H3178 0.950 . S
C3184 C3185 1.327 . S
C3185 H3179 0.950 . S
C3185 C3184 1.327 . S
C3185 C3189 1.429 . S
C3186 C3169 1.574 . S
C3186 H3180 0.949 . S
C3186 C3190 1.368 . S
C3187 C3168 1.429 . S
C3187 C3181 1.429 . S
C3187 C3188 1.523 . S
C3188 C3169 1.368 . S
C3188 C3182 1.368 . S
C3188 C3187 1.523 . S
C3189 C3173 1.429 . S
C3189 C3185 1.429 . S
C3189 C3190 1.523 . S
C3190 C3174 1.368 . S
C3190 C3186 1.368 . S
C3190 C3189 1.523 . S
H3191 C3166 0.950 . S
H3192 C3168 0.950 . S
H3193 C3169 0.949 . S
H3194 C3171 0.950 . S
H3195 C3173 0.950 . S
C3196 C3197 1.349 . S
C3196 C3198 1.327 . S
C3196 H3221 0.950 . S
C3197 C3196 1.349 . S
C3197 C3213 1.349 . S
C3198 C3196 1.327 . S
C3198 C3217 1.429 . S
C3198 H3222 0.950 . S
C3199 C3216 1.574 . S
C3199 C3218 1.368 . S
C3199 H3223 0.949 . S
H3200 C3204 0.949 . S
C3201 C3202 1.349 . S
C3201 C3203 1.327 . S
C3201 H3224 0.950 . S
C3202 C3201 1.349 . S
C3202 C3214 1.349 . S
C3203 C3201 1.327 . S
C3203 C3219 1.429 . S
C3203 H3225 0.950 . S
C3204 H3200 0.949 . S
C3204 C3212 1.574 . S
C3204 C3220 1.368 . S
H3205 C3213 0.950 . S
H3206 C3211 0.950 . S
H3207 C3212 0.949 . S
H3208 C3214 0.950 . S
H3209 C3215 0.950 . S
H3210 C3216 0.949 . S
C3211 H3206 0.950 . S
C3211 C3213 1.327 . S
C3211 C3217 1.429 . S
C3212 C3204 1.574 . S
C3212 H3207 0.949 . S
C3212 C3218 1.368 . S
C3213 C3197 1.349 . S
C3213 H3205 0.950 . S
C3213 C3211 1.327 . S
C3214 C3202 1.349 . S
C3214 H3208 0.950 . S
C3214 C3215 1.327 . S
C3215 H3209 0.950 . S
C3215 C3214 1.327 . S
C3215 C3219 1.429 . S
C3216 C3199 1.574 . S
C3216 H3210 0.949 . S
C3216 C3220 1.368 . S
C3217 C3198 1.429 . S
C3217 C3211 1.429 . S
C3217 C3218 1.523 . S
C3218 C3199 1.368 . S
C3218 C3212 1.368 . S
C3218 C3217 1.523 . S
C3219 C3203 1.429 . S
C3219 C3215 1.429 . S
C3219 C3220 1.523 . S
C3220 C3204 1.368 . S
C3220 C3216 1.368 . S
C3220 C3219 1.523 . S
H3221 C3196 0.950 . S
H3222 C3198 0.950 . S
H3223 C3199 0.949 . S
H3224 C3201 0.950 . S
H3225 C3203 0.950 . S
C3226 C3227 1.349 . S
C3226 C3228 1.327 . S
C3226 H3251 0.950 . S
C3227 C3226 1.349 . S
C3227 C3243 1.349 . S
C3228 C3226 1.327 . S
C3228 C3247 1.429 . S
C3228 H3252 0.950 . S
C3229 C3246 1.574 . S
C3229 C3248 1.368 . S
C3229 H3253 0.949 . S
H3230 C3234 0.949 . S
C3231 C3232 1.349 . S
C3231 C3233 1.327 . S
C3231 H3254 0.950 . S
C3232 C3231 1.349 . S
C3232 C3244 1.349 . S
C3233 C3231 1.327 . S
C3233 C3249 1.429 . S
C3233 H3255 0.950 . S
C3234 H3230 0.949 . S
C3234 C3242 1.574 . S
C3234 C3250 1.368 . S
H3235 C3243 0.950 . S
H3236 C3241 0.950 . S
H3237 C3242 0.949 . S
H3238 C3244 0.950 . S
H3239 C3245 0.950 . S
H3240 C3246 0.949 . S
C3241 H3236 0.950 . S
C3241 C3243 1.327 . S
C3241 C3247 1.429 . S
C3242 C3234 1.574 . S
C3242 H3237 0.949 . S
C3242 C3248 1.368 . S
C3243 C3227 1.349 . S
C3243 H3235 0.950 . S
C3243 C3241 1.327 . S
C3244 C3232 1.349 . S
C3244 H3238 0.950 . S
C3244 C3245 1.327 . S
C3245 H3239 0.950 . S
C3245 C3244 1.327 . S
C3245 C3249 1.429 . S
C3246 C3229 1.574 . S
C3246 H3240 0.949 . S
C3246 C3250 1.368 . S
C3247 C3228 1.429 . S
C3247 C3241 1.429 . S
C3247 C3248 1.523 . S
C3248 C3229 1.368 . S
C3248 C3242 1.368 . S
C3248 C3247 1.523 . S
C3249 C3233 1.429 . S
C3249 C3245 1.429 . S
C3249 C3250 1.523 . S
C3250 C3234 1.368 . S
C3250 C3246 1.368 . S
C3250 C3249 1.523 . S
H3251 C3226 0.950 . S
H3252 C3228 0.950 . S
H3253 C3229 0.949 . S
H3254 C3231 0.950 . S
H3255 C3233 0.950 . S
C3256 C3257 1.349 . S
C3256 C3258 1.327 . S
C3256 H3281 0.950 . S
C3257 C3256 1.349 . S
C3257 C3273 1.349 . S
C3258 C3256 1.327 . S
C3258 C3277 1.429 . S
C3258 H3282 0.950 . S
C3259 C3276 1.574 . S
C3259 C3278 1.368 . S
C3259 H3283 0.949 . S
H3260 C3264 0.949 . S
C3261 C3262 1.349 . S
C3261 C3263 1.327 . S
C3261 H3284 0.950 . S
C3262 C3261 1.349 . S
C3262 C3274 1.349 . S
C3263 C3261 1.327 . S
C3263 C3279 1.429 . S
C3263 H3285 0.950 . S
C3264 H3260 0.949 . S
C3264 C3272 1.574 . S
C3264 C3280 1.368 . S
H3265 C3273 0.950 . S
H3266 C3271 0.950 . S
H3267 C3272 0.949 . S
H3268 C3274 0.950 . S
H3269 C3275 0.950 . S
H3270 C3276 0.949 . S
C3271 H3266 0.950 . S
C3271 C3273 1.327 . S
C3271 C3277 1.429 . S
C3272 C3264 1.574 . S
C3272 H3267 0.949 . S
C3272 C3278 1.368 . S
C3273 C3257 1.349 . S
C3273 H3265 0.950 . S
C3273 C3271 1.327 . S
C3274 C3262 1.349 . S
C3274 H3268 0.950 . S
C3274 C3275 1.327 . S
C3275 H3269 0.950 . S
C3275 C3274 1.327 . S
C3275 C3279 1.429 . S
C3276 C3259 1.574 . S
C3276 H3270 0.949 . S
C3276 C3280 1.368 . S
C3277 C3258 1.429 . S
C3277 C3271 1.429 . S
C3277 C3278 1.523 . S
C3278 C3259 1.368 . S
C3278 C3272 1.368 . S
C3278 C3277 1.523 . S
C3279 C3263 1.429 . S
C3279 C3275 1.429 . S
C3279 C3280 1.523 . S
C3280 C3264 1.368 . S
C3280 C3276 1.368 . S
C3280 C3279 1.523 . S
H3281 C3256 0.950 . S
H3282 C3258 0.950 . S
H3283 C3259 0.949 . S
H3284 C3261 0.950 . S
H3285 C3263 0.950 . S
C3286 C3287 1.349 . S
C3286 C3288 1.327 . S
C3286 H3311 0.950 . S
C3287 C3286 1.349 . S
C3287 C3303 1.349 . S
C3288 C3286 1.327 . S
C3288 C3307 1.429 . S
C3288 H3312 0.950 . S
C3289 C3306 1.574 . S
C3289 C3308 1.368 . S
C3289 H3313 0.949 . S
H3290 C3294 0.949 . S
C3291 C3292 1.349 . S
C3291 C3293 1.327 . S
C3291 H3314 0.950 . S
C3292 C3291 1.349 . S
C3292 C3304 1.349 . S
C3293 C3291 1.327 . S
C3293 C3309 1.429 . S
C3293 H3315 0.950 . S
C3294 H3290 0.949 . S
C3294 C3302 1.574 . S
C3294 C3310 1.368 . S
H3295 C3303 0.950 . S
H3296 C3301 0.950 . S
H3297 C3302 0.949 . S
H3298 C3304 0.950 . S
H3299 C3305 0.950 . S
H3300 C3306 0.949 . S
C3301 H3296 0.950 . S
C3301 C3303 1.327 . S
C3301 C3307 1.429 . S
C3302 C3294 1.574 . S
C3302 H3297 0.949 . S
C3302 C3308 1.368 . S
C3303 C3287 1.349 . S
C3303 H3295 0.950 . S
C3303 C3301 1.327 . S
C3304 C3292 1.349 . S
C3304 H3298 0.950 . S
C3304 C3305 1.327 . S
C3305 H3299 0.950 . S
C3305 C3304 1.327 . S
C3305 C3309 1.429 . S
C3306 C3289 1.574 . S
C3306 H3300 0.949 . S
C3306 C3310 1.368 . S
C3307 C3288 1.429 . S
C3307 C3301 1.429 . S
C3307 C3308 1.523 . S
C3308 C3289 1.368 . S
C3308 C3302 1.368 . S
C3308 C3307 1.523 . S
C3309 C3293 1.429 . S
C3309 C3305 1.429 . S
C3309 C3310 1.523 . S
C3310 C3294 1.368 . S
C3310 C3306 1.368 . S
C3310 C3309 1.523 . S
H3311 C3286 0.950 . S
H3312 C3288 0.950 . S
H3313 C3289 0.949 . S
H3314 C3291 0.950 . S
H3315 C3293 0.950 . S
C3316 C3317 1.349 . S
C3316 C3318 1.327 . S
C3316 H3341 0.950 . S
C3317 C3316 1.349 . S
C3317 C3333 1.349 . S
C3318 C3316 1.327 . S
C3318 C3337 1.429 . S
C3318 H3342 0.950 . S
C3319 C3336 1.574 . S
C3319 C3338 1.368 . S
C3319 H3343 0.949 . S
H3320 C3324 0.949 . S
C3321 C3322 1.349 . S
C3321 C3323 1.327 . S
C3321 H3344 0.950 . S
C3322 C3321 1.349 . S
C3322 C3334 1.349 . S
C3323 C3321 1.327 . S
C3323 C3339 1.429 . S
C3323 H3345 0.950 . S
C3324 H3320 0.949 . S
C3324 C3332 1.574 . S
C3324 C3340 1.368 . S
H3325 C3333 0.950 . S
H3326 C3331 0.950 . S
H3327 C3332 0.949 . S
H3328 C3334 0.950 . S
H3329 C3335 0.950 . S
H3330 C3336 0.949 . S
C3331 H3326 0.950 . S
C3331 C3333 1.327 . S
C3331 C3337 1.429 . S
C3332 C3324 1.574 . S
C3332 H3327 0.949 . S
C3332 C3338 1.368 . S
C3333 C3317 1.349 . S
C3333 H3325 0.950 . S
C3333 C3331 1.327 . S
C3334 C3322 1.349 . S
C3334 H3328 0.950 . S
C3334 C3335 1.327 . S
C3335 H3329 0.950 . S
C3335 C3334 1.327 . S
C3335 C3339 1.429 . S
C3336 C3319 1.574 . S
C3336 H3330 0.949 . S
C3336 C3340 1.368 . S
C3337 C3318 1.429 . S
C3337 C3331 1.429 . S
C3337 C3338 1.523 . S
C3338 C3319 1.368 . S
C3338 C3332 1.368 . S
C3338 C3337 1.523 . S
C3339 C3323 1.429 . S
C3339 C3335 1.429 . S
C3339 C3340 1.523 . S
C3340 C3324 1.368 . S
C3340 C3336 1.368 . S
C3340 C3339 1.523 . S
H3341 C3316 0.950 . S
H3342 C3318 0.950 . S
H3343 C3319 0.949 . S
H3344 C3321 0.950 . S
H3345 C3323 0.950 . S
C3346 C3347 1.349 . S
C3346 C3348 1.327 . S
C3346 H3371 0.950 . S
C3347 C3346 1.349 . S
C3347 C3363 1.349 . S
C3348 C3346 1.327 . S
C3348 C3367 1.429 . S
C3348 H3372 0.950 . S
C3349 C3366 1.574 . S
C3349 C3368 1.368 . S
C3349 H3373 0.949 . S
H3350 C3354 0.949 . S
C3351 C3352 1.349 . S
C3351 C3353 1.327 . S
C3351 H3374 0.950 . S
C3352 C3351 1.349 . S
C3352 C3364 1.349 . S
C3353 C3351 1.327 . S
C3353 C3369 1.429 . S
C3353 H3375 0.950 . S
C3354 H3350 0.949 . S
C3354 C3362 1.574 . S
C3354 C3370 1.368 . S
H3355 C3363 0.950 . S
H3356 C3361 0.950 . S
H3357 C3362 0.949 . S
H3358 C3364 0.950 . S
H3359 C3365 0.950 . S
H3360 C3366 0.949 . S
C3361 H3356 0.950 . S
C3361 C3363 1.327 . S
C3361 C3367 1.429 . S
C3362 C3354 1.574 . S
C3362 H3357 0.949 . S
C3362 C3368 1.368 . S
C3363 C3347 1.349 . S
C3363 H3355 0.950 . S
C3363 C3361 1.327 . S
C3364 C3352 1.349 . S
C3364 H3358 0.950 . S
C3364 C3365 1.327 . S
C3365 H3359 0.950 . S
C3365 C3364 1.327 . S
C3365 C3369 1.429 . S
C3366 C3349 1.574 . S
C3366 H3360 0.949 . S
C3366 C3370 1.368 . S
C3367 C3348 1.429 . S
C3367 C3361 1.429 . S
C3367 C3368 1.523 . S
C3368 C3349 1.368 . S
C3368 C3362 1.368 . S
C3368 C3367 1.523 . S
C3369 C3353 1.429 . S
C3369 C3365 1.429 . S
C3369 C3370 1.523 . S
C3370 C3354 1.368 . S
C3370 C3366 1.368 . S
C3370 C3369 1.523 . S
H3371 C3346 0.950 . S
H3372 C3348 0.950 . S
H3373 C3349 0.949 . S
H3374 C3351 0.950 . S
H3375 C3353 0.950 . S
C3376 C3377 1.349 . S
C3376 C3378 1.327 . S
C3376 H3401 0.950 . S
C3377 C3376 1.349 . S
C3377 C3393 1.349 . S
C3378 C3376 1.327 . S
C3378 C3397 1.429 . S
C3378 H3402 0.950 . S
C3379 C3396 1.574 . S
C3379 C3398 1.368 . S
C3379 H3403 0.949 . S
H3380 C3384 0.949 . S
C3381 C3382 1.349 . S
C3381 C3383 1.327 . S
C3381 H3404 0.950 . S
C3382 C3381 1.349 . S
C3382 C3394 1.349 . S
C3383 C3381 1.327 . S
C3383 C3399 1.429 . S
C3383 H3405 0.950 . S
C3384 H3380 0.949 . S
C3384 C3392 1.574 . S
C3384 C3400 1.368 . S
H3385 C3393 0.950 . S
H3386 C3391 0.950 . S
H3387 C3392 0.949 . S
H3388 C3394 0.950 . S
H3389 C3395 0.950 . S
H3390 C3396 0.949 . S
C3391 H3386 0.950 . S
C3391 C3393 1.327 . S
C3391 C3397 1.429 . S
C3392 C3384 1.574 . S
C3392 H3387 0.949 . S
C3392 C3398 1.368 . S
C3393 C3377 1.349 . S
C3393 H3385 0.950 . S
C3393 C3391 1.327 . S
C3394 C3382 1.349 . S
C3394 H3388 0.950 . S
C3394 C3395 1.327 . S
C3395 H3389 0.950 . S
C3395 C3394 1.327 . S
C3395 C3399 1.429 . S
C3396 C3379 1.574 . S
C3396 H3390 0.949 . S
C3396 C3400 1.368 . S
C3397 C3378 1.429 . S
C3397 C3391 1.429 . S
C3397 C3398 1.523 . S
C3398 C3379 1.368 . S
C3398 C3392 1.368 . S
C3398 C3397 1.523 . S
C3399 C3383 1.429 . S
C3399 C3395 1.429 . S
C3399 C3400 1.523 . S
C3400 C3384 1.368 . S
C3400 C3396 1.368 . S
C3400 C3399 1.523 . S
H3401 C3376 0.950 . S
H3402 C3378 0.950 . S
H3403 C3379 0.949 . S
H3404 C3381 0.950 . S
H3405 C3383 0.950 . S
C3406 C3407 1.349 . S
C3406 C3408 1.327 . S
C3406 H3431 0.950 . S
C3407 C3406 1.349 . S
C3407 C3423 1.349 . S
C3408 C3406 1.327 . S
C3408 C3427 1.429 . S
C3408 H3432 0.950 . S
C3409 C3426 1.574 . S
C3409 C3428 1.368 . S
C3409 H3433 0.949 . S
H3410 C3414 0.949 . S
C3411 C3412 1.349 . S
C3411 C3413 1.327 . S
C3411 H3434 0.950 . S
C3412 C3411 1.349 . S
C3412 C3424 1.349 . S
C3413 C3411 1.327 . S
C3413 C3429 1.429 . S
C3413 H3435 0.950 . S
C3414 H3410 0.949 . S
C3414 C3422 1.574 . S
C3414 C3430 1.368 . S
H3415 C3423 0.950 . S
H3416 C3421 0.950 . S
H3417 C3422 0.949 . S
H3418 C3424 0.950 . S
H3419 C3425 0.950 . S
H3420 C3426 0.949 . S
C3421 H3416 0.950 . S
C3421 C3423 1.327 . S
C3421 C3427 1.429 . S
C3422 C3414 1.574 . S
C3422 H3417 0.949 . S
C3422 C3428 1.368 . S
C3423 C3407 1.349 . S
C3423 H3415 0.950 . S
C3423 C3421 1.327 . S
C3424 C3412 1.349 . S
C3424 H3418 0.950 . S
C3424 C3425 1.327 . S
C3425 H3419 0.950 . S
C3425 C3424 1.327 . S
C3425 C3429 1.429 . S
C3426 C3409 1.574 . S
C3426 H3420 0.949 . S
C3426 C3430 1.368 . S
C3427 C3408 1.429 . S
C3427 C3421 1.429 . S
C3427 C3428 1.523 . S
C3428 C3409 1.368 . S
C3428 C3422 1.368 . S
C3428 C3427 1.523 . S
C3429 C3413 1.429 . S
C3429 C3425 1.429 . S
C3429 C3430 1.523 . S
C3430 C3414 1.368 . S
C3430 C3426 1.368 . S
C3430 C3429 1.523 . S
H3431 C3406 0.950 . S
H3432 C3408 0.950 . S
H3433 C3409 0.949 . S
H3434 C3411 0.950 . S
H3435 C3413 0.950 . S
C3436 C3437 1.349 . S
C3436 C3438 1.327 . S
C3436 H3461 0.950 . S
C3437 C3436 1.349 . S
C3437 C3453 1.349 . S
C3438 C3436 1.327 . S
C3438 C3457 1.429 . S
C3438 H3462 0.950 . S
C3439 C3456 1.574 . S
C3439 C3458 1.368 . S
C3439 H3463 0.949 . S
H3440 C3444 0.969 . S
C3441 C3442 1.349 . S
C3441 C3443 1.327 1_455 S
C3441 H3464 0.950 . S
C3442 C3441 1.349 . S
C3442 C3454 1.349 . S
C3443 C3441 1.327 1_655 S
C3443 C3459 1.429 . S
C3443 H3465 0.950 . S
C3444 H3440 0.969 . S
C3444 C3452 1.574 . S
C3444 C3460 1.368 . S
H3445 C3453 0.950 . S
H3446 C3451 0.950 . S
H3447 C3452 0.949 . S
H3448 C3454 0.950 . S
H3449 C3455 0.950 . S
H3450 C3456 0.949 . S
C3451 H3446 0.950 . S
C3451 C3453 1.327 . S
C3451 C3457 1.429 . S
C3452 C3444 1.574 . S
C3452 H3447 0.949 . S
C3452 C3458 1.368 . S
C3453 C3437 1.349 . S
C3453 H3445 0.950 . S
C3453 C3451 1.327 . S
C3454 C3442 1.349 . S
C3454 H3448 0.950 . S
C3454 C3455 1.327 . S
C3455 H3449 0.950 . S
C3455 C3454 1.327 . S
C3455 C3459 1.429 1_455 S
C3456 C3439 1.574 . S
C3456 H3450 0.949 . S
C3456 C3460 1.368 . S
C3457 C3438 1.429 . S
C3457 C3451 1.429 . S
C3457 C3458 1.523 . S
C3458 C3439 1.368 . S
C3458 C3452 1.368 . S
C3458 C3457 1.523 . S
C3459 C3443 1.429 . S
C3459 C3455 1.429 1_655 S
C3459 C3460 1.523 . S
C3460 C3444 1.368 . S
C3460 C3456 1.368 . S
C3460 C3459 1.523 . S
H3461 C3436 0.950 . S
H3462 C3438 0.950 . S
H3463 C3439 0.949 . S
H3464 C3441 0.950 . S
H3465 C3443 0.950 . S
C3466 C3467 1.349 . S
C3466 C3468 1.327 . S
C3466 H3491 0.950 . S
C3467 C3466 1.349 . S
C3467 C3483 1.349 . S
C3468 C3466 1.327 . S
C3468 C3487 1.429 . S
C3468 H3492 0.950 . S
C3469 C3486 1.574 . S
C3469 C3488 1.368 . S
C3469 H3493 0.949 . S
H3470 C3474 0.949 . S
C3471 C3472 1.349 . S
C3471 C3473 1.327 . S
C3471 H3494 0.950 . S
C3472 C3471 1.349 . S
C3472 C3484 1.349 . S
C3473 C3471 1.327 . S
C3473 C3489 1.429 . S
C3473 H3495 0.950 . S
C3474 H3470 0.949 . S
C3474 C3482 1.574 . S
C3474 C3490 1.368 . S
H3475 C3483 0.950 . S
H3476 C3481 0.950 . S
H3477 C3482 0.949 . S
H3478 C3484 0.950 . S
H3479 C3485 0.950 . S
H3480 C3486 0.949 . S
C3481 H3476 0.950 . S
C3481 C3483 1.327 . S
C3481 C3487 1.429 . S
C3482 C3474 1.574 . S
C3482 H3477 0.949 . S
C3482 C3488 1.368 . S
C3483 C3467 1.349 . S
C3483 H3475 0.950 . S
C3483 C3481 1.327 . S
C3484 C3472 1.349 . S
C3484 H3478 0.950 . S
C3484 C3485 1.327 . S
C3485 H3479 0.950 . S
C3485 C3484 1.327 . S
C3485 C3489 1.429 . S
C3486 C3469 1.574 . S
C3486 H3480 0.949 . S
C3486 C3490 1.368 . S
C3487 C3468 1.429 . S
C3487 C3481 1.429 . S
C3487 C3488 1.523 . S
C3488 C3469 1.368 . S
C3488 C3482 1.368 . S
C3488 C3487 1.523 . S
C3489 C3473 1.429 . S
C3489 C3485 1.429 . S
C3489 C3490 1.523 . S
C3490 C3474 1.368 . S
C3490 C3486 1.368 . S
C3490 C3489 1.523 . S
H3491 C3466 0.950 . S
H3492 C3468 0.950 . S
H3493 C3469 0.949 . S
H3494 C3471 0.950 . S
H3495 C3473 0.950 . S
C3496 C3497 1.349 . S
C3496 C3498 1.327 . S
C3496 H3521 0.950 . S
C3497 C3496 1.349 . S
C3497 C3513 1.349 . S
C3498 C3496 1.327 . S
C3498 C3517 1.429 . S
C3498 H3522 0.950 . S
C3499 C3516 1.574 . S
C3499 C3518 1.368 . S
C3499 H3523 0.949 . S
H3500 C3504 0.949 . S
C3501 C3502 1.349 . S
C3501 C3503 1.327 . S
C3501 H3524 0.950 . S
C3502 C3501 1.349 . S
C3502 C3514 1.349 . S
C3503 C3501 1.327 . S
C3503 C3519 1.429 . S
C3503 H3525 0.950 . S
C3504 H3500 0.949 . S
C3504 C3512 1.574 . S
C3504 C3520 1.368 . S
H3505 C3513 0.950 . S
H3506 C3511 0.950 . S
H3507 C3512 0.949 . S
H3508 C3514 0.950 . S
H3509 C3515 0.950 . S
H3510 C3516 0.949 . S
C3511 H3506 0.950 . S
C3511 C3513 1.327 . S
C3511 C3517 1.429 . S
C3512 C3504 1.574 . S
C3512 H3507 0.949 . S
C3512 C3518 1.368 . S
C3513 C3497 1.349 . S
C3513 H3505 0.950 . S
C3513 C3511 1.327 . S
C3514 C3502 1.349 . S
C3514 H3508 0.950 . S
C3514 C3515 1.327 . S
C3515 H3509 0.950 . S
C3515 C3514 1.327 . S
C3515 C3519 1.429 . S
C3516 C3499 1.574 . S
C3516 H3510 0.949 . S
C3516 C3520 1.368 . S
C3517 C3498 1.429 . S
C3517 C3511 1.429 . S
C3517 C3518 1.523 . S
C3518 C3499 1.368 . S
C3518 C3512 1.368 . S
C3518 C3517 1.523 . S
C3519 C3503 1.429 . S
C3519 C3515 1.429 . S
C3519 C3520 1.523 . S
C3520 C3504 1.368 . S
C3520 C3516 1.368 . S
C3520 C3519 1.523 . S
H3521 C3496 0.950 . S
H3522 C3498 0.950 . S
H3523 C3499 0.949 . S
H3524 C3501 0.950 . S
H3525 C3503 0.950 . S
C3526 C3527 1.349 . S
C3526 C3528 1.327 . S
C3526 H3551 0.950 . S
C3527 C3526 1.349 . S
C3527 C3543 1.349 . S
C3528 C3526 1.327 . S
C3528 C3547 1.429 . S
C3528 H3552 0.950 . S
C3529 C3546 1.574 . S
C3529 C3548 1.368 . S
C3529 H3553 0.949 . S
H3530 C3534 0.949 . S
C3531 C3532 1.349 . S
C3531 C3533 1.327 . S
C3531 H3554 0.950 . S
C3532 C3531 1.349 . S
C3532 C3544 1.349 . S
C3533 C3531 1.327 . S
C3533 C3549 1.429 . S
C3533 H3555 0.950 . S
C3534 H3530 0.949 . S
C3534 C3542 1.574 . S
C3534 C3550 1.368 . S
H3535 C3543 0.950 . S
H3536 C3541 0.950 . S
H3537 C3542 0.949 . S
H3538 C3544 0.950 . S
H3539 C3545 0.950 . S
H3540 C3546 0.949 . S
C3541 H3536 0.950 . S
C3541 C3543 1.327 . S
C3541 C3547 1.429 . S
C3542 C3534 1.574 . S
C3542 H3537 0.949 . S
C3542 C3548 1.368 . S
C3543 C3527 1.349 . S
C3543 H3535 0.950 . S
C3543 C3541 1.327 . S
C3544 C3532 1.349 . S
C3544 H3538 0.950 . S
C3544 C3545 1.327 . S
C3545 H3539 0.950 . S
C3545 C3544 1.327 . S
C3545 C3549 1.429 . S
C3546 C3529 1.574 . S
C3546 H3540 0.949 . S
C3546 C3550 1.368 . S
C3547 C3528 1.429 . S
C3547 C3541 1.429 . S
C3547 C3548 1.523 . S
C3548 C3529 1.368 . S
C3548 C3542 1.368 . S
C3548 C3547 1.523 . S
C3549 C3533 1.429 . S
C3549 C3545 1.429 . S
C3549 C3550 1.523 . S
C3550 C3534 1.368 . S
C3550 C3546 1.368 . S
C3550 C3549 1.523 . S
H3551 C3526 0.950 . S
H3552 C3528 0.950 . S
H3553 C3529 0.949 . S
H3554 C3531 0.950 . S
H3555 C3533 0.950 . S
C3556 C3557 1.349 . S
C3556 C3558 1.327 . S
C3556 H3581 0.950 . S
C3557 C3556 1.349 . S
C3557 C3573 1.349 . S
C3558 C3556 1.327 . S
C3558 C3577 1.429 . S
C3558 H3582 0.950 . S
C3559 C3576 1.574 . S
C3559 C3578 1.368 . S
C3559 H3583 0.949 . S
H3560 C3564 0.949 . S
C3561 C3562 1.349 . S
C3561 C3563 1.327 . S
C3561 H3584 0.950 . S
C3562 C3561 1.349 . S
C3562 C3574 1.349 . S
C3563 C3561 1.327 . S
C3563 C3579 1.429 . S
C3563 H3585 0.950 . S
C3564 H3560 0.949 . S
C3564 C3572 1.574 . S
C3564 C3580 1.368 . S
H3565 C3573 0.950 . S
H3566 C3571 0.950 . S
H3567 C3572 0.949 . S
H3568 C3574 0.953 1_455 S
H3569 C3575 0.950 . S
H3570 C3576 0.949 . S
C3571 H3566 0.950 . S
C3571 C3573 1.327 . S
C3571 C3577 1.429 . S
C3572 C3564 1.574 . S
C3572 H3567 0.949 . S
C3572 C3578 1.368 . S
C3573 C3557 1.349 . S
C3573 H3565 0.950 . S
C3573 C3571 1.327 . S
C3574 C3562 1.349 . S
C3574 H3568 0.953 1_655 S
C3574 C3575 1.327 . S
C3575 H3569 0.950 . S
C3575 C3574 1.327 . S
C3575 C3579 1.429 . S
C3576 C3559 1.574 . S
C3576 H3570 0.949 . S
C3576 C3580 1.368 . S
C3577 C3558 1.429 . S
C3577 C3571 1.429 . S
C3577 C3578 1.523 . S
C3578 C3559 1.368 . S
C3578 C3572 1.368 . S
C3578 C3577 1.523 . S
C3579 C3563 1.429 . S
C3579 C3575 1.429 . S
C3579 C3580 1.523 . S
C3580 C3564 1.368 . S
C3580 C3576 1.368 . S
C3580 C3579 1.523 . S
H3581 C3556 0.950 . S
H3582 C3558 0.950 . S
H3583 C3559 0.949 . S
H3584 C3561 0.950 . S
H3585 C3563 0.950 . S
C3586 C3587 1.349 . S
C3586 C3588 1.327 . S
C3586 H3611 0.950 . S
C3587 C3586 1.349 . S
C3587 C3603 1.349 . S
C3588 C3586 1.327 . S
C3588 C3607 1.429 . S
C3588 H3612 0.950 . S
C3589 C3606 1.574 . S
C3589 C3608 1.368 . S
C3589 H3613 0.949 . S
H3590 C3594 0.949 . S
C3591 C3592 1.349 . S
C3591 C3593 1.327 . S
C3591 H3614 0.950 . S
C3592 C3591 1.349 . S
C3592 C3604 1.349 . S
C3593 C3591 1.327 . S
C3593 C3609 1.429 . S
C3593 H3615 0.950 . S
C3594 H3590 0.949 . S
C3594 C3602 1.574 . S
C3594 C3610 1.368 . S
H3595 C3603 0.950 . S
H3596 C3601 0.950 . S
H3597 C3602 0.949 . S
H3598 C3604 0.950 . S
H3599 C3605 0.950 . S
H3600 C3606 0.949 . S
C3601 H3596 0.950 . S
C3601 C3603 1.327 . S
C3601 C3607 1.429 . S
C3602 C3594 1.574 . S
C3602 H3597 0.949 . S
C3602 C3608 1.368 . S
C3603 C3587 1.349 . S
C3603 H3595 0.950 . S
C3603 C3601 1.327 . S
C3604 C3592 1.349 . S
C3604 H3598 0.950 . S
C3604 C3605 1.327 . S
C3605 H3599 0.950 . S
C3605 C3604 1.327 . S
C3605 C3609 1.429 . S
C3606 C3589 1.574 . S
C3606 H3600 0.949 . S
C3606 C3610 1.368 . S
C3607 C3588 1.429 . S
C3607 C3601 1.429 . S
C3607 C3608 1.523 . S
C3608 C3589 1.368 . S
C3608 C3602 1.368 . S
C3608 C3607 1.523 . S
C3609 C3593 1.429 . S
C3609 C3605 1.429 . S
C3609 C3610 1.523 . S
C3610 C3594 1.368 . S
C3610 C3606 1.368 . S
C3610 C3609 1.523 . S
H3611 C3586 0.950 . S
H3612 C3588 0.950 . S
H3613 C3589 0.949 . S
H3614 C3591 0.950 . S
H3615 C3593 0.950 . S
C3616 C3617 1.349 . S
C3616 C3618 1.327 . S
C3616 H3641 0.950 . S
C3617 C3616 1.349 . S
C3617 C3633 1.349 . S
C3618 C3616 1.327 . S
C3618 C3637 1.429 . S
C3618 H3642 0.950 . S
C3619 C3636 1.574 . S
C3619 C3638 1.368 . S
C3619 H3643 0.949 . S
H3620 C3624 0.949 . S
C3621 C3622 1.349 . S
C3621 C3623 1.327 . S
C3621 H3644 0.950 . S
C3622 C3621 1.349 . S
C3622 C3634 1.349 . S
C3623 C3621 1.327 . S
C3623 C3639 1.429 . S
C3623 H3645 0.950 . S
C3624 H3620 0.949 . S
C3624 C3632 1.574 . S
C3624 C3640 1.368 . S
H3625 C3633 0.950 . S
H3626 C3631 0.950 . S
H3627 C3632 0.949 . S
H3628 C3634 0.950 . S
H3629 C3635 0.950 . S
H3630 C3636 0.949 . S
C3631 H3626 0.950 . S
C3631 C3633 1.327 . S
C3631 C3637 1.429 . S
C3632 C3624 1.574 . S
C3632 H3627 0.949 . S
C3632 C3638 1.368 . S
C3633 C3617 1.349 . S
C3633 H3625 0.950 . S
C3633 C3631 1.327 . S
C3634 C3622 1.349 . S
C3634 H3628 0.950 . S
C3634 C3635 1.327 . S
C3635 H3629 0.950 . S
C3635 C3634 1.327 . S
C3635 C3639 1.429 . S
C3636 C3619 1.574 . S
C3636 H3630 0.949 . S
C3636 C3640 1.368 . S
C3637 C3618 1.429 . S
C3637 C3631 1.429 . S
C3637 C3638 1.523 . S
C3638 C3619 1.368 . S
C3638 C3632 1.368 . S
C3638 C3637 1.523 . S
C3639 C3623 1.429 . S
C3639 C3635 1.429 . S
C3639 C3640 1.523 . S
C3640 C3624 1.368 . S
C3640 C3636 1.368 . S
C3640 C3639 1.523 . S
H3641 C3616 0.950 . S
H3642 C3618 0.950 . S
H3643 C3619 0.949 . S
H3644 C3621 0.950 . S
H3645 C3623 0.950 . S
C3646 C3647 1.349 . S
C3646 C3648 1.327 . S
C3646 H3671 0.950 . S
C3647 C3646 1.349 . S
C3647 C3663 1.349 . S
C3648 C3646 1.327 . S
C3648 C3667 1.429 . S
C3648 H3672 0.950 . S
C3649 C3666 1.574 . S
C3649 C3668 1.368 . S
C3649 H3673 0.949 . S
H3650 C3654 0.949 . S
C3651 C3652 1.349 . S
C3651 C3653 1.327 . S
C3651 H3674 0.950 . S
C3652 C3651 1.349 . S
C3652 C3664 1.349 . S
C3653 C3651 1.327 . S
C3653 C3669 1.429 . S
C3653 H3675 0.950 . S
C3654 H3650 0.949 . S
C3654 C3662 1.574 . S
C3654 C3670 1.368 . S
H3655 C3663 0.950 . S
H3656 C3661 0.950 . S
H3657 C3662 0.949 . S
H3658 C3664 0.950 1_545 S
H3659 C3665 0.950 . S
H3660 C3666 0.949 . S
C3661 H3656 0.950 . S
C3661 C3663 1.327 . S
C3661 C3667 1.429 . S
C3662 C3654 1.574 . S
C3662 H3657 0.949 . S
C3662 C3668 1.368 . S
C3663 C3647 1.349 . S
C3663 H3655 0.950 . S
C3663 C3661 1.327 . S
C3664 C3652 1.349 . S
C3664 H3658 0.950 1_565 S
C3664 C3665 1.327 . S
C3665 H3659 0.950 . S
C3665 C3664 1.327 . S
C3665 C3669 1.429 . S
C3666 C3649 1.574 . S
C3666 H3660 0.949 . S
C3666 C3670 1.368 . S
C3667 C3648 1.429 . S
C3667 C3661 1.429 . S
C3667 C3668 1.523 . S
C3668 C3649 1.368 . S
C3668 C3662 1.368 . S
C3668 C3667 1.523 . S
C3669 C3653 1.429 . S
C3669 C3665 1.429 . S
C3669 C3670 1.523 . S
C3670 C3654 1.368 . S
C3670 C3666 1.368 . S
C3670 C3669 1.523 . S
H3671 C3646 0.950 . S
H3672 C3648 0.950 . S
H3673 C3649 0.949 . S
H3674 C3651 0.950 . S
H3675 C3653 0.950 . S
C3676 C3677 1.349 . S
C3676 C3678 1.327 . S
C3676 H3701 0.950 . S
C3677 C3676 1.349 . S
C3677 C3693 1.349 . S
C3678 C3676 1.327 . S
C3678 C3697 1.429 . S
C3678 H3702 0.950 . S
C3679 C3696 1.574 . S
C3679 C3698 1.368 . S
C3679 H3703 0.949 . S
H3680 C3684 0.949 . S
C3681 C3682 1.349 . S
C3681 C3683 1.327 . S
C3681 H3704 0.950 . S
C3682 C3681 1.349 . S
C3682 C3694 1.349 . S
C3683 C3681 1.327 . S
C3683 C3699 1.429 . S
C3683 H3705 0.950 . S
C3684 H3680 0.949 . S
C3684 C3692 1.574 . S
C3684 C3700 1.368 . S
H3685 C3693 0.950 . S
H3686 C3691 0.950 . S
H3687 C3692 0.949 . S
H3688 C3694 0.950 . S
H3689 C3695 0.950 . S
H3690 C3696 0.949 . S
C3691 H3686 0.950 . S
C3691 C3693 1.327 . S
C3691 C3697 1.429 . S
C3692 C3684 1.574 . S
C3692 H3687 0.949 . S
C3692 C3698 1.368 . S
C3693 C3677 1.349 . S
C3693 H3685 0.950 . S
C3693 C3691 1.327 . S
C3694 C3682 1.349 . S
C3694 H3688 0.950 . S
C3694 C3695 1.327 . S
C3695 H3689 0.950 . S
C3695 C3694 1.327 . S
C3695 C3699 1.429 . S
C3696 C3679 1.574 . S
C3696 H3690 0.949 . S
C3696 C3700 1.368 . S
C3697 C3678 1.429 . S
C3697 C3691 1.429 . S
C3697 C3698 1.523 . S
C3698 C3679 1.368 . S
C3698 C3692 1.368 . S
C3698 C3697 1.523 . S
C3699 C3683 1.429 . S
C3699 C3695 1.429 . S
C3699 C3700 1.523 . S
C3700 C3684 1.368 . S
C3700 C3696 1.368 . S
C3700 C3699 1.523 . S
H3701 C3676 0.950 . S
H3702 C3678 0.950 . S
H3703 C3679 0.949 . S
H3704 C3681 0.950 . S
H3705 C3683 0.950 . S
C3706 C3707 1.349 1_556 S
C3706 C3708 1.327 . S
C3706 H3731 0.950 . S
C3707 C3706 1.349 1_554 S
C3707 C3723 1.349 . S
C3708 C3706 1.327 . S
C3708 C3727 1.429 1_556 S
C3708 H3732 0.950 . S
C3709 C3726 1.574 . S
C3709 C3728 1.368 . S
C3709 H3733 0.949 . S
H3710 C3714 0.949 . S
C3711 C3712 1.349 . S
C3711 C3713 1.327 . S
C3711 H3734 0.950 . S
C3712 C3711 1.349 . S
C3712 C3724 1.349 1_554 S
C3713 C3711 1.327 . S
C3713 C3729 1.429 . S
C3713 H3735 0.950 . S
C3714 H3710 0.949 . S
C3714 C3722 1.574 . S
C3714 C3730 1.368 1_556 S
H3715 C3723 0.950 . S
H3716 C3721 0.950 . S
H3717 C3722 0.949 . S
H3718 C3724 0.950 . S
H3719 C3725 0.950 . S
H3720 C3726 0.949 . S
C3721 H3716 0.950 . S
C3721 C3723 1.327 . S
C3721 C3727 1.429 . S
C3722 C3714 1.574 . S
C3722 H3717 0.949 . S
C3722 C3728 1.368 1_556 S
C3723 C3707 1.349 . S
C3723 H3715 0.950 . S
C3723 C3721 1.327 . S
C3724 C3712 1.349 1_556 S
C3724 H3718 0.950 . S
C3724 C3725 1.327 . S
C3725 H3719 0.950 . S
C3725 C3724 1.327 . S
C3725 C3729 1.429 1_556 S
C3726 C3709 1.574 . S
C3726 H3720 0.949 . S
C3726 C3730 1.368 . S
C3727 C3708 1.429 1_554 S
C3727 C3721 1.429 . S
C3727 C3728 1.523 . S
C3728 C3709 1.368 . S
C3728 C3722 1.368 1_554 S
C3728 C3727 1.523 . S
C3729 C3713 1.429 . S
C3729 C3725 1.429 1_554 S
C3729 C3730 1.523 . S
C3730 C3714 1.368 1_554 S
C3730 C3726 1.368 . S
C3730 C3729 1.523 . S
H3731 C3706 0.950 . S
H3732 C3708 0.950 . S
H3733 C3709 0.949 . S
H3734 C3711 0.950 . S
H3735 C3713 0.950 . S
C3736 C3737 1.349 . S
C3736 C3738 1.327 . S
C3736 H3761 0.950 . S
C3737 C3736 1.349 . S
C3737 C3753 1.349 . S
C3738 C3736 1.327 . S
C3738 C3757 1.429 . S
C3738 H3762 0.950 . S
C3739 C3756 1.574 . S
C3739 C3758 1.368 . S
C3739 H3763 0.949 . S
H3740 C3744 0.949 . S
C3741 C3742 1.349 . S
C3741 C3743 1.327 . S
C3741 H3764 0.950 . S
C3742 C3741 1.349 . S
C3742 C3754 1.349 . S
C3743 C3741 1.327 . S
C3743 C3759 1.429 . S
C3743 H3765 0.950 . S
C3744 H3740 0.949 . S
C3744 C3752 1.574 . S
C3744 C3760 1.368 . S
H3745 C3753 0.950 . S
H3746 C3751 0.950 . S
H3747 C3752 0.949 . S
H3748 C3754 0.950 . S
H3749 C3755 0.950 . S
H3750 C3756 0.949 . S
C3751 H3746 0.950 . S
C3751 C3753 1.327 . S
C3751 C3757 1.429 . S
C3752 C3744 1.574 . S
C3752 H3747 0.949 . S
C3752 C3758 1.368 . S
C3753 C3737 1.349 . S
C3753 H3745 0.950 . S
C3753 C3751 1.327 . S
C3754 C3742 1.349 . S
C3754 H3748 0.950 . S
C3754 C3755 1.327 . S
C3755 H3749 0.950 . S
C3755 C3754 1.327 . S
C3755 C3759 1.429 . S
C3756 C3739 1.574 . S
C3756 H3750 0.949 . S
C3756 C3760 1.368 . S
C3757 C3738 1.429 . S
C3757 C3751 1.429 . S
C3757 C3758 1.523 . S
C3758 C3739 1.368 . S
C3758 C3752 1.368 . S
C3758 C3757 1.523 . S
C3759 C3743 1.429 . S
C3759 C3755 1.429 . S
C3759 C3760 1.523 . S
C3760 C3744 1.368 . S
C3760 C3756 1.368 . S
C3760 C3759 1.523 . S
H3761 C3736 0.950 . S
H3762 C3738 0.950 . S
H3763 C3739 0.949 . S
H3764 C3741 0.950 . S
H3765 C3743 0.950 . S
C3766 C3767 1.391 . S
C3766 C3768 1.314 1_554 S
C3766 H3791 0.925 1_554 S
C3767 C3766 1.391 . S
C3767 C3783 1.349 . S
C3768 C3766 1.314 1_556 S
C3768 C3787 1.429 1_556 S
C3768 H3792 0.950 . S
C3769 C3786 1.574 . S
C3769 C3788 1.368 . S
C3769 H3793 0.949 . S
H3770 C3774 0.949 . S
C3771 C3772 1.349 1_554 S
C3771 C3773 1.327 . S
C3771 H3794 0.950 . S
C3772 C3771 1.349 1_556 S
C3772 C3784 1.349 . S
C3773 C3771 1.327 . S
C3773 C3789 1.429 1_554 S
C3773 H3795 0.950 . S
C3774 H3770 0.949 . S
C3774 C3782 1.574 . S
C3774 C3790 1.368 . S
H3775 C3783 0.950 . S
H3776 C3781 0.950 . S
H3777 C3782 0.949 . S
H3778 C3784 0.950 . S
H3779 C3785 0.950 . S
H3780 C3786 0.949 . S
C3781 H3776 0.950 . S
C3781 C3783 1.327 . S
C3781 C3787 1.429 . S
C3782 C3774 1.574 . S
C3782 H3777 0.949 . S
C3782 C3788 1.368 1_556 S
C3783 C3767 1.349 . S
C3783 H3775 0.950 . S
C3783 C3781 1.327 . S
C3784 C3772 1.349 . S
C3784 H3778 0.950 . S
C3784 C3785 1.327 . S
C3785 H3779 0.950 . S
C3785 C3784 1.327 . S
C3785 C3789 1.429 . S
C3786 C3769 1.574 . S
C3786 H3780 0.949 . S
C3786 C3790 1.368 1_554 S
C3787 C3768 1.429 1_554 S
C3787 C3781 1.429 . S
C3787 C3788 1.523 . S
C3788 C3769 1.368 . S
C3788 C3782 1.368 1_554 S
C3788 C3787 1.523 . S
C3789 C3773 1.429 1_556 S
C3789 C3785 1.429 . S
C3789 C3790 1.523 . S
C3790 C3774 1.368 . S
C3790 C3786 1.368 1_556 S
C3790 C3789 1.523 . S
H3791 C3766 0.925 1_556 S
H3792 C3768 0.950 . S
H3793 C3769 0.949 . S
H3794 C3771 0.950 . S
H3795 C3773 0.950 . S
C3796 C3797 1.349 . S
C3796 C3798 1.327 . S
C3796 H3821 0.950 . S
C3797 C3796 1.349 . S
C3797 C3813 1.349 . S
C3798 C3796 1.327 . S
C3798 C3817 1.429 . S
C3798 H3822 0.950 . S
C3799 C3816 1.574 . S
C3799 C3818 1.368 . S
C3799 H3823 0.949 . S
H3800 C3804 0.949 . S
C3801 C3802 1.349 . S
C3801 C3803 1.327 . S
C3801 H3824 0.950 . S
C3802 C3801 1.349 . S
C3802 C3814 1.349 . S
C3803 C3801 1.327 . S
C3803 C3819 1.429 . S
C3803 H3825 0.950 . S
C3804 H3800 0.949 . S
C3804 C3812 1.574 . S
C3804 C3820 1.368 . S
H3805 C3813 0.950 . S
H3806 C3811 0.950 . S
H3807 C3812 0.949 . S
H3808 C3814 0.950 . S
H3809 C3815 0.950 . S
H3810 C3816 0.949 . S
C3811 H3806 0.950 . S
C3811 C3813 1.327 . S
C3811 C3817 1.429 . S
C3812 C3804 1.574 . S
C3812 H3807 0.949 . S
C3812 C3818 1.368 . S
C3813 C3797 1.349 . S
C3813 H3805 0.950 . S
C3813 C3811 1.327 . S
C3814 C3802 1.349 . S
C3814 H3808 0.950 . S
C3814 C3815 1.327 . S
C3815 H3809 0.950 . S
C3815 C3814 1.327 . S
C3815 C3819 1.429 . S
C3816 C3799 1.574 . S
C3816 H3810 0.949 . S
C3816 C3820 1.368 . S
C3817 C3798 1.429 . S
C3817 C3811 1.429 . S
C3817 C3818 1.523 . S
C3818 C3799 1.368 . S
C3818 C3812 1.368 . S
C3818 C3817 1.523 . S
C3819 C3803 1.429 . S
C3819 C3815 1.429 . S
C3819 C3820 1.523 . S
C3820 C3804 1.368 . S
C3820 C3816 1.368 . S
C3820 C3819 1.523 . S
H3821 C3796 0.950 . S
H3822 C3798 0.950 . S
H3823 C3799 0.949 . S
H3824 C3801 0.950 . S
H3825 C3803 0.950 . S
C3826 C3827 1.349 . S
C3826 C3828 1.327 . S
C3826 H3851 0.950 . S
C3827 C3826 1.349 . S
C3827 C3843 1.349 . S
C3828 C3826 1.327 . S
C3828 C3847 1.429 . S
C3828 H3852 0.950 . S
C3829 C3846 1.574 . S
C3829 C3848 1.368 . S
C3829 H3853 0.949 . S
H3830 C3834 0.949 . S
C3831 C3832 1.349 . S
C3831 C3833 1.327 . S
C3831 H3854 0.950 . S
C3832 C3831 1.349 . S
C3832 C3844 1.349 . S
C3833 C3831 1.327 . S
C3833 C3849 1.429 . S
C3833 H3855 0.950 . S
C3834 H3830 0.949 . S
C3834 C3842 1.574 . S
C3834 C3850 1.368 . S
H3835 C3843 0.950 . S
H3836 C3841 0.950 . S
H3837 C3842 0.949 . S
H3838 C3844 0.950 . S
H3839 C3845 0.950 . S
H3840 C3846 0.949 . S
C3841 H3836 0.950 . S
C3841 C3843 1.327 . S
C3841 C3847 1.429 . S
C3842 C3834 1.574 . S
C3842 H3837 0.949 . S
C3842 C3848 1.368 . S
C3843 C3827 1.349 . S
C3843 H3835 0.950 . S
C3843 C3841 1.327 . S
C3844 C3832 1.349 . S
C3844 H3838 0.950 . S
C3844 C3845 1.327 . S
C3845 H3839 0.950 . S
C3845 C3844 1.327 . S
C3845 C3849 1.429 . S
C3846 C3829 1.574 . S
C3846 H3840 0.949 . S
C3846 C3850 1.368 . S
C3847 C3828 1.429 . S
C3847 C3841 1.429 . S
C3847 C3848 1.523 . S
C3848 C3829 1.368 . S
C3848 C3842 1.368 . S
C3848 C3847 1.523 . S
C3849 C3833 1.429 . S
C3849 C3845 1.429 . S
C3849 C3850 1.523 . S
C3850 C3834 1.368 . S
C3850 C3846 1.368 . S
C3850 C3849 1.523 . S
H3851 C3826 0.950 . S
H3852 C3828 0.950 . S
H3853 C3829 0.949 . S
H3854 C3831 0.950 . S
H3855 C3833 0.950 . S
C977 C109 0.983 . S
C982 C344 0.988 . S
C1007 C65 1.363 . S
C1012 C378 1.359 . S
C1037 C75 0.495 . S
C1042 C447 0.511 . S
C1072 C485 0.899 . S
C1067 C84 0.902 . S
C1097 C25 1.289 . S
C1102 C525 1.280 . S
C1132 C544 0.169 . S
C1127 C28 0.206 . S
C1162 C578 1.162 . S
C1157 C47 1.158 . S
C1187 C9 1.642 . S
C1192 C647 1.627 . S
C1222 C353 2.506 . S
C1217 C233 2.537 . S
C1247 C249 0.838 . S
C1252 C405 0.839 . S
C1282 C418 1.454 . S
C1277 C275 1.463 . S
C1312 C487 1.233 . S
C1307 C173 1.232 . S
C1337 C224 1.849 . S
C1342 C527 1.879 . S
C1372 C553 1.867 . S
C1367 C243 1.895 . S
C1402 C605 0.217 . S
C1397 C266 0.136 . S
C1432 C618 2.084 . S
C1427 C179 2.095 . S
C1462 C348 2.493 . S
C1457 C163 2.508 . S
C1487 C289 1.989 . S
C1492 C658 1.987 . S
C1522 C708 2.665 . S
C1517 C333 2.670 . S
C1552 C767 1.400 . S
C1547 C308 1.394 . S
C1577 C123 1.340 . S
C1582 C645 1.336 . S
C1607 C126 1.398 . S
C1612 C445 1.411 . S
C1637 C327 2.533 . S
C1642 C778 2.506 . S
C1672 C847 0.862 . S
C1667 C299 0.866 . S
C1702 C365 0.995 . S
C1697 C67 0.994 . S
C1732 C833 1.383 . S
C1727 C98 1.373 . S
C1757 C89 0.529 . S
C1762 C428 0.540 . S
C1787 C79 0.952 . S
C1792 C784 0.952 . S
C1822 C504 1.282 . S
C1817 C11 1.298 . S
C1847 C51 0.179 . S
C1852 C725 0.195 . S
C1882 C593 1.228 1_556 S
C1877 C33 1.236 . S
C1912 C868 1.614 . S
C1907 C14 1.636 . S
C1942 C338 2.481 . S
C1937 C140 2.505 . S
C1972 C824 0.832 . S
C1967 C319 0.833 . S
C1997 C112 1.476 . S
C2002 C433 1.476 . S
C2027 C285 1.263 . S
C2032 C788 1.266 . S
C2057 C149 1.907 . S
C2062 C508 1.908 . S
C2092 C698 1.907 . S
C2087 C313 1.938 . S
C2117 C121 0.215 . S
C2122 C584 0.249 . S
C2147 C291 2.134 . S
C2152 C873 2.119 . S
C2177 C182 2.535 . S
C2182 C367 2.512 1_655 S
C2207 C168 1.984 . S
C2212 C673 2.015 . S
C2237 C263 2.726 . S
C2242 C567 2.723 . S
C2267 C247 1.467 . S
C2272 C748 1.479 . S
C2302 C864 1.328 . S
C2297 C277 1.350 . S
C2327 C219 1.449 . S
C2332 C424 1.432 . S
C2362 C473 2.569 . S
C2357 C257 2.596 . S
C2392 C388 0.874 . S
C2387 C201 0.879 . S
C2417 C81 0.983 . S
C2422 C904 0.988 . S
C2452 C818 1.359 . S
C2447 C93 1.363 . S
C2477 C103 0.495 . S
C2482 C967 0.512 . S
C2507 C56 0.902 . S
C2512 C805 0.900 . S
C2537 C53 1.289 . S
C2542 C685 1.280 . S
C2572 C704 0.169 . S
C2567 C0 0.206 . S
C2602 C738 1.162 . S
C2597 C19 1.156 . S
C2632 C887 1.627 . S
C2627 C37 1.642 . S
C2662 C913 2.506 . S
C2657 C261 2.537 . S
C2687 C193 0.838 . S
C2692 C845 0.839 . S
C2722 C938 1.455 . S
C2717 C205 1.464 . S
C2752 C807 1.234 . S
C2747 C215 1.232 . S
C2782 C687 1.879 . S
C2777 C252 1.849 . S
C2807 C187 1.895 . S
C2812 C713 1.867 . S
C2842 C765 0.217 . S
C2837 C196 0.136 . S
C2867 C221 2.095 . S
C2872 C858 2.084 . S
C2902 C908 2.493 . S
C2897 C317 2.508 . S
C2927 C135 1.989 . S
C2932 C498 1.987 . S
C2962 C548 2.665 . S
C2957 C151 2.670 . S
C2992 C607 1.400 . S
C2987 C154 1.393 . S
C3022 C885 1.336 . S
C3017 C305 1.340 . S
C3047 C280 1.398 . S
C3052 C965 1.411 . S
C3082 C458 2.506 . S
C3077 C145 2.532 . S
C3112 C407 0.862 . S
C3107 C117 0.866 . S
C3137 C95 0.994 . S
C3142 C925 0.995 . S
C3172 C393 1.383 . S
C3167 C70 1.373 . S
C3197 C61 0.529 . S
C3202 C948 0.540 . S
C3227 C107 0.952 . S
C3232 C464 0.952 . S
C3257 C39 1.298 . S
C3262 C664 1.282 . S
C3292 C565 0.195 . S
C3287 C23 0.174 . S
C3317 C5 1.236 . S
C3322 C753 1.239 . S
C3347 C42 1.630 . S
C3352 C628 1.614 . S
C3382 C898 2.481 . S
C3377 C322 2.505 . S
C3407 C165 0.833 . S
C3412 C384 0.832 . S
C3442 C953 1.476 . S
C3437 C294 1.476 . S
C3467 C131 1.263 . S
C3472 C468 1.266 . S
C3497 C331 1.905 . S
C3502 C668 1.908 . S
C3532 C538 1.907 . S
C3527 C159 1.938 . S
C3557 C303 0.215 . S
C3562 C744 0.249 . S
C3592 C633 2.119 . S
C3587 C137 2.134 . S
C3622 C927 2.512 . S
C3617 C238 2.535 . S
C3652 C513 2.015 1_665 S
C3647 C210 1.984 . S
C3677 C235 2.726 . S
C3682 C727 2.723 . S
C3712 C588 1.478 . S
C3707 C191 1.466 . S
C3737 C207 1.343 . S
C3742 C624 1.328 . S
C3767 C177 1.449 . S
C3772 C944 1.432 . S
C3802 C793 2.569 . S
C3797 C229 2.596 1_565 S
C3832 C828 0.874 . S
C3827 C271 0.879 . S
