# Generated by pormake.
# Topology pts, (4,4)-cn, num edge types: 1
# Building blocks:
#     Node 0, Type 0, BuildingBlock: NAWXER_clean_sbu_0, # of connection points: 4
#     Node 1, Type 0, BuildingBlock: NAWXER_clean_sbu_0, # of connection points: 4
#     Node 2, Type 1, BuildingBlock: UXUYUI_clean_sbu_0, # of connection points: 4
#     Node 3, Type 1, BuildingBlock: UXUYUI_clean_sbu_0, # of connection points: 4
#     Edge 4, Type (0, 1), BuildingBlock: CIFDUS_clean_linker_0, # of connection points: 2
#     Edge 5, Type (0, 1), BuildingBlock: CIFDUS_clean_linker_0, # of connection points: 2
#     Edge 6, Type (0, 1), BuildingBlock: CIFDUS_clean_linker_0, # of connection points: 2
#     Edge 7, Type (0, 1), BuildingBlock: CIFDUS_clean_linker_0, # of connection points: 2
#     Edge 8, Type (0, 1), BuildingBlock: CIFDUS_clean_linker_0, # of connection points: 2
#     Edge 9, Type (0, 1), BuildingBlock: CIFDUS_clean_linker_0, # of connection points: 2
#     Edge 10, Type (0, 1), BuildingBlock: CIFDUS_clean_linker_0, # of connection points: 2
#     Edge 11, Type (0, 1), BuildingBlock: CIFDUS_clean_linker_0, # of connection points: 2
# Relax obj value: 0.015
# Max RMSD: 0.059
# Mean RMSD: 0.051
data_MOF--net-pts--node1-NAWXER_clean_sbu_0--node2-UXUYUI_clean_sbu_0--edge1-CIFDUS_clean_linker_0
_symmetry_space_group_name_H-M    P1
_symmetry_Int_Tables_number       1
_symmetry_cell_setting            triclinic
loop_
_symmetry_equiv_pos_as_xyz
'x, y, z'
_cell_length_a     25.878253
_cell_length_b     25.906559
_cell_length_c     41.250596
_cell_angle_alpha  90.197797
_cell_angle_beta   89.898543
_cell_angle_gamma 90.054566
loop_
_atom_site_label
_atom_site_type_symbol
_atom_site_fract_x
_atom_site_fract_y
_atom_site_fract_z
_atom_type_partial_charge
C0 C 0.44917 0.0627 0.96598 0.0
C1 C 0.58288 0.06616 0.05078 0.0
O2 O 0.46225 0.01868 0.97731 0.0
Zn3 Zn 0.51224 0.98485 1.01175 0.0
O4 O 0.47094 0.10344 0.97676 0.0
Zn5 Zn 0.5162 0.06929 1.00822 0.0
O6 O 0.56778 0.0282 0.97796 0.0
O7 O 0.55879 0.94403 0.98388 0.0
O8 O 0.56451 0.106 0.03687 0.0
O9 O 0.56572 0.02142 0.04306 0.0
O10 O 0.46224 0.9551 0.0426 0.0
O11 O 0.46133 0.04022 0.04129 0.0
C12 C 0.5814 0.9822 0.97049 0.0
C13 C 0.44345 0.99783 0.05251 0.0
C14 C 0.03657 0.57623 0.47021 0.0
C15 C 0.0239 0.44359 0.55514 0.0
O16 O 0.99072 0.5627 0.47821 0.0
Zn17 Zn 0.9507 0.5118 0.50946 0.0
O18 O 0.07518 0.55412 0.48337 0.0
Zn19 Zn 0.03516 0.50898 0.51231 0.0
O20 O 1.00114 0.45661 0.47919 0.0
O21 O 0.91629 0.4647 0.47897 0.0
O22 O 0.06621 0.4615 0.54396 0.0
O23 O 0.98098 0.46004 0.54385 0.0
O24 O 0.91373 0.56077 0.53743 0.0
O25 O 0.99865 0.56449 0.54258 0.0
C26 C 0.95695 0.44255 0.4684 0.0
C27 C 0.95367 0.58119 0.55022 0.0
Li28 Li 0.01304 0.05329 0.28525 0.0
Li29 Li 1.00927 0.96174 0.28183 0.0
Li30 Li 0.06022 1.00333 0.2427 0.0
Li31 Li 0.96213 1.00733 0.24048 0.0
C32 C 0.11534 0.03218 0.29739 0.0
N33 N 0.20236 0.09013 0.31143 0.0
C34 C 0.14479 0.02133 0.32493 0.0
C35 C 0.13031 0.07253 0.27701 0.0
C36 C 0.18858 0.05108 0.33162 0.0
C37 C 0.17438 0.10134 0.28449 0.0
C38 C 0.92204 0.9887 0.31216 0.0
C39 C 0.84706 0.94235 0.33099 0.0
N40 N 0.86643 0.94333 0.36163 0.0
C41 C 0.94103 0.98975 0.34384 0.0
C42 C 0.87455 0.9652 0.30563 0.0
C43 C 0.91241 0.96637 0.36851 0.0
C44 C 0.98041 0.15363 0.30297 0.0
N45 N 1.01004 0.11292 0.3122 0.0
C46 C 0.03256 0.15577 0.36153 0.0
C47 C 0.03524 0.11289 0.34106 0.0
C48 C 1.00308 0.19888 0.35242 0.0
C49 C 0.97634 0.19731 0.32285 0.0
H50 H 0.95994 0.15212 0.28014 0.0
H51 H 0.05704 0.07937 0.34836 0.0
C52 C 0.05012 0.89132 0.3271 0.0
N53 N 1.00799 0.9008 0.30839 0.0
C54 C 0.05124 0.84863 0.3477 0.0
C55 C 0.96631 0.82503 0.3285 0.0
C56 C 0.96668 0.86838 0.30852 0.0
C57 C 1.00865 0.81505 0.34889 0.0
H58 H 0.08276 0.91724 0.3263 0.0
H59 H 0.93381 0.87623 0.29323 0.0
C60 C 0.01852 0.10293 0.21523 0.0
N61 N 0.02671 0.18072 0.16981 0.0
C62 C 1.00062 0.0951 0.18364 0.0
C63 C 0.04018 0.15053 0.22378 0.0
C64 C 1.00523 0.13484 0.16101 0.0
C65 C 0.0441 0.1893 0.20046 0.0
C66 C 1.00717 0.89567 0.23316 0.0
C67 C 0.05193 0.86672 0.23834 0.0
C68 C 0.96028 0.87047 0.2274 0.0
C69 C 0.04891 0.81288 0.23798 0.0
C70 C 0.95889 0.81655 0.22716 0.0
N71 N 1.00285 0.78912 0.23245 0.0
C72 C 0.16088 0.96866 0.22736 0.0
C73 C 0.12086 0.01701 0.18573 0.0
C74 C 0.2043 0.9601 0.20785 0.0
N75 N 0.12037 0.99679 0.21606 0.0
C76 C 0.16359 0.00987 0.16556 0.0
C77 C 0.20604 0.98107 0.17654 0.0
H78 H 0.15925 0.95246 0.25147 0.0
H79 H 0.08785 0.03805 0.17696 0.0
C80 C 0.86623 0.04837 0.2198 0.0
N81 N 0.90424 0.0139 0.21267 0.0
C82 C 0.82361 0.05348 0.19922 0.0
C83 C 0.86067 0.988 0.16435 0.0
C84 C 0.90259 0.98446 0.18539 0.0
C85 C 0.82022 0.0225 0.1713 0.0
H86 H 0.86893 0.07163 0.24156 0.0
H87 H 0.93397 0.95826 0.17997 0.0
O88 O 0.07196 1.00356 0.29088 0.0
O89 O 0.94977 0.01066 0.28761 0.0
O90 O 0.01355 0.06476 0.23791 0.0
O91 O 1.00924 0.94841 0.23384 0.0
H92 H 0.13371 0.99058 0.34119 0.0
H93 H 0.10858 0.08133 0.2555 0.0
H94 H 0.21156 0.04316 0.35291 0.0
H95 H 0.18636 0.13258 0.26884 0.0
H96 H 0.81039 0.92371 0.32631 0.0
H97 H 0.97777 1.00783 0.3492 0.0
H98 H 0.8594 0.96423 0.28118 0.0
H99 H 0.92678 0.96646 0.39312 0.0
H100 H 0.05299 0.15503 0.38442 0.0
H101 H 0.95334 0.2298 0.31492 0.0
H102 H 0.08454 0.84287 0.36312 0.0
H103 H 0.93299 0.79973 0.32803 0.0
H104 H 0.98397 0.05851 0.17653 0.0
H105 H 0.05383 0.15753 0.24819 0.0
H106 H 0.9918 0.12918 0.13644 0.0
H107 H 0.0609 0.22625 0.20673 0.0
H108 H 0.08845 0.88562 0.24298 0.0
H109 H 0.92514 0.89225 0.22373 0.0
H110 H 0.08317 0.78998 0.24217 0.0
H111 H 0.92281 0.79653 0.22296 0.0
H112 H 0.23639 0.93797 0.21727 0.0
H113 H 0.16313 0.02613 0.1414 0.0
H114 H 0.79308 0.08031 0.20547 0.0
H115 H 0.85987 0.96398 0.1428 0.0
Li116 Li 0.9694 0.00974 0.78221 0.0
Li117 Li 0.05996 1.00463 0.78372 0.0
Li118 Li 0.01712 0.05895 0.74094 0.0
Li119 Li 0.01297 0.96111 0.74042 0.0
C120 C 0.98908 0.10134 0.80735 0.0
N121 N 0.9291 0.16679 0.84469 0.0
C122 C 0.98171 0.09137 0.84033 0.0
C123 C 0.96627 0.14481 0.79342 0.0
C124 C 0.95111 0.12484 0.85877 0.0
C125 C 0.93604 0.17741 0.81271 0.0
C126 C 0.03825 0.91787 0.80899 0.0
C127 C 0.09763 0.84892 0.82112 0.0
N128 N 0.09766 0.86363 0.8528 0.0
C129 C 0.03861 0.9321 0.84171 0.0
C130 C 0.0678 0.87581 0.7986 0.0
C131 C 0.069 0.90428 0.86347 0.0
C132 C 0.89953 0.96852 0.82847 0.0
N133 N 0.90724 1.00891 0.80802 0.0
C134 C 0.82805 0.04765 0.82533 0.0
C135 C 0.87211 0.04769 0.80581 0.0
C136 C 0.82002 1.0075 0.84767 0.0
C137 C 0.85614 0.96711 0.8487 0.0
H138 H 0.92744 0.9376 0.82945 0.0
H139 H 0.87857 0.07917 0.78921 0.0
C140 C 0.161 0.9736 0.80363 0.0
N141 N 0.12083 1.00579 0.81009 0.0
C142 C 0.20607 0.97616 0.82212 0.0
C143 C 0.16796 0.04528 0.85348 0.0
C144 C 0.12364 0.0414 0.83433 0.0
C145 C 0.20999 0.01233 0.84751 0.0
H146 H 0.1582 0.94602 0.78406 0.0
H147 H 0.09153 0.06706 0.83875 0.0
C148 C 0.90539 0.01032 0.73061 0.0
N149 N 0.79922 1.00505 0.7248 0.0
C150 C 0.87992 0.96316 0.73449 0.0
C151 C 0.87698 0.05475 0.72362 0.0
C152 C 0.82617 0.96132 0.73151 0.0
C153 C 0.8233 0.05129 0.72082 0.0
C154 C 0.10507 0.98879 0.71244 0.0
C155 C 0.11391 0.01794 0.68452 0.0
C156 C 0.12713 0.93978 0.71519 0.0
C157 C 0.14464 0.99746 0.65975 0.0
C158 C 0.15755 0.92062 0.68987 0.0
N159 N 0.16562 0.94963 0.66291 0.0
C160 C 0.06388 0.15212 0.72219 0.0
C161 C 0.99653 0.12375 0.6875 0.0
C162 C 0.07318 0.19491 0.70245 0.0
N163 N 0.0259 0.11791 0.71447 0.0
C164 C 1.00409 0.16622 0.66731 0.0
C165 C 0.04275 0.20252 0.67476 0.0
H166 H 0.08707 0.14593 0.74362 0.0
H167 H 0.96759 0.09516 0.6815 0.0
C168 C 0.99011 0.8576 0.72176 0.0
N169 N 1.00627 0.90453 0.711 0.0
C170 C 0.98414 0.81647 0.7 0.0
C171 C 0.01054 0.87313 0.65656 0.0
C172 C 0.01503 0.91326 0.67899 0.0
C173 C 0.99526 0.82395 0.66705 0.0
H174 H 0.98175 0.85215 0.74721 0.0
H175 H 0.0257 0.95142 0.67086 0.0
O176 O 0.01847 0.06877 0.78878 0.0
O177 O 1.00967 0.94548 0.78722 0.0
O178 O 0.95788 0.01302 0.73383 0.0
O179 O 0.07469 1.0081 0.7368 0.0
H180 H 0.99886 0.0578 0.85149 0.0
H181 H 0.97139 0.15307 0.76794 0.0
H182 H 0.94474 0.11736 0.88425 0.0
H183 H 0.91794 0.21104 0.80222 0.0
H184 H 0.12089 0.81645 0.81338 0.0
H185 H 0.01613 0.96468 0.85015 0.0
H186 H 0.06811 0.86427 0.77339 0.0
H187 H 0.06993 0.91511 0.88881 0.0
H188 H 0.80079 0.07912 0.82313 0.0
H189 H 0.85183 0.93553 0.86561 0.0
H190 H 0.23773 0.95041 0.81633 0.0
H191 H 0.16895 0.0733 0.87301 0.0
H192 H 0.90138 0.92849 0.74005 0.0
H193 H 0.89607 0.09167 0.72092 0.0
H194 H 0.80587 0.92514 0.73459 0.0
H195 H 0.80076 0.08542 0.71562 0.0
H196 H 0.09716 0.05593 0.68193 0.0
H197 H 0.11999 0.91631 0.73632 0.0
H198 H 0.15176 0.01958 0.638 0.0
H199 H 0.17454 0.8826 0.69159 0.0
H200 H 0.10316 0.22218 0.70905 0.0
H201 H 0.98031 0.17039 0.6459 0.0
H202 H 0.97223 0.77901 0.7089 0.0
H203 H 0.01881 0.88043 0.63123 0.0
H204 H 0.39798 0.91993 0.08838 0.0
H205 H 0.3898 0.08358 0.06875 0.0
H206 H 0.3172 0.09231 0.10525 0.0
H207 H 0.25499 0.05478 0.14238 0.0
H208 H 0.26074 0.8923 0.16395 0.0
H209 H 0.33527 0.88204 0.12758 0.0
C210 C 0.38028 0.95739 0.09217 0.0
C211 C 0.39961 1.00087 0.07568 0.0
C212 C 0.33802 0.96257 0.11364 0.0
C213 C 0.3762 0.04926 0.08103 0.0
C214 C 0.3344 0.0545 0.10195 0.0
C215 C 0.27235 0.01703 0.13898 0.0
C216 C 0.25218 0.97435 0.15554 0.0
C217 C 0.31489 0.01154 0.11825 0.0
C218 C 0.27577 0.92585 0.15148 0.0
C219 C 0.3182 0.91994 0.13059 0.0
H220 H 0.10387 0.38625 0.58089 0.0
H221 H 0.93851 0.40869 0.58596 0.0
H222 H 0.93048 0.33758 0.62345 0.0
H223 H 0.96863 0.2666 0.65333 0.0
H224 H 0.13318 0.24212 0.65026 0.0
H225 H 0.1433 0.3164 0.61397 0.0
C226 C 0.06625 0.3758 0.59045 0.0
C227 C 0.02194 0.4027 0.58022 0.0
C228 C 0.06155 0.33426 0.61234 0.0
C229 C 0.97341 0.38862 0.593 0.0
C230 C 0.96857 0.3478 0.61455 0.0
C231 C 1.00671 0.27745 0.64463 0.0
C232 C 0.04994 0.24868 0.65407 0.0
C233 C 0.01214 0.31993 0.62401 0.0
C234 C 0.09924 0.26379 0.64324 0.0
C235 C 0.105 0.30611 0.62243 0.0
H236 H 0.62993 0.98609 0.07981 0.0
H237 H 0.63211 0.15255 0.07564 0.0
H238 H 0.705 0.15416 0.11374 0.0
H239 H 0.77002 0.10712 0.1469 0.0
H240 H 0.7663 0.94055 0.1486 0.0
H241 H 0.69196 0.94025 0.11254 0.0
C242 C 0.64594 0.023 0.0872 0.0
C243 C 0.62544 0.0692 0.07479 0.0
C244 C 0.68782 0.0235 0.10856 0.0
C245 C 0.64709 0.11641 0.08479 0.0
C246 C 0.68879 0.1173 0.10653 0.0
C247 C 0.75256 0.0709 0.1395 0.0
C248 C 0.77388 0.02386 0.1502 0.0
C249 C 0.70975 0.07096 0.11841 0.0
C250 C 0.75114 0.97717 0.14031 0.0
C251 C 0.70849 0.97696 0.11982 0.0
H252 H 0.0289 0.64957 0.56301 0.0
H253 H 0.87131 0.61261 0.58812 0.0
H254 H 0.87026 0.68434 0.62733 0.0
H255 H 0.91566 0.75702 0.65501 0.0
H256 H 0.07217 0.79357 0.6271 0.0
H257 H 0.07232 0.72207 0.58848 0.0
C258 C 0.9942 0.65696 0.57708 0.0
C259 C 0.95038 0.62548 0.57292 0.0
C260 C 0.99387 0.69811 0.59911 0.0
C261 C 0.90554 0.63629 0.59092 0.0
C262 C 0.90505 0.67714 0.61339 0.0
C263 C 0.94967 0.74903 0.64044 0.0
C264 C 0.99391 0.78032 0.64382 0.0
C265 C 0.94919 0.70814 0.61782 0.0
C266 C 0.03766 0.77014 0.6247 0.0
C267 C 0.03779 0.72927 0.6027 0.0
H268 H 0.40451 0.981 0.93664 0.0
H269 H 0.39856 0.14741 0.94076 0.0
H270 H 0.32442 0.14672 0.90367 0.0
H271 H 0.25963 0.09794 0.87156 0.0
H272 H 0.26594 0.9313 0.87029 0.0
H273 H 0.34208 0.93321 0.90474 0.0
C274 C 0.38732 0.01737 0.92946 0.0
C275 C 0.40704 0.06425 0.94164 0.0
C276 C 0.34469 0.01657 0.90865 0.0
C277 C 0.38425 0.1108 0.93173 0.0
C278 C 0.34174 0.11036 0.91065 0.0
C279 C 0.27753 0.06206 0.87898 0.0
C280 C 0.25703 0.0145 0.86819 0.0
C281 C 0.32125 0.06335 0.89925 0.0
C282 C 0.28121 0.96843 0.87771 0.0
C283 C 0.32462 0.96945 0.89762 0.0
H284 H 0.03788 0.38722 0.44632 0.0
H285 H 0.87224 0.40017 0.4373 0.0
H286 H 0.87182 0.32659 0.39958 0.0
H287 H 0.91914 0.25693 0.37038 0.0
H288 H 0.0846 0.24564 0.38142 0.0
H289 H 0.08431 0.32036 0.41739 0.0
C290 C 1.00146 0.37434 0.43612 0.0
C291 C 0.9551 0.39933 0.4447 0.0
C292 C 1.00154 0.33208 0.41491 0.0
C293 C 0.90849 0.38169 0.43115 0.0
C294 C 0.90827 0.3396 0.4096 0.0
C295 C 0.95508 0.2712 0.3805 0.0
C296 C 1.00183 0.24554 0.37341 0.0
C297 C 0.95462 0.31429 0.40145 0.0
C298 C 0.04808 0.26417 0.38687 0.0
C299 C 0.04798 0.30704 0.40732 0.0
H300 H 0.64255 0.05748 0.94725 0.0
H301 H 0.61795 0.89292 0.94121 0.0
H302 H 0.68967 0.88591 0.90225 0.0
H303 H 0.75889 0.92768 0.86958 0.0
H304 H 0.7826 0.09226 0.8788 0.0
H305 H 0.71082 0.09798 0.91656 0.0
C306 C 0.65246 0.01985 0.93746 0.0
C307 C 0.62457 0.97577 0.94707 0.0
C308 C 0.69343 0.01622 0.91545 0.0
C309 C 0.63868 0.92748 0.93422 0.0
C310 C 0.67964 0.92353 0.91194 0.0
C311 C 0.74853 0.96471 0.88002 0.0
C312 C 0.77589 1.00961 0.87088 0.0
C313 C 0.70731 0.96776 0.90235 0.0
C314 C 0.76163 0.05728 0.8846 0.0
C315 C 0.72079 0.06059 0.90649 0.0
H316 H 0.9618 0.64094 0.45077 0.0
H317 H 0.12403 0.60876 0.4373 0.0
H318 H 0.12994 0.67988 0.39813 0.0
H319 H 0.08773 0.75041 0.36725 0.0
H320 H 0.9259 0.7822 0.38402 0.0
H321 H 0.92113 0.71107 0.42205 0.0
C322 C 0.99863 0.64906 0.43926 0.0
C323 C 0.04237 0.61918 0.44679 0.0
C324 C 1.00167 0.68976 0.41718 0.0
C325 C 0.08976 0.63106 0.4319 0.0
C326 C 0.09306 0.67166 0.40949 0.0
C327 C 0.05153 0.74201 0.37941 0.0
C328 C 1.00703 0.77142 0.3723 0.0
C329 C 0.04913 0.70124 0.4019 0.0
C330 C 0.96043 0.75963 0.38822 0.0
C331 C 0.95771 0.71917 0.41027 0.0
loop_
_geom_bond_atom_site_label_1
_geom_bond_atom_site_label_2
_geom_bond_distance
_geom_bond_site_symmetry_2
_ccdc_geom_bond_type
C0 O2 1.246 . S
C0 O4 1.259 1_565 S
C1 O8 1.251 . S
C1 O9 1.254 1_545 S
O2 C0 1.246 . S
O2 Zn3 2.028 1_556 S
Zn3 O2 2.028 1_554 S
Zn3 O7 2.035 1_554 S
Zn3 O9 2.035 . S
Zn3 O10 2.028 . S
O4 C0 1.259 1_545 S
O4 Zn5 2.035 1_556 S
Zn5 O4 2.035 1_554 S
Zn5 O6 2.028 1_554 S
Zn5 O8 2.028 . S
Zn5 O11 2.035 . S
O6 Zn5 2.028 1_556 S
O6 C12 1.251 . S
O7 Zn3 2.035 1_556 S
O7 C12 1.254 1_565 S
O8 C1 1.251 . S
O8 Zn5 2.028 . S
O9 C1 1.254 1_565 S
O9 Zn3 2.035 . S
O10 Zn3 2.028 . S
O10 C13 1.246 . S
O11 Zn5 2.035 . S
O11 C13 1.259 1_545 S
C12 O6 1.251 . S
C12 O7 1.254 1_545 S
C13 O10 1.246 . S
C13 O11 1.259 1_565 S
C14 O16 1.246 . S
C14 O18 1.259 1_655 S
C15 O22 1.251 . S
C15 O23 1.254 1_455 S
O16 C14 1.246 . S
O16 Zn17 2.028 . S
Zn17 O16 2.028 . S
Zn17 O21 2.035 . S
Zn17 O23 2.035 . S
Zn17 O24 2.028 . S
O18 C14 1.259 1_455 S
O18 Zn19 2.035 . S
Zn19 O18 2.035 . S
Zn19 O20 2.028 . S
Zn19 O22 2.028 . S
Zn19 O25 2.035 . S
O20 Zn19 2.028 . S
O20 C26 1.251 . S
O21 Zn17 2.035 . S
O21 C26 1.254 1_655 S
O22 C15 1.251 . S
O22 Zn19 2.028 . S
O23 C15 1.254 1_655 S
O23 Zn17 2.035 . S
O24 Zn17 2.028 . S
O24 C27 1.246 . S
O25 Zn19 2.035 . S
O25 C27 1.259 1_455 S
C26 O20 1.251 . S
C26 O21 1.254 1_455 S
C27 O24 1.246 . S
C27 O25 1.259 1_655 S
Li28 N45 1.990 . S
Li28 O88 1.956 1_545 S
Li28 O89 1.970 1_455 S
Li28 O90 1.961 1_455 S
Li29 N53 1.990 . S
Li29 O88 1.970 1_655 S
Li29 O89 1.956 1_565 S
Li29 O91 1.961 1_655 S
Li30 N75 1.990 . S
Li30 O88 1.961 1_545 S
Li30 O90 1.956 1_455 S
Li30 O91 1.970 1_545 S
Li31 N81 1.990 . S
Li31 O89 1.961 1_565 S
Li31 O90 1.970 1_565 S
Li31 O91 1.956 1_655 S
C32 C34 1.348 1_545 S
C32 C35 1.356 . S
C32 O88 1.325 1_545 S
N33 C36 1.314 1_545 S
N33 C37 1.279 . S
C34 C32 1.348 1_565 S
C34 C36 1.353 . S
C34 H92 0.929 . S
C35 C32 1.356 . S
C35 C37 1.358 . S
C35 H93 0.930 . S
C36 N33 1.314 1_565 S
C36 C34 1.353 . S
C36 H94 0.930 . S
C37 N33 1.279 . S
C37 C35 1.358 . S
C37 H95 0.930 . S
C38 C41 1.348 . S
C38 C42 1.356 1_545 S
C38 O89 1.325 . S
C39 N40 1.279 . S
C39 C42 1.358 . S
C39 H96 0.930 . S
N40 C39 1.279 . S
N40 C43 1.314 1_565 S
C41 C38 1.348 . S
C41 C43 1.353 . S
C41 H97 0.929 . S
C42 C38 1.356 1_565 S
C42 C39 1.358 . S
C42 H98 0.930 . S
C43 N40 1.314 1_545 S
C43 C41 1.353 . S
C43 H99 0.930 . S
C44 N45 1.314 1_655 S
C44 C49 1.353 . S
C44 H50 0.930 . S
N45 Li28 1.990 . S
N45 C44 1.314 1_455 S
N45 C47 1.279 . S
C46 C47 1.358 . S
C46 C48 1.356 . S
C46 H100 0.930 . S
C47 N45 1.279 . S
C47 C46 1.358 . S
C47 H51 0.930 . S
C48 C46 1.356 . S
C48 C49 1.348 1_455 S
C49 C44 1.353 . S
C49 C48 1.348 1_655 S
C49 H101 0.929 . S
H50 C44 0.930 . S
H51 C47 0.930 . S
C52 N53 1.314 1_455 S
C52 C54 1.353 . S
C52 H58 0.930 . S
N53 Li29 1.990 . S
N53 C52 1.314 1_655 S
N53 C56 1.279 . S
C54 C52 1.353 . S
C54 C57 1.348 . S
C54 H102 0.929 . S
C55 C56 1.358 . S
C55 C57 1.356 1_655 S
C55 H103 0.930 . S
C56 N53 1.279 . S
C56 C55 1.358 . S
C56 H59 0.930 . S
C57 C54 1.348 . S
C57 C55 1.356 1_455 S
H58 C52 0.930 . S
H59 C56 0.930 . S
C60 C62 1.348 1_455 S
C60 C63 1.356 . S
C60 O90 1.325 1_455 S
N61 C64 1.314 1_455 S
N61 C65 1.279 . S
C62 C60 1.348 1_655 S
C62 C64 1.353 . S
C62 H104 0.929 . S
C63 C60 1.356 . S
C63 C65 1.358 . S
C63 H105 0.930 . S
C64 N61 1.314 1_655 S
C64 C62 1.353 . S
C64 H106 0.930 . S
C65 N61 1.279 . S
C65 C63 1.358 . S
C65 H107 0.930 . S
C66 C67 1.348 . S
C66 C68 1.356 1_455 S
C66 O91 1.325 . S
C67 C66 1.348 . S
C67 C69 1.353 . S
C67 H108 0.929 . S
C68 C66 1.356 1_655 S
C68 C70 1.358 . S
C68 H109 0.930 . S
C69 C67 1.353 . S
C69 N71 1.314 1_455 S
C69 H110 0.930 . S
C70 C68 1.358 . S
C70 N71 1.279 . S
C70 H111 0.930 . S
N71 C69 1.314 1_655 S
N71 C70 1.279 . S
C72 C74 1.353 . S
C72 N75 1.314 1_565 S
C72 H78 0.930 . S
C73 N75 1.279 . S
C73 C76 1.358 . S
C73 H79 0.930 . S
C74 C72 1.353 . S
C74 C77 1.348 1_565 S
C74 H112 0.929 . S
N75 Li30 1.990 . S
N75 C72 1.314 1_545 S
N75 C73 1.279 . S
C76 C73 1.358 . S
C76 C77 1.356 . S
C76 H113 0.930 . S
C77 C74 1.348 1_545 S
C77 C76 1.356 . S
H78 C72 0.930 . S
H79 C73 0.930 . S
C80 N81 1.314 1_545 S
C80 C82 1.353 . S
C80 H86 0.930 . S
N81 Li31 1.990 . S
N81 C80 1.314 1_565 S
N81 C84 1.279 . S
C82 C80 1.353 . S
C82 C85 1.348 . S
C82 H114 0.929 . S
C83 C84 1.358 . S
C83 C85 1.356 1_565 S
C83 H115 0.930 . S
C84 N81 1.279 . S
C84 C83 1.358 . S
C84 H87 0.930 . S
C85 C82 1.348 . S
C85 C83 1.356 1_545 S
H86 C80 0.930 . S
H87 C84 0.930 . S
O88 Li28 1.956 1_565 S
O88 Li29 1.970 1_455 S
O88 Li30 1.961 1_565 S
O88 C32 1.325 1_565 S
O89 Li28 1.970 1_655 S
O89 Li29 1.956 1_545 S
O89 Li31 1.961 1_545 S
O89 C38 1.325 . S
O90 Li28 1.961 1_655 S
O90 Li30 1.956 1_655 S
O90 Li31 1.970 1_545 S
O90 C60 1.325 1_655 S
O91 Li29 1.961 1_455 S
O91 Li30 1.970 1_565 S
O91 Li31 1.956 1_455 S
O91 C66 1.325 . S
H92 C34 0.929 . S
H93 C35 0.930 . S
H94 C36 0.930 . S
H95 C37 0.930 . S
H96 C39 0.930 . S
H97 C41 0.929 . S
H98 C42 0.930 . S
H99 C43 0.930 . S
H100 C46 0.930 . S
H101 C49 0.929 . S
H102 C54 0.929 . S
H103 C55 0.930 . S
H104 C62 0.929 . S
H105 C63 0.930 . S
H106 C64 0.930 . S
H107 C65 0.930 . S
H108 C67 0.929 . S
H109 C68 0.930 . S
H110 C69 0.930 . S
H111 C70 0.930 . S
H112 C74 0.929 . S
H113 C76 0.930 . S
H114 C82 0.929 . S
H115 C83 0.930 . S
Li116 N133 1.990 . S
Li116 O176 1.956 1_655 S
Li116 O177 1.970 1_545 S
Li116 O178 1.961 1_545 S
Li117 N141 1.990 . S
Li117 O176 1.970 1_565 S
Li117 O177 1.956 1_455 S
Li117 O179 1.961 1_565 S
Li118 N163 1.990 . S
Li118 O176 1.961 1_655 S
Li118 O178 1.956 1_545 S
Li118 O179 1.970 1_655 S
Li119 N169 1.990 . S
Li119 O177 1.961 1_455 S
Li119 O178 1.970 1_455 S
Li119 O179 1.956 1_565 S
C120 C122 1.348 . S
C120 C123 1.356 1_455 S
C120 O176 1.325 . S
N121 C124 1.314 1_655 S
N121 C125 1.279 . S
C122 C120 1.348 . S
C122 C124 1.353 . S
C122 H180 0.929 . S
C123 C120 1.356 1_655 S
C123 C125 1.358 . S
C123 H181 0.930 . S
C124 N121 1.314 1_455 S
C124 C122 1.353 . S
C124 H182 0.930 . S
C125 N121 1.279 . S
C125 C123 1.358 . S
C125 H183 0.930 . S
C126 C129 1.348 1_455 S
C126 C130 1.356 . S
C126 O177 1.325 1_455 S
C127 N128 1.279 . S
C127 C130 1.358 . S
C127 H184 0.930 . S
N128 C127 1.279 . S
N128 C131 1.314 1_455 S
C129 C126 1.348 1_655 S
C129 C131 1.353 . S
C129 H185 0.929 . S
C130 C126 1.356 . S
C130 C127 1.358 . S
C130 H186 0.930 . S
C131 N128 1.314 1_655 S
C131 C129 1.353 . S
C131 H187 0.930 . S
C132 N133 1.314 1_565 S
C132 C137 1.353 . S
C132 H138 0.930 . S
N133 Li116 1.990 . S
N133 C132 1.314 1_545 S
N133 C135 1.279 . S
C134 C135 1.358 . S
C134 C136 1.356 . S
C134 H188 0.930 . S
C135 N133 1.279 . S
C135 C134 1.358 . S
C135 H139 0.930 . S
C136 C134 1.356 . S
C136 C137 1.348 1_545 S
C137 C132 1.353 . S
C137 C136 1.348 1_565 S
C137 H189 0.929 . S
H138 C132 0.930 . S
H139 C135 0.930 . S
C140 N141 1.314 1_545 S
C140 C142 1.353 . S
C140 H146 0.930 . S
N141 Li117 1.990 . S
N141 C140 1.314 1_565 S
N141 C144 1.279 . S
C142 C140 1.353 . S
C142 C145 1.348 . S
C142 H190 0.929 . S
C143 C144 1.358 . S
C143 C145 1.356 1_565 S
C143 H191 0.930 . S
C144 N141 1.279 . S
C144 C143 1.358 . S
C144 H147 0.930 . S
C145 C142 1.348 . S
C145 C143 1.356 1_545 S
H146 C140 0.930 . S
H147 C144 0.930 . S
C148 C150 1.348 1_545 S
C148 C151 1.356 . S
C148 O178 1.325 1_545 S
N149 C152 1.314 1_545 S
N149 C153 1.279 . S
C150 C148 1.348 1_565 S
C150 C152 1.353 . S
C150 H192 0.929 . S
C151 C148 1.356 . S
C151 C153 1.358 . S
C151 H193 0.930 . S
C152 N149 1.314 1_565 S
C152 C150 1.353 . S
C152 H194 0.930 . S
C153 N149 1.279 . S
C153 C151 1.358 . S
C153 H195 0.930 . S
C154 C155 1.348 . S
C154 C156 1.356 1_545 S
C154 O179 1.325 . S
C155 C154 1.348 . S
C155 C157 1.353 . S
C155 H196 0.929 . S
C156 C154 1.356 1_565 S
C156 C158 1.358 . S
C156 H197 0.930 . S
C157 C155 1.353 . S
C157 N159 1.314 1_545 S
C157 H198 0.930 . S
C158 C156 1.358 . S
C158 N159 1.279 . S
C158 H199 0.930 . S
N159 C157 1.314 1_565 S
N159 C158 1.279 . S
C160 C162 1.353 . S
C160 N163 1.314 1_455 S
C160 H166 0.930 . S
C161 N163 1.279 . S
C161 C164 1.358 . S
C161 H167 0.930 . S
C162 C160 1.353 . S
C162 C165 1.348 . S
C162 H200 0.929 . S
N163 Li118 1.990 . S
N163 C160 1.314 1_655 S
N163 C161 1.279 . S
C164 C161 1.358 . S
C164 C165 1.356 1_655 S
C164 H201 0.930 . S
C165 C162 1.348 . S
C165 C164 1.356 1_455 S
H166 C160 0.930 . S
H167 C161 0.930 . S
C168 N169 1.314 1_655 S
C168 C170 1.353 . S
C168 H174 0.930 . S
N169 Li119 1.990 . S
N169 C168 1.314 1_455 S
N169 C172 1.279 . S
C170 C168 1.353 . S
C170 C173 1.348 1_655 S
C170 H202 0.929 . S
C171 C172 1.358 . S
C171 C173 1.356 . S
C171 H203 0.930 . S
C172 N169 1.279 . S
C172 C171 1.358 . S
C172 H175 0.930 . S
C173 C170 1.348 1_455 S
C173 C171 1.356 . S
H174 C168 0.930 . S
H175 C172 0.930 . S
O176 Li116 1.956 1_455 S
O176 Li117 1.970 1_545 S
O176 Li118 1.961 1_455 S
O176 C120 1.325 . S
O177 Li116 1.970 1_565 S
O177 Li117 1.956 1_655 S
O177 Li119 1.961 1_655 S
O177 C126 1.325 1_655 S
O178 Li116 1.961 1_565 S
O178 Li118 1.956 1_565 S
O178 Li119 1.970 1_655 S
O178 C148 1.325 1_565 S
O179 Li117 1.961 1_545 S
O179 Li118 1.970 1_455 S
O179 Li119 1.956 1_545 S
O179 C154 1.325 . S
H180 C122 0.929 . S
H181 C123 0.930 . S
H182 C124 0.930 . S
H183 C125 0.930 . S
H184 C127 0.930 . S
H185 C129 0.929 . S
H186 C130 0.930 . S
H187 C131 0.930 . S
H188 C134 0.930 . S
H189 C137 0.929 . S
H190 C142 0.929 . S
H191 C143 0.930 . S
H192 C150 0.929 . S
H193 C151 0.930 . S
H194 C152 0.930 . S
H195 C153 0.930 . S
H196 C155 0.929 . S
H197 C156 0.930 . S
H198 C157 0.930 . S
H199 C158 0.930 . S
H200 C162 0.929 . S
H201 C164 0.930 . S
H202 C170 0.929 . S
H203 C171 0.930 . S
H204 C210 0.930 . S
H205 C213 0.930 . S
H206 C214 0.930 . S
H207 C215 0.930 . S
H208 C218 0.930 . S
H209 C219 0.930 . S
C210 H204 0.930 . S
C210 C211 1.355 1_565 S
C210 C212 1.415 . S
C211 C210 1.355 1_545 S
C211 C213 1.419 . S
C212 C210 1.415 . S
C212 C217 1.425 1_565 S
C212 C219 1.409 . S
C213 H205 0.930 . S
C213 C211 1.419 . S
C213 C214 1.362 . S
C214 H206 0.930 . S
C214 C213 1.362 . S
C214 C217 1.409 . S
C215 H207 0.930 . S
C215 C216 1.355 1_545 S
C215 C217 1.415 . S
C216 C215 1.355 1_565 S
C216 C218 1.419 . S
C217 C212 1.425 1_545 S
C217 C214 1.409 . S
C217 C215 1.415 . S
C218 H208 0.930 . S
C218 C216 1.419 . S
C218 C219 1.362 . S
C219 H209 0.930 . S
C219 C212 1.409 . S
C219 C218 1.362 . S
H220 C226 0.930 . S
H221 C229 0.930 . S
H222 C230 0.930 . S
H223 C231 0.930 . S
H224 C234 0.930 . S
H225 C235 0.930 . S
C226 H220 0.930 . S
C226 C227 1.355 1_455 S
C226 C228 1.415 . S
C227 C226 1.355 1_655 S
C227 C229 1.419 . S
C228 C226 1.415 . S
C228 C233 1.425 1_455 S
C228 C235 1.409 . S
C229 H221 0.930 . S
C229 C227 1.419 . S
C229 C230 1.362 . S
C230 H222 0.930 . S
C230 C229 1.362 . S
C230 C233 1.409 . S
C231 H223 0.930 . S
C231 C232 1.355 1_655 S
C231 C233 1.415 . S
C232 C231 1.355 1_455 S
C232 C234 1.419 . S
C233 C228 1.425 1_655 S
C233 C230 1.409 . S
C233 C231 1.415 . S
C234 H224 0.930 . S
C234 C232 1.419 . S
C234 C235 1.362 . S
C235 H225 0.930 . S
C235 C228 1.409 . S
C235 C234 1.362 . S
H236 C242 0.930 . S
H237 C245 0.930 . S
H238 C246 0.930 . S
H239 C247 0.930 . S
H240 C250 0.930 . S
H241 C251 0.930 . S
C242 H236 0.930 . S
C242 C243 1.355 1_565 S
C242 C244 1.415 . S
C243 C242 1.355 1_545 S
C243 C245 1.419 . S
C244 C242 1.415 . S
C244 C249 1.425 1_565 S
C244 C251 1.409 . S
C245 H237 0.930 . S
C245 C243 1.419 . S
C245 C246 1.362 . S
C246 H238 0.930 . S
C246 C245 1.362 . S
C246 C249 1.409 . S
C247 H239 0.930 . S
C247 C248 1.355 1_545 S
C247 C249 1.415 . S
C248 C247 1.355 1_565 S
C248 C250 1.419 . S
C249 C244 1.425 1_545 S
C249 C246 1.409 . S
C249 C247 1.415 . S
C250 H240 0.930 . S
C250 C248 1.419 . S
C250 C251 1.362 . S
C251 H241 0.930 . S
C251 C244 1.409 . S
C251 C250 1.362 . S
H252 C258 0.930 . S
H253 C261 0.930 . S
H254 C262 0.930 . S
H255 C263 0.930 . S
H256 C266 0.930 . S
H257 C267 0.930 . S
C258 H252 0.930 . S
C258 C259 1.355 1_455 S
C258 C260 1.415 . S
C259 C258 1.355 1_655 S
C259 C261 1.419 . S
C260 C258 1.415 . S
C260 C265 1.425 1_455 S
C260 C267 1.409 . S
C261 H253 0.930 . S
C261 C259 1.419 . S
C261 C262 1.362 . S
C262 H254 0.930 . S
C262 C261 1.362 . S
C262 C265 1.409 . S
C263 H255 0.930 . S
C263 C264 1.355 1_655 S
C263 C265 1.415 . S
C264 C263 1.355 1_455 S
C264 C266 1.419 . S
C265 C260 1.425 1_655 S
C265 C262 1.409 . S
C265 C263 1.415 . S
C266 H256 0.930 . S
C266 C264 1.419 . S
C266 C267 1.362 . S
C267 H257 0.930 . S
C267 C260 1.409 . S
C267 C266 1.362 . S
H268 C274 0.930 . S
H269 C277 0.930 . S
H270 C278 0.930 . S
H271 C279 0.930 . S
H272 C282 0.930 . S
H273 C283 0.930 . S
C274 H268 0.930 . S
C274 C275 1.357 . S
C274 C276 1.415 . S
C275 C274 1.357 . S
C275 C277 1.416 1_545 S
C276 C274 1.415 . S
C276 C281 1.425 1_545 S
C276 C283 1.409 . S
C277 H269 0.930 . S
C277 C275 1.416 1_565 S
C277 C278 1.362 . S
C278 H270 0.930 . S
C278 C277 1.362 . S
C278 C281 1.409 . S
C279 H271 0.930 . S
C279 C280 1.351 1_565 S
C279 C281 1.415 . S
C280 C279 1.351 1_545 S
C280 C282 1.423 . S
C281 C276 1.425 1_565 S
C281 C278 1.409 . S
C281 C279 1.415 . S
C282 H272 0.930 . S
C282 C280 1.423 . S
C282 C283 1.362 . S
C283 H273 0.930 . S
C283 C276 1.409 . S
C283 C282 1.362 . S
H284 C290 0.930 . S
H285 C293 0.930 . S
H286 C294 0.930 . S
H287 C295 0.930 . S
H288 C298 0.930 . S
H289 C299 0.930 . S
C290 H284 0.930 . S
C290 C291 1.355 1_455 S
C290 C292 1.415 . S
C291 C290 1.355 1_655 S
C291 C293 1.419 . S
C292 C290 1.415 . S
C292 C297 1.425 1_455 S
C292 C299 1.409 . S
C293 H285 0.930 . S
C293 C291 1.419 . S
C293 C294 1.362 . S
C294 H286 0.930 . S
C294 C293 1.362 . S
C294 C297 1.409 . S
C295 H287 0.930 . S
C295 C296 1.355 1_655 S
C295 C297 1.415 . S
C296 C295 1.355 1_455 S
C296 C298 1.419 . S
C297 C292 1.425 1_655 S
C297 C294 1.409 . S
C297 C295 1.415 . S
C298 H288 0.930 . S
C298 C296 1.419 . S
C298 C299 1.362 . S
C299 H289 0.930 . S
C299 C292 1.409 . S
C299 C298 1.362 . S
H300 C306 0.930 . S
H301 C309 0.930 . S
H302 C310 0.930 . S
H303 C311 0.930 . S
H304 C314 0.930 . S
H305 C315 0.930 . S
C306 H300 0.930 . S
C306 C307 1.355 1_545 S
C306 C308 1.415 . S
C307 C306 1.355 1_565 S
C307 C309 1.419 . S
C308 C306 1.415 . S
C308 C313 1.425 1_545 S
C308 C315 1.409 . S
C309 H301 0.930 . S
C309 C307 1.419 . S
C309 C310 1.362 . S
C310 H302 0.930 . S
C310 C309 1.362 . S
C310 C313 1.409 . S
C311 H303 0.930 . S
C311 C312 1.350 1_565 S
C311 C313 1.415 . S
C312 C311 1.350 1_545 S
C312 C314 1.425 . S
C313 C308 1.425 1_565 S
C313 C310 1.409 . S
C313 C311 1.415 . S
C314 H304 0.930 . S
C314 C312 1.425 . S
C314 C315 1.362 . S
C315 H305 0.930 . S
C315 C308 1.409 . S
C315 C314 1.362 . S
H316 C322 0.930 . S
H317 C325 0.930 . S
H318 C326 0.930 . S
H319 C327 0.930 . S
H320 C330 0.930 . S
H321 C331 0.930 . S
C322 H316 0.930 . S
C322 C323 1.355 . S
C322 C324 1.415 . S
C323 C322 1.355 . S
C323 C325 1.419 1_655 S
C324 C322 1.415 . S
C324 C329 1.425 1_655 S
C324 C331 1.409 . S
C325 H317 0.930 . S
C325 C323 1.419 1_455 S
C325 C326 1.362 . S
C326 H318 0.930 . S
C326 C325 1.362 . S
C326 C329 1.409 . S
C327 H319 0.930 . S
C327 C328 1.355 . S
C327 C329 1.415 . S
C328 C327 1.355 . S
C328 C330 1.419 1_455 S
C329 C324 1.425 1_455 S
C329 C326 1.409 . S
C329 C327 1.415 . S
C330 H320 0.930 . S
C330 C328 1.419 1_655 S
C330 C331 1.362 . S
C331 H321 0.930 . S
C331 C324 1.409 . S
C331 C330 1.362 . S
C216 C77 1.465 1_565 S
C211 C13 1.460 1_545 S
C232 C165 1.462 . S
C227 C15 1.459 1_655 S
C248 C85 1.453 1_565 S
C243 C1 1.456 . S
C264 C173 1.452 . S
C259 C27 1.454 . S
C280 C145 1.465 . S
C275 C0 1.465 1_545 S
C296 C48 1.452 . S
C291 C26 1.454 1_655 S
C312 C136 1.451 . S
C307 C12 1.457 1_565 S
C323 C14 1.453 . S
C328 C57 1.453 . S
