# Generated by pormake.
# Topology gar, (4,6)-cn, num edge types: 1
# Building blocks:
#     Node 0, Type 0, BuildingBlock: CEKHIL_clean_sbu_0, # of connection points: 4
#     Node 1, Type 0, BuildingBlock: CEKHIL_clean_sbu_0, # of connection points: 4
#     Node 2, Type 0, BuildingBlock: CEKHIL_clean_sbu_0, # of connection points: 4
#     Node 3, Type 0, BuildingBlock: CEKHIL_clean_sbu_0, # of connection points: 4
#     Node 4, Type 0, BuildingBlock: CEKHIL_clean_sbu_0, # of connection points: 4
#     Node 5, Type 0, BuildingBlock: CEKHIL_clean_sbu_0, # of connection points: 4
#     Node 6, Type 0, BuildingBlock: CEKHIL_clean_sbu_0, # of connection points: 4
#     Node 7, Type 0, BuildingBlock: CEKHIL_clean_sbu_0, # of connection points: 4
#     Node 8, Type 0, BuildingBlock: CEKHIL_clean_sbu_0, # of connection points: 4
#     Node 9, Type 0, BuildingBlock: CEKHIL_clean_sbu_0, # of connection points: 4
#     Node 10, Type 0, BuildingBlock: CEKHIL_clean_sbu_0, # of connection points: 4
#     Node 11, Type 0, BuildingBlock: CEKHIL_clean_sbu_0, # of connection points: 4
#     Node 12, Type 0, BuildingBlock: CEKHIL_clean_sbu_0, # of connection points: 4
#     Node 13, Type 0, BuildingBlock: CEKHIL_clean_sbu_0, # of connection points: 4
#     Node 14, Type 0, BuildingBlock: CEKHIL_clean_sbu_0, # of connection points: 4
#     Node 15, Type 0, BuildingBlock: CEKHIL_clean_sbu_0, # of connection points: 4
#     Node 16, Type 0, BuildingBlock: CEKHIL_clean_sbu_0, # of connection points: 4
#     Node 17, Type 0, BuildingBlock: CEKHIL_clean_sbu_0, # of connection points: 4
#     Node 18, Type 0, BuildingBlock: CEKHIL_clean_sbu_0, # of connection points: 4
#     Node 19, Type 0, BuildingBlock: CEKHIL_clean_sbu_0, # of connection points: 4
#     Node 20, Type 0, BuildingBlock: CEKHIL_clean_sbu_0, # of connection points: 4
#     Node 21, Type 0, BuildingBlock: CEKHIL_clean_sbu_0, # of connection points: 4
#     Node 22, Type 0, BuildingBlock: CEKHIL_clean_sbu_0, # of connection points: 4
#     Node 23, Type 0, BuildingBlock: CEKHIL_clean_sbu_0, # of connection points: 4
#     Node 24, Type 1, BuildingBlock: KUMBOL_clean_sbu_1, # of connection points: 6
#     Node 25, Type 1, BuildingBlock: KUMBOL_clean_sbu_1, # of connection points: 6
#     Node 26, Type 1, BuildingBlock: KUMBOL_clean_sbu_1, # of connection points: 6
#     Node 27, Type 1, BuildingBlock: KUMBOL_clean_sbu_1, # of connection points: 6
#     Node 28, Type 1, BuildingBlock: KUMBOL_clean_sbu_1, # of connection points: 6
#     Node 29, Type 1, BuildingBlock: KUMBOL_clean_sbu_1, # of connection points: 6
#     Node 30, Type 1, BuildingBlock: KUMBOL_clean_sbu_1, # of connection points: 6
#     Node 31, Type 1, BuildingBlock: KUMBOL_clean_sbu_1, # of connection points: 6
#     Node 32, Type 1, BuildingBlock: KUMBOL_clean_sbu_1, # of connection points: 6
#     Node 33, Type 1, BuildingBlock: KUMBOL_clean_sbu_1, # of connection points: 6
#     Node 34, Type 1, BuildingBlock: KUMBOL_clean_sbu_1, # of connection points: 6
#     Node 35, Type 1, BuildingBlock: KUMBOL_clean_sbu_1, # of connection points: 6
#     Node 36, Type 1, BuildingBlock: KUMBOL_clean_sbu_1, # of connection points: 6
#     Node 37, Type 1, BuildingBlock: KUMBOL_clean_sbu_1, # of connection points: 6
#     Node 38, Type 1, BuildingBlock: KUMBOL_clean_sbu_1, # of connection points: 6
#     Node 39, Type 1, BuildingBlock: KUMBOL_clean_sbu_1, # of connection points: 6
#     Edge 40, Type (0, 1), BuildingBlock: KIFKEQ_clean_linker_1, # of connection points: 2
#     Edge 41, Type (0, 1), BuildingBlock: KIFKEQ_clean_linker_1, # of connection points: 2
#     Edge 42, Type (0, 1), BuildingBlock: KIFKEQ_clean_linker_1, # of connection points: 2
#     Edge 43, Type (0, 1), BuildingBlock: KIFKEQ_clean_linker_1, # of connection points: 2
#     Edge 44, Type (0, 1), BuildingBlock: KIFKEQ_clean_linker_1, # of connection points: 2
#     Edge 45, Type (0, 1), BuildingBlock: KIFKEQ_clean_linker_1, # of connection points: 2
#     Edge 46, Type (0, 1), BuildingBlock: KIFKEQ_clean_linker_1, # of connection points: 2
#     Edge 47, Type (0, 1), BuildingBlock: KIFKEQ_clean_linker_1, # of connection points: 2
#     Edge 48, Type (0, 1), BuildingBlock: KIFKEQ_clean_linker_1, # of connection points: 2
#     Edge 49, Type (0, 1), BuildingBlock: KIFKEQ_clean_linker_1, # of connection points: 2
#     Edge 50, Type (0, 1), BuildingBlock: KIFKEQ_clean_linker_1, # of connection points: 2
#     Edge 51, Type (0, 1), BuildingBlock: KIFKEQ_clean_linker_1, # of connection points: 2
#     Edge 52, Type (0, 1), BuildingBlock: KIFKEQ_clean_linker_1, # of connection points: 2
#     Edge 53, Type (0, 1), BuildingBlock: KIFKEQ_clean_linker_1, # of connection points: 2
#     Edge 54, Type (0, 1), BuildingBlock: KIFKEQ_clean_linker_1, # of connection points: 2
#     Edge 55, Type (0, 1), BuildingBlock: KIFKEQ_clean_linker_1, # of connection points: 2
#     Edge 56, Type (0, 1), BuildingBlock: KIFKEQ_clean_linker_1, # of connection points: 2
#     Edge 57, Type (0, 1), BuildingBlock: KIFKEQ_clean_linker_1, # of connection points: 2
#     Edge 58, Type (0, 1), BuildingBlock: KIFKEQ_clean_linker_1, # of connection points: 2
#     Edge 59, Type (0, 1), BuildingBlock: KIFKEQ_clean_linker_1, # of connection points: 2
#     Edge 60, Type (0, 1), BuildingBlock: KIFKEQ_clean_linker_1, # of connection points: 2
#     Edge 61, Type (0, 1), BuildingBlock: KIFKEQ_clean_linker_1, # of connection points: 2
#     Edge 62, Type (0, 1), BuildingBlock: KIFKEQ_clean_linker_1, # of connection points: 2
#     Edge 63, Type (0, 1), BuildingBlock: KIFKEQ_clean_linker_1, # of connection points: 2
#     Edge 64, Type (0, 1), BuildingBlock: KIFKEQ_clean_linker_1, # of connection points: 2
#     Edge 65, Type (0, 1), BuildingBlock: KIFKEQ_clean_linker_1, # of connection points: 2
#     Edge 66, Type (0, 1), BuildingBlock: KIFKEQ_clean_linker_1, # of connection points: 2
#     Edge 67, Type (0, 1), BuildingBlock: KIFKEQ_clean_linker_1, # of connection points: 2
#     Edge 68, Type (0, 1), BuildingBlock: KIFKEQ_clean_linker_1, # of connection points: 2
#     Edge 69, Type (0, 1), BuildingBlock: KIFKEQ_clean_linker_1, # of connection points: 2
#     Edge 70, Type (0, 1), BuildingBlock: KIFKEQ_clean_linker_1, # of connection points: 2
#     Edge 71, Type (0, 1), BuildingBlock: KIFKEQ_clean_linker_1, # of connection points: 2
#     Edge 72, Type (0, 1), BuildingBlock: KIFKEQ_clean_linker_1, # of connection points: 2
#     Edge 73, Type (0, 1), BuildingBlock: KIFKEQ_clean_linker_1, # of connection points: 2
#     Edge 74, Type (0, 1), BuildingBlock: KIFKEQ_clean_linker_1, # of connection points: 2
#     Edge 75, Type (0, 1), BuildingBlock: KIFKEQ_clean_linker_1, # of connection points: 2
#     Edge 76, Type (0, 1), BuildingBlock: KIFKEQ_clean_linker_1, # of connection points: 2
#     Edge 77, Type (0, 1), BuildingBlock: KIFKEQ_clean_linker_1, # of connection points: 2
#     Edge 78, Type (0, 1), BuildingBlock: KIFKEQ_clean_linker_1, # of connection points: 2
#     Edge 79, Type (0, 1), BuildingBlock: KIFKEQ_clean_linker_1, # of connection points: 2
#     Edge 80, Type (0, 1), BuildingBlock: KIFKEQ_clean_linker_1, # of connection points: 2
#     Edge 81, Type (0, 1), BuildingBlock: KIFKEQ_clean_linker_1, # of connection points: 2
#     Edge 82, Type (0, 1), BuildingBlock: KIFKEQ_clean_linker_1, # of connection points: 2
#     Edge 83, Type (0, 1), BuildingBlock: KIFKEQ_clean_linker_1, # of connection points: 2
#     Edge 84, Type (0, 1), BuildingBlock: KIFKEQ_clean_linker_1, # of connection points: 2
#     Edge 85, Type (0, 1), BuildingBlock: KIFKEQ_clean_linker_1, # of connection points: 2
#     Edge 86, Type (0, 1), BuildingBlock: KIFKEQ_clean_linker_1, # of connection points: 2
#     Edge 87, Type (0, 1), BuildingBlock: KIFKEQ_clean_linker_1, # of connection points: 2
#     Edge 88, Type (0, 1), BuildingBlock: KIFKEQ_clean_linker_1, # of connection points: 2
#     Edge 89, Type (0, 1), BuildingBlock: KIFKEQ_clean_linker_1, # of connection points: 2
#     Edge 90, Type (0, 1), BuildingBlock: KIFKEQ_clean_linker_1, # of connection points: 2
#     Edge 91, Type (0, 1), BuildingBlock: KIFKEQ_clean_linker_1, # of connection points: 2
#     Edge 92, Type (0, 1), BuildingBlock: KIFKEQ_clean_linker_1, # of connection points: 2
#     Edge 93, Type (0, 1), BuildingBlock: KIFKEQ_clean_linker_1, # of connection points: 2
#     Edge 94, Type (0, 1), BuildingBlock: KIFKEQ_clean_linker_1, # of connection points: 2
#     Edge 95, Type (0, 1), BuildingBlock: KIFKEQ_clean_linker_1, # of connection points: 2
#     Edge 96, Type (0, 1), BuildingBlock: KIFKEQ_clean_linker_1, # of connection points: 2
#     Edge 97, Type (0, 1), BuildingBlock: KIFKEQ_clean_linker_1, # of connection points: 2
#     Edge 98, Type (0, 1), BuildingBlock: KIFKEQ_clean_linker_1, # of connection points: 2
#     Edge 99, Type (0, 1), BuildingBlock: KIFKEQ_clean_linker_1, # of connection points: 2
#     Edge 100, Type (0, 1), BuildingBlock: KIFKEQ_clean_linker_1, # of connection points: 2
#     Edge 101, Type (0, 1), BuildingBlock: KIFKEQ_clean_linker_1, # of connection points: 2
#     Edge 102, Type (0, 1), BuildingBlock: KIFKEQ_clean_linker_1, # of connection points: 2
#     Edge 103, Type (0, 1), BuildingBlock: KIFKEQ_clean_linker_1, # of connection points: 2
#     Edge 104, Type (0, 1), BuildingBlock: KIFKEQ_clean_linker_1, # of connection points: 2
#     Edge 105, Type (0, 1), BuildingBlock: KIFKEQ_clean_linker_1, # of connection points: 2
#     Edge 106, Type (0, 1), BuildingBlock: KIFKEQ_clean_linker_1, # of connection points: 2
#     Edge 107, Type (0, 1), BuildingBlock: KIFKEQ_clean_linker_1, # of connection points: 2
#     Edge 108, Type (0, 1), BuildingBlock: KIFKEQ_clean_linker_1, # of connection points: 2
#     Edge 109, Type (0, 1), BuildingBlock: KIFKEQ_clean_linker_1, # of connection points: 2
#     Edge 110, Type (0, 1), BuildingBlock: KIFKEQ_clean_linker_1, # of connection points: 2
#     Edge 111, Type (0, 1), BuildingBlock: KIFKEQ_clean_linker_1, # of connection points: 2
#     Edge 112, Type (0, 1), BuildingBlock: KIFKEQ_clean_linker_1, # of connection points: 2
#     Edge 113, Type (0, 1), BuildingBlock: KIFKEQ_clean_linker_1, # of connection points: 2
#     Edge 114, Type (0, 1), BuildingBlock: KIFKEQ_clean_linker_1, # of connection points: 2
#     Edge 115, Type (0, 1), BuildingBlock: KIFKEQ_clean_linker_1, # of connection points: 2
#     Edge 116, Type (0, 1), BuildingBlock: KIFKEQ_clean_linker_1, # of connection points: 2
#     Edge 117, Type (0, 1), BuildingBlock: KIFKEQ_clean_linker_1, # of connection points: 2
#     Edge 118, Type (0, 1), BuildingBlock: KIFKEQ_clean_linker_1, # of connection points: 2
#     Edge 119, Type (0, 1), BuildingBlock: KIFKEQ_clean_linker_1, # of connection points: 2
#     Edge 120, Type (0, 1), BuildingBlock: KIFKEQ_clean_linker_1, # of connection points: 2
#     Edge 121, Type (0, 1), BuildingBlock: KIFKEQ_clean_linker_1, # of connection points: 2
#     Edge 122, Type (0, 1), BuildingBlock: KIFKEQ_clean_linker_1, # of connection points: 2
#     Edge 123, Type (0, 1), BuildingBlock: KIFKEQ_clean_linker_1, # of connection points: 2
#     Edge 124, Type (0, 1), BuildingBlock: KIFKEQ_clean_linker_1, # of connection points: 2
#     Edge 125, Type (0, 1), BuildingBlock: KIFKEQ_clean_linker_1, # of connection points: 2
#     Edge 126, Type (0, 1), BuildingBlock: KIFKEQ_clean_linker_1, # of connection points: 2
#     Edge 127, Type (0, 1), BuildingBlock: KIFKEQ_clean_linker_1, # of connection points: 2
#     Edge 128, Type (0, 1), BuildingBlock: KIFKEQ_clean_linker_1, # of connection points: 2
#     Edge 129, Type (0, 1), BuildingBlock: KIFKEQ_clean_linker_1, # of connection points: 2
#     Edge 130, Type (0, 1), BuildingBlock: KIFKEQ_clean_linker_1, # of connection points: 2
#     Edge 131, Type (0, 1), BuildingBlock: KIFKEQ_clean_linker_1, # of connection points: 2
#     Edge 132, Type (0, 1), BuildingBlock: KIFKEQ_clean_linker_1, # of connection points: 2
#     Edge 133, Type (0, 1), BuildingBlock: KIFKEQ_clean_linker_1, # of connection points: 2
#     Edge 134, Type (0, 1), BuildingBlock: KIFKEQ_clean_linker_1, # of connection points: 2
#     Edge 135, Type (0, 1), BuildingBlock: KIFKEQ_clean_linker_1, # of connection points: 2
# Relax obj value: 0.067
# Max RMSD: 0.180
# Mean RMSD: 0.110
data_MOF--net-gar--node1-CEKHIL_clean_sbu_0--node2-KUMBOL_clean_sbu_1--edge1-KIFKEQ_clean_linker_1
_symmetry_space_group_name_H-M    P1
_symmetry_Int_Tables_number       1
_symmetry_cell_setting            triclinic
loop_
_symmetry_equiv_pos_as_xyz
'x, y, z'
_cell_length_a     61.209502
_cell_length_b     60.462883
_cell_length_c     56.154419
_cell_angle_alpha  96.144591
_cell_angle_beta   96.246547
_cell_angle_gamma 100.97161
loop_
_atom_site_label
_atom_site_type_symbol
_atom_site_fract_x
_atom_site_fract_y
_atom_site_fract_z
_atom_type_partial_charge
Co0 Co 0.0649 0.32896 0.36704 0.0
O1 O 0.09815 0.33174 0.37363 0.0
O2 O 0.07964 0.31947 0.33819 0.0
C3 C 0.06355 0.36403 0.38847 0.0
O4 O 0.03011 0.3241 0.35262 0.0
Co5 Co 0.0348 0.329 0.40841 0.0
O6 O 1.01015 0.33089 0.38319 0.0
C7 C 0.05492 0.28926 0.39615 0.0
C8 C 0.09919 0.3238 0.35149 0.0
C9 C 1.01118 0.32651 0.3607 0.0
O10 O 0.0605 0.29675 0.37645 0.0
O11 O 0.04654 0.30061 0.41207 0.0
O12 O 0.06842 0.36261 0.36641 0.0
O13 O 0.0613 0.34501 0.3971 0.0
Co14 Co 0.02593 0.76465 0.70147 0.0
O15 O 0.99316 0.76394 0.69348 0.0
O16 O 1.00723 0.75859 0.72871 0.0
C17 C 0.03533 0.79815 0.68535 0.0
O18 O 0.06014 0.76595 0.7169 0.0
Co19 Co 0.05822 0.76624 0.6622 0.0
O20 O 0.08329 0.77421 0.68889 0.0
C21 C 0.02848 0.72224 0.66664 0.0
C22 C 0.98938 0.76129 0.71528 0.0
C23 C 0.08043 0.77091 0.71043 0.0
O24 O 0.02217 0.73072 0.68661 0.0
O25 O 0.04089 0.73428 0.65391 0.0
O26 O 0.03069 0.79828 0.70736 0.0
O27 O 0.03387 0.77823 0.67396 0.0
Co28 Co 0.56496 0.82905 0.86798 0.0
O29 O 0.59805 0.83063 0.87481 0.0
O30 O 0.57929 0.81784 0.83958 0.0
C31 C 0.56545 0.86526 0.88783 0.0
O32 O 0.53024 0.82514 0.85306 0.0
Co33 Co 0.5343 0.83411 0.90879 0.0
O34 O 0.51019 0.83462 0.88269 0.0
C35 C 0.55298 0.79231 0.90013 0.0
C36 C 0.59887 0.82216 0.85278 0.0
C37 C 0.51137 0.82877 0.86048 0.0
O38 O 0.55916 0.79758 0.87969 0.0
O39 O 0.54507 0.80579 0.91443 0.0
O40 O 0.57041 0.86264 0.86586 0.0
O41 O 0.56169 0.84667 0.89708 0.0
Co42 Co 0.52692 0.26542 0.20057 0.0
O43 O 0.49405 0.26427 0.19352 0.0
O44 O 0.50867 0.25681 0.22758 0.0
C45 C 0.53457 0.3005 0.18734 0.0
O46 O 0.56147 0.26705 0.2147 0.0
Co47 Co 0.55776 0.27232 0.16033 0.0
O48 O 0.58315 0.2793 0.18672 0.0
C49 C 0.53183 0.22586 0.16311 0.0
C50 C 0.49065 0.26022 0.21503 0.0
C51 C 0.58131 0.27381 0.20779 0.0
O52 O 0.52464 0.2323 0.18339 0.0
O53 O 0.54225 0.24002 0.15073 0.0
O54 O 0.53086 0.29881 0.20941 0.0
O55 O 0.53322 0.28151 0.17418 0.0
Co56 Co 0.07183 0.80881 0.12071 0.0
O57 O 0.03916 0.80522 0.11538 0.0
O58 O 0.05854 0.80031 0.14903 0.0
C59 C 0.07738 0.84479 0.10556 0.0
O60 O 0.10465 0.81177 0.13714 0.0
Co61 Co 0.10136 0.80884 0.08596 0.0
O62 O 0.1285 0.81335 0.11021 0.0
C63 C 0.07736 0.76346 0.09103 0.0
C64 C 0.03919 0.80087 0.13755 0.0
C65 C 0.12485 0.81305 0.13197 0.0
O66 O 0.06927 0.77419 0.10823 0.0
O67 O 0.09031 0.77479 0.07828 0.0
O68 O 0.07436 0.84208 0.12759 0.0
O69 O 0.07723 0.82562 0.09217 0.0
Co70 Co 0.51973 0.78359 0.44563 0.0
O71 O 0.55258 0.78921 0.45083 0.0
O72 O 0.53153 0.77389 0.41653 0.0
C73 C 0.51755 0.8206 0.46208 0.0
O74 O 0.48633 0.77693 0.42958 0.0
Co75 Co 0.49059 0.78085 0.48152 0.0
O76 O 0.4652 0.7844 0.45779 0.0
C77 C 0.51153 0.74147 0.47488 0.0
C78 C 0.55149 0.78125 0.4282 0.0
C79 C 0.46735 0.78044 0.43561 0.0
O80 O 0.51897 0.75124 0.45695 0.0
O81 O 0.49978 0.75133 0.48841 0.0
O82 O 0.5209 0.81518 0.44007 0.0
O83 O 0.51644 0.80368 0.47498 0.0
Co84 Co 0.57078 0.30929 0.62093 0.0
O85 O 0.53811 0.30621 0.61506 0.0
O86 O 0.55694 0.30171 0.64923 0.0
C87 C 0.57677 0.34507 0.60541 0.0
O88 O 0.60333 0.31122 0.63787 0.0
Co89 Co 0.60153 0.30973 0.58768 0.0
O90 O 0.62849 0.31601 0.61249 0.0
C91 C 0.57745 0.26407 0.59284 0.0
C92 C 0.53781 0.30239 0.63735 0.0
C93 C 0.62394 0.31397 0.63372 0.0
O94 O 0.5676 0.2747 0.60846 0.0
O95 O 0.59182 0.27543 0.58151 0.0
O96 O 0.57426 0.34276 0.62765 0.0
O97 O 0.57654 0.32577 0.59227 0.0
Co98 Co 0.01986 0.28419 0.9469 0.0
O99 O 0.05261 0.29157 0.95317 0.0
O100 O 0.03312 0.27497 0.91847 0.0
C101 C 1.01545 0.32022 0.96379 0.0
O102 O 0.98664 0.27605 0.93009 0.0
Co103 Co 0.9896 0.27946 0.98204 0.0
O104 O 0.9653 0.28438 0.9578 0.0
C105 C 1.01128 0.24072 0.97444 0.0
C106 C 0.05265 0.28316 0.9309 0.0
C107 C 0.9677 0.28009 0.93571 0.0
O108 O 0.02011 0.25188 0.95805 0.0
O109 O 0.99804 0.24921 0.98714 0.0
O110 O 0.01958 0.31592 0.94184 0.0
O111 O 1.01509 0.30301 0.97613 0.0
Co112 Co 0.39705 0.0312 0.32423 0.0
O113 O 0.40079 0.06332 0.32908 0.0
O114 O 0.37057 0.03869 0.30937 0.0
C115 C 0.40977 0.02841 0.36164 0.0
O116 O 0.38719 0.99748 0.31652 0.0
Co117 Co 0.43747 1.00721 0.33199 0.0
O118 O 0.41352 0.98048 0.33326 0.0
C119 C 0.42728 0.02572 0.2862 0.0
C120 C 0.38078 0.05953 0.31715 0.0
C121 C 0.39385 0.97999 0.32294 0.0
O122 O 0.4102 0.03245 0.29331 0.0
O123 O 0.44034 0.01602 0.29892 0.0
O124 O 0.38894 0.02981 0.35648 0.0
O125 O 0.42246 0.03032 0.34479 0.0
Co126 Co 0.28046 0.18427 0.51469 0.0
O127 O 0.31298 0.19057 0.51764 0.0
O128 O 0.29164 0.15769 0.52207 0.0
C129 C 0.27631 0.1997 0.47905 0.0
O130 O 0.24704 0.16949 0.51253 0.0
Co131 Co 0.25202 0.21963 0.51545 0.0
O132 O 0.22501 0.19473 0.50916 0.0
C133 C 0.27596 0.21297 0.56168 0.0
C134 C 0.31155 0.16958 0.52152 0.0
C135 C 0.22742 0.17441 0.51022 0.0
O136 O 0.28198 0.1957 0.55063 0.0
O137 O 0.26501 0.22569 0.55061 0.0
O138 O 0.2787 0.17886 0.47944 0.0
O139 O 0.2769 0.21103 0.50019 0.0
Co140 Co 0.14986 0.05644 0.8031 0.0
O141 O 0.14322 0.02357 0.79992 0.0
O142 O 0.17563 0.04483 0.79464 0.0
C143 C 0.13547 0.0605 0.83926 0.0
O144 O 0.16476 0.09008 0.80541 0.0
Co145 Co 0.11503 0.08545 0.80356 0.0
O146 O 0.13982 0.11256 0.80719 0.0
C147 C 0.11961 0.06025 0.75722 0.0
C148 C 0.16372 0.0248 0.79536 0.0
C149 C 0.15989 0.10991 0.80659 0.0
O150 O 0.13787 0.05556 0.76736 0.0
O151 O 0.10677 0.0701 0.76926 0.0
O152 O 0.15589 0.05775 0.83831 0.0
O153 O 0.12396 0.06024 0.81837 0.0
Co154 Co 0.3061 0.94108 0.9966 0.0
O155 O 0.2744 0.9373 0.99263 0.0
O156 O 0.29886 0.96922 0.00827 0.0
C157 C 0.30688 0.92398 0.96012 0.0
O158 O 0.3394 0.95141 1.00233 0.0
Co159 Co 0.32946 0.89952 0.99283 0.0
O160 O 0.35687 0.92285 0.99231 0.0
C161 C 0.30568 0.91042 0.0343 0.0
C162 C 0.27818 0.9586 1.00148 0.0
C163 C 0.35688 0.94371 0.9985 0.0
O164 O 0.30574 0.93056 0.02909 0.0
O165 O 0.31208 0.89506 0.02083 0.0
O166 O 0.30627 0.94546 0.96281 0.0
O167 O 0.30622 0.9137 0.979 0.0
Co168 Co 0.31027 0.39745 0.04276 0.0
O169 O 0.27786 0.39054 0.03759 0.0
O170 O 0.29869 0.42381 0.05409 0.0
C171 C 0.31377 0.38153 0.00497 0.0
O172 O 0.34387 0.41255 0.04924 0.0
Co173 Co 0.33907 0.362 0.0415 0.0
O174 O 0.36332 0.38704 0.03608 0.0
C175 C 0.31752 0.37025 0.08524 0.0
C176 C 0.27884 0.41146 0.04651 0.0
C177 C 0.36211 0.40748 0.04285 0.0
O178 O 0.3101 0.38659 0.07616 0.0
O179 O 0.32882 0.35789 0.07383 0.0
O180 O 0.31064 0.40218 0.00883 0.0
O181 O 0.31362 0.37059 0.02358 0.0
Co182 Co 0.78323 0.13741 0.05913 0.0
O183 O 0.81481 0.14079 0.0673 0.0
O184 O 0.78936 0.10879 0.06608 0.0
C185 C 0.78477 0.15548 0.02658 0.0
O186 O 0.74968 0.12747 0.05108 0.0
Co187 Co 0.76087 0.17992 0.05843 0.0
O188 O 0.73372 0.15726 0.04422 0.0
C189 C 0.77636 0.16464 0.10434 0.0
C190 C 0.81027 0.1193 0.06955 0.0
C191 C 0.73284 0.13612 0.04444 0.0
O192 O 0.78045 0.14638 0.0937 0.0
O193 O 0.77031 0.18052 0.09359 0.0
O194 O 0.78637 0.13427 0.02476 0.0
O195 O 0.78428 0.16533 0.04797 0.0
Co196 Co 0.19436 0.55025 0.25725 0.0
O197 O 0.18667 0.51813 0.24926 0.0
O198 O 0.22014 0.53985 0.24785 0.0
C199 C 0.17861 0.55138 0.29104 0.0
O200 O 0.20827 0.58352 0.2645 0.0
Co201 Co 0.15787 0.57973 0.26138 0.0
O202 O 0.18345 0.60299 0.27852 0.0
C203 C 0.16893 0.56256 0.21376 0.0
C204 C 0.20731 0.5197 0.245 0.0
C205 C 0.20323 0.6015 0.2747 0.0
O206 O 0.18467 0.55387 0.22329 0.0
O207 O 0.15589 0.57233 0.22557 0.0
O208 O 0.19864 0.54705 0.29152 0.0
O209 O 0.16839 0.55315 0.27023 0.0
Co210 Co 0.8104 0.89859 0.54177 0.0
O211 O 0.77795 0.89294 0.53648 0.0
O212 O 0.79996 0.92555 0.55322 0.0
C213 C 0.81327 0.8823 0.50364 0.0
O214 O 0.84405 0.91277 0.54866 0.0
Co215 Co 0.83842 0.86248 0.53999 0.0
O216 O 0.86295 0.88732 0.53409 0.0
C217 C 0.8144 0.86913 0.58243 0.0
C218 C 0.77985 0.91399 0.54553 0.0
C219 C 0.86197 0.90768 0.54157 0.0
O220 O 0.80983 0.88748 0.57505 0.0
O221 O 0.82426 0.85592 0.57002 0.0
O222 O 0.81104 0.90325 0.50772 0.0
O223 O 0.81307 0.87152 0.52239 0.0
Co224 Co 0.93906 0.02513 0.27444 0.0
O225 O 0.94423 0.05803 0.27708 0.0
O226 O 0.91213 0.03462 0.26224 0.0
C227 C 0.95522 0.02388 0.31296 0.0
O228 O 0.92528 0.99108 0.26993 0.0
Co229 Co 0.97529 0.99713 0.27821 0.0
O230 O 0.95086 0.97184 0.28328 0.0
C231 C 0.96873 0.02014 0.23477 0.0
C232 C 0.92321 0.05535 0.26828 0.0
C233 C 0.93058 0.97284 0.27651 0.0
O234 O 0.94993 0.02388 0.2411 0.0
O235 O 0.9821 1.01132 0.24821 0.0
O236 O 0.93467 0.02653 0.30858 0.0
O237 O 0.96586 0.02322 0.29425 0.0
Co238 Co 0.28447 0.63975 0.56056 0.0
O239 O 0.31605 0.64816 0.56653 0.0
O240 O 0.29612 0.61369 0.56875 0.0
C241 C 0.28195 0.65577 0.52685 0.0
O242 O 0.25139 0.62586 0.55463 0.0
Co243 Co 0.25688 0.67849 0.55909 0.0
O244 O 0.23318 0.6528 0.54284 0.0
C245 C 0.27913 0.66837 0.60484 0.0
C246 C 0.31561 0.62721 0.56969 0.0
C247 C 0.23384 0.63225 0.54544 0.0
O248 O 0.28271 0.6496 0.59498 0.0
O249 O 0.27109 0.6829 0.59348 0.0
O250 O 0.28594 0.63538 0.52591 0.0
O251 O 0.28121 0.66601 0.54797 0.0
Co252 Co 0.4397 0.52605 0.7751 0.0
O253 O 0.44523 0.55899 0.77851 0.0
O254 O 0.41319 0.53614 0.76251 0.0
C255 C 0.45536 0.52414 0.81356 0.0
O256 O 0.42558 0.49196 0.76979 0.0
Co257 Co 0.47521 0.49727 0.77901 0.0
O258 O 0.45048 0.47306 0.78543 0.0
C259 C 0.46766 0.51797 0.73404 0.0
C260 C 0.42444 0.55676 0.76906 0.0
C261 C 0.43042 0.47399 0.7776 0.0
O262 O 0.4509 0.52517 0.74201 0.0
O263 O 0.47995 0.50732 0.74658 0.0
O264 O 0.43483 0.52686 0.80909 0.0
O265 O 0.46622 0.52365 0.79501 0.0
Co266 Co 0.69485 0.05484 0.75845 0.0
O267 O 0.68822 0.02293 0.75249 0.0
O268 O 0.72146 0.04487 0.75017 0.0
C269 C 0.67918 0.05639 0.79217 0.0
O270 O 0.70658 0.08864 0.76457 0.0
Co271 Co 0.65399 0.07926 0.759 0.0
O272 O 0.67803 0.10502 0.77452 0.0
C273 C 0.66426 0.0549 0.71476 0.0
C274 C 0.70903 0.02464 0.74923 0.0
C275 C 0.69879 0.10569 0.77309 0.0
O276 O 0.68447 0.05611 0.72409 0.0
O277 O 0.649 0.06091 0.72632 0.0
O278 O 0.69971 0.05346 0.79309 0.0
O279 O 0.66866 0.05641 0.77104 0.0
Co280 Co 0.77956 0.68494 0.01584 0.0
O281 O 0.81215 0.69118 0.01934 0.0
O282 O 0.79056 0.65886 0.0249 0.0
C283 C 0.77629 0.69874 0.97917 0.0
O284 O 0.7462 0.66993 0.01329 0.0
Co285 Co 0.75003 0.71913 0.0125 0.0
O286 O 0.72349 0.69377 0.00554 0.0
C287 C 0.77212 0.71461 0.06092 0.0
C288 C 0.81053 0.67033 0.02383 0.0
C289 C 0.72638 0.674 0.00883 0.0
O290 O 0.78017 0.69798 0.05131 0.0
O291 O 0.76067 0.72584 0.04818 0.0
O292 O 0.77861 0.67805 0.98074 0.0
O293 O 0.77612 0.71081 0.99968 0.0
Co294 Co 0.89925 0.53274 0.82288 0.0
O295 O 0.90296 0.5649 0.82605 0.0
O296 O 0.87148 0.5397 0.81107 0.0
C297 C 0.9159 0.53132 0.85939 0.0
O298 O 0.88872 0.49903 0.81778 0.0
Co299 Co 0.93915 0.50759 0.82682 0.0
O300 O 0.9158 0.48146 0.83138 0.0
C301 C 0.9249 0.52455 0.78126 0.0
C302 C 0.88181 0.56071 0.81732 0.0
C303 C 0.89546 0.48138 0.82367 0.0
O304 O 0.90877 0.532 0.78993 0.0
O305 O 0.93895 0.51533 0.79318 0.0
O306 O 0.89507 0.53337 0.85663 0.0
O307 O 0.92633 0.53206 0.84064 0.0
Co308 Co 0.80635 0.44282 0.4941 0.0
O309 O 0.77477 0.43921 0.48994 0.0
O310 O 0.79955 0.47156 0.504 0.0
C311 C 0.8078 0.42381 0.4588 0.0
O312 O 0.83982 0.45248 0.50007 0.0
Co313 Co 0.82886 0.40044 0.49362 0.0
O314 O 0.85608 0.42294 0.49055 0.0
C315 C 0.81042 0.41759 0.53699 0.0
C316 C 0.77887 0.46067 0.49806 0.0
C317 C 0.85704 0.44403 0.49669 0.0
O318 O 0.80597 0.43491 0.52768 0.0
O319 O 0.8182 0.40172 0.52602 0.0
O320 O 0.80667 0.44514 0.45994 0.0
O321 O 0.80639 0.41463 0.47837 0.0
Co322 Co 0.65018 0.55627 0.30349 0.0
O323 O 0.64306 0.52332 0.29995 0.0
O324 O 0.67551 0.54425 0.29436 0.0
C325 C 0.63616 0.56017 0.33992 0.0
O326 O 0.66588 0.58976 0.30608 0.0
Co327 Co 0.617 0.58697 0.30568 0.0
O328 O 0.64221 0.61355 0.30836 0.0
C329 C 0.61966 0.5617 0.25849 0.0
C330 C 0.66344 0.52429 0.295 0.0
C331 C 0.66192 0.60997 0.30745 0.0
O332 O 0.63759 0.55583 0.26794 0.0
O333 O 0.60795 0.57244 0.27125 0.0
O334 O 0.65647 0.55713 0.33871 0.0
O335 O 0.62467 0.56059 0.31922 0.0
C336 C 1.00142 0.97809 0.99039 0.0
C337 C 0.9818 0.95492 0.01747 0.0
C338 C 0.99475 0.97567 0.0131 0.0
C339 C 0.97593 0.93653 0.99893 0.0
C340 C 0.9951 0.95968 0.97163 0.0
C341 C 0.98255 0.93891 0.9761 0.0
N342 N 1.01277 0.99873 0.98622 0.0
C343 C 0.01745 1.00212 0.96345 0.0
C344 C 1.0008 0.96291 0.94862 0.0
C345 C 1.01192 0.98424 0.94451 0.0
Gd346 Gd 0.07675 0.05672 0.05173 0.0
Gd347 Gd 0.01705 0.0281 0.01856 0.0
N348 N 1.00032 0.99383 0.03071 0.0
C349 C 0.97455 0.95346 0.04017 0.0
C350 C 0.99246 0.9928 0.05247 0.0
C351 C 0.97979 0.97254 0.05769 0.0
H352 H 0.99546 1.0077 0.06556 0.0
H353 H 0.97377 0.97177 0.07507 0.0
H354 H 0.09616 0.07597 1.00224 0.0
H355 H 0.02434 0.01878 0.95928 0.0
H356 H 0.11676 0.11152 0.99123 0.0
H357 H 0.9645 0.93785 0.04417 0.0
H358 H 0.96591 0.92052 1.00194 0.0
H359 H 0.06611 0.06904 0.10952 0.0
H360 H 0.99609 0.94924 0.93373 0.0
H361 H 1.01562 0.98711 0.92654 0.0
H362 H 0.12791 0.16385 0.06389 0.0
H363 H 0.97747 0.92468 0.96184 0.0
H364 H 0.09675 0.13838 0.13298 0.0
H365 H 0.07527 0.1017 0.14114 0.0
N366 N 0.07988 0.08728 0.08236 0.0
C367 C 0.09209 0.10729 0.07758 0.0
C368 C 0.07398 0.08517 0.10493 0.0
C369 C 0.09199 0.12425 0.1186 0.0
C370 C 0.07974 0.10361 0.12323 0.0
C371 C 0.09843 0.12629 0.09565 0.0
H372 H 0.11654 0.16121 0.10427 0.0
N373 N 0.0928 0.09021 0.03749 0.0
C374 C 0.09889 0.10872 0.05472 0.0
C375 C 0.11786 0.13026 0.02633 0.0
C376 C 0.11169 0.12923 0.04953 0.0
C377 C 0.09942 0.09095 0.01514 0.0
C378 C 0.11164 0.11105 0.00906 0.0
O379 O 0.03551 1.00166 0.03494 0.0
O380 O 0.07086 0.01842 0.05503 0.0
O381 O 0.11074 0.05492 0.04586 0.0
O382 O 0.10245 0.06037 0.08226 0.0
O383 O 0.01975 0.04706 0.05633 0.0
O384 O 0.05226 0.04067 0.07539 0.0
O385 O 0.05552 0.08287 0.03953 0.0
O386 O 0.02717 0.06454 0.00926 0.0
O387 O 0.98619 0.03625 0.02878 0.0
O388 O 0.98797 0.02348 0.99158 0.0
O389 O 0.07539 0.03818 0.01386 0.0
O390 O 0.04202 0.04286 0.99463 0.0
C391 C 0.05474 1.00019 0.04762 0.0
C392 C 0.03142 0.04296 0.07579 0.0
C393 C 0.13075 0.03981 0.07632 0.0
C394 C 0.15744 0.01641 0.06708 0.0
C395 C 0.14307 0.01642 0.1056 0.0
C396 C 0.13017 0.03208 0.09906 0.0
C397 C 0.15663 1.00849 0.08962 0.0
C398 C 0.14455 0.03202 0.06056 0.0
C399 C 0.11766 0.0564 0.06891 0.0
C400 C 0.11794 0.14805 0.06754 0.0
C401 C 0.1114 0.14656 0.09052 0.0
H402 H 0.12761 0.14572 0.02164 0.0
C403 C 0.03965 0.08354 0.02156 0.0
C404 C 0.06276 0.04028 0.99407 0.0
C405 C 0.96334 0.04831 0.99857 0.0
C406 C 0.93474 0.0698 0.00609 0.0
C407 C 0.95336 0.07362 0.97035 0.0
C408 C 0.96613 0.05788 0.97708 0.0
C409 C 0.93773 0.07969 0.98487 0.0
C410 C 0.94761 0.05426 0.01283 0.0
C411 C 0.97601 0.03172 0.00665 0.0
H412 H 0.14267 1.01056 0.12312 0.0
H413 H 0.11986 0.03812 0.11178 0.0
H414 H 0.16682 0.9966 0.09503 0.0
H415 H 0.14529 0.03806 0.04309 0.0
H416 H 0.95552 0.08104 0.95384 0.0
H417 H 0.97818 0.05337 0.96565 0.0
H418 H 0.92773 0.09169 0.97935 0.0
H419 H 0.94541 0.04677 0.02936 0.0
C420 C 0.32741 0.75258 0.22519 0.0
C421 C 0.2959 0.73435 0.19521 0.0
C422 C 0.30627 0.75232 0.21349 0.0
C423 C 0.30684 0.71643 0.18952 0.0
C424 C 0.33882 0.73503 0.21902 0.0
C425 C 0.32831 0.71682 0.20132 0.0
N426 N 0.33677 0.76997 0.24279 0.0
C427 C 0.35785 0.77139 0.2544 0.0
C428 C 0.36041 0.73629 0.23094 0.0
C429 C 0.37005 0.75468 0.24856 0.0
Gd430 Gd 0.27479 0.79317 0.31425 0.0
Gd431 Gd 0.3142 0.79532 0.25459 0.0
N432 N 0.2961 0.76986 0.21967 0.0
C433 C 0.27497 0.73505 0.18296 0.0
C434 C 0.2765 0.7714 0.20628 0.0
C435 C 0.26547 0.7539 0.18819 0.0
H436 H 0.26916 0.78607 0.20881 0.0
H437 H 0.24969 0.75507 0.17815 0.0
H438 H 0.32222 0.80832 0.35634 0.0
H439 H 0.36522 0.78533 0.26835 0.0
H440 H 0.33824 0.83826 0.3894 0.0
H441 H 0.26638 0.72153 0.16893 0.0
H442 H 0.29899 0.70237 0.17574 0.0
H443 H 0.22282 0.80095 0.29802 0.0
H444 H 0.36977 0.7232 0.22666 0.0
H445 H 0.38675 0.75585 0.25785 0.0
H446 H 0.28078 0.88116 0.39779 0.0
H447 H 0.33668 0.70303 0.19655 0.0
H448 H 0.21204 0.85796 0.34392 0.0
H449 H 0.19851 0.8273 0.30974 0.0
N450 N 0.24985 0.81637 0.32539 0.0
C451 C 0.25733 0.83265 0.34474 0.0
C452 C 0.22895 0.81424 0.31299 0.0
C453 C 0.22272 0.8463 0.33902 0.0
C454 C 0.21506 0.82907 0.31965 0.0
C455 C 0.24409 0.84832 0.35179 0.0
H456 H 0.24284 0.87803 0.37651 0.0
N457 N 0.29131 0.81933 0.34916 0.0
C458 C 0.27864 0.83421 0.357 0.0
C459 C 0.30909 0.85332 0.38783 0.0
C460 C 0.28734 0.85177 0.37629 0.0
C461 C 0.31225 0.82038 0.36115 0.0
C462 C 0.32149 0.83741 0.38037 0.0
O463 O 0.30531 0.76099 0.26619 0.0
O464 O 0.2756 0.77211 0.27921 0.0
O465 O 0.27542 0.76574 0.3358 0.0
O466 O 0.2436 0.77295 0.3214 0.0
O467 O 0.27895 0.80419 0.24736 0.0
O468 O 0.25515 0.79453 0.27692 0.0
O469 O 0.2887 0.82961 0.31123 0.0
O470 O 0.30165 0.80847 0.28603 0.0
O471 O 0.31527 0.82473 0.23601 0.0
O472 O 0.34633 0.81677 0.25125 0.0
O473 O 0.31054 0.78457 0.32046 0.0
O474 O 0.33459 0.79699 0.29199 0.0
C475 C 0.28793 0.75688 0.27762 0.0
C476 C 0.25896 0.80136 0.25555 0.0
C477 C 0.24613 0.75994 0.35948 0.0
C478 C 0.25091 0.74659 0.39834 0.0
C479 C 0.22283 0.76906 0.38995 0.0
C480 C 0.22894 0.77051 0.36683 0.0
C481 C 0.23391 0.75729 0.40581 0.0
C482 C 0.25676 0.74774 0.3752 0.0
C483 C 0.25373 0.76159 0.33583 0.0
C484 C 0.27428 0.86749 0.38317 0.0
C485 C 0.25269 0.86571 0.37103 0.0
H486 H 0.31641 0.86665 0.40257 0.0
C487 C 0.30099 0.8289 0.29436 0.0
C488 C 0.33084 0.78925 0.31294 0.0
C489 C 0.34597 0.83346 0.21483 0.0
C490 C 0.34061 0.8458 0.17525 0.0
C491 C 0.3735 0.83059 0.18725 0.0
C492 C 0.36618 0.82748 0.2096 0.0
C493 C 0.36067 0.83949 0.17001 0.0
C494 C 0.33358 0.8431 0.19775 0.0
C495 C 0.33705 0.82937 0.23754 0.0
H496 H 0.20956 0.77711 0.3956 0.0
H497 H 0.22033 0.77995 0.35488 0.0
H498 H 0.22903 0.75621 0.42369 0.0
H499 H 0.26994 0.73941 0.36959 0.0
H500 H 0.38903 0.82591 0.1832 0.0
H501 H 0.37619 0.82023 0.22259 0.0
H502 H 0.36649 0.84166 0.1527 0.0
H503 H 0.31801 0.8479 0.20165 0.0
C504 C 0.59547 0.08833 0.49483 0.0
C505 C 0.62378 0.11275 0.52535 0.0
C506 C 0.60687 0.09298 0.51844 0.0
C507 C 0.62858 0.1282 0.50878 0.0
C508 C 0.60072 0.10379 0.47812 0.0
C509 C 0.61701 0.12381 0.48533 0.0
N510 N 0.58019 0.06841 0.48787 0.0
C511 C 0.57103 0.06243 0.46414 0.0
C512 C 0.59001 0.0984 0.45433 0.0
C513 C 0.57531 0.07754 0.44728 0.0
Gd514 Gd 0.51465 0.03714 0.54884 0.0
Gd515 Gd 0.57643 0.04482 0.51852 0.0
N516 N 0.60157 0.0782 0.53463 0.0
C517 C 0.63542 0.11643 0.54882 0.0
C518 C 0.61333 0.08125 0.55721 0.0
C519 C 0.63021 0.10057 0.56477 0.0
H520 H 0.60979 0.06865 0.56922 0.0
H521 H 0.63934 0.10312 0.5828 0.0
H522 H 0.4793 0.01343 0.4989 0.0
H523 H 0.56092 0.04582 0.45759 0.0
H524 H 0.45116 0.9783 0.48492 0.0
H525 H 0.64851 0.1314 0.55476 0.0
H526 H 0.64137 0.14355 0.51388 0.0
H527 H 0.52887 0.03718 0.60968 0.0
H528 H 0.59358 0.10987 0.44104 0.0
H529 H 0.5677 0.07283 0.42865 0.0
H530 H 0.44874 0.93874 0.55436 0.0
H531 H 0.62115 0.13582 0.47269 0.0
H532 H 0.4947 0.97425 0.62774 0.0
H533 H 0.52079 1.01126 0.6396 0.0
N534 N 0.50973 0.01407 0.57982 0.0
C535 C 0.49421 0.99431 0.57317 0.0
C536 C 0.51855 0.02056 0.60357 0.0
C537 C 0.49874 0.98527 0.61415 0.0
C538 C 0.51356 1.00609 0.6209 0.0
C539 C 0.48853 0.97931 0.59021 0.0
H540 H 0.4679 0.94751 0.596 0.0
N541 N 0.48815 1.00422 0.53337 0.0
C542 C 0.483 0.98942 0.54955 0.0
C543 C 0.45523 0.96517 0.51896 0.0
C544 C 0.4664 0.96938 0.54262 0.0
C545 C 0.47645 1.0008 0.51077 0.0
C546 C 0.46016 0.98106 0.50303 0.0
O547 O 0.56834 0.07819 0.53827 0.0
O548 O 0.5341 0.0741 0.55441 0.0
O549 O 0.48444 0.05004 0.53568 0.0
O550 O 0.49586 0.05076 0.57434 0.0
O551 O 0.56303 0.02922 0.54922 0.0
O552 O 0.5454 0.04638 0.57576 0.0
O553 O 0.52277 1.0033 0.5304 0.0
O554 O 0.55568 1.00791 0.51126 0.0
O555 O 0.60472 0.03102 0.53344 0.0
O556 O 0.6008 0.03667 0.49592 0.0
O557 O 0.5287 0.05125 0.51743 0.0
O558 O 0.54635 0.03377 0.49106 0.0
C559 C 0.55303 0.08678 0.54972 0.0
C560 C 0.56371 0.04044 0.57028 0.0
C561 C 0.46226 0.06483 0.56605 0.0
C562 C 0.43347 0.0874 0.56088 0.0
C563 C 0.44074 0.07271 0.59881 0.0
C564 C 0.45721 0.06259 0.58967 0.0
C565 C 0.429 0.08514 0.58456 0.0
C566 C 0.4501 0.07715 0.55146 0.0
C567 C 0.4812 0.05539 0.55806 0.0
C568 C 0.46136 0.95423 0.55943 0.0
C569 C 0.47234 0.95919 0.58313 0.0
H570 H 0.44247 0.94994 0.51297 0.0
C571 C 0.53741 0.99497 0.51756 0.0
C572 C 0.5279 0.03925 0.49665 0.0
C573 C 0.61946 1.0074 0.50522 0.0
C574 C 0.64744 0.98375 0.5086 0.0
C575 C 0.61641 0.97387 0.47604 0.0
C576 C 0.60813 0.99274 0.4846 0.0
C577 C 0.63603 0.96944 0.48788 0.0
C578 C 0.63912 1.00274 0.5173 0.0
C579 C 0.6123 0.02872 0.51269 0.0
H580 H 0.43713 0.07098 0.61705 0.0
H581 H 0.46618 0.05315 0.60129 0.0
H582 H 0.41621 0.09292 0.59197 0.0
H583 H 0.45376 0.07907 0.53325 0.0
H584 H 0.60777 0.96285 0.45996 0.0
H585 H 0.59315 0.99612 0.47477 0.0
H586 H 0.64244 0.95492 0.48078 0.0
H587 H 0.64822 0.01413 0.53297 0.0
C588 C 0.24468 0.3156 0.73336 0.0
C589 C 0.21825 0.28223 0.7123 0.0
C590 C 0.23469 0.29267 0.7319 0.0
C591 C 0.21232 0.29494 0.69401 0.0
C592 C 0.23868 0.32837 0.715 0.0
C593 C 0.22257 0.31789 0.6953 0.0
N594 N 0.26015 0.3254 0.75271 0.0
C595 C 0.2696 0.34803 0.75522 0.0
C596 C 0.24893 0.35137 0.71706 0.0
C597 C 0.26436 0.36126 0.73731 0.0
Gd598 Gd 0.32504 0.27934 0.78794 0.0
Gd599 Gd 0.2664 0.30148 0.78184 0.0
N600 N 0.24148 0.28044 0.74927 0.0
C601 C 0.20863 0.25915 0.71142 0.0
C602 C 0.23184 0.25813 0.74881 0.0
C603 C 0.21543 0.24708 0.72978 0.0
H604 H 0.23647 0.24897 0.76327 0.0
H605 H 0.20792 0.22931 0.72938 0.0
H606 H 0.35841 0.33057 0.8021 0.0
H607 H 0.28074 0.35621 0.77125 0.0
H608 H 0.3872 0.35146 0.8352 0.0
H609 H 0.19599 0.2505 0.69664 0.0
H610 H 0.19989 0.28713 0.67871 0.0
H611 H 0.31264 0.2251 0.79997 0.0
H612 H 0.24479 0.36173 0.70331 0.0
H613 H 0.27197 0.37915 0.73932 0.0
H614 H 0.39411 0.2966 0.88995 0.0
H615 H 0.21782 0.32745 0.68102 0.0
H616 H 0.34917 0.22161 0.86827 0.0
H617 H 0.32196 0.20309 0.83263 0.0
N618 N 0.33281 0.25636 0.81768 0.0
C619 C 0.34848 0.26665 0.83666 0.0
C620 C 0.32371 0.23369 0.81584 0.0
C621 C 0.34476 0.23152 0.85418 0.0
C622 C 0.32932 0.22103 0.83415 0.0
C623 C 0.35479 0.25451 0.85548 0.0
H624 H 0.37604 0.25654 0.88947 0.0
N625 N 0.35185 0.30072 0.81888 0.0
C626 C 0.3586 0.28932 0.83703 0.0
C627 C 0.38552 0.32303 0.85552 0.0
C628 C 0.37543 0.30029 0.85605 0.0
C629 C 0.36239 0.32244 0.81764 0.0
C630 C 0.3791 0.33408 0.83611 0.0
O631 O 0.27871 0.2885 0.74644 0.0
O632 O 0.29976 0.26219 0.75621 0.0
O633 O 0.35192 0.28899 0.76518 0.0
O634 O 0.34587 0.25587 0.77825 0.0
O635 O 0.26971 0.27122 0.80143 0.0
O636 O 0.29318 0.25179 0.78271 0.0
O637 O 0.31476 0.29404 0.82378 0.0
O638 O 0.28952 0.31747 0.81573 0.0
O639 O 0.23664 0.29033 0.8003 0.0
O640 O 0.24567 0.32504 0.79154 0.0
O641 O 0.32227 0.31109 0.7702 0.0
O642 O 0.29791 0.32882 0.78977 0.0
C643 C 0.2895 0.27222 0.74011 0.0
C644 C 0.275 0.25204 0.7933 0.0
C645 C 0.37613 0.26192 0.75378 0.0
C646 C 0.40759 0.26778 0.7299 0.0
C647 C 0.39644 0.23171 0.74494 0.0
C648 C 0.37954 0.23975 0.75566 0.0
C649 C 0.41035 0.24557 0.73219 0.0
C650 C 0.39031 0.27606 0.74068 0.0
C651 C 0.35778 0.26938 0.76585 0.0
C652 C 0.38143 0.28837 0.87503 0.0
C653 C 0.3711 0.26556 0.87478 0.0
H654 H 0.39844 0.33209 0.86983 0.0
C655 C 0.30277 0.30907 0.83082 0.0
C656 C 0.31621 0.32958 0.77938 0.0
C657 C 0.21187 0.31724 0.81039 0.0
C658 C 0.18084 0.31268 0.83494 0.0
C659 C 0.18715 0.34437 0.81167 0.0
C660 C 0.20537 0.33688 0.8032 0.0
C661 C 0.17502 0.33243 0.82744 0.0
C662 C 0.19936 0.30493 0.82633 0.0
C663 C 0.23171 0.31044 0.80086 0.0
H664 H 0.39885 0.21464 0.74664 0.0
H665 H 0.36912 0.22845 0.76553 0.0
H666 H 0.42354 0.23898 0.72419 0.0
H667 H 0.38817 0.29325 0.73915 0.0
H668 H 0.18239 0.35952 0.80594 0.0
H669 H 0.21437 0.34657 0.79086 0.0
H670 H 0.16088 0.33858 0.83377 0.0
H671 H 0.20398 0.28969 0.83201 0.0
C672 C 0.02385 0.09248 0.58492 0.0
C673 C 0.05846 0.11575 0.60675 0.0
C674 C 0.04683 0.10086 0.58635 0.0
C675 C 0.04672 0.12205 0.62567 0.0
C676 C 1.01203 0.0988 0.60387 0.0
C677 C 0.02359 0.11361 0.62423 0.0
N678 N 1.0131 0.07799 0.56511 0.0
C679 C 0.99053 0.0696 0.56285 0.0
C680 C 0.98892 0.09003 0.60182 0.0
C681 C 0.97813 0.07542 0.58119 0.0
Gd682 Gd 0.05705 1.0111 0.52991 0.0
Gd683 Gd 0.03548 0.06976 0.53541 0.0
N684 N 0.05789 0.09404 0.56801 0.0
C685 C 0.08154 0.12392 0.60751 0.0
C686 C 0.08015 0.10269 0.5682 0.0
C687 C 0.09239 0.1175 0.58805 0.0
H688 H 0.08848 0.09856 0.55298 0.0
H689 H 0.11013 0.12413 0.58823 0.0
H690 H 1.00456 0.98067 0.51341 0.0
H691 H 0.98191 0.05879 0.5467 0.0
H692 H 0.98306 0.9541 0.47885 0.0
H693 H 0.09107 0.13542 0.62286 0.0
H694 H 0.05538 0.13348 0.64148 0.0
H695 H 0.11065 0.02197 0.51848 0.0
H696 H 0.97925 0.09451 0.61598 0.0
H697 H 0.96023 0.06876 0.57933 0.0
H698 H 0.03774 0.94439 0.42562 0.0
H699 H 1.01478 0.11864 0.63896 0.0
H700 H 0.11348 0.985 0.44996 0.0
H701 H 0.13233 1.01165 0.48604 0.0
N702 N 0.07952 1.00225 0.50046 0.0
C703 C 0.06892 0.98715 0.48106 0.0
C704 C 0.10206 1.01084 0.50254 0.0
C705 C 0.10379 0.98967 0.46403 0.0
C706 C 0.11448 1.00478 0.48433 0.0
C707 C 0.08077 0.98056 0.46224 0.0
H708 H 0.07816 0.95993 0.42762 0.0
N709 N 0.03495 0.98557 0.49803 0.0
C710 C 0.04606 0.97836 0.47992 0.0
C711 C 1.01157 0.9543 0.45945 0.0
C712 C 0.03457 0.96278 0.45996 0.0
C713 C 1.01283 0.97648 0.49818 0.0
C714 C 1.00071 0.96102 0.47877 0.0
O715 O 0.04616 0.05597 0.57059 0.0
O716 O 0.07407 0.03748 0.5612 0.0
O717 O 0.0473 0.98367 0.5524 0.0
O718 O 0.08021 0.98998 0.53989 0.0
O719 O 0.06616 0.06764 0.51651 0.0
O720 O 0.08444 0.04308 0.53535 0.0
O721 O 0.04521 0.02327 0.49397 0.0
O722 O 0.0189 0.04408 0.50352 0.0
O723 O 0.0458 0.09847 0.5149 0.0
O724 O 1.01208 0.09069 0.52535 0.0
O725 O 0.02532 1.01271 0.54756 0.0
O726 O 1.00812 0.03805 0.52858 0.0
C727 C 0.06375 0.04732 0.57727 0.0
C728 C 0.08471 0.0608 0.52352 0.0
C729 C 0.074 0.95921 0.5643 0.0
C730 C 0.06823 0.9277 0.58874 0.0
C731 C 0.10406 0.93915 0.57418 0.0
C732 C 0.09605 0.956 0.56298 0.0
C733 C 0.0903 0.92512 0.58694 0.0
C734 C 0.05994 0.94485 0.57734 0.0
C735 C 0.06674 0.97784 0.5521 0.0
C736 C 0.04631 0.95627 0.44115 0.0
C737 C 0.06934 0.96514 0.44228 0.0
H738 H 1.00213 0.94233 0.44442 0.0
C739 C 0.02874 0.0336 0.48742 0.0
C740 C 1.00715 0.02006 0.54002 0.0
C741 C 0.01919 0.12279 0.50281 0.0
C742 C 0.02541 0.15417 0.4783 0.0
C743 C 0.98985 0.14394 0.49378 0.0
C744 C 0.99749 0.12677 0.50477 0.0
C745 C 1.00365 0.1575 0.48063 0.0
C746 C 0.0333 0.13673 0.48947 0.0
C747 C 0.02604 0.10368 0.51437 0.0
H748 H 0.12107 0.93696 0.57298 0.0
H749 H 0.10733 0.96662 0.55329 0.0
H750 H 0.09694 0.91211 0.5955 0.0
H751 H 0.04292 0.94697 0.57866 0.0
H752 H 0.9731 0.14673 0.49546 0.0
H753 H 0.98622 0.1165 0.51479 0.0
H754 H 0.99734 0.1708 0.47228 0.0
H755 H 0.05008 0.13402 0.48772 0.0
C756 C 0.25113 0.74119 0.82122 0.0
C757 C 0.2283 0.7111 0.79126 0.0
C758 C 0.24751 0.7286 0.79816 0.0
C759 C 0.21265 0.70648 0.80747 0.0
C760 C 0.23552 0.73607 0.83762 0.0
C761 C 0.21624 0.7189 0.83053 0.0
N762 N 0.27005 0.75776 0.8279 0.0
C763 C 0.27499 0.76836 0.85121 0.0
C764 C 0.23993 0.74797 0.86095 0.0
C765 C 0.25985 0.76396 0.86783 0.0
Gd766 Gd 0.29843 0.8243 0.76627 0.0
Gd767 Gd 0.29385 0.76187 0.79776 0.0
N768 N 0.26262 0.73354 0.78241 0.0
C769 C 0.22532 0.69872 0.76818 0.0
C770 C 0.26044 0.72076 0.76046 0.0
C771 C 0.24157 0.70344 0.7528 0.0
H772 H 0.27352 0.72344 0.7492 0.0
H773 H 0.23976 0.69352 0.73521 0.0
H774 H 0.31864 0.86363 0.81386 0.0
H775 H 0.2908 0.77978 0.85767 0.0
H776 H 0.35271 0.89331 0.82769 0.0
H777 H 0.21075 0.68521 0.76223 0.0
H778 H 0.19776 0.69317 0.80241 0.0
H779 H 0.30118 0.80657 0.70618 0.0
H780 H 0.22837 0.74446 0.87403 0.0
H781 H 0.26378 0.77262 0.88614 0.0
H782 H 0.39635 0.89015 0.76196 0.0
H783 H 0.20411 0.71487 0.84292 0.0
H784 H 0.36503 0.8389 0.69052 0.0
H785 H 0.32866 0.81233 0.67802 0.0
N786 N 0.32259 0.82748 0.73629 0.0
C787 C 0.34198 0.84342 0.74306 0.0
C788 C 0.31739 0.81716 0.71287 0.0
C789 C 0.35327 0.83592 0.70348 0.0
C790 C 0.3328 0.82082 0.69639 0.0
C791 C 0.35789 0.84781 0.72682 0.0
H792 H 0.38999 0.86782 0.72177 0.0
N793 N 0.33009 0.85226 0.78136 0.0
C794 C 0.34562 0.85635 0.76589 0.0
C795 C 0.36782 0.88661 0.79544 0.0
C796 C 0.36513 0.87349 0.77279 0.0
C797 C 0.33202 0.86574 0.80285 0.0
C798 C 0.35107 0.88287 0.81043 0.0
O799 O 0.25929 0.76862 0.77971 0.0
O800 O 0.26244 0.80349 0.76377 0.0
O801 O 0.28425 0.85399 0.77865 0.0
O802 O 0.28556 0.84334 0.74019 0.0
O803 O 0.30597 0.77712 0.76638 0.0
O804 O 0.28769 0.79326 0.73947 0.0
O805 O 0.3323 0.81829 0.78619 0.0
O806 O 0.33009 0.78199 0.79873 0.0
O807 O 0.30787 0.73205 0.78552 0.0
O808 O 0.30819 0.74391 0.82404 0.0
O809 O 0.28619 0.81038 0.7985 0.0
O810 O 0.30471 0.79293 0.82437 0.0
C811 C 0.25025 0.78423 0.76887 0.0
C812 C 0.29365 0.77508 0.74579 0.0
C813 C 0.27081 0.87692 0.74832 0.0
C814 C 0.24761 0.90522 0.75317 0.0
C815 C 0.26495 0.90045 0.71664 0.0
C816 C 0.27458 0.88341 0.72554 0.0
C817 C 0.25142 0.91122 0.73029 0.0
C818 C 0.25749 0.88815 0.76237 0.0
C819 C 0.28012 0.85777 0.75627 0.0
C820 C 0.3812 0.87718 0.75688 0.0
C821 C 0.3776 0.8644 0.73401 0.0
H822 H 0.38257 0.89992 0.80136 0.0
C823 C 0.34175 0.80218 0.79534 0.0
C824 C 0.2992 0.81152 0.8186 0.0
C825 C 0.32474 0.71125 0.81609 0.0
C826 C 0.34454 0.68021 0.80886 0.0
C827 C 0.3385 0.69297 0.8496 0.0
C828 C 0.32743 0.70914 0.84093 0.0
C829 C 0.34698 0.67857 0.8337 0.0
C830 C 0.33345 0.69668 0.79996 0.0
C831 C 0.31357 0.72934 0.80802 0.0
H832 H 0.26786 0.90522 0.69904 0.0
H833 H 0.28489 0.87517 0.71443 0.0
H834 H 0.24393 0.92436 0.72304 0.0
H835 H 0.25437 0.88332 0.77992 0.0
H836 H 0.34051 0.69159 0.86875 0.0
H837 H 0.32105 0.72009 0.85384 0.0
H838 H 0.35553 0.66606 0.84081 0.0
H839 H 0.33165 0.69807 0.78079 0.0
C840 C 0.5897 1.00589 0.093 0.0
C841 C 0.6092 0.03683 0.12366 0.0
C842 C 0.59164 0.0278 0.10466 0.0
C843 C 0.62453 0.02352 0.13093 0.0
C844 C 0.60516 0.99253 0.10025 0.0
C845 C 0.62251 1.00143 0.11928 0.0
N846 N 0.57308 0.99785 0.07421 0.0
C847 C 0.57063 0.9764 0.06239 0.0
C848 C 0.60286 0.97064 0.088 0.0
C849 C 0.58548 0.96253 0.06906 0.0
Gd850 Gd 0.54572 0.06047 1.00295 0.0
Gd851 Gd 0.54912 0.02249 0.06424 0.0
N852 N 0.57701 0.04063 0.09664 0.0
C853 C 0.61106 0.0591 0.13463 0.0
C854 C 0.57855 0.06224 0.10777 0.0
C855 C 0.5956 0.0718 0.12671 0.0
H856 H 0.56683 0.07243 0.10246 0.0
H857 H 0.59678 0.089 0.13521 0.0
H858 H 0.54056 0.02089 0.95268 0.0
H859 H 0.557 0.96974 0.04801 0.0
H860 H 0.51068 1.00131 0.92042 0.0
H861 H 0.62434 0.06665 0.14923 0.0
H862 H 0.63813 0.03021 0.14545 0.0
H863 H 0.5348 0.11147 0.0181 0.0
H864 H 0.6144 0.95987 0.09305 0.0
H865 H 0.58348 0.94555 0.05961 0.0
H866 H 0.45354 0.04543 0.92442 0.0
H867 H 0.63455 0.99142 0.12502 0.0
H868 H 0.47198 0.11517 0.97865 0.0
H869 H 0.50477 0.13263 0.00913 0.0
N870 N 0.5193 0.08257 0.99298 0.0
C871 C 0.50197 0.07311 0.97558 0.0
C872 C 0.52062 0.10378 0.00478 0.0
C873 C 0.48516 0.10588 0.98251 0.0
C874 C 0.50364 0.11579 0.99971 0.0
C875 C 0.48421 0.08431 0.97007 0.0
H876 H 0.45246 0.08202 0.94772 0.0
N877 N 0.52117 0.0437 0.96715 0.0
C878 C 0.50273 0.05273 0.96247 0.0
C879 C 0.48803 0.02336 0.92886 0.0
C880 C 0.48556 0.04275 0.94339 0.0
C881 C 0.52478 0.02643 0.95121 0.0
C882 C 0.50803 0.01555 0.93238 0.0
O883 O 0.58406 0.03768 0.05885 0.0
O884 O 0.56082 0.04728 0.03291 0.0
O885 O 0.5744 0.06206 0.98368 0.0
O886 O 0.56643 0.09316 0.99976 0.0
O887 O 0.53902 0.05773 0.0698 0.0
O888 O 0.54978 0.08144 0.04037 0.0
O889 O 0.51401 0.05253 0.01886 0.0
O890 O 0.52374 0.02126 0.03152 0.0
O891 O 0.52722 0.02452 0.09156 0.0
O892 O 0.53052 0.99113 0.07435 0.0
O893 O 0.54975 0.02321 0.99431 0.0
O894 O 0.5499 1.00159 0.02724 0.0
C895 C 0.5816 0.04846 0.04079 0.0
C896 C 0.54262 0.07791 0.06155 0.0
C897 C 0.58039 0.09301 0.96217 0.0
C898 C 0.59235 0.08831 0.92268 0.0
C899 C 0.5698 0.1162 0.93191 0.0
C900 C 0.56928 0.11008 0.95517 0.0
C901 C 0.58107 0.10515 0.91554 0.0
C902 C 0.59232 0.08264 0.94602 0.0
C903 C 0.57836 0.08412 0.98519 0.0
C904 C 0.46704 0.05301 0.93877 0.0
C905 C 0.46644 0.07386 0.952 0.0
H906 H 0.47518 0.01505 0.91414 0.0
C907 C 0.5094 0.03473 0.03009 0.0
C908 C 0.55092 1.00407 0.00394 0.0
C909 C 0.5056 0.99172 0.10516 0.0
C910 C 0.48365 0.99534 0.13806 0.0
C911 C 0.4838 0.95803 0.11757 0.0
C912 C 0.49836 0.96799 0.10242 0.0
C913 C 0.47652 0.97166 0.13548 0.0
C914 C 0.49804 1.00532 0.12294 0.0
C915 C 0.5214 1.0025 0.0901 0.0
H916 H 0.56122 0.1293 0.92647 0.0
H917 H 0.5599 0.11836 0.9674 0.0
H918 H 0.58121 0.10988 0.89747 0.0
H919 H 0.6009 0.06942 0.9513 0.0
H920 H 0.47832 0.93975 0.11557 0.0
H921 H 0.50404 0.9572 0.08876 0.0
H922 H 0.46549 0.96379 0.14739 0.0
H923 H 0.50364 0.02366 0.12543 0.0
C924 C 0.35801 0.3379 0.32708 0.0
C925 C 0.37962 0.35803 0.2992 0.0
C926 C 0.3595 0.34475 0.30428 0.0
C927 C 0.39825 0.36422 0.31718 0.0
C928 C 0.37673 0.34434 0.34522 0.0
C929 C 0.39681 0.3574 0.34011 0.0
N930 N 0.33812 0.32578 0.33181 0.0
C931 C 0.3358 0.32027 0.35452 0.0
C932 C 0.37457 0.33802 0.36822 0.0
C933 C 0.35401 0.32601 0.37289 0.0
Gd934 Gd 0.28107 0.26136 0.26656 0.0
Gd935 Gd 0.30811 0.32102 0.30047 0.0
N936 N 0.34121 0.33853 0.28708 0.0
C937 C 0.38033 0.36497 0.27624 0.0
C938 C 0.34155 0.34612 0.26509 0.0
C939 C 0.36117 0.35905 0.25915 0.0
H940 H 0.32655 0.34302 0.25242 0.0
H941 H 0.36135 0.36487 0.24158 0.0
H942 H 0.26081 0.24031 0.31465 0.0
H943 H 0.31978 0.31246 0.3591 0.0
H944 H 0.22544 0.21858 0.32425 0.0
H945 H 0.39546 0.37522 0.27167 0.0
H946 H 0.4138 0.37447 0.31362 0.0
H947 H 0.27077 0.27149 0.2084 0.0
H948 H 0.38851 0.34277 0.38265 0.0
H949 H 0.352 0.32167 0.39084 0.0
H950 H 0.17553 0.20762 0.25018 0.0
H951 H 0.41128 0.36257 0.35388 0.0
H952 H 0.20288 0.23966 0.18222 0.0
H953 H 0.23944 0.26187 0.17554 0.0
N954 N 0.25175 0.25719 0.23468 0.0
C955 C 0.23179 0.24468 0.23868 0.0
C956 C 0.2546 0.26325 0.21227 0.0
C957 C 0.21638 0.24461 0.19711 0.0
C958 C 0.23696 0.25726 0.19329 0.0
C959 C 0.21361 0.23806 0.21992 0.0
H960 H 0.17937 0.21927 0.21001 0.0
N961 N 0.24756 0.24389 0.27912 0.0
C962 C 0.22967 0.23782 0.26142 0.0
C963 C 0.20771 0.2179 0.2888 0.0
C964 C 0.20927 0.22456 0.26583 0.0
C965 C 0.24631 0.23685 0.30128 0.0
C966 C 0.22632 0.22409 0.3066 0.0
O967 O 0.33523 0.30244 0.28598 0.0
O968 O 0.31856 0.26862 0.26217 0.0
O969 O 0.28582 0.22796 0.27304 0.0
O970 O 0.28008 0.23599 0.23576 0.0
O971 O 0.2889 0.31894 0.26288 0.0
O972 O 0.29708 0.287 0.24423 0.0
O973 O 0.25452 0.28242 0.27758 0.0
O974 O 0.27223 0.30918 0.30969 0.0
O975 O 0.3005 0.35266 0.29117 0.0
O976 O 0.31179 0.34956 0.32842 0.0
O977 O 0.29818 0.26214 0.30492 0.0
O978 O 0.29383 0.29581 0.32464 0.0
C979 C 0.33672 0.28396 0.2716 0.0
C980 C 0.2928 0.30725 0.24332 0.0
C981 C 0.28557 0.1982 0.24074 0.0
C982 C 0.30449 0.1672 0.24559 0.0
C983 C 0.28299 0.16866 0.20715 0.0
C984 C 0.27756 0.18894 0.21665 0.0
C985 C 0.29671 0.15791 0.22148 0.0
C986 C 0.29852 0.18698 0.25524 0.0
C987 C 0.28382 0.2211 0.24989 0.0
C988 C 0.19122 0.21802 0.24716 0.0
C989 C 0.1934 0.22468 0.22428 0.0
H990 H 0.19235 0.20767 0.29286 0.0
C991 C 0.25352 0.29728 0.29652 0.0
C992 C 0.29587 0.27461 0.32482 0.0
C993 C 0.2887 0.37607 0.32144 0.0
C994 C 0.26745 0.40471 0.31259 0.0
C995 C 0.27067 0.39358 0.35276 0.0
C996 C 0.28373 0.37816 0.34536 0.0
C997 C 0.26272 0.40709 0.33648 0.0
C998 C 0.28024 0.38921 0.30515 0.0
C999 C 0.30452 0.36237 0.31353 0.0
H1000 H 0.27704 0.1616 0.18852 0.0
H1001 H 0.26772 0.19767 0.20507 0.0
H1002 H 0.30132 0.14249 0.21383 0.0
H1003 H 0.30531 0.19444 0.27365 0.0
H1004 H 0.26706 0.39538 0.37124 0.0
H1005 H 0.29029 0.36832 0.35841 0.0
H1006 H 0.25301 0.41935 0.34247 0.0
H1007 H 0.28437 0.38812 0.28679 0.0
C1008 C 0.52421 0.59359 0.08359 0.0
C1009 C 0.55884 0.6172 0.105 0.0
C1010 C 0.54721 0.60182 0.08494 0.0
C1011 C 0.5471 0.62408 0.12367 0.0
C1012 C 0.51239 0.60049 0.1023 0.0
C1013 C 0.52396 0.61575 0.12233 0.0
N1014 N 0.51348 0.57861 0.06416 0.0
C1015 C 0.4909 0.57028 0.06201 0.0
C1016 C 0.48929 0.59179 0.10038 0.0
C1017 C 0.47849 0.57669 0.08011 0.0
Gd1018 Gd 0.55743 0.51036 0.02979 0.0
Gd1019 Gd 0.53593 0.56916 0.03501 0.0
N1020 N 0.5583 0.59427 0.067 0.0
C1021 C 0.58197 0.62509 0.10578 0.0
C1022 C 0.58061 0.6027 0.06714 0.0
C1023 C 0.59285 0.61796 0.08664 0.0
H1024 H 0.58894 0.5981 0.05211 0.0
H1025 H 0.61063 0.62438 0.08679 0.0
H1026 H 0.50688 0.47693 0.01391 0.0
H1027 H 0.48228 0.55903 0.04615 0.0
H1028 H 0.48583 0.4505 0.97866 0.0
H1029 H 0.59151 0.63689 0.12089 0.0
H1030 H 0.55578 0.63581 0.13926 0.0
H1031 H 0.61133 0.52301 0.01892 0.0
H1032 H 0.47962 0.5967 0.11437 0.0
H1033 H 0.4606 0.57005 0.07835 0.0
H1034 H 0.53998 0.44772 0.92311 0.0
H1035 H 0.51516 0.6212 0.13689 0.0
H1036 H 0.61478 0.49066 0.9483 0.0
H1037 H 0.63318 0.51563 0.98571 0.0
N1038 N 0.58042 0.50357 1.00003 0.0
C1039 C 0.57017 0.48914 0.97997 0.0
C1040 C 0.60288 0.51267 1.00244 0.0
C1041 C 0.60499 0.49407 0.96272 0.0
C1042 C 0.61542 0.50824 0.98377 0.0
C1043 C 0.58215 0.48413 0.9607 0.0
H1044 H 0.57995 0.46536 0.92511 0.0
N1045 N 0.53637 0.48482 0.99744 0.0
C1046 C 0.54756 0.47926 0.97876 0.0
C1047 C 0.51384 0.45397 0.9582 0.0
C1048 C 0.53645 0.46404 0.95838 0.0
C1049 C 0.51481 0.47409 0.99802 0.0
C1050 C 0.50308 0.45877 0.97827 0.0
O1051 O 0.54678 0.5562 0.07069 0.0
O1052 O 0.57372 0.53598 0.0619 0.0
O1053 O 0.54799 0.48256 0.05182 0.0
O1054 O 0.58059 0.48884 0.03861 0.0
O1055 O 0.56637 0.566 0.01611 0.0
O1056 O 0.58458 0.54247 0.03649 0.0
O1057 O 0.54498 0.52276 0.99421 0.0
O1058 O 0.51834 0.54305 0.00389 0.0
O1059 O 0.5467 0.59654 0.01288 0.0
O1060 O 0.51322 0.59043 0.0242 0.0
O1061 O 0.52502 0.51103 0.04661 0.0
O1062 O 0.50832 0.53765 0.02903 0.0
C1063 C 0.56338 0.54621 0.07767 0.0
C1064 C 0.58496 0.5598 0.02411 0.0
C1065 C 0.57422 0.45719 0.06185 0.0
C1066 C 0.56927 0.42658 0.08748 0.0
C1067 C 0.60195 0.43338 0.06634 0.0
C1068 C 0.59443 0.45118 0.0565 0.0
C1069 C 0.58951 0.42119 0.0817 0.0
C1070 C 0.56149 0.44467 0.07748 0.0
C1071 C 0.56722 0.47646 0.05071 0.0
C1072 C 0.54826 0.45927 0.939 0.0
C1073 C 0.57103 0.46931 0.94014 0.0
H1074 H 0.50472 0.44212 0.94292 0.0
C1075 C 0.52768 0.53197 0.98781 0.0
C1076 C 0.50719 0.51934 0.03995 0.0
C1077 C 0.52024 0.6205 0.99912 0.0
C1078 C 0.52706 0.65098 0.97356 0.0
C1079 C 0.48972 0.63802 0.98407 0.0
C1080 C 0.49756 0.62234 0.99738 0.0
C1081 C 0.50428 0.65214 0.97217 0.0
C1082 C 0.53518 0.63518 0.98729 0.0
C1083 C 0.52712 0.6022 0.0121 0.0
H1084 H 0.61752 0.42898 0.06199 0.0
H1085 H 0.60456 0.46023 0.04456 0.0
H1086 H 0.59569 0.40736 0.08909 0.0
H1087 H 0.54583 0.4489 0.0818 0.0
H1088 H 0.47221 0.63917 0.98288 0.0
H1089 H 0.48563 0.61138 0.00607 0.0
H1090 H 0.49777 0.66428 0.96201 0.0
H1091 H 0.55273 0.63412 0.98841 0.0
C1092 C 0.7503 0.24041 0.32023 0.0
C1093 C 0.72597 0.2121 0.28957 0.0
C1094 C 0.74584 0.22872 0.29674 0.0
C1095 C 0.71058 0.20742 0.30603 0.0
C1096 C 0.73499 0.23515 0.3369 0.0
C1097 C 0.71508 0.21886 0.32959 0.0
N1098 N 0.7698 0.25614 0.32707 0.0
C1099 C 0.77564 0.26565 0.3507 0.0
C1100 C 0.74035 0.24598 0.36068 0.0
C1101 C 0.76087 0.26105 0.36766 0.0
Gd1102 Gd 0.79877 0.32351 0.26592 0.0
Gd1103 Gd 0.79309 0.26065 0.29654 0.0
N1104 N 0.76085 0.2336 0.28086 0.0
C1105 C 0.72223 0.20048 0.26607 0.0
C1106 C 0.75788 0.22146 0.25847 0.0
C1107 C 0.73836 0.20504 0.25054 0.0
H1108 H 0.77071 0.22406 0.24695 0.0
H1109 H 0.73594 0.19567 0.23259 0.0
H1110 H 0.82032 0.36205 0.31403 0.0
H1111 H 0.79192 0.27629 0.35703 0.0
H1112 H 0.85428 0.39173 0.32744 0.0
H1113 H 0.70716 0.18763 0.25992 0.0
H1114 H 0.69523 0.19474 0.3008 0.0
H1115 H 0.79996 0.3072 0.20543 0.0
H1116 H 0.72907 0.2423 0.37398 0.0
H1117 H 0.76551 0.26883 0.38625 0.0
H1118 H 0.89573 0.39058 0.25987 0.0
H1119 H 0.70317 0.21472 0.34218 0.0
H1120 H 0.86284 0.34051 0.18809 0.0
H1121 H 0.82642 0.31388 0.17623 0.0
N1122 N 0.82219 0.32748 0.2353 0.0
C1123 C 0.84161 0.34338 0.24182 0.0
C1124 C 0.8163 0.31772 0.21174 0.0
C1125 C 0.85159 0.33705 0.20147 0.0
C1126 C 0.83109 0.32192 0.19473 0.0
C1127 C 0.85686 0.34839 0.22503 0.0
H1128 H 0.88839 0.36904 0.21923 0.0
N1129 N 0.8308 0.35122 0.28083 0.0
C1130 C 0.84583 0.35577 0.26492 0.0
C1131 C 0.86845 0.38586 0.29442 0.0
C1132 C 0.86524 0.37312 0.27151 0.0
C1133 C 0.83326 0.36438 0.30261 0.0
C1134 C 0.85228 0.38158 0.30996 0.0
O1135 O 0.75916 0.26843 0.2787 0.0
O1136 O 0.76291 0.30197 0.26026 0.0
O1137 O 0.78465 0.35321 0.27874 0.0
O1138 O 0.78596 0.34291 0.24025 0.0
O1139 O 0.80732 0.27477 0.26539 0.0
O1140 O 0.78909 0.29218 0.23927 0.0
O1141 O 0.83242 0.31709 0.28583 0.0
O1142 O 0.82932 0.28155 0.30029 0.0
O1143 O 0.8064 0.23037 0.28408 0.0
O1144 O 0.8069 0.24221 0.32262 0.0
O1145 O 0.78499 0.31044 0.29799 0.0
O1146 O 0.8031 0.29158 0.32309 0.0
C1147 C 0.75053 0.28329 0.26634 0.0
C1148 C 0.79547 0.27386 0.24467 0.0
C1149 C 0.77143 0.37656 0.24858 0.0
C1150 C 0.7483 0.40498 0.25323 0.0
C1151 C 0.76598 0.40026 0.21694 0.0
C1152 C 0.77546 0.38315 0.22589 0.0
C1153 C 0.75236 0.41103 0.23044 0.0
C1154 C 0.75801 0.38781 0.26249 0.0
C1155 C 0.78051 0.3572 0.25643 0.0
C1156 C 0.88068 0.37744 0.25503 0.0
C1157 C 0.87652 0.36512 0.2319 0.0
H1158 H 0.88315 0.39928 0.30011 0.0
C1159 C 0.84139 0.30134 0.29631 0.0
C1160 C 0.7975 0.31039 0.31817 0.0
C1161 C 0.82266 0.20914 0.31465 0.0
C1162 C 0.84509 0.18023 0.30827 0.0
C1163 C 0.83613 0.19097 0.34837 0.0
C1164 C 0.82429 0.20641 0.33934 0.0
C1165 C 0.84659 0.17806 0.33301 0.0
C1166 C 0.83286 0.19565 0.29894 0.0
C1167 C 0.81202 0.22754 0.30656 0.0
H1168 H 0.76908 0.40506 0.1994 0.0
H1169 H 0.78584 0.37491 0.21487 0.0
H1170 H 0.74499 0.42422 0.22312 0.0
H1171 H 0.75468 0.38291 0.27996 0.0
H1172 H 0.83742 0.1892 0.36742 0.0
H1173 H 0.8167 0.21651 0.3519 0.0
H1174 H 0.8559 0.16626 0.34045 0.0
H1175 H 0.83201 0.19767 0.27994 0.0
C1176 C 0.08134 0.5036 0.59176 0.0
C1177 C 0.10277 0.53512 0.62044 0.0
C1178 C 0.08455 0.52607 0.6021 0.0
C1179 C 0.11704 0.52114 0.6287 0.0
C1180 C 0.09596 0.48964 0.59968 0.0
C1181 C 0.11362 0.49845 0.61838 0.0
N1182 N 0.06474 0.49574 0.57301 0.0
C1183 C 0.06187 0.47422 0.56129 0.0
C1184 C 0.09279 0.46738 0.58809 0.0
C1185 C 0.0757 0.45966 0.56878 0.0
Gd1186 Gd 0.04393 0.56091 0.50216 0.0
Gd1187 Gd 0.04215 0.52088 0.5613 0.0
N1188 N 0.07092 0.53944 0.59307 0.0
C1189 C 0.10667 0.55818 0.62939 0.0
C1190 C 0.07539 0.56221 0.60133 0.0
C1191 C 0.09301 0.57178 0.61965 0.0
H1192 H 0.06616 0.57364 0.59374 0.0
H1193 H 0.09627 0.58981 0.62595 0.0
H1194 H 0.03396 0.51494 0.45739 0.0
H1195 H 0.04876 0.46819 0.54622 0.0
H1196 H 1.00486 0.49744 0.42405 0.0
H1197 H 0.12054 0.56576 0.64334 0.0
H1198 H 0.13107 0.52786 0.64273 0.0
H1199 H 0.03693 0.61421 0.51437 0.0
H1200 H 0.10367 0.45615 0.59367 0.0
H1201 H 0.07325 0.44255 0.55955 0.0
H1202 H 0.95743 0.5516 0.41707 0.0
H1203 H 0.12503 0.48799 0.62465 0.0
H1204 H 0.97831 0.62203 0.46984 0.0
H1205 H 1.00956 0.6376 0.50269 0.0
N1206 N 0.02091 0.58554 0.48928 0.0
C1207 C 1.00465 0.57716 0.4703 0.0
C1208 C 0.02309 0.60715 0.50046 0.0
C1209 C 0.99027 0.61172 0.47498 0.0
C1210 C 1.00781 0.62052 0.4936 0.0
C1211 C 0.98862 0.58986 0.46292 0.0
H1212 H 0.95885 0.58976 0.43815 0.0
N1213 N 0.0196 0.54384 0.46622 0.0
C1214 C 1.00396 0.55569 0.45838 0.0
C1215 C 0.98712 0.52489 0.42678 0.0
C1216 C 0.98706 0.54633 0.43882 0.0
C1217 C 0.02056 0.52361 0.45331 0.0
C1218 C 1.0042 0.5137 0.43378 0.0
O1219 O 0.07639 0.53029 0.5512 0.0
O1220 O 0.06376 0.55921 0.53757 0.0
O1221 O 0.07187 0.56123 0.4818 0.0
O1222 O 0.06419 0.59299 0.49652 0.0
O1223 O 0.03304 0.55616 0.56985 0.0
O1224 O 0.03967 0.58001 0.53918 0.0
O1225 O 1.00782 0.54767 0.50529 0.0
O1226 O 0.02781 0.53222 0.52922 0.0
O1227 O 1.01476 0.52173 0.58205 0.0
O1228 O 0.02148 0.48928 0.56807 0.0
O1229 O 0.05279 0.5248 0.49602 0.0
O1230 O 0.0385 0.5003 0.52346 0.0
C1231 C 0.07977 0.54781 0.53961 0.0
C1232 C 0.03401 0.57609 0.56109 0.0
C1233 C 0.07748 0.59131 0.45864 0.0
C1234 C 0.08955 0.58618 0.41921 0.0
C1235 C 0.06987 0.61643 0.42922 0.0
C1236 C 0.06841 0.60987 0.45219 0.0
C1237 C 0.08027 0.60453 0.41265 0.0
C1238 C 0.08823 0.57977 0.44216 0.0
C1239 C 0.07571 0.58322 0.4821 0.0
C1240 C 0.97068 0.55865 0.43185 0.0
C1241 C 0.97149 0.58038 0.44385 0.0
H1242 H 0.9744 0.51709 0.41174 0.0
C1243 C 1.00784 0.5345 0.52161 0.0
C1244 C 0.0471 0.50416 0.50304 0.0
C1245 C 1.00749 0.4923 0.60575 0.0
C1246 C 0.99576 0.49955 0.64513 0.0
C1247 C 1.01101 0.46603 0.63504 0.0
C1248 C 1.01367 0.47226 0.6121 0.0
C1249 C 1.00223 0.4797 0.65162 0.0
C1250 C 0.99829 0.50562 0.62225 0.0
C1251 C 1.01015 0.4998 0.58213 0.0
H1252 H 0.06297 0.63075 0.42427 0.0
H1253 H 0.06014 0.61921 0.46474 0.0
H1254 H 0.08151 0.60992 0.39497 0.0
H1255 H 0.0954 0.56554 0.44708 0.0
H1256 H 1.01566 0.45055 0.63992 0.0
H1257 H 0.02052 0.46149 0.59948 0.0
H1258 H 0.99995 0.47451 0.66922 0.0
H1259 H 0.99311 0.52092 0.61735 0.0
C1260 C 0.74683 0.81378 0.23518 0.0
C1261 C 0.72146 0.78035 0.21284 0.0
C1262 C 0.73645 0.79097 0.23354 0.0
C1263 C 0.71736 0.79278 0.19367 0.0
C1264 C 0.7423 0.82641 0.21616 0.0
C1265 C 0.72775 0.81573 0.19532 0.0
N1266 N 0.7611 0.82365 0.25544 0.0
C1267 C 0.76968 0.84651 0.25867 0.0
C1268 C 0.75229 0.84952 0.21877 0.0
C1269 C 0.76578 0.85966 0.24025 0.0
Gd1270 Gd 0.82764 0.7818 0.28885 0.0
Gd1271 Gd 0.76678 0.79949 0.28468 0.0
N1272 N 0.74109 0.77916 0.25214 0.0
C1273 C 0.71092 0.75757 0.2121 0.0
C1274 C 0.73014 0.75731 0.25199 0.0
C1275 C 0.71508 0.74609 0.23188 0.0
H1276 H 0.73257 0.74871 0.26758 0.0
H1277 H 0.70655 0.72866 0.23175 0.0
H1278 H 0.86252 0.83151 0.30384 0.0
H1279 H 0.77928 0.85493 0.27554 0.0
H1280 H 0.88937 0.85232 0.33899 0.0
H1281 H 0.69925 0.74882 0.19655 0.0
H1282 H 0.706 0.78486 0.17757 0.0
H1283 H 0.81808 0.72603 0.29828 0.0
H1284 H 0.74923 0.85979 0.20456 0.0
H1285 H 0.77297 0.87768 0.24277 0.0
H1286 H 0.88712 0.79907 0.39676 0.0
H1287 H 0.72421 0.82515 0.18049 0.0
H1288 H 0.84548 0.72339 0.37084 0.0
H1289 H 0.82411 0.70417 0.33187 0.0
N1290 N 0.83308 0.75819 0.31887 0.0
C1291 C 0.84619 0.76886 0.33964 0.0
C1292 C 0.82618 0.73506 0.31557 0.0
C1293 C 0.84217 0.73332 0.3564 0.0
C1294 C 0.83006 0.72241 0.33445 0.0
C1295 C 0.85098 0.75669 0.35898 0.0
H1296 H 0.86895 0.75888 0.3949 0.0
N1297 N 0.8523 0.80279 0.32161 0.0
C1298 C 0.85644 0.79165 0.34086 0.0
C1299 C 0.8832 0.82496 0.36067 0.0
C1300 C 0.87169 0.80266 0.36117 0.0
C1301 C 0.86468 0.8238 0.32018 0.0
C1302 C 0.87998 0.83542 0.33989 0.0
O1303 O 0.78062 0.78914 0.24925 0.0
O1304 O 0.80273 0.76307 0.25723 0.0
O1305 O 0.85047 0.79157 0.26237 0.0
O1306 O 0.85661 0.7667 0.28565 0.0
O1307 O 0.76682 0.7652 0.2973 0.0
O1308 O 0.79742 0.75185 0.28394 0.0
O1309 O 0.82008 0.80591 0.31961 0.0
O1310 O 0.78318 0.79142 0.32001 0.0
O1311 O 0.73276 0.79298 0.29502 0.0
O1312 O 0.75497 0.82642 0.30515 0.0
O1313 O 0.8216 0.81221 0.27068 0.0
O1314 O 0.79766 0.82804 0.29273 0.0
C1315 C 0.79036 0.77223 0.24197 0.0
C1316 C 0.77763 0.74879 0.29205 0.0
C1317 C 0.87409 0.76605 0.25005 0.0
C1318 C 0.90337 0.76647 0.22349 0.0
C1319 C 0.88065 0.73064 0.23022 0.0
C1320 C 0.86874 0.74222 0.24534 0.0
C1321 C 0.8978 0.74263 0.21936 0.0
C1322 C 0.89157 0.77819 0.2391 0.0
C1323 C 0.86366 0.77807 0.26867 0.0
C1324 C 0.8756 0.79085 0.38089 0.0
C1325 C 0.86522 0.76795 0.37983 0.0
H1326 H 0.89514 0.83395 0.37589 0.0
C1327 C 0.80247 0.80307 0.33123 0.0
C1328 C 0.8152 0.83006 0.28087 0.0
C1329 C 0.71782 0.82219 0.31822 0.0
C1330 C 0.68488 0.81694 0.33997 0.0
C1331 C 0.70223 0.8546 0.33217 0.0
C1332 C 0.7182 0.84562 0.32055 0.0
C1333 C 0.68573 0.84041 0.34183 0.0
C1334 C 0.70091 0.80771 0.32793 0.0
C1335 C 0.73547 0.81354 0.30609 0.0
H1336 H 0.87674 0.71226 0.2271 0.0
H1337 H 0.85572 0.73248 0.25384 0.0
H1338 H 0.90695 0.73325 0.20785 0.0
H1339 H 0.89611 0.79656 0.24291 0.0
H1340 H 0.70269 0.87269 0.33377 0.0
H1341 H 0.73087 0.85708 0.31326 0.0
H1342 H 0.67357 0.8478 0.35091 0.0
H1343 H 0.70043 0.7896 0.32647 0.0
C1344 C 0.82731 0.24626 0.7215 0.0
C1345 C 0.79566 0.22666 0.69212 0.0
C1346 C 0.80531 0.24439 0.71093 0.0
C1347 C 0.8084 0.21104 0.68406 0.0
C1348 C 0.84012 0.23053 0.71348 0.0
C1349 C 0.83057 0.21298 0.6947 0.0
N1350 N 0.83599 0.26306 0.74007 0.0
C1351 C 0.8575 0.26545 0.75094 0.0
C1352 C 0.86212 0.23278 0.72473 0.0
C1353 C 0.87087 0.25038 0.74348 0.0
Gd1354 Gd 0.77609 0.29204 0.81257 0.0
Gd1355 Gd 0.81249 0.2876 0.75152 0.0
N1356 N 0.7931 0.25931 0.71974 0.0
C1357 C 0.77338 0.22494 0.68212 0.0
C1358 C 0.77145 0.25785 0.70954 0.0
C1359 C 0.76129 0.24068 0.69079 0.0
H1360 H 0.76167 0.26974 0.71536 0.0
H1361 H 0.74409 0.23964 0.68302 0.0
H1362 H 0.82822 0.31649 0.84438 0.0
H1363 H 0.86452 0.27929 0.76503 0.0
H1364 H 0.84457 0.34771 0.87583 0.0
H1365 H 0.76538 0.21156 0.66767 0.0
H1366 H 0.80122 0.19731 0.66969 0.0
H1367 H 0.72336 0.29748 0.79884 0.0
H1368 H 0.87249 0.22105 0.71907 0.0
H1369 H 0.88793 0.25238 0.75216 0.0
H1370 H 0.78367 0.38381 0.89168 0.0
H1371 H 0.84014 0.20072 0.68836 0.0
H1372 H 0.71214 0.3546 0.84423 0.0
H1373 H 0.69814 0.3225 0.81162 0.0
N1374 N 0.75134 0.3152 0.82386 0.0
C1375 C 0.75937 0.33267 0.84179 0.0
C1376 C 0.72969 0.3115 0.81298 0.0
C1377 C 0.72327 0.34363 0.83871 0.0
C1378 C 0.71532 0.32558 0.82026 0.0
C1379 C 0.74555 0.34745 0.84965 0.0
H1380 H 0.74405 0.37721 0.87414 0.0
N1381 N 0.79472 0.32217 0.84305 0.0
C1382 C 0.78168 0.33627 0.85171 0.0
C1383 C 0.81353 0.35883 0.87867 0.0
C1384 C 0.79075 0.35494 0.86972 0.0
C1385 C 0.81717 0.32646 0.85143 0.0
C1386 C 0.8268 0.3446 0.86936 0.0
O1387 O 0.79951 0.25213 0.75845 0.0
O1388 O 0.78594 0.27526 0.78097 0.0
O1389 O 0.77749 0.26713 0.83711 0.0
O1390 O 0.74535 0.27004 0.81864 0.0
O1391 O 0.77804 0.29904 0.74634 0.0
O1392 O 0.7545 0.28773 0.77547 0.0
O1393 O 0.78575 0.32538 0.79939 0.0
O1394 O 0.81344 0.31136 0.78524 0.0
O1395 O 0.81088 0.30972 0.72408 0.0
O1396 O 0.84368 0.30676 0.74214 0.0
O1397 O 0.81106 0.2828 0.82049 0.0
O1398 O 0.83353 0.28764 0.78873 0.0
C1399 C 0.78724 0.25442 0.77516 0.0
C1400 C 0.75802 0.29552 0.75452 0.0
C1401 C 0.74642 0.25898 0.8579 0.0
C1402 C 0.7491 0.24595 0.89717 0.0
C1403 C 0.7198 0.2661 0.88533 0.0
C1404 C 0.72771 0.26807 0.86307 0.0
C1405 C 0.73054 0.25522 0.90245 0.0
C1406 C 0.75682 0.24775 0.87489 0.0
C1407 C 0.75573 0.26081 0.83514 0.0
C1408 C 0.77696 0.36945 0.87787 0.0
C1409 C 0.75441 0.36571 0.86787 0.0
H1410 H 0.82111 0.37299 0.89243 0.0
C1411 C 0.80238 0.32776 0.78663 0.0
C1412 C 0.8305 0.28342 0.8113 0.0
C1413 C 0.84349 0.33169 0.71097 0.0
C1414 C 0.84003 0.354 0.67809 0.0
C1415 C 0.87691 0.35156 0.69681 0.0
C1416 C 0.86698 0.33757 0.71258 0.0
C1417 C 0.86347 0.35963 0.67941 0.0
C1418 C 0.8301 0.34025 0.69389 0.0
C1419 C 0.83265 0.31567 0.7259 0.0
H1420 H 0.70535 0.27301 0.88932 0.0
H1421 H 0.71928 0.27669 0.85008 0.0
H1422 H 0.72415 0.25368 0.91958 0.0
H1423 H 0.77121 0.24062 0.87089 0.0
H1424 H 0.89501 0.35596 0.6979 0.0
H1425 H 0.87761 0.3311 0.7257 0.0
H1426 H 0.87129 0.37027 0.66707 0.0
H1427 H 0.81193 0.33582 0.69238 0.0
C1428 C 0.85508 0.83606 0.82896 0.0
C1429 C 0.87831 0.85384 0.80102 0.0
C1430 C 0.8577 0.84119 0.80576 0.0
C1431 C 0.89606 0.86141 0.81988 0.0
C1432 C 0.87294 0.84369 0.84794 0.0
C1433 C 0.89337 0.85641 0.84328 0.0
N1434 N 0.8349 0.82428 0.83314 0.0
C1435 C 0.83159 0.8195 0.85589 0.0
C1436 C 0.86962 0.83873 0.8712 0.0
C1437 C 0.84888 0.82654 0.87516 0.0
Gd1438 Gd 0.778 0.75996 0.76467 0.0
Gd1439 Gd 0.80595 0.8172 0.80036 0.0
N1440 N 0.84002 0.83417 0.78793 0.0
C1441 C 0.88033 0.85894 0.77756 0.0
C1442 C 0.84176 0.83993 0.76527 0.0
C1443 C 0.86195 0.85196 0.75961 0.0
H1444 H 0.8276 0.83594 0.75158 0.0
H1445 H 0.86315 0.85629 0.74152 0.0
H1446 H 0.75615 0.74468 0.81479 0.0
H1447 H 0.81532 0.81137 0.85959 0.0
H1448 H 0.72019 0.72582 0.8254 0.0
H1449 H 0.89586 0.86863 0.77322 0.0
H1450 H 0.91189 0.87136 0.81661 0.0
H1451 H 0.76818 0.76743 0.70575 0.0
H1452 H 0.88286 0.84448 0.88627 0.0
H1453 H 0.84602 0.823 0.89319 0.0
H1454 H 0.67099 0.71114 0.75064 0.0
H1455 H 0.90716 0.86259 0.8577 0.0
H1456 H 0.69985 0.73663 0.68035 0.0
H1457 H 0.73695 0.75689 0.67274 0.0
N1458 N 0.74869 0.75551 0.7327 0.0
C1459 C 0.72832 0.74449 0.73732 0.0
C1460 C 0.75181 0.76013 0.70985 0.0
C1461 C 0.71333 0.74207 0.69522 0.0
C1462 C 0.73421 0.7536 0.69087 0.0
C1463 C 0.71016 0.73735 0.7186 0.0
H1464 H 0.67558 0.71937 0.70937 0.0
N1465 N 0.74371 0.74605 0.77834 0.0
C1466 C 0.72579 0.73958 0.76069 0.0
C1467 C 0.70292 0.72308 0.78938 0.0
C1468 C 0.70496 0.72776 0.76577 0.0
C1469 C 0.7419 0.74087 0.80119 0.0
C1470 C 0.72146 0.72975 0.80718 0.0
O1471 O 0.83247 0.79629 0.78948 0.0
O1472 O 0.81458 0.77088 0.75638 0.0
O1473 O 0.78274 0.72683 0.77261 0.0
O1474 O 0.77311 0.7322 0.73578 0.0
O1475 O 0.78943 0.81762 0.76168 0.0
O1476 O 0.79414 0.78456 0.74135 0.0
O1477 O 0.75319 0.78349 0.7745 0.0
O1478 O 0.77084 0.80326 0.81049 0.0
O1479 O 0.79436 0.84711 0.79081 0.0
O1480 O 0.80802 0.84544 0.82834 0.0
O1481 O 0.79582 0.75843 0.80249 0.0
O1482 O 0.79166 0.79139 0.82345 0.0
C1483 C 0.83338 0.78203 0.77005 0.0
C1484 C 0.79171 0.8056 0.74144 0.0
C1485 C 0.79596 0.70572 0.74157 0.0
C1486 C 0.81954 0.67891 0.74966 0.0
C1487 C 0.81907 0.69457 0.71172 0.0
C1488 C 0.80348 0.70721 0.71886 0.0
C1489 C 0.82721 0.68048 0.72712 0.0
C1490 C 0.80397 0.69147 0.75672 0.0
C1491 C 0.77946 0.71834 0.74983 0.0
C1492 C 0.68697 0.72055 0.74711 0.0
C1493 C 0.68958 0.72526 0.7236 0.0
H1494 H 0.68721 0.71402 0.79397 0.0
C1495 C 0.75211 0.79533 0.79549 0.0
C1496 C 0.79479 0.77057 0.82312 0.0
C1497 C 0.79541 0.87965 0.8204 0.0
C1498 C 0.78021 0.91173 0.80989 0.0
C1499 C 0.79565 0.91107 0.85128 0.0
C1500 C 0.8007 0.88987 0.84457 0.0
C1501 C 0.78536 0.92204 0.83394 0.0
C1502 C 0.78521 0.8907 0.80316 0.0
C1503 C 0.79923 0.85701 0.81312 0.0
H1504 H 0.82478 0.69563 0.69423 0.0
H1505 H 0.79734 0.71802 0.70664 0.0
H1506 H 0.83914 0.67057 0.72135 0.0
H1507 H 0.79817 0.69023 0.77422 0.0
H1508 H 0.79955 0.91888 0.8699 0.0
H1509 H 0.80845 0.88142 0.85826 0.0
H1510 H 0.78126 0.93837 0.83924 0.0
H1511 H 0.78082 0.8829 0.78449 0.0
C1512 C 0.5001 0.47748 0.49157 0.0
C1513 C 0.48052 0.45555 0.51966 0.0
C1514 C 0.4938 0.47588 0.51465 0.0
C1515 C 0.47339 0.43709 0.50132 0.0
C1516 C 0.49302 0.45878 0.47324 0.0
C1517 C 0.47959 0.4387 0.47822 0.0
N1518 N 0.51254 0.49739 0.48686 0.0
C1519 C 0.51829 0.49962 0.46425 0.0
C1520 C 0.49918 0.46093 0.4502 0.0
C1521 C 0.51192 0.4814 0.44573 0.0
Gd1522 Gd 0.57512 0.55534 0.55197 0.0
Gd1523 Gd 0.51604 0.52773 0.51767 0.0
N1524 N 0.50053 0.49415 0.53212 0.0
C1525 C 0.4745 0.45444 0.5429 0.0
C1526 C 0.49421 0.49325 0.5546 0.0
C1527 C 0.48144 0.47336 0.56045 0.0
H1528 H 0.49798 0.50801 0.56776 0.0
H1529 H 0.4764 0.47285 0.57831 0.0
H1530 H 0.59955 0.57415 0.5056 0.0
H1531 H 0.52658 0.5157 0.45985 0.0
H1532 H 0.62208 0.60943 0.49573 0.0
H1533 H 0.46424 0.43916 0.54738 0.0
H1534 H 0.46296 0.42147 0.5048 0.0
H1535 H 0.56606 0.56652 0.61023 0.0
H1536 H 0.49389 0.44701 0.43562 0.0
H1537 H 0.51626 0.48338 0.42779 0.0
H1538 H 0.6301 0.66188 0.56797 0.0
H1539 H 0.4738 0.42431 0.46424 0.0
H1540 H 0.59689 0.63546 0.63561 0.0
H1541 H 0.5752 0.59846 0.64269 0.0
N1542 N 0.57974 0.58552 0.5836 0.0
C1543 C 0.5923 0.6056 0.57956 0.0
C1544 C 0.57392 0.58283 0.60611 0.0
C1545 C 0.59206 0.62166 0.62086 0.0
C1546 C 0.57972 0.60085 0.62489 0.0
C1547 C 0.59873 0.6242 0.5981 0.0
H1548 H 0.61738 0.65885 0.60774 0.0
N1549 N 0.59429 0.58879 0.53996 0.0
C1550 C 0.59987 0.60724 0.55719 0.0
C1551 C 0.62119 0.62843 0.5302 0.0
C1552 C 0.61351 0.62758 0.55274 0.0
C1553 C 0.60258 0.58923 0.5184 0.0
C1554 C 0.61576 0.60913 0.51299 0.0
O1555 O 0.53794 0.50146 0.52798 0.0
O1556 O 0.5624 0.51936 0.56141 0.0
O1557 O 0.60563 0.54404 0.54465 0.0
O1558 O 0.60174 0.5582 0.58136 0.0
O1559 O 0.51613 0.54638 0.55526 0.0
O1560 O 0.54909 0.54123 0.57467 0.0
O1561 O 0.5581 0.58252 0.5354 0.0
O1562 O 0.52259 0.56616 0.51532 0.0
O1563 O 0.48157 0.52697 0.52308 0.0
O1564 O 0.49085 0.5262 0.48687 0.0
O1565 O 0.57342 0.53731 0.51383 0.0
O1566 O 0.54098 0.54363 0.49421 0.0
C1567 C 0.55194 0.50041 0.54749 0.0
C1568 C 0.52877 0.5449 0.57526 0.0
C1569 C 0.63647 0.54647 0.57659 0.0
C1570 C 0.66832 0.5299 0.56996 0.0
C1571 C 0.66515 0.54668 0.61014 0.0
C1572 C 0.64494 0.55224 0.60126 0.0
C1573 C 0.67677 0.53522 0.59454 0.0
C1574 C 0.64849 0.53575 0.56098 0.0
C1575 C 0.61427 0.54955 0.56733 0.0
C1576 C 0.61951 0.64619 0.57102 0.0
C1577 C 0.61222 0.64448 0.59365 0.0
H1578 H 0.63168 0.64374 0.52609 0.0
C1579 C 0.53899 0.58417 0.52267 0.0
C1580 C 0.56186 0.54125 0.49414 0.0
C1581 C 0.45763 0.53917 0.49334 0.0
C1582 C 0.42908 0.55943 0.50455 0.0
C1583 C 0.43046 0.54732 0.46235 0.0
C1584 C 0.44893 0.53778 0.46888 0.0
C1585 C 0.4204 0.55801 0.48017 0.0
C1586 C 0.44775 0.55031 0.51113 0.0
C1587 C 0.47474 0.52625 0.50015 0.0
H1588 H 0.67158 0.55088 0.62915 0.0
H1589 H 0.63576 0.56054 0.6137 0.0
H1590 H 0.6922 0.5305 0.60153 0.0
H1591 H 0.64202 0.53103 0.54196 0.0
H1592 H 0.42363 0.54596 0.44352 0.0
H1593 H 0.45601 0.52876 0.4549 0.0
H1594 H 0.40572 0.56487 0.47502 0.0
H1595 H 0.4539 0.55118 0.53013 0.0
C1596 C 0.09586 0.58555 0.99643 0.0
C1597 C 0.12382 0.61018 0.02708 0.0
C1598 C 0.10745 0.59001 0.01987 0.0
C1599 C 0.12826 0.6259 0.0107 0.0
C1600 C 0.10077 0.60125 0.97988 0.0
C1601 C 0.11677 0.62147 0.98722 0.0
N1602 N 0.0804 0.56577 0.98958 0.0
C1603 C 0.07092 0.55997 0.96595 0.0
C1604 C 0.08981 0.59602 0.95619 0.0
C1605 C 0.07508 0.57518 0.94914 0.0
Gd1606 Gd 1.01277 0.53713 0.05075 0.0
Gd1607 Gd 0.07531 0.54243 0.02038 0.0
N1608 N 0.1025 0.5749 0.03579 0.0
C1609 C 0.13507 0.61414 0.05069 0.0
C1610 C 0.11414 0.5782 0.05842 0.0
C1611 C 0.13031 0.59798 0.06637 0.0
H1612 H 0.11124 0.56549 0.0702 0.0
H1613 H 0.13924 0.60064 0.0845 0.0
H1614 H 0.97337 0.51716 1.00342 0.0
H1615 H 0.06049 0.54348 0.95953 0.0
H1616 H 0.94445 0.48255 0.98906 0.0
H1617 H 0.14762 0.62948 0.05691 0.0
H1618 H 0.14064 0.64153 0.016 0.0
H1619 H 0.02849 0.53498 0.11125 0.0
H1620 H 0.09313 0.60766 0.943 0.0
H1621 H 0.06719 0.57063 0.9306 0.0
H1622 H 0.94698 0.43821 0.05473 0.0
H1623 H 0.12061 0.6337 0.97473 0.0
H1624 H 0.99623 0.47044 0.12704 0.0
H1625 H 0.02211 0.50744 0.13975 0.0
N1626 N 1.00874 0.51287 0.08092 0.0
C1627 C 0.99315 0.49318 0.07399 0.0
C1628 C 0.01826 0.51844 0.10457 0.0
C1629 C 0.99954 0.48219 0.11396 0.0
C1630 C 1.01423 0.50302 0.12119 0.0
C1631 C 0.98838 0.47725 0.09035 0.0
H1632 H 0.96833 0.44487 0.09535 0.0
N1633 N 0.98491 0.50522 0.03559 0.0
C1634 C 0.98076 0.48941 0.05096 0.0
C1635 C 0.95103 0.467 0.02116 0.0
C1636 C 0.96381 0.46969 0.04393 0.0
C1637 C 0.97151 0.50344 0.01416 0.0
C1638 C 0.95474 0.48409 0.00633 0.0
O1639 O 0.06792 0.57673 0.03888 0.0
O1640 O 0.03423 0.57349 0.05631 0.0
O1641 O 0.98422 0.55264 0.03823 0.0
O1642 O 0.99393 0.55018 0.07659 0.0
O1643 O 0.06051 0.52822 0.05123 0.0
O1644 O 0.04342 0.54628 0.07762 0.0
O1645 O 0.0184 0.50302 0.03006 0.0
O1646 O 0.05425 0.50609 0.01748 0.0
O1647 O 0.10534 0.5299 0.03384 0.0
O1648 O 0.09227 0.52515 0.99538 0.0
O1649 O 0.02724 0.55078 0.0194 0.0
O1650 O 0.04493 0.53287 0.99327 0.0
C1651 C 0.05311 0.58577 0.05081 0.0
C1652 C 0.06149 0.53993 0.0721 0.0
C1653 C 0.96246 0.56782 0.06868 0.0
C1654 C 0.93287 0.58916 0.06194 0.0
C1655 C 0.94309 0.57967 0.10194 0.0
C1656 C 0.95915 0.56868 0.09318 0.0
C1657 C 0.93003 0.58988 0.08644 0.0
C1658 C 0.94915 0.57812 0.05294 0.0
C1659 C 0.98046 0.55687 0.06061 0.0
C1660 C 0.95983 0.4535 0.0599 0.0
C1661 C 0.97205 0.45728 0.08302 0.0
H1662 H 0.93791 0.45208 0.01512 0.0
C1663 C 0.03438 0.4939 0.02048 0.0
C1664 C 0.02656 0.53844 0.9989 0.0
C1665 C 0.12842 0.51682 0.00456 0.0
C1666 C 0.15818 0.49526 0.00823 0.0
C1667 C 0.15231 0.51432 0.9729 0.0
C1668 C 0.1347 0.52244 0.98224 0.0
C1669 C 0.16389 0.50065 0.98573 0.0
C1670 C 0.14046 0.50341 0.01769 0.0
C1671 C 0.1071 0.52115 0.01198 0.0
H1672 H 0.94076 0.58026 0.12081 0.0
H1673 H 0.96907 0.56093 0.10577 0.0
H1674 H 0.91752 0.59828 0.09354 0.0
H1675 H 0.95139 0.57761 0.03402 0.0
H1676 H 0.15675 0.5183 0.95549 0.0
H1677 H 0.12551 0.53243 0.97157 0.0
H1678 H 0.17736 0.49427 0.97811 0.0
H1679 H 0.13555 0.49861 0.03471 0.0
H1680 H 0.05127 0.22386 0.97489 0.0
H1681 H 0.98219 0.20359 0.98578 0.0
H1682 H 0.05848 0.18723 0.98599 0.0
H1683 H 0.98909 0.16694 0.99597 0.0
H1684 H 1.00355 0.09351 0.99282 0.0
H1685 H 0.99726 0.12983 0.98087 0.0
H1686 H 0.06125 0.16356 0.02044 0.0
H1687 H 0.06691 0.12737 0.03318 0.0
C1688 C 0.03745 0.21157 0.97925 0.0
C1689 C 1.01599 0.2172 0.97913 0.0
C1690 C 0.04164 0.19038 0.98589 0.0
C1691 C 0.02446 0.17342 0.99206 0.0
C1692 C 1.00295 0.17897 0.99132 0.0
C1693 C 0.99895 0.20031 0.98543 0.0
C1694 C 1.01637 0.10855 0.99913 0.0
C1695 C 0.03595 0.1067 0.01412 0.0
C1696 C 1.0127 0.12974 0.99223 0.0
C1697 C 0.02868 0.15035 0.99937 0.0
C1698 C 0.04842 0.14848 0.01409 0.0
C1699 C 0.05175 0.12736 0.02154 0.0
H1700 H 0.12419 0.80724 0.1805 0.0
H1701 H 0.16968 0.81737 0.12736 0.0
H1702 H 0.15554 0.80519 0.21066 0.0
H1703 H 0.20066 0.81451 0.15685 0.0
H1704 H 0.25818 0.82654 0.21744 0.0
H1705 H 0.22628 0.83043 0.1895 0.0
H1706 H 0.18185 0.78571 0.22654 0.0
H1707 H 0.21389 0.78255 0.25498 0.0
C1708 C 0.14086 0.80917 0.17519 0.0
C1709 C 0.14415 0.81275 0.15127 0.0
C1710 C 0.159 0.80773 0.19255 0.0
C1711 C 0.18119 0.80981 0.1867 0.0
C1712 C 0.18427 0.81334 0.16272 0.0
C1713 C 0.16624 0.81483 0.14549 0.0
C1714 C 0.24162 0.81755 0.21971 0.0
C1715 C 0.23891 0.80421 0.23868 0.0
C1716 C 0.2231 0.81962 0.20341 0.0
C1717 C 0.20098 0.80823 0.20513 0.0
C1718 C 0.19828 0.79509 0.22439 0.0
C1719 C 0.21684 0.7932 0.24086 0.0
H1720 H 0.50893 0.84141 0.5068 0.0
H1721 H 0.53209 0.85788 0.43988 0.0
H1722 H 0.51338 0.88232 0.52084 0.0
H1723 H 0.53632 0.89801 0.45347 0.0
H1724 H 0.56092 0.97098 0.4882 0.0
H1725 H 0.55679 0.9303 0.47725 0.0
H1726 H 0.50172 0.91809 0.51916 0.0
H1727 H 0.50673 0.95908 0.53099 0.0
C1728 C 0.515 0.8536 0.49503 0.0
C1729 C 0.52011 0.84576 0.47204 0.0
C1730 C 0.51747 0.87731 0.50305 0.0
C1731 C 0.52546 0.89427 0.48858 0.0
C1732 C 0.53055 0.88617 0.4657 0.0
C1733 C 0.52789 0.86271 0.45768 0.0
C1734 C 0.54781 0.95983 0.49514 0.0
C1735 C 0.53389 0.96912 0.51027 0.0
C1736 C 0.54527 0.93606 0.48862 0.0
C1737 C 0.52857 0.92006 0.49676 0.0
C1738 C 0.51484 0.9293 0.51226 0.0
C1739 C 0.51749 0.95318 0.51886 0.0
H1740 H 0.53513 0.3223 0.68203 0.0
H1741 H 0.49449 0.28005 0.62028 0.0
H1742 H 0.50259 0.3206 0.70332 0.0
H1743 H 0.46194 0.27624 0.64231 0.0
H1744 H 0.4028 0.27562 0.68269 0.0
H1745 H 0.43325 0.28782 0.65917 0.0
H1746 H 0.48061 0.29933 0.72462 0.0
H1747 H 0.45002 0.28868 0.74767 0.0
C1748 C 0.51915 0.31232 0.67315 0.0
C1749 C 0.51739 0.30112 0.64961 0.0
C1750 C 0.50036 0.31112 0.68547 0.0
C1751 C 0.47928 0.29786 0.67504 0.0
C1752 C 0.47756 0.28693 0.65112 0.0
C1753 C 0.4963 0.28886 0.63845 0.0
C1754 C 0.41966 0.28185 0.69202 0.0
C1755 C 0.42402 0.28167 0.71706 0.0
C1756 C 0.43731 0.28833 0.67848 0.0
C1757 C 0.45985 0.29431 0.68962 0.0
C1758 C 0.46377 0.29531 0.71501 0.0
C1759 C 0.44613 0.28922 0.72847 0.0
H1760 H 0.02895 0.84125 0.7001 0.0
H1761 H 0.04933 0.80141 0.64126 0.0
H1762 H 0.03149 0.87348 0.67678 0.0
H1763 H 0.05252 0.83347 0.61837 0.0
H1764 H 0.04235 0.88606 0.57206 0.0
H1765 H 0.03185 0.85528 0.59611 0.0
H1766 H 0.05676 0.90192 0.66147 0.0
H1767 H 0.06655 0.93266 0.63716 0.0
C1768 C 0.03427 0.83946 0.68234 0.0
C1769 C 0.03897 0.81872 0.67262 0.0
C1770 C 0.03568 0.85794 0.66889 0.0
C1771 C 0.0419 0.85616 0.64539 0.0
C1772 C 0.04704 0.83548 0.63602 0.0
C1773 C 0.04551 0.81708 0.64936 0.0
C1774 C 0.04459 0.88987 0.59158 0.0
C1775 C 0.05488 0.91183 0.60274 0.0
C1776 C 0.03905 0.87213 0.60544 0.0
C1777 C 0.04395 0.87582 0.63088 0.0
C1778 C 0.05264 0.89827 0.64203 0.0
C1779 C 0.05812 0.91602 0.62811 0.0
H1780 H 0.48785 0.79341 0.82432 0.0
H1781 H 0.48259 0.85778 0.86151 0.0
H1782 H 0.44818 0.78727 0.80668 0.0
H1783 H 0.44343 0.85159 0.84512 0.0
H1784 H 0.37278 0.8431 0.80735 0.0
H1785 H 0.41333 0.84996 0.81783 0.0
H1786 H 0.41025 0.77758 0.81051 0.0
H1787 H 0.36968 0.77105 0.79889 0.0
C1788 C 0.47855 0.80662 0.82824 0.0
C1789 C 0.48909 0.82641 0.84415 0.0
C1790 C 0.45536 0.8029 0.81847 0.0
C1791 C 0.44162 0.81876 0.82423 0.0
C1792 C 0.45266 0.83883 0.83945 0.0
C1793 C 0.47558 0.84249 0.84905 0.0
C1794 C 0.38069 0.82863 0.80748 0.0
C1795 C 0.36736 0.80653 0.80194 0.0
C1796 C 0.40433 0.83251 0.81401 0.0
C1797 C 0.41605 0.81443 0.81554 0.0
C1798 C 0.40263 0.79225 0.8096 0.0
C1799 C 0.37895 0.78843 0.80308 0.0
H1800 H 0.56565 0.21115 0.14417 0.0
H1801 H 0.49864 0.18498 0.15927 0.0
H1802 H 0.56623 0.17561 0.12079 0.0
H1803 H 0.49947 0.14811 0.13555 0.0
H1804 H 0.52263 0.07952 0.10382 0.0
H1805 H 0.51811 0.11308 0.1302 0.0
H1806 H 0.54915 0.15633 0.08179 0.0
H1807 H 0.55459 0.12332 0.05636 0.0
C1808 C 0.55093 0.19765 0.14276 0.0
C1809 C 0.53193 0.20146 0.15358 0.0
C1810 C 0.55127 0.17708 0.12899 0.0
C1811 C 0.53271 0.15887 0.12542 0.0
C1812 C 0.51407 0.16179 0.13757 0.0
C1813 C 0.51361 0.18291 0.15138 0.0
C1814 C 0.5285 0.0962 0.09876 0.0
C1815 C 0.53899 0.09837 0.07763 0.0
C1816 C 0.5257 0.11552 0.11388 0.0
C1817 C 0.53336 0.1377 0.10847 0.0
C1818 C 0.54329 0.13972 0.08702 0.0
C1819 C 0.54619 0.12056 0.07209 0.0
H1820 H 0.14161 0.32951 0.37761 0.0
H1821 H 0.10822 0.30778 0.30515 0.0
H1822 H 0.17675 0.32252 0.36492 0.0
H1823 H 0.1437 0.30128 0.29198 0.0
H1824 H 0.20931 0.27764 0.27458 0.0
H1825 H 0.17333 0.28311 0.28697 0.0
H1826 H 0.20872 0.33065 0.348 0.0
H1827 H 0.24434 0.32466 0.33589 0.0
C1828 C 0.14164 0.3234 0.35877 0.0
C1829 C 0.12141 0.3195 0.34265 0.0
C1830 C 0.16227 0.31943 0.35125 0.0
C1831 C 0.16418 0.31135 0.32699 0.0
C1832 C 0.14377 0.30727 0.31084 0.0
C1833 C 0.12305 0.31121 0.31844 0.0
C1834 C 0.20955 0.28922 0.29075 0.0
C1835 C 0.23049 0.30055 0.30401 0.0
C1836 C 0.18852 0.29258 0.29793 0.0
C1837 C 0.18706 0.30747 0.31888 0.0
C1838 C 0.20813 0.31872 0.33205 0.0
C1839 C 0.22906 0.31536 0.32487 0.0
H1840 H 0.94347 0.01717 0.18978 0.0
H1841 H 1.01097 0.03789 0.22686 0.0
H1842 H 0.95765 0.02374 0.15122 0.0
H1843 H 0.02497 0.04542 0.18911 0.0
H1844 H 0.04855 0.02867 0.11721 0.0
H1845 H 0.03242 0.02487 0.15448 0.0
H1846 H 0.97463 0.04906 0.12471 0.0
H1847 H 0.99086 0.05256 0.08688 0.0
C1848 C 0.96126 0.0235 0.18978 0.0
C1849 C 0.97612 0.02661 0.21142 0.0
C1850 C 0.96945 0.02733 0.16765 0.0
C1851 C 0.99267 0.03466 0.16668 0.0
C1852 C 1.00715 0.03899 0.18868 0.0
C1853 C 0.99907 0.03482 0.21052 0.0
C1854 C 0.03248 0.03339 0.11854 0.0
C1855 C 0.02124 0.04118 0.09891 0.0
C1856 C 0.02317 0.0313 0.14014 0.0
C1857 C 1.00219 0.03689 0.14307 0.0
C1858 C 0.99074 0.04447 0.12332 0.0
C1859 C 1.00015 0.04662 0.10159 0.0
H1860 H 0.29529 0.64572 0.48278 0.0
H1861 H 0.26269 0.69185 0.52334 0.0
H1862 H 0.29459 0.66873 0.44928 0.0
H1863 H 0.2615 0.7141 0.4903 0.0
H1864 H 0.27483 0.76237 0.44217 0.0
H1865 H 0.28864 0.7396 0.47157 0.0
H1866 H 0.26575 0.67909 0.41972 0.0
H1867 H 0.25298 0.70218 0.38999 0.0
C1868 C 0.2878 0.66058 0.48437 0.0
C1869 C 0.27927 0.66727 0.50558 0.0
C1870 C 0.28757 0.67375 0.46541 0.0
C1871 C 0.27872 0.69355 0.46767 0.0
C1872 C 0.26931 0.69946 0.48851 0.0
C1873 C 0.26969 0.68653 0.50732 0.0
C1874 C 0.27325 0.74429 0.43705 0.0
C1875 C 0.26225 0.73369 0.41444 0.0
C1876 C 0.28119 0.73132 0.45367 0.0
C1877 C 0.27752 0.70758 0.44802 0.0
C1878 C 0.26863 0.69735 0.4245 0.0
C1879 C 0.2611 0.71044 0.40767 0.0
H1880 H 0.63798 0.01463 0.69704 0.0
H1881 H 0.67523 0.07642 0.67705 0.0
H1882 H 0.61604 1.00618 0.65684 0.0
H1883 H 0.6531 0.06811 0.63693 0.0
H1884 H 0.59199 1.01077 0.56984 0.0
H1885 H 0.62226 1.00941 0.60151 0.0
H1886 H 0.60326 0.06344 0.64611 0.0
H1887 H 0.57327 0.06534 0.61436 0.0
C1888 C 0.64215 0.02569 0.68351 0.0
C1889 C 0.65788 0.04614 0.68961 0.0
C1890 C 0.62978 0.02084 0.6607 0.0
C1891 C 0.63313 0.03664 0.64434 0.0
C1892 C 0.65069 0.05574 0.64952 0.0
C1893 C 0.66321 0.06047 0.67226 0.0
C1894 C 0.59453 0.02262 0.58625 0.0
C1895 C 0.58092 0.03873 0.58955 0.0
C1896 C 0.61162 0.02162 0.60425 0.0
C1897 C 0.61504 0.03669 0.62552 0.0
C1898 C 0.60092 0.05209 0.62932 0.0
C1899 C 0.58385 0.0531 0.61137 0.0
H1900 H 0.34339 0.39147 0.97262 0.0
H1901 H 0.28225 0.34599 0.98117 0.0
H1902 H 0.34124 0.37304 0.93096 0.0
H1903 H 0.27961 0.32797 0.9394 0.0
H1904 H 0.27016 0.32209 0.85516 0.0
H1905 H 0.27316 0.33887 0.89729 0.0
H1906 H 0.34308 0.33478 0.90781 0.0
H1907 H 0.33986 0.31792 0.86569 0.0
C1908 C 0.32954 0.37749 0.96555 0.0
C1909 C 0.3131 0.37 0.98012 0.0
C1910 C 0.32831 0.36687 0.94175 0.0
C1911 C 0.31024 0.34898 0.93175 0.0
C1912 C 0.29371 0.3417 0.94642 0.0
C1913 C 0.29528 0.35191 0.97038 0.0
C1914 C 0.28618 0.32465 0.86648 0.0
C1915 C 0.30482 0.31839 0.85695 0.0
C1916 C 0.28786 0.33419 0.8907 0.0
C1917 C 0.30837 0.33822 0.90605 0.0
C1918 C 0.32703 0.33204 0.89653 0.0
C1919 C 0.32518 0.32208 0.8724 0.0
H1920 H 0.99839 0.01928 0.3278 0.0
H1921 H 0.93716 0.02848 0.35525 0.0
H1922 H 0.01684 0.02154 0.36915 0.0
H1923 H 0.95517 0.03005 0.39635 0.0
H1924 H 0.99749 0.05576 0.46815 0.0
H1925 H 0.9809 0.05319 0.42655 0.0
H1926 H 0.02098 1.00475 0.40516 0.0
H1927 H 0.03872 1.00853 0.44695 0.0
C1928 C 0.98878 0.02159 0.34265 0.0
C1929 C 0.96626 0.02378 0.33808 0.0
C1930 C 0.99935 0.02276 0.36647 0.0
C1931 C 0.98772 0.02619 0.38648 0.0
C1932 C 0.96502 0.02791 0.38171 0.0
C1933 C 0.95452 0.02677 0.35797 0.0
C1934 C 1.00282 0.04446 0.45469 0.0
C1935 C 0.01917 0.03188 0.46132 0.0
C1936 C 0.99308 0.04284 0.43063 0.0
C1937 C 0.99906 0.02837 0.41216 0.0
C1938 C 1.01581 0.01613 0.41866 0.0
C1939 C 0.02585 0.01803 0.44283 0.0
H1940 H 0.31835 0.69382 0.62574 0.0
H1941 H 0.25412 0.65804 0.64011 0.0
H1942 H 0.32414 0.71622 0.66552 0.0
H1943 H 0.2599 0.68032 0.68018 0.0
H1944 H 0.26049 0.75684 0.70947 0.0
H1945 H 0.2595 0.72368 0.68 0.0
H1946 H 0.32536 0.71817 0.71225 0.0
H1947 H 0.32624 0.75113 0.74184 0.0
C1948 C 0.30611 0.69 0.63808 0.0
C1949 C 0.28584 0.67457 0.6304 0.0
C1950 C 0.30939 0.70271 0.66071 0.0
C1951 C 0.29225 0.70001 0.67544 0.0
C1952 C 0.27316 0.6826 0.66881 0.0
C1953 C 0.26991 0.66988 0.64615 0.0
C1954 C 0.27462 0.74841 0.71016 0.0
C1955 C 0.29327 0.75605 0.72777 0.0
C1956 C 0.27395 0.72936 0.69374 0.0
C1957 C 0.29213 0.71823 0.69457 0.0
C1958 C 0.31102 0.72629 0.71182 0.0
C1959 C 0.31152 0.74507 0.72851 0.0
H1960 H 0.68929 0.0421 0.83574 0.0
H1961 H 0.64369 0.07591 0.79623 0.0
H1962 H 0.66683 0.04238 0.86943 0.0
H1963 H 0.622 0.07679 0.82949 0.0
H1964 H 0.57544 0.06472 0.87875 0.0
H1965 H 0.59682 0.05003 0.84864 0.0
H1966 H 0.65761 0.07125 0.8994 0.0
H1967 H 0.63595 0.08489 0.92979 0.0
C1968 C 0.67464 0.04975 0.83444 0.0
C1969 C 0.66794 0.05876 0.81349 0.0
C1970 C 0.66178 0.04974 0.85348 0.0
C1971 C 0.64231 0.05888 0.85161 0.0
C1972 C 0.63636 0.06871 0.83098 0.0
C1973 C 0.64897 0.06853 0.81206 0.0
C1974 C 0.59329 0.06579 0.88346 0.0
C1975 C 0.6044 0.07664 0.90596 0.0
C1976 C 0.60545 0.05731 0.86644 0.0
C1977 C 0.6289 0.06028 0.87159 0.0
C1978 C 0.63958 0.06892 0.895 0.0
C1979 C 0.62729 0.07698 0.9122 0.0
H1980 H 0.34675 0.35886 0.11922 0.0
H1981 H 0.27896 0.3695 0.10727 0.0
H1982 H 0.33984 0.34548 0.15753 0.0
H1983 H 0.27158 0.35514 0.14568 0.0
H1984 H 0.27477 0.3429 0.228 0.0
H1985 H 0.27971 0.36016 0.19066 0.0
H1986 H 0.31974 0.31168 0.16938 0.0
H1987 H 0.315 0.29486 0.20627 0.0
C1988 C 0.33031 0.35838 0.12485 0.0
C1989 C 0.3134 0.36511 0.11003 0.0
C1990 C 0.32624 0.35049 0.14681 0.0
C1991 C 0.30495 0.3486 0.15465 0.0
C1992 C 0.2882 0.35632 0.14036 0.0
C1993 C 0.29242 0.36459 0.11832 0.0
C1994 C 0.2846 0.33599 0.21527 0.0
C1995 C 0.29455 0.31752 0.22027 0.0
C1996 C 0.28735 0.34581 0.19379 0.0
C1997 C 0.30046 0.33764 0.17699 0.0
C1998 C 0.30995 0.31887 0.18196 0.0
C1999 C 0.30703 0.30901 0.20314 0.0
H2000 H 0.23536 0.94379 0.97999 0.0
H2001 H 0.27922 0.9991 0.02791 0.0
H2002 H 0.20314 0.96032 0.98789 0.0
H2003 H 0.24699 0.01534 0.03616 0.0
H2004 H 0.18746 0.04346 0.04519 0.0
H2005 H 0.21468 0.03165 0.02044 0.0
H2006 H 0.18779 0.96142 0.02721 0.0
H2007 H 0.16031 0.97325 0.05147 0.0
C2008 C 0.2381 0.95964 0.99195 0.0
C2009 C 0.25954 0.97004 0.00379 0.0
C2010 C 0.21974 0.9691 0.9963 0.0
C2011 C 0.22268 0.98893 0.01267 0.0
C2012 C 0.24437 1.00017 0.02318 0.0
C2013 C 0.26275 0.99078 0.0187 0.0
C2014 C 0.18714 0.02549 0.04088 0.0
C2015 C 0.17229 1.00916 0.05049 0.0
C2016 C 0.20259 0.0188 0.02676 0.0
C2017 C 0.2033 0.99573 0.02215 0.0
C2018 C 0.1874 0.97933 0.03038 0.0
C2019 C 0.172 0.98604 0.04457 0.0
H2020 H 0.72496 0.63032 0.0199 0.0
H2021 H 0.682 0.67592 0.99918 0.0
H2022 H 0.69188 0.60118 0.02231 0.0
H2023 H 0.64922 0.64735 1.00239 0.0
H2024 H 0.59208 0.58779 0.98957 0.0
H2025 H 0.6265 0.61324 0.98438 0.0
H2026 H 0.6617 0.58994 0.04468 0.0
H2027 H 0.62713 0.5636 0.04915 0.0
C2028 C 0.70849 0.63414 0.01573 0.0
C2029 C 0.70628 0.65556 0.00917 0.0
C2030 C 0.68945 0.61744 0.01736 0.0
C2031 C 0.66763 0.62166 0.01244 0.0
C2032 C 0.66556 0.64308 0.00582 0.0
C2033 C 0.6845 0.65967 0.00413 0.0
C2034 C 0.6072 0.58789 1.0016 0.0
C2035 C 0.60676 0.57366 0.01983 0.0
C2036 C 0.62701 0.60272 0.99877 0.0
C2037 C 0.64704 0.60415 0.01435 0.0
C2038 C 0.64677 0.58933 0.03217 0.0
C2039 C 0.6269 0.57421 0.0348 0.0
H2040 H 0.69076 0.50986 0.32838 0.0
H2041 H 0.65845 0.49364 0.25481 0.0
H2042 H 0.70908 0.47734 0.3231 0.0
H2043 H 0.67736 0.4617 0.24891 0.0
H2044 H 0.70306 0.39848 0.24478 0.0
H2045 H 0.68002 0.42498 0.25834 0.0
H2046 H 0.73844 0.46669 0.30307 0.0
H2047 H 0.76104 0.43955 0.29005 0.0
C2048 C 0.68754 0.49914 0.31112 0.0
C2049 C 0.67317 0.50393 0.29203 0.0
C2050 C 0.6981 0.48063 0.30801 0.0
C2051 C 0.69468 0.46675 0.28561 0.0
C2052 C 0.68 0.4716 0.2666 0.0
C2053 C 0.66927 0.48996 0.26984 0.0
C2054 C 0.71065 0.41289 0.25823 0.0
C2055 C 0.73367 0.41701 0.26657 0.0
C2056 C 0.6976 0.42827 0.26572 0.0
C2057 C 0.70744 0.4483 0.28138 0.0
C2058 C 0.73021 0.45145 0.29109 0.0
C2059 C 0.7432 0.43591 0.28374 0.0
H2060 H 0.86733 0.48282 0.5283 0.0
H2061 H 0.89607 0.43864 0.48048 0.0
H2062 H 0.90464 0.50528 0.54331 0.0
H2063 H 0.93318 0.46161 0.49469 0.0
H2064 H 0.9974 0.49084 0.52888 0.0
H2065 H 0.9601 0.4694 0.53059 0.0
H2066 H 0.93403 0.53094 0.52843 0.0
H2067 H 0.97206 0.55272 0.52942 0.0
C2068 C 0.88162 0.47813 0.52078 0.0
C2069 C 0.87902 0.45895 0.50339 0.0
C2070 C 0.9029 0.49088 0.52949 0.0
C2071 C 0.92173 0.48475 0.52068 0.0
C2072 C 0.91896 0.46613 0.50254 0.0
C2073 C 0.89777 0.45319 0.49412 0.0
C2074 C 0.98402 0.49998 0.53068 0.0
C2075 C 0.98743 0.52331 0.52958 0.0
C2076 C 0.96257 0.48767 0.53104 0.0
C2077 C 0.94424 0.49847 0.52884 0.0
C2078 C 0.94792 0.52222 0.53011 0.0
C2079 C 0.96955 0.53463 0.53052 0.0
H2080 H 0.38242 0.09937 0.3451 0.0
H2081 H 0.35805 0.06155 0.27441 0.0
H2082 H 0.36815 0.13223 0.33209 0.0
H2083 H 0.34458 0.09422 0.26134 0.0
H2084 H 0.34447 0.15864 0.23565 0.0
H2085 H 0.36815 0.13794 0.25882 0.0
H2086 H 0.32287 0.13358 0.31276 0.0
H2087 H 0.29927 0.1545 0.28974 0.0
C2088 C 0.37404 0.09825 0.32686 0.0
C2089 C 0.37107 0.07829 0.31061 0.0
C2090 C 0.36612 0.11687 0.3195 0.0
C2091 C 0.35596 0.11558 0.29569 0.0
C2092 C 0.35285 0.09549 0.27966 0.0
C2093 C 0.3602 0.07683 0.28716 0.0
C2094 C 0.33986 0.15349 0.25263 0.0
C2095 C 0.31982 0.15713 0.26064 0.0
C2096 C 0.3535 0.14216 0.26599 0.0
C2097 C 0.34698 0.13427 0.28723 0.0
C2098 C 0.32812 0.13983 0.29647 0.0
C2099 C 0.31454 0.15133 0.28317 0.0
H2100 H 0.31789 0.13268 0.49368 0.0
H2101 H 0.34964 0.18313 0.55368 0.0
H2102 H 0.35025 0.11462 0.49678 0.0
H2103 H 0.38132 0.16412 0.55849 0.0
H2104 H 0.44098 0.13299 0.55983 0.0
H2105 H 0.41323 0.15462 0.54604 0.0
H2106 H 0.36619 0.09147 0.51942 0.0
H2107 H 0.39452 0.07038 0.53193 0.0
C2108 C 0.33183 0.13972 0.50771 0.0
C2109 C 0.33138 0.15914 0.52352 0.0
C2110 C 0.35037 0.12932 0.50965 0.0
C2111 C 0.36856 0.13765 0.52804 0.0
C2112 C 0.36803 0.15737 0.54373 0.0
C2113 C 0.34976 0.16819 0.54123 0.0
C2114 C 0.42499 0.12394 0.55003 0.0
C2115 C 0.41985 0.10013 0.54654 0.0
C2116 C 0.40887 0.13625 0.54257 0.0
C2117 C 0.3871 0.12493 0.53201 0.0
C2118 C 0.38268 0.101 0.52718 0.0
C2119 C 0.39892 0.08878 0.5343 0.0
H2120 H 0.65904 0.649 0.28808 0.0
H2121 H 0.70712 0.61487 0.32272 0.0
H2122 H 0.68952 0.68018 0.2833 0.0
H2123 H 0.73764 0.64664 0.31866 0.0
H2124 H 0.77378 0.72753 0.33222 0.0
H2125 H 0.7474 0.69224 0.33587 0.0
H2126 H 0.72578 0.68353 0.25914 0.0
H2127 H 0.7531 0.71801 0.25537 0.0
C2128 C 0.67609 0.64827 0.29496 0.0
C2129 C 0.68057 0.62948 0.30596 0.0
C2130 C 0.69357 0.66606 0.29202 0.0
C2131 C 0.71599 0.66584 0.30053 0.0
C2132 C 0.72053 0.64727 0.31192 0.0
C2133 C 0.70305 0.62912 0.31426 0.0
C2134 C 0.76388 0.71762 0.31608 0.0
C2135 C 0.76545 0.72542 0.29352 0.0
C2136 C 0.74873 0.69752 0.31816 0.0
C2137 C 0.73433 0.68525 0.29784 0.0
C2138 C 0.73656 0.69267 0.27514 0.0
C2139 C 0.75224 0.71232 0.27295 0.0
H2140 H 0.85846 0.47145 0.79037 0.0
H2141 H 0.8963 0.44307 0.8448 0.0
H2142 H 0.83394 0.43442 0.77771 0.0
H2143 H 0.87138 0.40598 0.83219 0.0
H2144 H 0.84625 0.34158 0.78187 0.0
H2145 H 0.86735 0.38043 0.79049 0.0
H2146 H 0.80584 0.4046 0.79612 0.0
H2147 H 0.78444 0.36549 0.78753 0.0
C2148 C 0.86126 0.45737 0.79991 0.0
C2149 C 0.8794 0.45985 0.81832 0.0
C2150 C 0.84726 0.43631 0.79263 0.0
C2151 C 0.85125 0.41763 0.80374 0.0
C2152 C 0.86853 0.4203 0.82306 0.0
C2153 C 0.88266 0.44135 0.83027 0.0
C2154 C 0.83711 0.35517 0.78421 0.0
C2155 C 0.81383 0.35069 0.78458 0.0
C2156 C 0.84921 0.37729 0.7894 0.0
C2157 C 0.83809 0.39506 0.79461 0.0
C2158 C 0.81461 0.3909 0.79244 0.0
C2159 C 0.80247 0.36868 0.78748 0.0
H2160 H 0.04883 0.87325 0.11832 0.0
H2161 H 0.0979 0.8676 0.0699 0.0
H2162 H 0.04326 0.9089 0.10387 0.0
H2163 H 0.09306 0.90404 0.05612 0.0
H2164 H 0.09445 0.98446 0.05871 0.0
H2165 H 0.0997 0.94766 0.0708 0.0
H2166 H 0.02813 0.92582 0.06708 0.0
H2167 H 0.02296 0.96211 0.05414 0.0
C2168 C 0.05859 0.87954 0.10459 0.0
C2169 C 0.07388 0.86691 0.09548 0.0
C2170 C 0.05531 0.90026 0.09615 0.0
C2171 C 0.06768 0.91009 0.07866 0.0
C2172 C 0.08315 0.89756 0.06964 0.0
C2173 C 0.08589 0.87635 0.07752 0.0
C2174 C 0.0797 0.97184 0.06023 0.0
C2175 C 0.05811 0.97691 0.05503 0.0
C2176 C 0.08276 0.95042 0.06719 0.0
C2177 C 0.06444 0.93307 0.07015 0.0
C2178 C 0.0429 0.93828 0.06526 0.0
C2179 C 0.03984 0.95939 0.05759 0.0
H2180 H 0.92716 0.29152 0.94201 0.0
H2181 H 0.9631 0.26839 0.88555 0.0
H2182 H 0.8955 0.29214 0.91227 0.0
H2183 H 0.93083 0.26839 0.85545 0.0
H2184 H 0.87581 0.29122 0.80493 0.0
H2185 H 0.90837 0.28959 0.83338 0.0
H2186 H 0.86466 0.27087 0.88643 0.0
H2187 H 0.83223 0.2724 0.85796 0.0
C2188 C 0.92832 0.28626 0.92322 0.0
C2189 C 0.94798 0.27969 0.91655 0.0
C2190 C 0.90985 0.28649 0.90594 0.0
C2191 C 0.91 0.28006 0.88105 0.0
C2192 C 0.92977 0.27364 0.87425 0.0
C2193 C 0.94839 0.27348 0.89165 0.0
C2194 C 0.87296 0.2863 0.82243 0.0
C2195 C 0.85091 0.28162 0.8286 0.0
C2196 C 0.89188 0.28544 0.839 0.0
C2197 C 0.88964 0.28015 0.86265 0.0
C2198 C 0.86755 0.27539 0.86873 0.0
C2199 C 0.84868 0.27609 0.85214 0.0
H2200 H 0.54148 0.23056 0.60203 0.0
H2201 H 0.60373 0.23745 0.57187 0.0
H2202 H 0.5356 0.18922 0.59285 0.0
H2203 H 0.59794 0.1969 0.56201 0.0
H2204 H 0.59127 0.12072 0.55198 0.0
H2205 H 0.59694 0.16118 0.5629 0.0
H2206 H 0.52753 0.15352 0.57522 0.0
H2207 H 0.52261 0.11264 0.56488 0.0
C2208 C 0.55402 0.22336 0.59346 0.0
C2209 C 0.57314 0.23798 0.5878 0.0
C2210 C 0.55059 0.19922 0.58787 0.0
C2211 C 0.56617 0.18837 0.57642 0.0
C2212 C 0.58529 0.20333 0.57101 0.0
C2213 C 0.58863 0.22725 0.57654 0.0
C2214 C 0.57719 0.12752 0.55683 0.0
C2215 C 0.55654 0.11264 0.5571 0.0
C2216 C 0.58031 0.15138 0.5632 0.0
C2217 C 0.56274 0.16208 0.57004 0.0
C2218 C 0.54194 0.14701 0.57045 0.0
C2219 C 0.53899 0.12304 0.56429 0.0
H2220 H 0.55624 0.79712 0.38562 0.0
H2221 H 0.59199 0.76953 0.44184 0.0
H2222 H 0.58872 0.80134 0.36401 0.0
H2223 H 0.62439 0.77206 0.41933 0.0
H2224 H 0.68658 0.80758 0.38636 0.0
H2225 H 0.65453 0.79606 0.40781 0.0
H2226 H 0.61038 0.78438 0.34011 0.0
H2227 H 0.6425 0.79704 0.31921 0.0
C2228 C 0.57102 0.79149 0.39308 0.0
C2229 C 0.57156 0.78292 0.41533 0.0
C2230 C 0.58969 0.79367 0.38054 0.0
C2231 C 0.60938 0.78669 0.38948 0.0
C2232 C 0.60978 0.77788 0.41182 0.0
C2233 C 0.59118 0.77631 0.42474 0.0
C2234 C 0.67005 0.80185 0.37607 0.0
C2235 C 0.66702 0.80303 0.35112 0.0
C2236 C 0.65155 0.79528 0.38836 0.0
C2237 C 0.6295 0.78978 0.37597 0.0
C2238 C 0.62687 0.78918 0.35059 0.0
C2239 C 0.64534 0.79597 0.3384 0.0
H2240 H 0.02817 0.24815 0.3782 0.0
H2241 H 0.08695 0.27974 0.42826 0.0
H2242 H 0.02647 0.21295 0.39627 0.0
H2243 H 0.08607 0.24441 0.44587 0.0
H2244 H 0.0525 0.1949 0.49543 0.0
H2245 H 0.06425 0.22573 0.47209 0.0
H2246 H 0.03924 0.18019 0.40592 0.0
H2247 H 0.02681 0.14961 0.42972 0.0
C2248 C 0.04135 0.24717 0.39235 0.0
C2249 C 0.05792 0.26651 0.40155 0.0
C2250 C 0.04039 0.22698 0.40285 0.0
C2251 C 0.056 0.22568 0.42287 0.0
C2252 C 0.07347 0.24472 0.43087 0.0
C2253 C 0.07425 0.26492 0.42052 0.0
C2254 C 0.05039 0.19131 0.4759 0.0
C2255 C 0.03912 0.16979 0.4644 0.0
C2256 C 0.05704 0.20903 0.46238 0.0
C2257 C 0.05255 0.20572 0.43691 0.0
C2258 C 0.04267 0.18363 0.42543 0.0
C2259 C 0.0359 0.16593 0.43903 0.0
H2260 H 0.5984 0.242 0.23429 0.0
H2261 H 0.6171 0.30915 0.21455 0.0
H2262 H 0.63812 0.24298 0.24905 0.0
H2263 H 0.65602 0.31056 0.22954 0.0
H2264 H 0.72765 0.30225 0.23149 0.0
H2265 H 0.68776 0.29945 0.22064 0.0
H2266 H 0.67383 0.2544 0.27417 0.0
H2267 H 0.71438 0.25695 0.28471 0.0
C2268 C 0.61073 0.25732 0.23381 0.0
C2269 C 0.60396 0.27564 0.22335 0.0
C2270 C 0.63385 0.25785 0.24211 0.0
C2271 C 0.65123 0.27664 0.24014 0.0
C2272 C 0.64398 0.29529 0.23089 0.0
C2273 C 0.62119 0.2947 0.22261 0.0
C2274 C 0.71628 0.29162 0.24107 0.0
C2275 C 0.72497 0.27979 0.25907 0.0
C2276 C 0.69293 0.29016 0.23494 0.0
C2277 C 0.67663 0.27701 0.24662 0.0
C2278 C 0.68526 0.26473 0.2644 0.0
C2279 C 0.70884 0.26611 0.27048 0.0
H2280 H 0.59872 0.90133 0.90933 0.0
H2281 H 0.52702 0.87813 0.89976 0.0
H2282 H 0.59526 0.93419 0.93737 0.0
H2283 H 0.52332 0.91074 0.92767 0.0
H2284 H 0.52173 0.9825 0.96386 0.0
H2285 H 0.52537 0.95065 0.93487 0.0
H2286 H 0.58707 0.94585 0.97732 0.0
H2287 H 0.58351 0.97826 0.00593 0.0
C2288 C 0.58213 0.90353 0.91275 0.0
C2289 C 0.56312 0.88728 0.90166 0.0
C2290 C 0.58011 0.92225 0.92922 0.0
C2291 C 0.55895 0.92552 0.93513 0.0
C2292 C 0.53993 0.90933 0.92361 0.0
C2293 C 0.54201 0.89049 0.90744 0.0
C2294 C 0.53628 0.97493 0.96678 0.0
C2295 C 0.55261 0.98349 0.98698 0.0
C2296 C 0.53825 0.95629 0.95026 0.0
C2297 C 0.5567 0.94543 0.95324 0.0
C2298 C 0.57282 0.95379 0.97384 0.0
C2299 C 0.57071 0.97235 0.99048 0.0
H2300 H 0.95149 0.77061 0.68974 0.0
H2301 H 0.97453 0.75789 0.76112 0.0
H2302 H 0.91594 0.77607 0.70265 0.0
H2303 H 0.93849 0.76287 0.77419 0.0
H2304 H 0.87578 0.78936 0.79793 0.0
H2305 H 0.91205 0.78423 0.78584 0.0
H2306 H 0.88051 0.76335 0.71232 0.0
H2307 H 0.84447 0.7683 0.72459 0.0
C2308 C 0.94902 0.76863 0.70826 0.0
C2309 C 0.96653 0.76345 0.72404 0.0
C2310 C 0.92816 0.77174 0.71582 0.0
C2311 C 0.92326 0.76989 0.73977 0.0
C2312 C 0.94089 0.76477 0.75566 0.0
C2313 C 0.96187 0.76166 0.74803 0.0
C2314 C 0.87646 0.78364 0.77914 0.0
C2315 C 0.85648 0.77916 0.7625 0.0
C2316 C 0.89759 0.78051 0.77206 0.0
C2317 C 0.90019 0.77318 0.74777 0.0
C2318 C 0.88014 0.76911 0.73115 0.0
C2319 C 0.85899 0.77182 0.73831 0.0
H2320 H 0.09087 0.05684 0.84503 0.0
H2321 H 0.15565 0.05937 0.88519 0.0
H2322 H 0.07314 0.05068 0.88124 0.0
H2323 H 0.13823 0.05426 0.92174 0.0
H2324 H 0.10036 0.02576 0.98081 0.0
H2325 H 0.1173 0.03024 0.94376 0.0
H2326 H 0.06551 0.06493 0.91823 0.0
H2327 H 0.0482 0.05942 0.95468 0.0
C2328 C 0.10142 0.05644 0.8617 0.0
C2329 C 0.12477 0.05872 0.86203 0.0
C2330 C 0.09122 0.05298 0.8827 0.0
C2331 C 0.10403 0.05187 0.90491 0.0
C2332 C 0.12749 0.0545 0.90518 0.0
C2333 C 0.13764 0.05775 0.88413 0.0
C2334 C 0.09249 0.03416 0.96716 0.0
C2335 C 0.07275 0.04204 0.97083 0.0
C2336 C 0.10237 0.03699 0.94585 0.0
C2337 C 0.09306 0.04813 0.92756 0.0
C2338 C 0.0732 0.05589 0.93133 0.0
C2339 C 0.0632 0.05279 0.95247 0.0
H2340 H 0.77177 0.40421 0.55552 0.0
H2341 H 0.84358 0.42572 0.57366 0.0
H2342 H 0.76971 0.38824 0.59399 0.0
H2343 H 0.84148 0.41054 0.61205 0.0
H2344 H 0.83062 0.33788 0.63074 0.0
H2345 H 0.81358 0.35647 0.59904 0.0
H2346 H 0.80132 0.40737 0.65309 0.0
H2347 H 0.81775 0.38823 0.68498 0.0
C2348 C 0.78683 0.40654 0.56836 0.0
C2349 C 0.80781 0.41603 0.56209 0.0
C2350 C 0.78565 0.39747 0.59015 0.0
C2351 C 0.80545 0.39836 0.60558 0.0
C2352 C 0.82605 0.41008 0.60035 0.0
C2353 C 0.82726 0.41874 0.57856 0.0
C2354 C 0.8235 0.35254 0.63576 0.0
C2355 C 0.82585 0.3622 0.65988 0.0
C2356 C 0.81352 0.36291 0.61781 0.0
C2357 C 0.80627 0.38319 0.62396 0.0
C2358 C 0.80662 0.39158 0.64823 0.0
C2359 C 0.81624 0.3809 0.66626 0.0
H2360 H 0.43033 0.06578 0.39017 0.0
H2361 H 0.41423 0.99271 0.38543 0.0
H2362 H 0.45839 0.06766 0.42474 0.0
H2363 H 0.44185 0.99438 0.42105 0.0
H2364 H 0.51607 1.00811 0.45664 0.0
H2365 H 0.4832 1.00424 0.42636 0.0
H2366 H 0.4642 0.06148 0.46603 0.0
H2367 H 0.4975 0.06611 0.49519 0.0
C2368 C 0.4321 0.05025 0.39752 0.0
C2369 C 0.42006 0.02919 0.386 0.0
C2370 C 0.44816 0.05125 0.41714 0.0
C2371 C 0.45216 0.03115 0.4255 0.0
C2372 C 0.43908 1.01006 0.41473 0.0
C2373 C 0.4231 1.00909 0.39481 0.0
C2374 C 0.50486 0.01989 0.4586 0.0
C2375 C 0.50895 0.03723 0.47814 0.0
C2376 C 0.48596 0.01746 0.44164 0.0
C2377 C 0.47112 0.0324 0.44419 0.0
C2378 C 0.47543 0.04979 0.46372 0.0
C2379 C 0.49438 0.05237 0.48041 0.0
H2380 H 0.7448 0.73478 0.08714 0.0
H2381 H 0.80606 0.70943 0.096 0.0
H2382 H 0.74925 0.74761 0.13001 0.0
H2383 H 0.81122 0.72332 0.1394 0.0
H2384 H 0.80392 0.73478 0.22073 0.0
H2385 H 0.80009 0.72015 0.178 0.0
H2386 H 0.76859 0.77548 0.16015 0.0
H2387 H 0.77204 0.78972 0.20281 0.0
C2388 C 0.75944 0.7321 0.09825 0.0
C2389 C 0.77515 0.72119 0.08784 0.0
C2390 C 0.76212 0.73971 0.12305 0.0
C2391 C 0.78085 0.73708 0.13858 0.0
C2392 C 0.79645 0.72567 0.12829 0.0
C2393 C 0.79356 0.71771 0.1033 0.0
C2394 C 0.79605 0.74381 0.20772 0.0
C2395 C 0.78793 0.76334 0.21554 0.0
C2396 C 0.79401 0.73545 0.18301 0.0
C2397 C 0.78381 0.74632 0.16517 0.0
C2398 C 0.77602 0.76608 0.17307 0.0
C2399 C 0.77802 0.77439 0.19776 0.0
H2400 H 0.14595 0.06766 0.72081 0.0
H2401 H 0.07807 0.04198 0.73317 0.0
H2402 H 0.13321 0.06498 0.67743 0.0
H2403 H 0.06541 0.03817 0.69 0.0
H2404 H 0.04342 0.05831 0.61704 0.0
H2405 H 0.05775 0.06028 0.65962 0.0
H2406 H 0.11908 0.04259 0.63974 0.0
H2407 H 0.10485 0.04112 0.59718 0.0
C2408 C 0.1284 0.06088 0.71417 0.0
C2409 C 0.11301 0.0551 0.73048 0.0
C2410 C 0.12101 0.05936 0.68923 0.0
C2411 C 0.09806 0.05172 0.6799 0.0
C2412 C 0.08302 0.04485 0.69629 0.0
C2413 C 0.09033 0.04676 0.72112 0.0
C2414 C 0.06002 0.05498 0.62172 0.0
C2415 C 0.07285 0.04944 0.6035 0.0
C2416 C 0.06823 0.05586 0.64627 0.0
C2417 C 0.08961 0.05132 0.6535 0.0
C2418 C 0.10263 0.04629 0.63519 0.0
C2419 C 0.09435 0.04529 0.61063 0.0
H2420 H 0.81656 0.38177 0.45547 0.0
H2421 H 0.80604 0.43556 0.41316 0.0
H2422 H 0.81769 0.35717 0.4192 0.0
H2423 H 0.80739 0.41044 0.37623 0.0
H2424 H 0.77204 0.34191 0.32522 0.0
H2425 H 0.77932 0.37355 0.35785 0.0
H2426 H 0.84045 0.35347 0.38513 0.0
H2427 H 0.83306 0.32171 0.35272 0.0
C2428 C 0.81498 0.38852 0.43841 0.0
C2429 C 0.81114 0.41049 0.43695 0.0
C2430 C 0.81581 0.37446 0.41768 0.0
C2431 C 0.81282 0.38214 0.39517 0.0
C2432 C 0.80978 0.40438 0.39361 0.0
C2433 C 0.80906 0.41863 0.41456 0.0
C2434 C 0.78715 0.34455 0.33806 0.0
C2435 C 0.80206 0.32966 0.33679 0.0
C2436 C 0.79143 0.3627 0.35641 0.0
C2437 C 0.81054 0.36587 0.37357 0.0
C2438 C 0.82569 0.35124 0.37189 0.0
C2439 C 0.82138 0.33309 0.35363 0.0
H2440 H 0.43848 0.06403 0.26496 0.0
H2441 H 0.4247 0.99072 0.25216 0.0
H2442 H 0.45269 0.06552 0.22549 0.0
H2443 H 0.43797 0.99219 0.21284 0.0
H2444 H 0.50365 1.00502 0.18396 0.0
H2445 H 0.48807 0.02154 0.21832 0.0
H2446 H 0.43294 0.03341 0.16996 0.0
H2447 H 0.44895 0.0173 0.13532 0.0
C2448 C 0.43788 0.04838 0.25331 0.0
C2449 C 0.4311 0.02726 0.26134 0.0
C2450 C 0.44583 0.04924 0.23094 0.0
C2451 C 0.44641 0.02896 0.21664 0.0
C2452 C 0.43759 1.00796 0.22383 0.0
C2453 C 0.43016 1.00711 0.24619 0.0
C2454 C 0.4887 1.012 0.18072 0.0
C2455 C 0.47701 1.00957 0.15747 0.0
C2456 C 0.48001 0.02166 0.20018 0.0
C2457 C 0.45944 0.02861 0.19646 0.0
C2458 C 0.44895 0.02831 0.17296 0.0
C2459 C 0.45785 0.01887 0.15338 0.0
H2460 H 0.77179 0.67693 0.93275 0.0
H2461 H 0.78621 0.74387 0.97331 0.0
H2462 H 0.77668 0.69367 0.89546 0.0
H2463 H 0.79225 0.76067 0.93647 0.0
H2464 H 0.78013 0.78678 0.86459 0.0
H2465 H 0.77563 0.76956 0.90111 0.0
H2466 H 0.80078 0.7121 0.87082 0.0
H2467 H 0.80474 0.72939 0.83357 0.0
C2468 C 0.77603 0.69526 0.93373 0.0
C2469 C 0.7783 0.70901 0.95612 0.0
C2470 C 0.77911 0.70494 0.91227 0.0
C2471 C 0.78488 0.72872 0.9125 0.0
C2472 C 0.78732 0.74237 0.93507 0.0
C2473 C 0.78391 0.7327 0.95642 0.0
C2474 C 0.78506 0.77061 0.86568 0.0
C2475 C 0.79319 0.75975 0.846 0.0
C2476 C 0.78248 0.76063 0.8869 0.0
C2477 C 0.78795 0.73932 0.88947 0.0
C2478 C 0.79609 0.72837 0.86973 0.0
C2479 C 0.79858 0.73839 0.84831 0.0
H2480 H 0.85184 0.1335 0.09481 0.0
H2481 H 0.80929 0.07781 0.04656 0.0
H2482 H 0.88477 0.118 0.08671 0.0
H2483 H 0.84192 0.06308 0.03731 0.0
H2484 H 0.90259 0.03961 0.02163 0.0
H2485 H 0.8744 0.04782 0.04685 0.0
H2486 H 0.9011 0.11983 0.0497 0.0
H2487 H 0.9298 0.1114 0.02525 0.0
C2488 C 0.84956 0.11754 0.08313 0.0
C2489 C 0.8283 0.10678 0.07118 0.0
C2490 C 0.86831 0.1088 0.07833 0.0
C2491 C 0.86594 0.08963 0.06103 0.0
C2492 C 0.84432 0.0777 0.05098 0.0
C2493 C 0.82558 0.08613 0.05624 0.0
C2494 C 0.90252 0.05716 0.028 0.0
C2495 C 0.91791 0.07498 0.02128 0.0
C2496 C 0.88648 0.06184 0.04242 0.0
C2497 C 0.88551 0.08442 0.05018 0.0
C2498 C 0.90159 0.10222 0.04425 0.0
C2499 C 0.91769 0.0975 0.02986 0.0
H2500 H 0.37065 0.45252 0.06366 0.0
H2501 H 0.40009 0.4038 0.02275 0.0
H2502 H 0.40474 0.48173 0.06373 0.0
H2503 H 0.43349 0.43291 0.02249 0.0
H2504 H 0.47584 0.49883 1.00229 0.0
H2505 H 0.43988 0.47316 0.0035 0.0
H2506 H 0.45062 0.48488 0.08141 0.0
H2507 H 0.48745 0.50953 0.08014 0.0
C2508 C 0.38428 0.448 0.05471 0.0
C2509 C 0.38255 0.42567 0.04331 0.0
C2510 C 0.40379 0.46472 0.0548 0.0
C2511 C 0.42173 0.45957 0.04305 0.0
C2512 C 0.41989 0.4374 0.03154 0.0
C2513 C 0.40072 0.42068 0.03182 0.0
C2514 C 0.47049 0.49591 0.01967 0.0
C2515 C 0.48461 0.50563 0.04113 0.0
C2516 C 0.44992 0.4813 0.02036 0.0
C2517 C 0.4425 0.47694 0.04255 0.0
C2518 C 0.45597 0.48787 0.06407 0.0
C2519 C 0.47704 0.50182 0.06336 0.0
H2520 H 0.44129 0.60106 0.7884 0.0
H2521 H 0.38235 0.55699 0.74737 0.0
H2522 H 0.42109 0.63209 0.79145 0.0
H2523 H 0.36235 0.58818 0.74965 0.0
H2524 H 0.32684 0.63575 0.79543 0.0
H2525 H 0.34647 0.6068 0.78048 0.0
H2526 H 0.40329 0.65924 0.77321 0.0
H2527 H 0.3835 0.68818 0.78894 0.0
C2528 C 0.42419 0.59815 0.77953 0.0
C2529 C 0.41338 0.5765 0.76784 0.0
C2530 C 0.41259 0.61601 0.78113 0.0
C2531 C 0.38996 0.61268 0.77093 0.0
C2532 C 0.3796 0.59131 0.7581 0.0
C2533 C 0.39113 0.57343 0.75667 0.0
C2534 C 0.34319 0.64104 0.78976 0.0
C2535 C 0.3536 0.66408 0.79303 0.0
C2536 C 0.35453 0.62447 0.7812 0.0
C2537 C 0.37664 0.63059 0.7758 0.0
C2538 C 0.38644 0.65388 0.77753 0.0
C2539 C 0.37502 0.67048 0.78614 0.0
H2540 H 0.20123 0.63108 0.50863 0.0
H2541 H 0.21947 0.59639 0.56888 0.0
H2542 H 0.16385 0.60679 0.50194 0.0
H2543 H 0.18183 0.57253 0.56267 0.0
H2544 H 0.11437 0.52595 0.53695 0.0
H2545 H 0.15333 0.54321 0.53388 0.0
H2546 H 0.13432 0.60805 0.52904 0.0
H2547 H 0.09585 0.59106 0.53266 0.0
C2548 C 0.19726 0.618 0.52016 0.0
C2549 C 0.21293 0.61552 0.53929 0.0
C2550 C 0.176 0.60418 0.51635 0.0
C2551 C 0.17011 0.588 0.53187 0.0
C2552 C 0.18619 0.58469 0.55024 0.0
C2553 C 0.2076 0.59833 0.55384 0.0
C2554 C 0.11857 0.54378 0.53474 0.0
C2555 C 0.1022 0.55718 0.53451 0.0
C2556 C 0.14073 0.55359 0.53304 0.0
C2557 C 0.14659 0.57679 0.53092 0.0
C2558 C 0.13005 0.58997 0.53002 0.0
C2559 C 0.10803 0.58025 0.53198 0.0
H2560 H 0.7386 1.00899 0.72133 0.0
H2561 H 0.70086 0.9959 0.7808 0.0
H2562 H 0.75369 0.97435 0.7258 0.0
H2563 H 0.71594 0.96254 0.78571 0.0
H2564 H 0.73606 0.90244 0.79353 0.0
H2565 H 0.71643 0.92422 0.76731 0.0
H2566 H 0.78011 0.9663 0.75925 0.0
H2567 H 0.79955 0.9439 0.78482 0.0
C2568 C 0.73352 0.99859 0.73512 0.0
C2569 C 0.71856 1.00461 0.75057 0.0
C2570 C 0.74187 0.97886 0.73754 0.0
C2571 C 0.73542 0.96547 0.7556 0.0
C2572 C 0.72042 0.97183 0.77089 0.0
C2573 C 0.71202 0.99112 0.76831 0.0
C2574 C 0.7457 0.91599 0.78552 0.0
C2575 C 0.76897 0.92246 0.79165 0.0
C2576 C 0.73463 0.92821 0.77039 0.0
C2577 C 0.74681 0.94724 0.76187 0.0
C2578 C 0.77036 0.95179 0.7657 0.0
C2579 C 0.78143 0.93941 0.78067 0.0
H2580 H 0.75808 0.92181 0.50419 0.0
H2581 H 0.75903 0.93204 0.58149 0.0
H2582 H 0.72766 0.94256 0.49912 0.0
H2583 H 0.72791 0.95245 0.57648 0.0
H2584 H 0.65254 0.95757 0.54437 0.0
H2585 H 0.68602 0.94255 0.55662 0.0
H2586 H 0.72276 0.98329 0.50966 0.0
H2587 H 0.68927 0.99816 0.4975 0.0
C2588 C 0.75155 0.92838 0.52006 0.0
C2589 C 0.76066 0.92533 0.54317 0.0
C2590 C 0.73434 0.94043 0.51722 0.0
C2591 C 0.72561 0.94934 0.53744 0.0
C2592 C 0.73443 0.94586 0.56063 0.0
C2593 C 0.75212 0.93421 0.5635 0.0
C2594 C 0.66804 0.96376 0.53733 0.0
C2595 C 0.66853 0.97894 0.52009 0.0
C2596 C 0.68714 0.9552 0.54429 0.0
C2597 C 0.70686 0.96153 0.53382 0.0
C2598 C 0.70767 0.9779 0.51775 0.0
C2599 C 0.68864 0.98652 0.51092 0.0
H2600 H 0.43004 0.4402 0.80618 0.0
H2601 H 0.38954 0.4617 0.74867 0.0
H2602 H 0.40051 0.40673 0.80625 0.0
H2603 H 0.36017 0.42765 0.74836 0.0
H2604 H 0.33415 0.3452 0.74032 0.0
H2605 H 0.35993 0.38159 0.73934 0.0
H2606 H 0.35708 0.40029 0.81509 0.0
H2607 H 0.3305 0.36448 0.81574 0.0
C2608 C 0.41489 0.43773 0.79345 0.0
C2609 C 0.41226 0.45361 0.77733 0.0
C2610 C 0.39793 0.41862 0.79361 0.0
C2611 C 0.37806 0.41458 0.77731 0.0
C2612 C 0.37536 0.43032 0.76106 0.0
C2613 C 0.39215 0.44981 0.76129 0.0
C2614 C 0.33883 0.35728 0.75663 0.0
C2615 C 0.33041 0.35209 0.7781 0.0
C2616 C 0.35347 0.37808 0.75606 0.0
C2617 C 0.36058 0.3937 0.77717 0.0
C2618 C 0.35189 0.38857 0.79856 0.0
C2619 C 0.33664 0.36817 0.79891 0.0
H2620 H 0.22216 0.61916 0.2386 0.0
H2621 H 0.2203 0.63057 0.31553 0.0
H2622 H 0.24605 0.6568 0.24049 0.0
H2623 H 0.24494 0.66819 0.31756 0.0
H2624 H 0.30631 0.72652 0.30093 0.0
H2625 H 0.28851 0.68646 0.30182 0.0
H2626 H 0.22973 0.69571 0.25709 0.0
H2627 H 0.24707 0.73548 0.25678 0.0
C2628 C 0.22754 0.62955 0.25598 0.0
C2629 C 0.21978 0.62237 0.27699 0.0
C2630 C 0.24109 0.65087 0.25703 0.0
C2631 C 0.24726 0.66487 0.27919 0.0
C2632 C 0.24044 0.65726 0.30044 0.0
C2633 C 0.22639 0.63606 0.29928 0.0
C2634 C 0.28956 0.71979 0.2915 0.0
C2635 C 0.27777 0.73359 0.27897 0.0
C2636 C 0.27951 0.69718 0.29201 0.0
C2637 C 0.25802 0.68846 0.27941 0.0
C2638 C 0.24639 0.70234 0.2668 0.0
C2639 C 0.25617 0.72492 0.26676 0.0
H2640 H 0.54374 0.71685 0.45953 0.0
H2641 H 0.49043 0.71229 0.504 0.0
H2642 H 0.55113 0.68029 0.47068 0.0
H2643 H 0.4975 0.67604 0.51472 0.0
H2644 H 0.49948 0.59953 0.51192 0.0
H2645 H 0.49376 0.63604 0.50013 0.0
H2646 H 0.56525 0.65895 0.50372 0.0
H2647 H 0.57094 0.62242 0.51612 0.0
C2648 C 0.5334 0.70815 0.47153 0.0
C2649 C 0.51625 0.71813 0.48055 0.0
C2650 C 0.53778 0.68699 0.47814 0.0
C2651 C 0.52493 0.67444 0.49372 0.0
C2652 C 0.50777 0.68446 0.5025 0.0
C2653 C 0.50371 0.70565 0.4963 0.0
C2654 C 0.51413 0.61226 0.51035 0.0
C2655 C 0.53577 0.60744 0.5154 0.0
C2656 C 0.51082 0.63356 0.50357 0.0
C2657 C 0.52892 0.6512 0.50079 0.0
C2658 C 0.55064 0.64624 0.5054 0.0
C2659 C 0.55397 0.62507 0.5128 0.0
H2660 H 0.62328 0.28674 0.67034 0.0
H2661 H 0.66738 0.33839 0.64146 0.0
H2662 H 0.65444 0.28214 0.699 0.0
H2663 H 0.69819 0.33555 0.67118 0.0
H2664 H 0.75752 0.31673 0.71339 0.0
H2665 H 0.72599 0.32115 0.68584 0.0
H2666 H 0.68045 0.28774 0.73088 0.0
H2667 H 0.71237 0.28197 0.75741 0.0
C2668 C 0.6396 0.29756 0.67048 0.0
C2669 C 0.64262 0.31296 0.65338 0.0
C2670 C 0.65777 0.295 0.68718 0.0
C2671 C 0.67973 0.3082 0.68798 0.0
C2672 C 0.68227 0.32424 0.67128 0.0
C2673 C 0.66429 0.32624 0.65415 0.0
C2674 C 0.74079 0.31023 0.71746 0.0
C2675 C 0.7379 0.29908 0.73803 0.0
C2676 C 0.72228 0.31304 0.70156 0.0
C2677 C 0.69979 0.30513 0.70553 0.0
C2678 C 0.69701 0.29406 0.72636 0.0
C2679 C 0.7156 0.29099 0.74211 0.0
H2680 H 0.0481 0.34822 0.99792 0.0
H2681 H 0.9864 0.34879 0.95361 0.0
H2682 H 0.05226 0.38891 0.01188 0.0
H2683 H 0.99015 0.38935 0.96777 0.0
H2684 H 0.99451 0.46072 0.01095 0.0
H2685 H 0.98934 0.41957 0.99939 0.0
H2686 H 0.06089 0.42658 1.00086 0.0
H2687 H 0.06593 0.46743 0.01268 0.0
C2688 C 0.03511 0.35687 0.99149 0.0
C2689 C 0.01666 0.34473 0.97486 0.0
C2690 C 0.03762 0.38052 0.99932 0.0
C2691 C 0.0216 0.39316 0.99118 0.0
C2692 C 1.00289 0.38073 0.9749 0.0
C2693 C 1.00068 0.35722 0.96669 0.0
C2694 C 1.00919 0.45357 0.00911 0.0
C2695 C 0.03065 0.46805 0.01312 0.0
C2696 C 1.00623 0.4297 1.00213 0.0
C2697 C 0.02464 0.41899 0.99903 0.0
C2698 C 0.04611 0.43353 1.0032 0.0
C2699 C 0.04901 0.45735 0.0099 0.0
H2700 H 0.03452 0.78749 0.18193 0.0
H2701 H 0.99763 0.80875 0.12153 0.0
H2702 H 1.00163 0.78399 0.20305 0.0
H2703 H 0.96473 0.80594 0.143 0.0
H2704 H 0.90411 0.76696 0.17547 0.0
H2705 H 0.93665 0.77817 0.15479 0.0
H2706 H 0.97729 0.80332 0.22373 0.0
H2707 H 0.94446 0.79154 0.24433 0.0
C2708 C 0.01938 0.79152 0.17317 0.0
C2709 C 0.01868 0.79817 0.1499 0.0
C2710 C 1.00052 0.78979 0.18545 0.0
C2711 C 0.98039 0.79479 0.17491 0.0
C2712 C 0.97978 0.80167 0.15166 0.0
C2713 C 0.99866 0.80327 0.13929 0.0
C2714 C 0.91991 0.77539 0.18611 0.0
C2715 C 0.9218 0.77833 0.21144 0.0
C2716 C 0.93862 0.78189 0.17428 0.0
C2717 C 0.95984 0.79135 0.1875 0.0
C2718 C 0.96137 0.79565 0.21291 0.0
C2719 C 0.94252 0.78922 0.22476 0.0
H2720 H 0.50609 0.3088 0.15094 0.0
H2721 H 0.56713 0.33958 0.19792 0.0
H2722 H 0.50978 0.34162 0.12897 0.0
H2723 H 0.57195 0.37206 0.175 0.0
H2724 H 0.57334 0.43347 0.13665 0.0
H2725 H 0.5622 0.40493 0.16319 0.0
H2726 H 0.52939 0.35753 0.10059 0.0
H2727 H 0.53974 0.3865 0.07466 0.0
C2728 C 0.5203 0.32279 0.1566 0.0
C2729 C 0.53621 0.3218 0.17623 0.0
C2730 C 0.52261 0.34157 0.14382 0.0
C2731 C 0.54132 0.3597 0.14982 0.0
C2732 C 0.55706 0.3588 0.16993 0.0
C2733 C 0.55442 0.34014 0.18311 0.0
C2734 C 0.56288 0.41724 0.12883 0.0
C2735 C 0.55693 0.41236 0.10368 0.0
C2736 C 0.55689 0.40063 0.14395 0.0
C2737 C 0.54509 0.37855 0.13425 0.0
C2738 C 0.53815 0.37424 0.10907 0.0
C2739 C 0.54399 0.39091 0.09405 0.0
H2740 H 0.98383 0.35715 0.35893 0.0
H2741 H 0.98603 0.28943 0.3284 0.0
H2742 H 0.94439 0.35132 0.34265 0.0
H2743 H 0.9462 0.2834 0.31151 0.0
H2744 H 0.868 0.27032 0.30742 0.0
H2745 H 0.90853 0.27638 0.3191 0.0
H2746 H 0.91441 0.3477 0.31286 0.0
H2747 H 0.87385 0.34152 0.30207 0.0
C2748 C 0.9761 0.34115 0.34794 0.0
C2749 C 0.98881 0.3241 0.34461 0.0
C2750 C 0.95309 0.33769 0.33854 0.0
C2751 C 0.94121 0.31675 0.32551 0.0
C2752 C 0.95412 0.29977 0.32154 0.0
C2753 C 0.97737 0.30337 0.33086 0.0
C2754 C 0.87782 0.28739 0.30858 0.0
C2755 C 0.86697 0.30542 0.30353 0.0
C2756 C 0.90147 0.29088 0.31513 0.0
C2757 C 0.91563 0.31265 0.31718 0.0
C2758 C 0.90471 0.33063 0.31199 0.0
C2759 C 0.88108 0.32708 0.30538 0.0
H2760 H 0.0428 0.68533 0.68351 0.0
H2761 H 1.00252 0.70423 0.62439 0.0
H2762 H 0.04297 0.64907 0.65908 0.0
H2763 H 1.00248 0.66832 0.60009 0.0
H2764 H 0.03363 0.62029 0.55228 0.0
H2765 H 0.02934 0.65267 0.57924 0.0
H2766 H 0.02329 0.61131 0.63707 0.0
H2767 H 0.02739 0.57844 0.60959 0.0
C2768 C 0.03301 0.6813 0.66577 0.0
C2769 C 0.02196 0.69755 0.65635 0.0
C2770 C 0.03337 0.66055 0.65152 0.0
C2771 C 0.023 0.65557 0.62724 0.0
C2772 C 1.01101 0.6714 0.61842 0.0
C2773 C 1.01059 0.69194 0.63263 0.0
C2774 C 0.03111 0.61772 0.57048 0.0
C2775 C 0.03065 0.5962 0.57813 0.0
C2776 C 0.02857 0.63656 0.58622 0.0
C2777 C 0.02566 0.63492 0.61059 0.0
C2778 C 0.02548 0.61351 0.61854 0.0
C2779 C 0.02773 0.59449 0.60258 0.0
H2780 H 0.60879 0.81186 0.80552 0.0
H2781 H 0.64001 0.82212 0.87927 0.0
H2782 H 0.64377 0.80498 0.79182 0.0
H2783 H 0.67505 0.81578 0.86601 0.0
H2784 H 0.73781 0.79492 0.84084 0.0
H2785 H 0.70213 0.79987 0.8537 0.0
H2786 H 0.67823 0.80913 0.78092 0.0
H2787 H 0.71364 0.8026 0.7681 0.0
C2788 C 0.62309 0.81266 0.81899 0.0
C2789 C 0.62091 0.81765 0.84375 0.0
C2790 C 0.64368 0.8088 0.81105 0.0
C2791 C 0.66345 0.80956 0.82736 0.0
C2792 C 0.66099 0.81452 0.85218 0.0
C2793 C 0.64048 0.81845 0.86005 0.0
C2794 C 0.72496 0.79801 0.82748 0.0
C2795 C 0.72925 0.79838 0.80326 0.0
C2796 C 0.70405 0.80109 0.83497 0.0
C2797 C 0.68615 0.80539 0.81885 0.0
C2798 C 0.69063 0.8057 0.79448 0.0
C2799 C 0.71139 0.80201 0.7869 0.0
H2800 H 0.45968 0.55213 0.70682 0.0
H2801 H 0.48932 0.4928 0.70531 0.0
H2802 H 0.47364 0.56005 0.66851 0.0
H2803 H 0.5023 0.5 0.66714 0.0
H2804 H 0.54595 0.52916 0.61555 0.0
H2805 H 0.53035 0.52434 0.65274 0.0
H2806 H 0.47254 0.54977 0.62525 0.0
H2807 H 0.48904 0.55579 0.58786 0.0
C2808 C 0.46885 0.54059 0.69818 0.0
C2809 C 0.4736 0.52197 0.70943 0.0
C2810 C 0.47685 0.54511 0.67615 0.0
C2811 C 0.48963 0.531 0.66473 0.0
C2812 C 0.49329 0.51182 0.67556 0.0
C2813 C 0.48562 0.50752 0.69752 0.0
C2814 C 0.53009 0.53418 0.61739 0.0
C2815 C 0.51894 0.54312 0.59854 0.0
C2816 C 0.52086 0.53102 0.63879 0.0
C2817 C 0.49983 0.53619 0.64214 0.0
C2818 C 0.48877 0.54559 0.62351 0.0
C2819 C 0.49818 0.54896 0.60197 0.0
H2820 H 0.75927 0.18678 0.02174 0.0
H2821 H 0.80266 0.15082 0.98423 0.0
H2822 H 0.75575 0.20923 0.98931 0.0
H2823 H 0.79985 0.17444 0.95135 0.0
H2824 H 0.75811 0.2037 0.8891 0.0
H2825 H 0.77133 0.18149 0.91947 0.0
H2826 H 0.77981 0.23966 0.97411 0.0
H2827 H 0.76567 0.26142 0.94392 0.0
C2828 C 0.76827 0.18382 0.00661 0.0
C2829 C 0.7815 0.16734 0.0056 0.0
C2830 C 0.76645 0.1969 0.98808 0.0
C2831 C 0.77821 0.19416 0.96827 0.0
C2832 C 0.79086 0.17705 0.96666 0.0
C2833 C 0.79239 0.16355 0.98528 0.0
C2834 C 0.76311 0.21172 0.90759 0.0
C2835 C 0.76018 0.23387 0.91458 0.0
C2836 C 0.77087 0.19913 0.92485 0.0
C2837 C 0.77594 0.20871 0.94916 0.0
C2838 C 0.7753 0.23169 0.95555 0.0
C2839 C 0.76717 0.2441 0.93842 0.0
H2840 H 0.16874 0.59437 0.18374 0.0
H2841 H 0.15611 0.52206 0.18645 0.0
H2842 H 0.1474 0.58799 0.14341 0.0
H2843 H 0.1336 0.5156 0.14687 0.0
H2844 H 0.09213 0.51286 0.07422 0.0
H2845 H 0.12599 0.51863 0.10347 0.0
H2846 H 0.10639 0.5766 0.14097 0.0
H2847 H 0.07327 0.57139 0.11132 0.0
C2848 C 0.16205 0.57712 0.17518 0.0
C2849 C 0.16356 0.55867 0.1878 0.0
C2850 C 0.14981 0.57345 0.15234 0.0
C2851 C 0.13837 0.55141 0.14258 0.0
C2852 C 0.14229 0.53275 0.15404 0.0
C2853 C 0.15506 0.5364 0.17664 0.0
C2854 C 0.09535 0.52697 0.0886 0.0
C2855 C 0.08061 0.54207 0.09044 0.0
C2856 C 0.11461 0.53024 0.10522 0.0
C2857 C 0.11909 0.54848 0.12386 0.0
C2858 C 0.10378 0.56297 0.12613 0.0
C2859 C 0.08464 0.55977 0.10952 0.0
H2860 H 0.82485 0.90134 0.46332 0.0
H2861 H 0.80017 0.83683 0.4871 0.0
H2862 H 0.82237 0.88236 0.422 0.0
H2863 H 0.79729 0.81788 0.44577 0.0
H2864 H 0.77194 0.79648 0.36378 0.0
H2865 H 0.77494 0.81545 0.40515 0.0
H2866 H 0.83969 0.85512 0.39755 0.0
H2867 H 0.83655 0.83644 0.35625 0.0
C2868 C 0.81896 0.88309 0.45976 0.0
C2869 C 0.81284 0.87064 0.47863 0.0
C2870 C 0.81758 0.87217 0.43604 0.0
C2871 C 0.80955 0.84851 0.43037 0.0
C2872 C 0.80338 0.8361 0.4493 0.0
C2873 C 0.80522 0.84696 0.4731 0.0
C2874 C 0.78686 0.8092 0.37093 0.0
C2875 C 0.80414 0.81462 0.35659 0.0
C2876 C 0.78863 0.82004 0.39475 0.0
C2877 C 0.80762 0.83684 0.4049 0.0
C2878 C 0.82476 0.84241 0.39044 0.0
C2879 C 0.82306 0.83146 0.36673 0.0
H2880 H 0.43477 0.51517 0.85337 0.0
H2881 H 0.50028 0.53131 0.83047 0.0
H2882 H 0.45209 0.51505 0.89453 0.0
H2883 H 0.5178 0.53232 0.87191 0.0
H2884 H 0.54395 0.51598 0.94649 0.0
H2885 H 0.52665 0.51242 0.90448 0.0
H2886 H 0.47089 0.5389 0.92863 0.0
H2887 H 0.48763 0.54157 0.97018 0.0
C2888 C 0.45292 0.51879 0.85716 0.0
C2889 C 0.46609 0.52322 0.83855 0.0
C2890 C 0.46295 0.51891 0.88091 0.0
C2891 C 0.48652 0.52386 0.88696 0.0
C2892 C 0.49967 0.52807 0.86816 0.0
C2893 C 0.4896 0.52761 0.84431 0.0
C2894 C 0.52786 0.52074 0.94282 0.0
C2895 C 0.51724 0.52896 0.96193 0.0
C2896 C 0.51798 0.51894 0.91861 0.0
C2897 C 0.49717 0.52529 0.9128 0.0
C2898 C 0.48663 0.53339 0.93205 0.0
C2899 C 0.49643 0.53514 0.9561 0.0
H2900 H 0.81645 0.17964 0.13083 0.0
H2901 H 0.74544 0.16163 0.13493 0.0
H2902 H 0.82197 0.20346 0.16969 0.0
H2903 H 0.75092 0.18477 0.17436 0.0
H2904 H 0.76403 0.26072 0.20552 0.0
H2905 H 0.75988 0.22699 0.17609 0.0
H2906 H 0.81895 0.21017 0.21344 0.0
H2907 H 0.82343 0.24424 0.24247 0.0
C2908 C 0.80232 0.17968 0.14092 0.0
C2909 C 0.78059 0.16905 0.13035 0.0
C2910 C 0.80541 0.19334 0.16303 0.0
C2911 C 0.78673 0.19622 0.17456 0.0
C2912 C 0.76544 0.18303 0.16543 0.0
C2913 C 0.76234 0.16962 0.14318 0.0
C2914 C 0.77613 0.24983 0.20726 0.0
C2915 C 0.79383 0.2547 0.22621 0.0
C2916 C 0.77356 0.23038 0.19081 0.0
C2917 C 0.78876 0.21574 0.19307 0.0
C2918 C 0.80686 0.22105 0.21164 0.0
C2919 C 0.80941 0.24048 0.22812 0.0
H2920 H 0.18464 0.53318 0.33324 0.0
H2921 H 0.14855 0.57783 0.29743 0.0
H2922 H 0.16158 0.53511 0.36644 0.0
H2923 H 0.12646 0.58022 0.33011 0.0
H2924 H 0.07428 0.56689 0.37317 0.0
H2925 H 0.09648 0.5526 0.34372 0.0
H2926 H 0.15403 0.56462 0.39884 0.0
H2927 H 0.13152 0.57811 0.42847 0.0
C2928 C 0.17207 0.54359 0.33268 0.0
C2929 C 0.16797 0.555 0.31269 0.0
C2930 C 0.15886 0.54455 0.35143 0.0
C2931 C 0.14171 0.55703 0.35017 0.0
C2932 C 0.13887 0.56961 0.33093 0.0
C2933 C 0.15174 0.56846 0.31232 0.0
C2934 C 0.09153 0.56601 0.37897 0.0
C2935 C 0.10157 0.57424 0.40262 0.0
C2936 C 0.10415 0.55775 0.36231 0.0
C2937 C 0.12706 0.55826 0.36903 0.0
C2938 C 0.13643 0.56422 0.39328 0.0
C2939 C 0.12366 0.57213 0.41008 0.0
H2940 H 0.79468 0.82704 0.59033 0.0
H2941 H 0.81905 0.89486 0.6275 0.0
H2942 H 0.78714 0.81317 0.62828 0.0
H2943 H 0.81246 0.88077 0.66622 0.0
H2944 H 0.78357 0.84759 0.73125 0.0
H2945 H 0.78707 0.86439 0.69351 0.0
H2946 H 0.80821 0.80481 0.66228 0.0
H2947 H 0.8047 0.7883 0.6994 0.0
C2948 C 0.79846 0.83904 0.60672 0.0
C2949 C 0.80766 0.86202 0.6058 0.0
C2950 C 0.79431 0.83103 0.62866 0.0
C2951 C 0.79968 0.8456 0.65074 0.0
C2952 C 0.80803 0.86892 0.64975 0.0
C2953 C 0.81185 0.87705 0.62752 0.0
C2954 C 0.78878 0.83803 0.71622 0.0
C2955 C 0.79332 0.81625 0.71842 0.0
C2956 C 0.79094 0.84775 0.69454 0.0
C2957 C 0.79759 0.83593 0.67438 0.0
C2958 C 0.80241 0.81434 0.6769 0.0
C2959 C 0.80039 0.80477 0.69843 0.0
H2960 H 0.75174 0.47987 0.46906 0.0
H2961 H 0.765 0.46223 0.54092 0.0
H2962 H 0.71796 0.49295 0.48 0.0
H2963 H 0.73173 0.47502 0.55194 0.0
H2964 H 0.66831 0.48526 0.56669 0.0
H2965 H 0.68981 0.46457 0.54125 0.0
H2966 H 0.71376 0.5259 0.51057 0.0
H2967 H 0.69151 0.5462 0.53539 0.0
C2968 C 0.74735 0.47906 0.48717 0.0
C2969 C 0.76065 0.47073 0.50451 0.0
C2970 C 0.72812 0.48616 0.49328 0.0
C2971 C 0.72217 0.48441 0.51654 0.0
C2972 C 0.73569 0.47591 0.53368 0.0
C2973 C 0.75487 0.4691 0.52765 0.0
C2974 C 0.67797 0.49403 0.55419 0.0
C2975 C 0.67944 0.51727 0.55344 0.0
C2976 C 0.68989 0.48226 0.5395 0.0
C2977 C 0.70366 0.49393 0.52453 0.0
C2978 C 0.70321 0.51666 0.52204 0.0
C2979 C 0.69098 0.52832 0.53648 0.0
H2980 H 0.22487 0.12889 0.51491 0.0
H2981 H 0.1835 0.17872 0.50662 0.0
H2982 H 0.19136 0.10004 0.51697 0.0
H2983 H 0.15042 0.15034 0.50938 0.0
H2984 H 0.09138 0.09255 0.49257 0.0
H2985 H 0.12596 0.11806 0.48802 0.0
H2986 H 0.16238 0.08751 0.5414 0.0
H2987 H 0.12753 0.06135 0.54545 0.0
C2988 C 0.20867 0.13373 0.51341 0.0
C2989 C 0.20702 0.15624 0.51036 0.0
C2990 C 0.18942 0.11718 0.51482 0.0
C2991 C 0.16796 0.12265 0.51317 0.0
C2992 C 0.16644 0.14517 0.51017 0.0
C2993 C 0.18558 0.16161 0.50872 0.0
C2994 C 0.10675 0.09106 0.50323 0.0
C2995 C 0.10654 0.07485 0.51943 0.0
C2996 C 0.12668 0.10591 0.50076 0.0
C2997 C 0.14712 0.10527 0.5146 0.0
C2998 C 0.14709 0.08852 0.53029 0.0
C2999 C 0.12705 0.07349 0.53265 0.0
H3000 H 0.19092 1.01033 0.8289 0.0
H3001 H 0.15882 0.99425 0.75524 0.0
H3002 H 0.20887 0.97751 0.82376 0.0
H3003 H 0.17736 0.96208 0.74947 0.0
H3004 H 0.2024 0.89884 0.74497 0.0
H3005 H 0.17953 0.92531 0.75897 0.0
H3006 H 0.23816 0.96657 0.80375 0.0
H3007 H 0.2606 0.93942 0.79032 0.0
C3008 C 0.18772 0.99962 0.81163 0.0
C3009 C 0.17355 1.00454 0.79245 0.0
C3010 C 0.19803 0.98093 0.80862 0.0
C3011 C 0.19454 0.96702 0.78623 0.0
C3012 C 0.18005 0.972 0.76715 0.0
C3013 C 0.16956 0.99052 0.7703 0.0
C3014 C 0.21007 0.91314 0.75852 0.0
C3015 C 0.23311 0.91719 0.76672 0.0
C3016 C 0.19712 0.9285 0.76628 0.0
C3017 C 0.20708 0.94842 0.78203 0.0
C3018 C 0.22985 0.95142 0.79169 0.0
C3019 C 0.24275 0.93589 0.78408 0.0
H3020 H 0.38309 0.95548 0.04099 0.0
H3021 H 0.37603 0.96928 0.96704 0.0
H3022 H 0.41847 0.98348 0.04966 0.0
H3023 H 0.41137 0.99756 0.97561 0.0
H3024 H 0.489 1.00394 0.99329 0.0
H3025 H 0.44923 0.98661 0.98522 0.0
H3026 H 0.4376 0.0256 0.05017 0.0
H3027 H 0.47791 0.04317 0.05811 0.0
C3028 C 0.3893 0.96461 0.0267 0.0
C3029 C 0.37787 0.95991 1.00322 0.0
C3030 C 0.4091 0.98085 0.03172 0.0
C3031 C 0.41745 0.99238 0.0132 0.0
C3032 C 0.40516 0.98859 0.99001 0.0
C3033 C 0.38534 0.97235 0.98504 0.0
C3034 C 0.47783 1.00867 0.00578 0.0
C3035 C 0.48599 0.02425 0.0265 0.0
C3036 C 0.45518 0.99917 1.001 0.0
C3037 C 0.44056 1.00508 0.01699 0.0
C3038 C 0.44875 0.02099 0.03764 0.0
C3039 C 0.47154 0.03078 0.04227 0.0
H3040 H 0.89506 0.60437 0.83844 0.0
H3041 H 0.84171 0.55807 0.79061 0.0
H3042 H 0.87704 0.63597 0.83028 0.0
H3043 H 0.82408 0.58955 0.7821 0.0
H3044 H 0.79372 0.6476 0.77129 0.0
H3045 H 0.80651 0.62129 0.79706 0.0
H3046 H 0.87538 0.65077 0.79041 0.0
H3047 H 0.86256 0.67739 0.76517 0.0
C3048 C 0.87937 0.60099 0.82643 0.0
C3049 C 0.86992 0.57908 0.81466 0.0
C3050 C 0.86904 0.61894 0.82196 0.0
C3051 C 0.84935 0.61508 0.80553 0.0
C3052 C 0.8391 0.59287 0.79514 0.0
C3053 C 0.84932 0.57493 0.79975 0.0
C3054 C 0.81159 0.64863 0.77578 0.0
C3055 C 0.82729 0.66397 0.76599 0.0
C3056 C 0.81884 0.63376 0.79054 0.0
C3057 C 0.84183 0.63409 0.79556 0.0
C3058 C 0.85755 0.65041 0.78698 0.0
C3059 C 0.85028 0.66525 0.77218 0.0
H3060 H 0.85345 0.68756 0.04589 0.0
H3061 H 0.81129 0.62815 1.00328 0.0
H3062 H 0.88465 0.66767 0.04904 0.0
H3063 H 0.84267 0.60886 0.00433 0.0
H3064 H 0.89036 0.57045 0.04312 0.0
H3065 H 0.86163 0.59067 0.03004 0.0
H3066 H 0.91246 0.65194 0.03349 0.0
H3067 H 0.94102 0.63145 0.04811 0.0
C3068 C 0.85105 0.67035 0.03689 0.0
C3069 C 0.82994 0.65916 0.02485 0.0
C3070 C 0.86899 0.65897 0.03836 0.0
C3071 C 0.86632 0.6364 0.02713 0.0
C3072 C 0.84535 0.62586 0.01393 0.0
C3073 C 0.82732 0.63694 0.01321 0.0
C3074 C 0.89538 0.58803 0.04023 0.0
C3075 C 0.91775 0.59941 0.04638 0.0
C3076 C 0.87891 0.59978 0.03271 0.0
C3077 C 0.88449 0.62323 0.03097 0.0
C3078 C 0.90735 0.63409 0.03519 0.0
C3079 C 0.92382 0.62231 0.04307 0.0
H3080 H 0.15467 0.15201 0.79676 0.0
H3081 H 0.20598 0.11372 0.81306 0.0
H3082 H 0.1834 0.1849 0.79346 0.0
H3083 H 0.23499 0.14713 0.81019 0.0
H3084 H 0.27719 0.2077 0.77668 0.0
H3085 H 0.25071 0.17275 0.78063 0.0
H3086 H 0.21187 0.2124 0.82064 0.0
H3087 H 0.2382 0.24693 0.81714 0.0
C3088 C 0.17211 0.15065 0.80001 0.0
C3089 C 0.1779 0.1302 0.80556 0.0
C3090 C 0.18865 0.1696 0.7981 0.0
C3091 C 0.2116 0.16885 0.80184 0.0
C3092 C 0.2175 0.14832 0.80708 0.0
C3093 C 0.20085 0.12921 0.80889 0.0
C3094 C 0.26323 0.20892 0.78669 0.0
C3095 C 0.26002 0.23028 0.79668 0.0
C3096 C 0.248 0.18885 0.7889 0.0
C3097 C 0.22897 0.18972 0.80076 0.0
C3098 C 0.22608 0.21104 0.81106 0.0
C3099 C 0.24136 0.23093 0.80914 0.0
H3100 H 0.36942 0.96567 0.2793 0.0
H3101 H 0.38461 0.94601 0.35002 0.0
H3102 H 0.34633 0.92774 0.2654 0.0
H3103 H 0.36107 0.90837 0.33637 0.0
H3104 H 0.34567 0.83937 0.30116 0.0
H3105 H 0.36833 0.87723 0.30343 0.0
H3106 H 0.30938 0.9021 0.2783 0.0
H3107 H 0.28655 0.86361 0.27568 0.0
C3108 C 0.36749 0.95324 0.29186 0.0
C3109 C 0.37885 0.95821 0.31551 0.0
C3110 C 0.35441 0.93176 0.28393 0.0
C3111 C 0.3526 0.91536 0.29973 0.0
C3112 C 0.36298 0.92078 0.32377 0.0
C3113 C 0.37628 0.94211 0.33158 0.0
C3114 C 0.3378 0.85259 0.29481 0.0
C3115 C 0.31464 0.84892 0.28801 0.0
C3116 C 0.35066 0.87424 0.29641 0.0
C3117 C 0.34031 0.89229 0.29147 0.0
C3118 C 0.3175 0.88822 0.28223 0.0
C3119 C 0.30456 0.86644 0.28074 0.0
H3120 H 0.5578 0.35263 0.55958 0.0
H3121 H 0.5888 0.38922 0.62856 0.0
H3122 H 0.55169 0.38839 0.54551 0.0
H3123 H 0.5829 0.42481 0.61484 0.0
H3124 H 0.5843 0.49132 0.58193 0.0
H3125 H 0.59065 0.45534 0.59418 0.0
H3126 H 0.53412 0.41944 0.543 0.0
H3127 H 0.52862 0.45556 0.52996 0.0
C3128 C 0.56367 0.36829 0.57177 0.0
C3129 C 0.57418 0.36747 0.59535 0.0
C3130 C 0.55991 0.38914 0.56372 0.0
C3131 C 0.56677 0.4105 0.57863 0.0
C3132 C 0.57745 0.40947 0.60214 0.0
C3133 C 0.58085 0.38866 0.61025 0.0
C3134 C 0.57306 0.47585 0.57316 0.0
C3135 C 0.55565 0.47718 0.55486 0.0
C3136 C 0.57666 0.45477 0.58044 0.0
C3137 C 0.56293 0.43348 0.57011 0.0
C3138 C 0.54552 0.43481 0.55166 0.0
C3139 C 0.54211 0.45596 0.54418 0.0
H3140 H 0.46493 0.77657 0.38532 0.0
H3141 H 0.42427 0.78419 0.44252 0.0
H3142 H 0.43287 0.77773 0.35548 0.0
H3143 H 0.3926 0.78574 0.41306 0.0
H3144 H 0.33194 0.76872 0.3548 0.0
H3145 H 0.3642 0.76559 0.38278 0.0
H3146 H 0.40875 0.80042 0.33807 0.0
H3147 H 0.37637 0.80361 0.31006 0.0
C3148 C 0.44919 0.77839 0.39163 0.0
C3149 C 0.44749 0.78013 0.41663 0.0
C3150 C 0.43068 0.77925 0.37441 0.0
C3151 C 0.40966 0.78175 0.38146 0.0
C3152 C 0.40808 0.78337 0.40647 0.0
C3153 C 0.42651 0.78261 0.42359 0.0
C3154 C 0.34856 0.77578 0.3508 0.0
C3155 C 0.35111 0.78654 0.32987 0.0
C3156 C 0.36729 0.77407 0.3671 0.0
C3157 C 0.38955 0.78288 0.3632 0.0
C3158 C 0.39214 0.79318 0.34194 0.0
C3159 C 0.37336 0.79504 0.32571 0.0
H3160 H 0.08889 0.73666 0.05335 0.0
H3161 H 0.05492 0.72979 0.11618 0.0
H3162 H 0.08291 0.69582 0.04423 0.0
H3163 H 0.04956 0.68834 0.10769 0.0
H3164 H 0.03023 0.61116 0.08012 0.0
H3165 H 0.03487 0.65222 0.08959 0.0
H3166 H 0.08994 0.66146 0.04722 0.0
H3167 H 0.08404 0.62067 0.0367 0.0
C3168 C 0.08017 0.72649 0.06549 0.0
C3169 C 0.07251 0.73729 0.08567 0.0
C3170 C 0.07687 0.70251 0.06031 0.0
C3171 C 0.06589 0.6876 0.07514 0.0
C3172 C 0.05797 0.69844 0.09532 0.0
C3173 C 0.06114 0.72261 0.10041 0.0
C3174 C 0.04342 0.62187 0.07276 0.0
C3175 C 0.05703 0.61178 0.05777 0.0
C3176 C 0.04624 0.64589 0.07842 0.0
C3177 C 0.0629 0.66133 0.06945 0.0
C3178 C 0.07657 0.65107 0.05457 0.0
C3179 C 0.07356 0.62711 0.04877 0.0
H3180 H 0.09105 0.31597 0.94009 0.0
H3181 H 0.06159 0.25219 0.89616 0.0
H3182 H 0.12387 0.3193 0.91877 0.0
H3183 H 0.09508 0.25433 0.87597 0.0
H3184 H 0.14268 0.28061 0.82244 0.0
H3185 H 0.11303 0.27113 0.84734 0.0
H3186 H 0.15666 0.30987 0.90978 0.0
H3187 H 0.18575 0.32021 0.88411 0.0
C3188 C 0.09189 0.30235 0.92624 0.0
C3189 C 0.07369 0.28388 0.91973 0.0
C3190 C 0.11087 0.30411 0.91403 0.0
C3191 C 0.11249 0.28712 0.89533 0.0
C3192 C 0.09451 0.26814 0.88968 0.0
C3193 C 0.07528 0.26675 0.90143 0.0
C3194 C 0.14613 0.28637 0.84167 0.0
C3195 C 0.16662 0.30081 0.8514 0.0
C3196 C 0.12904 0.28104 0.85611 0.0
C3197 C 0.13198 0.28996 0.88081 0.0
C3198 C 0.15328 0.30308 0.89083 0.0
C3199 C 0.17026 0.30863 0.87625 0.0
H3200 H 0.5423 0.77912 0.94283 0.0
H3201 H 0.56676 0.75434 0.87771 0.0
H3202 H 0.54337 0.74404 0.95843 0.0
H3203 H 0.56785 0.71811 0.8941 0.0
H3204 H 0.52693 0.65138 0.92511 0.0
H3205 H 0.53899 0.68495 0.90527 0.0
H3206 H 0.57026 0.7221 0.97432 0.0
H3207 H 0.55791 0.68859 0.99402 0.0
C3208 C 0.5482 0.7663 0.93173 0.0
C3209 C 0.55455 0.76995 0.9088 0.0
C3210 C 0.54902 0.74602 0.94101 0.0
C3211 C 0.55619 0.72833 0.92789 0.0
C3212 C 0.56244 0.73155 0.9048 0.0
C3213 C 0.56179 0.75227 0.8954 0.0
C3214 C 0.5373 0.66644 0.93581 0.0
C3215 C 0.54155 0.66738 0.96109 0.0
C3216 C 0.54418 0.6857 0.92445 0.0
C3217 C 0.55519 0.70638 0.93822 0.0
C3218 C 0.56152 0.70653 0.96319 0.0
C3219 C 0.55471 0.68725 0.97451 0.0
H3220 H 0.11235 0.80894 0.7288 0.0
H3221 H 0.10031 0.73635 0.72632 0.0
H3222 H 0.15166 0.81167 0.7442 0.0
H3223 H 0.14006 0.73869 0.74104 0.0
H3224 H 0.21465 0.74951 0.77693 0.0
H3225 H 0.17405 0.74608 0.76699 0.0
H3226 H 0.18617 0.80855 0.73543 0.0
H3227 H 0.22617 0.81201 0.74576 0.0
C3228 C 0.11788 0.79348 0.73232 0.0
C3229 C 0.10237 0.77251 0.72708 0.0
C3230 C 0.14095 0.79494 0.74068 0.0
C3231 C 0.15013 0.7754 0.74375 0.0
C3232 C 0.13436 0.75439 0.73934 0.0
C3233 C 0.11114 0.75298 0.73107 0.0
C3234 C 0.20877 0.7625 0.76782 0.0
C3235 C 0.22453 0.781 0.76229 0.0
C3236 C 0.18508 0.76054 0.76196 0.0
C3237 C 0.17581 0.77709 0.75035 0.0
C3238 C 0.19172 0.79547 0.74479 0.0
C3239 C 0.21522 0.79737 0.7506 0.0
H3240 H 0.09073 0.38581 0.42931 0.0
H3241 H 0.03139 0.3905 0.38317 0.0
H3242 H 0.08668 0.41864 0.45652 0.0
H3243 H 0.02714 0.42368 0.41024 0.0
H3244 H 1.01389 0.47205 0.47445 0.0
H3245 H 0.01762 0.43919 0.44668 0.0
H3246 H 0.08967 0.45728 0.46546 0.0
H3247 H 0.0856 0.48988 0.4932 0.0
C3248 C 0.07693 0.39412 0.42477 0.0
C3249 C 0.06172 0.38566 0.40365 0.0
C3250 C 0.07456 0.41319 0.44046 0.0
C3251 C 0.0566 0.42451 0.43598 0.0
C3252 C 0.04121 0.41578 0.41479 0.0
C3253 C 0.04379 0.3968 0.3989 0.0
C3254 C 0.03051 0.46891 0.47266 0.0
C3255 C 0.04944 0.48376 0.48613 0.0
C3256 C 0.03275 0.45005 0.45646 0.0
C3257 C 0.05403 0.44503 0.45331 0.0
C3258 C 0.0729 0.45995 0.46716 0.0
C3259 C 0.07064 0.47894 0.48309 0.0
H3260 H 0.46616 0.29332 0.20791 0.0
H3261 H 0.46403 0.23426 0.24466 0.0
H3262 H 0.43097 0.29915 0.22213 0.0
H3263 H 0.42802 0.23949 0.25815 0.0
H3264 H 0.35033 0.24382 0.25586 0.0
H3265 H 0.38653 0.23799 0.24401 0.0
H3266 H 0.41245 0.31013 0.25808 0.0
H3267 H 0.37652 0.31577 0.27049 0.0
C3268 C 0.45821 0.28139 0.21899 0.0
C3269 C 0.46857 0.26326 0.22493 0.0
C3270 C 0.43776 0.28484 0.22734 0.0
C3271 C 0.42589 0.26989 0.24151 0.0
C3272 C 0.43612 0.25153 0.24728 0.0
C3273 C 0.45709 0.24852 0.23957 0.0
C3274 C 0.36371 0.25857 0.25667 0.0
C3275 C 0.35983 0.28042 0.26459 0.0
C3276 C 0.38481 0.25515 0.24986 0.0
C3277 C 0.40317 0.27345 0.24985 0.0
C3278 C 0.3992 0.29534 0.25753 0.0
C3279 C 0.3783 0.29866 0.26494 0.0
H3280 H 0.59127 0.55056 0.34448 0.0
H3281 H 0.65656 0.5644 0.38688 0.0
H3282 H 0.57357 0.54465 0.38072 0.0
H3283 H 0.63894 0.55961 0.42354 0.0
H3284 H 0.60214 0.53069 0.48379 0.0
H3285 H 0.61981 0.53491 0.44714 0.0
H3286 H 0.56384 0.56114 0.41603 0.0
H3287 H 0.54608 0.55636 0.45234 0.0
C3288 C 0.60189 0.55278 0.36165 0.0
C3289 C 0.6254 0.55819 0.36263 0.0
C3290 C 0.59169 0.54944 0.38264 0.0
C3291 C 0.6046 0.55172 0.40554 0.0
C3292 C 0.6282 0.5573 0.40645 0.0
C3293 C 0.63841 0.56032 0.38536 0.0
C3294 C 0.59352 0.53722 0.46906 0.0
C3295 C 0.57253 0.54307 0.47123 0.0
C3296 C 0.6038 0.53987 0.44795 0.0
C3297 C 0.59349 0.54848 0.42819 0.0
C3298 C 0.57238 0.55412 0.43039 0.0
C3299 C 0.56212 0.55146 0.45145 0.0
H3300 H 0.32117 0.93432 0.07845 0.0
H3301 H 0.27684 0.87313 0.04186 0.0
H3302 H 0.32034 0.91856 0.11659 0.0
H3303 H 0.27501 0.85766 0.08012 0.0
H3304 H 0.32603 0.82736 0.12889 0.0
H3305 H 0.30711 0.84431 0.09754 0.0
H3306 H 0.30403 0.90124 0.14986 0.0
H3307 H 0.32349 0.8842 0.18131 0.0
C3308 C 0.31034 0.91798 0.0789 0.0
C3309 C 0.29941 0.90462 0.05748 0.0
C3310 C 0.30973 0.90897 0.10071 0.0
C3311 C 0.29801 0.88663 0.10116 0.0
C3312 C 0.28457 0.8747 0.08014 0.0
C3313 C 0.28557 0.88351 0.05832 0.0
C3314 C 0.3211 0.84337 0.13367 0.0
C3315 C 0.32674 0.85486 0.15717 0.0
C3316 C 0.30987 0.85292 0.11587 0.0
C3317 C 0.3042 0.87422 0.12126 0.0
C3318 C 0.30839 0.88491 0.14523 0.0
C3319 C 0.31953 0.87523 0.16312 0.0
H3320 H 0.94991 0.50902 0.86452 0.0
H3321 H 0.90663 0.54284 0.90479 0.0
H3322 H 0.97261 0.5065 0.90127 0.0
H3323 H 0.92953 0.53992 0.94248 0.0
H3324 H 0.99937 0.56728 0.98926 0.0
H3325 H 0.96729 0.56054 0.95781 0.0
H3326 H 0.97698 0.49208 0.93865 0.0
H3327 H 1.01007 0.49958 0.96908 0.0
C3328 C 0.94492 0.51544 0.88134 0.0
C3329 C 0.92679 0.52644 0.88193 0.0
C3330 C 0.95781 0.51372 0.90252 0.0
C3331 C 0.95284 0.52307 0.9247 0.0
C3332 C 0.93372 0.53271 0.92548 0.0
C3333 C 0.92064 0.53431 0.90408 0.0
C3334 C 0.99438 0.55078 0.97837 0.0
C3335 C 1.00686 0.5339 0.98117 0.0
C3336 C 0.9759 0.54678 0.96071 0.0
C3337 C 0.96956 0.5257 0.94605 0.0
C3338 C 0.98168 0.50852 0.94965 0.0
C3339 C 1.00056 0.51279 0.96682 0.0
H3340 H 0.24812 0.19935 0.59413 0.0
H3341 H 0.31335 0.2393 0.58942 0.0
H3342 H 0.25234 0.21285 0.63744 0.0
H3343 H 0.31771 0.25302 0.63286 0.0
H3344 H 0.32277 0.25777 0.71755 0.0
H3345 H 0.32124 0.24191 0.67513 0.0
H3346 H 0.2526 0.24987 0.66139 0.0
H3347 H 0.25455 0.26599 0.70333 0.0
C3348 C 0.26357 0.2107 0.60252 0.0
C3349 C 0.2805 0.21805 0.58848 0.0
C3350 C 0.26592 0.21865 0.6273 0.0
C3351 C 0.28528 0.23427 0.63874 0.0
C3352 C 0.30264 0.24092 0.62479 0.0
C3353 C 0.3002 0.23302 0.59992 0.0
C3354 C 0.30738 0.25619 0.70542 0.0
C3355 C 0.28868 0.26329 0.71399 0.0
C3356 C 0.30652 0.24715 0.68105 0.0
C3357 C 0.28672 0.24436 0.66471 0.0
C3358 C 0.26809 0.25146 0.67337 0.0
C3359 C 0.26919 0.26098 0.69751 0.0
H3360 H 0.57793 0.56076 0.23548 0.0
H3361 H 0.64355 0.55158 0.22061 0.0
H3362 H 0.56498 0.5561 0.19274 0.0
H3363 H 0.63079 0.54785 0.17713 0.0
H3364 H 0.59549 0.52559 0.09892 0.0
H3365 H 0.60925 0.52771 0.14166 0.0
H3366 H 0.56566 0.57389 0.15902 0.0
H3367 H 0.55076 0.57021 0.1167 0.0
C3368 C 0.58975 0.55785 0.22304 0.0
C3369 C 0.61194 0.5568 0.23177 0.0
C3370 C 0.58231 0.55541 0.19825 0.0
C3371 C 0.59682 0.55213 0.18097 0.0
C3372 C 0.61893 0.55031 0.18963 0.0
C3373 C 0.62635 0.5525 0.21467 0.0
C3374 C 0.58879 0.5362 0.11186 0.0
C3375 C 0.57208 0.54798 0.10403 0.0
C3376 C 0.59687 0.53755 0.13655 0.0
C3377 C 0.58871 0.55093 0.1543 0.0
C3378 C 0.5722 0.56293 0.14631 0.0
C3379 C 0.56381 0.56119 0.12173 0.0
H3380 H 0.32892 0.93522 0.922 0.0
H3381 H 0.28133 0.88293 0.94661 0.0
H3382 H 0.32823 0.90959 0.88445 0.0
H3383 H 0.28038 0.85793 0.90945 0.0
H3384 H 0.26693 0.83439 0.82782 0.0
H3385 H 0.26939 0.86547 0.86019 0.0
H3386 H 0.33826 0.86226 0.8831 0.0
H3387 H 0.33565 0.83048 0.85095 0.0
C3388 C 0.31811 0.91849 0.91908 0.0
C3389 C 0.30523 0.91075 0.93679 0.0
C3390 C 0.31783 0.90397 0.89796 0.0
C3391 C 0.30425 0.88214 0.89457 0.0
C3392 C 0.29085 0.87484 0.91195 0.0
C3393 C 0.29145 0.88904 0.93305 0.0
C3394 C 0.28267 0.84061 0.83956 0.0
C3395 C 0.30118 0.83045 0.83719 0.0
C3396 C 0.28408 0.85834 0.85778 0.0
C3397 C 0.30415 0.86626 0.87335 0.0
C3398 C 0.32286 0.85647 0.87072 0.0
C3399 C 0.32128 0.83829 0.85278 0.0
H3400 H 0.92689 0.49017 0.74813 0.0
H3401 H 0.93008 0.56257 0.75881 0.0
H3402 H 0.9422 0.49352 0.71015 0.0
H3403 H 0.9464 0.56606 0.72075 0.0
H3404 H 0.956 0.51232 0.6352 0.0
H3405 H 0.93423 0.52751 0.66473 0.0
H3406 H 0.98986 0.53348 0.72084 0.0
H3407 H 1.01146 0.51771 0.69154 0.0
C3408 C 0.93014 0.50665 0.7418 0.0
C3409 C 0.92765 0.52616 0.75613 0.0
C3410 C 0.9388 0.50857 0.72019 0.0
C3411 C 0.94545 0.53004 0.71301 0.0
C3412 C 0.94119 0.54941 0.72619 0.0
C3413 C 0.93194 0.5474 0.74774 0.0
C3414 C 0.96381 0.51766 0.65371 0.0
C3415 C 0.985 0.51327 0.66152 0.0
C3416 C 0.95152 0.52665 0.67037 0.0
C3417 C 0.96058 0.53163 0.69473 0.0
C3418 C 0.98283 0.52998 0.70193 0.0
C3419 C 0.99495 0.52057 0.6854 0.0
H3420 H 0.27265 0.17941 0.43223 0.0
H3421 H 0.28432 0.24536 0.47456 0.0
H3422 H 0.27742 0.19731 0.39574 0.0
H3423 H 0.29015 0.26345 0.43833 0.0
H3424 H 0.28036 0.29089 0.36601 0.0
H3425 H 0.27505 0.27317 0.40241 0.0
H3426 H 0.30193 0.21664 0.37279 0.0
H3427 H 0.30646 0.23416 0.33598 0.0
C3428 C 0.27623 0.19779 0.43378 0.0
C3429 C 0.27789 0.21086 0.45647 0.0
C3430 C 0.27926 0.20817 0.41275 0.0
C3431 C 0.28436 0.23205 0.41363 0.0
C3432 C 0.28589 0.24508 0.43644 0.0
C3433 C 0.2826 0.23468 0.45743 0.0
C3434 C 0.28533 0.27475 0.36728 0.0
C3435 C 0.29398 0.26412 0.34788 0.0
C3436 C 0.28233 0.26451 0.38838 0.0
C3437 C 0.28796 0.24324 0.39101 0.0
C3438 C 0.2969 0.23275 0.37163 0.0
C3439 C 0.29976 0.24295 0.35044 0.0
H3440 H 0.34763 0.64172 0.54349 0.0
H3441 H 0.32919 0.59319 0.59267 0.0
H3442 H 0.37989 0.62606 0.53655 0.0
H3443 H 0.3629 0.5777 0.58652 0.0
H3444 H 0.39502 0.53775 0.52542 0.0
H3445 H 0.37176 0.55545 0.55121 0.0
H3446 H 0.41599 0.62071 0.55246 0.0
H3447 H 0.43852 0.60291 0.52576 0.0
C3448 C 0.35107 0.62818 0.55359 0.0
C3449 C 0.33621 0.6187 0.56878 0.0
C3450 C 0.36975 0.61931 0.54979 0.0
C3451 C 0.37425 0.60096 0.56142 0.0
C3452 C 0.35979 0.59192 0.57742 0.0
C3453 C 0.34062 0.60065 0.58091 0.0
C3454 C 0.39981 0.5558 0.53168 0.0
C3455 C 0.41785 0.56931 0.52332 0.0
C3456 C 0.38681 0.56587 0.54671 0.0
C3457 C 0.39185 0.58951 0.5534 0.0
C3458 C 0.41153 0.60249 0.54715 0.0
C3459 C 0.42433 0.59245 0.53188 0.0
H3460 H 0.88325 0.93956 0.57958 0.0
H3461 H 0.88596 0.91706 0.50468 0.0
H3462 H 0.91766 0.96853 0.58046 0.0
H3463 H 0.91974 0.94644 0.50523 0.0
H3464 H 0.96776 0.01612 0.51032 0.0
H3465 H 0.93179 0.99051 0.51128 0.0
H3466 H 0.95966 0.96698 0.57546 0.0
H3467 H 0.99588 0.99221 0.57417 0.0
C3468 C 0.89111 0.94098 0.56328 0.0
C3469 C 0.88212 0.92593 0.54212 0.0
C3470 C 0.9108 0.95749 0.56378 0.0
C3471 C 0.92147 0.95977 0.54292 0.0
C3472 C 0.91194 0.94518 0.52158 0.0
C3473 C 0.89269 0.92827 0.52129 0.0
C3474 C 0.96615 1.00571 0.52483 0.0
C3475 C 0.98471 1.00621 0.54218 0.0
C3476 C 0.94557 0.99093 0.52528 0.0
C3477 C 0.94286 0.97667 0.54343 0.0
C3478 C 0.96116 0.97783 0.56133 0.0
C3479 C 0.98192 0.99221 0.56054 0.0
H3480 H 0.87894 0.0546 0.27 0.0
H3481 H 0.94154 0.09983 0.26538 0.0
H3482 H 0.86037 0.08662 0.27356 0.0
H3483 H 0.92269 0.13202 0.26728 0.0
H3484 H 0.88988 0.18354 0.31051 0.0
H3485 H 0.90896 0.15419 0.29568 0.0
H3486 H 0.84581 0.11532 0.25739 0.0
H3487 H 0.82673 0.14462 0.27341 0.0
C3488 C 0.8886 0.0714 0.26904 0.0
C3489 C 0.91171 0.07474 0.26746 0.0
C3490 C 0.87789 0.08985 0.27089 0.0
C3491 C 0.8899 0.11213 0.27068 0.0
C3492 C 0.91289 0.11526 0.26798 0.0
C3493 C 0.92373 0.0968 0.26672 0.0
C3494 C 0.88028 0.169 0.2983 0.0
C3495 C 0.85691 0.16623 0.29309 0.0
C3496 C 0.89119 0.1521 0.2897 0.0
C3497 C 0.87896 0.13198 0.27562 0.0
C3498 C 0.85576 0.13024 0.26868 0.0
C3499 C 0.84482 0.14718 0.27745 0.0
H3500 H 0.70546 0.12896 0.07778 0.0
H3501 H 0.71165 0.11061 1.00277 0.0
H3502 H 0.66686 0.10735 0.07139 0.0
H3503 H 0.67261 0.08897 0.9961 0.0
H3504 H 0.61118 0.03279 0.01508 0.0
H3505 H 0.64893 0.05404 0.0121 0.0
H3506 H 0.63202 0.11493 0.04636 0.0
H3507 H 0.59464 0.09361 0.04954 0.0
C3508 C 0.69839 0.12016 0.05996 0.0
C3509 C 0.71089 0.12144 0.04059 0.0
C3510 C 0.67644 0.10803 0.05625 0.0
C3511 C 0.66682 0.09723 0.0331 0.0
C3512 C 0.67978 0.09752 0.01397 0.0
C3513 C 0.70187 0.10975 0.01773 0.0
C3514 C 0.61546 0.05092 0.02101 0.0
C3515 C 0.60041 0.0619 0.03223 0.0
C3516 C 0.63686 0.06299 0.01934 0.0
C3517 C 0.6432 0.08588 0.02934 0.0
C3518 C 0.62738 0.09718 0.03875 0.0
C3519 C 0.60604 0.08516 0.04032 0.0
H3520 H 0.25003 0.51709 0.23723 0.0
H3521 H 0.18536 0.47623 0.24386 0.0
H3522 H 0.2676 0.48491 0.24405 0.0
H3523 H 0.20284 0.44464 0.25133 0.0
H3524 H 0.23729 0.39174 0.27231 0.0
H3525 H 0.22539 0.41616 0.24342 0.0
H3526 H 0.27137 0.47409 0.28514 0.0
H3527 H 0.28318 0.44956 0.31361 0.0
C3528 C 0.23949 0.50103 0.2393 0.0
C3529 C 0.21652 0.49925 0.24085 0.0
C3530 C 0.24953 0.48268 0.24319 0.0
C3531 C 0.23665 0.46256 0.24881 0.0
C3532 C 0.21322 0.4599 0.24698 0.0
C3533 C 0.2032 0.47813 0.24292 0.0
C3534 C 0.2448 0.40971 0.27502 0.0
C3535 C 0.26041 0.41921 0.29537 0.0
C3536 C 0.23826 0.42354 0.25846 0.0
C3537 C 0.24744 0.44696 0.26207 0.0
C3538 C 0.26418 0.45606 0.28171 0.0
C3539 C 0.27056 0.44224 0.29831 0.0
H3540 H 0.24347 0.40162 0.01122 0.0
H3541 H 0.2688 0.44384 0.07912 0.0
H3542 H 0.21179 0.42021 0.00656 0.0
H3543 H 0.23599 0.46146 0.07567 0.0
H3544 H 0.1943 0.50965 0.04225 0.0
H3545 H 0.22163 0.48756 0.05541 0.0
H3546 H 0.17807 0.42644 0.01671 0.0
H3547 H 0.15156 0.44918 1.00247 0.0
C3548 C 0.24183 0.41448 0.02554 0.0
C3549 C 0.25852 0.4213 0.04552 0.0
C3550 C 0.22349 0.42508 0.02302 0.0
C3551 C 0.221 0.4424 0.0408 0.0
C3552 C 0.2374 0.44855 0.06134 0.0
C3553 C 0.25616 0.43837 0.06347 0.0
C3554 C 0.19047 0.4914 0.03713 0.0
C3555 C 0.17107 0.48105 0.02133 0.0
C3556 C 0.20608 0.47862 0.0447 0.0
C3557 C 0.20249 0.45513 0.03671 0.0
C3558 C 0.1819 0.44456 0.02261 0.0
C3559 C 0.16649 0.45745 0.01473 0.0
H3560 H 0.88774 0.96291 0.25183 0.0
H3561 H 0.93216 0.93665 0.30159 0.0
H3562 H 0.85799 0.92957 0.2527 0.0
H3563 H 0.90225 0.90379 0.30285 0.0
H3564 H 0.83381 0.86277 0.31858 0.0
H3565 H 0.86101 0.89812 0.31746 0.0
H3566 H 0.85446 0.88401 0.23976 0.0
H3567 H 0.82812 0.84813 0.24106 0.0
C3568 C 0.89118 0.9501 0.26297 0.0
C3569 C 0.91246 0.95245 0.27653 0.0
C3570 C 0.87413 0.93102 0.26344 0.0
C3571 C 0.87777 0.91417 0.27796 0.0
C3572 C 0.89891 0.91661 0.29167 0.0
C3573 C 0.91609 0.93537 0.29078 0.0
C3574 C 0.83797 0.86745 0.30128 0.0
C3575 C 0.82899 0.85279 0.27992 0.0
C3576 C 0.8536 0.88755 0.30063 0.0
C3577 C 0.8599 0.89377 0.27852 0.0
C3578 C 0.84992 0.87966 0.25704 0.0
C3579 C 0.83491 0.85916 0.25778 0.0
H3580 H 0.73974 0.11972 0.75913 0.0
H3581 H 0.69307 0.14001 0.80554 0.0
H3582 H 0.76395 0.15715 0.76963 0.0
H3583 H 0.71759 0.17739 0.81635 0.0
H3584 H 0.74346 0.24252 0.77806 0.0
H3585 H 0.72403 0.20608 0.78707 0.0
H3586 H 0.78774 0.18619 0.80293 0.0
H3587 H 0.80719 0.22322 0.79429 0.0
C3588 C 0.73498 0.13199 0.77205 0.0
C3589 C 0.71447 0.12723 0.78129 0.0
C3590 C 0.74893 0.15328 0.77827 0.0
C3591 C 0.74259 0.16991 0.79394 0.0
C3592 C 0.72272 0.1647 0.80425 0.0
C3593 C 0.70868 0.14349 0.79789 0.0
C3594 C 0.75326 0.23082 0.7848 0.0
C3595 C 0.7766 0.23548 0.78616 0.0
C3596 C 0.74222 0.21 0.78991 0.0
C3597 C 0.75451 0.19351 0.79575 0.0
C3598 C 0.77805 0.19879 0.79856 0.0
C3599 C 0.78909 0.21977 0.79364 0.0
loop_
_geom_bond_atom_site_label_1
_geom_bond_atom_site_label_2
_geom_bond_distance
_geom_bond_site_symmetry_2
_ccdc_geom_bond_type
Co0 O1 2.216 . S
Co0 O2 2.091 . S
Co0 O4 2.004 . S
Co0 O10 2.021 . S
Co0 O12 2.137 . S
Co0 O13 2.244 . S
O1 Co0 2.216 . S
O1 C8 1.247 . S
O2 Co0 2.091 . S
O2 C8 1.261 . S
C3 O12 1.247 . S
C3 O13 1.272 . S
O4 Co0 2.004 . S
O4 C9 1.259 1_455 S
Co5 O6 2.061 1_455 S
Co5 O11 2.052 . S
Co5 O13 2.135 . S
O6 Co5 2.061 1_655 S
O6 C9 1.235 . S
C7 O10 1.238 . S
C7 O11 1.241 . S
C8 O1 1.247 . S
C8 O2 1.261 . S
C9 O4 1.259 1_655 S
C9 O6 1.235 . S
O10 Co0 2.021 . S
O10 C7 1.238 . S
O11 Co5 2.052 . S
O11 C7 1.241 . S
O12 Co0 2.137 . S
O12 C3 1.247 . S
O13 Co0 2.244 . S
O13 C3 1.272 . S
O13 Co5 2.135 . S
Co14 O15 2.216 1_455 S
Co14 O16 2.091 1_455 S
Co14 O18 2.004 . S
Co14 O24 2.021 . S
Co14 O26 2.137 . S
Co14 O27 2.244 . S
O15 Co14 2.216 1_655 S
O15 C22 1.247 . S
O16 Co14 2.091 1_655 S
O16 C22 1.261 . S
C17 O26 1.247 . S
C17 O27 1.272 . S
O18 Co14 2.004 . S
O18 C23 1.259 . S
Co19 O20 2.061 . S
Co19 O25 2.052 . S
Co19 O27 2.135 . S
O20 Co19 2.061 . S
O20 C23 1.235 . S
C21 O24 1.238 . S
C21 O25 1.241 . S
C22 O15 1.247 . S
C22 O16 1.261 . S
C23 O18 1.259 . S
C23 O20 1.235 . S
O24 Co14 2.021 . S
O24 C21 1.238 . S
O25 Co19 2.052 . S
O25 C21 1.241 . S
O26 Co14 2.137 . S
O26 C17 1.247 . S
O27 Co14 2.244 . S
O27 C17 1.272 . S
O27 Co19 2.135 . S
Co28 O29 2.216 . S
Co28 O30 2.091 . S
Co28 O32 2.004 . S
Co28 O38 2.021 . S
Co28 O40 2.137 . S
Co28 O41 2.244 . S
O29 Co28 2.216 . S
O29 C36 1.247 . S
O30 Co28 2.091 . S
O30 C36 1.261 . S
C31 O40 1.247 . S
C31 O41 1.272 . S
O32 Co28 2.004 . S
O32 C37 1.259 . S
Co33 O34 2.061 . S
Co33 O39 2.052 . S
Co33 O41 2.135 . S
O34 Co33 2.061 . S
O34 C37 1.235 . S
C35 O38 1.238 . S
C35 O39 1.241 . S
C36 O29 1.247 . S
C36 O30 1.261 . S
C37 O32 1.259 . S
C37 O34 1.235 . S
O38 Co28 2.021 . S
O38 C35 1.238 . S
O39 Co33 2.052 . S
O39 C35 1.241 . S
O40 Co28 2.137 . S
O40 C31 1.247 . S
O41 Co28 2.244 . S
O41 C31 1.272 . S
O41 Co33 2.135 . S
Co42 O43 2.216 . S
Co42 O44 2.091 . S
Co42 O46 2.004 . S
Co42 O52 2.021 . S
Co42 O54 2.137 . S
Co42 O55 2.244 . S
O43 Co42 2.216 . S
O43 C50 1.247 . S
O44 Co42 2.091 . S
O44 C50 1.261 . S
C45 O54 1.247 . S
C45 O55 1.272 . S
O46 Co42 2.004 . S
O46 C51 1.259 . S
Co47 O48 2.061 . S
Co47 O53 2.052 . S
Co47 O55 2.135 . S
O48 Co47 2.061 . S
O48 C51 1.235 . S
C49 O52 1.238 . S
C49 O53 1.241 . S
C50 O43 1.247 . S
C50 O44 1.261 . S
C51 O46 1.259 . S
C51 O48 1.235 . S
O52 Co42 2.021 . S
O52 C49 1.238 . S
O53 Co47 2.052 . S
O53 C49 1.241 . S
O54 Co42 2.137 . S
O54 C45 1.247 . S
O55 Co42 2.244 . S
O55 C45 1.272 . S
O55 Co47 2.135 . S
Co56 O57 2.216 . S
Co56 O58 2.091 . S
Co56 O60 2.004 . S
Co56 O66 2.021 . S
Co56 O68 2.137 . S
Co56 O69 2.244 . S
O57 Co56 2.216 . S
O57 C64 1.247 . S
O58 Co56 2.091 . S
O58 C64 1.261 . S
C59 O68 1.247 . S
C59 O69 1.272 . S
O60 Co56 2.004 . S
O60 C65 1.259 . S
Co61 O62 2.061 . S
Co61 O67 2.052 . S
Co61 O69 2.135 . S
O62 Co61 2.061 . S
O62 C65 1.235 . S
C63 O66 1.238 . S
C63 O67 1.241 . S
C64 O57 1.247 . S
C64 O58 1.261 . S
C65 O60 1.259 . S
C65 O62 1.235 . S
O66 Co56 2.021 . S
O66 C63 1.238 . S
O67 Co61 2.052 . S
O67 C63 1.241 . S
O68 Co56 2.137 . S
O68 C59 1.247 . S
O69 Co56 2.244 . S
O69 C59 1.272 . S
O69 Co61 2.135 . S
Co70 O71 2.216 . S
Co70 O72 2.091 . S
Co70 O74 2.004 . S
Co70 O80 2.021 . S
Co70 O82 2.137 . S
Co70 O83 2.244 . S
O71 Co70 2.216 . S
O71 C78 1.247 . S
O72 Co70 2.091 . S
O72 C78 1.261 . S
C73 O82 1.247 . S
C73 O83 1.272 . S
O74 Co70 2.004 . S
O74 C79 1.259 . S
Co75 O76 2.061 . S
Co75 O81 2.052 . S
Co75 O83 2.135 . S
O76 Co75 2.061 . S
O76 C79 1.235 . S
C77 O80 1.238 . S
C77 O81 1.241 . S
C78 O71 1.247 . S
C78 O72 1.261 . S
C79 O74 1.259 . S
C79 O76 1.235 . S
O80 Co70 2.021 . S
O80 C77 1.238 . S
O81 Co75 2.052 . S
O81 C77 1.241 . S
O82 Co70 2.137 . S
O82 C73 1.247 . S
O83 Co70 2.244 . S
O83 C73 1.272 . S
O83 Co75 2.135 . S
Co84 O85 2.216 . S
Co84 O86 2.091 . S
Co84 O88 2.004 . S
Co84 O94 2.021 . S
Co84 O96 2.137 . S
Co84 O97 2.244 . S
O85 Co84 2.216 . S
O85 C92 1.247 . S
O86 Co84 2.091 . S
O86 C92 1.261 . S
C87 O96 1.247 . S
C87 O97 1.272 . S
O88 Co84 2.004 . S
O88 C93 1.259 . S
Co89 O90 2.061 . S
Co89 O95 2.052 . S
Co89 O97 2.135 . S
O90 Co89 2.061 . S
O90 C93 1.235 . S
C91 O94 1.238 . S
C91 O95 1.241 . S
C92 O85 1.247 . S
C92 O86 1.261 . S
C93 O88 1.259 . S
C93 O90 1.235 . S
O94 Co84 2.021 . S
O94 C91 1.238 . S
O95 Co89 2.052 . S
O95 C91 1.241 . S
O96 Co84 2.137 . S
O96 C87 1.247 . S
O97 Co84 2.244 . S
O97 C87 1.272 . S
O97 Co89 2.135 . S
Co98 O99 2.216 . S
Co98 O100 2.091 . S
Co98 O102 2.004 1_455 S
Co98 O108 2.021 1_455 S
Co98 O110 2.137 . S
Co98 O111 2.244 1_455 S
O99 Co98 2.216 . S
O99 C106 1.247 . S
O100 Co98 2.091 . S
O100 C106 1.261 . S
C101 O110 1.247 . S
C101 O111 1.272 1_455 S
O102 Co98 2.004 1_655 S
O102 C107 1.259 . S
Co103 O104 2.061 . S
Co103 O109 2.052 . S
Co103 O111 2.135 . S
O104 Co103 2.061 . S
O104 C107 1.235 . S
C105 O108 1.239 . S
C105 O109 1.241 . S
C106 O99 1.247 . S
C106 O100 1.261 . S
C107 O102 1.259 . S
C107 O104 1.235 . S
O108 Co98 2.021 1_655 S
O108 C105 1.239 . S
O109 Co103 2.052 . S
O109 C105 1.241 . S
O110 Co98 2.137 . S
O110 C101 1.247 . S
O111 Co98 2.244 1_655 S
O111 C101 1.272 1_655 S
O111 Co103 2.135 . S
Co112 O113 2.216 . S
Co112 O114 2.091 . S
Co112 O116 2.004 1_545 S
Co112 O122 2.021 . S
Co112 O124 2.137 . S
Co112 O125 2.244 . S
O113 Co112 2.216 . S
O113 C120 1.247 . S
O114 Co112 2.091 . S
O114 C120 1.261 . S
C115 O124 1.247 . S
C115 O125 1.272 . S
O116 Co112 2.004 1_565 S
O116 C121 1.259 . S
Co117 O118 2.061 . S
Co117 O123 2.052 . S
Co117 O125 2.135 1_565 S
O118 Co117 2.061 . S
O118 C121 1.235 . S
C119 O122 1.238 . S
C119 O123 1.241 1_545 S
C120 O113 1.247 . S
C120 O114 1.261 . S
C121 O116 1.259 . S
C121 O118 1.235 . S
O122 Co112 2.021 . S
O122 C119 1.238 . S
O123 Co117 2.052 . S
O123 C119 1.241 1_565 S
O124 Co112 2.137 . S
O124 C115 1.247 . S
O125 Co112 2.244 . S
O125 C115 1.272 . S
O125 Co117 2.135 1_545 S
Co126 O127 2.216 . S
Co126 O128 2.091 . S
Co126 O130 2.004 . S
Co126 O136 2.021 . S
Co126 O138 2.137 . S
Co126 O139 2.244 . S
O127 Co126 2.216 . S
O127 C134 1.247 . S
O128 Co126 2.091 . S
O128 C134 1.261 . S
C129 O138 1.247 . S
C129 O139 1.272 . S
O130 Co126 2.004 . S
O130 C135 1.259 . S
Co131 O132 2.061 . S
Co131 O137 2.052 . S
Co131 O139 2.135 . S
O132 Co131 2.061 . S
O132 C135 1.235 . S
C133 O136 1.238 . S
C133 O137 1.241 . S
C134 O127 1.247 . S
C134 O128 1.261 . S
C135 O130 1.259 . S
C135 O132 1.235 . S
O136 Co126 2.021 . S
O136 C133 1.238 . S
O137 Co131 2.052 . S
O137 C133 1.241 . S
O138 Co126 2.137 . S
O138 C129 1.247 . S
O139 Co126 2.244 . S
O139 C129 1.272 . S
O139 Co131 2.135 . S
Co140 O141 2.216 . S
Co140 O142 2.091 . S
Co140 O144 2.004 . S
Co140 O150 2.021 . S
Co140 O152 2.137 . S
Co140 O153 2.244 . S
O141 Co140 2.216 . S
O141 C148 1.247 . S
O142 Co140 2.091 . S
O142 C148 1.261 . S
C143 O152 1.247 . S
C143 O153 1.272 . S
O144 Co140 2.004 . S
O144 C149 1.259 . S
Co145 O146 2.061 . S
Co145 O151 2.052 . S
Co145 O153 2.135 . S
O146 Co145 2.061 . S
O146 C149 1.235 . S
C147 O150 1.238 . S
C147 O151 1.241 . S
C148 O141 1.247 . S
C148 O142 1.261 . S
C149 O144 1.259 . S
C149 O146 1.235 . S
O150 Co140 2.021 . S
O150 C147 1.238 . S
O151 Co145 2.052 . S
O151 C147 1.241 . S
O152 Co140 2.137 . S
O152 C143 1.247 . S
O153 Co140 2.244 . S
O153 C143 1.272 . S
O153 Co145 2.135 . S
Co154 O155 2.216 . S
Co154 O156 2.091 1_556 S
Co154 O158 2.002 . S
Co154 O164 2.021 1_556 S
Co154 O166 2.137 . S
Co154 O167 2.244 . S
O155 Co154 2.216 . S
O155 C162 1.247 . S
O156 Co154 2.091 1_554 S
O156 C162 1.261 1_554 S
C157 O166 1.247 . S
C157 O167 1.272 . S
O158 Co154 2.002 . S
O158 C163 1.256 1_556 S
Co159 O160 2.061 1_556 S
Co159 O165 2.052 1_556 S
Co159 O167 2.135 . S
O160 Co159 2.061 1_554 S
O160 C163 1.235 . S
C161 O164 1.238 . S
C161 O165 1.241 . S
C162 O155 1.247 . S
C162 O156 1.261 1_556 S
C163 O158 1.256 1_554 S
C163 O160 1.235 . S
O164 Co154 2.021 1_554 S
O164 C161 1.238 . S
O165 Co159 2.052 1_554 S
O165 C161 1.241 . S
O166 Co154 2.137 . S
O166 C157 1.247 . S
O167 Co154 2.244 . S
O167 C157 1.272 . S
O167 Co159 2.135 . S
Co168 O169 2.216 . S
Co168 O170 2.091 . S
Co168 O172 2.004 . S
Co168 O178 2.021 . S
Co168 O180 2.137 . S
Co168 O181 2.244 . S
O169 Co168 2.216 . S
O169 C176 1.247 . S
O170 Co168 2.091 . S
O170 C176 1.261 . S
C171 O180 1.247 . S
C171 O181 1.272 . S
O172 Co168 2.004 . S
O172 C177 1.259 . S
Co173 O174 2.061 . S
Co173 O179 2.052 . S
Co173 O181 2.135 . S
O174 Co173 2.061 . S
O174 C177 1.235 . S
C175 O178 1.238 . S
C175 O179 1.241 . S
C176 O169 1.247 . S
C176 O170 1.261 . S
C177 O172 1.259 . S
C177 O174 1.235 . S
O178 Co168 2.021 . S
O178 C175 1.238 . S
O179 Co173 2.052 . S
O179 C175 1.241 . S
O180 Co168 2.137 . S
O180 C171 1.247 . S
O181 Co168 2.244 . S
O181 C171 1.272 . S
O181 Co173 2.135 . S
Co182 O183 2.216 . S
Co182 O184 2.091 . S
Co182 O186 2.004 . S
Co182 O192 2.021 . S
Co182 O194 2.137 . S
Co182 O195 2.244 . S
O183 Co182 2.216 . S
O183 C190 1.247 . S
O184 Co182 2.091 . S
O184 C190 1.261 . S
C185 O194 1.247 . S
C185 O195 1.272 . S
O186 Co182 2.004 . S
O186 C191 1.259 . S
Co187 O188 2.061 . S
Co187 O193 2.052 . S
Co187 O195 2.135 . S
O188 Co187 2.061 . S
O188 C191 1.235 . S
C189 O192 1.238 . S
C189 O193 1.241 . S
C190 O183 1.247 . S
C190 O184 1.261 . S
C191 O186 1.259 . S
C191 O188 1.235 . S
O192 Co182 2.021 . S
O192 C189 1.238 . S
O193 Co187 2.052 . S
O193 C189 1.241 . S
O194 Co182 2.137 . S
O194 C185 1.247 . S
O195 Co182 2.244 . S
O195 C185 1.272 . S
O195 Co187 2.135 . S
Co196 O197 2.216 . S
Co196 O198 2.091 . S
Co196 O200 2.004 . S
Co196 O206 2.021 . S
Co196 O208 2.137 . S
Co196 O209 2.244 . S
O197 Co196 2.216 . S
O197 C204 1.247 . S
O198 Co196 2.091 . S
O198 C204 1.261 . S
C199 O208 1.247 . S
C199 O209 1.272 . S
O200 Co196 2.004 . S
O200 C205 1.259 . S
Co201 O202 2.061 . S
Co201 O207 2.052 . S
Co201 O209 2.135 . S
O202 Co201 2.061 . S
O202 C205 1.235 . S
C203 O206 1.238 . S
C203 O207 1.241 . S
C204 O197 1.247 . S
C204 O198 1.261 . S
C205 O200 1.259 . S
C205 O202 1.235 . S
O206 Co196 2.021 . S
O206 C203 1.238 . S
O207 Co201 2.052 . S
O207 C203 1.241 . S
O208 Co196 2.137 . S
O208 C199 1.247 . S
O209 Co196 2.244 . S
O209 C199 1.272 . S
O209 Co201 2.135 . S
Co210 O211 2.216 . S
Co210 O212 2.091 . S
Co210 O214 2.004 . S
Co210 O220 2.021 . S
Co210 O222 2.137 . S
Co210 O223 2.244 . S
O211 Co210 2.216 . S
O211 C218 1.247 . S
O212 Co210 2.091 . S
O212 C218 1.261 . S
C213 O222 1.247 . S
C213 O223 1.272 . S
O214 Co210 2.004 . S
O214 C219 1.259 . S
Co215 O216 2.061 . S
Co215 O221 2.052 . S
Co215 O223 2.135 . S
O216 Co215 2.061 . S
O216 C219 1.235 . S
C217 O220 1.238 . S
C217 O221 1.241 . S
C218 O211 1.247 . S
C218 O212 1.261 . S
C219 O214 1.259 . S
C219 O216 1.235 . S
O220 Co210 2.021 . S
O220 C217 1.238 . S
O221 Co215 2.052 . S
O221 C217 1.241 . S
O222 Co210 2.137 . S
O222 C213 1.247 . S
O223 Co210 2.244 . S
O223 C213 1.272 . S
O223 Co215 2.135 . S
Co224 O225 2.216 . S
Co224 O226 2.091 . S
Co224 O228 2.004 1_545 S
Co224 O234 2.021 . S
Co224 O236 2.137 . S
Co224 O237 2.244 . S
O225 Co224 2.216 . S
O225 C232 1.247 . S
O226 Co224 2.091 . S
O226 C232 1.261 . S
C227 O236 1.247 . S
C227 O237 1.272 . S
O228 Co224 2.004 1_565 S
O228 C233 1.259 . S
Co229 O230 2.061 . S
Co229 O235 2.052 1_565 S
Co229 O237 2.135 1_565 S
O230 Co229 2.061 . S
O230 C233 1.235 . S
C231 O234 1.238 . S
C231 O235 1.241 . S
C232 O225 1.247 . S
C232 O226 1.261 . S
C233 O228 1.259 . S
C233 O230 1.235 . S
O234 Co224 2.021 . S
O234 C231 1.238 . S
O235 Co229 2.052 1_545 S
O235 C231 1.241 . S
O236 Co224 2.137 . S
O236 C227 1.247 . S
O237 Co224 2.244 . S
O237 C227 1.272 . S
O237 Co229 2.135 1_545 S
Co238 O239 2.216 . S
Co238 O240 2.091 . S
Co238 O242 2.004 . S
Co238 O248 2.021 . S
Co238 O250 2.137 . S
Co238 O251 2.244 . S
O239 Co238 2.216 . S
O239 C246 1.247 . S
O240 Co238 2.091 . S
O240 C246 1.261 . S
C241 O250 1.247 . S
C241 O251 1.272 . S
O242 Co238 2.004 . S
O242 C247 1.259 . S
Co243 O244 2.061 . S
Co243 O249 2.052 . S
Co243 O251 2.135 . S
O244 Co243 2.061 . S
O244 C247 1.235 . S
C245 O248 1.238 . S
C245 O249 1.241 . S
C246 O239 1.247 . S
C246 O240 1.261 . S
C247 O242 1.259 . S
C247 O244 1.235 . S
O248 Co238 2.021 . S
O248 C245 1.238 . S
O249 Co243 2.052 . S
O249 C245 1.241 . S
O250 Co238 2.137 . S
O250 C241 1.247 . S
O251 Co238 2.244 . S
O251 C241 1.272 . S
O251 Co243 2.135 . S
Co252 O253 2.216 . S
Co252 O254 2.091 . S
Co252 O256 2.004 . S
Co252 O262 2.021 . S
Co252 O264 2.137 . S
Co252 O265 2.244 . S
O253 Co252 2.216 . S
O253 C260 1.247 . S
O254 Co252 2.091 . S
O254 C260 1.261 . S
C255 O264 1.247 . S
C255 O265 1.272 . S
O256 Co252 2.004 . S
O256 C261 1.259 . S
Co257 O258 2.061 . S
Co257 O263 2.052 . S
Co257 O265 2.135 . S
O258 Co257 2.061 . S
O258 C261 1.235 . S
C259 O262 1.238 . S
C259 O263 1.241 . S
C260 O253 1.247 . S
C260 O254 1.261 . S
C261 O256 1.259 . S
C261 O258 1.235 . S
O262 Co252 2.021 . S
O262 C259 1.238 . S
O263 Co257 2.052 . S
O263 C259 1.241 . S
O264 Co252 2.137 . S
O264 C255 1.247 . S
O265 Co252 2.244 . S
O265 C255 1.272 . S
O265 Co257 2.135 . S
Co266 O267 2.216 . S
Co266 O268 2.091 . S
Co266 O270 2.004 . S
Co266 O276 2.021 . S
Co266 O278 2.137 . S
Co266 O279 2.244 . S
O267 Co266 2.216 . S
O267 C274 1.247 . S
O268 Co266 2.091 . S
O268 C274 1.261 . S
C269 O278 1.247 . S
C269 O279 1.272 . S
O270 Co266 2.004 . S
O270 C275 1.259 . S
Co271 O272 2.061 . S
Co271 O277 2.052 . S
Co271 O279 2.135 . S
O272 Co271 2.061 . S
O272 C275 1.235 . S
C273 O276 1.238 . S
C273 O277 1.241 . S
C274 O267 1.247 . S
C274 O268 1.261 . S
C275 O270 1.259 . S
C275 O272 1.235 . S
O276 Co266 2.021 . S
O276 C273 1.238 . S
O277 Co271 2.052 . S
O277 C273 1.241 . S
O278 Co266 2.137 . S
O278 C269 1.247 . S
O279 Co266 2.244 . S
O279 C269 1.272 . S
O279 Co271 2.135 . S
Co280 O281 2.216 . S
Co280 O282 2.091 . S
Co280 O284 2.004 . S
Co280 O290 2.021 . S
Co280 O292 2.137 1_554 S
Co280 O293 2.244 1_554 S
O281 Co280 2.216 . S
O281 C288 1.247 . S
O282 Co280 2.091 . S
O282 C288 1.261 . S
C283 O292 1.247 . S
C283 O293 1.272 . S
O284 Co280 2.004 . S
O284 C289 1.259 . S
Co285 O286 2.061 . S
Co285 O291 2.052 . S
Co285 O293 2.135 1_554 S
O286 Co285 2.061 . S
O286 C289 1.235 . S
C287 O290 1.238 . S
C287 O291 1.241 . S
C288 O281 1.247 . S
C288 O282 1.261 . S
C289 O284 1.259 . S
C289 O286 1.235 . S
O290 Co280 2.021 . S
O290 C287 1.238 . S
O291 Co285 2.052 . S
O291 C287 1.241 . S
O292 Co280 2.137 1_556 S
O292 C283 1.247 . S
O293 Co280 2.244 1_556 S
O293 C283 1.272 . S
O293 Co285 2.135 1_556 S
Co294 O295 2.216 . S
Co294 O296 2.091 . S
Co294 O298 2.004 . S
Co294 O304 2.021 . S
Co294 O306 2.137 . S
Co294 O307 2.244 . S
O295 Co294 2.216 . S
O295 C302 1.247 . S
O296 Co294 2.091 . S
O296 C302 1.261 . S
C297 O306 1.247 . S
C297 O307 1.272 . S
O298 Co294 2.004 . S
O298 C303 1.259 . S
Co299 O300 2.061 . S
Co299 O305 2.052 . S
Co299 O307 2.135 . S
O300 Co299 2.061 . S
O300 C303 1.235 . S
C301 O304 1.238 . S
C301 O305 1.241 . S
C302 O295 1.247 . S
C302 O296 1.261 . S
C303 O298 1.259 . S
C303 O300 1.235 . S
O304 Co294 2.021 . S
O304 C301 1.238 . S
O305 Co299 2.052 . S
O305 C301 1.241 . S
O306 Co294 2.137 . S
O306 C297 1.247 . S
O307 Co294 2.244 . S
O307 C297 1.272 . S
O307 Co299 2.135 . S
Co308 O309 2.216 . S
Co308 O310 2.091 . S
Co308 O312 2.004 . S
Co308 O318 2.021 . S
Co308 O320 2.137 . S
Co308 O321 2.244 . S
O309 Co308 2.216 . S
O309 C316 1.247 . S
O310 Co308 2.091 . S
O310 C316 1.261 . S
C311 O320 1.247 . S
C311 O321 1.272 . S
O312 Co308 2.004 . S
O312 C317 1.259 . S
Co313 O314 2.061 . S
Co313 O319 2.052 . S
Co313 O321 2.135 . S
O314 Co313 2.061 . S
O314 C317 1.235 . S
C315 O318 1.238 . S
C315 O319 1.241 . S
C316 O309 1.247 . S
C316 O310 1.261 . S
C317 O312 1.259 . S
C317 O314 1.235 . S
O318 Co308 2.021 . S
O318 C315 1.238 . S
O319 Co313 2.052 . S
O319 C315 1.241 . S
O320 Co308 2.137 . S
O320 C311 1.247 . S
O321 Co308 2.244 . S
O321 C311 1.272 . S
O321 Co313 2.135 . S
Co322 O323 2.216 . S
Co322 O324 2.091 . S
Co322 O326 2.004 . S
Co322 O332 2.021 . S
Co322 O334 2.137 . S
Co322 O335 2.244 . S
O323 Co322 2.216 . S
O323 C330 1.247 . S
O324 Co322 2.091 . S
O324 C330 1.261 . S
C325 O334 1.247 . S
C325 O335 1.272 . S
O326 Co322 2.004 . S
O326 C331 1.259 . S
Co327 O328 2.061 . S
Co327 O333 2.052 . S
Co327 O335 2.135 . S
O328 Co327 2.061 . S
O328 C331 1.235 . S
C329 O332 1.238 . S
C329 O333 1.241 . S
C330 O323 1.247 . S
C330 O324 1.261 . S
C331 O326 1.259 . S
C331 O328 1.235 . S
O332 Co322 2.021 . S
O332 C329 1.238 . S
O333 Co327 2.052 . S
O333 C329 1.241 . S
O334 Co322 2.137 . S
O334 C325 1.247 . S
O335 Co322 2.244 . S
O335 C325 1.272 . S
O335 Co327 2.135 . S
C336 C338 1.422 1_556 S
C336 C340 1.415 . S
C336 N342 1.369 . S
C337 C338 1.421 . S
C337 C339 1.417 1_554 S
C337 C349 1.422 . S
C338 C336 1.422 1_554 S
C338 C337 1.421 . S
C338 N348 1.359 . S
C339 C337 1.417 1_556 S
C339 C341 1.329 . S
C339 H358 0.923 1_556 S
C340 C336 1.415 . S
C340 C341 1.437 . S
C340 C344 1.413 . S
C341 C339 1.329 . S
C341 C340 1.437 . S
C341 H363 0.929 . S
N342 C336 1.369 . S
N342 C343 1.338 . S
N342 Gd347 2.622 1_566 S
C343 N342 1.338 . S
C343 C345 1.378 . S
C343 H355 0.942 . S
C344 C340 1.413 . S
C344 C345 1.348 . S
C344 H360 0.931 . S
C345 C343 1.378 . S
C345 C344 1.348 . S
C345 H361 0.930 . S
Gd346 N366 2.622 . S
Gd346 N373 2.570 . S
Gd346 O380 2.353 . S
Gd346 O381 2.468 . S
Gd346 O382 2.427 . S
Gd346 O384 2.388 . S
Gd346 O385 2.386 . S
Gd346 O389 2.307 . S
Gd346 C399 2.805 . S
Gd347 N342 2.622 1_544 S
Gd347 N348 2.570 1_545 S
Gd347 O379 2.386 1_645 S
Gd347 O383 2.307 1_655 S
Gd347 O386 2.353 1_655 S
Gd347 O387 2.468 . S
Gd347 O388 2.427 1_554 S
Gd347 O390 2.388 1_654 S
Gd347 C411 2.805 . S
N348 C338 1.359 . S
N348 Gd347 2.570 1_565 S
N348 C350 1.343 . S
C349 C337 1.422 . S
C349 C351 1.321 . S
C349 H357 0.931 . S
C350 N348 1.343 . S
C350 C351 1.390 . S
C350 H352 0.931 . S
C351 C349 1.321 . S
C351 C350 1.390 . S
C351 H353 0.930 . S
H352 C350 0.931 . S
H353 C351 0.930 . S
H354 C377 0.931 . S
H355 C343 0.942 . S
H356 C378 0.930 1_556 S
H357 C349 0.931 . S
H358 C339 0.923 1_554 S
H359 C368 0.929 . S
H360 C344 0.931 . S
H361 C345 0.930 . S
H362 C400 0.930 . S
H363 C341 0.929 . S
H364 C369 0.931 . S
H365 C370 0.930 . S
N366 Gd346 2.622 . S
N366 C367 1.369 . S
N366 C368 1.338 . S
C367 N366 1.369 . S
C367 C371 1.415 . S
C367 C374 1.422 . S
C368 H359 0.929 . S
C368 N366 1.338 . S
C368 C370 1.378 . S
C369 H364 0.931 . S
C369 C370 1.348 . S
C369 C371 1.413 . S
C370 H365 0.930 . S
C370 C368 1.378 . S
C370 C369 1.348 . S
C371 C367 1.415 . S
C371 C369 1.413 . S
C371 C401 1.437 . S
H372 C401 0.929 . S
N373 Gd346 2.570 . S
N373 C374 1.359 . S
N373 C377 1.343 . S
C374 C367 1.422 . S
C374 N373 1.359 . S
C374 C376 1.421 . S
C375 C376 1.422 . S
C375 C378 1.321 . S
C375 H402 0.931 . S
C376 C374 1.421 . S
C376 C375 1.422 . S
C376 C400 1.417 . S
C377 H354 0.931 . S
C377 N373 1.343 . S
C377 C378 1.390 . S
C378 H356 0.930 1_554 S
C378 C375 1.321 . S
C378 C377 1.390 . S
O379 Gd347 2.386 1_465 S
O379 C391 1.265 . S
O380 Gd346 2.353 . S
O380 C391 1.242 1_545 S
O381 Gd346 2.468 . S
O381 C399 1.263 . S
O382 Gd346 2.427 . S
O382 C399 1.252 . S
O383 Gd347 2.307 1_455 S
O383 C392 1.261 . S
O384 Gd346 2.388 . S
O384 C392 1.252 . S
O385 Gd346 2.386 . S
O385 C403 1.265 . S
O386 Gd347 2.353 1_455 S
O386 C403 1.242 . S
O387 Gd347 2.468 . S
O387 C411 1.263 . S
O388 Gd347 2.427 1_556 S
O388 C411 1.252 1_556 S
O389 Gd346 2.307 . S
O389 C404 1.261 1_554 S
O390 Gd347 2.388 1_456 S
O390 C404 1.252 . S
C391 O379 1.265 . S
C391 O380 1.242 1_565 S
C392 O383 1.261 . S
C392 O384 1.252 . S
C393 C396 1.394 . S
C393 C398 1.370 . S
C393 C399 1.500 . S
C394 C397 1.383 . S
C394 C398 1.395 . S
C395 C396 1.396 . S
C395 C397 1.365 . S
C395 H412 0.929 . S
C396 C393 1.394 . S
C396 C395 1.396 . S
C396 H413 0.930 . S
C397 C394 1.383 . S
C397 C395 1.365 . S
C397 H414 0.931 . S
C398 C393 1.370 . S
C398 C394 1.395 . S
C398 H415 0.930 . S
C399 Gd346 2.805 . S
C399 O381 1.263 . S
C399 O382 1.252 . S
C399 C393 1.500 . S
C400 H362 0.930 . S
C400 C376 1.417 . S
C400 C401 1.329 . S
C401 C371 1.437 . S
C401 H372 0.929 . S
C401 C400 1.329 . S
H402 C375 0.931 . S
C403 O385 1.265 . S
C403 O386 1.242 . S
C404 O389 1.261 1_556 S
C404 O390 1.252 . S
C405 C408 1.394 1_554 S
C405 C410 1.370 . S
C405 C411 1.500 . S
C406 C409 1.383 1_554 S
C406 C410 1.395 . S
C407 C408 1.396 . S
C407 C409 1.365 . S
C407 H416 0.929 . S
C408 C405 1.394 1_556 S
C408 C407 1.396 . S
C408 H417 0.930 . S
C409 C406 1.383 1_556 S
C409 C407 1.365 . S
C409 H418 0.931 . S
C410 C405 1.370 . S
C410 C406 1.395 . S
C410 H419 0.930 . S
C411 Gd347 2.805 . S
C411 O387 1.263 . S
C411 O388 1.252 1_554 S
C411 C405 1.500 . S
H412 C395 0.929 . S
H413 C396 0.930 . S
H414 C397 0.931 . S
H415 C398 0.930 . S
H416 C407 0.929 . S
H417 C408 0.930 . S
H418 C409 0.931 . S
H419 C410 0.930 . S
C420 C422 1.422 . S
C420 C424 1.415 . S
C420 N426 1.369 . S
C421 C422 1.421 . S
C421 C423 1.417 . S
C421 C433 1.422 . S
C422 C420 1.422 . S
C422 C421 1.421 . S
C422 N432 1.359 . S
C423 C421 1.417 . S
C423 C425 1.329 . S
C423 H442 0.930 . S
C424 C420 1.415 . S
C424 C425 1.437 . S
C424 C428 1.413 . S
C425 C423 1.329 . S
C425 C424 1.437 . S
C425 H447 0.929 . S
N426 C420 1.369 . S
N426 C427 1.338 . S
N426 Gd431 2.622 . S
C427 N426 1.338 . S
C427 C429 1.378 . S
C427 H439 0.929 . S
C428 C424 1.413 . S
C428 C429 1.348 . S
C428 H444 0.931 . S
C429 C427 1.378 . S
C429 C428 1.348 . S
C429 H445 0.930 . S
Gd430 N450 2.622 . S
Gd430 N457 2.570 . S
Gd430 O464 2.353 . S
Gd430 O465 2.468 . S
Gd430 O466 2.427 . S
Gd430 O468 2.388 . S
Gd430 O469 2.386 . S
Gd430 O473 2.307 . S
Gd430 C483 2.805 . S
Gd431 N426 2.622 . S
Gd431 N432 2.570 . S
Gd431 O463 2.386 . S
Gd431 O467 2.307 . S
Gd431 O470 2.353 . S
Gd431 O471 2.468 . S
Gd431 O472 2.427 . S
Gd431 O474 2.388 . S
Gd431 C495 2.805 . S
N432 C422 1.359 . S
N432 Gd431 2.570 . S
N432 C434 1.343 . S
C433 C421 1.422 . S
C433 C435 1.321 . S
C433 H441 0.931 . S
C434 N432 1.343 . S
C434 C435 1.390 . S
C434 H436 0.931 . S
C435 C433 1.321 . S
C435 C434 1.390 . S
C435 H437 0.930 . S
H436 C434 0.931 . S
H437 C435 0.930 . S
H438 C461 0.931 . S
H439 C427 0.929 . S
H440 C462 0.930 . S
H441 C433 0.931 . S
H442 C423 0.930 . S
H443 C452 0.929 . S
H444 C428 0.931 . S
H445 C429 0.930 . S
H446 C484 0.930 . S
H447 C425 0.929 . S
H448 C453 0.931 . S
H449 C454 0.930 . S
N450 Gd430 2.622 . S
N450 C451 1.369 . S
N450 C452 1.338 . S
C451 N450 1.369 . S
C451 C455 1.415 . S
C451 C458 1.422 . S
C452 H443 0.929 . S
C452 N450 1.338 . S
C452 C454 1.378 . S
C453 H448 0.931 . S
C453 C454 1.348 . S
C453 C455 1.413 . S
C454 H449 0.930 . S
C454 C452 1.378 . S
C454 C453 1.348 . S
C455 C451 1.415 . S
C455 C453 1.413 . S
C455 C485 1.437 . S
H456 C485 0.929 . S
N457 Gd430 2.570 . S
N457 C458 1.359 . S
N457 C461 1.343 . S
C458 C451 1.422 . S
C458 N457 1.359 . S
C458 C460 1.421 . S
C459 C460 1.422 . S
C459 C462 1.321 . S
C459 H486 0.931 . S
C460 C458 1.421 . S
C460 C459 1.422 . S
C460 C484 1.417 . S
C461 H438 0.931 . S
C461 N457 1.343 . S
C461 C462 1.390 . S
C462 H440 0.930 . S
C462 C459 1.321 . S
C462 C461 1.390 . S
O463 Gd431 2.386 . S
O463 C475 1.265 . S
O464 Gd430 2.353 . S
O464 C475 1.242 . S
O465 Gd430 2.468 . S
O465 C483 1.263 . S
O466 Gd430 2.427 . S
O466 C483 1.252 . S
O467 Gd431 2.307 . S
O467 C476 1.261 . S
O468 Gd430 2.388 . S
O468 C476 1.252 . S
O469 Gd430 2.386 . S
O469 C487 1.265 . S
O470 Gd431 2.353 . S
O470 C487 1.242 . S
O471 Gd431 2.468 . S
O471 C495 1.263 . S
O472 Gd431 2.427 . S
O472 C495 1.252 . S
O473 Gd430 2.307 . S
O473 C488 1.261 . S
O474 Gd431 2.388 . S
O474 C488 1.252 . S
C475 O463 1.265 . S
C475 O464 1.242 . S
C476 O467 1.261 . S
C476 O468 1.252 . S
C477 C480 1.394 . S
C477 C482 1.370 . S
C477 C483 1.500 . S
C478 C481 1.383 . S
C478 C482 1.395 . S
C479 C480 1.396 . S
C479 C481 1.365 . S
C479 H496 0.929 . S
C480 C477 1.394 . S
C480 C479 1.396 . S
C480 H497 0.930 . S
C481 C478 1.383 . S
C481 C479 1.365 . S
C481 H498 0.931 . S
C482 C477 1.370 . S
C482 C478 1.395 . S
C482 H499 0.930 . S
C483 Gd430 2.805 . S
C483 O465 1.263 . S
C483 O466 1.252 . S
C483 C477 1.500 . S
C484 H446 0.930 . S
C484 C460 1.417 . S
C484 C485 1.329 . S
C485 C455 1.437 . S
C485 H456 0.929 . S
C485 C484 1.329 . S
H486 C459 0.931 . S
C487 O469 1.265 . S
C487 O470 1.242 . S
C488 O473 1.261 . S
C488 O474 1.252 . S
C489 C492 1.394 . S
C489 C494 1.370 . S
C489 C495 1.500 . S
C490 C493 1.383 . S
C490 C494 1.395 . S
C491 C492 1.396 . S
C491 C493 1.365 . S
C491 H500 0.929 . S
C492 C489 1.394 . S
C492 C491 1.396 . S
C492 H501 0.930 . S
C493 C490 1.383 . S
C493 C491 1.365 . S
C493 H502 0.931 . S
C494 C489 1.370 . S
C494 C490 1.395 . S
C494 H503 0.930 . S
C495 Gd431 2.805 . S
C495 O471 1.263 . S
C495 O472 1.252 . S
C495 C489 1.500 . S
H496 C479 0.929 . S
H497 C480 0.930 . S
H498 C481 0.931 . S
H499 C482 0.930 . S
H500 C491 0.929 . S
H501 C492 0.930 . S
H502 C493 0.931 . S
H503 C494 0.930 . S
C504 C506 1.422 . S
C504 C508 1.415 . S
C504 N510 1.369 . S
C505 C506 1.421 . S
C505 C507 1.417 . S
C505 C517 1.422 . S
C506 C504 1.422 . S
C506 C505 1.421 . S
C506 N516 1.359 . S
C507 C505 1.417 . S
C507 C509 1.329 . S
C507 H526 0.930 . S
C508 C504 1.415 . S
C508 C509 1.437 . S
C508 C512 1.413 . S
C509 C507 1.329 . S
C509 C508 1.437 . S
C509 H531 0.929 . S
N510 C504 1.369 . S
N510 C511 1.338 . S
N510 Gd515 2.622 . S
C511 N510 1.338 . S
C511 C513 1.378 . S
C511 H523 0.929 . S
C512 C508 1.413 . S
C512 C513 1.348 . S
C512 H528 0.931 . S
C513 C511 1.378 . S
C513 C512 1.348 . S
C513 H529 0.930 . S
Gd514 N534 2.591 1_545 S
Gd514 N541 2.570 1_545 S
Gd514 O548 2.353 . S
Gd514 O549 2.468 . S
Gd514 O550 2.427 . S
Gd514 O552 2.388 . S
Gd514 O553 2.386 1_545 S
Gd514 O557 2.307 . S
Gd514 C567 2.805 . S
Gd515 N510 2.622 . S
Gd515 N516 2.570 . S
Gd515 O547 2.386 . S
Gd515 O551 2.307 . S
Gd515 O554 2.353 1_545 S
Gd515 O555 2.468 . S
Gd515 O556 2.427 . S
Gd515 O558 2.388 . S
Gd515 C579 2.805 . S
N516 C506 1.359 . S
N516 Gd515 2.570 . S
N516 C518 1.343 . S
C517 C505 1.422 . S
C517 C519 1.321 . S
C517 H525 0.931 . S
C518 N516 1.343 . S
C518 C519 1.390 . S
C518 H520 0.931 . S
C519 C517 1.321 . S
C519 C518 1.390 . S
C519 H521 0.930 . S
H520 C518 0.931 . S
H521 C519 0.930 . S
H522 C545 0.931 . S
H523 C511 0.929 . S
H524 C546 0.930 . S
H525 C517 0.931 . S
H526 C507 0.930 . S
H527 C536 0.929 . S
H528 C512 0.931 . S
H529 C513 0.930 . S
H530 C568 0.930 . S
H531 C509 0.929 . S
H532 C537 0.931 . S
H533 C538 0.930 . S
N534 Gd514 2.591 1_565 S
N534 C535 1.404 . S
N534 C536 1.340 1_565 S
C535 N534 1.404 . S
C535 C539 1.415 . S
C535 C542 1.422 . S
C536 H527 0.929 . S
C536 N534 1.340 1_545 S
C536 C538 1.378 1_545 S
C537 H532 0.931 . S
C537 C538 1.348 . S
C537 C539 1.413 . S
C538 H533 0.930 . S
C538 C536 1.378 1_565 S
C538 C537 1.348 . S
C539 C535 1.415 . S
C539 C537 1.413 . S
C539 C569 1.437 . S
H540 C569 0.929 . S
N541 Gd514 2.570 1_565 S
N541 C542 1.359 . S
N541 C545 1.343 . S
C542 C535 1.422 . S
C542 N541 1.359 . S
C542 C544 1.421 . S
C543 C544 1.422 . S
C543 C546 1.321 . S
C543 H570 0.931 . S
C544 C542 1.421 . S
C544 C543 1.422 . S
C544 C568 1.417 . S
C545 H522 0.931 . S
C545 N541 1.343 . S
C545 C546 1.390 . S
C546 H524 0.930 . S
C546 C543 1.321 . S
C546 C545 1.390 . S
O547 Gd515 2.386 . S
O547 C559 1.265 . S
O548 Gd514 2.353 . S
O548 C559 1.242 . S
O549 Gd514 2.468 . S
O549 C567 1.263 . S
O550 Gd514 2.427 . S
O550 C567 1.252 . S
O551 Gd515 2.307 . S
O551 C560 1.261 . S
O552 Gd514 2.388 . S
O552 C560 1.252 . S
O553 Gd514 2.386 1_565 S
O553 C571 1.265 . S
O554 Gd515 2.353 1_565 S
O554 C571 1.242 . S
O555 Gd515 2.468 . S
O555 C579 1.263 . S
O556 Gd515 2.427 . S
O556 C579 1.252 . S
O557 Gd514 2.307 . S
O557 C572 1.261 . S
O558 Gd515 2.388 . S
O558 C572 1.252 . S
C559 O547 1.265 . S
C559 O548 1.242 . S
C560 O551 1.261 . S
C560 O552 1.252 . S
C561 C564 1.394 . S
C561 C566 1.370 . S
C561 C567 1.500 . S
C562 C565 1.383 . S
C562 C566 1.395 . S
C563 C564 1.396 . S
C563 C565 1.365 . S
C563 H580 0.929 . S
C564 C561 1.394 . S
C564 C563 1.396 . S
C564 H581 0.930 . S
C565 C562 1.383 . S
C565 C563 1.365 . S
C565 H582 0.931 . S
C566 C561 1.370 . S
C566 C562 1.395 . S
C566 H583 0.930 . S
C567 Gd514 2.805 . S
C567 O549 1.263 . S
C567 O550 1.252 . S
C567 C561 1.500 . S
C568 H530 0.930 . S
C568 C544 1.417 . S
C568 C569 1.329 . S
C569 C539 1.437 . S
C569 H540 0.929 . S
C569 C568 1.329 . S
H570 C543 0.931 . S
C571 O553 1.265 . S
C571 O554 1.242 . S
C572 O557 1.261 . S
C572 O558 1.252 . S
C573 C576 1.394 . S
C573 C578 1.370 . S
C573 C579 1.500 1_565 S
C574 C577 1.383 . S
C574 C578 1.395 . S
C575 C576 1.396 . S
C575 C577 1.365 . S
C575 H584 0.929 . S
C576 C573 1.394 . S
C576 C575 1.396 . S
C576 H585 0.930 . S
C577 C574 1.383 . S
C577 C575 1.365 . S
C577 H586 0.931 . S
C578 C573 1.370 . S
C578 C574 1.395 . S
C578 H587 0.930 . S
C579 Gd515 2.805 . S
C579 O555 1.263 . S
C579 O556 1.252 . S
C579 C573 1.500 1_545 S
H580 C563 0.929 . S
H581 C564 0.930 . S
H582 C565 0.931 . S
H583 C566 0.930 . S
H584 C575 0.929 . S
H585 C576 0.930 . S
H586 C577 0.931 . S
H587 C578 0.930 . S
C588 C590 1.422 . S
C588 C592 1.415 . S
C588 N594 1.369 . S
C589 C590 1.421 . S
C589 C591 1.417 . S
C589 C601 1.422 . S
C590 C588 1.422 . S
C590 C589 1.421 . S
C590 N600 1.359 . S
C591 C589 1.417 . S
C591 C593 1.329 . S
C591 H610 0.930 . S
C592 C588 1.415 . S
C592 C593 1.437 . S
C592 C596 1.413 . S
C593 C591 1.329 . S
C593 C592 1.437 . S
C593 H615 0.929 . S
N594 C588 1.369 . S
N594 C595 1.338 . S
N594 Gd599 2.622 . S
C595 N594 1.338 . S
C595 C597 1.378 . S
C595 H607 0.929 . S
C596 C592 1.413 . S
C596 C597 1.348 . S
C596 H612 0.931 . S
C597 C595 1.378 . S
C597 C596 1.348 . S
C597 H613 0.930 . S
Gd598 N618 2.622 . S
Gd598 N625 2.570 . S
Gd598 O632 2.353 . S
Gd598 O633 2.468 . S
Gd598 O634 2.427 . S
Gd598 O636 2.388 . S
Gd598 O637 2.386 . S
Gd598 O641 2.307 . S
Gd598 C651 2.805 . S
Gd599 N594 2.622 . S
Gd599 N600 2.570 . S
Gd599 O631 2.386 . S
Gd599 O635 2.307 . S
Gd599 O638 2.353 . S
Gd599 O639 2.468 . S
Gd599 O640 2.427 . S
Gd599 O642 2.388 . S
Gd599 C663 2.805 . S
N600 C590 1.359 . S
N600 Gd599 2.570 . S
N600 C602 1.343 . S
C601 C589 1.422 . S
C601 C603 1.321 . S
C601 H609 0.931 . S
C602 N600 1.343 . S
C602 C603 1.390 . S
C602 H604 0.931 . S
C603 C601 1.321 . S
C603 C602 1.390 . S
C603 H605 0.930 . S
H604 C602 0.931 . S
H605 C603 0.930 . S
H606 C629 0.931 . S
H607 C595 0.929 . S
H608 C630 0.930 . S
H609 C601 0.931 . S
H610 C591 0.930 . S
H611 C620 0.929 . S
H612 C596 0.931 . S
H613 C597 0.930 . S
H614 C652 0.930 . S
H615 C593 0.929 . S
H616 C621 0.931 . S
H617 C622 0.930 . S
N618 Gd598 2.622 . S
N618 C619 1.369 . S
N618 C620 1.338 . S
C619 N618 1.369 . S
C619 C623 1.415 . S
C619 C626 1.422 . S
C620 H611 0.929 . S
C620 N618 1.338 . S
C620 C622 1.378 . S
C621 H616 0.931 . S
C621 C622 1.348 . S
C621 C623 1.413 . S
C622 H617 0.930 . S
C622 C620 1.378 . S
C622 C621 1.348 . S
C623 C619 1.415 . S
C623 C621 1.413 . S
C623 C653 1.437 . S
H624 C653 0.929 . S
N625 Gd598 2.570 . S
N625 C626 1.359 . S
N625 C629 1.343 . S
C626 C619 1.422 . S
C626 N625 1.359 . S
C626 C628 1.421 . S
C627 C628 1.422 . S
C627 C630 1.321 . S
C627 H654 0.931 . S
C628 C626 1.421 . S
C628 C627 1.422 . S
C628 C652 1.417 . S
C629 H606 0.931 . S
C629 N625 1.343 . S
C629 C630 1.390 . S
C630 H608 0.930 . S
C630 C627 1.321 . S
C630 C629 1.390 . S
O631 Gd599 2.386 . S
O631 C643 1.265 . S
O632 Gd598 2.353 . S
O632 C643 1.242 . S
O633 Gd598 2.468 . S
O633 C651 1.263 . S
O634 Gd598 2.427 . S
O634 C651 1.252 . S
O635 Gd599 2.307 . S
O635 C644 1.261 . S
O636 Gd598 2.388 . S
O636 C644 1.252 . S
O637 Gd598 2.386 . S
O637 C655 1.265 . S
O638 Gd599 2.353 . S
O638 C655 1.242 . S
O639 Gd599 2.468 . S
O639 C663 1.263 . S
O640 Gd599 2.427 . S
O640 C663 1.252 . S
O641 Gd598 2.307 . S
O641 C656 1.261 . S
O642 Gd599 2.388 . S
O642 C656 1.252 . S
C643 O631 1.265 . S
C643 O632 1.242 . S
C644 O635 1.261 . S
C644 O636 1.252 . S
C645 C648 1.394 . S
C645 C650 1.370 . S
C645 C651 1.500 . S
C646 C649 1.383 . S
C646 C650 1.395 . S
C647 C648 1.396 . S
C647 C649 1.365 . S
C647 H664 0.929 . S
C648 C645 1.394 . S
C648 C647 1.396 . S
C648 H665 0.930 . S
C649 C646 1.383 . S
C649 C647 1.365 . S
C649 H666 0.931 . S
C650 C645 1.370 . S
C650 C646 1.395 . S
C650 H667 0.930 . S
C651 Gd598 2.805 . S
C651 O633 1.263 . S
C651 O634 1.252 . S
C651 C645 1.500 . S
C652 H614 0.930 . S
C652 C628 1.417 . S
C652 C653 1.329 . S
C653 C623 1.437 . S
C653 H624 0.929 . S
C653 C652 1.329 . S
H654 C627 0.931 . S
C655 O637 1.265 . S
C655 O638 1.242 . S
C656 O641 1.261 . S
C656 O642 1.252 . S
C657 C660 1.394 . S
C657 C662 1.370 . S
C657 C663 1.500 . S
C658 C661 1.383 . S
C658 C662 1.395 . S
C659 C660 1.396 . S
C659 C661 1.365 . S
C659 H668 0.929 . S
C660 C657 1.394 . S
C660 C659 1.396 . S
C660 H669 0.930 . S
C661 C658 1.383 . S
C661 C659 1.365 . S
C661 H670 0.931 . S
C662 C657 1.370 . S
C662 C658 1.395 . S
C662 H671 0.930 . S
C663 Gd599 2.805 . S
C663 O639 1.263 . S
C663 O640 1.252 . S
C663 C657 1.500 . S
H664 C647 0.929 . S
H665 C648 0.930 . S
H666 C649 0.931 . S
H667 C650 0.930 . S
H668 C659 0.929 . S
H669 C660 0.930 . S
H670 C661 0.931 . S
H671 C662 0.930 . S
C672 C674 1.422 . S
C672 C676 1.415 1_455 S
C672 N678 1.369 1_455 S
C673 C674 1.421 . S
C673 C675 1.417 . S
C673 C685 1.422 . S
C674 C672 1.422 . S
C674 C673 1.421 . S
C674 N684 1.359 . S
C675 C673 1.417 . S
C675 C677 1.329 . S
C675 H694 0.930 . S
C676 C672 1.415 1_655 S
C676 C677 1.437 1_655 S
C676 C680 1.413 . S
C677 C675 1.329 . S
C677 C676 1.437 1_455 S
C677 H699 0.903 1_455 S
N678 C672 1.369 1_655 S
N678 C679 1.338 . S
N678 Gd683 2.622 1_655 S
C679 N678 1.338 . S
C679 C681 1.378 . S
C679 H691 0.929 . S
C680 C676 1.413 . S
C680 C681 1.348 . S
C680 H696 0.931 . S
C681 C679 1.378 . S
C681 C680 1.348 . S
C681 H697 0.930 . S
Gd682 N702 2.622 . S
Gd682 N709 2.570 . S
Gd682 O716 2.353 1_565 S
Gd682 O717 2.468 . S
Gd682 O718 2.427 . S
Gd682 O720 2.388 1_565 S
Gd682 O721 2.386 1_565 S
Gd682 O725 2.307 1_565 S
Gd682 C735 2.805 . S
Gd683 N678 2.622 1_455 S
Gd683 N684 2.570 . S
Gd683 O715 2.386 . S
Gd683 O719 2.307 . S
Gd683 O722 2.353 . S
Gd683 O723 2.468 . S
Gd683 O724 2.427 1_455 S
Gd683 O726 2.388 1_455 S
Gd683 C747 2.805 . S
N684 C674 1.359 . S
N684 Gd683 2.570 . S
N684 C686 1.343 . S
C685 C673 1.422 . S
C685 C687 1.321 . S
C685 H693 0.931 . S
C686 N684 1.343 . S
C686 C687 1.390 . S
C686 H688 0.931 . S
C687 C685 1.321 . S
C687 C686 1.390 . S
C687 H689 0.930 . S
H688 C686 0.931 . S
H689 C687 0.930 . S
H690 C713 0.930 1_655 S
H691 C679 0.929 . S
H692 C714 0.930 . S
H693 C685 0.931 . S
H694 C675 0.930 . S
H695 C704 0.929 1_545 S
H696 C680 0.931 . S
H697 C681 0.930 . S
H698 C736 0.930 . S
H699 C677 0.903 1_655 S
H700 C705 0.931 . S
H701 C706 0.930 . S
N702 Gd682 2.622 . S
N702 C703 1.369 . S
N702 C704 1.338 . S
C703 N702 1.369 . S
C703 C707 1.415 . S
C703 C710 1.422 . S
C704 H695 0.929 1_565 S
C704 N702 1.338 . S
C704 C706 1.378 . S
C705 H700 0.931 . S
C705 C706 1.348 . S
C705 C707 1.413 . S
C706 H701 0.930 . S
C706 C704 1.378 . S
C706 C705 1.348 . S
C707 C703 1.415 . S
C707 C705 1.413 . S
C707 C737 1.437 . S
H708 C737 0.929 . S
N709 Gd682 2.570 . S
N709 C710 1.359 . S
N709 C713 1.345 . S
C710 C703 1.422 . S
C710 N709 1.359 . S
C710 C712 1.421 . S
C711 C712 1.422 1_655 S
C711 C714 1.321 . S
C711 H738 0.931 . S
C712 C710 1.421 . S
C712 C711 1.422 1_455 S
C712 C736 1.417 . S
C713 H690 0.930 1_455 S
C713 N709 1.345 . S
C713 C714 1.389 1_455 S
C714 H692 0.930 . S
C714 C711 1.321 . S
C714 C713 1.389 1_655 S
O715 Gd683 2.386 . S
O715 C727 1.265 . S
O716 Gd682 2.353 1_545 S
O716 C727 1.242 . S
O717 Gd682 2.468 . S
O717 C735 1.263 . S
O718 Gd682 2.427 . S
O718 C735 1.252 . S
O719 Gd683 2.307 . S
O719 C728 1.261 . S
O720 Gd682 2.388 1_545 S
O720 C728 1.252 . S
O721 Gd682 2.386 1_545 S
O721 C739 1.265 . S
O722 Gd683 2.353 . S
O722 C739 1.242 . S
O723 Gd683 2.468 . S
O723 C747 1.263 . S
O724 Gd683 2.427 1_655 S
O724 C747 1.252 1_655 S
O725 Gd682 2.307 1_545 S
O725 C740 1.261 1_455 S
O726 Gd683 2.388 1_655 S
O726 C740 1.252 . S
C727 O715 1.265 . S
C727 O716 1.242 . S
C728 O719 1.261 . S
C728 O720 1.252 . S
C729 C732 1.394 . S
C729 C734 1.370 . S
C729 C735 1.500 . S
C730 C733 1.383 . S
C730 C734 1.395 . S
C731 C732 1.396 . S
C731 C733 1.365 . S
C731 H748 0.929 . S
C732 C729 1.394 . S
C732 C731 1.396 . S
C732 H749 0.930 . S
C733 C730 1.383 . S
C733 C731 1.365 . S
C733 H750 0.931 . S
C734 C729 1.370 . S
C734 C730 1.395 . S
C734 H751 0.930 . S
C735 Gd682 2.805 . S
C735 O717 1.263 . S
C735 O718 1.252 . S
C735 C729 1.500 . S
C736 H698 0.930 . S
C736 C712 1.417 . S
C736 C737 1.329 . S
C737 C707 1.437 . S
C737 H708 0.929 . S
C737 C736 1.329 . S
H738 C711 0.931 . S
C739 O721 1.265 . S
C739 O722 1.242 . S
C740 O725 1.261 1_655 S
C740 O726 1.252 . S
C741 C744 1.394 1_455 S
C741 C746 1.370 . S
C741 C747 1.500 . S
C742 C745 1.341 1_455 S
C742 C746 1.395 . S
C743 C744 1.396 . S
C743 C745 1.396 . S
C743 H752 0.929 . S
C744 C741 1.394 1_655 S
C744 C743 1.396 . S
C744 H753 0.930 . S
C745 C742 1.341 1_655 S
C745 C743 1.396 . S
C745 H754 0.945 . S
C746 C741 1.370 . S
C746 C742 1.395 . S
C746 H755 0.930 . S
C747 Gd683 2.805 . S
C747 O723 1.263 . S
C747 O724 1.252 1_455 S
C747 C741 1.500 . S
H748 C731 0.929 . S
H749 C732 0.930 . S
H750 C733 0.931 . S
H751 C734 0.930 . S
H752 C743 0.929 . S
H753 C744 0.930 . S
H754 C745 0.945 . S
H755 C746 0.930 . S
C756 C758 1.422 . S
C756 C760 1.415 . S
C756 N762 1.369 . S
C757 C758 1.421 . S
C757 C759 1.417 . S
C757 C769 1.422 . S
C758 C756 1.422 . S
C758 C757 1.421 . S
C758 N768 1.359 . S
C759 C757 1.417 . S
C759 C761 1.329 . S
C759 H778 0.930 . S
C760 C756 1.415 . S
C760 C761 1.437 . S
C760 C764 1.413 . S
C761 C759 1.329 . S
C761 C760 1.437 . S
C761 H783 0.929 . S
N762 C756 1.369 . S
N762 C763 1.338 . S
N762 Gd767 2.622 . S
C763 N762 1.338 . S
C763 C765 1.378 . S
C763 H775 0.929 . S
C764 C760 1.413 . S
C764 C765 1.348 . S
C764 H780 0.931 . S
C765 C763 1.378 . S
C765 C764 1.348 . S
C765 H781 0.930 . S
Gd766 N786 2.622 . S
Gd766 N793 2.570 . S
Gd766 O800 2.353 . S
Gd766 O801 2.468 . S
Gd766 O802 2.427 . S
Gd766 O804 2.388 . S
Gd766 O805 2.386 . S
Gd766 O809 2.307 . S
Gd766 C819 2.805 . S
Gd767 N762 2.622 . S
Gd767 N768 2.570 . S
Gd767 O799 2.386 . S
Gd767 O803 2.307 . S
Gd767 O806 2.353 . S
Gd767 O807 2.468 . S
Gd767 O808 2.427 . S
Gd767 O810 2.388 . S
Gd767 C831 2.805 . S
N768 C758 1.359 . S
N768 Gd767 2.570 . S
N768 C770 1.343 . S
C769 C757 1.422 . S
C769 C771 1.321 . S
C769 H777 0.931 . S
C770 N768 1.343 . S
C770 C771 1.390 . S
C770 H772 0.931 . S
C771 C769 1.321 . S
C771 C770 1.390 . S
C771 H773 0.930 . S
H772 C770 0.931 . S
H773 C771 0.930 . S
H774 C797 0.931 . S
H775 C763 0.929 . S
H776 C798 0.930 . S
H777 C769 0.931 . S
H778 C759 0.930 . S
H779 C788 0.929 . S
H780 C764 0.931 . S
H781 C765 0.930 . S
H782 C820 0.930 . S
H783 C761 0.929 . S
H784 C789 0.931 . S
H785 C790 0.930 . S
N786 Gd766 2.622 . S
N786 C787 1.369 . S
N786 C788 1.338 . S
C787 N786 1.369 . S
C787 C791 1.415 . S
C787 C794 1.422 . S
C788 H779 0.929 . S
C788 N786 1.338 . S
C788 C790 1.378 . S
C789 H784 0.931 . S
C789 C790 1.348 . S
C789 C791 1.413 . S
C790 H785 0.930 . S
C790 C788 1.378 . S
C790 C789 1.348 . S
C791 C787 1.415 . S
C791 C789 1.413 . S
C791 C821 1.437 . S
H792 C821 0.929 . S
N793 Gd766 2.570 . S
N793 C794 1.359 . S
N793 C797 1.343 . S
C794 C787 1.422 . S
C794 N793 1.359 . S
C794 C796 1.421 . S
C795 C796 1.422 . S
C795 C798 1.321 . S
C795 H822 0.931 . S
C796 C794 1.421 . S
C796 C795 1.422 . S
C796 C820 1.417 . S
C797 H774 0.931 . S
C797 N793 1.343 . S
C797 C798 1.390 . S
C798 H776 0.930 . S
C798 C795 1.321 . S
C798 C797 1.390 . S
O799 Gd767 2.386 . S
O799 C811 1.265 . S
O800 Gd766 2.353 . S
O800 C811 1.242 . S
O801 Gd766 2.468 . S
O801 C819 1.263 . S
O802 Gd766 2.427 . S
O802 C819 1.252 . S
O803 Gd767 2.307 . S
O803 C812 1.261 . S
O804 Gd766 2.388 . S
O804 C812 1.252 . S
O805 Gd766 2.386 . S
O805 C823 1.265 . S
O806 Gd767 2.353 . S
O806 C823 1.242 . S
O807 Gd767 2.468 . S
O807 C831 1.263 . S
O808 Gd767 2.427 . S
O808 C831 1.252 . S
O809 Gd766 2.307 . S
O809 C824 1.261 . S
O810 Gd767 2.388 . S
O810 C824 1.252 . S
C811 O799 1.265 . S
C811 O800 1.242 . S
C812 O803 1.261 . S
C812 O804 1.252 . S
C813 C816 1.394 . S
C813 C818 1.370 . S
C813 C819 1.500 . S
C814 C817 1.383 . S
C814 C818 1.395 . S
C815 C816 1.396 . S
C815 C817 1.365 . S
C815 H832 0.929 . S
C816 C813 1.394 . S
C816 C815 1.396 . S
C816 H833 0.930 . S
C817 C814 1.383 . S
C817 C815 1.365 . S
C817 H834 0.931 . S
C818 C813 1.370 . S
C818 C814 1.395 . S
C818 H835 0.930 . S
C819 Gd766 2.805 . S
C819 O801 1.263 . S
C819 O802 1.252 . S
C819 C813 1.500 . S
C820 H782 0.930 . S
C820 C796 1.417 . S
C820 C821 1.329 . S
C821 C791 1.437 . S
C821 H792 0.929 . S
C821 C820 1.329 . S
H822 C795 0.931 . S
C823 O805 1.265 . S
C823 O806 1.242 . S
C824 O809 1.261 . S
C824 O810 1.252 . S
C825 C828 1.394 . S
C825 C830 1.370 . S
C825 C831 1.500 . S
C826 C829 1.383 . S
C826 C830 1.395 . S
C827 C828 1.396 . S
C827 C829 1.365 . S
C827 H836 0.929 . S
C828 C825 1.394 . S
C828 C827 1.396 . S
C828 H837 0.930 . S
C829 C826 1.383 . S
C829 C827 1.365 . S
C829 H838 0.931 . S
C830 C825 1.370 . S
C830 C826 1.395 . S
C830 H839 0.930 . S
C831 Gd767 2.805 . S
C831 O807 1.263 . S
C831 O808 1.252 . S
C831 C825 1.500 . S
H832 C815 0.929 . S
H833 C816 0.930 . S
H834 C817 0.931 . S
H835 C818 0.930 . S
H836 C827 0.929 . S
H837 C828 0.930 . S
H838 C829 0.931 . S
H839 C830 0.930 . S
C840 C842 1.374 1_565 S
C840 C844 1.453 . S
C840 N846 1.380 . S
C841 C842 1.421 . S
C841 C843 1.417 . S
C841 C853 1.422 . S
C842 C840 1.374 1_545 S
C842 C841 1.421 . S
C842 N852 1.359 . S
C843 C841 1.417 . S
C843 C845 1.329 1_545 S
C843 H862 0.930 . S
C844 C840 1.453 . S
C844 C845 1.437 . S
C844 C848 1.413 . S
C845 C843 1.329 1_565 S
C845 C844 1.437 . S
C845 H867 0.929 . S
N846 C840 1.380 . S
N846 C847 1.338 . S
N846 Gd851 2.622 1_565 S
C847 N846 1.338 . S
C847 C849 1.378 . S
C847 H859 0.929 . S
C848 C844 1.413 . S
C848 C849 1.348 . S
C848 H864 0.931 . S
C849 C847 1.378 . S
C849 C848 1.348 . S
C849 H865 0.930 . S
Gd850 N870 2.622 . S
Gd850 N877 2.570 . S
Gd850 O884 2.353 1_556 S
Gd850 O885 2.468 . S
Gd850 O886 2.427 . S
Gd850 O888 2.388 1_556 S
Gd850 O889 2.386 1_556 S
Gd850 O893 2.306 1_556 S
Gd850 C903 2.805 . S
Gd851 N846 2.622 1_545 S
Gd851 N852 2.570 . S
Gd851 O883 2.386 . S
Gd851 O887 2.307 . S
Gd851 O890 2.353 . S
Gd851 O891 2.468 . S
Gd851 O892 2.427 1_545 S
Gd851 O894 2.388 1_545 S
Gd851 C915 2.805 . S
N852 C842 1.359 . S
N852 Gd851 2.570 . S
N852 C854 1.343 . S
C853 C841 1.422 . S
C853 C855 1.321 . S
C853 H861 0.931 . S
C854 N852 1.343 . S
C854 C855 1.390 . S
C854 H856 0.931 . S
C855 C853 1.321 . S
C855 C854 1.390 . S
C855 H857 0.930 . S
H856 C854 0.931 . S
H857 C855 0.930 . S
H858 C881 0.948 . S
H859 C847 0.929 . S
H860 C882 0.930 . S
H861 C853 0.931 . S
H862 C843 0.930 . S
H863 C872 0.929 1_554 S
H864 C848 0.931 . S
H865 C849 0.930 . S
H866 C904 0.930 . S
H867 C845 0.929 . S
H868 C873 0.931 . S
H869 C874 0.930 . S
N870 Gd850 2.622 . S
N870 C871 1.369 . S
N870 C872 1.338 . S
C871 N870 1.369 . S
C871 C875 1.415 . S
C871 C878 1.422 . S
C872 H863 0.929 1_556 S
C872 N870 1.338 . S
C872 C874 1.378 . S
C873 H868 0.931 . S
C873 C874 1.348 . S
C873 C875 1.413 . S
C874 H869 0.930 . S
C874 C872 1.378 . S
C874 C873 1.348 . S
C875 C871 1.415 . S
C875 C873 1.413 . S
C875 C905 1.437 . S
H876 C905 0.929 . S
N877 Gd850 2.570 . S
N877 C878 1.359 . S
N877 C881 1.343 . S
C878 C871 1.422 . S
C878 N877 1.359 . S
C878 C880 1.421 . S
C879 C880 1.422 . S
C879 C882 1.321 1_545 S
C879 H906 0.930 1_545 S
C880 C878 1.421 . S
C880 C879 1.422 . S
C880 C904 1.417 . S
C881 H858 0.948 . S
C881 N877 1.343 . S
C881 C882 1.390 1_545 S
C882 H860 0.930 . S
C882 C879 1.321 1_565 S
C882 C881 1.390 1_565 S
O883 Gd851 2.386 . S
O883 C895 1.265 . S
O884 Gd850 2.353 1_554 S
O884 C895 1.242 . S
O885 Gd850 2.468 . S
O885 C903 1.263 . S
O886 Gd850 2.427 . S
O886 C903 1.252 . S
O887 Gd851 2.307 . S
O887 C896 1.261 . S
O888 Gd850 2.388 1_554 S
O888 C896 1.252 . S
O889 Gd850 2.386 1_554 S
O889 C907 1.265 . S
O890 Gd851 2.353 . S
O890 C907 1.242 . S
O891 Gd851 2.468 . S
O891 C915 1.263 . S
O892 Gd851 2.427 1_565 S
O892 C915 1.252 1_565 S
O893 Gd850 2.306 1_554 S
O893 C908 1.263 1_545 S
O894 Gd851 2.388 1_565 S
O894 C908 1.252 . S
C895 O883 1.265 . S
C895 O884 1.242 . S
C896 O887 1.261 . S
C896 O888 1.252 . S
C897 C900 1.394 . S
C897 C902 1.370 . S
C897 C903 1.500 . S
C898 C901 1.383 . S
C898 C902 1.395 . S
C899 C900 1.396 . S
C899 C901 1.365 . S
C899 H916 0.929 . S
C900 C897 1.394 . S
C900 C899 1.396 . S
C900 H917 0.930 . S
C901 C898 1.383 . S
C901 C899 1.365 . S
C901 H918 0.931 . S
C902 C897 1.370 . S
C902 C898 1.395 . S
C902 H919 0.930 . S
C903 Gd850 2.805 . S
C903 O885 1.263 . S
C903 O886 1.252 . S
C903 C897 1.500 . S
C904 H866 0.930 . S
C904 C880 1.417 . S
C904 C905 1.329 . S
C905 C875 1.437 . S
C905 H876 0.929 . S
C905 C904 1.329 . S
H906 C879 0.930 1_565 S
C907 O889 1.265 . S
C907 O890 1.242 . S
C908 O893 1.263 1_565 S
C908 O894 1.252 . S
C909 C912 1.394 . S
C909 C914 1.370 1_565 S
C909 C915 1.500 1_565 S
C910 C913 1.383 1_545 S
C910 C914 1.395 . S
C911 C912 1.396 . S
C911 C913 1.365 . S
C911 H920 0.929 . S
C912 C909 1.394 . S
C912 C911 1.396 . S
C912 H921 0.930 . S
C913 C910 1.383 1_565 S
C913 C911 1.365 . S
C913 H922 0.931 . S
C914 C909 1.370 1_545 S
C914 C910 1.395 . S
C914 H923 0.930 . S
C915 Gd851 2.805 . S
C915 O891 1.263 . S
C915 O892 1.252 1_545 S
C915 C909 1.500 1_545 S
H916 C899 0.929 . S
H917 C900 0.930 . S
H918 C901 0.931 . S
H919 C902 0.930 . S
H920 C911 0.929 . S
H921 C912 0.930 . S
H922 C913 0.931 . S
H923 C914 0.930 . S
C924 C926 1.422 . S
C924 C928 1.415 . S
C924 N930 1.369 . S
C925 C926 1.421 . S
C925 C927 1.417 . S
C925 C937 1.422 . S
C926 C924 1.422 . S
C926 C925 1.421 . S
C926 N936 1.359 . S
C927 C925 1.417 . S
C927 C929 1.329 . S
C927 H946 0.930 . S
C928 C924 1.415 . S
C928 C929 1.437 . S
C928 C932 1.413 . S
C929 C927 1.329 . S
C929 C928 1.437 . S
C929 H951 0.929 . S
N930 C924 1.369 . S
N930 C931 1.338 . S
N930 Gd935 2.622 . S
C931 N930 1.338 . S
C931 C933 1.378 . S
C931 H943 0.929 . S
C932 C928 1.413 . S
C932 C933 1.348 . S
C932 H948 0.931 . S
C933 C931 1.378 . S
C933 C932 1.348 . S
C933 H949 0.930 . S
Gd934 N954 2.622 . S
Gd934 N961 2.570 . S
Gd934 O968 2.353 . S
Gd934 O969 2.468 . S
Gd934 O970 2.427 . S
Gd934 O972 2.388 . S
Gd934 O973 2.386 . S
Gd934 O977 2.307 . S
Gd934 C987 2.805 . S
Gd935 N930 2.622 . S
Gd935 N936 2.570 . S
Gd935 O967 2.386 . S
Gd935 O971 2.307 . S
Gd935 O974 2.353 . S
Gd935 O975 2.468 . S
Gd935 O976 2.427 . S
Gd935 O978 2.388 . S
Gd935 C999 2.805 . S
N936 C926 1.359 . S
N936 Gd935 2.570 . S
N936 C938 1.343 . S
C937 C925 1.422 . S
C937 C939 1.321 . S
C937 H945 0.931 . S
C938 N936 1.343 . S
C938 C939 1.390 . S
C938 H940 0.931 . S
C939 C937 1.321 . S
C939 C938 1.390 . S
C939 H941 0.930 . S
H940 C938 0.931 . S
H941 C939 0.930 . S
H942 C965 0.931 . S
H943 C931 0.929 . S
H944 C966 0.930 . S
H945 C937 0.931 . S
H946 C927 0.930 . S
H947 C956 0.929 . S
H948 C932 0.931 . S
H949 C933 0.930 . S
H950 C988 0.930 . S
H951 C929 0.929 . S
H952 C957 0.931 . S
H953 C958 0.930 . S
N954 Gd934 2.622 . S
N954 C955 1.369 . S
N954 C956 1.338 . S
C955 N954 1.369 . S
C955 C959 1.415 . S
C955 C962 1.422 . S
C956 H947 0.929 . S
C956 N954 1.338 . S
C956 C958 1.378 . S
C957 H952 0.931 . S
C957 C958 1.348 . S
C957 C959 1.413 . S
C958 H953 0.930 . S
C958 C956 1.378 . S
C958 C957 1.348 . S
C959 C955 1.415 . S
C959 C957 1.413 . S
C959 C989 1.437 . S
H960 C989 0.929 . S
N961 Gd934 2.570 . S
N961 C962 1.359 . S
N961 C965 1.343 . S
C962 C955 1.422 . S
C962 N961 1.359 . S
C962 C964 1.421 . S
C963 C964 1.422 . S
C963 C966 1.321 . S
C963 H990 0.931 . S
C964 C962 1.421 . S
C964 C963 1.422 . S
C964 C988 1.417 . S
C965 H942 0.931 . S
C965 N961 1.343 . S
C965 C966 1.390 . S
C966 H944 0.930 . S
C966 C963 1.321 . S
C966 C965 1.390 . S
O967 Gd935 2.386 . S
O967 C979 1.265 . S
O968 Gd934 2.353 . S
O968 C979 1.242 . S
O969 Gd934 2.468 . S
O969 C987 1.263 . S
O970 Gd934 2.427 . S
O970 C987 1.252 . S
O971 Gd935 2.307 . S
O971 C980 1.261 . S
O972 Gd934 2.388 . S
O972 C980 1.252 . S
O973 Gd934 2.386 . S
O973 C991 1.265 . S
O974 Gd935 2.353 . S
O974 C991 1.242 . S
O975 Gd935 2.468 . S
O975 C999 1.263 . S
O976 Gd935 2.427 . S
O976 C999 1.252 . S
O977 Gd934 2.307 . S
O977 C992 1.261 . S
O978 Gd935 2.388 . S
O978 C992 1.252 . S
C979 O967 1.265 . S
C979 O968 1.242 . S
C980 O971 1.261 . S
C980 O972 1.252 . S
C981 C984 1.394 . S
C981 C986 1.370 . S
C981 C987 1.500 . S
C982 C985 1.383 . S
C982 C986 1.395 . S
C983 C984 1.396 . S
C983 C985 1.365 . S
C983 H1000 0.929 . S
C984 C981 1.394 . S
C984 C983 1.396 . S
C984 H1001 0.930 . S
C985 C982 1.383 . S
C985 C983 1.365 . S
C985 H1002 0.931 . S
C986 C981 1.370 . S
C986 C982 1.395 . S
C986 H1003 0.930 . S
C987 Gd934 2.805 . S
C987 O969 1.263 . S
C987 O970 1.252 . S
C987 C981 1.500 . S
C988 H950 0.930 . S
C988 C964 1.417 . S
C988 C989 1.329 . S
C989 C959 1.437 . S
C989 H960 0.929 . S
C989 C988 1.329 . S
H990 C963 0.931 . S
C991 O973 1.265 . S
C991 O974 1.242 . S
C992 O977 1.261 . S
C992 O978 1.252 . S
C993 C996 1.394 . S
C993 C998 1.370 . S
C993 C999 1.500 . S
C994 C997 1.383 . S
C994 C998 1.395 . S
C995 C996 1.396 . S
C995 C997 1.365 . S
C995 H1004 0.929 . S
C996 C993 1.394 . S
C996 C995 1.396 . S
C996 H1005 0.930 . S
C997 C994 1.383 . S
C997 C995 1.365 . S
C997 H1006 0.931 . S
C998 C993 1.370 . S
C998 C994 1.395 . S
C998 H1007 0.930 . S
C999 Gd935 2.805 . S
C999 O975 1.263 . S
C999 O976 1.252 . S
C999 C993 1.500 . S
H1000 C983 0.929 . S
H1001 C984 0.930 . S
H1002 C985 0.931 . S
H1003 C986 0.930 . S
H1004 C995 0.929 . S
H1005 C996 0.930 . S
H1006 C997 0.931 . S
H1007 C998 0.930 . S
C1008 C1010 1.422 . S
C1008 C1012 1.415 . S
C1008 N1014 1.369 . S
C1009 C1010 1.421 . S
C1009 C1011 1.417 . S
C1009 C1021 1.422 . S
C1010 C1008 1.422 . S
C1010 C1009 1.421 . S
C1010 N1020 1.359 . S
C1011 C1009 1.417 . S
C1011 C1013 1.329 . S
C1011 H1030 0.930 . S
C1012 C1008 1.415 . S
C1012 C1013 1.437 . S
C1012 C1016 1.413 . S
C1013 C1011 1.329 . S
C1013 C1012 1.437 . S
C1013 H1035 0.929 . S
N1014 C1008 1.369 . S
N1014 C1015 1.338 . S
N1014 Gd1019 2.622 . S
C1015 N1014 1.338 . S
C1015 C1017 1.378 . S
C1015 H1027 0.929 . S
C1016 C1012 1.413 . S
C1016 C1017 1.348 . S
C1016 H1032 0.931 . S
C1017 C1015 1.378 . S
C1017 C1016 1.348 . S
C1017 H1033 0.930 . S
Gd1018 N1038 2.622 1_554 S
Gd1018 N1045 2.570 1_554 S
Gd1018 O1052 2.353 . S
Gd1018 O1053 2.468 . S
Gd1018 O1054 2.427 . S
Gd1018 O1056 2.388 . S
Gd1018 O1057 2.386 1_554 S
Gd1018 O1061 2.307 . S
Gd1018 C1071 2.805 . S
Gd1019 N1014 2.622 . S
Gd1019 N1020 2.570 . S
Gd1019 O1051 2.386 . S
Gd1019 O1055 2.307 . S
Gd1019 O1058 2.353 1_554 S
Gd1019 O1059 2.468 . S
Gd1019 O1060 2.427 . S
Gd1019 O1062 2.388 . S
Gd1019 C1083 2.805 . S
N1020 C1010 1.359 . S
N1020 Gd1019 2.570 . S
N1020 C1022 1.343 . S
C1021 C1009 1.422 . S
C1021 C1023 1.321 . S
C1021 H1029 0.931 . S
C1022 N1020 1.343 . S
C1022 C1023 1.390 . S
C1022 H1024 0.931 . S
C1023 C1021 1.321 . S
C1023 C1022 1.390 . S
C1023 H1025 0.930 . S
H1024 C1022 0.931 . S
H1025 C1023 0.930 . S
H1026 C1049 0.931 1_554 S
H1027 C1015 0.929 . S
H1028 C1050 0.930 . S
H1029 C1021 0.931 . S
H1030 C1011 0.930 . S
H1031 C1040 0.929 1_554 S
H1032 C1016 0.931 . S
H1033 C1017 0.930 . S
H1034 C1072 0.930 . S
H1035 C1013 0.929 . S
H1036 C1041 0.931 . S
H1037 C1042 0.930 . S
N1038 Gd1018 2.622 1_556 S
N1038 C1039 1.369 . S
N1038 C1040 1.338 . S
C1039 N1038 1.369 . S
C1039 C1043 1.415 . S
C1039 C1046 1.422 . S
C1040 H1031 0.929 1_556 S
C1040 N1038 1.338 . S
C1040 C1042 1.378 . S
C1041 H1036 0.931 . S
C1041 C1042 1.348 . S
C1041 C1043 1.413 . S
C1042 H1037 0.930 . S
C1042 C1040 1.378 . S
C1042 C1041 1.348 . S
C1043 C1039 1.415 . S
C1043 C1041 1.413 . S
C1043 C1073 1.437 . S
H1044 C1073 0.929 . S
N1045 Gd1018 2.570 1_556 S
N1045 C1046 1.359 . S
N1045 C1049 1.343 . S
C1046 C1039 1.422 . S
C1046 N1045 1.359 . S
C1046 C1048 1.421 . S
C1047 C1048 1.422 . S
C1047 C1050 1.321 . S
C1047 H1074 0.931 . S
C1048 C1046 1.421 . S
C1048 C1047 1.422 . S
C1048 C1072 1.417 . S
C1049 H1026 0.931 1_556 S
C1049 N1045 1.343 . S
C1049 C1050 1.390 . S
C1050 H1028 0.930 . S
C1050 C1047 1.321 . S
C1050 C1049 1.390 . S
O1051 Gd1019 2.386 . S
O1051 C1063 1.265 . S
O1052 Gd1018 2.353 . S
O1052 C1063 1.242 . S
O1053 Gd1018 2.468 . S
O1053 C1071 1.263 . S
O1054 Gd1018 2.427 . S
O1054 C1071 1.252 . S
O1055 Gd1019 2.307 . S
O1055 C1064 1.261 . S
O1056 Gd1018 2.388 . S
O1056 C1064 1.252 . S
O1057 Gd1018 2.386 1_556 S
O1057 C1075 1.265 . S
O1058 Gd1019 2.353 1_556 S
O1058 C1075 1.242 . S
O1059 Gd1019 2.468 . S
O1059 C1083 1.263 . S
O1060 Gd1019 2.427 . S
O1060 C1083 1.252 . S
O1061 Gd1018 2.307 . S
O1061 C1076 1.261 . S
O1062 Gd1019 2.388 . S
O1062 C1076 1.252 . S
C1063 O1051 1.265 . S
C1063 O1052 1.242 . S
C1064 O1055 1.261 . S
C1064 O1056 1.252 . S
C1065 C1068 1.394 . S
C1065 C1070 1.370 . S
C1065 C1071 1.500 . S
C1066 C1069 1.383 . S
C1066 C1070 1.395 . S
C1067 C1068 1.396 . S
C1067 C1069 1.365 . S
C1067 H1084 0.929 . S
C1068 C1065 1.394 . S
C1068 C1067 1.396 . S
C1068 H1085 0.930 . S
C1069 C1066 1.383 . S
C1069 C1067 1.365 . S
C1069 H1086 0.931 . S
C1070 C1065 1.370 . S
C1070 C1066 1.395 . S
C1070 H1087 0.930 . S
C1071 Gd1018 2.805 . S
C1071 O1053 1.263 . S
C1071 O1054 1.252 . S
C1071 C1065 1.500 . S
C1072 H1034 0.930 . S
C1072 C1048 1.417 . S
C1072 C1073 1.329 . S
C1073 C1043 1.437 . S
C1073 H1044 0.929 . S
C1073 C1072 1.329 . S
H1074 C1047 0.931 . S
C1075 O1057 1.265 . S
C1075 O1058 1.242 . S
C1076 O1061 1.261 . S
C1076 O1062 1.252 . S
C1077 C1080 1.394 . S
C1077 C1082 1.370 . S
C1077 C1083 1.500 1_556 S
C1078 C1081 1.383 . S
C1078 C1082 1.395 . S
C1079 C1080 1.396 . S
C1079 C1081 1.365 . S
C1079 H1088 0.929 . S
C1080 C1077 1.394 . S
C1080 C1079 1.396 . S
C1080 H1089 0.933 . S
C1081 C1078 1.383 . S
C1081 C1079 1.365 . S
C1081 H1090 0.931 . S
C1082 C1077 1.370 . S
C1082 C1078 1.395 . S
C1082 H1091 0.930 . S
C1083 Gd1019 2.805 . S
C1083 O1059 1.263 . S
C1083 O1060 1.252 . S
C1083 C1077 1.500 1_554 S
H1084 C1067 0.929 . S
H1085 C1068 0.930 . S
H1086 C1069 0.931 . S
H1087 C1070 0.930 . S
H1088 C1079 0.929 . S
H1089 C1080 0.933 . S
H1090 C1081 0.931 . S
H1091 C1082 0.930 . S
C1092 C1094 1.422 . S
C1092 C1096 1.415 . S
C1092 N1098 1.369 . S
C1093 C1094 1.421 . S
C1093 C1095 1.417 . S
C1093 C1105 1.422 . S
C1094 C1092 1.422 . S
C1094 C1093 1.421 . S
C1094 N1104 1.359 . S
C1095 C1093 1.417 . S
C1095 C1097 1.329 . S
C1095 H1114 0.930 . S
C1096 C1092 1.415 . S
C1096 C1097 1.437 . S
C1096 C1100 1.413 . S
C1097 C1095 1.329 . S
C1097 C1096 1.437 . S
C1097 H1119 0.929 . S
N1098 C1092 1.369 . S
N1098 C1099 1.338 . S
N1098 Gd1103 2.622 . S
C1099 N1098 1.338 . S
C1099 C1101 1.378 . S
C1099 H1111 0.929 . S
C1100 C1096 1.413 . S
C1100 C1101 1.348 . S
C1100 H1116 0.931 . S
C1101 C1099 1.378 . S
C1101 C1100 1.348 . S
C1101 H1117 0.930 . S
Gd1102 N1122 2.622 . S
Gd1102 N1129 2.570 . S
Gd1102 O1136 2.353 . S
Gd1102 O1137 2.468 . S
Gd1102 O1138 2.427 . S
Gd1102 O1140 2.388 . S
Gd1102 O1141 2.386 . S
Gd1102 O1145 2.307 . S
Gd1102 C1155 2.805 . S
Gd1103 N1098 2.622 . S
Gd1103 N1104 2.570 . S
Gd1103 O1135 2.386 . S
Gd1103 O1139 2.307 . S
Gd1103 O1142 2.353 . S
Gd1103 O1143 2.468 . S
Gd1103 O1144 2.427 . S
Gd1103 O1146 2.388 . S
Gd1103 C1167 2.805 . S
N1104 C1094 1.359 . S
N1104 Gd1103 2.570 . S
N1104 C1106 1.343 . S
C1105 C1093 1.422 . S
C1105 C1107 1.321 . S
C1105 H1113 0.931 . S
C1106 N1104 1.343 . S
C1106 C1107 1.390 . S
C1106 H1108 0.931 . S
C1107 C1105 1.321 . S
C1107 C1106 1.390 . S
C1107 H1109 0.930 . S
H1108 C1106 0.931 . S
H1109 C1107 0.930 . S
H1110 C1133 0.931 . S
H1111 C1099 0.929 . S
H1112 C1134 0.930 . S
H1113 C1105 0.931 . S
H1114 C1095 0.930 . S
H1115 C1124 0.929 . S
H1116 C1100 0.931 . S
H1117 C1101 0.930 . S
H1118 C1156 0.930 . S
H1119 C1097 0.929 . S
H1120 C1125 0.931 . S
H1121 C1126 0.930 . S
N1122 Gd1102 2.622 . S
N1122 C1123 1.369 . S
N1122 C1124 1.338 . S
C1123 N1122 1.369 . S
C1123 C1127 1.415 . S
C1123 C1130 1.422 . S
C1124 H1115 0.929 . S
C1124 N1122 1.338 . S
C1124 C1126 1.378 . S
C1125 H1120 0.931 . S
C1125 C1126 1.348 . S
C1125 C1127 1.413 . S
C1126 H1121 0.930 . S
C1126 C1124 1.378 . S
C1126 C1125 1.348 . S
C1127 C1123 1.415 . S
C1127 C1125 1.413 . S
C1127 C1157 1.437 . S
H1128 C1157 0.929 . S
N1129 Gd1102 2.570 . S
N1129 C1130 1.359 . S
N1129 C1133 1.343 . S
C1130 C1123 1.422 . S
C1130 N1129 1.359 . S
C1130 C1132 1.421 . S
C1131 C1132 1.422 . S
C1131 C1134 1.321 . S
C1131 H1158 0.931 . S
C1132 C1130 1.421 . S
C1132 C1131 1.422 . S
C1132 C1156 1.417 . S
C1133 H1110 0.931 . S
C1133 N1129 1.343 . S
C1133 C1134 1.390 . S
C1134 H1112 0.930 . S
C1134 C1131 1.321 . S
C1134 C1133 1.390 . S
O1135 Gd1103 2.386 . S
O1135 C1147 1.265 . S
O1136 Gd1102 2.353 . S
O1136 C1147 1.242 . S
O1137 Gd1102 2.468 . S
O1137 C1155 1.263 . S
O1138 Gd1102 2.427 . S
O1138 C1155 1.252 . S
O1139 Gd1103 2.307 . S
O1139 C1148 1.261 . S
O1140 Gd1102 2.388 . S
O1140 C1148 1.252 . S
O1141 Gd1102 2.386 . S
O1141 C1159 1.265 . S
O1142 Gd1103 2.353 . S
O1142 C1159 1.242 . S
O1143 Gd1103 2.468 . S
O1143 C1167 1.263 . S
O1144 Gd1103 2.427 . S
O1144 C1167 1.252 . S
O1145 Gd1102 2.307 . S
O1145 C1160 1.261 . S
O1146 Gd1103 2.388 . S
O1146 C1160 1.252 . S
C1147 O1135 1.265 . S
C1147 O1136 1.242 . S
C1148 O1139 1.261 . S
C1148 O1140 1.252 . S
C1149 C1152 1.394 . S
C1149 C1154 1.370 . S
C1149 C1155 1.500 . S
C1150 C1153 1.383 . S
C1150 C1154 1.395 . S
C1151 C1152 1.396 . S
C1151 C1153 1.365 . S
C1151 H1168 0.929 . S
C1152 C1149 1.394 . S
C1152 C1151 1.396 . S
C1152 H1169 0.930 . S
C1153 C1150 1.383 . S
C1153 C1151 1.365 . S
C1153 H1170 0.931 . S
C1154 C1149 1.370 . S
C1154 C1150 1.395 . S
C1154 H1171 0.930 . S
C1155 Gd1102 2.805 . S
C1155 O1137 1.263 . S
C1155 O1138 1.252 . S
C1155 C1149 1.500 . S
C1156 H1118 0.930 . S
C1156 C1132 1.417 . S
C1156 C1157 1.329 . S
C1157 C1127 1.437 . S
C1157 H1128 0.929 . S
C1157 C1156 1.329 . S
H1158 C1131 0.931 . S
C1159 O1141 1.265 . S
C1159 O1142 1.242 . S
C1160 O1145 1.261 . S
C1160 O1146 1.252 . S
C1161 C1164 1.394 . S
C1161 C1166 1.370 . S
C1161 C1167 1.500 . S
C1162 C1165 1.383 . S
C1162 C1166 1.395 . S
C1163 C1164 1.396 . S
C1163 C1165 1.365 . S
C1163 H1172 0.929 . S
C1164 C1161 1.394 . S
C1164 C1163 1.396 . S
C1164 H1173 0.930 . S
C1165 C1162 1.383 . S
C1165 C1163 1.365 . S
C1165 H1174 0.931 . S
C1166 C1161 1.370 . S
C1166 C1162 1.395 . S
C1166 H1175 0.930 . S
C1167 Gd1103 2.805 . S
C1167 O1143 1.263 . S
C1167 O1144 1.252 . S
C1167 C1161 1.500 . S
H1168 C1151 0.929 . S
H1169 C1152 0.930 . S
H1170 C1153 0.931 . S
H1171 C1154 0.930 . S
H1172 C1163 0.929 . S
H1173 C1164 0.930 . S
H1174 C1165 0.931 . S
H1175 C1166 0.930 . S
C1176 C1178 1.422 . S
C1176 C1180 1.415 . S
C1176 N1182 1.369 . S
C1177 C1178 1.421 . S
C1177 C1179 1.417 . S
C1177 C1189 1.422 . S
C1178 C1176 1.422 . S
C1178 C1177 1.421 . S
C1178 N1188 1.359 . S
C1179 C1177 1.417 . S
C1179 C1181 1.329 . S
C1179 H1198 0.930 . S
C1180 C1176 1.415 . S
C1180 C1181 1.437 . S
C1180 C1184 1.413 . S
C1181 C1179 1.329 . S
C1181 C1180 1.437 . S
C1181 H1203 0.929 . S
N1182 C1176 1.369 . S
N1182 C1183 1.338 . S
N1182 Gd1187 2.622 . S
C1183 N1182 1.338 . S
C1183 C1185 1.378 . S
C1183 H1195 0.929 . S
C1184 C1180 1.413 . S
C1184 C1185 1.348 . S
C1184 H1200 0.931 . S
C1185 C1183 1.378 . S
C1185 C1184 1.348 . S
C1185 H1201 0.930 . S
Gd1186 N1206 2.622 1_455 S
Gd1186 N1213 2.570 1_455 S
Gd1186 O1220 2.353 . S
Gd1186 O1221 2.468 . S
Gd1186 O1222 2.427 . S
Gd1186 O1224 2.388 . S
Gd1186 O1225 2.386 1_455 S
Gd1186 O1229 2.307 . S
Gd1186 C1239 2.805 . S
Gd1187 N1182 2.622 . S
Gd1187 N1188 2.570 . S
Gd1187 O1219 2.386 . S
Gd1187 O1223 2.307 . S
Gd1187 O1226 2.353 1_455 S
Gd1187 O1227 2.468 . S
Gd1187 O1228 2.427 . S
Gd1187 O1230 2.388 . S
Gd1187 C1251 2.805 . S
N1188 C1178 1.359 . S
N1188 Gd1187 2.570 . S
N1188 C1190 1.343 . S
C1189 C1177 1.422 . S
C1189 C1191 1.321 . S
C1189 H1197 0.931 . S
C1190 N1188 1.343 . S
C1190 C1191 1.390 . S
C1190 H1192 0.931 . S
C1191 C1189 1.321 . S
C1191 C1190 1.390 . S
C1191 H1193 0.930 . S
H1192 C1190 0.931 . S
H1193 C1191 0.930 . S
H1194 C1217 0.931 1_455 S
H1195 C1183 0.929 . S
H1196 C1218 0.930 . S
H1197 C1189 0.931 . S
H1198 C1179 0.930 . S
H1199 C1208 0.929 1_455 S
H1200 C1184 0.931 . S
H1201 C1185 0.930 . S
H1202 C1240 0.930 . S
H1203 C1181 0.929 . S
H1204 C1209 0.931 . S
H1205 C1210 0.930 . S
N1206 Gd1186 2.622 1_655 S
N1206 C1207 1.369 . S
N1206 C1208 1.338 . S
C1207 N1206 1.369 . S
C1207 C1211 1.415 . S
C1207 C1214 1.422 . S
C1208 H1199 0.929 1_655 S
C1208 N1206 1.338 . S
C1208 C1210 1.378 . S
C1209 H1204 0.931 . S
C1209 C1210 1.348 . S
C1209 C1211 1.413 . S
C1210 H1205 0.930 . S
C1210 C1208 1.378 . S
C1210 C1209 1.348 . S
C1211 C1207 1.415 . S
C1211 C1209 1.413 . S
C1211 C1241 1.437 . S
H1212 C1241 0.929 . S
N1213 Gd1186 2.570 1_655 S
N1213 C1214 1.359 . S
N1213 C1217 1.343 . S
C1214 C1207 1.422 . S
C1214 N1213 1.359 . S
C1214 C1216 1.421 . S
C1215 C1216 1.422 . S
C1215 C1218 1.321 . S
C1215 H1242 0.931 . S
C1216 C1214 1.421 . S
C1216 C1215 1.422 . S
C1216 C1240 1.417 . S
C1217 H1194 0.931 1_655 S
C1217 N1213 1.343 . S
C1217 C1218 1.390 . S
C1218 H1196 0.930 . S
C1218 C1215 1.321 . S
C1218 C1217 1.390 . S
O1219 Gd1187 2.386 . S
O1219 C1231 1.265 . S
O1220 Gd1186 2.353 . S
O1220 C1231 1.242 . S
O1221 Gd1186 2.468 . S
O1221 C1239 1.263 . S
O1222 Gd1186 2.427 . S
O1222 C1239 1.252 . S
O1223 Gd1187 2.307 . S
O1223 C1232 1.261 . S
O1224 Gd1186 2.388 . S
O1224 C1232 1.252 . S
O1225 Gd1186 2.386 1_655 S
O1225 C1243 1.265 . S
O1226 Gd1187 2.353 1_655 S
O1226 C1243 1.242 . S
O1227 Gd1187 2.468 . S
O1227 C1251 1.263 . S
O1228 Gd1187 2.427 . S
O1228 C1251 1.252 . S
O1229 Gd1186 2.307 . S
O1229 C1244 1.261 . S
O1230 Gd1187 2.388 . S
O1230 C1244 1.252 . S
C1231 O1219 1.265 . S
C1231 O1220 1.242 . S
C1232 O1223 1.261 . S
C1232 O1224 1.252 . S
C1233 C1236 1.394 . S
C1233 C1238 1.370 . S
C1233 C1239 1.500 . S
C1234 C1237 1.383 . S
C1234 C1238 1.395 . S
C1235 C1236 1.396 . S
C1235 C1237 1.365 . S
C1235 H1252 0.929 . S
C1236 C1233 1.394 . S
C1236 C1235 1.396 . S
C1236 H1253 0.930 . S
C1237 C1234 1.383 . S
C1237 C1235 1.365 . S
C1237 H1254 0.931 . S
C1238 C1233 1.370 . S
C1238 C1234 1.395 . S
C1238 H1255 0.930 . S
C1239 Gd1186 2.805 . S
C1239 O1221 1.263 . S
C1239 O1222 1.252 . S
C1239 C1233 1.500 . S
C1240 H1202 0.930 . S
C1240 C1216 1.417 . S
C1240 C1241 1.329 . S
C1241 C1211 1.437 . S
C1241 H1212 0.929 . S
C1241 C1240 1.329 . S
H1242 C1215 0.931 . S
C1243 O1225 1.265 . S
C1243 O1226 1.242 . S
C1244 O1229 1.261 . S
C1244 O1230 1.252 . S
C1245 C1248 1.394 . S
C1245 C1250 1.370 . S
C1245 C1251 1.500 1_655 S
C1246 C1249 1.383 . S
C1246 C1250 1.395 . S
C1247 C1248 1.396 . S
C1247 C1249 1.365 . S
C1247 H1256 0.929 . S
C1248 C1245 1.394 . S
C1248 C1247 1.396 . S
C1248 H1257 0.930 . S
C1249 C1246 1.383 . S
C1249 C1247 1.365 . S
C1249 H1258 0.931 . S
C1250 C1245 1.370 . S
C1250 C1246 1.395 . S
C1250 H1259 0.930 . S
C1251 Gd1187 2.805 . S
C1251 O1227 1.263 . S
C1251 O1228 1.252 . S
C1251 C1245 1.500 1_455 S
H1252 C1235 0.929 . S
H1253 C1236 0.930 . S
H1254 C1237 0.931 . S
H1255 C1238 0.930 . S
H1256 C1247 0.929 . S
H1257 C1248 0.930 . S
H1258 C1249 0.931 . S
H1259 C1250 0.930 . S
C1260 C1262 1.422 . S
C1260 C1264 1.415 . S
C1260 N1266 1.369 . S
C1261 C1262 1.421 . S
C1261 C1263 1.417 . S
C1261 C1273 1.422 . S
C1262 C1260 1.422 . S
C1262 C1261 1.421 . S
C1262 N1272 1.359 . S
C1263 C1261 1.417 . S
C1263 C1265 1.329 . S
C1263 H1282 0.930 . S
C1264 C1260 1.415 . S
C1264 C1265 1.437 . S
C1264 C1268 1.413 . S
C1265 C1263 1.329 . S
C1265 C1264 1.437 . S
C1265 H1287 0.929 . S
N1266 C1260 1.369 . S
N1266 C1267 1.338 . S
N1266 Gd1271 2.622 . S
C1267 N1266 1.338 . S
C1267 C1269 1.378 . S
C1267 H1279 0.929 . S
C1268 C1264 1.413 . S
C1268 C1269 1.348 . S
C1268 H1284 0.931 . S
C1269 C1267 1.378 . S
C1269 C1268 1.348 . S
C1269 H1285 0.930 . S
Gd1270 N1290 2.622 . S
Gd1270 N1297 2.570 . S
Gd1270 O1304 2.353 . S
Gd1270 O1305 2.468 . S
Gd1270 O1306 2.427 . S
Gd1270 O1308 2.388 . S
Gd1270 O1309 2.386 . S
Gd1270 O1313 2.307 . S
Gd1270 C1323 2.805 . S
Gd1271 N1266 2.622 . S
Gd1271 N1272 2.570 . S
Gd1271 O1303 2.386 . S
Gd1271 O1307 2.307 . S
Gd1271 O1310 2.353 . S
Gd1271 O1311 2.468 . S
Gd1271 O1312 2.427 . S
Gd1271 O1314 2.388 . S
Gd1271 C1335 2.805 . S
N1272 C1262 1.359 . S
N1272 Gd1271 2.570 . S
N1272 C1274 1.343 . S
C1273 C1261 1.422 . S
C1273 C1275 1.321 . S
C1273 H1281 0.931 . S
C1274 N1272 1.343 . S
C1274 C1275 1.390 . S
C1274 H1276 0.931 . S
C1275 C1273 1.321 . S
C1275 C1274 1.390 . S
C1275 H1277 0.930 . S
H1276 C1274 0.931 . S
H1277 C1275 0.930 . S
H1278 C1301 0.931 . S
H1279 C1267 0.929 . S
H1280 C1302 0.930 . S
H1281 C1273 0.931 . S
H1282 C1263 0.930 . S
H1283 C1292 0.929 . S
H1284 C1268 0.931 . S
H1285 C1269 0.930 . S
H1286 C1324 0.930 . S
H1287 C1265 0.929 . S
H1288 C1293 0.931 . S
H1289 C1294 0.930 . S
N1290 Gd1270 2.622 . S
N1290 C1291 1.369 . S
N1290 C1292 1.338 . S
C1291 N1290 1.369 . S
C1291 C1295 1.415 . S
C1291 C1298 1.422 . S
C1292 H1283 0.929 . S
C1292 N1290 1.338 . S
C1292 C1294 1.378 . S
C1293 H1288 0.931 . S
C1293 C1294 1.348 . S
C1293 C1295 1.413 . S
C1294 H1289 0.930 . S
C1294 C1292 1.378 . S
C1294 C1293 1.348 . S
C1295 C1291 1.415 . S
C1295 C1293 1.413 . S
C1295 C1325 1.437 . S
H1296 C1325 0.929 . S
N1297 Gd1270 2.570 . S
N1297 C1298 1.359 . S
N1297 C1301 1.343 . S
C1298 C1291 1.422 . S
C1298 N1297 1.359 . S
C1298 C1300 1.421 . S
C1299 C1300 1.422 . S
C1299 C1302 1.321 . S
C1299 H1326 0.931 . S
C1300 C1298 1.421 . S
C1300 C1299 1.422 . S
C1300 C1324 1.417 . S
C1301 H1278 0.931 . S
C1301 N1297 1.343 . S
C1301 C1302 1.390 . S
C1302 H1280 0.930 . S
C1302 C1299 1.321 . S
C1302 C1301 1.390 . S
O1303 Gd1271 2.386 . S
O1303 C1315 1.265 . S
O1304 Gd1270 2.353 . S
O1304 C1315 1.242 . S
O1305 Gd1270 2.468 . S
O1305 C1323 1.263 . S
O1306 Gd1270 2.427 . S
O1306 C1323 1.252 . S
O1307 Gd1271 2.307 . S
O1307 C1316 1.261 . S
O1308 Gd1270 2.388 . S
O1308 C1316 1.252 . S
O1309 Gd1270 2.386 . S
O1309 C1327 1.265 . S
O1310 Gd1271 2.353 . S
O1310 C1327 1.242 . S
O1311 Gd1271 2.468 . S
O1311 C1335 1.263 . S
O1312 Gd1271 2.427 . S
O1312 C1335 1.252 . S
O1313 Gd1270 2.307 . S
O1313 C1328 1.261 . S
O1314 Gd1271 2.388 . S
O1314 C1328 1.252 . S
C1315 O1303 1.265 . S
C1315 O1304 1.242 . S
C1316 O1307 1.261 . S
C1316 O1308 1.252 . S
C1317 C1320 1.394 . S
C1317 C1322 1.370 . S
C1317 C1323 1.500 . S
C1318 C1321 1.383 . S
C1318 C1322 1.395 . S
C1319 C1320 1.396 . S
C1319 C1321 1.365 . S
C1319 H1336 0.929 . S
C1320 C1317 1.394 . S
C1320 C1319 1.396 . S
C1320 H1337 0.930 . S
C1321 C1318 1.383 . S
C1321 C1319 1.365 . S
C1321 H1338 0.931 . S
C1322 C1317 1.370 . S
C1322 C1318 1.395 . S
C1322 H1339 0.930 . S
C1323 Gd1270 2.805 . S
C1323 O1305 1.263 . S
C1323 O1306 1.252 . S
C1323 C1317 1.500 . S
C1324 H1286 0.930 . S
C1324 C1300 1.417 . S
C1324 C1325 1.329 . S
C1325 C1295 1.437 . S
C1325 H1296 0.929 . S
C1325 C1324 1.329 . S
H1326 C1299 0.931 . S
C1327 O1309 1.265 . S
C1327 O1310 1.242 . S
C1328 O1313 1.261 . S
C1328 O1314 1.252 . S
C1329 C1332 1.394 . S
C1329 C1334 1.370 . S
C1329 C1335 1.500 . S
C1330 C1333 1.383 . S
C1330 C1334 1.395 . S
C1331 C1332 1.396 . S
C1331 C1333 1.365 . S
C1331 H1340 0.929 . S
C1332 C1329 1.394 . S
C1332 C1331 1.396 . S
C1332 H1341 0.930 . S
C1333 C1330 1.383 . S
C1333 C1331 1.365 . S
C1333 H1342 0.931 . S
C1334 C1329 1.370 . S
C1334 C1330 1.395 . S
C1334 H1343 0.930 . S
C1335 Gd1271 2.805 . S
C1335 O1311 1.263 . S
C1335 O1312 1.252 . S
C1335 C1329 1.500 . S
H1336 C1319 0.929 . S
H1337 C1320 0.930 . S
H1338 C1321 0.931 . S
H1339 C1322 0.930 . S
H1340 C1331 0.929 . S
H1341 C1332 0.930 . S
H1342 C1333 0.931 . S
H1343 C1334 0.930 . S
C1344 C1346 1.422 . S
C1344 C1348 1.415 . S
C1344 N1350 1.369 . S
C1345 C1346 1.421 . S
C1345 C1347 1.417 . S
C1345 C1357 1.422 . S
C1346 C1344 1.422 . S
C1346 C1345 1.421 . S
C1346 N1356 1.359 . S
C1347 C1345 1.417 . S
C1347 C1349 1.329 . S
C1347 H1366 0.930 . S
C1348 C1344 1.415 . S
C1348 C1349 1.437 . S
C1348 C1352 1.413 . S
C1349 C1347 1.329 . S
C1349 C1348 1.437 . S
C1349 H1371 0.929 . S
N1350 C1344 1.369 . S
N1350 C1351 1.338 . S
N1350 Gd1355 2.622 . S
C1351 N1350 1.338 . S
C1351 C1353 1.378 . S
C1351 H1363 0.929 . S
C1352 C1348 1.413 . S
C1352 C1353 1.348 . S
C1352 H1368 0.931 . S
C1353 C1351 1.378 . S
C1353 C1352 1.348 . S
C1353 H1369 0.930 . S
Gd1354 N1374 2.622 . S
Gd1354 N1381 2.570 . S
Gd1354 O1388 2.353 . S
Gd1354 O1389 2.468 . S
Gd1354 O1390 2.427 . S
Gd1354 O1392 2.388 . S
Gd1354 O1393 2.386 . S
Gd1354 O1397 2.307 . S
Gd1354 C1407 2.805 . S
Gd1355 N1350 2.622 . S
Gd1355 N1356 2.570 . S
Gd1355 O1387 2.386 . S
Gd1355 O1391 2.307 . S
Gd1355 O1394 2.353 . S
Gd1355 O1395 2.468 . S
Gd1355 O1396 2.427 . S
Gd1355 O1398 2.388 . S
Gd1355 C1419 2.805 . S
N1356 C1346 1.359 . S
N1356 Gd1355 2.570 . S
N1356 C1358 1.343 . S
C1357 C1345 1.422 . S
C1357 C1359 1.321 . S
C1357 H1365 0.931 . S
C1358 N1356 1.343 . S
C1358 C1359 1.390 . S
C1358 H1360 0.931 . S
C1359 C1357 1.321 . S
C1359 C1358 1.390 . S
C1359 H1361 0.930 . S
H1360 C1358 0.931 . S
H1361 C1359 0.930 . S
H1362 C1385 0.931 . S
H1363 C1351 0.929 . S
H1364 C1386 0.930 . S
H1365 C1357 0.931 . S
H1366 C1347 0.930 . S
H1367 C1376 0.929 . S
H1368 C1352 0.931 . S
H1369 C1353 0.930 . S
H1370 C1408 0.930 . S
H1371 C1349 0.929 . S
H1372 C1377 0.931 . S
H1373 C1378 0.930 . S
N1374 Gd1354 2.622 . S
N1374 C1375 1.369 . S
N1374 C1376 1.338 . S
C1375 N1374 1.369 . S
C1375 C1379 1.415 . S
C1375 C1382 1.422 . S
C1376 H1367 0.929 . S
C1376 N1374 1.338 . S
C1376 C1378 1.378 . S
C1377 H1372 0.931 . S
C1377 C1378 1.348 . S
C1377 C1379 1.413 . S
C1378 H1373 0.930 . S
C1378 C1376 1.378 . S
C1378 C1377 1.348 . S
C1379 C1375 1.415 . S
C1379 C1377 1.413 . S
C1379 C1409 1.437 . S
H1380 C1409 0.929 . S
N1381 Gd1354 2.570 . S
N1381 C1382 1.359 . S
N1381 C1385 1.343 . S
C1382 C1375 1.422 . S
C1382 N1381 1.359 . S
C1382 C1384 1.421 . S
C1383 C1384 1.422 . S
C1383 C1386 1.321 . S
C1383 H1410 0.931 . S
C1384 C1382 1.421 . S
C1384 C1383 1.422 . S
C1384 C1408 1.417 . S
C1385 H1362 0.931 . S
C1385 N1381 1.343 . S
C1385 C1386 1.390 . S
C1386 H1364 0.930 . S
C1386 C1383 1.321 . S
C1386 C1385 1.390 . S
O1387 Gd1355 2.386 . S
O1387 C1399 1.265 . S
O1388 Gd1354 2.353 . S
O1388 C1399 1.242 . S
O1389 Gd1354 2.468 . S
O1389 C1407 1.263 . S
O1390 Gd1354 2.427 . S
O1390 C1407 1.252 . S
O1391 Gd1355 2.307 . S
O1391 C1400 1.261 . S
O1392 Gd1354 2.388 . S
O1392 C1400 1.252 . S
O1393 Gd1354 2.386 . S
O1393 C1411 1.265 . S
O1394 Gd1355 2.353 . S
O1394 C1411 1.242 . S
O1395 Gd1355 2.468 . S
O1395 C1419 1.263 . S
O1396 Gd1355 2.427 . S
O1396 C1419 1.252 . S
O1397 Gd1354 2.307 . S
O1397 C1412 1.261 . S
O1398 Gd1355 2.388 . S
O1398 C1412 1.252 . S
C1399 O1387 1.265 . S
C1399 O1388 1.242 . S
C1400 O1391 1.261 . S
C1400 O1392 1.252 . S
C1401 C1404 1.394 . S
C1401 C1406 1.370 . S
C1401 C1407 1.500 . S
C1402 C1405 1.383 . S
C1402 C1406 1.395 . S
C1403 C1404 1.396 . S
C1403 C1405 1.365 . S
C1403 H1420 0.929 . S
C1404 C1401 1.394 . S
C1404 C1403 1.396 . S
C1404 H1421 0.930 . S
C1405 C1402 1.383 . S
C1405 C1403 1.365 . S
C1405 H1422 0.931 . S
C1406 C1401 1.370 . S
C1406 C1402 1.395 . S
C1406 H1423 0.930 . S
C1407 Gd1354 2.805 . S
C1407 O1389 1.263 . S
C1407 O1390 1.252 . S
C1407 C1401 1.500 . S
C1408 H1370 0.930 . S
C1408 C1384 1.417 . S
C1408 C1409 1.329 . S
C1409 C1379 1.437 . S
C1409 H1380 0.929 . S
C1409 C1408 1.329 . S
H1410 C1383 0.931 . S
C1411 O1393 1.265 . S
C1411 O1394 1.242 . S
C1412 O1397 1.261 . S
C1412 O1398 1.252 . S
C1413 C1416 1.394 . S
C1413 C1418 1.370 . S
C1413 C1419 1.500 . S
C1414 C1417 1.383 . S
C1414 C1418 1.395 . S
C1415 C1416 1.396 . S
C1415 C1417 1.365 . S
C1415 H1424 0.929 . S
C1416 C1413 1.394 . S
C1416 C1415 1.396 . S
C1416 H1425 0.930 . S
C1417 C1414 1.383 . S
C1417 C1415 1.365 . S
C1417 H1426 0.931 . S
C1418 C1413 1.370 . S
C1418 C1414 1.395 . S
C1418 H1427 0.930 . S
C1419 Gd1355 2.805 . S
C1419 O1395 1.263 . S
C1419 O1396 1.252 . S
C1419 C1413 1.500 . S
H1420 C1403 0.929 . S
H1421 C1404 0.930 . S
H1422 C1405 0.931 . S
H1423 C1406 0.930 . S
H1424 C1415 0.929 . S
H1425 C1416 0.930 . S
H1426 C1417 0.931 . S
H1427 C1418 0.930 . S
C1428 C1430 1.422 . S
C1428 C1432 1.415 . S
C1428 N1434 1.369 . S
C1429 C1430 1.421 . S
C1429 C1431 1.417 . S
C1429 C1441 1.422 . S
C1430 C1428 1.422 . S
C1430 C1429 1.421 . S
C1430 N1440 1.359 . S
C1431 C1429 1.417 . S
C1431 C1433 1.329 . S
C1431 H1450 0.930 . S
C1432 C1428 1.415 . S
C1432 C1433 1.437 . S
C1432 C1436 1.413 . S
C1433 C1431 1.329 . S
C1433 C1432 1.437 . S
C1433 H1455 0.929 . S
N1434 C1428 1.369 . S
N1434 C1435 1.338 . S
N1434 Gd1439 2.622 . S
C1435 N1434 1.338 . S
C1435 C1437 1.378 . S
C1435 H1447 0.929 . S
C1436 C1432 1.413 . S
C1436 C1437 1.348 . S
C1436 H1452 0.931 . S
C1437 C1435 1.378 . S
C1437 C1436 1.348 . S
C1437 H1453 0.930 . S
Gd1438 N1458 2.622 . S
Gd1438 N1465 2.570 . S
Gd1438 O1472 2.353 . S
Gd1438 O1473 2.468 . S
Gd1438 O1474 2.427 . S
Gd1438 O1476 2.388 . S
Gd1438 O1477 2.386 . S
Gd1438 O1481 2.307 . S
Gd1438 C1491 2.805 . S
Gd1439 N1434 2.622 . S
Gd1439 N1440 2.570 . S
Gd1439 O1471 2.386 . S
Gd1439 O1475 2.307 . S
Gd1439 O1478 2.353 . S
Gd1439 O1479 2.468 . S
Gd1439 O1480 2.427 . S
Gd1439 O1482 2.388 . S
Gd1439 C1503 2.805 . S
N1440 C1430 1.359 . S
N1440 Gd1439 2.570 . S
N1440 C1442 1.343 . S
C1441 C1429 1.422 . S
C1441 C1443 1.321 . S
C1441 H1449 0.931 . S
C1442 N1440 1.343 . S
C1442 C1443 1.390 . S
C1442 H1444 0.931 . S
C1443 C1441 1.321 . S
C1443 C1442 1.390 . S
C1443 H1445 0.930 . S
H1444 C1442 0.931 . S
H1445 C1443 0.930 . S
H1446 C1469 0.931 . S
H1447 C1435 0.929 . S
H1448 C1470 0.930 . S
H1449 C1441 0.931 . S
H1450 C1431 0.930 . S
H1451 C1460 0.929 . S
H1452 C1436 0.931 . S
H1453 C1437 0.930 . S
H1454 C1492 0.930 . S
H1455 C1433 0.929 . S
H1456 C1461 0.931 . S
H1457 C1462 0.930 . S
N1458 Gd1438 2.622 . S
N1458 C1459 1.369 . S
N1458 C1460 1.338 . S
C1459 N1458 1.369 . S
C1459 C1463 1.415 . S
C1459 C1466 1.422 . S
C1460 H1451 0.929 . S
C1460 N1458 1.338 . S
C1460 C1462 1.378 . S
C1461 H1456 0.931 . S
C1461 C1462 1.348 . S
C1461 C1463 1.413 . S
C1462 H1457 0.930 . S
C1462 C1460 1.378 . S
C1462 C1461 1.348 . S
C1463 C1459 1.415 . S
C1463 C1461 1.413 . S
C1463 C1493 1.437 . S
H1464 C1493 0.929 . S
N1465 Gd1438 2.570 . S
N1465 C1466 1.359 . S
N1465 C1469 1.343 . S
C1466 C1459 1.422 . S
C1466 N1465 1.359 . S
C1466 C1468 1.421 . S
C1467 C1468 1.422 . S
C1467 C1470 1.321 . S
C1467 H1494 0.931 . S
C1468 C1466 1.421 . S
C1468 C1467 1.422 . S
C1468 C1492 1.417 . S
C1469 H1446 0.931 . S
C1469 N1465 1.343 . S
C1469 C1470 1.390 . S
C1470 H1448 0.930 . S
C1470 C1467 1.321 . S
C1470 C1469 1.390 . S
O1471 Gd1439 2.386 . S
O1471 C1483 1.265 . S
O1472 Gd1438 2.353 . S
O1472 C1483 1.242 . S
O1473 Gd1438 2.468 . S
O1473 C1491 1.263 . S
O1474 Gd1438 2.427 . S
O1474 C1491 1.252 . S
O1475 Gd1439 2.307 . S
O1475 C1484 1.261 . S
O1476 Gd1438 2.388 . S
O1476 C1484 1.252 . S
O1477 Gd1438 2.386 . S
O1477 C1495 1.265 . S
O1478 Gd1439 2.353 . S
O1478 C1495 1.242 . S
O1479 Gd1439 2.468 . S
O1479 C1503 1.263 . S
O1480 Gd1439 2.427 . S
O1480 C1503 1.252 . S
O1481 Gd1438 2.307 . S
O1481 C1496 1.261 . S
O1482 Gd1439 2.388 . S
O1482 C1496 1.252 . S
C1483 O1471 1.265 . S
C1483 O1472 1.242 . S
C1484 O1475 1.261 . S
C1484 O1476 1.252 . S
C1485 C1488 1.394 . S
C1485 C1490 1.370 . S
C1485 C1491 1.500 . S
C1486 C1489 1.383 . S
C1486 C1490 1.395 . S
C1487 C1488 1.396 . S
C1487 C1489 1.365 . S
C1487 H1504 0.929 . S
C1488 C1485 1.394 . S
C1488 C1487 1.396 . S
C1488 H1505 0.930 . S
C1489 C1486 1.383 . S
C1489 C1487 1.365 . S
C1489 H1506 0.931 . S
C1490 C1485 1.370 . S
C1490 C1486 1.395 . S
C1490 H1507 0.930 . S
C1491 Gd1438 2.805 . S
C1491 O1473 1.263 . S
C1491 O1474 1.252 . S
C1491 C1485 1.500 . S
C1492 H1454 0.930 . S
C1492 C1468 1.417 . S
C1492 C1493 1.329 . S
C1493 C1463 1.437 . S
C1493 H1464 0.929 . S
C1493 C1492 1.329 . S
H1494 C1467 0.931 . S
C1495 O1477 1.265 . S
C1495 O1478 1.242 . S
C1496 O1481 1.261 . S
C1496 O1482 1.252 . S
C1497 C1500 1.394 . S
C1497 C1502 1.370 . S
C1497 C1503 1.500 . S
C1498 C1501 1.383 . S
C1498 C1502 1.395 . S
C1499 C1500 1.396 . S
C1499 C1501 1.365 . S
C1499 H1508 0.929 . S
C1500 C1497 1.394 . S
C1500 C1499 1.396 . S
C1500 H1509 0.930 . S
C1501 C1498 1.383 . S
C1501 C1499 1.365 . S
C1501 H1510 0.931 . S
C1502 C1497 1.370 . S
C1502 C1498 1.395 . S
C1502 H1511 0.930 . S
C1503 Gd1439 2.805 . S
C1503 O1479 1.263 . S
C1503 O1480 1.252 . S
C1503 C1497 1.500 . S
H1504 C1487 0.929 . S
H1505 C1488 0.930 . S
H1506 C1489 0.931 . S
H1507 C1490 0.930 . S
H1508 C1499 0.929 . S
H1509 C1500 0.930 . S
H1510 C1501 0.931 . S
H1511 C1502 0.930 . S
C1512 C1514 1.422 . S
C1512 C1516 1.415 . S
C1512 N1518 1.369 . S
C1513 C1514 1.421 . S
C1513 C1515 1.417 . S
C1513 C1525 1.422 . S
C1514 C1512 1.422 . S
C1514 C1513 1.421 . S
C1514 N1524 1.359 . S
C1515 C1513 1.417 . S
C1515 C1517 1.329 . S
C1515 H1534 0.930 . S
C1516 C1512 1.415 . S
C1516 C1517 1.437 . S
C1516 C1520 1.413 . S
C1517 C1515 1.329 . S
C1517 C1516 1.437 . S
C1517 H1539 0.929 . S
N1518 C1512 1.369 . S
N1518 C1519 1.338 . S
N1518 Gd1523 2.622 . S
C1519 N1518 1.338 . S
C1519 C1521 1.378 . S
C1519 H1531 0.929 . S
C1520 C1516 1.413 . S
C1520 C1521 1.348 . S
C1520 H1536 0.931 . S
C1521 C1519 1.378 . S
C1521 C1520 1.348 . S
C1521 H1537 0.930 . S
Gd1522 N1542 2.622 . S
Gd1522 N1549 2.570 . S
Gd1522 O1556 2.353 . S
Gd1522 O1557 2.468 . S
Gd1522 O1558 2.427 . S
Gd1522 O1560 2.388 . S
Gd1522 O1561 2.386 . S
Gd1522 O1565 2.307 . S
Gd1522 C1575 2.805 . S
Gd1523 N1518 2.622 . S
Gd1523 N1524 2.570 . S
Gd1523 O1555 2.386 . S
Gd1523 O1559 2.307 . S
Gd1523 O1562 2.353 . S
Gd1523 O1563 2.468 . S
Gd1523 O1564 2.427 . S
Gd1523 O1566 2.388 . S
Gd1523 C1587 2.805 . S
N1524 C1514 1.359 . S
N1524 Gd1523 2.570 . S
N1524 C1526 1.343 . S
C1525 C1513 1.422 . S
C1525 C1527 1.321 . S
C1525 H1533 0.931 . S
C1526 N1524 1.343 . S
C1526 C1527 1.390 . S
C1526 H1528 0.931 . S
C1527 C1525 1.321 . S
C1527 C1526 1.390 . S
C1527 H1529 0.930 . S
H1528 C1526 0.931 . S
H1529 C1527 0.930 . S
H1530 C1553 0.931 . S
H1531 C1519 0.929 . S
H1532 C1554 0.930 . S
H1533 C1525 0.931 . S
H1534 C1515 0.930 . S
H1535 C1544 0.929 . S
H1536 C1520 0.931 . S
H1537 C1521 0.930 . S
H1538 C1576 0.930 . S
H1539 C1517 0.929 . S
H1540 C1545 0.931 . S
H1541 C1546 0.930 . S
N1542 Gd1522 2.622 . S
N1542 C1543 1.369 . S
N1542 C1544 1.338 . S
C1543 N1542 1.369 . S
C1543 C1547 1.415 . S
C1543 C1550 1.422 . S
C1544 H1535 0.929 . S
C1544 N1542 1.338 . S
C1544 C1546 1.378 . S
C1545 H1540 0.931 . S
C1545 C1546 1.348 . S
C1545 C1547 1.413 . S
C1546 H1541 0.930 . S
C1546 C1544 1.378 . S
C1546 C1545 1.348 . S
C1547 C1543 1.415 . S
C1547 C1545 1.413 . S
C1547 C1577 1.437 . S
H1548 C1577 0.929 . S
N1549 Gd1522 2.570 . S
N1549 C1550 1.359 . S
N1549 C1553 1.343 . S
C1550 C1543 1.422 . S
C1550 N1549 1.359 . S
C1550 C1552 1.421 . S
C1551 C1552 1.422 . S
C1551 C1554 1.321 . S
C1551 H1578 0.931 . S
C1552 C1550 1.421 . S
C1552 C1551 1.422 . S
C1552 C1576 1.417 . S
C1553 H1530 0.931 . S
C1553 N1549 1.343 . S
C1553 C1554 1.390 . S
C1554 H1532 0.930 . S
C1554 C1551 1.321 . S
C1554 C1553 1.390 . S
O1555 Gd1523 2.386 . S
O1555 C1567 1.265 . S
O1556 Gd1522 2.353 . S
O1556 C1567 1.242 . S
O1557 Gd1522 2.468 . S
O1557 C1575 1.263 . S
O1558 Gd1522 2.427 . S
O1558 C1575 1.252 . S
O1559 Gd1523 2.307 . S
O1559 C1568 1.261 . S
O1560 Gd1522 2.388 . S
O1560 C1568 1.252 . S
O1561 Gd1522 2.386 . S
O1561 C1579 1.265 . S
O1562 Gd1523 2.353 . S
O1562 C1579 1.242 . S
O1563 Gd1523 2.468 . S
O1563 C1587 1.263 . S
O1564 Gd1523 2.427 . S
O1564 C1587 1.252 . S
O1565 Gd1522 2.307 . S
O1565 C1580 1.261 . S
O1566 Gd1523 2.388 . S
O1566 C1580 1.252 . S
C1567 O1555 1.265 . S
C1567 O1556 1.242 . S
C1568 O1559 1.261 . S
C1568 O1560 1.252 . S
C1569 C1572 1.394 . S
C1569 C1574 1.370 . S
C1569 C1575 1.500 . S
C1570 C1573 1.383 . S
C1570 C1574 1.395 . S
C1571 C1572 1.396 . S
C1571 C1573 1.365 . S
C1571 H1588 0.929 . S
C1572 C1569 1.394 . S
C1572 C1571 1.396 . S
C1572 H1589 0.930 . S
C1573 C1570 1.383 . S
C1573 C1571 1.365 . S
C1573 H1590 0.931 . S
C1574 C1569 1.370 . S
C1574 C1570 1.395 . S
C1574 H1591 0.930 . S
C1575 Gd1522 2.805 . S
C1575 O1557 1.263 . S
C1575 O1558 1.252 . S
C1575 C1569 1.500 . S
C1576 H1538 0.930 . S
C1576 C1552 1.417 . S
C1576 C1577 1.329 . S
C1577 C1547 1.437 . S
C1577 H1548 0.929 . S
C1577 C1576 1.329 . S
H1578 C1551 0.931 . S
C1579 O1561 1.265 . S
C1579 O1562 1.242 . S
C1580 O1565 1.261 . S
C1580 O1566 1.252 . S
C1581 C1584 1.394 . S
C1581 C1586 1.370 . S
C1581 C1587 1.500 . S
C1582 C1585 1.383 . S
C1582 C1586 1.395 . S
C1583 C1584 1.396 . S
C1583 C1585 1.365 . S
C1583 H1592 0.929 . S
C1584 C1581 1.394 . S
C1584 C1583 1.396 . S
C1584 H1593 0.930 . S
C1585 C1582 1.383 . S
C1585 C1583 1.365 . S
C1585 H1594 0.931 . S
C1586 C1581 1.370 . S
C1586 C1582 1.395 . S
C1586 H1595 0.930 . S
C1587 Gd1523 2.805 . S
C1587 O1563 1.263 . S
C1587 O1564 1.252 . S
C1587 C1581 1.500 . S
H1588 C1571 0.929 . S
H1589 C1572 0.930 . S
H1590 C1573 0.931 . S
H1591 C1574 0.930 . S
H1592 C1583 0.929 . S
H1593 C1584 0.930 . S
H1594 C1585 0.931 . S
H1595 C1586 0.930 . S
C1596 C1598 1.422 1_556 S
C1596 C1600 1.415 . S
C1596 N1602 1.369 . S
C1597 C1598 1.421 . S
C1597 C1599 1.417 . S
C1597 C1609 1.422 . S
C1598 C1596 1.422 1_554 S
C1598 C1597 1.421 . S
C1598 N1608 1.359 . S
C1599 C1597 1.417 . S
C1599 C1601 1.329 1_554 S
C1599 H1618 0.930 . S
C1600 C1596 1.415 . S
C1600 C1601 1.437 . S
C1600 C1604 1.413 . S
C1601 C1599 1.329 1_556 S
C1601 C1600 1.437 . S
C1601 H1623 0.929 . S
N1602 C1596 1.369 . S
N1602 C1603 1.338 . S
N1602 Gd1607 2.622 1_556 S
C1603 N1602 1.338 . S
C1603 C1605 1.378 . S
C1603 H1615 0.929 . S
C1604 C1600 1.413 . S
C1604 C1605 1.348 . S
C1604 H1620 0.931 . S
C1605 C1603 1.378 . S
C1605 C1604 1.348 . S
C1605 H1621 0.930 . S
Gd1606 N1626 2.635 . S
Gd1606 N1633 2.603 . S
Gd1606 O1640 2.339 1_655 S
Gd1606 O1641 2.512 . S
Gd1606 O1642 2.463 . S
Gd1606 O1644 2.352 1_655 S
Gd1606 O1645 2.358 1_655 S
Gd1606 O1649 2.298 1_655 S
Gd1606 C1659 2.850 . S
Gd1607 N1602 2.622 1_554 S
Gd1607 N1608 2.570 . S
Gd1607 O1639 2.386 . S
Gd1607 O1643 2.307 . S
Gd1607 O1646 2.353 . S
Gd1607 O1647 2.468 . S
Gd1607 O1648 2.427 1_554 S
Gd1607 O1650 2.388 1_554 S
Gd1607 C1671 2.805 . S
N1608 C1598 1.359 . S
N1608 Gd1607 2.570 . S
N1608 C1610 1.343 . S
C1609 C1597 1.422 . S
C1609 C1611 1.321 . S
C1609 H1617 0.931 . S
C1610 N1608 1.343 . S
C1610 C1611 1.390 . S
C1610 H1612 0.931 . S
C1611 C1609 1.321 . S
C1611 C1610 1.390 . S
C1611 H1613 0.930 . S
H1612 C1610 0.931 . S
H1613 C1611 0.930 . S
H1614 C1637 0.931 . S
H1615 C1603 0.929 . S
H1616 C1638 0.930 1_556 S
H1617 C1609 0.931 . S
H1618 C1599 0.930 . S
H1619 C1628 0.929 1_455 S
H1620 C1604 0.931 . S
H1621 C1605 0.930 . S
H1622 C1660 0.930 . S
H1623 C1601 0.929 . S
H1624 C1629 0.931 . S
H1625 C1630 0.928 1_455 S
N1626 Gd1606 2.635 . S
N1626 C1627 1.369 . S
N1626 C1628 1.338 . S
C1627 N1626 1.369 . S
C1627 C1631 1.415 . S
C1627 C1634 1.422 . S
C1628 H1619 0.929 1_655 S
C1628 N1626 1.338 . S
C1628 C1630 1.378 . S
C1629 H1624 0.931 . S
C1629 C1630 1.348 . S
C1629 C1631 1.413 . S
C1630 H1625 0.928 1_655 S
C1630 C1628 1.378 . S
C1630 C1629 1.348 . S
C1631 C1627 1.415 . S
C1631 C1629 1.413 . S
C1631 C1661 1.437 . S
H1632 C1661 0.929 . S
N1633 Gd1606 2.603 . S
N1633 C1634 1.359 . S
N1633 C1637 1.343 . S
C1634 C1627 1.422 . S
C1634 N1633 1.359 . S
C1634 C1636 1.421 . S
C1635 C1636 1.422 . S
C1635 C1638 1.321 . S
C1635 H1662 0.931 . S
C1636 C1634 1.421 . S
C1636 C1635 1.422 . S
C1636 C1660 1.417 . S
C1637 H1614 0.931 . S
C1637 N1633 1.343 . S
C1637 C1638 1.390 . S
C1638 H1616 0.930 1_554 S
C1638 C1635 1.321 . S
C1638 C1637 1.390 . S
O1639 Gd1607 2.386 . S
O1639 C1651 1.265 . S
O1640 Gd1606 2.339 1_455 S
O1640 C1651 1.242 . S
O1641 Gd1606 2.512 . S
O1641 C1659 1.263 . S
O1642 Gd1606 2.463 . S
O1642 C1659 1.252 . S
O1643 Gd1607 2.307 . S
O1643 C1652 1.261 . S
O1644 Gd1606 2.352 1_455 S
O1644 C1652 1.252 . S
O1645 Gd1606 2.358 1_455 S
O1645 C1663 1.265 . S
O1646 Gd1607 2.353 . S
O1646 C1663 1.242 . S
O1647 Gd1607 2.468 . S
O1647 C1671 1.263 . S
O1648 Gd1607 2.427 1_556 S
O1648 C1671 1.252 1_556 S
O1649 Gd1606 2.298 1_455 S
O1649 C1664 1.261 1_554 S
O1650 Gd1607 2.388 1_556 S
O1650 C1664 1.252 . S
C1651 O1639 1.265 . S
C1651 O1640 1.242 . S
C1652 O1643 1.261 . S
C1652 O1644 1.252 . S
C1653 C1656 1.394 . S
C1653 C1658 1.370 . S
C1653 C1659 1.500 . S
C1654 C1657 1.383 . S
C1654 C1658 1.395 . S
C1655 C1656 1.396 . S
C1655 C1657 1.365 . S
C1655 H1672 0.929 . S
C1656 C1653 1.394 . S
C1656 C1655 1.396 . S
C1656 H1673 0.930 . S
C1657 C1654 1.383 . S
C1657 C1655 1.365 . S
C1657 H1674 0.931 . S
C1658 C1653 1.370 . S
C1658 C1654 1.395 . S
C1658 H1675 0.930 . S
C1659 Gd1606 2.850 . S
C1659 O1641 1.263 . S
C1659 O1642 1.252 . S
C1659 C1653 1.500 . S
C1660 H1622 0.930 . S
C1660 C1636 1.417 . S
C1660 C1661 1.329 . S
C1661 C1631 1.437 . S
C1661 H1632 0.929 . S
C1661 C1660 1.329 . S
H1662 C1635 0.931 . S
C1663 O1645 1.265 . S
C1663 O1646 1.242 . S
C1664 O1649 1.261 1_556 S
C1664 O1650 1.252 . S
C1665 C1668 1.358 1_554 S
C1665 C1670 1.397 . S
C1665 C1671 1.509 . S
C1666 C1669 1.383 1_554 S
C1666 C1670 1.395 . S
C1667 C1668 1.396 . S
C1667 C1669 1.365 . S
C1667 H1676 0.929 . S
C1668 C1665 1.358 1_556 S
C1668 C1667 1.396 . S
C1668 H1677 0.930 . S
C1669 C1666 1.383 1_556 S
C1669 C1667 1.365 . S
C1669 H1678 0.931 . S
C1670 C1665 1.397 . S
C1670 C1666 1.395 . S
C1670 H1679 0.930 . S
C1671 Gd1607 2.805 . S
C1671 O1647 1.263 . S
C1671 O1648 1.252 1_554 S
C1671 C1665 1.509 . S
H1672 C1655 0.929 . S
H1673 C1656 0.930 . S
H1674 C1657 0.931 . S
H1675 C1658 0.930 . S
H1676 C1667 0.929 . S
H1677 C1668 0.930 . S
H1678 C1669 0.931 . S
H1679 C1670 0.930 . S
H1680 C1688 0.950 . S
H1681 C1693 0.950 . S
H1682 C1690 0.950 1_554 S
H1683 C1692 0.950 . S
H1684 C1694 0.950 1_655 S
H1685 C1696 0.950 . S
H1686 C1698 0.950 . S
H1687 C1699 0.950 . S
C1688 H1680 0.950 . S
C1688 C1689 1.386 . S
C1688 C1690 1.391 . S
C1689 C1688 1.386 . S
C1689 C1693 1.393 1_455 S
C1690 H1682 0.950 1_556 S
C1690 C1688 1.391 . S
C1690 C1691 1.400 . S
C1691 C1690 1.400 . S
C1691 C1692 1.398 1_455 S
C1691 C1697 1.491 1_556 S
C1692 H1683 0.950 . S
C1692 C1691 1.398 1_655 S
C1692 C1693 1.391 . S
C1693 H1681 0.950 . S
C1693 C1689 1.393 1_655 S
C1693 C1692 1.391 . S
C1694 H1684 0.950 1_455 S
C1694 C1695 1.386 . S
C1694 C1696 1.391 1_454 S
C1695 C1694 1.386 . S
C1695 C1699 1.393 . S
C1696 H1685 0.950 . S
C1696 C1694 1.391 1_656 S
C1696 C1697 1.400 1_656 S
C1697 C1691 1.491 1_554 S
C1697 C1696 1.400 1_454 S
C1697 C1698 1.398 . S
C1698 H1686 0.950 . S
C1698 C1697 1.398 . S
C1698 C1699 1.391 . S
C1699 H1687 0.950 . S
C1699 C1695 1.393 . S
C1699 C1698 1.391 . S
H1700 C1708 0.950 . S
H1701 C1713 0.950 . S
H1702 C1710 0.950 . S
H1703 C1712 0.950 . S
H1704 C1714 0.950 . S
H1705 C1716 0.950 . S
H1706 C1718 0.950 . S
H1707 C1719 0.950 . S
C1708 H1700 0.950 . S
C1708 C1709 1.386 . S
C1708 C1710 1.391 . S
C1709 C1708 1.386 . S
C1709 C1713 1.393 . S
C1710 H1702 0.950 . S
C1710 C1708 1.391 . S
C1710 C1711 1.400 . S
C1711 C1710 1.400 . S
C1711 C1712 1.398 . S
C1711 C1717 1.491 . S
C1712 H1703 0.950 . S
C1712 C1711 1.398 . S
C1712 C1713 1.391 . S
C1713 H1701 0.950 . S
C1713 C1709 1.393 . S
C1713 C1712 1.391 . S
C1714 H1704 0.950 . S
C1714 C1715 1.386 . S
C1714 C1716 1.391 . S
C1715 C1714 1.386 . S
C1715 C1719 1.393 . S
C1716 H1705 0.950 . S
C1716 C1714 1.391 . S
C1716 C1717 1.400 . S
C1717 C1711 1.491 . S
C1717 C1716 1.400 . S
C1717 C1718 1.398 . S
C1718 H1706 0.950 . S
C1718 C1717 1.398 . S
C1718 C1719 1.391 . S
C1719 H1707 0.950 . S
C1719 C1715 1.393 . S
C1719 C1718 1.391 . S
H1720 C1728 0.950 . S
H1721 C1733 0.950 . S
H1722 C1730 0.950 . S
H1723 C1732 0.950 . S
H1724 C1734 0.950 . S
H1725 C1736 0.950 . S
H1726 C1738 0.950 . S
H1727 C1739 0.950 . S
C1728 H1720 0.950 . S
C1728 C1729 1.386 . S
C1728 C1730 1.391 . S
C1729 C1728 1.386 . S
C1729 C1733 1.393 . S
C1730 H1722 0.950 . S
C1730 C1728 1.391 . S
C1730 C1731 1.400 . S
C1731 C1730 1.400 . S
C1731 C1732 1.398 . S
C1731 C1737 1.491 . S
C1732 H1723 0.950 . S
C1732 C1731 1.398 . S
C1732 C1733 1.391 . S
C1733 H1721 0.950 . S
C1733 C1729 1.393 . S
C1733 C1732 1.391 . S
C1734 H1724 0.950 . S
C1734 C1735 1.386 . S
C1734 C1736 1.391 . S
C1735 C1734 1.386 . S
C1735 C1739 1.393 . S
C1736 H1725 0.950 . S
C1736 C1734 1.391 . S
C1736 C1737 1.400 . S
C1737 C1731 1.491 . S
C1737 C1736 1.400 . S
C1737 C1738 1.398 . S
C1738 H1726 0.950 . S
C1738 C1737 1.398 . S
C1738 C1739 1.391 . S
C1739 H1727 0.950 . S
C1739 C1735 1.393 . S
C1739 C1738 1.391 . S
H1740 C1748 0.950 . S
H1741 C1753 0.950 . S
H1742 C1750 0.950 . S
H1743 C1752 0.950 . S
H1744 C1754 0.950 . S
H1745 C1756 0.950 . S
H1746 C1758 0.950 . S
H1747 C1759 0.950 . S
C1748 H1740 0.950 . S
C1748 C1749 1.386 . S
C1748 C1750 1.391 . S
C1749 C1748 1.386 . S
C1749 C1753 1.393 . S
C1750 H1742 0.950 . S
C1750 C1748 1.391 . S
C1750 C1751 1.400 . S
C1751 C1750 1.400 . S
C1751 C1752 1.398 . S
C1751 C1757 1.491 . S
C1752 H1743 0.950 . S
C1752 C1751 1.398 . S
C1752 C1753 1.391 . S
C1753 H1741 0.950 . S
C1753 C1749 1.393 . S
C1753 C1752 1.391 . S
C1754 H1744 0.950 . S
C1754 C1755 1.386 . S
C1754 C1756 1.391 . S
C1755 C1754 1.386 . S
C1755 C1759 1.393 . S
C1756 H1745 0.950 . S
C1756 C1754 1.391 . S
C1756 C1757 1.400 . S
C1757 C1751 1.491 . S
C1757 C1756 1.400 . S
C1757 C1758 1.398 . S
C1758 H1746 0.950 . S
C1758 C1757 1.398 . S
C1758 C1759 1.391 . S
C1759 H1747 0.950 . S
C1759 C1755 1.393 . S
C1759 C1758 1.391 . S
H1760 C1768 0.950 . S
H1761 C1773 0.950 . S
H1762 C1770 0.950 . S
H1763 C1772 0.950 . S
H1764 C1774 0.950 . S
H1765 C1776 0.950 . S
H1766 C1778 0.950 . S
H1767 C1779 0.950 . S
C1768 H1760 0.950 . S
C1768 C1769 1.386 . S
C1768 C1770 1.391 . S
C1769 C1768 1.386 . S
C1769 C1773 1.393 . S
C1770 H1762 0.950 . S
C1770 C1768 1.391 . S
C1770 C1771 1.400 . S
C1771 C1770 1.400 . S
C1771 C1772 1.398 . S
C1771 C1777 1.491 . S
C1772 H1763 0.950 . S
C1772 C1771 1.398 . S
C1772 C1773 1.391 . S
C1773 H1761 0.950 . S
C1773 C1769 1.393 . S
C1773 C1772 1.391 . S
C1774 H1764 0.950 . S
C1774 C1775 1.386 . S
C1774 C1776 1.391 . S
C1775 C1774 1.386 . S
C1775 C1779 1.393 . S
C1776 H1765 0.950 . S
C1776 C1774 1.391 . S
C1776 C1777 1.400 . S
C1777 C1771 1.491 . S
C1777 C1776 1.400 . S
C1777 C1778 1.398 . S
C1778 H1766 0.950 . S
C1778 C1777 1.398 . S
C1778 C1779 1.391 . S
C1779 H1767 0.950 . S
C1779 C1775 1.393 . S
C1779 C1778 1.391 . S
H1780 C1788 0.950 . S
H1781 C1793 0.950 . S
H1782 C1790 0.950 . S
H1783 C1792 0.950 . S
H1784 C1794 0.950 . S
H1785 C1796 0.950 . S
H1786 C1798 0.950 . S
H1787 C1799 0.950 . S
C1788 H1780 0.950 . S
C1788 C1789 1.386 . S
C1788 C1790 1.391 . S
C1789 C1788 1.386 . S
C1789 C1793 1.393 . S
C1790 H1782 0.950 . S
C1790 C1788 1.391 . S
C1790 C1791 1.400 . S
C1791 C1790 1.400 . S
C1791 C1792 1.398 . S
C1791 C1797 1.491 . S
C1792 H1783 0.950 . S
C1792 C1791 1.398 . S
C1792 C1793 1.391 . S
C1793 H1781 0.950 . S
C1793 C1789 1.393 . S
C1793 C1792 1.391 . S
C1794 H1784 0.950 . S
C1794 C1795 1.386 . S
C1794 C1796 1.391 . S
C1795 C1794 1.386 . S
C1795 C1799 1.393 . S
C1796 H1785 0.950 . S
C1796 C1794 1.391 . S
C1796 C1797 1.400 . S
C1797 C1791 1.491 . S
C1797 C1796 1.400 . S
C1797 C1798 1.398 . S
C1798 H1786 0.950 . S
C1798 C1797 1.398 . S
C1798 C1799 1.391 . S
C1799 H1787 0.950 . S
C1799 C1795 1.393 . S
C1799 C1798 1.391 . S
H1800 C1808 0.950 . S
H1801 C1813 0.950 . S
H1802 C1810 0.950 . S
H1803 C1812 0.950 . S
H1804 C1814 0.950 . S
H1805 C1816 0.950 . S
H1806 C1818 0.950 . S
H1807 C1819 0.950 . S
C1808 H1800 0.950 . S
C1808 C1809 1.386 . S
C1808 C1810 1.391 . S
C1809 C1808 1.386 . S
C1809 C1813 1.393 . S
C1810 H1802 0.950 . S
C1810 C1808 1.391 . S
C1810 C1811 1.400 . S
C1811 C1810 1.400 . S
C1811 C1812 1.398 . S
C1811 C1817 1.491 . S
C1812 H1803 0.950 . S
C1812 C1811 1.398 . S
C1812 C1813 1.391 . S
C1813 H1801 0.950 . S
C1813 C1809 1.393 . S
C1813 C1812 1.391 . S
C1814 H1804 0.950 . S
C1814 C1815 1.386 . S
C1814 C1816 1.391 . S
C1815 C1814 1.386 . S
C1815 C1819 1.393 . S
C1816 H1805 0.950 . S
C1816 C1814 1.391 . S
C1816 C1817 1.400 . S
C1817 C1811 1.491 . S
C1817 C1816 1.400 . S
C1817 C1818 1.398 . S
C1818 H1806 0.950 . S
C1818 C1817 1.398 . S
C1818 C1819 1.391 . S
C1819 H1807 0.950 . S
C1819 C1815 1.393 . S
C1819 C1818 1.391 . S
H1820 C1828 0.950 . S
H1821 C1833 0.950 . S
H1822 C1830 0.950 . S
H1823 C1832 0.950 . S
H1824 C1834 0.950 . S
H1825 C1836 0.950 . S
H1826 C1838 0.950 . S
H1827 C1839 0.950 . S
C1828 H1820 0.950 . S
C1828 C1829 1.386 . S
C1828 C1830 1.391 . S
C1829 C1828 1.386 . S
C1829 C1833 1.393 . S
C1830 H1822 0.950 . S
C1830 C1828 1.391 . S
C1830 C1831 1.400 . S
C1831 C1830 1.400 . S
C1831 C1832 1.398 . S
C1831 C1837 1.491 . S
C1832 H1823 0.950 . S
C1832 C1831 1.398 . S
C1832 C1833 1.391 . S
C1833 H1821 0.950 . S
C1833 C1829 1.393 . S
C1833 C1832 1.391 . S
C1834 H1824 0.950 . S
C1834 C1835 1.386 . S
C1834 C1836 1.391 . S
C1835 C1834 1.386 . S
C1835 C1839 1.393 . S
C1836 H1825 0.950 . S
C1836 C1834 1.391 . S
C1836 C1837 1.400 . S
C1837 C1831 1.491 . S
C1837 C1836 1.400 . S
C1837 C1838 1.398 . S
C1838 H1826 0.950 . S
C1838 C1837 1.398 . S
C1838 C1839 1.391 . S
C1839 H1827 0.950 . S
C1839 C1835 1.393 . S
C1839 C1838 1.391 . S
H1840 C1848 0.950 . S
H1841 C1853 0.950 . S
H1842 C1850 0.950 . S
H1843 C1852 0.950 . S
H1844 C1854 0.950 . S
H1845 C1856 0.950 . S
H1846 C1858 0.950 . S
H1847 C1859 0.950 . S
C1848 H1840 0.950 . S
C1848 C1849 1.386 . S
C1848 C1850 1.391 . S
C1849 C1848 1.386 . S
C1849 C1853 1.393 . S
C1850 H1842 0.950 . S
C1850 C1848 1.391 . S
C1850 C1851 1.400 . S
C1851 C1850 1.400 . S
C1851 C1852 1.398 . S
C1851 C1857 1.491 . S
C1852 H1843 0.950 . S
C1852 C1851 1.398 . S
C1852 C1853 1.391 . S
C1853 H1841 0.950 . S
C1853 C1849 1.393 . S
C1853 C1852 1.391 . S
C1854 H1844 0.950 . S
C1854 C1855 1.386 . S
C1854 C1856 1.391 . S
C1855 C1854 1.386 . S
C1855 C1859 1.393 1_455 S
C1856 H1845 0.950 . S
C1856 C1854 1.391 . S
C1856 C1857 1.400 1_455 S
C1857 C1851 1.491 . S
C1857 C1856 1.400 1_655 S
C1857 C1858 1.398 . S
C1858 H1846 0.950 . S
C1858 C1857 1.398 . S
C1858 C1859 1.391 . S
C1859 H1847 0.950 . S
C1859 C1855 1.393 1_655 S
C1859 C1858 1.391 . S
H1860 C1868 0.950 . S
H1861 C1873 0.950 . S
H1862 C1870 0.950 . S
H1863 C1872 0.950 . S
H1864 C1874 0.950 . S
H1865 C1876 0.950 . S
H1866 C1878 0.950 . S
H1867 C1879 0.950 . S
C1868 H1860 0.950 . S
C1868 C1869 1.386 . S
C1868 C1870 1.391 . S
C1869 C1868 1.386 . S
C1869 C1873 1.393 . S
C1870 H1862 0.950 . S
C1870 C1868 1.391 . S
C1870 C1871 1.400 . S
C1871 C1870 1.400 . S
C1871 C1872 1.398 . S
C1871 C1877 1.491 . S
C1872 H1863 0.950 . S
C1872 C1871 1.398 . S
C1872 C1873 1.391 . S
C1873 H1861 0.950 . S
C1873 C1869 1.393 . S
C1873 C1872 1.391 . S
C1874 H1864 0.950 . S
C1874 C1875 1.386 . S
C1874 C1876 1.391 . S
C1875 C1874 1.386 . S
C1875 C1879 1.393 . S
C1876 H1865 0.950 . S
C1876 C1874 1.391 . S
C1876 C1877 1.400 . S
C1877 C1871 1.491 . S
C1877 C1876 1.400 . S
C1877 C1878 1.398 . S
C1878 H1866 0.950 . S
C1878 C1877 1.398 . S
C1878 C1879 1.391 . S
C1879 H1867 0.950 . S
C1879 C1875 1.393 . S
C1879 C1878 1.391 . S
H1880 C1888 0.950 . S
H1881 C1893 0.950 . S
H1882 C1890 0.950 . S
H1883 C1892 0.950 . S
H1884 C1894 0.950 . S
H1885 C1896 0.950 . S
H1886 C1898 0.950 . S
H1887 C1899 0.950 . S
C1888 H1880 0.950 . S
C1888 C1889 1.386 . S
C1888 C1890 1.391 . S
C1889 C1888 1.386 . S
C1889 C1893 1.393 . S
C1890 H1882 0.950 . S
C1890 C1888 1.391 . S
C1890 C1891 1.400 . S
C1891 C1890 1.400 . S
C1891 C1892 1.398 . S
C1891 C1897 1.491 . S
C1892 H1883 0.950 . S
C1892 C1891 1.398 . S
C1892 C1893 1.391 . S
C1893 H1881 0.950 . S
C1893 C1889 1.393 . S
C1893 C1892 1.391 . S
C1894 H1884 0.950 . S
C1894 C1895 1.386 . S
C1894 C1896 1.391 . S
C1895 C1894 1.386 . S
C1895 C1899 1.393 . S
C1896 H1885 0.950 . S
C1896 C1894 1.391 . S
C1896 C1897 1.400 . S
C1897 C1891 1.491 . S
C1897 C1896 1.400 . S
C1897 C1898 1.398 . S
C1898 H1886 0.950 . S
C1898 C1897 1.398 . S
C1898 C1899 1.391 . S
C1899 H1887 0.950 . S
C1899 C1895 1.393 . S
C1899 C1898 1.391 . S
H1900 C1908 0.950 . S
H1901 C1913 0.950 . S
H1902 C1910 0.950 . S
H1903 C1912 0.950 . S
H1904 C1914 0.950 . S
H1905 C1916 0.950 . S
H1906 C1918 0.950 . S
H1907 C1919 0.950 . S
C1908 H1900 0.950 . S
C1908 C1909 1.386 . S
C1908 C1910 1.391 . S
C1909 C1908 1.386 . S
C1909 C1913 1.393 . S
C1910 H1902 0.950 . S
C1910 C1908 1.391 . S
C1910 C1911 1.400 . S
C1911 C1910 1.400 . S
C1911 C1912 1.398 . S
C1911 C1917 1.491 . S
C1912 H1903 0.950 . S
C1912 C1911 1.398 . S
C1912 C1913 1.391 . S
C1913 H1901 0.950 . S
C1913 C1909 1.393 . S
C1913 C1912 1.391 . S
C1914 H1904 0.950 . S
C1914 C1915 1.386 . S
C1914 C1916 1.391 . S
C1915 C1914 1.386 . S
C1915 C1919 1.393 . S
C1916 H1905 0.950 . S
C1916 C1914 1.391 . S
C1916 C1917 1.400 . S
C1917 C1911 1.491 . S
C1917 C1916 1.400 . S
C1917 C1918 1.398 . S
C1918 H1906 0.950 . S
C1918 C1917 1.398 . S
C1918 C1919 1.391 . S
C1919 H1907 0.950 . S
C1919 C1915 1.393 . S
C1919 C1918 1.391 . S
H1920 C1928 0.961 . S
H1921 C1933 0.950 . S
H1922 C1930 0.950 . S
H1923 C1932 0.950 . S
H1924 C1934 0.950 . S
H1925 C1936 0.950 . S
H1926 C1938 0.969 . S
H1927 C1939 0.950 . S
C1928 H1920 0.961 . S
C1928 C1929 1.386 . S
C1928 C1930 1.391 . S
C1929 C1928 1.386 . S
C1929 C1933 1.393 . S
C1930 H1922 0.950 . S
C1930 C1928 1.391 . S
C1930 C1931 1.400 . S
C1931 C1930 1.400 . S
C1931 C1932 1.398 . S
C1931 C1937 1.491 . S
C1932 H1923 0.950 . S
C1932 C1931 1.398 . S
C1932 C1933 1.391 . S
C1933 H1921 0.950 . S
C1933 C1929 1.393 . S
C1933 C1932 1.391 . S
C1934 H1924 0.950 . S
C1934 C1935 1.386 1_655 S
C1934 C1936 1.391 . S
C1935 C1934 1.386 1_455 S
C1935 C1939 1.393 . S
C1936 H1925 0.950 . S
C1936 C1934 1.391 . S
C1936 C1937 1.400 . S
C1937 C1931 1.491 . S
C1937 C1936 1.400 . S
C1937 C1938 1.398 1_655 S
C1938 H1926 0.969 . S
C1938 C1937 1.398 1_455 S
C1938 C1939 1.391 . S
C1939 H1927 0.950 . S
C1939 C1935 1.393 . S
C1939 C1938 1.391 . S
H1940 C1948 0.950 . S
H1941 C1953 0.950 . S
H1942 C1950 0.950 . S
H1943 C1952 0.950 . S
H1944 C1954 0.950 . S
H1945 C1956 0.950 . S
H1946 C1958 0.950 . S
H1947 C1959 0.950 . S
C1948 H1940 0.950 . S
C1948 C1949 1.386 . S
C1948 C1950 1.391 . S
C1949 C1948 1.386 . S
C1949 C1953 1.393 . S
C1950 H1942 0.950 . S
C1950 C1948 1.391 . S
C1950 C1951 1.400 . S
C1951 C1950 1.400 . S
C1951 C1952 1.398 . S
C1951 C1957 1.491 . S
C1952 H1943 0.950 . S
C1952 C1951 1.398 . S
C1952 C1953 1.391 . S
C1953 H1941 0.950 . S
C1953 C1949 1.393 . S
C1953 C1952 1.391 . S
C1954 H1944 0.950 . S
C1954 C1955 1.386 . S
C1954 C1956 1.391 . S
C1955 C1954 1.386 . S
C1955 C1959 1.393 . S
C1956 H1945 0.950 . S
C1956 C1954 1.391 . S
C1956 C1957 1.400 . S
C1957 C1951 1.491 . S
C1957 C1956 1.400 . S
C1957 C1958 1.398 . S
C1958 H1946 0.950 . S
C1958 C1957 1.398 . S
C1958 C1959 1.391 . S
C1959 H1947 0.950 . S
C1959 C1955 1.393 . S
C1959 C1958 1.391 . S
H1960 C1968 0.950 . S
H1961 C1973 0.950 . S
H1962 C1970 0.950 . S
H1963 C1972 0.950 . S
H1964 C1974 0.950 . S
H1965 C1976 0.950 . S
H1966 C1978 0.950 . S
H1967 C1979 0.950 . S
C1968 H1960 0.950 . S
C1968 C1969 1.386 . S
C1968 C1970 1.391 . S
C1969 C1968 1.386 . S
C1969 C1973 1.393 . S
C1970 H1962 0.950 . S
C1970 C1968 1.391 . S
C1970 C1971 1.400 . S
C1971 C1970 1.400 . S
C1971 C1972 1.398 . S
C1971 C1977 1.491 . S
C1972 H1963 0.950 . S
C1972 C1971 1.398 . S
C1972 C1973 1.391 . S
C1973 H1961 0.950 . S
C1973 C1969 1.393 . S
C1973 C1972 1.391 . S
C1974 H1964 0.950 . S
C1974 C1975 1.386 . S
C1974 C1976 1.391 . S
C1975 C1974 1.386 . S
C1975 C1979 1.393 . S
C1976 H1965 0.950 . S
C1976 C1974 1.391 . S
C1976 C1977 1.400 . S
C1977 C1971 1.491 . S
C1977 C1976 1.400 . S
C1977 C1978 1.398 . S
C1978 H1966 0.950 . S
C1978 C1977 1.398 . S
C1978 C1979 1.391 . S
C1979 H1967 0.950 . S
C1979 C1975 1.393 . S
C1979 C1978 1.391 . S
H1980 C1988 0.950 . S
H1981 C1993 0.950 . S
H1982 C1990 0.950 . S
H1983 C1992 0.950 . S
H1984 C1994 0.950 . S
H1985 C1996 0.950 . S
H1986 C1998 0.950 . S
H1987 C1999 0.950 . S
C1988 H1980 0.950 . S
C1988 C1989 1.386 . S
C1988 C1990 1.391 . S
C1989 C1988 1.386 . S
C1989 C1993 1.393 . S
C1990 H1982 0.950 . S
C1990 C1988 1.391 . S
C1990 C1991 1.400 . S
C1991 C1990 1.400 . S
C1991 C1992 1.398 . S
C1991 C1997 1.491 . S
C1992 H1983 0.950 . S
C1992 C1991 1.398 . S
C1992 C1993 1.391 . S
C1993 H1981 0.950 . S
C1993 C1989 1.393 . S
C1993 C1992 1.391 . S
C1994 H1984 0.950 . S
C1994 C1995 1.386 . S
C1994 C1996 1.391 . S
C1995 C1994 1.386 . S
C1995 C1999 1.393 . S
C1996 H1985 0.950 . S
C1996 C1994 1.391 . S
C1996 C1997 1.400 . S
C1997 C1991 1.491 . S
C1997 C1996 1.400 . S
C1997 C1998 1.398 . S
C1998 H1986 0.950 . S
C1998 C1997 1.398 . S
C1998 C1999 1.391 . S
C1999 H1987 0.950 . S
C1999 C1995 1.393 . S
C1999 C1998 1.391 . S
H2000 C2008 0.950 . S
H2001 C2013 0.950 . S
H2002 C2010 0.950 1_556 S
H2003 C2012 0.950 . S
H2004 C2014 0.950 . S
H2005 C2016 0.950 . S
H2006 C2018 0.950 . S
H2007 C2019 0.950 . S
C2008 H2000 0.950 . S
C2008 C2009 1.386 1_556 S
C2008 C2010 1.391 1_556 S
C2009 C2008 1.386 1_554 S
C2009 C2013 1.393 . S
C2010 H2002 0.950 1_554 S
C2010 C2008 1.391 1_554 S
C2010 C2011 1.400 . S
C2011 C2010 1.400 . S
C2011 C2012 1.398 . S
C2011 C2017 1.491 . S
C2012 H2003 0.950 . S
C2012 C2011 1.398 . S
C2012 C2013 1.391 . S
C2013 H2001 0.950 . S
C2013 C2009 1.393 . S
C2013 C2012 1.391 . S
C2014 H2004 0.950 . S
C2014 C2015 1.384 1_545 S
C2014 C2016 1.391 . S
C2015 C2014 1.384 1_565 S
C2015 C2019 1.397 . S
C2016 H2005 0.950 . S
C2016 C2014 1.391 . S
C2016 C2017 1.400 1_545 S
C2017 C2011 1.491 . S
C2017 C2016 1.400 1_565 S
C2017 C2018 1.398 . S
C2018 H2006 0.950 . S
C2018 C2017 1.398 . S
C2018 C2019 1.391 . S
C2019 H2007 0.950 . S
C2019 C2015 1.397 . S
C2019 C2018 1.391 . S
H2020 C2028 0.950 . S
H2021 C2033 0.950 . S
H2022 C2030 0.950 . S
H2023 C2032 0.950 . S
H2024 C2034 0.950 1_556 S
H2025 C2036 0.950 1_556 S
H2026 C2038 0.950 . S
H2027 C2039 0.950 . S
C2028 H2020 0.950 . S
C2028 C2029 1.386 . S
C2028 C2030 1.391 . S
C2029 C2028 1.386 . S
C2029 C2033 1.393 1_554 S
C2030 H2022 0.950 . S
C2030 C2028 1.391 . S
C2030 C2031 1.400 . S
C2031 C2030 1.400 . S
C2031 C2032 1.398 1_554 S
C2031 C2037 1.491 . S
C2032 H2023 0.950 . S
C2032 C2031 1.398 1_556 S
C2032 C2033 1.391 . S
C2033 H2021 0.950 . S
C2033 C2029 1.393 1_556 S
C2033 C2032 1.391 . S
C2034 H2024 0.950 1_554 S
C2034 C2035 1.386 . S
C2034 C2036 1.391 . S
C2035 C2034 1.386 . S
C2035 C2039 1.393 . S
C2036 H2025 0.950 1_554 S
C2036 C2034 1.391 . S
C2036 C2037 1.400 . S
C2037 C2031 1.491 . S
C2037 C2036 1.400 . S
C2037 C2038 1.398 . S
C2038 H2026 0.950 . S
C2038 C2037 1.398 . S
C2038 C2039 1.391 . S
C2039 H2027 0.950 . S
C2039 C2035 1.393 . S
C2039 C2038 1.391 . S
H2040 C2048 0.950 . S
H2041 C2053 0.950 . S
H2042 C2050 0.950 . S
H2043 C2052 0.950 . S
H2044 C2054 0.950 . S
H2045 C2056 0.950 . S
H2046 C2058 0.950 . S
H2047 C2059 0.950 . S
C2048 H2040 0.950 . S
C2048 C2049 1.386 . S
C2048 C2050 1.391 . S
C2049 C2048 1.386 . S
C2049 C2053 1.393 . S
C2050 H2042 0.950 . S
C2050 C2048 1.391 . S
C2050 C2051 1.400 . S
C2051 C2050 1.400 . S
C2051 C2052 1.398 . S
C2051 C2057 1.491 . S
C2052 H2043 0.950 . S
C2052 C2051 1.398 . S
C2052 C2053 1.391 . S
C2053 H2041 0.950 . S
C2053 C2049 1.393 . S
C2053 C2052 1.391 . S
C2054 H2044 0.950 . S
C2054 C2055 1.386 . S
C2054 C2056 1.391 . S
C2055 C2054 1.386 . S
C2055 C2059 1.393 . S
C2056 H2045 0.950 . S
C2056 C2054 1.391 . S
C2056 C2057 1.400 . S
C2057 C2051 1.491 . S
C2057 C2056 1.400 . S
C2057 C2058 1.398 . S
C2058 H2046 0.950 . S
C2058 C2057 1.398 . S
C2058 C2059 1.391 . S
C2059 H2047 0.950 . S
C2059 C2055 1.393 . S
C2059 C2058 1.391 . S
H2060 C2068 0.950 . S
H2061 C2073 0.950 . S
H2062 C2070 0.950 . S
H2063 C2072 0.950 . S
H2064 C2074 0.950 . S
H2065 C2076 0.950 . S
H2066 C2078 0.950 . S
H2067 C2079 0.950 . S
C2068 H2060 0.950 . S
C2068 C2069 1.386 . S
C2068 C2070 1.391 . S
C2069 C2068 1.386 . S
C2069 C2073 1.393 . S
C2070 H2062 0.950 . S
C2070 C2068 1.391 . S
C2070 C2071 1.400 . S
C2071 C2070 1.400 . S
C2071 C2072 1.398 . S
C2071 C2077 1.491 . S
C2072 H2063 0.950 . S
C2072 C2071 1.398 . S
C2072 C2073 1.391 . S
C2073 H2061 0.950 . S
C2073 C2069 1.393 . S
C2073 C2072 1.391 . S
C2074 H2064 0.950 . S
C2074 C2075 1.386 . S
C2074 C2076 1.391 . S
C2075 C2074 1.386 . S
C2075 C2079 1.393 . S
C2076 H2065 0.950 . S
C2076 C2074 1.391 . S
C2076 C2077 1.400 . S
C2077 C2071 1.491 . S
C2077 C2076 1.400 . S
C2077 C2078 1.398 . S
C2078 H2066 0.950 . S
C2078 C2077 1.398 . S
C2078 C2079 1.391 . S
C2079 H2067 0.950 . S
C2079 C2075 1.393 . S
C2079 C2078 1.391 . S
H2080 C2088 0.950 . S
H2081 C2093 0.950 . S
H2082 C2090 0.950 . S
H2083 C2092 0.950 . S
H2084 C2094 0.950 . S
H2085 C2096 0.950 . S
H2086 C2098 0.950 . S
H2087 C2099 0.950 . S
C2088 H2080 0.950 . S
C2088 C2089 1.386 . S
C2088 C2090 1.391 . S
C2089 C2088 1.386 . S
C2089 C2093 1.393 . S
C2090 H2082 0.950 . S
C2090 C2088 1.391 . S
C2090 C2091 1.400 . S
C2091 C2090 1.400 . S
C2091 C2092 1.398 . S
C2091 C2097 1.491 . S
C2092 H2083 0.950 . S
C2092 C2091 1.398 . S
C2092 C2093 1.391 . S
C2093 H2081 0.950 . S
C2093 C2089 1.393 . S
C2093 C2092 1.391 . S
C2094 H2084 0.950 . S
C2094 C2095 1.386 . S
C2094 C2096 1.391 . S
C2095 C2094 1.386 . S
C2095 C2099 1.393 . S
C2096 H2085 0.950 . S
C2096 C2094 1.391 . S
C2096 C2097 1.400 . S
C2097 C2091 1.491 . S
C2097 C2096 1.400 . S
C2097 C2098 1.398 . S
C2098 H2086 0.950 . S
C2098 C2097 1.398 . S
C2098 C2099 1.391 . S
C2099 H2087 0.950 . S
C2099 C2095 1.393 . S
C2099 C2098 1.391 . S
H2100 C2108 0.950 . S
H2101 C2113 0.950 . S
H2102 C2110 0.950 . S
H2103 C2112 0.950 . S
H2104 C2114 0.950 . S
H2105 C2116 0.950 . S
H2106 C2118 0.950 . S
H2107 C2119 0.950 . S
C2108 H2100 0.950 . S
C2108 C2109 1.386 . S
C2108 C2110 1.391 . S
C2109 C2108 1.386 . S
C2109 C2113 1.393 . S
C2110 H2102 0.950 . S
C2110 C2108 1.391 . S
C2110 C2111 1.400 . S
C2111 C2110 1.400 . S
C2111 C2112 1.398 . S
C2111 C2117 1.491 . S
C2112 H2103 0.950 . S
C2112 C2111 1.398 . S
C2112 C2113 1.391 . S
C2113 H2101 0.950 . S
C2113 C2109 1.393 . S
C2113 C2112 1.391 . S
C2114 H2104 0.950 . S
C2114 C2115 1.386 . S
C2114 C2116 1.391 . S
C2115 C2114 1.386 . S
C2115 C2119 1.393 . S
C2116 H2105 0.950 . S
C2116 C2114 1.391 . S
C2116 C2117 1.400 . S
C2117 C2111 1.491 . S
C2117 C2116 1.400 . S
C2117 C2118 1.398 . S
C2118 H2106 0.950 . S
C2118 C2117 1.398 . S
C2118 C2119 1.391 . S
C2119 H2107 0.950 . S
C2119 C2115 1.393 . S
C2119 C2118 1.391 . S
H2120 C2128 0.950 . S
H2121 C2133 0.950 . S
H2122 C2130 0.950 . S
H2123 C2132 0.950 . S
H2124 C2134 0.950 . S
H2125 C2136 0.950 . S
H2126 C2138 0.950 . S
H2127 C2139 0.950 . S
C2128 H2120 0.950 . S
C2128 C2129 1.386 . S
C2128 C2130 1.391 . S
C2129 C2128 1.386 . S
C2129 C2133 1.393 . S
C2130 H2122 0.950 . S
C2130 C2128 1.391 . S
C2130 C2131 1.400 . S
C2131 C2130 1.400 . S
C2131 C2132 1.398 . S
C2131 C2137 1.491 . S
C2132 H2123 0.950 . S
C2132 C2131 1.398 . S
C2132 C2133 1.391 . S
C2133 H2121 0.950 . S
C2133 C2129 1.393 . S
C2133 C2132 1.391 . S
C2134 H2124 0.950 . S
C2134 C2135 1.386 . S
C2134 C2136 1.391 . S
C2135 C2134 1.386 . S
C2135 C2139 1.393 . S
C2136 H2125 0.950 . S
C2136 C2134 1.391 . S
C2136 C2137 1.400 . S
C2137 C2131 1.491 . S
C2137 C2136 1.400 . S
C2137 C2138 1.398 . S
C2138 H2126 0.950 . S
C2138 C2137 1.398 . S
C2138 C2139 1.391 . S
C2139 H2127 0.950 . S
C2139 C2135 1.393 . S
C2139 C2138 1.391 . S
H2140 C2148 0.950 . S
H2141 C2153 0.950 . S
H2142 C2150 0.950 . S
H2143 C2152 0.950 . S
H2144 C2154 0.950 . S
H2145 C2156 0.950 . S
H2146 C2158 0.950 . S
H2147 C2159 0.950 . S
C2148 H2140 0.950 . S
C2148 C2149 1.386 . S
C2148 C2150 1.391 . S
C2149 C2148 1.386 . S
C2149 C2153 1.393 . S
C2150 H2142 0.950 . S
C2150 C2148 1.391 . S
C2150 C2151 1.400 . S
C2151 C2150 1.400 . S
C2151 C2152 1.398 . S
C2151 C2157 1.491 . S
C2152 H2143 0.950 . S
C2152 C2151 1.398 . S
C2152 C2153 1.391 . S
C2153 H2141 0.950 . S
C2153 C2149 1.393 . S
C2153 C2152 1.391 . S
C2154 H2144 0.950 . S
C2154 C2155 1.386 . S
C2154 C2156 1.391 . S
C2155 C2154 1.386 . S
C2155 C2159 1.393 . S
C2156 H2145 0.950 . S
C2156 C2154 1.391 . S
C2156 C2157 1.400 . S
C2157 C2151 1.491 . S
C2157 C2156 1.400 . S
C2157 C2158 1.398 . S
C2158 H2146 0.950 . S
C2158 C2157 1.398 . S
C2158 C2159 1.391 . S
C2159 H2147 0.950 . S
C2159 C2155 1.393 . S
C2159 C2158 1.391 . S
H2160 C2168 0.950 . S
H2161 C2173 0.950 . S
H2162 C2170 0.950 . S
H2163 C2172 0.950 . S
H2164 C2174 0.950 . S
H2165 C2176 0.950 . S
H2166 C2178 0.950 . S
H2167 C2179 0.950 . S
C2168 H2160 0.950 . S
C2168 C2169 1.386 . S
C2168 C2170 1.391 . S
C2169 C2168 1.386 . S
C2169 C2173 1.393 . S
C2170 H2162 0.950 . S
C2170 C2168 1.391 . S
C2170 C2171 1.400 . S
C2171 C2170 1.400 . S
C2171 C2172 1.398 . S
C2171 C2177 1.491 . S
C2172 H2163 0.950 . S
C2172 C2171 1.398 . S
C2172 C2173 1.391 . S
C2173 H2161 0.950 . S
C2173 C2169 1.393 . S
C2173 C2172 1.391 . S
C2174 H2164 0.950 . S
C2174 C2175 1.386 . S
C2174 C2176 1.391 . S
C2175 C2174 1.386 . S
C2175 C2179 1.393 . S
C2176 H2165 0.950 . S
C2176 C2174 1.391 . S
C2176 C2177 1.400 . S
C2177 C2171 1.491 . S
C2177 C2176 1.400 . S
C2177 C2178 1.398 . S
C2178 H2166 0.950 . S
C2178 C2177 1.398 . S
C2178 C2179 1.391 . S
C2179 H2167 0.950 . S
C2179 C2175 1.393 . S
C2179 C2178 1.391 . S
H2180 C2188 0.950 . S
H2181 C2193 0.950 . S
H2182 C2190 0.950 . S
H2183 C2192 0.950 . S
H2184 C2194 0.950 . S
H2185 C2196 0.950 . S
H2186 C2198 0.950 . S
H2187 C2199 0.950 . S
C2188 H2180 0.950 . S
C2188 C2189 1.386 . S
C2188 C2190 1.391 . S
C2189 C2188 1.386 . S
C2189 C2193 1.393 . S
C2190 H2182 0.950 . S
C2190 C2188 1.391 . S
C2190 C2191 1.400 . S
C2191 C2190 1.400 . S
C2191 C2192 1.398 . S
C2191 C2197 1.491 . S
C2192 H2183 0.950 . S
C2192 C2191 1.398 . S
C2192 C2193 1.391 . S
C2193 H2181 0.950 . S
C2193 C2189 1.393 . S
C2193 C2192 1.391 . S
C2194 H2184 0.950 . S
C2194 C2195 1.386 . S
C2194 C2196 1.391 . S
C2195 C2194 1.386 . S
C2195 C2199 1.393 . S
C2196 H2185 0.950 . S
C2196 C2194 1.391 . S
C2196 C2197 1.400 . S
C2197 C2191 1.491 . S
C2197 C2196 1.400 . S
C2197 C2198 1.398 . S
C2198 H2186 0.950 . S
C2198 C2197 1.398 . S
C2198 C2199 1.391 . S
C2199 H2187 0.950 . S
C2199 C2195 1.393 . S
C2199 C2198 1.391 . S
H2200 C2208 0.950 . S
H2201 C2213 0.950 . S
H2202 C2210 0.950 . S
H2203 C2212 0.950 . S
H2204 C2214 0.950 . S
H2205 C2216 0.950 . S
H2206 C2218 0.950 . S
H2207 C2219 0.950 . S
C2208 H2200 0.950 . S
C2208 C2209 1.386 . S
C2208 C2210 1.391 . S
C2209 C2208 1.386 . S
C2209 C2213 1.393 . S
C2210 H2202 0.950 . S
C2210 C2208 1.391 . S
C2210 C2211 1.400 . S
C2211 C2210 1.400 . S
C2211 C2212 1.398 . S
C2211 C2217 1.491 . S
C2212 H2203 0.950 . S
C2212 C2211 1.398 . S
C2212 C2213 1.391 . S
C2213 H2201 0.950 . S
C2213 C2209 1.393 . S
C2213 C2212 1.391 . S
C2214 H2204 0.950 . S
C2214 C2215 1.386 . S
C2214 C2216 1.391 . S
C2215 C2214 1.386 . S
C2215 C2219 1.393 . S
C2216 H2205 0.950 . S
C2216 C2214 1.391 . S
C2216 C2217 1.400 . S
C2217 C2211 1.491 . S
C2217 C2216 1.400 . S
C2217 C2218 1.398 . S
C2218 H2206 0.950 . S
C2218 C2217 1.398 . S
C2218 C2219 1.391 . S
C2219 H2207 0.950 . S
C2219 C2215 1.393 . S
C2219 C2218 1.391 . S
H2220 C2228 0.950 . S
H2221 C2233 0.950 . S
H2222 C2230 0.950 . S
H2223 C2232 0.950 . S
H2224 C2234 0.950 . S
H2225 C2236 0.950 . S
H2226 C2238 0.950 . S
H2227 C2239 0.950 . S
C2228 H2220 0.950 . S
C2228 C2229 1.386 . S
C2228 C2230 1.391 . S
C2229 C2228 1.386 . S
C2229 C2233 1.393 . S
C2230 H2222 0.950 . S
C2230 C2228 1.391 . S
C2230 C2231 1.400 . S
C2231 C2230 1.400 . S
C2231 C2232 1.398 . S
C2231 C2237 1.491 . S
C2232 H2223 0.950 . S
C2232 C2231 1.398 . S
C2232 C2233 1.391 . S
C2233 H2221 0.950 . S
C2233 C2229 1.393 . S
C2233 C2232 1.391 . S
C2234 H2224 0.950 . S
C2234 C2235 1.386 . S
C2234 C2236 1.391 . S
C2235 C2234 1.386 . S
C2235 C2239 1.393 . S
C2236 H2225 0.950 . S
C2236 C2234 1.391 . S
C2236 C2237 1.400 . S
C2237 C2231 1.491 . S
C2237 C2236 1.400 . S
C2237 C2238 1.398 . S
C2238 H2226 0.950 . S
C2238 C2237 1.398 . S
C2238 C2239 1.391 . S
C2239 H2227 0.950 . S
C2239 C2235 1.393 . S
C2239 C2238 1.391 . S
H2240 C2248 0.950 . S
H2241 C2253 0.950 . S
H2242 C2250 0.950 . S
H2243 C2252 0.950 . S
H2244 C2254 0.950 . S
H2245 C2256 0.950 . S
H2246 C2258 0.950 . S
H2247 C2259 0.950 . S
C2248 H2240 0.950 . S
C2248 C2249 1.386 . S
C2248 C2250 1.391 . S
C2249 C2248 1.386 . S
C2249 C2253 1.393 . S
C2250 H2242 0.950 . S
C2250 C2248 1.391 . S
C2250 C2251 1.400 . S
C2251 C2250 1.400 . S
C2251 C2252 1.398 . S
C2251 C2257 1.491 . S
C2252 H2243 0.950 . S
C2252 C2251 1.398 . S
C2252 C2253 1.391 . S
C2253 H2241 0.950 . S
C2253 C2249 1.393 . S
C2253 C2252 1.391 . S
C2254 H2244 0.950 . S
C2254 C2255 1.386 . S
C2254 C2256 1.391 . S
C2255 C2254 1.386 . S
C2255 C2259 1.393 . S
C2256 H2245 0.950 . S
C2256 C2254 1.391 . S
C2256 C2257 1.400 . S
C2257 C2251 1.491 . S
C2257 C2256 1.400 . S
C2257 C2258 1.398 . S
C2258 H2246 0.950 . S
C2258 C2257 1.398 . S
C2258 C2259 1.391 . S
C2259 H2247 0.950 . S
C2259 C2255 1.393 . S
C2259 C2258 1.391 . S
H2260 C2268 0.950 . S
H2261 C2273 0.950 . S
H2262 C2270 0.950 . S
H2263 C2272 0.950 . S
H2264 C2274 0.950 . S
H2265 C2276 0.950 . S
H2266 C2278 0.950 . S
H2267 C2279 0.950 . S
C2268 H2260 0.950 . S
C2268 C2269 1.386 . S
C2268 C2270 1.391 . S
C2269 C2268 1.386 . S
C2269 C2273 1.393 . S
C2270 H2262 0.950 . S
C2270 C2268 1.391 . S
C2270 C2271 1.400 . S
C2271 C2270 1.400 . S
C2271 C2272 1.398 . S
C2271 C2277 1.491 . S
C2272 H2263 0.950 . S
C2272 C2271 1.398 . S
C2272 C2273 1.391 . S
C2273 H2261 0.950 . S
C2273 C2269 1.393 . S
C2273 C2272 1.391 . S
C2274 H2264 0.950 . S
C2274 C2275 1.386 . S
C2274 C2276 1.391 . S
C2275 C2274 1.386 . S
C2275 C2279 1.393 . S
C2276 H2265 0.950 . S
C2276 C2274 1.391 . S
C2276 C2277 1.400 . S
C2277 C2271 1.491 . S
C2277 C2276 1.400 . S
C2277 C2278 1.398 . S
C2278 H2266 0.950 . S
C2278 C2277 1.398 . S
C2278 C2279 1.391 . S
C2279 H2267 0.950 . S
C2279 C2275 1.393 . S
C2279 C2278 1.391 . S
H2280 C2288 0.950 . S
H2281 C2293 0.950 . S
H2282 C2290 0.950 . S
H2283 C2292 0.950 . S
H2284 C2294 0.950 . S
H2285 C2296 0.950 . S
H2286 C2298 0.950 . S
H2287 C2299 0.950 . S
C2288 H2280 0.950 . S
C2288 C2289 1.386 . S
C2288 C2290 1.391 . S
C2289 C2288 1.386 . S
C2289 C2293 1.393 . S
C2290 H2282 0.950 . S
C2290 C2288 1.391 . S
C2290 C2291 1.400 . S
C2291 C2290 1.400 . S
C2291 C2292 1.398 . S
C2291 C2297 1.491 . S
C2292 H2283 0.950 . S
C2292 C2291 1.398 . S
C2292 C2293 1.391 . S
C2293 H2281 0.950 . S
C2293 C2289 1.393 . S
C2293 C2292 1.391 . S
C2294 H2284 0.950 . S
C2294 C2295 1.386 . S
C2294 C2296 1.391 . S
C2295 C2294 1.386 . S
C2295 C2299 1.393 . S
C2296 H2285 0.950 . S
C2296 C2294 1.391 . S
C2296 C2297 1.400 . S
C2297 C2291 1.491 . S
C2297 C2296 1.400 . S
C2297 C2298 1.398 . S
C2298 H2286 0.950 . S
C2298 C2297 1.398 . S
C2298 C2299 1.391 . S
C2299 H2287 0.950 . S
C2299 C2295 1.393 . S
C2299 C2298 1.391 . S
H2300 C2308 0.950 . S
H2301 C2313 0.950 . S
H2302 C2310 0.950 . S
H2303 C2312 0.950 . S
H2304 C2314 0.950 . S
H2305 C2316 0.950 . S
H2306 C2318 0.950 . S
H2307 C2319 0.950 . S
C2308 H2300 0.950 . S
C2308 C2309 1.386 . S
C2308 C2310 1.391 . S
C2309 C2308 1.386 . S
C2309 C2313 1.393 . S
C2310 H2302 0.950 . S
C2310 C2308 1.391 . S
C2310 C2311 1.400 . S
C2311 C2310 1.400 . S
C2311 C2312 1.398 . S
C2311 C2317 1.491 . S
C2312 H2303 0.950 . S
C2312 C2311 1.398 . S
C2312 C2313 1.391 . S
C2313 H2301 0.950 . S
C2313 C2309 1.393 . S
C2313 C2312 1.391 . S
C2314 H2304 0.950 . S
C2314 C2315 1.386 . S
C2314 C2316 1.391 . S
C2315 C2314 1.386 . S
C2315 C2319 1.393 . S
C2316 H2305 0.950 . S
C2316 C2314 1.391 . S
C2316 C2317 1.400 . S
C2317 C2311 1.491 . S
C2317 C2316 1.400 . S
C2317 C2318 1.398 . S
C2318 H2306 0.950 . S
C2318 C2317 1.398 . S
C2318 C2319 1.391 . S
C2319 H2307 0.950 . S
C2319 C2315 1.393 . S
C2319 C2318 1.391 . S
H2320 C2328 0.950 . S
H2321 C2333 0.950 . S
H2322 C2330 0.950 . S
H2323 C2332 0.950 . S
H2324 C2334 0.950 . S
H2325 C2336 0.950 . S
H2326 C2338 0.950 . S
H2327 C2339 0.950 . S
C2328 H2320 0.950 . S
C2328 C2329 1.386 . S
C2328 C2330 1.391 . S
C2329 C2328 1.386 . S
C2329 C2333 1.393 . S
C2330 H2322 0.950 . S
C2330 C2328 1.391 . S
C2330 C2331 1.400 . S
C2331 C2330 1.400 . S
C2331 C2332 1.398 . S
C2331 C2337 1.491 . S
C2332 H2323 0.950 . S
C2332 C2331 1.398 . S
C2332 C2333 1.391 . S
C2333 H2321 0.950 . S
C2333 C2329 1.393 . S
C2333 C2332 1.391 . S
C2334 H2324 0.950 . S
C2334 C2335 1.386 . S
C2334 C2336 1.391 . S
C2335 C2334 1.386 . S
C2335 C2339 1.393 . S
C2336 H2325 0.950 . S
C2336 C2334 1.391 . S
C2336 C2337 1.400 . S
C2337 C2331 1.491 . S
C2337 C2336 1.400 . S
C2337 C2338 1.398 . S
C2338 H2326 0.950 . S
C2338 C2337 1.398 . S
C2338 C2339 1.391 . S
C2339 H2327 0.950 . S
C2339 C2335 1.393 . S
C2339 C2338 1.391 . S
H2340 C2348 0.950 . S
H2341 C2353 0.950 . S
H2342 C2350 0.950 . S
H2343 C2352 0.950 . S
H2344 C2354 0.950 . S
H2345 C2356 0.950 . S
H2346 C2358 0.950 . S
H2347 C2359 0.950 . S
C2348 H2340 0.950 . S
C2348 C2349 1.386 . S
C2348 C2350 1.391 . S
C2349 C2348 1.386 . S
C2349 C2353 1.393 . S
C2350 H2342 0.950 . S
C2350 C2348 1.391 . S
C2350 C2351 1.400 . S
C2351 C2350 1.400 . S
C2351 C2352 1.398 . S
C2351 C2357 1.491 . S
C2352 H2343 0.950 . S
C2352 C2351 1.398 . S
C2352 C2353 1.391 . S
C2353 H2341 0.950 . S
C2353 C2349 1.393 . S
C2353 C2352 1.391 . S
C2354 H2344 0.950 . S
C2354 C2355 1.386 . S
C2354 C2356 1.391 . S
C2355 C2354 1.386 . S
C2355 C2359 1.393 . S
C2356 H2345 0.950 . S
C2356 C2354 1.391 . S
C2356 C2357 1.400 . S
C2357 C2351 1.491 . S
C2357 C2356 1.400 . S
C2357 C2358 1.398 . S
C2358 H2346 0.950 . S
C2358 C2357 1.398 . S
C2358 C2359 1.391 . S
C2359 H2347 0.950 . S
C2359 C2355 1.393 . S
C2359 C2358 1.391 . S
H2360 C2368 0.950 . S
H2361 C2373 0.950 . S
H2362 C2370 0.950 . S
H2363 C2372 0.950 . S
H2364 C2374 0.950 1_565 S
H2365 C2376 0.950 1_565 S
H2366 C2378 0.950 . S
H2367 C2379 0.950 . S
C2368 H2360 0.950 . S
C2368 C2369 1.386 . S
C2368 C2370 1.391 . S
C2369 C2368 1.386 . S
C2369 C2373 1.393 1_545 S
C2370 H2362 0.950 . S
C2370 C2368 1.391 . S
C2370 C2371 1.400 . S
C2371 C2370 1.400 . S
C2371 C2372 1.398 1_545 S
C2371 C2377 1.491 . S
C2372 H2363 0.950 . S
C2372 C2371 1.398 1_565 S
C2372 C2373 1.391 . S
C2373 H2361 0.950 . S
C2373 C2369 1.393 1_565 S
C2373 C2372 1.391 . S
C2374 H2364 0.950 1_545 S
C2374 C2375 1.386 . S
C2374 C2376 1.391 . S
C2375 C2374 1.386 . S
C2375 C2379 1.393 . S
C2376 H2365 0.950 1_545 S
C2376 C2374 1.391 . S
C2376 C2377 1.400 . S
C2377 C2371 1.491 . S
C2377 C2376 1.400 . S
C2377 C2378 1.398 . S
C2378 H2366 0.950 . S
C2378 C2377 1.398 . S
C2378 C2379 1.391 . S
C2379 H2367 0.950 . S
C2379 C2375 1.393 . S
C2379 C2378 1.391 . S
H2380 C2388 0.950 . S
H2381 C2393 0.950 . S
H2382 C2390 0.950 . S
H2383 C2392 0.950 . S
H2384 C2394 0.950 . S
H2385 C2396 0.950 . S
H2386 C2398 0.950 . S
H2387 C2399 0.950 . S
C2388 H2380 0.950 . S
C2388 C2389 1.386 . S
C2388 C2390 1.391 . S
C2389 C2388 1.386 . S
C2389 C2393 1.393 . S
C2390 H2382 0.950 . S
C2390 C2388 1.391 . S
C2390 C2391 1.400 . S
C2391 C2390 1.400 . S
C2391 C2392 1.398 . S
C2391 C2397 1.491 . S
C2392 H2383 0.950 . S
C2392 C2391 1.398 . S
C2392 C2393 1.391 . S
C2393 H2381 0.950 . S
C2393 C2389 1.393 . S
C2393 C2392 1.391 . S
C2394 H2384 0.950 . S
C2394 C2395 1.386 . S
C2394 C2396 1.391 . S
C2395 C2394 1.386 . S
C2395 C2399 1.393 . S
C2396 H2385 0.950 . S
C2396 C2394 1.391 . S
C2396 C2397 1.400 . S
C2397 C2391 1.491 . S
C2397 C2396 1.400 . S
C2397 C2398 1.398 . S
C2398 H2386 0.950 . S
C2398 C2397 1.398 . S
C2398 C2399 1.391 . S
C2399 H2387 0.950 . S
C2399 C2395 1.393 . S
C2399 C2398 1.391 . S
H2400 C2408 0.950 . S
H2401 C2413 0.950 . S
H2402 C2410 0.950 . S
H2403 C2412 0.950 . S
H2404 C2414 0.950 . S
H2405 C2416 0.950 . S
H2406 C2418 0.950 . S
H2407 C2419 0.950 . S
C2408 H2400 0.950 . S
C2408 C2409 1.386 . S
C2408 C2410 1.391 . S
C2409 C2408 1.386 . S
C2409 C2413 1.393 . S
C2410 H2402 0.950 . S
C2410 C2408 1.391 . S
C2410 C2411 1.400 . S
C2411 C2410 1.400 . S
C2411 C2412 1.398 . S
C2411 C2417 1.491 . S
C2412 H2403 0.950 . S
C2412 C2411 1.398 . S
C2412 C2413 1.391 . S
C2413 H2401 0.950 . S
C2413 C2409 1.393 . S
C2413 C2412 1.391 . S
C2414 H2404 0.950 . S
C2414 C2415 1.386 . S
C2414 C2416 1.391 . S
C2415 C2414 1.386 . S
C2415 C2419 1.393 . S
C2416 H2405 0.950 . S
C2416 C2414 1.391 . S
C2416 C2417 1.400 . S
C2417 C2411 1.491 . S
C2417 C2416 1.400 . S
C2417 C2418 1.398 . S
C2418 H2406 0.950 . S
C2418 C2417 1.398 . S
C2418 C2419 1.391 . S
C2419 H2407 0.950 . S
C2419 C2415 1.393 . S
C2419 C2418 1.391 . S
H2420 C2428 0.950 . S
H2421 C2433 0.950 . S
H2422 C2430 0.950 . S
H2423 C2432 0.950 . S
H2424 C2434 0.950 . S
H2425 C2436 0.950 . S
H2426 C2438 0.950 . S
H2427 C2439 0.950 . S
C2428 H2420 0.950 . S
C2428 C2429 1.386 . S
C2428 C2430 1.391 . S
C2429 C2428 1.386 . S
C2429 C2433 1.393 . S
C2430 H2422 0.950 . S
C2430 C2428 1.391 . S
C2430 C2431 1.400 . S
C2431 C2430 1.400 . S
C2431 C2432 1.398 . S
C2431 C2437 1.491 . S
C2432 H2423 0.950 . S
C2432 C2431 1.398 . S
C2432 C2433 1.391 . S
C2433 H2421 0.950 . S
C2433 C2429 1.393 . S
C2433 C2432 1.391 . S
C2434 H2424 0.950 . S
C2434 C2435 1.386 . S
C2434 C2436 1.391 . S
C2435 C2434 1.386 . S
C2435 C2439 1.393 . S
C2436 H2425 0.950 . S
C2436 C2434 1.391 . S
C2436 C2437 1.400 . S
C2437 C2431 1.491 . S
C2437 C2436 1.400 . S
C2437 C2438 1.398 . S
C2438 H2426 0.950 . S
C2438 C2437 1.398 . S
C2438 C2439 1.391 . S
C2439 H2427 0.950 . S
C2439 C2435 1.393 . S
C2439 C2438 1.391 . S
H2440 C2448 0.950 . S
H2441 C2453 0.950 . S
H2442 C2450 0.950 . S
H2443 C2452 0.950 . S
H2444 C2454 0.950 . S
H2445 C2456 0.950 . S
H2446 C2458 0.950 . S
H2447 C2459 0.950 . S
C2448 H2440 0.950 . S
C2448 C2449 1.386 . S
C2448 C2450 1.391 . S
C2449 C2448 1.386 . S
C2449 C2453 1.393 1_545 S
C2450 H2442 0.950 . S
C2450 C2448 1.391 . S
C2450 C2451 1.400 . S
C2451 C2450 1.400 . S
C2451 C2452 1.398 1_545 S
C2451 C2457 1.491 . S
C2452 H2443 0.950 . S
C2452 C2451 1.398 1_565 S
C2452 C2453 1.391 . S
C2453 H2441 0.950 . S
C2453 C2449 1.393 1_565 S
C2453 C2452 1.391 . S
C2454 H2444 0.950 . S
C2454 C2455 1.386 1_565 S
C2454 C2456 1.391 . S
C2455 C2454 1.386 1_545 S
C2455 C2459 1.393 . S
C2456 H2445 0.950 . S
C2456 C2454 1.391 . S
C2456 C2457 1.400 1_565 S
C2457 C2451 1.491 . S
C2457 C2456 1.400 1_545 S
C2457 C2458 1.398 . S
C2458 H2446 0.950 . S
C2458 C2457 1.398 . S
C2458 C2459 1.391 . S
C2459 H2447 0.950 . S
C2459 C2455 1.393 . S
C2459 C2458 1.391 . S
H2460 C2468 0.950 . S
H2461 C2473 0.950 . S
H2462 C2470 0.950 . S
H2463 C2472 0.950 . S
H2464 C2474 0.950 . S
H2465 C2476 0.950 . S
H2466 C2478 0.950 . S
H2467 C2479 0.950 . S
C2468 H2460 0.950 . S
C2468 C2469 1.386 . S
C2468 C2470 1.391 . S
C2469 C2468 1.386 . S
C2469 C2473 1.393 . S
C2470 H2462 0.950 . S
C2470 C2468 1.391 . S
C2470 C2471 1.400 . S
C2471 C2470 1.400 . S
C2471 C2472 1.398 . S
C2471 C2477 1.491 . S
C2472 H2463 0.950 . S
C2472 C2471 1.398 . S
C2472 C2473 1.391 . S
C2473 H2461 0.950 . S
C2473 C2469 1.393 . S
C2473 C2472 1.391 . S
C2474 H2464 0.950 . S
C2474 C2475 1.386 . S
C2474 C2476 1.391 . S
C2475 C2474 1.386 . S
C2475 C2479 1.393 . S
C2476 H2465 0.950 . S
C2476 C2474 1.391 . S
C2476 C2477 1.400 . S
C2477 C2471 1.491 . S
C2477 C2476 1.400 . S
C2477 C2478 1.398 . S
C2478 H2466 0.950 . S
C2478 C2477 1.398 . S
C2478 C2479 1.391 . S
C2479 H2467 0.950 . S
C2479 C2475 1.393 . S
C2479 C2478 1.391 . S
H2480 C2488 0.950 . S
H2481 C2493 0.950 . S
H2482 C2490 0.950 . S
H2483 C2492 0.950 . S
H2484 C2494 0.950 1_556 S
H2485 C2496 0.950 . S
H2486 C2498 0.950 . S
H2487 C2499 0.950 . S
C2488 H2480 0.950 . S
C2488 C2489 1.386 . S
C2488 C2490 1.391 . S
C2489 C2488 1.386 . S
C2489 C2493 1.393 . S
C2490 H2482 0.950 . S
C2490 C2488 1.391 . S
C2490 C2491 1.400 . S
C2491 C2490 1.400 . S
C2491 C2492 1.398 . S
C2491 C2497 1.491 . S
C2492 H2483 0.950 . S
C2492 C2491 1.398 . S
C2492 C2493 1.391 . S
C2493 H2481 0.950 . S
C2493 C2489 1.393 . S
C2493 C2492 1.391 . S
C2494 H2484 0.950 1_554 S
C2494 C2495 1.386 . S
C2494 C2496 1.391 . S
C2495 C2494 1.386 . S
C2495 C2499 1.393 . S
C2496 H2485 0.950 . S
C2496 C2494 1.391 . S
C2496 C2497 1.400 . S
C2497 C2491 1.491 . S
C2497 C2496 1.400 . S
C2497 C2498 1.398 . S
C2498 H2486 0.950 . S
C2498 C2497 1.398 . S
C2498 C2499 1.391 . S
C2499 H2487 0.950 . S
C2499 C2495 1.393 . S
C2499 C2498 1.391 . S
H2500 C2508 0.950 . S
H2501 C2513 0.950 . S
H2502 C2510 0.950 . S
H2503 C2512 0.950 . S
H2504 C2514 0.950 . S
H2505 C2516 0.950 . S
H2506 C2518 0.950 . S
H2507 C2519 0.950 . S
C2508 H2500 0.950 . S
C2508 C2509 1.386 . S
C2508 C2510 1.391 . S
C2509 C2508 1.386 . S
C2509 C2513 1.393 . S
C2510 H2502 0.950 . S
C2510 C2508 1.391 . S
C2510 C2511 1.400 . S
C2511 C2510 1.400 . S
C2511 C2512 1.398 . S
C2511 C2517 1.491 . S
C2512 H2503 0.950 . S
C2512 C2511 1.398 . S
C2512 C2513 1.391 . S
C2513 H2501 0.950 . S
C2513 C2509 1.393 . S
C2513 C2512 1.391 . S
C2514 H2504 0.950 . S
C2514 C2515 1.386 . S
C2514 C2516 1.391 . S
C2515 C2514 1.386 . S
C2515 C2519 1.393 . S
C2516 H2505 0.950 . S
C2516 C2514 1.391 . S
C2516 C2517 1.400 . S
C2517 C2511 1.491 . S
C2517 C2516 1.400 . S
C2517 C2518 1.398 . S
C2518 H2506 0.950 . S
C2518 C2517 1.398 . S
C2518 C2519 1.391 . S
C2519 H2507 0.950 . S
C2519 C2515 1.393 . S
C2519 C2518 1.391 . S
H2520 C2528 0.950 . S
H2521 C2533 0.950 . S
H2522 C2530 0.950 . S
H2523 C2532 0.950 . S
H2524 C2534 0.950 . S
H2525 C2536 0.950 . S
H2526 C2538 0.950 . S
H2527 C2539 0.950 . S
C2528 H2520 0.950 . S
C2528 C2529 1.386 . S
C2528 C2530 1.391 . S
C2529 C2528 1.386 . S
C2529 C2533 1.393 . S
C2530 H2522 0.950 . S
C2530 C2528 1.391 . S
C2530 C2531 1.400 . S
C2531 C2530 1.400 . S
C2531 C2532 1.398 . S
C2531 C2537 1.491 . S
C2532 H2523 0.950 . S
C2532 C2531 1.398 . S
C2532 C2533 1.391 . S
C2533 H2521 0.950 . S
C2533 C2529 1.393 . S
C2533 C2532 1.391 . S
C2534 H2524 0.950 . S
C2534 C2535 1.386 . S
C2534 C2536 1.391 . S
C2535 C2534 1.386 . S
C2535 C2539 1.393 . S
C2536 H2525 0.950 . S
C2536 C2534 1.391 . S
C2536 C2537 1.400 . S
C2537 C2531 1.491 . S
C2537 C2536 1.400 . S
C2537 C2538 1.398 . S
C2538 H2526 0.950 . S
C2538 C2537 1.398 . S
C2538 C2539 1.391 . S
C2539 H2527 0.950 . S
C2539 C2535 1.393 . S
C2539 C2538 1.391 . S
H2540 C2548 0.950 . S
H2541 C2553 0.950 . S
H2542 C2550 0.950 . S
H2543 C2552 0.950 . S
H2544 C2554 0.950 . S
H2545 C2556 0.950 . S
H2546 C2558 0.950 . S
H2547 C2559 0.950 . S
C2548 H2540 0.950 . S
C2548 C2549 1.386 . S
C2548 C2550 1.391 . S
C2549 C2548 1.386 . S
C2549 C2553 1.393 . S
C2550 H2542 0.950 . S
C2550 C2548 1.391 . S
C2550 C2551 1.400 . S
C2551 C2550 1.400 . S
C2551 C2552 1.398 . S
C2551 C2557 1.491 . S
C2552 H2543 0.950 . S
C2552 C2551 1.398 . S
C2552 C2553 1.391 . S
C2553 H2541 0.950 . S
C2553 C2549 1.393 . S
C2553 C2552 1.391 . S
C2554 H2544 0.950 . S
C2554 C2555 1.386 . S
C2554 C2556 1.391 . S
C2555 C2554 1.386 . S
C2555 C2559 1.393 . S
C2556 H2545 0.950 . S
C2556 C2554 1.391 . S
C2556 C2557 1.400 . S
C2557 C2551 1.491 . S
C2557 C2556 1.400 . S
C2557 C2558 1.398 . S
C2558 H2546 0.950 . S
C2558 C2557 1.398 . S
C2558 C2559 1.391 . S
C2559 H2547 0.950 . S
C2559 C2555 1.393 . S
C2559 C2558 1.391 . S
H2560 C2568 0.950 . S
H2561 C2573 0.950 . S
H2562 C2570 0.950 . S
H2563 C2572 0.950 . S
H2564 C2574 0.950 . S
H2565 C2576 0.950 . S
H2566 C2578 0.950 . S
H2567 C2579 0.950 . S
C2568 H2560 0.950 . S
C2568 C2569 1.406 . S
C2568 C2570 1.391 . S
C2569 C2568 1.406 . S
C2569 C2573 1.416 . S
C2570 H2562 0.950 . S
C2570 C2568 1.391 . S
C2570 C2571 1.400 . S
C2571 C2570 1.400 . S
C2571 C2572 1.398 . S
C2571 C2577 1.491 . S
C2572 H2563 0.950 . S
C2572 C2571 1.398 . S
C2572 C2573 1.391 . S
C2573 H2561 0.950 . S
C2573 C2569 1.416 . S
C2573 C2572 1.391 . S
C2574 H2564 0.950 . S
C2574 C2575 1.386 . S
C2574 C2576 1.391 . S
C2575 C2574 1.386 . S
C2575 C2579 1.393 . S
C2576 H2565 0.950 . S
C2576 C2574 1.391 . S
C2576 C2577 1.400 . S
C2577 C2571 1.491 . S
C2577 C2576 1.400 . S
C2577 C2578 1.398 . S
C2578 H2566 0.950 . S
C2578 C2577 1.398 . S
C2578 C2579 1.391 . S
C2579 H2567 0.950 . S
C2579 C2575 1.393 . S
C2579 C2578 1.391 . S
H2580 C2588 0.950 . S
H2581 C2593 0.950 . S
H2582 C2590 0.950 . S
H2583 C2592 0.950 . S
H2584 C2594 0.950 . S
H2585 C2596 0.950 . S
H2586 C2598 0.950 . S
H2587 C2599 0.950 . S
C2588 H2580 0.950 . S
C2588 C2589 1.386 . S
C2588 C2590 1.391 . S
C2589 C2588 1.386 . S
C2589 C2593 1.393 . S
C2590 H2582 0.950 . S
C2590 C2588 1.391 . S
C2590 C2591 1.400 . S
C2591 C2590 1.400 . S
C2591 C2592 1.398 . S
C2591 C2597 1.491 . S
C2592 H2583 0.950 . S
C2592 C2591 1.398 . S
C2592 C2593 1.391 . S
C2593 H2581 0.950 . S
C2593 C2589 1.393 . S
C2593 C2592 1.391 . S
C2594 H2584 0.950 . S
C2594 C2595 1.386 . S
C2594 C2596 1.391 . S
C2595 C2594 1.386 . S
C2595 C2599 1.393 . S
C2596 H2585 0.950 . S
C2596 C2594 1.391 . S
C2596 C2597 1.400 . S
C2597 C2591 1.491 . S
C2597 C2596 1.400 . S
C2597 C2598 1.398 . S
C2598 H2586 0.950 . S
C2598 C2597 1.398 . S
C2598 C2599 1.391 . S
C2599 H2587 0.950 . S
C2599 C2595 1.393 . S
C2599 C2598 1.391 . S
H2600 C2608 0.950 . S
H2601 C2613 0.950 . S
H2602 C2610 0.950 . S
H2603 C2612 0.950 . S
H2604 C2614 0.950 . S
H2605 C2616 0.950 . S
H2606 C2618 0.950 . S
H2607 C2619 0.950 . S
C2608 H2600 0.950 . S
C2608 C2609 1.386 . S
C2608 C2610 1.391 . S
C2609 C2608 1.386 . S
C2609 C2613 1.393 . S
C2610 H2602 0.950 . S
C2610 C2608 1.391 . S
C2610 C2611 1.400 . S
C2611 C2610 1.400 . S
C2611 C2612 1.398 . S
C2611 C2617 1.491 . S
C2612 H2603 0.950 . S
C2612 C2611 1.398 . S
C2612 C2613 1.391 . S
C2613 H2601 0.950 . S
C2613 C2609 1.393 . S
C2613 C2612 1.391 . S
C2614 H2604 0.950 . S
C2614 C2615 1.386 . S
C2614 C2616 1.391 . S
C2615 C2614 1.386 . S
C2615 C2619 1.393 . S
C2616 H2605 0.950 . S
C2616 C2614 1.391 . S
C2616 C2617 1.400 . S
C2617 C2611 1.491 . S
C2617 C2616 1.400 . S
C2617 C2618 1.398 . S
C2618 H2606 0.950 . S
C2618 C2617 1.398 . S
C2618 C2619 1.391 . S
C2619 H2607 0.950 . S
C2619 C2615 1.393 . S
C2619 C2618 1.391 . S
H2620 C2628 0.950 . S
H2621 C2633 0.950 . S
H2622 C2630 0.950 . S
H2623 C2632 0.950 . S
H2624 C2634 0.950 . S
H2625 C2636 0.950 . S
H2626 C2638 0.950 . S
H2627 C2639 0.950 . S
C2628 H2620 0.950 . S
C2628 C2629 1.386 . S
C2628 C2630 1.391 . S
C2629 C2628 1.386 . S
C2629 C2633 1.393 . S
C2630 H2622 0.950 . S
C2630 C2628 1.391 . S
C2630 C2631 1.400 . S
C2631 C2630 1.400 . S
C2631 C2632 1.398 . S
C2631 C2637 1.491 . S
C2632 H2623 0.950 . S
C2632 C2631 1.398 . S
C2632 C2633 1.391 . S
C2633 H2621 0.950 . S
C2633 C2629 1.393 . S
C2633 C2632 1.391 . S
C2634 H2624 0.950 . S
C2634 C2635 1.386 . S
C2634 C2636 1.391 . S
C2635 C2634 1.386 . S
C2635 C2639 1.393 . S
C2636 H2625 0.950 . S
C2636 C2634 1.391 . S
C2636 C2637 1.400 . S
C2637 C2631 1.491 . S
C2637 C2636 1.400 . S
C2637 C2638 1.398 . S
C2638 H2626 0.950 . S
C2638 C2637 1.398 . S
C2638 C2639 1.391 . S
C2639 H2627 0.950 . S
C2639 C2635 1.393 . S
C2639 C2638 1.391 . S
H2640 C2648 0.950 . S
H2641 C2653 0.950 . S
H2642 C2650 0.950 . S
H2643 C2652 0.950 . S
H2644 C2654 0.950 . S
H2645 C2656 0.950 . S
H2646 C2658 0.950 . S
H2647 C2659 0.950 . S
C2648 H2640 0.950 . S
C2648 C2649 1.386 . S
C2648 C2650 1.391 . S
C2649 C2648 1.386 . S
C2649 C2653 1.393 . S
C2650 H2642 0.950 . S
C2650 C2648 1.391 . S
C2650 C2651 1.400 . S
C2651 C2650 1.400 . S
C2651 C2652 1.398 . S
C2651 C2657 1.491 . S
C2652 H2643 0.950 . S
C2652 C2651 1.398 . S
C2652 C2653 1.391 . S
C2653 H2641 0.950 . S
C2653 C2649 1.393 . S
C2653 C2652 1.391 . S
C2654 H2644 0.950 . S
C2654 C2655 1.386 . S
C2654 C2656 1.391 . S
C2655 C2654 1.386 . S
C2655 C2659 1.393 . S
C2656 H2645 0.950 . S
C2656 C2654 1.391 . S
C2656 C2657 1.400 . S
C2657 C2651 1.491 . S
C2657 C2656 1.400 . S
C2657 C2658 1.398 . S
C2658 H2646 0.950 . S
C2658 C2657 1.398 . S
C2658 C2659 1.391 . S
C2659 H2647 0.950 . S
C2659 C2655 1.393 . S
C2659 C2658 1.391 . S
H2660 C2668 0.950 . S
H2661 C2673 0.950 . S
H2662 C2670 0.950 . S
H2663 C2672 0.950 . S
H2664 C2674 0.950 . S
H2665 C2676 0.950 . S
H2666 C2678 0.950 . S
H2667 C2679 0.950 . S
C2668 H2660 0.950 . S
C2668 C2669 1.386 . S
C2668 C2670 1.391 . S
C2669 C2668 1.386 . S
C2669 C2673 1.393 . S
C2670 H2662 0.950 . S
C2670 C2668 1.391 . S
C2670 C2671 1.400 . S
C2671 C2670 1.400 . S
C2671 C2672 1.398 . S
C2671 C2677 1.491 . S
C2672 H2663 0.950 . S
C2672 C2671 1.398 . S
C2672 C2673 1.391 . S
C2673 H2661 0.950 . S
C2673 C2669 1.393 . S
C2673 C2672 1.391 . S
C2674 H2664 0.950 . S
C2674 C2675 1.386 . S
C2674 C2676 1.391 . S
C2675 C2674 1.386 . S
C2675 C2679 1.393 . S
C2676 H2665 0.950 . S
C2676 C2674 1.391 . S
C2676 C2677 1.400 . S
C2677 C2671 1.491 . S
C2677 C2676 1.400 . S
C2677 C2678 1.398 . S
C2678 H2666 0.950 . S
C2678 C2677 1.398 . S
C2678 C2679 1.391 . S
C2679 H2667 0.950 . S
C2679 C2675 1.393 . S
C2679 C2678 1.391 . S
H2680 C2688 0.950 . S
H2681 C2693 0.950 . S
H2682 C2690 0.950 1_554 S
H2683 C2692 0.950 . S
H2684 C2694 0.950 . S
H2685 C2696 0.958 . S
H2686 C2698 0.950 . S
H2687 C2699 0.950 . S
C2688 H2680 0.950 . S
C2688 C2689 1.386 . S
C2688 C2690 1.391 . S
C2689 C2688 1.386 . S
C2689 C2693 1.393 1_455 S
C2690 H2682 0.950 1_556 S
C2690 C2688 1.391 . S
C2690 C2691 1.400 . S
C2691 C2690 1.400 . S
C2691 C2692 1.398 1_455 S
C2691 C2697 1.491 1_556 S
C2692 H2683 0.950 . S
C2692 C2691 1.398 1_655 S
C2692 C2693 1.391 . S
C2693 H2681 0.950 . S
C2693 C2689 1.393 1_655 S
C2693 C2692 1.391 . S
C2694 H2684 0.950 . S
C2694 C2695 1.386 1_655 S
C2694 C2696 1.386 1_554 S
C2695 C2694 1.386 1_455 S
C2695 C2699 1.393 . S
C2696 H2685 0.958 . S
C2696 C2694 1.386 1_556 S
C2696 C2697 1.398 1_656 S
C2697 C2691 1.491 1_554 S
C2697 C2696 1.398 1_454 S
C2697 C2698 1.398 . S
C2698 H2686 0.950 . S
C2698 C2697 1.398 . S
C2698 C2699 1.391 . S
C2699 H2687 0.950 . S
C2699 C2695 1.393 . S
C2699 C2698 1.391 . S
H2700 C2708 0.964 . S
H2701 C2713 0.950 . S
H2702 C2710 0.950 . S
H2703 C2712 0.950 . S
H2704 C2714 0.950 . S
H2705 C2716 0.950 . S
H2706 C2718 0.950 . S
H2707 C2719 0.950 . S
C2708 H2700 0.964 . S
C2708 C2709 1.384 1_455 S
C2708 C2710 1.378 1_455 S
C2709 C2708 1.384 1_655 S
C2709 C2713 1.393 . S
C2710 H2702 0.950 . S
C2710 C2708 1.378 1_655 S
C2710 C2711 1.400 . S
C2711 C2710 1.400 . S
C2711 C2712 1.398 . S
C2711 C2717 1.491 . S
C2712 H2703 0.950 . S
C2712 C2711 1.398 . S
C2712 C2713 1.391 . S
C2713 H2701 0.950 . S
C2713 C2709 1.393 . S
C2713 C2712 1.391 . S
C2714 H2704 0.950 . S
C2714 C2715 1.386 . S
C2714 C2716 1.391 . S
C2715 C2714 1.386 . S
C2715 C2719 1.393 . S
C2716 H2705 0.950 . S
C2716 C2714 1.391 . S
C2716 C2717 1.400 . S
C2717 C2711 1.491 . S
C2717 C2716 1.400 . S
C2717 C2718 1.398 . S
C2718 H2706 0.950 . S
C2718 C2717 1.398 . S
C2718 C2719 1.391 . S
C2719 H2707 0.950 . S
C2719 C2715 1.393 . S
C2719 C2718 1.391 . S
H2720 C2728 0.950 . S
H2721 C2733 0.950 . S
H2722 C2730 0.950 . S
H2723 C2732 0.950 . S
H2724 C2734 0.950 . S
H2725 C2736 0.950 . S
H2726 C2738 0.950 . S
H2727 C2739 0.950 . S
C2728 H2720 0.950 . S
C2728 C2729 1.386 . S
C2728 C2730 1.391 . S
C2729 C2728 1.386 . S
C2729 C2733 1.393 . S
C2730 H2722 0.950 . S
C2730 C2728 1.391 . S
C2730 C2731 1.400 . S
C2731 C2730 1.400 . S
C2731 C2732 1.398 . S
C2731 C2737 1.491 . S
C2732 H2723 0.950 . S
C2732 C2731 1.398 . S
C2732 C2733 1.391 . S
C2733 H2721 0.950 . S
C2733 C2729 1.393 . S
C2733 C2732 1.391 . S
C2734 H2724 0.950 . S
C2734 C2735 1.386 . S
C2734 C2736 1.391 . S
C2735 C2734 1.386 . S
C2735 C2739 1.393 . S
C2736 H2725 0.950 . S
C2736 C2734 1.391 . S
C2736 C2737 1.400 . S
C2737 C2731 1.491 . S
C2737 C2736 1.400 . S
C2737 C2738 1.398 . S
C2738 H2726 0.950 . S
C2738 C2737 1.398 . S
C2738 C2739 1.391 . S
C2739 H2727 0.950 . S
C2739 C2735 1.393 . S
C2739 C2738 1.391 . S
H2740 C2748 0.950 . S
H2741 C2753 0.950 . S
H2742 C2750 0.950 . S
H2743 C2752 0.950 . S
H2744 C2754 0.950 . S
H2745 C2756 0.950 . S
H2746 C2758 0.950 . S
H2747 C2759 0.950 . S
C2748 H2740 0.950 . S
C2748 C2749 1.386 . S
C2748 C2750 1.391 . S
C2749 C2748 1.386 . S
C2749 C2753 1.393 . S
C2750 H2742 0.950 . S
C2750 C2748 1.391 . S
C2750 C2751 1.400 . S
C2751 C2750 1.400 . S
C2751 C2752 1.398 . S
C2751 C2757 1.491 . S
C2752 H2743 0.950 . S
C2752 C2751 1.398 . S
C2752 C2753 1.391 . S
C2753 H2741 0.950 . S
C2753 C2749 1.393 . S
C2753 C2752 1.391 . S
C2754 H2744 0.950 . S
C2754 C2755 1.386 . S
C2754 C2756 1.391 . S
C2755 C2754 1.386 . S
C2755 C2759 1.393 . S
C2756 H2745 0.950 . S
C2756 C2754 1.391 . S
C2756 C2757 1.400 . S
C2757 C2751 1.491 . S
C2757 C2756 1.400 . S
C2757 C2758 1.398 . S
C2758 H2746 0.950 . S
C2758 C2757 1.398 . S
C2758 C2759 1.391 . S
C2759 H2747 0.950 . S
C2759 C2755 1.393 . S
C2759 C2758 1.391 . S
H2760 C2768 0.950 . S
H2761 C2773 0.950 1_655 S
H2762 C2770 0.950 . S
H2763 C2772 0.949 . S
H2764 C2774 0.950 . S
H2765 C2776 0.950 . S
H2766 C2778 0.950 . S
H2767 C2779 0.950 . S
C2768 H2760 0.950 . S
C2768 C2769 1.386 . S
C2768 C2770 1.391 . S
C2769 C2768 1.386 . S
C2769 C2773 1.393 . S
C2770 H2762 0.950 . S
C2770 C2768 1.391 . S
C2770 C2771 1.400 . S
C2771 C2770 1.400 . S
C2771 C2772 1.398 . S
C2771 C2777 1.491 . S
C2772 H2763 0.949 . S
C2772 C2771 1.398 . S
C2772 C2773 1.391 . S
C2773 H2761 0.950 1_455 S
C2773 C2769 1.393 . S
C2773 C2772 1.391 . S
C2774 H2764 0.950 . S
C2774 C2775 1.386 . S
C2774 C2776 1.391 . S
C2775 C2774 1.386 . S
C2775 C2779 1.393 . S
C2776 H2765 0.950 . S
C2776 C2774 1.391 . S
C2776 C2777 1.400 . S
C2777 C2771 1.491 . S
C2777 C2776 1.400 . S
C2777 C2778 1.398 . S
C2778 H2766 0.950 . S
C2778 C2777 1.398 . S
C2778 C2779 1.391 . S
C2779 H2767 0.950 . S
C2779 C2775 1.393 . S
C2779 C2778 1.391 . S
H2780 C2788 0.950 . S
H2781 C2793 0.950 . S
H2782 C2790 0.950 . S
H2783 C2792 0.950 . S
H2784 C2794 0.950 . S
H2785 C2796 0.950 . S
H2786 C2798 0.950 . S
H2787 C2799 0.950 . S
C2788 H2780 0.950 . S
C2788 C2789 1.386 . S
C2788 C2790 1.391 . S
C2789 C2788 1.386 . S
C2789 C2793 1.393 . S
C2790 H2782 0.950 . S
C2790 C2788 1.391 . S
C2790 C2791 1.400 . S
C2791 C2790 1.400 . S
C2791 C2792 1.398 . S
C2791 C2797 1.491 . S
C2792 H2783 0.950 . S
C2792 C2791 1.398 . S
C2792 C2793 1.391 . S
C2793 H2781 0.950 . S
C2793 C2789 1.393 . S
C2793 C2792 1.391 . S
C2794 H2784 0.950 . S
C2794 C2795 1.386 . S
C2794 C2796 1.391 . S
C2795 C2794 1.386 . S
C2795 C2799 1.393 . S
C2796 H2785 0.950 . S
C2796 C2794 1.391 . S
C2796 C2797 1.400 . S
C2797 C2791 1.491 . S
C2797 C2796 1.400 . S
C2797 C2798 1.398 . S
C2798 H2786 0.950 . S
C2798 C2797 1.398 . S
C2798 C2799 1.391 . S
C2799 H2787 0.950 . S
C2799 C2795 1.393 . S
C2799 C2798 1.391 . S
H2800 C2808 0.950 . S
H2801 C2813 0.950 . S
H2802 C2810 0.950 . S
H2803 C2812 0.950 . S
H2804 C2814 0.950 . S
H2805 C2816 0.950 . S
H2806 C2818 0.950 . S
H2807 C2819 0.950 . S
C2808 H2800 0.950 . S
C2808 C2809 1.386 . S
C2808 C2810 1.391 . S
C2809 C2808 1.386 . S
C2809 C2813 1.393 . S
C2810 H2802 0.950 . S
C2810 C2808 1.391 . S
C2810 C2811 1.400 . S
C2811 C2810 1.400 . S
C2811 C2812 1.398 . S
C2811 C2817 1.491 . S
C2812 H2803 0.950 . S
C2812 C2811 1.398 . S
C2812 C2813 1.391 . S
C2813 H2801 0.950 . S
C2813 C2809 1.393 . S
C2813 C2812 1.391 . S
C2814 H2804 0.950 . S
C2814 C2815 1.386 . S
C2814 C2816 1.391 . S
C2815 C2814 1.386 . S
C2815 C2819 1.393 . S
C2816 H2805 0.950 . S
C2816 C2814 1.391 . S
C2816 C2817 1.400 . S
C2817 C2811 1.491 . S
C2817 C2816 1.400 . S
C2817 C2818 1.398 . S
C2818 H2806 0.950 . S
C2818 C2817 1.398 . S
C2818 C2819 1.391 . S
C2819 H2807 0.950 . S
C2819 C2815 1.393 . S
C2819 C2818 1.391 . S
H2820 C2828 0.950 . S
H2821 C2833 0.950 . S
H2822 C2830 0.950 . S
H2823 C2832 0.950 . S
H2824 C2834 0.950 . S
H2825 C2836 0.950 . S
H2826 C2838 0.950 . S
H2827 C2839 0.950 . S
C2828 H2820 0.950 . S
C2828 C2829 1.386 . S
C2828 C2830 1.391 1_554 S
C2829 C2828 1.386 . S
C2829 C2833 1.393 1_554 S
C2830 H2822 0.950 . S
C2830 C2828 1.391 1_556 S
C2830 C2831 1.400 . S
C2831 C2830 1.400 . S
C2831 C2832 1.398 . S
C2831 C2837 1.491 . S
C2832 H2823 0.950 . S
C2832 C2831 1.398 . S
C2832 C2833 1.391 . S
C2833 H2821 0.950 . S
C2833 C2829 1.393 1_556 S
C2833 C2832 1.391 . S
C2834 H2824 0.950 . S
C2834 C2835 1.386 . S
C2834 C2836 1.391 . S
C2835 C2834 1.386 . S
C2835 C2839 1.393 . S
C2836 H2825 0.950 . S
C2836 C2834 1.391 . S
C2836 C2837 1.400 . S
C2837 C2831 1.491 . S
C2837 C2836 1.400 . S
C2837 C2838 1.398 . S
C2838 H2826 0.950 . S
C2838 C2837 1.398 . S
C2838 C2839 1.391 . S
C2839 H2827 0.950 . S
C2839 C2835 1.393 . S
C2839 C2838 1.391 . S
H2840 C2848 0.950 . S
H2841 C2853 0.950 . S
H2842 C2850 0.950 . S
H2843 C2852 0.950 . S
H2844 C2854 0.950 . S
H2845 C2856 0.950 . S
H2846 C2858 0.950 . S
H2847 C2859 0.950 . S
C2848 H2840 0.950 . S
C2848 C2849 1.386 . S
C2848 C2850 1.391 . S
C2849 C2848 1.386 . S
C2849 C2853 1.393 . S
C2850 H2842 0.950 . S
C2850 C2848 1.391 . S
C2850 C2851 1.400 . S
C2851 C2850 1.400 . S
C2851 C2852 1.398 . S
C2851 C2857 1.491 . S
C2852 H2843 0.950 . S
C2852 C2851 1.398 . S
C2852 C2853 1.391 . S
C2853 H2841 0.950 . S
C2853 C2849 1.393 . S
C2853 C2852 1.391 . S
C2854 H2844 0.950 . S
C2854 C2855 1.386 . S
C2854 C2856 1.391 . S
C2855 C2854 1.386 . S
C2855 C2859 1.393 . S
C2856 H2845 0.950 . S
C2856 C2854 1.391 . S
C2856 C2857 1.400 . S
C2857 C2851 1.491 . S
C2857 C2856 1.400 . S
C2857 C2858 1.398 . S
C2858 H2846 0.950 . S
C2858 C2857 1.398 . S
C2858 C2859 1.391 . S
C2859 H2847 0.950 . S
C2859 C2855 1.393 . S
C2859 C2858 1.391 . S
H2860 C2868 0.950 . S
H2861 C2873 0.950 . S
H2862 C2870 0.950 . S
H2863 C2872 0.950 . S
H2864 C2874 0.950 . S
H2865 C2876 0.950 . S
H2866 C2878 0.950 . S
H2867 C2879 0.950 . S
C2868 H2860 0.950 . S
C2868 C2869 1.386 . S
C2868 C2870 1.391 . S
C2869 C2868 1.386 . S
C2869 C2873 1.393 . S
C2870 H2862 0.950 . S
C2870 C2868 1.391 . S
C2870 C2871 1.400 . S
C2871 C2870 1.400 . S
C2871 C2872 1.398 . S
C2871 C2877 1.491 . S
C2872 H2863 0.950 . S
C2872 C2871 1.398 . S
C2872 C2873 1.391 . S
C2873 H2861 0.950 . S
C2873 C2869 1.393 . S
C2873 C2872 1.391 . S
C2874 H2864 0.950 . S
C2874 C2875 1.386 . S
C2874 C2876 1.391 . S
C2875 C2874 1.386 . S
C2875 C2879 1.393 . S
C2876 H2865 0.950 . S
C2876 C2874 1.391 . S
C2876 C2877 1.400 . S
C2877 C2871 1.491 . S
C2877 C2876 1.400 . S
C2877 C2878 1.398 . S
C2878 H2866 0.950 . S
C2878 C2877 1.398 . S
C2878 C2879 1.391 . S
C2879 H2867 0.950 . S
C2879 C2875 1.393 . S
C2879 C2878 1.391 . S
H2880 C2888 0.950 . S
H2881 C2893 0.950 . S
H2882 C2890 0.950 . S
H2883 C2892 0.950 . S
H2884 C2894 0.950 . S
H2885 C2896 0.950 . S
H2886 C2898 0.950 . S
H2887 C2899 0.950 . S
C2888 H2880 0.950 . S
C2888 C2889 1.386 . S
C2888 C2890 1.391 . S
C2889 C2888 1.386 . S
C2889 C2893 1.393 . S
C2890 H2882 0.950 . S
C2890 C2888 1.391 . S
C2890 C2891 1.400 . S
C2891 C2890 1.400 . S
C2891 C2892 1.398 . S
C2891 C2897 1.491 . S
C2892 H2883 0.950 . S
C2892 C2891 1.398 . S
C2892 C2893 1.391 . S
C2893 H2881 0.950 . S
C2893 C2889 1.393 . S
C2893 C2892 1.391 . S
C2894 H2884 0.950 . S
C2894 C2895 1.386 . S
C2894 C2896 1.391 . S
C2895 C2894 1.386 . S
C2895 C2899 1.393 . S
C2896 H2885 0.950 . S
C2896 C2894 1.391 . S
C2896 C2897 1.400 . S
C2897 C2891 1.491 . S
C2897 C2896 1.400 . S
C2897 C2898 1.398 . S
C2898 H2886 0.950 . S
C2898 C2897 1.398 . S
C2898 C2899 1.391 . S
C2899 H2887 0.950 . S
C2899 C2895 1.393 . S
C2899 C2898 1.391 . S
H2900 C2908 0.950 . S
H2901 C2913 0.950 . S
H2902 C2910 0.950 . S
H2903 C2912 0.950 . S
H2904 C2914 0.950 . S
H2905 C2916 0.950 . S
H2906 C2918 0.950 . S
H2907 C2919 0.950 . S
C2908 H2900 0.950 . S
C2908 C2909 1.386 . S
C2908 C2910 1.391 . S
C2909 C2908 1.386 . S
C2909 C2913 1.393 . S
C2910 H2902 0.950 . S
C2910 C2908 1.391 . S
C2910 C2911 1.400 . S
C2911 C2910 1.400 . S
C2911 C2912 1.398 . S
C2911 C2917 1.491 . S
C2912 H2903 0.950 . S
C2912 C2911 1.398 . S
C2912 C2913 1.391 . S
C2913 H2901 0.950 . S
C2913 C2909 1.393 . S
C2913 C2912 1.391 . S
C2914 H2904 0.950 . S
C2914 C2915 1.386 . S
C2914 C2916 1.391 . S
C2915 C2914 1.386 . S
C2915 C2919 1.393 . S
C2916 H2905 0.950 . S
C2916 C2914 1.391 . S
C2916 C2917 1.400 . S
C2917 C2911 1.491 . S
C2917 C2916 1.400 . S
C2917 C2918 1.398 . S
C2918 H2906 0.950 . S
C2918 C2917 1.398 . S
C2918 C2919 1.391 . S
C2919 H2907 0.950 . S
C2919 C2915 1.393 . S
C2919 C2918 1.391 . S
H2920 C2928 0.950 . S
H2921 C2933 0.950 . S
H2922 C2930 0.950 . S
H2923 C2932 0.950 . S
H2924 C2934 0.950 . S
H2925 C2936 0.950 . S
H2926 C2938 0.950 . S
H2927 C2939 0.950 . S
C2928 H2920 0.950 . S
C2928 C2929 1.386 . S
C2928 C2930 1.391 . S
C2929 C2928 1.386 . S
C2929 C2933 1.393 . S
C2930 H2922 0.950 . S
C2930 C2928 1.391 . S
C2930 C2931 1.400 . S
C2931 C2930 1.400 . S
C2931 C2932 1.398 . S
C2931 C2937 1.491 . S
C2932 H2923 0.950 . S
C2932 C2931 1.398 . S
C2932 C2933 1.391 . S
C2933 H2921 0.950 . S
C2933 C2929 1.393 . S
C2933 C2932 1.391 . S
C2934 H2924 0.950 . S
C2934 C2935 1.386 . S
C2934 C2936 1.391 . S
C2935 C2934 1.386 . S
C2935 C2939 1.393 . S
C2936 H2925 0.950 . S
C2936 C2934 1.391 . S
C2936 C2937 1.400 . S
C2937 C2931 1.491 . S
C2937 C2936 1.400 . S
C2937 C2938 1.398 . S
C2938 H2926 0.950 . S
C2938 C2937 1.398 . S
C2938 C2939 1.391 . S
C2939 H2927 0.950 . S
C2939 C2935 1.393 . S
C2939 C2938 1.391 . S
H2940 C2948 0.950 . S
H2941 C2953 0.950 . S
H2942 C2950 0.950 . S
H2943 C2952 0.950 . S
H2944 C2954 0.950 . S
H2945 C2956 0.950 . S
H2946 C2958 0.950 . S
H2947 C2959 0.950 . S
C2948 H2940 0.950 . S
C2948 C2949 1.386 . S
C2948 C2950 1.391 . S
C2949 C2948 1.386 . S
C2949 C2953 1.393 . S
C2950 H2942 0.950 . S
C2950 C2948 1.391 . S
C2950 C2951 1.400 . S
C2951 C2950 1.400 . S
C2951 C2952 1.398 . S
C2951 C2957 1.491 . S
C2952 H2943 0.950 . S
C2952 C2951 1.398 . S
C2952 C2953 1.391 . S
C2953 H2941 0.950 . S
C2953 C2949 1.393 . S
C2953 C2952 1.391 . S
C2954 H2944 0.950 . S
C2954 C2955 1.386 . S
C2954 C2956 1.391 . S
C2955 C2954 1.386 . S
C2955 C2959 1.393 . S
C2956 H2945 0.950 . S
C2956 C2954 1.391 . S
C2956 C2957 1.400 . S
C2957 C2951 1.491 . S
C2957 C2956 1.400 . S
C2957 C2958 1.398 . S
C2958 H2946 0.950 . S
C2958 C2957 1.398 . S
C2958 C2959 1.391 . S
C2959 H2947 0.950 . S
C2959 C2955 1.393 . S
C2959 C2958 1.391 . S
H2960 C2968 0.950 . S
H2961 C2973 0.950 . S
H2962 C2970 0.950 . S
H2963 C2972 0.950 . S
H2964 C2974 0.950 . S
H2965 C2976 0.950 . S
H2966 C2978 0.950 . S
H2967 C2979 0.950 . S
C2968 H2960 0.950 . S
C2968 C2969 1.386 . S
C2968 C2970 1.391 . S
C2969 C2968 1.386 . S
C2969 C2973 1.393 . S
C2970 H2962 0.950 . S
C2970 C2968 1.391 . S
C2970 C2971 1.400 . S
C2971 C2970 1.400 . S
C2971 C2972 1.398 . S
C2971 C2977 1.491 . S
C2972 H2963 0.950 . S
C2972 C2971 1.398 . S
C2972 C2973 1.391 . S
C2973 H2961 0.950 . S
C2973 C2969 1.393 . S
C2973 C2972 1.391 . S
C2974 H2964 0.950 . S
C2974 C2975 1.386 . S
C2974 C2976 1.391 . S
C2975 C2974 1.386 . S
C2975 C2979 1.393 . S
C2976 H2965 0.950 . S
C2976 C2974 1.391 . S
C2976 C2977 1.400 . S
C2977 C2971 1.491 . S
C2977 C2976 1.400 . S
C2977 C2978 1.398 . S
C2978 H2966 0.950 . S
C2978 C2977 1.398 . S
C2978 C2979 1.391 . S
C2979 H2967 0.950 . S
C2979 C2975 1.393 . S
C2979 C2978 1.391 . S
H2980 C2988 0.950 . S
H2981 C2993 0.950 . S
H2982 C2990 0.950 . S
H2983 C2992 0.950 . S
H2984 C2994 0.950 . S
H2985 C2996 0.950 . S
H2986 C2998 0.950 . S
H2987 C2999 0.950 . S
C2988 H2980 0.950 . S
C2988 C2989 1.386 . S
C2988 C2990 1.391 . S
C2989 C2988 1.386 . S
C2989 C2993 1.393 . S
C2990 H2982 0.950 . S
C2990 C2988 1.391 . S
C2990 C2991 1.400 . S
C2991 C2990 1.400 . S
C2991 C2992 1.398 . S
C2991 C2997 1.491 . S
C2992 H2983 0.950 . S
C2992 C2991 1.398 . S
C2992 C2993 1.391 . S
C2993 H2981 0.950 . S
C2993 C2989 1.393 . S
C2993 C2992 1.391 . S
C2994 H2984 0.950 . S
C2994 C2995 1.386 . S
C2994 C2996 1.391 . S
C2995 C2994 1.386 . S
C2995 C2999 1.393 . S
C2996 H2985 0.950 . S
C2996 C2994 1.391 . S
C2996 C2997 1.400 . S
C2997 C2991 1.491 . S
C2997 C2996 1.400 . S
C2997 C2998 1.398 . S
C2998 H2986 0.950 . S
C2998 C2997 1.398 . S
C2998 C2999 1.391 . S
C2999 H2987 0.950 . S
C2999 C2995 1.393 . S
C2999 C2998 1.391 . S
H3000 C3008 0.950 . S
H3001 C3013 0.950 . S
H3002 C3010 0.950 . S
H3003 C3012 0.950 . S
H3004 C3014 0.950 . S
H3005 C3016 0.950 . S
H3006 C3018 0.950 . S
H3007 C3019 0.950 . S
C3008 H3000 0.950 . S
C3008 C3009 1.386 . S
C3008 C3010 1.391 . S
C3009 C3008 1.386 . S
C3009 C3013 1.393 . S
C3010 H3002 0.950 . S
C3010 C3008 1.391 . S
C3010 C3011 1.400 . S
C3011 C3010 1.400 . S
C3011 C3012 1.398 . S
C3011 C3017 1.491 . S
C3012 H3003 0.950 . S
C3012 C3011 1.398 . S
C3012 C3013 1.391 . S
C3013 H3001 0.950 . S
C3013 C3009 1.393 . S
C3013 C3012 1.391 . S
C3014 H3004 0.950 . S
C3014 C3015 1.386 . S
C3014 C3016 1.391 . S
C3015 C3014 1.386 . S
C3015 C3019 1.393 . S
C3016 H3005 0.950 . S
C3016 C3014 1.391 . S
C3016 C3017 1.400 . S
C3017 C3011 1.491 . S
C3017 C3016 1.400 . S
C3017 C3018 1.398 . S
C3018 H3006 0.950 . S
C3018 C3017 1.398 . S
C3018 C3019 1.391 . S
C3019 H3007 0.950 . S
C3019 C3015 1.393 . S
C3019 C3018 1.391 . S
H3020 C3028 0.950 . S
H3021 C3033 0.950 . S
H3022 C3030 0.950 . S
H3023 C3032 0.950 . S
H3024 C3034 0.950 . S
H3025 C3036 0.950 . S
H3026 C3038 0.950 . S
H3027 C3039 0.950 . S
C3028 H3020 0.950 . S
C3028 C3029 1.386 . S
C3028 C3030 1.391 . S
C3029 C3028 1.386 . S
C3029 C3033 1.393 1_554 S
C3030 H3022 0.950 . S
C3030 C3028 1.391 . S
C3030 C3031 1.400 . S
C3031 C3030 1.400 . S
C3031 C3032 1.398 1_554 S
C3031 C3037 1.491 . S
C3032 H3023 0.950 . S
C3032 C3031 1.398 1_556 S
C3032 C3033 1.391 . S
C3033 H3021 0.950 . S
C3033 C3029 1.393 1_556 S
C3033 C3032 1.391 . S
C3034 H3024 0.950 . S
C3034 C3035 1.386 1_556 S
C3034 C3036 1.391 1_545 S
C3035 C3034 1.386 1_554 S
C3035 C3039 1.393 . S
C3036 H3025 0.950 . S
C3036 C3034 1.391 1_565 S
C3036 C3037 1.400 1_556 S
C3037 C3031 1.491 . S
C3037 C3036 1.400 1_554 S
C3037 C3038 1.398 . S
C3038 H3026 0.950 . S
C3038 C3037 1.398 . S
C3038 C3039 1.391 1_565 S
C3039 H3027 0.950 . S
C3039 C3035 1.393 . S
C3039 C3038 1.391 1_545 S
H3040 C3048 0.950 . S
H3041 C3053 0.950 . S
H3042 C3050 0.950 . S
H3043 C3052 0.950 . S
H3044 C3054 0.950 . S
H3045 C3056 0.950 . S
H3046 C3058 0.950 . S
H3047 C3059 0.950 . S
C3048 H3040 0.950 . S
C3048 C3049 1.386 . S
C3048 C3050 1.391 . S
C3049 C3048 1.386 . S
C3049 C3053 1.393 . S
C3050 H3042 0.950 . S
C3050 C3048 1.391 . S
C3050 C3051 1.400 . S
C3051 C3050 1.400 . S
C3051 C3052 1.398 . S
C3051 C3057 1.491 . S
C3052 H3043 0.950 . S
C3052 C3051 1.398 . S
C3052 C3053 1.391 . S
C3053 H3041 0.950 . S
C3053 C3049 1.393 . S
C3053 C3052 1.391 . S
C3054 H3044 0.950 . S
C3054 C3055 1.386 . S
C3054 C3056 1.391 . S
C3055 C3054 1.386 . S
C3055 C3059 1.393 . S
C3056 H3045 0.950 . S
C3056 C3054 1.391 . S
C3056 C3057 1.400 . S
C3057 C3051 1.491 . S
C3057 C3056 1.400 . S
C3057 C3058 1.398 . S
C3058 H3046 0.950 . S
C3058 C3057 1.398 . S
C3058 C3059 1.391 . S
C3059 H3047 0.950 . S
C3059 C3055 1.393 . S
C3059 C3058 1.391 . S
H3060 C3068 0.950 . S
H3061 C3073 0.964 . S
H3062 C3070 0.950 . S
H3063 C3072 0.950 . S
H3064 C3074 0.950 . S
H3065 C3076 0.950 . S
H3066 C3078 0.950 . S
H3067 C3079 0.950 . S
C3068 H3060 0.950 . S
C3068 C3069 1.386 . S
C3068 C3070 1.391 . S
C3069 C3068 1.386 . S
C3069 C3073 1.393 . S
C3070 H3062 0.950 . S
C3070 C3068 1.391 . S
C3070 C3071 1.400 . S
C3071 C3070 1.400 . S
C3071 C3072 1.398 . S
C3071 C3077 1.491 . S
C3072 H3063 0.950 . S
C3072 C3071 1.398 . S
C3072 C3073 1.391 . S
C3073 H3061 0.964 . S
C3073 C3069 1.393 . S
C3073 C3072 1.391 . S
C3074 H3064 0.950 . S
C3074 C3075 1.386 . S
C3074 C3076 1.391 . S
C3075 C3074 1.386 . S
C3075 C3079 1.393 . S
C3076 H3065 0.950 . S
C3076 C3074 1.391 . S
C3076 C3077 1.400 . S
C3077 C3071 1.491 . S
C3077 C3076 1.400 . S
C3077 C3078 1.398 . S
C3078 H3066 0.950 . S
C3078 C3077 1.398 . S
C3078 C3079 1.391 . S
C3079 H3067 0.950 . S
C3079 C3075 1.393 . S
C3079 C3078 1.391 . S
H3080 C3088 0.950 . S
H3081 C3093 0.950 . S
H3082 C3090 0.950 . S
H3083 C3092 0.950 . S
H3084 C3094 0.950 . S
H3085 C3096 0.950 . S
H3086 C3098 0.950 . S
H3087 C3099 0.950 . S
C3088 H3080 0.950 . S
C3088 C3089 1.386 . S
C3088 C3090 1.391 . S
C3089 C3088 1.386 . S
C3089 C3093 1.393 . S
C3090 H3082 0.950 . S
C3090 C3088 1.391 . S
C3090 C3091 1.400 . S
C3091 C3090 1.400 . S
C3091 C3092 1.398 . S
C3091 C3097 1.491 . S
C3092 H3083 0.950 . S
C3092 C3091 1.398 . S
C3092 C3093 1.391 . S
C3093 H3081 0.950 . S
C3093 C3089 1.393 . S
C3093 C3092 1.391 . S
C3094 H3084 0.950 . S
C3094 C3095 1.386 . S
C3094 C3096 1.391 . S
C3095 C3094 1.386 . S
C3095 C3099 1.393 . S
C3096 H3085 0.950 . S
C3096 C3094 1.391 . S
C3096 C3097 1.400 . S
C3097 C3091 1.491 . S
C3097 C3096 1.400 . S
C3097 C3098 1.398 . S
C3098 H3086 0.950 . S
C3098 C3097 1.398 . S
C3098 C3099 1.391 . S
C3099 H3087 0.950 . S
C3099 C3095 1.393 . S
C3099 C3098 1.391 . S
H3100 C3108 0.950 . S
H3101 C3113 0.950 . S
H3102 C3110 0.950 . S
H3103 C3112 0.950 . S
H3104 C3114 0.950 . S
H3105 C3116 0.950 . S
H3106 C3118 0.950 . S
H3107 C3119 0.950 . S
C3108 H3100 0.950 . S
C3108 C3109 1.386 . S
C3108 C3110 1.391 . S
C3109 C3108 1.386 . S
C3109 C3113 1.393 . S
C3110 H3102 0.950 . S
C3110 C3108 1.391 . S
C3110 C3111 1.400 . S
C3111 C3110 1.400 . S
C3111 C3112 1.398 . S
C3111 C3117 1.491 . S
C3112 H3103 0.950 . S
C3112 C3111 1.398 . S
C3112 C3113 1.391 . S
C3113 H3101 0.950 . S
C3113 C3109 1.393 . S
C3113 C3112 1.391 . S
C3114 H3104 0.950 . S
C3114 C3115 1.386 . S
C3114 C3116 1.391 . S
C3115 C3114 1.386 . S
C3115 C3119 1.393 . S
C3116 H3105 0.950 . S
C3116 C3114 1.391 . S
C3116 C3117 1.400 . S
C3117 C3111 1.491 . S
C3117 C3116 1.400 . S
C3117 C3118 1.398 . S
C3118 H3106 0.950 . S
C3118 C3117 1.398 . S
C3118 C3119 1.391 . S
C3119 H3107 0.950 . S
C3119 C3115 1.393 . S
C3119 C3118 1.391 . S
H3120 C3128 0.950 . S
H3121 C3133 0.950 . S
H3122 C3130 0.950 . S
H3123 C3132 0.950 . S
H3124 C3134 0.950 . S
H3125 C3136 0.950 . S
H3126 C3138 0.950 . S
H3127 C3139 0.950 . S
C3128 H3120 0.950 . S
C3128 C3129 1.386 . S
C3128 C3130 1.391 . S
C3129 C3128 1.386 . S
C3129 C3133 1.393 . S
C3130 H3122 0.950 . S
C3130 C3128 1.391 . S
C3130 C3131 1.400 . S
C3131 C3130 1.400 . S
C3131 C3132 1.398 . S
C3131 C3137 1.491 . S
C3132 H3123 0.950 . S
C3132 C3131 1.398 . S
C3132 C3133 1.391 . S
C3133 H3121 0.950 . S
C3133 C3129 1.393 . S
C3133 C3132 1.391 . S
C3134 H3124 0.950 . S
C3134 C3135 1.386 . S
C3134 C3136 1.391 . S
C3135 C3134 1.386 . S
C3135 C3139 1.393 . S
C3136 H3125 0.950 . S
C3136 C3134 1.391 . S
C3136 C3137 1.400 . S
C3137 C3131 1.491 . S
C3137 C3136 1.400 . S
C3137 C3138 1.398 . S
C3138 H3126 0.950 . S
C3138 C3137 1.398 . S
C3138 C3139 1.391 . S
C3139 H3127 0.950 . S
C3139 C3135 1.393 . S
C3139 C3138 1.391 . S
H3140 C3148 0.950 . S
H3141 C3153 0.950 . S
H3142 C3150 0.950 . S
H3143 C3152 0.950 . S
H3144 C3154 0.950 . S
H3145 C3156 0.950 . S
H3146 C3158 0.950 . S
H3147 C3159 0.950 . S
C3148 H3140 0.950 . S
C3148 C3149 1.386 . S
C3148 C3150 1.391 . S
C3149 C3148 1.386 . S
C3149 C3153 1.393 . S
C3150 H3142 0.950 . S
C3150 C3148 1.391 . S
C3150 C3151 1.400 . S
C3151 C3150 1.400 . S
C3151 C3152 1.398 . S
C3151 C3157 1.491 . S
C3152 H3143 0.950 . S
C3152 C3151 1.398 . S
C3152 C3153 1.391 . S
C3153 H3141 0.950 . S
C3153 C3149 1.393 . S
C3153 C3152 1.391 . S
C3154 H3144 0.950 . S
C3154 C3155 1.386 . S
C3154 C3156 1.391 . S
C3155 C3154 1.386 . S
C3155 C3159 1.393 . S
C3156 H3145 0.950 . S
C3156 C3154 1.391 . S
C3156 C3157 1.400 . S
C3157 C3151 1.491 . S
C3157 C3156 1.400 . S
C3157 C3158 1.398 . S
C3158 H3146 0.950 . S
C3158 C3157 1.398 . S
C3158 C3159 1.391 . S
C3159 H3147 0.950 . S
C3159 C3155 1.393 . S
C3159 C3158 1.391 . S
H3160 C3168 0.950 . S
H3161 C3173 0.950 . S
H3162 C3170 0.950 . S
H3163 C3172 0.950 . S
H3164 C3174 0.950 . S
H3165 C3176 0.950 . S
H3166 C3178 0.950 . S
H3167 C3179 0.950 . S
C3168 H3160 0.950 . S
C3168 C3169 1.386 . S
C3168 C3170 1.391 . S
C3169 C3168 1.386 . S
C3169 C3173 1.393 . S
C3170 H3162 0.950 . S
C3170 C3168 1.391 . S
C3170 C3171 1.400 . S
C3171 C3170 1.400 . S
C3171 C3172 1.398 . S
C3171 C3177 1.491 . S
C3172 H3163 0.950 . S
C3172 C3171 1.398 . S
C3172 C3173 1.391 . S
C3173 H3161 0.950 . S
C3173 C3169 1.393 . S
C3173 C3172 1.391 . S
C3174 H3164 0.950 . S
C3174 C3175 1.386 . S
C3174 C3176 1.391 . S
C3175 C3174 1.386 . S
C3175 C3179 1.393 . S
C3176 H3165 0.950 . S
C3176 C3174 1.391 . S
C3176 C3177 1.400 . S
C3177 C3171 1.491 . S
C3177 C3176 1.400 . S
C3177 C3178 1.398 . S
C3178 H3166 0.950 . S
C3178 C3177 1.398 . S
C3178 C3179 1.391 . S
C3179 H3167 0.950 . S
C3179 C3175 1.393 . S
C3179 C3178 1.391 . S
H3180 C3188 0.950 . S
H3181 C3193 0.950 . S
H3182 C3190 0.950 . S
H3183 C3192 0.950 . S
H3184 C3194 0.950 . S
H3185 C3196 0.950 . S
H3186 C3198 0.950 . S
H3187 C3199 0.950 . S
C3188 H3180 0.950 . S
C3188 C3189 1.386 . S
C3188 C3190 1.391 . S
C3189 C3188 1.386 . S
C3189 C3193 1.393 . S
C3190 H3182 0.950 . S
C3190 C3188 1.391 . S
C3190 C3191 1.400 . S
C3191 C3190 1.400 . S
C3191 C3192 1.398 . S
C3191 C3197 1.491 . S
C3192 H3183 0.950 . S
C3192 C3191 1.398 . S
C3192 C3193 1.391 . S
C3193 H3181 0.950 . S
C3193 C3189 1.393 . S
C3193 C3192 1.391 . S
C3194 H3184 0.950 . S
C3194 C3195 1.386 . S
C3194 C3196 1.391 . S
C3195 C3194 1.386 . S
C3195 C3199 1.393 . S
C3196 H3185 0.950 . S
C3196 C3194 1.391 . S
C3196 C3197 1.400 . S
C3197 C3191 1.491 . S
C3197 C3196 1.400 . S
C3197 C3198 1.398 . S
C3198 H3186 0.950 . S
C3198 C3197 1.398 . S
C3198 C3199 1.391 . S
C3199 H3187 0.950 . S
C3199 C3195 1.393 . S
C3199 C3198 1.391 . S
H3200 C3208 0.950 . S
H3201 C3213 0.950 . S
H3202 C3210 0.950 . S
H3203 C3212 0.950 . S
H3204 C3214 0.950 . S
H3205 C3216 0.950 . S
H3206 C3218 0.950 . S
H3207 C3219 0.950 . S
C3208 H3200 0.950 . S
C3208 C3209 1.386 . S
C3208 C3210 1.391 . S
C3209 C3208 1.386 . S
C3209 C3213 1.393 . S
C3210 H3202 0.950 . S
C3210 C3208 1.391 . S
C3210 C3211 1.400 . S
C3211 C3210 1.400 . S
C3211 C3212 1.398 . S
C3211 C3217 1.491 . S
C3212 H3203 0.950 . S
C3212 C3211 1.398 . S
C3212 C3213 1.391 . S
C3213 H3201 0.950 . S
C3213 C3209 1.393 . S
C3213 C3212 1.391 . S
C3214 H3204 0.950 . S
C3214 C3215 1.386 . S
C3214 C3216 1.391 . S
C3215 C3214 1.386 . S
C3215 C3219 1.393 . S
C3216 H3205 0.950 . S
C3216 C3214 1.391 . S
C3216 C3217 1.400 . S
C3217 C3211 1.491 . S
C3217 C3216 1.400 . S
C3217 C3218 1.398 . S
C3218 H3206 0.950 . S
C3218 C3217 1.398 . S
C3218 C3219 1.391 . S
C3219 H3207 0.950 . S
C3219 C3215 1.393 . S
C3219 C3218 1.391 . S
H3220 C3228 0.950 . S
H3221 C3233 0.950 . S
H3222 C3230 0.950 . S
H3223 C3232 0.950 . S
H3224 C3234 0.950 . S
H3225 C3236 0.950 . S
H3226 C3238 0.950 . S
H3227 C3239 0.950 . S
C3228 H3220 0.950 . S
C3228 C3229 1.386 . S
C3228 C3230 1.391 . S
C3229 C3228 1.386 . S
C3229 C3233 1.393 . S
C3230 H3222 0.950 . S
C3230 C3228 1.391 . S
C3230 C3231 1.400 . S
C3231 C3230 1.400 . S
C3231 C3232 1.398 . S
C3231 C3237 1.491 . S
C3232 H3223 0.950 . S
C3232 C3231 1.398 . S
C3232 C3233 1.391 . S
C3233 H3221 0.950 . S
C3233 C3229 1.393 . S
C3233 C3232 1.391 . S
C3234 H3224 0.950 . S
C3234 C3235 1.386 . S
C3234 C3236 1.391 . S
C3235 C3234 1.386 . S
C3235 C3239 1.393 . S
C3236 H3225 0.950 . S
C3236 C3234 1.391 . S
C3236 C3237 1.400 . S
C3237 C3231 1.491 . S
C3237 C3236 1.400 . S
C3237 C3238 1.398 . S
C3238 H3226 0.950 . S
C3238 C3237 1.398 . S
C3238 C3239 1.391 . S
C3239 H3227 0.950 . S
C3239 C3235 1.393 . S
C3239 C3238 1.391 . S
H3240 C3248 0.950 . S
H3241 C3253 0.950 . S
H3242 C3250 0.950 . S
H3243 C3252 0.950 . S
H3244 C3254 0.950 . S
H3245 C3256 0.950 . S
H3246 C3258 0.950 . S
H3247 C3259 0.950 . S
C3248 H3240 0.950 . S
C3248 C3249 1.386 . S
C3248 C3250 1.391 . S
C3249 C3248 1.386 . S
C3249 C3253 1.393 . S
C3250 H3242 0.950 . S
C3250 C3248 1.391 . S
C3250 C3251 1.400 . S
C3251 C3250 1.400 . S
C3251 C3252 1.398 . S
C3251 C3257 1.491 . S
C3252 H3243 0.950 . S
C3252 C3251 1.398 . S
C3252 C3253 1.391 . S
C3253 H3241 0.950 . S
C3253 C3249 1.393 . S
C3253 C3252 1.391 . S
C3254 H3244 0.950 . S
C3254 C3255 1.386 . S
C3254 C3256 1.391 . S
C3255 C3254 1.386 . S
C3255 C3259 1.393 . S
C3256 H3245 0.950 . S
C3256 C3254 1.391 . S
C3256 C3257 1.400 . S
C3257 C3251 1.491 . S
C3257 C3256 1.400 . S
C3257 C3258 1.398 . S
C3258 H3246 0.950 . S
C3258 C3257 1.398 . S
C3258 C3259 1.391 . S
C3259 H3247 0.950 . S
C3259 C3255 1.393 . S
C3259 C3258 1.391 . S
H3260 C3268 0.950 . S
H3261 C3273 0.950 . S
H3262 C3270 0.950 . S
H3263 C3272 0.950 . S
H3264 C3274 0.950 . S
H3265 C3276 0.950 . S
H3266 C3278 0.950 . S
H3267 C3279 0.950 . S
C3268 H3260 0.950 . S
C3268 C3269 1.386 . S
C3268 C3270 1.391 . S
C3269 C3268 1.386 . S
C3269 C3273 1.393 . S
C3270 H3262 0.950 . S
C3270 C3268 1.391 . S
C3270 C3271 1.400 . S
C3271 C3270 1.400 . S
C3271 C3272 1.398 . S
C3271 C3277 1.491 . S
C3272 H3263 0.950 . S
C3272 C3271 1.398 . S
C3272 C3273 1.391 . S
C3273 H3261 0.950 . S
C3273 C3269 1.393 . S
C3273 C3272 1.391 . S
C3274 H3264 0.950 . S
C3274 C3275 1.386 . S
C3274 C3276 1.391 . S
C3275 C3274 1.386 . S
C3275 C3279 1.393 . S
C3276 H3265 0.950 . S
C3276 C3274 1.391 . S
C3276 C3277 1.400 . S
C3277 C3271 1.491 . S
C3277 C3276 1.400 . S
C3277 C3278 1.398 . S
C3278 H3266 0.950 . S
C3278 C3277 1.398 . S
C3278 C3279 1.391 . S
C3279 H3267 0.950 . S
C3279 C3275 1.393 . S
C3279 C3278 1.391 . S
H3280 C3288 0.950 . S
H3281 C3293 0.950 . S
H3282 C3290 0.950 . S
H3283 C3292 0.950 . S
H3284 C3294 0.950 . S
H3285 C3296 0.950 . S
H3286 C3298 0.950 . S
H3287 C3299 0.950 . S
C3288 H3280 0.950 . S
C3288 C3289 1.386 . S
C3288 C3290 1.391 . S
C3289 C3288 1.386 . S
C3289 C3293 1.393 . S
C3290 H3282 0.950 . S
C3290 C3288 1.391 . S
C3290 C3291 1.400 . S
C3291 C3290 1.400 . S
C3291 C3292 1.398 . S
C3291 C3297 1.491 . S
C3292 H3283 0.950 . S
C3292 C3291 1.398 . S
C3292 C3293 1.391 . S
C3293 H3281 0.950 . S
C3293 C3289 1.393 . S
C3293 C3292 1.391 . S
C3294 H3284 0.950 . S
C3294 C3295 1.386 . S
C3294 C3296 1.391 . S
C3295 C3294 1.386 . S
C3295 C3299 1.393 . S
C3296 H3285 0.950 . S
C3296 C3294 1.391 . S
C3296 C3297 1.400 . S
C3297 C3291 1.491 . S
C3297 C3296 1.400 . S
C3297 C3298 1.398 . S
C3298 H3286 0.950 . S
C3298 C3297 1.398 . S
C3298 C3299 1.391 . S
C3299 H3287 0.950 . S
C3299 C3295 1.393 . S
C3299 C3298 1.391 . S
H3300 C3308 0.950 . S
H3301 C3313 0.950 . S
H3302 C3310 0.950 . S
H3303 C3312 0.950 . S
H3304 C3314 0.950 . S
H3305 C3316 0.950 . S
H3306 C3318 0.950 . S
H3307 C3319 0.950 . S
C3308 H3300 0.950 . S
C3308 C3309 1.386 . S
C3308 C3310 1.391 . S
C3309 C3308 1.386 . S
C3309 C3313 1.393 . S
C3310 H3302 0.950 . S
C3310 C3308 1.391 . S
C3310 C3311 1.400 . S
C3311 C3310 1.400 . S
C3311 C3312 1.398 . S
C3311 C3317 1.491 . S
C3312 H3303 0.950 . S
C3312 C3311 1.398 . S
C3312 C3313 1.391 . S
C3313 H3301 0.950 . S
C3313 C3309 1.393 . S
C3313 C3312 1.391 . S
C3314 H3304 0.950 . S
C3314 C3315 1.386 . S
C3314 C3316 1.391 . S
C3315 C3314 1.386 . S
C3315 C3319 1.393 . S
C3316 H3305 0.950 . S
C3316 C3314 1.391 . S
C3316 C3317 1.400 . S
C3317 C3311 1.491 . S
C3317 C3316 1.400 . S
C3317 C3318 1.398 . S
C3318 H3306 0.950 . S
C3318 C3317 1.398 . S
C3318 C3319 1.391 . S
C3319 H3307 0.950 . S
C3319 C3315 1.393 . S
C3319 C3318 1.391 . S
H3320 C3328 0.950 . S
H3321 C3333 0.950 . S
H3322 C3330 0.950 . S
H3323 C3332 0.950 . S
H3324 C3334 0.950 . S
H3325 C3336 0.950 . S
H3326 C3338 0.950 . S
H3327 C3339 0.950 . S
C3328 H3320 0.950 . S
C3328 C3329 1.386 . S
C3328 C3330 1.391 . S
C3329 C3328 1.386 . S
C3329 C3333 1.393 . S
C3330 H3322 0.950 . S
C3330 C3328 1.391 . S
C3330 C3331 1.400 . S
C3331 C3330 1.400 . S
C3331 C3332 1.398 . S
C3331 C3337 1.491 . S
C3332 H3323 0.950 . S
C3332 C3331 1.398 . S
C3332 C3333 1.391 . S
C3333 H3321 0.950 . S
C3333 C3329 1.393 . S
C3333 C3332 1.391 . S
C3334 H3324 0.950 . S
C3334 C3335 1.386 . S
C3334 C3336 1.391 . S
C3335 C3334 1.386 . S
C3335 C3339 1.393 . S
C3336 H3325 0.950 . S
C3336 C3334 1.391 . S
C3336 C3337 1.400 . S
C3337 C3331 1.491 . S
C3337 C3336 1.400 . S
C3337 C3338 1.398 . S
C3338 H3326 0.950 . S
C3338 C3337 1.398 . S
C3338 C3339 1.391 . S
C3339 H3327 0.950 . S
C3339 C3335 1.393 . S
C3339 C3338 1.391 . S
H3340 C3348 0.950 . S
H3341 C3353 0.950 . S
H3342 C3350 0.950 . S
H3343 C3352 0.950 . S
H3344 C3354 0.950 . S
H3345 C3356 0.950 . S
H3346 C3358 0.950 . S
H3347 C3359 0.950 . S
C3348 H3340 0.950 . S
C3348 C3349 1.386 . S
C3348 C3350 1.391 . S
C3349 C3348 1.386 . S
C3349 C3353 1.393 . S
C3350 H3342 0.950 . S
C3350 C3348 1.391 . S
C3350 C3351 1.400 . S
C3351 C3350 1.400 . S
C3351 C3352 1.398 . S
C3351 C3357 1.491 . S
C3352 H3343 0.950 . S
C3352 C3351 1.398 . S
C3352 C3353 1.391 . S
C3353 H3341 0.950 . S
C3353 C3349 1.393 . S
C3353 C3352 1.391 . S
C3354 H3344 0.950 . S
C3354 C3355 1.386 . S
C3354 C3356 1.391 . S
C3355 C3354 1.386 . S
C3355 C3359 1.393 . S
C3356 H3345 0.950 . S
C3356 C3354 1.391 . S
C3356 C3357 1.400 . S
C3357 C3351 1.491 . S
C3357 C3356 1.400 . S
C3357 C3358 1.398 . S
C3358 H3346 0.950 . S
C3358 C3357 1.398 . S
C3358 C3359 1.391 . S
C3359 H3347 0.950 . S
C3359 C3355 1.393 . S
C3359 C3358 1.391 . S
H3360 C3368 0.950 . S
H3361 C3373 0.950 . S
H3362 C3370 0.950 . S
H3363 C3372 0.950 . S
H3364 C3374 0.950 . S
H3365 C3376 0.950 . S
H3366 C3378 0.950 . S
H3367 C3379 0.950 . S
C3368 H3360 0.950 . S
C3368 C3369 1.386 . S
C3368 C3370 1.391 . S
C3369 C3368 1.386 . S
C3369 C3373 1.393 . S
C3370 H3362 0.950 . S
C3370 C3368 1.391 . S
C3370 C3371 1.400 . S
C3371 C3370 1.400 . S
C3371 C3372 1.398 . S
C3371 C3377 1.491 . S
C3372 H3363 0.950 . S
C3372 C3371 1.398 . S
C3372 C3373 1.391 . S
C3373 H3361 0.950 . S
C3373 C3369 1.393 . S
C3373 C3372 1.391 . S
C3374 H3364 0.950 . S
C3374 C3375 1.386 . S
C3374 C3376 1.391 . S
C3375 C3374 1.386 . S
C3375 C3379 1.393 . S
C3376 H3365 0.950 . S
C3376 C3374 1.391 . S
C3376 C3377 1.400 . S
C3377 C3371 1.491 . S
C3377 C3376 1.400 . S
C3377 C3378 1.398 . S
C3378 H3366 0.950 . S
C3378 C3377 1.398 . S
C3378 C3379 1.391 . S
C3379 H3367 0.950 . S
C3379 C3375 1.393 . S
C3379 C3378 1.391 . S
H3380 C3388 0.950 . S
H3381 C3393 0.950 . S
H3382 C3390 0.950 . S
H3383 C3392 0.950 . S
H3384 C3394 0.950 . S
H3385 C3396 0.950 . S
H3386 C3398 0.950 . S
H3387 C3399 0.950 . S
C3388 H3380 0.950 . S
C3388 C3389 1.386 . S
C3388 C3390 1.391 . S
C3389 C3388 1.386 . S
C3389 C3393 1.393 . S
C3390 H3382 0.950 . S
C3390 C3388 1.391 . S
C3390 C3391 1.400 . S
C3391 C3390 1.400 . S
C3391 C3392 1.398 . S
C3391 C3397 1.491 . S
C3392 H3383 0.950 . S
C3392 C3391 1.398 . S
C3392 C3393 1.391 . S
C3393 H3381 0.950 . S
C3393 C3389 1.393 . S
C3393 C3392 1.391 . S
C3394 H3384 0.950 . S
C3394 C3395 1.386 . S
C3394 C3396 1.391 . S
C3395 C3394 1.386 . S
C3395 C3399 1.393 . S
C3396 H3385 0.950 . S
C3396 C3394 1.391 . S
C3396 C3397 1.400 . S
C3397 C3391 1.491 . S
C3397 C3396 1.400 . S
C3397 C3398 1.398 . S
C3398 H3386 0.950 . S
C3398 C3397 1.398 . S
C3398 C3399 1.391 . S
C3399 H3387 0.950 . S
C3399 C3395 1.393 . S
C3399 C3398 1.391 . S
H3400 C3408 0.950 . S
H3401 C3413 0.950 . S
H3402 C3410 0.950 . S
H3403 C3412 0.950 . S
H3404 C3414 0.950 . S
H3405 C3416 0.950 . S
H3406 C3418 0.950 . S
H3407 C3419 0.950 . S
C3408 H3400 0.950 . S
C3408 C3409 1.386 . S
C3408 C3410 1.391 . S
C3409 C3408 1.386 . S
C3409 C3413 1.393 . S
C3410 H3402 0.950 . S
C3410 C3408 1.391 . S
C3410 C3411 1.400 . S
C3411 C3410 1.400 . S
C3411 C3412 1.398 . S
C3411 C3417 1.491 . S
C3412 H3403 0.950 . S
C3412 C3411 1.398 . S
C3412 C3413 1.391 . S
C3413 H3401 0.950 . S
C3413 C3409 1.393 . S
C3413 C3412 1.391 . S
C3414 H3404 0.950 . S
C3414 C3415 1.386 . S
C3414 C3416 1.391 . S
C3415 C3414 1.386 . S
C3415 C3419 1.393 . S
C3416 H3405 0.950 . S
C3416 C3414 1.391 . S
C3416 C3417 1.400 . S
C3417 C3411 1.491 . S
C3417 C3416 1.400 . S
C3417 C3418 1.398 . S
C3418 H3406 0.950 . S
C3418 C3417 1.398 . S
C3418 C3419 1.391 . S
C3419 H3407 0.950 . S
C3419 C3415 1.393 . S
C3419 C3418 1.391 . S
H3420 C3428 0.950 . S
H3421 C3433 0.950 . S
H3422 C3430 0.950 . S
H3423 C3432 0.950 . S
H3424 C3434 0.950 . S
H3425 C3436 0.950 . S
H3426 C3438 0.950 . S
H3427 C3439 0.950 . S
C3428 H3420 0.950 . S
C3428 C3429 1.386 . S
C3428 C3430 1.391 . S
C3429 C3428 1.386 . S
C3429 C3433 1.393 . S
C3430 H3422 0.950 . S
C3430 C3428 1.391 . S
C3430 C3431 1.400 . S
C3431 C3430 1.400 . S
C3431 C3432 1.398 . S
C3431 C3437 1.491 . S
C3432 H3423 0.950 . S
C3432 C3431 1.398 . S
C3432 C3433 1.391 . S
C3433 H3421 0.950 . S
C3433 C3429 1.393 . S
C3433 C3432 1.391 . S
C3434 H3424 0.950 . S
C3434 C3435 1.386 . S
C3434 C3436 1.391 . S
C3435 C3434 1.386 . S
C3435 C3439 1.393 . S
C3436 H3425 0.950 . S
C3436 C3434 1.391 . S
C3436 C3437 1.400 . S
C3437 C3431 1.491 . S
C3437 C3436 1.400 . S
C3437 C3438 1.398 . S
C3438 H3426 0.950 . S
C3438 C3437 1.398 . S
C3438 C3439 1.391 . S
C3439 H3427 0.950 . S
C3439 C3435 1.393 . S
C3439 C3438 1.391 . S
H3440 C3448 0.950 . S
H3441 C3453 0.950 . S
H3442 C3450 0.950 . S
H3443 C3452 0.950 . S
H3444 C3454 0.950 . S
H3445 C3456 0.950 . S
H3446 C3458 0.950 . S
H3447 C3459 0.950 . S
C3448 H3440 0.950 . S
C3448 C3449 1.386 . S
C3448 C3450 1.391 . S
C3449 C3448 1.386 . S
C3449 C3453 1.393 . S
C3450 H3442 0.950 . S
C3450 C3448 1.391 . S
C3450 C3451 1.400 . S
C3451 C3450 1.400 . S
C3451 C3452 1.398 . S
C3451 C3457 1.491 . S
C3452 H3443 0.950 . S
C3452 C3451 1.398 . S
C3452 C3453 1.391 . S
C3453 H3441 0.950 . S
C3453 C3449 1.393 . S
C3453 C3452 1.391 . S
C3454 H3444 0.950 . S
C3454 C3455 1.386 . S
C3454 C3456 1.391 . S
C3455 C3454 1.386 . S
C3455 C3459 1.393 . S
C3456 H3445 0.950 . S
C3456 C3454 1.391 . S
C3456 C3457 1.400 . S
C3457 C3451 1.491 . S
C3457 C3456 1.400 . S
C3457 C3458 1.398 . S
C3458 H3446 0.950 . S
C3458 C3457 1.398 . S
C3458 C3459 1.391 . S
C3459 H3447 0.950 . S
C3459 C3455 1.393 . S
C3459 C3458 1.391 . S
H3460 C3468 0.950 . S
H3461 C3473 0.950 . S
H3462 C3470 0.950 . S
H3463 C3472 0.950 . S
H3464 C3474 0.950 . S
H3465 C3476 0.950 . S
H3466 C3478 0.950 . S
H3467 C3479 0.950 . S
C3468 H3460 0.950 . S
C3468 C3469 1.386 . S
C3468 C3470 1.391 . S
C3469 C3468 1.386 . S
C3469 C3473 1.393 . S
C3470 H3462 0.950 . S
C3470 C3468 1.391 . S
C3470 C3471 1.400 . S
C3471 C3470 1.400 . S
C3471 C3472 1.398 . S
C3471 C3477 1.491 . S
C3472 H3463 0.950 . S
C3472 C3471 1.398 . S
C3472 C3473 1.391 . S
C3473 H3461 0.950 . S
C3473 C3469 1.393 . S
C3473 C3472 1.391 . S
C3474 H3464 0.950 . S
C3474 C3475 1.386 . S
C3474 C3476 1.391 . S
C3475 C3474 1.386 . S
C3475 C3479 1.393 . S
C3476 H3465 0.950 . S
C3476 C3474 1.391 . S
C3476 C3477 1.400 . S
C3477 C3471 1.491 . S
C3477 C3476 1.400 . S
C3477 C3478 1.398 . S
C3478 H3466 0.950 . S
C3478 C3477 1.398 . S
C3478 C3479 1.391 . S
C3479 H3467 0.950 . S
C3479 C3475 1.393 . S
C3479 C3478 1.391 . S
H3480 C3488 0.950 . S
H3481 C3493 0.950 . S
H3482 C3490 0.950 . S
H3483 C3492 0.950 . S
H3484 C3494 0.950 . S
H3485 C3496 0.950 . S
H3486 C3498 0.950 . S
H3487 C3499 0.950 . S
C3488 H3480 0.950 . S
C3488 C3489 1.386 . S
C3488 C3490 1.391 . S
C3489 C3488 1.386 . S
C3489 C3493 1.393 . S
C3490 H3482 0.950 . S
C3490 C3488 1.391 . S
C3490 C3491 1.400 . S
C3491 C3490 1.400 . S
C3491 C3492 1.398 . S
C3491 C3497 1.491 . S
C3492 H3483 0.950 . S
C3492 C3491 1.398 . S
C3492 C3493 1.391 . S
C3493 H3481 0.950 . S
C3493 C3489 1.393 . S
C3493 C3492 1.391 . S
C3494 H3484 0.950 . S
C3494 C3495 1.386 . S
C3494 C3496 1.391 . S
C3495 C3494 1.386 . S
C3495 C3499 1.393 . S
C3496 H3485 0.950 . S
C3496 C3494 1.391 . S
C3496 C3497 1.400 . S
C3497 C3491 1.491 . S
C3497 C3496 1.400 . S
C3497 C3498 1.398 . S
C3498 H3486 0.950 . S
C3498 C3497 1.398 . S
C3498 C3499 1.391 . S
C3499 H3487 0.950 . S
C3499 C3495 1.393 . S
C3499 C3498 1.391 . S
H3500 C3508 0.950 . S
H3501 C3513 0.950 . S
H3502 C3510 0.950 . S
H3503 C3512 0.950 . S
H3504 C3514 0.950 . S
H3505 C3516 0.950 . S
H3506 C3518 0.950 . S
H3507 C3519 0.950 . S
C3508 H3500 0.950 . S
C3508 C3509 1.386 . S
C3508 C3510 1.391 . S
C3509 C3508 1.386 . S
C3509 C3513 1.393 . S
C3510 H3502 0.950 . S
C3510 C3508 1.391 . S
C3510 C3511 1.400 . S
C3511 C3510 1.400 . S
C3511 C3512 1.398 . S
C3511 C3517 1.491 . S
C3512 H3503 0.950 . S
C3512 C3511 1.398 . S
C3512 C3513 1.391 . S
C3513 H3501 0.950 . S
C3513 C3509 1.393 . S
C3513 C3512 1.391 . S
C3514 H3504 0.950 . S
C3514 C3515 1.386 . S
C3514 C3516 1.391 . S
C3515 C3514 1.386 . S
C3515 C3519 1.393 . S
C3516 H3505 0.950 . S
C3516 C3514 1.391 . S
C3516 C3517 1.400 . S
C3517 C3511 1.491 . S
C3517 C3516 1.400 . S
C3517 C3518 1.398 . S
C3518 H3506 0.950 . S
C3518 C3517 1.398 . S
C3518 C3519 1.391 . S
C3519 H3507 0.950 . S
C3519 C3515 1.393 . S
C3519 C3518 1.391 . S
H3520 C3528 0.950 . S
H3521 C3533 0.950 . S
H3522 C3530 0.950 . S
H3523 C3532 0.950 . S
H3524 C3534 0.950 . S
H3525 C3536 0.950 . S
H3526 C3538 0.950 . S
H3527 C3539 0.950 . S
C3528 H3520 0.950 . S
C3528 C3529 1.386 . S
C3528 C3530 1.391 . S
C3529 C3528 1.386 . S
C3529 C3533 1.393 . S
C3530 H3522 0.950 . S
C3530 C3528 1.391 . S
C3530 C3531 1.400 . S
C3531 C3530 1.400 . S
C3531 C3532 1.398 . S
C3531 C3537 1.491 . S
C3532 H3523 0.950 . S
C3532 C3531 1.398 . S
C3532 C3533 1.391 . S
C3533 H3521 0.950 . S
C3533 C3529 1.393 . S
C3533 C3532 1.391 . S
C3534 H3524 0.950 . S
C3534 C3535 1.386 . S
C3534 C3536 1.391 . S
C3535 C3534 1.386 . S
C3535 C3539 1.393 . S
C3536 H3525 0.950 . S
C3536 C3534 1.391 . S
C3536 C3537 1.400 . S
C3537 C3531 1.491 . S
C3537 C3536 1.400 . S
C3537 C3538 1.398 . S
C3538 H3526 0.950 . S
C3538 C3537 1.398 . S
C3538 C3539 1.391 . S
C3539 H3527 0.950 . S
C3539 C3535 1.393 . S
C3539 C3538 1.391 . S
H3540 C3548 0.950 . S
H3541 C3553 0.950 . S
H3542 C3550 0.992 . S
H3543 C3552 0.950 . S
H3544 C3554 0.950 . S
H3545 C3556 0.950 . S
H3546 C3558 0.950 1_556 S
H3547 C3559 0.950 1_556 S
C3548 H3540 0.950 . S
C3548 C3549 1.386 . S
C3548 C3550 1.391 . S
C3549 C3548 1.386 . S
C3549 C3553 1.393 . S
C3550 H3542 0.992 . S
C3550 C3548 1.391 . S
C3550 C3551 1.400 . S
C3551 C3550 1.400 . S
C3551 C3552 1.398 . S
C3551 C3557 1.491 . S
C3552 H3543 0.950 . S
C3552 C3551 1.398 . S
C3552 C3553 1.391 . S
C3553 H3541 0.950 . S
C3553 C3549 1.393 . S
C3553 C3552 1.391 . S
C3554 H3544 0.950 . S
C3554 C3555 1.386 . S
C3554 C3556 1.391 . S
C3555 C3554 1.386 . S
C3555 C3559 1.393 . S
C3556 H3545 0.950 . S
C3556 C3554 1.391 . S
C3556 C3557 1.400 . S
C3557 C3551 1.491 . S
C3557 C3556 1.400 . S
C3557 C3558 1.398 . S
C3558 H3546 0.950 1_554 S
C3558 C3557 1.398 . S
C3558 C3559 1.391 . S
C3559 H3547 0.950 1_554 S
C3559 C3555 1.393 . S
C3559 C3558 1.391 . S
H3560 C3568 0.950 . S
H3561 C3573 0.950 . S
H3562 C3570 0.950 . S
H3563 C3572 0.950 . S
H3564 C3574 0.950 . S
H3565 C3576 0.950 . S
H3566 C3578 0.950 . S
H3567 C3579 0.950 . S
C3568 H3560 0.950 . S
C3568 C3569 1.386 . S
C3568 C3570 1.391 . S
C3569 C3568 1.386 . S
C3569 C3573 1.393 . S
C3570 H3562 0.950 . S
C3570 C3568 1.391 . S
C3570 C3571 1.400 . S
C3571 C3570 1.400 . S
C3571 C3572 1.398 . S
C3571 C3577 1.491 . S
C3572 H3563 0.950 . S
C3572 C3571 1.398 . S
C3572 C3573 1.391 . S
C3573 H3561 0.950 . S
C3573 C3569 1.393 . S
C3573 C3572 1.391 . S
C3574 H3564 0.950 . S
C3574 C3575 1.386 . S
C3574 C3576 1.391 . S
C3575 C3574 1.386 . S
C3575 C3579 1.393 . S
C3576 H3565 0.950 . S
C3576 C3574 1.391 . S
C3576 C3577 1.400 . S
C3577 C3571 1.491 . S
C3577 C3576 1.400 . S
C3577 C3578 1.398 . S
C3578 H3566 0.950 . S
C3578 C3577 1.398 . S
C3578 C3579 1.391 . S
C3579 H3567 0.950 . S
C3579 C3575 1.393 . S
C3579 C3578 1.391 . S
H3580 C3588 0.950 . S
H3581 C3593 0.950 . S
H3582 C3590 0.950 . S
H3583 C3592 0.950 . S
H3584 C3594 0.950 . S
H3585 C3596 0.950 . S
H3586 C3598 0.950 . S
H3587 C3599 0.950 . S
C3588 H3580 0.950 . S
C3588 C3589 1.386 . S
C3588 C3590 1.391 . S
C3589 C3588 1.386 . S
C3589 C3593 1.393 . S
C3590 H3582 0.950 . S
C3590 C3588 1.391 . S
C3590 C3591 1.400 . S
C3591 C3590 1.400 . S
C3591 C3592 1.398 . S
C3591 C3597 1.491 . S
C3592 H3583 0.950 . S
C3592 C3591 1.398 . S
C3592 C3593 1.391 . S
C3593 H3581 0.950 . S
C3593 C3589 1.393 . S
C3593 C3592 1.391 . S
C3594 H3584 0.950 . S
C3594 C3595 1.386 . S
C3594 C3596 1.391 . S
C3595 C3594 1.386 . S
C3595 C3599 1.393 . S
C3596 H3585 0.950 . S
C3596 C3594 1.391 . S
C3596 C3597 1.400 . S
C3597 C3591 1.491 . S
C3597 C3596 1.400 . S
C3597 C3598 1.398 . S
C3598 H3586 0.950 . S
C3598 C3597 1.398 . S
C3598 C3599 1.391 . S
C3599 H3587 0.950 . S
C3599 C3595 1.393 . S
C3599 C3598 1.391 . S
C1689 C105 2.157 1_455 S
C1695 C403 2.158 . S
C1709 C65 1.900 . S
C1715 C476 1.892 . S
C1729 C73 1.869 . S
C1735 C571 1.886 . S
C1755 C646 1.391 . S
C1749 C92 1.501 . S
C1769 C17 1.558 . S
C1775 C730 1.460 . S
C1795 C823 1.852 . S
C1789 C37 1.807 . S
C1815 C896 1.905 . S
C1809 C49 1.811 . S
C1829 C8 2.088 . S
C1835 C991 2.086 . S
C1855 C392 1.672 . S
C1849 C231 1.708 . S
C1869 C241 0.949 . S
C1875 C478 0.932 . S
C1895 C560 1.170 . S
C1889 C273 1.112 . S
C1915 C655 1.629 . S
C1909 C171 1.632 1_556 S
C1929 C227 1.617 . S
C1935 C739 1.618 . S
C1955 C812 1.175 . S
C1949 C245 1.111 . S
C1975 C898 0.930 . S
C1969 C269 0.947 . S
C1995 C980 1.669 . S
C1989 C175 1.701 . S
C2015 C394 1.020 1_565 S
C2009 C162 1.023 1_554 S
C2029 C289 1.700 . S
C2035 C1064 1.688 . S
C2055 C1150 1.331 . S
C2049 C330 1.400 . S
C2075 C1243 0.835 . S
C2069 C317 0.825 . S
C2089 C120 1.002 . S
C2095 C982 0.973 . S
C2109 C134 1.411 . S
C2115 C562 1.335 . S
C2129 C331 1.666 . S
C2135 C1316 1.643 . S
C2155 C1411 0.773 . S
C2149 C303 0.760 . S
C2175 C391 2.185 . S
C2169 C59 2.155 . S
C2195 C1412 1.939 . S
C2189 C107 1.935 . S
C2209 C91 1.912 . S
C2215 C559 1.936 . S
C2229 C78 1.529 . S
C2235 C1330 1.439 . S
C2255 C742 1.454 . S
C2249 C7 1.554 . S
C2269 C51 1.846 . S
C2275 C1147 1.892 . S
C2295 C908 1.941 1_556 S
C2289 C31 1.958 . S
C2315 C1483 2.122 . S
C2309 C22 2.107 . S
C2335 C404 1.711 . S
C2329 C143 1.753 . S
C2355 C1414 0.920 . S
C2349 C315 0.951 . S
C2369 C115 1.207 . S
C2375 C572 1.188 . S
C2389 C287 1.640 . S
C2395 C1315 1.672 . S
C2409 C147 1.640 . S
C2415 C727 1.667 . S
C2435 C1160 1.188 . S
C2429 C311 1.209 . S
C2449 C119 0.943 . S
C2455 C910 0.923 . S
C2469 C283 1.750 . S
C2475 C1496 1.717 . S
C2489 C190 1.032 . S
C2495 C406 0.994 . S
C2509 C177 1.734 . S
C2515 C1076 1.714 . S
C2529 C260 1.398 . S
C2535 C826 1.317 . S
C2549 C247 0.878 . S
C2555 C1231 0.880 . S
C2575 C1498 0.984 . S
C2569 C274 0.938 1_565 S
C2589 C218 1.415 . S
C2595 C574 1.353 . S
C2615 C656 1.689 . S
C2609 C261 1.695 . S
C2635 C475 0.814 . S
C2629 C205 0.798 . S
C2649 C77 2.158 . S
C2655 C1579 2.155 . S
C2675 C1400 1.889 . S
C2669 C93 1.902 . S
C2689 C101 1.860 . S
C2695 C1663 1.885 . S
C2709 C64 1.496 1_655 S
C2715 C1318 1.387 . S
C2729 C45 1.558 . S
C2735 C1066 1.435 . S
C2755 C1159 1.850 . S
C2749 C9 1.820 . S
C2775 C1232 1.897 . S
C2769 C21 1.824 . S
C2795 C1495 2.092 . S
C2789 C36 2.094 . S
C2815 C1568 1.679 . S
C2809 C259 1.699 . S
C2829 C185 0.943 . S
C2835 C1402 0.879 . S
C2855 C1652 1.157 . S
C2849 C203 1.140 . S
C2875 C1327 1.627 . S
C2869 C213 1.631 . S
C2895 C1075 1.614 . S
C2889 C255 1.616 . S
C2909 C189 1.112 . S
C2915 C1148 1.169 . S
C2935 C1234 0.928 . S
C2929 C199 0.948 . S
C2949 C217 1.689 . S
C2955 C1484 1.683 . S
C2975 C1570 0.997 . S
C2969 C316 1.038 . S
C2989 C135 1.700 . S
C2995 C728 1.690 . S
C3015 C814 1.331 . S
C3009 C148 1.399 1_565 S
C3035 C907 0.832 . S
C3029 C163 0.817 . S
C3055 C1486 0.991 . S
C3049 C302 0.990 . S
C3069 C288 1.398 . S
C3075 C1654 1.351 . S
C3095 C644 1.642 . S
C3089 C149 1.667 . S
C3115 C487 0.771 . S
C3109 C121 0.757 . S
C3129 C87 2.150 . S
C3135 C1567 2.182 . S
C3155 C488 1.929 . S
C3149 C79 1.943 . S
C3169 C63 1.910 . S
C3175 C1651 1.934 . S
C3189 C106 1.532 . S
C3195 C658 1.421 . S
C3209 C35 1.542 . S
C3215 C1078 1.486 . S
C3235 C811 1.895 . S
C3229 C23 1.861 . S
C3249 C3 1.958 . S
C3255 C1244 1.941 . S
C3269 C50 2.103 . S
C3275 C979 2.121 . S
C3295 C1580 1.709 . S
C3289 C325 1.752 . S
C3309 C161 0.964 . S
C3315 C490 0.901 . S
C3335 C1664 1.185 1_655 S
C3329 C297 1.197 . S
C3349 C133 1.648 . S
C3355 C643 1.675 . S
C3369 C329 1.628 . S
C3375 C1063 1.662 . S
C3395 C824 1.207 . S
C3389 C157 1.213 . S
C3409 C301 0.962 . S
C3415 C1246 0.943 . S
C3435 C992 1.717 . S
C3429 C129 1.750 . S
C3455 C1582 0.992 . S
C3449 C246 1.040 . S
C3475 C740 1.718 1_565 S
C3469 C219 1.730 . S
C3489 C232 1.391 . S
C3495 C1162 1.352 . S
C3515 C895 0.877 . S
C3509 C191 0.859 . S
C3529 C204 0.982 . S
C3535 C994 0.994 . S
C3549 C176 1.418 . S
C3555 C1666 1.344 . S
C3575 C1328 1.679 . S
C3569 C233 1.696 . S
C3595 C1399 0.809 . S
C3589 C275 0.807 . S
