# Generated by pormake.
# Topology eea, (3,6)-cn, num edge types: 1
# Building blocks:
#     Node 0, Type 0, BuildingBlock: WUSLED_clean_sbu_0, # of connection points: 3
#     Node 1, Type 0, BuildingBlock: WUSLED_clean_sbu_0, # of connection points: 3
#     Node 2, Type 0, BuildingBlock: WUSLED_clean_sbu_0, # of connection points: 3
#     Node 3, Type 0, BuildingBlock: WUSLED_clean_sbu_0, # of connection points: 3
#     Node 4, Type 0, BuildingBlock: WUSLED_clean_sbu_0, # of connection points: 3
#     Node 5, Type 0, BuildingBlock: WUSLED_clean_sbu_0, # of connection points: 3
#     Node 6, Type 0, BuildingBlock: WUSLED_clean_sbu_0, # of connection points: 3
#     Node 7, Type 0, BuildingBlock: WUSLED_clean_sbu_0, # of connection points: 3
#     Node 8, Type 0, BuildingBlock: WUSLED_clean_sbu_0, # of connection points: 3
#     Node 9, Type 0, BuildingBlock: WUSLED_clean_sbu_0, # of connection points: 3
#     Node 10, Type 0, BuildingBlock: WUSLED_clean_sbu_0, # of connection points: 3
#     Node 11, Type 0, BuildingBlock: WUSLED_clean_sbu_0, # of connection points: 3
#     Node 12, Type 0, BuildingBlock: WUSLED_clean_sbu_0, # of connection points: 3
#     Node 13, Type 0, BuildingBlock: WUSLED_clean_sbu_0, # of connection points: 3
#     Node 14, Type 0, BuildingBlock: WUSLED_clean_sbu_0, # of connection points: 3
#     Node 15, Type 0, BuildingBlock: WUSLED_clean_sbu_0, # of connection points: 3
#     Node 16, Type 0, BuildingBlock: WUSLED_clean_sbu_0, # of connection points: 3
#     Node 17, Type 0, BuildingBlock: WUSLED_clean_sbu_0, # of connection points: 3
#     Node 18, Type 1, BuildingBlock: KUMBOL_clean_sbu_0, # of connection points: 6
#     Node 19, Type 1, BuildingBlock: KUMBOL_clean_sbu_0, # of connection points: 6
#     Node 20, Type 1, BuildingBlock: KUMBOL_clean_sbu_0, # of connection points: 6
#     Node 21, Type 1, BuildingBlock: KUMBOL_clean_sbu_0, # of connection points: 6
#     Node 22, Type 1, BuildingBlock: KUMBOL_clean_sbu_0, # of connection points: 6
#     Node 23, Type 1, BuildingBlock: KUMBOL_clean_sbu_0, # of connection points: 6
#     Node 24, Type 1, BuildingBlock: KUMBOL_clean_sbu_0, # of connection points: 6
#     Node 25, Type 1, BuildingBlock: KUMBOL_clean_sbu_0, # of connection points: 6
#     Node 26, Type 1, BuildingBlock: KUMBOL_clean_sbu_0, # of connection points: 6
#     Edge 27, Type (0, 1), BuildingBlock: AJUNOK_clean_linker_0, # of connection points: 2
#     Edge 28, Type (0, 1), BuildingBlock: AJUNOK_clean_linker_0, # of connection points: 2
#     Edge 29, Type (0, 1), BuildingBlock: AJUNOK_clean_linker_0, # of connection points: 2
#     Edge 30, Type (0, 1), BuildingBlock: AJUNOK_clean_linker_0, # of connection points: 2
#     Edge 31, Type (0, 1), BuildingBlock: AJUNOK_clean_linker_0, # of connection points: 2
#     Edge 32, Type (0, 1), BuildingBlock: AJUNOK_clean_linker_0, # of connection points: 2
#     Edge 33, Type (0, 1), BuildingBlock: AJUNOK_clean_linker_0, # of connection points: 2
#     Edge 34, Type (0, 1), BuildingBlock: AJUNOK_clean_linker_0, # of connection points: 2
#     Edge 35, Type (0, 1), BuildingBlock: AJUNOK_clean_linker_0, # of connection points: 2
#     Edge 36, Type (0, 1), BuildingBlock: AJUNOK_clean_linker_0, # of connection points: 2
#     Edge 37, Type (0, 1), BuildingBlock: AJUNOK_clean_linker_0, # of connection points: 2
#     Edge 38, Type (0, 1), BuildingBlock: AJUNOK_clean_linker_0, # of connection points: 2
#     Edge 39, Type (0, 1), BuildingBlock: AJUNOK_clean_linker_0, # of connection points: 2
#     Edge 40, Type (0, 1), BuildingBlock: AJUNOK_clean_linker_0, # of connection points: 2
#     Edge 41, Type (0, 1), BuildingBlock: AJUNOK_clean_linker_0, # of connection points: 2
#     Edge 42, Type (0, 1), BuildingBlock: AJUNOK_clean_linker_0, # of connection points: 2
#     Edge 43, Type (0, 1), BuildingBlock: AJUNOK_clean_linker_0, # of connection points: 2
#     Edge 44, Type (0, 1), BuildingBlock: AJUNOK_clean_linker_0, # of connection points: 2
#     Edge 45, Type (0, 1), BuildingBlock: AJUNOK_clean_linker_0, # of connection points: 2
#     Edge 46, Type (0, 1), BuildingBlock: AJUNOK_clean_linker_0, # of connection points: 2
#     Edge 47, Type (0, 1), BuildingBlock: AJUNOK_clean_linker_0, # of connection points: 2
#     Edge 48, Type (0, 1), BuildingBlock: AJUNOK_clean_linker_0, # of connection points: 2
#     Edge 49, Type (0, 1), BuildingBlock: AJUNOK_clean_linker_0, # of connection points: 2
#     Edge 50, Type (0, 1), BuildingBlock: AJUNOK_clean_linker_0, # of connection points: 2
#     Edge 51, Type (0, 1), BuildingBlock: AJUNOK_clean_linker_0, # of connection points: 2
#     Edge 52, Type (0, 1), BuildingBlock: AJUNOK_clean_linker_0, # of connection points: 2
#     Edge 53, Type (0, 1), BuildingBlock: AJUNOK_clean_linker_0, # of connection points: 2
#     Edge 54, Type (0, 1), BuildingBlock: AJUNOK_clean_linker_0, # of connection points: 2
#     Edge 55, Type (0, 1), BuildingBlock: AJUNOK_clean_linker_0, # of connection points: 2
#     Edge 56, Type (0, 1), BuildingBlock: AJUNOK_clean_linker_0, # of connection points: 2
#     Edge 57, Type (0, 1), BuildingBlock: AJUNOK_clean_linker_0, # of connection points: 2
#     Edge 58, Type (0, 1), BuildingBlock: AJUNOK_clean_linker_0, # of connection points: 2
#     Edge 59, Type (0, 1), BuildingBlock: AJUNOK_clean_linker_0, # of connection points: 2
#     Edge 60, Type (0, 1), BuildingBlock: AJUNOK_clean_linker_0, # of connection points: 2
#     Edge 61, Type (0, 1), BuildingBlock: AJUNOK_clean_linker_0, # of connection points: 2
#     Edge 62, Type (0, 1), BuildingBlock: AJUNOK_clean_linker_0, # of connection points: 2
#     Edge 63, Type (0, 1), BuildingBlock: AJUNOK_clean_linker_0, # of connection points: 2
#     Edge 64, Type (0, 1), BuildingBlock: AJUNOK_clean_linker_0, # of connection points: 2
#     Edge 65, Type (0, 1), BuildingBlock: AJUNOK_clean_linker_0, # of connection points: 2
#     Edge 66, Type (0, 1), BuildingBlock: AJUNOK_clean_linker_0, # of connection points: 2
#     Edge 67, Type (0, 1), BuildingBlock: AJUNOK_clean_linker_0, # of connection points: 2
#     Edge 68, Type (0, 1), BuildingBlock: AJUNOK_clean_linker_0, # of connection points: 2
#     Edge 69, Type (0, 1), BuildingBlock: AJUNOK_clean_linker_0, # of connection points: 2
#     Edge 70, Type (0, 1), BuildingBlock: AJUNOK_clean_linker_0, # of connection points: 2
#     Edge 71, Type (0, 1), BuildingBlock: AJUNOK_clean_linker_0, # of connection points: 2
#     Edge 72, Type (0, 1), BuildingBlock: AJUNOK_clean_linker_0, # of connection points: 2
#     Edge 73, Type (0, 1), BuildingBlock: AJUNOK_clean_linker_0, # of connection points: 2
#     Edge 74, Type (0, 1), BuildingBlock: AJUNOK_clean_linker_0, # of connection points: 2
#     Edge 75, Type (0, 1), BuildingBlock: AJUNOK_clean_linker_0, # of connection points: 2
#     Edge 76, Type (0, 1), BuildingBlock: AJUNOK_clean_linker_0, # of connection points: 2
#     Edge 77, Type (0, 1), BuildingBlock: AJUNOK_clean_linker_0, # of connection points: 2
#     Edge 78, Type (0, 1), BuildingBlock: AJUNOK_clean_linker_0, # of connection points: 2
#     Edge 79, Type (0, 1), BuildingBlock: AJUNOK_clean_linker_0, # of connection points: 2
#     Edge 80, Type (0, 1), BuildingBlock: AJUNOK_clean_linker_0, # of connection points: 2
# Relax obj value: 0.008
# Max RMSD: 0.088
# Mean RMSD: 0.068
data_MOF--net-eea--node1-WUSLED_clean_sbu_0--node2-KUMBOL_clean_sbu_0--edge1-AJUNOK_clean_linker_0
_symmetry_space_group_name_H-M    P1
_symmetry_Int_Tables_number       1
_symmetry_cell_setting            triclinic
loop_
_symmetry_equiv_pos_as_xyz
'x, y, z'
_cell_length_a     53.490718
_cell_length_b     54.822953
_cell_length_c     75.682945
_cell_angle_alpha  89.702045
_cell_angle_beta   90.276345
_cell_angle_gamma 119.94466
loop_
_atom_site_label
_atom_site_type_symbol
_atom_site_fract_x
_atom_site_fract_y
_atom_site_fract_z
_atom_type_partial_charge
C0 C 0.22215 0.1644 0.40112 0.0
C1 C 0.21577 0.1803 0.4129 0.0
C2 C 0.21349 0.20854 0.38841 0.0
C3 C 0.21159 0.20224 0.4066 0.0
C4 C 0.2208 0.19312 0.37681 0.0
C5 C 0.22501 0.17133 0.38308 0.0
U6 U 0.24021 0.12017 0.43418 0.0
O7 O 0.21668 0.07416 0.43829 0.0
O8 O 0.2611 0.09507 0.42845 0.0
C9 C 0.23814 0.07107 0.43265 0.0
C10 C 0.22455 0.13966 0.40687 0.0
C11 C 0.23083 0.04651 0.42115 0.0
C12 C 0.20892 0.01765 0.39492 0.0
C13 C 0.21601 0.04184 0.40501 0.0
C14 C 0.23145 1.00274 0.41695 0.0
C15 C 0.21645 0.99769 0.40084 0.0
C16 C 0.23854 0.0268 0.42692 0.0
C17 C 0.27014 0.15102 0.48121 0.0
C18 C 0.28167 0.12918 0.50572 0.0
C19 C 0.29233 0.17742 0.50812 0.0
C20 C 0.28116 0.17584 0.49113 0.0
C21 C 0.29262 0.15409 0.51575 0.0
C22 C 0.27045 0.12762 0.48862 0.0
C23 C 0.2588 0.15066 0.46323 0.0
O24 O 0.25074 0.14364 0.40894 0.0
O25 O 0.20653 0.12328 0.41911 0.0
O26 O 0.23152 0.13224 0.46024 0.0
O27 O 0.27563 0.15327 0.44991 0.0
H28 H 0.21351 0.17546 0.4269 0.0
H29 H 0.20606 0.21375 0.4159 0.0
H30 H 0.22307 0.19777 0.36279 0.0
H31 H 0.23004 0.15951 0.37373 0.0
H32 H 0.19703 0.01428 0.38271 0.0
H33 H 0.20972 0.0567 0.4003 0.0
H34 H 0.23783 0.98805 0.42186 0.0
H35 H 0.24999 0.02991 0.43931 0.0
H36 H 0.28168 0.11086 0.51114 0.0
H37 H 0.30132 0.1972 0.51514 0.0
H38 H 0.28134 0.19423 0.48564 0.0
H39 H 0.26214 0.10826 0.48119 0.0
C40 C 0.96639 0.16984 0.40032 0.0
C41 C 0.98019 0.19554 0.40947 0.0
C42 C 0.01889 0.21598 0.38729 0.0
C43 C 1.00609 0.21833 0.40301 0.0
C44 C 1.00479 0.1902 0.37818 0.0
C45 C 0.97901 0.16751 0.38463 0.0
U46 U 0.90163 0.12527 0.43291 0.0
O47 O 0.85562 0.09899 0.42581 0.0
O48 O 0.87885 0.07915 0.43721 0.0
C49 C 0.85434 0.07534 0.43068 0.0
C50 C 0.93859 0.14532 0.40628 0.0
C51 C 0.83677 0.04975 0.41972 0.0
C52 C 0.81678 0.02587 0.3916 0.0
C53 C 0.83553 0.05041 0.40116 0.0
C54 C 0.80033 0.99976 0.41896 0.0
C55 C 0.79872 1.00021 0.40041 0.0
C56 C 0.8191 0.0241 0.42843 0.0
C57 C 0.90004 0.15506 0.47998 0.0
C58 C 0.86916 0.13139 0.50543 0.0
C59 C 0.90106 0.18178 0.50601 0.0
C60 C 0.91089 0.1807 0.48903 0.0
C61 C 0.87994 0.1572 0.51449 0.0
C62 C 0.87909 0.13032 0.48836 0.0
C63 C 0.91182 0.15513 0.46215 0.0
O64 O 0.93978 0.12937 0.41891 0.0
O65 O 0.91637 0.1492 0.40791 0.0
O66 O 0.89804 0.15748 0.44841 0.0
O67 O 0.9212 0.1374 0.45947 0.0
H68 H 0.97093 0.198 0.42156 0.0
H69 H 0.01628 0.23778 0.41044 0.0
H70 H 0.01341 0.18765 0.36586 0.0
H71 H 0.96871 0.14805 0.3772 0.0
H72 H 0.8159 0.02717 0.37735 0.0
H73 H 0.8487 0.06991 0.39407 0.0
H74 H 0.787 0.98045 0.4262 0.0
H75 H 0.81944 0.02297 0.44272 0.0
H76 H 0.85327 0.11193 0.5116 0.0
H77 H 0.90974 0.20203 0.51243 0.0
H78 H 0.92713 0.20008 0.48292 0.0
H79 H 0.87051 0.11022 0.48177 0.0
C80 C 0.84937 0.80378 0.39947 0.0
C81 C 0.82338 0.79019 0.40898 0.0
C82 C 0.80083 0.80853 0.38847 0.0
C83 C 0.79938 0.7925 0.40352 0.0
C84 C 0.82692 0.82188 0.37898 0.0
C85 C 0.85079 0.8196 0.38444 0.0
U86 U 0.89882 0.78556 0.42934 0.0
O87 O 0.92468 0.7667 0.42049 0.0
O88 O 0.94655 0.80954 0.43111 0.0
C89 C 0.94955 0.78942 0.42382 0.0
C90 C 0.87507 0.80124 0.40422 0.0
C91 C 0.97384 0.79766 0.41102 0.0
C92 C 0.99439 0.78759 0.38507 0.0
C93 C 0.97031 0.78285 0.39519 0.0
C94 C 0.02607 0.82286 0.40588 0.0
C95 C 0.02273 0.80703 0.39056 0.0
C96 C 1.00202 0.81816 0.41597 0.0
C97 C 0.87274 0.75341 0.47745 0.0
C98 C 0.85653 0.71199 0.49652 0.0
C99 C 0.87703 0.75801 0.50976 0.0
C100 C 0.88121 0.77021 0.4928 0.0
C101 C 0.86381 0.72862 0.51186 0.0
C102 C 0.86081 0.72414 0.47961 0.0
C103 C 0.87182 0.76556 0.45978 0.0
O104 O 0.89274 0.81846 0.41629 0.0
O105 O 0.87136 0.77573 0.40558 0.0
O106 O 0.86753 0.75001 0.44568 0.0
O107 O 0.8897 0.79247 0.45682 0.0
H108 H 0.82159 0.77773 0.42056 0.0
H109 H 0.77971 0.78193 0.41118 0.0
H110 H 0.82878 0.83378 0.36711 0.0
H111 H 0.87044 0.83003 0.37674 0.0
H112 H 0.99083 0.7754 0.37316 0.0
H113 H 0.94903 0.76685 0.3909 0.0
H114 H 0.04744 0.8379 0.41061 0.0
H115 H 1.00564 0.82972 0.42817 0.0
H116 H 0.84675 0.68934 0.4976 0.0
H117 H 0.88289 0.77146 0.52126 0.0
H118 H 0.89 0.79274 0.49177 0.0
H119 H 0.85366 0.71035 0.46825 0.0
C120 C 0.0525 0.20807 0.64188 0.0
C121 C 0.04162 0.22439 0.63431 0.0
C122 C 0.99983 0.20338 0.65434 0.0
C123 C 0.01564 0.22207 0.64047 0.0
C124 C 0.0109 0.18711 0.6618 0.0
C125 C 0.03673 0.18938 0.65562 0.0
U126 U 0.11999 0.22657 0.61137 0.0
O127 O 0.16544 0.24587 0.62 0.0
O128 O 0.14348 0.20288 0.60966 0.0
C129 C 0.16722 0.22324 0.61673 0.0
C130 C 0.08086 0.21104 0.63674 0.0
C131 C 0.18383 0.21543 0.62939 0.0
C132 C 0.21625 0.22637 0.65484 0.0
C133 C 0.1965 0.23085 0.64492 0.0
C134 C 0.21043 0.19025 0.63441 0.0
C135 C 0.22422 0.20659 0.64944 0.0
C136 C 0.19068 0.19468 0.62453 0.0
C137 C 0.12399 0.25688 0.56296 0.0
C138 C 0.15281 0.26083 0.53691 0.0
C139 C 0.12454 0.28407 0.53703 0.0
C140 C 0.11492 0.27379 0.55417 0.0
C141 C 0.14372 0.27789 0.52809 0.0
C142 C 0.14304 0.25043 0.55412 0.0
C143 C 0.11182 0.24549 0.58082 0.0
O144 O 0.08078 0.19365 0.62481 0.0
O145 O 0.10298 0.23665 0.63507 0.0
O146 O 0.1244 0.26168 0.59456 0.0
O147 O 0.10291 0.2188 0.58407 0.0
H148 H 0.05332 0.23911 0.62377 0.0
H149 H 1.00788 0.23492 0.63431 0.0
H150 H 0.99998 0.17306 0.67277 0.0
H151 H 0.04475 0.1768 0.66189 0.0
H152 H 0.22583 0.23896 0.66654 0.0
H153 H 0.19195 0.24709 0.64912 0.0
H154 H 0.216 0.17493 0.62974 0.0
H155 H 0.18171 0.18266 0.61254 0.0
H156 H 0.16718 0.25518 0.53041 0.0
H157 H 0.11719 0.29723 0.53084 0.0
H158 H 0.1001 0.27899 0.56057 0.0
H159 H 0.15021 0.23722 0.56045 0.0
C160 C 0.793 0.84579 0.64377 0.0
C161 C 0.79155 0.82558 0.63181 0.0
C162 C 0.80233 0.80165 0.65561 0.0
C163 C 0.79606 0.80363 0.6377 0.0
C164 C 0.80311 0.82165 0.6675 0.0
C165 C 0.79856 0.84342 0.66165 0.0
U166 U 0.77303 0.88962 0.61135 0.0
O167 O 0.75125 0.91361 0.61805 0.0
O168 O 0.7956 0.93576 0.60808 0.0
C169 C 0.77386 0.93804 0.61411 0.0
C170 C 0.78949 0.86993 0.63821 0.0
C171 C 0.78076 0.96215 0.62596 0.0
C172 C 0.80381 0.99143 0.65193 0.0
C173 C 0.79616 0.96699 0.64192 0.0
C174 C 0.78031 0.00595 0.63034 0.0
C175 C 0.79644 0.01146 0.64601 0.0
C176 C 0.77259 0.98166 0.62048 0.0
C177 C 0.74394 0.86091 0.56372 0.0
C178 C 0.73736 0.88489 0.53834 0.0
C179 C 0.71838 0.83459 0.53737 0.0
C180 C 0.72906 0.83544 0.55445 0.0
C181 C 0.72219 0.85924 0.52906 0.0
C182 C 0.74809 0.88571 0.5555 0.0
C183 C 0.75527 0.86063 0.58166 0.0
O184 O 0.80725 0.88686 0.62606 0.0
O185 O 0.76296 0.86499 0.6361 0.0
O186 O 0.73816 0.85684 0.59507 0.0
O187 O 0.78237 0.87931 0.58493 0.0
H188 H 0.78722 0.82692 0.61795 0.0
H189 H 0.79525 0.78856 0.62819 0.0
H190 H 0.80721 0.82046 0.68142 0.0
H191 H 0.79961 0.85863 0.67114 0.0
H192 H 0.81632 0.99515 0.66392 0.0
H193 H 0.80273 0.95225 0.64643 0.0
H194 H 0.77413 0.02083 0.62549 0.0
H195 H 0.76068 0.97842 0.60827 0.0
H196 H 0.7412 0.90438 0.53228 0.0
H197 H 0.70668 0.81446 0.53076 0.0
H198 H 0.72565 0.81603 0.56046 0.0
H199 H 0.75968 0.90568 0.56231 0.0
C200 C 0.05169 0.8421 0.64202 0.0
C201 C 0.03722 0.81642 0.63287 0.0
C202 C 0.99897 0.79661 0.65539 0.0
C203 C 0.01114 0.79396 0.63947 0.0
C204 C 0.01374 0.8224 0.66444 0.0
C205 C 0.03965 0.84471 0.65788 0.0
U206 U 0.11692 0.88789 0.60953 0.0
O207 O 0.13864 0.93408 0.60569 0.0
O208 O 0.1625 0.91506 0.61734 0.0
C209 C 0.16314 0.93847 0.61259 0.0
C210 C 0.07933 0.86661 0.6358 0.0
C211 C 0.17991 0.96413 0.6237 0.0
C212 C 0.2026 0.98785 0.65149 0.0
C213 C 0.18374 0.96314 0.64208 0.0
C214 C 0.21368 0.01483 0.62444 0.0
C215 C 0.21835 0.01392 0.64268 0.0
C216 C 0.19476 0.99036 0.61514 0.0
C217 C 0.1208 0.85962 0.56218 0.0
C218 C 0.14847 0.88399 0.53576 0.0
C219 C 0.12298 0.83317 0.53685 0.0
C220 C 0.1132 0.83393 0.55392 0.0
C221 C 0.14085 0.85814 0.52746 0.0
C222 C 0.13855 0.88473 0.5529 0.0
C223 C 0.10854 0.85905 0.57998 0.0
O224 O 0.10181 0.86311 0.63424 0.0
O225 O 0.07792 0.88242 0.62316 0.0
O226 O 0.09836 0.87612 0.5827 0.0
O227 O 0.12217 0.85676 0.59383 0.0
H228 H 0.04593 0.81381 0.6206 0.0
H229 H 1.00017 0.77473 0.63186 0.0
H230 H 1.00525 0.82534 0.67671 0.0
H231 H 0.05036 0.8642 0.66525 0.0
H232 H 0.20569 0.98641 0.66553 0.0
H233 H 0.17273 0.94324 0.64908 0.0
H234 H 0.22512 0.03454 0.61726 0.0
H235 H 0.19237 0.99183 0.60101 0.0
H236 H 0.16179 0.90368 0.5289 0.0
H237 H 0.1168 0.8129 0.53105 0.0
H238 H 0.09941 0.81424 0.56068 0.0
H239 H 0.14456 0.90487 0.55882 0.0
C240 C 0.89531 0.50428 0.73134 0.0
C241 C 0.89282 0.52257 0.74325 0.0
C242 C 0.88694 0.54858 0.71868 0.0
C243 C 0.88879 0.5446 0.73696 0.0
C244 C 0.89033 0.5307 0.70689 0.0
C245 C 0.89441 0.50884 0.71315 0.0
U246 U 0.91124 0.45923 0.76502 0.0
O247 O 0.88761 0.41307 0.76819 0.0
O248 O 0.93289 0.43462 0.75985 0.0
C249 C 0.90947 0.41035 0.7629 0.0
C250 C 0.89766 0.47964 0.73725 0.0
C251 C 0.90332 0.38667 0.75076 0.0
C252 C 0.8715 0.34846 0.7309 0.0
C253 C 0.87809 0.37303 0.74038 0.0
C254 C 0.91558 0.35134 0.74155 0.0
C255 C 0.88982 0.3369 0.73178 0.0
C256 C 0.92218 0.37581 0.75091 0.0
C257 C 0.93731 0.48839 0.81297 0.0
C258 C 0.95565 0.47041 0.83623 0.0
C259 C 0.95225 0.51217 0.84141 0.0
C260 C 0.94101 0.51004 0.82438 0.0
C261 C 0.95997 0.49256 0.84756 0.0
C262 C 0.94448 0.46838 0.81906 0.0
C263 C 0.92727 0.48841 0.79466 0.0
O264 O 0.92377 0.48392 0.74024 0.0
O265 O 0.87873 0.46278 0.74894 0.0
O266 O 0.9003 0.46997 0.79088 0.0
O267 O 0.94518 0.49163 0.78186 0.0
H268 H 0.8935 0.51952 0.75736 0.0
H269 H 0.88628 0.55801 0.74639 0.0
H270 H 0.88959 0.53348 0.69275 0.0
H271 H 0.89642 0.49513 0.7037 0.0
H272 H 0.85152 0.33785 0.72347 0.0
H273 H 0.86308 0.38085 0.73999 0.0
H274 H 0.93039 0.34329 0.74228 0.0
H275 H 0.94172 0.3858 0.75879 0.0
H276 H 0.96177 0.4552 0.84044 0.0
H277 H 0.95517 0.52938 0.84977 0.0
H278 H 0.93566 0.52573 0.81999 0.0
H279 H 0.94195 0.45156 0.81045 0.0
C280 C 0.63261 0.50638 0.73349 0.0
C281 C 0.64579 0.5318 0.74297 0.0
C282 C 0.68486 0.55357 0.7211 0.0
C283 C 0.67157 0.55514 0.73681 0.0
C284 C 0.67131 0.5281 0.71163 0.0
C285 C 0.64566 0.5049 0.71777 0.0
U286 U 0.56895 0.45907 0.76608 0.0
O287 O 0.52271 0.43235 0.7595 0.0
O288 O 0.54727 0.4128 0.76921 0.0
C289 C 0.52218 0.40878 0.76364 0.0
C290 C 0.60511 0.4812 0.7392 0.0
C291 C 0.50383 0.38333 0.75276 0.0
C292 C 0.49116 0.35561 0.72553 0.0
C293 C 0.50995 0.38019 0.73512 0.0
C294 C 0.46034 0.33708 0.75112 0.0
C295 C 0.46579 0.33387 0.73335 0.0
C296 C 0.47897 0.36141 0.7606 0.0
C297 C 0.56922 0.4873 0.81422 0.0
C298 C 0.53142 0.47124 0.83669 0.0
C299 C 0.57924 0.50959 0.84326 0.0
C300 C 0.5884 0.50728 0.82633 0.0
C301 C 0.55057 0.49183 0.8487 0.0
C302 C 0.54062 0.46905 0.8196 0.0
C303 C 0.5797 0.48756 0.79596 0.0
O304 O 0.60692 0.46465 0.75114 0.0
O305 O 0.58262 0.48447 0.74157 0.0
O306 O 0.56492 0.48984 0.78277 0.0
O307 O 0.58949 0.47036 0.79251 0.0
H308 H 0.63618 0.53362 0.7551 0.0
H309 H 0.68132 0.57434 0.74449 0.0
H310 H 0.68034 0.52617 0.6993 0.0
H311 H 0.63586 0.48568 0.7101 0.0
H312 H 0.49617 0.35384 0.71192 0.0
H313 H 0.52905 0.39671 0.72876 0.0
H314 H 0.44158 0.32061 0.7578 0.0
H315 H 0.47382 0.36313 0.77421 0.0
H316 H 0.50908 0.45746 0.84029 0.0
H317 H 0.59461 0.52559 0.8521 0.0
H318 H 0.61054 0.52165 0.82255 0.0
H319 H 0.52531 0.45354 0.81051 0.0
C320 C 0.51642 0.13747 0.73262 0.0
C321 C 0.48974 0.12236 0.74128 0.0
C322 C 0.46788 0.1421 0.72129 0.0
C323 C 0.46584 0.12474 0.73574 0.0
C324 C 0.49488 0.15769 0.71298 0.0
C325 C 0.51873 0.15534 0.71854 0.0
U326 U 0.56431 0.11779 0.76273 0.0
O327 O 0.58797 0.09609 0.75465 0.0
O328 O 0.61194 0.13958 0.76413 0.0
C329 C 0.61346 0.11799 0.75794 0.0
C330 C 0.54171 0.13402 0.73717 0.0
C331 C 0.63782 0.12363 0.74586 0.0
C332 C 0.67089 0.14831 0.72137 0.0
C333 C 0.6463 0.14245 0.73147 0.0
C334 C 0.67875 0.11672 0.73984 0.0
C335 C 0.68756 0.1355 0.7254 0.0
C336 C 0.65426 0.11078 0.74978 0.0
C337 C 0.53648 0.08908 0.81128 0.0
C338 C 0.55931 0.07949 0.83643 0.0
C339 C 0.50899 0.06621 0.83801 0.0
C340 C 0.51061 0.07694 0.82091 0.0
C341 C 0.5332 0.06712 0.84607 0.0
C342 C 0.56094 0.09037 0.81923 0.0
C343 C 0.53679 0.10053 0.79328 0.0
O344 O 0.56021 0.15134 0.74888 0.0
O345 O 0.53691 0.10817 0.73897 0.0
O346 O 0.53191 0.08384 0.77972 0.0
O347 O 0.5563 0.12683 0.78992 0.0
H348 H 0.48728 0.10851 0.75221 0.0
H349 H 0.44569 0.11294 0.74281 0.0
H350 H 0.4974 0.17123 0.70184 0.0
H351 H 0.53899 0.16718 0.71157 0.0
H352 H 0.67697 0.16303 0.71046 0.0
H353 H 0.63422 0.15289 0.7282 0.0
H354 H 0.69136 0.10721 0.74396 0.0
H355 H 0.64857 0.09654 0.76094 0.0
H356 H 0.57857 0.08102 0.84223 0.0
H357 H 0.48848 0.0567 0.84483 0.0
H358 H 0.49143 0.07573 0.81515 0.0
H359 H 0.58124 0.09979 0.81219 0.0
C360 C 0.7168 0.54054 0.97622 0.0
C361 C 0.70565 0.55612 0.96796 0.0
C362 C 0.66433 0.53666 0.98834 0.0
C363 C 0.67971 0.5541 0.97389 0.0
C364 C 0.67528 0.52059 0.99624 0.0
C365 C 0.70112 0.52257 0.99029 0.0
U366 U 0.7831 0.55693 0.9454 0.0
O367 O 0.82946 0.57954 0.95254 0.0
O368 O 0.80824 0.53486 0.94544 0.0
C369 C 0.83229 0.55725 0.95046 0.0
C370 C 0.74537 0.5437 0.9714 0.0
C371 C 0.85248 0.55365 0.9625 0.0
C372 C 0.86402 0.52838 0.98502 0.0
C373 C 0.8435 0.53197 0.97518 0.0
C374 C 0.90253 0.56773 0.96955 0.0
C375 C 0.89394 0.54634 0.98239 0.0
C376 C 0.88221 0.57142 0.95992 0.0
C377 C 0.78423 0.58031 0.89559 0.0
C378 C 0.81924 0.61546 0.87513 0.0
C379 C 0.77496 0.57693 0.86369 0.0
C380 C 0.76668 0.56629 0.88093 0.0
C381 C 0.80103 0.60209 0.86052 0.0
C382 C 0.81092 0.60481 0.89241 0.0
C383 C 0.77246 0.57092 0.91385 0.0
O384 O 0.74546 0.52507 0.96058 0.0
O385 O 0.76682 0.56931 0.96844 0.0
O386 O 0.78474 0.58887 0.92686 0.0
O387 O 0.76429 0.54486 0.91851 0.0
H388 H 0.71712 0.57008 0.95705 0.0
H389 H 0.67169 0.56626 0.9671 0.0
H390 H 0.66423 0.50697 1.00737 0.0
H391 H 0.70921 0.51038 0.99698 0.0
H392 H 0.85647 0.51155 0.99468 0.0
H393 H 0.82073 0.51765 0.97733 0.0
H394 H 0.92514 0.58134 0.96652 0.0
H395 H 0.88984 0.5879 0.95 0.0
H396 H 0.83978 0.6345 0.87326 0.0
H397 H 0.76025 0.56604 0.85289 0.0
H398 H 0.74587 0.54756 0.88288 0.0
H399 H 0.82506 0.61624 0.90332 0.0
C400 C 0.47161 0.18341 0.97383 0.0
C401 C 0.45696 0.15698 0.96559 0.0
C402 C 0.48008 0.13866 0.98549 0.0
C403 C 0.46112 0.13482 0.97138 0.0
C404 C 0.49464 0.16521 0.99365 0.0
C405 C 0.49048 0.18727 0.98787 0.0
U406 U 0.44869 0.22513 0.94189 0.0
O407 O 0.42552 0.24781 0.94854 0.0
O408 O 0.46966 0.27108 0.93824 0.0
C409 C 0.44761 0.27257 0.94456 0.0
C410 C 0.46705 0.20705 0.96863 0.0
C411 C 0.454 0.2963 0.95662 0.0
C412 C 0.48369 0.33122 0.97882 0.0
C413 C 0.47667 0.30678 0.96905 0.0
C414 C 0.44511 0.33444 0.96424 0.0
C415 C 0.4684 0.3457 0.97618 0.0
C416 C 0.43803 0.3101 0.95461 0.0
C417 C 0.41902 0.19505 0.8947 0.0
C418 C 0.40815 0.21741 0.87016 0.0
C419 C 0.39544 0.16856 0.86803 0.0
C420 C 0.40681 0.16998 0.88496 0.0
C421 C 0.39612 0.19227 0.86028 0.0
C422 C 0.41958 0.21883 0.88718 0.0
C423 C 0.43103 0.19543 0.91249 0.0
O424 O 0.48422 0.22431 0.95639 0.0
O425 O 0.44018 0.20122 0.96676 0.0
O426 O 0.41411 0.1913 0.92605 0.0
O427 O 0.45797 0.21486 0.91545 0.0
H428 H 0.44214 0.15339 0.9548 0.0
H429 H 0.44913 0.11455 0.96498 0.0
H430 H 0.50949 0.16901 1.00446 0.0
H431 H 0.50196 0.20743 0.99448 0.0
H432 H 0.50175 0.3394 0.98793 0.0
H433 H 0.48935 0.29654 0.97086 0.0
H434 H 0.43268 0.34488 0.96206 0.0
H435 H 0.42046 0.30246 0.94515 0.0
H436 H 0.40891 0.23604 0.86466 0.0
H437 H 0.38562 0.14863 0.86112 0.0
H438 H 0.40595 0.15132 0.8905 0.0
H439 H 0.42883 0.23841 0.89445 0.0
C440 C 0.71898 0.17346 0.97599 0.0
C441 C 0.70699 0.14756 0.96711 0.0
C442 C 0.66648 0.12618 0.98805 0.0
C443 C 0.68103 0.12428 0.97302 0.0
C444 C 0.67831 0.15237 0.99661 0.0
C445 C 0.70419 0.17561 0.99068 0.0
U446 U 0.78607 0.21906 0.94522 0.0
O447 O 0.8097 0.26534 0.94176 0.0
O448 O 0.83164 0.24454 0.95363 0.0
C449 C 0.83367 0.26852 0.94878 0.0
C450 C 0.74728 0.1982 0.97088 0.0
C451 C 0.8513 0.29394 0.95989 0.0
C452 C 0.86591 0.31949 0.98798 0.0
C453 C 0.84787 0.29478 0.97827 0.0
C454 C 0.891 0.34255 0.96113 0.0
C455 C 0.8878 0.34383 0.97952 0.0
C456 C 0.87307 0.3181 0.95153 0.0
C457 C 0.78883 0.18975 0.89784 0.0
C458 C 0.8219 0.21202 0.87303 0.0
C459 C 0.78535 0.16291 0.87129 0.0
C460 C 0.77564 0.1645 0.88822 0.0
C461 C 0.80873 0.18656 0.8634 0.0
C462 C 0.81206 0.21361 0.89005 0.0
C463 C 0.77706 0.19017 0.91561 0.0
O464 O 0.76947 0.19417 0.96975 0.0
O465 O 0.74716 0.21484 0.95834 0.0
O466 O 0.76816 0.2083 0.91818 0.0
O467 O 0.79014 0.18726 0.92953 0.0
H468 H 0.71779 0.14528 0.9557 0.0
H469 H 0.6723 0.10474 0.96575 0.0
H470 H 0.6679 0.15477 1.00818 0.0
H471 H 0.71294 0.19529 0.99781 0.0
H472 H 0.86239 0.31966 1.00204 0.0
H473 H 0.83128 0.27645 0.9851 0.0
H474 H 0.90767 0.36054 0.95409 0.0
H475 H 0.87641 0.31805 0.93742 0.0
H476 H 0.83964 0.23084 0.86734 0.0
H477 H 0.77476 0.14292 0.86446 0.0
H478 H 0.75762 0.14579 0.89385 0.0
H479 H 0.82251 0.23344 0.89707 0.0
C480 C 0.54842 0.82783 0.06806 0.0
C481 C 0.55794 0.85223 0.07829 0.0
C482 C 0.5421 0.87331 0.05535 0.0
C483 C 0.5547 0.87472 0.07201 0.0
C484 C 0.53225 0.8486 0.04536 0.0
C485 C 0.53543 0.82621 0.05163 0.0
U486 U 0.56881 0.78507 0.10094 0.0
O487 O 0.54681 0.73904 0.10445 0.0
O488 O 0.59134 0.76162 0.09473 0.0
C489 C 0.56887 0.73708 0.09864 0.0
C490 C 0.55212 0.80392 0.07379 0.0
C491 C 0.56249 0.71312 0.08685 0.0
C492 C 0.53625 0.68098 0.06263 0.0
C493 C 0.54337 0.70543 0.07242 0.0
C494 C 0.5677 0.67215 0.08135 0.0
C495 C 0.54789 0.66374 0.06728 0.0
C496 C 0.57488 0.69649 0.09099 0.0
C497 C 0.59743 0.81217 0.14855 0.0
C498 C 0.63657 0.81714 0.16776 0.0
C499 C 0.59264 0.81112 0.18073 0.0
C500 C 0.58127 0.80972 0.16375 0.0
C501 C 0.62066 0.81533 0.18299 0.0
C502 C 0.62518 0.81565 0.1508 0.0
C503 C 0.58616 0.81368 0.13072 0.0
O504 O 0.57875 0.80923 0.07608 0.0
O505 O 0.53435 0.78706 0.08595 0.0
O506 O 0.55899 0.79536 0.12729 0.0
O507 O 0.60315 0.8183 0.1171 0.0
H508 H 0.56802 0.85394 0.09102 0.0
H509 H 0.56246 0.89341 0.08007 0.0
H510 H 0.52181 0.84644 0.03271 0.0
H511 H 0.52778 0.80755 0.04355 0.0
H512 H 0.52096 0.67504 0.05184 0.0
H513 H 0.53352 0.71794 0.06897 0.0
H514 H 0.57736 0.65957 0.08509 0.0
H515 H 0.58972 0.702 0.10201 0.0
H516 H 0.65825 0.8205 0.16895 0.0
H517 H 0.57946 0.80897 0.19209 0.0
H518 H 0.55992 0.80721 0.16251 0.0
H519 H 0.63843 0.81785 0.13947 0.0
C520 C 0.30387 0.83728 0.06689 0.0
C521 C 0.3167 0.86315 0.07586 0.0
C522 C 0.35634 0.884 0.05431 0.0
C523 C 0.34258 0.88622 0.06962 0.0
C524 C 0.34327 0.85801 0.04541 0.0
C525 C 0.3175 0.83504 0.05165 0.0
U526 U 0.23844 0.79176 0.09884 0.0
O527 O 0.1925 0.76587 0.0914 0.0
O528 O 0.21544 0.74552 0.10248 0.0
C529 C 0.19099 0.74205 0.0961 0.0
C530 C 0.27593 0.81257 0.07251 0.0
C531 C 0.17298 0.71662 0.08514 0.0
C532 C 0.15766 0.6912 0.05708 0.0
C533 C 0.17643 0.7156 0.06678 0.0
C534 C 0.13196 0.6687 0.0839 0.0
C535 C 0.13498 0.66744 0.06552 0.0
C536 C 0.15069 0.69284 0.09352 0.0
C537 C 0.23586 0.82008 0.14621 0.0
C538 C 0.20338 0.79575 0.17092 0.0
C539 C 0.23669 0.84578 0.17273 0.0
C540 C 0.24713 0.84524 0.15584 0.0
C541 C 0.21452 0.82112 0.18055 0.0
C542 C 0.21391 0.79524 0.15395 0.0
C543 C 0.2481 0.82071 0.12844 0.0
O544 O 0.27683 0.79619 0.08495 0.0
O545 O 0.25368 0.81643 0.07413 0.0
O546 O 0.23469 0.82357 0.11468 0.0
O547 O 0.25744 0.80299 0.12559 0.0
H548 H 0.30665 0.86556 0.0876 0.0
H549 H 0.35196 0.90581 0.07688 0.0
H550 H 0.35263 0.85553 0.03338 0.0
H551 H 0.30795 0.81545 0.04436 0.0
H552 H 0.16049 0.69118 0.04292 0.0
H553 H 0.19335 0.73369 0.05995 0.0
H554 H 0.11503 0.65087 0.09091 0.0
H555 H 0.14748 0.69303 0.10764 0.0
H556 H 0.18669 0.77621 0.17658 0.0
H557 H 0.2457 0.86572 0.17958 0.0
H558 H 0.26413 0.86469 0.15024 0.0
H559 H 0.20496 0.77548 0.1469 0.0
C560 C 0.18422 0.47077 0.0646 0.0
C561 C 0.1577 0.45796 0.07358 0.0
C562 C 0.13752 0.47769 0.05231 0.0
C563 C 0.13465 0.46143 0.06753 0.0
C564 C 0.16418 0.49044 0.04345 0.0
C565 C 0.1871 0.48698 0.04949 0.0
U566 U 0.23195 0.45268 0.09639 0.0
O567 O 0.25748 0.43281 0.08882 0.0
O568 O 0.27965 0.47622 0.09844 0.0
C569 C 0.28246 0.45556 0.09187 0.0
C570 C 0.20918 0.46742 0.07013 0.0
C571 C 0.30678 0.46292 0.07921 0.0
C572 C 0.32712 0.45178 0.05359 0.0
C573 C 0.30312 0.44752 0.06362 0.0
C574 C 0.35901 0.48765 0.07401 0.0
C575 C 0.35553 0.47134 0.0589 0.0
C576 C 0.33504 0.48342 0.08402 0.0
C577 C 0.20368 0.42531 0.14517 0.0
C578 C 0.22162 0.40732 0.16878 0.0
C579 C 0.17914 0.41117 0.17372 0.0
C580 C 0.18146 0.42185 0.15654 0.0
C581 C 0.19919 0.40376 0.18022 0.0
C582 C 0.22388 0.41801 0.15146 0.0
C583 C 0.20404 0.4356 0.12681 0.0
O584 O 0.22713 0.48524 0.08185 0.0
O585 O 0.20455 0.44172 0.07249 0.0
O586 O 0.2005 0.4186 0.11366 0.0
O587 O 0.22259 0.46207 0.12317 0.0
H588 H 0.15485 0.4454 0.08529 0.0
H589 H 0.11477 0.45182 0.075 0.0
H590 H 0.16731 0.50302 0.03171 0.0
H591 H 0.20723 0.49702 0.04224 0.0
H592 H 0.32343 0.43923 0.04183 0.0
H593 H 0.28178 0.4315 0.05945 0.0
H594 H 0.38042 0.5028 0.07863 0.0
H595 H 0.33877 0.49544 0.09603 0.0
H596 H 0.23742 0.40178 0.17321 0.0
H597 H 0.16102 0.40795 0.18173 0.0
H598 H 0.1654 0.427 0.152 0.0
H599 H 0.24119 0.42034 0.14298 0.0
C600 C 0.38702 0.87941 0.30855 0.0
C601 C 0.36036 0.85815 0.30185 0.0
C602 C 0.33359 0.87267 0.32141 0.0
C603 C 0.33408 0.85493 0.30813 0.0
C604 C 0.36029 0.89411 0.32789 0.0
C605 C 0.3865 0.89732 0.32164 0.0
U606 U 0.45339 0.89492 0.27797 0.0
O607 O 0.49955 0.91566 0.28546 0.0
O608 O 0.47715 0.8715 0.27713 0.0
C609 C 0.50149 0.89302 0.28269 0.0
C610 C 0.41518 0.88131 0.30371 0.0
C611 C 0.52067 0.8877 0.2946 0.0
C612 C 0.52998 0.86242 0.31824 0.0
C613 C 0.51053 0.86743 0.30823 0.0
C614 C 0.56967 0.89764 0.30109 0.0
C615 C 0.55995 0.8774 0.31474 0.0
C616 C 0.55043 0.90271 0.29128 0.0
C617 C 0.45489 0.92295 0.22916 0.0
C618 C 0.48715 0.93156 0.20413 0.0
C619 C 0.45124 0.94591 0.20224 0.0
C620 C 0.44189 0.9355 0.21937 0.0
C621 C 0.4739 0.94398 0.19422 0.0
C622 C 0.47769 0.92105 0.22137 0.0
C623 C 0.44363 0.91209 0.24724 0.0
O624 O 0.41482 0.86307 0.29233 0.0
O625 O 0.43777 0.90657 0.30172 0.0
O626 O 0.4566 0.92896 0.26063 0.0
O627 O 0.43538 0.88566 0.25086 0.0
H628 H 0.3597 0.84372 0.2919 0.0
H629 H 0.31411 0.83861 0.30244 0.0
H630 H 0.36094 0.90816 0.33812 0.0
H631 H 0.40648 0.91357 0.32736 0.0
H632 H 0.52154 0.847 0.3288 0.0
H633 H 0.48768 0.85542 0.31109 0.0
H634 H 0.59233 0.90937 0.29767 0.0
H635 H 0.5589 0.91822 0.28075 0.0
H636 H 0.50476 0.9298 0.19849 0.0
H637 H 0.44102 0.95604 0.1954 0.0
H638 H 0.42439 0.93741 0.22505 0.0
H639 H 0.48817 0.91152 0.2286 0.0
C640 C 0.13443 0.51375 0.30809 0.0
C641 C 0.13856 0.49677 0.29594 0.0
C642 C 0.14125 0.46811 0.32005 0.0
C643 C 0.14198 0.47424 0.30186 0.0
C644 C 0.13702 0.48516 0.3321 0.0
C645 C 0.13361 0.50762 0.32619 0.0
U646 U 0.11491 0.55761 0.2757 0.0
O647 O 0.09608 0.58419 0.28223 0.0
O648 O 0.13931 0.60346 0.27059 0.0
C649 C 0.11915 0.60764 0.27733 0.0
C650 C 0.13221 0.53864 0.30251 0.0
C651 C 0.12867 0.6329 0.28867 0.0
C652 C 0.13059 0.6555 0.31686 0.0
C653 C 0.12428 0.63123 0.30708 0.0
C654 C 0.14645 0.68339 0.29011 0.0
C655 C 0.14106 0.68173 0.30837 0.0
C656 C 0.14035 0.65933 0.28042 0.0
C657 C 0.08101 0.52441 0.22946 0.0
C658 C 0.06478 0.54321 0.20547 0.0
C659 C 0.06066 0.49745 0.20244 0.0
C660 C 0.07275 0.50022 0.21929 0.0
C661 C 0.05664 0.51894 0.19519 0.0
C662 C 0.07695 0.54597 0.22243 0.0
C663 C 0.09338 0.5259 0.2473 0.0
O664 O 0.14931 0.55426 0.2897 0.0
O665 O 0.1061 0.53513 0.30126 0.0
O666 O 0.07772 0.52469 0.26096 0.0
O667 O 0.12101 0.54386 0.24949 0.0
H668 H 0.13947 0.50113 0.28191 0.0
H669 H 0.14577 0.46195 0.29219 0.0
H670 H 0.1362 0.48103 0.34616 0.0
H671 H 0.13057 0.52044 0.33584 0.0
H672 H 0.12622 0.65356 0.33091 0.0
H673 H 0.11527 0.61113 0.31382 0.0
H674 H 0.15482 0.70331 0.28321 0.0
H675 H 0.14394 0.66126 0.26628 0.0
H676 H 0.06189 0.56012 0.20036 0.0
H677 H 0.0539 0.47812 0.19524 0.0
H678 H 0.07545 0.48321 0.22446 0.0
H679 H 0.08307 0.56481 0.23005 0.0
C680 C 0.38315 0.50734 0.30868 0.0
C681 C 0.37045 0.48163 0.29954 0.0
C682 C 0.3308 0.46021 0.32107 0.0
C683 C 0.34463 0.45836 0.30567 0.0
C684 C 0.3438 0.48601 0.33017 0.0
C685 C 0.3695 0.50918 0.32404 0.0
U686 U 0.44873 0.55396 0.27697 0.0
O687 O 0.47063 0.6002 0.27328 0.0
O688 O 0.49434 0.58092 0.2848 0.0
C689 C 0.49513 0.60442 0.28007 0.0
C690 C 0.41088 0.53237 0.30309 0.0
C691 C 0.5122 0.63003 0.29116 0.0
C692 C 0.53218 0.65395 0.31933 0.0
C693 C 0.51332 0.62941 0.30975 0.0
C694 C 0.54867 0.68 0.29197 0.0
C695 C 0.5506 0.67943 0.3105 0.0
C696 C 0.52978 0.65573 0.28249 0.0
C697 C 0.45141 0.52481 0.22955 0.0
C698 C 0.48407 0.54741 0.20461 0.0
C699 C 0.44773 0.49822 0.20285 0.0
C700 C 0.43827 0.4996 0.21989 0.0
C701 C 0.47065 0.52211 0.19483 0.0
C702 C 0.47448 0.54879 0.22175 0.0
C703 C 0.43992 0.52494 0.24746 0.0
O704 O 0.43352 0.52911 0.30163 0.0
O705 O 0.4097 0.54849 0.29058 0.0
O706 O 0.43007 0.5423 0.25014 0.0
O707 O 0.45386 0.52286 0.26121 0.0
H708 H 0.38052 0.47953 0.2877 0.0
H709 H 0.33532 0.43892 0.29826 0.0
H710 H 0.33439 0.48821 0.34227 0.0
H711 H 0.37894 0.52864 0.33146 0.0
H712 H 0.53309 0.65277 0.33359 0.0
H713 H 0.50011 0.6099 0.31683 0.0
H714 H 0.56218 0.69927 0.28473 0.0
H715 H 0.52947 0.6569 0.2682 0.0
H716 H 0.50186 0.56622 0.19894 0.0
H717 H 0.43736 0.47817 0.19609 0.0
H718 H 0.42055 0.48075 0.22559 0.0
H719 H 0.48503 0.56852 0.22887 0.0
Gd720 Gd 0.52016 0.02043 0.04276 0.0
Gd721 Gd 0.50156 0.99063 0.99765 0.0
C722 C 0.41201 0.91325 0.99132 0.0
C723 C 0.42359 0.87724 0.9831 0.0
C724 C 0.46186 0.92545 0.98789 0.0
C725 C 0.44172 0.9332 0.992 0.0
C726 C 0.45304 0.89763 0.98274 0.0
C727 C 0.40309 0.88504 0.98743 0.0
C728 C 0.39219 0.92248 0.99393 0.0
C729 C 0.4022 0.95113 0.99629 0.0
N730 N 0.45115 0.96068 0.99551 0.0
C731 C 0.43192 0.97011 0.99678 0.0
H732 H 0.43927 0.99212 0.99881 0.0
C733 C 0.51019 0.94042 0.98033 0.0
N734 N 0.49002 0.94572 0.98756 0.0
C735 C 0.50258 0.91314 0.97508 0.0
C736 C 0.47396 0.89149 0.97666 0.0
H737 H 0.53232 0.95719 0.97914 0.0
H738 H 0.38038 0.86932 0.98711 0.0
H739 H 0.58168 0.01732 0.04253 0.0
H740 H 0.36918 0.90782 0.99358 0.0
H741 H 0.38706 0.95861 0.99786 0.0
H742 H 0.41639 0.85564 0.97945 0.0
H743 H 0.48953 0.05537 0.05933 0.0
H744 H 0.65275 0.10061 0.04945 0.0
H745 H 0.63394 0.04979 0.04461 0.0
H746 H 0.60701 0.1545 0.0625 0.0
H747 H 0.51876 0.90883 0.96984 0.0
H748 H 0.46808 0.8704 0.97253 0.0
H749 H 0.64248 0.13973 0.05579 0.0
H750 H 0.50389 0.10381 0.06881 0.0
N751 N 0.57058 0.04935 0.04573 0.0
C752 C 0.62968 0.08641 0.04858 0.0
C753 C 0.61914 0.05773 0.04593 0.0
C754 C 0.61027 0.09624 0.05077 0.0
C755 C 0.58046 0.07687 0.04941 0.0
C756 C 0.58936 0.03933 0.04478 0.0
N757 N 0.53223 0.06554 0.05272 0.0
C758 C 0.56061 0.08524 0.05305 0.0
C759 C 0.52006 0.09892 0.06431 0.0
C760 C 0.54906 0.11993 0.06366 0.0
C761 C 0.51202 0.07155 0.05901 0.0
C762 C 0.56984 0.1131 0.05832 0.0
H763 H 0.55526 0.14109 0.06782 0.0
O764 O 0.49578 0.01035 0.06741 0.0
O765 O 0.48722 0.98583 0.02595 0.0
O766 O 0.49038 0.02538 1.00125 0.0
O767 O 0.51361 0.05175 0.02643 0.0
O768 O 0.4724 0.00471 0.04324 0.0
O769 O 0.53206 1.00369 0.06548 0.0
O770 O 0.52708 1.0041 0.9734 0.0
O771 O 0.53453 0.02503 1.01457 0.0
O772 O 0.53085 0.98535 0.03953 0.0
O773 O 0.51128 0.96075 1.01311 0.0
O774 O 0.54928 0.00646 0.99695 0.0
O775 O 0.48681 1.00375 0.97444 0.0
C776 C 0.46448 0.98429 0.0322 0.0
C777 C 0.59947 0.13288 0.05872 0.0
C778 C 0.61967 0.12447 0.05491 0.0
C779 C 0.51191 1.00241 0.07574 0.0
C780 C 0.52038 0.01255 0.09418 0.0
C781 C 0.54042 0.04095 0.09722 0.0
C782 C 0.50871 0.99395 0.10886 0.0
C783 C 0.51717 1.00386 0.12643 0.0
C784 C 0.54872 0.05086 0.11439 0.0
C785 C 0.53728 0.03262 0.12882 0.0
C786 C 0.49956 0.04809 1.01127 0.0
C787 C 0.55722 0.02632 1.00842 0.0
C788 C 0.50876 0.00855 0.96462 0.0
C789 C 0.50256 0.9982 0.9461 0.0
C790 C 0.48605 0.96922 0.94289 0.0
C791 C 0.51337 0.01707 0.93149 0.0
C792 C 0.50818 0.00674 0.9139 0.0
C793 C 0.48069 0.95901 0.92563 0.0
C794 C 0.49166 0.97749 0.9113 0.0
C795 C 0.52424 0.96406 0.02864 0.0
H796 H 0.54973 0.0555 0.08628 0.0
H797 H 0.49352 0.97189 0.10656 0.0
H798 H 0.56413 0.07288 0.11656 0.0
H799 H 0.544 0.0412 0.14197 0.0
H800 H 0.47723 0.95444 0.95373 0.0
H801 H 0.52605 0.03953 0.9338 0.0
H802 H 0.4679 0.93657 0.92334 0.0
H803 H 0.4869 0.96888 0.89806 0.0
Gd804 Gd 0.99386 0.49969 0.04348 0.0
Gd805 Gd 0.02526 0.51452 0.99934 0.0
C806 C 0.09962 0.49707 0.99337 0.0
C807 C 0.13981 0.54357 0.98659 0.0
C808 C 0.09192 0.53695 0.99146 0.0
C809 C 0.08127 0.50857 0.99444 0.0
C810 C 0.12109 0.55461 0.98687 0.0
C811 C 0.12911 0.51486 0.98989 0.0
C812 C 0.08764 0.46795 0.99539 0.0
C813 C 0.05791 0.45103 0.99786 0.0
N814 N 0.05267 0.49198 0.99766 0.0
C815 C 0.04061 0.46346 0.99885 0.0
H816 H 0.01771 0.45029 1.00085 0.0
C817 C 0.08161 0.57355 0.98605 0.0
N818 N 0.07323 0.54687 0.99177 0.0
C819 C 0.11033 0.5919 0.98137 0.0
C820 C 0.13029 0.58252 0.98205 0.0
H821 H 0.06615 0.58078 0.98553 0.0
H822 H 0.14363 0.50648 0.98923 0.0
H823 H 0.99251 0.56062 0.04937 0.0
H824 H 0.10101 0.45829 0.99471 0.0
H825 H 0.04835 0.42844 0.99915 0.0
H826 H 0.1624 0.55688 0.98334 0.0
H827 H 0.95491 0.43115 0.0571 0.0
H828 H 0.90532 0.54207 0.04463 0.0
H829 H 0.9571 0.57647 0.04869 0.0
H830 H 0.85155 0.44156 0.04526 0.0
H831 H 0.11707 0.61323 0.97726 0.0
H832 H 0.15251 0.59674 0.97839 0.0
H833 H 0.86613 0.49164 0.04267 0.0
H834 H 0.90391 0.39399 0.05876 0.0
N835 N 0.96162 0.51734 0.04507 0.0
C836 C 0.92086 0.53487 0.04491 0.0
C837 C 0.95004 0.55433 0.04725 0.0
C838 C 0.91195 0.50622 0.04391 0.0
C839 C 0.93308 0.49794 0.04434 0.0
C840 C 0.97019 0.54515 0.0475 0.0
N841 N 0.9457 0.46277 0.04799 0.0
C842 C 0.92487 0.46974 0.04572 0.0
C843 C 0.90946 0.41513 0.05487 0.0
C844 C 0.88783 0.4214 0.05083 0.0
C845 C 0.93836 0.43632 0.05392 0.0
C846 C 0.89534 0.44916 0.04679 0.0
H847 H 0.86542 0.40501 0.05175 0.0
O848 O 0.9963 0.47829 0.06724 0.0
O849 O 0.02407 0.49409 0.02529 0.0
O850 O 0.98392 0.47243 0.99946 0.0
O851 O 0.9761 0.45774 0.02871 0.0
O852 O 0.03839 0.50855 0.05054 0.0
O853 O 1.0014 0.52003 0.06908 0.0
O854 O 0.01834 0.5308 0.97454 0.0
O855 O 0.98895 0.5113 1.01564 0.0
O856 O 0.02539 0.54679 0.04044 0.0
O857 O 0.05572 0.55116 0.01711 0.0
O858 O 0.01106 0.54681 0.99997 0.0
O859 O 0.01243 0.48903 0.97545 0.0
C860 C 0.04524 0.50192 0.03592 0.0
C861 C 0.8743 0.45715 0.04481 0.0
C862 C 0.8826 0.48566 0.04337 0.0
C863 C 1.0012 0.49919 0.07763 0.0
C864 C 0.98792 0.4925 0.09537 0.0
C865 C 0.9579 0.47821 0.09732 0.0
C866 C 1.0057 0.501 0.11059 0.0
C867 C 0.99357 0.49496 0.12774 0.0
C868 C 0.94572 0.47223 0.11417 0.0
C869 C 0.96329 0.48045 0.12923 0.0
C870 C 0.97037 0.4528 1.01159 0.0
C871 C 0.98908 0.53338 1.01024 0.0
C872 C 0.01209 0.50831 0.96552 0.0
C873 C 0.0251 0.51252 0.94776 0.0
C874 C 0.05474 0.52262 0.94598 0.0
C875 C 1.00784 0.50658 0.9324 0.0
C876 C 0.02036 0.51123 0.9154 0.0
C877 C 0.06717 0.52716 0.92925 0.0
C878 C 0.05022 0.52168 0.91409 0.0
C879 C 0.04999 0.56106 0.0316 0.0
H880 H 0.94392 0.47177 0.08583 0.0
H881 H 0.02893 0.51264 0.10902 0.0
H882 H 0.92249 0.46108 0.11559 0.0
H883 H 0.95311 0.47513 0.14209 0.0
H884 H 0.0683 0.52702 0.9575 0.0
H885 H 0.98491 0.49886 0.93366 0.0
H886 H 0.09011 0.53505 0.92802 0.0
H887 H 0.06044 0.52541 0.90127 0.0
Gd888 Gd 0.50043 0.51446 0.99963 0.0
Gd889 Gd 0.51795 0.49636 0.04324 0.0
C890 C 0.60695 0.50531 0.05066 0.0
C891 C 0.59482 0.45701 0.05657 0.0
C892 C 0.55689 0.4685 0.0518 0.0
C893 C 0.57732 0.49642 0.04922 0.0
C894 C 0.56534 0.44859 0.05603 0.0
C895 C 0.6156 0.48534 0.05384 0.0
C896 C 0.62692 0.53411 0.04948 0.0
C897 C 0.61707 0.55326 0.04773 0.0
N898 N 0.56814 0.51514 0.04642 0.0
C899 C 0.58743 0.54339 0.04649 0.0
H900 H 0.58025 0.55849 0.04498 0.0
C901 C 0.50781 0.43487 0.0564 0.0
N902 N 0.52868 0.46119 0.05133 0.0
C903 C 0.51507 0.41431 0.06066 0.0
C904 C 0.54394 0.42107 0.0602 0.0
H905 H 0.48544 0.42955 0.05659 0.0
H906 H 0.63827 0.49171 0.05478 0.0
H907 H 0.43648 0.45429 0.99797 0.0
H908 H 0.64988 0.5418 0.05045 0.0
H909 H 0.63229 0.57563 0.04721 0.0
H910 H 0.60176 0.44196 0.05959 0.0
H911 H 0.53605 0.58131 0.98605 0.0
H912 H 0.36989 0.4754 0.99264 0.0
H913 H 0.3849 0.43961 0.99587 0.0
H914 H 0.42254 0.57522 0.98322 0.0
H915 H 0.4984 0.39326 0.06423 0.0
H916 H 0.54953 0.40514 0.06355 0.0
H917 H 0.38417 0.52621 0.98815 0.0
H918 H 0.52563 0.6193 0.97839 0.0
N919 N 0.45071 0.49811 0.99665 0.0
C920 C 0.39261 0.482 0.99362 0.0
C921 C 0.401 0.46173 0.99536 0.0
C922 C 0.41371 0.51046 0.9924 0.0
C923 C 0.44297 0.51791 0.99385 0.0
C924 C 0.43033 0.47018 0.99655 0.0
N925 N 0.49228 0.55135 0.99159 0.0
C926 C 0.46447 0.54543 0.99115 0.0
C927 C 0.50824 0.59867 0.98207 0.0
C928 C 0.47985 0.59338 0.98258 0.0
C929 C 0.51407 0.57715 0.98637 0.0
C930 C 0.45746 0.56635 0.98684 0.0
H931 H 0.47537 0.61004 0.97918 0.0
O932 O 0.52653 0.52772 0.97561 0.0
O933 O 0.53293 0.50949 1.01548 0.0
O934 O 0.52953 0.54249 0.04192 0.0
O935 O 0.50646 0.54977 0.01779 0.0
O936 O 0.54838 0.54481 0.99971 0.0
O937 O 0.48504 0.48991 0.97545 0.0
O938 O 0.49299 0.4807 0.06762 0.0
O939 O 0.48522 0.50082 0.02735 0.0
O940 O 0.48728 0.46793 1.00125 0.0
O941 O 0.51173 0.46109 0.02476 0.0
O942 O 0.47018 0.46541 0.04297 0.0
O943 O 0.5304 0.52217 0.06694 0.0
C944 C 0.5559 0.53085 1.01011 0.0
C945 C 0.42838 0.55938 0.98631 0.0
C946 C 0.40653 0.53147 0.98912 0.0
C947 C 0.50766 0.50679 0.96615 0.0
C948 C 0.5025 0.51333 0.9479 0.0
C949 C 0.4865 0.52692 0.94517 0.0
C950 C 0.51374 0.50623 0.93307 0.0
C951 C 0.50933 0.5132 0.9157 0.0
C952 C 0.48198 0.53369 0.9281 0.0
C953 C 0.49334 0.52704 0.91353 0.0
C954 C 0.52042 0.5576 0.03307 0.0
C955 C 0.46238 0.47921 0.03263 0.0
C956 C 0.5095 0.50338 0.07663 0.0
C957 C 0.51698 0.49973 0.095 0.0
C958 C 0.53608 0.48963 0.09795 0.0
C959 C 0.50562 0.50697 0.10972 0.0
C960 C 0.51351 0.50421 0.12726 0.0
C961 C 0.54383 0.48674 0.11513 0.0
C962 C 0.53275 0.49395 0.12961 0.0
C963 C 0.49704 0.45299 1.00967 0.0
H964 H 0.47754 0.53236 0.95624 0.0
H965 H 0.52626 0.49586 0.93507 0.0
H966 H 0.46963 0.54423 0.92615 0.0
H967 H 0.48946 0.53259 0.90045 0.0
H968 H 0.54511 0.4841 0.08695 0.0
H969 H 0.49114 0.51514 0.10748 0.0
H970 H 0.55857 0.47886 0.11725 0.0
H971 H 0.53905 0.49115 0.14275 0.0
Gd972 Gd 0.18457 0.35126 0.37609 0.0
Gd973 Gd 0.16601 0.32257 0.33106 0.0
C974 C 0.08102 0.24178 0.31993 0.0
C975 C 0.09762 0.2109 0.30867 0.0
C976 C 0.13221 0.25874 0.3175 0.0
C977 C 0.10995 0.26329 0.32213 0.0
C978 C 0.12632 0.23284 0.31011 0.0
C979 C 0.075 0.21531 0.31367 0.0
C980 C 0.05906 0.24786 0.32343 0.0
C981 C 0.06626 0.27519 0.3281 0.0
N982 N 0.11659 0.28934 0.32767 0.0
C983 C 0.09529 0.29591 0.32981 0.0
H984 H 0.10041 0.31688 0.33346 0.0
C985 C 0.1822 0.27813 0.31261 0.0
N986 N 0.15964 0.28037 0.3191 0.0
C987 C 0.17746 0.25293 0.30505 0.0
C988 C 0.14941 0.23009 0.30393 0.0
H989 H 0.20393 0.29572 0.31342 0.0
H990 H 0.05292 0.19844 0.31207 0.0
H991 H 0.24843 0.35288 0.37534 0.0
H992 H 0.03657 0.23189 0.322 0.0
H993 H 0.04947 0.28034 0.3304 0.0
H994 H 0.09267 0.19069 0.30328 0.0
H995 H 0.14986 0.38279 0.39214 0.0
H996 H 0.31562 0.43795 0.38287 0.0
H997 H 0.30008 0.38791 0.37741 0.0
H998 H 0.26406 0.48619 0.39637 0.0
H999 H 0.19544 0.25113 0.30013 0.0
H1000 H 0.14578 0.21059 0.29808 0.0
H1001 H 0.30195 0.47463 0.38966 0.0
H1002 H 0.16097 0.43033 0.40158 0.0
N1003 N 0.23449 0.38269 0.37922 0.0
C1004 C 0.29283 0.42261 0.38203 0.0
C1005 C 0.28414 0.39438 0.379 0.0
C1006 C 0.27196 0.43053 0.38454 0.0
C1007 C 0.2426 0.40974 0.38321 0.0
C1008 C 0.25472 0.37452 0.37787 0.0
N1009 N 0.1935 0.39537 0.38629 0.0
C1010 C 0.22139 0.4163 0.38688 0.0
C1011 C 0.17817 0.4267 0.3974 0.0
C1012 C 0.20667 0.44888 0.39713 0.0
C1013 C 0.17196 0.39983 0.39213 0.0
C1014 C 0.22877 0.44374 0.3921 0.0
H1015 H 0.21144 0.46968 0.40122 0.0
O1016 O 0.16081 0.33979 0.40101 0.0
O1017 O 0.15145 0.31642 0.35938 0.0
O1018 O 0.15029 0.35365 0.33626 0.0
O1019 O 0.17733 0.38207 0.35971 0.0
O1020 O 0.13672 0.33474 0.37716 0.0
O1021 O 0.19809 0.33493 0.39828 0.0
O1022 O 0.19087 0.33815 0.30664 0.0
O1023 O 0.19885 0.35727 0.3479 0.0
O1024 O 0.19826 0.31837 0.37135 0.0
O1025 O 0.17332 0.29129 0.3468 0.0
O1026 O 0.21412 0.33971 0.33009 0.0
O1027 O 0.15054 0.33748 0.30909 0.0
C1028 C 0.12871 0.31469 0.36586 0.0
C1029 C 0.25794 0.46488 0.39261 0.0
C1030 C 0.27951 0.45829 0.3888 0.0
C1031 C 0.17799 0.33279 0.40894 0.0
C1032 C 0.187 0.34328 0.42729 0.0
C1033 C 0.20735 0.37171 0.42999 0.0
C1034 C 0.1757 0.32509 0.4422 0.0
C1035 C 0.18525 0.3354 0.45957 0.0
C1036 C 0.2164 0.38203 0.44702 0.0
C1037 C 0.20552 0.36415 0.46163 0.0
C1038 C 0.16069 0.37718 0.34558 0.0
C1039 C 0.22182 0.3595 0.34154 0.0
C1040 C 0.17203 0.34279 0.29867 0.0
C1041 C 0.16479 0.33292 0.28006 0.0
C1042 C 0.14566 0.30438 0.27674 0.0
C1043 C 0.17687 0.35174 0.26551 0.0
C1044 C 0.16984 0.34182 0.24782 0.0
C1045 C 0.13873 0.2945 0.25948 0.0
C1046 C 0.15063 0.31292 0.24519 0.0
C1047 C 0.18877 0.29545 0.36143 0.0
H1048 H 0.21633 0.38597 0.41889 0.0
H1049 H 0.16 0.30305 0.44028 0.0
H1050 H 0.23202 0.40408 0.44891 0.0
H1051 H 0.21286 0.37293 0.47468 0.0
H1052 H 0.13592 0.28967 0.28753 0.0
H1053 H 0.19182 0.37382 0.26796 0.0
H1054 H 0.12387 0.27238 0.25713 0.0
H1055 H 0.14436 0.3045 0.23197 0.0
Gd1056 Gd 0.65775 0.83112 0.37679 0.0
Gd1057 Gd 0.69372 0.84704 0.33377 0.0
C1058 C 0.77864 0.84742 0.32564 0.0
C1059 C 0.8109 0.89566 0.31637 0.0
C1060 C 0.76065 0.87992 0.32297 0.0
C1061 C 0.756 0.85346 0.32708 0.0
C1062 C 0.7879 0.9011 0.317 0.0
C1063 C 0.80631 0.86888 0.32077 0.0
C1064 C 0.77255 0.81977 0.32851 0.0
C1065 C 0.74421 0.79877 0.33183 0.0
N1066 N 0.72887 0.83316 0.33138 0.0
C1067 C 0.72245 0.80578 0.33289 0.0
H1068 H 0.70077 0.78929 0.33562 0.0
C1069 C 0.74057 0.90913 0.31776 0.0
N1070 N 0.73796 0.8844 0.32374 0.0
C1071 C 0.76709 0.93072 0.31157 0.0
C1072 C 0.79095 0.9268 0.31135 0.0
H1073 H 0.72225 0.91236 0.31792 0.0
H1074 H 0.82404 0.86472 0.31978 0.0
H1075 H 0.65377 0.89051 0.37776 0.0
H1076 H 0.78936 0.81427 0.32764 0.0
H1077 H 0.73909 0.77716 0.33365 0.0
H1078 H 0.83211 0.91179 0.31206 0.0
H1079 H 0.62541 0.76388 0.3899 0.0
H1080 H 0.5649 0.86753 0.38109 0.0
H1081 H 0.61637 0.90412 0.37883 0.0
H1082 H 0.51678 0.76759 0.38981 0.0
H1083 H 0.76913 0.95039 0.30705 0.0
H1084 H 0.81149 0.94356 0.30658 0.0
H1085 H 0.52777 0.81639 0.38489 0.0
H1086 H 0.57607 0.72506 0.39631 0.0
N1087 N 0.62388 0.84649 0.37898 0.0
C1088 C 0.58126 0.8614 0.38065 0.0
C1089 C 0.61029 0.88211 0.37945 0.0
C1090 C 0.57379 0.8331 0.38197 0.0
C1091 C 0.59594 0.82628 0.38127 0.0
C1092 C 0.63147 0.87426 0.37887 0.0
N1093 N 0.61189 0.79357 0.38424 0.0
C1094 C 0.58973 0.79891 0.38403 0.0
C1095 C 0.57959 0.7457 0.39279 0.0
C1096 C 0.5563 0.75049 0.39169 0.0
C1097 C 0.60747 0.76771 0.38924 0.0
C1098 C 0.56125 0.77747 0.38755 0.0
H1099 H 0.53473 0.73343 0.39448 0.0
O1100 O 0.66632 0.81753 0.40213 0.0
O1101 O 0.69622 0.83642 0.36206 0.0
O1102 O 0.66227 0.7999 0.33724 0.0
O1103 O 0.62868 0.79528 0.35826 0.0
O1104 O 0.67632 0.80213 0.37869 0.0
O1105 O 0.67083 0.85874 0.39968 0.0
O1106 O 0.6816 0.85788 0.30857 0.0
O1107 O 0.65563 0.84241 0.3487 0.0
O1108 O 0.69109 0.87815 0.37418 0.0
O1109 O 0.7229 0.88414 0.35132 0.0
O1110 O 0.6761 0.87679 0.33232 0.0
O1111 O 0.67918 0.81771 0.3118 0.0
C1112 C 0.69816 0.81596 0.36844 0.0
C1113 C 0.53887 0.78383 0.38734 0.0
C1114 C 0.54513 0.81162 0.38453 0.0
C1115 C 0.67204 0.84059 0.41033 0.0
C1116 C 0.65913 0.83738 0.42806 0.0
C1117 C 0.62947 0.8273 0.42967 0.0
C1118 C 0.67646 0.84464 0.44349 0.0
C1119 C 0.66415 0.84216 0.4604 0.0
C1120 C 0.61715 0.82439 0.44631 0.0
C1121 C 0.63424 0.83168 0.46152 0.0
C1122 C 0.63641 0.78539 0.34464 0.0
C1123 C 0.6544 0.86344 0.34271 0.0
C1124 C 0.67621 0.83456 0.3009 0.0
C1125 C 0.68794 0.83693 0.28292 0.0
C1126 C 0.71688 0.84434 0.28067 0.0
C1127 C 0.67005 0.8311 0.26788 0.0
C1128 C 0.68107 0.83248 0.25071 0.0
C1129 C 0.7279 0.84586 0.26378 0.0
C1130 C 0.7102 0.83993 0.24894 0.0
C1131 C 0.71603 0.89331 0.36572 0.0
H1132 H 0.61584 0.82167 0.41807 0.0
H1133 H 0.69943 0.85253 0.44232 0.0
H1134 H 0.59418 0.81639 0.44742 0.0
H1135 H 0.62393 0.82879 0.47425 0.0
H1136 H 0.73091 0.84873 0.29197 0.0
H1137 H 0.64757 0.82504 0.26958 0.0
H1138 H 0.75028 0.8516 0.26218 0.0
H1139 H 0.71942 0.84143 0.23599 0.0
Gd1140 Gd 0.16792 0.84828 0.33161 0.0
Gd1141 Gd 0.18499 0.83099 0.37556 0.0
C1142 C 0.27316 0.83829 0.3837 0.0
C1143 C 0.2601 0.78972 0.38956 0.0
C1144 C 0.22285 0.80209 0.38461 0.0
C1145 C 0.24366 0.82989 0.38213 0.0
C1146 C 0.23076 0.78176 0.38879 0.0
C1147 C 0.28128 0.81795 0.38699 0.0
C1148 C 0.29355 0.86694 0.38238 0.0
C1149 C 0.28424 0.88646 0.38026 0.0
N1150 N 0.23501 0.84894 0.37903 0.0
C1151 C 0.25472 0.87708 0.37884 0.0
H1152 H 0.24799 0.89247 0.37703 0.0
C1153 C 0.17344 0.76876 0.38841 0.0
N1154 N 0.19478 0.79519 0.38384 0.0
C1155 C 0.18017 0.74781 0.39259 0.0
C1156 C 0.20894 0.75423 0.39254 0.0
H1157 H 0.15115 0.76368 0.38825 0.0
H1158 H 0.30384 0.82394 0.38803 0.0
H1159 H 0.10231 0.78957 0.33106 0.0
H1160 H 0.31642 0.87426 0.38345 0.0
H1161 H 0.29979 0.90873 0.37959 0.0
H1162 H 0.26663 0.77436 0.39256 0.0
H1163 H 0.20494 0.91315 0.31519 0.0
H1164 H 0.03826 0.81368 0.32448 0.0
H1165 H 0.05138 0.7767 0.3288 0.0
H1166 H 0.09412 0.91246 0.31209 0.0
H1167 H 0.16317 0.72672 0.39578 0.0
H1168 H 0.21412 0.73799 0.39581 0.0
H1169 H 0.05446 0.86461 0.31857 0.0
H1170 H 0.19639 0.95158 0.30558 0.0
N1171 N 0.11839 0.83363 0.32858 0.0
C1172 C 0.06078 0.81949 0.32548 0.0
C1173 C 0.0681 0.79857 0.32781 0.0
C1174 C 0.08266 0.84753 0.32366 0.0
C1175 C 0.11162 0.85395 0.32516 0.0
C1176 C 0.09716 0.806 0.32902 0.0
N1177 N 0.16112 0.8854 0.32197 0.0
C1178 C 0.13378 0.88077 0.32165 0.0
C1179 C 0.1786 0.93185 0.31024 0.0
C1180 C 0.15079 0.92805 0.31095 0.0
C1181 C 0.18336 0.91006 0.31565 0.0
C1182 C 0.12783 0.90206 0.31637 0.0
H1183 H 0.14714 0.94494 0.30672 0.0
O1184 O 0.19314 0.86006 0.30722 0.0
O1185 O 0.2001 0.84299 0.3477 0.0
O1186 O 0.19765 0.87729 0.37379 0.0
O1187 O 0.1763 0.88538 0.34898 0.0
O1188 O 0.21609 0.87778 0.33147 0.0
O1189 O 0.1532 0.82084 0.30859 0.0
O1190 O 0.16107 0.8153 0.40028 0.0
O1191 O 0.1527 0.83605 0.35953 0.0
O1192 O 0.15192 0.80133 0.33443 0.0
O1193 O 0.17764 0.79514 0.35724 0.0
O1194 O 0.13714 0.80089 0.37552 0.0
O1195 O 0.19626 0.85797 0.39869 0.0
C1196 C 0.22329 0.86388 0.3421 0.0
C1197 C 0.09913 0.8963 0.3159 0.0
C1198 C 0.07656 0.86906 0.31958 0.0
C1199 C 0.17477 0.83773 0.29858 0.0
C1200 C 0.1677 0.84202 0.28024 0.0
C1201 C 0.14955 0.85327 0.27743 0.0
C1202 C 0.17863 0.83454 0.26542 0.0
C1203 C 0.17097 0.83797 0.24797 0.0
C1204 C 0.14238 0.85717 0.26032 0.0
C1205 C 0.15296 0.84965 0.24575 0.0
C1206 C 0.19006 0.89312 0.36439 0.0
C1207 C 0.12971 0.81479 0.36503 0.0
C1208 C 0.17658 0.83875 0.40883 0.0
C1209 C 0.18554 0.83668 0.42713 0.0
C1210 C 0.20657 0.82892 0.42985 0.0
C1211 C 0.17384 0.84326 0.44199 0.0
C1212 C 0.18365 0.84255 0.45934 0.0
C1213 C 0.21596 0.82777 0.4469 0.0
C1214 C 0.20471 0.83454 0.46148 0.0
C1215 C 0.16146 0.78618 0.34275 0.0
H1216 H 0.14084 0.85901 0.2885 0.0
H1217 H 0.19258 0.8257 0.26745 0.0
H1218 H 0.12849 0.86605 0.25832 0.0
H1219 H 0.14719 0.85322 0.23263 0.0
H1220 H 0.21585 0.82388 0.41875 0.0
H1221 H 0.15766 0.84941 0.44002 0.0
H1222 H 0.23217 0.82168 0.44883 0.0
H1223 H 0.21237 0.8333 0.47455 0.0
Gd1224 Gd 0.85102 0.68584 0.70969 0.0
Gd1225 Gd 0.8313 0.66014 0.66441 0.0
C1226 C 0.74703 0.57826 0.65597 0.0
C1227 C 0.76381 0.54698 0.64581 0.0
C1228 C 0.79844 0.59563 0.65319 0.0
C1229 C 0.77589 0.60032 0.6575 0.0
C1230 C 0.79242 0.56924 0.64648 0.0
C1231 C 0.7412 0.55141 0.6507 0.0
C1232 C 0.72476 0.58404 0.65909 0.0
C1233 C 0.73143 0.61157 0.66263 0.0
N1234 N 0.78198 0.62673 0.66202 0.0
C1235 C 0.76028 0.63289 0.66367 0.0
H1236 H 0.76485 0.65399 0.66633 0.0
C1237 C 0.84824 0.61493 0.64699 0.0
N1238 N 0.82606 0.61739 0.65411 0.0
C1239 C 0.84319 0.58928 0.64008 0.0
C1240 C 0.81522 0.56625 0.64 0.0
H1241 H 0.86997 0.63272 0.64708 0.0
H1242 H 0.71918 0.53419 0.64966 0.0
H1243 H 0.91664 0.68975 0.70648 0.0
H1244 H 0.70236 0.56762 0.65817 0.0
H1245 H 0.71434 0.61642 0.66454 0.0
H1246 H 0.75888 0.52645 0.64103 0.0
H1247 H 0.81495 0.71631 0.72639 0.0
H1248 H 0.98161 0.7748 0.71566 0.0
H1249 H 0.96753 0.72564 0.70863 0.0
H1250 H 0.9284 0.81986 0.73214 0.0
H1251 H 0.86087 0.58727 0.63484 0.0
H1252 H 0.81138 0.54638 0.63463 0.0
H1253 H 0.96682 0.80981 0.72413 0.0
H1254 H 0.82569 0.76283 0.73722 0.0
N1255 N 0.90096 0.71793 0.712 0.0
C1256 C 0.95896 0.75902 0.71482 0.0
C1257 C 0.9511 0.73128 0.71092 0.0
C1258 C 0.93753 0.7659 0.71812 0.0
C1259 C 0.9083 0.74461 0.71673 0.0
C1260 C 0.92191 0.71084 0.70976 0.0
N1261 N 0.85868 0.72935 0.72021 0.0
C1262 C 0.8866 0.75042 0.72107 0.0
C1263 C 0.843 0.75967 0.73263 0.0
C1264 C 0.8714 0.78193 0.73276 0.0
C1265 C 0.83701 0.73328 0.72653 0.0
C1266 C 0.89365 0.77743 0.72714 0.0
H1267 H 0.87596 0.80237 0.7375 0.0
O1268 O 0.83079 0.65042 0.72822 0.0
O1269 O 0.81637 0.65334 0.69261 0.0
O1270 O 0.81355 0.68909 0.67038 0.0
O1271 O 0.84199 0.71634 0.69386 0.0
O1272 O 0.80372 0.67257 0.71094 0.0
O1273 O 0.86216 0.69074 0.73786 0.0
O1274 O 0.85636 0.67046 0.6401 0.0
O1275 O 0.86906 0.68643 0.68289 0.0
O1276 O 0.86804 0.65618 0.70471 0.0
O1277 O 0.84565 0.63211 0.6788 0.0
O1278 O 0.86795 0.70364 0.65891 0.0
O1279 O 0.81437 0.66767 0.64 0.0
C1280 C 0.79435 0.65265 0.69942 0.0
C1281 C 0.92264 0.7989 0.72777 0.0
C1282 C 0.94451 0.79318 0.72321 0.0
C1283 C 0.84358 0.66502 0.74219 0.0
C1284 C 0.82496 0.661 0.75781 0.0
C1285 C 0.80283 0.66754 0.75626 0.0
C1286 C 0.82897 0.65076 0.77429 0.0
C1287 C 0.8112 0.64779 0.789 0.0
C1288 C 0.78519 0.66434 0.77059 0.0
C1289 C 0.78935 0.65466 0.78679 0.0
C1290 C 0.82506 0.71237 0.67997 0.0
C1291 C 0.88231 0.70821 0.67319 0.0
C1292 C 0.83696 0.67255 0.63061 0.0
C1293 C 0.83181 0.66122 0.61229 0.0
C1294 C 0.81843 0.63213 0.60954 0.0
C1295 C 0.84009 0.67945 0.59734 0.0
C1296 C 0.83478 0.66836 0.57992 0.0
C1297 C 0.81405 0.62121 0.59251 0.0
C1298 C 0.82223 0.63906 0.57787 0.0
C1299 C 0.86018 0.63489 0.6937 0.0
H1300 H 0.79907 0.67515 0.74392 0.0
H1301 H 0.84595 0.64558 0.77573 0.0
H1302 H 0.76819 0.66947 0.76915 0.0
H1303 H 0.77529 0.65241 0.7977 0.0
H1304 H 0.81127 0.61772 0.62052 0.0
H1305 H 0.85001 0.70197 0.59924 0.0
H1306 H 0.80404 0.59869 0.59064 0.0
H1307 H 0.81856 0.62985 0.56482 0.0
Gd1308 Gd 0.32519 0.16473 0.70927 0.0
Gd1309 Gd 0.36312 0.18214 0.66681 0.0
C1310 C 0.44743 0.18094 0.66073 0.0
C1311 C 0.48206 0.23041 0.65575 0.0
C1312 C 0.43117 0.21495 0.6595 0.0
C1313 C 0.42516 0.18756 0.6618 0.0
C1314 C 0.45959 0.23664 0.65608 0.0
C1315 C 0.47599 0.2026 0.65809 0.0
C1316 C 0.44021 0.15269 0.66188 0.0
C1317 C 0.41129 0.13184 0.66339 0.0
N1318 N 0.39732 0.16719 0.66423 0.0
C1319 C 0.38998 0.13948 0.66433 0.0
H1320 H 0.36783 0.12312 0.66576 0.0
C1321 C 0.41326 0.24628 0.6556 0.0
N1322 N 0.40894 0.22017 0.6598 0.0
C1323 C 0.44108 0.26854 0.65224 0.0
C1324 C 0.46442 0.26378 0.65268 0.0
H1325 H 0.39532 0.25011 0.65538 0.0
H1326 H 0.49343 0.19796 0.65742 0.0
H1327 H 0.31645 0.22117 0.70915 0.0
H1328 H 0.45668 0.14673 0.66119 0.0
H1329 H 0.40539 0.10988 0.664 0.0
H1330 H 0.50409 0.24682 0.65331 0.0
H1331 H 0.2967 0.09747 0.72206 0.0
H1332 H 0.2267 0.19343 0.71471 0.0
H1333 H 0.27705 0.23198 0.71086 0.0
H1334 H 0.18469 0.09427 0.72505 0.0
H1335 H 0.44451 0.28934 0.64932 0.0
H1336 H 0.48594 0.28103 0.65001 0.0
H1337 H 0.19231 0.14188 0.71984 0.0
H1338 H 0.24896 0.05706 0.72937 0.0
N1339 N 0.28893 0.177 0.71155 0.0
C1340 C 0.24398 0.18859 0.71397 0.0
C1341 C 0.27236 0.21041 0.71188 0.0
C1342 C 0.23839 0.16089 0.71569 0.0
C1343 C 0.26168 0.15576 0.71455 0.0
C1344 C 0.29472 0.20421 0.71098 0.0
N1345 N 0.28066 0.12544 0.71716 0.0
C1346 C 0.2574 0.1291 0.71751 0.0
C1347 C 0.25101 0.07719 0.72599 0.0
C1348 C 0.22667 0.08034 0.72568 0.0
C1349 C 0.27804 0.10016 0.72187 0.0
C1350 C 0.22972 0.10663 0.72165 0.0
H1351 H 0.20576 0.06254 0.72893 0.0
O1352 O 0.33679 0.15353 0.73445 0.0
O1353 O 0.36374 0.16988 0.69476 0.0
O1354 O 0.33025 0.135 0.66919 0.0
O1355 O 0.29632 0.12962 0.69031 0.0
O1356 O 0.34372 0.13566 0.71127 0.0
O1357 O 0.33658 0.19266 0.73192 0.0
O1358 O 0.35375 0.19585 0.64179 0.0
O1359 O 0.32449 0.17704 0.68121 0.0
O1360 O 0.35708 0.21216 0.70638 0.0
O1361 O 0.3918 0.21654 0.68617 0.0
O1362 O 0.3454 0.21183 0.66515 0.0
O1363 O 0.35074 0.15517 0.64367 0.0
C1364 C 0.36535 0.14915 0.70085 0.0
C1365 C 0.20619 0.11131 0.72205 0.0
C1366 C 0.21052 0.13841 0.71906 0.0
C1367 C 0.34048 0.17602 0.74253 0.0
C1368 C 0.32827 0.17201 0.76051 0.0
C1369 C 0.2986 0.16118 0.76279 0.0
C1370 C 0.34637 0.17903 0.77554 0.0
C1371 C 0.33481 0.17513 0.7928 0.0
C1372 C 0.28705 0.15736 0.77973 0.0
C1373 C 0.3049 0.16424 0.79459 0.0
C1374 C 0.30426 0.12026 0.67649 0.0
C1375 C 0.32332 0.19811 0.67524 0.0
C1376 C 0.34855 0.17312 0.63335 0.0
C1377 C 0.36087 0.17696 0.61545 0.0
C1378 C 0.39063 0.18836 0.61323 0.0
C1379 C 0.34275 0.16924 0.60041 0.0
C1380 C 0.35436 0.17316 0.58318 0.0
C1381 C 0.40225 0.19214 0.5963 0.0
C1382 C 0.38438 0.18468 0.58142 0.0
C1383 C 0.38334 0.22656 0.69936 0.0
H1384 H 0.28438 0.15569 0.75147 0.0
H1385 H 0.36937 0.18778 0.77376 0.0
H1386 H 0.26408 0.14892 0.78138 0.0
H1387 H 0.29517 0.16064 0.80756 0.0
H1388 H 0.40486 0.19434 0.62457 0.0
H1389 H 0.31968 0.15997 0.60219 0.0
H1390 H 0.42529 0.20105 0.59469 0.0
H1391 H 0.39416 0.18834 0.56847 0.0
Gd1392 Gd 0.83771 0.18339 0.66647 0.0
Gd1393 Gd 0.85275 0.16668 0.71094 0.0
C1394 C 0.93766 0.16625 0.7145 0.0
C1395 C 0.92127 0.11655 0.71849 0.0
C1396 C 0.88643 0.13275 0.71665 0.0
C1397 C 0.90872 0.16022 0.7143 0.0
C1398 C 0.89266 0.11086 0.71954 0.0
C1399 C 0.94373 0.14418 0.71593 0.0
C1400 C 0.95974 0.19436 0.71393 0.0
C1401 C 0.95277 0.21569 0.71412 0.0
N1402 N 0.90228 0.18123 0.71308 0.0
C1403 C 0.92382 0.20875 0.71399 0.0
H1404 H 0.91912 0.22569 0.71417 0.0
C1405 C 0.83747 0.10251 0.72406 0.0
N1406 N 0.85896 0.12783 0.7177 0.0
C1407 C 0.84257 0.08017 0.72693 0.0
C1408 C 0.87015 0.08417 0.72423 0.0
H1409 H 0.81593 0.09913 0.72596 0.0
H1410 H 0.96579 0.14841 0.71577 0.0
H1411 H 0.77783 0.12032 0.6659 0.0
H1412 H 0.9822 0.19982 0.71399 0.0
H1413 H 0.9697 0.23753 0.71427 0.0
H1414 H 0.92637 0.0999 0.72033 0.0
H1415 H 0.86724 0.25003 0.65311 0.0
H1416 H 0.70503 0.13224 0.65988 0.0
H1417 H 0.72517 0.10051 0.66351 0.0
H1418 H 0.74855 0.23182 0.65058 0.0
H1419 H 0.82521 0.05988 0.73119 0.0
H1420 H 0.87408 0.06685 0.72656 0.0
H1421 H 0.71397 0.18152 0.65546 0.0
H1422 H 0.85184 0.28455 0.64538 0.0
N1423 N 0.78741 0.16282 0.66389 0.0
C1424 C 0.72817 0.14104 0.66088 0.0
C1425 C 0.73946 0.12306 0.66286 0.0
C1426 C 0.74695 0.17011 0.65963 0.0
C1427 C 0.77687 0.18043 0.66108 0.0
C1428 C 0.76934 0.13437 0.66422 0.0
N1429 N 0.82477 0.21728 0.65899 0.0
C1430 C 0.79622 0.20865 0.65856 0.0
C1431 C 0.83597 0.26333 0.6492 0.0
C1432 C 0.80674 0.25528 0.64987 0.0
C1433 C 0.84461 0.24379 0.65355 0.0
C1434 C 0.78637 0.22747 0.65423 0.0
H1435 H 0.80007 0.27039 0.64642 0.0
O1436 O 0.86187 0.19986 0.64189 0.0
O1437 O 0.86949 0.17839 0.68315 0.0
O1438 O 0.87171 0.21378 0.70749 0.0
O1439 O 0.84557 0.21971 0.68482 0.0
O1440 O 0.88565 0.21371 0.66726 0.0
O1441 O 0.82537 0.15802 0.64254 0.0
O1442 O 0.82692 0.14857 0.73479 0.0
O1443 O 0.81746 0.16187 0.69211 0.0
O1444 O 0.83144 0.13961 0.66649 0.0
O1445 O 0.83166 0.12523 0.69548 0.0
O1446 O 0.81705 0.17542 0.71729 0.0
O1447 O 0.86819 0.18717 0.7363 0.0
C1448 C 0.89274 0.19936 0.67761 0.0
C1449 C 0.75658 0.21764 0.65367 0.0
C1450 C 0.73688 0.18899 0.65641 0.0
C1451 C 0.84568 0.17723 0.6328 0.0
C1452 C 0.83744 0.1809 0.61465 0.0
C1453 C 0.81855 0.19138 0.61219 0.0
C1454 C 0.8478 0.1732 0.59965 0.0
C1455 C 0.83888 0.17565 0.58237 0.0
C1456 C 0.81008 0.19426 0.5952 0.0
C1457 C 0.8201 0.18651 0.58046 0.0
C1458 C 0.8614 0.22849 0.69948 0.0
C1459 C 0.80383 0.16934 0.70248 0.0
C1460 C 0.84542 0.16878 0.74501 0.0
C1461 C 0.85028 0.16141 0.76311 0.0
C1462 C 0.86549 0.14698 0.76557 0.0
C1463 C 0.84089 0.17005 0.77815 0.0
C1464 C 0.84714 0.16461 0.79549 0.0
C1465 C 0.87123 0.14112 0.7826 0.0
C1466 C 0.86223 0.14983 0.79739 0.0
C1467 C 0.82867 0.12048 0.6782 0.0
H1468 H 0.81025 0.19724 0.62341 0.0
H1469 H 0.86227 0.16491 0.60145 0.0
H1470 H 0.79558 0.20251 0.59345 0.0
H1471 H 0.81331 0.18927 0.56745 0.0
H1472 H 0.87314 0.14045 0.75434 0.0
H1473 H 0.82938 0.18149 0.77637 0.0
H1474 H 0.88291 0.12986 0.78435 0.0
H1475 H 0.86695 0.14484 0.81041 0.0
C1476 C 0.38662 0.93579 0.04669 0.0
C1477 C 0.38379 0.90883 0.04748 0.0
C1478 C 0.41232 0.95956 0.04098 0.0
C1479 C 0.43651 0.95764 0.03565 0.0
H1480 H 0.36879 0.93863 0.05061 0.0
H1481 H 0.41341 0.97983 0.04097 0.0
S1482 S 0.44118 0.89232 0.03582 0.0
N1483 N 0.40805 0.88189 0.04264 0.0
N1484 N 0.45613 0.92647 0.03213 0.0
C1485 C 0.43402 0.93084 0.03625 0.0
C1486 C 0.40776 0.90653 0.04203 0.0
C1487 C 0.1195 0.51001 0.0415 0.0
C1488 C 0.11352 0.4826 0.04606 0.0
C1489 C 0.09735 0.51572 0.03691 0.0
C1490 C 0.0683 0.49424 0.03607 0.0
H1491 H 0.14138 0.52751 0.04226 0.0
H1492 H 0.10292 0.53734 0.03457 0.0
S1493 S 0.04069 0.41878 0.04595 0.0
N1494 N 0.07596 0.4335 0.04869 0.0
N1495 N 0.03463 0.44451 0.04028 0.0
C1496 C 0.06199 0.46672 0.0402 0.0
C1497 C 0.08448 0.46083 0.04501 0.0
C1498 C 0.54125 0.63475 0.03982 0.0
C1499 C 0.53865 0.6363 0.05826 0.0
C1500 C 0.53477 0.60917 0.03157 0.0
C1501 C 0.52541 0.58425 0.04146 0.0
H1502 H 0.5492 0.65359 0.03181 0.0
H1503 H 0.53807 0.60918 0.01749 0.0
S1504 S 0.51076 0.57626 0.08967 0.0
N1505 N 0.52326 0.61005 0.08579 0.0
N1506 N 0.51078 0.56234 0.07039 0.0
C1507 C 0.52144 0.58539 0.05975 0.0
C1508 C 0.5281 0.61127 0.0681 0.0
C1509 C 0.91314 0.39683 0.98157 0.0
C1510 C 0.90702 0.37094 0.98925 0.0
C1511 C 0.93297 0.42277 0.9892 0.0
C1512 C 0.94773 0.42439 1.00503 0.0
H1513 H 0.90269 0.39714 0.96935 0.0
H1514 H 0.93692 0.44185 0.98246 0.0
S1515 S 0.93972 0.36317 0.03083 0.0
N1516 N 0.91743 0.3488 1.01395 0.0
N1517 N 0.95454 0.39758 0.02829 0.0
C1518 C 0.94133 0.39879 1.01322 0.0
C1519 C 0.92106 0.37216 1.00537 0.0
C1520 C 0.61247 0.50941 0.99951 0.0
C1521 C 0.63723 0.5354 0.99526 0.0
C1522 C 0.58651 0.50785 1.00515 0.0
C1523 C 0.58427 0.53227 1.00696 0.0
H1524 H 0.61283 0.48996 0.99793 0.0
H1525 H 0.56785 0.48734 1.00754 0.0
S1526 S 0.64342 0.60564 0.99988 0.0
N1527 N 0.65815 0.58624 0.9951 0.0
N1528 N 0.60966 0.58325 1.00531 0.0
C1529 C 0.60909 0.55833 1.00342 0.0
C1530 C 0.63543 0.55994 0.99774 0.0
C1531 C 0.48457 0.1095 1.01001 0.0
C1532 C 0.48477 0.11523 0.99179 0.0
C1533 C 0.48934 0.08788 1.01624 0.0
C1534 C 0.49453 0.07102 1.00456 0.0
H1535 H 0.48035 0.12164 0.01957 0.0
H1536 H 0.4884 0.08407 0.0303 0.0
S1537 S 0.49991 0.0789 0.95568 0.0
N1538 N 0.4923 0.10314 0.96222 0.0
N1539 N 0.50122 0.06279 0.97385 0.0
C1540 C 0.49516 0.07678 0.98632 0.0
C1541 C 0.4903 0.09876 0.97998 0.0
C1542 C 0.615 0.10321 0.99979 0.0
C1543 C 0.63927 0.10098 0.99484 0.0
C1544 C 0.58881 0.07941 1.00516 0.0
C1545 C 0.5859 0.05243 1.00596 0.0
H1546 H 0.61589 0.12335 0.99892 0.0
H1547 H 0.57047 0.08202 1.00805 0.0
S1548 S 0.64363 0.0355 0.99684 0.0
N1549 N 0.65906 0.06966 0.99301 0.0
N1550 N 0.61014 0.02532 1.00268 0.0
C1551 C 0.61027 0.05016 1.00177 0.0
C1552 C 0.63682 0.07425 0.99638 0.0
C1553 C 0.91367 0.51565 0.99438 0.0
C1554 C 0.91642 0.54253 0.99228 0.0
C1555 C 0.93647 0.51234 1.0013 0.0
C1556 C 0.9629 0.53579 1.00646 0.0
H1557 H 0.89433 0.4971 0.98985 0.0
H1558 H 0.93386 0.49144 1.00183 0.0
S1559 S 0.9799 0.61012 1.00624 0.0
N1560 N 0.94679 0.59256 0.99822 0.0
N1561 N 0.98959 0.58638 1.01027 0.0
C1562 C 0.96539 0.56249 1.00518 0.0
C1563 C 0.94219 0.56584 0.99845 0.0
C1564 C 0.47967 0.37656 1.00331 0.0
C1565 C 0.47752 0.37343 0.98479 0.0
C1566 C 0.48642 0.40236 1.01136 0.0
C1567 C 0.49139 0.42603 1.00122 0.0
H1568 H 0.47532 0.35875 1.01163 0.0
H1569 H 0.4869 0.40346 0.02561 0.0
S1570 S 0.49264 0.4298 0.95214 0.0
N1571 N 0.48362 0.39691 0.95657 0.0
N1572 N 0.4967 0.44504 0.9715 0.0
C1573 C 0.49053 0.42331 0.98268 0.0
C1574 C 0.48354 0.39718 0.97454 0.0
C1575 C 0.08406 0.62906 0.05876 0.0
C1576 C 0.11389 0.64149 0.05549 0.0
C1577 C 0.06379 0.60368 0.05066 0.0
C1578 C 0.07218 0.58931 0.03881 0.0
H1579 H 0.07623 0.63895 0.06782 0.0
H1580 H 0.04128 0.59518 0.05392 0.0
S1581 S 0.14785 0.61225 0.02617 0.0
N1582 N 0.15086 0.63709 0.03973 0.0
N1583 N 0.11296 0.58955 0.02457 0.0
C1584 C 0.10197 0.6017 0.03523 0.0
C1585 C 0.12268 0.62766 0.04351 0.0
C1586 C 0.40614 0.49962 0.04594 0.0
C1587 C 0.38152 0.47328 0.04975 0.0
C1588 C 0.43178 0.50169 0.03919 0.0
C1589 C 0.43397 0.47749 0.03612 0.0
H1590 H 0.40582 0.51886 0.04859 0.0
H1591 H 0.45038 0.52238 0.03717 0.0
S1592 S 0.37596 0.40362 0.04316 0.0
N1593 N 0.36127 0.42252 0.04925 0.0
N1594 N 0.40902 0.42648 0.03674 0.0
C1595 C 0.40933 0.45115 0.03931 0.0
C1596 C 0.38326 0.44901 0.04601 0.0
C1597 C 0.52723 0.91004 0.05918 0.0
C1598 C 0.53883 0.89725 0.04843 0.0
C1599 C 0.52292 0.93179 0.05269 0.0
C1600 C 0.52992 0.94159 0.03515 0.0
H1601 H 0.52087 0.90281 0.07263 0.0
H1602 H 0.51345 0.94061 0.06138 0.0
S1603 S 0.56457 0.91806 1.00235 0.0
N1604 N 0.55963 0.89793 0.0198 0.0
N1605 N 0.55163 0.93875 1.00778 0.0
C1606 C 0.54232 0.92964 0.02445 0.0
C1607 C 0.54676 0.90753 0.03103 0.0
C1608 C 0.05048 0.26776 0.38004 0.0
C1609 C 0.04659 0.24038 0.38037 0.0
C1610 C 0.07658 0.29112 0.3744 0.0
C1611 C 0.10018 0.2884 0.36877 0.0
H1612 H 0.03323 0.27127 0.38431 0.0
H1613 H 0.07852 0.31175 0.37482 0.0
S1614 S 0.10165 0.2215 0.3674 0.0
N1615 N 0.06894 0.21204 0.37455 0.0
N1616 N 0.11784 0.25586 0.36416 0.0
C1617 C 0.0965 0.26112 0.36874 0.0
C1618 C 0.06981 0.23722 0.37444 0.0
C1619 C 0.74745 0.78713 0.38189 0.0
C1620 C 0.77524 0.81105 0.38256 0.0
C1621 C 0.72313 0.78907 0.37672 0.0
C1622 C 0.72532 0.81495 0.37189 0.0
H1623 H 0.74441 0.76665 0.38538 0.0
H1624 H 0.70225 0.77001 0.37664 0.0
S1625 S 0.79277 0.88426 0.37245 0.0
N1626 N 0.80322 0.86176 0.37847 0.0
N1627 N 0.75766 0.86531 0.36899 0.0
C1628 C 0.75293 0.83907 0.37255 0.0
C1629 C 0.77777 0.83711 0.37776 0.0
C1630 C 0.19639 0.94522 0.39968 0.0
C1631 C 0.20837 0.97124 0.39072 0.0
C1632 C 0.1903 0.92028 0.39093 0.0
C1633 C 0.19574 0.92005 0.37276 0.0
H1634 H 0.19175 0.94409 0.41368 0.0
H1635 H 0.18117 0.90092 0.39852 0.0
S1636 S 0.22854 0.98257 0.3433 0.0
N1637 N 0.22625 0.99522 0.36261 0.0
N1638 N 0.21497 0.94839 0.34628 0.0
C1639 C 0.20755 0.9458 0.36357 0.0
C1640 C 0.21379 0.97132 0.3725 0.0
C1641 C 0.56515 0.71744 0.33391 0.0
C1642 C 0.57283 0.70517 0.32018 0.0
C1643 C 0.58577 0.74292 0.342 0.0
C1644 C 0.61511 0.75714 0.33686 0.0
H1645 H 0.54285 0.70776 0.33807 0.0
H1646 H 0.57843 0.75184 0.35206 0.0
S1647 S 0.64675 0.73189 0.30272 0.0
N1648 N 0.6121 0.70812 0.30268 0.0
N1649 N 0.65063 0.75519 0.31778 0.0
C1650 C 0.62308 0.74431 0.32357 0.0
C1651 C 0.60208 0.71862 0.31529 0.0
C1652 C 0.30248 0.89349 0.33006 0.0
C1653 C 0.30558 0.86956 0.32814 0.0
C1654 C 0.27617 0.89124 0.33533 0.0
C1655 C 0.25165 0.86504 0.33922 0.0
H1656 H 0.32031 0.91418 0.32691 0.0
H1657 H 0.27484 0.9103 0.33603 0.0
S1658 S 0.24837 0.79584 0.33725 0.0
N1659 N 0.28188 0.81869 0.33154 0.0
N1660 N 0.23248 0.81454 0.34092 0.0
C1661 C 0.25455 0.84095 0.33776 0.0
C1662 C 0.28141 0.84321 0.33238 0.0
C1663 C 0.16423 0.44849 0.34071 0.0
C1664 C 0.1453 0.44437 0.32655 0.0
C1665 C 0.16863 0.42666 0.34694 0.0
C1666 C 0.15422 0.39956 0.33938 0.0
H1667 H 0.17624 0.46899 0.34685 0.0
H1668 H 0.18396 0.43136 0.35757 0.0
S1669 S 0.10057 0.37713 0.30277 0.0
N1670 N 0.11083 0.41063 0.30577 0.0
N1671 N 0.11897 0.36976 0.31729 0.0
C1672 C 0.13474 0.39503 0.32541 0.0
C1673 C 0.13036 0.41733 0.31905 0.0
C1674 C 0.30021 0.40822 0.32819 0.0
C1675 C 0.30322 0.43527 0.32768 0.0
C1676 C 0.27429 0.38437 0.33357 0.0
C1677 C 0.25002 0.38625 0.33879 0.0
H1678 H 0.31803 0.40537 0.32428 0.0
H1679 H 0.27305 0.36404 0.33332 0.0
S1680 S 0.24592 0.45187 0.33932 0.0
N1681 N 0.27917 0.46231 0.33276 0.0
N1682 N 0.23065 0.41758 0.34255 0.0
C1683 C 0.25275 0.41316 0.33851 0.0
C1684 C 0.27924 0.43756 0.33311 0.0
C1685 C 0.60875 0.89578 0.32927 0.0
C1686 C 0.5816 0.87257 0.32488 0.0
C1687 C 0.63129 0.8923 0.33607 0.0
C1688 C 0.62787 0.86548 0.33925 0.0
H1689 H 0.61304 0.91702 0.32687 0.0
H1690 H 0.65206 0.91093 0.33836 0.0
S1691 S 0.56079 0.7975 0.33144 0.0
N1692 N 0.55234 0.82143 0.32524 0.0
N1693 N 0.59463 0.81512 0.33827 0.0
C1694 C 0.60046 0.84201 0.33592 0.0
C1695 C 0.57738 0.84551 0.32879 0.0
C1696 C 0.16276 0.71802 0.33287 0.0
C1697 C 0.14456 0.70707 0.31801 0.0
C1698 C 0.16761 0.74314 0.34108 0.0
C1699 C 0.15423 0.75822 0.33488 0.0
H1700 H 0.17401 0.70756 0.33786 0.0
H1701 H 0.18255 0.7511 0.35207 0.0
S1702 S 0.10203 0.73632 0.29743 0.0
N1703 N 0.11154 0.71197 0.29824 0.0
N1704 N 0.12007 0.75844 0.31351 0.0
C1705 C 0.13505 0.74663 0.32041 0.0
C1706 C 0.13038 0.72132 0.31205 0.0
C1707 C 0.74904 0.95769 0.39632 0.0
C1708 C 0.77783 0.97395 0.39057 0.0
C1709 C 0.72933 0.9323 0.38796 0.0
C1710 C 0.73734 0.92163 0.37342 0.0
H1711 H 0.7416 0.96464 0.40747 0.0
H1712 H 0.70762 0.92082 0.39316 0.0
S1713 S 0.81066 0.95584 0.35351 0.0
N1714 N 0.81352 0.97734 0.36957 0.0
N1715 N 0.77685 0.9299 0.35388 0.0
C1716 C 0.76611 0.9379 0.36745 0.0
C1717 C 0.78617 0.96388 0.37597 0.0
C1718 C 0.07346 0.8354 0.37781 0.0
C1719 C 0.04876 0.80905 0.38147 0.0
C1720 C 0.09919 0.83746 0.37122 0.0
C1721 C 0.10134 0.81323 0.36822 0.0
H1722 H 0.07313 0.85463 0.38047 0.0
H1723 H 0.11787 0.85813 0.3693 0.0
S1724 S 0.04308 0.73935 0.37484 0.0
N1725 N 0.02836 0.75827 0.38083 0.0
N1726 N 0.07628 0.76221 0.36866 0.0
C1727 C 0.07661 0.78689 0.37124 0.0
C1728 C 0.05047 0.78476 0.37774 0.0
C1729 C 0.22013 0.25764 0.38869 0.0
C1730 C 0.20705 0.23046 0.38136 0.0
C1731 C 0.21448 0.27846 0.38198 0.0
C1732 C 0.19532 0.27308 0.36766 0.0
H1733 H 0.23512 0.26297 0.39961 0.0
H1734 H 0.22527 0.29898 0.38817 0.0
S1735 S 0.15366 0.20425 0.34478 0.0
N1736 N 0.17292 0.19876 0.35967 0.0
N1737 N 0.16235 0.2375 0.34704 0.0
C1738 C 0.18189 0.24576 0.36039 0.0
C1739 C 0.18769 0.22462 0.36723 0.0
C1740 C 0.71631 0.60564 0.71428 0.0
C1741 C 0.71263 0.57832 0.71457 0.0
C1742 C 0.74235 0.62914 0.70863 0.0
C1743 C 0.76598 0.62653 0.70294 0.0
H1744 H 0.69891 0.60894 0.7185 0.0
H1745 H 0.74417 0.64972 0.70898 0.0
S1746 S 0.76844 0.56012 0.70229 0.0
N1747 N 0.73556 0.55038 0.70921 0.0
N1748 N 0.7843 0.5944 0.69884 0.0
C1749 C 0.76267 0.59939 0.70318 0.0
C1750 C 0.7361 0.57541 0.70887 0.0
C1751 C 0.444 0.16987 0.71074 0.0
C1752 C 0.442 0.14372 0.71479 0.0
C1753 C 0.41958 0.17174 0.70545 0.0
C1754 C 0.39218 0.14749 0.70381 0.0
H1755 H 0.46445 0.18917 0.71217 0.0
H1756 H 0.42204 0.19234 0.70318 0.0
S1757 S 0.37566 0.07385 0.71057 0.0
N1758 N 0.41045 0.09295 0.71504 0.0
N1759 N 0.36496 0.09652 0.70545 0.0
C1760 C 0.39012 0.12128 0.70719 0.0
C1761 C 0.41484 0.11936 0.71253 0.0
C1762 C 0.87381 0.30346 0.70565 0.0
C1763 C 0.88153 0.30898 0.72363 0.0
C1764 C 0.86719 0.2775 0.69788 0.0
C1765 C 0.86799 0.25598 0.70775 0.0
H1766 H 0.87341 0.31951 0.69745 0.0
H1767 H 0.86189 0.27457 0.684 0.0
S1768 S 0.88309 0.25869 0.75599 0.0
N1769 N 0.88696 0.28984 0.75141 0.0
N1770 N 0.87467 0.24158 0.73706 0.0
C1771 C 0.87475 0.2611 0.7259 0.0
C1772 C 0.88145 0.28738 0.73375 0.0
C1773 C 0.2338 0.05087 0.66685 0.0
C1774 C 0.24073 0.03997 0.65201 0.0
C1775 C 0.25439 0.07647 0.6748 0.0
C1776 C 0.28303 0.09216 0.66847 0.0
H1777 H 0.21205 0.03994 0.67204 0.0
H1778 H 0.24755 0.08422 0.68581 0.0
S1779 S 0.31264 0.0711 0.63078 0.0
N1780 N 0.27856 0.04596 0.63192 0.0
N1781 N 0.31713 0.09324 0.64679 0.0
C1782 C 0.2903 0.08077 0.65395 0.0
C1783 C 0.26927 0.05499 0.64578 0.0
C1784 C 0.97093 0.22613 0.66408 0.0
C1785 C 0.97243 0.20148 0.66128 0.0
C1786 C 0.94547 0.22505 0.67007 0.0
C1787 C 0.92023 0.19931 0.67372 0.0
H1788 H 0.98963 0.24657 0.66158 0.0
H1789 H 0.94542 0.24466 0.67166 0.0
S1790 S 0.9118 0.12841 0.66785 0.0
N1791 N 0.94566 0.15026 0.66229 0.0
N1792 N 0.8981 0.14841 0.6734 0.0
C1793 C 0.92133 0.17446 0.67105 0.0
C1794 C 0.9473 0.17551 0.66495 0.0
C1795 C 0.78993 0.75068 0.6575 0.0
C1796 C 0.80841 0.77912 0.66194 0.0
C1797 C 0.79516 0.72928 0.66362 0.0
C1798 C 0.81912 0.73533 0.67447 0.0
H1799 H 0.77107 0.74485 0.64936 0.0
H1800 H 0.78022 0.70778 0.65979 0.0
S1801 S 0.8758 0.80685 0.68832 0.0
N1802 N 0.85273 0.81234 0.67686 0.0
N1803 N 0.8625 0.77245 0.68832 0.0
C1804 C 0.83797 0.76378 0.67876 0.0
C1805 C 0.83265 0.78553 0.67252 0.0
C1806 C 0.94909 0.77982 0.6678 0.0
C1807 C 0.97029 0.77345 0.66214 0.0
C1808 C 0.92127 0.75855 0.6728 0.0
C1809 C 0.91349 0.72996 0.67295 0.0
H1810 H 0.95352 0.80137 0.66755 0.0
H1811 H 0.9053 0.76447 0.67592 0.0
S1812 S 0.96097 0.70164 0.66046 0.0
N1813 N 0.9816 0.73604 0.65792 0.0
N1814 N 0.92931 0.69633 0.66721 0.0
C1815 C 0.93459 0.72325 0.66787 0.0
C1816 C 0.96293 0.74487 0.6626 0.0
C1817 C 0.24599 0.17807 0.66218 0.0
C1818 C 0.2484 0.20448 0.65841 0.0
C1819 C 0.2696 0.17584 0.66878 0.0
C1820 C 0.29672 0.19995 0.67172 0.0
H1821 H 0.22582 0.15891 0.65965 0.0
H1822 H 0.26692 0.15511 0.67084 0.0
S1823 S 0.31459 0.27395 0.66478 0.0
N1824 N 0.28039 0.25521 0.65883 0.0
N1825 N 0.32422 0.25094 0.67108 0.0
C1826 C 0.29914 0.22636 0.66856 0.0
C1827 C 0.27519 0.22867 0.66202 0.0
C1828 C 0.79957 0.04098 0.6727 0.0
C1829 C 0.80708 0.03915 0.6551 0.0
C1830 C 0.80718 0.06727 0.68045 0.0
C1831 C 0.82257 0.09265 0.67086 0.0
H1832 H 0.7869 0.02192 0.68031 0.0
H1833 H 0.80008 0.06759 0.69377 0.0
S1834 S 0.85097 0.09932 0.62521 0.0
N1835 N 0.83321 0.06512 0.62905 0.0
N1836 N 0.84764 0.11401 0.64334 0.0
C1837 C 0.83139 0.09096 0.65356 0.0
C1838 C 0.82363 0.06441 0.64577 0.0
C1839 C 0.45415 0.29212 0.71345 0.0
C1840 C 0.44478 0.30785 0.7233 0.0
C1841 C 0.43431 0.26635 0.70536 0.0
C1842 C 0.40418 0.25507 0.70681 0.0
H1843 H 0.47699 0.29932 0.71245 0.0
H1844 H 0.44268 0.25477 0.69835 0.0
S1845 S 0.36854 0.29014 0.72875 0.0
N1846 N 0.40328 0.31164 0.73221 0.0
N1847 N 0.36639 0.26354 0.7174 0.0
C1848 C 0.39469 0.27129 0.71594 0.0
C1849 C 0.41481 0.2975 0.72405 0.0
C1850 C 0.73548 0.17145 0.7119 0.0
C1851 C 0.71517 0.14306 0.71566 0.0
C1852 C 0.76349 0.17956 0.7058 0.0
C1853 C 0.77237 0.15968 0.70281 0.0
H1854 H 0.73042 0.18783 0.71481 0.0
H1855 H 0.77893 0.20181 0.70439 0.0
S1856 S 0.72707 0.08249 0.70868 0.0
N1857 N 0.70548 0.09474 0.71402 0.0
N1858 N 0.75828 0.11027 0.70343 0.0
C1859 C 0.75196 0.13119 0.70563 0.0
C1860 C 0.72337 0.12283 0.71171 0.0
C1861 C 0.89628 0.59863 0.71759 0.0
C1862 C 0.88043 0.57053 0.71183 0.0
C1863 C 0.89014 0.61932 0.71126 0.0
C1864 C 0.86782 0.61289 0.69888 0.0
H1865 H 0.91365 0.60471 0.72704 0.0
H1866 H 0.90294 0.64053 0.71626 0.0
S1867 S 0.81819 0.54163 0.68099 0.0
N1868 N 0.84045 0.53701 0.69384 0.0
N1869 N 0.82883 0.57551 0.68206 0.0
C1870 C 0.85171 0.58474 0.69317 0.0
C1871 C 0.858 0.56372 0.69961 0.0
C1872 C 0.51414 0.97365 0.17278 0.0
C1873 C 0.48442 0.95623 0.17603 0.0
C1874 C 0.52442 0.98781 0.15652 0.0
C1875 C 0.50556 0.98521 0.14257 0.0
H1876 H 0.52965 0.9773 0.18314 0.0
H1877 H 0.54747 1.00148 0.155 0.0
S1878 S 0.42585 0.93995 0.1435 0.0
N1879 N 0.43633 0.93535 0.16319 0.0
N1880 N 0.45558 0.9623 0.13292 0.0
C1881 C 0.47587 0.96683 0.14533 0.0
C1882 C 0.46536 0.9524 0.16193 0.0
C1883 C 0.01995 0.52072 0.17485 0.0
C1884 C 0.04282 0.51526 0.17731 0.0
C1885 C 1.0048 0.51484 0.15871 0.0
C1886 C 0.01188 0.50336 0.1442 0.0
H1887 H 0.01302 0.52875 0.18568 0.0
H1888 H 0.98709 0.51904 0.15768 0.0
S1889 S 0.07144 0.48708 0.14326 0.0
N1890 N 0.07307 0.49945 0.16334 0.0
N1891 N 0.04427 0.48778 0.13331 0.0
C1892 C 0.03537 0.49871 0.14628 0.0
C1893 C 0.05081 0.50472 0.16272 0.0
C1894 C 0.51085 0.53097 0.17361 0.0
C1895 C 0.48118 0.52005 0.17672 0.0
C1896 C 0.52104 0.52674 0.15741 0.0
C1897 C 0.50214 0.51157 0.14339 0.0
H1898 H 0.52634 0.54199 0.18404 0.0
H1899 H 0.54402 0.53499 0.15599 0.0
S1900 S 0.42263 0.48089 0.14398 0.0
N1901 N 0.43317 0.49524 0.16371 0.0
N1902 N 0.45225 0.487 0.13352 0.0
C1903 C 0.47255 0.50166 0.14601 0.0
C1904 C 0.46212 0.50587 0.16256 0.0
C1905 C 0.99762 0.52311 0.8698 0.0
C1906 C 0.97414 0.49659 0.86528 0.0
C1907 C 0.01188 0.52768 0.88613 0.0
C1908 C 1.00307 0.50609 0.89883 0.0
H1909 H 1.00547 0.54041 0.86046 0.0
H1910 H 0.03015 0.54834 0.8888 0.0
S1911 S 0.94226 0.43304 0.89395 0.0
N1912 N 0.94233 0.44854 0.87514 0.0
N1913 N 0.96904 0.45725 0.90588 0.0
C1914 C 0.97929 0.47962 0.89469 0.0
C1915 C 0.96494 0.47483 0.87791 0.0
C1916 C 0.54727 0.52374 0.8713 0.0
C1917 C 0.54064 0.4964 0.86633 0.0
C1918 C 0.53782 0.52893 0.88743 0.0
C1919 C 0.5216 0.50713 0.89958 0.0
H1920 H 0.55936 0.54132 0.86242 0.0
H1921 H 0.54301 0.55028 0.89036 0.0
S1922 S 0.49942 0.43188 0.89354 0.0
N1923 N 0.51744 0.44726 0.87531 0.0
N1924 N 0.49989 0.4571 0.90565 0.0
C1925 C 0.51539 0.47977 0.89505 0.0
C1926 C 0.52473 0.47439 0.87845 0.0
C1927 C 0.51564 0.05935 0.87789 0.0
C1928 C 0.53052 0.05442 0.86422 0.0
C1929 C 0.51017 0.04538 0.89438 0.0
C1930 C 0.51902 0.02558 0.8979 0.0
H1931 H 0.50759 0.07375 0.87569 0.0
H1932 H 0.49769 0.04911 0.90413 0.0
S1933 S 0.56003 0.00592 0.86726 0.0
N1934 N 0.55504 0.02897 0.85592 0.0
N1935 N 0.54484 1.00298 0.88668 0.0
C1936 C 0.53485 0.02127 0.88465 0.0
C1937 C 0.54061 0.0356 0.86794 0.0
C1938 C 0.1351 0.28927 0.49676 0.0
C1939 C 0.15437 0.28982 0.50984 0.0
C1940 C 0.14489 0.30248 0.48012 0.0
C1941 C 0.17446 0.31714 0.47585 0.0
H1942 H 0.1122 0.27892 0.49952 0.0
H1943 H 0.12931 0.30226 0.47084 0.0
S1944 S 0.23387 0.32397 0.50482 0.0
N1945 N 0.20454 0.30564 0.51683 0.0
N1946 N 0.22275 0.33008 0.48579 0.0
C1947 C 0.19381 0.31702 0.48854 0.0
C1948 C 0.18386 0.30348 0.5054 0.0
C1949 C 0.71283 0.84163 0.49748 0.0
C1950 C 0.70973 0.85766 0.51095 0.0
C1951 C 0.69929 0.83785 0.48087 0.0
C1952 C 0.68177 0.84966 0.47707 0.0
H1953 H 0.72554 0.83154 0.49987 0.0
H1954 H 0.70165 0.82465 0.47119 0.0
S1955 S 0.66777 0.89472 0.50723 0.0
N1956 N 0.68851 0.88627 0.51891 0.0
N1957 N 0.66353 0.8795 0.48782 0.0
C1958 C 0.6793 0.86652 0.49018 0.0
C1959 C 0.69316 0.87046 0.50703 0.0
C1960 C 0.13281 0.83759 0.49652 0.0
C1961 C 0.15166 0.85679 0.50929 0.0
C1962 C 0.14288 0.83424 0.47997 0.0
C1963 C 0.17235 0.84968 0.47552 0.0
H1964 H 0.11005 0.82467 0.49944 0.0
H1965 H 0.12767 0.81857 0.47091 0.0
S1966 S 0.23064 0.90356 0.50366 0.0
N1967 N 0.20128 0.89215 0.51579 0.0
N1968 N 0.22002 0.88591 0.48493 0.0
C1969 C 0.19125 0.86956 0.4879 0.0
C1970 C 0.181 0.87312 0.50466 0.0
C1971 C 0.64913 0.80432 0.20511 0.0
C1972 C 0.63368 0.81825 0.20103 0.0
C1973 C 0.66337 0.80825 0.2214 0.0
C1974 C 0.66282 0.82624 0.23444 0.0
H1975 H 0.65047 0.79041 0.19553 0.0
H1976 H 0.67531 0.79736 0.22371 0.0
S1977 S 0.6258 0.86798 0.23053 0.0
N1978 N 0.61886 0.85097 0.21158 0.0
N1979 N 0.6454 0.85806 0.24217 0.0
C1980 C 0.6469 0.83978 0.23077 0.0
C1981 C 0.63243 0.83587 0.21412 0.0
C1982 C 0.22177 0.83797 0.21238 0.0
C1983 C 0.20289 0.82242 0.19843 0.0
C1984 C 0.21139 0.84159 0.22873 0.0
C1985 C 0.18165 0.8301 0.23182 0.0
H1986 H 0.24488 0.84785 0.21055 0.0
H1987 H 0.22682 0.8545 0.23875 0.0
S1988 S 0.12289 0.78639 0.20024 0.0
N1989 N 0.15274 0.7946 0.18932 0.0
N1990 N 0.1334 0.80111 0.21987 0.0
C1991 C 0.16253 0.81369 0.21825 0.0
C1992 C 0.17306 0.8099 0.20167 0.0
C1993 C 0.19776 0.36641 0.20076 0.0
C1994 C 0.19538 0.39069 0.19837 0.0
C1995 C 0.19096 0.35178 0.21699 0.0
C1996 C 0.18152 0.36065 0.23177 0.0
H1997 H 0.20375 0.35786 0.18975 0.0
H1998 H 0.19235 0.33276 0.21782 0.0
S1999 S 0.17461 0.42469 0.23329 0.0
N2000 N 0.18543 0.42442 0.21292 0.0
N2001 N 0.17207 0.39659 0.24314 0.0
C2002 C 0.18047 0.38569 0.22988 0.0
C2003 C 0.18741 0.40066 0.2133 0.0
C2004 C 0.80357 0.59837 0.8271 0.0
C2005 C 0.80796 0.61505 0.84226 0.0
C2006 C 0.80687 0.60952 0.80981 0.0
C2007 C 0.8145 0.6378 0.80691 0.0
H2008 H 0.79681 0.57627 0.82859 0.0
H2009 H 0.80195 0.59555 0.79864 0.0
S2010 S 0.82926 0.69077 0.84172 0.0
N2011 N 0.82115 0.66177 0.85285 0.0
N2012 N 0.82735 0.68245 0.82063 0.0
C2013 C 0.81994 0.6549 0.82188 0.0
C2014 C 0.81672 0.64366 0.83943 0.0
C2015 C 0.36379 0.20027 0.83952 0.0
C2016 C 0.38312 0.19022 0.84232 0.0
C2017 C 0.34912 0.19613 0.82334 0.0
C2018 C 0.35321 0.18191 0.80912 0.0
H2019 H 0.35914 0.21057 0.85013 0.0
H2020 H 0.33404 0.20378 0.82205 0.0
S2021 S 0.40329 0.15346 0.80907 0.0
N2022 N 0.40711 0.16714 0.82897 0.0
N2023 N 0.37918 0.15889 0.7988 0.0
C2024 C 0.37333 0.17272 0.81151 0.0
C2025 C 0.38826 0.17691 0.82801 0.0
C2026 C 0.79969 0.16965 0.83153 0.0
C2027 C 0.81936 0.18402 0.84541 0.0
C2028 C 0.80888 0.16481 0.81509 0.0
C2029 C 0.83812 0.17378 0.81183 0.0
H2030 H 0.77686 0.16167 0.83348 0.0
H2031 H 0.7928 0.15292 0.80512 0.0
S2032 S 0.89866 0.2135 0.84317 0.0
N2033 N 0.8698 0.20805 0.85425 0.0
N2034 N 0.88689 0.19907 0.82357 0.0
C2035 C 0.85809 0.18895 0.82534 0.0
C2036 C 0.8488 0.19406 0.842 0.0
C2037 C 0.32584 0.14743 0.53648 0.0
C2038 C 0.30566 0.15645 0.53372 0.0
C2039 C 0.34064 0.15206 0.55265 0.0
C2040 C 0.33589 0.16581 0.56687 0.0
H2041 H 0.33105 0.13759 0.52585 0.0
H2042 H 0.35636 0.14519 0.55391 0.0
S2043 S 0.28342 0.19145 0.56702 0.0
N2044 N 0.28009 0.17789 0.54713 0.0
N2045 N 0.30835 0.18722 0.57724 0.0
C2046 C 0.31491 0.17393 0.56452 0.0
C2047 C 0.2998 0.16919 0.54804 0.0
C2048 C 0.88847 0.17564 0.54596 0.0
C2049 C 0.86905 0.15903 0.53251 0.0
C2050 C 0.8787 0.17968 0.56241 0.0
C2051 C 0.84906 0.16758 0.56609 0.0
H2052 H 0.9115 0.18601 0.54365 0.0
H2053 H 0.89449 0.19335 0.57204 0.0
S2054 S 0.78915 0.12107 0.53599 0.0
N2055 N 0.81858 0.12955 0.52451 0.0
N2056 N 0.80039 0.13692 0.55525 0.0
C2057 C 0.82946 0.15015 0.55303 0.0
C2058 C 0.83936 0.14591 0.53635 0.0
C2059 C 0.87636 0.72322 0.54367 0.0
C2060 C 0.85589 0.71501 0.52985 0.0
C2061 C 0.86927 0.70909 0.56019 0.0
C2062 C 0.84138 0.68632 0.56358 0.0
H2063 H 0.89827 0.74005 0.54149 0.0
H2064 H 0.88602 0.71531 0.5701 0.0
S2065 S 0.77881 0.6596 0.53291 0.0
N2066 N 0.80577 0.6846 0.52155 0.0
N2067 N 0.7925 0.65851 0.5523 0.0
C2068 C 0.82043 0.67908 0.5502 0.0
C2069 C 0.82765 0.69325 0.53346 0.0
loop_
_geom_bond_atom_site_label_1
_geom_bond_atom_site_label_2
_geom_bond_distance
_geom_bond_site_symmetry_2
_ccdc_geom_bond_type
C0 C1 1.264 . S
C0 C5 1.479 . S
C0 C10 1.465 . S
C1 C0 1.264 . S
C1 C3 1.339 . S
C1 H28 0.931 . S
C2 C3 1.395 . S
C2 C4 1.320 . S
C3 C1 1.339 . S
C3 C2 1.395 . S
C3 H29 0.929 . S
C4 C2 1.320 . S
C4 C5 1.405 . S
C4 H30 0.930 . S
C5 C0 1.479 . S
C5 C4 1.405 . S
C5 H31 0.931 . S
U6 O7 2.454 . S
U6 O8 2.458 . S
U6 C9 2.984 . S
U6 C10 2.847 . S
U6 C23 2.882 . S
U6 O24 2.441 . S
U6 O25 2.420 . S
U6 O26 2.455 . S
U6 O27 2.449 . S
O7 U6 2.454 . S
O7 C9 1.353 . S
O8 U6 2.458 . S
O8 C9 1.286 . S
C9 U6 2.984 . S
C9 O7 1.353 . S
C9 O8 1.286 . S
C9 C11 1.363 . S
C10 C0 1.465 . S
C10 U6 2.847 . S
C10 O24 1.249 . S
C10 O25 1.202 . S
C11 C9 1.363 . S
C11 C13 1.408 . S
C11 C16 1.342 . S
C12 C13 1.310 . S
C12 C15 1.461 . S
C12 H32 0.932 . S
C13 C11 1.408 . S
C13 C12 1.310 . S
C13 H33 0.930 . S
C14 C15 1.474 . S
C14 C16 1.285 . S
C14 H34 0.929 1_545 S
C15 C12 1.461 . S
C15 C14 1.474 . S
C16 C11 1.342 . S
C16 C14 1.285 . S
C16 H35 0.930 . S
C17 C20 1.424 . S
C17 C22 1.245 . S
C17 C23 1.428 . S
C18 C21 1.260 . S
C18 C22 1.477 . S
C18 H36 0.932 . S
C19 C20 1.384 . S
C19 C21 1.479 . S
C19 H37 0.929 . S
C20 C17 1.424 . S
C20 C19 1.384 . S
C20 H38 0.928 . S
C21 C18 1.260 . S
C21 C19 1.479 . S
C22 C17 1.245 . S
C22 C18 1.477 . S
C22 H39 0.932 . S
C23 U6 2.882 . S
C23 C17 1.428 . S
C23 O26 1.301 . S
C23 O27 1.282 . S
O24 U6 2.441 . S
O24 C10 1.249 . S
O25 U6 2.420 . S
O25 C10 1.202 . S
O26 U6 2.455 . S
O26 C23 1.301 . S
O27 U6 2.449 . S
O27 C23 1.282 . S
H28 C1 0.931 . S
H29 C3 0.929 . S
H30 C4 0.930 . S
H31 C5 0.931 . S
H32 C12 0.932 . S
H33 C13 0.930 . S
H34 C14 0.929 1_565 S
H35 C16 0.930 . S
H36 C18 0.932 . S
H37 C19 0.929 . S
H38 C20 0.928 . S
H39 C22 0.932 . S
C40 C41 1.264 . S
C40 C45 1.479 . S
C40 C50 1.465 . S
C41 C40 1.264 . S
C41 C43 1.339 . S
C41 H68 0.931 . S
C42 C43 1.395 1_455 S
C42 C44 1.320 1_455 S
C43 C41 1.339 . S
C43 C42 1.395 1_655 S
C43 H69 0.929 1_655 S
C44 C42 1.320 1_655 S
C44 C45 1.405 . S
C44 H70 0.930 . S
C45 C40 1.479 . S
C45 C44 1.405 . S
C45 H71 0.931 . S
U46 O47 2.454 . S
U46 O48 2.458 . S
U46 C49 2.984 . S
U46 C50 2.847 . S
U46 C63 2.882 . S
U46 O64 2.441 . S
U46 O65 2.420 . S
U46 O66 2.455 . S
U46 O67 2.449 . S
O47 U46 2.454 . S
O47 C49 1.353 . S
O48 U46 2.458 . S
O48 C49 1.286 . S
C49 U46 2.984 . S
C49 O47 1.353 . S
C49 O48 1.286 . S
C49 C51 1.363 . S
C50 C40 1.465 . S
C50 U46 2.847 . S
C50 O64 1.249 . S
C50 O65 1.202 . S
C51 C49 1.363 . S
C51 C53 1.408 . S
C51 C56 1.342 . S
C52 C53 1.310 . S
C52 C55 1.461 1_545 S
C52 H72 0.932 . S
C53 C51 1.408 . S
C53 C52 1.310 . S
C53 H73 0.930 . S
C54 C55 1.474 1_545 S
C54 C56 1.285 . S
C54 H74 0.929 1_545 S
C55 C52 1.461 1_565 S
C55 C54 1.474 1_565 S
C56 C51 1.342 . S
C56 C54 1.285 . S
C56 H75 0.930 . S
C57 C60 1.424 . S
C57 C62 1.245 . S
C57 C63 1.428 . S
C58 C61 1.260 . S
C58 C62 1.477 . S
C58 H76 0.932 . S
C59 C60 1.384 . S
C59 C61 1.479 . S
C59 H77 0.929 . S
C60 C57 1.424 . S
C60 C59 1.384 . S
C60 H78 0.928 . S
C61 C58 1.260 . S
C61 C59 1.479 . S
C62 C57 1.245 . S
C62 C58 1.477 . S
C62 H79 0.932 . S
C63 U46 2.882 . S
C63 C57 1.428 . S
C63 O66 1.301 . S
C63 O67 1.282 . S
O64 U46 2.441 . S
O64 C50 1.249 . S
O65 U46 2.420 . S
O65 C50 1.202 . S
O66 U46 2.455 . S
O66 C63 1.301 . S
O67 U46 2.449 . S
O67 C63 1.282 . S
H68 C41 0.931 . S
H69 C43 0.929 1_455 S
H70 C44 0.930 . S
H71 C45 0.931 . S
H72 C52 0.932 . S
H73 C53 0.930 . S
H74 C54 0.929 1_565 S
H75 C56 0.930 . S
H76 C58 0.932 . S
H77 C59 0.929 . S
H78 C60 0.928 . S
H79 C62 0.932 . S
C80 C81 1.264 . S
C80 C85 1.479 . S
C80 C90 1.465 . S
C81 C80 1.264 . S
C81 C83 1.339 . S
C81 H108 0.931 . S
C82 C83 1.395 . S
C82 C84 1.320 . S
C83 C81 1.339 . S
C83 C82 1.395 . S
C83 H109 0.929 . S
C84 C82 1.320 . S
C84 C85 1.405 . S
C84 H110 0.930 . S
C85 C80 1.479 . S
C85 C84 1.405 . S
C85 H111 0.931 . S
U86 O87 2.454 . S
U86 O88 2.458 . S
U86 C89 2.984 . S
U86 C90 2.847 . S
U86 C103 2.882 . S
U86 O104 2.441 . S
U86 O105 2.420 . S
U86 O106 2.455 . S
U86 O107 2.449 . S
O87 U86 2.454 . S
O87 C89 1.353 . S
O88 U86 2.458 . S
O88 C89 1.286 . S
C89 U86 2.984 . S
C89 O87 1.353 . S
C89 O88 1.286 . S
C89 C91 1.363 . S
C90 C80 1.465 . S
C90 U86 2.847 . S
C90 O104 1.249 . S
C90 O105 1.202 . S
C91 C89 1.363 . S
C91 C93 1.408 . S
C91 C96 1.342 . S
C92 C93 1.310 . S
C92 C95 1.461 1_655 S
C92 H112 0.932 . S
C93 C91 1.408 . S
C93 C92 1.310 . S
C93 H113 0.930 . S
C94 C95 1.474 . S
C94 C96 1.285 1_455 S
C94 H114 0.929 . S
C95 C92 1.461 1_455 S
C95 C94 1.474 . S
C96 C91 1.342 . S
C96 C94 1.285 1_655 S
C96 H115 0.930 . S
C97 C100 1.424 . S
C97 C102 1.245 . S
C97 C103 1.428 . S
C98 C101 1.260 . S
C98 C102 1.477 . S
C98 H116 0.932 . S
C99 C100 1.384 . S
C99 C101 1.479 . S
C99 H117 0.929 . S
C100 C97 1.424 . S
C100 C99 1.384 . S
C100 H118 0.928 . S
C101 C98 1.260 . S
C101 C99 1.479 . S
C102 C97 1.245 . S
C102 C98 1.477 . S
C102 H119 0.932 . S
C103 U86 2.882 . S
C103 C97 1.428 . S
C103 O106 1.301 . S
C103 O107 1.282 . S
O104 U86 2.441 . S
O104 C90 1.249 . S
O105 U86 2.420 . S
O105 C90 1.202 . S
O106 U86 2.455 . S
O106 C103 1.301 . S
O107 U86 2.449 . S
O107 C103 1.282 . S
H108 C81 0.931 . S
H109 C83 0.929 . S
H110 C84 0.930 . S
H111 C85 0.931 . S
H112 C92 0.932 . S
H113 C93 0.930 . S
H114 C94 0.929 . S
H115 C96 0.930 . S
H116 C98 0.932 . S
H117 C99 0.929 . S
H118 C100 0.928 . S
H119 C102 0.932 . S
C120 C121 1.264 . S
C120 C125 1.479 . S
C120 C130 1.465 . S
C121 C120 1.264 . S
C121 C123 1.381 . S
C121 H148 0.931 . S
C122 C123 1.391 1_655 S
C122 C124 1.320 1_655 S
C123 C121 1.381 . S
C123 C122 1.391 1_455 S
C123 H149 0.889 1_455 S
C124 C122 1.320 1_455 S
C124 C125 1.405 . S
C124 H150 0.930 . S
C125 C120 1.479 . S
C125 C124 1.405 . S
C125 H151 0.931 . S
U126 O127 2.454 . S
U126 O128 2.458 . S
U126 C129 2.984 . S
U126 C130 2.847 . S
U126 C143 2.882 . S
U126 O144 2.441 . S
U126 O145 2.420 . S
U126 O146 2.455 . S
U126 O147 2.449 . S
O127 U126 2.454 . S
O127 C129 1.353 . S
O128 U126 2.458 . S
O128 C129 1.286 . S
C129 U126 2.984 . S
C129 O127 1.353 . S
C129 O128 1.286 . S
C129 C131 1.363 . S
C130 C120 1.465 . S
C130 U126 2.847 . S
C130 O144 1.249 . S
C130 O145 1.202 . S
C131 C129 1.363 . S
C131 C133 1.408 . S
C131 C136 1.342 . S
C132 C133 1.310 . S
C132 C135 1.461 . S
C132 H152 0.932 . S
C133 C131 1.408 . S
C133 C132 1.310 . S
C133 H153 0.930 . S
C134 C135 1.474 . S
C134 C136 1.285 . S
C134 H154 0.929 . S
C135 C132 1.461 . S
C135 C134 1.474 . S
C136 C131 1.342 . S
C136 C134 1.285 . S
C136 H155 0.930 . S
C137 C140 1.424 . S
C137 C142 1.245 . S
C137 C143 1.428 . S
C138 C141 1.260 . S
C138 C142 1.477 . S
C138 H156 0.932 . S
C139 C140 1.384 . S
C139 C141 1.479 . S
C139 H157 0.929 . S
C140 C137 1.424 . S
C140 C139 1.384 . S
C140 H158 0.928 . S
C141 C138 1.260 . S
C141 C139 1.479 . S
C142 C137 1.245 . S
C142 C138 1.477 . S
C142 H159 0.932 . S
C143 U126 2.882 . S
C143 C137 1.428 . S
C143 O146 1.301 . S
C143 O147 1.282 . S
O144 U126 2.441 . S
O144 C130 1.249 . S
O145 U126 2.420 . S
O145 C130 1.202 . S
O146 U126 2.455 . S
O146 C143 1.301 . S
O147 U126 2.449 . S
O147 C143 1.282 . S
H148 C121 0.931 . S
H149 C123 0.889 1_655 S
H150 C124 0.930 . S
H151 C125 0.931 . S
H152 C132 0.932 . S
H153 C133 0.930 . S
H154 C134 0.929 . S
H155 C136 0.930 . S
H156 C138 0.932 . S
H157 C139 0.929 . S
H158 C140 0.928 . S
H159 C142 0.932 . S
C160 C161 1.264 . S
C160 C165 1.479 . S
C160 C170 1.465 . S
C161 C160 1.264 . S
C161 C163 1.339 . S
C161 H188 0.931 . S
C162 C163 1.395 . S
C162 C164 1.320 . S
C163 C161 1.339 . S
C163 C162 1.395 . S
C163 H189 0.929 . S
C164 C162 1.320 . S
C164 C165 1.405 . S
C164 H190 0.930 . S
C165 C160 1.479 . S
C165 C164 1.405 . S
C165 H191 0.931 . S
U166 O167 2.454 . S
U166 O168 2.458 . S
U166 C169 2.984 . S
U166 C170 2.847 . S
U166 C183 2.882 . S
U166 O184 2.441 . S
U166 O185 2.420 . S
U166 O186 2.455 . S
U166 O187 2.449 . S
O167 U166 2.454 . S
O167 C169 1.353 . S
O168 U166 2.458 . S
O168 C169 1.286 . S
C169 U166 2.984 . S
C169 O167 1.353 . S
C169 O168 1.286 . S
C169 C171 1.363 . S
C170 C160 1.465 . S
C170 U166 2.847 . S
C170 O184 1.249 . S
C170 O185 1.202 . S
C171 C169 1.363 . S
C171 C173 1.408 . S
C171 C176 1.342 . S
C172 C173 1.310 . S
C172 C175 1.430 1_565 S
C172 H192 0.932 . S
C173 C171 1.408 . S
C173 C172 1.310 . S
C173 H193 0.930 . S
C174 C175 1.470 1_565 S
C174 C176 1.285 . S
C174 H194 0.929 1_565 S
C175 C172 1.430 1_545 S
C175 C174 1.470 1_545 S
C176 C171 1.342 . S
C176 C174 1.285 . S
C176 H195 0.930 . S
C177 C180 1.424 . S
C177 C182 1.245 . S
C177 C183 1.428 . S
C178 C181 1.260 . S
C178 C182 1.477 . S
C178 H196 0.932 . S
C179 C180 1.384 . S
C179 C181 1.479 . S
C179 H197 0.929 . S
C180 C177 1.424 . S
C180 C179 1.384 . S
C180 H198 0.928 . S
C181 C178 1.260 . S
C181 C179 1.479 . S
C182 C177 1.245 . S
C182 C178 1.477 . S
C182 H199 0.932 . S
C183 U166 2.882 . S
C183 C177 1.428 . S
C183 O186 1.301 . S
C183 O187 1.282 . S
O184 U166 2.441 . S
O184 C170 1.249 . S
O185 U166 2.420 . S
O185 C170 1.202 . S
O186 U166 2.455 . S
O186 C183 1.301 . S
O187 U166 2.449 . S
O187 C183 1.282 . S
H188 C161 0.931 . S
H189 C163 0.929 . S
H190 C164 0.930 . S
H191 C165 0.931 . S
H192 C172 0.932 . S
H193 C173 0.930 . S
H194 C174 0.929 1_545 S
H195 C176 0.930 . S
H196 C178 0.932 . S
H197 C179 0.929 . S
H198 C180 0.928 . S
H199 C182 0.932 . S
C200 C201 1.264 . S
C200 C205 1.479 . S
C200 C210 1.465 . S
C201 C200 1.264 . S
C201 C203 1.339 1_455 S
C201 H228 0.931 . S
C202 C203 1.395 . S
C202 C204 1.320 1_655 S
C203 C201 1.339 1_655 S
C203 C202 1.395 . S
C203 H229 0.929 . S
C204 C202 1.320 1_455 S
C204 C205 1.405 . S
C204 H230 0.930 . S
C205 C200 1.479 . S
C205 C204 1.405 . S
C205 H231 0.931 . S
U206 O207 2.454 . S
U206 O208 2.458 . S
U206 C209 2.984 . S
U206 C210 2.847 . S
U206 C223 2.882 . S
U206 O224 2.441 . S
U206 O225 2.420 . S
U206 O226 2.455 . S
U206 O227 2.449 . S
O207 U206 2.454 . S
O207 C209 1.353 . S
O208 U206 2.458 . S
O208 C209 1.286 . S
C209 U206 2.984 . S
C209 O207 1.353 . S
C209 O208 1.286 . S
C209 C211 1.363 . S
C210 C200 1.465 . S
C210 U206 2.847 . S
C210 O224 1.249 . S
C210 O225 1.202 . S
C211 C209 1.363 . S
C211 C213 1.408 . S
C211 C216 1.342 . S
C212 C213 1.310 . S
C212 C215 1.461 1_565 S
C212 H232 0.932 . S
C213 C211 1.408 . S
C213 C212 1.310 . S
C213 H233 0.930 . S
C214 C215 1.474 1_565 S
C214 C216 1.285 . S
C214 H234 0.929 1_565 S
C215 C212 1.461 1_545 S
C215 C214 1.474 1_545 S
C216 C211 1.342 . S
C216 C214 1.285 . S
C216 H235 0.930 . S
C217 C220 1.424 . S
C217 C222 1.245 . S
C217 C223 1.428 . S
C218 C221 1.260 . S
C218 C222 1.477 . S
C218 H236 0.932 . S
C219 C220 1.384 . S
C219 C221 1.479 . S
C219 H237 0.929 . S
C220 C217 1.424 . S
C220 C219 1.384 . S
C220 H238 0.928 . S
C221 C218 1.260 . S
C221 C219 1.479 . S
C222 C217 1.245 . S
C222 C218 1.477 . S
C222 H239 0.932 . S
C223 U206 2.882 . S
C223 C217 1.428 . S
C223 O226 1.301 . S
C223 O227 1.282 . S
O224 U206 2.441 . S
O224 C210 1.249 . S
O225 U206 2.420 . S
O225 C210 1.202 . S
O226 U206 2.455 . S
O226 C223 1.301 . S
O227 U206 2.449 . S
O227 C223 1.282 . S
H228 C201 0.931 . S
H229 C203 0.929 . S
H230 C204 0.930 . S
H231 C205 0.931 . S
H232 C212 0.932 . S
H233 C213 0.930 . S
H234 C214 0.929 1_545 S
H235 C216 0.930 . S
H236 C218 0.932 . S
H237 C219 0.929 . S
H238 C220 0.928 . S
H239 C222 0.932 . S
C240 C241 1.264 . S
C240 C245 1.479 . S
C240 C250 1.465 . S
C241 C240 1.264 . S
C241 C243 1.339 . S
C241 H268 0.931 . S
C242 C243 1.395 . S
C242 C244 1.320 . S
C243 C241 1.339 . S
C243 C242 1.395 . S
C243 H269 0.929 . S
C244 C242 1.320 . S
C244 C245 1.405 . S
C244 H270 0.930 . S
C245 C240 1.479 . S
C245 C244 1.405 . S
C245 H271 0.931 . S
U246 O247 2.454 . S
U246 O248 2.458 . S
U246 C249 2.984 . S
U246 C250 2.847 . S
U246 C263 2.882 . S
U246 O264 2.441 . S
U246 O265 2.420 . S
U246 O266 2.455 . S
U246 O267 2.449 . S
O247 U246 2.454 . S
O247 C249 1.353 . S
O248 U246 2.458 . S
O248 C249 1.286 . S
C249 U246 2.984 . S
C249 O247 1.353 . S
C249 O248 1.286 . S
C249 C251 1.363 . S
C250 C240 1.465 . S
C250 U246 2.847 . S
C250 O264 1.249 . S
C250 O265 1.202 . S
C251 C249 1.363 . S
C251 C253 1.408 . S
C251 C256 1.342 . S
C252 C253 1.310 . S
C252 C255 1.461 . S
C252 H272 0.932 . S
C253 C251 1.408 . S
C253 C252 1.310 . S
C253 H273 0.930 . S
C254 C255 1.474 . S
C254 C256 1.285 . S
C254 H274 0.929 . S
C255 C252 1.461 . S
C255 C254 1.474 . S
C256 C251 1.342 . S
C256 C254 1.285 . S
C256 H275 0.930 . S
C257 C260 1.424 . S
C257 C262 1.245 . S
C257 C263 1.428 . S
C258 C261 1.260 . S
C258 C262 1.477 . S
C258 H276 0.932 . S
C259 C260 1.384 . S
C259 C261 1.479 . S
C259 H277 0.929 . S
C260 C257 1.424 . S
C260 C259 1.384 . S
C260 H278 0.928 . S
C261 C258 1.260 . S
C261 C259 1.479 . S
C262 C257 1.245 . S
C262 C258 1.477 . S
C262 H279 0.932 . S
C263 U246 2.882 . S
C263 C257 1.428 . S
C263 O266 1.301 . S
C263 O267 1.282 . S
O264 U246 2.441 . S
O264 C250 1.249 . S
O265 U246 2.420 . S
O265 C250 1.202 . S
O266 U246 2.455 . S
O266 C263 1.301 . S
O267 U246 2.449 . S
O267 C263 1.282 . S
H268 C241 0.931 . S
H269 C243 0.929 . S
H270 C244 0.930 . S
H271 C245 0.931 . S
H272 C252 0.932 . S
H273 C253 0.930 . S
H274 C254 0.929 . S
H275 C256 0.930 . S
H276 C258 0.932 . S
H277 C259 0.929 . S
H278 C260 0.928 . S
H279 C262 0.932 . S
C280 C281 1.264 . S
C280 C285 1.479 . S
C280 C290 1.465 . S
C281 C280 1.264 . S
C281 C283 1.339 . S
C281 H308 0.931 . S
C282 C283 1.395 . S
C282 C284 1.320 . S
C283 C281 1.339 . S
C283 C282 1.395 . S
C283 H309 0.929 . S
C284 C282 1.320 . S
C284 C285 1.405 . S
C284 H310 0.930 . S
C285 C280 1.479 . S
C285 C284 1.405 . S
C285 H311 0.931 . S
U286 O287 2.454 . S
U286 O288 2.458 . S
U286 C289 2.984 . S
U286 C290 2.847 . S
U286 C303 2.882 . S
U286 O304 2.441 . S
U286 O305 2.420 . S
U286 O306 2.455 . S
U286 O307 2.449 . S
O287 U286 2.454 . S
O287 C289 1.353 . S
O288 U286 2.458 . S
O288 C289 1.286 . S
C289 U286 2.984 . S
C289 O287 1.353 . S
C289 O288 1.286 . S
C289 C291 1.363 . S
C290 C280 1.465 . S
C290 U286 2.847 . S
C290 O304 1.249 . S
C290 O305 1.202 . S
C291 C289 1.363 . S
C291 C293 1.408 . S
C291 C296 1.342 . S
C292 C293 1.310 . S
C292 C295 1.461 . S
C292 H312 0.932 . S
C293 C291 1.408 . S
C293 C292 1.310 . S
C293 H313 0.930 . S
C294 C295 1.474 . S
C294 C296 1.285 . S
C294 H314 0.929 . S
C295 C292 1.461 . S
C295 C294 1.474 . S
C296 C291 1.342 . S
C296 C294 1.285 . S
C296 H315 0.930 . S
C297 C300 1.424 . S
C297 C302 1.245 . S
C297 C303 1.428 . S
C298 C301 1.260 . S
C298 C302 1.477 . S
C298 H316 0.932 . S
C299 C300 1.384 . S
C299 C301 1.479 . S
C299 H317 0.929 . S
C300 C297 1.424 . S
C300 C299 1.384 . S
C300 H318 0.928 . S
C301 C298 1.260 . S
C301 C299 1.479 . S
C302 C297 1.245 . S
C302 C298 1.477 . S
C302 H319 0.932 . S
C303 U286 2.882 . S
C303 C297 1.428 . S
C303 O306 1.301 . S
C303 O307 1.282 . S
O304 U286 2.441 . S
O304 C290 1.249 . S
O305 U286 2.420 . S
O305 C290 1.202 . S
O306 U286 2.455 . S
O306 C303 1.301 . S
O307 U286 2.449 . S
O307 C303 1.282 . S
H308 C281 0.931 . S
H309 C283 0.929 . S
H310 C284 0.930 . S
H311 C285 0.931 . S
H312 C292 0.932 . S
H313 C293 0.930 . S
H314 C294 0.929 . S
H315 C296 0.930 . S
H316 C298 0.932 . S
H317 C299 0.929 . S
H318 C300 0.928 . S
H319 C302 0.932 . S
C320 C321 1.264 . S
C320 C325 1.479 . S
C320 C330 1.465 . S
C321 C320 1.264 . S
C321 C323 1.339 . S
C321 H348 0.931 . S
C322 C323 1.395 . S
C322 C324 1.320 . S
C323 C321 1.339 . S
C323 C322 1.395 . S
C323 H349 0.929 . S
C324 C322 1.320 . S
C324 C325 1.405 . S
C324 H350 0.930 . S
C325 C320 1.479 . S
C325 C324 1.405 . S
C325 H351 0.931 . S
U326 O327 2.454 . S
U326 O328 2.458 . S
U326 C329 2.984 . S
U326 C330 2.847 . S
U326 C343 2.882 . S
U326 O344 2.441 . S
U326 O345 2.420 . S
U326 O346 2.455 . S
U326 O347 2.449 . S
O327 U326 2.454 . S
O327 C329 1.353 . S
O328 U326 2.458 . S
O328 C329 1.286 . S
C329 U326 2.984 . S
C329 O327 1.353 . S
C329 O328 1.286 . S
C329 C331 1.363 . S
C330 C320 1.465 . S
C330 U326 2.847 . S
C330 O344 1.249 . S
C330 O345 1.202 . S
C331 C329 1.363 . S
C331 C333 1.408 . S
C331 C336 1.342 . S
C332 C333 1.310 . S
C332 C335 1.461 . S
C332 H352 0.932 . S
C333 C331 1.408 . S
C333 C332 1.310 . S
C333 H353 0.930 . S
C334 C335 1.474 . S
C334 C336 1.285 . S
C334 H354 0.929 . S
C335 C332 1.461 . S
C335 C334 1.474 . S
C336 C331 1.342 . S
C336 C334 1.285 . S
C336 H355 0.930 . S
C337 C340 1.424 . S
C337 C342 1.245 . S
C337 C343 1.428 . S
C338 C341 1.260 . S
C338 C342 1.477 . S
C338 H356 0.932 . S
C339 C340 1.384 . S
C339 C341 1.479 . S
C339 H357 0.929 . S
C340 C337 1.424 . S
C340 C339 1.384 . S
C340 H358 0.928 . S
C341 C338 1.260 . S
C341 C339 1.479 . S
C342 C337 1.245 . S
C342 C338 1.477 . S
C342 H359 0.932 . S
C343 U326 2.882 . S
C343 C337 1.428 . S
C343 O346 1.301 . S
C343 O347 1.282 . S
O344 U326 2.441 . S
O344 C330 1.249 . S
O345 U326 2.420 . S
O345 C330 1.202 . S
O346 U326 2.455 . S
O346 C343 1.301 . S
O347 U326 2.449 . S
O347 C343 1.282 . S
H348 C321 0.931 . S
H349 C323 0.929 . S
H350 C324 0.930 . S
H351 C325 0.931 . S
H352 C332 0.932 . S
H353 C333 0.930 . S
H354 C334 0.929 . S
H355 C336 0.930 . S
H356 C338 0.932 . S
H357 C339 0.929 . S
H358 C340 0.928 . S
H359 C342 0.932 . S
C360 C361 1.264 . S
C360 C365 1.479 . S
C360 C370 1.465 . S
C361 C360 1.264 . S
C361 C363 1.339 . S
C361 H388 0.931 . S
C362 C363 1.395 . S
C362 C364 1.320 . S
C363 C361 1.339 . S
C363 C362 1.395 . S
C363 H389 0.929 . S
C364 C362 1.320 . S
C364 C365 1.405 . S
C364 H390 0.930 . S
C365 C360 1.479 . S
C365 C364 1.405 . S
C365 H391 0.931 . S
U366 O367 2.454 . S
U366 O368 2.458 . S
U366 C369 2.984 . S
U366 C370 2.847 . S
U366 C383 2.882 . S
U366 O384 2.441 . S
U366 O385 2.420 . S
U366 O386 2.455 . S
U366 O387 2.449 . S
O367 U366 2.454 . S
O367 C369 1.353 . S
O368 U366 2.458 . S
O368 C369 1.286 . S
C369 U366 2.984 . S
C369 O367 1.353 . S
C369 O368 1.286 . S
C369 C371 1.363 . S
C370 C360 1.465 . S
C370 U366 2.847 . S
C370 O384 1.249 . S
C370 O385 1.202 . S
C371 C369 1.363 . S
C371 C373 1.408 . S
C371 C376 1.342 . S
C372 C373 1.310 . S
C372 C375 1.461 . S
C372 H392 0.932 . S
C373 C371 1.408 . S
C373 C372 1.310 . S
C373 H393 0.930 . S
C374 C375 1.474 . S
C374 C376 1.285 . S
C374 H394 0.929 . S
C375 C372 1.461 . S
C375 C374 1.474 . S
C376 C371 1.342 . S
C376 C374 1.285 . S
C376 H395 0.930 . S
C377 C380 1.424 . S
C377 C382 1.245 . S
C377 C383 1.428 . S
C378 C381 1.260 . S
C378 C382 1.477 . S
C378 H396 0.932 . S
C379 C380 1.384 . S
C379 C381 1.479 . S
C379 H397 0.929 . S
C380 C377 1.424 . S
C380 C379 1.384 . S
C380 H398 0.928 . S
C381 C378 1.260 . S
C381 C379 1.479 . S
C382 C377 1.245 . S
C382 C378 1.477 . S
C382 H399 0.932 . S
C383 U366 2.882 . S
C383 C377 1.428 . S
C383 O386 1.301 . S
C383 O387 1.282 . S
O384 U366 2.441 . S
O384 C370 1.249 . S
O385 U366 2.420 . S
O385 C370 1.202 . S
O386 U366 2.455 . S
O386 C383 1.301 . S
O387 U366 2.449 . S
O387 C383 1.282 . S
H388 C361 0.931 . S
H389 C363 0.929 . S
H390 C364 0.930 . S
H391 C365 0.931 . S
H392 C372 0.932 . S
H393 C373 0.930 . S
H394 C374 0.929 . S
H395 C376 0.930 . S
H396 C378 0.932 . S
H397 C379 0.929 . S
H398 C380 0.928 . S
H399 C382 0.932 . S
C400 C401 1.264 . S
C400 C405 1.479 . S
C400 C410 1.465 . S
C401 C400 1.264 . S
C401 C403 1.339 . S
C401 H428 0.931 . S
C402 C403 1.395 . S
C402 C404 1.320 . S
C403 C401 1.339 . S
C403 C402 1.395 . S
C403 H429 0.929 . S
C404 C402 1.320 . S
C404 C405 1.405 . S
C404 H430 0.930 . S
C405 C400 1.479 . S
C405 C404 1.405 . S
C405 H431 0.931 . S
U406 O407 2.454 . S
U406 O408 2.458 . S
U406 C409 2.984 . S
U406 C410 2.847 . S
U406 C423 2.882 . S
U406 O424 2.441 . S
U406 O425 2.420 . S
U406 O426 2.455 . S
U406 O427 2.449 . S
O407 U406 2.454 . S
O407 C409 1.353 . S
O408 U406 2.458 . S
O408 C409 1.286 . S
C409 U406 2.984 . S
C409 O407 1.353 . S
C409 O408 1.286 . S
C409 C411 1.363 . S
C410 C400 1.465 . S
C410 U406 2.847 . S
C410 O424 1.249 . S
C410 O425 1.202 . S
C411 C409 1.363 . S
C411 C413 1.408 . S
C411 C416 1.342 . S
C412 C413 1.310 . S
C412 C415 1.461 . S
C412 H432 0.932 . S
C413 C411 1.408 . S
C413 C412 1.310 . S
C413 H433 0.930 . S
C414 C415 1.474 . S
C414 C416 1.285 . S
C414 H434 0.929 . S
C415 C412 1.461 . S
C415 C414 1.474 . S
C416 C411 1.342 . S
C416 C414 1.285 . S
C416 H435 0.930 . S
C417 C420 1.424 . S
C417 C422 1.245 . S
C417 C423 1.428 . S
C418 C421 1.260 . S
C418 C422 1.477 . S
C418 H436 0.932 . S
C419 C420 1.384 . S
C419 C421 1.479 . S
C419 H437 0.929 . S
C420 C417 1.424 . S
C420 C419 1.384 . S
C420 H438 0.928 . S
C421 C418 1.260 . S
C421 C419 1.479 . S
C422 C417 1.245 . S
C422 C418 1.477 . S
C422 H439 0.932 . S
C423 U406 2.882 . S
C423 C417 1.428 . S
C423 O426 1.301 . S
C423 O427 1.282 . S
O424 U406 2.441 . S
O424 C410 1.249 . S
O425 U406 2.420 . S
O425 C410 1.202 . S
O426 U406 2.455 . S
O426 C423 1.301 . S
O427 U406 2.449 . S
O427 C423 1.282 . S
H428 C401 0.931 . S
H429 C403 0.929 . S
H430 C404 0.930 . S
H431 C405 0.931 . S
H432 C412 0.932 . S
H433 C413 0.930 . S
H434 C414 0.929 . S
H435 C416 0.930 . S
H436 C418 0.932 . S
H437 C419 0.929 . S
H438 C420 0.928 . S
H439 C422 0.932 . S
C440 C441 1.264 . S
C440 C445 1.479 . S
C440 C450 1.465 . S
C441 C440 1.264 . S
C441 C443 1.339 . S
C441 H468 0.931 . S
C442 C443 1.395 . S
C442 C444 1.320 . S
C443 C441 1.339 . S
C443 C442 1.395 . S
C443 H469 0.929 . S
C444 C442 1.320 . S
C444 C445 1.405 . S
C444 H470 0.930 . S
C445 C440 1.479 . S
C445 C444 1.405 . S
C445 H471 0.931 . S
U446 O447 2.454 . S
U446 O448 2.458 . S
U446 C449 2.984 . S
U446 C450 2.847 . S
U446 C463 2.882 . S
U446 O464 2.441 . S
U446 O465 2.420 . S
U446 O466 2.455 . S
U446 O467 2.449 . S
O447 U446 2.454 . S
O447 C449 1.353 . S
O448 U446 2.458 . S
O448 C449 1.286 . S
C449 U446 2.984 . S
C449 O447 1.353 . S
C449 O448 1.286 . S
C449 C451 1.363 . S
C450 C440 1.465 . S
C450 U446 2.847 . S
C450 O464 1.249 . S
C450 O465 1.202 . S
C451 C449 1.363 . S
C451 C453 1.408 . S
C451 C456 1.342 . S
C452 C453 1.310 . S
C452 C455 1.461 . S
C452 H472 0.932 . S
C453 C451 1.408 . S
C453 C452 1.310 . S
C453 H473 0.930 . S
C454 C455 1.474 . S
C454 C456 1.285 . S
C454 H474 0.929 . S
C455 C452 1.461 . S
C455 C454 1.474 . S
C456 C451 1.342 . S
C456 C454 1.285 . S
C456 H475 0.930 . S
C457 C460 1.424 . S
C457 C462 1.245 . S
C457 C463 1.428 . S
C458 C461 1.260 . S
C458 C462 1.477 . S
C458 H476 0.932 . S
C459 C460 1.384 . S
C459 C461 1.479 . S
C459 H477 0.929 . S
C460 C457 1.424 . S
C460 C459 1.384 . S
C460 H478 0.928 . S
C461 C458 1.260 . S
C461 C459 1.479 . S
C462 C457 1.245 . S
C462 C458 1.477 . S
C462 H479 0.932 . S
C463 U446 2.882 . S
C463 C457 1.428 . S
C463 O466 1.301 . S
C463 O467 1.282 . S
O464 U446 2.441 . S
O464 C450 1.249 . S
O465 U446 2.420 . S
O465 C450 1.202 . S
O466 U446 2.455 . S
O466 C463 1.301 . S
O467 U446 2.449 . S
O467 C463 1.282 . S
H468 C441 0.931 . S
H469 C443 0.929 . S
H470 C444 0.930 . S
H471 C445 0.931 . S
H472 C452 0.932 . S
H473 C453 0.930 . S
H474 C454 0.929 . S
H475 C456 0.930 . S
H476 C458 0.932 . S
H477 C459 0.929 . S
H478 C460 0.928 . S
H479 C462 0.932 . S
C480 C481 1.264 . S
C480 C485 1.479 . S
C480 C490 1.465 . S
C481 C480 1.264 . S
C481 C483 1.339 . S
C481 H508 0.931 . S
C482 C483 1.395 . S
C482 C484 1.320 . S
C483 C481 1.339 . S
C483 C482 1.395 . S
C483 H509 0.929 . S
C484 C482 1.320 . S
C484 C485 1.405 . S
C484 H510 0.930 . S
C485 C480 1.479 . S
C485 C484 1.405 . S
C485 H511 0.931 . S
U486 O487 2.454 . S
U486 O488 2.458 . S
U486 C489 2.984 . S
U486 C490 2.847 . S
U486 C503 2.882 . S
U486 O504 2.441 . S
U486 O505 2.420 . S
U486 O506 2.455 . S
U486 O507 2.449 . S
O487 U486 2.454 . S
O487 C489 1.353 . S
O488 U486 2.458 . S
O488 C489 1.286 . S
C489 U486 2.984 . S
C489 O487 1.353 . S
C489 O488 1.286 . S
C489 C491 1.363 . S
C490 C480 1.465 . S
C490 U486 2.847 . S
C490 O504 1.249 . S
C490 O505 1.202 . S
C491 C489 1.363 . S
C491 C493 1.408 . S
C491 C496 1.342 . S
C492 C493 1.310 . S
C492 C495 1.461 . S
C492 H512 0.932 . S
C493 C491 1.408 . S
C493 C492 1.310 . S
C493 H513 0.930 . S
C494 C495 1.474 . S
C494 C496 1.285 . S
C494 H514 0.929 . S
C495 C492 1.461 . S
C495 C494 1.474 . S
C496 C491 1.342 . S
C496 C494 1.285 . S
C496 H515 0.930 . S
C497 C500 1.424 . S
C497 C502 1.245 . S
C497 C503 1.428 . S
C498 C501 1.260 . S
C498 C502 1.477 . S
C498 H516 0.932 . S
C499 C500 1.384 . S
C499 C501 1.479 . S
C499 H517 0.929 . S
C500 C497 1.424 . S
C500 C499 1.384 . S
C500 H518 0.928 . S
C501 C498 1.260 . S
C501 C499 1.479 . S
C502 C497 1.245 . S
C502 C498 1.477 . S
C502 H519 0.932 . S
C503 U486 2.882 . S
C503 C497 1.428 . S
C503 O506 1.301 . S
C503 O507 1.282 . S
O504 U486 2.441 . S
O504 C490 1.249 . S
O505 U486 2.420 . S
O505 C490 1.202 . S
O506 U486 2.455 . S
O506 C503 1.301 . S
O507 U486 2.449 . S
O507 C503 1.282 . S
H508 C481 0.931 . S
H509 C483 0.929 . S
H510 C484 0.930 . S
H511 C485 0.931 . S
H512 C492 0.932 . S
H513 C493 0.930 . S
H514 C494 0.929 . S
H515 C496 0.930 . S
H516 C498 0.932 . S
H517 C499 0.929 . S
H518 C500 0.928 . S
H519 C502 0.932 . S
C520 C521 1.264 . S
C520 C525 1.479 . S
C520 C530 1.465 . S
C521 C520 1.264 . S
C521 C523 1.339 . S
C521 H548 0.931 . S
C522 C523 1.395 . S
C522 C524 1.320 . S
C523 C521 1.339 . S
C523 C522 1.395 . S
C523 H549 0.929 . S
C524 C522 1.320 . S
C524 C525 1.405 . S
C524 H550 0.930 . S
C525 C520 1.479 . S
C525 C524 1.405 . S
C525 H551 0.931 . S
U526 O527 2.454 . S
U526 O528 2.458 . S
U526 C529 2.984 . S
U526 C530 2.847 . S
U526 C543 2.882 . S
U526 O544 2.441 . S
U526 O545 2.420 . S
U526 O546 2.455 . S
U526 O547 2.449 . S
O527 U526 2.454 . S
O527 C529 1.353 . S
O528 U526 2.458 . S
O528 C529 1.286 . S
C529 U526 2.984 . S
C529 O527 1.353 . S
C529 O528 1.286 . S
C529 C531 1.363 . S
C530 C520 1.465 . S
C530 U526 2.847 . S
C530 O544 1.249 . S
C530 O545 1.202 . S
C531 C529 1.363 . S
C531 C533 1.408 . S
C531 C536 1.342 . S
C532 C533 1.310 . S
C532 C535 1.461 . S
C532 H552 0.932 . S
C533 C531 1.408 . S
C533 C532 1.310 . S
C533 H553 0.930 . S
C534 C535 1.474 . S
C534 C536 1.285 . S
C534 H554 0.929 . S
C535 C532 1.461 . S
C535 C534 1.474 . S
C536 C531 1.342 . S
C536 C534 1.285 . S
C536 H555 0.930 . S
C537 C540 1.424 . S
C537 C542 1.245 . S
C537 C543 1.428 . S
C538 C541 1.260 . S
C538 C542 1.477 . S
C538 H556 0.932 . S
C539 C540 1.384 . S
C539 C541 1.479 . S
C539 H557 0.929 . S
C540 C537 1.424 . S
C540 C539 1.384 . S
C540 H558 0.928 . S
C541 C538 1.260 . S
C541 C539 1.479 . S
C542 C537 1.245 . S
C542 C538 1.477 . S
C542 H559 0.932 . S
C543 U526 2.882 . S
C543 C537 1.428 . S
C543 O546 1.301 . S
C543 O547 1.282 . S
O544 U526 2.441 . S
O544 C530 1.249 . S
O545 U526 2.420 . S
O545 C530 1.202 . S
O546 U526 2.455 . S
O546 C543 1.301 . S
O547 U526 2.449 . S
O547 C543 1.282 . S
H548 C521 0.931 . S
H549 C523 0.929 . S
H550 C524 0.930 . S
H551 C525 0.931 . S
H552 C532 0.932 . S
H553 C533 0.930 . S
H554 C534 0.929 . S
H555 C536 0.930 . S
H556 C538 0.932 . S
H557 C539 0.929 . S
H558 C540 0.928 . S
H559 C542 0.932 . S
C560 C561 1.264 . S
C560 C565 1.479 . S
C560 C570 1.465 . S
C561 C560 1.264 . S
C561 C563 1.339 . S
C561 H588 0.931 . S
C562 C563 1.395 . S
C562 C564 1.320 . S
C563 C561 1.339 . S
C563 C562 1.395 . S
C563 H589 0.929 . S
C564 C562 1.320 . S
C564 C565 1.405 . S
C564 H590 0.930 . S
C565 C560 1.479 . S
C565 C564 1.405 . S
C565 H591 0.931 . S
U566 O567 2.454 . S
U566 O568 2.458 . S
U566 C569 2.984 . S
U566 C570 2.847 . S
U566 C583 2.882 . S
U566 O584 2.441 . S
U566 O585 2.420 . S
U566 O586 2.455 . S
U566 O587 2.449 . S
O567 U566 2.454 . S
O567 C569 1.353 . S
O568 U566 2.458 . S
O568 C569 1.286 . S
C569 U566 2.984 . S
C569 O567 1.353 . S
C569 O568 1.286 . S
C569 C571 1.363 . S
C570 C560 1.465 . S
C570 U566 2.847 . S
C570 O584 1.249 . S
C570 O585 1.202 . S
C571 C569 1.363 . S
C571 C573 1.408 . S
C571 C576 1.342 . S
C572 C573 1.310 . S
C572 C575 1.461 . S
C572 H592 0.932 . S
C573 C571 1.408 . S
C573 C572 1.310 . S
C573 H593 0.930 . S
C574 C575 1.474 . S
C574 C576 1.285 . S
C574 H594 0.929 . S
C575 C572 1.461 . S
C575 C574 1.474 . S
C576 C571 1.342 . S
C576 C574 1.285 . S
C576 H595 0.930 . S
C577 C580 1.424 . S
C577 C582 1.245 . S
C577 C583 1.428 . S
C578 C581 1.260 . S
C578 C582 1.477 . S
C578 H596 0.932 . S
C579 C580 1.384 . S
C579 C581 1.479 . S
C579 H597 0.929 . S
C580 C577 1.424 . S
C580 C579 1.384 . S
C580 H598 0.928 . S
C581 C578 1.260 . S
C581 C579 1.479 . S
C582 C577 1.245 . S
C582 C578 1.477 . S
C582 H599 0.932 . S
C583 U566 2.882 . S
C583 C577 1.428 . S
C583 O586 1.301 . S
C583 O587 1.282 . S
O584 U566 2.441 . S
O584 C570 1.249 . S
O585 U566 2.420 . S
O585 C570 1.202 . S
O586 U566 2.455 . S
O586 C583 1.301 . S
O587 U566 2.449 . S
O587 C583 1.282 . S
H588 C561 0.931 . S
H589 C563 0.929 . S
H590 C564 0.930 . S
H591 C565 0.931 . S
H592 C572 0.932 . S
H593 C573 0.930 . S
H594 C574 0.929 . S
H595 C576 0.930 . S
H596 C578 0.932 . S
H597 C579 0.929 . S
H598 C580 0.928 . S
H599 C582 0.932 . S
C600 C601 1.264 . S
C600 C605 1.479 . S
C600 C610 1.465 . S
C601 C600 1.264 . S
C601 C603 1.339 . S
C601 H628 0.931 . S
C602 C603 1.395 . S
C602 C604 1.320 . S
C603 C601 1.339 . S
C603 C602 1.395 . S
C603 H629 0.929 . S
C604 C602 1.320 . S
C604 C605 1.405 . S
C604 H630 0.930 . S
C605 C600 1.479 . S
C605 C604 1.405 . S
C605 H631 0.931 . S
U606 O607 2.454 . S
U606 O608 2.458 . S
U606 C609 2.984 . S
U606 C610 2.847 . S
U606 C623 2.882 . S
U606 O624 2.441 . S
U606 O625 2.420 . S
U606 O626 2.455 . S
U606 O627 2.449 . S
O607 U606 2.454 . S
O607 C609 1.353 . S
O608 U606 2.458 . S
O608 C609 1.286 . S
C609 U606 2.984 . S
C609 O607 1.353 . S
C609 O608 1.286 . S
C609 C611 1.363 . S
C610 C600 1.465 . S
C610 U606 2.847 . S
C610 O624 1.249 . S
C610 O625 1.202 . S
C611 C609 1.363 . S
C611 C613 1.408 . S
C611 C616 1.342 . S
C612 C613 1.310 . S
C612 C615 1.461 . S
C612 H632 0.932 . S
C613 C611 1.408 . S
C613 C612 1.310 . S
C613 H633 0.930 . S
C614 C615 1.474 . S
C614 C616 1.285 . S
C614 H634 0.929 . S
C615 C612 1.461 . S
C615 C614 1.474 . S
C616 C611 1.342 . S
C616 C614 1.285 . S
C616 H635 0.930 . S
C617 C620 1.424 . S
C617 C622 1.245 . S
C617 C623 1.428 . S
C618 C621 1.260 . S
C618 C622 1.477 . S
C618 H636 0.932 . S
C619 C620 1.384 . S
C619 C621 1.479 . S
C619 H637 0.929 . S
C620 C617 1.424 . S
C620 C619 1.384 . S
C620 H638 0.928 . S
C621 C618 1.260 . S
C621 C619 1.479 . S
C622 C617 1.245 . S
C622 C618 1.477 . S
C622 H639 0.932 . S
C623 U606 2.882 . S
C623 C617 1.428 . S
C623 O626 1.301 . S
C623 O627 1.282 . S
O624 U606 2.441 . S
O624 C610 1.249 . S
O625 U606 2.420 . S
O625 C610 1.202 . S
O626 U606 2.455 . S
O626 C623 1.301 . S
O627 U606 2.449 . S
O627 C623 1.282 . S
H628 C601 0.931 . S
H629 C603 0.929 . S
H630 C604 0.930 . S
H631 C605 0.931 . S
H632 C612 0.932 . S
H633 C613 0.930 . S
H634 C614 0.929 . S
H635 C616 0.930 . S
H636 C618 0.932 . S
H637 C619 0.929 . S
H638 C620 0.928 . S
H639 C622 0.932 . S
C640 C641 1.264 . S
C640 C645 1.479 . S
C640 C650 1.465 . S
C641 C640 1.264 . S
C641 C643 1.339 . S
C641 H668 0.931 . S
C642 C643 1.395 . S
C642 C644 1.320 . S
C643 C641 1.339 . S
C643 C642 1.395 . S
C643 H669 0.929 . S
C644 C642 1.320 . S
C644 C645 1.405 . S
C644 H670 0.930 . S
C645 C640 1.479 . S
C645 C644 1.405 . S
C645 H671 0.931 . S
U646 O647 2.454 . S
U646 O648 2.458 . S
U646 C649 2.984 . S
U646 C650 2.847 . S
U646 C663 2.882 . S
U646 O664 2.441 . S
U646 O665 2.420 . S
U646 O666 2.455 . S
U646 O667 2.449 . S
O647 U646 2.454 . S
O647 C649 1.353 . S
O648 U646 2.458 . S
O648 C649 1.286 . S
C649 U646 2.984 . S
C649 O647 1.353 . S
C649 O648 1.286 . S
C649 C651 1.363 . S
C650 C640 1.465 . S
C650 U646 2.847 . S
C650 O664 1.249 . S
C650 O665 1.202 . S
C651 C649 1.363 . S
C651 C653 1.408 . S
C651 C656 1.342 . S
C652 C653 1.310 . S
C652 C655 1.461 . S
C652 H672 0.932 . S
C653 C651 1.408 . S
C653 C652 1.310 . S
C653 H673 0.930 . S
C654 C655 1.474 . S
C654 C656 1.285 . S
C654 H674 0.929 . S
C655 C652 1.461 . S
C655 C654 1.474 . S
C656 C651 1.342 . S
C656 C654 1.285 . S
C656 H675 0.930 . S
C657 C660 1.424 . S
C657 C662 1.245 . S
C657 C663 1.428 . S
C658 C661 1.260 . S
C658 C662 1.477 . S
C658 H676 0.932 . S
C659 C660 1.384 . S
C659 C661 1.479 . S
C659 H677 0.929 . S
C660 C657 1.424 . S
C660 C659 1.384 . S
C660 H678 0.928 . S
C661 C658 1.260 . S
C661 C659 1.479 . S
C662 C657 1.245 . S
C662 C658 1.477 . S
C662 H679 0.932 . S
C663 U646 2.882 . S
C663 C657 1.428 . S
C663 O666 1.301 . S
C663 O667 1.282 . S
O664 U646 2.441 . S
O664 C650 1.249 . S
O665 U646 2.420 . S
O665 C650 1.202 . S
O666 U646 2.455 . S
O666 C663 1.301 . S
O667 U646 2.449 . S
O667 C663 1.282 . S
H668 C641 0.931 . S
H669 C643 0.929 . S
H670 C644 0.930 . S
H671 C645 0.931 . S
H672 C652 0.932 . S
H673 C653 0.930 . S
H674 C654 0.929 . S
H675 C656 0.930 . S
H676 C658 0.932 . S
H677 C659 0.929 . S
H678 C660 0.928 . S
H679 C662 0.932 . S
C680 C681 1.264 . S
C680 C685 1.479 . S
C680 C690 1.465 . S
C681 C680 1.264 . S
C681 C683 1.339 . S
C681 H708 0.931 . S
C682 C683 1.395 . S
C682 C684 1.320 . S
C683 C681 1.339 . S
C683 C682 1.395 . S
C683 H709 0.929 . S
C684 C682 1.320 . S
C684 C685 1.405 . S
C684 H710 0.930 . S
C685 C680 1.479 . S
C685 C684 1.405 . S
C685 H711 0.931 . S
U686 O687 2.454 . S
U686 O688 2.458 . S
U686 C689 2.984 . S
U686 C690 2.847 . S
U686 C703 2.882 . S
U686 O704 2.441 . S
U686 O705 2.420 . S
U686 O706 2.455 . S
U686 O707 2.449 . S
O687 U686 2.454 . S
O687 C689 1.353 . S
O688 U686 2.458 . S
O688 C689 1.286 . S
C689 U686 2.984 . S
C689 O687 1.353 . S
C689 O688 1.286 . S
C689 C691 1.363 . S
C690 C680 1.465 . S
C690 U686 2.847 . S
C690 O704 1.249 . S
C690 O705 1.202 . S
C691 C689 1.363 . S
C691 C693 1.408 . S
C691 C696 1.342 . S
C692 C693 1.310 . S
C692 C695 1.461 . S
C692 H712 0.932 . S
C693 C691 1.408 . S
C693 C692 1.310 . S
C693 H713 0.930 . S
C694 C695 1.474 . S
C694 C696 1.285 . S
C694 H714 0.929 . S
C695 C692 1.461 . S
C695 C694 1.474 . S
C696 C691 1.342 . S
C696 C694 1.285 . S
C696 H715 0.930 . S
C697 C700 1.424 . S
C697 C702 1.245 . S
C697 C703 1.428 . S
C698 C701 1.260 . S
C698 C702 1.477 . S
C698 H716 0.932 . S
C699 C700 1.384 . S
C699 C701 1.479 . S
C699 H717 0.929 . S
C700 C697 1.424 . S
C700 C699 1.384 . S
C700 H718 0.928 . S
C701 C698 1.260 . S
C701 C699 1.479 . S
C702 C697 1.245 . S
C702 C698 1.477 . S
C702 H719 0.932 . S
C703 U686 2.882 . S
C703 C697 1.428 . S
C703 O706 1.301 . S
C703 O707 1.282 . S
O704 U686 2.441 . S
O704 C690 1.249 . S
O705 U686 2.420 . S
O705 C690 1.202 . S
O706 U686 2.455 . S
O706 C703 1.301 . S
O707 U686 2.449 . S
O707 C703 1.282 . S
H708 C681 0.931 . S
H709 C683 0.929 . S
H710 C684 0.930 . S
H711 C685 0.931 . S
H712 C692 0.932 . S
H713 C693 0.930 . S
H714 C694 0.929 . S
H715 C696 0.930 . S
H716 C698 0.932 . S
H717 C699 0.929 . S
H718 C700 0.928 . S
H719 C702 0.932 . S
Gd720 N751 2.661 . S
Gd720 N757 2.601 . S
Gd720 O764 2.545 . S
Gd720 O765 2.606 1_545 S
Gd720 O767 2.429 . S
Gd720 O768 2.545 1_545 S
Gd720 O769 2.412 . S
Gd720 O771 2.324 1_554 S
Gd720 O772 2.324 1_545 S
Gd720 C779 2.828 . S
Gd721 N730 2.661 . S
Gd721 N734 2.601 . S
Gd721 O765 2.362 1_556 S
Gd721 O766 2.324 1_565 S
Gd721 O770 2.545 . S
Gd721 O771 2.629 1_565 S
Gd721 O773 2.429 . S
Gd721 O774 2.545 1_565 S
Gd721 O775 2.412 . S
Gd721 C788 2.828 . S
C722 C725 1.417 . S
C722 C727 1.431 . S
C722 C728 1.412 . S
C723 C726 1.437 . S
C723 C727 1.317 . S
C723 H742 0.929 . S
C724 C725 1.426 . S
C724 C726 1.413 . S
C724 N734 1.359 . S
C725 C722 1.417 . S
C725 C724 1.426 . S
C725 N730 1.350 . S
C726 C723 1.437 . S
C726 C724 1.413 . S
C726 C736 1.391 . S
C727 C722 1.431 . S
C727 C723 1.317 . S
C727 H738 0.930 . S
C728 C722 1.412 . S
C728 C729 1.355 . S
C728 H740 0.930 . S
C729 C728 1.355 . S
C729 C731 1.402 . S
C729 H741 0.930 . S
N730 Gd721 2.661 . S
N730 C725 1.350 . S
N730 C731 1.307 . S
C731 C729 1.402 . S
C731 N730 1.307 . S
C731 H732 0.930 . S
H732 C731 0.930 . S
C733 N734 1.334 . S
C733 C735 1.394 . S
C733 H737 0.930 . S
N734 Gd721 2.601 . S
N734 C724 1.359 . S
N734 C733 1.334 . S
C735 C733 1.394 . S
C735 C736 1.359 . S
C735 H747 0.930 . S
C736 C726 1.391 . S
C736 C735 1.359 . S
C736 H748 0.929 . S
H737 C733 0.930 . S
H738 C727 0.930 . S
H739 C756 0.930 . S
H740 C728 0.930 . S
H741 C729 0.930 . S
H742 C723 0.929 . S
H743 C761 0.930 . S
H744 C752 0.930 . S
H745 C753 0.930 . S
H746 C777 0.929 . S
H747 C735 0.930 . S
H748 C736 0.929 . S
H749 C778 0.930 . S
H750 C759 0.930 . S
N751 Gd720 2.661 . S
N751 C755 1.350 . S
N751 C756 1.307 . S
C752 H744 0.930 . S
C752 C753 1.355 . S
C752 C754 1.412 . S
C753 H745 0.930 . S
C753 C752 1.355 . S
C753 C756 1.402 . S
C754 C752 1.412 . S
C754 C755 1.417 . S
C754 C778 1.431 . S
C755 N751 1.350 . S
C755 C754 1.417 . S
C755 C758 1.426 . S
C756 H739 0.930 . S
C756 N751 1.307 . S
C756 C753 1.402 . S
N757 Gd720 2.601 . S
N757 C758 1.359 . S
N757 C761 1.334 . S
C758 C755 1.426 . S
C758 N757 1.359 . S
C758 C762 1.413 . S
C759 H750 0.930 . S
C759 C760 1.359 . S
C759 C761 1.394 . S
C760 C759 1.359 . S
C760 C762 1.391 . S
C760 H763 0.929 . S
C761 H743 0.930 . S
C761 N757 1.334 . S
C761 C759 1.394 . S
C762 C758 1.413 . S
C762 C760 1.391 . S
C762 C777 1.437 . S
H763 C760 0.929 . S
O764 Gd720 2.545 . S
O764 C779 1.258 . S
O765 Gd720 2.606 1_565 S
O765 Gd721 2.362 1_554 S
O765 C776 1.284 . S
O766 Gd721 2.324 1_545 S
O766 C786 1.254 . S
O767 Gd720 2.429 . S
O767 C786 1.268 1_554 S
O768 Gd720 2.545 1_565 S
O768 C776 1.250 . S
O769 Gd720 2.412 . S
O769 C779 1.252 . S
O770 Gd721 2.545 . S
O770 C788 1.258 . S
O771 Gd720 2.324 1_556 S
O771 Gd721 2.629 1_545 S
O771 C787 1.315 . S
O772 Gd720 2.324 1_565 S
O772 C795 1.254 . S
O773 Gd721 2.429 . S
O773 C795 1.268 1_556 S
O774 Gd721 2.545 1_545 S
O774 C787 1.250 . S
O775 Gd721 2.412 . S
O775 C788 1.252 . S
C776 O765 1.284 . S
C776 O768 1.250 . S
C777 H746 0.929 . S
C777 C762 1.437 . S
C777 C778 1.317 . S
C778 H749 0.930 . S
C778 C754 1.431 . S
C778 C777 1.317 . S
C779 Gd720 2.828 . S
C779 O764 1.258 . S
C779 O769 1.252 . S
C779 C780 1.497 . S
C780 C779 1.497 . S
C780 C781 1.395 . S
C780 C782 1.380 1_545 S
C781 C780 1.395 . S
C781 C784 1.398 . S
C781 H796 0.930 . S
C782 C780 1.380 1_565 S
C782 C783 1.391 . S
C782 H797 0.930 . S
C783 C782 1.391 . S
C783 C785 1.387 1_565 S
C784 C781 1.398 . S
C784 C785 1.380 . S
C784 H798 0.930 . S
C785 C783 1.387 1_545 S
C785 C784 1.380 . S
C785 H799 0.930 . S
C786 O766 1.254 . S
C786 O767 1.268 1_556 S
C787 O771 1.315 . S
C787 O774 1.250 . S
C788 Gd721 2.828 . S
C788 O770 1.258 . S
C788 O775 1.252 . S
C788 C789 1.497 . S
C789 C788 1.497 . S
C789 C790 1.395 . S
C789 C791 1.380 1_565 S
C790 C789 1.395 . S
C790 C793 1.398 . S
C790 H800 0.930 . S
C791 C789 1.380 1_545 S
C791 C792 1.391 . S
C791 H801 0.930 . S
C792 C791 1.391 . S
C792 C794 1.387 1_545 S
C793 C790 1.398 . S
C793 C794 1.380 . S
C793 H802 0.930 . S
C794 C792 1.387 1_565 S
C794 C793 1.380 . S
C794 H803 0.930 . S
C795 O772 1.254 . S
C795 O773 1.268 1_554 S
H796 C781 0.930 . S
H797 C782 0.930 . S
H798 C784 0.930 . S
H799 C785 0.930 . S
H800 C790 0.930 . S
H801 C791 0.930 . S
H802 C793 0.930 . S
H803 C794 0.930 . S
Gd804 N835 2.661 . S
Gd804 N841 2.601 . S
Gd804 O848 2.545 . S
Gd804 O849 2.606 1_655 S
Gd804 O851 2.429 . S
Gd804 O852 2.545 1_655 S
Gd804 O853 2.412 . S
Gd804 O855 2.311 1_554 S
Gd804 O856 2.324 1_655 S
Gd804 C863 2.828 . S
Gd805 N814 2.661 . S
Gd805 N818 2.601 . S
Gd805 O849 2.362 1_556 S
Gd805 O850 2.324 1_455 S
Gd805 O854 2.545 . S
Gd805 O855 2.636 1_455 S
Gd805 O857 2.429 . S
Gd805 O858 2.545 1_455 S
Gd805 O859 2.412 . S
Gd805 C872 2.828 . S
C806 C809 1.417 . S
C806 C811 1.431 . S
C806 C812 1.412 . S
C807 C810 1.437 . S
C807 C811 1.317 . S
C807 H826 0.929 . S
C808 C809 1.426 . S
C808 C810 1.413 . S
C808 N818 1.359 . S
C809 C806 1.417 . S
C809 C808 1.426 . S
C809 N814 1.350 . S
C810 C807 1.437 . S
C810 C808 1.413 . S
C810 C820 1.391 . S
C811 C806 1.431 . S
C811 C807 1.317 . S
C811 H822 0.930 . S
C812 C806 1.412 . S
C812 C813 1.355 . S
C812 H824 0.930 . S
C813 C812 1.355 . S
C813 C815 1.402 . S
C813 H825 0.930 . S
N814 Gd805 2.661 . S
N814 C809 1.350 . S
N814 C815 1.307 . S
C815 C813 1.402 . S
C815 N814 1.307 . S
C815 H816 0.930 . S
H816 C815 0.930 . S
C817 N818 1.334 . S
C817 C819 1.394 . S
C817 H821 0.930 . S
N818 Gd805 2.601 . S
N818 C808 1.359 . S
N818 C817 1.334 . S
C819 C817 1.394 . S
C819 C820 1.359 . S
C819 H831 0.930 . S
C820 C810 1.391 . S
C820 C819 1.359 . S
C820 H832 0.929 . S
H821 C817 0.930 . S
H822 C811 0.930 . S
H823 C840 0.930 . S
H824 C812 0.930 . S
H825 C813 0.930 . S
H826 C807 0.929 . S
H827 C845 0.930 . S
H828 C836 0.930 . S
H829 C837 0.930 . S
H830 C861 0.929 . S
H831 C819 0.930 . S
H832 C820 0.929 . S
H833 C862 0.930 . S
H834 C843 0.930 . S
N835 Gd804 2.661 . S
N835 C839 1.350 . S
N835 C840 1.307 . S
C836 H828 0.930 . S
C836 C837 1.355 . S
C836 C838 1.412 . S
C837 H829 0.930 . S
C837 C836 1.355 . S
C837 C840 1.402 . S
C838 C836 1.412 . S
C838 C839 1.417 . S
C838 C862 1.431 . S
C839 N835 1.350 . S
C839 C838 1.417 . S
C839 C842 1.426 . S
C840 H823 0.930 . S
C840 N835 1.307 . S
C840 C837 1.402 . S
N841 Gd804 2.601 . S
N841 C842 1.359 . S
N841 C845 1.334 . S
C842 C839 1.426 . S
C842 N841 1.359 . S
C842 C846 1.413 . S
C843 H834 0.930 . S
C843 C844 1.359 . S
C843 C845 1.394 . S
C844 C843 1.359 . S
C844 C846 1.391 . S
C844 H847 0.929 . S
C845 H827 0.930 . S
C845 N841 1.334 . S
C845 C843 1.394 . S
C846 C842 1.413 . S
C846 C844 1.391 . S
C846 C861 1.437 . S
H847 C844 0.929 . S
O848 Gd804 2.545 . S
O848 C863 1.258 . S
O849 Gd804 2.606 1_455 S
O849 Gd805 2.362 1_554 S
O849 C860 1.284 . S
O850 Gd805 2.324 1_655 S
O850 C870 1.254 . S
O851 Gd804 2.429 . S
O851 C870 1.268 1_554 S
O852 Gd804 2.545 1_455 S
O852 C860 1.250 . S
O853 Gd804 2.412 . S
O853 C863 1.252 . S
O854 Gd805 2.545 . S
O854 C872 1.258 . S
O855 Gd804 2.311 1_556 S
O855 Gd805 2.636 1_655 S
O855 C871 1.326 . S
O856 Gd804 2.324 1_455 S
O856 C879 1.254 . S
O857 Gd805 2.429 . S
O857 C879 1.268 1_556 S
O858 Gd805 2.545 1_655 S
O858 C871 1.250 . S
O859 Gd805 2.412 . S
O859 C872 1.252 . S
C860 O849 1.284 . S
C860 O852 1.250 . S
C861 H830 0.929 . S
C861 C846 1.437 . S
C861 C862 1.317 . S
C862 H833 0.930 . S
C862 C838 1.431 . S
C862 C861 1.317 . S
C863 Gd804 2.828 . S
C863 O848 1.258 . S
C863 O853 1.252 . S
C863 C864 1.497 . S
C864 C863 1.497 . S
C864 C865 1.395 . S
C864 C866 1.380 1_655 S
C865 C864 1.395 . S
C865 C868 1.398 . S
C865 H880 0.930 . S
C866 C864 1.380 1_455 S
C866 C867 1.391 . S
C866 H881 0.930 . S
C867 C866 1.391 . S
C867 C869 1.387 1_455 S
C868 C865 1.398 . S
C868 C869 1.380 . S
C868 H882 0.930 . S
C869 C867 1.387 1_655 S
C869 C868 1.380 . S
C869 H883 0.930 . S
C870 O850 1.254 . S
C870 O851 1.268 1_556 S
C871 O855 1.326 . S
C871 O858 1.250 . S
C872 Gd805 2.828 . S
C872 O854 1.258 . S
C872 O859 1.252 . S
C872 C873 1.497 . S
C873 C872 1.497 . S
C873 C874 1.395 . S
C873 C875 1.380 1_455 S
C874 C873 1.395 . S
C874 C877 1.398 . S
C874 H884 0.930 . S
C875 C873 1.380 1_655 S
C875 C876 1.391 . S
C875 H885 0.930 . S
C876 C875 1.391 . S
C876 C878 1.387 1_655 S
C877 C874 1.398 . S
C877 C878 1.380 . S
C877 H886 0.930 . S
C878 C876 1.387 1_455 S
C878 C877 1.380 . S
C878 H887 0.930 . S
C879 O856 1.254 . S
C879 O857 1.268 1_554 S
H880 C865 0.930 . S
H881 C866 0.930 . S
H882 C868 0.930 . S
H883 C869 0.930 . S
H884 C874 0.930 . S
H885 C875 0.930 . S
H886 C877 0.930 . S
H887 C878 0.930 . S
Gd888 N919 2.661 . S
Gd888 N925 2.601 . S
Gd888 O932 2.545 . S
Gd888 O933 2.606 . S
Gd888 O935 2.429 . S
Gd888 O936 2.545 . S
Gd888 O937 2.412 . S
Gd888 O939 2.362 1_556 S
Gd888 O940 2.324 . S
Gd888 C947 2.828 . S
Gd889 N898 2.661 . S
Gd889 N902 2.601 . S
Gd889 O933 2.362 1_554 S
Gd889 O934 2.324 . S
Gd889 O938 2.545 . S
Gd889 O939 2.606 . S
Gd889 O941 2.429 . S
Gd889 O942 2.545 . S
Gd889 O943 2.412 . S
Gd889 C956 2.828 . S
C890 C893 1.417 . S
C890 C895 1.431 . S
C890 C896 1.412 . S
C891 C894 1.437 . S
C891 C895 1.317 . S
C891 H910 0.929 . S
C892 C893 1.426 . S
C892 C894 1.413 . S
C892 N902 1.359 . S
C893 C890 1.417 . S
C893 C892 1.426 . S
C893 N898 1.350 . S
C894 C891 1.437 . S
C894 C892 1.413 . S
C894 C904 1.391 . S
C895 C890 1.431 . S
C895 C891 1.317 . S
C895 H906 0.930 . S
C896 C890 1.412 . S
C896 C897 1.355 . S
C896 H908 0.930 . S
C897 C896 1.355 . S
C897 C899 1.402 . S
C897 H909 0.930 . S
N898 Gd889 2.661 . S
N898 C893 1.350 . S
N898 C899 1.307 . S
C899 C897 1.402 . S
C899 N898 1.307 . S
C899 H900 0.930 . S
H900 C899 0.930 . S
C901 N902 1.334 . S
C901 C903 1.394 . S
C901 H905 0.930 . S
N902 Gd889 2.601 . S
N902 C892 1.359 . S
N902 C901 1.334 . S
C903 C901 1.394 . S
C903 C904 1.359 . S
C903 H915 0.930 . S
C904 C894 1.391 . S
C904 C903 1.359 . S
C904 H916 0.929 . S
H905 C901 0.930 . S
H906 C895 0.930 . S
H907 C924 0.930 . S
H908 C896 0.930 . S
H909 C897 0.930 . S
H910 C891 0.929 . S
H911 C929 0.930 . S
H912 C920 0.930 . S
H913 C921 0.930 . S
H914 C945 0.929 . S
H915 C903 0.930 . S
H916 C904 0.929 . S
H917 C946 0.930 . S
H918 C927 0.930 . S
N919 Gd888 2.661 . S
N919 C923 1.350 . S
N919 C924 1.307 . S
C920 H912 0.930 . S
C920 C921 1.355 . S
C920 C922 1.412 . S
C921 H913 0.930 . S
C921 C920 1.355 . S
C921 C924 1.402 . S
C922 C920 1.412 . S
C922 C923 1.417 . S
C922 C946 1.431 . S
C923 N919 1.350 . S
C923 C922 1.417 . S
C923 C926 1.426 . S
C924 H907 0.930 . S
C924 N919 1.307 . S
C924 C921 1.402 . S
N925 Gd888 2.601 . S
N925 C926 1.359 . S
N925 C929 1.334 . S
C926 C923 1.426 . S
C926 N925 1.359 . S
C926 C930 1.413 . S
C927 H918 0.930 . S
C927 C928 1.359 . S
C927 C929 1.394 . S
C928 C927 1.359 . S
C928 C930 1.391 . S
C928 H931 0.929 . S
C929 H911 0.930 . S
C929 N925 1.334 . S
C929 C927 1.394 . S
C930 C926 1.413 . S
C930 C928 1.391 . S
C930 C945 1.437 . S
H931 C928 0.929 . S
O932 Gd888 2.545 . S
O932 C947 1.258 . S
O933 Gd888 2.606 . S
O933 Gd889 2.362 1_556 S
O933 C944 1.284 . S
O934 Gd889 2.324 . S
O934 C954 1.254 . S
O935 Gd888 2.429 . S
O935 C954 1.268 1_556 S
O936 Gd888 2.545 . S
O936 C944 1.250 . S
O937 Gd888 2.412 . S
O937 C947 1.252 . S
O938 Gd889 2.545 . S
O938 C956 1.258 . S
O939 Gd888 2.362 1_554 S
O939 Gd889 2.606 . S
O939 C955 1.284 . S
O940 Gd888 2.324 . S
O940 C963 1.254 . S
O941 Gd889 2.429 . S
O941 C963 1.268 1_554 S
O942 Gd889 2.545 . S
O942 C955 1.250 . S
O943 Gd889 2.412 . S
O943 C956 1.252 . S
C944 O933 1.284 . S
C944 O936 1.250 . S
C945 H914 0.929 . S
C945 C930 1.437 . S
C945 C946 1.317 . S
C946 H917 0.930 . S
C946 C922 1.431 . S
C946 C945 1.317 . S
C947 Gd888 2.828 . S
C947 O932 1.258 . S
C947 O937 1.252 . S
C947 C948 1.497 . S
C948 C947 1.497 . S
C948 C949 1.395 . S
C948 C950 1.380 . S
C949 C948 1.395 . S
C949 C952 1.398 . S
C949 H964 0.930 . S
C950 C948 1.380 . S
C950 C951 1.391 . S
C950 H965 0.930 . S
C951 C950 1.391 . S
C951 C953 1.387 . S
C952 C949 1.398 . S
C952 C953 1.380 . S
C952 H966 0.930 . S
C953 C951 1.387 . S
C953 C952 1.380 . S
C953 H967 0.930 . S
C954 O934 1.254 . S
C954 O935 1.268 1_554 S
C955 O939 1.284 . S
C955 O942 1.250 . S
C956 Gd889 2.828 . S
C956 O938 1.258 . S
C956 O943 1.252 . S
C956 C957 1.497 . S
C957 C956 1.497 . S
C957 C958 1.395 . S
C957 C959 1.380 . S
C958 C957 1.395 . S
C958 C961 1.398 . S
C958 H968 0.930 . S
C959 C957 1.380 . S
C959 C960 1.391 . S
C959 H969 0.930 . S
C960 C959 1.391 . S
C960 C962 1.387 . S
C961 C958 1.398 . S
C961 C962 1.380 . S
C961 H970 0.930 . S
C962 C960 1.387 . S
C962 C961 1.380 . S
C962 H971 0.930 . S
C963 O940 1.254 . S
C963 O941 1.268 1_556 S
H964 C949 0.930 . S
H965 C950 0.930 . S
H966 C952 0.930 . S
H967 C953 0.930 . S
H968 C958 0.930 . S
H969 C959 0.930 . S
H970 C961 0.930 . S
H971 C962 0.930 . S
Gd972 N1003 2.661 . S
Gd972 N1009 2.601 . S
Gd972 O1016 2.545 . S
Gd972 O1017 2.606 . S
Gd972 O1019 2.429 . S
Gd972 O1020 2.545 . S
Gd972 O1021 2.412 . S
Gd972 O1023 2.362 . S
Gd972 O1024 2.324 . S
Gd972 C1031 2.828 . S
Gd973 N982 2.661 . S
Gd973 N986 2.601 . S
Gd973 O1017 2.362 . S
Gd973 O1018 2.324 . S
Gd973 O1022 2.545 . S
Gd973 O1023 2.606 . S
Gd973 O1025 2.429 . S
Gd973 O1026 2.545 . S
Gd973 O1027 2.412 . S
Gd973 C1040 2.828 . S
C974 C977 1.417 . S
C974 C979 1.431 . S
C974 C980 1.412 . S
C975 C978 1.437 . S
C975 C979 1.317 . S
C975 H994 0.929 . S
C976 C977 1.426 . S
C976 C978 1.413 . S
C976 N986 1.359 . S
C977 C974 1.417 . S
C977 C976 1.426 . S
C977 N982 1.350 . S
C978 C975 1.437 . S
C978 C976 1.413 . S
C978 C988 1.391 . S
C979 C974 1.431 . S
C979 C975 1.317 . S
C979 H990 0.930 . S
C980 C974 1.412 . S
C980 C981 1.355 . S
C980 H992 0.930 . S
C981 C980 1.355 . S
C981 C983 1.402 . S
C981 H993 0.930 . S
N982 Gd973 2.661 . S
N982 C977 1.350 . S
N982 C983 1.307 . S
C983 C981 1.402 . S
C983 N982 1.307 . S
C983 H984 0.930 . S
H984 C983 0.930 . S
C985 N986 1.334 . S
C985 C987 1.394 . S
C985 H989 0.930 . S
N986 Gd973 2.601 . S
N986 C976 1.359 . S
N986 C985 1.334 . S
C987 C985 1.394 . S
C987 C988 1.359 . S
C987 H999 0.930 . S
C988 C978 1.391 . S
C988 C987 1.359 . S
C988 H1000 0.929 . S
H989 C985 0.930 . S
H990 C979 0.930 . S
H991 C1008 0.930 . S
H992 C980 0.930 . S
H993 C981 0.930 . S
H994 C975 0.929 . S
H995 C1013 0.930 . S
H996 C1004 0.930 . S
H997 C1005 0.930 . S
H998 C1029 0.929 . S
H999 C987 0.930 . S
H1000 C988 0.929 . S
H1001 C1030 0.930 . S
H1002 C1011 0.930 . S
N1003 Gd972 2.661 . S
N1003 C1007 1.350 . S
N1003 C1008 1.307 . S
C1004 H996 0.930 . S
C1004 C1005 1.355 . S
C1004 C1006 1.412 . S
C1005 H997 0.930 . S
C1005 C1004 1.355 . S
C1005 C1008 1.402 . S
C1006 C1004 1.412 . S
C1006 C1007 1.417 . S
C1006 C1030 1.431 . S
C1007 N1003 1.350 . S
C1007 C1006 1.417 . S
C1007 C1010 1.426 . S
C1008 H991 0.930 . S
C1008 N1003 1.307 . S
C1008 C1005 1.402 . S
N1009 Gd972 2.601 . S
N1009 C1010 1.359 . S
N1009 C1013 1.334 . S
C1010 C1007 1.426 . S
C1010 N1009 1.359 . S
C1010 C1014 1.413 . S
C1011 H1002 0.930 . S
C1011 C1012 1.359 . S
C1011 C1013 1.394 . S
C1012 C1011 1.359 . S
C1012 C1014 1.391 . S
C1012 H1015 0.929 . S
C1013 H995 0.930 . S
C1013 N1009 1.334 . S
C1013 C1011 1.394 . S
C1014 C1010 1.413 . S
C1014 C1012 1.391 . S
C1014 C1029 1.437 . S
H1015 C1012 0.929 . S
O1016 Gd972 2.545 . S
O1016 C1031 1.258 . S
O1017 Gd972 2.606 . S
O1017 Gd973 2.362 . S
O1017 C1028 1.284 . S
O1018 Gd973 2.324 . S
O1018 C1038 1.254 . S
O1019 Gd972 2.429 . S
O1019 C1038 1.268 . S
O1020 Gd972 2.545 . S
O1020 C1028 1.250 . S
O1021 Gd972 2.412 . S
O1021 C1031 1.252 . S
O1022 Gd973 2.545 . S
O1022 C1040 1.258 . S
O1023 Gd972 2.362 . S
O1023 Gd973 2.606 . S
O1023 C1039 1.284 . S
O1024 Gd972 2.324 . S
O1024 C1047 1.254 . S
O1025 Gd973 2.429 . S
O1025 C1047 1.268 . S
O1026 Gd973 2.545 . S
O1026 C1039 1.250 . S
O1027 Gd973 2.412 . S
O1027 C1040 1.252 . S
C1028 O1017 1.284 . S
C1028 O1020 1.250 . S
C1029 H998 0.929 . S
C1029 C1014 1.437 . S
C1029 C1030 1.317 . S
C1030 H1001 0.930 . S
C1030 C1006 1.431 . S
C1030 C1029 1.317 . S
C1031 Gd972 2.828 . S
C1031 O1016 1.258 . S
C1031 O1021 1.252 . S
C1031 C1032 1.497 . S
C1032 C1031 1.497 . S
C1032 C1033 1.395 . S
C1032 C1034 1.380 . S
C1033 C1032 1.395 . S
C1033 C1036 1.398 . S
C1033 H1048 0.930 . S
C1034 C1032 1.380 . S
C1034 C1035 1.391 . S
C1034 H1049 0.930 . S
C1035 C1034 1.391 . S
C1035 C1037 1.387 . S
C1036 C1033 1.398 . S
C1036 C1037 1.380 . S
C1036 H1050 0.930 . S
C1037 C1035 1.387 . S
C1037 C1036 1.380 . S
C1037 H1051 0.930 . S
C1038 O1018 1.254 . S
C1038 O1019 1.268 . S
C1039 O1023 1.284 . S
C1039 O1026 1.250 . S
C1040 Gd973 2.828 . S
C1040 O1022 1.258 . S
C1040 O1027 1.252 . S
C1040 C1041 1.497 . S
C1041 C1040 1.497 . S
C1041 C1042 1.395 . S
C1041 C1043 1.380 . S
C1042 C1041 1.395 . S
C1042 C1045 1.398 . S
C1042 H1052 0.930 . S
C1043 C1041 1.380 . S
C1043 C1044 1.391 . S
C1043 H1053 0.930 . S
C1044 C1043 1.391 . S
C1044 C1046 1.387 . S
C1045 C1042 1.398 . S
C1045 C1046 1.380 . S
C1045 H1054 0.930 . S
C1046 C1044 1.387 . S
C1046 C1045 1.380 . S
C1046 H1055 0.930 . S
C1047 O1024 1.254 . S
C1047 O1025 1.268 . S
H1048 C1033 0.930 . S
H1049 C1034 0.930 . S
H1050 C1036 0.930 . S
H1051 C1037 0.930 . S
H1052 C1042 0.930 . S
H1053 C1043 0.930 . S
H1054 C1045 0.930 . S
H1055 C1046 0.930 . S
Gd1056 N1087 2.661 . S
Gd1056 N1093 2.601 . S
Gd1056 O1100 2.545 . S
Gd1056 O1101 2.606 . S
Gd1056 O1103 2.429 . S
Gd1056 O1104 2.545 . S
Gd1056 O1105 2.412 . S
Gd1056 O1107 2.362 . S
Gd1056 O1108 2.324 . S
Gd1056 C1115 2.828 . S
Gd1057 N1066 2.661 . S
Gd1057 N1070 2.601 . S
Gd1057 O1101 2.362 . S
Gd1057 O1102 2.324 . S
Gd1057 O1106 2.545 . S
Gd1057 O1107 2.606 . S
Gd1057 O1109 2.429 . S
Gd1057 O1110 2.545 . S
Gd1057 O1111 2.412 . S
Gd1057 C1124 2.828 . S
C1058 C1061 1.417 . S
C1058 C1063 1.431 . S
C1058 C1064 1.412 . S
C1059 C1062 1.437 . S
C1059 C1063 1.317 . S
C1059 H1078 0.929 . S
C1060 C1061 1.426 . S
C1060 C1062 1.413 . S
C1060 N1070 1.359 . S
C1061 C1058 1.417 . S
C1061 C1060 1.426 . S
C1061 N1066 1.350 . S
C1062 C1059 1.437 . S
C1062 C1060 1.413 . S
C1062 C1072 1.391 . S
C1063 C1058 1.431 . S
C1063 C1059 1.317 . S
C1063 H1074 0.930 . S
C1064 C1058 1.412 . S
C1064 C1065 1.355 . S
C1064 H1076 0.930 . S
C1065 C1064 1.355 . S
C1065 C1067 1.402 . S
C1065 H1077 0.930 . S
N1066 Gd1057 2.661 . S
N1066 C1061 1.350 . S
N1066 C1067 1.307 . S
C1067 C1065 1.402 . S
C1067 N1066 1.307 . S
C1067 H1068 0.930 . S
H1068 C1067 0.930 . S
C1069 N1070 1.334 . S
C1069 C1071 1.394 . S
C1069 H1073 0.930 . S
N1070 Gd1057 2.601 . S
N1070 C1060 1.359 . S
N1070 C1069 1.334 . S
C1071 C1069 1.394 . S
C1071 C1072 1.359 . S
C1071 H1083 0.930 . S
C1072 C1062 1.391 . S
C1072 C1071 1.359 . S
C1072 H1084 0.929 . S
H1073 C1069 0.930 . S
H1074 C1063 0.930 . S
H1075 C1092 0.930 . S
H1076 C1064 0.930 . S
H1077 C1065 0.930 . S
H1078 C1059 0.929 . S
H1079 C1097 0.930 . S
H1080 C1088 0.930 . S
H1081 C1089 0.930 . S
H1082 C1113 0.929 . S
H1083 C1071 0.930 . S
H1084 C1072 0.929 . S
H1085 C1114 0.930 . S
H1086 C1095 0.930 . S
N1087 Gd1056 2.661 . S
N1087 C1091 1.350 . S
N1087 C1092 1.307 . S
C1088 H1080 0.930 . S
C1088 C1089 1.355 . S
C1088 C1090 1.412 . S
C1089 H1081 0.930 . S
C1089 C1088 1.355 . S
C1089 C1092 1.402 . S
C1090 C1088 1.412 . S
C1090 C1091 1.417 . S
C1090 C1114 1.431 . S
C1091 N1087 1.350 . S
C1091 C1090 1.417 . S
C1091 C1094 1.426 . S
C1092 H1075 0.930 . S
C1092 N1087 1.307 . S
C1092 C1089 1.402 . S
N1093 Gd1056 2.601 . S
N1093 C1094 1.359 . S
N1093 C1097 1.334 . S
C1094 C1091 1.426 . S
C1094 N1093 1.359 . S
C1094 C1098 1.413 . S
C1095 H1086 0.930 . S
C1095 C1096 1.359 . S
C1095 C1097 1.394 . S
C1096 C1095 1.359 . S
C1096 C1098 1.391 . S
C1096 H1099 0.929 . S
C1097 H1079 0.930 . S
C1097 N1093 1.334 . S
C1097 C1095 1.394 . S
C1098 C1094 1.413 . S
C1098 C1096 1.391 . S
C1098 C1113 1.437 . S
H1099 C1096 0.929 . S
O1100 Gd1056 2.545 . S
O1100 C1115 1.258 . S
O1101 Gd1056 2.606 . S
O1101 Gd1057 2.362 . S
O1101 C1112 1.284 . S
O1102 Gd1057 2.324 . S
O1102 C1122 1.254 . S
O1103 Gd1056 2.429 . S
O1103 C1122 1.268 . S
O1104 Gd1056 2.545 . S
O1104 C1112 1.250 . S
O1105 Gd1056 2.412 . S
O1105 C1115 1.252 . S
O1106 Gd1057 2.545 . S
O1106 C1124 1.258 . S
O1107 Gd1056 2.362 . S
O1107 Gd1057 2.606 . S
O1107 C1123 1.284 . S
O1108 Gd1056 2.324 . S
O1108 C1131 1.254 . S
O1109 Gd1057 2.429 . S
O1109 C1131 1.268 . S
O1110 Gd1057 2.545 . S
O1110 C1123 1.250 . S
O1111 Gd1057 2.412 . S
O1111 C1124 1.252 . S
C1112 O1101 1.284 . S
C1112 O1104 1.250 . S
C1113 H1082 0.929 . S
C1113 C1098 1.437 . S
C1113 C1114 1.317 . S
C1114 H1085 0.930 . S
C1114 C1090 1.431 . S
C1114 C1113 1.317 . S
C1115 Gd1056 2.828 . S
C1115 O1100 1.258 . S
C1115 O1105 1.252 . S
C1115 C1116 1.497 . S
C1116 C1115 1.497 . S
C1116 C1117 1.395 . S
C1116 C1118 1.380 . S
C1117 C1116 1.395 . S
C1117 C1120 1.398 . S
C1117 H1132 0.930 . S
C1118 C1116 1.380 . S
C1118 C1119 1.391 . S
C1118 H1133 0.930 . S
C1119 C1118 1.391 . S
C1119 C1121 1.387 . S
C1120 C1117 1.398 . S
C1120 C1121 1.380 . S
C1120 H1134 0.930 . S
C1121 C1119 1.387 . S
C1121 C1120 1.380 . S
C1121 H1135 0.930 . S
C1122 O1102 1.254 . S
C1122 O1103 1.268 . S
C1123 O1107 1.284 . S
C1123 O1110 1.250 . S
C1124 Gd1057 2.828 . S
C1124 O1106 1.258 . S
C1124 O1111 1.252 . S
C1124 C1125 1.497 . S
C1125 C1124 1.497 . S
C1125 C1126 1.395 . S
C1125 C1127 1.380 . S
C1126 C1125 1.395 . S
C1126 C1129 1.398 . S
C1126 H1136 0.930 . S
C1127 C1125 1.380 . S
C1127 C1128 1.391 . S
C1127 H1137 0.930 . S
C1128 C1127 1.391 . S
C1128 C1130 1.387 . S
C1129 C1126 1.398 . S
C1129 C1130 1.380 . S
C1129 H1138 0.930 . S
C1130 C1128 1.387 . S
C1130 C1129 1.380 . S
C1130 H1139 0.930 . S
C1131 O1108 1.254 . S
C1131 O1109 1.268 . S
H1132 C1117 0.930 . S
H1133 C1118 0.930 . S
H1134 C1120 0.930 . S
H1135 C1121 0.930 . S
H1136 C1126 0.930 . S
H1137 C1127 0.930 . S
H1138 C1129 0.930 . S
H1139 C1130 0.930 . S
Gd1140 N1171 2.661 . S
Gd1140 N1177 2.601 . S
Gd1140 O1184 2.545 . S
Gd1140 O1185 2.606 . S
Gd1140 O1187 2.429 . S
Gd1140 O1188 2.545 . S
Gd1140 O1189 2.412 . S
Gd1140 O1191 2.362 . S
Gd1140 O1192 2.324 . S
Gd1140 C1199 2.828 . S
Gd1141 N1150 2.661 . S
Gd1141 N1154 2.601 . S
Gd1141 O1185 2.362 . S
Gd1141 O1186 2.324 . S
Gd1141 O1190 2.545 . S
Gd1141 O1191 2.606 . S
Gd1141 O1193 2.429 . S
Gd1141 O1194 2.545 . S
Gd1141 O1195 2.412 . S
Gd1141 C1208 2.828 . S
C1142 C1145 1.417 . S
C1142 C1147 1.431 . S
C1142 C1148 1.412 . S
C1143 C1146 1.437 . S
C1143 C1147 1.317 . S
C1143 H1162 0.929 . S
C1144 C1145 1.426 . S
C1144 C1146 1.413 . S
C1144 N1154 1.359 . S
C1145 C1142 1.417 . S
C1145 C1144 1.426 . S
C1145 N1150 1.350 . S
C1146 C1143 1.437 . S
C1146 C1144 1.413 . S
C1146 C1156 1.391 . S
C1147 C1142 1.431 . S
C1147 C1143 1.317 . S
C1147 H1158 0.930 . S
C1148 C1142 1.412 . S
C1148 C1149 1.355 . S
C1148 H1160 0.930 . S
C1149 C1148 1.355 . S
C1149 C1151 1.402 . S
C1149 H1161 0.930 . S
N1150 Gd1141 2.661 . S
N1150 C1145 1.350 . S
N1150 C1151 1.307 . S
C1151 C1149 1.402 . S
C1151 N1150 1.307 . S
C1151 H1152 0.930 . S
H1152 C1151 0.930 . S
C1153 N1154 1.334 . S
C1153 C1155 1.394 . S
C1153 H1157 0.930 . S
N1154 Gd1141 2.601 . S
N1154 C1144 1.359 . S
N1154 C1153 1.334 . S
C1155 C1153 1.394 . S
C1155 C1156 1.359 . S
C1155 H1167 0.930 . S
C1156 C1146 1.391 . S
C1156 C1155 1.359 . S
C1156 H1168 0.929 . S
H1157 C1153 0.930 . S
H1158 C1147 0.930 . S
H1159 C1176 0.930 . S
H1160 C1148 0.930 . S
H1161 C1149 0.930 . S
H1162 C1143 0.929 . S
H1163 C1181 0.930 . S
H1164 C1172 0.930 . S
H1165 C1173 0.930 . S
H1166 C1197 0.929 . S
H1167 C1155 0.930 . S
H1168 C1156 0.929 . S
H1169 C1198 0.930 . S
H1170 C1179 0.930 . S
N1171 Gd1140 2.661 . S
N1171 C1175 1.350 . S
N1171 C1176 1.307 . S
C1172 H1164 0.930 . S
C1172 C1173 1.355 . S
C1172 C1174 1.412 . S
C1173 H1165 0.930 . S
C1173 C1172 1.355 . S
C1173 C1176 1.402 . S
C1174 C1172 1.412 . S
C1174 C1175 1.417 . S
C1174 C1198 1.431 . S
C1175 N1171 1.350 . S
C1175 C1174 1.417 . S
C1175 C1178 1.426 . S
C1176 H1159 0.930 . S
C1176 N1171 1.307 . S
C1176 C1173 1.402 . S
N1177 Gd1140 2.601 . S
N1177 C1178 1.359 . S
N1177 C1181 1.334 . S
C1178 C1175 1.426 . S
C1178 N1177 1.359 . S
C1178 C1182 1.413 . S
C1179 H1170 0.930 . S
C1179 C1180 1.359 . S
C1179 C1181 1.394 . S
C1180 C1179 1.359 . S
C1180 C1182 1.391 . S
C1180 H1183 0.929 . S
C1181 H1163 0.930 . S
C1181 N1177 1.334 . S
C1181 C1179 1.394 . S
C1182 C1178 1.413 . S
C1182 C1180 1.391 . S
C1182 C1197 1.437 . S
H1183 C1180 0.929 . S
O1184 Gd1140 2.545 . S
O1184 C1199 1.258 . S
O1185 Gd1140 2.606 . S
O1185 Gd1141 2.362 . S
O1185 C1196 1.284 . S
O1186 Gd1141 2.324 . S
O1186 C1206 1.254 . S
O1187 Gd1140 2.429 . S
O1187 C1206 1.268 . S
O1188 Gd1140 2.545 . S
O1188 C1196 1.250 . S
O1189 Gd1140 2.412 . S
O1189 C1199 1.252 . S
O1190 Gd1141 2.545 . S
O1190 C1208 1.258 . S
O1191 Gd1140 2.362 . S
O1191 Gd1141 2.606 . S
O1191 C1207 1.284 . S
O1192 Gd1140 2.324 . S
O1192 C1215 1.254 . S
O1193 Gd1141 2.429 . S
O1193 C1215 1.268 . S
O1194 Gd1141 2.545 . S
O1194 C1207 1.250 . S
O1195 Gd1141 2.412 . S
O1195 C1208 1.252 . S
C1196 O1185 1.284 . S
C1196 O1188 1.250 . S
C1197 H1166 0.929 . S
C1197 C1182 1.437 . S
C1197 C1198 1.317 . S
C1198 H1169 0.930 . S
C1198 C1174 1.431 . S
C1198 C1197 1.317 . S
C1199 Gd1140 2.828 . S
C1199 O1184 1.258 . S
C1199 O1189 1.252 . S
C1199 C1200 1.497 . S
C1200 C1199 1.497 . S
C1200 C1201 1.395 . S
C1200 C1202 1.380 . S
C1201 C1200 1.395 . S
C1201 C1204 1.398 . S
C1201 H1216 0.930 . S
C1202 C1200 1.380 . S
C1202 C1203 1.391 . S
C1202 H1217 0.930 . S
C1203 C1202 1.391 . S
C1203 C1205 1.387 . S
C1204 C1201 1.398 . S
C1204 C1205 1.380 . S
C1204 H1218 0.930 . S
C1205 C1203 1.387 . S
C1205 C1204 1.380 . S
C1205 H1219 0.930 . S
C1206 O1186 1.254 . S
C1206 O1187 1.268 . S
C1207 O1191 1.284 . S
C1207 O1194 1.250 . S
C1208 Gd1141 2.828 . S
C1208 O1190 1.258 . S
C1208 O1195 1.252 . S
C1208 C1209 1.497 . S
C1209 C1208 1.497 . S
C1209 C1210 1.395 . S
C1209 C1211 1.380 . S
C1210 C1209 1.395 . S
C1210 C1213 1.398 . S
C1210 H1220 0.930 . S
C1211 C1209 1.380 . S
C1211 C1212 1.391 . S
C1211 H1221 0.930 . S
C1212 C1211 1.391 . S
C1212 C1214 1.387 . S
C1213 C1210 1.398 . S
C1213 C1214 1.380 . S
C1213 H1222 0.930 . S
C1214 C1212 1.387 . S
C1214 C1213 1.380 . S
C1214 H1223 0.930 . S
C1215 O1192 1.254 . S
C1215 O1193 1.268 . S
H1216 C1201 0.930 . S
H1217 C1202 0.930 . S
H1218 C1204 0.930 . S
H1219 C1205 0.930 . S
H1220 C1210 0.930 . S
H1221 C1211 0.930 . S
H1222 C1213 0.930 . S
H1223 C1214 0.930 . S
Gd1224 N1255 2.661 . S
Gd1224 N1261 2.601 . S
Gd1224 O1268 2.545 . S
Gd1224 O1269 2.606 . S
Gd1224 O1271 2.429 . S
Gd1224 O1272 2.545 . S
Gd1224 O1273 2.412 . S
Gd1224 O1275 2.362 . S
Gd1224 O1276 2.324 . S
Gd1224 C1283 2.828 . S
Gd1225 N1234 2.661 . S
Gd1225 N1238 2.601 . S
Gd1225 O1269 2.362 . S
Gd1225 O1270 2.324 . S
Gd1225 O1274 2.545 . S
Gd1225 O1275 2.606 . S
Gd1225 O1277 2.429 . S
Gd1225 O1278 2.545 . S
Gd1225 O1279 2.412 . S
Gd1225 C1292 2.828 . S
C1226 C1229 1.417 . S
C1226 C1231 1.431 . S
C1226 C1232 1.412 . S
C1227 C1230 1.437 . S
C1227 C1231 1.317 . S
C1227 H1246 0.929 . S
C1228 C1229 1.426 . S
C1228 C1230 1.413 . S
C1228 N1238 1.359 . S
C1229 C1226 1.417 . S
C1229 C1228 1.426 . S
C1229 N1234 1.350 . S
C1230 C1227 1.437 . S
C1230 C1228 1.413 . S
C1230 C1240 1.391 . S
C1231 C1226 1.431 . S
C1231 C1227 1.317 . S
C1231 H1242 0.930 . S
C1232 C1226 1.412 . S
C1232 C1233 1.355 . S
C1232 H1244 0.930 . S
C1233 C1232 1.355 . S
C1233 C1235 1.402 . S
C1233 H1245 0.930 . S
N1234 Gd1225 2.661 . S
N1234 C1229 1.350 . S
N1234 C1235 1.307 . S
C1235 C1233 1.402 . S
C1235 N1234 1.307 . S
C1235 H1236 0.930 . S
H1236 C1235 0.930 . S
C1237 N1238 1.334 . S
C1237 C1239 1.394 . S
C1237 H1241 0.930 . S
N1238 Gd1225 2.601 . S
N1238 C1228 1.359 . S
N1238 C1237 1.334 . S
C1239 C1237 1.394 . S
C1239 C1240 1.359 . S
C1239 H1251 0.930 . S
C1240 C1230 1.391 . S
C1240 C1239 1.359 . S
C1240 H1252 0.929 . S
H1241 C1237 0.930 . S
H1242 C1231 0.930 . S
H1243 C1260 0.930 . S
H1244 C1232 0.930 . S
H1245 C1233 0.930 . S
H1246 C1227 0.929 . S
H1247 C1265 0.930 . S
H1248 C1256 0.930 . S
H1249 C1257 0.930 . S
H1250 C1281 0.929 . S
H1251 C1239 0.930 . S
H1252 C1240 0.929 . S
H1253 C1282 0.930 . S
H1254 C1263 0.930 . S
N1255 Gd1224 2.661 . S
N1255 C1259 1.350 . S
N1255 C1260 1.307 . S
C1256 H1248 0.930 . S
C1256 C1257 1.355 . S
C1256 C1258 1.412 . S
C1257 H1249 0.930 . S
C1257 C1256 1.355 . S
C1257 C1260 1.402 . S
C1258 C1256 1.412 . S
C1258 C1259 1.417 . S
C1258 C1282 1.431 . S
C1259 N1255 1.350 . S
C1259 C1258 1.417 . S
C1259 C1262 1.426 . S
C1260 H1243 0.930 . S
C1260 N1255 1.307 . S
C1260 C1257 1.402 . S
N1261 Gd1224 2.601 . S
N1261 C1262 1.359 . S
N1261 C1265 1.334 . S
C1262 C1259 1.426 . S
C1262 N1261 1.359 . S
C1262 C1266 1.413 . S
C1263 H1254 0.930 . S
C1263 C1264 1.359 . S
C1263 C1265 1.394 . S
C1264 C1263 1.359 . S
C1264 C1266 1.391 . S
C1264 H1267 0.929 . S
C1265 H1247 0.930 . S
C1265 N1261 1.334 . S
C1265 C1263 1.394 . S
C1266 C1262 1.413 . S
C1266 C1264 1.391 . S
C1266 C1281 1.437 . S
H1267 C1264 0.929 . S
O1268 Gd1224 2.545 . S
O1268 C1283 1.258 . S
O1269 Gd1224 2.606 . S
O1269 Gd1225 2.362 . S
O1269 C1280 1.284 . S
O1270 Gd1225 2.324 . S
O1270 C1290 1.254 . S
O1271 Gd1224 2.429 . S
O1271 C1290 1.268 . S
O1272 Gd1224 2.545 . S
O1272 C1280 1.250 . S
O1273 Gd1224 2.412 . S
O1273 C1283 1.252 . S
O1274 Gd1225 2.545 . S
O1274 C1292 1.258 . S
O1275 Gd1224 2.362 . S
O1275 Gd1225 2.606 . S
O1275 C1291 1.284 . S
O1276 Gd1224 2.324 . S
O1276 C1299 1.254 . S
O1277 Gd1225 2.429 . S
O1277 C1299 1.268 . S
O1278 Gd1225 2.545 . S
O1278 C1291 1.250 . S
O1279 Gd1225 2.412 . S
O1279 C1292 1.252 . S
C1280 O1269 1.284 . S
C1280 O1272 1.250 . S
C1281 H1250 0.929 . S
C1281 C1266 1.437 . S
C1281 C1282 1.317 . S
C1282 H1253 0.930 . S
C1282 C1258 1.431 . S
C1282 C1281 1.317 . S
C1283 Gd1224 2.828 . S
C1283 O1268 1.258 . S
C1283 O1273 1.252 . S
C1283 C1284 1.497 . S
C1284 C1283 1.497 . S
C1284 C1285 1.395 . S
C1284 C1286 1.380 . S
C1285 C1284 1.395 . S
C1285 C1288 1.398 . S
C1285 H1300 0.930 . S
C1286 C1284 1.380 . S
C1286 C1287 1.391 . S
C1286 H1301 0.930 . S
C1287 C1286 1.391 . S
C1287 C1289 1.387 . S
C1288 C1285 1.398 . S
C1288 C1289 1.380 . S
C1288 H1302 0.930 . S
C1289 C1287 1.387 . S
C1289 C1288 1.380 . S
C1289 H1303 0.930 . S
C1290 O1270 1.254 . S
C1290 O1271 1.268 . S
C1291 O1275 1.284 . S
C1291 O1278 1.250 . S
C1292 Gd1225 2.828 . S
C1292 O1274 1.258 . S
C1292 O1279 1.252 . S
C1292 C1293 1.497 . S
C1293 C1292 1.497 . S
C1293 C1294 1.395 . S
C1293 C1295 1.380 . S
C1294 C1293 1.395 . S
C1294 C1297 1.398 . S
C1294 H1304 0.930 . S
C1295 C1293 1.380 . S
C1295 C1296 1.391 . S
C1295 H1305 0.930 . S
C1296 C1295 1.391 . S
C1296 C1298 1.387 . S
C1297 C1294 1.398 . S
C1297 C1298 1.380 . S
C1297 H1306 0.930 . S
C1298 C1296 1.387 . S
C1298 C1297 1.380 . S
C1298 H1307 0.930 . S
C1299 O1276 1.254 . S
C1299 O1277 1.268 . S
H1300 C1285 0.930 . S
H1301 C1286 0.930 . S
H1302 C1288 0.930 . S
H1303 C1289 0.930 . S
H1304 C1294 0.930 . S
H1305 C1295 0.930 . S
H1306 C1297 0.930 . S
H1307 C1298 0.930 . S
Gd1308 N1339 2.661 . S
Gd1308 N1345 2.601 . S
Gd1308 O1352 2.545 . S
Gd1308 O1353 2.606 . S
Gd1308 O1355 2.429 . S
Gd1308 O1356 2.545 . S
Gd1308 O1357 2.412 . S
Gd1308 O1359 2.362 . S
Gd1308 O1360 2.324 . S
Gd1308 C1367 2.828 . S
Gd1309 N1318 2.661 . S
Gd1309 N1322 2.601 . S
Gd1309 O1353 2.362 . S
Gd1309 O1354 2.324 . S
Gd1309 O1358 2.545 . S
Gd1309 O1359 2.606 . S
Gd1309 O1361 2.429 . S
Gd1309 O1362 2.545 . S
Gd1309 O1363 2.412 . S
Gd1309 C1376 2.828 . S
C1310 C1313 1.417 . S
C1310 C1315 1.431 . S
C1310 C1316 1.412 . S
C1311 C1314 1.437 . S
C1311 C1315 1.317 . S
C1311 H1330 0.929 . S
C1312 C1313 1.426 . S
C1312 C1314 1.413 . S
C1312 N1322 1.359 . S
C1313 C1310 1.417 . S
C1313 C1312 1.426 . S
C1313 N1318 1.350 . S
C1314 C1311 1.437 . S
C1314 C1312 1.413 . S
C1314 C1324 1.391 . S
C1315 C1310 1.431 . S
C1315 C1311 1.317 . S
C1315 H1326 0.930 . S
C1316 C1310 1.412 . S
C1316 C1317 1.355 . S
C1316 H1328 0.930 . S
C1317 C1316 1.355 . S
C1317 C1319 1.402 . S
C1317 H1329 0.930 . S
N1318 Gd1309 2.661 . S
N1318 C1313 1.350 . S
N1318 C1319 1.307 . S
C1319 C1317 1.402 . S
C1319 N1318 1.307 . S
C1319 H1320 0.930 . S
H1320 C1319 0.930 . S
C1321 N1322 1.334 . S
C1321 C1323 1.394 . S
C1321 H1325 0.930 . S
N1322 Gd1309 2.601 . S
N1322 C1312 1.359 . S
N1322 C1321 1.334 . S
C1323 C1321 1.394 . S
C1323 C1324 1.359 . S
C1323 H1335 0.930 . S
C1324 C1314 1.391 . S
C1324 C1323 1.359 . S
C1324 H1336 0.929 . S
H1325 C1321 0.930 . S
H1326 C1315 0.930 . S
H1327 C1344 0.930 . S
H1328 C1316 0.930 . S
H1329 C1317 0.930 . S
H1330 C1311 0.929 . S
H1331 C1349 0.930 . S
H1332 C1340 0.930 . S
H1333 C1341 0.930 . S
H1334 C1365 0.929 . S
H1335 C1323 0.930 . S
H1336 C1324 0.929 . S
H1337 C1366 0.930 . S
H1338 C1347 0.930 . S
N1339 Gd1308 2.661 . S
N1339 C1343 1.350 . S
N1339 C1344 1.307 . S
C1340 H1332 0.930 . S
C1340 C1341 1.355 . S
C1340 C1342 1.412 . S
C1341 H1333 0.930 . S
C1341 C1340 1.355 . S
C1341 C1344 1.402 . S
C1342 C1340 1.412 . S
C1342 C1343 1.417 . S
C1342 C1366 1.431 . S
C1343 N1339 1.350 . S
C1343 C1342 1.417 . S
C1343 C1346 1.426 . S
C1344 H1327 0.930 . S
C1344 N1339 1.307 . S
C1344 C1341 1.402 . S
N1345 Gd1308 2.601 . S
N1345 C1346 1.359 . S
N1345 C1349 1.334 . S
C1346 C1343 1.426 . S
C1346 N1345 1.359 . S
C1346 C1350 1.413 . S
C1347 H1338 0.930 . S
C1347 C1348 1.359 . S
C1347 C1349 1.394 . S
C1348 C1347 1.359 . S
C1348 C1350 1.391 . S
C1348 H1351 0.929 . S
C1349 H1331 0.930 . S
C1349 N1345 1.334 . S
C1349 C1347 1.394 . S
C1350 C1346 1.413 . S
C1350 C1348 1.391 . S
C1350 C1365 1.437 . S
H1351 C1348 0.929 . S
O1352 Gd1308 2.545 . S
O1352 C1367 1.258 . S
O1353 Gd1308 2.606 . S
O1353 Gd1309 2.362 . S
O1353 C1364 1.284 . S
O1354 Gd1309 2.324 . S
O1354 C1374 1.254 . S
O1355 Gd1308 2.429 . S
O1355 C1374 1.268 . S
O1356 Gd1308 2.545 . S
O1356 C1364 1.250 . S
O1357 Gd1308 2.412 . S
O1357 C1367 1.252 . S
O1358 Gd1309 2.545 . S
O1358 C1376 1.258 . S
O1359 Gd1308 2.362 . S
O1359 Gd1309 2.606 . S
O1359 C1375 1.284 . S
O1360 Gd1308 2.324 . S
O1360 C1383 1.254 . S
O1361 Gd1309 2.429 . S
O1361 C1383 1.268 . S
O1362 Gd1309 2.545 . S
O1362 C1375 1.250 . S
O1363 Gd1309 2.412 . S
O1363 C1376 1.252 . S
C1364 O1353 1.284 . S
C1364 O1356 1.250 . S
C1365 H1334 0.929 . S
C1365 C1350 1.437 . S
C1365 C1366 1.317 . S
C1366 H1337 0.930 . S
C1366 C1342 1.431 . S
C1366 C1365 1.317 . S
C1367 Gd1308 2.828 . S
C1367 O1352 1.258 . S
C1367 O1357 1.252 . S
C1367 C1368 1.497 . S
C1368 C1367 1.497 . S
C1368 C1369 1.395 . S
C1368 C1370 1.380 . S
C1369 C1368 1.395 . S
C1369 C1372 1.398 . S
C1369 H1384 0.930 . S
C1370 C1368 1.380 . S
C1370 C1371 1.391 . S
C1370 H1385 0.930 . S
C1371 C1370 1.391 . S
C1371 C1373 1.387 . S
C1372 C1369 1.398 . S
C1372 C1373 1.380 . S
C1372 H1386 0.930 . S
C1373 C1371 1.387 . S
C1373 C1372 1.380 . S
C1373 H1387 0.930 . S
C1374 O1354 1.254 . S
C1374 O1355 1.268 . S
C1375 O1359 1.284 . S
C1375 O1362 1.250 . S
C1376 Gd1309 2.828 . S
C1376 O1358 1.258 . S
C1376 O1363 1.252 . S
C1376 C1377 1.497 . S
C1377 C1376 1.497 . S
C1377 C1378 1.395 . S
C1377 C1379 1.380 . S
C1378 C1377 1.395 . S
C1378 C1381 1.398 . S
C1378 H1388 0.930 . S
C1379 C1377 1.380 . S
C1379 C1380 1.391 . S
C1379 H1389 0.930 . S
C1380 C1379 1.391 . S
C1380 C1382 1.387 . S
C1381 C1378 1.398 . S
C1381 C1382 1.380 . S
C1381 H1390 0.930 . S
C1382 C1380 1.387 . S
C1382 C1381 1.380 . S
C1382 H1391 0.930 . S
C1383 O1360 1.254 . S
C1383 O1361 1.268 . S
H1384 C1369 0.930 . S
H1385 C1370 0.930 . S
H1386 C1372 0.930 . S
H1387 C1373 0.930 . S
H1388 C1378 0.930 . S
H1389 C1379 0.930 . S
H1390 C1381 0.930 . S
H1391 C1382 0.930 . S
Gd1392 N1423 2.661 . S
Gd1392 N1429 2.601 . S
Gd1392 O1436 2.545 . S
Gd1392 O1437 2.606 . S
Gd1392 O1439 2.429 . S
Gd1392 O1440 2.545 . S
Gd1392 O1441 2.412 . S
Gd1392 O1443 2.362 . S
Gd1392 O1444 2.324 . S
Gd1392 C1451 2.828 . S
Gd1393 N1402 2.661 . S
Gd1393 N1406 2.601 . S
Gd1393 O1437 2.362 . S
Gd1393 O1438 2.324 . S
Gd1393 O1442 2.545 . S
Gd1393 O1443 2.606 . S
Gd1393 O1445 2.429 . S
Gd1393 O1446 2.545 . S
Gd1393 O1447 2.412 . S
Gd1393 C1460 2.828 . S
C1394 C1397 1.417 . S
C1394 C1399 1.431 . S
C1394 C1400 1.412 . S
C1395 C1398 1.437 . S
C1395 C1399 1.317 . S
C1395 H1414 0.929 . S
C1396 C1397 1.426 . S
C1396 C1398 1.413 . S
C1396 N1406 1.359 . S
C1397 C1394 1.417 . S
C1397 C1396 1.426 . S
C1397 N1402 1.350 . S
C1398 C1395 1.437 . S
C1398 C1396 1.413 . S
C1398 C1408 1.391 . S
C1399 C1394 1.431 . S
C1399 C1395 1.317 . S
C1399 H1410 0.930 . S
C1400 C1394 1.412 . S
C1400 C1401 1.355 . S
C1400 H1412 0.930 . S
C1401 C1400 1.355 . S
C1401 C1403 1.402 . S
C1401 H1413 0.930 . S
N1402 Gd1393 2.661 . S
N1402 C1397 1.350 . S
N1402 C1403 1.307 . S
C1403 C1401 1.402 . S
C1403 N1402 1.307 . S
C1403 H1404 0.930 . S
H1404 C1403 0.930 . S
C1405 N1406 1.334 . S
C1405 C1407 1.394 . S
C1405 H1409 0.930 . S
N1406 Gd1393 2.601 . S
N1406 C1396 1.359 . S
N1406 C1405 1.334 . S
C1407 C1405 1.394 . S
C1407 C1408 1.359 . S
C1407 H1419 0.930 . S
C1408 C1398 1.391 . S
C1408 C1407 1.359 . S
C1408 H1420 0.929 . S
H1409 C1405 0.930 . S
H1410 C1399 0.930 . S
H1411 C1428 0.930 . S
H1412 C1400 0.930 . S
H1413 C1401 0.930 . S
H1414 C1395 0.929 . S
H1415 C1433 0.930 . S
H1416 C1424 0.930 . S
H1417 C1425 0.930 . S
H1418 C1449 0.929 . S
H1419 C1407 0.930 . S
H1420 C1408 0.929 . S
H1421 C1450 0.930 . S
H1422 C1431 0.930 . S
N1423 Gd1392 2.661 . S
N1423 C1427 1.350 . S
N1423 C1428 1.307 . S
C1424 H1416 0.930 . S
C1424 C1425 1.355 . S
C1424 C1426 1.412 . S
C1425 H1417 0.930 . S
C1425 C1424 1.355 . S
C1425 C1428 1.402 . S
C1426 C1424 1.412 . S
C1426 C1427 1.417 . S
C1426 C1450 1.431 . S
C1427 N1423 1.350 . S
C1427 C1426 1.417 . S
C1427 C1430 1.426 . S
C1428 H1411 0.930 . S
C1428 N1423 1.307 . S
C1428 C1425 1.402 . S
N1429 Gd1392 2.601 . S
N1429 C1430 1.359 . S
N1429 C1433 1.334 . S
C1430 C1427 1.426 . S
C1430 N1429 1.359 . S
C1430 C1434 1.413 . S
C1431 H1422 0.930 . S
C1431 C1432 1.359 . S
C1431 C1433 1.394 . S
C1432 C1431 1.359 . S
C1432 C1434 1.391 . S
C1432 H1435 0.929 . S
C1433 H1415 0.930 . S
C1433 N1429 1.334 . S
C1433 C1431 1.394 . S
C1434 C1430 1.413 . S
C1434 C1432 1.391 . S
C1434 C1449 1.437 . S
H1435 C1432 0.929 . S
O1436 Gd1392 2.545 . S
O1436 C1451 1.258 . S
O1437 Gd1392 2.606 . S
O1437 Gd1393 2.362 . S
O1437 C1448 1.284 . S
O1438 Gd1393 2.324 . S
O1438 C1458 1.254 . S
O1439 Gd1392 2.429 . S
O1439 C1458 1.268 . S
O1440 Gd1392 2.545 . S
O1440 C1448 1.250 . S
O1441 Gd1392 2.412 . S
O1441 C1451 1.252 . S
O1442 Gd1393 2.545 . S
O1442 C1460 1.258 . S
O1443 Gd1392 2.362 . S
O1443 Gd1393 2.606 . S
O1443 C1459 1.284 . S
O1444 Gd1392 2.324 . S
O1444 C1467 1.254 . S
O1445 Gd1393 2.429 . S
O1445 C1467 1.268 . S
O1446 Gd1393 2.545 . S
O1446 C1459 1.250 . S
O1447 Gd1393 2.412 . S
O1447 C1460 1.252 . S
C1448 O1437 1.284 . S
C1448 O1440 1.250 . S
C1449 H1418 0.929 . S
C1449 C1434 1.437 . S
C1449 C1450 1.317 . S
C1450 H1421 0.930 . S
C1450 C1426 1.431 . S
C1450 C1449 1.317 . S
C1451 Gd1392 2.828 . S
C1451 O1436 1.258 . S
C1451 O1441 1.252 . S
C1451 C1452 1.497 . S
C1452 C1451 1.497 . S
C1452 C1453 1.395 . S
C1452 C1454 1.380 . S
C1453 C1452 1.395 . S
C1453 C1456 1.398 . S
C1453 H1468 0.930 . S
C1454 C1452 1.380 . S
C1454 C1455 1.391 . S
C1454 H1469 0.930 . S
C1455 C1454 1.391 . S
C1455 C1457 1.387 . S
C1456 C1453 1.398 . S
C1456 C1457 1.380 . S
C1456 H1470 0.930 . S
C1457 C1455 1.387 . S
C1457 C1456 1.380 . S
C1457 H1471 0.930 . S
C1458 O1438 1.254 . S
C1458 O1439 1.268 . S
C1459 O1443 1.284 . S
C1459 O1446 1.250 . S
C1460 Gd1393 2.828 . S
C1460 O1442 1.258 . S
C1460 O1447 1.252 . S
C1460 C1461 1.497 . S
C1461 C1460 1.497 . S
C1461 C1462 1.395 . S
C1461 C1463 1.380 . S
C1462 C1461 1.395 . S
C1462 C1465 1.398 . S
C1462 H1472 0.930 . S
C1463 C1461 1.380 . S
C1463 C1464 1.391 . S
C1463 H1473 0.930 . S
C1464 C1463 1.391 . S
C1464 C1466 1.387 . S
C1465 C1462 1.398 . S
C1465 C1466 1.380 . S
C1465 H1474 0.930 . S
C1466 C1464 1.387 . S
C1466 C1465 1.380 . S
C1466 H1475 0.930 . S
C1467 O1444 1.254 . S
C1467 O1445 1.268 . S
H1468 C1453 0.930 . S
H1469 C1454 0.930 . S
H1470 C1456 0.930 . S
H1471 C1457 0.930 . S
H1472 C1462 0.930 . S
H1473 C1463 0.930 . S
H1474 C1465 0.930 . S
H1475 C1466 0.930 . S
C1476 C1477 1.369 . S
C1476 C1478 1.419 . S
C1476 H1480 0.930 . S
C1477 C1476 1.369 . S
C1477 C1486 1.429 . S
C1478 C1476 1.419 . S
C1478 C1479 1.363 . S
C1478 H1481 0.929 . S
C1479 C1478 1.363 . S
C1479 C1485 1.428 . S
H1480 C1476 0.930 . S
H1481 C1478 0.929 . S
S1482 N1483 1.613 . S
S1482 N1484 1.610 . S
N1483 S1482 1.613 . S
N1483 C1486 1.350 . S
N1484 S1482 1.610 . S
N1484 C1485 1.351 . S
C1485 C1479 1.428 . S
C1485 N1484 1.351 . S
C1485 C1486 1.434 . S
C1486 C1477 1.429 . S
C1486 N1483 1.350 . S
C1486 C1485 1.434 . S
C1487 C1488 1.369 . S
C1487 C1489 1.419 . S
C1487 H1491 0.930 . S
C1488 C1487 1.369 . S
C1488 C1497 1.429 . S
C1489 C1487 1.419 . S
C1489 C1490 1.363 . S
C1489 H1492 0.929 . S
C1490 C1489 1.363 . S
C1490 C1496 1.428 . S
H1491 C1487 0.930 . S
H1492 C1489 0.929 . S
S1493 N1494 1.613 . S
S1493 N1495 1.610 . S
N1494 S1493 1.613 . S
N1494 C1497 1.350 . S
N1495 S1493 1.610 . S
N1495 C1496 1.351 . S
C1496 C1490 1.428 . S
C1496 N1495 1.351 . S
C1496 C1497 1.434 . S
C1497 C1488 1.429 . S
C1497 N1494 1.350 . S
C1497 C1496 1.434 . S
C1498 C1499 1.369 . S
C1498 C1500 1.419 . S
C1498 H1502 0.930 . S
C1499 C1498 1.369 . S
C1499 C1508 1.429 . S
C1500 C1498 1.419 . S
C1500 C1501 1.363 . S
C1500 H1503 0.929 . S
C1501 C1500 1.363 . S
C1501 C1507 1.428 . S
H1502 C1498 0.930 . S
H1503 C1500 0.929 . S
S1504 N1505 1.613 . S
S1504 N1506 1.610 . S
N1505 S1504 1.613 . S
N1505 C1508 1.350 . S
N1506 S1504 1.610 . S
N1506 C1507 1.351 . S
C1507 C1501 1.428 . S
C1507 N1506 1.351 . S
C1507 C1508 1.434 . S
C1508 C1499 1.429 . S
C1508 N1505 1.350 . S
C1508 C1507 1.434 . S
C1509 C1510 1.369 . S
C1509 C1511 1.419 . S
C1509 H1513 0.930 . S
C1510 C1509 1.369 . S
C1510 C1519 1.429 . S
C1511 C1509 1.419 . S
C1511 C1512 1.363 . S
C1511 H1514 0.929 . S
C1512 C1511 1.363 . S
C1512 C1518 1.428 . S
H1513 C1509 0.930 . S
H1514 C1511 0.929 . S
S1515 N1516 1.613 . S
S1515 N1517 1.610 . S
N1516 S1515 1.613 . S
N1516 C1519 1.350 1_554 S
N1517 S1515 1.610 . S
N1517 C1518 1.351 1_554 S
C1518 C1512 1.428 . S
C1518 N1517 1.351 1_556 S
C1518 C1519 1.434 . S
C1519 C1510 1.429 . S
C1519 N1516 1.350 1_556 S
C1519 C1518 1.434 . S
C1520 C1521 1.369 . S
C1520 C1522 1.419 . S
C1520 H1524 0.930 . S
C1521 C1520 1.369 . S
C1521 C1530 1.429 . S
C1522 C1520 1.419 . S
C1522 C1523 1.363 . S
C1522 H1525 0.929 . S
C1523 C1522 1.363 . S
C1523 C1529 1.428 . S
H1524 C1520 0.930 . S
H1525 C1522 0.929 . S
S1526 N1527 1.613 1_554 S
S1526 N1528 1.610 . S
N1527 S1526 1.613 1_556 S
N1527 C1530 1.350 . S
N1528 S1526 1.610 . S
N1528 C1529 1.351 1_554 S
C1529 C1523 1.428 . S
C1529 N1528 1.351 1_556 S
C1529 C1530 1.434 . S
C1530 C1521 1.429 . S
C1530 N1527 1.350 . S
C1530 C1529 1.434 . S
C1531 C1532 1.369 . S
C1531 C1533 1.419 . S
C1531 H1535 0.930 . S
C1532 C1531 1.369 . S
C1532 C1541 1.429 . S
C1533 C1531 1.419 . S
C1533 C1534 1.363 . S
C1533 H1536 0.929 . S
C1534 C1533 1.363 . S
C1534 C1540 1.428 . S
H1535 C1531 0.930 . S
H1536 C1533 0.929 . S
S1537 N1538 1.613 . S
S1537 N1539 1.610 . S
N1538 S1537 1.613 . S
N1538 C1541 1.350 . S
N1539 S1537 1.610 . S
N1539 C1540 1.351 . S
C1540 C1534 1.428 . S
C1540 N1539 1.351 . S
C1540 C1541 1.434 . S
C1541 C1532 1.429 . S
C1541 N1538 1.350 . S
C1541 C1540 1.434 . S
C1542 C1543 1.369 . S
C1542 C1544 1.419 . S
C1542 H1546 0.930 . S
C1543 C1542 1.369 . S
C1543 C1552 1.429 . S
C1544 C1542 1.419 . S
C1544 C1545 1.363 . S
C1544 H1547 0.929 . S
C1545 C1544 1.363 . S
C1545 C1551 1.428 . S
H1546 C1542 0.930 . S
H1547 C1544 0.929 . S
S1548 N1549 1.613 . S
S1548 N1550 1.610 . S
N1549 S1548 1.613 . S
N1549 C1552 1.350 . S
N1550 S1548 1.610 . S
N1550 C1551 1.351 . S
C1551 C1545 1.428 . S
C1551 N1550 1.351 . S
C1551 C1552 1.434 . S
C1552 C1543 1.429 . S
C1552 N1549 1.350 . S
C1552 C1551 1.434 . S
C1553 C1554 1.369 . S
C1553 C1555 1.419 . S
C1553 H1557 0.930 . S
C1554 C1553 1.369 . S
C1554 C1563 1.429 . S
C1555 C1553 1.419 . S
C1555 C1556 1.363 . S
C1555 H1558 0.929 . S
C1556 C1555 1.363 . S
C1556 C1562 1.428 . S
H1557 C1553 0.930 . S
H1558 C1555 0.929 . S
S1559 N1560 1.613 . S
S1559 N1561 1.610 . S
N1560 S1559 1.613 . S
N1560 C1563 1.350 . S
N1561 S1559 1.610 . S
N1561 C1562 1.351 . S
C1562 C1556 1.428 . S
C1562 N1561 1.351 . S
C1562 C1563 1.434 . S
C1563 C1554 1.429 . S
C1563 N1560 1.350 . S
C1563 C1562 1.434 . S
C1564 C1565 1.369 . S
C1564 C1566 1.419 . S
C1564 H1568 0.930 1_556 S
C1565 C1564 1.369 . S
C1565 C1574 1.429 . S
C1566 C1564 1.419 . S
C1566 C1567 1.363 . S
C1566 H1569 0.929 1_556 S
C1567 C1566 1.363 . S
C1567 C1573 1.428 . S
H1568 C1564 0.930 1_554 S
H1569 C1566 0.929 1_554 S
S1570 N1571 1.613 . S
S1570 N1572 1.610 . S
N1571 S1570 1.613 . S
N1571 C1574 1.350 . S
N1572 S1570 1.610 . S
N1572 C1573 1.351 . S
C1573 C1567 1.428 . S
C1573 N1572 1.351 . S
C1573 C1574 1.434 . S
C1574 C1565 1.429 . S
C1574 N1571 1.350 . S
C1574 C1573 1.434 . S
C1575 C1576 1.369 . S
C1575 C1577 1.419 . S
C1575 H1579 0.930 . S
C1576 C1575 1.369 . S
C1576 C1585 1.429 . S
C1577 C1575 1.419 . S
C1577 C1578 1.363 . S
C1577 H1580 0.929 . S
C1578 C1577 1.363 . S
C1578 C1584 1.428 . S
H1579 C1575 0.930 . S
H1580 C1577 0.929 . S
S1581 N1582 1.613 . S
S1581 N1583 1.610 . S
N1582 S1581 1.613 . S
N1582 C1585 1.350 . S
N1583 S1581 1.610 . S
N1583 C1584 1.351 . S
C1584 C1578 1.428 . S
C1584 N1583 1.351 . S
C1584 C1585 1.434 . S
C1585 C1576 1.429 . S
C1585 N1582 1.350 . S
C1585 C1584 1.434 . S
C1586 C1587 1.369 . S
C1586 C1588 1.419 . S
C1586 H1590 0.930 . S
C1587 C1586 1.369 . S
C1587 C1596 1.429 . S
C1588 C1586 1.419 . S
C1588 C1589 1.363 . S
C1588 H1591 0.929 . S
C1589 C1588 1.363 . S
C1589 C1595 1.428 . S
H1590 C1586 0.930 . S
H1591 C1588 0.929 . S
S1592 N1593 1.613 1_556 S
S1592 N1594 1.610 . S
N1593 S1592 1.613 1_554 S
N1593 C1596 1.350 . S
N1594 S1592 1.610 . S
N1594 C1595 1.351 1_556 S
C1595 C1589 1.428 . S
C1595 N1594 1.351 1_554 S
C1595 C1596 1.434 . S
C1596 C1587 1.429 . S
C1596 N1593 1.350 . S
C1596 C1595 1.434 . S
C1597 C1598 1.369 . S
C1597 C1599 1.419 . S
C1597 H1601 0.930 . S
C1598 C1597 1.369 . S
C1598 C1607 1.429 . S
C1599 C1597 1.419 . S
C1599 C1600 1.363 . S
C1599 H1602 0.929 . S
C1600 C1599 1.363 . S
C1600 C1606 1.428 . S
H1601 C1597 0.930 . S
H1602 C1599 0.929 . S
S1603 N1604 1.613 1_556 S
S1603 N1605 1.610 . S
N1604 S1603 1.613 1_554 S
N1604 C1607 1.350 . S
N1605 S1603 1.610 . S
N1605 C1606 1.351 1_556 S
C1606 C1600 1.428 . S
C1606 N1605 1.351 1_554 S
C1606 C1607 1.434 . S
C1607 C1598 1.429 . S
C1607 N1604 1.350 . S
C1607 C1606 1.434 . S
C1608 C1609 1.369 . S
C1608 C1610 1.419 . S
C1608 H1612 0.930 . S
C1609 C1608 1.369 . S
C1609 C1618 1.429 . S
C1610 C1608 1.419 . S
C1610 C1611 1.363 . S
C1610 H1613 0.929 . S
C1611 C1610 1.363 . S
C1611 C1617 1.428 . S
H1612 C1608 0.930 . S
H1613 C1610 0.929 . S
S1614 N1615 1.613 . S
S1614 N1616 1.610 . S
N1615 S1614 1.613 . S
N1615 C1618 1.350 . S
N1616 S1614 1.610 . S
N1616 C1617 1.351 . S
C1617 C1611 1.428 . S
C1617 N1616 1.351 . S
C1617 C1618 1.434 . S
C1618 C1609 1.429 . S
C1618 N1615 1.350 . S
C1618 C1617 1.434 . S
C1619 C1620 1.369 . S
C1619 C1621 1.419 . S
C1619 H1623 0.930 . S
C1620 C1619 1.369 . S
C1620 C1629 1.429 . S
C1621 C1619 1.419 . S
C1621 C1622 1.363 . S
C1621 H1624 0.929 . S
C1622 C1621 1.363 . S
C1622 C1628 1.428 . S
H1623 C1619 0.930 . S
H1624 C1621 0.929 . S
S1625 N1626 1.613 . S
S1625 N1627 1.610 . S
N1626 S1625 1.613 . S
N1626 C1629 1.350 . S
N1627 S1625 1.610 . S
N1627 C1628 1.351 . S
C1628 C1622 1.428 . S
C1628 N1627 1.351 . S
C1628 C1629 1.434 . S
C1629 C1620 1.429 . S
C1629 N1626 1.350 . S
C1629 C1628 1.434 . S
C1630 C1631 1.369 . S
C1630 C1632 1.419 . S
C1630 H1634 0.930 . S
C1631 C1630 1.369 . S
C1631 C1640 1.429 . S
C1632 C1630 1.419 . S
C1632 C1633 1.363 . S
C1632 H1635 0.929 . S
C1633 C1632 1.363 . S
C1633 C1639 1.428 . S
H1634 C1630 0.930 . S
H1635 C1632 0.929 . S
S1636 N1637 1.613 . S
S1636 N1638 1.610 . S
N1637 S1636 1.613 . S
N1637 C1640 1.350 . S
N1638 S1636 1.610 . S
N1638 C1639 1.351 . S
C1639 C1633 1.428 . S
C1639 N1638 1.351 . S
C1639 C1640 1.434 . S
C1640 C1631 1.429 . S
C1640 N1637 1.350 . S
C1640 C1639 1.434 . S
C1641 C1642 1.369 . S
C1641 C1643 1.419 . S
C1641 H1645 0.930 . S
C1642 C1641 1.369 . S
C1642 C1651 1.429 . S
C1643 C1641 1.419 . S
C1643 C1644 1.363 . S
C1643 H1646 0.929 . S
C1644 C1643 1.363 . S
C1644 C1650 1.428 . S
H1645 C1641 0.930 . S
H1646 C1643 0.929 . S
S1647 N1648 1.613 . S
S1647 N1649 1.610 . S
N1648 S1647 1.613 . S
N1648 C1651 1.350 . S
N1649 S1647 1.610 . S
N1649 C1650 1.351 . S
C1650 C1644 1.428 . S
C1650 N1649 1.351 . S
C1650 C1651 1.434 . S
C1651 C1642 1.429 . S
C1651 N1648 1.350 . S
C1651 C1650 1.434 . S
C1652 C1653 1.369 . S
C1652 C1654 1.419 . S
C1652 H1656 0.930 . S
C1653 C1652 1.369 . S
C1653 C1662 1.429 . S
C1654 C1652 1.419 . S
C1654 C1655 1.363 . S
C1654 H1657 0.929 . S
C1655 C1654 1.363 . S
C1655 C1661 1.428 . S
H1656 C1652 0.930 . S
H1657 C1654 0.929 . S
S1658 N1659 1.613 . S
S1658 N1660 1.610 . S
N1659 S1658 1.613 . S
N1659 C1662 1.350 . S
N1660 S1658 1.610 . S
N1660 C1661 1.351 . S
C1661 C1655 1.428 . S
C1661 N1660 1.351 . S
C1661 C1662 1.434 . S
C1662 C1653 1.429 . S
C1662 N1659 1.350 . S
C1662 C1661 1.434 . S
C1663 C1664 1.369 . S
C1663 C1665 1.419 . S
C1663 H1667 0.930 . S
C1664 C1663 1.369 . S
C1664 C1673 1.429 . S
C1665 C1663 1.419 . S
C1665 C1666 1.363 . S
C1665 H1668 0.929 . S
C1666 C1665 1.363 . S
C1666 C1672 1.428 . S
H1667 C1663 0.930 . S
H1668 C1665 0.929 . S
S1669 N1670 1.613 . S
S1669 N1671 1.610 . S
N1670 S1669 1.613 . S
N1670 C1673 1.350 . S
N1671 S1669 1.610 . S
N1671 C1672 1.351 . S
C1672 C1666 1.428 . S
C1672 N1671 1.351 . S
C1672 C1673 1.434 . S
C1673 C1664 1.429 . S
C1673 N1670 1.350 . S
C1673 C1672 1.434 . S
C1674 C1675 1.369 . S
C1674 C1676 1.419 . S
C1674 H1678 0.930 . S
C1675 C1674 1.369 . S
C1675 C1684 1.429 . S
C1676 C1674 1.419 . S
C1676 C1677 1.363 . S
C1676 H1679 0.929 . S
C1677 C1676 1.363 . S
C1677 C1683 1.428 . S
H1678 C1674 0.930 . S
H1679 C1676 0.929 . S
S1680 N1681 1.613 . S
S1680 N1682 1.610 . S
N1681 S1680 1.613 . S
N1681 C1684 1.350 . S
N1682 S1680 1.610 . S
N1682 C1683 1.351 . S
C1683 C1677 1.428 . S
C1683 N1682 1.351 . S
C1683 C1684 1.434 . S
C1684 C1675 1.429 . S
C1684 N1681 1.350 . S
C1684 C1683 1.434 . S
C1685 C1686 1.369 . S
C1685 C1687 1.419 . S
C1685 H1689 0.930 . S
C1686 C1685 1.369 . S
C1686 C1695 1.429 . S
C1687 C1685 1.419 . S
C1687 C1688 1.363 . S
C1687 H1690 0.929 . S
C1688 C1687 1.363 . S
C1688 C1694 1.428 . S
H1689 C1685 0.930 . S
H1690 C1687 0.929 . S
S1691 N1692 1.613 . S
S1691 N1693 1.610 . S
N1692 S1691 1.613 . S
N1692 C1695 1.350 . S
N1693 S1691 1.610 . S
N1693 C1694 1.351 . S
C1694 C1688 1.428 . S
C1694 N1693 1.351 . S
C1694 C1695 1.434 . S
C1695 C1686 1.429 . S
C1695 N1692 1.350 . S
C1695 C1694 1.434 . S
C1696 C1697 1.369 . S
C1696 C1698 1.419 . S
C1696 H1700 0.930 . S
C1697 C1696 1.369 . S
C1697 C1706 1.429 . S
C1698 C1696 1.419 . S
C1698 C1699 1.363 . S
C1698 H1701 0.929 . S
C1699 C1698 1.363 . S
C1699 C1705 1.428 . S
H1700 C1696 0.930 . S
H1701 C1698 0.929 . S
S1702 N1703 1.613 . S
S1702 N1704 1.610 . S
N1703 S1702 1.613 . S
N1703 C1706 1.350 . S
N1704 S1702 1.610 . S
N1704 C1705 1.351 . S
C1705 C1699 1.428 . S
C1705 N1704 1.351 . S
C1705 C1706 1.434 . S
C1706 C1697 1.429 . S
C1706 N1703 1.350 . S
C1706 C1705 1.434 . S
C1707 C1708 1.369 . S
C1707 C1709 1.419 . S
C1707 H1711 0.930 . S
C1708 C1707 1.369 . S
C1708 C1717 1.429 . S
C1709 C1707 1.419 . S
C1709 C1710 1.363 . S
C1709 H1712 0.929 . S
C1710 C1709 1.363 . S
C1710 C1716 1.428 . S
H1711 C1707 0.930 . S
H1712 C1709 0.929 . S
S1713 N1714 1.613 . S
S1713 N1715 1.610 . S
N1714 S1713 1.613 . S
N1714 C1717 1.350 . S
N1715 S1713 1.610 . S
N1715 C1716 1.351 . S
C1716 C1710 1.428 . S
C1716 N1715 1.351 . S
C1716 C1717 1.434 . S
C1717 C1708 1.429 . S
C1717 N1714 1.350 . S
C1717 C1716 1.434 . S
C1718 C1719 1.369 . S
C1718 C1720 1.419 . S
C1718 H1722 0.930 . S
C1719 C1718 1.369 . S
C1719 C1728 1.429 . S
C1720 C1718 1.419 . S
C1720 C1721 1.363 . S
C1720 H1723 0.929 . S
C1721 C1720 1.363 . S
C1721 C1727 1.428 . S
H1722 C1718 0.930 . S
H1723 C1720 0.929 . S
S1724 N1725 1.613 . S
S1724 N1726 1.610 . S
N1725 S1724 1.613 . S
N1725 C1728 1.350 . S
N1726 S1724 1.610 . S
N1726 C1727 1.351 . S
C1727 C1721 1.428 . S
C1727 N1726 1.351 . S
C1727 C1728 1.434 . S
C1728 C1719 1.429 . S
C1728 N1725 1.350 . S
C1728 C1727 1.434 . S
C1729 C1730 1.369 . S
C1729 C1731 1.419 . S
C1729 H1733 0.930 . S
C1730 C1729 1.369 . S
C1730 C1739 1.429 . S
C1731 C1729 1.419 . S
C1731 C1732 1.363 . S
C1731 H1734 0.929 . S
C1732 C1731 1.363 . S
C1732 C1738 1.428 . S
H1733 C1729 0.930 . S
H1734 C1731 0.929 . S
S1735 N1736 1.613 . S
S1735 N1737 1.610 . S
N1736 S1735 1.613 . S
N1736 C1739 1.350 . S
N1737 S1735 1.610 . S
N1737 C1738 1.351 . S
C1738 C1732 1.428 . S
C1738 N1737 1.351 . S
C1738 C1739 1.434 . S
C1739 C1730 1.429 . S
C1739 N1736 1.350 . S
C1739 C1738 1.434 . S
C1740 C1741 1.369 . S
C1740 C1742 1.419 . S
C1740 H1744 0.930 . S
C1741 C1740 1.369 . S
C1741 C1750 1.429 . S
C1742 C1740 1.419 . S
C1742 C1743 1.363 . S
C1742 H1745 0.929 . S
C1743 C1742 1.363 . S
C1743 C1749 1.428 . S
H1744 C1740 0.930 . S
H1745 C1742 0.929 . S
S1746 N1747 1.613 . S
S1746 N1748 1.610 . S
N1747 S1746 1.613 . S
N1747 C1750 1.350 . S
N1748 S1746 1.610 . S
N1748 C1749 1.351 . S
C1749 C1743 1.428 . S
C1749 N1748 1.351 . S
C1749 C1750 1.434 . S
C1750 C1741 1.429 . S
C1750 N1747 1.350 . S
C1750 C1749 1.434 . S
C1751 C1752 1.369 . S
C1751 C1753 1.419 . S
C1751 H1755 0.930 . S
C1752 C1751 1.369 . S
C1752 C1761 1.429 . S
C1753 C1751 1.419 . S
C1753 C1754 1.363 . S
C1753 H1756 0.929 . S
C1754 C1753 1.363 . S
C1754 C1760 1.428 . S
H1755 C1751 0.930 . S
H1756 C1753 0.929 . S
S1757 N1758 1.613 . S
S1757 N1759 1.610 . S
N1758 S1757 1.613 . S
N1758 C1761 1.350 . S
N1759 S1757 1.610 . S
N1759 C1760 1.351 . S
C1760 C1754 1.428 . S
C1760 N1759 1.351 . S
C1760 C1761 1.434 . S
C1761 C1752 1.429 . S
C1761 N1758 1.350 . S
C1761 C1760 1.434 . S
C1762 C1763 1.369 . S
C1762 C1764 1.419 . S
C1762 H1766 0.930 . S
C1763 C1762 1.369 . S
C1763 C1772 1.429 . S
C1764 C1762 1.419 . S
C1764 C1765 1.363 . S
C1764 H1767 0.929 . S
C1765 C1764 1.363 . S
C1765 C1771 1.428 . S
H1766 C1762 0.930 . S
H1767 C1764 0.929 . S
S1768 N1769 1.613 . S
S1768 N1770 1.610 . S
N1769 S1768 1.613 . S
N1769 C1772 1.350 . S
N1770 S1768 1.610 . S
N1770 C1771 1.351 . S
C1771 C1765 1.428 . S
C1771 N1770 1.351 . S
C1771 C1772 1.434 . S
C1772 C1763 1.429 . S
C1772 N1769 1.350 . S
C1772 C1771 1.434 . S
C1773 C1774 1.369 . S
C1773 C1775 1.419 . S
C1773 H1777 0.930 . S
C1774 C1773 1.369 . S
C1774 C1783 1.429 . S
C1775 C1773 1.419 . S
C1775 C1776 1.363 . S
C1775 H1778 0.929 . S
C1776 C1775 1.363 . S
C1776 C1782 1.428 . S
H1777 C1773 0.930 . S
H1778 C1775 0.929 . S
S1779 N1780 1.613 . S
S1779 N1781 1.610 . S
N1780 S1779 1.613 . S
N1780 C1783 1.350 . S
N1781 S1779 1.610 . S
N1781 C1782 1.351 . S
C1782 C1776 1.428 . S
C1782 N1781 1.351 . S
C1782 C1783 1.434 . S
C1783 C1774 1.429 . S
C1783 N1780 1.350 . S
C1783 C1782 1.434 . S
C1784 C1785 1.369 . S
C1784 C1786 1.419 . S
C1784 H1788 0.930 . S
C1785 C1784 1.369 . S
C1785 C1794 1.429 . S
C1786 C1784 1.419 . S
C1786 C1787 1.363 . S
C1786 H1789 0.929 . S
C1787 C1786 1.363 . S
C1787 C1793 1.428 . S
H1788 C1784 0.930 . S
H1789 C1786 0.929 . S
S1790 N1791 1.613 . S
S1790 N1792 1.610 . S
N1791 S1790 1.613 . S
N1791 C1794 1.350 . S
N1792 S1790 1.610 . S
N1792 C1793 1.351 . S
C1793 C1787 1.428 . S
C1793 N1792 1.351 . S
C1793 C1794 1.434 . S
C1794 C1785 1.429 . S
C1794 N1791 1.350 . S
C1794 C1793 1.434 . S
C1795 C1796 1.369 . S
C1795 C1797 1.419 . S
C1795 H1799 0.930 . S
C1796 C1795 1.369 . S
C1796 C1805 1.429 . S
C1797 C1795 1.419 . S
C1797 C1798 1.363 . S
C1797 H1800 0.929 . S
C1798 C1797 1.363 . S
C1798 C1804 1.428 . S
H1799 C1795 0.930 . S
H1800 C1797 0.929 . S
S1801 N1802 1.613 . S
S1801 N1803 1.610 . S
N1802 S1801 1.613 . S
N1802 C1805 1.350 . S
N1803 S1801 1.610 . S
N1803 C1804 1.351 . S
C1804 C1798 1.428 . S
C1804 N1803 1.351 . S
C1804 C1805 1.434 . S
C1805 C1796 1.429 . S
C1805 N1802 1.350 . S
C1805 C1804 1.434 . S
C1806 C1807 1.369 . S
C1806 C1808 1.419 . S
C1806 H1810 0.930 . S
C1807 C1806 1.369 . S
C1807 C1816 1.429 . S
C1808 C1806 1.419 . S
C1808 C1809 1.363 . S
C1808 H1811 0.929 . S
C1809 C1808 1.363 . S
C1809 C1815 1.428 . S
H1810 C1806 0.930 . S
H1811 C1808 0.929 . S
S1812 N1813 1.613 . S
S1812 N1814 1.610 . S
N1813 S1812 1.613 . S
N1813 C1816 1.350 . S
N1814 S1812 1.610 . S
N1814 C1815 1.351 . S
C1815 C1809 1.428 . S
C1815 N1814 1.351 . S
C1815 C1816 1.434 . S
C1816 C1807 1.429 . S
C1816 N1813 1.350 . S
C1816 C1815 1.434 . S
C1817 C1818 1.369 . S
C1817 C1819 1.419 . S
C1817 H1821 0.930 . S
C1818 C1817 1.369 . S
C1818 C1827 1.429 . S
C1819 C1817 1.419 . S
C1819 C1820 1.363 . S
C1819 H1822 0.929 . S
C1820 C1819 1.363 . S
C1820 C1826 1.428 . S
H1821 C1817 0.930 . S
H1822 C1819 0.929 . S
S1823 N1824 1.613 . S
S1823 N1825 1.610 . S
N1824 S1823 1.613 . S
N1824 C1827 1.350 . S
N1825 S1823 1.610 . S
N1825 C1826 1.351 . S
C1826 C1820 1.428 . S
C1826 N1825 1.351 . S
C1826 C1827 1.434 . S
C1827 C1818 1.429 . S
C1827 N1824 1.350 . S
C1827 C1826 1.434 . S
C1828 C1829 1.369 . S
C1828 C1830 1.419 . S
C1828 H1832 0.930 . S
C1829 C1828 1.369 . S
C1829 C1838 1.429 . S
C1830 C1828 1.419 . S
C1830 C1831 1.363 . S
C1830 H1833 0.929 . S
C1831 C1830 1.363 . S
C1831 C1837 1.428 . S
H1832 C1828 0.930 . S
H1833 C1830 0.929 . S
S1834 N1835 1.613 . S
S1834 N1836 1.610 . S
N1835 S1834 1.613 . S
N1835 C1838 1.350 . S
N1836 S1834 1.610 . S
N1836 C1837 1.351 . S
C1837 C1831 1.428 . S
C1837 N1836 1.351 . S
C1837 C1838 1.434 . S
C1838 C1829 1.429 . S
C1838 N1835 1.350 . S
C1838 C1837 1.434 . S
C1839 C1840 1.369 . S
C1839 C1841 1.419 . S
C1839 H1843 0.930 . S
C1840 C1839 1.369 . S
C1840 C1849 1.429 . S
C1841 C1839 1.419 . S
C1841 C1842 1.363 . S
C1841 H1844 0.929 . S
C1842 C1841 1.363 . S
C1842 C1848 1.428 . S
H1843 C1839 0.930 . S
H1844 C1841 0.929 . S
S1845 N1846 1.613 . S
S1845 N1847 1.610 . S
N1846 S1845 1.613 . S
N1846 C1849 1.350 . S
N1847 S1845 1.610 . S
N1847 C1848 1.351 . S
C1848 C1842 1.428 . S
C1848 N1847 1.351 . S
C1848 C1849 1.434 . S
C1849 C1840 1.429 . S
C1849 N1846 1.350 . S
C1849 C1848 1.434 . S
C1850 C1851 1.369 . S
C1850 C1852 1.419 . S
C1850 H1854 0.930 . S
C1851 C1850 1.369 . S
C1851 C1860 1.429 . S
C1852 C1850 1.419 . S
C1852 C1853 1.363 . S
C1852 H1855 0.929 . S
C1853 C1852 1.363 . S
C1853 C1859 1.428 . S
H1854 C1850 0.930 . S
H1855 C1852 0.929 . S
S1856 N1857 1.613 . S
S1856 N1858 1.610 . S
N1857 S1856 1.613 . S
N1857 C1860 1.350 . S
N1858 S1856 1.610 . S
N1858 C1859 1.351 . S
C1859 C1853 1.428 . S
C1859 N1858 1.351 . S
C1859 C1860 1.434 . S
C1860 C1851 1.429 . S
C1860 N1857 1.350 . S
C1860 C1859 1.434 . S
C1861 C1862 1.369 . S
C1861 C1863 1.419 . S
C1861 H1865 0.930 . S
C1862 C1861 1.369 . S
C1862 C1871 1.429 . S
C1863 C1861 1.419 . S
C1863 C1864 1.363 . S
C1863 H1866 0.929 . S
C1864 C1863 1.363 . S
C1864 C1870 1.428 . S
H1865 C1861 0.930 . S
H1866 C1863 0.929 . S
S1867 N1868 1.613 . S
S1867 N1869 1.610 . S
N1868 S1867 1.613 . S
N1868 C1871 1.350 . S
N1869 S1867 1.610 . S
N1869 C1870 1.351 . S
C1870 C1864 1.428 . S
C1870 N1869 1.351 . S
C1870 C1871 1.434 . S
C1871 C1862 1.429 . S
C1871 N1868 1.350 . S
C1871 C1870 1.434 . S
C1872 C1873 1.369 . S
C1872 C1874 1.419 . S
C1872 H1876 0.930 . S
C1873 C1872 1.369 . S
C1873 C1882 1.429 . S
C1874 C1872 1.419 . S
C1874 C1875 1.363 . S
C1874 H1877 0.929 1_565 S
C1875 C1874 1.363 . S
C1875 C1881 1.428 . S
H1876 C1872 0.930 . S
H1877 C1874 0.929 1_545 S
S1878 N1879 1.613 . S
S1878 N1880 1.610 . S
N1879 S1878 1.613 . S
N1879 C1882 1.350 . S
N1880 S1878 1.610 . S
N1880 C1881 1.351 . S
C1881 C1875 1.428 . S
C1881 N1880 1.351 . S
C1881 C1882 1.434 . S
C1882 C1873 1.429 . S
C1882 N1879 1.350 . S
C1882 C1881 1.434 . S
C1883 C1884 1.369 . S
C1883 C1885 1.419 . S
C1883 H1887 0.930 1_455 S
C1884 C1883 1.369 . S
C1884 C1893 1.429 . S
C1885 C1883 1.419 . S
C1885 C1886 1.363 . S
C1885 H1888 0.929 1_455 S
C1886 C1885 1.363 . S
C1886 C1892 1.428 . S
H1887 C1883 0.930 1_655 S
H1888 C1885 0.929 1_655 S
S1889 N1890 1.613 . S
S1889 N1891 1.610 . S
N1890 S1889 1.613 . S
N1890 C1893 1.350 . S
N1891 S1889 1.610 . S
N1891 C1892 1.351 . S
C1892 C1886 1.428 . S
C1892 N1891 1.351 . S
C1892 C1893 1.434 . S
C1893 C1884 1.429 . S
C1893 N1890 1.350 . S
C1893 C1892 1.434 . S
C1894 C1895 1.369 . S
C1894 C1896 1.419 . S
C1894 H1898 0.930 . S
C1895 C1894 1.369 . S
C1895 C1904 1.429 . S
C1896 C1894 1.419 . S
C1896 C1897 1.363 . S
C1896 H1899 0.929 . S
C1897 C1896 1.363 . S
C1897 C1903 1.428 . S
H1898 C1894 0.930 . S
H1899 C1896 0.929 . S
S1900 N1901 1.613 . S
S1900 N1902 1.610 . S
N1901 S1900 1.613 . S
N1901 C1904 1.350 . S
N1902 S1900 1.610 . S
N1902 C1903 1.351 . S
C1903 C1897 1.428 . S
C1903 N1902 1.351 . S
C1903 C1904 1.434 . S
C1904 C1895 1.429 . S
C1904 N1901 1.350 . S
C1904 C1903 1.434 . S
C1905 C1906 1.369 . S
C1905 C1907 1.419 . S
C1905 H1909 0.930 . S
C1906 C1905 1.369 . S
C1906 C1915 1.429 . S
C1907 C1905 1.419 . S
C1907 C1908 1.363 . S
C1907 H1910 0.929 . S
C1908 C1907 1.363 . S
C1908 C1914 1.428 . S
H1909 C1905 0.930 . S
H1910 C1907 0.929 . S
S1911 N1912 1.613 . S
S1911 N1913 1.610 . S
N1912 S1911 1.613 . S
N1912 C1915 1.350 . S
N1913 S1911 1.610 . S
N1913 C1914 1.351 . S
C1914 C1908 1.428 . S
C1914 N1913 1.351 . S
C1914 C1915 1.434 . S
C1915 C1906 1.429 . S
C1915 N1912 1.350 . S
C1915 C1914 1.434 . S
C1916 C1917 1.369 . S
C1916 C1918 1.419 . S
C1916 H1920 0.930 . S
C1917 C1916 1.369 . S
C1917 C1926 1.429 . S
C1918 C1916 1.419 . S
C1918 C1919 1.363 . S
C1918 H1921 0.929 . S
C1919 C1918 1.363 . S
C1919 C1925 1.428 . S
H1920 C1916 0.930 . S
H1921 C1918 0.929 . S
S1922 N1923 1.613 . S
S1922 N1924 1.610 . S
N1923 S1922 1.613 . S
N1923 C1926 1.350 . S
N1924 S1922 1.610 . S
N1924 C1925 1.351 . S
C1925 C1919 1.428 . S
C1925 N1924 1.351 . S
C1925 C1926 1.434 . S
C1926 C1917 1.429 . S
C1926 N1923 1.350 . S
C1926 C1925 1.434 . S
C1927 C1928 1.369 . S
C1927 C1929 1.419 . S
C1927 H1931 0.930 . S
C1928 C1927 1.369 . S
C1928 C1937 1.429 . S
C1929 C1927 1.419 . S
C1929 C1930 1.363 . S
C1929 H1932 0.929 . S
C1930 C1929 1.363 . S
C1930 C1936 1.428 . S
H1931 C1927 0.930 . S
H1932 C1929 0.929 . S
S1933 N1934 1.613 . S
S1933 N1935 1.610 . S
N1934 S1933 1.613 . S
N1934 C1937 1.350 . S
N1935 S1933 1.610 . S
N1935 C1936 1.351 . S
C1936 C1930 1.428 . S
C1936 N1935 1.351 . S
C1936 C1937 1.434 . S
C1937 C1928 1.429 . S
C1937 N1934 1.350 . S
C1937 C1936 1.434 . S
C1938 C1939 1.369 . S
C1938 C1940 1.419 . S
C1938 H1942 0.930 . S
C1939 C1938 1.369 . S
C1939 C1948 1.429 . S
C1940 C1938 1.419 . S
C1940 C1941 1.363 . S
C1940 H1943 0.929 . S
C1941 C1940 1.363 . S
C1941 C1947 1.428 . S
H1942 C1938 0.930 . S
H1943 C1940 0.929 . S
S1944 N1945 1.613 . S
S1944 N1946 1.610 . S
N1945 S1944 1.613 . S
N1945 C1948 1.350 . S
N1946 S1944 1.610 . S
N1946 C1947 1.351 . S
C1947 C1941 1.428 . S
C1947 N1946 1.351 . S
C1947 C1948 1.434 . S
C1948 C1939 1.429 . S
C1948 N1945 1.350 . S
C1948 C1947 1.434 . S
C1949 C1950 1.369 . S
C1949 C1951 1.419 . S
C1949 H1953 0.930 . S
C1950 C1949 1.369 . S
C1950 C1959 1.429 . S
C1951 C1949 1.419 . S
C1951 C1952 1.363 . S
C1951 H1954 0.929 . S
C1952 C1951 1.363 . S
C1952 C1958 1.428 . S
H1953 C1949 0.930 . S
H1954 C1951 0.929 . S
S1955 N1956 1.613 . S
S1955 N1957 1.610 . S
N1956 S1955 1.613 . S
N1956 C1959 1.350 . S
N1957 S1955 1.610 . S
N1957 C1958 1.351 . S
C1958 C1952 1.428 . S
C1958 N1957 1.351 . S
C1958 C1959 1.434 . S
C1959 C1950 1.429 . S
C1959 N1956 1.350 . S
C1959 C1958 1.434 . S
C1960 C1961 1.369 . S
C1960 C1962 1.419 . S
C1960 H1964 0.930 . S
C1961 C1960 1.369 . S
C1961 C1970 1.429 . S
C1962 C1960 1.419 . S
C1962 C1963 1.363 . S
C1962 H1965 0.929 . S
C1963 C1962 1.363 . S
C1963 C1969 1.428 . S
H1964 C1960 0.930 . S
H1965 C1962 0.929 . S
S1966 N1967 1.613 . S
S1966 N1968 1.610 . S
N1967 S1966 1.613 . S
N1967 C1970 1.350 . S
N1968 S1966 1.610 . S
N1968 C1969 1.351 . S
C1969 C1963 1.428 . S
C1969 N1968 1.351 . S
C1969 C1970 1.434 . S
C1970 C1961 1.429 . S
C1970 N1967 1.350 . S
C1970 C1969 1.434 . S
C1971 C1972 1.369 . S
C1971 C1973 1.419 . S
C1971 H1975 0.930 . S
C1972 C1971 1.369 . S
C1972 C1981 1.429 . S
C1973 C1971 1.419 . S
C1973 C1974 1.363 . S
C1973 H1976 0.929 . S
C1974 C1973 1.363 . S
C1974 C1980 1.428 . S
H1975 C1971 0.930 . S
H1976 C1973 0.929 . S
S1977 N1978 1.613 . S
S1977 N1979 1.610 . S
N1978 S1977 1.613 . S
N1978 C1981 1.350 . S
N1979 S1977 1.610 . S
N1979 C1980 1.351 . S
C1980 C1974 1.428 . S
C1980 N1979 1.351 . S
C1980 C1981 1.434 . S
C1981 C1972 1.429 . S
C1981 N1978 1.350 . S
C1981 C1980 1.434 . S
C1982 C1983 1.369 . S
C1982 C1984 1.419 . S
C1982 H1986 0.930 . S
C1983 C1982 1.369 . S
C1983 C1992 1.429 . S
C1984 C1982 1.419 . S
C1984 C1985 1.363 . S
C1984 H1987 0.929 . S
C1985 C1984 1.363 . S
C1985 C1991 1.428 . S
H1986 C1982 0.930 . S
H1987 C1984 0.929 . S
S1988 N1989 1.613 . S
S1988 N1990 1.610 . S
N1989 S1988 1.613 . S
N1989 C1992 1.350 . S
N1990 S1988 1.610 . S
N1990 C1991 1.351 . S
C1991 C1985 1.428 . S
C1991 N1990 1.351 . S
C1991 C1992 1.434 . S
C1992 C1983 1.429 . S
C1992 N1989 1.350 . S
C1992 C1991 1.434 . S
C1993 C1994 1.369 . S
C1993 C1995 1.419 . S
C1993 H1997 0.930 . S
C1994 C1993 1.369 . S
C1994 C2003 1.429 . S
C1995 C1993 1.419 . S
C1995 C1996 1.363 . S
C1995 H1998 0.929 . S
C1996 C1995 1.363 . S
C1996 C2002 1.428 . S
H1997 C1993 0.930 . S
H1998 C1995 0.929 . S
S1999 N2000 1.613 . S
S1999 N2001 1.610 . S
N2000 S1999 1.613 . S
N2000 C2003 1.350 . S
N2001 S1999 1.610 . S
N2001 C2002 1.351 . S
C2002 C1996 1.428 . S
C2002 N2001 1.351 . S
C2002 C2003 1.434 . S
C2003 C1994 1.429 . S
C2003 N2000 1.350 . S
C2003 C2002 1.434 . S
C2004 C2005 1.369 . S
C2004 C2006 1.419 . S
C2004 H2008 0.930 . S
C2005 C2004 1.369 . S
C2005 C2014 1.429 . S
C2006 C2004 1.419 . S
C2006 C2007 1.363 . S
C2006 H2009 0.929 . S
C2007 C2006 1.363 . S
C2007 C2013 1.428 . S
H2008 C2004 0.930 . S
H2009 C2006 0.929 . S
S2010 N2011 1.613 . S
S2010 N2012 1.610 . S
N2011 S2010 1.613 . S
N2011 C2014 1.350 . S
N2012 S2010 1.610 . S
N2012 C2013 1.351 . S
C2013 C2007 1.428 . S
C2013 N2012 1.351 . S
C2013 C2014 1.434 . S
C2014 C2005 1.429 . S
C2014 N2011 1.350 . S
C2014 C2013 1.434 . S
C2015 C2016 1.369 . S
C2015 C2017 1.419 . S
C2015 H2019 0.930 . S
C2016 C2015 1.369 . S
C2016 C2025 1.429 . S
C2017 C2015 1.419 . S
C2017 C2018 1.363 . S
C2017 H2020 0.929 . S
C2018 C2017 1.363 . S
C2018 C2024 1.428 . S
H2019 C2015 0.930 . S
H2020 C2017 0.929 . S
S2021 N2022 1.613 . S
S2021 N2023 1.610 . S
N2022 S2021 1.613 . S
N2022 C2025 1.350 . S
N2023 S2021 1.610 . S
N2023 C2024 1.351 . S
C2024 C2018 1.428 . S
C2024 N2023 1.351 . S
C2024 C2025 1.434 . S
C2025 C2016 1.429 . S
C2025 N2022 1.350 . S
C2025 C2024 1.434 . S
C2026 C2027 1.369 . S
C2026 C2028 1.419 . S
C2026 H2030 0.930 . S
C2027 C2026 1.369 . S
C2027 C2036 1.429 . S
C2028 C2026 1.419 . S
C2028 C2029 1.363 . S
C2028 H2031 0.929 . S
C2029 C2028 1.363 . S
C2029 C2035 1.428 . S
H2030 C2026 0.930 . S
H2031 C2028 0.929 . S
S2032 N2033 1.613 . S
S2032 N2034 1.610 . S
N2033 S2032 1.613 . S
N2033 C2036 1.350 . S
N2034 S2032 1.610 . S
N2034 C2035 1.351 . S
C2035 C2029 1.428 . S
C2035 N2034 1.351 . S
C2035 C2036 1.434 . S
C2036 C2027 1.429 . S
C2036 N2033 1.350 . S
C2036 C2035 1.434 . S
C2037 C2038 1.369 . S
C2037 C2039 1.419 . S
C2037 H2041 0.930 . S
C2038 C2037 1.369 . S
C2038 C2047 1.429 . S
C2039 C2037 1.419 . S
C2039 C2040 1.363 . S
C2039 H2042 0.929 . S
C2040 C2039 1.363 . S
C2040 C2046 1.428 . S
H2041 C2037 0.930 . S
H2042 C2039 0.929 . S
S2043 N2044 1.613 . S
S2043 N2045 1.610 . S
N2044 S2043 1.613 . S
N2044 C2047 1.350 . S
N2045 S2043 1.610 . S
N2045 C2046 1.351 . S
C2046 C2040 1.428 . S
C2046 N2045 1.351 . S
C2046 C2047 1.434 . S
C2047 C2038 1.429 . S
C2047 N2044 1.350 . S
C2047 C2046 1.434 . S
C2048 C2049 1.369 . S
C2048 C2050 1.419 . S
C2048 H2052 0.930 . S
C2049 C2048 1.369 . S
C2049 C2058 1.429 . S
C2050 C2048 1.419 . S
C2050 C2051 1.363 . S
C2050 H2053 0.929 . S
C2051 C2050 1.363 . S
C2051 C2057 1.428 . S
H2052 C2048 0.930 . S
H2053 C2050 0.929 . S
S2054 N2055 1.613 . S
S2054 N2056 1.610 . S
N2055 S2054 1.613 . S
N2055 C2058 1.350 . S
N2056 S2054 1.610 . S
N2056 C2057 1.351 . S
C2057 C2051 1.428 . S
C2057 N2056 1.351 . S
C2057 C2058 1.434 . S
C2058 C2049 1.429 . S
C2058 N2055 1.350 . S
C2058 C2057 1.434 . S
C2059 C2060 1.369 . S
C2059 C2061 1.419 . S
C2059 H2063 0.930 . S
C2060 C2059 1.369 . S
C2060 C2069 1.429 . S
C2061 C2059 1.419 . S
C2061 C2062 1.363 . S
C2061 H2064 0.929 . S
C2062 C2061 1.363 . S
C2062 C2068 1.428 . S
H2063 C2059 0.930 . S
H2064 C2061 0.929 . S
S2065 N2066 1.613 . S
S2065 N2067 1.610 . S
N2066 S2065 1.613 . S
N2066 C2069 1.350 . S
N2067 S2065 1.610 . S
N2067 C2068 1.351 . S
C2068 C2062 1.428 . S
C2068 N2067 1.351 . S
C2068 C2069 1.434 . S
C2069 C2060 1.429 . S
C2069 N2066 1.350 . S
C2069 C2068 1.434 . S
C1477 C522 1.501 . S
C1479 C776 1.413 . S
C1488 C562 1.487 . S
C1490 C860 1.408 . S
C1499 C495 1.519 . S
C1501 C954 1.471 . S
C1510 C455 1.472 . S
C1512 C870 1.424 . S
C1523 C944 1.354 . S
C1521 C362 1.430 . S
C1532 C402 1.493 . S
C1534 C786 1.418 . S
C1545 C787 1.432 . S
C1543 C442 1.478 . S
C1556 C871 1.392 . S
C1554 C375 1.462 . S
C1565 C415 1.526 . S
C1567 C963 1.468 . S
C1576 C535 1.477 . S
C1578 C879 1.423 . S
C1587 C575 1.408 . S
C1589 C955 1.334 . S
C1600 C795 1.434 . S
C1598 C482 1.463 . S
C1611 C1028 1.418 . S
C1609 C42 1.500 . S
C1620 C82 1.487 . S
C1622 C1112 1.411 . S
C1631 C15 1.522 1_565 S
C1633 C1206 1.467 . S
C1642 C695 1.476 . S
C1644 C1122 1.419 . S
C1653 C602 1.432 . S
C1655 C1196 1.348 . S
C1664 C642 1.495 . S
C1666 C1038 1.409 . S
C1675 C682 1.476 . S
C1677 C1039 1.440 . S
C1686 C615 1.462 . S
C1688 C1123 1.399 . S
C1699 C1215 1.466 . S
C1697 C655 1.526 . S
C1708 C55 1.479 . S
C1710 C1131 1.420 . S
C1721 C1207 1.336 . S
C1719 C95 1.408 . S
C1730 C2 1.458 . S
C1732 C1047 1.437 . S
C1743 C1280 1.414 . S
C1741 C282 1.501 . S
C1752 C322 1.486 . S
C1754 C1364 1.412 . S
C1765 C1458 1.470 . S
C1763 C255 1.519 . S
C1776 C1374 1.420 . S
C1774 C215 1.475 . S
C1787 C1448 1.353 . S
C1785 C122 1.431 . S
C1796 C162 1.493 . S
C1798 C1290 1.416 . S
C1807 C202 1.476 . S
C1809 C1291 1.432 . S
C1818 C135 1.463 . S
C1820 C1375 1.397 . S
C1831 C1467 1.470 . S
C1829 C175 1.557 . S
C1840 C295 1.478 . S
C1842 C1383 1.419 . S
C1851 C335 1.406 . S
C1853 C1459 1.330 . S
C1862 C242 1.458 . S
C1864 C1299 1.437 . S
C1873 C621 1.444 . S
C1875 C783 1.355 . S
C1886 C867 1.365 . S
C1884 C661 1.514 . S
C1895 C701 1.491 . S
C1897 C960 1.360 . S
C1906 C261 1.508 . S
C1908 C876 1.376 . S
C1917 C301 1.478 . S
C1919 C951 1.353 . S
C1930 C792 1.348 . S
C1928 C341 1.440 . S
C1939 C141 1.439 . S
C1941 C1035 1.345 . S
C1950 C181 1.511 . S
C1952 C1119 1.353 . S
C1961 C221 1.489 . S
C1963 C1212 1.367 . S
C1972 C501 1.511 . S
C1974 C1128 1.367 . S
C1985 C1203 1.345 . S
C1983 C541 1.476 . S
C1994 C581 1.444 . S
C1996 C1044 1.358 . S
C2005 C381 1.439 . S
C2007 C1287 1.345 . S
C2016 C421 1.513 . S
C2018 C1371 1.363 . S
C2029 C1464 1.366 . S
C2027 C461 1.490 . S
C2038 C21 1.506 . S
C2040 C1380 1.376 . S
C2049 C61 1.477 . S
C2051 C1455 1.348 . S
C2060 C101 1.439 . S
C2062 C1296 1.348 . S
