# Generated by pormake.
# Topology ibd, (4,6)-cn, num edge types: 1
# Building blocks:
#     Node 0, Type 0, BuildingBlock: NAHDIM_clean_sbu_0, # of connection points: 4
#     Node 1, Type 0, BuildingBlock: NAHDIM_clean_sbu_0, # of connection points: 4
#     Node 2, Type 0, BuildingBlock: NAHDIM_clean_sbu_0, # of connection points: 4
#     Node 3, Type 0, BuildingBlock: NAHDIM_clean_sbu_0, # of connection points: 4
#     Node 4, Type 0, BuildingBlock: NAHDIM_clean_sbu_0, # of connection points: 4
#     Node 5, Type 0, BuildingBlock: NAHDIM_clean_sbu_0, # of connection points: 4
#     Node 6, Type 0, BuildingBlock: NAHDIM_clean_sbu_0, # of connection points: 4
#     Node 7, Type 0, BuildingBlock: NAHDIM_clean_sbu_0, # of connection points: 4
#     Node 8, Type 0, BuildingBlock: NAHDIM_clean_sbu_0, # of connection points: 4
#     Node 9, Type 0, BuildingBlock: NAHDIM_clean_sbu_0, # of connection points: 4
#     Node 10, Type 0, BuildingBlock: NAHDIM_clean_sbu_0, # of connection points: 4
#     Node 11, Type 0, BuildingBlock: NAHDIM_clean_sbu_0, # of connection points: 4
#     Node 12, Type 0, BuildingBlock: NAHDIM_clean_sbu_0, # of connection points: 4
#     Node 13, Type 0, BuildingBlock: NAHDIM_clean_sbu_0, # of connection points: 4
#     Node 14, Type 0, BuildingBlock: NAHDIM_clean_sbu_0, # of connection points: 4
#     Node 15, Type 0, BuildingBlock: NAHDIM_clean_sbu_0, # of connection points: 4
#     Node 16, Type 0, BuildingBlock: NAHDIM_clean_sbu_0, # of connection points: 4
#     Node 17, Type 0, BuildingBlock: NAHDIM_clean_sbu_0, # of connection points: 4
#     Node 18, Type 0, BuildingBlock: NAHDIM_clean_sbu_0, # of connection points: 4
#     Node 19, Type 0, BuildingBlock: NAHDIM_clean_sbu_0, # of connection points: 4
#     Node 20, Type 0, BuildingBlock: NAHDIM_clean_sbu_0, # of connection points: 4
#     Node 21, Type 0, BuildingBlock: NAHDIM_clean_sbu_0, # of connection points: 4
#     Node 22, Type 0, BuildingBlock: NAHDIM_clean_sbu_0, # of connection points: 4
#     Node 23, Type 0, BuildingBlock: NAHDIM_clean_sbu_0, # of connection points: 4
#     Node 24, Type 1, BuildingBlock: LEVNOQ01_clean_sbu_1, # of connection points: 6
#     Node 25, Type 1, BuildingBlock: LEVNOQ01_clean_sbu_1, # of connection points: 6
#     Node 26, Type 1, BuildingBlock: LEVNOQ01_clean_sbu_1, # of connection points: 6
#     Node 27, Type 1, BuildingBlock: LEVNOQ01_clean_sbu_1, # of connection points: 6
#     Node 28, Type 1, BuildingBlock: LEVNOQ01_clean_sbu_1, # of connection points: 6
#     Node 29, Type 1, BuildingBlock: LEVNOQ01_clean_sbu_1, # of connection points: 6
#     Node 30, Type 1, BuildingBlock: LEVNOQ01_clean_sbu_1, # of connection points: 6
#     Node 31, Type 1, BuildingBlock: LEVNOQ01_clean_sbu_1, # of connection points: 6
#     Node 32, Type 1, BuildingBlock: LEVNOQ01_clean_sbu_1, # of connection points: 6
#     Node 33, Type 1, BuildingBlock: LEVNOQ01_clean_sbu_1, # of connection points: 6
#     Node 34, Type 1, BuildingBlock: LEVNOQ01_clean_sbu_1, # of connection points: 6
#     Node 35, Type 1, BuildingBlock: LEVNOQ01_clean_sbu_1, # of connection points: 6
#     Node 36, Type 1, BuildingBlock: LEVNOQ01_clean_sbu_1, # of connection points: 6
#     Node 37, Type 1, BuildingBlock: LEVNOQ01_clean_sbu_1, # of connection points: 6
#     Node 38, Type 1, BuildingBlock: LEVNOQ01_clean_sbu_1, # of connection points: 6
#     Node 39, Type 1, BuildingBlock: LEVNOQ01_clean_sbu_1, # of connection points: 6
#     Edge 40, Type (0, 1), None
#     Edge 41, Type (0, 1), None
#     Edge 42, Type (0, 1), None
#     Edge 43, Type (0, 1), None
#     Edge 44, Type (0, 1), None
#     Edge 45, Type (0, 1), None
#     Edge 46, Type (0, 1), None
#     Edge 47, Type (0, 1), None
#     Edge 48, Type (0, 1), None
#     Edge 49, Type (0, 1), None
#     Edge 50, Type (0, 1), None
#     Edge 51, Type (0, 1), None
#     Edge 52, Type (0, 1), None
#     Edge 53, Type (0, 1), None
#     Edge 54, Type (0, 1), None
#     Edge 55, Type (0, 1), None
#     Edge 56, Type (0, 1), None
#     Edge 57, Type (0, 1), None
#     Edge 58, Type (0, 1), None
#     Edge 59, Type (0, 1), None
#     Edge 60, Type (0, 1), None
#     Edge 61, Type (0, 1), None
#     Edge 62, Type (0, 1), None
#     Edge 63, Type (0, 1), None
#     Edge 64, Type (0, 1), None
#     Edge 65, Type (0, 1), None
#     Edge 66, Type (0, 1), None
#     Edge 67, Type (0, 1), None
#     Edge 68, Type (0, 1), None
#     Edge 69, Type (0, 1), None
#     Edge 70, Type (0, 1), None
#     Edge 71, Type (0, 1), None
#     Edge 72, Type (0, 1), None
#     Edge 73, Type (0, 1), None
#     Edge 74, Type (0, 1), None
#     Edge 75, Type (0, 1), None
#     Edge 76, Type (0, 1), None
#     Edge 77, Type (0, 1), None
#     Edge 78, Type (0, 1), None
#     Edge 79, Type (0, 1), None
#     Edge 80, Type (0, 1), None
#     Edge 81, Type (0, 1), None
#     Edge 82, Type (0, 1), None
#     Edge 83, Type (0, 1), None
#     Edge 84, Type (0, 1), None
#     Edge 85, Type (0, 1), None
#     Edge 86, Type (0, 1), None
#     Edge 87, Type (0, 1), None
#     Edge 88, Type (0, 1), None
#     Edge 89, Type (0, 1), None
#     Edge 90, Type (0, 1), None
#     Edge 91, Type (0, 1), None
#     Edge 92, Type (0, 1), None
#     Edge 93, Type (0, 1), None
#     Edge 94, Type (0, 1), None
#     Edge 95, Type (0, 1), None
#     Edge 96, Type (0, 1), None
#     Edge 97, Type (0, 1), None
#     Edge 98, Type (0, 1), None
#     Edge 99, Type (0, 1), None
#     Edge 100, Type (0, 1), None
#     Edge 101, Type (0, 1), None
#     Edge 102, Type (0, 1), None
#     Edge 103, Type (0, 1), None
#     Edge 104, Type (0, 1), None
#     Edge 105, Type (0, 1), None
#     Edge 106, Type (0, 1), None
#     Edge 107, Type (0, 1), None
#     Edge 108, Type (0, 1), None
#     Edge 109, Type (0, 1), None
#     Edge 110, Type (0, 1), None
#     Edge 111, Type (0, 1), None
#     Edge 112, Type (0, 1), None
#     Edge 113, Type (0, 1), None
#     Edge 114, Type (0, 1), None
#     Edge 115, Type (0, 1), None
#     Edge 116, Type (0, 1), None
#     Edge 117, Type (0, 1), None
#     Edge 118, Type (0, 1), None
#     Edge 119, Type (0, 1), None
#     Edge 120, Type (0, 1), None
#     Edge 121, Type (0, 1), None
#     Edge 122, Type (0, 1), None
#     Edge 123, Type (0, 1), None
#     Edge 124, Type (0, 1), None
#     Edge 125, Type (0, 1), None
#     Edge 126, Type (0, 1), None
#     Edge 127, Type (0, 1), None
#     Edge 128, Type (0, 1), None
#     Edge 129, Type (0, 1), None
#     Edge 130, Type (0, 1), None
#     Edge 131, Type (0, 1), None
#     Edge 132, Type (0, 1), None
#     Edge 133, Type (0, 1), None
#     Edge 134, Type (0, 1), None
#     Edge 135, Type (0, 1), None
# Relax obj value: 0.371
# Max RMSD: 0.332
# Mean RMSD: 0.289
data_MOF--net-ibd--node1-NAHDIM_clean_sbu_0--node2-LEVNOQ01_clean_sbu_1--edge1-none
_symmetry_space_group_name_H-M    P1
_symmetry_Int_Tables_number       1
_symmetry_cell_setting            triclinic
loop_
_symmetry_equiv_pos_as_xyz
'x, y, z'
_cell_length_a     22.652629
_cell_length_b     22.635934
_cell_length_c     22.953747
_cell_angle_alpha  90.795547
_cell_angle_beta   90.260087
_cell_angle_gamma 91.411861
loop_
_atom_site_label
_atom_site_type_symbol
_atom_site_fract_x
_atom_site_fract_y
_atom_site_fract_z
_atom_type_partial_charge
C0 C 0.08357 0.27948 0.2667 0.0
O1 O 0.06456 0.33004 0.24794 0.0
O2 O 0.07266 0.32598 0.44505 0.0
Zn3 Zn 0.02141 0.30395 0.37807 0.0
O4 O -0.01176 0.37992 0.34711 0.0
C5 C 0.94717 0.26182 0.47152 0.0
O6 O 0.95096 0.31701 0.48978 0.0
O7 O 0.07103 0.26198 0.31779 0.0
C8 C 0.96102 0.38572 0.29926 0.0
O9 O 0.94092 0.43774 0.28617 0.0
C10 C 0.0864 0.37981 0.45318 0.0
O11 O 0.07875 0.41772 0.41121 0.0
O12 O 0.96476 0.24854 0.42021 0.0
C13 C 0.08536 0.68354 0.70456 0.0
O14 O 0.03529 0.67307 0.73147 0.0
O15 O 0.94036 0.69837 0.59146 0.0
Zn16 Zn 0.01368 0.74141 0.61941 0.0
O17 O -0.02061 0.78585 0.68653 0.0
C18 C 0.00737 0.84335 0.5481 0.0
O19 O 0.96799 0.85706 0.58744 0.0
O20 O 0.0844 0.69958 0.65159 0.0
C21 C -0.01198 0.79982 0.73982 0.0
O22 O 0.03773 0.78887 0.76661 0.0
C23 C 0.92366 0.69465 0.53855 0.0
O24 O 0.86827 0.67981 0.52769 0.0
O25 O 0.03636 0.7964 0.55384 0.0
C26 C 0.5968 0.7693 0.7635 0.0
O27 O 0.5782 0.81632 0.73708 0.0
O28 O 0.58999 0.82982 0.94259 0.0
Zn29 Zn 0.53876 0.81028 0.87566 0.0
O30 O 0.51447 0.88927 0.84233 0.0
C31 C 0.46379 0.77535 0.97466 0.0
O32 O 0.4729 0.82967 -0.00601 0.0
O33 O 0.58545 0.76096 0.81728 0.0
C34 C 0.48903 0.89611 0.79382 0.0
O35 O 0.47442 0.94926 0.77825 0.0
C36 C 0.59938 0.88407 0.95305 0.0
O37 O 0.59786 0.92232 0.9107 0.0
O38 O 0.4782 0.76158 0.92225 0.0
C39 C 0.55309 0.20354 0.21628 0.0
O40 O 0.50083 0.21159 0.23919 0.0
O41 O 0.42522 0.24177 0.1185 0.0
Zn42 Zn 0.50647 0.27312 0.13264 0.0
O43 O 0.4983 0.3228 0.20423 0.0
C44 C 0.49734 0.34374 0.02854 0.0
O45 O 0.44142 0.34504 0.04289 0.0
O46 O 0.56216 0.21547 0.1629 0.0
C47 C 0.47054 0.36994 0.20159 0.0
O48 O 0.46749 0.39693 0.15147 0.0
C49 C 0.403 0.22408 0.07043 0.0
O50 O 0.3464 0.21032 0.06853 0.0
O51 O 0.53388 0.31815 0.06157 0.0
C52 C 0.0235 0.72229 0.00113 0.0
O53 O 0.00205 0.76698 0.97293 0.0
O54 O 0.05425 0.82957 0.15767 0.0
Zn55 Zn -0.00783 0.78203 0.11246 0.0
O56 O 0.92169 0.82241 0.07796 0.0
C57 C 0.91622 0.75814 0.20379 0.0
O58 O 0.88949 0.80269 0.1805 0.0
O59 O 0.02485 0.7225 0.05652 0.0
C60 C 0.90974 0.85661 0.03667 0.0
O61 O 0.85537 0.87442 0.03135 0.0
C62 C 0.03844 0.85361 0.20556 0.0
O63 O -0.01691 0.86681 0.2136 0.0
O64 O 0.96025 0.73588 0.17873 0.0
C65 C 0.65775 0.71246 0.45767 0.0
O66 O 0.70947 0.69097 0.47001 0.0
O67 O 0.52494 0.73377 0.32831 0.0
Zn68 Zn 0.57602 0.77931 0.38713 0.0
O69 O 0.53094 0.80041 0.46031 0.0
C70 C 0.60133 0.86812 0.29497 0.0
O71 O 0.60242 0.92347 0.27868 0.0
O72 O 0.65204 0.7422 0.41139 0.0
C73 C 0.55834 0.83037 0.49969 0.0
O74 O 0.61478 0.84263 0.49238 0.0
C75 C 0.47922 0.76211 0.31443 0.0
O76 O 0.46802 0.81161 0.34228 0.0
O77 O 0.5915 0.85704 0.34829 0.0
C78 C 0.57301 0.20995 0.52269 0.0
O79 O 0.55656 0.25165 0.4875 0.0
O80 O 0.54176 0.36372 0.63159 0.0
Zn81 Zn 0.51445 0.27806 0.61777 0.0
O82 O 0.43886 0.27771 0.56776 0.0
C83 C 0.45719 0.28144 0.72536 0.0
O84 O 0.44122 0.33015 0.70013 0.0
O85 O 0.56673 0.21679 0.57766 0.0
C86 C 0.42398 0.30217 0.52017 0.0
O87 O 0.37057 0.29192 0.49978 0.0
C88 C 0.55375 0.39199 0.67899 0.0
O89 O 0.56041 0.44965 0.67697 0.0
O90 O 0.491 0.24735 0.69744 0.0
C91 C 0.13492 0.22297 0.96461 0.0
O92 O 0.13659 0.24574 0.91286 0.0
O93 O 0.01037 0.25271 0.82037 0.0
Zn94 Zn 0.05923 0.29305 0.88249 0.0
O95 O 0.00893 0.31376 0.95155 0.0
C96 C 0.09305 0.37424 0.78999 0.0
O97 O 0.09884 0.42721 0.7683 0.0
O98 O 0.13349 0.2465 0.91397 0.0
C99 C 0.03449 0.33641 -0.0038 0.0
O100 O 0.09188 0.34576 -0.005 0.0
C101 C -0.02838 0.28654 0.79966 0.0
O102 O 0.96361 0.33833 0.82447 0.0
O103 O 0.08287 0.36942 0.84428 0.0
C104 C 0.47953 0.91033 0.15952 0.0
O105 O 0.49346 0.85864 0.1377 0.0
O106 O 0.32747 0.95596 0.2665 0.0
Zn107 Zn 0.39644 -0.01158 0.22316 0.0
O108 O 0.45846 0.0077 0.28415 0.0
C109 C 0.31091 0.06759 0.17151 0.0
O110 O 0.27792 0.02025 0.16037 0.0
O111 O 0.42647 0.91866 0.17532 0.0
C112 C 0.50768 0.03537 0.27914 0.0
O113 O 0.52136 0.06202 0.23057 0.0
C114 C 0.2834 -0.01965 0.29032 0.0
O115 O 0.2784 0.03794 0.29152 0.0
O116 O 0.36472 0.06234 0.1871 0.0
C117 C 0.31469 0.02298 0.50154 0.0
O118 O 0.2643 -0.00214 0.5162 0.0
O119 O 0.29902 0.20951 0.43157 0.0
Zn120 Zn 0.25678 0.13824 0.46563 0.0
O121 O 0.20439 0.10376 0.40258 0.0
C122 C 0.20582 0.22538 0.54709 0.0
O123 O 0.21257 0.26304 0.50461 0.0
O124 O 0.31713 0.07625 0.48387 0.0
C125 C 0.17031 0.05854 0.40223 0.0
O126 O 0.13593 0.05038 0.35664 0.0
C127 C 0.27172 0.23791 0.39292 0.0
O128 O 0.21967 0.21859 0.37473 0.0
O129 O 0.21685 0.17071 0.53861 0.0
C130 C 0.25356 0.94903 0.74928 0.0
O131 O 0.22509 0.93336 0.79656 0.0
O132 O 0.10641 -0.01429 0.78634 0.0
Zn133 Zn 0.17082 0.04025 0.75645 0.0
O134 O 0.20159 0.07908 0.83078 0.0
C135 C 0.08925 0.11937 0.69389 0.0
O136 O 0.06917 0.13889 0.74397 0.0
O137 O 0.23766 -0.00563 0.72209 0.0
C138 C 0.25433 0.09633 0.84209 0.0
O139 O 0.26534 0.11736 0.8944 0.0
C140 C 0.05057 -0.01347 0.77925 0.0
O141 O 0.02693 0.0222 0.74183 0.0
O142 O 0.13499 0.08794 0.69245 0.0
C143 C 0.29816 0.81563 0.10759 0.0
O144 O 0.32862 0.80024 0.06159 0.0
O145 O 0.3398 0.95393 0.0168 0.0
Zn146 Zn 0.26388 0.90958 0.03455 0.0
O147 O 0.23891 0.85445 0.96828 0.0
C148 C 0.16545 -0.00883 0.01541 0.0
O149 O 0.14734 0.95735 0.97163 0.0
O150 O 0.269 0.86275 0.1072 0.0
C151 C 0.21559 0.80299 0.97407 0.0
O152 O 0.2026 0.78306 0.02598 0.0
C153 C 0.33116 -0.00707 0.97853 0.0
O154 O 0.28045 -0.00704 0.95069 0.0
O155 O 0.2083 -0.02401 0.04718 0.0
C156 C 0.19813 0.48359 0.88367 0.0
O157 O 0.18059 0.49673 0.83102 0.0
O158 O 0.34347 0.36309 0.9355 0.0
Zn159 Zn 0.27366 0.41007 0.96036 0.0
O160 O 0.31363 0.47828 0.00572 0.0
C161 C 0.25959 0.33119 0.04876 0.0
O162 O 0.31066 0.35748 0.06053 0.0
O163 O 0.23335 0.44109 0.88931 0.0
C164 C 0.30276 0.52784 0.02991 0.0
O165 O 0.24854 0.54668 0.0331 0.0
C166 C 0.35232 0.3113 0.91564 0.0
O167 O 0.40723 0.29664 0.90725 0.0
O168 O 0.22801 0.35053 0.00763 0.0
C169 C 0.66315 0.23227 0.94024 0.0
O170 O 0.67527 0.26311 -0.01216 0.0
O171 O 0.80815 0.10344 0.93494 0.0
Zn172 Zn 0.7531 0.15472 -0.01896 0.0
O173 O 0.79138 0.22789 0.01865 0.0
C174 C 0.73791 0.04747 0.05003 0.0
O175 O 0.77605 0.02369 0.01462 0.0
O176 O 0.68789 0.18304 0.93143 0.0
C177 C 0.81092 0.21624 0.06868 0.0
O178 O 0.81093 0.16091 0.08506 0.0
C179 C 0.86123 0.09652 0.95101 0.0
O180 O 0.8857 0.13352 -0.011 0.0
O181 O 0.72051 0.1 0.04225 0.0
C182 C 0.1174 0.63239 0.31786 0.0
O183 O 0.16771 0.64366 0.34431 0.0
O184 O 0.18349 0.51839 0.35129 0.0
Zn185 Zn 0.15714 0.53244 0.26701 0.0
O186 O 0.08309 0.48592 0.24233 0.0
C187 C 0.28051 0.53186 0.19986 0.0
O188 O 0.31195 0.49813 0.1656 0.0
O189 O 0.12183 0.61333 0.26629 0.0
C190 C 0.06262 0.51426 0.19946 0.0
O191 O 0.09694 0.5537 0.17402 0.0
C192 C 0.22869 0.48912 0.36471 0.0
O193 O 0.24449 0.4852 0.41951 0.0
O194 O 0.22755 0.51499 0.21159 0.0
C195 C 0.74687 -0.02231 0.43243 0.0
O196 O 0.80126 -0.0014 0.42896 0.0
O197 O 0.8635 0.84215 0.42652 0.0
Zn198 Zn 0.80449 0.88026 0.47951 0.0
O199 O 0.85053 0.94239 0.52832 0.0
C200 C 0.79971 0.79723 0.56885 0.0
O201 O 0.84783 0.8261 0.58573 0.0
O202 O 0.73763 0.92362 0.44425 0.0
C203 C 0.83108 -0.0111 0.55309 0.0
O204 O 0.77407 -0.00238 0.55538 0.0
C205 C 0.86957 0.79042 0.40491 0.0
O206 O 0.91763 0.78105 0.37512 0.0
O207 O 0.77103 0.81469 0.52528 0.0
C208 C 0.82082 0.11493 0.36156 0.0
O209 O 0.81185 0.13943 0.41284 0.0
O210 O 0.91692 0.96404 0.30326 0.0
Zn211 Zn 0.88255 0.04041 0.27966 0.0
O212 O 0.80361 0.00971 0.24734 0.0
C213 C -0.00727 0.08105 0.21684 0.0
O214 O 0.02266 0.05569 0.25824 0.0
O215 O 0.86716 0.08561 0.35358 0.0
C216 C 0.81334 0.96648 0.21328 0.0
O217 O 0.86747 0.95919 0.19464 0.0
C218 C 0.95812 0.95048 0.3375 0.0
O219 O 0.96307 0.89482 0.35095 0.0
O220 O 0.93625 0.08102 0.21881 0.0
C221 C 0.19796 0.73474 0.44687 0.0
O222 O 0.19713 0.75364 0.5012 0.0
O223 O 0.32861 0.59135 0.45028 0.0
Zn224 Zn 0.27672 0.64897 0.4899 0.0
O225 O 0.31987 0.71829 0.5263 0.0
C226 C 0.24805 0.54763 0.56396 0.0
O227 O 0.29603 0.52464 0.54324 0.0
O228 O 0.22475 0.68774 0.4337 0.0
C229 C 0.32997 0.71136 0.57966 0.0
O230 O 0.3187 0.65961 0.60277 0.0
C231 C 0.37757 0.5774 0.47267 0.0
O232 O 0.40172 0.61061 0.51406 0.0
O233 O 0.23159 0.59865 0.54806 0.0
C234 C 0.33001 0.58944 0.83408 0.0
O235 O 0.32168 0.53395 0.84854 0.0
O236 O 0.43027 0.46872 0.8017 0.0
Zn237 Zn 0.39338 0.53362 0.75823 0.0
O238 O 0.31324 0.49733 0.73376 0.0
C239 C 0.49977 0.56809 0.70076 0.0
O240 O 0.52221 0.56418 0.75327 0.0
O241 O 0.37518 0.60371 0.80495 0.0
C242 C 0.31974 0.44359 0.71988 0.0
O243 O 0.37325 0.42533 0.71005 0.0
C244 C 0.4717 0.45745 0.8364 0.0
O245 O 0.47736 0.40241 0.85189 0.0
O246 O 0.44508 0.55705 0.69205 0.0
C247 C 0.57483 0.07698 0.83207 0.0
O248 O 0.56564 0.02248 0.81389 0.0
O249 O 0.71389 0.00189 0.78591 0.0
Zn250 Zn 0.66238 0.06155 0.74983 0.0
O251 O 0.59764 0.02299 0.70101 0.0
C252 C 0.77211 0.08753 0.69646 0.0
O253 O 0.77443 0.03443 0.67321 0.0
O254 O 0.62001 0.10563 0.81387 0.0
C255 C 0.55191 0.05216 0.68946 0.0
O256 O 0.55175 0.10923 0.7005 0.0
C257 C 0.71208 0.94915 0.76696 0.0
O258 O 0.67056 0.93188 0.73001 0.0
O259 O 0.72121 0.10999 0.70308 0.0
C260 C 0.80609 0.53655 0.01105 0.0
O261 O 0.80152 0.53444 0.95412 0.0
O262 O 0.79231 0.70531 0.96367 0.0
Zn263 Zn 0.73587 0.64079 -0.00808 0.0
O264 O 0.7081 0.60064 0.91635 0.0
C265 C 0.65552 0.72574 0.06422 0.0
O266 O 0.60113 0.74273 0.07214 0.0
O267 O 0.78142 0.57877 0.03863 0.0
C268 C 0.68577 0.54901 0.90786 0.0
O269 O 0.66758 0.5352 0.85521 0.0
C270 C 0.77484 0.75697 0.95229 0.0
O271 O 0.71932 0.7698 0.96029 0.0
O272 O 0.66432 0.68172 0.02985 0.0
C273 C -0.01176 0.39446 0.65397 0.0
O274 O 0.00634 0.34784 0.62528 0.0
O275 O 0.83378 0.41466 0.7595 0.0
Zn276 Zn 0.9007 0.45636 0.72403 0.0
O277 O 0.9596 0.47993 0.78713 0.0
C278 C 0.81071 0.53685 0.67893 0.0
O279 O 0.7758 0.49088 0.66789 0.0
O280 O 0.93534 0.39483 0.67164 0.0
C281 C -0.00445 0.52322 0.78016 0.0
O282 O -0.00706 0.5543 0.73253 0.0
C283 C 0.79465 0.44095 0.78846 0.0
O284 O 0.80134 0.49715 0.8024 0.0
O285 O 0.86528 0.52971 0.69043 0.0
C286 C 0.79302 0.28225 0.58979 0.0
O287 O 0.8048 0.25249 0.54197 0.0
O288 O 0.87195 0.43172 0.5028 0.0
Zn289 Zn 0.79343 0.39175 0.51894 0.0
O290 O 0.76922 0.34645 0.44667 0.0
C291 C 0.69479 0.47427 0.50888 0.0
O292 O 0.6741 0.44076 0.46594 0.0
O293 O 0.7897 0.33831 0.58902 0.0
C294 C 0.72556 0.31073 0.45017 0.0
O295 O 0.69554 0.30789 0.49891 0.0
C296 C 0.86221 0.47067 0.46474 0.0
O297 O 0.80945 0.4735 0.44146 0.0
O298 O 0.74058 0.4597 0.53661 0.0
C299 C 0.74037 0.44735 0.25485 0.0
O300 O 0.71063 0.43298 0.30176 0.0
O301 O 0.6017 0.49121 0.28969 0.0
Zn302 Zn 0.66619 0.54554 0.26267 0.0
O303 O 0.70523 0.57824 0.33892 0.0
C304 C 0.57667 0.61464 0.19014 0.0
O305 O 0.55491 0.64183 0.23565 0.0
O306 O 0.72817 0.49421 0.22799 0.0
C307 C 0.76084 0.57811 0.34997 0.0
O308 O 0.77896 0.58638 0.40382 0.0
C309 C 0.55229 0.50866 0.30832 0.0
O310 O 0.54321 0.56516 0.3155 0.0
O311 O 0.62517 0.58714 0.19408 0.0
O312 O 0.08142 0.05017 0.02155 0.0
Mg313 Mg 0.02409 0.12382 0.03517 0.0
O314 O 0.16871 0.08859 0.05241 0.0
Mg315 Mg 0.14949 0.16892 0.11118 0.0
O316 O 0.0803 0.19238 0.04856 0.0
O317 O 0.03562 0.1847 0.96438 0.0
O318 O 0.12042 0.24469 0.1758 0.0
O319 O 0.20848 0.23925 0.06413 0.0
Mg320 Mg 0.2422 0.21813 0.20249 0.0
O321 O 0.23491 0.14024 0.15852 0.0
O322 O 0.1682 0.22349 0.25668 0.0
O323 O 0.25464 0.28488 0.13896 0.0
O324 O 0.30863 0.16047 0.22063 0.0
C325 C 0.02397 0.10588 0.16592 0.0
C326 C 0.1371 0.04697 0.02876 0.0
C327 C 0.07985 0.20511 -0.00576 0.0
C328 C 0.12485 0.24618 0.23138 0.0
C329 C 0.23895 0.28283 0.0857 0.0
C330 C 0.28257 0.12393 0.18477 0.0
O331 O -0.00758 0.12145 0.1228 0.0
O332 O 0.08105 0.10876 0.16483 0.0
O333 O 0.13296 0.84687 0.24767 0.0
Mg334 Mg 0.18068 0.84144 0.32624 0.0
O335 O 0.06099 0.86989 0.30611 0.0
Mg336 Mg 0.1101 0.91227 0.38732 0.0
O337 O 0.16082 0.82606 0.41148 0.0
O338 O 0.19451 0.75834 0.34727 0.0
O339 O 0.15009 0.97286 0.45981 0.0
O340 O 0.04728 0.86963 0.45611 0.0
Mg341 Mg 0.0326 0.01976 0.46838 0.0
O342 O 0.04573 -0.01378 0.38458 0.0
O343 O 0.11801 0.05932 0.48552 0.0
O344 O 0.01876 0.9412 0.51782 0.0
O345 O 0.96395 0.03067 0.4047 0.0
C346 C 0.2399 0.94167 0.31748 0.0
C347 C 0.07955 0.8582 0.25501 0.0
C348 C 0.18146 0.77394 0.39979 0.0
C349 C 0.15523 0.02972 0.45723 0.0
C350 C 0.0242 0.88687 0.50415 0.0
C351 C -0.00832 -0.0051 0.37131 0.0
O352 O 0.25589 0.88991 0.32675 0.0
O353 O 0.18592 0.95606 0.32559 0.0
O354 O 0.49308 0.04793 0.60664 0.0
Mg355 Mg 0.46338 -0.01809 0.55065 0.0
O356 O 0.48337 0.97342 0.66681 0.0
Mg357 Mg 0.41499 0.89795 0.63275 0.0
O358 O 0.37599 0.95859 0.55736 0.0
O359 O 0.41638 0.01663 0.48761 0.0
O360 O 0.35736 0.81319 0.60007 0.0
O361 O 0.3373 0.93351 0.68901 0.0
Mg362 Mg 0.3738 0.79775 0.73872 0.0
O363 O 0.44123 0.84753 0.71271 0.0
O364 O 0.36682 0.74294 0.66766 0.0
O365 O 0.30711 0.86196 0.74963 0.0
O366 O 0.44396 0.80242 0.79739 0.0
C367 C 0.52415 0.87157 0.53438 0.0
C368 C 0.50481 0.02463 0.65444 0.0
C369 C 0.37062 -0.00541 0.51347 0.0
C370 C 0.35367 0.75888 0.61676 0.0
C371 C 0.30204 0.91309 0.7279 0.0
C372 C 0.46214 0.84502 0.76489 0.0
O373 O 0.5246 0.92425 0.5175 0.0
O374 O 0.48876 0.85406 0.57417 0.0
O375 O 0.48519 0.1796 0.02848 0.0
Mg376 Mg 0.4889 0.10626 0.9702 0.0
O377 O 0.41196 0.20373 0.97157 0.0
Mg378 Mg 0.39698 0.1614 0.88068 0.0
O379 O 0.49125 0.11908 0.88048 0.0
O380 O 0.5664 0.08401 0.93367 0.0
O381 O 0.35144 0.11497 0.80095 0.0
O382 O 0.43783 0.23079 0.81462 0.0
Mg383 Mg 0.28445 0.23071 0.79536 0.0
O384 O 0.31544 0.21779 0.87907 0.0
O385 O 0.27104 0.14288 0.75832 0.0
O386 O 0.36344 0.25881 0.75617 0.0
O387 O 0.26416 0.29594 0.861 0.0
C388 C 0.37513 0.03943 0.96628 0.0
C389 C 0.43939 0.20897 0.01982 0.0
C390 C 0.54343 0.0959 0.88378 0.0
C391 C 0.29497 0.10811 0.79336 0.0
C392 C 0.4179 0.25698 0.76933 0.0
C393 C 0.30458 0.27218 0.89169 0.0
O394 O 0.42699 0.0367 -0.01303 0.0
O395 O 0.36005 0.08148 0.93322 0.0
O396 O 0.60466 0.31865 0.72713 0.0
Mg397 Mg 0.66465 0.29795 0.79324 0.0
O398 O 0.56968 0.39074 0.78131 0.0
Mg399 Mg 0.61281 0.40741 0.87464 0.0
O400 O 0.65549 0.31674 0.88142 0.0
O401 O 0.63567 0.22859 0.84322 0.0
O402 O 0.65788 0.45618 0.95353 0.0
O403 O 0.54239 0.36886 0.93903 0.0
Mg404 Mg 0.54755 0.52004 0.96318 0.0
O405 O 0.56214 0.49147 0.87762 0.0
O406 O 0.6359 0.54131 -0.00763 0.0
O407 O 0.52109 0.44034 0.00439 0.0
O408 O 0.48356 0.5414 0.89771 0.0
C409 C 0.74075 0.40844 0.80194 0.0
C410 C 0.57174 0.36224 0.73286 0.0
C411 C 0.64095 0.26173 0.88882 0.0
C412 C 0.66855 0.5126 0.95823 0.0
C413 C 0.51982 0.38664 -0.01281 0.0
C414 C 0.50873 0.50344 0.86459 0.0
O415 O 0.73982 0.35313 0.79105 0.0
O416 O 0.69649 0.43586 0.82266 0.0
O417 O -0.01051 0.53479 0.13246 0.0
Mg418 Mg 0.94699 0.48093 0.07277 0.0
O419 O -0.02255 0.45236 0.17972 0.0
Mg420 Mg 0.89805 0.39401 0.13903 0.0
O421 O 0.85783 0.46612 0.07128 0.0
O422 O 0.90833 0.53515 0.01927 0.0
O423 O 0.83376 0.31732 0.09915 0.0
O424 O 0.8256 0.43038 0.1988 0.0
Mg425 Mg 0.8508 0.28853 0.23701 0.0
O426 O 0.9219 0.33525 0.21405 0.0
O427 O 0.84424 0.24133 0.16009 0.0
O428 O 0.78663 0.35567 0.25026 0.0
O429 O 0.91947 0.2901 0.29853 0.0
C430 C 1e-05 0.37319 0.03468 0.0
C431 C 0.00482 0.50154 0.17277 0.0
C432 C 0.85921 0.51101 0.03552 0.0
C433 C 0.83131 0.26152 0.11057 0.0
C434 C 0.78689 0.40917 0.23363 0.0
C435 C 0.93931 0.33318 0.26763 0.0
O436 O 0.00088 0.42759 0.02435 0.0
O437 O 0.96692 0.35149 0.0744 0.0
O438 O -0.01111 0.6323 0.4986 0.0
Mg439 Mg 0.00351 0.57752 0.42557 0.0
O440 O 0.95647 0.70075 0.44159 0.0
Mg441 Mg 0.91425 0.64017 0.36986 0.0
O442 O 0.01333 0.60837 0.34127 0.0
O443 O 0.08704 0.58655 0.40447 0.0
O444 O 0.8589 0.57447 0.31015 0.0
O445 O 0.92313 0.7022 0.28942 0.0
Mg446 Mg 0.77377 0.6982 0.31509 0.0
O447 O 0.82985 0.6917 0.38741 0.0
O448 O 0.78873 0.61776 0.26562 0.0
O449 O 0.83515 0.73742 0.25971 0.0
O450 O 0.77141 0.76662 0.3801 0.0
C451 C 0.90698 0.51387 0.44703 0.0
C452 C 0.96641 0.6822 0.49287 0.0
C453 C 0.06993 0.60815 0.35563 0.0
C454 C 0.80312 0.57923 0.30132 0.0
C455 C 0.89063 0.73151 0.25449 0.0
C456 C 0.82003 0.74673 0.39957 0.0
O457 O 0.95754 0.49738 0.4315 0.0
O458 O 0.89147 0.56749 0.44018 0.0
O459 O 0.82541 0.77565 0.86575 0.0
Mg460 Mg 0.83157 0.84315 0.80204 0.0
O461 O 0.81779 0.85026 0.92623 0.0
Mg462 Mg 0.88553 0.90882 0.87462 0.0
O463 O 0.80623 0.92874 0.80932 0.0
O464 O 0.75107 0.85373 0.76893 0.0
O465 O 0.95715 0.9633 0.82222 0.0
O466 O 0.85882 -0.00332 0.91778 0.0
Mg467 Mg 0.00505 0.96361 0.95143 0.0
O468 O 0.94683 0.89827 0.94891 0.0
O469 O 0.04075 0.94328 0.86947 0.0
O470 O 0.9452 0.03722 0.94943 0.0
O471 O 0.00175 0.9079 0.02682 0.0
C472 C 0.93887 0.82603 0.77032 0.0
C473 C 0.81066 0.79532 0.91504 0.0
C474 C 0.75821 0.90871 0.78314 0.0
C475 C 0.01374 0.95961 0.82404 0.0
C476 C 0.89023 0.0408 0.93726 0.0
C477 C 0.95599 0.88419 0.00188 0.0
O478 O 0.89521 0.83987 0.74003 0.0
O479 O 0.93581 0.8301 0.82595 0.0
O480 O 0.87349 0.26628 0.77798 0.0
Mg481 Mg 0.79519 0.22375 0.74785 0.0
O482 O 0.94138 0.232 0.71564 0.0
Mg483 Mg 0.90041 0.1646 0.64813 0.0
O484 O 0.81361 0.20795 0.66037 0.0
O485 O 0.7495 0.27405 0.68381 0.0
O486 O 0.85619 0.08666 0.58958 0.0
O487 O 0.92169 0.22443 0.56601 0.0
Mg488 Mg -0.01417 0.09843 0.56148 0.0
O489 O -0.0039 0.13245 0.64354 0.0
O490 O 0.92764 0.0259 0.56495 0.0
O491 O 0.96607 0.16587 0.50191 0.0
O492 O 0.06953 0.09034 0.5958 0.0
C493 C 0.81688 0.10196 0.74144 0.0
C494 C 0.92642 0.26243 0.7605 0.0
C495 C 0.78286 0.25161 0.64465 0.0
C496 C 0.87345 0.03588 0.57158 0.0
C497 C 0.94226 0.21445 0.51481 0.0
C498 C 0.05019 0.11496 0.6427 0.0
O499 O 0.79829 0.13574 0.78136 0.0
O500 O 0.87137 0.10838 0.72693 0.0
O501 O 0.73063 0.27656 0.35213 0.0
Mg502 Mg 0.73355 0.21627 0.27712 0.0
O503 O 0.69123 0.21731 0.41971 0.0
Mg504 Mg 0.65152 0.13643 0.37481 0.0
O505 O 0.72934 0.13768 0.31506 0.0
O506 O 0.81193 0.1662 0.27413 0.0
O507 O 0.59932 0.06026 0.32536 0.0
O508 O 0.70743 0.07334 0.42707 0.0
Mg509 Mg 0.56929 0.0489 0.4564 0.0
O510 O 0.58047 0.13925 0.44349 0.0
O511 O 0.51898 0.04303 0.38003 0.0
O512 O 0.64582 -0.00233 0.44054 0.0
O513 O 0.57281 0.10533 0.53162 0.0
C514 C 0.60378 0.19542 0.25431 0.0
C515 C 0.71485 0.26626 0.40449 0.0
C516 C 0.78574 0.13343 0.3118 0.0
C517 C 0.54435 0.04549 0.33076 0.0
C518 C 0.6975 0.01811 0.43197 0.0
C519 C 0.5814 0.14993 0.4987 0.0
O520 O 0.65441 0.19992 0.23093 0.0
O521 O 0.59693 0.19199 0.30978 0.0
O522 O 0.59988 0.96114 0.02072 0.0
Mg523 Mg 0.58909 0.01682 0.09642 0.0
O524 O 0.59717 0.86812 0.05471 0.0
Mg525 Mg 0.64749 0.88847 0.13793 0.0
O526 O 0.5775 0.95518 0.15641 0.0
O527 O 0.50213 0.00734 0.12991 0.0
O528 O 0.71423 0.92409 0.21042 0.0
O529 O 0.59949 0.82727 0.20073 0.0
Mg530 Mg 0.74039 0.78882 0.19572 0.0
O531 O 0.70208 0.80713 0.11872 0.0
O532 O 0.79122 0.86784 0.19083 0.0
O533 O 0.67131 0.80385 0.26081 0.0
O534 O 0.73398 0.71824 0.13178 0.0
C535 C 0.70887 0.01113 0.09346 0.0
C536 C 0.59961 0.90517 0.01283 0.0
C537 C 0.52101 0.96038 0.15369 0.0
C538 C 0.7701 0.91782 0.20383 0.0
C539 C 0.61924 0.82257 0.25265 0.0
C540 C 0.70253 0.75264 0.10115 0.0
O541 O 0.67414 0.03728 0.12789 0.0
O542 O 0.70262 0.95545 0.08311 0.0
O543 O 0.38153 0.73675 0.29024 0.0
Mg544 Mg 0.29919 0.71852 0.24578 0.0
O545 O 0.45033 0.72207 0.22152 0.0
Mg546 Mg 0.40109 0.67306 0.14407 0.0
O547 O 0.32498 0.73105 0.16284 0.0
O548 O 0.25929 0.7892 0.20031 0.0
O549 O 0.34568 0.61579 0.07437 0.0
O550 O 0.43444 0.73795 0.06889 0.0
Mg551 Mg 0.48061 0.59688 0.04864 0.0
O552 O 0.48748 0.62569 0.13157 0.0
O553 O 0.40398 0.54217 0.04811 0.0
O554 O 0.47017 0.67633 0.00092 0.0
O555 O 0.56064 0.57749 0.09287 0.0
C556 C 0.30587 0.5895 0.21875 0.0
C557 C 0.43509 0.73775 0.27323 0.0
C558 C 0.29319 0.77657 0.15734 0.0
C559 C 0.35302 0.56392 0.05257 0.0
C560 C 0.45359 0.72739 0.0169 0.0
C561 C 0.54011 0.60578 0.13702 0.0
O562 O 0.27047 0.62938 0.23403 0.0
O563 O 0.36062 0.60171 0.20783 0.0
O564 O 0.02341 0.52771 0.87914 0.0
Mg565 Mg 0.07147 0.54093 0.9602 0.0
O566 O 0.08083 0.57523 0.81432 0.0
Mg567 Mg 0.14205 0.6381 0.86827 0.0
O568 O 0.15124 0.56471 0.93171 0.0
O569 O 0.13949 0.4768 0.96813 0.0
O570 O 0.1936 0.71016 0.92695 0.0
O571 O 0.228 0.60347 0.83362 0.0
Mg572 Mg 0.22017 0.74173 0.79793 0.0
O573 O 0.13688 0.70295 0.79536 0.0
O574 O 0.20451 0.7919 0.87321 0.0
O575 O 0.28723 0.68151 0.81999 0.0
O576 O 0.18178 0.72647 0.7145 0.0
C577 C 0.04743 0.67183 0.96964 0.0
C578 C 0.03625 0.54194 0.82696 0.0
C579 C 0.16849 0.51097 0.93377 0.0
C580 C 0.20329 0.76631 0.92223 0.0
C581 C 0.27931 0.62726 0.83111 0.0
C582 C 0.13813 0.69989 0.7393 0.0
O583 O 0.05656 0.62517 -0.00151 0.0
O584 O 0.06011 0.67613 0.91541 0.0
O585 O 0.09781 0.45729 0.51997 0.0
Mg586 Mg 0.08668 0.51095 0.59696 0.0
O587 O 0.1024 0.36445 0.55386 0.0
Mg588 Mg 0.15104 0.38399 0.63973 0.0
O589 O 0.08076 0.44882 0.65647 0.0
O590 O 0.00109 0.49511 0.63194 0.0
O591 O 0.21627 0.4157 0.71473 0.0
O592 O 0.09796 0.32324 0.69901 0.0
Mg593 Mg 0.22132 0.27774 0.70832 0.0
O594 O 0.20957 0.30307 0.62038 0.0
O595 O 0.28469 0.34644 0.71149 0.0
O596 O 0.1535 0.29663 0.77073 0.0
O597 O 0.20343 0.21011 0.64827 0.0
C598 C 0.20944 0.51129 0.59932 0.0
C599 C 0.09805 0.40134 0.51206 0.0
C600 C 0.02407 0.4491 0.6538 0.0
C601 C 0.27057 0.40031 0.71595 0.0
C602 C 0.108 0.32259 0.75371 0.0
C603 C 0.19994 0.24769 0.60715 0.0
O604 O 0.16984 0.53789 0.62758 0.0
O605 O 0.20634 0.45512 0.58949 0.0
O606 O 0.61124 0.53392 0.51098 0.0
Mg607 Mg 0.5526 0.60617 0.52434 0.0
O608 O 0.69339 0.56654 0.55789 0.0
Mg609 Mg 0.66923 0.6469 0.61518 0.0
O610 O 0.60896 0.67326 0.54254 0.0
O611 O 0.56034 0.67274 0.45989 0.0
O612 O 0.63618 0.72371 0.67795 0.0
O613 O 0.73905 0.71232 0.58008 0.0
Mg614 Mg 0.75891 0.69102 0.72385 0.0
O615 O 0.74187 0.61771 0.6763 0.0
O616 O 0.678 0.70798 0.76428 0.0
O617 O 0.78638 0.7513 0.65837 0.0
O618 O 0.81218 0.6198 0.74283 0.0
C619 C 0.53674 0.58759 0.65252 0.0
C620 C 0.66507 0.52831 0.52603 0.0
C621 C 0.60562 0.69107 0.48957 0.0
C622 C 0.63794 0.73048 0.73363 0.0
C623 C 0.77495 0.75006 0.60401 0.0
C624 C 0.78521 0.59167 0.70099 0.0
O625 O 0.51062 0.60154 0.60568 0.0
O626 O 0.59321 0.59071 0.65878 0.0
O627 O 0.29122 0.29672 0.31239 0.0
Mg628 Mg 0.29572 0.37528 0.26193 0.0
O629 O 0.32227 0.33124 0.39949 0.0
Mg630 Mg 0.38682 0.40778 0.37461 0.0
O631 O 0.31214 0.44207 0.31917 0.0
O632 O 0.22337 0.42706 0.2815 0.0
O633 O 0.45834 0.477 0.34308 0.0
O634 O 0.36427 0.47767 0.44214 0.0
Mg635 Mg 0.51006 0.43422 0.45384 0.0
O636 O 0.44762 0.37233 0.44428 0.0
O637 O 0.53861 0.42828 0.36722 0.0
O638 O 0.45581 0.51122 0.46619 0.0
O639 O 0.51079 0.36406 0.51545 0.0
C640 C 0.4228 0.37746 0.243 0.0
C641 C 0.29769 0.29104 0.36709 0.0
C642 C 0.25639 0.4526 0.32039 0.0
C643 C 0.51338 0.46645 0.33663 0.0
C644 C 0.40041 0.5188 0.46007 0.0
C645 C 0.46314 0.34487 0.49048 0.0
O646 O 0.37512 0.39535 0.22118 0.0
O647 O 0.42409 0.35486 0.29429 0.0
loop_
_geom_bond_atom_site_label_1
_geom_bond_atom_site_label_2
_geom_bond_distance
_geom_bond_site_symmetry_2
_ccdc_geom_bond_type
C0 O1 1.160 . S
C0 O7 1.185 . S
O1 C0 1.160 . S
O2 Zn3 1.899 . S
O2 C10 1.284 . S
Zn3 O2 1.899 . S
Zn3 O4 2.032 . S
Zn3 O7 2.086 . S
Zn3 O12 1.977 . S
O4 Zn3 2.032 . S
O4 C8 1.278 1_455 S
C5 O6 1.203 1_655 S
C5 O12 1.267 1_655 S
O6 C5 1.203 1_455 S
O7 C0 1.185 . S
O7 Zn3 2.086 . S
C8 O4 1.278 1_655 S
C8 O9 1.211 . S
O9 C8 1.211 . S
C10 O2 1.284 . S
C10 O11 1.273 . S
O11 C10 1.273 . S
O12 Zn3 1.977 . S
O12 C5 1.267 1_455 S
C13 O14 1.160 . S
C13 O20 1.185 . S
O14 C13 1.160 . S
O15 Zn16 1.899 1_655 S
O15 C23 1.284 . S
Zn16 O15 1.899 1_455 S
Zn16 O17 2.032 1_455 S
Zn16 O20 2.086 . S
Zn16 O25 1.977 . S
O17 Zn16 2.032 1_655 S
O17 C21 1.278 . S
C18 O19 1.203 . S
C18 O25 1.267 . S
O19 C18 1.203 . S
O20 C13 1.185 . S
O20 Zn16 2.086 . S
C21 O17 1.278 . S
C21 O22 1.211 . S
O22 C21 1.211 . S
C23 O15 1.284 . S
C23 O24 1.273 . S
O24 C23 1.273 . S
O25 Zn16 1.977 . S
O25 C18 1.267 . S
C26 O27 1.160 . S
C26 O33 1.185 . S
O27 C26 1.160 . S
O28 Zn29 1.899 . S
O28 C36 1.284 . S
Zn29 O28 1.899 . S
Zn29 O30 2.032 . S
Zn29 O33 2.086 . S
Zn29 O38 1.977 . S
O30 Zn29 2.032 . S
O30 C34 1.278 . S
C31 O32 1.203 1_556 S
C31 O38 1.267 . S
O32 C31 1.203 1_554 S
O33 C26 1.185 . S
O33 Zn29 2.086 . S
C34 O30 1.278 . S
C34 O35 1.211 . S
O35 C34 1.211 . S
C36 O28 1.284 . S
C36 O37 1.273 . S
O37 C36 1.273 . S
O38 Zn29 1.977 . S
O38 C31 1.267 . S
C39 O40 1.160 . S
C39 O46 1.185 . S
O40 C39 1.160 . S
O41 Zn42 1.899 . S
O41 C49 1.284 . S
Zn42 O41 1.899 . S
Zn42 O43 2.032 . S
Zn42 O46 2.086 . S
Zn42 O51 1.977 . S
O43 Zn42 2.032 . S
O43 C47 1.278 . S
C44 O45 1.203 . S
C44 O51 1.267 . S
O45 C44 1.203 . S
O46 C39 1.185 . S
O46 Zn42 2.086 . S
C47 O43 1.278 . S
C47 O48 1.211 . S
O48 C47 1.211 . S
C49 O41 1.284 . S
C49 O50 1.273 . S
O50 C49 1.273 . S
O51 Zn42 1.977 . S
O51 C44 1.267 . S
C52 O53 1.160 . S
C52 O59 1.185 . S
O53 C52 1.160 . S
O54 Zn55 1.899 . S
O54 C62 1.284 . S
Zn55 O54 1.899 . S
Zn55 O56 2.032 1_455 S
Zn55 O59 2.086 . S
Zn55 O64 1.977 1_455 S
O56 Zn55 2.032 1_655 S
O56 C60 1.278 . S
C57 O58 1.203 . S
C57 O64 1.267 . S
O58 C57 1.203 . S
O59 C52 1.185 . S
O59 Zn55 2.086 . S
C60 O56 1.278 . S
C60 O61 1.211 . S
O61 C60 1.211 . S
C62 O54 1.284 . S
C62 O63 1.273 . S
O63 C62 1.273 . S
O64 Zn55 1.977 1_655 S
O64 C57 1.267 . S
C65 O66 1.160 . S
C65 O72 1.185 . S
O66 C65 1.160 . S
O67 Zn68 1.899 . S
O67 C75 1.284 . S
Zn68 O67 1.899 . S
Zn68 O69 2.032 . S
Zn68 O72 2.086 . S
Zn68 O77 1.977 . S
O69 Zn68 2.032 . S
O69 C73 1.278 . S
C70 O71 1.203 . S
C70 O77 1.267 . S
O71 C70 1.203 . S
O72 C65 1.185 . S
O72 Zn68 2.086 . S
C73 O69 1.278 . S
C73 O74 1.211 . S
O74 C73 1.211 . S
C75 O67 1.284 . S
C75 O76 1.273 . S
O76 C75 1.273 . S
O77 Zn68 1.977 . S
O77 C70 1.267 . S
C78 O79 1.160 . S
C78 O85 1.185 . S
O79 C78 1.160 . S
O80 Zn81 1.899 . S
O80 C88 1.284 . S
Zn81 O80 1.899 . S
Zn81 O82 2.032 . S
Zn81 O85 2.086 . S
Zn81 O90 1.977 . S
O82 Zn81 2.032 . S
O82 C86 1.278 . S
C83 O84 1.203 . S
C83 O90 1.267 . S
O84 C83 1.203 . S
O85 C78 1.185 . S
O85 Zn81 2.086 . S
C86 O82 1.278 . S
C86 O87 1.211 . S
O87 C86 1.211 . S
C88 O80 1.284 . S
C88 O89 1.273 . S
O89 C88 1.273 . S
O90 Zn81 1.977 . S
O90 C83 1.267 . S
C91 O92 1.160 . S
C91 O98 1.185 . S
O92 C91 1.160 . S
O93 Zn94 1.899 . S
O93 C101 1.284 . S
Zn94 O93 1.899 . S
Zn94 O95 2.032 . S
Zn94 O98 2.086 . S
Zn94 O103 1.977 . S
O95 Zn94 2.032 . S
O95 C99 1.278 . S
C96 O97 1.203 . S
C96 O103 1.267 . S
O97 C96 1.203 . S
O98 C91 1.185 . S
O98 Zn94 2.086 . S
C99 O95 1.278 . S
C99 O100 1.211 . S
O100 C99 1.211 . S
C101 O93 1.284 . S
C101 O102 1.273 1_455 S
O102 C101 1.273 1_655 S
O103 Zn94 1.977 . S
O103 C96 1.267 . S
C104 O105 1.160 . S
C104 O111 1.185 . S
O105 C104 1.160 . S
O106 Zn107 1.899 . S
O106 C114 1.284 . S
Zn107 O106 1.899 . S
Zn107 O108 2.032 1_565 S
Zn107 O111 2.086 . S
Zn107 O116 1.977 1_565 S
O108 Zn107 2.032 1_545 S
O108 C112 1.278 . S
C109 O110 1.203 . S
C109 O116 1.267 . S
O110 C109 1.203 . S
O111 C104 1.185 . S
O111 Zn107 2.086 . S
C112 O108 1.278 . S
C112 O113 1.211 . S
O113 C112 1.211 . S
C114 O106 1.284 . S
C114 O115 1.273 . S
O115 C114 1.273 . S
O116 Zn107 1.977 1_545 S
O116 C109 1.267 . S
C117 O118 1.160 . S
C117 O124 1.185 . S
O118 C117 1.160 . S
O119 Zn120 1.899 . S
O119 C127 1.284 . S
Zn120 O119 1.899 . S
Zn120 O121 2.032 . S
Zn120 O124 2.086 . S
Zn120 O129 1.977 . S
O121 Zn120 2.032 . S
O121 C125 1.278 . S
C122 O123 1.203 . S
C122 O129 1.267 . S
O123 C122 1.203 . S
O124 C117 1.185 . S
O124 Zn120 2.086 . S
C125 O121 1.278 . S
C125 O126 1.211 . S
O126 C125 1.211 . S
C127 O119 1.284 . S
C127 O128 1.273 . S
O128 C127 1.273 . S
O129 Zn120 1.977 . S
O129 C122 1.267 . S
C130 O131 1.160 . S
C130 O137 1.185 1_565 S
O131 C130 1.160 . S
O132 Zn133 1.899 . S
O132 C140 1.284 . S
Zn133 O132 1.899 . S
Zn133 O134 2.032 . S
Zn133 O137 2.086 . S
Zn133 O142 1.977 . S
O134 Zn133 2.032 . S
O134 C138 1.278 . S
C135 O136 1.203 . S
C135 O142 1.267 . S
O136 C135 1.203 . S
O137 C130 1.185 1_545 S
O137 Zn133 2.086 . S
C138 O134 1.278 . S
C138 O139 1.211 . S
O139 C138 1.211 . S
C140 O132 1.284 . S
C140 O141 1.273 . S
O141 C140 1.273 . S
O142 Zn133 1.977 . S
O142 C135 1.267 . S
C143 O144 1.160 . S
C143 O150 1.185 . S
O144 C143 1.160 . S
O145 Zn146 1.899 . S
O145 C153 1.282 1_564 S
Zn146 O145 1.899 . S
Zn146 O147 2.032 . S
Zn146 O150 2.086 . S
Zn146 O155 1.977 . S
O147 Zn146 2.032 . S
O147 C151 1.278 1_554 S
C148 O149 1.203 . S
C148 O155 1.267 1_545 S
O149 C148 1.203 . S
O150 C143 1.185 . S
O150 Zn146 2.086 . S
C151 O147 1.278 1_556 S
C151 O152 1.211 . S
O152 C151 1.211 . S
C153 O145 1.282 1_546 S
C153 O154 1.271 1_545 S
O154 C153 1.271 1_565 S
O155 Zn146 1.977 . S
O155 C148 1.267 1_565 S
C156 O157 1.160 . S
C156 O163 1.185 . S
O157 C156 1.160 . S
O158 Zn159 1.899 1_556 S
O158 C166 1.284 . S
Zn159 O158 1.899 1_554 S
Zn159 O160 2.032 . S
Zn159 O163 2.086 1_554 S
Zn159 O168 1.977 . S
O160 Zn159 2.032 . S
O160 C164 1.278 . S
C161 O162 1.203 . S
C161 O168 1.267 . S
O162 C161 1.203 . S
O163 C156 1.185 . S
O163 Zn159 2.086 1_556 S
C164 O160 1.278 . S
C164 O165 1.211 . S
O165 C164 1.211 . S
C166 O158 1.284 . S
C166 O167 1.278 . S
O167 C166 1.278 . S
O168 Zn159 1.977 . S
O168 C161 1.267 . S
C169 O170 1.160 . S
C169 O176 1.185 . S
O170 C169 1.160 . S
O171 Zn172 1.899 . S
O171 C179 1.284 . S
Zn172 O171 1.899 . S
Zn172 O173 2.032 1_556 S
Zn172 O176 2.086 . S
Zn172 O181 1.977 1_556 S
O173 Zn172 2.032 1_554 S
O173 C177 1.278 . S
C174 O175 1.203 . S
C174 O181 1.267 . S
O175 C174 1.203 . S
O176 C169 1.185 . S
O176 Zn172 2.086 . S
C177 O173 1.278 . S
C177 O178 1.211 . S
O178 C177 1.211 . S
C179 O171 1.284 . S
C179 O180 1.273 . S
O180 C179 1.273 . S
O181 Zn172 1.977 1_554 S
O181 C174 1.267 . S
C182 O183 1.160 . S
C182 O189 1.185 . S
O183 C182 1.160 . S
O184 Zn185 1.899 . S
O184 C192 1.284 . S
Zn185 O184 1.899 . S
Zn185 O186 2.032 . S
Zn185 O189 2.086 . S
Zn185 O194 1.977 . S
O186 Zn185 2.032 . S
O186 C190 1.278 . S
C187 O188 1.203 . S
C187 O194 1.267 . S
O188 C187 1.203 . S
O189 C182 1.185 . S
O189 Zn185 2.086 . S
C190 O186 1.278 . S
C190 O191 1.211 . S
O191 C190 1.211 . S
C192 O184 1.284 . S
C192 O193 1.273 . S
O193 C192 1.273 . S
O194 Zn185 1.977 . S
O194 C187 1.267 . S
C195 O196 1.160 . S
C195 O202 1.185 1_545 S
O196 C195 1.160 . S
O197 Zn198 1.899 . S
O197 C205 1.284 . S
Zn198 O197 1.899 . S
Zn198 O199 2.032 1_565 S
Zn198 O202 2.086 . S
Zn198 O207 1.977 . S
O199 Zn198 2.032 1_545 S
O199 C203 1.279 . S
C200 O201 1.203 . S
C200 O207 1.267 . S
O201 C200 1.203 . S
O202 C195 1.185 1_565 S
O202 Zn198 2.086 . S
C203 O199 1.279 . S
C203 O204 1.205 1_545 S
O204 C203 1.205 1_565 S
C205 O197 1.284 . S
C205 O206 1.273 . S
O206 C205 1.273 . S
O207 Zn198 1.977 . S
O207 C200 1.267 . S
C208 O209 1.160 . S
C208 O215 1.185 . S
O209 C208 1.160 . S
O210 Zn211 1.899 1_565 S
O210 C218 1.284 . S
Zn211 O210 1.899 1_545 S
Zn211 O212 2.032 1_545 S
Zn211 O215 2.086 . S
Zn211 O220 1.977 . S
O212 Zn211 2.032 1_565 S
O212 C216 1.278 . S
C213 O214 1.203 . S
C213 O220 1.267 1_455 S
O214 C213 1.203 . S
O215 C208 1.185 . S
O215 Zn211 2.086 . S
C216 O212 1.278 . S
C216 O217 1.211 . S
O217 C216 1.211 . S
C218 O210 1.284 . S
C218 O219 1.273 . S
O219 C218 1.273 . S
O220 Zn211 1.977 . S
O220 C213 1.267 1_655 S
C221 O222 1.160 . S
C221 O228 1.185 . S
O222 C221 1.160 . S
O223 Zn224 1.899 . S
O223 C231 1.284 . S
Zn224 O223 1.899 . S
Zn224 O225 2.032 . S
Zn224 O228 2.086 . S
Zn224 O233 1.977 . S
O225 Zn224 2.032 . S
O225 C229 1.278 . S
C226 O227 1.203 . S
C226 O233 1.267 . S
O227 C226 1.203 . S
O228 C221 1.185 . S
O228 Zn224 2.086 . S
C229 O225 1.278 . S
C229 O230 1.211 . S
O230 C229 1.211 . S
C231 O223 1.284 . S
C231 O232 1.273 . S
O232 C231 1.273 . S
O233 Zn224 1.977 . S
O233 C226 1.267 . S
C234 O235 1.160 . S
C234 O241 1.185 . S
O235 C234 1.160 . S
O236 Zn237 1.899 . S
O236 C244 1.284 . S
Zn237 O236 1.899 . S
Zn237 O238 2.032 . S
Zn237 O241 2.086 . S
Zn237 O246 1.977 . S
O238 Zn237 2.032 . S
O238 C242 1.278 . S
C239 O240 1.203 . S
C239 O246 1.267 . S
O240 C239 1.203 . S
O241 C234 1.185 . S
O241 Zn237 2.086 . S
C242 O238 1.278 . S
C242 O243 1.211 . S
O243 C242 1.211 . S
C244 O236 1.284 . S
C244 O245 1.273 . S
O245 C244 1.273 . S
O246 Zn237 1.977 . S
O246 C239 1.267 . S
C247 O248 1.160 . S
C247 O254 1.185 . S
O248 C247 1.160 . S
O249 Zn250 1.899 . S
O249 C257 1.284 1_545 S
Zn250 O249 1.899 . S
Zn250 O251 2.032 . S
Zn250 O254 2.086 . S
Zn250 O259 1.977 . S
O251 Zn250 2.032 . S
O251 C255 1.278 . S
C252 O253 1.203 . S
C252 O259 1.267 . S
O253 C252 1.203 . S
O254 C247 1.185 . S
O254 Zn250 2.086 . S
C255 O251 1.278 . S
C255 O256 1.211 . S
O256 C255 1.211 . S
C257 O249 1.284 1_565 S
C257 O258 1.273 . S
O258 C257 1.273 . S
O259 Zn250 1.977 . S
O259 C252 1.267 . S
C260 O261 1.160 . S
C260 O267 1.185 . S
O261 C260 1.160 . S
O262 Zn263 1.899 . S
O262 C270 1.284 1_554 S
Zn263 O262 1.899 . S
Zn263 O264 2.032 1_554 S
Zn263 O267 2.086 . S
Zn263 O272 1.977 . S
O264 Zn263 2.032 1_556 S
O264 C268 1.278 . S
C265 O266 1.203 . S
C265 O272 1.267 . S
O266 C265 1.203 . S
O267 C260 1.185 . S
O267 Zn263 2.086 . S
C268 O264 1.278 . S
C268 O269 1.211 . S
O269 C268 1.211 . S
C270 O262 1.284 1_556 S
C270 O271 1.273 . S
O271 C270 1.273 . S
O272 Zn263 1.977 . S
O272 C265 1.267 . S
C273 O274 1.160 . S
C273 O280 1.185 . S
O274 C273 1.160 . S
O275 Zn276 1.899 . S
O275 C283 1.284 . S
Zn276 O275 1.899 . S
Zn276 O277 2.032 . S
Zn276 O280 2.086 . S
Zn276 O285 1.977 . S
O277 Zn276 2.032 . S
O277 C281 1.278 . S
C278 O279 1.203 . S
C278 O285 1.267 . S
O279 C278 1.203 . S
O280 C273 1.185 . S
O280 Zn276 2.086 . S
C281 O277 1.278 . S
C281 O282 1.211 . S
O282 C281 1.211 . S
C283 O275 1.284 . S
C283 O284 1.273 . S
O284 C283 1.273 . S
O285 Zn276 1.977 . S
O285 C278 1.267 . S
C286 O287 1.160 . S
C286 O293 1.185 . S
O287 C286 1.160 . S
O288 Zn289 1.899 . S
O288 C296 1.284 . S
Zn289 O288 1.899 . S
Zn289 O290 2.032 . S
Zn289 O293 2.086 . S
Zn289 O298 1.977 . S
O290 Zn289 2.032 . S
O290 C294 1.278 . S
C291 O292 1.203 . S
C291 O298 1.267 . S
O292 C291 1.203 . S
O293 C286 1.185 . S
O293 Zn289 2.086 . S
C294 O290 1.278 . S
C294 O295 1.211 . S
O295 C294 1.211 . S
C296 O288 1.284 . S
C296 O297 1.273 . S
O297 C296 1.273 . S
O298 Zn289 1.977 . S
O298 C291 1.267 . S
C299 O300 1.160 . S
C299 O306 1.185 . S
O300 C299 1.160 . S
O301 Zn302 1.899 . S
O301 C309 1.284 . S
Zn302 O301 1.899 . S
Zn302 O303 2.032 . S
Zn302 O306 2.086 . S
Zn302 O311 1.977 . S
O303 Zn302 2.032 . S
O303 C307 1.278 . S
C304 O305 1.203 . S
C304 O311 1.267 . S
O305 C304 1.203 . S
O306 C299 1.185 . S
O306 Zn302 2.086 . S
C307 O303 1.278 . S
C307 O308 1.211 . S
O308 C307 1.211 . S
C309 O301 1.284 . S
C309 O310 1.273 . S
O310 C309 1.273 . S
O311 Zn302 1.977 . S
O311 C304 1.267 . S
O312 Mg313 1.990 . S
O312 C326 1.253 . S
Mg313 O312 1.990 . S
Mg313 O316 2.180 . S
Mg313 O317 2.117 1_554 S
Mg313 O331 2.030 . S
O314 Mg315 2.072 . S
O314 C326 1.260 . S
Mg315 O314 2.072 . S
Mg315 O316 2.099 . S
Mg315 O318 2.079 . S
Mg315 O319 2.072 . S
Mg315 O321 2.099 . S
Mg315 O332 2.079 . S
O316 Mg313 2.180 . S
O316 Mg315 2.099 . S
O316 C327 1.279 . S
O317 Mg313 2.117 1_556 S
O317 C327 1.250 1_556 S
O318 Mg315 2.079 . S
O318 C328 1.264 . S
O319 Mg315 2.072 . S
O319 C329 1.260 . S
Mg320 O321 2.180 . S
Mg320 O322 2.030 . S
Mg320 O323 1.990 . S
Mg320 O324 2.117 . S
O321 Mg315 2.099 . S
O321 Mg320 2.180 . S
O321 C330 1.279 . S
O322 Mg320 2.030 . S
O322 C328 1.248 . S
O323 Mg320 1.990 . S
O323 C329 1.253 . S
O324 Mg320 2.117 . S
O324 C330 1.250 . S
C325 O331 1.248 . S
C325 O332 1.264 . S
C326 O312 1.253 . S
C326 O314 1.260 . S
C327 O316 1.279 . S
C327 O317 1.250 1_554 S
C328 O318 1.264 . S
C328 O322 1.248 . S
C329 O319 1.260 . S
C329 O323 1.253 . S
C330 O321 1.279 . S
C330 O324 1.250 . S
O331 Mg313 2.030 . S
O331 C325 1.248 . S
O332 Mg315 2.079 . S
O332 C325 1.264 . S
O333 Mg334 1.990 . S
O333 C347 1.253 . S
Mg334 O333 1.990 . S
Mg334 O337 2.180 . S
Mg334 O338 2.117 . S
Mg334 O352 2.030 . S
O335 Mg336 2.072 . S
O335 C347 1.260 . S
Mg336 O335 2.072 . S
Mg336 O337 2.099 . S
Mg336 O339 2.079 . S
Mg336 O340 2.072 . S
Mg336 O342 2.099 . S
Mg336 O353 2.079 . S
O337 Mg334 2.180 . S
O337 Mg336 2.099 . S
O337 C348 1.279 . S
O338 Mg334 2.117 . S
O338 C348 1.250 . S
O339 Mg336 2.079 . S
O339 C349 1.264 1_565 S
O340 Mg336 2.072 . S
O340 C350 1.260 . S
Mg341 O342 2.180 1_545 S
Mg341 O343 2.030 . S
Mg341 O344 1.990 1_545 S
Mg341 O345 2.117 1_455 S
O342 Mg336 2.099 . S
O342 Mg341 2.180 1_565 S
O342 C351 1.279 1_565 S
O343 Mg341 2.030 . S
O343 C349 1.248 . S
O344 Mg341 1.990 1_565 S
O344 C350 1.253 . S
O345 Mg341 2.117 1_655 S
O345 C351 1.250 1_655 S
C346 O352 1.248 . S
C346 O353 1.264 . S
C347 O333 1.253 . S
C347 O335 1.260 . S
C348 O337 1.279 . S
C348 O338 1.250 . S
C349 O339 1.264 1_545 S
C349 O343 1.248 . S
C350 O340 1.260 . S
C350 O344 1.253 . S
C351 O342 1.279 1_545 S
C351 O345 1.250 1_455 S
O352 Mg334 2.030 . S
O352 C346 1.248 . S
O353 Mg336 2.079 . S
O353 C346 1.264 . S
O354 Mg355 1.990 . S
O354 C368 1.253 . S
Mg355 O354 1.990 . S
Mg355 O358 2.180 1_545 S
Mg355 O359 2.117 . S
Mg355 O373 2.030 1_545 S
O356 Mg357 2.072 . S
O356 C368 1.260 1_565 S
Mg357 O356 2.072 . S
Mg357 O358 2.099 . S
Mg357 O360 2.079 . S
Mg357 O361 2.072 . S
Mg357 O363 2.099 . S
Mg357 O374 2.079 . S
O358 Mg355 2.180 1_565 S
O358 Mg357 2.099 . S
O358 C369 1.279 1_565 S
O359 Mg355 2.117 . S
O359 C369 1.250 . S
O360 Mg357 2.079 . S
O360 C370 1.264 . S
O361 Mg357 2.072 . S
O361 C371 1.260 . S
Mg362 O363 2.180 . S
Mg362 O364 2.030 . S
Mg362 O365 1.990 . S
Mg362 O366 2.117 . S
O363 Mg357 2.099 . S
O363 Mg362 2.180 . S
O363 C372 1.279 . S
O364 Mg362 2.030 . S
O364 C370 1.248 . S
O365 Mg362 1.990 . S
O365 C371 1.253 . S
O366 Mg362 2.117 . S
O366 C372 1.250 . S
C367 O373 1.248 . S
C367 O374 1.264 . S
C368 O354 1.253 . S
C368 O356 1.260 1_545 S
C369 O358 1.279 1_545 S
C369 O359 1.250 . S
C370 O360 1.264 . S
C370 O364 1.248 . S
C371 O361 1.260 . S
C371 O365 1.253 . S
C372 O363 1.279 . S
C372 O366 1.250 . S
O373 Mg355 2.030 1_565 S
O373 C367 1.248 . S
O374 Mg357 2.079 . S
O374 C367 1.264 . S
O375 Mg376 1.990 1_554 S
O375 C389 1.253 . S
Mg376 O375 1.990 1_556 S
Mg376 O379 2.180 . S
Mg376 O380 2.117 . S
Mg376 O394 2.030 1_556 S
O377 Mg378 2.072 . S
O377 C389 1.260 1_556 S
Mg378 O377 2.072 . S
Mg378 O379 2.099 . S
Mg378 O381 2.079 . S
Mg378 O382 2.072 . S
Mg378 O384 2.099 . S
Mg378 O395 2.079 . S
O379 Mg376 2.180 . S
O379 Mg378 2.099 . S
O379 C390 1.279 . S
O380 Mg376 2.117 . S
O380 C390 1.250 . S
O381 Mg378 2.079 . S
O381 C391 1.264 . S
O382 Mg378 2.072 . S
O382 C392 1.260 . S
Mg383 O384 2.180 . S
Mg383 O385 2.030 . S
Mg383 O386 1.990 . S
Mg383 O387 2.117 . S
O384 Mg378 2.099 . S
O384 Mg383 2.180 . S
O384 C393 1.279 . S
O385 Mg383 2.030 . S
O385 C391 1.248 . S
O386 Mg383 1.990 . S
O386 C392 1.253 . S
O387 Mg383 2.117 . S
O387 C393 1.250 . S
C388 O394 1.248 . S
C388 O395 1.264 1_554 S
C389 O375 1.253 . S
C389 O377 1.260 1_554 S
C390 O379 1.279 . S
C390 O380 1.250 . S
C391 O381 1.264 . S
C391 O385 1.248 . S
C392 O382 1.260 . S
C392 O386 1.253 . S
C393 O384 1.279 . S
C393 O387 1.250 . S
O394 Mg376 2.030 1_554 S
O394 C388 1.248 . S
O395 Mg378 2.079 . S
O395 C388 1.264 1_556 S
O396 Mg397 1.990 . S
O396 C410 1.253 . S
Mg397 O396 1.990 . S
Mg397 O400 2.180 . S
Mg397 O401 2.117 . S
Mg397 O415 2.030 . S
O398 Mg399 2.072 . S
O398 C410 1.260 . S
Mg399 O398 2.072 . S
Mg399 O400 2.099 . S
Mg399 O402 2.079 . S
Mg399 O403 2.072 . S
Mg399 O405 2.099 . S
Mg399 O416 2.079 . S
O400 Mg397 2.180 . S
O400 Mg399 2.099 . S
O400 C411 1.279 . S
O401 Mg397 2.117 . S
O401 C411 1.250 . S
O402 Mg399 2.079 . S
O402 C412 1.264 1_556 S
O403 Mg399 2.072 . S
O403 C413 1.260 . S
Mg404 O405 2.180 . S
Mg404 O406 2.030 1_556 S
Mg404 O407 1.990 . S
Mg404 O408 2.117 . S
O405 Mg399 2.099 . S
O405 Mg404 2.180 . S
O405 C414 1.279 . S
O406 Mg404 2.030 1_554 S
O406 C412 1.248 . S
O407 Mg404 1.990 . S
O407 C413 1.253 . S
O408 Mg404 2.117 . S
O408 C414 1.250 . S
C409 O415 1.248 . S
C409 O416 1.264 . S
C410 O396 1.253 . S
C410 O398 1.260 . S
C411 O400 1.279 . S
C411 O401 1.250 . S
C412 O402 1.264 1_554 S
C412 O406 1.248 . S
C413 O403 1.260 . S
C413 O407 1.253 . S
C414 O405 1.279 . S
C414 O408 1.250 . S
O415 Mg397 2.030 . S
O415 C409 1.248 . S
O416 Mg399 2.079 . S
O416 C409 1.264 . S
O417 Mg418 1.990 . S
O417 C431 1.253 . S
Mg418 O417 1.990 . S
Mg418 O421 2.180 1_455 S
Mg418 O422 2.117 1_455 S
Mg418 O436 2.030 . S
O419 Mg420 2.072 1_455 S
O419 C431 1.260 . S
Mg420 O419 2.072 1_655 S
Mg420 O421 2.099 . S
Mg420 O423 2.079 . S
Mg420 O424 2.072 . S
Mg420 O426 2.099 . S
Mg420 O437 2.079 1_655 S
O421 Mg418 2.180 1_655 S
O421 Mg420 2.099 . S
O421 C432 1.279 . S
O422 Mg418 2.117 1_655 S
O422 C432 1.250 . S
O423 Mg420 2.079 . S
O423 C433 1.264 . S
O424 Mg420 2.072 . S
O424 C434 1.260 . S
Mg425 O426 2.180 . S
Mg425 O427 2.030 . S
Mg425 O428 1.990 . S
Mg425 O429 2.117 . S
O426 Mg420 2.099 . S
O426 Mg425 2.180 . S
O426 C435 1.279 . S
O427 Mg425 2.030 . S
O427 C433 1.248 . S
O428 Mg425 1.990 . S
O428 C434 1.253 . S
O429 Mg425 2.117 . S
O429 C435 1.250 . S
C430 O436 1.248 . S
C430 O437 1.264 . S
C431 O417 1.253 . S
C431 O419 1.260 . S
C432 O421 1.279 . S
C432 O422 1.250 . S
C433 O423 1.264 . S
C433 O427 1.248 . S
C434 O424 1.260 . S
C434 O428 1.253 . S
C435 O426 1.279 . S
C435 O429 1.250 . S
O436 Mg418 2.030 . S
O436 C430 1.248 . S
O437 Mg420 2.079 1_455 S
O437 C430 1.264 . S
O438 Mg439 1.990 . S
O438 C452 1.260 . S
Mg439 O438 1.990 . S
Mg439 O442 2.180 1_455 S
Mg439 O443 2.117 . S
Mg439 O457 2.030 1_455 S
O440 Mg441 2.072 . S
O440 C452 1.252 1_655 S
Mg441 O440 2.072 . S
Mg441 O442 2.099 . S
Mg441 O444 2.079 . S
Mg441 O445 2.072 . S
Mg441 O447 2.099 . S
Mg441 O458 2.079 . S
O442 Mg439 2.180 1_655 S
O442 Mg441 2.099 . S
O442 C453 1.279 1_655 S
O443 Mg439 2.117 . S
O443 C453 1.250 . S
O444 Mg441 2.079 . S
O444 C454 1.264 . S
O445 Mg441 2.072 . S
O445 C455 1.260 . S
Mg446 O447 2.180 . S
Mg446 O448 2.030 . S
Mg446 O449 1.990 . S
Mg446 O450 2.117 . S
O447 Mg441 2.099 . S
O447 Mg446 2.180 . S
O447 C456 1.279 . S
O448 Mg446 2.030 . S
O448 C454 1.248 . S
O449 Mg446 1.990 . S
O449 C455 1.253 . S
O450 Mg446 2.117 . S
O450 C456 1.250 . S
C451 O457 1.248 . S
C451 O458 1.264 . S
C452 O438 1.260 . S
C452 O440 1.252 1_455 S
C453 O442 1.279 1_455 S
C453 O443 1.250 . S
C454 O444 1.264 . S
C454 O448 1.248 . S
C455 O445 1.260 . S
C455 O449 1.253 . S
C456 O447 1.279 . S
C456 O450 1.250 . S
O457 Mg439 2.030 1_655 S
O457 C451 1.248 . S
O458 Mg441 2.079 . S
O458 C451 1.264 . S
O459 Mg460 1.990 . S
O459 C473 1.253 . S
Mg460 O459 1.990 . S
Mg460 O463 2.180 . S
Mg460 O464 2.117 . S
Mg460 O478 2.030 . S
O461 Mg462 2.072 . S
O461 C473 1.260 . S
Mg462 O461 2.072 . S
Mg462 O463 2.099 . S
Mg462 O465 2.079 . S
Mg462 O466 2.072 1_565 S
Mg462 O468 2.099 . S
Mg462 O479 2.079 . S
O463 Mg460 2.180 . S
O463 Mg462 2.099 . S
O463 C474 1.279 . S
O464 Mg460 2.117 . S
O464 C474 1.250 . S
O465 Mg462 2.079 . S
O465 C475 1.264 1_665 S
O466 Mg462 2.072 1_545 S
O466 C476 1.260 . S
Mg467 O468 2.176 1_444 S
Mg467 O469 2.020 1_554 S
Mg467 O470 1.992 1_455 S
Mg467 O471 2.124 1_545 S
O468 Mg462 2.099 . S
O468 Mg467 2.176 1_666 S
O468 C477 1.279 1_656 S
O469 Mg467 2.020 1_556 S
O469 C475 1.248 . S
O470 Mg467 1.992 1_655 S
O470 C476 1.253 1_554 S
O471 Mg467 2.124 1_565 S
O471 C477 1.250 . S
C472 O478 1.248 . S
C472 O479 1.264 . S
C473 O459 1.253 . S
C473 O461 1.260 . S
C474 O463 1.279 . S
C474 O464 1.250 . S
C475 O465 1.264 1_445 S
C475 O469 1.248 . S
C476 O466 1.260 . S
C476 O470 1.253 1_556 S
C477 O468 1.279 1_454 S
C477 O471 1.250 . S
O478 Mg460 2.030 . S
O478 C472 1.248 . S
O479 Mg462 2.079 . S
O479 C472 1.264 . S
O480 Mg481 1.990 . S
O480 C494 1.253 . S
Mg481 O480 1.990 . S
Mg481 O484 2.180 . S
Mg481 O485 2.117 . S
Mg481 O499 2.030 . S
O482 Mg483 2.072 . S
O482 C494 1.260 . S
Mg483 O482 2.072 . S
Mg483 O484 2.099 . S
Mg483 O486 2.079 . S
Mg483 O487 2.072 . S
Mg483 O489 2.099 1_655 S
Mg483 O500 2.079 . S
O484 Mg481 2.180 . S
O484 Mg483 2.099 . S
O484 C495 1.279 . S
O485 Mg481 2.117 . S
O485 C495 1.250 . S
O486 Mg483 2.079 . S
O486 C496 1.264 . S
O487 Mg483 2.072 . S
O487 C497 1.260 1_655 S
Mg488 O489 2.180 . S
Mg488 O490 2.030 1_455 S
Mg488 O491 1.990 . S
Mg488 O492 2.117 . S
O489 Mg483 2.099 1_455 S
O489 Mg488 2.180 . S
O489 C498 1.279 . S
O490 Mg488 2.030 1_655 S
O490 C496 1.248 . S
O491 Mg488 1.990 . S
O491 C497 1.253 . S
O492 Mg488 2.117 . S
O492 C498 1.250 . S
C493 O499 1.248 . S
C493 O500 1.264 . S
C494 O480 1.253 . S
C494 O482 1.260 . S
C495 O484 1.279 . S
C495 O485 1.250 . S
C496 O486 1.264 . S
C496 O490 1.248 . S
C497 O487 1.260 1_455 S
C497 O491 1.253 . S
C498 O489 1.279 . S
C498 O492 1.250 . S
O499 Mg481 2.030 . S
O499 C493 1.248 . S
O500 Mg483 2.079 . S
O500 C493 1.264 . S
O501 Mg502 1.990 . S
O501 C515 1.253 . S
Mg502 O501 1.990 . S
Mg502 O505 2.180 . S
Mg502 O506 2.117 . S
Mg502 O520 2.030 . S
O503 Mg504 2.072 . S
O503 C515 1.260 . S
Mg504 O503 2.072 . S
Mg504 O505 2.099 . S
Mg504 O507 2.079 . S
Mg504 O508 2.072 . S
Mg504 O510 2.099 . S
Mg504 O521 2.079 . S
O505 Mg502 2.180 . S
O505 Mg504 2.099 . S
O505 C516 1.279 . S
O506 Mg502 2.117 . S
O506 C516 1.250 . S
O507 Mg504 2.079 . S
O507 C517 1.264 . S
O508 Mg504 2.072 . S
O508 C518 1.260 . S
Mg509 O510 2.180 . S
Mg509 O511 2.030 . S
Mg509 O512 1.990 . S
Mg509 O513 2.117 . S
O510 Mg504 2.099 . S
O510 Mg509 2.180 . S
O510 C519 1.279 . S
O511 Mg509 2.030 . S
O511 C517 1.248 . S
O512 Mg509 1.990 . S
O512 C518 1.253 . S
O513 Mg509 2.117 . S
O513 C519 1.250 . S
C514 O520 1.248 . S
C514 O521 1.264 . S
C515 O501 1.253 . S
C515 O503 1.260 . S
C516 O505 1.279 . S
C516 O506 1.250 . S
C517 O507 1.264 . S
C517 O511 1.248 . S
C518 O508 1.260 . S
C518 O512 1.253 . S
C519 O510 1.279 . S
C519 O513 1.250 . S
O520 Mg502 2.030 . S
O520 C514 1.248 . S
O521 Mg504 2.079 . S
O521 C514 1.264 . S
O522 Mg523 1.990 1_565 S
O522 C536 1.253 . S
Mg523 O522 1.990 1_545 S
Mg523 O526 2.180 1_545 S
Mg523 O527 2.117 . S
Mg523 O541 2.030 . S
O524 Mg525 2.072 . S
O524 C536 1.260 . S
Mg525 O524 2.072 . S
Mg525 O526 2.099 . S
Mg525 O528 2.079 . S
Mg525 O529 2.072 . S
Mg525 O531 2.099 . S
Mg525 O542 2.079 . S
O526 Mg523 2.180 1_565 S
O526 Mg525 2.099 . S
O526 C537 1.277 1_565 S
O527 Mg523 2.117 . S
O527 C537 1.252 . S
O528 Mg525 2.079 . S
O528 C538 1.264 . S
O529 Mg525 2.072 . S
O529 C539 1.260 . S
Mg530 O531 2.180 . S
Mg530 O532 2.030 . S
Mg530 O533 1.990 . S
Mg530 O534 2.117 . S
O531 Mg525 2.099 . S
O531 Mg530 2.180 . S
O531 C540 1.279 . S
O532 Mg530 2.030 . S
O532 C538 1.248 . S
O533 Mg530 1.990 . S
O533 C539 1.253 . S
O534 Mg530 2.117 . S
O534 C540 1.250 . S
C535 O541 1.248 . S
C535 O542 1.264 1_545 S
C536 O522 1.253 . S
C536 O524 1.260 . S
C537 O526 1.277 1_545 S
C537 O527 1.252 . S
C538 O528 1.264 . S
C538 O532 1.248 . S
C539 O529 1.260 . S
C539 O533 1.253 . S
C540 O531 1.279 . S
C540 O534 1.250 . S
O541 Mg523 2.030 . S
O541 C535 1.248 . S
O542 Mg525 2.079 . S
O542 C535 1.264 1_565 S
O543 Mg544 1.990 . S
O543 C557 1.253 . S
Mg544 O543 1.990 . S
Mg544 O547 2.180 . S
Mg544 O548 2.117 . S
Mg544 O562 2.030 . S
O545 Mg546 2.072 . S
O545 C557 1.260 . S
Mg546 O545 2.072 . S
Mg546 O547 2.099 . S
Mg546 O549 2.079 . S
Mg546 O550 2.072 . S
Mg546 O552 2.099 . S
Mg546 O563 2.079 . S
O547 Mg544 2.180 . S
O547 Mg546 2.099 . S
O547 C558 1.279 . S
O548 Mg544 2.117 . S
O548 C558 1.250 . S
O549 Mg546 2.079 . S
O549 C559 1.264 . S
O550 Mg546 2.072 . S
O550 C560 1.260 . S
Mg551 O552 2.180 . S
Mg551 O553 2.030 . S
Mg551 O554 1.990 . S
Mg551 O555 2.117 . S
O552 Mg546 2.099 . S
O552 Mg551 2.180 . S
O552 C561 1.279 . S
O553 Mg551 2.030 . S
O553 C559 1.248 . S
O554 Mg551 1.990 . S
O554 C560 1.253 . S
O555 Mg551 2.117 . S
O555 C561 1.250 . S
C556 O562 1.248 . S
C556 O563 1.264 . S
C557 O543 1.253 . S
C557 O545 1.260 . S
C558 O547 1.279 . S
C558 O548 1.250 . S
C559 O549 1.264 . S
C559 O553 1.248 . S
C560 O550 1.260 . S
C560 O554 1.253 . S
C561 O552 1.279 . S
C561 O555 1.250 . S
O562 Mg544 2.030 . S
O562 C556 1.248 . S
O563 Mg546 2.079 . S
O563 C556 1.264 . S
O564 Mg565 1.990 . S
O564 C578 1.253 . S
Mg565 O564 1.990 . S
Mg565 O568 2.180 . S
Mg565 O569 2.117 . S
Mg565 O583 2.030 . S
O566 Mg567 2.072 . S
O566 C578 1.260 . S
Mg567 O566 2.072 . S
Mg567 O568 2.099 . S
Mg567 O570 2.079 . S
Mg567 O571 2.072 . S
Mg567 O573 2.099 . S
Mg567 O584 2.079 . S
O568 Mg565 2.180 . S
O568 Mg567 2.099 . S
O568 C579 1.279 . S
O569 Mg565 2.117 . S
O569 C579 1.250 . S
O570 Mg567 2.079 . S
O570 C580 1.264 . S
O571 Mg567 2.072 . S
O571 C581 1.260 . S
Mg572 O573 2.180 . S
Mg572 O574 2.030 . S
Mg572 O575 1.990 . S
Mg572 O576 2.117 . S
O573 Mg567 2.099 . S
O573 Mg572 2.180 . S
O573 C582 1.279 . S
O574 Mg572 2.030 . S
O574 C580 1.248 . S
O575 Mg572 1.990 . S
O575 C581 1.253 . S
O576 Mg572 2.117 . S
O576 C582 1.250 . S
C577 O583 1.248 . S
C577 O584 1.264 . S
C578 O564 1.253 . S
C578 O566 1.260 . S
C579 O568 1.279 . S
C579 O569 1.250 . S
C580 O570 1.264 . S
C580 O574 1.248 . S
C581 O571 1.260 . S
C581 O575 1.253 . S
C582 O573 1.279 . S
C582 O576 1.250 . S
O583 Mg565 2.030 . S
O583 C577 1.248 . S
O584 Mg567 2.079 . S
O584 C577 1.264 . S
O585 Mg586 1.990 . S
O585 C599 1.253 . S
Mg586 O585 1.990 . S
Mg586 O589 2.180 . S
Mg586 O590 2.117 . S
Mg586 O604 2.030 . S
O587 Mg588 2.072 . S
O587 C599 1.260 . S
Mg588 O587 2.072 . S
Mg588 O589 2.099 . S
Mg588 O591 2.079 . S
Mg588 O592 2.072 . S
Mg588 O594 2.099 . S
Mg588 O605 2.079 . S
O589 Mg586 2.180 . S
O589 Mg588 2.099 . S
O589 C600 1.279 . S
O590 Mg586 2.117 . S
O590 C600 1.250 . S
O591 Mg588 2.079 . S
O591 C601 1.264 . S
O592 Mg588 2.072 . S
O592 C602 1.260 . S
Mg593 O594 2.180 . S
Mg593 O595 2.030 . S
Mg593 O596 1.990 . S
Mg593 O597 2.117 . S
O594 Mg588 2.099 . S
O594 Mg593 2.180 . S
O594 C603 1.279 . S
O595 Mg593 2.030 . S
O595 C601 1.248 . S
O596 Mg593 1.990 . S
O596 C602 1.253 . S
O597 Mg593 2.117 . S
O597 C603 1.250 . S
C598 O604 1.248 . S
C598 O605 1.264 . S
C599 O585 1.253 . S
C599 O587 1.260 . S
C600 O589 1.279 . S
C600 O590 1.250 . S
C601 O591 1.264 . S
C601 O595 1.248 . S
C602 O592 1.260 . S
C602 O596 1.253 . S
C603 O594 1.279 . S
C603 O597 1.250 . S
O604 Mg586 2.030 . S
O604 C598 1.248 . S
O605 Mg588 2.079 . S
O605 C598 1.264 . S
O606 Mg607 1.990 . S
O606 C620 1.253 . S
Mg607 O606 1.990 . S
Mg607 O610 2.180 . S
Mg607 O611 2.117 . S
Mg607 O625 2.030 . S
O608 Mg609 2.072 . S
O608 C620 1.260 . S
Mg609 O608 2.072 . S
Mg609 O610 2.099 . S
Mg609 O612 2.079 . S
Mg609 O613 2.072 . S
Mg609 O615 2.099 . S
Mg609 O626 2.079 . S
O610 Mg607 2.180 . S
O610 Mg609 2.099 . S
O610 C621 1.279 . S
O611 Mg607 2.117 . S
O611 C621 1.250 . S
O612 Mg609 2.079 . S
O612 C622 1.264 . S
O613 Mg609 2.072 . S
O613 C623 1.260 . S
Mg614 O615 2.180 . S
Mg614 O616 2.030 . S
Mg614 O617 1.990 . S
Mg614 O618 2.117 . S
O615 Mg609 2.099 . S
O615 Mg614 2.180 . S
O615 C624 1.279 . S
O616 Mg614 2.030 . S
O616 C622 1.248 . S
O617 Mg614 1.990 . S
O617 C623 1.253 . S
O618 Mg614 2.117 . S
O618 C624 1.250 . S
C619 O625 1.248 . S
C619 O626 1.264 . S
C620 O606 1.253 . S
C620 O608 1.260 . S
C621 O610 1.279 . S
C621 O611 1.250 . S
C622 O612 1.264 . S
C622 O616 1.248 . S
C623 O613 1.260 . S
C623 O617 1.253 . S
C624 O615 1.279 . S
C624 O618 1.250 . S
O625 Mg607 2.030 . S
O625 C619 1.248 . S
O626 Mg609 2.079 . S
O626 C619 1.264 . S
O627 Mg628 1.990 . S
O627 C641 1.253 . S
Mg628 O627 1.990 . S
Mg628 O631 2.180 . S
Mg628 O632 2.117 . S
Mg628 O646 2.030 . S
O629 Mg630 2.072 . S
O629 C641 1.260 . S
Mg630 O629 2.072 . S
Mg630 O631 2.099 . S
Mg630 O633 2.079 . S
Mg630 O634 2.072 . S
Mg630 O636 2.099 . S
Mg630 O647 2.079 . S
O631 Mg628 2.180 . S
O631 Mg630 2.099 . S
O631 C642 1.279 . S
O632 Mg628 2.117 . S
O632 C642 1.250 . S
O633 Mg630 2.079 . S
O633 C643 1.264 . S
O634 Mg630 2.072 . S
O634 C644 1.260 . S
Mg635 O636 2.180 . S
Mg635 O637 2.030 . S
Mg635 O638 1.990 . S
Mg635 O639 2.117 . S
O636 Mg630 2.099 . S
O636 Mg635 2.180 . S
O636 C645 1.279 . S
O637 Mg635 2.030 . S
O637 C643 1.248 . S
O638 Mg635 1.990 . S
O638 C644 1.253 . S
O639 Mg635 2.117 . S
O639 C645 1.250 . S
C640 O646 1.248 . S
C640 O647 1.264 . S
C641 O627 1.253 . S
C641 O629 1.260 . S
C642 O631 1.279 . S
C642 O632 1.250 . S
C643 O633 1.264 . S
C643 O637 1.248 . S
C644 O634 1.260 . S
C644 O638 1.253 . S
C645 O636 1.279 . S
C645 O639 1.250 . S
O646 Mg628 2.030 . S
O646 C640 1.248 . S
O647 Mg630 2.079 . S
O647 C640 1.264 . S
C328 C0 1.407 . S
C18 C350 1.854 . S
C372 C34 1.907 . S
C389 C49 2.232 . S
C347 C62 2.349 . S
C73 C367 1.979 . S
C392 C83 1.808 . S
C91 C327 1.574 1_556 S
C109 C330 1.551 . S
C349 C125 2.143 . S
C371 C130 1.942 . S
C388 C153 2.407 1_554 S
C346 C114 2.328 . S
C369 C117 1.363 . S
C138 C391 1.922 . S
C326 C148 1.561 . S
C161 C329 1.800 . S
C169 C411 1.315 . S
C431 C190 1.803 . S
C456 C205 1.852 . S
C213 C325 1.770 . S
C229 C370 2.038 . S
C453 C182 1.857 . S
C414 C244 1.635 . S
C472 C21 2.099 . S
C497 C5 2.162 1_455 S
C39 C514 1.934 . S
C36 C536 2.246 1_556 S
C101 C494 2.191 1_455 S
C78 C519 1.739 . S
C539 C70 2.401 . S
C60 C477 2.477 1_655 S
C257 C474 1.584 . S
C496 C203 2.511 . S
C516 C208 2.267 . S
C535 C174 1.862 . S
C493 C252 1.751 . S
C518 C195 1.988 . S
C538 C216 2.023 . S
C179 C476 2.175 . S
C473 C270 2.129 . S
C143 C558 1.637 . S
C578 C281 2.092 1_455 S
C122 C603 1.646 . S
C475 C140 2.157 . S
C515 C294 2.288 . S
C600 C273 2.039 1_455 S
C304 C561 1.039 . S
C26 C622 1.478 . S
C44 C413 1.890 1_554 S
C435 C8 1.888 . S
C23 C452 2.299 1_655 S
C88 C410 2.291 . S
C99 C430 2.003 1_556 S
C455 C57 2.064 . S
C621 C65 1.730 . S
C624 C278 1.145 . S
C412 C268 2.015 1_554 S
C434 C299 2.012 . S
C296 C451 2.298 . S
C409 C283 2.182 . S
C260 C432 1.412 . S
C454 C307 1.781 . S
C291 C620 1.449 . S
C623 C200 1.698 . S
C221 C348 1.099 . S
C368 C255 1.863 . S
C166 C393 1.920 . S
C619 C239 1.647 . S
C433 C177 2.014 . S
C390 C247 1.647 . S
C351 C218 1.749 1_445 S
C47 C640 2.497 . S
C31 C560 2.324 1_556 S
C13 C582 2.005 . S
C599 C10 2.285 . S
C557 C75 2.090 . S
C52 C577 1.735 1_554 S
C602 C96 2.194 . S
C86 C645 1.986 . S
C642 C192 1.608 . S
C164 C559 2.427 . S
C234 C581 2.378 . S
C598 C226 1.815 . S
C556 C187 1.858 . S
C156 C579 1.905 . S
C601 C242 2.073 . S
C644 C231 2.136 . S
C641 C127 2.041 . S
C495 C286 1.334 . S
C112 C517 2.193 . S
C265 C540 1.499 . S
C643 C309 2.298 . S
C580 C151 2.301 . S
C537 C104 2.418 1_545 S
C498 C135 1.213 . S
