# Generated by pormake.
# Topology ocu, (6,8)-cn, num edge types: 1
# Building blocks:
#     Node 0, Type 0, BuildingBlock: KUMBOL_clean_sbu_1, # of connection points: 6
#     Node 1, Type 0, BuildingBlock: KUMBOL_clean_sbu_1, # of connection points: 6
#     Node 2, Type 0, BuildingBlock: KUMBOL_clean_sbu_1, # of connection points: 6
#     Node 3, Type 0, BuildingBlock: KUMBOL_clean_sbu_1, # of connection points: 6
#     Node 4, Type 0, BuildingBlock: KUMBOL_clean_sbu_1, # of connection points: 6
#     Node 5, Type 0, BuildingBlock: KUMBOL_clean_sbu_1, # of connection points: 6
#     Node 6, Type 0, BuildingBlock: KUMBOL_clean_sbu_1, # of connection points: 6
#     Node 7, Type 0, BuildingBlock: KUMBOL_clean_sbu_1, # of connection points: 6
#     Node 8, Type 1, BuildingBlock: TAGTUT_clean_sbu_1, # of connection points: 8
#     Node 9, Type 1, BuildingBlock: TAGTUT_clean_sbu_1, # of connection points: 8
#     Node 10, Type 1, BuildingBlock: TAGTUT_clean_sbu_1, # of connection points: 8
#     Node 11, Type 1, BuildingBlock: TAGTUT_clean_sbu_1, # of connection points: 8
#     Node 12, Type 1, BuildingBlock: TAGTUT_clean_sbu_1, # of connection points: 8
#     Node 13, Type 1, BuildingBlock: TAGTUT_clean_sbu_1, # of connection points: 8
#     Edge 14, Type (0, 1), BuildingBlock: MIFKUJ_clean_linker_0, # of connection points: 2
#     Edge 15, Type (0, 1), BuildingBlock: MIFKUJ_clean_linker_0, # of connection points: 2
#     Edge 16, Type (0, 1), BuildingBlock: MIFKUJ_clean_linker_0, # of connection points: 2
#     Edge 17, Type (0, 1), BuildingBlock: MIFKUJ_clean_linker_0, # of connection points: 2
#     Edge 18, Type (0, 1), BuildingBlock: MIFKUJ_clean_linker_0, # of connection points: 2
#     Edge 19, Type (0, 1), BuildingBlock: MIFKUJ_clean_linker_0, # of connection points: 2
#     Edge 20, Type (0, 1), BuildingBlock: MIFKUJ_clean_linker_0, # of connection points: 2
#     Edge 21, Type (0, 1), BuildingBlock: MIFKUJ_clean_linker_0, # of connection points: 2
#     Edge 22, Type (0, 1), BuildingBlock: MIFKUJ_clean_linker_0, # of connection points: 2
#     Edge 23, Type (0, 1), BuildingBlock: MIFKUJ_clean_linker_0, # of connection points: 2
#     Edge 24, Type (0, 1), BuildingBlock: MIFKUJ_clean_linker_0, # of connection points: 2
#     Edge 25, Type (0, 1), BuildingBlock: MIFKUJ_clean_linker_0, # of connection points: 2
#     Edge 26, Type (0, 1), BuildingBlock: MIFKUJ_clean_linker_0, # of connection points: 2
#     Edge 27, Type (0, 1), BuildingBlock: MIFKUJ_clean_linker_0, # of connection points: 2
#     Edge 28, Type (0, 1), BuildingBlock: MIFKUJ_clean_linker_0, # of connection points: 2
#     Edge 29, Type (0, 1), BuildingBlock: MIFKUJ_clean_linker_0, # of connection points: 2
#     Edge 30, Type (0, 1), BuildingBlock: MIFKUJ_clean_linker_0, # of connection points: 2
#     Edge 31, Type (0, 1), BuildingBlock: MIFKUJ_clean_linker_0, # of connection points: 2
#     Edge 32, Type (0, 1), BuildingBlock: MIFKUJ_clean_linker_0, # of connection points: 2
#     Edge 33, Type (0, 1), BuildingBlock: MIFKUJ_clean_linker_0, # of connection points: 2
#     Edge 34, Type (0, 1), BuildingBlock: MIFKUJ_clean_linker_0, # of connection points: 2
#     Edge 35, Type (0, 1), BuildingBlock: MIFKUJ_clean_linker_0, # of connection points: 2
#     Edge 36, Type (0, 1), BuildingBlock: MIFKUJ_clean_linker_0, # of connection points: 2
#     Edge 37, Type (0, 1), BuildingBlock: MIFKUJ_clean_linker_0, # of connection points: 2
#     Edge 38, Type (0, 1), BuildingBlock: MIFKUJ_clean_linker_0, # of connection points: 2
#     Edge 39, Type (0, 1), BuildingBlock: MIFKUJ_clean_linker_0, # of connection points: 2
#     Edge 40, Type (0, 1), BuildingBlock: MIFKUJ_clean_linker_0, # of connection points: 2
#     Edge 41, Type (0, 1), BuildingBlock: MIFKUJ_clean_linker_0, # of connection points: 2
#     Edge 42, Type (0, 1), BuildingBlock: MIFKUJ_clean_linker_0, # of connection points: 2
#     Edge 43, Type (0, 1), BuildingBlock: MIFKUJ_clean_linker_0, # of connection points: 2
#     Edge 44, Type (0, 1), BuildingBlock: MIFKUJ_clean_linker_0, # of connection points: 2
#     Edge 45, Type (0, 1), BuildingBlock: MIFKUJ_clean_linker_0, # of connection points: 2
#     Edge 46, Type (0, 1), BuildingBlock: MIFKUJ_clean_linker_0, # of connection points: 2
#     Edge 47, Type (0, 1), BuildingBlock: MIFKUJ_clean_linker_0, # of connection points: 2
#     Edge 48, Type (0, 1), BuildingBlock: MIFKUJ_clean_linker_0, # of connection points: 2
#     Edge 49, Type (0, 1), BuildingBlock: MIFKUJ_clean_linker_0, # of connection points: 2
#     Edge 50, Type (0, 1), BuildingBlock: MIFKUJ_clean_linker_0, # of connection points: 2
#     Edge 51, Type (0, 1), BuildingBlock: MIFKUJ_clean_linker_0, # of connection points: 2
#     Edge 52, Type (0, 1), BuildingBlock: MIFKUJ_clean_linker_0, # of connection points: 2
#     Edge 53, Type (0, 1), BuildingBlock: MIFKUJ_clean_linker_0, # of connection points: 2
#     Edge 54, Type (0, 1), BuildingBlock: MIFKUJ_clean_linker_0, # of connection points: 2
#     Edge 55, Type (0, 1), BuildingBlock: MIFKUJ_clean_linker_0, # of connection points: 2
#     Edge 56, Type (0, 1), BuildingBlock: MIFKUJ_clean_linker_0, # of connection points: 2
#     Edge 57, Type (0, 1), BuildingBlock: MIFKUJ_clean_linker_0, # of connection points: 2
#     Edge 58, Type (0, 1), BuildingBlock: MIFKUJ_clean_linker_0, # of connection points: 2
#     Edge 59, Type (0, 1), BuildingBlock: MIFKUJ_clean_linker_0, # of connection points: 2
#     Edge 60, Type (0, 1), BuildingBlock: MIFKUJ_clean_linker_0, # of connection points: 2
#     Edge 61, Type (0, 1), BuildingBlock: MIFKUJ_clean_linker_0, # of connection points: 2
# Relax obj value: 0.057
# Max RMSD: 0.175
# Mean RMSD: 0.097
data_MOF--net-ocu--node1-KUMBOL_clean_sbu_1--node2-TAGTUT_clean_sbu_1--edge1-MIFKUJ_clean_linker_0
_symmetry_space_group_name_H-M    P1
_symmetry_Int_Tables_number       1
_symmetry_cell_setting            triclinic
loop_
_symmetry_equiv_pos_as_xyz
'x, y, z'
_cell_length_a     50.963748
_cell_length_b     48.662399
_cell_length_c     54.050104
_cell_angle_alpha  98.477592
_cell_angle_beta   83.79243
_cell_angle_gamma 110.09322
loop_
_atom_site_label
_atom_site_type_symbol
_atom_site_fract_x
_atom_site_fract_y
_atom_site_fract_z
_atom_type_partial_charge
C0 C 0.32131 0.32005 0.30394 0.0
C1 C 0.29575 0.32117 0.34441 0.0
C2 C 0.29912 0.30684 0.32029 0.0
C3 C 0.31402 0.34973 0.35138 0.0
C4 C 0.34037 0.34827 0.31122 0.0
C5 C 0.33618 0.36332 0.33475 0.0
N6 N 0.32534 0.30449 0.28169 0.0
C7 C 0.34907 0.31496 0.26673 0.0
C8 C 0.36365 0.36003 0.29502 0.0
C9 C 0.36823 0.3431 0.27284 0.0
Gd10 Gd 0.23251 0.24118 0.22247 0.0
Gd11 Gd 0.29121 0.25806 0.2728 0.0
N12 N 0.28146 0.27937 0.31293 0.0
C13 C 0.2747 0.30594 0.36111 0.0
C14 C 0.26153 0.26403 0.32941 0.0
C15 C 0.25754 0.27724 0.35363 0.0
H16 H 0.24869 0.24173 0.32373 0.0
H17 H 0.24154 0.26515 0.3666 0.0
H18 H 0.2665 0.28169 0.17689 0.0
H19 H 0.35356 0.30136 0.25035 0.0
H20 H 0.28216 0.27396 0.13303 0.0
H21 H 0.27229 0.31575 0.3801 0.0
H22 H 0.31152 0.36123 0.36976 0.0
H23 H 0.19542 0.1741 0.2396 0.0
H24 H 0.37875 0.38165 0.2999 0.0
H25 H 0.38676 0.3515 0.26068 0.0
H26 H 0.25376 0.16859 0.11392 0.0
H27 H 0.35049 0.3851 0.34058 0.0
H28 H 0.19999 0.11008 0.17745 0.0
H29 H 0.18319 0.12222 0.22098 0.0
N30 N 0.22022 0.19104 0.20749 0.0
C31 C 0.22898 0.18496 0.18326 0.0
C32 C 0.20346 0.16905 0.22086 0.0
C33 C 0.20569 0.13289 0.18564 0.0
C34 C 0.19624 0.13964 0.21025 0.0
C35 C 0.22206 0.15565 0.17175 0.0
H36 H 0.22652 0.1276 0.13765 0.0
N37 N 0.25194 0.23634 0.18172 0.0
C38 C 0.24539 0.20822 0.17011 0.0
C39 C 0.2684 0.22655 0.13151 0.0
C40 C 0.25413 0.20258 0.14481 0.0
C41 C 0.26452 0.25968 0.16851 0.0
C42 C 0.27301 0.2552 0.14333 0.0
O43 O 0.26009 0.28268 0.2845 0.0
O44 O 0.22549 0.27197 0.25622 0.0
O45 O 0.2138 0.26269 0.19939 0.0
O46 O 0.1882 0.22374 0.21713 0.0
O47 O 0.25162 0.21805 0.27432 0.0
O48 O 0.21464 0.22697 0.26005 0.0
O49 O 0.25978 0.21199 0.22321 0.0
O50 O 0.30332 0.24255 0.23298 0.0
O51 O 0.29355 0.21755 0.28352 0.0
O52 O 0.32738 0.25845 0.29082 0.0
O53 O 0.26753 0.28568 0.2228 0.0
O54 O 0.30577 0.27792 0.23629 0.0
C55 C 0.23745 0.28562 0.27714 0.0
C56 C 0.22502 0.21591 0.2758 0.0
C57 C 0.1634 0.2429 0.19198 0.0
C58 C 0.13571 0.26663 0.17399 0.0
C59 C 0.11529 0.21545 0.18201 0.0
C60 C 0.14022 0.21679 0.19122 0.0
C61 C 0.11297 0.24014 0.17359 0.0
C62 C 0.16124 0.26785 0.18291 0.0
C63 C 0.18904 0.24344 0.20293 0.0
C64 C 0.24736 0.17337 0.13335 0.0
C65 C 0.2316 0.14998 0.14682 0.0
H66 H 0.2748 0.22312 0.11189 0.0
C67 C 0.28717 0.22011 0.21884 0.0
C68 C 0.29481 0.29174 0.22328 0.0
C69 C 0.33912 0.21527 0.2844 0.0
C70 C 0.37152 0.19273 0.29583 0.0
C71 C 0.37066 0.20068 0.25256 0.0
C72 C 0.34951 0.21297 0.25936 0.0
C73 C 0.3818 0.19086 0.27067 0.0
C74 C 0.3499 0.20478 0.30258 0.0
C75 C 0.31839 0.23024 0.292 0.0
H76 H 0.09761 0.19519 0.18152 0.0
H77 H 0.14129 0.19725 0.19781 0.0
H78 H 0.09329 0.23847 0.16655 0.0
H79 H 0.17887 0.28819 0.18345 0.0
H80 H 0.37866 0.19904 0.23321 0.0
H81 H 0.34158 0.22107 0.24519 0.0
H82 H 0.39835 0.18159 0.26502 0.0
H83 H 0.34208 0.20676 0.322 0.0
C84 C 0.82986 0.23432 0.20352 0.0
C85 C 0.87354 0.27473 0.20985 0.0
C86 C 0.84634 0.25837 0.21849 0.0
C87 C 0.88333 0.26756 0.1853 0.0
C88 C 0.84021 0.2261 0.17934 0.0
C89 C 0.86666 0.24337 0.17005 0.0
N90 N 0.8046 0.21779 0.21326 0.0
C91 C 0.79042 0.19092 0.20102 0.0
C92 C 0.82418 0.20012 0.16565 0.0
C93 C 0.79946 0.18214 0.17677 0.0
Gd94 Gd 0.73501 0.27663 0.24415 0.0
Gd95 Gd 0.79032 0.23648 0.25322 0.0
N96 N 0.83596 0.26534 0.24183 0.0
C97 C 0.89015 0.29753 0.2263 0.0
C98 C 0.85237 0.28656 0.2584 0.0
C99 C 0.87966 0.30318 0.2508 0.0
H100 H 0.84398 0.29101 0.27722 0.0
H101 H 0.89247 0.32046 0.26375 0.0
H102 H 0.69726 0.23233 0.19653 0.0
H103 H 0.7722 0.17595 0.2099 0.0
H104 H 0.65122 0.19369 0.19157 0.0
H105 H 0.9112 0.31059 0.22038 0.0
H106 H 0.90399 0.28018 0.17813 0.0
H107 H 0.73101 0.31567 0.29924 0.0
H108 H 0.83135 0.19305 0.14698 0.0
H109 H 0.78761 0.16128 0.16686 0.0
H110 H 0.60366 0.19871 0.27283 0.0
H111 H 0.8748 0.2376 0.15139 0.0
H112 H 0.64996 0.27647 0.33501 0.0
H113 H 0.69678 0.31502 0.33557 0.0
N114 N 0.7039 0.27761 0.27899 0.0
C115 C 0.67787 0.25726 0.27766 0.0
C116 C 0.7106 0.29883 0.299 0.0
C117 C 0.66485 0.27675 0.31907 0.0
C118 C 0.69127 0.29854 0.31948 0.0
C119 C 0.65776 0.25591 0.29789 0.0
H120 H 0.61559 0.23249 0.3117 0.0
N121 N 0.69062 0.24162 0.23601 0.0
C122 C 0.67124 0.23826 0.25571 0.0
C123 C 0.63734 0.20035 0.23038 0.0
C124 C 0.64416 0.21734 0.25351 0.0
C125 C 0.68311 0.22718 0.21285 0.0
C126 C 0.65673 0.20572 0.20983 0.0
O127 O 0.80316 0.28088 0.23864 0.0
O128 O 0.76831 0.27539 0.21351 0.0
O129 O 0.70889 0.29501 0.22742 0.0
O130 O 0.74841 0.32363 0.24142 0.0
O131 O 0.78512 0.26995 0.28518 0.0
O132 O 0.77043 0.30383 0.26896 0.0
O133 O 0.73129 0.25354 0.27864 0.0
O134 O 0.74501 0.21348 0.26457 0.0
O135 O 0.80243 0.23197 0.28931 0.0
O136 O 0.80835 0.20289 0.25664 0.0
O137 O 0.7426 0.24314 0.21295 0.0
O138 O 0.75093 0.20906 0.23364 0.0
C139 C 0.79492 0.28506 0.2178 0.0
C140 C 0.78209 0.29596 0.28617 0.0
C141 C 0.73327 0.33533 0.20558 0.0
C142 C 0.71706 0.35553 0.17395 0.0
C143 C 0.76227 0.34839 0.16753 0.0
C144 C 0.75807 0.33743 0.19064 0.0
C145 C 0.74176 0.35716 0.15907 0.0
C146 C 0.713 0.34481 0.19729 0.0
C147 C 0.72719 0.32137 0.22886 0.0
C148 C 0.62446 0.21487 0.27409 0.0
C149 C 0.63122 0.23417 0.29621 0.0
H150 H 0.61678 0.18401 0.22792 0.0
C151 C 0.72863 0.22577 0.27895 0.0
C152 C 0.74082 0.21594 0.21494 0.0
C153 C 0.80079 0.18456 0.29555 0.0
C154 C 0.81262 0.15211 0.31947 0.0
C155 C 0.76389 0.14459 0.31308 0.0
C156 C 0.77228 0.16863 0.29932 0.0
C157 C 0.78386 0.13623 0.32299 0.0
C158 C 0.8208 0.17647 0.30576 0.0
C159 C 0.81026 0.20943 0.28071 0.0
H160 H 0.78131 0.34975 0.15601 0.0
H161 H 0.77397 0.3303 0.19668 0.0
H162 H 0.7452 0.36536 0.141 0.0
H163 H 0.6937 0.343 0.20863 0.0
H164 H 0.74186 0.13222 0.3159 0.0
H165 H 0.75662 0.17468 0.29154 0.0
H166 H 0.77676 0.11708 0.33308 0.0
H167 H 0.84275 0.18938 0.30312 0.0
C168 C 0.82061 0.80587 0.19024 0.0
C169 C 0.82211 0.77142 0.15312 0.0
C170 C 0.80861 0.77904 0.17593 0.0
C171 C 0.84853 0.7904 0.14557 0.0
C172 C 0.84652 0.82562 0.18203 0.0
C173 C 0.86072 0.81741 0.15999 0.0
N174 N 0.80619 0.81347 0.21125 0.0
C175 C 0.81527 0.84137 0.22356 0.0
C176 C 0.85696 0.85344 0.19573 0.0
C177 C 0.84104 0.86151 0.21635 0.0
Gd178 Gd 0.75956 0.72379 0.28072 0.0
Gd179 Gd 0.76424 0.77686 0.22235 0.0
N180 N 0.78318 0.76089 0.18378 0.0
C181 C 0.80835 0.74523 0.13831 0.0
C182 C 0.76869 0.73662 0.16849 0.0
C183 C 0.78131 0.72802 0.14583 0.0
H184 H 0.74771 0.72362 0.17411 0.0
H185 H 0.77014 0.70824 0.13415 0.0
H186 H 0.78519 0.77616 0.32739 0.0
H187 H 0.80271 0.84815 0.23909 0.0
H188 H 0.76833 0.79695 0.36781 0.0
H189 H 0.81809 0.73856 0.12071 0.0
H190 H 0.85939 0.78474 0.12827 0.0
H191 H 0.71026 0.65604 0.26609 0.0
H192 H 0.8768 0.8692 0.19004 0.0
H193 H 0.84847 0.88334 0.22653 0.0
H194 H 0.67254 0.73468 0.3781 0.0
H195 H 0.88077 0.83218 0.15356 0.0
H196 H 0.63964 0.64989 0.31795 0.0
H197 H 0.66215 0.62911 0.28062 0.0
N198 N 0.71424 0.69374 0.29322 0.0
C199 C 0.70297 0.70456 0.31489 0.0
C200 C 0.70041 0.66626 0.28169 0.0
C201 C 0.66062 0.6623 0.3113 0.0
C202 C 0.67323 0.65053 0.29018 0.0
C203 C 0.67572 0.68923 0.32431 0.0
H204 H 0.64371 0.68934 0.35415 0.0
N205 N 0.74563 0.74451 0.31942 0.0
C206 C 0.71926 0.73022 0.3286 0.0
C207 C 0.72633 0.76591 0.36562 0.0
C208 C 0.7087 0.74104 0.35175 0.0
C209 C 0.7636 0.76713 0.33374 0.0
C210 C 0.7541 0.7786 0.35679 0.0
O211 O 0.78698 0.74227 0.21451 0.0
O212 O 0.77706 0.70695 0.24296 0.0
O213 O 0.79721 0.72846 0.2989 0.0
O214 O 0.76169 0.68832 0.29931 0.0
O215 O 0.73122 0.74029 0.24027 0.0
O216 O 0.73647 0.69855 0.24725 0.0
O217 O 0.73943 0.76039 0.28867 0.0
O218 O 0.74805 0.79498 0.25991 0.0
O219 O 0.72787 0.7656 0.20075 0.0
O220 O 0.75355 0.81104 0.20805 0.0
O221 O 0.79473 0.75973 0.26403 0.0
O222 O 0.78877 0.80103 0.25569 0.0
C223 C 0.78891 0.71802 0.22177 0.0
C224 C 0.72677 0.71228 0.23352 0.0
C225 C 0.80595 0.68382 0.2979 0.0
C226 C 0.83835 0.66199 0.30975 0.0
C227 C 0.82115 0.64919 0.268 0.0
C228 C 0.80542 0.66792 0.27399 0.0
C229 C 0.83751 0.64613 0.28583 0.0
C230 C 0.8226 0.68099 0.31578 0.0
C231 C 0.78762 0.7016 0.30472 0.0
C232 C 0.68114 0.72649 0.3605 0.0
C233 C 0.6647 0.7007 0.34682 0.0
H234 H 0.71899 0.77487 0.38349 0.0
C235 C 0.7371 0.78436 0.28138 0.0
C236 C 0.79881 0.78781 0.26976 0.0
C237 C 0.70503 0.80071 0.20633 0.0
C238 C 0.66872 0.81884 0.19613 0.0
C239 C 0.66762 0.80358 0.23729 0.0
C240 C 0.69179 0.7964 0.23026 0.0
C241 C 0.65613 0.8147 0.22042 0.0
C242 C 0.69351 0.812 0.18928 0.0
C243 C 0.73042 0.79276 0.19906 0.0
H244 H 0.8201 0.63663 0.24967 0.0
H245 H 0.79225 0.66933 0.26019 0.0
H246 H 0.84928 0.63114 0.28122 0.0
H247 H 0.82272 0.69282 0.33444 0.0
H248 H 0.65766 0.80038 0.25588 0.0
H249 H 0.70002 0.78727 0.24346 0.0
H250 H 0.63743 0.82026 0.22648 0.0
H251 H 0.70348 0.81484 0.17063 0.0
C252 C 0.28917 0.71685 0.30903 0.0
C253 C 0.26292 0.66442 0.30436 0.0
C254 C 0.27386 0.69162 0.29446 0.0
C255 C 0.26638 0.66325 0.32956 0.0
C256 C 0.29396 0.7154 0.33395 0.0
C257 C 0.28183 0.68869 0.34433 0.0
N258 N 0.30107 0.74222 0.2983 0.0
C259 C 0.32022 0.76593 0.3106 0.0
C260 C 0.31176 0.7405 0.34735 0.0
C261 C 0.32542 0.76565 0.33543 0.0
Gd262 Gd 0.23242 0.77461 0.24771 0.0
Gd263 Gd 0.29025 0.74019 0.25671 0.0
N264 N 0.27062 0.69346 0.27022 0.0
C265 C 0.24952 0.6391 0.28842 0.0
C266 C 0.25911 0.66867 0.25418 0.0
C267 C 0.24803 0.64118 0.26312 0.0
H268 H 0.25824 0.67023 0.23458 0.0
H269 H 0.23839 0.62162 0.25051 0.0
H270 H 0.24172 0.8341 0.29188 0.0
H271 H 0.33175 0.78511 0.3013 0.0
H272 H 0.2607 0.88801 0.29346 0.0
H273 H 0.24092 0.61777 0.2953 0.0
H274 H 0.25784 0.64262 0.33761 0.0
H275 H 0.21736 0.74881 0.18869 0.0
H276 H 0.316 0.74028 0.36652 0.0
H277 H 0.34013 0.78477 0.34528 0.0
H278 H 0.27647 0.90534 0.20716 0.0
H279 H 0.28504 0.68725 0.36353 0.0
H280 H 0.24473 0.82177 0.14528 0.0
H281 H 0.22266 0.76821 0.14781 0.0
N282 N 0.23696 0.79087 0.20843 0.0
C283 C 0.24747 0.82047 0.20782 0.0
C284 C 0.22703 0.77217 0.18754 0.0
C285 C 0.24243 0.81336 0.16315 0.0
C286 C 0.22995 0.7831 0.16449 0.0
C287 C 0.25103 0.83251 0.18502 0.0
H288 H 0.26552 0.87286 0.16753 0.0
N289 N 0.24758 0.82641 0.2521 0.0
C290 C 0.25344 0.83873 0.23026 0.0
C291 C 0.26694 0.88743 0.25335 0.0
C292 C 0.26343 0.8696 0.23031 0.0
C293 C 0.24886 0.84372 0.27457 0.0
C294 C 0.25916 0.87441 0.27556 0.0
O295 O 0.24502 0.71872 0.2707 0.0
O296 O 0.23103 0.7582 0.28494 0.0
O297 O 0.19716 0.79036 0.25131 0.0
O298 O 0.19002 0.74357 0.24548 0.0
O299 O 0.26732 0.72199 0.22086 0.0
O300 O 0.22426 0.7275 0.23186 0.0
O301 O 0.26825 0.77638 0.21816 0.0
O302 O 0.30418 0.78443 0.24266 0.0
O303 O 0.3134 0.72729 0.22388 0.0
O304 O 0.33071 0.73611 0.26016 0.0
O305 O 0.25462 0.79114 0.28412 0.0
O306 O 0.29864 0.78777 0.27349 0.0
C307 C 0.23023 0.73136 0.2868 0.0
C308 C 0.24039 0.71474 0.21782 0.0
C309 C 0.15997 0.76029 0.27444 0.0
C310 C 0.15349 0.77515 0.31895 0.0
C311 C 0.1138 0.74367 0.29521 0.0
C312 C 0.13134 0.74467 0.27334 0.0
C313 C 0.12465 0.75928 0.31785 0.0
C314 C 0.17103 0.77374 0.29742 0.0
C315 C 0.17883 0.76406 0.25191 0.0
C316 C 0.26854 0.88168 0.20748 0.0
C317 C 0.26227 0.86318 0.1849 0.0
H318 H 0.27457 0.91123 0.25418 0.0
C319 C 0.2949 0.78854 0.22239 0.0
C320 C 0.28155 0.79941 0.28761 0.0
C321 C 0.33528 0.69517 0.23301 0.0
C322 C 0.33193 0.65062 0.20464 0.0
C323 C 0.33712 0.65183 0.24898 0.0
C324 C 0.33746 0.68093 0.25314 0.0
C325 C 0.33417 0.63661 0.22489 0.0
C326 C 0.33315 0.68008 0.20881 0.0
C327 C 0.33204 0.72437 0.23705 0.0
H328 H 0.09159 0.73178 0.29441 0.0
H329 H 0.12259 0.73367 0.25569 0.0
H330 H 0.11027 0.76 0.334 0.0
H331 H 0.1934 0.78485 0.29811 0.0
H332 H 0.33861 0.64086 0.26453 0.0
H333 H 0.33882 0.69194 0.27213 0.0
H334 H 0.3332 0.61379 0.2222 0.0
H335 H 0.3319 0.69123 0.19324 0.0
C336 C 0.33397 0.73172 0.69902 0.0
C337 C 0.37935 0.76399 0.71301 0.0
C338 C 0.35053 0.74943 0.71804 0.0
C339 C 0.39124 0.76098 0.68853 0.0
C340 C 0.34619 0.72779 0.67463 0.0
C341 C 0.3747 0.743 0.66939 0.0
N342 N 0.30641 0.71711 0.70461 0.0
C343 C 0.29146 0.69494 0.68779 0.0
C344 C 0.32967 0.70779 0.65644 0.0
C345 C 0.30236 0.69079 0.66322 0.0
Gd346 Gd 0.23968 0.77504 0.74626 0.0
Gd347 Gd 0.29053 0.72649 0.74652 0.0
N348 N 0.33831 0.75288 0.74142 0.0
C349 C 0.39529 0.78143 0.7327 0.0
C350 C 0.35375 0.76953 0.7608 0.0
C351 C 0.38245 0.78407 0.75669 0.0
H352 H 0.34386 0.77147 0.7794 0.0
H353 H 0.39467 0.7973 0.77195 0.0
H354 H 0.19078 0.7315 0.70813 0.0
H355 H 0.27143 0.6797 0.6933 0.0
H356 H 0.14073 0.70086 0.71139 0.0
H357 H 0.4175 0.79295 0.72959 0.0
H358 H 0.41327 0.77227 0.68426 0.0
H359 H 0.25401 0.81389 0.80367 0.0
H360 H 0.33825 0.70418 0.63749 0.0
H361 H 0.28996 0.67393 0.64974 0.0
H362 H 0.11356 0.71577 0.79889 0.0
H363 H 0.38432 0.74043 0.65071 0.0
H364 H 0.18227 0.78182 0.85331 0.0
H365 H 0.23126 0.81395 0.84605 0.0
N366 N 0.21983 0.77918 0.7874 0.0
C367 C 0.19211 0.76331 0.79052 0.0
C368 C 0.23337 0.79838 0.8067 0.0
C369 C 0.19246 0.78115 0.83468 0.0
C370 C 0.22018 0.79913 0.83071 0.0
C371 C 0.17788 0.76338 0.81438 0.0
H372 H 0.1384 0.74556 0.83547 0.0
N373 N 0.19222 0.74664 0.74703 0.0
C374 C 0.17785 0.74681 0.76976 0.0
C375 C 0.136 0.71278 0.75124 0.0
C376 C 0.1494 0.72949 0.77251 0.0
C377 C 0.17927 0.73081 0.72615 0.0
C378 C 0.15097 0.71358 0.72794 0.0
O379 O 0.30925 0.77248 0.73449 0.0
O380 O 0.27438 0.78018 0.71565 0.0
O381 O 0.2169 0.79414 0.72498 0.0
O382 O 0.24636 0.82157 0.75265 0.0
O383 O 0.28767 0.75588 0.78226 0.0
O384 O 0.27858 0.79456 0.76843 0.0
O385 O 0.22276 0.72924 0.75879 0.0
O386 O 0.25762 0.7231 0.77851 0.0
O387 O 0.31551 0.71018 0.76702 0.0
O388 O 0.28414 0.67968 0.74325 0.0
O389 O 0.24549 0.74815 0.71009 0.0
O390 O 0.25121 0.70821 0.72459 0.0
C391 C 0.30095 0.78425 0.71777 0.0
C392 C 0.28894 0.78362 0.78448 0.0
C393 C 0.22391 0.84743 0.7317 0.0
C394 C 0.20159 0.87355 0.70999 0.0
C395 C 0.23577 0.90057 0.74064 0.0
C396 C 0.23919 0.87449 0.74473 0.0
C397 C 0.21721 0.90018 0.72342 0.0
C398 C 0.20479 0.84697 0.71438 0.0
C399 C 0.22887 0.8204 0.73634 0.0
C400 C 0.13539 0.72908 0.79637 0.0
C401 C 0.14957 0.74598 0.81722 0.0
H402 H 0.11414 0.69921 0.75259 0.0
C403 C 0.23132 0.72067 0.77737 0.0
C404 C 0.2436 0.72029 0.70749 0.0
C405 C 0.29688 0.66101 0.77684 0.0
C406 C 0.31448 0.63685 0.80466 0.0
C407 C 0.26492 0.61972 0.79699 0.0
C408 C 0.26966 0.64152 0.78128 0.0
C409 C 0.28709 0.61747 0.80875 0.0
C410 C 0.31919 0.65849 0.78852 0.0
C411 C 0.30301 0.68276 0.75883 0.0
H412 H 0.24764 0.92124 0.75084 0.0
H413 H 0.25398 0.87564 0.75814 0.0
H414 H 0.21489 0.92083 0.72075 0.0
H415 H 0.19293 0.82632 0.70411 0.0
H416 H 0.24393 0.60464 0.80023 0.0
H417 H 0.25213 0.64288 0.77244 0.0
H418 H 0.28285 0.60031 0.82079 0.0
H419 H 0.34025 0.67341 0.78501 0.0
C420 C 0.32505 0.30545 0.68645 0.0
C421 C 0.3113 0.27753 0.646 0.0
C422 C 0.30487 0.28482 0.67159 0.0
C423 C 0.33845 0.29073 0.6356 0.0
C424 C 0.35224 0.31895 0.67594 0.0
C425 C 0.35888 0.31126 0.65054 0.0
N426 N 0.31801 0.3125 0.71102 0.0
C427 C 0.33673 0.33415 0.72559 0.0
C428 C 0.37188 0.34007 0.69117 0.0
C429 C 0.364 0.34788 0.71602 0.0
Gd430 Gd 0.26019 0.2281 0.7744 0.0
Gd431 Gd 0.27138 0.28789 0.72434 0.0
N432 N 0.27897 0.2717 0.68229 0.0
C433 C 0.2901 0.25746 0.63157 0.0
C434 C 0.25799 0.25303 0.66821 0.0
C435 C 0.26329 0.24524 0.6427 0.0
H436 H 0.23702 0.24491 0.67647 0.0
H437 H 0.24661 0.23027 0.63157 0.0
H438 H 0.29636 0.27357 0.82125 0.0
H439 H 0.33074 0.34159 0.74443 0.0
H440 H 0.28623 0.29658 0.86352 0.0
H441 H 0.29399 0.25181 0.61173 0.0
H442 H 0.34383 0.28542 0.61597 0.0
H443 H 0.19891 0.17826 0.75552 0.0
H444 H 0.39299 0.35092 0.68379 0.0
H445 H 0.37883 0.3648 0.72773 0.0
H446 H 0.18776 0.24939 0.87946 0.0
H447 H 0.37969 0.32136 0.64219 0.0
H448 H 0.13696 0.17786 0.81557 0.0
H449 H 0.15018 0.15928 0.77265 0.0
N450 N 0.21303 0.20843 0.78796 0.0
C451 C 0.20646 0.21827 0.81196 0.0
C452 C 0.19338 0.18715 0.77402 0.0
C453 C 0.15842 0.18645 0.80811 0.0
C454 C 0.16576 0.17601 0.78381 0.0
C455 C 0.17883 0.20776 0.82253 0.0
H456 H 0.15117 0.21149 0.85527 0.0
N457 N 0.25373 0.25017 0.81493 0.0
C458 C 0.22725 0.23994 0.82566 0.0
C459 C 0.24212 0.27237 0.86363 0.0
C460 C 0.22071 0.25118 0.85021 0.0
C461 C 0.27503 0.26885 0.82865 0.0
C462 C 0.26946 0.28098 0.85291 0.0
O463 O 0.29394 0.25434 0.71188 0.0
O464 O 0.2859 0.21893 0.73929 0.0
O465 O 0.28527 0.2152 0.79864 0.0
O466 O 0.24981 0.18251 0.77959 0.0
O467 O 0.23225 0.24859 0.728 0.0
O468 O 0.24307 0.20914 0.73686 0.0
O469 O 0.23108 0.2559 0.77705 0.0
O470 O 0.2578 0.30068 0.76433 0.0
O471 O 0.23663 0.29724 0.70967 0.0
O472 O 0.27751 0.33122 0.71567 0.0
O473 O 0.3019 0.26491 0.77141 0.0
O474 O 0.29159 0.30424 0.76088 0.0
C475 C 0.29735 0.23077 0.71855 0.0
C476 C 0.231 0.22096 0.72319 0.0
C477 C 0.27276 0.16318 0.8062 0.0
C478 C 0.29987 0.14121 0.82698 0.0
C479 C 0.25199 0.11297 0.81659 0.0
C480 C 0.25005 0.1367 0.80629 0.0
C481 C 0.27662 0.11512 0.8268 0.0
C482 C 0.2977 0.16556 0.81694 0.0
C483 C 0.26954 0.18764 0.79479 0.0
C484 C 0.19316 0.24084 0.86067 0.0
C485 C 0.17232 0.21918 0.84691 0.0
H486 H 0.2379 0.28159 0.88252 0.0
C487 C 0.23719 0.28471 0.77844 0.0
C488 C 0.30642 0.29331 0.77244 0.0
C489 C 0.24367 0.34789 0.70027 0.0
C490 C 0.21052 0.36512 0.68267 0.0
C491 C 0.25457 0.40007 0.69722 0.0
C492 C 0.26174 0.37724 0.70402 0.0
C493 C 0.22924 0.39414 0.68668 0.0
C494 C 0.21796 0.3418 0.68931 0.0
C495 C 0.25234 0.32467 0.70845 0.0
H496 H 0.23428 0.09276 0.81663 0.0
H497 H 0.23057 0.13431 0.79848 0.0
H498 H 0.27741 0.09628 0.83479 0.0
H499 H 0.3154 0.18582 0.81696 0.0
H500 H 0.26875 0.42251 0.70017 0.0
H501 H 0.28157 0.38276 0.71237 0.0
H502 H 0.22441 0.41238 0.68133 0.0
H503 H 0.20378 0.31933 0.68629 0.0
C504 C 0.79659 0.19998 0.78874 0.0
C505 C 0.78202 0.15148 0.76499 0.0
C506 C 0.78837 0.18226 0.76634 0.0
C507 C 0.78338 0.1389 0.78638 0.0
C508 C 0.79804 0.18742 0.81024 0.0
C509 C 0.79137 0.15681 0.80892 0.0
N510 N 0.8028 0.22956 0.78962 0.0
C511 C 0.81132 0.24793 0.81101 0.0
C512 C 0.80624 0.20605 0.83243 0.0
C513 C 0.81301 0.23646 0.83278 0.0
Gd514 Gd 0.7273 0.26379 0.746 0.0
Gd515 Gd 0.7987 0.24693 0.75266 0.0
N516 N 0.78767 0.19511 0.74574 0.0
C517 C 0.77527 0.13426 0.74198 0.0
C518 C 0.78413 0.17857 0.7228 0.0
C519 C 0.77677 0.14794 0.72072 0.0
H520 H 0.78804 0.18858 0.70571 0.0
H521 H 0.77331 0.13501 0.70253 0.0
H522 H 0.73808 0.32419 0.79036 0.0
H523 H 0.81698 0.27147 0.81113 0.0
H524 H 0.74967 0.3773 0.79137 0.0
H525 H 0.77022 0.11056 0.74019 0.0
H526 H 0.77868 0.11533 0.78556 0.0
H527 H 0.71059 0.23518 0.6875 0.0
H528 H 0.80757 0.19719 0.84933 0.0
H529 H 0.8196 0.25106 0.84977 0.0
H530 H 0.74411 0.39122 0.70651 0.0
H531 H 0.79257 0.14681 0.8252 0.0
H532 H 0.71811 0.30596 0.64563 0.0
H533 H 0.70781 0.25274 0.6475 0.0
N534 N 0.72309 0.27806 0.7076 0.0
C535 C 0.72829 0.30734 0.7072 0.0
C536 C 0.71551 0.25845 0.68667 0.0
C537 C 0.71947 0.29837 0.66316 0.0
C538 C 0.71371 0.26832 0.66411 0.0
C539 C 0.7268 0.31829 0.68484 0.0
H540 H 0.73177 0.35749 0.66775 0.0
N541 N 0.7373 0.31529 0.75049 0.0
C542 C 0.73589 0.32646 0.72912 0.0
C543 C 0.74722 0.37544 0.75163 0.0
C544 C 0.74126 0.35691 0.72911 0.0
C545 C 0.74076 0.33306 0.77281 0.0
C546 C 0.74652 0.36337 0.77362 0.0
O547 O 0.7624 0.22972 0.78088 0.0
O548 O 0.72733 0.22033 0.75524 0.0
O549 O 0.69271 0.25897 0.77368 0.0
O550 O 0.6845 0.24954 0.73444 0.0
O551 O 0.77888 0.23272 0.71464 0.0
O552 O 0.73159 0.22176 0.72539 0.0
O553 O 0.76423 0.28181 0.71839 0.0
O554 O 0.79766 0.29049 0.74521 0.0
O555 O 0.83367 0.25208 0.72525 0.0
O556 O 0.8414 0.26261 0.76451 0.0
O557 O 0.74684 0.27977 0.78401 0.0
O558 O 0.79443 0.28799 0.77553 0.0
C559 C 0.73589 0.21765 0.77636 0.0
C560 C 0.75238 0.21962 0.70945 0.0
C561 C 0.65612 0.27174 0.76123 0.0
C562 C 0.64658 0.31528 0.78218 0.0
C563 C 0.61218 0.27864 0.75611 0.0
C564 C 0.63002 0.26187 0.75076 0.0
C565 C 0.62022 0.3051 0.77211 0.0
C566 C 0.66445 0.29874 0.77647 0.0
C567 C 0.67421 0.2535 0.75717 0.0
C568 C 0.73992 0.36788 0.70682 0.0
C569 C 0.73277 0.34866 0.68476 0.0
H570 H 0.75135 0.39892 0.7524 0.0
C571 C 0.79042 0.29389 0.72384 0.0
C572 C 0.77306 0.29082 0.79045 0.0
C573 C 0.87053 0.24062 0.73889 0.0
C574 C 0.88046 0.19648 0.72011 0.0
C575 C 0.91417 0.23432 0.74602 0.0
C576 C 0.89631 0.2511 0.74996 0.0
C577 C 0.90649 0.20724 0.73083 0.0
C578 C 0.86255 0.2131 0.72448 0.0
C579 C 0.85205 0.25839 0.74201 0.0
H580 H 0.59188 0.27081 0.74828 0.0
H581 H 0.62329 0.24108 0.73884 0.0
H582 H 0.60589 0.3174 0.77684 0.0
H583 H 0.6843 0.30631 0.78511 0.0
H584 H 0.9342 0.24257 0.75436 0.0
H585 H 0.90269 0.27228 0.76137 0.0
H586 H 0.92086 0.19488 0.72727 0.0
H587 H 0.84286 0.20509 0.71552 0.0
C588 C 0.81626 0.81983 0.81147 0.0
C589 C 0.78518 0.81944 0.84891 0.0
C590 C 0.79198 0.80586 0.8254 0.0
C591 C 0.80287 0.8475 0.85802 0.0
C592 C 0.83432 0.84777 0.82079 0.0
C593 C 0.82735 0.86164 0.844 0.0
N594 N 0.82255 0.80579 0.78914 0.0
C595 C 0.84719 0.81785 0.77578 0.0
C596 C 0.85907 0.86079 0.80667 0.0
C597 C 0.86562 0.84564 0.78417 0.0
Gd598 Gd 0.73664 0.74484 0.72265 0.0
Gd599 Gd 0.78975 0.75959 0.77681 0.0
N600 N 0.7748 0.77907 0.81578 0.0
C601 C 0.7608 0.80435 0.86255 0.0
C602 C 0.75185 0.7636 0.82952 0.0
C603 C 0.74421 0.77618 0.85291 0.0
H604 H 0.73932 0.74176 0.82228 0.0
H605 H 0.72562 0.76412 0.86352 0.0
H606 H 0.78892 0.77602 0.68141 0.0
H607 H 0.85294 0.80588 0.75883 0.0
H608 H 0.81279 0.76041 0.64256 0.0
H609 H 0.75479 0.81408 0.88065 0.0
H610 H 0.7979 0.85838 0.87598 0.0
H611 H 0.68254 0.68463 0.73693 0.0
H612 H 0.87348 0.88224 0.81319 0.0
H613 H 0.885 0.85524 0.77341 0.0
H614 H 0.75902 0.65857 0.62264 0.0
H615 H 0.84092 0.88317 0.85139 0.0
H616 H 0.68215 0.61423 0.67928 0.0
H617 H 0.66211 0.6328 0.71928 0.0
N618 N 0.71482 0.69515 0.70791 0.0
C619 C 0.72566 0.68566 0.68546 0.0
C620 C 0.69202 0.67672 0.71985 0.0
C621 C 0.69139 0.63702 0.68704 0.0
C622 C 0.6801 0.64738 0.70969 0.0
C623 C 0.71437 0.6562 0.67459 0.0
H624 H 0.71816 0.62412 0.64329 0.0
N625 N 0.76 0.73331 0.685 0.0
C626 C 0.74878 0.70526 0.67366 0.0
C627 C 0.7846 0.71568 0.63989 0.0
C628 C 0.76104 0.69565 0.6509 0.0
C629 C 0.78187 0.75333 0.67361 0.0
C630 C 0.79494 0.74467 0.65123 0.0
O631 O 0.761 0.78763 0.78389 0.0
O632 O 0.72279 0.76779 0.75901 0.0
O633 O 0.73041 0.77472 0.69934 0.0
O634 O 0.69648 0.73527 0.70732 0.0
O635 O 0.75155 0.71834 0.77245 0.0
O636 O 0.7152 0.72826 0.75859 0.0
O637 O 0.76309 0.71465 0.72274 0.0
O638 O 0.80498 0.74439 0.73795 0.0
O639 O 0.78881 0.72071 0.79266 0.0
O640 O 0.82601 0.75926 0.79424 0.0
O641 O 0.77112 0.78936 0.72807 0.0
O642 O 0.80782 0.7791 0.74114 0.0
C643 C 0.73591 0.78585 0.77802 0.0
C644 C 0.72502 0.71616 0.77394 0.0
C645 C 0.68471 0.77703 0.70382 0.0
C646 C 0.65982 0.80716 0.69175 0.0
C647 C 0.65494 0.79602 0.73466 0.0
C648 C 0.67287 0.77963 0.72835 0.0
C649 C 0.64837 0.80968 0.71643 0.0
C650 C 0.67804 0.79075 0.68541 0.0
C651 C 0.70384 0.75992 0.69757 0.0
C652 C 0.74977 0.66633 0.64007 0.0
C653 C 0.72651 0.6467 0.65185 0.0
H654 H 0.79478 0.70907 0.62253 0.0
C655 C 0.79051 0.72174 0.72283 0.0
C656 C 0.7981 0.79536 0.72988 0.0
C657 C 0.83229 0.71336 0.79109 0.0
C658 C 0.85878 0.68417 0.80229 0.0
C659 C 0.85781 0.69093 0.7587 0.0
C660 C 0.84072 0.70811 0.76583 0.0
C661 C 0.86679 0.67897 0.77675 0.0
C662 C 0.84132 0.70142 0.8093 0.0
C663 C 0.81478 0.73197 0.79864 0.0
H664 H 0.6459 0.79789 0.75364 0.0
H665 H 0.67724 0.76857 0.74248 0.0
H666 H 0.6339 0.8218 0.72143 0.0
H667 H 0.68695 0.78872 0.66636 0.0
H668 H 0.86444 0.68726 0.73917 0.0
H669 H 0.83441 0.71761 0.75169 0.0
H670 H 0.88056 0.66624 0.77072 0.0
H671 H 0.83475 0.70556 0.82885 0.0
C672 C 0.92396 0.04396 0.52146 0.0
C673 C 0.9753 0.05004 0.45204 0.0
C674 C 0.97477 0.94234 0.46823 0.0
Mg675 Mg 0.98798 0.06292 0.50789 0.0
O676 O 0.97922 0.02258 0.50904 0.0
Mg677 Mg 0.94914 0.99404 0.48815 0.0
Mg678 Mg 1.00826 0.0036 0.50117 0.0
O679 O 0.03713 0.98422 0.49345 0.0
Mg680 Mg 0.02645 0.94435 0.49862 0.0
Mg681 Mg 0.06742 0.0136 0.51376 0.0
C682 C 0.04043 0.06457 0.53636 0.0
C683 C 0.05933 0.045 0.46724 0.0
O684 O 0.92008 0.01921 0.50773 0.0
O685 O 0.94819 0.06326 0.52487 0.0
O686 O 0.96049 0.0238 0.45632 0.0
O687 O 0.9896 0.06872 0.46893 0.0
O688 O 0.02513 0.07839 0.53014 0.0
O689 O 0.03567 0.03705 0.52927 0.0
C690 C 0.95666 0.96286 0.53474 0.0
O691 O 0.98342 0.97338 0.53123 0.0
O692 O 0.94022 0.96737 0.52072 0.0
O693 O 0.09524 0.98721 0.49532 0.0
O694 O 0.06628 0.94089 0.48429 0.0
O695 O 0.0583 0.98511 0.54618 0.0
C696 C 0.09076 0.96042 0.48565 0.0
O697 O 0.02649 0.94063 0.5383 0.0
O698 O 0.98865 0.92808 0.47633 0.0
C699 C 0.04383 0.95984 0.55282 0.0
O700 O 0.98103 0.97034 0.47327 0.0
O701 O 0.03265 0.03383 0.47085 0.0
O702 O 0.0759 0.04037 0.48105 0.0
C703 C 0.4487 0.06767 0.04887 0.0
C704 C 0.47873 0.06954 0.97074 0.0
C705 C 0.46398 0.9527 0.97053 0.0
Mg706 Mg 0.50661 0.07202 0.01971 0.0
O707 O 0.49218 0.0307 0.01805 0.0
Mg708 Mg 0.45424 0.01081 0.00442 0.0
Mg709 Mg 0.51323 0.00465 0.99925 0.0
O710 O 0.53412 0.97849 0.98039 0.0
Mg711 Mg 0.51942 0.93724 0.98008 0.0
Mg712 Mg 0.57235 0.99862 0.99348 0.0
C713 C 0.56211 0.05647 0.02921 0.0
C714 C 0.56083 0.04284 0.96006 0.0
O715 O 0.4376 0.04293 0.03523 0.0
O716 O 0.4751 0.08192 0.04682 0.0
O717 O 0.46197 0.04422 0.97558 0.0
O718 O 0.49908 0.08422 0.98447 0.0
O719 O 0.54872 0.07484 0.02968 0.0
O720 O 0.55153 0.02895 0.02109 0.0
C721 C 0.46527 0.9661 0.03828 0.0
O722 O 0.49089 0.97249 0.02938 0.0
O723 O 0.44864 0.97803 0.03179 0.0
O724 O 0.58837 0.96573 0.96291 0.0
O725 O 0.55043 0.92665 0.95242 0.0
O726 O 0.56564 0.9661 0.02169 0.0
C727 C 0.57686 0.9407 0.94977 0.0
O728 O 0.52742 0.92666 0.01607 0.0
O729 O 0.47692 0.93404 0.9707 0.0
C730 C 0.54912 0.94154 0.02812 0.0
O731 O 0.47517 0.98045 0.97737 0.0
O732 O 0.53533 0.03669 0.96916 0.0
O733 O 0.57751 0.03087 0.96627 0.0
C734 C 0.94896 0.56598 0.04723 0.0
C735 C 0.9811 0.56674 0.96996 0.0
C736 C 0.96307 0.44911 0.96916 0.0
Mg737 Mg 1.00704 0.56864 0.01944 0.0
O738 O 0.99201 0.52737 0.01731 0.0
Mg739 Mg 0.9542 0.50813 0.00325 0.0
Mg740 Mg 0.01283 0.50142 0.99813 0.0
O741 O 0.03357 0.4752 0.97916 0.0
Mg742 Mg 0.01822 0.43422 0.98023 0.0
Mg743 Mg 0.07191 0.4951 0.99235 0.0
C744 C 0.06235 0.55313 0.02813 0.0
C745 C 0.06006 0.53939 0.95861 0.0
O746 O 0.93784 0.54108 0.03376 0.0
O747 O 0.97548 0.57973 0.04565 0.0
O748 O 0.96333 0.54176 0.97444 0.0
O749 O 1.00117 0.58073 0.9841 0.0
O750 O 0.04908 0.57163 0.02907 0.0
O751 O 0.05151 0.52562 0.02005 0.0
C752 C 0.96506 0.46328 0.03692 0.0
O753 O 0.9906 0.46963 0.02791 0.0
O754 O 0.94823 0.47515 0.03064 0.0
O755 O 0.08739 0.46189 0.96215 0.0
O756 O 0.04938 0.42188 0.95411 0.0
O757 O 0.06528 0.4622 0.02107 0.0
C758 C 0.07569 0.43596 0.95052 0.0
O759 O 0.02503 0.42486 0.01691 0.0
O760 O 0.97604 0.43061 0.96982 0.0
C761 C 0.0475 0.43854 0.02822 0.0
O762 O 0.97424 0.47696 0.97609 0.0
O763 O 0.03483 0.53344 0.96831 0.0
O764 O 0.07707 0.52758 0.9645 0.0
C765 C 0.4565 0.56504 0.02592 0.0
C766 C 0.48394 0.55645 0.95061 0.0
C767 C 0.4811 0.44837 0.96921 0.0
Mg768 Mg 0.50841 0.57327 0.00455 0.0
O769 O 0.49193 0.53174 0.00897 0.0
Mg770 Mg 0.45997 0.50207 0.98849 0.0
Mg771 Mg 0.51794 0.50865 0.00213 0.0
O772 O 0.54402 0.48624 0.99402 0.0
Mg773 Mg 0.53234 0.44577 0.99606 0.0
Mg774 Mg 0.57628 0.51332 0.01297 0.0
C775 C 0.55955 0.56925 0.03057 0.0
C776 C 0.56921 0.54542 0.9665 0.0
O777 O 0.45783 0.54214 0.01228 0.0
O778 O 0.47837 0.5876 0.02853 0.0
O779 O 0.47021 0.53024 0.95575 0.0
O780 O 0.5006 0.57562 0.96585 0.0
O781 O 0.54862 0.58521 0.02114 0.0
O782 O 0.54862 0.54113 0.02887 0.0
C783 C 0.46484 0.47166 0.03721 0.0
O784 O 0.49168 0.48093 0.0338 0.0
O785 O 0.4495 0.4766 0.02235 0.0
O786 O 0.60109 0.48435 0.9932 0.0
O787 O 0.57049 0.44057 0.97877 0.0
O788 O 0.56433 0.48446 0.04574 0.0
C789 C 0.59554 0.45863 0.98087 0.0
O790 O 0.53158 0.44114 0.03495 0.0
O791 O 0.49394 0.43227 0.97577 0.0
C792 C 0.54791 0.45908 0.05089 0.0
O793 O 0.48911 0.47629 0.97485 0.0
O794 O 0.54269 0.536 0.97124 0.0
O795 O 0.5859 0.53996 0.97966 0.0
C796 C 0.95067 0.56748 0.55092 0.0
C797 C 0.97902 0.56318 0.47205 0.0
C798 C 0.96225 0.44999 0.47268 0.0
Mg799 Mg 1.00786 0.5692 0.5207 0.0
O800 O 0.99295 0.52807 0.52134 0.0
Mg801 Mg 0.95438 0.50813 0.50863 0.0
Mg802 Mg 0.01281 0.50162 0.50105 0.0
O803 O 0.0325 0.47516 0.48066 0.0
Mg804 Mg 0.01773 0.43385 0.47907 0.0
Mg805 Mg 0.0712 0.49471 0.4925 0.0
C806 C 0.06386 0.55364 0.52705 0.0
C807 C 0.05799 0.5386 0.45923 0.0
O808 O 0.93911 0.54184 0.53874 0.0
O809 O 0.97707 0.58147 0.54771 0.0
O810 O 0.96152 0.53943 0.47918 0.0
O811 O 1.00044 0.57814 0.48434 0.0
O812 O 0.0509 0.57246 0.52813 0.0
O813 O 0.05225 0.52585 0.52079 0.0
C814 C 0.96683 0.46397 0.54189 0.0
O815 O 0.9919 0.46968 0.53167 0.0
O816 O 0.94998 0.4763 0.53648 0.0
O817 O 0.08612 0.4616 0.46169 0.0
O818 O 0.04807 0.42286 0.45108 0.0
O819 O 0.06433 0.46215 0.52174 0.0
C820 C 0.0745 0.43674 0.44845 0.0
O821 O 0.02615 0.42282 0.51419 0.0
O822 O 0.97506 0.43096 0.471 0.0
C823 C 0.04712 0.43731 0.52724 0.0
O824 O 0.97368 0.4773 0.48087 0.0
O825 O 0.03357 0.53373 0.47065 0.0
O826 O 0.07502 0.52616 0.46403 0.0
C827 C 0.45728 0.07604 0.54799 0.0
C828 C 0.48376 0.0695 0.46915 0.0
C829 C 0.46729 0.95508 0.47352 0.0
Mg830 Mg 0.5139 0.07649 0.51764 0.0
O831 O 0.49847 0.03559 0.51958 0.0
Mg832 Mg 0.4598 0.01532 0.50727 0.0
Mg833 Mg 0.51811 0.00813 0.5011 0.0
O834 O 0.53778 0.98091 0.48221 0.0
Mg835 Mg 0.52268 0.93992 0.48231 0.0
Mg836 Mg 0.57652 1.00096 0.49393 0.0
C837 C 0.5696 0.06159 0.52702 0.0
C838 C 0.56298 0.0422 0.45828 0.0
O839 O 0.44534 0.05009 0.53652 0.0
O840 O 0.48362 0.08984 0.54426 0.0
O841 O 0.46642 0.0458 0.47662 0.0
O842 O 0.50556 0.08442 0.48104 0.0
O843 O 0.55678 0.08028 0.52658 0.0
O844 O 0.55797 0.03365 0.52101 0.0
C845 C 0.47196 0.9731 0.543 0.0
O846 O 0.49698 0.97798 0.53285 0.0
O847 O 0.45547 0.98523 0.53654 0.0
O848 O 0.59125 0.96631 0.46454 0.0
O849 O 0.55304 0.92701 0.45566 0.0
O850 O 0.56936 0.97012 0.52458 0.0
C851 C 0.57946 0.94065 0.45252 0.0
O852 O 0.53026 0.93149 0.5186 0.0
O853 O 0.48029 0.93642 0.47313 0.0
C854 C 0.55154 0.94614 0.53123 0.0
O855 O 0.47864 0.98278 0.48076 0.0
O856 O 0.53865 0.03791 0.46966 0.0
O857 O 0.58019 0.03047 0.46395 0.0
H858 H 0.23671 0.18827 0.31185 0.0
H859 H 0.20389 0.15836 0.34153 0.0
H860 H 0.13481 0.16809 0.30821 0.0
H861 H 0.1677 0.19988 0.27965 0.0
H862 H 0.12296 0.1707 0.35464 0.0
H863 H 0.15238 0.10217 0.29808 0.0
H864 H 0.18506 0.08081 0.27214 0.0
H865 H 0.22087 0.07399 0.33841 0.0
H866 H 0.18874 0.09581 0.36472 0.0
H867 H 0.03319 0.05535 0.429 0.0
H868 H 0.05583 0.08225 0.39305 0.0
H869 H 0.13659 0.10142 0.42208 0.0
H870 H 0.11451 0.07495 0.45762 0.0
H871 H 0.135 0.07868 0.37222 0.0
H872 H 0.10426 0.15346 0.42712 0.0
H873 H 0.06661 0.16981 0.44998 0.0
H874 H 0.0267 0.15765 0.38124 0.0
H875 H 0.06395 0.14086 0.35806 0.0
C876 C 0.21456 0.18421 0.31086 0.0
C877 C 0.20498 0.19663 0.29332 0.0
C878 C 0.19569 0.16677 0.32774 0.0
C879 C 0.16666 0.16028 0.32688 0.0
C880 C 0.15702 0.17263 0.30934 0.0
C881 C 0.17594 0.19072 0.29287 0.0
C882 C 0.14656 0.14097 0.34452 0.0
C883 C 0.12543 0.15035 0.35811 0.0
C884 C 0.14909 0.11405 0.34901 0.0
C885 C 0.16831 0.10078 0.33332 0.0
C886 C 0.16735 0.09627 0.30709 0.0
C887 C 0.18577 0.08408 0.29233 0.0
C888 C 0.20506 0.07608 0.30362 0.0
C889 C 0.20593 0.08021 0.3297 0.0
C890 C 0.18762 0.09246 0.34454 0.0
C891 C 0.05573 0.06555 0.42781 0.0
C892 C 0.07198 0.06283 0.44621 0.0
C893 C 0.06864 0.08088 0.40724 0.0
C894 C 0.09794 0.09374 0.40484 0.0
C895 C 0.114 0.09148 0.42342 0.0
C896 C 0.10124 0.07634 0.44383 0.0
C897 C 0.11258 0.10921 0.38295 0.0
C898 C 0.13251 0.09891 0.36843 0.0
C899 C 0.10834 0.13468 0.37713 0.0
C900 C 0.08668 0.14576 0.39095 0.0
C901 C 0.08739 0.15422 0.41693 0.0
C902 C 0.06614 0.16354 0.42993 0.0
C903 C 0.04425 0.16472 0.41708 0.0
C904 C 0.04365 0.15673 0.39117 0.0
C905 C 0.06482 0.14733 0.3781 0.0
H906 H 0.02775 0.17184 0.42719 0.0
H907 H 0.2193 0.06663 0.29216 0.0
H908 H 0.86461 0.1536 0.29843 0.0
H909 H 0.89979 0.13987 0.31603 0.0
H910 H 0.84379 0.11516 0.38094 0.0
H911 H 0.80929 0.13075 0.36433 0.0
H912 H 0.89328 0.14281 0.39563 0.0
H913 H 0.85441 0.06376 0.33116 0.0
H914 H 0.84135 0.0415 0.28828 0.0
H915 H 0.92751 0.07416 0.26126 0.0
H916 H 0.94103 0.09693 0.30394 0.0
H917 H 0.94118 0.01869 0.41461 0.0
H918 H 0.92223 0.03931 0.38535 0.0
H919 H 0.98029 0.12578 0.40729 0.0
H920 H 0.99907 0.10544 0.43723 0.0
H921 H 0.93429 0.07089 0.34708 0.0
H922 H 0.94482 0.17323 0.41852 0.0
H923 H 0.95253 0.18921 0.46346 0.0
H924 H 0.91325 0.09985 0.47969 0.0
H925 H 0.90501 0.08347 0.43492 0.0
C926 C 0.85989 0.1457 0.31665 0.0
C927 C 0.834 0.14329 0.32993 0.0
C928 C 0.87996 0.1375 0.32654 0.0
C929 C 0.87436 0.12617 0.3497 0.0
C930 C 0.84862 0.12386 0.36304 0.0
C931 C 0.82872 0.13243 0.35333 0.0
C932 C 0.89509 0.11647 0.36014 0.0
C933 C 0.90239 0.12728 0.38488 0.0
C934 C 0.90682 0.09595 0.3463 0.0
C935 C 0.8987 0.08227 0.32067 0.0
C936 C 0.87054 0.06637 0.31603 0.0
C937 C 0.86306 0.05364 0.29177 0.0
C938 C 0.88358 0.05648 0.27204 0.0
C939 C 0.91163 0.07201 0.27655 0.0
C940 C 0.91922 0.08482 0.30076 0.0
C941 C 0.9506 0.04197 0.41275 0.0
C942 C 0.97103 0.06057 0.4289 0.0
C943 C 0.93976 0.05372 0.39586 0.0
C944 C 0.9493 0.0842 0.39466 0.0
C945 C 0.97225 0.10225 0.40832 0.0
C946 C 0.983 0.09055 0.42541 0.0
C947 C 0.9323 0.09716 0.3825 0.0
C948 C 0.92563 0.08694 0.35754 0.0
C949 C 0.92031 0.11743 0.39638 0.0
C950 C 0.92455 0.12716 0.4234 0.0
C951 C 0.93773 0.15706 0.43172 0.0
C952 C 0.94221 0.16617 0.45714 0.0
C953 C 0.93345 0.14555 0.47441 0.0
C954 C 0.92008 0.11579 0.4663 0.0
C955 C 0.91549 0.10659 0.44091 0.0
H956 H 0.93697 0.15264 0.49407 0.0
H957 H 0.87775 0.04658 0.25328 0.0
H958 H 0.79413 0.83698 0.29818 0.0
H959 H 0.82042 0.86389 0.33473 0.0
H960 H 0.86739 0.80387 0.325 0.0
H961 H 0.84103 0.77678 0.28863 0.0
H962 H 0.82679 0.84255 0.3803 0.0
H963 H 0.93569 0.84821 0.33458 0.0
H964 H 0.95979 0.84859 0.29245 0.0
H965 H 0.90486 0.88737 0.26733 0.0
H966 H 0.8808 0.88772 0.30942 0.0
H967 H 0.94596 0.88283 0.46074 0.0
H968 H 0.91094 0.85723 0.42975 0.0
H969 H 0.91727 0.94059 0.40691 0.0
H970 H 0.95159 0.96627 0.43781 0.0
H971 H 0.92938 0.89243 0.36852 0.0
H972 H 0.86311 0.91636 0.43082 0.0
H973 H 0.8381 0.91703 0.47244 0.0
H974 H 0.80667 0.8224 0.46384 0.0
H975 H 0.83196 0.82121 0.42231 0.0
C976 C 0.81012 0.82964 0.30385 0.0
C977 C 0.81549 0.80475 0.29082 0.0
C978 C 0.82488 0.84481 0.32479 0.0
C979 C 0.84569 0.83572 0.33248 0.0
C980 C 0.85131 0.81109 0.31929 0.0
C981 C 0.8363 0.79568 0.2986 0.0
C982 C 0.86243 0.85266 0.35369 0.0
C983 C 0.84922 0.85346 0.37779 0.0
C984 C 0.89156 0.86709 0.35024 0.0
C985 C 0.9063 0.8677 0.32505 0.0
C986 C 0.92888 0.85696 0.32009 0.0
C987 C 0.94252 0.85704 0.29622 0.0
C988 C 0.93381 0.86791 0.2772 0.0
C989 C 0.91153 0.87887 0.28205 0.0
C990 C 0.89787 0.87891 0.3059 0.0
C991 C 0.93951 0.89569 0.4494 0.0
C992 C 0.9516 0.92656 0.4517 0.0
C993 C 0.91948 0.88108 0.43184 0.0
C994 C 0.91161 0.89716 0.41624 0.0
C995 C 0.92302 0.92792 0.41897 0.0
C996 C 0.94261 0.94252 0.4367 0.0
C997 C 0.89388 0.88195 0.39521 0.0
C998 C 0.90697 0.88143 0.37108 0.0
C999 C 0.86467 0.86806 0.39866 0.0
C1000 C 0.8498 0.86871 0.42369 0.0
C1001 C 0.85122 0.8957 0.43797 0.0
C1002 C 0.8369 0.89618 0.4615 0.0
C1003 C 0.8209 0.86977 0.47083 0.0
C1004 C 0.81914 0.84284 0.45662 0.0
C1005 C 0.83346 0.84225 0.4331 0.0
H1006 H 0.80979 0.87019 0.48904 0.0
H1007 H 0.94437 0.8679 0.25872 0.0
H1008 H 0.13763 0.77178 0.3692 0.0
H1009 H 0.14886 0.81302 0.40273 0.0
H1010 H 0.20728 0.86824 0.35179 0.0
H1011 H 0.19493 0.82877 0.3181 0.0
H1012 H 0.19596 0.85842 0.42622 0.0
H1013 H 0.18858 0.92692 0.35265 0.0
H1014 H 0.17199 0.92002 0.31015 0.0
H1015 H 0.10729 0.83963 0.3262 0.0
H1016 H 0.12326 0.84634 0.36886 0.0
H1017 H 0.1378 0.99225 0.46014 0.0
H1018 H 0.17341 0.97316 0.43711 0.0
H1019 H 0.13267 0.8898 0.46638 0.0
H1020 H 0.09718 0.90851 0.48883 0.0
H1021 H 0.15414 0.92758 0.40123 0.0
H1022 H 0.17698 0.8547 0.4694 0.0
H1023 H 0.19412 0.8621 0.51159 0.0
H1024 H 0.23009 0.9552 0.50757 0.0
H1025 H 0.21365 0.9484 0.46518 0.0
C1026 C 0.15315 0.79257 0.36524 0.0
C1027 C 0.16484 0.79691 0.34076 0.0
C1028 C 0.15992 0.8159 0.3845 0.0
C1029 C 0.17857 0.8436 0.37944 0.0
C1030 C 0.19274 0.84697 0.3559 0.0
C1031 C 0.18565 0.82405 0.33663 0.0
C1032 C 0.17844 0.87001 0.39651 0.0
C1033 C 0.18726 0.87384 0.42081 0.0
C1034 C 0.16784 0.89059 0.38898 0.0
C1035 C 0.15728 0.88701 0.36378 0.0
C1036 C 0.17071 0.9079 0.34712 0.0
C1037 C 0.16144 0.904 0.32301 0.0
C1038 C 0.13865 0.87936 0.31546 0.0
C1039 C 0.12496 0.85867 0.33205 0.0
C1040 C 0.1341 0.86253 0.35619 0.0
C1041 C 0.1371 0.97017 0.46213 0.0
C1042 C 0.11468 0.95147 0.47566 0.0
C1043 C 0.15745 0.95944 0.44919 0.0
C1044 C 0.15573 0.93026 0.45028 0.0
C1045 C 0.13466 0.91258 0.46566 0.0
C1046 C 0.11414 0.92306 0.47814 0.0
C1047 C 0.17096 0.91558 0.43138 0.0
C1048 C 0.16462 0.91345 0.40645 0.0
C1049 C 0.18417 0.89694 0.43835 0.0
C1050 C 0.194 0.901 0.46399 0.0
C1051 C 0.18873 0.87675 0.47737 0.0
C1052 C 0.19829 0.88085 0.50139 0.0
C1053 C 0.21316 0.9091 0.51226 0.0
C1054 C 0.2185 0.93333 0.49915 0.0
C1055 C 0.20902 0.92936 0.47514 0.0
H1056 H 0.22055 0.91221 0.53084 0.0
H1057 H 0.13157 0.87633 0.29676 0.0
H1058 H 0.14583 0.84077 0.70556 0.0
H1059 H 0.11278 0.85038 0.68072 0.0
H1060 H 0.18091 0.91909 0.649 0.0
H1061 H 0.2137 0.90952 0.67345 0.0
H1062 H 0.13844 0.93836 0.67124 0.0
H1063 H 0.14837 0.85556 0.61372 0.0
H1064 H 0.14537 0.80368 0.60209 0.0
H1065 H 0.05736 0.77545 0.62336 0.0
H1066 H 0.05994 0.8272 0.63544 0.0
H1067 H 0.09251 0.98682 0.5756 0.0
H1068 H 0.11316 0.96763 0.60396 0.0
H1069 H 0.03721 0.89313 0.60927 0.0
H1070 H 0.01693 0.91131 0.57851 0.0
H1071 H 0.07636 0.87323 0.60636 0.0
H1072 H 0.06465 0.95416 0.66302 0.0
H1073 H 0.06591 0.00554 0.67523 0.0
H1074 H 0.15498 0.03637 0.65934 0.0
H1075 H 0.15401 0.98521 0.64655 0.0
C1076 C 0.15376 0.85733 0.69274 0.0
C1077 C 0.18229 0.87461 0.69162 0.0
C1078 C 0.13488 0.86289 0.67864 0.0
C1079 C 0.14434 0.88567 0.66317 0.0
C1080 C 0.17306 0.90161 0.66097 0.0
C1081 C 0.1918 0.89609 0.67493 0.0
C1082 C 0.12454 0.89501 0.65084 0.0
C1083 C 0.12494 0.92415 0.65696 0.0
C1084 C 0.10597 0.87618 0.63306 0.0
C1085 C 0.10444 0.84517 0.62581 0.0
C1086 C 0.12845 0.83826 0.61616 0.0
C1087 C 0.12681 0.80889 0.60942 0.0
C1088 C 0.10121 0.78627 0.61207 0.0
C1089 C 0.07718 0.79299 0.62138 0.0
C1090 C 0.07872 0.82232 0.62816 0.0
C1091 C 0.07968 0.96669 0.58315 0.0
C1092 C 0.05282 0.95078 0.57476 0.0
C1093 C 0.0916 0.95576 0.59977 0.0
C1094 C 0.07665 0.92927 0.6097 0.0
C1095 C 0.04928 0.91375 0.60215 0.0
C1096 C 0.03755 0.92429 0.58471 0.0
C1097 C 0.09076 0.91707 0.62619 0.0
C1098 C 0.08934 0.8874 0.62097 0.0
C1099 C 0.10818 0.93529 0.6452 0.0
C1100 C 0.1091 0.96598 0.65351 0.0
C1101 C 0.08438 0.97199 0.66189 0.0
C1102 C 0.08508 1.00103 0.66896 0.0
C1103 C 0.11051 0.02423 0.66797 0.0
C1104 C 0.1353 0.0184 0.66006 0.0
C1105 C 0.13468 0.98938 0.65294 0.0
H1106 H 0.11102 0.04672 0.6734 0.0
H1107 H 0.09999 0.76354 0.60685 0.0
H1108 H 0.18372 0.22693 0.70951 0.0
H1109 H 0.15304 0.19577 0.67726 0.0
H1110 H 0.20432 0.13995 0.66307 0.0
H1111 H 0.23525 0.1712 0.69549 0.0
H1112 H 0.19161 0.15694 0.61944 0.0
H1113 H 0.14473 0.11212 0.69089 0.0
H1114 H 0.12493 0.11038 0.73453 0.0
H1115 H 0.06573 0.14934 0.7184 0.0
H1116 H 0.08554 0.15184 0.67475 0.0
H1117 H 0.0807 0.04507 0.55022 0.0
H1118 H 0.11564 0.06982 0.58063 0.0
H1119 H 0.08606 0.14402 0.5928 0.0
H1120 H 0.05147 0.1199 0.56153 0.0
H1121 H 0.08921 0.11193 0.6375 0.0
H1122 H 0.14124 0.15916 0.56536 0.0
H1123 H 0.16207 0.15842 0.52202 0.0
H1124 H 0.21212 0.10976 0.54011 0.0
H1125 H 0.19119 0.10977 0.58347 0.0
C1126 C 0.18833 0.2079 0.69963 0.0
C1127 C 0.21169 0.20129 0.70491 0.0
C1128 C 0.17081 0.19013 0.68131 0.0
C1129 C 0.17644 0.16557 0.66801 0.0
C1130 C 0.19972 0.15882 0.67327 0.0
C1131 C 0.21715 0.17648 0.69182 0.0
C1132 C 0.15808 0.14756 0.64821 0.0
C1133 C 0.16929 0.14662 0.62339 0.0
C1134 C 0.12906 0.13422 0.6535 0.0
C1135 C 0.11676 0.13238 0.67961 0.0
C1136 C 0.12763 0.12053 0.6967 0.0
C1137 C 0.11639 0.11938 0.72143 0.0
C1138 C 0.09413 0.1298 0.72925 0.0
C1139 C 0.083 0.1413 0.71232 0.0
C1140 C 0.0942 0.14257 0.68757 0.0
C1141 C 0.08189 0.06687 0.55875 0.0
C1142 C 0.06332 0.08052 0.55314 0.0
C1143 C 0.10185 0.08092 0.57627 0.0
C1144 C 0.10324 0.10859 0.58879 0.0
C1145 C 0.08515 0.12258 0.58315 0.0
C1146 C 0.06551 0.1088 0.56524 0.0
C1147 C 0.12264 0.12222 0.60878 0.0
C1148 C 0.11157 0.12207 0.63363 0.0
C1149 C 0.15181 0.13403 0.60352 0.0
C1150 C 0.16441 0.13414 0.57753 0.0
C1151 C 0.15645 0.14801 0.56001 0.0
C1152 C 0.16832 0.14779 0.53547 0.0
C1153 C 0.18834 0.13396 0.52829 0.0
C1154 C 0.19657 0.1204 0.54568 0.0
C1155 C 0.18472 0.12052 0.57023 0.0
H1156 H 0.19752 0.13383 0.50928 0.0
H1157 H 0.08547 0.12892 0.74841 0.0
H1158 H 0.91057 0.18549 0.67789 0.0
H1159 H 0.89332 0.14836 0.64244 0.0
H1160 H 0.81477 0.11224 0.6844 0.0
H1161 H 0.83258 0.14916 0.72038 0.0
H1162 H 0.83151 0.06941 0.65721 0.0
H1163 H 0.81426 0.15154 0.64145 0.0
H1164 H 0.81995 0.20324 0.63883 0.0
H1165 H 0.88699 0.20841 0.58236 0.0
H1166 H 0.882 0.15674 0.58475 0.0
H1167 H 0.87461 0.04989 0.51126 0.0
H1168 H 0.83938 0.06054 0.5428 0.0
H1169 H 0.88804 0.05557 0.60169 0.0
H1170 H 0.92245 0.04521 0.5707 0.0
H1171 H 0.84982 0.10818 0.57485 0.0
H1172 H 0.85564 0.03434 0.65071 0.0
H1173 H 0.84747 0.98174 0.65227 0.0
H1174 H 0.79794 0.95887 0.5882 0.0
H1175 H 0.80539 0.01133 0.58642 0.0
C1176 C 0.88999 0.16908 0.67979 0.0
C1177 C 0.87275 0.17006 0.70165 0.0
C1178 C 0.87991 0.14828 0.65944 0.0
C1179 C 0.85242 0.12831 0.6606 0.0
C1180 C 0.83582 0.12788 0.68304 0.0
C1181 C 0.84596 0.14875 0.70347 0.0
C1182 C 0.84183 0.10789 0.63812 0.0
C1183 C 0.83497 0.07764 0.63914 0.0
C1184 C 0.84411 0.11856 0.61474 0.0
C1185 C 0.84749 0.14989 0.6131 0.0
C1186 C 0.83021 0.16355 0.6284 0.0
C1187 C 0.83336 0.19296 0.627 0.0
C1188 C 0.85376 0.20909 0.61038 0.0
C1189 C 0.87109 0.19583 0.59514 0.0
C1190 C 0.86803 0.1664 0.59646 0.0
C1191 C 0.87712 0.05051 0.531 0.0
C1192 C 0.90107 0.04722 0.53889 0.0
C1193 C 0.85706 0.05634 0.54889 0.0
C1194 C 0.8607 0.05815 0.57459 0.0
C1195 C 0.88416 0.05334 0.58206 0.0
C1196 C 0.90411 0.04795 0.56439 0.0
C1197 C 0.84395 0.07062 0.59409 0.0
C1198 C 0.84507 0.09954 0.59279 0.0
C1199 C 0.83577 0.05859 0.61714 0.0
C1200 C 0.8309 0.02691 0.61855 0.0
C1201 C 0.84266 0.01815 0.63714 0.0
C1202 C 0.83827 0.98832 0.638 0.0
C1203 C 0.82216 0.96699 0.62038 0.0
C1204 C 0.81041 0.97543 0.60184 0.0
C1205 C 0.81474 0.00522 0.60088 0.0
H1206 H 0.81882 0.94393 0.62105 0.0
H1207 H 0.85619 0.23188 0.60934 0.0
H1208 H 0.79143 0.84361 0.7148 0.0
H1209 H 0.82203 0.87554 0.68486 0.0
H1210 H 0.87924 0.82657 0.6791 0.0
H1211 H 0.84958 0.79577 0.70992 0.0
H1212 H 0.90798 0.8819 0.6756 0.0
H1213 H 0.82626 0.81155 0.63594 0.0
H1214 H 0.77537 0.78707 0.63176 0.0
H1215 H 0.7663 0.87036 0.62608 0.0
H1216 H 0.81699 0.89521 0.63038 0.0
H1217 H 0.97275 0.92346 0.55584 0.0
H1218 H 0.94834 0.89602 0.591 0.0
H1219 H 0.88775 0.9412 0.59856 0.0
H1220 H 0.91116 0.96729 0.56299 0.0
H1221 H 0.86161 0.88667 0.601 0.0
H1222 H 0.94263 0.9575 0.6397 0.0
H1223 H 0.9936 0.98242 0.64156 0.0
H1224 H 1.00431 0.90031 0.64888 0.0
H1225 H 0.95342 0.87476 0.64656 0.0
C1226 C 0.81081 0.84009 0.70748 0.0
C1227 C 0.81805 0.81715 0.71457 0.0
C1228 C 0.82819 0.85816 0.69025 0.0
C1229 C 0.85257 0.85293 0.67918 0.0
C1230 C 0.86052 0.831 0.68727 0.0
C1231 C 0.84351 0.81339 0.70492 0.0
C1232 C 0.86879 0.86889 0.65805 0.0
C1233 C 0.89788 0.88275 0.6592 0.0
C1234 C 0.85567 0.87031 0.63671 0.0
C1235 C 0.8253 0.85521 0.63366 0.0
C1236 C 0.81333 0.82456 0.63389 0.0
C1237 C 0.78457 0.81065 0.63152 0.0
C1238 C 0.76762 0.82716 0.62879 0.0
C1239 C 0.77942 0.85759 0.62825 0.0
C1240 C 0.80816 0.87158 0.63059 0.0
C1241 C 0.95435 0.92755 0.5652 0.0
C1242 C 0.94374 0.94731 0.5567 0.0
C1243 C 0.94043 0.91197 0.58529 0.0
C1244 C 0.91625 0.91667 0.59759 0.0
C1245 C 0.90616 0.93695 0.58931 0.0
C1246 C 0.91961 0.9519 0.569 0.0
C1247 C 0.90073 0.90018 0.61868 0.0
C1248 C 0.87176 0.88598 0.61744 0.0
C1249 C 0.91396 0.89866 0.63991 0.0
C1250 C 0.94428 0.91419 0.64274 0.0
C1251 C 0.95587 0.94476 0.64168 0.0
C1252 C 0.98472 0.95898 0.64275 0.0
C1253 C 1.00216 0.94292 0.64518 0.0
C1254 C 0.99076 0.91268 0.64688 0.0
C1255 C 0.96191 0.89831 0.64571 0.0
H1256 H 0.02448 0.95397 0.64566 0.0
H1257 H 0.74535 0.81636 0.62703 0.0
H1258 H 0.33629 0.24077 0.19085 0.0
H1259 H 0.36026 0.21305 0.16084 0.0
H1260 H 0.29343 0.13231 0.17327 0.0
H1261 H 0.26925 0.1602 0.20325 0.0
H1262 H 0.34275 0.12461 0.17489 0.0
H1263 H 0.30331 0.15666 0.11324 0.0
H1264 H 0.2913 0.1839 0.08354 0.0
H1265 H 0.37785 0.23582 0.07294 0.0
H1266 H 0.39049 0.20872 0.10223 0.0
H1267 H 0.39485 0.0411 0.06897 0.0
H1268 H 0.36584 0.06425 0.09819 0.0
H1269 H 0.43229 0.14791 0.09872 0.0
H1270 H 0.46141 0.12504 0.07014 0.0
H1271 H 0.38065 0.15095 0.08997 0.0
H1272 H 0.4188 0.11239 0.14862 0.0
H1273 H 0.42878 0.07319 0.16598 0.0
H1274 H 0.34067 0.02754 0.17763 0.0
H1275 H 0.33016 0.06625 0.1599 0.0
C1276 C 0.32653 0.21713 0.18705 0.0
C1277 C 0.3007 0.20282 0.19947 0.0
C1278 C 0.34022 0.20123 0.16967 0.0
C1279 C 0.32878 0.17038 0.1644 0.0
C1280 C 0.30286 0.15603 0.17676 0.0
C1281 C 0.2889 0.17204 0.19386 0.0
C1282 C 0.34476 0.15324 0.14734 0.0
C1283 C 0.35061 0.13022 0.15618 0.0
C1284 C 0.35576 0.16044 0.12296 0.0
C1285 C 0.34777 0.18094 0.11017 0.0
C1286 C 0.31967 0.17448 0.10515 0.0
C1287 C 0.31279 0.1896 0.08814 0.0
C1288 C 0.33379 0.21134 0.07628 0.0
C1289 C 0.36164 0.21877 0.08198 0.0
C1290 C 0.36866 0.20362 0.09882 0.0
C1291 C 0.40336 0.06439 0.07541 0.0
C1292 C 0.43063 0.08107 0.06706 0.0
C1293 C 0.38676 0.07761 0.09227 0.0
C1294 C 0.39681 0.10792 0.10092 0.0
C1295 C 0.42395 0.12452 0.09252 0.0
C1296 C 0.44066 0.1113 0.07611 0.0
C1297 C 0.37886 0.12291 0.11761 0.0
C1298 C 0.37279 0.14555 0.10875 0.0
C1299 C 0.36746 0.11509 0.14171 0.0
C1300 C 0.3737 0.092 0.15263 0.0
C1301 C 0.40155 0.09385 0.15466 0.0
C1302 C 0.4073 0.07175 0.16461 0.0
C1303 C 0.38537 0.04783 0.17281 0.0
C1304 C 0.35764 0.04604 0.1712 0.0
C1305 C 0.35177 0.06806 0.16121 0.0
H1306 H 0.38988 0.03071 0.18047 0.0
H1307 H 0.3285 0.22252 0.06269 0.0
H1308 H 0.84519 0.32715 0.22711 0.0
H1309 H 0.88063 0.35319 0.19682 0.0
H1310 H 0.82577 0.30873 0.13713 0.0
H1311 H 0.79111 0.28087 0.16734 0.0
H1312 H 0.87704 0.31299 0.12106 0.0
H1313 H 0.83293 0.37993 0.16403 0.0
H1314 H 0.81592 0.40679 0.20093 0.0
H1315 H 0.90022 0.44948 0.22312 0.0
H1316 H 0.91764 0.4224 0.18651 0.0
H1317 H 0.91351 0.42254 0.03788 0.0
H1318 H 0.89175 0.38888 0.06929 0.0
H1319 H 0.96838 0.42057 0.10765 0.0
H1320 H 0.99074 0.45404 0.07555 0.0
H1321 H 0.91318 0.42223 0.13631 0.0
H1322 H 0.95542 0.35886 0.08391 0.0
H1323 H 0.9668 0.33465 0.04292 0.0
H1324 H 0.87963 0.28597 0.03464 0.0
H1325 H 0.86752 0.31105 0.07501 0.0
C1326 C 0.84096 0.32249 0.20747 0.0
C1327 C 0.81565 0.30171 0.1995 0.0
C1328 C 0.86109 0.33764 0.19019 0.0
C1329 C 0.85581 0.3332 0.16469 0.0
C1330 C 0.83042 0.31244 0.15668 0.0
C1331 C 0.8105 0.29679 0.17396 0.0
C1332 C 0.8762 0.35115 0.14658 0.0
C1333 C 0.88487 0.33687 0.12438 0.0
C1334 C 0.88679 0.38232 0.15099 0.0
C1335 C 0.87651 0.39892 0.17276 0.0
C1336 C 0.84779 0.3949 0.17689 0.0
C1337 C 0.83809 0.41016 0.19773 0.0
C1338 C 0.85698 0.42978 0.2144 0.0
C1339 C 0.88562 0.43423 0.21021 0.0
C1340 C 0.89542 0.41893 0.18943 0.0
C1341 C 0.92587 0.42206 0.05281 0.0
C1342 C 0.95371 0.44096 0.05447 0.0
C1343 C 0.91344 0.40279 0.07066 0.0
C1344 C 0.92846 0.40236 0.09072 0.0
C1345 C 0.95653 0.42068 0.09221 0.0
C1346 C 0.96926 0.43961 0.07391 0.0
C1347 C 0.91373 0.38408 0.11081 0.0
C1348 C 0.90592 0.39832 0.13333 0.0
C1349 C 0.90328 0.35298 0.10629 0.0
C1350 C 0.91055 0.33707 0.08243 0.0
C1351 C 0.93861 0.34326 0.07324 0.0
C1352 C 0.9452 0.32942 0.05007 0.0
C1353 C 0.92396 0.30872 0.03621 0.0
C1354 C 0.89606 0.30197 0.04542 0.0
C1355 C 0.88931 0.31611 0.0684 0.0
H1356 H 0.92914 0.2979 0.01833 0.0
H1357 H 0.84943 0.4416 0.23054 0.0
H1358 H 0.61314 0.80287 0.18803 0.0
H1359 H 0.59104 0.82337 0.16101 0.0
H1360 H 0.67219 0.88035 0.13625 0.0
H1361 H 0.6945 0.86039 0.16389 0.0
H1362 H 0.6354 0.91009 0.14764 0.0
H1363 H 0.63554 0.81963 0.09849 0.0
H1364 H 0.6261 0.76601 0.09032 0.0
H1365 H 0.53796 0.75053 0.10473 0.0
H1366 H 0.54693 0.80409 0.11335 0.0
H1367 H 0.60166 0.9572 0.04339 0.0
H1368 H 0.61903 0.93544 0.07256 0.0
H1369 H 0.53554 0.8759 0.08743 0.0
H1370 H 0.51794 0.89687 0.05661 0.0
H1371 H 0.57079 0.84731 0.0835 0.0
H1372 H 0.57075 0.93877 0.13026 0.0
H1373 H 0.58078 0.99254 0.13654 0.0
H1374 H 0.66898 0.00665 0.12631 0.0
H1375 H 0.65947 0.95294 0.11958 0.0
C1376 C 0.62634 0.81984 0.17691 0.0
C1377 C 0.65562 0.83008 0.17824 0.0
C1378 C 0.61365 0.83137 0.16129 0.0
C1379 C 0.62991 0.85328 0.14643 0.0
C1380 C 0.65919 0.86344 0.14752 0.0
C1381 C 0.67194 0.85183 0.16316 0.0
C1382 C 0.61628 0.8659 0.13012 0.0
C1383 C 0.6215 0.89641 0.13344 0.0
C1384 C 0.59742 0.84799 0.11211 0.0
C1385 C 0.59194 0.81582 0.10685 0.0
C1386 C 0.61417 0.80477 0.10012 0.0
C1387 C 0.6089 0.7744 0.09537 0.0
C1388 C 0.58146 0.75487 0.09708 0.0
C1389 C 0.55921 0.76568 0.10346 0.0
C1390 C 0.56437 0.79604 0.10827 0.0
C1391 C 0.58672 0.93971 0.053 0.0
C1392 C 0.55823 0.92903 0.0478 0.0
C1393 C 0.59678 0.92733 0.0699 0.0
C1394 C 0.57859 0.90454 0.08289 0.0
C1395 C 0.55002 0.89368 0.07784 0.0
C1396 C 0.53992 0.90573 0.06033 0.0
C1397 C 0.58999 0.89161 0.10086 0.0
C1398 C 0.5844 0.86102 0.09789 0.0
C1399 C 0.6085 0.90948 0.11924 0.0
C1400 C 0.61436 0.9418 0.12426 0.0
C1401 C 0.59228 0.95333 0.1293 0.0
C1402 C 0.59788 0.98381 0.13291 0.0
C1403 C 0.6255 0.003 0.13176 0.0
C1404 C 0.6476 0.99176 0.12718 0.0
C1405 C 0.64212 0.96129 0.1235 0.0
H1406 H 0.62978 0.02659 0.13445 0.0
H1407 H 0.57743 0.73136 0.0934 0.0
H1408 H 0.1859 0.68043 0.2181 0.0
H1409 H 0.16086 0.64753 0.18357 0.0
H1410 H 0.23821 0.66339 0.13779 0.0
H1411 H 0.26373 0.69647 0.1728 0.0
H1412 H 0.1549 0.66354 0.14126 0.0
H1413 H 0.2287 0.6002 0.09281 0.0
H1414 H 0.26275 0.57995 0.10476 0.0
H1415 H 0.22401 0.57533 0.17939 0.0
H1416 H 0.18914 0.595 0.16763 0.0
H1417 H 0.10232 0.60687 0.02658 0.0
H1418 H 0.13996 0.6296 0.05516 0.0
H1419 H 0.11993 0.54724 0.08577 0.0
H1420 H 0.08296 0.52407 0.05637 0.0
H1421 H 0.17428 0.57829 0.09031 0.0
H1422 H 0.08788 0.59471 0.11092 0.0
H1423 H 0.04717 0.60832 0.10389 0.0
H1424 H 0.10105 0.69666 0.09519 0.0
H1425 H 0.14218 0.68337 0.10169 0.0
C1426 C 0.19773 0.6767 0.2008 0.0
C1427 C 0.22675 0.69135 0.19801 0.0
C1428 C 0.18333 0.6579 0.18104 0.0
C1429 C 0.19752 0.65331 0.15796 0.0
C1430 C 0.22681 0.6666 0.15546 0.0
C1431 C 0.24138 0.68543 0.17544 0.0
C1432 C 0.18108 0.63632 0.13627 0.0
C1433 C 0.15936 0.64505 0.13007 0.0
C1434 C 0.18606 0.61154 0.12215 0.0
C1435 C 0.20661 0.59942 0.12939 0.0
C1436 C 0.2273 0.59464 0.11171 0.0
C1437 C 0.24661 0.58302 0.11844 0.0
C1438 C 0.24554 0.57621 0.14286 0.0
C1439 C 0.22488 0.58069 0.16052 0.0
C1440 C 0.20531 0.59206 0.15382 0.0
C1441 C 0.10666 0.59336 0.03877 0.0
C1442 C 0.08955 0.56389 0.03959 0.0
C1443 C 0.12809 0.60636 0.05514 0.0
C1444 C 0.13217 0.59035 0.07312 0.0
C1445 C 0.11704 0.56007 0.07217 0.0
C1446 C 0.09592 0.54684 0.05536 0.0
C1447 C 0.1488 0.60616 0.095 0.0
C1448 C 0.17025 0.5971 0.10134 0.0
C1449 C 0.1427 0.6298 0.11016 0.0
C1450 C 0.11808 0.638 0.10654 0.0
C1451 C 0.09105 0.61698 0.10734 0.0
C1452 C 0.06791 0.62463 0.10345 0.0
C1453 C 0.07153 0.65333 0.09904 0.0
C1454 C 0.0983 0.67444 0.09856 0.0
C1455 C 0.12152 0.66687 0.10233 0.0
H1456 H 0.05358 0.65923 0.09606 0.0
H1457 H 0.26084 0.56771 0.14822 0.0
H1458 H 0.31633 0.84256 0.78591 0.0
H1459 H 0.34014 0.87638 0.82103 0.0
H1460 H 0.31776 0.80436 0.86583 0.0
H1461 H 0.29411 0.77023 0.83057 0.0
H1462 H 0.30884 0.8591 0.89089 0.0
H1463 H 0.38315 0.82434 0.8495 0.0
H1464 H 0.41283 0.81215 0.81345 0.0
H1465 H 0.43431 0.89947 0.79263 0.0
H1466 H 0.40531 0.91235 0.82914 0.0
H1467 H 0.42399 0.8987 0.97187 0.0
H1468 H 0.38504 0.87696 0.94441 0.0
H1469 H 0.4047 0.95997 0.91515 0.0
H1470 H 0.44306 0.98219 0.94322 0.0
H1471 H 0.4121 0.90553 0.88196 0.0
H1472 H 0.34743 0.94228 0.93307 0.0
H1473 H 0.32043 0.95283 0.9717 0.0
H1474 H 0.27995 0.86009 0.97546 0.0
H1475 H 0.30715 0.84896 0.93707 0.0
C1476 C 0.31644 0.83396 0.80327 0.0
C1477 C 0.30352 0.80382 0.80557 0.0
C1478 C 0.32999 0.85326 0.82326 0.0
C1479 C 0.33054 0.8428 0.84595 0.0
C1480 C 0.31736 0.81279 0.84845 0.0
C1481 C 0.30414 0.79334 0.82829 0.0
C1482 C 0.34604 0.8631 0.86663 0.0
C1483 C 0.33143 0.86918 0.8891 0.0
C1484 C 0.37529 0.8768 0.86396 0.0
C1485 C 0.39195 0.86914 0.84171 0.0
C1486 C 0.39411 0.84083 0.8371 0.0
C1487 C 0.41091 0.83388 0.81671 0.0
C1488 C 0.42529 0.85495 0.80061 0.0
C1489 C 0.42311 0.88315 0.80507 0.0
C1490 C 0.40666 0.89036 0.8257 0.0
C1491 C 0.41929 0.91258 0.96029 0.0
C1492 C 0.43664 0.94197 0.9594 0.0
C1493 C 0.39699 0.90021 0.94475 0.0
C1494 C 0.39213 0.91692 0.92784 0.0
C1495 C 0.40805 0.94689 0.9283 0.0
C1496 C 0.42992 0.9595 0.94432 0.0
C1497 C 0.37506 0.90149 0.90644 0.0
C1498 C 0.38944 0.89608 0.88373 0.0
C1499 C 0.34569 0.88836 0.90912 0.0
C1500 C 0.32958 0.8948 0.93238 0.0
C1501 C 0.33306 0.92412 0.94232 0.0
C1502 C 0.31765 0.93021 0.96413 0.0
C1503 C 0.29854 0.90714 0.97607 0.0
C1504 C 0.2948 0.87793 0.96621 0.0
C1505 C 0.3102 0.87172 0.94442 0.0
H1506 H 0.28658 0.9119 0.99294 0.0
H1507 H 0.43818 0.84945 0.78473 0.0
H1508 H 0.25076 0.34392 0.79388 0.0
H1509 H 0.22416 0.36945 0.82276 0.0
H1510 H 0.15939 0.28643 0.8327 0.0
H1511 H 0.18525 0.26101 0.80251 0.0
H1512 H 0.13607 0.32528 0.82919 0.0
H1513 H 0.21062 0.32704 0.8777 0.0
H1514 H 0.26013 0.33756 0.88558 0.0
H1515 H 0.27693 0.42966 0.8823 0.0
H1516 H 0.22764 0.41972 0.87406 0.0
H1517 H 0.06211 0.3773 0.93296 0.0
H1518 H 0.08986 0.35228 0.90517 0.0
H1519 H 0.1563 0.43524 0.89956 0.0
H1520 H 0.12894 0.46033 0.92858 0.0
H1521 H 0.17949 0.39676 0.90086 0.0
H1522 H 0.10702 0.39602 0.85088 0.0
H1523 H 0.05861 0.38674 0.84028 0.0
H1524 H 0.03895 0.29423 0.8441 0.0
H1525 H 0.08717 0.30302 0.85502 0.0
C1526 C 0.23088 0.33097 0.80221 0.0
C1527 C 0.22062 0.3001 0.79628 0.0
C1528 C 0.21571 0.34568 0.81899 0.0
C1529 C 0.18993 0.33 0.83067 0.0
C1530 C 0.17934 0.29922 0.82435 0.0
C1531 C 0.1944 0.28453 0.8073 0.0
C1532 C 0.17374 0.34572 0.84888 0.0
C1533 C 0.14552 0.34053 0.84509 0.0
C1534 C 0.18605 0.3665 0.86929 0.0
C1535 C 0.21547 0.37259 0.87505 0.0
C1536 C 0.22489 0.34952 0.87857 0.0
C1537 C 0.25291 0.35537 0.88307 0.0
C1538 C 0.27166 0.38421 0.88433 0.0
C1539 C 0.26239 0.40732 0.88127 0.0
C1540 C 0.23441 0.4016 0.87671 0.0
C1541 C 0.08258 0.39039 0.9258 0.0
C1542 C 0.09302 0.42105 0.93297 0.0
C1543 C 0.09849 0.37596 0.90964 0.0
C1544 C 0.12512 0.39172 0.89944 0.0
C1545 C 0.13583 0.42233 0.90687 0.0
C1546 C 0.12006 0.43677 0.92347 0.0
C1547 C 0.14167 0.37623 0.88126 0.0
C1548 C 0.16998 0.38146 0.88502 0.0
C1549 C 0.12954 0.35561 0.86066 0.0
C1550 C 0.10058 0.35024 0.85403 0.0
C1551 C 0.0923 0.37373 0.84963 0.0
C1552 C 0.06492 0.36855 0.84353 0.0
C1553 C 0.04569 0.33992 0.84159 0.0
C1554 C 0.05384 0.31639 0.84565 0.0
C1555 C 0.0812 0.32146 0.85177 0.0
H1556 H 0.02449 0.33597 0.83689 0.0
H1557 H 0.29337 0.38865 0.88773 0.0
H1558 H 0.74529 0.21068 0.82356 0.0
H1559 H 0.71175 0.18228 0.85391 0.0
H1560 H 0.64707 0.15748 0.80151 0.0
H1561 H 0.68039 0.18638 0.77123 0.0
H1562 H 0.62546 0.16878 0.84712 0.0
H1563 H 0.67954 0.10916 0.81055 0.0
H1564 H 0.72095 0.09444 0.79651 0.0
H1565 H 0.74608 0.11175 0.87217 0.0
H1566 H 0.70498 0.12695 0.88661 0.0
H1567 H 0.5397 0.04795 0.91693 0.0
H1568 H 0.56614 0.07831 0.88395 0.0
H1569 H 0.63576 0.11754 0.93123 0.0
H1570 H 0.60988 0.08686 0.96358 0.0
H1571 H 0.65139 0.09541 0.8849 0.0
H1572 H 0.59879 0.16257 0.91861 0.0
H1573 H 0.55168 0.1636 0.93401 0.0
H1574 H 0.52005 0.12164 0.86254 0.0
H1575 H 0.56711 0.12092 0.84665 0.0
C1576 C 0.72397 0.19914 0.81845 0.0
C1577 C 0.71563 0.2005 0.79485 0.0
C1578 C 0.70477 0.18289 0.83583 0.0
C1579 C 0.67692 0.16736 0.82989 0.0
C1580 C 0.66841 0.16922 0.80653 0.0
C1581 C 0.68756 0.18561 0.78918 0.0
C1582 C 0.65703 0.14854 0.84781 0.0
C1583 C 0.63114 0.15261 0.85515 0.0
C1584 C 0.66401 0.12717 0.85833 0.0
C1585 C 0.68934 0.11934 0.8496 0.0
C1586 C 0.69407 0.11013 0.82413 0.0
C1587 C 0.71741 0.10159 0.81613 0.0
C1588 C 0.73602 0.10199 0.83347 0.0
C1589 C 0.73156 0.11132 0.85879 0.0
C1590 C 0.70827 0.1199 0.86689 0.0
C1591 C 0.56031 0.0637 0.92041 0.0
C1592 C 0.57284 0.06518 0.94266 0.0
C1593 C 0.57546 0.08093 0.9016 0.0
C1594 C 0.60301 0.10012 0.90512 0.0
C1595 C 0.61469 0.10272 0.928 0.0
C1596 C 0.59981 0.08537 0.94652 0.0
C1597 C 0.62061 0.11645 0.88474 0.0
C1598 C 0.64594 0.11175 0.87685 0.0
C1599 C 0.61298 0.13679 0.87355 0.0
C1600 C 0.58631 0.14192 0.88145 0.0
C1601 C 0.58186 0.15422 0.90606 0.0
C1602 C 0.55519 0.15457 0.91491 0.0
C1603 C 0.53289 0.14257 0.89931 0.0
C1604 C 0.53737 0.13097 0.87459 0.0
C1605 C 0.56407 0.13087 0.86556 0.0
H1606 H 0.51214 0.14227 0.90639 0.0
H1607 H 0.75393 0.09508 0.82729 0.0
H1608 H 0.8641 0.62977 0.79979 0.0
H1609 H 0.88556 0.61196 0.82942 0.0
H1610 H 0.89847 0.69353 0.87813 0.0
H1611 H 0.87798 0.71198 0.84802 0.0
H1612 H 0.94453 0.67958 0.87252 0.0
H1613 H 0.84837 0.62873 0.8932 0.0
H1614 H 0.79968 0.59755 0.8856 0.0
H1615 H 0.82731 0.52463 0.85569 0.0
H1616 H 0.87625 0.55551 0.86278 0.0
H1617 H 0.98629 0.62442 0.9726 0.0
H1618 H 0.96665 0.64674 0.94522 0.0
H1619 H 0.9436 0.56558 0.89522 0.0
H1620 H 0.96103 0.54236 0.92402 0.0
H1621 H 0.90158 0.58225 0.90403 0.0
H1622 H 0.99729 0.64582 0.86622 0.0
H1623 H 0.04603 0.67863 0.87208 0.0
H1624 H 0.01761 0.72834 0.93506 0.0
H1625 H 0.9688 0.6957 0.92939 0.0
C1626 C 0.87151 0.64395 0.8168 0.0
C1627 C 0.86945 0.67236 0.82146 0.0
C1628 C 0.88351 0.6336 0.83387 0.0
C1629 C 0.89343 0.6513 0.85614 0.0
C1630 C 0.89091 0.67946 0.8611 0.0
C1631 C 0.87896 0.68987 0.84397 0.0
C1632 C 0.9077 0.64094 0.87353 0.0
C1633 C 0.93495 0.65845 0.8797 0.0
C1634 C 0.89546 0.61323 0.88265 0.0
C1635 C 0.86603 0.59455 0.87832 0.0
C1636 C 0.8441 0.60612 0.8848 0.0
C1637 C 0.81645 0.58848 0.88063 0.0
C1638 C 0.81041 0.55915 0.87011 0.0
C1639 C 0.83202 0.54737 0.86381 0.0
C1640 C 0.85973 0.56493 0.86793 0.0
C1641 C 0.97777 0.61161 0.95537 0.0
C1642 C 0.97532 0.58171 0.95034 0.0
C1643 C 0.96676 0.62456 0.93948 0.0
C1644 C 0.95411 0.60825 0.91764 0.0
C1645 C 0.9532 0.57876 0.9119 0.0
C1646 C 0.96333 0.56551 0.92825 0.0
C1647 C 0.93886 0.62044 0.90244 0.0
C1648 C 0.91123 0.60334 0.89682 0.0
C1649 C 0.95062 0.64861 0.89398 0.0
C1650 C 0.97978 0.66765 0.89803 0.0
C1651 C 1.00164 0.66338 0.88161 0.0
C1652 C 0.02919 0.68209 0.88474 0.0
C1653 C 0.03497 0.70531 0.90415 0.0
C1654 C 0.01316 0.71014 0.92021 0.0
C1655 C 0.98558 0.69159 0.917 0.0
H1656 H 0.0563 0.71973 0.9066 0.0
H1657 H 0.78899 0.54553 0.8669 0.0
H1658 H 0.16661 0.30022 0.13744 0.0
H1659 H 0.15311 0.33503 0.1172 0.0
H1660 H 0.08152 0.3249 0.16995 0.0
H1661 H 0.09476 0.29008 0.18985 0.0
H1662 H 0.06575 0.31533 0.1238 0.0
H1663 H 0.13826 0.38984 0.16957 0.0
H1664 H 0.18628 0.41369 0.18335 0.0
H1665 H 0.21736 0.42656 0.10739 0.0
H1666 H 0.1696 0.40223 0.09304 0.0
H1667 H 0.01585 0.41045 0.06784 0.0
H1668 H 0.03156 0.38729 0.09809 0.0
H1669 H 0.11337 0.40907 0.05903 0.0
H1670 H 0.09848 0.4345 0.03075 0.0
H1671 H 0.12302 0.41491 0.10246 0.0
H1672 H 0.05381 0.33385 0.05549 0.0
H1673 H 1.00724 0.30485 0.04009 0.0
H1674 H 0.97159 0.30192 0.11576 0.0
H1675 H 0.01792 0.33097 0.13159 0.0
C1676 C 0.14849 0.30615 0.1451 0.0
C1677 C 0.13166 0.29236 0.16513 0.0
C1678 C 0.14071 0.32598 0.13351 0.0
C1679 C 0.11616 0.33259 0.14196 0.0
C1680 C 0.10039 0.32009 0.16292 0.0
C1681 C 0.10805 0.30027 0.17436 0.0
C1682 C 0.10536 0.35019 0.12778 0.0
C1683 C 0.07817 0.33732 0.11941 0.0
C1684 C 0.12169 0.37858 0.12151 0.0
C1685 C 0.15035 0.39384 0.13019 0.0
C1686 C 0.15534 0.39754 0.15577 0.0
C1687 C 0.18252 0.41115 0.16368 0.0
C1688 C 0.20486 0.42139 0.14623 0.0
C1689 C 0.20004 0.41843 0.12086 0.0
C1690 C 0.17291 0.40474 0.11283 0.0
C1691 C 0.03723 0.41047 0.06602 0.0
C1692 C 0.05598 0.42444 0.04707 0.0
C1693 C 0.0462 0.39688 0.08312 0.0
C1694 C 0.07367 0.39562 0.08076 0.0
C1695 C 0.0922 0.40968 0.06168 0.0
C1696 C 0.08361 0.4242 0.04536 0.0
C1697 C 0.0835 0.37972 0.09769 0.0
C1698 C 0.1105 0.39295 0.10676 0.0
C1699 C 0.06718 0.35136 0.10428 0.0
C1700 C 0.03924 0.33476 0.09468 0.0
C1701 C 0.03599 0.32719 0.06881 0.0
C1702 C 1.00967 0.31066 0.06002 0.0
C1703 C 0.98652 0.30146 0.07695 0.0
C1704 C 0.98957 0.30898 0.10269 0.0
C1705 C 0.01584 0.32543 0.11157 0.0
H1706 H 0.96621 0.28848 0.07013 0.0
H1707 H 0.22592 0.43158 0.15237 0.0
H1708 H 0.23356 0.73352 0.82773 0.0
H1709 H 0.20001 0.70854 0.85998 0.0
H1710 H 0.15001 0.6485 0.80229 0.0
H1711 H 0.18227 0.67552 0.77019 0.0
H1712 H 0.11645 0.65531 0.83803 0.0
H1713 H 0.20473 0.6372 0.83644 0.0
H1714 H 0.25569 0.6518 0.8402 0.0
H1715 H 0.24689 0.68966 0.91606 0.0
H1716 H 0.19606 0.67642 0.91264 0.0
H1717 H 0.05281 0.53267 0.90867 0.0
H1718 H 0.07914 0.56702 0.87854 0.0
H1719 H 0.11964 0.63012 0.93939 0.0
H1720 H 0.09401 0.59532 0.96926 0.0
H1721 H 0.15688 0.62368 0.90373 0.0
H1722 H 0.0682 0.63729 0.90678 0.0
H1723 H 0.01701 0.61673 0.9051 0.0
H1724 H 0.02584 0.58472 0.82735 0.0
H1725 H 0.07724 0.60376 0.82889 0.0
C1726 C 0.21528 0.71504 0.82208 0.0
C1727 C 0.21069 0.70589 0.79661 0.0
C1728 C 0.19615 0.70064 0.84047 0.0
C1729 C 0.17291 0.67569 0.83374 0.0
C1730 C 0.16784 0.66738 0.80815 0.0
C1731 C 0.18638 0.68262 0.78977 0.0
C1732 C 0.15472 0.6574 0.85309 0.0
C1733 C 0.1254 0.64825 0.85223 0.0
C1734 C 0.16607 0.64846 0.87217 0.0
C1735 C 0.19661 0.65607 0.87419 0.0
C1736 C 0.21367 0.64879 0.85388 0.0
C1737 C 0.24251 0.65682 0.85593 0.0
C1738 C 0.25447 0.67148 0.8783 0.0
C1739 C 0.23761 0.6783 0.89872 0.0
C1740 C 0.2088 0.67066 0.89672 0.0
C1741 C 0.06681 0.55421 0.91552 0.0
C1742 C 0.0711 0.56176 0.94117 0.0
C1743 C 0.08194 0.57378 0.89836 0.0
C1744 C 0.1013 0.60134 0.90667 0.0
C1745 C 0.10488 0.60907 0.93249 0.0
C1746 C 0.09004 0.58938 0.94956 0.0
C1747 C 0.11888 0.62156 0.8885 0.0
C1748 C 0.14803 0.63099 0.8896 0.0
C1749 C 0.10737 0.63059 0.86972 0.0
C1750 C 0.07662 0.62164 0.86805 0.0
C1751 C 0.05926 0.6257 0.88935 0.0
C1752 C 0.03019 0.61404 0.88849 0.0
C1753 C 0.01815 0.59917 0.86619 0.0
C1754 C 0.03521 0.5961 0.84465 0.0
C1755 C 0.06434 0.6072 0.84554 0.0
H1756 H 0.99561 0.5903 0.86554 0.0
H1757 H 0.27681 0.67757 0.87979 0.0
H1758 H 0.32576 0.10013 0.81693 0.0
H1759 H 0.36223 0.0952 0.83989 0.0
H1760 H 0.3695 0.17832 0.88445 0.0
H1761 H 0.33239 0.18324 0.8615 0.0
H1762 H 0.42211 0.16831 0.87147 0.0
H1763 H 0.33143 0.11964 0.90878 0.0
H1764 H 0.28239 0.08651 0.90899 0.0
H1765 H 0.30947 0.01286 0.88046 0.0
H1766 H 0.35869 0.04566 0.87965 0.0
H1767 H 0.48332 0.12732 0.97147 0.0
H1768 H 0.45968 0.14705 0.9452 0.0
H1769 H 0.4337 0.06332 0.899 0.0
H1770 H 0.45555 0.04293 0.92644 0.0
H1771 H 0.39055 0.07915 0.91581 0.0
H1772 H 0.47347 0.14128 0.85619 0.0
H1773 H 0.52084 0.17767 0.85098 0.0
H1774 H 0.50829 0.22504 0.92228 0.0
H1775 H 0.46038 0.18971 0.92724 0.0
C1776 C 0.33534 0.11759 0.83141 0.0
C1777 C 0.32587 0.14185 0.83767 0.0
C1778 C 0.35621 0.11473 0.84452 0.0
C1779 C 0.36822 0.13607 0.86424 0.0
C1780 C 0.36039 0.16149 0.86939 0.0
C1781 C 0.33929 0.16434 0.85621 0.0
C1782 C 0.38726 0.13035 0.8804 0.0
C1783 C 0.41516 0.14904 0.88148 0.0
C1784 C 0.37832 0.10506 0.89327 0.0
C1785 C 0.34875 0.08518 0.89395 0.0
C1786 C 0.32692 0.09642 0.90236 0.0
C1787 C 0.29909 0.0777 0.90261 0.0
C1788 C 0.29281 0.04761 0.89469 0.0
C1789 C 0.31437 0.03618 0.88656 0.0
C1790 C 0.34224 0.05483 0.88621 0.0
C1791 C 0.4734 0.11342 0.95519 0.0
C1792 C 0.47134 0.08354 0.95105 0.0
C1793 C 0.46003 0.12489 0.93992 0.0
C1794 C 0.44518 0.10702 0.91961 0.0
C1795 C 0.44504 0.07775 0.91442 0.0
C1796 C 0.45763 0.06606 0.93008 0.0
C1797 C 0.42596 0.11662 0.90642 0.0
C1798 C 0.3977 0.09855 0.90595 0.0
C1799 C 0.43459 0.14251 0.89425 0.0
C1800 C 0.46393 0.16221 0.89258 0.0
C1801 C 0.48101 0.15928 0.87086 0.0
C1802 C 0.50776 0.17996 0.86777 0.0
C1803 C 0.51771 0.20344 0.88644 0.0
C1804 C 0.50071 0.20661 0.908 0.0
C1805 C 0.47372 0.18636 0.9109 0.0
H1806 H 0.53852 0.21925 0.88412 0.0
H1807 H 0.27125 0.03314 0.8949 0.0
H1808 H 0.7935 0.35031 0.79531 0.0
H1809 H 0.81553 0.38294 0.83158 0.0
H1810 H 0.79533 0.30796 0.87281 0.0
H1811 H 0.77029 0.2759 0.83733 0.0
H1812 H 0.79851 0.35299 0.9049 0.0
H1813 H 0.85855 0.33457 0.83458 0.0
H1814 H 0.8753 0.33322 0.79002 0.0
H1815 H 0.89677 0.4272 0.79487 0.0
H1816 H 0.87963 0.42902 0.83938 0.0
H1817 H 0.92568 0.39328 0.96757 0.0
H1818 H 0.88478 0.37182 0.9425 0.0
H1819 H 0.89754 0.4569 0.91956 0.0
H1820 H 0.93845 0.4787 0.94496 0.0
H1821 H 0.89602 0.41161 0.87967 0.0
H1822 H 0.84103 0.42704 0.9549 0.0
H1823 H 0.82544 0.42364 0.99948 0.0
H1824 H 0.79778 0.32917 0.98565 0.0
H1825 H 0.81362 0.332 0.94106 0.0
C1826 C 0.79252 0.34112 0.81259 0.0
C1827 C 0.77999 0.31077 0.81376 0.0
C1828 C 0.8056 0.35966 0.83319 0.0
C1829 C 0.80818 0.34784 0.85467 0.0
C1830 C 0.79391 0.3177 0.85645 0.0
C1831 C 0.77964 0.29935 0.83619 0.0
C1832 C 0.82829 0.36599 0.87374 0.0
C1833 C 0.81985 0.36569 0.89935 0.0
C1834 C 0.85624 0.38278 0.86668 0.0
C1835 C 0.86759 0.3819 0.84022 0.0
C1836 C 0.86681 0.35494 0.82612 0.0
C1837 C 0.87631 0.35408 0.80087 0.0
C1838 C 0.88702 0.38011 0.7896 0.0
C1839 C 0.8884 0.40706 0.80361 0.0
C1840 C 0.8788 0.40802 0.82885 0.0
C1841 C 0.91941 0.4076 0.95767 0.0
C1842 C 0.9354 0.43767 0.95814 0.0
C1843 C 0.89595 0.3953 0.9434 0.0
C1844 C 0.8881 0.41273 0.92912 0.0
C1845 C 0.90321 0.44306 0.93048 0.0
C1846 C 0.92648 0.45552 0.94511 0.0
C1847 C 0.86625 0.39856 0.91075 0.0
C1848 C 0.87452 0.39937 0.8852 0.0
C1849 C 0.83854 0.38152 0.91793 0.0
C1850 C 0.82869 0.37976 0.94467 0.0
C1851 C 0.83181 0.40554 0.9614 0.0
C1852 C 0.8229 0.40372 0.98667 0.0
C1853 C 0.81067 0.37621 0.9954 0.0
C1854 C 0.80726 0.35047 0.97886 0.0
C1855 C 0.81617 0.35217 0.95358 0.0
H1856 H 0.8038 0.37484 0.01498 0.0
H1857 H 0.8943 0.3794 0.77002 0.0
H1858 H 0.67906 0.77559 0.78466 0.0
H1859 H 0.65413 0.80446 0.81196 0.0
H1860 H 0.73231 0.86324 0.84002 0.0
H1861 H 0.7576 0.83576 0.81118 0.0
H1862 H 0.69052 0.84543 0.87858 0.0
H1863 H 0.7019 0.88719 0.80272 0.0
H1864 H 0.69971 0.89082 0.75807 0.0
H1865 H 0.61007 0.85385 0.76478 0.0
H1866 H 0.61172 0.84937 0.80945 0.0
H1867 H 0.63447 0.95412 0.94574 0.0
H1868 H 0.6624 0.9297 0.91668 0.0
H1869 H 0.58736 0.87153 0.88269 0.0
H1870 H 0.55937 0.89554 0.91172 0.0
H1871 H 0.62927 0.89091 0.84686 0.0
H1872 H 0.61883 0.84756 0.92295 0.0
H1873 H 0.6218 0.84738 0.96815 0.0
H1874 H 0.7109 0.88964 0.96077 0.0
H1875 H 0.7084 0.89047 0.91555 0.0
C1876 C 0.69115 0.79518 0.79595 0.0
C1877 C 0.72057 0.80346 0.79513 0.0
C1878 C 0.67674 0.81153 0.81193 0.0
C1879 C 0.69119 0.8363 0.82812 0.0
C1880 C 0.72052 0.84429 0.8278 0.0
C1881 C 0.735 0.82836 0.81133 0.0
C1882 C 0.67563 0.8535 0.8455 0.0
C1883 C 0.67746 0.85572 0.87155 0.0
C1884 C 0.65806 0.8666 0.83661 0.0
C1885 C 0.65697 0.86765 0.80943 0.0
C1886 C 0.68173 0.87935 0.79462 0.0
C1887 C 0.68058 0.88169 0.76932 0.0
C1888 C 0.65477 0.87269 0.75864 0.0
C1889 C 0.63005 0.86091 0.77313 0.0
C1890 C 0.63108 0.85841 0.79843 0.0
C1891 C 0.62387 0.93623 0.93202 0.0
C1892 C 0.59449 0.92693 0.93129 0.0
C1893 C 0.63992 0.92212 0.91541 0.0
C1894 C 0.62714 0.89846 0.8974 0.0
C1895 C 0.59792 0.88962 0.89628 0.0
C1896 C 0.58185 0.90342 0.91306 0.0
C1897 C 0.64398 0.88266 0.87994 0.0
C1898 C 0.64234 0.88062 0.85386 0.0
C1899 C 0.66179 0.8698 0.88878 0.0
C1900 C 0.66338 0.8694 0.91593 0.0
C1901 C 0.63903 0.85707 0.93101 0.0
C1902 C 0.64063 0.8568 0.95662 0.0
C1903 C 0.66651 0.86858 0.96734 0.0
C1904 C 0.69086 0.88059 0.95245 0.0
C1905 C 0.68936 0.88095 0.92682 0.0
H1906 H 0.66772 0.86834 0.98717 0.0
H1907 H 0.65392 0.87489 0.73913 0.0
H1908 H 0.78016 0.65824 0.21475 0.0
H1909 H 0.8055 0.63129 0.18568 0.0
H1910 H 0.86034 0.71325 0.16083 0.0
H1911 H 0.8345 0.73993 0.18948 0.0
H1912 H 0.85279 0.67936 0.12264 0.0
H1913 H 0.8829 0.66356 0.19948 0.0
H1914 H 0.88334 0.64718 0.24049 0.0
H1915 H 0.82857 0.56069 0.21505 0.0
H1916 H 0.82834 0.57644 0.17374 0.0
H1917 H 0.96196 0.62397 0.06703 0.0
H1918 H 0.93322 0.64782 0.0952 0.0
H1919 H 0.86619 0.56471 0.09588 0.0
H1920 H 0.89477 0.54062 0.06709 0.0
H1921 H 0.87823 0.59677 0.14455 0.0
H1922 H 0.85953 0.6145 0.06425 0.0
H1923 H 0.87235 0.63165 0.0225 0.0
H1924 H 0.91458 0.71935 0.0564 0.0
H1925 H 0.90237 0.70262 0.09837 0.0
C1926 C 0.79772 0.67056 0.20319 0.0
C1927 C 0.80493 0.70139 0.20436 0.0
C1928 C 0.81252 0.65505 0.18656 0.0
C1929 C 0.83548 0.66987 0.17086 0.0
C1930 C 0.84277 0.70078 0.17231 0.0
C1931 C 0.82779 0.7162 0.18872 0.0
C1932 C 0.85109 0.65339 0.15227 0.0
C1933 C 0.8586 0.66163 0.12783 0.0
C1934 C 0.8585 0.62951 0.15807 0.0
C1935 C 0.8553 0.62128 0.18373 0.0
C1936 C 0.87057 0.64122 0.20283 0.0
C1937 C 0.8711 0.63192 0.22598 0.0
C1938 C 0.85607 0.60286 0.23032 0.0
C1939 C 0.84022 0.58315 0.21164 0.0
C1940 C 0.83998 0.59221 0.18835 0.0
C1941 C 0.94109 0.61061 0.07306 0.0
C1942 C 0.93086 0.58018 0.06464 0.0
C1943 C 0.92455 0.62442 0.08917 0.0
C1944 C 0.89732 0.60826 0.0977 0.0
C1945 C 0.88706 0.57781 0.08959 0.0
C1946 C 0.90345 0.56402 0.07304 0.0
C1947 C 0.88003 0.62313 0.11552 0.0
C1948 C 0.87219 0.61449 0.13961 0.0
C1949 C 0.87305 0.64711 0.10963 0.0
C1950 C 0.88024 0.65724 0.08443 0.0
C1951 C 0.87175 0.63739 0.0628 0.0
C1952 C 0.87887 0.64704 0.03909 0.0
C1953 C 0.89433 0.67655 0.03679 0.0
C1954 C 0.90263 0.69649 0.05821 0.0
C1955 C 0.89559 0.68694 0.08196 0.0
H1956 H 0.89982 0.68399 0.01842 0.0
H1957 H 0.85671 0.59556 0.24814 0.0
H1958 H 0.28673 0.79188 0.17379 0.0
H1959 H 0.31997 0.82042 0.14344 0.0
H1960 H 0.38333 0.84978 0.19744 0.0
H1961 H 0.34945 0.82288 0.22843 0.0
H1962 H 0.38715 0.8938 0.17407 0.0
H1963 H 0.38162 0.79433 0.14719 0.0
H1964 H 0.35816 0.74119 0.13534 0.0
H1965 H 0.32391 0.76002 0.07321 0.0
H1966 H 0.3468 0.81332 0.08493 0.0
H1967 H 0.49046 0.95393 0.0762 0.0
H1968 H 0.46692 0.9207 0.10825 0.0
H1969 H 0.38964 0.89451 0.07139 0.0
H1970 H 0.41264 0.92756 0.03997 0.0
H1971 H 0.39939 0.84712 0.08758 0.0
H1972 H 0.39934 0.94616 0.11919 0.0
H1973 H 0.422 0.99935 0.13166 0.0
H1974 H 0.46806 0.9802 0.18499 0.0
H1975 H 0.44578 0.92686 0.17267 0.0
C1976 C 0.3075 0.8049 0.17939 0.0
C1977 C 0.31519 0.80541 0.20367 0.0
C1978 C 0.32675 0.82085 0.16185 0.0
C1979 C 0.35445 0.83697 0.16792 0.0
C1980 C 0.36217 0.83754 0.19221 0.0
C1981 C 0.34276 0.82197 0.20988 0.0
C1982 C 0.37523 0.85333 0.14901 0.0
C1983 C 0.39022 0.88335 0.15534 0.0
C1984 C 0.37926 0.83993 0.12442 0.0
C1985 C 0.36583 0.80786 0.11703 0.0
C1986 C 0.36898 0.78716 0.13107 0.0
C1987 C 0.35577 0.757 0.12438 0.0
C1988 C 0.33953 0.74724 0.10356 0.0
C1989 C 0.3365 0.76762 0.08934 0.0
C1990 C 0.34961 0.79781 0.09598 0.0
C1991 C 0.46858 0.9407 0.07483 0.0
C1992 C 0.45329 0.94356 0.0558 0.0
C1993 C 0.45514 0.92185 0.09313 0.0
C1994 C 0.42644 0.90528 0.09228 0.0
C1995 C 0.41173 0.90702 0.07246 0.0
C1996 C 0.42491 0.92607 0.05457 0.0
C1997 C 0.41079 0.88749 0.11262 0.0
C1998 C 0.39671 0.85726 0.10652 0.0
C1999 C 0.40775 0.9006 0.13744 0.0
C2000 C 0.42116 0.93259 0.14482 0.0
C2001 C 0.41447 0.95332 0.13343 0.0
C2002 C 0.4272 0.98347 0.1405 0.0
C2003 C 0.44653 0.99315 0.15904 0.0
C2004 C 0.45312 0.97267 0.1706 0.0
C2005 C 0.44043 0.94248 0.1636 0.0
H2006 H 0.45634 0.01651 0.16451 0.0
H2007 H 0.32932 0.72389 0.09841 0.0
H2008 H 0.7055 0.16069 0.22102 0.0
H2009 H 0.67941 0.12354 0.18845 0.0
H2010 H 0.72051 0.18149 0.13241 0.0
H2011 H 0.74587 0.21896 0.16494 0.0
H2012 H 0.64406 0.13969 0.15585 0.0
H2013 H 0.73226 0.13069 0.08128 0.0
H2014 H 0.78077 0.13067 0.0802 0.0
H2015 H 0.76406 0.09783 0.15183 0.0
H2016 H 0.7154 0.09727 0.15316 0.0
H2017 H 0.59652 0.11321 0.0385 0.0
H2018 H 0.63294 0.13178 0.06841 0.0
H2019 H 0.62436 0.04281 0.07857 0.0
H2020 H 0.58778 0.02386 0.04846 0.0
H2021 H 0.68291 0.08908 0.08192 0.0
H2022 H 0.58733 0.06642 0.1166 0.0
H2023 H 0.5392 0.06742 0.11724 0.0
H2024 H 0.57022 0.16205 0.12764 0.0
H2025 H 0.61858 0.16158 0.12659 0.0
C2026 C 0.70919 0.16519 0.20167 0.0
C2027 C 0.72743 0.19255 0.19532 0.0
C2028 C 0.69434 0.14407 0.18319 0.0
C2029 C 0.69828 0.14982 0.15813 0.0
C2030 C 0.71745 0.17665 0.15166 0.0
C2031 C 0.73175 0.19801 0.17018 0.0
C2032 C 0.6803 0.12943 0.13897 0.0
C2033 C 0.65241 0.12822 0.1399 0.0
C2034 C 0.69125 0.11443 0.11831 0.0
C2035 C 0.72028 0.11413 0.11736 0.0
C2036 C 0.73891 0.1233 0.09671 0.0
C2037 C 0.76644 0.12343 0.09608 0.0
C2038 C 0.77551 0.11432 0.11596 0.0
C2039 C 0.75704 0.10495 0.13647 0.0
C2040 C 0.72951 0.1048 0.1372 0.0
C2041 C 0.60292 0.09752 0.04648 0.0
C2042 C 0.58891 0.06708 0.04149 0.0
C2043 C 0.62381 0.10819 0.0635 0.0
C2044 C 0.63095 0.08863 0.07588 0.0
C2045 C 0.6191 0.05819 0.06912 0.0
C2046 C 0.59818 0.04744 0.05193 0.0
C2047 C 0.64698 0.10017 0.09855 0.0
C2048 C 0.67441 0.09991 0.09819 0.0
C2049 C 0.63559 0.11367 0.11996 0.0
C2050 C 0.60651 0.11396 0.1214 0.0
C2051 C 0.58386 0.08742 0.1189 0.0
C2052 C 0.55656 0.08789 0.11932 0.0
C2053 C 0.55165 0.11478 0.12245 0.0
C2054 C 0.57404 0.14125 0.12522 0.0
C2055 C 0.60139 0.14089 0.12474 0.0
H2056 H 0.5305 0.11511 0.12276 0.0
H2057 H 0.79685 0.11448 0.11545 0.0
H2058 H 0.73639 0.68385 0.80607 0.0
H2059 H 0.70385 0.65313 0.83529 0.0
H2060 H 0.63546 0.67205 0.80922 0.0
H2061 H 0.66828 0.70436 0.78086 0.0
H2062 H 0.6287 0.67347 0.857 0.0
H2063 H 0.64642 0.60445 0.79259 0.0
H2064 H 0.67368 0.58059 0.76191 0.0
H2065 H 0.71139 0.56161 0.82176 0.0
H2066 H 0.68484 0.58593 0.85278 0.0
H2067 H 0.54084 0.56039 0.93309 0.0
H2068 H 0.56073 0.58722 0.8968 0.0
H2069 H 0.64367 0.59516 0.91478 0.0
H2070 H 0.62414 0.56848 0.95085 0.0
H2071 H 0.63324 0.57503 0.86505 0.0
H2072 H 0.61765 0.65239 0.92859 0.0
H2073 H 0.58613 0.67283 0.95734 0.0
H2074 H 0.53891 0.67108 0.8956 0.0
H2075 H 0.56986 0.65011 0.86657 0.0
C2076 C 0.71444 0.68145 0.80642 0.0
C2077 C 0.70496 0.69637 0.79089 0.0
C2078 C 0.69577 0.66367 0.82307 0.0
C2079 C 0.66704 0.65967 0.82408 0.0
C2080 C 0.65748 0.67461 0.80867 0.0
C2081 C 0.67627 0.69291 0.79232 0.0
C2082 C 0.64734 0.64043 0.84175 0.0
C2083 C 0.62945 0.65176 0.85846 0.0
C2084 C 0.6478 0.61188 0.84357 0.0
C2085 C 0.6638 0.59723 0.82498 0.0
C2086 C 0.66071 0.59541 0.79919 0.0
C2087 C 0.67603 0.58179 0.78175 0.0
C2088 C 0.6943 0.56965 0.78988 0.0
C2089 C 0.69726 0.57106 0.81548 0.0
C2090 C 0.68208 0.58477 0.833 0.0
C2091 C 0.56332 0.56807 0.92944 0.0
C2092 C 0.5809 0.5624 0.94497 0.0
C2093 C 0.57462 0.58336 0.90868 0.0
C2094 C 0.60366 0.59319 0.90318 0.0
C2095 C 0.62118 0.58767 0.91869 0.0
C2096 C 0.60996 0.57248 0.93937 0.0
C2097 C 0.61632 0.60891 0.88114 0.0
C2098 C 0.63253 0.59669 0.86339 0.0
C2099 C 0.61387 0.63626 0.87812 0.0
C2100 C 0.59585 0.64949 0.89551 0.0
C2101 C 0.60044 0.65623 0.9212 0.0
C2102 C 0.58267 0.66787 0.93753 0.0
C2103 C 0.56046 0.67313 0.92831 0.0
C2104 C 0.55605 0.6669 0.90272 0.0
C2105 C 0.57369 0.65515 0.88633 0.0
H2106 H 0.54669 0.68211 0.94099 0.0
H2107 H 0.70613 0.55908 0.77633 0.0
H2108 H 0.36588 0.63725 0.78329 0.0
H2109 H 0.40359 0.62968 0.80308 0.0
H2110 H 0.35393 0.62217 0.87319 0.0
H2111 H 0.31628 0.62985 0.85359 0.0
H2112 H 0.41034 0.65615 0.87908 0.0
H2113 H 0.35475 0.56151 0.8372 0.0
H2114 H 0.33367 0.52782 0.80041 0.0
H2115 H 0.41516 0.54314 0.76273 0.0
H2116 H 0.43667 0.57721 0.79922 0.0
H2117 H 0.43593 0.53033 0.92612 0.0
H2118 H 0.41716 0.55086 0.89674 0.0
H2119 H 0.49375 0.62488 0.89514 0.0
H2120 H 0.51208 0.60553 0.92636 0.0
H2121 H 0.43302 0.56494 0.84978 0.0
H2122 H 0.48605 0.66995 0.8906 0.0
H2123 H 0.5038 0.70426 0.92822 0.0
H2124 H 0.42395 0.66997 0.9678 0.0
H2125 H 0.40641 0.63416 0.93097 0.0
C2126 C 0.36318 0.63438 0.80301 0.0
C2127 C 0.33806 0.63399 0.81687 0.0
C2128 C 0.38469 0.62996 0.81426 0.0
C2129 C 0.38154 0.6253 0.8396 0.0
C2130 C 0.35684 0.62582 0.85364 0.0
C2131 C 0.33526 0.62994 0.84237 0.0
C2132 C 0.40312 0.61817 0.85134 0.0
C2133 C 0.4156 0.6364 0.87247 0.0
C2134 C 0.41023 0.59262 0.84264 0.0
C2135 C 0.39728 0.57209 0.8208 0.0
C2136 C 0.36814 0.55785 0.82099 0.0
C2137 C 0.35611 0.53867 0.80021 0.0
C2138 C 0.37306 0.5334 0.77922 0.0
C2139 C 0.40206 0.54727 0.77899 0.0
C2140 C 0.41418 0.5665 0.79971 0.0
C2141 C 0.44907 0.55088 0.91944 0.0
C2142 C 0.47555 0.56638 0.92885 0.0
C2143 C 0.43816 0.56268 0.90261 0.0
C2144 C 0.45356 0.58998 0.89426 0.0
C2145 C 0.48082 0.60457 0.90221 0.0
C2146 C 0.49155 0.59315 0.91968 0.0
C2147 C 0.4401 0.6027 0.87783 0.0
C2148 C 0.42871 0.58532 0.85586 0.0
C2149 C 0.43414 0.62915 0.88566 0.0
C2150 C 0.44529 0.64882 0.9084 0.0
C2151 C 0.4726 0.66918 0.90762 0.0
C2152 C 0.48263 0.68883 0.92881 0.0
C2153 C 0.46516 0.68893 0.95059 0.0
C2154 C 0.43769 0.66931 0.95121 0.0
C2155 C 0.42779 0.64915 0.93027 0.0
H2156 H 0.47279 0.70442 0.96688 0.0
H2157 H 0.36372 0.51853 0.76316 0.0
H2158 H 0.35966 0.29885 0.78157 0.0
H2159 H 0.38609 0.32869 0.8171 0.0
H2160 H 0.31631 0.35871 0.84398 0.0
H2161 H 0.29184 0.33211 0.80697 0.0
H2162 H 0.35651 0.39903 0.85658 0.0
H2163 H 0.3319 0.29774 0.86683 0.0
H2164 H 0.32823 0.24566 0.85496 0.0
H2165 H 0.4179 0.27045 0.84967 0.0
H2166 H 0.42196 0.32269 0.86097 0.0
H2167 H 0.43907 0.39606 0.973 0.0
H2168 H 0.40163 0.372 0.94421 0.0
H2169 H 0.43419 0.44554 0.9005 0.0
H2170 H 0.46967 0.47043 0.9304 0.0
H2171 H 0.40548 0.35078 0.90122 0.0
H2172 H 0.39087 0.45084 0.86235 0.0
H2173 H 0.38673 0.49926 0.87875 0.0
H2174 H 0.36126 0.47084 0.95177 0.0
H2175 H 0.36464 0.42199 0.93569 0.0
C2176 C 0.35047 0.31245 0.79487 0.0
C2177 C 0.32385 0.31322 0.79183 0.0
C2178 C 0.36527 0.3291 0.81536 0.0
C2179 C 0.3528 0.3451 0.83389 0.0
C2180 C 0.32654 0.34665 0.83012 0.0
C2181 C 0.31252 0.33142 0.80894 0.0
C2182 C 0.36671 0.35968 0.8574 0.0
C2183 C 0.36702 0.38836 0.86644 0.0
C2184 C 0.37951 0.34549 0.87101 0.0
C2185 C 0.37717 0.31409 0.86451 0.0
C2186 C 0.35076 0.29204 0.86295 0.0
C2187 C 0.34864 0.26252 0.85633 0.0
C2188 C 0.37283 0.25476 0.85152 0.0
C2189 C 0.39918 0.2765 0.85337 0.0
C2190 C 0.40139 0.30606 0.85988 0.0
C2191 C 0.43763 0.40719 0.95751 0.0
C2192 C 0.45713 0.43483 0.95367 0.0
C2193 C 0.41635 0.39352 0.94107 0.0
C2194 C 0.41489 0.40692 0.92013 0.0
C2195 C 0.43413 0.43499 0.9168 0.0
C2196 C 0.45467 0.44909 0.93375 0.0
C2197 C 0.39562 0.39031 0.90025 0.0
C2198 C 0.39442 0.36126 0.89176 0.0
C2199 C 0.38062 0.40355 0.88808 0.0
C2200 C 0.37822 0.4328 0.89783 0.0
C2201 C 0.3842 0.45483 0.88187 0.0
C2202 C 0.38201 0.48238 0.89112 0.0
C2203 C 0.37383 0.48817 0.91631 0.0
C2204 C 0.36768 0.46636 0.93228 0.0
C2205 C 0.36974 0.43873 0.9231 0.0
H2206 H 0.37223 0.50955 0.92346 0.0
H2207 H 0.37118 0.2319 0.84639 0.0
H2208 H 0.69015 0.36653 0.77928 0.0
H2209 H 0.70815 0.40515 0.81427 0.0
H2210 H 0.64002 0.35812 0.8632 0.0
H2211 H 0.62203 0.32007 0.82842 0.0
H2212 H 0.67642 0.43949 0.84658 0.0
H2213 H 0.67271 0.35392 0.91516 0.0
H2214 H 0.68781 0.31073 0.91353 0.0
H2215 H 0.74479 0.33877 0.85048 0.0
H2216 H 0.731 0.3827 0.85227 0.0
H2217 H 0.59166 0.40884 0.94908 0.0
H2218 H 0.62743 0.40067 0.91838 0.0
H2219 H 0.68743 0.48266 0.94786 0.0
H2220 H 0.65139 0.49158 0.97863 0.0
H2221 H 0.69078 0.40638 0.92506 0.0
H2222 H 0.70297 0.50455 0.90828 0.0
H2223 H 0.68806 0.54793 0.90942 0.0
H2224 H 0.61767 0.49558 0.86682 0.0
H2225 H 0.63183 0.45175 0.86595 0.0
C2226 C 0.67895 0.36495 0.7975 0.0
C2227 C 0.65459 0.34085 0.80134 0.0
C2228 C 0.6893 0.3867 0.81736 0.0
C2229 C 0.6757 0.38396 0.84127 0.0
C2230 C 0.65102 0.36021 0.84489 0.0
C2231 C 0.64049 0.33884 0.82504 0.0
C2232 C 0.6857 0.4063 0.86273 0.0
C2233 C 0.68068 0.43292 0.86364 0.0
C2234 C 0.69231 0.39813 0.88469 0.0
C2235 C 0.70078 0.37171 0.88385 0.0
C2236 C 0.68876 0.35115 0.90114 0.0
C2237 C 0.69713 0.32648 0.9002 0.0
C2238 C 0.71737 0.32205 0.88197 0.0
C2239 C 0.72928 0.34227 0.86467 0.0
C2240 C 0.7212 0.36707 0.86565 0.0
C2241 C 0.61253 0.42496 0.94945 0.0
C2242 C 0.61854 0.4511 0.96597 0.0
C2243 C 0.63297 0.42023 0.93192 0.0
C2244 C 0.65978 0.44138 0.93071 0.0
C2245 C 0.66665 0.46643 0.94836 0.0
C2246 C 0.64606 0.47134 0.96592 0.0
C2247 C 0.67865 0.43764 0.909 0.0
C2248 C 0.68874 0.41413 0.90779 0.0
C2249 C 0.67716 0.44888 0.88674 0.0
C2250 C 0.66829 0.4749 0.88732 0.0
C2251 C 0.68413 0.50226 0.89943 0.0
C2252 C 0.67585 0.52691 0.89999 0.0
C2253 C 0.65189 0.52446 0.88828 0.0
C2254 C 0.63618 0.4974 0.87594 0.0
C2255 C 0.64431 0.47265 0.87543 0.0
H2256 H 0.64552 0.54355 0.88875 0.0
H2257 H 0.72378 0.3029 0.88121 0.0
H2258 H 0.69717 0.39926 0.19512 0.0
H2259 H 0.66234 0.41525 0.179 0.0
H2260 H 0.65207 0.34621 0.11688 0.0
H2261 H 0.68823 0.33162 0.13225 0.0
H2262 H 0.65339 0.3909 0.09934 0.0
H2263 H 0.60171 0.34511 0.1694 0.0
H2264 H 0.59139 0.33438 0.21328 0.0
H2265 H 0.59479 0.42366 0.23704 0.0
H2266 H 0.60553 0.43504 0.19333 0.0
H2267 H 0.53133 0.40173 0.06013 0.0
H2268 H 0.55352 0.38216 0.08772 0.0
H2269 H 0.59863 0.47031 0.1196 0.0
H2270 H 0.57717 0.49038 0.0915 0.0
H2271 H 0.57648 0.41415 0.1529 0.0
H2272 H 0.63361 0.45701 0.07842 0.0
H2273 H 0.6381 0.4613 0.0331 0.0
H2274 H 0.6177 0.36752 0.01671 0.0
H2275 H 0.61244 0.36265 0.06197 0.0
C2276 C 0.68732 0.38757 0.17807 0.0
C2277 C 0.69523 0.36433 0.16483 0.0
C2278 C 0.66727 0.39649 0.16896 0.0
C2279 C 0.65413 0.38167 0.14687 0.0
C2280 C 0.66188 0.3581 0.13389 0.0
C2281 C 0.68244 0.3497 0.14266 0.0
C2282 C 0.6333 0.39149 0.13664 0.0
C2283 C 0.63645 0.39557 0.11115 0.0
C2284 C 0.61102 0.39772 0.15181 0.0
C2285 C 0.60464 0.39099 0.17812 0.0
C2286 C 0.60046 0.36251 0.18401 0.0
C2287 C 0.59451 0.3563 0.20884 0.0
C2288 C 0.59249 0.37834 0.22794 0.0
C2289 C 0.59639 0.40662 0.22223 0.0
C2290 C 0.60238 0.41295 0.19743 0.0
C2291 C 0.54509 0.41705 0.07365 0.0
C2292 C 0.55293 0.44769 0.07323 0.0
C2293 C 0.55775 0.40573 0.08943 0.0
C2294 C 0.57785 0.42486 0.1054 0.0
C2295 C 0.58308 0.45529 0.10735 0.0
C2296 C 0.57083 0.46669 0.09124 0.0
C2297 C 0.59707 0.41362 0.11608 0.0
C2298 C 0.59353 0.40932 0.14142 0.0
C2299 C 0.61852 0.40634 0.10069 0.0
C2300 C 0.62236 0.40944 0.07354 0.0
C2301 C 0.62982 0.43729 0.06515 0.0
C2302 C 0.63253 0.43983 0.03948 0.0
C2303 C 0.62815 0.41469 0.02205 0.0
C2304 C 0.62106 0.38697 0.03024 0.0
C2305 C 0.6182 0.38431 0.05588 0.0
H2306 H 0.63035 0.41667 0.00219 0.0
H2307 H 0.58786 0.37348 0.24716 0.0
H2308 H 0.68568 0.72324 0.21282 0.0
H2309 H 0.66335 0.69852 0.17412 0.0
H2310 H 0.70996 0.6382 0.1669 0.0
H2311 H 0.7341 0.66462 0.20455 0.0
H2312 H 0.70797 0.65208 0.12283 0.0
H2313 H 0.6408 0.61809 0.18858 0.0
H2314 H 0.61167 0.62117 0.22769 0.0
H2315 H 0.57043 0.66868 0.19415 0.0
H2316 H 0.59967 0.66633 0.15497 0.0
H2317 H 0.58813 0.54313 0.05408 0.0
H2318 H 0.62453 0.5673 0.08339 0.0
H2319 H 0.62424 0.65215 0.06955 0.0
H2320 H 0.58836 0.6283 0.03943 0.0
H2321 H 0.60454 0.6221 0.1231 0.0
H2322 H 0.67734 0.65391 0.05573 0.0
H2323 H 0.70556 0.64343 0.01784 0.0
H2324 H 0.73381 0.58891 0.0567 0.0
H2325 H 0.70537 0.5987 0.09469 0.0
C2326 C 0.69174 0.70529 0.20252 0.0
C2327 C 0.7123 0.69651 0.211 0.0
C2328 C 0.67862 0.69081 0.18071 0.0
C2329 C 0.68484 0.66636 0.16773 0.0
C2330 C 0.70498 0.65712 0.17653 0.0
C2331 C 0.71855 0.67204 0.19811 0.0
C2332 C 0.66983 0.65023 0.14526 0.0
C2333 C 0.68533 0.6453 0.12298 0.0
C2334 C 0.6403 0.64093 0.14548 0.0
C2335 C 0.62256 0.64224 0.16893 0.0
C2336 C 0.62565 0.62937 0.18961 0.0
C2337 C 0.60911 0.63097 0.21179 0.0
C2338 C 0.58924 0.64516 0.21342 0.0
C2339 C 0.58584 0.65772 0.19286 0.0
C2340 C 0.60237 0.65624 0.17067 0.0
C2341 C 0.59647 0.56692 0.05641 0.0
C2342 C 0.58511 0.58374 0.04448 0.0
C2343 C 0.61736 0.58067 0.07317 0.0
C2344 C 0.62704 0.61137 0.07835 0.0
C2345 C 0.61713 0.62836 0.0654 0.0
C2346 C 0.59651 0.61466 0.04835 0.0
C2347 C 0.64274 0.62514 0.10072 0.0
C2348 C 0.62719 0.62912 0.12306 0.0
C2349 C 0.672 0.63252 0.10069 0.0
C2350 C 0.68898 0.62672 0.07788 0.0
C2351 C 0.68929 0.63939 0.05607 0.0
C2352 C 0.7054 0.63366 0.03461 0.0
C2353 C 0.72139 0.61543 0.03483 0.0
C2354 C 0.72138 0.60297 0.05653 0.0
C2355 C 0.70529 0.60862 0.07802 0.0
H2356 H 0.73387 0.61103 0.01821 0.0
H2357 H 0.57644 0.64637 0.2306 0.0
H2358 H 0.29822 0.65333 0.16934 0.0
H2359 H 0.29552 0.62955 0.1261 0.0
H2360 H 0.35534 0.58945 0.13896 0.0
H2361 H 0.35908 0.61371 0.18171 0.0
H2362 H 0.34305 0.63493 0.09086 0.0
H2363 H 0.32626 0.54184 0.14053 0.0
H2364 H 0.29127 0.50755 0.16654 0.0
H2365 H 0.22878 0.49518 0.11482 0.0
H2366 H 0.2634 0.53018 0.08883 0.0
H2367 H 0.44484 0.59032 0.07176 0.0
H2368 H 0.39834 0.59039 0.08877 0.0
H2369 H 0.36174 0.53777 0.02156 0.0
H2370 H 0.40793 0.53662 0.00492 0.0
H2371 H 0.32978 0.528 0.0751 0.0
H2372 H 0.36194 0.59529 0.01528 0.0
H2373 H 0.40117 0.62593 0.98995 0.0
H2374 H 0.43321 0.68299 0.05625 0.0
H2375 H 0.39459 0.6522 0.08211 0.0
C2376 C 0.31047 0.63902 0.16307 0.0
C2377 C 0.32844 0.63477 0.17911 0.0
C2378 C 0.30836 0.625 0.13858 0.0
C2379 C 0.32311 0.60556 0.13027 0.0
C2380 C 0.3418 0.60223 0.1459 0.0
C2381 C 0.3442 0.61639 0.1702 0.0
C2382 C 0.32336 0.59242 0.10411 0.0
C2383 C 0.33897 0.6114 0.08665 0.0
C2384 C 0.31707 0.5616 0.0982 0.0
C2385 C 0.29691 0.54013 0.11365 0.0
C2386 C 0.3049 0.53266 0.13512 0.0
C2387 C 0.28519 0.51281 0.14974 0.0
C2388 C 0.25766 0.4997 0.14264 0.0
C2389 C 0.24998 0.50574 0.12053 0.0
C2390 C 0.26962 0.52566 0.10593 0.0
C2391 C 0.42677 0.57866 0.06089 0.0
C2392 C 0.42951 0.5644 0.03698 0.0
C2393 C 0.40043 0.57827 0.07057 0.0
C2394 C 0.37719 0.56442 0.05596 0.0
C2395 C 0.37965 0.54846 0.0328 0.0
C2396 C 0.4059 0.54823 0.02337 0.0
C2397 C 0.35178 0.57107 0.06392 0.0
C2398 C 0.33146 0.55109 0.07781 0.0
C2399 C 0.35345 0.60086 0.06619 0.0
C2400 C 0.37493 0.62168 0.05062 0.0
C2401 C 0.37713 0.6146 0.02445 0.0
C2402 C 0.39942 0.63189 0.01 0.0
C2403 C 0.4196 0.65654 0.02147 0.0
C2404 C 0.41743 0.66401 0.04738 0.0
C2405 C 0.39526 0.64669 0.06195 0.0
H2406 H 0.43703 0.66977 0.01034 0.0
H2407 H 0.24235 0.4847 0.15418 0.0
H2408 H 0.28505 0.33321 0.19906 0.0
H2409 H 0.31703 0.36432 0.16898 0.0
H2410 H 0.38121 0.32909 0.17978 0.0
H2411 H 0.34903 0.29643 0.20802 0.0
H2412 H 0.39369 0.39995 0.18182 0.0
H2413 H 0.3657 0.30394 0.13471 0.0
H2414 H 0.33639 0.25685 0.11384 0.0
H2415 H 0.29929 0.30234 0.07338 0.0
H2416 H 0.3274 0.34987 0.09526 0.0
H2417 H 0.48792 0.45392 0.07362 0.0
H2418 H 0.46277 0.42593 0.10839 0.0
H2419 H 0.38445 0.42563 0.08491 0.0
H2420 H 0.40895 0.45293 0.05046 0.0
H2421 H 0.38303 0.3713 0.0906 0.0
H2422 H 0.41341 0.46838 0.13744 0.0
H2423 H 0.44853 0.51489 0.15383 0.0
H2424 H 0.48567 0.4668 0.19133 0.0
H2425 H 0.45095 0.41993 0.17489 0.0
C2426 C 0.30593 0.332 0.19499 0.0
C2427 C 0.31438 0.31235 0.20626 0.0
C2428 C 0.3242 0.34986 0.17786 0.0
C2429 C 0.35151 0.34902 0.17219 0.0
C2430 C 0.3603 0.3302 0.18397 0.0
C2431 C 0.34184 0.31173 0.20041 0.0
C2432 C 0.37065 0.36723 0.15352 0.0
C2433 C 0.39152 0.39363 0.16185 0.0
C2434 C 0.36791 0.35903 0.12749 0.0
C2435 C 0.34832 0.33044 0.11698 0.0
C2436 C 0.35076 0.30392 0.12192 0.0
C2437 C 0.33471 0.27713 0.10951 0.0
C2438 C 0.31649 0.2766 0.09171 0.0
C2439 C 0.31363 0.30281 0.08694 0.0
C2440 C 0.32944 0.32966 0.09952 0.0
C2441 C 0.46536 0.44793 0.07594 0.0
C2442 C 0.45054 0.45543 0.05894 0.0
C2443 C 0.45102 0.43213 0.09594 0.0
C2444 C 0.42167 0.42368 0.09931 0.0
C2445 C 0.40705 0.43176 0.08269 0.0
C2446 C 0.42121 0.44738 0.06286 0.0
C2447 C 0.40543 0.40459 0.11875 0.0
C2448 C 0.38515 0.37782 0.11058 0.0
C2449 C 0.40894 0.41249 0.14478 0.0
C2450 C 0.42978 0.44063 0.15469 0.0
C2451 C 0.42922 0.4677 0.14899 0.0
C2452 C 0.44902 0.49413 0.15834 0.0
C2453 C 0.46938 0.4938 0.17355 0.0
C2454 C 0.46992 0.46702 0.17951 0.0
C2455 C 0.45017 0.44052 0.1702 0.0
H2456 H 0.48468 0.51429 0.18077 0.0
H2457 H 0.3041 0.25588 0.082 0.0
H2458 H 0.77003 0.66487 0.69917 0.0
H2459 H 0.79514 0.63788 0.66961 0.0
H2460 H 0.87106 0.71258 0.67712 0.0
H2461 H 0.84579 0.73989 0.70593 0.0
H2462 H 0.86795 0.69128 0.63002 0.0
H2463 H 0.8585 0.64685 0.70568 0.0
H2464 H 0.83259 0.62223 0.74207 0.0
H2465 H 0.7836 0.54971 0.6926 0.0
H2466 H 0.809 0.57417 0.65596 0.0
H2467 H 0.96699 0.62288 0.57742 0.0
H2468 H 0.93869 0.64714 0.60554 0.0
H2469 H 0.86563 0.57011 0.59324 0.0
H2470 H 0.89403 0.54543 0.5651 0.0
H2471 H 0.86532 0.59114 0.64165 0.0
H2472 H 0.87527 0.63498 0.56596 0.0
H2473 H 0.89982 0.66045 0.52964 0.0
H2474 H 0.94776 0.73384 0.57895 0.0
H2475 H 0.92329 0.70889 0.61562 0.0
C2476 C 0.79203 0.67564 0.69441 0.0
C2477 C 0.80574 0.70471 0.705 0.0
C2478 C 0.80655 0.66001 0.67762 0.0
C2479 C 0.83535 0.67281 0.67113 0.0
C2480 C 0.84897 0.70193 0.68163 0.0
C2481 C 0.83445 0.71757 0.69831 0.0
C2482 C 0.85131 0.65622 0.65336 0.0
C2483 C 0.86759 0.66955 0.63286 0.0
C2484 C 0.85053 0.62739 0.65627 0.0
C2485 C 0.83539 0.6125 0.67816 0.0
C2486 C 0.84203 0.62579 0.70263 0.0
C2487 C 0.82748 0.61185 0.72327 0.0
C2488 C 0.80639 0.58448 0.71965 0.0
C2489 C 0.7999 0.57095 0.69538 0.0
C2490 C 0.81438 0.58482 0.67467 0.0
C2491 C 0.94492 0.61091 0.58061 0.0
C2492 C 0.93301 0.58199 0.56873 0.0
C2493 C 0.92859 0.62502 0.59671 0.0
C2494 C 0.89969 0.61085 0.60148 0.0
C2495 C 0.88778 0.58178 0.58999 0.0
C2496 C 0.90412 0.56763 0.57377 0.0
C2497 C 0.88219 0.62637 0.61847 0.0
C2498 C 0.86563 0.61285 0.63879 0.0
C2499 C 0.88268 0.65504 0.61542 0.0
C2500 C 0.89767 0.66996 0.59349 0.0
C2501 C 0.89121 0.65645 0.56904 0.0
C2502 C 0.90507 0.67081 0.5484 0.0
C2503 C 0.92551 0.69863 0.55196 0.0
C2504 C 0.93198 0.71225 0.57621 0.0
C2505 C 0.91805 0.69807 0.59693 0.0
H2506 H 0.93623 0.70968 0.53594 0.0
H2507 H 0.79514 0.57371 0.73565 0.0
H2508 H 0.35688 0.81088 0.72397 0.0
H2509 H 0.39281 0.83701 0.69425 0.0
H2510 H 0.32873 0.83077 0.64545 0.0
H2511 H 0.2932 0.8009 0.67364 0.0
H2512 H 0.36893 0.82387 0.61781 0.0
H2513 H 0.3659 0.89635 0.68962 0.0
H2514 H 0.3688 0.91507 0.73458 0.0
H2515 H 0.45287 0.91372 0.73193 0.0
H2516 H 0.45035 0.89474 0.68697 0.0
H2517 H 0.41765 0.95093 0.55981 0.0
H2518 H 0.39706 0.91607 0.58992 0.0
H2519 H 0.47825 0.91168 0.59986 0.0
H2520 H 0.49959 0.94709 0.56899 0.0
H2521 H 0.43925 0.91972 0.64681 0.0
H2522 H 0.44277 0.85597 0.571 0.0
H2523 H 0.43763 0.8401 0.5258 0.0
H2524 H 0.34977 0.82788 0.53603 0.0
H2525 H 0.35448 0.84417 0.58124 0.0
C2526 C 0.35058 0.81414 0.70649 0.0
C2527 C 0.32231 0.80287 0.70082 0.0
C2528 C 0.37112 0.82987 0.68974 0.0
C2529 C 0.36367 0.83649 0.66761 0.0
C2530 C 0.33523 0.82592 0.66226 0.0
C2531 C 0.31482 0.80911 0.67856 0.0
C2532 C 0.38518 0.85456 0.65007 0.0
C2533 C 0.38418 0.84485 0.62428 0.0
C2534 C 0.40598 0.88155 0.6583 0.0
C2535 C 0.40783 0.89388 0.68505 0.0
C2536 C 0.38498 0.90002 0.69866 0.0
C2537 C 0.38655 0.91065 0.72413 0.0
C2538 C 0.41098 0.9155 0.73612 0.0
C2539 C 0.43396 0.90992 0.72262 0.0
C2540 C 0.43249 0.89927 0.69715 0.0
C2541 C 0.43143 0.94284 0.56832 0.0
C2542 C 0.46042 0.95198 0.56191 0.0
C2543 C 0.41947 0.92276 0.58556 0.0
C2544 C 0.43606 0.91124 0.59702 0.0
C2545 C 0.46512 0.92041 0.59115 0.0
C2546 C 0.47723 0.94051 0.57348 0.0
C2547 C 0.42206 0.88937 0.61482 0.0
C2548 C 0.42439 0.89837 0.64057 0.0
C2549 C 0.40215 0.86197 0.60659 0.0
C2550 C 0.39903 0.85142 0.57951 0.0
C2551 C 0.42239 0.85005 0.56359 0.0
C2552 C 0.41954 0.84097 0.53797 0.0
C2553 C 0.3934 0.83302 0.52804 0.0
C2554 C 0.37001 0.83404 0.54375 0.0
C2555 C 0.37275 0.84315 0.56939 0.0
H2556 H 0.39125 0.82605 0.50819 0.0
H2557 H 0.41211 0.92362 0.75587 0.0
H2558 H 0.18787 0.32606 0.64202 0.0
H2559 H 0.15048 0.32753 0.61762 0.0
H2560 H 0.13711 0.39659 0.67197 0.0
H2561 H 0.17343 0.39433 0.69668 0.0
H2562 H 0.08928 0.36531 0.65356 0.0
H2563 H 0.18271 0.41129 0.61902 0.0
H2564 H 0.23012 0.41347 0.60175 0.0
H2565 H 0.19491 0.34655 0.54181 0.0
H2566 H 0.14728 0.34369 0.55898 0.0
H2567 H 0.07731 0.46499 0.56799 0.0
H2568 H 0.09565 0.44242 0.5967 0.0
H2569 H 0.05323 0.3563 0.55921 0.0
H2570 H 0.03393 0.37857 0.53094 0.0
H2571 H 0.12404 0.3887 0.56718 0.0
H2572 H 0.02843 0.3481 0.60273 0.0
H2573 H 0.9836 0.35405 0.61991 0.0
H2574 H 0.02593 0.41852 0.67859 0.0
H2575 H 0.07111 0.41343 0.66133 0.0
C2576 C 0.17625 0.34078 0.64915 0.0
C2577 C 0.18387 0.3604 0.67105 0.0
C2578 C 0.15508 0.34186 0.63508 0.0
C2579 C 0.14141 0.36275 0.64256 0.0
C2580 C 0.14736 0.38042 0.6656 0.0
C2581 C 0.16828 0.37921 0.67968 0.0
C2582 C 0.12333 0.36871 0.62546 0.0
C2583 C 0.09687 0.37015 0.63462 0.0
C2584 C 0.13302 0.3753 0.6007 0.0
C2585 C 0.16153 0.37697 0.59044 0.0
C2586 C 0.18512 0.39688 0.60227 0.0
C2587 C 0.21201 0.39826 0.5925 0.0
C2588 C 0.21552 0.38009 0.57075 0.0
C2589 C 0.19215 0.36055 0.55869 0.0
C2590 C 0.16522 0.35902 0.56844 0.0
C2591 C 0.07127 0.44119 0.56627 0.0
C2592 C 0.05408 0.42356 0.54724 0.0
C2593 C 0.0818 0.42835 0.58266 0.0
C2594 C 0.07568 0.39773 0.58011 0.0
C2595 C 0.05791 0.37996 0.56164 0.0
C2596 C 0.04682 0.39273 0.54558 0.0
C2597 C 0.09015 0.3849 0.59524 0.0
C2598 C 0.11614 0.3828 0.58583 0.0
C2599 C 0.08024 0.37821 0.61979 0.0
C2600 C 0.05311 0.38065 0.63058 0.0
C2601 C 0.02819 0.36376 0.61913 0.0
C2602 C 1.00272 0.36694 0.6289 0.0
C2603 C 1.00192 0.38672 0.65028 0.0
C2604 C 0.02658 0.40325 0.662 0.0
C2605 C 0.05212 0.40023 0.65223 0.0
H2606 H 0.98218 0.38918 0.6578 0.0
H2607 H 0.23636 0.3812 0.56319 0.0
H2608 H 0.71319 0.16552 0.70493 0.0
H2609 H 0.69429 0.13555 0.66638 0.0
H2610 H 0.75437 0.19916 0.62271 0.0
H2611 H 0.77392 0.22903 0.6616 0.0
H2612 H 0.69628 0.18742 0.61498 0.0
H2613 H 0.75895 0.13246 0.61369 0.0
H2614 H 0.78249 0.10363 0.63121 0.0
H2615 H 0.70293 0.04043 0.64995 0.0
H2616 H 0.67883 0.06856 0.63234 0.0
H2617 H 0.61428 0.10897 0.51502 0.0
H2618 H 0.6568 0.13272 0.53792 0.0
H2619 H 0.62804 0.0652 0.58781 0.0
H2620 H 0.58699 0.04013 0.56339 0.0
H2621 H 0.67975 0.0815 0.58655 0.0
H2622 H 0.61667 0.13741 0.59842 0.0
H2623 H 0.58865 0.16462 0.58535 0.0
H2624 H 0.66318 0.22579 0.55418 0.0
H2625 H 0.69157 0.19867 0.56681 0.0
C2626 C 0.72286 0.17268 0.68707 0.0
C2627 C 0.74495 0.19951 0.68611 0.0
C2628 C 0.71215 0.15548 0.66506 0.0
C2629 C 0.72297 0.16502 0.64165 0.0
C2630 C 0.74588 0.19127 0.64059 0.0
C2631 C 0.75707 0.20824 0.66272 0.0
C2632 C 0.70748 0.14966 0.61903 0.0
C2633 C 0.69328 0.16447 0.6082 0.0
C2634 C 0.70264 0.11944 0.61099 0.0
C2635 C 0.71709 0.10267 0.62178 0.0
C2636 C 0.74647 0.11251 0.62169 0.0
C2637 C 0.75992 0.0963 0.6316 0.0
C2638 C 0.74425 0.0704 0.64183 0.0
C2639 C 0.71506 0.06052 0.64204 0.0
C2640 C 0.70149 0.07649 0.63198 0.0
C2641 C 0.61758 0.09884 0.53044 0.0
C2642 C 0.59741 0.07282 0.53754 0.0
C2643 C 0.6417 0.1126 0.54377 0.0
C2644 C 0.64534 0.10155 0.56535 0.0
C2645 C 0.6259 0.07448 0.57142 0.0
C2646 C 0.60235 0.06009 0.55746 0.0
C2647 C 0.66784 0.11905 0.58273 0.0
C2648 C 0.68322 0.10465 0.59273 0.0
C2649 C 0.67309 0.1495 0.59075 0.0
C2650 C 0.65613 0.16584 0.58324 0.0
C2651 C 0.62702 0.15657 0.58865 0.0
C2652 C 0.61109 0.17196 0.58133 0.0
C2653 C 0.62412 0.19686 0.56887 0.0
C2654 C 0.65312 0.20646 0.56377 0.0
C2655 C 0.66913 0.19109 0.57099 0.0
H2656 H 0.61175 0.20876 0.56322 0.0
H2657 H 0.75476 0.05794 0.6495 0.0
H2658 H 0.81028 0.35521 0.28864 0.0
H2659 H 0.83357 0.38728 0.32514 0.0
H2660 H 0.7981 0.31546 0.37018 0.0
H2661 H 0.77586 0.28334 0.33378 0.0
H2662 H 0.82069 0.40653 0.37547 0.0
H2663 H 0.84674 0.30807 0.39939 0.0
H2664 H 0.8525 0.26181 0.3781 0.0
H2665 H 0.87878 0.30076 0.30939 0.0
H2666 H 0.87293 0.34712 0.33021 0.0
H2667 H 0.9191 0.39899 0.47737 0.0
H2668 H 0.87902 0.37827 0.45119 0.0
H2669 H 0.9063 0.45764 0.41482 0.0
H2670 H 0.94493 0.47909 0.44236 0.0
H2671 H 0.88616 0.36456 0.40491 0.0
H2672 H 0.85824 0.4612 0.37916 0.0
H2673 H 0.8558 0.50937 0.39897 0.0
H2674 H 0.83717 0.4772 0.4709 0.0
H2675 H 0.83924 0.42878 0.45149 0.0
C2676 C 0.80708 0.34662 0.30652 0.0
C2677 C 0.79184 0.31682 0.30847 0.0
C2678 C 0.82023 0.36491 0.32732 0.0
C2679 C 0.81791 0.35355 0.3502 0.0
C2680 C 0.80052 0.32449 0.35258 0.0
C2681 C 0.78793 0.30616 0.3318 0.0
C2682 C 0.8365 0.37023 0.37049 0.0
C2683 C 0.83512 0.39754 0.38195 0.0
C2684 C 0.85526 0.35846 0.37889 0.0
C2685 C 0.85924 0.33089 0.3663 0.0
C2686 C 0.85379 0.30672 0.37974 0.0
C2687 C 0.85694 0.28047 0.36773 0.0
C2688 C 0.86579 0.27828 0.34234 0.0
C2689 C 0.87162 0.30238 0.32895 0.0
C2690 C 0.86833 0.32862 0.34083 0.0
C2691 C 0.91574 0.41236 0.46447 0.0
C2692 C 0.93495 0.44051 0.46175 0.0
C2693 C 0.89298 0.40052 0.44942 0.0
C2694 C 0.88959 0.41624 0.43084 0.0
C2695 C 0.90791 0.44519 0.42927 0.0
C2696 C 0.93013 0.45743 0.44495 0.0
C2697 C 0.86989 0.40068 0.41092 0.0
C2698 C 0.8714 0.37357 0.39905 0.0
C2699 C 0.85158 0.41293 0.40216 0.0
C2700 C 0.84902 0.44145 0.41388 0.0
C2701 C 0.85337 0.46434 0.39917 0.0
C2702 C 0.85215 0.49171 0.41033 0.0
C2703 C 0.84638 0.49636 0.43618 0.0
C2704 C 0.8417 0.4736 0.45089 0.0
C2705 C 0.84292 0.4462 0.43983 0.0
H2706 H 0.84552 0.51758 0.44479 0.0
H2707 H 0.86824 0.25794 0.33307 0.0
H2708 H 0.74956 0.84439 0.29134 0.0
H2709 H 0.72445 0.87169 0.3208 0.0
H2710 H 0.6641 0.78969 0.34009 0.0
H2711 H 0.68927 0.76242 0.31085 0.0
H2712 H 0.63993 0.83156 0.32944 0.0
H2713 H 0.70838 0.82749 0.38317 0.0
H2714 H 0.75605 0.83476 0.39474 0.0
H2715 H 0.78089 0.92673 0.38633 0.0
H2716 H 0.73318 0.92013 0.37519 0.0
H2717 H 0.56453 0.88263 0.43238 0.0
H2718 H 0.59206 0.85765 0.40424 0.0
H2719 H 0.66122 0.93928 0.40356 0.0
H2720 H 0.63396 0.96426 0.43281 0.0
H2721 H 0.68237 0.899 0.40353 0.0
H2722 H 0.61495 0.90556 0.35237 0.0
H2723 H 0.56825 0.90031 0.33972 0.0
H2724 H 0.54297 0.80644 0.33897 0.0
H2725 H 0.58942 0.81117 0.35197 0.0
C2726 C 0.73107 0.83218 0.30201 0.0
C2727 C 0.72184 0.80116 0.29914 0.0
C2728 C 0.71674 0.84784 0.31892 0.0
C2729 C 0.69244 0.83287 0.33299 0.0
C2730 C 0.68287 0.80187 0.32971 0.0
C2731 C 0.69747 0.78626 0.31314 0.0
C2732 C 0.67663 0.84945 0.3506 0.0
C2733 C 0.64907 0.846 0.34584 0.0
C2734 C 0.68874 0.86922 0.37152 0.0
C2735 C 0.71737 0.87325 0.37809 0.0
C2736 C 0.72408 0.84921 0.38363 0.0
C2737 C 0.75107 0.85322 0.39014 0.0
C2738 C 0.77158 0.88109 0.39097 0.0
C2739 C 0.76502 0.90512 0.38558 0.0
C2740 C 0.73798 0.9013 0.37931 0.0
C2741 C 0.58556 0.89546 0.42624 0.0
C2742 C 0.59675 0.92572 0.43487 0.0
C2743 C 0.60136 0.88105 0.40987 0.0
C2744 C 0.62874 0.89647 0.40095 0.0
C2745 C 0.64018 0.92664 0.40984 0.0
C2746 C 0.62447 0.94103 0.42659 0.0
C2747 C 0.64526 0.88101 0.38263 0.0
C2748 C 0.67305 0.88467 0.38716 0.0
C2749 C 0.63349 0.86176 0.36118 0.0
C2750 C 0.60554 0.85877 0.35342 0.0
C2751 C 0.59935 0.88382 0.3497 0.0
C2752 C 0.57294 0.88094 0.34244 0.0
C2753 C 0.55262 0.85307 0.33863 0.0
C2754 C 0.55871 0.82801 0.34199 0.0
C2755 C 0.58508 0.83078 0.34929 0.0
H2756 H 0.53219 0.85089 0.33301 0.0
H2757 H 0.79248 0.88408 0.39593 0.0
H2758 H 0.20884 0.67157 0.28606 0.0
H2759 H 0.17569 0.64313 0.31653 0.0
H2760 H 0.17179 0.72359 0.35998 0.0
H2761 H 0.2059 0.75232 0.32978 0.0
H2762 H 0.17421 0.68316 0.39016 0.0
H2763 H 0.1194 0.68451 0.32513 0.0
H2764 H 0.10645 0.67975 0.28167 0.0
H2765 H 0.09766 0.58796 0.27222 0.0
H2766 H 0.11099 0.59218 0.3155 0.0
H2767 H 0.05555 0.59448 0.46216 0.0
H2768 H 0.07992 0.63143 0.43333 0.0
H2769 H 0.10728 0.56646 0.38491 0.0
H2770 H 0.08379 0.52998 0.41386 0.0
H2771 H 0.08841 0.60495 0.35934 0.0
H2772 H 0.14985 0.60724 0.42331 0.0
H2773 H 0.16084 0.61215 0.46742 0.0
H2774 H 0.15492 0.69908 0.47943 0.0
H2775 H 0.14334 0.69444 0.43545 0.0
C2776 C 0.20135 0.68328 0.30228 0.0
C2777 C 0.21021 0.71422 0.30555 0.0
C2778 C 0.18211 0.66696 0.31959 0.0
C2779 C 0.17097 0.68115 0.34047 0.0
C2780 C 0.18005 0.71211 0.34403 0.0
C2781 C 0.1994 0.72849 0.32666 0.0
C2782 C 0.14955 0.66334 0.35816 0.0
C2783 C 0.15518 0.66649 0.38351 0.0
C2784 C 0.12469 0.64147 0.34956 0.0
C2785 C 0.1164 0.63871 0.32355 0.0
C2786 C 0.11491 0.66334 0.31375 0.0
C2787 C 0.10748 0.66075 0.28915 0.0
C2788 C 0.10131 0.63361 0.27419 0.0
C2789 C 0.10247 0.60897 0.28383 0.0
C2790 C 0.10993 0.61144 0.30841 0.0
C2791 C 0.06618 0.58799 0.44503 0.0
C2792 C 0.06774 0.5594 0.44014 0.0
C2793 C 0.08022 0.60911 0.42868 0.0
C2794 C 0.09551 0.60169 0.40702 0.0
C2795 C 0.09558 0.57264 0.40145 0.0
C2796 C 0.08218 0.55184 0.418 0.0
C2797 C 0.11341 0.62439 0.39106 0.0
C2798 C 0.10717 0.62205 0.36603 0.0
C2799 C 0.13752 0.64716 0.40002 0.0
C2800 C 0.14536 0.65034 0.4262 0.0
C2801 C 0.15068 0.62732 0.43541 0.0
C2802 C 0.15704 0.63005 0.46037 0.0
C2803 C 0.15848 0.65587 0.47624 0.0
C2804 C 0.15373 0.67907 0.46713 0.0
C2805 C 0.14726 0.6764 0.44218 0.0
H2806 H 0.16336 0.65793 0.49557 0.0
H2807 H 0.09557 0.63167 0.25514 0.0
H2808 H 0.42584 0.21229 0.308 0.0
H2809 H 0.44702 0.19354 0.33736 0.0
H2810 H 0.36639 0.12966 0.35443 0.0
H2811 H 0.345 0.14983 0.32618 0.0
H2812 H 0.39079 0.14685 0.39474 0.0
H2813 H 0.42201 0.11447 0.31235 0.0
H2814 H 0.44411 0.11992 0.26964 0.0
H2815 H 0.52216 0.17459 0.3 0.0
H2816 H 0.50038 0.16983 0.3429 0.0
H2817 H 0.43645 0.04592 0.44311 0.0
H2818 H 0.42028 0.06842 0.41318 0.0
H2819 H 0.49706 0.14231 0.41693 0.0
H2820 H 0.51357 0.12 0.44732 0.0
H2821 H 0.47676 0.12182 0.36705 0.0
H2822 H 0.44372 0.15096 0.45019 0.0
H2823 H 0.42051 0.14164 0.49205 0.0
H2824 H 0.34393 0.08826 0.45852 0.0
H2825 H 0.36684 0.09685 0.41642 0.0
C2826 C 0.41268 0.19441 0.31824 0.0
C2827 C 0.38384 0.1824 0.3148 0.0
C2828 C 0.42481 0.18346 0.33485 0.0
C2829 C 0.40856 0.15953 0.34777 0.0
C2830 C 0.37953 0.14802 0.34473 0.0
C2831 C 0.36727 0.1595 0.32857 0.0
C2832 C 0.42172 0.14639 0.36428 0.0
C2833 C 0.40938 0.14111 0.38843 0.0
C2834 C 0.44639 0.13924 0.35654 0.0
C2835 C 0.45951 0.14201 0.3308 0.0
C2836 C 0.44384 0.12781 0.3099 0.0
C2837 C 0.4563 0.13077 0.28566 0.0
C2838 C 0.48451 0.14765 0.28211 0.0
C2839 C 0.50031 0.16156 0.30278 0.0
C2840 C 0.48792 0.15873 0.32706 0.0
C2841 C 0.45021 0.06679 0.43743 0.0
C2842 C 0.47626 0.08128 0.44798 0.0
C2843 C 0.44081 0.07966 0.4203 0.0
C2844 C 0.45724 0.10726 0.41311 0.0
C2845 C 0.48397 0.12106 0.42234 0.0
C2846 C 0.49336 0.10827 0.43973 0.0
C2847 C 0.4456 0.12219 0.39711 0.0
C2848 C 0.45822 0.12775 0.37319 0.0
C2849 C 0.42096 0.12916 0.40487 0.0
C2850 C 0.40704 0.12439 0.43017 0.0
C2851 C 0.42198 0.13708 0.45174 0.0
C2852 C 0.40888 0.13194 0.47551 0.0
C2853 C 0.38077 0.11433 0.47795 0.0
C2854 C 0.3657 0.10188 0.45661 0.0
C2855 C 0.37872 0.1069 0.43279 0.0
H2856 H 0.37066 0.11038 0.49637 0.0
H2857 H 0.49413 0.14989 0.26333 0.0
H2858 H 0.67531 0.86564 0.68834 0.0
H2859 H 0.65696 0.88976 0.66097 0.0
H2860 H 0.60614 0.80456 0.62712 0.0
H2861 H 0.62577 0.78056 0.65365 0.0
H2862 H 0.62368 0.84002 0.59285 0.0
H2863 H 0.58065 0.84689 0.67578 0.0
H2864 H 0.58109 0.85911 0.72169 0.0
H2865 H 0.62329 0.95049 0.71306 0.0
H2866 H 0.62362 0.93872 0.66706 0.0
H2867 H 0.52773 0.88968 0.54328 0.0
H2868 H 0.54475 0.86629 0.57217 0.0
H2869 H 0.6071 0.94961 0.59506 0.0
H2870 H 0.59041 0.97321 0.56612 0.0
H2871 H 0.58236 0.91475 0.63514 0.0
H2872 H 0.62609 0.90644 0.55183 0.0
H2873 H 0.62575 0.89326 0.506 0.0
H2874 H 0.58025 0.80286 0.516 0.0
H2875 H 0.5799 0.81563 0.56193 0.0
C2876 C 0.66071 0.85221 0.67461 0.0
C2877 C 0.65193 0.82139 0.67288 0.0
C2878 C 0.65 0.86591 0.65918 0.0
C2879 C 0.62959 0.84899 0.64239 0.0
C2880 C 0.62176 0.8181 0.63995 0.0
C2881 C 0.63295 0.8044 0.65504 0.0
C2882 C 0.61547 0.86341 0.62825 0.0
C2883 C 0.61433 0.85603 0.6022 0.0
C2884 C 0.60346 0.8846 0.64032 0.0
C2885 C 0.60229 0.8919 0.66797 0.0
C2886 C 0.59008 0.86958 0.68367 0.0
C2887 C 0.59024 0.87641 0.70971 0.0
C2888 C 0.60225 0.90555 0.72029 0.0
C2889 C 0.61402 0.92792 0.70484 0.0
C2890 C 0.61402 0.92119 0.67878 0.0
C2891 C 0.54465 0.90321 0.55484 0.0
C2892 C 0.55793 0.93328 0.55213 0.0
C2893 C 0.55441 0.88976 0.57128 0.0
C2894 C 0.57742 0.90617 0.58548 0.0
C2895 C 0.58937 0.93656 0.58421 0.0
C2896 C 0.57983 0.94998 0.56759 0.0
C2897 C 0.59061 0.89125 0.59989 0.0
C2898 C 0.59159 0.89857 0.62593 0.0
C2899 C 0.60222 0.8698 0.58787 0.0
C2900 C 0.60274 0.86202 0.56029 0.0
C2901 C 0.61583 0.88379 0.54425 0.0
C2902 C 0.61578 0.87639 0.51826 0.0
C2903 C 0.60294 0.84725 0.50809 0.0
C2904 C 0.59016 0.82543 0.5239 0.0
C2905 C 0.59009 0.83273 0.54991 0.0
H2906 H 0.60293 0.84156 0.48797 0.0
H2907 H 0.60241 0.91079 0.74045 0.0
H2908 H 0.70505 0.24604 0.32226 0.0
H2909 H 0.66942 0.21735 0.35098 0.0
H2910 H 0.67182 0.13699 0.30618 0.0
H2911 H 0.70569 0.16588 0.27617 0.0
H2912 H 0.6201 0.1306 0.322 0.0
H2913 H 0.70815 0.16622 0.3609 0.0
H2914 H 0.75122 0.20423 0.3763 0.0
H2915 H 0.70204 0.2463 0.4273 0.0
H2916 H 0.65864 0.20875 0.41195 0.0
H2917 H 0.59153 0.03245 0.4147 0.0
H2918 H 0.61206 0.06626 0.38309 0.0
H2919 H 0.57706 0.12939 0.42504 0.0
H2920 H 0.55582 0.09514 0.45662 0.0
H2921 H 0.6398 0.14828 0.41198 0.0
H2922 H 0.55113 0.10598 0.37526 0.0
H2923 H 0.50993 0.0651 0.35992 0.0
H2924 H 0.56266 0.03209 0.30504 0.0
H2925 H 0.60427 0.07258 0.32028 0.0
C2926 C 0.6974 0.22231 0.31816 0.0
C2927 C 0.70778 0.20827 0.29675 0.0
C2928 C 0.67734 0.20587 0.33481 0.0
C2929 C 0.66813 0.17493 0.33096 0.0
C2930 C 0.67849 0.16082 0.30953 0.0
C2931 C 0.69809 0.17734 0.29255 0.0
C2932 C 0.64866 0.15726 0.34975 0.0
C2933 C 0.62449 0.13442 0.34164 0.0
C2934 C 0.65406 0.16254 0.37552 0.0
C2935 C 0.68014 0.18484 0.3851 0.0
C2936 C 0.70652 0.18367 0.37531 0.0
C2937 C 0.73099 0.20512 0.38403 0.0
C2938 C 0.72937 0.22772 0.40272 0.0
C2939 C 0.70326 0.22882 0.4128 0.0
C2940 C 0.67872 0.20744 0.40411 0.0
C2941 C 0.58777 0.05332 0.41693 0.0
C2942 C 0.57205 0.06123 0.43799 0.0
C2943 C 0.59943 0.07253 0.39887 0.0
C2944 C 0.59601 0.10022 0.40178 0.0
C2945 C 0.57976 0.108 0.42249 0.0
C2946 C 0.56752 0.08841 0.44036 0.0
C2947 C 0.61157 0.1216 0.38412 0.0
C2948 C 0.63515 0.14496 0.39242 0.0
C2949 C 0.6059 0.11645 0.35852 0.0
C2950 C 0.58088 0.09224 0.34905 0.0
C2951 C 0.55399 0.0899 0.36004 0.0
C2952 C 0.53054 0.06681 0.35134 0.0
C2953 C 0.53368 0.04597 0.33155 0.0
C2954 C 0.56027 0.04824 0.32037 0.0
C2955 C 0.58379 0.0713 0.32901 0.0
H2956 H 0.51551 0.02808 0.32486 0.0
H2957 H 0.74833 0.24433 0.40943 0.0
H2958 H 0.89133 0.69463 0.32207 0.0
H2959 H 0.92017 0.68243 0.34956 0.0
H2960 H 0.85056 0.60516 0.36592 0.0
H2961 H 0.82185 0.61755 0.33863 0.0
H2962 H 0.87761 0.63198 0.40745 0.0
H2963 H 0.90088 0.59995 0.32266 0.0
H2964 H 0.91594 0.60544 0.27823 0.0
H2965 H 0.99525 0.66794 0.29957 0.0
H2966 H 0.98041 0.66327 0.3442 0.0
H2967 H 0.93639 0.53538 0.44128 0.0
H2968 H 0.91855 0.55716 0.41209 0.0
H2969 H 0.98732 0.63845 0.42445 0.0
H2970 H 1.00542 0.61691 0.45432 0.0
H2971 H 0.96488 0.61497 0.36982 0.0
H2972 H 0.9393 0.64315 0.45652 0.0
H2973 H 0.92302 0.63092 0.49941 0.0
H2974 H 0.8456 0.56969 0.47251 0.0
H2975 H 0.86191 0.58078 0.42925 0.0
C2976 C 0.88221 0.6754 0.33198 0.0
C2977 C 0.85452 0.65705 0.32856 0.0
C2978 C 0.89864 0.66834 0.3475 0.0
C2979 C 0.88755 0.64276 0.35963 0.0
C2980 C 0.8595 0.62504 0.35683 0.0
C2981 C 0.84314 0.63207 0.34129 0.0
C2982 C 0.90541 0.63349 0.37427 0.0
C2983 C 0.8967 0.62836 0.39919 0.0
C2984 C 0.93039 0.62881 0.36356 0.0
C2985 C 0.93942 0.63154 0.33676 0.0
C2986 C 0.92144 0.61507 0.31789 0.0
C2987 C 0.92993 0.61801 0.29267 0.0
C2988 C 0.95651 0.63709 0.28608 0.0
C2989 C 0.97465 0.65323 0.3047 0.0
C2990 C 0.9662 0.65046 0.32996 0.0
C2991 C 0.94818 0.55772 0.43754 0.0
C2992 C 0.97209 0.57462 0.45057 0.0
C2993 C 0.93796 0.57005 0.42071 0.0
C2994 C 0.95152 0.59941 0.41635 0.0
C2995 C 0.97666 0.61569 0.42762 0.0
C2996 C 0.98689 0.60339 0.44472 0.0
C2997 C 0.93707 0.61374 0.40284 0.0
C2998 C 0.9462 0.61944 0.37816 0.0
C2999 C 0.91223 0.61856 0.41358 0.0
C3000 C 0.90187 0.61273 0.43966 0.0
C3001 C 0.91887 0.62695 0.45973 0.0
C3002 C 0.90965 0.62021 0.48411 0.0
C3003 C 0.88324 0.59963 0.48872 0.0
C3004 C 0.86604 0.58568 0.46892 0.0
C3005 C 0.87528 0.59215 0.44446 0.0
H3006 H 0.87612 0.59449 0.50763 0.0
H3007 H 0.96308 0.6393 0.26655 0.0
H3008 H 0.27353 0.78778 0.33563 0.0
H3009 H 0.30019 0.81746 0.37077 0.0
H3010 H 0.33979 0.88792 0.32469 0.0
H3011 H 0.31566 0.85624 0.28868 0.0
H3012 H 0.37709 0.88431 0.34703 0.0
H3013 H 0.2854 0.88598 0.38 0.0
H3014 H 0.23535 0.86173 0.39029 0.0
H3015 H 0.25493 0.81256 0.44111 0.0
H3016 H 0.30534 0.83644 0.4309 0.0
H3017 H 0.44565 0.98454 0.4466 0.0
H3018 H 0.4069 0.96228 0.41886 0.0
H3019 H 0.38883 0.87876 0.44684 0.0
H3020 H 0.42788 0.90066 0.47416 0.0
H3021 H 0.33958 0.89249 0.43541 0.0
H3022 H 0.42868 0.88585 0.39976 0.0
H3023 H 0.47925 0.90663 0.38866 0.0
H3024 H 0.46376 0.96392 0.343 0.0
H3025 H 0.41306 0.94373 0.3542 0.0
C3026 C 0.28761 0.80985 0.33328 0.0
C3027 C 0.2927 0.81992 0.30969 0.0
C3028 C 0.30271 0.82705 0.35347 0.0
C3029 C 0.32182 0.8555 0.35086 0.0
C3030 C 0.32542 0.8661 0.32739 0.0
C3031 C 0.31143 0.84822 0.30687 0.0
C3032 C 0.33968 0.87323 0.37176 0.0
C3033 C 0.3685 0.88664 0.36617 0.0
C3034 C 0.32915 0.87566 0.39715 0.0
C3035 C 0.29906 0.86284 0.40456 0.0
C3036 C 0.27902 0.87006 0.39342 0.0
C3037 C 0.25056 0.85627 0.39919 0.0
C3038 C 0.24186 0.83538 0.4162 0.0
C3039 C 0.26168 0.82866 0.42786 0.0
C3040 C 0.29021 0.84237 0.42215 0.0
C3041 C 0.43281 0.96171 0.44746 0.0
C3042 C 0.43987 0.94424 0.46235 0.0
C3043 C 0.41078 0.949 0.43154 0.0
C3044 C 0.39522 0.91884 0.43068 0.0
C3045 C 0.40057 0.90207 0.44727 0.0
C3046 C 0.42291 0.91459 0.4628 0.0
C3047 C 0.37628 0.90385 0.41023 0.0
C3048 C 0.34762 0.89072 0.41603 0.0
C3049 C 0.38684 0.90165 0.38503 0.0
C3050 C 0.41719 0.91357 0.37804 0.0
C3051 C 0.4361 0.90306 0.38753 0.0
C3052 C 0.46477 0.91469 0.3812 0.0
C3053 C 0.47472 0.93664 0.36519 0.0
C3054 C 0.45601 0.94695 0.35543 0.0
C3055 C 0.42732 0.93542 0.36176 0.0
H3056 H 0.49693 0.94561 0.36029 0.0
H3057 H 0.2198 0.82429 0.42034 0.0
H3058 H 0.25943 0.33741 0.30809 0.0
H3059 H 0.23407 0.36544 0.33595 0.0
H3060 H 0.1557 0.29855 0.31608 0.0
H3061 H 0.18108 0.27218 0.2867 0.0
H3062 H 0.14488 0.34255 0.31954 0.0
H3063 H 0.19006 0.31678 0.38448 0.0
H3064 H 0.22882 0.31437 0.4068 0.0
H3065 H 0.27122 0.40709 0.40439 0.0
H3066 H 0.23211 0.41014 0.38287 0.0
H3067 H 0.05842 0.38199 0.42096 0.0
H3068 H 0.08691 0.35877 0.39206 0.0
H3069 H 0.15921 0.43669 0.40445 0.0
H3070 H 0.13085 0.45984 0.4341 0.0
H3071 H 0.1744 0.39103 0.40399 0.0
H3072 H 0.12088 0.41541 0.34781 0.0
H3073 H 0.07772 0.41575 0.33135 0.0
H3074 H 0.04828 0.32118 0.31888 0.0
H3075 H 0.09113 0.32027 0.33555 0.0
C3076 C 0.23678 0.32877 0.30971 0.0
C3077 C 0.22235 0.30265 0.29492 0.0
C3078 C 0.22211 0.34465 0.32606 0.0
C3079 C 0.19254 0.33424 0.329 0.0
C3080 C 0.17832 0.30772 0.31441 0.0
C3081 C 0.19292 0.29244 0.29749 0.0
C3082 C 0.17616 0.35108 0.34621 0.0
C3083 C 0.15131 0.35257 0.33817 0.0
C3084 C 0.18437 0.36559 0.37038 0.0
C3085 C 0.20852 0.36356 0.3818 0.0
C3086 C 0.20778 0.33655 0.38857 0.0
C3087 C 0.22963 0.33516 0.4013 0.0
C3088 C 0.25256 0.36054 0.40688 0.0
C3089 C 0.2535 0.38745 0.4 0.0
C3090 C 0.2314 0.38908 0.38774 0.0
C3091 C 0.08034 0.39441 0.41751 0.0
C3092 C 0.09212 0.42304 0.42997 0.0
C3093 C 0.09669 0.38105 0.40071 0.0
C3094 C 0.12533 0.39599 0.39541 0.0
C3095 C 0.13721 0.42454 0.40793 0.0
C3096 C 0.12088 0.43787 0.42492 0.0
C3097 C 0.14295 0.38152 0.37753 0.0
C3098 C 0.16806 0.38079 0.38537 0.0
C3099 C 0.13468 0.36727 0.35337 0.0
C3100 C 0.10908 0.36779 0.34313 0.0
C3101 C 0.10512 0.39469 0.34169 0.0
C3102 C 0.08073 0.39498 0.33231 0.0
C3103 C 0.06024 0.3685 0.32413 0.0
C3104 C 0.06415 0.34167 0.32524 0.0
C3105 C 0.0885 0.34126 0.33463 0.0
H3106 H 0.04136 0.36878 0.3169 0.0
H3107 H 0.26958 0.35934 0.41656 0.0
H3108 H 0.34107 0.25346 0.68441 0.0
H3109 H 0.36736 0.22727 0.65572 0.0
H3110 H 0.31555 0.14529 0.68257 0.0
H3111 H 0.29023 0.17177 0.71206 0.0
H3112 H 0.36205 0.14108 0.67636 0.0
H3113 H 0.31281 0.16806 0.61953 0.0
H3114 H 0.29544 0.19911 0.59805 0.0
H3115 H 0.37993 0.2512 0.57792 0.0
H3116 H 0.39779 0.22032 0.59925 0.0
H3117 H 0.40472 0.05164 0.57105 0.0
H3118 H 0.37729 0.07694 0.59986 0.0
H3119 H 0.44311 0.15998 0.59337 0.0
H3120 H 0.47078 0.13493 0.56504 0.0
H3121 H 0.38906 0.16217 0.58847 0.0
H3122 H 0.43539 0.12805 0.64512 0.0
H3123 H 0.44755 0.09006 0.66231 0.0
H3124 H 0.36046 0.04437 0.67954 0.0
H3125 H 0.34778 0.08189 0.66212 0.0
C3126 C 0.33512 0.22984 0.68406 0.0
C3127 C 0.31336 0.21485 0.70058 0.0
C3128 C 0.35014 0.21467 0.66743 0.0
C3129 C 0.34339 0.18385 0.66625 0.0
C3130 C 0.32157 0.16894 0.68282 0.0
C3131 C 0.30694 0.18418 0.69978 0.0
C3132 C 0.35938 0.16727 0.64842 0.0
C3133 C 0.36743 0.14556 0.65706 0.0
C3134 C 0.36709 0.17276 0.62307 0.0
C3135 C 0.3566 0.19211 0.61118 0.0
C3136 C 0.32766 0.18631 0.61072 0.0
C3137 C 0.31775 0.20377 0.59846 0.0
C3138 C 0.33658 0.2271 0.58661 0.0
C3139 C 0.36538 0.23308 0.58707 0.0
C3140 C 0.37541 0.21557 0.59918 0.0
C3141 C 0.41343 0.07527 0.57578 0.0
C3142 C 0.44015 0.09109 0.56566 0.0
C3143 C 0.3977 0.08975 0.59236 0.0
C3144 C 0.40808 0.12048 0.59901 0.0
C3145 C 0.43454 0.13632 0.58866 0.0
C3146 C 0.45045 0.12185 0.57247 0.0
C3147 C 0.39146 0.13628 0.61653 0.0
C3148 C 0.38345 0.15783 0.60781 0.0
C3149 C 0.38302 0.12995 0.6415 0.0
C3150 C 0.39065 0.10756 0.65208 0.0
C3151 C 0.41884 0.10976 0.65239 0.0
C3152 C 0.42582 0.08835 0.66221 0.0
C3153 C 0.40479 0.06477 0.67194 0.0
C3154 C 0.37673 0.06261 0.67195 0.0
C3155 C 0.36963 0.08395 0.66213 0.0
H3156 H 0.41024 0.0482 0.67952 0.0
H3157 H 0.32887 0.24058 0.57708 0.0
H3158 H 0.84662 0.31809 0.72931 0.0
H3159 H 0.88304 0.34223 0.69889 0.0
H3160 H 0.82054 0.32853 0.64628 0.0
H3161 H 0.78389 0.30345 0.67647 0.0
H3162 H 0.86599 0.31672 0.62348 0.0
H3163 H 0.8495 0.39593 0.68185 0.0
H3164 H 0.84601 0.42149 0.72438 0.0
H3165 H 0.93167 0.43231 0.73409 0.0
H3166 H 0.93555 0.4065 0.69166 0.0
H3167 H 0.91377 0.42716 0.54598 0.0
H3168 H 0.8921 0.39377 0.57726 0.0
H3169 H 0.9717 0.41613 0.60948 0.0
H3170 H 0.99394 0.45 0.57752 0.0
H3171 H 0.92681 0.42023 0.64484 0.0
H3172 H 0.94574 0.34923 0.5833 0.0
H3173 H 0.94917 0.32296 0.54113 0.0
H3174 H 0.85995 0.2957 0.53755 0.0
H3175 H 0.856 0.32226 0.57955 0.0
C3176 C 0.84055 0.32012 0.71125 0.0
C3177 C 0.81229 0.30896 0.70535 0.0
C3178 C 0.86145 0.33404 0.6939 0.0
C3179 C 0.85455 0.33754 0.6704 0.0
C3180 C 0.82637 0.3261 0.66432 0.0
C3181 C 0.80541 0.31195 0.68164 0.0
C3182 C 0.87656 0.35358 0.65229 0.0
C3183 C 0.87917 0.3394 0.62809 0.0
C3184 C 0.89472 0.38273 0.65864 0.0
C3185 C 0.89272 0.39908 0.68374 0.0
C3186 C 0.86755 0.4037 0.69311 0.0
C3187 C 0.86551 0.41821 0.71718 0.0
C3188 C 0.88859 0.42845 0.73195 0.0
C3189 C 0.91381 0.42434 0.72263 0.0
C3190 C 0.91596 0.40981 0.69856 0.0
C3191 C 0.92685 0.42484 0.55953 0.0
C3192 C 0.95552 0.44142 0.55945 0.0
C3193 C 0.91441 0.40556 0.57733 0.0
C3194 C 0.93024 0.40236 0.59567 0.0
C3195 C 0.95913 0.41829 0.59543 0.0
C3196 C 0.97181 0.43746 0.57716 0.0
C3197 C 0.91547 0.38371 0.61571 0.0
C3198 C 0.91412 0.39734 0.64033 0.0
C3199 C 0.89851 0.35401 0.60979 0.0
C3200 C 0.90062 0.3379 0.58453 0.0
C3201 C 0.92687 0.33783 0.57344 0.0
C3202 C 0.9289 0.32286 0.54958 0.0
C3203 C 0.90479 0.3077 0.53665 0.0
C3204 C 0.8786 0.30745 0.54759 0.0
C3205 C 0.87645 0.32244 0.57145 0.0
H3206 H 0.90642 0.29611 0.51817 0.0
H3207 H 0.88694 0.43963 0.75061 0.0
H3208 H 0.20798 0.66376 0.70369 0.0
H3209 H 0.18716 0.63363 0.6658 0.0
H3210 H 0.23264 0.70495 0.62223 0.0
H3211 H 0.25219 0.73559 0.66041 0.0
H3212 H 0.18238 0.68414 0.60966 0.0
H3213 H 0.24963 0.63909 0.6196 0.0
H3214 H 0.27434 0.61641 0.64282 0.0
H3215 H 0.19774 0.54567 0.65542 0.0
H3216 H 0.17247 0.56812 0.63263 0.0
H3217 H 0.10985 0.59591 0.50944 0.0
H3218 H 0.15327 0.6209 0.53096 0.0
H3219 H 0.12241 0.56228 0.58828 0.0
H3220 H 0.08054 0.53573 0.56546 0.0
H3221 H 0.17549 0.57944 0.58689 0.0
H3222 H 0.10799 0.63241 0.58873 0.0
H3223 H 0.08131 0.65479 0.56736 0.0
H3224 H 0.1579 0.71024 0.53394 0.0
H3225 H 0.18495 0.68803 0.55505 0.0
C3226 C 0.21352 0.67283 0.68595 0.0
C3227 C 0.2315 0.70185 0.68478 0.0
C3228 C 0.2019 0.65557 0.66428 0.0
C3229 C 0.20879 0.66678 0.641 0.0
C3230 C 0.22707 0.69577 0.63991 0.0
C3231 C 0.23813 0.71327 0.66168 0.0
C3232 C 0.19535 0.649 0.61817 0.0
C3233 C 0.1815 0.66146 0.60436 0.0
C3234 C 0.19386 0.6193 0.61131 0.0
C3235 C 0.20916 0.60533 0.62443 0.0
C3236 C 0.23804 0.61874 0.62739 0.0
C3237 C 0.25214 0.60594 0.6405 0.0
C3238 C 0.23762 0.57964 0.65061 0.0
C3239 C 0.20897 0.56603 0.64757 0.0
C3240 C 0.19476 0.57874 0.63451 0.0
C3241 C 0.11302 0.58784 0.52614 0.0
C3242 C 0.09203 0.56428 0.53612 0.0
C3243 C 0.13763 0.60221 0.53854 0.0
C3244 C 0.14061 0.59431 0.56184 0.0
C3245 C 0.1206 0.56903 0.57049 0.0
C3246 C 0.09661 0.55391 0.55753 0.0
C3247 C 0.16179 0.61433 0.57907 0.0
C3248 C 0.1771 0.60237 0.59184 0.0
C3249 C 0.16454 0.64449 0.58518 0.0
C3250 C 0.14839 0.65851 0.57329 0.0
C3251 C 0.11907 0.64944 0.57687 0.0
C3252 C 0.10391 0.66204 0.56478 0.0
C3253 C 0.1179 0.68391 0.54928 0.0
C3254 C 0.1471 0.69333 0.54595 0.0
C3255 C 0.16235 0.68078 0.55799 0.0
H3256 H 0.10613 0.69358 0.53987 0.0
H3257 H 0.24857 0.56979 0.66077 0.0
loop_
_geom_bond_atom_site_label_1
_geom_bond_atom_site_label_2
_geom_bond_distance
_geom_bond_site_symmetry_2
_ccdc_geom_bond_type
C0 C2 1.422 . S
C0 C4 1.415 . S
C0 N6 1.369 . S
C1 C2 1.421 . S
C1 C3 1.417 . S
C1 C13 1.422 . S
C2 C0 1.422 . S
C2 C1 1.421 . S
C2 N12 1.359 . S
C3 C1 1.417 . S
C3 C5 1.329 . S
C3 H22 0.930 . S
C4 C0 1.415 . S
C4 C5 1.437 . S
C4 C8 1.413 . S
C5 C3 1.329 . S
C5 C4 1.437 . S
C5 H27 0.929 . S
N6 C0 1.369 . S
N6 C7 1.338 . S
N6 Gd11 2.622 . S
C7 N6 1.338 . S
C7 C9 1.378 . S
C7 H19 0.929 . S
C8 C4 1.413 . S
C8 C9 1.348 . S
C8 H24 0.931 . S
C9 C7 1.378 . S
C9 C8 1.348 . S
C9 H25 0.930 . S
Gd10 N30 2.622 . S
Gd10 N37 2.570 . S
Gd10 O44 2.353 . S
Gd10 O45 2.468 . S
Gd10 O46 2.427 . S
Gd10 O48 2.388 . S
Gd10 O49 2.386 . S
Gd10 O53 2.307 . S
Gd10 C63 2.805 . S
Gd11 N6 2.622 . S
Gd11 N12 2.570 . S
Gd11 O43 2.386 . S
Gd11 O47 2.307 . S
Gd11 O50 2.353 . S
Gd11 O51 2.468 . S
Gd11 O52 2.427 . S
Gd11 O54 2.388 . S
Gd11 C75 2.805 . S
N12 C2 1.359 . S
N12 Gd11 2.570 . S
N12 C14 1.343 . S
C13 C1 1.422 . S
C13 C15 1.321 . S
C13 H21 0.931 . S
C14 N12 1.343 . S
C14 C15 1.390 . S
C14 H16 0.931 . S
C15 C13 1.321 . S
C15 C14 1.390 . S
C15 H17 0.930 . S
H16 C14 0.931 . S
H17 C15 0.930 . S
H18 C41 0.931 . S
H19 C7 0.929 . S
H20 C42 0.930 . S
H21 C13 0.931 . S
H22 C3 0.930 . S
H23 C32 0.929 . S
H24 C8 0.931 . S
H25 C9 0.930 . S
H26 C64 0.930 . S
H27 C5 0.929 . S
H28 C33 0.931 . S
H29 C34 0.930 . S
N30 Gd10 2.622 . S
N30 C31 1.369 . S
N30 C32 1.338 . S
C31 N30 1.369 . S
C31 C35 1.415 . S
C31 C38 1.422 . S
C32 H23 0.929 . S
C32 N30 1.338 . S
C32 C34 1.378 . S
C33 H28 0.931 . S
C33 C34 1.348 . S
C33 C35 1.413 . S
C34 H29 0.930 . S
C34 C32 1.378 . S
C34 C33 1.348 . S
C35 C31 1.415 . S
C35 C33 1.413 . S
C35 C65 1.437 . S
H36 C65 0.929 . S
N37 Gd10 2.570 . S
N37 C38 1.359 . S
N37 C41 1.343 . S
C38 C31 1.422 . S
C38 N37 1.359 . S
C38 C40 1.421 . S
C39 C40 1.422 . S
C39 C42 1.321 . S
C39 H66 0.931 . S
C40 C38 1.421 . S
C40 C39 1.422 . S
C40 C64 1.417 . S
C41 H18 0.931 . S
C41 N37 1.343 . S
C41 C42 1.390 . S
C42 H20 0.930 . S
C42 C39 1.321 . S
C42 C41 1.390 . S
O43 Gd11 2.386 . S
O43 C55 1.265 . S
O44 Gd10 2.353 . S
O44 C55 1.242 . S
O45 Gd10 2.468 . S
O45 C63 1.263 . S
O46 Gd10 2.427 . S
O46 C63 1.252 . S
O47 Gd11 2.307 . S
O47 C56 1.261 . S
O48 Gd10 2.388 . S
O48 C56 1.252 . S
O49 Gd10 2.386 . S
O49 C67 1.265 . S
O50 Gd11 2.353 . S
O50 C67 1.242 . S
O51 Gd11 2.468 . S
O51 C75 1.263 . S
O52 Gd11 2.427 . S
O52 C75 1.252 . S
O53 Gd10 2.307 . S
O53 C68 1.261 . S
O54 Gd11 2.388 . S
O54 C68 1.252 . S
C55 O43 1.265 . S
C55 O44 1.242 . S
C56 O47 1.261 . S
C56 O48 1.252 . S
C57 C60 1.394 . S
C57 C62 1.370 . S
C57 C63 1.500 . S
C58 C61 1.383 . S
C58 C62 1.395 . S
C59 C60 1.396 . S
C59 C61 1.365 . S
C59 H76 0.929 . S
C60 C57 1.394 . S
C60 C59 1.396 . S
C60 H77 0.930 . S
C61 C58 1.383 . S
C61 C59 1.365 . S
C61 H78 0.931 . S
C62 C57 1.370 . S
C62 C58 1.395 . S
C62 H79 0.930 . S
C63 Gd10 2.805 . S
C63 O45 1.263 . S
C63 O46 1.252 . S
C63 C57 1.500 . S
C64 H26 0.930 . S
C64 C40 1.417 . S
C64 C65 1.329 . S
C65 C35 1.437 . S
C65 H36 0.929 . S
C65 C64 1.329 . S
H66 C39 0.931 . S
C67 O49 1.265 . S
C67 O50 1.242 . S
C68 O53 1.261 . S
C68 O54 1.252 . S
C69 C72 1.394 . S
C69 C74 1.370 . S
C69 C75 1.500 . S
C70 C73 1.383 . S
C70 C74 1.395 . S
C71 C72 1.396 . S
C71 C73 1.365 . S
C71 H80 0.929 . S
C72 C69 1.394 . S
C72 C71 1.396 . S
C72 H81 0.930 . S
C73 C70 1.383 . S
C73 C71 1.365 . S
C73 H82 0.931 . S
C74 C69 1.370 . S
C74 C70 1.395 . S
C74 H83 0.930 . S
C75 Gd11 2.805 . S
C75 O51 1.263 . S
C75 O52 1.252 . S
C75 C69 1.500 . S
H76 C59 0.929 . S
H77 C60 0.930 . S
H78 C61 0.931 . S
H79 C62 0.930 . S
H80 C71 0.929 . S
H81 C72 0.930 . S
H82 C73 0.931 . S
H83 C74 0.930 . S
C84 C86 1.422 . S
C84 C88 1.415 . S
C84 N90 1.369 . S
C85 C86 1.421 . S
C85 C87 1.417 . S
C85 C97 1.422 . S
C86 C84 1.422 . S
C86 C85 1.421 . S
C86 N96 1.359 . S
C87 C85 1.417 . S
C87 C89 1.329 . S
C87 H106 0.930 . S
C88 C84 1.415 . S
C88 C89 1.437 . S
C88 C92 1.413 . S
C89 C87 1.329 . S
C89 C88 1.437 . S
C89 H111 0.929 . S
N90 C84 1.369 . S
N90 C91 1.338 . S
N90 Gd95 2.622 . S
C91 N90 1.338 . S
C91 C93 1.378 . S
C91 H103 0.929 . S
C92 C88 1.413 . S
C92 C93 1.348 . S
C92 H108 0.931 . S
C93 C91 1.378 . S
C93 C92 1.348 . S
C93 H109 0.930 . S
Gd94 N114 2.622 . S
Gd94 N121 2.570 . S
Gd94 O128 2.353 . S
Gd94 O129 2.468 . S
Gd94 O130 2.427 . S
Gd94 O132 2.388 . S
Gd94 O133 2.386 . S
Gd94 O137 2.307 . S
Gd94 C147 2.805 . S
Gd95 N90 2.622 . S
Gd95 N96 2.570 . S
Gd95 O127 2.386 . S
Gd95 O131 2.307 . S
Gd95 O134 2.353 . S
Gd95 O135 2.468 . S
Gd95 O136 2.427 . S
Gd95 O138 2.388 . S
Gd95 C159 2.805 . S
N96 C86 1.359 . S
N96 Gd95 2.570 . S
N96 C98 1.343 . S
C97 C85 1.422 . S
C97 C99 1.321 . S
C97 H105 0.931 . S
C98 N96 1.343 . S
C98 C99 1.390 . S
C98 H100 0.931 . S
C99 C97 1.321 . S
C99 C98 1.390 . S
C99 H101 0.930 . S
H100 C98 0.931 . S
H101 C99 0.930 . S
H102 C125 0.931 . S
H103 C91 0.929 . S
H104 C126 0.930 . S
H105 C97 0.931 . S
H106 C87 0.930 . S
H107 C116 0.929 . S
H108 C92 0.931 . S
H109 C93 0.930 . S
H110 C148 0.930 . S
H111 C89 0.929 . S
H112 C117 0.931 . S
H113 C118 0.930 . S
N114 Gd94 2.622 . S
N114 C115 1.369 . S
N114 C116 1.338 . S
C115 N114 1.369 . S
C115 C119 1.415 . S
C115 C122 1.422 . S
C116 H107 0.929 . S
C116 N114 1.338 . S
C116 C118 1.378 . S
C117 H112 0.931 . S
C117 C118 1.348 . S
C117 C119 1.413 . S
C118 H113 0.930 . S
C118 C116 1.378 . S
C118 C117 1.348 . S
C119 C115 1.415 . S
C119 C117 1.413 . S
C119 C149 1.437 . S
H120 C149 0.929 . S
N121 Gd94 2.570 . S
N121 C122 1.359 . S
N121 C125 1.343 . S
C122 C115 1.422 . S
C122 N121 1.359 . S
C122 C124 1.421 . S
C123 C124 1.422 . S
C123 C126 1.321 . S
C123 H150 0.931 . S
C124 C122 1.421 . S
C124 C123 1.422 . S
C124 C148 1.417 . S
C125 H102 0.931 . S
C125 N121 1.343 . S
C125 C126 1.390 . S
C126 H104 0.930 . S
C126 C123 1.321 . S
C126 C125 1.390 . S
O127 Gd95 2.386 . S
O127 C139 1.265 . S
O128 Gd94 2.353 . S
O128 C139 1.242 . S
O129 Gd94 2.468 . S
O129 C147 1.263 . S
O130 Gd94 2.427 . S
O130 C147 1.252 . S
O131 Gd95 2.307 . S
O131 C140 1.261 . S
O132 Gd94 2.388 . S
O132 C140 1.252 . S
O133 Gd94 2.386 . S
O133 C151 1.265 . S
O134 Gd95 2.353 . S
O134 C151 1.242 . S
O135 Gd95 2.468 . S
O135 C159 1.263 . S
O136 Gd95 2.427 . S
O136 C159 1.252 . S
O137 Gd94 2.307 . S
O137 C152 1.261 . S
O138 Gd95 2.388 . S
O138 C152 1.252 . S
C139 O127 1.265 . S
C139 O128 1.242 . S
C140 O131 1.261 . S
C140 O132 1.252 . S
C141 C144 1.394 . S
C141 C146 1.370 . S
C141 C147 1.500 . S
C142 C145 1.383 . S
C142 C146 1.395 . S
C143 C144 1.396 . S
C143 C145 1.365 . S
C143 H160 0.929 . S
C144 C141 1.394 . S
C144 C143 1.396 . S
C144 H161 0.930 . S
C145 C142 1.383 . S
C145 C143 1.365 . S
C145 H162 0.931 . S
C146 C141 1.370 . S
C146 C142 1.395 . S
C146 H163 0.930 . S
C147 Gd94 2.805 . S
C147 O129 1.263 . S
C147 O130 1.252 . S
C147 C141 1.500 . S
C148 H110 0.930 . S
C148 C124 1.417 . S
C148 C149 1.329 . S
C149 C119 1.437 . S
C149 H120 0.929 . S
C149 C148 1.329 . S
H150 C123 0.931 . S
C151 O133 1.265 . S
C151 O134 1.242 . S
C152 O137 1.261 . S
C152 O138 1.252 . S
C153 C156 1.394 . S
C153 C158 1.370 . S
C153 C159 1.500 . S
C154 C157 1.383 . S
C154 C158 1.395 . S
C155 C156 1.396 . S
C155 C157 1.365 . S
C155 H164 0.929 . S
C156 C153 1.394 . S
C156 C155 1.396 . S
C156 H165 0.930 . S
C157 C154 1.383 . S
C157 C155 1.365 . S
C157 H166 0.931 . S
C158 C153 1.370 . S
C158 C154 1.395 . S
C158 H167 0.930 . S
C159 Gd95 2.805 . S
C159 O135 1.263 . S
C159 O136 1.252 . S
C159 C153 1.500 . S
H160 C143 0.929 . S
H161 C144 0.930 . S
H162 C145 0.931 . S
H163 C146 0.930 . S
H164 C155 0.929 . S
H165 C156 0.930 . S
H166 C157 0.931 . S
H167 C158 0.930 . S
C168 C170 1.422 . S
C168 C172 1.415 . S
C168 N174 1.369 . S
C169 C170 1.421 . S
C169 C171 1.417 . S
C169 C181 1.422 . S
C170 C168 1.422 . S
C170 C169 1.421 . S
C170 N180 1.359 . S
C171 C169 1.417 . S
C171 C173 1.329 . S
C171 H190 0.930 . S
C172 C168 1.415 . S
C172 C173 1.437 . S
C172 C176 1.413 . S
C173 C171 1.329 . S
C173 C172 1.437 . S
C173 H195 0.929 . S
N174 C168 1.369 . S
N174 C175 1.338 . S
N174 Gd179 2.622 . S
C175 N174 1.338 . S
C175 C177 1.378 . S
C175 H187 0.929 . S
C176 C172 1.413 . S
C176 C177 1.348 . S
C176 H192 0.931 . S
C177 C175 1.378 . S
C177 C176 1.348 . S
C177 H193 0.930 . S
Gd178 N198 2.622 . S
Gd178 N205 2.570 . S
Gd178 O212 2.353 . S
Gd178 O213 2.468 . S
Gd178 O214 2.427 . S
Gd178 O216 2.388 . S
Gd178 O217 2.386 . S
Gd178 O221 2.307 . S
Gd178 C231 2.805 . S
Gd179 N174 2.622 . S
Gd179 N180 2.570 . S
Gd179 O211 2.386 . S
Gd179 O215 2.307 . S
Gd179 O218 2.353 . S
Gd179 O219 2.468 . S
Gd179 O220 2.427 . S
Gd179 O222 2.388 . S
Gd179 C243 2.805 . S
N180 C170 1.359 . S
N180 Gd179 2.570 . S
N180 C182 1.343 . S
C181 C169 1.422 . S
C181 C183 1.321 . S
C181 H189 0.931 . S
C182 N180 1.343 . S
C182 C183 1.390 . S
C182 H184 0.931 . S
C183 C181 1.321 . S
C183 C182 1.390 . S
C183 H185 0.930 . S
H184 C182 0.931 . S
H185 C183 0.930 . S
H186 C209 0.931 . S
H187 C175 0.929 . S
H188 C210 0.930 . S
H189 C181 0.931 . S
H190 C171 0.930 . S
H191 C200 0.929 . S
H192 C176 0.931 . S
H193 C177 0.930 . S
H194 C232 0.930 . S
H195 C173 0.929 . S
H196 C201 0.931 . S
H197 C202 0.930 . S
N198 Gd178 2.622 . S
N198 C199 1.369 . S
N198 C200 1.338 . S
C199 N198 1.369 . S
C199 C203 1.415 . S
C199 C206 1.422 . S
C200 H191 0.929 . S
C200 N198 1.338 . S
C200 C202 1.378 . S
C201 H196 0.931 . S
C201 C202 1.348 . S
C201 C203 1.413 . S
C202 H197 0.930 . S
C202 C200 1.378 . S
C202 C201 1.348 . S
C203 C199 1.415 . S
C203 C201 1.413 . S
C203 C233 1.437 . S
H204 C233 0.929 . S
N205 Gd178 2.570 . S
N205 C206 1.359 . S
N205 C209 1.343 . S
C206 C199 1.422 . S
C206 N205 1.359 . S
C206 C208 1.421 . S
C207 C208 1.422 . S
C207 C210 1.321 . S
C207 H234 0.931 . S
C208 C206 1.421 . S
C208 C207 1.422 . S
C208 C232 1.417 . S
C209 H186 0.931 . S
C209 N205 1.343 . S
C209 C210 1.390 . S
C210 H188 0.930 . S
C210 C207 1.321 . S
C210 C209 1.390 . S
O211 Gd179 2.386 . S
O211 C223 1.265 . S
O212 Gd178 2.353 . S
O212 C223 1.242 . S
O213 Gd178 2.468 . S
O213 C231 1.263 . S
O214 Gd178 2.427 . S
O214 C231 1.252 . S
O215 Gd179 2.307 . S
O215 C224 1.261 . S
O216 Gd178 2.388 . S
O216 C224 1.252 . S
O217 Gd178 2.386 . S
O217 C235 1.265 . S
O218 Gd179 2.353 . S
O218 C235 1.242 . S
O219 Gd179 2.468 . S
O219 C243 1.263 . S
O220 Gd179 2.427 . S
O220 C243 1.252 . S
O221 Gd178 2.307 . S
O221 C236 1.261 . S
O222 Gd179 2.388 . S
O222 C236 1.252 . S
C223 O211 1.265 . S
C223 O212 1.242 . S
C224 O215 1.261 . S
C224 O216 1.252 . S
C225 C228 1.394 . S
C225 C230 1.370 . S
C225 C231 1.500 . S
C226 C229 1.383 . S
C226 C230 1.395 . S
C227 C228 1.396 . S
C227 C229 1.365 . S
C227 H244 0.929 . S
C228 C225 1.394 . S
C228 C227 1.396 . S
C228 H245 0.930 . S
C229 C226 1.383 . S
C229 C227 1.365 . S
C229 H246 0.931 . S
C230 C225 1.370 . S
C230 C226 1.395 . S
C230 H247 0.930 . S
C231 Gd178 2.805 . S
C231 O213 1.263 . S
C231 O214 1.252 . S
C231 C225 1.500 . S
C232 H194 0.930 . S
C232 C208 1.417 . S
C232 C233 1.329 . S
C233 C203 1.437 . S
C233 H204 0.929 . S
C233 C232 1.329 . S
H234 C207 0.931 . S
C235 O217 1.265 . S
C235 O218 1.242 . S
C236 O221 1.261 . S
C236 O222 1.252 . S
C237 C240 1.394 . S
C237 C242 1.370 . S
C237 C243 1.500 . S
C238 C241 1.383 . S
C238 C242 1.395 . S
C239 C240 1.396 . S
C239 C241 1.365 . S
C239 H248 0.929 . S
C240 C237 1.394 . S
C240 C239 1.396 . S
C240 H249 0.930 . S
C241 C238 1.383 . S
C241 C239 1.365 . S
C241 H250 0.931 . S
C242 C237 1.370 . S
C242 C238 1.395 . S
C242 H251 0.930 . S
C243 Gd179 2.805 . S
C243 O219 1.263 . S
C243 O220 1.252 . S
C243 C237 1.500 . S
H244 C227 0.929 . S
H245 C228 0.930 . S
H246 C229 0.931 . S
H247 C230 0.930 . S
H248 C239 0.929 . S
H249 C240 0.930 . S
H250 C241 0.931 . S
H251 C242 0.930 . S
C252 C254 1.422 . S
C252 C256 1.415 . S
C252 N258 1.369 . S
C253 C254 1.421 . S
C253 C255 1.417 . S
C253 C265 1.422 . S
C254 C252 1.422 . S
C254 C253 1.421 . S
C254 N264 1.359 . S
C255 C253 1.417 . S
C255 C257 1.329 . S
C255 H274 0.930 . S
C256 C252 1.415 . S
C256 C257 1.437 . S
C256 C260 1.413 . S
C257 C255 1.329 . S
C257 C256 1.437 . S
C257 H279 0.929 . S
N258 C252 1.369 . S
N258 C259 1.338 . S
N258 Gd263 2.622 . S
C259 N258 1.338 . S
C259 C261 1.378 . S
C259 H271 0.929 . S
C260 C256 1.413 . S
C260 C261 1.348 . S
C260 H276 0.931 . S
C261 C259 1.378 . S
C261 C260 1.348 . S
C261 H277 0.930 . S
Gd262 N282 2.622 . S
Gd262 N289 2.570 . S
Gd262 O296 2.353 . S
Gd262 O297 2.468 . S
Gd262 O298 2.427 . S
Gd262 O300 2.388 . S
Gd262 O301 2.386 . S
Gd262 O305 2.307 . S
Gd262 C315 2.805 . S
Gd263 N258 2.622 . S
Gd263 N264 2.570 . S
Gd263 O295 2.386 . S
Gd263 O299 2.307 . S
Gd263 O302 2.353 . S
Gd263 O303 2.468 . S
Gd263 O304 2.427 . S
Gd263 O306 2.388 . S
Gd263 C327 2.805 . S
N264 C254 1.359 . S
N264 Gd263 2.570 . S
N264 C266 1.343 . S
C265 C253 1.422 . S
C265 C267 1.321 . S
C265 H273 0.931 . S
C266 N264 1.343 . S
C266 C267 1.390 . S
C266 H268 0.931 . S
C267 C265 1.321 . S
C267 C266 1.390 . S
C267 H269 0.930 . S
H268 C266 0.931 . S
H269 C267 0.930 . S
H270 C293 0.931 . S
H271 C259 0.929 . S
H272 C294 0.930 . S
H273 C265 0.931 . S
H274 C255 0.930 . S
H275 C284 0.929 . S
H276 C260 0.931 . S
H277 C261 0.930 . S
H278 C316 0.930 . S
H279 C257 0.929 . S
H280 C285 0.931 . S
H281 C286 0.930 . S
N282 Gd262 2.622 . S
N282 C283 1.369 . S
N282 C284 1.338 . S
C283 N282 1.369 . S
C283 C287 1.415 . S
C283 C290 1.422 . S
C284 H275 0.929 . S
C284 N282 1.338 . S
C284 C286 1.378 . S
C285 H280 0.931 . S
C285 C286 1.348 . S
C285 C287 1.413 . S
C286 H281 0.930 . S
C286 C284 1.378 . S
C286 C285 1.348 . S
C287 C283 1.415 . S
C287 C285 1.413 . S
C287 C317 1.437 . S
H288 C317 0.929 . S
N289 Gd262 2.570 . S
N289 C290 1.359 . S
N289 C293 1.343 . S
C290 C283 1.422 . S
C290 N289 1.359 . S
C290 C292 1.421 . S
C291 C292 1.422 . S
C291 C294 1.321 . S
C291 H318 0.931 . S
C292 C290 1.421 . S
C292 C291 1.422 . S
C292 C316 1.417 . S
C293 H270 0.931 . S
C293 N289 1.343 . S
C293 C294 1.390 . S
C294 H272 0.930 . S
C294 C291 1.321 . S
C294 C293 1.390 . S
O295 Gd263 2.386 . S
O295 C307 1.265 . S
O296 Gd262 2.353 . S
O296 C307 1.242 . S
O297 Gd262 2.468 . S
O297 C315 1.263 . S
O298 Gd262 2.427 . S
O298 C315 1.252 . S
O299 Gd263 2.307 . S
O299 C308 1.261 . S
O300 Gd262 2.388 . S
O300 C308 1.252 . S
O301 Gd262 2.386 . S
O301 C319 1.265 . S
O302 Gd263 2.353 . S
O302 C319 1.242 . S
O303 Gd263 2.468 . S
O303 C327 1.263 . S
O304 Gd263 2.427 . S
O304 C327 1.252 . S
O305 Gd262 2.307 . S
O305 C320 1.261 . S
O306 Gd263 2.388 . S
O306 C320 1.252 . S
C307 O295 1.265 . S
C307 O296 1.242 . S
C308 O299 1.261 . S
C308 O300 1.252 . S
C309 C312 1.394 . S
C309 C314 1.370 . S
C309 C315 1.500 . S
C310 C313 1.383 . S
C310 C314 1.395 . S
C311 C312 1.396 . S
C311 C313 1.365 . S
C311 H328 0.929 . S
C312 C309 1.394 . S
C312 C311 1.396 . S
C312 H329 0.930 . S
C313 C310 1.383 . S
C313 C311 1.365 . S
C313 H330 0.931 . S
C314 C309 1.370 . S
C314 C310 1.395 . S
C314 H331 0.930 . S
C315 Gd262 2.805 . S
C315 O297 1.263 . S
C315 O298 1.252 . S
C315 C309 1.500 . S
C316 H278 0.930 . S
C316 C292 1.417 . S
C316 C317 1.329 . S
C317 C287 1.437 . S
C317 H288 0.929 . S
C317 C316 1.329 . S
H318 C291 0.931 . S
C319 O301 1.265 . S
C319 O302 1.242 . S
C320 O305 1.261 . S
C320 O306 1.252 . S
C321 C324 1.394 . S
C321 C326 1.370 . S
C321 C327 1.500 . S
C322 C325 1.383 . S
C322 C326 1.395 . S
C323 C324 1.396 . S
C323 C325 1.365 . S
C323 H332 0.929 . S
C324 C321 1.394 . S
C324 C323 1.396 . S
C324 H333 0.930 . S
C325 C322 1.383 . S
C325 C323 1.365 . S
C325 H334 0.931 . S
C326 C321 1.370 . S
C326 C322 1.395 . S
C326 H335 0.930 . S
C327 Gd263 2.805 . S
C327 O303 1.263 . S
C327 O304 1.252 . S
C327 C321 1.500 . S
H328 C311 0.929 . S
H329 C312 0.930 . S
H330 C313 0.931 . S
H331 C314 0.930 . S
H332 C323 0.929 . S
H333 C324 0.930 . S
H334 C325 0.931 . S
H335 C326 0.930 . S
C336 C338 1.422 . S
C336 C340 1.415 . S
C336 N342 1.369 . S
C337 C338 1.421 . S
C337 C339 1.417 . S
C337 C349 1.422 . S
C338 C336 1.422 . S
C338 C337 1.421 . S
C338 N348 1.359 . S
C339 C337 1.417 . S
C339 C341 1.329 . S
C339 H358 0.930 . S
C340 C336 1.415 . S
C340 C341 1.437 . S
C340 C344 1.413 . S
C341 C339 1.329 . S
C341 C340 1.437 . S
C341 H363 0.929 . S
N342 C336 1.369 . S
N342 C343 1.338 . S
N342 Gd347 2.622 . S
C343 N342 1.338 . S
C343 C345 1.378 . S
C343 H355 0.929 . S
C344 C340 1.413 . S
C344 C345 1.348 . S
C344 H360 0.931 . S
C345 C343 1.378 . S
C345 C344 1.348 . S
C345 H361 0.930 . S
Gd346 N366 2.622 . S
Gd346 N373 2.570 . S
Gd346 O380 2.353 . S
Gd346 O381 2.468 . S
Gd346 O382 2.427 . S
Gd346 O384 2.388 . S
Gd346 O385 2.386 . S
Gd346 O389 2.307 . S
Gd346 C399 2.805 . S
Gd347 N342 2.622 . S
Gd347 N348 2.570 . S
Gd347 O379 2.386 . S
Gd347 O383 2.307 . S
Gd347 O386 2.353 . S
Gd347 O387 2.468 . S
Gd347 O388 2.427 . S
Gd347 O390 2.388 . S
Gd347 C411 2.805 . S
N348 C338 1.359 . S
N348 Gd347 2.570 . S
N348 C350 1.343 . S
C349 C337 1.422 . S
C349 C351 1.321 . S
C349 H357 0.931 . S
C350 N348 1.343 . S
C350 C351 1.390 . S
C350 H352 0.931 . S
C351 C349 1.321 . S
C351 C350 1.390 . S
C351 H353 0.930 . S
H352 C350 0.931 . S
H353 C351 0.930 . S
H354 C377 0.931 . S
H355 C343 0.929 . S
H356 C378 0.930 . S
H357 C349 0.931 . S
H358 C339 0.930 . S
H359 C368 0.929 . S
H360 C344 0.931 . S
H361 C345 0.930 . S
H362 C400 0.930 . S
H363 C341 0.929 . S
H364 C369 0.931 . S
H365 C370 0.930 . S
N366 Gd346 2.622 . S
N366 C367 1.369 . S
N366 C368 1.338 . S
C367 N366 1.369 . S
C367 C371 1.415 . S
C367 C374 1.422 . S
C368 H359 0.929 . S
C368 N366 1.338 . S
C368 C370 1.378 . S
C369 H364 0.931 . S
C369 C370 1.348 . S
C369 C371 1.413 . S
C370 H365 0.930 . S
C370 C368 1.378 . S
C370 C369 1.348 . S
C371 C367 1.415 . S
C371 C369 1.413 . S
C371 C401 1.437 . S
H372 C401 0.929 . S
N373 Gd346 2.570 . S
N373 C374 1.359 . S
N373 C377 1.343 . S
C374 C367 1.422 . S
C374 N373 1.359 . S
C374 C376 1.421 . S
C375 C376 1.422 . S
C375 C378 1.321 . S
C375 H402 0.931 . S
C376 C374 1.421 . S
C376 C375 1.422 . S
C376 C400 1.417 . S
C377 H354 0.931 . S
C377 N373 1.343 . S
C377 C378 1.390 . S
C378 H356 0.930 . S
C378 C375 1.321 . S
C378 C377 1.390 . S
O379 Gd347 2.386 . S
O379 C391 1.265 . S
O380 Gd346 2.353 . S
O380 C391 1.242 . S
O381 Gd346 2.468 . S
O381 C399 1.263 . S
O382 Gd346 2.427 . S
O382 C399 1.252 . S
O383 Gd347 2.307 . S
O383 C392 1.261 . S
O384 Gd346 2.388 . S
O384 C392 1.252 . S
O385 Gd346 2.386 . S
O385 C403 1.265 . S
O386 Gd347 2.353 . S
O386 C403 1.242 . S
O387 Gd347 2.468 . S
O387 C411 1.263 . S
O388 Gd347 2.427 . S
O388 C411 1.252 . S
O389 Gd346 2.307 . S
O389 C404 1.261 . S
O390 Gd347 2.388 . S
O390 C404 1.252 . S
C391 O379 1.265 . S
C391 O380 1.242 . S
C392 O383 1.261 . S
C392 O384 1.252 . S
C393 C396 1.394 . S
C393 C398 1.370 . S
C393 C399 1.500 . S
C394 C397 1.383 . S
C394 C398 1.395 . S
C395 C396 1.396 . S
C395 C397 1.365 . S
C395 H412 0.929 . S
C396 C393 1.394 . S
C396 C395 1.396 . S
C396 H413 0.930 . S
C397 C394 1.383 . S
C397 C395 1.365 . S
C397 H414 0.931 . S
C398 C393 1.370 . S
C398 C394 1.395 . S
C398 H415 0.930 . S
C399 Gd346 2.805 . S
C399 O381 1.263 . S
C399 O382 1.252 . S
C399 C393 1.500 . S
C400 H362 0.930 . S
C400 C376 1.417 . S
C400 C401 1.329 . S
C401 C371 1.437 . S
C401 H372 0.929 . S
C401 C400 1.329 . S
H402 C375 0.931 . S
C403 O385 1.265 . S
C403 O386 1.242 . S
C404 O389 1.261 . S
C404 O390 1.252 . S
C405 C408 1.394 . S
C405 C410 1.370 . S
C405 C411 1.500 . S
C406 C409 1.383 . S
C406 C410 1.395 . S
C407 C408 1.396 . S
C407 C409 1.365 . S
C407 H416 0.929 . S
C408 C405 1.394 . S
C408 C407 1.396 . S
C408 H417 0.930 . S
C409 C406 1.383 . S
C409 C407 1.365 . S
C409 H418 0.931 . S
C410 C405 1.370 . S
C410 C406 1.395 . S
C410 H419 0.930 . S
C411 Gd347 2.805 . S
C411 O387 1.263 . S
C411 O388 1.252 . S
C411 C405 1.500 . S
H412 C395 0.929 . S
H413 C396 0.930 . S
H414 C397 0.931 . S
H415 C398 0.930 . S
H416 C407 0.929 . S
H417 C408 0.930 . S
H418 C409 0.931 . S
H419 C410 0.930 . S
C420 C422 1.422 . S
C420 C424 1.415 . S
C420 N426 1.369 . S
C421 C422 1.421 . S
C421 C423 1.417 . S
C421 C433 1.422 . S
C422 C420 1.422 . S
C422 C421 1.421 . S
C422 N432 1.359 . S
C423 C421 1.417 . S
C423 C425 1.329 . S
C423 H442 0.930 . S
C424 C420 1.415 . S
C424 C425 1.437 . S
C424 C428 1.413 . S
C425 C423 1.329 . S
C425 C424 1.437 . S
C425 H447 0.929 . S
N426 C420 1.369 . S
N426 C427 1.338 . S
N426 Gd431 2.622 . S
C427 N426 1.338 . S
C427 C429 1.378 . S
C427 H439 0.929 . S
C428 C424 1.413 . S
C428 C429 1.348 . S
C428 H444 0.931 . S
C429 C427 1.378 . S
C429 C428 1.348 . S
C429 H445 0.930 . S
Gd430 N450 2.622 . S
Gd430 N457 2.570 . S
Gd430 O464 2.353 . S
Gd430 O465 2.468 . S
Gd430 O466 2.427 . S
Gd430 O468 2.388 . S
Gd430 O469 2.386 . S
Gd430 O473 2.307 . S
Gd430 C483 2.805 . S
Gd431 N426 2.622 . S
Gd431 N432 2.570 . S
Gd431 O463 2.386 . S
Gd431 O467 2.307 . S
Gd431 O470 2.353 . S
Gd431 O471 2.468 . S
Gd431 O472 2.427 . S
Gd431 O474 2.388 . S
Gd431 C495 2.805 . S
N432 C422 1.359 . S
N432 Gd431 2.570 . S
N432 C434 1.343 . S
C433 C421 1.422 . S
C433 C435 1.321 . S
C433 H441 0.931 . S
C434 N432 1.343 . S
C434 C435 1.390 . S
C434 H436 0.931 . S
C435 C433 1.321 . S
C435 C434 1.390 . S
C435 H437 0.930 . S
H436 C434 0.931 . S
H437 C435 0.930 . S
H438 C461 0.931 . S
H439 C427 0.929 . S
H440 C462 0.930 . S
H441 C433 0.931 . S
H442 C423 0.930 . S
H443 C452 0.929 . S
H444 C428 0.931 . S
H445 C429 0.930 . S
H446 C484 0.930 . S
H447 C425 0.929 . S
H448 C453 0.931 . S
H449 C454 0.930 . S
N450 Gd430 2.622 . S
N450 C451 1.369 . S
N450 C452 1.338 . S
C451 N450 1.369 . S
C451 C455 1.415 . S
C451 C458 1.422 . S
C452 H443 0.929 . S
C452 N450 1.338 . S
C452 C454 1.378 . S
C453 H448 0.931 . S
C453 C454 1.348 . S
C453 C455 1.413 . S
C454 H449 0.930 . S
C454 C452 1.378 . S
C454 C453 1.348 . S
C455 C451 1.415 . S
C455 C453 1.413 . S
C455 C485 1.437 . S
H456 C485 0.929 . S
N457 Gd430 2.570 . S
N457 C458 1.359 . S
N457 C461 1.343 . S
C458 C451 1.422 . S
C458 N457 1.359 . S
C458 C460 1.421 . S
C459 C460 1.422 . S
C459 C462 1.321 . S
C459 H486 0.931 . S
C460 C458 1.421 . S
C460 C459 1.422 . S
C460 C484 1.417 . S
C461 H438 0.931 . S
C461 N457 1.343 . S
C461 C462 1.390 . S
C462 H440 0.930 . S
C462 C459 1.321 . S
C462 C461 1.390 . S
O463 Gd431 2.386 . S
O463 C475 1.265 . S
O464 Gd430 2.353 . S
O464 C475 1.242 . S
O465 Gd430 2.468 . S
O465 C483 1.263 . S
O466 Gd430 2.427 . S
O466 C483 1.252 . S
O467 Gd431 2.307 . S
O467 C476 1.261 . S
O468 Gd430 2.388 . S
O468 C476 1.252 . S
O469 Gd430 2.386 . S
O469 C487 1.265 . S
O470 Gd431 2.353 . S
O470 C487 1.242 . S
O471 Gd431 2.468 . S
O471 C495 1.263 . S
O472 Gd431 2.427 . S
O472 C495 1.252 . S
O473 Gd430 2.307 . S
O473 C488 1.261 . S
O474 Gd431 2.388 . S
O474 C488 1.252 . S
C475 O463 1.265 . S
C475 O464 1.242 . S
C476 O467 1.261 . S
C476 O468 1.252 . S
C477 C480 1.394 . S
C477 C482 1.370 . S
C477 C483 1.500 . S
C478 C481 1.383 . S
C478 C482 1.395 . S
C479 C480 1.396 . S
C479 C481 1.365 . S
C479 H496 0.929 . S
C480 C477 1.394 . S
C480 C479 1.396 . S
C480 H497 0.930 . S
C481 C478 1.383 . S
C481 C479 1.365 . S
C481 H498 0.931 . S
C482 C477 1.370 . S
C482 C478 1.395 . S
C482 H499 0.930 . S
C483 Gd430 2.805 . S
C483 O465 1.263 . S
C483 O466 1.252 . S
C483 C477 1.500 . S
C484 H446 0.930 . S
C484 C460 1.417 . S
C484 C485 1.329 . S
C485 C455 1.437 . S
C485 H456 0.929 . S
C485 C484 1.329 . S
H486 C459 0.931 . S
C487 O469 1.265 . S
C487 O470 1.242 . S
C488 O473 1.261 . S
C488 O474 1.252 . S
C489 C492 1.394 . S
C489 C494 1.370 . S
C489 C495 1.500 . S
C490 C493 1.383 . S
C490 C494 1.395 . S
C491 C492 1.396 . S
C491 C493 1.365 . S
C491 H500 0.929 . S
C492 C489 1.394 . S
C492 C491 1.396 . S
C492 H501 0.930 . S
C493 C490 1.383 . S
C493 C491 1.365 . S
C493 H502 0.931 . S
C494 C489 1.370 . S
C494 C490 1.395 . S
C494 H503 0.930 . S
C495 Gd431 2.805 . S
C495 O471 1.263 . S
C495 O472 1.252 . S
C495 C489 1.500 . S
H496 C479 0.929 . S
H497 C480 0.930 . S
H498 C481 0.931 . S
H499 C482 0.930 . S
H500 C491 0.929 . S
H501 C492 0.930 . S
H502 C493 0.931 . S
H503 C494 0.930 . S
C504 C506 1.422 . S
C504 C508 1.415 . S
C504 N510 1.369 . S
C505 C506 1.421 . S
C505 C507 1.417 . S
C505 C517 1.422 . S
C506 C504 1.422 . S
C506 C505 1.421 . S
C506 N516 1.359 . S
C507 C505 1.417 . S
C507 C509 1.329 . S
C507 H526 0.930 . S
C508 C504 1.415 . S
C508 C509 1.437 . S
C508 C512 1.413 . S
C509 C507 1.329 . S
C509 C508 1.437 . S
C509 H531 0.929 . S
N510 C504 1.369 . S
N510 C511 1.338 . S
N510 Gd515 2.622 . S
C511 N510 1.338 . S
C511 C513 1.378 . S
C511 H523 0.929 . S
C512 C508 1.413 . S
C512 C513 1.348 . S
C512 H528 0.931 . S
C513 C511 1.378 . S
C513 C512 1.348 . S
C513 H529 0.930 . S
Gd514 N534 2.622 . S
Gd514 N541 2.570 . S
Gd514 O548 2.353 . S
Gd514 O549 2.468 . S
Gd514 O550 2.427 . S
Gd514 O552 2.388 . S
Gd514 O553 2.386 . S
Gd514 O557 2.307 . S
Gd514 C567 2.805 . S
Gd515 N510 2.622 . S
Gd515 N516 2.570 . S
Gd515 O547 2.386 . S
Gd515 O551 2.307 . S
Gd515 O554 2.353 . S
Gd515 O555 2.468 . S
Gd515 O556 2.427 . S
Gd515 O558 2.388 . S
Gd515 C579 2.805 . S
N516 C506 1.359 . S
N516 Gd515 2.570 . S
N516 C518 1.343 . S
C517 C505 1.422 . S
C517 C519 1.321 . S
C517 H525 0.931 . S
C518 N516 1.343 . S
C518 C519 1.390 . S
C518 H520 0.931 . S
C519 C517 1.321 . S
C519 C518 1.390 . S
C519 H521 0.930 . S
H520 C518 0.931 . S
H521 C519 0.930 . S
H522 C545 0.931 . S
H523 C511 0.929 . S
H524 C546 0.930 . S
H525 C517 0.931 . S
H526 C507 0.930 . S
H527 C536 0.929 . S
H528 C512 0.931 . S
H529 C513 0.930 . S
H530 C568 0.930 . S
H531 C509 0.929 . S
H532 C537 0.931 . S
H533 C538 0.930 . S
N534 Gd514 2.622 . S
N534 C535 1.369 . S
N534 C536 1.338 . S
C535 N534 1.369 . S
C535 C539 1.415 . S
C535 C542 1.422 . S
C536 H527 0.929 . S
C536 N534 1.338 . S
C536 C538 1.378 . S
C537 H532 0.931 . S
C537 C538 1.348 . S
C537 C539 1.413 . S
C538 H533 0.930 . S
C538 C536 1.378 . S
C538 C537 1.348 . S
C539 C535 1.415 . S
C539 C537 1.413 . S
C539 C569 1.437 . S
H540 C569 0.929 . S
N541 Gd514 2.570 . S
N541 C542 1.359 . S
N541 C545 1.343 . S
C542 C535 1.422 . S
C542 N541 1.359 . S
C542 C544 1.421 . S
C543 C544 1.422 . S
C543 C546 1.321 . S
C543 H570 0.931 . S
C544 C542 1.421 . S
C544 C543 1.422 . S
C544 C568 1.417 . S
C545 H522 0.931 . S
C545 N541 1.343 . S
C545 C546 1.390 . S
C546 H524 0.930 . S
C546 C543 1.321 . S
C546 C545 1.390 . S
O547 Gd515 2.386 . S
O547 C559 1.265 . S
O548 Gd514 2.353 . S
O548 C559 1.242 . S
O549 Gd514 2.468 . S
O549 C567 1.263 . S
O550 Gd514 2.427 . S
O550 C567 1.252 . S
O551 Gd515 2.307 . S
O551 C560 1.261 . S
O552 Gd514 2.388 . S
O552 C560 1.252 . S
O553 Gd514 2.386 . S
O553 C571 1.265 . S
O554 Gd515 2.353 . S
O554 C571 1.242 . S
O555 Gd515 2.468 . S
O555 C579 1.263 . S
O556 Gd515 2.427 . S
O556 C579 1.252 . S
O557 Gd514 2.307 . S
O557 C572 1.261 . S
O558 Gd515 2.388 . S
O558 C572 1.252 . S
C559 O547 1.265 . S
C559 O548 1.242 . S
C560 O551 1.261 . S
C560 O552 1.252 . S
C561 C564 1.394 . S
C561 C566 1.370 . S
C561 C567 1.500 . S
C562 C565 1.383 . S
C562 C566 1.395 . S
C563 C564 1.396 . S
C563 C565 1.365 . S
C563 H580 0.929 . S
C564 C561 1.394 . S
C564 C563 1.396 . S
C564 H581 0.930 . S
C565 C562 1.383 . S
C565 C563 1.365 . S
C565 H582 0.931 . S
C566 C561 1.370 . S
C566 C562 1.395 . S
C566 H583 0.930 . S
C567 Gd514 2.805 . S
C567 O549 1.263 . S
C567 O550 1.252 . S
C567 C561 1.500 . S
C568 H530 0.930 . S
C568 C544 1.417 . S
C568 C569 1.329 . S
C569 C539 1.437 . S
C569 H540 0.929 . S
C569 C568 1.329 . S
H570 C543 0.931 . S
C571 O553 1.265 . S
C571 O554 1.242 . S
C572 O557 1.261 . S
C572 O558 1.252 . S
C573 C576 1.394 . S
C573 C578 1.370 . S
C573 C579 1.500 . S
C574 C577 1.383 . S
C574 C578 1.395 . S
C575 C576 1.396 . S
C575 C577 1.365 . S
C575 H584 0.929 . S
C576 C573 1.394 . S
C576 C575 1.396 . S
C576 H585 0.930 . S
C577 C574 1.383 . S
C577 C575 1.365 . S
C577 H586 0.931 . S
C578 C573 1.370 . S
C578 C574 1.395 . S
C578 H587 0.930 . S
C579 Gd515 2.805 . S
C579 O555 1.263 . S
C579 O556 1.252 . S
C579 C573 1.500 . S
H580 C563 0.929 . S
H581 C564 0.930 . S
H582 C565 0.931 . S
H583 C566 0.930 . S
H584 C575 0.929 . S
H585 C576 0.930 . S
H586 C577 0.931 . S
H587 C578 0.930 . S
C588 C590 1.422 . S
C588 C592 1.415 . S
C588 N594 1.369 . S
C589 C590 1.421 . S
C589 C591 1.417 . S
C589 C601 1.422 . S
C590 C588 1.422 . S
C590 C589 1.421 . S
C590 N600 1.359 . S
C591 C589 1.417 . S
C591 C593 1.329 . S
C591 H610 0.930 . S
C592 C588 1.415 . S
C592 C593 1.437 . S
C592 C596 1.413 . S
C593 C591 1.329 . S
C593 C592 1.437 . S
C593 H615 0.929 . S
N594 C588 1.369 . S
N594 C595 1.338 . S
N594 Gd599 2.622 . S
C595 N594 1.338 . S
C595 C597 1.378 . S
C595 H607 0.929 . S
C596 C592 1.413 . S
C596 C597 1.348 . S
C596 H612 0.931 . S
C597 C595 1.378 . S
C597 C596 1.348 . S
C597 H613 0.930 . S
Gd598 N618 2.622 . S
Gd598 N625 2.570 . S
Gd598 O632 2.353 . S
Gd598 O633 2.468 . S
Gd598 O634 2.427 . S
Gd598 O636 2.388 . S
Gd598 O637 2.386 . S
Gd598 O641 2.307 . S
Gd598 C651 2.805 . S
Gd599 N594 2.622 . S
Gd599 N600 2.570 . S
Gd599 O631 2.386 . S
Gd599 O635 2.307 . S
Gd599 O638 2.353 . S
Gd599 O639 2.468 . S
Gd599 O640 2.427 . S
Gd599 O642 2.388 . S
Gd599 C663 2.805 . S
N600 C590 1.359 . S
N600 Gd599 2.570 . S
N600 C602 1.343 . S
C601 C589 1.422 . S
C601 C603 1.321 . S
C601 H609 0.931 . S
C602 N600 1.343 . S
C602 C603 1.390 . S
C602 H604 0.931 . S
C603 C601 1.321 . S
C603 C602 1.390 . S
C603 H605 0.930 . S
H604 C602 0.931 . S
H605 C603 0.930 . S
H606 C629 0.931 . S
H607 C595 0.929 . S
H608 C630 0.930 . S
H609 C601 0.931 . S
H610 C591 0.930 . S
H611 C620 0.929 . S
H612 C596 0.931 . S
H613 C597 0.930 . S
H614 C652 0.930 . S
H615 C593 0.929 . S
H616 C621 0.931 . S
H617 C622 0.930 . S
N618 Gd598 2.622 . S
N618 C619 1.369 . S
N618 C620 1.338 . S
C619 N618 1.369 . S
C619 C623 1.415 . S
C619 C626 1.422 . S
C620 H611 0.929 . S
C620 N618 1.338 . S
C620 C622 1.378 . S
C621 H616 0.931 . S
C621 C622 1.348 . S
C621 C623 1.413 . S
C622 H617 0.930 . S
C622 C620 1.378 . S
C622 C621 1.348 . S
C623 C619 1.415 . S
C623 C621 1.413 . S
C623 C653 1.437 . S
H624 C653 0.929 . S
N625 Gd598 2.570 . S
N625 C626 1.359 . S
N625 C629 1.343 . S
C626 C619 1.422 . S
C626 N625 1.359 . S
C626 C628 1.421 . S
C627 C628 1.422 . S
C627 C630 1.321 . S
C627 H654 0.931 . S
C628 C626 1.421 . S
C628 C627 1.422 . S
C628 C652 1.417 . S
C629 H606 0.931 . S
C629 N625 1.343 . S
C629 C630 1.390 . S
C630 H608 0.930 . S
C630 C627 1.321 . S
C630 C629 1.390 . S
O631 Gd599 2.386 . S
O631 C643 1.265 . S
O632 Gd598 2.353 . S
O632 C643 1.242 . S
O633 Gd598 2.468 . S
O633 C651 1.263 . S
O634 Gd598 2.427 . S
O634 C651 1.252 . S
O635 Gd599 2.307 . S
O635 C644 1.261 . S
O636 Gd598 2.388 . S
O636 C644 1.252 . S
O637 Gd598 2.386 . S
O637 C655 1.265 . S
O638 Gd599 2.353 . S
O638 C655 1.242 . S
O639 Gd599 2.468 . S
O639 C663 1.263 . S
O640 Gd599 2.427 . S
O640 C663 1.252 . S
O641 Gd598 2.307 . S
O641 C656 1.261 . S
O642 Gd599 2.388 . S
O642 C656 1.252 . S
C643 O631 1.265 . S
C643 O632 1.242 . S
C644 O635 1.261 . S
C644 O636 1.252 . S
C645 C648 1.394 . S
C645 C650 1.370 . S
C645 C651 1.500 . S
C646 C649 1.383 . S
C646 C650 1.395 . S
C647 C648 1.396 . S
C647 C649 1.365 . S
C647 H664 0.929 . S
C648 C645 1.394 . S
C648 C647 1.396 . S
C648 H665 0.930 . S
C649 C646 1.383 . S
C649 C647 1.365 . S
C649 H666 0.931 . S
C650 C645 1.370 . S
C650 C646 1.395 . S
C650 H667 0.930 . S
C651 Gd598 2.805 . S
C651 O633 1.263 . S
C651 O634 1.252 . S
C651 C645 1.500 . S
C652 H614 0.930 . S
C652 C628 1.417 . S
C652 C653 1.329 . S
C653 C623 1.437 . S
C653 H624 0.929 . S
C653 C652 1.329 . S
H654 C627 0.931 . S
C655 O637 1.265 . S
C655 O638 1.242 . S
C656 O641 1.261 . S
C656 O642 1.252 . S
C657 C660 1.394 . S
C657 C662 1.370 . S
C657 C663 1.500 . S
C658 C661 1.383 . S
C658 C662 1.395 . S
C659 C660 1.396 . S
C659 C661 1.365 . S
C659 H668 0.929 . S
C660 C657 1.394 . S
C660 C659 1.396 . S
C660 H669 0.930 . S
C661 C658 1.383 . S
C661 C659 1.365 . S
C661 H670 0.931 . S
C662 C657 1.370 . S
C662 C658 1.395 . S
C662 H671 0.930 . S
C663 Gd599 2.805 . S
C663 O639 1.263 . S
C663 O640 1.252 . S
C663 C657 1.500 . S
H664 C647 0.929 . S
H665 C648 0.930 . S
H666 C649 0.931 . S
H667 C650 0.930 . S
H668 C659 0.929 . S
H669 C660 0.930 . S
H670 C661 0.931 . S
H671 C662 0.930 . S
C672 O684 1.241 . S
C672 O685 1.280 . S
C673 O686 1.277 . S
C673 O687 1.245 . S
C674 O698 1.247 . S
C674 O700 1.289 . S
Mg675 O676 1.926 . S
Mg675 O685 1.984 . S
Mg675 O687 1.988 . S
Mg675 O688 2.061 1_655 S
O676 Mg675 1.926 . S
O676 Mg677 1.986 1_545 S
O676 Mg678 1.916 1_655 S
Mg677 O676 1.986 1_565 S
Mg677 O684 2.042 1_565 S
Mg677 O686 2.041 1_565 S
Mg677 O692 2.039 . S
Mg677 O700 2.238 . S
Mg678 O676 1.916 1_455 S
Mg678 O679 1.918 1_545 S
Mg678 O689 2.107 . S
Mg678 O691 2.078 1_445 S
Mg678 O700 2.105 1_445 S
Mg678 O701 2.079 . S
O679 Mg678 1.918 1_565 S
O679 Mg680 1.926 . S
O679 Mg681 1.984 1_565 S
Mg680 O679 1.926 . S
Mg680 O694 1.984 . S
Mg680 O697 1.988 . S
Mg680 O698 2.061 1_455 S
Mg681 O679 1.984 1_545 S
Mg681 O689 2.245 . S
Mg681 O693 2.036 1_545 S
Mg681 O695 2.034 1_545 S
Mg681 O702 2.046 . S
C682 O688 1.247 . S
C682 O689 1.289 . S
C683 O701 1.245 . S
C683 O702 1.274 . S
O684 C672 1.241 . S
O684 Mg677 2.042 1_545 S
O685 C672 1.280 . S
O685 Mg675 1.984 . S
O686 C673 1.277 . S
O686 Mg677 2.041 1_545 S
O687 C673 1.245 . S
O687 Mg675 1.988 . S
O688 Mg675 2.061 1_455 S
O688 C682 1.247 . S
O689 Mg678 2.107 . S
O689 Mg681 2.245 . S
O689 C682 1.289 . S
C690 O691 1.245 . S
C690 O692 1.274 . S
O691 Mg678 2.078 1_665 S
O691 C690 1.245 . S
O692 Mg677 2.039 . S
O692 C690 1.274 . S
O693 Mg681 2.036 1_565 S
O693 C696 1.241 . S
O694 Mg680 1.984 . S
O694 C696 1.280 . S
O695 Mg681 2.034 1_565 S
O695 C699 1.277 . S
C696 O693 1.241 . S
C696 O694 1.280 . S
O697 Mg680 1.988 . S
O697 C699 1.245 . S
O698 C674 1.247 . S
O698 Mg680 2.061 1_655 S
C699 O695 1.277 . S
C699 O697 1.245 . S
O700 C674 1.289 . S
O700 Mg677 2.238 . S
O700 Mg678 2.105 1_665 S
O701 Mg678 2.079 . S
O701 C683 1.245 . S
O702 Mg681 2.046 . S
O702 C683 1.274 . S
C703 O715 1.241 . S
C703 O716 1.280 . S
C704 O717 1.277 . S
C704 O718 1.245 . S
C705 O729 1.247 . S
C705 O731 1.289 . S
Mg706 O707 1.926 . S
Mg706 O716 1.984 . S
Mg706 O718 1.988 1_554 S
Mg706 O719 2.061 . S
O707 Mg706 1.926 . S
O707 Mg708 1.986 1_545 S
O707 Mg709 1.917 . S
Mg708 O707 1.986 1_565 S
Mg708 O715 2.042 1_565 S
Mg708 O717 2.041 1_564 S
Mg708 O723 2.039 . S
Mg708 O731 2.238 1_554 S
Mg709 O707 1.917 . S
Mg709 O710 1.917 1_544 S
Mg709 O720 2.106 . S
Mg709 O722 2.079 1_545 S
Mg709 O731 2.106 1_544 S
Mg709 O732 2.079 1_554 S
O710 Mg709 1.917 1_566 S
O710 Mg711 1.926 . S
O710 Mg712 1.984 1_565 S
Mg711 O710 1.926 . S
Mg711 O725 1.984 . S
Mg711 O728 1.988 1_556 S
Mg711 O729 2.061 . S
Mg712 O710 1.984 1_545 S
Mg712 O720 2.245 1_556 S
Mg712 O724 2.036 1_545 S
Mg712 O726 2.034 1_546 S
Mg712 O733 2.046 . S
C713 O719 1.247 . S
C713 O720 1.289 . S
C714 O732 1.245 . S
C714 O733 1.274 . S
O715 C703 1.241 . S
O715 Mg708 2.042 1_545 S
O716 C703 1.280 . S
O716 Mg706 1.984 . S
O717 C704 1.277 . S
O717 Mg708 2.041 1_546 S
O718 C704 1.245 . S
O718 Mg706 1.988 1_556 S
O719 Mg706 2.061 . S
O719 C713 1.247 . S
O720 Mg709 2.106 . S
O720 Mg712 2.245 1_554 S
O720 C713 1.289 . S
C721 O722 1.245 . S
C721 O723 1.274 . S
O722 Mg709 2.079 1_565 S
O722 C721 1.245 . S
O723 Mg708 2.039 . S
O723 C721 1.274 . S
O724 Mg712 2.036 1_565 S
O724 C727 1.241 . S
O725 Mg711 1.984 . S
O725 C727 1.280 . S
O726 Mg712 2.034 1_564 S
O726 C730 1.277 . S
C727 O724 1.241 . S
C727 O725 1.280 . S
O728 Mg711 1.988 1_554 S
O728 C730 1.245 . S
O729 C705 1.247 . S
O729 Mg711 2.061 . S
C730 O726 1.277 . S
C730 O728 1.245 . S
O731 C705 1.289 . S
O731 Mg708 2.238 1_556 S
O731 Mg709 2.106 1_566 S
O732 Mg709 2.079 1_556 S
O732 C714 1.245 . S
O733 Mg712 2.046 . S
O733 C714 1.274 . S
C734 O746 1.241 . S
C734 O747 1.280 . S
C735 O748 1.277 . S
C735 O749 1.245 . S
C736 O760 1.247 . S
C736 O762 1.289 . S
Mg737 O738 1.926 . S
Mg737 O747 1.984 . S
Mg737 O749 1.988 1_554 S
Mg737 O750 2.061 1_655 S
O738 Mg737 1.926 . S
O738 Mg739 1.986 . S
O738 Mg740 1.916 1_655 S
Mg739 O738 1.986 . S
Mg739 O746 2.042 . S
Mg739 O748 2.041 1_554 S
Mg739 O754 2.038 . S
Mg739 O762 2.238 1_554 S
Mg740 O738 1.916 1_455 S
Mg740 O741 1.918 1_554 S
Mg740 O751 2.108 . S
Mg740 O753 2.079 1_455 S
Mg740 O762 2.105 1_454 S
Mg740 O763 2.079 1_554 S
O741 Mg740 1.918 1_556 S
O741 Mg742 1.926 . S
O741 Mg743 1.986 . S
Mg742 O741 1.926 . S
Mg742 O756 1.984 . S
Mg742 O759 1.988 1_556 S
Mg742 O760 2.061 1_455 S
Mg743 O741 1.986 . S
Mg743 O751 2.238 1_556 S
Mg743 O755 2.042 . S
Mg743 O757 2.041 1_556 S
Mg743 O764 2.038 . S
C744 O750 1.247 . S
C744 O751 1.289 . S
C745 O763 1.245 . S
C745 O764 1.274 . S
O746 C734 1.241 . S
O746 Mg739 2.042 . S
O747 C734 1.280 . S
O747 Mg737 1.984 . S
O748 C735 1.277 . S
O748 Mg739 2.041 1_556 S
O749 C735 1.245 . S
O749 Mg737 1.988 1_556 S
O750 Mg737 2.061 1_455 S
O750 C744 1.247 . S
O751 Mg740 2.108 . S
O751 Mg743 2.238 1_554 S
O751 C744 1.289 . S
C752 O753 1.245 . S
C752 O754 1.274 . S
O753 Mg740 2.079 1_655 S
O753 C752 1.245 . S
O754 Mg739 2.038 . S
O754 C752 1.274 . S
O755 Mg743 2.042 . S
O755 C758 1.241 . S
O756 Mg742 1.984 . S
O756 C758 1.280 . S
O757 Mg743 2.041 1_554 S
O757 C761 1.277 . S
C758 O755 1.241 . S
C758 O756 1.280 . S
O759 Mg742 1.988 1_554 S
O759 C761 1.245 . S
O760 C736 1.247 . S
O760 Mg742 2.061 1_655 S
C761 O757 1.277 . S
C761 O759 1.245 . S
O762 C736 1.289 . S
O762 Mg739 2.238 1_556 S
O762 Mg740 2.105 1_656 S
O763 Mg740 2.079 1_556 S
O763 C745 1.245 . S
O764 Mg743 2.038 . S
O764 C745 1.274 . S
C765 O777 1.241 . S
C765 O778 1.280 . S
C766 O779 1.277 . S
C766 O780 1.245 . S
C767 O791 1.247 . S
C767 O793 1.289 . S
Mg768 O769 1.926 . S
Mg768 O778 1.984 . S
Mg768 O780 1.988 1_554 S
Mg768 O781 2.061 . S
O769 Mg768 1.926 . S
O769 Mg770 1.986 . S
O769 Mg771 1.917 . S
Mg770 O769 1.986 . S
Mg770 O777 2.042 . S
Mg770 O779 2.041 1_554 S
Mg770 O785 2.038 . S
Mg770 O793 2.238 1_554 S
Mg771 O769 1.917 . S
Mg771 O772 1.917 1_554 S
Mg771 O782 2.106 . S
Mg771 O784 2.079 . S
Mg771 O793 2.106 1_554 S
Mg771 O794 2.079 1_554 S
O772 Mg771 1.917 1_556 S
O772 Mg773 1.926 . S
O772 Mg774 1.986 . S
Mg773 O772 1.926 . S
Mg773 O787 1.984 . S
Mg773 O790 1.988 1_556 S
Mg773 O791 2.061 . S
Mg774 O772 1.986 . S
Mg774 O782 2.238 1_556 S
Mg774 O786 2.042 . S
Mg774 O788 2.041 1_556 S
Mg774 O795 2.038 . S
C775 O781 1.247 . S
C775 O782 1.289 . S
C776 O794 1.245 . S
C776 O795 1.274 . S
O777 C765 1.241 . S
O777 Mg770 2.042 . S
O778 C765 1.280 . S
O778 Mg768 1.984 . S
O779 C766 1.277 . S
O779 Mg770 2.041 1_556 S
O780 C766 1.245 . S
O780 Mg768 1.988 1_556 S
O781 Mg768 2.061 . S
O781 C775 1.247 . S
O782 Mg771 2.106 . S
O782 Mg774 2.238 1_554 S
O782 C775 1.289 . S
C783 O784 1.245 . S
C783 O785 1.274 . S
O784 Mg771 2.079 . S
O784 C783 1.245 . S
O785 Mg770 2.038 . S
O785 C783 1.274 . S
O786 Mg774 2.042 . S
O786 C789 1.241 . S
O787 Mg773 1.984 . S
O787 C789 1.280 . S
O788 Mg774 2.041 1_554 S
O788 C792 1.277 . S
C789 O786 1.241 . S
C789 O787 1.280 . S
O790 Mg773 1.988 1_554 S
O790 C792 1.245 . S
O791 C767 1.247 . S
O791 Mg773 2.061 . S
C792 O788 1.277 . S
C792 O790 1.245 . S
O793 C767 1.289 . S
O793 Mg770 2.238 1_556 S
O793 Mg771 2.106 1_556 S
O794 Mg771 2.079 1_556 S
O794 C776 1.245 . S
O795 Mg774 2.038 . S
O795 C776 1.274 . S
C796 O808 1.241 . S
C796 O809 1.280 . S
C797 O810 1.277 . S
C797 O811 1.245 . S
C798 O822 1.247 . S
C798 O824 1.289 . S
Mg799 O800 1.926 . S
Mg799 O809 1.984 . S
Mg799 O811 1.988 . S
Mg799 O812 2.061 1_655 S
O800 Mg799 1.926 . S
O800 Mg801 1.986 . S
O800 Mg802 1.916 1_655 S
Mg801 O800 1.986 . S
Mg801 O808 2.042 . S
Mg801 O810 2.041 . S
Mg801 O816 2.038 . S
Mg801 O824 2.238 . S
Mg802 O800 1.916 1_455 S
Mg802 O803 1.918 . S
Mg802 O813 2.107 . S
Mg802 O815 2.079 1_455 S
Mg802 O824 2.106 1_455 S
Mg802 O825 2.079 . S
O803 Mg802 1.918 . S
O803 Mg804 1.926 . S
O803 Mg805 1.986 . S
Mg804 O803 1.926 . S
Mg804 O818 1.984 . S
Mg804 O821 1.988 . S
Mg804 O822 2.061 1_455 S
Mg805 O803 1.986 . S
Mg805 O813 2.238 . S
Mg805 O817 2.042 . S
Mg805 O819 2.041 . S
Mg805 O826 2.038 . S
C806 O812 1.247 . S
C806 O813 1.289 . S
C807 O825 1.245 . S
C807 O826 1.274 . S
O808 C796 1.241 . S
O808 Mg801 2.042 . S
O809 C796 1.280 . S
O809 Mg799 1.984 . S
O810 C797 1.277 . S
O810 Mg801 2.041 . S
O811 C797 1.245 . S
O811 Mg799 1.988 . S
O812 Mg799 2.061 1_455 S
O812 C806 1.247 . S
O813 Mg802 2.107 . S
O813 Mg805 2.238 . S
O813 C806 1.289 . S
C814 O815 1.245 . S
C814 O816 1.274 . S
O815 Mg802 2.079 1_655 S
O815 C814 1.245 . S
O816 Mg801 2.038 . S
O816 C814 1.274 . S
O817 Mg805 2.042 . S
O817 C820 1.241 . S
O818 Mg804 1.984 . S
O818 C820 1.280 . S
O819 Mg805 2.041 . S
O819 C823 1.277 . S
C820 O817 1.241 . S
C820 O818 1.280 . S
O821 Mg804 1.988 . S
O821 C823 1.245 . S
O822 C798 1.247 . S
O822 Mg804 2.061 1_655 S
C823 O819 1.277 . S
C823 O821 1.245 . S
O824 C798 1.289 . S
O824 Mg801 2.238 . S
O824 Mg802 2.106 1_655 S
O825 Mg802 2.079 . S
O825 C807 1.245 . S
O826 Mg805 2.038 . S
O826 C807 1.274 . S
C827 O839 1.241 . S
C827 O840 1.280 . S
C828 O841 1.277 . S
C828 O842 1.245 . S
C829 O853 1.247 . S
C829 O855 1.289 . S
Mg830 O831 1.926 . S
Mg830 O840 1.984 . S
Mg830 O842 1.988 . S
Mg830 O843 2.061 . S
O831 Mg830 1.926 . S
O831 Mg832 1.986 1_545 S
O831 Mg833 1.917 . S
Mg832 O831 1.986 1_565 S
Mg832 O839 2.042 1_565 S
Mg832 O841 2.041 1_565 S
Mg832 O847 2.039 . S
Mg832 O855 2.238 . S
Mg833 O831 1.917 . S
Mg833 O834 1.917 1_545 S
Mg833 O844 2.106 . S
Mg833 O846 2.079 1_545 S
Mg833 O855 2.106 1_545 S
Mg833 O856 2.079 . S
O834 Mg833 1.917 1_565 S
O834 Mg835 1.926 . S
O834 Mg836 1.984 1_565 S
Mg835 O834 1.926 . S
Mg835 O849 1.984 . S
Mg835 O852 1.988 . S
Mg835 O853 2.061 . S
Mg836 O834 1.984 1_545 S
Mg836 O844 2.245 . S
Mg836 O848 2.036 1_545 S
Mg836 O850 2.034 1_545 S
Mg836 O857 2.046 . S
C837 O843 1.247 . S
C837 O844 1.289 . S
C838 O856 1.245 . S
C838 O857 1.274 . S
O839 C827 1.241 . S
O839 Mg832 2.042 1_545 S
O840 C827 1.280 . S
O840 Mg830 1.984 . S
O841 C828 1.277 . S
O841 Mg832 2.041 1_545 S
O842 C828 1.245 . S
O842 Mg830 1.988 . S
O843 Mg830 2.061 . S
O843 C837 1.247 . S
O844 Mg833 2.106 . S
O844 Mg836 2.245 . S
O844 C837 1.289 . S
C845 O846 1.245 . S
C845 O847 1.274 . S
O846 Mg833 2.079 1_565 S
O846 C845 1.245 . S
O847 Mg832 2.039 . S
O847 C845 1.274 . S
O848 Mg836 2.036 1_565 S
O848 C851 1.241 . S
O849 Mg835 1.984 . S
O849 C851 1.280 . S
O850 Mg836 2.034 1_565 S
O850 C854 1.277 . S
C851 O848 1.241 . S
C851 O849 1.280 . S
O852 Mg835 1.988 . S
O852 C854 1.245 . S
O853 C829 1.247 . S
O853 Mg835 2.061 . S
C854 O850 1.277 . S
C854 O852 1.245 . S
O855 C829 1.289 . S
O855 Mg832 2.238 . S
O855 Mg833 2.106 1_565 S
O856 Mg833 2.079 . S
O856 C838 1.245 . S
O857 Mg836 2.046 . S
O857 C838 1.274 . S
H858 C876 0.951 . S
H859 C878 0.951 . S
H860 C880 0.950 . S
H861 C881 0.950 . S
H862 C883 0.950 . S
H863 C886 0.950 . S
H864 C887 0.950 . S
H865 C889 0.950 . S
H866 C890 0.950 . S
H867 C891 0.951 . S
H868 C893 0.951 . S
H869 C895 0.950 . S
H870 C896 0.950 . S
H871 C898 0.950 . S
H872 C901 0.950 . S
H873 C902 0.950 . S
H874 C904 0.950 . S
H875 C905 0.950 . S
C876 H858 0.951 . S
C876 C877 1.366 . S
C876 C878 1.388 . S
C877 C876 1.366 . S
C877 C881 1.385 . S
C878 H859 0.951 . S
C878 C876 1.388 . S
C878 C879 1.366 . S
C879 C878 1.366 . S
C879 C880 1.414 . S
C879 C882 1.499 . S
C880 H860 0.950 . S
C880 C879 1.414 . S
C880 C881 1.374 . S
C881 H861 0.950 . S
C881 C877 1.385 . S
C881 C880 1.374 . S
C882 C879 1.499 . S
C882 C883 1.373 . S
C882 C884 1.389 . S
C883 H862 0.950 . S
C883 C882 1.373 . S
C883 C899 1.377 . S
C884 C882 1.389 . S
C884 C885 1.524 . S
C884 C898 1.377 . S
C885 C884 1.524 . S
C885 C886 1.397 . S
C885 C890 1.363 . S
C886 H863 0.950 . S
C886 C885 1.397 . S
C886 C887 1.334 . S
C887 H864 0.950 . S
C887 C886 1.334 . S
C887 C888 1.287 . S
C888 C887 1.287 . S
C888 C889 1.524 . S
C888 H907 0.913 . S
C889 H865 0.950 . S
C889 C888 1.524 . S
C889 C890 1.415 . S
C890 H866 0.950 . S
C890 C885 1.363 . S
C890 C889 1.415 . S
C891 H867 0.951 . S
C891 C892 1.366 . S
C891 C893 1.388 . S
C892 C891 1.366 . S
C892 C896 1.385 . S
C893 H868 0.951 . S
C893 C891 1.388 . S
C893 C894 1.366 . S
C894 C893 1.366 . S
C894 C895 1.414 . S
C894 C897 1.499 . S
C895 H869 0.950 . S
C895 C894 1.414 . S
C895 C896 1.374 . S
C896 H870 0.950 . S
C896 C892 1.385 . S
C896 C895 1.374 . S
C897 C894 1.499 . S
C897 C898 1.373 . S
C897 C899 1.389 . S
C898 H871 0.950 . S
C898 C884 1.377 . S
C898 C897 1.373 . S
C899 C883 1.377 . S
C899 C897 1.389 . S
C899 C900 1.524 . S
C900 C899 1.524 . S
C900 C901 1.397 . S
C900 C905 1.363 . S
C901 H872 0.950 . S
C901 C900 1.397 . S
C901 C902 1.334 . S
C902 H873 0.950 . S
C902 C901 1.334 . S
C902 C903 1.287 . S
C903 C902 1.287 . S
C903 C904 1.524 . S
C903 H906 0.999 . S
C904 H874 0.950 . S
C904 C903 1.524 . S
C904 C905 1.415 . S
C905 H875 0.950 . S
C905 C900 1.363 . S
C905 C904 1.415 . S
H906 C903 0.999 . S
H907 C888 0.913 . S
H908 C926 0.951 . S
H909 C928 0.951 . S
H910 C930 0.950 . S
H911 C931 0.950 . S
H912 C933 0.950 . S
H913 C936 0.950 . S
H914 C937 0.950 . S
H915 C939 0.950 . S
H916 C940 0.950 . S
H917 C941 0.951 . S
H918 C943 0.951 . S
H919 C945 0.950 . S
H920 C946 0.950 . S
H921 C948 0.950 . S
H922 C951 0.950 . S
H923 C952 0.950 . S
H924 C954 0.950 . S
H925 C955 0.950 . S
C926 H908 0.951 . S
C926 C927 1.366 . S
C926 C928 1.388 . S
C927 C926 1.366 . S
C927 C931 1.385 . S
C928 H909 0.951 . S
C928 C926 1.388 . S
C928 C929 1.366 . S
C929 C928 1.366 . S
C929 C930 1.414 . S
C929 C932 1.499 . S
C930 H910 0.950 . S
C930 C929 1.414 . S
C930 C931 1.374 . S
C931 H911 0.950 . S
C931 C927 1.385 . S
C931 C930 1.374 . S
C932 C929 1.499 . S
C932 C933 1.373 . S
C932 C934 1.389 . S
C933 H912 0.950 . S
C933 C932 1.373 . S
C933 C949 1.377 . S
C934 C932 1.389 . S
C934 C935 1.524 . S
C934 C948 1.377 . S
C935 C934 1.524 . S
C935 C936 1.397 . S
C935 C940 1.363 . S
C936 H913 0.950 . S
C936 C935 1.397 . S
C936 C937 1.334 . S
C937 H914 0.950 . S
C937 C936 1.334 . S
C937 C938 1.287 . S
C938 C937 1.287 . S
C938 C939 1.524 . S
C938 H957 0.913 . S
C939 H915 0.950 . S
C939 C938 1.524 . S
C939 C940 1.415 . S
C940 H916 0.950 . S
C940 C935 1.363 . S
C940 C939 1.415 . S
C941 H917 0.951 . S
C941 C942 1.366 . S
C941 C943 1.388 . S
C942 C941 1.366 . S
C942 C946 1.385 . S
C943 H918 0.951 . S
C943 C941 1.388 . S
C943 C944 1.366 . S
C944 C943 1.366 . S
C944 C945 1.414 . S
C944 C947 1.499 . S
C945 H919 0.950 . S
C945 C944 1.414 . S
C945 C946 1.374 . S
C946 H920 0.950 . S
C946 C942 1.385 . S
C946 C945 1.374 . S
C947 C944 1.499 . S
C947 C948 1.373 . S
C947 C949 1.389 . S
C948 H921 0.950 . S
C948 C934 1.377 . S
C948 C947 1.373 . S
C949 C933 1.377 . S
C949 C947 1.389 . S
C949 C950 1.524 . S
C950 C949 1.524 . S
C950 C951 1.397 . S
C950 C955 1.363 . S
C951 H922 0.950 . S
C951 C950 1.397 . S
C951 C952 1.334 . S
C952 H923 0.950 . S
C952 C951 1.334 . S
C952 C953 1.287 . S
C953 C952 1.287 . S
C953 C954 1.524 . S
C953 H956 0.999 . S
C954 H924 0.950 . S
C954 C953 1.524 . S
C954 C955 1.415 . S
C955 H925 0.950 . S
C955 C950 1.363 . S
C955 C954 1.415 . S
H956 C953 0.999 . S
H957 C938 0.913 . S
H958 C976 0.951 . S
H959 C978 0.951 . S
H960 C980 0.950 . S
H961 C981 0.950 . S
H962 C983 0.950 . S
H963 C986 0.950 . S
H964 C987 0.950 . S
H965 C989 0.950 . S
H966 C990 0.950 . S
H967 C991 0.951 . S
H968 C993 0.951 . S
H969 C995 0.950 . S
H970 C996 0.950 . S
H971 C998 0.950 . S
H972 C1001 0.950 . S
H973 C1002 0.950 . S
H974 C1004 0.950 . S
H975 C1005 0.950 . S
C976 H958 0.951 . S
C976 C977 1.366 . S
C976 C978 1.388 . S
C977 C976 1.366 . S
C977 C981 1.385 . S
C978 H959 0.951 . S
C978 C976 1.388 . S
C978 C979 1.366 . S
C979 C978 1.366 . S
C979 C980 1.414 . S
C979 C982 1.499 . S
C980 H960 0.950 . S
C980 C979 1.414 . S
C980 C981 1.374 . S
C981 H961 0.950 . S
C981 C977 1.385 . S
C981 C980 1.374 . S
C982 C979 1.499 . S
C982 C983 1.373 . S
C982 C984 1.389 . S
C983 H962 0.950 . S
C983 C982 1.373 . S
C983 C999 1.377 . S
C984 C982 1.389 . S
C984 C985 1.524 . S
C984 C998 1.377 . S
C985 C984 1.524 . S
C985 C986 1.397 . S
C985 C990 1.363 . S
C986 H963 0.950 . S
C986 C985 1.397 . S
C986 C987 1.334 . S
C987 H964 0.950 . S
C987 C986 1.334 . S
C987 C988 1.287 . S
C988 C987 1.287 . S
C988 C989 1.524 . S
C988 H1007 0.913 . S
C989 H965 0.950 . S
C989 C988 1.524 . S
C989 C990 1.415 . S
C990 H966 0.950 . S
C990 C985 1.363 . S
C990 C989 1.415 . S
C991 H967 0.951 . S
C991 C992 1.366 . S
C991 C993 1.388 . S
C992 C991 1.366 . S
C992 C996 1.385 . S
C993 H968 0.951 . S
C993 C991 1.388 . S
C993 C994 1.366 . S
C994 C993 1.366 . S
C994 C995 1.414 . S
C994 C997 1.499 . S
C995 H969 0.950 . S
C995 C994 1.414 . S
C995 C996 1.374 . S
C996 H970 0.950 . S
C996 C992 1.385 . S
C996 C995 1.374 . S
C997 C994 1.499 . S
C997 C998 1.373 . S
C997 C999 1.389 . S
C998 H971 0.950 . S
C998 C984 1.377 . S
C998 C997 1.373 . S
C999 C983 1.377 . S
C999 C997 1.389 . S
C999 C1000 1.524 . S
C1000 C999 1.524 . S
C1000 C1001 1.397 . S
C1000 C1005 1.363 . S
C1001 H972 0.950 . S
C1001 C1000 1.397 . S
C1001 C1002 1.334 . S
C1002 H973 0.950 . S
C1002 C1001 1.334 . S
C1002 C1003 1.287 . S
C1003 C1002 1.287 . S
C1003 C1004 1.524 . S
C1003 H1006 0.999 . S
C1004 H974 0.950 . S
C1004 C1003 1.524 . S
C1004 C1005 1.415 . S
C1005 H975 0.950 . S
C1005 C1000 1.363 . S
C1005 C1004 1.415 . S
H1006 C1003 0.999 . S
H1007 C988 0.913 . S
H1008 C1026 0.951 . S
H1009 C1028 0.951 . S
H1010 C1030 0.950 . S
H1011 C1031 0.950 . S
H1012 C1033 0.950 . S
H1013 C1036 0.950 . S
H1014 C1037 0.950 . S
H1015 C1039 0.950 . S
H1016 C1040 0.950 . S
H1017 C1041 0.951 . S
H1018 C1043 0.951 . S
H1019 C1045 0.950 . S
H1020 C1046 0.950 . S
H1021 C1048 0.950 . S
H1022 C1051 0.950 . S
H1023 C1052 0.950 . S
H1024 C1054 0.950 . S
H1025 C1055 0.950 . S
C1026 H1008 0.951 . S
C1026 C1027 1.366 . S
C1026 C1028 1.388 . S
C1027 C1026 1.366 . S
C1027 C1031 1.385 . S
C1028 H1009 0.951 . S
C1028 C1026 1.388 . S
C1028 C1029 1.366 . S
C1029 C1028 1.366 . S
C1029 C1030 1.414 . S
C1029 C1032 1.499 . S
C1030 H1010 0.950 . S
C1030 C1029 1.414 . S
C1030 C1031 1.374 . S
C1031 H1011 0.950 . S
C1031 C1027 1.385 . S
C1031 C1030 1.374 . S
C1032 C1029 1.499 . S
C1032 C1033 1.373 . S
C1032 C1034 1.389 . S
C1033 H1012 0.950 . S
C1033 C1032 1.373 . S
C1033 C1049 1.377 . S
C1034 C1032 1.389 . S
C1034 C1035 1.524 . S
C1034 C1048 1.377 . S
C1035 C1034 1.524 . S
C1035 C1036 1.397 . S
C1035 C1040 1.363 . S
C1036 H1013 0.950 . S
C1036 C1035 1.397 . S
C1036 C1037 1.334 . S
C1037 H1014 0.950 . S
C1037 C1036 1.334 . S
C1037 C1038 1.287 . S
C1038 C1037 1.287 . S
C1038 C1039 1.524 . S
C1038 H1057 0.913 . S
C1039 H1015 0.950 . S
C1039 C1038 1.524 . S
C1039 C1040 1.415 . S
C1040 H1016 0.950 . S
C1040 C1035 1.363 . S
C1040 C1039 1.415 . S
C1041 H1017 0.951 . S
C1041 C1042 1.366 . S
C1041 C1043 1.388 . S
C1042 C1041 1.366 . S
C1042 C1046 1.385 . S
C1043 H1018 0.951 . S
C1043 C1041 1.388 . S
C1043 C1044 1.366 . S
C1044 C1043 1.366 . S
C1044 C1045 1.414 . S
C1044 C1047 1.499 . S
C1045 H1019 0.950 . S
C1045 C1044 1.414 . S
C1045 C1046 1.374 . S
C1046 H1020 0.950 . S
C1046 C1042 1.385 . S
C1046 C1045 1.374 . S
C1047 C1044 1.499 . S
C1047 C1048 1.373 . S
C1047 C1049 1.389 . S
C1048 H1021 0.950 . S
C1048 C1034 1.377 . S
C1048 C1047 1.373 . S
C1049 C1033 1.377 . S
C1049 C1047 1.389 . S
C1049 C1050 1.524 . S
C1050 C1049 1.524 . S
C1050 C1051 1.397 . S
C1050 C1055 1.363 . S
C1051 H1022 0.950 . S
C1051 C1050 1.397 . S
C1051 C1052 1.334 . S
C1052 H1023 0.950 . S
C1052 C1051 1.334 . S
C1052 C1053 1.287 . S
C1053 C1052 1.287 . S
C1053 C1054 1.524 . S
C1053 H1056 0.999 . S
C1054 H1024 0.950 . S
C1054 C1053 1.524 . S
C1054 C1055 1.415 . S
C1055 H1025 0.950 . S
C1055 C1050 1.363 . S
C1055 C1054 1.415 . S
H1056 C1053 0.999 . S
H1057 C1038 0.913 . S
H1058 C1076 0.951 . S
H1059 C1078 0.951 . S
H1060 C1080 0.950 . S
H1061 C1081 0.950 . S
H1062 C1083 0.950 . S
H1063 C1086 0.950 . S
H1064 C1087 0.950 . S
H1065 C1089 0.950 . S
H1066 C1090 0.950 . S
H1067 C1091 0.951 . S
H1068 C1093 0.951 . S
H1069 C1095 0.950 . S
H1070 C1096 0.950 . S
H1071 C1098 0.950 . S
H1072 C1101 0.950 . S
H1073 C1102 0.950 1_545 S
H1074 C1104 0.950 1_545 S
H1075 C1105 0.950 . S
C1076 H1058 0.951 . S
C1076 C1077 1.366 . S
C1076 C1078 1.388 . S
C1077 C1076 1.366 . S
C1077 C1081 1.385 . S
C1078 H1059 0.951 . S
C1078 C1076 1.388 . S
C1078 C1079 1.366 . S
C1079 C1078 1.366 . S
C1079 C1080 1.414 . S
C1079 C1082 1.499 . S
C1080 H1060 0.950 . S
C1080 C1079 1.414 . S
C1080 C1081 1.374 . S
C1081 H1061 0.950 . S
C1081 C1077 1.385 . S
C1081 C1080 1.374 . S
C1082 C1079 1.499 . S
C1082 C1083 1.373 . S
C1082 C1084 1.389 . S
C1083 H1062 0.950 . S
C1083 C1082 1.373 . S
C1083 C1099 1.377 . S
C1084 C1082 1.389 . S
C1084 C1085 1.524 . S
C1084 C1098 1.377 . S
C1085 C1084 1.524 . S
C1085 C1086 1.397 . S
C1085 C1090 1.363 . S
C1086 H1063 0.950 . S
C1086 C1085 1.397 . S
C1086 C1087 1.334 . S
C1087 H1064 0.950 . S
C1087 C1086 1.334 . S
C1087 C1088 1.287 . S
C1088 C1087 1.287 . S
C1088 C1089 1.524 . S
C1088 H1107 0.913 . S
C1089 H1065 0.950 . S
C1089 C1088 1.524 . S
C1089 C1090 1.415 . S
C1090 H1066 0.950 . S
C1090 C1085 1.363 . S
C1090 C1089 1.415 . S
C1091 H1067 0.951 . S
C1091 C1092 1.366 . S
C1091 C1093 1.388 . S
C1092 C1091 1.366 . S
C1092 C1096 1.385 . S
C1093 H1068 0.951 . S
C1093 C1091 1.388 . S
C1093 C1094 1.366 . S
C1094 C1093 1.366 . S
C1094 C1095 1.414 . S
C1094 C1097 1.499 . S
C1095 H1069 0.950 . S
C1095 C1094 1.414 . S
C1095 C1096 1.374 . S
C1096 H1070 0.950 . S
C1096 C1092 1.385 . S
C1096 C1095 1.374 . S
C1097 C1094 1.499 . S
C1097 C1098 1.373 . S
C1097 C1099 1.389 . S
C1098 H1071 0.950 . S
C1098 C1084 1.377 . S
C1098 C1097 1.373 . S
C1099 C1083 1.377 . S
C1099 C1097 1.389 . S
C1099 C1100 1.524 . S
C1100 C1099 1.524 . S
C1100 C1101 1.397 . S
C1100 C1105 1.363 . S
C1101 H1072 0.950 . S
C1101 C1100 1.397 . S
C1101 C1102 1.334 . S
C1102 H1073 0.950 1_565 S
C1102 C1101 1.334 . S
C1102 C1103 1.287 1_565 S
C1103 C1102 1.287 1_545 S
C1103 C1104 1.524 1_545 S
C1103 H1106 0.999 . S
C1104 H1074 0.950 1_565 S
C1104 C1103 1.524 1_565 S
C1104 C1105 1.415 . S
C1105 H1075 0.950 . S
C1105 C1100 1.363 . S
C1105 C1104 1.415 . S
H1106 C1103 0.999 . S
H1107 C1088 0.913 . S
H1108 C1126 0.951 . S
H1109 C1128 0.951 . S
H1110 C1130 0.950 . S
H1111 C1131 0.950 . S
H1112 C1133 0.950 . S
H1113 C1136 0.950 . S
H1114 C1137 0.950 . S
H1115 C1139 0.950 . S
H1116 C1140 0.950 . S
H1117 C1141 0.951 . S
H1118 C1143 0.951 . S
H1119 C1145 0.950 . S
H1120 C1146 0.950 . S
H1121 C1148 0.950 . S
H1122 C1151 0.950 . S
H1123 C1152 0.950 . S
H1124 C1154 0.950 . S
H1125 C1155 0.950 . S
C1126 H1108 0.951 . S
C1126 C1127 1.366 . S
C1126 C1128 1.388 . S
C1127 C1126 1.366 . S
C1127 C1131 1.385 . S
C1128 H1109 0.951 . S
C1128 C1126 1.388 . S
C1128 C1129 1.366 . S
C1129 C1128 1.366 . S
C1129 C1130 1.414 . S
C1129 C1132 1.499 . S
C1130 H1110 0.950 . S
C1130 C1129 1.414 . S
C1130 C1131 1.374 . S
C1131 H1111 0.950 . S
C1131 C1127 1.385 . S
C1131 C1130 1.374 . S
C1132 C1129 1.499 . S
C1132 C1133 1.373 . S
C1132 C1134 1.389 . S
C1133 H1112 0.950 . S
C1133 C1132 1.373 . S
C1133 C1149 1.377 . S
C1134 C1132 1.389 . S
C1134 C1135 1.524 . S
C1134 C1148 1.377 . S
C1135 C1134 1.524 . S
C1135 C1136 1.397 . S
C1135 C1140 1.363 . S
C1136 H1113 0.950 . S
C1136 C1135 1.397 . S
C1136 C1137 1.334 . S
C1137 H1114 0.950 . S
C1137 C1136 1.334 . S
C1137 C1138 1.287 . S
C1138 C1137 1.287 . S
C1138 C1139 1.524 . S
C1138 H1157 0.913 . S
C1139 H1115 0.950 . S
C1139 C1138 1.524 . S
C1139 C1140 1.415 . S
C1140 H1116 0.950 . S
C1140 C1135 1.363 . S
C1140 C1139 1.415 . S
C1141 H1117 0.951 . S
C1141 C1142 1.366 . S
C1141 C1143 1.388 . S
C1142 C1141 1.366 . S
C1142 C1146 1.385 . S
C1143 H1118 0.951 . S
C1143 C1141 1.388 . S
C1143 C1144 1.366 . S
C1144 C1143 1.366 . S
C1144 C1145 1.414 . S
C1144 C1147 1.499 . S
C1145 H1119 0.950 . S
C1145 C1144 1.414 . S
C1145 C1146 1.374 . S
C1146 H1120 0.950 . S
C1146 C1142 1.385 . S
C1146 C1145 1.374 . S
C1147 C1144 1.499 . S
C1147 C1148 1.373 . S
C1147 C1149 1.389 . S
C1148 H1121 0.950 . S
C1148 C1134 1.377 . S
C1148 C1147 1.373 . S
C1149 C1133 1.377 . S
C1149 C1147 1.389 . S
C1149 C1150 1.524 . S
C1150 C1149 1.524 . S
C1150 C1151 1.397 . S
C1150 C1155 1.363 . S
C1151 H1122 0.950 . S
C1151 C1150 1.397 . S
C1151 C1152 1.334 . S
C1152 H1123 0.950 . S
C1152 C1151 1.334 . S
C1152 C1153 1.287 . S
C1153 C1152 1.287 . S
C1153 C1154 1.524 . S
C1153 H1156 0.999 . S
C1154 H1124 0.950 . S
C1154 C1153 1.524 . S
C1154 C1155 1.415 . S
C1155 H1125 0.950 . S
C1155 C1150 1.363 . S
C1155 C1154 1.415 . S
H1156 C1153 0.999 . S
H1157 C1138 0.913 . S
H1158 C1176 0.951 . S
H1159 C1178 0.951 . S
H1160 C1180 0.950 . S
H1161 C1181 0.950 . S
H1162 C1183 0.950 . S
H1163 C1186 0.950 . S
H1164 C1187 0.950 . S
H1165 C1189 0.950 . S
H1166 C1190 0.950 . S
H1167 C1191 0.951 . S
H1168 C1193 0.951 . S
H1169 C1195 0.950 . S
H1170 C1196 0.950 . S
H1171 C1198 0.950 . S
H1172 C1201 0.950 . S
H1173 C1202 0.950 . S
H1174 C1204 0.950 . S
H1175 C1205 0.950 . S
C1176 H1158 0.951 . S
C1176 C1177 1.366 . S
C1176 C1178 1.388 . S
C1177 C1176 1.366 . S
C1177 C1181 1.385 . S
C1178 H1159 0.951 . S
C1178 C1176 1.388 . S
C1178 C1179 1.366 . S
C1179 C1178 1.366 . S
C1179 C1180 1.414 . S
C1179 C1182 1.499 . S
C1180 H1160 0.950 . S
C1180 C1179 1.414 . S
C1180 C1181 1.374 . S
C1181 H1161 0.950 . S
C1181 C1177 1.385 . S
C1181 C1180 1.374 . S
C1182 C1179 1.499 . S
C1182 C1183 1.373 . S
C1182 C1184 1.389 . S
C1183 H1162 0.950 . S
C1183 C1182 1.373 . S
C1183 C1199 1.377 . S
C1184 C1182 1.389 . S
C1184 C1185 1.524 . S
C1184 C1198 1.377 . S
C1185 C1184 1.524 . S
C1185 C1186 1.397 . S
C1185 C1190 1.363 . S
C1186 H1163 0.950 . S
C1186 C1185 1.397 . S
C1186 C1187 1.334 . S
C1187 H1164 0.950 . S
C1187 C1186 1.334 . S
C1187 C1188 1.287 . S
C1188 C1187 1.287 . S
C1188 C1189 1.524 . S
C1188 H1207 0.913 . S
C1189 H1165 0.950 . S
C1189 C1188 1.524 . S
C1189 C1190 1.415 . S
C1190 H1166 0.950 . S
C1190 C1185 1.363 . S
C1190 C1189 1.415 . S
C1191 H1167 0.951 . S
C1191 C1192 1.366 . S
C1191 C1193 1.388 . S
C1192 C1191 1.366 . S
C1192 C1196 1.385 . S
C1193 H1168 0.951 . S
C1193 C1191 1.388 . S
C1193 C1194 1.366 . S
C1194 C1193 1.366 . S
C1194 C1195 1.414 . S
C1194 C1197 1.499 . S
C1195 H1169 0.950 . S
C1195 C1194 1.414 . S
C1195 C1196 1.374 . S
C1196 H1170 0.950 . S
C1196 C1192 1.385 . S
C1196 C1195 1.374 . S
C1197 C1194 1.499 . S
C1197 C1198 1.373 . S
C1197 C1199 1.389 . S
C1198 H1171 0.950 . S
C1198 C1184 1.377 . S
C1198 C1197 1.373 . S
C1199 C1183 1.377 . S
C1199 C1197 1.389 . S
C1199 C1200 1.524 . S
C1200 C1199 1.524 . S
C1200 C1201 1.397 . S
C1200 C1205 1.363 . S
C1201 H1172 0.950 . S
C1201 C1200 1.397 . S
C1201 C1202 1.334 . S
C1202 H1173 0.950 . S
C1202 C1201 1.334 . S
C1202 C1203 1.287 1_545 S
C1203 C1202 1.287 1_565 S
C1203 C1204 1.524 . S
C1203 H1206 0.999 . S
C1204 H1174 0.950 . S
C1204 C1203 1.524 . S
C1204 C1205 1.415 1_565 S
C1205 H1175 0.950 . S
C1205 C1200 1.363 . S
C1205 C1204 1.415 1_545 S
H1206 C1203 0.999 . S
H1207 C1188 0.913 . S
H1208 C1226 0.951 . S
H1209 C1228 0.951 . S
H1210 C1230 0.950 . S
H1211 C1231 0.950 . S
H1212 C1233 0.950 . S
H1213 C1236 0.950 . S
H1214 C1237 0.950 . S
H1215 C1239 0.950 . S
H1216 C1240 0.950 . S
H1217 C1241 0.951 . S
H1218 C1243 0.951 . S
H1219 C1245 0.950 . S
H1220 C1246 0.950 . S
H1221 C1248 0.950 . S
H1222 C1251 0.950 . S
H1223 C1252 0.950 . S
H1224 C1254 0.950 . S
H1225 C1255 0.950 . S
C1226 H1208 0.951 . S
C1226 C1227 1.366 . S
C1226 C1228 1.388 . S
C1227 C1226 1.366 . S
C1227 C1231 1.385 . S
C1228 H1209 0.951 . S
C1228 C1226 1.388 . S
C1228 C1229 1.366 . S
C1229 C1228 1.366 . S
C1229 C1230 1.414 . S
C1229 C1232 1.499 . S
C1230 H1210 0.950 . S
C1230 C1229 1.414 . S
C1230 C1231 1.374 . S
C1231 H1211 0.950 . S
C1231 C1227 1.385 . S
C1231 C1230 1.374 . S
C1232 C1229 1.499 . S
C1232 C1233 1.373 . S
C1232 C1234 1.389 . S
C1233 H1212 0.950 . S
C1233 C1232 1.373 . S
C1233 C1249 1.377 . S
C1234 C1232 1.389 . S
C1234 C1235 1.524 . S
C1234 C1248 1.377 . S
C1235 C1234 1.524 . S
C1235 C1236 1.397 . S
C1235 C1240 1.363 . S
C1236 H1213 0.950 . S
C1236 C1235 1.397 . S
C1236 C1237 1.334 . S
C1237 H1214 0.950 . S
C1237 C1236 1.334 . S
C1237 C1238 1.287 . S
C1238 C1237 1.287 . S
C1238 C1239 1.524 . S
C1238 H1257 0.913 . S
C1239 H1215 0.950 . S
C1239 C1238 1.524 . S
C1239 C1240 1.415 . S
C1240 H1216 0.950 . S
C1240 C1235 1.363 . S
C1240 C1239 1.415 . S
C1241 H1217 0.951 . S
C1241 C1242 1.366 . S
C1241 C1243 1.388 . S
C1242 C1241 1.366 . S
C1242 C1246 1.385 . S
C1243 H1218 0.951 . S
C1243 C1241 1.388 . S
C1243 C1244 1.366 . S
C1244 C1243 1.366 . S
C1244 C1245 1.414 . S
C1244 C1247 1.499 . S
C1245 H1219 0.950 . S
C1245 C1244 1.414 . S
C1245 C1246 1.374 . S
C1246 H1220 0.950 . S
C1246 C1242 1.385 . S
C1246 C1245 1.374 . S
C1247 C1244 1.499 . S
C1247 C1248 1.373 . S
C1247 C1249 1.389 . S
C1248 H1221 0.950 . S
C1248 C1234 1.377 . S
C1248 C1247 1.373 . S
C1249 C1233 1.377 . S
C1249 C1247 1.389 . S
C1249 C1250 1.524 . S
C1250 C1249 1.524 . S
C1250 C1251 1.397 . S
C1250 C1255 1.363 . S
C1251 H1222 0.950 . S
C1251 C1250 1.397 . S
C1251 C1252 1.334 . S
C1252 H1223 0.950 . S
C1252 C1251 1.334 . S
C1252 C1253 1.287 . S
C1253 C1252 1.287 . S
C1253 C1254 1.524 . S
C1253 H1256 0.999 . S
C1254 H1224 0.950 . S
C1254 C1253 1.524 . S
C1254 C1255 1.415 . S
C1255 H1225 0.950 . S
C1255 C1250 1.363 . S
C1255 C1254 1.415 . S
H1256 C1253 0.999 . S
H1257 C1238 0.913 . S
H1258 C1276 0.951 . S
H1259 C1278 0.951 . S
H1260 C1280 0.950 . S
H1261 C1281 0.950 . S
H1262 C1283 0.950 . S
H1263 C1286 0.950 . S
H1264 C1287 0.950 . S
H1265 C1289 0.950 . S
H1266 C1290 0.950 . S
H1267 C1291 0.951 . S
H1268 C1293 0.951 . S
H1269 C1295 0.950 . S
H1270 C1296 0.950 . S
H1271 C1298 0.950 . S
H1272 C1301 0.950 . S
H1273 C1302 0.950 . S
H1274 C1304 0.950 . S
H1275 C1305 0.950 . S
C1276 H1258 0.951 . S
C1276 C1277 1.366 . S
C1276 C1278 1.388 . S
C1277 C1276 1.366 . S
C1277 C1281 1.385 . S
C1278 H1259 0.951 . S
C1278 C1276 1.388 . S
C1278 C1279 1.366 . S
C1279 C1278 1.366 . S
C1279 C1280 1.414 . S
C1279 C1282 1.499 . S
C1280 H1260 0.950 . S
C1280 C1279 1.414 . S
C1280 C1281 1.374 . S
C1281 H1261 0.950 . S
C1281 C1277 1.385 . S
C1281 C1280 1.374 . S
C1282 C1279 1.499 . S
C1282 C1283 1.373 . S
C1282 C1284 1.389 . S
C1283 H1262 0.950 . S
C1283 C1282 1.373 . S
C1283 C1299 1.377 . S
C1284 C1282 1.389 . S
C1284 C1285 1.524 . S
C1284 C1298 1.377 . S
C1285 C1284 1.524 . S
C1285 C1286 1.397 . S
C1285 C1290 1.363 . S
C1286 H1263 0.950 . S
C1286 C1285 1.397 . S
C1286 C1287 1.334 . S
C1287 H1264 0.950 . S
C1287 C1286 1.334 . S
C1287 C1288 1.287 . S
C1288 C1287 1.287 . S
C1288 C1289 1.524 . S
C1288 H1307 0.913 . S
C1289 H1265 0.950 . S
C1289 C1288 1.524 . S
C1289 C1290 1.415 . S
C1290 H1266 0.950 . S
C1290 C1285 1.363 . S
C1290 C1289 1.415 . S
C1291 H1267 0.951 . S
C1291 C1292 1.366 . S
C1291 C1293 1.388 . S
C1292 C1291 1.366 . S
C1292 C1296 1.385 . S
C1293 H1268 0.951 . S
C1293 C1291 1.388 . S
C1293 C1294 1.366 . S
C1294 C1293 1.366 . S
C1294 C1295 1.414 . S
C1294 C1297 1.499 . S
C1295 H1269 0.950 . S
C1295 C1294 1.414 . S
C1295 C1296 1.374 . S
C1296 H1270 0.950 . S
C1296 C1292 1.385 . S
C1296 C1295 1.374 . S
C1297 C1294 1.499 . S
C1297 C1298 1.373 . S
C1297 C1299 1.389 . S
C1298 H1271 0.950 . S
C1298 C1284 1.377 . S
C1298 C1297 1.373 . S
C1299 C1283 1.377 . S
C1299 C1297 1.389 . S
C1299 C1300 1.524 . S
C1300 C1299 1.524 . S
C1300 C1301 1.397 . S
C1300 C1305 1.363 . S
C1301 H1272 0.950 . S
C1301 C1300 1.397 . S
C1301 C1302 1.334 . S
C1302 H1273 0.950 . S
C1302 C1301 1.334 . S
C1302 C1303 1.287 . S
C1303 C1302 1.287 . S
C1303 C1304 1.524 . S
C1303 H1306 0.999 . S
C1304 H1274 0.950 . S
C1304 C1303 1.524 . S
C1304 C1305 1.415 . S
C1305 H1275 0.950 . S
C1305 C1300 1.363 . S
C1305 C1304 1.415 . S
H1306 C1303 0.999 . S
H1307 C1288 0.913 . S
H1308 C1326 0.951 . S
H1309 C1328 0.951 . S
H1310 C1330 0.950 . S
H1311 C1331 0.950 . S
H1312 C1333 0.950 . S
H1313 C1336 0.950 . S
H1314 C1337 0.950 . S
H1315 C1339 0.950 . S
H1316 C1340 0.950 . S
H1317 C1341 0.951 . S
H1318 C1343 0.951 . S
H1319 C1345 0.950 . S
H1320 C1346 0.950 . S
H1321 C1348 0.950 . S
H1322 C1351 0.950 . S
H1323 C1352 0.950 . S
H1324 C1354 0.950 . S
H1325 C1355 0.950 . S
C1326 H1308 0.951 . S
C1326 C1327 1.366 . S
C1326 C1328 1.388 . S
C1327 C1326 1.366 . S
C1327 C1331 1.385 . S
C1328 H1309 0.951 . S
C1328 C1326 1.388 . S
C1328 C1329 1.366 . S
C1329 C1328 1.366 . S
C1329 C1330 1.414 . S
C1329 C1332 1.499 . S
C1330 H1310 0.950 . S
C1330 C1329 1.414 . S
C1330 C1331 1.374 . S
C1331 H1311 0.950 . S
C1331 C1327 1.385 . S
C1331 C1330 1.374 . S
C1332 C1329 1.499 . S
C1332 C1333 1.373 . S
C1332 C1334 1.389 . S
C1333 H1312 0.950 . S
C1333 C1332 1.373 . S
C1333 C1349 1.377 . S
C1334 C1332 1.389 . S
C1334 C1335 1.524 . S
C1334 C1348 1.377 . S
C1335 C1334 1.524 . S
C1335 C1336 1.397 . S
C1335 C1340 1.363 . S
C1336 H1313 0.950 . S
C1336 C1335 1.397 . S
C1336 C1337 1.334 . S
C1337 H1314 0.950 . S
C1337 C1336 1.334 . S
C1337 C1338 1.287 . S
C1338 C1337 1.287 . S
C1338 C1339 1.524 . S
C1338 H1357 0.913 . S
C1339 H1315 0.950 . S
C1339 C1338 1.524 . S
C1339 C1340 1.415 . S
C1340 H1316 0.950 . S
C1340 C1335 1.363 . S
C1340 C1339 1.415 . S
C1341 H1317 0.951 . S
C1341 C1342 1.366 . S
C1341 C1343 1.388 . S
C1342 C1341 1.366 . S
C1342 C1346 1.385 . S
C1343 H1318 0.951 . S
C1343 C1341 1.388 . S
C1343 C1344 1.366 . S
C1344 C1343 1.366 . S
C1344 C1345 1.414 . S
C1344 C1347 1.499 . S
C1345 H1319 0.950 . S
C1345 C1344 1.414 . S
C1345 C1346 1.374 . S
C1346 H1320 0.950 . S
C1346 C1342 1.385 . S
C1346 C1345 1.374 . S
C1347 C1344 1.499 . S
C1347 C1348 1.373 . S
C1347 C1349 1.389 . S
C1348 H1321 0.950 . S
C1348 C1334 1.377 . S
C1348 C1347 1.373 . S
C1349 C1333 1.377 . S
C1349 C1347 1.389 . S
C1349 C1350 1.524 . S
C1350 C1349 1.524 . S
C1350 C1351 1.397 . S
C1350 C1355 1.363 . S
C1351 H1322 0.950 . S
C1351 C1350 1.397 . S
C1351 C1352 1.334 . S
C1352 H1323 0.950 . S
C1352 C1351 1.334 . S
C1352 C1353 1.287 . S
C1353 C1352 1.287 . S
C1353 C1354 1.524 . S
C1353 H1356 0.999 . S
C1354 H1324 0.950 . S
C1354 C1353 1.524 . S
C1354 C1355 1.415 . S
C1355 H1325 0.950 . S
C1355 C1350 1.363 . S
C1355 C1354 1.415 . S
H1356 C1353 0.999 . S
H1357 C1338 0.913 . S
H1358 C1376 0.951 . S
H1359 C1378 0.951 . S
H1360 C1380 0.950 . S
H1361 C1381 0.950 . S
H1362 C1383 0.950 . S
H1363 C1386 0.950 . S
H1364 C1387 0.950 . S
H1365 C1389 0.950 . S
H1366 C1390 0.950 . S
H1367 C1391 0.951 . S
H1368 C1393 0.951 . S
H1369 C1395 0.950 . S
H1370 C1396 0.950 . S
H1371 C1398 0.950 . S
H1372 C1401 0.950 . S
H1373 C1402 0.950 1_545 S
H1374 C1404 0.950 . S
H1375 C1405 0.950 . S
C1376 H1358 0.951 . S
C1376 C1377 1.366 . S
C1376 C1378 1.388 . S
C1377 C1376 1.366 . S
C1377 C1381 1.385 . S
C1378 H1359 0.951 . S
C1378 C1376 1.388 . S
C1378 C1379 1.366 . S
C1379 C1378 1.366 . S
C1379 C1380 1.414 . S
C1379 C1382 1.499 . S
C1380 H1360 0.950 . S
C1380 C1379 1.414 . S
C1380 C1381 1.374 . S
C1381 H1361 0.950 . S
C1381 C1377 1.385 . S
C1381 C1380 1.374 . S
C1382 C1379 1.499 . S
C1382 C1383 1.373 . S
C1382 C1384 1.389 . S
C1383 H1362 0.950 . S
C1383 C1382 1.373 . S
C1383 C1399 1.377 . S
C1384 C1382 1.389 . S
C1384 C1385 1.524 . S
C1384 C1398 1.377 . S
C1385 C1384 1.524 . S
C1385 C1386 1.397 . S
C1385 C1390 1.363 . S
C1386 H1363 0.950 . S
C1386 C1385 1.397 . S
C1386 C1387 1.334 . S
C1387 H1364 0.950 . S
C1387 C1386 1.334 . S
C1387 C1388 1.287 . S
C1388 C1387 1.287 . S
C1388 C1389 1.524 . S
C1388 H1407 0.913 . S
C1389 H1365 0.950 . S
C1389 C1388 1.524 . S
C1389 C1390 1.415 . S
C1390 H1366 0.950 . S
C1390 C1385 1.363 . S
C1390 C1389 1.415 . S
C1391 H1367 0.951 . S
C1391 C1392 1.366 . S
C1391 C1393 1.388 . S
C1392 C1391 1.366 . S
C1392 C1396 1.385 . S
C1393 H1368 0.951 . S
C1393 C1391 1.388 . S
C1393 C1394 1.366 . S
C1394 C1393 1.366 . S
C1394 C1395 1.414 . S
C1394 C1397 1.499 . S
C1395 H1369 0.950 . S
C1395 C1394 1.414 . S
C1395 C1396 1.374 . S
C1396 H1370 0.950 . S
C1396 C1392 1.385 . S
C1396 C1395 1.374 . S
C1397 C1394 1.499 . S
C1397 C1398 1.373 . S
C1397 C1399 1.389 . S
C1398 H1371 0.950 . S
C1398 C1384 1.377 . S
C1398 C1397 1.373 . S
C1399 C1383 1.377 . S
C1399 C1397 1.389 . S
C1399 C1400 1.524 . S
C1400 C1399 1.524 . S
C1400 C1401 1.397 . S
C1400 C1405 1.363 . S
C1401 H1372 0.950 . S
C1401 C1400 1.397 . S
C1401 C1402 1.334 . S
C1402 H1373 0.950 1_565 S
C1402 C1401 1.334 . S
C1402 C1403 1.287 1_565 S
C1403 C1402 1.287 1_545 S
C1403 C1404 1.524 . S
C1403 H1406 0.999 . S
C1404 H1374 0.950 . S
C1404 C1403 1.524 . S
C1404 C1405 1.415 1_545 S
C1405 H1375 0.950 . S
C1405 C1400 1.363 . S
C1405 C1404 1.415 1_565 S
H1406 C1403 0.999 . S
H1407 C1388 0.913 . S
H1408 C1426 0.951 . S
H1409 C1428 0.951 . S
H1410 C1430 0.950 . S
H1411 C1431 0.950 . S
H1412 C1433 0.950 . S
H1413 C1436 0.950 . S
H1414 C1437 0.950 . S
H1415 C1439 0.950 . S
H1416 C1440 0.950 . S
H1417 C1441 0.951 . S
H1418 C1443 0.951 . S
H1419 C1445 0.950 . S
H1420 C1446 0.950 . S
H1421 C1448 0.950 . S
H1422 C1451 0.950 . S
H1423 C1452 0.950 . S
H1424 C1454 0.950 . S
H1425 C1455 0.950 . S
C1426 H1408 0.951 . S
C1426 C1427 1.366 . S
C1426 C1428 1.388 . S
C1427 C1426 1.366 . S
C1427 C1431 1.385 . S
C1428 H1409 0.951 . S
C1428 C1426 1.388 . S
C1428 C1429 1.366 . S
C1429 C1428 1.366 . S
C1429 C1430 1.414 . S
C1429 C1432 1.499 . S
C1430 H1410 0.950 . S
C1430 C1429 1.414 . S
C1430 C1431 1.374 . S
C1431 H1411 0.950 . S
C1431 C1427 1.385 . S
C1431 C1430 1.374 . S
C1432 C1429 1.499 . S
C1432 C1433 1.373 . S
C1432 C1434 1.389 . S
C1433 H1412 0.950 . S
C1433 C1432 1.373 . S
C1433 C1449 1.377 . S
C1434 C1432 1.389 . S
C1434 C1435 1.524 . S
C1434 C1448 1.377 . S
C1435 C1434 1.524 . S
C1435 C1436 1.397 . S
C1435 C1440 1.363 . S
C1436 H1413 0.950 . S
C1436 C1435 1.397 . S
C1436 C1437 1.334 . S
C1437 H1414 0.950 . S
C1437 C1436 1.334 . S
C1437 C1438 1.287 . S
C1438 C1437 1.287 . S
C1438 C1439 1.524 . S
C1438 H1457 0.913 . S
C1439 H1415 0.950 . S
C1439 C1438 1.524 . S
C1439 C1440 1.415 . S
C1440 H1416 0.950 . S
C1440 C1435 1.363 . S
C1440 C1439 1.415 . S
C1441 H1417 0.951 . S
C1441 C1442 1.366 . S
C1441 C1443 1.388 . S
C1442 C1441 1.366 . S
C1442 C1446 1.385 . S
C1443 H1418 0.951 . S
C1443 C1441 1.388 . S
C1443 C1444 1.366 . S
C1444 C1443 1.366 . S
C1444 C1445 1.414 . S
C1444 C1447 1.499 . S
C1445 H1419 0.950 . S
C1445 C1444 1.414 . S
C1445 C1446 1.374 . S
C1446 H1420 0.950 . S
C1446 C1442 1.385 . S
C1446 C1445 1.374 . S
C1447 C1444 1.499 . S
C1447 C1448 1.373 . S
C1447 C1449 1.389 . S
C1448 H1421 0.950 . S
C1448 C1434 1.377 . S
C1448 C1447 1.373 . S
C1449 C1433 1.377 . S
C1449 C1447 1.389 . S
C1449 C1450 1.524 . S
C1450 C1449 1.524 . S
C1450 C1451 1.397 . S
C1450 C1455 1.363 . S
C1451 H1422 0.950 . S
C1451 C1450 1.397 . S
C1451 C1452 1.334 . S
C1452 H1423 0.950 . S
C1452 C1451 1.334 . S
C1452 C1453 1.287 . S
C1453 C1452 1.287 . S
C1453 C1454 1.524 . S
C1453 H1456 0.999 . S
C1454 H1424 0.950 . S
C1454 C1453 1.524 . S
C1454 C1455 1.415 . S
C1455 H1425 0.950 . S
C1455 C1450 1.363 . S
C1455 C1454 1.415 . S
H1456 C1453 0.999 . S
H1457 C1438 0.913 . S
H1458 C1476 0.951 . S
H1459 C1478 0.951 . S
H1460 C1480 0.950 . S
H1461 C1481 0.950 . S
H1462 C1483 0.950 . S
H1463 C1486 0.950 . S
H1464 C1487 0.950 . S
H1465 C1489 0.950 . S
H1466 C1490 0.950 . S
H1467 C1491 0.951 . S
H1468 C1493 0.951 . S
H1469 C1495 0.950 . S
H1470 C1496 0.950 . S
H1471 C1498 0.950 . S
H1472 C1501 0.950 . S
H1473 C1502 0.950 . S
H1474 C1504 0.950 . S
H1475 C1505 0.950 . S
C1476 H1458 0.951 . S
C1476 C1477 1.366 . S
C1476 C1478 1.388 . S
C1477 C1476 1.366 . S
C1477 C1481 1.385 . S
C1478 H1459 0.951 . S
C1478 C1476 1.388 . S
C1478 C1479 1.366 . S
C1479 C1478 1.366 . S
C1479 C1480 1.414 . S
C1479 C1482 1.499 . S
C1480 H1460 0.950 . S
C1480 C1479 1.414 . S
C1480 C1481 1.374 . S
C1481 H1461 0.950 . S
C1481 C1477 1.385 . S
C1481 C1480 1.374 . S
C1482 C1479 1.499 . S
C1482 C1483 1.373 . S
C1482 C1484 1.389 . S
C1483 H1462 0.950 . S
C1483 C1482 1.373 . S
C1483 C1499 1.377 . S
C1484 C1482 1.389 . S
C1484 C1485 1.524 . S
C1484 C1498 1.377 . S
C1485 C1484 1.524 . S
C1485 C1486 1.397 . S
C1485 C1490 1.363 . S
C1486 H1463 0.950 . S
C1486 C1485 1.397 . S
C1486 C1487 1.334 . S
C1487 H1464 0.950 . S
C1487 C1486 1.334 . S
C1487 C1488 1.287 . S
C1488 C1487 1.287 . S
C1488 C1489 1.524 . S
C1488 H1507 0.913 . S
C1489 H1465 0.950 . S
C1489 C1488 1.524 . S
C1489 C1490 1.415 . S
C1490 H1466 0.950 . S
C1490 C1485 1.363 . S
C1490 C1489 1.415 . S
C1491 H1467 0.951 . S
C1491 C1492 1.366 . S
C1491 C1493 1.388 . S
C1492 C1491 1.366 . S
C1492 C1496 1.385 . S
C1493 H1468 0.951 . S
C1493 C1491 1.388 . S
C1493 C1494 1.366 . S
C1494 C1493 1.366 . S
C1494 C1495 1.414 . S
C1494 C1497 1.499 . S
C1495 H1469 0.950 . S
C1495 C1494 1.414 . S
C1495 C1496 1.374 . S
C1496 H1470 0.950 . S
C1496 C1492 1.385 . S
C1496 C1495 1.374 . S
C1497 C1494 1.499 . S
C1497 C1498 1.373 . S
C1497 C1499 1.389 . S
C1498 H1471 0.950 . S
C1498 C1484 1.377 . S
C1498 C1497 1.373 . S
C1499 C1483 1.377 . S
C1499 C1497 1.389 . S
C1499 C1500 1.524 . S
C1500 C1499 1.524 . S
C1500 C1501 1.397 . S
C1500 C1505 1.363 . S
C1501 H1472 0.950 . S
C1501 C1500 1.397 . S
C1501 C1502 1.334 . S
C1502 H1473 0.950 . S
C1502 C1501 1.334 . S
C1502 C1503 1.287 . S
C1503 C1502 1.287 . S
C1503 C1504 1.524 . S
C1503 H1506 0.999 . S
C1504 H1474 0.950 . S
C1504 C1503 1.524 . S
C1504 C1505 1.415 . S
C1505 H1475 0.950 . S
C1505 C1500 1.363 . S
C1505 C1504 1.415 . S
H1506 C1503 0.999 . S
H1507 C1488 0.913 . S
H1508 C1526 0.951 . S
H1509 C1528 0.951 . S
H1510 C1530 0.950 . S
H1511 C1531 0.950 . S
H1512 C1533 0.950 . S
H1513 C1536 0.950 . S
H1514 C1537 0.950 . S
H1515 C1539 0.950 . S
H1516 C1540 0.950 . S
H1517 C1541 0.951 . S
H1518 C1543 0.951 . S
H1519 C1545 0.950 . S
H1520 C1546 0.950 . S
H1521 C1548 0.950 . S
H1522 C1551 0.950 . S
H1523 C1552 0.950 . S
H1524 C1554 0.950 . S
H1525 C1555 0.950 . S
C1526 H1508 0.951 . S
C1526 C1527 1.366 . S
C1526 C1528 1.388 . S
C1527 C1526 1.366 . S
C1527 C1531 1.385 . S
C1528 H1509 0.951 . S
C1528 C1526 1.388 . S
C1528 C1529 1.366 . S
C1529 C1528 1.366 . S
C1529 C1530 1.414 . S
C1529 C1532 1.499 . S
C1530 H1510 0.950 . S
C1530 C1529 1.414 . S
C1530 C1531 1.374 . S
C1531 H1511 0.950 . S
C1531 C1527 1.385 . S
C1531 C1530 1.374 . S
C1532 C1529 1.499 . S
C1532 C1533 1.373 . S
C1532 C1534 1.389 . S
C1533 H1512 0.950 . S
C1533 C1532 1.373 . S
C1533 C1549 1.377 . S
C1534 C1532 1.389 . S
C1534 C1535 1.524 . S
C1534 C1548 1.377 . S
C1535 C1534 1.524 . S
C1535 C1536 1.397 . S
C1535 C1540 1.363 . S
C1536 H1513 0.950 . S
C1536 C1535 1.397 . S
C1536 C1537 1.334 . S
C1537 H1514 0.950 . S
C1537 C1536 1.334 . S
C1537 C1538 1.287 . S
C1538 C1537 1.287 . S
C1538 C1539 1.524 . S
C1538 H1557 0.913 . S
C1539 H1515 0.950 . S
C1539 C1538 1.524 . S
C1539 C1540 1.415 . S
C1540 H1516 0.950 . S
C1540 C1535 1.363 . S
C1540 C1539 1.415 . S
C1541 H1517 0.951 . S
C1541 C1542 1.366 . S
C1541 C1543 1.388 . S
C1542 C1541 1.366 . S
C1542 C1546 1.385 . S
C1543 H1518 0.951 . S
C1543 C1541 1.388 . S
C1543 C1544 1.366 . S
C1544 C1543 1.366 . S
C1544 C1545 1.414 . S
C1544 C1547 1.499 . S
C1545 H1519 0.950 . S
C1545 C1544 1.414 . S
C1545 C1546 1.374 . S
C1546 H1520 0.950 . S
C1546 C1542 1.385 . S
C1546 C1545 1.374 . S
C1547 C1544 1.499 . S
C1547 C1548 1.373 . S
C1547 C1549 1.389 . S
C1548 H1521 0.950 . S
C1548 C1534 1.377 . S
C1548 C1547 1.373 . S
C1549 C1533 1.377 . S
C1549 C1547 1.389 . S
C1549 C1550 1.524 . S
C1550 C1549 1.524 . S
C1550 C1551 1.397 . S
C1550 C1555 1.363 . S
C1551 H1522 0.950 . S
C1551 C1550 1.397 . S
C1551 C1552 1.334 . S
C1552 H1523 0.950 . S
C1552 C1551 1.334 . S
C1552 C1553 1.287 . S
C1553 C1552 1.287 . S
C1553 C1554 1.524 . S
C1553 H1556 1.023 . S
C1554 H1524 0.950 . S
C1554 C1553 1.524 . S
C1554 C1555 1.415 . S
C1555 H1525 0.950 . S
C1555 C1550 1.363 . S
C1555 C1554 1.415 . S
H1556 C1553 1.023 . S
H1557 C1538 0.913 . S
H1558 C1576 0.951 . S
H1559 C1578 0.951 . S
H1560 C1580 0.950 . S
H1561 C1581 0.950 . S
H1562 C1583 0.950 . S
H1563 C1586 0.950 . S
H1564 C1587 0.950 . S
H1565 C1589 0.950 . S
H1566 C1590 0.950 . S
H1567 C1591 0.951 . S
H1568 C1593 0.951 . S
H1569 C1595 0.950 . S
H1570 C1596 0.950 . S
H1571 C1598 0.950 . S
H1572 C1601 0.950 . S
H1573 C1602 0.950 . S
H1574 C1604 0.950 . S
H1575 C1605 0.950 . S
C1576 H1558 0.951 . S
C1576 C1577 1.366 . S
C1576 C1578 1.388 . S
C1577 C1576 1.366 . S
C1577 C1581 1.385 . S
C1578 H1559 0.951 . S
C1578 C1576 1.388 . S
C1578 C1579 1.366 . S
C1579 C1578 1.366 . S
C1579 C1580 1.414 . S
C1579 C1582 1.499 . S
C1580 H1560 0.950 . S
C1580 C1579 1.414 . S
C1580 C1581 1.374 . S
C1581 H1561 0.950 . S
C1581 C1577 1.385 . S
C1581 C1580 1.374 . S
C1582 C1579 1.499 . S
C1582 C1583 1.373 . S
C1582 C1584 1.389 . S
C1583 H1562 0.950 . S
C1583 C1582 1.373 . S
C1583 C1599 1.377 . S
C1584 C1582 1.389 . S
C1584 C1585 1.524 . S
C1584 C1598 1.377 . S
C1585 C1584 1.524 . S
C1585 C1586 1.397 . S
C1585 C1590 1.363 . S
C1586 H1563 0.950 . S
C1586 C1585 1.397 . S
C1586 C1587 1.334 . S
C1587 H1564 0.950 . S
C1587 C1586 1.334 . S
C1587 C1588 1.287 . S
C1588 C1587 1.287 . S
C1588 C1589 1.524 . S
C1588 H1607 0.913 . S
C1589 H1565 0.950 . S
C1589 C1588 1.524 . S
C1589 C1590 1.415 . S
C1590 H1566 0.950 . S
C1590 C1585 1.363 . S
C1590 C1589 1.415 . S
C1591 H1567 0.951 . S
C1591 C1592 1.366 . S
C1591 C1593 1.388 . S
C1592 C1591 1.366 . S
C1592 C1596 1.385 . S
C1593 H1568 0.951 . S
C1593 C1591 1.388 . S
C1593 C1594 1.366 . S
C1594 C1593 1.366 . S
C1594 C1595 1.414 . S
C1594 C1597 1.499 . S
C1595 H1569 0.950 . S
C1595 C1594 1.414 . S
C1595 C1596 1.374 . S
C1596 H1570 0.950 . S
C1596 C1592 1.385 . S
C1596 C1595 1.374 . S
C1597 C1594 1.499 . S
C1597 C1598 1.373 . S
C1597 C1599 1.389 . S
C1598 H1571 0.950 . S
C1598 C1584 1.377 . S
C1598 C1597 1.373 . S
C1599 C1583 1.377 . S
C1599 C1597 1.389 . S
C1599 C1600 1.524 . S
C1600 C1599 1.524 . S
C1600 C1601 1.397 . S
C1600 C1605 1.363 . S
C1601 H1572 0.950 . S
C1601 C1600 1.397 . S
C1601 C1602 1.334 . S
C1602 H1573 0.950 . S
C1602 C1601 1.334 . S
C1602 C1603 1.287 . S
C1603 C1602 1.287 . S
C1603 C1604 1.524 . S
C1603 H1606 0.999 . S
C1604 H1574 0.950 . S
C1604 C1603 1.524 . S
C1604 C1605 1.415 . S
C1605 H1575 0.950 . S
C1605 C1600 1.363 . S
C1605 C1604 1.415 . S
H1606 C1603 0.999 . S
H1607 C1588 0.913 . S
H1608 C1626 0.951 . S
H1609 C1628 0.951 . S
H1610 C1630 0.950 . S
H1611 C1631 0.950 . S
H1612 C1633 0.950 . S
H1613 C1636 0.950 . S
H1614 C1637 0.950 . S
H1615 C1639 0.950 . S
H1616 C1640 0.950 . S
H1617 C1641 0.951 . S
H1618 C1643 0.951 . S
H1619 C1645 0.950 . S
H1620 C1646 0.950 . S
H1621 C1648 0.950 . S
H1622 C1651 0.950 . S
H1623 C1652 0.950 . S
H1624 C1654 0.950 . S
H1625 C1655 0.950 . S
C1626 H1608 0.951 . S
C1626 C1627 1.366 . S
C1626 C1628 1.388 . S
C1627 C1626 1.366 . S
C1627 C1631 1.385 . S
C1628 H1609 0.951 . S
C1628 C1626 1.388 . S
C1628 C1629 1.366 . S
C1629 C1628 1.366 . S
C1629 C1630 1.414 . S
C1629 C1632 1.499 . S
C1630 H1610 0.950 . S
C1630 C1629 1.414 . S
C1630 C1631 1.374 . S
C1631 H1611 0.950 . S
C1631 C1627 1.385 . S
C1631 C1630 1.374 . S
C1632 C1629 1.499 . S
C1632 C1633 1.373 . S
C1632 C1634 1.389 . S
C1633 H1612 0.950 . S
C1633 C1632 1.373 . S
C1633 C1649 1.377 . S
C1634 C1632 1.389 . S
C1634 C1635 1.524 . S
C1634 C1648 1.377 . S
C1635 C1634 1.524 . S
C1635 C1636 1.397 . S
C1635 C1640 1.363 . S
C1636 H1613 0.950 . S
C1636 C1635 1.397 . S
C1636 C1637 1.334 . S
C1637 H1614 0.950 . S
C1637 C1636 1.334 . S
C1637 C1638 1.287 . S
C1638 C1637 1.287 . S
C1638 C1639 1.524 . S
C1638 H1657 0.913 . S
C1639 H1615 0.950 . S
C1639 C1638 1.524 . S
C1639 C1640 1.415 . S
C1640 H1616 0.950 . S
C1640 C1635 1.363 . S
C1640 C1639 1.415 . S
C1641 H1617 0.951 . S
C1641 C1642 1.366 . S
C1641 C1643 1.388 . S
C1642 C1641 1.366 . S
C1642 C1646 1.385 . S
C1643 H1618 0.951 . S
C1643 C1641 1.388 . S
C1643 C1644 1.366 . S
C1644 C1643 1.366 . S
C1644 C1645 1.414 . S
C1644 C1647 1.499 . S
C1645 H1619 0.950 . S
C1645 C1644 1.414 . S
C1645 C1646 1.374 . S
C1646 H1620 0.950 . S
C1646 C1642 1.385 . S
C1646 C1645 1.374 . S
C1647 C1644 1.499 . S
C1647 C1648 1.373 . S
C1647 C1649 1.389 . S
C1648 H1621 0.950 . S
C1648 C1634 1.377 . S
C1648 C1647 1.373 . S
C1649 C1633 1.377 . S
C1649 C1647 1.389 . S
C1649 C1650 1.524 . S
C1650 C1649 1.524 . S
C1650 C1651 1.397 . S
C1650 C1655 1.363 . S
C1651 H1622 0.950 . S
C1651 C1650 1.397 . S
C1651 C1652 1.334 1_655 S
C1652 H1623 0.950 . S
C1652 C1651 1.334 1_455 S
C1652 C1653 1.287 . S
C1653 C1652 1.287 . S
C1653 C1654 1.524 1_455 S
C1653 H1656 0.999 . S
C1654 H1624 0.950 . S
C1654 C1653 1.524 1_655 S
C1654 C1655 1.415 . S
C1655 H1625 0.950 . S
C1655 C1650 1.363 . S
C1655 C1654 1.415 . S
H1656 C1653 0.999 . S
H1657 C1638 0.913 . S
H1658 C1676 0.951 . S
H1659 C1678 0.951 . S
H1660 C1680 0.950 . S
H1661 C1681 0.950 . S
H1662 C1683 0.950 . S
H1663 C1686 0.950 . S
H1664 C1687 0.950 . S
H1665 C1689 0.950 . S
H1666 C1690 0.950 . S
H1667 C1691 0.951 . S
H1668 C1693 0.951 . S
H1669 C1695 0.950 . S
H1670 C1696 0.950 . S
H1671 C1698 0.950 . S
H1672 C1701 0.950 . S
H1673 C1702 0.950 1_655 S
H1674 C1704 0.950 . S
H1675 C1705 0.950 . S
C1676 H1658 0.951 . S
C1676 C1677 1.366 . S
C1676 C1678 1.388 . S
C1677 C1676 1.366 . S
C1677 C1681 1.385 . S
C1678 H1659 0.951 . S
C1678 C1676 1.388 . S
C1678 C1679 1.366 . S
C1679 C1678 1.366 . S
C1679 C1680 1.414 . S
C1679 C1682 1.499 . S
C1680 H1660 0.950 . S
C1680 C1679 1.414 . S
C1680 C1681 1.374 . S
C1681 H1661 0.950 . S
C1681 C1677 1.385 . S
C1681 C1680 1.374 . S
C1682 C1679 1.499 . S
C1682 C1683 1.373 . S
C1682 C1684 1.389 . S
C1683 H1662 0.950 . S
C1683 C1682 1.373 . S
C1683 C1699 1.377 . S
C1684 C1682 1.389 . S
C1684 C1685 1.524 . S
C1684 C1698 1.377 . S
C1685 C1684 1.524 . S
C1685 C1686 1.397 . S
C1685 C1690 1.363 . S
C1686 H1663 0.950 . S
C1686 C1685 1.397 . S
C1686 C1687 1.334 . S
C1687 H1664 0.950 . S
C1687 C1686 1.334 . S
C1687 C1688 1.287 . S
C1688 C1687 1.287 . S
C1688 C1689 1.524 . S
C1688 H1707 0.913 . S
C1689 H1665 0.950 . S
C1689 C1688 1.524 . S
C1689 C1690 1.415 . S
C1690 H1666 0.950 . S
C1690 C1685 1.363 . S
C1690 C1689 1.415 . S
C1691 H1667 0.951 . S
C1691 C1692 1.366 . S
C1691 C1693 1.388 . S
C1692 C1691 1.366 . S
C1692 C1696 1.385 . S
C1693 H1668 0.951 . S
C1693 C1691 1.388 . S
C1693 C1694 1.366 . S
C1694 C1693 1.366 . S
C1694 C1695 1.414 . S
C1694 C1697 1.499 . S
C1695 H1669 0.950 . S
C1695 C1694 1.414 . S
C1695 C1696 1.374 . S
C1696 H1670 0.950 . S
C1696 C1692 1.385 . S
C1696 C1695 1.374 . S
C1697 C1694 1.499 . S
C1697 C1698 1.373 . S
C1697 C1699 1.389 . S
C1698 H1671 0.950 . S
C1698 C1684 1.377 . S
C1698 C1697 1.373 . S
C1699 C1683 1.377 . S
C1699 C1697 1.389 . S
C1699 C1700 1.524 . S
C1700 C1699 1.524 . S
C1700 C1701 1.397 . S
C1700 C1705 1.363 . S
C1701 H1672 0.950 . S
C1701 C1700 1.397 . S
C1701 C1702 1.334 . S
C1702 H1673 0.950 1_455 S
C1702 C1701 1.334 . S
C1702 C1703 1.287 1_455 S
C1703 C1702 1.287 1_655 S
C1703 C1704 1.524 . S
C1703 H1706 0.999 . S
C1704 H1674 0.950 . S
C1704 C1703 1.524 . S
C1704 C1705 1.415 1_655 S
C1705 H1675 0.950 . S
C1705 C1700 1.363 . S
C1705 C1704 1.415 1_455 S
H1706 C1703 0.999 . S
H1707 C1688 0.913 . S
H1708 C1726 0.951 . S
H1709 C1728 0.951 . S
H1710 C1730 0.950 . S
H1711 C1731 0.950 . S
H1712 C1733 0.950 . S
H1713 C1736 0.950 . S
H1714 C1737 0.950 . S
H1715 C1739 0.950 . S
H1716 C1740 0.950 . S
H1717 C1741 0.951 . S
H1718 C1743 0.951 . S
H1719 C1745 0.950 . S
H1720 C1746 0.950 . S
H1721 C1748 0.950 . S
H1722 C1751 0.950 . S
H1723 C1752 0.950 . S
H1724 C1754 0.950 . S
H1725 C1755 0.950 . S
C1726 H1708 0.951 . S
C1726 C1727 1.366 . S
C1726 C1728 1.388 . S
C1727 C1726 1.366 . S
C1727 C1731 1.385 . S
C1728 H1709 0.951 . S
C1728 C1726 1.388 . S
C1728 C1729 1.366 . S
C1729 C1728 1.366 . S
C1729 C1730 1.414 . S
C1729 C1732 1.499 . S
C1730 H1710 0.950 . S
C1730 C1729 1.414 . S
C1730 C1731 1.374 . S
C1731 H1711 0.950 . S
C1731 C1727 1.385 . S
C1731 C1730 1.374 . S
C1732 C1729 1.499 . S
C1732 C1733 1.373 . S
C1732 C1734 1.389 . S
C1733 H1712 0.950 . S
C1733 C1732 1.373 . S
C1733 C1749 1.377 . S
C1734 C1732 1.389 . S
C1734 C1735 1.524 . S
C1734 C1748 1.377 . S
C1735 C1734 1.524 . S
C1735 C1736 1.397 . S
C1735 C1740 1.363 . S
C1736 H1713 0.950 . S
C1736 C1735 1.397 . S
C1736 C1737 1.334 . S
C1737 H1714 0.950 . S
C1737 C1736 1.334 . S
C1737 C1738 1.287 . S
C1738 C1737 1.287 . S
C1738 C1739 1.524 . S
C1738 H1757 0.913 . S
C1739 H1715 0.950 . S
C1739 C1738 1.524 . S
C1739 C1740 1.415 . S
C1740 H1716 0.950 . S
C1740 C1735 1.363 . S
C1740 C1739 1.415 . S
C1741 H1717 0.951 . S
C1741 C1742 1.366 . S
C1741 C1743 1.388 . S
C1742 C1741 1.366 . S
C1742 C1746 1.385 . S
C1743 H1718 0.951 . S
C1743 C1741 1.388 . S
C1743 C1744 1.366 . S
C1744 C1743 1.366 . S
C1744 C1745 1.414 . S
C1744 C1747 1.499 . S
C1745 H1719 0.950 . S
C1745 C1744 1.414 . S
C1745 C1746 1.374 . S
C1746 H1720 0.950 . S
C1746 C1742 1.385 . S
C1746 C1745 1.374 . S
C1747 C1744 1.499 . S
C1747 C1748 1.373 . S
C1747 C1749 1.389 . S
C1748 H1721 0.950 . S
C1748 C1734 1.377 . S
C1748 C1747 1.373 . S
C1749 C1733 1.377 . S
C1749 C1747 1.389 . S
C1749 C1750 1.524 . S
C1750 C1749 1.524 . S
C1750 C1751 1.397 . S
C1750 C1755 1.363 . S
C1751 H1722 0.950 . S
C1751 C1750 1.397 . S
C1751 C1752 1.334 . S
C1752 H1723 0.950 . S
C1752 C1751 1.334 . S
C1752 C1753 1.287 . S
C1753 C1752 1.287 . S
C1753 C1754 1.524 . S
C1753 H1756 0.999 . S
C1754 H1724 0.950 . S
C1754 C1753 1.524 . S
C1754 C1755 1.415 . S
C1755 H1725 0.950 . S
C1755 C1750 1.363 . S
C1755 C1754 1.415 . S
H1756 C1753 0.999 . S
H1757 C1738 0.913 . S
H1758 C1776 0.951 . S
H1759 C1778 0.951 . S
H1760 C1780 0.950 . S
H1761 C1781 0.950 . S
H1762 C1783 0.950 . S
H1763 C1786 0.950 . S
H1764 C1787 0.950 . S
H1765 C1789 0.950 . S
H1766 C1790 0.950 . S
H1767 C1791 0.951 . S
H1768 C1793 0.951 . S
H1769 C1795 0.950 . S
H1770 C1796 0.950 . S
H1771 C1798 0.950 . S
H1772 C1801 0.950 . S
H1773 C1802 0.950 . S
H1774 C1804 0.950 . S
H1775 C1805 0.950 . S
C1776 H1758 0.951 . S
C1776 C1777 1.366 . S
C1776 C1778 1.388 . S
C1777 C1776 1.366 . S
C1777 C1781 1.385 . S
C1778 H1759 0.951 . S
C1778 C1776 1.388 . S
C1778 C1779 1.366 . S
C1779 C1778 1.366 . S
C1779 C1780 1.414 . S
C1779 C1782 1.499 . S
C1780 H1760 0.950 . S
C1780 C1779 1.414 . S
C1780 C1781 1.374 . S
C1781 H1761 0.950 . S
C1781 C1777 1.385 . S
C1781 C1780 1.374 . S
C1782 C1779 1.499 . S
C1782 C1783 1.373 . S
C1782 C1784 1.389 . S
C1783 H1762 0.950 . S
C1783 C1782 1.373 . S
C1783 C1799 1.377 . S
C1784 C1782 1.389 . S
C1784 C1785 1.524 . S
C1784 C1798 1.377 . S
C1785 C1784 1.524 . S
C1785 C1786 1.397 . S
C1785 C1790 1.363 . S
C1786 H1763 0.950 . S
C1786 C1785 1.397 . S
C1786 C1787 1.334 . S
C1787 H1764 0.950 . S
C1787 C1786 1.334 . S
C1787 C1788 1.287 . S
C1788 C1787 1.287 . S
C1788 C1789 1.524 . S
C1788 H1807 0.913 . S
C1789 H1765 0.950 . S
C1789 C1788 1.524 . S
C1789 C1790 1.415 . S
C1790 H1766 0.950 . S
C1790 C1785 1.363 . S
C1790 C1789 1.415 . S
C1791 H1767 0.951 . S
C1791 C1792 1.366 . S
C1791 C1793 1.388 . S
C1792 C1791 1.366 . S
C1792 C1796 1.385 . S
C1793 H1768 0.951 . S
C1793 C1791 1.388 . S
C1793 C1794 1.366 . S
C1794 C1793 1.366 . S
C1794 C1795 1.414 . S
C1794 C1797 1.499 . S
C1795 H1769 0.950 . S
C1795 C1794 1.414 . S
C1795 C1796 1.374 . S
C1796 H1770 0.950 . S
C1796 C1792 1.385 . S
C1796 C1795 1.374 . S
C1797 C1794 1.499 . S
C1797 C1798 1.373 . S
C1797 C1799 1.389 . S
C1798 H1771 0.950 . S
C1798 C1784 1.377 . S
C1798 C1797 1.373 . S
C1799 C1783 1.377 . S
C1799 C1797 1.389 . S
C1799 C1800 1.524 . S
C1800 C1799 1.524 . S
C1800 C1801 1.397 . S
C1800 C1805 1.363 . S
C1801 H1772 0.950 . S
C1801 C1800 1.397 . S
C1801 C1802 1.334 . S
C1802 H1773 0.950 . S
C1802 C1801 1.334 . S
C1802 C1803 1.287 . S
C1803 C1802 1.287 . S
C1803 C1804 1.524 . S
C1803 H1806 0.999 . S
C1804 H1774 0.950 . S
C1804 C1803 1.524 . S
C1804 C1805 1.415 . S
C1805 H1775 0.950 . S
C1805 C1800 1.363 . S
C1805 C1804 1.415 . S
H1806 C1803 0.999 . S
H1807 C1788 0.913 . S
H1808 C1826 0.951 . S
H1809 C1828 0.951 . S
H1810 C1830 0.950 . S
H1811 C1831 0.950 . S
H1812 C1833 0.950 . S
H1813 C1836 0.950 . S
H1814 C1837 0.950 . S
H1815 C1839 0.950 . S
H1816 C1840 0.950 . S
H1817 C1841 0.951 . S
H1818 C1843 0.951 . S
H1819 C1845 0.950 . S
H1820 C1846 0.950 . S
H1821 C1848 0.950 . S
H1822 C1851 0.950 . S
H1823 C1852 0.950 . S
H1824 C1854 0.950 . S
H1825 C1855 0.950 . S
C1826 H1808 0.951 . S
C1826 C1827 1.366 . S
C1826 C1828 1.388 . S
C1827 C1826 1.366 . S
C1827 C1831 1.385 . S
C1828 H1809 0.951 . S
C1828 C1826 1.388 . S
C1828 C1829 1.366 . S
C1829 C1828 1.366 . S
C1829 C1830 1.414 . S
C1829 C1832 1.499 . S
C1830 H1810 0.950 . S
C1830 C1829 1.414 . S
C1830 C1831 1.374 . S
C1831 H1811 0.950 . S
C1831 C1827 1.385 . S
C1831 C1830 1.374 . S
C1832 C1829 1.499 . S
C1832 C1833 1.373 . S
C1832 C1834 1.389 . S
C1833 H1812 0.950 . S
C1833 C1832 1.373 . S
C1833 C1849 1.377 . S
C1834 C1832 1.389 . S
C1834 C1835 1.524 . S
C1834 C1848 1.377 . S
C1835 C1834 1.524 . S
C1835 C1836 1.397 . S
C1835 C1840 1.363 . S
C1836 H1813 0.950 . S
C1836 C1835 1.397 . S
C1836 C1837 1.334 . S
C1837 H1814 0.950 . S
C1837 C1836 1.334 . S
C1837 C1838 1.287 . S
C1838 C1837 1.287 . S
C1838 C1839 1.524 . S
C1838 H1857 0.913 . S
C1839 H1815 0.950 . S
C1839 C1838 1.524 . S
C1839 C1840 1.415 . S
C1840 H1816 0.950 . S
C1840 C1835 1.363 . S
C1840 C1839 1.415 . S
C1841 H1817 0.951 . S
C1841 C1842 1.366 . S
C1841 C1843 1.388 . S
C1842 C1841 1.366 . S
C1842 C1846 1.385 . S
C1843 H1818 0.951 . S
C1843 C1841 1.388 . S
C1843 C1844 1.366 . S
C1844 C1843 1.366 . S
C1844 C1845 1.414 . S
C1844 C1847 1.499 . S
C1845 H1819 0.950 . S
C1845 C1844 1.414 . S
C1845 C1846 1.374 . S
C1846 H1820 0.950 . S
C1846 C1842 1.385 . S
C1846 C1845 1.374 . S
C1847 C1844 1.499 . S
C1847 C1848 1.373 . S
C1847 C1849 1.389 . S
C1848 H1821 0.950 . S
C1848 C1834 1.377 . S
C1848 C1847 1.373 . S
C1849 C1833 1.377 . S
C1849 C1847 1.389 . S
C1849 C1850 1.524 . S
C1850 C1849 1.524 . S
C1850 C1851 1.397 . S
C1850 C1855 1.363 . S
C1851 H1822 0.950 . S
C1851 C1850 1.397 . S
C1851 C1852 1.334 . S
C1852 H1823 0.950 . S
C1852 C1851 1.334 . S
C1852 C1853 1.287 . S
C1853 C1852 1.287 . S
C1853 C1854 1.524 . S
C1853 H1856 0.999 . S
C1854 H1824 0.950 . S
C1854 C1853 1.524 . S
C1854 C1855 1.415 . S
C1855 H1825 0.950 . S
C1855 C1850 1.363 . S
C1855 C1854 1.415 . S
H1856 C1853 0.999 . S
H1857 C1838 0.913 . S
H1858 C1876 0.951 . S
H1859 C1878 0.951 . S
H1860 C1880 0.950 . S
H1861 C1881 0.950 . S
H1862 C1883 0.950 . S
H1863 C1886 0.950 . S
H1864 C1887 0.950 . S
H1865 C1889 0.950 . S
H1866 C1890 0.950 . S
H1867 C1891 0.951 . S
H1868 C1893 0.951 . S
H1869 C1895 0.950 . S
H1870 C1896 0.950 . S
H1871 C1898 0.950 . S
H1872 C1901 0.950 . S
H1873 C1902 0.950 . S
H1874 C1904 0.950 . S
H1875 C1905 0.950 . S
C1876 H1858 0.951 . S
C1876 C1877 1.366 . S
C1876 C1878 1.388 . S
C1877 C1876 1.366 . S
C1877 C1881 1.385 . S
C1878 H1859 0.951 . S
C1878 C1876 1.388 . S
C1878 C1879 1.366 . S
C1879 C1878 1.366 . S
C1879 C1880 1.414 . S
C1879 C1882 1.499 . S
C1880 H1860 0.950 . S
C1880 C1879 1.414 . S
C1880 C1881 1.374 . S
C1881 H1861 0.950 . S
C1881 C1877 1.385 . S
C1881 C1880 1.374 . S
C1882 C1879 1.499 . S
C1882 C1883 1.373 . S
C1882 C1884 1.389 . S
C1883 H1862 0.950 . S
C1883 C1882 1.373 . S
C1883 C1899 1.377 . S
C1884 C1882 1.389 . S
C1884 C1885 1.524 . S
C1884 C1898 1.377 . S
C1885 C1884 1.524 . S
C1885 C1886 1.397 . S
C1885 C1890 1.363 . S
C1886 H1863 0.950 . S
C1886 C1885 1.397 . S
C1886 C1887 1.334 . S
C1887 H1864 0.950 . S
C1887 C1886 1.334 . S
C1887 C1888 1.287 . S
C1888 C1887 1.287 . S
C1888 C1889 1.524 . S
C1888 H1907 0.913 . S
C1889 H1865 0.950 . S
C1889 C1888 1.524 . S
C1889 C1890 1.415 . S
C1890 H1866 0.950 . S
C1890 C1885 1.363 . S
C1890 C1889 1.415 . S
C1891 H1867 0.951 . S
C1891 C1892 1.366 . S
C1891 C1893 1.388 . S
C1892 C1891 1.366 . S
C1892 C1896 1.385 . S
C1893 H1868 0.951 . S
C1893 C1891 1.388 . S
C1893 C1894 1.366 . S
C1894 C1893 1.366 . S
C1894 C1895 1.414 . S
C1894 C1897 1.499 . S
C1895 H1869 0.950 . S
C1895 C1894 1.414 . S
C1895 C1896 1.374 . S
C1896 H1870 0.950 . S
C1896 C1892 1.385 . S
C1896 C1895 1.374 . S
C1897 C1894 1.499 . S
C1897 C1898 1.373 . S
C1897 C1899 1.389 . S
C1898 H1871 0.950 . S
C1898 C1884 1.377 . S
C1898 C1897 1.373 . S
C1899 C1883 1.377 . S
C1899 C1897 1.389 . S
C1899 C1900 1.524 . S
C1900 C1899 1.524 . S
C1900 C1901 1.397 . S
C1900 C1905 1.363 . S
C1901 H1872 0.950 . S
C1901 C1900 1.397 . S
C1901 C1902 1.334 . S
C1902 H1873 0.950 . S
C1902 C1901 1.334 . S
C1902 C1903 1.287 . S
C1903 C1902 1.287 . S
C1903 C1904 1.524 . S
C1903 H1906 0.999 . S
C1904 H1874 0.950 . S
C1904 C1903 1.524 . S
C1904 C1905 1.415 . S
C1905 H1875 0.950 . S
C1905 C1900 1.363 . S
C1905 C1904 1.415 . S
H1906 C1903 0.999 . S
H1907 C1888 0.913 . S
H1908 C1926 0.951 . S
H1909 C1928 0.951 . S
H1910 C1930 0.950 . S
H1911 C1931 0.950 . S
H1912 C1933 0.950 . S
H1913 C1936 0.950 . S
H1914 C1937 0.950 . S
H1915 C1939 0.950 . S
H1916 C1940 0.950 . S
H1917 C1941 0.951 . S
H1918 C1943 0.951 . S
H1919 C1945 0.950 . S
H1920 C1946 0.950 . S
H1921 C1948 0.950 . S
H1922 C1951 0.950 . S
H1923 C1952 0.950 . S
H1924 C1954 0.950 . S
H1925 C1955 0.950 . S
C1926 H1908 0.951 . S
C1926 C1927 1.366 . S
C1926 C1928 1.388 . S
C1927 C1926 1.366 . S
C1927 C1931 1.385 . S
C1928 H1909 0.951 . S
C1928 C1926 1.388 . S
C1928 C1929 1.366 . S
C1929 C1928 1.366 . S
C1929 C1930 1.414 . S
C1929 C1932 1.499 . S
C1930 H1910 0.950 . S
C1930 C1929 1.414 . S
C1930 C1931 1.374 . S
C1931 H1911 0.950 . S
C1931 C1927 1.385 . S
C1931 C1930 1.374 . S
C1932 C1929 1.499 . S
C1932 C1933 1.373 . S
C1932 C1934 1.389 . S
C1933 H1912 0.950 . S
C1933 C1932 1.373 . S
C1933 C1949 1.377 . S
C1934 C1932 1.389 . S
C1934 C1935 1.524 . S
C1934 C1948 1.377 . S
C1935 C1934 1.524 . S
C1935 C1936 1.397 . S
C1935 C1940 1.363 . S
C1936 H1913 0.950 . S
C1936 C1935 1.397 . S
C1936 C1937 1.334 . S
C1937 H1914 0.950 . S
C1937 C1936 1.334 . S
C1937 C1938 1.287 . S
C1938 C1937 1.287 . S
C1938 C1939 1.524 . S
C1938 H1957 0.913 . S
C1939 H1915 0.950 . S
C1939 C1938 1.524 . S
C1939 C1940 1.415 . S
C1940 H1916 0.950 . S
C1940 C1935 1.363 . S
C1940 C1939 1.415 . S
C1941 H1917 0.951 . S
C1941 C1942 1.366 . S
C1941 C1943 1.388 . S
C1942 C1941 1.366 . S
C1942 C1946 1.385 . S
C1943 H1918 0.951 . S
C1943 C1941 1.388 . S
C1943 C1944 1.366 . S
C1944 C1943 1.366 . S
C1944 C1945 1.414 . S
C1944 C1947 1.499 . S
C1945 H1919 0.950 . S
C1945 C1944 1.414 . S
C1945 C1946 1.374 . S
C1946 H1920 0.950 . S
C1946 C1942 1.385 . S
C1946 C1945 1.374 . S
C1947 C1944 1.499 . S
C1947 C1948 1.373 . S
C1947 C1949 1.389 . S
C1948 H1921 0.950 . S
C1948 C1934 1.377 . S
C1948 C1947 1.373 . S
C1949 C1933 1.377 . S
C1949 C1947 1.389 . S
C1949 C1950 1.524 . S
C1950 C1949 1.524 . S
C1950 C1951 1.397 . S
C1950 C1955 1.363 . S
C1951 H1922 0.950 . S
C1951 C1950 1.397 . S
C1951 C1952 1.334 . S
C1952 H1923 0.950 . S
C1952 C1951 1.334 . S
C1952 C1953 1.287 . S
C1953 C1952 1.287 . S
C1953 C1954 1.524 . S
C1953 H1956 0.999 . S
C1954 H1924 0.950 . S
C1954 C1953 1.524 . S
C1954 C1955 1.415 . S
C1955 H1925 0.950 . S
C1955 C1950 1.363 . S
C1955 C1954 1.415 . S
H1956 C1953 0.999 . S
H1957 C1938 0.913 . S
H1958 C1976 0.951 . S
H1959 C1978 0.951 . S
H1960 C1980 0.950 . S
H1961 C1981 0.950 . S
H1962 C1983 0.950 . S
H1963 C1986 0.950 . S
H1964 C1987 0.950 . S
H1965 C1989 0.950 . S
H1966 C1990 0.950 . S
H1967 C1991 0.951 . S
H1968 C1993 0.951 . S
H1969 C1995 0.950 . S
H1970 C1996 0.950 . S
H1971 C1998 0.950 . S
H1972 C2001 0.950 . S
H1973 C2002 0.963 . S
H1974 C2004 0.950 . S
H1975 C2005 0.950 . S
C1976 H1958 0.951 . S
C1976 C1977 1.366 . S
C1976 C1978 1.388 . S
C1977 C1976 1.366 . S
C1977 C1981 1.385 . S
C1978 H1959 0.951 . S
C1978 C1976 1.388 . S
C1978 C1979 1.366 . S
C1979 C1978 1.366 . S
C1979 C1980 1.414 . S
C1979 C1982 1.499 . S
C1980 H1960 0.950 . S
C1980 C1979 1.414 . S
C1980 C1981 1.374 . S
C1981 H1961 0.950 . S
C1981 C1977 1.385 . S
C1981 C1980 1.374 . S
C1982 C1979 1.499 . S
C1982 C1983 1.373 . S
C1982 C1984 1.389 . S
C1983 H1962 0.950 . S
C1983 C1982 1.373 . S
C1983 C1999 1.377 . S
C1984 C1982 1.389 . S
C1984 C1985 1.524 . S
C1984 C1998 1.377 . S
C1985 C1984 1.524 . S
C1985 C1986 1.397 . S
C1985 C1990 1.363 . S
C1986 H1963 0.950 . S
C1986 C1985 1.397 . S
C1986 C1987 1.334 . S
C1987 H1964 0.950 . S
C1987 C1986 1.334 . S
C1987 C1988 1.287 . S
C1988 C1987 1.287 . S
C1988 C1989 1.524 . S
C1988 H2007 0.913 . S
C1989 H1965 0.950 . S
C1989 C1988 1.524 . S
C1989 C1990 1.415 . S
C1990 H1966 0.950 . S
C1990 C1985 1.363 . S
C1990 C1989 1.415 . S
C1991 H1967 0.951 . S
C1991 C1992 1.366 . S
C1991 C1993 1.388 . S
C1992 C1991 1.366 . S
C1992 C1996 1.385 . S
C1993 H1968 0.951 . S
C1993 C1991 1.388 . S
C1993 C1994 1.366 . S
C1994 C1993 1.366 . S
C1994 C1995 1.414 . S
C1994 C1997 1.499 . S
C1995 H1969 0.950 . S
C1995 C1994 1.414 . S
C1995 C1996 1.374 . S
C1996 H1970 0.950 . S
C1996 C1992 1.385 . S
C1996 C1995 1.374 . S
C1997 C1994 1.499 . S
C1997 C1998 1.373 . S
C1997 C1999 1.389 . S
C1998 H1971 0.950 . S
C1998 C1984 1.377 . S
C1998 C1997 1.373 . S
C1999 C1983 1.377 . S
C1999 C1997 1.389 . S
C1999 C2000 1.524 . S
C2000 C1999 1.524 . S
C2000 C2001 1.397 . S
C2000 C2005 1.363 . S
C2001 H1972 0.950 . S
C2001 C2000 1.397 . S
C2001 C2002 1.334 . S
C2002 H1973 0.963 . S
C2002 C2001 1.334 . S
C2002 C2003 1.287 . S
C2003 C2002 1.287 . S
C2003 C2004 1.524 . S
C2003 H2006 0.999 1_565 S
C2004 H1974 0.950 . S
C2004 C2003 1.524 . S
C2004 C2005 1.415 . S
C2005 H1975 0.950 . S
C2005 C2000 1.363 . S
C2005 C2004 1.415 . S
H2006 C2003 0.999 1_545 S
H2007 C1988 0.913 . S
H2008 C2026 0.951 . S
H2009 C2028 0.951 . S
H2010 C2030 0.950 . S
H2011 C2031 0.950 . S
H2012 C2033 0.950 . S
H2013 C2036 0.950 . S
H2014 C2037 0.950 . S
H2015 C2039 0.950 . S
H2016 C2040 0.950 . S
H2017 C2041 0.951 . S
H2018 C2043 0.951 . S
H2019 C2045 0.950 . S
H2020 C2046 0.950 . S
H2021 C2048 0.950 . S
H2022 C2051 0.950 . S
H2023 C2052 0.950 . S
H2024 C2054 0.950 . S
H2025 C2055 0.950 . S
C2026 H2008 0.951 . S
C2026 C2027 1.366 . S
C2026 C2028 1.388 . S
C2027 C2026 1.366 . S
C2027 C2031 1.385 . S
C2028 H2009 0.951 . S
C2028 C2026 1.388 . S
C2028 C2029 1.366 . S
C2029 C2028 1.366 . S
C2029 C2030 1.414 . S
C2029 C2032 1.499 . S
C2030 H2010 0.950 . S
C2030 C2029 1.414 . S
C2030 C2031 1.374 . S
C2031 H2011 0.950 . S
C2031 C2027 1.385 . S
C2031 C2030 1.374 . S
C2032 C2029 1.499 . S
C2032 C2033 1.373 . S
C2032 C2034 1.389 . S
C2033 H2012 0.950 . S
C2033 C2032 1.373 . S
C2033 C2049 1.377 . S
C2034 C2032 1.389 . S
C2034 C2035 1.524 . S
C2034 C2048 1.377 . S
C2035 C2034 1.524 . S
C2035 C2036 1.397 . S
C2035 C2040 1.363 . S
C2036 H2013 0.950 . S
C2036 C2035 1.397 . S
C2036 C2037 1.334 . S
C2037 H2014 0.950 . S
C2037 C2036 1.334 . S
C2037 C2038 1.287 . S
C2038 C2037 1.287 . S
C2038 C2039 1.524 . S
C2038 H2057 0.913 . S
C2039 H2015 0.950 . S
C2039 C2038 1.524 . S
C2039 C2040 1.415 . S
C2040 H2016 0.950 . S
C2040 C2035 1.363 . S
C2040 C2039 1.415 . S
C2041 H2017 0.951 . S
C2041 C2042 1.366 . S
C2041 C2043 1.388 . S
C2042 C2041 1.366 . S
C2042 C2046 1.385 . S
C2043 H2018 0.951 . S
C2043 C2041 1.388 . S
C2043 C2044 1.366 . S
C2044 C2043 1.366 . S
C2044 C2045 1.414 . S
C2044 C2047 1.499 . S
C2045 H2019 0.950 . S
C2045 C2044 1.414 . S
C2045 C2046 1.374 . S
C2046 H2020 0.950 . S
C2046 C2042 1.385 . S
C2046 C2045 1.374 . S
C2047 C2044 1.499 . S
C2047 C2048 1.373 . S
C2047 C2049 1.389 . S
C2048 H2021 0.950 . S
C2048 C2034 1.377 . S
C2048 C2047 1.373 . S
C2049 C2033 1.377 . S
C2049 C2047 1.389 . S
C2049 C2050 1.524 . S
C2050 C2049 1.524 . S
C2050 C2051 1.397 . S
C2050 C2055 1.363 . S
C2051 H2022 0.950 . S
C2051 C2050 1.397 . S
C2051 C2052 1.334 . S
C2052 H2023 0.950 . S
C2052 C2051 1.334 . S
C2052 C2053 1.287 . S
C2053 C2052 1.287 . S
C2053 C2054 1.524 . S
C2053 H2056 0.999 . S
C2054 H2024 0.950 . S
C2054 C2053 1.524 . S
C2054 C2055 1.415 . S
C2055 H2025 0.950 . S
C2055 C2050 1.363 . S
C2055 C2054 1.415 . S
H2056 C2053 0.999 . S
H2057 C2038 0.913 . S
H2058 C2076 0.951 . S
H2059 C2078 0.951 . S
H2060 C2080 0.950 . S
H2061 C2081 0.950 . S
H2062 C2083 0.950 . S
H2063 C2086 0.950 . S
H2064 C2087 0.950 . S
H2065 C2089 0.950 . S
H2066 C2090 0.950 . S
H2067 C2091 0.951 . S
H2068 C2093 0.951 . S
H2069 C2095 0.950 . S
H2070 C2096 0.950 . S
H2071 C2098 0.950 . S
H2072 C2101 0.950 . S
H2073 C2102 0.950 . S
H2074 C2104 0.950 . S
H2075 C2105 0.950 . S
C2076 H2058 0.951 . S
C2076 C2077 1.366 . S
C2076 C2078 1.388 . S
C2077 C2076 1.366 . S
C2077 C2081 1.385 . S
C2078 H2059 0.951 . S
C2078 C2076 1.388 . S
C2078 C2079 1.366 . S
C2079 C2078 1.366 . S
C2079 C2080 1.414 . S
C2079 C2082 1.499 . S
C2080 H2060 0.950 . S
C2080 C2079 1.414 . S
C2080 C2081 1.374 . S
C2081 H2061 0.950 . S
C2081 C2077 1.385 . S
C2081 C2080 1.374 . S
C2082 C2079 1.499 . S
C2082 C2083 1.373 . S
C2082 C2084 1.389 . S
C2083 H2062 0.950 . S
C2083 C2082 1.373 . S
C2083 C2099 1.377 . S
C2084 C2082 1.389 . S
C2084 C2085 1.524 . S
C2084 C2098 1.377 . S
C2085 C2084 1.524 . S
C2085 C2086 1.397 . S
C2085 C2090 1.363 . S
C2086 H2063 0.950 . S
C2086 C2085 1.397 . S
C2086 C2087 1.334 . S
C2087 H2064 0.950 . S
C2087 C2086 1.334 . S
C2087 C2088 1.287 . S
C2088 C2087 1.287 . S
C2088 C2089 1.524 . S
C2088 H2107 0.913 . S
C2089 H2065 0.950 . S
C2089 C2088 1.524 . S
C2089 C2090 1.415 . S
C2090 H2066 0.950 . S
C2090 C2085 1.363 . S
C2090 C2089 1.415 . S
C2091 H2067 0.951 . S
C2091 C2092 1.366 . S
C2091 C2093 1.388 . S
C2092 C2091 1.366 . S
C2092 C2096 1.385 . S
C2093 H2068 0.951 . S
C2093 C2091 1.388 . S
C2093 C2094 1.366 . S
C2094 C2093 1.366 . S
C2094 C2095 1.414 . S
C2094 C2097 1.499 . S
C2095 H2069 0.950 . S
C2095 C2094 1.414 . S
C2095 C2096 1.374 . S
C2096 H2070 0.950 . S
C2096 C2092 1.385 . S
C2096 C2095 1.374 . S
C2097 C2094 1.499 . S
C2097 C2098 1.373 . S
C2097 C2099 1.389 . S
C2098 H2071 0.950 . S
C2098 C2084 1.377 . S
C2098 C2097 1.373 . S
C2099 C2083 1.377 . S
C2099 C2097 1.389 . S
C2099 C2100 1.524 . S
C2100 C2099 1.524 . S
C2100 C2101 1.397 . S
C2100 C2105 1.363 . S
C2101 H2072 0.950 . S
C2101 C2100 1.397 . S
C2101 C2102 1.334 . S
C2102 H2073 0.950 . S
C2102 C2101 1.334 . S
C2102 C2103 1.287 . S
C2103 C2102 1.287 . S
C2103 C2104 1.524 . S
C2103 H2106 0.999 . S
C2104 H2074 0.950 . S
C2104 C2103 1.524 . S
C2104 C2105 1.415 . S
C2105 H2075 0.950 . S
C2105 C2100 1.363 . S
C2105 C2104 1.415 . S
H2106 C2103 0.999 . S
H2107 C2088 0.913 . S
H2108 C2126 0.951 . S
H2109 C2128 0.951 . S
H2110 C2130 0.950 . S
H2111 C2131 0.950 . S
H2112 C2133 0.950 . S
H2113 C2136 0.950 . S
H2114 C2137 0.950 . S
H2115 C2139 0.950 . S
H2116 C2140 0.950 . S
H2117 C2141 0.951 . S
H2118 C2143 0.951 . S
H2119 C2145 0.950 . S
H2120 C2146 0.950 . S
H2121 C2148 0.950 . S
H2122 C2151 0.950 . S
H2123 C2152 0.950 . S
H2124 C2154 0.950 . S
H2125 C2155 0.950 . S
C2126 H2108 0.951 . S
C2126 C2127 1.366 . S
C2126 C2128 1.388 . S
C2127 C2126 1.366 . S
C2127 C2131 1.385 . S
C2128 H2109 0.951 . S
C2128 C2126 1.388 . S
C2128 C2129 1.366 . S
C2129 C2128 1.366 . S
C2129 C2130 1.414 . S
C2129 C2132 1.499 . S
C2130 H2110 0.950 . S
C2130 C2129 1.414 . S
C2130 C2131 1.374 . S
C2131 H2111 0.950 . S
C2131 C2127 1.385 . S
C2131 C2130 1.374 . S
C2132 C2129 1.499 . S
C2132 C2133 1.373 . S
C2132 C2134 1.389 . S
C2133 H2112 0.950 . S
C2133 C2132 1.373 . S
C2133 C2149 1.377 . S
C2134 C2132 1.389 . S
C2134 C2135 1.524 . S
C2134 C2148 1.377 . S
C2135 C2134 1.524 . S
C2135 C2136 1.397 . S
C2135 C2140 1.363 . S
C2136 H2113 0.950 . S
C2136 C2135 1.397 . S
C2136 C2137 1.334 . S
C2137 H2114 0.950 . S
C2137 C2136 1.334 . S
C2137 C2138 1.287 . S
C2138 C2137 1.287 . S
C2138 C2139 1.524 . S
C2138 H2157 0.913 . S
C2139 H2115 0.950 . S
C2139 C2138 1.524 . S
C2139 C2140 1.415 . S
C2140 H2116 0.950 . S
C2140 C2135 1.363 . S
C2140 C2139 1.415 . S
C2141 H2117 0.951 . S
C2141 C2142 1.366 . S
C2141 C2143 1.388 . S
C2142 C2141 1.366 . S
C2142 C2146 1.385 . S
C2143 H2118 0.951 . S
C2143 C2141 1.388 . S
C2143 C2144 1.366 . S
C2144 C2143 1.366 . S
C2144 C2145 1.414 . S
C2144 C2147 1.499 . S
C2145 H2119 0.950 . S
C2145 C2144 1.414 . S
C2145 C2146 1.374 . S
C2146 H2120 0.950 . S
C2146 C2142 1.385 . S
C2146 C2145 1.374 . S
C2147 C2144 1.499 . S
C2147 C2148 1.373 . S
C2147 C2149 1.389 . S
C2148 H2121 0.950 . S
C2148 C2134 1.377 . S
C2148 C2147 1.373 . S
C2149 C2133 1.377 . S
C2149 C2147 1.389 . S
C2149 C2150 1.524 . S
C2150 C2149 1.524 . S
C2150 C2151 1.397 . S
C2150 C2155 1.363 . S
C2151 H2122 0.950 . S
C2151 C2150 1.397 . S
C2151 C2152 1.334 . S
C2152 H2123 0.950 . S
C2152 C2151 1.334 . S
C2152 C2153 1.287 . S
C2153 C2152 1.287 . S
C2153 C2154 1.524 . S
C2153 H2156 0.999 . S
C2154 H2124 0.950 . S
C2154 C2153 1.524 . S
C2154 C2155 1.415 . S
C2155 H2125 0.950 . S
C2155 C2150 1.363 . S
C2155 C2154 1.415 . S
H2156 C2153 0.999 . S
H2157 C2138 0.913 . S
H2158 C2176 0.951 . S
H2159 C2178 0.951 . S
H2160 C2180 0.950 . S
H2161 C2181 0.950 . S
H2162 C2183 0.950 . S
H2163 C2186 0.950 . S
H2164 C2187 0.950 . S
H2165 C2189 0.950 . S
H2166 C2190 0.950 . S
H2167 C2191 0.951 . S
H2168 C2193 0.951 . S
H2169 C2195 0.950 . S
H2170 C2196 0.950 . S
H2171 C2198 0.950 . S
H2172 C2201 0.950 . S
H2173 C2202 0.950 . S
H2174 C2204 0.950 . S
H2175 C2205 0.950 . S
C2176 H2158 0.951 . S
C2176 C2177 1.366 . S
C2176 C2178 1.388 . S
C2177 C2176 1.366 . S
C2177 C2181 1.385 . S
C2178 H2159 0.951 . S
C2178 C2176 1.388 . S
C2178 C2179 1.366 . S
C2179 C2178 1.366 . S
C2179 C2180 1.414 . S
C2179 C2182 1.499 . S
C2180 H2160 0.950 . S
C2180 C2179 1.414 . S
C2180 C2181 1.374 . S
C2181 H2161 0.950 . S
C2181 C2177 1.385 . S
C2181 C2180 1.374 . S
C2182 C2179 1.499 . S
C2182 C2183 1.373 . S
C2182 C2184 1.389 . S
C2183 H2162 0.950 . S
C2183 C2182 1.373 . S
C2183 C2199 1.377 . S
C2184 C2182 1.389 . S
C2184 C2185 1.524 . S
C2184 C2198 1.377 . S
C2185 C2184 1.524 . S
C2185 C2186 1.397 . S
C2185 C2190 1.363 . S
C2186 H2163 0.950 . S
C2186 C2185 1.397 . S
C2186 C2187 1.334 . S
C2187 H2164 0.950 . S
C2187 C2186 1.334 . S
C2187 C2188 1.287 . S
C2188 C2187 1.287 . S
C2188 C2189 1.524 . S
C2188 H2207 0.913 . S
C2189 H2165 0.950 . S
C2189 C2188 1.524 . S
C2189 C2190 1.415 . S
C2190 H2166 0.950 . S
C2190 C2185 1.363 . S
C2190 C2189 1.415 . S
C2191 H2167 0.951 . S
C2191 C2192 1.366 . S
C2191 C2193 1.388 . S
C2192 C2191 1.366 . S
C2192 C2196 1.385 . S
C2193 H2168 0.951 . S
C2193 C2191 1.388 . S
C2193 C2194 1.366 . S
C2194 C2193 1.366 . S
C2194 C2195 1.414 . S
C2194 C2197 1.499 . S
C2195 H2169 0.950 . S
C2195 C2194 1.414 . S
C2195 C2196 1.374 . S
C2196 H2170 0.950 . S
C2196 C2192 1.385 . S
C2196 C2195 1.374 . S
C2197 C2194 1.499 . S
C2197 C2198 1.373 . S
C2197 C2199 1.389 . S
C2198 H2171 0.950 . S
C2198 C2184 1.377 . S
C2198 C2197 1.373 . S
C2199 C2183 1.377 . S
C2199 C2197 1.389 . S
C2199 C2200 1.524 . S
C2200 C2199 1.524 . S
C2200 C2201 1.397 . S
C2200 C2205 1.363 . S
C2201 H2172 0.950 . S
C2201 C2200 1.397 . S
C2201 C2202 1.334 . S
C2202 H2173 0.950 . S
C2202 C2201 1.334 . S
C2202 C2203 1.287 . S
C2203 C2202 1.287 . S
C2203 C2204 1.524 . S
C2203 H2206 0.999 . S
C2204 H2174 0.950 . S
C2204 C2203 1.524 . S
C2204 C2205 1.415 . S
C2205 H2175 0.950 . S
C2205 C2200 1.363 . S
C2205 C2204 1.415 . S
H2206 C2203 0.999 . S
H2207 C2188 0.913 . S
H2208 C2226 0.951 . S
H2209 C2228 0.951 . S
H2210 C2230 0.950 . S
H2211 C2231 0.950 . S
H2212 C2233 0.950 . S
H2213 C2236 0.950 . S
H2214 C2237 0.950 . S
H2215 C2239 0.950 . S
H2216 C2240 0.950 . S
H2217 C2241 0.951 . S
H2218 C2243 0.951 . S
H2219 C2245 0.950 . S
H2220 C2246 0.950 . S
H2221 C2248 0.950 . S
H2222 C2251 0.950 . S
H2223 C2252 0.950 . S
H2224 C2254 0.950 . S
H2225 C2255 0.950 . S
C2226 H2208 0.951 . S
C2226 C2227 1.366 . S
C2226 C2228 1.388 . S
C2227 C2226 1.366 . S
C2227 C2231 1.385 . S
C2228 H2209 0.951 . S
C2228 C2226 1.388 . S
C2228 C2229 1.366 . S
C2229 C2228 1.366 . S
C2229 C2230 1.414 . S
C2229 C2232 1.499 . S
C2230 H2210 0.950 . S
C2230 C2229 1.414 . S
C2230 C2231 1.374 . S
C2231 H2211 0.950 . S
C2231 C2227 1.385 . S
C2231 C2230 1.374 . S
C2232 C2229 1.499 . S
C2232 C2233 1.373 . S
C2232 C2234 1.389 . S
C2233 H2212 0.950 . S
C2233 C2232 1.373 . S
C2233 C2249 1.377 . S
C2234 C2232 1.389 . S
C2234 C2235 1.524 . S
C2234 C2248 1.377 . S
C2235 C2234 1.524 . S
C2235 C2236 1.397 . S
C2235 C2240 1.363 . S
C2236 H2213 0.950 . S
C2236 C2235 1.397 . S
C2236 C2237 1.334 . S
C2237 H2214 0.950 . S
C2237 C2236 1.334 . S
C2237 C2238 1.287 . S
C2238 C2237 1.287 . S
C2238 C2239 1.524 . S
C2238 H2257 0.913 . S
C2239 H2215 0.950 . S
C2239 C2238 1.524 . S
C2239 C2240 1.415 . S
C2240 H2216 0.950 . S
C2240 C2235 1.363 . S
C2240 C2239 1.415 . S
C2241 H2217 0.951 . S
C2241 C2242 1.366 . S
C2241 C2243 1.388 . S
C2242 C2241 1.366 . S
C2242 C2246 1.385 . S
C2243 H2218 0.951 . S
C2243 C2241 1.388 . S
C2243 C2244 1.366 . S
C2244 C2243 1.366 . S
C2244 C2245 1.414 . S
C2244 C2247 1.499 . S
C2245 H2219 0.950 . S
C2245 C2244 1.414 . S
C2245 C2246 1.374 . S
C2246 H2220 0.950 . S
C2246 C2242 1.385 . S
C2246 C2245 1.374 . S
C2247 C2244 1.499 . S
C2247 C2248 1.373 . S
C2247 C2249 1.389 . S
C2248 H2221 0.950 . S
C2248 C2234 1.377 . S
C2248 C2247 1.373 . S
C2249 C2233 1.377 . S
C2249 C2247 1.389 . S
C2249 C2250 1.524 . S
C2250 C2249 1.524 . S
C2250 C2251 1.397 . S
C2250 C2255 1.363 . S
C2251 H2222 0.950 . S
C2251 C2250 1.397 . S
C2251 C2252 1.334 . S
C2252 H2223 0.950 . S
C2252 C2251 1.334 . S
C2252 C2253 1.287 . S
C2253 C2252 1.287 . S
C2253 C2254 1.524 . S
C2253 H2256 0.999 . S
C2254 H2224 0.950 . S
C2254 C2253 1.524 . S
C2254 C2255 1.415 . S
C2255 H2225 0.950 . S
C2255 C2250 1.363 . S
C2255 C2254 1.415 . S
H2256 C2253 0.999 . S
H2257 C2238 0.913 . S
H2258 C2276 0.951 . S
H2259 C2278 0.951 . S
H2260 C2280 0.950 . S
H2261 C2281 0.950 . S
H2262 C2283 0.950 . S
H2263 C2286 0.950 . S
H2264 C2287 0.950 . S
H2265 C2289 0.950 . S
H2266 C2290 0.950 . S
H2267 C2291 0.951 . S
H2268 C2293 0.951 . S
H2269 C2295 0.950 . S
H2270 C2296 0.950 . S
H2271 C2298 0.950 . S
H2272 C2301 0.950 . S
H2273 C2302 0.950 . S
H2274 C2304 0.969 . S
H2275 C2305 0.950 . S
C2276 H2258 0.951 . S
C2276 C2277 1.366 . S
C2276 C2278 1.388 . S
C2277 C2276 1.366 . S
C2277 C2281 1.385 . S
C2278 H2259 0.951 . S
C2278 C2276 1.388 . S
C2278 C2279 1.366 . S
C2279 C2278 1.366 . S
C2279 C2280 1.414 . S
C2279 C2282 1.499 . S
C2280 H2260 0.950 . S
C2280 C2279 1.414 . S
C2280 C2281 1.374 . S
C2281 H2261 0.950 . S
C2281 C2277 1.385 . S
C2281 C2280 1.374 . S
C2282 C2279 1.499 . S
C2282 C2283 1.373 . S
C2282 C2284 1.389 . S
C2283 H2262 0.950 . S
C2283 C2282 1.373 . S
C2283 C2299 1.377 . S
C2284 C2282 1.389 . S
C2284 C2285 1.524 . S
C2284 C2298 1.377 . S
C2285 C2284 1.524 . S
C2285 C2286 1.397 . S
C2285 C2290 1.363 . S
C2286 H2263 0.950 . S
C2286 C2285 1.397 . S
C2286 C2287 1.334 . S
C2287 H2264 0.950 . S
C2287 C2286 1.334 . S
C2287 C2288 1.287 . S
C2288 C2287 1.287 . S
C2288 C2289 1.524 . S
C2288 H2307 0.913 . S
C2289 H2265 0.950 . S
C2289 C2288 1.524 . S
C2289 C2290 1.415 . S
C2290 H2266 0.950 . S
C2290 C2285 1.363 . S
C2290 C2289 1.415 . S
C2291 H2267 0.951 . S
C2291 C2292 1.366 . S
C2291 C2293 1.388 . S
C2292 C2291 1.366 . S
C2292 C2296 1.385 . S
C2293 H2268 0.951 . S
C2293 C2291 1.388 . S
C2293 C2294 1.366 . S
C2294 C2293 1.366 . S
C2294 C2295 1.414 . S
C2294 C2297 1.499 . S
C2295 H2269 0.950 . S
C2295 C2294 1.414 . S
C2295 C2296 1.374 . S
C2296 H2270 0.950 . S
C2296 C2292 1.385 . S
C2296 C2295 1.374 . S
C2297 C2294 1.499 . S
C2297 C2298 1.373 . S
C2297 C2299 1.389 . S
C2298 H2271 0.950 . S
C2298 C2284 1.377 . S
C2298 C2297 1.373 . S
C2299 C2283 1.377 . S
C2299 C2297 1.389 . S
C2299 C2300 1.524 . S
C2300 C2299 1.524 . S
C2300 C2301 1.397 . S
C2300 C2305 1.363 . S
C2301 H2272 0.950 . S
C2301 C2300 1.397 . S
C2301 C2302 1.334 . S
C2302 H2273 0.950 . S
C2302 C2301 1.334 . S
C2302 C2303 1.287 . S
C2303 C2302 1.287 . S
C2303 C2304 1.524 . S
C2303 H2306 0.999 1_554 S
C2304 H2274 0.969 . S
C2304 C2303 1.524 . S
C2304 C2305 1.415 . S
C2305 H2275 0.950 . S
C2305 C2300 1.363 . S
C2305 C2304 1.415 . S
H2306 C2303 0.999 1_556 S
H2307 C2288 0.913 . S
H2308 C2326 0.951 . S
H2309 C2328 0.951 . S
H2310 C2330 0.950 . S
H2311 C2331 0.950 . S
H2312 C2333 0.950 . S
H2313 C2336 0.950 . S
H2314 C2337 0.950 . S
H2315 C2339 0.950 . S
H2316 C2340 0.950 . S
H2317 C2341 0.951 . S
H2318 C2343 0.951 . S
H2319 C2345 0.950 . S
H2320 C2346 0.950 . S
H2321 C2348 0.950 . S
H2322 C2351 0.950 . S
H2323 C2352 0.950 . S
H2324 C2354 0.950 . S
H2325 C2355 0.950 . S
C2326 H2308 0.951 . S
C2326 C2327 1.366 . S
C2326 C2328 1.388 . S
C2327 C2326 1.366 . S
C2327 C2331 1.385 . S
C2328 H2309 0.951 . S
C2328 C2326 1.388 . S
C2328 C2329 1.366 . S
C2329 C2328 1.366 . S
C2329 C2330 1.414 . S
C2329 C2332 1.499 . S
C2330 H2310 0.950 . S
C2330 C2329 1.414 . S
C2330 C2331 1.374 . S
C2331 H2311 0.950 . S
C2331 C2327 1.385 . S
C2331 C2330 1.374 . S
C2332 C2329 1.499 . S
C2332 C2333 1.373 . S
C2332 C2334 1.389 . S
C2333 H2312 0.950 . S
C2333 C2332 1.373 . S
C2333 C2349 1.377 . S
C2334 C2332 1.389 . S
C2334 C2335 1.524 . S
C2334 C2348 1.377 . S
C2335 C2334 1.524 . S
C2335 C2336 1.397 . S
C2335 C2340 1.363 . S
C2336 H2313 0.950 . S
C2336 C2335 1.397 . S
C2336 C2337 1.334 . S
C2337 H2314 0.950 . S
C2337 C2336 1.334 . S
C2337 C2338 1.287 . S
C2338 C2337 1.287 . S
C2338 C2339 1.524 . S
C2338 H2357 0.913 . S
C2339 H2315 0.950 . S
C2339 C2338 1.524 . S
C2339 C2340 1.415 . S
C2340 H2316 0.950 . S
C2340 C2335 1.363 . S
C2340 C2339 1.415 . S
C2341 H2317 0.951 . S
C2341 C2342 1.366 . S
C2341 C2343 1.388 . S
C2342 C2341 1.366 . S
C2342 C2346 1.385 . S
C2343 H2318 0.951 . S
C2343 C2341 1.388 . S
C2343 C2344 1.366 . S
C2344 C2343 1.366 . S
C2344 C2345 1.414 . S
C2344 C2347 1.499 . S
C2345 H2319 0.950 . S
C2345 C2344 1.414 . S
C2345 C2346 1.374 . S
C2346 H2320 0.950 . S
C2346 C2342 1.385 . S
C2346 C2345 1.374 . S
C2347 C2344 1.499 . S
C2347 C2348 1.373 . S
C2347 C2349 1.389 . S
C2348 H2321 0.950 . S
C2348 C2334 1.377 . S
C2348 C2347 1.373 . S
C2349 C2333 1.377 . S
C2349 C2347 1.389 . S
C2349 C2350 1.524 . S
C2350 C2349 1.524 . S
C2350 C2351 1.397 . S
C2350 C2355 1.363 . S
C2351 H2322 0.950 . S
C2351 C2350 1.397 . S
C2351 C2352 1.334 . S
C2352 H2323 0.950 . S
C2352 C2351 1.334 . S
C2352 C2353 1.287 . S
C2353 C2352 1.287 . S
C2353 C2354 1.524 . S
C2353 H2356 0.999 . S
C2354 H2324 0.950 . S
C2354 C2353 1.524 . S
C2354 C2355 1.415 . S
C2355 H2325 0.950 . S
C2355 C2350 1.363 . S
C2355 C2354 1.415 . S
H2356 C2353 0.999 . S
H2357 C2338 0.913 . S
H2358 C2376 0.951 . S
H2359 C2378 0.951 . S
H2360 C2380 0.950 . S
H2361 C2381 0.950 . S
H2362 C2383 0.950 . S
H2363 C2386 0.950 . S
H2364 C2387 0.950 . S
H2365 C2389 0.950 . S
H2366 C2390 0.950 . S
H2367 C2391 0.951 . S
H2368 C2393 0.951 . S
H2369 C2395 0.950 . S
H2370 C2396 0.950 . S
H2371 C2398 0.950 . S
H2372 C2401 0.950 . S
H2373 C2402 0.950 . S
H2374 C2404 0.950 . S
H2375 C2405 0.950 . S
C2376 H2358 0.951 . S
C2376 C2377 1.366 . S
C2376 C2378 1.388 . S
C2377 C2376 1.366 . S
C2377 C2381 1.385 . S
C2378 H2359 0.951 . S
C2378 C2376 1.388 . S
C2378 C2379 1.366 . S
C2379 C2378 1.366 . S
C2379 C2380 1.414 . S
C2379 C2382 1.499 . S
C2380 H2360 0.950 . S
C2380 C2379 1.414 . S
C2380 C2381 1.374 . S
C2381 H2361 0.950 . S
C2381 C2377 1.385 . S
C2381 C2380 1.374 . S
C2382 C2379 1.499 . S
C2382 C2383 1.373 . S
C2382 C2384 1.389 . S
C2383 H2362 0.950 . S
C2383 C2382 1.373 . S
C2383 C2399 1.377 . S
C2384 C2382 1.389 . S
C2384 C2385 1.524 . S
C2384 C2398 1.377 . S
C2385 C2384 1.524 . S
C2385 C2386 1.397 . S
C2385 C2390 1.363 . S
C2386 H2363 0.950 . S
C2386 C2385 1.397 . S
C2386 C2387 1.334 . S
C2387 H2364 0.950 . S
C2387 C2386 1.334 . S
C2387 C2388 1.287 . S
C2388 C2387 1.287 . S
C2388 C2389 1.524 . S
C2388 H2407 0.913 . S
C2389 H2365 0.950 . S
C2389 C2388 1.524 . S
C2389 C2390 1.415 . S
C2390 H2366 0.950 . S
C2390 C2385 1.363 . S
C2390 C2389 1.415 . S
C2391 H2367 0.951 . S
C2391 C2392 1.366 . S
C2391 C2393 1.388 . S
C2392 C2391 1.366 . S
C2392 C2396 1.385 . S
C2393 H2368 0.951 . S
C2393 C2391 1.388 . S
C2393 C2394 1.366 . S
C2394 C2393 1.366 . S
C2394 C2395 1.414 . S
C2394 C2397 1.499 . S
C2395 H2369 0.950 . S
C2395 C2394 1.414 . S
C2395 C2396 1.374 . S
C2396 H2370 0.950 . S
C2396 C2392 1.385 . S
C2396 C2395 1.374 . S
C2397 C2394 1.499 . S
C2397 C2398 1.373 . S
C2397 C2399 1.389 . S
C2398 H2371 0.950 . S
C2398 C2384 1.377 . S
C2398 C2397 1.373 . S
C2399 C2383 1.377 . S
C2399 C2397 1.389 . S
C2399 C2400 1.524 . S
C2400 C2399 1.524 . S
C2400 C2401 1.397 . S
C2400 C2405 1.363 . S
C2401 H2372 0.950 . S
C2401 C2400 1.397 . S
C2401 C2402 1.334 . S
C2402 H2373 0.950 . S
C2402 C2401 1.334 . S
C2402 C2403 1.287 . S
C2403 C2402 1.287 . S
C2403 C2404 1.524 . S
C2403 H2406 0.999 . S
C2404 H2374 0.950 . S
C2404 C2403 1.524 . S
C2404 C2405 1.415 . S
C2405 H2375 0.950 . S
C2405 C2400 1.363 . S
C2405 C2404 1.415 . S
H2406 C2403 0.999 . S
H2407 C2388 0.913 . S
H2408 C2426 0.951 . S
H2409 C2428 0.951 . S
H2410 C2430 0.950 . S
H2411 C2431 0.950 . S
H2412 C2433 0.950 . S
H2413 C2436 0.950 . S
H2414 C2437 0.950 . S
H2415 C2439 0.950 . S
H2416 C2440 0.950 . S
H2417 C2441 0.951 . S
H2418 C2443 0.951 . S
H2419 C2445 0.950 . S
H2420 C2446 0.950 . S
H2421 C2448 0.950 . S
H2422 C2451 0.950 . S
H2423 C2452 0.950 . S
H2424 C2454 0.950 . S
H2425 C2455 0.950 . S
C2426 H2408 0.951 . S
C2426 C2427 1.366 . S
C2426 C2428 1.388 . S
C2427 C2426 1.366 . S
C2427 C2431 1.385 . S
C2428 H2409 0.951 . S
C2428 C2426 1.388 . S
C2428 C2429 1.366 . S
C2429 C2428 1.366 . S
C2429 C2430 1.414 . S
C2429 C2432 1.499 . S
C2430 H2410 0.950 . S
C2430 C2429 1.414 . S
C2430 C2431 1.374 . S
C2431 H2411 0.950 . S
C2431 C2427 1.385 . S
C2431 C2430 1.374 . S
C2432 C2429 1.499 . S
C2432 C2433 1.373 . S
C2432 C2434 1.389 . S
C2433 H2412 0.950 . S
C2433 C2432 1.373 . S
C2433 C2449 1.377 . S
C2434 C2432 1.389 . S
C2434 C2435 1.524 . S
C2434 C2448 1.377 . S
C2435 C2434 1.524 . S
C2435 C2436 1.397 . S
C2435 C2440 1.363 . S
C2436 H2413 0.950 . S
C2436 C2435 1.397 . S
C2436 C2437 1.334 . S
C2437 H2414 0.950 . S
C2437 C2436 1.334 . S
C2437 C2438 1.287 . S
C2438 C2437 1.287 . S
C2438 C2439 1.524 . S
C2438 H2457 0.913 . S
C2439 H2415 0.950 . S
C2439 C2438 1.524 . S
C2439 C2440 1.415 . S
C2440 H2416 0.950 . S
C2440 C2435 1.363 . S
C2440 C2439 1.415 . S
C2441 H2417 0.951 . S
C2441 C2442 1.366 . S
C2441 C2443 1.388 . S
C2442 C2441 1.366 . S
C2442 C2446 1.385 . S
C2443 H2418 0.951 . S
C2443 C2441 1.388 . S
C2443 C2444 1.366 . S
C2444 C2443 1.366 . S
C2444 C2445 1.414 . S
C2444 C2447 1.499 . S
C2445 H2419 0.950 . S
C2445 C2444 1.414 . S
C2445 C2446 1.374 . S
C2446 H2420 0.950 . S
C2446 C2442 1.385 . S
C2446 C2445 1.374 . S
C2447 C2444 1.499 . S
C2447 C2448 1.373 . S
C2447 C2449 1.389 . S
C2448 H2421 0.950 . S
C2448 C2434 1.377 . S
C2448 C2447 1.373 . S
C2449 C2433 1.377 . S
C2449 C2447 1.389 . S
C2449 C2450 1.524 . S
C2450 C2449 1.524 . S
C2450 C2451 1.397 . S
C2450 C2455 1.363 . S
C2451 H2422 0.950 . S
C2451 C2450 1.397 . S
C2451 C2452 1.334 . S
C2452 H2423 0.950 . S
C2452 C2451 1.334 . S
C2452 C2453 1.287 . S
C2453 C2452 1.287 . S
C2453 C2454 1.524 . S
C2453 H2456 0.999 . S
C2454 H2424 0.950 . S
C2454 C2453 1.524 . S
C2454 C2455 1.415 . S
C2455 H2425 0.950 . S
C2455 C2450 1.363 . S
C2455 C2454 1.415 . S
H2456 C2453 0.999 . S
H2457 C2438 0.913 . S
H2458 C2476 0.951 . S
H2459 C2478 0.951 . S
H2460 C2480 0.950 . S
H2461 C2481 0.950 . S
H2462 C2483 0.950 . S
H2463 C2486 0.950 . S
H2464 C2487 0.950 . S
H2465 C2489 0.950 . S
H2466 C2490 0.950 . S
H2467 C2491 0.951 . S
H2468 C2493 0.951 . S
H2469 C2495 0.950 . S
H2470 C2496 0.950 . S
H2471 C2498 0.950 . S
H2472 C2501 0.950 . S
H2473 C2502 0.950 . S
H2474 C2504 0.950 . S
H2475 C2505 0.950 . S
C2476 H2458 0.951 . S
C2476 C2477 1.366 . S
C2476 C2478 1.388 . S
C2477 C2476 1.366 . S
C2477 C2481 1.385 . S
C2478 H2459 0.951 . S
C2478 C2476 1.388 . S
C2478 C2479 1.366 . S
C2479 C2478 1.366 . S
C2479 C2480 1.414 . S
C2479 C2482 1.499 . S
C2480 H2460 0.950 . S
C2480 C2479 1.414 . S
C2480 C2481 1.374 . S
C2481 H2461 0.950 . S
C2481 C2477 1.385 . S
C2481 C2480 1.374 . S
C2482 C2479 1.499 . S
C2482 C2483 1.373 . S
C2482 C2484 1.389 . S
C2483 H2462 0.950 . S
C2483 C2482 1.373 . S
C2483 C2499 1.377 . S
C2484 C2482 1.389 . S
C2484 C2485 1.524 . S
C2484 C2498 1.377 . S
C2485 C2484 1.524 . S
C2485 C2486 1.397 . S
C2485 C2490 1.363 . S
C2486 H2463 0.950 . S
C2486 C2485 1.397 . S
C2486 C2487 1.334 . S
C2487 H2464 0.950 . S
C2487 C2486 1.334 . S
C2487 C2488 1.287 . S
C2488 C2487 1.287 . S
C2488 C2489 1.524 . S
C2488 H2507 0.913 . S
C2489 H2465 0.950 . S
C2489 C2488 1.524 . S
C2489 C2490 1.415 . S
C2490 H2466 0.950 . S
C2490 C2485 1.363 . S
C2490 C2489 1.415 . S
C2491 H2467 0.951 . S
C2491 C2492 1.366 . S
C2491 C2493 1.388 . S
C2492 C2491 1.366 . S
C2492 C2496 1.385 . S
C2493 H2468 0.951 . S
C2493 C2491 1.388 . S
C2493 C2494 1.366 . S
C2494 C2493 1.366 . S
C2494 C2495 1.414 . S
C2494 C2497 1.499 . S
C2495 H2469 0.950 . S
C2495 C2494 1.414 . S
C2495 C2496 1.374 . S
C2496 H2470 0.950 . S
C2496 C2492 1.385 . S
C2496 C2495 1.374 . S
C2497 C2494 1.499 . S
C2497 C2498 1.373 . S
C2497 C2499 1.389 . S
C2498 H2471 0.950 . S
C2498 C2484 1.377 . S
C2498 C2497 1.373 . S
C2499 C2483 1.377 . S
C2499 C2497 1.389 . S
C2499 C2500 1.524 . S
C2500 C2499 1.524 . S
C2500 C2501 1.397 . S
C2500 C2505 1.363 . S
C2501 H2472 0.950 . S
C2501 C2500 1.397 . S
C2501 C2502 1.334 . S
C2502 H2473 0.950 . S
C2502 C2501 1.334 . S
C2502 C2503 1.287 . S
C2503 C2502 1.287 . S
C2503 C2504 1.524 . S
C2503 H2506 0.999 . S
C2504 H2474 0.950 . S
C2504 C2503 1.524 . S
C2504 C2505 1.415 . S
C2505 H2475 0.950 . S
C2505 C2500 1.363 . S
C2505 C2504 1.415 . S
H2506 C2503 0.999 . S
H2507 C2488 0.913 . S
H2508 C2526 0.951 . S
H2509 C2528 0.951 . S
H2510 C2530 0.950 . S
H2511 C2531 0.950 . S
H2512 C2533 0.950 . S
H2513 C2536 0.950 . S
H2514 C2537 0.950 . S
H2515 C2539 0.950 . S
H2516 C2540 0.950 . S
H2517 C2541 0.951 . S
H2518 C2543 0.951 . S
H2519 C2545 0.950 . S
H2520 C2546 0.950 . S
H2521 C2548 0.950 . S
H2522 C2551 0.950 . S
H2523 C2552 0.950 . S
H2524 C2554 0.950 . S
H2525 C2555 0.950 . S
C2526 H2508 0.951 . S
C2526 C2527 1.366 . S
C2526 C2528 1.388 . S
C2527 C2526 1.366 . S
C2527 C2531 1.385 . S
C2528 H2509 0.951 . S
C2528 C2526 1.388 . S
C2528 C2529 1.366 . S
C2529 C2528 1.366 . S
C2529 C2530 1.414 . S
C2529 C2532 1.499 . S
C2530 H2510 0.950 . S
C2530 C2529 1.414 . S
C2530 C2531 1.374 . S
C2531 H2511 0.950 . S
C2531 C2527 1.385 . S
C2531 C2530 1.374 . S
C2532 C2529 1.499 . S
C2532 C2533 1.373 . S
C2532 C2534 1.389 . S
C2533 H2512 0.950 . S
C2533 C2532 1.373 . S
C2533 C2549 1.377 . S
C2534 C2532 1.389 . S
C2534 C2535 1.524 . S
C2534 C2548 1.377 . S
C2535 C2534 1.524 . S
C2535 C2536 1.397 . S
C2535 C2540 1.363 . S
C2536 H2513 0.950 . S
C2536 C2535 1.397 . S
C2536 C2537 1.334 . S
C2537 H2514 0.950 . S
C2537 C2536 1.334 . S
C2537 C2538 1.287 . S
C2538 C2537 1.287 . S
C2538 C2539 1.524 . S
C2538 H2557 0.913 . S
C2539 H2515 0.950 . S
C2539 C2538 1.524 . S
C2539 C2540 1.415 . S
C2540 H2516 0.950 . S
C2540 C2535 1.363 . S
C2540 C2539 1.415 . S
C2541 H2517 0.951 . S
C2541 C2542 1.366 . S
C2541 C2543 1.388 . S
C2542 C2541 1.366 . S
C2542 C2546 1.385 . S
C2543 H2518 0.951 . S
C2543 C2541 1.388 . S
C2543 C2544 1.366 . S
C2544 C2543 1.366 . S
C2544 C2545 1.414 . S
C2544 C2547 1.499 . S
C2545 H2519 0.950 . S
C2545 C2544 1.414 . S
C2545 C2546 1.374 . S
C2546 H2520 0.950 . S
C2546 C2542 1.385 . S
C2546 C2545 1.374 . S
C2547 C2544 1.499 . S
C2547 C2548 1.373 . S
C2547 C2549 1.389 . S
C2548 H2521 0.950 . S
C2548 C2534 1.377 . S
C2548 C2547 1.373 . S
C2549 C2533 1.377 . S
C2549 C2547 1.389 . S
C2549 C2550 1.524 . S
C2550 C2549 1.524 . S
C2550 C2551 1.397 . S
C2550 C2555 1.363 . S
C2551 H2522 0.950 . S
C2551 C2550 1.397 . S
C2551 C2552 1.334 . S
C2552 H2523 0.950 . S
C2552 C2551 1.334 . S
C2552 C2553 1.287 . S
C2553 C2552 1.287 . S
C2553 C2554 1.524 . S
C2553 H2556 0.999 . S
C2554 H2524 0.950 . S
C2554 C2553 1.524 . S
C2554 C2555 1.415 . S
C2555 H2525 0.950 . S
C2555 C2550 1.363 . S
C2555 C2554 1.415 . S
H2556 C2553 0.999 . S
H2557 C2538 0.913 . S
H2558 C2576 0.951 . S
H2559 C2578 0.951 . S
H2560 C2580 0.950 . S
H2561 C2581 0.950 . S
H2562 C2583 0.950 . S
H2563 C2586 0.950 . S
H2564 C2587 0.950 . S
H2565 C2589 0.950 . S
H2566 C2590 0.950 . S
H2567 C2591 0.951 . S
H2568 C2593 0.951 . S
H2569 C2595 0.950 . S
H2570 C2596 0.950 . S
H2571 C2598 0.950 . S
H2572 C2601 0.950 . S
H2573 C2602 0.950 1_655 S
H2574 C2604 0.950 . S
H2575 C2605 0.950 . S
C2576 H2558 0.951 . S
C2576 C2577 1.366 . S
C2576 C2578 1.388 . S
C2577 C2576 1.366 . S
C2577 C2581 1.385 . S
C2578 H2559 0.951 . S
C2578 C2576 1.388 . S
C2578 C2579 1.366 . S
C2579 C2578 1.366 . S
C2579 C2580 1.414 . S
C2579 C2582 1.499 . S
C2580 H2560 0.950 . S
C2580 C2579 1.414 . S
C2580 C2581 1.374 . S
C2581 H2561 0.950 . S
C2581 C2577 1.385 . S
C2581 C2580 1.374 . S
C2582 C2579 1.499 . S
C2582 C2583 1.373 . S
C2582 C2584 1.389 . S
C2583 H2562 0.950 . S
C2583 C2582 1.373 . S
C2583 C2599 1.377 . S
C2584 C2582 1.389 . S
C2584 C2585 1.524 . S
C2584 C2598 1.377 . S
C2585 C2584 1.524 . S
C2585 C2586 1.397 . S
C2585 C2590 1.363 . S
C2586 H2563 0.950 . S
C2586 C2585 1.397 . S
C2586 C2587 1.334 . S
C2587 H2564 0.950 . S
C2587 C2586 1.334 . S
C2587 C2588 1.287 . S
C2588 C2587 1.287 . S
C2588 C2589 1.524 . S
C2588 H2607 0.913 . S
C2589 H2565 0.950 . S
C2589 C2588 1.524 . S
C2589 C2590 1.415 . S
C2590 H2566 0.950 . S
C2590 C2585 1.363 . S
C2590 C2589 1.415 . S
C2591 H2567 0.951 . S
C2591 C2592 1.366 . S
C2591 C2593 1.388 . S
C2592 C2591 1.366 . S
C2592 C2596 1.385 . S
C2593 H2568 0.951 . S
C2593 C2591 1.388 . S
C2593 C2594 1.366 . S
C2594 C2593 1.366 . S
C2594 C2595 1.414 . S
C2594 C2597 1.499 . S
C2595 H2569 0.950 . S
C2595 C2594 1.414 . S
C2595 C2596 1.374 . S
C2596 H2570 0.950 . S
C2596 C2592 1.385 . S
C2596 C2595 1.374 . S
C2597 C2594 1.499 . S
C2597 C2598 1.373 . S
C2597 C2599 1.389 . S
C2598 H2571 0.950 . S
C2598 C2584 1.377 . S
C2598 C2597 1.373 . S
C2599 C2583 1.377 . S
C2599 C2597 1.389 . S
C2599 C2600 1.524 . S
C2600 C2599 1.524 . S
C2600 C2601 1.397 . S
C2600 C2605 1.363 . S
C2601 H2572 0.950 . S
C2601 C2600 1.397 . S
C2601 C2602 1.334 . S
C2602 H2573 0.950 1_455 S
C2602 C2601 1.334 . S
C2602 C2603 1.287 . S
C2603 C2602 1.287 . S
C2603 C2604 1.524 . S
C2603 H2606 0.999 1_455 S
C2604 H2574 0.950 . S
C2604 C2603 1.524 . S
C2604 C2605 1.415 . S
C2605 H2575 0.950 . S
C2605 C2600 1.363 . S
C2605 C2604 1.415 . S
H2606 C2603 0.999 1_655 S
H2607 C2588 0.913 . S
H2608 C2626 0.951 . S
H2609 C2628 0.951 . S
H2610 C2630 0.950 . S
H2611 C2631 0.950 . S
H2612 C2633 0.950 . S
H2613 C2636 0.950 . S
H2614 C2637 0.950 . S
H2615 C2639 0.950 . S
H2616 C2640 0.950 . S
H2617 C2641 0.951 . S
H2618 C2643 0.951 . S
H2619 C2645 0.950 . S
H2620 C2646 0.950 . S
H2621 C2648 0.950 . S
H2622 C2651 0.950 . S
H2623 C2652 0.950 . S
H2624 C2654 0.950 . S
H2625 C2655 0.950 . S
C2626 H2608 0.951 . S
C2626 C2627 1.366 . S
C2626 C2628 1.388 . S
C2627 C2626 1.366 . S
C2627 C2631 1.385 . S
C2628 H2609 0.951 . S
C2628 C2626 1.388 . S
C2628 C2629 1.366 . S
C2629 C2628 1.366 . S
C2629 C2630 1.414 . S
C2629 C2632 1.499 . S
C2630 H2610 0.950 . S
C2630 C2629 1.414 . S
C2630 C2631 1.374 . S
C2631 H2611 0.950 . S
C2631 C2627 1.385 . S
C2631 C2630 1.374 . S
C2632 C2629 1.499 . S
C2632 C2633 1.373 . S
C2632 C2634 1.389 . S
C2633 H2612 0.950 . S
C2633 C2632 1.373 . S
C2633 C2649 1.377 . S
C2634 C2632 1.389 . S
C2634 C2635 1.524 . S
C2634 C2648 1.377 . S
C2635 C2634 1.524 . S
C2635 C2636 1.397 . S
C2635 C2640 1.363 . S
C2636 H2613 0.950 . S
C2636 C2635 1.397 . S
C2636 C2637 1.334 . S
C2637 H2614 0.950 . S
C2637 C2636 1.334 . S
C2637 C2638 1.287 . S
C2638 C2637 1.287 . S
C2638 C2639 1.524 . S
C2638 H2657 0.913 . S
C2639 H2615 0.950 . S
C2639 C2638 1.524 . S
C2639 C2640 1.415 . S
C2640 H2616 0.950 . S
C2640 C2635 1.363 . S
C2640 C2639 1.415 . S
C2641 H2617 0.951 . S
C2641 C2642 1.366 . S
C2641 C2643 1.388 . S
C2642 C2641 1.366 . S
C2642 C2646 1.385 . S
C2643 H2618 0.951 . S
C2643 C2641 1.388 . S
C2643 C2644 1.366 . S
C2644 C2643 1.366 . S
C2644 C2645 1.414 . S
C2644 C2647 1.499 . S
C2645 H2619 0.950 . S
C2645 C2644 1.414 . S
C2645 C2646 1.374 . S
C2646 H2620 0.950 . S
C2646 C2642 1.385 . S
C2646 C2645 1.374 . S
C2647 C2644 1.499 . S
C2647 C2648 1.373 . S
C2647 C2649 1.389 . S
C2648 H2621 0.950 . S
C2648 C2634 1.377 . S
C2648 C2647 1.373 . S
C2649 C2633 1.377 . S
C2649 C2647 1.389 . S
C2649 C2650 1.524 . S
C2650 C2649 1.524 . S
C2650 C2651 1.397 . S
C2650 C2655 1.363 . S
C2651 H2622 0.950 . S
C2651 C2650 1.397 . S
C2651 C2652 1.334 . S
C2652 H2623 0.950 . S
C2652 C2651 1.334 . S
C2652 C2653 1.287 . S
C2653 C2652 1.287 . S
C2653 C2654 1.524 . S
C2653 H2656 0.999 . S
C2654 H2624 0.950 . S
C2654 C2653 1.524 . S
C2654 C2655 1.415 . S
C2655 H2625 0.950 . S
C2655 C2650 1.363 . S
C2655 C2654 1.415 . S
H2656 C2653 0.999 . S
H2657 C2638 0.913 . S
H2658 C2676 0.951 . S
H2659 C2678 0.951 . S
H2660 C2680 0.950 . S
H2661 C2681 0.950 . S
H2662 C2683 0.950 . S
H2663 C2686 0.950 . S
H2664 C2687 0.950 . S
H2665 C2689 0.950 . S
H2666 C2690 0.950 . S
H2667 C2691 0.951 . S
H2668 C2693 0.951 . S
H2669 C2695 0.950 . S
H2670 C2696 0.950 . S
H2671 C2698 0.950 . S
H2672 C2701 0.950 . S
H2673 C2702 0.950 . S
H2674 C2704 0.950 . S
H2675 C2705 0.950 . S
C2676 H2658 0.951 . S
C2676 C2677 1.366 . S
C2676 C2678 1.388 . S
C2677 C2676 1.366 . S
C2677 C2681 1.385 . S
C2678 H2659 0.951 . S
C2678 C2676 1.388 . S
C2678 C2679 1.366 . S
C2679 C2678 1.366 . S
C2679 C2680 1.414 . S
C2679 C2682 1.499 . S
C2680 H2660 0.950 . S
C2680 C2679 1.414 . S
C2680 C2681 1.374 . S
C2681 H2661 0.950 . S
C2681 C2677 1.385 . S
C2681 C2680 1.374 . S
C2682 C2679 1.499 . S
C2682 C2683 1.373 . S
C2682 C2684 1.389 . S
C2683 H2662 0.950 . S
C2683 C2682 1.373 . S
C2683 C2699 1.377 . S
C2684 C2682 1.389 . S
C2684 C2685 1.524 . S
C2684 C2698 1.377 . S
C2685 C2684 1.524 . S
C2685 C2686 1.397 . S
C2685 C2690 1.363 . S
C2686 H2663 0.950 . S
C2686 C2685 1.397 . S
C2686 C2687 1.334 . S
C2687 H2664 0.950 . S
C2687 C2686 1.334 . S
C2687 C2688 1.287 . S
C2688 C2687 1.287 . S
C2688 C2689 1.524 . S
C2688 H2707 0.913 . S
C2689 H2665 0.950 . S
C2689 C2688 1.524 . S
C2689 C2690 1.415 . S
C2690 H2666 0.950 . S
C2690 C2685 1.363 . S
C2690 C2689 1.415 . S
C2691 H2667 0.951 . S
C2691 C2692 1.366 . S
C2691 C2693 1.388 . S
C2692 C2691 1.366 . S
C2692 C2696 1.385 . S
C2693 H2668 0.951 . S
C2693 C2691 1.388 . S
C2693 C2694 1.366 . S
C2694 C2693 1.366 . S
C2694 C2695 1.414 . S
C2694 C2697 1.499 . S
C2695 H2669 0.950 . S
C2695 C2694 1.414 . S
C2695 C2696 1.374 . S
C2696 H2670 0.950 . S
C2696 C2692 1.385 . S
C2696 C2695 1.374 . S
C2697 C2694 1.499 . S
C2697 C2698 1.373 . S
C2697 C2699 1.389 . S
C2698 H2671 0.950 . S
C2698 C2684 1.377 . S
C2698 C2697 1.373 . S
C2699 C2683 1.377 . S
C2699 C2697 1.389 . S
C2699 C2700 1.524 . S
C2700 C2699 1.524 . S
C2700 C2701 1.397 . S
C2700 C2705 1.363 . S
C2701 H2672 0.950 . S
C2701 C2700 1.397 . S
C2701 C2702 1.334 . S
C2702 H2673 0.950 . S
C2702 C2701 1.334 . S
C2702 C2703 1.287 . S
C2703 C2702 1.287 . S
C2703 C2704 1.524 . S
C2703 H2706 0.999 . S
C2704 H2674 0.950 . S
C2704 C2703 1.524 . S
C2704 C2705 1.415 . S
C2705 H2675 0.950 . S
C2705 C2700 1.363 . S
C2705 C2704 1.415 . S
H2706 C2703 0.999 . S
H2707 C2688 0.913 . S
H2708 C2726 0.951 . S
H2709 C2728 0.951 . S
H2710 C2730 0.950 . S
H2711 C2731 0.950 . S
H2712 C2733 0.950 . S
H2713 C2736 0.950 . S
H2714 C2737 0.950 . S
H2715 C2739 0.950 . S
H2716 C2740 0.950 . S
H2717 C2741 0.951 . S
H2718 C2743 0.951 . S
H2719 C2745 0.950 . S
H2720 C2746 0.950 . S
H2721 C2748 0.950 . S
H2722 C2751 0.950 . S
H2723 C2752 0.950 . S
H2724 C2754 0.950 . S
H2725 C2755 0.950 . S
C2726 H2708 0.951 . S
C2726 C2727 1.366 . S
C2726 C2728 1.388 . S
C2727 C2726 1.366 . S
C2727 C2731 1.385 . S
C2728 H2709 0.951 . S
C2728 C2726 1.388 . S
C2728 C2729 1.366 . S
C2729 C2728 1.366 . S
C2729 C2730 1.414 . S
C2729 C2732 1.499 . S
C2730 H2710 0.950 . S
C2730 C2729 1.414 . S
C2730 C2731 1.374 . S
C2731 H2711 0.950 . S
C2731 C2727 1.385 . S
C2731 C2730 1.374 . S
C2732 C2729 1.499 . S
C2732 C2733 1.373 . S
C2732 C2734 1.389 . S
C2733 H2712 0.950 . S
C2733 C2732 1.373 . S
C2733 C2749 1.377 . S
C2734 C2732 1.389 . S
C2734 C2735 1.524 . S
C2734 C2748 1.377 . S
C2735 C2734 1.524 . S
C2735 C2736 1.397 . S
C2735 C2740 1.363 . S
C2736 H2713 0.950 . S
C2736 C2735 1.397 . S
C2736 C2737 1.334 . S
C2737 H2714 0.950 . S
C2737 C2736 1.334 . S
C2737 C2738 1.287 . S
C2738 C2737 1.287 . S
C2738 C2739 1.524 . S
C2738 H2757 0.913 . S
C2739 H2715 0.950 . S
C2739 C2738 1.524 . S
C2739 C2740 1.415 . S
C2740 H2716 0.950 . S
C2740 C2735 1.363 . S
C2740 C2739 1.415 . S
C2741 H2717 0.951 . S
C2741 C2742 1.366 . S
C2741 C2743 1.388 . S
C2742 C2741 1.366 . S
C2742 C2746 1.385 . S
C2743 H2718 0.951 . S
C2743 C2741 1.388 . S
C2743 C2744 1.366 . S
C2744 C2743 1.366 . S
C2744 C2745 1.414 . S
C2744 C2747 1.499 . S
C2745 H2719 0.950 . S
C2745 C2744 1.414 . S
C2745 C2746 1.374 . S
C2746 H2720 0.950 . S
C2746 C2742 1.385 . S
C2746 C2745 1.374 . S
C2747 C2744 1.499 . S
C2747 C2748 1.373 . S
C2747 C2749 1.389 . S
C2748 H2721 0.950 . S
C2748 C2734 1.377 . S
C2748 C2747 1.373 . S
C2749 C2733 1.377 . S
C2749 C2747 1.389 . S
C2749 C2750 1.524 . S
C2750 C2749 1.524 . S
C2750 C2751 1.397 . S
C2750 C2755 1.363 . S
C2751 H2722 0.950 . S
C2751 C2750 1.397 . S
C2751 C2752 1.334 . S
C2752 H2723 0.950 . S
C2752 C2751 1.334 . S
C2752 C2753 1.287 . S
C2753 C2752 1.287 . S
C2753 C2754 1.524 . S
C2753 H2756 0.999 . S
C2754 H2724 0.950 . S
C2754 C2753 1.524 . S
C2754 C2755 1.415 . S
C2755 H2725 0.950 . S
C2755 C2750 1.363 . S
C2755 C2754 1.415 . S
H2756 C2753 0.999 . S
H2757 C2738 0.913 . S
H2758 C2776 0.951 . S
H2759 C2778 0.951 . S
H2760 C2780 0.950 . S
H2761 C2781 0.950 . S
H2762 C2783 0.950 . S
H2763 C2786 0.950 . S
H2764 C2787 0.950 . S
H2765 C2789 0.950 . S
H2766 C2790 0.950 . S
H2767 C2791 0.951 . S
H2768 C2793 0.951 . S
H2769 C2795 0.950 . S
H2770 C2796 0.950 . S
H2771 C2798 0.950 . S
H2772 C2801 0.950 . S
H2773 C2802 0.950 . S
H2774 C2804 0.950 . S
H2775 C2805 0.950 . S
C2776 H2758 0.951 . S
C2776 C2777 1.366 . S
C2776 C2778 1.388 . S
C2777 C2776 1.366 . S
C2777 C2781 1.385 . S
C2778 H2759 0.951 . S
C2778 C2776 1.388 . S
C2778 C2779 1.366 . S
C2779 C2778 1.366 . S
C2779 C2780 1.414 . S
C2779 C2782 1.499 . S
C2780 H2760 0.950 . S
C2780 C2779 1.414 . S
C2780 C2781 1.374 . S
C2781 H2761 0.950 . S
C2781 C2777 1.385 . S
C2781 C2780 1.374 . S
C2782 C2779 1.499 . S
C2782 C2783 1.373 . S
C2782 C2784 1.389 . S
C2783 H2762 0.950 . S
C2783 C2782 1.373 . S
C2783 C2799 1.377 . S
C2784 C2782 1.389 . S
C2784 C2785 1.524 . S
C2784 C2798 1.377 . S
C2785 C2784 1.524 . S
C2785 C2786 1.397 . S
C2785 C2790 1.363 . S
C2786 H2763 0.950 . S
C2786 C2785 1.397 . S
C2786 C2787 1.334 . S
C2787 H2764 0.950 . S
C2787 C2786 1.334 . S
C2787 C2788 1.287 . S
C2788 C2787 1.287 . S
C2788 C2789 1.524 . S
C2788 H2807 0.913 . S
C2789 H2765 0.950 . S
C2789 C2788 1.524 . S
C2789 C2790 1.415 . S
C2790 H2766 0.950 . S
C2790 C2785 1.363 . S
C2790 C2789 1.415 . S
C2791 H2767 0.951 . S
C2791 C2792 1.366 . S
C2791 C2793 1.388 . S
C2792 C2791 1.366 . S
C2792 C2796 1.385 . S
C2793 H2768 0.951 . S
C2793 C2791 1.388 . S
C2793 C2794 1.366 . S
C2794 C2793 1.366 . S
C2794 C2795 1.414 . S
C2794 C2797 1.499 . S
C2795 H2769 0.950 . S
C2795 C2794 1.414 . S
C2795 C2796 1.374 . S
C2796 H2770 0.950 . S
C2796 C2792 1.385 . S
C2796 C2795 1.374 . S
C2797 C2794 1.499 . S
C2797 C2798 1.373 . S
C2797 C2799 1.389 . S
C2798 H2771 0.950 . S
C2798 C2784 1.377 . S
C2798 C2797 1.373 . S
C2799 C2783 1.377 . S
C2799 C2797 1.389 . S
C2799 C2800 1.524 . S
C2800 C2799 1.524 . S
C2800 C2801 1.397 . S
C2800 C2805 1.363 . S
C2801 H2772 0.950 . S
C2801 C2800 1.397 . S
C2801 C2802 1.334 . S
C2802 H2773 0.950 . S
C2802 C2801 1.334 . S
C2802 C2803 1.287 . S
C2803 C2802 1.287 . S
C2803 C2804 1.524 . S
C2803 H2806 0.999 . S
C2804 H2774 0.950 . S
C2804 C2803 1.524 . S
C2804 C2805 1.415 . S
C2805 H2775 0.950 . S
C2805 C2800 1.363 . S
C2805 C2804 1.415 . S
H2806 C2803 0.999 . S
H2807 C2788 0.913 . S
H2808 C2826 0.951 . S
H2809 C2828 0.951 . S
H2810 C2830 0.950 . S
H2811 C2831 0.950 . S
H2812 C2833 0.950 . S
H2813 C2836 0.950 . S
H2814 C2837 0.950 . S
H2815 C2839 0.950 . S
H2816 C2840 0.950 . S
H2817 C2841 0.951 . S
H2818 C2843 0.951 . S
H2819 C2845 0.950 . S
H2820 C2846 0.950 . S
H2821 C2848 0.950 . S
H2822 C2851 0.950 . S
H2823 C2852 0.950 . S
H2824 C2854 0.950 . S
H2825 C2855 0.950 . S
C2826 H2808 0.951 . S
C2826 C2827 1.366 . S
C2826 C2828 1.388 . S
C2827 C2826 1.366 . S
C2827 C2831 1.385 . S
C2828 H2809 0.951 . S
C2828 C2826 1.388 . S
C2828 C2829 1.366 . S
C2829 C2828 1.366 . S
C2829 C2830 1.414 . S
C2829 C2832 1.499 . S
C2830 H2810 0.950 . S
C2830 C2829 1.414 . S
C2830 C2831 1.374 . S
C2831 H2811 0.950 . S
C2831 C2827 1.385 . S
C2831 C2830 1.374 . S
C2832 C2829 1.499 . S
C2832 C2833 1.373 . S
C2832 C2834 1.389 . S
C2833 H2812 0.950 . S
C2833 C2832 1.373 . S
C2833 C2849 1.377 . S
C2834 C2832 1.389 . S
C2834 C2835 1.524 . S
C2834 C2848 1.377 . S
C2835 C2834 1.524 . S
C2835 C2836 1.397 . S
C2835 C2840 1.363 . S
C2836 H2813 0.950 . S
C2836 C2835 1.397 . S
C2836 C2837 1.334 . S
C2837 H2814 0.950 . S
C2837 C2836 1.334 . S
C2837 C2838 1.287 . S
C2838 C2837 1.287 . S
C2838 C2839 1.524 . S
C2838 H2857 0.913 . S
C2839 H2815 0.950 . S
C2839 C2838 1.524 . S
C2839 C2840 1.415 . S
C2840 H2816 0.950 . S
C2840 C2835 1.363 . S
C2840 C2839 1.415 . S
C2841 H2817 0.951 . S
C2841 C2842 1.366 . S
C2841 C2843 1.388 . S
C2842 C2841 1.366 . S
C2842 C2846 1.385 . S
C2843 H2818 0.951 . S
C2843 C2841 1.388 . S
C2843 C2844 1.366 . S
C2844 C2843 1.366 . S
C2844 C2845 1.414 . S
C2844 C2847 1.499 . S
C2845 H2819 0.950 . S
C2845 C2844 1.414 . S
C2845 C2846 1.374 . S
C2846 H2820 0.950 . S
C2846 C2842 1.385 . S
C2846 C2845 1.374 . S
C2847 C2844 1.499 . S
C2847 C2848 1.373 . S
C2847 C2849 1.389 . S
C2848 H2821 0.950 . S
C2848 C2834 1.377 . S
C2848 C2847 1.373 . S
C2849 C2833 1.377 . S
C2849 C2847 1.389 . S
C2849 C2850 1.524 . S
C2850 C2849 1.524 . S
C2850 C2851 1.397 . S
C2850 C2855 1.363 . S
C2851 H2822 0.950 . S
C2851 C2850 1.397 . S
C2851 C2852 1.334 . S
C2852 H2823 0.950 . S
C2852 C2851 1.334 . S
C2852 C2853 1.287 . S
C2853 C2852 1.287 . S
C2853 C2854 1.524 . S
C2853 H2856 0.999 . S
C2854 H2824 0.950 . S
C2854 C2853 1.524 . S
C2854 C2855 1.415 . S
C2855 H2825 0.950 . S
C2855 C2850 1.363 . S
C2855 C2854 1.415 . S
H2856 C2853 0.999 . S
H2857 C2838 0.913 . S
H2858 C2876 0.951 . S
H2859 C2878 0.951 . S
H2860 C2880 0.950 . S
H2861 C2881 0.950 . S
H2862 C2883 0.950 . S
H2863 C2886 0.950 . S
H2864 C2887 0.950 . S
H2865 C2889 0.950 . S
H2866 C2890 0.950 . S
H2867 C2891 0.951 . S
H2868 C2893 0.951 . S
H2869 C2895 0.950 . S
H2870 C2896 0.950 . S
H2871 C2898 0.950 . S
H2872 C2901 0.950 . S
H2873 C2902 0.950 . S
H2874 C2904 0.950 . S
H2875 C2905 0.950 . S
C2876 H2858 0.951 . S
C2876 C2877 1.366 . S
C2876 C2878 1.388 . S
C2877 C2876 1.366 . S
C2877 C2881 1.385 . S
C2878 H2859 0.951 . S
C2878 C2876 1.388 . S
C2878 C2879 1.366 . S
C2879 C2878 1.366 . S
C2879 C2880 1.414 . S
C2879 C2882 1.499 . S
C2880 H2860 0.950 . S
C2880 C2879 1.414 . S
C2880 C2881 1.374 . S
C2881 H2861 0.950 . S
C2881 C2877 1.385 . S
C2881 C2880 1.374 . S
C2882 C2879 1.499 . S
C2882 C2883 1.373 . S
C2882 C2884 1.389 . S
C2883 H2862 0.950 . S
C2883 C2882 1.373 . S
C2883 C2899 1.377 . S
C2884 C2882 1.389 . S
C2884 C2885 1.524 . S
C2884 C2898 1.377 . S
C2885 C2884 1.524 . S
C2885 C2886 1.397 . S
C2885 C2890 1.363 . S
C2886 H2863 0.950 . S
C2886 C2885 1.397 . S
C2886 C2887 1.334 . S
C2887 H2864 0.950 . S
C2887 C2886 1.334 . S
C2887 C2888 1.287 . S
C2888 C2887 1.287 . S
C2888 C2889 1.524 . S
C2888 H2907 0.913 . S
C2889 H2865 0.950 . S
C2889 C2888 1.524 . S
C2889 C2890 1.415 . S
C2890 H2866 0.950 . S
C2890 C2885 1.363 . S
C2890 C2889 1.415 . S
C2891 H2867 0.951 . S
C2891 C2892 1.366 . S
C2891 C2893 1.388 . S
C2892 C2891 1.366 . S
C2892 C2896 1.385 . S
C2893 H2868 0.951 . S
C2893 C2891 1.388 . S
C2893 C2894 1.366 . S
C2894 C2893 1.366 . S
C2894 C2895 1.414 . S
C2894 C2897 1.499 . S
C2895 H2869 0.950 . S
C2895 C2894 1.414 . S
C2895 C2896 1.374 . S
C2896 H2870 0.950 . S
C2896 C2892 1.385 . S
C2896 C2895 1.374 . S
C2897 C2894 1.499 . S
C2897 C2898 1.373 . S
C2897 C2899 1.389 . S
C2898 H2871 0.950 . S
C2898 C2884 1.377 . S
C2898 C2897 1.373 . S
C2899 C2883 1.377 . S
C2899 C2897 1.389 . S
C2899 C2900 1.524 . S
C2900 C2899 1.524 . S
C2900 C2901 1.397 . S
C2900 C2905 1.363 . S
C2901 H2872 0.950 . S
C2901 C2900 1.397 . S
C2901 C2902 1.334 . S
C2902 H2873 0.950 . S
C2902 C2901 1.334 . S
C2902 C2903 1.287 . S
C2903 C2902 1.287 . S
C2903 C2904 1.524 . S
C2903 H2906 0.999 . S
C2904 H2874 0.950 . S
C2904 C2903 1.524 . S
C2904 C2905 1.415 . S
C2905 H2875 0.950 . S
C2905 C2900 1.363 . S
C2905 C2904 1.415 . S
H2906 C2903 0.999 . S
H2907 C2888 0.913 . S
H2908 C2926 0.951 . S
H2909 C2928 0.951 . S
H2910 C2930 0.950 . S
H2911 C2931 0.950 . S
H2912 C2933 0.950 . S
H2913 C2936 0.950 . S
H2914 C2937 0.950 . S
H2915 C2939 0.950 . S
H2916 C2940 0.950 . S
H2917 C2941 0.951 . S
H2918 C2943 0.951 . S
H2919 C2945 0.950 . S
H2920 C2946 0.950 . S
H2921 C2948 0.950 . S
H2922 C2951 0.950 . S
H2923 C2952 0.950 . S
H2924 C2954 0.950 . S
H2925 C2955 0.950 . S
C2926 H2908 0.951 . S
C2926 C2927 1.366 . S
C2926 C2928 1.388 . S
C2927 C2926 1.366 . S
C2927 C2931 1.385 . S
C2928 H2909 0.951 . S
C2928 C2926 1.388 . S
C2928 C2929 1.366 . S
C2929 C2928 1.366 . S
C2929 C2930 1.414 . S
C2929 C2932 1.499 . S
C2930 H2910 0.950 . S
C2930 C2929 1.414 . S
C2930 C2931 1.374 . S
C2931 H2911 0.950 . S
C2931 C2927 1.385 . S
C2931 C2930 1.374 . S
C2932 C2929 1.499 . S
C2932 C2933 1.373 . S
C2932 C2934 1.389 . S
C2933 H2912 0.950 . S
C2933 C2932 1.373 . S
C2933 C2949 1.377 . S
C2934 C2932 1.389 . S
C2934 C2935 1.524 . S
C2934 C2948 1.377 . S
C2935 C2934 1.524 . S
C2935 C2936 1.397 . S
C2935 C2940 1.363 . S
C2936 H2913 0.950 . S
C2936 C2935 1.397 . S
C2936 C2937 1.334 . S
C2937 H2914 0.950 . S
C2937 C2936 1.334 . S
C2937 C2938 1.287 . S
C2938 C2937 1.287 . S
C2938 C2939 1.524 . S
C2938 H2957 0.913 . S
C2939 H2915 0.950 . S
C2939 C2938 1.524 . S
C2939 C2940 1.415 . S
C2940 H2916 0.950 . S
C2940 C2935 1.363 . S
C2940 C2939 1.415 . S
C2941 H2917 0.951 . S
C2941 C2942 1.366 . S
C2941 C2943 1.388 . S
C2942 C2941 1.366 . S
C2942 C2946 1.385 . S
C2943 H2918 0.951 . S
C2943 C2941 1.388 . S
C2943 C2944 1.366 . S
C2944 C2943 1.366 . S
C2944 C2945 1.414 . S
C2944 C2947 1.499 . S
C2945 H2919 0.950 . S
C2945 C2944 1.414 . S
C2945 C2946 1.374 . S
C2946 H2920 0.950 . S
C2946 C2942 1.385 . S
C2946 C2945 1.374 . S
C2947 C2944 1.499 . S
C2947 C2948 1.373 . S
C2947 C2949 1.389 . S
C2948 H2921 0.950 . S
C2948 C2934 1.377 . S
C2948 C2947 1.373 . S
C2949 C2933 1.377 . S
C2949 C2947 1.389 . S
C2949 C2950 1.524 . S
C2950 C2949 1.524 . S
C2950 C2951 1.397 . S
C2950 C2955 1.363 . S
C2951 H2922 0.950 . S
C2951 C2950 1.397 . S
C2951 C2952 1.334 . S
C2952 H2923 0.950 . S
C2952 C2951 1.334 . S
C2952 C2953 1.287 . S
C2953 C2952 1.287 . S
C2953 C2954 1.524 . S
C2953 H2956 0.988 1_545 S
C2954 H2924 0.950 . S
C2954 C2953 1.524 . S
C2954 C2955 1.415 . S
C2955 H2925 0.950 . S
C2955 C2950 1.363 . S
C2955 C2954 1.415 . S
H2956 C2953 0.988 1_565 S
H2957 C2938 0.913 . S
H2958 C2976 0.951 . S
H2959 C2978 0.951 . S
H2960 C2980 0.950 . S
H2961 C2981 0.950 . S
H2962 C2983 0.950 . S
H2963 C2986 0.950 . S
H2964 C2987 0.950 . S
H2965 C2989 0.950 . S
H2966 C2990 0.950 . S
H2967 C2991 0.951 . S
H2968 C2993 0.951 . S
H2969 C2995 0.950 . S
H2970 C2996 0.950 . S
H2971 C2998 0.950 . S
H2972 C3001 0.950 . S
H2973 C3002 0.950 . S
H2974 C3004 0.950 . S
H2975 C3005 0.950 . S
C2976 H2958 0.951 . S
C2976 C2977 1.366 . S
C2976 C2978 1.388 . S
C2977 C2976 1.366 . S
C2977 C2981 1.385 . S
C2978 H2959 0.951 . S
C2978 C2976 1.388 . S
C2978 C2979 1.366 . S
C2979 C2978 1.366 . S
C2979 C2980 1.414 . S
C2979 C2982 1.499 . S
C2980 H2960 0.950 . S
C2980 C2979 1.414 . S
C2980 C2981 1.374 . S
C2981 H2961 0.950 . S
C2981 C2977 1.385 . S
C2981 C2980 1.374 . S
C2982 C2979 1.499 . S
C2982 C2983 1.373 . S
C2982 C2984 1.389 . S
C2983 H2962 0.950 . S
C2983 C2982 1.373 . S
C2983 C2999 1.377 . S
C2984 C2982 1.389 . S
C2984 C2985 1.524 . S
C2984 C2998 1.377 . S
C2985 C2984 1.524 . S
C2985 C2986 1.397 . S
C2985 C2990 1.363 . S
C2986 H2963 0.950 . S
C2986 C2985 1.397 . S
C2986 C2987 1.334 . S
C2987 H2964 0.950 . S
C2987 C2986 1.334 . S
C2987 C2988 1.287 . S
C2988 C2987 1.287 . S
C2988 C2989 1.524 . S
C2988 H3007 0.913 . S
C2989 H2965 0.950 . S
C2989 C2988 1.524 . S
C2989 C2990 1.415 . S
C2990 H2966 0.950 . S
C2990 C2985 1.363 . S
C2990 C2989 1.415 . S
C2991 H2967 0.951 . S
C2991 C2992 1.366 . S
C2991 C2993 1.388 . S
C2992 C2991 1.366 . S
C2992 C2996 1.385 . S
C2993 H2968 0.951 . S
C2993 C2991 1.388 . S
C2993 C2994 1.366 . S
C2994 C2993 1.366 . S
C2994 C2995 1.414 . S
C2994 C2997 1.499 . S
C2995 H2969 0.950 . S
C2995 C2994 1.414 . S
C2995 C2996 1.374 . S
C2996 H2970 0.950 . S
C2996 C2992 1.385 . S
C2996 C2995 1.374 . S
C2997 C2994 1.499 . S
C2997 C2998 1.373 . S
C2997 C2999 1.389 . S
C2998 H2971 0.950 . S
C2998 C2984 1.377 . S
C2998 C2997 1.373 . S
C2999 C2983 1.377 . S
C2999 C2997 1.389 . S
C2999 C3000 1.524 . S
C3000 C2999 1.524 . S
C3000 C3001 1.397 . S
C3000 C3005 1.363 . S
C3001 H2972 0.950 . S
C3001 C3000 1.397 . S
C3001 C3002 1.334 . S
C3002 H2973 0.950 . S
C3002 C3001 1.334 . S
C3002 C3003 1.287 . S
C3003 C3002 1.287 . S
C3003 C3004 1.524 . S
C3003 H3006 0.999 . S
C3004 H2974 0.950 . S
C3004 C3003 1.524 . S
C3004 C3005 1.415 . S
C3005 H2975 0.950 . S
C3005 C3000 1.363 . S
C3005 C3004 1.415 . S
H3006 C3003 0.999 . S
H3007 C2988 0.913 . S
H3008 C3026 0.951 . S
H3009 C3028 0.951 . S
H3010 C3030 0.950 . S
H3011 C3031 0.950 . S
H3012 C3033 0.950 . S
H3013 C3036 0.950 . S
H3014 C3037 0.950 . S
H3015 C3039 0.950 . S
H3016 C3040 0.950 . S
H3017 C3041 0.951 . S
H3018 C3043 0.951 . S
H3019 C3045 0.950 . S
H3020 C3046 0.950 . S
H3021 C3048 0.950 . S
H3022 C3051 0.950 . S
H3023 C3052 0.950 . S
H3024 C3054 0.950 . S
H3025 C3055 0.950 . S
C3026 H3008 0.951 . S
C3026 C3027 1.366 . S
C3026 C3028 1.388 . S
C3027 C3026 1.366 . S
C3027 C3031 1.385 . S
C3028 H3009 0.951 . S
C3028 C3026 1.388 . S
C3028 C3029 1.366 . S
C3029 C3028 1.366 . S
C3029 C3030 1.414 . S
C3029 C3032 1.499 . S
C3030 H3010 0.950 . S
C3030 C3029 1.414 . S
C3030 C3031 1.374 . S
C3031 H3011 0.950 . S
C3031 C3027 1.385 . S
C3031 C3030 1.374 . S
C3032 C3029 1.499 . S
C3032 C3033 1.373 . S
C3032 C3034 1.389 . S
C3033 H3012 0.950 . S
C3033 C3032 1.373 . S
C3033 C3049 1.377 . S
C3034 C3032 1.389 . S
C3034 C3035 1.524 . S
C3034 C3048 1.377 . S
C3035 C3034 1.524 . S
C3035 C3036 1.397 . S
C3035 C3040 1.363 . S
C3036 H3013 0.950 . S
C3036 C3035 1.397 . S
C3036 C3037 1.334 . S
C3037 H3014 0.950 . S
C3037 C3036 1.334 . S
C3037 C3038 1.287 . S
C3038 C3037 1.287 . S
C3038 C3039 1.524 . S
C3038 H3057 0.913 . S
C3039 H3015 0.950 . S
C3039 C3038 1.524 . S
C3039 C3040 1.415 . S
C3040 H3016 0.950 . S
C3040 C3035 1.363 . S
C3040 C3039 1.415 . S
C3041 H3017 0.951 . S
C3041 C3042 1.366 . S
C3041 C3043 1.388 . S
C3042 C3041 1.366 . S
C3042 C3046 1.385 . S
C3043 H3018 0.951 . S
C3043 C3041 1.388 . S
C3043 C3044 1.366 . S
C3044 C3043 1.366 . S
C3044 C3045 1.414 . S
C3044 C3047 1.499 . S
C3045 H3019 0.950 . S
C3045 C3044 1.414 . S
C3045 C3046 1.374 . S
C3046 H3020 0.950 . S
C3046 C3042 1.385 . S
C3046 C3045 1.374 . S
C3047 C3044 1.499 . S
C3047 C3048 1.373 . S
C3047 C3049 1.389 . S
C3048 H3021 0.950 . S
C3048 C3034 1.377 . S
C3048 C3047 1.373 . S
C3049 C3033 1.377 . S
C3049 C3047 1.389 . S
C3049 C3050 1.524 . S
C3050 C3049 1.524 . S
C3050 C3051 1.397 . S
C3050 C3055 1.363 . S
C3051 H3022 0.950 . S
C3051 C3050 1.397 . S
C3051 C3052 1.334 . S
C3052 H3023 0.950 . S
C3052 C3051 1.334 . S
C3052 C3053 1.287 . S
C3053 C3052 1.287 . S
C3053 C3054 1.524 . S
C3053 H3056 0.999 . S
C3054 H3024 0.950 . S
C3054 C3053 1.524 . S
C3054 C3055 1.415 . S
C3055 H3025 0.950 . S
C3055 C3050 1.363 . S
C3055 C3054 1.415 . S
H3056 C3053 0.999 . S
H3057 C3038 0.913 . S
H3058 C3076 0.951 . S
H3059 C3078 0.951 . S
H3060 C3080 0.950 . S
H3061 C3081 0.950 . S
H3062 C3083 0.950 . S
H3063 C3086 0.950 . S
H3064 C3087 0.950 . S
H3065 C3089 0.950 . S
H3066 C3090 0.950 . S
H3067 C3091 0.951 . S
H3068 C3093 0.951 . S
H3069 C3095 0.950 . S
H3070 C3096 0.950 . S
H3071 C3098 0.950 . S
H3072 C3101 0.950 . S
H3073 C3102 0.950 . S
H3074 C3104 0.950 . S
H3075 C3105 0.950 . S
C3076 H3058 0.951 . S
C3076 C3077 1.366 . S
C3076 C3078 1.388 . S
C3077 C3076 1.366 . S
C3077 C3081 1.385 . S
C3078 H3059 0.951 . S
C3078 C3076 1.388 . S
C3078 C3079 1.366 . S
C3079 C3078 1.366 . S
C3079 C3080 1.414 . S
C3079 C3082 1.499 . S
C3080 H3060 0.950 . S
C3080 C3079 1.414 . S
C3080 C3081 1.374 . S
C3081 H3061 0.950 . S
C3081 C3077 1.385 . S
C3081 C3080 1.374 . S
C3082 C3079 1.499 . S
C3082 C3083 1.373 . S
C3082 C3084 1.389 . S
C3083 H3062 0.950 . S
C3083 C3082 1.373 . S
C3083 C3099 1.377 . S
C3084 C3082 1.389 . S
C3084 C3085 1.524 . S
C3084 C3098 1.377 . S
C3085 C3084 1.524 . S
C3085 C3086 1.397 . S
C3085 C3090 1.363 . S
C3086 H3063 0.950 . S
C3086 C3085 1.397 . S
C3086 C3087 1.334 . S
C3087 H3064 0.950 . S
C3087 C3086 1.334 . S
C3087 C3088 1.287 . S
C3088 C3087 1.287 . S
C3088 C3089 1.524 . S
C3088 H3107 0.913 . S
C3089 H3065 0.950 . S
C3089 C3088 1.524 . S
C3089 C3090 1.415 . S
C3090 H3066 0.950 . S
C3090 C3085 1.363 . S
C3090 C3089 1.415 . S
C3091 H3067 0.951 . S
C3091 C3092 1.366 . S
C3091 C3093 1.388 . S
C3092 C3091 1.366 . S
C3092 C3096 1.385 . S
C3093 H3068 0.951 . S
C3093 C3091 1.388 . S
C3093 C3094 1.366 . S
C3094 C3093 1.366 . S
C3094 C3095 1.414 . S
C3094 C3097 1.499 . S
C3095 H3069 0.950 . S
C3095 C3094 1.414 . S
C3095 C3096 1.374 . S
C3096 H3070 0.950 . S
C3096 C3092 1.385 . S
C3096 C3095 1.374 . S
C3097 C3094 1.499 . S
C3097 C3098 1.373 . S
C3097 C3099 1.389 . S
C3098 H3071 0.950 . S
C3098 C3084 1.377 . S
C3098 C3097 1.373 . S
C3099 C3083 1.377 . S
C3099 C3097 1.389 . S
C3099 C3100 1.524 . S
C3100 C3099 1.524 . S
C3100 C3101 1.397 . S
C3100 C3105 1.363 . S
C3101 H3072 0.950 . S
C3101 C3100 1.397 . S
C3101 C3102 1.334 . S
C3102 H3073 0.950 . S
C3102 C3101 1.334 . S
C3102 C3103 1.287 . S
C3103 C3102 1.287 . S
C3103 C3104 1.524 . S
C3103 H3106 0.999 . S
C3104 H3074 0.950 . S
C3104 C3103 1.524 . S
C3104 C3105 1.415 . S
C3105 H3075 0.950 . S
C3105 C3100 1.363 . S
C3105 C3104 1.415 . S
H3106 C3103 0.999 . S
H3107 C3088 0.913 . S
H3108 C3126 0.951 . S
H3109 C3128 0.951 . S
H3110 C3130 0.950 . S
H3111 C3131 0.950 . S
H3112 C3133 0.950 . S
H3113 C3136 0.950 . S
H3114 C3137 0.950 . S
H3115 C3139 0.950 . S
H3116 C3140 0.950 . S
H3117 C3141 0.951 . S
H3118 C3143 0.951 . S
H3119 C3145 0.950 . S
H3120 C3146 0.950 . S
H3121 C3148 0.950 . S
H3122 C3151 0.950 . S
H3123 C3152 0.950 . S
H3124 C3154 0.950 . S
H3125 C3155 0.950 . S
C3126 H3108 0.951 . S
C3126 C3127 1.366 . S
C3126 C3128 1.388 . S
C3127 C3126 1.366 . S
C3127 C3131 1.385 . S
C3128 H3109 0.951 . S
C3128 C3126 1.388 . S
C3128 C3129 1.366 . S
C3129 C3128 1.366 . S
C3129 C3130 1.414 . S
C3129 C3132 1.499 . S
C3130 H3110 0.950 . S
C3130 C3129 1.414 . S
C3130 C3131 1.374 . S
C3131 H3111 0.950 . S
C3131 C3127 1.385 . S
C3131 C3130 1.374 . S
C3132 C3129 1.499 . S
C3132 C3133 1.373 . S
C3132 C3134 1.389 . S
C3133 H3112 0.950 . S
C3133 C3132 1.373 . S
C3133 C3149 1.377 . S
C3134 C3132 1.389 . S
C3134 C3135 1.524 . S
C3134 C3148 1.377 . S
C3135 C3134 1.524 . S
C3135 C3136 1.397 . S
C3135 C3140 1.363 . S
C3136 H3113 0.950 . S
C3136 C3135 1.397 . S
C3136 C3137 1.334 . S
C3137 H3114 0.950 . S
C3137 C3136 1.334 . S
C3137 C3138 1.287 . S
C3138 C3137 1.287 . S
C3138 C3139 1.524 . S
C3138 H3157 0.913 . S
C3139 H3115 0.950 . S
C3139 C3138 1.524 . S
C3139 C3140 1.415 . S
C3140 H3116 0.950 . S
C3140 C3135 1.363 . S
C3140 C3139 1.415 . S
C3141 H3117 0.951 . S
C3141 C3142 1.366 . S
C3141 C3143 1.388 . S
C3142 C3141 1.366 . S
C3142 C3146 1.385 . S
C3143 H3118 0.951 . S
C3143 C3141 1.388 . S
C3143 C3144 1.366 . S
C3144 C3143 1.366 . S
C3144 C3145 1.414 . S
C3144 C3147 1.499 . S
C3145 H3119 0.950 . S
C3145 C3144 1.414 . S
C3145 C3146 1.374 . S
C3146 H3120 0.950 . S
C3146 C3142 1.385 . S
C3146 C3145 1.374 . S
C3147 C3144 1.499 . S
C3147 C3148 1.373 . S
C3147 C3149 1.389 . S
C3148 H3121 0.950 . S
C3148 C3134 1.377 . S
C3148 C3147 1.373 . S
C3149 C3133 1.377 . S
C3149 C3147 1.389 . S
C3149 C3150 1.524 . S
C3150 C3149 1.524 . S
C3150 C3151 1.397 . S
C3150 C3155 1.363 . S
C3151 H3122 0.950 . S
C3151 C3150 1.397 . S
C3151 C3152 1.334 . S
C3152 H3123 0.950 . S
C3152 C3151 1.334 . S
C3152 C3153 1.287 . S
C3153 C3152 1.287 . S
C3153 C3154 1.524 . S
C3153 H3156 0.999 . S
C3154 H3124 0.950 . S
C3154 C3153 1.524 . S
C3154 C3155 1.415 . S
C3155 H3125 0.950 . S
C3155 C3150 1.363 . S
C3155 C3154 1.415 . S
H3156 C3153 0.999 . S
H3157 C3138 0.913 . S
H3158 C3176 0.951 . S
H3159 C3178 0.951 . S
H3160 C3180 0.950 . S
H3161 C3181 0.950 . S
H3162 C3183 0.950 . S
H3163 C3186 0.950 . S
H3164 C3187 0.950 . S
H3165 C3189 0.950 . S
H3166 C3190 0.950 . S
H3167 C3191 0.951 . S
H3168 C3193 0.951 . S
H3169 C3195 0.950 . S
H3170 C3196 0.950 . S
H3171 C3198 0.950 . S
H3172 C3201 0.950 . S
H3173 C3202 0.950 . S
H3174 C3204 0.950 . S
H3175 C3205 0.950 . S
C3176 H3158 0.951 . S
C3176 C3177 1.366 . S
C3176 C3178 1.388 . S
C3177 C3176 1.366 . S
C3177 C3181 1.385 . S
C3178 H3159 0.951 . S
C3178 C3176 1.388 . S
C3178 C3179 1.366 . S
C3179 C3178 1.366 . S
C3179 C3180 1.414 . S
C3179 C3182 1.499 . S
C3180 H3160 0.950 . S
C3180 C3179 1.414 . S
C3180 C3181 1.374 . S
C3181 H3161 0.950 . S
C3181 C3177 1.385 . S
C3181 C3180 1.374 . S
C3182 C3179 1.499 . S
C3182 C3183 1.373 . S
C3182 C3184 1.389 . S
C3183 H3162 0.950 . S
C3183 C3182 1.373 . S
C3183 C3199 1.377 . S
C3184 C3182 1.389 . S
C3184 C3185 1.524 . S
C3184 C3198 1.377 . S
C3185 C3184 1.524 . S
C3185 C3186 1.397 . S
C3185 C3190 1.363 . S
C3186 H3163 0.950 . S
C3186 C3185 1.397 . S
C3186 C3187 1.334 . S
C3187 H3164 0.950 . S
C3187 C3186 1.334 . S
C3187 C3188 1.287 . S
C3188 C3187 1.287 . S
C3188 C3189 1.524 . S
C3188 H3207 0.913 . S
C3189 H3165 0.950 . S
C3189 C3188 1.524 . S
C3189 C3190 1.415 . S
C3190 H3166 0.950 . S
C3190 C3185 1.363 . S
C3190 C3189 1.415 . S
C3191 H3167 0.951 . S
C3191 C3192 1.366 . S
C3191 C3193 1.388 . S
C3192 C3191 1.366 . S
C3192 C3196 1.385 . S
C3193 H3168 0.951 . S
C3193 C3191 1.388 . S
C3193 C3194 1.366 . S
C3194 C3193 1.366 . S
C3194 C3195 1.414 . S
C3194 C3197 1.499 . S
C3195 H3169 0.950 . S
C3195 C3194 1.414 . S
C3195 C3196 1.374 . S
C3196 H3170 0.950 . S
C3196 C3192 1.385 . S
C3196 C3195 1.374 . S
C3197 C3194 1.499 . S
C3197 C3198 1.373 . S
C3197 C3199 1.389 . S
C3198 H3171 0.950 . S
C3198 C3184 1.377 . S
C3198 C3197 1.373 . S
C3199 C3183 1.377 . S
C3199 C3197 1.389 . S
C3199 C3200 1.524 . S
C3200 C3199 1.524 . S
C3200 C3201 1.397 . S
C3200 C3205 1.363 . S
C3201 H3172 0.950 . S
C3201 C3200 1.397 . S
C3201 C3202 1.334 . S
C3202 H3173 0.950 . S
C3202 C3201 1.334 . S
C3202 C3203 1.287 . S
C3203 C3202 1.287 . S
C3203 C3204 1.524 . S
C3203 H3206 0.999 . S
C3204 H3174 0.950 . S
C3204 C3203 1.524 . S
C3204 C3205 1.415 . S
C3205 H3175 0.950 . S
C3205 C3200 1.363 . S
C3205 C3204 1.415 . S
H3206 C3203 0.999 . S
H3207 C3188 0.913 . S
H3208 C3226 0.951 . S
H3209 C3228 0.951 . S
H3210 C3230 0.950 . S
H3211 C3231 0.950 . S
H3212 C3233 0.950 . S
H3213 C3236 0.950 . S
H3214 C3237 0.950 . S
H3215 C3239 0.950 . S
H3216 C3240 0.950 . S
H3217 C3241 0.951 . S
H3218 C3243 0.951 . S
H3219 C3245 0.950 . S
H3220 C3246 0.950 . S
H3221 C3248 0.950 . S
H3222 C3251 0.950 . S
H3223 C3252 0.950 . S
H3224 C3254 0.950 . S
H3225 C3255 0.950 . S
C3226 H3208 0.951 . S
C3226 C3227 1.366 . S
C3226 C3228 1.388 . S
C3227 C3226 1.366 . S
C3227 C3231 1.385 . S
C3228 H3209 0.951 . S
C3228 C3226 1.388 . S
C3228 C3229 1.366 . S
C3229 C3228 1.366 . S
C3229 C3230 1.414 . S
C3229 C3232 1.499 . S
C3230 H3210 0.950 . S
C3230 C3229 1.414 . S
C3230 C3231 1.374 . S
C3231 H3211 0.950 . S
C3231 C3227 1.385 . S
C3231 C3230 1.374 . S
C3232 C3229 1.499 . S
C3232 C3233 1.373 . S
C3232 C3234 1.389 . S
C3233 H3212 0.950 . S
C3233 C3232 1.373 . S
C3233 C3249 1.377 . S
C3234 C3232 1.389 . S
C3234 C3235 1.524 . S
C3234 C3248 1.377 . S
C3235 C3234 1.524 . S
C3235 C3236 1.397 . S
C3235 C3240 1.363 . S
C3236 H3213 0.950 . S
C3236 C3235 1.397 . S
C3236 C3237 1.334 . S
C3237 H3214 0.950 . S
C3237 C3236 1.334 . S
C3237 C3238 1.287 . S
C3238 C3237 1.287 . S
C3238 C3239 1.524 . S
C3238 H3257 0.913 . S
C3239 H3215 0.950 . S
C3239 C3238 1.524 . S
C3239 C3240 1.415 . S
C3240 H3216 0.950 . S
C3240 C3235 1.363 . S
C3240 C3239 1.415 . S
C3241 H3217 0.951 . S
C3241 C3242 1.366 . S
C3241 C3243 1.388 . S
C3242 C3241 1.366 . S
C3242 C3246 1.385 . S
C3243 H3218 0.951 . S
C3243 C3241 1.388 . S
C3243 C3244 1.366 . S
C3244 C3243 1.366 . S
C3244 C3245 1.414 . S
C3244 C3247 1.499 . S
C3245 H3219 0.950 . S
C3245 C3244 1.414 . S
C3245 C3246 1.374 . S
C3246 H3220 0.950 . S
C3246 C3242 1.385 . S
C3246 C3245 1.374 . S
C3247 C3244 1.499 . S
C3247 C3248 1.373 . S
C3247 C3249 1.389 . S
C3248 H3221 0.950 . S
C3248 C3234 1.377 . S
C3248 C3247 1.373 . S
C3249 C3233 1.377 . S
C3249 C3247 1.389 . S
C3249 C3250 1.524 . S
C3250 C3249 1.524 . S
C3250 C3251 1.397 . S
C3250 C3255 1.363 . S
C3251 H3222 0.950 . S
C3251 C3250 1.397 . S
C3251 C3252 1.334 . S
C3252 H3223 0.950 . S
C3252 C3251 1.334 . S
C3252 C3253 1.287 . S
C3253 C3252 1.287 . S
C3253 C3254 1.524 . S
C3253 H3256 0.999 . S
C3254 H3224 0.950 . S
C3254 C3253 1.524 . S
C3254 C3255 1.415 . S
C3255 H3225 0.950 . S
C3255 C3250 1.363 . S
C3255 C3254 1.415 . S
H3256 C3253 0.999 . S
H3257 C3238 0.913 . S
C892 C683 1.573 . S
C877 C56 1.568 . S
C942 C673 1.494 . S
C927 C154 1.408 . S
C992 C674 1.074 . S
C977 C236 1.074 . S
C1027 C310 0.729 . S
C1042 C696 0.489 . S
C1077 C394 1.407 . S
C1092 C699 1.495 . S
C1142 C682 1.074 . S
C1127 C476 1.075 . S
C1177 C574 0.726 . S
C1192 C672 0.489 . S
C1227 C656 1.570 . S
C1242 C690 1.574 . S
C1292 C703 2.494 . S
C1277 C67 2.571 . S
C1327 C139 1.537 . S
C1342 C752 1.492 . S
C1392 C730 1.509 . S
C1377 C238 1.448 . S
C1442 C744 1.057 . S
C1427 C308 1.058 . S
C1477 C392 1.060 . S
C1492 C705 1.049 . S
C1542 C758 2.487 . S
C1527 C487 2.575 . S
C1577 C559 1.538 . S
C1592 C714 1.495 . S
C1627 C658 1.414 . S
C1642 C735 1.496 . S
C1677 C58 1.414 . S
C1692 C761 1.496 . S
C1727 C403 1.537 . S
C1742 C745 1.492 . S
C1792 C704 1.509 . S
C1777 C478 1.447 . S
C1842 C736 1.058 . S
C1827 C572 1.059 . S
C1877 C643 2.573 . S
C1892 C727 2.496 . S
C1927 C223 2.575 . S
C1942 C734 2.488 . S
C1992 C721 1.496 . S
C1977 C319 1.539 . S
C2027 C152 1.061 . S
C2042 C713 1.050 . S
C2077 C644 1.570 . S
C2092 C776 1.573 . S
C2127 C406 1.409 . S
C2142 C766 1.494 . S
C2192 C767 1.073 . S
C2177 C488 1.074 . S
C2242 C789 0.487 . S
C2227 C562 0.726 . S
C2277 C142 1.408 . S
C2292 C792 1.494 . S
C2342 C775 1.074 . S
C2327 C224 1.075 . S
C2377 C322 0.727 . S
C2392 C765 0.491 . S
C2427 C68 1.571 . S
C2442 C783 1.573 . S
C2477 C655 2.573 . S
C2492 C796 2.494 . S
C2542 C845 1.492 . S
C2527 C391 1.538 . S
C2577 C490 1.448 . S
C2592 C823 1.509 . S
C2627 C560 1.059 . S
C2642 C837 1.058 . S
C2692 C798 1.049 . S
C2677 C140 1.060 . S
C2727 C235 2.575 . S
C2742 C851 2.489 . S
C2792 C807 1.497 . S
C2777 C307 1.538 . S
C2842 C828 1.497 . S
C2827 C70 1.413 . S
C2892 C854 1.497 . S
C2877 C646 1.418 . S
C2927 C151 1.537 . S
C2942 C838 1.490 . S
C2977 C226 1.448 . S
C2992 C797 1.510 . S
C3042 C829 1.057 . S
C3027 C320 1.059 . S
C3077 C55 2.573 . S
C3092 C820 2.494 . S
C3127 C475 2.575 . S
C3142 C827 2.485 . S
C3192 C814 1.496 . S
C3177 C571 1.538 . S
C3242 C806 1.051 . S
C3227 C404 1.061 . S
