# Generated by pormake.
# Topology pth, (4,4)-cn, num edge types: 1
# Building blocks:
#     Node 0, Type 0, BuildingBlock: UXUYUI_clean_sbu_0, # of connection points: 4
#     Node 1, Type 0, BuildingBlock: UXUYUI_clean_sbu_0, # of connection points: 4
#     Node 2, Type 0, BuildingBlock: UXUYUI_clean_sbu_0, # of connection points: 4
#     Node 3, Type 1, BuildingBlock: MUDLON_clean_sbu_0, # of connection points: 4
#     Node 4, Type 1, BuildingBlock: MUDLON_clean_sbu_0, # of connection points: 4
#     Node 5, Type 1, BuildingBlock: MUDLON_clean_sbu_0, # of connection points: 4
#     Edge 6, Type (0, 1), BuildingBlock: EZIPEK_clean_linker_0, # of connection points: 2
#     Edge 7, Type (0, 1), BuildingBlock: EZIPEK_clean_linker_0, # of connection points: 2
#     Edge 8, Type (0, 1), BuildingBlock: EZIPEK_clean_linker_0, # of connection points: 2
#     Edge 9, Type (0, 1), BuildingBlock: EZIPEK_clean_linker_0, # of connection points: 2
#     Edge 10, Type (0, 1), BuildingBlock: EZIPEK_clean_linker_0, # of connection points: 2
#     Edge 11, Type (0, 1), BuildingBlock: EZIPEK_clean_linker_0, # of connection points: 2
#     Edge 12, Type (0, 1), BuildingBlock: EZIPEK_clean_linker_0, # of connection points: 2
#     Edge 13, Type (0, 1), BuildingBlock: EZIPEK_clean_linker_0, # of connection points: 2
#     Edge 14, Type (0, 1), BuildingBlock: EZIPEK_clean_linker_0, # of connection points: 2
#     Edge 15, Type (0, 1), BuildingBlock: EZIPEK_clean_linker_0, # of connection points: 2
#     Edge 16, Type (0, 1), BuildingBlock: EZIPEK_clean_linker_0, # of connection points: 2
#     Edge 17, Type (0, 1), BuildingBlock: EZIPEK_clean_linker_0, # of connection points: 2
# Relax obj value: 0.110
# Max RMSD: 0.229
# Mean RMSD: 0.139
data_MOF--net-pth--node1-UXUYUI_clean_sbu_0--node2-MUDLON_clean_sbu_0--edge1-EZIPEK_clean_linker_0
_symmetry_space_group_name_H-M    P1
_symmetry_Int_Tables_number       1
_symmetry_cell_setting            triclinic
loop_
_symmetry_equiv_pos_as_xyz
'x, y, z'
_cell_length_a     21.87295
_cell_length_b     21.87279
_cell_length_c     57.597596
_cell_angle_alpha  89.944414
_cell_angle_beta   90.142153
_cell_angle_gamma 119.93617
loop_
_atom_site_label
_atom_site_type_symbol
_atom_site_fract_x
_atom_site_fract_y
_atom_site_fract_z
_atom_type_partial_charge
Li0 Li 0.06964 0.05669 0.0712 0.0
Li1 Li 0.98534 0.05271 0.10393 0.0
Li2 Li 0.0224 0.96336 0.10012 0.0
Li3 Li 0.9443 0.96578 0.07294 0.0
C4 C 0.12683 0.06839 0.12284 0.0
N5 N 0.21116 0.06498 0.15802 0.0
C6 C 0.10257 0.05597 0.14573 0.0
C7 C 0.1941 0.07945 0.11784 0.0
C8 C 0.14593 0.05425 0.16327 0.0
C9 C 0.23595 0.07754 0.13587 0.0
C10 C 0.93621 0.07431 0.05624 0.0
C11 C 0.83239 0.08515 0.05168 0.0
N12 N 0.83532 0.07817 0.02831 0.0
C13 C 0.93851 0.06775 0.03217 0.0
C14 C 0.8829 0.08331 0.0661 0.0
C15 C 0.88685 0.06957 0.01835 0.0
C16 C 0.13584 0.10541 0.02816 0.0
N17 N 0.14503 0.11778 0.05139 0.0
C18 C 0.25681 0.22138 0.04513 0.0
C19 C 0.20431 0.17389 0.06011 0.0
C20 C 0.24684 0.21183 0.02102 0.0
C21 C 0.18613 0.15238 1.01255 0.0
H22 H 0.08849 0.05992 0.02176 0.0
H23 H 0.20991 0.1829 0.07864 0.0
C24 C 0.93886 0.08279 0.14592 0.0
N25 N 0.96781 0.10949 0.12483 0.0
C26 C 0.9317 0.12564 0.16239 0.0
C27 C 0.9825 0.22206 0.1349 0.0
C28 C 0.98879 0.17738 0.11896 0.0
C29 C 0.95478 0.19637 0.15701 0.0
H30 H 0.92335 0.0288 0.15018 0.0
H31 H 0.01217 0.19725 0.10213 0.0
C32 C 0.05547 0.91287 0.0631 0.0
N33 N 0.11411 0.82737 0.05786 0.0
C34 C 0.01404 0.83998 0.0662 0.0
C35 C 0.12647 0.94222 0.05702 0.0
C36 C 0.04477 0.79768 0.0636 0.0
C37 C 0.15517 0.89808 0.0545 0.0
C38 C 0.8583 0.90002 0.10795 0.0
C39 C 0.83631 0.82991 0.10229 0.0
C40 C 0.80847 0.91882 0.1146 0.0
C41 C 0.7645 0.77984 0.10299 0.0
C42 C 0.73715 0.86713 0.11518 0.0
N43 N 0.71682 0.79934 0.10937 0.0
C44 C 0.99756 0.86584 0.13579 0.0
C45 C 0.10741 0.90472 0.11718 0.0
C46 C 0.01048 0.82361 0.15088 0.0
N47 N 0.04547 0.90497 0.11922 0.0
C48 C 0.12256 0.86321 0.13196 0.0
C49 C 0.07342 0.82192 0.14895 0.0
H50 H 0.94946 0.8679 0.13747 0.0
H51 H 0.14559 0.93735 0.1043 0.0
C52 C 0.87838 0.87524 0.03523 0.0
N53 N 0.8658 0.90987 0.0525 0.0
C54 C 0.82511 0.83299 0.0196 0.0
C55 C 0.74661 0.86332 0.03942 0.0
C56 C 0.80168 0.90549 0.05462 0.0
C57 C 0.75836 0.82643 0.02176 0.0
H58 H 0.92986 0.88023 0.03361 0.0
H59 H 0.79301 0.93449 0.06811 0.0
O60 O 0.08432 0.06828 0.10537 0.0
O61 O 0.98531 0.07106 0.07013 0.0
O62 O 0.0264 0.95516 0.06565 0.0
O63 O 0.92834 0.94985 0.1072 0.0
H64 H 0.05041 0.0467 0.14986 0.0
H65 H 0.21329 0.08803 0.10016 0.0
H66 H 0.12762 0.04413 0.18104 0.0
H67 H 0.28793 0.08551 0.13224 0.0
H68 H 0.79061 0.09169 0.05908 0.0
H69 H 0.97909 0.0603 0.02426 0.0
H70 H 0.87994 0.08782 0.08471 0.0
H71 H 0.8876 0.06392 0.99971 0.0
H72 H 0.30309 0.26687 0.05218 0.0
H73 H 0.17692 0.14353 0.99405 0.0
H74 H 0.91086 0.10468 0.17943 0.0
H75 H 1.00142 0.2767 0.13039 0.0
H76 H 0.95884 0.81638 0.07064 0.0
H77 H 0.1593 0.9985 0.05452 0.0
H78 H 0.01348 0.74124 0.06612 0.0
H79 H 0.21015 0.92009 0.04995 0.0
H80 H 0.87428 0.81444 0.0973 0.0
H81 H 0.8245 0.97289 0.11892 0.0
H82 H 0.74668 0.7255 0.09848 0.0
H83 H 0.69793 0.88099 0.12013 0.0
H84 H 0.97179 0.79257 0.16396 0.0
H85 H 0.17189 0.8633 0.13021 0.0
H86 H 0.83551 0.80484 1.00613 0.0
H87 H 0.69542 0.85906 0.04149 0.0
Li88 Li 0.98814 0.94015 0.4006 0.0
Li89 Li 0.06858 0.01835 0.4312 0.0
Li90 Li 0.94281 0.9868 0.43044 0.0
Li91 Li 0.02476 0.06656 0.40141 0.0
C92 C 0.95609 0.85543 0.44039 0.0
N93 N 0.90134 0.71498 0.45189 0.0
C94 C 1.00092 0.8277 0.44341 0.0
C95 C 0.88353 0.81207 0.44372 0.0
C96 C 0.97221 0.75647 0.44907 0.0
C97 C 0.85683 0.74112 0.4494 0.0
C98 C 0.15264 0.07345 0.39155 0.0
C99 C 0.25722 0.18508 0.3993 0.0
N100 N 0.28801 0.17648 0.38003 0.0
C101 C 0.18527 0.06566 0.37184 0.0
C102 C 0.18883 0.13357 0.40541 0.0
C103 C 0.25376 0.11836 0.36631 0.0
C104 C 0.92345 0.84819 0.36209 0.0
N105 N 0.96888 0.86298 0.38019 0.0
C106 C 0.99383 0.77331 0.3677 0.0
C107 C 1.00444 0.82721 0.3831 0.0
C108 C 0.94642 0.75648 0.34913 0.0
C109 C 0.91045 0.79409 0.34652 0.0
H110 H 0.89843 0.8794 0.3593 0.0
H111 H 0.04244 0.84172 0.397 0.0
C112 C 0.15562 0.07826 0.47029 0.0
N113 N 0.14395 0.03537 0.45173 0.0
C114 C 0.20647 0.08831 0.48688 0.0
C115 C 0.23265 0.01002 0.4649 0.0
C116 C 0.18212 1.00252 0.44849 0.0
C117 C 0.24424 0.05238 0.48456 0.0
H118 H 0.12408 0.10318 0.47252 0.0
H119 H 0.17196 0.96903 0.43349 0.0
C120 C 0.85917 0.95174 0.39029 0.0
N121 N 0.7175 0.88545 0.37894 0.0
C122 C 0.83069 0.98991 0.37995 0.0
C123 C 0.81562 0.8798 0.39473 0.0
C124 C 0.75892 0.95545 0.37438 0.0
C125 C 0.74415 0.84725 0.3889 0.0
C126 C 1.00808 0.13085 0.44026 0.0
C127 C 0.94905 0.12653 0.42923 0.0
C128 C 0.04683 0.18583 0.45587 0.0
C129 C 0.92935 0.17681 0.43415 0.0
C130 C 0.02548 0.23516 0.46033 0.0
N131 N 0.96764 0.22964 0.44948 0.0
C132 C 0.88207 0.96052 0.474 0.0
C133 C 0.80535 0.96317 0.44536 0.0
C134 C 0.8338 0.95034 0.49149 0.0
N135 N 0.86744 0.9672 0.45148 0.0
C136 C 0.75512 0.95202 0.46227 0.0
C137 C 0.76981 0.94652 0.48563 0.0
H138 H 0.93209 0.96459 0.47839 0.0
H139 H 0.79521 0.97048 0.42757 0.0
C140 C 0.01546 0.13446 0.36134 0.0
N141 N 0.04825 0.14644 0.38228 0.0
C142 C 0.02755 0.19092 0.34702 0.0
C143 C 0.10948 0.27105 0.37561 0.0
C144 C 0.09498 0.213 0.38955 0.0
C145 C 0.07443 0.26013 0.35427 0.0
H146 H 0.97911 0.08097 0.35592 0.0
H147 H 0.12034 0.22114 0.40629 0.0
O148 O 0.9834 0.9252 0.43497 0.0
O149 O 0.08552 0.02234 0.39709 0.0
O150 O 0.92926 0.98489 0.39604 0.0
O151 O 0.0288 0.08249 0.43555 0.0
H152 H 0.05728 0.8607 0.44125 0.0
H153 H 0.84814 0.83295 0.44212 0.0
H154 H 1.00628 0.73419 0.45125 0.0
H155 H 0.80075 0.70692 0.45192 0.0
H156 H 0.28579 0.23193 0.40985 0.0
H157 H 0.15787 0.01938 0.36094 0.0
H158 H 0.16435 0.14068 0.42067 0.0
H159 H 0.27967 0.11307 0.3511 0.0
H160 H 0.02319 0.74589 0.36999 0.0
H161 H 0.87435 0.78307 0.33215 0.0
H162 H 0.21429 0.12139 0.50185 0.0
H163 H 0.26115 0.98175 0.46261 0.0
H164 H 0.86349 0.04569 0.37644 0.0
H165 H 0.83697 0.84928 0.40235 0.0
H166 H 0.73614 0.98439 0.36647 0.0
H167 H 0.70991 0.79159 0.39223 0.0
H168 H 0.91882 0.08502 0.41694 0.0
H169 H 0.0932 0.19073 0.46437 0.0
H170 H 0.88369 0.1739 0.42574 0.0
H171 H 0.05499 0.27793 0.47238 0.0
H172 H 0.84675 0.94689 0.50943 0.0
H173 H 0.70646 0.95027 0.45732 0.0
H174 H 0.99997 0.18084 0.33058 0.0
H175 H 0.14616 0.32389 0.38161 0.0
Li176 Li 0.06317 0.99048 0.73445 0.0
Li177 Li 0.07012 0.07332 0.7629 0.0
Li178 Li 0.97358 0.94446 0.76503 0.0
Li179 Li 0.97793 0.02928 0.73427 0.0
C180 C 0.12354 0.96196 0.77013 0.0
N181 N 0.21642 0.91109 0.77312 0.0
C182 C 0.1937 1.00394 0.76317 0.0
C183 C 0.10066 0.89397 0.77859 0.0
C184 C 0.23979 0.97728 0.76478 0.0
C185 C 0.14844 0.8693 0.78001 0.0
C186 C 0.13593 0.15482 0.72863 0.0
C187 C 0.18224 0.27995 0.73349 0.0
N188 N 0.24857 0.2914 0.72992 0.0
C189 C 0.20467 0.16795 0.725 0.0
C190 C 0.12467 0.21137 0.73286 0.0
C191 C 0.26083 0.23731 0.72569 0.0
C192 C 0.14366 1.00528 0.69463 0.0
N193 N 0.11451 0.96326 0.71351 0.0
C194 C 0.16252 0.89053 0.70203 0.0
C195 C 0.12096 0.90505 0.71692 0.0
C196 C 0.19673 0.93597 0.68336 0.0
C197 C 0.18567 0.99286 0.67936 0.0
H198 H 0.13524 0.0493 0.69164 0.0
H199 H 0.09471 0.8703 0.73135 0.0
C200 C 0.09748 0.17628 0.79758 0.0
N201 N 0.12877 0.15077 0.78317 0.0
C202 C 0.13755 0.22827 0.81398 0.0
C203 C 0.24151 0.22768 0.80019 0.0
C204 C 0.19951 0.17578 0.78411 0.0
C205 C 0.21022 0.25347 0.81557 0.0
H206 H 0.04107 0.15477 0.79688 0.0
H207 H 0.22334 0.1545 0.77277 0.0
C208 C 0.95194 0.88082 0.716 0.0
N209 N 0.94485 0.78234 0.68454 0.0
C210 C 0.95639 0.89496 0.69221 0.0
C211 C 0.94325 0.81648 0.72382 0.0
C212 C 0.95295 0.84453 0.67657 0.0
C213 C 0.93985 0.76736 0.70762 0.0
C214 C 0.91265 0.04648 0.76909 0.0
C215 C 0.84391 0.99196 0.7733 0.0
C216 C 0.92476 0.11443 0.76452 0.0
C217 C 0.7883 0.00611 0.77254 0.0
C218 C 0.86776 0.12645 0.76388 0.0
N219 N 0.80126 0.07247 0.76784 0.0
C220 C 0.9408 0.8706 0.80733 0.0
C221 C 0.84845 0.82116 0.77951 0.0
C222 C 0.89771 0.82152 0.82395 0.0
N223 N 0.91542 0.86995 0.78571 0.0
C224 C 0.80286 0.77234 0.7958 0.0
C225 C 0.82715 0.77322 0.81845 0.0
H226 H 0.99402 0.91056 0.81186 0.0
H227 H 0.82956 0.8223 0.76222 0.0
C228 C 0.94318 0.10784 0.70223 0.0
N229 N 0.9178 0.04719 0.71474 0.0
C230 C 0.89869 0.11805 0.68722 0.0
C231 C 0.80304 1.00314 0.69819 0.0
C232 C 0.84921 0.99526 0.71302 0.0
C233 C 0.82801 0.06481 0.68495 0.0
H234 H 0.99816 0.14766 0.70352 0.0
H235 H 0.83071 0.94724 0.72295 0.0
O236 O 0.07753 0.98713 0.7687 0.0
O237 O 0.08015 0.08708 0.72835 0.0
O238 O 0.95728 0.93027 0.73159 0.0
O239 O 0.96754 0.03312 0.76896 0.0
H240 H 0.21205 0.05586 0.75606 0.0
H241 H 0.04642 0.86014 0.7837 0.0
H242 H 0.29404 0.00905 0.75926 0.0
H243 H 0.13135 0.81675 0.78646 0.0
H244 H 0.17418 0.32405 0.73689 0.0
H245 H 0.21497 0.12517 0.72204 0.0
H246 H 0.07218 0.20249 0.73589 0.0
H247 H 0.31424 0.24808 0.72301 0.0
H248 H 0.16937 0.84556 0.70533 0.0
H249 H 0.21066 0.02825 0.66486 0.0
H250 H 0.11193 0.24687 0.8258 0.0
H251 H 0.29749 0.24591 0.80114 0.0
H252 H 0.9633 0.94471 0.68594 0.0
H253 H 0.94018 0.80505 0.74221 0.0
H254 H 0.9569 0.8549 0.65811 0.0
H255 H 0.93361 0.7175 0.71341 0.0
H256 H 0.83342 0.93916 0.7769 0.0
H257 H 0.9775 0.15735 0.76131 0.0
H258 H 0.73481 0.96426 0.77562 0.0
H259 H 0.87639 0.17866 0.76017 0.0
H260 H 0.91798 0.82357 0.84129 0.0
H261 H 0.74862 0.73587 0.79104 0.0
H262 H 0.91944 0.16602 0.67708 0.0
H263 H 0.74875 0.96104 0.69669 0.0
Mg264 Mg 0.04182 0.52744 0.25194 0.0
C265 C 0.05951 0.45516 0.2914 0.0
O266 O 0.99466 0.44368 0.29278 0.0
C267 C 0.05962 0.62167 0.21487 0.0
O268 O 0.99151 0.57825 0.21694 0.0
C269 C 0.96689 0.37831 0.2318 0.0
O270 O 0.98505 0.3632 0.25177 0.0
O271 O 0.97622 0.43989 0.22851 0.0
O272 O 0.09883 0.49438 0.27513 0.0
O273 O 0.99729 0.57422 0.27459 0.0
C274 C 0.9366 0.55258 0.28324 0.0
O275 O 0.88402 0.48971 0.27801 0.0
O276 O 0.10198 0.6138 0.22807 0.0
Mg277 Mg 0.51226 1.00522 0.5837 0.0
C278 C 0.41929 0.02223 0.55248 0.0
O279 O 0.39365 0.95398 0.55475 0.0
C280 C 0.61138 0.03185 0.62231 0.0
O281 O 0.56222 0.96595 0.62556 0.0
C282 C 0.4105 0.97248 0.62029 0.0
O283 O 0.45118 0.04139 0.62041 0.0
O284 O 0.42403 0.93637 0.60605 0.0
O285 O 0.47428 0.0643 0.5639 0.0
O286 O 0.54431 0.95782 0.55668 0.0
C287 C 0.58731 0.93561 0.56005 0.0
O288 O 0.60514 0.9294 0.58132 0.0
O289 O 0.60461 0.06653 0.60572 0.0
Mg290 Mg 0.50793 0.52254 0.91905 0.0
C291 C 0.40881 0.42925 0.885 0.0
O292 O 0.44719 0.4009 0.89099 0.0
C293 C 0.58742 0.62648 0.95338 0.0
O294 O 0.61754 0.58796 0.95053 0.0
C295 C 0.4134 0.41785 0.95124 0.0
O296 O 0.37965 0.44829 0.94255 0.0
O297 O 0.47519 0.43693 0.94386 0.0
O298 O 0.42111 0.48677 0.89452 0.0
O299 O 0.60166 0.55474 0.89809 0.0
C300 C 0.61076 0.60477 0.88464 0.0
O301 O 0.56537 0.62748 0.88537 0.0
O302 O 0.53321 0.61241 0.94126 0.0
C303 C 0.02234 0.29047 0.18651 0.0
C304 C 0.95717 0.24527 0.17535 0.0
C305 C 0.89684 0.28773 0.20114 0.0
C306 C 0.96272 0.33537 0.21138 0.0
N307 N 0.08991 0.39351 0.21058 0.0
N308 N 0.83429 0.20732 0.16932 0.0
C309 C 0.02601 0.34017 0.20306 0.0
C310 C 0.89482 0.24579 0.18187 0.0
N311 N 0.08023 0.28397 0.18199 0.0
N312 N 0.83631 0.28139 0.21024 0.0
H313 H 0.83111 0.17568 0.1553 0.0
H314 H 0.78881 0.21054 0.17165 0.0
H315 H 0.83657 0.31291 0.22388 0.0
H316 H 0.78593 0.24245 0.20529 0.0
H317 H 0.12676 0.30949 0.1916 0.0
H318 H 0.08013 0.24841 0.16992 0.0
H319 H 0.13781 0.40444 0.20326 0.0
H320 H 0.0951 0.43126 0.22269 0.0
C321 C 0.72387 0.00571 0.51178 0.0
C322 C 0.72095 0.94262 0.50417 0.0
C323 C 0.62562 0.87363 0.53188 0.0
C324 C 0.63188 0.93722 0.54048 0.0
N325 N 0.69324 0.06468 0.54123 0.0
N326 N 0.67452 0.81734 0.50777 0.0
C327 C 0.68242 1.00352 0.53105 0.0
C328 C 0.6733 0.8767 0.51446 0.0
N329 N 0.76599 0.06782 0.50043 0.0
N330 N 0.57269 0.81041 0.53991 0.0
H331 H 0.70648 0.81721 0.49438 0.0
H332 H 0.64702 0.76901 0.51623 0.0
H333 H 0.53757 0.80667 0.55281 0.0
H334 H 0.56025 0.76181 0.53283 0.0
H335 H 0.76358 0.11365 0.50305 0.0
H336 H 0.80055 0.07287 0.48716 0.0
H337 H 0.73522 0.11434 0.53716 0.0
H338 H 0.66352 0.06602 0.55513 0.0
C339 C 0.76206 0.76012 0.85575 0.0
C340 C 0.77717 0.72805 0.83687 0.0
C341 C 0.68686 0.61117 0.85076 0.0
C342 C 0.67475 0.64362 0.87015 0.0
N343 N 0.7161 0.74557 0.89475 0.0
N344 N 0.76577 0.62268 0.81936 0.0
C345 C 0.7175 0.71709 0.8738 0.0
C346 C 0.74326 0.65329 0.8353 0.0
N347 N 0.78657 0.83114 0.85584 0.0
N348 N 0.64265 0.54108 0.84648 0.0
H349 H 0.80747 0.65204 0.80802 0.0
H350 H 0.74756 0.56868 0.81884 0.0
H351 H 0.60156 0.50853 0.85759 0.0
H352 H 0.64381 0.51635 0.83118 0.0
H353 H 0.7709 0.85563 0.86808 0.0
H354 H 0.81659 0.86471 0.84244 0.0
H355 H 0.75067 0.79803 0.89915 0.0
H356 H 0.68591 0.71452 0.90861 0.0
C357 C 0.07252 0.70871 0.15746 0.0
C358 C 0.08679 0.77644 0.1649 0.0
C359 C 0.10012 0.74781 0.2051 0.0
C360 C 0.08395 0.6795 0.19773 0.0
N361 N 0.07256 0.60042 0.16695 0.0
N362 N 0.13141 0.86722 0.19414 0.0
C363 C 0.07632 0.66199 0.17384 0.0
C364 C 0.10655 0.79825 0.18823 0.0
N365 N 0.05165 0.68775 0.13508 0.0
N366 N 0.10513 0.76298 0.22829 0.0
H367 H 0.1364 0.90516 0.18211 0.0
H368 H 0.15272 0.88816 0.21035 0.0
H369 H 0.10291 0.72805 0.24105 0.0
H370 H 0.10776 0.80843 0.23498 0.0
H371 H 0.03245 0.63632 0.12924 0.0
H372 H 0.04955 0.72095 0.12248 0.0
H373 H 0.07309 0.58688 0.14966 0.0
H374 H 0.07549 0.56562 0.17872 0.0
C375 C 0.36621 0.08744 0.49907 0.0
C376 C 0.29261 0.05542 0.50333 0.0
C377 C 0.31129 0.02728 0.54296 0.0
C378 C 0.38163 0.04721 0.53725 0.0
N379 N 0.47689 0.09408 0.50962 0.0
N380 N 0.19329 0.9868 0.52865 0.0
C381 C 0.40982 0.07771 0.51533 0.0
C382 C 0.26463 0.02384 0.52521 0.0
N383 N 0.39437 0.1278 0.47966 0.0
N384 N 0.28951 0.01224 0.56549 0.0
H385 H 0.15671 0.98077 0.51593 0.0
H386 H 0.17013 0.9565 0.54342 0.0
H387 H 0.32383 0.01687 0.57888 0.0
H388 H 0.24048 1.00311 0.57119 0.0
H389 H 0.4484 0.15787 0.47666 0.0
H390 H 0.36385 0.1363 0.46754 0.0
H391 H 0.49747 0.10839 0.49294 0.0
H392 H 0.51082 0.08942 0.52131 0.0
C393 C 0.25104 0.2757 0.85703 0.0
C394 C 0.2532 0.30256 0.83442 0.0
C395 C 0.35235 0.41764 0.8459 0.0
C396 C 0.34962 0.39076 0.86854 0.0
N397 N 0.28624 0.30155 0.89741 0.0
N398 N 0.29435 0.40184 0.80855 0.0
C399 C 0.29551 0.32204 0.87464 0.0
C400 C 0.30013 0.37465 0.82928 0.0
N401 N 0.20915 0.20519 0.86139 0.0
N402 N 0.40701 0.48248 0.83989 0.0
H403 H 0.25693 0.37138 0.79601 0.0
H404 H 0.3223 0.45539 0.80457 0.0
H405 H 0.4456 0.51579 0.85166 0.0
H406 H 0.41674 0.50156 0.82294 0.0
H407 H 0.21175 0.18111 0.87667 0.0
H408 H 0.17512 0.16937 0.84908 0.0
H409 H 0.24357 0.25473 0.90335 0.0
H410 H 0.31764 0.33466 0.91074 0.0
C411 C 0.72714 0.08518 0.676 0.0
C412 C 0.78039 0.07144 0.66795 0.0
C413 C 0.73587 0.05991 0.62813 0.0
C414 C 0.67602 0.06127 0.63681 0.0
N415 N 0.6152 0.07985 0.66827 0.0
N416 N 0.83457 0.04233 0.63664 0.0
C417 C 0.67225 0.07609 0.66054 0.0
C418 C 0.78531 0.05906 0.644 0.0
N419 N 0.72975 0.1075 0.69833 0.0
N420 N 0.74512 0.05912 0.60471 0.0
H421 H 0.87205 0.04146 0.64764 0.0
H422 H 0.83536 0.02437 0.61997 0.0
H423 H 0.70999 0.06034 0.59275 0.0
H424 H 0.7907 0.06446 0.59713 0.0
H425 H 0.69612 0.12405 0.70489 0.0
H426 H 0.76944 0.11461 0.70997 0.0
H427 H 0.60397 0.08165 0.68571 0.0
H428 H 0.57768 0.07938 0.65692 0.0
C429 C 0.66219 0.70456 1.0118 0.0
C430 C 0.70039 0.77734 1.00618 0.0
C431 C 0.64751 0.75258 0.96723 0.0
C432 C 0.61338 0.6794 0.97235 0.0
N433 N 0.57117 0.58659 1.00077 0.0
N434 N 0.71833 0.8732 0.98124 0.0
C435 C 0.61516 0.65582 0.99515 0.0
C436 C 0.68899 0.8022 0.98475 0.0
N437 N 0.67342 0.68192 0.03269 0.0
N438 N 0.64325 0.77419 0.94532 0.0
H439 H 0.74984 0.91048 0.99365 0.0
H440 H 0.70769 0.89532 0.96689 0.0
H441 H 0.61026 0.73953 0.93258 0.0
H442 H 0.67367 0.82577 0.93942 0.0
H443 H 0.65432 0.62913 0.03681 0.0
H444 H 0.70493 0.71643 0.04574 0.0
H445 H 0.56464 0.56665 0.01755 0.0
H446 H 0.53619 0.5499 0.98883 0.0
C447 C 0.96199 0.72275 0.3087 0.0
C448 C 0.93732 0.70214 0.33175 0.0
C449 C 0.90729 0.58052 0.32282 0.0
C450 C 0.92759 0.60038 0.29937 0.0
N451 N 0.95746 0.68599 0.26879 0.0
N452 N 0.87211 0.60886 0.35931 0.0
C453 C 0.94954 0.67019 0.29195 0.0
C454 C 0.90535 0.63011 0.33835 0.0
N455 N 1.00055 0.79268 0.30305 0.0
N456 N 0.89401 0.51605 0.33068 0.0
H457 H 0.86931 0.64364 0.37106 0.0
H458 H 0.84182 0.55604 0.36408 0.0
H459 H 0.89556 0.47835 0.32003 0.0
H460 H 0.88724 0.50219 0.34817 0.0
H461 H 0.02632 0.81063 0.2872 0.0
H462 H 0.01263 0.83316 0.3149 0.0
H463 H 0.96699 0.73432 0.26219 0.0
H464 H 0.94722 0.64831 0.25599 0.0
C465 C 0.22732 0.89979 0.64577 0.0
C466 C 0.24736 0.92722 0.66857 0.0
C467 C 0.36815 0.95355 0.66099 0.0
C468 C 0.35148 0.93993 0.63713 0.0
N469 N 0.26485 0.89509 0.60647 0.0
N470 N 0.33685 0.98104 0.69827 0.0
C471 C 0.28056 0.91007 0.62946 0.0
C472 C 0.31756 0.95314 0.67646 0.0
N473 N 0.15745 0.8642 0.63986 0.0
N474 N 0.43253 0.96631 0.66874 0.0
H475 H 0.30121 0.98087 0.7103 0.0
H476 H 0.38897 0.00841 0.70399 0.0
H477 H 0.46913 0.9643 0.65764 0.0
H478 H 0.44653 0.97114 0.68621 0.0
H479 H 0.13831 0.83761 0.6242 0.0
H480 H 0.11773 0.85633 0.65153 0.0
H481 H 0.21615 0.8816 0.59917 0.0
H482 H 0.30187 0.89882 0.59436 0.0
C483 C 0.30319 0.33464 1.00461 0.0
C484 C 0.29657 0.26671 1.00459 0.0
C485 C 0.37062 0.29817 0.9697 0.0
C486 C 0.38088 0.36753 0.97078 0.0
N487 N 0.37367 0.45681 0.99329 0.0
N488 N 0.33696 0.18927 0.99041 0.0
C489 C 0.35255 0.38733 0.98956 0.0
C490 C 0.33454 0.2502 0.98816 0.0
N491 N 0.25952 0.34801 0.01794 0.0
N492 N 0.39151 0.27659 0.95055 0.0
H493 H 0.31183 0.15349 1.00389 0.0
H494 H 0.36924 0.17763 0.98028 0.0
H495 H 0.41713 0.30956 0.93651 0.0
H496 H 0.37815 0.22434 0.94773 0.0
H497 H 0.25736 0.39441 0.01661 0.0
H498 H 0.22028 0.31032 0.02856 0.0
H499 H 0.35997 0.47462 1.00809 0.0
H500 H 0.41096 0.49738 0.98294 0.0
C501 C 0.0578 0.36453 0.34689 0.0
C502 C 0.08468 0.32056 0.3396 0.0
C503 C 0.10896 0.37474 0.30092 0.0
C504 C 0.08245 0.41915 0.30833 0.0
N505 N 0.0545 0.47217 0.34019 0.0
N506 N 0.15435 0.29802 0.31232 0.0
C507 C 0.06463 0.41928 0.33199 0.0
C508 C 0.11654 0.33055 0.31746 0.0
N509 N 0.02188 0.35152 0.36736 0.0
N510 N 0.12254 0.3708 0.27799 0.0
H511 H 0.16115 0.26571 0.32415 0.0
H512 H 0.18459 0.3086 0.29734 0.0
H513 H 0.1193 0.40253 0.26516 0.0
H514 H 0.1327 0.33245 0.27138 0.0
H515 H 0.99435 0.37698 0.37217 0.0
H516 H 0.01423 0.31111 0.37868 0.0
H517 H 0.04735 0.47851 0.35772 0.0
H518 H 0.06103 0.5141 0.32977 0.0
loop_
_geom_bond_atom_site_label_1
_geom_bond_atom_site_label_2
_geom_bond_distance
_geom_bond_site_symmetry_2
_ccdc_geom_bond_type
Li0 N17 1.990 . S
Li0 O60 1.956 . S
Li0 O61 1.970 1_455 S
Li0 O62 1.961 1_545 S
Li1 N25 1.990 . S
Li1 O60 1.970 1_655 S
Li1 O61 1.956 . S
Li1 O63 1.961 1_545 S
Li2 N47 1.990 . S
Li2 O60 1.961 1_565 S
Li2 O62 1.956 . S
Li2 O63 1.970 1_455 S
Li3 N53 1.990 . S
Li3 O61 1.961 1_565 S
Li3 O62 1.970 1_655 S
Li3 O63 1.956 . S
C4 C6 1.348 . S
C4 C7 1.356 . S
C4 O60 1.325 . S
N5 C8 1.314 . S
N5 C9 1.279 . S
C6 C4 1.348 . S
C6 C8 1.353 . S
C6 H64 0.929 . S
C7 C4 1.356 . S
C7 C9 1.358 . S
C7 H65 0.930 . S
C8 N5 1.314 . S
C8 C6 1.353 . S
C8 H66 0.930 . S
C9 N5 1.279 . S
C9 C7 1.358 . S
C9 H67 0.930 . S
C10 C13 1.348 1_655 S
C10 C14 1.356 . S
C10 O61 1.325 . S
C11 N12 1.279 . S
C11 C14 1.358 . S
C11 H68 0.930 . S
N12 C11 1.279 . S
N12 C15 1.314 . S
C13 C10 1.348 1_455 S
C13 C15 1.353 1_455 S
C13 H69 0.929 . S
C14 C10 1.356 . S
C14 C11 1.358 . S
C14 H70 0.930 . S
C15 N12 1.314 . S
C15 C13 1.353 1_655 S
C15 H71 0.930 1_655 S
C16 N17 1.314 . S
C16 C21 1.353 . S
C16 H22 0.930 . S
N17 Li0 1.990 . S
N17 C16 1.314 . S
N17 C19 1.279 . S
C18 C19 1.358 . S
C18 C20 1.356 . S
C18 H72 0.930 . S
C19 N17 1.279 . S
C19 C18 1.358 . S
C19 H23 0.930 . S
C20 C18 1.356 . S
C20 C21 1.348 . S
C21 C16 1.353 . S
C21 C20 1.348 . S
C21 H73 0.929 1_554 S
H22 C16 0.930 . S
H23 C19 0.930 . S
C24 N25 1.314 . S
C24 C26 1.353 . S
C24 H30 0.930 . S
N25 Li1 1.990 . S
N25 C24 1.314 . S
N25 C28 1.279 . S
C26 C24 1.353 . S
C26 C29 1.348 . S
C26 H74 0.929 . S
C27 C28 1.358 . S
C27 C29 1.356 . S
C27 H75 0.930 . S
C28 N25 1.279 . S
C28 C27 1.358 . S
C28 H31 0.930 . S
C29 C26 1.348 . S
C29 C27 1.356 . S
H30 C24 0.930 . S
H31 C28 0.930 . S
C32 C34 1.348 1_455 S
C32 C35 1.356 . S
C32 O62 1.325 . S
N33 C36 1.314 . S
N33 C37 1.279 . S
C34 C32 1.348 1_655 S
C34 C36 1.353 1_655 S
C34 H76 0.929 . S
C35 C32 1.356 . S
C35 C37 1.358 . S
C35 H77 0.930 . S
C36 N33 1.314 . S
C36 C34 1.353 1_455 S
C36 H78 0.930 1_455 S
C37 N33 1.279 . S
C37 C35 1.358 . S
C37 H79 0.930 . S
C38 C39 1.348 . S
C38 C40 1.356 . S
C38 O63 1.325 . S
C39 C38 1.348 . S
C39 C41 1.353 . S
C39 H80 0.929 . S
C40 C38 1.356 . S
C40 C42 1.358 . S
C40 H81 0.930 . S
C41 C39 1.353 . S
C41 N43 1.314 . S
C41 H82 0.930 . S
C42 C40 1.358 . S
C42 N43 1.279 . S
C42 H83 0.930 . S
N43 C41 1.314 . S
N43 C42 1.279 . S
C44 C46 1.353 . S
C44 N47 1.314 . S
C44 H50 0.930 . S
C45 N47 1.279 . S
C45 C48 1.358 . S
C45 H51 0.930 . S
C46 C44 1.353 . S
C46 C49 1.348 . S
C46 H84 0.929 . S
N47 Li2 1.990 . S
N47 C44 1.314 . S
N47 C45 1.279 . S
C48 C45 1.358 . S
C48 C49 1.356 . S
C48 H85 0.930 . S
C49 C46 1.348 . S
C49 C48 1.356 . S
H50 C44 0.930 . S
H51 C45 0.930 . S
C52 N53 1.314 . S
C52 C54 1.353 . S
C52 H58 0.930 . S
N53 Li3 1.990 . S
N53 C52 1.314 . S
N53 C56 1.279 . S
C54 C52 1.353 . S
C54 C57 1.348 . S
C54 H86 0.929 1_554 S
C55 C56 1.358 . S
C55 C57 1.356 . S
C55 H87 0.930 . S
C56 N53 1.279 . S
C56 C55 1.358 . S
C56 H59 0.930 . S
C57 C54 1.348 . S
C57 C55 1.356 . S
H58 C52 0.930 . S
H59 C56 0.930 . S
O60 Li0 1.956 . S
O60 Li1 1.970 1_455 S
O60 Li2 1.961 1_545 S
O60 C4 1.325 . S
O61 Li0 1.970 1_655 S
O61 Li1 1.956 . S
O61 Li3 1.961 1_545 S
O61 C10 1.325 . S
O62 Li0 1.961 1_565 S
O62 Li2 1.956 . S
O62 Li3 1.970 1_455 S
O62 C32 1.325 . S
O63 Li1 1.961 1_565 S
O63 Li2 1.970 1_655 S
O63 Li3 1.956 . S
O63 C38 1.325 . S
H64 C6 0.929 . S
H65 C7 0.930 . S
H66 C8 0.930 . S
H67 C9 0.930 . S
H68 C11 0.930 . S
H69 C13 0.929 . S
H70 C14 0.930 . S
H71 C15 0.930 1_455 S
H72 C18 0.930 . S
H73 C21 0.929 1_556 S
H74 C26 0.929 . S
H75 C27 0.930 . S
H76 C34 0.929 . S
H77 C35 0.930 . S
H78 C36 0.930 1_655 S
H79 C37 0.930 . S
H80 C39 0.929 . S
H81 C40 0.930 . S
H82 C41 0.930 . S
H83 C42 0.930 . S
H84 C46 0.929 . S
H85 C48 0.930 . S
H86 C54 0.929 1_556 S
H87 C55 0.930 . S
Li88 N105 1.990 . S
Li88 O148 1.956 . S
Li88 O149 1.970 1_665 S
Li88 O150 1.961 . S
Li89 N113 1.990 . S
Li89 O148 1.970 1_445 S
Li89 O149 1.956 . S
Li89 O151 1.961 . S
Li90 N135 1.990 . S
Li90 O148 1.961 . S
Li90 O150 1.956 . S
Li90 O151 1.970 1_665 S
Li91 N141 1.990 . S
Li91 O149 1.961 . S
Li91 O150 1.970 1_445 S
Li91 O151 1.956 . S
C92 C94 1.348 1_655 S
C92 C95 1.356 . S
C92 O148 1.325 . S
N93 C96 1.314 . S
N93 C97 1.279 . S
C94 C92 1.348 1_455 S
C94 C96 1.353 1_455 S
C94 H152 0.929 . S
C95 C92 1.356 . S
C95 C97 1.358 . S
C95 H153 0.930 . S
C96 N93 1.314 . S
C96 C94 1.353 1_655 S
C96 H154 0.930 1_655 S
C97 N93 1.279 . S
C97 C95 1.358 . S
C97 H155 0.930 . S
C98 C101 1.348 1_545 S
C98 C102 1.356 . S
C98 O149 1.325 . S
C99 N100 1.279 . S
C99 C102 1.358 . S
C99 H156 0.930 . S
N100 C99 1.279 . S
N100 C103 1.314 . S
C101 C98 1.348 1_565 S
C101 C103 1.353 1_565 S
C101 H157 0.929 . S
C102 C98 1.356 . S
C102 C99 1.358 . S
C102 H158 0.930 . S
C103 N100 1.314 . S
C103 C101 1.353 1_545 S
C103 H159 0.930 1_545 S
C104 N105 1.314 . S
C104 C109 1.353 . S
C104 H110 0.930 . S
N105 Li88 1.990 . S
N105 C104 1.314 . S
N105 C107 1.279 . S
C106 C107 1.358 . S
C106 C108 1.356 . S
C106 H160 0.930 . S
C107 N105 1.279 . S
C107 C106 1.358 . S
C107 H111 0.930 . S
C108 C106 1.356 . S
C108 C109 1.348 . S
C109 C104 1.353 . S
C109 C108 1.348 . S
C109 H161 0.929 . S
H110 C104 0.930 . S
H111 C107 0.930 . S
C112 N113 1.314 . S
C112 C114 1.353 . S
C112 H118 0.930 . S
N113 Li89 1.990 . S
N113 C112 1.314 . S
N113 C116 1.279 . S
C114 C112 1.353 . S
C114 C117 1.348 . S
C114 H162 0.929 . S
C115 C116 1.358 . S
C115 C117 1.356 . S
C115 H163 0.930 . S
C116 N113 1.279 . S
C116 C115 1.358 . S
C116 H119 0.930 . S
C117 C114 1.348 . S
C117 C115 1.356 . S
H118 C112 0.930 . S
H119 C116 0.930 . S
C120 C122 1.348 1_565 S
C120 C123 1.356 . S
C120 O150 1.325 . S
N121 C124 1.314 . S
N121 C125 1.279 . S
C122 C120 1.348 1_545 S
C122 C124 1.353 1_545 S
C122 H164 0.929 . S
C123 C120 1.356 . S
C123 C125 1.358 . S
C123 H165 0.930 . S
C124 N121 1.314 . S
C124 C122 1.353 1_565 S
C124 H166 0.930 1_565 S
C125 N121 1.279 . S
C125 C123 1.358 . S
C125 H167 0.930 . S
C126 C127 1.348 1_455 S
C126 C128 1.356 . S
C126 O151 1.325 . S
C127 C126 1.348 1_655 S
C127 C129 1.353 1_655 S
C127 H168 0.929 . S
C128 C126 1.356 . S
C128 C130 1.358 . S
C128 H169 0.930 . S
C129 C127 1.353 1_455 S
C129 N131 1.314 . S
C129 H170 0.930 1_455 S
C130 C128 1.358 . S
C130 N131 1.279 . S
C130 H171 0.930 . S
N131 C129 1.314 . S
N131 C130 1.279 . S
C132 C134 1.353 . S
C132 N135 1.314 . S
C132 H138 0.930 . S
C133 N135 1.279 . S
C133 C136 1.358 . S
C133 H139 0.930 . S
C134 C132 1.353 . S
C134 C137 1.348 . S
C134 H172 0.929 . S
N135 Li90 1.990 . S
N135 C132 1.314 . S
N135 C133 1.279 . S
C136 C133 1.358 . S
C136 C137 1.356 . S
C136 H173 0.930 . S
C137 C134 1.348 . S
C137 C136 1.356 . S
H138 C132 0.930 . S
H139 C133 0.930 . S
C140 N141 1.314 . S
C140 C142 1.353 . S
C140 H146 0.930 . S
N141 Li91 1.990 . S
N141 C140 1.314 . S
N141 C144 1.279 . S
C142 C140 1.353 . S
C142 C145 1.348 . S
C142 H174 0.929 . S
C143 C144 1.358 . S
C143 C145 1.356 . S
C143 H175 0.930 . S
C144 N141 1.279 . S
C144 C143 1.358 . S
C144 H147 0.930 . S
C145 C142 1.348 . S
C145 C143 1.356 . S
H146 C140 0.930 . S
H147 C144 0.930 . S
O148 Li88 1.956 . S
O148 Li89 1.970 1_665 S
O148 Li90 1.961 . S
O148 C92 1.325 . S
O149 Li88 1.970 1_445 S
O149 Li89 1.956 . S
O149 Li91 1.961 . S
O149 C98 1.325 . S
O150 Li88 1.961 . S
O150 Li90 1.956 . S
O150 Li91 1.970 1_665 S
O150 C120 1.325 . S
O151 Li89 1.961 . S
O151 Li90 1.970 1_445 S
O151 Li91 1.956 . S
O151 C126 1.325 . S
H152 C94 0.929 . S
H153 C95 0.930 . S
H154 C96 0.930 1_455 S
H155 C97 0.930 . S
H156 C99 0.930 . S
H157 C101 0.929 . S
H158 C102 0.930 . S
H159 C103 0.930 1_565 S
H160 C106 0.930 . S
H161 C109 0.929 . S
H162 C114 0.929 . S
H163 C115 0.930 . S
H164 C122 0.929 . S
H165 C123 0.930 . S
H166 C124 0.930 1_545 S
H167 C125 0.930 . S
H168 C127 0.929 . S
H169 C128 0.930 . S
H170 C129 0.930 1_655 S
H171 C130 0.930 . S
H172 C134 0.929 . S
H173 C136 0.930 . S
H174 C142 0.929 . S
H175 C143 0.930 . S
Li176 N193 1.990 . S
Li176 O236 1.956 . S
Li176 O237 1.970 1_565 S
Li176 O238 1.961 1_455 S
Li177 N201 1.990 . S
Li177 O236 1.970 1_545 S
Li177 O237 1.956 . S
Li177 O239 1.961 1_455 S
Li178 N223 1.990 . S
Li178 O236 1.961 1_655 S
Li178 O238 1.956 . S
Li178 O239 1.970 1_565 S
Li179 N229 1.990 . S
Li179 O237 1.961 1_655 S
Li179 O238 1.970 1_545 S
Li179 O239 1.956 . S
C180 C182 1.348 1_565 S
C180 C183 1.356 . S
C180 O236 1.325 . S
N181 C184 1.314 . S
N181 C185 1.279 . S
C182 C180 1.348 1_545 S
C182 C184 1.353 1_545 S
C182 H240 0.929 . S
C183 C180 1.356 . S
C183 C185 1.358 . S
C183 H241 0.930 . S
C184 N181 1.314 . S
C184 C182 1.353 1_565 S
C184 H242 0.930 1_565 S
C185 N181 1.279 . S
C185 C183 1.358 . S
C185 H243 0.930 . S
C186 C189 1.348 . S
C186 C190 1.356 . S
C186 O237 1.325 . S
C187 N188 1.279 . S
C187 C190 1.358 . S
C187 H244 0.930 . S
N188 C187 1.279 . S
N188 C191 1.314 . S
C189 C186 1.348 . S
C189 C191 1.353 . S
C189 H245 0.929 . S
C190 C186 1.356 . S
C190 C187 1.358 . S
C190 H246 0.930 . S
C191 N188 1.314 . S
C191 C189 1.353 . S
C191 H247 0.930 . S
C192 N193 1.314 . S
C192 C197 1.353 . S
C192 H198 0.930 . S
N193 Li176 1.990 . S
N193 C192 1.314 . S
N193 C195 1.279 . S
C194 C195 1.358 . S
C194 C196 1.356 . S
C194 H248 0.930 . S
C195 N193 1.279 . S
C195 C194 1.358 . S
C195 H199 0.930 . S
C196 C194 1.356 . S
C196 C197 1.348 . S
C197 C192 1.353 . S
C197 C196 1.348 . S
C197 H249 0.929 . S
H198 C192 0.930 . S
H199 C195 0.930 . S
C200 N201 1.314 . S
C200 C202 1.353 . S
C200 H206 0.930 . S
N201 Li177 1.990 . S
N201 C200 1.314 . S
N201 C204 1.279 . S
C202 C200 1.353 . S
C202 C205 1.348 . S
C202 H250 0.929 . S
C203 C204 1.358 . S
C203 C205 1.356 . S
C203 H251 0.930 . S
C204 N201 1.279 . S
C204 C203 1.358 . S
C204 H207 0.930 . S
C205 C202 1.348 . S
C205 C203 1.356 . S
H206 C200 0.930 . S
H207 C204 0.930 . S
C208 C210 1.348 . S
C208 C211 1.356 . S
C208 O238 1.325 . S
N209 C212 1.314 . S
N209 C213 1.279 . S
C210 C208 1.348 . S
C210 C212 1.353 . S
C210 H252 0.929 . S
C211 C208 1.356 . S
C211 C213 1.358 . S
C211 H253 0.930 . S
C212 N209 1.314 . S
C212 C210 1.353 . S
C212 H254 0.930 . S
C213 N209 1.279 . S
C213 C211 1.358 . S
C213 H255 0.930 . S
C214 C215 1.348 1_545 S
C214 C216 1.356 . S
C214 O239 1.325 . S
C215 C214 1.348 1_565 S
C215 C217 1.353 1_565 S
C215 H256 0.929 . S
C216 C214 1.356 . S
C216 C218 1.358 . S
C216 H257 0.930 . S
C217 C215 1.353 1_545 S
C217 N219 1.314 . S
C217 H258 0.930 1_545 S
C218 C216 1.358 . S
C218 N219 1.279 . S
C218 H259 0.930 . S
N219 C217 1.314 . S
N219 C218 1.279 . S
C220 C222 1.353 . S
C220 N223 1.314 . S
C220 H226 0.930 . S
C221 N223 1.279 . S
C221 C224 1.358 . S
C221 H227 0.930 . S
C222 C220 1.353 . S
C222 C225 1.348 . S
C222 H260 0.929 . S
N223 Li178 1.990 . S
N223 C220 1.314 . S
N223 C221 1.279 . S
C224 C221 1.358 . S
C224 C225 1.356 . S
C224 H261 0.930 . S
C225 C222 1.348 . S
C225 C224 1.356 . S
H226 C220 0.930 . S
H227 C221 0.930 . S
C228 N229 1.314 . S
C228 C230 1.353 . S
C228 H234 0.930 . S
N229 Li179 1.990 . S
N229 C228 1.314 . S
N229 C232 1.279 . S
C230 C228 1.353 . S
C230 C233 1.348 . S
C230 H262 0.929 . S
C231 C232 1.358 . S
C231 C233 1.356 . S
C231 H263 0.930 . S
C232 N229 1.279 . S
C232 C231 1.358 . S
C232 H235 0.930 . S
C233 C230 1.348 . S
C233 C231 1.356 . S
H234 C228 0.930 . S
H235 C232 0.930 . S
O236 Li176 1.956 . S
O236 Li177 1.970 1_565 S
O236 Li178 1.961 1_455 S
O236 C180 1.325 . S
O237 Li176 1.970 1_545 S
O237 Li177 1.956 . S
O237 Li179 1.961 1_455 S
O237 C186 1.325 . S
O238 Li176 1.961 1_655 S
O238 Li178 1.956 . S
O238 Li179 1.970 1_565 S
O238 C208 1.325 . S
O239 Li177 1.961 1_655 S
O239 Li178 1.970 1_545 S
O239 Li179 1.956 . S
O239 C214 1.325 . S
H240 C182 0.929 . S
H241 C183 0.930 . S
H242 C184 0.930 1_545 S
H243 C185 0.930 . S
H244 C187 0.930 . S
H245 C189 0.929 . S
H246 C190 0.930 . S
H247 C191 0.930 . S
H248 C194 0.930 . S
H249 C197 0.929 . S
H250 C202 0.929 . S
H251 C203 0.930 . S
H252 C210 0.929 . S
H253 C211 0.930 . S
H254 C212 0.930 . S
H255 C213 0.930 . S
H256 C215 0.929 . S
H257 C216 0.930 . S
H258 C217 0.930 1_565 S
H259 C218 0.930 . S
H260 C222 0.929 . S
H261 C224 0.930 . S
H262 C230 0.929 . S
H263 C231 0.930 . S
Mg264 O271 2.141 . S
Mg264 O272 2.048 . S
Mg264 O273 2.048 . S
Mg264 O276 2.141 . S
C265 O266 1.313 . S
C265 O272 1.195 1_655 S
O266 C265 1.313 . S
C267 O268 1.245 . S
C267 O276 1.289 1_655 S
O268 C267 1.245 . S
C269 O270 1.245 . S
C269 O271 1.289 1_655 S
O270 C269 1.245 . S
O271 Mg264 2.141 . S
O271 C269 1.289 1_455 S
O272 Mg264 2.048 . S
O272 C265 1.195 1_455 S
O273 Mg264 2.048 . S
O273 C274 1.195 1_455 S
C274 O273 1.195 1_655 S
C274 O275 1.313 . S
O275 C274 1.313 . S
O276 Mg264 2.141 . S
O276 C267 1.289 1_455 S
Mg277 O284 2.141 . S
Mg277 O285 2.048 . S
Mg277 O286 2.048 . S
Mg277 O289 2.141 . S
C278 O279 1.313 . S
C278 O285 1.195 1_565 S
O279 C278 1.313 . S
C280 O281 1.245 . S
C280 O289 1.289 1_565 S
O281 C280 1.245 . S
C282 O283 1.245 . S
C282 O284 1.289 1_565 S
O283 C282 1.245 . S
O284 Mg277 2.141 . S
O284 C282 1.289 1_545 S
O285 Mg277 2.048 . S
O285 C278 1.195 1_545 S
O286 Mg277 2.048 . S
O286 C287 1.195 1_545 S
C287 O286 1.195 1_565 S
C287 O288 1.313 . S
O288 C287 1.313 . S
O289 Mg277 2.141 . S
O289 C280 1.289 1_545 S
Mg290 O297 2.141 . S
Mg290 O298 2.048 . S
Mg290 O299 2.048 . S
Mg290 O302 2.141 . S
C291 O292 1.313 . S
C291 O298 1.195 . S
O292 C291 1.313 . S
C293 O294 1.245 . S
C293 O302 1.289 . S
O294 C293 1.245 . S
C295 O296 1.245 . S
C295 O297 1.289 . S
O296 C295 1.245 . S
O297 Mg290 2.141 . S
O297 C295 1.289 . S
O298 Mg290 2.048 . S
O298 C291 1.195 . S
O299 Mg290 2.048 . S
O299 C300 1.195 . S
C300 O299 1.195 . S
C300 O301 1.313 . S
O301 C300 1.313 . S
O302 Mg290 2.141 . S
O302 C293 1.289 . S
C303 C304 1.363 . S
C303 C309 1.379 1_655 S
C303 N311 1.356 . S
C304 C303 1.363 . S
C304 C310 1.363 . S
C305 C306 1.363 . S
C305 C310 1.379 . S
C305 N312 1.356 . S
C306 C305 1.363 . S
C306 C309 1.363 1_655 S
N307 C309 1.356 . S
N307 H319 0.984 . S
N307 H320 0.985 . S
N308 C310 1.356 . S
N308 H313 0.984 . S
N308 H314 0.985 . S
C309 C303 1.379 1_455 S
C309 C306 1.363 1_455 S
C309 N307 1.356 . S
C310 C304 1.363 . S
C310 C305 1.379 . S
C310 N308 1.356 . S
N311 C303 1.356 . S
N311 H317 0.984 1_655 S
N311 H318 0.984 . S
N312 C305 1.356 . S
N312 H315 0.984 . S
N312 H316 0.985 . S
H313 N308 0.984 . S
H314 N308 0.985 . S
H315 N312 0.984 . S
H316 N312 0.985 . S
H317 N311 0.984 1_455 S
H318 N311 0.984 . S
H319 N307 0.984 . S
H320 N307 0.985 . S
C321 C322 1.363 . S
C321 C327 1.379 1_565 S
C321 N329 1.356 1_565 S
C322 C321 1.363 . S
C322 C328 1.363 . S
C323 C324 1.363 . S
C323 C328 1.379 . S
C323 N330 1.356 . S
C324 C323 1.363 . S
C324 C327 1.363 1_565 S
N325 C327 1.356 . S
N325 H337 0.984 . S
N325 H338 0.985 . S
N326 C328 1.356 . S
N326 H331 0.984 . S
N326 H332 0.985 . S
C327 C321 1.379 1_545 S
C327 C324 1.363 1_545 S
C327 N325 1.356 . S
C328 C322 1.363 . S
C328 C323 1.379 . S
C328 N326 1.356 . S
N329 C321 1.356 1_545 S
N329 H335 0.984 . S
N329 H336 0.984 1_545 S
N330 C323 1.356 . S
N330 H333 0.984 . S
N330 H334 0.985 . S
H331 N326 0.984 . S
H332 N326 0.985 . S
H333 N330 0.984 . S
H334 N330 0.985 . S
H335 N329 0.984 . S
H336 N329 0.984 1_565 S
H337 N325 0.984 . S
H338 N325 0.985 . S
C339 C340 1.363 . S
C339 C345 1.379 . S
C339 N347 1.356 . S
C340 C339 1.363 . S
C340 C346 1.363 . S
C341 C342 1.363 . S
C341 C346 1.379 . S
C341 N348 1.356 . S
C342 C341 1.363 . S
C342 C345 1.363 . S
N343 C345 1.356 . S
N343 H355 0.984 . S
N343 H356 0.985 . S
N344 C346 1.356 . S
N344 H349 0.984 . S
N344 H350 0.985 . S
C345 C339 1.379 . S
C345 C342 1.363 . S
C345 N343 1.356 . S
C346 C340 1.363 . S
C346 C341 1.379 . S
C346 N344 1.356 . S
N347 C339 1.356 . S
N347 H353 0.984 . S
N347 H354 0.984 . S
N348 C341 1.356 . S
N348 H351 0.984 . S
N348 H352 0.985 . S
H349 N344 0.984 . S
H350 N344 0.985 . S
H351 N348 0.984 . S
H352 N348 0.985 . S
H353 N347 0.984 . S
H354 N347 0.984 . S
H355 N343 0.984 . S
H356 N343 0.985 . S
C357 C358 1.363 . S
C357 C363 1.379 1_455 S
C357 N365 1.356 1_455 S
C358 C357 1.363 . S
C358 C364 1.363 . S
C359 C360 1.363 . S
C359 C364 1.379 . S
C359 N366 1.356 . S
C360 C359 1.363 . S
C360 C363 1.363 1_455 S
N361 C363 1.356 . S
N361 H373 0.984 . S
N361 H374 0.985 . S
N362 C364 1.356 . S
N362 H367 0.984 . S
N362 H368 0.985 . S
C363 C357 1.379 1_655 S
C363 C360 1.363 1_655 S
C363 N361 1.356 . S
C364 C358 1.363 . S
C364 C359 1.379 . S
C364 N362 1.356 . S
N365 C357 1.356 1_655 S
N365 H371 0.984 . S
N365 H372 0.984 1_655 S
N366 C359 1.356 . S
N366 H369 0.984 . S
N366 H370 0.985 . S
H367 N362 0.984 . S
H368 N362 0.985 . S
H369 N366 0.984 . S
H370 N366 0.985 . S
H371 N365 0.984 . S
H372 N365 0.984 1_455 S
H373 N361 0.984 . S
H374 N361 0.985 . S
C375 C376 1.363 . S
C375 C381 1.379 . S
C375 N383 1.356 . S
C376 C375 1.363 . S
C376 C382 1.363 1_545 S
C377 C378 1.363 1_565 S
C377 C382 1.379 . S
C377 N384 1.356 . S
C378 C377 1.363 1_545 S
C378 C381 1.363 . S
N379 C381 1.356 . S
N379 H391 0.984 . S
N379 H392 0.985 . S
N380 C382 1.356 . S
N380 H385 0.992 . S
N380 H386 0.985 . S
C381 C375 1.379 . S
C381 C378 1.363 . S
C381 N379 1.356 . S
C382 C376 1.363 1_565 S
C382 C377 1.379 . S
C382 N380 1.356 . S
N383 C375 1.356 . S
N383 H389 0.984 . S
N383 H390 0.984 . S
N384 C377 1.356 . S
N384 H387 0.984 . S
N384 H388 0.985 . S
H385 N380 0.992 . S
H386 N380 0.985 . S
H387 N384 0.984 . S
H388 N384 0.985 . S
H389 N383 0.984 . S
H390 N383 0.984 . S
H391 N379 0.984 . S
H392 N379 0.985 . S
C393 C394 1.363 . S
C393 C399 1.379 . S
C393 N401 1.356 . S
C394 C393 1.363 . S
C394 C400 1.363 . S
C395 C396 1.363 . S
C395 C400 1.379 . S
C395 N402 1.356 . S
C396 C395 1.363 . S
C396 C399 1.363 . S
N397 C399 1.356 . S
N397 H409 0.984 . S
N397 H410 0.985 . S
N398 C400 1.356 . S
N398 H403 0.984 . S
N398 H404 0.985 . S
C399 C393 1.379 . S
C399 C396 1.363 . S
C399 N397 1.356 . S
C400 C394 1.363 . S
C400 C395 1.379 . S
C400 N398 1.356 . S
N401 C393 1.356 . S
N401 H407 0.984 . S
N401 H408 0.984 . S
N402 C395 1.356 . S
N402 H405 0.984 . S
N402 H406 0.985 . S
H403 N398 0.984 . S
H404 N398 0.985 . S
H405 N402 0.984 . S
H406 N402 0.985 . S
H407 N401 0.984 . S
H408 N401 0.984 . S
H409 N397 0.984 . S
H410 N397 0.985 . S
C411 C412 1.363 . S
C411 C417 1.379 . S
C411 N419 1.356 . S
C412 C411 1.363 . S
C412 C418 1.363 . S
C413 C414 1.363 1_565 S
C413 C418 1.379 1_565 S
C413 N420 1.356 . S
C414 C413 1.363 1_545 S
C414 C417 1.363 . S
N415 C417 1.356 . S
N415 H427 0.984 . S
N415 H428 0.985 . S
N416 C418 1.356 1_565 S
N416 H421 0.984 1_565 S
N416 H422 0.985 . S
C417 C411 1.379 . S
C417 C414 1.363 . S
C417 N415 1.356 . S
C418 C412 1.363 . S
C418 C413 1.379 1_545 S
C418 N416 1.356 1_545 S
N419 C411 1.356 . S
N419 H425 0.984 . S
N419 H426 0.984 . S
N420 C413 1.356 . S
N420 H423 0.984 . S
N420 H424 0.985 . S
H421 N416 0.984 1_545 S
H422 N416 0.985 . S
H423 N420 0.984 . S
H424 N420 0.985 . S
H425 N419 0.984 . S
H426 N419 0.984 . S
H427 N415 0.984 . S
H428 N415 0.985 . S
C429 C430 1.363 . S
C429 C435 1.379 . S
C429 N437 1.356 1_556 S
C430 C429 1.363 . S
C430 C436 1.363 . S
C431 C432 1.363 . S
C431 C436 1.379 . S
C431 N438 1.356 . S
C432 C431 1.363 . S
C432 C435 1.363 . S
N433 C435 1.356 . S
N433 H445 0.984 . S
N433 H446 0.985 . S
N434 C436 1.356 . S
N434 H439 0.984 . S
N434 H440 0.985 . S
C435 C429 1.379 . S
C435 C432 1.363 . S
C435 N433 1.356 . S
C436 C430 1.363 . S
C436 C431 1.379 . S
C436 N434 1.356 . S
N437 C429 1.356 1_554 S
N437 H443 0.984 . S
N437 H444 0.984 . S
N438 C431 1.356 . S
N438 H441 0.984 . S
N438 H442 0.985 . S
H439 N434 0.984 . S
H440 N434 0.985 . S
H441 N438 0.984 . S
H442 N438 0.985 . S
H443 N437 0.984 . S
H444 N437 0.984 . S
H445 N433 0.984 . S
H446 N433 0.985 . S
C447 C448 1.363 . S
C447 C453 1.379 1_655 S
C447 N455 1.356 1_655 S
C448 C447 1.363 . S
C448 C454 1.363 . S
C449 C450 1.363 . S
C449 C454 1.379 . S
C449 N456 1.356 . S
C450 C449 1.363 . S
C450 C453 1.363 1_655 S
N451 C453 1.356 . S
N451 H463 0.984 . S
N451 H464 0.985 . S
N452 C454 1.356 . S
N452 H457 0.984 . S
N452 H458 0.985 . S
C453 C447 1.379 1_455 S
C453 C450 1.363 1_455 S
C453 N451 1.356 . S
C454 C448 1.363 . S
C454 C449 1.379 . S
C454 N452 1.356 . S
N455 C447 1.356 1_455 S
N455 H461 0.984 . S
N455 H462 0.984 1_455 S
N456 C449 1.356 . S
N456 H459 0.984 . S
N456 H460 0.985 . S
H457 N452 0.984 . S
H458 N452 0.985 . S
H459 N456 0.984 . S
H460 N456 0.985 . S
H461 N455 0.984 . S
H462 N455 0.984 1_655 S
H463 N451 0.984 . S
H464 N451 0.985 . S
C465 C466 1.363 . S
C465 C471 1.379 . S
C465 N473 1.356 . S
C466 C465 1.363 . S
C466 C472 1.363 1_565 S
C467 C468 1.363 1_545 S
C467 C472 1.379 . S
C467 N474 1.356 . S
C468 C467 1.363 1_565 S
C468 C471 1.363 . S
N469 C471 1.356 . S
N469 H481 0.984 . S
N469 H482 0.985 . S
N470 C472 1.356 . S
N470 H475 0.984 1_545 S
N470 H476 0.985 . S
C471 C465 1.379 . S
C471 C468 1.363 . S
C471 N469 1.356 . S
C472 C466 1.363 1_545 S
C472 C467 1.379 . S
C472 N470 1.356 . S
N473 C465 1.356 . S
N473 H479 0.984 . S
N473 H480 0.984 . S
N474 C467 1.356 . S
N474 H477 0.984 . S
N474 H478 0.985 . S
H475 N470 0.984 1_565 S
H476 N470 0.985 . S
H477 N474 0.984 . S
H478 N474 0.985 . S
H479 N473 0.984 . S
H480 N473 0.984 . S
H481 N469 0.984 . S
H482 N469 0.985 . S
C483 C484 1.363 . S
C483 C489 1.379 . S
C483 N491 1.356 . S
C484 C483 1.363 . S
C484 C490 1.363 . S
C485 C486 1.363 . S
C485 C490 1.379 . S
C485 N492 1.356 . S
C486 C485 1.363 . S
C486 C489 1.363 . S
N487 C489 1.356 . S
N487 H499 0.984 . S
N487 H500 0.985 . S
N488 C490 1.356 . S
N488 H493 0.984 1_556 S
N488 H494 0.985 . S
C489 C483 1.379 . S
C489 C486 1.363 . S
C489 N487 1.356 . S
C490 C484 1.363 . S
C490 C485 1.379 . S
C490 N488 1.356 . S
N491 C483 1.356 . S
N491 H497 0.984 . S
N491 H498 0.984 1_556 S
N492 C485 1.356 . S
N492 H495 0.984 . S
N492 H496 0.985 . S
H493 N488 0.984 1_554 S
H494 N488 0.985 . S
H495 N492 0.984 . S
H496 N492 0.985 . S
H497 N491 0.984 . S
H498 N491 0.984 1_554 S
H499 N487 0.984 . S
H500 N487 0.985 . S
C501 C502 1.363 . S
C501 C507 1.379 . S
C501 N509 1.356 . S
C502 C501 1.363 . S
C502 C508 1.363 . S
C503 C504 1.363 . S
C503 C508 1.379 . S
C503 N510 1.356 . S
C504 C503 1.363 . S
C504 C507 1.363 . S
N505 C507 1.356 1_655 S
N505 H517 0.984 . S
N505 H518 0.985 . S
N506 C508 1.356 . S
N506 H511 0.984 . S
N506 H512 0.985 . S
C507 C501 1.379 . S
C507 C504 1.363 . S
C507 N505 1.356 1_455 S
C508 C502 1.363 . S
C508 C503 1.379 . S
C508 N506 1.356 . S
N509 C501 1.356 . S
N509 H515 0.984 . S
N509 H516 0.984 . S
N510 C503 1.356 . S
N510 H513 0.984 . S
N510 H514 0.985 . S
H511 N506 0.984 . S
H512 N506 0.985 . S
H513 N510 0.984 . S
H514 N510 0.985 . S
H515 N509 0.984 . S
H516 N509 0.984 . S
H517 N505 0.984 . S
H518 N505 0.985 . S
C306 C269 1.476 . S
C304 C29 1.482 . S
C322 C137 1.541 . S
C324 C287 1.546 . S
C340 C225 1.543 . S
C342 C300 1.549 . S
C358 C49 1.483 . S
C360 C267 1.541 1_455 S
C378 C278 1.592 1_545 S
C376 C117 1.539 . S
C394 C205 1.543 . S
C396 C291 1.593 . S
C414 C280 1.536 1_545 S
C412 C233 1.482 . S
C430 C57 1.483 1_556 S
C432 C293 1.540 . S
C450 C274 1.544 . S
C448 C108 1.542 . S
C468 C282 1.473 . S
C466 C196 1.479 . S
C486 C295 1.476 . S
C484 C20 1.481 1_556 S
C502 C145 1.540 . S
C504 C265 1.590 1_455 S
