# Generated by pormake.
# Topology ocu, (6,8)-cn, num edge types: 1
# Building blocks:
#     Node 0, Type 0, BuildingBlock: CUKXOW_clean_sbu_0, # of connection points: 6
#     Node 1, Type 0, BuildingBlock: CUKXOW_clean_sbu_0, # of connection points: 6
#     Node 2, Type 0, BuildingBlock: CUKXOW_clean_sbu_0, # of connection points: 6
#     Node 3, Type 0, BuildingBlock: CUKXOW_clean_sbu_0, # of connection points: 6
#     Node 4, Type 0, BuildingBlock: CUKXOW_clean_sbu_0, # of connection points: 6
#     Node 5, Type 0, BuildingBlock: CUKXOW_clean_sbu_0, # of connection points: 6
#     Node 6, Type 0, BuildingBlock: CUKXOW_clean_sbu_0, # of connection points: 6
#     Node 7, Type 0, BuildingBlock: CUKXOW_clean_sbu_0, # of connection points: 6
#     Node 8, Type 1, BuildingBlock: TAGTUT_clean_sbu_1, # of connection points: 8
#     Node 9, Type 1, BuildingBlock: TAGTUT_clean_sbu_1, # of connection points: 8
#     Node 10, Type 1, BuildingBlock: TAGTUT_clean_sbu_1, # of connection points: 8
#     Node 11, Type 1, BuildingBlock: TAGTUT_clean_sbu_1, # of connection points: 8
#     Node 12, Type 1, BuildingBlock: TAGTUT_clean_sbu_1, # of connection points: 8
#     Node 13, Type 1, BuildingBlock: TAGTUT_clean_sbu_1, # of connection points: 8
#     Edge 14, Type (0, 1), BuildingBlock: XIVTED_clean_linker_0, # of connection points: 2
#     Edge 15, Type (0, 1), BuildingBlock: XIVTED_clean_linker_0, # of connection points: 2
#     Edge 16, Type (0, 1), BuildingBlock: XIVTED_clean_linker_0, # of connection points: 2
#     Edge 17, Type (0, 1), BuildingBlock: XIVTED_clean_linker_0, # of connection points: 2
#     Edge 18, Type (0, 1), BuildingBlock: XIVTED_clean_linker_0, # of connection points: 2
#     Edge 19, Type (0, 1), BuildingBlock: XIVTED_clean_linker_0, # of connection points: 2
#     Edge 20, Type (0, 1), BuildingBlock: XIVTED_clean_linker_0, # of connection points: 2
#     Edge 21, Type (0, 1), BuildingBlock: XIVTED_clean_linker_0, # of connection points: 2
#     Edge 22, Type (0, 1), BuildingBlock: XIVTED_clean_linker_0, # of connection points: 2
#     Edge 23, Type (0, 1), BuildingBlock: XIVTED_clean_linker_0, # of connection points: 2
#     Edge 24, Type (0, 1), BuildingBlock: XIVTED_clean_linker_0, # of connection points: 2
#     Edge 25, Type (0, 1), BuildingBlock: XIVTED_clean_linker_0, # of connection points: 2
#     Edge 26, Type (0, 1), BuildingBlock: XIVTED_clean_linker_0, # of connection points: 2
#     Edge 27, Type (0, 1), BuildingBlock: XIVTED_clean_linker_0, # of connection points: 2
#     Edge 28, Type (0, 1), BuildingBlock: XIVTED_clean_linker_0, # of connection points: 2
#     Edge 29, Type (0, 1), BuildingBlock: XIVTED_clean_linker_0, # of connection points: 2
#     Edge 30, Type (0, 1), BuildingBlock: XIVTED_clean_linker_0, # of connection points: 2
#     Edge 31, Type (0, 1), BuildingBlock: XIVTED_clean_linker_0, # of connection points: 2
#     Edge 32, Type (0, 1), BuildingBlock: XIVTED_clean_linker_0, # of connection points: 2
#     Edge 33, Type (0, 1), BuildingBlock: XIVTED_clean_linker_0, # of connection points: 2
#     Edge 34, Type (0, 1), BuildingBlock: XIVTED_clean_linker_0, # of connection points: 2
#     Edge 35, Type (0, 1), BuildingBlock: XIVTED_clean_linker_0, # of connection points: 2
#     Edge 36, Type (0, 1), BuildingBlock: XIVTED_clean_linker_0, # of connection points: 2
#     Edge 37, Type (0, 1), BuildingBlock: XIVTED_clean_linker_0, # of connection points: 2
#     Edge 38, Type (0, 1), BuildingBlock: XIVTED_clean_linker_0, # of connection points: 2
#     Edge 39, Type (0, 1), BuildingBlock: XIVTED_clean_linker_0, # of connection points: 2
#     Edge 40, Type (0, 1), BuildingBlock: XIVTED_clean_linker_0, # of connection points: 2
#     Edge 41, Type (0, 1), BuildingBlock: XIVTED_clean_linker_0, # of connection points: 2
#     Edge 42, Type (0, 1), BuildingBlock: XIVTED_clean_linker_0, # of connection points: 2
#     Edge 43, Type (0, 1), BuildingBlock: XIVTED_clean_linker_0, # of connection points: 2
#     Edge 44, Type (0, 1), BuildingBlock: XIVTED_clean_linker_0, # of connection points: 2
#     Edge 45, Type (0, 1), BuildingBlock: XIVTED_clean_linker_0, # of connection points: 2
#     Edge 46, Type (0, 1), BuildingBlock: XIVTED_clean_linker_0, # of connection points: 2
#     Edge 47, Type (0, 1), BuildingBlock: XIVTED_clean_linker_0, # of connection points: 2
#     Edge 48, Type (0, 1), BuildingBlock: XIVTED_clean_linker_0, # of connection points: 2
#     Edge 49, Type (0, 1), BuildingBlock: XIVTED_clean_linker_0, # of connection points: 2
#     Edge 50, Type (0, 1), BuildingBlock: XIVTED_clean_linker_0, # of connection points: 2
#     Edge 51, Type (0, 1), BuildingBlock: XIVTED_clean_linker_0, # of connection points: 2
#     Edge 52, Type (0, 1), BuildingBlock: XIVTED_clean_linker_0, # of connection points: 2
#     Edge 53, Type (0, 1), BuildingBlock: XIVTED_clean_linker_0, # of connection points: 2
#     Edge 54, Type (0, 1), BuildingBlock: XIVTED_clean_linker_0, # of connection points: 2
#     Edge 55, Type (0, 1), BuildingBlock: XIVTED_clean_linker_0, # of connection points: 2
#     Edge 56, Type (0, 1), BuildingBlock: XIVTED_clean_linker_0, # of connection points: 2
#     Edge 57, Type (0, 1), BuildingBlock: XIVTED_clean_linker_0, # of connection points: 2
#     Edge 58, Type (0, 1), BuildingBlock: XIVTED_clean_linker_0, # of connection points: 2
#     Edge 59, Type (0, 1), BuildingBlock: XIVTED_clean_linker_0, # of connection points: 2
#     Edge 60, Type (0, 1), BuildingBlock: XIVTED_clean_linker_0, # of connection points: 2
#     Edge 61, Type (0, 1), BuildingBlock: XIVTED_clean_linker_0, # of connection points: 2
# Relax obj value: 0.096
# Max RMSD: 0.233
# Mean RMSD: 0.141
data_MOF--net-ocu--node1-CUKXOW_clean_sbu_0--node2-TAGTUT_clean_sbu_1--edge1-XIVTED_clean_linker_0
_symmetry_space_group_name_H-M    P1
_symmetry_Int_Tables_number       1
_symmetry_cell_setting            triclinic
loop_
_symmetry_equiv_pos_as_xyz
'x, y, z'
_cell_length_a     36.759837
_cell_length_b     37.374376
_cell_length_c     39.842127
_cell_angle_alpha  92.423586
_cell_angle_beta   93.889682
_cell_angle_gamma 97.966749
loop_
_atom_site_label
_atom_site_type_symbol
_atom_site_fract_x
_atom_site_fract_y
_atom_site_fract_z
_atom_type_partial_charge
Tb0 Tb 0.25578 0.21169 0.21272 0.0
C1 C 0.30799 0.28474 0.19806 0.0
Tb2 Tb 0.25989 0.28071 0.26388 0.0
O3 O 0.21465 0.22764 0.17516 0.0
O4 O 0.23317 0.25988 0.21755 0.0
O5 O 0.29963 0.24894 0.19128 0.0
C6 C 0.25171 0.3439 0.29271 0.0
O7 O 0.29354 0.30196 0.22303 0.0
C8 C 0.3031 0.23318 0.28509 0.0
C9 C 0.20647 0.20791 0.27762 0.0
O10 O 0.2826 0.33096 0.29181 0.0
O11 O 0.2251 0.32109 0.27749 0.0
O12 O 0.30108 0.26373 0.30116 0.0
O13 O 0.2818 0.23248 0.25896 0.0
O14 O 0.21545 0.24357 0.28497 0.0
O15 O 0.22047 0.1909 0.25234 0.0
C16 C 0.26926 0.14748 0.19099 0.0
O17 O 0.23801 0.15953 0.18563 0.0
O18 O 0.29323 0.17205 0.20725 0.0
C19 C 0.21205 0.25827 0.19107 0.0
Tb20 Tb 0.73084 0.22074 0.25356 0.0
C21 C 0.75182 0.19566 0.18218 0.0
Tb22 Tb 0.79553 0.26518 0.21932 0.0
O23 O 0.68507 0.24532 0.22943 0.0
O24 O 0.73777 0.26197 0.21869 0.0
O25 O 0.74007 0.18521 0.21144 0.0
C26 C 0.83907 0.31458 0.19051 0.0
O27 O 0.76963 0.2284 0.17807 0.0
C28 C 0.82104 0.21902 0.26167 0.0
C29 C 0.77774 0.28787 0.29226 0.0
O30 O 0.83765 0.27994 0.18481 0.0
O31 O 0.81457 0.32139 0.21091 0.0
O32 O 0.84134 0.24081 0.24386 0.0
O33 O 0.78842 0.2241 0.25399 0.0
O34 O 0.78828 0.29946 0.26299 0.0
O35 O 0.75879 0.25544 0.29545 0.0
C36 C 0.6859 0.17308 0.28295 0.0
O37 O 0.69023 0.20774 0.28983 0.0
O38 O 0.70834 0.16509 0.26094 0.0
C39 C 0.70504 0.26704 0.21138 0.0
Tb40 Tb 0.7321 0.75594 0.22168 0.0
C41 C 0.70997 0.67204 0.22589 0.0
Tb42 Tb 0.78183 0.71475 0.26256 0.0
O43 O 0.77438 0.7654 0.18433 0.0
O44 O 0.76939 0.71947 0.21091 0.0
O45 O 0.69788 0.70363 0.22266 0.0
C46 C 0.83343 0.67498 0.27816 0.0
O47 O 0.74355 0.66963 0.23903 0.0
C48 C 0.73991 0.75019 0.2993 0.0
C49 C 0.80046 0.79826 0.2613 0.0
O50 O 0.79982 0.66882 0.28709 0.0
O51 O 0.83838 0.70412 0.26158 0.0
O52 O 0.7714 0.7416 0.31046 0.0
O53 O 0.73154 0.73497 0.27038 0.0
O54 O 0.81439 0.76752 0.25872 0.0
O55 O 0.76586 0.79994 0.25106 0.0
C56 C 0.6747 0.78151 0.19302 0.0
O57 O 0.69288 0.7949 0.22081 0.0
O58 O 0.6897 0.75491 0.18091 0.0
C59 C 0.78848 0.73605 0.19011 0.0
Tb60 Tb 0.28655 0.76764 0.21743 0.0
C61 C 0.29828 0.77513 0.29469 0.0
Tb62 Tb 0.23454 0.7196 0.25899 0.0
O63 O 0.26484 0.81749 0.23247 0.0
O64 O 0.23253 0.76778 0.23336 0.0
O65 O 0.31586 0.77325 0.26687 0.0
C66 C 0.18464 0.69535 0.30061 0.0
O67 O 0.26416 0.75904 0.2963 0.0
C68 C 0.28572 0.68709 0.23188 0.0
C69 C 0.22156 0.71188 0.18048 0.0
O70 O 0.21998 0.69643 0.30635 0.0
O71 O 0.17726 0.70711 0.27115 0.0
O72 O 0.25483 0.67036 0.2409 0.0
O73 O 0.28867 0.71963 0.24308 0.0
O74 O 0.20686 0.70566 0.20955 0.0
O75 O 0.25196 0.73491 0.17764 0.0
C76 C 0.34137 0.78748 0.17861 0.0
O77 O 0.31665 0.75931 0.17292 0.0
O78 O 0.33429 0.80552 0.20531 0.0
C79 C 0.23471 0.8007 0.24303 0.0
Tb80 Tb 0.22807 0.72609 0.75753 0.0
C81 C 0.24427 0.69775 0.68544 0.0
Tb82 Tb 0.29201 0.76633 0.71995 0.0
O83 O 0.18182 0.74897 0.7323 0.0
O84 O 0.23435 0.76421 0.7198 0.0
O85 O 0.23378 0.68882 0.7155 0.0
C86 C 0.33626 0.81303 0.68895 0.0
O87 O 0.2637 0.72933 0.68007 0.0
C88 C 0.31831 0.72292 0.76489 0.0
C89 C 0.27268 0.79751 0.79002 0.0
O90 O 0.333 0.77816 0.68368 0.0
O91 O 0.31318 0.82152 0.71011 0.0
O92 O 0.33799 0.74273 0.7451 0.0
O93 O 0.28561 0.72822 0.75773 0.0
O94 O 0.28411 0.80494 0.75993 0.0
O95 O 0.25422 0.76575 0.79649 0.0
C96 C 0.18562 0.67766 0.78844 0.0
O97 O 0.18619 0.71238 0.79262 0.0
O98 O 0.21038 0.67045 0.76852 0.0
C99 C 0.20146 0.76899 0.71256 0.0
Tb100 Tb 0.23459 0.26235 0.72711 0.0
C101 C 0.21906 0.17976 0.70952 0.0
Tb102 Tb 0.28392 0.21431 0.76111 0.0
O103 O 0.25236 0.25149 0.67637 0.0
O104 O 0.28687 0.24661 0.71887 0.0
O105 O 0.20385 0.20963 0.71327 0.0
C106 C 0.33186 0.17044 0.7784 0.0
O107 O 0.25232 0.17688 0.72304 0.0
C108 C 0.23591 0.23867 0.80007 0.0
C109 C 0.30092 0.29657 0.77748 0.0
O110 O 0.29635 0.16274 0.7786 0.0
O111 O 0.34039 0.20296 0.76866 0.0
O112 O 0.26717 0.22974 0.81124 0.0
O113 O 0.2315 0.22972 0.76904 0.0
O114 O 0.316 0.26677 0.77284 0.0
O115 O 0.26755 0.29968 0.76441 0.0
C116 C 0.18338 0.30477 0.71777 0.0
O117 O 0.2183 0.3144 0.71483 0.0
O118 O 0.17722 0.27102 0.72449 0.0
C119 C 0.28244 0.23977 0.68739 0.0
Tb120 Tb 0.78601 0.25859 0.72621 0.0
C121 C 0.79915 0.26161 0.80287 0.0
Tb122 Tb 0.73282 0.21018 0.76579 0.0
O123 O 0.76737 0.30874 0.74457 0.0
O124 O 0.73238 0.26024 0.74282 0.0
O125 O 0.81616 0.25931 0.77482 0.0
C126 C 0.68066 0.18705 0.80591 0.0
O127 O 0.76455 0.24681 0.80446 0.0
C128 C 0.78187 0.17672 0.73584 0.0
C129 C 0.71936 0.2072 0.68728 0.0
O130 O 0.71541 0.18421 0.81132 0.0
O131 O 0.67523 0.20196 0.7776 0.0
O132 O 0.7504 0.16075 0.7444 0.0
O133 O 0.78651 0.20866 0.74895 0.0
O134 O 0.70474 0.19952 0.71611 0.0
O135 O 0.75025 0.22967 0.68525 0.0
C136 C 0.83996 0.28055 0.68746 0.0
O137 O 0.8331 0.29748 0.71483 0.0
O138 O 0.81568 0.25211 0.68121 0.0
C139 C 0.73651 0.29277 0.75428 0.0
Tb140 Tb 0.75434 0.70835 0.70879 0.0
C141 C 0.80903 0.78014 0.69492 0.0
Tb142 Tb 0.76099 0.77722 0.76053 0.0
O143 O 0.71292 0.72623 0.6724 0.0
O144 O 0.73359 0.75731 0.71441 0.0
O145 O 0.79903 0.74465 0.68751 0.0
C146 C 0.75046 0.84147 0.78511 0.0
O147 O 0.79592 0.79764 0.72044 0.0
C148 C 0.80383 0.72926 0.78091 0.0
C149 C 0.70795 0.7047 0.77551 0.0
O150 O 0.78115 0.82811 0.78893 0.0
O151 O 0.7254 0.81824 0.76845 0.0
O152 O 0.80235 0.75995 0.79713 0.0
O153 O 0.7822 0.72841 0.75485 0.0
O154 O 0.71703 0.74041 0.78251 0.0
O155 O 0.72126 0.68742 0.74993 0.0
C156 C 0.76261 0.64519 0.67992 0.0
O157 O 0.73188 0.65858 0.67975 0.0
O158 O 0.78891 0.66753 0.69608 0.0
C159 C 0.71183 0.75695 0.68858 0.0
C160 C 0.919 0.07551 0.54785 0.0
C161 C 0.93935 0.07778 0.44043 0.0
C162 C 0.94669 0.93268 0.44819 0.0
Mg163 Mg 0.9894 0.07683 0.50659 0.0
O164 O 0.9774 0.0265 0.5081 0.0
Mg165 Mg 0.92598 0.00545 0.49038 0.0
Mg166 Mg 1.00846 -0.00742 0.4863 0.0
O167 O 0.03973 0.95846 0.46486 0.0
Mg168 Mg 0.02809 0.90821 0.46791 0.0
Mg169 Mg 0.09104 0.97983 0.48287 0.0
C170 C 0.07064 0.05206 0.52406 0.0
C171 C 0.06292 0.03929 0.43216 0.0
O172 O 0.90462 0.04624 0.53055 0.0
O173 O 0.95161 0.09111 0.54337 0.0
O174 O 0.92212 0.04786 0.4492 0.0
O175 O 0.96869 0.09301 0.45736 0.0
O176 O 0.04861 0.07609 0.52109 0.0
O177 O 0.06027 0.01821 0.51673 0.0
C178 C 0.95434 0.94596 0.54059 0.0
O179 O 0.98661 0.95074 0.52873 0.0
O180 O 0.92911 0.96402 0.53024 0.0
O181 O 0.11277 0.939 0.44373 0.0
O182 O 0.06624 0.89348 0.43163 0.0
O183 O 0.09552 0.93801 0.52444 0.0
C184 C 0.09874 0.9093 0.42703 0.0
O185 O 0.04932 0.89252 0.51745 0.0
O186 O 0.96905 0.90904 0.45223 0.0
C187 C 0.07888 0.90812 0.53382 0.0
O188 O 0.95643 0.9667 0.45568 0.0
O189 O 0.03057 0.03472 0.44394 0.0
O190 O 0.08789 0.02097 0.44265 0.0
C191 C 0.39629 0.00634 0.06226 0.0
C192 C 0.4308 0.0514 0.96659 0.0
C193 C 0.46923 0.93443 0.93308 0.0
Mg194 Mg 0.46856 0.04535 0.03649 0.0
O195 O 0.47211 -0.00309 0.02496 0.0
Mg196 Mg 0.42986 0.96891 -0.00464 0.0
Mg197 Mg 0.51229 0.98835 -0.00401 0.0
O198 O 0.55198 0.98055 0.96632 0.0
Mg199 Mg 0.55407 0.93429 0.94747 0.0
Mg200 Mg 0.59417 0.00539 -0.00279 0.0
C201 C 0.55469 0.04814 0.05132 0.0
C202 C 0.54677 0.06372 0.96541 0.0
O203 O 0.39272 0.98267 0.0375 0.0
O204 O 0.42337 0.03208 0.06686 0.0
O205 O 0.41885 0.01779 0.96713 0.0
O206 O 0.45196 0.06825 -0.0095 0.0
O207 O 0.52571 0.06312 0.05514 0.0
O208 O 0.55349 0.01742 0.03546 0.0
C209 C 0.47981 0.91341 0.02859 0.0
O210 O 0.50902 0.93415 0.02202 0.0
O211 O 0.44737 0.92115 0.02153 0.0
O212 O 0.63231 -0.00641 0.95495 0.0
O213 O 0.60052 0.94972 0.91959 0.0
O214 O 0.60033 0.95227 0.02162 0.0
C215 C 0.62868 0.97343 0.9277 0.0
O216 O 0.56767 0.90573 -0.00927 0.0
O217 O 0.49802 0.92194 0.92391 0.0
C218 C 0.58702 0.91878 0.01737 0.0
O219 O 0.47084 0.9584 0.95716 0.0
O220 O 0.51676 0.04306 0.97028 0.0
O221 O 0.5788 0.05523 0.9734 0.0
C222 C 0.92639 0.59472 0.031 0.0
C223 C 0.93996 0.57206 0.92536 0.0
C224 C 0.94323 0.42965 0.96423 0.0
Mg225 Mg 0.99409 0.58381 -0.00995 0.0
O226 O 0.98154 0.53547 -0.00022 0.0
Mg227 Mg 0.92938 0.51308 0.98902 0.0
Mg228 Mg 1.00937 0.49486 0.98583 0.0
O229 O 0.03726 0.45433 0.97188 0.0
Mg230 Mg 0.02472 0.40583 0.98062 0.0
Mg231 Mg 0.08942 0.47654 0.98293 0.0
C232 C 0.07547 0.5601 0.00768 0.0
C233 C 0.05147 0.51616 0.92071 0.0
O234 O 0.91146 0.56288 0.01951 0.0
O235 O 0.95905 0.60802 0.02423 0.0
O236 O 0.92248 0.54454 0.93863 0.0
O237 O 0.96989 0.58919 0.93979 0.0
O238 O 0.05374 0.58382 0.00161 0.0
O239 O 0.06392 0.52588 0.00739 0.0
C240 C 0.9674 0.47342 0.05108 0.0
O241 O 0.99677 0.47236 0.03589 0.0
O242 O 0.93943 0.48624 0.03806 0.0
O243 O 0.10817 0.42652 0.95311 0.0
O244 O 0.05953 0.38265 0.94553 0.0
O245 O 0.09578 0.44517 0.03328 0.0
C246 C 0.09288 0.39531 0.94031 0.0
O247 O 0.0491 0.39963 0.03072 0.0
O248 O 0.96503 0.40592 0.96987 0.0
C249 C 0.0785 0.41708 0.04585 0.0
O250 O 0.95475 0.46384 0.96427 0.0
O251 O 0.02209 0.51731 0.93587 0.0
O252 O 0.07943 0.50327 0.93374 0.0
C253 C 0.42307 0.58294 0.04715 0.0
C254 C 0.44348 0.58212 0.94076 0.0
C255 C 0.44825 0.43687 0.95483 0.0
Mg256 Mg 0.49383 0.58171 0.00694 0.0
O257 O 0.48057 0.53171 0.01049 0.0
Mg258 Mg 0.42913 0.51112 -0.00752 0.0
Mg259 Mg 0.51108 0.49643 -0.00995 0.0
O260 O 0.54173 0.4612 0.96951 0.0
Mg261 Mg 0.52911 0.41117 0.97294 0.0
Mg262 Mg 0.5932 0.48195 0.98741 0.0
C263 C 0.57341 0.55521 0.0292 0.0
C264 C 0.56643 0.5409 0.93537 0.0
O265 O 0.4084 0.55327 0.03078 0.0
O266 O 0.45586 0.59795 0.04254 0.0
O267 O 0.42609 0.55265 0.95034 0.0
O268 O 0.47334 0.59718 0.95706 0.0
O269 O 0.55224 0.57977 0.02446 0.0
O270 O 0.56284 0.52156 0.02087 0.0
C271 C 0.45517 0.45191 0.04451 0.0
O272 O 0.48768 0.45562 0.03304 0.0
O273 O 0.43076 0.47056 0.03343 0.0
O274 O 0.61414 0.43974 0.94888 0.0
O275 O 0.56666 0.39513 0.9368 0.0
O276 O 0.597 0.44057 0.02944 0.0
C277 C 0.59953 0.41007 0.93239 0.0
O278 O 0.55023 0.39563 0.02239 0.0
O279 O 0.46988 0.41263 0.95901 0.0
C280 C 0.57989 0.41089 0.03879 0.0
O281 O 0.45919 0.47098 0.95976 0.0
O282 O 0.53406 0.53718 0.94704 0.0
O283 O 0.59099 0.52243 0.94649 0.0
C284 C 0.88153 0.51841 0.52426 0.0
C285 C 0.9446 0.54789 0.43658 0.0
C286 C 0.9803 0.42003 0.43928 0.0
Mg287 Mg 0.9618 0.5512 0.51267 0.0
O288 O 0.96497 0.50134 0.50974 0.0
Mg289 Mg 0.93014 0.47004 0.47563 0.0
Mg290 Mg 0.01104 0.48719 0.49362 0.0
O291 O 0.05711 0.47285 0.4776 0.0
Mg292 Mg 0.06025 0.42287 0.47485 0.0
Mg293 Mg 0.09177 0.50388 0.51204 0.0
C294 C 0.04181 0.55412 0.54785 0.0
C295 C 0.05611 0.55559 0.4605 0.0
O296 O 0.88391 0.49061 0.50489 0.0
O297 O 0.90796 0.54446 0.53094 0.0
O298 O 0.93062 0.51496 0.43883 0.0
O299 O 0.95965 0.56745 0.46207 0.0
O300 O 0.01365 0.57057 0.54254 0.0
O301 O 0.04252 0.52184 0.53614 0.0
C302 C 0.96638 0.41919 0.5276 0.0
O303 O 0.99772 0.43853 0.5256 0.0
O304 O 0.93683 0.42591 0.51163 0.0
O305 O 0.13789 0.48365 0.48278 0.0
O306 O 0.11443 0.42949 0.45707 0.0
O307 O 0.09135 0.45885 0.54865 0.0
C308 C 0.14064 0.45578 0.46366 0.0
O309 O 0.06216 0.40643 0.52546 0.0
O310 O 1.00854 0.40364 0.44453 0.0
C311 C 0.07741 0.42593 0.55091 0.0
O312 O 0.97946 0.45216 0.45138 0.0
O313 O 0.02454 0.53636 0.46172 0.0
O314 O 0.08529 0.54822 0.47661 0.0
C315 C 0.42446 0.09627 0.53443 0.0
C316 C 0.4388 0.07491 0.42864 0.0
C317 C 0.4427 0.93281 0.46474 0.0
Mg318 Mg 0.49256 0.08635 0.49331 0.0
O319 O 0.48037 0.03795 0.50292 0.0
Mg320 Mg 0.42831 0.01528 0.49189 0.0
Mg321 Mg 0.50852 -0.00215 0.48811 0.0
O322 O 0.53665 0.95775 0.47355 0.0
Mg323 Mg 0.5241 0.90899 0.4814 0.0
Mg324 Mg 0.58863 0.98 0.48552 0.0
C325 C 0.57406 0.06285 0.51071 0.0
C326 C 0.55117 0.02072 0.42372 0.0
O327 O 0.40985 0.06421 0.52335 0.0
O328 O 0.45677 0.1101 0.52712 0.0
O329 O 0.42115 0.04754 0.44199 0.0
O330 O 0.46893 0.09174 0.44293 0.0
O331 O 0.55227 0.08658 0.50489 0.0
O332 O 0.56261 0.02864 0.51028 0.0
C333 C 0.4668 0.97454 0.55287 0.0
O334 O 0.49606 0.97403 0.53746 0.0
O335 O 0.43865 0.9875 0.54042 0.0
O336 O 0.60786 0.93094 0.4551 0.0
O337 O 0.55947 0.88692 0.4462 0.0
O338 O 0.59474 0.94731 0.53529 0.0
C339 C 0.59286 0.89998 0.44157 0.0
O340 O 0.54816 0.90161 0.5314 0.0
O341 O 0.46443 0.90892 0.46997 0.0
C342 C 0.57743 0.91872 0.54706 0.0
O343 O 0.4542 0.96704 0.46603 0.0
O344 O 0.52154 0.02156 0.43858 0.0
O345 O 0.579 0.00766 0.43681 0.0
H346 H 0.18514 0.13427 0.27141 0.0
H347 H 0.05949 0.11373 0.43054 0.0
H348 H 0.16853 0.22729 0.33324 0.0
H349 H 0.09521 0.02554 0.37464 0.0
H350 H 0.09175 0.15645 0.39264 0.0
H351 H 0.14613 0.09564 0.30606 0.0
C352 C 0.17324 0.14689 0.29218 0.0
C353 C 0.1807 0.18464 0.29899 0.0
C354 C 0.09199 0.12769 0.38835 0.0
C355 C 0.13482 0.13928 0.33978 0.0
C356 C 0.07305 0.10318 0.40975 0.0
C357 C 0.07388 0.06563 0.40559 0.0
C358 C 0.11189 0.11469 0.36239 0.0
C359 C 0.09318 0.05401 0.37874 0.0
C360 C 0.15074 0.12449 0.3122 0.0
C361 C 0.16391 0.19854 0.3267 0.0
N362 N 0.11115 0.07812 0.35851 0.0
N363 N 0.14196 0.17602 0.34596 0.0
H364 H 0.78424 0.16722 0.30074 0.0
H365 H 0.97044 0.13681 0.40768 0.0
H366 H 0.89257 0.2197 0.28252 0.0
H367 H 0.86945 0.06287 0.40882 0.0
H368 H 0.94069 0.17005 0.36453 0.0
H369 H 0.81281 0.13135 0.34339 0.0
C370 C 0.8139 0.1712 0.30567 0.0
C371 C 0.836 0.19644 0.28789 0.0
C372 C 0.92502 0.14644 0.37408 0.0
C373 C 0.86887 0.1559 0.33675 0.0
C374 C 0.94211 0.12736 0.39877 0.0
C375 C 0.92266 0.09675 0.41203 0.0
C376 C 0.88789 0.13535 0.36263 0.0
C377 C 0.88578 0.08609 0.39932 0.0
C378 C 0.83024 0.15071 0.32994 0.0
C379 C 0.87435 0.20051 0.29543 0.0
N380 N 0.8696 0.10542 0.37563 0.0
N381 N 0.8894 0.18072 0.31919 0.0
H382 H 0.87178 0.80408 0.28667 0.0
H383 H 0.90824 0.97162 0.4047 0.0
H384 H 0.77577 0.85893 0.28797 0.0
H385 H 0.9082 0.86509 0.44258 0.0
H386 H 0.86772 0.94455 0.35573 0.0
H387 H 0.89954 0.8424 0.3353 0.0
C388 C 0.85688 0.82476 0.29655 0.0
C389 C 0.82114 0.82789 0.28352 0.0
C390 C 0.87576 0.92751 0.37545 0.0
C391 C 0.85287 0.87158 0.33907 0.0
C392 C 0.89853 0.94283 0.40349 0.0
C393 C 0.91223 0.92035 0.42729 0.0
C394 C 0.86734 0.88978 0.37153 0.0
C395 C 0.89891 0.88326 0.42443 0.0
C396 C 0.87265 0.84636 0.32441 0.0
C397 C 0.80334 0.85552 0.29735 0.0
N398 N 0.8781 0.86897 0.39647 0.0
N399 N 0.81927 0.87623 0.32484 0.0
H400 H 0.16731 0.77331 0.26519 0.0
H401 H 0.16724 0.93518 0.40574 0.0
H402 H 0.25406 0.86365 0.28155 0.0
H403 H 0.07887 0.84618 0.38775 0.0
H404 H 0.19999 0.90876 0.36139 0.0
H405 H 0.13509 0.79865 0.3107 0.0
C406 C 0.17969 0.79832 0.27847 0.0
C407 C 0.21357 0.81613 0.26959 0.0
C408 C 0.17345 0.89496 0.36717 0.0
C409 C 0.17661 0.84584 0.32167 0.0
C410 C 0.15469 0.91005 0.39264 0.0
C411 C 0.12003 0.89307 0.40077 0.0
C412 C 0.15764 0.8625 0.34946 0.0
C413 C 0.1054 0.86047 0.38258 0.0
C414 C 0.16119 0.81297 0.30438 0.0
C415 C 0.2279 0.84898 0.28733 0.0
N416 N 0.12415 0.84639 0.35795 0.0
N417 N 0.20949 0.86266 0.31241 0.0
H418 H 0.12976 0.76341 0.69064 0.0
H419 H 0.14838 0.92634 0.56569 0.0
H420 H 0.2354 0.82238 0.67284 0.0
H421 H 0.05138 0.84687 0.56594 0.0
H422 H 0.17959 0.89308 0.60799 0.0
H423 H 0.10038 0.79734 0.64837 0.0
C424 C 0.14693 0.78358 0.67778 0.0
C425 C 0.18526 0.78994 0.6855 0.0
C426 C 0.15147 0.88297 0.59887 0.0
C427 C 0.15119 0.82968 0.63662 0.0
C428 C 0.13337 0.90211 0.5748 0.0
C429 C 0.09687 0.88963 0.562 0.0
C430 C 0.13299 0.85112 0.61081 0.0
C431 C 0.07934 0.85778 0.57487 0.0
C432 C 0.12998 0.80298 0.65349 0.0
C433 C 0.20583 0.81646 0.66775 0.0
N434 N 0.09745 0.83984 0.59847 0.0
N435 N 0.18852 0.83552 0.64431 0.0
H436 H 0.14772 0.1711 0.68458 0.0
H437 H 0.11149 0.01179 0.56365 0.0
H438 H 0.24878 0.1252 0.67754 0.0
H439 H 0.11066 0.11899 0.52752 0.0
H440 H 0.15583 0.03755 0.61029 0.0
H441 H 0.12149 0.13438 0.63449 0.0
C442 C 0.16415 0.1528 0.67293 0.0
C443 C 0.20063 0.15157 0.68487 0.0
C444 C 0.14695 0.05498 0.59125 0.0
C445 C 0.17078 0.10989 0.62783 0.0
C446 C 0.12185 0.04043 0.56461 0.0
C447 C 0.10664 0.06362 0.54243 0.0
C448 C 0.15631 0.09258 0.59523 0.0
C449 C 0.12099 0.10041 0.5447 0.0
C450 C 0.14924 0.1321 0.64436 0.0
C451 C 0.22052 0.12695 0.66897 0.0
N452 N 0.1442 0.114 0.5714 0.0
N453 N 0.20541 0.10713 0.64074 0.0
H454 H 0.75962 0.11739 0.69333 0.0
H455 H 0.94029 0.13751 0.58846 0.0
H456 H 0.85101 0.20246 0.71515 0.0
H457 H 0.85013 0.05043 0.56946 0.0
H458 H 0.90768 0.16242 0.63346 0.0
H459 H 0.7918 0.0935 0.64748 0.0
C460 C 0.78659 0.13106 0.68859 0.0
C461 C 0.8025 0.16215 0.70829 0.0
C462 C 0.89494 0.1379 0.61948 0.0
C463 C 0.83987 0.13467 0.65516 0.0
C464 C 0.91358 0.12353 0.59356 0.0
C465 C 0.89818 0.09155 0.57475 0.0
C466 C 0.86036 0.12036 0.62709 0.0
C467 C 0.86332 0.07505 0.58298 0.0
C468 C 0.80496 0.11738 0.6622 0.0
C469 C 0.83749 0.17864 0.70059 0.0
N470 N 0.84577 0.08954 0.6084 0.0
N471 N 0.85491 0.16476 0.67473 0.0
H472 H 0.84261 0.7588 0.63777 0.0
H473 H 0.93228 0.96209 0.60234 0.0
H474 H 0.83554 0.85307 0.70191 0.0
H475 H 0.94816 0.87064 0.53853 0.0
H476 H 0.90033 0.92106 0.64046 0.0
H477 H 0.88302 0.79705 0.60249 0.0
C478 C 0.84956 0.78738 0.64467 0.0
C479 C 0.83519 0.80234 0.67322 0.0
C480 C 0.91127 0.90963 0.61853 0.0
C481 C 0.88192 0.84674 0.63242 0.0
C482 C 0.93005 0.93319 0.59684 0.0
C483 C 0.94405 0.92002 0.56747 0.0
C484 C 0.90529 0.87206 0.61083 0.0
C485 C 0.93892 0.88214 0.56129 0.0
C486 C 0.87277 0.8093 0.62439 0.0
C487 C 0.84553 0.83983 0.6804 0.0
N488 N 0.91979 0.85963 0.58251 0.0
N489 N 0.86786 0.86039 0.66032 0.0
H490 H 0.32103 0.1108 0.21875 0.0
H491 H 0.32176 -5e-05 0.049 0.0
H492 H 0.23441 0.10289 0.13912 0.0
H493 H 0.40707 0.01103 0.12997 0.0
H494 H 0.27875 0.01828 0.08869 0.0
H495 H 0.3411 0.05639 0.19489 0.0
C496 C 0.30606 0.09723 0.19634 0.0
C497 C 0.277 0.11171 0.18003 0.0
C498 C 0.30654 0.01552 0.09802 0.0
C499 C 0.30019 0.05023 0.15207 0.0
C500 C 0.33094 0.00494 0.07541 0.0
C501 C 0.36798 0.00522 0.08634 0.0
C502 C 0.31973 0.02646 0.13138 0.0
C503 C 0.37879 0.01158 0.12062 0.0
C504 C 0.31731 0.06606 0.1828 0.0
C505 C 0.2576 0.09276 0.15181 0.0
N506 N 0.35493 0.02265 0.14187 0.0
N507 N 0.27023 0.06341 0.13804 0.0
H508 H 0.84751 0.38705 0.20437 0.0
H509 H 1.00069 0.41794 0.07529 0.0
H510 H 0.89691 0.30296 0.15474 0.0
H511 H 0.92814 0.4944 0.10162 0.0
H512 H 0.98227 0.38312 0.12346 0.0
H513 H 0.89497 0.43221 0.18487 0.0
C514 C 0.86846 0.37819 0.18941 0.0
C515 C 0.86782 0.34163 0.17995 0.0
C516 C 0.97122 0.40808 0.11919 0.0
C517 C 0.92204 0.39257 0.15825 0.0
C518 C 0.98171 0.42789 0.09179 0.0
C519 C 0.96456 0.45797 0.08394 0.0
C520 C 0.94354 0.41875 0.13839 0.0
C521 C 0.94074 0.47037 0.10628 0.0
C522 C 0.89571 0.40381 0.17871 0.0
C523 C 0.896 0.33116 0.16155 0.0
N524 N 0.93028 0.45022 0.13224 0.0
N525 N 0.9218 0.35667 0.15078 0.0
H526 H 0.65061 0.84578 0.20732 0.0
H527 H 0.56587 0.84563 0.01915 0.0
H528 H 0.63223 0.75219 0.13791 0.0
H529 H 0.61166 0.9405 0.08195 0.0
H530 H 0.56999 0.80898 0.06832 0.0
H531 H 0.61376 0.87749 0.16818 0.0
C532 C 0.63799 0.83168 0.18422 0.0
C533 C 0.64534 0.79705 0.17497 0.0
C534 C 0.5788 0.8379 0.07124 0.0
C535 C 0.60405 0.83283 0.13036 0.0
C536 C 0.5769 0.85871 0.04318 0.0
C537 C 0.58974 0.89592 0.04623 0.0
C538 C 0.59356 0.85451 0.10238 0.0
C539 C 0.60262 0.9117 0.07816 0.0
C540 C 0.61709 0.8497 0.16191 0.0
C541 C 0.62797 0.77945 0.14525 0.0
N542 N 0.60456 0.89082 0.10493 0.0
N543 N 0.60868 0.79788 0.12349 0.0
H544 H 0.22858 0.72413 0.11355 0.0
H545 H 0.11584 0.53071 0.05651 0.0
H546 H 0.18229 0.64483 0.18032 0.0
H547 H 0.11826 0.62274 -0.00553 0.0
H548 H 0.16198 0.56604 0.09636 0.0
H549 H 0.20605 0.68171 0.06535 0.0
C550 C 0.21356 0.69794 0.11803 0.0
C551 C 0.20634 0.68833 0.15084 0.0
C552 C 0.15317 0.5781 0.07349 0.0
C553 C 0.18222 0.63948 0.09635 0.0
C554 C 0.12724 0.5578 0.05051 0.0
C555 C 0.11258 0.57428 0.02273 0.0
C556 C 0.16448 0.61479 0.0683 0.0
C557 C 0.12837 0.60943 0.01611 0.0
C558 C 0.20113 0.67371 0.09064 0.0
C559 C 0.1875 0.65378 0.15538 0.0
N560 N 0.15295 0.62892 0.0392 0.0
N561 N 0.17609 0.63064 0.12845 0.0
H562 H 0.28129 0.78678 0.85775 0.0
H563 H 0.4059 0.90996 0.96228 0.0
H564 H 0.29729 0.86887 0.78499 0.0
H565 H 0.45131 0.92533 0.86611 0.0
H566 H 0.34702 0.88219 0.93305 0.0
H567 H 0.32258 0.8265 0.89875 0.0
C568 C 0.29232 0.81362 0.8508 0.0
C569 C 0.28664 0.82425 0.81772 0.0
C570 C 0.36987 0.89194 0.91851 0.0
C571 C 0.33383 0.86923 0.864 0.0
C572 C 0.40324 0.90791 0.93504 0.0
C573 C 0.43328 0.9196 0.91638 0.0
C574 C 0.36671 0.88853 0.88322 0.0
C575 C 0.42878 0.91618 0.88124 0.0
C576 C 0.31589 0.83624 0.87419 0.0
C577 C 0.30169 0.85926 0.81 0.0
N578 N 0.39598 0.90106 0.86574 0.0
N579 N 0.32551 0.88008 0.83265 0.0
H580 H 0.16322 0.24851 0.78783 0.0
H581 H 0.16811 0.40186 0.93616 0.0
H582 H 0.25887 0.28274 0.85612 0.0
H583 H 0.06683 0.33818 0.89495 0.0
H584 H 0.20256 0.36463 0.90138 0.0
H585 H 0.12826 0.28728 0.82095 0.0
C586 C 0.1769 0.26431 0.80965 0.0
C587 C 0.21398 0.26221 0.81926 0.0
C588 C 0.17278 0.35882 0.89993 0.0
C589 C 0.17427 0.30693 0.85718 0.0
C590 C 0.15302 0.38019 0.91974 0.0
C591 C 0.11435 0.37323 0.91875 0.0
C592 C 0.15389 0.33052 0.87834 0.0
C593 C 0.09655 0.34455 0.89685 0.0
C594 C 0.15691 0.28629 0.82865 0.0
C595 C 0.23024 0.28319 0.84793 0.0
N596 N 0.11636 0.32448 0.87748 0.0
N597 N 0.21044 0.30473 0.86568 0.0
H598 H 0.60581 0.17923 0.79343 0.0
H599 H 0.50999 0.07014 0.90474 0.0
H600 H 0.69143 0.17522 0.87216 0.0
H601 H 0.58451 0.1299 0.98202 0.0
H602 H 0.53436 0.11208 0.86355 0.0
H603 H 0.55931 0.162 0.83367 0.0
C604 C 0.61471 0.17476 0.8192 0.0
C605 C 0.65233 0.1777 0.82951 0.0
C606 C 0.54412 0.11722 0.88979 0.0
C607 C 0.59985 0.1589 0.87534 0.0
C608 C 0.52998 0.09336 0.91335 0.0
C609 C 0.54605 0.09632 0.94643 0.0
C610 C 0.57449 0.14361 0.89981 0.0
C611 C 0.57201 0.12655 0.95646 0.0
C612 C 0.58826 0.16504 0.84204 0.0
C613 C 0.66267 0.1724 0.86312 0.0
N614 N 0.58637 0.14839 0.93298 0.0
N615 N 0.63654 0.16321 0.88483 0.0
H616 H 0.78721 0.65419 0.77633 0.0
H617 H 0.97007 0.62905 0.89027 0.0
H618 H 0.87033 0.7413 0.81566 0.0
H619 H 0.87011 0.55376 0.89248 0.0
H620 H 0.93861 0.66347 0.8497 0.0
H621 H 0.82159 0.61107 0.80632 0.0
C622 C 0.81307 0.66411 0.79054 0.0
C623 C 0.82606 0.7014 0.79337 0.0
C624 C 0.92361 0.63918 0.85871 0.0
C625 C 0.86545 0.65243 0.82748 0.0
C626 C 0.94164 0.61927 0.88189 0.0
C627 C 0.92277 0.58845 0.89545 0.0
C628 C 0.88625 0.62838 0.84839 0.0
C629 C 0.88589 0.57732 0.883 0.0
C630 C 0.83247 0.63958 0.80789 0.0
C631 C 0.85934 0.71283 0.81268 0.0
N632 N 0.86877 0.5974 0.86044 0.0
N633 N 0.8778 0.6886 0.82878 0.0
H634 H 0.14634 0.24419 0.15527 0.0
H635 H 0.14695 0.43727 0.08072 0.0
H636 H 0.22648 0.33351 0.19526 0.0
H637 H 0.04957 0.35789 0.07878 0.0
H638 H 0.17773 0.40196 0.122 0.0
H639 H 0.11189 0.2864 0.12609 0.0
C640 C 0.1564 0.27288 0.15831 0.0
C641 C 0.18915 0.2853 0.17801 0.0
C642 C 0.14942 0.39268 0.11289 0.0
C643 C 0.15021 0.3342 0.14348 0.0
C644 C 0.13172 0.4129 0.08935 0.0
C645 C 0.09553 0.40055 0.07573 0.0
C646 C 0.13107 0.35957 0.1226 0.0
C647 C 0.0775 0.36856 0.08803 0.0
C648 C 0.1367 0.29705 0.14156 0.0
C649 C 0.20107 0.32282 0.18069 0.0
N650 N 0.09554 0.34909 0.11017 0.0
N651 N 0.18194 0.34593 0.16317 0.0
H652 H 0.17673 0.60554 0.77343 0.0
H653 H 0.01941 0.57282 0.89767 0.0
H654 H 0.12735 0.68912 0.82389 0.0
H655 H 0.09017 0.4953 0.86971 0.0
H656 H 0.03954 0.60909 0.85095 0.0
H657 H 0.12769 0.56045 0.79023 0.0
C658 C 0.15552 0.6143 0.78813 0.0
C659 C 0.15653 0.65068 0.7985 0.0
C660 C 0.04979 0.58358 0.85448 0.0
C661 C 0.10047 0.59973 0.81716 0.0
C662 C 0.03829 0.56293 0.88103 0.0
C663 C 0.05456 0.53212 0.88812 0.0
C664 C 0.07761 0.57304 0.83541 0.0
C665 C 0.07827 0.51985 0.86565 0.0
C666 C 0.12735 0.58872 0.79724 0.0
C667 C 0.12796 0.66103 0.81643 0.0
N668 N 0.08979 0.54084 0.84058 0.0
N669 N 0.10125 0.63549 0.82573 0.0
H670 H 0.40283 0.19379 0.80213 0.0
H671 H 0.45406 0.12169 0.95162 0.0
H672 H 0.3191 0.10016 0.7931 0.0
H673 H 0.39238 0.02108 0.9094 0.0
H674 H 0.44182 0.14937 0.89841 0.0
H675 H 0.43811 0.16382 0.844 0.0
C676 C 0.39238 0.16656 0.80847 0.0
C677 C 0.35772 0.14958 0.79514 0.0
C678 C 0.43171 0.12104 0.9005 0.0
C679 C 0.39675 0.11601 0.84342 0.0
C680 C 0.43804 0.10545 0.93117 0.0
C681 C 0.42343 0.06934 0.93525 0.0
C682 C 0.41072 0.10015 0.87392 0.0
C683 C 0.40357 0.04926 0.90774 0.0
C684 C 0.41217 0.14974 0.83274 0.0
C685 C 0.34541 0.11432 0.80354 0.0
N686 N 0.39753 0.06507 0.87842 0.0
N687 N 0.36472 0.09884 0.82761 0.0
H688 H 0.85028 0.32029 0.79708 0.0
H689 H 0.89761 0.37216 0.98429 0.0
H690 H 0.78387 0.26449 0.86931 0.0
H691 H 0.90637 0.45261 0.90976 0.0
H692 H 0.85279 0.33311 0.94592 0.0
H693 H 0.87227 0.36826 0.83988 0.0
C694 C 0.84078 0.31783 0.82215 0.0
C695 C 0.81582 0.28801 0.82992 0.0
C696 C 0.86346 0.35986 0.93846 0.0
C697 C 0.84033 0.34326 0.87879 0.0
C698 C 0.88876 0.38225 0.96043 0.0
C699 C 0.90605 0.41526 0.9498 0.0
C700 C 0.85643 0.37039 0.90558 0.0
C701 C 0.89381 0.42719 0.91873 0.0
C702 C 0.85274 0.34561 0.84634 0.0
C703 C 0.80359 0.28681 0.86254 0.0
N704 N 0.87063 0.40416 0.89712 0.0
N705 N 0.81644 0.31386 0.88607 0.0
H706 H 0.69863 0.88149 0.7631 0.0
H707 H 0.70227 0.97226 0.94183 0.0
H708 H 0.78807 0.881 0.83878 0.0
H709 H 0.62065 0.98059 0.86076 0.0
H710 H 0.74461 0.95648 0.90042 0.0
H711 H 0.68066 0.9339 0.79267 0.0
C712 C 0.71472 0.89286 0.78582 0.0
C713 C 0.74402 0.87654 0.79928 0.0
C714 C 0.71791 0.96298 0.89158 0.0
C715 C 0.72321 0.93566 0.83382 0.0
C716 C 0.6939 0.97213 0.91522 0.0
C717 C 0.65786 0.97654 0.90442 0.0
C718 C 0.70525 0.95805 0.85733 0.0
C719 C 0.64808 0.97633 0.86988 0.0
C720 C 0.70466 0.92289 0.80266 0.0
C721 C 0.76474 0.89261 0.82815 0.0
N722 N 0.6714 0.96641 0.84752 0.0
N723 N 0.75328 0.92079 0.84512 0.0
H724 H 0.83019 0.76433 0.13942 0.0
H725 H 0.86776 0.57043 0.06738 0.0
H726 H 0.79798 0.66499 0.18774 0.0
H727 H 0.9377 0.66834 0.0468 0.0
H728 H 0.83555 0.60564 0.10592 0.0
H729 H 0.86428 0.73087 0.10025 0.0
C730 C 0.83038 0.73561 0.14189 0.0
C731 C 0.81115 0.71753 0.16696 0.0
C732 C 0.85792 0.61946 0.09295 0.0
C733 C 0.8494 0.67895 0.12185 0.0
C734 C 0.87625 0.59936 0.07074 0.0
C735 C 0.90567 0.61628 0.0537 0.0
C736 C 0.86843 0.65706 0.09793 0.0
C737 C 0.91536 0.65399 0.05942 0.0
C738 C 0.84981 0.71652 0.11954 0.0
C739 C 0.81234 0.68018 0.16889 0.0
N740 N 0.89672 0.67309 0.08082 0.0
N741 N 0.83073 0.66221 0.14657 0.0
H742 H 0.35801 0.75167 0.12198 0.0
H743 H 0.51477 0.91167 0.0906 0.0
H744 H 0.39849 0.8421 0.19171 0.0
H745 H 0.44802 0.84466 0.01265 0.0
H746 H 0.49295 0.86864 0.1321 0.0
H747 H 0.4092 0.76974 0.08712 0.0
C748 C 0.37789 0.77516 0.13004 0.0
C749 C 0.37355 0.79623 0.15904 0.0
C750 C 0.48424 0.86262 0.1057 0.0
C751 C 0.43224 0.81646 0.1199 0.0
C752 C 0.49703 0.8869 0.08202 0.0
C753 C 0.48233 0.88182 0.04855 0.0
C754 C 0.45673 0.83348 0.09545 0.0
C755 C 0.45939 0.84956 0.0385 0.0
C756 C 0.40721 0.78521 0.11037 0.0
C757 C 0.40045 0.82577 0.16897 0.0
N758 N 0.44649 0.82692 0.06204 0.0
N759 N 0.42843 0.83537 0.14914 0.0
H760 H 0.74285 0.12216 0.17792 0.0
H761 H 0.57368 0.12117 0.05393 0.0
H762 H 0.72826 0.2148 0.12016 0.0
H763 H 0.61793 0.02208 0.07203 0.0
H764 H 0.63265 0.15558 0.07512 0.0
H765 H 0.70211 0.08364 0.13598 0.0
C766 C 0.732 0.13413 0.15576 0.0
C767 C 0.73836 0.17164 0.15257 0.0
C768 C 0.6297 0.12631 0.07399 0.0
C769 C 0.69099 0.12819 0.10534 0.0
C770 C 0.59592 0.1067 0.06236 0.0
C771 C 0.59084 0.06885 0.06209 0.0
C772 C 0.65825 0.10792 0.08623 0.0
C773 C 0.62074 0.05132 0.07236 0.0
C774 C 0.70874 0.11219 0.13187 0.0
C775 C 0.72385 0.18596 0.12349 0.0
N776 N 0.65305 0.07106 0.08477 0.0
N777 N 0.69987 0.16431 0.10139 0.0
H778 H 0.68867 0.63073 0.77215 0.0
H779 H 0.56081 0.61467 0.92997 0.0
H780 H 0.66951 0.72546 0.83018 0.0
H781 H 0.60139 0.52555 0.87983 0.0
H782 H 0.59273 0.65605 0.89076 0.0
H783 H 0.65033 0.593 0.80809 0.0
C784 C 0.67634 0.64389 0.79234 0.0
C785 C 0.68287 0.68184 0.79772 0.0
C786 C 0.59416 0.62735 0.88806 0.0
C787 C 0.63779 0.63761 0.83995 0.0
C788 C 0.57545 0.60359 0.91022 0.0
C789 C 0.5778 0.56621 0.90811 0.0
C790 C 0.61524 0.61374 0.86334 0.0
C791 C 0.5983 0.55391 0.88243 0.0
C792 C 0.65425 0.62203 0.81311 0.0
C793 C 0.66563 0.69651 0.82477 0.0
N794 N 0.61595 0.5773 0.8614 0.0
N795 N 0.64405 0.67453 0.84473 0.0
H796 H 0.2832 0.67137 0.80563 0.0
H797 H 0.47326 0.64127 0.90705 0.0
H798 H 0.39033 0.72426 0.78431 0.0
H799 H 0.37276 0.56722 0.91085 0.0
H800 H 0.44184 0.67459 0.86492 0.0
H801 H 0.31349 0.63577 0.84748 0.0
C802 C 0.31294 0.67559 0.80976 0.0
C803 C 0.33416 0.70086 0.79127 0.0
C804 C 0.42666 0.65093 0.87483 0.0
C805 C 0.36906 0.6605 0.83925 0.0
C806 C 0.44471 0.63177 0.89892 0.0
C807 C 0.42594 0.60107 0.91264 0.0
C808 C 0.38918 0.63988 0.86447 0.0
C809 C 0.38868 0.59046 0.90097 0.0
C810 C 0.33028 0.6552 0.83356 0.0
C811 C 0.3727 0.70509 0.79778 0.0
N812 N 0.37158 0.60986 0.8779 0.0
N813 N 0.38872 0.68541 0.82109 0.0
H814 H 0.28511 0.36536 0.79124 0.0
H815 H 0.4047 0.37426 0.96484 0.0
H816 H 0.35473 0.28777 0.82498 0.0
H817 H 0.40874 0.47043 0.90823 0.0
H818 H 0.35801 0.34326 0.92311 0.0
H819 H 0.30874 0.40497 0.84138 0.0
C820 C 0.30554 0.35686 0.80889 0.0
C821 C 0.31829 0.32341 0.80381 0.0
C822 C 0.36827 0.37154 0.92048 0.0
C823 C 0.34329 0.36715 0.86124 0.0
C824 C 0.39468 0.38923 0.94428 0.0
C825 C 0.41124 0.42438 0.93915 0.0
C826 C 0.3589 0.38912 0.89142 0.0
C827 C 0.39694 0.44297 0.91254 0.0
C828 C 0.31853 0.3792 0.83747 0.0
C829 C 0.34438 0.31342 0.82756 0.0
N830 N 0.37218 0.42465 0.88879 0.0
N831 N 0.35572 0.33505 0.85537 0.0
H832 H 0.6667 0.26869 0.77377 0.0
H833 H 0.66962 0.43266 0.91285 0.0
H834 H 0.7579 0.35417 0.79416 0.0
H835 H 0.57792 0.34724 0.89306 0.0
H836 H 0.70256 0.40382 0.8701 0.0
H837 H 0.63402 0.29614 0.81784 0.0
C838 C 0.67998 0.29299 0.78768 0.0
C839 C 0.71524 0.30887 0.78033 0.0
C840 C 0.67523 0.39134 0.87513 0.0
C841 C 0.67775 0.34105 0.83063 0.0
C842 C 0.65635 0.40784 0.89966 0.0
C843 C 0.62073 0.39258 0.90684 0.0
C844 C 0.65856 0.35917 0.85738 0.0
C845 C 0.60522 0.36025 0.88861 0.0
C846 C 0.66122 0.30888 0.81273 0.0
C847 C 0.7307 0.34098 0.79876 0.0
N848 N 0.6241 0.34478 0.86488 0.0
N849 N 0.71199 0.35588 0.82291 0.0
H850 H 0.74032 0.32066 0.17278 0.0
H851 H 0.55053 0.35099 0.07143 0.0
H852 H 0.63321 0.26578 0.19181 0.0
H853 H 0.65033 0.42642 0.06929 0.0
H854 H 0.58207 0.31726 0.11299 0.0
H855 H 0.71007 0.35736 0.13185 0.0
C856 C 0.71061 0.31628 0.16837 0.0
C857 C 0.68934 0.2901 0.18589 0.0
C858 C 0.59709 0.34132 0.1036 0.0
C859 C 0.65456 0.33165 0.13904 0.0
C860 C 0.57895 0.36071 0.07984 0.0
C861 C 0.59752 0.39187 0.06672 0.0
C862 C 0.63442 0.35263 0.11425 0.0
C863 C 0.63462 0.40278 0.07871 0.0
C864 C 0.6933 0.33726 0.1451 0.0
C865 C 0.65085 0.28564 0.17908 0.0
N866 N 0.65183 0.38315 0.10148 0.0
N867 N 0.63489 0.30591 0.15631 0.0
H868 H 0.63701 0.66176 0.20588 0.0
H869 H 0.61005 0.5106 0.06833 0.0
H870 H 0.73627 0.61308 0.19842 0.0
H871 H 0.60981 0.62269 0.04595 0.0
H872 H 0.64619 0.53036 0.12172 0.0
H873 H 0.60991 0.62586 0.15548 0.0
C874 C 0.65257 0.64251 0.19444 0.0
C875 C 0.68918 0.64096 0.20585 0.0
C876 C 0.63895 0.55033 0.10449 0.0
C877 C 0.65851 0.60039 0.14839 0.0
C878 C 0.61871 0.53925 0.07392 0.0
C879 C 0.60606 0.56515 0.05308 0.0
C880 C 0.64598 0.58727 0.11387 0.0
C881 C 0.61818 0.60183 0.06161 0.0
C882 C 0.63724 0.62237 0.16561 0.0
C883 C 0.70802 0.61527 0.1902 0.0
N884 N 0.63654 0.61184 0.09187 0.0
N885 N 0.69274 0.59642 0.16151 0.0
H886 H 0.26434 0.62664 0.19101 0.0
H887 H 0.44421 0.64638 0.0857 0.0
H888 H 0.35426 0.71365 0.21078 0.0
H889 H 0.35456 0.55843 0.06893 0.0
H890 H 0.41145 0.67242 0.13002 0.0
H891 H 0.29669 0.60238 0.14564 0.0
C892 C 0.29105 0.64064 0.1859 0.0
C893 C 0.30653 0.67236 0.20481 0.0
C894 C 0.39889 0.64746 0.11664 0.0
C895 C 0.34404 0.64451 0.15233 0.0
C896 C 0.41758 0.63249 0.09116 0.0
C897 C 0.40231 0.59992 0.07328 0.0
C898 C 0.36451 0.62987 0.12465 0.0
C899 C 0.3676 0.58349 0.08179 0.0
C900 C 0.3095 0.62677 0.1598 0.0
C901 C 0.34115 0.68931 0.19674 0.0
N902 N 0.35005 0.59854 0.10679 0.0
N903 N 0.35872 0.67521 0.17115 0.0
H904 H 0.34583 0.26362 0.14344 0.0
H905 H 0.42581 0.46835 0.10292 0.0
H906 H 0.32962 0.3587 0.20247 0.0
H907 H 0.4535 0.37677 0.04603 0.0
H908 H 0.3931 0.42737 0.14055 0.0
H909 H 0.38616 0.30244 0.10846 0.0
C910 C 0.35069 0.29252 0.14927 0.0
C911 C 0.33382 0.30749 0.17634 0.0
C912 C 0.40672 0.41593 0.12026 0.0
C913 C 0.3805 0.35258 0.13584 0.0
C914 C 0.42589 0.43951 0.09883 0.0
C915 C 0.44346 0.42637 0.07149 0.0
C916 C 0.40393 0.3782 0.11441 0.0
C917 C 0.44138 0.38842 0.06718 0.0
C918 C 0.3739 0.31476 0.12917 0.0
C919 C 0.3416 0.3454 0.18216 0.0
N920 N 0.4218 0.3658 0.08809 0.0
N921 N 0.36396 0.36626 0.16227 0.0
H922 H 0.72047 0.61302 0.62528 0.0
H923 H 0.87288 0.48959 0.5842 0.0
H924 H 0.81725 0.60396 0.69008 0.0
H925 H 0.82008 0.54968 0.50996 0.0
H926 H 0.8312 0.50721 0.62545 0.0
H927 H 0.7373 0.56635 0.58632 0.0
C928 C 0.74465 0.60041 0.63173 0.0
C929 C 0.76805 0.61258 0.66038 0.0
C930 C 0.82783 0.51532 0.59977 0.0
C931 C 0.78669 0.55924 0.61677 0.0
C932 C 0.85134 0.50518 0.57629 0.0
C933 C 0.84959 0.51842 0.54399 0.0
C934 C 0.80269 0.53882 0.59061 0.0
C935 C 0.82192 0.53902 0.53477 0.0
C936 C 0.75414 0.57392 0.60958 0.0
C937 C 0.79896 0.59557 0.66784 0.0
N938 N 0.79971 0.54914 0.55826 0.0
N939 N 0.80764 0.56988 0.64592 0.0
H940 H 0.3926 0.79828 0.65231 0.0
H941 H 0.4324 -0.00316 0.60617 0.0
H942 H 0.34806 0.8854 0.7023 0.0
H943 H 0.49579 0.91509 0.57273 0.0
H944 H 0.41433 0.96053 0.65309 0.0
H945 H 0.44117 0.84222 0.63299 0.0
C946 C 0.39317 0.82672 0.65916 0.0
C947 C 0.3658 0.83866 0.6777 0.0
C948 C 0.43293 0.95078 0.63605 0.0
C949 C 0.42109 0.88874 0.65635 0.0
C950 C 0.44306 0.97146 0.60925 0.0
C951 C 0.46427 0.95798 0.58516 0.0
C952 C 0.44299 0.91595 0.63768 0.0
C953 C 0.47856 0.92575 0.59053 0.0
C954 C 0.42115 0.85171 0.64864 0.0
C955 C 0.36817 0.87543 0.68705 0.0
N956 N 0.46665 0.90508 0.61578 0.0
N957 N 0.39506 0.89934 0.67577 0.0
H958 H 0.19073 0.37786 0.71749 0.0
H959 H 0.05366 0.35642 0.56704 0.0
H960 H 0.11134 0.28155 0.69901 0.0
H961 H 0.10087 0.4616 0.61123 0.0
H962 H 0.06291 0.33089 0.62169 0.0
H963 H 0.14793 0.41245 0.68849 0.0
C964 C 0.16382 0.36428 0.70794 0.0
C965 C 0.15479 0.32686 0.70925 0.0
C966 C 0.07051 0.35971 0.61962 0.0
C967 C 0.10642 0.36554 0.67526 0.0
C968 C 0.06571 0.37418 0.58829 0.0
C969 C 0.07823 0.41078 0.58429 0.0
C970 C 0.08875 0.38192 0.6467 0.0
C971 C 0.09229 0.43287 0.61288 0.0
C972 C 0.13926 0.38395 0.69154 0.0
C973 C 0.11945 0.31038 0.69749 0.0
N974 N 0.09798 0.41791 0.64276 0.0
N975 N 0.09682 0.32967 0.67983 0.0
H976 H 0.72601 0.22347 0.62126 0.0
H977 H 0.61617 0.03144 0.55671 0.0
H978 H 0.68023 0.14 0.68426 0.0
H979 H 0.61579 0.12676 0.4993 0.0
H980 H 0.66272 0.06535 0.59701 0.0
H981 H 0.70435 0.18326 0.57135 0.0
C982 C 0.71122 0.19685 0.62454 0.0
C983 C 0.7039 0.18537 0.65679 0.0
C984 C 0.65321 0.07847 0.575 0.0
C985 C 0.68096 0.13906 0.60039 0.0
C986 C 0.627 0.05902 0.55178 0.0
C987 C 0.61133 0.07681 0.52538 0.0
C988 C 0.66371 0.11562 0.57142 0.0
C989 C 0.62656 0.11248 0.51999 0.0
C990 C 0.69935 0.17388 0.5962 0.0
C991 C 0.68545 0.15036 0.65981 0.0
N992 N 0.65137 0.13113 0.54338 0.0
N993 N 0.67461 0.12845 0.63196 0.0
H994 H 0.79218 0.36105 0.30111 0.0
H995 H 0.95865 0.34677 0.4324 0.0
H996 H 0.80479 0.26253 0.35044 0.0
H997 H 0.9242 0.44875 0.40726 0.0
H998 H 0.90119 0.31532 0.40401 0.0
H999 H 0.83731 0.39448 0.34288 0.0
C1000 C 0.80366 0.3467 0.32144 0.0
C1001 C 0.79498 0.3091 0.3224 0.0
C1002 C 0.90608 0.3446 0.40505 0.0
C1003 C 0.84757 0.3467 0.36934 0.0
C1004 C 0.93903 0.36251 0.42086 0.0
C1005 C 0.94627 0.40038 0.42189 0.0
C1006 C 0.88055 0.36476 0.3898 0.0
C1007 C 0.91968 0.41952 0.40705 0.0
C1008 C 0.82958 0.3657 0.34514 0.0
C1009 C 0.81067 0.29161 0.34903 0.0
N1010 N 0.88817 0.4015 0.39133 0.0
N1011 N 0.83695 0.31047 0.37107 0.0
H1012 H 0.6666 0.7578 0.28737 0.0
H1013 H 0.66805 0.90835 0.43751 0.0
H1014 H 0.7623 0.79503 0.35479 0.0
H1015 H 0.56794 0.84318 0.39552 0.0
H1016 H 0.70343 0.87293 0.40206 0.0
H1017 H 0.63046 0.7947 0.32119 0.0
C1018 C 0.68001 0.77379 0.30921 0.0
C1019 C 0.71744 0.77304 0.31846 0.0
C1020 C 0.67371 0.86638 0.40058 0.0
C1021 C 0.67643 0.81571 0.35701 0.0
C1022 C 0.65342 0.8867 0.42079 0.0
C1023 C 0.61481 0.8788 0.41975 0.0
C1024 C 0.65542 0.83816 0.37858 0.0
C1025 C 0.5976 0.85023 0.39745 0.0
C1026 C 0.65937 0.79475 0.32856 0.0
C1027 C 0.73343 0.79446 0.34694 0.0
N1028 N 0.61792 0.83115 0.37771 0.0
N1029 N 0.71297 0.81494 0.36504 0.0
H1030 H 0.11118 0.67133 0.28727 0.0
H1031 H 0.09422 0.62122 0.47803 0.0
H1032 H 0.19659 0.69401 0.36807 0.0
H1033 H 0.02818 0.56041 0.39567 0.0
H1034 H 0.11645 0.66667 0.43924 0.0
H1035 H 0.06787 0.6472 0.32812 0.0
C1036 C 0.12056 0.67165 0.31367 0.0
C1037 C 0.15745 0.6838 0.3245 0.0
C1038 C 0.09642 0.64384 0.42975 0.0
C1039 C 0.10845 0.65763 0.37084 0.0
C1040 C 0.08372 0.61804 0.45182 0.0
C1041 C 0.06019 0.58688 0.43961 0.0
C1042 C 0.08609 0.63789 0.39522 0.0
C1043 C 0.04675 0.58404 0.40573 0.0
C1044 C 0.09594 0.65809 0.33682 0.0
C1045 C 0.16847 0.68413 0.35877 0.0
N1046 N 0.06069 0.60891 0.3843 0.0
N1047 N 0.14408 0.67104 0.38073 0.0
H1048 H 0.28709 0.15812 0.27934 0.0
H1049 H 0.46904 0.1321 0.3939 0.0
H1050 H 0.36887 0.24522 0.32112 0.0
H1051 H 0.36895 0.05689 0.39567 0.0
H1052 H 0.43769 0.16687 0.35358 0.0
H1053 H 0.32141 0.11474 0.30899 0.0
C1054 C 0.31265 0.16801 0.29404 0.0
C1055 C 0.3253 0.20535 0.29764 0.0
C1056 C 0.42265 0.14252 0.36244 0.0
C1057 C 0.36458 0.15609 0.33137 0.0
C1058 C 0.44061 0.12241 0.38548 0.0
C1059 C 0.42166 0.09152 0.39885 0.0
C1060 C 0.3853 0.13182 0.35206 0.0
C1061 C 0.38478 0.08051 0.38634 0.0
C1062 C 0.332 0.14333 0.31119 0.0
C1063 C 0.35817 0.21672 0.31756 0.0
N1064 N 0.36773 0.10077 0.36391 0.0
N1065 N 0.37661 0.19235 0.33346 0.0
H1066 H 0.72834 0.83208 0.69494 0.0
H1067 H 0.54724 0.85963 0.57938 0.0
H1068 H 0.64599 0.74578 0.65262 0.0
H1069 H 0.64652 0.93658 0.58164 0.0
H1070 H 0.57823 0.8239 0.61908 0.0
H1071 H 0.69434 0.876 0.66571 0.0
C1072 C 0.70273 0.82247 0.68021 0.0
C1073 C 0.68985 0.78518 0.67636 0.0
C1074 C 0.5932 0.84881 0.61124 0.0
C1075 C 0.65089 0.83509 0.64303 0.0
C1076 C 0.57541 0.86949 0.58857 0.0
C1077 C 0.59422 0.90123 0.57653 0.0
C1078 C 0.63027 0.85972 0.62257 0.0
C1079 C 0.63078 0.91234 0.58996 0.0
C1080 C 0.68355 0.84747 0.66329 0.0
C1081 C 0.6569 0.77421 0.6564 0.0
N1082 N 0.64768 0.89152 0.61198 0.0
N1083 N 0.63866 0.79887 0.6407 0.0
H1084 H 0.67201 0.10071 0.26816 0.0
H1085 H 0.52147 0.07881 0.40071 0.0
H1086 H 0.63099 0.18832 0.32091 0.0
H1087 H 0.58783 -0.00256 0.37241 0.0
H1088 H 0.54123 0.11301 0.3525 0.0
H1089 H 0.62254 0.05827 0.28842 0.0
C1090 C 0.65247 0.11092 0.28395 0.0
C1091 C 0.65606 0.14761 0.29404 0.0
C1092 C 0.55057 0.08713 0.35634 0.0
C1093 C 0.59955 0.09982 0.31654 0.0
C1094 C 0.5393 0.06769 0.38374 0.0
C1095 C 0.55441 0.03628 0.39097 0.0
C1096 C 0.57693 0.07474 0.33655 0.0
C1097 C 0.57685 0.02243 0.36815 0.0
C1098 C 0.62409 0.08687 0.29509 0.0
C1099 C 0.62963 0.15991 0.31356 0.0
N1100 N 0.58809 0.04219 0.34218 0.0
N1101 N 0.60266 0.13589 0.32466 0.0
H1102 H 0.90657 0.69761 0.29215 0.0
H1103 H 0.92067 0.51251 0.37618 0.0
H1104 H 0.82447 0.60275 0.2836 0.0
H1105 H 0.9682 0.61751 0.42064 0.0
H1106 H 0.90933 0.54008 0.3229 0.0
H1107 H 0.95062 0.66195 0.31924 0.0
C1108 C 0.89833 0.66901 0.29507 0.0
C1109 C 0.8619 0.65299 0.28697 0.0
C1110 C 0.9231 0.55683 0.34416 0.0
C1111 C 0.91157 0.61253 0.31657 0.0
C1112 C 0.92915 0.5413 0.37468 0.0
C1113 C 0.94356 0.56319 0.40329 0.0
C1114 C 0.93117 0.59441 0.34247 0.0
C1115 C 0.95551 0.59997 0.3995 0.0
C1116 C 0.92336 0.64878 0.31027 0.0
C1117 C 0.85221 0.61602 0.29063 0.0
N1118 N 0.94821 0.6147 0.36972 0.0
N1119 N 0.87687 0.597 0.30564 0.0
H1120 H 0.34818 0.83538 0.29112 0.0
H1121 H 0.39699 0.87326 0.48061 0.0
H1122 H 0.28338 0.77392 0.36102 0.0
H1123 H 0.40661 0.95947 0.4118 0.0
H1124 H 0.3521 0.83717 0.44013 0.0
H1125 H 0.37064 0.88068 0.33639 0.0
C1126 C 0.33907 0.8312 0.31613 0.0
C1127 C 0.31453 0.80056 0.32259 0.0
C1128 C 0.36303 0.86447 0.4344 0.0
C1129 C 0.33953 0.85253 0.37425 0.0
C1130 C 0.38839 0.88515 0.45757 0.0
C1131 C 0.40586 0.91902 0.44915 0.0
C1132 C 0.35614 0.87757 0.40247 0.0
C1133 C 0.39391 0.93333 0.41907 0.0
C1134 C 0.35131 0.85739 0.34177 0.0
C1135 C 0.30275 0.79699 0.35522 0.0
N1136 N 0.37065 0.91197 0.39619 0.0
N1137 N 0.31584 0.82245 0.38008 0.0
H1138 H 0.19474 0.38319 0.28786 0.0
H1139 H 0.19813 0.41763 0.47174 0.0
H1140 H 0.29668 0.37558 0.34563 0.0
H1141 H 0.15222 0.49339 0.40857 0.0
H1142 H 0.23844 0.40486 0.42745 0.0
H1143 H 0.18035 0.42697 0.33071 0.0
C1144 C 0.21443 0.39147 0.30919 0.0
C1145 C 0.24654 0.37558 0.31373 0.0
C1146 C 0.2206 0.42535 0.42382 0.0
C1147 C 0.23007 0.4245 0.36279 0.0
C1148 C 0.19774 0.43256 0.44903 0.0
C1149 C 0.17226 0.45653 0.44346 0.0
C1150 C 0.21643 0.44109 0.39264 0.0
C1151 C 0.17189 0.47484 0.41354 0.0
C1152 C 0.2064 0.41654 0.33346 0.0
C1153 C 0.27142 0.38716 0.34157 0.0
N1154 N 0.1929 0.46591 0.38864 0.0
N1155 N 0.26212 0.41016 0.36575 0.0
H1156 H 0.32287 0.18557 0.70497 0.0
H1157 H 0.42124 0.16921 0.53541 0.0
H1158 H 0.29377 0.24716 0.62081 0.0
H1159 H 0.38055 0.07283 0.5847 0.0
H1160 H 0.38717 0.20454 0.57272 0.0
H1161 H 0.35695 0.1501 0.66783 0.0
C1162 C 0.32411 0.19205 0.67888 0.0
C1163 C 0.30561 0.21961 0.66612 0.0
C1164 C 0.38577 0.17566 0.57533 0.0
C1165 C 0.345 0.17942 0.62352 0.0
C1166 C 0.40525 0.15549 0.55414 0.0
C1167 C 0.40361 0.11792 0.55676 0.0
C1168 C 0.36547 0.15846 0.60021 0.0
C1169 C 0.38236 0.10164 0.58156 0.0
C1170 C 0.34328 0.17157 0.65762 0.0
C1171 C 0.30769 0.22626 0.63177 0.0
N1172 N 0.36453 0.12202 0.60258 0.0
N1173 N 0.32733 0.20668 0.61181 0.0
H1174 H 0.85401 0.24908 0.62785 0.0
H1175 H 0.99798 0.41917 0.59135 0.0
H1176 H 0.89462 0.33746 0.69984 0.0
H1177 H 0.9268 0.35275 0.51572 0.0
H1178 H 0.97964 0.37521 0.63326 0.0
H1179 H 0.8995 0.27346 0.58956 0.0
C1180 C 0.87286 0.27337 0.63571 0.0
C1181 C 0.87004 0.29208 0.66639 0.0
C1182 C 0.96884 0.36984 0.60729 0.0
C1183 C 0.92198 0.31964 0.62325 0.0
C1184 C 0.97941 0.39472 0.58344 0.0
C1185 C 0.96319 0.3896 0.55048 0.0
C1186 C 0.942 0.33996 0.59776 0.0
C1187 C 0.93923 0.35776 0.54122 0.0
C1188 C 0.89886 0.28709 0.61401 0.0
C1189 C 0.89548 0.32287 0.67591 0.0
N1190 N 0.92888 0.33429 0.56493 0.0
N1191 N 0.92014 0.33609 0.65412 0.0
H1192 H 0.21936 0.71822 0.62432 0.0
H1193 H 0.0974 0.52598 0.58124 0.0
H1194 H 0.2278 0.62449 0.68239 0.0
H1195 H 0.06474 0.62712 0.551 0.0
H1196 H 0.15525 0.55884 0.60714 0.0
H1197 H 0.17395 0.68127 0.58471 0.0
C1198 C 0.2127 0.68956 0.62799 0.0
C1199 C 0.22697 0.67428 0.65667 0.0
C1200 C 0.13549 0.57378 0.59467 0.0
C1201 C 0.17495 0.63238 0.61214 0.0
C1202 C 0.10249 0.55511 0.57998 0.0
C1203 C 0.07613 0.57397 0.56438 0.0
C1204 C 0.14229 0.61154 0.59347 0.0
C1205 C 0.08408 0.61168 0.56338 0.0
C1206 C 0.18646 0.66867 0.60569 0.0
C1207 C 0.2171 0.63722 0.66063 0.0
N1208 N 0.11653 0.62931 0.57783 0.0
N1209 N 0.19131 0.61754 0.63879 0.0
loop_
_geom_bond_atom_site_label_1
_geom_bond_atom_site_label_2
_geom_bond_distance
_geom_bond_site_symmetry_2
_ccdc_geom_bond_type
Tb0 O3 2.453 . S
Tb0 O4 2.596 . S
Tb0 O5 2.374 . S
Tb0 O13 2.343 . S
Tb0 O15 2.353 . S
Tb0 O17 2.427 . S
Tb0 O18 2.513 . S
C1 O5 1.251 . S
C1 O7 1.263 . S
Tb2 O4 2.343 . S
Tb2 O7 2.353 . S
Tb2 O10 2.427 . S
Tb2 O11 2.513 . S
Tb2 O12 2.453 . S
Tb2 O13 2.596 . S
Tb2 O14 2.374 . S
O3 Tb0 2.453 . S
O3 C19 1.245 . S
O4 Tb0 2.596 . S
O4 Tb2 2.343 . S
O4 C19 1.259 . S
O5 Tb0 2.374 . S
O5 C1 1.251 . S
C6 O10 1.275 . S
C6 O11 1.246 . S
O7 C1 1.263 . S
O7 Tb2 2.353 . S
C8 O12 1.245 . S
C8 O13 1.259 . S
C9 O14 1.250 . S
C9 O15 1.263 . S
O10 Tb2 2.427 . S
O10 C6 1.275 . S
O11 Tb2 2.513 . S
O11 C6 1.246 . S
O12 Tb2 2.453 . S
O12 C8 1.245 . S
O13 Tb0 2.343 . S
O13 Tb2 2.596 . S
O13 C8 1.259 . S
O14 Tb2 2.374 . S
O14 C9 1.250 . S
O15 Tb0 2.353 . S
O15 C9 1.263 . S
C16 O17 1.275 . S
C16 O18 1.246 . S
O17 Tb0 2.427 . S
O17 C16 1.275 . S
O18 Tb0 2.513 . S
O18 C16 1.246 . S
C19 O3 1.245 . S
C19 O4 1.259 . S
Tb20 O23 2.453 . S
Tb20 O24 2.596 . S
Tb20 O25 2.374 . S
Tb20 O33 2.343 . S
Tb20 O35 2.353 . S
Tb20 O37 2.427 . S
Tb20 O38 2.513 . S
C21 O25 1.251 . S
C21 O27 1.263 . S
Tb22 O24 2.343 . S
Tb22 O27 2.353 . S
Tb22 O30 2.427 . S
Tb22 O31 2.513 . S
Tb22 O32 2.453 . S
Tb22 O33 2.596 . S
Tb22 O34 2.374 . S
O23 Tb20 2.453 . S
O23 C39 1.245 . S
O24 Tb20 2.596 . S
O24 Tb22 2.343 . S
O24 C39 1.259 . S
O25 Tb20 2.374 . S
O25 C21 1.251 . S
C26 O30 1.275 . S
C26 O31 1.246 . S
O27 C21 1.263 . S
O27 Tb22 2.353 . S
C28 O32 1.245 . S
C28 O33 1.259 . S
C29 O34 1.250 . S
C29 O35 1.263 . S
O30 Tb22 2.427 . S
O30 C26 1.275 . S
O31 Tb22 2.513 . S
O31 C26 1.246 . S
O32 Tb22 2.453 . S
O32 C28 1.245 . S
O33 Tb20 2.343 . S
O33 Tb22 2.596 . S
O33 C28 1.259 . S
O34 Tb22 2.374 . S
O34 C29 1.250 . S
O35 Tb20 2.353 . S
O35 C29 1.263 . S
C36 O37 1.275 . S
C36 O38 1.246 . S
O37 Tb20 2.427 . S
O37 C36 1.275 . S
O38 Tb20 2.513 . S
O38 C36 1.246 . S
C39 O23 1.245 . S
C39 O24 1.259 . S
Tb40 O43 2.453 . S
Tb40 O44 2.596 . S
Tb40 O45 2.374 . S
Tb40 O53 2.343 . S
Tb40 O55 2.353 . S
Tb40 O57 2.427 . S
Tb40 O58 2.513 . S
C41 O45 1.251 . S
C41 O47 1.263 . S
Tb42 O44 2.343 . S
Tb42 O47 2.353 . S
Tb42 O50 2.427 . S
Tb42 O51 2.513 . S
Tb42 O52 2.453 . S
Tb42 O53 2.596 . S
Tb42 O54 2.374 . S
O43 Tb40 2.453 . S
O43 C59 1.245 . S
O44 Tb40 2.596 . S
O44 Tb42 2.343 . S
O44 C59 1.259 . S
O45 Tb40 2.374 . S
O45 C41 1.251 . S
C46 O50 1.275 . S
C46 O51 1.246 . S
O47 C41 1.263 . S
O47 Tb42 2.353 . S
C48 O52 1.245 . S
C48 O53 1.259 . S
C49 O54 1.250 . S
C49 O55 1.263 . S
O50 Tb42 2.427 . S
O50 C46 1.275 . S
O51 Tb42 2.513 . S
O51 C46 1.246 . S
O52 Tb42 2.453 . S
O52 C48 1.245 . S
O53 Tb40 2.343 . S
O53 Tb42 2.596 . S
O53 C48 1.259 . S
O54 Tb42 2.374 . S
O54 C49 1.250 . S
O55 Tb40 2.353 . S
O55 C49 1.263 . S
C56 O57 1.275 . S
C56 O58 1.246 . S
O57 Tb40 2.427 . S
O57 C56 1.275 . S
O58 Tb40 2.513 . S
O58 C56 1.246 . S
C59 O43 1.245 . S
C59 O44 1.259 . S
Tb60 O63 2.453 . S
Tb60 O64 2.596 . S
Tb60 O65 2.374 . S
Tb60 O73 2.343 . S
Tb60 O75 2.353 . S
Tb60 O77 2.427 . S
Tb60 O78 2.513 . S
C61 O65 1.251 . S
C61 O67 1.263 . S
Tb62 O64 2.343 . S
Tb62 O67 2.353 . S
Tb62 O70 2.427 . S
Tb62 O71 2.513 . S
Tb62 O72 2.453 . S
Tb62 O73 2.596 . S
Tb62 O74 2.374 . S
O63 Tb60 2.453 . S
O63 C79 1.245 . S
O64 Tb60 2.596 . S
O64 Tb62 2.343 . S
O64 C79 1.259 . S
O65 Tb60 2.374 . S
O65 C61 1.251 . S
C66 O70 1.275 . S
C66 O71 1.246 . S
O67 C61 1.263 . S
O67 Tb62 2.353 . S
C68 O72 1.245 . S
C68 O73 1.259 . S
C69 O74 1.250 . S
C69 O75 1.263 . S
O70 Tb62 2.427 . S
O70 C66 1.275 . S
O71 Tb62 2.513 . S
O71 C66 1.246 . S
O72 Tb62 2.453 . S
O72 C68 1.245 . S
O73 Tb60 2.343 . S
O73 Tb62 2.596 . S
O73 C68 1.259 . S
O74 Tb62 2.374 . S
O74 C69 1.250 . S
O75 Tb60 2.353 . S
O75 C69 1.263 . S
C76 O77 1.275 . S
C76 O78 1.246 . S
O77 Tb60 2.427 . S
O77 C76 1.275 . S
O78 Tb60 2.513 . S
O78 C76 1.246 . S
C79 O63 1.245 . S
C79 O64 1.259 . S
Tb80 O83 2.453 . S
Tb80 O84 2.596 . S
Tb80 O85 2.374 . S
Tb80 O93 2.343 . S
Tb80 O95 2.353 . S
Tb80 O97 2.427 . S
Tb80 O98 2.513 . S
C81 O85 1.251 . S
C81 O87 1.263 . S
Tb82 O84 2.343 . S
Tb82 O87 2.353 . S
Tb82 O90 2.427 . S
Tb82 O91 2.513 . S
Tb82 O92 2.453 . S
Tb82 O93 2.596 . S
Tb82 O94 2.374 . S
O83 Tb80 2.453 . S
O83 C99 1.245 . S
O84 Tb80 2.596 . S
O84 Tb82 2.343 . S
O84 C99 1.259 . S
O85 Tb80 2.374 . S
O85 C81 1.251 . S
C86 O90 1.275 . S
C86 O91 1.246 . S
O87 C81 1.263 . S
O87 Tb82 2.353 . S
C88 O92 1.245 . S
C88 O93 1.259 . S
C89 O94 1.250 . S
C89 O95 1.263 . S
O90 Tb82 2.427 . S
O90 C86 1.275 . S
O91 Tb82 2.513 . S
O91 C86 1.246 . S
O92 Tb82 2.453 . S
O92 C88 1.245 . S
O93 Tb80 2.343 . S
O93 Tb82 2.596 . S
O93 C88 1.259 . S
O94 Tb82 2.374 . S
O94 C89 1.250 . S
O95 Tb80 2.353 . S
O95 C89 1.263 . S
C96 O97 1.275 . S
C96 O98 1.246 . S
O97 Tb80 2.427 . S
O97 C96 1.275 . S
O98 Tb80 2.513 . S
O98 C96 1.246 . S
C99 O83 1.245 . S
C99 O84 1.259 . S
Tb100 O103 2.453 . S
Tb100 O104 2.596 . S
Tb100 O105 2.374 . S
Tb100 O113 2.343 . S
Tb100 O115 2.353 . S
Tb100 O117 2.427 . S
Tb100 O118 2.513 . S
C101 O105 1.251 . S
C101 O107 1.263 . S
Tb102 O104 2.343 . S
Tb102 O107 2.353 . S
Tb102 O110 2.427 . S
Tb102 O111 2.513 . S
Tb102 O112 2.453 . S
Tb102 O113 2.596 . S
Tb102 O114 2.374 . S
O103 Tb100 2.453 . S
O103 C119 1.245 . S
O104 Tb100 2.596 . S
O104 Tb102 2.343 . S
O104 C119 1.259 . S
O105 Tb100 2.374 . S
O105 C101 1.251 . S
C106 O110 1.275 . S
C106 O111 1.246 . S
O107 C101 1.263 . S
O107 Tb102 2.353 . S
C108 O112 1.245 . S
C108 O113 1.259 . S
C109 O114 1.250 . S
C109 O115 1.263 . S
O110 Tb102 2.427 . S
O110 C106 1.275 . S
O111 Tb102 2.513 . S
O111 C106 1.246 . S
O112 Tb102 2.453 . S
O112 C108 1.245 . S
O113 Tb100 2.343 . S
O113 Tb102 2.596 . S
O113 C108 1.259 . S
O114 Tb102 2.374 . S
O114 C109 1.250 . S
O115 Tb100 2.353 . S
O115 C109 1.263 . S
C116 O117 1.275 . S
C116 O118 1.246 . S
O117 Tb100 2.427 . S
O117 C116 1.275 . S
O118 Tb100 2.513 . S
O118 C116 1.246 . S
C119 O103 1.245 . S
C119 O104 1.259 . S
Tb120 O123 2.453 . S
Tb120 O124 2.596 . S
Tb120 O125 2.374 . S
Tb120 O133 2.343 . S
Tb120 O135 2.353 . S
Tb120 O137 2.427 . S
Tb120 O138 2.513 . S
C121 O125 1.251 . S
C121 O127 1.263 . S
Tb122 O124 2.343 . S
Tb122 O127 2.353 . S
Tb122 O130 2.427 . S
Tb122 O131 2.513 . S
Tb122 O132 2.453 . S
Tb122 O133 2.596 . S
Tb122 O134 2.374 . S
O123 Tb120 2.453 . S
O123 C139 1.245 . S
O124 Tb120 2.596 . S
O124 Tb122 2.343 . S
O124 C139 1.259 . S
O125 Tb120 2.374 . S
O125 C121 1.251 . S
C126 O130 1.275 . S
C126 O131 1.246 . S
O127 C121 1.263 . S
O127 Tb122 2.353 . S
C128 O132 1.245 . S
C128 O133 1.259 . S
C129 O134 1.250 . S
C129 O135 1.263 . S
O130 Tb122 2.427 . S
O130 C126 1.275 . S
O131 Tb122 2.513 . S
O131 C126 1.246 . S
O132 Tb122 2.453 . S
O132 C128 1.245 . S
O133 Tb120 2.343 . S
O133 Tb122 2.596 . S
O133 C128 1.259 . S
O134 Tb122 2.374 . S
O134 C129 1.250 . S
O135 Tb120 2.353 . S
O135 C129 1.263 . S
C136 O137 1.275 . S
C136 O138 1.246 . S
O137 Tb120 2.427 . S
O137 C136 1.275 . S
O138 Tb120 2.513 . S
O138 C136 1.246 . S
C139 O123 1.245 . S
C139 O124 1.259 . S
Tb140 O143 2.453 . S
Tb140 O144 2.596 . S
Tb140 O145 2.374 . S
Tb140 O153 2.343 . S
Tb140 O155 2.353 . S
Tb140 O157 2.427 . S
Tb140 O158 2.513 . S
C141 O145 1.251 . S
C141 O147 1.263 . S
Tb142 O144 2.343 . S
Tb142 O147 2.353 . S
Tb142 O150 2.427 . S
Tb142 O151 2.513 . S
Tb142 O152 2.453 . S
Tb142 O153 2.596 . S
Tb142 O154 2.374 . S
O143 Tb140 2.453 . S
O143 C159 1.245 . S
O144 Tb140 2.596 . S
O144 Tb142 2.343 . S
O144 C159 1.259 . S
O145 Tb140 2.374 . S
O145 C141 1.251 . S
C146 O150 1.275 . S
C146 O151 1.246 . S
O147 C141 1.263 . S
O147 Tb142 2.353 . S
C148 O152 1.245 . S
C148 O153 1.259 . S
C149 O154 1.250 . S
C149 O155 1.263 . S
O150 Tb142 2.427 . S
O150 C146 1.275 . S
O151 Tb142 2.513 . S
O151 C146 1.246 . S
O152 Tb142 2.453 . S
O152 C148 1.245 . S
O153 Tb140 2.343 . S
O153 Tb142 2.596 . S
O153 C148 1.259 . S
O154 Tb142 2.374 . S
O154 C149 1.250 . S
O155 Tb140 2.353 . S
O155 C149 1.263 . S
C156 O157 1.275 . S
C156 O158 1.246 . S
O157 Tb140 2.427 . S
O157 C156 1.275 . S
O158 Tb140 2.513 . S
O158 C156 1.246 . S
C159 O143 1.245 . S
C159 O144 1.259 . S
C160 O172 1.241 . S
C160 O173 1.280 . S
C161 O174 1.277 . S
C161 O175 1.245 . S
C162 O186 1.247 . S
C162 O188 1.289 . S
Mg163 O164 1.926 . S
Mg163 O173 1.984 . S
Mg163 O175 1.988 . S
Mg163 O176 2.061 1_655 S
O164 Mg163 1.926 . S
O164 Mg165 1.986 . S
O164 Mg166 1.917 1_655 S
Mg165 O164 1.986 . S
Mg165 O172 2.042 . S
Mg165 O174 2.041 . S
Mg165 O180 2.038 1_545 S
Mg165 O188 2.238 1_545 S
Mg166 O164 1.917 1_455 S
Mg166 O167 1.917 1_545 S
Mg166 O177 2.106 . S
Mg166 O179 2.079 1_445 S
Mg166 O188 2.106 1_445 S
Mg166 O189 2.079 . S
O167 Mg166 1.917 1_565 S
O167 Mg168 1.926 . S
O167 Mg169 1.986 . S
Mg168 O167 1.926 . S
Mg168 O182 1.984 . S
Mg168 O185 1.988 . S
Mg168 O186 2.061 1_455 S
Mg169 O167 1.986 . S
Mg169 O177 2.238 1_565 S
Mg169 O181 2.042 . S
Mg169 O183 2.041 . S
Mg169 O190 2.038 1_565 S
C170 O176 1.247 . S
C170 O177 1.289 . S
C171 O189 1.245 . S
C171 O190 1.274 . S
O172 C160 1.241 . S
O172 Mg165 2.042 . S
O173 C160 1.280 . S
O173 Mg163 1.984 . S
O174 C161 1.277 . S
O174 Mg165 2.041 . S
O175 C161 1.245 . S
O175 Mg163 1.988 . S
O176 Mg163 2.061 1_455 S
O176 C170 1.247 . S
O177 Mg166 2.106 . S
O177 Mg169 2.238 1_545 S
O177 C170 1.289 . S
C178 O179 1.245 . S
C178 O180 1.274 . S
O179 Mg166 2.079 1_665 S
O179 C178 1.245 . S
O180 Mg165 2.038 1_565 S
O180 C178 1.274 . S
O181 Mg169 2.042 . S
O181 C184 1.241 . S
O182 Mg168 1.984 . S
O182 C184 1.280 . S
O183 Mg169 2.041 . S
O183 C187 1.277 . S
C184 O181 1.241 . S
C184 O182 1.280 . S
O185 Mg168 1.988 . S
O185 C187 1.245 . S
O186 C162 1.247 . S
O186 Mg168 2.061 1_655 S
C187 O183 1.277 . S
C187 O185 1.245 . S
O188 C162 1.289 . S
O188 Mg165 2.238 1_565 S
O188 Mg166 2.106 1_665 S
O189 Mg166 2.079 . S
O189 C171 1.245 . S
O190 Mg169 2.038 1_545 S
O190 C171 1.274 . S
C191 O203 1.241 . S
C191 O204 1.280 . S
C192 O205 1.277 . S
C192 O206 1.245 . S
C193 O217 1.247 . S
C193 O219 1.289 . S
Mg194 O195 1.926 . S
Mg194 O204 1.984 . S
Mg194 O206 1.988 1_554 S
Mg194 O207 2.061 . S
O195 Mg194 1.926 . S
O195 Mg196 1.986 1_554 S
O195 Mg197 1.917 . S
Mg196 O195 1.986 1_556 S
Mg196 O203 2.042 1_556 S
Mg196 O205 2.041 . S
Mg196 O211 2.038 1_546 S
Mg196 O219 2.238 1_545 S
Mg197 O195 1.917 . S
Mg197 O198 1.917 1_544 S
Mg197 O208 2.106 . S
Mg197 O210 2.079 1_545 S
Mg197 O219 2.106 1_544 S
Mg197 O220 2.079 1_554 S
O198 Mg197 1.917 1_566 S
O198 Mg199 1.926 . S
O198 Mg200 1.986 1_556 S
Mg199 O198 1.926 . S
Mg199 O213 1.984 . S
Mg199 O216 1.988 1_556 S
Mg199 O217 2.061 . S
Mg200 O198 1.986 1_554 S
Mg200 O208 2.238 1_565 S
Mg200 O212 2.042 1_554 S
Mg200 O214 2.041 . S
Mg200 O221 2.038 1_564 S
C201 O207 1.247 . S
C201 O208 1.289 . S
C202 O220 1.245 . S
C202 O221 1.274 . S
O203 C191 1.241 . S
O203 Mg196 2.042 1_554 S
O204 C191 1.280 . S
O204 Mg194 1.984 . S
O205 C192 1.277 . S
O205 Mg196 2.041 . S
O206 C192 1.245 . S
O206 Mg194 1.988 1_556 S
O207 Mg194 2.061 . S
O207 C201 1.247 . S
O208 Mg197 2.106 . S
O208 Mg200 2.238 1_545 S
O208 C201 1.289 . S
C209 O210 1.245 . S
C209 O211 1.274 . S
O210 Mg197 2.079 1_565 S
O210 C209 1.245 . S
O211 Mg196 2.038 1_564 S
O211 C209 1.274 . S
O212 Mg200 2.042 1_556 S
O212 C215 1.241 . S
O213 Mg199 1.984 . S
O213 C215 1.280 . S
O214 Mg200 2.041 . S
O214 C218 1.277 . S
C215 O212 1.241 . S
C215 O213 1.280 . S
O216 Mg199 1.988 1_554 S
O216 C218 1.245 . S
O217 C193 1.247 . S
O217 Mg199 2.061 . S
C218 O214 1.277 . S
C218 O216 1.245 . S
O219 C193 1.289 . S
O219 Mg196 2.238 1_565 S
O219 Mg197 2.106 1_566 S
O220 Mg197 2.079 1_556 S
O220 C202 1.245 . S
O221 Mg200 2.038 1_546 S
O221 C202 1.274 . S
C222 O234 1.241 . S
C222 O235 1.280 . S
C223 O236 1.277 . S
C223 O237 1.245 . S
C224 O248 1.247 . S
C224 O250 1.289 . S
Mg225 O226 1.926 . S
Mg225 O235 1.984 . S
Mg225 O237 1.988 1_554 S
Mg225 O238 2.061 1_655 S
O226 Mg225 1.926 . S
O226 Mg227 1.986 1_554 S
O226 Mg228 1.917 1_655 S
Mg227 O226 1.986 1_556 S
Mg227 O234 2.042 1_556 S
Mg227 O236 2.041 . S
Mg227 O242 2.038 1_556 S
Mg227 O250 2.238 . S
Mg228 O226 1.917 1_455 S
Mg228 O229 1.917 1_554 S
Mg228 O239 2.106 . S
Mg228 O241 2.079 1_455 S
Mg228 O250 2.106 1_454 S
Mg228 O251 2.079 1_554 S
O229 Mg228 1.917 1_556 S
O229 Mg230 1.926 . S
O229 Mg231 1.986 1_556 S
Mg230 O229 1.926 . S
Mg230 O244 1.984 . S
Mg230 O247 1.988 1_556 S
Mg230 O248 2.061 1_455 S
Mg231 O229 1.986 1_554 S
Mg231 O239 2.238 . S
Mg231 O243 2.042 1_554 S
Mg231 O245 2.041 . S
Mg231 O252 2.038 1_554 S
C232 O238 1.247 . S
C232 O239 1.289 . S
C233 O251 1.245 . S
C233 O252 1.274 . S
O234 C222 1.241 . S
O234 Mg227 2.042 1_554 S
O235 C222 1.280 . S
O235 Mg225 1.984 . S
O236 C223 1.277 . S
O236 Mg227 2.041 . S
O237 C223 1.245 . S
O237 Mg225 1.988 1_556 S
O238 Mg225 2.061 1_455 S
O238 C232 1.247 . S
O239 Mg228 2.106 . S
O239 Mg231 2.238 . S
O239 C232 1.289 . S
C240 O241 1.245 . S
C240 O242 1.274 . S
O241 Mg228 2.079 1_655 S
O241 C240 1.245 . S
O242 Mg227 2.038 1_554 S
O242 C240 1.274 . S
O243 Mg231 2.042 1_556 S
O243 C246 1.241 . S
O244 Mg230 1.984 . S
O244 C246 1.280 . S
O245 Mg231 2.041 . S
O245 C249 1.277 . S
C246 O243 1.241 . S
C246 O244 1.280 . S
O247 Mg230 1.988 1_554 S
O247 C249 1.245 . S
O248 C224 1.247 . S
O248 Mg230 2.061 1_655 S
C249 O245 1.277 . S
C249 O247 1.245 . S
O250 C224 1.289 . S
O250 Mg227 2.238 . S
O250 Mg228 2.106 1_656 S
O251 Mg228 2.079 1_556 S
O251 C233 1.245 . S
O252 Mg231 2.038 1_556 S
O252 C233 1.274 . S
C253 O265 1.241 . S
C253 O266 1.280 . S
C254 O267 1.277 . S
C254 O268 1.245 . S
C255 O279 1.247 . S
C255 O281 1.289 . S
Mg256 O257 1.926 . S
Mg256 O266 1.984 . S
Mg256 O268 1.988 1_554 S
Mg256 O269 2.061 . S
O257 Mg256 1.926 . S
O257 Mg258 1.986 1_554 S
O257 Mg259 1.917 . S
Mg258 O257 1.986 1_556 S
Mg258 O265 2.042 1_556 S
Mg258 O267 2.041 . S
Mg258 O273 2.038 1_556 S
Mg258 O281 2.238 . S
Mg259 O257 1.917 . S
Mg259 O260 1.917 1_554 S
Mg259 O270 2.106 . S
Mg259 O272 2.079 . S
Mg259 O281 2.106 1_554 S
Mg259 O282 2.079 1_554 S
O260 Mg259 1.917 1_556 S
O260 Mg261 1.926 . S
O260 Mg262 1.986 1_556 S
Mg261 O260 1.926 . S
Mg261 O275 1.984 . S
Mg261 O278 1.988 1_556 S
Mg261 O279 2.061 . S
Mg262 O260 1.986 1_554 S
Mg262 O270 2.238 . S
Mg262 O274 2.042 1_554 S
Mg262 O276 2.041 . S
Mg262 O283 2.038 1_554 S
C263 O269 1.247 . S
C263 O270 1.289 . S
C264 O282 1.245 . S
C264 O283 1.274 . S
O265 C253 1.241 . S
O265 Mg258 2.042 1_554 S
O266 C253 1.280 . S
O266 Mg256 1.984 . S
O267 C254 1.277 . S
O267 Mg258 2.041 . S
O268 C254 1.245 . S
O268 Mg256 1.988 1_556 S
O269 Mg256 2.061 . S
O269 C263 1.247 . S
O270 Mg259 2.106 . S
O270 Mg262 2.238 . S
O270 C263 1.289 . S
C271 O272 1.245 . S
C271 O273 1.274 . S
O272 Mg259 2.079 . S
O272 C271 1.245 . S
O273 Mg258 2.038 1_554 S
O273 C271 1.274 . S
O274 Mg262 2.042 1_556 S
O274 C277 1.241 . S
O275 Mg261 1.984 . S
O275 C277 1.280 . S
O276 Mg262 2.041 . S
O276 C280 1.277 . S
C277 O274 1.241 . S
C277 O275 1.280 . S
O278 Mg261 1.988 1_554 S
O278 C280 1.245 . S
O279 C255 1.247 . S
O279 Mg261 2.061 . S
C280 O276 1.277 . S
C280 O278 1.245 . S
O281 C255 1.289 . S
O281 Mg258 2.238 . S
O281 Mg259 2.106 1_556 S
O282 Mg259 2.079 1_556 S
O282 C264 1.245 . S
O283 Mg262 2.038 1_556 S
O283 C264 1.274 . S
C284 O296 1.241 . S
C284 O297 1.280 . S
C285 O298 1.277 . S
C285 O299 1.245 . S
C286 O310 1.247 . S
C286 O312 1.289 . S
Mg287 O288 1.926 . S
Mg287 O297 1.984 . S
Mg287 O299 1.988 . S
Mg287 O300 2.061 1_655 S
O288 Mg287 1.926 . S
O288 Mg289 1.986 . S
O288 Mg290 1.917 1_655 S
Mg289 O288 1.986 . S
Mg289 O296 2.042 . S
Mg289 O298 2.041 . S
Mg289 O304 2.038 . S
Mg289 O312 2.238 . S
Mg290 O288 1.917 1_455 S
Mg290 O291 1.917 . S
Mg290 O301 2.106 . S
Mg290 O303 2.079 1_455 S
Mg290 O312 2.106 1_455 S
Mg290 O313 2.079 . S
O291 Mg290 1.917 . S
O291 Mg292 1.926 . S
O291 Mg293 1.986 . S
Mg292 O291 1.926 . S
Mg292 O306 1.984 . S
Mg292 O309 1.988 . S
Mg292 O310 2.061 1_455 S
Mg293 O291 1.986 . S
Mg293 O301 2.238 . S
Mg293 O305 2.042 . S
Mg293 O307 2.041 . S
Mg293 O314 2.038 . S
C294 O300 1.247 . S
C294 O301 1.289 . S
C295 O313 1.245 . S
C295 O314 1.274 . S
O296 C284 1.241 . S
O296 Mg289 2.042 . S
O297 C284 1.280 . S
O297 Mg287 1.984 . S
O298 C285 1.277 . S
O298 Mg289 2.041 . S
O299 C285 1.245 . S
O299 Mg287 1.988 . S
O300 Mg287 2.061 1_455 S
O300 C294 1.247 . S
O301 Mg290 2.106 . S
O301 Mg293 2.238 . S
O301 C294 1.289 . S
C302 O303 1.245 . S
C302 O304 1.274 . S
O303 Mg290 2.079 1_655 S
O303 C302 1.245 . S
O304 Mg289 2.038 . S
O304 C302 1.274 . S
O305 Mg293 2.042 . S
O305 C308 1.241 . S
O306 Mg292 1.984 . S
O306 C308 1.280 . S
O307 Mg293 2.041 . S
O307 C311 1.277 . S
C308 O305 1.241 . S
C308 O306 1.280 . S
O309 Mg292 1.988 . S
O309 C311 1.245 . S
O310 C286 1.247 . S
O310 Mg292 2.061 1_655 S
C311 O307 1.277 . S
C311 O309 1.245 . S
O312 C286 1.289 . S
O312 Mg289 2.238 . S
O312 Mg290 2.106 1_655 S
O313 Mg290 2.079 . S
O313 C295 1.245 . S
O314 Mg293 2.038 . S
O314 C295 1.274 . S
C315 O327 1.241 . S
C315 O328 1.280 . S
C316 O329 1.277 . S
C316 O330 1.245 . S
C317 O341 1.247 . S
C317 O343 1.289 . S
Mg318 O319 1.926 . S
Mg318 O328 1.984 . S
Mg318 O330 1.988 . S
Mg318 O331 2.061 . S
O319 Mg318 1.926 . S
O319 Mg320 1.986 . S
O319 Mg321 1.917 . S
Mg320 O319 1.986 . S
Mg320 O327 2.042 . S
Mg320 O329 2.041 . S
Mg320 O335 2.038 1_545 S
Mg320 O343 2.238 1_545 S
Mg321 O319 1.917 . S
Mg321 O322 1.917 1_545 S
Mg321 O332 2.106 . S
Mg321 O334 2.079 1_545 S
Mg321 O343 2.106 1_545 S
Mg321 O344 2.079 . S
O322 Mg321 1.917 1_565 S
O322 Mg323 1.926 . S
O322 Mg324 1.986 . S
Mg323 O322 1.926 . S
Mg323 O337 1.984 . S
Mg323 O340 1.988 . S
Mg323 O341 2.061 . S
Mg324 O322 1.986 . S
Mg324 O332 2.238 1_565 S
Mg324 O336 2.042 . S
Mg324 O338 2.041 . S
Mg324 O345 2.038 1_565 S
C325 O331 1.247 . S
C325 O332 1.289 . S
C326 O344 1.245 . S
C326 O345 1.274 . S
O327 C315 1.241 . S
O327 Mg320 2.042 . S
O328 C315 1.280 . S
O328 Mg318 1.984 . S
O329 C316 1.277 . S
O329 Mg320 2.041 . S
O330 C316 1.245 . S
O330 Mg318 1.988 . S
O331 Mg318 2.061 . S
O331 C325 1.247 . S
O332 Mg321 2.106 . S
O332 Mg324 2.238 1_545 S
O332 C325 1.289 . S
C333 O334 1.245 . S
C333 O335 1.274 . S
O334 Mg321 2.079 1_565 S
O334 C333 1.245 . S
O335 Mg320 2.038 1_565 S
O335 C333 1.274 . S
O336 Mg324 2.042 . S
O336 C339 1.241 . S
O337 Mg323 1.984 . S
O337 C339 1.280 . S
O338 Mg324 2.041 . S
O338 C342 1.277 . S
C339 O336 1.241 . S
C339 O337 1.280 . S
O340 Mg323 1.988 . S
O340 C342 1.245 . S
O341 C317 1.247 . S
O341 Mg323 2.061 . S
C342 O338 1.277 . S
C342 O340 1.245 . S
O343 C317 1.289 . S
O343 Mg320 2.238 1_565 S
O343 Mg321 2.106 1_565 S
O344 Mg321 2.079 . S
O344 C326 1.245 . S
O345 Mg324 2.038 1_545 S
O345 C326 1.274 . S
H346 C352 0.930 . S
H347 C356 0.930 . S
H348 C361 0.929 . S
H349 C359 0.929 . S
H350 C354 0.929 . S
H351 C360 0.929 . S
C352 H346 0.930 . S
C352 C353 1.367 . S
C352 C360 1.378 . S
C353 C352 1.367 . S
C353 C361 1.433 . S
C354 H350 0.929 . S
C354 C356 1.378 . S
C354 C358 1.350 . S
C355 C358 1.463 . S
C355 C360 1.350 . S
C355 N363 1.427 . S
C356 H347 0.930 . S
C356 C354 1.378 . S
C356 C357 1.367 . S
C357 C356 1.367 . S
C357 C359 1.433 . S
C358 C354 1.350 . S
C358 C355 1.463 . S
C358 N362 1.427 . S
C359 H349 0.929 . S
C359 C357 1.433 . S
C359 N362 1.384 . S
C360 H351 0.929 . S
C360 C352 1.378 . S
C360 C355 1.350 . S
C361 H348 0.929 . S
C361 C353 1.433 . S
C361 N363 1.384 . S
N362 C358 1.427 . S
N362 C359 1.384 . S
N363 C355 1.427 . S
N363 C361 1.384 . S
H364 C370 0.930 . S
H365 C374 0.930 . S
H366 C379 0.929 . S
H367 C377 0.929 . S
H368 C372 0.929 . S
H369 C378 0.929 . S
C370 H364 0.930 . S
C370 C371 1.367 . S
C370 C378 1.378 . S
C371 C370 1.367 . S
C371 C379 1.433 . S
C372 H368 0.929 . S
C372 C374 1.378 . S
C372 C376 1.350 . S
C373 C376 1.463 . S
C373 C378 1.350 . S
C373 N381 1.427 . S
C374 H365 0.930 . S
C374 C372 1.378 . S
C374 C375 1.367 . S
C375 C374 1.367 . S
C375 C377 1.433 . S
C376 C372 1.350 . S
C376 C373 1.463 . S
C376 N380 1.427 . S
C377 H367 0.929 . S
C377 C375 1.433 . S
C377 N380 1.384 . S
C378 H369 0.929 . S
C378 C370 1.378 . S
C378 C373 1.350 . S
C379 H366 0.929 . S
C379 C371 1.433 . S
C379 N381 1.384 . S
N380 C376 1.427 . S
N380 C377 1.384 . S
N381 C373 1.427 . S
N381 C379 1.384 . S
H382 C388 0.930 . S
H383 C392 0.930 . S
H384 C397 0.929 . S
H385 C395 0.929 . S
H386 C390 0.929 . S
H387 C396 0.929 . S
C388 H382 0.930 . S
C388 C389 1.367 . S
C388 C396 1.378 . S
C389 C388 1.367 . S
C389 C397 1.433 . S
C390 H386 0.929 . S
C390 C392 1.378 . S
C390 C394 1.350 . S
C391 C394 1.463 . S
C391 C396 1.350 . S
C391 N399 1.427 . S
C392 H383 0.930 . S
C392 C390 1.378 . S
C392 C393 1.367 . S
C393 C392 1.367 . S
C393 C395 1.433 . S
C394 C390 1.350 . S
C394 C391 1.463 . S
C394 N398 1.427 . S
C395 H385 0.929 . S
C395 C393 1.433 . S
C395 N398 1.384 . S
C396 H387 0.929 . S
C396 C388 1.378 . S
C396 C391 1.350 . S
C397 H384 0.929 . S
C397 C389 1.433 . S
C397 N399 1.384 . S
N398 C394 1.427 . S
N398 C395 1.384 . S
N399 C391 1.427 . S
N399 C397 1.384 . S
H400 C406 0.930 . S
H401 C410 0.930 . S
H402 C415 0.929 . S
H403 C413 0.929 . S
H404 C408 0.929 . S
H405 C414 0.929 . S
C406 H400 0.930 . S
C406 C407 1.367 . S
C406 C414 1.378 . S
C407 C406 1.367 . S
C407 C415 1.433 . S
C408 H404 0.929 . S
C408 C410 1.378 . S
C408 C412 1.350 . S
C409 C412 1.463 . S
C409 C414 1.350 . S
C409 N417 1.427 . S
C410 H401 0.930 . S
C410 C408 1.378 . S
C410 C411 1.367 . S
C411 C410 1.367 . S
C411 C413 1.433 . S
C412 C408 1.350 . S
C412 C409 1.463 . S
C412 N416 1.427 . S
C413 H403 0.929 . S
C413 C411 1.433 . S
C413 N416 1.384 . S
C414 H405 0.929 . S
C414 C406 1.378 . S
C414 C409 1.350 . S
C415 H402 0.929 . S
C415 C407 1.433 . S
C415 N417 1.384 . S
N416 C412 1.427 . S
N416 C413 1.384 . S
N417 C409 1.427 . S
N417 C415 1.384 . S
H418 C424 0.930 . S
H419 C428 0.930 . S
H420 C433 0.929 . S
H421 C431 0.929 . S
H422 C426 0.929 . S
H423 C432 0.929 . S
C424 H418 0.930 . S
C424 C425 1.367 . S
C424 C432 1.378 . S
C425 C424 1.367 . S
C425 C433 1.433 . S
C426 H422 0.929 . S
C426 C428 1.378 . S
C426 C430 1.350 . S
C427 C430 1.463 . S
C427 C432 1.350 . S
C427 N435 1.427 . S
C428 H419 0.930 . S
C428 C426 1.378 . S
C428 C429 1.367 . S
C429 C428 1.367 . S
C429 C431 1.433 . S
C430 C426 1.350 . S
C430 C427 1.463 . S
C430 N434 1.427 . S
C431 H421 0.929 . S
C431 C429 1.433 . S
C431 N434 1.384 . S
C432 H423 0.929 . S
C432 C424 1.378 . S
C432 C427 1.350 . S
C433 H420 0.929 . S
C433 C425 1.433 . S
C433 N435 1.384 . S
N434 C430 1.427 . S
N434 C431 1.384 . S
N435 C427 1.427 . S
N435 C433 1.384 . S
H436 C442 0.930 . S
H437 C446 0.930 . S
H438 C451 0.929 . S
H439 C449 0.929 . S
H440 C444 0.929 . S
H441 C450 0.929 . S
C442 H436 0.930 . S
C442 C443 1.367 . S
C442 C450 1.378 . S
C443 C442 1.367 . S
C443 C451 1.433 . S
C444 H440 0.929 . S
C444 C446 1.378 . S
C444 C448 1.350 . S
C445 C448 1.463 . S
C445 C450 1.350 . S
C445 N453 1.427 . S
C446 H437 0.930 . S
C446 C444 1.378 . S
C446 C447 1.367 . S
C447 C446 1.367 . S
C447 C449 1.433 . S
C448 C444 1.350 . S
C448 C445 1.463 . S
C448 N452 1.427 . S
C449 H439 0.929 . S
C449 C447 1.433 . S
C449 N452 1.384 . S
C450 H441 0.929 . S
C450 C442 1.378 . S
C450 C445 1.350 . S
C451 H438 0.929 . S
C451 C443 1.433 . S
C451 N453 1.384 . S
N452 C448 1.427 . S
N452 C449 1.384 . S
N453 C445 1.427 . S
N453 C451 1.384 . S
H454 C460 0.930 . S
H455 C464 0.930 . S
H456 C469 0.929 . S
H457 C467 0.929 . S
H458 C462 0.929 . S
H459 C468 0.929 . S
C460 H454 0.930 . S
C460 C461 1.367 . S
C460 C468 1.378 . S
C461 C460 1.367 . S
C461 C469 1.433 . S
C462 H458 0.929 . S
C462 C464 1.378 . S
C462 C466 1.350 . S
C463 C466 1.463 . S
C463 C468 1.350 . S
C463 N471 1.427 . S
C464 H455 0.930 . S
C464 C462 1.378 . S
C464 C465 1.367 . S
C465 C464 1.367 . S
C465 C467 1.433 . S
C466 C462 1.350 . S
C466 C463 1.463 . S
C466 N470 1.427 . S
C467 H457 0.929 . S
C467 C465 1.433 . S
C467 N470 1.384 . S
C468 H459 0.929 . S
C468 C460 1.378 . S
C468 C463 1.350 . S
C469 H456 0.929 . S
C469 C461 1.433 . S
C469 N471 1.384 . S
N470 C466 1.427 . S
N470 C467 1.384 . S
N471 C463 1.427 . S
N471 C469 1.384 . S
H472 C478 0.930 . S
H473 C482 0.930 . S
H474 C487 0.929 . S
H475 C485 0.929 . S
H476 C480 0.929 . S
H477 C486 0.929 . S
C478 H472 0.930 . S
C478 C479 1.367 . S
C478 C486 1.378 . S
C479 C478 1.367 . S
C479 C487 1.433 . S
C480 H476 0.929 . S
C480 C482 1.378 . S
C480 C484 1.350 . S
C481 C484 1.463 . S
C481 C486 1.350 . S
C481 N489 1.427 . S
C482 H473 0.930 . S
C482 C480 1.378 . S
C482 C483 1.367 . S
C483 C482 1.367 . S
C483 C485 1.433 . S
C484 C480 1.350 . S
C484 C481 1.463 . S
C484 N488 1.427 . S
C485 H475 0.929 . S
C485 C483 1.433 . S
C485 N488 1.384 . S
C486 H477 0.929 . S
C486 C478 1.378 . S
C486 C481 1.350 . S
C487 H474 0.929 . S
C487 C479 1.433 . S
C487 N489 1.384 . S
N488 C484 1.427 . S
N488 C485 1.384 . S
N489 C481 1.427 . S
N489 C487 1.384 . S
H490 C496 0.930 . S
H491 C500 0.930 . S
H492 C505 0.929 . S
H493 C503 0.929 . S
H494 C498 0.929 . S
H495 C504 0.929 . S
C496 H490 0.930 . S
C496 C497 1.367 . S
C496 C504 1.378 . S
C497 C496 1.367 . S
C497 C505 1.433 . S
C498 H494 0.929 . S
C498 C500 1.378 . S
C498 C502 1.350 . S
C499 C502 1.463 . S
C499 C504 1.350 . S
C499 N507 1.427 . S
C500 H491 0.930 . S
C500 C498 1.378 . S
C500 C501 1.367 . S
C501 C500 1.367 . S
C501 C503 1.433 . S
C502 C498 1.350 . S
C502 C499 1.463 . S
C502 N506 1.427 . S
C503 H493 0.929 . S
C503 C501 1.433 . S
C503 N506 1.384 . S
C504 H495 0.929 . S
C504 C496 1.378 . S
C504 C499 1.350 . S
C505 H492 0.929 . S
C505 C497 1.433 . S
C505 N507 1.384 . S
N506 C502 1.427 . S
N506 C503 1.384 . S
N507 C499 1.427 . S
N507 C505 1.384 . S
H508 C514 0.930 . S
H509 C518 0.930 . S
H510 C523 0.929 . S
H511 C521 0.929 . S
H512 C516 0.929 . S
H513 C522 0.929 . S
C514 H508 0.930 . S
C514 C515 1.367 . S
C514 C522 1.378 . S
C515 C514 1.367 . S
C515 C523 1.433 . S
C516 H512 0.929 . S
C516 C518 1.378 . S
C516 C520 1.350 . S
C517 C520 1.463 . S
C517 C522 1.350 . S
C517 N525 1.427 . S
C518 H509 0.930 . S
C518 C516 1.378 . S
C518 C519 1.367 . S
C519 C518 1.367 . S
C519 C521 1.433 . S
C520 C516 1.350 . S
C520 C517 1.463 . S
C520 N524 1.427 . S
C521 H511 0.929 . S
C521 C519 1.433 . S
C521 N524 1.384 . S
C522 H513 0.929 . S
C522 C514 1.378 . S
C522 C517 1.350 . S
C523 H510 0.929 . S
C523 C515 1.433 . S
C523 N525 1.384 . S
N524 C520 1.427 . S
N524 C521 1.384 . S
N525 C517 1.427 . S
N525 C523 1.384 . S
H526 C532 0.930 . S
H527 C536 0.930 . S
H528 C541 0.929 . S
H529 C539 0.929 . S
H530 C534 0.929 . S
H531 C540 0.929 . S
C532 H526 0.930 . S
C532 C533 1.367 . S
C532 C540 1.378 . S
C533 C532 1.367 . S
C533 C541 1.433 . S
C534 H530 0.929 . S
C534 C536 1.378 . S
C534 C538 1.350 . S
C535 C538 1.463 . S
C535 C540 1.350 . S
C535 N543 1.427 . S
C536 H527 0.930 . S
C536 C534 1.378 . S
C536 C537 1.367 . S
C537 C536 1.367 . S
C537 C539 1.433 . S
C538 C534 1.350 . S
C538 C535 1.463 . S
C538 N542 1.427 . S
C539 H529 0.929 . S
C539 C537 1.433 . S
C539 N542 1.384 . S
C540 H531 0.929 . S
C540 C532 1.378 . S
C540 C535 1.350 . S
C541 H528 0.929 . S
C541 C533 1.433 . S
C541 N543 1.384 . S
N542 C538 1.427 . S
N542 C539 1.384 . S
N543 C535 1.427 . S
N543 C541 1.384 . S
H544 C550 0.930 . S
H545 C554 0.930 . S
H546 C559 0.929 . S
H547 C557 0.929 . S
H548 C552 0.929 . S
H549 C558 0.929 . S
C550 H544 0.930 . S
C550 C551 1.367 . S
C550 C558 1.378 . S
C551 C550 1.367 . S
C551 C559 1.433 . S
C552 H548 0.929 . S
C552 C554 1.378 . S
C552 C556 1.350 . S
C553 C556 1.463 . S
C553 C558 1.350 . S
C553 N561 1.427 . S
C554 H545 0.930 . S
C554 C552 1.378 . S
C554 C555 1.367 . S
C555 C554 1.367 . S
C555 C557 1.433 . S
C556 C552 1.350 . S
C556 C553 1.463 . S
C556 N560 1.427 . S
C557 H547 0.929 . S
C557 C555 1.433 . S
C557 N560 1.384 . S
C558 H549 0.929 . S
C558 C550 1.378 . S
C558 C553 1.350 . S
C559 H546 0.929 . S
C559 C551 1.433 . S
C559 N561 1.384 . S
N560 C556 1.427 . S
N560 C557 1.384 . S
N561 C553 1.427 . S
N561 C559 1.384 . S
H562 C568 0.930 . S
H563 C572 0.930 . S
H564 C577 0.929 . S
H565 C575 0.929 . S
H566 C570 0.929 . S
H567 C576 0.929 . S
C568 H562 0.930 . S
C568 C569 1.367 . S
C568 C576 1.378 . S
C569 C568 1.367 . S
C569 C577 1.433 . S
C570 H566 0.929 . S
C570 C572 1.378 . S
C570 C574 1.350 . S
C571 C574 1.463 . S
C571 C576 1.350 . S
C571 N579 1.427 . S
C572 H563 0.930 . S
C572 C570 1.378 . S
C572 C573 1.367 . S
C573 C572 1.367 . S
C573 C575 1.433 . S
C574 C570 1.350 . S
C574 C571 1.463 . S
C574 N578 1.427 . S
C575 H565 0.929 . S
C575 C573 1.433 . S
C575 N578 1.384 . S
C576 H567 0.929 . S
C576 C568 1.378 . S
C576 C571 1.350 . S
C577 H564 0.929 . S
C577 C569 1.433 . S
C577 N579 1.384 . S
N578 C574 1.427 . S
N578 C575 1.384 . S
N579 C571 1.427 . S
N579 C577 1.384 . S
H580 C586 0.930 . S
H581 C590 0.930 . S
H582 C595 0.929 . S
H583 C593 0.929 . S
H584 C588 0.929 . S
H585 C594 0.929 . S
C586 H580 0.930 . S
C586 C587 1.367 . S
C586 C594 1.378 . S
C587 C586 1.367 . S
C587 C595 1.433 . S
C588 H584 0.929 . S
C588 C590 1.378 . S
C588 C592 1.350 . S
C589 C592 1.463 . S
C589 C594 1.350 . S
C589 N597 1.427 . S
C590 H581 0.930 . S
C590 C588 1.378 . S
C590 C591 1.367 . S
C591 C590 1.367 . S
C591 C593 1.433 . S
C592 C588 1.350 . S
C592 C589 1.463 . S
C592 N596 1.427 . S
C593 H583 0.929 . S
C593 C591 1.433 . S
C593 N596 1.384 . S
C594 H585 0.929 . S
C594 C586 1.378 . S
C594 C589 1.350 . S
C595 H582 0.929 . S
C595 C587 1.433 . S
C595 N597 1.384 . S
N596 C592 1.427 . S
N596 C593 1.384 . S
N597 C589 1.427 . S
N597 C595 1.384 . S
H598 C604 0.930 . S
H599 C608 0.930 . S
H600 C613 0.929 . S
H601 C611 0.929 . S
H602 C606 0.929 . S
H603 C612 0.929 . S
C604 H598 0.930 . S
C604 C605 1.367 . S
C604 C612 1.378 . S
C605 C604 1.367 . S
C605 C613 1.433 . S
C606 H602 0.929 . S
C606 C608 1.378 . S
C606 C610 1.350 . S
C607 C610 1.463 . S
C607 C612 1.350 . S
C607 N615 1.427 . S
C608 H599 0.930 . S
C608 C606 1.378 . S
C608 C609 1.367 . S
C609 C608 1.367 . S
C609 C611 1.433 . S
C610 C606 1.350 . S
C610 C607 1.463 . S
C610 N614 1.427 . S
C611 H601 0.929 . S
C611 C609 1.433 . S
C611 N614 1.384 . S
C612 H603 0.929 . S
C612 C604 1.378 . S
C612 C607 1.350 . S
C613 H600 0.929 . S
C613 C605 1.433 . S
C613 N615 1.384 . S
N614 C610 1.427 . S
N614 C611 1.384 . S
N615 C607 1.427 . S
N615 C613 1.384 . S
H616 C622 0.930 . S
H617 C626 0.930 . S
H618 C631 0.929 . S
H619 C629 0.929 . S
H620 C624 0.929 . S
H621 C630 0.929 . S
C622 H616 0.930 . S
C622 C623 1.367 . S
C622 C630 1.378 . S
C623 C622 1.367 . S
C623 C631 1.433 . S
C624 H620 0.929 . S
C624 C626 1.378 . S
C624 C628 1.350 . S
C625 C628 1.463 . S
C625 C630 1.350 . S
C625 N633 1.427 . S
C626 H617 0.930 . S
C626 C624 1.378 . S
C626 C627 1.367 . S
C627 C626 1.367 . S
C627 C629 1.433 . S
C628 C624 1.350 . S
C628 C625 1.463 . S
C628 N632 1.427 . S
C629 H619 0.929 . S
C629 C627 1.433 . S
C629 N632 1.384 . S
C630 H621 0.929 . S
C630 C622 1.378 . S
C630 C625 1.350 . S
C631 H618 0.929 . S
C631 C623 1.433 . S
C631 N633 1.384 . S
N632 C628 1.427 . S
N632 C629 1.384 . S
N633 C625 1.427 . S
N633 C631 1.384 . S
H634 C640 0.930 . S
H635 C644 0.930 . S
H636 C649 0.929 . S
H637 C647 0.929 . S
H638 C642 0.929 . S
H639 C648 0.929 . S
C640 H634 0.930 . S
C640 C641 1.367 . S
C640 C648 1.378 . S
C641 C640 1.367 . S
C641 C649 1.433 . S
C642 H638 0.929 . S
C642 C644 1.378 . S
C642 C646 1.350 . S
C643 C646 1.463 . S
C643 C648 1.350 . S
C643 N651 1.427 . S
C644 H635 0.930 . S
C644 C642 1.378 . S
C644 C645 1.367 . S
C645 C644 1.367 . S
C645 C647 1.433 . S
C646 C642 1.350 . S
C646 C643 1.463 . S
C646 N650 1.427 . S
C647 H637 0.929 . S
C647 C645 1.433 . S
C647 N650 1.384 . S
C648 H639 0.929 . S
C648 C640 1.378 . S
C648 C643 1.350 . S
C649 H636 0.929 . S
C649 C641 1.433 . S
C649 N651 1.384 . S
N650 C646 1.427 . S
N650 C647 1.384 . S
N651 C643 1.427 . S
N651 C649 1.384 . S
H652 C658 0.930 . S
H653 C662 0.930 . S
H654 C667 0.929 . S
H655 C665 0.929 . S
H656 C660 0.929 . S
H657 C666 0.929 . S
C658 H652 0.930 . S
C658 C659 1.367 . S
C658 C666 1.378 . S
C659 C658 1.367 . S
C659 C667 1.433 . S
C660 H656 0.929 . S
C660 C662 1.378 . S
C660 C664 1.350 . S
C661 C664 1.463 . S
C661 C666 1.350 . S
C661 N669 1.427 . S
C662 H653 0.930 . S
C662 C660 1.378 . S
C662 C663 1.367 . S
C663 C662 1.367 . S
C663 C665 1.433 . S
C664 C660 1.350 . S
C664 C661 1.463 . S
C664 N668 1.427 . S
C665 H655 0.929 . S
C665 C663 1.433 . S
C665 N668 1.384 . S
C666 H657 0.929 . S
C666 C658 1.378 . S
C666 C661 1.350 . S
C667 H654 0.929 . S
C667 C659 1.433 . S
C667 N669 1.384 . S
N668 C664 1.427 . S
N668 C665 1.384 . S
N669 C661 1.427 . S
N669 C667 1.384 . S
H670 C676 0.930 . S
H671 C680 0.930 . S
H672 C685 0.929 . S
H673 C683 0.929 . S
H674 C678 0.929 . S
H675 C684 0.929 . S
C676 H670 0.930 . S
C676 C677 1.367 . S
C676 C684 1.378 . S
C677 C676 1.367 . S
C677 C685 1.433 . S
C678 H674 0.929 . S
C678 C680 1.378 . S
C678 C682 1.350 . S
C679 C682 1.463 . S
C679 C684 1.350 . S
C679 N687 1.427 . S
C680 H671 0.930 . S
C680 C678 1.378 . S
C680 C681 1.367 . S
C681 C680 1.367 . S
C681 C683 1.433 . S
C682 C678 1.350 . S
C682 C679 1.463 . S
C682 N686 1.427 . S
C683 H673 0.929 . S
C683 C681 1.433 . S
C683 N686 1.384 . S
C684 H675 0.929 . S
C684 C676 1.378 . S
C684 C679 1.350 . S
C685 H672 0.929 . S
C685 C677 1.433 . S
C685 N687 1.384 . S
N686 C682 1.427 . S
N686 C683 1.384 . S
N687 C679 1.427 . S
N687 C685 1.384 . S
H688 C694 0.930 . S
H689 C698 0.930 . S
H690 C703 0.929 . S
H691 C701 0.929 . S
H692 C696 0.929 . S
H693 C702 0.929 . S
C694 H688 0.930 . S
C694 C695 1.367 . S
C694 C702 1.378 . S
C695 C694 1.367 . S
C695 C703 1.433 . S
C696 H692 0.929 . S
C696 C698 1.378 . S
C696 C700 1.350 . S
C697 C700 1.463 . S
C697 C702 1.350 . S
C697 N705 1.427 . S
C698 H689 0.930 . S
C698 C696 1.378 . S
C698 C699 1.367 . S
C699 C698 1.367 . S
C699 C701 1.433 . S
C700 C696 1.350 . S
C700 C697 1.463 . S
C700 N704 1.427 . S
C701 H691 0.929 . S
C701 C699 1.433 . S
C701 N704 1.384 . S
C702 H693 0.929 . S
C702 C694 1.378 . S
C702 C697 1.350 . S
C703 H690 0.929 . S
C703 C695 1.433 . S
C703 N705 1.384 . S
N704 C700 1.427 . S
N704 C701 1.384 . S
N705 C697 1.427 . S
N705 C703 1.384 . S
H706 C712 0.930 . S
H707 C716 0.930 . S
H708 C721 0.929 . S
H709 C719 0.929 . S
H710 C714 0.929 . S
H711 C720 0.929 . S
C712 H706 0.930 . S
C712 C713 1.367 . S
C712 C720 1.378 . S
C713 C712 1.367 . S
C713 C721 1.433 . S
C714 H710 0.929 . S
C714 C716 1.378 . S
C714 C718 1.350 . S
C715 C718 1.463 . S
C715 C720 1.350 . S
C715 N723 1.427 . S
C716 H707 0.930 . S
C716 C714 1.378 . S
C716 C717 1.367 . S
C717 C716 1.367 . S
C717 C719 1.433 . S
C718 C714 1.350 . S
C718 C715 1.463 . S
C718 N722 1.427 . S
C719 H709 0.929 . S
C719 C717 1.433 . S
C719 N722 1.384 . S
C720 H711 0.929 . S
C720 C712 1.378 . S
C720 C715 1.350 . S
C721 H708 0.929 . S
C721 C713 1.433 . S
C721 N723 1.384 . S
N722 C718 1.427 . S
N722 C719 1.384 . S
N723 C715 1.427 . S
N723 C721 1.384 . S
H724 C730 0.930 . S
H725 C734 0.930 . S
H726 C739 0.929 . S
H727 C737 0.929 . S
H728 C732 0.929 . S
H729 C738 0.929 . S
C730 H724 0.930 . S
C730 C731 1.367 . S
C730 C738 1.378 . S
C731 C730 1.367 . S
C731 C739 1.433 . S
C732 H728 0.929 . S
C732 C734 1.378 . S
C732 C736 1.350 . S
C733 C736 1.463 . S
C733 C738 1.350 . S
C733 N741 1.427 . S
C734 H725 0.930 . S
C734 C732 1.378 . S
C734 C735 1.367 . S
C735 C734 1.367 . S
C735 C737 1.433 . S
C736 C732 1.350 . S
C736 C733 1.463 . S
C736 N740 1.427 . S
C737 H727 0.929 . S
C737 C735 1.433 . S
C737 N740 1.384 . S
C738 H729 0.929 . S
C738 C730 1.378 . S
C738 C733 1.350 . S
C739 H726 0.929 . S
C739 C731 1.433 . S
C739 N741 1.384 . S
N740 C736 1.427 . S
N740 C737 1.384 . S
N741 C733 1.427 . S
N741 C739 1.384 . S
H742 C748 0.930 . S
H743 C752 0.930 . S
H744 C757 0.929 . S
H745 C755 0.929 . S
H746 C750 0.929 . S
H747 C756 0.929 . S
C748 H742 0.930 . S
C748 C749 1.367 . S
C748 C756 1.378 . S
C749 C748 1.367 . S
C749 C757 1.433 . S
C750 H746 0.929 . S
C750 C752 1.378 . S
C750 C754 1.350 . S
C751 C754 1.463 . S
C751 C756 1.350 . S
C751 N759 1.427 . S
C752 H743 0.930 . S
C752 C750 1.378 . S
C752 C753 1.367 . S
C753 C752 1.367 . S
C753 C755 1.433 . S
C754 C750 1.350 . S
C754 C751 1.463 . S
C754 N758 1.427 . S
C755 H745 0.929 . S
C755 C753 1.433 . S
C755 N758 1.384 . S
C756 H747 0.929 . S
C756 C748 1.378 . S
C756 C751 1.350 . S
C757 H744 0.929 . S
C757 C749 1.433 . S
C757 N759 1.384 . S
N758 C754 1.427 . S
N758 C755 1.384 . S
N759 C751 1.427 . S
N759 C757 1.384 . S
H760 C766 0.930 . S
H761 C770 0.930 . S
H762 C775 0.929 . S
H763 C773 0.929 . S
H764 C768 0.929 . S
H765 C774 0.929 . S
C766 H760 0.930 . S
C766 C767 1.367 . S
C766 C774 1.378 . S
C767 C766 1.367 . S
C767 C775 1.433 . S
C768 H764 0.929 . S
C768 C770 1.378 . S
C768 C772 1.350 . S
C769 C772 1.463 . S
C769 C774 1.350 . S
C769 N777 1.427 . S
C770 H761 0.930 . S
C770 C768 1.378 . S
C770 C771 1.367 . S
C771 C770 1.367 . S
C771 C773 1.433 . S
C772 C768 1.350 . S
C772 C769 1.463 . S
C772 N776 1.427 . S
C773 H763 0.929 . S
C773 C771 1.433 . S
C773 N776 1.384 . S
C774 H765 0.929 . S
C774 C766 1.378 . S
C774 C769 1.350 . S
C775 H762 0.929 . S
C775 C767 1.433 . S
C775 N777 1.384 . S
N776 C772 1.427 . S
N776 C773 1.384 . S
N777 C769 1.427 . S
N777 C775 1.384 . S
H778 C784 0.930 . S
H779 C788 0.930 . S
H780 C793 0.929 . S
H781 C791 0.929 . S
H782 C786 0.929 . S
H783 C792 0.929 . S
C784 H778 0.930 . S
C784 C785 1.367 . S
C784 C792 1.378 . S
C785 C784 1.367 . S
C785 C793 1.433 . S
C786 H782 0.929 . S
C786 C788 1.378 . S
C786 C790 1.350 . S
C787 C790 1.463 . S
C787 C792 1.350 . S
C787 N795 1.427 . S
C788 H779 0.930 . S
C788 C786 1.378 . S
C788 C789 1.367 . S
C789 C788 1.367 . S
C789 C791 1.433 . S
C790 C786 1.350 . S
C790 C787 1.463 . S
C790 N794 1.427 . S
C791 H781 0.929 . S
C791 C789 1.433 . S
C791 N794 1.384 . S
C792 H783 0.929 . S
C792 C784 1.378 . S
C792 C787 1.350 . S
C793 H780 0.929 . S
C793 C785 1.433 . S
C793 N795 1.384 . S
N794 C790 1.427 . S
N794 C791 1.384 . S
N795 C787 1.427 . S
N795 C793 1.384 . S
H796 C802 0.930 . S
H797 C806 0.930 . S
H798 C811 0.929 . S
H799 C809 0.929 . S
H800 C804 0.929 . S
H801 C810 0.929 . S
C802 H796 0.930 . S
C802 C803 1.367 . S
C802 C810 1.378 . S
C803 C802 1.367 . S
C803 C811 1.433 . S
C804 H800 0.929 . S
C804 C806 1.378 . S
C804 C808 1.350 . S
C805 C808 1.463 . S
C805 C810 1.350 . S
C805 N813 1.427 . S
C806 H797 0.930 . S
C806 C804 1.378 . S
C806 C807 1.367 . S
C807 C806 1.367 . S
C807 C809 1.433 . S
C808 C804 1.350 . S
C808 C805 1.463 . S
C808 N812 1.427 . S
C809 H799 0.929 . S
C809 C807 1.433 . S
C809 N812 1.384 . S
C810 H801 0.929 . S
C810 C802 1.378 . S
C810 C805 1.350 . S
C811 H798 0.929 . S
C811 C803 1.433 . S
C811 N813 1.384 . S
N812 C808 1.427 . S
N812 C809 1.384 . S
N813 C805 1.427 . S
N813 C811 1.384 . S
H814 C820 0.930 . S
H815 C824 0.930 . S
H816 C829 0.929 . S
H817 C827 0.929 . S
H818 C822 0.929 . S
H819 C828 0.929 . S
C820 H814 0.930 . S
C820 C821 1.367 . S
C820 C828 1.378 . S
C821 C820 1.367 . S
C821 C829 1.433 . S
C822 H818 0.929 . S
C822 C824 1.378 . S
C822 C826 1.350 . S
C823 C826 1.463 . S
C823 C828 1.350 . S
C823 N831 1.427 . S
C824 H815 0.930 . S
C824 C822 1.378 . S
C824 C825 1.367 . S
C825 C824 1.367 . S
C825 C827 1.433 . S
C826 C822 1.350 . S
C826 C823 1.463 . S
C826 N830 1.427 . S
C827 H817 0.929 . S
C827 C825 1.433 . S
C827 N830 1.384 . S
C828 H819 0.929 . S
C828 C820 1.378 . S
C828 C823 1.350 . S
C829 H816 0.929 . S
C829 C821 1.433 . S
C829 N831 1.384 . S
N830 C826 1.427 . S
N830 C827 1.384 . S
N831 C823 1.427 . S
N831 C829 1.384 . S
H832 C838 0.930 . S
H833 C842 0.930 . S
H834 C847 0.929 . S
H835 C845 0.929 . S
H836 C840 0.929 . S
H837 C846 0.929 . S
C838 H832 0.930 . S
C838 C839 1.367 . S
C838 C846 1.378 . S
C839 C838 1.367 . S
C839 C847 1.433 . S
C840 H836 0.929 . S
C840 C842 1.378 . S
C840 C844 1.350 . S
C841 C844 1.463 . S
C841 C846 1.350 . S
C841 N849 1.427 . S
C842 H833 0.930 . S
C842 C840 1.378 . S
C842 C843 1.367 . S
C843 C842 1.367 . S
C843 C845 1.433 . S
C844 C840 1.350 . S
C844 C841 1.463 . S
C844 N848 1.427 . S
C845 H835 0.929 . S
C845 C843 1.433 . S
C845 N848 1.384 . S
C846 H837 0.929 . S
C846 C838 1.378 . S
C846 C841 1.350 . S
C847 H834 0.929 . S
C847 C839 1.433 . S
C847 N849 1.384 . S
N848 C844 1.427 . S
N848 C845 1.384 . S
N849 C841 1.427 . S
N849 C847 1.384 . S
H850 C856 0.930 . S
H851 C860 0.930 . S
H852 C865 0.929 . S
H853 C863 0.929 . S
H854 C858 0.929 . S
H855 C864 0.929 . S
C856 H850 0.930 . S
C856 C857 1.367 . S
C856 C864 1.378 . S
C857 C856 1.367 . S
C857 C865 1.433 . S
C858 H854 0.929 . S
C858 C860 1.378 . S
C858 C862 1.350 . S
C859 C862 1.463 . S
C859 C864 1.350 . S
C859 N867 1.427 . S
C860 H851 0.930 . S
C860 C858 1.378 . S
C860 C861 1.367 . S
C861 C860 1.367 . S
C861 C863 1.433 . S
C862 C858 1.350 . S
C862 C859 1.463 . S
C862 N866 1.427 . S
C863 H853 0.929 . S
C863 C861 1.433 . S
C863 N866 1.384 . S
C864 H855 0.929 . S
C864 C856 1.378 . S
C864 C859 1.350 . S
C865 H852 0.929 . S
C865 C857 1.433 . S
C865 N867 1.384 . S
N866 C862 1.427 . S
N866 C863 1.384 . S
N867 C859 1.427 . S
N867 C865 1.384 . S
H868 C874 0.930 . S
H869 C878 0.930 . S
H870 C883 0.929 . S
H871 C881 0.929 . S
H872 C876 0.929 . S
H873 C882 0.929 . S
C874 H868 0.930 . S
C874 C875 1.367 . S
C874 C882 1.378 . S
C875 C874 1.367 . S
C875 C883 1.433 . S
C876 H872 0.929 . S
C876 C878 1.378 . S
C876 C880 1.350 . S
C877 C880 1.463 . S
C877 C882 1.350 . S
C877 N885 1.427 . S
C878 H869 0.930 . S
C878 C876 1.378 . S
C878 C879 1.367 . S
C879 C878 1.367 . S
C879 C881 1.433 . S
C880 C876 1.350 . S
C880 C877 1.463 . S
C880 N884 1.427 . S
C881 H871 0.929 . S
C881 C879 1.433 . S
C881 N884 1.384 . S
C882 H873 0.929 . S
C882 C874 1.378 . S
C882 C877 1.350 . S
C883 H870 0.929 . S
C883 C875 1.433 . S
C883 N885 1.384 . S
N884 C880 1.427 . S
N884 C881 1.384 . S
N885 C877 1.427 . S
N885 C883 1.384 . S
H886 C892 0.930 . S
H887 C896 0.930 . S
H888 C901 0.929 . S
H889 C899 0.929 . S
H890 C894 0.929 . S
H891 C900 0.929 . S
C892 H886 0.930 . S
C892 C893 1.367 . S
C892 C900 1.378 . S
C893 C892 1.367 . S
C893 C901 1.433 . S
C894 H890 0.929 . S
C894 C896 1.378 . S
C894 C898 1.350 . S
C895 C898 1.463 . S
C895 C900 1.350 . S
C895 N903 1.427 . S
C896 H887 0.930 . S
C896 C894 1.378 . S
C896 C897 1.367 . S
C897 C896 1.367 . S
C897 C899 1.433 . S
C898 C894 1.350 . S
C898 C895 1.463 . S
C898 N902 1.427 . S
C899 H889 0.929 . S
C899 C897 1.433 . S
C899 N902 1.384 . S
C900 H891 0.929 . S
C900 C892 1.378 . S
C900 C895 1.350 . S
C901 H888 0.929 . S
C901 C893 1.433 . S
C901 N903 1.384 . S
N902 C898 1.427 . S
N902 C899 1.384 . S
N903 C895 1.427 . S
N903 C901 1.384 . S
H904 C910 0.930 . S
H905 C914 0.930 . S
H906 C919 0.929 . S
H907 C917 0.929 . S
H908 C912 0.929 . S
H909 C918 0.929 . S
C910 H904 0.930 . S
C910 C911 1.367 . S
C910 C918 1.378 . S
C911 C910 1.367 . S
C911 C919 1.433 . S
C912 H908 0.929 . S
C912 C914 1.378 . S
C912 C916 1.350 . S
C913 C916 1.463 . S
C913 C918 1.350 . S
C913 N921 1.427 . S
C914 H905 0.930 . S
C914 C912 1.378 . S
C914 C915 1.367 . S
C915 C914 1.367 . S
C915 C917 1.433 . S
C916 C912 1.350 . S
C916 C913 1.463 . S
C916 N920 1.427 . S
C917 H907 0.929 . S
C917 C915 1.433 . S
C917 N920 1.384 . S
C918 H909 0.929 . S
C918 C910 1.378 . S
C918 C913 1.350 . S
C919 H906 0.929 . S
C919 C911 1.433 . S
C919 N921 1.384 . S
N920 C916 1.427 . S
N920 C917 1.384 . S
N921 C913 1.427 . S
N921 C919 1.384 . S
H922 C928 0.930 . S
H923 C932 0.930 . S
H924 C937 0.929 . S
H925 C935 0.929 . S
H926 C930 0.929 . S
H927 C936 0.929 . S
C928 H922 0.930 . S
C928 C929 1.367 . S
C928 C936 1.378 . S
C929 C928 1.367 . S
C929 C937 1.433 . S
C930 H926 0.929 . S
C930 C932 1.378 . S
C930 C934 1.350 . S
C931 C934 1.463 . S
C931 C936 1.350 . S
C931 N939 1.427 . S
C932 H923 0.930 . S
C932 C930 1.378 . S
C932 C933 1.367 . S
C933 C932 1.367 . S
C933 C935 1.433 . S
C934 C930 1.350 . S
C934 C931 1.463 . S
C934 N938 1.427 . S
C935 H925 0.929 . S
C935 C933 1.433 . S
C935 N938 1.384 . S
C936 H927 0.929 . S
C936 C928 1.378 . S
C936 C931 1.350 . S
C937 H924 0.929 . S
C937 C929 1.433 . S
C937 N939 1.384 . S
N938 C934 1.427 . S
N938 C935 1.384 . S
N939 C931 1.427 . S
N939 C937 1.384 . S
H940 C946 0.930 . S
H941 C950 0.930 . S
H942 C955 0.929 . S
H943 C953 0.929 . S
H944 C948 0.929 . S
H945 C954 0.929 . S
C946 H940 0.930 . S
C946 C947 1.367 . S
C946 C954 1.378 . S
C947 C946 1.367 . S
C947 C955 1.433 . S
C948 H944 0.929 . S
C948 C950 1.378 . S
C948 C952 1.350 . S
C949 C952 1.463 . S
C949 C954 1.350 . S
C949 N957 1.427 . S
C950 H941 0.930 . S
C950 C948 1.378 . S
C950 C951 1.367 . S
C951 C950 1.367 . S
C951 C953 1.433 . S
C952 C948 1.350 . S
C952 C949 1.463 . S
C952 N956 1.427 . S
C953 H943 0.929 . S
C953 C951 1.433 . S
C953 N956 1.384 . S
C954 H945 0.929 . S
C954 C946 1.378 . S
C954 C949 1.350 . S
C955 H942 0.929 . S
C955 C947 1.433 . S
C955 N957 1.384 . S
N956 C952 1.427 . S
N956 C953 1.384 . S
N957 C949 1.427 . S
N957 C955 1.384 . S
H958 C964 0.930 . S
H959 C968 0.930 . S
H960 C973 0.929 . S
H961 C971 0.929 . S
H962 C966 0.929 . S
H963 C972 0.929 . S
C964 H958 0.930 . S
C964 C965 1.367 . S
C964 C972 1.378 . S
C965 C964 1.367 . S
C965 C973 1.433 . S
C966 H962 0.929 . S
C966 C968 1.378 . S
C966 C970 1.350 . S
C967 C970 1.463 . S
C967 C972 1.350 . S
C967 N975 1.427 . S
C968 H959 0.930 . S
C968 C966 1.378 . S
C968 C969 1.367 . S
C969 C968 1.367 . S
C969 C971 1.433 . S
C970 C966 1.350 . S
C970 C967 1.463 . S
C970 N974 1.427 . S
C971 H961 0.929 . S
C971 C969 1.433 . S
C971 N974 1.384 . S
C972 H963 0.929 . S
C972 C964 1.378 . S
C972 C967 1.350 . S
C973 H960 0.929 . S
C973 C965 1.433 . S
C973 N975 1.384 . S
N974 C970 1.427 . S
N974 C971 1.384 . S
N975 C967 1.427 . S
N975 C973 1.384 . S
H976 C982 0.930 . S
H977 C986 0.930 . S
H978 C991 0.929 . S
H979 C989 0.929 . S
H980 C984 0.929 . S
H981 C990 0.929 . S
C982 H976 0.930 . S
C982 C983 1.367 . S
C982 C990 1.378 . S
C983 C982 1.367 . S
C983 C991 1.433 . S
C984 H980 0.929 . S
C984 C986 1.378 . S
C984 C988 1.350 . S
C985 C988 1.463 . S
C985 C990 1.350 . S
C985 N993 1.427 . S
C986 H977 0.930 . S
C986 C984 1.378 . S
C986 C987 1.367 . S
C987 C986 1.367 . S
C987 C989 1.433 . S
C988 C984 1.350 . S
C988 C985 1.463 . S
C988 N992 1.427 . S
C989 H979 0.929 . S
C989 C987 1.433 . S
C989 N992 1.384 . S
C990 H981 0.929 . S
C990 C982 1.378 . S
C990 C985 1.350 . S
C991 H978 0.929 . S
C991 C983 1.433 . S
C991 N993 1.384 . S
N992 C988 1.427 . S
N992 C989 1.384 . S
N993 C985 1.427 . S
N993 C991 1.384 . S
H994 C1000 0.930 . S
H995 C1004 0.930 . S
H996 C1009 0.929 . S
H997 C1007 0.929 . S
H998 C1002 0.929 . S
H999 C1008 0.929 . S
C1000 H994 0.930 . S
C1000 C1001 1.367 . S
C1000 C1008 1.378 . S
C1001 C1000 1.367 . S
C1001 C1009 1.433 . S
C1002 H998 0.929 . S
C1002 C1004 1.378 . S
C1002 C1006 1.350 . S
C1003 C1006 1.463 . S
C1003 C1008 1.350 . S
C1003 N1011 1.427 . S
C1004 H995 0.930 . S
C1004 C1002 1.378 . S
C1004 C1005 1.367 . S
C1005 C1004 1.367 . S
C1005 C1007 1.433 . S
C1006 C1002 1.350 . S
C1006 C1003 1.463 . S
C1006 N1010 1.427 . S
C1007 H997 0.929 . S
C1007 C1005 1.433 . S
C1007 N1010 1.384 . S
C1008 H999 0.929 . S
C1008 C1000 1.378 . S
C1008 C1003 1.350 . S
C1009 H996 0.929 . S
C1009 C1001 1.433 . S
C1009 N1011 1.384 . S
N1010 C1006 1.427 . S
N1010 C1007 1.384 . S
N1011 C1003 1.427 . S
N1011 C1009 1.384 . S
H1012 C1018 0.930 . S
H1013 C1022 0.930 . S
H1014 C1027 0.929 . S
H1015 C1025 0.929 . S
H1016 C1020 0.929 . S
H1017 C1026 0.929 . S
C1018 H1012 0.930 . S
C1018 C1019 1.367 . S
C1018 C1026 1.378 . S
C1019 C1018 1.367 . S
C1019 C1027 1.433 . S
C1020 H1016 0.929 . S
C1020 C1022 1.378 . S
C1020 C1024 1.350 . S
C1021 C1024 1.463 . S
C1021 C1026 1.350 . S
C1021 N1029 1.427 . S
C1022 H1013 0.930 . S
C1022 C1020 1.378 . S
C1022 C1023 1.367 . S
C1023 C1022 1.367 . S
C1023 C1025 1.433 . S
C1024 C1020 1.350 . S
C1024 C1021 1.463 . S
C1024 N1028 1.427 . S
C1025 H1015 0.929 . S
C1025 C1023 1.433 . S
C1025 N1028 1.384 . S
C1026 H1017 0.929 . S
C1026 C1018 1.378 . S
C1026 C1021 1.350 . S
C1027 H1014 0.929 . S
C1027 C1019 1.433 . S
C1027 N1029 1.384 . S
N1028 C1024 1.427 . S
N1028 C1025 1.384 . S
N1029 C1021 1.427 . S
N1029 C1027 1.384 . S
H1030 C1036 0.930 . S
H1031 C1040 0.930 . S
H1032 C1045 0.929 . S
H1033 C1043 0.929 . S
H1034 C1038 0.929 . S
H1035 C1044 0.929 . S
C1036 H1030 0.930 . S
C1036 C1037 1.367 . S
C1036 C1044 1.378 . S
C1037 C1036 1.367 . S
C1037 C1045 1.433 . S
C1038 H1034 0.929 . S
C1038 C1040 1.378 . S
C1038 C1042 1.350 . S
C1039 C1042 1.463 . S
C1039 C1044 1.350 . S
C1039 N1047 1.427 . S
C1040 H1031 0.930 . S
C1040 C1038 1.378 . S
C1040 C1041 1.367 . S
C1041 C1040 1.367 . S
C1041 C1043 1.433 . S
C1042 C1038 1.350 . S
C1042 C1039 1.463 . S
C1042 N1046 1.427 . S
C1043 H1033 0.929 . S
C1043 C1041 1.433 . S
C1043 N1046 1.384 . S
C1044 H1035 0.929 . S
C1044 C1036 1.378 . S
C1044 C1039 1.350 . S
C1045 H1032 0.929 . S
C1045 C1037 1.433 . S
C1045 N1047 1.384 . S
N1046 C1042 1.427 . S
N1046 C1043 1.384 . S
N1047 C1039 1.427 . S
N1047 C1045 1.384 . S
H1048 C1054 0.930 . S
H1049 C1058 0.930 . S
H1050 C1063 0.929 . S
H1051 C1061 0.929 . S
H1052 C1056 0.929 . S
H1053 C1062 0.929 . S
C1054 H1048 0.930 . S
C1054 C1055 1.367 . S
C1054 C1062 1.378 . S
C1055 C1054 1.367 . S
C1055 C1063 1.433 . S
C1056 H1052 0.929 . S
C1056 C1058 1.378 . S
C1056 C1060 1.350 . S
C1057 C1060 1.463 . S
C1057 C1062 1.350 . S
C1057 N1065 1.427 . S
C1058 H1049 0.930 . S
C1058 C1056 1.378 . S
C1058 C1059 1.367 . S
C1059 C1058 1.367 . S
C1059 C1061 1.433 . S
C1060 C1056 1.350 . S
C1060 C1057 1.463 . S
C1060 N1064 1.427 . S
C1061 H1051 0.929 . S
C1061 C1059 1.433 . S
C1061 N1064 1.384 . S
C1062 H1053 0.929 . S
C1062 C1054 1.378 . S
C1062 C1057 1.350 . S
C1063 H1050 0.929 . S
C1063 C1055 1.433 . S
C1063 N1065 1.384 . S
N1064 C1060 1.427 . S
N1064 C1061 1.384 . S
N1065 C1057 1.427 . S
N1065 C1063 1.384 . S
H1066 C1072 0.930 . S
H1067 C1076 0.930 . S
H1068 C1081 0.929 . S
H1069 C1079 0.929 . S
H1070 C1074 0.929 . S
H1071 C1080 0.929 . S
C1072 H1066 0.930 . S
C1072 C1073 1.367 . S
C1072 C1080 1.378 . S
C1073 C1072 1.367 . S
C1073 C1081 1.433 . S
C1074 H1070 0.929 . S
C1074 C1076 1.378 . S
C1074 C1078 1.350 . S
C1075 C1078 1.463 . S
C1075 C1080 1.350 . S
C1075 N1083 1.427 . S
C1076 H1067 0.930 . S
C1076 C1074 1.378 . S
C1076 C1077 1.367 . S
C1077 C1076 1.367 . S
C1077 C1079 1.433 . S
C1078 C1074 1.350 . S
C1078 C1075 1.463 . S
C1078 N1082 1.427 . S
C1079 H1069 0.929 . S
C1079 C1077 1.433 . S
C1079 N1082 1.384 . S
C1080 H1071 0.929 . S
C1080 C1072 1.378 . S
C1080 C1075 1.350 . S
C1081 H1068 0.929 . S
C1081 C1073 1.433 . S
C1081 N1083 1.384 . S
N1082 C1078 1.427 . S
N1082 C1079 1.384 . S
N1083 C1075 1.427 . S
N1083 C1081 1.384 . S
H1084 C1090 0.930 . S
H1085 C1094 0.930 . S
H1086 C1099 0.929 . S
H1087 C1097 0.929 . S
H1088 C1092 0.929 . S
H1089 C1098 0.929 . S
C1090 H1084 0.930 . S
C1090 C1091 1.367 . S
C1090 C1098 1.378 . S
C1091 C1090 1.367 . S
C1091 C1099 1.433 . S
C1092 H1088 0.929 . S
C1092 C1094 1.378 . S
C1092 C1096 1.350 . S
C1093 C1096 1.463 . S
C1093 C1098 1.350 . S
C1093 N1101 1.427 . S
C1094 H1085 0.930 . S
C1094 C1092 1.378 . S
C1094 C1095 1.367 . S
C1095 C1094 1.367 . S
C1095 C1097 1.433 . S
C1096 C1092 1.350 . S
C1096 C1093 1.463 . S
C1096 N1100 1.427 . S
C1097 H1087 0.929 . S
C1097 C1095 1.433 . S
C1097 N1100 1.384 . S
C1098 H1089 0.929 . S
C1098 C1090 1.378 . S
C1098 C1093 1.350 . S
C1099 H1086 0.929 . S
C1099 C1091 1.433 . S
C1099 N1101 1.384 . S
N1100 C1096 1.427 . S
N1100 C1097 1.384 . S
N1101 C1093 1.427 . S
N1101 C1099 1.384 . S
H1102 C1108 0.930 . S
H1103 C1112 0.930 . S
H1104 C1117 0.929 . S
H1105 C1115 0.929 . S
H1106 C1110 0.929 . S
H1107 C1116 0.929 . S
C1108 H1102 0.930 . S
C1108 C1109 1.367 . S
C1108 C1116 1.378 . S
C1109 C1108 1.367 . S
C1109 C1117 1.433 . S
C1110 H1106 0.929 . S
C1110 C1112 1.378 . S
C1110 C1114 1.350 . S
C1111 C1114 1.463 . S
C1111 C1116 1.350 . S
C1111 N1119 1.427 . S
C1112 H1103 0.930 . S
C1112 C1110 1.378 . S
C1112 C1113 1.367 . S
C1113 C1112 1.367 . S
C1113 C1115 1.433 . S
C1114 C1110 1.350 . S
C1114 C1111 1.463 . S
C1114 N1118 1.427 . S
C1115 H1105 0.929 . S
C1115 C1113 1.433 . S
C1115 N1118 1.384 . S
C1116 H1107 0.929 . S
C1116 C1108 1.378 . S
C1116 C1111 1.350 . S
C1117 H1104 0.929 . S
C1117 C1109 1.433 . S
C1117 N1119 1.384 . S
N1118 C1114 1.427 . S
N1118 C1115 1.384 . S
N1119 C1111 1.427 . S
N1119 C1117 1.384 . S
H1120 C1126 0.930 . S
H1121 C1130 0.930 . S
H1122 C1135 0.929 . S
H1123 C1133 0.929 . S
H1124 C1128 0.929 . S
H1125 C1134 0.929 . S
C1126 H1120 0.930 . S
C1126 C1127 1.367 . S
C1126 C1134 1.378 . S
C1127 C1126 1.367 . S
C1127 C1135 1.433 . S
C1128 H1124 0.929 . S
C1128 C1130 1.378 . S
C1128 C1132 1.350 . S
C1129 C1132 1.463 . S
C1129 C1134 1.350 . S
C1129 N1137 1.427 . S
C1130 H1121 0.930 . S
C1130 C1128 1.378 . S
C1130 C1131 1.367 . S
C1131 C1130 1.367 . S
C1131 C1133 1.433 . S
C1132 C1128 1.350 . S
C1132 C1129 1.463 . S
C1132 N1136 1.427 . S
C1133 H1123 0.929 . S
C1133 C1131 1.433 . S
C1133 N1136 1.384 . S
C1134 H1125 0.929 . S
C1134 C1126 1.378 . S
C1134 C1129 1.350 . S
C1135 H1122 0.929 . S
C1135 C1127 1.433 . S
C1135 N1137 1.384 . S
N1136 C1132 1.427 . S
N1136 C1133 1.384 . S
N1137 C1129 1.427 . S
N1137 C1135 1.384 . S
H1138 C1144 0.930 . S
H1139 C1148 0.930 . S
H1140 C1153 0.929 . S
H1141 C1151 0.929 . S
H1142 C1146 0.929 . S
H1143 C1152 0.929 . S
C1144 H1138 0.930 . S
C1144 C1145 1.367 . S
C1144 C1152 1.378 . S
C1145 C1144 1.367 . S
C1145 C1153 1.433 . S
C1146 H1142 0.929 . S
C1146 C1148 1.378 . S
C1146 C1150 1.350 . S
C1147 C1150 1.463 . S
C1147 C1152 1.350 . S
C1147 N1155 1.427 . S
C1148 H1139 0.930 . S
C1148 C1146 1.378 . S
C1148 C1149 1.367 . S
C1149 C1148 1.367 . S
C1149 C1151 1.433 . S
C1150 C1146 1.350 . S
C1150 C1147 1.463 . S
C1150 N1154 1.427 . S
C1151 H1141 0.929 . S
C1151 C1149 1.433 . S
C1151 N1154 1.384 . S
C1152 H1143 0.929 . S
C1152 C1144 1.378 . S
C1152 C1147 1.350 . S
C1153 H1140 0.929 . S
C1153 C1145 1.433 . S
C1153 N1155 1.384 . S
N1154 C1150 1.427 . S
N1154 C1151 1.384 . S
N1155 C1147 1.427 . S
N1155 C1153 1.384 . S
H1156 C1162 0.930 . S
H1157 C1166 0.930 . S
H1158 C1171 0.929 . S
H1159 C1169 0.929 . S
H1160 C1164 0.929 . S
H1161 C1170 0.929 . S
C1162 H1156 0.930 . S
C1162 C1163 1.367 . S
C1162 C1170 1.378 . S
C1163 C1162 1.367 . S
C1163 C1171 1.433 . S
C1164 H1160 0.929 . S
C1164 C1166 1.378 . S
C1164 C1168 1.350 . S
C1165 C1168 1.463 . S
C1165 C1170 1.350 . S
C1165 N1173 1.427 . S
C1166 H1157 0.930 . S
C1166 C1164 1.378 . S
C1166 C1167 1.367 . S
C1167 C1166 1.367 . S
C1167 C1169 1.433 . S
C1168 C1164 1.350 . S
C1168 C1165 1.463 . S
C1168 N1172 1.427 . S
C1169 H1159 0.929 . S
C1169 C1167 1.433 . S
C1169 N1172 1.384 . S
C1170 H1161 0.929 . S
C1170 C1162 1.378 . S
C1170 C1165 1.350 . S
C1171 H1158 0.929 . S
C1171 C1163 1.433 . S
C1171 N1173 1.384 . S
N1172 C1168 1.427 . S
N1172 C1169 1.384 . S
N1173 C1165 1.427 . S
N1173 C1171 1.384 . S
H1174 C1180 0.930 . S
H1175 C1184 0.930 . S
H1176 C1189 0.929 . S
H1177 C1187 0.929 . S
H1178 C1182 0.929 . S
H1179 C1188 0.929 . S
C1180 H1174 0.930 . S
C1180 C1181 1.367 . S
C1180 C1188 1.378 . S
C1181 C1180 1.367 . S
C1181 C1189 1.433 . S
C1182 H1178 0.929 . S
C1182 C1184 1.378 . S
C1182 C1186 1.350 . S
C1183 C1186 1.463 . S
C1183 C1188 1.350 . S
C1183 N1191 1.427 . S
C1184 H1175 0.930 . S
C1184 C1182 1.378 . S
C1184 C1185 1.367 . S
C1185 C1184 1.367 . S
C1185 C1187 1.433 . S
C1186 C1182 1.350 . S
C1186 C1183 1.463 . S
C1186 N1190 1.427 . S
C1187 H1177 0.929 . S
C1187 C1185 1.433 . S
C1187 N1190 1.384 . S
C1188 H1179 0.929 . S
C1188 C1180 1.378 . S
C1188 C1183 1.350 . S
C1189 H1176 0.929 . S
C1189 C1181 1.433 . S
C1189 N1191 1.384 . S
N1190 C1186 1.427 . S
N1190 C1187 1.384 . S
N1191 C1183 1.427 . S
N1191 C1189 1.384 . S
H1192 C1198 0.930 . S
H1193 C1202 0.930 . S
H1194 C1207 0.929 . S
H1195 C1205 0.929 . S
H1196 C1200 0.929 . S
H1197 C1206 0.929 . S
C1198 H1192 0.930 . S
C1198 C1199 1.367 . S
C1198 C1206 1.378 . S
C1199 C1198 1.367 . S
C1199 C1207 1.433 . S
C1200 H1196 0.929 . S
C1200 C1202 1.378 . S
C1200 C1204 1.350 . S
C1201 C1204 1.463 . S
C1201 C1206 1.350 . S
C1201 N1209 1.427 . S
C1202 H1193 0.930 . S
C1202 C1200 1.378 . S
C1202 C1203 1.367 . S
C1203 C1202 1.367 . S
C1203 C1205 1.433 . S
C1204 C1200 1.350 . S
C1204 C1201 1.463 . S
C1204 N1208 1.427 . S
C1205 H1195 0.929 . S
C1205 C1203 1.433 . S
C1205 N1208 1.384 . S
C1206 H1197 0.929 . S
C1206 C1198 1.378 . S
C1206 C1201 1.350 . S
C1207 H1194 0.929 . S
C1207 C1199 1.433 . S
C1207 N1209 1.384 . S
N1208 C1204 1.427 . S
N1208 C1205 1.384 . S
N1209 C1201 1.427 . S
N1209 C1207 1.384 . S
C357 C171 1.752 . S
C353 C9 1.774 . S
C375 C161 2.041 . S
C371 C28 2.007 . S
C393 C162 0.866 . S
C389 C49 0.852 . S
C407 C79 1.961 . S
C411 C184 1.980 . S
C425 C99 1.996 . S
C429 C187 2.034 . S
C447 C170 0.865 . S
C443 C101 0.854 . S
C461 C128 1.953 . S
C465 C160 1.973 . S
C479 C141 1.778 . S
C483 C178 1.766 . S
C501 C191 1.305 . S
C497 C16 1.239 . S
C515 C26 1.104 . S
C519 C240 1.091 . S
C537 C218 1.341 . S
C533 C56 1.310 . S
C555 C232 0.853 . S
C551 C69 0.856 . S
C569 C89 0.850 . S
C573 C193 0.846 . S
C591 C246 1.985 . S
C587 C108 1.971 . S
C605 C126 1.107 . S
C609 C202 1.104 . S
C623 C148 2.029 . S
C627 C223 2.057 . S
C641 C19 2.023 . S
C645 C249 2.055 . S
C659 C96 1.099 . S
C663 C233 1.086 . S
C681 C192 1.340 . S
C677 C106 1.306 . S
C699 C224 0.843 . S
C695 C121 0.846 . S
C713 C146 1.259 . S
C717 C215 1.298 . S
C731 C59 1.969 . S
C735 C222 1.988 . S
C753 C209 1.105 . S
C749 C76 1.106 . S
C767 C21 0.840 . S
C771 C201 0.823 . S
C785 C149 1.783 . S
C789 C264 1.762 . S
C803 C88 2.008 . S
C807 C254 2.042 . S
C825 C255 0.844 . S
C821 C109 0.869 . S
C843 C277 1.978 . S
C839 C139 1.961 . S
C857 C39 2.008 . S
C861 C280 2.041 . S
C879 C263 0.867 . S
C875 C41 0.852 . S
C893 C68 1.949 . S
C897 C253 1.968 . S
C911 C1 1.781 . S
C915 C271 1.763 . S
C929 C156 1.249 . S
C933 C284 1.303 . S
C951 C333 1.097 . S
C947 C86 1.107 . S
C965 C116 1.307 . S
C969 C311 1.338 . S
C983 C129 0.858 . S
C987 C325 0.851 . S
C1005 C286 0.822 . S
C1001 C29 0.839 . S
C1019 C48 1.976 . S
C1023 C339 1.982 . S
C1041 C295 1.085 . S
C1037 C66 1.093 . S
C1059 C316 2.057 . S
C1055 C8 2.025 . S
C1077 C342 2.058 . S
C1073 C159 2.027 . S
C1091 C36 1.086 . S
C1095 C326 1.072 . S
C1109 C46 1.302 . S
C1113 C285 1.340 . S
C1131 C317 0.848 . S
C1127 C61 0.850 . S
C1145 C6 1.260 . S
C1149 C308 1.294 . S
C1163 C119 1.976 . S
C1167 C315 1.979 . S
C1185 C302 1.096 . S
C1181 C136 1.109 . S
C1203 C294 0.846 . S
C1199 C81 0.850 . S
