# Generated by pormake.
# Topology myd, (4,6)-cn, num edge types: 1
# Building blocks:
#     Node 0, Type 0, BuildingBlock: KOZSID_clean_sbu_0, # of connection points: 4
#     Node 1, Type 0, BuildingBlock: KOZSID_clean_sbu_0, # of connection points: 4
#     Node 2, Type 0, BuildingBlock: KOZSID_clean_sbu_0, # of connection points: 4
#     Node 3, Type 0, BuildingBlock: KOZSID_clean_sbu_0, # of connection points: 4
#     Node 4, Type 0, BuildingBlock: KOZSID_clean_sbu_0, # of connection points: 4
#     Node 5, Type 0, BuildingBlock: KOZSID_clean_sbu_0, # of connection points: 4
#     Node 6, Type 0, BuildingBlock: KOZSID_clean_sbu_0, # of connection points: 4
#     Node 7, Type 0, BuildingBlock: KOZSID_clean_sbu_0, # of connection points: 4
#     Node 8, Type 0, BuildingBlock: KOZSID_clean_sbu_0, # of connection points: 4
#     Node 9, Type 0, BuildingBlock: KOZSID_clean_sbu_0, # of connection points: 4
#     Node 10, Type 0, BuildingBlock: KOZSID_clean_sbu_0, # of connection points: 4
#     Node 11, Type 0, BuildingBlock: KOZSID_clean_sbu_0, # of connection points: 4
#     Node 12, Type 1, BuildingBlock: VOLQOD_clean_sbu_1, # of connection points: 6
#     Node 13, Type 1, BuildingBlock: VOLQOD_clean_sbu_1, # of connection points: 6
#     Node 14, Type 1, BuildingBlock: VOLQOD_clean_sbu_1, # of connection points: 6
#     Node 15, Type 1, BuildingBlock: VOLQOD_clean_sbu_1, # of connection points: 6
#     Node 16, Type 1, BuildingBlock: VOLQOD_clean_sbu_1, # of connection points: 6
#     Node 17, Type 1, BuildingBlock: VOLQOD_clean_sbu_1, # of connection points: 6
#     Node 18, Type 1, BuildingBlock: VOLQOD_clean_sbu_1, # of connection points: 6
#     Node 19, Type 1, BuildingBlock: VOLQOD_clean_sbu_1, # of connection points: 6
#     Edge 20, Type (0, 1), BuildingBlock: ZUJKAS_clean_linker_0, # of connection points: 2
#     Edge 21, Type (0, 1), BuildingBlock: ZUJKAS_clean_linker_0, # of connection points: 2
#     Edge 22, Type (0, 1), BuildingBlock: ZUJKAS_clean_linker_0, # of connection points: 2
#     Edge 23, Type (0, 1), BuildingBlock: ZUJKAS_clean_linker_0, # of connection points: 2
#     Edge 24, Type (0, 1), BuildingBlock: ZUJKAS_clean_linker_0, # of connection points: 2
#     Edge 25, Type (0, 1), BuildingBlock: ZUJKAS_clean_linker_0, # of connection points: 2
#     Edge 26, Type (0, 1), BuildingBlock: ZUJKAS_clean_linker_0, # of connection points: 2
#     Edge 27, Type (0, 1), BuildingBlock: ZUJKAS_clean_linker_0, # of connection points: 2
#     Edge 28, Type (0, 1), BuildingBlock: ZUJKAS_clean_linker_0, # of connection points: 2
#     Edge 29, Type (0, 1), BuildingBlock: ZUJKAS_clean_linker_0, # of connection points: 2
#     Edge 30, Type (0, 1), BuildingBlock: ZUJKAS_clean_linker_0, # of connection points: 2
#     Edge 31, Type (0, 1), BuildingBlock: ZUJKAS_clean_linker_0, # of connection points: 2
#     Edge 32, Type (0, 1), BuildingBlock: ZUJKAS_clean_linker_0, # of connection points: 2
#     Edge 33, Type (0, 1), BuildingBlock: ZUJKAS_clean_linker_0, # of connection points: 2
#     Edge 34, Type (0, 1), BuildingBlock: ZUJKAS_clean_linker_0, # of connection points: 2
#     Edge 35, Type (0, 1), BuildingBlock: ZUJKAS_clean_linker_0, # of connection points: 2
#     Edge 36, Type (0, 1), BuildingBlock: ZUJKAS_clean_linker_0, # of connection points: 2
#     Edge 37, Type (0, 1), BuildingBlock: ZUJKAS_clean_linker_0, # of connection points: 2
#     Edge 38, Type (0, 1), BuildingBlock: ZUJKAS_clean_linker_0, # of connection points: 2
#     Edge 39, Type (0, 1), BuildingBlock: ZUJKAS_clean_linker_0, # of connection points: 2
#     Edge 40, Type (0, 1), BuildingBlock: ZUJKAS_clean_linker_0, # of connection points: 2
#     Edge 41, Type (0, 1), BuildingBlock: ZUJKAS_clean_linker_0, # of connection points: 2
#     Edge 42, Type (0, 1), BuildingBlock: ZUJKAS_clean_linker_0, # of connection points: 2
#     Edge 43, Type (0, 1), BuildingBlock: ZUJKAS_clean_linker_0, # of connection points: 2
#     Edge 44, Type (0, 1), BuildingBlock: ZUJKAS_clean_linker_0, # of connection points: 2
#     Edge 45, Type (0, 1), BuildingBlock: ZUJKAS_clean_linker_0, # of connection points: 2
#     Edge 46, Type (0, 1), BuildingBlock: ZUJKAS_clean_linker_0, # of connection points: 2
#     Edge 47, Type (0, 1), BuildingBlock: ZUJKAS_clean_linker_0, # of connection points: 2
#     Edge 48, Type (0, 1), BuildingBlock: ZUJKAS_clean_linker_0, # of connection points: 2
#     Edge 49, Type (0, 1), BuildingBlock: ZUJKAS_clean_linker_0, # of connection points: 2
#     Edge 50, Type (0, 1), BuildingBlock: ZUJKAS_clean_linker_0, # of connection points: 2
#     Edge 51, Type (0, 1), BuildingBlock: ZUJKAS_clean_linker_0, # of connection points: 2
#     Edge 52, Type (0, 1), BuildingBlock: ZUJKAS_clean_linker_0, # of connection points: 2
#     Edge 53, Type (0, 1), BuildingBlock: ZUJKAS_clean_linker_0, # of connection points: 2
#     Edge 54, Type (0, 1), BuildingBlock: ZUJKAS_clean_linker_0, # of connection points: 2
#     Edge 55, Type (0, 1), BuildingBlock: ZUJKAS_clean_linker_0, # of connection points: 2
#     Edge 56, Type (0, 1), BuildingBlock: ZUJKAS_clean_linker_0, # of connection points: 2
#     Edge 57, Type (0, 1), BuildingBlock: ZUJKAS_clean_linker_0, # of connection points: 2
#     Edge 58, Type (0, 1), BuildingBlock: ZUJKAS_clean_linker_0, # of connection points: 2
#     Edge 59, Type (0, 1), BuildingBlock: ZUJKAS_clean_linker_0, # of connection points: 2
#     Edge 60, Type (0, 1), BuildingBlock: ZUJKAS_clean_linker_0, # of connection points: 2
#     Edge 61, Type (0, 1), BuildingBlock: ZUJKAS_clean_linker_0, # of connection points: 2
#     Edge 62, Type (0, 1), BuildingBlock: ZUJKAS_clean_linker_0, # of connection points: 2
#     Edge 63, Type (0, 1), BuildingBlock: ZUJKAS_clean_linker_0, # of connection points: 2
#     Edge 64, Type (0, 1), BuildingBlock: ZUJKAS_clean_linker_0, # of connection points: 2
#     Edge 65, Type (0, 1), BuildingBlock: ZUJKAS_clean_linker_0, # of connection points: 2
#     Edge 66, Type (0, 1), BuildingBlock: ZUJKAS_clean_linker_0, # of connection points: 2
#     Edge 67, Type (0, 1), BuildingBlock: ZUJKAS_clean_linker_0, # of connection points: 2
# Relax obj value: 0.173
# Max RMSD: 0.165
# Mean RMSD: 0.128
data_MOF--net-myd--node1-KOZSID_clean_sbu_0--node2-VOLQOD_clean_sbu_1--edge1-ZUJKAS_clean_linker_0
_symmetry_space_group_name_H-M    P1
_symmetry_Int_Tables_number       1
_symmetry_cell_setting            triclinic
loop_
_symmetry_equiv_pos_as_xyz
'x, y, z'
_cell_length_a     65.328651
_cell_length_b     65.46518
_cell_length_c     65.506194
_cell_angle_alpha  92.291768
_cell_angle_beta   90.321419
_cell_angle_gamma 92.574619
loop_
_atom_site_label
_atom_site_type_symbol
_atom_site_fract_x
_atom_site_fract_y
_atom_site_fract_z
_atom_type_partial_charge
C0 C 0.97912 0.27396 0.345 0.0
C1 C 0.95922 0.27776 0.3508 0.0
C2 C 0.94679 0.26343 0.34055 0.0
C3 C 0.95979 0.25178 0.32912 0.0
N4 N 0.97981 0.25747 0.33188 0.0
Co5 Co 0.00384 0.24631 0.31689 0.0
N6 N 0.98545 0.22796 0.29883 0.0
C7 C 0.96482 0.22536 0.30006 0.0
C8 C 0.95647 0.21153 0.28574 0.0
C9 C 0.97271 0.20486 0.27472 0.0
C10 C 0.9901 0.21504 0.283 0.0
N11 N 0.02789 0.23565 0.30157 0.0
C12 C 0.02848 0.22237 0.2852 0.0
C13 C 0.04846 0.21931 0.27905 0.0
C14 C 0.06093 0.23111 0.29196 0.0
C15 C 0.04794 0.24067 0.30519 0.0
N16 N 0.02218 0.26448 0.33513 0.0
C17 C 0.04289 0.26531 0.33568 0.0
C18 C 0.05114 0.28007 0.34912 0.0
C19 C 0.03473 0.28954 0.35732 0.0
C20 C 0.01735 0.27992 0.34838 0.0
N21 N 0.00551 0.22373 0.33639 0.0
C22 C 0.008 0.18756 0.35826 0.0
C23 C 0.02564 0.1992 0.35348 0.0
C24 C 0.02405 0.21712 0.34275 0.0
C25 C 0.98907 0.19512 0.3532 0.0
C26 C 0.9882 0.21313 0.34254 0.0
N27 N 0.00213 0.26849 0.29735 0.0
C28 C 0.01821 0.29548 0.27808 0.0
C29 C 0.99948 0.29949 0.26896 0.0
C30 C 0.98211 0.28781 0.27449 0.0
C31 C 0.98376 0.27255 0.28858 0.0
C32 C 0.01918 0.28005 0.29218 0.0
H33 H 0.96998 0.26409 0.29205 0.0
H34 H 0.03386 0.27767 0.29869 0.0
H35 H 0.0381 0.22498 0.33935 0.0
H36 H 0.97328 0.2178 0.33912 0.0
C37 C 0.95364 0.23681 0.31423 0.0
C38 C 0.99676 0.28707 0.35144 0.0
C39 C 0.01065 0.21207 0.27519 0.0
C40 C 0.05409 0.25427 0.32127 0.0
H41 H 0.95423 0.29003 0.36088 0.0
H42 H 0.93021 0.26225 0.34067 0.0
H43 H 0.94045 0.20703 0.28343 0.0
H44 H 0.97186 0.19382 0.26196 0.0
H45 H 0.05351 0.20947 0.26657 0.0
H46 H 0.0775 0.23251 0.29175 0.0
H47 H 0.06718 0.28429 0.35171 0.0
H48 H 0.03554 0.30263 0.36795 0.0
H49 H 0.04071 0.19411 0.35722 0.0
H50 H 0.97491 0.18703 0.35717 0.0
H51 H 0.03207 0.30427 0.27446 0.0
H52 H 0.96729 0.29008 0.26764 0.0
C53 C 0.00333 0.71939 0.1323 0.0
C54 C 0.98513 0.71359 0.12224 0.0
C55 C 0.9704 0.72531 0.13076 0.0
C56 C 0.98047 0.73755 0.14543 0.0
N57 N 0.00078 0.73457 0.14653 0.0
Co58 Co 0.02135 0.74866 0.16565 0.0
N59 N 0.99924 0.76294 0.18094 0.0
C60 C 0.97883 0.7612 0.17716 0.0
C61 C 0.96743 0.7723 0.19075 0.0
C62 C 0.98137 0.78157 0.2041 0.0
C63 C 0.00054 0.77562 0.19778 0.0
N64 N 0.04203 0.76329 0.18434 0.0
C65 C 0.03928 0.77648 0.20042 0.0
C66 C 0.05783 0.78369 0.20902 0.0
C67 C 0.07285 0.77465 0.198 0.0
C68 C 0.06267 0.76255 0.18334 0.0
N69 N 0.04332 0.73368 0.15088 0.0
C70 C 0.06375 0.7354 0.15445 0.0
C71 C 0.07475 0.72201 0.14278 0.0
C72 C 0.06044 0.7107 0.13139 0.0
C73 C 0.04153 0.71802 0.13677 0.0
N74 N 0.02423 0.77169 0.14673 0.0
C75 C 0.02872 0.80705 0.12356 0.0
C76 C 0.04561 0.79569 0.12822 0.0
C77 C 0.04304 0.77823 0.13966 0.0
C78 C 0.00944 0.79983 0.12985 0.0
C79 C 0.00756 0.78224 0.14115 0.0
N80 N 0.01844 0.72593 0.18464 0.0
C81 C 0.03306 0.7048 0.20987 0.0
C82 C 0.01377 0.69595 0.21411 0.0
C83 C 0.99698 0.7018 0.20277 0.0
C84 C 0.99963 0.71672 0.18824 0.0
C85 C 0.03507 0.71953 0.19506 0.0
H86 H 0.98619 0.72087 0.18037 0.0
H87 H 0.05017 0.72577 0.19247 0.0
H88 H 0.0566 0.77054 0.14282 0.0
H89 H 0.99244 0.77783 0.14554 0.0
C90 C 0.97091 0.74962 0.16029 0.0
C91 C 0.02219 0.70878 0.1292 0.0
C92 C 0.01949 0.78244 0.20822 0.0
C93 C 0.07198 0.74918 0.16947 0.0
H94 H 0.98268 0.70153 0.11056 0.0
H95 H 0.95413 0.72422 0.12746 0.0
H96 H 0.95097 0.77357 0.19087 0.0
H97 H 0.97785 0.79162 0.21701 0.0
H98 H 0.06025 0.79426 0.22204 0.0
H99 H 0.08922 0.77638 0.20061 0.0
H100 H 0.09114 0.72024 0.14298 0.0
H101 H 0.0635 0.69817 0.12074 0.0
H102 H 0.06084 0.80034 0.12325 0.0
H103 H 0.99583 0.80807 0.12672 0.0
H104 H 0.04657 0.70046 0.21801 0.0
H105 H 0.98171 0.69543 0.20556 0.0
C106 C 0.35955 0.9772 0.27987 0.0
C107 C 0.36312 0.95701 0.28384 0.0
C108 C 0.35344 0.94526 0.26869 0.0
C109 C 0.34454 0.95891 0.25644 0.0
N110 N 0.34841 0.9787 0.26252 0.0
Co111 Co 0.33665 0.00343 0.25065 0.0
N112 N 0.31957 0.9861 0.23049 0.0
C113 C 0.32016 0.9656 0.22711 0.0
C114 C 0.30709 0.95802 0.21192 0.0
C115 C 0.29759 0.97464 0.20517 0.0
C116 C 0.30536 0.99148 0.21677 0.0
N117 N 0.32409 0.02813 0.23952 0.0
C118 C 0.30892 0.0295 0.22547 0.0
C119 C 0.304 0.04968 0.223 0.0
C120 C 0.31654 0.06147 0.23589 0.0
C121 C 0.32825 0.04789 0.24556 0.0
N122 N 0.35429 0.02074 0.27031 0.0
C123 C 0.35645 0.0414 0.27133 0.0
C124 C 0.36908 0.04892 0.28692 0.0
C125 C 0.37504 0.03209 0.29665 0.0
C126 C 0.36567 0.0152 0.28637 0.0
N127 N 0.35886 0.00502 0.22993 0.0
C128 C 0.3857 0.00727 0.19644 0.0
C129 C 0.3796 0.02499 0.2068 0.0
C130 C 0.36638 0.02353 0.22341 0.0
C131 C 0.3793 0.98843 0.20397 0.0
C132 C 0.36619 0.98767 0.2207 0.0
N133 N 0.31455 0.00181 0.27106 0.0
C134 C 0.29579 0.01684 0.29912 0.0
C135 C 0.28359 0.99885 0.30069 0.0
C136 C 0.28716 0.98247 0.28697 0.0
C137 C 0.30271 0.98418 0.2726 0.0
C138 C 0.31091 0.01806 0.28416 0.0
H139 H 0.30488 0.97102 0.26286 0.0
H140 H 0.31957 0.03225 0.28352 0.0
H141 H 0.36206 0.03763 0.23027 0.0
H142 H 0.36191 0.9728 0.2255 0.0
C143 C 0.33162 0.95369 0.23978 0.0
C144 C 0.3664 0.99439 0.29341 0.0
C145 C 0.29867 0.0122 0.21424 0.0
C146 C 0.34363 0.05322 0.25997 0.0
H147 H 0.37146 0.95139 0.29663 0.0
H148 H 0.35243 0.92872 0.26718 0.0
H149 H 0.30443 0.94222 0.20671 0.0
H150 H 0.28609 0.97439 0.1932 0.0
H151 H 0.29251 0.05531 0.21296 0.0
H152 H 0.31704 0.07797 0.23797 0.0
H153 H 0.37245 0.06479 0.29151 0.0
H154 H 0.38442 0.03233 0.31032 0.0
H155 H 0.38424 0.04 0.2016 0.0
H156 H 0.3841 0.97426 0.19676 0.0
H157 H 0.2939 0.02992 0.30945 0.0
H158 H 0.27789 0.96835 0.28706 0.0
C159 C 0.64958 0.48683 0.23038 0.0
C160 C 0.63899 0.46918 0.22305 0.0
C161 C 0.64636 0.45342 0.23351 0.0
C162 C 0.661 0.46235 0.24648 0.0
N163 N 0.66308 0.48292 0.24531 0.0
Co164 Co 0.68368 0.50195 0.25993 0.0
N165 N 0.69647 0.47858 0.27328 0.0
C166 C 0.68991 0.45867 0.27215 0.0
C167 C 0.70144 0.44629 0.28356 0.0
C168 C 0.71617 0.45908 0.29263 0.0
C169 C 0.71277 0.47857 0.28614 0.0
N170 N 0.70478 0.52097 0.2738 0.0
C171 C 0.72071 0.51682 0.286 0.0
C172 C 0.73221 0.53448 0.29188 0.0
C173 C 0.72308 0.55037 0.28322 0.0
C174 C 0.7067 0.54156 0.27249 0.0
N175 N 0.67043 0.52532 0.24711 0.0
C176 C 0.67495 0.54553 0.25052 0.0
C177 C 0.66339 0.55781 0.239 0.0
C178 C 0.65099 0.54463 0.22731 0.0
C179 C 0.65578 0.52506 0.23242 0.0
N180 N 0.66524 0.5048 0.28396 0.0
C181 C 0.64428 0.50685 0.3216 0.0
C182 C 0.65539 0.52387 0.31452 0.0
C183 C 0.66539 0.5226 0.29574 0.0
C184 C 0.64271 0.48926 0.30878 0.0
C185 C 0.6532 0.48857 0.29025 0.0
N186 N 0.70229 0.49903 0.23628 0.0
C187 C 0.72574 0.51407 0.21204 0.0
C188 C 0.7316 0.49471 0.20511 0.0
C189 C 0.72182 0.47758 0.21349 0.0
C190 C 0.7073 0.48006 0.22886 0.0
C191 C 0.71113 0.51587 0.22747 0.0
H192 H 0.7005 0.46641 0.23475 0.0
H193 H 0.70747 0.53103 0.23234 0.0
H194 H 0.67359 0.53612 0.29144 0.0
H195 H 0.6516 0.47452 0.2816 0.0
C196 C 0.6736 0.45187 0.25938 0.0
C197 C 0.64739 0.50671 0.22174 0.0
C198 C 0.7253 0.49658 0.29275 0.0
C199 C 0.69219 0.55226 0.26199 0.0
H200 H 0.62754 0.46783 0.211 0.0
H201 H 0.64201 0.43731 0.23146 0.0
H202 H 0.69948 0.4299 0.28495 0.0
H203 H 0.72809 0.45459 0.30286 0.0
H204 H 0.74568 0.53577 0.30162 0.0
H205 H 0.72767 0.56645 0.28478 0.0
H206 H 0.66467 0.57431 0.2383 0.0
H207 H 0.64024 0.54884 0.21573 0.0
H208 H 0.65712 0.53797 0.3237 0.0
H209 H 0.63369 0.47586 0.31311 0.0
H210 H 0.73284 0.52784 0.20608 0.0
H211 H 0.72542 0.46225 0.20829 0.0
C212 C 0.30106 0.36519 0.98753 0.0
C213 C 0.3063 0.37136 0.96813 0.0
C214 C 0.29345 0.36064 0.95471 0.0
C215 C 0.28122 0.34845 0.96654 0.0
N216 N 0.28519 0.35107 0.98679 0.0
Co217 Co 0.27248 0.3351 0.00937 0.0
N218 N 0.25732 0.3159 0.98933 0.0
C219 C 0.25751 0.31658 0.96871 0.0
C220 C 0.24579 0.3012 0.95901 0.0
C221 C 0.23765 0.28997 0.97434 0.0
C222 C 0.2449 0.29923 0.99257 0.0
N223 N 0.25966 0.31936 0.03202 0.0
C224 C 0.24669 0.3026 0.03121 0.0
C225 C 0.24125 0.29657 0.0506 0.0
C226 C 0.25105 0.31007 0.06416 0.0
C227 C 0.26189 0.3235 0.05235 0.0
N228 N 0.28805 0.35397 0.02933 0.0
C229 C 0.2871 0.35416 0.04996 0.0
C230 C 0.30037 0.36835 0.05948 0.0
C231 C 0.31085 0.37737 0.04402 0.0
C232 C 0.30336 0.36803 0.02594 0.0
N233 N 0.24877 0.35333 0.01003 0.0
C234 C 0.21178 0.37414 0.01165 0.0
C235 C 0.22353 0.37196 0.02925 0.0
C236 C 0.24182 0.36168 0.02809 0.0
C237 C 0.21952 0.3668 0.99307 0.0
C238 C 0.23791 0.35671 0.99261 0.0
N239 N 0.29581 0.31681 0.00869 0.0
C240 C 0.31986 0.29634 0.02604 0.0
C241 C 0.32747 0.28902 0.00737 0.0
C242 C 0.31934 0.29628 0.98943 0.0
C243 C 0.30362 0.30999 0.99043 0.0
C244 C 0.30425 0.31029 0.02636 0.0
H245 H 0.29779 0.31464 0.9762 0.0
H246 H 0.29907 0.31547 0.04102 0.0
H247 H 0.24975 0.3604 0.04212 0.0
H248 H 0.24264 0.35137 0.97797 0.0
C249 C 0.26859 0.33206 0.95893 0.0
C250 C 0.31249 0.37168 0.0061 0.0
C251 C 0.2392 0.29185 0.01254 0.0
C252 C 0.27483 0.33967 0.05989 0.0
H253 H 0.31866 0.38177 0.96381 0.0
H254 H 0.29393 0.36069 0.93819 0.0
H255 H 0.24339 0.29853 0.94274 0.0
H256 H 0.22741 0.27657 0.97234 0.0
H257 H 0.23127 0.2837 0.05454 0.0
H258 H 0.25049 0.31 0.08067 0.0
H259 H 0.30278 0.37116 0.07573 0.0
H260 H 0.3232 0.3889 0.04581 0.0
H261 H 0.21856 0.37792 0.04397 0.0
H262 H 0.21108 0.36809 0.97894 0.0
H263 H 0.32589 0.2913 0.04034 0.0
H264 H 0.32461 0.29089 0.9746 0.0
C265 C 0.23113 0.63329 0.47035 0.0
C266 C 0.22827 0.62569 0.45042 0.0
C267 C 0.24215 0.63613 0.43879 0.0
C268 C 0.25258 0.64943 0.45226 0.0
N269 N 0.24652 0.64783 0.47186 0.0
Co270 Co 0.25626 0.66517 0.4962 0.0
N271 N 0.2748 0.68231 0.47879 0.0
C272 C 0.27821 0.67954 0.45852 0.0
C273 C 0.29201 0.69359 0.45089 0.0
C274 C 0.29781 0.70609 0.46725 0.0
C275 C 0.28709 0.69892 0.48396 0.0
N276 N 0.26546 0.68287 0.5205 0.0
C277 C 0.27829 0.69972 0.5216 0.0
C278 C 0.28009 0.70796 0.54142 0.0
C279 C 0.26795 0.69586 0.5533 0.0
C280 C 0.25943 0.68105 0.5401 0.0
N281 N 0.23812 0.64764 0.51365 0.0
C282 C 0.23636 0.64891 0.53422 0.0
C283 C 0.22228 0.63504 0.54172 0.0
C284 C 0.21431 0.62449 0.5249 0.0
C285 C 0.22406 0.63261 0.50809 0.0
N286 N 0.27926 0.64679 0.50073 0.0
C287 C 0.31513 0.6254 0.50778 0.0
C288 C 0.30254 0.63141 0.5239 0.0
C289 C 0.2849 0.64196 0.52008 0.0
C290 C 0.30876 0.62925 0.48794 0.0
C291 C 0.29086 0.63969 0.4848 0.0
N292 N 0.23358 0.68376 0.49178 0.0
C293 C 0.20546 0.70306 0.50495 0.0
C294 C 0.20388 0.71336 0.48669 0.0
C295 C 0.21697 0.70775 0.47074 0.0
C296 C 0.23129 0.69284 0.47348 0.0
C297 C 0.22037 0.68863 0.50721 0.0
H298 H 0.24065 0.68917 0.46067 0.0
H299 H 0.22111 0.6818 0.52169 0.0
H300 H 0.27634 0.64637 0.53313 0.0
H301 H 0.28705 0.64221 0.46935 0.0
C302 C 0.26735 0.6643 0.44686 0.0
C303 C 0.21813 0.62702 0.48711 0.0
C304 C 0.28904 0.70846 0.50436 0.0
C305 C 0.24615 0.66496 0.54572 0.0
H306 H 0.21697 0.61416 0.44488 0.0
H307 H 0.24398 0.63464 0.42239 0.0
H308 H 0.29704 0.69478 0.43524 0.0
H309 H 0.30861 0.71911 0.46691 0.0
H310 H 0.28925 0.72132 0.54675 0.0
H311 H 0.26566 0.69763 0.56961 0.0
H312 H 0.2176 0.63349 0.55743 0.0
H313 H 0.20212 0.61274 0.52497 0.0
H314 H 0.30635 0.62823 0.53953 0.0
H315 H 0.31786 0.62489 0.47485 0.0
H316 H 0.19535 0.70612 0.51763 0.0
H317 H 0.2167 0.71515 0.45627 0.0
C318 C 0.78349 0.83982 0.477 0.0
C319 C 0.78793 0.8433 0.45668 0.0
C320 C 0.77337 0.83251 0.44518 0.0
C321 C 0.76107 0.82286 0.459 0.0
N322 N 0.76657 0.8272 0.47871 0.0
Co323 Co 0.75489 0.81403 0.50353 0.0
N324 N 0.73595 0.79539 0.4864 0.0
C325 C 0.73301 0.79573 0.46596 0.0
C326 C 0.7185 0.78153 0.45856 0.0
C327 C 0.71165 0.77158 0.47529 0.0
C328 C 0.72246 0.78033 0.49198 0.0
N329 N 0.74406 0.80025 0.52833 0.0
C330 C 0.73047 0.78415 0.52985 0.0
C331 C 0.72764 0.77897 0.55002 0.0
C332 C 0.73989 0.79229 0.56168 0.0
C333 C 0.74949 0.80475 0.54802 0.0
N334 N 0.77327 0.83311 0.52066 0.0
C335 C 0.77367 0.83531 0.54126 0.0
C336 C 0.78787 0.84989 0.54859 0.0
C337 C 0.79737 0.85712 0.53165 0.0
C338 C 0.78848 0.84635 0.51495 0.0
N339 N 0.73279 0.83407 0.50547 0.0
C340 C 0.69666 0.85608 0.50778 0.0
C341 C 0.70693 0.85096 0.52548 0.0
C342 C 0.72489 0.84017 0.52398 0.0
C343 C 0.70567 0.85148 0.489 0.0
C344 C 0.72365 0.84076 0.48821 0.0
N345 N 0.77658 0.7939 0.50154 0.0
C346 C 0.80356 0.77536 0.51683 0.0
C347 C 0.80621 0.764 0.49855 0.0
C348 C 0.79414 0.76832 0.48173 0.0
C349 C 0.77957 0.78315 0.48354 0.0
C350 C 0.78873 0.79016 0.51799 0.0
H351 H 0.7708 0.78561 0.47017 0.0
H352 H 0.78716 0.79829 0.53234 0.0
H353 H 0.73168 0.83645 0.53805 0.0
H354 H 0.72946 0.83767 0.47337 0.0
C355 C 0.74519 0.8085 0.45396 0.0
C356 C 0.79622 0.84783 0.49421 0.0
C357 C 0.71947 0.77371 0.51276 0.0
C358 C 0.76284 0.82143 0.55324 0.0
H359 H 0.80067 0.85212 0.45056 0.0
H360 H 0.77243 0.83114 0.42868 0.0
H361 H 0.71372 0.77853 0.44284 0.0
H362 H 0.7001 0.7592 0.47521 0.0
H363 H 0.71757 0.76695 0.55573 0.0
H364 H 0.74141 0.79299 0.57816 0.0
H365 H 0.79166 0.85394 0.56438 0.0
H366 H 0.81003 0.86837 0.53161 0.0
H367 H 0.70069 0.85442 0.54044 0.0
H368 H 0.69866 0.85578 0.47486 0.0
H369 H 0.81253 0.77255 0.5303 0.0
H370 H 0.79594 0.76032 0.46709 0.0
C371 C 0.48218 0.78914 0.86034 0.0
C372 C 0.46321 0.79342 0.86843 0.0
C373 C 0.44974 0.77831 0.86104 0.0
C374 C 0.46124 0.76572 0.84894 0.0
N375 N 0.48133 0.77165 0.84852 0.0
Co376 Co 0.50338 0.7587 0.83201 0.0
N377 N 0.48295 0.73926 0.81758 0.0
C378 C 0.46246 0.73784 0.82064 0.0
C379 C 0.4524 0.72326 0.80825 0.0
C380 C 0.46731 0.71488 0.79652 0.0
C381 C 0.4857 0.72485 0.80252 0.0
N382 N 0.52553 0.74567 0.81568 0.0
C383 C 0.52426 0.73048 0.801 0.0
C384 C 0.54349 0.72569 0.79378 0.0
C385 C 0.55738 0.73835 0.80422 0.0
C386 C 0.54593 0.75006 0.8172 0.0
N387 N 0.5237 0.77851 0.8461 0.0
C388 C 0.54428 0.77941 0.84383 0.0
C389 C 0.55399 0.79561 0.85432 0.0
C390 C 0.53866 0.80601 0.86347 0.0
C391 C 0.52043 0.79542 0.85806 0.0
N392 N 0.50709 0.73838 0.85354 0.0
C393 C 0.51311 0.70488 0.87854 0.0
C394 C 0.52951 0.71799 0.87318 0.0
C395 C 0.52618 0.73452 0.86088 0.0
C396 C 0.49347 0.70976 0.87239 0.0
C397 C 0.49084 0.72651 0.86023 0.0
N398 N 0.4997 0.77861 0.81046 0.0
C399 C 0.51391 0.80132 0.78544 0.0
C400 C 0.49429 0.80601 0.77898 0.0
C401 C 0.47746 0.79701 0.78884 0.0
C402 C 0.48048 0.78348 0.8044 0.0
C403 C 0.51625 0.78769 0.8011 0.0
H404 H 0.46705 0.77707 0.81129 0.0
H405 H 0.53157 0.78457 0.80531 0.0
H406 H 0.5394 0.7436 0.8572 0.0
H407 H 0.4755 0.72911 0.856 0.0
C408 C 0.4532 0.75023 0.83549 0.0
C409 C 0.50031 0.80274 0.8633 0.0
C410 C 0.50534 0.72006 0.79349 0.0
C411 C 0.55382 0.76587 0.83031 0.0
H412 H 0.45942 0.80651 0.87806 0.0
H413 H 0.43332 0.7773 0.86328 0.0
H414 H 0.43615 0.71918 0.80781 0.0
H415 H 0.46495 0.70278 0.78489 0.0
H416 H 0.54709 0.71424 0.78214 0.0
H417 H 0.57386 0.73907 0.80243 0.0
H418 H 0.5702 0.79989 0.85453 0.0
H419 H 0.54067 0.82018 0.87247 0.0
H420 H 0.54498 0.71537 0.87815 0.0
H421 H 0.48016 0.70024 0.87619 0.0
H422 H 0.52744 0.80776 0.77819 0.0
H423 H 0.46196 0.80043 0.78467 0.0
C424 C 0.53991 0.28032 0.65632 0.0
C425 C 0.55986 0.28613 0.65127 0.0
C426 C 0.57227 0.27329 0.66095 0.0
C427 C 0.55921 0.26048 0.67132 0.0
N428 N 0.53918 0.26401 0.66843 0.0
Co429 Co 0.51507 0.25062 0.68218 0.0
N430 N 0.53335 0.234 0.69905 0.0
C431 C 0.55396 0.23308 0.69763 0.0
C432 C 0.56224 0.2199 0.71079 0.0
C433 C 0.54598 0.21189 0.72125 0.0
C434 C 0.52864 0.22079 0.71393 0.0
N435 N 0.49095 0.23787 0.69655 0.0
C436 C 0.49029 0.22481 0.71213 0.0
C437 C 0.47031 0.22055 0.71834 0.0
C438 C 0.45792 0.23118 0.70619 0.0
C439 C 0.47095 0.24141 0.69341 0.0
N440 N 0.4968 0.26677 0.66484 0.0
C441 C 0.47608 0.26558 0.66407 0.0
C442 C 0.4679 0.27914 0.65123 0.0
C443 C 0.48435 0.28991 0.64366 0.0
C444 C 0.50167 0.28223 0.65237 0.0
N445 N 0.51367 0.22799 0.66095 0.0
C446 C 0.51125 0.19333 0.63397 0.0
C447 C 0.4936 0.20283 0.64048 0.0
C448 C 0.49515 0.21991 0.65385 0.0
C449 C 0.5302 0.20215 0.64027 0.0
C450 C 0.53105 0.21942 0.65352 0.0
N451 N 0.51646 0.2731 0.70325 0.0
C452 C 0.50079 0.30109 0.7214 0.0
C453 C 0.51879 0.30576 0.73262 0.0
C454 C 0.53561 0.29369 0.72877 0.0
C455 C 0.53421 0.27777 0.71398 0.0
C456 C 0.49987 0.28465 0.70717 0.0
H457 H 0.54767 0.26941 0.71149 0.0
H458 H 0.48558 0.28164 0.69943 0.0
H459 H 0.48106 0.22599 0.65846 0.0
H460 H 0.54595 0.22521 0.65782 0.0
C461 C 0.56524 0.2459 0.68486 0.0
C462 C 0.52222 0.29136 0.65009 0.0
C463 C 0.50809 0.21624 0.72165 0.0
C464 C 0.46485 0.25407 0.67801 0.0
H465 H 0.56487 0.2987 0.64199 0.0
H466 H 0.58885 0.27373 0.66102 0.0
H467 H 0.57824 0.21675 0.71278 0.0
H468 H 0.54681 0.20083 0.73304 0.0
H469 H 0.46519 0.21082 0.73044 0.0
H470 H 0.44137 0.23145 0.70665 0.0
H471 H 0.45186 0.28178 0.64868 0.0
H472 H 0.48359 0.3026 0.63365 0.0
H473 H 0.47854 0.19692 0.63557 0.0
H474 H 0.54436 0.19538 0.63563 0.0
H475 H 0.48738 0.31007 0.72342 0.0
H476 H 0.54981 0.29621 0.73727 0.0
C477 C 0.86849 0.48483 0.78239 0.0
C478 C 0.87261 0.46501 0.7873 0.0
C479 C 0.86136 0.45229 0.77406 0.0
C480 C 0.85105 0.46505 0.76193 0.0
N481 N 0.8555 0.48514 0.76622 0.0
Co482 Co 0.8422 0.50898 0.75425 0.0
N483 N 0.82284 0.49044 0.73748 0.0
C484 C 0.82327 0.46983 0.7352 0.0
C485 C 0.80827 0.46131 0.7224 0.0
C486 C 0.79762 0.47743 0.71613 0.0
C487 C 0.80676 0.49492 0.72556 0.0
N488 N 0.82809 0.53285 0.74328 0.0
C489 C 0.81094 0.5333 0.73158 0.0
C490 C 0.80563 0.55322 0.72834 0.0
C491 C 0.81987 0.5658 0.73846 0.0
C492 C 0.83296 0.55291 0.74733 0.0
N493 N 0.86214 0.52745 0.77037 0.0
C494 C 0.86449 0.54802 0.76953 0.0
C495 C 0.87891 0.5565 0.78302 0.0
C496 C 0.88586 0.54043 0.79334 0.0
C497 C 0.87526 0.523 0.78549 0.0
N498 N 0.86154 0.5089 0.73075 0.0
C499 C 0.88407 0.5083 0.6941 0.0
C500 C 0.87856 0.52675 0.70347 0.0
C501 C 0.86749 0.5267 0.72165 0.0
C502 C 0.87928 0.49028 0.70404 0.0
C503 C 0.86829 0.49094 0.72226 0.0
N504 N 0.82297 0.50901 0.77737 0.0
C505 C 0.80773 0.52623 0.80641 0.0
C506 C 0.79545 0.50875 0.81032 0.0
C507 C 0.79737 0.49142 0.79736 0.0
C508 C 0.81128 0.49179 0.78134 0.0
C509 C 0.82109 0.52611 0.78984 0.0
H510 H 0.81226 0.47797 0.77224 0.0
H511 H 0.82978 0.54 0.78737 0.0
H512 H 0.86356 0.54128 0.72766 0.0
H513 H 0.86519 0.47661 0.72886 0.0
C514 C 0.8363 0.45877 0.74716 0.0
C515 C 0.87655 0.50288 0.79405 0.0
C516 C 0.79929 0.51535 0.72314 0.0
C517 C 0.85022 0.5591 0.75911 0.0
H518 H 0.88233 0.4603 0.79954 0.0
H519 H 0.86026 0.43573 0.7738 0.0
H520 H 0.80502 0.44524 0.71862 0.0
H521 H 0.78439 0.47641 0.70605 0.0
H522 H 0.79278 0.55812 0.71956 0.0
H523 H 0.82058 0.58236 0.73927 0.0
H524 H 0.88281 0.57258 0.78605 0.0
H525 H 0.89674 0.5416 0.80589 0.0
H526 H 0.882 0.54118 0.69641 0.0
H527 H 0.88374 0.47563 0.69765 0.0
H528 H 0.80717 0.53999 0.81608 0.0
H529 H 0.78797 0.47759 0.79924 0.0
C530 C 0.16217 0.0258 0.77886 0.0
C531 C 0.15603 0.04539 0.78374 0.0
C532 C 0.16426 0.05776 0.76931 0.0
C533 C 0.17489 0.04504 0.75651 0.0
N534 N 0.17356 0.02521 0.76164 0.0
Co535 Co 0.18778 0.00171 0.74833 0.0
N536 N 0.20343 0.02042 0.72984 0.0
C537 C 0.20182 0.0409 0.72872 0.0
C538 C 0.21471 0.04962 0.71477 0.0
C539 C 0.22529 0.03382 0.70653 0.0
C540 C 0.21821 0.01629 0.71599 0.0
N541 N 0.20203 0.97817 0.73504 0.0
C542 C 0.21675 0.97801 0.72051 0.0
C543 C 0.22261 0.95828 0.71568 0.0
C544 C 0.21118 0.94552 0.72753 0.0
C545 C 0.19907 0.9581 0.73892 0.0
N546 N 0.17238 0.98307 0.76705 0.0
C547 C 0.17277 0.96244 0.76724 0.0
C548 C 0.16163 0.95408 0.78275 0.0
C549 C 0.15406 0.97037 0.79342 0.0
C550 C 0.16102 0.98778 0.78369 0.0
N551 N 0.16539 0.99794 0.72759 0.0
C552 C 0.13669 0.9921 0.69535 0.0
C553 C 0.14251 0.97569 0.70668 0.0
C554 C 0.1567 0.97893 0.7226 0.0
C555 C 0.14462 0.01163 0.70114 0.0
C556 C 0.1587 0.01417 0.7172 0.0
N557 N 0.20993 0.00546 0.7689 0.0
C558 C 0.23195 0.99164 0.7941 0.0
C559 C 0.23969 0.01126 0.79991 0.0
C560 C 0.2325 0.02788 0.78973 0.0
C561 C 0.21778 0.02465 0.77436 0.0
C562 C 0.21722 0.98909 0.7786 0.0
H563 H 0.21279 0.03792 0.76725 0.0
H564 H 0.21183 0.97379 0.77478 0.0
H565 H 0.1606 0.96571 0.73031 0.0
H566 H 0.16425 0.0294 0.7205 0.0
C567 C 0.18835 0.05158 0.74131 0.0
C568 C 0.15787 0.00847 0.79166 0.0
C569 C 0.2259 0.99609 0.71117 0.0
C570 C 0.18545 0.95161 0.75398 0.0
H571 H 0.14714 0.0503 0.79679 0.0
H572 H 0.16349 0.07422 0.76885 0.0
H573 H 0.21635 0.06559 0.71113 0.0
H574 H 0.23692 0.03504 0.69488 0.0
H575 H 0.23411 0.9536 0.70485 0.0
H576 H 0.21186 0.92906 0.72802 0.0
H577 H 0.16004 0.93812 0.78646 0.0
H578 H 0.14509 0.96959 0.80722 0.0
H579 H 0.13642 0.96029 0.70307 0.0
H580 H 0.14068 0.02488 0.69279 0.0
H581 H 0.23736 0.97828 0.80133 0.0
H582 H 0.23794 0.04339 0.79382 0.0
C583 C 0.7385 0.14581 0.97959 0.0
C584 C 0.73224 0.13601 0.9613 0.0
C585 C 0.74416 0.14429 0.94642 0.0
C586 C 0.75693 0.15857 0.95649 0.0
N587 N 0.75417 0.15965 0.97695 0.0
Co588 Co 0.76861 0.17879 0.99748 0.0
N589 N 0.78397 0.19311 0.97537 0.0
C590 C 0.78314 0.18844 0.95505 0.0
C591 C 0.7955 0.20101 0.9437 0.0
C592 C 0.80477 0.21455 0.95758 0.0
C593 C 0.79745 0.20943 0.97665 0.0
N594 N 0.78296 0.19798 0.01807 0.0
C595 C 0.79653 0.21383 0.01526 0.0
C596 C 0.80261 0.22352 0.0337 0.0
C597 C 0.79261 0.21333 0.04871 0.0
C598 C 0.78099 0.19813 0.03864 0.0
N599 N 0.75317 0.16444 0.01955 0.0
C600 C 0.75495 0.16808 0.03997 0.0
C601 C 0.74161 0.15631 0.05113 0.0
C602 C 0.73036 0.14471 0.03698 0.0
C603 C 0.73758 0.15011 0.01797 0.0
N604 N 0.79133 0.15961 0.99971 0.0
C605 C 0.82792 0.13852 0.00273 0.0
C606 C 0.81774 0.14543 0.0202 0.0
C607 C 0.79958 0.15566 0.01835 0.0
C608 C 0.81864 0.14098 0.98379 0.0
C609 C 0.80045 0.15138 0.98265 0.0
N610 N 0.74632 0.19823 0.99528 0.0
C611 C 0.72422 0.22283 0.01118 0.0
C612 C 0.71802 0.2293 0.99212 0.0
C613 C 0.72551 0.21921 0.97467 0.0
C614 C 0.73942 0.20376 0.97658 0.0
C615 C 0.73821 0.20737 0.0124 0.0
H616 H 0.7447 0.19671 0.96274 0.0
H617 H 0.7426 0.20336 0.02736 0.0
H618 H 0.79285 0.16068 0.03227 0.0
H619 H 0.79446 0.15304 0.96774 0.0
C620 C 0.77041 0.17234 0.94704 0.0
C621 C 0.72818 0.14246 0.99885 0.0
C622 C 0.80389 0.22042 0.99551 0.0
C623 C 0.76789 0.18398 0.04806 0.0
H624 H 0.71992 0.12453 0.95894 0.0
H625 H 0.74309 0.14087 0.93014 0.0
H626 H 0.79748 0.20043 0.9273 0.0
H627 H 0.81571 0.2268 0.95407 0.0
H628 H 0.81312 0.23667 0.03609 0.0
H629 H 0.79359 0.21669 0.06501 0.0
H630 H 0.7397 0.15674 0.06754 0.0
H631 H 0.71782 0.134 0.04024 0.0
H632 H 0.82396 0.14327 0.03529 0.0
H633 H 0.82581 0.13572 0.96978 0.0
H634 H 0.71889 0.23013 0.02517 0.0
H635 H 0.72077 0.22328 0.95955 0.0
O636 O 0.11145 0.04663 0.08864 0.0
Zn637 Zn 0.08279 0.05137 0.07891 0.0
O638 O 0.08349 0.06316 0.05196 0.0
Zn639 Zn 0.0726 0.09041 0.0539 0.0
Zn640 Zn 0.11172 0.06484 0.04214 0.0
Zn641 Zn 0.06658 0.04607 0.03274 0.0
O642 O 0.04557 0.09111 0.03908 0.0
O643 O 0.04003 0.05942 0.02631 0.0
O644 O 0.07004 0.07013 0.10021 0.0
O645 O 0.06648 0.09831 0.08304 0.0
O646 O 0.09272 0.11183 0.0436 0.0
O647 O 0.12057 0.09422 0.03816 0.0
O648 O 0.11396 0.05067 0.01424 0.0
O649 O 0.06786 0.02373 0.07755 0.0
O650 O 0.08177 0.04091 0.0064 0.0
O651 O 0.05941 0.01881 0.04475 0.0
C652 C 0.12917 0.04775 0.08061 0.0
C653 C 0.03417 0.07758 0.02952 0.0
C654 C 0.1115 0.11105 0.03862 0.0
C655 C 0.06526 0.08877 0.09957 0.0
C656 C 0.10062 0.04286 0.00158 0.0
C657 C 0.06021 0.01246 0.06286 0.0
O658 O 0.13164 0.0538 0.06248 0.0
O659 O 0.92358 0.46745 0.08593 0.0
Zn660 Zn 0.95277 0.46215 0.07807 0.0
O661 O 0.95406 0.45033 0.05025 0.0
Zn662 Zn 0.96489 0.42309 0.05119 0.0
Zn663 Zn 0.92658 0.44888 0.03826 0.0
Zn664 Zn 0.97207 0.46714 0.03329 0.0
O665 O 0.99274 0.42208 0.03826 0.0
O666 O 0.99863 0.45341 0.02731 0.0
O667 O 0.96351 0.44325 0.09901 0.0
O668 O 0.96883 0.41508 0.0802 0.0
O669 O 0.94565 0.40194 0.03748 0.0
O670 O 0.91845 0.41974 0.03061 0.0
O671 O 0.92578 0.46365 0.01186 0.0
O672 O 0.96848 0.48927 0.07991 0.0
O673 O 0.95829 0.47314 0.00648 0.0
O674 O 0.97948 0.49382 0.04828 0.0
C675 C 0.90643 0.46596 0.0765 0.0
C676 C 0.00443 0.43538 0.02994 0.0
C677 C 0.92748 0.4029 0.03055 0.0
C678 C 0.96849 0.42465 0.09749 0.0
C679 C 0.93962 0.47154 0.00061 0.0
C680 C 0.97766 0.50017 0.06679 0.0
O681 O 0.90524 0.45949 0.0579 0.0
O682 O 0.09175 0.90619 0.45677 0.0
Zn683 Zn 0.08281 0.93503 0.45328 0.0
O684 O 0.05585 0.9347 0.44029 0.0
Zn685 Zn 0.0585 0.94569 0.41319 0.0
Zn686 Zn 0.04476 0.90655 0.438 0.0
Zn687 Zn 0.03743 0.95149 0.45651 0.0
O688 O 0.04461 0.97241 0.41158 0.0
O689 O 0.03187 0.97785 0.44257 0.0
O690 O 0.10445 0.9493 0.43641 0.0
O691 O 0.08807 0.95192 0.40687 0.0
O692 O 0.04751 0.92572 0.39125 0.0
O693 O 0.04109 0.89771 0.40855 0.0
O694 O 0.01653 0.90433 0.44991 0.0
O695 O 0.08192 0.94871 0.48128 0.0
O696 O 0.01057 0.93595 0.46141 0.0
O697 O 0.05001 0.95889 0.48395 0.0
C698 C 0.08235 0.88868 0.45603 0.0
C699 C 0.03533 0.98366 0.4245 0.0
C700 C 0.04194 0.90686 0.39178 0.0
C701 C 0.10434 0.95381 0.41768 0.0
C702 C 0.0048 0.91724 0.45819 0.0
C703 C 0.06781 0.95711 0.49151 0.0
O704 O 0.06361 0.88656 0.45052 0.0
O705 O 0.97365 0.5833 0.40541 0.0
Zn706 Zn 0.96897 0.57536 0.43447 0.0
O707 O 0.95636 0.54779 0.43524 0.0
Zn708 Zn 0.92962 0.54911 0.44821 0.0
Zn709 Zn 0.95336 0.5362 0.40743 0.0
Zn710 Zn 0.9735 0.53028 0.45092 0.0
O711 O 0.92934 0.53523 0.475 0.0
O712 O 0.96094 0.52463 0.47838 0.0
O713 O 0.95119 0.59667 0.44779 0.0
O714 O 0.92295 0.5783 0.45492 0.0
O715 O 0.90715 0.53663 0.42989 0.0
O716 O 0.9237 0.53021 0.40099 0.0
O717 O 0.96632 0.50889 0.40439 0.0
O718 O 0.99681 0.57632 0.44772 0.0
O719 O 0.97722 0.50314 0.43572 0.0
O720 O 0.00126 0.54421 0.45604 0.0
C721 C 0.97159 0.574 0.38802 0.0
C722 C 0.94301 0.52695 0.48541 0.0
C723 C 0.90721 0.53037 0.41123 0.0
C724 C 0.93295 0.59543 0.45459 0.0
C725 C 0.97422 0.49724 0.41711 0.0
C726 C 0.00797 0.56269 0.4547 0.0
O727 O 0.96445 0.55556 0.38638 0.0
O728 O 0.41414 0.96182 0.58673 0.0
Zn729 Zn 0.44271 0.95515 0.57806 0.0
O730 O 0.44211 0.94064 0.55138 0.0
Zn731 Zn 0.45231 0.91339 0.55448 0.0
Zn732 Zn 0.41401 0.93883 0.54065 0.0
Zn733 Zn 0.45972 0.9551 0.53217 0.0
O734 O 0.47936 0.9102 0.54047 0.0
O735 O 0.48552 0.94004 0.5263 0.0
O736 O 0.45395 0.93803 0.6003 0.0
O737 O 0.45752 0.90807 0.584 0.0
O738 O 0.43197 0.89171 0.54371 0.0
O739 O 0.40483 0.9093 0.5361 0.0
O740 O 0.4123 0.95126 0.51287 0.0
O741 O 0.45927 0.98175 0.57668 0.0
O742 O 0.44479 0.95921 0.50563 0.0
O743 O 0.46874 0.98271 0.54418 0.0
C744 C 0.39643 0.95976 0.57847 0.0
C745 C 0.49096 0.92221 0.5304 0.0
C746 C 0.41354 0.89237 0.53744 0.0
C747 C 0.45832 0.91926 0.60036 0.0
C748 C 0.4259 0.95774 0.50051 0.0
C749 C 0.46812 0.99091 0.5621 0.0
O750 O 0.39399 0.95163 0.56054 0.0
O751 O 0.59657 0.54047 0.61808 0.0
Zn752 Zn 0.56719 0.54286 0.60883 0.0
O753 O 0.56609 0.55224 0.58086 0.0
Zn754 Zn 0.55396 0.57893 0.58058 0.0
Zn755 Zn 0.59387 0.55447 0.57021 0.0
Zn756 Zn 0.54955 0.53278 0.56351 0.0
O757 O 0.52725 0.5774 0.56492 0.0
O758 O 0.5223 0.54441 0.5562 0.0
O759 O 0.55392 0.56265 0.62886 0.0
O760 O 0.54727 0.58841 0.60915 0.0
O761 O 0.57323 0.60053 0.56905 0.0
O762 O 0.60167 0.58364 0.56474 0.0
O763 O 0.5957 0.53956 0.54292 0.0
O764 O 0.55401 0.51441 0.61009 0.0
O765 O 0.56423 0.52632 0.537 0.0
O766 O 0.54426 0.50649 0.57806 0.0
C767 C 0.61373 0.54092 0.60891 0.0
C768 C 0.51615 0.56264 0.55696 0.0
C769 C 0.59206 0.60009 0.56416 0.0
C770 C 0.54743 0.58052 0.62661 0.0
C771 C 0.58264 0.52978 0.53128 0.0
C772 C 0.54637 0.50165 0.5966 0.0
O773 O 0.6149 0.54499 0.59007 0.0
O774 O 0.60952 0.42625 0.9763 0.0
Zn775 Zn 0.60129 0.45546 0.97307 0.0
O776 O 0.57386 0.45621 0.96117 0.0
Zn777 Zn 0.57537 0.46875 0.9347 0.0
Zn778 Zn 0.56264 0.42824 0.95724 0.0
Zn779 Zn 0.55616 0.4722 0.97917 0.0
O780 O 0.56174 0.49562 0.9353 0.0
O781 O 0.54941 0.49911 0.96669 0.0
O782 O 0.62254 0.46913 0.95532 0.0
O783 O 0.6047 0.47451 0.92718 0.0
O784 O 0.56269 0.45053 0.91217 0.0
O785 O 0.55835 0.42103 0.9275 0.0
O786 O 0.53468 0.42555 0.96973 0.0
O787 O 0.60209 0.46924 0.001 0.0
O788 O 0.52965 0.45612 0.98452 0.0
O789 O 0.57029 0.47893 0.00615 0.0
C790 C 0.59997 0.40886 0.97425 0.0
C791 C 0.55244 0.50596 0.94895 0.0
C792 C 0.55785 0.43148 0.91157 0.0
C793 C 0.62159 0.47487 0.937 0.0
C794 C 0.5235 0.43778 0.97976 0.0
C795 C 0.58865 0.47734 0.01235 0.0
O796 O 0.58143 0.40737 0.96801 0.0
O797 O 0.48448 0.10058 0.9137 0.0
Zn798 Zn 0.48055 0.09294 0.94294 0.0
O799 O 0.46707 0.06574 0.94428 0.0
Zn800 Zn 0.4412 0.06815 0.95867 0.0
Zn801 Zn 0.46211 0.0543 0.91653 0.0
Zn802 Zn 0.48418 0.04746 0.95916 0.0
O803 O 0.4412 0.05352 0.98492 0.0
O804 O 0.47198 0.04068 0.98654 0.0
O805 O 0.46378 0.11504 0.95637 0.0
O806 O 0.43598 0.09744 0.96615 0.0
O807 O 0.4175 0.05698 0.94149 0.0
O808 O 0.43192 0.04917 0.91175 0.0
O809 O 0.4743 0.02661 0.91259 0.0
O810 O 0.5085 0.09319 0.95606 0.0
O811 O 0.48751 0.0208 0.94301 0.0
O812 O 0.51194 0.06104 0.96481 0.0
C813 C 0.48079 0.09162 0.89637 0.0
C814 C 0.45451 0.04379 0.99433 0.0
C815 C 0.41614 0.05038 0.92298 0.0
C816 C 0.44617 0.11433 0.96464 0.0
C817 C 0.48317 0.01493 0.92463 0.0
C818 C 0.51913 0.07935 0.96345 0.0
O819 O 0.47256 0.07357 0.895 0.0
H820 H 0.03372 0.17653 0.38888 0.0
H821 H 0.03701 0.14241 0.40229 0.0
H822 H 0.98875 0.1185 0.36168 0.0
H823 H 0.98534 0.15246 0.34826 0.0
H824 H 0.98502 0.10382 0.40048 0.0
H825 H 0.064 0.09575 0.37123 0.0
H826 H 0.06095 0.11792 0.38779 0.0
H827 H 0.04792 0.1158 0.3635 0.0
C828 C 0.02384 0.16399 0.38279 0.0
C829 C 0.00932 0.16722 0.36744 0.0
C830 C 0.02575 0.14451 0.39045 0.0
C831 C 0.01334 0.12784 0.38275 0.0
C832 C 0.99849 0.13113 0.36784 0.0
H833 H 0.03687 0.99954 0.38655 0.0
H834 H 0.03026 0.03437 0.37728 0.0
C835 C 0.99651 0.15059 0.36024 0.0
C836 C 0.01608 0.10685 0.3898 0.0
H837 H 0.05057 0.06927 0.3914 0.0
C838 C 0.99936 0.09626 0.39855 0.0
C839 C 0.03471 0.09691 0.38699 0.0
C840 C 0.05288 0.10706 0.3767 0.0
C841 C 0.00077 0.07599 0.40459 0.0
C842 C 0.01953 0.06621 0.40212 0.0
C843 C 0.03623 0.07683 0.3934 0.0
C844 C 0.02208 0.04472 0.40781 0.0
C845 C 0.98201 0.06508 0.413 0.0
C846 C 0.01952 0.03886 0.42806 0.0
C847 C 0.02316 0.01884 0.43342 0.0
C848 C 0.02966 0.00436 0.41866 0.0
C849 C 0.03191 0.01025 0.39834 0.0
C850 C 0.02817 0.03019 0.393 0.0
H851 H 0.96775 0.07268 0.40899 0.0
H852 H 0.9807 0.0489 0.40719 0.0
H853 H 0.98323 0.06518 0.42991 0.0
H854 H 0.01523 0.0499 0.43984 0.0
H855 H 0.02143 0.01489 0.44924 0.0
H856 H 0.98633 0.31902 0.32913 0.0
H857 H 0.98307 0.35482 0.34101 0.0
H858 H 0.9972 0.33856 0.40253 0.0
H859 H 0.00056 0.30277 0.39057 0.0
H860 H 0.95687 0.37128 0.37106 0.0
H861 H 0.0389 0.38604 0.392 0.0
H862 H 0.03 0.36421 0.37614 0.0
H863 H 0.02665 0.36418 0.40334 0.0
C864 C 0.98866 0.32319 0.34518 0.0
C865 C 0.99386 0.3084 0.35898 0.0
C866 C 0.98683 0.34355 0.35194 0.0
C867 C 0.99026 0.3494 0.37258 0.0
C868 C 0.99493 0.33445 0.38647 0.0
H869 H 0.98724 0.46635 0.44047 0.0
H870 H 0.99124 0.43052 0.42974 0.0
C871 C 0.99673 0.31407 0.37971 0.0
C872 C 0.98872 0.37112 0.37954 0.0
H873 H 0.01638 0.41239 0.40046 0.0
C874 C 0.96987 0.3803 0.37745 0.0
C875 C 0.00572 0.3828 0.38792 0.0
C876 C 0.02653 0.37392 0.38986 0.0
C877 C 0.96748 0.40081 0.38372 0.0
C878 C 0.98452 0.41257 0.39191 0.0
C879 C 0.00335 0.40335 0.39415 0.0
C880 C 0.9831 0.43452 0.39814 0.0
C881 C 0.9466 0.40957 0.38188 0.0
C882 C 0.97779 0.44877 0.38381 0.0
C883 C 0.97546 0.46925 0.38987 0.0
C884 C 0.97857 0.47594 0.41039 0.0
C885 C 0.98468 0.46175 0.42456 0.0
C886 C 0.98695 0.44124 0.41847 0.0
H887 H 0.93424 0.39735 0.38064 0.0
H888 H 0.94343 0.41994 0.39521 0.0
H889 H 0.94605 0.41854 0.36788 0.0
H890 H 0.97523 0.44402 0.36794 0.0
H891 H 0.9709 0.47974 0.37849 0.0
H892 H 0.00356 0.8226 0.09479 0.0
H893 H 0.00649 0.85647 0.08023 0.0
H894 H 0.06244 0.87001 0.11427 0.0
H895 H 0.05944 0.83653 0.1293 0.0
H896 H 0.00827 0.89462 0.10382 0.0
H897 H 0.07654 0.88544 0.05484 0.0
H898 H 0.06138 0.86392 0.06389 0.0
H899 H 0.07978 0.87743 0.08054 0.0
C900 C 0.01651 0.83277 0.09918 0.0
C901 C 0.03128 0.82681 0.11323 0.0
C902 C 0.0182 0.85205 0.09075 0.0
C903 C 0.03479 0.86559 0.09602 0.0
C904 C 0.04974 0.85959 0.10971 0.0
H905 H 0.05586 0.99473 0.09978 0.0
H906 H 0.04713 0.95887 0.10604 0.0
C907 C 0.04802 0.8404 0.11824 0.0
C908 C 0.03592 0.88652 0.08831 0.0
H909 H 0.06669 0.91968 0.06214 0.0
C910 C 0.02088 0.90006 0.09448 0.0
C911 C 0.05228 0.89346 0.07598 0.0
C912 C 0.06834 0.87927 0.06824 0.0
C913 C 0.0223 0.92069 0.08939 0.0
C914 C 0.03925 0.92788 0.07798 0.0
C915 C 0.05378 0.91412 0.07102 0.0
C916 C 0.04288 0.94983 0.07411 0.0
C917 C 0.00581 0.93469 0.09646 0.0
C918 C 0.04343 0.95658 0.05407 0.0
C919 C 0.0484 0.9771 0.05041 0.0
C920 C 0.05318 0.99115 0.06676 0.0
C921 C 0.05227 0.98434 0.08684 0.0
C922 C 0.04717 0.96387 0.09047 0.0
H923 H 0.99143 0.92596 0.1002 0.0
H924 H 0.01118 0.9435 0.11045 0.0
H925 H 0.00241 0.94576 0.08461 0.0
H926 H 0.04028 0.9459 0.04125 0.0
H927 H 0.04903 0.98179 0.03476 0.0
H928 H 0.00906 0.67679 0.15098 0.0
H929 H 0.00462 0.64081 0.13917 0.0
H930 H 0.02734 0.65646 0.07978 0.0
H931 H 0.0319 0.69253 0.09173 0.0
H932 H 0.97916 0.62727 0.10548 0.0
H933 H 0.0601 0.60611 0.09484 0.0
H934 H 0.05318 0.62813 0.11037 0.0
H935 H 0.05272 0.62903 0.08303 0.0
C936 C 0.01331 0.67238 0.1355 0.0
C937 C 0.02091 0.68709 0.1222 0.0
C938 C 0.01079 0.65196 0.12879 0.0
C939 C 0.01589 0.64603 0.10871 0.0
C940 C 0.0237 0.66074 0.09544 0.0
H941 H 0.9969 0.52851 0.04293 0.0
H942 H 0.00713 0.56398 0.05266 0.0
C943 C 0.02622 0.68122 0.10218 0.0
C944 C 0.01163 0.62466 0.1014 0.0
H945 H 0.03429 0.58106 0.08501 0.0
C946 C 0.9912 0.61714 0.10101 0.0
C947 C 0.02741 0.61166 0.09544 0.0
C948 C 0.04963 0.61901 0.09603 0.0
C949 C 0.98607 0.59683 0.09489 0.0
C950 C 0.00187 0.58366 0.0894 0.0
C951 C 0.02229 0.59126 0.08936 0.0
C952 C 0.99733 0.56185 0.084 0.0
C953 C 0.96378 0.58965 0.09421 0.0
C954 C 0.98897 0.54888 0.09861 0.0
C955 C 0.98307 0.52866 0.09315 0.0
C956 C 0.9855 0.52105 0.07297 0.0
C957 C 0.99469 0.53391 0.05857 0.0
C958 C 0.00059 0.55416 0.06408 0.0
H959 H 0.95347 0.60268 0.09395 0.0
H960 H 0.96045 0.5794 0.08056 0.0
H961 H 0.96019 0.58091 0.10801 0.0
H962 H 0.98666 0.55453 0.11416 0.0
H963 H 0.97622 0.51915 0.10466 0.0
H964 H 0.41855 0.03301 0.18781 0.0
H965 H 0.43488 0.03732 0.15457 0.0
H966 H 0.39497 0.98895 0.12808 0.0
H967 H 0.37877 0.98442 0.16119 0.0
H968 H 0.43466 0.98747 0.11366 0.0
H969 H 0.40526 0.0656 0.10951 0.0
H970 H 0.42121 0.06186 0.13132 0.0
H971 H 0.39684 0.04811 0.12864 0.0
C972 C 0.41338 0.02321 0.17492 0.0
C973 C 0.39728 0.00848 0.17707 0.0
C974 C 0.4227 0.0257 0.15595 0.0
C975 C 0.41587 0.0137 0.1388 0.0
C976 C 0.40046 0.99837 0.14113 0.0
H977 H 0.41724 0.04213 0.01283 0.0
H978 H 0.40959 0.03355 0.04791 0.0
C979 C 0.39125 0.99577 0.16008 0.0
C980 C 0.42373 0.01786 0.11813 0.0
H981 H 0.42517 0.05398 0.08198 0.0
C982 C 0.43273 0.00204 0.10673 0.0
C983 C 0.42091 0.03681 0.10909 0.0
C984 C 0.41037 0.05403 0.12015 0.0
C985 C 0.43876 0.00459 0.0864 0.0
C986 C 0.436 0.02357 0.07742 0.0
C987 C 0.42733 0.03947 0.08895 0.0
C988 C 0.4408 0.02707 0.05572 0.0
C989 C 0.4473 0.98674 0.07449 0.0
C990 C 0.46088 0.02603 0.04837 0.0
C991 C 0.46531 0.03079 0.02817 0.0
C992 C 0.44976 0.03693 0.01511 0.0
C993 C 0.42961 0.03756 0.02248 0.0
C994 C 0.4252 0.03267 0.04255 0.0
H995 H 0.44403 0.97204 0.082 0.0
H996 H 0.44086 0.98549 0.05874 0.0
H997 H 0.46417 0.98912 0.07337 0.0
H998 H 0.47322 0.02211 0.05838 0.0
H999 H 0.48101 0.03029 0.02301 0.0
H1000 H 0.67119 0.50453 0.18837 0.0
H1001 H 0.66011 0.50324 0.15244 0.0
H1002 H 0.59741 0.50916 0.17139 0.0
H1003 H 0.6086 0.51056 0.2074 0.0
H1004 H 0.63091 0.47235 0.13645 0.0
H1005 H 0.60598 0.55141 0.12561 0.0
H1006 H 0.62319 0.54532 0.14596 0.0
H1007 H 0.59631 0.53879 0.14771 0.0
C1008 C 0.65511 0.50586 0.18472 0.0
C1009 C 0.64065 0.50769 0.20031 0.0
C1010 C 0.64882 0.50513 0.16434 0.0
C1011 C 0.628 0.50632 0.15935 0.0
C1012 C 0.61357 0.50859 0.17498 0.0
H1013 H 0.56323 0.48975 0.04313 0.0
H1014 H 0.57247 0.49776 0.07891 0.0
C1015 C 0.61989 0.50929 0.19543 0.0
C1016 C 0.62134 0.5034 0.13784 0.0
H1017 H 0.60029 0.52735 0.09799 0.0
C1018 C 0.62425 0.48436 0.128 0.0
C1019 C 0.61248 0.51909 0.12706 0.0
C1020 C 0.60938 0.53989 0.137 0.0
C1021 C 0.61853 0.48054 0.10754 0.0
C1022 C 0.61013 0.49636 0.09655 0.0
C1023 C 0.60688 0.51533 0.10648 0.0
C1024 C 0.60482 0.49339 0.07466 0.0
C1025 C 0.62128 0.45948 0.09796 0.0
C1026 C 0.62006 0.48892 0.0604 0.0
C1027 C 0.61486 0.48421 0.04003 0.0
C1028 C 0.59431 0.48411 0.03351 0.0
C1029 C 0.57919 0.4896 0.04767 0.0
C1030 C 0.58442 0.4942 0.0681 0.0
H1031 H 0.62262 0.44781 0.1097 0.0
H1032 H 0.60826 0.45474 0.0876 0.0
H1033 H 0.63555 0.4597 0.08885 0.0
H1034 H 0.63596 0.48865 0.06514 0.0
H1035 H 0.62693 0.48031 0.02949 0.0
H1036 H 0.34185 0.98343 0.32475 0.0
H1037 H 0.35192 0.9777 0.36019 0.0
H1038 H 0.41515 0.99148 0.3452 0.0
H1039 H 0.40504 0.99686 0.30965 0.0
H1040 H 0.40959 0.95671 0.36805 0.0
H1041 H 0.36922 0.02172 0.40367 0.0
H1042 H 0.35312 0.00455 0.38792 0.0
H1043 H 0.37364 0.01925 0.37652 0.0
C1044 C 0.35787 0.98524 0.32914 0.0
C1045 C 0.3727 0.99077 0.31473 0.0
C1046 C 0.3636 0.98212 0.34935 0.0
C1047 C 0.38425 0.98457 0.35545 0.0
C1048 C 0.39912 0.98969 0.34087 0.0
H1049 H 0.45061 0.97103 0.46957 0.0
H1050 H 0.44066 0.9778 0.43454 0.0
C1051 C 0.39339 0.99278 0.32065 0.0
C1052 C 0.39039 0.98137 0.37691 0.0
H1053 H 0.38324 0.99842 0.42625 0.0
C1054 C 0.40393 0.9659 0.38077 0.0
C1055 C 0.38295 0.99336 0.3935 0.0
C1056 C 0.36908 0.01078 0.39025 0.0
C1057 C 0.40993 0.96182 0.40078 0.0
C1058 C 0.40245 0.97377 0.41736 0.0
C1059 C 0.38893 0.98927 0.41352 0.0
C1060 C 0.40841 0.97035 0.43883 0.0
C1061 C 0.42383 0.94443 0.40403 0.0
C1062 C 0.3935 0.96455 0.45308 0.0
C1063 C 0.39911 0.96077 0.47318 0.0
C1064 C 0.41976 0.96283 0.47949 0.0
C1065 C 0.43459 0.96916 0.46527 0.0
C1066 C 0.42895 0.97292 0.44517 0.0
H1067 H 0.42402 0.93367 0.39048 0.0
H1068 H 0.4397 0.95071 0.40679 0.0
H1069 H 0.41902 0.93574 0.41755 0.0
H1070 H 0.37754 0.96261 0.44854 0.0
H1071 H 0.38726 0.95598 0.48369 0.0
H1072 H 0.6272 0.53896 0.34284 0.0
H1073 H 0.61588 0.5401 0.37829 0.0
H1074 H 0.62837 0.47633 0.38293 0.0
H1075 H 0.64107 0.47536 0.34804 0.0
H1076 H 0.58603 0.52055 0.39831 0.0
H1077 H 0.66096 0.50089 0.43049 0.0
H1078 H 0.65777 0.50698 0.4041 0.0
H1079 H 0.65059 0.4818 0.41245 0.0
C1080 C 0.6278 0.52521 0.35143 0.0
C1081 C 0.63535 0.50714 0.34252 0.0
C1082 C 0.62112 0.52585 0.37167 0.0
C1083 C 0.6217 0.50842 0.38344 0.0
C1084 C 0.62828 0.49012 0.37434 0.0
H1085 H 0.56155 0.50449 0.50317 0.0
H1086 H 0.57054 0.49743 0.4674 0.0
C1087 C 0.63523 0.48952 0.3542 0.0
C1088 C 0.61573 0.50957 0.4053 0.0
H1089 H 0.63327 0.50238 0.45358 0.0
C1090 C 0.59634 0.51658 0.41041 0.0
C1091 C 0.62932 0.50464 0.4211 0.0
C1092 C 0.65089 0.49836 0.41682 0.0
C1093 C 0.59021 0.51892 0.43087 0.0
C1094 C 0.6036 0.51348 0.44664 0.0
C1095 C 0.62292 0.50632 0.44149 0.0
C1096 C 0.59854 0.51645 0.46862 0.0
C1097 C 0.56977 0.52794 0.43535 0.0
C1098 C 0.61176 0.52865 0.48148 0.0
C1099 C 0.60692 0.53233 0.50198 0.0
C1100 C 0.58862 0.52401 0.51009 0.0
C1101 C 0.57567 0.51127 0.49736 0.0
C1102 C 0.58069 0.50737 0.47686 0.0
H1103 H 0.56401 0.53626 0.42218 0.0
H1104 H 0.55835 0.51543 0.43852 0.0
H1105 H 0.57079 0.53867 0.44891 0.0
H1106 H 0.62567 0.53574 0.47552 0.0
H1107 H 0.61725 0.54224 0.51129 0.0
H1108 H 0.1827 0.36895 0.04114 0.0
H1109 H 0.14817 0.38178 0.04201 0.0
H1110 H 0.15925 0.41161 0.98539 0.0
H1111 H 0.19408 0.39925 0.98457 0.0
H1112 H 0.1353 0.42372 0.04067 0.0
H1113 H 0.10656 0.37362 0.97505 0.0
H1114 H 0.12972 0.36879 0.9889 0.0
H1115 H 0.1297 0.38883 0.97099 0.0
C1116 C 0.17799 0.37854 0.02903 0.0
C1117 C 0.19121 0.38302 0.01276 0.0
C1118 C 0.15818 0.38574 0.0295 0.0
C1119 C 0.15112 0.39741 0.01365 0.0
C1120 C 0.16434 0.40234 0.99761 0.0
H1121 H 0.03589 0.46102 0.01743 0.0
H1122 H 0.07168 0.45275 0.01196 0.0
C1123 C 0.18421 0.39522 0.99716 0.0
C1124 C 0.12978 0.40412 0.01388 0.0
H1125 H 0.08328 0.39617 0.99007 0.0
C1126 C 0.12393 0.41784 0.02954 0.0
C1127 C 0.11501 0.39622 0.99942 0.0
C1128 C 0.12041 0.38093 0.98269 0.0
C1129 C 0.10362 0.42382 0.03121 0.0
C1130 C 0.08885 0.41594 0.01674 0.0
C1131 C 0.09472 0.4023 0.00101 0.0
C1132 C 0.06698 0.42076 0.01847 0.0
C1133 C 0.09794 0.43801 0.04879 0.0
C1134 C 0.05242 0.40536 0.02332 0.0
C1135 C 0.03197 0.41 0.02645 0.0
C1136 C 0.02567 0.43013 0.02464 0.0
C1137 C 0.0402 0.44537 0.01899 0.0
C1138 C 0.06068 0.44072 0.01596 0.0
H1139 H 0.11024 0.43978 0.06059 0.0
H1140 H 0.09518 0.45334 0.04298 0.0
H1141 H 0.08361 0.43227 0.0561 0.0
H1142 H 0.05699 0.38985 0.02524 0.0
H1143 H 0.02121 0.39785 0.03069 0.0
H1144 H 0.20376 0.58746 0.48962 0.0
H1145 H 0.16832 0.57402 0.48364 0.0
H1146 H 0.1504 0.6345 0.46926 0.0
H1147 H 0.18576 0.64779 0.47508 0.0
H1148 H 0.13297 0.58702 0.5043 0.0
H1149 H 0.12755 0.59834 0.42103 0.0
H1150 H 0.15175 0.59857 0.43452 0.0
H1151 H 0.13658 0.62083 0.43554 0.0
C1152 C 0.19218 0.59771 0.48499 0.0
C1153 C 0.19719 0.61853 0.4827 0.0
C1154 C 0.17206 0.5901 0.48163 0.0
C1155 C 0.15687 0.60324 0.47577 0.0
C1156 C 0.162 0.62405 0.47338 0.0
H1157 H 0.02743 0.60051 0.45435 0.0
H1158 H 0.06369 0.60917 0.46066 0.0
C1159 C 0.18207 0.63163 0.47676 0.0
C1160 C 0.13541 0.59551 0.47296 0.0
H1161 H 0.09606 0.5919 0.4384 0.0
C1162 C 0.12491 0.58784 0.48986 0.0
C1163 C 0.12504 0.59663 0.45408 0.0
C1164 C 0.13584 0.60386 0.43519 0.0
C1165 C 0.10401 0.58198 0.48856 0.0
C1166 C 0.09353 0.58361 0.46981 0.0
C1167 C 0.10416 0.59082 0.4528 0.0
C1168 C 0.07138 0.57838 0.4675 0.0
C1169 C 0.09313 0.57478 0.5074 0.0
C1170 C 0.06372 0.5582 0.46944 0.0
C1171 C 0.04296 0.55317 0.4659 0.0
C1172 C 0.02956 0.56824 0.4602 0.0
C1173 C 0.03729 0.58852 0.45868 0.0
C1174 C 0.05802 0.59351 0.46225 0.0
H1175 H 0.10223 0.57863 0.52153 0.0
H1176 H 0.07796 0.58166 0.50892 0.0
H1177 H 0.09056 0.5579 0.50611 0.0
H1178 H 0.07389 0.54625 0.47317 0.0
H1179 H 0.03755 0.53739 0.46712 0.0
H1180 H 0.80984 0.88111 0.47315 0.0
H1181 H 0.84542 0.89263 0.46721 0.0
H1182 H 0.8662 0.84539 0.50549 0.0
H1183 H 0.83076 0.83263 0.50959 0.0
H1184 H 0.8742 0.90799 0.48924 0.0
H1185 H 0.90134 0.83425 0.45854 0.0
H1186 H 0.87464 0.83806 0.46329 0.0
H1187 H 0.89148 0.83164 0.48378 0.0
C1188 C 0.8221 0.87288 0.47975 0.0
C1189 C 0.8177 0.85553 0.49113 0.0
C1190 C 0.84241 0.8796 0.47661 0.0
C1191 C 0.85865 0.86949 0.48535 0.0
C1192 C 0.8541 0.8529 0.49778 0.0
H1193 H 0.98243 0.92773 0.49178 0.0
H1194 H 0.94722 0.91606 0.49943 0.0
C1195 C 0.83385 0.84577 0.50034 0.0
C1196 C 0.88026 0.87651 0.48168 0.0
H1197 H 0.92716 0.85975 0.46804 0.0
C1198 C 0.88573 0.89745 0.4844 0.0
C1199 C 0.89533 0.86287 0.47504 0.0
C1200 C 0.89033 0.84052 0.46978 0.0
C1201 C 0.90572 0.90513 0.48065 0.0
C1202 C 0.92104 0.89132 0.47512 0.0
C1203 C 0.91556 0.87037 0.47249 0.0
C1204 C 0.94263 0.89819 0.47105 0.0
C1205 C 0.90986 0.92802 0.48194 0.0
C1206 C 0.95225 0.89124 0.4531 0.0
C1207 C 0.9726 0.89714 0.44921 0.0
C1208 C 0.98361 0.91053 0.46294 0.0
C1209 C 0.97411 0.91757 0.48087 0.0
C1210 C 0.95392 0.91108 0.48512 0.0
H1211 H 0.89563 0.93631 0.47948 0.0
H1212 H 0.9158 0.93266 0.49741 0.0
H1213 H 0.9213 0.93297 0.47047 0.0
H1214 H 0.94398 0.88129 0.44196 0.0
H1215 H 0.97959 0.8916 0.43521 0.0
H1216 H 0.33358 0.59502 0.48516 0.0
H1217 H 0.36708 0.58089 0.49123 0.0
H1218 H 0.37525 0.62007 0.54537 0.0
H1219 H 0.34223 0.63473 0.53918 0.0
H1220 H 0.40633 0.60417 0.49522 0.0
H1221 H 0.3862 0.56118 0.56421 0.0
H1222 H 0.36714 0.56917 0.54646 0.0
H1223 H 0.37862 0.58726 0.56496 0.0
C1224 C 0.34252 0.60073 0.49831 0.0
C1225 C 0.33507 0.61598 0.51173 0.0
C1226 C 0.3616 0.59253 0.50181 0.0
C1227 C 0.37347 0.59925 0.51889 0.0
C1228 C 0.36612 0.61439 0.53232 0.0
H1229 H 0.50016 0.59988 0.55119 0.0
H1230 H 0.46558 0.6069 0.53992 0.0
C1231 C 0.34716 0.62269 0.52878 0.0
C1232 C 0.39394 0.59111 0.52241 0.0
H1233 H 0.4218 0.56616 0.55709 0.0
C1234 C 0.40969 0.59565 0.50861 0.0
C1235 C 0.3982 0.57984 0.53979 0.0
C1236 C 0.38163 0.57388 0.55465 0.0
C1237 C 0.42983 0.58995 0.51221 0.0
C1238 C 0.43429 0.57956 0.53011 0.0
C1239 C 0.41836 0.57425 0.54345 0.0
C1240 C 0.45555 0.57506 0.53585 0.0
C1241 C 0.44624 0.59528 0.49697 0.0
C1242 C 0.46132 0.5548 0.53746 0.0
C1243 C 0.48116 0.55069 0.54387 0.0
C1244 C 0.49547 0.5668 0.54906 0.0
C1245 C 0.48958 0.58708 0.54731 0.0
C1246 C 0.46984 0.59115 0.54076 0.0
H1247 H 0.4396 0.59845 0.48183 0.0
H1248 H 0.45514 0.60922 0.50265 0.0
H1249 H 0.45701 0.5827 0.495 0.0
H1250 H 0.45044 0.54217 0.53386 0.0
H1251 H 0.48513 0.5349 0.54512 0.0
H1252 H 0.54474 0.6791 0.87354 0.0
H1253 H 0.54923 0.6465 0.88942 0.0
H1254 H 0.49354 0.6539 0.92335 0.0
H1255 H 0.48913 0.68691 0.90795 0.0
H1256 H 0.55088 0.63707 0.93296 0.0
H1257 H 0.48562 0.59781 0.88992 0.0
H1258 H 0.49754 0.62165 0.88213 0.0
H1259 H 0.48064 0.62143 0.90361 0.0
C1260 C 0.53363 0.67408 0.88468 0.0
C1261 C 0.51653 0.68571 0.8894 0.0
C1262 C 0.53617 0.65534 0.89365 0.0
C1263 C 0.52161 0.64772 0.90738 0.0
C1264 C 0.5048 0.65942 0.91257 0.0
H1265 H 0.53849 0.53597 0.97527 0.0
H1266 H 0.52953 0.57072 0.96698 0.0
C1267 C 0.50229 0.67825 0.90368 0.0
C1268 C 0.52386 0.62721 0.91569 0.0
H1269 H 0.5042 0.57795 0.91205 0.0
C1270 C 0.54056 0.62416 0.92861 0.0
C1271 C 0.51044 0.61042 0.9098 0.0
C1272 C 0.4926 0.61281 0.8955 0.0
C1273 C 0.54438 0.60466 0.93557 0.0
C1274 C 0.5311 0.58783 0.92948 0.0
C1275 C 0.51423 0.59094 0.91681 0.0
C1276 C 0.5355 0.56663 0.93466 0.0
C1277 C 0.56302 0.60199 0.94874 0.0
C1278 C 0.54139 0.55276 0.91918 0.0
C1279 C 0.54655 0.533 0.92382 0.0
C1280 C 0.54575 0.5266 0.94408 0.0
C1281 C 0.53928 0.54039 0.95952 0.0
C1282 C 0.53425 0.56027 0.95484 0.0
H1283 H 0.57331 0.61598 0.94969 0.0
H1284 H 0.55808 0.59841 0.96442 0.0
H1285 H 0.57184 0.589 0.94265 0.0
H1286 H 0.5424 0.55737 0.9035 0.0
H1287 H 0.55135 0.5228 0.91152 0.0
H1288 H 0.48619 0.83318 0.84095 0.0
H1289 H 0.48403 0.86954 0.8513 0.0
H1290 H 0.50713 0.85711 0.91117 0.0
H1291 H 0.50941 0.82079 0.90071 0.0
H1292 H 0.46219 0.88781 0.88352 0.0
H1293 H 0.54599 0.90387 0.89282 0.0
H1294 H 0.53537 0.88109 0.87954 0.0
H1295 H 0.5359 0.88279 0.90699 0.0
C1296 C 0.49073 0.83832 0.85631 0.0
C1297 C 0.49813 0.82445 0.87003 0.0
C1298 C 0.48953 0.859 0.8622 0.0
C1299 C 0.49578 0.86609 0.88188 0.0
C1300 C 0.50267 0.85206 0.89577 0.0
H1301 H 0.49944 0.98461 0.94654 0.0
H1302 H 0.50268 0.94869 0.9358 0.0
C1303 C 0.50385 0.83137 0.88988 0.0
C1304 C 0.49488 0.88814 0.8879 0.0
H1305 H 0.52439 0.93032 0.90367 0.0
C1306 C 0.47579 0.89714 0.88785 0.0
C1307 C 0.51265 0.90025 0.89355 0.0
C1308 C 0.53368 0.89161 0.89309 0.0
C1309 C 0.47393 0.91786 0.89365 0.0
C1310 C 0.4917 0.93 0.89928 0.0
C1311 C 0.5108 0.92099 0.89934 0.0
C1312 C 0.49073 0.95204 0.90532 0.0
C1313 C 0.45287 0.92644 0.89417 0.0
C1314 C 0.48348 0.96597 0.89155 0.0
C1315 C 0.48159 0.98652 0.89762 0.0
C1316 C 0.48704 0.9936 0.91758 0.0
C1317 C 0.49504 0.97973 0.93108 0.0
C1318 C 0.4969 0.95916 0.92498 0.0
H1319 H 0.4406 0.91415 0.89458 0.0
H1320 H 0.45121 0.93704 0.90767 0.0
H1321 H 0.45053 0.93514 0.88022 0.0
H1322 H 0.47906 0.9609 0.87614 0.0
H1323 H 0.4755 0.99676 0.88676 0.0
H1324 H 0.51911 0.30623 0.61195 0.0
H1325 H 0.52281 0.34222 0.60249 0.0
H1326 H 0.53503 0.36046 0.66558 0.0
H1327 H 0.53142 0.32452 0.67495 0.0
H1328 H 0.49979 0.37532 0.61747 0.0
H1329 H 0.58277 0.38812 0.63484 0.0
H1330 H 0.57057 0.36286 0.63192 0.0
H1331 H 0.56798 0.37775 0.65534 0.0
C1332 C 0.52268 0.31801 0.62368 0.0
C1333 C 0.525 0.31287 0.64411 0.0
C1334 C 0.52477 0.33846 0.61832 0.0
C1335 C 0.52941 0.35394 0.63331 0.0
C1336 C 0.5318 0.34871 0.65374 0.0
H1337 H 0.54834 0.48568 0.63454 0.0
H1338 H 0.54271 0.44995 0.64332 0.0
C1339 C 0.52968 0.32829 0.65909 0.0
C1340 C 0.53118 0.37564 0.62771 0.0
H1341 H 0.56429 0.41747 0.62791 0.0
C1342 C 0.51391 0.38454 0.61963 0.0
C1343 C 0.54961 0.38759 0.63061 0.0
C1344 C 0.56886 0.37859 0.63848 0.0
C1345 C 0.51444 0.40526 0.61478 0.0
C1346 C 0.53286 0.41724 0.61776 0.0
C1347 C 0.55016 0.40828 0.62573 0.0
C1348 C 0.53468 0.43908 0.61256 0.0
C1349 C 0.49517 0.41424 0.60697 0.0
C1350 C 0.53189 0.44485 0.59237 0.0
C1351 C 0.535 0.46529 0.5873 0.0
C1352 C 0.54117 0.48034 0.6023 0.0
C1353 C 0.54359 0.47453 0.62259 0.0
C1354 C 0.54042 0.4541 0.62765 0.0
H1355 H 0.48127 0.40478 0.6108 0.0
H1356 H 0.49353 0.43003 0.61341 0.0
H1357 H 0.49592 0.41491 0.59009 0.0
H1358 H 0.52786 0.43345 0.58041 0.0
H1359 H 0.53312 0.46917 0.5715 0.0
H1360 H 0.48371 0.16144 0.63869 0.0
H1361 H 0.48156 0.12861 0.61983 0.0
H1362 H 0.53358 0.1471 0.58365 0.0
H1363 H 0.53559 0.18053 0.60217 0.0
H1364 H 0.47902 0.12177 0.57354 0.0
H1365 H 0.54658 0.09104 0.61254 0.0
H1366 H 0.53279 0.11181 0.62402 0.0
H1367 H 0.54851 0.11616 0.60216 0.0
C1368 C 0.49448 0.15878 0.62647 0.0
C1369 C 0.50975 0.17368 0.62185 0.0
C1370 C 0.4933 0.13995 0.6158 0.0
C1371 C 0.50743 0.13554 0.60045 0.0
C1372 C 0.52262 0.15031 0.59557 0.0
H1373 H 0.48467 0.01682 0.53414 0.0
H1374 H 0.49759 0.05222 0.54032 0.0
C1375 C 0.52378 0.1693 0.60621 0.0
C1376 C 0.50623 0.1151 0.59017 0.0
H1377 H 0.52526 0.06764 0.59319 0.0
C1378 C 0.48938 0.10998 0.57735 0.0
C1379 C 0.51977 0.09989 0.59542 0.0
C1380 C 0.53796 0.10482 0.60932 0.0
C1381 C 0.48505 0.08969 0.57047 0.0
C1382 C 0.49801 0.0743 0.57658 0.0
C1383 C 0.51546 0.07959 0.58854 0.0
C1384 C 0.49218 0.05245 0.57285 0.0
C1385 C 0.46596 0.08463 0.55785 0.0
C1386 C 0.48535 0.04086 0.58922 0.0
C1387 C 0.4779 0.02072 0.58579 0.0
C1388 C 0.47727 0.01178 0.56591 0.0
C1389 C 0.48485 0.02326 0.54963 0.0
C1390 C 0.49223 0.04347 0.55309 0.0
H1391 H 0.45643 0.09812 0.55623 0.0
H1392 H 0.47034 0.07896 0.54237 0.0
H1393 H 0.45653 0.07229 0.5649 0.0
H1394 H 0.48522 0.04763 0.60459 0.0
H1395 H 0.47232 0.01229 0.59869 0.0
H1396 H 0.91467 0.53386 0.67975 0.0
H1397 H 0.92766 0.53488 0.64477 0.0
H1398 H 0.88763 0.48293 0.62704 0.0
H1399 H 0.87466 0.48175 0.66191 0.0
H1400 H 0.92651 0.48093 0.60996 0.0
H1401 H 0.89313 0.5563 0.59874 0.0
H1402 H 0.91062 0.55593 0.61995 0.0
H1403 H 0.88684 0.54102 0.62033 0.0
C1404 C 0.90871 0.52261 0.6684 0.0
C1405 C 0.89354 0.50782 0.67355 0.0
C1406 C 0.91613 0.52322 0.64845 0.0
C1407 C 0.90834 0.5092 0.63326 0.0
C1408 C 0.89383 0.4939 0.63854 0.0
H1409 H 0.90552 0.52512 0.50364 0.0
H1410 H 0.89798 0.51908 0.53938 0.0
C1411 C 0.88649 0.49321 0.65849 0.0
C1412 C 0.91445 0.51102 0.61165 0.0
H1413 H 0.9127 0.54276 0.57168 0.0
C1414 C 0.92356 0.49445 0.60156 0.0
C1415 C 0.91028 0.52857 0.60069 0.0
C1416 C 0.89951 0.54641 0.61038 0.0
C1417 C 0.92864 0.49498 0.58077 0.0
C1418 C 0.92478 0.51268 0.56993 0.0
C1419 C 0.91572 0.52924 0.58005 0.0
C1420 C 0.9294 0.5143 0.54791 0.0
C1421 C 0.93756 0.4764 0.57047 0.0
C1422 C 0.94956 0.51335 0.54076 0.0
C1423 C 0.95393 0.51666 0.52023 0.0
C1424 C 0.93824 0.52125 0.50657 0.0
C1425 C 0.918 0.5217 0.51373 0.0
C1426 C 0.91364 0.51827 0.53417 0.0
H1427 H 0.93467 0.46247 0.57936 0.0
H1428 H 0.93109 0.47354 0.55486 0.0
H1429 H 0.95439 0.47904 0.56915 0.0
H1430 H 0.96202 0.51072 0.55117 0.0
H1431 H 0.9697 0.51634 0.51526 0.0
H1432 H 0.13871 0.96117 0.66642 0.0
H1433 H 0.12083 0.95783 0.63361 0.0
H1434 H 0.08844 0.01234 0.64855 0.0
H1435 H 0.10606 0.01567 0.68175 0.0
H1436 H 0.0773 0.95626 0.62275 0.0
H1437 H 0.12176 0.02447 0.59552 0.0
H1438 H 0.12928 0.01134 0.61789 0.0
H1439 H 0.10782 0.0275 0.61897 0.0
C1440 C 0.12741 0.97218 0.66302 0.0
C1441 C 0.12389 0.98877 0.67665 0.0
C1442 C 0.11728 0.97029 0.64421 0.0
C1443 C 0.10356 0.98497 0.63866 0.0
C1444 C 0.09922 0.00102 0.65254 0.0
H1445 H 0.04031 0.97087 0.51972 0.0
H1446 H 0.04675 0.97978 0.5559 0.0
C1447 C 0.10933 0.00292 0.67143 0.0
C1448 C 0.09506 0.98406 0.61772 0.0
H1449 H 0.10071 0.0059 0.57154 0.0
C1450 C 0.08208 0.96727 0.61159 0.0
C1451 C 0.1016 0.9984 0.60328 0.0
C1452 C 0.11598 0.01642 0.60909 0.0
C1453 C 0.07593 0.96409 0.59112 0.0
C1454 C 0.08292 0.97814 0.5766 0.0
C1455 C 0.09536 0.99528 0.58284 0.0
C1456 C 0.07909 0.97421 0.55457 0.0
C1457 C 0.06286 0.94524 0.58495 0.0
C1458 C 0.0953 0.96864 0.5419 0.0
C1459 C 0.09172 0.96351 0.52128 0.0
C1460 C 0.07187 0.96401 0.51297 0.0
C1461 C 0.05578 0.97028 0.52564 0.0
C1462 C 0.05937 0.97532 0.5463 0.0
H1463 H 0.06082 0.93462 0.59767 0.0
H1464 H 0.04751 0.94985 0.58003 0.0
H1465 H 0.06983 0.93693 0.57181 0.0
H1466 H 0.11063 0.96778 0.54809 0.0
H1467 H 0.10447 0.95886 0.51195 0.0
H1468 H 0.91609 0.50676 0.80795 0.0
H1469 H 0.92838 0.50354 0.84318 0.0
H1470 H 0.86629 0.49066 0.86262 0.0
H1471 H 0.85403 0.49431 0.82748 0.0
H1472 H 0.88775 0.51924 0.88827 0.0
H1473 H 0.93302 0.45047 0.87322 0.0
H1474 H 0.93957 0.47161 0.85751 0.0
H1475 H 0.91463 0.45897 0.85511 0.0
C1476 C 0.90516 0.50328 0.81984 0.0
C1477 C 0.88418 0.50086 0.81522 0.0
C1478 C 0.91216 0.5013 0.83986 0.0
C1479 C 0.89827 0.49661 0.85549 0.0
C1480 C 0.87727 0.49424 0.85081 0.0
H1481 H 0.90124 0.47185 0.98366 0.0
H1482 H 0.89207 0.47956 0.94874 0.0
C1483 C 0.87029 0.49626 0.83081 0.0
C1484 C 0.90552 0.49441 0.87679 0.0
H1485 H 0.93538 0.46582 0.9065 0.0
C1486 C 0.89817 0.50756 0.89226 0.0
C1487 C 0.91917 0.47921 0.88196 0.0
C1488 C 0.92695 0.46412 0.86614 0.0
C1489 C 0.90412 0.50595 0.91276 0.0
C1490 C 0.91754 0.49058 0.91796 0.0
C1491 C 0.92515 0.47764 0.90246 0.0
C1492 C 0.92315 0.48705 0.93948 0.0
C1493 C 0.89612 0.52084 0.92864 0.0
C1494 C 0.94373 0.48847 0.94587 0.0
C1495 C 0.94908 0.48402 0.96589 0.0
C1496 C 0.93395 0.47783 0.97985 0.0
C1497 C 0.91332 0.47664 0.9734 0.0
C1498 C 0.908 0.48115 0.95344 0.0
H1499 H 0.8909 0.53492 0.92168 0.0
H1500 H 0.88283 0.5135 0.93642 0.0
H1501 H 0.90803 0.52525 0.94037 0.0
H1502 H 0.95568 0.49288 0.93529 0.0
H1503 H 0.96512 0.48502 0.97027 0.0
H1504 H 0.1197 0.00489 0.80804 0.0
H1505 H 0.11022 0.01031 0.84409 0.0
H1506 H 0.17362 0.02493 0.85963 0.0
H1507 H 0.18297 0.01977 0.82356 0.0
H1508 H 0.12389 0.99008 0.87806 0.0
H1509 H 0.14439 0.07327 0.88551 0.0
H1510 H 0.14169 0.05969 0.86105 0.0
H1511 H 0.16467 0.05798 0.87599 0.0
C1512 C 0.13148 0.00938 0.81923 0.0
C1513 C 0.15198 0.01202 0.81327 0.0
C1514 C 0.12612 0.01243 0.83974 0.0
C1515 C 0.14118 0.01829 0.8545 0.0
C1516 C 0.16171 0.02083 0.84846 0.0
H1517 H 0.13932 0.04467 0.98554 0.0
H1518 H 0.14925 0.03735 0.95015 0.0
C1519 C 0.16705 0.0178 0.82796 0.0
C1520 C 0.13547 0.02126 0.87627 0.0
H1521 H 0.13608 0.05662 0.91607 0.0
C1522 C 0.12647 0.00464 0.88637 0.0
C1523 C 0.13891 0.04026 0.88708 0.0
C1524 C 0.14777 0.05889 0.87684 0.0
C1525 C 0.1211 0.00641 0.90708 0.0
C1526 C 0.12452 0.02543 0.91789 0.0
C1527 C 0.13355 0.04203 0.90779 0.0
C1528 C 0.11855 0.02859 0.93959 0.0
C1529 C 0.11223 0.9878 0.91731 0.0
C1530 C 0.09799 0.02606 0.94542 0.0
C1531 C 0.09224 0.03014 0.96566 0.0
C1532 C 0.10694 0.03704 0.98047 0.0
C1533 C 0.12758 0.03935 0.97459 0.0
C1534 C 0.1333 0.03521 0.95435 0.0
H1535 H 0.11592 0.97341 0.90882 0.0
H1536 H 0.11801 0.98717 0.93324 0.0
H1537 H 0.0953 0.98853 0.91779 0.0
H1538 H 0.08627 0.02139 0.93422 0.0
H1539 H 0.0762 0.02832 0.96957 0.0
H1540 H 0.68357 0.88648 0.53404 0.0
H1541 H 0.64903 0.8995 0.53654 0.0
H1542 H 0.62887 0.85845 0.48657 0.0
H1543 H 0.66326 0.84553 0.48387 0.0
H1544 H 0.61426 0.89657 0.48312 0.0
H1545 H 0.6004 0.86865 0.56099 0.0
H1546 H 0.62265 0.88557 0.55916 0.0
H1547 H 0.62188 0.86103 0.54575 0.0
C1548 C 0.67175 0.88024 0.52361 0.0
C1549 C 0.67614 0.86496 0.50878 0.0
C1550 C 0.65203 0.88765 0.52508 0.0
C1551 C 0.6363 0.8797 0.51195 0.0
C1552 C 0.64077 0.8648 0.49686 0.0
H1553 H 0.50608 0.88404 0.53221 0.0
H1554 H 0.54122 0.87422 0.52624 0.0
C1555 C 0.66047 0.85749 0.49529 0.0
C1556 C 0.61505 0.88658 0.51403 0.0
H1557 H 0.57488 0.88858 0.54704 0.0
C1558 C 0.60563 0.89485 0.4971 0.0
C1559 C 0.60373 0.88402 0.53217 0.0
C1560 C 0.61257 0.87416 0.5505 0.0
C1561 C 0.5852 0.90068 0.49782 0.0
C1562 C 0.57405 0.89856 0.51612 0.0
C1563 C 0.58348 0.89029 0.53304 0.0
C1564 C 0.55243 0.90439 0.51806 0.0
C1565 C 0.57562 0.90852 0.47881 0.0
C1566 C 0.54696 0.92459 0.51522 0.0
C1567 C 0.52679 0.93023 0.51843 0.0
C1568 C 0.51176 0.91583 0.52483 0.0
C1569 C 0.51724 0.89553 0.52731 0.0
C1570 C 0.53735 0.88989 0.52394 0.0
H1571 H 0.58409 0.90385 0.46484 0.0
H1572 H 0.5594 0.90286 0.47708 0.0
H1573 H 0.576 0.92549 0.4799 0.0
H1574 H 0.55841 0.93615 0.51112 0.0
H1575 H 0.52315 0.94603 0.51657 0.0
H1576 H 0.71375 0.10416 0.00783 0.0
H1577 H 0.67794 0.09072 0.00577 0.0
H1578 H 0.65913 0.14939 0.9866 0.0
H1579 H 0.69481 0.16279 0.98889 0.0
H1580 H 0.63417 0.1314 0.01756 0.0
H1581 H 0.64691 0.07785 0.95108 0.0
H1582 H 0.66329 0.0756 0.97296 0.0
H1583 H 0.66515 0.09836 0.95857 0.0
C1584 C 0.70184 0.11409 0.00332 0.0
C1585 C 0.70672 0.1344 0.99852 0.0
C1586 C 0.68153 0.10645 0.00205 0.0
C1587 C 0.666 0.11905 0.99585 0.0
C1588 C 0.67093 0.13947 0.99141 0.0
H1589 H 0.53941 0.11684 0.96391 0.0
H1590 H 0.57488 0.12519 0.97412 0.0
C1591 C 0.69119 0.14707 0.99267 0.0
C1592 C 0.6446 0.11105 0.99356 0.0
H1593 H 0.61335 0.07894 0.96377 0.0
C1594 C 0.62959 0.11981 0.00592 0.0
C1595 C 0.63879 0.0959 0.97838 0.0
C1596 C 0.6543 0.08642 0.96435 0.0
C1597 C 0.60879 0.11406 0.00326 0.0
C1598 C 0.60292 0.09943 0.98762 0.0
C1599 C 0.61798 0.09017 0.97572 0.0
C1600 C 0.58118 0.09444 0.98249 0.0
C1601 C 0.59328 0.12374 0.01713 0.0
C1602 C 0.57312 0.0743 0.9835 0.0
C1603 C 0.55287 0.06942 0.97757 0.0
C1604 C 0.54039 0.0846 0.97035 0.0
C1605 C 0.54855 0.10479 0.96944 0.0
C1606 C 0.56878 0.10964 0.97541 0.0
H1607 H 0.60043 0.12984 0.03169 0.0
H1608 H 0.58662 0.13669 0.00938 0.0
H1609 H 0.58062 0.11258 0.02069 0.0
H1610 H 0.58255 0.06235 0.98879 0.0
H1611 H 0.54709 0.05372 0.97844 0.0
H1612 H 0.32832 0.40682 0.98959 0.0
H1613 H 0.36451 0.41757 0.98638 0.0
H1614 H 0.3815 0.36585 0.02063 0.0
H1615 H 0.3455 0.35397 0.02182 0.0
H1616 H 0.39292 0.42964 0.01054 0.0
H1617 H 0.41806 0.35737 0.97427 0.0
H1618 H 0.39142 0.36196 0.97847 0.0
H1619 H 0.40708 0.35307 0.99879 0.0
C1620 C 0.33989 0.39748 0.99586 0.0
C1621 C 0.33429 0.37914 0.00515 0.0
C1622 C 0.36054 0.40376 0.99432 0.0
C1623 C 0.37592 0.39216 0.00266 0.0
C1624 C 0.37012 0.37457 0.01322 0.0
H1625 H 0.50177 0.44582 0.01452 0.0
H1626 H 0.46637 0.43434 0.02168 0.0
C1627 C 0.34954 0.36793 0.01413 0.0
C1628 C 0.39792 0.39857 0.00035 0.0
H1629 H 0.4444 0.38118 0.98609 0.0
C1630 C 0.40414 0.41906 0.00502 0.0
C1631 C 0.41261 0.3849 0.99287 0.0
C1632 C 0.4069 0.36319 0.98561 0.0
C1633 C 0.42447 0.42631 0.00225 0.0
C1634 C 0.43934 0.41241 0.99569 0.0
C1635 C 0.43314 0.39186 0.99129 0.0
C1636 C 0.46113 0.41889 0.99208 0.0
C1637 C 0.42943 0.44895 0.00557 0.0
C1638 C 0.47044 0.41315 0.97356 0.0
C1639 C 0.49087 0.41889 0.96989 0.0
C1640 C 0.50231 0.43094 0.98444 0.0
C1641 C 0.49314 0.4367 0.00299 0.0
C1642 C 0.47285 0.43034 0.00697 0.0
H1643 H 0.41556 0.458 0.00398 0.0
H1644 H 0.43551 0.45198 0.02129 0.0
H1645 H 0.44105 0.45451 0.99454 0.0
H1646 H 0.46184 0.40435 0.96178 0.0
H1647 H 0.49756 0.41436 0.95539 0.0
H1648 H 0.85972 0.15241 0.02742 0.0
H1649 H 0.89401 0.13929 0.02943 0.0
H1650 H 0.87735 0.09225 0.9836 0.0
H1651 H 0.84287 0.10541 0.98141 0.0
H1652 H 0.90608 0.10163 0.03984 0.0
H1653 H 0.92984 0.1176 0.96046 0.0
H1654 H 0.90731 0.12805 0.9719 0.0
H1655 H 0.90676 0.10187 0.96248 0.0
C1656 C 0.86325 0.13915 0.01789 0.0
C1657 C 0.84853 0.12993 0.00428 0.0
C1658 C 0.88291 0.13173 0.01897 0.0
C1659 C 0.88835 0.11497 0.00647 0.0
C1660 C 0.87364 0.1055 0.99306 0.0
H1661 H 0.0052 0.05336 0.00822 0.0
H1662 H 0.96948 0.06114 0.0013 0.0
C1663 C 0.85393 0.11299 0.99188 0.0
C1664 C 0.90939 0.10742 0.00786 0.0
H1665 H 0.95357 0.10126 0.98097 0.0
C1666 C 0.91641 0.10146 0.02693 0.0
C1667 C 0.92287 0.1072 0.99099 0.0
C1668 C 0.91644 0.11418 0.97033 0.0
C1669 C 0.9366 0.09558 0.02966 0.0
C1670 C 0.95012 0.09574 0.01292 0.0
C1671 C 0.94305 0.10114 0.99372 0.0
C1672 C 0.972 0.0915 0.01557 0.0
C1673 C 0.94349 0.0895 0.05049 0.0
C1674 C 0.98524 0.1062 0.02546 0.0
C1675 C 0.00561 0.10191 0.02934 0.0
C1676 C 0.01313 0.08274 0.02348 0.0
C1677 C -8e-05 0.06825 0.01298 0.0
C1678 C 0.97953 0.07264 0.009 0.0
H1679 H 0.93039 0.08696 0.06097 0.0
H1680 H 0.9522 0.07533 0.04919 0.0
H1681 H 0.95387 0.10183 0.05737 0.0
H1682 H 0.97968 0.12089 0.03054 0.0
H1683 H 0.01528 0.11345 0.03743 0.0
H1684 H 0.01259 0.17066 0.27473 0.0
H1685 H 0.02102 0.14778 0.24554 0.0
H1686 H 0.02408 0.19941 0.20654 0.0
H1687 H 0.01598 0.22223 0.23579 0.0
H1688 H 0.00198 0.13977 0.2072 0.0
H1689 H 0.08025 0.17486 0.19935 0.0
H1690 H 0.06469 0.17952 0.22159 0.0
H1691 H 0.06048 0.193 0.19866 0.0
C1692 C 0.0149 0.17695 0.25983 0.0
C1693 C 0.01372 0.19804 0.25729 0.0
C1694 C 0.01971 0.16396 0.24324 0.0
C1695 C 0.02352 0.17197 0.22398 0.0
C1696 C 0.0216 0.19299 0.22136 0.0
H1697 H 0.05582 0.12891 0.10388 0.0
H1698 H 0.04527 0.14755 0.13473 0.0
C1699 C 0.01684 0.20596 0.23794 0.0
C1700 C 0.02992 0.15847 0.2067 0.0
H1701 H 0.06837 0.15192 0.17229 0.0
C1702 C 0.01655 0.14229 0.19965 0.0
C1703 C 0.04904 0.1617 0.19702 0.0
C1704 C 0.06454 0.17808 0.20464 0.0
C1705 C 0.02148 0.12973 0.18263 0.0
C1706 C 0.04033 0.13337 0.17263 0.0
C1707 C 0.05387 0.14925 0.17996 0.0
C1708 C 0.04601 0.1215 0.15396 0.0
C1709 C 0.00625 0.1131 0.17506 0.0
C1710 C 0.05 0.10065 0.15458 0.0
C1711 C 0.05612 0.08987 0.13691 0.0
C1712 C 0.05837 0.09982 0.11834 0.0
C1713 C 0.05423 0.12071 0.11786 0.0
C1714 C 0.04821 0.13143 0.13549 0.0
H1715 H 0.99098 0.11463 0.18219 0.0
H1716 H 0.00446 0.11335 0.1582 0.0
H1717 H 0.01197 0.09798 0.1788 0.0
H1718 H 0.04867 0.09279 0.16879 0.0
H1719 H 0.05922 0.07382 0.13785 0.0
H1720 H 0.96933 0.32676 0.26446 0.0
H1721 H 0.96524 0.35028 0.23678 0.0
H1722 H 0.02212 0.33159 0.21048 0.0
H1723 H 0.02623 0.30778 0.23795 0.0
H1724 H 0.01603 0.3754 0.2112 0.0
H1725 H 0.95013 0.32845 0.17782 0.0
H1726 H 0.94792 0.33583 0.20441 0.0
H1727 H 0.96738 0.31879 0.19638 0.0
C1728 C 0.98097 0.32762 0.25278 0.0
C1729 C 0.99799 0.3152 0.25329 0.0
C1730 C 0.97863 0.34111 0.23702 0.0
C1731 C 0.99324 0.34244 0.22147 0.0
C1732 C 0.01067 0.33075 0.22236 0.0
H1733 H 0.97938 0.38498 0.09979 0.0
H1734 H 0.98622 0.36627 0.13036 0.0
C1735 C 0.01302 0.31721 0.23811 0.0
C1736 C 0.98985 0.35529 0.20376 0.0
H1737 H 0.9586 0.35964 0.16238 0.0
C1738 C 0.00346 0.37203 0.20053 0.0
C1739 C 0.97357 0.35066 0.18978 0.0
C1740 C 0.95897 0.33237 0.19208 0.0
C1741 C 0.00112 0.38438 0.18367 0.0
C1742 C 0.98467 0.3799 0.16985 0.0
C1743 C 0.97112 0.36311 0.17308 0.0
C1744 C 0.98157 0.39188 0.15145 0.0
C1745 C 0.01651 0.40182 0.1805 0.0
C1746 C 0.97668 0.41254 0.15317 0.0
C1747 C 0.97272 0.42335 0.13566 0.0
C1748 C 0.97351 0.41364 0.11613 0.0
C1749 C 0.97862 0.39298 0.11454 0.0
C1750 C 0.98254 0.38223 0.13201 0.0
H1751 H 0.03056 0.40056 0.18992 0.0
H1752 H 0.02094 0.40237 0.16418 0.0
H1753 H 0.00953 0.41648 0.1849 0.0
H1754 H 0.97552 0.42018 0.16806 0.0
H1755 H 0.96877 0.43921 0.13746 0.0
H1756 H 0.02047 0.77094 0.24741 0.0
H1757 H 0.0215 0.79331 0.27846 0.0
H1758 H 0.01888 0.84623 0.24142 0.0
H1759 H 0.0175 0.82375 0.21042 0.0
H1760 H 0.05176 0.82331 0.28774 0.0
H1761 H 0.97517 0.85676 0.28466 0.0
H1762 H 0.98139 0.83414 0.26969 0.0
H1763 H 0.98994 0.85904 0.26174 0.0
C1764 C 0.01981 0.78734 0.24607 0.0
C1765 C 0.01878 0.79582 0.22683 0.0
C1766 C 0.02043 0.80006 0.26368 0.0
C1767 C 0.01999 0.82137 0.2622 0.0
C1768 C 0.01878 0.8298 0.24288 0.0
H1769 H 0.0408 0.92095 0.35293 0.0
H1770 H 0.03476 0.90067 0.32104 0.0
C1771 C 0.0181 0.81706 0.22526 0.0
C1772 C 0.02222 0.83477 0.28082 0.0
H1773 H 0.99859 0.87116 0.30977 0.0
C1774 C 0.0401 0.83372 0.2926 0.0
C1775 C 0.00701 0.84839 0.28699 0.0
C1776 C 0.9872 0.84959 0.27523 0.0
C1777 C 0.04324 0.84599 0.31043 0.0
C1778 C 0.02799 0.85948 0.31667 0.0
C1779 C 0.0102 0.86076 0.30482 0.0
C1780 C 0.03017 0.87192 0.33586 0.0
C1781 C 0.06288 0.84457 0.32243 0.0
C1782 C 0.02914 0.8624 0.35461 0.0
C1783 C 0.03253 0.87386 0.3728 0.0
C1784 C 0.03704 0.89507 0.37253 0.0
C1785 C 0.03747 0.90464 0.35367 0.0
C1786 C 0.03398 0.89313 0.33545 0.0
H1787 H 0.0747 0.83652 0.31349 0.0
H1788 H 0.06917 0.86007 0.32726 0.0
H1789 H 0.05968 0.83599 0.33642 0.0
H1790 H 0.02603 0.84603 0.35513 0.0
H1791 H 0.03199 0.86599 0.38703 0.0
H1792 H 0.03057 0.6993 0.25241 0.0
H1793 H 0.02432 0.67667 0.2808 0.0
H1794 H 0.98403 0.63764 0.24245 0.0
H1795 H 0.99032 0.66013 0.21385 0.0
H1796 H 0.98231 0.66647 0.29624 0.0
H1797 H 0.02519 0.59865 0.27034 0.0
H1798 H 0.031 0.62394 0.26121 0.0
H1799 H 0.00858 0.60954 0.25205 0.0
C1800 C 0.02066 0.68571 0.2499 0.0
C1801 C 0.01097 0.68147 0.23088 0.0
C1802 C 0.01703 0.67287 0.26616 0.0
C1803 C 0.00385 0.65544 0.26364 0.0
C1804 C 0.99442 0.65092 0.2446 0.0
H1805 H 0.96297 0.56248 0.34802 0.0
H1806 H 0.97053 0.58203 0.31764 0.0
C1807 C 0.99791 0.66385 0.22836 0.0
C1808 C 0.99909 0.64268 0.2813 0.0
H1809 H 0.00644 0.596 0.30089 0.0
C1810 C 0.98759 0.65106 0.29731 0.0
C1811 C 0.00583 0.62256 0.28247 0.0
C1812 C 0.01845 0.61306 0.2657 0.0
C1813 C 0.98254 0.6398 0.3145 0.0
C1814 C 0.98972 0.61981 0.31597 0.0
C1815 C 0.00103 0.61134 0.2998 0.0
C1816 C 0.98583 0.6076 0.3343 0.0
C1817 C 0.9692 0.6493 0.3307 0.0
C1818 C 0.99236 0.61525 0.35369 0.0
C1819 C 0.98791 0.60422 0.37107 0.0
C1820 C 0.97713 0.58513 0.3694 0.0
C1821 C 0.97126 0.57715 0.34987 0.0
C1822 C 0.97557 0.5883 0.33248 0.0
H1823 H 0.96004 0.66158 0.3245 0.0
H1824 H 0.95855 0.63767 0.33729 0.0
H1825 H 0.97906 0.65629 0.34318 0.0
H1826 H 0.00081 0.62983 0.35542 0.0
H1827 H 0.99291 0.61073 0.38583 0.0
H1828 H 0.30112 0.02829 0.17656 0.0
H1829 H 0.27276 0.03408 0.15289 0.0
H1830 H 0.2297 0.00917 0.19605 0.0
H1831 H 0.25805 0.00354 0.21971 0.0
H1832 H 0.24279 0.00496 0.13555 0.0
H1833 H 0.20741 0.06546 0.18359 0.0
H1834 H 0.23324 0.05775 0.18776 0.0
H1835 H 0.21183 0.0423 0.19643 0.0
C1836 C 0.28555 0.02417 0.18091 0.0
C1837 C 0.28158 0.01568 0.1999 0.0
C1838 C 0.26942 0.0274 0.16744 0.0
C1839 C 0.24911 0.02231 0.17284 0.0
C1840 C 0.24521 0.01354 0.19174 0.0
H1841 H 0.12929 0.03175 0.11855 0.0
H1842 H 0.15881 0.02495 0.1398 0.0
C1843 C 0.26134 0.01026 0.20518 0.0
C1844 C 0.23197 0.02603 0.15869 0.0
H1845 H 0.18848 0.05266 0.15449 0.0
C1846 C 0.23095 0.01547 0.1396 0.0
C1847 C 0.21658 0.03975 0.16404 0.0
C1848 C 0.21733 0.05213 0.18398 0.0
C1849 C 0.21463 0.01784 0.12593 0.0
C1850 C 0.19915 0.03146 0.13135 0.0
C1851 C 0.20032 0.04217 0.15037 0.0
C1852 C 0.18138 0.03467 0.11774 0.0
C1853 C 0.2138 0.0053 0.10609 0.0
C1854 C 0.18421 0.04238 0.0982 0.0
C1855 C 0.1673 0.04622 0.08591 0.0
C1856 C 0.14722 0.0426 0.09301 0.0
C1857 C 0.14449 0.03474 0.11255 0.0
C1858 C 0.16138 0.03085 0.12476 0.0
H1859 H 0.22362 0.9919 0.10663 0.0
H1860 H 0.19786 0.99974 0.10233 0.0
H1861 H 0.21942 0.01496 0.09357 0.0
H1862 H 0.19949 0.04586 0.09262 0.0
H1863 H 0.16999 0.05241 0.07102 0.0
H1864 H 0.73907 0.5169 0.17091 0.0
H1865 H 0.76704 0.51326 0.14642 0.0
H1866 H 0.78985 0.46388 0.18037 0.0
H1867 H 0.76214 0.46746 0.2049 0.0
H1868 H 0.80891 0.51703 0.15305 0.0
H1869 H 0.78678 0.43908 0.12232 0.0
H1870 H 0.76958 0.45439 0.13725 0.0
H1871 H 0.78895 0.44051 0.14967 0.0
C1872 C 0.75006 0.50527 0.17318 0.0
C1873 C 0.74824 0.49236 0.18982 0.0
C1874 C 0.76598 0.50316 0.15912 0.0
C1875 C 0.78033 0.48805 0.16134 0.0
C1876 C 0.77866 0.47528 0.17801 0.0
H1877 H 0.90312 0.47958 0.11637 0.0
H1878 H 0.87196 0.48623 0.13538 0.0
C1879 C 0.76277 0.47735 0.19204 0.0
C1880 C 0.79752 0.48603 0.14673 0.0
H1881 H 0.82083 0.4516 0.11506 0.0
C1882 C 0.81141 0.50279 0.14458 0.0
C1883 C 0.80061 0.46756 0.13542 0.0
C1884 C 0.78558 0.44942 0.13609 0.0
C1885 C 0.82874 0.50132 0.13207 0.0
C1886 C 0.83245 0.48248 0.12169 0.0
C1887 C 0.81812 0.46598 0.1232 0.0
C1888 C 0.85142 0.47931 0.10975 0.0
C1889 C 0.84289 0.51998 0.13008 0.0
C1890 C 0.85029 0.47282 0.08906 0.0
C1891 C 0.86814 0.46884 0.07812 0.0
C1892 C 0.88749 0.47114 0.08771 0.0
C1893 C 0.88854 0.47775 0.10842 0.0
C1894 C 0.8707 0.48171 0.11932 0.0
H1895 H 0.83488 0.5343 0.13362 0.0
H1896 H 0.8558 0.51932 0.14107 0.0
H1897 H 0.8493 0.52067 0.11444 0.0
H1898 H 0.83556 0.47074 0.08139 0.0
H1899 H 0.86672 0.46372 0.06223 0.0
H1900 H 0.27055 0.9648 0.32098 0.0
H1901 H 0.24113 0.96102 0.34324 0.0
H1902 H 0.23096 0.02547 0.33998 0.0
H1903 H 0.25914 0.02904 0.316 0.0
H1904 H 0.23141 0.97531 0.37896 0.0
H1905 H 0.17591 0.00301 0.3231 0.0
H1906 H 0.20207 0.99842 0.31648 0.0
H1907 H 0.19582 0.02173 0.33013 0.0
C1908 C 0.26186 0.97815 0.32459 0.0
C1909 C 0.26702 0.99713 0.31616 0.0
C1910 C 0.24517 0.97601 0.33763 0.0
C1911 C 0.23346 0.99285 0.3429 0.0
C1912 C 0.23933 0.0121 0.33561 0.0
H1913 H 0.13746 0.97459 0.43563 0.0
H1914 H 0.16909 0.98641 0.41896 0.0
C1915 C 0.25574 0.01418 0.32214 0.0
C1916 C 0.21482 0.98987 0.35549 0.0
H1917 H 0.1631 0.99517 0.35551 0.0
C1918 C 0.21646 0.97967 0.37385 0.0
C1919 C 0.19528 0.99539 0.34871 0.0
C1920 C 0.19208 0.00505 0.32844 0.0
C1921 C 0.19908 0.97423 0.38528 0.0
C1922 C 0.17958 0.97999 0.37863 0.0
C1923 C 0.17805 0.99083 0.36065 0.0
C1924 C 0.16034 0.97356 0.389 0.0
C1925 C 0.20178 0.96148 0.40373 0.0
C1926 C 0.14456 0.96315 0.37761 0.0
C1927 C 0.12631 0.95701 0.38694 0.0
C1928 C 0.12357 0.96082 0.40796 0.0
C1929 C 0.13931 0.97125 0.41943 0.0
C1930 C 0.15743 0.97787 0.40995 0.0
H1931 H 0.21653 0.95367 0.40332 0.0
H1932 H 0.20181 0.97157 0.41775 0.0
H1933 H 0.18913 0.94968 0.40483 0.0
H1934 H 0.14642 0.95962 0.36144 0.0
H1935 H 0.11448 0.94891 0.37774 0.0
H1936 H 0.72599 0.50339 0.33383 0.0
H1937 H 0.75638 0.50541 0.35632 0.0
H1938 H 0.79402 0.48799 0.30515 0.0
H1939 H 0.76365 0.48606 0.28271 0.0
H1940 H 0.78918 0.47575 0.36396 0.0
H1941 H 0.81498 0.54705 0.32638 0.0
H1942 H 0.78897 0.53656 0.32443 0.0
H1943 H 0.80879 0.52536 0.30942 0.0
C1944 C 0.74075 0.49958 0.32763 0.0
C1945 C 0.74278 0.4946 0.30675 0.0
C1946 C 0.75798 0.50072 0.34038 0.0
C1947 C 0.77734 0.49701 0.33227 0.0
C1948 C 0.77916 0.491 0.31158 0.0
H1949 H 0.90197 0.51554 0.37196 0.0
H1950 H 0.86985 0.50597 0.35426 0.0
C1951 C 0.76193 0.48984 0.29885 0.0
C1952 C 0.79586 0.50123 0.34493 0.0
H1953 H 0.83789 0.53382 0.35001 0.0
C1954 C 0.79985 0.48846 0.36103 0.0
C1955 C 0.8095 0.51796 0.34107 0.0
C1956 C 0.80535 0.53267 0.32451 0.0
C1957 C 0.81765 0.49167 0.37306 0.0
C1958 C 0.83148 0.50818 0.36891 0.0
C1959 C 0.82725 0.52111 0.35302 0.0
C1960 C 0.85077 0.51219 0.38045 0.0
C1961 C 0.82183 0.47715 0.38973 0.0
C1962 C 0.8506 0.51877 0.40108 0.0
C1963 C 0.86897 0.52434 0.4113 0.0
C1964 C 0.88776 0.52348 0.40096 0.0
C1965 C 0.8878 0.51647 0.38039 0.0
C1966 C 0.86948 0.51094 0.37023 0.0
H1967 H 0.81172 0.46305 0.38842 0.0
H1968 H 0.83806 0.47276 0.38934 0.0
H1969 H 0.81915 0.48487 0.40481 0.0
H1970 H 0.83623 0.52014 0.4091 0.0
H1971 H 0.86841 0.52968 0.42714 0.0
H1972 H 0.19815 0.29144 0.01868 0.0
H1973 H 0.17454 0.26137 0.02147 0.0
H1974 H 0.22504 0.22175 0.01238 0.0
H1975 H 0.24853 0.25188 0.00931 0.0
H1976 H 0.18982 0.20979 0.98903 0.0
H1977 H 0.17102 0.2247 0.07078 0.0
H1978 H 0.16687 0.24557 0.05447 0.0
H1979 H 0.19244 0.23749 0.05858 0.0
C1980 C 0.20406 0.27626 0.0173 0.0
C1981 C 0.22498 0.27373 0.0139 0.0
C1982 C 0.19068 0.25916 0.01898 0.0
C1983 C 0.19812 0.23937 0.01743 0.0
C1984 C 0.21903 0.2369 0.0137 0.0
H1985 H 0.15178 0.11516 0.02776 0.0
H1986 H 0.17166 0.14666 0.02139 0.0
C1987 C 0.2324 0.254 0.01198 0.0
C1988 C 0.18414 0.22119 0.01967 0.0
H1989 H 0.15294 0.19697 0.05361 0.0
C1990 C 0.18173 0.20697 0.00313 0.0
C1991 C 0.17359 0.21763 0.03808 0.0
C1992 C 0.17618 0.23203 0.05658 0.0
C1993 C 0.16899 0.18925 0.00449 0.0
C1994 C 0.15868 0.18554 0.023 0.0
C1995 C 0.16084 0.19991 0.03943 0.0
C1996 C 0.14628 0.16642 0.02598 0.0
C1997 C 0.16652 0.17476 0.98606 0.0
C1998 C 0.12547 0.16713 0.03103 0.0
C1999 C 0.11403 0.14913 0.03483 0.0
C2000 C 0.12327 0.1301 0.03378 0.0
C2001 C 0.14412 0.1295 0.02861 0.0
C2002 C 0.15551 0.14749 0.02483 0.0
H2003 H 0.1705 0.18248 0.97172 0.0
H2004 H 0.17696 0.16199 0.98763 0.0
H2005 H 0.15059 0.16817 0.98472 0.0
H2006 H 0.11811 0.18163 0.03213 0.0
H2007 H 0.09804 0.15016 0.03881 0.0
H2008 H 0.19012 0.74015 0.51664 0.0
H2009 H 0.16688 0.76772 0.5131 0.0
H2010 H 0.16304 0.75444 0.44813 0.0
H2011 H 0.18444 0.7254 0.45178 0.0
H2012 H 0.17103 0.80108 0.49578 0.0
H2013 H 0.10446 0.76034 0.45809 0.0
H2014 H 0.12536 0.7469 0.46848 0.0
H2015 H 0.12705 0.75688 0.44323 0.0
C2016 C 0.18385 0.74251 0.50164 0.0
C2017 C 0.18924 0.73017 0.48455 0.0
C2018 C 0.1707 0.7586 0.49961 0.0
C2019 C 0.1628 0.7631 0.48039 0.0
C2020 C 0.16831 0.75101 0.46326 0.0
H2021 H 0.12335 0.88368 0.45232 0.0
H2022 H 0.14219 0.85322 0.45872 0.0
C2023 C 0.18104 0.73457 0.46534 0.0
C2024 C 0.14984 0.78112 0.4782 0.0
H2025 H 0.10625 0.79693 0.45577 0.0
C2026 C 0.15673 0.80005 0.48723 0.0
C2027 C 0.13092 0.7799 0.46741 0.0
C2028 C 0.12142 0.75985 0.45898 0.0
C2029 C 0.14557 0.81775 0.48542 0.0
C2030 C 0.12746 0.81684 0.47335 0.0
C2031 C 0.12028 0.79782 0.46474 0.0
C2032 C 0.11585 0.8354 0.46927 0.0
C2033 C 0.1532 0.83707 0.49693 0.0
C2034 C 0.09451 0.83539 0.47208 0.0
C2035 C 0.08356 0.85264 0.46776 0.0
C2036 C 0.09378 0.87039 0.46085 0.0
C2037 C 0.11509 0.87038 0.45801 0.0
C2038 C 0.12592 0.85298 0.46183 0.0
H2039 H 0.16211 0.83352 0.51075 0.0
H2040 H 0.16359 0.84605 0.48698 0.0
H2041 H 0.14038 0.84668 0.50177 0.0
H2042 H 0.0863 0.82202 0.47767 0.0
H2043 H 0.06714 0.85217 0.47004 0.0
H2044 H 0.80084 0.72659 0.4789 0.0
H2045 H 0.82581 0.70025 0.47407 0.0
H2046 H 0.87027 0.7373 0.50963 0.0
H2047 H 0.84536 0.76407 0.5143 0.0
H2048 H 0.86546 0.70619 0.45547 0.0
H2049 H 0.86969 0.6795 0.53499 0.0
H2050 H 0.84856 0.69369 0.52602 0.0
H2051 H 0.87286 0.70661 0.53158 0.0
C2052 C 0.81595 0.72923 0.48564 0.0
C2053 C 0.82115 0.74753 0.49685 0.0
C2054 C 0.83016 0.7141 0.48294 0.0
C2055 C 0.84983 0.71681 0.49154 0.0
C2056 C 0.85506 0.73484 0.50307 0.0
H2057 H 0.94727 0.63544 0.45262 0.0
H2058 H 0.92935 0.66629 0.4628 0.0
C2059 C 0.84081 0.75008 0.50576 0.0
C2060 C 0.8649 0.70088 0.48767 0.0
H2061 H 0.8899 0.66294 0.51027 0.0
C2062 C 0.87102 0.69686 0.46746 0.0
C2063 C 0.87195 0.68871 0.50336 0.0
C2064 C 0.8654 0.69215 0.52523 0.0
C2065 C 0.88366 0.68066 0.46242 0.0
C2066 C 0.89051 0.6683 0.47807 0.0
C2067 C 0.88473 0.67257 0.49836 0.0
C2068 C 0.90222 0.64984 0.47336 0.0
C2069 C 0.88886 0.67634 0.44029 0.0
C2070 C 0.89312 0.63042 0.47643 0.0
C2071 C 0.90327 0.6128 0.47065 0.0
C2072 C 0.92283 0.61423 0.46177 0.0
C2073 C 0.9322 0.63376 0.45932 0.0
C2074 C 0.92197 0.65141 0.46507 0.0
H2075 H 0.87944 0.68504 0.4298 0.0
H2076 H 0.90522 0.68076 0.43778 0.0
H2077 H 0.88657 0.65976 0.43623 0.0
H2078 H 0.8779 0.62889 0.48283 0.0
H2079 H 0.89561 0.59805 0.4729 0.0
H2080 H 0.32856 0.71077 0.51732 0.0
H2081 H 0.35103 0.74175 0.52211 0.0
H2082 H 0.30161 0.77861 0.5034 0.0
H2083 H 0.27929 0.74754 0.49834 0.0
H2084 H 0.33925 0.78791 0.48444 0.0
H2085 H 0.3478 0.78524 0.56874 0.0
H2086 H 0.3541 0.76218 0.55485 0.0
H2087 H 0.32819 0.7703 0.55459 0.0
C2088 C 0.32262 0.72556 0.51437 0.0
C2089 C 0.30237 0.72708 0.50764 0.0
C2090 C 0.33533 0.74317 0.51716 0.0
C2091 C 0.32784 0.76243 0.51338 0.0
C2092 C 0.30759 0.76386 0.50648 0.0
H2093 H 0.37429 0.88775 0.52268 0.0
H2094 H 0.35432 0.85581 0.51563 0.0
C2095 C 0.2949 0.74625 0.50365 0.0
C2096 C 0.34121 0.7811 0.51627 0.0
H2097 H 0.36829 0.81029 0.55227 0.0
C2098 C 0.34558 0.79286 0.49926 0.0
C2099 C 0.34943 0.7874 0.53563 0.0
C2100 C 0.34454 0.77575 0.55455 0.0
C2101 C 0.35817 0.81076 0.50108 0.0
C2102 C 0.36629 0.81711 0.52045 0.0
C2103 C 0.36205 0.80527 0.53743 0.0
C2104 C 0.37877 0.83632 0.52363 0.0
C2105 C 0.36287 0.82261 0.48225 0.0
C2106 C 0.39903 0.83586 0.53067 0.0
C2107 C 0.41049 0.85408 0.5348 0.0
C2108 C 0.40178 0.87306 0.53212 0.0
C2109 C 0.38149 0.87341 0.52487 0.0
C2110 C 0.37008 0.85518 0.52071 0.0
H2111 H 0.35983 0.81313 0.46801 0.0
H2112 H 0.35302 0.83597 0.482 0.0
H2113 H 0.37911 0.82841 0.48232 0.0
H2114 H 0.40591 0.82139 0.53311 0.0
H2115 H 0.42606 0.85325 0.54039 0.0
H2116 H 0.50813 0.72595 0.75285 0.0
H2117 H 0.51278 0.69996 0.72537 0.0
H2118 H 0.51051 0.65278 0.76958 0.0
H2119 H 0.50549 0.67882 0.79699 0.0
H2120 H 0.5452 0.67468 0.72248 0.0
H2121 H 0.47184 0.62854 0.7249 0.0
H2122 H 0.47515 0.65369 0.73713 0.0
H2123 H 0.48511 0.63189 0.74897 0.0
C2124 C 0.50827 0.70996 0.75652 0.0
C2125 C 0.50631 0.70418 0.77681 0.0
C2126 C 0.51097 0.69517 0.74092 0.0
C2127 C 0.51174 0.67441 0.74539 0.0
C2128 C 0.5095 0.66864 0.76572 0.0
H2129 H 0.54535 0.56971 0.66677 0.0
H2130 H 0.53631 0.59147 0.69647 0.0
C2131 C 0.50674 0.68345 0.78133 0.0
C2132 C 0.51636 0.65911 0.72895 0.0
H2133 H 0.49768 0.61571 0.70318 0.0
C2134 C 0.53479 0.66181 0.71826 0.0
C2135 C 0.50283 0.64223 0.72358 0.0
C2136 C 0.48253 0.63893 0.7341 0.0
C2137 C 0.53999 0.64819 0.70227 0.0
C2138 C 0.52634 0.63153 0.69669 0.0
C2139 C 0.5081 0.62852 0.70759 0.0
C2140 C 0.5304 0.61782 0.67882 0.0
C2141 C 0.56007 0.6517 0.6914 0.0
C2142 C 0.52963 0.62537 0.65914 0.0
C2143 C 0.5347 0.61306 0.64221 0.0
C2144 C 0.5407 0.59289 0.64461 0.0
C2145 C 0.54088 0.58517 0.66437 0.0
C2146 C 0.5357 0.59754 0.68134 0.0
H2147 H 0.57073 0.66245 0.70025 0.0
H2148 H 0.56767 0.63703 0.68854 0.0
H2149 H 0.55712 0.65834 0.67639 0.0
H2150 H 0.52538 0.64094 0.65691 0.0
H2151 H 0.53427 0.61953 0.62727 0.0
H2152 H 0.51618 0.84153 0.77086 0.0
H2153 H 0.51135 0.86394 0.74231 0.0
H2154 H 0.46105 0.82425 0.71984 0.0
H2155 H 0.46587 0.80171 0.74811 0.0
H2156 H 0.51327 0.85436 0.7005 0.0
H2157 H 0.43653 0.88079 0.72162 0.0
H2158 H 0.45275 0.8684 0.7393 0.0
H2159 H 0.4378 0.85343 0.72049 0.0
C2160 C 0.50413 0.83754 0.7598 0.0
C2161 C 0.49133 0.81988 0.76186 0.0
C2162 C 0.50133 0.85041 0.74357 0.0
C2163 C 0.48561 0.84595 0.72918 0.0
C2164 C 0.47294 0.82826 0.73107 0.0
H2165 H 0.47012 0.88028 0.60572 0.0
H2166 H 0.4781 0.86445 0.63768 0.0
C2167 C 0.47572 0.81539 0.74726 0.0
C2168 C 0.48288 0.85928 0.71168 0.0
H2169 H 0.44752 0.88684 0.68752 0.0
C2170 C 0.49898 0.86165 0.69776 0.0
C2171 C 0.46434 0.86903 0.7083 0.0
C2172 C 0.44693 0.86799 0.72332 0.0
C2173 C 0.49672 0.87281 0.68009 0.0
C2174 C 0.47777 0.88158 0.67612 0.0
C2175 C 0.46198 0.87994 0.69048 0.0
C2176 C 0.47367 0.89164 0.65673 0.0
C2177 C 0.51462 0.87504 0.66576 0.0
C2178 C 0.46815 0.91212 0.65683 0.0
C2179 C 0.46346 0.92126 0.63852 0.0
C2180 C 0.46402 0.91 0.61979 0.0
C2181 C 0.4696 0.88947 0.61981 0.0
C2182 C 0.47431 0.8804 0.63808 0.0
H2183 H 0.5294 0.87288 0.6737 0.0
H2184 H 0.5129 0.8632 0.6532 0.0
H2185 H 0.51526 0.89031 0.65894 0.0
H2186 H 0.46743 0.92101 0.6711 0.0
H2187 H 0.45917 0.93706 0.63909 0.0
H2188 H 0.4879 0.31938 0.75736 0.0
H2189 H 0.49017 0.34591 0.78437 0.0
H2190 H 0.55481 0.35543 0.7729 0.0
H2191 H 0.55225 0.33062 0.74438 0.0
H2192 H 0.5086 0.34503 0.81775 0.0
H2193 H 0.54129 0.41293 0.7807 0.0
H2194 H 0.53178 0.39054 0.76608 0.0
H2195 H 0.55766 0.39209 0.77602 0.0
C2196 C 0.50248 0.3276 0.75998 0.0
C2197 C 0.5199 0.32269 0.74855 0.0
C2198 C 0.50379 0.34268 0.77567 0.0
C2199 C 0.5226 0.35294 0.78058 0.0
C2200 C 0.53997 0.34823 0.7691 0.0
H2201 H 0.56202 0.39155 0.90036 0.0
H2202 H 0.55168 0.37403 0.86818 0.0
C2203 C 0.53856 0.33358 0.75304 0.0
C2204 C 0.52455 0.36687 0.799 0.0
H2205 H 0.54768 0.41171 0.81732 0.0
C2206 C 0.5168 0.3598 0.81751 0.0
C2207 C 0.53481 0.38638 0.79879 0.0
C2208 C 0.54161 0.39598 0.77925 0.0
C2209 C 0.51994 0.37115 0.83591 0.0
C2210 C 0.53206 0.38962 0.83598 0.0
C2211 C 0.53881 0.3973 0.81736 0.0
C2212 C 0.53872 0.40059 0.85527 0.0
C2213 C 0.5102 0.36314 0.85503 0.0
C2214 C 0.5359 0.42164 0.85832 0.0
C2215 C 0.54241 0.43186 0.87653 0.0
C2216 C 0.55159 0.42109 0.89202 0.0
C2217 C 0.55465 0.40013 0.88881 0.0
C2218 C 0.54858 0.39007 0.87048 0.0
H2219 H 0.49581 0.35401 0.85136 0.0
H2220 H 0.52083 0.35287 0.8624 0.0
H2221 H 0.50665 0.37574 0.8661 0.0
H2222 H 0.52851 0.43011 0.84671 0.0
H2223 H 0.5399 0.44805 0.87864 0.0
H2224 H 0.4919 0.17713 0.72123 0.0
H2225 H 0.48737 0.1549 0.75043 0.0
H2226 H 0.51434 0.20282 0.79046 0.0
H2227 H 0.51854 0.22509 0.76133 0.0
H2228 H 0.51696 0.14128 0.77749 0.0
H2229 H 0.46013 0.18791 0.81849 0.0
H2230 H 0.46659 0.19143 0.79206 0.0
H2231 H 0.48326 0.20201 0.8121 0.0
C2232 C 0.49671 0.18285 0.73633 0.0
C2233 C 0.50535 0.20277 0.73923 0.0
C2234 C 0.4942 0.17019 0.75293 0.0
C2235 C 0.50023 0.17732 0.77266 0.0
C2236 C 0.50919 0.19716 0.77545 0.0
H2237 H 0.49912 0.12979 0.89362 0.0
H2238 H 0.50446 0.14939 0.86304 0.0
C2239 C 0.51168 0.20981 0.75887 0.0
C2240 C 0.49736 0.16398 0.7903 0.0
H2241 H 0.47402 0.16102 0.83666 0.0
C2242 C 0.50747 0.1455 0.79038 0.0
C2243 C 0.48495 0.16952 0.80707 0.0
C2244 C 0.47294 0.1887 0.80742 0.0
C2245 C 0.50596 0.13268 0.80708 0.0
C2246 C 0.49374 0.13836 0.82396 0.0
C2247 C 0.48346 0.15673 0.82374 0.0
C2248 C 0.49158 0.12571 0.8422 0.0
C2249 C 0.51788 0.11346 0.80676 0.0
C2250 C 0.48261 0.1058 0.84064 0.0
C2251 C 0.47956 0.09446 0.85814 0.0
C2252 C 0.48528 0.10291 0.87756 0.0
C2253 C 0.49451 0.12277 0.87896 0.0
C2254 C 0.49757 0.13404 0.86148 0.0
H2255 H 0.53026 0.11386 0.7952 0.0
H2256 H 0.52479 0.11114 0.82197 0.0
H2257 H 0.50735 0.10009 0.80284 0.0
H2258 H 0.47752 0.0992 0.82596 0.0
H2259 H 0.4723 0.07928 0.85649 0.0
H2260 H 0.76051 0.51682 0.73768 0.0
H2261 H 0.72875 0.52035 0.71802 0.0
H2262 H 0.76383 0.52338 0.66251 0.0
H2263 H 0.79549 0.51959 0.6822 0.0
H2264 H 0.71793 0.55194 0.69346 0.0
H2265 H 0.71988 0.47865 0.64807 0.0
H2266 H 0.73572 0.48413 0.67046 0.0
H2267 H 0.74283 0.49464 0.64644 0.0
C2268 C 0.76129 0.51821 0.72127 0.0
C2269 C 0.78022 0.51789 0.71131 0.0
C2270 C 0.74324 0.52021 0.71008 0.0
C2271 C 0.74388 0.5218 0.68876 0.0
C2272 C 0.76292 0.52174 0.67887 0.0
H2273 H 0.65306 0.53972 0.59455 0.0
H2274 H 0.68441 0.53507 0.61411 0.0
C2275 C 0.78096 0.51973 0.69007 0.0
C2276 C 0.72468 0.52399 0.67695 0.0
H2277 H 0.6949 0.50178 0.63837 0.0
C2278 C 0.71283 0.54092 0.68149 0.0
C2279 C 0.71807 0.5096 0.66131 0.0
C2280 C 0.72966 0.49062 0.65636 0.0
C2281 C 0.69474 0.54407 0.67058 0.0
C2282 C 0.68817 0.52971 0.65491 0.0
C2283 C 0.7 0.51277 0.65036 0.0
C2284 C 0.66904 0.53205 0.64306 0.0
C2285 C 0.68304 0.56296 0.6756 0.0
C2286 C 0.64995 0.53152 0.65279 0.0
C2287 C 0.63198 0.53413 0.64167 0.0
C2288 C 0.63273 0.53728 0.62054 0.0
C2289 C 0.65188 0.5374 0.61078 0.0
C2290 C 0.66984 0.53473 0.62193 0.0
H2291 H 0.69257 0.57476 0.68442 0.0
H2292 H 0.67743 0.56975 0.66147 0.0
H2293 H 0.66955 0.55872 0.685 0.0
H2294 H 0.64896 0.52909 0.66902 0.0
H2295 H 0.61753 0.53384 0.64969 0.0
H2296 H 0.22358 0.98302 0.67118 0.0
H2297 H 0.25212 0.97795 0.64739 0.0
H2298 H 0.29504 0.99925 0.69469 0.0
H2299 H 0.2665 0.00417 0.71844 0.0
H2300 H 0.28345 0.00634 0.63428 0.0
H2301 H 0.31531 0.94271 0.6761 0.0
H2302 H 0.28981 0.95139 0.68053 0.0
H2303 H 0.31165 0.96551 0.69157 0.0
C2304 C 0.23915 0.98663 0.67636 0.0
C2305 C 0.24303 0.99384 0.69654 0.0
C2306 C 0.25538 0.98378 0.66284 0.0
C2307 C 0.27571 0.98795 0.66937 0.0
C2308 C 0.2795 0.99561 0.68944 0.0
H2309 H 0.396 0.9767 0.61732 0.0
H2310 H 0.3663 0.98435 0.63822 0.0
C2311 C 0.26327 0.9985 0.70294 0.0
C2312 C 0.29298 0.9841 0.65528 0.0
H2313 H 0.33544 0.95594 0.64924 0.0
C2314 C 0.29478 0.99526 0.63746 0.0
C2315 C 0.30768 0.96957 0.65945 0.0
C2316 C 0.30599 0.95645 0.67785 0.0
C2317 C 0.31123 0.99266 0.62397 0.0
C2318 C 0.32606 0.9783 0.62829 0.0
C2319 C 0.32411 0.967 0.646 0.0
C2320 C 0.34395 0.97487 0.61486 0.0
C2321 C 0.31292 0.00568 0.60552 0.0
C2322 C 0.34128 0.96707 0.59468 0.0
C2323 C 0.35829 0.96265 0.58261 0.0
C2324 C 0.37831 0.96587 0.59053 0.0
C2325 C 0.38086 0.97403 0.61066 0.0
C2326 C 0.36388 0.97839 0.62268 0.0
H2327 H 0.3032 0.01915 0.60694 0.0
H2328 H 0.32904 0.01113 0.60315 0.0
H2329 H 0.30781 0.99637 0.59174 0.0
H2330 H 0.32603 0.96389 0.58844 0.0
H2331 H 0.35573 0.9563 0.56724 0.0
H2332 H 0.78293 0.47649 0.83354 0.0
H2333 H 0.75497 0.47513 0.85776 0.0
H2334 H 0.74724 0.53976 0.85209 0.0
H2335 H 0.77365 0.54084 0.82607 0.0
H2336 H 0.7474 0.49096 0.89309 0.0
H2337 H 0.69077 0.51959 0.83892 0.0
H2338 H 0.71627 0.51359 0.83122 0.0
H2339 H 0.71171 0.53761 0.84445 0.0
C2340 C 0.77506 0.49039 0.83704 0.0
C2341 C 0.78029 0.50864 0.82725 0.0
C2342 C 0.75924 0.48964 0.85122 0.0
C2343 C 0.74854 0.50722 0.85635 0.0
C2344 C 0.75473 0.52582 0.84784 0.0
H2345 H 0.65602 0.49446 0.95358 0.0
H2346 H 0.68732 0.50504 0.93558 0.0
C2347 C 0.77019 0.52647 0.83318 0.0
C2348 C 0.73047 0.50562 0.86993 0.0
H2349 H 0.67922 0.51338 0.8721 0.0
C2350 C 0.73247 0.49587 0.88851 0.0
C2351 C 0.71094 0.51188 0.86387 0.0
C2352 C 0.7072 0.52106 0.84345 0.0
C2353 C 0.71543 0.49147 0.9008 0.0
C2354 C 0.69596 0.49794 0.89484 0.0
C2355 C 0.69414 0.50847 0.8767 0.0
C2356 C 0.67692 0.49243 0.90603 0.0
C2357 C 0.71838 0.47898 0.91939 0.0
C2358 C 0.66032 0.48266 0.8953 0.0
C2359 C 0.64225 0.47732 0.90538 0.0
C2360 C 0.64055 0.48125 0.92649 0.0
C2361 C 0.65709 0.49105 0.93731 0.0
C2362 C 0.67501 0.49694 0.92707 0.0
H2363 H 0.73275 0.47053 0.91852 0.0
H2364 H 0.71942 0.48934 0.93321 0.0
H2365 H 0.70536 0.46773 0.92125 0.0
H2366 H 0.66138 0.47897 0.87907 0.0
H2367 H 0.62977 0.46968 0.8967 0.0
H2368 H 0.24105 0.99264 0.83655 0.0
H2369 H 0.26726 0.99792 0.86343 0.0
H2370 H 0.29956 0.04227 0.8271 0.0
H2371 H 0.27369 0.03697 0.80019 0.0
H2372 H 0.30921 0.99184 0.85965 0.0
H2373 H 0.29539 0.07218 0.88309 0.0
H2374 H 0.27689 0.0561 0.86857 0.0
H2375 H 0.29807 0.06865 0.85594 0.0
C2376 C 0.25378 0.00348 0.83431 0.0
C2377 C 0.2553 0.01446 0.81631 0.0
C2378 C 0.26861 0.00656 0.8497 0.0
C2379 C 0.28505 0.02077 0.84736 0.0
C2380 C 0.28666 0.03165 0.8294 0.0
H2381 H 0.40762 0.03345 0.88495 0.0
H2382 H 0.37404 0.02429 0.87003 0.0
C2383 C 0.27189 0.02857 0.81403 0.0
C2384 C 0.30139 0.02342 0.863 0.0
H2385 H 0.32875 0.06018 0.89119 0.0
C2386 C 0.31328 0.00668 0.86689 0.0
C2387 C 0.3064 0.0427 0.87266 0.0
C2388 C 0.29337 0.06088 0.87003 0.0
C2389 C 0.33096 0.00907 0.8791 0.0
C2390 C 0.33693 0.02874 0.88732 0.0
C2391 C 0.32424 0.04516 0.88462 0.0
C2392 C 0.35714 0.03304 0.89708 0.0
C2393 C 0.34339 0.99065 0.88266 0.0
C2394 C 0.35869 0.04133 0.91712 0.0
C2395 C 0.37789 0.04673 0.9257 0.0
C2396 C 0.39582 0.04409 0.91425 0.0
C2397 C 0.39415 0.03566 0.89421 0.0
C2398 C 0.37498 0.03024 0.8857 0.0
H2399 H 0.33376 0.97623 0.88112 0.0
H2400 H 0.35568 0.98985 0.87107 0.0
H2401 H 0.35066 0.99166 0.89805 0.0
H2402 H 0.34503 0.04378 0.92604 0.0
H2403 H 0.37865 0.05321 0.94117 0.0
H2404 H 0.67837 0.77573 0.51775 0.0
H2405 H 0.65369 0.74751 0.52513 0.0
H2406 H 0.7028 0.70553 0.52415 0.0
H2407 H 0.72738 0.73376 0.51666 0.0
H2408 H 0.66655 0.69197 0.50111 0.0
H2409 H 0.64925 0.71895 0.58057 0.0
H2410 H 0.64667 0.73719 0.56101 0.0
H2411 H 0.67152 0.72832 0.56698 0.0
C2412 C 0.68374 0.76043 0.51911 0.0
C2413 C 0.70457 0.75668 0.51672 0.0
C2414 C 0.66975 0.74441 0.52339 0.0
C2415 C 0.67651 0.72453 0.52539 0.0
C2416 C 0.69734 0.7208 0.52271 0.0
H2417 H 0.63212 0.60437 0.55287 0.0
H2418 H 0.65075 0.63523 0.54246 0.0
C2419 C 0.71131 0.73681 0.51847 0.0
C2420 C 0.66193 0.70749 0.5302 0.0
H2421 H 0.63165 0.68876 0.56807 0.0
C2422 C 0.65883 0.69129 0.5157 0.0
C2423 C 0.6518 0.70678 0.54919 0.0
C2424 C 0.65501 0.72363 0.56545 0.0
C2425 C 0.64602 0.6742 0.5198 0.0
C2426 C 0.63643 0.67315 0.53906 0.0
C2427 C 0.63905 0.68963 0.55333 0.0
C2428 C 0.62477 0.6545 0.54517 0.0
C2429 C 0.64289 0.6574 0.50348 0.0
C2430 C 0.60409 0.65523 0.55069 0.0
C2431 C 0.59333 0.63756 0.55681 0.0
C2432 C 0.60318 0.61892 0.55765 0.0
C2433 C 0.62398 0.61839 0.55229 0.0
C2434 C 0.63466 0.636 0.54619 0.0
H2435 H 0.64597 0.66314 0.488 0.0
H2436 H 0.65368 0.64517 0.50622 0.0
H2437 H 0.62704 0.65056 0.50374 0.0
H2438 H 0.59625 0.66944 0.55016 0.0
H2439 H 0.57736 0.63853 0.5609 0.0
H2440 H 0.72114 0.26031 0.96533 0.0
H2441 H 0.69996 0.29004 0.9635 0.0
H2442 H 0.66327 0.26819 0.01331 0.0
H2443 H 0.68439 0.23835 0.01524 0.0
H2444 H 0.65873 0.29267 0.95631 0.0
H2445 H 0.67962 0.3265 0.03307 0.0
H2446 H 0.69345 0.30609 0.02101 0.0
H2447 H 0.66936 0.30059 0.03322 0.0
C2448 C 0.70844 0.26169 0.97578 0.0
C2449 C 0.70452 0.24694 0.99048 0.0
C2450 C 0.69641 0.27877 0.97478 0.0
C2451 C 0.68023 0.28154 0.98849 0.0
C2452 C 0.67597 0.26664 0.0029 0.0
H2453 H 0.58474 0.36906 0.97183 0.0
H2454 H 0.6035 0.33799 0.97599 0.0
C2455 C 0.68804 0.24957 0.00396 0.0
C2456 C 0.66779 0.29996 0.98749 0.0
H2457 H 0.65361 0.34245 0.01497 0.0
C2458 C 0.65759 0.30355 0.96914 0.0
C2459 C 0.66652 0.31428 0.00416 0.0
C2460 C 0.67796 0.31184 0.02393 0.0
C2461 C 0.6461 0.32099 0.96702 0.0
C2462 C 0.64443 0.33507 0.98384 0.0
C2463 C 0.65472 0.33155 0.00216 0.0
C2464 C 0.63269 0.35392 0.98247 0.0
C2465 C 0.63631 0.32444 0.94659 0.0
C2466 C 0.64266 0.37326 0.9855 0.0
C2467 C 0.63195 0.39109 0.98332 0.0
C2468 C 0.61098 0.38997 0.9781 0.0
C2469 C 0.60089 0.37055 0.9757 0.0
C2470 C 0.61163 0.35273 0.97795 0.0
H2471 H 0.64329 0.31521 0.93407 0.0
H2472 H 0.61977 0.31985 0.94716 0.0
H2473 H 0.63773 0.34084 0.94285 0.0
H2474 H 0.65888 0.37456 0.98912 0.0
H2475 H 0.64023 0.40574 0.98534 0.0
H2476 H 0.32797 0.25413 0.02879 0.0
H2477 H 0.3512 0.22596 0.02427 0.0
H2478 H 0.38464 0.2594 0.97885 0.0
H2479 H 0.36155 0.28771 0.98334 0.0
H2480 H 0.35621 0.20582 0.98298 0.0
H2481 H 0.42934 0.2369 0.01847 0.0
H2482 H 0.40472 0.24637 0.0257 0.0
H2483 H 0.41601 0.25322 0.0019 0.0
C2484 C 0.34056 0.25569 0.01819 0.0
C2485 C 0.34294 0.2731 0.00639 0.0
C2486 C 0.35374 0.23956 0.01557 0.0
C2487 C 0.36968 0.24071 0.00135 0.0
C2488 C 0.37256 0.25836 0.99007 0.0
H2489 H 0.45699 0.15379 0.95505 0.0
H2490 H 0.43895 0.18479 0.9645 0.0
C2491 C 0.35928 0.27442 0.99254 0.0
C2492 C 0.38201 0.22268 0.99689 0.0
H2493 H 0.43002 0.20461 0.00097 0.0
C2494 C 0.37233 0.20547 0.98699 0.0
C2495 C 0.40306 0.2225 0.00189 0.0
C2496 C 0.41399 0.24066 0.01269 0.0
C2497 C 0.38318 0.18805 0.98176 0.0
C2498 C 0.40418 0.1876 0.98717 0.0
C2499 C 0.41392 0.20493 0.99695 0.0
C2500 C 0.41613 0.1692 0.98282 0.0
C2501 C 0.37213 0.17052 0.97001 0.0
C2502 C 0.4097 0.1503 0.99052 0.0
C2503 C 0.41978 0.13259 0.98497 0.0
C2504 C 0.43678 0.13346 0.9719 0.0
C2505 C 0.44391 0.15259 0.96509 0.0
C2506 C 0.43363 0.17031 0.97048 0.0
H2507 H 0.3584 0.17562 0.96189 0.0
H2508 H 0.38234 0.16325 0.95863 0.0
H2509 H 0.36689 0.15878 0.98081 0.0
H2510 H 0.39661 0.14917 0.00054 0.0
H2511 H 0.41408 0.11815 0.99075 0.0
H2512 H 0.79424 0.25836 0.9849 0.0
H2513 H 0.81675 0.2895 0.98616 0.0
H2514 H 0.86701 0.25439 0.00608 0.0
H2515 H 0.84451 0.22326 0.00457 0.0
H2516 H 0.83623 0.30453 0.0224 0.0
H2517 H 0.89269 0.28948 0.96113 0.0
H2518 H 0.8682 0.27561 0.96231 0.0
H2519 H 0.88895 0.26925 0.97866 0.0
C2520 C 0.8102 0.25739 0.98919 0.0
C2521 C 0.81785 0.23871 0.99465 0.0
C2522 C 0.82298 0.27505 0.9899 0.0
C2523 C 0.84355 0.27413 0.99596 0.0
C2524 C 0.85129 0.2553 0.00096 0.0
H2525 H 0.93928 0.36339 0.03249 0.0
H2526 H 0.91908 0.33215 0.02252 0.0
C2527 C 0.83849 0.23763 0.00024 0.0
C2528 C 0.85631 0.29317 0.99904 0.0
H2529 H 0.90048 0.31793 0.98413 0.0
C2530 C 0.85018 0.30758 0.01391 0.0
C2531 C 0.87456 0.29689 0.98804 0.0
C2532 C 0.88146 0.28209 0.97151 0.0
C2533 C 0.86203 0.32554 0.01838 0.0
C2534 C 0.88027 0.32931 0.00738 0.0
C2535 C 0.88643 0.31494 0.99246 0.0
C2536 C 0.89319 0.34808 0.01145 0.0
C2537 C 0.85521 0.34008 0.03522 0.0
C2538 C 0.88546 0.36726 0.00796 0.0
C2539 C 0.89684 0.38509 0.01372 0.0
C2540 C 0.91625 0.38402 0.02294 0.0
C2541 C 0.92435 0.36474 0.02553 0.0
C2542 C 0.91288 0.34689 0.01981 0.0
H2543 H 0.84371 0.33267 0.0453 0.0
H2544 H 0.86845 0.34603 0.04474 0.0
H2545 H 0.84809 0.35329 0.02835 0.0
H2546 H 0.87041 0.36842 0.00119 0.0
H2547 H 0.89026 0.39969 0.01128 0.0
loop_
_geom_bond_atom_site_label_1
_geom_bond_atom_site_label_2
_geom_bond_distance
_geom_bond_site_symmetry_2
_ccdc_geom_bond_type
C0 C1 1.443 . S
C0 N4 1.376 . S
C0 C38 1.389 . S
C1 C0 1.443 . S
C1 C2 1.340 . S
C1 H41 0.951 . S
C2 C1 1.340 . S
C2 C3 1.439 . S
C2 H42 0.950 . S
C3 C2 1.439 . S
C3 N4 1.374 . S
C3 C37 1.395 . S
N4 C0 1.376 . S
N4 C3 1.374 . S
N4 Co5 2.008 1_655 S
Co5 N4 2.008 1_455 S
Co5 N6 1.995 1_455 S
Co5 N11 2.008 . S
Co5 N16 1.995 . S
Co5 N21 2.282 . S
Co5 N27 2.282 1_455 S
N6 Co5 1.995 1_655 S
N6 C7 1.376 . S
N6 C10 1.383 . S
C7 N6 1.376 . S
C7 C8 1.446 . S
C7 C37 1.391 . S
C8 C7 1.446 . S
C8 C9 1.339 . S
C8 H43 0.949 . S
C9 C8 1.339 . S
C9 C10 1.439 . S
C9 H44 0.950 . S
C10 N6 1.383 . S
C10 C9 1.439 . S
C10 C39 1.392 1_655 S
N11 Co5 2.008 . S
N11 C12 1.376 . S
N11 C15 1.374 . S
C12 N11 1.376 . S
C12 C13 1.443 . S
C12 C39 1.389 . S
C13 C12 1.443 . S
C13 C14 1.340 . S
C13 H45 0.951 . S
C14 C13 1.340 . S
C14 C15 1.439 . S
C14 H46 0.950 . S
C15 N11 1.374 . S
C15 C14 1.439 . S
C15 C40 1.395 . S
N16 Co5 1.995 . S
N16 C17 1.376 . S
N16 C20 1.383 . S
C17 N16 1.376 . S
C17 C18 1.446 . S
C17 C40 1.391 . S
C18 C17 1.446 . S
C18 C19 1.339 . S
C18 H47 0.949 . S
C19 C18 1.339 . S
C19 C20 1.439 . S
C19 H48 0.950 . S
C20 N16 1.383 . S
C20 C19 1.439 . S
C20 C38 1.392 1_455 S
N21 Co5 2.282 . S
N21 C24 1.332 . S
N21 C26 1.332 1_455 S
C22 C23 1.386 . S
C22 C25 1.388 1_455 S
C23 C22 1.386 . S
C23 C24 1.382 . S
C23 H49 0.950 . S
C24 N21 1.332 . S
C24 C23 1.382 . S
C24 H35 0.952 . S
C25 C22 1.388 1_655 S
C25 C26 1.382 . S
C25 H50 0.950 . S
C26 N21 1.332 1_655 S
C26 C25 1.382 . S
C26 H36 0.948 . S
N27 Co5 2.282 1_655 S
N27 C31 1.332 . S
N27 C32 1.332 1_655 S
C28 C29 1.388 1_455 S
C28 C32 1.382 . S
C28 H51 0.950 . S
C29 C28 1.388 1_655 S
C29 C30 1.386 . S
C30 C29 1.386 . S
C30 C31 1.382 . S
C30 H52 0.950 . S
C31 N27 1.332 . S
C31 C30 1.382 . S
C31 H33 0.952 . S
C32 N27 1.332 1_455 S
C32 C28 1.382 . S
C32 H34 0.948 . S
H33 C31 0.952 . S
H34 C32 0.948 . S
H35 C24 0.952 . S
H36 C26 0.948 . S
C37 C3 1.395 . S
C37 C7 1.391 . S
C38 C0 1.389 . S
C38 C20 1.392 1_655 S
C39 C10 1.392 1_455 S
C39 C12 1.389 . S
C40 C15 1.395 . S
C40 C17 1.391 . S
H41 C1 0.951 . S
H42 C2 0.950 . S
H43 C8 0.949 . S
H44 C9 0.950 . S
H45 C13 0.951 . S
H46 C14 0.950 . S
H47 C18 0.949 . S
H48 C19 0.950 . S
H49 C23 0.950 . S
H50 C25 0.950 . S
H51 C28 0.950 . S
H52 C30 0.950 . S
C53 C54 1.443 . S
C53 N57 1.376 . S
C53 C91 1.389 1_655 S
C54 C53 1.443 . S
C54 C55 1.340 . S
C54 H94 0.951 . S
C55 C54 1.340 . S
C55 C56 1.439 . S
C55 H95 0.950 . S
C56 C55 1.439 . S
C56 N57 1.374 . S
C56 C90 1.395 . S
N57 C53 1.376 . S
N57 C56 1.374 . S
N57 Co58 2.008 1_655 S
Co58 N57 2.008 1_455 S
Co58 N59 1.995 . S
Co58 N64 2.008 . S
Co58 N69 1.995 . S
Co58 N74 2.282 . S
Co58 N80 2.282 . S
N59 Co58 1.995 . S
N59 C60 1.376 1_455 S
N59 C63 1.383 . S
C60 N59 1.376 1_655 S
C60 C61 1.446 . S
C60 C90 1.391 . S
C61 C60 1.446 . S
C61 C62 1.339 . S
C61 H96 0.949 . S
C62 C61 1.339 . S
C62 C63 1.439 1_655 S
C62 H97 0.950 . S
C63 N59 1.383 . S
C63 C62 1.439 1_455 S
C63 C92 1.392 . S
N64 Co58 2.008 . S
N64 C65 1.376 . S
N64 C68 1.374 . S
C65 N64 1.376 . S
C65 C66 1.443 . S
C65 C92 1.389 . S
C66 C65 1.443 . S
C66 C67 1.340 . S
C66 H98 0.951 . S
C67 C66 1.340 . S
C67 C68 1.439 . S
C67 H99 0.950 . S
C68 N64 1.374 . S
C68 C67 1.439 . S
C68 C93 1.395 . S
N69 Co58 1.995 . S
N69 C70 1.376 . S
N69 C73 1.383 . S
C70 N69 1.376 . S
C70 C71 1.446 . S
C70 C93 1.391 . S
C71 C70 1.446 . S
C71 C72 1.339 . S
C71 H100 0.949 . S
C72 C71 1.339 . S
C72 C73 1.439 . S
C72 H101 0.950 . S
C73 N69 1.383 . S
C73 C72 1.439 . S
C73 C91 1.392 . S
N74 Co58 2.282 . S
N74 C77 1.332 . S
N74 C79 1.332 . S
C75 C76 1.386 . S
C75 C78 1.388 . S
C76 C75 1.386 . S
C76 C77 1.382 . S
C76 H102 0.950 . S
C77 N74 1.332 . S
C77 C76 1.382 . S
C77 H88 0.952 . S
C78 C75 1.388 . S
C78 C79 1.382 . S
C78 H103 0.950 . S
C79 N74 1.332 . S
C79 C78 1.382 . S
C79 H89 0.948 . S
N80 Co58 2.282 . S
N80 C84 1.339 . S
N80 C85 1.332 . S
C81 C82 1.388 . S
C81 C85 1.382 . S
C81 H104 0.950 . S
C82 C81 1.388 . S
C82 C83 1.386 1_455 S
C83 C82 1.386 1_655 S
C83 C84 1.380 1_655 S
C83 H105 0.950 . S
C84 N80 1.339 . S
C84 C83 1.380 1_455 S
C84 H86 0.946 1_455 S
C85 N80 1.332 . S
C85 C81 1.382 . S
C85 H87 0.948 . S
H86 C84 0.946 1_655 S
H87 C85 0.948 . S
H88 C77 0.952 . S
H89 C79 0.948 . S
C90 C56 1.395 . S
C90 C60 1.391 . S
C91 C53 1.389 1_455 S
C91 C73 1.392 . S
C92 C63 1.392 . S
C92 C65 1.389 . S
C93 C68 1.395 . S
C93 C70 1.391 . S
H94 C54 0.951 . S
H95 C55 0.950 . S
H96 C61 0.949 . S
H97 C62 0.950 . S
H98 C66 0.951 . S
H99 C67 0.950 . S
H100 C71 0.949 . S
H101 C72 0.950 . S
H102 C76 0.950 . S
H103 C78 0.950 . S
H104 C81 0.950 . S
H105 C83 0.950 . S
C106 C107 1.443 . S
C106 N110 1.376 . S
C106 C144 1.389 . S
C107 C106 1.443 . S
C107 C108 1.340 . S
C107 H147 0.951 . S
C108 C107 1.340 . S
C108 C109 1.439 . S
C108 H148 0.950 . S
C109 C108 1.439 . S
C109 N110 1.374 . S
C109 C143 1.395 . S
N110 C106 1.376 . S
N110 C109 1.374 . S
N110 Co111 2.008 1_565 S
Co111 N110 2.008 1_545 S
Co111 N112 1.995 1_545 S
Co111 N117 2.008 . S
Co111 N122 1.995 . S
Co111 N127 2.282 . S
Co111 N133 2.283 1_545 S
N112 Co111 1.995 1_565 S
N112 C113 1.376 . S
N112 C116 1.383 . S
C113 N112 1.376 . S
C113 C114 1.446 . S
C113 C143 1.391 . S
C114 C113 1.446 . S
C114 C115 1.339 . S
C114 H149 0.949 . S
C115 C114 1.339 . S
C115 C116 1.439 . S
C115 H150 0.950 . S
C116 N112 1.383 . S
C116 C115 1.439 . S
C116 C145 1.392 1_565 S
N117 Co111 2.008 . S
N117 C118 1.376 . S
N117 C121 1.374 . S
C118 N117 1.376 . S
C118 C119 1.443 . S
C118 C145 1.389 . S
C119 C118 1.443 . S
C119 C120 1.340 . S
C119 H151 0.951 . S
C120 C119 1.340 . S
C120 C121 1.439 . S
C120 H152 0.950 . S
C121 N117 1.374 . S
C121 C120 1.439 . S
C121 C146 1.395 . S
N122 Co111 1.995 . S
N122 C123 1.376 . S
N122 C126 1.383 . S
C123 N122 1.376 . S
C123 C124 1.446 . S
C123 C146 1.391 . S
C124 C123 1.446 . S
C124 C125 1.339 . S
C124 H153 0.949 . S
C125 C124 1.339 . S
C125 C126 1.439 . S
C125 H154 0.950 . S
C126 N122 1.383 . S
C126 C125 1.439 . S
C126 C144 1.392 1_545 S
N127 Co111 2.282 . S
N127 C130 1.332 . S
N127 C132 1.332 1_545 S
C128 C129 1.386 . S
C128 C131 1.388 . S
C129 C128 1.386 . S
C129 C130 1.382 . S
C129 H155 0.950 . S
C130 N127 1.332 . S
C130 C129 1.382 . S
C130 H141 0.952 . S
C131 C128 1.388 . S
C131 C132 1.382 1_545 S
C131 H156 0.950 1_545 S
C132 N127 1.332 1_565 S
C132 C131 1.382 1_565 S
C132 H142 0.948 . S
N133 Co111 2.283 1_565 S
N133 C137 1.328 . S
N133 C138 1.335 1_565 S
C134 C135 1.388 1_545 S
C134 C138 1.382 . S
C134 H157 0.950 . S
C135 C134 1.388 1_565 S
C135 C136 1.386 . S
C136 C135 1.386 . S
C136 C137 1.382 . S
C136 H158 0.950 . S
C137 N133 1.328 . S
C137 C136 1.382 . S
C137 H139 0.952 . S
C138 N133 1.335 1_545 S
C138 C134 1.382 . S
C138 H140 0.948 . S
H139 C137 0.952 . S
H140 C138 0.948 . S
H141 C130 0.952 . S
H142 C132 0.948 . S
C143 C109 1.395 . S
C143 C113 1.391 . S
C144 C106 1.389 . S
C144 C126 1.392 1_565 S
C145 C116 1.392 1_545 S
C145 C118 1.389 . S
C146 C121 1.395 . S
C146 C123 1.391 . S
H147 C107 0.951 . S
H148 C108 0.950 . S
H149 C114 0.949 . S
H150 C115 0.950 . S
H151 C119 0.951 . S
H152 C120 0.950 . S
H153 C124 0.949 . S
H154 C125 0.950 . S
H155 C129 0.950 . S
H156 C131 0.950 1_565 S
H157 C134 0.950 . S
H158 C136 0.950 . S
C159 C160 1.443 . S
C159 N163 1.376 . S
C159 C197 1.389 . S
C160 C159 1.443 . S
C160 C161 1.340 . S
C160 H200 0.951 . S
C161 C160 1.340 . S
C161 C162 1.439 . S
C161 H201 0.950 . S
C162 C161 1.439 . S
C162 N163 1.374 . S
C162 C196 1.395 . S
N163 C159 1.376 . S
N163 C162 1.374 . S
N163 Co164 2.008 . S
Co164 N163 2.008 . S
Co164 N165 1.995 . S
Co164 N170 2.008 . S
Co164 N175 1.995 . S
Co164 N180 2.282 . S
Co164 N186 2.282 . S
N165 Co164 1.995 . S
N165 C166 1.376 . S
N165 C169 1.383 . S
C166 N165 1.376 . S
C166 C167 1.446 . S
C166 C196 1.391 . S
C167 C166 1.446 . S
C167 C168 1.339 . S
C167 H202 0.949 . S
C168 C167 1.339 . S
C168 C169 1.439 . S
C168 H203 0.950 . S
C169 N165 1.383 . S
C169 C168 1.439 . S
C169 C198 1.392 . S
N170 Co164 2.008 . S
N170 C171 1.376 . S
N170 C174 1.374 . S
C171 N170 1.376 . S
C171 C172 1.443 . S
C171 C198 1.389 . S
C172 C171 1.443 . S
C172 C173 1.340 . S
C172 H204 0.951 . S
C173 C172 1.340 . S
C173 C174 1.439 . S
C173 H205 0.950 . S
C174 N170 1.374 . S
C174 C173 1.439 . S
C174 C199 1.395 . S
N175 Co164 1.995 . S
N175 C176 1.376 . S
N175 C179 1.383 . S
C176 N175 1.376 . S
C176 C177 1.446 . S
C176 C199 1.391 . S
C177 C176 1.446 . S
C177 C178 1.339 . S
C177 H206 0.949 . S
C178 C177 1.339 . S
C178 C179 1.439 . S
C178 H207 0.950 . S
C179 N175 1.383 . S
C179 C178 1.439 . S
C179 C197 1.392 . S
N180 Co164 2.282 . S
N180 C183 1.332 . S
N180 C185 1.332 . S
C181 C182 1.386 . S
C181 C184 1.388 . S
C182 C181 1.386 . S
C182 C183 1.382 . S
C182 H208 0.950 . S
C183 N180 1.332 . S
C183 C182 1.382 . S
C183 H194 0.952 . S
C184 C181 1.388 . S
C184 C185 1.382 . S
C184 H209 0.950 . S
C185 N180 1.332 . S
C185 C184 1.382 . S
C185 H195 0.948 . S
N186 Co164 2.282 . S
N186 C190 1.332 . S
N186 C191 1.332 . S
C187 C188 1.388 . S
C187 C191 1.382 . S
C187 H210 0.950 . S
C188 C187 1.388 . S
C188 C189 1.386 . S
C189 C188 1.386 . S
C189 C190 1.382 . S
C189 H211 0.950 . S
C190 N186 1.332 . S
C190 C189 1.382 . S
C190 H192 0.952 . S
C191 N186 1.332 . S
C191 C187 1.382 . S
C191 H193 0.948 . S
H192 C190 0.952 . S
H193 C191 0.948 . S
H194 C183 0.952 . S
H195 C185 0.948 . S
C196 C162 1.395 . S
C196 C166 1.391 . S
C197 C159 1.389 . S
C197 C179 1.392 . S
C198 C169 1.392 . S
C198 C171 1.389 . S
C199 C174 1.395 . S
C199 C176 1.391 . S
H200 C160 0.951 . S
H201 C161 0.950 . S
H202 C167 0.949 . S
H203 C168 0.950 . S
H204 C172 0.951 . S
H205 C173 0.950 . S
H206 C177 0.949 . S
H207 C178 0.950 . S
H208 C182 0.950 . S
H209 C184 0.950 . S
H210 C187 0.950 . S
H211 C189 0.950 . S
C212 C213 1.443 . S
C212 N216 1.376 . S
C212 C250 1.389 1_556 S
C213 C212 1.443 . S
C213 C214 1.340 . S
C213 H253 0.951 . S
C214 C213 1.340 . S
C214 C215 1.439 . S
C214 H254 0.950 . S
C215 C214 1.439 . S
C215 N216 1.374 . S
C215 C249 1.395 . S
N216 C212 1.376 . S
N216 C215 1.374 . S
N216 Co217 2.008 1_556 S
Co217 N216 2.008 1_554 S
Co217 N218 1.995 . S
Co217 N223 2.008 . S
Co217 N228 1.995 . S
Co217 N233 2.282 . S
Co217 N239 2.282 . S
N218 Co217 1.995 . S
N218 C219 1.376 1_554 S
N218 C222 1.383 . S
C219 N218 1.376 1_556 S
C219 C220 1.446 . S
C219 C249 1.391 . S
C220 C219 1.446 . S
C220 C221 1.339 . S
C220 H255 0.949 . S
C221 C220 1.339 . S
C221 C222 1.439 1_556 S
C221 H256 0.950 . S
C222 N218 1.383 . S
C222 C221 1.439 1_554 S
C222 C251 1.392 . S
N223 Co217 2.008 . S
N223 C224 1.376 . S
N223 C227 1.374 . S
C224 N223 1.376 . S
C224 C225 1.443 . S
C224 C251 1.389 . S
C225 C224 1.443 . S
C225 C226 1.340 . S
C225 H257 0.951 . S
C226 C225 1.340 . S
C226 C227 1.439 . S
C226 H258 0.950 . S
C227 N223 1.374 . S
C227 C226 1.439 . S
C227 C252 1.395 . S
N228 Co217 1.995 . S
N228 C229 1.376 . S
N228 C232 1.383 . S
C229 N228 1.376 . S
C229 C230 1.446 . S
C229 C252 1.391 . S
C230 C229 1.446 . S
C230 C231 1.339 . S
C230 H259 0.949 . S
C231 C230 1.339 . S
C231 C232 1.439 . S
C231 H260 0.950 . S
C232 N228 1.383 . S
C232 C231 1.439 . S
C232 C250 1.392 . S
N233 Co217 2.282 . S
N233 C236 1.332 . S
N233 C238 1.332 . S
C234 C235 1.386 . S
C234 C237 1.388 . S
C235 C234 1.386 . S
C235 C236 1.382 . S
C235 H261 0.950 . S
C236 N233 1.332 . S
C236 C235 1.382 . S
C236 H247 0.952 . S
C237 C234 1.388 . S
C237 C238 1.382 . S
C237 H262 0.950 . S
C238 N233 1.332 . S
C238 C237 1.382 . S
C238 H248 0.948 1_554 S
N239 Co217 2.282 . S
N239 C243 1.332 1_554 S
N239 C244 1.332 . S
C240 C241 1.388 . S
C240 C244 1.382 . S
C240 H263 0.950 . S
C241 C240 1.388 . S
C241 C242 1.386 1_554 S
C242 C241 1.386 1_556 S
C242 C243 1.382 . S
C242 H264 0.950 . S
C243 N239 1.332 1_556 S
C243 C242 1.382 . S
C243 H245 0.952 . S
C244 N239 1.332 . S
C244 C240 1.382 . S
C244 H246 0.948 . S
H245 C243 0.952 . S
H246 C244 0.948 . S
H247 C236 0.952 . S
H248 C238 0.948 1_556 S
C249 C215 1.395 . S
C249 C219 1.391 . S
C250 C212 1.389 1_554 S
C250 C232 1.392 . S
C251 C222 1.392 . S
C251 C224 1.389 . S
C252 C227 1.395 . S
C252 C229 1.391 . S
H253 C213 0.951 . S
H254 C214 0.950 . S
H255 C220 0.949 . S
H256 C221 0.950 . S
H257 C225 0.951 . S
H258 C226 0.950 . S
H259 C230 0.949 . S
H260 C231 0.950 . S
H261 C235 0.950 . S
H262 C237 0.950 . S
H263 C240 0.950 . S
H264 C242 0.950 . S
C265 C266 1.443 . S
C265 N269 1.376 . S
C265 C303 1.389 . S
C266 C265 1.443 . S
C266 C267 1.340 . S
C266 H306 0.951 . S
C267 C266 1.340 . S
C267 C268 1.439 . S
C267 H307 0.950 . S
C268 C267 1.439 . S
C268 N269 1.374 . S
C268 C302 1.395 . S
N269 C265 1.376 . S
N269 C268 1.374 . S
N269 Co270 2.008 . S
Co270 N269 2.008 . S
Co270 N271 1.995 . S
Co270 N276 2.008 . S
Co270 N281 1.995 . S
Co270 N286 2.282 . S
Co270 N292 2.282 . S
N271 Co270 1.995 . S
N271 C272 1.376 . S
N271 C275 1.383 . S
C272 N271 1.376 . S
C272 C273 1.446 . S
C272 C302 1.391 . S
C273 C272 1.446 . S
C273 C274 1.339 . S
C273 H308 0.949 . S
C274 C273 1.339 . S
C274 C275 1.439 . S
C274 H309 0.950 . S
C275 N271 1.383 . S
C275 C274 1.439 . S
C275 C304 1.392 . S
N276 Co270 2.008 . S
N276 C277 1.376 . S
N276 C280 1.374 . S
C277 N276 1.376 . S
C277 C278 1.443 . S
C277 C304 1.389 . S
C278 C277 1.443 . S
C278 C279 1.340 . S
C278 H310 0.951 . S
C279 C278 1.340 . S
C279 C280 1.439 . S
C279 H311 0.950 . S
C280 N276 1.374 . S
C280 C279 1.439 . S
C280 C305 1.395 . S
N281 Co270 1.995 . S
N281 C282 1.376 . S
N281 C285 1.383 . S
C282 N281 1.376 . S
C282 C283 1.446 . S
C282 C305 1.391 . S
C283 C282 1.446 . S
C283 C284 1.339 . S
C283 H312 0.949 . S
C284 C283 1.339 . S
C284 C285 1.439 . S
C284 H313 0.950 . S
C285 N281 1.383 . S
C285 C284 1.439 . S
C285 C303 1.392 . S
N286 Co270 2.282 . S
N286 C289 1.332 . S
N286 C291 1.332 . S
C287 C288 1.386 . S
C287 C290 1.388 . S
C288 C287 1.386 . S
C288 C289 1.382 . S
C288 H314 0.950 . S
C289 N286 1.332 . S
C289 C288 1.382 . S
C289 H300 0.952 . S
C290 C287 1.388 . S
C290 C291 1.382 . S
C290 H315 0.950 . S
C291 N286 1.332 . S
C291 C290 1.382 . S
C291 H301 0.948 . S
N292 Co270 2.282 . S
N292 C296 1.332 . S
N292 C297 1.332 . S
C293 C294 1.388 . S
C293 C297 1.382 . S
C293 H316 0.950 . S
C294 C293 1.388 . S
C294 C295 1.386 . S
C295 C294 1.386 . S
C295 C296 1.382 . S
C295 H317 0.950 . S
C296 N292 1.332 . S
C296 C295 1.382 . S
C296 H298 0.952 . S
C297 N292 1.332 . S
C297 C293 1.382 . S
C297 H299 0.948 . S
H298 C296 0.952 . S
H299 C297 0.948 . S
H300 C289 0.952 . S
H301 C291 0.948 . S
C302 C268 1.395 . S
C302 C272 1.391 . S
C303 C265 1.389 . S
C303 C285 1.392 . S
C304 C275 1.392 . S
C304 C277 1.389 . S
C305 C280 1.395 . S
C305 C282 1.391 . S
H306 C266 0.951 . S
H307 C267 0.950 . S
H308 C273 0.949 . S
H309 C274 0.950 . S
H310 C278 0.951 . S
H311 C279 0.950 . S
H312 C283 0.949 . S
H313 C284 0.950 . S
H314 C288 0.950 . S
H315 C290 0.950 . S
H316 C293 0.950 . S
H317 C295 0.950 . S
C318 C319 1.443 . S
C318 N322 1.376 . S
C318 C356 1.389 . S
C319 C318 1.443 . S
C319 C320 1.340 . S
C319 H359 0.951 . S
C320 C319 1.340 . S
C320 C321 1.439 . S
C320 H360 0.950 . S
C321 C320 1.439 . S
C321 N322 1.374 . S
C321 C355 1.395 . S
N322 C318 1.376 . S
N322 C321 1.374 . S
N322 Co323 2.008 . S
Co323 N322 2.008 . S
Co323 N324 1.995 . S
Co323 N329 2.008 . S
Co323 N334 1.995 . S
Co323 N339 2.282 . S
Co323 N345 2.282 . S
N324 Co323 1.995 . S
N324 C325 1.376 . S
N324 C328 1.383 . S
C325 N324 1.376 . S
C325 C326 1.446 . S
C325 C355 1.391 . S
C326 C325 1.446 . S
C326 C327 1.339 . S
C326 H361 0.949 . S
C327 C326 1.339 . S
C327 C328 1.439 . S
C327 H362 0.950 . S
C328 N324 1.383 . S
C328 C327 1.439 . S
C328 C357 1.392 . S
N329 Co323 2.008 . S
N329 C330 1.376 . S
N329 C333 1.374 . S
C330 N329 1.376 . S
C330 C331 1.443 . S
C330 C357 1.389 . S
C331 C330 1.443 . S
C331 C332 1.340 . S
C331 H363 0.951 . S
C332 C331 1.340 . S
C332 C333 1.439 . S
C332 H364 0.950 . S
C333 N329 1.374 . S
C333 C332 1.439 . S
C333 C358 1.395 . S
N334 Co323 1.995 . S
N334 C335 1.376 . S
N334 C338 1.383 . S
C335 N334 1.376 . S
C335 C336 1.446 . S
C335 C358 1.391 . S
C336 C335 1.446 . S
C336 C337 1.339 . S
C336 H365 0.949 . S
C337 C336 1.339 . S
C337 C338 1.439 . S
C337 H366 0.950 . S
C338 N334 1.383 . S
C338 C337 1.439 . S
C338 C356 1.392 . S
N339 Co323 2.282 . S
N339 C342 1.332 . S
N339 C344 1.332 . S
C340 C341 1.386 . S
C340 C343 1.388 . S
C341 C340 1.386 . S
C341 C342 1.382 . S
C341 H367 0.950 . S
C342 N339 1.332 . S
C342 C341 1.382 . S
C342 H353 0.952 . S
C343 C340 1.388 . S
C343 C344 1.382 . S
C343 H368 0.950 . S
C344 N339 1.332 . S
C344 C343 1.382 . S
C344 H354 0.948 . S
N345 Co323 2.282 . S
N345 C349 1.332 . S
N345 C350 1.332 . S
C346 C347 1.388 . S
C346 C350 1.382 . S
C346 H369 0.950 . S
C347 C346 1.388 . S
C347 C348 1.386 . S
C348 C347 1.386 . S
C348 C349 1.382 . S
C348 H370 0.950 . S
C349 N345 1.332 . S
C349 C348 1.382 . S
C349 H351 0.952 . S
C350 N345 1.332 . S
C350 C346 1.382 . S
C350 H352 0.948 . S
H351 C349 0.952 . S
H352 C350 0.948 . S
H353 C342 0.952 . S
H354 C344 0.948 . S
C355 C321 1.395 . S
C355 C325 1.391 . S
C356 C318 1.389 . S
C356 C338 1.392 . S
C357 C328 1.392 . S
C357 C330 1.389 . S
C358 C333 1.395 . S
C358 C335 1.391 . S
H359 C319 0.951 . S
H360 C320 0.950 . S
H361 C326 0.949 . S
H362 C327 0.950 . S
H363 C331 0.951 . S
H364 C332 0.950 . S
H365 C336 0.949 . S
H366 C337 0.950 . S
H367 C341 0.950 . S
H368 C343 0.950 . S
H369 C346 0.950 . S
H370 C348 0.950 . S
C371 C372 1.443 . S
C371 N375 1.376 . S
C371 C409 1.389 . S
C372 C371 1.443 . S
C372 C373 1.340 . S
C372 H412 0.951 . S
C373 C372 1.340 . S
C373 C374 1.439 . S
C373 H413 0.950 . S
C374 C373 1.439 . S
C374 N375 1.374 . S
C374 C408 1.395 . S
N375 C371 1.376 . S
N375 C374 1.374 . S
N375 Co376 2.008 . S
Co376 N375 2.008 . S
Co376 N377 1.995 . S
Co376 N382 2.008 . S
Co376 N387 1.995 . S
Co376 N392 2.282 . S
Co376 N398 2.282 . S
N377 Co376 1.995 . S
N377 C378 1.376 . S
N377 C381 1.383 . S
C378 N377 1.376 . S
C378 C379 1.446 . S
C378 C408 1.391 . S
C379 C378 1.446 . S
C379 C380 1.339 . S
C379 H414 0.949 . S
C380 C379 1.339 . S
C380 C381 1.439 . S
C380 H415 0.950 . S
C381 N377 1.383 . S
C381 C380 1.439 . S
C381 C410 1.392 . S
N382 Co376 2.008 . S
N382 C383 1.376 . S
N382 C386 1.374 . S
C383 N382 1.376 . S
C383 C384 1.443 . S
C383 C410 1.389 . S
C384 C383 1.443 . S
C384 C385 1.340 . S
C384 H416 0.951 . S
C385 C384 1.340 . S
C385 C386 1.439 . S
C385 H417 0.950 . S
C386 N382 1.374 . S
C386 C385 1.439 . S
C386 C411 1.395 . S
N387 Co376 1.995 . S
N387 C388 1.376 . S
N387 C391 1.383 . S
C388 N387 1.376 . S
C388 C389 1.446 . S
C388 C411 1.391 . S
C389 C388 1.446 . S
C389 C390 1.339 . S
C389 H418 0.949 . S
C390 C389 1.339 . S
C390 C391 1.439 . S
C390 H419 0.950 . S
C391 N387 1.383 . S
C391 C390 1.439 . S
C391 C409 1.392 . S
N392 Co376 2.282 . S
N392 C395 1.332 . S
N392 C397 1.332 . S
C393 C394 1.386 . S
C393 C396 1.388 . S
C394 C393 1.386 . S
C394 C395 1.382 . S
C394 H420 0.950 . S
C395 N392 1.332 . S
C395 C394 1.382 . S
C395 H406 0.952 . S
C396 C393 1.388 . S
C396 C397 1.382 . S
C396 H421 0.950 . S
C397 N392 1.332 . S
C397 C396 1.382 . S
C397 H407 0.948 . S
N398 Co376 2.282 . S
N398 C402 1.332 . S
N398 C403 1.332 . S
C399 C400 1.388 . S
C399 C403 1.382 . S
C399 H422 0.950 . S
C400 C399 1.388 . S
C400 C401 1.386 . S
C401 C400 1.386 . S
C401 C402 1.382 . S
C401 H423 0.950 . S
C402 N398 1.332 . S
C402 C401 1.382 . S
C402 H404 0.952 . S
C403 N398 1.332 . S
C403 C399 1.382 . S
C403 H405 0.948 . S
H404 C402 0.952 . S
H405 C403 0.948 . S
H406 C395 0.952 . S
H407 C397 0.948 . S
C408 C374 1.395 . S
C408 C378 1.391 . S
C409 C371 1.389 . S
C409 C391 1.392 . S
C410 C381 1.392 . S
C410 C383 1.389 . S
C411 C386 1.395 . S
C411 C388 1.391 . S
H412 C372 0.951 . S
H413 C373 0.950 . S
H414 C379 0.949 . S
H415 C380 0.950 . S
H416 C384 0.951 . S
H417 C385 0.950 . S
H418 C389 0.949 . S
H419 C390 0.950 . S
H420 C394 0.950 . S
H421 C396 0.950 . S
H422 C399 0.950 . S
H423 C401 0.950 . S
C424 C425 1.443 . S
C424 N428 1.376 . S
C424 C462 1.389 . S
C425 C424 1.443 . S
C425 C426 1.340 . S
C425 H465 0.951 . S
C426 C425 1.340 . S
C426 C427 1.439 . S
C426 H466 0.950 . S
C427 C426 1.439 . S
C427 N428 1.374 . S
C427 C461 1.395 . S
N428 C424 1.376 . S
N428 C427 1.374 . S
N428 Co429 2.008 . S
Co429 N428 2.008 . S
Co429 N430 1.995 . S
Co429 N435 2.008 . S
Co429 N440 1.995 . S
Co429 N445 2.282 . S
Co429 N451 2.282 . S
N430 Co429 1.995 . S
N430 C431 1.376 . S
N430 C434 1.383 . S
C431 N430 1.376 . S
C431 C432 1.446 . S
C431 C461 1.391 . S
C432 C431 1.446 . S
C432 C433 1.339 . S
C432 H467 0.949 . S
C433 C432 1.339 . S
C433 C434 1.439 . S
C433 H468 0.950 . S
C434 N430 1.383 . S
C434 C433 1.439 . S
C434 C463 1.392 . S
N435 Co429 2.008 . S
N435 C436 1.376 . S
N435 C439 1.374 . S
C436 N435 1.376 . S
C436 C437 1.443 . S
C436 C463 1.389 . S
C437 C436 1.443 . S
C437 C438 1.340 . S
C437 H469 0.951 . S
C438 C437 1.340 . S
C438 C439 1.439 . S
C438 H470 0.950 . S
C439 N435 1.374 . S
C439 C438 1.439 . S
C439 C464 1.395 . S
N440 Co429 1.995 . S
N440 C441 1.376 . S
N440 C444 1.383 . S
C441 N440 1.376 . S
C441 C442 1.446 . S
C441 C464 1.391 . S
C442 C441 1.446 . S
C442 C443 1.339 . S
C442 H471 0.949 . S
C443 C442 1.339 . S
C443 C444 1.439 . S
C443 H472 0.950 . S
C444 N440 1.383 . S
C444 C443 1.439 . S
C444 C462 1.392 . S
N445 Co429 2.282 . S
N445 C448 1.332 . S
N445 C450 1.332 . S
C446 C447 1.386 . S
C446 C449 1.388 . S
C447 C446 1.386 . S
C447 C448 1.382 . S
C447 H473 0.950 . S
C448 N445 1.332 . S
C448 C447 1.382 . S
C448 H459 0.952 . S
C449 C446 1.388 . S
C449 C450 1.382 . S
C449 H474 0.950 . S
C450 N445 1.332 . S
C450 C449 1.382 . S
C450 H460 0.948 . S
N451 Co429 2.282 . S
N451 C455 1.332 . S
N451 C456 1.332 . S
C452 C453 1.388 . S
C452 C456 1.382 . S
C452 H475 0.950 . S
C453 C452 1.388 . S
C453 C454 1.386 . S
C454 C453 1.386 . S
C454 C455 1.382 . S
C454 H476 0.950 . S
C455 N451 1.332 . S
C455 C454 1.382 . S
C455 H457 0.952 . S
C456 N451 1.332 . S
C456 C452 1.382 . S
C456 H458 0.948 . S
H457 C455 0.952 . S
H458 C456 0.948 . S
H459 C448 0.952 . S
H460 C450 0.948 . S
C461 C427 1.395 . S
C461 C431 1.391 . S
C462 C424 1.389 . S
C462 C444 1.392 . S
C463 C434 1.392 . S
C463 C436 1.389 . S
C464 C439 1.395 . S
C464 C441 1.391 . S
H465 C425 0.951 . S
H466 C426 0.950 . S
H467 C432 0.949 . S
H468 C433 0.950 . S
H469 C437 0.951 . S
H470 C438 0.950 . S
H471 C442 0.949 . S
H472 C443 0.950 . S
H473 C447 0.950 . S
H474 C449 0.950 . S
H475 C452 0.950 . S
H476 C454 0.950 . S
C477 C478 1.443 . S
C477 N481 1.376 . S
C477 C515 1.389 . S
C478 C477 1.443 . S
C478 C479 1.340 . S
C478 H518 0.951 . S
C479 C478 1.340 . S
C479 C480 1.439 . S
C479 H519 0.950 . S
C480 C479 1.439 . S
C480 N481 1.374 . S
C480 C514 1.395 . S
N481 C477 1.376 . S
N481 C480 1.374 . S
N481 Co482 2.008 . S
Co482 N481 2.008 . S
Co482 N483 1.995 . S
Co482 N488 2.008 . S
Co482 N493 1.995 . S
Co482 N498 2.282 . S
Co482 N504 2.282 . S
N483 Co482 1.995 . S
N483 C484 1.376 . S
N483 C487 1.383 . S
C484 N483 1.376 . S
C484 C485 1.446 . S
C484 C514 1.391 . S
C485 C484 1.446 . S
C485 C486 1.339 . S
C485 H520 0.949 . S
C486 C485 1.339 . S
C486 C487 1.439 . S
C486 H521 0.950 . S
C487 N483 1.383 . S
C487 C486 1.439 . S
C487 C516 1.392 . S
N488 Co482 2.008 . S
N488 C489 1.376 . S
N488 C492 1.374 . S
C489 N488 1.376 . S
C489 C490 1.443 . S
C489 C516 1.389 . S
C490 C489 1.443 . S
C490 C491 1.340 . S
C490 H522 0.951 . S
C491 C490 1.340 . S
C491 C492 1.439 . S
C491 H523 0.950 . S
C492 N488 1.374 . S
C492 C491 1.439 . S
C492 C517 1.395 . S
N493 Co482 1.995 . S
N493 C494 1.376 . S
N493 C497 1.383 . S
C494 N493 1.376 . S
C494 C495 1.446 . S
C494 C517 1.391 . S
C495 C494 1.446 . S
C495 C496 1.339 . S
C495 H524 0.949 . S
C496 C495 1.339 . S
C496 C497 1.439 . S
C496 H525 0.950 . S
C497 N493 1.383 . S
C497 C496 1.439 . S
C497 C515 1.392 . S
N498 Co482 2.282 . S
N498 C501 1.332 . S
N498 C503 1.332 . S
C499 C500 1.386 . S
C499 C502 1.388 . S
C500 C499 1.386 . S
C500 C501 1.382 . S
C500 H526 0.950 . S
C501 N498 1.332 . S
C501 C500 1.382 . S
C501 H512 0.952 . S
C502 C499 1.388 . S
C502 C503 1.382 . S
C502 H527 0.950 . S
C503 N498 1.332 . S
C503 C502 1.382 . S
C503 H513 0.948 . S
N504 Co482 2.282 . S
N504 C508 1.332 . S
N504 C509 1.332 . S
C505 C506 1.388 . S
C505 C509 1.382 . S
C505 H528 0.950 . S
C506 C505 1.388 . S
C506 C507 1.386 . S
C507 C506 1.386 . S
C507 C508 1.382 . S
C507 H529 0.950 . S
C508 N504 1.332 . S
C508 C507 1.382 . S
C508 H510 0.952 . S
C509 N504 1.332 . S
C509 C505 1.382 . S
C509 H511 0.948 . S
H510 C508 0.952 . S
H511 C509 0.948 . S
H512 C501 0.952 . S
H513 C503 0.948 . S
C514 C480 1.395 . S
C514 C484 1.391 . S
C515 C477 1.389 . S
C515 C497 1.392 . S
C516 C487 1.392 . S
C516 C489 1.389 . S
C517 C492 1.395 . S
C517 C494 1.391 . S
H518 C478 0.951 . S
H519 C479 0.950 . S
H520 C485 0.949 . S
H521 C486 0.950 . S
H522 C490 0.951 . S
H523 C491 0.950 . S
H524 C495 0.949 . S
H525 C496 0.950 . S
H526 C500 0.950 . S
H527 C502 0.950 . S
H528 C505 0.950 . S
H529 C507 0.950 . S
C530 C531 1.443 . S
C530 N534 1.376 . S
C530 C568 1.389 . S
C531 C530 1.443 . S
C531 C532 1.340 . S
C531 H571 0.951 . S
C532 C531 1.340 . S
C532 C533 1.439 . S
C532 H572 0.950 . S
C533 C532 1.439 . S
C533 N534 1.374 . S
C533 C567 1.395 . S
N534 C530 1.376 . S
N534 C533 1.374 . S
N534 Co535 2.008 . S
Co535 N534 2.008 . S
Co535 N536 1.995 . S
Co535 N541 2.008 1_545 S
Co535 N546 1.995 1_545 S
Co535 N551 2.282 . S
Co535 N557 2.282 . S
N536 Co535 1.995 . S
N536 C537 1.376 . S
N536 C540 1.383 . S
C537 N536 1.376 . S
C537 C538 1.446 . S
C537 C567 1.391 . S
C538 C537 1.446 . S
C538 C539 1.339 . S
C538 H573 0.949 . S
C539 C538 1.339 . S
C539 C540 1.439 . S
C539 H574 0.950 . S
C540 N536 1.383 . S
C540 C539 1.439 . S
C540 C569 1.392 . S
N541 Co535 2.008 1_565 S
N541 C542 1.376 . S
N541 C545 1.374 . S
C542 N541 1.376 . S
C542 C543 1.443 . S
C542 C569 1.389 1_565 S
C543 C542 1.443 . S
C543 C544 1.340 . S
C543 H575 0.951 . S
C544 C543 1.340 . S
C544 C545 1.439 . S
C544 H576 0.950 . S
C545 N541 1.374 . S
C545 C544 1.439 . S
C545 C570 1.395 . S
N546 Co535 1.995 1_565 S
N546 C547 1.376 . S
N546 C550 1.383 1_565 S
C547 N546 1.376 . S
C547 C548 1.446 . S
C547 C570 1.391 . S
C548 C547 1.446 . S
C548 C549 1.339 . S
C548 H577 0.949 . S
C549 C548 1.339 . S
C549 C550 1.439 1_565 S
C549 H578 0.950 . S
C550 N546 1.383 1_545 S
C550 C549 1.439 1_545 S
C550 C568 1.392 . S
N551 Co535 2.282 . S
N551 C554 1.332 1_545 S
N551 C556 1.332 . S
C552 C553 1.386 . S
C552 C555 1.388 1_565 S
C553 C552 1.386 . S
C553 C554 1.382 . S
C553 H579 0.950 . S
C554 N551 1.332 1_565 S
C554 C553 1.382 . S
C554 H565 0.952 . S
C555 C552 1.388 1_545 S
C555 C556 1.382 . S
C555 H580 0.950 . S
C556 N551 1.332 . S
C556 C555 1.382 . S
C556 H566 0.948 . S
N557 Co535 2.282 . S
N557 C561 1.332 . S
N557 C562 1.332 . S
C558 C559 1.388 . S
C558 C562 1.382 . S
C558 H581 0.954 1_545 S
C559 C558 1.388 . S
C559 C560 1.386 . S
C560 C559 1.386 . S
C560 C561 1.382 . S
C560 H582 0.950 . S
C561 N557 1.332 . S
C561 C560 1.382 . S
C561 H563 0.952 . S
C562 N557 1.332 . S
C562 C558 1.382 . S
C562 H564 0.948 1_545 S
H563 C561 0.952 . S
H564 C562 0.948 1_565 S
H565 C554 0.952 . S
H566 C556 0.948 . S
C567 C533 1.395 . S
C567 C537 1.391 . S
C568 C530 1.389 . S
C568 C550 1.392 . S
C569 C540 1.392 . S
C569 C542 1.389 1_545 S
C570 C545 1.395 . S
C570 C547 1.391 . S
H571 C531 0.951 . S
H572 C532 0.950 . S
H573 C538 0.949 . S
H574 C539 0.950 . S
H575 C543 0.951 . S
H576 C544 0.950 . S
H577 C548 0.949 . S
H578 C549 0.950 . S
H579 C553 0.950 . S
H580 C555 0.950 . S
H581 C558 0.954 1_565 S
H582 C560 0.950 . S
C583 C584 1.443 . S
C583 N587 1.376 . S
C583 C621 1.389 . S
C584 C583 1.443 . S
C584 C585 1.340 . S
C584 H624 0.951 . S
C585 C584 1.340 . S
C585 C586 1.439 . S
C585 H625 0.950 . S
C586 C585 1.439 . S
C586 N587 1.374 . S
C586 C620 1.395 . S
N587 C583 1.376 . S
N587 C586 1.374 . S
N587 Co588 2.008 1_556 S
Co588 N587 2.008 1_554 S
Co588 N589 1.995 1_554 S
Co588 N594 2.008 . S
Co588 N599 1.995 . S
Co588 N604 2.282 . S
Co588 N610 2.282 1_554 S
N589 Co588 1.995 1_556 S
N589 C590 1.376 . S
N589 C593 1.383 . S
C590 N589 1.376 . S
C590 C591 1.446 . S
C590 C620 1.391 . S
C591 C590 1.446 . S
C591 C592 1.339 . S
C591 H626 0.949 . S
C592 C591 1.339 . S
C592 C593 1.439 . S
C592 H627 0.950 . S
C593 N589 1.383 . S
C593 C592 1.439 . S
C593 C622 1.392 1_556 S
N594 Co588 2.008 . S
N594 C595 1.376 . S
N594 C598 1.374 . S
C595 N594 1.376 . S
C595 C596 1.443 . S
C595 C622 1.389 . S
C596 C595 1.443 . S
C596 C597 1.340 . S
C596 H628 0.951 . S
C597 C596 1.340 . S
C597 C598 1.439 . S
C597 H629 0.950 . S
C598 N594 1.374 . S
C598 C597 1.439 . S
C598 C623 1.395 . S
N599 Co588 1.995 . S
N599 C600 1.376 . S
N599 C603 1.383 . S
C600 N599 1.376 . S
C600 C601 1.446 . S
C600 C623 1.391 . S
C601 C600 1.446 . S
C601 C602 1.339 . S
C601 H630 0.949 . S
C602 C601 1.339 . S
C602 C603 1.439 . S
C602 H631 0.950 . S
C603 N599 1.383 . S
C603 C602 1.439 . S
C603 C621 1.392 1_554 S
N604 Co588 2.282 . S
N604 C607 1.332 . S
N604 C609 1.332 1_554 S
C605 C606 1.386 . S
C605 C608 1.388 1_554 S
C606 C605 1.386 . S
C606 C607 1.382 . S
C606 H632 0.950 . S
C607 N604 1.332 . S
C607 C606 1.382 . S
C607 H618 0.952 . S
C608 C605 1.388 1_556 S
C608 C609 1.382 . S
C608 H633 0.950 . S
C609 N604 1.332 1_556 S
C609 C608 1.382 . S
C609 H619 0.948 . S
N610 Co588 2.282 1_556 S
N610 C614 1.332 . S
N610 C615 1.332 1_556 S
C611 C612 1.388 1_554 S
C611 C615 1.382 . S
C611 H634 0.950 . S
C612 C611 1.388 1_556 S
C612 C613 1.386 . S
C613 C612 1.386 . S
C613 C614 1.382 . S
C613 H635 0.950 . S
C614 N610 1.332 . S
C614 C613 1.382 . S
C614 H616 0.952 . S
C615 N610 1.332 1_554 S
C615 C611 1.382 . S
C615 H617 0.948 . S
H616 C614 0.952 . S
H617 C615 0.948 . S
H618 C607 0.952 . S
H619 C609 0.948 . S
C620 C586 1.395 . S
C620 C590 1.391 . S
C621 C583 1.389 . S
C621 C603 1.392 1_556 S
C622 C593 1.392 1_554 S
C622 C595 1.389 . S
C623 C598 1.395 . S
C623 C600 1.391 . S
H624 C584 0.951 . S
H625 C585 0.950 . S
H626 C591 0.949 . S
H627 C592 0.950 . S
H628 C596 0.951 . S
H629 C597 0.950 . S
H630 C601 0.949 . S
H631 C602 0.950 . S
H632 C606 0.950 . S
H633 C608 0.950 . S
H634 C611 0.950 . S
H635 C613 0.950 . S
O636 Zn637 1.953 . S
O636 C652 1.225 . S
Zn637 O636 1.953 . S
Zn637 O638 1.949 . S
Zn637 O644 1.919 . S
Zn637 O649 1.924 . S
O638 Zn637 1.949 . S
O638 Zn639 1.923 . S
O638 Zn640 1.950 . S
O638 Zn641 1.945 . S
Zn639 O638 1.923 . S
Zn639 O642 1.933 . S
Zn639 O645 1.941 . S
Zn639 O646 1.965 . S
Zn640 O638 1.950 . S
Zn640 O647 1.938 . S
Zn640 O648 1.906 . S
Zn640 O658 1.953 . S
Zn641 O638 1.945 . S
Zn641 O643 1.932 . S
Zn641 O650 1.977 . S
Zn641 O651 1.910 . S
O642 Zn639 1.933 . S
O642 C653 1.226 . S
O643 Zn641 1.932 . S
O643 C653 1.307 . S
O644 Zn637 1.919 . S
O644 C655 1.253 . S
O645 Zn639 1.941 . S
O645 C655 1.283 . S
O646 Zn639 1.965 . S
O646 C654 1.303 . S
O647 Zn640 1.938 . S
O647 C654 1.247 . S
O648 Zn640 1.906 . S
O648 C656 1.304 . S
O649 Zn637 1.924 . S
O649 C657 1.311 . S
O650 Zn641 1.977 . S
O650 C656 1.272 . S
O651 Zn641 1.910 . S
O651 C657 1.231 . S
C652 O636 1.225 . S
C652 O658 1.298 . S
C653 O642 1.226 . S
C653 O643 1.307 . S
C654 O646 1.303 . S
C654 O647 1.247 . S
C655 O644 1.253 . S
C655 O645 1.283 . S
C656 O648 1.304 . S
C656 O650 1.272 . S
C657 O649 1.311 . S
C657 O651 1.231 . S
O658 Zn640 1.953 . S
O658 C652 1.298 . S
O659 Zn660 1.953 . S
O659 C675 1.225 . S
Zn660 O659 1.953 . S
Zn660 O661 1.949 . S
Zn660 O667 1.919 . S
Zn660 O672 1.924 . S
O661 Zn660 1.949 . S
O661 Zn662 1.923 . S
O661 Zn663 1.950 . S
O661 Zn664 1.945 . S
Zn662 O661 1.923 . S
Zn662 O665 1.933 . S
Zn662 O668 1.941 . S
Zn662 O669 1.965 . S
Zn663 O661 1.950 . S
Zn663 O670 1.938 . S
Zn663 O671 1.906 . S
Zn663 O681 1.953 . S
Zn664 O661 1.945 . S
Zn664 O666 1.966 . S
Zn664 O673 1.977 . S
Zn664 O674 1.910 . S
O665 Zn662 1.933 . S
O665 C676 1.226 1_655 S
O666 Zn664 1.966 . S
O666 C676 1.299 1_655 S
O667 Zn660 1.919 . S
O667 C678 1.253 . S
O668 Zn662 1.941 . S
O668 C678 1.283 . S
O669 Zn662 1.965 . S
O669 C677 1.303 . S
O670 Zn663 1.938 . S
O670 C677 1.247 . S
O671 Zn663 1.906 . S
O671 C679 1.322 . S
O672 Zn660 1.924 . S
O672 C680 1.311 . S
O673 Zn664 1.977 . S
O673 C679 1.296 . S
O674 Zn664 1.910 . S
O674 C680 1.231 . S
C675 O659 1.225 . S
C675 O681 1.298 . S
C676 O665 1.226 1_455 S
C676 O666 1.299 1_455 S
C677 O669 1.303 . S
C677 O670 1.247 . S
C678 O667 1.253 . S
C678 O668 1.283 . S
C679 O671 1.322 . S
C679 O673 1.296 . S
C680 O672 1.311 . S
C680 O674 1.231 . S
O681 Zn663 1.953 . S
O681 C675 1.298 . S
O682 Zn683 1.953 . S
O682 C698 1.225 . S
Zn683 O682 1.953 . S
Zn683 O684 1.949 . S
Zn683 O690 1.919 . S
Zn683 O695 1.924 . S
O684 Zn683 1.949 . S
O684 Zn685 1.923 . S
O684 Zn686 1.950 . S
O684 Zn687 1.945 . S
Zn685 O684 1.923 . S
Zn685 O688 1.933 . S
Zn685 O691 1.941 . S
Zn685 O692 1.965 . S
Zn686 O684 1.950 . S
Zn686 O693 1.938 . S
Zn686 O694 1.906 . S
Zn686 O704 1.953 . S
Zn687 O684 1.945 . S
Zn687 O689 1.932 . S
Zn687 O696 1.977 . S
Zn687 O697 1.910 . S
O688 Zn685 1.933 . S
O688 C699 1.226 . S
O689 Zn687 1.932 . S
O689 C699 1.307 . S
O690 Zn683 1.919 . S
O690 C701 1.253 . S
O691 Zn685 1.941 . S
O691 C701 1.283 . S
O692 Zn685 1.965 . S
O692 C700 1.303 . S
O693 Zn686 1.938 . S
O693 C700 1.247 . S
O694 Zn686 1.906 . S
O694 C702 1.304 . S
O695 Zn683 1.924 . S
O695 C703 1.311 . S
O696 Zn687 1.977 . S
O696 C702 1.272 . S
O697 Zn687 1.910 . S
O697 C703 1.231 . S
C698 O682 1.225 . S
C698 O704 1.298 . S
C699 O688 1.226 . S
C699 O689 1.307 . S
C700 O692 1.303 . S
C700 O693 1.247 . S
C701 O690 1.253 . S
C701 O691 1.283 . S
C702 O694 1.304 . S
C702 O696 1.272 . S
C703 O695 1.311 . S
C703 O697 1.231 . S
O704 Zn686 1.953 . S
O704 C698 1.298 . S
O705 Zn706 1.953 . S
O705 C721 1.225 . S
Zn706 O705 1.953 . S
Zn706 O707 1.949 . S
Zn706 O713 1.919 . S
Zn706 O718 1.924 . S
O707 Zn706 1.949 . S
O707 Zn708 1.923 . S
O707 Zn709 1.950 . S
O707 Zn710 1.945 . S
Zn708 O707 1.923 . S
Zn708 O711 1.933 . S
Zn708 O714 1.941 . S
Zn708 O715 1.965 . S
Zn709 O707 1.950 . S
Zn709 O716 1.938 . S
Zn709 O717 1.906 . S
Zn709 O727 1.953 . S
Zn710 O707 1.945 . S
Zn710 O712 1.932 . S
Zn710 O719 1.977 . S
Zn710 O720 1.910 . S
O711 Zn708 1.933 . S
O711 C722 1.226 . S
O712 Zn710 1.932 . S
O712 C722 1.307 . S
O713 Zn706 1.919 . S
O713 C724 1.253 . S
O714 Zn708 1.941 . S
O714 C724 1.283 . S
O715 Zn708 1.965 . S
O715 C723 1.303 . S
O716 Zn709 1.938 . S
O716 C723 1.247 . S
O717 Zn709 1.906 . S
O717 C725 1.304 . S
O718 Zn706 1.924 . S
O718 C726 1.311 1_655 S
O719 Zn710 1.977 . S
O719 C725 1.272 . S
O720 Zn710 1.910 . S
O720 C726 1.231 1_655 S
C721 O705 1.225 . S
C721 O727 1.298 . S
C722 O711 1.226 . S
C722 O712 1.307 . S
C723 O715 1.303 . S
C723 O716 1.247 . S
C724 O713 1.253 . S
C724 O714 1.283 . S
C725 O717 1.304 . S
C725 O719 1.272 . S
C726 O718 1.311 1_455 S
C726 O720 1.231 1_455 S
O727 Zn709 1.953 . S
O727 C721 1.298 . S
O728 Zn729 1.953 . S
O728 C744 1.225 . S
Zn729 O728 1.953 . S
Zn729 O730 1.949 . S
Zn729 O736 1.919 . S
Zn729 O741 1.924 . S
O730 Zn729 1.949 . S
O730 Zn731 1.923 . S
O730 Zn732 1.950 . S
O730 Zn733 1.945 . S
Zn731 O730 1.923 . S
Zn731 O734 1.933 . S
Zn731 O737 1.941 . S
Zn731 O738 1.965 . S
Zn732 O730 1.950 . S
Zn732 O739 1.938 . S
Zn732 O740 1.906 . S
Zn732 O750 1.953 . S
Zn733 O730 1.945 . S
Zn733 O735 1.932 . S
Zn733 O742 1.977 . S
Zn733 O743 1.910 . S
O734 Zn731 1.933 . S
O734 C745 1.226 . S
O735 Zn733 1.932 . S
O735 C745 1.307 . S
O736 Zn729 1.919 . S
O736 C747 1.253 . S
O737 Zn731 1.941 . S
O737 C747 1.283 . S
O738 Zn731 1.965 . S
O738 C746 1.303 . S
O739 Zn732 1.938 . S
O739 C746 1.247 . S
O740 Zn732 1.906 . S
O740 C748 1.304 . S
O741 Zn729 1.924 . S
O741 C749 1.311 . S
O742 Zn733 1.977 . S
O742 C748 1.272 . S
O743 Zn733 1.910 . S
O743 C749 1.231 . S
C744 O728 1.225 . S
C744 O750 1.298 . S
C745 O734 1.226 . S
C745 O735 1.307 . S
C746 O738 1.303 . S
C746 O739 1.247 . S
C747 O736 1.253 . S
C747 O737 1.283 . S
C748 O740 1.304 . S
C748 O742 1.272 . S
C749 O741 1.311 . S
C749 O743 1.231 . S
O750 Zn732 1.953 . S
O750 C744 1.298 . S
O751 Zn752 1.953 . S
O751 C767 1.225 . S
Zn752 O751 1.953 . S
Zn752 O753 1.949 . S
Zn752 O759 1.919 . S
Zn752 O764 1.924 . S
O753 Zn752 1.949 . S
O753 Zn754 1.923 . S
O753 Zn755 1.950 . S
O753 Zn756 1.945 . S
Zn754 O753 1.923 . S
Zn754 O757 1.933 . S
Zn754 O760 1.941 . S
Zn754 O761 1.965 . S
Zn755 O753 1.950 . S
Zn755 O762 1.938 . S
Zn755 O763 1.906 . S
Zn755 O773 1.953 . S
Zn756 O753 1.945 . S
Zn756 O758 1.932 . S
Zn756 O765 1.977 . S
Zn756 O766 1.910 . S
O757 Zn754 1.933 . S
O757 C768 1.226 . S
O758 Zn756 1.932 . S
O758 C768 1.307 . S
O759 Zn752 1.919 . S
O759 C770 1.253 . S
O760 Zn754 1.941 . S
O760 C770 1.283 . S
O761 Zn754 1.965 . S
O761 C769 1.303 . S
O762 Zn755 1.938 . S
O762 C769 1.247 . S
O763 Zn755 1.906 . S
O763 C771 1.304 . S
O764 Zn752 1.924 . S
O764 C772 1.311 . S
O765 Zn756 1.977 . S
O765 C771 1.272 . S
O766 Zn756 1.910 . S
O766 C772 1.231 . S
C767 O751 1.225 . S
C767 O773 1.298 . S
C768 O757 1.226 . S
C768 O758 1.307 . S
C769 O761 1.303 . S
C769 O762 1.247 . S
C770 O759 1.253 . S
C770 O760 1.283 . S
C771 O763 1.304 . S
C771 O765 1.272 . S
C772 O764 1.311 . S
C772 O766 1.231 . S
O773 Zn755 1.953 . S
O773 C767 1.298 . S
O774 Zn775 1.953 . S
O774 C790 1.225 . S
Zn775 O774 1.953 . S
Zn775 O776 1.949 . S
Zn775 O782 1.919 . S
Zn775 O787 1.924 . S
O776 Zn775 1.949 . S
O776 Zn777 1.923 . S
O776 Zn778 1.950 . S
O776 Zn779 1.945 . S
Zn777 O776 1.923 . S
Zn777 O780 1.933 . S
Zn777 O783 1.941 . S
Zn777 O784 1.965 . S
Zn778 O776 1.950 . S
Zn778 O785 1.938 . S
Zn778 O786 1.906 . S
Zn778 O796 1.953 . S
Zn779 O776 1.945 . S
Zn779 O781 1.932 . S
Zn779 O788 1.977 . S
Zn779 O789 1.910 1_556 S
O780 Zn777 1.933 . S
O780 C791 1.226 . S
O781 Zn779 1.932 . S
O781 C791 1.307 . S
O782 Zn775 1.919 . S
O782 C793 1.253 . S
O783 Zn777 1.941 . S
O783 C793 1.283 . S
O784 Zn777 1.965 . S
O784 C792 1.303 . S
O785 Zn778 1.938 . S
O785 C792 1.247 . S
O786 Zn778 1.906 . S
O786 C794 1.304 . S
O787 Zn775 1.924 . S
O787 C795 1.311 1_556 S
O788 Zn779 1.977 . S
O788 C794 1.272 . S
O789 Zn779 1.910 1_554 S
O789 C795 1.231 . S
C790 O774 1.225 . S
C790 O796 1.298 . S
C791 O780 1.226 . S
C791 O781 1.307 . S
C792 O784 1.303 . S
C792 O785 1.247 . S
C793 O782 1.253 . S
C793 O783 1.283 . S
C794 O786 1.304 . S
C794 O788 1.272 . S
C795 O787 1.311 1_554 S
C795 O789 1.231 . S
O796 Zn778 1.953 . S
O796 C790 1.298 . S
O797 Zn798 1.953 . S
O797 C813 1.225 . S
Zn798 O797 1.953 . S
Zn798 O799 1.949 . S
Zn798 O805 1.919 . S
Zn798 O810 1.924 . S
O799 Zn798 1.949 . S
O799 Zn800 1.923 . S
O799 Zn801 1.950 . S
O799 Zn802 1.945 . S
Zn800 O799 1.923 . S
Zn800 O803 1.933 . S
Zn800 O806 1.941 . S
Zn800 O807 1.965 . S
Zn801 O799 1.950 . S
Zn801 O808 1.938 . S
Zn801 O809 1.906 . S
Zn801 O819 1.953 . S
Zn802 O799 1.945 . S
Zn802 O804 1.932 . S
Zn802 O811 1.977 . S
Zn802 O812 1.910 . S
O803 Zn800 1.933 . S
O803 C814 1.226 . S
O804 Zn802 1.932 . S
O804 C814 1.307 . S
O805 Zn798 1.919 . S
O805 C816 1.253 . S
O806 Zn800 1.941 . S
O806 C816 1.283 . S
O807 Zn800 1.965 . S
O807 C815 1.303 . S
O808 Zn801 1.938 . S
O808 C815 1.247 . S
O809 Zn801 1.906 . S
O809 C817 1.304 . S
O810 Zn798 1.924 . S
O810 C818 1.311 . S
O811 Zn802 1.977 . S
O811 C817 1.272 . S
O812 Zn802 1.910 . S
O812 C818 1.231 . S
C813 O797 1.225 . S
C813 O819 1.298 . S
C814 O803 1.226 . S
C814 O804 1.307 . S
C815 O807 1.303 . S
C815 O808 1.247 . S
C816 O805 1.253 . S
C816 O806 1.283 . S
C817 O809 1.304 . S
C817 O811 1.272 . S
C818 O810 1.311 . S
C818 O812 1.231 . S
O819 Zn801 1.953 . S
O819 C813 1.298 . S
H820 C828 0.929 . S
H821 C830 0.930 . S
H822 C832 0.930 1_655 S
H823 C835 0.929 1_655 S
H824 C838 0.930 . S
H825 C840 0.960 . S
H826 C840 0.960 . S
H827 C840 0.960 . S
C828 H820 0.929 . S
C828 C829 1.377 . S
C828 C830 1.384 . S
C829 C828 1.377 . S
C829 C835 1.390 . S
C830 H821 0.930 . S
C830 C828 1.384 . S
C830 C831 1.372 . S
C831 C830 1.372 . S
C831 C832 1.400 . S
C831 C836 1.490 . S
C832 H822 0.930 1_455 S
C832 C831 1.400 . S
C832 C835 1.386 . S
H833 C849 0.955 . S
H834 C850 0.917 1_655 S
C835 H823 0.929 1_455 S
C835 C829 1.390 . S
C835 C832 1.386 . S
C836 C831 1.490 . S
C836 C838 1.395 . S
C836 C839 1.403 . S
H837 C843 0.930 . S
C838 H824 0.930 . S
C838 C836 1.395 . S
C838 C841 1.403 . S
C839 C836 1.403 . S
C839 C840 1.524 . S
C839 C843 1.400 . S
C840 H825 0.960 . S
C840 H826 0.960 . S
C840 H827 0.960 . S
C840 C839 1.524 . S
C841 C838 1.403 . S
C841 C842 1.392 . S
C841 C845 1.495 . S
C842 C841 1.392 . S
C842 C843 1.385 . S
C842 C844 1.478 . S
C843 H837 0.930 . S
C843 C839 1.400 . S
C843 C842 1.385 . S
C844 C842 1.478 . S
C844 C846 1.381 . S
C844 C850 1.383 . S
C845 C841 1.495 . S
C845 H851 0.959 . S
C845 H852 0.961 . S
C845 H853 0.960 . S
C846 C844 1.381 . S
C846 C847 1.394 . S
C846 H854 0.930 . S
C847 C846 1.394 . S
C847 C848 1.383 . S
C847 H855 0.929 . S
C848 C847 1.383 . S
C848 C849 1.377 . S
C849 H833 0.955 . S
C849 C848 1.377 . S
C849 C850 1.379 . S
C850 H834 0.917 1_455 S
C850 C844 1.383 . S
C850 C849 1.379 . S
H851 C845 0.959 . S
H852 C845 0.961 . S
H853 C845 0.960 . S
H854 C846 0.930 . S
H855 C847 0.929 . S
H856 C864 0.976 . S
H857 C866 0.932 1_455 S
H858 C868 0.930 . S
H859 C871 0.929 . S
H860 C874 0.930 . S
H861 C876 0.960 . S
H862 C876 0.960 . S
H863 C876 0.960 . S
C864 H856 0.976 . S
C864 C865 1.338 1_455 S
C864 C866 1.379 1_455 S
C865 C864 1.338 1_655 S
C865 C871 1.390 . S
C866 H857 0.932 1_655 S
C866 C864 1.379 1_655 S
C866 C867 1.370 . S
C867 C866 1.370 . S
C867 C868 1.400 . S
C867 C872 1.490 . S
C868 H858 0.930 . S
C868 C867 1.400 . S
C868 C871 1.386 . S
H869 C885 0.930 . S
H870 C886 0.931 . S
C871 H859 0.929 . S
C871 C865 1.390 . S
C871 C868 1.386 . S
C872 C867 1.490 . S
C872 C874 1.395 . S
C872 C875 1.403 . S
H873 C879 0.930 . S
C874 H860 0.930 . S
C874 C872 1.395 . S
C874 C877 1.403 . S
C875 C872 1.403 . S
C875 C876 1.524 . S
C875 C879 1.400 . S
C876 H861 0.960 . S
C876 H862 0.960 . S
C876 H863 0.960 . S
C876 C875 1.524 . S
C877 C874 1.403 . S
C877 C878 1.392 . S
C877 C881 1.495 . S
C878 C877 1.392 . S
C878 C879 1.385 . S
C878 C880 1.478 . S
C879 H873 0.930 . S
C879 C875 1.400 . S
C879 C878 1.385 . S
C880 C878 1.478 . S
C880 C882 1.381 . S
C880 C886 1.383 . S
C881 C877 1.495 . S
C881 H887 0.959 . S
C881 H888 0.961 . S
C881 H889 0.960 . S
C882 C880 1.381 . S
C882 C883 1.394 . S
C882 H890 0.930 1_655 S
C883 C882 1.394 . S
C883 C884 1.383 . S
C883 H891 0.929 1_655 S
C884 C883 1.383 . S
C884 C885 1.377 . S
C885 H869 0.930 . S
C885 C884 1.377 . S
C885 C886 1.379 . S
C886 H870 0.931 . S
C886 C880 1.383 . S
C886 C885 1.379 . S
H887 C881 0.959 . S
H888 C881 0.961 . S
H889 C881 0.960 . S
H890 C882 0.930 1_455 S
H891 C883 0.929 1_455 S
H892 C900 0.929 . S
H893 C902 0.930 . S
H894 C904 0.930 . S
H895 C907 0.929 . S
H896 C910 0.930 . S
H897 C912 0.960 . S
H898 C912 0.960 . S
H899 C912 0.960 . S
C900 H892 0.929 . S
C900 C901 1.377 . S
C900 C902 1.384 . S
C901 C900 1.377 . S
C901 C907 1.390 . S
C902 H893 0.930 . S
C902 C900 1.384 . S
C902 C903 1.372 . S
C903 C902 1.372 . S
C903 C904 1.400 . S
C903 C908 1.490 . S
C904 H894 0.930 . S
C904 C903 1.400 . S
C904 C907 1.386 . S
H905 C921 0.930 . S
H906 C922 0.931 . S
C907 H895 0.929 . S
C907 C901 1.390 . S
C907 C904 1.386 . S
C908 C903 1.490 . S
C908 C910 1.395 . S
C908 C911 1.403 . S
H909 C915 0.930 . S
C910 H896 0.930 . S
C910 C908 1.395 . S
C910 C913 1.403 . S
C911 C908 1.403 . S
C911 C912 1.524 . S
C911 C915 1.400 . S
C912 H897 0.960 . S
C912 H898 0.960 . S
C912 H899 0.960 . S
C912 C911 1.524 . S
C913 C910 1.403 . S
C913 C914 1.392 . S
C913 C917 1.495 . S
C914 C913 1.392 . S
C914 C915 1.385 . S
C914 C916 1.478 . S
C915 H909 0.930 . S
C915 C911 1.400 . S
C915 C914 1.385 . S
C916 C914 1.478 . S
C916 C918 1.381 . S
C916 C922 1.383 . S
C917 C913 1.495 . S
C917 H923 0.959 . S
C917 H924 0.961 . S
C917 H925 0.960 . S
C918 C916 1.381 . S
C918 C919 1.394 . S
C918 H926 0.930 . S
C919 C918 1.394 . S
C919 C920 1.383 . S
C919 H927 0.929 . S
C920 C919 1.383 . S
C920 C921 1.377 . S
C921 H905 0.930 . S
C921 C920 1.377 . S
C921 C922 1.379 . S
C922 H906 0.931 . S
C922 C916 1.383 . S
C922 C921 1.379 . S
H923 C917 0.959 . S
H924 C917 0.961 . S
H925 C917 0.960 . S
H926 C918 0.930 . S
H927 C919 0.929 . S
H928 C936 0.929 . S
H929 C938 0.930 . S
H930 C940 0.930 . S
H931 C943 0.929 . S
H932 C946 0.930 . S
H933 C948 0.960 . S
H934 C948 0.960 . S
H935 C948 0.960 . S
C936 H928 0.929 . S
C936 C937 1.377 1_655 S
C936 C938 1.384 . S
C937 C936 1.377 1_455 S
C937 C943 1.390 . S
C938 H929 0.930 . S
C938 C936 1.384 . S
C938 C939 1.372 1_655 S
C939 C938 1.372 1_455 S
C939 C940 1.400 . S
C939 C944 1.490 1_455 S
C940 H930 0.930 . S
C940 C939 1.400 . S
C940 C943 1.386 . S
H941 C957 0.930 . S
H942 C958 0.931 . S
C943 H931 0.929 . S
C943 C937 1.390 . S
C943 C940 1.386 . S
C944 C939 1.490 1_655 S
C944 C946 1.395 . S
C944 C947 1.403 1_655 S
H945 C951 0.930 . S
C946 H932 0.930 . S
C946 C944 1.395 . S
C946 C949 1.403 . S
C947 C944 1.403 1_455 S
C947 C948 1.524 . S
C947 C951 1.400 . S
C948 H933 0.960 . S
C948 H934 0.960 . S
C948 H935 0.960 . S
C948 C947 1.524 . S
C949 C946 1.403 . S
C949 C950 1.392 . S
C949 C953 1.495 . S
C950 C949 1.392 . S
C950 C951 1.385 1_655 S
C950 C952 1.478 . S
C951 H945 0.930 . S
C951 C947 1.400 . S
C951 C950 1.385 1_455 S
C952 C950 1.478 . S
C952 C954 1.381 . S
C952 C958 1.383 . S
C953 C949 1.495 . S
C953 H959 0.959 . S
C953 H960 0.961 . S
C953 H961 0.960 . S
C954 C952 1.381 . S
C954 C955 1.394 . S
C954 H962 0.930 . S
C955 C954 1.394 . S
C955 C956 1.383 . S
C955 H963 0.929 . S
C956 C955 1.383 . S
C956 C957 1.377 . S
C957 H941 0.930 . S
C957 C956 1.377 . S
C957 C958 1.379 . S
C958 H942 0.931 . S
C958 C952 1.383 . S
C958 C957 1.379 . S
H959 C953 0.959 . S
H960 C953 0.961 . S
H961 C953 0.960 . S
H962 C954 0.930 . S
H963 C955 0.929 . S
H964 C972 0.929 . S
H965 C974 0.930 . S
H966 C976 0.930 . S
H967 C979 0.929 . S
H968 C982 0.930 . S
H969 C984 0.960 . S
H970 C984 0.960 . S
H971 C984 0.960 . S
C972 H964 0.929 . S
C972 C973 1.377 . S
C972 C974 1.384 . S
C973 C972 1.377 . S
C973 C979 1.390 . S
C974 H965 0.930 . S
C974 C972 1.384 . S
C974 C975 1.372 . S
C975 C974 1.372 . S
C975 C976 1.400 . S
C975 C980 1.490 . S
C976 H966 0.930 . S
C976 C975 1.400 . S
C976 C979 1.386 . S
H977 C993 0.930 . S
H978 C994 0.931 . S
C979 H967 0.929 . S
C979 C973 1.390 . S
C979 C976 1.386 . S
C980 C975 1.490 . S
C980 C982 1.395 . S
C980 C983 1.403 . S
H981 C987 0.930 . S
C982 H968 0.930 . S
C982 C980 1.395 . S
C982 C985 1.403 . S
C983 C980 1.403 . S
C983 C984 1.524 . S
C983 C987 1.400 . S
C984 H969 0.960 . S
C984 H970 0.960 . S
C984 H971 0.960 . S
C984 C983 1.524 . S
C985 C982 1.403 . S
C985 C986 1.392 . S
C985 C989 1.495 . S
C986 C985 1.392 . S
C986 C987 1.385 . S
C986 C988 1.478 . S
C987 H981 0.930 . S
C987 C983 1.400 . S
C987 C986 1.385 . S
C988 C986 1.478 . S
C988 C990 1.381 . S
C988 C994 1.383 . S
C989 C985 1.495 . S
C989 H995 0.959 1_545 S
C989 H996 0.961 1_545 S
C989 H997 0.960 . S
C990 C988 1.381 . S
C990 C991 1.394 . S
C990 H998 0.930 . S
C991 C990 1.394 . S
C991 C992 1.383 . S
C991 H999 0.929 . S
C992 C991 1.383 . S
C992 C993 1.377 . S
C993 H977 0.930 . S
C993 C992 1.377 . S
C993 C994 1.379 . S
C994 H978 0.931 . S
C994 C988 1.383 . S
C994 C993 1.379 . S
H995 C989 0.959 1_565 S
H996 C989 0.961 1_565 S
H997 C989 0.960 . S
H998 C990 0.930 . S
H999 C991 0.929 . S
H1000 C1008 0.929 . S
H1001 C1010 0.930 . S
H1002 C1012 0.930 . S
H1003 C1015 0.929 . S
H1004 C1018 0.930 . S
H1005 C1020 0.960 . S
H1006 C1020 0.960 . S
H1007 C1020 0.960 . S
C1008 H1000 0.929 . S
C1008 C1009 1.377 . S
C1008 C1010 1.384 . S
C1009 C1008 1.377 . S
C1009 C1015 1.390 . S
C1010 H1001 0.930 . S
C1010 C1008 1.384 . S
C1010 C1011 1.372 . S
C1011 C1010 1.372 . S
C1011 C1012 1.400 . S
C1011 C1016 1.490 . S
C1012 H1002 0.930 . S
C1012 C1011 1.400 . S
C1012 C1015 1.386 . S
H1013 C1029 0.930 . S
H1014 C1030 0.931 . S
C1015 H1003 0.929 . S
C1015 C1009 1.390 . S
C1015 C1012 1.386 . S
C1016 C1011 1.490 . S
C1016 C1018 1.395 . S
C1016 C1019 1.403 . S
H1017 C1023 0.930 . S
C1018 H1004 0.930 . S
C1018 C1016 1.395 . S
C1018 C1021 1.403 . S
C1019 C1016 1.403 . S
C1019 C1020 1.524 . S
C1019 C1023 1.400 . S
C1020 H1005 0.960 . S
C1020 H1006 0.960 . S
C1020 H1007 0.960 . S
C1020 C1019 1.524 . S
C1021 C1018 1.403 . S
C1021 C1022 1.392 . S
C1021 C1025 1.495 . S
C1022 C1021 1.392 . S
C1022 C1023 1.385 . S
C1022 C1024 1.478 . S
C1023 H1017 0.930 . S
C1023 C1019 1.400 . S
C1023 C1022 1.385 . S
C1024 C1022 1.478 . S
C1024 C1026 1.381 . S
C1024 C1030 1.383 . S
C1025 C1021 1.495 . S
C1025 H1031 0.959 . S
C1025 H1032 0.961 . S
C1025 H1033 0.960 . S
C1026 C1024 1.381 . S
C1026 C1027 1.394 . S
C1026 H1034 0.930 . S
C1027 C1026 1.394 . S
C1027 C1028 1.383 . S
C1027 H1035 0.929 . S
C1028 C1027 1.383 . S
C1028 C1029 1.377 . S
C1029 H1013 0.930 . S
C1029 C1028 1.377 . S
C1029 C1030 1.379 . S
C1030 H1014 0.931 . S
C1030 C1024 1.383 . S
C1030 C1029 1.379 . S
H1031 C1025 0.959 . S
H1032 C1025 0.961 . S
H1033 C1025 0.960 . S
H1034 C1026 0.930 . S
H1035 C1027 0.929 . S
H1036 C1044 0.929 . S
H1037 C1046 0.930 . S
H1038 C1048 0.930 1_545 S
H1039 C1051 0.929 . S
H1040 C1054 0.930 . S
H1041 C1056 0.960 . S
H1042 C1056 0.960 . S
H1043 C1056 0.960 . S
C1044 H1036 0.929 . S
C1044 C1045 1.377 . S
C1044 C1046 1.384 . S
C1045 C1044 1.377 . S
C1045 C1051 1.390 1_565 S
C1046 H1037 0.930 . S
C1046 C1044 1.384 . S
C1046 C1047 1.372 . S
C1047 C1046 1.372 . S
C1047 C1048 1.400 . S
C1047 C1052 1.490 . S
C1048 H1038 0.930 1_565 S
C1048 C1047 1.400 . S
C1048 C1051 1.386 1_565 S
H1049 C1065 0.930 . S
H1050 C1066 0.931 . S
C1051 H1039 0.929 . S
C1051 C1045 1.390 1_545 S
C1051 C1048 1.386 1_545 S
C1052 C1047 1.490 . S
C1052 C1054 1.395 . S
C1052 C1055 1.403 . S
H1053 C1059 0.930 . S
C1054 H1040 0.930 . S
C1054 C1052 1.395 . S
C1054 C1057 1.403 . S
C1055 C1052 1.403 . S
C1055 C1056 1.524 1_565 S
C1055 C1059 1.400 . S
C1056 H1041 0.960 . S
C1056 H1042 0.960 . S
C1056 H1043 0.960 . S
C1056 C1055 1.524 1_545 S
C1057 C1054 1.403 . S
C1057 C1058 1.392 . S
C1057 C1061 1.495 . S
C1058 C1057 1.392 . S
C1058 C1059 1.385 . S
C1058 C1060 1.478 . S
C1059 H1053 0.930 . S
C1059 C1055 1.400 . S
C1059 C1058 1.385 . S
C1060 C1058 1.478 . S
C1060 C1062 1.381 . S
C1060 C1066 1.383 . S
C1061 C1057 1.495 . S
C1061 H1067 0.959 . S
C1061 H1068 0.961 . S
C1061 H1069 0.960 . S
C1062 C1060 1.381 . S
C1062 C1063 1.394 . S
C1062 H1070 0.930 . S
C1063 C1062 1.394 . S
C1063 C1064 1.383 . S
C1063 H1071 0.929 . S
C1064 C1063 1.383 . S
C1064 C1065 1.377 . S
C1065 H1049 0.930 . S
C1065 C1064 1.377 . S
C1065 C1066 1.379 . S
C1066 H1050 0.931 . S
C1066 C1060 1.383 . S
C1066 C1065 1.379 . S
H1067 C1061 0.959 . S
H1068 C1061 0.961 . S
H1069 C1061 0.960 . S
H1070 C1062 0.930 . S
H1071 C1063 0.929 . S
H1072 C1080 0.929 . S
H1073 C1082 0.930 . S
H1074 C1084 0.930 . S
H1075 C1087 0.929 . S
H1076 C1090 0.930 . S
H1077 C1092 0.960 . S
H1078 C1092 0.960 . S
H1079 C1092 0.960 . S
C1080 H1072 0.929 . S
C1080 C1081 1.377 . S
C1080 C1082 1.384 . S
C1081 C1080 1.377 . S
C1081 C1087 1.390 . S
C1082 H1073 0.930 . S
C1082 C1080 1.384 . S
C1082 C1083 1.372 . S
C1083 C1082 1.372 . S
C1083 C1084 1.400 . S
C1083 C1088 1.490 . S
C1084 H1074 0.930 . S
C1084 C1083 1.400 . S
C1084 C1087 1.386 . S
H1085 C1101 0.930 . S
H1086 C1102 0.931 . S
C1087 H1075 0.929 . S
C1087 C1081 1.390 . S
C1087 C1084 1.386 . S
C1088 C1083 1.490 . S
C1088 C1090 1.395 . S
C1088 C1091 1.403 . S
H1089 C1095 0.930 . S
C1090 H1076 0.930 . S
C1090 C1088 1.395 . S
C1090 C1093 1.403 . S
C1091 C1088 1.403 . S
C1091 C1092 1.524 . S
C1091 C1095 1.400 . S
C1092 H1077 0.960 . S
C1092 H1078 0.960 . S
C1092 H1079 0.960 . S
C1092 C1091 1.524 . S
C1093 C1090 1.403 . S
C1093 C1094 1.392 . S
C1093 C1097 1.495 . S
C1094 C1093 1.392 . S
C1094 C1095 1.385 . S
C1094 C1096 1.478 . S
C1095 H1089 0.930 . S
C1095 C1091 1.400 . S
C1095 C1094 1.385 . S
C1096 C1094 1.478 . S
C1096 C1098 1.381 . S
C1096 C1102 1.383 . S
C1097 C1093 1.495 . S
C1097 H1103 0.959 . S
C1097 H1104 0.961 . S
C1097 H1105 0.960 . S
C1098 C1096 1.381 . S
C1098 C1099 1.394 . S
C1098 H1106 0.930 . S
C1099 C1098 1.394 . S
C1099 C1100 1.383 . S
C1099 H1107 0.929 . S
C1100 C1099 1.383 . S
C1100 C1101 1.377 . S
C1101 H1085 0.930 . S
C1101 C1100 1.377 . S
C1101 C1102 1.379 . S
C1102 H1086 0.931 . S
C1102 C1096 1.383 . S
C1102 C1101 1.379 . S
H1103 C1097 0.959 . S
H1104 C1097 0.961 . S
H1105 C1097 0.960 . S
H1106 C1098 0.930 . S
H1107 C1099 0.929 . S
H1108 C1116 0.929 . S
H1109 C1118 0.930 . S
H1110 C1120 0.930 . S
H1111 C1123 0.929 . S
H1112 C1126 0.930 . S
H1113 C1128 0.960 . S
H1114 C1128 0.960 . S
H1115 C1128 0.960 . S
C1116 H1108 0.929 . S
C1116 C1117 1.377 . S
C1116 C1118 1.384 . S
C1117 C1116 1.377 . S
C1117 C1123 1.390 . S
C1118 H1109 0.930 . S
C1118 C1116 1.384 . S
C1118 C1119 1.372 . S
C1119 C1118 1.372 . S
C1119 C1120 1.400 . S
C1119 C1124 1.490 . S
C1120 H1110 0.930 . S
C1120 C1119 1.400 . S
C1120 C1123 1.386 . S
H1121 C1137 0.930 1_556 S
H1122 C1138 0.931 1_556 S
C1123 H1111 0.929 . S
C1123 C1117 1.390 . S
C1123 C1120 1.386 . S
C1124 C1119 1.490 . S
C1124 C1126 1.395 . S
C1124 C1127 1.403 . S
H1125 C1131 0.930 . S
C1126 H1112 0.930 . S
C1126 C1124 1.395 . S
C1126 C1129 1.403 . S
C1127 C1124 1.403 . S
C1127 C1128 1.524 . S
C1127 C1131 1.400 . S
C1128 H1113 0.960 . S
C1128 H1114 0.960 . S
C1128 H1115 0.960 . S
C1128 C1127 1.524 . S
C1129 C1126 1.403 . S
C1129 C1130 1.392 . S
C1129 C1133 1.495 . S
C1130 C1129 1.392 . S
C1130 C1131 1.385 . S
C1130 C1132 1.478 . S
C1131 H1125 0.930 . S
C1131 C1127 1.400 . S
C1131 C1130 1.385 . S
C1132 C1130 1.478 . S
C1132 C1134 1.381 . S
C1132 C1138 1.383 . S
C1133 C1129 1.495 . S
C1133 H1139 0.959 . S
C1133 H1140 0.961 . S
C1133 H1141 0.960 . S
C1134 C1132 1.381 . S
C1134 C1135 1.394 . S
C1134 H1142 0.930 . S
C1135 C1134 1.394 . S
C1135 C1136 1.383 . S
C1135 H1143 0.929 . S
C1136 C1135 1.383 . S
C1136 C1137 1.377 . S
C1137 H1121 0.930 1_554 S
C1137 C1136 1.377 . S
C1137 C1138 1.379 . S
C1138 H1122 0.931 1_554 S
C1138 C1132 1.383 . S
C1138 C1137 1.379 . S
H1139 C1133 0.959 . S
H1140 C1133 0.961 . S
H1141 C1133 0.960 . S
H1142 C1134 0.930 . S
H1143 C1135 0.929 . S
H1144 C1152 0.929 . S
H1145 C1154 0.930 . S
H1146 C1156 0.930 . S
H1147 C1159 0.929 . S
H1148 C1162 0.930 . S
H1149 C1164 0.960 . S
H1150 C1164 0.960 . S
H1151 C1164 0.960 . S
C1152 H1144 0.929 . S
C1152 C1153 1.377 . S
C1152 C1154 1.384 . S
C1153 C1152 1.377 . S
C1153 C1159 1.390 . S
C1154 H1145 0.930 . S
C1154 C1152 1.384 . S
C1154 C1155 1.372 . S
C1155 C1154 1.372 . S
C1155 C1156 1.400 . S
C1155 C1160 1.490 . S
C1156 H1146 0.930 . S
C1156 C1155 1.400 . S
C1156 C1159 1.386 . S
H1157 C1173 0.930 . S
H1158 C1174 0.931 . S
C1159 H1147 0.929 . S
C1159 C1153 1.390 . S
C1159 C1156 1.386 . S
C1160 C1155 1.490 . S
C1160 C1162 1.395 . S
C1160 C1163 1.403 . S
H1161 C1167 0.930 . S
C1162 H1148 0.930 . S
C1162 C1160 1.395 . S
C1162 C1165 1.403 . S
C1163 C1160 1.403 . S
C1163 C1164 1.524 . S
C1163 C1167 1.400 . S
C1164 H1149 0.960 . S
C1164 H1150 0.960 . S
C1164 H1151 0.960 . S
C1164 C1163 1.524 . S
C1165 C1162 1.403 . S
C1165 C1166 1.392 . S
C1165 C1169 1.495 . S
C1166 C1165 1.392 . S
C1166 C1167 1.385 . S
C1166 C1168 1.478 . S
C1167 H1161 0.930 . S
C1167 C1163 1.400 . S
C1167 C1166 1.385 . S
C1168 C1166 1.478 . S
C1168 C1170 1.381 . S
C1168 C1174 1.383 . S
C1169 C1165 1.495 . S
C1169 H1175 0.959 . S
C1169 H1176 0.961 . S
C1169 H1177 0.960 . S
C1170 C1168 1.381 . S
C1170 C1171 1.394 . S
C1170 H1178 0.930 . S
C1171 C1170 1.394 . S
C1171 C1172 1.383 . S
C1171 H1179 0.929 . S
C1172 C1171 1.383 . S
C1172 C1173 1.377 . S
C1173 H1157 0.930 . S
C1173 C1172 1.377 . S
C1173 C1174 1.379 . S
C1174 H1158 0.931 . S
C1174 C1168 1.383 . S
C1174 C1173 1.379 . S
H1175 C1169 0.959 . S
H1176 C1169 0.961 . S
H1177 C1169 0.960 . S
H1178 C1170 0.930 . S
H1179 C1171 0.929 . S
H1180 C1188 0.929 . S
H1181 C1190 0.930 . S
H1182 C1192 0.930 . S
H1183 C1195 0.929 . S
H1184 C1198 0.930 . S
H1185 C1200 0.960 . S
H1186 C1200 0.960 . S
H1187 C1200 0.960 . S
C1188 H1180 0.929 . S
C1188 C1189 1.377 . S
C1188 C1190 1.384 . S
C1189 C1188 1.377 . S
C1189 C1195 1.390 . S
C1190 H1181 0.930 . S
C1190 C1188 1.384 . S
C1190 C1191 1.372 . S
C1191 C1190 1.372 . S
C1191 C1192 1.400 . S
C1191 C1196 1.490 . S
C1192 H1182 0.930 . S
C1192 C1191 1.400 . S
C1192 C1195 1.386 . S
H1193 C1209 0.930 . S
H1194 C1210 0.931 . S
C1195 H1183 0.929 . S
C1195 C1189 1.390 . S
C1195 C1192 1.386 . S
C1196 C1191 1.490 . S
C1196 C1198 1.395 . S
C1196 C1199 1.403 . S
H1197 C1203 0.930 . S
C1198 H1184 0.930 . S
C1198 C1196 1.395 . S
C1198 C1201 1.403 . S
C1199 C1196 1.403 . S
C1199 C1200 1.524 . S
C1199 C1203 1.400 . S
C1200 H1185 0.960 . S
C1200 H1186 0.960 . S
C1200 H1187 0.960 . S
C1200 C1199 1.524 . S
C1201 C1198 1.403 . S
C1201 C1202 1.392 . S
C1201 C1205 1.495 . S
C1202 C1201 1.392 . S
C1202 C1203 1.385 . S
C1202 C1204 1.478 . S
C1203 H1197 0.930 . S
C1203 C1199 1.400 . S
C1203 C1202 1.385 . S
C1204 C1202 1.478 . S
C1204 C1206 1.381 . S
C1204 C1210 1.383 . S
C1205 C1201 1.495 . S
C1205 H1211 0.959 . S
C1205 H1212 0.961 . S
C1205 H1213 0.960 . S
C1206 C1204 1.381 . S
C1206 C1207 1.394 . S
C1206 H1214 0.930 . S
C1207 C1206 1.394 . S
C1207 C1208 1.383 . S
C1207 H1215 0.929 . S
C1208 C1207 1.383 . S
C1208 C1209 1.377 . S
C1209 H1193 0.930 . S
C1209 C1208 1.377 . S
C1209 C1210 1.379 . S
C1210 H1194 0.931 . S
C1210 C1204 1.383 . S
C1210 C1209 1.379 . S
H1211 C1205 0.959 . S
H1212 C1205 0.961 . S
H1213 C1205 0.960 . S
H1214 C1206 0.930 . S
H1215 C1207 0.929 . S
H1216 C1224 0.929 . S
H1217 C1226 0.930 . S
H1218 C1228 0.930 . S
H1219 C1231 0.929 . S
H1220 C1234 0.930 . S
H1221 C1236 0.960 . S
H1222 C1236 0.960 . S
H1223 C1236 0.960 . S
C1224 H1216 0.929 . S
C1224 C1225 1.377 . S
C1224 C1226 1.384 . S
C1225 C1224 1.377 . S
C1225 C1231 1.390 . S
C1226 H1217 0.930 . S
C1226 C1224 1.384 . S
C1226 C1227 1.372 . S
C1227 C1226 1.372 . S
C1227 C1228 1.400 . S
C1227 C1232 1.490 . S
C1228 H1218 0.930 . S
C1228 C1227 1.400 . S
C1228 C1231 1.386 . S
H1229 C1245 0.930 . S
H1230 C1246 0.931 . S
C1231 H1219 0.929 . S
C1231 C1225 1.390 . S
C1231 C1228 1.386 . S
C1232 C1227 1.490 . S
C1232 C1234 1.395 . S
C1232 C1235 1.403 . S
H1233 C1239 0.930 . S
C1234 H1220 0.930 . S
C1234 C1232 1.395 . S
C1234 C1237 1.403 . S
C1235 C1232 1.403 . S
C1235 C1236 1.524 . S
C1235 C1239 1.400 . S
C1236 H1221 0.960 . S
C1236 H1222 0.960 . S
C1236 H1223 0.960 . S
C1236 C1235 1.524 . S
C1237 C1234 1.403 . S
C1237 C1238 1.392 . S
C1237 C1241 1.495 . S
C1238 C1237 1.392 . S
C1238 C1239 1.385 . S
C1238 C1240 1.478 . S
C1239 H1233 0.930 . S
C1239 C1235 1.400 . S
C1239 C1238 1.385 . S
C1240 C1238 1.478 . S
C1240 C1242 1.381 . S
C1240 C1246 1.383 . S
C1241 C1237 1.495 . S
C1241 H1247 0.959 . S
C1241 H1248 0.961 . S
C1241 H1249 0.960 . S
C1242 C1240 1.381 . S
C1242 C1243 1.394 . S
C1242 H1250 0.930 . S
C1243 C1242 1.394 . S
C1243 C1244 1.383 . S
C1243 H1251 0.929 . S
C1244 C1243 1.383 . S
C1244 C1245 1.377 . S
C1245 H1229 0.930 . S
C1245 C1244 1.377 . S
C1245 C1246 1.379 . S
C1246 H1230 0.931 . S
C1246 C1240 1.383 . S
C1246 C1245 1.379 . S
H1247 C1241 0.959 . S
H1248 C1241 0.961 . S
H1249 C1241 0.960 . S
H1250 C1242 0.930 . S
H1251 C1243 0.929 . S
H1252 C1260 0.929 . S
H1253 C1262 0.930 . S
H1254 C1264 0.930 . S
H1255 C1267 0.929 . S
H1256 C1270 0.930 . S
H1257 C1272 0.960 . S
H1258 C1272 0.960 . S
H1259 C1272 0.960 . S
C1260 H1252 0.929 . S
C1260 C1261 1.377 . S
C1260 C1262 1.384 . S
C1261 C1260 1.377 . S
C1261 C1267 1.390 . S
C1262 H1253 0.930 . S
C1262 C1260 1.384 . S
C1262 C1263 1.372 . S
C1263 C1262 1.372 . S
C1263 C1264 1.400 . S
C1263 C1268 1.490 . S
C1264 H1254 0.930 . S
C1264 C1263 1.400 . S
C1264 C1267 1.386 . S
H1265 C1281 0.930 . S
H1266 C1282 0.931 . S
C1267 H1255 0.929 . S
C1267 C1261 1.390 . S
C1267 C1264 1.386 . S
C1268 C1263 1.490 . S
C1268 C1270 1.395 . S
C1268 C1271 1.403 . S
H1269 C1275 0.930 . S
C1270 H1256 0.930 . S
C1270 C1268 1.395 . S
C1270 C1273 1.403 . S
C1271 C1268 1.403 . S
C1271 C1272 1.524 . S
C1271 C1275 1.400 . S
C1272 H1257 0.960 . S
C1272 H1258 0.960 . S
C1272 H1259 0.960 . S
C1272 C1271 1.524 . S
C1273 C1270 1.403 . S
C1273 C1274 1.392 . S
C1273 C1277 1.495 . S
C1274 C1273 1.392 . S
C1274 C1275 1.385 . S
C1274 C1276 1.478 . S
C1275 H1269 0.930 . S
C1275 C1271 1.400 . S
C1275 C1274 1.385 . S
C1276 C1274 1.478 . S
C1276 C1278 1.381 . S
C1276 C1282 1.383 . S
C1277 C1273 1.495 . S
C1277 H1283 0.959 . S
C1277 H1284 0.961 . S
C1277 H1285 0.960 . S
C1278 C1276 1.381 . S
C1278 C1279 1.394 . S
C1278 H1286 0.930 . S
C1279 C1278 1.394 . S
C1279 C1280 1.383 . S
C1279 H1287 0.929 . S
C1280 C1279 1.383 . S
C1280 C1281 1.377 . S
C1281 H1265 0.930 . S
C1281 C1280 1.377 . S
C1281 C1282 1.379 . S
C1282 H1266 0.931 . S
C1282 C1276 1.383 . S
C1282 C1281 1.379 . S
H1283 C1277 0.959 . S
H1284 C1277 0.961 . S
H1285 C1277 0.960 . S
H1286 C1278 0.930 . S
H1287 C1279 0.929 . S
H1288 C1296 0.929 . S
H1289 C1298 0.930 . S
H1290 C1300 0.930 . S
H1291 C1303 0.929 . S
H1292 C1306 0.930 . S
H1293 C1308 0.960 . S
H1294 C1308 0.960 . S
H1295 C1308 0.960 . S
C1296 H1288 0.929 . S
C1296 C1297 1.377 . S
C1296 C1298 1.384 . S
C1297 C1296 1.377 . S
C1297 C1303 1.390 . S
C1298 H1289 0.930 . S
C1298 C1296 1.384 . S
C1298 C1299 1.372 . S
C1299 C1298 1.372 . S
C1299 C1300 1.400 . S
C1299 C1304 1.490 . S
C1300 H1290 0.930 . S
C1300 C1299 1.400 . S
C1300 C1303 1.386 . S
H1301 C1317 0.930 . S
H1302 C1318 0.931 . S
C1303 H1291 0.929 . S
C1303 C1297 1.390 . S
C1303 C1300 1.386 . S
C1304 C1299 1.490 . S
C1304 C1306 1.395 . S
C1304 C1307 1.403 . S
H1305 C1311 0.930 . S
C1306 H1292 0.930 . S
C1306 C1304 1.395 . S
C1306 C1309 1.403 . S
C1307 C1304 1.403 . S
C1307 C1308 1.524 . S
C1307 C1311 1.400 . S
C1308 H1293 0.960 . S
C1308 H1294 0.960 . S
C1308 H1295 0.960 . S
C1308 C1307 1.524 . S
C1309 C1306 1.403 . S
C1309 C1310 1.392 . S
C1309 C1313 1.495 . S
C1310 C1309 1.392 . S
C1310 C1311 1.385 . S
C1310 C1312 1.478 . S
C1311 H1305 0.930 . S
C1311 C1307 1.400 . S
C1311 C1310 1.385 . S
C1312 C1310 1.478 . S
C1312 C1314 1.381 . S
C1312 C1318 1.383 . S
C1313 C1309 1.495 . S
C1313 H1319 0.959 . S
C1313 H1320 0.961 . S
C1313 H1321 0.960 . S
C1314 C1312 1.381 . S
C1314 C1315 1.394 . S
C1314 H1322 0.930 . S
C1315 C1314 1.394 . S
C1315 C1316 1.383 . S
C1315 H1323 0.929 . S
C1316 C1315 1.383 . S
C1316 C1317 1.377 . S
C1317 H1301 0.930 . S
C1317 C1316 1.377 . S
C1317 C1318 1.379 . S
C1318 H1302 0.931 . S
C1318 C1312 1.383 . S
C1318 C1317 1.379 . S
H1319 C1313 0.959 . S
H1320 C1313 0.961 . S
H1321 C1313 0.960 . S
H1322 C1314 0.930 . S
H1323 C1315 0.929 . S
H1324 C1332 0.929 . S
H1325 C1334 0.930 . S
H1326 C1336 0.930 . S
H1327 C1339 0.929 . S
H1328 C1342 0.930 . S
H1329 C1344 0.960 . S
H1330 C1344 0.960 . S
H1331 C1344 0.960 . S
C1332 H1324 0.929 . S
C1332 C1333 1.377 . S
C1332 C1334 1.384 . S
C1333 C1332 1.377 . S
C1333 C1339 1.390 . S
C1334 H1325 0.930 . S
C1334 C1332 1.384 . S
C1334 C1335 1.372 . S
C1335 C1334 1.372 . S
C1335 C1336 1.400 . S
C1335 C1340 1.490 . S
C1336 H1326 0.930 . S
C1336 C1335 1.400 . S
C1336 C1339 1.386 . S
H1337 C1353 0.930 . S
H1338 C1354 0.931 . S
C1339 H1327 0.929 . S
C1339 C1333 1.390 . S
C1339 C1336 1.386 . S
C1340 C1335 1.490 . S
C1340 C1342 1.395 . S
C1340 C1343 1.403 . S
H1341 C1347 0.930 . S
C1342 H1328 0.930 . S
C1342 C1340 1.395 . S
C1342 C1345 1.403 . S
C1343 C1340 1.403 . S
C1343 C1344 1.524 . S
C1343 C1347 1.400 . S
C1344 H1329 0.960 . S
C1344 H1330 0.960 . S
C1344 H1331 0.960 . S
C1344 C1343 1.524 . S
C1345 C1342 1.403 . S
C1345 C1346 1.392 . S
C1345 C1349 1.495 . S
C1346 C1345 1.392 . S
C1346 C1347 1.385 . S
C1346 C1348 1.478 . S
C1347 H1341 0.930 . S
C1347 C1343 1.400 . S
C1347 C1346 1.385 . S
C1348 C1346 1.478 . S
C1348 C1350 1.381 . S
C1348 C1354 1.383 . S
C1349 C1345 1.495 . S
C1349 H1355 0.959 . S
C1349 H1356 0.961 . S
C1349 H1357 0.960 . S
C1350 C1348 1.381 . S
C1350 C1351 1.394 . S
C1350 H1358 0.930 . S
C1351 C1350 1.394 . S
C1351 C1352 1.383 . S
C1351 H1359 0.929 . S
C1352 C1351 1.383 . S
C1352 C1353 1.377 . S
C1353 H1337 0.930 . S
C1353 C1352 1.377 . S
C1353 C1354 1.379 . S
C1354 H1338 0.931 . S
C1354 C1348 1.383 . S
C1354 C1353 1.379 . S
H1355 C1349 0.959 . S
H1356 C1349 0.961 . S
H1357 C1349 0.960 . S
H1358 C1350 0.930 . S
H1359 C1351 0.929 . S
H1360 C1368 0.929 . S
H1361 C1370 0.930 . S
H1362 C1372 0.930 . S
H1363 C1375 0.929 . S
H1364 C1378 0.930 . S
H1365 C1380 0.960 . S
H1366 C1380 0.960 . S
H1367 C1380 0.960 . S
C1368 H1360 0.929 . S
C1368 C1369 1.377 . S
C1368 C1370 1.384 . S
C1369 C1368 1.377 . S
C1369 C1375 1.390 . S
C1370 H1361 0.930 . S
C1370 C1368 1.384 . S
C1370 C1371 1.372 . S
C1371 C1370 1.372 . S
C1371 C1372 1.400 . S
C1371 C1376 1.490 . S
C1372 H1362 0.930 . S
C1372 C1371 1.400 . S
C1372 C1375 1.386 . S
H1373 C1389 0.930 . S
H1374 C1390 0.931 . S
C1375 H1363 0.929 . S
C1375 C1369 1.390 . S
C1375 C1372 1.386 . S
C1376 C1371 1.490 . S
C1376 C1378 1.395 . S
C1376 C1379 1.403 . S
H1377 C1383 0.930 . S
C1378 H1364 0.930 . S
C1378 C1376 1.395 . S
C1378 C1381 1.403 . S
C1379 C1376 1.403 . S
C1379 C1380 1.524 . S
C1379 C1383 1.400 . S
C1380 H1365 0.960 . S
C1380 H1366 0.960 . S
C1380 H1367 0.960 . S
C1380 C1379 1.524 . S
C1381 C1378 1.403 . S
C1381 C1382 1.392 . S
C1381 C1385 1.495 . S
C1382 C1381 1.392 . S
C1382 C1383 1.385 . S
C1382 C1384 1.478 . S
C1383 H1377 0.930 . S
C1383 C1379 1.400 . S
C1383 C1382 1.385 . S
C1384 C1382 1.478 . S
C1384 C1386 1.381 . S
C1384 C1390 1.383 . S
C1385 C1381 1.495 . S
C1385 H1391 0.959 . S
C1385 H1392 0.961 . S
C1385 H1393 0.960 . S
C1386 C1384 1.381 . S
C1386 C1387 1.394 . S
C1386 H1394 0.930 . S
C1387 C1386 1.394 . S
C1387 C1388 1.383 . S
C1387 H1395 0.958 . S
C1388 C1387 1.383 . S
C1388 C1389 1.377 . S
C1389 H1373 0.930 . S
C1389 C1388 1.377 . S
C1389 C1390 1.379 . S
C1390 H1374 0.931 . S
C1390 C1384 1.383 . S
C1390 C1389 1.379 . S
H1391 C1385 0.959 . S
H1392 C1385 0.961 . S
H1393 C1385 0.960 . S
H1394 C1386 0.930 . S
H1395 C1387 0.958 . S
H1396 C1404 0.929 . S
H1397 C1406 0.930 . S
H1398 C1408 0.930 . S
H1399 C1411 0.929 . S
H1400 C1414 0.930 . S
H1401 C1416 0.960 . S
H1402 C1416 0.960 . S
H1403 C1416 0.960 . S
C1404 H1396 0.929 . S
C1404 C1405 1.377 . S
C1404 C1406 1.384 . S
C1405 C1404 1.377 . S
C1405 C1411 1.390 . S
C1406 H1397 0.930 . S
C1406 C1404 1.384 . S
C1406 C1407 1.372 . S
C1407 C1406 1.372 . S
C1407 C1408 1.400 . S
C1407 C1412 1.490 . S
C1408 H1398 0.930 . S
C1408 C1407 1.400 . S
C1408 C1411 1.386 . S
H1409 C1425 0.930 . S
H1410 C1426 0.931 . S
C1411 H1399 0.929 . S
C1411 C1405 1.390 . S
C1411 C1408 1.386 . S
C1412 C1407 1.490 . S
C1412 C1414 1.395 . S
C1412 C1415 1.403 . S
H1413 C1419 0.930 . S
C1414 H1400 0.930 . S
C1414 C1412 1.395 . S
C1414 C1417 1.403 . S
C1415 C1412 1.403 . S
C1415 C1416 1.524 . S
C1415 C1419 1.400 . S
C1416 H1401 0.960 . S
C1416 H1402 0.960 . S
C1416 H1403 0.960 . S
C1416 C1415 1.524 . S
C1417 C1414 1.403 . S
C1417 C1418 1.392 . S
C1417 C1421 1.495 . S
C1418 C1417 1.392 . S
C1418 C1419 1.385 . S
C1418 C1420 1.478 . S
C1419 H1413 0.930 . S
C1419 C1415 1.400 . S
C1419 C1418 1.385 . S
C1420 C1418 1.478 . S
C1420 C1422 1.381 . S
C1420 C1426 1.383 . S
C1421 C1417 1.495 . S
C1421 H1427 0.959 . S
C1421 H1428 0.961 . S
C1421 H1429 0.960 . S
C1422 C1420 1.381 . S
C1422 C1423 1.394 . S
C1422 H1430 0.930 . S
C1423 C1422 1.394 . S
C1423 C1424 1.383 . S
C1423 H1431 0.929 . S
C1424 C1423 1.383 . S
C1424 C1425 1.377 . S
C1425 H1409 0.930 . S
C1425 C1424 1.377 . S
C1425 C1426 1.379 . S
C1426 H1410 0.931 . S
C1426 C1420 1.383 . S
C1426 C1425 1.379 . S
H1427 C1421 0.959 . S
H1428 C1421 0.961 . S
H1429 C1421 0.960 . S
H1430 C1422 0.930 . S
H1431 C1423 0.929 . S
H1432 C1440 0.929 . S
H1433 C1442 0.930 . S
H1434 C1444 0.926 1_545 S
H1435 C1447 0.929 . S
H1436 C1450 0.930 . S
H1437 C1452 0.960 . S
H1438 C1452 0.960 . S
H1439 C1452 0.960 . S
C1440 H1432 0.929 . S
C1440 C1441 1.377 . S
C1440 C1442 1.384 . S
C1441 C1440 1.377 . S
C1441 C1447 1.390 1_565 S
C1442 H1433 0.930 . S
C1442 C1440 1.384 . S
C1442 C1443 1.372 . S
C1443 C1442 1.372 . S
C1443 C1444 1.400 . S
C1443 C1448 1.490 . S
C1444 H1434 0.926 1_565 S
C1444 C1443 1.400 . S
C1444 C1447 1.386 1_565 S
H1445 C1461 0.930 . S
H1446 C1462 0.931 . S
C1447 H1435 0.929 . S
C1447 C1441 1.390 1_545 S
C1447 C1444 1.386 1_545 S
C1448 C1443 1.490 . S
C1448 C1450 1.395 . S
C1448 C1451 1.403 . S
H1449 C1455 0.930 . S
C1450 H1436 0.930 . S
C1450 C1448 1.395 . S
C1450 C1453 1.403 . S
C1451 C1448 1.403 . S
C1451 C1452 1.524 1_565 S
C1451 C1455 1.400 . S
C1452 H1437 0.960 . S
C1452 H1438 0.960 . S
C1452 H1439 0.960 . S
C1452 C1451 1.524 1_545 S
C1453 C1450 1.403 . S
C1453 C1454 1.392 . S
C1453 C1457 1.495 . S
C1454 C1453 1.392 . S
C1454 C1455 1.385 . S
C1454 C1456 1.478 . S
C1455 H1449 0.930 . S
C1455 C1451 1.400 . S
C1455 C1454 1.385 . S
C1456 C1454 1.478 . S
C1456 C1458 1.381 . S
C1456 C1462 1.383 . S
C1457 C1453 1.495 . S
C1457 H1463 0.959 . S
C1457 H1464 0.961 . S
C1457 H1465 0.960 . S
C1458 C1456 1.381 . S
C1458 C1459 1.394 . S
C1458 H1466 0.930 . S
C1459 C1458 1.394 . S
C1459 C1460 1.383 . S
C1459 H1467 0.929 . S
C1460 C1459 1.383 . S
C1460 C1461 1.377 . S
C1461 H1445 0.930 . S
C1461 C1460 1.377 . S
C1461 C1462 1.379 . S
C1462 H1446 0.931 . S
C1462 C1456 1.383 . S
C1462 C1461 1.379 . S
H1463 C1457 0.959 . S
H1464 C1457 0.961 . S
H1465 C1457 0.960 . S
H1466 C1458 0.930 . S
H1467 C1459 0.929 . S
H1468 C1476 0.929 . S
H1469 C1478 0.930 . S
H1470 C1480 0.930 . S
H1471 C1483 0.929 . S
H1472 C1486 0.930 . S
H1473 C1488 0.960 . S
H1474 C1488 0.960 . S
H1475 C1488 0.960 . S
C1476 H1468 0.929 . S
C1476 C1477 1.377 . S
C1476 C1478 1.384 . S
C1477 C1476 1.377 . S
C1477 C1483 1.390 . S
C1478 H1469 0.930 . S
C1478 C1476 1.384 . S
C1478 C1479 1.372 . S
C1479 C1478 1.372 . S
C1479 C1480 1.400 . S
C1479 C1484 1.490 . S
C1480 H1470 0.930 . S
C1480 C1479 1.400 . S
C1480 C1483 1.386 . S
H1481 C1497 0.930 . S
H1482 C1498 0.931 . S
C1483 H1471 0.929 . S
C1483 C1477 1.390 . S
C1483 C1480 1.386 . S
C1484 C1479 1.490 . S
C1484 C1486 1.395 . S
C1484 C1487 1.403 . S
H1485 C1491 0.930 . S
C1486 H1472 0.930 . S
C1486 C1484 1.395 . S
C1486 C1489 1.403 . S
C1487 C1484 1.403 . S
C1487 C1488 1.524 . S
C1487 C1491 1.400 . S
C1488 H1473 0.960 . S
C1488 H1474 0.960 . S
C1488 H1475 0.960 . S
C1488 C1487 1.524 . S
C1489 C1486 1.403 . S
C1489 C1490 1.392 . S
C1489 C1493 1.495 . S
C1490 C1489 1.392 . S
C1490 C1491 1.385 . S
C1490 C1492 1.478 . S
C1491 H1485 0.930 . S
C1491 C1487 1.400 . S
C1491 C1490 1.385 . S
C1492 C1490 1.478 . S
C1492 C1494 1.381 . S
C1492 C1498 1.383 . S
C1493 C1489 1.495 . S
C1493 H1499 0.959 . S
C1493 H1500 0.961 . S
C1493 H1501 0.960 . S
C1494 C1492 1.381 . S
C1494 C1495 1.394 . S
C1494 H1502 0.930 . S
C1495 C1494 1.394 . S
C1495 C1496 1.383 . S
C1495 H1503 0.929 . S
C1496 C1495 1.383 . S
C1496 C1497 1.377 . S
C1497 H1481 0.930 . S
C1497 C1496 1.377 . S
C1497 C1498 1.379 . S
C1498 H1482 0.931 . S
C1498 C1492 1.383 . S
C1498 C1497 1.379 . S
H1499 C1493 0.959 . S
H1500 C1493 0.961 . S
H1501 C1493 0.960 . S
H1502 C1494 0.930 . S
H1503 C1495 0.929 . S
H1504 C1512 0.929 . S
H1505 C1514 0.930 . S
H1506 C1516 0.930 . S
H1507 C1519 0.929 . S
H1508 C1522 0.930 . S
H1509 C1524 0.960 . S
H1510 C1524 0.960 . S
H1511 C1524 0.960 . S
C1512 H1504 0.929 . S
C1512 C1513 1.377 . S
C1512 C1514 1.384 . S
C1513 C1512 1.377 . S
C1513 C1519 1.390 . S
C1514 H1505 0.930 . S
C1514 C1512 1.384 . S
C1514 C1515 1.372 . S
C1515 C1514 1.372 . S
C1515 C1516 1.400 . S
C1515 C1520 1.490 . S
C1516 H1506 0.930 . S
C1516 C1515 1.400 . S
C1516 C1519 1.386 . S
H1517 C1533 0.930 . S
H1518 C1534 0.931 . S
C1519 H1507 0.929 . S
C1519 C1513 1.390 . S
C1519 C1516 1.386 . S
C1520 C1515 1.490 . S
C1520 C1522 1.395 . S
C1520 C1523 1.403 . S
H1521 C1527 0.930 . S
C1522 H1508 0.930 . S
C1522 C1520 1.395 . S
C1522 C1525 1.403 . S
C1523 C1520 1.403 . S
C1523 C1524 1.524 . S
C1523 C1527 1.400 . S
C1524 H1509 0.960 . S
C1524 H1510 0.960 . S
C1524 H1511 0.960 . S
C1524 C1523 1.524 . S
C1525 C1522 1.403 . S
C1525 C1526 1.392 . S
C1525 C1529 1.495 . S
C1526 C1525 1.392 . S
C1526 C1527 1.385 . S
C1526 C1528 1.478 . S
C1527 H1521 0.930 . S
C1527 C1523 1.400 . S
C1527 C1526 1.385 . S
C1528 C1526 1.478 . S
C1528 C1530 1.381 . S
C1528 C1534 1.383 . S
C1529 C1525 1.495 . S
C1529 H1535 0.959 . S
C1529 H1536 0.989 . S
C1529 H1537 0.960 . S
C1530 C1528 1.381 . S
C1530 C1531 1.394 . S
C1530 H1538 0.930 . S
C1531 C1530 1.394 . S
C1531 C1532 1.383 . S
C1531 H1539 0.929 . S
C1532 C1531 1.383 . S
C1532 C1533 1.377 . S
C1533 H1517 0.930 . S
C1533 C1532 1.377 . S
C1533 C1534 1.379 . S
C1534 H1518 0.931 . S
C1534 C1528 1.383 . S
C1534 C1533 1.379 . S
H1535 C1529 0.959 . S
H1536 C1529 0.989 . S
H1537 C1529 0.960 . S
H1538 C1530 0.930 . S
H1539 C1531 0.929 . S
H1540 C1548 0.929 . S
H1541 C1550 0.930 . S
H1542 C1552 0.930 . S
H1543 C1555 0.929 . S
H1544 C1558 0.930 . S
H1545 C1560 0.960 . S
H1546 C1560 0.960 . S
H1547 C1560 0.960 . S
C1548 H1540 0.929 . S
C1548 C1549 1.377 . S
C1548 C1550 1.384 . S
C1549 C1548 1.377 . S
C1549 C1555 1.390 . S
C1550 H1541 0.930 . S
C1550 C1548 1.384 . S
C1550 C1551 1.372 . S
C1551 C1550 1.372 . S
C1551 C1552 1.400 . S
C1551 C1556 1.490 . S
C1552 H1542 0.930 . S
C1552 C1551 1.400 . S
C1552 C1555 1.386 . S
H1553 C1569 0.930 . S
H1554 C1570 0.931 . S
C1555 H1543 0.929 . S
C1555 C1549 1.390 . S
C1555 C1552 1.386 . S
C1556 C1551 1.490 . S
C1556 C1558 1.395 . S
C1556 C1559 1.403 . S
H1557 C1563 0.930 . S
C1558 H1544 0.930 . S
C1558 C1556 1.395 . S
C1558 C1561 1.403 . S
C1559 C1556 1.403 . S
C1559 C1560 1.524 . S
C1559 C1563 1.400 . S
C1560 H1545 0.960 . S
C1560 H1546 0.960 . S
C1560 H1547 0.960 . S
C1560 C1559 1.524 . S
C1561 C1558 1.403 . S
C1561 C1562 1.392 . S
C1561 C1565 1.495 . S
C1562 C1561 1.392 . S
C1562 C1563 1.385 . S
C1562 C1564 1.478 . S
C1563 H1557 0.930 . S
C1563 C1559 1.400 . S
C1563 C1562 1.385 . S
C1564 C1562 1.478 . S
C1564 C1566 1.381 . S
C1564 C1570 1.383 . S
C1565 C1561 1.495 . S
C1565 H1571 0.959 . S
C1565 H1572 0.961 . S
C1565 H1573 0.960 . S
C1566 C1564 1.381 . S
C1566 C1567 1.394 . S
C1566 H1574 0.930 . S
C1567 C1566 1.394 . S
C1567 C1568 1.383 . S
C1567 H1575 0.929 . S
C1568 C1567 1.383 . S
C1568 C1569 1.377 . S
C1569 H1553 0.930 . S
C1569 C1568 1.377 . S
C1569 C1570 1.379 . S
C1570 H1554 0.931 . S
C1570 C1564 1.383 . S
C1570 C1569 1.379 . S
H1571 C1565 0.959 . S
H1572 C1565 0.961 . S
H1573 C1565 0.960 . S
H1574 C1566 0.930 . S
H1575 C1567 0.929 . S
H1576 C1584 0.929 . S
H1577 C1586 0.917 1_554 S
H1578 C1588 0.930 . S
H1579 C1591 0.929 . S
H1580 C1594 0.930 . S
H1581 C1596 0.960 . S
H1582 C1596 0.960 . S
H1583 C1596 0.960 . S
C1584 H1576 0.929 . S
C1584 C1585 1.377 1_554 S
C1584 C1586 1.382 1_554 S
C1585 C1584 1.377 1_556 S
C1585 C1591 1.390 . S
C1586 H1577 0.917 1_556 S
C1586 C1584 1.382 1_556 S
C1586 C1587 1.387 . S
C1587 C1586 1.387 . S
C1587 C1588 1.400 . S
C1587 C1592 1.490 . S
C1588 H1578 0.930 . S
C1588 C1587 1.400 . S
C1588 C1591 1.386 . S
H1589 C1605 0.930 . S
H1590 C1606 0.931 . S
C1591 H1579 0.929 . S
C1591 C1585 1.390 . S
C1591 C1588 1.386 . S
C1592 C1587 1.490 . S
C1592 C1594 1.395 . S
C1592 C1595 1.403 . S
H1593 C1599 0.930 . S
C1594 H1580 0.930 . S
C1594 C1592 1.395 . S
C1594 C1597 1.403 . S
C1595 C1592 1.403 . S
C1595 C1596 1.524 . S
C1595 C1599 1.400 . S
C1596 H1581 0.960 . S
C1596 H1582 0.960 . S
C1596 H1583 0.960 . S
C1596 C1595 1.524 . S
C1597 C1594 1.403 . S
C1597 C1598 1.392 . S
C1597 C1601 1.495 . S
C1598 C1597 1.392 . S
C1598 C1599 1.385 . S
C1598 C1600 1.478 . S
C1599 H1593 0.930 . S
C1599 C1595 1.400 . S
C1599 C1598 1.385 . S
C1600 C1598 1.478 . S
C1600 C1602 1.381 . S
C1600 C1606 1.383 . S
C1601 C1597 1.495 . S
C1601 H1607 0.959 1_556 S
C1601 H1608 0.961 . S
C1601 H1609 0.960 1_556 S
C1602 C1600 1.381 . S
C1602 C1603 1.394 . S
C1602 H1610 0.930 . S
C1603 C1602 1.394 . S
C1603 C1604 1.383 . S
C1603 H1611 0.929 . S
C1604 C1603 1.383 . S
C1604 C1605 1.377 . S
C1605 H1589 0.930 . S
C1605 C1604 1.377 . S
C1605 C1606 1.379 . S
C1606 H1590 0.931 . S
C1606 C1600 1.383 . S
C1606 C1605 1.379 . S
H1607 C1601 0.959 1_554 S
H1608 C1601 0.961 . S
H1609 C1601 0.960 1_554 S
H1610 C1602 0.930 . S
H1611 C1603 0.929 . S
H1612 C1620 0.929 . S
H1613 C1622 0.930 . S
H1614 C1624 0.930 . S
H1615 C1627 0.929 . S
H1616 C1630 0.930 . S
H1617 C1632 0.960 . S
H1618 C1632 0.960 . S
H1619 C1632 0.960 . S
C1620 H1612 0.929 . S
C1620 C1621 1.377 1_556 S
C1620 C1622 1.384 . S
C1621 C1620 1.377 1_554 S
C1621 C1627 1.390 . S
C1622 H1613 0.930 . S
C1622 C1620 1.384 . S
C1622 C1623 1.368 . S
C1623 C1622 1.368 . S
C1623 C1624 1.405 1_556 S
C1623 C1628 1.489 . S
C1624 H1614 0.930 . S
C1624 C1623 1.405 1_554 S
C1624 C1627 1.386 . S
H1625 C1641 0.930 . S
H1626 C1642 0.931 . S
C1627 H1615 0.929 . S
C1627 C1621 1.390 . S
C1627 C1624 1.386 . S
C1628 C1623 1.489 . S
C1628 C1630 1.395 . S
C1628 C1631 1.403 1_556 S
H1629 C1635 0.919 1_554 S
C1630 H1616 0.930 . S
C1630 C1628 1.395 . S
C1630 C1633 1.403 . S
C1631 C1628 1.403 1_554 S
C1631 C1632 1.524 . S
C1631 C1635 1.393 1_554 S
C1632 H1617 0.960 . S
C1632 H1618 0.960 . S
C1632 H1619 0.960 . S
C1632 C1631 1.524 . S
C1633 C1630 1.403 . S
C1633 C1634 1.392 . S
C1633 C1637 1.495 . S
C1634 C1633 1.392 . S
C1634 C1635 1.405 . S
C1634 C1636 1.478 . S
C1635 H1629 0.919 1_556 S
C1635 C1631 1.393 1_556 S
C1635 C1634 1.405 . S
C1636 C1634 1.478 . S
C1636 C1638 1.381 . S
C1636 C1642 1.383 1_556 S
C1637 C1633 1.495 . S
C1637 H1643 0.959 . S
C1637 H1644 0.961 . S
C1637 H1645 0.960 . S
C1638 C1636 1.381 . S
C1638 C1639 1.394 . S
C1638 H1646 0.930 . S
C1639 C1638 1.394 . S
C1639 C1640 1.383 . S
C1639 H1647 0.929 . S
C1640 C1639 1.383 . S
C1640 C1641 1.377 1_556 S
C1641 H1625 0.930 . S
C1641 C1640 1.377 1_554 S
C1641 C1642 1.379 . S
C1642 H1626 0.931 . S
C1642 C1636 1.383 1_554 S
C1642 C1641 1.379 . S
H1643 C1637 0.959 . S
H1644 C1637 0.961 . S
H1645 C1637 0.960 . S
H1646 C1638 0.930 . S
H1647 C1639 0.929 . S
H1648 C1656 0.929 . S
H1649 C1658 0.930 . S
H1650 C1660 0.948 . S
H1651 C1663 0.929 1_556 S
H1652 C1666 0.930 . S
H1653 C1668 0.960 . S
H1654 C1668 0.960 . S
H1655 C1668 0.960 . S
C1656 H1648 0.929 . S
C1656 C1657 1.377 . S
C1656 C1658 1.384 . S
C1657 C1656 1.377 . S
C1657 C1663 1.390 . S
C1658 H1649 0.930 . S
C1658 C1656 1.384 . S
C1658 C1659 1.372 . S
C1659 C1658 1.372 . S
C1659 C1660 1.400 . S
C1659 C1664 1.490 . S
C1660 H1650 0.948 . S
C1660 C1659 1.400 . S
C1660 C1663 1.386 . S
H1661 C1677 0.930 . S
H1662 C1678 0.931 . S
C1663 H1651 0.929 1_554 S
C1663 C1657 1.390 . S
C1663 C1660 1.386 . S
C1664 C1659 1.490 . S
C1664 C1666 1.395 . S
C1664 C1667 1.403 . S
H1665 C1671 0.930 1_556 S
C1666 H1652 0.930 . S
C1666 C1664 1.395 . S
C1666 C1669 1.403 . S
C1667 C1664 1.403 . S
C1667 C1668 1.524 1_554 S
C1667 C1671 1.400 . S
C1668 H1653 0.960 . S
C1668 H1654 0.960 . S
C1668 H1655 0.960 . S
C1668 C1667 1.524 1_556 S
C1669 C1666 1.403 . S
C1669 C1670 1.392 . S
C1669 C1673 1.495 . S
C1670 C1669 1.392 . S
C1670 C1671 1.385 . S
C1670 C1672 1.478 . S
C1671 H1665 0.930 1_554 S
C1671 C1667 1.400 . S
C1671 C1670 1.385 . S
C1672 C1670 1.478 . S
C1672 C1674 1.381 . S
C1672 C1678 1.383 . S
C1673 C1669 1.495 . S
C1673 H1679 0.959 . S
C1673 H1680 0.961 . S
C1673 H1681 0.960 . S
C1674 C1672 1.381 . S
C1674 C1675 1.394 1_655 S
C1674 H1682 0.930 . S
C1675 C1674 1.394 1_455 S
C1675 C1676 1.383 . S
C1675 H1683 0.929 . S
C1676 C1675 1.383 . S
C1676 C1677 1.377 1_455 S
C1677 H1661 0.930 . S
C1677 C1676 1.377 1_655 S
C1677 C1678 1.379 . S
C1678 H1662 0.931 . S
C1678 C1672 1.383 . S
C1678 C1677 1.379 . S
H1679 C1673 0.959 . S
H1680 C1673 0.961 . S
H1681 C1673 0.960 . S
H1682 C1674 0.930 . S
H1683 C1675 0.929 . S
H1684 C1692 0.929 . S
H1685 C1694 0.930 . S
H1686 C1696 0.930 . S
H1687 C1699 0.929 . S
H1688 C1702 0.930 . S
H1689 C1704 0.960 . S
H1690 C1704 0.960 . S
H1691 C1704 0.960 . S
C1692 H1684 0.929 . S
C1692 C1693 1.377 . S
C1692 C1694 1.384 . S
C1693 C1692 1.377 . S
C1693 C1699 1.390 . S
C1694 H1685 0.930 . S
C1694 C1692 1.384 . S
C1694 C1695 1.372 . S
C1695 C1694 1.372 . S
C1695 C1696 1.400 . S
C1695 C1700 1.490 . S
C1696 H1686 0.930 . S
C1696 C1695 1.400 . S
C1696 C1699 1.386 . S
H1697 C1713 0.930 . S
H1698 C1714 0.931 . S
C1699 H1687 0.929 . S
C1699 C1693 1.390 . S
C1699 C1696 1.386 . S
C1700 C1695 1.490 . S
C1700 C1702 1.395 . S
C1700 C1703 1.403 . S
H1701 C1707 0.930 . S
C1702 H1688 0.930 . S
C1702 C1700 1.395 . S
C1702 C1705 1.403 . S
C1703 C1700 1.403 . S
C1703 C1704 1.524 . S
C1703 C1707 1.400 . S
C1704 H1689 0.960 . S
C1704 H1690 0.960 . S
C1704 H1691 0.960 . S
C1704 C1703 1.524 . S
C1705 C1702 1.403 . S
C1705 C1706 1.392 . S
C1705 C1709 1.533 . S
C1706 C1705 1.392 . S
C1706 C1707 1.385 . S
C1706 C1708 1.478 . S
C1707 H1701 0.930 . S
C1707 C1703 1.400 . S
C1707 C1706 1.385 . S
C1708 C1706 1.478 . S
C1708 C1710 1.381 . S
C1708 C1714 1.383 . S
C1709 C1705 1.533 . S
C1709 H1715 0.918 1_455 S
C1709 H1716 0.947 1_455 S
C1709 H1717 0.981 . S
C1710 C1708 1.381 . S
C1710 C1711 1.394 . S
C1710 H1718 0.930 . S
C1711 C1710 1.394 . S
C1711 C1712 1.383 . S
C1711 H1719 0.929 . S
C1712 C1711 1.383 . S
C1712 C1713 1.377 . S
C1713 H1697 0.930 . S
C1713 C1712 1.377 . S
C1713 C1714 1.379 . S
C1714 H1698 0.931 . S
C1714 C1708 1.383 . S
C1714 C1713 1.379 . S
H1715 C1709 0.918 1_655 S
H1716 C1709 0.947 1_655 S
H1717 C1709 0.981 . S
H1718 C1710 0.930 . S
H1719 C1711 0.929 . S
H1720 C1728 0.929 . S
H1721 C1730 0.930 . S
H1722 C1732 0.930 1_455 S
H1723 C1735 0.929 1_455 S
H1724 C1738 0.930 . S
H1725 C1740 0.960 . S
H1726 C1740 0.960 . S
H1727 C1740 0.960 . S
C1728 H1720 0.929 . S
C1728 C1729 1.377 . S
C1728 C1730 1.384 . S
C1729 C1728 1.377 . S
C1729 C1735 1.390 . S
C1730 H1721 0.930 . S
C1730 C1728 1.384 . S
C1730 C1731 1.372 . S
C1731 C1730 1.372 . S
C1731 C1732 1.400 . S
C1731 C1736 1.490 . S
C1732 H1722 0.930 1_655 S
C1732 C1731 1.400 . S
C1732 C1735 1.386 . S
H1733 C1749 0.930 1_455 S
H1734 C1750 0.931 1_455 S
C1735 H1723 0.929 1_655 S
C1735 C1729 1.390 . S
C1735 C1732 1.386 . S
C1736 C1731 1.490 . S
C1736 C1738 1.395 . S
C1736 C1739 1.403 . S
H1737 C1743 0.930 . S
C1738 H1724 0.930 . S
C1738 C1736 1.395 . S
C1738 C1741 1.403 . S
C1739 C1736 1.403 . S
C1739 C1740 1.524 . S
C1739 C1743 1.400 . S
C1740 H1725 0.960 . S
C1740 H1726 0.960 . S
C1740 H1727 0.960 . S
C1740 C1739 1.524 . S
C1741 C1738 1.403 . S
C1741 C1742 1.392 . S
C1741 C1745 1.495 . S
C1742 C1741 1.392 . S
C1742 C1743 1.385 . S
C1742 C1744 1.478 . S
C1743 H1737 0.930 . S
C1743 C1739 1.400 . S
C1743 C1742 1.385 . S
C1744 C1742 1.478 . S
C1744 C1746 1.381 . S
C1744 C1750 1.383 . S
C1745 C1741 1.495 . S
C1745 H1751 0.952 1_655 S
C1745 H1752 0.961 1_655 S
C1745 H1753 0.960 . S
C1746 C1744 1.381 . S
C1746 C1747 1.394 . S
C1746 H1754 0.930 . S
C1747 C1746 1.394 . S
C1747 C1748 1.383 . S
C1747 H1755 0.929 . S
C1748 C1747 1.383 . S
C1748 C1749 1.377 . S
C1749 H1733 0.930 1_655 S
C1749 C1748 1.377 . S
C1749 C1750 1.379 . S
C1750 H1734 0.931 1_655 S
C1750 C1744 1.383 . S
C1750 C1749 1.379 . S
H1751 C1745 0.952 1_455 S
H1752 C1745 0.961 1_455 S
H1753 C1745 0.960 . S
H1754 C1746 0.930 . S
H1755 C1747 0.929 . S
H1756 C1764 0.929 . S
H1757 C1766 0.930 . S
H1758 C1768 0.930 . S
H1759 C1771 0.929 . S
H1760 C1774 0.930 . S
H1761 C1776 0.944 1_655 S
H1762 C1776 0.956 1_655 S
H1763 C1776 0.958 1_655 S
C1764 H1756 0.929 . S
C1764 C1765 1.377 . S
C1764 C1766 1.384 . S
C1765 C1764 1.377 . S
C1765 C1771 1.390 . S
C1766 H1757 0.930 . S
C1766 C1764 1.384 . S
C1766 C1767 1.372 . S
C1767 C1766 1.372 . S
C1767 C1768 1.400 . S
C1767 C1772 1.490 . S
C1768 H1758 0.930 . S
C1768 C1767 1.400 . S
C1768 C1771 1.386 . S
H1769 C1785 0.930 . S
H1770 C1786 0.931 . S
C1771 H1759 0.929 . S
C1771 C1765 1.390 . S
C1771 C1768 1.386 . S
C1772 C1767 1.490 . S
C1772 C1774 1.395 . S
C1772 C1775 1.403 . S
H1773 C1779 0.930 . S
C1774 H1760 0.930 . S
C1774 C1772 1.395 . S
C1774 C1777 1.403 . S
C1775 C1772 1.403 . S
C1775 C1776 1.546 . S
C1775 C1779 1.400 . S
C1776 H1761 0.944 1_455 S
C1776 H1762 0.956 1_455 S
C1776 H1763 0.958 1_455 S
C1776 C1775 1.546 . S
C1777 C1774 1.403 . S
C1777 C1778 1.392 . S
C1777 C1781 1.495 . S
C1778 C1777 1.392 . S
C1778 C1779 1.385 . S
C1778 C1780 1.478 . S
C1779 H1773 0.930 . S
C1779 C1775 1.400 . S
C1779 C1778 1.385 . S
C1780 C1778 1.478 . S
C1780 C1782 1.381 . S
C1780 C1786 1.383 . S
C1781 C1777 1.495 . S
C1781 H1787 0.959 . S
C1781 H1788 0.961 . S
C1781 H1789 0.960 . S
C1782 C1780 1.381 . S
C1782 C1783 1.394 . S
C1782 H1790 0.930 . S
C1783 C1782 1.394 . S
C1783 C1784 1.383 . S
C1783 H1791 0.929 . S
C1784 C1783 1.383 . S
C1784 C1785 1.377 . S
C1785 H1769 0.930 . S
C1785 C1784 1.377 . S
C1785 C1786 1.379 . S
C1786 H1770 0.931 . S
C1786 C1780 1.383 . S
C1786 C1785 1.379 . S
H1787 C1781 0.959 . S
H1788 C1781 0.961 . S
H1789 C1781 0.960 . S
H1790 C1782 0.930 . S
H1791 C1783 0.929 . S
H1792 C1800 0.929 . S
H1793 C1802 0.930 . S
H1794 C1804 0.930 . S
H1795 C1807 0.929 . S
H1796 C1810 0.930 . S
H1797 C1812 0.960 . S
H1798 C1812 0.960 . S
H1799 C1812 0.972 . S
C1800 H1792 0.929 . S
C1800 C1801 1.377 . S
C1800 C1802 1.384 . S
C1801 C1800 1.377 . S
C1801 C1807 1.390 1_455 S
C1802 H1793 0.930 . S
C1802 C1800 1.384 . S
C1802 C1803 1.372 1_455 S
C1803 C1802 1.372 1_655 S
C1803 C1804 1.400 . S
C1803 C1808 1.490 . S
C1804 H1794 0.930 . S
C1804 C1803 1.400 . S
C1804 C1807 1.386 . S
H1805 C1821 0.930 . S
H1806 C1822 0.931 . S
C1807 H1795 0.929 . S
C1807 C1801 1.390 1_655 S
C1807 C1804 1.386 . S
C1808 C1803 1.490 . S
C1808 C1810 1.395 . S
C1808 C1811 1.403 . S
H1809 C1815 0.930 . S
C1810 H1796 0.930 . S
C1810 C1808 1.395 . S
C1810 C1813 1.403 . S
C1811 C1808 1.403 . S
C1811 C1812 1.524 1_655 S
C1811 C1815 1.400 . S
C1812 H1797 0.960 . S
C1812 H1798 0.960 . S
C1812 H1799 0.972 . S
C1812 C1811 1.524 1_455 S
C1813 C1810 1.403 . S
C1813 C1814 1.392 . S
C1813 C1817 1.495 . S
C1814 C1813 1.392 . S
C1814 C1815 1.385 . S
C1814 C1816 1.478 . S
C1815 H1809 0.930 . S
C1815 C1811 1.400 . S
C1815 C1814 1.385 . S
C1816 C1814 1.478 . S
C1816 C1818 1.381 . S
C1816 C1822 1.383 . S
C1817 C1813 1.495 . S
C1817 H1823 0.959 . S
C1817 H1824 0.961 . S
C1817 H1825 0.960 . S
C1818 C1816 1.381 . S
C1818 C1819 1.394 . S
C1818 H1826 0.906 1_655 S
C1819 C1818 1.394 . S
C1819 C1820 1.383 . S
C1819 H1827 0.929 . S
C1820 C1819 1.383 . S
C1820 C1821 1.377 . S
C1821 H1805 0.930 . S
C1821 C1820 1.377 . S
C1821 C1822 1.379 . S
C1822 H1806 0.931 . S
C1822 C1816 1.383 . S
C1822 C1821 1.379 . S
H1823 C1817 0.959 . S
H1824 C1817 0.961 . S
H1825 C1817 0.960 . S
H1826 C1818 0.906 1_455 S
H1827 C1819 0.929 . S
H1828 C1836 0.929 . S
H1829 C1838 0.930 . S
H1830 C1840 0.961 . S
H1831 C1843 0.929 1_565 S
H1832 C1846 0.930 . S
H1833 C1848 0.960 . S
H1834 C1848 0.960 . S
H1835 C1848 0.960 . S
C1836 H1828 0.929 . S
C1836 C1837 1.377 . S
C1836 C1838 1.384 . S
C1837 C1836 1.377 . S
C1837 C1843 1.390 . S
C1838 H1829 0.930 . S
C1838 C1836 1.384 . S
C1838 C1839 1.372 . S
C1839 C1838 1.372 . S
C1839 C1840 1.400 . S
C1839 C1844 1.490 . S
C1840 H1830 0.961 . S
C1840 C1839 1.400 . S
C1840 C1843 1.386 . S
H1841 C1857 0.930 . S
H1842 C1858 0.931 . S
C1843 H1831 0.929 1_545 S
C1843 C1837 1.390 . S
C1843 C1840 1.386 . S
C1844 C1839 1.490 . S
C1844 C1846 1.395 . S
C1844 C1847 1.403 . S
H1845 C1851 0.930 . S
C1846 H1832 0.930 . S
C1846 C1844 1.395 . S
C1846 C1849 1.403 . S
C1847 C1844 1.403 . S
C1847 C1848 1.524 . S
C1847 C1851 1.400 . S
C1848 H1833 0.960 . S
C1848 H1834 0.960 . S
C1848 H1835 0.960 . S
C1848 C1847 1.524 . S
C1849 C1846 1.403 . S
C1849 C1850 1.392 . S
C1849 C1853 1.495 . S
C1850 C1849 1.392 . S
C1850 C1851 1.385 . S
C1850 C1852 1.478 . S
C1851 H1845 0.930 . S
C1851 C1847 1.400 . S
C1851 C1850 1.385 . S
C1852 C1850 1.478 . S
C1852 C1854 1.381 . S
C1852 C1858 1.383 . S
C1853 C1849 1.495 . S
C1853 H1859 0.959 . S
C1853 H1860 0.961 . S
C1853 H1861 0.960 . S
C1854 C1852 1.381 . S
C1854 C1855 1.394 . S
C1854 H1862 0.930 . S
C1855 C1854 1.394 . S
C1855 C1856 1.383 . S
C1855 H1863 0.929 . S
C1856 C1855 1.383 . S
C1856 C1857 1.377 . S
C1857 H1841 0.930 . S
C1857 C1856 1.377 . S
C1857 C1858 1.379 . S
C1858 H1842 0.931 . S
C1858 C1852 1.383 . S
C1858 C1857 1.379 . S
H1859 C1853 0.959 . S
H1860 C1853 0.961 . S
H1861 C1853 0.960 . S
H1862 C1854 0.930 . S
H1863 C1855 0.929 . S
H1864 C1872 0.929 . S
H1865 C1874 0.930 . S
H1866 C1876 0.930 . S
H1867 C1879 0.929 . S
H1868 C1882 0.930 . S
H1869 C1884 0.960 . S
H1870 C1884 0.960 . S
H1871 C1884 0.960 . S
C1872 H1864 0.929 . S
C1872 C1873 1.377 . S
C1872 C1874 1.384 . S
C1873 C1872 1.377 . S
C1873 C1879 1.390 . S
C1874 H1865 0.930 . S
C1874 C1872 1.384 . S
C1874 C1875 1.372 . S
C1875 C1874 1.372 . S
C1875 C1876 1.400 . S
C1875 C1880 1.490 . S
C1876 H1866 0.930 . S
C1876 C1875 1.400 . S
C1876 C1879 1.386 . S
H1877 C1893 0.930 . S
H1878 C1894 0.931 . S
C1879 H1867 0.929 . S
C1879 C1873 1.390 . S
C1879 C1876 1.386 . S
C1880 C1875 1.490 . S
C1880 C1882 1.395 . S
C1880 C1883 1.403 . S
H1881 C1887 0.930 . S
C1882 H1868 0.930 . S
C1882 C1880 1.395 . S
C1882 C1885 1.403 . S
C1883 C1880 1.403 . S
C1883 C1884 1.524 . S
C1883 C1887 1.400 . S
C1884 H1869 0.960 . S
C1884 H1870 0.960 . S
C1884 H1871 0.960 . S
C1884 C1883 1.524 . S
C1885 C1882 1.403 . S
C1885 C1886 1.392 . S
C1885 C1889 1.495 . S
C1886 C1885 1.392 . S
C1886 C1887 1.385 . S
C1886 C1888 1.478 . S
C1887 H1881 0.930 . S
C1887 C1883 1.400 . S
C1887 C1886 1.385 . S
C1888 C1886 1.478 . S
C1888 C1890 1.381 . S
C1888 C1894 1.383 . S
C1889 C1885 1.495 . S
C1889 H1895 0.959 . S
C1889 H1896 0.961 . S
C1889 H1897 0.960 . S
C1890 C1888 1.381 . S
C1890 C1891 1.394 . S
C1890 H1898 0.930 . S
C1891 C1890 1.394 . S
C1891 C1892 1.383 . S
C1891 H1899 0.929 . S
C1892 C1891 1.383 . S
C1892 C1893 1.377 . S
C1893 H1877 0.930 . S
C1893 C1892 1.377 . S
C1893 C1894 1.379 . S
C1894 H1878 0.931 . S
C1894 C1888 1.383 . S
C1894 C1893 1.379 . S
H1895 C1889 0.959 . S
H1896 C1889 0.961 . S
H1897 C1889 0.960 . S
H1898 C1890 0.930 . S
H1899 C1891 0.929 . S
H1900 C1908 0.929 . S
H1901 C1910 0.930 . S
H1902 C1912 0.930 1_545 S
H1903 C1915 0.929 . S
H1904 C1918 0.930 . S
H1905 C1920 0.960 1_545 S
H1906 C1920 0.960 . S
H1907 C1920 0.960 1_545 S
C1908 H1900 0.929 . S
C1908 C1909 1.377 . S
C1908 C1910 1.384 . S
C1909 C1908 1.377 . S
C1909 C1915 1.390 1_565 S
C1910 H1901 0.930 . S
C1910 C1908 1.384 . S
C1910 C1911 1.372 . S
C1911 C1910 1.372 . S
C1911 C1912 1.400 . S
C1911 C1916 1.490 . S
C1912 H1902 0.930 1_565 S
C1912 C1911 1.400 . S
C1912 C1915 1.386 1_565 S
H1913 C1929 0.930 . S
H1914 C1930 0.931 . S
C1915 H1903 0.929 . S
C1915 C1909 1.390 1_545 S
C1915 C1912 1.386 1_545 S
C1916 C1911 1.490 . S
C1916 C1918 1.395 . S
C1916 C1919 1.403 . S
H1917 C1923 0.930 . S
C1918 H1904 0.930 . S
C1918 C1916 1.395 . S
C1918 C1921 1.403 . S
C1919 C1916 1.403 . S
C1919 C1920 1.524 . S
C1919 C1923 1.400 . S
C1920 H1905 0.960 1_565 S
C1920 H1906 0.960 . S
C1920 H1907 0.960 1_565 S
C1920 C1919 1.524 . S
C1921 C1918 1.403 . S
C1921 C1922 1.392 . S
C1921 C1925 1.495 . S
C1922 C1921 1.392 . S
C1922 C1923 1.385 . S
C1922 C1924 1.478 . S
C1923 H1917 0.930 . S
C1923 C1919 1.400 . S
C1923 C1922 1.385 . S
C1924 C1922 1.478 . S
C1924 C1926 1.381 . S
C1924 C1930 1.383 . S
C1925 C1921 1.495 . S
C1925 H1931 0.959 . S
C1925 H1932 0.961 . S
C1925 H1933 0.960 . S
C1926 C1924 1.381 . S
C1926 C1927 1.394 . S
C1926 H1934 0.930 . S
C1927 C1926 1.394 . S
C1927 C1928 1.383 . S
C1927 H1935 0.929 . S
C1928 C1927 1.383 . S
C1928 C1929 1.377 . S
C1929 H1913 0.930 . S
C1929 C1928 1.377 . S
C1929 C1930 1.379 . S
C1930 H1914 0.931 . S
C1930 C1924 1.383 . S
C1930 C1929 1.379 . S
H1931 C1925 0.959 . S
H1932 C1925 0.961 . S
H1933 C1925 0.960 . S
H1934 C1926 0.930 . S
H1935 C1927 0.929 . S
H1936 C1944 0.929 . S
H1937 C1946 0.930 . S
H1938 C1948 0.930 . S
H1939 C1951 0.929 . S
H1940 C1954 0.930 . S
H1941 C1956 0.960 . S
H1942 C1956 0.960 . S
H1943 C1956 0.960 . S
C1944 H1936 0.929 . S
C1944 C1945 1.377 . S
C1944 C1946 1.384 . S
C1945 C1944 1.377 . S
C1945 C1951 1.390 . S
C1946 H1937 0.930 . S
C1946 C1944 1.384 . S
C1946 C1947 1.372 . S
C1947 C1946 1.372 . S
C1947 C1948 1.400 . S
C1947 C1952 1.490 . S
C1948 H1938 0.930 . S
C1948 C1947 1.400 . S
C1948 C1951 1.386 . S
H1949 C1965 0.930 . S
H1950 C1966 0.931 . S
C1951 H1939 0.929 . S
C1951 C1945 1.390 . S
C1951 C1948 1.386 . S
C1952 C1947 1.490 . S
C1952 C1954 1.395 . S
C1952 C1955 1.403 . S
H1953 C1959 0.930 . S
C1954 H1940 0.930 . S
C1954 C1952 1.395 . S
C1954 C1957 1.403 . S
C1955 C1952 1.403 . S
C1955 C1956 1.524 . S
C1955 C1959 1.400 . S
C1956 H1941 0.960 . S
C1956 H1942 0.960 . S
C1956 H1943 0.960 . S
C1956 C1955 1.524 . S
C1957 C1954 1.403 . S
C1957 C1958 1.392 . S
C1957 C1961 1.495 . S
C1958 C1957 1.392 . S
C1958 C1959 1.385 . S
C1958 C1960 1.478 . S
C1959 H1953 0.930 . S
C1959 C1955 1.400 . S
C1959 C1958 1.385 . S
C1960 C1958 1.478 . S
C1960 C1962 1.381 . S
C1960 C1966 1.383 . S
C1961 C1957 1.495 . S
C1961 H1967 0.959 . S
C1961 H1968 0.961 . S
C1961 H1969 0.960 . S
C1962 C1960 1.381 . S
C1962 C1963 1.394 . S
C1962 H1970 0.930 . S
C1963 C1962 1.394 . S
C1963 C1964 1.383 . S
C1963 H1971 0.929 . S
C1964 C1963 1.383 . S
C1964 C1965 1.377 . S
C1965 H1949 0.930 . S
C1965 C1964 1.377 . S
C1965 C1966 1.379 . S
C1966 H1950 0.931 . S
C1966 C1960 1.383 . S
C1966 C1965 1.379 . S
H1967 C1961 0.959 . S
H1968 C1961 0.961 . S
H1969 C1961 0.960 . S
H1970 C1962 0.930 . S
H1971 C1963 0.929 . S
H1972 C1980 0.965 . S
H1973 C1982 0.930 . S
H1974 C1984 0.930 . S
H1975 C1987 0.929 . S
H1976 C1990 0.930 . S
H1977 C1992 0.960 . S
H1978 C1992 0.960 . S
H1979 C1992 0.960 . S
C1980 H1972 0.965 . S
C1980 C1981 1.377 . S
C1980 C1982 1.384 . S
C1981 C1980 1.377 . S
C1981 C1987 1.390 . S
C1982 H1973 0.930 . S
C1982 C1980 1.384 . S
C1982 C1983 1.372 . S
C1983 C1982 1.372 . S
C1983 C1984 1.400 . S
C1983 C1988 1.490 . S
C1984 H1974 0.930 . S
C1984 C1983 1.400 . S
C1984 C1987 1.386 . S
H1985 C2001 0.930 . S
H1986 C2002 0.931 . S
C1987 H1975 0.929 . S
C1987 C1981 1.390 . S
C1987 C1984 1.386 . S
C1988 C1983 1.490 . S
C1988 C1990 1.395 . S
C1988 C1991 1.403 . S
H1989 C1995 0.930 . S
C1990 H1976 0.930 . S
C1990 C1988 1.395 . S
C1990 C1993 1.403 . S
C1991 C1988 1.403 . S
C1991 C1992 1.524 . S
C1991 C1995 1.400 . S
C1992 H1977 0.960 . S
C1992 H1978 0.960 . S
C1992 H1979 0.960 . S
C1992 C1991 1.524 . S
C1993 C1990 1.403 . S
C1993 C1994 1.392 . S
C1993 C1997 1.495 . S
C1994 C1993 1.392 . S
C1994 C1995 1.385 . S
C1994 C1996 1.478 . S
C1995 H1989 0.930 . S
C1995 C1991 1.400 . S
C1995 C1994 1.385 . S
C1996 C1994 1.478 . S
C1996 C1998 1.381 . S
C1996 C2002 1.383 . S
C1997 C1993 1.495 . S
C1997 H2003 0.959 . S
C1997 H2004 0.961 . S
C1997 H2005 0.960 . S
C1998 C1996 1.381 . S
C1998 C1999 1.394 . S
C1998 H2006 0.930 . S
C1999 C1998 1.394 . S
C1999 C2000 1.383 . S
C1999 H2007 0.929 . S
C2000 C1999 1.383 . S
C2000 C2001 1.377 . S
C2001 H1985 0.930 . S
C2001 C2000 1.377 . S
C2001 C2002 1.379 . S
C2002 H1986 0.931 . S
C2002 C1996 1.383 . S
C2002 C2001 1.379 . S
H2003 C1997 0.959 . S
H2004 C1997 0.961 . S
H2005 C1997 0.960 . S
H2006 C1998 0.930 . S
H2007 C1999 0.929 . S
H2008 C2016 0.929 . S
H2009 C2018 0.930 . S
H2010 C2020 0.930 . S
H2011 C2023 0.929 . S
H2012 C2026 0.930 . S
H2013 C2028 0.960 . S
H2014 C2028 0.960 . S
H2015 C2028 0.960 . S
C2016 H2008 0.929 . S
C2016 C2017 1.377 . S
C2016 C2018 1.384 . S
C2017 C2016 1.377 . S
C2017 C2023 1.390 . S
C2018 H2009 0.930 . S
C2018 C2016 1.384 . S
C2018 C2019 1.372 . S
C2019 C2018 1.372 . S
C2019 C2020 1.400 . S
C2019 C2024 1.490 . S
C2020 H2010 0.930 . S
C2020 C2019 1.400 . S
C2020 C2023 1.386 . S
H2021 C2037 0.930 . S
H2022 C2038 0.931 . S
C2023 H2011 0.929 . S
C2023 C2017 1.390 . S
C2023 C2020 1.386 . S
C2024 C2019 1.490 . S
C2024 C2026 1.395 . S
C2024 C2027 1.403 . S
H2025 C2031 0.930 . S
C2026 H2012 0.930 . S
C2026 C2024 1.395 . S
C2026 C2029 1.403 . S
C2027 C2024 1.403 . S
C2027 C2028 1.524 . S
C2027 C2031 1.400 . S
C2028 H2013 0.960 . S
C2028 H2014 0.960 . S
C2028 H2015 0.960 . S
C2028 C2027 1.524 . S
C2029 C2026 1.403 . S
C2029 C2030 1.392 . S
C2029 C2033 1.495 . S
C2030 C2029 1.392 . S
C2030 C2031 1.385 . S
C2030 C2032 1.478 . S
C2031 H2025 0.930 . S
C2031 C2027 1.400 . S
C2031 C2030 1.385 . S
C2032 C2030 1.478 . S
C2032 C2034 1.381 . S
C2032 C2038 1.383 . S
C2033 C2029 1.495 . S
C2033 H2039 0.959 . S
C2033 H2040 0.961 . S
C2033 H2041 0.960 . S
C2034 C2032 1.381 . S
C2034 C2035 1.394 . S
C2034 H2042 0.930 . S
C2035 C2034 1.394 . S
C2035 C2036 1.383 . S
C2035 H2043 0.929 . S
C2036 C2035 1.383 . S
C2036 C2037 1.377 . S
C2037 H2021 0.930 . S
C2037 C2036 1.377 . S
C2037 C2038 1.379 . S
C2038 H2022 0.931 . S
C2038 C2032 1.383 . S
C2038 C2037 1.379 . S
H2039 C2033 0.959 . S
H2040 C2033 0.961 . S
H2041 C2033 0.960 . S
H2042 C2034 0.930 . S
H2043 C2035 0.929 . S
H2044 C2052 0.929 . S
H2045 C2054 0.930 . S
H2046 C2056 0.930 . S
H2047 C2059 0.929 . S
H2048 C2062 0.930 . S
H2049 C2064 0.960 . S
H2050 C2064 0.960 . S
H2051 C2064 0.960 . S
C2052 H2044 0.929 . S
C2052 C2053 1.377 . S
C2052 C2054 1.384 . S
C2053 C2052 1.377 . S
C2053 C2059 1.390 . S
C2054 H2045 0.930 . S
C2054 C2052 1.384 . S
C2054 C2055 1.372 . S
C2055 C2054 1.372 . S
C2055 C2056 1.400 . S
C2055 C2060 1.490 . S
C2056 H2046 0.930 . S
C2056 C2055 1.400 . S
C2056 C2059 1.386 . S
H2057 C2073 0.930 . S
H2058 C2074 0.931 . S
C2059 H2047 0.929 . S
C2059 C2053 1.390 . S
C2059 C2056 1.386 . S
C2060 C2055 1.490 . S
C2060 C2062 1.395 . S
C2060 C2063 1.403 . S
H2061 C2067 0.930 . S
C2062 H2048 0.930 . S
C2062 C2060 1.395 . S
C2062 C2065 1.403 . S
C2063 C2060 1.403 . S
C2063 C2064 1.524 . S
C2063 C2067 1.400 . S
C2064 H2049 0.960 . S
C2064 H2050 0.960 . S
C2064 H2051 0.960 . S
C2064 C2063 1.524 . S
C2065 C2062 1.403 . S
C2065 C2066 1.392 . S
C2065 C2069 1.495 . S
C2066 C2065 1.392 . S
C2066 C2067 1.385 . S
C2066 C2068 1.478 . S
C2067 H2061 0.930 . S
C2067 C2063 1.400 . S
C2067 C2066 1.385 . S
C2068 C2066 1.478 . S
C2068 C2070 1.381 . S
C2068 C2074 1.383 . S
C2069 C2065 1.495 . S
C2069 H2075 0.959 . S
C2069 H2076 0.961 . S
C2069 H2077 0.960 . S
C2070 C2068 1.381 . S
C2070 C2071 1.394 . S
C2070 H2078 0.930 . S
C2071 C2070 1.394 . S
C2071 C2072 1.383 . S
C2071 H2079 0.929 . S
C2072 C2071 1.383 . S
C2072 C2073 1.377 . S
C2073 H2057 0.930 . S
C2073 C2072 1.377 . S
C2073 C2074 1.379 . S
C2074 H2058 0.931 . S
C2074 C2068 1.383 . S
C2074 C2073 1.379 . S
H2075 C2069 0.959 . S
H2076 C2069 0.961 . S
H2077 C2069 0.960 . S
H2078 C2070 0.930 . S
H2079 C2071 0.929 . S
H2080 C2088 0.929 . S
H2081 C2090 0.930 . S
H2082 C2092 0.930 . S
H2083 C2095 0.929 . S
H2084 C2098 0.930 . S
H2085 C2100 0.960 . S
H2086 C2100 0.960 . S
H2087 C2100 0.960 . S
C2088 H2080 0.929 . S
C2088 C2089 1.377 . S
C2088 C2090 1.384 . S
C2089 C2088 1.377 . S
C2089 C2095 1.390 . S
C2090 H2081 0.930 . S
C2090 C2088 1.384 . S
C2090 C2091 1.372 . S
C2091 C2090 1.372 . S
C2091 C2092 1.400 . S
C2091 C2096 1.490 . S
C2092 H2082 0.930 . S
C2092 C2091 1.400 . S
C2092 C2095 1.386 . S
H2093 C2109 0.930 . S
H2094 C2110 0.931 . S
C2095 H2083 0.929 . S
C2095 C2089 1.390 . S
C2095 C2092 1.386 . S
C2096 C2091 1.490 . S
C2096 C2098 1.395 . S
C2096 C2099 1.403 . S
H2097 C2103 0.930 . S
C2098 H2084 0.930 . S
C2098 C2096 1.395 . S
C2098 C2101 1.403 . S
C2099 C2096 1.403 . S
C2099 C2100 1.524 . S
C2099 C2103 1.400 . S
C2100 H2085 0.960 . S
C2100 H2086 0.960 . S
C2100 H2087 0.960 . S
C2100 C2099 1.524 . S
C2101 C2098 1.403 . S
C2101 C2102 1.392 . S
C2101 C2105 1.495 . S
C2102 C2101 1.392 . S
C2102 C2103 1.385 . S
C2102 C2104 1.478 . S
C2103 H2097 0.930 . S
C2103 C2099 1.400 . S
C2103 C2102 1.385 . S
C2104 C2102 1.478 . S
C2104 C2106 1.381 . S
C2104 C2110 1.383 . S
C2105 C2101 1.495 . S
C2105 H2111 0.959 . S
C2105 H2112 0.961 . S
C2105 H2113 0.960 . S
C2106 C2104 1.381 . S
C2106 C2107 1.394 . S
C2106 H2114 0.930 . S
C2107 C2106 1.394 . S
C2107 C2108 1.383 . S
C2107 H2115 0.929 . S
C2108 C2107 1.383 . S
C2108 C2109 1.377 . S
C2109 H2093 0.930 . S
C2109 C2108 1.377 . S
C2109 C2110 1.379 . S
C2110 H2094 0.931 . S
C2110 C2104 1.383 . S
C2110 C2109 1.379 . S
H2111 C2105 0.959 . S
H2112 C2105 0.961 . S
H2113 C2105 0.960 . S
H2114 C2106 0.930 . S
H2115 C2107 0.929 . S
H2116 C2124 0.929 . S
H2117 C2126 0.930 . S
H2118 C2128 0.930 . S
H2119 C2131 0.929 . S
H2120 C2134 0.930 . S
H2121 C2136 0.960 . S
H2122 C2136 0.960 . S
H2123 C2136 0.960 . S
C2124 H2116 0.929 . S
C2124 C2125 1.377 . S
C2124 C2126 1.384 . S
C2125 C2124 1.377 . S
C2125 C2131 1.390 . S
C2126 H2117 0.930 . S
C2126 C2124 1.384 . S
C2126 C2127 1.372 . S
C2127 C2126 1.372 . S
C2127 C2128 1.400 . S
C2127 C2132 1.490 . S
C2128 H2118 0.930 . S
C2128 C2127 1.400 . S
C2128 C2131 1.386 . S
H2129 C2145 0.930 . S
H2130 C2146 0.931 . S
C2131 H2119 0.929 . S
C2131 C2125 1.390 . S
C2131 C2128 1.386 . S
C2132 C2127 1.490 . S
C2132 C2134 1.395 . S
C2132 C2135 1.403 . S
H2133 C2139 0.930 . S
C2134 H2120 0.930 . S
C2134 C2132 1.395 . S
C2134 C2137 1.403 . S
C2135 C2132 1.403 . S
C2135 C2136 1.524 . S
C2135 C2139 1.400 . S
C2136 H2121 0.960 . S
C2136 H2122 0.960 . S
C2136 H2123 0.960 . S
C2136 C2135 1.524 . S
C2137 C2134 1.403 . S
C2137 C2138 1.392 . S
C2137 C2141 1.495 . S
C2138 C2137 1.392 . S
C2138 C2139 1.385 . S
C2138 C2140 1.478 . S
C2139 H2133 0.930 . S
C2139 C2135 1.400 . S
C2139 C2138 1.385 . S
C2140 C2138 1.478 . S
C2140 C2142 1.381 . S
C2140 C2146 1.383 . S
C2141 C2137 1.495 . S
C2141 H2147 0.959 . S
C2141 H2148 0.961 . S
C2141 H2149 0.960 . S
C2142 C2140 1.381 . S
C2142 C2143 1.394 . S
C2142 H2150 0.930 . S
C2143 C2142 1.394 . S
C2143 C2144 1.383 . S
C2143 H2151 0.929 . S
C2144 C2143 1.383 . S
C2144 C2145 1.377 . S
C2145 H2129 0.930 . S
C2145 C2144 1.377 . S
C2145 C2146 1.379 . S
C2146 H2130 0.931 . S
C2146 C2140 1.383 . S
C2146 C2145 1.379 . S
H2147 C2141 0.959 . S
H2148 C2141 0.961 . S
H2149 C2141 0.960 . S
H2150 C2142 0.930 . S
H2151 C2143 0.929 . S
H2152 C2160 0.929 . S
H2153 C2162 0.930 . S
H2154 C2164 0.930 . S
H2155 C2167 0.929 . S
H2156 C2170 0.930 . S
H2157 C2172 0.960 . S
H2158 C2172 0.960 . S
H2159 C2172 0.960 . S
C2160 H2152 0.929 . S
C2160 C2161 1.377 . S
C2160 C2162 1.384 . S
C2161 C2160 1.377 . S
C2161 C2167 1.390 . S
C2162 H2153 0.930 . S
C2162 C2160 1.384 . S
C2162 C2163 1.372 . S
C2163 C2162 1.372 . S
C2163 C2164 1.400 . S
C2163 C2168 1.490 . S
C2164 H2154 0.930 . S
C2164 C2163 1.400 . S
C2164 C2167 1.386 . S
H2165 C2181 0.930 . S
H2166 C2182 0.931 . S
C2167 H2155 0.929 . S
C2167 C2161 1.390 . S
C2167 C2164 1.386 . S
C2168 C2163 1.490 . S
C2168 C2170 1.395 . S
C2168 C2171 1.403 . S
H2169 C2175 0.930 . S
C2170 H2156 0.930 . S
C2170 C2168 1.395 . S
C2170 C2173 1.403 . S
C2171 C2168 1.403 . S
C2171 C2172 1.524 . S
C2171 C2175 1.400 . S
C2172 H2157 0.960 . S
C2172 H2158 0.960 . S
C2172 H2159 0.960 . S
C2172 C2171 1.524 . S
C2173 C2170 1.403 . S
C2173 C2174 1.392 . S
C2173 C2177 1.495 . S
C2174 C2173 1.392 . S
C2174 C2175 1.385 . S
C2174 C2176 1.478 . S
C2175 H2169 0.930 . S
C2175 C2171 1.400 . S
C2175 C2174 1.385 . S
C2176 C2174 1.478 . S
C2176 C2178 1.381 . S
C2176 C2182 1.383 . S
C2177 C2173 1.495 . S
C2177 H2183 0.959 . S
C2177 H2184 0.961 . S
C2177 H2185 0.960 . S
C2178 C2176 1.381 . S
C2178 C2179 1.394 . S
C2178 H2186 0.930 . S
C2179 C2178 1.394 . S
C2179 C2180 1.383 . S
C2179 H2187 0.929 . S
C2180 C2179 1.383 . S
C2180 C2181 1.377 . S
C2181 H2165 0.930 . S
C2181 C2180 1.377 . S
C2181 C2182 1.379 . S
C2182 H2166 0.931 . S
C2182 C2176 1.383 . S
C2182 C2181 1.379 . S
H2183 C2177 0.959 . S
H2184 C2177 0.961 . S
H2185 C2177 0.960 . S
H2186 C2178 0.930 . S
H2187 C2179 0.929 . S
H2188 C2196 0.929 . S
H2189 C2198 0.930 . S
H2190 C2200 0.930 . S
H2191 C2203 0.929 . S
H2192 C2206 0.930 . S
H2193 C2208 0.960 . S
H2194 C2208 0.960 . S
H2195 C2208 0.960 . S
C2196 H2188 0.929 . S
C2196 C2197 1.377 . S
C2196 C2198 1.384 . S
C2197 C2196 1.377 . S
C2197 C2203 1.390 . S
C2198 H2189 0.930 . S
C2198 C2196 1.384 . S
C2198 C2199 1.372 . S
C2199 C2198 1.372 . S
C2199 C2200 1.400 . S
C2199 C2204 1.490 . S
C2200 H2190 0.930 . S
C2200 C2199 1.400 . S
C2200 C2203 1.386 . S
H2201 C2217 0.930 . S
H2202 C2218 0.931 . S
C2203 H2191 0.929 . S
C2203 C2197 1.390 . S
C2203 C2200 1.386 . S
C2204 C2199 1.490 . S
C2204 C2206 1.395 . S
C2204 C2207 1.403 . S
H2205 C2211 0.930 . S
C2206 H2192 0.930 . S
C2206 C2204 1.395 . S
C2206 C2209 1.403 . S
C2207 C2204 1.403 . S
C2207 C2208 1.524 . S
C2207 C2211 1.400 . S
C2208 H2193 0.960 . S
C2208 H2194 0.960 . S
C2208 H2195 0.960 . S
C2208 C2207 1.524 . S
C2209 C2206 1.403 . S
C2209 C2210 1.392 . S
C2209 C2213 1.495 . S
C2210 C2209 1.392 . S
C2210 C2211 1.385 . S
C2210 C2212 1.478 . S
C2211 H2205 0.930 . S
C2211 C2207 1.400 . S
C2211 C2210 1.385 . S
C2212 C2210 1.478 . S
C2212 C2214 1.381 . S
C2212 C2218 1.383 . S
C2213 C2209 1.495 . S
C2213 H2219 0.959 . S
C2213 H2220 0.961 . S
C2213 H2221 0.960 . S
C2214 C2212 1.381 . S
C2214 C2215 1.394 . S
C2214 H2222 0.930 . S
C2215 C2214 1.394 . S
C2215 C2216 1.383 . S
C2215 H2223 0.929 . S
C2216 C2215 1.383 . S
C2216 C2217 1.377 . S
C2217 H2201 0.930 . S
C2217 C2216 1.377 . S
C2217 C2218 1.379 . S
C2218 H2202 0.931 . S
C2218 C2212 1.383 . S
C2218 C2217 1.379 . S
H2219 C2213 0.959 . S
H2220 C2213 0.961 . S
H2221 C2213 0.960 . S
H2222 C2214 0.930 . S
H2223 C2215 0.929 . S
H2224 C2232 0.929 . S
H2225 C2234 0.930 . S
H2226 C2236 0.930 . S
H2227 C2239 0.929 . S
H2228 C2242 0.930 . S
H2229 C2244 0.960 . S
H2230 C2244 0.960 . S
H2231 C2244 0.960 . S
C2232 H2224 0.929 . S
C2232 C2233 1.377 . S
C2232 C2234 1.384 . S
C2233 C2232 1.377 . S
C2233 C2239 1.390 . S
C2234 H2225 0.930 . S
C2234 C2232 1.384 . S
C2234 C2235 1.372 . S
C2235 C2234 1.372 . S
C2235 C2236 1.400 . S
C2235 C2240 1.490 . S
C2236 H2226 0.930 . S
C2236 C2235 1.400 . S
C2236 C2239 1.386 . S
H2237 C2253 0.930 . S
H2238 C2254 0.931 . S
C2239 H2227 0.929 . S
C2239 C2233 1.390 . S
C2239 C2236 1.386 . S
C2240 C2235 1.490 . S
C2240 C2242 1.395 . S
C2240 C2243 1.403 . S
H2241 C2247 0.930 . S
C2242 H2228 0.930 . S
C2242 C2240 1.395 . S
C2242 C2245 1.403 . S
C2243 C2240 1.403 . S
C2243 C2244 1.524 . S
C2243 C2247 1.400 . S
C2244 H2229 0.960 . S
C2244 H2230 0.960 . S
C2244 H2231 0.960 . S
C2244 C2243 1.524 . S
C2245 C2242 1.403 . S
C2245 C2246 1.392 . S
C2245 C2249 1.495 . S
C2246 C2245 1.392 . S
C2246 C2247 1.385 . S
C2246 C2248 1.478 . S
C2247 H2241 0.930 . S
C2247 C2243 1.400 . S
C2247 C2246 1.385 . S
C2248 C2246 1.478 . S
C2248 C2250 1.381 . S
C2248 C2254 1.383 . S
C2249 C2245 1.495 . S
C2249 H2255 0.959 . S
C2249 H2256 0.961 . S
C2249 H2257 0.960 . S
C2250 C2248 1.381 . S
C2250 C2251 1.394 . S
C2250 H2258 0.930 . S
C2251 C2250 1.394 . S
C2251 C2252 1.383 . S
C2251 H2259 0.929 . S
C2252 C2251 1.383 . S
C2252 C2253 1.377 . S
C2253 H2237 0.930 . S
C2253 C2252 1.377 . S
C2253 C2254 1.379 . S
C2254 H2238 0.931 . S
C2254 C2248 1.383 . S
C2254 C2253 1.379 . S
H2255 C2249 0.959 . S
H2256 C2249 0.961 . S
H2257 C2249 0.960 . S
H2258 C2250 0.930 . S
H2259 C2251 0.929 . S
H2260 C2268 0.929 . S
H2261 C2270 0.930 . S
H2262 C2272 0.930 . S
H2263 C2275 0.929 . S
H2264 C2278 0.930 . S
H2265 C2280 0.960 . S
H2266 C2280 0.960 . S
H2267 C2280 0.960 . S
C2268 H2260 0.929 . S
C2268 C2269 1.377 . S
C2268 C2270 1.384 . S
C2269 C2268 1.377 . S
C2269 C2275 1.390 . S
C2270 H2261 0.930 . S
C2270 C2268 1.384 . S
C2270 C2271 1.372 . S
C2271 C2270 1.372 . S
C2271 C2272 1.400 . S
C2271 C2276 1.490 . S
C2272 H2262 0.930 . S
C2272 C2271 1.400 . S
C2272 C2275 1.386 . S
H2273 C2289 0.930 . S
H2274 C2290 0.931 . S
C2275 H2263 0.929 . S
C2275 C2269 1.390 . S
C2275 C2272 1.386 . S
C2276 C2271 1.490 . S
C2276 C2278 1.395 . S
C2276 C2279 1.403 . S
H2277 C2283 0.930 . S
C2278 H2264 0.930 . S
C2278 C2276 1.395 . S
C2278 C2281 1.403 . S
C2279 C2276 1.403 . S
C2279 C2280 1.524 . S
C2279 C2283 1.400 . S
C2280 H2265 0.960 . S
C2280 H2266 0.960 . S
C2280 H2267 0.960 . S
C2280 C2279 1.524 . S
C2281 C2278 1.403 . S
C2281 C2282 1.392 . S
C2281 C2285 1.495 . S
C2282 C2281 1.392 . S
C2282 C2283 1.385 . S
C2282 C2284 1.478 . S
C2283 H2277 0.930 . S
C2283 C2279 1.400 . S
C2283 C2282 1.385 . S
C2284 C2282 1.478 . S
C2284 C2286 1.381 . S
C2284 C2290 1.383 . S
C2285 C2281 1.495 . S
C2285 H2291 0.959 . S
C2285 H2292 0.961 . S
C2285 H2293 0.960 . S
C2286 C2284 1.381 . S
C2286 C2287 1.394 . S
C2286 H2294 0.930 . S
C2287 C2286 1.394 . S
C2287 C2288 1.383 . S
C2287 H2295 0.929 . S
C2288 C2287 1.383 . S
C2288 C2289 1.377 . S
C2289 H2273 0.930 . S
C2289 C2288 1.377 . S
C2289 C2290 1.379 . S
C2290 H2274 0.931 . S
C2290 C2284 1.383 . S
C2290 C2289 1.379 . S
H2291 C2285 0.959 . S
H2292 C2285 0.961 . S
H2293 C2285 0.960 . S
H2294 C2286 0.930 . S
H2295 C2287 0.929 . S
H2296 C2304 0.929 . S
H2297 C2306 0.930 . S
H2298 C2308 0.930 . S
H2299 C2311 0.929 . S
H2300 C2314 0.930 1_545 S
H2301 C2316 0.960 . S
H2302 C2316 0.960 . S
H2303 C2316 0.960 . S
C2304 H2296 0.929 . S
C2304 C2305 1.377 . S
C2304 C2306 1.384 . S
C2305 C2304 1.377 . S
C2305 C2311 1.390 . S
C2306 H2297 0.930 . S
C2306 C2304 1.384 . S
C2306 C2307 1.372 . S
C2307 C2306 1.372 . S
C2307 C2308 1.400 . S
C2307 C2312 1.490 . S
C2308 H2298 0.930 . S
C2308 C2307 1.400 . S
C2308 C2311 1.386 . S
H2309 C2325 0.930 . S
H2310 C2326 0.931 . S
C2311 H2299 0.929 . S
C2311 C2305 1.390 . S
C2311 C2308 1.386 . S
C2312 C2307 1.490 . S
C2312 C2314 1.395 . S
C2312 C2315 1.403 . S
H2313 C2319 0.930 . S
C2314 H2300 0.930 1_565 S
C2314 C2312 1.395 . S
C2314 C2317 1.403 . S
C2315 C2312 1.403 . S
C2315 C2316 1.524 . S
C2315 C2319 1.400 . S
C2316 H2301 0.960 . S
C2316 H2302 0.960 . S
C2316 H2303 0.960 . S
C2316 C2315 1.524 . S
C2317 C2314 1.403 . S
C2317 C2318 1.392 . S
C2317 C2321 1.495 1_565 S
C2318 C2317 1.392 . S
C2318 C2319 1.385 . S
C2318 C2320 1.478 . S
C2319 H2313 0.930 . S
C2319 C2315 1.400 . S
C2319 C2318 1.385 . S
C2320 C2318 1.478 . S
C2320 C2322 1.381 . S
C2320 C2326 1.383 . S
C2321 C2317 1.495 1_545 S
C2321 H2327 0.959 . S
C2321 H2328 0.961 . S
C2321 H2329 0.960 . S
C2322 C2320 1.381 . S
C2322 C2323 1.394 . S
C2322 H2330 0.930 . S
C2323 C2322 1.394 . S
C2323 C2324 1.383 . S
C2323 H2331 0.929 . S
C2324 C2323 1.383 . S
C2324 C2325 1.377 . S
C2325 H2309 0.930 . S
C2325 C2324 1.377 . S
C2325 C2326 1.379 . S
C2326 H2310 0.931 . S
C2326 C2320 1.383 . S
C2326 C2325 1.379 . S
H2327 C2321 0.959 . S
H2328 C2321 0.961 . S
H2329 C2321 0.960 . S
H2330 C2322 0.930 . S
H2331 C2323 0.929 . S
H2332 C2340 0.929 . S
H2333 C2342 0.930 . S
H2334 C2344 0.930 . S
H2335 C2347 0.929 . S
H2336 C2350 0.930 . S
H2337 C2352 0.960 . S
H2338 C2352 0.960 . S
H2339 C2352 0.960 . S
C2340 H2332 0.929 . S
C2340 C2341 1.377 . S
C2340 C2342 1.384 . S
C2341 C2340 1.377 . S
C2341 C2347 1.390 . S
C2342 H2333 0.930 . S
C2342 C2340 1.384 . S
C2342 C2343 1.372 . S
C2343 C2342 1.372 . S
C2343 C2344 1.400 . S
C2343 C2348 1.490 . S
C2344 H2334 0.930 . S
C2344 C2343 1.400 . S
C2344 C2347 1.386 . S
H2345 C2361 0.930 . S
H2346 C2362 0.931 . S
C2347 H2335 0.929 . S
C2347 C2341 1.390 . S
C2347 C2344 1.386 . S
C2348 C2343 1.490 . S
C2348 C2350 1.395 . S
C2348 C2351 1.403 . S
H2349 C2355 0.930 . S
C2350 H2336 0.930 . S
C2350 C2348 1.395 . S
C2350 C2353 1.403 . S
C2351 C2348 1.403 . S
C2351 C2352 1.524 . S
C2351 C2355 1.400 . S
C2352 H2337 0.960 . S
C2352 H2338 0.960 . S
C2352 H2339 0.960 . S
C2352 C2351 1.524 . S
C2353 C2350 1.403 . S
C2353 C2354 1.392 . S
C2353 C2357 1.495 . S
C2354 C2353 1.392 . S
C2354 C2355 1.385 . S
C2354 C2356 1.478 . S
C2355 H2349 0.930 . S
C2355 C2351 1.400 . S
C2355 C2354 1.385 . S
C2356 C2354 1.478 . S
C2356 C2358 1.381 . S
C2356 C2362 1.383 . S
C2357 C2353 1.495 . S
C2357 H2363 0.959 . S
C2357 H2364 0.961 . S
C2357 H2365 0.960 . S
C2358 C2356 1.381 . S
C2358 C2359 1.394 . S
C2358 H2366 0.930 . S
C2359 C2358 1.394 . S
C2359 C2360 1.383 . S
C2359 H2367 0.929 . S
C2360 C2359 1.383 . S
C2360 C2361 1.377 . S
C2361 H2345 0.930 . S
C2361 C2360 1.377 . S
C2361 C2362 1.379 . S
C2362 H2346 0.931 . S
C2362 C2356 1.383 . S
C2362 C2361 1.379 . S
H2363 C2357 0.959 . S
H2364 C2357 0.961 . S
H2365 C2357 0.960 . S
H2366 C2358 0.930 . S
H2367 C2359 0.929 . S
H2368 C2376 0.929 . S
H2369 C2378 0.930 . S
H2370 C2380 0.930 . S
H2371 C2383 0.929 . S
H2372 C2386 0.930 . S
H2373 C2388 0.960 . S
H2374 C2388 0.960 . S
H2375 C2388 0.960 . S
C2376 H2368 0.929 . S
C2376 C2377 1.377 . S
C2376 C2378 1.384 . S
C2377 C2376 1.377 . S
C2377 C2383 1.390 . S
C2378 H2369 0.930 . S
C2378 C2376 1.384 . S
C2378 C2379 1.372 . S
C2379 C2378 1.372 . S
C2379 C2380 1.400 . S
C2379 C2384 1.490 . S
C2380 H2370 0.930 . S
C2380 C2379 1.400 . S
C2380 C2383 1.386 . S
H2381 C2397 0.930 . S
H2382 C2398 0.931 . S
C2383 H2371 0.929 . S
C2383 C2377 1.390 . S
C2383 C2380 1.386 . S
C2384 C2379 1.490 . S
C2384 C2386 1.395 . S
C2384 C2387 1.403 . S
H2385 C2391 0.930 . S
C2386 H2372 0.930 . S
C2386 C2384 1.395 . S
C2386 C2389 1.403 . S
C2387 C2384 1.403 . S
C2387 C2388 1.524 . S
C2387 C2391 1.400 . S
C2388 H2373 0.960 . S
C2388 H2374 0.960 . S
C2388 H2375 0.960 . S
C2388 C2387 1.524 . S
C2389 C2386 1.403 . S
C2389 C2390 1.392 . S
C2389 C2393 1.495 . S
C2390 C2389 1.392 . S
C2390 C2391 1.385 . S
C2390 C2392 1.478 . S
C2391 H2385 0.930 . S
C2391 C2387 1.400 . S
C2391 C2390 1.385 . S
C2392 C2390 1.478 . S
C2392 C2394 1.381 . S
C2392 C2398 1.383 . S
C2393 C2389 1.495 . S
C2393 H2399 0.959 1_545 S
C2393 H2400 0.961 1_545 S
C2393 H2401 0.960 . S
C2394 C2392 1.381 . S
C2394 C2395 1.394 . S
C2394 H2402 0.930 . S
C2395 C2394 1.394 . S
C2395 C2396 1.383 . S
C2395 H2403 0.929 . S
C2396 C2395 1.383 . S
C2396 C2397 1.377 . S
C2397 H2381 0.930 . S
C2397 C2396 1.377 . S
C2397 C2398 1.379 . S
C2398 H2382 0.931 . S
C2398 C2392 1.383 . S
C2398 C2397 1.379 . S
H2399 C2393 0.959 1_565 S
H2400 C2393 0.961 1_565 S
H2401 C2393 0.960 . S
H2402 C2394 0.930 . S
H2403 C2395 0.929 . S
H2404 C2412 0.929 . S
H2405 C2414 0.930 . S
H2406 C2416 0.930 . S
H2407 C2419 0.929 . S
H2408 C2422 0.930 . S
H2409 C2424 0.960 . S
H2410 C2424 0.960 . S
H2411 C2424 0.960 . S
C2412 H2404 0.929 . S
C2412 C2413 1.377 . S
C2412 C2414 1.384 . S
C2413 C2412 1.377 . S
C2413 C2419 1.390 . S
C2414 H2405 0.930 . S
C2414 C2412 1.384 . S
C2414 C2415 1.372 . S
C2415 C2414 1.372 . S
C2415 C2416 1.400 . S
C2415 C2420 1.490 . S
C2416 H2406 0.930 . S
C2416 C2415 1.400 . S
C2416 C2419 1.386 . S
H2417 C2433 0.930 . S
H2418 C2434 0.931 . S
C2419 H2407 0.929 . S
C2419 C2413 1.390 . S
C2419 C2416 1.386 . S
C2420 C2415 1.490 . S
C2420 C2422 1.395 . S
C2420 C2423 1.403 . S
H2421 C2427 0.930 . S
C2422 H2408 0.930 . S
C2422 C2420 1.395 . S
C2422 C2425 1.403 . S
C2423 C2420 1.403 . S
C2423 C2424 1.524 . S
C2423 C2427 1.400 . S
C2424 H2409 0.960 . S
C2424 H2410 0.960 . S
C2424 H2411 0.960 . S
C2424 C2423 1.524 . S
C2425 C2422 1.403 . S
C2425 C2426 1.392 . S
C2425 C2429 1.495 . S
C2426 C2425 1.392 . S
C2426 C2427 1.385 . S
C2426 C2428 1.478 . S
C2427 H2421 0.930 . S
C2427 C2423 1.400 . S
C2427 C2426 1.385 . S
C2428 C2426 1.478 . S
C2428 C2430 1.381 . S
C2428 C2434 1.383 . S
C2429 C2425 1.495 . S
C2429 H2435 0.959 . S
C2429 H2436 0.961 . S
C2429 H2437 0.960 . S
C2430 C2428 1.381 . S
C2430 C2431 1.394 . S
C2430 H2438 0.930 . S
C2431 C2430 1.394 . S
C2431 C2432 1.383 . S
C2431 H2439 0.929 . S
C2432 C2431 1.383 . S
C2432 C2433 1.377 . S
C2433 H2417 0.930 . S
C2433 C2432 1.377 . S
C2433 C2434 1.379 . S
C2434 H2418 0.931 . S
C2434 C2428 1.383 . S
C2434 C2433 1.379 . S
H2435 C2429 0.959 . S
H2436 C2429 0.961 . S
H2437 C2429 0.960 . S
H2438 C2430 0.930 . S
H2439 C2431 0.929 . S
H2440 C2448 0.929 . S
H2441 C2450 0.930 . S
H2442 C2452 0.968 . S
H2443 C2455 0.929 . S
H2444 C2458 0.930 . S
H2445 C2460 0.960 . S
H2446 C2460 0.960 . S
H2447 C2460 0.960 . S
C2448 H2440 0.929 . S
C2448 C2449 1.377 . S
C2448 C2450 1.384 . S
C2449 C2448 1.377 . S
C2449 C2455 1.390 1_556 S
C2450 H2441 0.930 . S
C2450 C2448 1.384 . S
C2450 C2451 1.372 . S
C2451 C2450 1.372 . S
C2451 C2452 1.358 1_556 S
C2451 C2456 1.490 . S
C2452 H2442 0.968 . S
C2452 C2451 1.358 1_554 S
C2452 C2455 1.392 . S
H2453 C2469 0.930 1_554 S
H2454 C2470 0.931 1_554 S
C2455 H2443 0.929 . S
C2455 C2449 1.390 1_554 S
C2455 C2452 1.392 . S
C2456 C2451 1.490 . S
C2456 C2458 1.395 . S
C2456 C2459 1.403 . S
H2457 C2463 0.930 1_554 S
C2458 H2444 0.930 . S
C2458 C2456 1.395 . S
C2458 C2461 1.403 . S
C2459 C2456 1.403 . S
C2459 C2460 1.524 1_556 S
C2459 C2463 1.400 . S
C2460 H2445 0.960 . S
C2460 H2446 0.960 . S
C2460 H2447 0.960 . S
C2460 C2459 1.524 1_554 S
C2461 C2458 1.403 . S
C2461 C2462 1.392 . S
C2461 C2465 1.495 . S
C2462 C2461 1.392 . S
C2462 C2463 1.385 . S
C2462 C2464 1.478 . S
C2463 H2457 0.930 1_556 S
C2463 C2459 1.400 . S
C2463 C2462 1.385 . S
C2464 C2462 1.478 . S
C2464 C2466 1.381 . S
C2464 C2470 1.383 . S
C2465 C2461 1.495 . S
C2465 H2471 0.959 . S
C2465 H2472 0.961 . S
C2465 H2473 0.960 . S
C2466 C2464 1.381 . S
C2466 C2467 1.394 . S
C2466 H2474 0.930 . S
C2467 C2466 1.394 . S
C2467 C2468 1.383 . S
C2467 H2475 0.929 . S
C2468 C2467 1.383 . S
C2468 C2469 1.377 . S
C2469 H2453 0.930 1_556 S
C2469 C2468 1.377 . S
C2469 C2470 1.379 . S
C2470 H2454 0.931 1_556 S
C2470 C2464 1.383 . S
C2470 C2469 1.379 . S
H2471 C2465 0.959 . S
H2472 C2465 0.961 . S
H2473 C2465 0.960 . S
H2474 C2466 0.930 . S
H2475 C2467 0.929 . S
H2476 C2484 0.929 . S
H2477 C2486 0.930 . S
H2478 C2488 0.930 . S
H2479 C2491 0.929 . S
H2480 C2494 0.930 . S
H2481 C2496 0.960 . S
H2482 C2496 0.960 1_554 S
H2483 C2496 0.960 . S
C2484 H2476 0.929 . S
C2484 C2485 1.377 . S
C2484 C2486 1.384 . S
C2485 C2484 1.377 . S
C2485 C2491 1.390 1_554 S
C2486 H2477 0.930 . S
C2486 C2484 1.384 . S
C2486 C2487 1.372 1_554 S
C2487 C2486 1.372 1_556 S
C2487 C2488 1.400 . S
C2487 C2492 1.490 . S
C2488 H2478 0.930 . S
C2488 C2487 1.400 . S
C2488 C2491 1.386 . S
H2489 C2505 0.930 . S
H2490 C2506 0.931 . S
C2491 H2479 0.929 . S
C2491 C2485 1.390 1_556 S
C2491 C2488 1.386 . S
C2492 C2487 1.490 . S
C2492 C2494 1.395 . S
C2492 C2495 1.403 . S
H2493 C2499 0.930 . S
C2494 H2480 0.930 . S
C2494 C2492 1.395 . S
C2494 C2497 1.403 . S
C2495 C2492 1.403 . S
C2495 C2496 1.524 . S
C2495 C2499 1.400 . S
C2496 H2481 0.960 . S
C2496 H2482 0.960 1_556 S
C2496 H2483 0.960 . S
C2496 C2495 1.524 . S
C2497 C2494 1.403 . S
C2497 C2498 1.392 . S
C2497 C2501 1.495 . S
C2498 C2497 1.392 . S
C2498 C2499 1.385 . S
C2498 C2500 1.478 . S
C2499 H2493 0.930 . S
C2499 C2495 1.400 . S
C2499 C2498 1.385 . S
C2500 C2498 1.478 . S
C2500 C2502 1.381 . S
C2500 C2506 1.383 . S
C2501 C2497 1.495 . S
C2501 H2507 0.959 . S
C2501 H2508 0.961 . S
C2501 H2509 0.960 . S
C2502 C2500 1.381 . S
C2502 C2503 1.394 . S
C2502 H2510 0.948 . S
C2503 C2502 1.394 . S
C2503 C2504 1.383 . S
C2503 H2511 0.929 . S
C2504 C2503 1.383 . S
C2504 C2505 1.377 . S
C2505 H2489 0.930 . S
C2505 C2504 1.377 . S
C2505 C2506 1.379 . S
C2506 H2490 0.931 . S
C2506 C2500 1.383 . S
C2506 C2505 1.379 . S
H2507 C2501 0.959 . S
H2508 C2501 0.961 . S
H2509 C2501 0.960 . S
H2510 C2502 0.948 . S
H2511 C2503 0.929 . S
H2512 C2520 0.928 1_556 S
H2513 C2522 0.930 1_556 S
H2514 C2524 0.930 . S
H2515 C2527 0.929 . S
H2516 C2530 0.930 . S
H2517 C2532 0.960 . S
H2518 C2532 0.960 1_556 S
H2519 C2532 0.960 . S
C2520 H2512 0.928 1_554 S
C2520 C2521 1.379 . S
C2520 C2522 1.384 . S
C2521 C2520 1.379 . S
C2521 C2527 1.390 . S
C2522 H2513 0.930 1_554 S
C2522 C2520 1.384 . S
C2522 C2523 1.372 . S
C2523 C2522 1.372 . S
C2523 C2524 1.400 . S
C2523 C2528 1.490 . S
C2524 H2514 0.930 . S
C2524 C2523 1.400 . S
C2524 C2527 1.386 . S
H2525 C2541 0.930 . S
H2526 C2542 0.931 . S
C2527 H2515 0.929 . S
C2527 C2521 1.390 . S
C2527 C2524 1.386 . S
C2528 C2523 1.490 . S
C2528 C2530 1.395 . S
C2528 C2531 1.403 . S
H2529 C2535 0.930 . S
C2530 H2516 0.930 . S
C2530 C2528 1.395 . S
C2530 C2533 1.403 . S
C2531 C2528 1.403 . S
C2531 C2532 1.524 . S
C2531 C2535 1.400 . S
C2532 H2517 0.960 . S
C2532 H2518 0.960 1_554 S
C2532 H2519 0.960 . S
C2532 C2531 1.524 . S
C2533 C2530 1.403 . S
C2533 C2534 1.392 . S
C2533 C2537 1.495 . S
C2534 C2533 1.392 . S
C2534 C2535 1.385 . S
C2534 C2536 1.478 . S
C2535 H2529 0.930 . S
C2535 C2531 1.400 . S
C2535 C2534 1.385 . S
C2536 C2534 1.478 . S
C2536 C2538 1.381 . S
C2536 C2542 1.383 . S
C2537 C2533 1.495 . S
C2537 H2543 0.959 . S
C2537 H2544 0.961 . S
C2537 H2545 0.960 . S
C2538 C2536 1.381 . S
C2538 C2539 1.394 . S
C2538 H2546 0.930 . S
C2539 C2538 1.394 . S
C2539 C2540 1.383 . S
C2539 H2547 0.929 . S
C2540 C2539 1.383 . S
C2540 C2541 1.377 . S
C2541 H2525 0.930 . S
C2541 C2540 1.377 . S
C2541 C2542 1.379 . S
C2542 H2526 0.931 . S
C2542 C2536 1.383 . S
C2542 C2541 1.379 . S
H2543 C2537 0.959 . S
H2544 C2537 0.961 . S
H2545 C2537 0.960 . S
H2546 C2538 0.930 . S
H2547 C2539 0.929 . S
C829 C22 1.665 . S
C848 C699 1.665 1_545 S
C884 C725 1.768 . S
C865 C38 1.808 . S
C920 C657 1.766 1_565 S
C901 C75 1.758 . S
C937 C91 1.496 . S
C956 C680 1.510 . S
C973 C128 1.580 . S
C992 C814 1.592 1_554 S
C1009 C197 1.406 . S
C1028 C795 1.415 . S
C1064 C748 1.859 . S
C1045 C144 1.872 . S
C1081 C181 1.756 . S
C1100 C771 1.763 . S
C1136 C676 1.780 . S
C1117 C234 1.794 . S
C1172 C726 1.549 . S
C1153 C303 1.545 . S
C1189 C356 1.715 . S
C1208 C702 1.705 1_655 S
C1225 C287 1.859 . S
C1244 C768 1.862 . S
C1280 C791 1.612 . S
C1261 C393 1.616 . S
C1316 C817 1.821 1_565 S
C1297 C409 1.834 . S
C1333 C462 1.951 . S
C1352 C772 1.958 . S
C1388 C749 1.406 1_545 S
C1369 C446 1.391 . S
C1405 C499 1.571 . S
C1424 C722 1.567 . S
C1441 C552 1.379 . S
C1460 C703 1.400 . S
C1496 C679 1.662 1_556 S
C1477 C515 1.752 . S
C1513 C568 2.013 . S
C1532 C656 2.011 1_556 S
C1568 C745 1.874 . S
C1549 C340 1.875 . S
C1604 C818 1.440 . S
C1585 C621 1.450 . S
C1621 C250 1.609 . S
C1640 C794 1.601 . S
C1657 C605 1.791 . S
C1676 C653 1.775 . S
C1712 C655 1.364 . S
C1693 C39 1.364 . S
C1729 C29 1.193 . S
C1748 C678 1.171 . S
C1784 C700 1.239 . S
C1765 C92 1.206 . S
C1820 C721 1.096 . S
C1801 C82 1.100 . S
C1837 C145 1.484 . S
C1856 C652 1.504 . S
C1873 C188 1.187 . S
C1892 C675 1.195 . S
C1928 C701 1.191 . S
C1909 C135 1.244 . S
C1945 C198 1.375 . S
C1964 C723 1.372 . S
C1981 C251 1.273 . S
C2000 C654 1.267 . S
C2036 C698 1.126 . S
C2017 C294 1.122 . S
C2053 C347 1.241 . S
C2072 C724 1.184 . S
C2089 C304 1.260 . S
C2108 C746 1.247 . S
C2144 C770 1.312 . S
C2125 C410 1.373 . S
C2161 C400 1.213 . S
C2180 C747 1.213 . S
C2197 C453 0.934 . S
C2216 C792 0.941 . S
C2233 C463 1.399 . S
C2252 C813 1.416 . S
C2269 C516 1.461 . S
C2288 C767 1.470 . S
C2324 C744 1.509 . S
C2305 C569 1.495 1_565 S
C2341 C506 1.182 . S
C2360 C793 1.119 . S
C2396 C815 1.126 . S
C2377 C559 1.142 . S
C2432 C769 1.245 . S
C2413 C357 1.264 . S
C2468 C790 1.125 . S
C2449 C612 1.118 . S
C2504 C816 1.165 . S
C2485 C241 1.205 . S
C2521 C622 1.150 . S
C2540 C677 1.173 . S
