# Generated by pormake.
# Topology iac, (4,6)-cn, num edge types: 1
# Building blocks:
#     Node 0, Type 0, BuildingBlock: AZAVOO_clean_sbu_0, # of connection points: 4
#     Node 1, Type 0, BuildingBlock: AZAVOO_clean_sbu_0, # of connection points: 4
#     Node 2, Type 0, BuildingBlock: AZAVOO_clean_sbu_0, # of connection points: 4
#     Node 3, Type 0, BuildingBlock: AZAVOO_clean_sbu_0, # of connection points: 4
#     Node 4, Type 0, BuildingBlock: AZAVOO_clean_sbu_0, # of connection points: 4
#     Node 5, Type 0, BuildingBlock: AZAVOO_clean_sbu_0, # of connection points: 4
#     Node 6, Type 0, BuildingBlock: AZAVOO_clean_sbu_0, # of connection points: 4
#     Node 7, Type 0, BuildingBlock: AZAVOO_clean_sbu_0, # of connection points: 4
#     Node 8, Type 0, BuildingBlock: AZAVOO_clean_sbu_0, # of connection points: 4
#     Node 9, Type 0, BuildingBlock: AZAVOO_clean_sbu_0, # of connection points: 4
#     Node 10, Type 0, BuildingBlock: AZAVOO_clean_sbu_0, # of connection points: 4
#     Node 11, Type 0, BuildingBlock: AZAVOO_clean_sbu_0, # of connection points: 4
#     Node 12, Type 0, BuildingBlock: AZAVOO_clean_sbu_0, # of connection points: 4
#     Node 13, Type 0, BuildingBlock: AZAVOO_clean_sbu_0, # of connection points: 4
#     Node 14, Type 0, BuildingBlock: AZAVOO_clean_sbu_0, # of connection points: 4
#     Node 15, Type 0, BuildingBlock: AZAVOO_clean_sbu_0, # of connection points: 4
#     Node 16, Type 0, BuildingBlock: AZAVOO_clean_sbu_0, # of connection points: 4
#     Node 17, Type 0, BuildingBlock: AZAVOO_clean_sbu_0, # of connection points: 4
#     Node 18, Type 0, BuildingBlock: AZAVOO_clean_sbu_0, # of connection points: 4
#     Node 19, Type 0, BuildingBlock: AZAVOO_clean_sbu_0, # of connection points: 4
#     Node 20, Type 0, BuildingBlock: AZAVOO_clean_sbu_0, # of connection points: 4
#     Node 21, Type 0, BuildingBlock: AZAVOO_clean_sbu_0, # of connection points: 4
#     Node 22, Type 0, BuildingBlock: AZAVOO_clean_sbu_0, # of connection points: 4
#     Node 23, Type 0, BuildingBlock: AZAVOO_clean_sbu_0, # of connection points: 4
#     Node 24, Type 1, BuildingBlock: VOLQOD_clean_sbu_1, # of connection points: 6
#     Node 25, Type 1, BuildingBlock: VOLQOD_clean_sbu_1, # of connection points: 6
#     Node 26, Type 1, BuildingBlock: VOLQOD_clean_sbu_1, # of connection points: 6
#     Node 27, Type 1, BuildingBlock: VOLQOD_clean_sbu_1, # of connection points: 6
#     Node 28, Type 1, BuildingBlock: VOLQOD_clean_sbu_1, # of connection points: 6
#     Node 29, Type 1, BuildingBlock: VOLQOD_clean_sbu_1, # of connection points: 6
#     Node 30, Type 1, BuildingBlock: VOLQOD_clean_sbu_1, # of connection points: 6
#     Node 31, Type 1, BuildingBlock: VOLQOD_clean_sbu_1, # of connection points: 6
#     Node 32, Type 1, BuildingBlock: VOLQOD_clean_sbu_1, # of connection points: 6
#     Node 33, Type 1, BuildingBlock: VOLQOD_clean_sbu_1, # of connection points: 6
#     Node 34, Type 1, BuildingBlock: VOLQOD_clean_sbu_1, # of connection points: 6
#     Node 35, Type 1, BuildingBlock: VOLQOD_clean_sbu_1, # of connection points: 6
#     Node 36, Type 1, BuildingBlock: VOLQOD_clean_sbu_1, # of connection points: 6
#     Node 37, Type 1, BuildingBlock: VOLQOD_clean_sbu_1, # of connection points: 6
#     Node 38, Type 1, BuildingBlock: VOLQOD_clean_sbu_1, # of connection points: 6
#     Node 39, Type 1, BuildingBlock: VOLQOD_clean_sbu_1, # of connection points: 6
#     Edge 40, Type (0, 1), BuildingBlock: AJUNOK_clean_linker_0, # of connection points: 2
#     Edge 41, Type (0, 1), BuildingBlock: AJUNOK_clean_linker_0, # of connection points: 2
#     Edge 42, Type (0, 1), BuildingBlock: AJUNOK_clean_linker_0, # of connection points: 2
#     Edge 43, Type (0, 1), BuildingBlock: AJUNOK_clean_linker_0, # of connection points: 2
#     Edge 44, Type (0, 1), BuildingBlock: AJUNOK_clean_linker_0, # of connection points: 2
#     Edge 45, Type (0, 1), BuildingBlock: AJUNOK_clean_linker_0, # of connection points: 2
#     Edge 46, Type (0, 1), BuildingBlock: AJUNOK_clean_linker_0, # of connection points: 2
#     Edge 47, Type (0, 1), BuildingBlock: AJUNOK_clean_linker_0, # of connection points: 2
#     Edge 48, Type (0, 1), BuildingBlock: AJUNOK_clean_linker_0, # of connection points: 2
#     Edge 49, Type (0, 1), BuildingBlock: AJUNOK_clean_linker_0, # of connection points: 2
#     Edge 50, Type (0, 1), BuildingBlock: AJUNOK_clean_linker_0, # of connection points: 2
#     Edge 51, Type (0, 1), BuildingBlock: AJUNOK_clean_linker_0, # of connection points: 2
#     Edge 52, Type (0, 1), BuildingBlock: AJUNOK_clean_linker_0, # of connection points: 2
#     Edge 53, Type (0, 1), BuildingBlock: AJUNOK_clean_linker_0, # of connection points: 2
#     Edge 54, Type (0, 1), BuildingBlock: AJUNOK_clean_linker_0, # of connection points: 2
#     Edge 55, Type (0, 1), BuildingBlock: AJUNOK_clean_linker_0, # of connection points: 2
#     Edge 56, Type (0, 1), BuildingBlock: AJUNOK_clean_linker_0, # of connection points: 2
#     Edge 57, Type (0, 1), BuildingBlock: AJUNOK_clean_linker_0, # of connection points: 2
#     Edge 58, Type (0, 1), BuildingBlock: AJUNOK_clean_linker_0, # of connection points: 2
#     Edge 59, Type (0, 1), BuildingBlock: AJUNOK_clean_linker_0, # of connection points: 2
#     Edge 60, Type (0, 1), BuildingBlock: AJUNOK_clean_linker_0, # of connection points: 2
#     Edge 61, Type (0, 1), BuildingBlock: AJUNOK_clean_linker_0, # of connection points: 2
#     Edge 62, Type (0, 1), BuildingBlock: AJUNOK_clean_linker_0, # of connection points: 2
#     Edge 63, Type (0, 1), BuildingBlock: AJUNOK_clean_linker_0, # of connection points: 2
#     Edge 64, Type (0, 1), BuildingBlock: AJUNOK_clean_linker_0, # of connection points: 2
#     Edge 65, Type (0, 1), BuildingBlock: AJUNOK_clean_linker_0, # of connection points: 2
#     Edge 66, Type (0, 1), BuildingBlock: AJUNOK_clean_linker_0, # of connection points: 2
#     Edge 67, Type (0, 1), BuildingBlock: AJUNOK_clean_linker_0, # of connection points: 2
#     Edge 68, Type (0, 1), BuildingBlock: AJUNOK_clean_linker_0, # of connection points: 2
#     Edge 69, Type (0, 1), BuildingBlock: AJUNOK_clean_linker_0, # of connection points: 2
#     Edge 70, Type (0, 1), BuildingBlock: AJUNOK_clean_linker_0, # of connection points: 2
#     Edge 71, Type (0, 1), BuildingBlock: AJUNOK_clean_linker_0, # of connection points: 2
#     Edge 72, Type (0, 1), BuildingBlock: AJUNOK_clean_linker_0, # of connection points: 2
#     Edge 73, Type (0, 1), BuildingBlock: AJUNOK_clean_linker_0, # of connection points: 2
#     Edge 74, Type (0, 1), BuildingBlock: AJUNOK_clean_linker_0, # of connection points: 2
#     Edge 75, Type (0, 1), BuildingBlock: AJUNOK_clean_linker_0, # of connection points: 2
#     Edge 76, Type (0, 1), BuildingBlock: AJUNOK_clean_linker_0, # of connection points: 2
#     Edge 77, Type (0, 1), BuildingBlock: AJUNOK_clean_linker_0, # of connection points: 2
#     Edge 78, Type (0, 1), BuildingBlock: AJUNOK_clean_linker_0, # of connection points: 2
#     Edge 79, Type (0, 1), BuildingBlock: AJUNOK_clean_linker_0, # of connection points: 2
#     Edge 80, Type (0, 1), BuildingBlock: AJUNOK_clean_linker_0, # of connection points: 2
#     Edge 81, Type (0, 1), BuildingBlock: AJUNOK_clean_linker_0, # of connection points: 2
#     Edge 82, Type (0, 1), BuildingBlock: AJUNOK_clean_linker_0, # of connection points: 2
#     Edge 83, Type (0, 1), BuildingBlock: AJUNOK_clean_linker_0, # of connection points: 2
#     Edge 84, Type (0, 1), BuildingBlock: AJUNOK_clean_linker_0, # of connection points: 2
#     Edge 85, Type (0, 1), BuildingBlock: AJUNOK_clean_linker_0, # of connection points: 2
#     Edge 86, Type (0, 1), BuildingBlock: AJUNOK_clean_linker_0, # of connection points: 2
#     Edge 87, Type (0, 1), BuildingBlock: AJUNOK_clean_linker_0, # of connection points: 2
#     Edge 88, Type (0, 1), BuildingBlock: AJUNOK_clean_linker_0, # of connection points: 2
#     Edge 89, Type (0, 1), BuildingBlock: AJUNOK_clean_linker_0, # of connection points: 2
#     Edge 90, Type (0, 1), BuildingBlock: AJUNOK_clean_linker_0, # of connection points: 2
#     Edge 91, Type (0, 1), BuildingBlock: AJUNOK_clean_linker_0, # of connection points: 2
#     Edge 92, Type (0, 1), BuildingBlock: AJUNOK_clean_linker_0, # of connection points: 2
#     Edge 93, Type (0, 1), BuildingBlock: AJUNOK_clean_linker_0, # of connection points: 2
#     Edge 94, Type (0, 1), BuildingBlock: AJUNOK_clean_linker_0, # of connection points: 2
#     Edge 95, Type (0, 1), BuildingBlock: AJUNOK_clean_linker_0, # of connection points: 2
#     Edge 96, Type (0, 1), BuildingBlock: AJUNOK_clean_linker_0, # of connection points: 2
#     Edge 97, Type (0, 1), BuildingBlock: AJUNOK_clean_linker_0, # of connection points: 2
#     Edge 98, Type (0, 1), BuildingBlock: AJUNOK_clean_linker_0, # of connection points: 2
#     Edge 99, Type (0, 1), BuildingBlock: AJUNOK_clean_linker_0, # of connection points: 2
#     Edge 100, Type (0, 1), BuildingBlock: AJUNOK_clean_linker_0, # of connection points: 2
#     Edge 101, Type (0, 1), BuildingBlock: AJUNOK_clean_linker_0, # of connection points: 2
#     Edge 102, Type (0, 1), BuildingBlock: AJUNOK_clean_linker_0, # of connection points: 2
#     Edge 103, Type (0, 1), BuildingBlock: AJUNOK_clean_linker_0, # of connection points: 2
#     Edge 104, Type (0, 1), BuildingBlock: AJUNOK_clean_linker_0, # of connection points: 2
#     Edge 105, Type (0, 1), BuildingBlock: AJUNOK_clean_linker_0, # of connection points: 2
#     Edge 106, Type (0, 1), BuildingBlock: AJUNOK_clean_linker_0, # of connection points: 2
#     Edge 107, Type (0, 1), BuildingBlock: AJUNOK_clean_linker_0, # of connection points: 2
#     Edge 108, Type (0, 1), BuildingBlock: AJUNOK_clean_linker_0, # of connection points: 2
#     Edge 109, Type (0, 1), BuildingBlock: AJUNOK_clean_linker_0, # of connection points: 2
#     Edge 110, Type (0, 1), BuildingBlock: AJUNOK_clean_linker_0, # of connection points: 2
#     Edge 111, Type (0, 1), BuildingBlock: AJUNOK_clean_linker_0, # of connection points: 2
#     Edge 112, Type (0, 1), BuildingBlock: AJUNOK_clean_linker_0, # of connection points: 2
#     Edge 113, Type (0, 1), BuildingBlock: AJUNOK_clean_linker_0, # of connection points: 2
#     Edge 114, Type (0, 1), BuildingBlock: AJUNOK_clean_linker_0, # of connection points: 2
#     Edge 115, Type (0, 1), BuildingBlock: AJUNOK_clean_linker_0, # of connection points: 2
#     Edge 116, Type (0, 1), BuildingBlock: AJUNOK_clean_linker_0, # of connection points: 2
#     Edge 117, Type (0, 1), BuildingBlock: AJUNOK_clean_linker_0, # of connection points: 2
#     Edge 118, Type (0, 1), BuildingBlock: AJUNOK_clean_linker_0, # of connection points: 2
#     Edge 119, Type (0, 1), BuildingBlock: AJUNOK_clean_linker_0, # of connection points: 2
#     Edge 120, Type (0, 1), BuildingBlock: AJUNOK_clean_linker_0, # of connection points: 2
#     Edge 121, Type (0, 1), BuildingBlock: AJUNOK_clean_linker_0, # of connection points: 2
#     Edge 122, Type (0, 1), BuildingBlock: AJUNOK_clean_linker_0, # of connection points: 2
#     Edge 123, Type (0, 1), BuildingBlock: AJUNOK_clean_linker_0, # of connection points: 2
#     Edge 124, Type (0, 1), BuildingBlock: AJUNOK_clean_linker_0, # of connection points: 2
#     Edge 125, Type (0, 1), BuildingBlock: AJUNOK_clean_linker_0, # of connection points: 2
#     Edge 126, Type (0, 1), BuildingBlock: AJUNOK_clean_linker_0, # of connection points: 2
#     Edge 127, Type (0, 1), BuildingBlock: AJUNOK_clean_linker_0, # of connection points: 2
#     Edge 128, Type (0, 1), BuildingBlock: AJUNOK_clean_linker_0, # of connection points: 2
#     Edge 129, Type (0, 1), BuildingBlock: AJUNOK_clean_linker_0, # of connection points: 2
#     Edge 130, Type (0, 1), BuildingBlock: AJUNOK_clean_linker_0, # of connection points: 2
#     Edge 131, Type (0, 1), BuildingBlock: AJUNOK_clean_linker_0, # of connection points: 2
#     Edge 132, Type (0, 1), BuildingBlock: AJUNOK_clean_linker_0, # of connection points: 2
#     Edge 133, Type (0, 1), BuildingBlock: AJUNOK_clean_linker_0, # of connection points: 2
#     Edge 134, Type (0, 1), BuildingBlock: AJUNOK_clean_linker_0, # of connection points: 2
#     Edge 135, Type (0, 1), BuildingBlock: AJUNOK_clean_linker_0, # of connection points: 2
# Relax obj value: 0.336
# Max RMSD: 0.295
# Mean RMSD: 0.201
data_MOF--net-iac--node1-AZAVOO_clean_sbu_0--node2-VOLQOD_clean_sbu_1--edge1-AJUNOK_clean_linker_0
_symmetry_space_group_name_H-M    P1
_symmetry_Int_Tables_number       1
_symmetry_cell_setting            triclinic
loop_
_symmetry_equiv_pos_as_xyz
'x, y, z'
_cell_length_a     42.529734
_cell_length_b     39.889376
_cell_length_c     41.129616
_cell_angle_alpha  93.152205
_cell_angle_beta   89.776212
_cell_angle_gamma 92.089158
loop_
_atom_site_label
_atom_site_type_symbol
_atom_site_fract_x
_atom_site_fract_y
_atom_site_fract_z
_atom_type_partial_charge
Mg0 Mg 0.96732 0.26961 0.15914 0.0
O1 O 0.96932 0.22198 0.12549 0.0
O2 O 0.92884 0.22411 0.09081 0.0
Mg3 Mg 0.90279 0.27186 0.10213 0.0
C4 C 0.95247 0.20948 0.10179 0.0
C5 C 0.02226 0.28787 0.19991 0.0
O6 O -0.00085 0.30477 0.21329 0.0
O7 O 0.98577 0.30049 0.11952 0.0
O8 O 0.94641 0.30251 0.08429 0.0
O9 O 0.93977 0.24095 0.19311 0.0
O10 O 0.91972 0.268 0.15261 0.0
C11 C 0.97467 0.31003 0.09316 0.0
C12 C 0.91569 0.24728 0.17557 0.0
O13 O 0.01647 0.26679 0.1763 0.0
Mg14 Mg 0.0094 0.71126 0.33223 0.0
O15 O 0.00022 0.75528 0.37025 0.0
O16 O 0.94911 0.74948 0.38361 0.0
Mg17 Mg 0.92597 0.70639 0.35279 0.0
C18 C 0.97598 0.76464 0.38661 0.0
C19 C 0.07183 0.7018 0.30753 0.0
O20 O 0.05161 0.68275 0.29011 0.0
O21 O 0.00706 0.67388 0.37212 0.0
O22 O 0.95512 0.66939 0.37988 0.0
O23 O 7e-05 0.74414 0.29212 0.0
O24 O 0.96368 0.71393 0.31745 0.0
C25 C 0.98305 0.66055 0.3857 0.0
C26 C 0.97077 0.73641 0.297 0.0
O27 O 0.06204 0.71695 0.33346 0.0
Mg28 Mg 0.48302 0.78288 0.66159 0.0
O29 O 0.48445 0.74159 0.62 0.0
O30 O 0.43926 0.74519 0.59256 0.0
Mg31 Mg 0.41214 0.78949 0.61344 0.0
C32 C 0.46525 0.73119 0.5974 0.0
C33 C 0.54115 0.80067 0.69803 0.0
O34 O 0.51848 0.81635 0.71361 0.0
O35 O 0.4957 0.82254 0.6269 0.0
O36 O 0.45183 0.82683 0.59826 0.0
O37 O 0.45867 0.74699 0.6931 0.0
O38 O 0.43485 0.77965 0.6597 0.0
C39 C 0.48032 0.83593 0.60495 0.0
C40 C 0.43298 0.7558 0.67965 0.0
O41 O 0.53422 0.7809 0.67362 0.0
Mg42 Mg 0.48113 0.20383 0.83722 0.0
O43 O 0.48479 0.24679 0.87733 0.0
O44 O 0.44264 0.24131 0.90967 0.0
Mg45 Mg 0.41286 0.19595 0.89071 0.0
C46 C 0.46812 0.25672 0.90173 0.0
C47 C 0.53779 0.21172 0.79172 0.0
O48 O 0.51633 0.19901 0.77122 0.0
O49 O 0.49523 0.16486 0.8726 0.0
O50 O 0.45228 0.16099 0.9039 0.0
O51 O 0.45572 0.23744 0.80682 0.0
O52 O 0.4325 0.20419 0.84188 0.0
C53 C 0.48007 0.15235 0.89616 0.0
C54 C 0.43049 0.22805 0.822 0.0
O55 O 0.53123 0.21458 0.8219 0.0
Mg56 Mg 0.11119 0.00453 0.2702 0.0
O57 O 0.14019 0.05485 0.27379 0.0
O58 O 0.17326 0.05103 0.31563 0.0
Mg59 Mg 0.16517 0.00083 0.33828 0.0
C60 C 0.16236 0.06711 0.29243 0.0
C61 C 0.07349 0.98491 0.21215 0.0
O62 O 0.06509 0.96519 0.23548 0.0
O63 O 0.15304 0.97952 0.24884 0.0
O64 O 0.18503 0.97515 0.29097 0.0
O65 O 0.0744 0.02539 0.30245 0.0
O66 O 0.11624 0.00091 0.32019 0.0
C67 C 0.17853 0.97016 0.26071 0.0
C68 C 0.09069 0.01647 0.32686 0.0
O69 O 0.09348 0.00889 0.21856 0.0
Mg70 Mg 0.25859 0.90611 0.51028 0.0
O71 O 0.26709 0.87741 0.46135 0.0
O72 O 0.31217 0.85121 0.46723 0.0
Mg73 Mg 0.3327 0.86484 0.51759 0.0
C74 C 0.28856 0.8583 0.45011 0.0
C75 C 0.19502 0.92548 0.52635 0.0
O76 O 0.21309 0.93497 0.55128 0.0
O77 O 0.24629 0.85802 0.53335 0.0
O78 O 0.29214 0.83508 0.54206 0.0
O79 O 0.282 0.9518 0.4928 0.0
O80 O 0.30611 0.91126 0.51675 0.0
C81 C 0.2622 0.83515 0.54488 0.0
C82 C 0.30785 0.93906 0.50208 0.0
O83 O 0.20749 0.912 0.50102 0.0
Mg84 Mg 0.40039 0.02237 0.78477 0.0
O85 O 0.35635 0.99087 0.76862 0.0
O86 O 0.33111 0.97853 0.81483 0.0
Mg87 Mg 0.35841 0.00094 0.85857 0.0
C88 C 0.33319 0.97742 0.78378 0.0
C89 C 0.43556 0.05749 0.73331 0.0
O90 O 0.45365 0.06131 0.75917 0.0
O91 O 0.36892 0.06501 0.79615 0.0
O92 O 0.34306 0.05139 0.84102 0.0
O93 O 0.42752 0.9761 0.78492 0.0
O94 O 0.39961 -0.00264 0.82638 0.0
C95 C 0.34838 0.07106 0.81804 0.0
C96 C 0.41546 0.97295 0.81358 0.0
O97 O 0.40945 0.04127 0.73528 0.0
Mg98 Mg 0.25263 0.10146 0.02382 0.0
O99 O 0.25597 0.13721 0.07028 0.0
O100 O 0.30164 0.16648 0.06569 0.0
Mg101 Mg 0.3259 0.1508 0.01816 0.0
C102 C 0.27633 0.15952 0.08108 0.0
C103 C 0.1932 0.05917 0.01674 0.0
O104 O 0.21547 0.04007 0.00479 0.0
O105 O 0.23984 0.14591 -0.00453 0.0
O106 O 0.28548 0.17443 0.99055 0.0
O107 O 0.27812 0.06085 0.04659 0.0
O108 O 0.30124 0.10124 0.01977 0.0
C109 C 0.25594 0.17062 0.98503 0.0
C110 C 0.30387 0.07449 0.03569 0.0
O111 O 0.20091 0.08782 0.03009 0.0
Mg112 Mg 0.77631 0.41682 0.01084 0.0
O113 O 0.77041 0.38519 0.96336 0.0
O114 O 0.80838 0.34788 0.96118 0.0
Mg115 Mg 0.83853 0.35721 0.00682 0.0
C116 C 0.78434 0.36077 0.94897 0.0
C117 C 0.71497 0.43976 0.03628 0.0
O118 O 0.73344 0.44329 0.06187 0.0
O119 O 0.75858 0.37338 0.03829 0.0
O120 O 0.79693 0.3371 0.03824 0.0
O121 O 0.8045 0.45446 0.9858 0.0
O122 O 0.82386 0.41033 0.00862 0.0
C123 C 0.76925 0.34583 0.04649 0.0
C124 C 0.82831 0.43619 0.99128 0.0
O125 O 0.7267 0.43208 0.00861 0.0
Mg126 Mg 0.91474 0.51108 0.27746 0.0
O127 O 0.8711 0.4769 0.26496 0.0
O128 O 0.83812 0.48343 0.30745 0.0
Mg129 Mg 0.86021 0.52016 0.34554 0.0
C130 C 0.84489 0.4706 0.27926 0.0
C131 C 0.96302 0.50977 0.22403 0.0
O132 O 0.98017 0.50699 0.25018 0.0
O133 O 0.88632 0.55516 0.26617 0.0
O134 O 0.85318 0.55997 0.30816 0.0
O135 O 0.93759 0.46932 0.29962 0.0
O136 O 0.90582 0.50459 0.32563 0.0
C137 C 0.86366 0.56939 0.28086 0.0
C138 C 0.92212 0.47788 0.32575 0.0
O139 O 0.93326 0.5096 0.22651 0.0
Mg140 Mg 0.77318 0.62847 0.48991 0.0
O141 O 0.76908 0.67306 0.52657 0.0
O142 O 0.81632 0.69918 0.53132 0.0
Mg143 Mg 0.85024 0.67035 0.498 0.0
C144 C 0.78714 0.69677 0.53864 0.0
C145 C 0.71254 0.59041 0.4821 0.0
O146 O 0.73489 0.56857 0.47869 0.0
O147 O 0.77449 0.66497 0.44977 0.0
O148 O 0.82252 0.68898 0.45436 0.0
O149 O 0.78433 0.59507 0.5291 0.0
O150 O 0.82021 0.62423 0.5025 0.0
C151 C 0.7957 0.68568 0.44035 0.0
C152 C 0.81358 0.60396 0.5253 0.0
O153 O 0.72042 0.62134 0.48639 0.0
Mg154 Mg 0.62214 0.53159 0.79634 0.0
O155 O 0.6476 0.58269 0.79573 0.0
O156 O 0.68337 0.58558 0.83549 0.0
Mg157 Mg 0.67999 0.53585 0.86096 0.0
C158 C 0.66938 0.59855 0.81209 0.0
C159 C 0.57473 0.52396 0.74205 0.0
O160 O 0.55954 0.51119 0.76663 0.0
O161 O 0.66385 0.50664 0.77396 0.0
O162 O 0.69794 0.50551 0.81478 0.0
O163 O 0.58679 0.55239 0.8297 0.0
O164 O 0.63019 0.52918 0.84568 0.0
C165 C 0.68993 0.49789 0.78524 0.0
C166 C 0.60451 0.54411 0.8533 0.0
O167 O 0.6022 0.5368 0.74663 0.0
Mg168 Mg 0.98304 0.72297 0.8419 0.0
O169 O 0.97438 0.77164 0.87156 0.0
O170 O 0.92725 0.76784 0.89498 0.0
Mg171 Mg 0.90421 0.71742 0.877 0.0
C172 C 0.95349 0.78353 0.89069 0.0
C173 C 0.04095 0.74598 0.80763 0.0
O174 O 0.02255 0.73288 0.78435 0.0
O175 O -0.00966 0.69912 0.8893 0.0
O176 O 0.94097 0.69284 0.90767 0.0
O177 O 0.96197 0.74065 0.79787 0.0
O178 O 0.93544 0.71203 0.8342 0.0
C179 C 0.97054 0.68891 0.91032 0.0
C180 C 0.93576 0.72676 0.8071 0.0
O181 O 0.03299 0.74238 0.83705 0.0
Mg182 Mg -0.00223 0.2481 0.65445 0.0
O183 O 0.984 0.19413 0.63604 0.0
O184 O 0.93556 0.18912 0.61479 0.0
Mg185 Mg 0.9248 0.24365 0.60543 0.0
C186 C 0.96084 0.17623 0.6242 0.0
C187 C 0.04139 0.20756 0.69301 0.0
O188 O 0.01335 0.19585 0.70112 0.0
O189 O 0.01677 0.26226 0.60486 0.0
O190 O 0.97356 0.24132 0.58406 0.0
O191 O 0.96777 0.24377 0.69791 0.0
O192 O 0.95008 0.26128 0.65121 0.0
C193 C -0.00704 0.26611 0.58711 0.0
C194 C 0.9448 0.25363 0.68081 0.0
O195 O 0.04382 0.22955 0.67178 0.0
Mg196 Mg 0.471 0.28557 0.35704 0.0
O197 O 0.48988 0.32049 0.39828 0.0
O198 O 0.45129 0.32444 0.43509 0.0
Mg199 Mg 0.40576 0.30097 0.41306 0.0
C200 C 0.47988 0.32946 0.42651 0.0
C201 C 0.52384 0.29103 0.30993 0.0
O202 O 0.49889 0.29305 0.29154 0.0
O203 O 0.47251 0.24367 0.39216 0.0
O204 O 0.42876 0.25179 0.42192 0.0
O205 O 0.45446 0.32671 0.32817 0.0
O206 O 0.4259 0.29976 0.36416 0.0
C207 C 0.45288 0.23495 0.41413 0.0
C208 C 0.42783 0.32201 0.34275 0.0
O209 O 0.52048 0.28241 0.33908 0.0
Mg210 Mg 0.51566 0.73938 0.12379 0.0
O211 O 0.49754 0.68484 0.12849 0.0
O212 O 0.44643 0.67717 0.11675 0.0
Mg213 Mg 0.43392 0.72579 0.093 0.0
C214 C 0.47251 0.6661 0.12631 0.0
C215 C 0.56996 0.71569 0.16477 0.0
O216 O 0.546 0.71094 0.18445 0.0
O217 O 0.52294 0.72978 0.06916 0.0
O218 O 0.4753 0.71155 0.06073 0.0
O219 O 0.49488 0.75546 0.17134 0.0
O220 O 0.46926 0.75538 0.12446 0.0
C221 C 0.49643 0.73403 0.05613 0.0
C222 C 0.46967 0.76155 0.15549 0.0
O223 O 0.56488 0.72562 0.1365 0.0
Mg224 Mg 0.90063 0.06545 0.74701 0.0
O225 O 0.87185 0.01731 0.74931 0.0
O226 O 0.84479 0.01352 0.79545 0.0
Mg227 Mg 0.85821 0.06239 0.82505 0.0
C228 C 0.85253 0.00177 0.7672 0.0
C229 C 0.93705 0.03677 0.68849 0.0
O230 O 0.9594 0.04422 0.70988 0.0
O231 O 0.8544 0.09094 0.73651 0.0
O232 O 0.83231 0.08813 0.78581 0.0
O233 O 0.93996 0.04324 0.7733 0.0
O234 O 0.9021 0.07166 0.79784 0.0
C235 C 0.83155 0.09642 0.75631 0.0
C236 C 0.92693 0.05456 0.79989 0.0
O237 O 0.90956 0.04708 0.69451 0.0
Mg238 Mg 0.77004 0.13636 0.47971 0.0
O239 O 0.77853 0.16962 0.525 0.0
O240 O 0.82463 0.19712 0.52309 0.0
Mg241 Mg 0.84928 0.17269 0.47805 0.0
C242 C 0.79802 0.19194 0.5366 0.0
C243 C 0.71474 0.11972 0.52335 0.0
O244 O 0.73865 0.10847 0.53904 0.0
O245 O 0.7653 0.1833 0.45215 0.0
O246 O 0.81552 0.20128 0.44688 0.0
O247 O 0.78856 0.09183 0.5001 0.0
O248 O 0.81751 0.12688 0.47151 0.0
C249 C 0.78616 0.20349 0.44095 0.0
C250 C 0.81516 0.09924 0.48643 0.0
O251 O 0.71945 0.13369 0.49655 0.0
Mg252 Mg 0.61381 0.98217 0.26007 0.0
O253 O 0.62797 0.03746 0.25986 0.0
O254 O 0.65016 0.05207 0.30792 0.0
Mg255 Mg 0.64837 0.00682 0.33946 0.0
C256 C 0.6415 0.05909 0.27949 0.0
C257 C 0.57885 0.96816 0.19952 0.0
O258 O 0.56353 0.95277 0.22253 0.0
O259 O 0.66468 0.96936 0.25469 0.0
O260 O 0.68327 0.9804 0.30509 0.0
O261 O 0.5672 0.99447 0.28077 0.0
O262 O 0.60969 0.98465 0.30961 0.0
C263 C 0.68678 0.96922 0.27564 0.0
C264 C 0.58089 0.99309 0.30865 0.0
O265 O 0.60526 0.98249 0.20638 0.0
Mg266 Mg 0.7456 0.84485 0.01432 0.0
O267 O 0.76576 0.86089 0.96639 0.0
O268 O 0.81733 0.85311 0.96137 0.0
Mg269 Mg 0.8312 0.82706 0.00747 0.0
C270 C 0.79135 0.86292 0.95026 0.0
C271 C 0.6916 0.88065 0.98456 0.0
O272 O 0.7151 0.90293 0.98409 0.0
O273 O 0.74727 0.79116 0.99237 0.0
O274 O 0.79702 0.7848 0.98805 0.0
O275 O 0.75901 0.89467 0.03725 0.0
O276 O 0.79141 0.85235 0.03401 0.0
C277 C 0.7719 0.77948 0.00405 0.0
C278 C 0.78701 0.8838 0.04084 0.0
O279 O 0.69638 0.85209 -0.00444 0.0
Mg280 Mg 0.28664 0.61979 0.96366 0.0
O281 O 0.29074 0.65121 0.0114 0.0
O282 O 0.33821 0.67649 0.01353 0.0
Mg283 Mg 0.36593 0.65671 0.96878 0.0
C284 C 0.31072 0.67171 0.02534 0.0
C285 C 0.22731 0.58138 0.97086 0.0
O286 O 0.24685 0.56115 0.95561 0.0
O287 O 0.28338 0.66817 0.93809 0.0
O288 O 0.3336 0.6875 0.93787 0.0
O289 O 0.30337 0.57546 0.98572 0.0
O290 O 0.33472 0.61139 0.96071 0.0
C291 C 0.30465 0.68969 0.93016 0.0
C292 C 0.33128 0.58405 0.976 0.0
O293 O 0.23498 0.61251 0.97418 0.0
Mg294 Mg 0.15545 0.48106 0.75051 0.0
O295 O 0.15841 0.53739 0.76202 0.0
O296 O 0.18738 0.55221 0.80617 0.0
Mg297 Mg 0.20921 0.50377 0.82119 0.0
C298 C 0.16992 0.55957 0.78252 0.0
C299 C 0.10562 0.50786 0.70777 0.0
O300 O 0.09816 0.51839 0.73751 0.0
O301 O 0.20443 0.48536 0.72803 0.0
O302 O 0.23044 0.50404 0.77016 0.0
O303 O 0.11616 0.47465 0.78494 0.0
O304 O 0.16583 0.47579 0.80092 0.0
C305 C 0.22272 0.4791 0.75109 0.0
C306 C 0.1363 0.47483 0.8084 0.0
O307 O 0.13013 0.49072 0.70337 0.0
Mg308 Mg 0.24553 0.38947 0.55853 0.0
O309 O 0.24195 0.36857 0.50626 0.0
O310 O 0.2796 0.33229 0.4959 0.0
Mg311 Mg 0.31264 0.33792 0.54048 0.0
C312 C 0.25499 0.34691 0.48741 0.0
C313 C 0.18966 0.42275 0.53035 0.0
O314 O 0.21332 0.43677 0.51486 0.0
O315 O 0.23127 0.33865 0.57692 0.0
O316 O 0.27578 0.31084 0.57186 0.0
O317 O 0.2736 0.43456 0.54509 0.0
O318 O 0.29421 0.38716 0.55859 0.0
C319 C 0.24746 0.31314 0.58206 0.0
C320 C 0.29837 0.41766 0.55013 0.0
O321 O 0.19517 0.40302 0.55269 0.0
Mg322 Mg 0.40056 0.5197 0.26255 0.0
O323 O 0.3625 0.47776 0.26359 0.0
O324 O 0.33622 0.48629 0.31025 0.0
Mg325 Mg 0.36186 0.52708 0.34212 0.0
C326 C 0.33952 0.47105 0.28241 0.0
C327 C 0.43657 0.50223 0.20349 0.0
O328 O 0.45741 0.5134 0.22534 0.0
O329 O 0.36209 0.55632 0.2552 0.0
O330 O 0.34382 0.56314 0.30631 0.0
O331 O 0.43713 0.49019 0.2857 0.0
O332 O 0.4038 0.52356 0.31192 0.0
C333 C 0.34432 0.57064 0.2765 0.0
C334 C 0.42658 0.5035 0.31275 0.0
O335 O 0.4076 0.50563 0.2098 0.0
O336 O 0.97975 0.07169 0.01911 0.0
Zn337 Zn -0.00531 0.0325 0.99225 0.0
O338 O 0.97987 0.99108 0.01016 0.0
Zn339 Zn 0.01468 0.96013 0.01236 0.0
Zn340 Zn 0.96134 -0.00043 0.05275 0.0
Zn341 Zn 0.94644 0.97307 0.98261 0.0
O342 O 0.00378 0.91569 0.98546 0.0
O343 O 0.95564 0.92663 0.96901 0.0
O344 O 0.04138 0.03548 -0.00549 0.0
O345 O 0.0557 0.98291 -0.00177 0.0
O346 O 0.02488 0.95338 0.06001 0.0
O347 O -0.0103 0.98454 0.08662 0.0
O348 O 0.91926 0.97505 0.0569 0.0
O349 O 0.98075 0.03661 0.94592 0.0
O350 O 0.90474 0.97029 0.005 0.0
O351 O 0.94366 -0.00394 0.94108 0.0
C352 C 0.96615 0.07467 0.04664 0.0
C353 C 0.97822 0.90686 0.97037 0.0
C354 C 0.01363 0.9664 0.08642 0.0
C355 C 0.0627 0.01409 -0.00418 0.0
C356 C 0.89868 0.9676 0.03505 0.0
C357 C 0.95961 0.02009 0.92937 0.0
O358 O 0.95747 0.04923 0.06228 0.0
O359 O 0.25255 0.73193 0.16055 0.0
Zn360 Zn 0.24696 0.73708 0.20914 0.0
O361 O 0.26836 0.77796 0.22768 0.0
Zn362 Zn 0.30193 0.76734 0.25667 0.0
Zn363 Zn 0.28505 0.80461 0.19268 0.0
Zn364 Zn 0.23903 0.80299 0.25364 0.0
O365 O 0.29958 0.79043 0.30111 0.0
O366 O 0.25429 0.81549 0.29881 0.0
O367 O 0.26767 0.69706 0.22463 0.0
O368 O 0.30148 0.71835 0.26205 0.0
O369 O 0.34339 0.77868 0.23695 0.0
O370 O 0.33181 0.81043 0.19645 0.0
O371 O 0.26562 0.85053 0.19282 0.0
O372 O 0.20195 0.732 0.22504 0.0
O373 O 0.23123 0.84535 0.23346 0.0
O374 O 0.19934 0.77674 0.2592 0.0
C375 C 0.26841 0.74929 0.14072 0.0
C376 C 0.27874 0.80865 0.31441 0.0
C377 C 0.35191 0.79656 0.21362 0.0
C378 C 0.28796 0.69347 0.24656 0.0
C379 C 0.24353 0.86187 0.21083 0.0
C380 C 0.18735 0.74938 0.24679 0.0
O381 O 0.28081 0.77787 0.14964 0.0
O382 O 0.51051 0.96247 0.51779 0.0
Zn383 Zn 0.4984 0.00227 0.49486 0.0
O384 O 0.50752 0.04311 0.52106 0.0
Zn385 Zn 0.4684 0.0653 0.53177 0.0
Zn386 Zn 0.53135 0.0332 0.55975 0.0
Zn387 Zn 0.53261 0.07221 0.49548 0.0
O388 O 0.46423 0.10819 0.50863 0.0
O389 O 0.51106 0.11267 0.48548 0.0
O390 O 0.45267 0.99461 0.48873 0.0
O391 O 0.43113 0.03542 0.51882 0.0
O392 O 0.46564 0.07451 0.57981 0.0
O393 O 0.50864 0.05245 0.59898 0.0
O394 O 0.57601 0.05437 0.5596 0.0
O395 O 0.51771 0.0019 0.4509 0.0
O396 O 0.57173 0.08629 0.51743 0.0
O397 O 0.54304 0.05131 0.45238 0.0
C398 C 0.52159 0.95789 0.54576 0.0
C399 C 0.48397 0.12377 0.49108 0.0
C400 C 0.483 0.06766 0.60351 0.0
C401 C 0.42862 0.00853 0.50076 0.0
C402 C 0.58693 0.07719 0.54164 0.0
C403 C 0.53489 0.0238 0.43737 0.0
O404 O 0.53088 0.98264 0.56474 0.0
O405 O 0.22935 0.27025 0.87111 0.0
Zn406 Zn 0.242 0.28617 0.82689 0.0
O407 O 0.22516 0.25544 0.79317 0.0
Zn408 Zn 0.25877 0.24308 0.76383 0.0
Zn409 Zn 0.20646 0.21624 0.81133 0.0
Zn410 Zn 0.19331 0.27524 0.76919 0.0
O411 O 0.24737 0.24546 0.71694 0.0
O412 O 0.20157 0.26994 0.72099 0.0
O413 O 0.28899 0.28306 0.82567 0.0
O414 O 0.29758 0.2715 0.77323 0.0
O415 O 0.2724 0.19746 0.77287 0.0
O416 O 0.23706 0.17955 0.80832 0.0
O417 O 0.16679 0.20217 0.78691 0.0
O418 O 0.23045 0.33384 0.8179 0.0
O419 O 0.15144 0.25306 0.77627 0.0
O420 O 0.19397 0.32429 0.77965 0.0
C421 C 0.21305 0.24486 0.88009 0.0
C422 C 0.22358 0.25744 0.70371 0.0
C423 C 0.26242 0.17579 0.79232 0.0
C424 C 0.30784 0.27914 0.80177 0.0
C425 C 0.14613 0.22154 0.77706 0.0
C426 C 0.21068 0.34454 0.79794 0.0
O427 O 0.20007 0.22387 0.85935 0.0
O428 O 0.0026 0.98909 0.44161 0.0
Zn429 Zn 0.9699 0.96586 0.46786 0.0
O430 O 0.98286 0.96909 0.51247 0.0
Zn431 Zn -0.00527 0.9263 0.52786 0.0
Zn432 Zn 0.017 0.00177 0.52048 0.0
Zn433 Zn 0.94717 0.97948 0.539 0.0
O434 O 0.98112 0.92559 0.57546 0.0
O435 O 0.93435 0.93899 0.56177 0.0
O436 O 0.96855 0.91651 0.45266 0.0
O437 O 0.97936 0.88835 0.49662 0.0
O438 O 0.04137 0.92559 0.52719 0.0
O439 O 0.0548 0.97956 0.53723 0.0
O440 O 0.00317 0.0391 0.55224 0.0
O441 O 0.92912 0.99052 0.46214 0.0
O442 O 0.95698 0.01918 0.56965 0.0
O443 O 0.91222 0.99344 0.51331 0.0
C444 C 0.02545 0.00974 0.44833 0.0
C445 C 0.95385 0.93472 0.58411 0.0
C446 C 0.06197 0.94885 0.53368 0.0
C447 C 0.97239 0.88899 0.46646 0.0
C448 C 0.97904 0.04163 0.57071 0.0
C449 C 0.90863 -0.00117 0.48354 0.0
O450 O 0.03297 0.01877 0.47758 0.0
O451 O 0.30782 0.7671 0.73807 0.0
Zn452 Zn 0.27482 0.79187 0.76155 0.0
O453 O 0.23461 0.77574 0.7456 0.0
Zn454 Zn 0.21144 0.81004 0.72558 0.0
Zn455 Zn 0.23843 0.73687 0.71557 0.0
Zn456 Zn 0.21011 0.76566 0.78284 0.0
O457 O 0.1666 0.80861 0.74211 0.0
O458 O 0.17913 0.80036 0.79279 0.0
O459 O 0.27966 0.84031 0.75342 0.0
O460 O 0.23328 0.8555 0.73479 0.0
O461 O 0.21174 0.8009 0.67726 0.0
O462 O 0.22863 0.74893 0.67007 0.0
O463 O 0.21 0.69909 0.73019 0.0
O464 O 0.2823 0.78345 0.80894 0.0
O465 O 0.18851 0.72081 0.77577 0.0
O466 O 0.23562 0.76219 0.82205 0.0
C467 C 0.30857 0.73947 0.72126 0.0
C468 C 0.1588 0.80706 0.77194 0.0
C469 C 0.219 0.77574 0.6587 0.0
C470 C 0.26154 0.86246 0.74382 0.0
C471 C 0.19137 0.69678 0.75444 0.0
C472 C 0.26379 0.77048 0.82952 0.0
O473 O 0.28367 0.72299 0.7121 0.0
O474 O 0.53125 0.98533 0.05026 0.0
Zn475 Zn 0.52272 0.9787 0.00232 0.0
O476 O 0.48498 0.94998 -0.00455 0.0
Zn477 Zn 0.49466 0.90762 0.97296 0.0
Zn478 Zn 0.46185 0.94285 0.03585 0.0
Zn479 Zn 0.45868 0.97256 0.96771 0.0
O480 O 0.47348 0.90039 0.92931 0.0
O481 O 0.43944 0.94115 0.9342 0.0
O482 O 0.56051 0.9545 0.98465 0.0
O483 O 0.5411 0.90427 0.96739 0.0
O484 O 0.48112 0.87035 0.00038 0.0
O485 O 0.45487 0.89281 0.0427 0.0
O486 O 0.42242 0.97124 0.04059 0.0
O487 O 0.51942 0.02367 0.98136 0.0
O488 O 0.42526 0.99489 -0.00694 0.0
O489 O 0.48157 0.00964 0.94559 0.0
C490 C 0.51676 0.97443 0.07491 0.0
C491 C 0.4494 0.91479 0.91942 0.0
C492 C 0.4655 0.86742 0.02653 0.0
C493 C 0.56437 0.9247 0.97284 0.0
C494 C 0.41291 0.99247 0.021 0.0
C495 C 0.50322 0.02995 0.95653 0.0
O496 O 0.49051 0.95823 0.07202 0.0
O497 O 0.15346 0.29407 0.27333 0.0
Zn498 Zn 0.19111 0.27675 0.29525 0.0
O499 O 0.22646 0.29031 0.27093 0.0
Zn500 Zn 0.25731 0.25687 0.26883 0.0
Zn501 Zn 0.21917 0.30515 0.22816 0.0
Zn502 Zn 0.23864 0.33168 0.29285 0.0
O503 O 0.29735 0.2792 0.28766 0.0
O504 O 0.28476 0.33325 0.2947 0.0
O505 O 0.18856 0.22737 0.29022 0.0
O506 O 0.23886 0.2136 0.28754 0.0
O507 O 0.26546 0.24162 0.22215 0.0
O508 O 0.23192 0.26981 0.1938 0.0
O509 O 0.24518 0.34909 0.22389 0.0
O510 O 0.19616 0.29026 0.34391 0.0
O511 O 0.22371 0.36935 0.26863 0.0
O512 O 0.22568 0.33647 0.33887 0.0
C513 C 0.14976 0.30537 0.24515 0.0
C514 C 0.30468 0.31026 0.29435 0.0
C515 C 0.25209 0.24708 0.1954 0.0
C516 C 0.2095 0.20539 0.28918 0.0
C517 C 0.2409 0.37397 0.24401 0.0
C518 C 0.21043 0.31648 0.35644 0.0
O519 O 0.1728 0.31071 0.22587 0.0
O520 O 0.52448 0.48663 0.95946 0.0
Zn521 Zn 0.49146 0.45936 0.98158 0.0
O522 O 0.501 0.46078 0.02711 0.0
Zn523 Zn 0.51485 0.41765 0.03935 0.0
Zn524 Zn 0.53252 0.49466 0.03947 0.0
Zn525 Zn 0.46339 0.46792 0.05185 0.0
O526 O 0.49842 0.4113 0.08469 0.0
O527 O 0.4516 0.42399 0.06943 0.0
O528 O 0.48945 0.41074 0.96327 0.0
O529 O 0.50053 0.38147 0.00626 0.0
O530 O 0.56171 0.41983 0.04089 0.0
O531 O 0.57112 0.47382 0.05522 0.0
O532 O 0.516 0.52771 0.07328 0.0
O533 O 0.45094 0.48308 0.97468 0.0
O534 O 0.46919 0.50591 0.08646 0.0
O535 O 0.42993 0.48304 0.02416 0.0
C536 C 0.54346 0.51028 0.96969 0.0
C537 C 0.47 0.41709 0.09203 0.0
C538 C 0.58049 0.44408 0.04998 0.0
C539 C 0.49277 0.38276 0.97642 0.0
C540 C 0.49091 0.52866 0.09033 0.0
C541 C 0.42876 0.49012 -0.00549 0.0
O542 O 0.5475 0.51813 -0.00016 0.0
O543 O 0.79368 0.25405 0.23739 0.0
Zn544 Zn 0.76382 0.28382 0.25958 0.0
O545 O 0.72243 0.27469 0.24191 0.0
Zn546 Zn 0.70591 0.31515 0.22472 0.0
Zn547 Zn 0.72275 0.23808 0.20786 0.0
Zn548 Zn 0.69692 0.26171 0.27751 0.0
O549 O 0.66128 0.32303 0.24068 0.0
O550 O 0.66079 0.28997 0.28249 0.0
O551 O 0.7777 0.33063 0.25224 0.0
O552 O 0.73482 0.35571 0.2366 0.0
O553 O 0.70716 0.30999 0.17598 0.0
O554 O 0.71531 0.25593 0.16389 0.0
O555 O 0.6938 0.19868 0.21881 0.0
O556 O 0.76761 0.27676 0.30731 0.0
O557 O 0.68047 0.21528 0.26916 0.0
O558 O 0.71871 0.26256 0.32001 0.0
C559 C 0.79192 0.23002 0.21589 0.0
C560 C 0.6483 0.31191 0.26611 0.0
C561 C 0.71112 0.2856 0.15522 0.0
C562 C 0.76377 0.35676 0.24474 0.0
C563 C 0.67991 0.19326 0.24567 0.0
C564 C 0.74712 0.26854 0.32825 0.0
O565 O 0.76613 0.22056 0.20224 0.0
O566 O 0.03148 0.52636 0.57093 0.0
Zn567 Zn 0.01905 0.51153 0.52493 0.0
O568 O 0.98299 0.4805 0.52627 0.0
Zn569 Zn -0.00753 0.43808 0.50523 0.0
Zn570 Zn 0.96515 0.47689 0.56958 0.0
Zn571 Zn 0.95174 0.49514 0.499 0.0
O572 O 0.97404 0.43283 0.46017 0.0
O573 O 0.93017 0.45776 0.47306 0.0
O574 O 0.05689 0.48661 0.50978 0.0
O575 O 0.03892 0.43372 0.5032 0.0
O576 O 0.97569 0.40194 0.53209 0.0
O577 O 0.95824 0.42676 0.57835 0.0
O578 O 0.92615 0.50646 0.57596 0.0
O579 O 0.01203 0.54965 0.49476 0.0
O580 O 0.92127 0.52012 0.52463 0.0
O581 O 0.96936 0.52832 0.4692 0.0
C582 C 0.02255 0.51532 0.59815 0.0
C583 C 0.94606 0.4399 0.45302 0.0
C584 C 0.96378 0.40036 0.5604 0.0
C585 C 0.06157 0.45544 0.5046 0.0
C586 C 0.91316 0.52302 0.55424 0.0
C587 C -0.00835 0.5504 0.4721 0.0
O588 O -0.00149 0.49552 0.60051 0.0
O589 O 0.7876 0.77738 0.31214 0.0
Zn590 Zn 0.79463 0.79682 0.26842 0.0
O591 O 0.77696 0.76701 0.23377 0.0
Zn592 Zn 0.81004 0.74987 0.20473 0.0
Zn593 Zn 0.75312 0.73051 0.25323 0.0
Zn594 Zn 0.74918 0.7913 0.20831 0.0
O595 O 0.80252 0.75784 0.15709 0.0
O596 O 0.76286 0.79212 0.16265 0.0
O597 O 0.8409 0.79922 0.26427 0.0
O598 O 0.852 0.76958 0.21878 0.0
O599 O 0.81497 0.7009 0.21113 0.0
O600 O 0.77591 0.68839 0.24465 0.0
O601 O 0.70906 0.72401 0.23557 0.0
O602 O 0.77849 0.84349 0.26788 0.0
O603 O 0.70689 0.76828 0.20518 0.0
O604 O 0.74654 0.83849 0.22522 0.0
C605 C 0.77056 0.75303 0.3219 0.0
C606 C 0.78265 0.77669 0.14487 0.0
C607 C 0.80027 0.68011 0.22857 0.0
C608 C 0.86076 0.78723 0.24406 0.0
C609 C 0.69447 0.74175 0.21621 0.0
C610 C 0.7596 0.85614 0.24842 0.0
O611 O 0.75335 0.73491 0.30213 0.0
O612 O 0.7253 0.26082 0.65804 0.0
Zn613 Zn 0.71661 0.25361 0.70522 0.0
O614 O 0.73911 0.28691 0.73265 0.0
Zn615 Zn 0.76181 0.26191 0.76251 0.0
Zn616 Zn 0.76757 0.31466 0.7086 0.0
Zn617 Zn 0.71145 0.31439 0.75698 0.0
O618 O 0.76278 0.28416 0.80716 0.0
O619 O 0.72659 0.32218 0.803 0.0
O620 O 0.736 0.20905 0.71064 0.0
O621 O 0.74536 0.21449 0.76343 0.0
O622 O 0.80558 0.25932 0.74593 0.0
O623 O 0.81194 0.30788 0.72213 0.0
O624 O 0.75726 0.3642 0.71546 0.0
O625 O 0.67066 0.24962 0.71978 0.0
O626 O 0.71033 0.35965 0.73945 0.0
O627 O 0.66956 0.29145 0.75773 0.0
C628 C 0.74972 0.27456 0.64543 0.0
C629 C 0.74725 0.30836 0.81951 0.0
C630 C 0.82291 0.28127 0.73261 0.0
C631 C 0.74326 0.19635 0.73711 0.0
C632 C 0.73216 0.3772 0.72665 0.0
C633 C 0.65632 0.26622 0.74246 0.0
O634 O 0.76731 0.29573 0.66193 0.0
O635 O 0.68162 0.81765 0.75674 0.0
Zn636 Zn 0.72339 0.80293 0.77251 0.0
O637 O 0.75209 0.80238 0.73647 0.0
Zn638 Zn 0.75682 0.75692 0.72114 0.0
Zn639 Zn 0.73871 0.82985 0.70269 0.0
Zn640 Zn 0.79183 0.8225 0.7479 0.0
O641 O 0.79918 0.74039 0.73354 0.0
O642 O 0.82372 0.78892 0.74821 0.0
O643 O 0.71486 0.75542 0.78705 0.0
O644 O 0.72504 0.72642 0.74076 0.0
O645 O 0.75311 0.75428 0.67323 0.0
O646 O 0.74979 0.8072 0.65864 0.0
O647 O 0.75918 0.87672 0.71074 0.0
O648 O 0.74152 0.83258 0.80973 0.0
O649 O 0.80602 0.85658 0.71747 0.0
O650 O 0.79021 0.84423 0.79273 0.0
C651 C 0.67257 0.8261 0.72891 0.0
C652 C 0.82368 0.75735 0.74294 0.0
C653 C 0.75213 0.77578 0.65158 0.0
C654 C 0.71357 0.72809 0.76937 0.0
C655 C 0.78889 0.88129 0.71344 0.0
C656 C 0.76882 0.84643 0.81436 0.0
O657 O 0.69194 0.83102 0.70579 0.0
O658 O 0.49969 0.59038 0.51557 0.0
Zn659 Zn 0.51431 0.5463 0.4957 0.0
O660 O 0.50527 0.51026 0.52535 0.0
Zn661 Zn 0.54471 0.49125 0.5393 0.0
Zn662 Zn 0.47871 0.52589 0.56155 0.0
Zn663 Zn 0.4813 0.47494 0.50339 0.0
O664 O 0.55004 0.44201 0.52397 0.0
O665 O 0.50403 0.43425 0.49913 0.0
O666 O 0.56081 0.55364 0.48966 0.0
O667 O 0.5816 0.5171 0.52153 0.0
O668 O 0.54674 0.49659 0.58789 0.0
O669 O 0.50109 0.51838 0.60326 0.0
O670 O 0.43481 0.50304 0.56217 0.0
O671 O 0.49424 0.5355 0.45133 0.0
O672 O 0.44107 0.46304 0.52359 0.0
O673 O 0.47145 0.48573 0.45935 0.0
C674 C 0.48404 0.59785 0.54124 0.0
C675 C 0.53013 0.42351 0.50765 0.0
C676 C 0.52793 0.50736 0.60998 0.0
C677 C 0.58458 0.54074 0.50206 0.0
C678 C 0.42455 0.47696 0.54569 0.0
C679 C 0.4776 0.50976 0.44132 0.0
O680 O 0.47406 0.57563 0.56022 0.0
O681 O 0.0274 0.42413 0.00122 0.0
Zn682 Zn 0.02458 0.46737 0.97957 0.0
O683 O 0.03532 0.50348 0.01083 0.0
Zn684 Zn -0.00088 0.52608 0.02593 0.0
Zn685 Zn 0.06036 0.48784 0.04571 0.0
Zn686 Zn 0.06194 0.53588 0.99202 0.0
O687 O -0.00279 0.5729 0.01106 0.0
O688 O 0.0393 0.57527 0.97946 0.0
O689 O 0.97886 0.46808 0.96695 0.0
O690 O 0.96129 0.50182 0.00743 0.0
O691 O -0.00215 0.52669 0.07394 0.0
O692 O 0.04319 0.50612 0.08893 0.0
O693 O 0.10632 0.50227 0.0382 0.0
O694 O 0.05402 0.46848 0.94123 0.0
O695 O 0.09359 0.55249 0.02443 0.0
O696 O 0.08289 0.51523 0.9526 0.0
C697 C 0.03909 0.416 0.02794 0.0
C698 C 0.01437 0.58804 0.99077 0.0
C699 C 0.01691 0.51928 0.09596 0.0
C700 C 0.95637 0.48131 0.98302 0.0
C701 C 0.11431 0.53244 0.03215 0.0
C702 C 0.07674 0.48879 0.93463 0.0
O703 O 0.05379 0.43769 0.04673 0.0
C704 C 0.95375 0.16793 0.05469 0.0
C705 C 0.95836 0.17552 0.08813 0.0
C706 C 0.95621 0.1351 0.04147 0.0
C707 C 0.96246 0.10866 0.06142 0.0
H708 H 0.94814 0.18752 0.03865 0.0
H709 H 0.95277 0.13031 0.01552 0.0
S710 S 0.97645 0.11545 0.15053 0.0
N711 N 0.96985 0.15423 0.14091 0.0
N712 N 0.9738 0.09218 0.1161 0.0
C713 C 0.96711 0.11589 0.09491 0.0
C714 C 0.9653 0.14947 0.10826 0.0
C715 C 0.11825 0.74129 0.30458 0.0
C716 C 0.10253 0.71143 0.29318 0.0
C717 C 0.14507 0.75355 0.28881 0.0
C718 C 0.1576 0.73632 0.26111 0.0
H719 H 0.10935 0.75595 0.32535 0.0
H720 H 0.15608 0.77679 0.29872 0.0
S721 S 0.12601 0.65583 0.22247 0.0
N722 N 0.10184 0.66412 0.25313 0.0
N723 N 0.15259 0.68708 0.22358 0.0
C724 C 0.14245 0.706 0.24978 0.0
C725 C 0.11491 0.69356 0.26582 0.0
C726 C 0.4838 0.87234 0.55768 0.0
C727 C 0.49521 0.8643 0.58813 0.0
C728 C 0.49459 0.90135 0.54298 0.0
C729 C 0.51685 0.92397 0.55843 0.0
H730 H 0.46564 0.85663 0.54547 0.0
H731 H 0.48384 0.90697 0.52017 0.0
S732 S 0.55706 0.91229 0.63664 0.0
N733 N 0.53251 0.87937 0.63183 0.0
N734 N 0.55226 0.93448 0.6044 0.0
C735 C 0.52993 0.91518 0.58796 0.0
C736 C 0.51925 0.88522 0.60276 0.0
C737 C 0.37894 0.24788 0.84313 0.0
C738 C 0.40093 0.24544 0.81765 0.0
C739 C 0.34977 0.26201 0.83867 0.0
C740 C 0.34133 0.27375 0.80836 0.0
H741 H 0.38395 0.23834 0.86656 0.0
H742 H 0.33303 0.26167 0.85859 0.0
S743 S 0.39218 0.27692 0.73505 0.0
N744 N 0.41373 0.25905 0.76208 0.0
N745 N 0.35857 0.28518 0.7535 0.0
C746 C 0.36393 0.27347 0.78333 0.0
C747 C 0.3938 0.25941 0.78801 0.0
C748 C 0.96049 0.79745 0.4373 0.0
C749 C 0.97768 0.79572 0.40792 0.0
C750 C 0.95888 0.82767 0.45634 0.0
C751 C 0.97341 0.85743 0.446 0.0
H752 H 0.94809 0.77527 0.44557 0.0
H753 H 0.94571 0.82789 0.47894 0.0
S754 S 0.02165 0.86626 0.37135 0.0
N755 N 0.01019 0.8262 0.36994 0.0
N756 N 0.00635 0.88319 0.4051 0.0
C757 C -0.00922 0.85601 0.41678 0.0
C758 C -0.00686 0.82509 0.3979 0.0
C759 C 0.37739 0.73932 0.66599 0.0
C760 C 0.40225 0.74086 0.68852 0.0
C761 C 0.34629 0.73358 0.67612 0.0
C762 C 0.33937 0.72971 0.7091 0.0
H763 H 0.38171 0.74469 0.64082 0.0
H764 H 0.32747 0.73579 0.65876 0.0
S765 S 0.39622 0.72591 0.77654 0.0
N766 N 0.41822 0.73298 0.74427 0.0
N767 N 0.35953 0.72323 0.76336 0.0
C768 C 0.36416 0.72766 0.73114 0.0
C769 C 0.39581 0.73296 0.7208 0.0
C770 C 0.5029 0.09569 0.89412 0.0
C771 C 0.49311 0.12407 0.91272 0.0
C772 C 0.50846 0.06555 0.90885 0.0
C773 C 0.50551 0.06324 0.94272 0.0
H774 H 0.50396 0.096 0.86781 0.0
H775 H 0.51359 0.04346 0.89351 0.0
S776 S 0.48384 0.1315 0.00242 0.0
N777 N 0.48268 0.1487 0.96682 0.0
N778 N 0.49454 0.09246 -0.00535 0.0
C779 C 0.49805 0.09215 0.96178 0.0
C780 C 0.49147 0.12251 0.94672 0.0
C781 C 0.0611 0.30425 0.2434 0.0
C782 C 0.05471 0.29522 0.21056 0.0
C783 C 0.09209 0.3094 0.25429 0.0
C784 C 0.11754 0.30646 0.2325 0.0
H785 H 0.04212 0.30606 0.26099 0.0
H786 H 0.09619 0.31475 0.28007 0.0
S787 S 0.11255 0.28737 0.14315 0.0
N788 N 0.07569 0.28633 0.15584 0.0
N789 N 0.134 0.29653 0.17601 0.0
C790 C 0.11121 0.29946 0.19918 0.0
C791 C 0.07973 0.29361 0.18828 0.0
C792 C 0.02854 0.9655 0.17655 0.0
C793 C 0.05965 0.97853 0.17941 0.0
C794 C 0.01427 0.95966 0.14603 0.0
C795 C 0.03096 0.9655 0.11725 0.0
H796 H 0.01469 0.96086 0.19812 0.0
H797 H -0.01027 0.95136 0.14496 0.0
S798 S 0.11366 -0.00265 0.11126 0.0
N799 N 0.10717 -0.00419 0.15081 0.0
N800 N 0.08053 0.98388 0.09327 0.0
C801 C 0.06251 0.97712 0.11963 0.0
C802 C 0.07681 0.98393 0.15079 0.0
C803 C 0.259 0.84822 0.39775 0.0
C804 C 0.28672 0.84498 0.41571 0.0
C805 C 0.25681 0.83663 0.36507 0.0
C806 C 0.28222 0.8213 0.34887 0.0
H807 H 0.23871 0.85973 0.40898 0.0
H808 H 0.2348 0.83958 0.35252 0.0
S809 S 0.36065 0.80786 0.38439 0.0
N810 N 0.34059 0.82603 0.41446 0.0
N811 N 0.33635 0.80422 0.35312 0.0
C812 C 0.3102 0.81805 0.36643 0.0
C813 C 0.31245 0.82987 0.39977 0.0
C814 C 0.48 0.06679 0.69512 0.0
C815 C 0.44752 0.06702 0.70142 0.0
C816 C 0.49159 0.06943 0.66348 0.0
C817 C 0.47113 0.07285 0.63716 0.0
H818 H 0.49646 0.0624 0.71434 0.0
H819 H 0.51663 0.06712 0.65945 0.0
S820 S 0.38447 0.08131 0.64237 0.0
N821 N 0.39543 0.07546 0.68003 0.0
N822 N 0.41707 0.081 0.62046 0.0
C823 C 0.43882 0.07628 0.64376 0.0
C824 C 0.42703 0.07313 0.67595 0.0
C825 C 0.2573 0.2232 0.9543 0.0
C826 C 0.24053 0.19428 0.96387 0.0
C827 C 0.24597 0.24254 0.92975 0.0
C828 C 0.21761 0.23346 0.91344 0.0
H829 H 0.28026 0.22997 0.96448 0.0
H830 H 0.26111 0.26284 0.92155 0.0
S831 S 0.16118 0.16481 0.93439 0.0
N832 N 0.19122 0.16123 0.95909 0.0
N833 N 0.17033 0.19733 0.9126 0.0
C834 C 0.19894 0.20694 0.92528 0.0
C835 C 0.21033 0.18735 0.9505 0.0
C836 C 0.04841 0.03546 0.36497 0.0
C837 C 0.07812 0.02125 0.36049 0.0
C838 C 0.03232 0.03411 0.39463 0.0
C839 C 0.04572 0.01947 0.42123 0.0
H840 H 0.03645 0.04585 0.34483 0.0
H841 H 0.00856 0.043 0.39626 0.0
S842 S 0.12389 0.98181 0.42404 0.0
N843 N 0.12108 0.9941 0.38648 0.0
N844 N 0.091 0.99272 0.44256 0.0
C845 C 0.07628 0.00757 0.41815 0.0
C846 C 0.09251 0.00824 0.38769 0.0
C847 C 0.26334 0.78705 0.58132 0.0
C848 C 0.24613 0.8119 0.56708 0.0
C849 C 0.25222 0.77179 0.6092 0.0
C850 C 0.22375 0.78124 0.62393 0.0
H851 H 0.28667 0.78125 0.57253 0.0
H852 H 0.26759 0.7552 0.6211 0.0
S853 S 0.16595 0.83803 0.59162 0.0
N854 N 0.19585 0.83959 0.56597 0.0
N855 N 0.17584 0.81171 0.61913 0.0
C856 C 0.20457 0.80274 0.60776 0.0
C857 C 0.21552 0.81784 0.57904 0.0
C858 C 0.39771 0.93293 0.85426 0.0
C859 C 0.42071 0.94322 0.832 0.0
C860 C 0.40601 0.91493 0.88088 0.0
C861 C 0.43767 0.90796 0.88621 0.0
H862 H 0.374 0.94174 0.85304 0.0
H863 H 0.38876 0.91169 0.90003 0.0
S864 S 0.50356 0.91783 0.82808 0.0
N865 N 0.47383 0.93604 0.81132 0.0
N866 N 0.48963 0.90274 0.86208 0.0
C867 C 0.45912 0.91153 0.8605 0.0
C868 C 0.45063 0.92964 0.83318 0.0
C869 C 0.24001 0.19276 0.11723 0.0
C870 C 0.26997 0.17984 0.1114 0.0
C871 C 0.23459 0.21524 0.14402 0.0
C872 C 0.25875 0.22492 0.16629 0.0
H873 H 0.22089 0.18624 0.10046 0.0
H874 H 0.2112 0.22472 0.14756 0.0
S875 S 0.34109 0.19726 0.16235 0.0
N876 N 0.32396 0.17807 0.13014 0.0
N877 N 0.31357 0.21937 0.18094 0.0
C878 C 0.28862 0.21162 0.16102 0.0
C879 C 0.29428 0.18934 0.13345 0.0
C880 C 0.1515 0.01414 0.00645 0.0
C881 C 0.15983 0.04848 0.01166 0.0
C882 C 0.12024 0.00327 0.00041 0.0
C883 C 0.09609 0.02634 -0.00115 0.0
H884 H 0.16924 0.99541 0.0074 0.0
H885 H 0.115 0.97651 -0.0027 0.0
S886 S 0.10614 0.11947 0.00877 0.0
N887 N 0.14181 0.10565 0.01364 0.0
N888 N 0.0832 0.08558 0.00193 0.0
C889 C 0.10434 0.06093 0.00329 0.0
C890 C 0.13612 0.07189 0.00986 0.0
C891 C 0.66725 0.46035 0.06486 0.0
C892 C 0.68074 0.43941 0.04051 0.0
C893 C 0.6346 0.46064 0.06887 0.0
C894 C 0.61456 0.43932 0.04924 0.0
H895 H 0.68195 0.47729 0.08026 0.0
H896 H 0.62493 0.47814 0.08701 0.0
S897 S 0.6388 0.37723 0.98426 0.0
N898 N 0.67206 0.39522 -0.00202 0.0
N899 N 0.61068 0.39525 0.00592 0.0
C900 C 0.62795 0.41703 0.0259 0.0
C901 C 0.66109 0.41727 0.02136 0.0
C902 C 0.83417 0.41674 0.24734 0.0
C903 C 0.82259 0.44512 0.26443 0.0
C904 C 0.8143 0.38889 0.23918 0.0
C905 C 0.7821 0.38877 0.24724 0.0
H906 H 0.85909 0.41504 0.24222 0.0
H907 H 0.8245 0.36667 0.22777 0.0
S908 S 0.73936 0.45906 0.28724 0.0
N909 N 0.77635 0.47309 0.28584 0.0
N910 N 0.73885 0.42071 0.26986 0.0
C911 C 0.7697 0.41806 0.26173 0.0
C912 C 0.79003 0.44627 0.27056 0.0
C913 C 0.86993 0.5997 0.54097 0.0
C914 C 0.83856 0.58787 0.54346 0.0
C915 C 0.89473 0.5801 0.55008 0.0
C916 C 0.8891 0.54786 0.56169 0.0
H917 H 0.87555 0.62302 0.52959 0.0
H918 H 0.91855 0.58867 0.54461 0.0
S919 S 0.81147 0.50807 0.57907 0.0
N920 N 0.8032 0.54422 0.5639 0.0
N921 N 0.85025 0.50712 0.57984 0.0
C922 C 0.85803 0.53744 0.56796 0.0
C923 C 0.8326 0.55754 0.55905 0.0
C924 C 0.20451 0.11198 0.30266 0.0
C925 C 0.17527 0.10171 0.28849 0.0
C926 C 0.21611 0.14532 0.30202 0.0
C927 C 0.19863 0.16971 0.28769 0.0
H928 H 0.21844 0.09422 0.31478 0.0
H929 H 0.23837 0.15224 0.31373 0.0
S930 S 0.12216 0.15554 0.2447 0.0
N931 N 0.13023 0.11845 0.25779 0.0
N932 N 0.15182 0.18098 0.25672 0.0
C933 C 0.16994 0.15958 0.27239 0.0
C934 C 0.15833 0.12562 0.27272 0.0
C935 C 0.34081 0.99142 0.50523 0.0
C936 C 0.33806 0.95678 0.49732 0.0
C937 C 0.37014 0.00837 0.50505 0.0
C938 C 0.39755 0.99125 0.49643 0.0
H939 H 0.32038 0.00521 0.51308 0.0
H940 H 0.37142 0.03484 0.51259 0.0
S941 S 0.40148 0.90107 0.46896 0.0
N942 N 0.36397 0.90656 0.47727 0.0
N943 N 0.41934 0.93807 0.47668 0.0
C944 C 0.39462 0.95688 0.48641 0.0
C945 C 0.36477 0.93968 0.48699 0.0
C946 C 0.81594 0.60204 0.27256 0.0
C947 C 0.84748 0.59605 0.26474 0.0
C948 C 0.80002 0.62752 0.25844 0.0
C949 C 0.81511 0.64847 0.23623 0.0
H950 H 0.80343 0.58715 0.29004 0.0
H951 H 0.77606 0.63172 0.26625 0.0
S952 S 0.89703 0.64119 0.20551 0.0
N953 N 0.89274 0.61131 0.23155 0.0
N954 N 0.86297 0.65971 0.20522 0.0
C955 C 0.84624 0.64158 0.22685 0.0
C956 C 0.86241 0.61534 0.24113 0.0
C957 C 0.69538 0.46033 0.73494 0.0
C958 C 0.70822 0.47345 0.76486 0.0
C959 C 0.70609 0.43061 0.71972 0.0
C960 C 0.73071 0.41362 0.73316 0.0
H961 H 0.67498 0.47124 0.72461 0.0
H962 H 0.69326 0.41937 0.69892 0.0
S963 S 0.77661 0.44035 0.80703 0.0
N964 N 0.75011 0.46935 0.80452 0.0
N965 N 0.77056 0.41387 0.7752 0.0
C966 C 0.7463 0.42845 0.76065 0.0
C967 C 0.73503 0.45838 0.77665 0.0
C968 C 0.93656 0.83186 0.92704 0.0
C969 C 0.96096 0.8149 0.91086 0.0
C970 C 0.94278 0.86067 0.94721 0.0
C971 C 0.97372 0.87378 0.95242 0.0
H972 H 0.9123 0.82304 0.92391 0.0
H973 H 0.92296 0.87304 0.95858 0.0
S974 S 0.04631 0.83827 0.91707 0.0
N975 N 0.01768 0.81283 0.90233 0.0
N976 N 0.02911 0.86723 0.94041 0.0
C977 C -0.00152 0.85677 0.9371 0.0
C978 C -0.00784 0.82741 0.9162 0.0
C979 C 0.91057 0.28394 0.72003 0.0
C980 C 0.91402 0.25836 0.69554 0.0
C981 C 0.88084 0.29109 0.73273 0.0
C982 C 0.85422 0.27208 0.72186 0.0
H983 H 0.93081 0.29919 0.72856 0.0
H984 H 0.8786 0.31168 0.7508 0.0
S985 S 0.85128 0.20187 0.65896 0.0
N986 N 0.88883 0.21388 0.66122 0.0
N987 N 0.8329 0.22659 0.68578 0.0
C988 C 0.85755 0.24589 0.69802 0.0
C989 C 0.8876 0.23918 0.68462 0.0
C990 C 0.49094 0.19695 0.43692 0.0
C991 C 0.4597 0.20628 0.43366 0.0
C992 C 0.4985 0.1712 0.45673 0.0
C993 C 0.47508 0.15346 0.47384 0.0
H994 H 0.50987 0.2099 0.42443 0.0
H995 H 0.52301 0.16495 0.4582 0.0
S996 S 0.38946 0.16827 0.47343 0.0
N997 N 0.40499 0.19614 0.44925 0.0
N998 N 0.41926 0.14727 0.4864 0.0
C999 C 0.4437 0.16278 0.47113 0.0
C1000 C 0.43599 0.18923 0.45099 0.0
C1001 C 0.60788 0.71755 0.21128 0.0
C1002 C 0.60249 0.71617 0.17739 0.0
C1003 C 0.63816 0.72422 0.22402 0.0
C1004 C 0.66375 0.72995 0.20323 0.0
H1005 H 0.58844 0.71511 0.22818 0.0
H1006 H 0.64127 0.72661 0.25019 0.0
S1007 S 0.66351 0.72253 0.11306 0.0
N1008 N 0.62634 0.7161 0.12347 0.0
N1009 N 0.68299 0.72934 0.14757 0.0
C1010 C 0.65915 0.72629 0.16946 0.0
C1011 C 0.62855 0.71916 0.15648 0.0
C1012 C -0.00433 0.12901 0.60875 0.0
C1013 C 0.9654 0.13999 0.61687 0.0
C1014 C 0.00017 0.09639 0.59566 0.0
C1015 C 0.97464 0.07331 0.59061 0.0
H1016 H 0.0159 0.14633 0.61062 0.0
H1017 H 0.02368 0.08974 0.58814 0.0
S1018 S 0.89142 0.08787 0.61384 0.0
N1019 N 0.91014 0.12412 0.62306 0.0
N1020 N 0.91843 0.0625 0.59906 0.0
C1021 C 0.94461 0.08308 0.60142 0.0
C1022 C 0.94001 0.11653 0.61431 0.0
C1023 C 0.56152 0.30073 0.2645 0.0
C1024 C 0.55479 0.3026 0.29807 0.0
C1025 C 0.5918 0.30875 0.25309 0.0
C1026 C 0.61591 0.31914 0.27499 0.0
H1027 H 0.54388 0.29106 0.24716 0.0
H1028 H 0.59705 0.30372 0.22752 0.0
S1029 S 0.60854 0.3354 0.36416 0.0
N1030 N 0.57328 0.32104 0.35234 0.0
N1031 N 0.63015 0.33598 0.33073 0.0
C1032 C 0.60855 0.32455 0.30807 0.0
C1033 C 0.57798 0.31614 0.31973 0.0
C1034 C 0.45929 0.77419 0.03438 0.0
C1035 C 0.48568 0.76887 0.05385 0.0
C1036 C 0.45057 0.80672 0.02779 0.0
C1037 C 0.46721 0.83501 0.04148 0.0
H1038 H 0.44641 0.75302 0.02254 0.0
H1039 H 0.43185 0.80974 0.01053 0.0
S1040 S 0.53587 0.83558 0.0966 0.0
N1041 N 0.52726 0.79536 0.08817 0.0
N1042 N 0.50961 0.85622 0.07697 0.0
C1043 C 0.49213 0.83024 0.06276 0.0
C1044 C 0.50175 0.79724 0.06864 0.0
C1045 C 0.90823 0.75011 0.76102 0.0
C1046 C 0.90723 0.72913 0.78741 0.0
C1047 C 0.88107 0.75606 0.74384 0.0
C1048 C 0.85209 0.74103 0.75223 0.0
H1049 H 0.92977 0.76351 0.75456 0.0
H1050 H 0.88232 0.77444 0.72536 0.0
S1051 S 0.83759 0.67971 0.81542 0.0
N1052 N 0.87559 0.68961 0.81813 0.0
N1053 N 0.82415 0.70146 0.78574 0.0
C1054 C 0.8511 0.71766 0.77645 0.0
C1055 C 0.87882 0.71163 0.79419 0.0
C1056 C 0.94274 0.07046 0.85673 0.0
C1057 C 0.93777 0.04533 0.83181 0.0
C1058 C 0.95104 0.06221 0.88815 0.0
C1059 C 0.95345 0.02851 0.89572 0.0
H1060 H 0.94007 0.09664 0.85191 0.0
H1061 H 0.95449 0.08219 0.90686 0.0
S1062 S 0.94252 0.95355 0.83886 0.0
N1063 N 0.93638 0.9857 0.81631 0.0
N1064 N 0.9507 0.9699 0.87578 0.0
C1065 C 0.94862 0.00318 0.87091 0.0
C1066 C 0.9411 0.01168 0.83876 0.0
C1067 C 0.75451 0.21415 0.57167 0.0
C1068 C 0.78681 0.21499 0.56362 0.0
C1069 C 0.74239 0.23553 0.59632 0.0
C1070 C 0.7619 0.25878 0.61442 0.0
H1071 H 0.73817 0.19657 0.55899 0.0
H1072 H 0.71756 0.23283 0.60201 0.0
S1073 S 0.84802 0.2729 0.60188 0.0
N1074 N 0.83791 0.24252 0.57462 0.0
N1075 N 0.81528 0.28258 0.62137 0.0
C1076 C 0.79412 0.26098 0.60583 0.0
C1077 C 0.80652 0.23909 0.58048 0.0
C1078 C 0.54855 0.97862 0.3557 0.0
C1079 C 0.56517 0.00303 0.33874 0.0
C1080 C 0.53835 0.98578 0.38753 0.0
C1081 C 0.54484 0.0175 0.40332 0.0
H1082 H 0.54445 0.95352 0.34473 0.0
H1083 H 0.52606 0.96599 0.40003 0.0
S1084 S 0.58625 0.0904 0.3673 0.0
N1085 N 0.58652 0.06012 0.3383 0.0
N1086 N 0.5676 0.07414 0.39835 0.0
C1087 C 0.56068 0.04247 0.38584 0.0
C1088 C 0.57085 0.03506 0.35342 0.0
C1089 C 0.80306 0.77263 0.05479 0.0
C1090 C 0.77444 0.78018 0.0401 0.0
C1091 C 0.80579 0.77174 0.0887 0.0
C1092 C 0.78009 0.77872 0.1092 0.0
H1093 H 0.82348 0.76692 0.03996 0.0
H1094 H 0.82817 0.7656 0.0989 0.0
S1095 S 0.69954 0.79885 0.08331 0.0
N1096 N 0.71939 0.79327 0.04909 0.0
N1097 N 0.72489 0.79302 0.11249 0.0
C1098 C 0.75134 0.78639 0.09491 0.0
C1099 C 0.74838 0.78663 0.06048 0.0
C1100 C 0.91635 0.99296 0.6474 0.0
C1101 C 0.94222 0.01088 0.6619 0.0
C1102 C 0.92058 0.96664 0.62401 0.0
C1103 C 0.95083 0.95713 0.61395 0.0
H1104 H 0.89254 -0.00091 0.65428 0.0
H1105 H 0.89987 0.9542 0.61298 0.0
S1106 S 0.02648 -0.00311 0.6438 0.0
N1107 N -0.00077 0.01764 0.66428 0.0
N1108 N 0.00726 0.96825 0.62033 0.0
C1109 C 0.97699 0.97456 0.62864 0.0
C1110 C 0.97264 0.00149 0.65244 0.0
C1111 C 0.79869 0.23937 0.39456 0.0
C1112 C 0.77649 0.22738 0.41699 0.0
C1113 C 0.78921 0.25551 0.36711 0.0
C1114 C 0.75718 0.26028 0.36115 0.0
H1115 H 0.82339 0.23422 0.39686 0.0
H1116 H 0.80697 0.26205 0.34937 0.0
S1117 S 0.6907 0.24139 0.41689 0.0
N1118 N 0.72181 0.22703 0.4347 0.0
N1119 N 0.70392 0.25757 0.38314 0.0
C1120 C 0.73515 0.25187 0.3853 0.0
C1121 C 0.74482 0.23531 0.41321 0.0
C1122 C 0.53417 0.95552 0.16176 0.0
C1123 C 0.56391 0.97111 0.16753 0.0
C1124 C 0.51869 0.95812 0.13228 0.0
C1125 C 0.53233 0.97627 0.10709 0.0
H1126 H 0.52262 0.9409 0.18007 0.0
H1127 H 0.49609 0.94495 0.12909 0.0
S1128 S 0.60921 0.0236 0.11058 0.0
N1129 N 0.60602 0.00677 0.14627 0.0
N1130 N 0.57691 0.01146 0.09042 0.0
C1131 C 0.56183 0.99273 0.11273 0.0
C1132 C 0.57764 0.99014 0.143 0.0
C1133 C 0.75867 0.87465 0.90236 0.0
C1134 C 0.78876 0.87 0.91534 0.0
C1135 C 0.75288 0.8698 0.86901 0.0
C1136 C 0.77704 0.86086 0.84725 0.0
H1137 H 0.73869 0.87919 0.9182 0.0
H1138 H 0.72886 0.87089 0.86054 0.0
S1139 S 0.86169 0.85517 0.86763 0.0
N1140 N 0.84424 0.86282 0.90304 0.0
N1141 N 0.83347 0.85432 0.84011 0.0
C1142 C 0.80806 0.86085 0.85927 0.0
C1143 C 0.81391 0.86538 0.89342 0.0
C1144 C 0.81356 0.93877 0.03081 0.0
C1145 C 0.81398 0.90773 0.04543 0.0
C1146 C 0.84081 0.9594 0.02938 0.0
C1147 C 0.869 0.95016 0.04347 0.0
H1148 H 0.79265 0.94616 0.01846 0.0
H1149 H 0.84021 0.982 0.01597 0.0
S1150 S 0.88145 0.87307 0.08742 0.0
N1151 N 0.84422 0.86972 0.076 0.0
N1152 N 0.89528 0.9092 0.07439 0.0
C1153 C 0.86914 0.92035 0.06013 0.0
C1154 C 0.84163 0.8989 0.06081 0.0
C1155 C 0.35222 0.53392 6e-05 0.0
C1156 C 0.35705 0.56086 0.97974 0.0
C1157 C 0.37482 0.50986 0.00286 0.0
C1158 C 0.40321 0.51161 0.98539 0.0
H1159 H 0.33082 0.5314 0.01425 0.0
H1160 H 0.37033 0.49013 0.01956 0.0
S1161 S 0.42715 0.57644 0.92798 0.0
N1162 N 0.39198 0.58739 0.94094 0.0
N1163 N 0.43492 0.54201 0.94653 0.0
C1164 C 0.4082 0.5379 0.96432 0.0
C1165 C 0.38509 0.56267 0.96156 0.0
C1166 C 0.17243 0.62014 0.80079 0.0
C1167 C 0.16711 0.59527 0.77571 0.0
C1168 C 0.17729 0.65383 0.7938 0.0
C1169 C 0.17762 0.66361 0.76144 0.0
H1170 H 0.17458 0.61333 0.82581 0.0
H1171 H 0.18333 0.67182 0.8137 0.0
S1172 S 0.15924 0.60934 0.68754 0.0
N1173 N 0.15771 0.58357 0.71761 0.0
N1174 N 0.16788 0.64695 0.70464 0.0
C1175 C 0.16962 0.63958 0.73644 0.0
C1176 C 0.16402 0.60534 0.74356 0.0
C1177 C 0.15034 0.45908 0.50663 0.0
C1178 C 0.15712 0.42907 0.52108 0.0
C1179 C 0.11934 0.46667 0.49957 0.0
C1180 C 0.09415 0.44419 0.50609 0.0
H1181 H 0.16896 0.47744 0.50188 0.0
H1182 H 0.11499 0.49078 0.48986 0.0
S1183 S 0.10005 0.36037 0.54032 0.0
N1184 N 0.13666 0.37549 0.5392 0.0
N1185 N 0.07838 0.38945 0.52557 0.0
C1186 C 0.10088 0.41315 0.51873 0.0
C1187 C 0.13238 0.4057 0.5264 0.0
C1188 C 0.80462 0.96384 0.76037 0.0
C1189 C 0.83632 0.97119 0.75272 0.0
C1190 C 0.78823 0.93616 0.74513 0.0
C1191 C 0.80314 0.91474 0.72208 0.0
H1192 H 0.79236 0.97961 0.77816 0.0
H1193 H 0.76428 0.93052 0.75274 0.0
S1194 S 0.88552 0.92333 0.69308 0.0
N1195 N 0.88167 0.95531 0.71985 0.0
N1196 N 0.85098 0.90302 0.69179 0.0
C1197 C 0.83455 0.92225 0.71373 0.0
C1198 C 0.85113 0.95051 0.72893 0.0
C1199 C 0.67514 0.08177 0.54892 0.0
C1200 C 0.68254 0.11235 0.53459 0.0
C1201 C 0.64376 0.07146 0.5543 0.0
C1202 C 0.61909 0.09167 0.54574 0.0
H1203 H 0.69352 0.06466 0.55389 0.0
H1204 H 0.6388 0.04657 0.56278 0.0
S1205 S 0.62681 0.17738 0.51491 0.0
N1206 N 0.66331 0.16494 0.51704 0.0
N1207 N 0.60438 0.14615 0.52783 0.0
C1208 C 0.62652 0.12384 0.53473 0.0
C1209 C 0.65829 0.13403 0.52887 0.0
C1210 C 0.19595 0.42215 0.75254 0.0
C1211 C 0.21806 0.44609 0.76586 0.0
C1212 C 0.19203 0.39049 0.76509 0.0
C1213 C 0.21079 0.38067 0.79085 0.0
H1214 H 0.18171 0.42755 0.73183 0.0
H1215 H 0.17503 0.37303 0.75324 0.0
S1216 S 0.27202 0.43404 0.83476 0.0
N1217 N 0.25867 0.45808 0.80685 0.0
N1218 N 0.25164 0.39808 0.83015 0.0
C1219 C 0.23249 0.40457 0.80505 0.0
C1220 C 0.23623 0.43719 0.79246 0.0
C1221 C 0.31677 0.62255 0.29273 0.0
C1222 C 0.32591 0.59931 0.26776 0.0
C1223 C 0.30319 0.65246 0.28557 0.0
C1224 C 0.29763 0.65986 0.25329 0.0
H1225 H 0.32148 0.61852 0.31806 0.0
H1226 H 0.29779 0.67036 0.30542 0.0
S1227 S 0.31416 0.60639 0.17909 0.0
N1228 N 0.32641 0.58479 0.20945 0.0
N1229 N 0.30008 0.64124 0.19607 0.0
C1230 C 0.30478 0.63618 0.22808 0.0
C1231 C 0.31919 0.60582 0.2353 0.0
C1232 C 0.44502 0.6758 0.57448 0.0
C1233 C 0.4706 0.69893 0.57939 0.0
C1234 C 0.44943 0.64335 0.56103 0.0
C1235 C 0.47936 0.63327 0.55105 0.0
H1236 H 0.42161 0.68228 0.58251 0.0
H1237 H 0.42939 0.62578 0.559 0.0
S1238 S 0.55365 0.68482 0.55663 0.0
N1239 N 0.52672 0.70986 0.57233 0.0
N1240 N 0.5348 0.64905 0.54563 0.0
C1241 C 0.50492 0.65653 0.5544 0.0
C1242 C 0.5006 0.68934 0.569 0.0
C1243 C 0.5796 0.21476 0.74881 0.0
C1244 C 0.56786 0.22588 0.77942 0.0
C1245 C 0.60789 0.22833 0.73658 0.0
C1246 C 0.62515 0.25396 0.75427 0.0
H1247 H 0.56708 0.19508 0.73436 0.0
H1248 H 0.61634 0.2185 0.71321 0.0
S1249 S 0.60325 0.29318 0.83513 0.0
N1250 N 0.57493 0.26475 0.82666 0.0
N1251 N 0.6276 0.29058 0.80388 0.0
C1252 C 0.61312 0.26581 0.78469 0.0
C1253 C 0.58465 0.25166 0.79723 0.0
C1254 C 0.0185 0.35276 0.08988 0.0
C1255 C -0.00522 0.3326 0.07397 0.0
C1256 C 0.0352 0.37768 0.07373 0.0
C1257 C 0.02891 0.38338 0.04097 0.0
H1258 H 0.02305 0.35067 0.11558 0.0
H1259 H 0.05162 0.39399 0.08779 0.0
S1260 S 0.97522 0.33103 0.98622 0.0
N1261 N 0.97002 0.31551 0.02232 0.0
N1262 N 0.00167 0.36217 0.99152 0.0
C1263 C 0.00772 0.36085 0.02384 0.0
C1264 C -0.00954 0.33562 0.04049 0.0
C1265 C 0.92447 0.77159 0.30262 0.0
C1266 C 0.94638 0.75541 0.28242 0.0
C1267 C 0.89864 0.78643 0.28941 0.0
C1268 C 0.8933 0.78438 0.25551 0.0
H1269 H 0.92666 0.77174 0.32884 0.0
H1270 H 0.88134 0.79671 0.30621 0.0
S1271 S 0.9474 0.74956 0.19234 0.0
N1272 N 0.96438 0.74246 0.22724 0.0
N1273 N 0.9148 0.76916 0.20197 0.0
C1274 C 0.91679 0.77095 0.23499 0.0
C1275 C 0.94357 0.75655 0.24859 0.0
C1276 C 0.46916 0.29197 0.95375 0.0
C1277 C 0.4771 0.2883 0.92054 0.0
C1278 C 0.47471 0.3225 0.97165 0.0
C1279 C 0.48765 0.3508 0.95683 0.0
H1280 H 0.4584 0.2711 0.96603 0.0
H1281 H 0.46814 0.32413 -0.00285 0.0
S1282 S 0.51336 0.35425 0.87074 0.0
N1283 N 0.49953 0.31531 0.87373 0.0
N1284 N 0.50925 0.37301 0.90725 0.0
C1285 C 0.49599 0.34746 0.92372 0.0
C1286 C 0.49097 0.3161 0.90563 0.0
C1287 C 0.85968 0.23433 0.16058 0.0
C1288 C 0.88451 0.23222 0.18275 0.0
C1289 C 0.82858 0.22764 0.17002 0.0
C1290 C 0.82164 0.21923 0.20199 0.0
H1291 H 0.86392 0.2435 0.13664 0.0
H1292 H 0.80984 0.23308 0.15352 0.0
S1293 S 0.87819 0.2027 0.26671 0.0
N1294 N 0.90028 0.21454 0.236 0.0
N1295 N 0.84152 0.20322 0.2538 0.0
C1296 C 0.84629 0.21283 0.2229 0.0
C1297 C 0.87794 0.21913 0.21326 0.0
C1298 C 0.96121 0.61059 0.41273 0.0
C1299 C 0.98692 0.63287 0.40782 0.0
C1300 C 0.96343 0.58403 0.43315 0.0
C1301 C -0.00862 0.57857 0.45001 0.0
H1302 H 0.93903 0.61343 0.40047 0.0
H1303 H 0.94266 0.5679 0.43597 0.0
S1304 S 0.0658 0.62965 0.44568 0.0
N1305 N 0.04154 0.64771 0.42131 0.0
N1306 N 0.04558 0.59766 0.4603 0.0
C1307 C 0.01742 0.6006 0.44544 0.0
C1308 C 0.01525 0.62768 0.42417 0.0
C1309 C 0.59751 0.80566 0.68243 0.0
C1310 C 0.57425 0.8087 0.7066 0.0
C1311 C 0.62909 0.81341 0.6896 0.0
C1312 C 0.63868 0.82389 0.72138 0.0
H1313 H 0.59132 0.79724 0.6577 0.0
H1314 H 0.64624 0.80978 0.67029 0.0
S1315 S 0.58666 0.83735 0.79312 0.0
N1316 N 0.56254 0.82443 0.76325 0.0
N1317 N 0.62227 0.83821 0.77696 0.0
C1318 C 0.61557 0.82774 0.74567 0.0
C1319 C 0.58325 0.82036 0.73822 0.0
C1320 C 0.58244 0.52023 0.68208 0.0
C1321 C 0.56178 0.51993 0.70883 0.0
C1322 C 0.57124 0.51515 0.65027 0.0
C1323 C 0.5389 0.51013 0.64397 0.0
H1324 H 0.60757 0.52403 0.68567 0.0
H1325 H 0.58806 0.51589 0.63045 0.0
S1326 S 0.475 0.50689 0.70547 0.0
N1327 N 0.50748 0.51373 0.72707 0.0
N1328 N 0.4863 0.50478 0.66698 0.0
C1329 C 0.51792 0.50977 0.67045 0.0
C1330 C 0.5294 0.51448 0.70296 0.0
C1331 C 0.7839 0.31665 0.9035 0.0
C1332 C 0.77289 0.34733 0.91668 0.0
C1333 C 0.77488 0.30398 0.87245 0.0
C1334 C 0.75447 0.32149 0.85316 0.0
H1335 H 0.79989 0.30224 0.91716 0.0
H1336 H 0.78433 0.28041 0.86343 0.0
S1337 S 0.71866 0.40302 0.8763 0.0
N1338 N 0.74007 0.39487 0.9081 0.0
N1339 N 0.72317 0.37111 0.84964 0.0
C1340 C 0.74279 0.35198 0.86619 0.0
C1341 C 0.75196 0.36489 0.89794 0.0
C1342 C 0.00665 0.49992 0.18447 0.0
C1343 C 0.9782 0.51516 0.19254 0.0
C1344 C 0.02026 0.50302 0.15366 0.0
C1345 C 0.00599 0.5218 0.13014 0.0
H1346 H 0.01778 0.48439 0.20156 0.0
H1347 H 0.04127 0.48933 0.14783 0.0
S1348 S 0.93443 0.57192 0.14214 0.0
N1349 N 0.93833 0.5531 0.17655 0.0
N1350 N 0.96409 0.55969 0.11893 0.0
C1351 C 0.97874 0.53923 0.139 0.0
C1352 C 0.96474 0.53566 0.17013 0.0
C1353 C 0.75973 0.70134 0.39589 0.0
C1354 C 0.78876 0.70623 0.41221 0.0
C1355 C 0.75319 0.71832 0.36791 0.0
C1356 C 0.77524 0.74121 0.35511 0.0
H1357 H 0.74209 0.68343 0.40412 0.0
H1358 H 0.73104 0.71252 0.35556 0.0
S1359 S 0.85396 0.7653 0.38986 0.0
N1360 N 0.8391 0.73745 0.41445 0.0
N1361 N 0.82676 0.76939 0.362 0.0
C1362 C 0.80374 0.74776 0.3721 0.0
C1363 C 0.81054 0.73024 0.40052 0.0
C1364 C 0.60843 0.52858 0.91103 0.0
C1365 C 0.59244 0.54525 0.88707 0.0
C1366 C 0.59323 0.52001 0.93986 0.0
C1367 C 0.56176 0.52795 0.94543 0.0
H1368 H 0.63186 0.51965 0.90644 0.0
H1369 H 0.60527 0.50474 0.95653 0.0
S1370 S 0.5117 0.57752 0.89427 0.0
N1371 N 0.54511 0.5745 0.87391 0.0
N1372 N 0.51655 0.55734 0.92778 0.0
C1373 C 0.54663 0.5475 0.92351 0.0
C1374 C 0.56208 0.55661 0.89439 0.0
C1375 C 0.76231 0.29684 0.08197 0.0
C1376 C 0.7499 0.32539 0.06884 0.0
C1377 C 0.7473 0.2813 0.10788 0.0
C1378 C 0.71958 0.29402 0.1218 0.0
H1379 H 0.78475 0.28762 0.07361 0.0
H1380 H 0.75906 0.26114 0.11892 0.0
S1381 S 0.6737 0.36324 0.09216 0.0
N1382 N 0.70488 0.36174 0.06817 0.0
N1383 N 0.67774 0.3332 0.11772 0.0
C1384 C 0.70533 0.32034 0.107 0.0
C1385 C 0.72021 0.33584 0.08028 0.0
C1386 C 0.90162 0.4625 0.3798 0.0
C1387 C 0.92439 0.45879 0.35524 0.0
C1388 C 0.90697 0.45172 0.41092 0.0
C1389 C 0.93563 0.43748 0.4187 0.0
H1390 H 0.8803 0.47555 0.37564 0.0
H1391 H 0.88972 0.45753 0.42965 0.0
S1392 S -0.00127 0.41346 0.36031 0.0
N1393 N 0.97338 0.43312 0.33854 0.0
N1394 N 0.98374 0.41318 0.39738 0.0
C1395 C 0.95653 0.42924 0.39314 0.0
C1396 C 0.9509 0.44 0.36127 0.0
C1397 C 0.79308 0.74956 0.57436 0.0
C1398 C 0.77442 0.72125 0.5633 0.0
C1399 C 0.78391 0.77007 0.60124 0.0
C1400 C 0.75588 0.76284 0.61788 0.0
H1401 H 0.81571 0.75499 0.56328 0.0
H1402 H 0.80001 0.78994 0.6106 0.0
S1403 S 0.69628 0.69543 0.5963 0.0
N1404 N 0.72447 0.69001 0.56902 0.0
N1405 N 0.70788 0.72835 0.61987 0.0
C1406 C 0.73583 0.73652 0.60564 0.0
C1407 C 0.74491 0.71577 0.5782 0.0
C1408 C 0.6726 0.54426 0.48935 0.0
C1409 C 0.67935 0.57845 0.48455 0.0
C1410 C 0.64181 0.53228 0.49449 0.0
C1411 C 0.61647 0.55386 0.49447 0.0
H1412 H 0.69132 0.52662 0.49006 0.0
H1413 H 0.63786 0.50588 0.49872 0.0
S1414 S 0.62108 0.64531 0.48187 0.0
N1415 N 0.65792 0.63367 0.47933 0.0
N1416 N 0.59981 0.61089 0.48852 0.0
C1417 C 0.62262 0.58792 0.48875 0.0
C1418 C 0.65413 0.60028 0.48395 0.0
C1419 C 0.14915 0.95457 0.55067 0.0
C1420 C 0.16092 0.93013 0.52834 0.0
C1421 C 0.11691 0.96004 0.55281 0.0
C1422 C 0.09536 0.94071 0.53322 0.0
H1423 H 0.16498 0.97012 0.56617 0.0
H1424 H 0.10882 0.97964 0.56978 0.0
S1425 S 0.11407 0.87292 0.4715 0.0
N1426 N 0.14853 0.88603 0.48664 0.0
N1427 N 0.0878 0.89599 0.49098 0.0
C1428 C 0.10672 0.91566 0.5113 0.0
C1429 C 0.13958 0.91048 0.50873 0.0
C1430 C 0.32164 0.93255 0.7412 0.0
C1431 C 0.31046 0.95512 0.76559 0.0
C1432 C 0.3038 0.90366 0.73145 0.0
C1433 C 0.27406 0.8971 0.74519 0.0
H1434 H 0.3455 0.93527 0.73214 0.0
H1435 H 0.31436 0.88502 0.71508 0.0
S1436 S 0.23166 0.95215 0.80442 0.0
N1437 N 0.26602 0.97189 0.79936 0.0
N1438 N 0.23215 0.91769 0.78025 0.0
C1439 C 0.26104 0.92149 0.76642 0.0
C1440 C 0.27941 0.95061 0.77685 0.0
C1441 C 0.33509 0.02581 0.05195 0.0
C1442 C 0.33415 0.05709 0.03748 0.0
C1443 C 0.36143 0.00555 0.0484 0.0
C1444 C 0.38763 0.01581 0.03008 0.0
H1445 H 0.31475 0.01607 0.06479 0.0
H1446 H 0.3605 0.981 0.05845 0.0
S1447 S 0.39939 0.0975 0.99171 0.0
N1448 N 0.36362 0.09864 0.00728 0.0
N1449 N 0.41288 0.06099 0.001 0.0
C1450 C 0.38797 0.04803 0.01765 0.0
C1451 C 0.36131 0.06857 0.02126 0.0
C1452 C 0.6749 0.64145 0.77049 0.0
C1453 C 0.67916 0.63269 0.80279 0.0
C1454 C 0.68531 0.67281 0.76028 0.0
C1455 C 0.69983 0.69692 0.78208 0.0
H1456 H 0.66426 0.62359 0.75262 0.0
H1457 H 0.68229 0.67805 0.73492 0.0
S1458 S 0.71476 0.68744 0.86978 0.0
N1459 N 0.69776 0.65125 0.85696 0.0
N1460 N 0.7169 0.7106 0.83771 0.0
C1461 C 0.70322 0.68909 0.81473 0.0
C1462 C 0.69307 0.65683 0.82507 0.0
C1463 C 0.86835 0.48182 0.98574 0.0
C1464 C 0.86002 0.44749 0.98164 0.0
C1465 C 0.89969 0.49304 0.98338 0.0
C1466 C 0.92359 0.47034 0.97623 0.0
H1467 H 0.85092 0.49989 -0.00687 0.0
H1468 H 0.90547 0.5194 0.98902 0.0
S1469 S 0.91263 0.37892 0.95623 0.0
N1470 N 0.87693 0.39165 0.96508 0.0
N1471 N 0.93622 0.41272 0.96026 0.0
C1472 C 0.9151 0.43642 0.96876 0.0
C1473 C 0.88314 0.42494 0.97169 0.0
C1474 C 0.32886 0.11583 0.78434 0.0
C1475 C 0.32718 0.099 0.81356 0.0
C1476 C 0.3072 0.13981 0.77735 0.0
C1477 C 0.28292 0.14806 0.79925 0.0
H1478 H 0.34674 0.11013 0.76624 0.0
H1479 H 0.3096 0.152 0.75452 0.0
S1480 S 0.26924 0.1133 0.88029 0.0
N1481 N 0.29995 0.09347 0.86534 0.0
N1482 N 0.25921 0.13888 0.85219 0.0
C1483 C 0.2811 0.13191 0.82883 0.0
C1484 C 0.30329 0.10742 0.83603 0.0
C1485 C 0.23045 0.94467 0.24959 0.0
C1486 C 0.19947 0.94961 0.23958 0.0
C1487 C 0.24788 0.91879 0.23509 0.0
C1488 C 0.23468 0.89682 0.21056 0.0
H1489 H 0.24039 0.9591 0.27041 0.0
H1490 H 0.27017 0.91333 0.24596 0.0
S1491 S 0.15762 0.9035 0.17063 0.0
N1492 N 0.15881 0.93435 0.19912 0.0
N1493 N 0.19147 0.88478 0.1731 0.0
C1494 C 0.20554 0.90407 0.19754 0.0
C1495 C 0.18787 0.93075 0.21184 0.0
C1496 C 0.52786 0.36575 0.43975 0.0
C1497 C 0.50232 0.3457 0.4503 0.0
C1498 C 0.54497 0.38709 0.46204 0.0
C1499 C 0.53628 0.38948 0.4951 0.0
H1500 H 0.53274 0.36742 0.414 0.0
H1501 H 0.56113 0.40579 0.45251 0.0
S1502 S 0.48006 0.33282 0.53608 0.0
N1503 N 0.47589 0.32215 0.49692 0.0
N1504 N 0.50792 0.3628 0.53842 0.0
C1505 C 0.51558 0.36459 0.50644 0.0
C1506 C 0.49791 0.3431 0.48397 0.0
C1507 C 0.43416 0.76537 0.20357 0.0
C1508 C 0.442 0.77497 0.17222 0.0
C1509 C 0.40595 0.77508 0.21823 0.0
C1510 C 0.38483 0.79493 0.20205 0.0
H1511 H 0.44905 0.74883 0.21614 0.0
H1512 H 0.39993 0.7653 0.24159 0.0
S1513 S 0.39911 0.83323 0.12269 0.0
N1514 N 0.42972 0.80978 0.12765 0.0
N1515 N 0.37683 0.82864 0.15522 0.0
C1516 C 0.39418 0.80744 0.17198 0.0
C1517 C 0.4227 0.79715 0.15696 0.0
C1518 C 0.01408 0.66165 0.93771 0.0
C1519 C 0.98198 0.66884 0.93669 0.0
C1520 C 0.02474 0.63716 0.95742 0.0
C1521 C 0.0038 0.61898 0.97693 0.0
H1522 H 0.03093 0.67353 0.92182 0.0
H1523 H 0.04941 0.6312 0.9559 0.0
S1524 S 0.91873 0.63362 0.9888 0.0
N1525 N 0.93023 0.65998 0.9612 0.0
N1526 N 0.95046 0.61365 -0.00175 0.0
C1527 C 0.97227 0.62842 0.97891 0.0
C1528 C 0.96134 0.65345 0.95873 0.0
C1529 C 0.06421 0.20093 0.74765 0.0
C1530 C 0.06848 0.20192 0.71371 0.0
C1531 C 0.09 0.20428 0.76882 0.0
C1532 C 0.12059 0.20759 0.75641 0.0
H1533 H 0.04077 0.20047 0.75806 0.0
H1534 H 0.0859 0.20656 0.79485 0.0
S1535 S 0.14448 0.20634 0.66967 0.0
N1536 N 0.10566 0.20299 0.66876 0.0
N1537 N 0.15421 0.20797 0.70858 0.0
C1538 C 0.12528 0.20543 0.72259 0.0
C1539 C 0.09913 0.20286 0.70114 0.0
C1540 C 0.50604 0.61601 0.12744 0.0
C1541 C 0.4757 0.62916 0.12816 0.0
C1542 C 0.51062 0.58217 0.11852 0.0
C1543 C 0.48508 0.55996 0.11036 0.0
H1544 H 0.52674 0.63243 0.13094 0.0
H1545 H 0.53455 0.57402 0.11557 0.0
S1546 S 0.40056 0.57931 0.11814 0.0
N1547 N 0.41942 0.61556 0.12701 0.0
N1548 N 0.42808 0.55177 0.11061 0.0
C1549 C 0.45449 0.57156 0.11562 0.0
C1550 C 0.44979 0.60624 0.1244 0.0
C1551 C 0.07692 0.76985 0.76623 0.0
C1552 C 0.06919 0.76633 0.79923 0.0
C1553 C 0.10461 0.78687 0.75723 0.0
C1554 C 0.12564 0.80085 0.78094 0.0
H1555 H 0.06217 0.75821 0.74706 0.0
H1556 H 0.11062 0.78671 0.7316 0.0
S1557 S 0.1136 0.80419 0.87045 0.0
N1558 N 0.08271 0.78233 0.85559 0.0
N1559 N 0.13473 0.8146 0.83858 0.0
C1560 C 0.11675 0.80032 0.81391 0.0
C1561 C 0.08862 0.78282 0.82311 0.0
C1562 C 0.96016 0.30642 0.55969 0.0
C1563 C 0.98057 0.30024 0.58532 0.0
C1564 C 0.9517 0.33915 0.55377 0.0
C1565 C 0.96268 0.36681 0.57376 0.0
H1566 H 0.95233 0.28607 0.54276 0.0
H1567 H 0.93822 0.3431 0.53209 0.0
S1568 S 0.01243 0.36375 0.6472 0.0
N1569 N 0.00853 0.32421 0.63323 0.0
N1570 N -0.0079 0.38566 0.62222 0.0
C1571 C 0.98067 0.36071 0.60122 0.0
C1572 C -0.01015 0.32743 0.60693 0.0
C1573 C 0.39287 0.31579 0.29589 0.0
C1574 C 0.3988 0.33051 0.32721 0.0
C1575 C 0.36208 0.31007 0.28477 0.0
C1576 C 0.33668 0.31998 0.30432 0.0
H1577 H 0.41188 0.30555 0.28127 0.0
H1578 H 0.35806 0.29668 0.26143 0.0
S1579 S 0.34029 0.36424 0.38588 0.0
N1580 N 0.3774 0.35769 0.3762 0.0
N1581 N 0.31922 0.34881 0.35449 0.0
C1582 C 0.34244 0.33774 0.33425 0.0
C1583 C 0.37373 0.34263 0.34594 0.0
C1584 C 0.47061 0.51636 0.3504 0.0
C1585 C 0.44173 0.49926 0.34371 0.0
C1586 C 0.48208 0.52019 0.38228 0.0
C1587 C 0.46505 0.50665 0.40808 0.0
H1588 H 0.48359 0.52824 0.33116 0.0
H1589 H 0.50427 0.53384 0.38675 0.0
S1590 S 0.38839 0.45886 0.40222 0.0
N1591 N 0.39659 0.46838 0.36449 0.0
N1592 N 0.41812 0.47473 0.42452 0.0
C1593 C 0.43647 0.48862 0.40129 0.0
C1594 C 0.42478 0.48515 0.36899 0.0
C1595 C 0.27101 0.68527 0.06904 0.0
C1596 C 0.30039 0.69244 0.05445 0.0
C1597 C 0.2601 0.70481 0.09586 0.0
C1598 C 0.27785 0.7327 0.10908 0.0
H1599 H 0.25633 0.66407 0.05996 0.0
H1600 H 0.23779 0.69758 0.1067 0.0
S1601 S 0.35623 0.76275 0.07984 0.0
N1602 N 0.3469 0.72989 0.05521 0.0
N1603 N 0.32639 0.76665 0.10537 0.0
C1604 C 0.30699 0.74067 0.09435 0.0
C1605 C 0.31828 0.72051 0.06723 0.0
C1606 C 0.0975 0.45656 0.84931 0.0
C1607 C 0.12479 0.4757 0.84223 0.0
C1608 C 0.08299 0.45978 0.87982 0.0
C1609 C 0.09494 0.48278 0.90426 0.0
H1610 H 0.08679 0.43947 0.8308 0.0
H1611 H 0.06152 0.44508 0.88369 0.0
S1612 S 0.16677 0.53797 0.89827 0.0
N1613 N 0.1639 0.51751 0.86238 0.0
N1614 N 0.13679 0.52382 0.91982 0.0
C1615 C 0.12297 0.50121 0.89788 0.0
C1616 C 0.13789 0.4976 0.86683 0.0
C1617 C 0.2086 0.29773 0.62487 0.0
C1618 C 0.23567 0.28974 0.6066 0.0
C1619 C 0.20293 0.28427 0.65512 0.0
C1620 C 0.22408 0.26229 0.66821 0.0
H1621 H 0.19313 0.31681 0.61731 0.0
H1622 H 0.1833 0.29351 0.66944 0.0
S1623 S 0.2921 0.22449 0.62501 0.0
N1624 N 0.27916 0.25185 0.59999 0.0
N1625 N 0.26847 0.22657 0.65695 0.0
C1626 C 0.2484 0.25015 0.64799 0.0
C1627 C 0.25417 0.26384 0.61711 0.0
C1628 C 0.42358 0.45846 0.15965 0.0
C1629 C 0.44618 0.47993 0.17574 0.0
C1630 C 0.43213 0.43589 0.13429 0.0
C1631 C 0.46357 0.43388 0.12401 0.0
H1632 H 0.39899 0.45912 0.16653 0.0
H1633 H 0.41377 0.4208 0.12169 0.0
S1634 S 0.53183 0.48481 0.15813 0.0
N1635 N 0.50142 0.49773 0.17981 0.0
N1636 N 0.5176 0.45518 0.13211 0.0
C1637 C 0.48664 0.45451 0.14053 0.0
C1638 C 0.47787 0.47769 0.16628 0.0
C1639 C 0.3173 0.72886 0.88629 0.0
C1640 C 0.29578 0.71674 0.90934 0.0
C1641 C 0.30755 0.74949 0.86203 0.0
C1642 C 0.27603 0.75871 0.86024 0.0
H1643 H 0.34124 0.72044 0.88549 0.0
H1644 H 0.3242 0.75589 0.84315 0.0
S1645 S 0.21272 0.74047 0.9198 0.0
N1646 N 0.24321 0.7203 0.93241 0.0
N1647 N 0.22493 0.75941 0.88711 0.0
C1648 C 0.25529 0.74985 0.88536 0.0
C1649 C 0.26513 0.72867 0.90981 0.0
C1650 C 0.09641 0.5143 0.64845 0.0
C1651 C 0.08458 0.51409 0.6804 0.0
C1652 C 0.07633 0.51761 0.62196 0.0
C1653 C 0.04365 0.52012 0.62649 0.0
H1654 H 0.12126 0.51119 0.64381 0.0
H1655 H 0.08624 0.51612 0.59763 0.0
S1656 S 0.00112 0.52318 0.70531 0.0
N1657 N 0.0383 0.51901 0.71522 0.0
N1658 N 0.00062 0.52426 0.66525 0.0
C1659 C 0.03171 0.52132 0.65835 0.0
C1660 C 0.05217 0.51857 0.68536 0.0
C1661 C 0.2438 0.30612 0.43973 0.0
C1662 C 0.2405 0.33826 0.45509 0.0
C1663 C 0.23095 0.29791 0.40874 0.0
C1664 C 0.21481 0.3217 0.39188 0.0
H1665 H 0.2568 0.28735 0.4515 0.0
H1666 H 0.23542 0.27352 0.39707 0.0
S1667 S 0.19856 0.40873 0.4215 0.0
N1668 N 0.2184 0.39338 0.45139 0.0
N1669 N 0.1953 0.3781 0.3929 0.0
C1670 C 0.21052 0.35345 0.40728 0.0
C1671 C 0.22307 0.36168 0.43895 0.0
C1672 C 0.35648 0.41355 0.54457 0.0
C1673 C 0.33023 0.43362 0.54916 0.0
C1674 C 0.38697 0.42787 0.54474 0.0
C1675 C 0.39246 0.46274 0.55019 0.0
H1676 H 0.3535 0.3866 0.54035 0.0
H1677 H 0.40647 0.41147 0.54022 0.0
S1678 S 0.33193 0.52629 0.56497 0.0
N1679 N 0.3117 0.49022 0.56022 0.0
N1680 N 0.36932 0.51698 0.56097 0.0
C1681 C 0.36656 0.48308 0.55567 0.0
C1682 C 0.33536 0.46856 0.55493 0.0
C1683 C 0.83309 0.04214 0.49643 0.0
C1684 C 0.83936 0.0735 0.48319 0.0
C1685 C 0.85447 0.01648 0.49315 0.0
C1686 C 0.88302 0.02099 0.47649 0.0
H1687 H 0.81168 0.03735 0.51001 0.0
H1688 H 0.84936 0.99345 0.50531 0.0
S1689 S 0.91046 0.09742 0.43587 0.0
N1690 N 0.87575 0.10697 0.4512 0.0
N1691 N 0.91631 0.05851 0.44561 0.0
C1692 C 0.88919 0.05155 0.46187 0.0
C1693 C 0.86734 0.07792 0.46523 0.0
C1694 C 0.64975 0.12009 0.29272 0.0
C1695 C 0.64782 0.09344 0.26907 0.0
C1696 C 0.65842 0.15251 0.28436 0.0
C1697 C 0.6661 0.15963 0.25201 0.0
H1698 H 0.64502 0.11581 0.3181 0.0
H1699 H 0.66031 0.17183 0.3039 0.0
S1700 S 0.66195 0.0989 0.18036 0.0
N1701 N 0.65187 0.07636 0.2115 0.0
N1702 N 0.66885 0.13758 0.19573 0.0
C1703 C 0.66289 0.13345 0.22778 0.0
C1704 C 0.65358 0.1003 0.23631 0.0
C1705 C 0.6533 0.92472 0.97431 0.0
C1706 C 0.65947 0.89048 0.97642 0.0
C1707 C 0.62255 0.93544 0.97125 0.0
C1708 C 0.59676 0.91233 0.96978 0.0
H1709 H 0.67217 0.94368 0.97656 0.0
H1710 H 0.61893 0.96218 0.97124 0.0
S1711 S 0.60073 0.81936 0.96978 0.0
N1712 N 0.63765 0.83319 0.97355 0.0
N1713 N 0.5798 0.85318 0.9675 0.0
C1714 C 0.60281 0.87778 0.96954 0.0
C1715 C 0.63417 0.8669 0.97299 0.0
C1716 C 0.32025 0.42 0.24877 0.0
C1717 C 0.31388 0.44781 0.27001 0.0
C1718 C 0.29599 0.39734 0.23777 0.0
C1719 C 0.26454 0.40209 0.24732 0.0
H1720 H 0.34426 0.41498 0.24166 0.0
H1721 H 0.30222 0.37501 0.22335 0.0
S1722 S 0.23494 0.47427 0.29774 0.0
N1723 N 0.27344 0.48106 0.29677 0.0
N1724 N 0.22802 0.43888 0.27582 0.0
C1725 C 0.25773 0.43118 0.26652 0.0
C1726 C 0.28234 0.45388 0.27802 0.0
C1727 C 0.18243 0.58854 0.00957 0.0
C1728 C 0.19986 0.56737 0.98846 0.0
C1729 C 0.15637 0.57607 0.0265 0.0
C1730 C 0.14675 0.54197 0.02307 0.0
H1731 H 0.18849 0.61514 0.0126 0.0
H1732 H 0.14262 0.59364 0.04111 0.0
S1733 S 0.18521 0.47549 0.97237 0.0
N1734 N 0.2066 0.51001 0.96653 0.0
N1735 N 0.15724 0.48686 -0.00182 0.0
C1736 C 0.16478 0.52013 0.00339 0.0
C1737 C 0.19135 0.5328 0.98601 0.0
C1738 C 0.71706 0.93487 0.2353 0.0
C1739 C 0.71439 0.94901 0.26721 0.0
C1740 C 0.73446 0.90632 0.22883 0.0
C1741 C 0.74999 0.89111 0.25396 0.0
H1742 H 0.70335 0.94392 0.21566 0.0
H1743 H 0.73371 0.89469 0.20439 0.0
S1744 S 0.75887 0.92485 0.33938 0.0
N1745 N 0.73509 0.95069 0.32255 0.0
N1746 N 0.76784 0.89671 0.31021 0.0
C1747 C 0.75162 0.90799 0.28483 0.0
C1748 C 0.73382 0.93718 0.29149 0.0
C1749 C 0.80586 0.13459 0.71879 0.0
C1750 C 0.80411 0.11525 0.74636 0.0
C1751 C 0.78334 0.15854 0.71359 0.0
C1752 C 0.75879 0.1641 0.73605 0.0
H1753 H 0.82585 0.13304 0.70244 0.0
H1754 H 0.78683 0.17481 0.69357 0.0
S1755 S 0.73907 0.11456 0.80717 0.0
N1756 N 0.77176 0.09855 0.7924 0.0
N1757 N 0.7307 0.14488 0.78323 0.0
C1758 C 0.75483 0.14261 0.76154 0.0
C1759 C 0.77722 0.11778 0.76654 0.0
loop_
_geom_bond_atom_site_label_1
_geom_bond_atom_site_label_2
_geom_bond_distance
_geom_bond_site_symmetry_2
_ccdc_geom_bond_type
Mg0 O1 2.028 . S
Mg0 O7 1.986 . S
Mg0 O9 2.114 1_455 S
Mg0 O10 2.251 1_455 S
Mg0 O13 2.010 . S
O1 Mg0 2.028 . S
O1 C4 1.250 . S
O2 Mg3 2.028 . S
O2 C4 1.248 1_655 S
Mg3 O2 2.028 . S
Mg3 O8 2.032 . S
Mg3 O10 2.079 . S
C4 O1 1.250 . S
C4 O2 1.248 1_455 S
C5 O6 1.264 . S
C5 O13 1.249 . S
O6 C5 1.264 . S
O7 Mg0 1.986 . S
O7 C11 1.246 . S
O8 Mg3 2.032 . S
O8 C11 1.259 1_655 S
O9 Mg0 2.114 1_655 S
O9 C12 1.252 . S
O10 Mg0 2.251 1_655 S
O10 Mg3 2.079 . S
O10 C12 1.273 . S
C11 O7 1.246 . S
C11 O8 1.259 1_455 S
C12 O9 1.252 . S
C12 O10 1.273 . S
O13 Mg0 2.010 . S
O13 C5 1.249 . S
Mg14 O15 2.028 . S
Mg14 O21 1.986 . S
Mg14 O23 2.114 1_455 S
Mg14 O24 2.251 1_455 S
Mg14 O27 2.010 . S
O15 Mg14 2.028 . S
O15 C18 1.250 . S
O16 Mg17 2.028 . S
O16 C18 1.248 1_655 S
Mg17 O16 2.028 . S
Mg17 O22 2.032 . S
Mg17 O24 2.079 . S
C18 O15 1.250 . S
C18 O16 1.248 1_455 S
C19 O20 1.264 . S
C19 O27 1.249 . S
O20 C19 1.264 . S
O21 Mg14 1.986 . S
O21 C25 1.246 . S
O22 Mg17 2.032 . S
O22 C25 1.259 1_655 S
O23 Mg14 2.114 1_655 S
O23 C26 1.252 . S
O24 Mg14 2.251 1_655 S
O24 Mg17 2.079 . S
O24 C26 1.273 . S
C25 O21 1.246 . S
C25 O22 1.259 1_455 S
C26 O23 1.252 . S
C26 O24 1.273 . S
O27 Mg14 2.010 . S
O27 C19 1.249 . S
Mg28 O29 2.028 . S
Mg28 O35 1.986 . S
Mg28 O37 2.114 . S
Mg28 O38 2.251 . S
Mg28 O41 2.010 . S
O29 Mg28 2.028 . S
O29 C32 1.250 . S
O30 Mg31 2.028 . S
O30 C32 1.248 . S
Mg31 O30 2.028 . S
Mg31 O36 2.032 . S
Mg31 O38 2.079 . S
C32 O29 1.250 . S
C32 O30 1.248 . S
C33 O34 1.264 . S
C33 O41 1.249 . S
O34 C33 1.264 . S
O35 Mg28 1.986 . S
O35 C39 1.246 . S
O36 Mg31 2.032 . S
O36 C39 1.259 . S
O37 Mg28 2.114 . S
O37 C40 1.252 . S
O38 Mg28 2.251 . S
O38 Mg31 2.079 . S
O38 C40 1.273 . S
C39 O35 1.246 . S
C39 O36 1.259 . S
C40 O37 1.252 . S
C40 O38 1.273 . S
O41 Mg28 2.010 . S
O41 C33 1.249 . S
Mg42 O43 2.028 . S
Mg42 O49 1.986 . S
Mg42 O51 2.114 . S
Mg42 O52 2.251 . S
Mg42 O55 2.010 . S
O43 Mg42 2.028 . S
O43 C46 1.250 . S
O44 Mg45 2.028 . S
O44 C46 1.248 . S
Mg45 O44 2.028 . S
Mg45 O50 2.032 . S
Mg45 O52 2.079 . S
C46 O43 1.250 . S
C46 O44 1.248 . S
C47 O48 1.264 . S
C47 O55 1.249 . S
O48 C47 1.264 . S
O49 Mg42 1.986 . S
O49 C53 1.246 . S
O50 Mg45 2.032 . S
O50 C53 1.259 . S
O51 Mg42 2.114 . S
O51 C54 1.252 . S
O52 Mg42 2.251 . S
O52 Mg45 2.079 . S
O52 C54 1.273 . S
C53 O49 1.246 . S
C53 O50 1.259 . S
C54 O51 1.252 . S
C54 O52 1.273 . S
O55 Mg42 2.010 . S
O55 C47 1.249 . S
Mg56 O57 2.028 . S
Mg56 O63 1.986 1_545 S
Mg56 O65 2.114 . S
Mg56 O66 2.251 . S
Mg56 O69 2.010 . S
O57 Mg56 2.028 . S
O57 C60 1.250 . S
O58 Mg59 2.028 . S
O58 C60 1.248 . S
Mg59 O58 2.028 . S
Mg59 O64 2.032 1_545 S
Mg59 O66 2.079 . S
C60 O57 1.250 . S
C60 O58 1.248 . S
C61 O62 1.264 1_545 S
C61 O69 1.249 . S
O62 C61 1.264 1_565 S
O63 Mg56 1.986 1_565 S
O63 C67 1.246 . S
O64 Mg59 2.032 1_565 S
O64 C67 1.259 . S
O65 Mg56 2.114 . S
O65 C68 1.252 . S
O66 Mg56 2.251 . S
O66 Mg59 2.079 . S
O66 C68 1.273 . S
C67 O63 1.246 . S
C67 O64 1.259 . S
C68 O65 1.252 . S
C68 O66 1.273 . S
O69 Mg56 2.010 . S
O69 C61 1.249 . S
Mg70 O71 2.028 . S
Mg70 O77 1.986 . S
Mg70 O79 2.114 . S
Mg70 O80 2.251 . S
Mg70 O83 2.010 . S
O71 Mg70 2.028 . S
O71 C74 1.250 . S
O72 Mg73 2.028 . S
O72 C74 1.248 . S
Mg73 O72 2.028 . S
Mg73 O78 2.032 . S
Mg73 O80 2.079 . S
C74 O71 1.250 . S
C74 O72 1.248 . S
C75 O76 1.264 . S
C75 O83 1.249 . S
O76 C75 1.264 . S
O77 Mg70 1.986 . S
O77 C81 1.246 . S
O78 Mg73 2.032 . S
O78 C81 1.259 . S
O79 Mg70 2.114 . S
O79 C82 1.252 . S
O80 Mg70 2.251 . S
O80 Mg73 2.079 . S
O80 C82 1.273 . S
C81 O77 1.246 . S
C81 O78 1.259 . S
C82 O79 1.252 . S
C82 O80 1.273 . S
O83 Mg70 2.010 . S
O83 C75 1.249 . S
Mg84 O85 2.028 1_545 S
Mg84 O91 1.986 . S
Mg84 O93 2.114 1_545 S
Mg84 O94 2.251 . S
Mg84 O97 2.010 . S
O85 Mg84 2.028 1_565 S
O85 C88 1.250 . S
O86 Mg87 2.028 1_565 S
O86 C88 1.248 . S
Mg87 O86 2.028 1_545 S
Mg87 O92 2.032 . S
Mg87 O94 2.079 . S
C88 O85 1.250 . S
C88 O86 1.248 . S
C89 O90 1.264 . S
C89 O97 1.249 . S
O90 C89 1.264 . S
O91 Mg84 1.986 . S
O91 C95 1.246 . S
O92 Mg87 2.032 . S
O92 C95 1.259 . S
O93 Mg84 2.114 1_565 S
O93 C96 1.252 . S
O94 Mg84 2.251 . S
O94 Mg87 2.079 . S
O94 C96 1.273 1_545 S
C95 O91 1.246 . S
C95 O92 1.259 . S
C96 O93 1.252 . S
C96 O94 1.273 1_565 S
O97 Mg84 2.010 . S
O97 C89 1.249 . S
Mg98 O99 2.023 1_556 S
Mg98 O105 1.990 . S
Mg98 O107 2.111 1_556 S
Mg98 O108 2.251 1_556 S
Mg98 O111 2.010 . S
O99 Mg98 2.023 1_554 S
O99 C102 1.250 . S
O100 Mg101 2.028 . S
O100 C102 1.248 . S
Mg101 O100 2.028 . S
Mg101 O106 2.032 1_554 S
Mg101 O108 2.079 . S
C102 O99 1.250 . S
C102 O100 1.248 . S
C103 O104 1.264 1_554 S
C103 O111 1.249 1_554 S
O104 C103 1.264 1_556 S
O105 Mg98 1.990 . S
O105 C109 1.246 . S
O106 Mg101 2.032 1_556 S
O106 C109 1.259 . S
O107 Mg98 2.111 1_554 S
O107 C110 1.252 . S
O108 Mg98 2.251 1_554 S
O108 Mg101 2.079 . S
O108 C110 1.273 . S
C109 O105 1.246 . S
C109 O106 1.259 . S
C110 O107 1.252 . S
C110 O108 1.273 . S
O111 Mg98 2.010 . S
O111 C103 1.249 1_556 S
Mg112 O113 2.028 1_554 S
Mg112 O119 1.986 . S
Mg112 O121 2.102 1_554 S
Mg112 O122 2.251 . S
Mg112 O125 2.010 . S
O113 Mg112 2.028 1_556 S
O113 C116 1.250 . S
O114 Mg115 2.028 1_556 S
O114 C116 1.248 . S
Mg115 O114 2.028 1_554 S
Mg115 O120 2.032 . S
Mg115 O122 2.079 . S
C116 O113 1.250 . S
C116 O114 1.248 . S
C117 O118 1.264 . S
C117 O125 1.249 . S
O118 C117 1.264 . S
O119 Mg112 1.986 . S
O119 C123 1.246 . S
O120 Mg115 2.032 . S
O120 C123 1.259 . S
O121 Mg112 2.102 1_556 S
O121 C124 1.245 1_556 S
O122 Mg112 2.251 . S
O122 Mg115 2.079 . S
O122 C124 1.273 . S
C123 O119 1.246 . S
C123 O120 1.259 . S
C124 O121 1.245 1_554 S
C124 O122 1.273 . S
O125 Mg112 2.010 . S
O125 C117 1.249 . S
Mg126 O127 2.028 . S
Mg126 O133 1.986 . S
Mg126 O135 2.114 . S
Mg126 O136 2.251 . S
Mg126 O139 2.010 . S
O127 Mg126 2.028 . S
O127 C130 1.250 . S
O128 Mg129 2.028 . S
O128 C130 1.248 . S
Mg129 O128 2.028 . S
Mg129 O134 2.032 . S
Mg129 O136 2.079 . S
C130 O127 1.250 . S
C130 O128 1.248 . S
C131 O132 1.264 . S
C131 O139 1.249 . S
O132 C131 1.264 . S
O133 Mg126 1.986 . S
O133 C137 1.246 . S
O134 Mg129 2.032 . S
O134 C137 1.259 . S
O135 Mg126 2.114 . S
O135 C138 1.252 . S
O136 Mg126 2.251 . S
O136 Mg129 2.079 . S
O136 C138 1.273 . S
C137 O133 1.246 . S
C137 O134 1.259 . S
C138 O135 1.252 . S
C138 O136 1.273 . S
O139 Mg126 2.010 . S
O139 C131 1.249 . S
Mg140 O141 2.028 . S
Mg140 O147 1.986 . S
Mg140 O149 2.114 . S
Mg140 O150 2.251 . S
Mg140 O153 2.010 . S
O141 Mg140 2.028 . S
O141 C144 1.250 . S
O142 Mg143 2.028 . S
O142 C144 1.248 . S
Mg143 O142 2.028 . S
Mg143 O148 2.032 . S
Mg143 O150 2.079 . S
C144 O141 1.250 . S
C144 O142 1.248 . S
C145 O146 1.264 . S
C145 O153 1.249 . S
O146 C145 1.264 . S
O147 Mg140 1.986 . S
O147 C151 1.246 . S
O148 Mg143 2.032 . S
O148 C151 1.259 . S
O149 Mg140 2.114 . S
O149 C152 1.252 . S
O150 Mg140 2.251 . S
O150 Mg143 2.079 . S
O150 C152 1.273 . S
C151 O147 1.246 . S
C151 O148 1.259 . S
C152 O149 1.252 . S
C152 O150 1.273 . S
O153 Mg140 2.010 . S
O153 C145 1.249 . S
Mg154 O155 2.028 . S
Mg154 O161 1.986 . S
Mg154 O163 2.114 . S
Mg154 O164 2.251 . S
Mg154 O167 2.010 . S
O155 Mg154 2.028 . S
O155 C158 1.250 . S
O156 Mg157 2.028 . S
O156 C158 1.248 . S
Mg157 O156 2.028 . S
Mg157 O162 2.032 . S
Mg157 O164 2.079 . S
C158 O155 1.250 . S
C158 O156 1.248 . S
C159 O160 1.264 . S
C159 O167 1.249 . S
O160 C159 1.264 . S
O161 Mg154 1.986 . S
O161 C165 1.246 . S
O162 Mg157 2.032 . S
O162 C165 1.259 . S
O163 Mg154 2.114 . S
O163 C166 1.252 . S
O164 Mg154 2.251 . S
O164 Mg157 2.079 . S
O164 C166 1.273 . S
C165 O161 1.246 . S
C165 O162 1.259 . S
C166 O163 1.252 . S
C166 O164 1.273 . S
O167 Mg154 2.010 . S
O167 C159 1.249 . S
Mg168 O169 2.028 . S
Mg168 O175 1.986 . S
Mg168 O177 2.114 1_455 S
Mg168 O178 2.251 1_455 S
Mg168 O181 2.010 . S
O169 Mg168 2.028 . S
O169 C172 1.250 . S
O170 Mg171 2.028 . S
O170 C172 1.248 1_655 S
Mg171 O170 2.028 . S
Mg171 O176 2.032 . S
Mg171 O178 2.079 . S
C172 O169 1.250 . S
C172 O170 1.248 1_455 S
C173 O174 1.264 . S
C173 O181 1.249 . S
O174 C173 1.264 . S
O175 Mg168 1.986 . S
O175 C179 1.246 . S
O176 Mg171 2.032 . S
O176 C179 1.259 1_655 S
O177 Mg168 2.114 1_655 S
O177 C180 1.252 . S
O178 Mg168 2.251 1_655 S
O178 Mg171 2.079 . S
O178 C180 1.273 . S
C179 O175 1.246 . S
C179 O176 1.259 1_455 S
C180 O177 1.252 . S
C180 O178 1.273 . S
O181 Mg168 2.010 . S
O181 C173 1.249 . S
Mg182 O183 2.028 . S
Mg182 O189 1.986 . S
Mg182 O191 2.114 1_455 S
Mg182 O192 2.251 1_455 S
Mg182 O195 2.010 . S
O183 Mg182 2.028 . S
O183 C186 1.250 . S
O184 Mg185 2.028 . S
O184 C186 1.248 1_655 S
Mg185 O184 2.028 . S
Mg185 O190 2.032 . S
Mg185 O192 2.079 . S
C186 O183 1.250 . S
C186 O184 1.248 1_455 S
C187 O188 1.264 . S
C187 O195 1.249 . S
O188 C187 1.264 . S
O189 Mg182 1.986 . S
O189 C193 1.246 . S
O190 Mg185 2.032 . S
O190 C193 1.259 1_655 S
O191 Mg182 2.114 1_655 S
O191 C194 1.252 . S
O192 Mg182 2.251 1_655 S
O192 Mg185 2.079 . S
O192 C194 1.273 . S
C193 O189 1.246 . S
C193 O190 1.259 1_455 S
C194 O191 1.252 . S
C194 O192 1.273 . S
O195 Mg182 2.010 . S
O195 C187 1.249 . S
Mg196 O197 2.028 . S
Mg196 O203 1.986 . S
Mg196 O205 2.114 . S
Mg196 O206 2.251 . S
Mg196 O209 2.010 . S
O197 Mg196 2.028 . S
O197 C200 1.250 . S
O198 Mg199 2.028 . S
O198 C200 1.248 . S
Mg199 O198 2.028 . S
Mg199 O204 2.032 . S
Mg199 O206 2.079 . S
C200 O197 1.250 . S
C200 O198 1.248 . S
C201 O202 1.264 . S
C201 O209 1.249 . S
O202 C201 1.264 . S
O203 Mg196 1.986 . S
O203 C207 1.246 . S
O204 Mg199 2.032 . S
O204 C207 1.259 . S
O205 Mg196 2.114 . S
O205 C208 1.252 . S
O206 Mg196 2.251 . S
O206 Mg199 2.079 . S
O206 C208 1.273 . S
C207 O203 1.246 . S
C207 O204 1.259 . S
C208 O205 1.252 . S
C208 O206 1.273 . S
O209 Mg196 2.010 . S
O209 C201 1.249 . S
Mg210 O211 2.028 . S
Mg210 O217 1.986 . S
Mg210 O219 2.114 . S
Mg210 O220 2.251 . S
Mg210 O223 2.010 . S
O211 Mg210 2.028 . S
O211 C214 1.250 . S
O212 Mg213 2.028 . S
O212 C214 1.248 . S
Mg213 O212 2.028 . S
Mg213 O218 2.032 . S
Mg213 O220 2.079 . S
C214 O211 1.250 . S
C214 O212 1.248 . S
C215 O216 1.264 . S
C215 O223 1.249 . S
O216 C215 1.264 . S
O217 Mg210 1.986 . S
O217 C221 1.246 . S
O218 Mg213 2.032 . S
O218 C221 1.259 . S
O219 Mg210 2.114 . S
O219 C222 1.252 . S
O220 Mg210 2.251 . S
O220 Mg213 2.079 . S
O220 C222 1.273 . S
C221 O217 1.246 . S
C221 O218 1.259 . S
C222 O219 1.252 . S
C222 O220 1.273 . S
O223 Mg210 2.010 . S
O223 C215 1.249 . S
Mg224 O225 2.028 1_545 S
Mg224 O231 1.986 . S
Mg224 O233 2.114 . S
Mg224 O234 2.251 . S
Mg224 O237 2.010 . S
O225 Mg224 2.028 1_565 S
O225 C228 1.250 . S
O226 Mg227 2.028 1_565 S
O226 C228 1.248 . S
Mg227 O226 2.028 1_545 S
Mg227 O232 2.032 . S
Mg227 O234 2.079 . S
C228 O225 1.250 . S
C228 O226 1.248 . S
C229 O230 1.264 . S
C229 O237 1.249 . S
O230 C229 1.264 . S
O231 Mg224 1.986 . S
O231 C235 1.246 . S
O232 Mg227 2.032 . S
O232 C235 1.259 . S
O233 Mg224 2.114 . S
O233 C236 1.252 . S
O234 Mg224 2.251 . S
O234 Mg227 2.079 . S
O234 C236 1.273 . S
C235 O231 1.246 . S
C235 O232 1.259 . S
C236 O233 1.252 . S
C236 O234 1.273 . S
O237 Mg224 2.010 . S
O237 C229 1.249 . S
Mg238 O239 2.028 . S
Mg238 O245 1.986 . S
Mg238 O247 2.114 . S
Mg238 O248 2.251 . S
Mg238 O251 2.010 . S
O239 Mg238 2.028 . S
O239 C242 1.250 . S
O240 Mg241 2.028 . S
O240 C242 1.248 . S
Mg241 O240 2.028 . S
Mg241 O246 2.032 . S
Mg241 O248 2.079 . S
C242 O239 1.250 . S
C242 O240 1.248 . S
C243 O244 1.264 . S
C243 O251 1.249 . S
O244 C243 1.264 . S
O245 Mg238 1.986 . S
O245 C249 1.246 . S
O246 Mg241 2.032 . S
O246 C249 1.259 . S
O247 Mg238 2.114 . S
O247 C250 1.252 . S
O248 Mg238 2.251 . S
O248 Mg241 2.079 . S
O248 C250 1.273 . S
C249 O245 1.246 . S
C249 O246 1.259 . S
C250 O247 1.252 . S
C250 O248 1.273 . S
O251 Mg238 2.010 . S
O251 C243 1.249 . S
Mg252 O253 2.028 1_565 S
Mg252 O259 1.986 . S
Mg252 O261 2.114 1_565 S
Mg252 O262 2.251 . S
Mg252 O265 2.010 . S
O253 Mg252 2.028 1_545 S
O253 C256 1.250 . S
O254 Mg255 2.028 . S
O254 C256 1.248 . S
Mg255 O254 2.028 . S
Mg255 O260 2.032 1_545 S
Mg255 O262 2.079 1_545 S
C256 O253 1.250 . S
C256 O254 1.248 . S
C257 O258 1.264 . S
C257 O265 1.249 . S
O258 C257 1.264 . S
O259 Mg252 1.986 . S
O259 C263 1.246 . S
O260 Mg255 2.032 1_565 S
O260 C263 1.259 . S
O261 Mg252 2.114 1_545 S
O261 C264 1.252 . S
O262 Mg252 2.251 . S
O262 Mg255 2.079 1_565 S
O262 C264 1.273 1_565 S
C263 O259 1.246 . S
C263 O260 1.259 . S
C264 O261 1.252 . S
C264 O262 1.273 1_545 S
O265 Mg252 2.010 . S
O265 C257 1.249 . S
Mg266 O267 2.028 1_554 S
Mg266 O273 1.986 . S
Mg266 O275 2.114 1_554 S
Mg266 O276 2.251 . S
Mg266 O279 2.010 . S
O267 Mg266 2.028 1_556 S
O267 C270 1.250 . S
O268 Mg269 2.028 1_556 S
O268 C270 1.248 . S
Mg269 O268 2.028 1_554 S
Mg269 O274 2.032 . S
Mg269 O276 2.079 . S
C270 O267 1.250 . S
C270 O268 1.248 . S
C271 O272 1.264 . S
C271 O279 1.249 . S
O272 C271 1.264 . S
O273 Mg266 1.986 . S
O273 C277 1.246 . S
O274 Mg269 2.032 . S
O274 C277 1.259 . S
O275 Mg266 2.114 1_556 S
O275 C278 1.252 1_556 S
O276 Mg266 2.251 . S
O276 Mg269 2.079 . S
O276 C278 1.273 . S
C277 O273 1.246 . S
C277 O274 1.259 . S
C278 O275 1.252 1_554 S
C278 O276 1.273 . S
O279 Mg266 2.010 . S
O279 C271 1.249 . S
Mg280 O281 2.028 1_556 S
Mg280 O287 1.986 . S
Mg280 O289 2.114 1_556 S
Mg280 O290 2.251 . S
Mg280 O293 2.010 . S
O281 Mg280 2.028 1_554 S
O281 C284 1.250 . S
O282 Mg283 2.046 . S
O282 C284 1.248 . S
Mg283 O282 2.046 . S
Mg283 O288 2.016 1_554 S
Mg283 O290 2.077 1_554 S
C284 O281 1.250 . S
C284 O282 1.248 . S
C285 O286 1.264 . S
C285 O293 1.249 . S
O286 C285 1.264 . S
O287 Mg280 1.986 . S
O287 C291 1.246 . S
O288 Mg283 2.016 1_556 S
O288 C291 1.259 . S
O289 Mg280 2.114 1_554 S
O289 C292 1.252 . S
O290 Mg280 2.251 . S
O290 Mg283 2.077 1_556 S
O290 C292 1.273 1_556 S
C291 O287 1.246 . S
C291 O288 1.259 . S
C292 O289 1.252 . S
C292 O290 1.273 1_554 S
O293 Mg280 2.010 . S
O293 C285 1.249 . S
Mg294 O295 2.028 . S
Mg294 O301 1.986 . S
Mg294 O303 2.114 . S
Mg294 O304 2.251 . S
Mg294 O307 2.010 . S
O295 Mg294 2.028 . S
O295 C298 1.250 . S
O296 Mg297 2.028 . S
O296 C298 1.248 . S
Mg297 O296 2.028 . S
Mg297 O302 2.032 . S
Mg297 O304 2.079 . S
C298 O295 1.250 . S
C298 O296 1.248 . S
C299 O300 1.264 . S
C299 O307 1.249 . S
O300 C299 1.264 . S
O301 Mg294 1.986 . S
O301 C305 1.246 . S
O302 Mg297 2.032 . S
O302 C305 1.259 . S
O303 Mg294 2.114 . S
O303 C306 1.252 . S
O304 Mg294 2.251 . S
O304 Mg297 2.079 . S
O304 C306 1.273 . S
C305 O301 1.246 . S
C305 O302 1.259 . S
C306 O303 1.252 . S
C306 O304 1.273 . S
O307 Mg294 2.010 . S
O307 C299 1.249 . S
Mg308 O309 2.028 . S
Mg308 O315 1.986 . S
Mg308 O317 2.114 . S
Mg308 O318 2.251 . S
Mg308 O321 2.010 . S
O309 Mg308 2.028 . S
O309 C312 1.250 . S
O310 Mg311 2.028 . S
O310 C312 1.248 . S
Mg311 O310 2.028 . S
Mg311 O316 2.032 . S
Mg311 O318 2.079 . S
C312 O309 1.250 . S
C312 O310 1.248 . S
C313 O314 1.264 . S
C313 O321 1.249 . S
O314 C313 1.264 . S
O315 Mg308 1.986 . S
O315 C319 1.246 . S
O316 Mg311 2.032 . S
O316 C319 1.259 . S
O317 Mg308 2.114 . S
O317 C320 1.252 . S
O318 Mg308 2.251 . S
O318 Mg311 2.079 . S
O318 C320 1.273 . S
C319 O315 1.246 . S
C319 O316 1.259 . S
C320 O317 1.252 . S
C320 O318 1.273 . S
O321 Mg308 2.010 . S
O321 C313 1.249 . S
Mg322 O323 2.028 . S
Mg322 O329 1.986 . S
Mg322 O331 2.114 . S
Mg322 O332 2.251 . S
Mg322 O335 2.010 . S
O323 Mg322 2.028 . S
O323 C326 1.250 . S
O324 Mg325 2.028 . S
O324 C326 1.248 . S
Mg325 O324 2.028 . S
Mg325 O330 2.032 . S
Mg325 O332 2.079 . S
C326 O323 1.250 . S
C326 O324 1.248 . S
C327 O328 1.264 . S
C327 O335 1.249 . S
O328 C327 1.264 . S
O329 Mg322 1.986 . S
O329 C333 1.246 . S
O330 Mg325 2.032 . S
O330 C333 1.259 . S
O331 Mg322 2.114 . S
O331 C334 1.252 . S
O332 Mg322 2.251 . S
O332 Mg325 2.079 . S
O332 C334 1.273 . S
C333 O329 1.246 . S
C333 O330 1.259 . S
C334 O331 1.252 . S
C334 O332 1.273 . S
O335 Mg322 2.010 . S
O335 C327 1.249 . S
O336 Zn337 1.953 . S
O336 C352 1.225 1_455 S
Zn337 O336 1.953 . S
Zn337 O338 1.949 . S
Zn337 O344 1.919 1_554 S
Zn337 O349 1.924 1_454 S
O338 Zn337 1.949 . S
O338 Zn339 1.923 1_545 S
O338 Zn340 1.950 1_455 S
O338 Zn341 1.945 1_444 S
Zn339 O338 1.923 1_565 S
Zn339 O342 1.933 . S
Zn339 O345 1.941 1_565 S
Zn339 O346 1.965 . S
Zn340 O338 1.950 1_655 S
Zn340 O347 1.938 . S
Zn340 O348 1.906 1_545 S
Zn340 O358 1.953 . S
Zn341 O338 1.945 1_666 S
Zn341 O343 1.932 . S
Zn341 O350 1.977 1_556 S
Zn341 O351 1.910 1_565 S
O342 Zn339 1.933 . S
O342 C353 1.226 1_554 S
O343 Zn341 1.932 . S
O343 C353 1.307 1_655 S
O344 Zn337 1.919 1_556 S
O344 C355 1.253 1_556 S
O345 Zn339 1.941 1_545 S
O345 C355 1.283 . S
O346 Zn339 1.965 . S
O346 C354 1.288 1_565 S
O347 Zn340 1.938 . S
O347 C354 1.258 1_655 S
O348 Zn340 1.906 1_565 S
O348 C356 1.304 . S
O349 Zn337 1.924 1_656 S
O349 C357 1.311 . S
O350 Zn341 1.977 1_554 S
O350 C356 1.272 . S
O351 Zn341 1.910 1_545 S
O351 C357 1.231 . S
C352 O336 1.225 1_655 S
C352 O358 1.298 . S
C353 O342 1.226 1_556 S
C353 O343 1.307 1_455 S
C354 O346 1.288 1_545 S
C354 O347 1.258 1_455 S
C355 O344 1.253 1_554 S
C355 O345 1.283 . S
C356 O348 1.304 . S
C356 O350 1.272 . S
C357 O349 1.311 . S
C357 O351 1.231 . S
O358 Zn340 1.953 . S
O358 C352 1.298 . S
O359 Zn360 1.953 . S
O359 C375 1.225 . S
Zn360 O359 1.953 . S
Zn360 O361 1.949 . S
Zn360 O367 1.919 . S
Zn360 O372 1.924 . S
O361 Zn360 1.949 . S
O361 Zn362 1.923 . S
O361 Zn363 1.950 . S
O361 Zn364 1.945 . S
Zn362 O361 1.923 . S
Zn362 O365 1.933 . S
Zn362 O368 1.941 . S
Zn362 O369 1.965 . S
Zn363 O361 1.950 . S
Zn363 O370 1.938 . S
Zn363 O371 1.906 . S
Zn363 O381 1.953 . S
Zn364 O361 1.945 . S
Zn364 O366 1.932 . S
Zn364 O373 1.977 . S
Zn364 O374 1.910 . S
O365 Zn362 1.933 . S
O365 C376 1.226 . S
O366 Zn364 1.932 . S
O366 C376 1.307 . S
O367 Zn360 1.919 . S
O367 C378 1.253 . S
O368 Zn362 1.941 . S
O368 C378 1.283 . S
O369 Zn362 1.965 . S
O369 C377 1.303 . S
O370 Zn363 1.938 . S
O370 C377 1.247 . S
O371 Zn363 1.906 . S
O371 C379 1.304 . S
O372 Zn360 1.924 . S
O372 C380 1.311 . S
O373 Zn364 1.977 . S
O373 C379 1.272 . S
O374 Zn364 1.910 . S
O374 C380 1.231 . S
C375 O359 1.225 . S
C375 O381 1.298 . S
C376 O365 1.226 . S
C376 O366 1.307 . S
C377 O369 1.303 . S
C377 O370 1.247 . S
C378 O367 1.253 . S
C378 O368 1.283 . S
C379 O371 1.304 . S
C379 O373 1.272 . S
C380 O372 1.311 . S
C380 O374 1.231 . S
O381 Zn363 1.953 . S
O381 C375 1.298 . S
O382 Zn383 1.953 . S
O382 C398 1.225 . S
Zn383 O382 1.953 . S
Zn383 O384 1.949 1_565 S
Zn383 O390 1.919 . S
Zn383 O395 1.924 . S
O384 Zn383 1.949 1_545 S
O384 Zn385 1.923 . S
O384 Zn386 1.950 . S
O384 Zn387 1.945 . S
Zn385 O384 1.923 . S
Zn385 O388 1.933 . S
Zn385 O391 1.941 . S
Zn385 O392 1.965 . S
Zn386 O384 1.950 . S
Zn386 O393 1.938 . S
Zn386 O394 1.906 . S
Zn386 O404 1.953 1_545 S
Zn387 O384 1.945 . S
Zn387 O389 1.932 . S
Zn387 O396 1.977 . S
Zn387 O397 1.910 . S
O388 Zn385 1.933 . S
O388 C399 1.226 . S
O389 Zn387 1.932 . S
O389 C399 1.307 . S
O390 Zn383 1.919 . S
O390 C401 1.253 . S
O391 Zn385 1.941 . S
O391 C401 1.283 1_545 S
O392 Zn385 1.965 . S
O392 C400 1.303 . S
O393 Zn386 1.938 . S
O393 C400 1.247 . S
O394 Zn386 1.906 . S
O394 C402 1.304 . S
O395 Zn383 1.924 . S
O395 C403 1.311 . S
O396 Zn387 1.977 . S
O396 C402 1.272 . S
O397 Zn387 1.910 . S
O397 C403 1.231 1_545 S
C398 O382 1.225 . S
C398 O404 1.298 . S
C399 O388 1.226 . S
C399 O389 1.307 . S
C400 O392 1.303 . S
C400 O393 1.247 . S
C401 O390 1.253 . S
C401 O391 1.283 1_565 S
C402 O394 1.304 . S
C402 O396 1.272 . S
C403 O395 1.311 . S
C403 O397 1.231 1_565 S
O404 Zn386 1.953 1_565 S
O404 C398 1.298 . S
O405 Zn406 1.953 . S
O405 C421 1.225 . S
Zn406 O405 1.953 . S
Zn406 O407 1.949 . S
Zn406 O413 1.919 . S
Zn406 O418 1.924 . S
O407 Zn406 1.949 . S
O407 Zn408 1.923 . S
O407 Zn409 1.950 . S
O407 Zn410 1.945 . S
Zn408 O407 1.923 . S
Zn408 O411 1.933 . S
Zn408 O414 1.941 . S
Zn408 O415 1.965 . S
Zn409 O407 1.950 . S
Zn409 O416 1.938 . S
Zn409 O417 1.906 . S
Zn409 O427 1.953 . S
Zn410 O407 1.945 . S
Zn410 O412 1.932 . S
Zn410 O419 1.977 . S
Zn410 O420 1.910 . S
O411 Zn408 1.933 . S
O411 C422 1.226 . S
O412 Zn410 1.932 . S
O412 C422 1.307 . S
O413 Zn406 1.919 . S
O413 C424 1.253 . S
O414 Zn408 1.941 . S
O414 C424 1.283 . S
O415 Zn408 1.965 . S
O415 C423 1.303 . S
O416 Zn409 1.938 . S
O416 C423 1.247 . S
O417 Zn409 1.906 . S
O417 C425 1.304 . S
O418 Zn406 1.924 . S
O418 C426 1.311 . S
O419 Zn410 1.977 . S
O419 C425 1.272 . S
O420 Zn410 1.910 . S
O420 C426 1.231 . S
C421 O405 1.225 . S
C421 O427 1.298 . S
C422 O411 1.226 . S
C422 O412 1.307 . S
C423 O415 1.303 . S
C423 O416 1.247 . S
C424 O413 1.253 . S
C424 O414 1.283 . S
C425 O417 1.304 . S
C425 O419 1.272 . S
C426 O418 1.311 . S
C426 O420 1.231 . S
O427 Zn409 1.953 . S
O427 C421 1.298 . S
O428 Zn429 1.953 1_445 S
O428 C444 1.225 . S
Zn429 O428 1.953 1_665 S
Zn429 O430 1.949 1_665 S
Zn429 O436 1.919 . S
Zn429 O441 1.924 1_565 S
O430 Zn429 1.949 1_445 S
O430 Zn431 1.923 1_545 S
O430 Zn432 1.950 . S
O430 Zn433 1.945 1_455 S
Zn431 O430 1.923 1_565 S
Zn431 O434 1.933 . S
Zn431 O437 1.941 . S
Zn431 O438 1.965 . S
Zn432 O430 1.950 . S
Zn432 O439 1.938 . S
Zn432 O440 1.906 . S
Zn432 O450 1.953 . S
Zn433 O430 1.945 1_655 S
Zn433 O435 1.932 . S
Zn433 O442 1.977 1_655 S
Zn433 O443 1.910 . S
O434 Zn431 1.933 . S
O434 C445 1.226 1_455 S
O435 Zn433 1.932 . S
O435 C445 1.307 1_545 S
O436 Zn429 1.919 . S
O436 C447 1.253 . S
O437 Zn431 1.941 . S
O437 C447 1.283 1_455 S
O438 Zn431 1.965 . S
O438 C446 1.303 . S
O439 Zn432 1.938 . S
O439 C446 1.247 1_545 S
O440 Zn432 1.906 . S
O440 C448 1.304 . S
O441 Zn429 1.924 1_545 S
O441 C449 1.311 . S
O442 Zn433 1.977 1_455 S
O442 C448 1.272 . S
O443 Zn433 1.910 . S
O443 C449 1.231 . S
C444 O428 1.225 . S
C444 O450 1.298 . S
C445 O434 1.226 1_655 S
C445 O435 1.307 1_565 S
C446 O438 1.303 . S
C446 O439 1.247 1_565 S
C447 O436 1.253 . S
C447 O437 1.283 1_655 S
C448 O440 1.304 . S
C448 O442 1.272 . S
C449 O441 1.311 . S
C449 O443 1.231 . S
O450 Zn432 1.953 . S
O450 C444 1.298 . S
O451 Zn452 1.953 . S
O451 C467 1.225 . S
Zn452 O451 1.953 . S
Zn452 O453 1.949 . S
Zn452 O459 1.919 . S
Zn452 O464 1.924 . S
O453 Zn452 1.949 . S
O453 Zn454 1.923 . S
O453 Zn455 1.950 . S
O453 Zn456 1.945 . S
Zn454 O453 1.923 . S
Zn454 O457 1.933 . S
Zn454 O460 1.941 . S
Zn454 O461 1.965 . S
Zn455 O453 1.950 . S
Zn455 O462 1.938 . S
Zn455 O463 1.906 . S
Zn455 O473 1.953 . S
Zn456 O453 1.945 . S
Zn456 O458 1.932 . S
Zn456 O465 1.977 . S
Zn456 O466 1.910 . S
O457 Zn454 1.933 . S
O457 C468 1.226 . S
O458 Zn456 1.932 . S
O458 C468 1.307 . S
O459 Zn452 1.919 . S
O459 C470 1.253 . S
O460 Zn454 1.941 . S
O460 C470 1.283 . S
O461 Zn454 1.965 . S
O461 C469 1.303 . S
O462 Zn455 1.938 . S
O462 C469 1.247 . S
O463 Zn455 1.906 . S
O463 C471 1.304 . S
O464 Zn452 1.924 . S
O464 C472 1.311 . S
O465 Zn456 1.977 . S
O465 C471 1.272 . S
O466 Zn456 1.910 . S
O466 C472 1.231 . S
C467 O451 1.225 . S
C467 O473 1.298 . S
C468 O457 1.226 . S
C468 O458 1.307 . S
C469 O461 1.303 . S
C469 O462 1.247 . S
C470 O459 1.253 . S
C470 O460 1.283 . S
C471 O463 1.304 . S
C471 O465 1.272 . S
C472 O464 1.311 . S
C472 O466 1.231 . S
O473 Zn455 1.953 . S
O473 C467 1.298 . S
O474 Zn475 1.953 . S
O474 C490 1.225 . S
Zn475 O474 1.953 . S
Zn475 O476 1.949 . S
Zn475 O482 1.919 1_545 S
Zn475 O487 1.924 . S
O476 Zn475 1.949 . S
O476 Zn477 1.923 1_544 S
O476 Zn478 1.950 . S
O476 Zn479 1.945 1_554 S
Zn477 O476 1.923 1_566 S
Zn477 O480 1.933 . S
Zn477 O483 1.941 . S
Zn477 O484 1.965 1_556 S
Zn478 O476 1.950 . S
Zn478 O485 1.938 1_545 S
Zn478 O486 1.906 . S
Zn478 O496 1.953 . S
Zn479 O476 1.945 1_556 S
Zn479 O481 1.932 . S
Zn479 O488 1.977 1_556 S
Zn479 O489 1.910 . S
O480 Zn477 1.933 . S
O480 C491 1.226 . S
O481 Zn479 1.932 . S
O481 C491 1.307 1_545 S
O482 Zn475 1.919 1_565 S
O482 C493 1.253 1_554 S
O483 Zn477 1.941 . S
O483 C493 1.283 . S
O484 Zn477 1.965 1_554 S
O484 C492 1.303 . S
O485 Zn478 1.938 1_565 S
O485 C492 1.247 . S
O486 Zn478 1.906 . S
O486 C494 1.304 . S
O487 Zn475 1.924 . S
O487 C495 1.311 1_554 S
O488 Zn479 1.977 1_554 S
O488 C494 1.272 . S
O489 Zn479 1.910 . S
O489 C495 1.231 . S
C490 O474 1.225 . S
C490 O496 1.298 . S
C491 O480 1.226 . S
C491 O481 1.307 1_565 S
C492 O484 1.303 . S
C492 O485 1.247 . S
C493 O482 1.253 1_556 S
C493 O483 1.283 . S
C494 O486 1.304 . S
C494 O488 1.272 . S
C495 O487 1.311 1_556 S
C495 O489 1.231 . S
O496 Zn478 1.953 . S
O496 C490 1.298 . S
O497 Zn498 1.953 . S
O497 C513 1.225 . S
Zn498 O497 1.953 . S
Zn498 O499 1.949 . S
Zn498 O505 1.919 . S
Zn498 O510 1.924 . S
O499 Zn498 1.949 . S
O499 Zn500 1.923 . S
O499 Zn501 1.950 . S
O499 Zn502 1.945 . S
Zn500 O499 1.923 . S
Zn500 O503 1.933 . S
Zn500 O506 1.941 . S
Zn500 O507 1.965 . S
Zn501 O499 1.950 . S
Zn501 O508 1.938 . S
Zn501 O509 1.906 . S
Zn501 O519 1.953 . S
Zn502 O499 1.945 . S
Zn502 O504 1.932 . S
Zn502 O511 1.977 . S
Zn502 O512 1.910 . S
O503 Zn500 1.933 . S
O503 C514 1.226 . S
O504 Zn502 1.932 . S
O504 C514 1.307 . S
O505 Zn498 1.919 . S
O505 C516 1.253 . S
O506 Zn500 1.941 . S
O506 C516 1.283 . S
O507 Zn500 1.965 . S
O507 C515 1.303 . S
O508 Zn501 1.938 . S
O508 C515 1.247 . S
O509 Zn501 1.906 . S
O509 C517 1.304 . S
O510 Zn498 1.924 . S
O510 C518 1.311 . S
O511 Zn502 1.977 . S
O511 C517 1.272 . S
O512 Zn502 1.910 . S
O512 C518 1.231 . S
C513 O497 1.225 . S
C513 O519 1.298 . S
C514 O503 1.226 . S
C514 O504 1.307 . S
C515 O507 1.303 . S
C515 O508 1.247 . S
C516 O505 1.253 . S
C516 O506 1.283 . S
C517 O509 1.304 . S
C517 O511 1.272 . S
C518 O510 1.311 . S
C518 O512 1.231 . S
O519 Zn501 1.953 . S
O519 C513 1.298 . S
O520 Zn521 1.953 . S
O520 C536 1.225 . S
Zn521 O520 1.953 . S
Zn521 O522 1.949 1_556 S
Zn521 O528 1.919 . S
Zn521 O533 1.924 . S
O522 Zn521 1.949 1_554 S
O522 Zn523 1.923 . S
O522 Zn524 1.950 . S
O522 Zn525 1.945 . S
Zn523 O522 1.923 . S
Zn523 O526 1.933 . S
Zn523 O529 1.941 . S
Zn523 O530 1.965 . S
Zn524 O522 1.950 . S
Zn524 O531 1.938 . S
Zn524 O532 1.906 . S
Zn524 O542 1.953 1_554 S
Zn525 O522 1.945 . S
Zn525 O527 1.932 . S
Zn525 O534 1.977 . S
Zn525 O535 1.910 . S
O526 Zn523 1.933 . S
O526 C537 1.226 . S
O527 Zn525 1.932 . S
O527 C537 1.307 . S
O528 Zn521 1.919 . S
O528 C539 1.253 . S
O529 Zn523 1.941 . S
O529 C539 1.283 1_554 S
O530 Zn523 1.965 . S
O530 C538 1.303 . S
O531 Zn524 1.938 . S
O531 C538 1.247 . S
O532 Zn524 1.906 . S
O532 C540 1.304 . S
O533 Zn521 1.924 . S
O533 C541 1.311 . S
O534 Zn525 1.977 . S
O534 C540 1.272 . S
O535 Zn525 1.910 . S
O535 C541 1.231 1_554 S
C536 O520 1.225 . S
C536 O542 1.298 . S
C537 O526 1.226 . S
C537 O527 1.307 . S
C538 O530 1.303 . S
C538 O531 1.247 . S
C539 O528 1.253 . S
C539 O529 1.283 1_556 S
C540 O532 1.304 . S
C540 O534 1.272 . S
C541 O533 1.311 . S
C541 O535 1.231 1_556 S
O542 Zn524 1.953 1_556 S
O542 C536 1.298 . S
O543 Zn544 1.953 . S
O543 C559 1.225 . S
Zn544 O543 1.953 . S
Zn544 O545 1.949 . S
Zn544 O551 1.919 . S
Zn544 O556 1.924 . S
O545 Zn544 1.949 . S
O545 Zn546 1.923 . S
O545 Zn547 1.950 . S
O545 Zn548 1.945 . S
Zn546 O545 1.923 . S
Zn546 O549 1.933 . S
Zn546 O552 1.941 . S
Zn546 O553 1.965 . S
Zn547 O545 1.950 . S
Zn547 O554 1.938 . S
Zn547 O555 1.906 . S
Zn547 O565 1.953 . S
Zn548 O545 1.945 . S
Zn548 O550 1.932 . S
Zn548 O557 1.977 . S
Zn548 O558 1.910 . S
O549 Zn546 1.933 . S
O549 C560 1.226 . S
O550 Zn548 1.932 . S
O550 C560 1.307 . S
O551 Zn544 1.919 . S
O551 C562 1.253 . S
O552 Zn546 1.941 . S
O552 C562 1.283 . S
O553 Zn546 1.965 . S
O553 C561 1.303 . S
O554 Zn547 1.938 . S
O554 C561 1.247 . S
O555 Zn547 1.906 . S
O555 C563 1.304 . S
O556 Zn544 1.924 . S
O556 C564 1.311 . S
O557 Zn548 1.977 . S
O557 C563 1.272 . S
O558 Zn548 1.910 . S
O558 C564 1.231 . S
C559 O543 1.225 . S
C559 O565 1.298 . S
C560 O549 1.226 . S
C560 O550 1.307 . S
C561 O553 1.303 . S
C561 O554 1.247 . S
C562 O551 1.253 . S
C562 O552 1.283 . S
C563 O555 1.304 . S
C563 O557 1.272 . S
C564 O556 1.311 . S
C564 O558 1.231 . S
O565 Zn547 1.953 . S
O565 C559 1.298 . S
O566 Zn567 1.953 . S
O566 C582 1.225 . S
Zn567 O566 1.953 . S
Zn567 O568 1.944 1_455 S
Zn567 O574 1.919 . S
Zn567 O579 1.924 . S
O568 Zn567 1.944 1_655 S
O568 Zn569 1.922 1_655 S
O568 Zn570 1.953 . S
O568 Zn571 1.947 . S
Zn569 O568 1.922 1_455 S
Zn569 O572 1.921 1_455 S
Zn569 O575 1.970 . S
Zn569 O576 1.956 1_455 S
Zn570 O568 1.953 . S
Zn570 O577 1.938 . S
Zn570 O578 1.906 . S
Zn570 O588 1.935 1_655 S
Zn571 O568 1.947 . S
Zn571 O573 1.932 . S
Zn571 O580 1.977 . S
Zn571 O581 1.895 1_655 S
O572 Zn569 1.921 1_655 S
O572 C583 1.226 . S
O573 Zn571 1.932 . S
O573 C583 1.307 . S
O574 Zn567 1.919 . S
O574 C585 1.253 . S
O575 Zn569 1.970 . S
O575 C585 1.283 . S
O576 Zn569 1.956 1_655 S
O576 C584 1.303 . S
O577 Zn570 1.938 . S
O577 C584 1.247 . S
O578 Zn570 1.906 . S
O578 C586 1.304 . S
O579 Zn567 1.924 . S
O579 C587 1.311 . S
O580 Zn571 1.977 . S
O580 C586 1.272 . S
O581 Zn571 1.895 1_455 S
O581 C587 1.260 . S
C582 O566 1.225 . S
C582 O588 1.333 . S
C583 O572 1.226 . S
C583 O573 1.307 . S
C584 O576 1.303 . S
C584 O577 1.247 . S
C585 O574 1.253 . S
C585 O575 1.283 . S
C586 O578 1.304 . S
C586 O580 1.272 . S
C587 O579 1.311 . S
C587 O581 1.260 . S
O588 Zn570 1.935 1_455 S
O588 C582 1.333 . S
O589 Zn590 1.953 . S
O589 C605 1.225 . S
Zn590 O589 1.953 . S
Zn590 O591 1.949 . S
Zn590 O597 1.919 . S
Zn590 O602 1.924 . S
O591 Zn590 1.949 . S
O591 Zn592 1.923 . S
O591 Zn593 1.950 . S
O591 Zn594 1.945 . S
Zn592 O591 1.923 . S
Zn592 O595 1.933 . S
Zn592 O598 1.941 . S
Zn592 O599 1.965 . S
Zn593 O591 1.950 . S
Zn593 O600 1.938 . S
Zn593 O601 1.906 . S
Zn593 O611 1.953 . S
Zn594 O591 1.945 . S
Zn594 O596 1.932 . S
Zn594 O603 1.977 . S
Zn594 O604 1.910 . S
O595 Zn592 1.933 . S
O595 C606 1.226 . S
O596 Zn594 1.932 . S
O596 C606 1.307 . S
O597 Zn590 1.919 . S
O597 C608 1.253 . S
O598 Zn592 1.941 . S
O598 C608 1.283 . S
O599 Zn592 1.965 . S
O599 C607 1.303 . S
O600 Zn593 1.938 . S
O600 C607 1.247 . S
O601 Zn593 1.906 . S
O601 C609 1.304 . S
O602 Zn590 1.924 . S
O602 C610 1.311 . S
O603 Zn594 1.977 . S
O603 C609 1.272 . S
O604 Zn594 1.910 . S
O604 C610 1.231 . S
C605 O589 1.225 . S
C605 O611 1.298 . S
C606 O595 1.226 . S
C606 O596 1.307 . S
C607 O599 1.303 . S
C607 O600 1.247 . S
C608 O597 1.253 . S
C608 O598 1.283 . S
C609 O601 1.304 . S
C609 O603 1.272 . S
C610 O602 1.311 . S
C610 O604 1.231 . S
O611 Zn593 1.953 . S
O611 C605 1.298 . S
O612 Zn613 1.953 . S
O612 C628 1.225 . S
Zn613 O612 1.953 . S
Zn613 O614 1.949 . S
Zn613 O620 1.919 . S
Zn613 O625 1.924 . S
O614 Zn613 1.949 . S
O614 Zn615 1.923 . S
O614 Zn616 1.950 . S
O614 Zn617 1.945 . S
Zn615 O614 1.923 . S
Zn615 O618 1.933 . S
Zn615 O621 1.941 . S
Zn615 O622 1.965 . S
Zn616 O614 1.950 . S
Zn616 O623 1.938 . S
Zn616 O624 1.906 . S
Zn616 O634 1.953 . S
Zn617 O614 1.945 . S
Zn617 O619 1.932 . S
Zn617 O626 1.977 . S
Zn617 O627 1.910 . S
O618 Zn615 1.933 . S
O618 C629 1.226 . S
O619 Zn617 1.932 . S
O619 C629 1.307 . S
O620 Zn613 1.919 . S
O620 C631 1.253 . S
O621 Zn615 1.941 . S
O621 C631 1.283 . S
O622 Zn615 1.965 . S
O622 C630 1.303 . S
O623 Zn616 1.938 . S
O623 C630 1.247 . S
O624 Zn616 1.906 . S
O624 C632 1.304 . S
O625 Zn613 1.924 . S
O625 C633 1.311 . S
O626 Zn617 1.977 . S
O626 C632 1.272 . S
O627 Zn617 1.910 . S
O627 C633 1.231 . S
C628 O612 1.225 . S
C628 O634 1.298 . S
C629 O618 1.226 . S
C629 O619 1.307 . S
C630 O622 1.303 . S
C630 O623 1.247 . S
C631 O620 1.253 . S
C631 O621 1.283 . S
C632 O624 1.304 . S
C632 O626 1.272 . S
C633 O625 1.311 . S
C633 O627 1.231 . S
O634 Zn616 1.953 . S
O634 C628 1.298 . S
O635 Zn636 1.953 . S
O635 C651 1.225 . S
Zn636 O635 1.953 . S
Zn636 O637 1.949 . S
Zn636 O643 1.919 . S
Zn636 O648 1.924 . S
O637 Zn636 1.949 . S
O637 Zn638 1.923 . S
O637 Zn639 1.950 . S
O637 Zn640 1.945 . S
Zn638 O637 1.923 . S
Zn638 O641 1.933 . S
Zn638 O644 1.941 . S
Zn638 O645 1.965 . S
Zn639 O637 1.950 . S
Zn639 O646 1.938 . S
Zn639 O647 1.906 . S
Zn639 O657 1.953 . S
Zn640 O637 1.945 . S
Zn640 O642 1.932 . S
Zn640 O649 1.977 . S
Zn640 O650 1.910 . S
O641 Zn638 1.933 . S
O641 C652 1.226 . S
O642 Zn640 1.932 . S
O642 C652 1.307 . S
O643 Zn636 1.919 . S
O643 C654 1.253 . S
O644 Zn638 1.941 . S
O644 C654 1.283 . S
O645 Zn638 1.965 . S
O645 C653 1.303 . S
O646 Zn639 1.938 . S
O646 C653 1.247 . S
O647 Zn639 1.906 . S
O647 C655 1.304 . S
O648 Zn636 1.924 . S
O648 C656 1.311 . S
O649 Zn640 1.977 . S
O649 C655 1.272 . S
O650 Zn640 1.910 . S
O650 C656 1.231 . S
C651 O635 1.225 . S
C651 O657 1.298 . S
C652 O641 1.226 . S
C652 O642 1.307 . S
C653 O645 1.303 . S
C653 O646 1.247 . S
C654 O643 1.253 . S
C654 O644 1.283 . S
C655 O647 1.304 . S
C655 O649 1.272 . S
C656 O648 1.311 . S
C656 O650 1.231 . S
O657 Zn639 1.953 . S
O657 C651 1.298 . S
O658 Zn659 1.953 . S
O658 C674 1.225 . S
Zn659 O658 1.953 . S
Zn659 O660 1.949 . S
Zn659 O666 1.919 . S
Zn659 O671 1.924 . S
O660 Zn659 1.949 . S
O660 Zn661 1.923 . S
O660 Zn662 1.950 . S
O660 Zn663 1.945 . S
Zn661 O660 1.923 . S
Zn661 O664 1.933 . S
Zn661 O667 1.941 . S
Zn661 O668 1.965 . S
Zn662 O660 1.950 . S
Zn662 O669 1.938 . S
Zn662 O670 1.906 . S
Zn662 O680 1.953 . S
Zn663 O660 1.945 . S
Zn663 O665 1.932 . S
Zn663 O672 1.977 . S
Zn663 O673 1.910 . S
O664 Zn661 1.933 . S
O664 C675 1.226 . S
O665 Zn663 1.932 . S
O665 C675 1.307 . S
O666 Zn659 1.919 . S
O666 C677 1.253 . S
O667 Zn661 1.941 . S
O667 C677 1.283 . S
O668 Zn661 1.965 . S
O668 C676 1.303 . S
O669 Zn662 1.938 . S
O669 C676 1.247 . S
O670 Zn662 1.906 . S
O670 C678 1.304 . S
O671 Zn659 1.924 . S
O671 C679 1.311 . S
O672 Zn663 1.977 . S
O672 C678 1.272 . S
O673 Zn663 1.910 . S
O673 C679 1.231 . S
C674 O658 1.225 . S
C674 O680 1.298 . S
C675 O664 1.226 . S
C675 O665 1.307 . S
C676 O668 1.303 . S
C676 O669 1.247 . S
C677 O666 1.253 . S
C677 O667 1.283 . S
C678 O670 1.304 . S
C678 O672 1.272 . S
C679 O671 1.311 . S
C679 O673 1.231 . S
O680 Zn662 1.953 . S
O680 C674 1.298 . S
O681 Zn682 1.953 1_454 S
O681 C697 1.225 . S
Zn682 O681 1.953 1_656 S
Zn682 O683 1.949 1_656 S
Zn682 O689 1.919 . S
Zn682 O694 1.924 1_655 S
O683 Zn682 1.949 1_454 S
O683 Zn684 1.923 1_455 S
O683 Zn685 1.950 . S
O683 Zn686 1.945 1_554 S
Zn684 O683 1.923 1_655 S
Zn684 O687 1.933 . S
Zn684 O690 1.941 . S
Zn684 O691 1.965 . S
Zn685 O683 1.950 . S
Zn685 O692 1.938 . S
Zn685 O693 1.906 . S
Zn685 O703 1.953 . S
Zn686 O683 1.945 1_556 S
Zn686 O688 1.932 . S
Zn686 O695 1.977 1_556 S
Zn686 O696 1.910 . S
O687 Zn684 1.933 . S
O687 C698 1.226 1_554 S
O688 Zn686 1.932 . S
O688 C698 1.307 1_455 S
O689 Zn682 1.919 . S
O689 C700 1.262 . S
O690 Zn684 1.941 . S
O690 C700 1.261 1_554 S
O691 Zn684 1.965 . S
O691 C699 1.303 . S
O692 Zn685 1.938 . S
O692 C699 1.247 1_455 S
O693 Zn685 1.906 . S
O693 C701 1.304 . S
O694 Zn682 1.924 1_455 S
O694 C702 1.311 . S
O695 Zn686 1.977 1_554 S
O695 C701 1.272 . S
O696 Zn686 1.910 . S
O696 C702 1.231 . S
C697 O681 1.225 . S
C697 O703 1.298 . S
C698 O687 1.226 1_556 S
C698 O688 1.307 1_655 S
C699 O691 1.303 . S
C699 O692 1.247 1_655 S
C700 O689 1.262 . S
C700 O690 1.261 1_556 S
C701 O693 1.304 . S
C701 O695 1.272 . S
C702 O694 1.311 . S
C702 O696 1.231 . S
O703 Zn685 1.953 . S
O703 C697 1.298 . S
C704 C705 1.369 . S
C704 C706 1.419 . S
C704 H708 0.930 . S
C705 C704 1.369 . S
C705 C714 1.429 1_455 S
C706 C704 1.419 . S
C706 C707 1.363 1_455 S
C706 H709 0.929 . S
C707 C706 1.363 1_655 S
C707 C713 1.428 . S
H708 C704 0.930 . S
H709 C706 0.929 . S
S710 N711 1.613 . S
S710 N712 1.610 . S
N711 S710 1.613 . S
N711 C714 1.350 . S
N712 S710 1.610 . S
N712 C713 1.351 . S
C713 C707 1.428 . S
C713 N712 1.351 . S
C713 C714 1.434 . S
C714 C705 1.429 1_655 S
C714 N711 1.350 . S
C714 C713 1.434 . S
C715 C716 1.369 . S
C715 C717 1.419 . S
C715 H719 0.930 . S
C716 C715 1.369 . S
C716 C725 1.429 . S
C717 C715 1.419 . S
C717 C718 1.363 . S
C717 H720 0.929 . S
C718 C717 1.363 . S
C718 C724 1.428 . S
H719 C715 0.930 . S
H720 C717 0.929 . S
S721 N722 1.613 . S
S721 N723 1.610 . S
N722 S721 1.613 . S
N722 C725 1.350 . S
N723 S721 1.610 . S
N723 C724 1.351 . S
C724 C718 1.428 . S
C724 N723 1.351 . S
C724 C725 1.434 . S
C725 C716 1.429 . S
C725 N722 1.350 . S
C725 C724 1.434 . S
C726 C727 1.369 . S
C726 C728 1.419 . S
C726 H730 0.930 . S
C727 C726 1.369 . S
C727 C736 1.429 . S
C728 C726 1.419 . S
C728 C729 1.363 . S
C728 H731 0.929 . S
C729 C728 1.363 . S
C729 C735 1.428 . S
H730 C726 0.930 . S
H731 C728 0.929 . S
S732 N733 1.613 . S
S732 N734 1.610 . S
N733 S732 1.613 . S
N733 C736 1.350 . S
N734 S732 1.610 . S
N734 C735 1.351 . S
C735 C729 1.428 . S
C735 N734 1.351 . S
C735 C736 1.434 . S
C736 C727 1.429 . S
C736 N733 1.350 . S
C736 C735 1.434 . S
C737 C738 1.369 . S
C737 C739 1.419 . S
C737 H741 0.930 . S
C738 C737 1.369 . S
C738 C747 1.429 . S
C739 C737 1.419 . S
C739 C740 1.363 . S
C739 H742 0.929 . S
C740 C739 1.363 . S
C740 C746 1.428 . S
H741 C737 0.930 . S
H742 C739 0.929 . S
S743 N744 1.613 . S
S743 N745 1.610 . S
N744 S743 1.613 . S
N744 C747 1.350 . S
N745 S743 1.610 . S
N745 C746 1.351 . S
C746 C740 1.428 . S
C746 N745 1.351 . S
C746 C747 1.434 . S
C747 C738 1.429 . S
C747 N744 1.350 . S
C747 C746 1.434 . S
C748 C749 1.369 1_655 S
C748 C750 1.419 . S
C748 H752 0.930 . S
C749 C748 1.369 1_455 S
C749 C758 1.429 . S
C750 C748 1.419 . S
C750 C751 1.363 . S
C750 H753 0.929 . S
C751 C750 1.363 . S
C751 C757 1.428 1_655 S
H752 C748 0.930 . S
H753 C750 0.929 . S
S754 N755 1.613 . S
S754 N756 1.610 . S
N755 S754 1.613 . S
N755 C758 1.350 . S
N756 S754 1.610 . S
N756 C757 1.351 . S
C757 C751 1.428 1_455 S
C757 N756 1.351 . S
C757 C758 1.434 . S
C758 C749 1.429 . S
C758 N755 1.350 . S
C758 C757 1.434 . S
C759 C760 1.369 . S
C759 C761 1.419 . S
C759 H763 0.930 . S
C760 C759 1.369 . S
C760 C769 1.429 . S
C761 C759 1.419 . S
C761 C762 1.363 . S
C761 H764 0.929 . S
C762 C761 1.363 . S
C762 C768 1.428 . S
H763 C759 0.930 . S
H764 C761 0.929 . S
S765 N766 1.613 . S
S765 N767 1.610 . S
N766 S765 1.613 . S
N766 C769 1.350 . S
N767 S765 1.610 . S
N767 C768 1.351 . S
C768 C762 1.428 . S
C768 N767 1.351 . S
C768 C769 1.434 . S
C769 C760 1.429 . S
C769 N766 1.350 . S
C769 C768 1.434 . S
C770 C771 1.369 . S
C770 C772 1.419 . S
C770 H774 0.930 . S
C771 C770 1.369 . S
C771 C780 1.429 . S
C772 C770 1.419 . S
C772 C773 1.363 . S
C772 H775 0.929 . S
C773 C772 1.363 . S
C773 C779 1.428 . S
H774 C770 0.930 . S
H775 C772 0.929 . S
S776 N777 1.613 1_554 S
S776 N778 1.610 . S
N777 S776 1.613 1_556 S
N777 C780 1.350 . S
N778 S776 1.610 . S
N778 C779 1.351 1_554 S
C779 C773 1.428 . S
C779 N778 1.351 1_556 S
C779 C780 1.434 . S
C780 C771 1.429 . S
C780 N777 1.350 . S
C780 C779 1.434 . S
C781 C782 1.369 . S
C781 C783 1.419 . S
C781 H785 0.930 . S
C782 C781 1.369 . S
C782 C791 1.429 . S
C783 C781 1.419 . S
C783 C784 1.363 . S
C783 H786 0.929 . S
C784 C783 1.363 . S
C784 C790 1.428 . S
H785 C781 0.930 . S
H786 C783 0.929 . S
S787 N788 1.613 . S
S787 N789 1.610 . S
N788 S787 1.613 . S
N788 C791 1.350 . S
N789 S787 1.610 . S
N789 C790 1.351 . S
C790 C784 1.428 . S
C790 N789 1.351 . S
C790 C791 1.434 . S
C791 C782 1.429 . S
C791 N788 1.350 . S
C791 C790 1.434 . S
C792 C793 1.369 . S
C792 C794 1.419 . S
C792 H796 0.930 . S
C793 C792 1.369 . S
C793 C802 1.429 . S
C794 C792 1.419 . S
C794 C795 1.363 . S
C794 H797 0.929 . S
C795 C794 1.363 . S
C795 C801 1.428 . S
H796 C792 0.930 . S
H797 C794 0.929 . S
S798 N799 1.613 . S
S798 N800 1.610 . S
N799 S798 1.613 . S
N799 C802 1.350 . S
N800 S798 1.610 . S
N800 C801 1.351 . S
C801 C795 1.428 . S
C801 N800 1.351 . S
C801 C802 1.434 . S
C802 C793 1.429 . S
C802 N799 1.350 . S
C802 C801 1.434 . S
C803 C804 1.369 . S
C803 C805 1.419 . S
C803 H807 0.930 . S
C804 C803 1.369 . S
C804 C813 1.429 . S
C805 C803 1.419 . S
C805 C806 1.363 . S
C805 H808 0.929 . S
C806 C805 1.363 . S
C806 C812 1.428 . S
H807 C803 0.930 . S
H808 C805 0.929 . S
S809 N810 1.613 . S
S809 N811 1.610 . S
N810 S809 1.613 . S
N810 C813 1.350 . S
N811 S809 1.610 . S
N811 C812 1.351 . S
C812 C806 1.428 . S
C812 N811 1.351 . S
C812 C813 1.434 . S
C813 C804 1.429 . S
C813 N810 1.350 . S
C813 C812 1.434 . S
C814 C815 1.369 . S
C814 C816 1.419 . S
C814 H818 0.930 . S
C815 C814 1.369 . S
C815 C824 1.429 1_565 S
C816 C814 1.419 . S
C816 C817 1.363 1_565 S
C816 H819 0.929 . S
C817 C816 1.363 1_545 S
C817 C823 1.428 . S
H818 C814 0.930 . S
H819 C816 0.929 . S
S820 N821 1.613 . S
S820 N822 1.610 . S
N821 S820 1.613 . S
N821 C824 1.350 . S
N822 S820 1.610 . S
N822 C823 1.351 . S
C823 C817 1.428 . S
C823 N822 1.351 . S
C823 C824 1.434 . S
C824 C815 1.429 1_545 S
C824 N821 1.350 . S
C824 C823 1.434 . S
C825 C826 1.369 . S
C825 C827 1.419 . S
C825 H829 0.930 . S
C826 C825 1.369 . S
C826 C835 1.429 . S
C827 C825 1.419 . S
C827 C828 1.363 . S
C827 H830 0.929 . S
C828 C827 1.363 . S
C828 C834 1.428 . S
H829 C825 0.930 . S
H830 C827 0.929 . S
S831 N832 1.613 . S
S831 N833 1.610 . S
N832 S831 1.613 . S
N832 C835 1.350 . S
N833 S831 1.610 . S
N833 C834 1.351 . S
C834 C828 1.428 . S
C834 N833 1.351 . S
C834 C835 1.434 . S
C835 C826 1.429 . S
C835 N832 1.350 . S
C835 C834 1.434 . S
C836 C837 1.369 . S
C836 C838 1.419 . S
C836 H840 0.930 . S
C837 C836 1.369 . S
C837 C846 1.429 . S
C838 C836 1.419 . S
C838 C839 1.363 . S
C838 H841 0.929 . S
C839 C838 1.363 . S
C839 C845 1.428 . S
H840 C836 0.930 . S
H841 C838 0.929 . S
S842 N843 1.615 . S
S842 N844 1.610 1_565 S
N843 S842 1.615 . S
N843 C846 1.346 1_565 S
N844 S842 1.610 1_545 S
N844 C845 1.351 . S
C845 C839 1.428 . S
C845 N844 1.351 . S
C845 C846 1.434 . S
C846 C837 1.429 . S
C846 N843 1.346 1_545 S
C846 C845 1.434 . S
C847 C848 1.369 . S
C847 C849 1.419 . S
C847 H851 0.930 . S
C848 C847 1.369 . S
C848 C857 1.429 . S
C849 C847 1.419 . S
C849 C850 1.363 . S
C849 H852 0.929 . S
C850 C849 1.363 . S
C850 C856 1.428 . S
H851 C847 0.930 . S
H852 C849 0.929 . S
S853 N854 1.613 . S
S853 N855 1.610 . S
N854 S853 1.613 . S
N854 C857 1.350 . S
N855 S853 1.610 . S
N855 C856 1.351 . S
C856 C850 1.428 . S
C856 N855 1.351 . S
C856 C857 1.434 . S
C857 C848 1.429 . S
C857 N854 1.350 . S
C857 C856 1.434 . S
C858 C859 1.369 1_545 S
C858 C860 1.419 1_545 S
C858 H862 0.930 . S
C859 C858 1.369 1_565 S
C859 C868 1.429 . S
C860 C858 1.419 1_565 S
C860 C861 1.363 . S
C860 H863 0.929 1_565 S
C861 C860 1.363 . S
C861 C867 1.428 . S
H862 C858 0.930 . S
H863 C860 0.929 1_545 S
S864 N865 1.613 . S
S864 N866 1.610 . S
N865 S864 1.613 . S
N865 C868 1.350 . S
N866 S864 1.610 . S
N866 C867 1.351 . S
C867 C861 1.428 . S
C867 N866 1.351 . S
C867 C868 1.434 . S
C868 C859 1.429 . S
C868 N865 1.350 . S
C868 C867 1.434 . S
C869 C870 1.369 . S
C869 C871 1.419 . S
C869 H873 0.930 . S
C870 C869 1.369 . S
C870 C879 1.429 . S
C871 C869 1.419 . S
C871 C872 1.363 . S
C871 H874 0.929 . S
C872 C871 1.363 . S
C872 C878 1.428 . S
H873 C869 0.930 . S
H874 C871 0.929 . S
S875 N876 1.613 . S
S875 N877 1.610 . S
N876 S875 1.613 . S
N876 C879 1.350 . S
N877 S875 1.610 . S
N877 C878 1.351 . S
C878 C872 1.428 . S
C878 N877 1.351 . S
C878 C879 1.434 . S
C879 C870 1.429 . S
C879 N876 1.350 . S
C879 C878 1.434 . S
C880 C881 1.369 1_556 S
C880 C882 1.419 . S
C880 H884 0.930 . S
C881 C880 1.369 1_554 S
C881 C890 1.429 . S
C882 C880 1.419 . S
C882 C883 1.363 . S
C882 H885 0.929 . S
C883 C882 1.363 . S
C883 C889 1.428 1_556 S
H884 C880 0.930 . S
H885 C882 0.929 . S
S886 N887 1.613 . S
S886 N888 1.610 . S
N887 S886 1.613 . S
N887 C890 1.350 . S
N888 S886 1.610 . S
N888 C889 1.351 . S
C889 C883 1.428 1_554 S
C889 N888 1.351 . S
C889 C890 1.434 . S
C890 C881 1.429 . S
C890 N887 1.350 . S
C890 C889 1.434 . S
C891 C892 1.369 1_556 S
C891 C893 1.419 . S
C891 H895 0.930 . S
C892 C891 1.369 1_554 S
C892 C901 1.429 . S
C893 C891 1.419 . S
C893 C894 1.363 1_556 S
C893 H896 0.929 . S
C894 C893 1.363 1_554 S
C894 C900 1.428 . S
H895 C891 0.930 . S
H896 C893 0.929 . S
S897 N898 1.613 . S
S897 N899 1.610 . S
N898 S897 1.613 . S
N898 C901 1.350 . S
N899 S897 1.610 . S
N899 C900 1.351 . S
C900 C894 1.428 . S
C900 N899 1.351 . S
C900 C901 1.434 . S
C901 C892 1.429 . S
C901 N898 1.350 . S
C901 C900 1.434 . S
C902 C903 1.369 . S
C902 C904 1.419 . S
C902 H906 0.930 . S
C903 C902 1.369 . S
C903 C912 1.429 . S
C904 C902 1.419 . S
C904 C905 1.363 . S
C904 H907 0.929 . S
C905 C904 1.363 . S
C905 C911 1.428 . S
H906 C902 0.930 . S
H907 C904 0.929 . S
S908 N909 1.613 . S
S908 N910 1.610 . S
N909 S908 1.613 . S
N909 C912 1.350 . S
N910 S908 1.610 . S
N910 C911 1.351 . S
C911 C905 1.428 . S
C911 N910 1.351 . S
C911 C912 1.434 . S
C912 C903 1.429 . S
C912 N909 1.350 . S
C912 C911 1.434 . S
C913 C914 1.369 . S
C913 C915 1.419 . S
C913 H917 0.930 . S
C914 C913 1.369 . S
C914 C923 1.429 . S
C915 C913 1.419 . S
C915 C916 1.363 . S
C915 H918 0.929 . S
C916 C915 1.363 . S
C916 C922 1.428 . S
H917 C913 0.930 . S
H918 C915 0.929 . S
S919 N920 1.613 . S
S919 N921 1.610 . S
N920 S919 1.613 . S
N920 C923 1.350 . S
N921 S919 1.610 . S
N921 C922 1.351 . S
C922 C916 1.428 . S
C922 N921 1.351 . S
C922 C923 1.434 . S
C923 C914 1.429 . S
C923 N920 1.350 . S
C923 C922 1.434 . S
C924 C925 1.369 . S
C924 C926 1.419 . S
C924 H928 0.930 . S
C925 C924 1.369 . S
C925 C934 1.429 . S
C926 C924 1.419 . S
C926 C927 1.363 . S
C926 H929 0.929 . S
C927 C926 1.363 . S
C927 C933 1.428 . S
H928 C924 0.930 . S
H929 C926 0.929 . S
S930 N931 1.613 . S
S930 N932 1.610 . S
N931 S930 1.613 . S
N931 C934 1.350 . S
N932 S930 1.610 . S
N932 C933 1.351 . S
C933 C927 1.428 . S
C933 N932 1.351 . S
C933 C934 1.434 . S
C934 C925 1.429 . S
C934 N931 1.350 . S
C934 C933 1.434 . S
C935 C936 1.369 . S
C935 C937 1.419 . S
C935 H939 0.930 . S
C936 C935 1.369 . S
C936 C945 1.429 . S
C937 C935 1.419 . S
C937 C938 1.363 . S
C937 H940 0.929 1_565 S
C938 C937 1.363 . S
C938 C944 1.428 . S
H939 C935 0.930 . S
H940 C937 0.929 1_545 S
S941 N942 1.613 . S
S941 N943 1.610 . S
N942 S941 1.613 . S
N942 C945 1.350 . S
N943 S941 1.610 . S
N943 C944 1.351 . S
C944 C938 1.428 . S
C944 N943 1.351 . S
C944 C945 1.434 . S
C945 C936 1.429 . S
C945 N942 1.350 . S
C945 C944 1.434 . S
C946 C947 1.369 . S
C946 C948 1.419 . S
C946 H950 0.930 . S
C947 C946 1.369 . S
C947 C956 1.429 . S
C948 C946 1.419 . S
C948 C949 1.363 . S
C948 H951 0.929 . S
C949 C948 1.363 . S
C949 C955 1.428 . S
H950 C946 0.930 . S
H951 C948 0.929 . S
S952 N953 1.613 . S
S952 N954 1.610 . S
N953 S952 1.613 . S
N953 C956 1.350 . S
N954 S952 1.610 . S
N954 C955 1.351 . S
C955 C949 1.428 . S
C955 N954 1.351 . S
C955 C956 1.434 . S
C956 C947 1.429 . S
C956 N953 1.350 . S
C956 C955 1.434 . S
C957 C958 1.369 . S
C957 C959 1.419 . S
C957 H961 0.930 . S
C958 C957 1.369 . S
C958 C967 1.429 . S
C959 C957 1.419 . S
C959 C960 1.363 . S
C959 H962 0.929 . S
C960 C959 1.363 . S
C960 C966 1.428 . S
H961 C957 0.930 . S
H962 C959 0.929 . S
S963 N964 1.613 . S
S963 N965 1.610 . S
N964 S963 1.613 . S
N964 C967 1.350 . S
N965 S963 1.610 . S
N965 C966 1.351 . S
C966 C960 1.428 . S
C966 N965 1.351 . S
C966 C967 1.434 . S
C967 C958 1.429 . S
C967 N964 1.350 . S
C967 C966 1.434 . S
C968 C969 1.369 1_655 S
C968 C970 1.419 . S
C968 H972 0.930 . S
C969 C968 1.369 1_455 S
C969 C978 1.429 . S
C970 C968 1.419 . S
C970 C971 1.363 1_655 S
C970 H973 0.929 . S
C971 C970 1.363 1_455 S
C971 C977 1.428 . S
H972 C968 0.930 . S
H973 C970 0.929 . S
S974 N975 1.613 . S
S974 N976 1.610 . S
N975 S974 1.613 . S
N975 C978 1.350 . S
N976 S974 1.610 . S
N976 C977 1.351 . S
C977 C971 1.428 . S
C977 N976 1.351 . S
C977 C978 1.434 . S
C978 C969 1.429 . S
C978 N975 1.350 . S
C978 C977 1.434 . S
C979 C980 1.369 . S
C979 C981 1.419 . S
C979 H983 0.930 . S
C980 C979 1.369 . S
C980 C989 1.429 . S
C981 C979 1.419 . S
C981 C982 1.363 . S
C981 H984 0.929 . S
C982 C981 1.363 . S
C982 C988 1.428 . S
H983 C979 0.930 . S
H984 C981 0.929 . S
S985 N986 1.613 . S
S985 N987 1.610 . S
N986 S985 1.613 . S
N986 C989 1.350 . S
N987 S985 1.610 . S
N987 C988 1.351 . S
C988 C982 1.428 . S
C988 N987 1.351 . S
C988 C989 1.434 . S
C989 C980 1.429 . S
C989 N986 1.350 . S
C989 C988 1.434 . S
C990 C991 1.369 . S
C990 C992 1.419 . S
C990 H994 0.930 . S
C991 C990 1.369 . S
C991 C1000 1.429 . S
C992 C990 1.419 . S
C992 C993 1.363 . S
C992 H995 0.929 . S
C993 C992 1.363 . S
C993 C999 1.428 . S
H994 C990 0.930 . S
H995 C992 0.929 . S
S996 N997 1.613 . S
S996 N998 1.610 . S
N997 S996 1.613 . S
N997 C1000 1.350 . S
N998 S996 1.610 . S
N998 C999 1.351 . S
C999 C993 1.428 . S
C999 N998 1.351 . S
C999 C1000 1.434 . S
C1000 C991 1.429 . S
C1000 N997 1.350 . S
C1000 C999 1.434 . S
C1001 C1002 1.369 . S
C1001 C1003 1.419 . S
C1001 H1005 0.930 . S
C1002 C1001 1.369 . S
C1002 C1011 1.429 . S
C1003 C1001 1.419 . S
C1003 C1004 1.363 . S
C1003 H1006 0.929 . S
C1004 C1003 1.363 . S
C1004 C1010 1.428 . S
H1005 C1001 0.930 . S
H1006 C1003 0.929 . S
S1007 N1008 1.613 . S
S1007 N1009 1.610 . S
N1008 S1007 1.613 . S
N1008 C1011 1.350 . S
N1009 S1007 1.610 . S
N1009 C1010 1.351 . S
C1010 C1004 1.428 . S
C1010 N1009 1.351 . S
C1010 C1011 1.434 . S
C1011 C1002 1.429 . S
C1011 N1008 1.350 . S
C1011 C1010 1.434 . S
C1012 C1013 1.369 . S
C1012 C1014 1.419 . S
C1012 H1016 0.930 . S
C1013 C1012 1.369 . S
C1013 C1022 1.429 . S
C1014 C1012 1.419 . S
C1014 C1015 1.363 . S
C1014 H1017 0.929 . S
C1015 C1014 1.363 . S
C1015 C1021 1.428 . S
H1016 C1012 0.930 . S
H1017 C1014 0.929 . S
S1018 N1019 1.613 . S
S1018 N1020 1.610 1_655 S
N1019 S1018 1.613 . S
N1019 C1022 1.350 1_655 S
N1020 S1018 1.610 1_455 S
N1020 C1021 1.351 . S
C1021 C1015 1.428 . S
C1021 N1020 1.351 . S
C1021 C1022 1.434 . S
C1022 C1013 1.429 . S
C1022 N1019 1.350 1_455 S
C1022 C1021 1.434 . S
C1023 C1024 1.369 . S
C1023 C1025 1.419 . S
C1023 H1027 0.930 . S
C1024 C1023 1.369 . S
C1024 C1033 1.429 . S
C1025 C1023 1.419 . S
C1025 C1026 1.363 . S
C1025 H1028 0.929 . S
C1026 C1025 1.363 . S
C1026 C1032 1.428 . S
H1027 C1023 0.930 . S
H1028 C1025 0.929 . S
S1029 N1030 1.613 . S
S1029 N1031 1.610 . S
N1030 S1029 1.613 . S
N1030 C1033 1.350 . S
N1031 S1029 1.610 . S
N1031 C1032 1.351 . S
C1032 C1026 1.428 . S
C1032 N1031 1.351 . S
C1032 C1033 1.434 . S
C1033 C1024 1.429 . S
C1033 N1030 1.350 . S
C1033 C1032 1.434 . S
C1034 C1035 1.369 . S
C1034 C1036 1.419 . S
C1034 H1038 0.930 . S
C1035 C1034 1.369 . S
C1035 C1044 1.429 . S
C1036 C1034 1.419 . S
C1036 C1037 1.363 . S
C1036 H1039 0.929 . S
C1037 C1036 1.363 . S
C1037 C1043 1.428 . S
H1038 C1034 0.930 . S
H1039 C1036 0.929 . S
S1040 N1041 1.613 . S
S1040 N1042 1.610 . S
N1041 S1040 1.613 . S
N1041 C1044 1.350 . S
N1042 S1040 1.610 . S
N1042 C1043 1.351 . S
C1043 C1037 1.428 . S
C1043 N1042 1.351 . S
C1043 C1044 1.434 . S
C1044 C1035 1.429 . S
C1044 N1041 1.350 . S
C1044 C1043 1.434 . S
C1045 C1046 1.369 . S
C1045 C1047 1.419 . S
C1045 H1049 0.930 . S
C1046 C1045 1.369 . S
C1046 C1055 1.429 . S
C1047 C1045 1.419 . S
C1047 C1048 1.363 . S
C1047 H1050 0.929 . S
C1048 C1047 1.363 . S
C1048 C1054 1.428 . S
H1049 C1045 0.930 . S
H1050 C1047 0.929 . S
S1051 N1052 1.613 . S
S1051 N1053 1.610 . S
N1052 S1051 1.613 . S
N1052 C1055 1.350 . S
N1053 S1051 1.610 . S
N1053 C1054 1.351 . S
C1054 C1048 1.428 . S
C1054 N1053 1.351 . S
C1054 C1055 1.434 . S
C1055 C1046 1.429 . S
C1055 N1052 1.350 . S
C1055 C1054 1.434 . S
C1056 C1057 1.369 . S
C1056 C1058 1.419 . S
C1056 H1060 0.930 . S
C1057 C1056 1.369 . S
C1057 C1066 1.429 1_545 S
C1058 C1056 1.419 . S
C1058 C1059 1.363 . S
C1058 H1061 0.929 . S
C1059 C1058 1.363 . S
C1059 C1065 1.428 . S
H1060 C1056 0.930 . S
H1061 C1058 0.929 . S
S1062 N1063 1.613 . S
S1062 N1064 1.610 . S
N1063 S1062 1.613 . S
N1063 C1066 1.350 . S
N1064 S1062 1.610 . S
N1064 C1065 1.351 1_565 S
C1065 C1059 1.428 . S
C1065 N1064 1.351 1_545 S
C1065 C1066 1.434 1_545 S
C1066 C1057 1.429 1_565 S
C1066 N1063 1.350 . S
C1066 C1065 1.434 1_565 S
C1067 C1068 1.369 . S
C1067 C1069 1.419 . S
C1067 H1071 0.930 . S
C1068 C1067 1.369 . S
C1068 C1077 1.429 . S
C1069 C1067 1.419 . S
C1069 C1070 1.363 . S
C1069 H1072 0.929 . S
C1070 C1069 1.363 . S
C1070 C1076 1.428 . S
H1071 C1067 0.930 . S
H1072 C1069 0.929 . S
S1073 N1074 1.613 . S
S1073 N1075 1.610 . S
N1074 S1073 1.613 . S
N1074 C1077 1.350 . S
N1075 S1073 1.610 . S
N1075 C1076 1.351 . S
C1076 C1070 1.428 . S
C1076 N1075 1.351 . S
C1076 C1077 1.434 . S
C1077 C1068 1.429 . S
C1077 N1074 1.350 . S
C1077 C1076 1.434 . S
C1078 C1079 1.369 1_565 S
C1078 C1080 1.419 . S
C1078 H1082 0.930 . S
C1079 C1078 1.369 1_545 S
C1079 C1088 1.429 . S
C1080 C1078 1.419 . S
C1080 C1081 1.363 . S
C1080 H1083 0.929 . S
C1081 C1080 1.363 . S
C1081 C1087 1.428 1_565 S
H1082 C1078 0.930 . S
H1083 C1080 0.929 . S
S1084 N1085 1.613 . S
S1084 N1086 1.610 . S
N1085 S1084 1.613 . S
N1085 C1088 1.350 . S
N1086 S1084 1.610 . S
N1086 C1087 1.351 . S
C1087 C1081 1.428 1_545 S
C1087 N1086 1.351 . S
C1087 C1088 1.434 . S
C1088 C1079 1.429 . S
C1088 N1085 1.350 . S
C1088 C1087 1.434 . S
C1089 C1090 1.369 . S
C1089 C1091 1.419 . S
C1089 H1093 0.930 . S
C1090 C1089 1.369 . S
C1090 C1099 1.429 . S
C1091 C1089 1.419 . S
C1091 C1092 1.363 . S
C1091 H1094 0.929 . S
C1092 C1091 1.363 . S
C1092 C1098 1.428 . S
H1093 C1089 0.930 . S
H1094 C1091 0.929 . S
S1095 N1096 1.613 . S
S1095 N1097 1.610 . S
N1096 S1095 1.613 . S
N1096 C1099 1.350 . S
N1097 S1095 1.610 . S
N1097 C1098 1.351 . S
C1098 C1092 1.428 . S
C1098 N1097 1.351 . S
C1098 C1099 1.434 . S
C1099 C1090 1.429 . S
C1099 N1096 1.350 . S
C1099 C1098 1.434 . S
C1100 C1101 1.369 1_565 S
C1100 C1102 1.419 . S
C1100 H1104 0.930 . S
C1101 C1100 1.369 1_545 S
C1101 C1110 1.429 . S
C1102 C1100 1.419 . S
C1102 C1103 1.363 . S
C1102 H1105 0.929 . S
C1103 C1102 1.363 . S
C1103 C1109 1.428 1_565 S
H1104 C1100 0.930 . S
H1105 C1102 0.929 . S
S1106 N1107 1.613 . S
S1106 N1108 1.610 . S
N1107 S1106 1.613 . S
N1107 C1110 1.350 1_455 S
N1108 S1106 1.610 . S
N1108 C1109 1.351 1_455 S
C1109 C1103 1.428 1_545 S
C1109 N1108 1.351 1_655 S
C1109 C1110 1.434 . S
C1110 C1101 1.429 . S
C1110 N1107 1.350 1_655 S
C1110 C1109 1.434 . S
C1111 C1112 1.369 . S
C1111 C1113 1.419 . S
C1111 H1115 0.930 . S
C1112 C1111 1.369 . S
C1112 C1121 1.429 . S
C1113 C1111 1.419 . S
C1113 C1114 1.363 . S
C1113 H1116 0.929 . S
C1114 C1113 1.363 . S
C1114 C1120 1.428 . S
H1115 C1111 0.930 . S
H1116 C1113 0.929 . S
S1117 N1118 1.613 . S
S1117 N1119 1.610 . S
N1118 S1117 1.613 . S
N1118 C1121 1.350 . S
N1119 S1117 1.610 . S
N1119 C1120 1.351 . S
C1120 C1114 1.428 . S
C1120 N1119 1.351 . S
C1120 C1121 1.434 . S
C1121 C1112 1.429 . S
C1121 N1118 1.350 . S
C1121 C1120 1.434 . S
C1122 C1123 1.369 . S
C1122 C1124 1.419 . S
C1122 H1126 0.930 1_545 S
C1123 C1122 1.369 . S
C1123 C1132 1.429 . S
C1124 C1122 1.419 . S
C1124 C1125 1.363 . S
C1124 H1127 0.929 . S
C1125 C1124 1.363 . S
C1125 C1131 1.428 . S
H1126 C1122 0.930 1_565 S
H1127 C1124 0.929 . S
S1128 N1129 1.613 . S
S1128 N1130 1.610 . S
N1129 S1128 1.613 . S
N1129 C1132 1.350 . S
N1130 S1128 1.610 . S
N1130 C1131 1.351 . S
C1131 C1125 1.428 . S
C1131 N1130 1.351 . S
C1131 C1132 1.434 . S
C1132 C1123 1.429 . S
C1132 N1129 1.350 . S
C1132 C1131 1.434 . S
C1133 C1134 1.369 . S
C1133 C1135 1.419 . S
C1133 H1137 0.930 . S
C1134 C1133 1.369 . S
C1134 C1143 1.429 . S
C1135 C1133 1.419 . S
C1135 C1136 1.363 . S
C1135 H1138 0.929 . S
C1136 C1135 1.363 . S
C1136 C1142 1.428 . S
H1137 C1133 0.930 . S
H1138 C1135 0.929 . S
S1139 N1140 1.613 . S
S1139 N1141 1.610 . S
N1140 S1139 1.613 . S
N1140 C1143 1.350 . S
N1141 S1139 1.610 . S
N1141 C1142 1.351 . S
C1142 C1136 1.428 . S
C1142 N1141 1.351 . S
C1142 C1143 1.434 . S
C1143 C1134 1.429 . S
C1143 N1140 1.350 . S
C1143 C1142 1.434 . S
C1144 C1145 1.369 . S
C1144 C1146 1.419 . S
C1144 H1148 0.930 . S
C1145 C1144 1.369 . S
C1145 C1154 1.429 . S
C1146 C1144 1.419 . S
C1146 C1147 1.363 . S
C1146 H1149 0.929 . S
C1147 C1146 1.363 . S
C1147 C1153 1.428 . S
H1148 C1144 0.930 . S
H1149 C1146 0.929 . S
S1150 N1151 1.613 . S
S1150 N1152 1.610 1_556 S
N1151 S1150 1.613 . S
N1151 C1154 1.350 1_556 S
N1152 S1150 1.610 1_554 S
N1152 C1153 1.351 . S
C1153 C1147 1.428 . S
C1153 N1152 1.351 . S
C1153 C1154 1.434 . S
C1154 C1145 1.429 . S
C1154 N1151 1.350 1_554 S
C1154 C1153 1.434 . S
C1155 C1156 1.369 . S
C1155 C1157 1.419 1_554 S
C1155 H1159 0.930 . S
C1156 C1155 1.369 . S
C1156 C1165 1.429 1_554 S
C1157 C1155 1.419 1_556 S
C1157 C1158 1.363 . S
C1157 H1160 0.929 . S
C1158 C1157 1.363 . S
C1158 C1164 1.428 . S
H1159 C1155 0.930 . S
H1160 C1157 0.929 . S
S1161 N1162 1.613 . S
S1161 N1163 1.610 . S
N1162 S1161 1.613 . S
N1162 C1165 1.350 . S
N1163 S1161 1.610 . S
N1163 C1164 1.351 . S
C1164 C1158 1.428 . S
C1164 N1163 1.351 . S
C1164 C1165 1.434 . S
C1165 C1156 1.429 1_556 S
C1165 N1162 1.350 . S
C1165 C1164 1.434 . S
C1166 C1167 1.369 . S
C1166 C1168 1.419 . S
C1166 H1170 0.930 . S
C1167 C1166 1.369 . S
C1167 C1176 1.429 . S
C1168 C1166 1.419 . S
C1168 C1169 1.363 . S
C1168 H1171 0.929 . S
C1169 C1168 1.363 . S
C1169 C1175 1.428 . S
H1170 C1166 0.930 . S
H1171 C1168 0.929 . S
S1172 N1173 1.613 . S
S1172 N1174 1.610 . S
N1173 S1172 1.613 . S
N1173 C1176 1.350 . S
N1174 S1172 1.610 . S
N1174 C1175 1.351 . S
C1175 C1169 1.428 . S
C1175 N1174 1.351 . S
C1175 C1176 1.434 . S
C1176 C1167 1.429 . S
C1176 N1173 1.350 . S
C1176 C1175 1.434 . S
C1177 C1178 1.369 . S
C1177 C1179 1.419 . S
C1177 H1181 0.930 . S
C1178 C1177 1.369 . S
C1178 C1187 1.429 . S
C1179 C1177 1.419 . S
C1179 C1180 1.363 . S
C1179 H1182 0.929 . S
C1180 C1179 1.363 . S
C1180 C1186 1.428 . S
H1181 C1177 0.930 . S
H1182 C1179 0.929 . S
S1183 N1184 1.613 . S
S1183 N1185 1.610 . S
N1184 S1183 1.613 . S
N1184 C1187 1.350 . S
N1185 S1183 1.610 . S
N1185 C1186 1.351 . S
C1186 C1180 1.428 . S
C1186 N1185 1.351 . S
C1186 C1187 1.434 . S
C1187 C1178 1.429 . S
C1187 N1184 1.350 . S
C1187 C1186 1.434 . S
C1188 C1189 1.369 . S
C1188 C1190 1.419 . S
C1188 H1192 0.930 . S
C1189 C1188 1.369 . S
C1189 C1198 1.429 . S
C1190 C1188 1.419 . S
C1190 C1191 1.363 . S
C1190 H1193 0.929 . S
C1191 C1190 1.363 . S
C1191 C1197 1.428 . S
H1192 C1188 0.930 . S
H1193 C1190 0.929 . S
S1194 N1195 1.613 . S
S1194 N1196 1.610 . S
N1195 S1194 1.613 . S
N1195 C1198 1.350 . S
N1196 S1194 1.610 . S
N1196 C1197 1.351 . S
C1197 C1191 1.428 . S
C1197 N1196 1.351 . S
C1197 C1198 1.434 . S
C1198 C1189 1.429 . S
C1198 N1195 1.350 . S
C1198 C1197 1.434 . S
C1199 C1200 1.369 . S
C1199 C1201 1.419 . S
C1199 H1203 0.930 . S
C1200 C1199 1.369 . S
C1200 C1209 1.429 . S
C1201 C1199 1.419 . S
C1201 C1202 1.363 . S
C1201 H1204 0.929 . S
C1202 C1201 1.363 . S
C1202 C1208 1.428 . S
H1203 C1199 0.930 . S
H1204 C1201 0.929 . S
S1205 N1206 1.613 . S
S1205 N1207 1.610 . S
N1206 S1205 1.613 . S
N1206 C1209 1.350 . S
N1207 S1205 1.610 . S
N1207 C1208 1.351 . S
C1208 C1202 1.428 . S
C1208 N1207 1.351 . S
C1208 C1209 1.434 . S
C1209 C1200 1.429 . S
C1209 N1206 1.350 . S
C1209 C1208 1.434 . S
C1210 C1211 1.369 . S
C1210 C1212 1.419 . S
C1210 H1214 0.930 . S
C1211 C1210 1.369 . S
C1211 C1220 1.429 . S
C1212 C1210 1.419 . S
C1212 C1213 1.363 . S
C1212 H1215 0.929 . S
C1213 C1212 1.363 . S
C1213 C1219 1.428 . S
H1214 C1210 0.930 . S
H1215 C1212 0.929 . S
S1216 N1217 1.613 . S
S1216 N1218 1.610 . S
N1217 S1216 1.613 . S
N1217 C1220 1.350 . S
N1218 S1216 1.610 . S
N1218 C1219 1.351 . S
C1219 C1213 1.428 . S
C1219 N1218 1.351 . S
C1219 C1220 1.434 . S
C1220 C1211 1.429 . S
C1220 N1217 1.350 . S
C1220 C1219 1.434 . S
C1221 C1222 1.369 . S
C1221 C1223 1.419 . S
C1221 H1225 0.930 . S
C1222 C1221 1.369 . S
C1222 C1231 1.429 . S
C1223 C1221 1.419 . S
C1223 C1224 1.363 . S
C1223 H1226 0.929 . S
C1224 C1223 1.363 . S
C1224 C1230 1.428 . S
H1225 C1221 0.930 . S
H1226 C1223 0.929 . S
S1227 N1228 1.613 . S
S1227 N1229 1.610 . S
N1228 S1227 1.613 . S
N1228 C1231 1.350 . S
N1229 S1227 1.610 . S
N1229 C1230 1.351 . S
C1230 C1224 1.428 . S
C1230 N1229 1.351 . S
C1230 C1231 1.434 . S
C1231 C1222 1.429 . S
C1231 N1228 1.350 . S
C1231 C1230 1.434 . S
C1232 C1233 1.369 . S
C1232 C1234 1.419 . S
C1232 H1236 0.930 . S
C1233 C1232 1.369 . S
C1233 C1242 1.429 . S
C1234 C1232 1.419 . S
C1234 C1235 1.363 . S
C1234 H1237 0.929 . S
C1235 C1234 1.363 . S
C1235 C1241 1.428 . S
H1236 C1232 0.930 . S
H1237 C1234 0.929 . S
S1238 N1239 1.613 . S
S1238 N1240 1.610 . S
N1239 S1238 1.613 . S
N1239 C1242 1.350 . S
N1240 S1238 1.610 . S
N1240 C1241 1.351 . S
C1241 C1235 1.428 . S
C1241 N1240 1.351 . S
C1241 C1242 1.434 . S
C1242 C1233 1.429 . S
C1242 N1239 1.350 . S
C1242 C1241 1.434 . S
C1243 C1244 1.369 . S
C1243 C1245 1.419 . S
C1243 H1247 0.930 . S
C1244 C1243 1.369 . S
C1244 C1253 1.429 . S
C1245 C1243 1.419 . S
C1245 C1246 1.363 . S
C1245 H1248 0.929 . S
C1246 C1245 1.363 . S
C1246 C1252 1.428 . S
H1247 C1243 0.930 . S
H1248 C1245 0.929 . S
S1249 N1250 1.613 . S
S1249 N1251 1.610 . S
N1250 S1249 1.613 . S
N1250 C1253 1.350 . S
N1251 S1249 1.610 . S
N1251 C1252 1.351 . S
C1252 C1246 1.428 . S
C1252 N1251 1.351 . S
C1252 C1253 1.434 . S
C1253 C1244 1.429 . S
C1253 N1250 1.350 . S
C1253 C1252 1.434 . S
C1254 C1255 1.369 . S
C1254 C1256 1.419 . S
C1254 H1258 0.930 1_455 S
C1255 C1254 1.369 . S
C1255 C1264 1.429 . S
C1256 C1254 1.419 . S
C1256 C1257 1.363 . S
C1256 H1259 0.929 . S
C1257 C1256 1.363 . S
C1257 C1263 1.428 . S
H1258 C1254 0.930 1_655 S
H1259 C1256 0.929 . S
S1260 N1261 1.613 . S
S1260 N1262 1.610 . S
N1261 S1260 1.613 . S
N1261 C1264 1.350 . S
N1262 S1260 1.610 . S
N1262 C1263 1.351 . S
C1263 C1257 1.428 . S
C1263 N1262 1.351 . S
C1263 C1264 1.434 . S
C1264 C1255 1.429 . S
C1264 N1261 1.350 . S
C1264 C1263 1.434 . S
C1265 C1266 1.369 . S
C1265 C1267 1.419 . S
C1265 H1269 0.930 . S
C1266 C1265 1.369 . S
C1266 C1275 1.429 . S
C1267 C1265 1.419 . S
C1267 C1268 1.363 . S
C1267 H1270 0.929 . S
C1268 C1267 1.363 . S
C1268 C1274 1.428 . S
H1269 C1265 0.930 . S
H1270 C1267 0.929 . S
S1271 N1272 1.613 . S
S1271 N1273 1.610 . S
N1272 S1271 1.613 . S
N1272 C1275 1.350 . S
N1273 S1271 1.610 . S
N1273 C1274 1.351 . S
C1274 C1268 1.428 . S
C1274 N1273 1.351 . S
C1274 C1275 1.434 . S
C1275 C1266 1.429 . S
C1275 N1272 1.350 . S
C1275 C1274 1.434 . S
C1276 C1277 1.369 . S
C1276 C1278 1.419 . S
C1276 H1280 0.930 . S
C1277 C1276 1.369 . S
C1277 C1286 1.429 . S
C1278 C1276 1.419 . S
C1278 C1279 1.363 . S
C1278 H1281 0.929 1_556 S
C1279 C1278 1.363 . S
C1279 C1285 1.428 . S
H1280 C1276 0.930 . S
H1281 C1278 0.929 1_554 S
S1282 N1283 1.613 . S
S1282 N1284 1.610 . S
N1283 S1282 1.613 . S
N1283 C1286 1.350 . S
N1284 S1282 1.610 . S
N1284 C1285 1.351 . S
C1285 C1279 1.428 . S
C1285 N1284 1.351 . S
C1285 C1286 1.434 . S
C1286 C1277 1.429 . S
C1286 N1283 1.350 . S
C1286 C1285 1.434 . S
C1287 C1288 1.369 . S
C1287 C1289 1.419 . S
C1287 H1291 0.930 . S
C1288 C1287 1.369 . S
C1288 C1297 1.429 . S
C1289 C1287 1.419 . S
C1289 C1290 1.363 . S
C1289 H1292 0.929 . S
C1290 C1289 1.363 . S
C1290 C1296 1.428 . S
H1291 C1287 0.930 . S
H1292 C1289 0.929 . S
S1293 N1294 1.613 . S
S1293 N1295 1.610 . S
N1294 S1293 1.613 . S
N1294 C1297 1.350 . S
N1295 S1293 1.610 . S
N1295 C1296 1.351 . S
C1296 C1290 1.428 . S
C1296 N1295 1.351 . S
C1296 C1297 1.434 . S
C1297 C1288 1.429 . S
C1297 N1294 1.350 . S
C1297 C1296 1.434 . S
C1298 C1299 1.369 . S
C1298 C1300 1.419 . S
C1298 H1302 0.930 . S
C1299 C1298 1.369 . S
C1299 C1308 1.429 . S
C1300 C1298 1.419 . S
C1300 C1301 1.363 . S
C1300 H1303 0.929 . S
C1301 C1300 1.363 . S
C1301 C1307 1.428 . S
H1302 C1298 0.930 . S
H1303 C1300 0.929 . S
S1304 N1305 1.613 . S
S1304 N1306 1.610 1_655 S
N1305 S1304 1.613 . S
N1305 C1308 1.350 1_655 S
N1306 S1304 1.610 1_455 S
N1306 C1307 1.351 . S
C1307 C1301 1.428 . S
C1307 N1306 1.351 . S
C1307 C1308 1.434 . S
C1308 C1299 1.429 . S
C1308 N1305 1.350 1_455 S
C1308 C1307 1.434 . S
C1309 C1310 1.369 . S
C1309 C1311 1.419 . S
C1309 H1313 0.930 . S
C1310 C1309 1.369 . S
C1310 C1319 1.429 . S
C1311 C1309 1.419 . S
C1311 C1312 1.363 . S
C1311 H1314 0.929 . S
C1312 C1311 1.363 . S
C1312 C1318 1.428 . S
H1313 C1309 0.930 . S
H1314 C1311 0.929 . S
S1315 N1316 1.613 . S
S1315 N1317 1.610 . S
N1316 S1315 1.613 . S
N1316 C1319 1.350 . S
N1317 S1315 1.610 . S
N1317 C1318 1.351 . S
C1318 C1312 1.428 . S
C1318 N1317 1.351 . S
C1318 C1319 1.434 . S
C1319 C1310 1.429 . S
C1319 N1316 1.350 . S
C1319 C1318 1.434 . S
C1320 C1321 1.369 . S
C1320 C1322 1.419 . S
C1320 H1324 0.930 . S
C1321 C1320 1.369 . S
C1321 C1330 1.429 . S
C1322 C1320 1.419 . S
C1322 C1323 1.363 . S
C1322 H1325 0.929 . S
C1323 C1322 1.363 . S
C1323 C1329 1.428 . S
H1324 C1320 0.930 . S
H1325 C1322 0.929 . S
S1326 N1327 1.613 . S
S1326 N1328 1.610 . S
N1327 S1326 1.613 . S
N1327 C1330 1.350 . S
N1328 S1326 1.610 . S
N1328 C1329 1.351 . S
C1329 C1323 1.428 . S
C1329 N1328 1.351 . S
C1329 C1330 1.434 . S
C1330 C1321 1.429 . S
C1330 N1327 1.350 . S
C1330 C1329 1.434 . S
C1331 C1332 1.369 . S
C1331 C1333 1.419 . S
C1331 H1335 0.930 . S
C1332 C1331 1.369 . S
C1332 C1341 1.429 . S
C1333 C1331 1.419 . S
C1333 C1334 1.363 . S
C1333 H1336 0.929 . S
C1334 C1333 1.363 . S
C1334 C1340 1.428 . S
H1335 C1331 0.930 . S
H1336 C1333 0.929 . S
S1337 N1338 1.613 . S
S1337 N1339 1.610 . S
N1338 S1337 1.613 . S
N1338 C1341 1.350 . S
N1339 S1337 1.610 . S
N1339 C1340 1.351 . S
C1340 C1334 1.428 . S
C1340 N1339 1.351 . S
C1340 C1341 1.434 . S
C1341 C1332 1.429 . S
C1341 N1338 1.350 . S
C1341 C1340 1.434 . S
C1342 C1343 1.369 . S
C1342 C1344 1.419 . S
C1342 H1346 0.930 . S
C1343 C1342 1.369 . S
C1343 C1352 1.429 . S
C1344 C1342 1.419 . S
C1344 C1345 1.363 . S
C1344 H1347 0.929 . S
C1345 C1344 1.363 . S
C1345 C1351 1.428 . S
H1346 C1342 0.930 . S
H1347 C1344 0.929 . S
S1348 N1349 1.613 . S
S1348 N1350 1.610 . S
N1349 S1348 1.613 . S
N1349 C1352 1.350 . S
N1350 S1348 1.610 . S
N1350 C1351 1.351 . S
C1351 C1345 1.428 . S
C1351 N1350 1.351 . S
C1351 C1352 1.434 . S
C1352 C1343 1.429 . S
C1352 N1349 1.350 . S
C1352 C1351 1.434 . S
C1353 C1354 1.369 . S
C1353 C1355 1.419 . S
C1353 H1357 0.930 . S
C1354 C1353 1.369 . S
C1354 C1363 1.429 . S
C1355 C1353 1.419 . S
C1355 C1356 1.363 . S
C1355 H1358 0.929 . S
C1356 C1355 1.363 . S
C1356 C1362 1.428 . S
H1357 C1353 0.930 . S
H1358 C1355 0.929 . S
S1359 N1360 1.613 . S
S1359 N1361 1.610 . S
N1360 S1359 1.613 . S
N1360 C1363 1.350 . S
N1361 S1359 1.610 . S
N1361 C1362 1.351 . S
C1362 C1356 1.428 . S
C1362 N1361 1.351 . S
C1362 C1363 1.434 . S
C1363 C1354 1.429 . S
C1363 N1360 1.350 . S
C1363 C1362 1.434 . S
C1364 C1365 1.369 . S
C1364 C1366 1.419 . S
C1364 H1368 0.930 . S
C1365 C1364 1.369 . S
C1365 C1374 1.429 . S
C1366 C1364 1.419 . S
C1366 C1367 1.363 . S
C1366 H1369 0.929 . S
C1367 C1366 1.363 . S
C1367 C1373 1.428 . S
H1368 C1364 0.930 . S
H1369 C1366 0.929 . S
S1370 N1371 1.613 . S
S1370 N1372 1.610 . S
N1371 S1370 1.613 . S
N1371 C1374 1.350 . S
N1372 S1370 1.610 . S
N1372 C1373 1.351 . S
C1373 C1367 1.428 . S
C1373 N1372 1.351 . S
C1373 C1374 1.434 . S
C1374 C1365 1.429 . S
C1374 N1371 1.350 . S
C1374 C1373 1.434 . S
C1375 C1376 1.369 . S
C1375 C1377 1.419 . S
C1375 H1379 0.930 . S
C1376 C1375 1.369 . S
C1376 C1385 1.429 . S
C1377 C1375 1.419 . S
C1377 C1378 1.363 . S
C1377 H1380 0.929 . S
C1378 C1377 1.363 . S
C1378 C1384 1.428 . S
H1379 C1375 0.930 . S
H1380 C1377 0.929 . S
S1381 N1382 1.613 . S
S1381 N1383 1.610 . S
N1382 S1381 1.613 . S
N1382 C1385 1.350 . S
N1383 S1381 1.610 . S
N1383 C1384 1.351 . S
C1384 C1378 1.428 . S
C1384 N1383 1.351 . S
C1384 C1385 1.434 . S
C1385 C1376 1.429 . S
C1385 N1382 1.350 . S
C1385 C1384 1.434 . S
C1386 C1387 1.369 . S
C1386 C1388 1.419 . S
C1386 H1390 0.930 . S
C1387 C1386 1.369 . S
C1387 C1396 1.429 . S
C1388 C1386 1.419 . S
C1388 C1389 1.363 . S
C1388 H1391 0.929 . S
C1389 C1388 1.363 . S
C1389 C1395 1.428 . S
H1390 C1386 0.930 . S
H1391 C1388 0.929 . S
S1392 N1393 1.613 1_455 S
S1392 N1394 1.610 . S
N1393 S1392 1.613 1_655 S
N1393 C1396 1.350 . S
N1394 S1392 1.610 . S
N1394 C1395 1.351 1_455 S
C1395 C1389 1.428 . S
C1395 N1394 1.351 1_655 S
C1395 C1396 1.434 . S
C1396 C1387 1.429 . S
C1396 N1393 1.350 . S
C1396 C1395 1.434 . S
C1397 C1398 1.369 . S
C1397 C1399 1.419 . S
C1397 H1401 0.930 . S
C1398 C1397 1.369 . S
C1398 C1407 1.429 . S
C1399 C1397 1.419 . S
C1399 C1400 1.363 . S
C1399 H1402 0.929 . S
C1400 C1399 1.363 . S
C1400 C1406 1.428 . S
H1401 C1397 0.930 . S
H1402 C1399 0.929 . S
S1403 N1404 1.613 . S
S1403 N1405 1.610 . S
N1404 S1403 1.613 . S
N1404 C1407 1.350 . S
N1405 S1403 1.610 . S
N1405 C1406 1.351 . S
C1406 C1400 1.428 . S
C1406 N1405 1.351 . S
C1406 C1407 1.434 . S
C1407 C1398 1.429 . S
C1407 N1404 1.350 . S
C1407 C1406 1.434 . S
C1408 C1409 1.369 . S
C1408 C1410 1.419 . S
C1408 H1412 0.930 . S
C1409 C1408 1.369 . S
C1409 C1418 1.429 . S
C1410 C1408 1.419 . S
C1410 C1411 1.363 . S
C1410 H1413 0.929 . S
C1411 C1410 1.363 . S
C1411 C1417 1.428 . S
H1412 C1408 0.930 . S
H1413 C1410 0.929 . S
S1414 N1415 1.613 . S
S1414 N1416 1.610 . S
N1415 S1414 1.613 . S
N1415 C1418 1.350 . S
N1416 S1414 1.610 . S
N1416 C1417 1.351 . S
C1417 C1411 1.428 . S
C1417 N1416 1.351 . S
C1417 C1418 1.434 . S
C1418 C1409 1.429 . S
C1418 N1415 1.350 . S
C1418 C1417 1.434 . S
C1419 C1420 1.369 . S
C1419 C1421 1.419 . S
C1419 H1423 0.930 . S
C1420 C1419 1.369 . S
C1420 C1429 1.429 . S
C1421 C1419 1.419 . S
C1421 C1422 1.363 . S
C1421 H1424 0.929 1_565 S
C1422 C1421 1.363 . S
C1422 C1428 1.428 . S
H1423 C1419 0.930 . S
H1424 C1421 0.929 1_545 S
S1425 N1426 1.613 . S
S1425 N1427 1.610 . S
N1426 S1425 1.613 . S
N1426 C1429 1.350 . S
N1427 S1425 1.610 . S
N1427 C1428 1.351 . S
C1428 C1422 1.428 . S
C1428 N1427 1.351 . S
C1428 C1429 1.434 . S
C1429 C1420 1.429 . S
C1429 N1426 1.350 . S
C1429 C1428 1.434 . S
C1430 C1431 1.369 . S
C1430 C1432 1.419 . S
C1430 H1434 0.930 . S
C1431 C1430 1.369 . S
C1431 C1440 1.429 . S
C1432 C1430 1.419 . S
C1432 C1433 1.363 . S
C1432 H1435 0.929 . S
C1433 C1432 1.363 . S
C1433 C1439 1.428 . S
H1434 C1430 0.930 . S
H1435 C1432 0.929 . S
S1436 N1437 1.613 . S
S1436 N1438 1.610 . S
N1437 S1436 1.613 . S
N1437 C1440 1.350 . S
N1438 S1436 1.610 . S
N1438 C1439 1.351 . S
C1439 C1433 1.428 . S
C1439 N1438 1.351 . S
C1439 C1440 1.434 . S
C1440 C1431 1.429 . S
C1440 N1437 1.350 . S
C1440 C1439 1.434 . S
C1441 C1442 1.369 . S
C1441 C1443 1.419 . S
C1441 H1445 0.930 . S
C1442 C1441 1.369 . S
C1442 C1451 1.429 . S
C1443 C1441 1.419 . S
C1443 C1444 1.363 . S
C1443 H1446 0.946 . S
C1444 C1443 1.363 . S
C1444 C1450 1.428 . S
H1445 C1441 0.930 . S
H1446 C1443 0.946 . S
S1447 N1448 1.613 . S
S1447 N1449 1.610 . S
N1448 S1447 1.613 . S
N1448 C1451 1.350 . S
N1449 S1447 1.610 . S
N1449 C1450 1.351 . S
C1450 C1444 1.428 . S
C1450 N1449 1.351 . S
C1450 C1451 1.434 . S
C1451 C1442 1.429 . S
C1451 N1448 1.350 . S
C1451 C1450 1.434 . S
C1452 C1453 1.369 . S
C1452 C1454 1.419 . S
C1452 H1456 0.930 . S
C1453 C1452 1.369 . S
C1453 C1462 1.429 . S
C1454 C1452 1.419 . S
C1454 C1455 1.363 . S
C1454 H1457 0.929 . S
C1455 C1454 1.363 . S
C1455 C1461 1.428 . S
H1456 C1452 0.930 . S
H1457 C1454 0.929 . S
S1458 N1459 1.613 . S
S1458 N1460 1.610 . S
N1459 S1458 1.613 . S
N1459 C1462 1.350 . S
N1460 S1458 1.610 . S
N1460 C1461 1.351 . S
C1461 C1455 1.428 . S
C1461 N1460 1.351 . S
C1461 C1462 1.434 . S
C1462 C1453 1.429 . S
C1462 N1459 1.350 . S
C1462 C1461 1.434 . S
C1463 C1464 1.369 . S
C1463 C1465 1.419 . S
C1463 H1467 0.930 . S
C1464 C1463 1.369 . S
C1464 C1473 1.429 1_554 S
C1465 C1463 1.419 . S
C1465 C1466 1.363 1_554 S
C1465 H1468 0.929 . S
C1466 C1465 1.363 1_556 S
C1466 C1472 1.428 . S
H1467 C1463 0.930 . S
H1468 C1465 0.929 . S
S1469 N1470 1.613 . S
S1469 N1471 1.610 . S
N1470 S1469 1.613 . S
N1470 C1473 1.350 . S
N1471 S1469 1.610 . S
N1471 C1472 1.351 . S
C1472 C1466 1.428 . S
C1472 N1471 1.351 . S
C1472 C1473 1.434 . S
C1473 C1464 1.429 1_556 S
C1473 N1470 1.350 . S
C1473 C1472 1.434 . S
C1474 C1475 1.369 . S
C1474 C1476 1.419 . S
C1474 H1478 0.930 . S
C1475 C1474 1.369 . S
C1475 C1484 1.429 . S
C1476 C1474 1.419 . S
C1476 C1477 1.363 . S
C1476 H1479 0.929 . S
C1477 C1476 1.363 . S
C1477 C1483 1.428 . S
H1478 C1474 0.930 . S
H1479 C1476 0.929 . S
S1480 N1481 1.613 . S
S1480 N1482 1.610 . S
N1481 S1480 1.613 . S
N1481 C1484 1.350 . S
N1482 S1480 1.610 . S
N1482 C1483 1.351 . S
C1483 C1477 1.428 . S
C1483 N1482 1.351 . S
C1483 C1484 1.434 . S
C1484 C1475 1.429 . S
C1484 N1481 1.350 . S
C1484 C1483 1.434 . S
C1485 C1486 1.369 . S
C1485 C1487 1.419 . S
C1485 H1489 0.930 . S
C1486 C1485 1.369 . S
C1486 C1495 1.429 . S
C1487 C1485 1.419 . S
C1487 C1488 1.363 . S
C1487 H1490 0.929 . S
C1488 C1487 1.363 . S
C1488 C1494 1.428 . S
H1489 C1485 0.930 . S
H1490 C1487 0.929 . S
S1491 N1492 1.613 . S
S1491 N1493 1.610 . S
N1492 S1491 1.613 . S
N1492 C1495 1.350 . S
N1493 S1491 1.610 . S
N1493 C1494 1.351 . S
C1494 C1488 1.428 . S
C1494 N1493 1.351 . S
C1494 C1495 1.434 . S
C1495 C1486 1.429 . S
C1495 N1492 1.350 . S
C1495 C1494 1.434 . S
C1496 C1497 1.369 . S
C1496 C1498 1.419 . S
C1496 H1500 0.930 . S
C1497 C1496 1.369 . S
C1497 C1506 1.429 . S
C1498 C1496 1.419 . S
C1498 C1499 1.363 . S
C1498 H1501 0.929 . S
C1499 C1498 1.363 . S
C1499 C1505 1.428 . S
H1500 C1496 0.930 . S
H1501 C1498 0.929 . S
S1502 N1503 1.613 . S
S1502 N1504 1.610 . S
N1503 S1502 1.613 . S
N1503 C1506 1.350 . S
N1504 S1502 1.610 . S
N1504 C1505 1.351 . S
C1505 C1499 1.428 . S
C1505 N1504 1.351 . S
C1505 C1506 1.434 . S
C1506 C1497 1.429 . S
C1506 N1503 1.350 . S
C1506 C1505 1.434 . S
C1507 C1508 1.369 . S
C1507 C1509 1.419 . S
C1507 H1511 0.930 . S
C1508 C1507 1.369 . S
C1508 C1517 1.429 . S
C1509 C1507 1.419 . S
C1509 C1510 1.363 . S
C1509 H1512 0.929 . S
C1510 C1509 1.363 . S
C1510 C1516 1.428 . S
H1511 C1507 0.930 . S
H1512 C1509 0.929 . S
S1513 N1514 1.613 . S
S1513 N1515 1.610 . S
N1514 S1513 1.613 . S
N1514 C1517 1.350 . S
N1515 S1513 1.610 . S
N1515 C1516 1.351 . S
C1516 C1510 1.428 . S
C1516 N1515 1.351 . S
C1516 C1517 1.434 . S
C1517 C1508 1.429 . S
C1517 N1514 1.350 . S
C1517 C1516 1.434 . S
C1518 C1519 1.369 . S
C1518 C1520 1.419 . S
C1518 H1522 0.930 . S
C1519 C1518 1.369 . S
C1519 C1528 1.429 1_455 S
C1520 C1518 1.419 . S
C1520 C1521 1.363 1_455 S
C1520 H1523 0.929 . S
C1521 C1520 1.363 1_655 S
C1521 C1527 1.428 . S
H1522 C1518 0.930 . S
H1523 C1520 0.929 . S
S1524 N1525 1.613 . S
S1524 N1526 1.610 . S
N1525 S1524 1.613 . S
N1525 C1528 1.350 . S
N1526 S1524 1.610 . S
N1526 C1527 1.351 . S
C1527 C1521 1.428 . S
C1527 N1526 1.351 . S
C1527 C1528 1.434 . S
C1528 C1519 1.429 1_655 S
C1528 N1525 1.350 . S
C1528 C1527 1.434 . S
C1529 C1530 1.369 . S
C1529 C1531 1.419 . S
C1529 H1533 0.930 . S
C1530 C1529 1.369 . S
C1530 C1539 1.429 . S
C1531 C1529 1.419 . S
C1531 C1532 1.363 . S
C1531 H1534 0.929 . S
C1532 C1531 1.363 . S
C1532 C1538 1.428 . S
H1533 C1529 0.930 . S
H1534 C1531 0.929 . S
S1535 N1536 1.613 . S
S1535 N1537 1.610 . S
N1536 S1535 1.613 . S
N1536 C1539 1.350 . S
N1537 S1535 1.610 . S
N1537 C1538 1.351 . S
C1538 C1532 1.428 . S
C1538 N1537 1.351 . S
C1538 C1539 1.434 . S
C1539 C1530 1.429 . S
C1539 N1536 1.350 . S
C1539 C1538 1.434 . S
C1540 C1541 1.369 . S
C1540 C1542 1.419 . S
C1540 H1544 0.930 . S
C1541 C1540 1.369 . S
C1541 C1550 1.429 . S
C1542 C1540 1.419 . S
C1542 C1543 1.363 . S
C1542 H1545 0.929 . S
C1543 C1542 1.363 . S
C1543 C1549 1.428 . S
H1544 C1540 0.930 . S
H1545 C1542 0.929 . S
S1546 N1547 1.613 . S
S1546 N1548 1.610 . S
N1547 S1546 1.613 . S
N1547 C1550 1.350 . S
N1548 S1546 1.610 . S
N1548 C1549 1.351 . S
C1549 C1543 1.428 . S
C1549 N1548 1.351 . S
C1549 C1550 1.434 . S
C1550 C1541 1.429 . S
C1550 N1547 1.350 . S
C1550 C1549 1.434 . S
C1551 C1552 1.369 . S
C1551 C1553 1.419 . S
C1551 H1555 0.930 . S
C1552 C1551 1.369 . S
C1552 C1561 1.429 . S
C1553 C1551 1.419 . S
C1553 C1554 1.363 . S
C1553 H1556 0.929 . S
C1554 C1553 1.363 . S
C1554 C1560 1.428 . S
H1555 C1551 0.930 . S
H1556 C1553 0.929 . S
S1557 N1558 1.613 . S
S1557 N1559 1.610 . S
N1558 S1557 1.613 . S
N1558 C1561 1.350 . S
N1559 S1557 1.610 . S
N1559 C1560 1.351 . S
C1560 C1554 1.428 . S
C1560 N1559 1.351 . S
C1560 C1561 1.434 . S
C1561 C1552 1.429 . S
C1561 N1558 1.350 . S
C1561 C1560 1.434 . S
C1562 C1563 1.369 1_655 S
C1562 C1564 1.419 . S
C1562 H1566 0.930 . S
C1563 C1562 1.369 1_455 S
C1563 C1572 1.429 . S
C1564 C1562 1.419 . S
C1564 C1565 1.363 . S
C1564 H1567 0.929 . S
C1565 C1564 1.363 . S
C1565 C1571 1.428 1_655 S
H1566 C1562 0.930 . S
H1567 C1564 0.929 . S
S1568 N1569 1.613 . S
S1568 N1570 1.610 . S
N1569 S1568 1.613 . S
N1569 C1572 1.350 . S
N1570 S1568 1.610 . S
N1570 C1571 1.351 . S
C1571 C1565 1.428 1_455 S
C1571 N1570 1.351 . S
C1571 C1572 1.434 . S
C1572 C1563 1.429 . S
C1572 N1569 1.350 . S
C1572 C1571 1.434 . S
C1573 C1574 1.369 . S
C1573 C1575 1.419 . S
C1573 H1577 0.930 . S
C1574 C1573 1.369 . S
C1574 C1583 1.429 . S
C1575 C1573 1.419 . S
C1575 C1576 1.363 . S
C1575 H1578 0.929 . S
C1576 C1575 1.363 . S
C1576 C1582 1.428 . S
H1577 C1573 0.930 . S
H1578 C1575 0.929 . S
S1579 N1580 1.613 . S
S1579 N1581 1.610 . S
N1580 S1579 1.613 . S
N1580 C1583 1.350 . S
N1581 S1579 1.610 . S
N1581 C1582 1.351 . S
C1582 C1576 1.428 . S
C1582 N1581 1.351 . S
C1582 C1583 1.434 . S
C1583 C1574 1.429 . S
C1583 N1580 1.350 . S
C1583 C1582 1.434 . S
C1584 C1585 1.369 . S
C1584 C1586 1.419 . S
C1584 H1588 0.930 . S
C1585 C1584 1.369 . S
C1585 C1594 1.429 . S
C1586 C1584 1.419 . S
C1586 C1587 1.363 . S
C1586 H1589 0.929 . S
C1587 C1586 1.363 . S
C1587 C1593 1.428 . S
H1588 C1584 0.930 . S
H1589 C1586 0.929 . S
S1590 N1591 1.613 . S
S1590 N1592 1.610 . S
N1591 S1590 1.613 . S
N1591 C1594 1.350 . S
N1592 S1590 1.610 . S
N1592 C1593 1.351 . S
C1593 C1587 1.428 . S
C1593 N1592 1.351 . S
C1593 C1594 1.434 . S
C1594 C1585 1.429 . S
C1594 N1591 1.350 . S
C1594 C1593 1.434 . S
C1595 C1596 1.369 . S
C1595 C1597 1.419 . S
C1595 H1599 0.930 . S
C1596 C1595 1.369 . S
C1596 C1605 1.429 . S
C1597 C1595 1.419 . S
C1597 C1598 1.363 . S
C1597 H1600 0.929 . S
C1598 C1597 1.363 . S
C1598 C1604 1.428 . S
H1599 C1595 0.930 . S
H1600 C1597 0.929 . S
S1601 N1602 1.613 . S
S1601 N1603 1.610 . S
N1602 S1601 1.613 . S
N1602 C1605 1.350 . S
N1603 S1601 1.610 . S
N1603 C1604 1.351 . S
C1604 C1598 1.428 . S
C1604 N1603 1.351 . S
C1604 C1605 1.434 . S
C1605 C1596 1.429 . S
C1605 N1602 1.350 . S
C1605 C1604 1.434 . S
C1606 C1607 1.369 . S
C1606 C1608 1.419 . S
C1606 H1610 0.930 . S
C1607 C1606 1.369 . S
C1607 C1616 1.429 . S
C1608 C1606 1.419 . S
C1608 C1609 1.363 . S
C1608 H1611 0.929 . S
C1609 C1608 1.363 . S
C1609 C1615 1.428 . S
H1610 C1606 0.930 . S
H1611 C1608 0.929 . S
S1612 N1613 1.613 . S
S1612 N1614 1.610 . S
N1613 S1612 1.613 . S
N1613 C1616 1.350 . S
N1614 S1612 1.610 . S
N1614 C1615 1.351 . S
C1615 C1609 1.428 . S
C1615 N1614 1.351 . S
C1615 C1616 1.434 . S
C1616 C1607 1.429 . S
C1616 N1613 1.350 . S
C1616 C1615 1.434 . S
C1617 C1618 1.369 . S
C1617 C1619 1.419 . S
C1617 H1621 0.930 . S
C1618 C1617 1.369 . S
C1618 C1627 1.429 . S
C1619 C1617 1.419 . S
C1619 C1620 1.363 . S
C1619 H1622 0.929 . S
C1620 C1619 1.363 . S
C1620 C1626 1.428 . S
H1621 C1617 0.930 . S
H1622 C1619 0.929 . S
S1623 N1624 1.613 . S
S1623 N1625 1.610 . S
N1624 S1623 1.613 . S
N1624 C1627 1.350 . S
N1625 S1623 1.610 . S
N1625 C1626 1.351 . S
C1626 C1620 1.428 . S
C1626 N1625 1.351 . S
C1626 C1627 1.434 . S
C1627 C1618 1.429 . S
C1627 N1624 1.350 . S
C1627 C1626 1.434 . S
C1628 C1629 1.369 . S
C1628 C1630 1.419 . S
C1628 H1632 0.930 . S
C1629 C1628 1.369 . S
C1629 C1638 1.429 . S
C1630 C1628 1.419 . S
C1630 C1631 1.363 . S
C1630 H1633 0.929 . S
C1631 C1630 1.363 . S
C1631 C1637 1.428 . S
H1632 C1628 0.930 . S
H1633 C1630 0.929 . S
S1634 N1635 1.613 . S
S1634 N1636 1.610 . S
N1635 S1634 1.613 . S
N1635 C1638 1.350 . S
N1636 S1634 1.610 . S
N1636 C1637 1.351 . S
C1637 C1631 1.428 . S
C1637 N1636 1.351 . S
C1637 C1638 1.434 . S
C1638 C1629 1.429 . S
C1638 N1635 1.350 . S
C1638 C1637 1.434 . S
C1639 C1640 1.369 . S
C1639 C1641 1.419 . S
C1639 H1643 0.930 . S
C1640 C1639 1.369 . S
C1640 C1649 1.429 . S
C1641 C1639 1.419 . S
C1641 C1642 1.363 . S
C1641 H1644 0.929 . S
C1642 C1641 1.363 . S
C1642 C1648 1.428 . S
H1643 C1639 0.930 . S
H1644 C1641 0.929 . S
S1645 N1646 1.613 . S
S1645 N1647 1.610 . S
N1646 S1645 1.613 . S
N1646 C1649 1.350 . S
N1647 S1645 1.610 . S
N1647 C1648 1.351 . S
C1648 C1642 1.428 . S
C1648 N1647 1.351 . S
C1648 C1649 1.434 . S
C1649 C1640 1.429 . S
C1649 N1646 1.350 . S
C1649 C1648 1.434 . S
C1650 C1651 1.369 . S
C1650 C1652 1.419 . S
C1650 H1654 0.930 . S
C1651 C1650 1.369 . S
C1651 C1660 1.429 . S
C1652 C1650 1.419 . S
C1652 C1653 1.363 . S
C1652 H1655 0.929 . S
C1653 C1652 1.363 . S
C1653 C1659 1.428 . S
H1654 C1650 0.930 . S
H1655 C1652 0.929 . S
S1656 N1657 1.613 . S
S1656 N1658 1.610 . S
N1657 S1656 1.613 . S
N1657 C1660 1.350 . S
N1658 S1656 1.610 . S
N1658 C1659 1.351 . S
C1659 C1653 1.428 . S
C1659 N1658 1.351 . S
C1659 C1660 1.434 . S
C1660 C1651 1.429 . S
C1660 N1657 1.350 . S
C1660 C1659 1.434 . S
C1661 C1662 1.369 . S
C1661 C1663 1.419 . S
C1661 H1665 0.930 . S
C1662 C1661 1.369 . S
C1662 C1671 1.429 . S
C1663 C1661 1.419 . S
C1663 C1664 1.363 . S
C1663 H1666 0.929 . S
C1664 C1663 1.363 . S
C1664 C1670 1.428 . S
H1665 C1661 0.930 . S
H1666 C1663 0.929 . S
S1667 N1668 1.613 . S
S1667 N1669 1.610 . S
N1668 S1667 1.613 . S
N1668 C1671 1.350 . S
N1669 S1667 1.610 . S
N1669 C1670 1.351 . S
C1670 C1664 1.428 . S
C1670 N1669 1.351 . S
C1670 C1671 1.434 . S
C1671 C1662 1.429 . S
C1671 N1668 1.350 . S
C1671 C1670 1.434 . S
C1672 C1673 1.369 . S
C1672 C1674 1.419 . S
C1672 H1676 0.930 . S
C1673 C1672 1.369 . S
C1673 C1682 1.429 . S
C1674 C1672 1.419 . S
C1674 C1675 1.363 . S
C1674 H1677 0.929 . S
C1675 C1674 1.363 . S
C1675 C1681 1.428 . S
H1676 C1672 0.930 . S
H1677 C1674 0.929 . S
S1678 N1679 1.613 . S
S1678 N1680 1.610 . S
N1679 S1678 1.613 . S
N1679 C1682 1.350 . S
N1680 S1678 1.610 . S
N1680 C1681 1.351 . S
C1681 C1675 1.428 . S
C1681 N1680 1.351 . S
C1681 C1682 1.434 . S
C1682 C1673 1.429 . S
C1682 N1679 1.350 . S
C1682 C1681 1.434 . S
C1683 C1684 1.369 . S
C1683 C1685 1.419 . S
C1683 H1687 0.930 . S
C1684 C1683 1.369 . S
C1684 C1693 1.429 . S
C1685 C1683 1.419 . S
C1685 C1686 1.363 . S
C1685 H1688 0.929 . S
C1686 C1685 1.363 . S
C1686 C1692 1.428 . S
H1687 C1683 0.930 . S
H1688 C1685 0.929 . S
S1689 N1690 1.613 . S
S1689 N1691 1.610 . S
N1690 S1689 1.613 . S
N1690 C1693 1.350 . S
N1691 S1689 1.610 . S
N1691 C1692 1.351 . S
C1692 C1686 1.428 . S
C1692 N1691 1.351 . S
C1692 C1693 1.434 . S
C1693 C1684 1.429 . S
C1693 N1690 1.350 . S
C1693 C1692 1.434 . S
C1694 C1695 1.369 . S
C1694 C1696 1.419 . S
C1694 H1698 0.930 . S
C1695 C1694 1.369 . S
C1695 C1704 1.429 . S
C1696 C1694 1.419 . S
C1696 C1697 1.363 . S
C1696 H1699 0.929 . S
C1697 C1696 1.363 . S
C1697 C1703 1.428 . S
H1698 C1694 0.930 . S
H1699 C1696 0.929 . S
S1700 N1701 1.613 . S
S1700 N1702 1.610 . S
N1701 S1700 1.613 . S
N1701 C1704 1.350 . S
N1702 S1700 1.610 . S
N1702 C1703 1.351 . S
C1703 C1697 1.428 . S
C1703 N1702 1.351 . S
C1703 C1704 1.434 . S
C1704 C1695 1.429 . S
C1704 N1701 1.350 . S
C1704 C1703 1.434 . S
C1705 C1706 1.369 1_554 S
C1705 C1707 1.419 . S
C1705 H1709 0.930 . S
C1706 C1705 1.369 1_556 S
C1706 C1715 1.429 . S
C1707 C1705 1.419 . S
C1707 C1708 1.363 1_554 S
C1707 H1710 0.929 . S
C1708 C1707 1.363 1_556 S
C1708 C1714 1.428 . S
H1709 C1705 0.930 . S
H1710 C1707 0.929 . S
S1711 N1712 1.613 . S
S1711 N1713 1.610 . S
N1712 S1711 1.613 . S
N1712 C1715 1.350 . S
N1713 S1711 1.610 . S
N1713 C1714 1.351 . S
C1714 C1708 1.428 . S
C1714 N1713 1.351 . S
C1714 C1715 1.434 . S
C1715 C1706 1.429 . S
C1715 N1712 1.350 . S
C1715 C1714 1.434 . S
C1716 C1717 1.369 . S
C1716 C1718 1.419 . S
C1716 H1720 0.930 . S
C1717 C1716 1.369 . S
C1717 C1726 1.429 . S
C1718 C1716 1.419 . S
C1718 C1719 1.363 . S
C1718 H1721 0.929 . S
C1719 C1718 1.363 . S
C1719 C1725 1.428 . S
H1720 C1716 0.930 . S
H1721 C1718 0.929 . S
S1722 N1723 1.613 . S
S1722 N1724 1.610 . S
N1723 S1722 1.613 . S
N1723 C1726 1.350 . S
N1724 S1722 1.610 . S
N1724 C1725 1.351 . S
C1725 C1719 1.428 . S
C1725 N1724 1.351 . S
C1725 C1726 1.434 . S
C1726 C1717 1.429 . S
C1726 N1723 1.350 . S
C1726 C1725 1.434 . S
C1727 C1728 1.369 . S
C1727 C1729 1.419 . S
C1727 H1731 0.930 . S
C1728 C1727 1.369 . S
C1728 C1737 1.429 1_554 S
C1729 C1727 1.419 . S
C1729 C1730 1.363 . S
C1729 H1732 0.929 . S
C1730 C1729 1.363 . S
C1730 C1736 1.428 . S
H1731 C1727 0.930 . S
H1732 C1729 0.929 . S
S1733 N1734 1.613 . S
S1733 N1735 1.610 . S
N1734 S1733 1.613 . S
N1734 C1737 1.350 . S
N1735 S1733 1.610 . S
N1735 C1736 1.351 1_556 S
C1736 C1730 1.428 . S
C1736 N1735 1.351 1_554 S
C1736 C1737 1.434 1_554 S
C1737 C1728 1.429 1_556 S
C1737 N1734 1.350 . S
C1737 C1736 1.434 1_556 S
C1738 C1739 1.369 . S
C1738 C1740 1.419 . S
C1738 H1742 0.930 . S
C1739 C1738 1.369 . S
C1739 C1748 1.429 . S
C1740 C1738 1.419 . S
C1740 C1741 1.363 . S
C1740 H1743 0.929 . S
C1741 C1740 1.363 . S
C1741 C1747 1.428 . S
H1742 C1738 0.930 . S
H1743 C1740 0.929 . S
S1744 N1745 1.613 . S
S1744 N1746 1.610 . S
N1745 S1744 1.613 . S
N1745 C1748 1.350 . S
N1746 S1744 1.610 . S
N1746 C1747 1.351 . S
C1747 C1741 1.428 . S
C1747 N1746 1.351 . S
C1747 C1748 1.434 . S
C1748 C1739 1.429 . S
C1748 N1745 1.350 . S
C1748 C1747 1.434 . S
C1749 C1750 1.369 . S
C1749 C1751 1.419 . S
C1749 H1753 0.930 . S
C1750 C1749 1.369 . S
C1750 C1759 1.429 . S
C1751 C1749 1.419 . S
C1751 C1752 1.363 . S
C1751 H1754 0.929 . S
C1752 C1751 1.363 . S
C1752 C1758 1.428 . S
H1753 C1749 0.930 . S
H1754 C1751 0.929 . S
S1755 N1756 1.613 . S
S1755 N1757 1.610 . S
N1756 S1755 1.613 . S
N1756 C1759 1.350 . S
N1757 S1755 1.610 . S
N1757 C1758 1.351 . S
C1758 C1752 1.428 . S
C1758 N1757 1.351 . S
C1758 C1759 1.434 . S
C1759 C1750 1.429 . S
C1759 N1756 1.350 . S
C1759 C1758 1.434 . S
C707 C352 1.203 . S
C705 C4 1.180 . S
C716 C19 1.078 . S
C718 C380 1.325 . S
C727 C39 1.193 . S
C729 C398 1.156 . S
C740 C424 1.304 . S
C738 C54 1.469 . S
C749 C18 1.428 . S
C751 C447 1.321 . S
C762 C467 1.194 . S
C760 C40 1.231 . S
C773 C495 1.310 . S
C771 C53 1.428 . S
C782 C5 0.961 . S
C784 C513 1.181 . S
C793 C61 1.031 . S
C795 C354 1.328 . S
C804 C74 1.182 . S
C806 C376 1.210 . S
C817 C400 1.307 . S
C815 C89 0.996 1_565 S
C828 C421 1.188 . S
C826 C109 1.215 . S
C837 C68 1.188 . S
C839 C444 1.154 . S
C850 C469 1.401 . S
C848 C81 1.399 . S
C861 C491 1.111 . S
C859 C96 1.134 . S
C872 C515 1.455 . S
C870 C102 1.398 . S
C883 C355 1.006 1_556 S
C881 C103 0.905 . S
C894 C538 1.235 . S
C892 C117 1.008 . S
C903 C130 1.141 . S
C905 C562 1.082 . S
C916 C586 1.209 . S
C914 C152 1.227 . S
C925 C60 1.174 . S
C927 C516 1.081 . S
C938 C401 1.036 . S
C936 C82 1.142 . S
C947 C137 1.192 . S
C949 C607 1.193 . S
C960 C632 1.156 . S
C958 C165 1.177 . S
C969 C172 1.246 . S
C971 C353 1.234 . S
C982 C630 1.220 . S
C980 C194 1.199 . S
C991 C207 1.153 . S
C993 C399 1.162 . S
C1002 C215 1.100 . S
C1004 C609 1.123 . S
C1015 C448 1.149 . S
C1013 C186 1.220 . S
C1026 C560 1.204 . S
C1024 C201 1.101 . S
C1037 C492 1.176 . S
C1035 C221 1.148 . S
C1048 C652 1.203 . S
C1046 C180 1.226 . S
C1059 C357 1.052 . S
C1057 C236 1.174 . S
C1068 C242 1.556 . S
C1070 C628 1.507 . S
C1081 C403 1.113 . S
C1079 C264 1.259 . S
C1090 C277 1.433 . S
C1092 C606 1.432 . S
C1101 C229 1.166 . S
C1103 C445 1.254 . S
C1112 C249 1.180 . S
C1114 C564 1.106 . S
C1125 C490 1.330 . S
C1123 C257 1.264 1_545 S
C1134 C270 1.278 . S
C1136 C656 1.159 . S
C1145 C278 1.376 . S
C1147 C356 1.315 . S
C1156 C292 1.413 . S
C1158 C541 1.294 . S
C1167 C298 1.560 . S
C1169 C471 1.462 . S
C1178 C313 1.275 . S
C1180 C585 1.255 . S
C1191 C655 1.394 . S
C1189 C228 1.477 . S
C1202 C402 1.316 . S
C1200 C243 1.301 . S
C1213 C426 1.227 . S
C1211 C305 1.297 . S
C1224 C378 1.141 . S
C1222 C333 1.249 . S
C1233 C32 1.185 . S
C1235 C674 1.199 . S
C1246 C633 1.313 . S
C1244 C47 1.101 . S
C1257 C697 1.154 . S
C1255 C11 1.193 . S
C1266 C26 1.469 . S
C1268 C608 1.303 . S
C1277 C46 1.428 . S
C1279 C539 1.321 . S
C1290 C559 1.195 . S
C1288 C12 1.231 . S
C1301 C587 1.299 . S
C1299 C25 1.429 . S
C1312 C651 1.182 . S
C1310 C33 0.946 . S
C1323 C676 1.326 . S
C1321 C159 1.014 . S
C1332 C116 1.188 . S
C1334 C629 1.207 . S
C1343 C131 0.987 . S
C1345 C699 1.307 . S
C1356 C605 1.184 . S
C1354 C151 1.213 . S
C1367 C536 1.161 . S
C1365 C166 1.186 . S
C1376 C123 1.400 . S
C1378 C561 1.401 . S
C1389 C583 1.111 . S
C1387 C138 1.134 . S
C1398 C144 1.399 . S
C1400 C653 1.456 . S
C1411 C677 1.008 . S
C1409 C145 0.900 . S
C1422 C446 1.235 . S
C1420 C75 1.018 . S
C1433 C470 1.077 . S
C1431 C88 1.150 . S
C1442 C110 1.226 . S
C1444 C494 1.202 . S
C1455 C654 1.086 . S
C1453 C158 1.167 . S
C1464 C124 1.143 . S
C1466 C700 1.043 . S
C1477 C423 1.192 . S
C1475 C95 1.188 . S
C1488 C379 1.148 . S
C1486 C67 1.176 . S
C1497 C200 1.241 . S
C1499 C675 1.230 . S
C1510 C377 1.219 . S
C1508 C222 1.200 . S
C1521 C698 1.163 . S
C1519 C179 1.152 . S
C1530 C187 1.102 . S
C1532 C425 1.124 . S
C1541 C214 1.219 . S
C1543 C540 1.150 . S
C1552 C173 1.101 . S
C1554 C468 1.205 . S
C1563 C193 1.147 . S
C1565 C584 1.177 . S
C1574 C208 1.230 . S
C1576 C514 1.198 . S
C1587 C679 1.055 . S
C1585 C334 1.172 . S
C1596 C284 1.556 . S
C1598 C375 1.504 . S
C1609 C702 1.117 . S
C1607 C306 1.257 . S
C1618 C319 1.434 . S
C1620 C422 1.432 . S
C1629 C327 1.167 . S
C1631 C537 1.253 . S
C1642 C472 1.103 . S
C1640 C291 1.183 . S
C1651 C299 1.263 . S
C1653 C582 1.331 . S
C1664 C518 1.158 . S
C1662 C312 1.278 . S
C1675 C678 1.313 . S
C1673 C320 1.377 . S
C1686 C449 1.295 . S
C1684 C250 1.412 . S
C1695 C256 1.559 . S
C1697 C563 1.454 . S
C1708 C493 1.264 . S
C1706 C271 1.281 1_556 S
C1719 C517 1.390 . S
C1717 C326 1.477 . S
C1728 C285 1.288 1_554 S
C1730 C701 1.307 . S
C1741 C610 1.228 . S
C1739 C263 1.297 . S
C1752 C631 1.149 . S
C1750 C235 1.245 . S
