# Generated by pormake.
# Topology gar, (4,6)-cn, num edge types: 1
# Building blocks:
#     Node 0, Type 0, BuildingBlock: GALJAG_clean_sbu_0, # of connection points: 4
#     Node 1, Type 0, BuildingBlock: GALJAG_clean_sbu_0, # of connection points: 4
#     Node 2, Type 0, BuildingBlock: GALJAG_clean_sbu_0, # of connection points: 4
#     Node 3, Type 0, BuildingBlock: GALJAG_clean_sbu_0, # of connection points: 4
#     Node 4, Type 0, BuildingBlock: GALJAG_clean_sbu_0, # of connection points: 4
#     Node 5, Type 0, BuildingBlock: GALJAG_clean_sbu_0, # of connection points: 4
#     Node 6, Type 0, BuildingBlock: GALJAG_clean_sbu_0, # of connection points: 4
#     Node 7, Type 0, BuildingBlock: GALJAG_clean_sbu_0, # of connection points: 4
#     Node 8, Type 0, BuildingBlock: GALJAG_clean_sbu_0, # of connection points: 4
#     Node 9, Type 0, BuildingBlock: GALJAG_clean_sbu_0, # of connection points: 4
#     Node 10, Type 0, BuildingBlock: GALJAG_clean_sbu_0, # of connection points: 4
#     Node 11, Type 0, BuildingBlock: GALJAG_clean_sbu_0, # of connection points: 4
#     Node 12, Type 0, BuildingBlock: GALJAG_clean_sbu_0, # of connection points: 4
#     Node 13, Type 0, BuildingBlock: GALJAG_clean_sbu_0, # of connection points: 4
#     Node 14, Type 0, BuildingBlock: GALJAG_clean_sbu_0, # of connection points: 4
#     Node 15, Type 0, BuildingBlock: GALJAG_clean_sbu_0, # of connection points: 4
#     Node 16, Type 0, BuildingBlock: GALJAG_clean_sbu_0, # of connection points: 4
#     Node 17, Type 0, BuildingBlock: GALJAG_clean_sbu_0, # of connection points: 4
#     Node 18, Type 0, BuildingBlock: GALJAG_clean_sbu_0, # of connection points: 4
#     Node 19, Type 0, BuildingBlock: GALJAG_clean_sbu_0, # of connection points: 4
#     Node 20, Type 0, BuildingBlock: GALJAG_clean_sbu_0, # of connection points: 4
#     Node 21, Type 0, BuildingBlock: GALJAG_clean_sbu_0, # of connection points: 4
#     Node 22, Type 0, BuildingBlock: GALJAG_clean_sbu_0, # of connection points: 4
#     Node 23, Type 0, BuildingBlock: GALJAG_clean_sbu_0, # of connection points: 4
#     Node 24, Type 1, BuildingBlock: BETGAK_clean_sbu_0, # of connection points: 6
#     Node 25, Type 1, BuildingBlock: BETGAK_clean_sbu_0, # of connection points: 6
#     Node 26, Type 1, BuildingBlock: BETGAK_clean_sbu_0, # of connection points: 6
#     Node 27, Type 1, BuildingBlock: BETGAK_clean_sbu_0, # of connection points: 6
#     Node 28, Type 1, BuildingBlock: BETGAK_clean_sbu_0, # of connection points: 6
#     Node 29, Type 1, BuildingBlock: BETGAK_clean_sbu_0, # of connection points: 6
#     Node 30, Type 1, BuildingBlock: BETGAK_clean_sbu_0, # of connection points: 6
#     Node 31, Type 1, BuildingBlock: BETGAK_clean_sbu_0, # of connection points: 6
#     Node 32, Type 1, BuildingBlock: BETGAK_clean_sbu_0, # of connection points: 6
#     Node 33, Type 1, BuildingBlock: BETGAK_clean_sbu_0, # of connection points: 6
#     Node 34, Type 1, BuildingBlock: BETGAK_clean_sbu_0, # of connection points: 6
#     Node 35, Type 1, BuildingBlock: BETGAK_clean_sbu_0, # of connection points: 6
#     Node 36, Type 1, BuildingBlock: BETGAK_clean_sbu_0, # of connection points: 6
#     Node 37, Type 1, BuildingBlock: BETGAK_clean_sbu_0, # of connection points: 6
#     Node 38, Type 1, BuildingBlock: BETGAK_clean_sbu_0, # of connection points: 6
#     Node 39, Type 1, BuildingBlock: BETGAK_clean_sbu_0, # of connection points: 6
#     Edge 40, Type (0, 1), BuildingBlock: XUDNAN_clean_linker_2, # of connection points: 2
#     Edge 41, Type (0, 1), BuildingBlock: XUDNAN_clean_linker_2, # of connection points: 2
#     Edge 42, Type (0, 1), BuildingBlock: XUDNAN_clean_linker_2, # of connection points: 2
#     Edge 43, Type (0, 1), BuildingBlock: XUDNAN_clean_linker_2, # of connection points: 2
#     Edge 44, Type (0, 1), BuildingBlock: XUDNAN_clean_linker_2, # of connection points: 2
#     Edge 45, Type (0, 1), BuildingBlock: XUDNAN_clean_linker_2, # of connection points: 2
#     Edge 46, Type (0, 1), BuildingBlock: XUDNAN_clean_linker_2, # of connection points: 2
#     Edge 47, Type (0, 1), BuildingBlock: XUDNAN_clean_linker_2, # of connection points: 2
#     Edge 48, Type (0, 1), BuildingBlock: XUDNAN_clean_linker_2, # of connection points: 2
#     Edge 49, Type (0, 1), BuildingBlock: XUDNAN_clean_linker_2, # of connection points: 2
#     Edge 50, Type (0, 1), BuildingBlock: XUDNAN_clean_linker_2, # of connection points: 2
#     Edge 51, Type (0, 1), BuildingBlock: XUDNAN_clean_linker_2, # of connection points: 2
#     Edge 52, Type (0, 1), BuildingBlock: XUDNAN_clean_linker_2, # of connection points: 2
#     Edge 53, Type (0, 1), BuildingBlock: XUDNAN_clean_linker_2, # of connection points: 2
#     Edge 54, Type (0, 1), BuildingBlock: XUDNAN_clean_linker_2, # of connection points: 2
#     Edge 55, Type (0, 1), BuildingBlock: XUDNAN_clean_linker_2, # of connection points: 2
#     Edge 56, Type (0, 1), BuildingBlock: XUDNAN_clean_linker_2, # of connection points: 2
#     Edge 57, Type (0, 1), BuildingBlock: XUDNAN_clean_linker_2, # of connection points: 2
#     Edge 58, Type (0, 1), BuildingBlock: XUDNAN_clean_linker_2, # of connection points: 2
#     Edge 59, Type (0, 1), BuildingBlock: XUDNAN_clean_linker_2, # of connection points: 2
#     Edge 60, Type (0, 1), BuildingBlock: XUDNAN_clean_linker_2, # of connection points: 2
#     Edge 61, Type (0, 1), BuildingBlock: XUDNAN_clean_linker_2, # of connection points: 2
#     Edge 62, Type (0, 1), BuildingBlock: XUDNAN_clean_linker_2, # of connection points: 2
#     Edge 63, Type (0, 1), BuildingBlock: XUDNAN_clean_linker_2, # of connection points: 2
#     Edge 64, Type (0, 1), BuildingBlock: XUDNAN_clean_linker_2, # of connection points: 2
#     Edge 65, Type (0, 1), BuildingBlock: XUDNAN_clean_linker_2, # of connection points: 2
#     Edge 66, Type (0, 1), BuildingBlock: XUDNAN_clean_linker_2, # of connection points: 2
#     Edge 67, Type (0, 1), BuildingBlock: XUDNAN_clean_linker_2, # of connection points: 2
#     Edge 68, Type (0, 1), BuildingBlock: XUDNAN_clean_linker_2, # of connection points: 2
#     Edge 69, Type (0, 1), BuildingBlock: XUDNAN_clean_linker_2, # of connection points: 2
#     Edge 70, Type (0, 1), BuildingBlock: XUDNAN_clean_linker_2, # of connection points: 2
#     Edge 71, Type (0, 1), BuildingBlock: XUDNAN_clean_linker_2, # of connection points: 2
#     Edge 72, Type (0, 1), BuildingBlock: XUDNAN_clean_linker_2, # of connection points: 2
#     Edge 73, Type (0, 1), BuildingBlock: XUDNAN_clean_linker_2, # of connection points: 2
#     Edge 74, Type (0, 1), BuildingBlock: XUDNAN_clean_linker_2, # of connection points: 2
#     Edge 75, Type (0, 1), BuildingBlock: XUDNAN_clean_linker_2, # of connection points: 2
#     Edge 76, Type (0, 1), BuildingBlock: XUDNAN_clean_linker_2, # of connection points: 2
#     Edge 77, Type (0, 1), BuildingBlock: XUDNAN_clean_linker_2, # of connection points: 2
#     Edge 78, Type (0, 1), BuildingBlock: XUDNAN_clean_linker_2, # of connection points: 2
#     Edge 79, Type (0, 1), BuildingBlock: XUDNAN_clean_linker_2, # of connection points: 2
#     Edge 80, Type (0, 1), BuildingBlock: XUDNAN_clean_linker_2, # of connection points: 2
#     Edge 81, Type (0, 1), BuildingBlock: XUDNAN_clean_linker_2, # of connection points: 2
#     Edge 82, Type (0, 1), BuildingBlock: XUDNAN_clean_linker_2, # of connection points: 2
#     Edge 83, Type (0, 1), BuildingBlock: XUDNAN_clean_linker_2, # of connection points: 2
#     Edge 84, Type (0, 1), BuildingBlock: XUDNAN_clean_linker_2, # of connection points: 2
#     Edge 85, Type (0, 1), BuildingBlock: XUDNAN_clean_linker_2, # of connection points: 2
#     Edge 86, Type (0, 1), BuildingBlock: XUDNAN_clean_linker_2, # of connection points: 2
#     Edge 87, Type (0, 1), BuildingBlock: XUDNAN_clean_linker_2, # of connection points: 2
#     Edge 88, Type (0, 1), BuildingBlock: XUDNAN_clean_linker_2, # of connection points: 2
#     Edge 89, Type (0, 1), BuildingBlock: XUDNAN_clean_linker_2, # of connection points: 2
#     Edge 90, Type (0, 1), BuildingBlock: XUDNAN_clean_linker_2, # of connection points: 2
#     Edge 91, Type (0, 1), BuildingBlock: XUDNAN_clean_linker_2, # of connection points: 2
#     Edge 92, Type (0, 1), BuildingBlock: XUDNAN_clean_linker_2, # of connection points: 2
#     Edge 93, Type (0, 1), BuildingBlock: XUDNAN_clean_linker_2, # of connection points: 2
#     Edge 94, Type (0, 1), BuildingBlock: XUDNAN_clean_linker_2, # of connection points: 2
#     Edge 95, Type (0, 1), BuildingBlock: XUDNAN_clean_linker_2, # of connection points: 2
#     Edge 96, Type (0, 1), BuildingBlock: XUDNAN_clean_linker_2, # of connection points: 2
#     Edge 97, Type (0, 1), BuildingBlock: XUDNAN_clean_linker_2, # of connection points: 2
#     Edge 98, Type (0, 1), BuildingBlock: XUDNAN_clean_linker_2, # of connection points: 2
#     Edge 99, Type (0, 1), BuildingBlock: XUDNAN_clean_linker_2, # of connection points: 2
#     Edge 100, Type (0, 1), BuildingBlock: XUDNAN_clean_linker_2, # of connection points: 2
#     Edge 101, Type (0, 1), BuildingBlock: XUDNAN_clean_linker_2, # of connection points: 2
#     Edge 102, Type (0, 1), BuildingBlock: XUDNAN_clean_linker_2, # of connection points: 2
#     Edge 103, Type (0, 1), BuildingBlock: XUDNAN_clean_linker_2, # of connection points: 2
#     Edge 104, Type (0, 1), BuildingBlock: XUDNAN_clean_linker_2, # of connection points: 2
#     Edge 105, Type (0, 1), BuildingBlock: XUDNAN_clean_linker_2, # of connection points: 2
#     Edge 106, Type (0, 1), BuildingBlock: XUDNAN_clean_linker_2, # of connection points: 2
#     Edge 107, Type (0, 1), BuildingBlock: XUDNAN_clean_linker_2, # of connection points: 2
#     Edge 108, Type (0, 1), BuildingBlock: XUDNAN_clean_linker_2, # of connection points: 2
#     Edge 109, Type (0, 1), BuildingBlock: XUDNAN_clean_linker_2, # of connection points: 2
#     Edge 110, Type (0, 1), BuildingBlock: XUDNAN_clean_linker_2, # of connection points: 2
#     Edge 111, Type (0, 1), BuildingBlock: XUDNAN_clean_linker_2, # of connection points: 2
#     Edge 112, Type (0, 1), BuildingBlock: XUDNAN_clean_linker_2, # of connection points: 2
#     Edge 113, Type (0, 1), BuildingBlock: XUDNAN_clean_linker_2, # of connection points: 2
#     Edge 114, Type (0, 1), BuildingBlock: XUDNAN_clean_linker_2, # of connection points: 2
#     Edge 115, Type (0, 1), BuildingBlock: XUDNAN_clean_linker_2, # of connection points: 2
#     Edge 116, Type (0, 1), BuildingBlock: XUDNAN_clean_linker_2, # of connection points: 2
#     Edge 117, Type (0, 1), BuildingBlock: XUDNAN_clean_linker_2, # of connection points: 2
#     Edge 118, Type (0, 1), BuildingBlock: XUDNAN_clean_linker_2, # of connection points: 2
#     Edge 119, Type (0, 1), BuildingBlock: XUDNAN_clean_linker_2, # of connection points: 2
#     Edge 120, Type (0, 1), BuildingBlock: XUDNAN_clean_linker_2, # of connection points: 2
#     Edge 121, Type (0, 1), BuildingBlock: XUDNAN_clean_linker_2, # of connection points: 2
#     Edge 122, Type (0, 1), BuildingBlock: XUDNAN_clean_linker_2, # of connection points: 2
#     Edge 123, Type (0, 1), BuildingBlock: XUDNAN_clean_linker_2, # of connection points: 2
#     Edge 124, Type (0, 1), BuildingBlock: XUDNAN_clean_linker_2, # of connection points: 2
#     Edge 125, Type (0, 1), BuildingBlock: XUDNAN_clean_linker_2, # of connection points: 2
#     Edge 126, Type (0, 1), BuildingBlock: XUDNAN_clean_linker_2, # of connection points: 2
#     Edge 127, Type (0, 1), BuildingBlock: XUDNAN_clean_linker_2, # of connection points: 2
#     Edge 128, Type (0, 1), BuildingBlock: XUDNAN_clean_linker_2, # of connection points: 2
#     Edge 129, Type (0, 1), BuildingBlock: XUDNAN_clean_linker_2, # of connection points: 2
#     Edge 130, Type (0, 1), BuildingBlock: XUDNAN_clean_linker_2, # of connection points: 2
#     Edge 131, Type (0, 1), BuildingBlock: XUDNAN_clean_linker_2, # of connection points: 2
#     Edge 132, Type (0, 1), BuildingBlock: XUDNAN_clean_linker_2, # of connection points: 2
#     Edge 133, Type (0, 1), BuildingBlock: XUDNAN_clean_linker_2, # of connection points: 2
#     Edge 134, Type (0, 1), BuildingBlock: XUDNAN_clean_linker_2, # of connection points: 2
#     Edge 135, Type (0, 1), BuildingBlock: XUDNAN_clean_linker_2, # of connection points: 2
# Relax obj value: 0.211
# Max RMSD: 0.307
# Mean RMSD: 0.174
data_MOF--net-gar--node1-GALJAG_clean_sbu_0--node2-BETGAK_clean_sbu_0--edge1-XUDNAN_clean_linker_2
_symmetry_space_group_name_H-M    P1
_symmetry_Int_Tables_number       1
_symmetry_cell_setting            triclinic
loop_
_symmetry_equiv_pos_as_xyz
'x, y, z'
_cell_length_a     62.202531
_cell_length_b     56.496949
_cell_length_c     56.795833
_cell_angle_alpha  98.406279
_cell_angle_beta   95.144664
_cell_angle_gamma 101.65233
loop_
_atom_site_label
_atom_site_type_symbol
_atom_site_fract_x
_atom_site_fract_y
_atom_site_fract_z
_atom_type_partial_charge
In0 In 0.12572 0.35135 0.40141 0.0
O1 O 0.13833 0.33668 0.3682 0.0
O2 O 0.16232 0.35645 0.39758 0.0
C3 C 0.08775 0.35097 0.37639 0.0
C4 C 0.12065 0.31324 0.42423 0.0
C5 C 0.12705 0.39627 0.42506 0.0
O6 O 0.10601 0.36234 0.37174 0.0
O7 O 0.08849 0.33889 0.39327 0.0
O8 O 0.12047 0.3771 0.4337 0.0
O9 O 0.13502 0.39287 0.40553 0.0
C10 C 0.15833 0.34492 0.37633 0.0
O11 O 0.13135 0.33437 0.43428 0.0
O12 O 0.11348 0.31129 0.4024 0.0
In13 In 1.01083 0.76672 0.66755 0.0
O14 O 1.01727 0.78676 0.63655 0.0
O15 O 0.02017 0.80795 0.67154 0.0
C16 C 0.99933 0.72541 0.63659 0.0
C17 C 0.05197 0.77188 0.68747 0.0
C18 C 0.97645 0.76535 0.69157 0.0
O19 O 0.99307 0.74462 0.63302 0.0
O20 O 1.01002 0.7266 0.65682 0.0
O21 O 0.99101 0.7534 0.69582 0.0
O22 O 0.97957 0.77849 0.67554 0.0
C23 C 0.02256 0.80763 0.64964 0.0
O24 O 0.03656 0.77351 0.70026 0.0
O25 O 0.04629 0.76625 0.66522 0.0
In26 In 0.6268 0.85343 0.90092 0.0
O27 O 0.65069 0.8605 0.87356 0.0
O28 O 0.66144 0.8469 0.90451 0.0
C29 C 0.58961 0.8463 0.87183 0.0
C30 C 0.61405 0.81002 0.9151 0.0
C31 C 0.62575 0.89585 0.92823 0.0
O32 O 0.60733 0.84294 0.86415 0.0
O33 O 0.59073 0.85386 0.89399 0.0
O34 O 0.62882 0.87723 0.93679 0.0
O35 O 0.62588 0.89403 0.90584 0.0
C36 C 0.66527 0.85188 0.88415 0.0
O37 O 0.62165 0.82951 0.93001 0.0
O38 O 0.61373 0.81249 0.89344 0.0
In39 In 0.51214 0.26803 0.1686 0.0
O40 O 0.50077 0.24062 0.13467 0.0
O41 O 0.51179 0.22808 0.16652 0.0
C42 C 0.52478 0.30071 0.14074 0.0
C43 C 0.47624 0.26732 0.19026 0.0
C44 C 0.55182 0.27864 0.19397 0.0
O45 O 0.52017 0.27792 0.13315 0.0
O46 O 0.52129 0.30714 0.16205 0.0
O47 O 0.53879 0.29302 0.19593 0.0
O48 O 0.54443 0.25847 0.18025 0.0
C49 C 0.50471 0.223 0.14448 0.0
O50 O 0.4924 0.2594 0.19824 0.0
O51 O 0.47827 0.27648 0.17144 0.0
In52 In 0.10299 0.82656 0.13613 0.0
O53 O 0.10042 0.79987 0.10007 0.0
O54 O 0.09521 0.78469 0.13161 0.0
C55 C 0.10065 0.8697 0.11851 0.0
C56 C 0.06462 0.81555 0.1561 0.0
C57 C 0.14383 0.8308 0.16295 0.0
O58 O 0.1018 0.85025 0.10492 0.0
O59 O 0.10185 0.86752 0.14039 0.0
O60 O 0.12871 0.84044 0.17091 0.0
O61 O 0.13901 0.82067 0.14125 0.0
C62 C 0.09591 0.78062 0.10934 0.0
O63 O 0.08345 0.81616 0.16677 0.0
O64 O 0.06499 0.82153 0.1356 0.0
In65 In 0.52852 0.78769 0.42884 0.0
O66 O 0.55182 0.7838 0.39883 0.0
O67 O 0.5664 0.80312 0.4332 0.0
C68 C 0.48956 0.79242 0.40127 0.0
C69 C 0.53322 0.74598 0.44815 0.0
C70 C 0.53106 0.82895 0.46062 0.0
O71 O 0.50915 0.80028 0.39721 0.0
O72 O 0.4891 0.77974 0.4179 0.0
O73 O 0.51843 0.80883 0.46208 0.0
O74 O 0.54294 0.82798 0.44384 0.0
C75 C 0.56944 0.79548 0.41199 0.0
O76 O 0.53023 0.7652 0.46058 0.0
O77 O 0.53217 0.74708 0.42599 0.0
In78 In 0.60473 0.32522 0.63491 0.0
O79 O 0.60809 0.29849 0.60115 0.0
O80 O 0.59486 0.28355 0.6304 0.0
C81 C 0.60257 0.36764 0.61548 0.0
C82 C 0.56622 0.31691 0.65466 0.0
C83 C 0.64446 0.33139 0.6645 0.0
O84 O 0.59659 0.3465 0.60299 0.0
O85 O 0.61048 0.36714 0.63657 0.0
O86 O 0.6283 0.34036 0.67034 0.0
O87 O 0.64117 0.31975 0.64324 0.0
C88 C 0.59985 0.27939 0.60938 0.0
O89 O 0.58488 0.32271 0.66712 0.0
O90 O 0.56685 0.31608 0.63249 0.0
In91 In 0.02839 0.28648 0.93089 0.0
O92 O 0.03614 0.2697 0.96464 0.0
O93 O 0.02733 0.24497 0.9319 0.0
C94 C 0.03538 0.33318 0.95299 0.0
C95 C 0.06764 0.29339 0.91101 0.0
C96 C 0.98539 0.28711 0.91107 0.0
O97 O 0.03135 0.31574 0.96478 0.0
O98 O 0.03592 0.32671 0.93088 0.0
O99 O 1.00076 0.28438 0.89838 0.0
O100 O 0.99111 0.28719 0.933 0.0
C101 C 0.0336 0.24788 0.95416 0.0
O102 O 0.04971 0.28063 0.89922 0.0
O103 O 0.06562 0.30232 0.9321 0.0
In104 In 0.44459 0.0339 0.31041 0.0
O105 O 0.47321 0.04752 0.29124 0.0
O106 O 0.44325 0.02442 0.27139 0.0
C107 C 0.46058 0.04018 0.35526 0.0
C108 C 0.42214 0.06836 0.30505 0.0
C109 C 0.43602 0.98618 0.30311 0.0
O110 O 0.47248 0.04626 0.33929 0.0
O111 O 0.44021 0.03162 0.34856 0.0
O112 O 0.42136 0.99846 0.30719 0.0
O113 O 0.45558 0.99801 0.30366 0.0
C114 C 0.46273 0.03617 0.27133 0.0
O115 O 0.41288 0.04587 0.29958 0.0
O116 O 0.44193 0.07298 0.3146 0.0
In117 In 0.2955 0.207 0.51439 0.0
O118 O 0.3027 0.24397 0.54157 0.0
O119 O 0.29765 0.21078 0.55542 0.0
C120 C 0.30029 0.22351 0.47031 0.0
C121 C 0.33082 0.18699 0.52476 0.0
C122 C 0.25345 0.17728 0.50955 0.0
O123 O 0.29427 0.23613 0.48789 0.0
O124 O 0.3036 0.20332 0.47511 0.0
O125 O 0.26941 0.17105 0.49989 0.0
O126 O 0.25807 0.19909 0.52062 0.0
C127 C 0.30206 0.23383 0.56012 0.0
O128 O 0.31099 0.17561 0.52342 0.0
O129 O 0.33316 0.2083 0.51965 0.0
In130 In 0.18893 0.0372 0.79041 0.0
O131 O 0.15684 0.0385 0.76157 0.0
O132 O 0.1842 0.02942 0.74727 0.0
C133 C 0.16329 0.0377 0.83337 0.0
C134 C 0.21472 0.99702 0.78835 0.0
C135 C 0.2148 0.08638 0.78938 0.0
O136 O 0.16016 0.02072 0.81515 0.0
O137 O 0.17889 0.05469 0.83004 0.0
O138 O 0.21982 0.07304 0.80427 0.0
O139 O 0.1976 0.07512 0.77565 0.0
C140 C 0.16521 0.03367 0.74222 0.0
O141 O 0.22034 1.01828 0.80113 0.0
O142 O 0.19594 0.99541 0.77669 0.0
In143 In 0.32842 0.94205 1.01263 0.0
O144 O 0.31733 0.91194 0.03328 0.0
O145 O 0.33464 0.94701 0.05265 0.0
C146 C 0.3305 0.91709 0.97042 0.0
C147 C 0.29565 0.96495 1.01408 0.0
C148 C 0.37065 0.95862 0.01867 0.0
O149 O 0.32498 0.90684 0.98796 0.0
O150 O 0.33275 0.9401 0.97342 0.0
O151 O 0.35749 0.97144 1.01205 0.0
O152 O 0.36256 0.93745 0.0224 0.0
C153 C 0.32599 0.92495 0.05323 0.0
O154 O 0.31521 0.97608 0.02215 0.0
O155 O 0.29325 0.94304 1.00384 0.0
In156 In 0.3397 0.40829 0.05076 0.0
O157 O 0.33488 0.37324 0.06822 0.0
O158 O 0.33509 0.40549 0.09173 0.0
C159 C 0.3366 0.38117 1.00645 0.0
C160 C 0.30099 0.42463 0.04214 0.0
C161 C 0.38316 0.43481 0.04936 0.0
O162 O 0.34205 0.37356 0.02554 0.0
O163 O 0.3323 0.40228 1.00971 0.0
O164 O 0.36881 0.44471 0.05894 0.0
O165 O 0.37597 0.41228 0.04204 0.0
C166 C 0.33293 0.38251 0.08926 0.0
O167 O 0.31794 0.43802 0.0552 0.0
O168 O 0.30361 0.4036 0.03398 0.0
In169 In 0.79995 0.16268 0.04877 0.0
O170 O 0.82228 0.13613 0.04903 0.0
O171 O 0.83145 0.16821 0.03285 0.0
C172 C 0.75959 0.13598 0.04468 0.0
C173 C 0.80925 0.18733 0.0924 0.0
C174 C 0.78509 0.18279 1.01392 0.0
O175 O 0.77495 0.12705 0.03635 0.0
O176 O 0.76543 0.15693 0.0573 0.0
O177 O 0.78857 0.19376 0.03536 0.0
O178 O 0.7909 0.16262 1.00983 0.0
C179 C 0.83565 0.14835 0.03745 0.0
O180 O 0.81266 0.1976 0.07436 0.0
O181 O 0.80322 0.16421 0.08834 0.0
In182 In 0.19512 0.57703 0.25457 0.0
O183 O 0.22833 0.56832 0.26042 0.0
O184 O 0.19935 0.53903 0.2529 0.0
C185 C 0.20379 0.62459 0.25619 0.0
C186 C 0.17426 0.56469 0.21175 0.0
C187 C 0.18127 0.57474 0.29651 0.0
O188 O 0.21763 0.61173 0.25065 0.0
O189 O 0.18525 0.61318 0.26023 0.0
O190 O 0.17035 0.56185 0.27748 0.0
O191 O 0.19953 0.58827 0.29434 0.0
C192 C 0.22007 0.54558 0.25796 0.0
O193 O 0.16406 0.56735 0.22986 0.0
O194 O 0.195 0.56812 0.21522 0.0
In195 In 0.84057 0.90702 0.55001 0.0
O196 O 0.84047 0.87424 0.57194 0.0
O197 O 0.8307 0.9057 0.588 0.0
C198 C 0.83243 0.88499 0.50346 0.0
C199 C 0.80435 0.928 0.54601 0.0
C200 C 0.88344 0.93589 0.55181 0.0
O201 O 0.83714 0.87309 0.51977 0.0
O202 O 0.83185 0.90691 0.51098 0.0
O203 O 0.86828 0.94237 0.56289 0.0
O204 O 0.87768 0.91413 0.54079 0.0
C205 C 0.83307 0.88444 0.58988 0.0
O206 O 0.82407 0.94 0.55224 0.0
O207 O 0.8026 0.90504 0.54193 0.0
In208 In 0.94876 0.07793 0.27399 0.0
O209 O 0.98085 0.07415 0.25097 0.0
O210 O 0.95283 0.07806 0.23133 0.0
C211 C 0.97679 0.07899 0.31861 0.0
C212 C 0.92753 0.12268 0.27925 0.0
C213 C 0.92299 0.02773 0.27551 0.0
O214 O 0.98223 0.0923 0.30287 0.0
O215 O 0.95743 0.06625 0.31247 0.0
O216 O 0.92175 0.03821 0.25715 0.0
O217 O 0.93594 0.04244 0.29208 0.0
C218 C 0.97263 0.0759 0.23016 0.0
O219 O 0.91707 0.1004 0.27338 0.0
O220 O 0.94787 0.12223 0.28324 0.0
In221 In 0.3011 0.66271 0.54724 0.0
O222 O 0.32122 0.63384 0.54488 0.0
O223 O 0.33583 0.6704 0.54009 0.0
C224 C 0.25916 0.64134 0.54131 0.0
C225 C 0.30549 0.68686 0.59111 0.0
C226 C 0.29436 0.68005 0.50755 0.0
O227 O 0.27363 0.62848 0.54158 0.0
O228 O 0.26602 0.66423 0.54529 0.0
O229 O 0.30019 0.69375 0.52774 0.0
O230 O 0.29341 0.65747 0.5072 0.0
C231 C 0.33757 0.64855 0.5396 0.0
O232 O 0.30913 0.69744 0.57337 0.0
O233 O 0.3011 0.6637 0.5869 0.0
In234 In 0.44941 0.57763 0.77439 0.0
O235 O 0.41752 0.59844 0.77944 0.0
O236 O 0.44533 0.62128 0.77297 0.0
C237 C 0.42418 0.52732 0.77658 0.0
C238 C 0.47388 0.57512 0.73107 0.0
C239 C 0.47862 0.57913 0.8184 0.0
O240 O 0.42134 0.53842 0.75886 0.0
O241 O 0.43861 0.54143 0.7923 0.0
O242 O 0.48424 0.57751 0.79738 0.0
O243 O 0.45898 0.58215 0.81778 0.0
C244 C 0.42541 0.62042 0.77682 0.0
O245 O 0.47842 0.59239 0.749 0.0
O246 O 0.45738 0.5593 0.7348 0.0
In247 In 0.69425 0.07367 0.76027 0.0
O248 O 0.72113 0.05341 0.75795 0.0
O249 O 0.68744 0.03365 0.75663 0.0
C250 C 0.7082 0.11954 0.75934 0.0
C251 C 0.6686 0.07025 0.72129 0.0
C252 C 0.68843 0.07997 0.80551 0.0
O253 O 0.72046 0.10446 0.75459 0.0
O254 O 0.6893 0.11146 0.76493 0.0
O255 O 0.67347 0.06764 0.78922 0.0
O256 O 0.70715 0.08746 0.79903 0.0
C257 C 0.70766 0.03314 0.75722 0.0
O258 O 0.66134 0.07106 0.7414 0.0
O259 O 0.68862 0.0692 0.72061 0.0
In260 In 0.79589 0.7074 1.01446 0.0
O261 O 0.81506 0.67663 0.01783 0.0
O262 O 0.83338 0.7133 0.02256 0.0
C263 C 0.75505 0.67551 1.00975 0.0
C264 C 0.80175 0.73321 0.06037 0.0
C265 C 0.79718 0.72858 0.9727 0.0
O266 O 0.77084 0.67097 0.99855 0.0
O267 O 0.75946 0.69639 0.02275 0.0
O268 O 0.78719 0.7353 0.99013 0.0
O269 O 0.80642 0.71125 0.97615 0.0
C270 C 0.83381 0.69115 0.0229 0.0
O271 O 0.80431 0.74361 0.04217 0.0
O272 O 0.79555 0.71022 0.05531 0.0
In273 In 0.94808 0.53665 0.80979 0.0
O274 O 0.91542 0.54707 0.8113 0.0
O275 O 0.94158 0.57185 0.79958 0.0
C276 C 0.93908 0.48862 0.80459 0.0
C277 C 0.96613 0.5306 0.77093 0.0
C278 C 0.96212 0.54605 0.85539 0.0
O279 O 0.92511 0.50076 0.79844 0.0
O280 O 0.9577 0.50092 0.81467 0.0
O281 O 0.97411 0.55493 0.84049 0.0
O282 O 0.94284 0.53422 0.8472 0.0
C283 C 0.92166 0.56683 0.80357 0.0
O284 O 0.97785 0.54285 0.78992 0.0
O285 O 0.94565 0.52385 0.77147 0.0
In286 In 0.82813 0.44321 0.51237 0.0
O287 O 0.8246 0.4186 0.54017 0.0
O288 O 0.83248 0.45778 0.55121 0.0
C289 C 0.82559 0.41621 0.46992 0.0
C290 C 0.79705 0.46812 0.51326 0.0
C291 C 0.87131 0.45537 0.51948 0.0
O292 O 0.81864 0.40714 0.48768 0.0
O293 O 0.83135 0.4393 0.47297 0.0
O294 O 0.85988 0.47132 0.51753 0.0
O295 O 0.8609 0.43346 0.51724 0.0
C296 C 0.82968 0.43684 0.55711 0.0
O297 O 0.8159 0.47678 0.50756 0.0
O298 O 0.79319 0.44579 0.51571 0.0
In299 In 0.68929 0.53763 0.29108 0.0
O300 O 0.72129 0.51682 0.28898 0.0
O301 O 0.69086 0.49388 0.28772 0.0
C302 C 0.71475 0.58726 0.29098 0.0
C303 C 0.6657 0.53356 0.24264 0.0
C304 C 0.66441 0.54005 0.33457 0.0
O305 O 0.72007 0.57368 0.30547 0.0
O306 O 0.69732 0.57615 0.2776 0.0
O307 O 0.65611 0.53554 0.31263 0.0
O308 O 0.68527 0.54318 0.33507 0.0
C309 C 0.71141 0.49449 0.28723 0.0
O310 O 0.65738 0.53858 0.26192 0.0
O311 O 0.6846 0.52909 0.24777 0.0
La312 La 0.05427 0.05096 0.02166 0.0
La313 La 0.09404 0.07382 0.05218 0.0
C314 C 1.0136 0.03819 1.00718 0.0
C315 C 0.99593 0.05173 1.00906 0.0
C316 C 0.98071 0.04968 0.98878 0.0
C317 C 0.96514 0.06422 0.98903 0.0
C318 C 0.96447 0.08089 1.00967 0.0
C319 C 0.9798 0.08314 0.03001 0.0
C320 C 0.99562 0.06878 0.02965 0.0
C321 C 0.0851 0.049 0.99011 0.0
C322 C 0.07018 0.10877 0.02699 0.0
C323 C 0.13419 0.08899 0.06933 0.0
C324 C 0.15363 0.07836 0.06665 0.0
C325 C 0.16742 0.07717 0.08725 0.0
C326 C 0.18262 0.06202 0.08586 0.0
C327 C 0.18399 0.04791 0.06384 0.0
C328 C 0.17138 0.0506 0.04299 0.0
C329 C 0.15617 0.06554 0.04439 0.0
C330 C 0.06152 0.07447 0.08247 0.0
C331 C 0.07884 1.01615 0.04669 0.0
O332 O 0.02847 0.04679 0.99407 0.0
O333 O 0.02245 0.0329 0.02698 0.0
O334 O 0.06433 0.03879 0.98675 0.0
O335 O 0.08928 0.05848 1.01301 0.0
O336 O 0.05347 0.08967 0.02108 0.0
O337 O 0.08874 0.10667 0.0387 0.0
O338 O 0.11931 0.07625 0.07993 0.0
O339 O 0.1253 0.096 0.05051 0.0
O340 O 0.08233 0.08408 0.08763 0.0
O341 O 0.05946 0.06593 0.05977 0.0
O342 O 0.09552 0.03535 0.05185 0.0
O343 O 0.05989 1.01798 0.03546 0.0
H344 H 0.98109 0.03704 0.97261 0.0
H345 H 0.95331 0.06208 0.97324 0.0
H346 H 0.97959 0.09606 0.04606 0.0
H347 H 1.00769 0.07118 0.04528 0.0
H348 H 0.16546 0.08676 0.10462 0.0
H349 H 0.19229 0.06023 0.10209 0.0
H350 H 0.17256 0.04023 0.0257 0.0
H351 H 0.14558 0.06593 0.02829 0.0
La352 La 0.31834 0.8241 0.28619 0.0
La353 La 0.29786 0.83394 0.32476 0.0
C354 C 0.32909 0.8249 0.24501 0.0
C355 C 0.34142 0.84492 0.23473 0.0
C356 C 0.36154 0.84263 0.22651 0.0
C357 C 0.37144 0.85901 0.21263 0.0
C358 C 0.36065 0.87701 0.20609 0.0
C359 C 0.34281 0.88204 0.21786 0.0
C360 C 0.33297 0.8658 0.23197 0.0
C361 C 0.34719 0.82303 0.3237 0.0
C362 C 0.31815 0.87917 0.3084 0.0
C363 C 0.27661 0.83563 0.36049 0.0
C364 C 0.27175 0.81921 0.37753 0.0
C365 C 0.25067 0.81492 0.38513 0.0
C366 C 0.24388 0.7948 0.39632 0.0
C367 C 0.25804 0.77885 0.39934 0.0
C368 C 0.27951 0.784 0.393 0.0
C369 C 0.28638 0.80416 0.38219 0.0
C370 C 0.27232 0.83173 0.28312 0.0
C371 C 0.29963 0.78046 0.30839 0.0
O372 O 0.34032 0.81698 0.26149 0.0
O373 O 0.30964 0.82717 0.25055 0.0
O374 O 0.34413 0.80928 0.30289 0.0
O375 O 0.33423 0.83841 0.32313 0.0
O376 O 0.32091 0.86362 0.28989 0.0
O377 O 0.31219 0.87161 0.32776 0.0
O378 O 0.26782 0.82577 0.33873 0.0
O379 O 0.29727 0.84679 0.36128 0.0
O380 O 0.27608 0.8495 0.30096 0.0
O381 O 0.28379 0.81672 0.28842 0.0
O382 O 0.30162 0.79708 0.32759 0.0
O383 O 0.30226 0.78731 0.28758 0.0
H384 H 0.3686 0.82703 0.2291 0.0
H385 H 0.38531 0.85502 0.20373 0.0
H386 H 0.33436 0.89602 0.21313 0.0
H387 H 0.31782 0.86852 0.2389 0.0
H388 H 0.23917 0.82633 0.38132 0.0
H389 H 0.22745 0.79115 0.40179 0.0
H390 H 0.29078 0.77208 0.39593 0.0
H391 H 0.30264 0.80713 0.37624 0.0
La392 La 0.58444 0.05011 0.5381 0.0
La393 La 0.53582 0.0511 0.54825 0.0
C394 C 0.62272 0.04106 0.53952 0.0
C395 C 0.63492 0.02111 0.53349 0.0
C396 C 0.64653 0.02076 0.51333 0.0
C397 C 0.66244 1.0065 0.51051 0.0
C398 C 0.66726 0.99222 0.52778 0.0
C399 C 0.65426 0.99072 0.54675 0.0
C400 C 0.63821 1.00497 0.54954 0.0
C401 C 0.55579 0.04981 0.50172 0.0
C402 C 0.54787 0.99977 0.53604 0.0
C403 C 0.49706 0.05825 0.54644 0.0
C404 C 0.48487 0.07814 0.55101 0.0
C405 C 0.47961 0.08597 0.57404 0.0
C406 C 0.46549 0.10232 0.57736 0.0
C407 C 0.456 0.11091 0.55767 0.0
C408 C 0.46203 0.10365 0.53484 0.0
C409 C 0.47627 0.08757 0.5316 0.0
C410 C 0.56324 0.04811 0.58394 0.0
C411 C 0.57214 0.10158 0.55039 0.0
O412 O 0.6134 0.04939 0.52176 0.0
O413 O 0.61083 0.04025 0.55746 0.0
O414 O 0.57674 0.05905 0.50226 0.0
O415 O 0.55254 0.03984 0.51953 0.0
O416 O 0.56902 1.01118 0.53747 0.0
O417 O 0.53164 1.01178 0.53728 0.0
O418 O 0.50717 0.05186 0.565 0.0
O419 O 0.50862 0.05834 0.52822 0.0
O420 O 0.54206 0.04003 0.5827 0.0
O421 O 0.56765 0.06019 0.56754 0.0
O422 O 0.55106 0.09018 0.54941 0.0
O423 O 0.58855 0.08975 0.54881 0.0
H424 H 0.6445 0.03287 0.50056 0.0
H425 H 0.67231 1.00819 0.49581 0.0
H426 H 0.65777 0.98017 0.56052 0.0
H427 H 0.62943 1.00448 0.56512 0.0
H428 H 0.48584 0.07896 0.58942 0.0
H429 H 0.46167 0.10776 0.59531 0.0
H430 H 0.4549 0.10928 0.51906 0.0
H431 H 0.47978 0.08169 0.51359 0.0
La432 La 0.29957 0.31363 0.78486 0.0
La433 La 0.344 0.29487 0.78501 0.0
C434 C 0.25934 0.3102 0.79214 0.0
C435 C 0.24424 0.31536 0.81058 0.0
C436 C 0.23172 0.33319 0.80853 0.0
C437 C 0.21464 0.33537 0.82278 0.0
C438 C 0.20942 0.31991 0.83991 0.0
C439 C 0.22265 0.30265 0.8426 0.0
C440 C 0.23963 0.30031 0.8281 0.0
C441 C 0.33398 0.35258 0.78304 0.0
C442 C 0.33036 0.31724 0.83437 0.0
C443 C 0.38362 0.29171 0.78165 0.0
C444 C 0.3975 0.28794 0.76229 0.0
C445 C 0.41525 0.2764 0.76583 0.0
C446 C 0.4307 0.27618 0.74932 0.0
C447 C 0.42858 0.28764 0.72915 0.0
C448 C 0.40955 0.29693 0.72449 0.0
C449 C 0.39414 0.2971 0.74092 0.0
C450 C 0.30905 0.25693 0.78697 0.0
C451 C 0.31486 0.29311 0.7352 0.0
O452 O 0.27069 0.3283 0.78322 0.0
O453 O 0.27068 0.29348 0.79492 0.0
O454 O 0.31305 0.35301 0.78259 0.0
O455 O 0.33427 0.32982 0.78408 0.0
O456 O 0.31203 0.32098 0.82308 0.0
O457 O 0.34521 0.30765 0.82322 0.0
O458 O 0.3678 0.27316 0.78316 0.0
O459 O 0.37709 0.31247 0.78472 0.0
O460 O 0.32962 0.25569 0.78723 0.0
O461 O 0.30969 0.27961 0.78581 0.0
O462 O 0.33408 0.29193 0.7466 0.0
O463 O 0.29851 0.29978 0.74634 0.0
H464 H 0.23446 0.34484 0.79506 0.0
H465 H 0.20494 0.34863 0.81935 0.0
H466 H 0.21981 0.2906 0.85568 0.0
H467 H 0.2487 0.28612 0.83018 0.0
H468 H 0.41785 0.26879 0.78202 0.0
H469 H 0.44516 0.26887 0.75335 0.0
H470 H 0.4074 0.3056 0.7089 0.0
H471 H 0.38029 0.30559 0.73754 0.0
La472 La 0.06922 0.07092 0.5364 0.0
La473 La 0.07531 0.02636 0.51568 0.0
C474 C 0.0687 0.11558 0.54156 0.0
C475 C 0.06783 0.13171 0.52343 0.0
C476 C 0.05118 0.14505 0.52268 0.0
C477 C 0.05126 0.16214 0.50729 0.0
C478 C 0.06811 0.1663 0.49254 0.0
C479 C 0.08354 0.1513 0.49151 0.0
C480 C 0.08341 0.13406 0.50687 0.0
C481 C 0.03557 0.03529 0.54251 0.0
C482 C 0.05471 0.05431 0.47835 0.0
C483 C 0.07617 0.98149 0.5078 0.0
C484 C 0.07569 0.96376 0.52445 0.0
C485 C 0.09177 0.94954 0.5253 0.0
C486 C 0.09228 0.93415 0.54248 0.0
C487 C 0.07687 0.93315 0.5591 0.0
C488 C 0.06064 0.94705 0.55796 0.0
C489 C 0.06005 0.96223 0.54086 0.0
C490 C 0.10812 0.06259 0.50981 0.0
C491 C 0.09063 0.04456 0.57431 0.0
O492 O 0.05099 0.09847 0.54098 0.0
O493 O 0.08682 0.10747 0.54467 0.0
O494 O 0.04564 0.05409 0.55838 0.0
O495 O 0.0448 0.03673 0.52347 0.0
O496 O 0.06058 0.07219 0.49725 0.0
O497 O 0.05773 0.0323 0.48143 0.0
O498 O 0.09388 0.99903 0.51096 0.0
O499 O 0.05824 0.98987 0.50451 0.0
O500 O 0.09855 0.04406 0.49344 0.0
O501 O 0.09928 0.06031 0.52882 0.0
O502 O 0.08611 0.02644 0.55526 0.0
O503 O 0.08606 0.06589 0.57109 0.0
H504 H 0.03872 0.1431 0.53485 0.0
H505 H 0.03926 0.17363 0.50838 0.0
H506 H 0.09679 0.15436 0.4804 0.0
H507 H 0.09609 0.12342 0.5065 0.0
H508 H 0.10412 0.95068 0.51298 0.0
H509 H 0.10491 0.92349 0.54314 0.0
H510 H 0.0484 0.94622 0.57042 0.0
H511 H 0.04755 0.97309 0.54084 0.0
La512 La 0.34372 0.82979 0.77497 0.0
La513 La 0.30298 0.79512 0.78288 0.0
C514 C 0.38157 0.85683 0.78276 0.0
C515 C 0.40389 0.85217 0.78565 0.0
C516 C 0.41597 0.84991 0.76596 0.0
C517 C 0.43689 0.84459 0.76889 0.0
C518 C 0.44577 0.84172 0.79152 0.0
C519 C 0.43383 0.844 0.81113 0.0
C520 C 0.4131 0.84931 0.80828 0.0
C521 C 0.3206 0.8027 0.73663 0.0
C522 C 0.347 0.77165 0.78228 0.0
C523 C 0.26438 0.76991 0.77421 0.0
C524 C 0.24355 0.77659 0.76644 0.0
C525 C 0.22855 0.78028 0.78288 0.0
C526 C 0.20924 0.78761 0.77575 0.0
C527 C 0.2046 0.7912 0.75203 0.0
C528 C 0.2197 0.78774 0.73565 0.0
C529 C 0.23897 0.78048 0.74274 0.0
C530 C 0.32743 0.81935 0.82119 0.0
C531 C 0.29953 0.85262 0.77601 0.0
O532 O 0.37045 0.85001 0.76127 0.0
O533 O 0.36948 0.85114 0.79972 0.0
O534 O 0.33164 0.82484 0.73646 0.0
O535 O 0.32434 0.7971 0.75675 0.0
O536 O 0.35747 0.79469 0.77976 0.0
O537 O 0.32511 0.76782 0.78378 0.0
O538 O 0.27378 0.77955 0.79607 0.0
O539 O 0.2786 0.77077 0.75861 0.0
O540 O 0.31631 0.79695 0.81988 0.0
O541 O 0.32308 0.82757 0.80236 0.0
O542 O 0.28919 0.82937 0.77712 0.0
O543 O 0.32158 0.85717 0.77623 0.0
H544 H 0.40929 0.85228 0.74839 0.0
H545 H 0.44627 0.84325 0.75376 0.0
H546 H 0.44077 0.84204 0.82877 0.0
H547 H 0.40432 0.85115 0.82386 0.0
H548 H 0.23176 0.77754 0.80124 0.0
H549 H 0.19783 0.79026 0.78872 0.0
H550 H 0.21632 0.7899 0.71712 0.0
H551 H 0.25019 0.77783 0.72955 0.0
La552 La 0.56443 0.06276 0.03945 0.0
La553 La 0.55201 0.07392 0.99178 0.0
C554 C 0.56416 0.05047 0.08015 0.0
C555 C 0.54492 0.04113 0.09176 0.0
C556 C 0.54485 0.02253 0.10565 0.0
C557 C 0.52635 1.01484 0.11719 0.0
C558 C 0.50777 0.02522 0.11406 0.0
C559 C 0.50667 0.04033 0.09679 0.0
C560 C 0.52562 0.0496 0.08722 0.0
C561 C 0.56997 0.03122 1.00292 0.0
C562 C 0.51471 0.05145 0.0159 0.0
C563 C 0.55178 0.08152 0.94971 0.0
C564 C 0.56816 0.09901 0.9405 0.0
C565 C 0.56125 0.11528 0.92663 0.0
C566 C 0.57683 0.13118 0.91687 0.0
C567 C 0.59932 0.13107 0.92137 0.0
C568 C 0.60634 0.11751 0.93818 0.0
C569 C 0.59084 0.10085 0.94692 0.0
C570 C 0.54728 0.10741 0.02689 0.0
C571 C 0.60186 0.08903 0.01684 0.0
O572 O 0.56617 0.03585 0.0609 0.0
O573 O 0.56688 0.07334 0.07681 0.0
O574 O 0.58373 0.03904 0.0222 0.0
O575 O 0.55342 0.04071 1.00458 0.0
O576 O 0.5288 0.05893 0.03555 0.0
O577 O 0.52132 0.05034 0.99459 0.0
O578 O 0.54055 0.09173 0.965 0.0
O579 O 0.5585 0.06286 0.95676 0.0
O580 O 0.53447 0.10084 1.00686 0.0
O581 O 0.56268 0.09598 0.02646 0.0
O582 O 0.58795 0.08306 0.99698 0.0
O583 O 0.59571 0.08618 0.03797 0.0
H584 H 0.55945 1.01519 0.10875 0.0
H585 H 0.52752 1.003 0.13042 0.0
H586 H 0.49252 0.04859 0.09431 0.0
H587 H 0.52566 0.06469 0.07763 0.0
H588 H 0.54382 0.11465 0.9222 0.0
H589 H 0.57121 0.14134 0.90368 0.0
H590 H 0.62363 0.11675 0.94137 0.0
H591 H 0.59677 0.08848 0.95739 0.0
La592 La 0.31638 0.31989 0.28227 0.0
La593 La 0.29396 0.26367 0.2607 0.0
C594 C 0.32541 0.36506 0.28549 0.0
C595 C 0.31018 0.38133 0.29059 0.0
C596 C 0.31149 0.3945 0.31378 0.0
C597 C 0.29698 0.40975 0.31887 0.0
C598 C 0.28142 0.4126 0.30064 0.0
C599 C 0.27875 0.39781 0.27804 0.0
C600 C 0.29306 0.38228 0.27302 0.0
C601 C 0.31159 0.29191 0.31701 0.0
C602 C 0.26404 0.29963 0.27651 0.0
C603 C 0.28392 0.21779 0.25518 0.0
C604 C 0.29861 0.20024 0.2548 0.0
C605 C 0.30452 0.1897 0.23291 0.0
C606 C 0.32157 0.17691 0.23274 0.0
C607 C 0.33293 0.17472 0.25445 0.0
C608 C 0.32615 0.18385 0.2762 0.0
C609 C 0.30903 0.19629 0.27639 0.0
C610 C 0.29917 0.29235 0.22622 0.0
C611 C 0.34605 0.28432 0.26624 0.0
O612 O 0.33098 0.35406 0.30314 0.0
O613 O 0.3207 0.35029 0.26479 0.0
O614 O 0.3195 0.31539 0.32066 0.0
O615 O 0.30714 0.28593 0.29441 0.0
O616 O 0.28123 0.31844 0.27969 0.0
O617 O 0.26508 0.27633 0.27092 0.0
O618 O 0.28442 0.23006 0.23733 0.0
O619 O 0.28419 0.23197 0.27575 0.0
O620 O 0.29054 0.26905 0.2227 0.0
O621 O 0.30346 0.29782 0.24879 0.0
O622 O 0.32936 0.26523 0.26507 0.0
O623 O 0.34452 0.30745 0.27072 0.0
H624 H 0.32408 0.39348 0.32784 0.0
H625 H 0.29907 0.42081 0.33653 0.0
H626 H 0.26691 0.39971 0.26362 0.0
H627 H 0.29109 0.37169 0.25516 0.0
H628 H 0.29664 0.19225 0.21595 0.0
H629 H 0.32651 0.16971 0.21581 0.0
H630 H 0.33451 0.18185 0.29314 0.0
H631 H 0.30462 0.20366 0.29353 0.0
La632 La 0.56761 0.5724 0.03713 0.0
La633 La 0.57681 0.52768 0.01706 0.0
C634 C 0.56766 0.61742 0.04233 0.0
C635 C 0.56811 0.6341 0.02458 0.0
C636 C 0.55559 0.65216 0.02663 0.0
C637 C 0.55639 0.6685 1.01029 0.0
C638 C 0.5695 0.66678 0.9915 0.0
C639 C 0.58149 0.64822 0.98896 0.0
C640 C 0.58085 0.63202 1.00539 0.0
C641 C 0.53467 0.53461 0.03965 0.0
C642 C 0.55485 0.55366 0.97861 0.0
C643 C 0.57811 0.48318 1.01051 0.0
C644 C 0.58021 0.46644 0.02769 0.0
C645 C 0.59787 0.4545 0.02789 0.0
C646 C 0.59972 0.43814 0.04374 0.0
C647 C 0.58372 0.43319 0.0594 0.0
C648 C 0.56665 0.44611 0.05996 0.0
C649 C 0.56498 0.46268 0.04436 0.0
C650 C 0.60792 0.5649 1.011 0.0
C651 C 0.59032 0.5465 0.0756 0.0
O652 O 0.54968 0.6004 0.04064 0.0
O653 O 0.58545 0.60881 0.04584 0.0
O654 O 0.54142 0.55389 0.05622 0.0
O655 O 0.54605 0.53758 0.02243 0.0
O656 O 0.55737 0.57163 0.99745 0.0
O657 O 0.56111 0.53316 0.98206 0.0
O658 O 0.59545 0.5007 1.01074 0.0
O659 O 0.55972 0.49104 1.00922 0.0
O660 O 0.59991 0.54528 0.99529 0.0
O661 O 0.59864 0.563 0.02998 0.0
O662 O 0.58848 0.52914 0.05635 0.0
O663 O 0.58308 0.56663 0.07257 0.0
H664 H 0.54544 0.65383 0.04105 0.0
H665 H 0.54692 0.68264 1.01242 0.0
H666 H 0.59186 0.64674 0.97469 0.0
H667 H 0.59053 0.61808 1.00324 0.0
H668 H 0.61004 0.45753 0.01552 0.0
H669 H 0.61328 0.42877 0.0432 0.0
H670 H 0.55388 0.44256 0.07156 0.0
H671 H 0.5514 0.47204 0.045 0.0
La672 La 0.84254 0.33109 0.27595 0.0
La673 La 0.80364 0.29369 0.28298 0.0
C674 C 0.88043 0.35754 0.28309 0.0
C675 C 0.90204 0.3511 0.28477 0.0
C676 C 0.91638 0.35717 0.26786 0.0
C677 C 0.93758 0.35274 0.27032 0.0
C678 C 0.94463 0.34247 0.28987 0.0
C679 C 0.92967 0.33438 0.30552 0.0
C680 C 0.90847 0.3387 0.30302 0.0
C681 C 0.8209 0.30324 0.23713 0.0
C682 C 0.84858 0.27313 0.28258 0.0
C683 C 0.76512 0.26859 0.27313 0.0
C684 C 0.74463 0.27626 0.26602 0.0
C685 C 0.72811 0.27543 0.28124 0.0
C686 C 0.70875 0.28293 0.27471 0.0
C687 C 0.70568 0.2913 0.25282 0.0
C688 C 0.72246 0.29295 0.23792 0.0
C689 C 0.74179 0.28546 0.24442 0.0
C690 C 0.82705 0.31808 0.32183 0.0
C691 C 0.79757 0.3512 0.27715 0.0
O692 O 0.86888 0.3514 0.26183 0.0
O693 O 0.86856 0.35268 0.30044 0.0
O694 O 0.83049 0.32597 0.23732 0.0
O695 O 0.82513 0.2977 0.25717 0.0
O696 O 0.85759 0.29707 0.28146 0.0
O697 O 0.82655 0.26706 0.28266 0.0
O698 O 0.7744 0.27676 0.2953 0.0
O699 O 0.77947 0.27025 0.25771 0.0
O700 O 0.817 0.29514 0.31978 0.0
O701 O 0.82215 0.32672 0.30337 0.0
O702 O 0.78882 0.32741 0.27818 0.0
O703 O 0.81946 0.35748 0.27676 0.0
H704 H 0.9115 0.36623 0.25335 0.0
H705 H 0.94901 0.35902 0.25807 0.0
H706 H 0.9349 0.32669 0.3209 0.0
H707 H 0.89754 0.33325 0.31602 0.0
H708 H 0.73009 0.26879 0.29809 0.0
H709 H 0.69595 0.28169 0.28649 0.0
H710 H 0.72027 0.29908 0.22082 0.0
H711 H 0.75434 0.28665 0.23233 0.0
La712 La 0.06307 0.56193 0.54049 0.0
La713 La 0.05309 0.57596 0.49 0.0
C714 C 0.06074 0.55883 0.58335 0.0
C715 C 0.04237 0.54482 0.59337 0.0
C716 C 0.04544 0.52505 0.6046 0.0
C717 C 0.02813 0.5122 0.61478 0.0
C718 C 1.00775 0.5193 0.61406 0.0
C719 C 1.00419 0.53762 0.60101 0.0
C720 C 0.0213 0.55022 0.59065 0.0
C721 C 0.06997 0.52867 0.50582 0.0
C722 C 1.01801 0.53958 0.50746 0.0
C723 C 0.05322 0.58884 0.44996 0.0
C724 C 0.0685 0.60795 0.44151 0.0
C725 C 0.06039 0.62218 0.42607 0.0
C726 C 0.07506 0.63635 0.41377 0.0
C727 C 0.09734 0.63487 0.41623 0.0
C728 C 0.10587 0.62706 0.43675 0.0
C729 C 0.09135 0.61178 0.44815 0.0
C730 C 0.03902 0.59968 0.52633 0.0
C731 C 0.10065 0.59587 0.52154 0.0
O732 O 0.07153 0.54566 0.56992 0.0
O733 O 0.05661 0.57754 0.574 0.0
O734 O 0.07269 0.52704 0.52831 0.0
O735 O 0.06369 0.54806 0.50443 0.0
O736 O 0.02792 0.54799 0.52958 0.0
O737 O 0.02705 0.54428 0.48807 0.0
O738 O 0.04191 0.59713 0.46634 0.0
O739 O 0.06094 0.56985 0.45488 0.0
O740 O 0.02839 0.59349 0.50497 0.0
O741 O 0.05721 0.59332 0.52641 0.0
O742 O 0.08763 0.59426 0.50127 0.0
O743 O 0.09446 0.58529 0.53978 0.0
H744 H 0.0614 0.52014 0.60624 0.0
H745 H 0.03137 0.49833 0.62509 0.0
H746 H 0.98881 0.54378 0.60086 0.0
H747 H 1.01811 0.56479 0.58137 0.0
H748 H 0.04276 0.62041 0.42175 0.0
H749 H 0.06839 0.64377 0.39889 0.0
H750 H 0.1233 0.62685 0.43965 0.0
H751 H 0.09797 0.60107 0.46009 0.0
La752 La 0.80059 0.81385 0.28365 0.0
La753 La 0.8405 0.79756 0.28563 0.0
C754 C 0.76293 0.82244 0.29263 0.0
C755 C 0.74669 0.81956 0.31076 0.0
C756 C 0.73697 0.8392 0.31901 0.0
C757 C 0.72025 0.83649 0.33431 0.0
C758 C 0.71241 0.8139 0.34187 0.0
C759 C 0.72262 0.79439 0.33388 0.0
C760 C 0.73946 0.79719 0.31875 0.0
C761 C 0.83541 0.85109 0.27907 0.0
C762 C 0.82601 0.81292 0.33385 0.0
C763 C 0.87901 0.79071 0.27993 0.0
C764 C 0.89356 0.78747 0.26078 0.0
C765 C 0.8996 0.76491 0.25486 0.0
C766 C 0.91561 0.76237 0.23937 0.0
C767 C 0.92666 0.78256 0.22984 0.0
C768 C 0.91977 0.80488 0.23498 0.0
C769 C 0.90342 0.80726 0.25011 0.0
C770 C 0.80586 0.76075 0.29039 0.0
C771 C 0.81458 0.79628 0.23446 0.0
O772 O 0.78176 0.83809 0.29915 0.0
O773 O 0.76568 0.8028 0.27903 0.0
O774 O 0.81571 0.84588 0.26724 0.0
O775 O 0.83496 0.835 0.29306 0.0
O776 O 0.8066 0.80827 0.32084 0.0
O777 O 0.84387 0.81294 0.32328 0.0
O778 O 0.86191 0.77309 0.28016 0.0
O779 O 0.87432 0.81217 0.28531 0.0
O780 O 0.8255 0.76582 0.30234 0.0
O781 O 0.80624 0.77662 0.27629 0.0
O782 O 0.83378 0.79788 0.24712 0.0
O783 O 0.79726 0.8 0.24513 0.0
H784 H 0.74209 0.85672 0.31326 0.0
H785 H 0.7135 0.85227 0.34012 0.0
H786 H 0.71723 0.77646 0.33859 0.0
H787 H 0.74645 0.78158 0.31285 0.0
H788 H 0.89237 0.7493 0.26277 0.0
H789 H 0.91957 0.74455 0.23539 0.0
H790 H 0.92768 0.82105 0.22838 0.0
H791 H 0.89919 0.82496 0.25421 0.0
La792 La 0.82663 0.32709 0.78216 0.0
La793 La 0.7973 0.32785 0.82241 0.0
C794 C 0.84109 0.32349 0.74253 0.0
C795 C 0.84336 0.33829 0.72392 0.0
C796 C 0.86374 0.34243 0.71494 0.0
C797 C 0.86924 0.36149 0.70229 0.0
C798 C 0.85419 0.37625 0.69815 0.0
C799 C 0.83326 0.37127 0.70613 0.0
C800 C 0.82795 0.3525 0.71929 0.0
C801 C 0.85177 0.32216 0.82123 0.0
C802 C 0.81894 0.37694 0.80781 0.0
C803 C 0.78155 0.33333 0.86137 0.0
C804 C 0.77612 0.31931 0.88018 0.0
C805 C 0.75394 0.31401 0.88438 0.0
C806 C 0.74644 0.29509 0.89663 0.0
C807 C 0.76124 0.28183 0.90531 0.0
C808 C 0.78394 0.28898 0.90324 0.0
C809 C 0.79131 0.30741 0.89036 0.0
C810 C 0.77311 0.32976 0.78089 0.0
C811 C 0.80152 0.27802 0.79547 0.0
O812 O 0.85297 0.3348 0.76267 0.0
O813 O 0.82107 0.3124 0.74542 0.0
O814 O 0.85763 0.32404 0.80043 0.0
O815 O 0.83153 0.32446 0.82036 0.0
O816 O 0.82377 0.36489 0.78794 0.0
O817 O 0.81126 0.36596 0.82501 0.0
O818 O 0.76992 0.32317 0.84077 0.0
O819 O 0.8025 0.34152 0.85941 0.0
O820 O 0.76614 0.32989 0.80149 0.0
O821 O 0.79326 0.3287 0.78467 0.0
O822 O 0.79702 0.28935 0.81584 0.0
O823 O 0.81162 0.28939 0.77965 0.0
H824 H 0.87592 0.33186 0.719 0.0
H825 H 0.88539 0.365 0.69614 0.0
H826 H 0.82118 0.38207 0.70249 0.0
H827 H 0.81233 0.3498 0.72667 0.0
H828 H 0.74207 0.32315 0.87646 0.0
H829 H 0.72893 0.29005 0.89813 0.0
H830 H 0.79588 0.27971 0.91075 0.0
H831 H 0.80852 0.31133 0.88729 0.0
La832 La 0.81584 0.81703 0.78388 0.0
La833 La 0.79867 0.76911 0.75933 0.0
C834 C 0.82508 0.8627 0.79664 0.0
C835 C 0.81131 0.88061 0.79841 0.0
C836 C 0.8167 0.90065 0.81714 0.0
C837 C 0.80305 0.91732 0.81957 0.0
C838 C 0.78388 0.9137 0.80344 0.0
C839 C 0.77841 0.8936 0.78472 0.0
C840 C 0.79209 0.87709 0.78218 0.0
C841 C 0.8148 0.78463 0.8144 0.0
C842 C 0.76395 0.79527 0.77742 0.0
C843 C 0.79247 0.7245 0.74117 0.0
C844 C 0.80729 0.70753 0.74176 0.0
C845 C 0.80409 0.68666 0.72404 0.0
C846 C 0.81731 0.66958 0.72601 0.0
C847 C 0.83399 0.67378 0.74538 0.0
C848 C 0.83852 0.69581 0.76164 0.0
C849 C 0.82486 0.71219 0.76026 0.0
C850 C 0.79943 0.80263 0.73078 0.0
C851 C 0.84976 0.78825 0.77117 0.0
O852 O 0.82216 0.84731 0.81167 0.0
O853 O 0.82582 0.85182 0.77491 0.0
O854 O 0.83064 0.80351 0.81449 0.0
O855 O 0.80036 0.78441 0.79697 0.0
O856 O 0.77981 0.81527 0.77944 0.0
O857 O 0.76795 0.7735 0.7711 0.0
O858 O 0.7987 0.74237 0.72949 0.0
O859 O 0.78633 0.73226 0.7618 0.0
O860 O 0.78281 0.78477 0.73099 0.0
O861 O 0.81458 0.80167 0.74675 0.0
O862 O 0.8332 0.76955 0.77019 0.0
O863 O 0.84649 0.81048 0.77333 0.0
H864 H 0.83138 0.90331 0.82987 0.0
H865 H 0.80735 0.93295 0.83397 0.0
H866 H 0.76378 0.89095 0.77189 0.0
H867 H 0.78763 0.86163 0.76761 0.0
H868 H 0.7907 0.68297 0.70953 0.0
H869 H 0.81346 0.6524 0.71358 0.0
H870 H 0.85115 0.69905 0.77692 0.0
H871 H 0.82721 0.72759 0.77461 0.0
La872 La 0.55358 0.54918 0.52215 0.0
La873 La 0.59417 0.57541 0.55138 0.0
C874 C 0.51268 0.53605 0.50954 0.0
C875 C 0.49557 0.55045 0.51061 0.0
C876 C 0.48193 0.55013 0.48949 0.0
C877 C 0.46695 0.56537 0.48929 0.0
C878 C 0.46527 0.58085 0.51031 0.0
C879 C 0.479 0.58149 0.53146 0.0
C880 C 0.49429 0.56655 0.53157 0.0
C881 C 0.58413 0.54898 0.48998 0.0
C882 C 0.56868 0.60787 0.52514 0.0
C883 C 0.63497 0.58766 0.56578 0.0
C884 C 0.65146 0.57283 0.56954 0.0
C885 C 0.66865 0.58125 0.58843 0.0
C886 C 0.68583 0.56893 0.59064 0.0
C887 C 0.68593 0.54803 0.57402 0.0
C888 C 0.66764 0.53818 0.55656 0.0
C889 C 0.65044 0.55052 0.55431 0.0
C890 C 0.56217 0.57513 0.58235 0.0
C891 C 0.57947 0.51723 0.54943 0.0
O892 O 0.52701 0.54225 0.49495 0.0
O893 O 0.52215 0.53264 0.5299 0.0
O894 O 0.56358 0.53765 0.48684 0.0
O895 O 0.58784 0.55877 0.51276 0.0
O896 O 0.55239 0.58803 0.52 0.0
O897 O 0.58773 0.60715 0.53684 0.0
O898 O 0.61978 0.58608 0.58011 0.0
O899 O 0.6267 0.58683 0.54364 0.0
O900 O 0.58263 0.58686 0.58675 0.0
O901 O 0.56012 0.566 0.55972 0.0
O902 O 0.59491 0.53761 0.55511 0.0
O903 O 0.56094 0.51676 0.53589 0.0
H904 H 0.48305 0.53823 0.47307 0.0
H905 H 0.45623 0.56458 0.47293 0.0
H906 H 0.47775 0.59341 0.54783 0.0
H907 H 0.5051 0.56768 0.54794 0.0
H908 H 0.66941 0.59811 0.60064 0.0
H909 H 0.7 0.57693 0.60399 0.0
H910 H 0.66767 0.52229 0.54331 0.0
H911 H 0.63705 0.54339 0.53987 0.0
La912 La 0.08388 0.55313 0.03929 0.0
La913 La 0.03448 0.55041 0.04744 0.0
C914 C 0.12306 0.54635 0.03923 0.0
C915 C 0.13608 0.52671 0.03507 0.0
C916 C 0.14267 0.51991 1.01235 0.0
C917 C 0.15778 0.50449 1.0093 0.0
C918 C 0.16702 0.49559 0.02891 0.0
C919 C 0.15966 0.50154 0.05136 0.0
C920 C 0.1445 0.51684 0.05439 0.0
C921 C 0.05519 0.55166 1.00221 0.0
C922 C 0.05046 0.50118 0.03697 0.0
C923 C 0.99497 0.55514 0.04542 0.0
C924 C 0.98265 0.575 0.04922 0.0
C925 C 0.96865 0.57535 0.06734 0.0
C926 C 0.95539 0.59265 0.06994 0.0
C927 C 0.95607 0.61007 0.0546 0.0
C928 C 0.97056 0.61024 0.03699 0.0
C929 C 0.98364 0.59282 0.03423 0.0
C930 C 0.06135 0.54961 0.08408 0.0
C931 C 0.06895 0.60268 0.04997 0.0
O932 O 0.11143 0.55093 0.02069 0.0
O933 O 0.11287 0.54812 0.05848 0.0
O934 O 0.0756 0.56351 1.00413 0.0
O935 O 0.05238 0.54057 0.01934 0.0
O936 O 0.07107 0.51429 0.04172 0.0
O937 O 0.03327 0.51173 0.03506 0.0
O938 O 1.00592 0.55075 0.06452 0.0
O939 O 1.00599 0.55396 0.02675 0.0
O940 O 0.04096 0.53762 0.0811 0.0
O941 O 0.06556 0.56209 0.06796 0.0
O942 O 0.0481 0.58982 0.04679 0.0
O943 O 0.08625 0.59221 0.05092 0.0
H944 H 0.1368 0.52725 0.99702 0.0
H945 H 0.16298 0.5005 0.99173 0.0
H946 H 0.16594 0.49469 0.06682 0.0
H947 H 0.13996 0.52161 0.07216 0.0
H948 H 0.96759 0.56185 0.07917 0.0
H949 H 0.94442 0.59225 0.08373 0.0
H950 H 0.97119 0.62335 0.02479 0.0
H951 H 0.99417 0.59305 0.02004 0.0
H952 H 1.01105 0.20679 0.97078 0.0
H953 H 0.07667 0.24717 0.96425 0.0
H954 H 0.09315 0.2174 0.98366 0.0
H955 H 0.02709 0.19098 0.0301 0.0
H956 H 1.00852 0.16126 0.02387 0.0
H957 H 1.0018 0.18612 1.01016 0.0
H958 H 0.99801 0.15959 0.96812 0.0
H959 H 1.00464 0.13472 0.98178 0.0
H960 H 0.02073 0.14629 0.95939 0.0
H961 H 0.10266 0.18275 1.00358 0.0
H962 H 0.10438 0.14527 0.02056 0.0
H963 H 0.0327 0.1262 1.01409 0.0
C964 C 0.02887 0.20925 0.97343 0.0
C965 C 0.04262 0.22923 0.9658 0.0
C966 C 0.06586 0.23199 0.96986 0.0
C967 C 0.07537 0.21518 0.98095 0.0
C968 C 0.06147 0.19567 0.98828 0.0
C969 C 0.0387 0.19265 0.98479 0.0
C970 C 0.02762 0.17006 0.99451 0.0
C971 C 1.01553 0.17755 0.01593 0.0
C972 C 1.01182 0.15156 0.97476 0.0
C973 C 0.04756 0.16013 1.00272 0.0
C974 C 0.06695 0.17558 0.99953 0.0
C975 C 0.08754 0.17059 1.00613 0.0
C976 C 0.08834 0.1492 0.0159 0.0
C977 C 0.06872 0.13256 0.01871 0.0
C978 C 0.04805 0.13837 1.01211 0.0
H979 H 0.17323 0.86458 0.19874 0.0
H980 H 0.15875 0.78894 0.16306 0.0
H981 H 0.18938 0.78092 0.1894 0.0
H982 H 0.23389 0.87008 0.20436 0.0
H983 H 0.23891 0.89052 0.23273 0.0
H984 H 0.21555 0.89034 0.21141 0.0
H985 H 0.18928 0.88201 0.24343 0.0
H986 H 0.21248 0.88215 0.26488 0.0
H987 H 0.18953 0.85599 0.25837 0.0
H988 H 0.22179 0.78072 0.22035 0.0
H989 H 0.25341 0.7887 0.25237 0.0
H990 H 0.24868 0.86479 0.26779 0.0
C991 C 0.17659 0.84637 0.19647 0.0
C992 C 0.16345 0.82736 0.17864 0.0
C993 C 0.16861 0.80387 0.17626 0.0
C994 C 0.18599 0.7991 0.19129 0.0
C995 C 0.19873 0.81814 0.20852 0.0
C996 C 0.19447 0.84143 0.21099 0.0
C997 C 0.21141 0.85882 0.23027 0.0
C998 C 0.22579 0.87862 0.21903 0.0
C999 C 0.19998 0.87042 0.25044 0.0
C1000 C 0.22509 0.84145 0.2391 0.0
C1001 C 0.21763 0.81812 0.22604 0.0
C1002 C 0.22775 0.79898 0.23059 0.0
C1003 C 0.24582 0.80368 0.24887 0.0
C1004 C 0.25371 0.82732 0.26283 0.0
C1005 C 0.24309 0.84644 0.25764 0.0
H1006 H 0.56334 0.87104 0.47008 0.0
H1007 H 0.49703 0.8397 0.48405 0.0
H1008 H 0.49425 0.8801 0.50555 0.0
H1009 H 0.57985 0.91139 0.52797 0.0
H1010 H 0.5959 0.93573 0.51549 0.0
H1011 H 0.59279 0.90431 0.50143 0.0
H1012 H 0.57751 0.91495 0.46123 0.0
H1013 H 0.58048 0.94633 0.47526 0.0
H1014 H 0.55398 0.92909 0.46025 0.0
H1015 H 0.49779 0.92425 0.52316 0.0
H1016 H 0.5086 0.96872 0.53869 0.0
H1017 H 0.57344 0.97053 0.51537 0.0
C1018 C 0.54836 0.87266 0.47794 0.0
C1019 C 0.53041 0.85232 0.47558 0.0
C1020 C 0.51104 0.85505 0.48598 0.0
C1021 C 0.50926 0.87792 0.49806 0.0
C1022 C 0.52717 0.89768 0.49992 0.0
C1023 C 0.54648 0.89523 0.49045 0.0
C1024 C 0.56335 0.91935 0.49518 0.0
C1025 C 0.5842 0.91757 0.51096 0.0
C1026 C 0.56915 0.92793 0.47157 0.0
C1027 C 0.55043 0.9357 0.50864 0.0
C1028 C 0.52953 0.92292 0.51098 0.0
C1029 C 0.51424 0.93439 0.52181 0.0
C1030 C 0.52053 0.95961 0.53059 0.0
C1031 C 0.54198 0.97295 0.52865 0.0
C1032 C 0.5571 0.96073 0.51764 0.0
H1033 H 0.53722 0.27623 0.66386 0.0
H1034 H 0.54874 0.35522 0.6691 0.0
H1035 H 0.51391 0.35518 0.68678 0.0
H1036 H 0.4766 0.26393 0.64964 0.0
H1037 H 0.47143 0.23997 0.66749 0.0
H1038 H 0.49673 0.24558 0.65401 0.0
H1039 H 0.51932 0.25101 0.69566 0.0
H1040 H 0.49409 0.24552 0.70925 0.0
H1041 H 0.51484 0.27325 0.71987 0.0
H1042 H 0.47932 0.34762 0.70381 0.0
H1043 H 0.44595 0.33318 0.72212 0.0
H1044 H 0.45555 0.25861 0.70813 0.0
C1045 C 0.53222 0.2934 0.66876 0.0
C1046 C 0.54547 0.31585 0.66529 0.0
C1047 C 0.5387 0.338 0.67177 0.0
C1048 C 0.51897 0.3381 0.6817 0.0
C1049 C 0.50622 0.31585 0.68503 0.0
C1050 C 0.51245 0.29384 0.67893 0.0
C1051 C 0.49571 0.2728 0.68538 0.0
C1052 C 0.48445 0.25449 0.66278 0.0
C1053 C 0.50665 0.2599 0.70364 0.0
C1054 C 0.47947 0.2867 0.69645 0.0
C1055 C 0.48588 0.31142 0.69558 0.0
C1056 C 0.47395 0.32831 0.70447 0.0
C1057 C 0.45492 0.31988 0.71469 0.0
C1058 C 0.44793 0.29477 0.71619 0.0
C1059 C 0.46043 0.27788 0.70701 0.0
H1060 H 0.03641 0.80962 0.60555 0.0
H1061 H 0.03421 0.85446 0.67386 0.0
H1062 H 0.05483 0.8907 0.65978 0.0
H1063 H 0.09252 0.84319 0.59598 0.0
H1064 H 0.08482 0.83972 0.5641 0.0
H1065 H 0.0725 0.81654 0.58052 0.0
H1066 H 0.03343 0.82094 0.56467 0.0
H1067 H 0.04554 0.84384 0.54804 0.0
H1068 H 0.0267 0.85075 0.56908 0.0
H1069 H 0.07159 0.92222 0.63756 0.0
H1070 H 0.08038 0.94827 0.60696 0.0
H1071 H 0.0724 0.8835 0.55289 0.0
C1072 C 0.04035 0.82708 0.61755 0.0
C1073 C 0.03363 0.82941 0.64071 0.0
C1074 C 0.03914 0.85241 0.65599 0.0
C1075 C 0.05107 0.87298 0.64827 0.0
C1076 C 0.05759 0.87009 0.62539 0.0
C1077 C 0.05241 0.84776 0.61019 0.0
C1078 C 0.05976 0.85011 0.58577 0.0
C1079 C 0.07852 0.83659 0.58134 0.0
C1080 C 0.04019 0.84089 0.56572 0.0
C1081 C 0.06821 0.87763 0.58906 0.0
C1082 C 0.06755 0.88859 0.61235 0.0
C1083 C 0.07262 0.91392 0.6194 0.0
C1084 C 0.07755 0.92854 0.60195 0.0
C1085 C 0.07718 0.91774 0.57781 0.0
C1086 C 0.07329 0.89203 0.57141 0.0
H1087 H 0.56228 0.87701 0.86743 0.0
H1088 H 0.57085 0.80377 0.84212 0.0
H1089 H 0.53507 0.79478 0.81586 0.0
H1090 H 0.50402 0.86262 0.86824 0.0
H1091 H 0.49994 0.89016 0.8577 0.0
H1092 H 0.52578 0.88995 0.87454 0.0
H1093 H 0.54646 0.90468 0.83983 0.0
H1094 H 0.52058 0.90432 0.82262 0.0
H1095 H 0.53939 0.88696 0.81005 0.0
H1096 H 0.49787 0.79373 0.79397 0.0
H1097 H 0.46137 0.80061 0.7785 0.0
H1098 H 0.47959 0.87555 0.81606 0.0
C1099 C 0.55654 0.85916 0.85624 0.0
C1100 C 0.56894 0.84105 0.85628 0.0
C1101 C 0.56135 0.81783 0.84171 0.0
C1102 C 0.54119 0.81262 0.8269 0.0
C1103 C 0.52943 0.83113 0.82673 0.0
C1104 C 0.53687 0.85395 0.84097 0.0
C1105 C 0.52137 0.87076 0.83737 0.0
C1106 C 0.51223 0.87882 0.86086 0.0
C1107 C 0.53263 0.89299 0.82683 0.0
C1108 C 0.50377 0.85365 0.81931 0.0
C1109 C 0.50866 0.83088 0.8133 0.0
C1110 C 0.49401 0.8116 0.79811 0.0
C1111 C 0.47353 0.81564 0.78929 0.0
C1112 C 0.46833 0.83869 0.79587 0.0
C1113 C 0.48372 0.858 0.81049 0.0
H1114 H 0.54077 0.21896 0.12383 0.0
H1115 H 0.47627 0.17835 0.13388 0.0
H1116 H 0.48281 0.1414 0.10847 0.0
H1117 H 0.53873 0.19394 0.06338 0.0
H1118 H 0.56772 0.19358 0.06484 0.0
H1119 H 0.5585 0.21577 0.0853 0.0
H1120 H 0.57734 0.20083 0.12118 0.0
H1121 H 0.58648 0.1784 0.10081 0.0
H1122 H 0.57036 0.16887 0.12398 0.0
H1123 H 0.49212 0.11509 0.0744 0.0
H1124 H 0.50686 0.09625 0.03946 0.0
H1125 H 0.56925 0.14803 0.05858 0.0
C1126 C 0.52825 0.20206 0.12085 0.0
C1127 C 0.50801 0.20099 0.13026 0.0
C1128 C 0.49175 0.17908 0.12636 0.0
C1129 C 0.49542 0.15819 0.11221 0.0
C1130 C 0.51555 0.15984 0.10282 0.0
C1131 C 0.53185 0.18106 0.10724 0.0
C1132 C 0.55135 0.17845 0.09374 0.0
C1133 C 0.55424 0.1965 0.07576 0.0
C1134 C 0.57264 0.18182 0.11097 0.0
C1135 C 0.54348 0.1523 0.08094 0.0
C1136 C 0.52244 0.1423 0.08591 0.0
C1137 C 0.5092 0.12147 0.07177 0.0
C1138 C 0.51778 0.11048 0.05229 0.0
C1139 C 0.53986 0.11885 0.04839 0.0
C1140 C 0.55299 0.14008 0.06278 0.0
H1141 H 0.17534 0.30505 0.36551 0.0
H1142 H 0.17745 0.37884 0.3517 0.0
H1143 H 0.2003 0.37186 0.3189 0.0
H1144 H 0.23153 0.30427 0.35644 0.0
H1145 H 0.22517 0.27239 0.34279 0.0
H1146 H 0.20832 0.28337 0.36419 0.0
H1147 H 0.17364 0.26612 0.33281 0.0
H1148 H 0.19059 0.25571 0.31111 0.0
H1149 H 0.17283 0.27591 0.30399 0.0
H1150 H 0.2221 0.35725 0.2884 0.0
H1151 H 0.24912 0.33919 0.26695 0.0
H1152 H 0.23391 0.27493 0.30106 0.0
C1153 C 0.18107 0.31976 0.35576 0.0
C1154 C 0.17528 0.34255 0.36097 0.0
C1155 C 0.18239 0.36147 0.34794 0.0
C1156 C 0.19493 0.35751 0.32915 0.0
C1157 C 0.19994 0.33453 0.32388 0.0
C1158 C 0.19376 0.31616 0.33713 0.0
C1159 C 0.20269 0.29382 0.32881 0.0
C1160 C 0.21784 0.28815 0.34926 0.0
C1161 C 0.1838 0.27158 0.31857 0.0
C1162 C 0.21547 0.30285 0.30924 0.0
C1163 C 0.213 0.32608 0.30627 0.0
C1164 C 0.2241 0.33902 0.29035 0.0
C1165 C 0.23928 0.3286 0.2782 0.0
C1166 C 0.24331 0.30573 0.28239 0.0
C1167 C 0.23057 0.29214 0.29715 0.0
H1168 H 1.00675 0.05216 0.20999 0.0
H1169 H 0.96725 0.1046 0.19574 0.0
H1170 H 0.98436 0.10951 0.15865 0.0
H1171 H 0.05714 0.08003 0.18543 0.0
H1172 H 0.06241 0.05139 0.17131 0.0
H1173 H 0.04787 0.05236 0.19738 0.0
H1174 H 1.01555 1.01892 0.17391 0.0
H1175 H 0.02998 1.01798 0.14773 0.0
H1176 H 1.00244 0.02361 0.14588 0.0
H1177 H 1.00587 0.10826 0.11993 0.0
H1178 H 0.02901 0.10179 0.08721 0.0
H1179 H 0.05605 0.05034 0.12381 0.0
C1180 C 1.00168 0.06484 0.19923 0.0
C1181 C 0.98501 0.07803 0.20693 0.0
C1182 C 0.97942 0.09398 0.1912 0.0
C1183 C 0.98928 0.09696 0.16967 0.0
C1184 C 1.00507 0.0836 0.16249 0.0
C1185 C 1.01125 0.06772 0.1769 0.0
C1186 C 0.02812 0.05491 0.16431 0.0
C1187 C 0.0502 0.05998 0.18058 0.0
C1188 C 1.01846 0.0272 0.15758 0.0
C1189 C 0.03099 0.06651 0.14122 0.0
C1190 C 1.0172 0.08281 0.14044 0.0
C1191 C 1.01645 0.09529 0.12066 0.0
C1192 C 0.0297 0.09127 0.10163 0.0
C1193 C 0.04437 0.07489 0.10148 0.0
C1194 C 0.0449 0.06262 0.12227 0.0
H1195 H 0.2813 0.72265 0.50933 0.0
H1196 H 0.28515 0.65719 0.4608 0.0
H1197 H 0.2661 0.67199 0.42757 0.0
H1198 H 0.2266 0.72931 0.48116 0.0
H1199 H 0.23543 0.76226 0.48676 0.0
H1200 H 0.24585 0.74443 0.50719 0.0
H1201 H 0.28617 0.76439 0.50203 0.0
H1202 H 0.27592 0.78249 0.4821 0.0
H1203 H 0.29435 0.76322 0.47229 0.0
H1204 H 0.2538 0.69698 0.39947 0.0
H1205 H 0.25173 0.73158 0.37805 0.0
H1206 H 0.25275 0.77901 0.44533 0.0
C1207 C 0.27802 0.71134 0.49172 0.0
C1208 C 0.28479 0.68903 0.48731 0.0
C1209 C 0.28014 0.67453 0.46425 0.0
C1210 C 0.26904 0.68256 0.44549 0.0
C1211 C 0.26235 0.70468 0.45051 0.0
C1212 C 0.26667 0.71882 0.4731 0.0
C1213 C 0.26034 0.74318 0.47343 0.0
C1214 C 0.24089 0.74487 0.48799 0.0
C1215 C 0.28038 0.76455 0.48298 0.0
C1216 C 0.25337 0.74142 0.44703 0.0
C1217 C 0.25401 0.71877 0.43417 0.0
C1218 C 0.25226 0.71438 0.40923 0.0
C1219 C 0.25103 0.734 0.39722 0.0
C1220 C 0.25139 0.75734 0.4103 0.0
C1221 C 0.25139 0.76085 0.43521 0.0
H1222 H 0.66162 0.04249 0.67757 0.0
H1223 H 0.64613 0.10568 0.72006 0.0
H1224 H 0.6195 0.1092 0.6866 0.0
H1225 H 0.65204 0.06099 0.61667 0.0
H1226 H 0.63942 0.0298 0.60332 0.0
H1227 H 0.66113 0.036 0.62803 0.0
H1228 H 0.63524 1.00829 0.65109 0.0
H1229 H 0.61327 1.00252 0.6268 0.0
H1230 H 0.60885 1.01509 0.65657 0.0
H1231 H 0.59093 0.1017 0.65332 0.0
H1232 H 0.56268 0.08544 0.61818 0.0
H1233 H 0.59522 0.02586 0.59793 0.0
C1234 C 0.65305 0.05744 0.67926 0.0
C1235 C 0.65538 0.07378 0.70079 0.0
C1236 C 0.64398 0.09299 0.70332 0.0
C1237 C 0.62913 0.09525 0.68449 0.0
C1238 C 0.62611 0.078 0.66372 0.0
C1239 C 0.63782 0.05958 0.6608 0.0
C1240 C 0.62911 0.04141 0.63816 0.0
C1241 C 0.64647 0.04212 0.6205 0.0
C1242 C 0.62114 1.0153 0.6435 0.0
C1243 C 0.61004 0.0519 0.62954 0.0
C1244 C 0.60886 0.07317 0.6444 0.0
C1245 C 0.59178 0.08533 0.64123 0.0
C1246 C 0.57572 0.07581 0.62172 0.0
C1247 C 0.5771 0.05446 0.60622 0.0
C1248 C 0.59415 0.04218 0.61002 0.0
H1249 H 0.31567 0.38671 0.96345 0.0
H1250 H 0.35822 0.34444 0.99472 0.0
H1251 H 0.36147 0.32361 0.95418 0.0
H1252 H 0.28644 0.33641 0.91551 0.0
H1253 H 0.28412 0.35658 0.89405 0.0
H1254 H 0.28478 0.3677 0.92556 0.0
H1255 H 0.31801 0.40293 0.92322 0.0
H1256 H 0.31767 0.3917 0.89181 0.0
H1257 H 0.34259 0.39569 0.91214 0.0
H1258 H 0.36237 0.30968 0.90997 0.0
H1259 H 0.3572 0.30002 0.86568 0.0
H1260 H 0.31223 0.34944 0.86322 0.0
C1261 C 0.32553 0.37294 0.96174 0.0
C1262 C 0.33683 0.3673 0.98223 0.0
C1263 C 0.34941 0.34902 0.97928 0.0
C1264 C 0.35142 0.33716 0.95632 0.0
C1265 C 0.34041 0.34344 0.93646 0.0
C1266 C 0.32734 0.36054 0.93894 0.0
C1267 C 0.31692 0.36357 0.91467 0.0
C1268 C 0.29156 0.35559 0.91232 0.0
C1269 C 0.32424 0.39005 0.91021 0.0
C1270 C 0.32655 0.34594 0.89817 0.0
C1271 C 0.34018 0.33463 0.91107 0.0
C1272 C 0.35151 0.31821 0.8997 0.0
C1273 C 0.34855 0.31292 0.87452 0.0
C1274 C 0.33417 0.32379 0.86093 0.0
C1275 C 0.32313 0.34058 0.87305 0.0
H1276 H 0.97889 0.0403 0.34586 0.0
H1277 H 1.00844 0.11672 0.34646 0.0
H1278 H 0.03083 0.11797 0.38513 0.0
H1279 H 0.97693 0.04149 0.40943 0.0
H1280 H 0.98562 1.01308 0.41069 0.0
H1281 H 0.97164 1.01795 0.3832 0.0
H1282 H 1.00416 1.00893 0.36084 0.0
H1283 H 1.01825 1.00411 0.38832 0.0
H1284 H 0.0318 0.0263 0.37162 0.0
H1285 H 0.04921 0.11181 0.42629 0.0
H1286 H 0.06323 0.09864 0.46303 0.0
H1287 H 0.02549 0.02466 0.43679 0.0
C1288 C 0.99008 0.05737 0.35407 0.0
C1289 C 0.99132 0.07865 0.34244 0.0
C1290 C 1.00671 0.10017 0.35428 0.0
C1291 C 1.01963 0.10103 0.37657 0.0
C1292 C 1.01793 0.08001 0.38745 0.0
C1293 C 1.00381 0.05835 0.37631 0.0
C1294 C 1.00612 0.0381 0.39148 0.0
C1295 C 0.98374 0.027 0.39915 0.0
C1296 C 1.01564 1.01817 0.37722 0.0
C1297 C 0.02274 0.05196 0.41348 0.0
C1298 C 0.02935 0.07615 0.41052 0.0
C1299 C 0.04408 0.09284 0.42842 0.0
C1300 C 0.05205 0.08507 0.44961 0.0
C1301 C 0.04592 0.06046 0.45376 0.0
C1302 C 0.03102 0.04361 0.4348 0.0
H1303 H 0.31314 0.73638 0.60319 0.0
H1304 H 0.29383 0.66839 0.63082 0.0
H1305 H 0.28999 0.69196 0.66962 0.0
H1306 H 0.34646 0.76884 0.65377 0.0
H1307 H 0.33919 0.7979 0.65203 0.0
H1308 H 0.33718 0.77595 0.62517 0.0
H1309 H 0.2959 0.77689 0.61509 0.0
H1310 H 0.29785 0.79909 0.64189 0.0
H1311 H 0.27708 0.77096 0.63698 0.0
H1312 H 0.29485 0.72103 0.70545 0.0
H1313 H 0.30654 0.75492 0.73831 0.0
H1314 H 0.31939 0.80611 0.68852 0.0
C1315 C 0.3079 0.72649 0.61738 0.0
C1316 C 0.30394 0.70068 0.61432 0.0
C1317 C 0.29714 0.68822 0.63308 0.0
C1318 C 0.29465 0.7014 0.65497 0.0
C1319 C 0.2988 0.72684 0.65746 0.0
C1320 C 0.30521 0.73935 0.63928 0.0
C1321 C 0.31074 0.76683 0.64758 0.0
C1322 C 0.33482 0.77803 0.64446 0.0
C1323 C 0.29441 0.77916 0.63461 0.0
C1324 C 0.30749 0.76769 0.6737 0.0
C1325 C 0.30031 0.7443 0.67868 0.0
C1326 C 0.29923 0.73954 0.70175 0.0
C1327 C 0.30568 0.75915 0.72036 0.0
C1328 C 0.31233 0.78344 0.71591 0.0
C1329 C 0.31323 0.78787 0.69225 0.0
H1330 H 0.65506 0.06008 0.82784 0.0
H1331 H 0.70638 0.12543 0.83107 0.0
H1332 H 0.68698 0.14874 0.85924 0.0
H1333 H 0.61078 0.08784 0.82462 0.0
H1334 H 0.59486 0.06929 0.84297 0.0
H1335 H 0.61441 0.05717 0.82596 0.0
H1336 H 0.63472 0.04821 0.86458 0.0
H1337 H 0.61462 0.05932 0.8815 0.0
H1338 H 0.64368 0.07239 0.89011 0.0
H1339 H 0.66139 0.16414 0.88764 0.0
H1340 H 0.63298 0.16904 0.91519 0.0
H1341 H 0.59653 0.09536 0.88575 0.0
C1342 C 0.66262 0.07905 0.83523 0.0
C1343 C 0.68219 0.09096 0.82782 0.0
C1344 C 0.69159 0.11591 0.83728 0.0
C1345 C 0.6805 0.12937 0.85284 0.0
C1346 C 0.66027 0.1174 0.8585 0.0
C1347 C 0.65163 0.09272 0.85018 0.0
C1348 C 0.62945 0.08406 0.85805 0.0
C1349 C 0.61132 0.07402 0.8366 0.0
C1350 C 0.63069 0.06488 0.87455 0.0
C1351 C 0.62659 0.10788 0.87165 0.0
C1352 C 0.64464 0.1269 0.87228 0.0
C1353 C 0.64687 0.14965 0.88685 0.0
C1354 C 0.63069 0.15245 0.90212 0.0
C1355 C 0.61246 0.13288 0.90158 0.0
C1356 C 0.60991 0.11092 0.88541 0.0
H1357 H 0.31914 0.39371 0.13537 0.0
H1358 H 0.33683 0.33548 0.08733 0.0
H1359 H 0.33107 0.30852 0.1174 0.0
H1360 H 0.34364 0.38119 0.19125 0.0
H1361 H 0.32142 0.38615 0.20837 0.0
H1362 H 0.32657 0.40178 0.18326 0.0
H1363 H 0.28622 0.38416 0.16399 0.0
H1364 H 0.28088 0.36874 0.18919 0.0
H1365 H 0.27543 0.35151 0.15916 0.0
H1366 H 0.32514 0.28774 0.15206 0.0
H1367 H 0.3159 0.27222 0.18876 0.0
H1368 H 0.2999 0.34137 0.21701 0.0
C1369 C 0.32192 0.37533 0.1313 0.0
C1370 C 0.3289 0.36705 0.10878 0.0
C1371 C 0.33179 0.3426 0.10423 0.0
C1372 C 0.32853 0.32702 0.12131 0.0
C1373 C 0.32205 0.33568 0.14323 0.0
C1374 C 0.31836 0.35908 0.14832 0.0
C1375 C 0.31059 0.36288 0.1733 0.0
C1376 C 0.32651 0.38428 0.19004 0.0
C1377 C 0.28687 0.36708 0.17129 0.0
C1378 C 0.31133 0.3383 0.18161 0.0
C1379 C 0.31795 0.32309 0.16364 0.0
C1380 C 0.31991 0.29948 0.16622 0.0
C1381 C 0.31466 0.29083 0.18736 0.0
C1382 C 0.30744 0.30543 0.20626 0.0
C1383 C 0.30589 0.32979 0.20335 0.0
H1384 H 0.29499 1.00515 0.04744 0.0
H1385 H 0.25336 0.94574 0.99554 0.0
H1386 H 0.22034 0.95588 1.01128 0.0
H1387 H 0.25772 0.99952 0.09606 0.0
H1388 H 0.26296 0.0322 0.10576 0.0
H1389 H 0.2842 1.0184 0.0936 0.0
H1390 H 0.2875 0.04676 0.06171 0.0
H1391 H 0.2668 0.06107 0.07409 0.0
H1392 H 0.26307 0.048 0.04267 0.0
H1393 H 0.19244 0.97179 0.03021 0.0
H1394 H 0.16951 1.0007 0.04293 0.0
H1395 H 0.22777 0.0526 0.08089 0.0
C1396 C 0.27886 0.99446 0.03938 0.0
C1397 C 0.27654 0.9745 0.02048 0.0
C1398 C 0.25535 0.96093 1.01019 0.0
C1399 C 0.23657 0.96624 0.0193 0.0
C1400 C 0.2393 0.98519 0.03862 0.0
C1401 C 0.25977 0.99963 0.04819 0.0
C1402 C 0.25752 0.02091 0.06674 0.0
C1403 C 0.26611 1.01755 0.09203 0.0
C1404 C 0.2694 0.04564 0.06091 0.0
C1405 C 0.23253 1.0176 0.06379 0.0
C1406 C 0.22255 0.99582 0.04881 0.0
C1407 C 0.1999 0.98889 0.04198 0.0
C1408 C 0.18707 1.00548 0.04912 0.0
C1409 C 0.19709 0.02894 0.06228 0.0
C1410 C 0.21987 0.03467 0.07086 0.0
H1411 H 0.72621 0.66485 0.04386 0.0
H1412 H 0.7338 0.64676 0.96862 0.0
H1413 H 0.69718 0.61849 0.96173 0.0
H1414 H 0.69949 0.60154 0.04865 0.0
H1415 H 0.68131 0.61045 0.06962 0.0
H1416 H 0.7078 0.63029 0.06901 0.0
H1417 H 0.68866 0.66576 0.06269 0.0
H1418 H 0.66208 0.64608 0.06328 0.0
H1419 H 0.66714 0.66142 0.03797 0.0
H1420 H 0.65993 0.59339 0.96202 0.0
H1421 H 0.62469 0.56913 0.96959 0.0
H1422 H 0.63973 0.59936 0.04552 0.0
C1423 C 0.72002 0.65498 0.02593 0.0
C1424 C 0.73286 0.65829 1.00661 0.0
C1425 C 0.72438 0.64464 0.9836 0.0
C1426 C 0.70351 0.62855 0.97953 0.0
C1427 C 0.69127 0.62568 0.99874 0.0
C1428 C 0.69924 0.6381 0.02163 0.0
C1429 C 0.68287 0.63018 0.03915 0.0
C1430 C 0.6935 0.61735 0.05771 0.0
C1431 C 0.6747 0.65218 0.0515 0.0
C1432 C 0.66416 0.61206 0.02229 0.0
C1433 C 0.66965 0.60997 0.99912 0.0
C1434 C 0.65552 0.59475 0.98009 0.0
C1435 C 0.6354 0.58099 0.98465 0.0
C1436 C 0.62913 0.58208 1.00813 0.0
C1437 C 0.6438 0.59811 0.02731 0.0
H1438 H 0.75582 0.48615 0.27774 0.0
H1439 H 0.69226 0.44712 0.29225 0.0
H1440 H 0.70648 0.40927 0.2906 0.0
H1441 H 0.76572 0.43211 0.23542 0.0
H1442 H 0.79516 0.43887 0.2442 0.0
H1443 H 0.78035 0.46332 0.24615 0.0
H1444 H 0.79555 0.47669 0.29081 0.0
H1445 H 0.81037 0.45228 0.28898 0.0
H1446 H 0.79138 0.45473 0.31095 0.0
H1447 H 0.72801 0.37315 0.28764 0.0
H1448 H 0.75338 0.34484 0.28441 0.0
H1449 H 0.8052 0.4038 0.27166 0.0
C1450 C 0.74476 0.46973 0.28069 0.0
C1451 C 0.72226 0.47091 0.28549 0.0
C1452 C 0.70919 0.448 0.2887 0.0
C1453 C 0.71732 0.4259 0.28776 0.0
C1454 C 0.73916 0.42544 0.28322 0.0
C1455 C 0.75275 0.44684 0.27951 0.0
C1456 C 0.77546 0.44067 0.27427 0.0
C1457 C 0.77942 0.44396 0.24849 0.0
C1458 C 0.79432 0.45708 0.29233 0.0
C1459 C 0.77296 0.41308 0.27695 0.0
C1460 C 0.75154 0.40473 0.28162 0.0
C1461 C 0.74476 0.37997 0.28414 0.0
C1462 C 0.75965 0.36361 0.28221 0.0
C1463 C 0.78214 0.37088 0.27794 0.0
C1464 C 0.78852 0.39663 0.27516 0.0
H1465 H 0.89909 0.49667 0.54346 0.0
H1466 H 0.89611 0.42755 0.49712 0.0
H1467 H 0.93433 0.44226 0.48906 0.0
H1468 H 0.92567 0.53427 0.51082 0.0
H1469 H 0.94436 0.5556 0.53415 0.0
H1470 H 0.91851 0.53892 0.54098 0.0
H1471 H 0.93793 0.51994 0.57382 0.0
H1472 H 0.96306 0.53937 0.5684 0.0
H1473 H 0.9613 0.50688 0.56705 0.0
H1474 H 0.96781 0.46719 0.47855 0.0
H1475 H 1.00251 0.49702 0.47683 0.0
H1476 H 0.98509 0.54851 0.53249 0.0
C1477 C 0.90693 0.48443 0.53239 0.0
C1478 C 0.89504 0.46134 0.52052 0.0
C1479 C 0.90532 0.4454 0.50624 0.0
C1480 C 0.92685 0.4536 0.50146 0.0
C1481 C 0.93767 0.47727 0.51188 0.0
C1482 C 0.92861 0.49205 0.52803 0.0
C1483 C 0.94364 0.51698 0.53609 0.0
C1484 C 0.93236 0.53764 0.53012 0.0
C1485 C 0.95199 0.52095 0.56296 0.0
C1486 C 0.96192 0.51417 0.52093 0.0
C1487 C 0.95795 0.49127 0.50684 0.0
C1488 C 0.97168 0.4849 0.49007 0.0
C1489 C 0.99103 0.5019 0.48897 0.0
C1490 C 0.99618 0.5244 0.50488 0.0
C1491 C 0.98132 0.53102 0.5205 0.0
H1492 H 0.38565 0.06353 0.27242 0.0
H1493 H 0.43695 0.11708 0.32023 0.0
H1494 H 0.42374 0.15045 0.3043 0.0
H1495 H 0.38638 0.10011 0.22199 0.0
H1496 H 0.35688 0.09045 0.21393 0.0
H1497 H 0.37216 0.07025 0.2263 0.0
H1498 H 0.34689 0.06652 0.26002 0.0
H1499 H 0.33129 0.08614 0.24744 0.0
H1500 H 0.34333 0.09397 0.27842 0.0
H1501 H 0.40401 0.17764 0.28672 0.0
H1502 H 0.37415 0.19757 0.27431 0.0
H1503 H 0.3348 0.12743 0.2378 0.0
C1504 C 0.39401 0.08232 0.27949 0.0
C1505 C 0.41228 0.08786 0.2975 0.0
C1506 C 0.42294 0.11254 0.30636 0.0
C1507 C 0.41579 0.13157 0.29717 0.0
C1508 C 0.39813 0.12558 0.27898 0.0
C1509 C 0.38714 0.10162 0.2704 0.0
C1510 C 0.36718 0.10051 0.2526 0.0
C1511 C 0.37087 0.08969 0.2272 0.0
C1512 C 0.34593 0.08595 0.2601 0.0
C1513 C 0.36741 0.12763 0.25458 0.0
C1514 C 0.38616 0.14169 0.26886 0.0
C1515 C 0.38942 0.16699 0.27521 0.0
C1516 C 0.37244 0.17813 0.26812 0.0
C1517 C 0.35245 0.16389 0.25517 0.0
C1518 C 0.35024 0.13858 0.24729 0.0
H1519 H 0.37242 0.18899 0.51023 0.0
H1520 H 0.33072 0.16311 0.5625 0.0
H1521 H 0.36044 0.14567 0.58017 0.0
H1522 H 0.39352 0.13512 0.4998 0.0
H1523 H 0.4209 0.15038 0.49549 0.0
H1524 H 0.39769 0.16384 0.48875 0.0
H1525 H 0.41724 0.20385 0.51759 0.0
H1526 H 0.4405 0.19042 0.5244 0.0
H1527 H 0.42645 0.20246 0.54829 0.0
H1528 H 0.39271 0.12744 0.58967 0.0
H1529 H 0.42461 0.10799 0.58912 0.0
H1530 H 0.44663 0.14615 0.53149 0.0
C1531 C 0.36979 0.17998 0.52563 0.0
C1532 C 0.34932 0.17736 0.53508 0.0
C1533 C 0.34623 0.16509 0.55492 0.0
C1534 C 0.36308 0.15532 0.5652 0.0
C1535 C 0.38292 0.15772 0.55529 0.0
C1536 C 0.38637 0.16961 0.53586 0.0
C1537 C 0.40838 0.16729 0.5272 0.0
C1538 C 0.40491 0.15333 0.50128 0.0
C1539 C 0.42407 0.19252 0.52952 0.0
C1540 C 0.41658 0.15222 0.54469 0.0
C1541 C 0.4017 0.14704 0.56082 0.0
C1542 C 0.40472 0.13174 0.5774 0.0
C1543 C 0.42312 0.1209 0.57707 0.0
C1544 C 0.43843 0.12542 0.5603 0.0
C1545 C 0.43528 0.14196 0.54443 0.0
H1546 H 0.74762 0.62516 0.323 0.0
H1547 H 0.71121 0.6096 0.25175 0.0
H1548 H 0.7295 0.65023 0.24426 0.0
H1549 H 0.74473 0.69089 0.33338 0.0
H1550 H 0.77184 0.70133 0.35016 0.0
H1551 H 0.75621 0.67077 0.35028 0.0
H1552 H 0.78857 0.65279 0.33562 0.0
H1553 H 0.80431 0.68327 0.33546 0.0
H1554 H 0.79933 0.66053 0.30862 0.0
H1555 H 0.75179 0.69453 0.244 0.0
H1556 H 0.77591 0.73617 0.251 0.0
H1557 H 0.79952 0.72561 0.322 0.0
C1558 C 0.74355 0.63016 0.30574 0.0
C1559 C 0.72758 0.61317 0.28795 0.0
C1560 C 0.72302 0.62148 0.2659 0.0
C1561 C 0.73348 0.64489 0.26138 0.0
C1562 C 0.74882 0.66106 0.27908 0.0
C1563 C 0.75383 0.65408 0.30094 0.0
C1564 C 0.7706 0.67558 0.317 0.0
C1565 C 0.76024 0.68521 0.33903 0.0
C1566 C 0.79198 0.66756 0.32463 0.0
C1567 C 0.77483 0.69518 0.30056 0.0
C1568 C 0.76171 0.68644 0.27886 0.0
C1569 C 0.76206 0.7013 0.26101 0.0
C1570 C 0.77593 0.72529 0.26519 0.0
C1571 C 0.79003 0.73501 0.28703 0.0
C1572 C 0.78924 0.71926 0.30493 0.0
H1573 H 0.91478 0.45589 0.76849 0.0
H1574 H 0.94561 0.46463 0.84144 0.0
H1575 H 0.91242 0.43837 0.85176 0.0
H1576 H 0.8697 0.46784 0.78031 0.0
H1577 H 0.84979 0.44607 0.75845 0.0
H1578 H 0.87775 0.45531 0.7522 0.0
H1579 H 0.88326 0.41082 0.74554 0.0
H1580 H 0.85461 0.401 0.74939 0.0
H1581 H 0.87554 0.39137 0.76731 0.0
H1582 H 0.87315 0.42454 0.85721 0.0
H1583 H 0.83408 0.40336 0.85255 0.0
H1584 H 0.82799 0.40912 0.7772 0.0
C1585 C 0.91514 0.45038 0.786 0.0
C1586 C 0.93189 0.46265 0.80451 0.0
C1587 C 0.93249 0.45542 0.82724 0.0
C1588 C 0.9135 0.44105 0.83338 0.0
C1589 C 0.89512 0.43363 0.81604 0.0
C1590 C 0.89611 0.43668 0.79237 0.0
C1591 C 0.87348 0.42978 0.77798 0.0
C1592 C 0.86737 0.45104 0.76659 0.0
C1593 C 0.87164 0.40687 0.75895 0.0
C1594 C 0.85961 0.4242 0.79763 0.0
C1595 C 0.87237 0.42652 0.8194 0.0
C1596 C 0.86311 0.42174 0.84005 0.0
C1597 C 0.84071 0.41046 0.83735 0.0
C1598 C 0.82908 0.40293 0.81396 0.0
C1599 C 0.83718 0.41386 0.795 0.0
H1600 H 0.09475 0.88119 0.07151 0.0
H1601 H 0.09791 0.91163 0.14685 0.0
H1602 H 0.0911 0.95008 0.13588 0.0
H1603 H 0.12211 0.93774 0.05304 0.0
H1604 H 0.10482 0.9331 0.02482 0.0
H1605 H 0.10947 0.90708 0.03789 0.0
H1606 H 0.06724 0.89131 0.03602 0.0
H1607 H 0.06251 0.91739 0.02308 0.0
H1608 H 0.05094 0.91106 0.05005 0.0
H1609 H 0.08503 0.98585 0.11815 0.0
H1610 H 0.08057 1.01779 0.09403 0.0
H1611 H 0.08042 0.96691 0.02893 0.0
C1612 C 0.09408 0.896 0.08566 0.0
C1613 C 0.09707 0.89308 0.11026 0.0
C1614 C 0.09585 0.91306 0.12801 0.0
C1615 C 0.09189 0.93513 0.12194 0.0
C1616 C 0.08905 0.93747 0.09785 0.0
C1617 C 0.09007 0.91857 0.07984 0.0
C1618 C 0.08662 0.92667 0.05536 0.0
C1619 C 0.10697 0.92611 0.04199 0.0
C1620 C 0.06558 0.91064 0.04023 0.0
C1621 C 0.08391 0.95304 0.06264 0.0
C1622 C 0.08527 0.95859 0.08733 0.0
C1623 C 0.08387 0.98169 0.09881 0.0
C1624 C 0.08134 0.99977 0.08492 0.0
C1625 C 0.08003 0.99501 0.05962 0.0
C1626 C 0.08112 0.97111 0.04824 0.0
H1627 H 0.96762 0.28823 0.86394 0.0
H1628 H 0.95259 0.29829 0.93727 0.0
H1629 H 0.91702 0.30813 0.92365 0.0
H1630 H 0.94378 0.33715 0.84552 0.0
H1631 H 0.9331 0.32051 0.81586 0.0
H1632 H 0.9573 0.31437 0.83157 0.0
H1633 H 0.93816 0.26847 0.82614 0.0
H1634 H 0.91388 0.27453 0.8105 0.0
H1635 H 0.9116 0.25976 0.83651 0.0
H1636 H 0.88104 0.31697 0.90071 0.0
H1637 H 0.85133 0.32414 0.87163 0.0
H1638 H 0.89026 0.30816 0.8141 0.0
C1639 C 0.95681 0.2923 0.87716 0.0
C1640 C 0.96317 0.29204 0.90183 0.0
C1641 C 0.94831 0.29791 0.91829 0.0
C1642 C 0.92792 0.30366 0.91068 0.0
C1643 C 0.92206 0.30358 0.8863 0.0
C1644 C 0.93623 0.29805 0.86981 0.0
C1645 C 0.92618 0.29919 0.84464 0.0
C1646 C 0.94097 0.31899 0.83377 0.0
C1647 C 0.92222 0.27399 0.8285 0.0
C1648 C 0.90431 0.30621 0.84947 0.0
C1649 C 0.90201 0.30868 0.87356 0.0
C1650 C 0.88284 0.31501 0.8818 0.0
C1651 C 0.86586 0.31899 0.86514 0.0
C1652 C 0.86805 0.3168 0.84034 0.0
C1653 C 0.8877 0.31017 0.83283 0.0
H1654 H 0.5847 0.23612 0.62527 0.0
H1655 H 0.60588 0.26514 0.56248 0.0
H1656 H 0.60017 0.22281 0.54023 0.0
H1657 H 0.61077 0.18564 0.61878 0.0
H1658 H 0.58892 0.1647 0.62872 0.0
H1659 H 0.59339 0.19714 0.63939 0.0
H1660 H 0.55275 0.19658 0.6242 0.0
H1661 H 0.54805 0.16405 0.61385 0.0
H1662 H 0.54212 0.18406 0.59333 0.0
H1663 H 0.59471 0.17705 0.52575 0.0
H1664 H 0.58739 0.13159 0.5194 0.0
H1665 H 0.56847 0.13236 0.591 0.0
C1666 C 0.58806 0.23361 0.6068 0.0
C1667 C 0.596 0.25402 0.59569 0.0
C1668 C 0.60006 0.24985 0.57146 0.0
C1669 C 0.5968 0.22585 0.55867 0.0
C1670 C 0.58939 0.20616 0.5703 0.0
C1671 C 0.58486 0.20979 0.59378 0.0
C1672 C 0.57746 0.1855 0.60231 0.0
C1673 C 0.5936 0.18311 0.62356 0.0
C1674 C 0.55368 0.18237 0.6088 0.0
C1675 C 0.5787 0.16761 0.58004 0.0
C1676 C 0.58573 0.1799 0.5618 0.0
C1677 C 0.58904 0.16729 0.53985 0.0
C1678 C 0.58498 0.14153 0.53641 0.0
C1679 C 0.5774 0.12867 0.55468 0.0
C1680 C 0.57415 0.14188 0.57671 0.0
H1681 H 0.59414 0.82805 0.38669 0.0
H1682 H 0.59665 0.76553 0.42198 0.0
H1683 H 0.63438 0.76585 0.41119 0.0
H1684 H 0.62156 0.81229 0.33728 0.0
H1685 H 0.63773 0.84258 0.33711 0.0
H1686 H 0.61181 0.83897 0.34939 0.0
H1687 H 0.63153 0.86559 0.38941 0.0
H1688 H 0.65758 0.86922 0.37723 0.0
H1689 H 0.65478 0.85719 0.40474 0.0
H1690 H 0.67158 0.77192 0.3953 0.0
H1691 H 0.70393 0.78123 0.37382 0.0
H1692 H 0.67748 0.83885 0.34641 0.0
C1693 C 0.60269 0.81445 0.39207 0.0
C1694 C 0.59222 0.79641 0.40486 0.0
C1695 C 0.60416 0.77927 0.41197 0.0
C1696 C 0.62571 0.77943 0.40603 0.0
C1697 C 0.6355 0.79714 0.39317 0.0
C1698 C 0.62448 0.81449 0.38641 0.0
C1699 C 0.63886 0.83121 0.37234 0.0
C1700 C 0.62676 0.83124 0.34755 0.0
C1701 C 0.64611 0.85735 0.38678 0.0
C1702 C 0.6587 0.81917 0.37042 0.0
C1703 C 0.65675 0.80018 0.38341 0.0
C1704 C 0.67305 0.78656 0.3848 0.0
C1705 C 0.69142 0.79187 0.3721 0.0
C1706 C 0.6935 0.81035 0.35738 0.0
C1707 C 0.67687 0.82452 0.35719 0.0
H1708 H 0.10362 0.26445 0.40643 0.0
H1709 H 0.12216 0.31754 0.47234 0.0
H1710 H 0.10736 0.28571 0.49538 0.0
H1711 H 0.05278 0.22976 0.42376 0.0
H1712 H 0.0568 0.20043 0.40989 0.0
H1713 H 0.06746 0.22764 0.39784 0.0
H1714 H 0.10655 0.21849 0.40182 0.0
H1715 H 0.09607 0.19127 0.41386 0.0
H1716 H 0.11882 0.21437 0.4305 0.0
H1717 H 0.09077 0.25022 0.51128 0.0
H1718 H 0.07755 0.20949 0.52137 0.0
H1719 H 0.07162 0.17676 0.44632 0.0
C1720 C 0.10465 0.26921 0.42574 0.0
C1721 C 0.11406 0.29337 0.43775 0.0
C1722 C 0.1152 0.29909 0.46292 0.0
C1723 C 0.10661 0.28123 0.4761 0.0
C1724 C 0.09718 0.25774 0.46382 0.0
C1725 C 0.09642 0.25141 0.43931 0.0
C1726 C 0.08651 0.22422 0.4311 0.0
C1727 C 0.06459 0.22029 0.41468 0.0
C1728 C 0.10298 0.21133 0.4186 0.0
C1729 C 0.08263 0.2163 0.45511 0.0
C1730 C 0.08829 0.23629 0.47343 0.0
C1731 C 0.08622 0.23434 0.49721 0.0
C1732 C 0.0786 0.21119 0.50272 0.0
C1733 C 0.07341 0.19022 0.48461 0.0
C1734 C 0.07535 0.19266 0.4604 0.0
H1735 H 0.57631 0.25183 0.21593 0.0
H1736 H 0.57914 0.32176 0.19218 0.0
H1737 H 0.61961 0.33314 0.20444 0.0
H1738 H 0.6159 0.2759 0.26883 0.0
H1739 H 0.6277 0.24915 0.26673 0.0
H1740 H 0.59912 0.24626 0.25545 0.0
H1741 H 0.60597 0.22566 0.21373 0.0
H1742 H 0.63452 0.22832 0.22487 0.0
H1743 H 0.62758 0.24114 0.19869 0.0
H1744 H 0.65978 0.33577 0.21765 0.0
H1745 H 0.69666 0.33079 0.234 0.0
H1746 H 0.66632 0.26035 0.25133 0.0
C1747 C 0.58552 0.26963 0.21368 0.0
C1748 C 0.57499 0.2862 0.20362 0.0
C1749 C 0.58721 0.30924 0.20051 0.0
C1750 C 0.61008 0.3157 0.20716 0.0
C1751 C 0.62011 0.29901 0.21723 0.0
C1752 C 0.60819 0.2766 0.22078 0.0
C1753 C 0.62274 0.26232 0.23266 0.0
C1754 C 0.61596 0.25817 0.25738 0.0
C1755 C 0.6227 0.23793 0.21651 0.0
C1756 C 0.64474 0.28008 0.23498 0.0
C1757 C 0.64299 0.30103 0.2258 0.0
C1758 C 0.66137 0.31961 0.22522 0.0
C1759 C 0.68214 0.31666 0.23446 0.0
C1760 C 0.68403 0.29544 0.24426 0.0
C1761 C 0.66513 0.27703 0.24449 0.0
H1762 H 0.62277 0.9417 0.91854 0.0
H1763 H 0.60566 0.89097 0.96794 0.0
H1764 H 0.58326 0.91756 0.98706 0.0
H1765 H 0.63024 0.99553 0.96262 0.0
H1766 H 0.61926 1.01346 0.9427 0.0
H1767 H 0.63203 0.98915 0.93089 0.0
H1768 H 0.59626 0.96972 0.90161 0.0
H1769 H 0.58327 0.99376 0.9139 0.0
H1770 H 0.57024 0.96213 0.91342 0.0
H1771 H 0.56342 0.94882 1.00148 0.0
H1772 H 0.55427 0.98833 0.01676 0.0
H1773 H 0.58586 0.02087 0.96072 0.0
C1774 C 0.61442 0.93639 0.93351 0.0
C1775 C 0.61597 0.91432 0.94182 0.0
C1776 C 0.60492 0.90793 0.96146 0.0
C1777 C 0.5918 0.92267 0.97217 0.0
C1778 C 0.59014 0.94394 0.96327 0.0
C1779 C 0.6016 0.95127 0.94488 0.0
C1780 C 0.59891 0.97652 0.94085 0.0
C1781 C 0.62145 0.99473 0.9445 0.0
C1782 C 0.58643 0.97544 0.91596 0.0
C1783 C 0.58488 0.98242 0.96045 0.0
C1784 C 0.57929 0.96289 0.97247 0.0
C1785 C 0.56743 0.96418 0.9921 0.0
C1786 C 0.56216 0.98653 1.00053 0.0
C1787 C 0.56903 1.00709 0.98944 0.0
C1788 C 0.57991 1.00496 0.96883 0.0
H1789 H 0.94961 0.79775 0.69482 0.0
H1790 H 0.96065 0.73062 0.71765 0.0
H1791 H 0.92987 0.73031 0.7422 0.0
H1792 H 0.93839 0.8261 0.75033 0.0
H1793 H 0.9169 0.83951 0.73797 0.0
H1794 H 0.93871 0.83377 0.72063 0.0
H1795 H 0.90987 0.80808 0.6861 0.0
H1796 H 0.88782 0.8134 0.70325 0.0
H1797 H 0.88964 0.78252 0.69188 0.0
H1798 H 0.89933 0.73767 0.76475 0.0
H1799 H 0.86784 0.75087 0.78218 0.0
H1800 H 0.87795 0.81408 0.74602 0.0
C1801 C 0.94538 0.78291 0.70485 0.0
C1802 C 0.95743 0.76433 0.70473 0.0
C1803 C 0.95162 0.74514 0.71793 0.0
C1804 C 0.93424 0.7448 0.73182 0.0
C1805 C 0.92316 0.76386 0.73228 0.0
C1806 C 0.92828 0.78242 0.719 0.0
C1807 C 0.91393 0.80085 0.72297 0.0
C1808 C 0.92782 0.82657 0.73362 0.0
C1809 C 0.89946 0.8012 0.69963 0.0
C1810 C 0.90027 0.7899 0.74096 0.0
C1811 C 0.90578 0.7685 0.74592 0.0
C1812 C 0.89484 0.75444 0.76117 0.0
C1813 C 0.87714 0.76207 0.77102 0.0
C1814 C 0.87089 0.78349 0.76553 0.0
C1815 C 0.88292 0.79796 0.75092 0.0
H1816 H 0.16083 0.07509 0.87505 0.0
H1817 H 0.13542 0.99808 0.84637 0.0
H1818 H 0.11581 0.99351 0.8819 0.0
H1819 H 0.16784 0.07041 0.93902 0.0
H1820 H 0.15771 0.09726 0.94967 0.0
H1821 H 0.17007 0.09525 0.9221 0.0
H1822 H 0.1349 0.10285 0.8996 0.0
H1823 H 0.12253 0.10497 0.92715 0.0
H1824 H 0.10847 0.08333 0.90116 0.0
H1825 H 0.09855 0.99623 0.92279 0.0
H1826 H 0.08406 1.00616 0.96101 0.0
H1827 H 0.11734 0.08224 0.96649 0.0
C1828 C 0.15119 0.05713 0.87608 0.0
C1829 C 0.15051 0.03678 0.85668 0.0
C1830 C 0.137 1.01414 0.85993 0.0
C1831 C 0.12557 1.01132 0.88055 0.0
C1832 C 0.12683 0.0313 0.89907 0.0
C1833 C 0.13907 0.05402 0.89689 0.0
C1834 C 0.13666 0.0726 0.91931 0.0
C1835 C 0.15944 0.08461 0.93335 0.0
C1836 C 0.12496 0.09212 0.91134 0.0
C1837 C 0.12205 0.05679 0.93483 0.0
C1838 C 0.11659 0.03297 0.92241 0.0
C1839 C 0.10312 1.01488 0.93237 0.0
C1840 C 0.09495 0.02081 0.95476 0.0
C1841 C 0.09971 0.04487 0.96872 0.0
C1842 C 0.11369 0.06326 0.95785 0.0
H1843 H 0.85148 0.4038 0.57124 0.0
H1844 H 0.82407 0.46594 0.59725 0.0
H1845 H 0.83811 0.46405 0.63886 0.0
H1846 H 0.83713 0.3693 0.61155 0.0
H1847 H 0.86195 0.35765 0.61524 0.0
H1848 H 0.85458 0.36786 0.5879 0.0
H1849 H 0.89294 0.39785 0.59352 0.0
H1850 H 0.90014 0.38792 0.62139 0.0
H1851 H 0.90158 0.41998 0.6207 0.0
H1852 H 0.84685 0.45 0.67616 0.0
H1853 H 0.84745 0.42293 0.70644 0.0
H1854 H 0.87135 0.37149 0.6566 0.0
C1855 C 0.84861 0.417 0.58582 0.0
C1856 C 0.83636 0.43458 0.58158 0.0
C1857 C 0.8332 0.45209 0.6006 0.0
C1858 C 0.84149 0.45147 0.62409 0.0
C1859 C 0.85349 0.43379 0.62788 0.0
C1860 C 0.85728 0.417 0.60923 0.0
C1861 C 0.86788 0.39777 0.61824 0.0
C1862 C 0.85456 0.37164 0.60764 0.0
C1863 C 0.89207 0.4011 0.61315 0.0
C1864 C 0.86665 0.40447 0.6447 0.0
C1865 C 0.85938 0.42603 0.65007 0.0
C1866 C 0.85328 0.4336 0.67249 0.0
C1867 C 0.85344 0.41807 0.68945 0.0
C1868 C 0.85948 0.39535 0.68356 0.0
C1869 C 0.86732 0.38917 0.66157 0.0
H1870 H 0.50183 0.06369 0.3748 0.0
H1871 H 0.44159 1.01696 0.38935 0.0
H1872 H 0.46017 1.01425 0.42882 0.0
H1873 H 0.53934 0.03241 0.40179 0.0
H1874 H 0.55984 0.06005 0.41355 0.0
H1875 H 0.54169 0.05849 0.38655 0.0
H1876 H 0.52913 0.09721 0.40586 0.0
H1877 H 0.54719 0.09886 0.43294 0.0
H1878 H 0.51811 0.09748 0.43417 0.0
H1879 H 0.4852 1.01487 0.46458 0.0
H1880 H 0.5149 0.02114 0.49754 0.0
H1881 H 0.55862 0.06915 0.46055 0.0
C1882 C 0.49249 0.05314 0.38644 0.0
C1883 C 0.47038 0.04069 0.37944 0.0
C1884 C 0.45854 0.02688 0.39481 0.0
C1885 C 0.46895 0.02508 0.41703 0.0
C1886 C 0.49094 0.03732 0.42325 0.0
C1887 C 0.50254 0.05121 0.40856 0.0
C1888 C 0.52601 0.06255 0.41955 0.0
C1889 C 0.54269 0.05278 0.40446 0.0
C1890 C 0.53035 0.0907 0.42336 0.0
C1891 C 0.52567 0.0531 0.44295 0.0
C1892 C 0.50535 0.03832 0.44446 0.0
C1893 C 0.50108 0.02667 0.46386 0.0
C1894 C 0.51804 0.0305 0.4825 0.0
C1895 C 0.53875 0.04617 0.48165 0.0
C1896 C 0.54276 0.05743 0.46161 0.0
H1897 H 0.78958 0.71612 0.10156 0.0
H1898 H 0.82471 0.7804 0.07667 0.0
H1899 H 0.8323 0.80282 0.11837 0.0
H1900 H 0.76298 0.74723 0.14494 0.0
H1901 H 0.76561 0.72769 0.16697 0.0
H1902 H 0.76448 0.71576 0.13559 0.0
H1903 H 0.80161 0.70268 0.14373 0.0
H1904 H 0.80267 0.71425 0.17521 0.0
H1905 H 0.82544 0.72504 0.15921 0.0
H1906 H 0.83555 0.81872 0.16273 0.0
H1907 H 0.83363 0.82717 0.20643 0.0
H1908 H 0.79471 0.75368 0.20303 0.0
C1909 C 0.79892 0.73491 0.1049 0.0
C1910 C 0.80634 0.74659 0.08567 0.0
C1911 C 0.81858 0.77115 0.09092 0.0
C1912 C 0.82308 0.78399 0.11462 0.0
C1913 C 0.81514 0.77216 0.13305 0.0
C1914 C 0.80336 0.74812 0.12852 0.0
C1915 C 0.79612 0.74001 0.15156 0.0
C1916 C 0.77079 0.73222 0.14964 0.0
C1917 C 0.80712 0.71927 0.15779 0.0
C1918 C 0.80498 0.7635 0.16959 0.0
C1919 C 0.81629 0.78164 0.15854 0.0
C1920 C 0.82653 0.80473 0.17147 0.0
C1921 C 0.82524 0.80946 0.19624 0.0
C1922 C 0.81345 0.79142 0.20791 0.0
C1923 C 0.80323 0.76808 0.19438 0.0
H1924 H 0.12534 0.04787 0.72171 0.0
H1925 H 0.18198 0.0198 0.70075 0.0
H1926 H 0.16933 1.01952 0.65842 0.0
H1927 H 0.08601 1.01295 0.66845 0.0
H1928 H 0.0718 0.03732 0.66522 0.0
H1929 H 0.08448 0.0349 0.69434 0.0
H1930 H 0.10698 0.0793 0.69885 0.0
H1931 H 0.09441 0.08177 0.66971 0.0
H1932 H 0.12411 0.08786 0.67616 0.0
H1933 H 0.15001 0.02059 0.61633 0.0
H1934 H 0.12758 0.02559 0.57999 0.0
H1935 H 0.08339 0.05596 0.62448 0.0
C1936 C 0.13509 0.0415 0.70829 0.0
C1937 C 0.15507 0.03358 0.71571 0.0
C1938 C 0.16682 0.02581 0.69664 0.0
C1939 C 0.15965 0.02559 0.67207 0.0
C1940 C 0.14026 0.03333 0.66547 0.0
C1941 C 0.12809 0.04131 0.68304 0.0
C1942 C 0.10792 0.04896 0.67045 0.0
C1943 C 0.08626 0.03257 0.67489 0.0
C1944 C 0.10839 0.07609 0.67933 0.0
C1945 C 0.11096 0.04451 0.64339 0.0
C1946 C 0.12961 0.03499 0.64113 0.0
C1947 C 0.13551 0.0282 0.6182 0.0
C1948 C 0.12244 0.03108 0.59731 0.0
C1949 C 0.1034 0.04135 0.59837 0.0
C1950 C 0.09781 0.04827 0.6223 0.0
H1951 H 0.82784 0.42534 0.42405 0.0
H1952 H 0.83832 0.37359 0.47096 0.0
H1953 H 0.85077 0.34836 0.43822 0.0
H1954 H 0.80243 0.38397 0.37672 0.0
H1955 H 0.81414 0.39886 0.35335 0.0
H1956 H 0.81254 0.41677 0.38166 0.0
H1957 H 0.85473 0.43462 0.38626 0.0
H1958 H 0.85638 0.41656 0.3578 0.0
H1959 H 0.87355 0.41418 0.38426 0.0
H1960 H 0.85461 0.32505 0.40094 0.0
H1961 H 0.84499 0.30219 0.35981 0.0
H1962 H 0.83132 0.36725 0.33494 0.0
C1963 C 0.83311 0.40885 0.42731 0.0
C1964 C 0.83185 0.40105 0.44971 0.0
C1965 C 0.83872 0.37947 0.45365 0.0
C1966 C 0.84632 0.36536 0.43535 0.0
C1967 C 0.84691 0.37307 0.41322 0.0
C1968 C 0.84037 0.39423 0.40895 0.0
C1969 C 0.83865 0.3958 0.38246 0.0
C1970 C 0.81557 0.39899 0.37301 0.0
C1971 C 0.85692 0.41652 0.37741 0.0
C1972 C 0.84275 0.37091 0.37249 0.0
C1973 C 0.84874 0.35882 0.3907 0.0
C1974 C 0.85052 0.33443 0.38643 0.0
C1975 C 0.84488 0.32154 0.36311 0.0
C1976 C 0.83749 0.33311 0.34458 0.0
C1977 C 0.8374 0.35831 0.34897 0.0
H1978 H 0.46108 0.99907 0.2351 0.0
H1979 H 0.48251 0.07778 0.25787 0.0
H1980 H 0.49006 0.08257 0.21676 0.0
H1981 H 0.50369 0.99399 0.19759 0.0
H1982 H 0.48648 0.97013 0.17521 0.0
H1983 H 0.48079 0.97307 0.20588 0.0
H1984 H 0.44075 0.97596 0.19206 0.0
H1985 H 0.44642 0.97354 0.16133 0.0
H1986 H 0.43613 0.99926 0.17486 0.0
H1987 H 0.49368 0.0796 0.17542 0.0
H1988 H 0.505 0.06939 0.13622 0.0
H1989 H 0.48499 0.99154 0.13907 0.0
C1990 C 0.46762 1.01719 0.23123 0.0
C1991 C 0.47132 0.0382 0.24902 0.0
C1992 C 0.47993 0.06168 0.2441 0.0
C1993 C 0.48378 0.06454 0.22088 0.0
C1994 C 0.47917 0.04362 0.20337 0.0
C1995 C 0.47213 0.0203 0.20828 0.0
C1996 C 0.4711 1.00089 0.18655 0.0
C1997 C 0.48645 0.98352 0.19161 0.0
C1998 C 0.44718 0.98658 0.17821 0.0
C1999 C 0.47947 1.01718 0.16891 0.0
C2000 C 0.48286 0.04168 0.17896 0.0
C2001 C 0.49102 0.06058 0.16711 0.0
C2002 C 0.49718 0.05446 0.14468 0.0
C2003 C 0.49548 0.02959 0.13445 0.0
C2004 C 0.48602 1.0106 0.1464 0.0
H2005 H 0.82397 0.72409 0.93566 0.0
H2006 H 0.77093 0.75835 0.95765 0.0
H2007 H 0.76959 0.77558 0.92013 0.0
H2008 H 0.85143 0.77531 0.90806 0.0
H2009 H 0.85962 0.75585 0.884 0.0
H2010 H 0.85657 0.74589 0.91248 0.0
H2011 H 0.829 0.70634 0.89121 0.0
H2012 H 0.83192 0.71621 0.86267 0.0
H2013 H 0.80489 0.70865 0.87228 0.0
H2014 H 0.7728 0.7881 0.87897 0.0
H2015 H 0.78234 0.79733 0.83944 0.0
H2016 H 0.8345 0.75711 0.8436 0.0
C2017 C 0.81207 0.73523 0.93259 0.0
C2018 C 0.79737 0.73959 0.94987 0.0
C2019 C 0.78232 0.75456 0.94498 0.0
C2020 C 0.78141 0.76445 0.92356 0.0
C2021 C 0.79589 0.75966 0.90691 0.0
C2022 C 0.81119 0.74568 0.91129 0.0
C2023 C 0.82524 0.74397 0.89054 0.0
C2024 C 0.84966 0.75597 0.8993 0.0
C2025 C 0.8226 0.7172 0.87847 0.0
C2026 C 0.81516 0.75869 0.87366 0.0
C2027 C 0.79816 0.76748 0.88349 0.0
C2028 C 0.78606 0.78121 0.87121 0.0
C2029 C 0.79142 0.78615 0.84853 0.0
C2030 C 0.80877 0.77749 0.83793 0.0
C2031 C 0.82094 0.76375 0.85096 0.0
H2032 H 0.8593 0.12009 0.05831 0.0
H2033 H 0.85353 0.15722 0.99712 0.0
H2034 H 0.88603 0.14344 0.98272 0.0
H2035 H 0.91737 0.137 0.06929 0.0
H2036 H 0.9208 0.1086 0.0784 0.0
H2037 H 0.89579 0.11922 0.08266 0.0
H2038 H 0.87219 0.07848 0.05837 0.0
H2039 H 0.89698 0.06734 0.05432 0.0
H2040 H 0.878 0.06792 0.02859 0.0
H2041 H 0.91947 0.12686 0.97593 0.0
H2042 H 0.95202 0.10785 0.97678 0.0
H2043 H 0.93668 0.08361 0.0436 0.0
C2044 C 0.86483 0.12503 0.04177 0.0
C2045 C 0.85431 0.13964 0.02876 0.0
C2046 C 0.86181 0.14616 1.00734 0.0
C2047 C 0.88008 0.13836 0.999 0.0
C2048 C 0.89055 0.12442 1.01257 0.0
C2049 C 0.88323 0.11783 0.03347 0.0
C2050 C 0.89814 0.10398 0.04543 0.0
C2051 C 0.90865 0.11805 0.07042 0.0
C2052 C 0.88558 0.07788 0.04673 0.0
C2053 C 0.91504 0.10383 0.02797 0.0
C2054 C 0.91029 0.11558 1.00908 0.0
C2055 C 0.92343 0.11758 0.99058 0.0
C2056 C 0.9418 0.10683 0.99123 0.0
C2057 C 0.94673 0.09449 1.01032 0.0
C2058 C 0.93337 0.0933 0.02903 0.0
H2059 H 0.41376 0.47594 0.07642 0.0
H2060 H 0.40405 0.42332 1.01064 0.0
H2061 H 0.4406 0.44283 1.0008 0.0
H2062 H 0.44409 0.52868 0.05469 0.0
H2063 H 0.46336 0.53957 0.0816 0.0
H2064 H 0.436 0.52215 0.08317 0.0
H2065 H 0.45292 0.49095 0.10375 0.0
H2066 H 0.48033 0.50831 0.10226 0.0
H2067 H 0.47259 0.47624 0.08933 0.0
H2068 H 0.47899 0.46876 0.99763 0.0
H2069 H 0.5156 0.4972 1.0025 0.0
H2070 H 0.50251 0.53213 0.07129 0.0
C2071 C 0.41926 0.46867 0.05986 0.0
C2072 C 0.40561 0.44802 0.04424 0.0
C2073 C 0.41391 0.43899 0.02299 0.0
C2074 C 0.43478 0.45004 0.01718 0.0
C2075 C 0.44787 0.47013 0.03294 0.0
C2076 C 0.44053 0.47921 0.054 0.0
C2077 C 0.45845 0.50026 0.06834 0.0
C2078 C 0.44997 0.52408 0.07218 0.0
C2079 C 0.46654 0.49355 0.09235 0.0
C2080 C 0.47669 0.50204 0.05189 0.0
C2081 C 0.47021 0.48442 0.03152 0.0
C2082 C 0.48416 0.48248 1.01364 0.0
C2083 C 0.50509 0.49878 0.01659 0.0
C2084 C 0.51235 0.517 0.03736 0.0
C2085 C 0.49773 0.51845 0.05522 0.0
H2086 H 0.42743 0.66596 0.75495 0.0
H2087 H 0.39325 0.628 0.80636 0.0
H2088 H 0.37261 0.66088 0.81357 0.0
H2089 H 0.43055 0.72997 0.78433 0.0
H2090 H 0.42408 0.74148 0.75718 0.0
H2091 H 0.43709 0.71562 0.75616 0.0
H2092 H 0.40561 0.69012 0.72442 0.0
H2093 H 0.39254 0.71594 0.72539 0.0
H2094 H 0.37737 0.68688 0.73071 0.0
H2095 H 0.35342 0.69953 0.8154 0.0
H2096 H 0.33874 0.73624 0.81101 0.0
H2097 H 0.38296 0.75282 0.75806 0.0
C2098 C 0.4157 0.66439 0.76789 0.0
C2099 C 0.41278 0.64296 0.7801 0.0
C2100 C 0.39655 0.64302 0.79641 0.0
C2101 C 0.38447 0.66215 0.80075 0.0
C2102 C 0.38758 0.68242 0.78852 0.0
C2103 C 0.40279 0.68359 0.77214 0.0
C2104 C 0.40193 0.70711 0.76064 0.0
C2105 C 0.42478 0.72458 0.76482 0.0
C2106 C 0.39391 0.69958 0.73368 0.0
C2107 C 0.3847 0.71941 0.7736 0.0
C2108 C 0.37655 0.70441 0.78946 0.0
C2109 C 0.36004 0.71102 0.80294 0.0
C2110 C 0.35158 0.7325 0.80028 0.0
C2111 C 0.35913 0.74908 0.78446 0.0
C2112 C 0.37643 0.74179 0.77091 0.0
H2113 H 0.22827 0.61626 0.56439 0.0
H2114 H 0.23919 0.64703 0.49978 0.0
H2115 H 0.19891 0.64134 0.48916 0.0
H2116 H 0.17774 0.57028 0.53979 0.0
H2117 H 0.16531 0.57492 0.56711 0.0
H2118 H 0.19491 0.57988 0.56828 0.0
H2119 H 0.19828 0.62393 0.59147 0.0
H2120 H 0.16861 0.61924 0.58955 0.0
H2121 H 0.18429 0.64468 0.57822 0.0
H2122 H 0.15894 0.63762 0.48843 0.0
H2123 H 0.11925 0.62602 0.49196 0.0
H2124 H 0.13416 0.59502 0.55552 0.0
C2125 C 0.22197 0.62075 0.54758 0.0
C2126 C 0.23625 0.63143 0.53248 0.0
C2127 C 0.228 0.63825 0.51108 0.0
C2128 C 0.20535 0.63544 0.50513 0.0
C2129 C 0.19156 0.62593 0.52095 0.0
C2130 C 0.19938 0.61811 0.5414 0.0
C2131 C 0.18088 0.6089 0.55541 0.0
C2132 C 0.17963 0.58188 0.55776 0.0
C2133 C 0.18317 0.62516 0.58012 0.0
C2134 C 0.1615 0.61208 0.53916 0.0
C2135 C 0.16814 0.62272 0.51988 0.0
C2136 C 0.15337 0.62852 0.50298 0.0
C2137 C 0.13092 0.62166 0.50497 0.0
C2138 C 0.12373 0.6084 0.5231 0.0
C2139 C 0.1392 0.60466 0.5411 0.0
H2140 H 0.75006 0.02839 0.76343 0.0
H2141 H 0.68207 0.99066 0.76479 0.0
H2142 H 0.69529 0.95911 0.78402 0.0
H2143 H 0.77069 0.97575 0.74823 0.0
H2144 H 0.79698 0.98777 0.76649 0.0
H2145 H 0.78198 1.00833 0.7546 0.0
H2146 H 0.78309 0.03202 0.79755 0.0
H2147 H 0.79788 1.01133 0.80974 0.0
H2148 H 0.77233 1.01572 0.82048 0.0
H2149 H 0.71528 0.93223 0.80249 0.0
H2150 H 0.74148 0.90641 0.81173 0.0
H2151 H 0.79582 0.96059 0.79693 0.0
C2152 C 0.73798 1.0133 0.76749 0.0
C2153 C 0.71518 1.01183 0.76286 0.0
C2154 C 0.69971 0.99191 0.76824 0.0
C2155 C 0.70701 0.97423 0.77954 0.0
C2156 C 0.72967 0.97694 0.78509 0.0
C2157 C 0.74493 0.9956 0.77878 0.0
C2158 C 0.76832 0.99309 0.78483 0.0
C2159 C 0.78018 0.99109 0.76219 0.0
C2160 C 0.78115 1.01431 0.80431 0.0
C2161 C 0.76373 0.96936 0.79446 0.0
C2162 C 0.74136 0.96091 0.79527 0.0
C2163 C 0.73284 0.93866 0.80212 0.0
C2164 C 0.7476 0.92406 0.80714 0.0
C2165 C 0.77015 0.93162 0.80475 0.0
C2166 C 0.77856 0.95486 0.79929 0.0
H2167 H 0.75868 0.90745 0.53374 0.0
H2168 H 0.8068 0.97678 0.55146 0.0
H2169 H 0.77707 0.99893 0.54694 0.0
H2170 H 0.72204 0.92798 0.48926 0.0
H2171 H 0.69671 0.91152 0.49766 0.0
H2172 H 0.72158 0.89994 0.50099 0.0
H2173 H 0.71773 0.89932 0.5458 0.0
H2174 H 0.69286 0.91088 0.54256 0.0
H2175 H 0.71553 0.92697 0.56491 0.0
H2176 H 0.74374 1.01447 0.54113 0.0
H2177 H 0.70665 0.02322 0.5362 0.0
H2178 H 0.67731 0.94528 0.52352 0.0
C2179 C 0.76289 0.92729 0.53661 0.0
C2180 C 0.78533 0.94035 0.54304 0.0
C2181 C 0.78998 0.96627 0.54661 0.0
C2182 C 0.77314 0.9791 0.544 0.0
C2183 C 0.75142 0.96594 0.53778 0.0
C2184 C 0.746 0.94063 0.53415 0.0
C2185 C 0.72087 0.93156 0.52808 0.0
C2186 C 0.71496 0.91688 0.50248 0.0
C2187 C 0.71119 0.91628 0.54645 0.0
C2188 C 0.71328 0.95584 0.52981 0.0
C2189 C 0.73144 0.97523 0.53492 0.0
C2190 C 0.72936 0.99949 0.53713 0.0
C2191 C 0.7082 1.00429 0.53425 0.0
C2192 C 0.68912 0.98507 0.52946 0.0
C2193 C 0.69164 0.96037 0.52722 0.0
H2194 H 0.39241 0.48646 0.74511 0.0
H2195 H 0.429 0.50527 0.8163 0.0
H2196 H 0.41285 0.46422 0.82457 0.0
H2197 H 0.34206 0.44971 0.76064 0.0
H2198 H 0.33744 0.42647 0.73422 0.0
H2199 H 0.35236 0.45712 0.73333 0.0
H2200 H 0.38519 0.43989 0.71888 0.0
H2201 H 0.3704 0.40917 0.7199 0.0
H2202 H 0.39753 0.42082 0.73637 0.0
H2203 H 0.39197 0.41785 0.82555 0.0
H2204 H 0.36762 0.37629 0.81989 0.0
H2205 H 0.34183 0.38582 0.74942 0.0
C2206 C 0.39709 0.48214 0.76253 0.0
C2207 C 0.41254 0.50049 0.77996 0.0
C2208 C 0.41761 0.49268 0.80227 0.0
C2209 C 0.40836 0.46887 0.80725 0.0
C2210 C 0.39346 0.45149 0.78992 0.0
C2211 C 0.38779 0.45791 0.76793 0.0
C2212 C 0.37127 0.43557 0.7525 0.0
C2213 C 0.34948 0.44265 0.74471 0.0
C2214 C 0.3817 0.42579 0.73059 0.0
C2215 C 0.36766 0.41622 0.76941 0.0
C2216 C 0.38124 0.42557 0.79074 0.0
C2217 C 0.38143 0.41077 0.80874 0.0
C2218 C 0.3675 0.38661 0.80526 0.0
C2219 C 0.35263 0.37637 0.78396 0.0
C2220 C 0.35301 0.39209 0.76589 0.0
H2221 H 0.23428 0.65436 0.23725 0.0
H2222 H 0.19045 0.65265 0.29249 0.0
H2223 H 0.21277 0.6923 0.31416 0.0
H2224 H 0.28231 0.67466 0.27356 0.0
H2225 H 0.29627 0.69477 0.25515 0.0
H2226 H 0.27482 0.66873 0.2415 0.0
H2227 H 0.2527 0.69661 0.22183 0.0
H2228 H 0.27467 0.72261 0.23435 0.0
H2229 H 0.24667 0.72275 0.24017 0.0
H2230 H 0.24315 0.72769 0.33272 0.0
H2231 H 0.27384 0.76409 0.34155 0.0
H2232 H 0.29793 0.74131 0.27433 0.0
C2233 C 0.22888 0.66298 0.25332 0.0
C2234 C 0.21095 0.65084 0.26338 0.0
C2235 C 0.20415 0.66213 0.2845 0.0
C2236 C 0.21686 0.68436 0.29707 0.0
C2237 C 0.23578 0.69484 0.28778 0.0
C2238 C 0.24126 0.68507 0.26592 0.0
C2239 C 0.26278 0.69935 0.26027 0.0
C2240 C 0.28005 0.68341 0.25746 0.0
C2241 C 0.25898 0.71104 0.23785 0.0
C2242 C 0.26892 0.71824 0.28276 0.0
C2243 C 0.25327 0.71521 0.29849 0.0
C2244 C 0.25541 0.73053 0.32046 0.0
C2245 C 0.27312 0.75085 0.32554 0.0
C2246 C 0.28797 0.75545 0.30844 0.0
C2247 C 0.2867 0.73813 0.28763 0.0
H2248 H 0.51935 0.72193 0.48624 0.0
H2249 H 0.56649 0.72498 0.43437 0.0
H2250 H 0.58218 0.69328 0.45099 0.0
H2251 H 0.55615 0.70834 0.53577 0.0
H2252 H 0.53435 0.68725 0.54558 0.0
H2253 H 0.52808 0.71228 0.53183 0.0
H2254 H 0.49933 0.68161 0.50017 0.0
H2255 H 0.50546 0.65655 0.51389 0.0
H2256 H 0.50771 0.65661 0.48248 0.0
H2257 H 0.59334 0.66138 0.47311 0.0
H2258 H 0.59562 0.62709 0.49496 0.0
H2259 H 0.53869 0.63929 0.52985 0.0
C2260 C 0.533 0.71591 0.47845 0.0
C2261 C 0.54159 0.72605 0.45874 0.0
C2262 C 0.5594 0.71748 0.44915 0.0
C2263 C 0.56859 0.69955 0.45867 0.0
C2264 C 0.55965 0.68969 0.47771 0.0
C2265 C 0.54203 0.69724 0.48736 0.0
C2266 C 0.53467 0.68205 0.50664 0.0
C2267 C 0.53854 0.69846 0.53142 0.0
C2268 C 0.51035 0.6684 0.50041 0.0
C2269 C 0.55021 0.66417 0.50546 0.0
C2270 C 0.56504 0.66973 0.48929 0.0
C2271 C 0.58162 0.65672 0.48557 0.0
C2272 C 0.58281 0.63722 0.49812 0.0
C2273 C 0.5672 0.63009 0.51385 0.0
C2274 C 0.5507 0.64398 0.51769 0.0
H2275 H 0.672 0.29879 0.67257 0.0
H2276 H 0.66444 0.373 0.69525 0.0
H2277 H 0.69851 0.38112 0.72376 0.0
H2278 H 0.69017 0.29011 0.73283 0.0
H2279 H 0.70913 0.27134 0.72348 0.0
H2280 H 0.68517 0.27172 0.70334 0.0
H2281 H 0.71031 0.28393 0.67132 0.0
H2282 H 0.73442 0.28378 0.69141 0.0
H2283 H 0.73247 0.31083 0.67873 0.0
H2284 H 0.73367 0.38181 0.74982 0.0
H2285 H 0.76417 0.37342 0.77594 0.0
H2286 H 0.74865 0.29772 0.74045 0.0
C2287 C 0.67775 0.31685 0.68331 0.0
C2288 C 0.66565 0.3355 0.68115 0.0
C2289 C 0.67342 0.35854 0.69622 0.0
C2290 C 0.69287 0.36335 0.71249 0.0
C2291 C 0.70447 0.34478 0.71415 0.0
C2292 C 0.697 0.32179 0.70036 0.0
C2293 C 0.71174 0.30461 0.70739 0.0
C2294 C 0.69825 0.28317 0.71736 0.0
C2295 C 0.7229 0.29523 0.68593 0.0
C2296 C 0.7288 0.32164 0.72697 0.0
C2297 C 0.72434 0.34482 0.73019 0.0
C2298 C 0.73739 0.36377 0.74726 0.0
C2299 C 0.75498 0.35892 0.76186 0.0
C2300 C 0.75971 0.33525 0.75975 0.0
C2301 C 0.74631 0.31633 0.74187 0.0
H2302 H 0.04156 0.35567 1.0011 0.0
H2303 H 0.03622 0.36983 0.92776 0.0
H2304 H 0.04007 0.41339 0.94248 0.0
H2305 H 1.0115 0.39849 0.0257 0.0
H2306 H 0.02947 0.4098 0.05352 0.0
H2307 H 0.02761 0.37907 0.03818 0.0
H2308 H 0.06997 0.38816 0.03733 0.0
H2309 H 0.07199 0.41883 0.05299 0.0
H2310 H 0.08299 0.41417 0.02481 0.0
H2311 H 0.04425 0.45406 0.96293 0.0
H2312 H 0.04839 0.49292 0.98998 0.0
H2313 H 0.04953 0.45578 0.05156 0.0
C2314 C 0.04129 0.36807 0.98828 0.0
C2315 C 0.03848 0.35932 0.96324 0.0
C2316 C 0.03837 0.37602 0.94697 0.0
C2317 C 0.04056 0.40087 0.95512 0.0
C2318 C 0.04309 0.40894 0.97966 0.0
C2319 C 0.04372 0.39338 0.9962 0.0
C2320 C 0.04678 0.40774 0.02164 0.0
C2321 C 0.02769 0.39821 0.03557 0.0
C2322 C 0.06926 0.40718 0.03498 0.0
C2323 C 0.04645 0.43336 0.01641 0.0
C2324 C 0.04479 0.43331 0.99197 0.0
C2325 C 0.04509 0.45438 0.98209 0.0
C2326 C 0.04701 0.47629 0.99755 0.0
C2327 C 0.04792 0.47697 0.02254 0.0
C2328 C 0.04806 0.45538 0.03236 0.0
H2329 H 0.02488 0.83069 0.15365 0.0
H2330 H 0.05785 0.77733 0.17998 0.0
H2331 H 0.02433 0.75993 0.19717 0.0
H2332 H 0.9992 0.84275 0.20578 0.0
H2333 H 0.97384 0.84685 0.19059 0.0
H2334 H 0.99912 0.85318 0.17725 0.0
H2335 H 0.9807 0.82283 0.13873 0.0
H2336 H 0.95528 0.81648 0.15191 0.0
H2337 H 0.96795 0.79171 0.14088 0.0
H2338 H 0.98948 0.75119 0.21524 0.0
H2339 H 0.95582 0.75192 0.23407 0.0
H2340 H 0.94348 0.81009 0.19564 0.0
C2341 C 0.02482 0.81513 0.16276 0.0
C2342 C 0.04395 0.80535 0.16561 0.0
C2343 C 0.04345 0.78523 0.17788 0.0
C2344 C 0.02442 0.7751 0.18751 0.0
C2345 C 1.00599 0.78543 0.18497 0.0
C2346 C 1.00596 0.80503 0.17297 0.0
C2347 C 0.98463 0.81404 0.17494 0.0
C2348 C 0.98949 0.84079 0.18791 0.0
C2349 C 0.97135 0.81107 0.15013 0.0
C2350 C 0.97292 0.79665 0.19018 0.0
C2351 C 0.98553 0.78022 0.19552 0.0
C2352 C 0.9792 0.76363 0.21078 0.0
C2353 C 0.9597 0.76408 0.22128 0.0
C2354 C 0.94631 0.78086 0.21641 0.0
C2355 C 0.95306 0.79704 0.20014 0.0
H2356 H 0.53378 0.35089 0.15077 0.0
H2357 H 0.54296 0.28926 0.10022 0.0
H2358 H 0.56541 0.31766 0.07849 0.0
H2359 H 0.52549 0.38762 0.10841 0.0
H2360 H 0.53981 0.41628 0.12667 0.0
H2361 H 0.52737 0.39122 0.14066 0.0
H2362 H 0.56501 0.39351 0.16534 0.0
H2363 H 0.57765 0.41861 0.15135 0.0
H2364 H 0.58895 0.39154 0.1501 0.0
H2365 H 0.58334 0.35129 0.06018 0.0
H2366 H 0.59207 0.38873 0.04281 0.0
H2367 H 0.57196 0.42984 0.1047 0.0
C2368 C 0.54067 0.34347 0.13521 0.0
C2369 C 0.53666 0.31799 0.12706 0.0
C2370 C 0.54573 0.30879 0.1066 0.0
C2371 C 0.55877 0.32473 0.09436 0.0
C2372 C 0.56255 0.34975 0.10284 0.0
C2373 C 0.55362 0.35919 0.12261 0.0
C2374 C 0.55814 0.38691 0.12615 0.0
C2375 C 0.53641 0.39603 0.12541 0.0
C2376 C 0.57335 0.39831 0.14963 0.0
C2377 C 0.56996 0.39136 0.10448 0.0
C2378 C 0.57291 0.36967 0.09182 0.0
C2379 C 0.58163 0.36853 0.07011 0.0
C2380 C 0.5867 0.39001 0.06047 0.0
C2381 C 0.58289 0.4123 0.07247 0.0
C2382 C 0.57513 0.41309 0.09517 0.0
H2383 H 0.05098 0.31505 0.3595 0.0
H2384 H 0.07878 0.393 0.36652 0.0
H2385 H 0.04524 0.39829 0.34321 0.0
H2386 H 0.02674 0.30777 0.29873 0.0
H2387 H 1.00222 0.28574 0.30179 0.0
H2388 H 0.02769 0.28769 0.32054 0.0
H2389 H 1.00838 0.29465 0.35872 0.0
H2390 H 0.98274 0.29205 0.3401 0.0
H2391 H 0.99344 0.3189 0.3626 0.0
H2392 H 1.01123 0.39528 0.318 0.0
H2393 H 0.97408 0.38524 0.29566 0.0
H2394 H 0.96739 0.30893 0.30382 0.0
C2395 C 0.0497 0.33317 0.35625 0.0
C2396 C 0.06717 0.35366 0.3643 0.0
C2397 C 0.06544 0.37718 0.35993 0.0
C2398 C 0.04657 0.38032 0.34682 0.0
C2399 C 0.02995 0.35966 0.33812 0.0
C2400 C 0.03105 0.33658 0.3428 0.0
C2401 C 1.01087 0.31754 0.33066 0.0
C2402 C 1.01727 0.29857 0.31182 0.0
C2403 C 0.9981 0.30507 0.34913 0.0
C2404 C 0.99819 0.3338 0.3189 0.0
C2405 C 1.00982 0.35789 0.32319 0.0
C2406 C 1.00188 0.37651 0.31435 0.0
C2407 C 0.98094 0.37056 0.30141 0.0
C2408 C 0.96823 0.34628 0.29777 0.0
C2409 C 0.97707 0.32753 0.30616 0.0
H2410 H 1.00157 0.67746 0.63669 0.0
H2411 H 1.0039 0.73395 0.592 0.0
H2412 H 1.01873 0.709 0.56121 0.0
H2413 H 0.05009 0.65718 0.62147 0.0
H2414 H 0.03845 0.62493 0.61948 0.0
H2415 H 0.02845 0.64714 0.63921 0.0
H2416 H 0.9884 0.62954 0.61839 0.0
H2417 H 0.99831 0.60691 0.59914 0.0
H2418 H 0.98283 0.62665 0.58627 0.0
H2419 H 0.03519 0.68071 0.53683 0.0
H2420 H 0.0441 0.64407 0.51399 0.0
H2421 H 0.02801 0.60378 0.5717 0.0
C2422 C 1.00465 0.68412 0.62009 0.0
C2423 C 1.00156 0.70742 0.6165 0.0
C2424 C 1.00582 0.71589 0.5948 0.0
C2425 C 1.01466 0.70212 0.57744 0.0
C2426 C 1.01847 0.67975 0.58187 0.0
C2427 C 1.01286 0.67021 0.60211 0.0
C2428 C 1.01701 0.64461 0.60111 0.0
C2429 C 0.03455 0.64343 0.62154 0.0
C2430 C 0.99535 0.62582 0.60122 0.0
C2431 C 0.02567 0.64152 0.57707 0.0
C2432 C 0.02699 0.66238 0.56677 0.0
C2433 C 0.03412 0.66412 0.54448 0.0
C2434 C 0.03908 0.64339 0.53172 0.0
C2435 C 0.03663 0.62155 0.54139 0.0
C2436 C 0.03034 0.62057 0.5644 0.0
H2437 H 0.67883 0.86168 0.84127 0.0
H2438 H 0.68747 0.81819 0.89706 0.0
H2439 H 0.70858 0.79463 0.87171 0.0
H2440 H 0.67472 0.81287 0.78972 0.0
H2441 H 0.6907 0.83274 0.77251 0.0
H2442 H 0.67423 0.845 0.79376 0.0
H2443 H 0.70869 0.87686 0.81535 0.0
H2444 H 0.72503 0.86498 0.79375 0.0
H2445 H 0.73314 0.86666 0.82539 0.0
H2446 H 0.72687 0.77464 0.84026 0.0
H2447 H 0.75104 0.76684 0.80953 0.0
H2448 H 0.73548 0.8268 0.77636 0.0
C2449 C 0.68538 0.84736 0.8482 0.0
C2450 C 0.68156 0.84173 0.87109 0.0
C2451 C 0.69039 0.82294 0.87964 0.0
C2452 C 0.70201 0.80913 0.86522 0.0
C2453 C 0.70478 0.81452 0.84241 0.0
C2454 C 0.69732 0.83358 0.83417 0.0
C2455 C 0.70474 0.83713 0.81002 0.0
C2456 C 0.6849 0.8316 0.79035 0.0
C2457 C 0.71874 0.86294 0.81122 0.0
C2458 C 0.71848 0.81796 0.80662 0.0
C2459 C 0.71717 0.80428 0.82494 0.0
C2460 C 0.72812 0.78528 0.82588 0.0
C2461 C 0.74172 0.78096 0.80826 0.0
C2462 C 0.74509 0.7964 0.79079 0.0
C2463 C 0.73299 0.81478 0.78954 0.0
H2464 H 0.49455 0.60959 0.70091 0.0
H2465 H 0.4852 0.53325 0.70882 0.0
H2466 H 0.50554 0.52544 0.67405 0.0
H2467 H 0.48685 0.59674 0.63428 0.0
H2468 H 0.50688 0.62342 0.63066 0.0
H2469 H 0.49256 0.62386 0.65692 0.0
H2470 H 0.52987 0.63581 0.68402 0.0
H2471 H 0.54428 0.63551 0.65786 0.0
H2472 H 0.54992 0.61701 0.68 0.0
H2473 H 0.52706 0.52487 0.63513 0.0
H2474 H 0.54662 0.53213 0.59981 0.0
H2475 H 0.54364 0.60865 0.61445 0.0
C2476 C 0.4968 0.59116 0.69553 0.0
C2477 C 0.48759 0.57203 0.70876 0.0
C2478 C 0.49136 0.54844 0.69986 0.0
C2479 C 0.50317 0.54377 0.67972 0.0
C2480 C 0.51149 0.56258 0.66702 0.0
C2481 C 0.5084 0.58596 0.67466 0.0
C2482 C 0.51842 0.60265 0.65702 0.0
C2483 C 0.5001 0.61226 0.64396 0.0
C2484 C 0.53671 0.62402 0.67054 0.0
C2485 C 0.52804 0.58539 0.6388 0.0
C2486 C 0.52355 0.56221 0.64486 0.0
C2487 C 0.53022 0.54305 0.63046 0.0
C2488 C 0.54133 0.5473 0.60984 0.0
C2489 C 0.54653 0.57076 0.60268 0.0
C2490 C 0.53979 0.59013 0.61822 0.0
H2491 H 0.79278 0.18196 0.96803 0.0
H2492 H 0.74962 0.20255 0.01936 0.0
H2493 H 0.72937 0.21937 0.9889 0.0
H2494 H 0.80224 0.23552 0.95064 0.0
H2495 H 0.80466 0.22529 0.9196 0.0
H2496 H 0.81017 0.20688 0.94156 0.0
H2497 H 0.7808 0.17004 0.9175 0.0
H2498 H 0.77512 0.18853 0.89535 0.0
H2499 H 0.75292 0.17339 0.90988 0.0
H2500 H 0.72206 0.24394 0.95996 0.0
H2501 H 0.72952 0.27633 0.93558 0.0
H2502 H 0.77539 0.23931 0.89991 0.0
C2503 C 0.7785 0.18924 0.9723 0.0
C2504 C 0.77253 0.19124 0.99557 0.0
C2505 C 0.75435 0.20131 1.00139 0.0
C2506 C 0.74255 0.2104 0.98412 0.0
C2507 C 0.74938 0.20933 0.96137 0.0
C2508 C 0.76702 0.19903 0.9554 0.0
C2509 C 0.77474 0.20571 0.93234 0.0
C2510 C 0.79937 0.21915 0.9363 0.0
C2511 C 0.77062 0.18305 0.9126 0.0
C2512 C 0.75967 0.22265 0.92719 0.0
C2513 C 0.74476 0.22397 0.94377 0.0
C2514 C 0.73288 0.24243 0.94618 0.0
C2515 C 0.73724 0.26082 0.93229 0.0
C2516 C 0.75317 0.26028 0.91613 0.0
C2517 C 0.76326 0.24012 0.91237 0.0
H2518 H 0.15389 0.59516 0.19195 0.0
H2519 H 0.16835 0.52283 0.18028 0.0
H2520 H 0.14231 0.51177 0.14275 0.0
H2521 H 0.09934 0.57838 0.17647 0.0
H2522 H 0.09586 0.60339 0.16116 0.0
H2523 H 0.1187 0.60756 0.18417 0.0
H2524 H 0.14634 0.62087 0.15458 0.0
H2525 H 0.12351 0.61723 0.13149 0.0
H2526 H 0.14546 0.60131 0.12625 0.0
H2527 H 0.10941 0.50591 0.11366 0.0
H2528 H 0.07545 0.50801 0.08839 0.0
H2529 H 0.08514 0.5853 0.11716 0.0
C2530 C 0.15208 0.5774 0.18082 0.0
C2531 C 0.16271 0.55968 0.18816 0.0
C2532 C 0.16015 0.53641 0.17413 0.0
C2533 C 0.14557 0.5301 0.15302 0.0
C2534 C 0.13446 0.54765 0.14651 0.0
C2535 C 0.13801 0.57109 0.1596 0.0
C2536 C 0.12255 0.58575 0.15007 0.0
C2537 C 0.10828 0.59423 0.16911 0.0
C2538 C 0.13523 0.60757 0.13998 0.0
C2539 C 0.10895 0.56636 0.13051 0.0
C2540 C 0.11598 0.54452 0.12876 0.0
C2541 C 0.1041 0.52305 0.11417 0.0
C2542 C 0.08479 0.52425 0.10035 0.0
C2543 C 0.07827 0.54679 0.10135 0.0
C2544 C 0.09027 0.56799 0.11642 0.0
H2545 H 0.83633 0.83952 0.47859 0.0
H2546 H 0.82029 0.90923 0.46898 0.0
H2547 H 0.81788 0.8977 0.4256 0.0
H2548 H 0.86958 0.83443 0.43119 0.0
H2549 H 0.85925 0.80211 0.4204 0.0
H2550 H 0.85884 0.81445 0.45141 0.0
H2551 H 0.81671 0.79669 0.44766 0.0
H2552 H 0.81711 0.78387 0.41675 0.0
H2553 H 0.79866 0.80386 0.42436 0.0
H2554 H 0.81975 0.88172 0.3845 0.0
H2555 H 0.82093 0.85835 0.34476 0.0
H2556 H 0.83427 0.79729 0.37761 0.0
C2557 C 0.83207 0.85213 0.46726 0.0
C2558 C 0.82883 0.87548 0.47734 0.0
C2559 C 0.82314 0.89141 0.46189 0.0
C2560 C 0.82171 0.88506 0.43711 0.0
C2561 C 0.82569 0.8625 0.42776 0.0
C2562 C 0.83027 0.8459 0.44206 0.0
C2563 C 0.83344 0.82271 0.42656 0.0
C2564 C 0.85667 0.81817 0.43276 0.0
C2565 C 0.8154 0.80047 0.42898 0.0
C2566 C 0.83059 0.82948 0.40161 0.0
C2567 C 0.82614 0.85261 0.40307 0.0
C2568 C 0.82297 0.86348 0.38298 0.0
C2569 C 0.82375 0.85015 0.36055 0.0
C2570 C 0.82767 0.82625 0.35832 0.0
C2571 C 0.83139 0.81569 0.37904 0.0
H2572 H 0.46902 0.57548 0.86673 0.0
H2573 H 0.52218 0.5745 0.82251 0.0
H2574 H 0.54618 0.56761 0.85684 0.0
H2575 H 0.50277 0.60661 0.92295 0.0
H2576 H 0.48714 0.58832 0.94171 0.0
H2577 H 0.47388 0.59291 0.91371 0.0
H2578 H 0.46165 0.54597 0.90038 0.0
H2579 H 0.47506 0.54129 0.92829 0.0
H2580 H 0.48218 0.52756 0.9002 0.0
H2581 H 0.5652 0.55904 0.89738 0.0
H2582 H 0.57695 0.55309 0.9386 0.0
H2583 H 0.51319 0.5615 0.95903 0.0
C2584 C 0.48577 0.57404 0.86419 0.0
C2585 C 0.49332 0.57589 0.84108 0.0
C2586 C 0.5155 0.57341 0.83938 0.0
C2587 C 0.52944 0.56937 0.85908 0.0
C2588 C 0.52154 0.56759 0.88131 0.0
C2589 C 0.50014 0.56994 0.884 0.0
C2590 C 0.49576 0.5671 0.90992 0.0
C2591 C 0.48951 0.59011 0.92283 0.0
C2592 C 0.47757 0.54413 0.90969 0.0
C2593 C 0.51812 0.56385 0.92167 0.0
C2594 C 0.5326 0.56356 0.90456 0.0
C2595 C 0.55385 0.5596 0.91072 0.0
C2596 C 0.5605 0.55617 0.93448 0.0
C2597 C 0.54649 0.55715 0.95292 0.0
C2598 C 0.5248 0.56105 0.94596 0.0
H2599 H 0.81617 0.23702 0.10401 0.0
H2600 H 0.79851 0.16924 0.13244 0.0
H2601 H 0.79305 0.19266 0.17051 0.0
H2602 H 0.84773 0.2713 0.15452 0.0
H2603 H 0.83919 0.29965 0.15235 0.0
H2604 H 0.83814 0.27772 0.1257 0.0
H2605 H 0.79646 0.27642 0.11508 0.0
H2606 H 0.79746 0.29865 0.14164 0.0
H2607 H 0.77767 0.26978 0.13684 0.0
H2608 H 0.79695 0.2215 0.20581 0.0
H2609 H 0.80825 0.25533 0.23857 0.0
H2610 H 0.81948 0.30685 0.18889 0.0
C2611 C 0.8111 0.22718 0.11829 0.0
C2612 C 0.80804 0.20145 0.1156 0.0
C2613 C 0.80125 0.18902 0.1344 0.0
C2614 C 0.79776 0.2021 0.15588 0.0
C2615 C 0.80093 0.22743 0.15799 0.0
C2616 C 0.80737 0.23997 0.13983 0.0
C2617 C 0.81179 0.26748 0.14791 0.0
C2618 C 0.83563 0.27975 0.14496 0.0
C2619 C 0.79482 0.27874 0.13457 0.0
C2620 C 0.80834 0.2683 0.17401 0.0
C2621 C 0.80165 0.24484 0.17902 0.0
C2622 C 0.80084 0.24003 0.20208 0.0
C2623 C 0.80708 0.25963 0.22068 0.0
C2624 C 0.81308 0.284 0.21628 0.0
C2625 C 0.81372 0.28852 0.1926 0.0
H2626 H 0.18061 0.61874 0.32105 0.0
H2627 H 0.15635 0.54051 0.31719 0.0
H2628 H 0.12938 0.54876 0.34507 0.0
H2629 H 0.17531 0.63994 0.38247 0.0
H2630 H 0.16504 0.66622 0.3759 0.0
H2631 H 0.18317 0.65382 0.35697 0.0
H2632 H 0.15393 0.64957 0.32025 0.0
H2633 H 0.13531 0.66109 0.33924 0.0
H2634 H 0.1264 0.6317 0.32003 0.0
H2635 H 0.10318 0.56474 0.36834 0.0
H2636 H 0.08454 0.58774 0.39682 0.0
H2637 H 0.12677 0.65624 0.38773 0.0
C2638 C 0.17019 0.60345 0.32692 0.0
C2639 C 0.17048 0.57902 0.31764 0.0
C2640 C 0.15623 0.55927 0.32463 0.0
C2641 C 0.14077 0.5638 0.34001 0.0
C2642 C 0.13981 0.5881 0.34756 0.0
C2643 C 0.15437 0.60765 0.34179 0.0
C2644 C 0.14928 0.63192 0.35192 0.0
C2645 C 0.1694 0.64896 0.36779 0.0
C2646 C 0.14074 0.6443 0.33166 0.0
C2647 C 0.13086 0.62292 0.36617 0.0
C2648 C 0.12492 0.59754 0.36204 0.0
C2649 C 0.10778 0.58456 0.37203 0.0
C2650 C 0.09727 0.59781 0.388 0.0
C2651 C 0.10463 0.62362 0.39449 0.0
C2652 C 0.12107 0.63654 0.38294 0.0
H2653 H 0.85082 0.85211 0.61551 0.0
H2654 H 0.79644 0.88929 0.61048 0.0
H2655 H 0.78187 0.87153 0.64447 0.0
H2656 H 0.82062 0.7962 0.63531 0.0
H2657 H 0.84362 0.7946 0.65627 0.0
H2658 H 0.84854 0.80794 0.62976 0.0
H2659 H 0.87179 0.84709 0.65651 0.0
H2660 H 0.86613 0.83487 0.68342 0.0
H2661 H 0.85943 0.86361 0.67931 0.0
H2662 H 0.77251 0.84963 0.67881 0.0
H2663 H 0.77082 0.82784 0.71354 0.0
H2664 H 0.83298 0.8078 0.70084 0.0
C2665 C 0.83568 0.85618 0.62139 0.0
C2666 C 0.8247 0.87206 0.61003 0.0
C2667 C 0.8052 0.87727 0.61873 0.0
C2668 C 0.7967 0.86715 0.63805 0.0
C2669 C 0.80798 0.85198 0.6491 0.0
C2670 C 0.82715 0.8466 0.64129 0.0
C2671 C 0.83682 0.83131 0.65785 0.0
C2672 C 0.83743 0.80601 0.64397 0.0
C2673 C 0.85993 0.84504 0.66997 0.0
C2674 C 0.82015 0.82906 0.6761 0.0
C2675 C 0.80344 0.84079 0.67029 0.0
C2676 C 0.78565 0.84064 0.68366 0.0
C2677 C 0.78483 0.82826 0.70345 0.0
C2678 C 0.80192 0.81661 0.71034 0.0
C2679 C 0.8199 0.81708 0.69641 0.0
H2680 H 0.76737 0.46012 0.54508 0.0
H2681 H 0.79645 0.51313 0.50237 0.0
H2682 H 0.7755 0.54234 0.52032 0.0
H2683 H 0.71511 0.46801 0.54036 0.0
H2684 H 0.71005 0.46661 0.57097 0.0
H2685 H 0.73024 0.45157 0.55839 0.0
H2686 H 0.76022 0.47567 0.59267 0.0
H2687 H 0.74005 0.49071 0.60567 0.0
H2688 H 0.76538 0.50865 0.59874 0.0
H2689 H 0.7494 0.56328 0.5383 0.0
H2690 H 0.71623 0.57448 0.55297 0.0
H2691 H 0.70244 0.50793 0.58371 0.0
C2692 C 0.76915 0.47785 0.53945 0.0
C2693 C 0.783 0.48437 0.52199 0.0
C2694 C 0.78558 0.50784 0.51547 0.0
C2695 C 0.77408 0.52461 0.52585 0.0
C2696 C 0.76055 0.5177 0.54303 0.0
C2697 C 0.75803 0.49496 0.54991 0.0
C2698 C 0.74102 0.49158 0.56733 0.0
C2699 C 0.72303 0.46807 0.55871 0.0
C2700 C 0.75234 0.49166 0.59259 0.0
C2701 C 0.73228 0.51468 0.56651 0.0
C2702 C 0.74483 0.53002 0.55353 0.0
C2703 C 0.7397 0.55181 0.54894 0.0
C2704 C 0.72088 0.55797 0.55727 0.0
C2705 C 0.70722 0.54217 0.56958 0.0
C2706 C 0.71302 0.5204 0.57465 0.0
H2707 H 0.22684 0.16174 0.54418 0.0
H2708 H 0.22947 0.15453 0.46752 0.0
H2709 H 0.19288 0.12609 0.46028 0.0
H2710 H 0.2011 0.0967 0.54179 0.0
H2711 H 0.1844 0.10219 0.5655 0.0
H2712 H 0.21041 0.12304 0.56516 0.0
H2713 H 0.19068 0.15913 0.56663 0.0
H2714 H 0.16458 0.13845 0.56699 0.0
H2715 H 0.16774 0.15769 0.54428 0.0
H2716 H 0.15652 0.09868 0.46059 0.0
H2717 H 0.12243 0.07178 0.46807 0.0
H2718 H 0.14155 0.09356 0.54481 0.0
C2719 C 0.21948 0.15434 0.5259 0.0
C2720 C 0.2309 0.16076 0.50627 0.0
C2721 C 0.22104 0.15012 0.48272 0.0
C2722 C 0.20021 0.13391 0.47846 0.0
C2723 C 0.18939 0.12787 0.49797 0.0
C2724 C 0.19868 0.13743 0.52129 0.0
C2725 C 0.1837 0.12646 0.5388 0.0
C2726 C 0.19561 0.11119 0.5537 0.0
C2727 C 0.17623 0.14664 0.55514 0.0
C2728 C 0.16422 0.11 0.52159 0.0
C2729 C 0.16819 0.11117 0.49817 0.0
C2730 C 0.15324 0.0976 0.47884 0.0
C2731 C 0.13381 0.08229 0.48331 0.0
C2732 C 0.12899 0.08038 0.50695 0.0
C2733 C 0.1445 0.09467 0.52647 0.0
H2734 H 0.2178 0.95383 0.75281 0.0
H2735 H 0.24443 0.99093 0.82489 0.0
H2736 H 0.26677 0.95993 0.82869 0.0
H2737 H 0.21583 0.89015 0.76115 0.0
H2738 H 0.22616 0.88047 0.7335 0.0
H2739 H 0.21177 0.90524 0.73575 0.0
H2740 H 0.245 0.93321 0.72273 0.0
H2741 H 0.25953 0.90852 0.72049 0.0
H2742 H 0.27204 0.93753 0.73917 0.0
H2743 H 0.2884 0.92418 0.82523 0.0
H2744 H 0.30534 0.88867 0.81518 0.0
H2745 H 0.26637 0.87045 0.74553 0.0
C2746 C 0.2282 0.95551 0.76955 0.0
C2747 C 0.22851 0.97593 0.78877 0.0
C2748 C 0.24317 0.97644 0.80975 0.0
C2749 C 0.25619 0.95848 0.81211 0.0
C2750 C 0.25556 0.93907 0.79322 0.0
C2751 C 0.24201 0.93751 0.77211 0.0
C2752 C 0.24552 0.91506 0.7543 0.0
C2753 C 0.2235 0.89663 0.74566 0.0
C2754 C 0.25613 0.9241 0.73289 0.0
C2755 C 0.26187 0.90342 0.76911 0.0
C2756 C 0.26775 0.91823 0.79137 0.0
C2757 C 0.28341 0.91255 0.80789 0.0
C2758 C 0.29307 0.8918 0.80205 0.0
C2759 C 0.28737 0.87512 0.77995 0.0
C2760 C 0.27126 0.88167 0.76308 0.0
H2761 H 0.39924 0.9608 0.98633 0.0
H2762 H 0.3921 0.98037 0.06147 0.0
H2763 H 0.42727 1.01123 0.06717 0.0
H2764 H 0.46045 0.9688 0.9947 0.0
H2765 H 0.4627 0.98035 0.96686 0.0
H2766 H 0.43828 0.9585 0.97033 0.0
H2767 H 0.41515 0.9893 0.95805 0.0
H2768 H 0.43973 1.01196 0.95658 0.0
H2769 H 0.41972 1.01942 0.97588 0.0
H2770 H 0.45874 0.0422 0.06347 0.0
H2771 H 0.49459 0.0632 0.05524 0.0
H2772 H 0.48238 0.02326 0.98227 0.0
C2773 C 0.40575 0.97098 1.0041 0.0
C2774 C 0.39368 0.96881 0.02359 0.0
C2775 C 0.4018 0.98217 0.04664 0.0
C2776 C 0.42133 0.99985 0.04986 0.0
C2777 C 0.43201 1.00323 0.02976 0.0
C2778 C 0.42525 0.9885 1.00763 0.0
C2779 C 0.44026 0.99571 0.98928 0.0
C2780 C 0.45107 0.97459 0.97975 0.0
C2781 C 0.42797 1.00463 0.96874 0.0
C2782 C 0.45673 1.01653 1.00484 0.0
C2783 C 0.451 0.02102 0.02778 0.0
C2784 C 0.46377 0.03862 0.04578 0.0
C2785 C 0.4842 0.05032 0.04091 0.0
C2786 C 0.49152 0.04402 0.01844 0.0
C2787 C 0.47715 0.02816 0.99967 0.0
H2788 H 0.91898 0.58899 0.76449 0.0
H2789 H 0.88923 0.57688 0.82916 0.0
H2790 H 0.86083 0.5994 0.81792 0.0
H2791 H 0.91219 0.64845 0.76248 0.0
H2792 H 0.90447 0.64405 0.7305 0.0
H2793 H 0.92162 0.62565 0.7428 0.0
H2794 H 0.89366 0.58623 0.72172 0.0
H2795 H 0.87631 0.60455 0.70943 0.0
H2796 H 0.86509 0.58194 0.72695 0.0
H2797 H 0.83755 0.62381 0.80161 0.0
H2798 H 0.821 0.65307 0.78216 0.0
H2799 H 0.86496 0.64978 0.72719 0.0
C2800 C 0.90651 0.59134 0.77625 0.0
C2801 C 0.90612 0.58166 0.79773 0.0
C2802 C 0.88955 0.58438 0.81265 0.0
C2803 C 0.87335 0.59687 0.80633 0.0
C2804 C 0.87385 0.60584 0.7848 0.0
C2805 C 0.88989 0.60328 0.7699 0.0
C2806 C 0.8867 0.61529 0.74805 0.0
C2807 C 0.90748 0.63452 0.74586 0.0
C2808 C 0.88005 0.59584 0.72519 0.0
C2809 C 0.86751 0.62681 0.7542 0.0
C2810 C 0.85997 0.6202 0.77504 0.0
C2811 C 0.843 0.62892 0.78513 0.0
C2812 C 0.83377 0.64545 0.77402 0.0
C2813 C 0.84179 0.6533 0.75333 0.0
C2814 C 0.85849 0.64358 0.74285 0.0
H2815 H 0.83934 0.6449 0.02875 0.0
H2816 H 0.87529 0.72014 0.03384 0.0
H2817 H 0.90996 0.7083 0.04679 0.0
H2818 H 0.87183 0.63148 0.08081 0.0
H2819 H 0.87098 0.60047 0.06688 0.0
H2820 H 0.84855 0.61495 0.05943 0.0
H2821 H 0.85353 0.60621 1.01435 0.0
H2822 H 0.87572 0.59147 0.02172 0.0
H2823 H 0.88034 0.61647 1.00506 0.0
H2824 H 0.94123 0.68796 0.05608 0.0
H2825 H 0.96682 0.66 0.05999 0.0
H2826 H 0.91092 0.59824 0.05048 0.0
C2827 C 0.8545 0.65888 0.03266 0.0
C2828 C 0.85457 0.68345 0.03014 0.0
C2829 C 0.87478 0.70119 0.03551 0.0
C2830 C 0.89458 0.69468 0.04303 0.0
C2831 C 0.89396 0.67036 0.04533 0.0
C2832 C 0.87447 0.65271 0.04035 0.0
C2833 C 0.87859 0.62767 0.04335 0.0
C2834 C 0.86679 0.61808 0.06384 0.0
C2835 C 0.87164 0.60939 0.01971 0.0
C2836 C 0.90351 0.63388 0.04991 0.0
C2837 C 0.91202 0.65867 0.05124 0.0
C2838 C 0.93473 0.66856 0.05538 0.0
C2839 C 0.94914 0.6526 0.05754 0.0
C2840 C 0.94078 0.6271 0.05572 0.0
C2841 C 0.91767 0.61775 0.05243 0.0
H2842 H 0.23979 0.1286 0.82344 0.0
H2843 H 0.22011 0.10348 0.74729 0.0
H2844 H 0.2395 0.14345 0.73902 0.0
H2845 H 0.23271 0.19228 0.82058 0.0
H2846 H 0.25543 0.20671 0.84345 0.0
H2847 H 0.24032 0.17599 0.84392 0.0
H2848 H 0.27659 0.16049 0.84401 0.0
H2849 H 0.29183 0.19116 0.84375 0.0
H2850 H 0.29405 0.16633 0.82087 0.0
H2851 H 0.26177 0.18776 0.73829 0.0
H2852 H 0.28524 0.22973 0.74538 0.0
H2853 H 0.29173 0.22885 0.82172 0.0
C2854 C 0.23971 0.13136 0.80498 0.0
C2855 C 0.2282 0.11188 0.786 0.0
C2856 C 0.2285 0.11733 0.76232 0.0
C2857 C 0.2396 0.14033 0.75738 0.0
C2858 C 0.25047 0.159 0.77621 0.0
C2859 C 0.25054 0.15485 0.79965 0.0
C2860 C 0.26297 0.17863 0.81651 0.0
C2861 C 0.24691 0.18901 0.83206 0.0
C2862 C 0.28253 0.17386 0.83222 0.0
C2863 C 0.27093 0.19616 0.79898 0.0
C2864 C 0.26298 0.18452 0.7758 0.0
C2865 C 0.26775 0.19689 0.75649 0.0
C2866 C 0.28103 0.22119 0.76072 0.0
C2867 C 0.29 0.23386 0.78415 0.0
C2868 C 0.28473 0.22061 0.80352 0.0
H2869 H 0.43138 0.95286 0.33233 0.0
H2870 H 0.42373 0.96112 0.25794 0.0
H2871 H 0.38437 0.94054 0.25385 0.0
H2872 H 0.38642 0.89382 0.3258 0.0
H2873 H 0.38042 0.90426 0.35551 0.0
H2874 H 0.40823 0.91196 0.34808 0.0
H2875 H 0.40686 0.95757 0.36297 0.0
H2876 H 0.37805 0.94994 0.36692 0.0
H2877 H 0.3873 0.97115 0.34719 0.0
H2878 H 0.34528 0.92822 0.26059 0.0
H2879 H 0.31147 0.90428 0.27217 0.0
H2880 H 0.34405 0.91073 0.34403 0.0
C2881 C 0.42178 0.94851 0.31477 0.0
C2882 C 0.42946 0.95997 0.29595 0.0
C2883 C 0.41735 0.95317 0.27285 0.0
C2884 C 0.39483 0.94241 0.27061 0.0
C2885 C 0.38606 0.93713 0.2914 0.0
C2886 C 0.39927 0.93855 0.31271 0.0
C2887 C 0.38579 0.93259 0.33264 0.0
C2888 C 0.39049 0.90927 0.34107 0.0
C2889 C 0.38976 0.95412 0.35365 0.0
C2890 C 0.36289 0.92823 0.31933 0.0
C2891 C 0.36346 0.93136 0.29563 0.0
C2892 C 0.34458 0.92551 0.279 0.0
C2893 C 0.32532 0.91251 0.28586 0.0
C2894 C 0.32613 0.90497 0.30846 0.0
C2895 C 0.34351 0.91626 0.32654 0.0
H2896 H 0.57826 0.37683 0.57384 0.0
H2897 H 0.62184 0.41303 0.63875 0.0
H2898 H 0.61895 0.453 0.62873 0.0
H2899 H 0.59868 0.42148 0.53585 0.0
H2900 H 0.57199 0.42117 0.5204 0.0
H2901 H 0.57678 0.39438 0.53197 0.0
H2902 H 0.54343 0.39471 0.55591 0.0
H2903 H 0.53864 0.42159 0.54448 0.0
H2904 H 0.54247 0.42195 0.57638 0.0
H2905 H 0.61295 0.48899 0.613 0.0
H2906 H 0.60416 0.52085 0.59158 0.0
H2907 H 0.56309 0.46528 0.53548 0.0
C2908 C 0.58729 0.39322 0.58581 0.0
C2909 C 0.60052 0.39145 0.60721 0.0
C2910 C 0.61172 0.4135 0.62236 0.0
C2911 C 0.61015 0.43649 0.61682 0.0
C2912 C 0.59713 0.43769 0.59597 0.0
C2913 C 0.58577 0.41684 0.58055 0.0
C2914 C 0.57294 0.42429 0.55937 0.0
C2915 C 0.58056 0.41476 0.53548 0.0
C2916 C 0.54788 0.41508 0.55902 0.0
C2917 C 0.57945 0.45243 0.56527 0.0
C2918 C 0.59333 0.45934 0.58663 0.0
C2919 C 0.60214 0.48383 0.59621 0.0
C2920 C 0.59707 0.50192 0.58367 0.0
C2921 C 0.58312 0.49598 0.5615 0.0
C2922 C 0.57384 0.47065 0.55231 0.0
H2923 H 0.44274 0.77473 0.40046 0.0
H2924 H 0.49075 0.82917 0.3751 0.0
H2925 H 0.46058 0.84497 0.35633 0.0
H2926 H 0.40283 0.76249 0.3465 0.0
H2927 H 0.37861 0.75844 0.36194 0.0
H2928 H 0.40376 0.75164 0.37481 0.0
H2929 H 0.40316 0.78139 0.41367 0.0
H2930 H 0.37806 0.78846 0.40098 0.0
H2931 H 0.40196 0.81276 0.41215 0.0
H2932 H 0.42453 0.85395 0.33734 0.0
H2933 H 0.38658 0.85402 0.31995 0.0
H2934 H 0.36022 0.79542 0.35724 0.0
C2935 C 0.44692 0.78996 0.39093 0.0
C2936 C 0.46967 0.80044 0.38935 0.0
C2937 C 0.47387 0.8204 0.37659 0.0
C2938 C 0.45665 0.82971 0.36585 0.0
C2939 C 0.43463 0.81904 0.36752 0.0
C2940 C 0.42963 0.79947 0.37965 0.0
C2941 C 0.40433 0.79087 0.3777 0.0
C2942 C 0.39694 0.76428 0.36446 0.0
C2943 C 0.39642 0.79353 0.40262 0.0
C2944 C 0.39601 0.80861 0.3628 0.0
C2945 C 0.41387 0.82477 0.3572 0.0
C2946 C 0.41051 0.84186 0.34241 0.0
C2947 C 0.38865 0.84232 0.33302 0.0
C2948 C 0.36974 0.82639 0.33868 0.0
C2949 C 0.37389 0.80906 0.35366 0.0
H2950 H 0.09485 0.73783 0.12725 0.0
H2951 H 0.08695 0.76567 0.06049 0.0
H2952 H 0.07902 0.72318 0.03803 0.0
H2953 H 0.12262 0.69071 0.10524 0.0
H2954 H 0.10943 0.66885 0.12251 0.0
H2955 H 0.11366 0.70122 0.13347 0.0
H2956 H 0.07177 0.6965 0.13667 0.0
H2957 H 0.06752 0.66407 0.126 0.0
H2958 H 0.05206 0.68229 0.11073 0.0
H2959 H 0.07108 0.67716 0.02288 0.0
H2960 H 0.06545 0.63179 0.01634 0.0
H2961 H 0.08063 0.6342 0.09267 0.0
C2962 C 0.09146 0.73502 0.10788 0.0
C2963 C 0.09156 0.75517 0.0956 0.0
C2964 C 0.0871 0.75061 0.07027 0.0
C2965 C 0.0825 0.72651 0.05739 0.0
C2966 C 0.08264 0.7071 0.07004 0.0
C2967 C 0.08713 0.71111 0.09475 0.0
C2968 C 0.08675 0.68714 0.10403 0.0
C2969 C 0.10947 0.68698 0.11708 0.0
C2970 C 0.06843 0.68222 0.12032 0.0
C2971 C 0.08143 0.66899 0.08071 0.0
C2972 C 0.07888 0.68083 0.0613 0.0
C2973 C 0.07321 0.66779 0.03795 0.0
C2974 C 0.07005 0.64208 0.03437 0.0
C2975 C 0.07285 0.62972 0.05396 0.0
C2976 C 0.07867 0.64335 0.07739 0.0
H2977 H 0.1001 0.26728 0.9006 0.0
H2978 H 0.08301 0.33771 0.89918 0.0
H2979 H 0.1185 0.35306 0.88421 0.0
H2980 H 0.16026 0.29439 0.91985 0.0
H2981 H 0.16895 0.26923 0.90287 0.0
H2982 H 0.14277 0.26408 0.91472 0.0
H2983 H 0.12272 0.24533 0.87214 0.0
H2984 H 0.14883 0.2503 0.86026 0.0
H2985 H 0.1266 0.2628 0.8481 0.0
H2986 H 0.15591 0.3609 0.86939 0.0
H2987 H 0.19053 0.35986 0.85228 0.0
H2988 H 0.1832 0.28334 0.86042 0.0
C2989 C 0.1038 0.28581 0.89682 0.0
C2990 C 0.08851 0.30116 0.90043 0.0
C2991 C 0.09425 0.32554 0.89608 0.0
C2992 C 0.11448 0.33447 0.88778 0.0
C2993 C 0.12918 0.31896 0.88426 0.0
C2994 C 0.12418 0.29516 0.88869 0.0
C2995 C 0.14304 0.28244 0.88327 0.0
C2996 C 0.15442 0.27721 0.90656 0.0
C2997 C 0.1348 0.25882 0.86483 0.0
C2998 C 0.15844 0.30205 0.87318 0.0
C2999 C 0.1505 0.32327 0.8749 0.0
C3000 C 0.16204 0.34419 0.86755 0.0
C3001 C 0.18174 0.34324 0.85744 0.0
C3002 C 0.18975 0.32125 0.85381 0.0
C3003 C 0.17795 0.30056 0.86253 0.0
H3004 H 0.61251 0.79946 0.96053 0.0
H3005 H 0.59484 0.76723 0.88532 0.0
H3006 H 0.57897 0.72745 0.89666 0.0
H3007 H 0.62894 0.74821 0.97953 0.0
H3008 H 0.618 0.75192 1.00785 0.0
H3009 H 0.62682 0.77819 0.99379 0.0
H3010 H 0.58819 0.78854 0.99516 0.0
H3011 H 0.57913 0.76227 1.00921 0.0
H3012 H 0.56386 0.76568 0.98185 0.0
H3013 H 0.56751 0.69053 0.9161 0.0
H3014 H 0.56078 0.65925 0.9426 0.0
H3015 H 0.58462 0.71587 1.00489 0.0
C3016 C 0.60524 0.78403 0.94649 0.0
C3017 C 0.60499 0.78631 0.9221 0.0
C3018 C 0.59533 0.76578 0.90416 0.0
C3019 C 0.58617 0.74316 0.91041 0.0
C3020 C 0.58674 0.74145 0.93464 0.0
C3021 C 0.59596 0.76133 0.95239 0.0
C3022 C 0.59516 0.75441 0.97707 0.0
C3023 C 0.61862 0.75842 0.99033 0.0
C3024 C 0.58072 0.76857 0.99168 0.0
C3025 C 0.58438 0.72744 0.97041 0.0
C3026 C 0.5796 0.7203 0.94584 0.0
C3027 C 0.57089 0.69592 0.93538 0.0
C3028 C 0.56717 0.67833 0.95047 0.0
C3029 C 0.57195 0.68537 0.97565 0.0
C3030 C 0.58041 0.71022 0.98568 0.0
H3031 H 0.0742 0.75741 0.72439 0.0
H3032 H 0.08139 0.80491 0.67088 0.0
H3033 H 0.12124 0.81926 0.6853 0.0
H3034 H 0.11556 0.79586 0.77215 0.0
H3035 H 0.12579 0.77017 0.78041 0.0
H3036 H 0.09728 0.76604 0.76815 0.0
H3037 H 0.10206 0.73162 0.73472 0.0
H3038 H 0.13048 0.73551 0.74694 0.0
H3039 H 0.12373 0.73794 0.71598 0.0
H3040 H 0.16009 0.8266 0.70369 0.0
H3041 H 0.19661 0.82348 0.72243 0.0
H3042 H 0.1643 0.76906 0.76191 0.0
C3043 C 0.08421 0.77118 0.71618 0.0
C3044 C 0.07512 0.78042 0.6969 0.0
C3045 C 0.08845 0.79783 0.68582 0.0
C3046 C 0.11092 0.80619 0.69396 0.0
C3047 C 0.11964 0.79662 0.71294 0.0
C3048 C 0.10681 0.77926 0.72371 0.0
C3049 C 0.12077 0.76979 0.74173 0.0
C3050 C 0.11447 0.77584 0.76712 0.0
C3051 C 0.11917 0.74209 0.73439 0.0
C3052 C 0.14336 0.78452 0.73936 0.0
C3053 C 0.14232 0.80013 0.72292 0.0
C3054 C 0.16118 0.81461 0.71676 0.0
C3055 C 0.18178 0.81266 0.72738 0.0
C3056 C 0.18315 0.79613 0.74366 0.0
C3057 C 0.16369 0.7823 0.75 0.0
H3058 H 0.10238 0.40465 0.46107 0.0
H3059 H 0.13755 0.43996 0.4085 0.0
H3060 H 0.12273 0.47696 0.42011 0.0
H3061 H 0.0534 0.42902 0.45144 0.0
H3062 H 0.04916 0.43207 0.48262 0.0
H3063 H 0.06224 0.4084 0.46972 0.0
H3064 H 0.09633 0.42449 0.50214 0.0
H3065 H 0.08307 0.44772 0.5154 0.0
H3066 H 0.11027 0.45633 0.50647 0.0
H3067 H 0.10434 0.51036 0.43839 0.0
H3068 H 0.08787 0.53871 0.46521 0.0
H3069 H 0.06466 0.48031 0.50447 0.0
C3070 C 0.10724 0.42027 0.4522 0.0
C3071 C 0.1213 0.41962 0.43413 0.0
C3072 C 0.12698 0.44027 0.42265 0.0
C3073 C 0.11844 0.46119 0.42889 0.0
C3074 C 0.10408 0.46091 0.44637 0.0
C3075 C 0.0987 0.44101 0.45795 0.0
C3076 C 0.08346 0.44533 0.47655 0.0
C3077 C 0.06072 0.42765 0.46966 0.0
C3078 C 0.09392 0.44337 0.50162 0.0
C3079 C 0.08196 0.47127 0.47453 0.0
C3080 C 0.09343 0.47982 0.45661 0.0
C3081 C 0.09511 0.50379 0.45228 0.0
C3082 C 0.08559 0.51968 0.46737 0.0
C3083 C 0.07501 0.51139 0.48656 0.0
C3084 C 0.07258 0.48683 0.48969 0.0
H3085 H 0.44844 0.29887 0.19258 0.0
H3086 H 0.46019 0.23174 0.21471 0.0
H3087 H 0.42837 0.22964 0.23781 0.0
H3088 H 0.43491 0.32456 0.24869 0.0
H3089 H 0.41365 0.33824 0.23624 0.0
H3090 H 0.43631 0.33382 0.2197 0.0
H3091 H 0.4089 0.30885 0.18333 0.0
H3092 H 0.38616 0.31371 0.19955 0.0
H3093 H 0.38818 0.28299 0.18756 0.0
H3094 H 0.39635 0.23448 0.25817 0.0
H3095 H 0.36364 0.24571 0.2746 0.0
H3096 H 0.37424 0.31124 0.24177 0.0
C3097 C 0.44402 0.28363 0.20207 0.0
C3098 C 0.45647 0.26547 0.20213 0.0
C3099 C 0.45069 0.24586 0.21481 0.0
C3100 C 0.43275 0.2445 0.22788 0.0
C3101 C 0.42115 0.26307 0.22818 0.0
C3102 C 0.42638 0.28224 0.2156 0.0
C3103 C 0.41153 0.30016 0.21972 0.0
C3104 C 0.4249 0.3257 0.23182 0.0
C3105 C 0.39788 0.30148 0.19614 0.0
C3106 C 0.39721 0.28789 0.23654 0.0
C3107 C 0.40302 0.2665 0.24104 0.0
C3108 C 0.3916 0.25126 0.25505 0.0
C3109 C 0.37321 0.25776 0.26431 0.0
C3110 C 0.36688 0.2794 0.25964 0.0
C3111 C 0.37922 0.2949 0.24604 0.0
H3112 H 0.67356 0.5364 0.38604 0.0
H3113 H 0.62259 0.54991 0.33583 0.0
H3114 H 0.59971 0.55556 0.3687 0.0
H3115 H 0.63339 0.5015 0.421 0.0
H3116 H 0.64996 0.5127 0.44966 0.0
H3117 H 0.66307 0.51027 0.4226 0.0
H3118 H 0.68238 0.55603 0.43355 0.0
H3119 H 0.66917 0.55858 0.46054 0.0
H3120 H 0.66593 0.57866 0.43919 0.0
H3121 H 0.58105 0.56088 0.40885 0.0
H3122 H 0.56815 0.5614 0.44856 0.0
H3123 H 0.62843 0.54231 0.47621 0.0
C3124 C 0.65762 0.54065 0.38177 0.0
C3125 C 0.65065 0.54286 0.35705 0.0
C3126 C 0.62915 0.54806 0.35361 0.0
C3127 C 0.61576 0.55141 0.37264 0.0
C3128 C 0.62308 0.54927 0.39631 0.0
C3129 C 0.64348 0.54357 0.40092 0.0
C3130 C 0.64665 0.54113 0.42805 0.0
C3131 C 0.64839 0.51484 0.43048 0.0
C3132 C 0.66728 0.5597 0.44111 0.0
C3133 C 0.62539 0.54692 0.43811 0.0
C3134 C 0.61211 0.55159 0.41918 0.0
C3135 C 0.59164 0.5572 0.42344 0.0
C3136 C 0.58437 0.55763 0.44668 0.0
C3137 C 0.59688 0.55267 0.46709 0.0
C3138 C 0.61812 0.54716 0.46212 0.0
H3139 H 0.3477 0.94834 0.09714 0.0
H3140 H 0.31289 0.87725 0.05715 0.0
H3141 H 0.32305 0.85768 0.09107 0.0
H3142 H 0.3927 0.92627 0.12795 0.0
H3143 H 0.39373 0.94678 0.15567 0.0
H3144 H 0.38561 0.95561 0.12752 0.0
H3145 H 0.3491 0.96305 0.1427 0.0
H3146 H 0.35712 0.95425 0.17082 0.0
H3147 H 0.3311 0.93874 0.15339 0.0
H3148 H 0.33609 0.84561 0.12732 0.0
H3149 H 0.34632 0.84139 0.16882 0.0
H3150 H 0.37094 0.92015 0.18791 0.0
C3151 C 0.34209 0.92868 0.09568 0.0
C3152 C 0.32948 0.91418 0.07465 0.0
C3153 C 0.32247 0.88859 0.07319 0.0
C3154 C 0.3284 0.8773 0.09218 0.0
C3155 C 0.34127 0.89194 0.11237 0.0
C3156 C 0.34778 0.91707 0.11459 0.0
C3157 C 0.36018 0.92841 0.13919 0.0
C3158 C 0.38449 0.93995 0.13746 0.0
C3159 C 0.34867 0.9472 0.1523 0.0
C3160 C 0.35846 0.90566 0.1507 0.0
C3161 C 0.34828 0.88488 0.13438 0.0
C3162 C 0.34436 0.86159 0.14027 0.0
C3163 C 0.35043 0.8594 0.16378 0.0
C3164 C 0.35997 0.88043 0.18114 0.0
C3165 C 0.36425 0.90388 0.17463 0.0
H3166 H 0.99369 0.58028 0.88503 0.0
H3167 H 0.95199 0.50744 0.87799 0.0
H3168 H 0.97066 0.50187 0.91623 0.0
H3169 H 0.04277 0.56857 0.90809 0.0
H3170 H 0.0514 0.59646 0.92971 0.0
H3171 H 0.0333 0.59574 0.90296 0.0
H3172 H 1.00463 0.61052 0.92888 0.0
H3173 H 0.0227 0.6113 0.9558 0.0
H3174 H 0.99472 0.59352 0.95168 0.0
H3175 H 0.99297 0.50438 0.95451 0.0
H3176 H 0.0206 0.51302 0.98986 0.0
H3177 H 0.05059 0.58259 0.97038 0.0
C3178 C 0.9883 0.56346 0.89194 0.0
C3179 C 0.97132 0.54451 0.87922 0.0
C3180 C 0.96463 0.52242 0.88817 0.0
C3181 C 0.97514 0.51904 0.90969 0.0
C3182 C 0.99189 0.53812 0.92193 0.0
C3183 C 0.99838 0.55991 0.91357 0.0
C3184 C 1.01721 0.57713 0.93006 0.0
C3185 C 0.03736 0.5849 0.9169 0.0
C3186 C 1.00936 0.59945 0.94233 0.0
C3187 C 0.02156 0.56075 0.94779 0.0
C3188 C 1.00607 0.53879 0.94328 0.0
C3189 C 1.00549 0.52125 0.95801 0.0
C3190 C 0.02146 0.52621 0.97783 0.0
C3191 C 0.03833 0.54786 0.98187 0.0
C3192 C 0.03828 0.56553 0.96694 0.0
H3193 H 0.29843 0.21458 0.60198 0.0
H3194 H 0.3152 0.28361 0.57591 0.0
H3195 H 0.32063 0.30587 0.61768 0.0
H3196 H 0.26775 0.23437 0.64783 0.0
H3197 H 0.2775 0.21717 0.66929 0.0
H3198 H 0.2763 0.20634 0.63766 0.0
H3199 H 0.31786 0.20547 0.64296 0.0
H3200 H 0.31905 0.21585 0.67469 0.0
H3201 H 0.33775 0.23269 0.65743 0.0
H3202 H 0.32202 0.32091 0.6623 0.0
H3203 H 0.32162 0.32737 0.70636 0.0
H3204 H 0.3046 0.24881 0.70411 0.0
C3205 C 0.30333 0.2344 0.60503 0.0
C3206 C 0.30609 0.24736 0.58544 0.0
C3207 C 0.31268 0.27326 0.59041 0.0
C3208 C 0.31586 0.28605 0.61415 0.0
C3209 C 0.31246 0.27278 0.63293 0.0
C3210 C 0.30658 0.24747 0.62867 0.0
C3211 C 0.30366 0.23762 0.65206 0.0
C3212 C 0.27989 0.22301 0.65168 0.0
C3213 C 0.32059 0.22199 0.65707 0.0
C3214 C 0.30837 0.26136 0.67009 0.0
C3215 C 0.31345 0.28142 0.65863 0.0
C3216 C 0.31807 0.30532 0.67138 0.0
C3217 C 0.31763 0.30886 0.69638 0.0
C3218 C 0.3127 0.28867 0.70854 0.0
C3219 C 0.30811 0.26459 0.69519 0.0
H3220 H 0.62455 0.54523 0.22236 0.0
H3221 H 0.6839 0.52342 0.20114 0.0
H3222 H 0.67144 0.52459 0.15906 0.0
H3223 H 0.58754 0.50987 0.16733 0.0
H3224 H 0.57126 0.53263 0.16506 0.0
H3225 H 0.5841 0.52972 0.19395 0.0
H3226 H 0.60352 0.57546 0.20092 0.0
H3227 H 0.59081 0.57843 0.17202 0.0
H3228 H 0.62046 0.58704 0.1792 0.0
H3229 H 0.65232 0.52702 0.11728 0.0
H3230 H 0.62952 0.53201 0.08127 0.0
H3231 H 0.58181 0.55457 0.12586 0.0
C3232 C 0.63496 0.54056 0.20892 0.0
C3233 C 0.65568 0.53402 0.2162 0.0
C3234 C 0.66819 0.52834 0.19713 0.0
C3235 C 0.66113 0.52898 0.17271 0.0
C3236 C 0.64103 0.53541 0.16627 0.0
C3237 C 0.628 0.54114 0.18383 0.0
C3238 C 0.60703 0.54744 0.17141 0.0
C3239 C 0.58624 0.52882 0.17465 0.0
C3240 C 0.60536 0.57366 0.1815 0.0
C3241 C 0.61064 0.54505 0.1445 0.0
C3242 C 0.6303 0.5376 0.14213 0.0
C3243 C 0.63702 0.53299 0.11926 0.0
C3244 C 0.62372 0.53589 0.09855 0.0
C3245 C 0.60355 0.544 0.09972 0.0
C3246 C 0.59713 0.54873 0.12359 0.0
H3247 H 0.32809 0.9258 0.92435 0.0
H3248 H 0.34938 0.87841 0.97091 0.0
H3249 H 0.36056 0.85396 0.93668 0.0
H3250 H 0.30131 0.88042 0.88155 0.0
H3251 H 0.30744 0.8949 0.85603 0.0
H3252 H 0.30778 0.9134 0.88448 0.0
H3253 H 0.34801 0.93601 0.88261 0.0
H3254 H 0.3478 0.91754 0.85383 0.0
H3255 H 0.36906 0.91865 0.87798 0.0
H3256 H 0.36094 0.82956 0.89876 0.0
H3257 H 0.34914 0.80544 0.85822 0.0
H3258 H 0.32803 0.86744 0.83444 0.0
C3259 C 0.33571 0.91066 0.92721 0.0
C3260 C 0.33775 0.90365 0.9499 0.0
C3261 C 0.3474 0.88366 0.95338 0.0
C3262 C 0.35419 0.86999 0.93417 0.0
C3263 C 0.35119 0.87659 0.91168 0.0
C3264 C 0.34221 0.89649 0.90799 0.0
C3265 C 0.33657 0.89655 0.88156 0.0
C3266 C 0.31183 0.89626 0.87557 0.0
C3267 C 0.35125 0.91849 0.87353 0.0
C3268 C 0.34227 0.87264 0.87119 0.0
C3269 C 0.35135 0.8619 0.88889 0.0
C3270 C 0.35462 0.83804 0.88452 0.0
C3271 C 0.34777 0.82442 0.8616 0.0
C3272 C 0.33801 0.83488 0.84356 0.0
C3273 C 0.33604 0.85949 0.84803 0.0
H3274 H 0.98011 0.5609 0.74119 0.0
H3275 H 0.96823 0.48512 0.75134 0.0
H3276 H 0.97218 0.472 0.70863 0.0
H3277 H 0.94831 0.54884 0.68371 0.0
H3278 H 0.96641 0.57257 0.67237 0.0
H3279 H 0.96381 0.57566 0.70395 0.0
H3280 H 1.00627 0.58106 0.7142 0.0
H3281 H 1.00904 0.57901 0.6828 0.0
H3282 H 0.01986 0.55856 0.69986 0.0
H3283 H 0.97891 0.46811 0.66552 0.0
H3284 H 0.99162 0.47421 0.62625 0.0
H3285 H 0.99441 0.55213 0.6448 0.0
C3286 C 0.97925 0.54171 0.73448 0.0
C3287 C 0.97489 0.52398 0.74911 0.0
C3288 C 0.97253 0.49882 0.74002 0.0
C3289 C 0.97426 0.49124 0.71589 0.0
C3290 C 0.9777 0.50917 0.70144 0.0
C3291 C 0.98029 0.53385 0.71046 0.0
C3292 C 0.98367 0.5495 0.6914 0.0
C3293 C 0.9644 0.56239 0.68765 0.0
C3294 C 1.00604 0.5681 0.6974 0.0
C3295 C 0.98352 0.52987 0.67035 0.0
C3296 C 0.97975 0.50666 0.6763 0.0
C3297 C 0.98145 0.48607 0.66037 0.0
C3298 C 0.98853 0.48963 0.63818 0.0
C3299 C 0.99354 0.51351 0.63252 0.0
C3300 C 0.98986 0.53353 0.64828 0.0
H3301 H 0.29592 0.26721 0.45282 0.0
H3302 H 0.31137 0.19623 0.43147 0.0
H3303 H 0.31518 0.20532 0.39078 0.0
H3304 H 0.26429 0.26921 0.39654 0.0
H3305 H 0.2748 0.3014 0.3968 0.0
H3306 H 0.27332 0.28979 0.42466 0.0
H3307 H 0.31508 0.30814 0.43707 0.0
H3308 H 0.31661 0.31997 0.40933 0.0
H3309 H 0.33465 0.30038 0.41731 0.0
H3310 H 0.31564 0.22112 0.35064 0.0
H3311 H 0.31618 0.24428 0.31663 0.0
H3312 H 0.30241 0.30586 0.36307 0.0
C3313 C 0.30011 0.25358 0.43961 0.0
C3314 C 0.30306 0.23071 0.44575 0.0
C3315 C 0.30877 0.21372 0.42762 0.0
C3316 C 0.31099 0.21873 0.40422 0.0
C3317 C 0.30765 0.24106 0.39864 0.0
C3318 C 0.30261 0.25841 0.4159 0.0
C3319 C 0.30029 0.28117 0.40504 0.0
C3320 C 0.27678 0.28566 0.40582 0.0
C3321 C 0.3177 0.30375 0.41796 0.0
C3322 C 0.30465 0.27379 0.37915 0.0
C3323 C 0.30863 0.25044 0.37577 0.0
C3324 C 0.3125 0.23942 0.35321 0.0
C3325 C 0.3125 0.25256 0.33377 0.0
C3326 C 0.30891 0.27669 0.33678 0.0
C3327 C 0.30503 0.28734 0.35997 0.0
H3328 H 0.35467 0.61094 0.55153 0.0
H3329 H 0.36239 0.66829 0.50786 0.0
H3330 H 0.39498 0.65529 0.49302 0.0
H3331 H 0.41055 0.6194 0.57084 0.0
H3332 H 0.41033 0.58744 0.57087 0.0
H3333 H 0.38569 0.59872 0.57531 0.0
H3334 H 0.36363 0.56674 0.53952 0.0
H3335 H 0.38803 0.5549 0.53501 0.0
H3336 H 0.37368 0.56499 0.51066 0.0
H3337 H 0.42759 0.63763 0.48484 0.0
H3338 H 0.45924 0.61696 0.48492 0.0
H3339 H 0.43121 0.57354 0.53615 0.0
C3340 C 0.36313 0.62045 0.53861 0.0
C3341 C 0.35644 0.64051 0.53082 0.0
C3342 C 0.36774 0.65295 0.51414 0.0
C3343 C 0.38603 0.6456 0.50547 0.0
C3344 C 0.39267 0.62601 0.51392 0.0
C3345 C 0.38162 0.61366 0.53016 0.0
C3346 C 0.39328 0.5948 0.53814 0.0
C3347 C 0.40039 0.60044 0.5654 0.0
C3348 C 0.37879 0.56882 0.53035 0.0
C3349 C 0.41288 0.59887 0.52429 0.0
C3350 C 0.41203 0.6166 0.51007 0.0
C3351 C 0.42849 0.62364 0.49581 0.0
C3352 C 0.44633 0.61201 0.49603 0.0
C3353 C 0.44745 0.59408 0.51076 0.0
C3354 C 0.43064 0.5875 0.52503 0.0
H3355 H 0.91757 0.93229 0.52188 0.0
H3356 H 0.90004 0.97886 0.58168 0.0
H3357 H 0.93536 1.00816 0.58357 0.0
H3358 H 0.97625 0.94269 0.54169 0.0
H3359 H 0.98542 0.94472 0.51268 0.0
H3360 H 0.95841 0.92682 0.51486 0.0
H3361 H 0.94061 0.95158 0.487 0.0
H3362 H 0.96757 0.96959 0.48472 0.0
H3363 H 0.94617 0.98453 0.49459 0.0
H3364 H 0.97235 0.03183 0.58138 0.0
H3365 H 1.00981 0.05019 0.57476 0.0
H3366 H 1.00683 0.99159 0.51492 0.0
C3367 C 0.92127 0.94862 0.53543 0.0
C3368 C 0.90574 0.9529 0.55194 0.0
C3369 C 0.91133 0.97481 0.56898 0.0
C3370 C 0.93149 0.99172 0.57017 0.0
C3371 C 0.94633 0.98704 0.554 0.0
C3372 C 0.94161 0.96622 0.53672 0.0
C3373 C 0.96099 0.96651 0.52153 0.0
C3374 C 0.97085 0.94383 0.52277 0.0
C3375 C 0.95338 0.96815 0.49541 0.0
C3376 C 0.97754 0.99017 0.5338 0.0
C3377 C 0.96826 1.00154 0.5523 0.0
C3378 C 0.97975 0.02315 0.56689 0.0
C3379 C 1.0013 0.03348 0.56293 0.0
C3380 C 1.01183 0.02268 0.54432 0.0
C3381 C 0.99949 1.0006 0.52927 0.0
H3382 H 0.88197 0.13304 0.27621 0.0
H3383 H 0.95072 0.17116 0.2855 0.0
H3384 H 0.93915 0.21061 0.28719 0.0
H3385 H 0.86005 0.17393 0.23949 0.0
H3386 H 0.83504 0.17352 0.25334 0.0
H3387 H 0.8483 0.14787 0.2527 0.0
H3388 H 0.85027 0.15216 0.29868 0.0
H3389 H 0.83697 0.17778 0.29942 0.0
H3390 H 0.86329 0.18119 0.31709 0.0
H3391 H 0.91914 0.24934 0.28714 0.0
H3392 H 0.89484 0.279 0.28673 0.0
H3393 H 0.83759 0.21907 0.27893 0.0
C3394 C 0.8948 0.14957 0.27861 0.0
C3395 C 0.91797 0.14745 0.28057 0.0
C3396 C 0.93317 0.17074 0.28383 0.0
C3397 C 0.92656 0.19386 0.28482 0.0
C3398 C 0.90405 0.19519 0.28279 0.0
C3399 C 0.88832 0.17345 0.27992 0.0
C3400 C 0.86513 0.18032 0.2787 0.0
C3401 C 0.85129 0.16817 0.25463 0.0
C3402 C 0.85319 0.17237 0.29971 0.0
C3403 C 0.87007 0.20891 0.28091 0.0
C3404 C 0.89281 0.21705 0.28326 0.0
C3405 C 0.90141 0.24256 0.28537 0.0
C3406 C 0.88713 0.25976 0.28512 0.0
C3407 C 0.8635 0.25276 0.28292 0.0
C3408 C 0.85526 0.22625 0.2808 0.0
H3409 H 0.72513 0.15623 0.05569 0.0
H3410 H 0.74221 0.09403 1.0128 0.0
H3411 H 0.70312 0.07923 0.99551 0.0
H3412 H 0.67895 0.12688 0.07297 0.0
H3413 H 0.66259 0.1496 0.07071 0.0
H3414 H 0.69219 0.15884 0.07582 0.0
H3415 H 0.69274 0.17974 0.03811 0.0
H3416 H 0.66294 0.17112 0.03327 0.0
H3417 H 0.67882 0.16252 1.0097 0.0
H3418 H 0.66302 0.06858 0.98697 0.0
H3419 H 0.62286 0.06111 0.98936 0.0
H3420 H 0.63193 0.12917 0.03925 0.0
C3421 C 0.72066 0.13953 0.04257 0.0
C3422 C 0.7364 0.12587 0.03584 0.0
C3423 C 0.73015 0.10437 0.01846 0.0
C3424 C 0.70817 0.09615 1.00823 0.0
C3425 C 0.69301 0.10994 0.01542 0.0
C3426 C 0.69892 0.13126 0.03211 0.0
C3427 C 0.67905 0.141 0.03894 0.0
C3428 C 0.67814 0.14422 0.06622 0.0
C3429 C 0.67837 0.16502 0.02943 0.0
C3430 C 0.66102 0.12038 0.02539 0.0
C3431 C 0.66943 0.10335 1.01099 0.0
C3432 C 0.65613 0.082 0.99768 0.0
C3433 C 0.63354 0.07787 0.99922 0.0
C3434 C 0.62496 0.09478 1.0144 0.0
C3435 C 0.63858 0.11628 0.02751 0.0
H3436 H 0.20547 0.49648 0.25496 0.0
H3437 H 0.26312 0.55631 0.27691 0.0
H3438 H 0.28259 0.5287 0.29563 0.0
H3439 H 0.20989 0.46822 0.30786 0.0
H3440 H 0.20141 0.43739 0.29141 0.0
H3441 H 0.19139 0.46197 0.28032 0.0
H3442 H 0.20623 0.45133 0.2399 0.0
H3443 H 0.21604 0.42654 0.25063 0.0
H3444 H 0.2349 0.44989 0.23965 0.0
H3445 H 0.29534 0.4965 0.31204 0.0
H3446 H 0.30503 0.45802 0.31845 0.0
H3447 H 0.23948 0.41782 0.28568 0.0
C3448 C 0.22229 0.50365 0.2635 0.0
C3449 C 0.2329 0.52842 0.26476 0.0
C3450 C 0.25485 0.53731 0.27585 0.0
C3451 C 0.26586 0.52192 0.28679 0.0
C3452 C 0.25458 0.49793 0.28629 0.0
C3453 C 0.23353 0.48857 0.27448 0.0
C3454 C 0.22587 0.46159 0.27533 0.0
C3455 C 0.20596 0.45704 0.28958 0.0
C3456 C 0.22047 0.44645 0.24987 0.0
C3457 C 0.2464 0.45715 0.28877 0.0
C3458 C 0.26232 0.47865 0.29555 0.0
C3459 C 0.28305 0.47951 0.3072 0.0
C3460 C 0.28826 0.45753 0.31102 0.0
C3461 C 0.27285 0.43503 0.30289 0.0
C3462 C 0.25137 0.43486 0.29236 0.0
H3463 H 0.28287 0.46006 0.0678 0.0
H3464 H 0.27085 0.40672 1.00233 0.0
H3465 H 0.23557 0.41855 0.99138 0.0
H3466 H 0.22542 0.44856 0.07954 0.0
H3467 H 0.22655 0.48007 0.09203 0.0
H3468 H 0.25118 0.46794 0.09431 0.0
H3469 H 0.27151 0.50252 0.07363 0.0
H3470 H 0.24696 0.51475 0.07135 0.0
H3471 H 0.25956 0.5067 0.04481 0.0
H3472 H 0.20112 0.43741 0.98721 0.0
H3473 H 0.17087 0.45975 0.99145 0.0
H3474 H 0.20454 0.49931 0.06044 0.0
C3475 C 0.27289 0.45101 0.05109 0.0
C3476 C 0.27987 0.43258 0.03586 0.0
C3477 C 0.266 0.42091 1.01434 0.0
C3478 C 0.24586 0.42754 1.00792 0.0
C3479 C 0.23938 0.44567 0.02337 0.0
C3480 C 0.25242 0.45704 0.04464 0.0
C3481 C 0.24129 0.47526 0.05854 0.0
C3482 C 0.23579 0.4675 0.08253 0.0
C3483 C 0.25569 0.50135 0.0623 0.0
C3484 C 0.22031 0.47288 0.04163 0.0
C3485 C 0.21944 0.45573 0.02139 0.0
C3486 C 0.20171 0.4508 1.00311 0.0
C3487 C 0.18458 0.46371 1.00563 0.0
C3488 C 0.18504 0.48134 0.02637 0.0
C3489 C 0.20328 0.48574 0.04453 0.0
H3490 H 0.8908 0.98744 0.24413 0.0
H3491 H 0.92867 1.00517 0.31465 0.0
H3492 H 0.91236 0.96412 0.32278 0.0
H3493 H 0.84069 0.95122 0.26095 0.0
H3494 H 0.83515 0.92826 0.23426 0.0
H3495 H 0.85021 0.95887 0.23337 0.0
H3496 H 0.88238 0.94136 0.21735 0.0
H3497 H 0.86741 0.91069 0.21824 0.0
H3498 H 0.89491 0.92175 0.23397 0.0
H3499 H 0.89097 0.91815 0.32378 0.0
H3500 H 0.86703 0.87633 0.31762 0.0
H3501 H 0.8409 0.88651 0.24747 0.0
C3502 C 0.89573 0.98287 0.26135 0.0
C3503 C 0.9115 1.00089 0.27869 0.0
C3504 C 0.91691 0.99283 0.30077 0.0
C3505 C 0.90758 0.96904 0.30566 0.0
C3506 C 0.89223 0.95204 0.2885 0.0
C3507 C 0.88633 0.9587 0.26669 0.0
C3508 C 0.86937 0.93672 0.25137 0.0
C3509 C 0.84756 0.94422 0.24458 0.0
C3510 C 0.87908 0.92707 0.22888 0.0
C3511 C 0.86604 0.91718 0.26803 0.0
C3512 C 0.87981 0.92626 0.28928 0.0
C3513 C 0.88018 0.9113 0.3071 0.0
C3514 C 0.86635 0.88712 0.30341 0.0
C3515 C 0.85145 0.87709 0.28209 0.0
C3516 C 0.85168 0.89293 0.2642 0.0
H3517 H 0.72166 0.15216 0.79936 0.0
H3518 H 0.71292 0.1429 0.72179 0.0
H3519 H 0.73387 0.18532 0.7237 0.0
H3520 H 0.72357 0.22182 0.81156 0.0
H3521 H 0.74468 0.2259 0.83661 0.0
H3522 H 0.72356 0.19805 0.82958 0.0
H3523 H 0.7543 0.17328 0.8278 0.0
H3524 H 0.77549 0.20095 0.8336 0.0
H3525 H 0.77439 0.17869 0.80708 0.0
H3526 H 0.7632 0.22062 0.73276 0.0
H3527 H 0.79276 0.25609 0.74897 0.0
H3528 H 0.78264 0.24425 0.82163 0.0
C3529 C 0.72344 0.15974 0.783 0.0
C3530 C 0.7161 0.14516 0.76045 0.0
C3531 C 0.71876 0.15449 0.73906 0.0
C3532 C 0.73043 0.17836 0.74004 0.0
C3533 C 0.73905 0.19196 0.76254 0.0
C3534 C 0.73522 0.18346 0.78376 0.0
C3535 C 0.74898 0.20052 0.80523 0.0
C3536 C 0.73431 0.21228 0.8217 0.0
C3537 C 0.76418 0.18756 0.81922 0.0
C3538 C 0.76209 0.21895 0.79245 0.0
C3539 C 0.75606 0.21351 0.76792 0.0
C3540 C 0.7675 0.22586 0.75197 0.0
C3541 C 0.7846 0.24566 0.76145 0.0
C3542 C 0.78952 0.25313 0.78664 0.0
C3543 C 0.77881 0.23908 0.80234 0.0
loop_
_geom_bond_atom_site_label_1
_geom_bond_atom_site_label_2
_geom_bond_distance
_geom_bond_site_symmetry_2
_ccdc_geom_bond_type
In0 O1 2.294 . S
In0 O2 2.326 . S
In0 O6 2.266 . S
In0 O7 2.326 . S
In0 O8 2.266 . S
In0 O9 2.326 . S
In0 O11 2.294 . S
In0 O12 2.326 . S
O1 In0 2.294 . S
O1 C10 1.240 . S
O2 In0 2.326 . S
O2 C10 1.252 . S
C3 O6 1.252 . S
C3 O7 1.260 . S
C4 O11 1.240 . S
C4 O12 1.252 . S
C5 O8 1.252 . S
C5 O9 1.260 . S
O6 In0 2.266 . S
O6 C3 1.252 . S
O7 In0 2.326 . S
O7 C3 1.260 . S
O8 In0 2.266 . S
O8 C5 1.252 . S
O9 In0 2.326 . S
O9 C5 1.260 . S
C10 O1 1.240 . S
C10 O2 1.252 . S
O11 In0 2.294 . S
O11 C4 1.240 . S
O12 In0 2.326 . S
O12 C4 1.252 . S
In13 O14 2.294 . S
In13 O15 2.326 . S
In13 O19 2.266 1_455 S
In13 O20 2.326 1_455 S
In13 O21 2.264 1_455 S
In13 O22 2.322 1_455 S
In13 O24 2.296 . S
In13 O25 2.330 . S
O14 In13 2.294 . S
O14 C23 1.240 . S
O15 In13 2.326 . S
O15 C23 1.252 . S
C16 O19 1.252 . S
C16 O20 1.260 . S
C17 O24 1.240 . S
C17 O25 1.252 . S
C18 O21 1.252 . S
C18 O22 1.260 . S
O19 In13 2.266 1_655 S
O19 C16 1.252 . S
O20 In13 2.326 1_655 S
O20 C16 1.260 . S
O21 In13 2.264 1_655 S
O21 C18 1.252 . S
O22 In13 2.322 1_655 S
O22 C18 1.260 . S
C23 O14 1.240 . S
C23 O15 1.252 . S
O24 In13 2.296 . S
O24 C17 1.240 . S
O25 In13 2.330 . S
O25 C17 1.252 . S
In26 O27 2.294 . S
In26 O28 2.326 . S
In26 O32 2.266 . S
In26 O33 2.326 . S
In26 O34 2.266 . S
In26 O35 2.326 . S
In26 O37 2.294 . S
In26 O38 2.326 . S
O27 In26 2.294 . S
O27 C36 1.240 . S
O28 In26 2.326 . S
O28 C36 1.252 . S
C29 O32 1.252 . S
C29 O33 1.260 . S
C30 O37 1.240 . S
C30 O38 1.252 . S
C31 O34 1.252 . S
C31 O35 1.260 . S
O32 In26 2.266 . S
O32 C29 1.252 . S
O33 In26 2.326 . S
O33 C29 1.260 . S
O34 In26 2.266 . S
O34 C31 1.252 . S
O35 In26 2.326 . S
O35 C31 1.260 . S
C36 O27 1.240 . S
C36 O28 1.252 . S
O37 In26 2.294 . S
O37 C30 1.240 . S
O38 In26 2.326 . S
O38 C30 1.252 . S
In39 O40 2.294 . S
In39 O41 2.326 . S
In39 O45 2.266 . S
In39 O46 2.326 . S
In39 O47 2.266 . S
In39 O48 2.326 . S
In39 O50 2.294 . S
In39 O51 2.326 . S
O40 In39 2.294 . S
O40 C49 1.240 . S
O41 In39 2.326 . S
O41 C49 1.252 . S
C42 O45 1.252 . S
C42 O46 1.260 . S
C43 O50 1.240 . S
C43 O51 1.252 . S
C44 O47 1.252 . S
C44 O48 1.260 . S
O45 In39 2.266 . S
O45 C42 1.252 . S
O46 In39 2.326 . S
O46 C42 1.260 . S
O47 In39 2.266 . S
O47 C44 1.252 . S
O48 In39 2.326 . S
O48 C44 1.260 . S
C49 O40 1.240 . S
C49 O41 1.252 . S
O50 In39 2.294 . S
O50 C43 1.240 . S
O51 In39 2.326 . S
O51 C43 1.252 . S
In52 O53 2.294 . S
In52 O54 2.326 . S
In52 O58 2.266 . S
In52 O59 2.326 . S
In52 O60 2.266 . S
In52 O61 2.326 . S
In52 O63 2.294 . S
In52 O64 2.326 . S
O53 In52 2.294 . S
O53 C62 1.240 . S
O54 In52 2.326 . S
O54 C62 1.252 . S
C55 O58 1.252 . S
C55 O59 1.260 . S
C56 O63 1.240 . S
C56 O64 1.252 . S
C57 O60 1.252 . S
C57 O61 1.260 . S
O58 In52 2.266 . S
O58 C55 1.252 . S
O59 In52 2.326 . S
O59 C55 1.260 . S
O60 In52 2.266 . S
O60 C57 1.252 . S
O61 In52 2.326 . S
O61 C57 1.260 . S
C62 O53 1.240 . S
C62 O54 1.252 . S
O63 In52 2.294 . S
O63 C56 1.240 . S
O64 In52 2.326 . S
O64 C56 1.252 . S
In65 O66 2.294 . S
In65 O67 2.326 . S
In65 O71 2.266 . S
In65 O72 2.326 . S
In65 O73 2.266 . S
In65 O74 2.326 . S
In65 O76 2.294 . S
In65 O77 2.326 . S
O66 In65 2.294 . S
O66 C75 1.240 . S
O67 In65 2.326 . S
O67 C75 1.252 . S
C68 O71 1.252 . S
C68 O72 1.260 . S
C69 O76 1.240 . S
C69 O77 1.252 . S
C70 O73 1.252 . S
C70 O74 1.260 . S
O71 In65 2.266 . S
O71 C68 1.252 . S
O72 In65 2.326 . S
O72 C68 1.260 . S
O73 In65 2.266 . S
O73 C70 1.252 . S
O74 In65 2.326 . S
O74 C70 1.260 . S
C75 O66 1.240 . S
C75 O67 1.252 . S
O76 In65 2.294 . S
O76 C69 1.240 . S
O77 In65 2.326 . S
O77 C69 1.252 . S
In78 O79 2.294 . S
In78 O80 2.326 . S
In78 O84 2.266 . S
In78 O85 2.326 . S
In78 O86 2.266 . S
In78 O87 2.326 . S
In78 O89 2.294 . S
In78 O90 2.326 . S
O79 In78 2.294 . S
O79 C88 1.240 . S
O80 In78 2.326 . S
O80 C88 1.252 . S
C81 O84 1.252 . S
C81 O85 1.260 . S
C82 O89 1.240 . S
C82 O90 1.252 . S
C83 O86 1.252 . S
C83 O87 1.260 . S
O84 In78 2.266 . S
O84 C81 1.252 . S
O85 In78 2.326 . S
O85 C81 1.260 . S
O86 In78 2.266 . S
O86 C83 1.252 . S
O87 In78 2.326 . S
O87 C83 1.260 . S
C88 O79 1.240 . S
C88 O80 1.252 . S
O89 In78 2.294 . S
O89 C82 1.240 . S
O90 In78 2.326 . S
O90 C82 1.252 . S
In91 O92 2.294 . S
In91 O93 2.326 . S
In91 O97 2.266 . S
In91 O98 2.326 . S
In91 O99 2.266 1_455 S
In91 O100 2.326 1_455 S
In91 O102 2.294 . S
In91 O103 2.326 . S
O92 In91 2.294 . S
O92 C101 1.240 . S
O93 In91 2.326 . S
O93 C101 1.252 . S
C94 O97 1.252 . S
C94 O98 1.260 . S
C95 O102 1.240 . S
C95 O103 1.252 . S
C96 O99 1.252 . S
C96 O100 1.260 . S
O97 In91 2.266 . S
O97 C94 1.252 . S
O98 In91 2.326 . S
O98 C94 1.260 . S
O99 In91 2.266 1_655 S
O99 C96 1.252 . S
O100 In91 2.326 1_655 S
O100 C96 1.260 . S
C101 O92 1.240 . S
C101 O93 1.252 . S
O102 In91 2.294 . S
O102 C95 1.240 . S
O103 In91 2.326 . S
O103 C95 1.252 . S
In104 O105 2.294 . S
In104 O106 2.326 1_545 S
In104 O110 2.266 . S
In104 O111 2.326 . S
In104 O112 2.266 1_545 S
In104 O113 2.326 1_545 S
In104 O115 2.294 . S
In104 O116 2.326 . S
O105 In104 2.294 . S
O105 C114 1.240 . S
O106 In104 2.326 1_565 S
O106 C114 1.252 1_565 S
C107 O110 1.252 . S
C107 O111 1.260 . S
C108 O115 1.240 . S
C108 O116 1.252 . S
C109 O112 1.252 . S
C109 O113 1.260 . S
O110 In104 2.266 . S
O110 C107 1.252 . S
O111 In104 2.326 . S
O111 C107 1.260 . S
O112 In104 2.266 1_565 S
O112 C109 1.252 . S
O113 In104 2.326 1_565 S
O113 C109 1.260 . S
C114 O105 1.240 . S
C114 O106 1.252 1_545 S
O115 In104 2.294 . S
O115 C108 1.240 . S
O116 In104 2.326 . S
O116 C108 1.252 . S
In117 O118 2.294 . S
In117 O119 2.326 . S
In117 O123 2.266 . S
In117 O124 2.326 . S
In117 O125 2.266 . S
In117 O126 2.326 . S
In117 O128 2.294 . S
In117 O129 2.326 . S
O118 In117 2.294 . S
O118 C127 1.240 . S
O119 In117 2.326 . S
O119 C127 1.252 . S
C120 O123 1.252 . S
C120 O124 1.260 . S
C121 O128 1.240 . S
C121 O129 1.252 . S
C122 O125 1.252 . S
C122 O126 1.260 . S
O123 In117 2.266 . S
O123 C120 1.252 . S
O124 In117 2.326 . S
O124 C120 1.260 . S
O125 In117 2.266 . S
O125 C122 1.252 . S
O126 In117 2.326 . S
O126 C122 1.260 . S
C127 O118 1.240 . S
C127 O119 1.252 . S
O128 In117 2.294 . S
O128 C121 1.240 . S
O129 In117 2.326 . S
O129 C121 1.252 . S
In130 O131 2.294 1_545 S
In130 O132 2.326 . S
In130 O136 2.266 . S
In130 O137 2.326 . S
In130 O138 2.266 . S
In130 O139 2.326 . S
In130 O141 2.294 1_545 S
In130 O142 2.326 1_545 S
O131 In130 2.294 1_565 S
O131 C140 1.240 . S
O132 In130 2.326 . S
O132 C140 1.252 1_545 S
C133 O136 1.252 . S
C133 O137 1.260 . S
C134 O141 1.240 . S
C134 O142 1.252 . S
C135 O138 1.252 . S
C135 O139 1.260 . S
O136 In130 2.266 . S
O136 C133 1.252 . S
O137 In130 2.326 . S
O137 C133 1.260 . S
O138 In130 2.266 . S
O138 C135 1.252 . S
O139 In130 2.326 . S
O139 C135 1.260 . S
C140 O131 1.240 . S
C140 O132 1.252 1_565 S
O141 In130 2.294 1_565 S
O141 C134 1.240 . S
O142 In130 2.326 1_565 S
O142 C134 1.252 . S
In143 O144 2.294 . S
In143 O145 2.326 . S
In143 O149 2.266 1_554 S
In143 O150 2.326 1_554 S
In143 O151 2.266 . S
In143 O152 2.326 . S
In143 O154 2.294 . S
In143 O155 2.326 . S
O144 In143 2.294 . S
O144 C153 1.240 . S
O145 In143 2.326 . S
O145 C153 1.252 . S
C146 O149 1.252 . S
C146 O150 1.260 . S
C147 O154 1.240 . S
C147 O155 1.252 . S
C148 O151 1.252 . S
C148 O152 1.260 . S
O149 In143 2.266 1_556 S
O149 C146 1.252 . S
O150 In143 2.326 1_556 S
O150 C146 1.260 . S
O151 In143 2.266 . S
O151 C148 1.252 . S
O152 In143 2.326 . S
O152 C148 1.260 . S
C153 O144 1.240 . S
C153 O145 1.252 . S
O154 In143 2.294 . S
O154 C147 1.240 . S
O155 In143 2.326 . S
O155 C147 1.252 . S
In156 O157 2.294 . S
In156 O158 2.326 . S
In156 O162 2.266 1_554 S
In156 O163 2.326 1_554 S
In156 O164 2.266 . S
In156 O165 2.326 . S
In156 O167 2.294 . S
In156 O168 2.326 . S
O157 In156 2.294 . S
O157 C166 1.240 . S
O158 In156 2.326 . S
O158 C166 1.252 . S
C159 O162 1.252 . S
C159 O163 1.260 . S
C160 O167 1.240 . S
C160 O168 1.252 . S
C161 O164 1.252 . S
C161 O165 1.260 . S
O162 In156 2.266 1_556 S
O162 C159 1.252 . S
O163 In156 2.326 1_556 S
O163 C159 1.260 . S
O164 In156 2.266 . S
O164 C161 1.252 . S
O165 In156 2.326 . S
O165 C161 1.260 . S
C166 O157 1.240 . S
C166 O158 1.252 . S
O167 In156 2.294 . S
O167 C160 1.240 . S
O168 In156 2.326 . S
O168 C160 1.252 . S
In169 O170 2.294 . S
In169 O171 2.326 . S
In169 O175 2.266 . S
In169 O176 2.326 . S
In169 O177 2.266 . S
In169 O178 2.326 1_554 S
In169 O180 2.294 . S
In169 O181 2.326 . S
O170 In169 2.294 . S
O170 C179 1.240 . S
O171 In169 2.326 . S
O171 C179 1.252 . S
C172 O175 1.252 . S
C172 O176 1.260 . S
C173 O180 1.240 . S
C173 O181 1.252 . S
C174 O177 1.252 1_556 S
C174 O178 1.260 . S
O175 In169 2.266 . S
O175 C172 1.252 . S
O176 In169 2.326 . S
O176 C172 1.260 . S
O177 In169 2.266 . S
O177 C174 1.252 1_554 S
O178 In169 2.326 1_556 S
O178 C174 1.260 . S
C179 O170 1.240 . S
C179 O171 1.252 . S
O180 In169 2.294 . S
O180 C173 1.240 . S
O181 In169 2.326 . S
O181 C173 1.252 . S
In182 O183 2.294 . S
In182 O184 2.326 . S
In182 O188 2.266 . S
In182 O189 2.326 . S
In182 O190 2.266 . S
In182 O191 2.326 . S
In182 O193 2.294 . S
In182 O194 2.326 . S
O183 In182 2.294 . S
O183 C192 1.240 . S
O184 In182 2.326 . S
O184 C192 1.252 . S
C185 O188 1.252 . S
C185 O189 1.260 . S
C186 O193 1.240 . S
C186 O194 1.252 . S
C187 O190 1.252 . S
C187 O191 1.260 . S
O188 In182 2.266 . S
O188 C185 1.252 . S
O189 In182 2.326 . S
O189 C185 1.260 . S
O190 In182 2.266 . S
O190 C187 1.252 . S
O191 In182 2.326 . S
O191 C187 1.260 . S
C192 O183 1.240 . S
C192 O184 1.252 . S
O193 In182 2.294 . S
O193 C186 1.240 . S
O194 In182 2.326 . S
O194 C186 1.252 . S
In195 O196 2.294 . S
In195 O197 2.326 . S
In195 O201 2.266 . S
In195 O202 2.326 . S
In195 O203 2.266 . S
In195 O204 2.326 . S
In195 O206 2.294 . S
In195 O207 2.326 . S
O196 In195 2.294 . S
O196 C205 1.240 . S
O197 In195 2.326 . S
O197 C205 1.252 . S
C198 O201 1.252 . S
C198 O202 1.260 . S
C199 O206 1.240 . S
C199 O207 1.252 . S
C200 O203 1.252 . S
C200 O204 1.260 . S
O201 In195 2.266 . S
O201 C198 1.252 . S
O202 In195 2.326 . S
O202 C198 1.260 . S
O203 In195 2.266 . S
O203 C200 1.252 . S
O204 In195 2.326 . S
O204 C200 1.260 . S
C205 O196 1.240 . S
C205 O197 1.252 . S
O206 In195 2.294 . S
O206 C199 1.240 . S
O207 In195 2.326 . S
O207 C199 1.252 . S
In208 O209 2.294 . S
In208 O210 2.326 . S
In208 O214 2.266 . S
In208 O215 2.326 . S
In208 O216 2.266 . S
In208 O217 2.326 . S
In208 O219 2.294 . S
In208 O220 2.326 . S
O209 In208 2.294 . S
O209 C218 1.240 . S
O210 In208 2.326 . S
O210 C218 1.252 . S
C211 O214 1.252 . S
C211 O215 1.260 . S
C212 O219 1.240 . S
C212 O220 1.252 . S
C213 O216 1.252 . S
C213 O217 1.260 . S
O214 In208 2.266 . S
O214 C211 1.252 . S
O215 In208 2.326 . S
O215 C211 1.260 . S
O216 In208 2.266 . S
O216 C213 1.252 . S
O217 In208 2.326 . S
O217 C213 1.260 . S
C218 O209 1.240 . S
C218 O210 1.252 . S
O219 In208 2.294 . S
O219 C212 1.240 . S
O220 In208 2.326 . S
O220 C212 1.252 . S
In221 O222 2.294 . S
In221 O223 2.326 . S
In221 O227 2.266 . S
In221 O228 2.326 . S
In221 O229 2.266 . S
In221 O230 2.326 . S
In221 O232 2.294 . S
In221 O233 2.326 . S
O222 In221 2.294 . S
O222 C231 1.240 . S
O223 In221 2.326 . S
O223 C231 1.252 . S
C224 O227 1.252 . S
C224 O228 1.260 . S
C225 O232 1.240 . S
C225 O233 1.252 . S
C226 O229 1.252 . S
C226 O230 1.260 . S
O227 In221 2.266 . S
O227 C224 1.252 . S
O228 In221 2.326 . S
O228 C224 1.260 . S
O229 In221 2.266 . S
O229 C226 1.252 . S
O230 In221 2.326 . S
O230 C226 1.260 . S
C231 O222 1.240 . S
C231 O223 1.252 . S
O232 In221 2.294 . S
O232 C225 1.240 . S
O233 In221 2.326 . S
O233 C225 1.252 . S
In234 O235 2.294 . S
In234 O236 2.326 . S
In234 O240 2.266 . S
In234 O241 2.326 . S
In234 O242 2.266 . S
In234 O243 2.326 . S
In234 O245 2.294 . S
In234 O246 2.326 . S
O235 In234 2.294 . S
O235 C244 1.240 . S
O236 In234 2.326 . S
O236 C244 1.252 . S
C237 O240 1.252 . S
C237 O241 1.260 . S
C238 O245 1.240 . S
C238 O246 1.252 . S
C239 O242 1.252 . S
C239 O243 1.260 . S
O240 In234 2.266 . S
O240 C237 1.252 . S
O241 In234 2.326 . S
O241 C237 1.260 . S
O242 In234 2.266 . S
O242 C239 1.252 . S
O243 In234 2.326 . S
O243 C239 1.260 . S
C244 O235 1.240 . S
C244 O236 1.252 . S
O245 In234 2.294 . S
O245 C238 1.240 . S
O246 In234 2.326 . S
O246 C238 1.252 . S
In247 O248 2.294 . S
In247 O249 2.326 . S
In247 O253 2.266 . S
In247 O254 2.326 . S
In247 O255 2.266 . S
In247 O256 2.326 . S
In247 O258 2.294 . S
In247 O259 2.326 . S
O248 In247 2.294 . S
O248 C257 1.240 . S
O249 In247 2.326 . S
O249 C257 1.252 . S
C250 O253 1.252 . S
C250 O254 1.260 . S
C251 O258 1.240 . S
C251 O259 1.252 . S
C252 O255 1.252 . S
C252 O256 1.260 . S
O253 In247 2.266 . S
O253 C250 1.252 . S
O254 In247 2.326 . S
O254 C250 1.260 . S
O255 In247 2.266 . S
O255 C252 1.252 . S
O256 In247 2.326 . S
O256 C252 1.260 . S
C257 O248 1.240 . S
C257 O249 1.252 . S
O258 In247 2.294 . S
O258 C251 1.240 . S
O259 In247 2.326 . S
O259 C251 1.252 . S
In260 O261 2.294 . S
In260 O262 2.326 . S
In260 O266 2.264 1_554 S
In260 O267 2.326 . S
In260 O268 2.266 1_554 S
In260 O269 2.326 1_554 S
In260 O271 2.294 . S
In260 O272 2.326 . S
O261 In260 2.294 . S
O261 C270 1.240 . S
O262 In260 2.326 . S
O262 C270 1.252 . S
C263 O266 1.252 1_554 S
C263 O267 1.260 . S
C264 O271 1.240 . S
C264 O272 1.252 . S
C265 O268 1.252 . S
C265 O269 1.260 . S
O266 In260 2.264 1_556 S
O266 C263 1.252 1_556 S
O267 In260 2.326 . S
O267 C263 1.260 . S
O268 In260 2.266 1_556 S
O268 C265 1.252 . S
O269 In260 2.326 1_556 S
O269 C265 1.260 . S
C270 O261 1.240 . S
C270 O262 1.252 . S
O271 In260 2.294 . S
O271 C264 1.240 . S
O272 In260 2.326 . S
O272 C264 1.252 . S
In273 O274 2.294 . S
In273 O275 2.326 . S
In273 O279 2.266 . S
In273 O280 2.326 . S
In273 O281 2.266 . S
In273 O282 2.326 . S
In273 O284 2.294 . S
In273 O285 2.326 . S
O274 In273 2.294 . S
O274 C283 1.240 . S
O275 In273 2.326 . S
O275 C283 1.252 . S
C276 O279 1.252 . S
C276 O280 1.260 . S
C277 O284 1.240 . S
C277 O285 1.252 . S
C278 O281 1.252 . S
C278 O282 1.260 . S
O279 In273 2.266 . S
O279 C276 1.252 . S
O280 In273 2.326 . S
O280 C276 1.260 . S
O281 In273 2.266 . S
O281 C278 1.252 . S
O282 In273 2.326 . S
O282 C278 1.260 . S
C283 O274 1.240 . S
C283 O275 1.252 . S
O284 In273 2.294 . S
O284 C277 1.240 . S
O285 In273 2.326 . S
O285 C277 1.252 . S
In286 O287 2.294 . S
In286 O288 2.326 . S
In286 O292 2.266 . S
In286 O293 2.326 . S
In286 O294 2.266 . S
In286 O295 2.326 . S
In286 O297 2.294 . S
In286 O298 2.326 . S
O287 In286 2.294 . S
O287 C296 1.240 . S
O288 In286 2.326 . S
O288 C296 1.252 . S
C289 O292 1.252 . S
C289 O293 1.260 . S
C290 O297 1.240 . S
C290 O298 1.252 . S
C291 O294 1.252 . S
C291 O295 1.260 . S
O292 In286 2.266 . S
O292 C289 1.252 . S
O293 In286 2.326 . S
O293 C289 1.260 . S
O294 In286 2.266 . S
O294 C291 1.252 . S
O295 In286 2.326 . S
O295 C291 1.260 . S
C296 O287 1.240 . S
C296 O288 1.252 . S
O297 In286 2.294 . S
O297 C290 1.240 . S
O298 In286 2.326 . S
O298 C290 1.252 . S
In299 O300 2.294 . S
In299 O301 2.326 . S
In299 O305 2.266 . S
In299 O306 2.326 . S
In299 O307 2.266 . S
In299 O308 2.326 . S
In299 O310 2.294 . S
In299 O311 2.326 . S
O300 In299 2.294 . S
O300 C309 1.240 . S
O301 In299 2.326 . S
O301 C309 1.252 . S
C302 O305 1.252 . S
C302 O306 1.260 . S
C303 O310 1.240 . S
C303 O311 1.252 . S
C304 O307 1.252 . S
C304 O308 1.260 . S
O305 In299 2.266 . S
O305 C302 1.252 . S
O306 In299 2.326 . S
O306 C302 1.260 . S
O307 In299 2.266 . S
O307 C304 1.252 . S
O308 In299 2.326 . S
O308 C304 1.260 . S
C309 O300 1.240 . S
C309 O301 1.252 . S
O310 In299 2.294 . S
O310 C303 1.240 . S
O311 In299 2.326 . S
O311 C303 1.252 . S
La312 C314 2.928 1_455 S
La312 O332 2.521 1_454 S
La312 O333 2.628 1_455 S
La312 O334 2.554 1_554 S
La312 O335 2.757 . S
La312 O336 2.470 . S
La312 O341 2.482 . S
La312 O343 2.503 . S
La313 C323 2.928 . S
La313 O335 2.482 . S
La313 O337 2.503 . S
La313 O338 2.521 . S
La313 O339 2.628 . S
La313 O340 2.554 . S
La313 O341 2.757 . S
La313 O342 2.470 . S
C314 La312 2.928 1_655 S
C314 C315 1.494 1_554 S
C314 O332 1.261 1_554 S
C314 O333 1.243 . S
C315 C314 1.494 1_556 S
C315 C316 1.429 . S
C315 C320 1.348 1_556 S
C316 C315 1.429 . S
C316 C317 1.380 . S
C316 H344 0.930 . S
C317 C316 1.380 . S
C317 C318 1.376 . S
C317 H345 0.930 . S
C318 C317 1.376 . S
C318 C319 1.370 1_556 S
C319 C318 1.370 1_554 S
C319 C320 1.396 . S
C319 H346 0.929 . S
C320 C315 1.348 1_554 S
C320 C319 1.396 . S
C320 H347 0.929 . S
C321 O334 1.240 . S
C321 O335 1.289 1_556 S
C322 O336 1.258 . S
C322 O337 1.256 . S
C323 La313 2.928 . S
C323 C324 1.503 . S
C323 O338 1.261 . S
C323 O339 1.243 . S
C324 C323 1.503 . S
C324 C325 1.394 . S
C324 C329 1.373 . S
C325 C324 1.394 . S
C325 C326 1.380 . S
C325 H348 0.930 . S
C326 C325 1.380 . S
C326 C327 1.376 . S
C326 H349 0.930 . S
C327 C326 1.376 . S
C327 C328 1.370 . S
C328 C327 1.370 . S
C328 C329 1.396 . S
C328 H350 0.929 1_545 S
C329 C324 1.373 . S
C329 C328 1.396 . S
C329 H351 0.929 . S
C330 O340 1.240 . S
C330 O341 1.289 . S
C331 O342 1.258 . S
C331 O343 1.256 . S
O332 La312 2.521 1_656 S
O332 C314 1.261 1_556 S
O333 La312 2.628 1_655 S
O333 C314 1.243 . S
O334 La312 2.554 1_556 S
O334 C321 1.240 . S
O335 La312 2.757 . S
O335 La313 2.482 . S
O335 C321 1.289 1_554 S
O336 La312 2.470 . S
O336 C322 1.258 . S
O337 La313 2.503 . S
O337 C322 1.256 . S
O338 La313 2.521 . S
O338 C323 1.261 . S
O339 La313 2.628 . S
O339 C323 1.243 . S
O340 La313 2.554 . S
O340 C330 1.240 . S
O341 La312 2.482 . S
O341 La313 2.757 . S
O341 C330 1.289 . S
O342 La313 2.470 . S
O342 C331 1.258 . S
O343 La312 2.503 . S
O343 C331 1.256 . S
H344 C316 0.930 . S
H345 C317 0.930 . S
H346 C319 0.929 . S
H347 C320 0.929 . S
H348 C325 0.930 . S
H349 C326 0.930 . S
H350 C328 0.929 1_565 S
H351 C329 0.929 . S
La352 C354 2.928 . S
La352 O372 2.521 . S
La352 O373 2.628 . S
La352 O374 2.554 . S
La352 O375 2.757 . S
La352 O376 2.470 . S
La352 O381 2.482 . S
La352 O383 2.503 . S
La353 C363 2.928 . S
La353 O375 2.482 . S
La353 O377 2.503 . S
La353 O378 2.521 . S
La353 O379 2.628 . S
La353 O380 2.554 . S
La353 O381 2.757 . S
La353 O382 2.470 . S
C354 La352 2.928 . S
C354 C355 1.503 . S
C354 O372 1.261 . S
C354 O373 1.243 . S
C355 C354 1.503 . S
C355 C356 1.394 . S
C355 C360 1.373 . S
C356 C355 1.394 . S
C356 C357 1.380 . S
C356 H384 0.930 . S
C357 C356 1.380 . S
C357 C358 1.376 . S
C357 H385 0.930 . S
C358 C357 1.376 . S
C358 C359 1.370 . S
C359 C358 1.370 . S
C359 C360 1.396 . S
C359 H386 0.929 . S
C360 C355 1.373 . S
C360 C359 1.396 . S
C360 H387 0.929 . S
C361 O374 1.240 . S
C361 O375 1.289 . S
C362 O376 1.258 . S
C362 O377 1.256 . S
C363 La353 2.928 . S
C363 C364 1.503 . S
C363 O378 1.261 . S
C363 O379 1.243 . S
C364 C363 1.503 . S
C364 C365 1.394 . S
C364 C369 1.373 . S
C365 C364 1.394 . S
C365 C366 1.380 . S
C365 H388 0.930 . S
C366 C365 1.380 . S
C366 C367 1.376 . S
C366 H389 0.930 . S
C367 C366 1.376 . S
C367 C368 1.370 . S
C368 C367 1.370 . S
C368 C369 1.396 . S
C368 H390 0.929 . S
C369 C364 1.373 . S
C369 C368 1.396 . S
C369 H391 0.929 . S
C370 O380 1.240 . S
C370 O381 1.289 . S
C371 O382 1.258 . S
C371 O383 1.256 . S
O372 La352 2.521 . S
O372 C354 1.261 . S
O373 La352 2.628 . S
O373 C354 1.243 . S
O374 La352 2.554 . S
O374 C361 1.240 . S
O375 La352 2.757 . S
O375 La353 2.482 . S
O375 C361 1.289 . S
O376 La352 2.470 . S
O376 C362 1.258 . S
O377 La353 2.503 . S
O377 C362 1.256 . S
O378 La353 2.521 . S
O378 C363 1.261 . S
O379 La353 2.628 . S
O379 C363 1.243 . S
O380 La353 2.554 . S
O380 C370 1.240 . S
O381 La352 2.482 . S
O381 La353 2.757 . S
O381 C370 1.289 . S
O382 La353 2.470 . S
O382 C371 1.258 . S
O383 La352 2.503 . S
O383 C371 1.256 . S
H384 C356 0.930 . S
H385 C357 0.930 . S
H386 C359 0.929 . S
H387 C360 0.929 . S
H388 C365 0.930 . S
H389 C366 0.930 . S
H390 C368 0.929 . S
H391 C369 0.929 . S
La392 C394 2.928 . S
La392 O412 2.521 . S
La392 O413 2.628 . S
La392 O414 2.554 . S
La392 O415 2.757 . S
La392 O416 2.470 1_545 S
La392 O421 2.482 . S
La392 O423 2.503 . S
La393 C403 2.928 . S
La393 O415 2.482 . S
La393 O417 2.503 1_545 S
La393 O418 2.521 . S
La393 O419 2.628 . S
La393 O420 2.554 . S
La393 O421 2.757 . S
La393 O422 2.470 . S
C394 La392 2.928 . S
C394 C395 1.503 1_545 S
C394 O412 1.261 . S
C394 O413 1.243 . S
C395 C394 1.503 1_565 S
C395 C396 1.394 . S
C395 C400 1.373 . S
C396 C395 1.394 . S
C396 C397 1.380 . S
C396 H424 0.930 . S
C397 C396 1.380 . S
C397 C398 1.376 . S
C397 H425 0.930 . S
C398 C397 1.376 . S
C398 C399 1.370 . S
C399 C398 1.370 . S
C399 C400 1.396 . S
C399 H426 0.929 . S
C400 C395 1.373 . S
C400 C399 1.396 . S
C400 H427 0.929 . S
C401 O414 1.240 . S
C401 O415 1.289 . S
C402 O416 1.258 . S
C402 O417 1.256 . S
C403 La393 2.928 . S
C403 C404 1.503 . S
C403 O418 1.261 . S
C403 O419 1.243 . S
C404 C403 1.503 . S
C404 C405 1.394 . S
C404 C409 1.373 . S
C405 C404 1.394 . S
C405 C406 1.380 . S
C405 H428 0.930 . S
C406 C405 1.380 . S
C406 C407 1.376 . S
C406 H429 0.930 . S
C407 C406 1.376 . S
C407 C408 1.370 . S
C408 C407 1.370 . S
C408 C409 1.396 . S
C408 H430 0.929 . S
C409 C404 1.373 . S
C409 C408 1.396 . S
C409 H431 0.929 . S
C410 O420 1.240 . S
C410 O421 1.289 . S
C411 O422 1.258 . S
C411 O423 1.256 . S
O412 La392 2.521 . S
O412 C394 1.261 . S
O413 La392 2.628 . S
O413 C394 1.243 . S
O414 La392 2.554 . S
O414 C401 1.240 . S
O415 La392 2.757 . S
O415 La393 2.482 . S
O415 C401 1.289 . S
O416 La392 2.470 1_565 S
O416 C402 1.258 . S
O417 La393 2.503 1_565 S
O417 C402 1.256 . S
O418 La393 2.521 . S
O418 C403 1.261 . S
O419 La393 2.628 . S
O419 C403 1.243 . S
O420 La393 2.554 . S
O420 C410 1.240 . S
O421 La392 2.482 . S
O421 La393 2.757 . S
O421 C410 1.289 . S
O422 La393 2.470 . S
O422 C411 1.258 . S
O423 La392 2.503 . S
O423 C411 1.256 . S
H424 C396 0.930 . S
H425 C397 0.930 . S
H426 C399 0.929 . S
H427 C400 0.929 . S
H428 C405 0.930 . S
H429 C406 0.930 . S
H430 C408 0.929 . S
H431 C409 0.929 . S
La432 C434 2.928 . S
La432 O452 2.521 . S
La432 O453 2.628 . S
La432 O454 2.554 . S
La432 O455 2.757 . S
La432 O456 2.470 . S
La432 O461 2.482 . S
La432 O463 2.503 . S
La433 C443 2.928 . S
La433 O455 2.482 . S
La433 O457 2.503 . S
La433 O458 2.521 . S
La433 O459 2.628 . S
La433 O460 2.554 . S
La433 O461 2.757 . S
La433 O462 2.470 . S
C434 La432 2.928 . S
C434 C435 1.503 . S
C434 O452 1.261 . S
C434 O453 1.243 . S
C435 C434 1.503 . S
C435 C436 1.394 . S
C435 C440 1.373 . S
C436 C435 1.394 . S
C436 C437 1.380 . S
C436 H464 0.930 . S
C437 C436 1.380 . S
C437 C438 1.376 . S
C437 H465 0.930 . S
C438 C437 1.376 . S
C438 C439 1.370 . S
C439 C438 1.370 . S
C439 C440 1.396 . S
C439 H466 0.929 . S
C440 C435 1.373 . S
C440 C439 1.396 . S
C440 H467 0.929 . S
C441 O454 1.240 . S
C441 O455 1.289 . S
C442 O456 1.258 . S
C442 O457 1.256 . S
C443 La433 2.928 . S
C443 C444 1.503 . S
C443 O458 1.261 . S
C443 O459 1.243 . S
C444 C443 1.503 . S
C444 C445 1.394 . S
C444 C449 1.373 . S
C445 C444 1.394 . S
C445 C446 1.380 . S
C445 H468 0.930 . S
C446 C445 1.380 . S
C446 C447 1.376 . S
C446 H469 0.930 . S
C447 C446 1.376 . S
C447 C448 1.370 . S
C448 C447 1.370 . S
C448 C449 1.396 . S
C448 H470 0.929 . S
C449 C444 1.373 . S
C449 C448 1.396 . S
C449 H471 0.929 . S
C450 O460 1.240 . S
C450 O461 1.289 . S
C451 O462 1.258 . S
C451 O463 1.256 . S
O452 La432 2.521 . S
O452 C434 1.261 . S
O453 La432 2.628 . S
O453 C434 1.243 . S
O454 La432 2.554 . S
O454 C441 1.240 . S
O455 La432 2.757 . S
O455 La433 2.482 . S
O455 C441 1.289 . S
O456 La432 2.470 . S
O456 C442 1.258 . S
O457 La433 2.503 . S
O457 C442 1.256 . S
O458 La433 2.521 . S
O458 C443 1.261 . S
O459 La433 2.628 . S
O459 C443 1.243 . S
O460 La433 2.554 . S
O460 C450 1.240 . S
O461 La432 2.482 . S
O461 La433 2.757 . S
O461 C450 1.289 . S
O462 La433 2.470 . S
O462 C451 1.258 . S
O463 La432 2.503 . S
O463 C451 1.256 . S
H464 C436 0.930 . S
H465 C437 0.930 . S
H466 C439 0.929 . S
H467 C440 0.929 . S
H468 C445 0.930 . S
H469 C446 0.930 . S
H470 C448 0.929 . S
H471 C449 0.929 . S
La472 C474 2.928 . S
La472 O492 2.521 . S
La472 O493 2.628 . S
La472 O494 2.554 . S
La472 O495 2.757 . S
La472 O496 2.470 . S
La472 O501 2.482 . S
La472 O503 2.503 . S
La473 C483 2.928 . S
La473 O495 2.482 1_565 S
La473 O497 2.503 1_565 S
La473 O498 2.521 . S
La473 O499 2.628 . S
La473 O500 2.554 1_565 S
La473 O501 2.757 1_565 S
La473 O502 2.470 1_565 S
C474 La472 2.928 . S
C474 C475 1.503 . S
C474 O492 1.261 . S
C474 O493 1.243 . S
C475 C474 1.503 . S
C475 C476 1.394 . S
C475 C480 1.373 . S
C476 C475 1.394 . S
C476 C477 1.380 . S
C476 H504 0.930 . S
C477 C476 1.380 . S
C477 C478 1.376 . S
C477 H505 0.930 . S
C478 C477 1.376 . S
C478 C479 1.370 . S
C479 C478 1.370 . S
C479 C480 1.396 . S
C479 H506 0.929 . S
C480 C475 1.373 . S
C480 C479 1.396 . S
C480 H507 0.929 . S
C481 O494 1.240 . S
C481 O495 1.289 . S
C482 O496 1.258 . S
C482 O497 1.256 . S
C483 La473 2.928 . S
C483 C484 1.503 . S
C483 O498 1.261 . S
C483 O499 1.243 . S
C484 C483 1.503 . S
C484 C485 1.394 . S
C484 C489 1.373 . S
C485 C484 1.394 . S
C485 C486 1.380 . S
C485 H508 0.930 . S
C486 C485 1.380 . S
C486 C487 1.376 . S
C486 H509 0.930 . S
C487 C486 1.376 . S
C487 C488 1.370 . S
C488 C487 1.370 . S
C488 C489 1.396 . S
C488 H510 0.929 . S
C489 C484 1.373 . S
C489 C488 1.396 . S
C489 H511 0.929 . S
C490 O500 1.240 . S
C490 O501 1.289 . S
C491 O502 1.258 . S
C491 O503 1.256 . S
O492 La472 2.521 . S
O492 C474 1.261 . S
O493 La472 2.628 . S
O493 C474 1.243 . S
O494 La472 2.554 . S
O494 C481 1.240 . S
O495 La472 2.757 . S
O495 La473 2.482 1_545 S
O495 C481 1.289 . S
O496 La472 2.470 . S
O496 C482 1.258 . S
O497 La473 2.503 1_545 S
O497 C482 1.256 . S
O498 La473 2.521 . S
O498 C483 1.261 . S
O499 La473 2.628 . S
O499 C483 1.243 . S
O500 La473 2.554 1_545 S
O500 C490 1.240 . S
O501 La472 2.482 . S
O501 La473 2.757 1_545 S
O501 C490 1.289 . S
O502 La473 2.470 1_545 S
O502 C491 1.258 . S
O503 La472 2.503 . S
O503 C491 1.256 . S
H504 C476 0.930 . S
H505 C477 0.930 . S
H506 C479 0.929 . S
H507 C480 0.929 . S
H508 C485 0.930 . S
H509 C486 0.930 . S
H510 C488 0.929 . S
H511 C489 0.929 . S
La512 C514 2.928 . S
La512 O532 2.521 . S
La512 O533 2.628 . S
La512 O534 2.554 . S
La512 O535 2.757 . S
La512 O536 2.470 . S
La512 O541 2.482 . S
La512 O543 2.503 . S
La513 C523 2.928 . S
La513 O535 2.482 . S
La513 O537 2.503 . S
La513 O538 2.521 . S
La513 O539 2.628 . S
La513 O540 2.554 . S
La513 O541 2.757 . S
La513 O542 2.470 . S
C514 La512 2.928 . S
C514 C515 1.503 . S
C514 O532 1.261 . S
C514 O533 1.243 . S
C515 C514 1.503 . S
C515 C516 1.394 . S
C515 C520 1.373 . S
C516 C515 1.394 . S
C516 C517 1.380 . S
C516 H544 0.930 . S
C517 C516 1.380 . S
C517 C518 1.376 . S
C517 H545 0.930 . S
C518 C517 1.376 . S
C518 C519 1.370 . S
C519 C518 1.370 . S
C519 C520 1.396 . S
C519 H546 0.929 . S
C520 C515 1.373 . S
C520 C519 1.396 . S
C520 H547 0.929 . S
C521 O534 1.240 . S
C521 O535 1.289 . S
C522 O536 1.258 . S
C522 O537 1.256 . S
C523 La513 2.928 . S
C523 C524 1.503 . S
C523 O538 1.261 . S
C523 O539 1.243 . S
C524 C523 1.503 . S
C524 C525 1.394 . S
C524 C529 1.373 . S
C525 C524 1.394 . S
C525 C526 1.380 . S
C525 H548 0.930 . S
C526 C525 1.380 . S
C526 C527 1.376 . S
C526 H549 0.930 . S
C527 C526 1.376 . S
C527 C528 1.370 . S
C528 C527 1.370 . S
C528 C529 1.396 . S
C528 H550 0.929 . S
C529 C524 1.373 . S
C529 C528 1.396 . S
C529 H551 0.929 . S
C530 O540 1.240 . S
C530 O541 1.289 . S
C531 O542 1.258 . S
C531 O543 1.256 . S
O532 La512 2.521 . S
O532 C514 1.261 . S
O533 La512 2.628 . S
O533 C514 1.243 . S
O534 La512 2.554 . S
O534 C521 1.240 . S
O535 La512 2.757 . S
O535 La513 2.482 . S
O535 C521 1.289 . S
O536 La512 2.470 . S
O536 C522 1.258 . S
O537 La513 2.503 . S
O537 C522 1.256 . S
O538 La513 2.521 . S
O538 C523 1.261 . S
O539 La513 2.628 . S
O539 C523 1.243 . S
O540 La513 2.554 . S
O540 C530 1.240 . S
O541 La512 2.482 . S
O541 La513 2.757 . S
O541 C530 1.289 . S
O542 La513 2.470 . S
O542 C531 1.258 . S
O543 La512 2.503 . S
O543 C531 1.256 . S
H544 C516 0.930 . S
H545 C517 0.930 . S
H546 C519 0.929 . S
H547 C520 0.929 . S
H548 C525 0.930 . S
H549 C526 0.930 . S
H550 C528 0.929 . S
H551 C529 0.929 . S
La552 C554 2.928 . S
La552 O572 2.521 . S
La552 O573 2.628 . S
La552 O574 2.593 . S
La552 O575 2.757 1_554 S
La552 O576 2.470 . S
La552 O581 2.482 . S
La552 O583 2.503 . S
La553 C563 2.928 . S
La553 O575 2.482 . S
La553 O577 2.503 . S
La553 O578 2.521 . S
La553 O579 2.628 . S
La553 O580 2.554 . S
La553 O581 2.757 1_556 S
La553 O582 2.470 . S
C554 La552 2.928 . S
C554 C555 1.503 . S
C554 O572 1.261 . S
C554 O573 1.243 . S
C555 C554 1.503 . S
C555 C556 1.394 1_545 S
C555 C560 1.373 . S
C556 C555 1.394 1_565 S
C556 C557 1.380 . S
C556 H584 0.930 . S
C557 C556 1.380 . S
C557 C558 1.398 . S
C557 H585 0.930 . S
C558 C557 1.398 . S
C558 C559 1.336 1_565 S
C559 C558 1.336 1_545 S
C559 C560 1.396 . S
C559 H586 0.929 . S
C560 C555 1.373 . S
C560 C559 1.396 . S
C560 H587 0.929 . S
C561 O574 1.261 1_556 S
C561 O575 1.289 . S
C562 O576 1.258 . S
C562 O577 1.256 1_554 S
C563 La553 2.928 . S
C563 C564 1.503 . S
C563 O578 1.261 . S
C563 O579 1.243 . S
C564 C563 1.503 . S
C564 C565 1.394 . S
C564 C569 1.373 . S
C565 C564 1.394 . S
C565 C566 1.380 . S
C565 H588 0.930 . S
C566 C565 1.380 . S
C566 C567 1.376 . S
C566 H589 0.930 . S
C567 C566 1.376 . S
C567 C568 1.370 . S
C568 C567 1.370 . S
C568 C569 1.396 . S
C568 H590 0.929 . S
C569 C564 1.373 . S
C569 C568 1.396 . S
C569 H591 0.929 . S
C570 O580 1.240 1_554 S
C570 O581 1.289 . S
C571 O582 1.258 1_554 S
C571 O583 1.256 . S
O572 La552 2.521 . S
O572 C554 1.261 . S
O573 La552 2.628 . S
O573 C554 1.243 . S
O574 La552 2.593 . S
O574 C561 1.261 1_554 S
O575 La552 2.757 1_556 S
O575 La553 2.482 . S
O575 C561 1.289 . S
O576 La552 2.470 . S
O576 C562 1.258 . S
O577 La553 2.503 . S
O577 C562 1.256 1_556 S
O578 La553 2.521 . S
O578 C563 1.261 . S
O579 La553 2.628 . S
O579 C563 1.243 . S
O580 La553 2.554 . S
O580 C570 1.240 1_556 S
O581 La552 2.482 . S
O581 La553 2.757 1_554 S
O581 C570 1.289 . S
O582 La553 2.470 . S
O582 C571 1.258 1_556 S
O583 La552 2.503 . S
O583 C571 1.256 . S
H584 C556 0.930 . S
H585 C557 0.930 . S
H586 C559 0.929 . S
H587 C560 0.929 . S
H588 C565 0.930 . S
H589 C566 0.930 . S
H590 C568 0.929 . S
H591 C569 0.929 . S
La592 C594 2.928 . S
La592 O612 2.521 . S
La592 O613 2.628 . S
La592 O614 2.554 . S
La592 O615 2.757 . S
La592 O616 2.470 . S
La592 O621 2.482 . S
La592 O623 2.503 . S
La593 C603 2.928 . S
La593 O615 2.482 . S
La593 O617 2.503 . S
La593 O618 2.521 . S
La593 O619 2.628 . S
La593 O620 2.554 . S
La593 O621 2.757 . S
La593 O622 2.470 . S
C594 La592 2.928 . S
C594 C595 1.503 . S
C594 O612 1.261 . S
C594 O613 1.243 . S
C595 C594 1.503 . S
C595 C596 1.394 . S
C595 C600 1.373 . S
C596 C595 1.394 . S
C596 C597 1.380 . S
C596 H624 0.930 . S
C597 C596 1.380 . S
C597 C598 1.376 . S
C597 H625 0.930 . S
C598 C597 1.376 . S
C598 C599 1.370 . S
C599 C598 1.370 . S
C599 C600 1.396 . S
C599 H626 0.929 . S
C600 C595 1.373 . S
C600 C599 1.396 . S
C600 H627 0.929 . S
C601 O614 1.240 . S
C601 O615 1.289 . S
C602 O616 1.258 . S
C602 O617 1.256 . S
C603 La593 2.928 . S
C603 C604 1.503 . S
C603 O618 1.261 . S
C603 O619 1.243 . S
C604 C603 1.503 . S
C604 C605 1.394 . S
C604 C609 1.373 . S
C605 C604 1.394 . S
C605 C606 1.380 . S
C605 H628 0.930 . S
C606 C605 1.380 . S
C606 C607 1.376 . S
C606 H629 0.930 . S
C607 C606 1.376 . S
C607 C608 1.370 . S
C608 C607 1.370 . S
C608 C609 1.396 . S
C608 H630 0.929 . S
C609 C604 1.373 . S
C609 C608 1.396 . S
C609 H631 0.929 . S
C610 O620 1.240 . S
C610 O621 1.289 . S
C611 O622 1.258 . S
C611 O623 1.256 . S
O612 La592 2.521 . S
O612 C594 1.261 . S
O613 La592 2.628 . S
O613 C594 1.243 . S
O614 La592 2.554 . S
O614 C601 1.240 . S
O615 La592 2.757 . S
O615 La593 2.482 . S
O615 C601 1.289 . S
O616 La592 2.470 . S
O616 C602 1.258 . S
O617 La593 2.503 . S
O617 C602 1.256 . S
O618 La593 2.521 . S
O618 C603 1.261 . S
O619 La593 2.628 . S
O619 C603 1.243 . S
O620 La593 2.554 . S
O620 C610 1.240 . S
O621 La592 2.482 . S
O621 La593 2.757 . S
O621 C610 1.289 . S
O622 La593 2.470 . S
O622 C611 1.258 . S
O623 La592 2.503 . S
O623 C611 1.256 . S
H624 C596 0.930 . S
H625 C597 0.930 . S
H626 C599 0.929 . S
H627 C600 0.929 . S
H628 C605 0.930 . S
H629 C606 0.930 . S
H630 C608 0.929 . S
H631 C609 0.929 . S
La632 C634 2.928 1_554 S
La632 O652 2.521 . S
La632 O653 2.628 1_554 S
La632 O654 2.554 . S
La632 O655 2.757 . S
La632 O656 2.470 1_554 S
La632 O661 2.501 . S
La632 O663 2.503 . S
La633 C643 2.928 1_556 S
La633 O655 2.482 1_556 S
La633 O657 2.503 . S
La633 O658 2.521 1_556 S
La633 O659 2.628 1_556 S
La633 O660 2.554 . S
La633 O661 2.763 1_556 S
La633 O662 2.470 1_556 S
C634 La632 2.928 1_556 S
C634 C635 1.503 . S
C634 O652 1.261 1_556 S
C634 O653 1.243 . S
C635 C634 1.503 . S
C635 C636 1.394 . S
C635 C640 1.373 . S
C636 C635 1.394 . S
C636 C637 1.380 . S
C636 H664 0.930 . S
C637 C636 1.380 . S
C637 C638 1.376 . S
C637 H665 0.930 . S
C638 C637 1.376 . S
C638 C639 1.370 . S
C639 C638 1.370 . S
C639 C640 1.396 . S
C639 H666 0.929 . S
C640 C635 1.373 . S
C640 C639 1.396 . S
C640 H667 0.929 . S
C641 O654 1.240 . S
C641 O655 1.289 . S
C642 O656 1.258 . S
C642 O657 1.256 . S
C643 La633 2.928 1_554 S
C643 C644 1.503 . S
C643 O658 1.261 . S
C643 O659 1.243 . S
C644 C643 1.503 . S
C644 C645 1.394 . S
C644 C649 1.373 . S
C645 C644 1.394 . S
C645 C646 1.380 . S
C645 H668 0.930 . S
C646 C645 1.380 . S
C646 C647 1.376 . S
C646 H669 0.930 . S
C647 C646 1.376 . S
C647 C648 1.370 . S
C648 C647 1.370 . S
C648 C649 1.396 . S
C648 H670 0.929 . S
C649 C644 1.373 . S
C649 C648 1.396 . S
C649 H671 0.929 . S
C650 O660 1.240 . S
C650 O661 1.280 1_556 S
C651 O662 1.258 . S
C651 O663 1.256 . S
O652 La632 2.521 . S
O652 C634 1.261 1_554 S
O653 La632 2.628 1_556 S
O653 C634 1.243 . S
O654 La632 2.554 . S
O654 C641 1.240 . S
O655 La632 2.757 . S
O655 La633 2.482 1_554 S
O655 C641 1.289 . S
O656 La632 2.470 1_556 S
O656 C642 1.258 . S
O657 La633 2.503 . S
O657 C642 1.256 . S
O658 La633 2.521 1_554 S
O658 C643 1.261 . S
O659 La633 2.628 1_554 S
O659 C643 1.243 . S
O660 La633 2.554 . S
O660 C650 1.240 . S
O661 La632 2.501 . S
O661 La633 2.763 1_554 S
O661 C650 1.280 1_554 S
O662 La633 2.470 1_554 S
O662 C651 1.258 . S
O663 La632 2.503 . S
O663 C651 1.256 . S
H664 C636 0.930 . S
H665 C637 0.930 . S
H666 C639 0.929 . S
H667 C640 0.929 . S
H668 C645 0.930 . S
H669 C646 0.930 . S
H670 C648 0.929 . S
H671 C649 0.929 . S
La672 C674 2.928 . S
La672 O692 2.521 . S
La672 O693 2.628 . S
La672 O694 2.554 . S
La672 O695 2.757 . S
La672 O696 2.470 . S
La672 O701 2.482 . S
La672 O703 2.503 . S
La673 C683 2.928 . S
La673 O695 2.482 . S
La673 O697 2.503 . S
La673 O698 2.521 . S
La673 O699 2.628 . S
La673 O700 2.554 . S
La673 O701 2.757 . S
La673 O702 2.470 . S
C674 La672 2.928 . S
C674 C675 1.503 . S
C674 O692 1.261 . S
C674 O693 1.243 . S
C675 C674 1.503 . S
C675 C676 1.394 . S
C675 C680 1.373 . S
C676 C675 1.394 . S
C676 C677 1.380 . S
C676 H704 0.930 . S
C677 C676 1.380 . S
C677 C678 1.376 . S
C677 H705 0.930 . S
C678 C677 1.376 . S
C678 C679 1.370 . S
C679 C678 1.370 . S
C679 C680 1.396 . S
C679 H706 0.929 . S
C680 C675 1.373 . S
C680 C679 1.396 . S
C680 H707 0.929 . S
C681 O694 1.240 . S
C681 O695 1.289 . S
C682 O696 1.258 . S
C682 O697 1.256 . S
C683 La673 2.928 . S
C683 C684 1.503 . S
C683 O698 1.261 . S
C683 O699 1.243 . S
C684 C683 1.503 . S
C684 C685 1.394 . S
C684 C689 1.373 . S
C685 C684 1.394 . S
C685 C686 1.380 . S
C685 H708 0.930 . S
C686 C685 1.380 . S
C686 C687 1.376 . S
C686 H709 0.930 . S
C687 C686 1.376 . S
C687 C688 1.370 . S
C688 C687 1.370 . S
C688 C689 1.396 . S
C688 H710 0.929 . S
C689 C684 1.373 . S
C689 C688 1.396 . S
C689 H711 0.929 . S
C690 O700 1.240 . S
C690 O701 1.289 . S
C691 O702 1.258 . S
C691 O703 1.256 . S
O692 La672 2.521 . S
O692 C674 1.261 . S
O693 La672 2.628 . S
O693 C674 1.243 . S
O694 La672 2.554 . S
O694 C681 1.240 . S
O695 La672 2.757 . S
O695 La673 2.482 . S
O695 C681 1.289 . S
O696 La672 2.470 . S
O696 C682 1.258 . S
O697 La673 2.503 . S
O697 C682 1.256 . S
O698 La673 2.521 . S
O698 C683 1.261 . S
O699 La673 2.628 . S
O699 C683 1.243 . S
O700 La673 2.554 . S
O700 C690 1.240 . S
O701 La672 2.482 . S
O701 La673 2.757 . S
O701 C690 1.289 . S
O702 La673 2.470 . S
O702 C691 1.258 . S
O703 La672 2.503 . S
O703 C691 1.256 . S
H704 C676 0.930 . S
H705 C677 0.930 . S
H706 C679 0.929 . S
H707 C680 0.929 . S
H708 C685 0.930 . S
H709 C686 0.930 . S
H710 C688 0.929 . S
H711 C689 0.929 . S
La712 C714 2.928 . S
La712 O732 2.521 . S
La712 O733 2.628 . S
La712 O734 2.554 . S
La712 O735 2.757 . S
La712 O736 2.470 . S
La712 O741 2.482 . S
La712 O743 2.503 . S
La713 C723 2.928 . S
La713 O735 2.482 . S
La713 O737 2.503 1_455 S
La713 O738 2.521 . S
La713 O739 2.628 . S
La713 O740 2.554 . S
La713 O741 2.757 . S
La713 O742 2.470 . S
C714 La712 2.928 . S
C714 C715 1.499 1_455 S
C714 O732 1.261 . S
C714 O733 1.243 . S
C715 C714 1.499 1_655 S
C715 C716 1.392 1_655 S
C715 C720 1.379 . S
C716 C715 1.392 1_455 S
C716 C717 1.380 1_455 S
C716 H744 0.930 . S
C717 C716 1.380 1_655 S
C717 C718 1.376 . S
C717 H745 0.930 . S
C718 C717 1.376 . S
C718 C719 1.370 . S
C719 C718 1.370 . S
C719 C720 1.396 . S
C719 H746 0.929 . S
C720 C715 1.379 . S
C720 C719 1.396 . S
C720 H747 0.929 . S
C721 O734 1.240 . S
C721 O735 1.289 . S
C722 O736 1.258 1_655 S
C722 O737 1.256 . S
C723 La713 2.928 . S
C723 C724 1.503 . S
C723 O738 1.261 . S
C723 O739 1.243 . S
C724 C723 1.503 . S
C724 C725 1.394 . S
C724 C729 1.373 . S
C725 C724 1.394 . S
C725 C726 1.380 . S
C725 H748 0.930 . S
C726 C725 1.380 . S
C726 C727 1.376 . S
C726 H749 0.930 . S
C727 C726 1.376 . S
C727 C728 1.370 . S
C728 C727 1.370 . S
C728 C729 1.396 . S
C728 H750 0.929 . S
C729 C724 1.373 . S
C729 C728 1.396 . S
C729 H751 0.929 . S
C730 O740 1.240 . S
C730 O741 1.289 . S
C731 O742 1.258 . S
C731 O743 1.256 . S
O732 La712 2.521 . S
O732 C714 1.261 . S
O733 La712 2.628 . S
O733 C714 1.243 . S
O734 La712 2.554 . S
O734 C721 1.240 . S
O735 La712 2.757 . S
O735 La713 2.482 . S
O735 C721 1.289 . S
O736 La712 2.470 . S
O736 C722 1.258 1_455 S
O737 La713 2.503 1_655 S
O737 C722 1.256 . S
O738 La713 2.521 . S
O738 C723 1.261 . S
O739 La713 2.628 . S
O739 C723 1.243 . S
O740 La713 2.554 . S
O740 C730 1.240 . S
O741 La712 2.482 . S
O741 La713 2.757 . S
O741 C730 1.289 . S
O742 La713 2.470 . S
O742 C731 1.258 . S
O743 La712 2.503 . S
O743 C731 1.256 . S
H744 C716 0.930 . S
H745 C717 0.930 . S
H746 C719 0.929 . S
H747 C720 0.929 . S
H748 C725 0.930 . S
H749 C726 0.930 . S
H750 C728 0.929 . S
H751 C729 0.929 . S
La752 C754 2.928 . S
La752 O772 2.521 . S
La752 O773 2.628 . S
La752 O774 2.554 . S
La752 O775 2.757 . S
La752 O776 2.470 . S
La752 O781 2.482 . S
La752 O783 2.503 . S
La753 C763 2.928 . S
La753 O775 2.482 . S
La753 O777 2.503 . S
La753 O778 2.521 . S
La753 O779 2.628 . S
La753 O780 2.554 . S
La753 O781 2.757 . S
La753 O782 2.470 . S
C754 La752 2.928 . S
C754 C755 1.503 . S
C754 O772 1.261 . S
C754 O773 1.243 . S
C755 C754 1.503 . S
C755 C756 1.394 . S
C755 C760 1.373 . S
C756 C755 1.394 . S
C756 C757 1.380 . S
C756 H784 0.930 . S
C757 C756 1.380 . S
C757 C758 1.376 . S
C757 H785 0.930 . S
C758 C757 1.376 . S
C758 C759 1.370 . S
C759 C758 1.370 . S
C759 C760 1.396 . S
C759 H786 0.929 . S
C760 C755 1.373 . S
C760 C759 1.396 . S
C760 H787 0.929 . S
C761 O774 1.240 . S
C761 O775 1.289 . S
C762 O776 1.258 . S
C762 O777 1.256 . S
C763 La753 2.928 . S
C763 C764 1.503 . S
C763 O778 1.261 . S
C763 O779 1.243 . S
C764 C763 1.503 . S
C764 C765 1.394 . S
C764 C769 1.373 . S
C765 C764 1.394 . S
C765 C766 1.380 . S
C765 H788 0.930 . S
C766 C765 1.380 . S
C766 C767 1.376 . S
C766 H789 0.930 . S
C767 C766 1.376 . S
C767 C768 1.370 . S
C768 C767 1.370 . S
C768 C769 1.396 . S
C768 H790 0.929 . S
C769 C764 1.373 . S
C769 C768 1.396 . S
C769 H791 0.929 . S
C770 O780 1.240 . S
C770 O781 1.289 . S
C771 O782 1.258 . S
C771 O783 1.256 . S
O772 La752 2.521 . S
O772 C754 1.261 . S
O773 La752 2.628 . S
O773 C754 1.243 . S
O774 La752 2.554 . S
O774 C761 1.240 . S
O775 La752 2.757 . S
O775 La753 2.482 . S
O775 C761 1.289 . S
O776 La752 2.470 . S
O776 C762 1.258 . S
O777 La753 2.503 . S
O777 C762 1.256 . S
O778 La753 2.521 . S
O778 C763 1.261 . S
O779 La753 2.628 . S
O779 C763 1.243 . S
O780 La753 2.554 . S
O780 C770 1.240 . S
O781 La752 2.482 . S
O781 La753 2.757 . S
O781 C770 1.289 . S
O782 La753 2.470 . S
O782 C771 1.258 . S
O783 La752 2.503 . S
O783 C771 1.256 . S
H784 C756 0.930 . S
H785 C757 0.930 . S
H786 C759 0.929 . S
H787 C760 0.929 . S
H788 C765 0.930 . S
H789 C766 0.930 . S
H790 C768 0.929 . S
H791 C769 0.929 . S
La792 C794 2.928 . S
La792 O812 2.521 . S
La792 O813 2.628 . S
La792 O814 2.554 . S
La792 O815 2.757 . S
La792 O816 2.470 . S
La792 O821 2.482 . S
La792 O823 2.503 . S
La793 C803 2.928 . S
La793 O815 2.482 . S
La793 O817 2.503 . S
La793 O818 2.521 . S
La793 O819 2.628 . S
La793 O820 2.554 . S
La793 O821 2.757 . S
La793 O822 2.470 . S
C794 La792 2.928 . S
C794 C795 1.503 . S
C794 O812 1.261 . S
C794 O813 1.243 . S
C795 C794 1.503 . S
C795 C796 1.394 . S
C795 C800 1.373 . S
C796 C795 1.394 . S
C796 C797 1.380 . S
C796 H824 0.930 . S
C797 C796 1.380 . S
C797 C798 1.376 . S
C797 H825 0.930 . S
C798 C797 1.376 . S
C798 C799 1.370 . S
C799 C798 1.370 . S
C799 C800 1.396 . S
C799 H826 0.929 . S
C800 C795 1.373 . S
C800 C799 1.396 . S
C800 H827 0.929 . S
C801 O814 1.240 . S
C801 O815 1.289 . S
C802 O816 1.258 . S
C802 O817 1.256 . S
C803 La793 2.928 . S
C803 C804 1.503 . S
C803 O818 1.261 . S
C803 O819 1.243 . S
C804 C803 1.503 . S
C804 C805 1.394 . S
C804 C809 1.373 . S
C805 C804 1.394 . S
C805 C806 1.380 . S
C805 H828 0.930 . S
C806 C805 1.380 . S
C806 C807 1.376 . S
C806 H829 0.930 . S
C807 C806 1.376 . S
C807 C808 1.370 . S
C808 C807 1.370 . S
C808 C809 1.396 . S
C808 H830 0.929 . S
C809 C804 1.373 . S
C809 C808 1.396 . S
C809 H831 0.929 . S
C810 O820 1.240 . S
C810 O821 1.289 . S
C811 O822 1.258 . S
C811 O823 1.256 . S
O812 La792 2.521 . S
O812 C794 1.261 . S
O813 La792 2.628 . S
O813 C794 1.243 . S
O814 La792 2.554 . S
O814 C801 1.240 . S
O815 La792 2.757 . S
O815 La793 2.482 . S
O815 C801 1.289 . S
O816 La792 2.470 . S
O816 C802 1.258 . S
O817 La793 2.503 . S
O817 C802 1.256 . S
O818 La793 2.521 . S
O818 C803 1.261 . S
O819 La793 2.628 . S
O819 C803 1.243 . S
O820 La793 2.554 . S
O820 C810 1.240 . S
O821 La792 2.482 . S
O821 La793 2.757 . S
O821 C810 1.289 . S
O822 La793 2.470 . S
O822 C811 1.258 . S
O823 La792 2.503 . S
O823 C811 1.256 . S
H824 C796 0.930 . S
H825 C797 0.930 . S
H826 C799 0.929 . S
H827 C800 0.929 . S
H828 C805 0.930 . S
H829 C806 0.930 . S
H830 C808 0.929 . S
H831 C809 0.929 . S
La832 C834 2.928 . S
La832 O852 2.521 . S
La832 O853 2.628 . S
La832 O854 2.554 . S
La832 O855 2.757 . S
La832 O856 2.470 . S
La832 O861 2.482 . S
La832 O863 2.503 . S
La833 C843 2.928 . S
La833 O855 2.482 . S
La833 O857 2.503 . S
La833 O858 2.521 . S
La833 O859 2.628 . S
La833 O860 2.554 . S
La833 O861 2.757 . S
La833 O862 2.470 . S
C834 La832 2.928 . S
C834 C835 1.503 . S
C834 O852 1.261 . S
C834 O853 1.243 . S
C835 C834 1.503 . S
C835 C836 1.394 . S
C835 C840 1.373 . S
C836 C835 1.394 . S
C836 C837 1.380 . S
C836 H864 0.930 . S
C837 C836 1.380 . S
C837 C838 1.376 . S
C837 H865 0.930 . S
C838 C837 1.376 . S
C838 C839 1.370 . S
C839 C838 1.370 . S
C839 C840 1.396 . S
C839 H866 0.929 . S
C840 C835 1.373 . S
C840 C839 1.396 . S
C840 H867 0.929 . S
C841 O854 1.240 . S
C841 O855 1.289 . S
C842 O856 1.258 . S
C842 O857 1.256 . S
C843 La833 2.928 . S
C843 C844 1.503 . S
C843 O858 1.261 . S
C843 O859 1.243 . S
C844 C843 1.503 . S
C844 C845 1.394 . S
C844 C849 1.373 . S
C845 C844 1.394 . S
C845 C846 1.380 . S
C845 H868 0.930 . S
C846 C845 1.380 . S
C846 C847 1.376 . S
C846 H869 0.930 . S
C847 C846 1.376 . S
C847 C848 1.370 . S
C848 C847 1.370 . S
C848 C849 1.396 . S
C848 H870 0.929 . S
C849 C844 1.373 . S
C849 C848 1.396 . S
C849 H871 0.929 . S
C850 O860 1.240 . S
C850 O861 1.289 . S
C851 O862 1.258 . S
C851 O863 1.256 . S
O852 La832 2.521 . S
O852 C834 1.261 . S
O853 La832 2.628 . S
O853 C834 1.243 . S
O854 La832 2.554 . S
O854 C841 1.240 . S
O855 La832 2.757 . S
O855 La833 2.482 . S
O855 C841 1.289 . S
O856 La832 2.470 . S
O856 C842 1.258 . S
O857 La833 2.503 . S
O857 C842 1.256 . S
O858 La833 2.521 . S
O858 C843 1.261 . S
O859 La833 2.628 . S
O859 C843 1.243 . S
O860 La833 2.554 . S
O860 C850 1.240 . S
O861 La832 2.482 . S
O861 La833 2.757 . S
O861 C850 1.289 . S
O862 La833 2.470 . S
O862 C851 1.258 . S
O863 La832 2.503 . S
O863 C851 1.256 . S
H864 C836 0.930 . S
H865 C837 0.930 . S
H866 C839 0.929 . S
H867 C840 0.929 . S
H868 C845 0.930 . S
H869 C846 0.930 . S
H870 C848 0.929 . S
H871 C849 0.929 . S
La872 C874 2.928 . S
La872 O892 2.521 . S
La872 O893 2.628 . S
La872 O894 2.554 . S
La872 O895 2.757 . S
La872 O896 2.470 . S
La872 O901 2.482 . S
La872 O903 2.503 . S
La873 C883 2.928 . S
La873 O895 2.482 . S
La873 O897 2.503 . S
La873 O898 2.521 . S
La873 O899 2.628 . S
La873 O900 2.554 . S
La873 O901 2.757 . S
La873 O902 2.470 . S
C874 La872 2.928 . S
C874 C875 1.503 . S
C874 O892 1.261 . S
C874 O893 1.243 . S
C875 C874 1.503 . S
C875 C876 1.394 . S
C875 C880 1.373 . S
C876 C875 1.394 . S
C876 C877 1.380 . S
C876 H904 0.930 . S
C877 C876 1.380 . S
C877 C878 1.376 . S
C877 H905 0.930 . S
C878 C877 1.376 . S
C878 C879 1.370 . S
C879 C878 1.370 . S
C879 C880 1.396 . S
C879 H906 0.929 . S
C880 C875 1.373 . S
C880 C879 1.396 . S
C880 H907 0.929 . S
C881 O894 1.240 . S
C881 O895 1.289 . S
C882 O896 1.258 . S
C882 O897 1.256 . S
C883 La873 2.928 . S
C883 C884 1.503 . S
C883 O898 1.261 . S
C883 O899 1.243 . S
C884 C883 1.503 . S
C884 C885 1.394 . S
C884 C889 1.373 . S
C885 C884 1.394 . S
C885 C886 1.380 . S
C885 H908 0.930 . S
C886 C885 1.380 . S
C886 C887 1.376 . S
C886 H909 0.930 . S
C887 C886 1.376 . S
C887 C888 1.370 . S
C888 C887 1.370 . S
C888 C889 1.396 . S
C888 H910 0.929 . S
C889 C884 1.373 . S
C889 C888 1.396 . S
C889 H911 0.929 . S
C890 O900 1.240 . S
C890 O901 1.289 . S
C891 O902 1.258 . S
C891 O903 1.256 . S
O892 La872 2.521 . S
O892 C874 1.261 . S
O893 La872 2.628 . S
O893 C874 1.243 . S
O894 La872 2.554 . S
O894 C881 1.240 . S
O895 La872 2.757 . S
O895 La873 2.482 . S
O895 C881 1.289 . S
O896 La872 2.470 . S
O896 C882 1.258 . S
O897 La873 2.503 . S
O897 C882 1.256 . S
O898 La873 2.521 . S
O898 C883 1.261 . S
O899 La873 2.628 . S
O899 C883 1.243 . S
O900 La873 2.554 . S
O900 C890 1.240 . S
O901 La872 2.482 . S
O901 La873 2.757 . S
O901 C890 1.289 . S
O902 La873 2.470 . S
O902 C891 1.258 . S
O903 La872 2.503 . S
O903 C891 1.256 . S
H904 C876 0.930 . S
H905 C877 0.930 . S
H906 C879 0.929 . S
H907 C880 0.929 . S
H908 C885 0.930 . S
H909 C886 0.930 . S
H910 C888 0.929 . S
H911 C889 0.929 . S
La912 C914 2.928 . S
La912 O932 2.521 1_554 S
La912 O933 2.628 . S
La912 O934 2.554 1_554 S
La912 O935 2.757 . S
La912 O936 2.470 . S
La912 O941 2.482 . S
La912 O943 2.503 . S
La913 C923 2.928 1_455 S
La913 O935 2.482 . S
La913 O937 2.503 . S
La913 O938 2.521 1_455 S
La913 O939 2.628 1_455 S
La913 O940 2.554 . S
La913 O941 2.757 . S
La913 O942 2.470 . S
C914 La912 2.928 . S
C914 C915 1.503 . S
C914 O932 1.261 1_554 S
C914 O933 1.243 . S
C915 C914 1.503 . S
C915 C916 1.394 1_554 S
C915 C920 1.373 . S
C916 C915 1.394 1_556 S
C916 C917 1.380 . S
C916 H944 0.930 . S
C917 C916 1.380 . S
C917 C918 1.376 . S
C917 H945 0.930 . S
C918 C917 1.376 . S
C918 C919 1.370 1_556 S
C919 C918 1.370 1_554 S
C919 C920 1.396 . S
C919 H946 0.929 . S
C920 C915 1.373 . S
C920 C919 1.396 . S
C920 H947 0.929 . S
C921 O934 1.240 . S
C921 O935 1.289 1_556 S
C922 O936 1.258 . S
C922 O937 1.256 . S
C923 La913 2.928 1_655 S
C923 C924 1.503 . S
C923 O938 1.261 . S
C923 O939 1.243 . S
C924 C923 1.503 . S
C924 C925 1.394 . S
C924 C929 1.373 . S
C925 C924 1.394 . S
C925 C926 1.380 . S
C925 H948 0.930 . S
C926 C925 1.380 . S
C926 C927 1.376 . S
C926 H949 0.930 . S
C927 C926 1.376 . S
C927 C928 1.370 . S
C928 C927 1.370 . S
C928 C929 1.396 . S
C928 H950 0.929 . S
C929 C924 1.373 . S
C929 C928 1.396 . S
C929 H951 0.929 . S
C930 O940 1.240 . S
C930 O941 1.289 . S
C931 O942 1.258 . S
C931 O943 1.256 . S
O932 La912 2.521 1_556 S
O932 C914 1.261 1_556 S
O933 La912 2.628 . S
O933 C914 1.243 . S
O934 La912 2.554 1_556 S
O934 C921 1.240 . S
O935 La912 2.757 . S
O935 La913 2.482 . S
O935 C921 1.289 1_554 S
O936 La912 2.470 . S
O936 C922 1.258 . S
O937 La913 2.503 . S
O937 C922 1.256 . S
O938 La913 2.521 1_655 S
O938 C923 1.261 . S
O939 La913 2.628 1_655 S
O939 C923 1.243 . S
O940 La913 2.554 . S
O940 C930 1.240 . S
O941 La912 2.482 . S
O941 La913 2.757 . S
O941 C930 1.289 . S
O942 La913 2.470 . S
O942 C931 1.258 . S
O943 La912 2.503 . S
O943 C931 1.256 . S
H944 C916 0.930 . S
H945 C917 0.930 . S
H946 C919 0.929 . S
H947 C920 0.929 . S
H948 C925 0.930 . S
H949 C926 0.930 . S
H950 C928 0.929 . S
H951 C929 0.929 . S
H952 C964 0.930 1_655 S
H953 C966 0.930 . S
H954 C967 0.930 . S
H955 C971 0.959 1_455 S
H956 C971 0.959 . S
H957 C971 0.961 1_556 S
H958 C972 0.960 . S
H959 C972 0.961 . S
H960 C972 0.937 1_455 S
H961 C975 0.929 . S
H962 C976 0.931 . S
H963 C978 0.930 . S
C964 H952 0.930 1_455 S
C964 C965 1.399 . S
C964 C969 1.399 . S
C965 C964 1.399 . S
C965 C966 1.376 . S
C966 H953 0.930 . S
C966 C965 1.376 . S
C966 C967 1.388 . S
C967 H954 0.930 . S
C967 C966 1.388 . S
C967 C968 1.390 . S
C968 C967 1.390 . S
C968 C969 1.394 . S
C968 C974 1.465 . S
C969 C964 1.399 . S
C969 C968 1.394 . S
C969 C970 1.516 . S
C970 C969 1.516 . S
C970 C971 1.502 1_456 S
C970 C972 1.561 1_455 S
C970 C973 1.526 . S
C971 H955 0.959 1_655 S
C971 H956 0.959 . S
C971 H957 0.961 1_554 S
C971 C970 1.502 1_654 S
C972 H958 0.960 . S
C972 H959 0.961 . S
C972 H960 0.937 1_655 S
C972 C970 1.561 1_655 S
C973 C970 1.526 . S
C973 C974 1.396 . S
C973 C978 1.390 1_556 S
C974 C968 1.465 . S
C974 C973 1.396 . S
C974 C975 1.399 . S
C975 H961 0.929 . S
C975 C974 1.399 . S
C975 C976 1.385 1_556 S
C976 H962 0.931 . S
C976 C975 1.385 1_554 S
C976 C977 1.389 . S
C977 C976 1.389 . S
C977 C978 1.387 . S
C978 H963 0.930 . S
C978 C973 1.390 1_554 S
C978 C977 1.387 . S
H979 C991 0.930 . S
H980 C993 0.930 . S
H981 C994 0.930 . S
H982 C998 0.959 . S
H983 C998 0.959 . S
H984 C998 0.961 . S
H985 C999 0.960 . S
H986 C999 0.961 . S
H987 C999 0.959 . S
H988 C1002 0.929 . S
H989 C1003 0.931 . S
H990 C1005 0.930 . S
C991 H979 0.930 . S
C991 C992 1.399 . S
C991 C996 1.399 . S
C992 C991 1.399 . S
C992 C993 1.376 . S
C993 H980 0.930 . S
C993 C992 1.376 . S
C993 C994 1.388 . S
C994 H981 0.930 . S
C994 C993 1.388 . S
C994 C995 1.390 . S
C995 C994 1.390 . S
C995 C996 1.394 . S
C995 C1001 1.465 . S
C996 C991 1.399 . S
C996 C995 1.394 . S
C996 C997 1.516 . S
C997 C996 1.516 . S
C997 C998 1.502 . S
C997 C999 1.561 . S
C997 C1000 1.526 . S
C998 H982 0.959 . S
C998 H983 0.959 . S
C998 H984 0.961 . S
C998 C997 1.502 . S
C999 H985 0.960 . S
C999 H986 0.961 . S
C999 H987 0.959 . S
C999 C997 1.561 . S
C1000 C997 1.526 . S
C1000 C1001 1.396 . S
C1000 C1005 1.390 . S
C1001 C995 1.465 . S
C1001 C1000 1.396 . S
C1001 C1002 1.399 . S
C1002 H988 0.929 . S
C1002 C1001 1.399 . S
C1002 C1003 1.385 . S
C1003 H989 0.931 . S
C1003 C1002 1.385 . S
C1003 C1004 1.389 . S
C1004 C1003 1.389 . S
C1004 C1005 1.387 . S
C1005 H990 0.930 . S
C1005 C1000 1.390 . S
C1005 C1004 1.387 . S
H1006 C1018 0.930 . S
H1007 C1020 0.930 . S
H1008 C1021 0.930 . S
H1009 C1025 0.959 . S
H1010 C1025 0.959 . S
H1011 C1025 0.961 . S
H1012 C1026 0.960 . S
H1013 C1026 0.961 . S
H1014 C1026 0.959 . S
H1015 C1029 0.929 . S
H1016 C1030 0.931 . S
H1017 C1032 0.930 . S
C1018 H1006 0.930 . S
C1018 C1019 1.399 . S
C1018 C1023 1.399 . S
C1019 C1018 1.399 . S
C1019 C1020 1.376 . S
C1020 H1007 0.930 . S
C1020 C1019 1.376 . S
C1020 C1021 1.388 . S
C1021 H1008 0.930 . S
C1021 C1020 1.388 . S
C1021 C1022 1.390 . S
C1022 C1021 1.390 . S
C1022 C1023 1.394 . S
C1022 C1028 1.465 . S
C1023 C1018 1.399 . S
C1023 C1022 1.394 . S
C1023 C1024 1.516 . S
C1024 C1023 1.516 . S
C1024 C1025 1.502 . S
C1024 C1026 1.561 . S
C1024 C1027 1.526 . S
C1025 H1009 0.959 . S
C1025 H1010 0.959 . S
C1025 H1011 0.961 . S
C1025 C1024 1.502 . S
C1026 H1012 0.960 . S
C1026 H1013 0.961 . S
C1026 H1014 0.959 . S
C1026 C1024 1.561 . S
C1027 C1024 1.526 . S
C1027 C1028 1.396 . S
C1027 C1032 1.390 . S
C1028 C1022 1.465 . S
C1028 C1027 1.396 . S
C1028 C1029 1.399 . S
C1029 H1015 0.929 . S
C1029 C1028 1.399 . S
C1029 C1030 1.385 . S
C1030 H1016 0.931 . S
C1030 C1029 1.385 . S
C1030 C1031 1.389 . S
C1031 C1030 1.389 . S
C1031 C1032 1.387 . S
C1032 H1017 0.930 . S
C1032 C1027 1.390 . S
C1032 C1031 1.387 . S
H1033 C1045 0.930 . S
H1034 C1047 0.930 . S
H1035 C1048 0.930 . S
H1036 C1052 0.959 . S
H1037 C1052 0.959 . S
H1038 C1052 0.961 . S
H1039 C1053 0.960 . S
H1040 C1053 0.961 . S
H1041 C1053 0.959 . S
H1042 C1056 0.929 . S
H1043 C1057 0.931 . S
H1044 C1059 0.930 . S
C1045 H1033 0.930 . S
C1045 C1046 1.399 . S
C1045 C1050 1.399 . S
C1046 C1045 1.399 . S
C1046 C1047 1.376 . S
C1047 H1034 0.930 . S
C1047 C1046 1.376 . S
C1047 C1048 1.388 . S
C1048 H1035 0.930 . S
C1048 C1047 1.388 . S
C1048 C1049 1.390 . S
C1049 C1048 1.390 . S
C1049 C1050 1.394 . S
C1049 C1055 1.465 . S
C1050 C1045 1.399 . S
C1050 C1049 1.394 . S
C1050 C1051 1.516 . S
C1051 C1050 1.516 . S
C1051 C1052 1.502 . S
C1051 C1053 1.561 . S
C1051 C1054 1.526 . S
C1052 H1036 0.959 . S
C1052 H1037 0.959 . S
C1052 H1038 0.961 . S
C1052 C1051 1.502 . S
C1053 H1039 0.960 . S
C1053 H1040 0.961 . S
C1053 H1041 0.959 . S
C1053 C1051 1.561 . S
C1054 C1051 1.526 . S
C1054 C1055 1.396 . S
C1054 C1059 1.390 . S
C1055 C1049 1.465 . S
C1055 C1054 1.396 . S
C1055 C1056 1.399 . S
C1056 H1042 0.929 . S
C1056 C1055 1.399 . S
C1056 C1057 1.385 . S
C1057 H1043 0.931 . S
C1057 C1056 1.385 . S
C1057 C1058 1.389 . S
C1058 C1057 1.389 . S
C1058 C1059 1.387 . S
C1059 H1044 0.930 . S
C1059 C1054 1.390 . S
C1059 C1058 1.387 . S
H1060 C1072 0.930 . S
H1061 C1074 0.930 . S
H1062 C1075 0.930 . S
H1063 C1079 0.959 . S
H1064 C1079 0.959 . S
H1065 C1079 0.961 . S
H1066 C1080 0.960 . S
H1067 C1080 0.961 . S
H1068 C1080 0.959 . S
H1069 C1083 0.929 . S
H1070 C1084 0.931 . S
H1071 C1086 0.930 . S
C1072 H1060 0.930 . S
C1072 C1073 1.399 . S
C1072 C1077 1.399 . S
C1073 C1072 1.399 . S
C1073 C1074 1.376 . S
C1074 H1061 0.930 . S
C1074 C1073 1.376 . S
C1074 C1075 1.388 . S
C1075 H1062 0.930 . S
C1075 C1074 1.388 . S
C1075 C1076 1.390 . S
C1076 C1075 1.390 . S
C1076 C1077 1.394 . S
C1076 C1082 1.465 . S
C1077 C1072 1.399 . S
C1077 C1076 1.394 . S
C1077 C1078 1.516 . S
C1078 C1077 1.516 . S
C1078 C1079 1.502 . S
C1078 C1080 1.561 . S
C1078 C1081 1.526 . S
C1079 H1063 0.959 . S
C1079 H1064 0.959 . S
C1079 H1065 0.961 . S
C1079 C1078 1.502 . S
C1080 H1066 0.960 . S
C1080 H1067 0.961 . S
C1080 H1068 0.959 . S
C1080 C1078 1.561 . S
C1081 C1078 1.526 . S
C1081 C1082 1.396 . S
C1081 C1086 1.390 . S
C1082 C1076 1.465 . S
C1082 C1081 1.396 . S
C1082 C1083 1.399 . S
C1083 H1069 0.929 . S
C1083 C1082 1.399 . S
C1083 C1084 1.385 . S
C1084 H1070 0.931 . S
C1084 C1083 1.385 . S
C1084 C1085 1.389 . S
C1085 C1084 1.389 . S
C1085 C1086 1.387 . S
C1086 H1071 0.930 . S
C1086 C1081 1.390 . S
C1086 C1085 1.387 . S
H1087 C1099 0.930 . S
H1088 C1101 0.930 . S
H1089 C1102 0.930 . S
H1090 C1106 0.959 . S
H1091 C1106 0.959 . S
H1092 C1106 0.961 . S
H1093 C1107 0.960 . S
H1094 C1107 0.961 . S
H1095 C1107 0.959 . S
H1096 C1110 0.929 . S
H1097 C1111 0.931 . S
H1098 C1113 0.930 . S
C1099 H1087 0.930 . S
C1099 C1100 1.399 . S
C1099 C1104 1.399 . S
C1100 C1099 1.399 . S
C1100 C1101 1.376 . S
C1101 H1088 0.930 . S
C1101 C1100 1.376 . S
C1101 C1102 1.388 . S
C1102 H1089 0.930 . S
C1102 C1101 1.388 . S
C1102 C1103 1.390 . S
C1103 C1102 1.390 . S
C1103 C1104 1.394 . S
C1103 C1109 1.465 . S
C1104 C1099 1.399 . S
C1104 C1103 1.394 . S
C1104 C1105 1.516 . S
C1105 C1104 1.516 . S
C1105 C1106 1.502 . S
C1105 C1107 1.561 . S
C1105 C1108 1.526 . S
C1106 H1090 0.959 . S
C1106 H1091 0.959 . S
C1106 H1092 0.961 . S
C1106 C1105 1.502 . S
C1107 H1093 0.960 . S
C1107 H1094 0.961 . S
C1107 H1095 0.959 . S
C1107 C1105 1.561 . S
C1108 C1105 1.526 . S
C1108 C1109 1.396 . S
C1108 C1113 1.390 . S
C1109 C1103 1.465 . S
C1109 C1108 1.396 . S
C1109 C1110 1.399 . S
C1110 H1096 0.929 . S
C1110 C1109 1.399 . S
C1110 C1111 1.385 . S
C1111 H1097 0.931 . S
C1111 C1110 1.385 . S
C1111 C1112 1.389 . S
C1112 C1111 1.389 . S
C1112 C1113 1.387 . S
C1113 H1098 0.930 . S
C1113 C1108 1.390 . S
C1113 C1112 1.387 . S
H1114 C1126 0.930 . S
H1115 C1128 0.930 . S
H1116 C1129 0.930 . S
H1117 C1133 0.959 . S
H1118 C1133 0.959 . S
H1119 C1133 0.961 . S
H1120 C1134 0.960 . S
H1121 C1134 0.961 . S
H1122 C1134 0.959 . S
H1123 C1137 0.929 . S
H1124 C1138 0.931 . S
H1125 C1140 0.930 . S
C1126 H1114 0.930 . S
C1126 C1127 1.399 . S
C1126 C1131 1.399 . S
C1127 C1126 1.399 . S
C1127 C1128 1.376 . S
C1128 H1115 0.930 . S
C1128 C1127 1.376 . S
C1128 C1129 1.388 . S
C1129 H1116 0.930 . S
C1129 C1128 1.388 . S
C1129 C1130 1.390 . S
C1130 C1129 1.390 . S
C1130 C1131 1.394 . S
C1130 C1136 1.465 . S
C1131 C1126 1.399 . S
C1131 C1130 1.394 . S
C1131 C1132 1.516 . S
C1132 C1131 1.516 . S
C1132 C1133 1.502 . S
C1132 C1134 1.561 . S
C1132 C1135 1.526 . S
C1133 H1117 0.959 . S
C1133 H1118 0.959 . S
C1133 H1119 0.961 . S
C1133 C1132 1.502 . S
C1134 H1120 0.960 . S
C1134 H1121 0.961 . S
C1134 H1122 0.959 . S
C1134 C1132 1.561 . S
C1135 C1132 1.526 . S
C1135 C1136 1.396 . S
C1135 C1140 1.390 . S
C1136 C1130 1.465 . S
C1136 C1135 1.396 . S
C1136 C1137 1.399 . S
C1137 H1123 0.929 . S
C1137 C1136 1.399 . S
C1137 C1138 1.385 . S
C1138 H1124 0.931 . S
C1138 C1137 1.385 . S
C1138 C1139 1.389 . S
C1139 C1138 1.389 . S
C1139 C1140 1.387 . S
C1140 H1125 0.930 . S
C1140 C1135 1.390 . S
C1140 C1139 1.387 . S
H1141 C1153 0.930 . S
H1142 C1155 0.930 . S
H1143 C1156 0.930 . S
H1144 C1160 0.959 . S
H1145 C1160 0.959 . S
H1146 C1160 0.961 . S
H1147 C1161 0.960 . S
H1148 C1161 0.961 . S
H1149 C1161 0.959 . S
H1150 C1164 0.929 . S
H1151 C1165 0.931 . S
H1152 C1167 0.930 . S
C1153 H1141 0.930 . S
C1153 C1154 1.399 . S
C1153 C1158 1.399 . S
C1154 C1153 1.399 . S
C1154 C1155 1.376 . S
C1155 H1142 0.930 . S
C1155 C1154 1.376 . S
C1155 C1156 1.388 . S
C1156 H1143 0.930 . S
C1156 C1155 1.388 . S
C1156 C1157 1.390 . S
C1157 C1156 1.390 . S
C1157 C1158 1.394 . S
C1157 C1163 1.465 . S
C1158 C1153 1.399 . S
C1158 C1157 1.394 . S
C1158 C1159 1.516 . S
C1159 C1158 1.516 . S
C1159 C1160 1.502 . S
C1159 C1161 1.561 . S
C1159 C1162 1.526 . S
C1160 H1144 0.959 . S
C1160 H1145 0.959 . S
C1160 H1146 0.961 . S
C1160 C1159 1.502 . S
C1161 H1147 0.960 . S
C1161 H1148 0.961 . S
C1161 H1149 0.959 . S
C1161 C1159 1.561 . S
C1162 C1159 1.526 . S
C1162 C1163 1.396 . S
C1162 C1167 1.390 . S
C1163 C1157 1.465 . S
C1163 C1162 1.396 . S
C1163 C1164 1.399 . S
C1164 H1150 0.929 . S
C1164 C1163 1.399 . S
C1164 C1165 1.385 . S
C1165 H1151 0.931 . S
C1165 C1164 1.385 . S
C1165 C1166 1.389 . S
C1166 C1165 1.389 . S
C1166 C1167 1.387 . S
C1167 H1152 0.930 . S
C1167 C1162 1.390 . S
C1167 C1166 1.387 . S
H1168 C1180 0.930 . S
H1169 C1182 0.930 . S
H1170 C1183 0.930 . S
H1171 C1187 0.959 . S
H1172 C1187 0.959 . S
H1173 C1187 0.961 . S
H1174 C1188 0.960 . S
H1175 C1188 0.961 1_455 S
H1176 C1188 0.959 . S
H1177 C1191 0.903 1_655 S
H1178 C1192 0.931 . S
H1179 C1194 0.930 . S
C1180 H1168 0.930 . S
C1180 C1181 1.399 . S
C1180 C1185 1.399 . S
C1181 C1180 1.399 . S
C1181 C1182 1.376 . S
C1182 H1169 0.930 . S
C1182 C1181 1.376 . S
C1182 C1183 1.388 . S
C1183 H1170 0.930 . S
C1183 C1182 1.388 . S
C1183 C1184 1.390 . S
C1184 C1183 1.390 . S
C1184 C1185 1.394 . S
C1184 C1190 1.465 1_655 S
C1185 C1180 1.399 . S
C1185 C1184 1.394 . S
C1185 C1186 1.516 1_655 S
C1186 C1185 1.516 1_455 S
C1186 C1187 1.502 . S
C1186 C1188 1.561 1_455 S
C1186 C1189 1.526 . S
C1187 H1171 0.959 . S
C1187 H1172 0.959 . S
C1187 H1173 0.961 . S
C1187 C1186 1.502 . S
C1188 H1174 0.960 . S
C1188 H1175 0.961 1_655 S
C1188 H1176 0.959 . S
C1188 C1186 1.561 1_655 S
C1189 C1186 1.526 . S
C1189 C1190 1.396 . S
C1189 C1194 1.390 . S
C1190 C1184 1.465 1_455 S
C1190 C1189 1.396 . S
C1190 C1191 1.399 . S
C1191 H1177 0.903 1_455 S
C1191 C1190 1.399 . S
C1191 C1192 1.385 . S
C1192 H1178 0.931 . S
C1192 C1191 1.385 . S
C1192 C1193 1.389 . S
C1193 C1192 1.389 . S
C1193 C1194 1.387 . S
C1194 H1179 0.930 . S
C1194 C1189 1.390 . S
C1194 C1193 1.387 . S
H1195 C1207 0.930 . S
H1196 C1209 0.930 . S
H1197 C1210 0.930 . S
H1198 C1214 0.959 . S
H1199 C1214 0.959 . S
H1200 C1214 0.961 . S
H1201 C1215 0.960 . S
H1202 C1215 0.961 . S
H1203 C1215 0.959 . S
H1204 C1218 0.929 . S
H1205 C1219 0.931 . S
H1206 C1221 0.930 . S
C1207 H1195 0.930 . S
C1207 C1208 1.399 . S
C1207 C1212 1.399 . S
C1208 C1207 1.399 . S
C1208 C1209 1.376 . S
C1209 H1196 0.930 . S
C1209 C1208 1.376 . S
C1209 C1210 1.388 . S
C1210 H1197 0.930 . S
C1210 C1209 1.388 . S
C1210 C1211 1.390 . S
C1211 C1210 1.390 . S
C1211 C1212 1.394 . S
C1211 C1217 1.465 . S
C1212 C1207 1.399 . S
C1212 C1211 1.394 . S
C1212 C1213 1.516 . S
C1213 C1212 1.516 . S
C1213 C1214 1.502 . S
C1213 C1215 1.561 . S
C1213 C1216 1.526 . S
C1214 H1198 0.959 . S
C1214 H1199 0.959 . S
C1214 H1200 0.961 . S
C1214 C1213 1.502 . S
C1215 H1201 0.960 . S
C1215 H1202 0.961 . S
C1215 H1203 0.959 . S
C1215 C1213 1.561 . S
C1216 C1213 1.526 . S
C1216 C1217 1.396 . S
C1216 C1221 1.390 . S
C1217 C1211 1.465 . S
C1217 C1216 1.396 . S
C1217 C1218 1.399 . S
C1218 H1204 0.929 . S
C1218 C1217 1.399 . S
C1218 C1219 1.385 . S
C1219 H1205 0.931 . S
C1219 C1218 1.385 . S
C1219 C1220 1.389 . S
C1220 C1219 1.389 . S
C1220 C1221 1.387 . S
C1221 H1206 0.930 . S
C1221 C1216 1.390 . S
C1221 C1220 1.387 . S
H1222 C1234 0.930 . S
H1223 C1236 0.930 . S
H1224 C1237 0.930 . S
H1225 C1241 0.959 . S
H1226 C1241 0.959 . S
H1227 C1241 0.961 . S
H1228 C1242 0.960 . S
H1229 C1242 0.961 . S
H1230 C1242 0.959 . S
H1231 C1245 0.929 . S
H1232 C1246 0.931 . S
H1233 C1248 0.930 . S
C1234 H1222 0.930 . S
C1234 C1235 1.399 . S
C1234 C1239 1.399 . S
C1235 C1234 1.399 . S
C1235 C1236 1.376 . S
C1236 H1223 0.930 . S
C1236 C1235 1.376 . S
C1236 C1237 1.388 . S
C1237 H1224 0.930 . S
C1237 C1236 1.388 . S
C1237 C1238 1.390 . S
C1238 C1237 1.390 . S
C1238 C1239 1.394 . S
C1238 C1244 1.465 . S
C1239 C1234 1.399 . S
C1239 C1238 1.394 . S
C1239 C1240 1.516 . S
C1240 C1239 1.516 . S
C1240 C1241 1.502 . S
C1240 C1242 1.561 1_545 S
C1240 C1243 1.526 . S
C1241 H1225 0.959 . S
C1241 H1226 0.959 . S
C1241 H1227 0.961 . S
C1241 C1240 1.502 . S
C1242 H1228 0.960 . S
C1242 H1229 0.961 . S
C1242 H1230 0.959 . S
C1242 C1240 1.561 1_565 S
C1243 C1240 1.526 . S
C1243 C1244 1.396 . S
C1243 C1248 1.390 . S
C1244 C1238 1.465 . S
C1244 C1243 1.396 . S
C1244 C1245 1.399 . S
C1245 H1231 0.929 . S
C1245 C1244 1.399 . S
C1245 C1246 1.385 . S
C1246 H1232 0.931 . S
C1246 C1245 1.385 . S
C1246 C1247 1.389 . S
C1247 C1246 1.389 . S
C1247 C1248 1.387 . S
C1248 H1233 0.930 . S
C1248 C1243 1.390 . S
C1248 C1247 1.387 . S
H1249 C1261 0.930 . S
H1250 C1263 0.930 . S
H1251 C1264 0.930 . S
H1252 C1268 0.959 . S
H1253 C1268 0.959 . S
H1254 C1268 0.961 . S
H1255 C1269 0.960 . S
H1256 C1269 0.961 . S
H1257 C1269 0.959 . S
H1258 C1272 0.929 . S
H1259 C1273 0.931 . S
H1260 C1275 0.930 . S
C1261 H1249 0.930 . S
C1261 C1262 1.399 . S
C1261 C1266 1.399 . S
C1262 C1261 1.399 . S
C1262 C1263 1.376 . S
C1263 H1250 0.930 . S
C1263 C1262 1.376 . S
C1263 C1264 1.388 . S
C1264 H1251 0.930 . S
C1264 C1263 1.388 . S
C1264 C1265 1.390 . S
C1265 C1264 1.390 . S
C1265 C1266 1.394 . S
C1265 C1271 1.465 . S
C1266 C1261 1.399 . S
C1266 C1265 1.394 . S
C1266 C1267 1.516 . S
C1267 C1266 1.516 . S
C1267 C1268 1.502 . S
C1267 C1269 1.561 . S
C1267 C1270 1.526 . S
C1268 H1252 0.959 . S
C1268 H1253 0.959 . S
C1268 H1254 0.961 . S
C1268 C1267 1.502 . S
C1269 H1255 0.960 . S
C1269 H1256 0.961 . S
C1269 H1257 0.959 . S
C1269 C1267 1.561 . S
C1270 C1267 1.526 . S
C1270 C1271 1.396 . S
C1270 C1275 1.390 . S
C1271 C1265 1.465 . S
C1271 C1270 1.396 . S
C1271 C1272 1.399 . S
C1272 H1258 0.929 . S
C1272 C1271 1.399 . S
C1272 C1273 1.385 . S
C1273 H1259 0.931 . S
C1273 C1272 1.385 . S
C1273 C1274 1.389 . S
C1274 C1273 1.389 . S
C1274 C1275 1.387 . S
C1275 H1260 0.930 . S
C1275 C1270 1.390 . S
C1275 C1274 1.387 . S
H1276 C1288 0.930 . S
H1277 C1290 0.930 . S
H1278 C1291 0.930 . S
H1279 C1295 0.959 . S
H1280 C1295 0.959 1_565 S
H1281 C1295 0.961 . S
H1282 C1296 0.959 1_665 S
H1283 C1296 0.961 1_565 S
H1284 C1296 0.959 . S
H1285 C1299 0.929 . S
H1286 C1300 0.931 . S
H1287 C1302 0.930 . S
C1288 H1276 0.930 . S
C1288 C1289 1.399 . S
C1288 C1293 1.399 . S
C1289 C1288 1.399 . S
C1289 C1290 1.376 . S
C1290 H1277 0.930 . S
C1290 C1289 1.376 . S
C1290 C1291 1.388 1_655 S
C1291 H1278 0.930 . S
C1291 C1290 1.388 1_455 S
C1291 C1292 1.390 . S
C1292 C1291 1.390 . S
C1292 C1293 1.394 1_455 S
C1292 C1298 1.465 . S
C1293 C1288 1.399 . S
C1293 C1292 1.394 1_655 S
C1293 C1294 1.516 . S
C1294 C1293 1.516 . S
C1294 C1295 1.502 . S
C1294 C1296 1.561 1_655 S
C1294 C1297 1.526 1_655 S
C1295 H1279 0.959 . S
C1295 H1280 0.959 1_545 S
C1295 H1281 0.961 . S
C1295 C1294 1.502 . S
C1296 H1282 0.959 1_445 S
C1296 H1283 0.961 1_545 S
C1296 H1284 0.959 . S
C1296 C1294 1.561 1_455 S
C1297 C1294 1.526 1_455 S
C1297 C1298 1.396 . S
C1297 C1302 1.390 . S
C1298 C1292 1.465 . S
C1298 C1297 1.396 . S
C1298 C1299 1.399 . S
C1299 H1285 0.929 . S
C1299 C1298 1.399 . S
C1299 C1300 1.385 . S
C1300 H1286 0.931 . S
C1300 C1299 1.385 . S
C1300 C1301 1.389 . S
C1301 C1300 1.389 . S
C1301 C1302 1.387 . S
C1302 H1287 0.930 . S
C1302 C1297 1.390 . S
C1302 C1301 1.387 . S
H1303 C1315 0.930 . S
H1304 C1317 0.930 . S
H1305 C1318 0.930 . S
H1306 C1322 0.959 . S
H1307 C1322 0.959 . S
H1308 C1322 0.961 . S
H1309 C1323 0.960 . S
H1310 C1323 0.961 . S
H1311 C1323 0.959 . S
H1312 C1326 0.929 . S
H1313 C1327 0.931 . S
H1314 C1329 0.930 . S
C1315 H1303 0.930 . S
C1315 C1316 1.399 . S
C1315 C1320 1.399 . S
C1316 C1315 1.399 . S
C1316 C1317 1.376 . S
C1317 H1304 0.930 . S
C1317 C1316 1.376 . S
C1317 C1318 1.388 . S
C1318 H1305 0.930 . S
C1318 C1317 1.388 . S
C1318 C1319 1.390 . S
C1319 C1318 1.390 . S
C1319 C1320 1.394 . S
C1319 C1325 1.465 . S
C1320 C1315 1.399 . S
C1320 C1319 1.394 . S
C1320 C1321 1.516 . S
C1321 C1320 1.516 . S
C1321 C1322 1.502 . S
C1321 C1323 1.561 . S
C1321 C1324 1.526 . S
C1322 H1306 0.959 . S
C1322 H1307 0.959 . S
C1322 H1308 0.961 . S
C1322 C1321 1.502 . S
C1323 H1309 0.960 . S
C1323 H1310 0.961 . S
C1323 H1311 0.959 . S
C1323 C1321 1.561 . S
C1324 C1321 1.526 . S
C1324 C1325 1.396 . S
C1324 C1329 1.390 . S
C1325 C1319 1.465 . S
C1325 C1324 1.396 . S
C1325 C1326 1.399 . S
C1326 H1312 0.929 . S
C1326 C1325 1.399 . S
C1326 C1327 1.385 . S
C1327 H1313 0.931 . S
C1327 C1326 1.385 . S
C1327 C1328 1.389 . S
C1328 C1327 1.389 . S
C1328 C1329 1.387 . S
C1329 H1314 0.930 . S
C1329 C1324 1.390 . S
C1329 C1328 1.387 . S
H1330 C1342 0.930 . S
H1331 C1344 0.930 . S
H1332 C1345 0.930 . S
H1333 C1349 0.959 . S
H1334 C1349 0.959 . S
H1335 C1349 0.961 . S
H1336 C1350 0.960 . S
H1337 C1350 0.961 . S
H1338 C1350 0.959 . S
H1339 C1353 0.929 . S
H1340 C1354 0.931 . S
H1341 C1356 0.930 . S
C1342 H1330 0.930 . S
C1342 C1343 1.399 . S
C1342 C1347 1.399 . S
C1343 C1342 1.399 . S
C1343 C1344 1.376 . S
C1344 H1331 0.930 . S
C1344 C1343 1.376 . S
C1344 C1345 1.388 . S
C1345 H1332 0.930 . S
C1345 C1344 1.388 . S
C1345 C1346 1.390 . S
C1346 C1345 1.390 . S
C1346 C1347 1.394 . S
C1346 C1352 1.465 . S
C1347 C1342 1.399 . S
C1347 C1346 1.394 . S
C1347 C1348 1.516 . S
C1348 C1347 1.516 . S
C1348 C1349 1.502 . S
C1348 C1350 1.561 . S
C1348 C1351 1.526 . S
C1349 H1333 0.959 . S
C1349 H1334 0.959 . S
C1349 H1335 0.961 . S
C1349 C1348 1.502 . S
C1350 H1336 0.960 . S
C1350 H1337 0.961 . S
C1350 H1338 0.959 . S
C1350 C1348 1.561 . S
C1351 C1348 1.526 . S
C1351 C1352 1.396 . S
C1351 C1356 1.390 . S
C1352 C1346 1.465 . S
C1352 C1351 1.396 . S
C1352 C1353 1.399 . S
C1353 H1339 0.929 . S
C1353 C1352 1.399 . S
C1353 C1354 1.385 . S
C1354 H1340 0.931 . S
C1354 C1353 1.385 . S
C1354 C1355 1.389 . S
C1355 C1354 1.389 . S
C1355 C1356 1.387 . S
C1356 H1341 0.930 . S
C1356 C1351 1.390 . S
C1356 C1355 1.387 . S
H1357 C1369 0.930 . S
H1358 C1371 0.930 . S
H1359 C1372 0.930 . S
H1360 C1376 0.959 . S
H1361 C1376 0.959 . S
H1362 C1376 0.961 . S
H1363 C1377 0.960 . S
H1364 C1377 0.961 . S
H1365 C1377 0.959 . S
H1366 C1380 0.929 . S
H1367 C1381 0.931 . S
H1368 C1383 0.930 . S
C1369 H1357 0.930 . S
C1369 C1370 1.399 . S
C1369 C1374 1.399 . S
C1370 C1369 1.399 . S
C1370 C1371 1.376 . S
C1371 H1358 0.930 . S
C1371 C1370 1.376 . S
C1371 C1372 1.388 . S
C1372 H1359 0.930 . S
C1372 C1371 1.388 . S
C1372 C1373 1.390 . S
C1373 C1372 1.390 . S
C1373 C1374 1.394 . S
C1373 C1379 1.465 . S
C1374 C1369 1.399 . S
C1374 C1373 1.394 . S
C1374 C1375 1.516 . S
C1375 C1374 1.516 . S
C1375 C1376 1.502 . S
C1375 C1377 1.561 . S
C1375 C1378 1.526 . S
C1376 H1360 0.959 . S
C1376 H1361 0.959 . S
C1376 H1362 0.961 . S
C1376 C1375 1.502 . S
C1377 H1363 0.960 . S
C1377 H1364 0.961 . S
C1377 H1365 0.959 . S
C1377 C1375 1.561 . S
C1378 C1375 1.526 . S
C1378 C1379 1.396 . S
C1378 C1383 1.390 . S
C1379 C1373 1.465 . S
C1379 C1378 1.396 . S
C1379 C1380 1.399 . S
C1380 H1366 0.929 . S
C1380 C1379 1.399 . S
C1380 C1381 1.385 . S
C1381 H1367 0.931 . S
C1381 C1380 1.385 . S
C1381 C1382 1.389 . S
C1382 C1381 1.389 . S
C1382 C1383 1.387 . S
C1383 H1368 0.930 . S
C1383 C1378 1.390 . S
C1383 C1382 1.387 . S
H1384 C1396 0.930 . S
H1385 C1398 0.930 1_556 S
H1386 C1399 0.930 1_556 S
H1387 C1403 0.959 . S
H1388 C1403 0.959 1_545 S
H1389 C1403 0.961 . S
H1390 C1404 0.960 . S
H1391 C1404 0.961 . S
H1392 C1404 0.959 . S
H1393 C1407 0.929 . S
H1394 C1408 0.931 . S
H1395 C1410 0.930 . S
C1396 H1384 0.930 . S
C1396 C1397 1.399 . S
C1396 C1401 1.399 . S
C1397 C1396 1.399 . S
C1397 C1398 1.376 . S
C1398 H1385 0.930 1_554 S
C1398 C1397 1.376 . S
C1398 C1399 1.388 . S
C1399 H1386 0.930 1_554 S
C1399 C1398 1.388 . S
C1399 C1400 1.390 . S
C1400 C1399 1.390 . S
C1400 C1401 1.394 . S
C1400 C1406 1.465 . S
C1401 C1396 1.399 . S
C1401 C1400 1.394 . S
C1401 C1402 1.516 . S
C1402 C1401 1.516 . S
C1402 C1403 1.502 . S
C1402 C1404 1.561 1_565 S
C1402 C1405 1.526 . S
C1403 H1387 0.959 . S
C1403 H1388 0.959 1_565 S
C1403 H1389 0.961 . S
C1403 C1402 1.502 . S
C1404 H1390 0.960 . S
C1404 H1391 0.961 . S
C1404 H1392 0.959 . S
C1404 C1402 1.561 1_545 S
C1405 C1402 1.526 . S
C1405 C1406 1.396 . S
C1405 C1410 1.390 1_565 S
C1406 C1400 1.465 . S
C1406 C1405 1.396 . S
C1406 C1407 1.399 . S
C1407 H1393 0.929 . S
C1407 C1406 1.399 . S
C1407 C1408 1.385 . S
C1408 H1394 0.931 . S
C1408 C1407 1.385 . S
C1408 C1409 1.389 1_565 S
C1409 C1408 1.389 1_545 S
C1409 C1410 1.387 . S
C1410 H1395 0.930 . S
C1410 C1405 1.390 1_545 S
C1410 C1409 1.387 . S
H1411 C1423 0.930 . S
H1412 C1425 0.930 . S
H1413 C1426 0.930 . S
H1414 C1430 0.959 . S
H1415 C1430 0.959 . S
H1416 C1430 0.961 . S
H1417 C1431 0.960 . S
H1418 C1431 0.961 . S
H1419 C1431 0.959 . S
H1420 C1434 0.929 . S
H1421 C1435 0.931 . S
H1422 C1437 0.930 . S
C1423 H1411 0.930 . S
C1423 C1424 1.399 1_554 S
C1423 C1428 1.399 . S
C1424 C1423 1.399 1_556 S
C1424 C1425 1.376 . S
C1425 H1412 0.930 . S
C1425 C1424 1.376 . S
C1425 C1426 1.388 . S
C1426 H1413 0.930 . S
C1426 C1425 1.388 . S
C1426 C1427 1.390 . S
C1427 C1426 1.390 . S
C1427 C1428 1.394 1_556 S
C1427 C1433 1.465 . S
C1428 C1423 1.399 . S
C1428 C1427 1.394 1_554 S
C1428 C1429 1.516 . S
C1429 C1428 1.516 . S
C1429 C1430 1.502 . S
C1429 C1431 1.561 . S
C1429 C1432 1.526 . S
C1430 H1414 0.959 . S
C1430 H1415 0.959 . S
C1430 H1416 0.961 . S
C1430 C1429 1.502 . S
C1431 H1417 0.960 . S
C1431 H1418 0.961 . S
C1431 H1419 0.959 . S
C1431 C1429 1.561 . S
C1432 C1429 1.526 . S
C1432 C1433 1.396 1_554 S
C1432 C1437 1.390 . S
C1433 C1427 1.465 . S
C1433 C1432 1.396 1_556 S
C1433 C1434 1.399 . S
C1434 H1420 0.929 . S
C1434 C1433 1.399 . S
C1434 C1435 1.385 . S
C1435 H1421 0.931 . S
C1435 C1434 1.385 . S
C1435 C1436 1.389 . S
C1436 C1435 1.389 . S
C1436 C1437 1.387 1_556 S
C1437 H1422 0.930 . S
C1437 C1432 1.390 . S
C1437 C1436 1.387 1_554 S
H1438 C1450 0.930 . S
H1439 C1452 0.930 . S
H1440 C1453 0.930 . S
H1441 C1457 0.959 . S
H1442 C1457 0.959 . S
H1443 C1457 0.961 . S
H1444 C1458 0.960 . S
H1445 C1458 0.961 . S
H1446 C1458 0.959 . S
H1447 C1461 0.929 . S
H1448 C1462 0.931 . S
H1449 C1464 0.930 . S
C1450 H1438 0.930 . S
C1450 C1451 1.399 . S
C1450 C1455 1.399 . S
C1451 C1450 1.399 . S
C1451 C1452 1.376 . S
C1452 H1439 0.930 . S
C1452 C1451 1.376 . S
C1452 C1453 1.388 . S
C1453 H1440 0.930 . S
C1453 C1452 1.388 . S
C1453 C1454 1.390 . S
C1454 C1453 1.390 . S
C1454 C1455 1.394 . S
C1454 C1460 1.465 . S
C1455 C1450 1.399 . S
C1455 C1454 1.394 . S
C1455 C1456 1.516 . S
C1456 C1455 1.516 . S
C1456 C1457 1.502 . S
C1456 C1458 1.561 . S
C1456 C1459 1.526 . S
C1457 H1441 0.959 . S
C1457 H1442 0.959 . S
C1457 H1443 0.961 . S
C1457 C1456 1.502 . S
C1458 H1444 0.960 . S
C1458 H1445 0.961 . S
C1458 H1446 0.959 . S
C1458 C1456 1.561 . S
C1459 C1456 1.526 . S
C1459 C1460 1.396 . S
C1459 C1464 1.390 . S
C1460 C1454 1.465 . S
C1460 C1459 1.396 . S
C1460 C1461 1.399 . S
C1461 H1447 0.929 . S
C1461 C1460 1.399 . S
C1461 C1462 1.385 . S
C1462 H1448 0.931 . S
C1462 C1461 1.385 . S
C1462 C1463 1.389 . S
C1463 C1462 1.389 . S
C1463 C1464 1.387 . S
C1464 H1449 0.930 . S
C1464 C1459 1.390 . S
C1464 C1463 1.387 . S
H1465 C1477 0.930 . S
H1466 C1479 0.930 . S
H1467 C1480 0.930 . S
H1468 C1484 0.959 . S
H1469 C1484 0.959 . S
H1470 C1484 0.961 . S
H1471 C1485 0.960 . S
H1472 C1485 0.961 . S
H1473 C1485 0.959 . S
H1474 C1488 0.929 . S
H1475 C1489 0.931 . S
H1476 C1491 0.930 . S
C1477 H1465 0.930 . S
C1477 C1478 1.399 . S
C1477 C1482 1.399 . S
C1478 C1477 1.399 . S
C1478 C1479 1.376 . S
C1479 H1466 0.930 . S
C1479 C1478 1.376 . S
C1479 C1480 1.388 . S
C1480 H1467 0.930 . S
C1480 C1479 1.388 . S
C1480 C1481 1.390 . S
C1481 C1480 1.390 . S
C1481 C1482 1.394 . S
C1481 C1487 1.465 . S
C1482 C1477 1.399 . S
C1482 C1481 1.394 . S
C1482 C1483 1.516 . S
C1483 C1482 1.516 . S
C1483 C1484 1.502 . S
C1483 C1485 1.561 . S
C1483 C1486 1.526 . S
C1484 H1468 0.959 . S
C1484 H1469 0.959 . S
C1484 H1470 0.961 . S
C1484 C1483 1.502 . S
C1485 H1471 0.960 . S
C1485 H1472 0.961 . S
C1485 H1473 0.959 . S
C1485 C1483 1.561 . S
C1486 C1483 1.526 . S
C1486 C1487 1.396 . S
C1486 C1491 1.390 . S
C1487 C1481 1.465 . S
C1487 C1486 1.396 . S
C1487 C1488 1.399 . S
C1488 H1474 0.929 . S
C1488 C1487 1.399 . S
C1488 C1489 1.385 . S
C1489 H1475 0.931 . S
C1489 C1488 1.385 . S
C1489 C1490 1.389 . S
C1490 C1489 1.389 . S
C1490 C1491 1.387 . S
C1491 H1476 0.930 . S
C1491 C1486 1.390 . S
C1491 C1490 1.387 . S
H1492 C1504 0.930 . S
H1493 C1506 0.930 . S
H1494 C1507 0.930 . S
H1495 C1511 0.959 . S
H1496 C1511 0.959 . S
H1497 C1511 0.961 . S
H1498 C1512 0.960 . S
H1499 C1512 0.961 . S
H1500 C1512 0.959 . S
H1501 C1515 0.929 . S
H1502 C1516 0.931 . S
H1503 C1518 0.930 . S
C1504 H1492 0.930 . S
C1504 C1505 1.399 . S
C1504 C1509 1.399 . S
C1505 C1504 1.399 . S
C1505 C1506 1.376 . S
C1506 H1493 0.930 . S
C1506 C1505 1.376 . S
C1506 C1507 1.388 . S
C1507 H1494 0.930 . S
C1507 C1506 1.388 . S
C1507 C1508 1.390 . S
C1508 C1507 1.390 . S
C1508 C1509 1.394 . S
C1508 C1514 1.465 . S
C1509 C1504 1.399 . S
C1509 C1508 1.394 . S
C1509 C1510 1.516 . S
C1510 C1509 1.516 . S
C1510 C1511 1.502 . S
C1510 C1512 1.561 . S
C1510 C1513 1.526 . S
C1511 H1495 0.959 . S
C1511 H1496 0.959 . S
C1511 H1497 0.961 . S
C1511 C1510 1.502 . S
C1512 H1498 0.960 . S
C1512 H1499 0.961 . S
C1512 H1500 0.959 . S
C1512 C1510 1.561 . S
C1513 C1510 1.526 . S
C1513 C1514 1.396 . S
C1513 C1518 1.390 . S
C1514 C1508 1.465 . S
C1514 C1513 1.396 . S
C1514 C1515 1.399 . S
C1515 H1501 0.929 . S
C1515 C1514 1.399 . S
C1515 C1516 1.385 . S
C1516 H1502 0.931 . S
C1516 C1515 1.385 . S
C1516 C1517 1.389 . S
C1517 C1516 1.389 . S
C1517 C1518 1.387 . S
C1518 H1503 0.930 . S
C1518 C1513 1.390 . S
C1518 C1517 1.387 . S
H1519 C1531 0.930 . S
H1520 C1533 0.930 . S
H1521 C1534 0.930 . S
H1522 C1538 0.959 . S
H1523 C1538 0.959 . S
H1524 C1538 0.961 . S
H1525 C1539 0.960 . S
H1526 C1539 0.961 . S
H1527 C1539 0.959 . S
H1528 C1542 0.929 . S
H1529 C1543 0.931 . S
H1530 C1545 0.930 . S
C1531 H1519 0.930 . S
C1531 C1532 1.399 . S
C1531 C1536 1.399 . S
C1532 C1531 1.399 . S
C1532 C1533 1.376 . S
C1533 H1520 0.930 . S
C1533 C1532 1.376 . S
C1533 C1534 1.388 . S
C1534 H1521 0.930 . S
C1534 C1533 1.388 . S
C1534 C1535 1.390 . S
C1535 C1534 1.390 . S
C1535 C1536 1.394 . S
C1535 C1541 1.465 . S
C1536 C1531 1.399 . S
C1536 C1535 1.394 . S
C1536 C1537 1.516 . S
C1537 C1536 1.516 . S
C1537 C1538 1.502 . S
C1537 C1539 1.561 . S
C1537 C1540 1.526 . S
C1538 H1522 0.959 . S
C1538 H1523 0.959 . S
C1538 H1524 0.961 . S
C1538 C1537 1.502 . S
C1539 H1525 0.960 . S
C1539 H1526 0.961 . S
C1539 H1527 0.959 . S
C1539 C1537 1.561 . S
C1540 C1537 1.526 . S
C1540 C1541 1.396 . S
C1540 C1545 1.390 . S
C1541 C1535 1.465 . S
C1541 C1540 1.396 . S
C1541 C1542 1.399 . S
C1542 H1528 0.929 . S
C1542 C1541 1.399 . S
C1542 C1543 1.385 . S
C1543 H1529 0.931 . S
C1543 C1542 1.385 . S
C1543 C1544 1.389 . S
C1544 C1543 1.389 . S
C1544 C1545 1.387 . S
C1545 H1530 0.930 . S
C1545 C1540 1.390 . S
C1545 C1544 1.387 . S
H1546 C1558 0.930 . S
H1547 C1560 0.930 . S
H1548 C1561 0.930 . S
H1549 C1565 0.959 . S
H1550 C1565 0.959 . S
H1551 C1565 0.961 . S
H1552 C1566 0.960 . S
H1553 C1566 0.961 . S
H1554 C1566 0.959 . S
H1555 C1569 0.929 . S
H1556 C1570 0.931 . S
H1557 C1572 0.930 . S
C1558 H1546 0.930 . S
C1558 C1559 1.399 . S
C1558 C1563 1.399 . S
C1559 C1558 1.399 . S
C1559 C1560 1.376 . S
C1560 H1547 0.930 . S
C1560 C1559 1.376 . S
C1560 C1561 1.388 . S
C1561 H1548 0.930 . S
C1561 C1560 1.388 . S
C1561 C1562 1.390 . S
C1562 C1561 1.390 . S
C1562 C1563 1.394 . S
C1562 C1568 1.465 . S
C1563 C1558 1.399 . S
C1563 C1562 1.394 . S
C1563 C1564 1.516 . S
C1564 C1563 1.516 . S
C1564 C1565 1.502 . S
C1564 C1566 1.561 . S
C1564 C1567 1.526 . S
C1565 H1549 0.959 . S
C1565 H1550 0.959 . S
C1565 H1551 0.961 . S
C1565 C1564 1.502 . S
C1566 H1552 0.960 . S
C1566 H1553 0.961 . S
C1566 H1554 0.959 . S
C1566 C1564 1.561 . S
C1567 C1564 1.526 . S
C1567 C1568 1.396 . S
C1567 C1572 1.390 . S
C1568 C1562 1.465 . S
C1568 C1567 1.396 . S
C1568 C1569 1.399 . S
C1569 H1555 0.929 . S
C1569 C1568 1.399 . S
C1569 C1570 1.385 . S
C1570 H1556 0.931 . S
C1570 C1569 1.385 . S
C1570 C1571 1.389 . S
C1571 C1570 1.389 . S
C1571 C1572 1.387 . S
C1572 H1557 0.930 . S
C1572 C1567 1.390 . S
C1572 C1571 1.387 . S
H1573 C1585 0.930 . S
H1574 C1587 0.930 . S
H1575 C1588 0.930 . S
H1576 C1592 0.959 . S
H1577 C1592 0.959 . S
H1578 C1592 0.961 . S
H1579 C1593 0.960 . S
H1580 C1593 0.961 . S
H1581 C1593 0.959 . S
H1582 C1596 0.929 . S
H1583 C1597 0.931 . S
H1584 C1599 0.930 . S
C1585 H1573 0.930 . S
C1585 C1586 1.399 . S
C1585 C1590 1.399 . S
C1586 C1585 1.399 . S
C1586 C1587 1.376 . S
C1587 H1574 0.930 . S
C1587 C1586 1.376 . S
C1587 C1588 1.388 . S
C1588 H1575 0.930 . S
C1588 C1587 1.388 . S
C1588 C1589 1.390 . S
C1589 C1588 1.390 . S
C1589 C1590 1.394 . S
C1589 C1595 1.465 . S
C1590 C1585 1.399 . S
C1590 C1589 1.394 . S
C1590 C1591 1.516 . S
C1591 C1590 1.516 . S
C1591 C1592 1.502 . S
C1591 C1593 1.561 . S
C1591 C1594 1.526 . S
C1592 H1576 0.959 . S
C1592 H1577 0.959 . S
C1592 H1578 0.961 . S
C1592 C1591 1.502 . S
C1593 H1579 0.960 . S
C1593 H1580 0.961 . S
C1593 H1581 0.959 . S
C1593 C1591 1.561 . S
C1594 C1591 1.526 . S
C1594 C1595 1.396 . S
C1594 C1599 1.390 . S
C1595 C1589 1.465 . S
C1595 C1594 1.396 . S
C1595 C1596 1.399 . S
C1596 H1582 0.929 . S
C1596 C1595 1.399 . S
C1596 C1597 1.385 . S
C1597 H1583 0.931 . S
C1597 C1596 1.385 . S
C1597 C1598 1.389 . S
C1598 C1597 1.389 . S
C1598 C1599 1.387 . S
C1599 H1584 0.930 . S
C1599 C1594 1.390 . S
C1599 C1598 1.387 . S
H1600 C1612 0.930 . S
H1601 C1614 0.930 . S
H1602 C1615 0.930 . S
H1603 C1619 0.959 . S
H1604 C1619 0.959 . S
H1605 C1619 0.961 . S
H1606 C1620 0.960 . S
H1607 C1620 0.961 . S
H1608 C1620 0.959 . S
H1609 C1623 0.929 . S
H1610 C1624 0.931 . S
H1611 C1626 0.930 . S
C1612 H1600 0.930 . S
C1612 C1613 1.399 . S
C1612 C1617 1.399 . S
C1613 C1612 1.399 . S
C1613 C1614 1.376 . S
C1614 H1601 0.930 . S
C1614 C1613 1.376 . S
C1614 C1615 1.388 . S
C1615 H1602 0.930 . S
C1615 C1614 1.388 . S
C1615 C1616 1.390 . S
C1616 C1615 1.390 . S
C1616 C1617 1.394 . S
C1616 C1622 1.465 . S
C1617 C1612 1.399 . S
C1617 C1616 1.394 . S
C1617 C1618 1.516 . S
C1618 C1617 1.516 . S
C1618 C1619 1.502 . S
C1618 C1620 1.561 . S
C1618 C1621 1.526 . S
C1619 H1603 0.959 . S
C1619 H1604 0.959 . S
C1619 H1605 0.961 . S
C1619 C1618 1.502 . S
C1620 H1606 0.960 . S
C1620 H1607 0.961 . S
C1620 H1608 0.959 . S
C1620 C1618 1.561 . S
C1621 C1618 1.526 . S
C1621 C1622 1.396 . S
C1621 C1626 1.390 . S
C1622 C1616 1.465 . S
C1622 C1621 1.396 . S
C1622 C1623 1.399 . S
C1623 H1609 0.929 . S
C1623 C1622 1.399 . S
C1623 C1624 1.385 . S
C1624 H1610 0.931 . S
C1624 C1623 1.385 . S
C1624 C1625 1.389 . S
C1625 C1624 1.389 . S
C1625 C1626 1.387 . S
C1626 H1611 0.930 . S
C1626 C1621 1.390 . S
C1626 C1625 1.387 . S
H1627 C1639 0.930 . S
H1628 C1641 0.930 . S
H1629 C1642 0.930 . S
H1630 C1646 0.959 . S
H1631 C1646 0.959 . S
H1632 C1646 0.961 . S
H1633 C1647 0.960 . S
H1634 C1647 0.961 . S
H1635 C1647 0.959 . S
H1636 C1650 0.929 . S
H1637 C1651 0.931 . S
H1638 C1653 0.930 . S
C1639 H1627 0.930 . S
C1639 C1640 1.399 . S
C1639 C1644 1.399 . S
C1640 C1639 1.399 . S
C1640 C1641 1.376 . S
C1641 H1628 0.930 . S
C1641 C1640 1.376 . S
C1641 C1642 1.388 . S
C1642 H1629 0.930 . S
C1642 C1641 1.388 . S
C1642 C1643 1.390 . S
C1643 C1642 1.390 . S
C1643 C1644 1.394 . S
C1643 C1649 1.465 . S
C1644 C1639 1.399 . S
C1644 C1643 1.394 . S
C1644 C1645 1.516 . S
C1645 C1644 1.516 . S
C1645 C1646 1.502 . S
C1645 C1647 1.561 . S
C1645 C1648 1.526 . S
C1646 H1630 0.959 . S
C1646 H1631 0.959 . S
C1646 H1632 0.961 . S
C1646 C1645 1.502 . S
C1647 H1633 0.960 . S
C1647 H1634 0.961 . S
C1647 H1635 0.959 . S
C1647 C1645 1.561 . S
C1648 C1645 1.526 . S
C1648 C1649 1.396 . S
C1648 C1653 1.390 . S
C1649 C1643 1.465 . S
C1649 C1648 1.396 . S
C1649 C1650 1.399 . S
C1650 H1636 0.929 . S
C1650 C1649 1.399 . S
C1650 C1651 1.385 . S
C1651 H1637 0.931 . S
C1651 C1650 1.385 . S
C1651 C1652 1.389 . S
C1652 C1651 1.389 . S
C1652 C1653 1.387 . S
C1653 H1638 0.930 . S
C1653 C1648 1.390 . S
C1653 C1652 1.387 . S
H1654 C1666 0.930 . S
H1655 C1668 0.930 . S
H1656 C1669 0.930 . S
H1657 C1673 0.959 . S
H1658 C1673 0.959 . S
H1659 C1673 0.961 . S
H1660 C1674 0.960 . S
H1661 C1674 0.961 . S
H1662 C1674 0.959 . S
H1663 C1677 0.929 . S
H1664 C1678 0.931 . S
H1665 C1680 0.930 . S
C1666 H1654 0.930 . S
C1666 C1667 1.399 . S
C1666 C1671 1.399 . S
C1667 C1666 1.399 . S
C1667 C1668 1.376 . S
C1668 H1655 0.930 . S
C1668 C1667 1.376 . S
C1668 C1669 1.388 . S
C1669 H1656 0.930 . S
C1669 C1668 1.388 . S
C1669 C1670 1.390 . S
C1670 C1669 1.390 . S
C1670 C1671 1.394 . S
C1670 C1676 1.465 . S
C1671 C1666 1.399 . S
C1671 C1670 1.394 . S
C1671 C1672 1.516 . S
C1672 C1671 1.516 . S
C1672 C1673 1.502 . S
C1672 C1674 1.561 . S
C1672 C1675 1.526 . S
C1673 H1657 0.959 . S
C1673 H1658 0.959 . S
C1673 H1659 0.961 . S
C1673 C1672 1.502 . S
C1674 H1660 0.960 . S
C1674 H1661 0.961 . S
C1674 H1662 0.959 . S
C1674 C1672 1.561 . S
C1675 C1672 1.526 . S
C1675 C1676 1.396 . S
C1675 C1680 1.390 . S
C1676 C1670 1.465 . S
C1676 C1675 1.396 . S
C1676 C1677 1.399 . S
C1677 H1663 0.929 . S
C1677 C1676 1.399 . S
C1677 C1678 1.385 . S
C1678 H1664 0.931 . S
C1678 C1677 1.385 . S
C1678 C1679 1.389 . S
C1679 C1678 1.389 . S
C1679 C1680 1.387 . S
C1680 H1665 0.930 . S
C1680 C1675 1.390 . S
C1680 C1679 1.387 . S
H1681 C1693 0.930 . S
H1682 C1695 0.930 . S
H1683 C1696 0.930 . S
H1684 C1700 0.959 . S
H1685 C1700 0.959 . S
H1686 C1700 0.961 . S
H1687 C1701 0.960 . S
H1688 C1701 0.961 . S
H1689 C1701 0.959 . S
H1690 C1704 0.929 . S
H1691 C1705 0.931 . S
H1692 C1707 0.930 . S
C1693 H1681 0.930 . S
C1693 C1694 1.399 . S
C1693 C1698 1.399 . S
C1694 C1693 1.399 . S
C1694 C1695 1.376 . S
C1695 H1682 0.930 . S
C1695 C1694 1.376 . S
C1695 C1696 1.388 . S
C1696 H1683 0.930 . S
C1696 C1695 1.388 . S
C1696 C1697 1.390 . S
C1697 C1696 1.390 . S
C1697 C1698 1.394 . S
C1697 C1703 1.465 . S
C1698 C1693 1.399 . S
C1698 C1697 1.394 . S
C1698 C1699 1.516 . S
C1699 C1698 1.516 . S
C1699 C1700 1.502 . S
C1699 C1701 1.561 . S
C1699 C1702 1.526 . S
C1700 H1684 0.959 . S
C1700 H1685 0.959 . S
C1700 H1686 0.961 . S
C1700 C1699 1.502 . S
C1701 H1687 0.960 . S
C1701 H1688 0.961 . S
C1701 H1689 0.959 . S
C1701 C1699 1.561 . S
C1702 C1699 1.526 . S
C1702 C1703 1.396 . S
C1702 C1707 1.390 . S
C1703 C1697 1.465 . S
C1703 C1702 1.396 . S
C1703 C1704 1.399 . S
C1704 H1690 0.929 . S
C1704 C1703 1.399 . S
C1704 C1705 1.385 . S
C1705 H1691 0.931 . S
C1705 C1704 1.385 . S
C1705 C1706 1.389 . S
C1706 C1705 1.389 . S
C1706 C1707 1.387 . S
C1707 H1692 0.930 . S
C1707 C1702 1.390 . S
C1707 C1706 1.387 . S
H1708 C1720 0.930 . S
H1709 C1722 0.930 . S
H1710 C1723 0.930 . S
H1711 C1727 0.959 . S
H1712 C1727 0.959 . S
H1713 C1727 0.961 . S
H1714 C1728 0.960 . S
H1715 C1728 0.961 . S
H1716 C1728 0.959 . S
H1717 C1731 0.929 . S
H1718 C1732 0.931 . S
H1719 C1734 0.930 . S
C1720 H1708 0.930 . S
C1720 C1721 1.399 . S
C1720 C1725 1.399 . S
C1721 C1720 1.399 . S
C1721 C1722 1.376 . S
C1722 H1709 0.930 . S
C1722 C1721 1.376 . S
C1722 C1723 1.388 . S
C1723 H1710 0.930 . S
C1723 C1722 1.388 . S
C1723 C1724 1.390 . S
C1724 C1723 1.390 . S
C1724 C1725 1.394 . S
C1724 C1730 1.465 . S
C1725 C1720 1.399 . S
C1725 C1724 1.394 . S
C1725 C1726 1.516 . S
C1726 C1725 1.516 . S
C1726 C1727 1.502 . S
C1726 C1728 1.561 . S
C1726 C1729 1.526 . S
C1727 H1711 0.959 . S
C1727 H1712 0.959 . S
C1727 H1713 0.961 . S
C1727 C1726 1.502 . S
C1728 H1714 0.960 . S
C1728 H1715 0.961 . S
C1728 H1716 0.959 . S
C1728 C1726 1.561 . S
C1729 C1726 1.526 . S
C1729 C1730 1.396 . S
C1729 C1734 1.390 . S
C1730 C1724 1.465 . S
C1730 C1729 1.396 . S
C1730 C1731 1.399 . S
C1731 H1717 0.929 . S
C1731 C1730 1.399 . S
C1731 C1732 1.385 . S
C1732 H1718 0.931 . S
C1732 C1731 1.385 . S
C1732 C1733 1.389 . S
C1733 C1732 1.389 . S
C1733 C1734 1.387 . S
C1734 H1719 0.930 . S
C1734 C1729 1.390 . S
C1734 C1733 1.387 . S
H1735 C1747 0.930 . S
H1736 C1749 0.930 . S
H1737 C1750 0.930 . S
H1738 C1754 0.959 . S
H1739 C1754 0.959 . S
H1740 C1754 0.961 . S
H1741 C1755 0.960 . S
H1742 C1755 0.961 . S
H1743 C1755 0.959 . S
H1744 C1758 0.929 . S
H1745 C1759 0.931 . S
H1746 C1761 0.930 . S
C1747 H1735 0.930 . S
C1747 C1748 1.399 . S
C1747 C1752 1.399 . S
C1748 C1747 1.399 . S
C1748 C1749 1.376 . S
C1749 H1736 0.930 . S
C1749 C1748 1.376 . S
C1749 C1750 1.388 . S
C1750 H1737 0.930 . S
C1750 C1749 1.388 . S
C1750 C1751 1.390 . S
C1751 C1750 1.390 . S
C1751 C1752 1.394 . S
C1751 C1757 1.465 . S
C1752 C1747 1.399 . S
C1752 C1751 1.394 . S
C1752 C1753 1.516 . S
C1753 C1752 1.516 . S
C1753 C1754 1.502 . S
C1753 C1755 1.561 . S
C1753 C1756 1.526 . S
C1754 H1738 0.959 . S
C1754 H1739 0.959 . S
C1754 H1740 0.961 . S
C1754 C1753 1.502 . S
C1755 H1741 0.960 . S
C1755 H1742 0.961 . S
C1755 H1743 0.959 . S
C1755 C1753 1.561 . S
C1756 C1753 1.526 . S
C1756 C1757 1.396 . S
C1756 C1761 1.390 . S
C1757 C1751 1.465 . S
C1757 C1756 1.396 . S
C1757 C1758 1.399 . S
C1758 H1744 0.929 . S
C1758 C1757 1.399 . S
C1758 C1759 1.385 . S
C1759 H1745 0.931 . S
C1759 C1758 1.385 . S
C1759 C1760 1.389 . S
C1760 C1759 1.389 . S
C1760 C1761 1.387 . S
C1761 H1746 0.930 . S
C1761 C1756 1.390 . S
C1761 C1760 1.387 . S
H1762 C1774 0.930 . S
H1763 C1776 0.930 . S
H1764 C1777 0.930 . S
H1765 C1781 0.959 . S
H1766 C1781 0.959 . S
H1767 C1781 0.961 . S
H1768 C1782 0.960 . S
H1769 C1782 0.961 . S
H1770 C1782 0.959 . S
H1771 C1785 0.929 . S
H1772 C1786 0.931 . S
H1773 C1788 0.930 . S
C1774 H1762 0.930 . S
C1774 C1775 1.399 . S
C1774 C1779 1.399 . S
C1775 C1774 1.399 . S
C1775 C1776 1.376 . S
C1776 H1763 0.930 . S
C1776 C1775 1.376 . S
C1776 C1777 1.388 . S
C1777 H1764 0.930 . S
C1777 C1776 1.388 . S
C1777 C1778 1.390 . S
C1778 C1777 1.390 . S
C1778 C1779 1.394 . S
C1778 C1784 1.465 . S
C1779 C1774 1.399 . S
C1779 C1778 1.394 . S
C1779 C1780 1.516 . S
C1780 C1779 1.516 . S
C1780 C1781 1.502 . S
C1780 C1782 1.561 . S
C1780 C1783 1.526 . S
C1781 H1765 0.959 . S
C1781 H1766 0.959 . S
C1781 H1767 0.961 . S
C1781 C1780 1.502 . S
C1782 H1768 0.960 . S
C1782 H1769 0.961 . S
C1782 H1770 0.959 . S
C1782 C1780 1.561 . S
C1783 C1780 1.526 . S
C1783 C1784 1.396 . S
C1783 C1788 1.390 . S
C1784 C1778 1.465 . S
C1784 C1783 1.396 . S
C1784 C1785 1.399 . S
C1785 H1771 0.929 . S
C1785 C1784 1.399 . S
C1785 C1786 1.385 . S
C1786 H1772 0.931 . S
C1786 C1785 1.385 . S
C1786 C1787 1.389 . S
C1787 C1786 1.389 . S
C1787 C1788 1.387 . S
C1788 H1773 0.930 . S
C1788 C1783 1.390 . S
C1788 C1787 1.387 . S
H1789 C1801 0.930 . S
H1790 C1803 0.930 . S
H1791 C1804 0.930 . S
H1792 C1808 0.959 . S
H1793 C1808 0.959 . S
H1794 C1808 0.961 . S
H1795 C1809 0.960 . S
H1796 C1809 0.961 . S
H1797 C1809 0.959 . S
H1798 C1812 0.929 . S
H1799 C1813 0.931 . S
H1800 C1815 0.930 . S
C1801 H1789 0.930 . S
C1801 C1802 1.399 . S
C1801 C1806 1.399 . S
C1802 C1801 1.399 . S
C1802 C1803 1.376 . S
C1803 H1790 0.930 . S
C1803 C1802 1.376 . S
C1803 C1804 1.388 . S
C1804 H1791 0.930 . S
C1804 C1803 1.388 . S
C1804 C1805 1.390 . S
C1805 C1804 1.390 . S
C1805 C1806 1.394 . S
C1805 C1811 1.465 . S
C1806 C1801 1.399 . S
C1806 C1805 1.394 . S
C1806 C1807 1.516 . S
C1807 C1806 1.516 . S
C1807 C1808 1.502 . S
C1807 C1809 1.561 . S
C1807 C1810 1.526 . S
C1808 H1792 0.959 . S
C1808 H1793 0.959 . S
C1808 H1794 0.961 . S
C1808 C1807 1.502 . S
C1809 H1795 0.960 . S
C1809 H1796 0.961 . S
C1809 H1797 0.959 . S
C1809 C1807 1.561 . S
C1810 C1807 1.526 . S
C1810 C1811 1.396 . S
C1810 C1815 1.390 . S
C1811 C1805 1.465 . S
C1811 C1810 1.396 . S
C1811 C1812 1.399 . S
C1812 H1798 0.929 . S
C1812 C1811 1.399 . S
C1812 C1813 1.385 . S
C1813 H1799 0.931 . S
C1813 C1812 1.385 . S
C1813 C1814 1.389 . S
C1814 C1813 1.389 . S
C1814 C1815 1.387 . S
C1815 H1800 0.930 . S
C1815 C1810 1.390 . S
C1815 C1814 1.387 . S
H1816 C1828 0.930 . S
H1817 C1830 0.930 . S
H1818 C1831 0.930 . S
H1819 C1835 0.959 . S
H1820 C1835 0.959 . S
H1821 C1835 0.961 . S
H1822 C1836 0.960 . S
H1823 C1836 0.961 . S
H1824 C1836 0.959 . S
H1825 C1839 0.929 . S
H1826 C1840 0.931 1_565 S
H1827 C1842 0.930 . S
C1828 H1816 0.930 . S
C1828 C1829 1.399 . S
C1828 C1833 1.399 . S
C1829 C1828 1.399 . S
C1829 C1830 1.376 1_545 S
C1830 H1817 0.930 . S
C1830 C1829 1.376 1_565 S
C1830 C1831 1.388 . S
C1831 H1818 0.930 . S
C1831 C1830 1.388 . S
C1831 C1832 1.390 1_565 S
C1832 C1831 1.390 1_545 S
C1832 C1833 1.394 . S
C1832 C1838 1.465 . S
C1833 C1828 1.399 . S
C1833 C1832 1.394 . S
C1833 C1834 1.516 . S
C1834 C1833 1.516 . S
C1834 C1835 1.502 . S
C1834 C1836 1.561 . S
C1834 C1837 1.526 . S
C1835 H1819 0.959 . S
C1835 H1820 0.959 . S
C1835 H1821 0.961 . S
C1835 C1834 1.502 . S
C1836 H1822 0.960 . S
C1836 H1823 0.961 . S
C1836 H1824 0.959 . S
C1836 C1834 1.561 . S
C1837 C1834 1.526 . S
C1837 C1838 1.396 . S
C1837 C1842 1.390 . S
C1838 C1832 1.465 . S
C1838 C1837 1.396 . S
C1838 C1839 1.399 1_545 S
C1839 H1825 0.929 . S
C1839 C1838 1.399 1_565 S
C1839 C1840 1.385 1_565 S
C1840 H1826 0.931 1_545 S
C1840 C1839 1.385 1_545 S
C1840 C1841 1.389 . S
C1841 C1840 1.389 . S
C1841 C1842 1.387 . S
C1842 H1827 0.930 . S
C1842 C1837 1.390 . S
C1842 C1841 1.387 . S
H1843 C1855 0.930 . S
H1844 C1857 0.930 . S
H1845 C1858 0.930 . S
H1846 C1862 0.959 . S
H1847 C1862 0.959 . S
H1848 C1862 0.961 . S
H1849 C1863 0.960 . S
H1850 C1863 0.961 . S
H1851 C1863 0.959 . S
H1852 C1866 0.929 . S
H1853 C1867 0.931 . S
H1854 C1869 0.930 . S
C1855 H1843 0.930 . S
C1855 C1856 1.399 . S
C1855 C1860 1.399 . S
C1856 C1855 1.399 . S
C1856 C1857 1.376 . S
C1857 H1844 0.930 . S
C1857 C1856 1.376 . S
C1857 C1858 1.388 . S
C1858 H1845 0.930 . S
C1858 C1857 1.388 . S
C1858 C1859 1.390 . S
C1859 C1858 1.390 . S
C1859 C1860 1.394 . S
C1859 C1865 1.465 . S
C1860 C1855 1.399 . S
C1860 C1859 1.394 . S
C1860 C1861 1.516 . S
C1861 C1860 1.516 . S
C1861 C1862 1.502 . S
C1861 C1863 1.561 . S
C1861 C1864 1.526 . S
C1862 H1846 0.959 . S
C1862 H1847 0.959 . S
C1862 H1848 0.961 . S
C1862 C1861 1.502 . S
C1863 H1849 0.960 . S
C1863 H1850 0.961 . S
C1863 H1851 0.959 . S
C1863 C1861 1.561 . S
C1864 C1861 1.526 . S
C1864 C1865 1.396 . S
C1864 C1869 1.390 . S
C1865 C1859 1.465 . S
C1865 C1864 1.396 . S
C1865 C1866 1.399 . S
C1866 H1852 0.929 . S
C1866 C1865 1.399 . S
C1866 C1867 1.385 . S
C1867 H1853 0.931 . S
C1867 C1866 1.385 . S
C1867 C1868 1.389 . S
C1868 C1867 1.389 . S
C1868 C1869 1.387 . S
C1869 H1854 0.930 . S
C1869 C1864 1.390 . S
C1869 C1868 1.387 . S
H1870 C1882 0.930 . S
H1871 C1884 0.930 . S
H1872 C1885 0.930 . S
H1873 C1889 0.959 . S
H1874 C1889 0.959 . S
H1875 C1889 0.961 . S
H1876 C1890 0.960 . S
H1877 C1890 0.961 . S
H1878 C1890 0.959 . S
H1879 C1893 0.929 1_565 S
H1880 C1894 0.931 . S
H1881 C1896 0.930 . S
C1882 H1870 0.930 . S
C1882 C1883 1.399 . S
C1882 C1887 1.399 . S
C1883 C1882 1.399 . S
C1883 C1884 1.376 1_545 S
C1884 H1871 0.930 . S
C1884 C1883 1.376 1_565 S
C1884 C1885 1.388 . S
C1885 H1872 0.930 . S
C1885 C1884 1.388 . S
C1885 C1886 1.390 1_565 S
C1886 C1885 1.390 1_545 S
C1886 C1887 1.394 . S
C1886 C1892 1.465 . S
C1887 C1882 1.399 . S
C1887 C1886 1.394 . S
C1887 C1888 1.516 . S
C1888 C1887 1.516 . S
C1888 C1889 1.502 . S
C1888 C1890 1.561 . S
C1888 C1891 1.526 . S
C1889 H1873 0.959 . S
C1889 H1874 0.959 . S
C1889 H1875 0.961 . S
C1889 C1888 1.502 . S
C1890 H1876 0.960 . S
C1890 H1877 0.961 . S
C1890 H1878 0.959 . S
C1890 C1888 1.561 . S
C1891 C1888 1.526 . S
C1891 C1892 1.396 . S
C1891 C1896 1.390 . S
C1892 C1886 1.465 . S
C1892 C1891 1.396 . S
C1892 C1893 1.399 . S
C1893 H1879 0.929 1_545 S
C1893 C1892 1.399 . S
C1893 C1894 1.385 . S
C1894 H1880 0.931 . S
C1894 C1893 1.385 . S
C1894 C1895 1.389 . S
C1895 C1894 1.389 . S
C1895 C1896 1.387 . S
C1896 H1881 0.930 . S
C1896 C1891 1.390 . S
C1896 C1895 1.387 . S
H1897 C1909 0.930 . S
H1898 C1911 0.930 . S
H1899 C1912 0.930 . S
H1900 C1916 0.959 . S
H1901 C1916 0.959 . S
H1902 C1916 0.961 . S
H1903 C1917 0.960 . S
H1904 C1917 0.961 . S
H1905 C1917 0.959 . S
H1906 C1920 0.929 . S
H1907 C1921 0.931 . S
H1908 C1923 0.930 . S
C1909 H1897 0.930 . S
C1909 C1910 1.399 . S
C1909 C1914 1.399 . S
C1910 C1909 1.399 . S
C1910 C1911 1.376 . S
C1911 H1898 0.930 . S
C1911 C1910 1.376 . S
C1911 C1912 1.388 . S
C1912 H1899 0.930 . S
C1912 C1911 1.388 . S
C1912 C1913 1.390 . S
C1913 C1912 1.390 . S
C1913 C1914 1.394 . S
C1913 C1919 1.465 . S
C1914 C1909 1.399 . S
C1914 C1913 1.394 . S
C1914 C1915 1.516 . S
C1915 C1914 1.516 . S
C1915 C1916 1.502 . S
C1915 C1917 1.561 . S
C1915 C1918 1.526 . S
C1916 H1900 0.959 . S
C1916 H1901 0.959 . S
C1916 H1902 0.961 . S
C1916 C1915 1.502 . S
C1917 H1903 0.960 . S
C1917 H1904 0.961 . S
C1917 H1905 0.959 . S
C1917 C1915 1.561 . S
C1918 C1915 1.526 . S
C1918 C1919 1.396 . S
C1918 C1923 1.390 . S
C1919 C1913 1.465 . S
C1919 C1918 1.396 . S
C1919 C1920 1.399 . S
C1920 H1906 0.929 . S
C1920 C1919 1.399 . S
C1920 C1921 1.385 . S
C1921 H1907 0.931 . S
C1921 C1920 1.385 . S
C1921 C1922 1.389 . S
C1922 C1921 1.389 . S
C1922 C1923 1.387 . S
C1923 H1908 0.930 . S
C1923 C1918 1.390 . S
C1923 C1922 1.387 . S
H1924 C1936 0.930 . S
H1925 C1938 0.930 . S
H1926 C1939 0.936 . S
H1927 C1943 0.959 1_565 S
H1928 C1943 0.959 . S
H1929 C1943 0.961 . S
H1930 C1944 0.960 . S
H1931 C1944 0.961 . S
H1932 C1944 0.959 . S
H1933 C1947 0.929 . S
H1934 C1948 0.931 . S
H1935 C1950 0.930 . S
C1936 H1924 0.930 . S
C1936 C1937 1.415 . S
C1936 C1941 1.399 . S
C1937 C1936 1.415 . S
C1937 C1938 1.371 1_545 S
C1938 H1925 0.930 . S
C1938 C1937 1.371 1_565 S
C1938 C1939 1.397 . S
C1939 H1926 0.936 . S
C1939 C1938 1.397 . S
C1939 C1940 1.376 1_565 S
C1940 C1939 1.376 1_545 S
C1940 C1941 1.394 . S
C1940 C1946 1.465 . S
C1941 C1936 1.399 . S
C1941 C1940 1.394 . S
C1941 C1942 1.516 . S
C1942 C1941 1.516 . S
C1942 C1943 1.502 . S
C1942 C1944 1.561 . S
C1942 C1945 1.526 . S
C1943 H1927 0.959 1_545 S
C1943 H1928 0.959 . S
C1943 H1929 0.961 . S
C1943 C1942 1.502 . S
C1944 H1930 0.960 . S
C1944 H1931 0.961 . S
C1944 H1932 0.959 . S
C1944 C1942 1.561 . S
C1945 C1942 1.526 . S
C1945 C1946 1.396 . S
C1945 C1950 1.390 . S
C1946 C1940 1.465 . S
C1946 C1945 1.396 . S
C1946 C1947 1.399 . S
C1947 H1933 0.929 . S
C1947 C1946 1.399 . S
C1947 C1948 1.385 . S
C1948 H1934 0.931 . S
C1948 C1947 1.385 . S
C1948 C1949 1.389 . S
C1949 C1948 1.389 . S
C1949 C1950 1.387 . S
C1950 H1935 0.930 . S
C1950 C1945 1.390 . S
C1950 C1949 1.387 . S
H1951 C1963 0.930 . S
H1952 C1965 0.930 . S
H1953 C1966 0.930 . S
H1954 C1970 0.959 . S
H1955 C1970 0.959 . S
H1956 C1970 0.961 . S
H1957 C1971 0.960 . S
H1958 C1971 0.961 . S
H1959 C1971 0.959 . S
H1960 C1974 0.929 . S
H1961 C1975 0.931 . S
H1962 C1977 0.930 . S
C1963 H1951 0.930 . S
C1963 C1964 1.399 . S
C1963 C1968 1.399 . S
C1964 C1963 1.399 . S
C1964 C1965 1.376 . S
C1965 H1952 0.930 . S
C1965 C1964 1.376 . S
C1965 C1966 1.388 . S
C1966 H1953 0.930 . S
C1966 C1965 1.388 . S
C1966 C1967 1.390 . S
C1967 C1966 1.390 . S
C1967 C1968 1.394 . S
C1967 C1973 1.465 . S
C1968 C1963 1.399 . S
C1968 C1967 1.394 . S
C1968 C1969 1.516 . S
C1969 C1968 1.516 . S
C1969 C1970 1.502 . S
C1969 C1971 1.561 . S
C1969 C1972 1.526 . S
C1970 H1954 0.959 . S
C1970 H1955 0.959 . S
C1970 H1956 0.961 . S
C1970 C1969 1.502 . S
C1971 H1957 0.960 . S
C1971 H1958 0.961 . S
C1971 H1959 0.959 . S
C1971 C1969 1.561 . S
C1972 C1969 1.526 . S
C1972 C1973 1.396 . S
C1972 C1977 1.390 . S
C1973 C1967 1.465 . S
C1973 C1972 1.396 . S
C1973 C1974 1.399 . S
C1974 H1960 0.929 . S
C1974 C1973 1.399 . S
C1974 C1975 1.385 . S
C1975 H1961 0.931 . S
C1975 C1974 1.385 . S
C1975 C1976 1.389 . S
C1976 C1975 1.389 . S
C1976 C1977 1.387 . S
C1977 H1962 0.930 . S
C1977 C1972 1.390 . S
C1977 C1976 1.387 . S
H1978 C1990 0.930 . S
H1979 C1992 0.930 . S
H1980 C1993 0.930 . S
H1981 C1997 0.959 . S
H1982 C1997 0.959 . S
H1983 C1997 0.961 . S
H1984 C1998 0.960 . S
H1985 C1998 0.961 . S
H1986 C1998 0.959 . S
H1987 C2001 0.929 . S
H1988 C2002 0.931 . S
H1989 C2004 0.930 . S
C1990 H1978 0.930 . S
C1990 C1991 1.399 1_565 S
C1990 C1995 1.399 . S
C1991 C1990 1.399 1_545 S
C1991 C1992 1.376 . S
C1992 H1979 0.930 . S
C1992 C1991 1.376 . S
C1992 C1993 1.388 . S
C1993 H1980 0.930 . S
C1993 C1992 1.388 . S
C1993 C1994 1.390 . S
C1994 C1993 1.390 . S
C1994 C1995 1.394 1_545 S
C1994 C2000 1.465 . S
C1995 C1990 1.399 . S
C1995 C1994 1.394 1_565 S
C1995 C1996 1.516 . S
C1996 C1995 1.516 . S
C1996 C1997 1.502 . S
C1996 C1998 1.561 . S
C1996 C1999 1.526 . S
C1997 H1981 0.959 . S
C1997 H1982 0.959 . S
C1997 H1983 0.961 . S
C1997 C1996 1.502 . S
C1998 H1984 0.960 . S
C1998 H1985 0.961 . S
C1998 H1986 0.959 . S
C1998 C1996 1.561 . S
C1999 C1996 1.526 . S
C1999 C2000 1.396 1_565 S
C1999 C2004 1.390 . S
C2000 C1994 1.465 . S
C2000 C1999 1.396 1_545 S
C2000 C2001 1.399 . S
C2001 H1987 0.929 . S
C2001 C2000 1.399 . S
C2001 C2002 1.385 . S
C2002 H1988 0.931 . S
C2002 C2001 1.385 . S
C2002 C2003 1.389 1_545 S
C2003 C2002 1.389 1_565 S
C2003 C2004 1.387 . S
C2004 H1989 0.930 . S
C2004 C1999 1.390 . S
C2004 C2003 1.387 . S
H2005 C2017 0.930 . S
H2006 C2019 0.930 . S
H2007 C2020 0.930 . S
H2008 C2024 0.959 . S
H2009 C2024 0.959 . S
H2010 C2024 0.961 . S
H2011 C2025 0.960 . S
H2012 C2025 0.961 . S
H2013 C2025 0.959 . S
H2014 C2028 0.929 . S
H2015 C2029 0.931 . S
H2016 C2031 0.930 . S
C2017 H2005 0.930 . S
C2017 C2018 1.399 . S
C2017 C2022 1.399 . S
C2018 C2017 1.399 . S
C2018 C2019 1.376 . S
C2019 H2006 0.930 . S
C2019 C2018 1.376 . S
C2019 C2020 1.388 . S
C2020 H2007 0.930 . S
C2020 C2019 1.388 . S
C2020 C2021 1.390 . S
C2021 C2020 1.390 . S
C2021 C2022 1.394 . S
C2021 C2027 1.465 . S
C2022 C2017 1.399 . S
C2022 C2021 1.394 . S
C2022 C2023 1.516 . S
C2023 C2022 1.516 . S
C2023 C2024 1.502 . S
C2023 C2025 1.561 . S
C2023 C2026 1.526 . S
C2024 H2008 0.959 . S
C2024 H2009 0.959 . S
C2024 H2010 0.961 . S
C2024 C2023 1.502 . S
C2025 H2011 0.960 . S
C2025 H2012 0.961 . S
C2025 H2013 0.959 . S
C2025 C2023 1.561 . S
C2026 C2023 1.526 . S
C2026 C2027 1.396 . S
C2026 C2031 1.390 . S
C2027 C2021 1.465 . S
C2027 C2026 1.396 . S
C2027 C2028 1.399 . S
C2028 H2014 0.929 . S
C2028 C2027 1.399 . S
C2028 C2029 1.385 . S
C2029 H2015 0.931 . S
C2029 C2028 1.385 . S
C2029 C2030 1.389 . S
C2030 C2029 1.389 . S
C2030 C2031 1.387 . S
C2031 H2016 0.930 . S
C2031 C2026 1.390 . S
C2031 C2030 1.387 . S
H2032 C2044 0.930 . S
H2033 C2046 0.930 1_556 S
H2034 C2047 0.930 . S
H2035 C2051 0.959 . S
H2036 C2051 0.959 . S
H2037 C2051 0.961 . S
H2038 C2052 0.960 . S
H2039 C2052 0.961 . S
H2040 C2052 0.959 . S
H2041 C2055 0.929 . S
H2042 C2056 0.931 . S
H2043 C2058 0.930 . S
C2044 H2032 0.930 . S
C2044 C2045 1.399 . S
C2044 C2049 1.399 . S
C2045 C2044 1.399 . S
C2045 C2046 1.376 . S
C2046 H2033 0.930 1_554 S
C2046 C2045 1.376 . S
C2046 C2047 1.388 1_554 S
C2047 H2034 0.930 . S
C2047 C2046 1.388 1_556 S
C2047 C2048 1.385 1_556 S
C2048 C2047 1.385 1_554 S
C2048 C2049 1.405 . S
C2048 C2054 1.461 1_554 S
C2049 C2044 1.399 . S
C2049 C2048 1.405 . S
C2049 C2050 1.516 . S
C2050 C2049 1.516 . S
C2050 C2051 1.502 . S
C2050 C2052 1.561 . S
C2050 C2053 1.526 . S
C2051 H2035 0.959 . S
C2051 H2036 0.959 . S
C2051 H2037 0.961 . S
C2051 C2050 1.502 . S
C2052 H2038 0.960 . S
C2052 H2039 0.961 . S
C2052 H2040 0.959 . S
C2052 C2050 1.561 . S
C2053 C2050 1.526 . S
C2053 C2054 1.396 1_554 S
C2053 C2058 1.390 . S
C2054 C2048 1.461 1_556 S
C2054 C2053 1.396 1_556 S
C2054 C2055 1.399 . S
C2055 H2041 0.929 . S
C2055 C2054 1.399 . S
C2055 C2056 1.385 . S
C2056 H2042 0.931 . S
C2056 C2055 1.385 . S
C2056 C2057 1.389 . S
C2057 C2056 1.389 . S
C2057 C2058 1.387 1_556 S
C2058 H2043 0.930 . S
C2058 C2053 1.390 . S
C2058 C2057 1.387 1_554 S
H2059 C2071 0.930 . S
H2060 C2073 0.936 . S
H2061 C2074 0.930 . S
H2062 C2078 0.959 . S
H2063 C2078 0.959 . S
H2064 C2078 0.961 . S
H2065 C2079 0.960 . S
H2066 C2079 0.961 . S
H2067 C2079 0.959 . S
H2068 C2082 0.929 . S
H2069 C2083 0.931 . S
H2070 C2085 0.930 . S
C2071 H2059 0.930 . S
C2071 C2072 1.399 . S
C2071 C2076 1.399 . S
C2072 C2071 1.399 . S
C2072 C2073 1.365 1_554 S
C2073 H2060 0.936 . S
C2073 C2072 1.365 1_556 S
C2073 C2074 1.394 . S
C2074 H2061 0.930 . S
C2074 C2073 1.394 . S
C2074 C2075 1.390 1_556 S
C2075 C2074 1.390 1_554 S
C2075 C2076 1.394 . S
C2075 C2081 1.465 . S
C2076 C2071 1.399 . S
C2076 C2075 1.394 . S
C2076 C2077 1.516 . S
C2077 C2076 1.516 . S
C2077 C2078 1.502 . S
C2077 C2079 1.561 . S
C2077 C2080 1.526 . S
C2078 H2062 0.959 . S
C2078 H2063 0.959 . S
C2078 H2064 0.961 . S
C2078 C2077 1.502 . S
C2079 H2065 0.960 . S
C2079 H2066 0.961 . S
C2079 H2067 0.959 . S
C2079 C2077 1.561 . S
C2080 C2077 1.526 . S
C2080 C2081 1.396 . S
C2080 C2085 1.390 . S
C2081 C2075 1.465 . S
C2081 C2080 1.396 . S
C2081 C2082 1.399 1_554 S
C2082 H2068 0.929 . S
C2082 C2081 1.399 1_556 S
C2082 C2083 1.385 . S
C2083 H2069 0.931 . S
C2083 C2082 1.385 . S
C2083 C2084 1.389 1_556 S
C2084 C2083 1.389 1_554 S
C2084 C2085 1.387 . S
C2085 H2070 0.930 . S
C2085 C2080 1.390 . S
C2085 C2084 1.387 . S
H2086 C2098 0.930 . S
H2087 C2100 0.930 . S
H2088 C2101 0.930 . S
H2089 C2105 0.959 . S
H2090 C2105 0.959 . S
H2091 C2105 0.961 . S
H2092 C2106 0.960 . S
H2093 C2106 0.961 . S
H2094 C2106 0.959 . S
H2095 C2109 0.929 . S
H2096 C2110 0.931 . S
H2097 C2112 0.930 . S
C2098 H2086 0.930 . S
C2098 C2099 1.399 . S
C2098 C2103 1.399 . S
C2099 C2098 1.399 . S
C2099 C2100 1.376 . S
C2100 H2087 0.930 . S
C2100 C2099 1.376 . S
C2100 C2101 1.388 . S
C2101 H2088 0.930 . S
C2101 C2100 1.388 . S
C2101 C2102 1.390 . S
C2102 C2101 1.390 . S
C2102 C2103 1.394 . S
C2102 C2108 1.465 . S
C2103 C2098 1.399 . S
C2103 C2102 1.394 . S
C2103 C2104 1.516 . S
C2104 C2103 1.516 . S
C2104 C2105 1.502 . S
C2104 C2106 1.561 . S
C2104 C2107 1.526 . S
C2105 H2089 0.959 . S
C2105 H2090 0.959 . S
C2105 H2091 0.961 . S
C2105 C2104 1.502 . S
C2106 H2092 0.960 . S
C2106 H2093 0.961 . S
C2106 H2094 0.959 . S
C2106 C2104 1.561 . S
C2107 C2104 1.526 . S
C2107 C2108 1.396 . S
C2107 C2112 1.390 . S
C2108 C2102 1.465 . S
C2108 C2107 1.396 . S
C2108 C2109 1.399 . S
C2109 H2095 0.929 . S
C2109 C2108 1.399 . S
C2109 C2110 1.385 . S
C2110 H2096 0.931 . S
C2110 C2109 1.385 . S
C2110 C2111 1.389 . S
C2111 C2110 1.389 . S
C2111 C2112 1.387 . S
C2112 H2097 0.930 . S
C2112 C2107 1.390 . S
C2112 C2111 1.387 . S
H2113 C2125 0.930 . S
H2114 C2127 0.930 . S
H2115 C2128 0.930 . S
H2116 C2132 0.959 . S
H2117 C2132 0.959 . S
H2118 C2132 0.961 . S
H2119 C2133 0.960 . S
H2120 C2133 0.961 . S
H2121 C2133 0.959 . S
H2122 C2136 0.929 . S
H2123 C2137 0.931 . S
H2124 C2139 0.930 . S
C2125 H2113 0.930 . S
C2125 C2126 1.399 . S
C2125 C2130 1.399 . S
C2126 C2125 1.399 . S
C2126 C2127 1.376 . S
C2127 H2114 0.930 . S
C2127 C2126 1.376 . S
C2127 C2128 1.388 . S
C2128 H2115 0.930 . S
C2128 C2127 1.388 . S
C2128 C2129 1.390 . S
C2129 C2128 1.390 . S
C2129 C2130 1.394 . S
C2129 C2135 1.465 . S
C2130 C2125 1.399 . S
C2130 C2129 1.394 . S
C2130 C2131 1.516 . S
C2131 C2130 1.516 . S
C2131 C2132 1.502 . S
C2131 C2133 1.561 . S
C2131 C2134 1.526 . S
C2132 H2116 0.959 . S
C2132 H2117 0.959 . S
C2132 H2118 0.961 . S
C2132 C2131 1.502 . S
C2133 H2119 0.960 . S
C2133 H2120 0.961 . S
C2133 H2121 0.959 . S
C2133 C2131 1.561 . S
C2134 C2131 1.526 . S
C2134 C2135 1.396 . S
C2134 C2139 1.390 . S
C2135 C2129 1.465 . S
C2135 C2134 1.396 . S
C2135 C2136 1.399 . S
C2136 H2122 0.929 . S
C2136 C2135 1.399 . S
C2136 C2137 1.385 . S
C2137 H2123 0.931 . S
C2137 C2136 1.385 . S
C2137 C2138 1.389 . S
C2138 C2137 1.389 . S
C2138 C2139 1.387 . S
C2139 H2124 0.930 . S
C2139 C2134 1.390 . S
C2139 C2138 1.387 . S
H2140 C2152 0.930 . S
H2141 C2154 0.930 . S
H2142 C2155 0.930 . S
H2143 C2159 0.959 . S
H2144 C2159 0.959 . S
H2145 C2159 0.961 1_545 S
H2146 C2160 0.960 . S
H2147 C2160 0.961 . S
H2148 C2160 0.959 . S
H2149 C2163 0.929 . S
H2150 C2164 0.931 . S
H2151 C2166 0.930 . S
C2152 H2140 0.930 . S
C2152 C2153 1.399 . S
C2152 C2157 1.399 1_545 S
C2153 C2152 1.399 . S
C2153 C2154 1.376 1_545 S
C2154 H2141 0.930 . S
C2154 C2153 1.376 1_565 S
C2154 C2155 1.388 . S
C2155 H2142 0.930 . S
C2155 C2154 1.388 . S
C2155 C2156 1.390 . S
C2156 C2155 1.390 . S
C2156 C2157 1.394 . S
C2156 C2162 1.465 . S
C2157 C2152 1.399 1_565 S
C2157 C2156 1.394 . S
C2157 C2158 1.516 . S
C2158 C2157 1.516 . S
C2158 C2159 1.502 . S
C2158 C2160 1.561 1_565 S
C2158 C2161 1.526 . S
C2159 H2143 0.959 . S
C2159 H2144 0.959 . S
C2159 H2145 0.961 1_565 S
C2159 C2158 1.502 . S
C2160 H2146 0.960 . S
C2160 H2147 0.961 . S
C2160 H2148 0.959 . S
C2160 C2158 1.561 1_545 S
C2161 C2158 1.526 . S
C2161 C2162 1.396 . S
C2161 C2166 1.390 . S
C2162 C2156 1.465 . S
C2162 C2161 1.396 . S
C2162 C2163 1.399 . S
C2163 H2149 0.929 . S
C2163 C2162 1.399 . S
C2163 C2164 1.385 . S
C2164 H2150 0.931 . S
C2164 C2163 1.385 . S
C2164 C2165 1.389 . S
C2165 C2164 1.389 . S
C2165 C2166 1.387 . S
C2166 H2151 0.930 . S
C2166 C2161 1.390 . S
C2166 C2165 1.387 . S
H2167 C2179 0.930 . S
H2168 C2181 0.930 . S
H2169 C2182 0.930 . S
H2170 C2186 0.959 . S
H2171 C2186 0.959 . S
H2172 C2186 0.961 . S
H2173 C2187 0.960 . S
H2174 C2187 0.961 . S
H2175 C2187 0.959 . S
H2176 C2190 0.929 . S
H2177 C2191 0.931 . S
H2178 C2193 0.930 . S
C2179 H2167 0.930 . S
C2179 C2180 1.399 . S
C2179 C2184 1.399 . S
C2180 C2179 1.399 . S
C2180 C2181 1.376 . S
C2181 H2168 0.930 . S
C2181 C2180 1.376 . S
C2181 C2182 1.388 . S
C2182 H2169 0.930 . S
C2182 C2181 1.388 . S
C2182 C2183 1.390 . S
C2183 C2182 1.390 . S
C2183 C2184 1.394 . S
C2183 C2189 1.465 . S
C2184 C2179 1.399 . S
C2184 C2183 1.394 . S
C2184 C2185 1.516 . S
C2185 C2184 1.516 . S
C2185 C2186 1.502 . S
C2185 C2187 1.561 . S
C2185 C2188 1.526 . S
C2186 H2170 0.959 . S
C2186 H2171 0.959 . S
C2186 H2172 0.961 . S
C2186 C2185 1.502 . S
C2187 H2173 0.960 . S
C2187 H2174 0.961 . S
C2187 H2175 0.959 . S
C2187 C2185 1.561 . S
C2188 C2185 1.526 . S
C2188 C2189 1.396 . S
C2188 C2193 1.390 . S
C2189 C2183 1.465 . S
C2189 C2188 1.396 . S
C2189 C2190 1.399 . S
C2190 H2176 0.929 . S
C2190 C2189 1.399 . S
C2190 C2191 1.385 . S
C2191 H2177 0.931 . S
C2191 C2190 1.385 . S
C2191 C2192 1.389 . S
C2192 C2191 1.389 . S
C2192 C2193 1.387 . S
C2193 H2178 0.930 . S
C2193 C2188 1.390 . S
C2193 C2192 1.387 . S
H2194 C2206 0.930 . S
H2195 C2208 0.930 . S
H2196 C2209 0.930 . S
H2197 C2213 0.959 . S
H2198 C2213 0.959 . S
H2199 C2213 0.961 . S
H2200 C2214 0.960 . S
H2201 C2214 0.961 . S
H2202 C2214 0.959 . S
H2203 C2217 0.929 . S
H2204 C2218 0.931 . S
H2205 C2220 0.930 . S
C2206 H2194 0.930 . S
C2206 C2207 1.399 . S
C2206 C2211 1.399 . S
C2207 C2206 1.399 . S
C2207 C2208 1.376 . S
C2208 H2195 0.930 . S
C2208 C2207 1.376 . S
C2208 C2209 1.388 . S
C2209 H2196 0.930 . S
C2209 C2208 1.388 . S
C2209 C2210 1.390 . S
C2210 C2209 1.390 . S
C2210 C2211 1.394 . S
C2210 C2216 1.465 . S
C2211 C2206 1.399 . S
C2211 C2210 1.394 . S
C2211 C2212 1.516 . S
C2212 C2211 1.516 . S
C2212 C2213 1.502 . S
C2212 C2214 1.561 . S
C2212 C2215 1.526 . S
C2213 H2197 0.959 . S
C2213 H2198 0.959 . S
C2213 H2199 0.961 . S
C2213 C2212 1.502 . S
C2214 H2200 0.960 . S
C2214 H2201 0.961 . S
C2214 H2202 0.959 . S
C2214 C2212 1.561 . S
C2215 C2212 1.526 . S
C2215 C2216 1.396 . S
C2215 C2220 1.390 . S
C2216 C2210 1.465 . S
C2216 C2215 1.396 . S
C2216 C2217 1.399 . S
C2217 H2203 0.929 . S
C2217 C2216 1.399 . S
C2217 C2218 1.385 . S
C2218 H2204 0.931 . S
C2218 C2217 1.385 . S
C2218 C2219 1.389 . S
C2219 C2218 1.389 . S
C2219 C2220 1.387 . S
C2220 H2205 0.930 . S
C2220 C2215 1.390 . S
C2220 C2219 1.387 . S
H2221 C2233 0.930 . S
H2222 C2235 0.930 . S
H2223 C2236 0.930 . S
H2224 C2240 0.959 . S
H2225 C2240 0.959 . S
H2226 C2240 0.961 . S
H2227 C2241 0.960 . S
H2228 C2241 0.961 . S
H2229 C2241 0.959 . S
H2230 C2244 0.929 . S
H2231 C2245 0.931 . S
H2232 C2247 0.930 . S
C2233 H2221 0.930 . S
C2233 C2234 1.399 . S
C2233 C2238 1.399 . S
C2234 C2233 1.399 . S
C2234 C2235 1.376 . S
C2235 H2222 0.930 . S
C2235 C2234 1.376 . S
C2235 C2236 1.388 . S
C2236 H2223 0.930 . S
C2236 C2235 1.388 . S
C2236 C2237 1.390 . S
C2237 C2236 1.390 . S
C2237 C2238 1.394 . S
C2237 C2243 1.465 . S
C2238 C2233 1.399 . S
C2238 C2237 1.394 . S
C2238 C2239 1.516 . S
C2239 C2238 1.516 . S
C2239 C2240 1.502 . S
C2239 C2241 1.561 . S
C2239 C2242 1.526 . S
C2240 H2224 0.959 . S
C2240 H2225 0.959 . S
C2240 H2226 0.961 . S
C2240 C2239 1.502 . S
C2241 H2227 0.960 . S
C2241 H2228 0.961 . S
C2241 H2229 0.959 . S
C2241 C2239 1.561 . S
C2242 C2239 1.526 . S
C2242 C2243 1.396 . S
C2242 C2247 1.390 . S
C2243 C2237 1.465 . S
C2243 C2242 1.396 . S
C2243 C2244 1.399 . S
C2244 H2230 0.929 . S
C2244 C2243 1.399 . S
C2244 C2245 1.385 . S
C2245 H2231 0.931 . S
C2245 C2244 1.385 . S
C2245 C2246 1.389 . S
C2246 C2245 1.389 . S
C2246 C2247 1.387 . S
C2247 H2232 0.930 . S
C2247 C2242 1.390 . S
C2247 C2246 1.387 . S
H2248 C2260 0.930 . S
H2249 C2262 0.930 . S
H2250 C2263 0.930 . S
H2251 C2267 0.959 . S
H2252 C2267 0.959 . S
H2253 C2267 0.961 . S
H2254 C2268 0.960 . S
H2255 C2268 0.961 . S
H2256 C2268 0.959 . S
H2257 C2271 0.929 . S
H2258 C2272 0.931 . S
H2259 C2274 0.930 . S
C2260 H2248 0.930 . S
C2260 C2261 1.399 . S
C2260 C2265 1.399 . S
C2261 C2260 1.399 . S
C2261 C2262 1.376 . S
C2262 H2249 0.930 . S
C2262 C2261 1.376 . S
C2262 C2263 1.388 . S
C2263 H2250 0.930 . S
C2263 C2262 1.388 . S
C2263 C2264 1.390 . S
C2264 C2263 1.390 . S
C2264 C2265 1.394 . S
C2264 C2270 1.465 . S
C2265 C2260 1.399 . S
C2265 C2264 1.394 . S
C2265 C2266 1.516 . S
C2266 C2265 1.516 . S
C2266 C2267 1.502 . S
C2266 C2268 1.561 . S
C2266 C2269 1.526 . S
C2267 H2251 0.959 . S
C2267 H2252 0.959 . S
C2267 H2253 0.961 . S
C2267 C2266 1.502 . S
C2268 H2254 0.960 . S
C2268 H2255 0.961 . S
C2268 H2256 0.959 . S
C2268 C2266 1.561 . S
C2269 C2266 1.526 . S
C2269 C2270 1.396 . S
C2269 C2274 1.390 . S
C2270 C2264 1.465 . S
C2270 C2269 1.396 . S
C2270 C2271 1.399 . S
C2271 H2257 0.929 . S
C2271 C2270 1.399 . S
C2271 C2272 1.385 . S
C2272 H2258 0.931 . S
C2272 C2271 1.385 . S
C2272 C2273 1.389 . S
C2273 C2272 1.389 . S
C2273 C2274 1.387 . S
C2274 H2259 0.930 . S
C2274 C2269 1.390 . S
C2274 C2273 1.387 . S
H2275 C2287 0.930 . S
H2276 C2289 0.930 . S
H2277 C2290 0.930 . S
H2278 C2294 0.959 . S
H2279 C2294 0.959 . S
H2280 C2294 0.961 . S
H2281 C2295 0.960 . S
H2282 C2295 0.961 . S
H2283 C2295 0.959 . S
H2284 C2298 0.929 . S
H2285 C2299 0.931 . S
H2286 C2301 0.930 . S
C2287 H2275 0.930 . S
C2287 C2288 1.399 . S
C2287 C2292 1.399 . S
C2288 C2287 1.399 . S
C2288 C2289 1.376 . S
C2289 H2276 0.930 . S
C2289 C2288 1.376 . S
C2289 C2290 1.388 . S
C2290 H2277 0.930 . S
C2290 C2289 1.388 . S
C2290 C2291 1.390 . S
C2291 C2290 1.390 . S
C2291 C2292 1.394 . S
C2291 C2297 1.465 . S
C2292 C2287 1.399 . S
C2292 C2291 1.394 . S
C2292 C2293 1.516 . S
C2293 C2292 1.516 . S
C2293 C2294 1.502 . S
C2293 C2295 1.561 . S
C2293 C2296 1.526 . S
C2294 H2278 0.959 . S
C2294 H2279 0.959 . S
C2294 H2280 0.961 . S
C2294 C2293 1.502 . S
C2295 H2281 0.960 . S
C2295 H2282 0.961 . S
C2295 H2283 0.959 . S
C2295 C2293 1.561 . S
C2296 C2293 1.526 . S
C2296 C2297 1.396 . S
C2296 C2301 1.390 . S
C2297 C2291 1.465 . S
C2297 C2296 1.396 . S
C2297 C2298 1.399 . S
C2298 H2284 0.929 . S
C2298 C2297 1.399 . S
C2298 C2299 1.385 . S
C2299 H2285 0.931 . S
C2299 C2298 1.385 . S
C2299 C2300 1.389 . S
C2300 C2299 1.389 . S
C2300 C2301 1.387 . S
C2301 H2286 0.930 . S
C2301 C2296 1.390 . S
C2301 C2300 1.387 . S
H2302 C2314 0.930 . S
H2303 C2316 0.930 . S
H2304 C2317 0.930 . S
H2305 C2321 0.959 . S
H2306 C2321 0.959 . S
H2307 C2321 0.961 . S
H2308 C2322 0.960 . S
H2309 C2322 0.961 . S
H2310 C2322 0.959 . S
H2311 C2325 0.929 . S
H2312 C2326 0.931 . S
H2313 C2328 0.930 . S
C2314 H2302 0.930 . S
C2314 C2315 1.399 . S
C2314 C2319 1.399 . S
C2315 C2314 1.399 . S
C2315 C2316 1.376 . S
C2316 H2303 0.930 . S
C2316 C2315 1.376 . S
C2316 C2317 1.388 . S
C2317 H2304 0.930 . S
C2317 C2316 1.388 . S
C2317 C2318 1.390 . S
C2318 C2317 1.390 . S
C2318 C2319 1.394 . S
C2318 C2324 1.465 . S
C2319 C2314 1.399 . S
C2319 C2318 1.394 . S
C2319 C2320 1.516 1_556 S
C2320 C2319 1.516 1_554 S
C2320 C2321 1.502 . S
C2320 C2322 1.561 . S
C2320 C2323 1.526 . S
C2321 H2305 0.959 . S
C2321 H2306 0.959 . S
C2321 H2307 0.961 . S
C2321 C2320 1.502 . S
C2322 H2308 0.960 . S
C2322 H2309 0.961 . S
C2322 H2310 0.959 . S
C2322 C2320 1.561 . S
C2323 C2320 1.526 . S
C2323 C2324 1.396 1_554 S
C2323 C2328 1.390 . S
C2324 C2318 1.465 . S
C2324 C2323 1.396 1_556 S
C2324 C2325 1.399 . S
C2325 H2311 0.929 . S
C2325 C2324 1.399 . S
C2325 C2326 1.385 . S
C2326 H2312 0.931 . S
C2326 C2325 1.385 . S
C2326 C2327 1.389 1_556 S
C2327 C2326 1.389 1_554 S
C2327 C2328 1.387 . S
C2328 H2313 0.930 . S
C2328 C2323 1.390 . S
C2328 C2327 1.387 . S
H2329 C2341 0.930 . S
H2330 C2343 0.930 . S
H2331 C2344 0.930 . S
H2332 C2348 0.959 . S
H2333 C2348 0.959 . S
H2334 C2348 0.961 . S
H2335 C2349 0.960 . S
H2336 C2349 0.961 . S
H2337 C2349 0.959 . S
H2338 C2352 0.929 . S
H2339 C2353 0.931 . S
H2340 C2355 0.930 . S
C2341 H2329 0.930 . S
C2341 C2342 1.399 . S
C2341 C2346 1.399 1_455 S
C2342 C2341 1.399 . S
C2342 C2343 1.376 . S
C2343 H2330 0.930 . S
C2343 C2342 1.376 . S
C2343 C2344 1.388 . S
C2344 H2331 0.930 . S
C2344 C2343 1.388 . S
C2344 C2345 1.390 1_455 S
C2345 C2344 1.390 1_655 S
C2345 C2346 1.394 . S
C2345 C2351 1.465 . S
C2346 C2341 1.399 1_655 S
C2346 C2345 1.394 . S
C2346 C2347 1.516 . S
C2347 C2346 1.516 . S
C2347 C2348 1.502 . S
C2347 C2349 1.561 . S
C2347 C2350 1.526 . S
C2348 H2332 0.959 . S
C2348 H2333 0.959 . S
C2348 H2334 0.961 . S
C2348 C2347 1.502 . S
C2349 H2335 0.960 . S
C2349 H2336 0.961 . S
C2349 H2337 0.959 . S
C2349 C2347 1.561 . S
C2350 C2347 1.526 . S
C2350 C2351 1.396 . S
C2350 C2355 1.390 . S
C2351 C2345 1.465 . S
C2351 C2350 1.396 . S
C2351 C2352 1.399 . S
C2352 H2338 0.929 . S
C2352 C2351 1.399 . S
C2352 C2353 1.385 . S
C2353 H2339 0.931 . S
C2353 C2352 1.385 . S
C2353 C2354 1.389 . S
C2354 C2353 1.389 . S
C2354 C2355 1.387 . S
C2355 H2340 0.930 . S
C2355 C2350 1.390 . S
C2355 C2354 1.387 . S
H2356 C2368 0.930 . S
H2357 C2370 0.930 . S
H2358 C2371 0.930 . S
H2359 C2375 0.959 . S
H2360 C2375 0.959 . S
H2361 C2375 0.961 . S
H2362 C2376 0.960 . S
H2363 C2376 0.961 . S
H2364 C2376 0.959 . S
H2365 C2379 0.929 . S
H2366 C2380 0.931 . S
H2367 C2382 0.930 . S
C2368 H2356 0.930 . S
C2368 C2369 1.399 . S
C2368 C2373 1.399 . S
C2369 C2368 1.399 . S
C2369 C2370 1.376 . S
C2370 H2357 0.930 . S
C2370 C2369 1.376 . S
C2370 C2371 1.388 . S
C2371 H2358 0.930 . S
C2371 C2370 1.388 . S
C2371 C2372 1.390 . S
C2372 C2371 1.390 . S
C2372 C2373 1.394 . S
C2372 C2378 1.465 . S
C2373 C2368 1.399 . S
C2373 C2372 1.394 . S
C2373 C2374 1.516 . S
C2374 C2373 1.516 . S
C2374 C2375 1.502 . S
C2374 C2376 1.561 . S
C2374 C2377 1.526 . S
C2375 H2359 0.959 . S
C2375 H2360 0.959 . S
C2375 H2361 0.961 . S
C2375 C2374 1.502 . S
C2376 H2362 0.960 . S
C2376 H2363 0.961 . S
C2376 H2364 0.959 . S
C2376 C2374 1.561 . S
C2377 C2374 1.526 . S
C2377 C2378 1.396 . S
C2377 C2382 1.390 . S
C2378 C2372 1.465 . S
C2378 C2377 1.396 . S
C2378 C2379 1.399 . S
C2379 H2365 0.929 . S
C2379 C2378 1.399 . S
C2379 C2380 1.385 . S
C2380 H2366 0.931 . S
C2380 C2379 1.385 . S
C2380 C2381 1.389 . S
C2381 C2380 1.389 . S
C2381 C2382 1.387 . S
C2382 H2367 0.930 . S
C2382 C2377 1.390 . S
C2382 C2381 1.387 . S
H2383 C2395 0.930 . S
H2384 C2397 0.930 . S
H2385 C2398 0.930 . S
H2386 C2402 0.959 . S
H2387 C2402 0.959 1_655 S
H2388 C2402 0.961 . S
H2389 C2403 0.960 . S
H2390 C2403 0.961 . S
H2391 C2403 0.959 . S
H2392 C2406 0.929 . S
H2393 C2407 0.931 . S
H2394 C2409 0.930 . S
C2395 H2383 0.930 . S
C2395 C2396 1.399 . S
C2395 C2400 1.399 . S
C2396 C2395 1.399 . S
C2396 C2397 1.376 . S
C2397 H2384 0.930 . S
C2397 C2396 1.376 . S
C2397 C2398 1.388 . S
C2398 H2385 0.930 . S
C2398 C2397 1.388 . S
C2398 C2399 1.390 . S
C2399 C2398 1.390 . S
C2399 C2400 1.394 . S
C2399 C2405 1.465 1_455 S
C2400 C2395 1.399 . S
C2400 C2399 1.394 . S
C2400 C2401 1.516 1_455 S
C2401 C2400 1.516 1_655 S
C2401 C2402 1.502 1_655 S
C2401 C2403 1.561 . S
C2401 C2404 1.526 . S
C2402 H2386 0.959 . S
C2402 H2387 0.959 1_455 S
C2402 H2388 0.961 . S
C2402 C2401 1.502 1_455 S
C2403 H2389 0.960 . S
C2403 H2390 0.961 . S
C2403 H2391 0.959 . S
C2403 C2401 1.561 . S
C2404 C2401 1.526 . S
C2404 C2405 1.396 . S
C2404 C2409 1.390 . S
C2405 C2399 1.465 1_655 S
C2405 C2404 1.396 . S
C2405 C2406 1.399 . S
C2406 H2392 0.929 . S
C2406 C2405 1.399 . S
C2406 C2407 1.385 . S
C2407 H2393 0.931 . S
C2407 C2406 1.385 . S
C2407 C2408 1.389 . S
C2408 C2407 1.389 . S
C2408 C2409 1.387 . S
C2409 H2394 0.930 . S
C2409 C2404 1.390 . S
C2409 C2408 1.387 . S
H2410 C2422 0.930 . S
H2411 C2424 0.930 . S
H2412 C2425 0.929 1_455 S
H2413 C2429 0.959 . S
H2414 C2429 0.959 . S
H2415 C2429 0.961 . S
H2416 C2430 0.960 . S
H2417 C2430 0.961 . S
H2418 C2430 0.959 . S
H2419 C2433 0.929 . S
H2420 C2434 0.931 . S
H2421 C2436 0.930 . S
C2422 H2410 0.930 . S
C2422 C2423 1.399 . S
C2422 C2427 1.399 . S
C2423 C2422 1.399 . S
C2423 C2424 1.376 . S
C2424 H2411 0.930 . S
C2424 C2423 1.376 . S
C2424 C2425 1.388 . S
C2425 H2412 0.929 1_655 S
C2425 C2424 1.388 . S
C2425 C2426 1.382 1_655 S
C2426 C2425 1.382 1_455 S
C2426 C2427 1.391 1_455 S
C2426 C2432 1.477 . S
C2427 C2422 1.399 . S
C2427 C2426 1.391 1_655 S
C2427 C2428 1.524 . S
C2428 C2427 1.524 . S
C2428 C2429 1.488 1_655 S
C2428 C2430 1.578 . S
C2428 C2431 1.517 1_655 S
C2429 H2413 0.959 . S
C2429 H2414 0.959 . S
C2429 H2415 0.961 . S
C2429 C2428 1.488 1_455 S
C2430 H2416 0.960 . S
C2430 H2417 0.961 . S
C2430 H2418 0.959 . S
C2430 C2428 1.578 . S
C2431 C2428 1.517 1_455 S
C2431 C2432 1.396 . S
C2431 C2436 1.390 . S
C2432 C2426 1.477 . S
C2432 C2431 1.396 . S
C2432 C2433 1.399 . S
C2433 H2419 0.929 . S
C2433 C2432 1.399 . S
C2433 C2434 1.385 . S
C2434 H2420 0.931 . S
C2434 C2433 1.385 . S
C2434 C2435 1.389 . S
C2435 C2434 1.389 . S
C2435 C2436 1.387 . S
C2436 H2421 0.930 . S
C2436 C2431 1.390 . S
C2436 C2435 1.387 . S
H2437 C2449 0.930 . S
H2438 C2451 0.930 . S
H2439 C2452 0.930 . S
H2440 C2456 0.959 . S
H2441 C2456 0.959 . S
H2442 C2456 0.961 . S
H2443 C2457 0.960 . S
H2444 C2457 0.961 . S
H2445 C2457 0.959 . S
H2446 C2460 0.929 . S
H2447 C2461 0.931 . S
H2448 C2463 0.930 . S
C2449 H2437 0.930 . S
C2449 C2450 1.399 . S
C2449 C2454 1.399 . S
C2450 C2449 1.399 . S
C2450 C2451 1.376 . S
C2451 H2438 0.930 . S
C2451 C2450 1.376 . S
C2451 C2452 1.388 . S
C2452 H2439 0.930 . S
C2452 C2451 1.388 . S
C2452 C2453 1.390 . S
C2453 C2452 1.390 . S
C2453 C2454 1.394 . S
C2453 C2459 1.465 . S
C2454 C2449 1.399 . S
C2454 C2453 1.394 . S
C2454 C2455 1.516 . S
C2455 C2454 1.516 . S
C2455 C2456 1.502 . S
C2455 C2457 1.561 . S
C2455 C2458 1.526 . S
C2456 H2440 0.959 . S
C2456 H2441 0.959 . S
C2456 H2442 0.961 . S
C2456 C2455 1.502 . S
C2457 H2443 0.960 . S
C2457 H2444 0.961 . S
C2457 H2445 0.959 . S
C2457 C2455 1.561 . S
C2458 C2455 1.526 . S
C2458 C2459 1.396 . S
C2458 C2463 1.390 . S
C2459 C2453 1.465 . S
C2459 C2458 1.396 . S
C2459 C2460 1.399 . S
C2460 H2446 0.929 . S
C2460 C2459 1.399 . S
C2460 C2461 1.385 . S
C2461 H2447 0.931 . S
C2461 C2460 1.385 . S
C2461 C2462 1.389 . S
C2462 C2461 1.389 . S
C2462 C2463 1.387 . S
C2463 H2448 0.930 . S
C2463 C2458 1.390 . S
C2463 C2462 1.387 . S
H2464 C2476 0.930 . S
H2465 C2478 0.930 . S
H2466 C2479 0.930 . S
H2467 C2483 0.959 . S
H2468 C2483 0.959 . S
H2469 C2483 0.961 . S
H2470 C2484 0.960 . S
H2471 C2484 0.961 . S
H2472 C2484 0.959 . S
H2473 C2487 0.929 . S
H2474 C2488 0.931 . S
H2475 C2490 0.930 . S
C2476 H2464 0.930 . S
C2476 C2477 1.399 . S
C2476 C2481 1.399 . S
C2477 C2476 1.399 . S
C2477 C2478 1.376 . S
C2478 H2465 0.930 . S
C2478 C2477 1.376 . S
C2478 C2479 1.388 . S
C2479 H2466 0.930 . S
C2479 C2478 1.388 . S
C2479 C2480 1.390 . S
C2480 C2479 1.390 . S
C2480 C2481 1.394 . S
C2480 C2486 1.465 . S
C2481 C2476 1.399 . S
C2481 C2480 1.394 . S
C2481 C2482 1.516 . S
C2482 C2481 1.516 . S
C2482 C2483 1.502 . S
C2482 C2484 1.561 . S
C2482 C2485 1.526 . S
C2483 H2467 0.959 . S
C2483 H2468 0.959 . S
C2483 H2469 0.961 . S
C2483 C2482 1.502 . S
C2484 H2470 0.960 . S
C2484 H2471 0.961 . S
C2484 H2472 0.959 . S
C2484 C2482 1.561 . S
C2485 C2482 1.526 . S
C2485 C2486 1.396 . S
C2485 C2490 1.390 . S
C2486 C2480 1.465 . S
C2486 C2485 1.396 . S
C2486 C2487 1.399 . S
C2487 H2473 0.929 . S
C2487 C2486 1.399 . S
C2487 C2488 1.385 . S
C2488 H2474 0.931 . S
C2488 C2487 1.385 . S
C2488 C2489 1.389 . S
C2489 C2488 1.389 . S
C2489 C2490 1.387 . S
C2490 H2475 0.930 . S
C2490 C2485 1.390 . S
C2490 C2489 1.387 . S
H2491 C2503 0.930 . S
H2492 C2505 0.930 . S
H2493 C2506 0.930 . S
H2494 C2510 0.959 . S
H2495 C2510 0.959 . S
H2496 C2510 0.961 . S
H2497 C2511 0.960 . S
H2498 C2511 0.961 . S
H2499 C2511 0.959 . S
H2500 C2514 0.929 . S
H2501 C2515 0.931 . S
H2502 C2517 0.930 . S
C2503 H2491 0.930 . S
C2503 C2504 1.399 . S
C2503 C2508 1.399 . S
C2504 C2503 1.399 . S
C2504 C2505 1.376 . S
C2505 H2492 0.930 . S
C2505 C2504 1.376 . S
C2505 C2506 1.388 . S
C2506 H2493 0.930 . S
C2506 C2505 1.388 . S
C2506 C2507 1.390 . S
C2507 C2506 1.390 . S
C2507 C2508 1.394 . S
C2507 C2513 1.465 . S
C2508 C2503 1.399 . S
C2508 C2507 1.394 . S
C2508 C2509 1.516 . S
C2509 C2508 1.516 . S
C2509 C2510 1.502 . S
C2509 C2511 1.561 . S
C2509 C2512 1.526 . S
C2510 H2494 0.959 . S
C2510 H2495 0.959 . S
C2510 H2496 0.961 . S
C2510 C2509 1.502 . S
C2511 H2497 0.960 . S
C2511 H2498 0.961 . S
C2511 H2499 0.959 . S
C2511 C2509 1.561 . S
C2512 C2509 1.526 . S
C2512 C2513 1.396 . S
C2512 C2517 1.390 . S
C2513 C2507 1.465 . S
C2513 C2512 1.396 . S
C2513 C2514 1.399 . S
C2514 H2500 0.929 . S
C2514 C2513 1.399 . S
C2514 C2515 1.385 . S
C2515 H2501 0.931 . S
C2515 C2514 1.385 . S
C2515 C2516 1.389 . S
C2516 C2515 1.389 . S
C2516 C2517 1.387 . S
C2517 H2502 0.930 . S
C2517 C2512 1.390 . S
C2517 C2516 1.387 . S
H2518 C2530 0.930 . S
H2519 C2532 0.930 . S
H2520 C2533 0.930 . S
H2521 C2537 0.959 . S
H2522 C2537 0.959 . S
H2523 C2537 0.961 . S
H2524 C2538 0.960 . S
H2525 C2538 0.961 . S
H2526 C2538 0.959 . S
H2527 C2541 0.929 . S
H2528 C2542 0.931 . S
H2529 C2544 0.930 . S
C2530 H2518 0.930 . S
C2530 C2531 1.399 . S
C2530 C2535 1.399 . S
C2531 C2530 1.399 . S
C2531 C2532 1.376 . S
C2532 H2519 0.930 . S
C2532 C2531 1.376 . S
C2532 C2533 1.388 . S
C2533 H2520 0.930 . S
C2533 C2532 1.388 . S
C2533 C2534 1.390 . S
C2534 C2533 1.390 . S
C2534 C2535 1.394 . S
C2534 C2540 1.465 . S
C2535 C2530 1.399 . S
C2535 C2534 1.394 . S
C2535 C2536 1.516 . S
C2536 C2535 1.516 . S
C2536 C2537 1.502 . S
C2536 C2538 1.561 . S
C2536 C2539 1.526 . S
C2537 H2521 0.959 . S
C2537 H2522 0.959 . S
C2537 H2523 0.961 . S
C2537 C2536 1.502 . S
C2538 H2524 0.960 . S
C2538 H2525 0.961 . S
C2538 H2526 0.959 . S
C2538 C2536 1.561 . S
C2539 C2536 1.526 . S
C2539 C2540 1.396 . S
C2539 C2544 1.390 . S
C2540 C2534 1.465 . S
C2540 C2539 1.396 . S
C2540 C2541 1.399 . S
C2541 H2527 0.929 . S
C2541 C2540 1.399 . S
C2541 C2542 1.385 . S
C2542 H2528 0.931 . S
C2542 C2541 1.385 . S
C2542 C2543 1.389 . S
C2543 C2542 1.389 . S
C2543 C2544 1.387 . S
C2544 H2529 0.930 . S
C2544 C2539 1.390 . S
C2544 C2543 1.387 . S
H2545 C2557 0.930 . S
H2546 C2559 0.930 . S
H2547 C2560 0.930 . S
H2548 C2564 0.959 . S
H2549 C2564 0.959 . S
H2550 C2564 0.961 . S
H2551 C2565 0.960 . S
H2552 C2565 0.961 . S
H2553 C2565 0.959 . S
H2554 C2568 0.929 . S
H2555 C2569 0.931 . S
H2556 C2571 0.930 . S
C2557 H2545 0.930 . S
C2557 C2558 1.399 . S
C2557 C2562 1.399 . S
C2558 C2557 1.399 . S
C2558 C2559 1.376 . S
C2559 H2546 0.930 . S
C2559 C2558 1.376 . S
C2559 C2560 1.388 . S
C2560 H2547 0.930 . S
C2560 C2559 1.388 . S
C2560 C2561 1.390 . S
C2561 C2560 1.390 . S
C2561 C2562 1.394 . S
C2561 C2567 1.465 . S
C2562 C2557 1.399 . S
C2562 C2561 1.394 . S
C2562 C2563 1.516 . S
C2563 C2562 1.516 . S
C2563 C2564 1.502 . S
C2563 C2565 1.561 . S
C2563 C2566 1.526 . S
C2564 H2548 0.959 . S
C2564 H2549 0.959 . S
C2564 H2550 0.961 . S
C2564 C2563 1.502 . S
C2565 H2551 0.960 . S
C2565 H2552 0.961 . S
C2565 H2553 0.959 . S
C2565 C2563 1.561 . S
C2566 C2563 1.526 . S
C2566 C2567 1.396 . S
C2566 C2571 1.390 . S
C2567 C2561 1.465 . S
C2567 C2566 1.396 . S
C2567 C2568 1.399 . S
C2568 H2554 0.929 . S
C2568 C2567 1.399 . S
C2568 C2569 1.385 . S
C2569 H2555 0.931 . S
C2569 C2568 1.385 . S
C2569 C2570 1.389 . S
C2570 C2569 1.389 . S
C2570 C2571 1.387 . S
C2571 H2556 0.930 . S
C2571 C2566 1.390 . S
C2571 C2570 1.387 . S
H2572 C2584 0.930 . S
H2573 C2586 0.930 . S
H2574 C2587 0.930 . S
H2575 C2591 0.959 . S
H2576 C2591 0.959 . S
H2577 C2591 0.961 . S
H2578 C2592 0.960 . S
H2579 C2592 0.961 . S
H2580 C2592 0.959 . S
H2581 C2595 0.929 . S
H2582 C2596 0.931 . S
H2583 C2598 0.930 . S
C2584 H2572 0.930 . S
C2584 C2585 1.399 . S
C2584 C2589 1.399 . S
C2585 C2584 1.399 . S
C2585 C2586 1.376 . S
C2586 H2573 0.930 . S
C2586 C2585 1.376 . S
C2586 C2587 1.388 . S
C2587 H2574 0.930 . S
C2587 C2586 1.388 . S
C2587 C2588 1.390 . S
C2588 C2587 1.390 . S
C2588 C2589 1.394 . S
C2588 C2594 1.465 . S
C2589 C2584 1.399 . S
C2589 C2588 1.394 . S
C2589 C2590 1.516 . S
C2590 C2589 1.516 . S
C2590 C2591 1.502 . S
C2590 C2592 1.561 . S
C2590 C2593 1.526 . S
C2591 H2575 0.959 . S
C2591 H2576 0.959 . S
C2591 H2577 0.961 . S
C2591 C2590 1.502 . S
C2592 H2578 0.960 . S
C2592 H2579 0.961 . S
C2592 H2580 0.959 . S
C2592 C2590 1.561 . S
C2593 C2590 1.526 . S
C2593 C2594 1.396 . S
C2593 C2598 1.390 . S
C2594 C2588 1.465 . S
C2594 C2593 1.396 . S
C2594 C2595 1.399 . S
C2595 H2581 0.929 . S
C2595 C2594 1.399 . S
C2595 C2596 1.385 . S
C2596 H2582 0.931 . S
C2596 C2595 1.385 . S
C2596 C2597 1.389 . S
C2597 C2596 1.389 . S
C2597 C2598 1.387 . S
C2598 H2583 0.930 . S
C2598 C2593 1.390 . S
C2598 C2597 1.387 . S
H2599 C2611 0.930 . S
H2600 C2613 0.930 . S
H2601 C2614 0.930 . S
H2602 C2618 0.959 . S
H2603 C2618 0.959 . S
H2604 C2618 0.961 . S
H2605 C2619 0.960 . S
H2606 C2619 0.961 . S
H2607 C2619 0.959 . S
H2608 C2622 0.929 . S
H2609 C2623 0.931 . S
H2610 C2625 0.930 . S
C2611 H2599 0.930 . S
C2611 C2612 1.399 . S
C2611 C2616 1.399 . S
C2612 C2611 1.399 . S
C2612 C2613 1.376 . S
C2613 H2600 0.930 . S
C2613 C2612 1.376 . S
C2613 C2614 1.388 . S
C2614 H2601 0.930 . S
C2614 C2613 1.388 . S
C2614 C2615 1.390 . S
C2615 C2614 1.390 . S
C2615 C2616 1.394 . S
C2615 C2621 1.465 . S
C2616 C2611 1.399 . S
C2616 C2615 1.394 . S
C2616 C2617 1.516 . S
C2617 C2616 1.516 . S
C2617 C2618 1.502 . S
C2617 C2619 1.561 . S
C2617 C2620 1.526 . S
C2618 H2602 0.959 . S
C2618 H2603 0.959 . S
C2618 H2604 0.961 . S
C2618 C2617 1.502 . S
C2619 H2605 0.960 . S
C2619 H2606 0.961 . S
C2619 H2607 0.959 . S
C2619 C2617 1.561 . S
C2620 C2617 1.526 . S
C2620 C2621 1.396 . S
C2620 C2625 1.390 . S
C2621 C2615 1.465 . S
C2621 C2620 1.396 . S
C2621 C2622 1.399 . S
C2622 H2608 0.929 . S
C2622 C2621 1.399 . S
C2622 C2623 1.385 . S
C2623 H2609 0.931 . S
C2623 C2622 1.385 . S
C2623 C2624 1.389 . S
C2624 C2623 1.389 . S
C2624 C2625 1.387 . S
C2625 H2610 0.930 . S
C2625 C2620 1.390 . S
C2625 C2624 1.387 . S
H2626 C2638 0.930 . S
H2627 C2640 0.930 . S
H2628 C2641 0.930 . S
H2629 C2645 0.959 . S
H2630 C2645 0.959 . S
H2631 C2645 0.961 . S
H2632 C2646 0.960 . S
H2633 C2646 0.961 . S
H2634 C2646 0.959 . S
H2635 C2649 0.929 . S
H2636 C2650 0.931 . S
H2637 C2652 0.930 . S
C2638 H2626 0.930 . S
C2638 C2639 1.399 . S
C2638 C2643 1.399 . S
C2639 C2638 1.399 . S
C2639 C2640 1.376 . S
C2640 H2627 0.930 . S
C2640 C2639 1.376 . S
C2640 C2641 1.388 . S
C2641 H2628 0.930 . S
C2641 C2640 1.388 . S
C2641 C2642 1.390 . S
C2642 C2641 1.390 . S
C2642 C2643 1.394 . S
C2642 C2648 1.465 . S
C2643 C2638 1.399 . S
C2643 C2642 1.394 . S
C2643 C2644 1.516 . S
C2644 C2643 1.516 . S
C2644 C2645 1.502 . S
C2644 C2646 1.561 . S
C2644 C2647 1.526 . S
C2645 H2629 0.959 . S
C2645 H2630 0.959 . S
C2645 H2631 0.961 . S
C2645 C2644 1.502 . S
C2646 H2632 0.960 . S
C2646 H2633 0.961 . S
C2646 H2634 0.959 . S
C2646 C2644 1.561 . S
C2647 C2644 1.526 . S
C2647 C2648 1.396 . S
C2647 C2652 1.390 . S
C2648 C2642 1.465 . S
C2648 C2647 1.396 . S
C2648 C2649 1.399 . S
C2649 H2635 0.929 . S
C2649 C2648 1.399 . S
C2649 C2650 1.385 . S
C2650 H2636 0.931 . S
C2650 C2649 1.385 . S
C2650 C2651 1.389 . S
C2651 C2650 1.389 . S
C2651 C2652 1.387 . S
C2652 H2637 0.930 . S
C2652 C2647 1.390 . S
C2652 C2651 1.387 . S
H2653 C2665 0.930 . S
H2654 C2667 0.930 . S
H2655 C2668 0.930 . S
H2656 C2672 0.959 . S
H2657 C2672 0.959 . S
H2658 C2672 0.961 . S
H2659 C2673 0.960 . S
H2660 C2673 0.961 . S
H2661 C2673 0.959 . S
H2662 C2676 0.929 . S
H2663 C2677 0.931 . S
H2664 C2679 0.930 . S
C2665 H2653 0.930 . S
C2665 C2666 1.399 . S
C2665 C2670 1.399 . S
C2666 C2665 1.399 . S
C2666 C2667 1.376 . S
C2667 H2654 0.930 . S
C2667 C2666 1.376 . S
C2667 C2668 1.388 . S
C2668 H2655 0.930 . S
C2668 C2667 1.388 . S
C2668 C2669 1.390 . S
C2669 C2668 1.390 . S
C2669 C2670 1.394 . S
C2669 C2675 1.465 . S
C2670 C2665 1.399 . S
C2670 C2669 1.394 . S
C2670 C2671 1.516 . S
C2671 C2670 1.516 . S
C2671 C2672 1.502 . S
C2671 C2673 1.561 . S
C2671 C2674 1.526 . S
C2672 H2656 0.959 . S
C2672 H2657 0.959 . S
C2672 H2658 0.961 . S
C2672 C2671 1.502 . S
C2673 H2659 0.960 . S
C2673 H2660 0.961 . S
C2673 H2661 0.959 . S
C2673 C2671 1.561 . S
C2674 C2671 1.526 . S
C2674 C2675 1.396 . S
C2674 C2679 1.390 . S
C2675 C2669 1.465 . S
C2675 C2674 1.396 . S
C2675 C2676 1.399 . S
C2676 H2662 0.929 . S
C2676 C2675 1.399 . S
C2676 C2677 1.385 . S
C2677 H2663 0.931 . S
C2677 C2676 1.385 . S
C2677 C2678 1.389 . S
C2678 C2677 1.389 . S
C2678 C2679 1.387 . S
C2679 H2664 0.930 . S
C2679 C2674 1.390 . S
C2679 C2678 1.387 . S
H2680 C2692 0.930 . S
H2681 C2694 0.930 . S
H2682 C2695 0.930 . S
H2683 C2699 0.959 . S
H2684 C2699 0.959 . S
H2685 C2699 0.961 . S
H2686 C2700 0.960 . S
H2687 C2700 0.961 . S
H2688 C2700 0.959 . S
H2689 C2703 0.929 . S
H2690 C2704 0.931 . S
H2691 C2706 0.930 . S
C2692 H2680 0.930 . S
C2692 C2693 1.399 . S
C2692 C2697 1.399 . S
C2693 C2692 1.399 . S
C2693 C2694 1.376 . S
C2694 H2681 0.930 . S
C2694 C2693 1.376 . S
C2694 C2695 1.388 . S
C2695 H2682 0.930 . S
C2695 C2694 1.388 . S
C2695 C2696 1.390 . S
C2696 C2695 1.390 . S
C2696 C2697 1.394 . S
C2696 C2702 1.465 . S
C2697 C2692 1.399 . S
C2697 C2696 1.394 . S
C2697 C2698 1.516 . S
C2698 C2697 1.516 . S
C2698 C2699 1.502 . S
C2698 C2700 1.561 . S
C2698 C2701 1.526 . S
C2699 H2683 0.959 . S
C2699 H2684 0.959 . S
C2699 H2685 0.961 . S
C2699 C2698 1.502 . S
C2700 H2686 0.960 . S
C2700 H2687 0.961 . S
C2700 H2688 0.959 . S
C2700 C2698 1.561 . S
C2701 C2698 1.526 . S
C2701 C2702 1.396 . S
C2701 C2706 1.390 . S
C2702 C2696 1.465 . S
C2702 C2701 1.396 . S
C2702 C2703 1.399 . S
C2703 H2689 0.929 . S
C2703 C2702 1.399 . S
C2703 C2704 1.385 . S
C2704 H2690 0.931 . S
C2704 C2703 1.385 . S
C2704 C2705 1.389 . S
C2705 C2704 1.389 . S
C2705 C2706 1.387 . S
C2706 H2691 0.930 . S
C2706 C2701 1.390 . S
C2706 C2705 1.387 . S
H2707 C2719 0.930 . S
H2708 C2721 0.930 . S
H2709 C2722 0.930 . S
H2710 C2726 0.959 . S
H2711 C2726 0.959 . S
H2712 C2726 0.961 . S
H2713 C2727 0.960 . S
H2714 C2727 0.961 . S
H2715 C2727 0.959 . S
H2716 C2730 0.929 . S
H2717 C2731 0.931 . S
H2718 C2733 0.930 . S
C2719 H2707 0.930 . S
C2719 C2720 1.399 . S
C2719 C2724 1.399 . S
C2720 C2719 1.399 . S
C2720 C2721 1.376 . S
C2721 H2708 0.930 . S
C2721 C2720 1.376 . S
C2721 C2722 1.388 . S
C2722 H2709 0.930 . S
C2722 C2721 1.388 . S
C2722 C2723 1.390 . S
C2723 C2722 1.390 . S
C2723 C2724 1.394 . S
C2723 C2729 1.465 . S
C2724 C2719 1.399 . S
C2724 C2723 1.394 . S
C2724 C2725 1.516 . S
C2725 C2724 1.516 . S
C2725 C2726 1.502 . S
C2725 C2727 1.561 . S
C2725 C2728 1.526 . S
C2726 H2710 0.959 . S
C2726 H2711 0.959 . S
C2726 H2712 0.961 . S
C2726 C2725 1.502 . S
C2727 H2713 0.960 . S
C2727 H2714 0.961 . S
C2727 H2715 0.959 . S
C2727 C2725 1.561 . S
C2728 C2725 1.526 . S
C2728 C2729 1.396 . S
C2728 C2733 1.390 . S
C2729 C2723 1.465 . S
C2729 C2728 1.396 . S
C2729 C2730 1.399 . S
C2730 H2716 0.929 . S
C2730 C2729 1.399 . S
C2730 C2731 1.385 . S
C2731 H2717 0.931 . S
C2731 C2730 1.385 . S
C2731 C2732 1.389 . S
C2732 C2731 1.389 . S
C2732 C2733 1.387 . S
C2733 H2718 0.930 . S
C2733 C2728 1.390 . S
C2733 C2732 1.387 . S
H2734 C2746 0.930 . S
H2735 C2748 0.930 . S
H2736 C2749 0.930 . S
H2737 C2753 0.959 . S
H2738 C2753 0.959 . S
H2739 C2753 0.961 . S
H2740 C2754 0.960 . S
H2741 C2754 0.961 . S
H2742 C2754 0.959 . S
H2743 C2757 0.929 . S
H2744 C2758 0.931 . S
H2745 C2760 0.930 . S
C2746 H2734 0.930 . S
C2746 C2747 1.399 . S
C2746 C2751 1.399 . S
C2747 C2746 1.399 . S
C2747 C2748 1.376 . S
C2748 H2735 0.930 . S
C2748 C2747 1.376 . S
C2748 C2749 1.388 . S
C2749 H2736 0.930 . S
C2749 C2748 1.388 . S
C2749 C2750 1.390 . S
C2750 C2749 1.390 . S
C2750 C2751 1.394 . S
C2750 C2756 1.465 . S
C2751 C2746 1.399 . S
C2751 C2750 1.394 . S
C2751 C2752 1.516 . S
C2752 C2751 1.516 . S
C2752 C2753 1.502 . S
C2752 C2754 1.561 . S
C2752 C2755 1.526 . S
C2753 H2737 0.959 . S
C2753 H2738 0.959 . S
C2753 H2739 0.961 . S
C2753 C2752 1.502 . S
C2754 H2740 0.960 . S
C2754 H2741 0.961 . S
C2754 H2742 0.959 . S
C2754 C2752 1.561 . S
C2755 C2752 1.526 . S
C2755 C2756 1.396 . S
C2755 C2760 1.390 . S
C2756 C2750 1.465 . S
C2756 C2755 1.396 . S
C2756 C2757 1.399 . S
C2757 H2743 0.929 . S
C2757 C2756 1.399 . S
C2757 C2758 1.385 . S
C2758 H2744 0.931 . S
C2758 C2757 1.385 . S
C2758 C2759 1.389 . S
C2759 C2758 1.389 . S
C2759 C2760 1.387 . S
C2760 H2745 0.930 . S
C2760 C2755 1.390 . S
C2760 C2759 1.387 . S
H2761 C2773 0.930 . S
H2762 C2775 0.930 . S
H2763 C2776 0.930 . S
H2764 C2780 0.959 . S
H2765 C2780 0.959 . S
H2766 C2780 0.961 . S
H2767 C2781 0.960 . S
H2768 C2781 0.961 . S
H2769 C2781 0.959 1_545 S
H2770 C2784 0.929 . S
H2771 C2785 0.931 . S
H2772 C2787 0.930 . S
C2773 H2761 0.930 . S
C2773 C2774 1.399 1_556 S
C2773 C2778 1.399 . S
C2774 C2773 1.399 1_554 S
C2774 C2775 1.376 . S
C2775 H2762 0.930 . S
C2775 C2774 1.376 . S
C2775 C2776 1.388 . S
C2776 H2763 0.930 . S
C2776 C2775 1.388 . S
C2776 C2777 1.390 . S
C2777 C2776 1.390 . S
C2777 C2778 1.394 1_554 S
C2777 C2783 1.465 1_565 S
C2778 C2773 1.399 . S
C2778 C2777 1.394 1_556 S
C2778 C2779 1.516 . S
C2779 C2778 1.516 . S
C2779 C2780 1.502 . S
C2779 C2781 1.561 . S
C2779 C2782 1.527 . S
C2780 H2764 0.959 . S
C2780 H2765 0.959 . S
C2780 H2766 0.961 . S
C2780 C2779 1.502 . S
C2781 H2767 0.960 . S
C2781 H2768 0.961 . S
C2781 H2769 0.959 1_565 S
C2781 C2779 1.561 . S
C2782 C2779 1.527 . S
C2782 C2783 1.396 1_566 S
C2782 C2787 1.389 1_565 S
C2783 C2777 1.465 1_545 S
C2783 C2782 1.396 1_544 S
C2783 C2784 1.399 . S
C2784 H2770 0.929 . S
C2784 C2783 1.399 . S
C2784 C2785 1.385 . S
C2785 H2771 0.931 . S
C2785 C2784 1.385 . S
C2785 C2786 1.389 . S
C2786 C2785 1.389 . S
C2786 C2787 1.387 1_554 S
C2787 H2772 0.930 . S
C2787 C2782 1.389 1_545 S
C2787 C2786 1.387 1_556 S
H2788 C2800 0.930 . S
H2789 C2802 0.930 . S
H2790 C2803 0.930 . S
H2791 C2807 0.959 . S
H2792 C2807 0.959 . S
H2793 C2807 0.961 . S
H2794 C2808 0.960 . S
H2795 C2808 0.961 . S
H2796 C2808 0.959 . S
H2797 C2811 0.929 . S
H2798 C2812 0.931 . S
H2799 C2814 0.930 . S
C2800 H2788 0.930 . S
C2800 C2801 1.399 . S
C2800 C2805 1.399 . S
C2801 C2800 1.399 . S
C2801 C2802 1.376 . S
C2802 H2789 0.930 . S
C2802 C2801 1.376 . S
C2802 C2803 1.388 . S
C2803 H2790 0.930 . S
C2803 C2802 1.388 . S
C2803 C2804 1.390 . S
C2804 C2803 1.390 . S
C2804 C2805 1.394 . S
C2804 C2810 1.465 . S
C2805 C2800 1.399 . S
C2805 C2804 1.394 . S
C2805 C2806 1.516 . S
C2806 C2805 1.516 . S
C2806 C2807 1.502 . S
C2806 C2808 1.561 . S
C2806 C2809 1.526 . S
C2807 H2791 0.959 . S
C2807 H2792 0.959 . S
C2807 H2793 0.961 . S
C2807 C2806 1.502 . S
C2808 H2794 0.960 . S
C2808 H2795 0.961 . S
C2808 H2796 0.959 . S
C2808 C2806 1.561 . S
C2809 C2806 1.526 . S
C2809 C2810 1.396 . S
C2809 C2814 1.390 . S
C2810 C2804 1.465 . S
C2810 C2809 1.396 . S
C2810 C2811 1.399 . S
C2811 H2797 0.929 . S
C2811 C2810 1.399 . S
C2811 C2812 1.385 . S
C2812 H2798 0.931 . S
C2812 C2811 1.385 . S
C2812 C2813 1.389 . S
C2813 C2812 1.389 . S
C2813 C2814 1.387 . S
C2814 H2799 0.930 . S
C2814 C2809 1.390 . S
C2814 C2813 1.387 . S
H2815 C2827 0.930 . S
H2816 C2829 0.930 . S
H2817 C2830 0.930 . S
H2818 C2834 0.959 . S
H2819 C2834 0.959 . S
H2820 C2834 0.961 . S
H2821 C2835 0.960 . S
H2822 C2835 0.961 . S
H2823 C2835 0.978 . S
H2824 C2838 0.929 . S
H2825 C2839 0.931 . S
H2826 C2841 0.930 . S
C2827 H2815 0.930 . S
C2827 C2828 1.399 . S
C2827 C2832 1.399 . S
C2828 C2827 1.399 . S
C2828 C2829 1.376 . S
C2829 H2816 0.930 . S
C2829 C2828 1.376 . S
C2829 C2830 1.388 . S
C2830 H2817 0.930 . S
C2830 C2829 1.388 . S
C2830 C2831 1.390 . S
C2831 C2830 1.390 . S
C2831 C2832 1.394 . S
C2831 C2837 1.465 . S
C2832 C2827 1.399 . S
C2832 C2831 1.394 . S
C2832 C2833 1.516 . S
C2833 C2832 1.516 . S
C2833 C2834 1.502 . S
C2833 C2835 1.561 . S
C2833 C2836 1.526 . S
C2834 H2818 0.959 . S
C2834 H2819 0.959 . S
C2834 H2820 0.961 . S
C2834 C2833 1.502 . S
C2835 H2821 0.960 . S
C2835 H2822 0.961 . S
C2835 H2823 0.978 . S
C2835 C2833 1.561 . S
C2836 C2833 1.526 . S
C2836 C2837 1.396 . S
C2836 C2841 1.390 . S
C2837 C2831 1.465 . S
C2837 C2836 1.396 . S
C2837 C2838 1.399 . S
C2838 H2824 0.929 . S
C2838 C2837 1.399 . S
C2838 C2839 1.385 . S
C2839 H2825 0.931 . S
C2839 C2838 1.385 . S
C2839 C2840 1.389 . S
C2840 C2839 1.389 . S
C2840 C2841 1.387 . S
C2841 H2826 0.930 . S
C2841 C2836 1.390 . S
C2841 C2840 1.387 . S
H2842 C2854 0.930 . S
H2843 C2856 0.930 . S
H2844 C2857 0.930 . S
H2845 C2861 0.959 . S
H2846 C2861 0.959 . S
H2847 C2861 0.961 . S
H2848 C2862 0.960 . S
H2849 C2862 0.961 . S
H2850 C2862 0.959 . S
H2851 C2865 0.929 . S
H2852 C2866 0.931 . S
H2853 C2868 0.930 . S
C2854 H2842 0.930 . S
C2854 C2855 1.399 . S
C2854 C2859 1.399 . S
C2855 C2854 1.399 . S
C2855 C2856 1.376 . S
C2856 H2843 0.930 . S
C2856 C2855 1.376 . S
C2856 C2857 1.388 . S
C2857 H2844 0.930 . S
C2857 C2856 1.388 . S
C2857 C2858 1.390 . S
C2858 C2857 1.390 . S
C2858 C2859 1.394 . S
C2858 C2864 1.465 . S
C2859 C2854 1.399 . S
C2859 C2858 1.394 . S
C2859 C2860 1.516 . S
C2860 C2859 1.516 . S
C2860 C2861 1.502 . S
C2860 C2862 1.561 . S
C2860 C2863 1.526 . S
C2861 H2845 0.959 . S
C2861 H2846 0.959 . S
C2861 H2847 0.961 . S
C2861 C2860 1.502 . S
C2862 H2848 0.960 . S
C2862 H2849 0.961 . S
C2862 H2850 0.959 . S
C2862 C2860 1.561 . S
C2863 C2860 1.526 . S
C2863 C2864 1.396 . S
C2863 C2868 1.390 . S
C2864 C2858 1.465 . S
C2864 C2863 1.396 . S
C2864 C2865 1.399 . S
C2865 H2851 0.929 . S
C2865 C2864 1.399 . S
C2865 C2866 1.385 . S
C2866 H2852 0.931 . S
C2866 C2865 1.385 . S
C2866 C2867 1.389 . S
C2867 C2866 1.389 . S
C2867 C2868 1.387 . S
C2868 H2853 0.930 . S
C2868 C2863 1.390 . S
C2868 C2867 1.387 . S
H2869 C2881 0.930 . S
H2870 C2883 0.930 . S
H2871 C2884 0.930 . S
H2872 C2888 0.959 . S
H2873 C2888 0.959 . S
H2874 C2888 0.961 . S
H2875 C2889 0.960 . S
H2876 C2889 0.961 . S
H2877 C2889 0.959 . S
H2878 C2892 0.929 . S
H2879 C2893 0.931 . S
H2880 C2895 0.930 . S
C2881 H2869 0.930 . S
C2881 C2882 1.399 . S
C2881 C2886 1.399 . S
C2882 C2881 1.399 . S
C2882 C2883 1.376 . S
C2883 H2870 0.930 . S
C2883 C2882 1.376 . S
C2883 C2884 1.388 . S
C2884 H2871 0.930 . S
C2884 C2883 1.388 . S
C2884 C2885 1.390 . S
C2885 C2884 1.390 . S
C2885 C2886 1.394 . S
C2885 C2891 1.465 . S
C2886 C2881 1.399 . S
C2886 C2885 1.394 . S
C2886 C2887 1.516 . S
C2887 C2886 1.516 . S
C2887 C2888 1.502 . S
C2887 C2889 1.561 . S
C2887 C2890 1.526 . S
C2888 H2872 0.959 . S
C2888 H2873 0.959 . S
C2888 H2874 0.961 . S
C2888 C2887 1.502 . S
C2889 H2875 0.960 . S
C2889 H2876 0.961 . S
C2889 H2877 0.959 . S
C2889 C2887 1.561 . S
C2890 C2887 1.526 . S
C2890 C2891 1.396 . S
C2890 C2895 1.390 . S
C2891 C2885 1.465 . S
C2891 C2890 1.396 . S
C2891 C2892 1.399 . S
C2892 H2878 0.929 . S
C2892 C2891 1.399 . S
C2892 C2893 1.385 . S
C2893 H2879 0.931 . S
C2893 C2892 1.385 . S
C2893 C2894 1.389 . S
C2894 C2893 1.389 . S
C2894 C2895 1.387 . S
C2895 H2880 0.930 . S
C2895 C2890 1.390 . S
C2895 C2894 1.387 . S
H2896 C2908 0.930 . S
H2897 C2910 0.930 . S
H2898 C2911 0.930 . S
H2899 C2915 0.959 . S
H2900 C2915 0.959 . S
H2901 C2915 0.961 . S
H2902 C2916 0.960 . S
H2903 C2916 0.961 . S
H2904 C2916 0.959 . S
H2905 C2919 0.929 . S
H2906 C2920 0.931 . S
H2907 C2922 0.930 . S
C2908 H2896 0.930 . S
C2908 C2909 1.399 . S
C2908 C2913 1.399 . S
C2909 C2908 1.399 . S
C2909 C2910 1.376 . S
C2910 H2897 0.930 . S
C2910 C2909 1.376 . S
C2910 C2911 1.388 . S
C2911 H2898 0.930 . S
C2911 C2910 1.388 . S
C2911 C2912 1.390 . S
C2912 C2911 1.390 . S
C2912 C2913 1.394 . S
C2912 C2918 1.465 . S
C2913 C2908 1.399 . S
C2913 C2912 1.394 . S
C2913 C2914 1.516 . S
C2914 C2913 1.516 . S
C2914 C2915 1.502 . S
C2914 C2916 1.561 . S
C2914 C2917 1.526 . S
C2915 H2899 0.959 . S
C2915 H2900 0.959 . S
C2915 H2901 0.961 . S
C2915 C2914 1.502 . S
C2916 H2902 0.960 . S
C2916 H2903 0.961 . S
C2916 H2904 0.959 . S
C2916 C2914 1.561 . S
C2917 C2914 1.526 . S
C2917 C2918 1.396 . S
C2917 C2922 1.390 . S
C2918 C2912 1.465 . S
C2918 C2917 1.396 . S
C2918 C2919 1.399 . S
C2919 H2905 0.929 . S
C2919 C2918 1.399 . S
C2919 C2920 1.385 . S
C2920 H2906 0.931 . S
C2920 C2919 1.385 . S
C2920 C2921 1.389 . S
C2921 C2920 1.389 . S
C2921 C2922 1.387 . S
C2922 H2907 0.930 . S
C2922 C2917 1.390 . S
C2922 C2921 1.387 . S
H2923 C2935 0.930 . S
H2924 C2937 0.930 . S
H2925 C2938 0.930 . S
H2926 C2942 0.959 . S
H2927 C2942 0.959 . S
H2928 C2942 0.961 . S
H2929 C2943 0.960 . S
H2930 C2943 0.961 . S
H2931 C2943 0.959 . S
H2932 C2946 0.929 . S
H2933 C2947 0.931 . S
H2934 C2949 0.930 . S
C2935 H2923 0.930 . S
C2935 C2936 1.399 . S
C2935 C2940 1.399 . S
C2936 C2935 1.399 . S
C2936 C2937 1.376 . S
C2937 H2924 0.930 . S
C2937 C2936 1.376 . S
C2937 C2938 1.388 . S
C2938 H2925 0.930 . S
C2938 C2937 1.388 . S
C2938 C2939 1.390 . S
C2939 C2938 1.390 . S
C2939 C2940 1.394 . S
C2939 C2945 1.465 . S
C2940 C2935 1.399 . S
C2940 C2939 1.394 . S
C2940 C2941 1.516 . S
C2941 C2940 1.516 . S
C2941 C2942 1.502 . S
C2941 C2943 1.561 . S
C2941 C2944 1.526 . S
C2942 H2926 0.959 . S
C2942 H2927 0.959 . S
C2942 H2928 0.961 . S
C2942 C2941 1.502 . S
C2943 H2929 0.960 . S
C2943 H2930 0.961 . S
C2943 H2931 0.959 . S
C2943 C2941 1.561 . S
C2944 C2941 1.526 . S
C2944 C2945 1.396 . S
C2944 C2949 1.390 . S
C2945 C2939 1.465 . S
C2945 C2944 1.396 . S
C2945 C2946 1.399 . S
C2946 H2932 0.929 . S
C2946 C2945 1.399 . S
C2946 C2947 1.385 . S
C2947 H2933 0.931 . S
C2947 C2946 1.385 . S
C2947 C2948 1.389 . S
C2948 C2947 1.389 . S
C2948 C2949 1.387 . S
C2949 H2934 0.930 . S
C2949 C2944 1.390 . S
C2949 C2948 1.387 . S
H2950 C2962 0.930 . S
H2951 C2964 0.930 . S
H2952 C2965 0.930 . S
H2953 C2969 0.959 . S
H2954 C2969 0.959 . S
H2955 C2969 0.961 . S
H2956 C2970 0.960 . S
H2957 C2970 0.961 . S
H2958 C2970 0.959 . S
H2959 C2973 0.929 . S
H2960 C2974 0.931 . S
H2961 C2976 0.930 . S
C2962 H2950 0.930 . S
C2962 C2963 1.399 . S
C2962 C2967 1.399 . S
C2963 C2962 1.399 . S
C2963 C2964 1.376 . S
C2964 H2951 0.930 . S
C2964 C2963 1.376 . S
C2964 C2965 1.388 . S
C2965 H2952 0.930 . S
C2965 C2964 1.388 . S
C2965 C2966 1.390 . S
C2966 C2965 1.390 . S
C2966 C2967 1.394 . S
C2966 C2972 1.465 . S
C2967 C2962 1.399 . S
C2967 C2966 1.394 . S
C2967 C2968 1.516 . S
C2968 C2967 1.516 . S
C2968 C2969 1.502 . S
C2968 C2970 1.561 . S
C2968 C2971 1.526 . S
C2969 H2953 0.959 . S
C2969 H2954 0.959 . S
C2969 H2955 0.961 . S
C2969 C2968 1.502 . S
C2970 H2956 0.960 . S
C2970 H2957 0.961 . S
C2970 H2958 0.959 . S
C2970 C2968 1.561 . S
C2971 C2968 1.526 . S
C2971 C2972 1.396 . S
C2971 C2976 1.390 . S
C2972 C2966 1.465 . S
C2972 C2971 1.396 . S
C2972 C2973 1.399 . S
C2973 H2959 0.929 . S
C2973 C2972 1.399 . S
C2973 C2974 1.385 . S
C2974 H2960 0.931 . S
C2974 C2973 1.385 . S
C2974 C2975 1.389 . S
C2975 C2974 1.389 . S
C2975 C2976 1.387 . S
C2976 H2961 0.930 . S
C2976 C2971 1.390 . S
C2976 C2975 1.387 . S
H2977 C2989 0.930 . S
H2978 C2991 0.930 . S
H2979 C2992 0.930 . S
H2980 C2996 0.959 . S
H2981 C2996 0.959 . S
H2982 C2996 0.961 . S
H2983 C2997 0.960 . S
H2984 C2997 0.961 . S
H2985 C2997 0.959 . S
H2986 C3000 0.929 . S
H2987 C3001 0.931 . S
H2988 C3003 0.930 . S
C2989 H2977 0.930 . S
C2989 C2990 1.399 . S
C2989 C2994 1.399 . S
C2990 C2989 1.399 . S
C2990 C2991 1.376 . S
C2991 H2978 0.930 . S
C2991 C2990 1.376 . S
C2991 C2992 1.388 . S
C2992 H2979 0.930 . S
C2992 C2991 1.388 . S
C2992 C2993 1.390 . S
C2993 C2992 1.390 . S
C2993 C2994 1.394 . S
C2993 C2999 1.465 . S
C2994 C2989 1.399 . S
C2994 C2993 1.394 . S
C2994 C2995 1.516 . S
C2995 C2994 1.516 . S
C2995 C2996 1.502 . S
C2995 C2997 1.561 . S
C2995 C2998 1.526 . S
C2996 H2980 0.959 . S
C2996 H2981 0.959 . S
C2996 H2982 0.961 . S
C2996 C2995 1.502 . S
C2997 H2983 0.960 . S
C2997 H2984 0.961 . S
C2997 H2985 0.959 . S
C2997 C2995 1.561 . S
C2998 C2995 1.526 . S
C2998 C2999 1.396 . S
C2998 C3003 1.390 . S
C2999 C2993 1.465 . S
C2999 C2998 1.396 . S
C2999 C3000 1.399 . S
C3000 H2986 0.929 . S
C3000 C2999 1.399 . S
C3000 C3001 1.385 . S
C3001 H2987 0.931 . S
C3001 C3000 1.385 . S
C3001 C3002 1.389 . S
C3002 C3001 1.389 . S
C3002 C3003 1.387 . S
C3003 H2988 0.930 . S
C3003 C2998 1.390 . S
C3003 C3002 1.387 . S
H3004 C3016 0.930 . S
H3005 C3018 0.930 . S
H3006 C3019 0.930 . S
H3007 C3023 0.959 . S
H3008 C3023 0.959 . S
H3009 C3023 0.961 . S
H3010 C3024 0.960 . S
H3011 C3024 0.961 . S
H3012 C3024 0.959 . S
H3013 C3027 0.929 . S
H3014 C3028 0.931 . S
H3015 C3030 0.930 . S
C3016 H3004 0.930 . S
C3016 C3017 1.399 . S
C3016 C3021 1.399 . S
C3017 C3016 1.399 . S
C3017 C3018 1.376 . S
C3018 H3005 0.930 . S
C3018 C3017 1.376 . S
C3018 C3019 1.388 . S
C3019 H3006 0.930 . S
C3019 C3018 1.388 . S
C3019 C3020 1.390 . S
C3020 C3019 1.390 . S
C3020 C3021 1.394 . S
C3020 C3026 1.465 . S
C3021 C3016 1.399 . S
C3021 C3020 1.394 . S
C3021 C3022 1.516 . S
C3022 C3021 1.516 . S
C3022 C3023 1.502 . S
C3022 C3024 1.561 . S
C3022 C3025 1.526 . S
C3023 H3007 0.959 . S
C3023 H3008 0.959 . S
C3023 H3009 0.961 . S
C3023 C3022 1.502 . S
C3024 H3010 0.960 . S
C3024 H3011 0.961 . S
C3024 H3012 0.959 . S
C3024 C3022 1.561 . S
C3025 C3022 1.526 . S
C3025 C3026 1.396 . S
C3025 C3030 1.390 . S
C3026 C3020 1.465 . S
C3026 C3025 1.396 . S
C3026 C3027 1.399 . S
C3027 H3013 0.929 . S
C3027 C3026 1.399 . S
C3027 C3028 1.385 . S
C3028 H3014 0.931 . S
C3028 C3027 1.385 . S
C3028 C3029 1.389 . S
C3029 C3028 1.389 . S
C3029 C3030 1.387 . S
C3030 H3015 0.930 . S
C3030 C3025 1.390 . S
C3030 C3029 1.387 . S
H3031 C3043 0.930 . S
H3032 C3045 0.930 . S
H3033 C3046 0.930 . S
H3034 C3050 0.959 . S
H3035 C3050 0.959 . S
H3036 C3050 0.961 . S
H3037 C3051 0.960 . S
H3038 C3051 0.961 . S
H3039 C3051 0.959 . S
H3040 C3054 0.929 . S
H3041 C3055 0.931 . S
H3042 C3057 0.930 . S
C3043 H3031 0.930 . S
C3043 C3044 1.399 . S
C3043 C3048 1.399 . S
C3044 C3043 1.399 . S
C3044 C3045 1.376 . S
C3045 H3032 0.930 . S
C3045 C3044 1.376 . S
C3045 C3046 1.388 . S
C3046 H3033 0.930 . S
C3046 C3045 1.388 . S
C3046 C3047 1.390 . S
C3047 C3046 1.390 . S
C3047 C3048 1.394 . S
C3047 C3053 1.465 . S
C3048 C3043 1.399 . S
C3048 C3047 1.394 . S
C3048 C3049 1.516 . S
C3049 C3048 1.516 . S
C3049 C3050 1.502 . S
C3049 C3051 1.561 . S
C3049 C3052 1.526 . S
C3050 H3034 0.959 . S
C3050 H3035 0.959 . S
C3050 H3036 0.961 . S
C3050 C3049 1.502 . S
C3051 H3037 0.960 . S
C3051 H3038 0.961 . S
C3051 H3039 0.959 . S
C3051 C3049 1.561 . S
C3052 C3049 1.526 . S
C3052 C3053 1.396 . S
C3052 C3057 1.390 . S
C3053 C3047 1.465 . S
C3053 C3052 1.396 . S
C3053 C3054 1.399 . S
C3054 H3040 0.929 . S
C3054 C3053 1.399 . S
C3054 C3055 1.385 . S
C3055 H3041 0.931 . S
C3055 C3054 1.385 . S
C3055 C3056 1.389 . S
C3056 C3055 1.389 . S
C3056 C3057 1.387 . S
C3057 H3042 0.930 . S
C3057 C3052 1.390 . S
C3057 C3056 1.387 . S
H3058 C3070 0.930 . S
H3059 C3072 0.930 . S
H3060 C3073 0.930 . S
H3061 C3077 0.959 . S
H3062 C3077 0.959 . S
H3063 C3077 0.961 . S
H3064 C3078 0.960 . S
H3065 C3078 0.961 . S
H3066 C3078 0.959 . S
H3067 C3081 0.929 . S
H3068 C3082 0.931 . S
H3069 C3084 0.930 . S
C3070 H3058 0.930 . S
C3070 C3071 1.399 . S
C3070 C3075 1.399 . S
C3071 C3070 1.399 . S
C3071 C3072 1.376 . S
C3072 H3059 0.930 . S
C3072 C3071 1.376 . S
C3072 C3073 1.388 . S
C3073 H3060 0.930 . S
C3073 C3072 1.388 . S
C3073 C3074 1.390 . S
C3074 C3073 1.390 . S
C3074 C3075 1.394 . S
C3074 C3080 1.465 . S
C3075 C3070 1.399 . S
C3075 C3074 1.394 . S
C3075 C3076 1.516 . S
C3076 C3075 1.516 . S
C3076 C3077 1.502 . S
C3076 C3078 1.561 . S
C3076 C3079 1.526 . S
C3077 H3061 0.959 . S
C3077 H3062 0.959 . S
C3077 H3063 0.961 . S
C3077 C3076 1.502 . S
C3078 H3064 0.960 . S
C3078 H3065 0.961 . S
C3078 H3066 0.959 . S
C3078 C3076 1.561 . S
C3079 C3076 1.526 . S
C3079 C3080 1.396 . S
C3079 C3084 1.390 . S
C3080 C3074 1.465 . S
C3080 C3079 1.396 . S
C3080 C3081 1.399 . S
C3081 H3067 0.929 . S
C3081 C3080 1.399 . S
C3081 C3082 1.385 . S
C3082 H3068 0.931 . S
C3082 C3081 1.385 . S
C3082 C3083 1.389 . S
C3083 C3082 1.389 . S
C3083 C3084 1.387 . S
C3084 H3069 0.930 . S
C3084 C3079 1.390 . S
C3084 C3083 1.387 . S
H3085 C3097 0.930 . S
H3086 C3099 0.930 . S
H3087 C3100 0.930 . S
H3088 C3104 0.959 . S
H3089 C3104 0.959 . S
H3090 C3104 0.961 . S
H3091 C3105 0.960 . S
H3092 C3105 0.961 . S
H3093 C3105 0.959 . S
H3094 C3108 0.929 . S
H3095 C3109 0.931 . S
H3096 C3111 0.930 . S
C3097 H3085 0.930 . S
C3097 C3098 1.399 . S
C3097 C3102 1.399 . S
C3098 C3097 1.399 . S
C3098 C3099 1.376 . S
C3099 H3086 0.930 . S
C3099 C3098 1.376 . S
C3099 C3100 1.388 . S
C3100 H3087 0.930 . S
C3100 C3099 1.388 . S
C3100 C3101 1.390 . S
C3101 C3100 1.390 . S
C3101 C3102 1.394 . S
C3101 C3107 1.465 . S
C3102 C3097 1.399 . S
C3102 C3101 1.394 . S
C3102 C3103 1.516 . S
C3103 C3102 1.516 . S
C3103 C3104 1.502 . S
C3103 C3105 1.561 . S
C3103 C3106 1.526 . S
C3104 H3088 0.959 . S
C3104 H3089 0.959 . S
C3104 H3090 0.961 . S
C3104 C3103 1.502 . S
C3105 H3091 0.960 . S
C3105 H3092 0.961 . S
C3105 H3093 0.959 . S
C3105 C3103 1.561 . S
C3106 C3103 1.526 . S
C3106 C3107 1.396 . S
C3106 C3111 1.390 . S
C3107 C3101 1.465 . S
C3107 C3106 1.396 . S
C3107 C3108 1.399 . S
C3108 H3094 0.929 . S
C3108 C3107 1.399 . S
C3108 C3109 1.385 . S
C3109 H3095 0.931 . S
C3109 C3108 1.385 . S
C3109 C3110 1.389 . S
C3110 C3109 1.389 . S
C3110 C3111 1.387 . S
C3111 H3096 0.930 . S
C3111 C3106 1.390 . S
C3111 C3110 1.387 . S
H3112 C3124 0.930 . S
H3113 C3126 0.930 . S
H3114 C3127 0.930 . S
H3115 C3131 0.959 . S
H3116 C3131 0.959 . S
H3117 C3131 0.961 . S
H3118 C3132 0.960 . S
H3119 C3132 0.961 . S
H3120 C3132 0.959 . S
H3121 C3135 0.929 . S
H3122 C3136 0.931 . S
H3123 C3138 0.930 . S
C3124 H3112 0.930 . S
C3124 C3125 1.399 . S
C3124 C3129 1.399 . S
C3125 C3124 1.399 . S
C3125 C3126 1.376 . S
C3126 H3113 0.930 . S
C3126 C3125 1.376 . S
C3126 C3127 1.388 . S
C3127 H3114 0.930 . S
C3127 C3126 1.388 . S
C3127 C3128 1.390 . S
C3128 C3127 1.390 . S
C3128 C3129 1.394 . S
C3128 C3134 1.465 . S
C3129 C3124 1.399 . S
C3129 C3128 1.394 . S
C3129 C3130 1.516 . S
C3130 C3129 1.516 . S
C3130 C3131 1.502 . S
C3130 C3132 1.561 . S
C3130 C3133 1.526 . S
C3131 H3115 0.959 . S
C3131 H3116 0.959 . S
C3131 H3117 0.961 . S
C3131 C3130 1.502 . S
C3132 H3118 0.960 . S
C3132 H3119 0.961 . S
C3132 H3120 0.959 . S
C3132 C3130 1.561 . S
C3133 C3130 1.526 . S
C3133 C3134 1.396 . S
C3133 C3138 1.390 . S
C3134 C3128 1.465 . S
C3134 C3133 1.396 . S
C3134 C3135 1.399 . S
C3135 H3121 0.929 . S
C3135 C3134 1.399 . S
C3135 C3136 1.385 . S
C3136 H3122 0.931 . S
C3136 C3135 1.385 . S
C3136 C3137 1.389 . S
C3137 C3136 1.389 . S
C3137 C3138 1.387 . S
C3138 H3123 0.930 . S
C3138 C3133 1.390 . S
C3138 C3137 1.387 . S
H3139 C3151 0.930 . S
H3140 C3153 0.930 . S
H3141 C3154 0.930 . S
H3142 C3158 0.959 . S
H3143 C3158 0.959 . S
H3144 C3158 0.961 . S
H3145 C3159 0.960 . S
H3146 C3159 0.961 . S
H3147 C3159 0.959 . S
H3148 C3162 0.929 . S
H3149 C3163 0.931 . S
H3150 C3165 0.930 . S
C3151 H3139 0.930 . S
C3151 C3152 1.399 . S
C3151 C3156 1.399 . S
C3152 C3151 1.399 . S
C3152 C3153 1.376 . S
C3153 H3140 0.930 . S
C3153 C3152 1.376 . S
C3153 C3154 1.388 . S
C3154 H3141 0.930 . S
C3154 C3153 1.388 . S
C3154 C3155 1.390 . S
C3155 C3154 1.390 . S
C3155 C3156 1.394 . S
C3155 C3161 1.465 . S
C3156 C3151 1.399 . S
C3156 C3155 1.394 . S
C3156 C3157 1.516 . S
C3157 C3156 1.516 . S
C3157 C3158 1.502 . S
C3157 C3159 1.561 . S
C3157 C3160 1.526 . S
C3158 H3142 0.959 . S
C3158 H3143 0.959 . S
C3158 H3144 0.961 . S
C3158 C3157 1.502 . S
C3159 H3145 0.960 . S
C3159 H3146 0.961 . S
C3159 H3147 0.959 . S
C3159 C3157 1.561 . S
C3160 C3157 1.526 . S
C3160 C3161 1.396 . S
C3160 C3165 1.390 . S
C3161 C3155 1.465 . S
C3161 C3160 1.396 . S
C3161 C3162 1.399 . S
C3162 H3148 0.929 . S
C3162 C3161 1.399 . S
C3162 C3163 1.385 . S
C3163 H3149 0.931 . S
C3163 C3162 1.385 . S
C3163 C3164 1.389 . S
C3164 C3163 1.389 . S
C3164 C3165 1.387 . S
C3165 H3150 0.930 . S
C3165 C3160 1.390 . S
C3165 C3164 1.387 . S
H3166 C3178 0.930 . S
H3167 C3180 0.930 . S
H3168 C3181 0.930 . S
H3169 C3185 0.959 . S
H3170 C3185 0.959 . S
H3171 C3185 0.961 . S
H3172 C3186 0.960 . S
H3173 C3186 0.961 . S
H3174 C3186 0.959 . S
H3175 C3189 0.929 . S
H3176 C3190 0.931 . S
H3177 C3192 0.930 . S
C3178 H3166 0.930 . S
C3178 C3179 1.399 . S
C3178 C3183 1.399 . S
C3179 C3178 1.399 . S
C3179 C3180 1.376 . S
C3180 H3167 0.930 . S
C3180 C3179 1.376 . S
C3180 C3181 1.388 . S
C3181 H3168 0.930 . S
C3181 C3180 1.388 . S
C3181 C3182 1.390 . S
C3182 C3181 1.390 . S
C3182 C3183 1.394 . S
C3182 C3188 1.465 . S
C3183 C3178 1.399 . S
C3183 C3182 1.394 . S
C3183 C3184 1.516 . S
C3184 C3183 1.516 . S
C3184 C3185 1.502 1_655 S
C3184 C3186 1.561 . S
C3184 C3187 1.526 . S
C3185 H3169 0.959 . S
C3185 H3170 0.959 . S
C3185 H3171 0.961 . S
C3185 C3184 1.502 1_455 S
C3186 H3172 0.960 . S
C3186 H3173 0.961 . S
C3186 H3174 0.959 . S
C3186 C3184 1.561 . S
C3187 C3184 1.526 . S
C3187 C3188 1.396 . S
C3187 C3192 1.390 1_655 S
C3188 C3182 1.465 . S
C3188 C3187 1.396 . S
C3188 C3189 1.399 . S
C3189 H3175 0.929 . S
C3189 C3188 1.399 . S
C3189 C3190 1.385 1_655 S
C3190 H3176 0.931 . S
C3190 C3189 1.385 1_455 S
C3190 C3191 1.389 . S
C3191 C3190 1.389 . S
C3191 C3192 1.387 . S
C3192 H3177 0.930 . S
C3192 C3187 1.390 1_455 S
C3192 C3191 1.387 . S
H3193 C3205 0.930 . S
H3194 C3207 0.930 . S
H3195 C3208 0.930 . S
H3196 C3212 0.959 . S
H3197 C3212 0.959 . S
H3198 C3212 0.961 . S
H3199 C3213 0.960 . S
H3200 C3213 0.961 . S
H3201 C3213 0.959 . S
H3202 C3216 0.929 . S
H3203 C3217 0.931 . S
H3204 C3219 0.930 . S
C3205 H3193 0.930 . S
C3205 C3206 1.399 . S
C3205 C3210 1.399 . S
C3206 C3205 1.399 . S
C3206 C3207 1.376 . S
C3207 H3194 0.930 . S
C3207 C3206 1.376 . S
C3207 C3208 1.388 . S
C3208 H3195 0.930 . S
C3208 C3207 1.388 . S
C3208 C3209 1.390 . S
C3209 C3208 1.390 . S
C3209 C3210 1.394 . S
C3209 C3215 1.465 . S
C3210 C3205 1.399 . S
C3210 C3209 1.394 . S
C3210 C3211 1.516 . S
C3211 C3210 1.516 . S
C3211 C3212 1.502 . S
C3211 C3213 1.561 . S
C3211 C3214 1.526 . S
C3212 H3196 0.959 . S
C3212 H3197 0.959 . S
C3212 H3198 0.961 . S
C3212 C3211 1.502 . S
C3213 H3199 0.960 . S
C3213 H3200 0.961 . S
C3213 H3201 0.959 . S
C3213 C3211 1.561 . S
C3214 C3211 1.526 . S
C3214 C3215 1.396 . S
C3214 C3219 1.390 . S
C3215 C3209 1.465 . S
C3215 C3214 1.396 . S
C3215 C3216 1.399 . S
C3216 H3202 0.929 . S
C3216 C3215 1.399 . S
C3216 C3217 1.385 . S
C3217 H3203 0.931 . S
C3217 C3216 1.385 . S
C3217 C3218 1.389 . S
C3218 C3217 1.389 . S
C3218 C3219 1.387 . S
C3219 H3204 0.930 . S
C3219 C3214 1.390 . S
C3219 C3218 1.387 . S
H3220 C3232 0.930 . S
H3221 C3234 0.930 . S
H3222 C3235 0.930 . S
H3223 C3239 0.959 . S
H3224 C3239 0.959 . S
H3225 C3239 0.961 . S
H3226 C3240 0.960 . S
H3227 C3240 0.961 . S
H3228 C3240 0.959 . S
H3229 C3243 0.929 . S
H3230 C3244 0.931 . S
H3231 C3246 0.930 . S
C3232 H3220 0.930 . S
C3232 C3233 1.399 . S
C3232 C3237 1.399 . S
C3233 C3232 1.399 . S
C3233 C3234 1.376 . S
C3234 H3221 0.930 . S
C3234 C3233 1.376 . S
C3234 C3235 1.388 . S
C3235 H3222 0.930 . S
C3235 C3234 1.388 . S
C3235 C3236 1.390 . S
C3236 C3235 1.390 . S
C3236 C3237 1.394 . S
C3236 C3242 1.465 . S
C3237 C3232 1.399 . S
C3237 C3236 1.394 . S
C3237 C3238 1.516 . S
C3238 C3237 1.516 . S
C3238 C3239 1.502 . S
C3238 C3240 1.561 . S
C3238 C3241 1.526 . S
C3239 H3223 0.959 . S
C3239 H3224 0.959 . S
C3239 H3225 0.961 . S
C3239 C3238 1.502 . S
C3240 H3226 0.960 . S
C3240 H3227 0.961 . S
C3240 H3228 0.959 . S
C3240 C3238 1.561 . S
C3241 C3238 1.526 . S
C3241 C3242 1.396 . S
C3241 C3246 1.390 . S
C3242 C3236 1.465 . S
C3242 C3241 1.396 . S
C3242 C3243 1.399 . S
C3243 H3229 0.929 . S
C3243 C3242 1.399 . S
C3243 C3244 1.385 . S
C3244 H3230 0.931 . S
C3244 C3243 1.385 . S
C3244 C3245 1.389 . S
C3245 C3244 1.389 . S
C3245 C3246 1.387 . S
C3246 H3231 0.930 . S
C3246 C3241 1.390 . S
C3246 C3245 1.387 . S
H3247 C3259 0.930 . S
H3248 C3261 0.930 . S
H3249 C3262 0.930 . S
H3250 C3266 0.959 . S
H3251 C3266 0.959 . S
H3252 C3266 0.961 . S
H3253 C3267 0.960 . S
H3254 C3267 0.961 . S
H3255 C3267 0.959 . S
H3256 C3270 0.929 . S
H3257 C3271 0.931 . S
H3258 C3273 0.930 . S
C3259 H3247 0.930 . S
C3259 C3260 1.399 . S
C3259 C3264 1.399 . S
C3260 C3259 1.399 . S
C3260 C3261 1.376 . S
C3261 H3248 0.930 . S
C3261 C3260 1.376 . S
C3261 C3262 1.388 . S
C3262 H3249 0.930 . S
C3262 C3261 1.388 . S
C3262 C3263 1.390 . S
C3263 C3262 1.390 . S
C3263 C3264 1.394 . S
C3263 C3269 1.465 . S
C3264 C3259 1.399 . S
C3264 C3263 1.394 . S
C3264 C3265 1.516 . S
C3265 C3264 1.516 . S
C3265 C3266 1.502 . S
C3265 C3267 1.561 . S
C3265 C3268 1.526 . S
C3266 H3250 0.959 . S
C3266 H3251 0.959 . S
C3266 H3252 0.961 . S
C3266 C3265 1.502 . S
C3267 H3253 0.960 . S
C3267 H3254 0.961 . S
C3267 H3255 0.959 . S
C3267 C3265 1.561 . S
C3268 C3265 1.526 . S
C3268 C3269 1.396 . S
C3268 C3273 1.390 . S
C3269 C3263 1.465 . S
C3269 C3268 1.396 . S
C3269 C3270 1.399 . S
C3270 H3256 0.929 . S
C3270 C3269 1.399 . S
C3270 C3271 1.385 . S
C3271 H3257 0.931 . S
C3271 C3270 1.385 . S
C3271 C3272 1.389 . S
C3272 C3271 1.389 . S
C3272 C3273 1.387 . S
C3273 H3258 0.930 . S
C3273 C3268 1.390 . S
C3273 C3272 1.387 . S
H3274 C3286 0.930 . S
H3275 C3288 0.930 . S
H3276 C3289 0.930 . S
H3277 C3293 0.959 . S
H3278 C3293 0.959 . S
H3279 C3293 0.961 . S
H3280 C3294 0.960 . S
H3281 C3294 0.961 . S
H3282 C3294 0.959 . S
H3283 C3297 0.929 . S
H3284 C3298 0.931 . S
H3285 C3300 0.930 . S
C3286 H3274 0.930 . S
C3286 C3287 1.399 . S
C3286 C3291 1.399 . S
C3287 C3286 1.399 . S
C3287 C3288 1.376 . S
C3288 H3275 0.930 . S
C3288 C3287 1.376 . S
C3288 C3289 1.388 . S
C3289 H3276 0.930 . S
C3289 C3288 1.388 . S
C3289 C3290 1.390 . S
C3290 C3289 1.390 . S
C3290 C3291 1.394 . S
C3290 C3296 1.465 . S
C3291 C3286 1.399 . S
C3291 C3290 1.394 . S
C3291 C3292 1.516 . S
C3292 C3291 1.516 . S
C3292 C3293 1.502 . S
C3292 C3294 1.561 . S
C3292 C3295 1.526 . S
C3293 H3277 0.959 . S
C3293 H3278 0.959 . S
C3293 H3279 0.961 . S
C3293 C3292 1.502 . S
C3294 H3280 0.960 . S
C3294 H3281 0.961 . S
C3294 H3282 0.959 . S
C3294 C3292 1.561 . S
C3295 C3292 1.526 . S
C3295 C3296 1.396 . S
C3295 C3300 1.390 . S
C3296 C3290 1.465 . S
C3296 C3295 1.396 . S
C3296 C3297 1.399 . S
C3297 H3283 0.929 . S
C3297 C3296 1.399 . S
C3297 C3298 1.385 . S
C3298 H3284 0.931 . S
C3298 C3297 1.385 . S
C3298 C3299 1.389 . S
C3299 C3298 1.389 . S
C3299 C3300 1.387 . S
C3300 H3285 0.930 . S
C3300 C3295 1.390 . S
C3300 C3299 1.387 . S
H3301 C3313 0.930 . S
H3302 C3315 0.930 . S
H3303 C3316 0.930 . S
H3304 C3320 0.959 . S
H3305 C3320 0.959 . S
H3306 C3320 0.961 . S
H3307 C3321 0.960 . S
H3308 C3321 0.961 . S
H3309 C3321 0.959 . S
H3310 C3324 0.929 . S
H3311 C3325 0.931 . S
H3312 C3327 0.930 . S
C3313 H3301 0.930 . S
C3313 C3314 1.399 . S
C3313 C3318 1.399 . S
C3314 C3313 1.399 . S
C3314 C3315 1.376 . S
C3315 H3302 0.930 . S
C3315 C3314 1.376 . S
C3315 C3316 1.388 . S
C3316 H3303 0.930 . S
C3316 C3315 1.388 . S
C3316 C3317 1.390 . S
C3317 C3316 1.390 . S
C3317 C3318 1.394 . S
C3317 C3323 1.465 . S
C3318 C3313 1.399 . S
C3318 C3317 1.394 . S
C3318 C3319 1.516 . S
C3319 C3318 1.516 . S
C3319 C3320 1.502 . S
C3319 C3321 1.561 . S
C3319 C3322 1.526 . S
C3320 H3304 0.959 . S
C3320 H3305 0.959 . S
C3320 H3306 0.961 . S
C3320 C3319 1.502 . S
C3321 H3307 0.960 . S
C3321 H3308 0.961 . S
C3321 H3309 0.959 . S
C3321 C3319 1.561 . S
C3322 C3319 1.526 . S
C3322 C3323 1.396 . S
C3322 C3327 1.390 . S
C3323 C3317 1.465 . S
C3323 C3322 1.396 . S
C3323 C3324 1.399 . S
C3324 H3310 0.929 . S
C3324 C3323 1.399 . S
C3324 C3325 1.385 . S
C3325 H3311 0.931 . S
C3325 C3324 1.385 . S
C3325 C3326 1.389 . S
C3326 C3325 1.389 . S
C3326 C3327 1.387 . S
C3327 H3312 0.930 . S
C3327 C3322 1.390 . S
C3327 C3326 1.387 . S
H3328 C3340 0.930 . S
H3329 C3342 0.930 . S
H3330 C3343 0.930 . S
H3331 C3347 0.959 . S
H3332 C3347 0.959 . S
H3333 C3347 0.961 . S
H3334 C3348 0.960 . S
H3335 C3348 0.961 . S
H3336 C3348 0.959 . S
H3337 C3351 0.929 . S
H3338 C3352 0.931 . S
H3339 C3354 0.930 . S
C3340 H3328 0.930 . S
C3340 C3341 1.399 . S
C3340 C3345 1.399 . S
C3341 C3340 1.399 . S
C3341 C3342 1.376 . S
C3342 H3329 0.930 . S
C3342 C3341 1.376 . S
C3342 C3343 1.388 . S
C3343 H3330 0.930 . S
C3343 C3342 1.388 . S
C3343 C3344 1.390 . S
C3344 C3343 1.390 . S
C3344 C3345 1.394 . S
C3344 C3350 1.465 . S
C3345 C3340 1.399 . S
C3345 C3344 1.394 . S
C3345 C3346 1.516 . S
C3346 C3345 1.516 . S
C3346 C3347 1.502 . S
C3346 C3348 1.561 . S
C3346 C3349 1.526 . S
C3347 H3331 0.959 . S
C3347 H3332 0.959 . S
C3347 H3333 0.961 . S
C3347 C3346 1.502 . S
C3348 H3334 0.960 . S
C3348 H3335 0.961 . S
C3348 H3336 0.959 . S
C3348 C3346 1.561 . S
C3349 C3346 1.526 . S
C3349 C3350 1.396 . S
C3349 C3354 1.390 . S
C3350 C3344 1.465 . S
C3350 C3349 1.396 . S
C3350 C3351 1.399 . S
C3351 H3337 0.929 . S
C3351 C3350 1.399 . S
C3351 C3352 1.385 . S
C3352 H3338 0.931 . S
C3352 C3351 1.385 . S
C3352 C3353 1.389 . S
C3353 C3352 1.389 . S
C3353 C3354 1.387 . S
C3354 H3339 0.930 . S
C3354 C3349 1.390 . S
C3354 C3353 1.387 . S
H3355 C3367 0.930 . S
H3356 C3369 0.930 . S
H3357 C3370 0.930 . S
H3358 C3374 0.959 . S
H3359 C3374 0.959 . S
H3360 C3374 0.961 . S
H3361 C3375 0.960 . S
H3362 C3375 0.961 . S
H3363 C3375 0.959 . S
H3364 C3378 0.929 1_545 S
H3365 C3379 0.931 . S
H3366 C3381 0.930 . S
C3367 H3355 0.930 . S
C3367 C3368 1.399 . S
C3367 C3372 1.399 . S
C3368 C3367 1.399 . S
C3368 C3369 1.376 . S
C3369 H3356 0.930 . S
C3369 C3368 1.376 . S
C3369 C3370 1.388 . S
C3370 H3357 0.930 . S
C3370 C3369 1.388 . S
C3370 C3371 1.390 . S
C3371 C3370 1.390 . S
C3371 C3372 1.394 . S
C3371 C3377 1.465 . S
C3372 C3367 1.399 . S
C3372 C3371 1.394 . S
C3372 C3373 1.516 . S
C3373 C3372 1.516 . S
C3373 C3374 1.502 . S
C3373 C3375 1.561 . S
C3373 C3376 1.526 . S
C3374 H3358 0.959 . S
C3374 H3359 0.959 . S
C3374 H3360 0.961 . S
C3374 C3373 1.502 . S
C3375 H3361 0.960 . S
C3375 H3362 0.961 . S
C3375 H3363 0.959 . S
C3375 C3373 1.561 . S
C3376 C3373 1.526 . S
C3376 C3377 1.396 . S
C3376 C3381 1.390 . S
C3377 C3371 1.465 . S
C3377 C3376 1.396 . S
C3377 C3378 1.399 . S
C3378 H3364 0.929 1_565 S
C3378 C3377 1.399 . S
C3378 C3379 1.385 1_565 S
C3379 H3365 0.931 . S
C3379 C3378 1.385 1_545 S
C3379 C3380 1.389 1_545 S
C3380 C3379 1.389 1_565 S
C3380 C3381 1.387 . S
C3381 H3366 0.930 . S
C3381 C3376 1.390 . S
C3381 C3380 1.387 . S
H3382 C3394 0.930 . S
H3383 C3396 0.930 . S
H3384 C3397 0.930 . S
H3385 C3401 0.959 . S
H3386 C3401 0.959 . S
H3387 C3401 0.961 . S
H3388 C3402 0.960 . S
H3389 C3402 0.961 . S
H3390 C3402 0.959 . S
H3391 C3405 0.929 . S
H3392 C3406 0.931 . S
H3393 C3408 0.930 . S
C3394 H3382 0.930 . S
C3394 C3395 1.399 . S
C3394 C3399 1.399 . S
C3395 C3394 1.399 . S
C3395 C3396 1.376 . S
C3396 H3383 0.930 . S
C3396 C3395 1.376 . S
C3396 C3397 1.388 . S
C3397 H3384 0.930 . S
C3397 C3396 1.388 . S
C3397 C3398 1.390 . S
C3398 C3397 1.390 . S
C3398 C3399 1.394 . S
C3398 C3404 1.465 . S
C3399 C3394 1.399 . S
C3399 C3398 1.394 . S
C3399 C3400 1.516 . S
C3400 C3399 1.516 . S
C3400 C3401 1.502 . S
C3400 C3402 1.561 . S
C3400 C3403 1.526 . S
C3401 H3385 0.959 . S
C3401 H3386 0.959 . S
C3401 H3387 0.961 . S
C3401 C3400 1.502 . S
C3402 H3388 0.960 . S
C3402 H3389 0.961 . S
C3402 H3390 0.959 . S
C3402 C3400 1.561 . S
C3403 C3400 1.526 . S
C3403 C3404 1.396 . S
C3403 C3408 1.390 . S
C3404 C3398 1.465 . S
C3404 C3403 1.396 . S
C3404 C3405 1.399 . S
C3405 H3391 0.929 . S
C3405 C3404 1.399 . S
C3405 C3406 1.385 . S
C3406 H3392 0.931 . S
C3406 C3405 1.385 . S
C3406 C3407 1.389 . S
C3407 C3406 1.389 . S
C3407 C3408 1.387 . S
C3408 H3393 0.930 . S
C3408 C3403 1.390 . S
C3408 C3407 1.387 . S
H3409 C3421 0.930 . S
H3410 C3423 0.930 . S
H3411 C3424 0.930 . S
H3412 C3428 0.959 . S
H3413 C3428 0.959 . S
H3414 C3428 0.961 . S
H3415 C3429 0.960 . S
H3416 C3429 0.961 . S
H3417 C3429 0.959 1_556 S
H3418 C3432 0.929 . S
H3419 C3433 0.931 . S
H3420 C3435 0.930 . S
C3421 H3409 0.930 . S
C3421 C3422 1.399 . S
C3421 C3426 1.399 . S
C3422 C3421 1.399 . S
C3422 C3423 1.376 1_554 S
C3423 H3410 0.930 . S
C3423 C3422 1.376 1_556 S
C3423 C3424 1.388 . S
C3424 H3411 0.930 . S
C3424 C3423 1.388 . S
C3424 C3425 1.384 1_556 S
C3425 C3424 1.384 1_554 S
C3425 C3426 1.400 . S
C3425 C3431 1.467 1_554 S
C3426 C3421 1.399 . S
C3426 C3425 1.400 . S
C3426 C3427 1.516 . S
C3427 C3426 1.516 . S
C3427 C3428 1.502 . S
C3427 C3429 1.561 . S
C3427 C3430 1.526 . S
C3428 H3412 0.959 . S
C3428 H3413 0.959 . S
C3428 H3414 0.961 . S
C3428 C3427 1.502 . S
C3429 H3415 0.960 . S
C3429 H3416 0.961 . S
C3429 H3417 0.959 1_554 S
C3429 C3427 1.561 . S
C3430 C3427 1.526 . S
C3430 C3431 1.396 1_554 S
C3430 C3435 1.390 . S
C3431 C3425 1.467 1_556 S
C3431 C3430 1.396 1_556 S
C3431 C3432 1.399 . S
C3432 H3418 0.929 . S
C3432 C3431 1.399 . S
C3432 C3433 1.385 . S
C3433 H3419 0.931 . S
C3433 C3432 1.385 . S
C3433 C3434 1.389 1_556 S
C3434 C3433 1.389 1_554 S
C3434 C3435 1.387 . S
C3435 H3420 0.930 . S
C3435 C3430 1.390 . S
C3435 C3434 1.387 . S
H3436 C3448 0.930 . S
H3437 C3450 0.930 . S
H3438 C3451 0.930 . S
H3439 C3455 0.959 . S
H3440 C3455 0.959 . S
H3441 C3455 0.961 . S
H3442 C3456 0.960 . S
H3443 C3456 0.961 . S
H3444 C3456 0.959 . S
H3445 C3459 0.929 . S
H3446 C3460 0.931 . S
H3447 C3462 0.930 . S
C3448 H3436 0.930 . S
C3448 C3449 1.399 . S
C3448 C3453 1.399 . S
C3449 C3448 1.399 . S
C3449 C3450 1.376 . S
C3450 H3437 0.930 . S
C3450 C3449 1.376 . S
C3450 C3451 1.388 . S
C3451 H3438 0.930 . S
C3451 C3450 1.388 . S
C3451 C3452 1.390 . S
C3452 C3451 1.390 . S
C3452 C3453 1.394 . S
C3452 C3458 1.465 . S
C3453 C3448 1.399 . S
C3453 C3452 1.394 . S
C3453 C3454 1.516 . S
C3454 C3453 1.516 . S
C3454 C3455 1.502 . S
C3454 C3456 1.561 . S
C3454 C3457 1.526 . S
C3455 H3439 0.959 . S
C3455 H3440 0.959 . S
C3455 H3441 0.961 . S
C3455 C3454 1.502 . S
C3456 H3442 0.960 . S
C3456 H3443 0.961 . S
C3456 H3444 0.959 . S
C3456 C3454 1.561 . S
C3457 C3454 1.526 . S
C3457 C3458 1.396 . S
C3457 C3462 1.390 . S
C3458 C3452 1.465 . S
C3458 C3457 1.396 . S
C3458 C3459 1.399 . S
C3459 H3445 0.929 . S
C3459 C3458 1.399 . S
C3459 C3460 1.385 . S
C3460 H3446 0.931 . S
C3460 C3459 1.385 . S
C3460 C3461 1.389 . S
C3461 C3460 1.389 . S
C3461 C3462 1.387 . S
C3462 H3447 0.930 . S
C3462 C3457 1.390 . S
C3462 C3461 1.387 . S
H3463 C3475 0.930 . S
H3464 C3477 0.930 . S
H3465 C3478 0.930 . S
H3466 C3482 0.959 . S
H3467 C3482 0.959 . S
H3468 C3482 0.961 . S
H3469 C3483 0.960 . S
H3470 C3483 0.961 . S
H3471 C3483 0.959 . S
H3472 C3486 0.929 . S
H3473 C3487 0.931 . S
H3474 C3489 0.930 . S
C3475 H3463 0.930 . S
C3475 C3476 1.399 . S
C3475 C3480 1.399 . S
C3476 C3475 1.399 . S
C3476 C3477 1.376 1_554 S
C3477 H3464 0.930 . S
C3477 C3476 1.376 1_556 S
C3477 C3478 1.388 . S
C3478 H3465 0.930 . S
C3478 C3477 1.388 . S
C3478 C3479 1.390 1_556 S
C3479 C3478 1.390 1_554 S
C3479 C3480 1.394 . S
C3479 C3485 1.465 1_554 S
C3480 C3475 1.399 . S
C3480 C3479 1.394 . S
C3480 C3481 1.516 . S
C3481 C3480 1.516 . S
C3481 C3482 1.502 . S
C3481 C3483 1.561 . S
C3481 C3484 1.526 . S
C3482 H3466 0.959 . S
C3482 H3467 0.959 . S
C3482 H3468 0.961 . S
C3482 C3481 1.502 . S
C3483 H3469 0.960 . S
C3483 H3470 0.961 . S
C3483 H3471 0.959 . S
C3483 C3481 1.561 . S
C3484 C3481 1.526 . S
C3484 C3485 1.396 1_554 S
C3484 C3489 1.390 . S
C3485 C3479 1.465 1_556 S
C3485 C3484 1.396 1_556 S
C3485 C3486 1.399 . S
C3486 H3472 0.929 . S
C3486 C3485 1.399 . S
C3486 C3487 1.385 . S
C3487 H3473 0.931 . S
C3487 C3486 1.385 . S
C3487 C3488 1.389 . S
C3488 C3487 1.389 . S
C3488 C3489 1.387 1_556 S
C3489 H3474 0.930 . S
C3489 C3484 1.390 . S
C3489 C3488 1.387 1_554 S
H3490 C3502 0.930 . S
H3491 C3504 0.930 . S
H3492 C3505 0.930 . S
H3493 C3509 0.959 . S
H3494 C3509 0.959 . S
H3495 C3509 0.961 . S
H3496 C3510 0.960 . S
H3497 C3510 0.961 . S
H3498 C3510 0.959 . S
H3499 C3513 0.929 . S
H3500 C3514 0.931 . S
H3501 C3516 0.930 . S
C3502 H3490 0.930 . S
C3502 C3503 1.399 . S
C3502 C3507 1.399 . S
C3503 C3502 1.399 . S
C3503 C3504 1.376 . S
C3504 H3491 0.930 . S
C3504 C3503 1.376 . S
C3504 C3505 1.388 . S
C3505 H3492 0.930 . S
C3505 C3504 1.388 . S
C3505 C3506 1.390 . S
C3506 C3505 1.390 . S
C3506 C3507 1.394 . S
C3506 C3512 1.465 . S
C3507 C3502 1.399 . S
C3507 C3506 1.394 . S
C3507 C3508 1.516 . S
C3508 C3507 1.516 . S
C3508 C3509 1.502 . S
C3508 C3510 1.561 . S
C3508 C3511 1.526 . S
C3509 H3493 0.959 . S
C3509 H3494 0.959 . S
C3509 H3495 0.961 . S
C3509 C3508 1.502 . S
C3510 H3496 0.960 . S
C3510 H3497 0.961 . S
C3510 H3498 0.959 . S
C3510 C3508 1.561 . S
C3511 C3508 1.526 . S
C3511 C3512 1.396 . S
C3511 C3516 1.390 . S
C3512 C3506 1.465 . S
C3512 C3511 1.396 . S
C3512 C3513 1.399 . S
C3513 H3499 0.929 . S
C3513 C3512 1.399 . S
C3513 C3514 1.385 . S
C3514 H3500 0.931 . S
C3514 C3513 1.385 . S
C3514 C3515 1.389 . S
C3515 C3514 1.389 . S
C3515 C3516 1.387 . S
C3516 H3501 0.930 . S
C3516 C3511 1.390 . S
C3516 C3515 1.387 . S
H3517 C3529 0.930 . S
H3518 C3531 0.930 . S
H3519 C3532 0.930 . S
H3520 C3536 0.959 . S
H3521 C3536 0.959 . S
H3522 C3536 0.961 . S
H3523 C3537 0.960 . S
H3524 C3537 0.961 . S
H3525 C3537 0.959 . S
H3526 C3540 0.929 . S
H3527 C3541 0.931 . S
H3528 C3543 0.930 . S
C3529 H3517 0.930 . S
C3529 C3530 1.399 . S
C3529 C3534 1.399 . S
C3530 C3529 1.399 . S
C3530 C3531 1.376 . S
C3531 H3518 0.930 . S
C3531 C3530 1.376 . S
C3531 C3532 1.388 . S
C3532 H3519 0.930 . S
C3532 C3531 1.388 . S
C3532 C3533 1.390 . S
C3533 C3532 1.390 . S
C3533 C3534 1.394 . S
C3533 C3539 1.465 . S
C3534 C3529 1.399 . S
C3534 C3533 1.394 . S
C3534 C3535 1.516 . S
C3535 C3534 1.516 . S
C3535 C3536 1.502 . S
C3535 C3537 1.561 . S
C3535 C3538 1.526 . S
C3536 H3520 0.959 . S
C3536 H3521 0.959 . S
C3536 H3522 0.961 . S
C3536 C3535 1.502 . S
C3537 H3523 0.960 . S
C3537 H3524 0.961 . S
C3537 H3525 0.959 . S
C3537 C3535 1.561 . S
C3538 C3535 1.526 . S
C3538 C3539 1.396 . S
C3538 C3543 1.390 . S
C3539 C3533 1.465 . S
C3539 C3538 1.396 . S
C3539 C3540 1.399 . S
C3540 H3526 0.929 . S
C3540 C3539 1.399 . S
C3540 C3541 1.385 . S
C3541 H3527 0.931 . S
C3541 C3540 1.385 . S
C3541 C3542 1.389 . S
C3542 C3541 1.389 . S
C3542 C3543 1.387 . S
C3543 H3528 0.930 . S
C3543 C3538 1.390 . S
C3543 C3542 1.387 . S
C965 C101 2.219 . S
C977 C322 2.145 . S
C992 C57 2.047 . S
C1004 C370 2.111 . S
C1019 C70 1.043 . S
C1031 C402 0.979 . S
C1058 C447 1.309 . S
C1046 C82 1.362 . S
C1073 C23 1.489 . S
C1085 C487 1.359 . S
C1112 C518 0.562 . S
C1100 C29 0.447 . S
C1139 C570 1.237 . S
C1127 C49 1.244 . S
C1154 C10 1.881 . S
C1166 C602 1.798 . S
C1193 C330 2.426 . S
C1181 C218 2.425 . S
C1208 C226 0.734 . S
C1220 C367 0.592 . S
C1247 C410 1.249 . S
C1235 C251 1.220 . S
C1274 C442 1.189 . S
C1262 C159 1.222 . S
C1289 C211 1.886 . S
C1301 C482 1.838 . S
C1328 C521 1.443 . S
C1316 C225 1.465 . S
C1355 C567 0.581 . S
C1343 C252 0.410 . S
C1382 C610 2.042 . S
C1370 C166 2.056 . S
C1409 C327 1.464 . S
C1397 C147 1.580 . S
C1424 C263 1.906 1_556 S
C1436 C650 1.933 . S
C1463 C691 2.565 . S
C1451 C309 2.649 . S
C1490 C722 0.419 . S
C1478 C291 0.502 . S
C1505 C108 1.671 . S
C1517 C607 1.544 . S
C1532 C121 1.595 . S
C1544 C407 1.622 . S
C1559 C302 2.164 . S
C1571 C770 2.184 . S
C1598 C802 0.565 . S
C1586 C276 0.645 . S
C1625 C331 2.305 1_565 S
C1613 C55 2.357 . S
C1652 C801 2.363 . S
C1640 C96 2.368 . S
C1667 C88 1.436 . S
C1679 C411 1.418 . S
C1694 C75 1.571 . S
C1706 C758 1.529 . S
C1733 C478 1.387 . S
C1721 C4 1.430 . S
C1748 C44 0.657 . S
C1760 C687 0.632 . S
C1787 C561 1.618 1_565 S
C1775 C31 1.581 . S
C1814 C851 1.868 . S
C1802 C18 1.942 . S
C1841 C321 2.627 . S
C1829 C133 2.647 . S
C1868 C798 0.634 . S
C1856 C296 0.659 . S
C1883 C107 1.531 . S
C1895 C401 1.525 . S
C1910 C264 1.573 . S
C1922 C771 1.565 . S
C1937 C140 2.068 1_545 S
C1949 C491 2.034 . S
C1976 C690 1.539 . S
C1964 C289 1.562 . S
C1991 C114 0.525 . S
C2003 C558 0.476 . S
C2018 C265 2.282 . S
C2030 C841 2.240 . S
C2045 C179 1.581 . S
C2057 C318 1.602 . S
C2072 C161 2.159 . S
C2084 C641 2.160 . S
C2099 C244 2.859 . S
C2111 C522 2.812 . S
C2126 C224 1.019 . S
C2138 C731 1.032 . S
C2165 C838 1.487 . S
C2153 C257 1.496 . S
C2180 C199 1.673 . S
C2192 C398 1.633 . S
C2219 C441 2.435 . S
C2207 C237 2.455 . S
C2246 C371 0.771 . S
C2234 C185 0.808 . S
C2261 C69 2.228 . S
C2273 C882 2.135 . S
C2300 C810 2.117 . S
C2288 C83 2.081 . S
C2315 C94 1.041 . S
C2327 C922 0.938 . S
C2342 C56 1.345 . S
C2354 C767 1.371 . S
C2369 C42 1.431 . S
C2381 C647 1.454 . S
C2408 C678 0.519 . S
C2396 C3 0.506 . S
C2435 C730 1.260 . S
C2423 C16 1.168 . S
C2462 C842 1.738 . S
C2450 C36 1.889 . S
C2489 C890 2.420 . S
C2477 C238 2.405 . S
C2504 C174 0.616 . S
C2516 C807 0.783 . S
C2543 C930 1.275 . S
C2531 C186 1.267 . S
C2570 C762 1.156 . S
C2558 C198 1.216 . S
C2597 C642 1.858 . S
C2585 C239 1.866 . S
C2612 C173 1.465 . S
C2624 C681 1.442 . S
C2651 C727 0.356 . S
C2639 C187 0.425 . S
C2666 C205 2.063 . S
C2678 C850 2.067 . S
C2705 C887 1.484 . S
C2693 C290 1.555 . S
C2720 C122 1.910 . S
C2732 C490 1.921 . S
C2759 C531 2.562 . S
C2747 C134 2.637 . S
C2786 C562 0.582 . S
C2774 C148 0.458 . S
C2813 C847 1.561 . S
C2801 C283 1.642 . S
C2828 C270 1.638 . S
C2840 C927 1.574 . S
C2867 C450 2.179 . S
C2855 C135 2.162 . S
C2894 C362 0.735 . S
C2882 C109 0.506 . S
C2909 C81 2.366 . S
C2921 C891 2.311 . S
C2948 C361 2.344 . S
C2936 C68 2.347 . S
C2963 C62 1.435 . S
C2975 C931 1.424 . S
C2990 C95 1.550 . S
C3002 C438 1.562 . S
C3017 C30 1.404 . S
C3029 C638 1.399 . S
C3056 C527 0.607 . S
C3044 C17 0.638 . S
C3071 C5 1.646 . S
C3083 C721 1.627 . S
C3098 C43 1.930 . S
C3110 C611 1.860 . S
C3137 C881 2.625 . S
C3125 C304 2.646 . S
C3152 C153 0.664 . S
C3164 C358 0.605 . S
C3191 C921 1.511 . S
C3179 C278 1.532 . S
C3206 C127 1.574 . S
C3218 C451 1.564 . S
C3233 C303 2.067 . S
C3245 C651 2.026 . S
C3272 C530 1.543 . S
C3260 C146 1.562 . S
C3287 C277 0.505 . S
C3299 C718 0.601 . S
C3326 C601 2.265 . S
C3314 C120 2.265 . S
C3353 C878 1.598 . S
C3341 C231 1.581 . S
C3380 C481 2.139 1_665 S
C3368 C200 2.148 . S
C3395 C212 2.877 . S
C3407 C682 2.812 . S
C3434 C571 1.045 . S
C3422 C172 1.039 . S
C3449 C192 1.506 . S
C3461 C598 1.494 . S
C3476 C160 1.650 . S
C3488 C918 1.673 . S
C3515 C761 2.438 . S
C3503 C213 2.457 1_565 S
C3542 C811 0.749 . S
C3530 C250 0.773 . S
