# Generated by pormake.
# Topology pyr, (3,6)-cn, num edge types: 1
# Building blocks:
#     Node 0, Type 0, BuildingBlock: OLANEW_clean_sbu_2, # of connection points: 3
#     Node 1, Type 0, BuildingBlock: OLANEW_clean_sbu_2, # of connection points: 3
#     Node 2, Type 0, BuildingBlock: OLANEW_clean_sbu_2, # of connection points: 3
#     Node 3, Type 0, BuildingBlock: OLANEW_clean_sbu_2, # of connection points: 3
#     Node 4, Type 0, BuildingBlock: OLANEW_clean_sbu_2, # of connection points: 3
#     Node 5, Type 0, BuildingBlock: OLANEW_clean_sbu_2, # of connection points: 3
#     Node 6, Type 0, BuildingBlock: OLANEW_clean_sbu_2, # of connection points: 3
#     Node 7, Type 0, BuildingBlock: OLANEW_clean_sbu_2, # of connection points: 3
#     Node 8, Type 1, BuildingBlock: BETDIP_clean_sbu_0, # of connection points: 6
#     Node 9, Type 1, BuildingBlock: BETDIP_clean_sbu_0, # of connection points: 6
#     Node 10, Type 1, BuildingBlock: BETDIP_clean_sbu_0, # of connection points: 6
#     Node 11, Type 1, BuildingBlock: BETDIP_clean_sbu_0, # of connection points: 6
#     Edge 12, Type (0, 1), BuildingBlock: MIFKUJ_clean_linker_0, # of connection points: 2
#     Edge 13, Type (0, 1), BuildingBlock: MIFKUJ_clean_linker_0, # of connection points: 2
#     Edge 14, Type (0, 1), BuildingBlock: MIFKUJ_clean_linker_0, # of connection points: 2
#     Edge 15, Type (0, 1), BuildingBlock: MIFKUJ_clean_linker_0, # of connection points: 2
#     Edge 16, Type (0, 1), BuildingBlock: MIFKUJ_clean_linker_0, # of connection points: 2
#     Edge 17, Type (0, 1), BuildingBlock: MIFKUJ_clean_linker_0, # of connection points: 2
#     Edge 18, Type (0, 1), BuildingBlock: MIFKUJ_clean_linker_0, # of connection points: 2
#     Edge 19, Type (0, 1), BuildingBlock: MIFKUJ_clean_linker_0, # of connection points: 2
#     Edge 20, Type (0, 1), BuildingBlock: MIFKUJ_clean_linker_0, # of connection points: 2
#     Edge 21, Type (0, 1), BuildingBlock: MIFKUJ_clean_linker_0, # of connection points: 2
#     Edge 22, Type (0, 1), BuildingBlock: MIFKUJ_clean_linker_0, # of connection points: 2
#     Edge 23, Type (0, 1), BuildingBlock: MIFKUJ_clean_linker_0, # of connection points: 2
#     Edge 24, Type (0, 1), BuildingBlock: MIFKUJ_clean_linker_0, # of connection points: 2
#     Edge 25, Type (0, 1), BuildingBlock: MIFKUJ_clean_linker_0, # of connection points: 2
#     Edge 26, Type (0, 1), BuildingBlock: MIFKUJ_clean_linker_0, # of connection points: 2
#     Edge 27, Type (0, 1), BuildingBlock: MIFKUJ_clean_linker_0, # of connection points: 2
#     Edge 28, Type (0, 1), BuildingBlock: MIFKUJ_clean_linker_0, # of connection points: 2
#     Edge 29, Type (0, 1), BuildingBlock: MIFKUJ_clean_linker_0, # of connection points: 2
#     Edge 30, Type (0, 1), BuildingBlock: MIFKUJ_clean_linker_0, # of connection points: 2
#     Edge 31, Type (0, 1), BuildingBlock: MIFKUJ_clean_linker_0, # of connection points: 2
#     Edge 32, Type (0, 1), BuildingBlock: MIFKUJ_clean_linker_0, # of connection points: 2
#     Edge 33, Type (0, 1), BuildingBlock: MIFKUJ_clean_linker_0, # of connection points: 2
#     Edge 34, Type (0, 1), BuildingBlock: MIFKUJ_clean_linker_0, # of connection points: 2
#     Edge 35, Type (0, 1), BuildingBlock: MIFKUJ_clean_linker_0, # of connection points: 2
# Relax obj value: 0.131
# Max RMSD: 0.225
# Mean RMSD: 0.143
data_MOF--net-pyr--node1-OLANEW_clean_sbu_2--node2-BETDIP_clean_sbu_0--edge1-MIFKUJ_clean_linker_0
_symmetry_space_group_name_H-M    P1
_symmetry_Int_Tables_number       1
_symmetry_cell_setting            triclinic
loop_
_symmetry_equiv_pos_as_xyz
'x, y, z'
_cell_length_a     48.183295
_cell_length_b     55.105757
_cell_length_c     53.44594
_cell_angle_alpha  91.766119
_cell_angle_beta   92.65966
_cell_angle_gamma 106.61035
loop_
_atom_site_label
_atom_site_type_symbol
_atom_site_fract_x
_atom_site_fract_y
_atom_site_fract_z
_atom_type_partial_charge
O0 O 0.38978 0.28162 0.16975 0.0
Cd1 Cd 0.37572 0.31961 0.18159 0.0
O2 O 0.35568 0.2584 0.19177 0.0
Cd3 Cd 0.33274 0.22489 0.21135 0.0
O4 O 0.30601 0.19812 0.23602 0.0
C5 C 0.31733 0.19213 0.25598 0.0
O6 O 0.3454 0.20152 0.26095 0.0
C7 C 0.37714 0.26021 0.17824 0.0
C8 C 0.3264 0.32671 0.15699 0.0
O9 O 0.35151 0.33527 0.14825 0.0
O10 O 0.32451 0.31403 0.17688 0.0
O11 O 0.23872 0.79604 0.76919 0.0
Cd12 Cd 0.21062 0.78055 0.72973 0.0
O13 O 0.20065 0.795 0.79073 0.0
Cd14 Cd 0.17194 0.78929 0.75698 0.0
O15 O 0.15023 0.80574 0.72821 0.0
C16 C 0.16482 0.82726 0.72121 0.0
O17 O 0.19155 0.83698 0.73064 0.0
C18 C 0.22787 0.79867 0.78998 0.0
C19 C 0.23954 0.75277 0.7019 0.0
O20 O 0.24407 0.7766 0.69926 0.0
O21 O 0.22084 0.74195 0.71737 0.0
O22 O 0.67865 0.39644 0.85426 0.0
Cd23 Cd 0.63273 0.38381 0.82777 0.0
O24 O 0.66759 0.36007 0.87272 0.0
Cd25 Cd 0.66946 0.33115 0.90013 0.0
O26 O 0.65813 0.29686 0.92255 0.0
C27 C 0.63298 0.28967 0.93112 0.0
O28 O 0.61502 0.30327 0.92682 0.0
C29 C 0.68496 0.38213 0.87057 0.0
C30 C 0.62654 0.41047 0.78458 0.0
O31 O 0.62415 0.4194 0.80655 0.0
O32 O 0.63301 0.38948 0.78295 0.0
O33 O 0.92305 0.73364 0.33922 0.0
Cd34 Cd 0.90024 0.69052 0.31974 0.0
O35 O 0.88458 0.73124 0.36103 0.0
Cd36 Cd 0.85876 0.69172 0.35389 0.0
O37 O 0.82476 0.663 0.37147 0.0
C38 C 0.79822 0.65885 0.36426 0.0
O39 O 0.79166 0.67047 0.34472 0.0
C40 C 0.90946 0.74377 0.35441 0.0
C41 C 0.92114 0.67336 0.27597 0.0
O42 O 0.90288 0.68631 0.27462 0.0
O43 O 0.93058 0.66952 0.29789 0.0
O44 O 0.72935 0.79045 0.81588 0.0
Cd45 Cd 0.70494 0.76733 0.85081 0.0
O46 O 0.71005 0.82034 0.82613 0.0
Cd47 Cd 0.69783 0.85559 0.83006 0.0
O48 O 0.6769 0.87963 0.85105 0.0
C49 C 0.65232 0.86894 0.85948 0.0
O50 O 0.64032 0.84464 0.85413 0.0
C51 C 0.72627 0.81219 0.81194 0.0
C52 C 0.7393 0.74183 0.87613 0.0
O53 O 0.7206 0.73054 0.85859 0.0
O54 O 0.74173 0.76516 0.8817 0.0
O55 O 0.87987 0.27231 0.32927 0.0
Cd56 Cd 0.92442 0.28426 0.35623 0.0
O57 O 0.86147 0.29976 0.34786 0.0
Cd58 Cd 0.82932 0.32047 0.35238 0.0
O59 O 0.7983 0.3415 0.36027 0.0
C60 C 0.77275 0.32953 0.36566 0.0
O61 O 0.7655 0.30467 0.36592 0.0
C62 C 0.85924 0.28224 0.33117 0.0
C63 C 0.93436 0.24173 0.37766 0.0
O64 O 0.94231 0.24791 0.35562 0.0
O65 O 0.92185 0.25575 0.38967 0.0
O66 O 0.41303 0.7483 0.24091 0.0
Cd67 Cd 0.39099 0.70395 0.25301 0.0
O68 O 0.37537 0.74725 0.21522 0.0
Cd69 Cd 0.34819 0.70794 0.21724 0.0
O70 O 0.31153 0.67714 0.20041 0.0
C71 C 0.30985 0.67462 0.17659 0.0
O72 O 0.33042 0.68946 0.16411 0.0
C73 C 0.40012 0.75922 0.22543 0.0
C74 C 0.41008 0.68521 0.29735 0.0
O75 O 0.42246 0.68448 0.27672 0.0
O76 O 0.3896 0.69582 0.29741 0.0
O77 O 0.15447 0.37921 0.77042 0.0
Cd78 Cd 0.17049 0.36101 0.73291 0.0
O79 O 0.11873 0.34495 0.77677 0.0
Cd80 Cd 0.12394 0.3197 0.74547 0.0
O81 O 0.117 0.28596 0.71968 0.0
C82 C 0.09987 0.26508 0.72593 0.0
O83 O 0.08743 0.26457 0.74735 0.0
C84 C 0.1333 0.36769 0.78313 0.0
C85 C 0.21505 0.39415 0.7077 0.0
O86 O 0.18828 0.39208 0.7021 0.0
O87 O 0.22083 0.38105 0.72557 0.0
Tb88 Tb 0.984 0.99364 0.54022 0.0
Tb89 Tb 0.0482 0.02055 0.52809 0.0
C90 C 0.9356 0.96163 0.54339 0.0
C91 C 0.91776 0.95134 0.56449 0.0
C92 C 0.9045 0.92516 0.56504 0.0
C93 C 0.88804 0.91505 0.58517 0.0
C94 C 0.88439 0.93098 0.60507 0.0
C95 C 0.89761 0.95722 0.6044 0.0
C96 C 0.91425 0.96729 0.5844 0.0
C97 C 0.00778 0.03392 0.57154 0.0
C98 C 0.03664 0.98334 0.57116 0.0
C99 C 0.09621 0.0519 0.52083 0.0
C100 C 0.11165 0.06212 0.49871 0.0
C101 C 0.13756 0.0818 0.50178 0.0
C102 C 0.153 0.09117 0.48095 0.0
C103 C 0.14278 0.08093 0.45666 0.0
C104 C 0.11645 0.06141 0.4537 0.0
C105 C 0.10099 0.0521 0.47456 0.0
C106 C 0.02421 0.9756 0.50519 0.0
C107 C 0.99608 0.03344 0.49746 0.0
O108 O 0.95986 0.95544 0.54192 0.0
O109 O 0.93882 0.98556 0.53903 0.0
O110 O 0.01847 0.02477 0.55399 0.0
O111 O 0.98164 0.01915 0.57271 0.0
O112 O 0.00988 0.97363 0.56123 0.0
O113 O 0.05367 1.00526 0.56435 0.0
O114 O 0.07259 0.05834 0.52458 0.0
O115 O 0.09279 0.02778 0.52398 0.0
O116 O 0.01166 0.99215 0.51027 0.0
O117 O 0.05175 0.98529 0.51046 0.0
O118 O 0.02444 0.03794 0.50192 0.0
O119 O 0.97652 0.01594 0.50889 0.0
H120 H 0.90697 0.91252 0.54993 0.0
H121 H 0.87794 0.89478 0.58505 0.0
H122 H 0.89555 0.96994 0.6196 0.0
H123 H 0.92448 0.98754 0.58462 0.0
H124 H 0.14596 0.08983 0.52032 0.0
H125 H 0.17289 0.10651 0.48387 0.0
H126 H 0.10809 0.05293 0.43532 0.0
H127 H 0.08093 0.03688 0.47191 0.0
Tb128 Tb 0.55156 0.04171 0.09367 0.0
Tb129 Tb 0.49016 0.01401 0.07678 0.0
C130 C 0.59978 0.07399 0.10431 0.0
C131 C 0.61434 0.09374 0.12358 0.0
C132 C 0.6008 0.11111 0.13338 0.0
C133 C 0.616 0.13042 0.15077 0.0
C134 C 0.64498 0.13267 0.1585 0.0
C135 C 0.65813 0.11486 0.14898 0.0
C136 C 0.64297 0.09566 0.13168 0.0
C137 C 0.52823 1.00017 0.11764 0.0
C138 C 0.49888 0.05843 0.11587 0.0
C139 C 0.44299 0.98031 0.06662 0.0
C140 C 0.43008 0.96226 0.04563 0.0
C141 C 0.40531 0.94228 0.04919 0.0
C142 C 0.39155 0.92582 0.02907 0.0
C143 C 0.40224 0.9292 1.00496 0.0
C144 C 0.42777 0.94882 1.00171 0.0
C145 C 0.44163 0.96519 0.02192 0.0
C146 C 0.51355 0.05541 0.05263 0.0
C147 C 0.54243 0.99953 0.05126 0.0
O148 O 0.5792 0.07825 0.08981 0.0
O149 O 0.59334 0.05058 0.11122 0.0
O150 O 0.51569 0.01621 0.11074 0.0
O151 O 0.5553 0.00815 0.11281 0.0
O152 O 0.52677 0.06492 0.11119 0.0
O153 O 0.48109 0.03626 0.10785 0.0
O154 O 0.46507 0.97623 0.07916 0.0
O155 O 0.4472 1.00426 0.06211 0.0
O156 O 0.52584 0.03945 0.05999 0.0
O157 O 0.4862 0.04713 0.05654 0.0
O158 O 0.51468 0.99238 0.05633 0.0
O159 O 0.56039 0.02083 0.06128 0.0
H160 H 0.5787 0.11 0.12736 0.0
H161 H 0.60533 0.14391 0.15768 0.0
H162 H 0.68021 0.11575 0.15492 0.0
H163 H 0.65376 0.08239 0.12439 0.0
H164 H 0.39637 0.93959 0.06748 0.0
H165 H 0.37238 0.91056 0.0324 0.0
H166 H 0.4365 0.95212 0.9834 0.0
H167 H 0.46092 0.98049 0.01893 0.0
Tb168 Tb 0.50944 0.56325 0.54988 0.0
Tb169 Tb 0.50203 0.5114 0.52731 0.0
C170 C 0.50109 0.6051 0.56114 0.0
C171 C 0.47779 0.61353 0.57208 0.0
C172 C 0.47093 0.63461 0.56251 0.0
C173 C 0.44848 0.64275 0.57211 0.0
C174 C 0.43258 0.62998 0.59158 0.0
C175 C 0.43947 0.60879 0.60115 0.0
C176 C 0.46183 0.60055 0.59139 0.0
C177 C 0.53511 0.53562 0.5765 0.0
C178 C 0.45313 0.51735 0.56052 0.0
C179 C 0.51021 0.46998 0.51389 0.0
C180 C 0.53128 0.46205 0.4989 0.0
C181 C 0.56099 0.4753 0.50092 0.0
C182 C 0.58067 0.46694 0.48703 0.0
C183 C 0.571 0.44517 0.4709 0.0
C184 C 0.54117 0.43227 0.46863 0.0
C185 C 0.52154 0.44064 0.48252 0.0
C186 C 0.47818 0.54059 0.5005 0.0
C187 C 0.55924 0.55652 0.51782 0.0
O188 O 0.49468 0.5938 0.53887 0.0
O189 O 0.51541 0.59378 0.57591 0.0
O190 O 0.5107 0.52781 0.56458 0.0
O191 O 0.54495 0.56002 0.57502 0.0
O192 O 0.4652 0.54221 0.55986 0.0
O193 O 0.46569 0.50105 0.55101 0.0
O194 O 0.52023 0.48211 0.53536 0.0
O195 O 0.49241 0.48003 0.50167 0.0
O196 O 0.50215 0.54703 0.51287 0.0
O197 O 0.46706 0.51629 0.50172 0.0
O198 O 0.54596 0.53187 0.51718 0.0
O199 O 0.54766 0.57324 0.52802 0.0
H200 H 0.48301 0.6448 0.54759 0.0
H201 H 0.44389 0.65931 0.5646 0.0
H202 H 0.4274 0.59847 0.616 0.0
H203 H 0.46658 0.58404 0.59889 0.0
H204 H 0.5691 0.49191 0.51346 0.0
H205 H 0.60351 0.47718 0.48941 0.0
H206 H 0.53295 0.41569 0.45607 0.0
H207 H 0.49871 0.43025 0.48059 0.0
Tb208 Tb 1.00022 0.52711 0.00784 0.0
Tb209 Tb 0.00563 0.48773 0.04373 0.0
C210 C 0.98203 0.55543 0.97938 0.0
C211 C 0.96384 0.57279 0.98004 0.0
C212 C 0.93771 0.56687 0.9923 0.0
C213 C 0.91938 0.58243 0.99023 0.0
C214 C 0.92699 0.60415 0.97602 0.0
C215 C 0.95375 0.61062 0.96478 0.0
C216 C 0.97195 0.595 0.96671 0.0
C217 C 0.05181 0.53571 0.03128 0.0
C218 C 0.98075 0.53045 0.0642 0.0
C219 C 0.02272 0.45784 0.071 0.0
C220 C 0.04628 0.44572 0.07165 0.0
C221 C 0.07372 0.458 0.06316 0.0
C222 C 0.09635 0.44686 0.06568 0.0
C223 C 0.09185 0.42318 0.07651 0.0
C224 C 0.06409 0.41067 0.08426 0.0
C225 C 0.04156 0.42189 0.0819 0.0
C226 C 0.95401 0.47966 0.0205 0.0
C227 C 0.02844 0.48676 0.98862 0.0
O228 O 0.96883 0.5313 0.98134 0.0
O229 O 0.00699 0.56275 0.99224 0.0
O230 O 0.02758 0.52664 0.04031 0.0
O231 O 0.04766 0.54181 0.00844 0.0
O232 O 0.9786 0.53698 0.04062 0.0
O233 O 0.99294 0.5126 0.07028 0.0
O234 O 0.0305 0.48246 0.07508 0.0
O235 O 1.00275 0.45024 0.05273 0.0
O236 O 0.97826 0.48813 0.01129 0.0
O237 O 0.95811 0.47386 0.04342 0.0
O238 O 0.03191 0.4818 0.01252 0.0
O239 O 0.01304 0.50202 0.98177 0.0
H240 H 0.93108 0.54988 1.00283 0.0
H241 H 0.89895 0.57719 0.99921 0.0
H242 H 0.96002 0.62717 0.95358 0.0
H243 H 0.99201 0.59987 0.95713 0.0
H244 H 0.07778 0.47636 0.055 0.0
H245 H 0.11742 0.45682 0.05929 0.0
H246 H 0.06001 0.39257 0.09293 0.0
H247 H 0.02054 0.41216 0.08856 0.0
H248 H 0.25828 0.17207 0.25262 0.0
H249 H 0.22742 0.15 0.28475 0.0
H250 H 0.30321 0.15568 0.33338 0.0
H251 H 0.3343 0.17744 0.3012 0.0
H252 H 0.26341 0.10972 0.33546 0.0
H253 H 0.26393 0.19738 0.34059 0.0
H254 H 0.25748 0.23687 0.32417 0.0
H255 H 0.16779 0.19897 0.30433 0.0
H256 H 0.17382 0.15914 0.32034 0.0
H257 H 0.20168 0.09356 0.45339 0.0
H258 H 0.22969 0.10968 0.4175 0.0
H259 H 0.15058 0.10482 0.37378 0.0
H260 H 0.12241 0.08965 0.41001 0.0
H261 H 0.19011 0.14855 0.36742 0.0
H262 H 0.18866 0.0614 0.36456 0.0
H263 H 0.19498 0.02196 0.38119 0.0
H264 H 0.28587 0.05844 0.39672 0.0
H265 H 0.28003 0.09823 0.3805 0.0
C266 C 0.26843 0.16843 0.27005 0.0
C267 C 0.29876 0.17677 0.27446 0.0
C268 C 0.25073 0.15589 0.28843 0.0
C269 C 0.26299 0.15159 0.31162 0.0
C270 C 0.29329 0.1589 0.31566 0.0
C271 C 0.31103 0.17142 0.29727 0.0
C272 C 0.24424 0.14037 0.33203 0.0
C273 C 0.24756 0.11832 0.34263 0.0
C274 C 0.22308 0.15127 0.34096 0.0
C275 C 0.21941 0.17522 0.33141 0.0
C276 C 0.24289 0.19742 0.33255 0.0
C277 C 0.2393 0.21987 0.32335 0.0
C278 C 0.21227 0.22041 0.31315 0.0
C279 C 0.18874 0.19851 0.3122 0.0
C280 C 0.19222 0.176 0.32134 0.0
C281 C 0.19021 0.09612 0.43623 0.0
C282 C 0.15977 0.09034 0.43461 0.0
C283 C 0.20625 0.10504 0.4156 0.0
C284 C 0.19222 0.1081 0.39281 0.0
C285 C 0.16186 0.10245 0.39113 0.0
C286 C 0.14577 0.09361 0.4118 0.0
C287 C 0.20934 0.11792 0.371 0.0
C288 C 0.20576 0.13978 0.36016 0.0
C289 C 0.23022 0.10681 0.36184 0.0
C290 C 0.23385 0.08287 0.3715 0.0
C291 C 0.20996 0.06107 0.37169 0.0
C292 C 0.21346 0.03864 0.38102 0.0
C293 C 0.2408 0.03771 0.39006 0.0
C294 C 0.2647 0.0592 0.38973 0.0
C295 C 0.26131 0.08168 0.38045 0.0
H296 H 0.24346 0.02033 0.39727 0.0
H297 H 0.20953 0.23781 0.30604 0.0
H298 H 0.21211 0.80854 0.83684 0.0
H299 H 0.244 0.82811 0.87325 0.0
H300 H 0.31886 0.82951 0.83149 0.0
H301 H 0.28711 0.8097 0.79491 0.0
H302 H 0.32521 0.81683 0.88107 0.0
H303 H 0.29877 0.88155 0.83594 0.0
H304 H 0.26499 0.90169 0.81495 0.0
H305 H 0.22396 0.90511 0.88407 0.0
H306 H 0.25725 0.88463 0.9054 0.0
H307 H 0.42378 0.91012 0.96441 0.0
H308 H 0.39636 0.88618 0.92745 0.0
H309 H 0.31628 0.88747 0.95968 0.0
H310 H 0.34346 0.91254 0.99581 0.0
H311 H 0.31529 0.89935 0.91282 0.0
H312 H 0.34088 0.83342 0.95781 0.0
H313 H 0.37472 0.81327 0.97872 0.0
H314 H 0.41758 0.81235 0.91018 0.0
H315 H 0.38421 0.83279 0.88893 0.0
C316 C 0.23532 0.81269 0.83543 0.0
C317 C 0.24705 0.8078 0.81286 0.0
C318 C 0.25353 0.82394 0.85626 0.0
C319 C 0.28378 0.83061 0.8549 0.0
C320 C 0.29557 0.82458 0.83286 0.0
C321 C 0.27736 0.81333 0.81198 0.0
C322 C 0.30293 0.84524 0.87598 0.0
C323 C 0.32333 0.83502 0.88787 0.0
C324 C 0.30025 0.86885 0.88493 0.0
C325 C 0.28034 0.88135 0.87221 0.0
C326 C 0.28241 0.88643 0.84662 0.0
C327 C 0.26337 0.89792 0.83467 0.0
C328 C 0.24229 0.90462 0.84816 0.0
C329 C 0.24027 0.89988 0.87364 0.0
C330 C 0.25924 0.88835 0.88568 0.0
C331 C 0.40035 0.90545 0.96353 0.0
C332 C 0.38586 0.91325 0.98312 0.0
C333 C 0.38468 0.89149 0.94253 0.0
C334 C 0.35422 0.88479 0.9409 0.0
C335 C 0.33976 0.89236 0.96054 0.0
C336 C 0.35537 0.90647 0.98135 0.0
C337 C 0.33717 0.8707 0.91846 0.0
C338 C 0.31724 0.88115 0.90611 0.0
C339 C 0.34034 0.84734 0.90917 0.0
C340 C 0.36024 0.83486 0.92186 0.0
C341 C 0.35765 0.82908 0.94725 0.0
C342 C 0.37672 0.81758 0.95915 0.0
C343 C 0.39834 0.81159 0.94581 0.0
C344 C 0.40086 0.81702 0.9205 0.0
C345 C 0.38185 0.82854 0.90851 0.0
H346 H 0.41309 0.8027 0.95506 0.0
H347 H 0.22757 0.91352 0.83887 0.0
H348 H 0.62807 0.4602 0.78057 0.0
H349 H 0.61465 0.48053 0.74378 0.0
H350 H 0.59562 0.40961 0.70063 0.0
H351 H 0.6107 0.38963 0.73706 0.0
H352 H 0.61723 0.44402 0.67121 0.0
H353 H 0.54119 0.43428 0.72724 0.0
H354 H 0.51851 0.43778 0.7671 0.0
H355 H 0.54914 0.51898 0.76647 0.0
H356 H 0.57233 0.51595 0.72675 0.0
H357 H 0.51539 0.48485 0.58541 0.0
H358 H 0.53287 0.46225 0.61888 0.0
H359 H 0.5957 0.53194 0.64559 0.0
H360 H 0.57929 0.55437 0.61173 0.0
H361 H 0.5498 0.49637 0.68163 0.0
H362 H 0.62752 0.50253 0.62378 0.0
H363 H 0.64434 0.49549 0.58201 0.0
H364 H 0.60254 0.41563 0.58458 0.0
H365 H 0.58506 0.42229 0.62622 0.0
C366 C 0.62127 0.449 0.76317 0.0
C367 C 0.62031 0.42327 0.7618 0.0
C368 C 0.61333 0.46059 0.74213 0.0
C369 C 0.60325 0.44652 0.71941 0.0
C370 C 0.60315 0.42097 0.71784 0.0
C371 C 0.61175 0.40952 0.73874 0.0
C372 C 0.59239 0.45832 0.69756 0.0
C373 C 0.60226 0.45522 0.6736 0.0
C374 C 0.57266 0.47295 0.70027 0.0
C375 C 0.55874 0.47488 0.72415 0.0
C376 C 0.54326 0.45288 0.73569 0.0
C377 C 0.53029 0.45478 0.75825 0.0
C378 C 0.53245 0.47859 0.76935 0.0
C379 C 0.54752 0.50055 0.75787 0.0
C380 C 0.56056 0.49875 0.73533 0.0
C381 C 0.53326 0.49523 0.59815 0.0
C382 C 0.5461 0.52135 0.59581 0.0
C383 C 0.54313 0.48234 0.61729 0.0
C384 C 0.5656 0.49546 0.63464 0.0
C385 C 0.57839 0.52148 0.63234 0.0
C386 C 0.569 0.53424 0.61295 0.0
C387 C 0.57512 0.48236 0.65583 0.0
C388 C 0.56479 0.48514 0.67951 0.0
C389 C 0.59377 0.46698 0.65274 0.0
C390 C 0.60469 0.46295 0.62794 0.0
C391 C 0.62167 0.48351 0.61532 0.0
C392 C 0.63138 0.47958 0.5917 0.0
C393 C 0.62443 0.45514 0.58061 0.0
C394 C 0.60786 0.43456 0.59317 0.0
C395 C 0.59806 0.4384 0.61678 0.0
H396 H 0.63195 0.45214 0.56231 0.0
H397 H 0.52239 0.48002 0.78681 0.0
H398 H 0.90787 0.68052 0.22673 0.0
H399 H 0.91865 0.65897 0.18929 0.0
H400 H 0.96341 0.61779 0.2357 0.0
H401 H 0.95343 0.63979 0.27312 0.0
H402 H 0.99212 0.63076 0.19536 0.0
H403 H 0.89157 0.59147 0.2104 0.0
H404 H 0.84092 0.59053 0.21683 0.0
H405 H 0.83454 0.62124 0.14463 0.0
H406 H 0.8853 0.62265 0.1379 0.0
H407 H 0.98795 0.52615 0.11478 0.0
H408 H 0.97796 0.55262 0.14856 0.0
H409 H 0.9442 0.59497 0.09453 0.0
H410 H 0.95416 0.56844 0.06034 0.0
H411 H 0.91055 0.58406 0.13621 0.0
H412 H 0.01023 0.62023 0.11998 0.0
H413 H 0.06019 0.61932 0.1131 0.0
H414 H 0.06797 0.59354 0.18739 0.0
H415 H 0.01786 0.59389 0.19457 0.0
C416 C 0.92024 0.66705 0.22897 0.0
C417 C 0.92964 0.66183 0.25302 0.0
C418 C 0.92625 0.65458 0.20751 0.0
C419 C 0.94139 0.6363 0.20956 0.0
C420 C 0.95162 0.63171 0.2335 0.0
C421 C 0.94584 0.64432 0.25495 0.0
C422 C 0.946 0.62148 0.18696 0.0
C423 C 0.9742 0.62039 0.18261 0.0
C424 C 0.92283 0.60834 0.16978 0.0
C425 C 0.89231 0.60742 0.17377 0.0
C426 C 0.87942 0.59819 0.19597 0.0
C427 C 0.85069 0.59755 0.19966 0.0
C428 C 0.83455 0.60589 0.18118 0.0
C429 C 0.84709 0.61483 0.15894 0.0
C430 C 0.87582 0.61554 0.15518 0.0
C431 C 0.97816 0.54091 0.10994 0.0
C432 C 0.972 0.54516 0.08471 0.0
C433 C 0.97259 0.55616 0.12937 0.0
C434 C 0.96072 0.57606 0.12413 0.0
C435 C 0.9535 0.57981 0.09904 0.0
C436 C 0.95923 0.56462 0.07951 0.0
C437 C 0.95651 0.59313 0.14492 0.0
C438 C 0.92845 0.59462 0.1489 0.0
C439 C 0.97978 0.60659 0.16177 0.0
C440 C 0.01018 0.60689 0.15774 0.0
C441 C 0.02252 0.61422 0.1348 0.0
C442 C 0.05087 0.61381 0.13085 0.0
C443 C 0.06722 0.60632 0.14977 0.0
C444 C 0.05527 0.59931 0.17273 0.0
C445 C 0.0269 0.59964 0.17677 0.0
H446 H 0.08915 0.60597 0.14666 0.0
H447 H 0.81231 0.60538 0.18407 0.0
H448 H 0.34738 0.2096 0.17265 0.0
H449 H 0.36762 0.17411 0.16558 0.0
H450 H 0.45353 0.22651 0.16609 0.0
H451 H 0.43335 0.26194 0.17292 0.0
H452 H 0.44574 0.19363 0.12851 0.0
H453 H 0.42886 0.18803 0.21657 0.0
H454 H 0.39914 0.18492 0.25333 0.0
H455 H 0.34219 0.11417 0.22304 0.0
H456 H 0.37141 0.11699 0.18593 0.0
H457 H 0.52769 0.10709 0.13228 0.0
H458 H 0.50655 0.14009 0.1463 0.0
H459 H 0.42145 0.08619 0.14071 0.0
H460 H 0.44245 0.05291 0.12694 0.0
H461 H 0.42778 0.11885 0.18136 0.0
H462 H 0.44325 0.12476 0.09339 0.0
H463 H 0.47014 0.12892 0.05486 0.0
H464 H 0.52827 0.19949 0.08431 0.0
H465 H 0.50182 0.19568 0.12314 0.0
C466 C 0.37061 0.21348 0.17173 0.0
C467 C 0.38884 0.2385 0.17378 0.0
C468 C 0.38217 0.19319 0.16761 0.0
C469 C 0.4122 0.19757 0.16573 0.0
C470 C 0.43033 0.22261 0.16755 0.0
C471 C 0.41877 0.24285 0.17142 0.0
C472 C 0.4248 0.17629 0.16089 0.0
C473 C 0.44219 0.17751 0.14036 0.0
C474 C 0.41945 0.15482 0.17584 0.0
C475 C 0.40218 0.15284 0.19837 0.0
C476 C 0.40991 0.17187 0.21768 0.0
C477 C 0.39317 0.17015 0.23859 0.0
C478 C 0.36874 0.1494 0.24049 0.0
C479 C 0.3611 0.13025 0.22153 0.0
C480 C 0.37777 0.13188 0.20058 0.0
C481 C 0.50456 0.10206 0.13445 0.0
C482 C 0.48679 0.07734 0.12826 0.0
C483 C 0.49247 0.12103 0.14235 0.0
C484 C 0.46234 0.11573 0.14409 0.0
C485 C 0.44473 0.09075 0.13939 0.0
C486 C 0.45681 0.07174 0.13149 0.0
C487 C 0.44912 0.13651 0.14927 0.0
C488 C 0.43149 0.13511 0.1697 0.0
C489 C 0.45419 0.15788 0.13422 0.0
C490 C 0.47074 0.1598 0.11127 0.0
C491 C 0.46198 0.14102 0.09179 0.0
C492 C 0.47709 0.14334 0.06987 0.0
C493 C 0.50093 0.16442 0.06719 0.0
C494 C 0.50981 0.18317 0.08645 0.0
C495 C 0.49475 0.18095 0.1084 0.0
H496 H 0.51237 0.16633 0.05012 0.0
H497 H 0.35576 0.14814 0.25666 0.0
H498 H 0.10899 0.81443 0.70077 0.0
H499 H 0.08635 0.84063 0.67545 0.0
H500 H 0.16759 0.89987 0.67839 0.0
H501 H 0.19027 0.874 0.70389 0.0
H502 H 0.12375 0.91855 0.6892 0.0
H503 H 0.14232 0.86295 0.6253 0.0
H504 H 0.14022 0.82192 0.60434 0.0
H505 H 0.0472 0.80227 0.59801 0.0
H506 H 0.04872 0.84303 0.6193 0.0
H507 H 0.09139 0.99507 0.59369 0.0
H508 H 0.11178 0.96827 0.6201 0.0
H509 H 0.02913 0.91077 0.61553 0.0
H510 H 0.00862 0.93725 0.58889 0.0
H511 H 0.07233 0.89074 0.60609 0.0
H512 H 0.05375 0.94664 0.66936 0.0
H513 H 0.0559 0.98791 0.68979 0.0
H514 H 0.14886 0.00714 0.69697 0.0
H515 H 0.1473 0.9661 0.67625 0.0
C516 C 0.1221 0.83295 0.69585 0.0
C517 C 0.15143 0.84214 0.70438 0.0
C518 C 0.10914 0.84788 0.68132 0.0
C519 C 0.12533 0.87218 0.67495 0.0
C520 C 0.15469 0.88122 0.68315 0.0
C521 C 0.16763 0.86634 0.69765 0.0
C522 C 0.11152 0.88858 0.66042 0.0
C523 C 0.11281 0.91259 0.67088 0.0
C524 C 0.09659 0.88053 0.63683 0.0
C525 C 0.09563 0.85593 0.62417 0.0
C526 C 0.1214 0.84977 0.61968 0.0
C527 C 0.12032 0.82659 0.60768 0.0
C528 C 0.09359 0.80947 0.59992 0.0
C529 C 0.06789 0.81552 0.60408 0.0
C530 C 0.06885 0.83867 0.6161 0.0
C531 C 0.07743 0.97686 0.59852 0.0
C532 C 0.04837 0.96832 0.58913 0.0
C533 C 0.08912 0.96157 0.61368 0.0
C534 C 0.07193 0.93757 0.61988 0.0
C535 C 0.04278 0.92921 0.61094 0.0
C536 C 0.03108 0.94445 0.59578 0.0
C537 C 0.08466 0.92074 0.63483 0.0
C538 C 0.08317 0.89665 0.62445 0.0
C539 C 0.09941 0.92871 0.65849 0.0
C540 C 0.10041 0.95338 0.67104 0.0
C541 C 0.07467 0.95974 0.67511 0.0
C542 C 0.07578 0.98309 0.68678 0.0
C543 C 0.1025 1.00016 0.69462 0.0
C544 C 0.12818 0.9939 0.69087 0.0
C545 C 0.12719 0.97059 0.67918 0.0
H546 H 0.10332 0.01822 0.70365 0.0
H547 H 0.0928 0.79153 0.59062 0.0
H548 H 0.72174 0.35601 0.88856 0.0
H549 H 0.76695 0.37299 0.91437 0.0
H550 H 0.75259 0.44687 0.9168 0.0
H551 H 0.70858 0.43024 0.88968 0.0
H552 H 0.80468 0.45477 0.91187 0.0
H553 H 0.7419 0.40345 0.96833 0.0
H554 H 0.70787 0.36472 0.98303 0.0
H555 H 0.77326 0.3259 0.97899 0.0
H556 H 0.80757 0.36432 0.96393 0.0
H557 H 0.89988 0.46424 0.03822 0.0
H558 H 0.85336 0.44899 0.0139 0.0
H559 H 0.89841 0.45963 0.94531 0.0
H560 H 0.94468 0.47589 0.96958 0.0
H561 H 0.82987 0.4106 0.98518 0.0
H562 H 0.85999 0.47149 0.89806 0.0
H563 H 0.88914 0.51455 0.8885 0.0
H564 H 0.87995 0.54156 0.96295 0.0
H565 H 0.85108 0.49877 0.97302 0.0
C566 C 0.72821 0.37582 0.89479 0.0
C567 C 0.71157 0.39177 0.88725 0.0
C568 C 0.75404 0.38555 0.90966 0.0
C569 C 0.76322 0.41125 0.91806 0.0
C570 C 0.7463 0.42705 0.91061 0.0
C571 C 0.72101 0.4175 0.89518 0.0
C572 C 0.79063 0.42192 0.93412 0.0
C573 C 0.81004 0.44502 0.9279 0.0
C574 C 0.79768 0.40976 0.95552 0.0
C575 C 0.77721 0.38669 0.96477 0.0
C576 C 0.74896 0.3866 0.97043 0.0
C577 C 0.72963 0.36471 0.97884 0.0
C578 C 0.73837 0.34284 0.98187 0.0
C579 C 0.7665 0.34285 0.97659 0.0
C580 C 0.78591 0.36468 0.96814 0.0
C581 C 0.89975 0.46355 0.01794 0.0
C582 C 0.92585 0.47138 0.00579 0.0
C583 C 0.87316 0.45471 1.00402 0.0
C584 C 0.87213 0.45331 0.97765 0.0
C585 C 0.89835 0.46103 0.96556 0.0
C586 C 0.92488 0.47024 0.97946 0.0
C587 C 0.84378 0.44332 0.96283 0.0
C588 C 0.82435 0.42031 0.96919 0.0
C589 C 0.83601 0.45614 0.94228 0.0
C590 C 0.85362 0.48189 0.93634 0.0
C591 C 0.86426 0.48665 0.91239 0.0
C592 C 0.88083 0.511 0.90691 0.0
C593 C 0.88663 0.53078 0.92518 0.0
C594 C 0.87581 0.52624 0.94892 0.0
C595 C 0.85942 0.50192 0.95455 0.0
H596 H 0.89938 0.54964 0.92092 0.0
H597 H 0.72336 0.32591 0.98837 0.0
H598 H 0.73972 0.64452 0.353 0.0
H599 H 0.70119 0.62452 0.38027 0.0
H600 H 0.76521 0.62007 0.43772 0.0
H601 H 0.80394 0.63958 0.41031 0.0
H602 H 0.71955 0.57868 0.43698 0.0
H603 H 0.73433 0.66832 0.43986 0.0
H604 H 0.73925 0.71022 0.42254 0.0
H605 H 0.65238 0.6837 0.38947 0.0
H606 H 0.64708 0.64152 0.40632 0.0
H607 H 0.60019 0.60275 0.5233 0.0
H608 H 0.6435 0.61804 0.4995 0.0
H609 H 0.62133 0.5465 0.4571 0.0
H610 H 0.57894 0.5308 0.48154 0.0
H611 H 0.64937 0.62712 0.45346 0.0
H612 H 0.68067 0.53398 0.4348 0.0
H613 H 0.67657 0.49383 0.45551 0.0
H614 H 0.67562 0.53074 0.52723 0.0
H615 H 0.6806 0.5713 0.50709 0.0
C616 C 0.74565 0.63899 0.3713 0.0
C617 C 0.77494 0.64392 0.37956 0.0
C618 C 0.72357 0.62763 0.38692 0.0
C619 C 0.73029 0.62126 0.41126 0.0
C620 C 0.75948 0.62492 0.41907 0.0
C621 C 0.78161 0.63613 0.40338 0.0
C622 C 0.70698 0.61226 0.42897 0.0
C623 C 0.70419 0.58923 0.44061 0.0
C624 C 0.68736 0.62633 0.43425 0.0
C625 C 0.69041 0.6517 0.42416 0.0
C626 C 0.71635 0.67138 0.42875 0.0
C627 C 0.7192 0.69518 0.41904 0.0
C628 C 0.69617 0.6996 0.40487 0.0
C629 C 0.67021 0.68024 0.40043 0.0
C630 C 0.66726 0.65639 0.41007 0.0
C631 C 0.60479 0.5902 0.50912 0.0
C632 C 0.58626 0.56552 0.50444 0.0
C633 C 0.6295 0.59897 0.49545 0.0
C634 C 0.63598 0.58337 0.47663 0.0
C635 C 0.61735 0.55874 0.4719 0.0
C636 C 0.59299 0.54979 0.48587 0.0
C637 C 0.66147 0.59324 0.46123 0.0
C638 C 0.66471 0.6165 0.44998 0.0
C639 C 0.68188 0.57964 0.45689 0.0
C640 C 0.68063 0.55565 0.46935 0.0
C641 C 0.67987 0.53361 0.45501 0.0
C642 C 0.67733 0.51075 0.46665 0.0
C643 C 0.6755 0.50968 0.49262 0.0
C644 C 0.67682 0.53156 0.50709 0.0
C645 C 0.67957 0.55451 0.49557 0.0
H646 H 0.67309 0.4919 0.50156 0.0
H647 H 0.69841 0.71804 0.39736 0.0
H648 H 0.27075 0.3123 0.17193 0.0
H649 H 0.22941 0.32534 0.15522 0.0
H650 H 0.28261 0.36823 0.09979 0.0
H651 H 0.32397 0.35501 0.11617 0.0
H652 H 0.22406 0.37192 0.15446 0.0
H653 H 0.2398 0.37101 0.04764 0.0
H654 H 0.2583 0.34708 0.01589 0.0
H655 H 0.23881 0.2821 0.06137 0.0
H656 H 0.21985 0.30551 0.09322 0.0
H657 H 0.14697 0.44735 0.0951 0.0
H658 H 0.18591 0.42845 0.10574 0.0
H659 H 0.13075 0.35498 0.07929 0.0
H660 H 0.09178 0.37385 0.06825 0.0
H661 H 0.18742 0.36342 0.06534 0.0
H662 H 0.1371 0.36878 0.13982 0.0
H663 H 0.11621 0.3903 0.17193 0.0
H664 H 0.20058 0.44114 0.19217 0.0
H665 H 0.22192 0.42013 0.15992 0.0
C666 C 0.27358 0.32423 0.15597 0.0
C667 C 0.30069 0.33264 0.14541 0.0
C668 C 0.24994 0.33174 0.14649 0.0
C669 C 0.25285 0.3477 0.1262 0.0
C670 C 0.27972 0.35565 0.11524 0.0
C671 C 0.30338 0.34813 0.1247 0.0
C672 C 0.22829 0.35717 0.11746 0.0
C673 C 0.21607 0.37 0.13497 0.0
C674 C 0.2176 0.35448 0.09208 0.0
C675 C 0.22866 0.34012 0.07292 0.0
C676 C 0.23936 0.35158 0.05082 0.0
C677 C 0.24995 0.33812 0.03281 0.0
C678 C 0.24982 0.31312 0.03665 0.0
C679 C 0.23901 0.3015 0.05847 0.0
C680 C 0.22838 0.31488 0.07652 0.0
C681 C 0.14329 0.42725 0.09113 0.0
C682 C 0.11625 0.41206 0.08094 0.0
C683 C 0.16549 0.41645 0.09738 0.0
C684 C 0.1611 0.39027 0.09355 0.0
C685 C 0.13455 0.37521 0.08246 0.0
C686 C 0.11226 0.38598 0.07633 0.0
C687 C 0.18368 0.37847 0.10228 0.0
C688 C 0.1955 0.36528 0.0848 0.0
C689 C 0.19377 0.38049 0.12776 0.0
C690 C 0.18106 0.39303 0.14731 0.0
C691 C 0.15116 0.38467 0.151 0.0
C692 C 0.13925 0.39675 0.16924 0.0
C693 C 0.15705 0.41711 0.18404 0.0
C694 C 0.18682 0.42538 0.18068 0.0
C695 C 0.19884 0.41338 0.16243 0.0
H696 H 0.14778 0.42645 0.19816 0.0
H697 H 0.25803 0.30273 0.02269 0.0
H698 H 0.581 0.27023 0.95197 0.0
H699 H 0.56429 0.23087 0.97367 0.0
H700 H 0.64618 0.21573 0.96374 0.0
H701 H 0.66304 0.25517 0.94161 0.0
H702 H 0.60198 0.17372 0.95299 0.0
H703 H 0.62928 0.23546 0.02106 0.0
H704 H 0.6307 0.27422 0.046 0.0
H705 H 0.53882 0.24676 0.05376 0.0
H706 H 0.53675 0.20806 0.02844 0.0
H707 H 0.56921 0.07157 0.03772 0.0
H708 H 0.59254 0.11139 0.01805 0.0
H709 H 0.5128 0.13211 0.01936 0.0
H710 H 0.48964 0.09265 0.03952 0.0
H711 H 0.56069 0.17146 0.03646 0.0
H712 H 0.53291 0.11103 0.96582 0.0
H713 H 0.53189 0.07171 0.942 0.0
H714 H 0.62471 0.09649 0.94004 0.0
H715 H 0.62631 0.13582 0.96418 0.0
C716 C 0.5956 0.25865 0.95445 0.0
C717 C 0.62344 0.26598 0.94504 0.0
C718 C 0.58601 0.23613 0.96701 0.0
C719 C 0.60405 0.22038 0.97066 0.0
C720 C 0.63186 0.22756 0.96123 0.0
C721 C 0.64151 0.25017 0.94865 0.0
C722 C 0.59346 0.19622 0.9838 0.0
C723 C 0.59331 0.1733 0.9714 0.0
C724 C 0.58172 0.19548 0.0077 0.0
C725 C 0.58283 0.21893 0.02265 0.0
C726 C 0.60933 0.23779 0.02786 0.0
C727 C 0.61026 0.25975 0.0421 0.0
C728 C 0.58486 0.26299 0.05141 0.0
C729 C 0.55848 0.24426 0.0465 0.0
C730 C 0.55742 0.2223 0.03222 0.0
C731 C 0.55674 0.08471 0.03392 0.0
C732 C 0.52767 0.07912 0.0403 0.0
C733 C 0.57004 0.10739 0.02258 0.0
C734 C 0.55445 0.12481 0.01726 0.0
C735 C 0.52536 0.11913 0.02354 0.0
C736 C 0.5121 0.09651 0.0349 0.0
C737 C 0.56832 0.14905 1.00531 0.0
C738 C 0.56925 0.17195 0.01802 0.0
C739 C 0.58071 0.14976 0.98174 0.0
C740 C 0.57975 0.12624 0.96704 0.0
C741 C 0.55312 0.108 0.96048 0.0
C742 C 0.55243 0.08573 0.94689 0.0
C743 C 0.57822 0.08157 0.93957 0.0
C744 C 0.60475 0.09972 0.94576 0.0
C745 C 0.60556 0.12201 0.95938 0.0
H746 H 0.57765 0.06431 0.92906 0.0
H747 H 0.58564 0.27998 0.06246 0.0
H748 H 0.88102 0.77541 0.37396 0.0
H749 H 0.90158 0.81577 0.39737 0.0
H750 H 0.98785 0.81122 0.38542 0.0
H751 H 0.96728 0.77058 0.36157 0.0
H752 H 0.97837 0.8215 0.43613 0.0
H753 H 0.96476 0.85372 0.35548 0.0
H754 H 0.9374 0.85763 0.31641 0.0
H755 H 0.87657 0.88287 0.3589 0.0
H756 H 0.90334 0.87876 0.39827 0.0
H757 H 0.05285 0.94358 0.48732 0.0
H758 H 0.03365 0.90531 0.46047 0.0
H759 H 0.94792 0.91494 0.46162 0.0
H760 H 0.96745 0.95406 0.48801 0.0
H761 H 0.9575 0.902 0.41577 0.0
H762 H 0.96846 0.86922 0.49595 0.0
H763 H 0.99361 0.86461 0.53597 0.0
H764 H 0.05618 0.8391 0.49612 0.0
H765 H 0.03165 0.84393 0.45581 0.0
C766 C 0.90441 0.7831 0.37598 0.0
C767 C 0.92252 0.76973 0.36587 0.0
C768 C 0.91612 0.80626 0.38936 0.0
C769 C 0.94626 0.81659 0.39315 0.0
C770 C 0.96451 0.8036 0.3827 0.0
C771 C 0.95275 0.78048 0.36894 0.0
C772 C 0.95836 0.8403 0.40907 0.0
C773 C 0.97429 0.83924 0.43147 0.0
C774 C 0.95204 0.86318 0.40349 0.0
C775 C 0.93592 0.86571 0.37984 0.0
C776 C 0.94541 0.85989 0.35651 0.0
C777 C 0.93003 0.86219 0.33431 0.0
C778 C 0.90522 0.87044 0.33518 0.0
C779 C 0.89577 0.87646 0.35826 0.0
C780 C 0.91106 0.87418 0.38052 0.0
C781 C 0.02986 0.93753 0.48197 0.0
C782 C 0.01162 0.95177 0.48986 0.0
C783 C 0.01885 0.91551 0.46668 0.0
C784 C 0.9892 0.90687 0.45925 0.0
C785 C 0.97086 0.92111 0.46713 0.0
C786 C 0.98198 0.94338 0.48231 0.0
C787 C 0.97767 0.8833 0.44289 0.0
C788 C 0.96173 0.88432 0.42045 0.0
C789 C 0.98363 0.86025 0.44861 0.0
C790 C 0.99836 0.85717 0.47283 0.0
C791 C 0.98771 0.8628 0.4957 0.0
C792 C 1.00184 0.86012 0.51845 0.0
C793 C 0.02652 0.85162 0.51859 0.0
C794 C 0.03708 0.84571 0.49598 0.0
C795 C 0.02306 0.8484 0.47317 0.0
H796 H 0.03743 0.84956 0.53622 0.0
H797 H 0.89335 0.87221 0.31797 0.0
H798 H 0.28037 0.7705 0.66796 0.0
H799 H 0.31005 0.7475 0.64731 0.0
H800 H 0.26692 0.67989 0.68469 0.0
H801 H 0.23683 0.70267 0.70519 0.0
H802 H 0.34843 0.7267 0.66819 0.0
H803 H 0.26651 0.62788 0.64719 0.0
H804 H 0.21406 0.60886 0.6374 0.0
H805 H 0.20829 0.67824 0.60616 0.0
H806 H 0.26075 0.69755 0.61546 0.0
H807 H 0.42321 0.63661 0.64099 0.0
H808 H 0.3873 0.65505 0.65851 0.0
H809 H 0.35415 0.66309 0.58382 0.0
H810 H 0.38985 0.64445 0.56617 0.0
H811 H 0.31026 0.64609 0.61728 0.0
H812 H 0.39955 0.71261 0.612 0.0
H813 H 0.45212 0.73275 0.61954 0.0
H814 H 0.44293 0.73081 0.69904 0.0
H815 H 0.39033 0.7103 0.69196 0.0
C816 C 0.27699 0.75067 0.67162 0.0
C817 C 0.25625 0.73842 0.68824 0.0
C818 C 0.29404 0.73758 0.65986 0.0
C819 C 0.29063 0.71196 0.66437 0.0
C820 C 0.26966 0.69956 0.68067 0.0
C821 C 0.25255 0.71264 0.69244 0.0
C822 C 0.30993 0.69863 0.65283 0.0
C823 C 0.34003 0.70907 0.65708 0.0
C824 C 0.29902 0.67571 0.6382 0.0
C825 C 0.2675 0.66423 0.63227 0.0
C826 C 0.25406 0.63904 0.63816 0.0
C827 C 0.22433 0.62822 0.63271 0.0
C828 C 0.20784 0.64236 0.62124 0.0
C829 C 0.22106 0.66734 0.61513 0.0
C830 C 0.25079 0.67824 0.62053 0.0
C831 C 0.40796 0.64193 0.62833 0.0
C832 C 0.40942 0.63926 0.60222 0.0
C833 C 0.38758 0.65256 0.63834 0.0
C834 C 0.36827 0.66059 0.62243 0.0
C835 C 0.3689 0.65701 0.59639 0.0
C836 C 0.38942 0.64657 0.58635 0.0
C837 C 0.34859 0.67409 0.63289 0.0
C838 C 0.31853 0.66367 0.62849 0.0
C839 C 0.35949 0.69721 0.64714 0.0
C840 C 0.39107 0.70969 0.65145 0.0
C841 C 0.40878 0.71629 0.63109 0.0
C842 C 0.43858 0.72781 0.63528 0.0
C843 C 0.45087 0.733 0.65975 0.0
C844 C 0.43338 0.72675 0.68009 0.0
C845 C 0.40357 0.71519 0.676 0.0
H846 H 0.47394 0.74192 0.66296 0.0
H847 H 0.18482 0.63395 0.61705 0.0
H848 H 0.77072 0.80349 0.78723 0.0
H849 H 0.79667 0.82693 0.75349 0.0
H850 H 0.74418 0.87844 0.7567 0.0
H851 H 0.71732 0.85447 0.79016 0.0
H852 H 0.75003 0.86463 0.70895 0.0
H853 H 0.81448 0.8972 0.78009 0.0
H854 H 0.84337 0.89561 0.81898 0.0
H855 H 0.89346 0.85592 0.77878 0.0
H856 H 0.86459 0.85694 0.7397 0.0
H857 H 0.84413 0.94872 0.62839 0.0
H858 H 0.81664 0.93143 0.66444 0.0
H859 H 0.85831 0.87183 0.66648 0.0
H860 H 0.88609 0.88917 0.63065 0.0
H861 H 0.85763 0.89429 0.71325 0.0
H862 H 0.79009 0.85946 0.64278 0.0
H863 H 0.76104 0.86161 0.60413 0.0
H864 H 0.71693 0.90712 0.64379 0.0
H865 H 0.74603 0.90553 0.68262 0.0
C866 C 0.76463 0.81984 0.78088 0.0
C867 C 0.74211 0.82727 0.79175 0.0
C868 C 0.77968 0.83335 0.76164 0.0
C869 C 0.77278 0.85476 0.75284 0.0
C870 C 0.75007 0.86212 0.76337 0.0
C871 C 0.7349 0.84853 0.7827 0.0
C872 C 0.78898 0.86886 0.73224 0.0
C873 C 0.77353 0.87157 0.71008 0.0
C874 C 0.81969 0.87758 0.73353 0.0
C875 C 0.8372 0.87698 0.75698 0.0
C876 C 0.83151 0.88796 0.77957 0.0
C877 C 0.84791 0.88719 0.80165 0.0
C878 C 0.8702 0.87563 0.80136 0.0
C879 C 0.87618 0.86486 0.77898 0.0
C880 C 0.85983 0.86555 0.75685 0.0
C881 C 0.8475 0.93198 0.63659 0.0
C882 C 0.86724 0.92027 0.62664 0.0
C883 C 0.83165 0.92204 0.65708 0.0
C884 C 0.83531 0.90026 0.66806 0.0
C885 C 0.85513 0.88864 0.65827 0.0
C886 C 0.87081 0.89844 0.63768 0.0
C887 C 0.8187 0.8896 0.68988 0.0
C888 C 0.83411 0.88758 0.71226 0.0
C889 C 0.78799 0.88169 0.68884 0.0
C890 C 0.77047 0.88262 0.66552 0.0
C891 C 0.77438 0.87012 0.6432 0.0
C892 C 0.75787 0.87119 0.62128 0.0
C893 C 0.73722 0.88456 0.62149 0.0
C894 C 0.73297 0.89682 0.64365 0.0
C895 C 0.74946 0.89582 0.66562 0.0
H896 H 0.72445 0.88536 0.6045 0.0
H897 H 0.88287 0.87505 0.81848 0.0
H898 H 0.80246 0.27683 0.341 0.0
H899 H 0.7595 0.25865 0.31265 0.0
H900 H 0.81453 0.24769 0.25451 0.0
H901 H 0.85741 0.26629 0.28254 0.0
H902 H 0.76919 0.26493 0.23619 0.0
H903 H 0.78438 0.20011 0.29124 0.0
H904 H 0.78902 0.18251 0.33259 0.0
H905 H 0.70429 0.18726 0.34909 0.0
H906 H 0.69932 0.20518 0.30791 0.0
H907 H 0.70102 0.16135 0.1556 0.0
H908 H 0.73034 0.19319 0.18608 0.0
H909 H 0.65659 0.18408 0.23148 0.0
H910 H 0.62721 0.15128 0.20127 0.0
H911 H 0.70291 0.18296 0.25947 0.0
H912 H 0.68353 0.23906 0.20053 0.0
H913 H 0.67845 0.2561 0.15901 0.0
H914 H 0.76942 0.26858 0.14968 0.0
H915 H 0.775 0.25126 0.19099 0.0
C916 C 0.80539 0.27128 0.32194 0.0
C917 C 0.83327 0.2733 0.31383 0.0
C918 C 0.78084 0.26063 0.30587 0.0
C919 C 0.78385 0.25179 0.2815 0.0
C920 C 0.81173 0.25453 0.27318 0.0
C921 C 0.83618 0.265 0.28925 0.0
C922 C 0.75824 0.23799 0.26504 0.0
C923 C 0.75463 0.24702 0.24121 0.0
C924 C 0.73866 0.21509 0.272 0.0
C925 C 0.74163 0.20426 0.29667 0.0
C926 C 0.76684 0.19758 0.30378 0.0
C927 C 0.76951 0.18751 0.32716 0.0
C928 C 0.747 0.18385 0.34349 0.0
C929 C 0.72174 0.19016 0.33644 0.0
C930 C 0.71898 0.20026 0.31309 0.0
C931 C 0.69098 0.16609 0.17206 0.0
C932 C 0.66185 0.15361 0.17613 0.0
C933 C 0.70768 0.18458 0.18933 0.0
C934 C 0.69559 0.19131 0.21094 0.0
C935 C 0.66632 0.1793 0.21485 0.0
C936 C 0.64953 0.16068 0.19753 0.0
C937 C 0.71442 0.20941 0.23014 0.0
C938 C 0.71683 0.20121 0.25454 0.0
C939 C 0.73279 0.23314 0.22372 0.0
C940 C 0.72964 0.24374 0.19887 0.0
C941 C 0.70243 0.24528 0.18957 0.0
C942 C 0.69946 0.25502 0.16607 0.0
C943 C 0.72359 0.26339 0.15171 0.0
C944 C 0.75075 0.2621 0.16084 0.0
C945 C 0.75384 0.25236 0.18432 0.0
H946 H 0.72125 0.27091 0.13351 0.0
H947 H 0.74911 0.17605 0.36159 0.0
H948 H 0.45306 0.66187 0.30326 0.0
H949 H 0.46347 0.63869 0.33911 0.0
H950 H 0.39493 0.65648 0.37822 0.0
H951 H 0.38479 0.68013 0.34261 0.0
H952 H 0.43934 0.65991 0.41022 0.0
H953 H 0.38523 0.59768 0.34833 0.0
H954 H 0.37388 0.57594 0.30648 0.0
H955 H 0.45505 0.55813 0.31085 0.0
H956 H 0.46706 0.58006 0.3526 0.0
H957 H 0.42899 0.52828 0.46934 0.0
H958 H 0.41551 0.55393 0.43677 0.0
H959 H 0.49396 0.61413 0.45603 0.0
H960 H 0.50727 0.58871 0.48867 0.0
H961 H 0.44053 0.57088 0.39567 0.0
H962 H 0.48358 0.67174 0.44352 0.0
H963 H 0.4897 0.69246 0.4858 0.0
H964 H 0.42215 0.63048 0.51113 0.0
H965 H 0.41523 0.60959 0.46888 0.0
C966 C 0.44034 0.66106 0.31956 0.0
C967 C 0.41798 0.67281 0.31993 0.0
C968 C 0.44621 0.64764 0.34004 0.0
C969 C 0.42968 0.64538 0.36132 0.0
C970 C 0.40798 0.65782 0.36207 0.0
C971 C 0.40217 0.67134 0.34162 0.0
C972 C 0.43455 0.62961 0.38247 0.0
C973 C 0.43966 0.64046 0.40701 0.0
C974 C 0.43434 0.60399 0.37854 0.0
C975 C 0.42715 0.59071 0.35348 0.0
C976 C 0.40075 0.58928 0.34028 0.0
C977 C 0.39418 0.5769 0.3166 0.0
C978 C 0.41377 0.56571 0.30599 0.0
C979 C 0.43992 0.56683 0.31907 0.0
C980 C 0.4466 0.57921 0.34276 0.0
C981 C 0.44319 0.54708 0.46676 0.0
C982 C 0.46908 0.55651 0.48169 0.0
C983 C 0.43553 0.56171 0.44808 0.0
C984 C 0.45354 0.58614 0.44398 0.0
C985 C 0.47937 0.59559 0.45902 0.0
C986 C 0.48699 0.581 0.4777 0.0
C987 C 0.44593 0.60132 0.4234 0.0
C988 C 0.44028 0.59034 0.39893 0.0
C989 C 0.44511 0.62665 0.42752 0.0
C990 C 0.44908 0.639 0.45305 0.0
C991 C 0.46995 0.66257 0.45808 0.0
C992 C 0.47355 0.67435 0.48203 0.0
C993 C 0.45633 0.66279 0.50111 0.0
C994 C 0.4355 0.63939 0.49631 0.0
C995 C 0.43175 0.62755 0.47237 0.0
H996 H 0.45909 0.67202 0.5196 0.0
H997 H 0.40864 0.55613 0.28765 0.0
H998 H 0.1612 0.41495 0.80458 0.0
H999 H 0.14788 0.43588 0.84131 0.0
H1000 H 0.07362 0.37111 0.84854 0.0
H1001 H 0.08712 0.3499 0.81232 0.0
H1002 H 0.10376 0.4519 0.85054 0.0
H1003 H 0.05696 0.3631 0.90878 0.0
H1004 H 0.06602 0.32205 0.91654 0.0
H1005 H 0.15406 0.35192 0.89617 0.0
H1006 H 0.14566 0.39324 0.88862 0.0
H1007 H 0.0132 0.48092 0.93857 0.0
H1008 H 0.03444 0.46159 0.90578 0.0
H1009 H 0.09555 0.4469 0.96062 0.0
H1010 H 0.07334 0.46533 0.99388 0.0
H1011 H 0.07922 0.4085 0.92996 0.0
H1012 H 0.11444 0.49686 0.91779 0.0
H1013 H 0.11174 0.54042 0.91232 0.0
H1014 H 0.05851 0.51587 0.8444 0.0
H1015 H 0.06057 0.47209 0.84963 0.0
C1016 C 0.14211 0.4051 0.81404 0.0
C1017 C 0.12534 0.38065 0.80545 0.0
C1018 C 0.13446 0.41713 0.83505 0.0
C1019 C 0.10991 0.40501 0.84803 0.0
C1020 C 0.093 0.38072 0.83931 0.0
C1021 C 0.1007 0.36865 0.81841 0.0
C1022 C 0.10147 0.41793 0.87023 0.0
C1023 C 0.09848 0.4424 0.86791 0.0
C1024 C 0.09529 0.40597 0.89326 0.0
C1025 C 0.10057 0.3812 0.8979 0.0
C1026 C 0.07828 0.36093 0.90604 0.0
C1027 C 0.0833 0.33761 0.91039 0.0
C1028 C 0.11057 0.33435 0.90678 0.0
C1029 C 0.13291 0.35444 0.89887 0.0
C1030 C 0.12802 0.3778 0.89452 0.0
C1031 C 0.03123 0.47366 0.94372 0.0
C1032 C 0.04172 0.47489 0.96887 0.0
C1033 C 0.04351 0.46269 0.92484 0.0
C1034 C 0.06716 0.45325 0.93046 0.0
C1035 C 0.07745 0.45413 0.95566 0.0
C1036 C 0.06478 0.46473 0.97469 0.0
C1037 C 0.08068 0.44218 0.91001 0.0
C1038 C 0.08463 0.41806 0.91265 0.0
C1039 C 0.08862 0.4548 0.88754 0.0
C1040 C 0.0875 0.48115 0.88421 0.0
C1041 C 0.10202 0.50072 0.90176 0.0
C1042 C 0.10062 0.52546 0.8987 0.0
C1043 C 0.08492 0.5309 0.87805 0.0
C1044 C 0.07065 0.51162 0.86039 0.0
C1045 C 0.07196 0.48685 0.86337 0.0
H1046 H 0.08385 0.55006 0.87572 0.0
H1047 H 0.1144 0.31628 0.91015 0.0
H1048 H 0.6729 0.91841 0.87716 0.0
H1049 H 0.65198 0.94007 0.90858 0.0
H1050 H 0.58003 0.87276 0.91287 0.0
H1051 H 0.60057 0.85106 0.88124 0.0
H1052 H 0.56202 0.91523 0.91457 0.0
H1053 H 0.63546 0.88551 0.95641 0.0
H1054 H 0.68432 0.8803 0.96361 0.0
H1055 H 0.7204 0.96093 0.97467 0.0
H1056 H 0.67178 0.96664 0.96718 0.0
H1057 H 0.51513 0.95195 0.03082 0.0
H1058 H 0.53194 0.92883 0.99773 0.0
H1059 H 0.60914 0.99171 0.99392 0.0
H1060 H 0.59304 0.01446 0.02748 0.0
H1061 H 0.62307 0.94965 0.9921 0.0
H1062 H 0.54865 0.97915 0.95006 0.0
H1063 H 0.49931 0.98356 0.94385 0.0
H1064 H 0.4644 0.90274 0.93383 0.0
H1065 H 0.51351 0.89782 0.94038 0.0
C1066 C 0.65248 0.90828 0.88459 0.0
C1067 C 0.63856 0.88292 0.87684 0.0
C1068 C 0.6406 0.92066 0.90261 0.0
C1069 C 0.61466 0.9079 0.91335 0.0
C1070 C 0.6001 0.88295 0.9049 0.0
C1071 C 0.61195 0.87055 0.88686 0.0
C1072 C 0.60346 0.92016 0.9342 0.0
C1073 C 0.57523 0.92255 0.93164 0.0
C1074 C 0.62078 0.9299 0.95638 0.0
C1075 C 0.65003 0.92652 0.96099 0.0
C1076 C 0.65385 0.90214 0.96018 0.0
C1077 C 0.68149 0.8991 0.96435 0.0
C1078 C 0.70546 0.92028 0.96953 0.0
C1079 C 0.70182 0.94454 0.97062 0.0
C1080 C 0.67423 0.9477 0.96643 0.0
C1081 C 0.53574 0.96079 0.02298 0.0
C1082 C 0.55275 0.98505 0.03178 0.0
C1083 C 0.54524 0.94763 1.00394 0.0
C1084 C 0.57162 0.95868 0.993 0.0
C1085 C 0.58872 0.98276 1.00202 0.0
C1086 C 0.57946 0.99577 0.02124 0.0
C1087 C 0.58178 0.94523 0.97236 0.0
C1088 C 0.60982 0.94246 0.97502 0.0
C1089 C 0.56421 0.93512 0.95033 0.0
C1090 C 0.53474 0.93811 0.94593 0.0
C1091 C 0.53044 0.96231 0.94667 0.0
C1092 C 0.50251 0.9649 0.94309 0.0
C1093 C 0.47873 0.94345 0.93851 0.0
C1094 C 0.48284 0.91935 0.93742 0.0
C1095 C 0.51072 0.91665 0.94104 0.0
H1096 H 0.45713 0.94549 0.93576 0.0
H1097 H 0.72684 0.91788 0.97275 0.0
H1098 H 0.94682 0.20202 0.35358 0.0
H1099 H 0.95472 0.16425 0.37212 0.0
H1100 H 0.94173 0.19254 0.44544 0.0
H1101 H 0.93325 0.23016 0.42702 0.0
H1102 H 0.99233 0.17461 0.44224 0.0
H1103 H 0.88964 0.14859 0.42132 0.0
H1104 H 0.84569 0.14197 0.39337 0.0
H1105 H 0.87495 0.0919 0.34489 0.0
H1106 H 0.91932 0.09852 0.37237 0.0
H1107 H 0.94302 0.04219 0.49345 0.0
H1108 H 0.93019 0.07504 0.46967 0.0
H1109 H 0.01357 0.09377 0.43718 0.0
H1110 H 0.02687 0.06148 0.46135 0.0
H1111 H 0.92641 0.08838 0.42104 0.0
H1112 H 0.03997 0.15992 0.43878 0.0
H1113 H 0.08389 0.16514 0.46645 0.0
H1114 H 0.0321 0.12349 0.52282 0.0
H1115 H 0.98772 0.11921 0.49611 0.0
C1116 C 0.94565 0.2002 0.37365 0.0
C1117 C 0.93939 0.21903 0.38885 0.0
C1118 C 0.95009 0.17861 0.38418 0.0
C1119 C 0.94872 0.17565 0.41011 0.0
C1120 C 0.94286 0.19454 0.42538 0.0
C1121 C 0.93794 0.21594 0.41482 0.0
C1122 C 0.95351 0.15283 0.42128 0.0
C1123 C 0.97797 0.15574 0.43762 0.0
C1124 C 0.93461 0.12831 0.4153 0.0
C1125 C 0.90794 0.12427 0.39876 0.0
C1126 C 0.88684 0.13636 0.40457 0.0
C1127 C 0.86182 0.13256 0.38884 0.0
C1128 C 0.85757 0.11658 0.36733 0.0
C1129 C 0.87829 0.1043 0.36154 0.0
C1130 C 0.90337 0.10806 0.3772 0.0
C1131 C 0.95838 0.05293 0.48083 0.0
C1132 C 0.98614 0.04957 0.4796 0.0
C1133 C 0.95099 0.07166 0.46722 0.0
C1134 C 0.97117 0.08718 0.4521 0.0
C1135 C 0.9979 0.08231 0.44913 0.0
C1136 C 0.00546 0.06386 0.46297 0.0
C1137 C 0.96553 0.11006 0.4417 0.0
C1138 C 0.94088 0.10721 0.42558 0.0
C1139 C 0.98423 0.13469 0.44801 0.0
C1140 C 0.0105 0.13895 0.46523 0.0
C1141 C 0.03788 0.15221 0.45723 0.0
C1142 C 0.06286 0.15507 0.47279 0.0
C1143 C 0.06077 0.14466 0.49638 0.0
C1144 C 0.03367 0.13162 0.50458 0.0
C1145 C 0.00857 0.12912 0.48929 0.0
H1146 H 0.08015 0.1467 0.50831 0.0
H1147 H 0.83818 0.11366 0.35518 0.0
H1148 H 0.26107 0.64321 0.1958 0.0
H1149 H 0.21767 0.61634 0.1723 0.0
H1150 H 0.25741 0.63886 0.10277 0.0
H1151 H 0.30055 0.66577 0.12598 0.0
H1152 H 0.20339 0.64349 0.10231 0.0
H1153 H 0.24965 0.57953 0.12459 0.0
H1154 H 0.27137 0.55514 0.15358 0.0
H1155 H 0.19146 0.5311 0.19056 0.0
H1156 H 0.16938 0.55565 0.16201 0.0
H1157 H 0.10512 0.56018 0.01534 0.0
H1158 H 0.14942 0.58055 0.0413 0.0
H1159 H 0.10462 0.55484 0.10789 0.0
H1160 H 0.06037 0.53421 0.08198 0.0
H1161 H 0.15977 0.55131 0.1116 0.0
H1162 H 0.11343 0.61469 0.0915 0.0
H1163 H 0.09017 0.63905 0.0638 0.0
H1164 H 0.16853 0.66474 0.02487 0.0
H1165 H 0.19216 0.64024 0.05217 0.0
C1166 C 0.26067 0.64223 0.17552 0.0
C1167 C 0.28429 0.65674 0.16279 0.0
C1168 C 0.23587 0.6268 0.1621 0.0
C1169 C 0.23429 0.6255 0.13574 0.0
C1170 C 0.25807 0.63959 0.12308 0.0
C1171 C 0.28279 0.65495 0.13642 0.0
C1172 C 0.20745 0.61057 0.12115 0.0
C1173 C 0.19413 0.62326 0.10412 0.0
C1174 C 0.19468 0.58434 0.12412 0.0
C1175 C 0.20797 0.56965 0.14133 0.0
C1176 C 0.2368 0.56923 0.13905 0.0
C1177 C 0.24915 0.55534 0.15537 0.0
C1178 C 0.23283 0.54164 0.17394 0.0
C1179 C 0.20409 0.54176 0.1762 0.0
C1180 C 0.19164 0.55564 0.15994 0.0
C1181 C 0.10484 0.55864 0.03549 0.0
C1182 C 0.07929 0.54575 0.04665 0.0
C1183 C 0.13011 0.57035 0.05032 0.0
C1184 C 0.13023 0.56956 0.07659 0.0
C1185 C 0.10505 0.55573 0.08769 0.0
C1186 C 0.07978 0.54397 0.07285 0.0
C1187 C 0.15617 0.58419 0.09245 0.0
C1188 C 0.16915 0.57152 0.10979 0.0
C1189 C 0.16851 0.61054 0.09004 0.0
C1190 C 0.15447 0.62544 0.07371 0.0
C1191 C 0.12563 0.62539 0.07691 0.0
C1192 C 0.11239 0.63924 0.06131 0.0
C1193 C 0.12784 0.65338 0.04254 0.0
C1194 C 0.15659 0.65375 0.0394 0.0
C1195 C 0.16993 0.63991 0.05495 0.0
H1196 H 0.11755 0.66409 0.03047 0.0
H1197 H 0.24243 0.53089 0.18655 0.0
H1198 H 0.27369 0.40167 0.71449 0.0
H1199 H 0.31194 0.42651 0.68936 0.0
H1200 H 0.24801 0.44838 0.6433 0.0
H1201 H 0.20956 0.42328 0.66816 0.0
H1202 H 0.28414 0.43412 0.61466 0.0
H1203 H 0.29442 0.49084 0.68595 0.0
H1204 H 0.30015 0.5041 0.73083 0.0
H1205 H 0.38149 0.48669 0.73703 0.0
H1206 H 0.37606 0.47299 0.69225 0.0
H1207 H 0.42294 0.54416 0.58696 0.0
H1208 H 0.38028 0.52708 0.61124 0.0
H1209 H 0.3802 0.45103 0.58953 0.0
H1210 H 0.42243 0.46781 0.56519 0.0
H1211 H 0.37314 0.49748 0.6511 0.0
H1212 H 0.31176 0.41247 0.58373 0.0
H1213 H 0.30469 0.40175 0.53828 0.0
H1214 H 0.32237 0.48065 0.52325 0.0
H1215 H 0.32915 0.49182 0.5686 0.0
C1216 C 0.26775 0.41191 0.69914 0.0
C1217 C 0.2385 0.41046 0.69337 0.0
C1218 C 0.2897 0.42622 0.68482 0.0
C1219 C 0.28296 0.43955 0.66451 0.0
C1220 C 0.2538 0.4383 0.65886 0.0
C1221 C 0.23183 0.42398 0.67316 0.0
C1222 C 0.30618 0.4539 0.64858 0.0
C1223 C 0.30354 0.44803 0.62266 0.0
C1224 C 0.33133 0.47245 0.65884 0.0
C1225 C 0.33471 0.4807 0.68578 0.0
C1226 C 0.31343 0.48966 0.69692 0.0
C1227 C 0.31664 0.49728 0.72234 0.0
C1228 C 0.34114 0.49619 0.73679 0.0
C1229 C 0.36251 0.48751 0.72583 0.0
C1230 C 0.35939 0.47984 0.70042 0.0
C1231 C 0.41371 0.52381 0.58718 0.0
C1232 C 0.42619 0.5074 0.57405 0.0
C1233 C 0.38937 0.51406 0.60117 0.0
C1234 C 0.37685 0.48775 0.60209 0.0
C1235 C 0.38915 0.47139 0.58884 0.0
C1236 C 0.41344 0.48107 0.57495 0.0
C1237 C 0.35138 0.47718 0.61734 0.0
C1238 C 0.35364 0.48371 0.64311 0.0
C1239 C 0.32566 0.45953 0.6069 0.0
C1240 C 0.32119 0.45297 0.57958 0.0
C1241 C 0.314 0.42752 0.57073 0.0
C1242 C 0.31007 0.42137 0.54498 0.0
C1243 C 0.31316 0.44051 0.52788 0.0
C1244 C 0.32009 0.46585 0.5365 0.0
C1245 C 0.32401 0.4721 0.56223 0.0
H1246 H 0.31013 0.43572 0.50796 0.0
H1247 H 0.34359 0.5021 0.75646 0.0
H1248 H 0.73287 0.69088 0.87483 0.0
H1249 H 0.76392 0.66881 0.8962 0.0
H1250 H 0.81855 0.74014 0.92845 0.0
H1251 H 0.78744 0.76238 0.90735 0.0
H1252 H 0.84899 0.7094 0.90556 0.0
H1253 H 0.77583 0.70257 0.96522 0.0
H1254 H 0.72581 0.69198 0.97899 0.0
H1255 H 0.71216 0.61401 0.95556 0.0
H1256 H 0.76199 0.6242 0.9413 0.0
H1257 H 0.93718 0.65546 0.98124 0.0
H1258 H 0.90429 0.68016 0.96877 0.0
H1259 H 0.83786 0.61097 0.94599 0.0
H1260 H 0.87035 0.58628 0.9593 0.0
H1261 H 0.81358 0.6426 0.9662 0.0
H1262 H 0.88323 0.6483 0.90362 0.0
H1263 H 0.93212 0.65731 0.88752 0.0
H1264 H 0.95101 0.73524 0.91317 0.0
H1265 H 0.90234 0.72661 0.92974 0.0
C1266 C 0.75142 0.70187 0.88655 0.0
C1267 C 0.75771 0.72838 0.8894 0.0
C1268 C 0.76905 0.68922 0.89882 0.0
C1269 C 0.7934 0.70285 0.91401 0.0
C1270 C 0.7998 0.7293 0.91685 0.0
C1271 C 0.78198 0.74195 0.90483 0.0
C1272 C 0.81272 0.68954 0.9262 0.0
C1273 C 0.84144 0.6951 0.91915 0.0
C1274 C 0.80252 0.67039 0.94335 0.0
C1275 C 0.77257 0.6642 0.95198 0.0
C1276 C 0.76209 0.6832 0.9628 0.0
C1277 C 0.73378 0.67727 0.97074 0.0
C1278 C 0.7158 0.65235 0.9681 0.0
C1279 C 0.72611 0.63331 0.95757 0.0
C1280 C 0.75439 0.63915 0.94958 0.0
C1281 C 0.91541 0.64559 0.97386 0.0
C1282 C 0.90628 0.61901 0.97114 0.0
C1283 C 0.89669 0.65968 0.96663 0.0
C1284 C 0.86878 0.64747 0.95591 0.0
C1285 C 0.85927 0.62085 0.95416 0.0
C1286 C 0.87782 0.60675 0.96178 0.0
C1287 C 0.84996 0.66234 0.94548 0.0
C1288 C 0.82128 0.65704 0.95277 0.0
C1289 C 0.86005 0.68148 0.92821 0.0
C1290 C 0.88927 0.68675 0.91815 0.0
C1291 C 0.89789 0.66732 0.90598 0.0
C1292 C 0.92555 0.67236 0.89675 0.0
C1293 C 0.94469 0.69682 0.89938 0.0
C1294 C 0.93618 0.7163 0.91119 0.0
C1295 C 0.90856 0.71135 0.92049 0.0
H1296 H 0.9661 0.70068 0.89223 0.0
H1297 H 0.69389 0.6478 0.97426 0.0
H1298 H 0.45799 0.78649 0.22901 0.0
H1299 H 0.48014 0.82825 0.21257 0.0
H1300 H 0.39525 0.83352 0.18902 0.0
H1301 H 0.37327 0.79162 0.20447 0.0
H1302 H 0.42825 0.84786 0.1532 0.0
H1303 H 0.43878 0.86909 0.24158 0.0
H1304 H 0.45372 0.86591 0.28584 0.0
H1305 H 0.54279 0.88354 0.26711 0.0
H1306 H 0.52833 0.88651 0.22268 0.0
H1307 H 0.4715 0.98056 0.12949 0.0
H1308 H 0.44995 0.94043 0.14944 0.0
H1309 H 0.53387 0.92717 0.15627 0.0
H1310 H 0.55529 0.96673 0.13567 0.0
H1311 H 0.50188 0.91773 0.20066 0.0
H1312 H 0.49043 0.89614 0.1122 0.0
H1313 H 0.47516 0.90037 0.06828 0.0
H1314 H 0.38662 0.88459 0.08806 0.0
H1315 H 0.40143 0.88064 0.13226 0.0
C1316 C 0.44406 0.79671 0.22059 0.0
C1317 C 0.41385 0.78564 0.21806 0.0
C1318 C 0.45674 0.82067 0.21122 0.0
C1319 C 0.43943 0.83434 0.19961 0.0
C1320 C 0.40921 0.82347 0.19769 0.0
C1321 C 0.39663 0.79946 0.20667 0.0
C1322 C 0.45258 0.85947 0.18863 0.0
C1323 C 0.444 0.8632 0.16383 0.0
C1324 C 0.47368 0.87954 0.20207 0.0
C1325 C 0.48243 0.87776 0.22877 0.0
C1326 C 0.46153 0.8721 0.24687 0.0
C1327 C 0.46992 0.87036 0.27199 0.0
C1328 C 0.49918 0.87445 0.27927 0.0
C1329 C 0.52013 0.88034 0.26145 0.0
C1330 C 0.51185 0.88207 0.2363 0.0
C1331 C 0.48528 0.96899 0.1351 0.0
C1332 C 0.515 0.97662 0.13069 0.0
C1333 C 0.47299 0.94614 0.14659 0.0
C1334 C 0.4903 0.93074 0.15427 0.0
C1335 C 0.52012 0.93873 0.15054 0.0
C1336 C 0.53229 0.96132 0.13869 0.0
C1337 C 0.47726 0.90595 0.16556 0.0
C1338 C 0.48596 0.90233 0.19026 0.0
C1339 C 0.45611 0.88605 0.15214 0.0
C1340 C 0.44708 0.88832 0.12558 0.0
C1341 C 0.46774 0.89379 0.10724 0.0
C1342 C 0.45916 0.89609 0.08229 0.0
C1343 C 0.42995 0.89273 0.07539 0.0
C1344 C 0.40924 0.88715 0.09345 0.0
C1345 C 0.41771 0.88487 0.11845 0.0
H1346 H 0.42336 0.89433 0.05604 0.0
H1347 H 0.50563 0.8731 0.29873 0.0
H1348 H 0.06404 0.21822 0.73451 0.0
H1349 H 0.05258 0.17978 0.70754 0.0
H1350 H 0.10961 0.21985 0.653 0.0
H1351 H 0.12094 0.25874 0.67987 0.0
H1352 H 0.05924 0.19127 0.63067 0.0
H1353 H 0.12918 0.17699 0.69047 0.0
H1354 H 0.15098 0.17436 0.73259 0.0
H1355 H 0.07469 0.11603 0.74982 0.0
H1356 H 0.05225 0.11854 0.70792 0.0
H1357 H 0.052 0.07554 0.56067 0.0
H1358 H 0.07083 0.11548 0.58575 0.0
H1359 H 0.011 0.08563 0.64241 0.0
H1360 H 0.99198 0.04591 0.6172 0.0
H1361 H 0.06709 0.10969 0.66236 0.0
H1362 H 0.99588 0.12564 0.60491 0.0
H1363 H 0.97127 0.13018 0.56461 0.0
H1364 H 0.0481 0.18581 0.54388 0.0
H1365 H 0.07338 0.18129 0.58393 0.0
C1366 C 0.07429 0.21894 0.71683 0.0
C1367 C 0.09351 0.24164 0.70943 0.0
C1368 C 0.0678 0.19682 0.70145 0.0
C1369 C 0.08053 0.19672 0.67834 0.0
C1370 C 0.0996 0.21939 0.67078 0.0
C1371 C 0.10611 0.24161 0.68619 0.0
C1372 C 0.07318 0.17308 0.66193 0.0
C1373 C 0.06158 0.17355 0.63741 0.0
C1374 C 0.07547 0.14975 0.67091 0.0
C1375 C 0.08895 0.1481 0.6961 0.0
C1376 C 0.11697 0.16373 0.7033 0.0
C1377 C 0.12945 0.16224 0.72713 0.0
C1378 C 0.11421 0.14508 0.74389 0.0
C1379 C 0.08647 0.12932 0.73683 0.0
C1380 C 0.07387 0.13075 0.71303 0.0
C1381 C 0.04322 0.07739 0.57859 0.0
C1382 C 0.0208 0.05752 0.58709 0.0
C1383 C 0.05377 0.10031 0.59282 0.0
C1384 C 0.04227 0.10361 0.61596 0.0
C1385 C 0.02024 0.08354 0.62466 0.0
C1386 C 0.0094 0.06086 0.61024 0.0
C1387 C 0.05301 0.1279 0.63118 0.0
C1388 C 0.06521 0.12751 0.65549 0.0
C1389 C 0.05118 0.15127 0.62203 0.0
C1390 C 0.03665 0.15289 0.59731 0.0
C1391 C 0.00771 0.13854 0.5916 0.0
C1392 C 0.99357 0.14122 0.56887 0.0
C1393 C 0.00806 0.15839 0.55178 0.0
C1394 C 0.03686 0.17263 0.55722 0.0
C1395 C 0.05112 0.16997 0.5799 0.0
H1396 H 0.997 0.16058 0.53427 0.0
H1397 H 0.12392 0.14395 0.76233 0.0
H1398 H 0.718 0.30972 0.38124 0.0
H1399 H 0.68444 0.33263 0.39472 0.0
H1400 H 0.74628 0.40357 0.37921 0.0
H1401 H 0.78032 0.38076 0.36614 0.0
H1402 H 0.72497 0.40719 0.42322 0.0
H1403 H 0.68435 0.37898 0.3412 0.0
H1404 H 0.66564 0.34879 0.30515 0.0
H1405 H 0.59759 0.30543 0.34864 0.0
H1406 H 0.61612 0.33516 0.38509 0.0
H1407 H 0.61858 0.4723 0.44705 0.0
H1408 H 0.65357 0.45582 0.42529 0.0
H1409 H 0.60569 0.37963 0.44171 0.0
H1410 H 0.57096 0.39587 0.46366 0.0
H1411 H 0.62142 0.38331 0.39292 0.0
H1412 H 0.66661 0.41045 0.47612 0.0
H1413 H 0.68639 0.44126 0.51155 0.0
H1414 H 0.7465 0.48831 0.46376 0.0
H1415 H 0.72681 0.45792 0.42795 0.0
C1416 C 0.72443 0.33018 0.38051 0.0
C1417 C 0.75186 0.3434 0.37262 0.0
C1418 C 0.70513 0.34327 0.38811 0.0
C1419 C 0.71267 0.36982 0.38769 0.0
C1420 C 0.73996 0.38308 0.37964 0.0
C1421 C 0.75936 0.37 0.37213 0.0
C1422 C 0.69251 0.38367 0.39678 0.0
C1423 C 0.70247 0.40232 0.41622 0.0
C1424 C 0.66306 0.37718 0.38784 0.0
C1425 C 0.65178 0.35922 0.36596 0.0
C1426 C 0.66553 0.3629 0.34315 0.0
C1427 C 0.65493 0.34589 0.32262 0.0
C1428 C 0.63048 0.32518 0.32461 0.0
C1429 C 0.61654 0.32148 0.34713 0.0
C1430 C 0.62706 0.33843 0.36772 0.0
C1431 C 0.61564 0.45206 0.44617 0.0
C1432 C 0.59199 0.4354 0.45712 0.0
C1433 C 0.63559 0.44268 0.43368 0.0
C1434 C 0.63231 0.41653 0.43205 0.0
C1435 C 0.60854 0.39987 0.44265 0.0
C1436 C 0.58865 0.4092 0.45513 0.0
C1437 C 0.65378 0.40629 0.41969 0.0
C1438 C 0.64404 0.38837 0.39962 0.0
C1439 C 0.68347 0.41364 0.42787 0.0
C1440 C 0.69505 0.43204 0.44932 0.0
C1441 C 0.68387 0.42747 0.47312 0.0
C1442 C 0.69514 0.44481 0.49328 0.0
C1443 C 0.71775 0.46668 0.48991 0.0
C1444 C 0.72906 0.47132 0.46635 0.0
C1445 C 0.71785 0.45405 0.44612 0.0
H1446 H 0.72643 0.48009 0.50554 0.0
H1447 H 0.6223 0.31203 0.3087 0.0
loop_
_geom_bond_atom_site_label_1
_geom_bond_atom_site_label_2
_geom_bond_distance
_geom_bond_site_symmetry_2
_ccdc_geom_bond_type
O0 Cd1 2.300 . S
O0 C7 1.275 . S
Cd1 O0 2.300 . S
Cd1 O9 2.381 . S
Cd1 O10 2.378 . S
O2 Cd3 2.385 . S
O2 C7 1.255 . S
Cd3 O2 2.385 . S
Cd3 O4 2.317 . S
O4 Cd3 2.317 . S
O4 C5 1.232 . S
C5 O4 1.232 . S
C5 O6 1.218 . S
O6 C5 1.218 . S
C7 O0 1.275 . S
C7 O2 1.255 . S
C8 O9 1.258 . S
C8 O10 1.256 . S
O9 Cd1 2.381 . S
O9 C8 1.258 . S
O10 Cd1 2.378 . S
O10 C8 1.256 . S
O11 Cd12 2.300 . S
O11 C18 1.275 . S
Cd12 O11 2.300 . S
Cd12 O20 2.381 . S
Cd12 O21 2.378 . S
O13 Cd14 2.385 . S
O13 C18 1.255 . S
Cd14 O13 2.385 . S
Cd14 O15 2.317 . S
O15 Cd14 2.317 . S
O15 C16 1.232 . S
C16 O15 1.232 . S
C16 O17 1.218 . S
O17 C16 1.218 . S
C18 O11 1.275 . S
C18 O13 1.255 . S
C19 O20 1.258 . S
C19 O21 1.256 . S
O20 Cd12 2.381 . S
O20 C19 1.258 . S
O21 Cd12 2.378 . S
O21 C19 1.256 . S
O22 Cd23 2.300 . S
O22 C29 1.275 . S
Cd23 O22 2.300 . S
Cd23 O31 2.381 . S
Cd23 O32 2.378 . S
O24 Cd25 2.385 . S
O24 C29 1.255 . S
Cd25 O24 2.385 . S
Cd25 O26 2.317 . S
O26 Cd25 2.317 . S
O26 C27 1.232 . S
C27 O26 1.232 . S
C27 O28 1.218 . S
O28 C27 1.218 . S
C29 O22 1.275 . S
C29 O24 1.255 . S
C30 O31 1.258 . S
C30 O32 1.256 . S
O31 Cd23 2.381 . S
O31 C30 1.258 . S
O32 Cd23 2.378 . S
O32 C30 1.256 . S
O33 Cd34 2.300 . S
O33 C40 1.275 . S
Cd34 O33 2.300 . S
Cd34 O42 2.381 . S
Cd34 O43 2.378 . S
O35 Cd36 2.385 . S
O35 C40 1.255 . S
Cd36 O35 2.385 . S
Cd36 O37 2.317 . S
O37 Cd36 2.317 . S
O37 C38 1.232 . S
C38 O37 1.232 . S
C38 O39 1.218 . S
O39 C38 1.218 . S
C40 O33 1.275 . S
C40 O35 1.255 . S
C41 O42 1.258 . S
C41 O43 1.256 . S
O42 Cd34 2.381 . S
O42 C41 1.258 . S
O43 Cd34 2.378 . S
O43 C41 1.256 . S
O44 Cd45 2.300 . S
O44 C51 1.275 . S
Cd45 O44 2.300 . S
Cd45 O53 2.381 . S
Cd45 O54 2.378 . S
O46 Cd47 2.385 . S
O46 C51 1.255 . S
Cd47 O46 2.385 . S
Cd47 O48 2.317 . S
O48 Cd47 2.317 . S
O48 C49 1.232 . S
C49 O48 1.232 . S
C49 O50 1.218 . S
O50 C49 1.218 . S
C51 O44 1.275 . S
C51 O46 1.255 . S
C52 O53 1.258 . S
C52 O54 1.256 . S
O53 Cd45 2.381 . S
O53 C52 1.258 . S
O54 Cd45 2.378 . S
O54 C52 1.256 . S
O55 Cd56 2.300 . S
O55 C62 1.275 . S
Cd56 O55 2.300 . S
Cd56 O64 2.381 . S
Cd56 O65 2.378 . S
O57 Cd58 2.385 . S
O57 C62 1.255 . S
Cd58 O57 2.385 . S
Cd58 O59 2.317 . S
O59 Cd58 2.317 . S
O59 C60 1.232 . S
C60 O59 1.232 . S
C60 O61 1.218 . S
O61 C60 1.218 . S
C62 O55 1.275 . S
C62 O57 1.255 . S
C63 O64 1.258 . S
C63 O65 1.256 . S
O64 Cd56 2.381 . S
O64 C63 1.258 . S
O65 Cd56 2.378 . S
O65 C63 1.256 . S
O66 Cd67 2.300 . S
O66 C73 1.275 . S
Cd67 O66 2.300 . S
Cd67 O75 2.381 . S
Cd67 O76 2.378 . S
O68 Cd69 2.385 . S
O68 C73 1.255 . S
Cd69 O68 2.385 . S
Cd69 O70 2.317 . S
O70 Cd69 2.317 . S
O70 C71 1.232 . S
C71 O70 1.232 . S
C71 O72 1.218 . S
O72 C71 1.218 . S
C73 O66 1.275 . S
C73 O68 1.255 . S
C74 O75 1.258 . S
C74 O76 1.256 . S
O75 Cd67 2.381 . S
O75 C74 1.258 . S
O76 Cd67 2.378 . S
O76 C74 1.256 . S
O77 Cd78 2.300 . S
O77 C84 1.275 . S
Cd78 O77 2.300 . S
Cd78 O86 2.381 . S
Cd78 O87 2.378 . S
O79 Cd80 2.385 . S
O79 C84 1.255 . S
Cd80 O79 2.385 . S
Cd80 O81 2.317 . S
O81 Cd80 2.317 . S
O81 C82 1.232 . S
C82 O81 1.232 . S
C82 O83 1.218 . S
O83 C82 1.218 . S
C84 O77 1.275 . S
C84 O79 1.255 . S
C85 O86 1.258 . S
C85 O87 1.256 . S
O86 Cd78 2.381 . S
O86 C85 1.258 . S
O87 Cd78 2.378 . S
O87 C85 1.256 . S
Tb88 C90 2.809 1_545 S
Tb88 O108 2.484 1_545 S
Tb88 O109 2.440 1_545 S
Tb88 O110 2.658 1_655 S
Tb88 O111 2.409 1_655 S
Tb88 O112 2.378 1_645 S
Tb88 O116 2.325 1_545 S
Tb88 O119 2.341 . S
Tb89 C99 2.809 . S
Tb89 O110 2.325 . S
Tb89 O113 2.341 1_545 S
Tb89 O114 2.484 . S
Tb89 O115 2.440 . S
Tb89 O116 2.658 1_445 S
Tb89 O117 2.409 1_545 S
Tb89 O118 2.367 1_455 S
C90 Tb88 2.809 1_565 S
C90 C91 1.514 . S
C90 O108 1.248 . S
C90 O109 1.266 . S
C91 C90 1.514 . S
C91 C92 1.359 . S
C91 C96 1.348 . S
C92 C91 1.359 . S
C92 C93 1.380 . S
C92 H120 0.929 . S
C93 C92 1.380 . S
C93 C94 1.347 . S
C93 H121 0.931 . S
C94 C93 1.347 . S
C94 C95 1.369 . S
C95 C94 1.369 . S
C95 C96 1.408 . S
C95 H122 0.930 . S
C96 C91 1.348 . S
C96 C95 1.408 . S
C96 H123 0.930 . S
C97 O110 1.281 . S
C97 O111 1.254 . S
C98 O112 1.236 . S
C98 O113 1.266 . S
C99 Tb89 2.809 . S
C99 C100 1.514 . S
C99 O114 1.248 . S
C99 O115 1.266 . S
C100 C99 1.514 . S
C100 C101 1.359 . S
C100 C105 1.348 . S
C101 C100 1.359 . S
C101 C102 1.380 . S
C101 H124 0.929 . S
C102 C101 1.380 . S
C102 C103 1.347 . S
C102 H125 0.931 . S
C103 C102 1.347 . S
C103 C104 1.369 . S
C104 C103 1.369 . S
C104 C105 1.408 . S
C104 H126 0.930 . S
C105 C100 1.348 . S
C105 C104 1.408 . S
C105 H127 0.930 . S
C106 O116 1.281 . S
C106 O117 1.254 1_655 S
C107 O118 1.247 . S
C107 O119 1.266 . S
O108 Tb88 2.484 1_565 S
O108 C90 1.248 . S
O109 Tb88 2.440 1_565 S
O109 C90 1.266 . S
O110 Tb88 2.658 1_455 S
O110 Tb89 2.325 . S
O110 C97 1.281 . S
O111 Tb88 2.409 1_455 S
O111 C97 1.254 . S
O112 Tb88 2.378 1_465 S
O112 C98 1.236 . S
O113 Tb89 2.341 1_565 S
O113 C98 1.266 . S
O114 Tb89 2.484 . S
O114 C99 1.248 . S
O115 Tb89 2.440 . S
O115 C99 1.266 . S
O116 Tb88 2.325 1_565 S
O116 Tb89 2.658 1_665 S
O116 C106 1.281 . S
O117 Tb89 2.409 1_565 S
O117 C106 1.254 1_455 S
O118 Tb89 2.367 1_655 S
O118 C107 1.247 . S
O119 Tb88 2.341 . S
O119 C107 1.266 . S
H120 C92 0.929 . S
H121 C93 0.931 . S
H122 C95 0.930 . S
H123 C96 0.930 . S
H124 C101 0.929 . S
H125 C102 0.931 . S
H126 C104 0.930 . S
H127 C105 0.930 . S
Tb128 C130 2.809 . S
Tb128 O148 2.484 . S
Tb128 O149 2.440 . S
Tb128 O150 2.658 . S
Tb128 O151 2.409 . S
Tb128 O152 2.378 . S
Tb128 O156 2.325 . S
Tb128 O159 2.341 . S
Tb129 C139 2.809 1_544 S
Tb129 O150 2.325 . S
Tb129 O153 2.341 . S
Tb129 O154 2.484 1_545 S
Tb129 O155 2.440 1_554 S
Tb129 O156 2.658 . S
Tb129 O157 2.409 . S
Tb129 O158 2.378 . S
C130 Tb128 2.809 . S
C130 C131 1.514 . S
C130 O148 1.248 . S
C130 O149 1.266 . S
C131 C130 1.514 . S
C131 C132 1.359 . S
C131 C136 1.348 . S
C132 C131 1.359 . S
C132 C133 1.380 . S
C132 H160 0.929 . S
C133 C132 1.380 . S
C133 C134 1.347 . S
C133 H161 0.931 . S
C134 C133 1.347 . S
C134 C135 1.369 . S
C135 C134 1.369 . S
C135 C136 1.408 . S
C135 H162 0.930 . S
C136 C131 1.348 . S
C136 C135 1.408 . S
C136 H163 0.930 . S
C137 O150 1.281 1_565 S
C137 O151 1.254 1_565 S
C138 O152 1.236 . S
C138 O153 1.266 . S
C139 Tb129 2.809 1_566 S
C139 C140 1.514 . S
C139 O154 1.248 1_556 S
C139 O155 1.266 1_565 S
C140 C139 1.514 . S
C140 C141 1.359 . S
C140 C145 1.348 . S
C141 C140 1.359 . S
C141 C142 1.380 . S
C141 H164 0.929 . S
C142 C141 1.380 . S
C142 C143 1.347 . S
C142 H165 0.931 . S
C143 C142 1.347 . S
C143 C144 1.369 . S
C144 C143 1.369 . S
C144 C145 1.408 . S
C144 H166 0.930 . S
C145 C140 1.348 . S
C145 C144 1.408 . S
C145 H167 0.930 . S
C146 O156 1.281 . S
C146 O157 1.254 . S
C147 O158 1.234 1_565 S
C147 O159 1.265 1_565 S
O148 Tb128 2.484 . S
O148 C130 1.248 . S
O149 Tb128 2.440 . S
O149 C130 1.266 . S
O150 Tb128 2.658 . S
O150 Tb129 2.325 . S
O150 C137 1.281 1_545 S
O151 Tb128 2.409 . S
O151 C137 1.254 1_545 S
O152 Tb128 2.378 . S
O152 C138 1.236 . S
O153 Tb129 2.341 . S
O153 C138 1.266 . S
O154 Tb129 2.484 1_565 S
O154 C139 1.248 1_554 S
O155 Tb129 2.440 1_556 S
O155 C139 1.266 1_545 S
O156 Tb128 2.325 . S
O156 Tb129 2.658 . S
O156 C146 1.281 . S
O157 Tb129 2.409 . S
O157 C146 1.254 . S
O158 Tb129 2.378 . S
O158 C147 1.234 1_545 S
O159 Tb128 2.341 . S
O159 C147 1.265 1_545 S
H160 C132 0.929 . S
H161 C133 0.931 . S
H162 C135 0.930 . S
H163 C136 0.930 . S
H164 C141 0.929 . S
H165 C142 0.931 . S
H166 C144 0.930 . S
H167 C145 0.930 . S
Tb168 C170 2.809 . S
Tb168 O188 2.484 . S
Tb168 O189 2.440 . S
Tb168 O190 2.658 . S
Tb168 O191 2.409 . S
Tb168 O192 2.378 . S
Tb168 O196 2.325 . S
Tb168 O199 2.341 . S
Tb169 C179 2.809 . S
Tb169 O190 2.325 . S
Tb169 O193 2.341 . S
Tb169 O194 2.484 . S
Tb169 O195 2.440 . S
Tb169 O196 2.658 . S
Tb169 O197 2.409 . S
Tb169 O198 2.378 . S
C170 Tb168 2.809 . S
C170 C171 1.514 . S
C170 O188 1.248 . S
C170 O189 1.266 . S
C171 C170 1.514 . S
C171 C172 1.359 . S
C171 C176 1.348 . S
C172 C171 1.359 . S
C172 C173 1.380 . S
C172 H200 0.929 . S
C173 C172 1.380 . S
C173 C174 1.347 . S
C173 H201 0.931 . S
C174 C173 1.347 . S
C174 C175 1.369 . S
C175 C174 1.369 . S
C175 C176 1.408 . S
C175 H202 0.930 . S
C176 C171 1.348 . S
C176 C175 1.408 . S
C176 H203 0.930 . S
C177 O190 1.281 . S
C177 O191 1.254 . S
C178 O192 1.236 . S
C178 O193 1.266 . S
C179 Tb169 2.809 . S
C179 C180 1.514 . S
C179 O194 1.248 . S
C179 O195 1.266 . S
C180 C179 1.514 . S
C180 C181 1.359 . S
C180 C185 1.348 . S
C181 C180 1.359 . S
C181 C182 1.380 . S
C181 H204 0.929 . S
C182 C181 1.380 . S
C182 C183 1.347 . S
C182 H205 0.931 . S
C183 C182 1.347 . S
C183 C184 1.369 . S
C184 C183 1.369 . S
C184 C185 1.408 . S
C184 H206 0.930 . S
C185 C180 1.348 . S
C185 C184 1.408 . S
C185 H207 0.930 . S
C186 O196 1.281 . S
C186 O197 1.254 . S
C187 O198 1.236 . S
C187 O199 1.266 . S
O188 Tb168 2.484 . S
O188 C170 1.248 . S
O189 Tb168 2.440 . S
O189 C170 1.266 . S
O190 Tb168 2.658 . S
O190 Tb169 2.325 . S
O190 C177 1.281 . S
O191 Tb168 2.409 . S
O191 C177 1.254 . S
O192 Tb168 2.378 . S
O192 C178 1.236 . S
O193 Tb169 2.341 . S
O193 C178 1.266 . S
O194 Tb169 2.484 . S
O194 C179 1.248 . S
O195 Tb169 2.440 . S
O195 C179 1.266 . S
O196 Tb168 2.325 . S
O196 Tb169 2.658 . S
O196 C186 1.281 . S
O197 Tb169 2.409 . S
O197 C186 1.254 . S
O198 Tb169 2.378 . S
O198 C187 1.236 . S
O199 Tb168 2.341 . S
O199 C187 1.266 . S
H200 C172 0.929 . S
H201 C173 0.931 . S
H202 C175 0.930 . S
H203 C176 0.930 . S
H204 C181 0.929 . S
H205 C182 0.931 . S
H206 C184 0.930 . S
H207 C185 0.930 . S
Tb208 C210 2.809 1_455 S
Tb208 O228 2.484 1_455 S
Tb208 O229 2.440 . S
Tb208 O230 2.658 1_556 S
Tb208 O231 2.409 1_556 S
Tb208 O232 2.378 1_556 S
Tb208 O236 2.325 1_455 S
Tb208 O239 2.341 . S
Tb209 C219 2.809 . S
Tb209 O230 2.325 . S
Tb209 O233 2.341 1_455 S
Tb209 O234 2.484 . S
Tb209 O235 2.440 . S
Tb209 O236 2.658 1_454 S
Tb209 O237 2.409 1_455 S
Tb209 O238 2.378 1_554 S
C210 Tb208 2.809 1_655 S
C210 C211 1.514 . S
C210 O228 1.248 . S
C210 O229 1.266 1_655 S
C211 C210 1.514 . S
C211 C212 1.359 . S
C211 C216 1.348 . S
C212 C211 1.359 . S
C212 C213 1.380 . S
C212 H240 0.929 . S
C213 C212 1.380 . S
C213 C214 1.347 . S
C213 H241 0.931 . S
C214 C213 1.347 . S
C214 C215 1.369 . S
C215 C214 1.369 . S
C215 C216 1.408 . S
C215 H242 0.930 . S
C216 C211 1.348 . S
C216 C215 1.408 . S
C216 H243 0.930 1_655 S
C217 O230 1.281 . S
C217 O231 1.254 . S
C218 O232 1.236 1_655 S
C218 O233 1.266 . S
C219 Tb209 2.809 . S
C219 C220 1.514 . S
C219 O234 1.248 . S
C219 O235 1.266 . S
C220 C219 1.514 . S
C220 C221 1.359 . S
C220 C225 1.348 . S
C221 C220 1.359 . S
C221 C222 1.380 . S
C221 H244 0.929 . S
C222 C221 1.380 . S
C222 C223 1.347 . S
C222 H245 0.931 . S
C223 C222 1.347 . S
C223 C224 1.369 . S
C224 C223 1.369 . S
C224 C225 1.408 . S
C224 H246 0.930 . S
C225 C220 1.348 . S
C225 C224 1.408 . S
C225 H247 0.930 . S
C226 O236 1.281 . S
C226 O237 1.254 1_556 S
C227 O238 1.236 . S
C227 O239 1.266 . S
O228 Tb208 2.484 1_655 S
O228 C210 1.248 . S
O229 Tb208 2.440 . S
O229 C210 1.266 1_455 S
O230 Tb208 2.658 1_554 S
O230 Tb209 2.325 . S
O230 C217 1.281 . S
O231 Tb208 2.409 1_554 S
O231 C217 1.254 . S
O232 Tb208 2.378 1_554 S
O232 C218 1.236 1_455 S
O233 Tb209 2.341 1_655 S
O233 C218 1.266 . S
O234 Tb209 2.484 . S
O234 C219 1.248 . S
O235 Tb209 2.440 . S
O235 C219 1.266 . S
O236 Tb208 2.325 1_655 S
O236 Tb209 2.658 1_656 S
O236 C226 1.281 . S
O237 Tb209 2.409 1_655 S
O237 C226 1.254 1_554 S
O238 Tb209 2.378 1_556 S
O238 C227 1.236 . S
O239 Tb208 2.341 . S
O239 C227 1.266 . S
H240 C212 0.929 . S
H241 C213 0.931 . S
H242 C215 0.930 . S
H243 C216 0.930 1_455 S
H244 C221 0.929 . S
H245 C222 0.931 . S
H246 C224 0.930 . S
H247 C225 0.930 . S
H248 C266 0.951 . S
H249 C268 0.951 . S
H250 C270 0.950 . S
H251 C271 0.950 . S
H252 C273 0.950 . S
H253 C276 0.950 . S
H254 C277 0.950 . S
H255 C279 0.950 . S
H256 C280 0.950 . S
H257 C281 0.951 . S
H258 C283 0.951 . S
H259 C285 0.950 . S
H260 C286 0.950 . S
H261 C288 0.950 . S
H262 C291 0.950 . S
H263 C292 0.950 . S
H264 C294 0.950 . S
H265 C295 0.950 . S
C266 H248 0.951 . S
C266 C267 1.366 . S
C266 C268 1.388 . S
C267 C266 1.366 . S
C267 C271 1.385 . S
C268 H249 0.951 . S
C268 C266 1.388 . S
C268 C269 1.366 . S
C269 C268 1.366 . S
C269 C270 1.414 . S
C269 C272 1.499 . S
C270 H250 0.950 . S
C270 C269 1.414 . S
C270 C271 1.374 . S
C271 H251 0.950 . S
C271 C267 1.385 . S
C271 C270 1.374 . S
C272 C269 1.499 . S
C272 C273 1.373 . S
C272 C274 1.389 . S
C273 H252 0.950 . S
C273 C272 1.373 . S
C273 C289 1.377 . S
C274 C272 1.389 . S
C274 C275 1.524 . S
C274 C288 1.377 . S
C275 C274 1.524 . S
C275 C276 1.397 . S
C275 C280 1.363 . S
C276 H253 0.950 . S
C276 C275 1.397 . S
C276 C277 1.334 . S
C277 H254 0.950 . S
C277 C276 1.334 . S
C277 C278 1.287 . S
C278 C277 1.287 . S
C278 C279 1.524 . S
C278 H297 0.913 . S
C279 H255 0.950 . S
C279 C278 1.524 . S
C279 C280 1.415 . S
C280 H256 0.950 . S
C280 C275 1.363 . S
C280 C279 1.415 . S
C281 H257 0.951 . S
C281 C282 1.366 . S
C281 C283 1.388 . S
C282 C281 1.366 . S
C282 C286 1.385 . S
C283 H258 0.951 . S
C283 C281 1.388 . S
C283 C284 1.366 . S
C284 C283 1.366 . S
C284 C285 1.414 . S
C284 C287 1.499 . S
C285 H259 0.950 . S
C285 C284 1.414 . S
C285 C286 1.374 . S
C286 H260 0.950 . S
C286 C282 1.385 . S
C286 C285 1.374 . S
C287 C284 1.499 . S
C287 C288 1.373 . S
C287 C289 1.389 . S
C288 H261 0.950 . S
C288 C274 1.377 . S
C288 C287 1.373 . S
C289 C273 1.377 . S
C289 C287 1.389 . S
C289 C290 1.524 . S
C290 C289 1.524 . S
C290 C291 1.397 . S
C290 C295 1.363 . S
C291 H262 0.950 . S
C291 C290 1.397 . S
C291 C292 1.334 . S
C292 H263 0.950 . S
C292 C291 1.334 . S
C292 C293 1.287 . S
C293 C292 1.287 . S
C293 C294 1.524 . S
C293 H296 0.999 . S
C294 H264 0.950 . S
C294 C293 1.524 . S
C294 C295 1.415 . S
C295 H265 0.950 . S
C295 C290 1.363 . S
C295 C294 1.415 . S
H296 C293 0.999 . S
H297 C278 0.913 . S
H298 C316 0.951 . S
H299 C318 0.951 . S
H300 C320 0.950 . S
H301 C321 0.950 . S
H302 C323 0.950 . S
H303 C326 0.950 . S
H304 C327 0.950 . S
H305 C329 0.950 . S
H306 C330 0.950 . S
H307 C331 0.951 . S
H308 C333 0.951 . S
H309 C335 0.950 . S
H310 C336 0.950 . S
H311 C338 0.950 . S
H312 C341 0.950 . S
H313 C342 0.950 . S
H314 C344 0.950 . S
H315 C345 0.950 . S
C316 H298 0.951 . S
C316 C317 1.366 . S
C316 C318 1.388 . S
C317 C316 1.366 . S
C317 C321 1.385 . S
C318 H299 0.951 . S
C318 C316 1.388 . S
C318 C319 1.366 . S
C319 C318 1.366 . S
C319 C320 1.414 . S
C319 C322 1.499 . S
C320 H300 0.950 . S
C320 C319 1.414 . S
C320 C321 1.374 . S
C321 H301 0.950 . S
C321 C317 1.385 . S
C321 C320 1.374 . S
C322 C319 1.499 . S
C322 C323 1.373 . S
C322 C324 1.389 . S
C323 H302 0.950 . S
C323 C322 1.373 . S
C323 C339 1.377 . S
C324 C322 1.389 . S
C324 C325 1.524 . S
C324 C338 1.377 . S
C325 C324 1.524 . S
C325 C326 1.397 . S
C325 C330 1.363 . S
C326 H303 0.950 . S
C326 C325 1.397 . S
C326 C327 1.334 . S
C327 H304 0.950 . S
C327 C326 1.334 . S
C327 C328 1.287 . S
C328 C327 1.287 . S
C328 C329 1.524 . S
C328 H347 0.913 . S
C329 H305 0.950 . S
C329 C328 1.524 . S
C329 C330 1.415 . S
C330 H306 0.950 . S
C330 C325 1.363 . S
C330 C329 1.415 . S
C331 H307 0.951 . S
C331 C332 1.366 . S
C331 C333 1.388 . S
C332 C331 1.366 . S
C332 C336 1.385 . S
C333 H308 0.951 . S
C333 C331 1.388 . S
C333 C334 1.366 . S
C334 C333 1.366 . S
C334 C335 1.414 . S
C334 C337 1.499 . S
C335 H309 0.950 . S
C335 C334 1.414 . S
C335 C336 1.374 . S
C336 H310 0.950 . S
C336 C332 1.385 . S
C336 C335 1.374 . S
C337 C334 1.499 . S
C337 C338 1.373 . S
C337 C339 1.389 . S
C338 H311 0.950 . S
C338 C324 1.377 . S
C338 C337 1.373 . S
C339 C323 1.377 . S
C339 C337 1.389 . S
C339 C340 1.524 . S
C340 C339 1.524 . S
C340 C341 1.397 . S
C340 C345 1.363 . S
C341 H312 0.950 . S
C341 C340 1.397 . S
C341 C342 1.334 . S
C342 H313 0.950 . S
C342 C341 1.334 . S
C342 C343 1.287 . S
C343 C342 1.287 . S
C343 C344 1.524 . S
C343 H346 0.999 . S
C344 H314 0.950 . S
C344 C343 1.524 . S
C344 C345 1.415 . S
C345 H315 0.950 . S
C345 C340 1.363 . S
C345 C344 1.415 . S
H346 C343 0.999 . S
H347 C328 0.913 . S
H348 C366 0.951 . S
H349 C368 0.951 . S
H350 C370 0.950 . S
H351 C371 0.950 . S
H352 C373 0.950 . S
H353 C376 0.950 . S
H354 C377 0.950 . S
H355 C379 0.950 . S
H356 C380 0.950 . S
H357 C381 0.951 . S
H358 C383 0.951 . S
H359 C385 0.950 . S
H360 C386 0.950 . S
H361 C388 0.950 . S
H362 C391 0.950 . S
H363 C392 0.950 . S
H364 C394 0.950 . S
H365 C395 0.950 . S
C366 H348 0.951 . S
C366 C367 1.366 . S
C366 C368 1.388 . S
C367 C366 1.366 . S
C367 C371 1.385 . S
C368 H349 0.951 . S
C368 C366 1.388 . S
C368 C369 1.366 . S
C369 C368 1.366 . S
C369 C370 1.414 . S
C369 C372 1.499 . S
C370 H350 0.950 . S
C370 C369 1.414 . S
C370 C371 1.374 . S
C371 H351 0.950 . S
C371 C367 1.385 . S
C371 C370 1.374 . S
C372 C369 1.499 . S
C372 C373 1.373 . S
C372 C374 1.389 . S
C373 H352 0.950 . S
C373 C372 1.373 . S
C373 C389 1.377 . S
C374 C372 1.389 . S
C374 C375 1.524 . S
C374 C388 1.377 . S
C375 C374 1.524 . S
C375 C376 1.397 . S
C375 C380 1.363 . S
C376 H353 0.950 . S
C376 C375 1.397 . S
C376 C377 1.334 . S
C377 H354 0.950 . S
C377 C376 1.334 . S
C377 C378 1.287 . S
C378 C377 1.287 . S
C378 C379 1.524 . S
C378 H397 0.913 . S
C379 H355 0.950 . S
C379 C378 1.524 . S
C379 C380 1.415 . S
C380 H356 0.950 . S
C380 C375 1.363 . S
C380 C379 1.415 . S
C381 H357 0.951 . S
C381 C382 1.366 . S
C381 C383 1.388 . S
C382 C381 1.366 . S
C382 C386 1.385 . S
C383 H358 0.951 . S
C383 C381 1.388 . S
C383 C384 1.366 . S
C384 C383 1.366 . S
C384 C385 1.414 . S
C384 C387 1.499 . S
C385 H359 0.950 . S
C385 C384 1.414 . S
C385 C386 1.374 . S
C386 H360 0.950 . S
C386 C382 1.385 . S
C386 C385 1.374 . S
C387 C384 1.499 . S
C387 C388 1.373 . S
C387 C389 1.389 . S
C388 H361 0.950 . S
C388 C374 1.377 . S
C388 C387 1.373 . S
C389 C373 1.377 . S
C389 C387 1.389 . S
C389 C390 1.524 . S
C390 C389 1.524 . S
C390 C391 1.397 . S
C390 C395 1.363 . S
C391 H362 0.950 . S
C391 C390 1.397 . S
C391 C392 1.334 . S
C392 H363 0.950 . S
C392 C391 1.334 . S
C392 C393 1.287 . S
C393 C392 1.287 . S
C393 C394 1.524 . S
C393 H396 0.999 . S
C394 H364 0.950 . S
C394 C393 1.524 . S
C394 C395 1.415 . S
C395 H365 0.950 . S
C395 C390 1.363 . S
C395 C394 1.415 . S
H396 C393 0.999 . S
H397 C378 0.913 . S
H398 C416 0.951 . S
H399 C418 0.951 . S
H400 C420 0.950 . S
H401 C421 0.950 . S
H402 C423 0.950 . S
H403 C426 0.950 . S
H404 C427 0.950 . S
H405 C429 0.950 . S
H406 C430 0.950 . S
H407 C431 0.951 . S
H408 C433 0.951 . S
H409 C435 0.950 . S
H410 C436 0.950 . S
H411 C438 0.950 . S
H412 C441 0.950 . S
H413 C442 0.950 1_455 S
H414 C444 0.950 . S
H415 C445 0.950 . S
C416 H398 0.951 . S
C416 C417 1.366 . S
C416 C418 1.388 . S
C417 C416 1.366 . S
C417 C421 1.385 . S
C418 H399 0.951 . S
C418 C416 1.388 . S
C418 C419 1.366 . S
C419 C418 1.366 . S
C419 C420 1.414 . S
C419 C422 1.499 . S
C420 H400 0.950 . S
C420 C419 1.414 . S
C420 C421 1.374 . S
C421 H401 0.950 . S
C421 C417 1.385 . S
C421 C420 1.374 . S
C422 C419 1.499 . S
C422 C423 1.373 . S
C422 C424 1.389 . S
C423 H402 0.950 . S
C423 C422 1.373 . S
C423 C439 1.377 . S
C424 C422 1.389 . S
C424 C425 1.524 . S
C424 C438 1.377 . S
C425 C424 1.524 . S
C425 C426 1.397 . S
C425 C430 1.363 . S
C426 H403 0.950 . S
C426 C425 1.397 . S
C426 C427 1.334 . S
C427 H404 0.950 . S
C427 C426 1.334 . S
C427 C428 1.287 . S
C428 C427 1.287 . S
C428 C429 1.524 . S
C428 H447 0.913 . S
C429 H405 0.950 . S
C429 C428 1.524 . S
C429 C430 1.415 . S
C430 H406 0.950 . S
C430 C425 1.363 . S
C430 C429 1.415 . S
C431 H407 0.951 . S
C431 C432 1.366 . S
C431 C433 1.388 . S
C432 C431 1.366 . S
C432 C436 1.385 . S
C433 H408 0.951 . S
C433 C431 1.388 . S
C433 C434 1.366 . S
C434 C433 1.366 . S
C434 C435 1.414 . S
C434 C437 1.499 . S
C435 H409 0.950 . S
C435 C434 1.414 . S
C435 C436 1.374 . S
C436 H410 0.950 . S
C436 C432 1.385 . S
C436 C435 1.374 . S
C437 C434 1.499 . S
C437 C438 1.373 . S
C437 C439 1.389 . S
C438 H411 0.950 . S
C438 C424 1.377 . S
C438 C437 1.373 . S
C439 C423 1.377 . S
C439 C437 1.389 . S
C439 C440 1.524 . S
C440 C439 1.524 . S
C440 C441 1.397 . S
C440 C445 1.363 . S
C441 H412 0.950 . S
C441 C440 1.397 . S
C441 C442 1.334 . S
C442 H413 0.950 1_655 S
C442 C441 1.334 . S
C442 C443 1.287 . S
C443 C442 1.287 . S
C443 C444 1.524 . S
C443 H446 0.999 . S
C444 H414 0.950 . S
C444 C443 1.524 . S
C444 C445 1.415 . S
C445 H415 0.950 . S
C445 C440 1.363 . S
C445 C444 1.415 . S
H446 C443 0.999 . S
H447 C428 0.913 . S
H448 C466 0.951 . S
H449 C468 0.951 . S
H450 C470 0.950 . S
H451 C471 0.950 . S
H452 C473 0.950 . S
H453 C476 0.950 . S
H454 C477 0.950 . S
H455 C479 0.950 . S
H456 C480 0.950 . S
H457 C481 0.951 . S
H458 C483 0.951 . S
H459 C485 0.950 . S
H460 C486 0.950 . S
H461 C488 0.950 . S
H462 C491 0.950 . S
H463 C492 0.950 . S
H464 C494 0.950 . S
H465 C495 0.950 . S
C466 H448 0.951 . S
C466 C467 1.366 . S
C466 C468 1.388 . S
C467 C466 1.366 . S
C467 C471 1.385 . S
C468 H449 0.951 . S
C468 C466 1.388 . S
C468 C469 1.366 . S
C469 C468 1.366 . S
C469 C470 1.414 . S
C469 C472 1.499 . S
C470 H450 0.950 . S
C470 C469 1.414 . S
C470 C471 1.374 . S
C471 H451 0.950 . S
C471 C467 1.385 . S
C471 C470 1.374 . S
C472 C469 1.499 . S
C472 C473 1.373 . S
C472 C474 1.389 . S
C473 H452 0.950 . S
C473 C472 1.373 . S
C473 C489 1.377 . S
C474 C472 1.389 . S
C474 C475 1.524 . S
C474 C488 1.377 . S
C475 C474 1.524 . S
C475 C476 1.397 . S
C475 C480 1.363 . S
C476 H453 0.950 . S
C476 C475 1.397 . S
C476 C477 1.334 . S
C477 H454 0.950 . S
C477 C476 1.334 . S
C477 C478 1.287 . S
C478 C477 1.287 . S
C478 C479 1.524 . S
C478 H497 0.913 . S
C479 H455 0.950 . S
C479 C478 1.524 . S
C479 C480 1.415 . S
C480 H456 0.950 . S
C480 C475 1.363 . S
C480 C479 1.415 . S
C481 H457 0.951 . S
C481 C482 1.366 . S
C481 C483 1.388 . S
C482 C481 1.366 . S
C482 C486 1.385 . S
C483 H458 0.951 . S
C483 C481 1.388 . S
C483 C484 1.366 . S
C484 C483 1.366 . S
C484 C485 1.414 . S
C484 C487 1.499 . S
C485 H459 0.950 . S
C485 C484 1.414 . S
C485 C486 1.374 . S
C486 H460 0.950 . S
C486 C482 1.385 . S
C486 C485 1.374 . S
C487 C484 1.499 . S
C487 C488 1.373 . S
C487 C489 1.389 . S
C488 H461 0.950 . S
C488 C474 1.377 . S
C488 C487 1.373 . S
C489 C473 1.377 . S
C489 C487 1.389 . S
C489 C490 1.524 . S
C490 C489 1.524 . S
C490 C491 1.397 . S
C490 C495 1.363 . S
C491 H462 0.950 . S
C491 C490 1.397 . S
C491 C492 1.334 . S
C492 H463 0.950 . S
C492 C491 1.334 . S
C492 C493 1.287 . S
C493 C492 1.287 . S
C493 C494 1.524 . S
C493 H496 0.999 . S
C494 H464 0.950 . S
C494 C493 1.524 . S
C494 C495 1.415 . S
C495 H465 0.950 . S
C495 C490 1.363 . S
C495 C494 1.415 . S
H496 C493 0.999 . S
H497 C478 0.913 . S
H498 C516 0.951 . S
H499 C518 0.951 . S
H500 C520 0.950 . S
H501 C521 0.950 . S
H502 C523 0.950 . S
H503 C526 0.950 . S
H504 C527 0.950 . S
H505 C529 0.950 . S
H506 C530 0.950 . S
H507 C531 0.951 . S
H508 C533 0.951 . S
H509 C535 0.950 . S
H510 C536 0.950 . S
H511 C538 0.950 . S
H512 C541 0.950 . S
H513 C542 0.950 . S
H514 C544 0.950 . S
H515 C545 0.950 . S
C516 H498 0.951 . S
C516 C517 1.366 . S
C516 C518 1.388 . S
C517 C516 1.366 . S
C517 C521 1.385 . S
C518 H499 0.951 . S
C518 C516 1.388 . S
C518 C519 1.366 . S
C519 C518 1.366 . S
C519 C520 1.414 . S
C519 C522 1.499 . S
C520 H500 0.950 . S
C520 C519 1.414 . S
C520 C521 1.374 . S
C521 H501 0.950 . S
C521 C517 1.385 . S
C521 C520 1.374 . S
C522 C519 1.499 . S
C522 C523 1.373 . S
C522 C524 1.389 . S
C523 H502 0.950 . S
C523 C522 1.373 . S
C523 C539 1.377 . S
C524 C522 1.389 . S
C524 C525 1.524 . S
C524 C538 1.377 . S
C525 C524 1.524 . S
C525 C526 1.397 . S
C525 C530 1.363 . S
C526 H503 0.950 . S
C526 C525 1.397 . S
C526 C527 1.334 . S
C527 H504 0.950 . S
C527 C526 1.334 . S
C527 C528 1.287 . S
C528 C527 1.287 . S
C528 C529 1.524 . S
C528 H547 0.913 . S
C529 H505 0.950 . S
C529 C528 1.524 . S
C529 C530 1.415 . S
C530 H506 0.950 . S
C530 C525 1.363 . S
C530 C529 1.415 . S
C531 H507 0.951 . S
C531 C532 1.366 . S
C531 C533 1.388 . S
C532 C531 1.366 . S
C532 C536 1.385 . S
C533 H508 0.951 . S
C533 C531 1.388 . S
C533 C534 1.366 . S
C534 C533 1.366 . S
C534 C535 1.414 . S
C534 C537 1.499 . S
C535 H509 0.950 . S
C535 C534 1.414 . S
C535 C536 1.374 . S
C536 H510 0.950 . S
C536 C532 1.385 . S
C536 C535 1.374 . S
C537 C534 1.499 . S
C537 C538 1.373 . S
C537 C539 1.389 . S
C538 H511 0.950 . S
C538 C524 1.377 . S
C538 C537 1.373 . S
C539 C523 1.377 . S
C539 C537 1.389 . S
C539 C540 1.524 . S
C540 C539 1.524 . S
C540 C541 1.397 . S
C540 C545 1.363 . S
C541 H512 0.950 . S
C541 C540 1.397 . S
C541 C542 1.334 . S
C542 H513 0.950 . S
C542 C541 1.334 . S
C542 C543 1.287 . S
C543 C542 1.287 . S
C543 C544 1.524 . S
C543 H546 0.999 . S
C544 H514 0.950 . S
C544 C543 1.524 . S
C544 C545 1.415 . S
C545 H515 0.950 . S
C545 C540 1.363 . S
C545 C544 1.415 . S
H546 C543 0.999 . S
H547 C528 0.913 . S
H548 C566 0.951 . S
H549 C568 0.951 . S
H550 C570 0.950 . S
H551 C571 0.950 . S
H552 C573 0.950 . S
H553 C576 0.950 . S
H554 C577 0.950 . S
H555 C579 0.950 . S
H556 C580 0.950 . S
H557 C581 0.951 . S
H558 C583 0.951 . S
H559 C585 0.950 . S
H560 C586 0.950 . S
H561 C588 0.950 . S
H562 C591 0.950 . S
H563 C592 0.950 . S
H564 C594 0.950 . S
H565 C595 0.950 . S
C566 H548 0.951 . S
C566 C567 1.366 . S
C566 C568 1.388 . S
C567 C566 1.366 . S
C567 C571 1.385 . S
C568 H549 0.951 . S
C568 C566 1.388 . S
C568 C569 1.366 . S
C569 C568 1.366 . S
C569 C570 1.414 . S
C569 C572 1.499 . S
C570 H550 0.950 . S
C570 C569 1.414 . S
C570 C571 1.374 . S
C571 H551 0.950 . S
C571 C567 1.385 . S
C571 C570 1.374 . S
C572 C569 1.499 . S
C572 C573 1.373 . S
C572 C574 1.389 . S
C573 H552 0.950 . S
C573 C572 1.373 . S
C573 C589 1.377 . S
C574 C572 1.389 . S
C574 C575 1.524 . S
C574 C588 1.377 . S
C575 C574 1.524 . S
C575 C576 1.397 . S
C575 C580 1.363 . S
C576 H553 0.950 . S
C576 C575 1.397 . S
C576 C577 1.334 . S
C577 H554 0.950 . S
C577 C576 1.334 . S
C577 C578 1.287 . S
C578 C577 1.287 . S
C578 C579 1.524 . S
C578 H597 0.913 . S
C579 H555 0.950 . S
C579 C578 1.524 . S
C579 C580 1.415 . S
C580 H556 0.950 . S
C580 C575 1.363 . S
C580 C579 1.415 . S
C581 H557 0.951 . S
C581 C582 1.366 . S
C581 C583 1.388 . S
C582 C581 1.366 . S
C582 C586 1.385 . S
C583 H558 0.951 . S
C583 C581 1.388 . S
C583 C584 1.366 . S
C584 C583 1.366 . S
C584 C585 1.414 . S
C584 C587 1.499 . S
C585 H559 0.950 . S
C585 C584 1.414 . S
C585 C586 1.374 . S
C586 H560 0.950 . S
C586 C582 1.385 . S
C586 C585 1.374 . S
C587 C584 1.499 . S
C587 C588 1.373 . S
C587 C589 1.389 . S
C588 H561 0.950 . S
C588 C574 1.377 . S
C588 C587 1.373 . S
C589 C573 1.377 . S
C589 C587 1.389 . S
C589 C590 1.524 . S
C590 C589 1.524 . S
C590 C591 1.397 . S
C590 C595 1.363 . S
C591 H562 0.950 . S
C591 C590 1.397 . S
C591 C592 1.334 . S
C592 H563 0.950 . S
C592 C591 1.334 . S
C592 C593 1.287 . S
C593 C592 1.287 . S
C593 C594 1.524 . S
C593 H596 0.999 . S
C594 H564 0.950 . S
C594 C593 1.524 . S
C594 C595 1.415 . S
C595 H565 0.950 . S
C595 C590 1.363 . S
C595 C594 1.415 . S
H596 C593 0.999 . S
H597 C578 0.913 . S
H598 C616 0.951 . S
H599 C618 0.951 . S
H600 C620 0.950 . S
H601 C621 0.950 . S
H602 C623 0.950 . S
H603 C626 0.950 . S
H604 C627 0.950 . S
H605 C629 0.950 . S
H606 C630 0.950 . S
H607 C631 0.951 . S
H608 C633 0.951 . S
H609 C635 0.950 . S
H610 C636 0.950 . S
H611 C638 0.950 . S
H612 C641 0.950 . S
H613 C642 0.950 . S
H614 C644 0.950 . S
H615 C645 0.950 . S
C616 H598 0.951 . S
C616 C617 1.366 . S
C616 C618 1.388 . S
C617 C616 1.366 . S
C617 C621 1.385 . S
C618 H599 0.951 . S
C618 C616 1.388 . S
C618 C619 1.366 . S
C619 C618 1.366 . S
C619 C620 1.414 . S
C619 C622 1.499 . S
C620 H600 0.950 . S
C620 C619 1.414 . S
C620 C621 1.374 . S
C621 H601 0.950 . S
C621 C617 1.385 . S
C621 C620 1.374 . S
C622 C619 1.499 . S
C622 C623 1.373 . S
C622 C624 1.389 . S
C623 H602 0.950 . S
C623 C622 1.373 . S
C623 C639 1.377 . S
C624 C622 1.389 . S
C624 C625 1.524 . S
C624 C638 1.377 . S
C625 C624 1.524 . S
C625 C626 1.397 . S
C625 C630 1.363 . S
C626 H603 0.950 . S
C626 C625 1.397 . S
C626 C627 1.334 . S
C627 H604 0.950 . S
C627 C626 1.334 . S
C627 C628 1.287 . S
C628 C627 1.287 . S
C628 C629 1.524 . S
C628 H647 0.913 . S
C629 H605 0.950 . S
C629 C628 1.524 . S
C629 C630 1.415 . S
C630 H606 0.950 . S
C630 C625 1.363 . S
C630 C629 1.415 . S
C631 H607 0.951 . S
C631 C632 1.366 . S
C631 C633 1.388 . S
C632 C631 1.366 . S
C632 C636 1.385 . S
C633 H608 0.951 . S
C633 C631 1.388 . S
C633 C634 1.366 . S
C634 C633 1.366 . S
C634 C635 1.414 . S
C634 C637 1.499 . S
C635 H609 0.950 . S
C635 C634 1.414 . S
C635 C636 1.374 . S
C636 H610 0.950 . S
C636 C632 1.385 . S
C636 C635 1.374 . S
C637 C634 1.499 . S
C637 C638 1.373 . S
C637 C639 1.389 . S
C638 H611 0.950 . S
C638 C624 1.377 . S
C638 C637 1.373 . S
C639 C623 1.377 . S
C639 C637 1.389 . S
C639 C640 1.524 . S
C640 C639 1.524 . S
C640 C641 1.397 . S
C640 C645 1.363 . S
C641 H612 0.950 . S
C641 C640 1.397 . S
C641 C642 1.334 . S
C642 H613 0.950 . S
C642 C641 1.334 . S
C642 C643 1.287 . S
C643 C642 1.287 . S
C643 C644 1.524 . S
C643 H646 0.999 . S
C644 H614 0.950 . S
C644 C643 1.524 . S
C644 C645 1.415 . S
C645 H615 0.950 . S
C645 C640 1.363 . S
C645 C644 1.415 . S
H646 C643 0.999 . S
H647 C628 0.913 . S
H648 C666 0.951 . S
H649 C668 0.951 . S
H650 C670 0.950 . S
H651 C671 0.950 . S
H652 C673 0.950 . S
H653 C676 0.950 . S
H654 C677 0.950 . S
H655 C679 0.950 . S
H656 C680 0.950 . S
H657 C681 0.951 . S
H658 C683 0.951 . S
H659 C685 0.950 . S
H660 C686 0.950 . S
H661 C688 0.950 . S
H662 C691 0.950 . S
H663 C692 0.950 . S
H664 C694 0.950 . S
H665 C695 0.950 . S
C666 H648 0.951 . S
C666 C667 1.366 . S
C666 C668 1.388 . S
C667 C666 1.366 . S
C667 C671 1.385 . S
C668 H649 0.951 . S
C668 C666 1.388 . S
C668 C669 1.366 . S
C669 C668 1.366 . S
C669 C670 1.414 . S
C669 C672 1.499 . S
C670 H650 0.950 . S
C670 C669 1.414 . S
C670 C671 1.374 . S
C671 H651 0.950 . S
C671 C667 1.385 . S
C671 C670 1.374 . S
C672 C669 1.499 . S
C672 C673 1.373 . S
C672 C674 1.389 . S
C673 H652 0.950 . S
C673 C672 1.373 . S
C673 C689 1.377 . S
C674 C672 1.389 . S
C674 C675 1.524 . S
C674 C688 1.377 . S
C675 C674 1.524 . S
C675 C676 1.397 . S
C675 C680 1.363 . S
C676 H653 0.950 . S
C676 C675 1.397 . S
C676 C677 1.334 . S
C677 H654 0.950 . S
C677 C676 1.334 . S
C677 C678 1.287 . S
C678 C677 1.287 . S
C678 C679 1.524 . S
C678 H697 0.913 . S
C679 H655 0.950 . S
C679 C678 1.524 . S
C679 C680 1.415 . S
C680 H656 0.950 . S
C680 C675 1.363 . S
C680 C679 1.415 . S
C681 H657 0.951 . S
C681 C682 1.366 . S
C681 C683 1.388 . S
C682 C681 1.366 . S
C682 C686 1.385 . S
C683 H658 0.951 . S
C683 C681 1.388 . S
C683 C684 1.366 . S
C684 C683 1.366 . S
C684 C685 1.414 . S
C684 C687 1.499 . S
C685 H659 0.950 . S
C685 C684 1.414 . S
C685 C686 1.374 . S
C686 H660 0.950 . S
C686 C682 1.385 . S
C686 C685 1.374 . S
C687 C684 1.499 . S
C687 C688 1.373 . S
C687 C689 1.389 . S
C688 H661 0.950 . S
C688 C674 1.377 . S
C688 C687 1.373 . S
C689 C673 1.377 . S
C689 C687 1.389 . S
C689 C690 1.524 . S
C690 C689 1.524 . S
C690 C691 1.397 . S
C690 C695 1.363 . S
C691 H662 0.950 . S
C691 C690 1.397 . S
C691 C692 1.334 . S
C692 H663 0.950 . S
C692 C691 1.334 . S
C692 C693 1.287 . S
C693 C692 1.287 . S
C693 C694 1.524 . S
C693 H696 0.999 . S
C694 H664 0.950 . S
C694 C693 1.524 . S
C694 C695 1.415 . S
C695 H665 0.950 . S
C695 C690 1.363 . S
C695 C694 1.415 . S
H696 C693 0.999 . S
H697 C678 0.913 . S
H698 C716 0.951 . S
H699 C718 0.951 . S
H700 C720 0.950 . S
H701 C721 0.950 . S
H702 C723 0.950 . S
H703 C726 0.950 . S
H704 C727 0.950 . S
H705 C729 0.950 1_554 S
H706 C730 0.950 . S
H707 C731 0.951 . S
H708 C733 0.951 . S
H709 C735 0.950 . S
H710 C736 0.946 . S
H711 C738 0.950 . S
H712 C741 0.950 . S
H713 C742 0.950 . S
H714 C744 0.950 . S
H715 C745 0.950 . S
C716 H698 0.951 . S
C716 C717 1.366 . S
C716 C718 1.388 . S
C717 C716 1.366 . S
C717 C721 1.385 . S
C718 H699 0.951 . S
C718 C716 1.388 . S
C718 C719 1.366 . S
C719 C718 1.366 . S
C719 C720 1.414 . S
C719 C722 1.499 . S
C720 H700 0.950 . S
C720 C719 1.414 . S
C720 C721 1.374 . S
C721 H701 0.950 . S
C721 C717 1.385 . S
C721 C720 1.374 . S
C722 C719 1.499 . S
C722 C723 1.373 . S
C722 C724 1.389 . S
C723 H702 0.950 . S
C723 C722 1.373 . S
C723 C739 1.377 . S
C724 C722 1.389 . S
C724 C725 1.524 . S
C724 C738 1.377 . S
C725 C724 1.524 . S
C725 C726 1.397 . S
C725 C730 1.363 . S
C726 H703 0.950 . S
C726 C725 1.397 . S
C726 C727 1.334 . S
C727 H704 0.950 . S
C727 C726 1.334 . S
C727 C728 1.287 . S
C728 C727 1.287 . S
C728 C729 1.524 . S
C728 H747 0.913 . S
C729 H705 0.950 1_556 S
C729 C728 1.524 . S
C729 C730 1.415 . S
C730 H706 0.950 . S
C730 C725 1.363 . S
C730 C729 1.415 . S
C731 H707 0.951 . S
C731 C732 1.366 . S
C731 C733 1.388 . S
C732 C731 1.366 . S
C732 C736 1.385 1_556 S
C733 H708 0.951 . S
C733 C731 1.388 . S
C733 C734 1.366 . S
C734 C733 1.366 . S
C734 C735 1.414 . S
C734 C737 1.499 . S
C735 H709 0.950 . S
C735 C734 1.414 . S
C735 C736 1.377 1_556 S
C736 H710 0.946 . S
C736 C732 1.385 1_554 S
C736 C735 1.377 1_554 S
C737 C734 1.499 . S
C737 C738 1.373 . S
C737 C739 1.389 . S
C738 H711 0.950 . S
C738 C724 1.377 . S
C738 C737 1.373 . S
C739 C723 1.377 . S
C739 C737 1.389 . S
C739 C740 1.524 . S
C740 C739 1.524 . S
C740 C741 1.397 . S
C740 C745 1.363 . S
C741 H712 0.950 . S
C741 C740 1.397 . S
C741 C742 1.334 . S
C742 H713 0.950 . S
C742 C741 1.334 . S
C742 C743 1.287 . S
C743 C742 1.287 . S
C743 C744 1.524 . S
C743 H746 0.999 . S
C744 H714 0.950 . S
C744 C743 1.524 . S
C744 C745 1.415 . S
C745 H715 0.950 . S
C745 C740 1.363 . S
C745 C744 1.415 . S
H746 C743 0.999 . S
H747 C728 0.913 . S
H748 C766 0.951 . S
H749 C768 0.951 . S
H750 C770 0.950 . S
H751 C771 0.950 . S
H752 C773 0.950 . S
H753 C776 0.950 . S
H754 C777 0.950 . S
H755 C779 0.950 . S
H756 C780 0.950 . S
H757 C781 0.951 . S
H758 C783 0.951 . S
H759 C785 0.950 . S
H760 C786 0.950 . S
H761 C788 0.950 . S
H762 C791 0.950 . S
H763 C792 0.950 . S
H764 C794 0.950 1_455 S
H765 C795 0.950 . S
C766 H748 0.951 . S
C766 C767 1.366 . S
C766 C768 1.388 . S
C767 C766 1.366 . S
C767 C771 1.385 . S
C768 H749 0.951 . S
C768 C766 1.388 . S
C768 C769 1.366 . S
C769 C768 1.366 . S
C769 C770 1.414 . S
C769 C772 1.499 . S
C770 H750 0.950 . S
C770 C769 1.414 . S
C770 C771 1.374 . S
C771 H751 0.950 . S
C771 C767 1.385 . S
C771 C770 1.374 . S
C772 C769 1.499 . S
C772 C773 1.373 . S
C772 C774 1.389 . S
C773 H752 0.950 . S
C773 C772 1.373 . S
C773 C789 1.377 . S
C774 C772 1.389 . S
C774 C775 1.524 . S
C774 C788 1.377 . S
C775 C774 1.524 . S
C775 C776 1.397 . S
C775 C780 1.363 . S
C776 H753 0.950 . S
C776 C775 1.397 . S
C776 C777 1.334 . S
C777 H754 0.950 . S
C777 C776 1.334 . S
C777 C778 1.287 . S
C778 C777 1.287 . S
C778 C779 1.524 . S
C778 H797 0.913 . S
C779 H755 0.950 . S
C779 C778 1.524 . S
C779 C780 1.415 . S
C780 H756 0.950 . S
C780 C775 1.363 . S
C780 C779 1.415 . S
C781 H757 0.951 . S
C781 C782 1.366 . S
C781 C783 1.388 . S
C782 C781 1.366 . S
C782 C786 1.385 . S
C783 H758 0.951 . S
C783 C781 1.388 . S
C783 C784 1.366 . S
C784 C783 1.366 . S
C784 C785 1.414 . S
C784 C787 1.499 . S
C785 H759 0.950 . S
C785 C784 1.414 . S
C785 C786 1.374 . S
C786 H760 0.950 . S
C786 C782 1.385 . S
C786 C785 1.374 . S
C787 C784 1.499 . S
C787 C788 1.373 . S
C787 C789 1.389 . S
C788 H761 0.950 . S
C788 C774 1.377 . S
C788 C787 1.373 . S
C789 C773 1.377 . S
C789 C787 1.389 . S
C789 C790 1.524 . S
C790 C789 1.524 . S
C790 C791 1.397 . S
C790 C795 1.363 . S
C791 H762 0.950 . S
C791 C790 1.397 . S
C791 C792 1.334 . S
C792 H763 0.950 . S
C792 C791 1.334 . S
C792 C793 1.287 . S
C793 C792 1.287 . S
C793 C794 1.524 . S
C793 H796 1.023 . S
C794 H764 0.950 1_655 S
C794 C793 1.524 . S
C794 C795 1.415 . S
C795 H765 0.950 . S
C795 C790 1.363 . S
C795 C794 1.415 . S
H796 C793 1.023 . S
H797 C778 0.913 . S
H798 C816 0.951 . S
H799 C818 0.951 . S
H800 C820 0.950 . S
H801 C821 0.950 . S
H802 C823 0.950 . S
H803 C826 0.950 . S
H804 C827 0.950 . S
H805 C829 0.950 . S
H806 C830 0.950 . S
H807 C831 0.951 . S
H808 C833 0.951 . S
H809 C835 0.950 . S
H810 C836 0.950 . S
H811 C838 0.950 . S
H812 C841 0.950 . S
H813 C842 0.950 . S
H814 C844 0.950 . S
H815 C845 0.950 . S
C816 H798 0.951 . S
C816 C817 1.366 . S
C816 C818 1.388 . S
C817 C816 1.366 . S
C817 C821 1.385 . S
C818 H799 0.951 . S
C818 C816 1.388 . S
C818 C819 1.366 . S
C819 C818 1.366 . S
C819 C820 1.414 . S
C819 C822 1.499 . S
C820 H800 0.950 . S
C820 C819 1.414 . S
C820 C821 1.374 . S
C821 H801 0.950 . S
C821 C817 1.385 . S
C821 C820 1.374 . S
C822 C819 1.499 . S
C822 C823 1.373 . S
C822 C824 1.389 . S
C823 H802 0.950 . S
C823 C822 1.373 . S
C823 C839 1.377 . S
C824 C822 1.389 . S
C824 C825 1.524 . S
C824 C838 1.377 . S
C825 C824 1.524 . S
C825 C826 1.397 . S
C825 C830 1.363 . S
C826 H803 0.950 . S
C826 C825 1.397 . S
C826 C827 1.334 . S
C827 H804 0.950 . S
C827 C826 1.334 . S
C827 C828 1.287 . S
C828 C827 1.287 . S
C828 C829 1.524 . S
C828 H847 0.913 . S
C829 H805 0.950 . S
C829 C828 1.524 . S
C829 C830 1.415 . S
C830 H806 0.950 . S
C830 C825 1.363 . S
C830 C829 1.415 . S
C831 H807 0.951 . S
C831 C832 1.366 . S
C831 C833 1.388 . S
C832 C831 1.366 . S
C832 C836 1.385 . S
C833 H808 0.951 . S
C833 C831 1.388 . S
C833 C834 1.366 . S
C834 C833 1.366 . S
C834 C835 1.414 . S
C834 C837 1.499 . S
C835 H809 0.950 . S
C835 C834 1.414 . S
C835 C836 1.374 . S
C836 H810 0.950 . S
C836 C832 1.385 . S
C836 C835 1.374 . S
C837 C834 1.499 . S
C837 C838 1.373 . S
C837 C839 1.389 . S
C838 H811 0.950 . S
C838 C824 1.377 . S
C838 C837 1.373 . S
C839 C823 1.377 . S
C839 C837 1.389 . S
C839 C840 1.524 . S
C840 C839 1.524 . S
C840 C841 1.397 . S
C840 C845 1.363 . S
C841 H812 0.950 . S
C841 C840 1.397 . S
C841 C842 1.334 . S
C842 H813 0.950 . S
C842 C841 1.334 . S
C842 C843 1.287 . S
C843 C842 1.287 . S
C843 C844 1.524 . S
C843 H846 0.999 . S
C844 H814 0.950 . S
C844 C843 1.524 . S
C844 C845 1.415 . S
C845 H815 0.950 . S
C845 C840 1.363 . S
C845 C844 1.415 . S
H846 C843 0.999 . S
H847 C828 0.913 . S
H848 C866 0.951 . S
H849 C868 0.951 . S
H850 C870 0.950 . S
H851 C871 0.950 . S
H852 C873 0.950 . S
H853 C876 0.950 . S
H854 C877 0.950 . S
H855 C879 0.950 . S
H856 C880 0.950 . S
H857 C881 0.951 . S
H858 C883 0.951 . S
H859 C885 0.950 . S
H860 C886 0.950 . S
H861 C888 0.950 . S
H862 C891 0.950 . S
H863 C892 0.950 . S
H864 C894 0.950 . S
H865 C895 0.950 . S
C866 H848 0.951 . S
C866 C867 1.366 . S
C866 C868 1.388 . S
C867 C866 1.366 . S
C867 C871 1.385 . S
C868 H849 0.951 . S
C868 C866 1.388 . S
C868 C869 1.366 . S
C869 C868 1.366 . S
C869 C870 1.414 . S
C869 C872 1.499 . S
C870 H850 0.950 . S
C870 C869 1.414 . S
C870 C871 1.374 . S
C871 H851 0.950 . S
C871 C867 1.385 . S
C871 C870 1.374 . S
C872 C869 1.499 . S
C872 C873 1.373 . S
C872 C874 1.389 . S
C873 H852 0.950 . S
C873 C872 1.373 . S
C873 C889 1.377 . S
C874 C872 1.389 . S
C874 C875 1.524 . S
C874 C888 1.377 . S
C875 C874 1.524 . S
C875 C876 1.397 . S
C875 C880 1.363 . S
C876 H853 0.950 . S
C876 C875 1.397 . S
C876 C877 1.334 . S
C877 H854 0.950 . S
C877 C876 1.334 . S
C877 C878 1.287 . S
C878 C877 1.287 . S
C878 C879 1.524 . S
C878 H897 0.913 . S
C879 H855 0.950 . S
C879 C878 1.524 . S
C879 C880 1.415 . S
C880 H856 0.950 . S
C880 C875 1.363 . S
C880 C879 1.415 . S
C881 H857 0.951 . S
C881 C882 1.366 . S
C881 C883 1.388 . S
C882 C881 1.366 . S
C882 C886 1.385 . S
C883 H858 0.951 . S
C883 C881 1.388 . S
C883 C884 1.366 . S
C884 C883 1.366 . S
C884 C885 1.414 . S
C884 C887 1.499 . S
C885 H859 0.950 . S
C885 C884 1.414 . S
C885 C886 1.374 . S
C886 H860 0.950 . S
C886 C882 1.385 . S
C886 C885 1.374 . S
C887 C884 1.499 . S
C887 C888 1.373 . S
C887 C889 1.389 . S
C888 H861 0.950 . S
C888 C874 1.377 . S
C888 C887 1.373 . S
C889 C873 1.377 . S
C889 C887 1.389 . S
C889 C890 1.524 . S
C890 C889 1.524 . S
C890 C891 1.397 . S
C890 C895 1.363 . S
C891 H862 0.950 . S
C891 C890 1.397 . S
C891 C892 1.334 . S
C892 H863 0.950 . S
C892 C891 1.334 . S
C892 C893 1.287 . S
C893 C892 1.287 . S
C893 C894 1.524 . S
C893 H896 0.999 . S
C894 H864 0.950 . S
C894 C893 1.524 . S
C894 C895 1.415 . S
C895 H865 0.950 . S
C895 C890 1.363 . S
C895 C894 1.415 . S
H896 C893 0.999 . S
H897 C878 0.913 . S
H898 C916 0.951 . S
H899 C918 0.951 . S
H900 C920 0.950 . S
H901 C921 0.950 . S
H902 C923 0.950 . S
H903 C926 0.950 . S
H904 C927 0.950 . S
H905 C929 0.950 . S
H906 C930 0.950 . S
H907 C931 0.951 . S
H908 C933 0.951 . S
H909 C935 0.950 . S
H910 C936 0.950 . S
H911 C938 0.950 . S
H912 C941 0.950 . S
H913 C942 0.950 . S
H914 C944 0.950 . S
H915 C945 0.950 . S
C916 H898 0.951 . S
C916 C917 1.366 . S
C916 C918 1.388 . S
C917 C916 1.366 . S
C917 C921 1.385 . S
C918 H899 0.951 . S
C918 C916 1.388 . S
C918 C919 1.366 . S
C919 C918 1.366 . S
C919 C920 1.414 . S
C919 C922 1.499 . S
C920 H900 0.950 . S
C920 C919 1.414 . S
C920 C921 1.374 . S
C921 H901 0.950 . S
C921 C917 1.385 . S
C921 C920 1.374 . S
C922 C919 1.499 . S
C922 C923 1.373 . S
C922 C924 1.389 . S
C923 H902 0.950 . S
C923 C922 1.373 . S
C923 C939 1.377 . S
C924 C922 1.389 . S
C924 C925 1.524 . S
C924 C938 1.377 . S
C925 C924 1.524 . S
C925 C926 1.397 . S
C925 C930 1.363 . S
C926 H903 0.950 . S
C926 C925 1.397 . S
C926 C927 1.334 . S
C927 H904 0.950 . S
C927 C926 1.334 . S
C927 C928 1.287 . S
C928 C927 1.287 . S
C928 C929 1.524 . S
C928 H947 0.913 . S
C929 H905 0.950 . S
C929 C928 1.524 . S
C929 C930 1.415 . S
C930 H906 0.950 . S
C930 C925 1.363 . S
C930 C929 1.415 . S
C931 H907 0.951 . S
C931 C932 1.366 . S
C931 C933 1.388 . S
C932 C931 1.366 . S
C932 C936 1.385 . S
C933 H908 0.951 . S
C933 C931 1.388 . S
C933 C934 1.366 . S
C934 C933 1.366 . S
C934 C935 1.414 . S
C934 C937 1.499 . S
C935 H909 0.950 . S
C935 C934 1.414 . S
C935 C936 1.374 . S
C936 H910 0.950 . S
C936 C932 1.385 . S
C936 C935 1.374 . S
C937 C934 1.499 . S
C937 C938 1.373 . S
C937 C939 1.389 . S
C938 H911 0.950 . S
C938 C924 1.377 . S
C938 C937 1.373 . S
C939 C923 1.377 . S
C939 C937 1.389 . S
C939 C940 1.524 . S
C940 C939 1.524 . S
C940 C941 1.397 . S
C940 C945 1.363 . S
C941 H912 0.950 . S
C941 C940 1.397 . S
C941 C942 1.334 . S
C942 H913 0.950 . S
C942 C941 1.334 . S
C942 C943 1.287 . S
C943 C942 1.287 . S
C943 C944 1.524 . S
C943 H946 0.999 . S
C944 H914 0.950 . S
C944 C943 1.524 . S
C944 C945 1.415 . S
C945 H915 0.950 . S
C945 C940 1.363 . S
C945 C944 1.415 . S
H946 C943 0.999 . S
H947 C928 0.913 . S
H948 C966 0.951 . S
H949 C968 0.951 . S
H950 C970 0.950 . S
H951 C971 0.950 . S
H952 C973 0.950 . S
H953 C976 0.950 . S
H954 C977 0.950 . S
H955 C979 0.950 . S
H956 C980 0.950 . S
H957 C981 0.951 . S
H958 C983 0.951 . S
H959 C985 0.950 . S
H960 C986 0.950 . S
H961 C988 0.950 . S
H962 C991 0.950 . S
H963 C992 0.950 . S
H964 C994 0.950 . S
H965 C995 0.950 . S
C966 H948 0.951 . S
C966 C967 1.366 . S
C966 C968 1.388 . S
C967 C966 1.366 . S
C967 C971 1.385 . S
C968 H949 0.951 . S
C968 C966 1.388 . S
C968 C969 1.366 . S
C969 C968 1.366 . S
C969 C970 1.414 . S
C969 C972 1.499 . S
C970 H950 0.950 . S
C970 C969 1.414 . S
C970 C971 1.374 . S
C971 H951 0.950 . S
C971 C967 1.385 . S
C971 C970 1.374 . S
C972 C969 1.499 . S
C972 C973 1.373 . S
C972 C974 1.389 . S
C973 H952 0.950 . S
C973 C972 1.373 . S
C973 C989 1.377 . S
C974 C972 1.389 . S
C974 C975 1.524 . S
C974 C988 1.377 . S
C975 C974 1.524 . S
C975 C976 1.397 . S
C975 C980 1.363 . S
C976 H953 0.950 . S
C976 C975 1.397 . S
C976 C977 1.334 . S
C977 H954 0.950 . S
C977 C976 1.334 . S
C977 C978 1.287 . S
C978 C977 1.287 . S
C978 C979 1.524 . S
C978 H997 0.913 . S
C979 H955 0.950 . S
C979 C978 1.524 . S
C979 C980 1.415 . S
C980 H956 0.950 . S
C980 C975 1.363 . S
C980 C979 1.415 . S
C981 H957 0.951 . S
C981 C982 1.366 . S
C981 C983 1.388 . S
C982 C981 1.366 . S
C982 C986 1.385 . S
C983 H958 0.951 . S
C983 C981 1.388 . S
C983 C984 1.366 . S
C984 C983 1.366 . S
C984 C985 1.414 . S
C984 C987 1.499 . S
C985 H959 0.950 . S
C985 C984 1.414 . S
C985 C986 1.374 . S
C986 H960 0.950 . S
C986 C982 1.385 . S
C986 C985 1.374 . S
C987 C984 1.499 . S
C987 C988 1.373 . S
C987 C989 1.389 . S
C988 H961 0.950 . S
C988 C974 1.377 . S
C988 C987 1.373 . S
C989 C973 1.377 . S
C989 C987 1.389 . S
C989 C990 1.524 . S
C990 C989 1.524 . S
C990 C991 1.397 . S
C990 C995 1.363 . S
C991 H962 0.950 . S
C991 C990 1.397 . S
C991 C992 1.334 . S
C992 H963 0.950 . S
C992 C991 1.334 . S
C992 C993 1.287 . S
C993 C992 1.287 . S
C993 C994 1.524 . S
C993 H996 0.999 . S
C994 H964 0.950 . S
C994 C993 1.524 . S
C994 C995 1.415 . S
C995 H965 0.950 . S
C995 C990 1.363 . S
C995 C994 1.415 . S
H996 C993 0.999 . S
H997 C978 0.913 . S
H998 C1016 0.951 . S
H999 C1018 0.951 . S
H1000 C1020 0.950 . S
H1001 C1021 0.950 . S
H1002 C1023 0.950 . S
H1003 C1026 0.950 . S
H1004 C1027 0.950 . S
H1005 C1029 0.950 . S
H1006 C1030 0.950 . S
H1007 C1031 0.951 . S
H1008 C1033 0.951 . S
H1009 C1035 0.950 . S
H1010 C1036 0.950 . S
H1011 C1038 0.950 . S
H1012 C1041 0.950 . S
H1013 C1042 0.950 . S
H1014 C1044 0.950 . S
H1015 C1045 0.950 . S
C1016 H998 0.951 . S
C1016 C1017 1.366 . S
C1016 C1018 1.388 . S
C1017 C1016 1.366 . S
C1017 C1021 1.385 . S
C1018 H999 0.951 . S
C1018 C1016 1.388 . S
C1018 C1019 1.366 . S
C1019 C1018 1.366 . S
C1019 C1020 1.414 . S
C1019 C1022 1.499 . S
C1020 H1000 0.950 . S
C1020 C1019 1.414 . S
C1020 C1021 1.374 . S
C1021 H1001 0.950 . S
C1021 C1017 1.385 . S
C1021 C1020 1.374 . S
C1022 C1019 1.499 . S
C1022 C1023 1.373 . S
C1022 C1024 1.389 . S
C1023 H1002 0.950 . S
C1023 C1022 1.373 . S
C1023 C1039 1.377 . S
C1024 C1022 1.389 . S
C1024 C1025 1.524 . S
C1024 C1038 1.377 . S
C1025 C1024 1.524 . S
C1025 C1026 1.397 . S
C1025 C1030 1.363 . S
C1026 H1003 0.950 . S
C1026 C1025 1.397 . S
C1026 C1027 1.334 . S
C1027 H1004 0.950 . S
C1027 C1026 1.334 . S
C1027 C1028 1.287 . S
C1028 C1027 1.287 . S
C1028 C1029 1.524 . S
C1028 H1047 0.913 . S
C1029 H1005 0.950 . S
C1029 C1028 1.524 . S
C1029 C1030 1.415 . S
C1030 H1006 0.950 . S
C1030 C1025 1.363 . S
C1030 C1029 1.415 . S
C1031 H1007 0.951 . S
C1031 C1032 1.366 . S
C1031 C1033 1.388 . S
C1032 C1031 1.366 . S
C1032 C1036 1.385 . S
C1033 H1008 0.951 . S
C1033 C1031 1.388 . S
C1033 C1034 1.366 . S
C1034 C1033 1.366 . S
C1034 C1035 1.414 . S
C1034 C1037 1.499 . S
C1035 H1009 0.950 . S
C1035 C1034 1.414 . S
C1035 C1036 1.374 . S
C1036 H1010 0.950 . S
C1036 C1032 1.385 . S
C1036 C1035 1.374 . S
C1037 C1034 1.499 . S
C1037 C1038 1.373 . S
C1037 C1039 1.389 . S
C1038 H1011 0.950 . S
C1038 C1024 1.377 . S
C1038 C1037 1.373 . S
C1039 C1023 1.377 . S
C1039 C1037 1.389 . S
C1039 C1040 1.524 . S
C1040 C1039 1.524 . S
C1040 C1041 1.397 . S
C1040 C1045 1.363 . S
C1041 H1012 0.950 . S
C1041 C1040 1.397 . S
C1041 C1042 1.334 . S
C1042 H1013 0.950 . S
C1042 C1041 1.334 . S
C1042 C1043 1.287 . S
C1043 C1042 1.287 . S
C1043 C1044 1.524 . S
C1043 H1046 0.999 . S
C1044 H1014 0.950 . S
C1044 C1043 1.524 . S
C1044 C1045 1.415 . S
C1045 H1015 0.950 . S
C1045 C1040 1.363 . S
C1045 C1044 1.415 . S
H1046 C1043 0.999 . S
H1047 C1028 0.913 . S
H1048 C1066 0.951 . S
H1049 C1068 0.951 . S
H1050 C1070 0.950 . S
H1051 C1071 0.950 . S
H1052 C1073 0.950 . S
H1053 C1076 0.950 . S
H1054 C1077 0.948 1_554 S
H1055 C1079 0.949 1_554 S
H1056 C1080 0.950 . S
H1057 C1081 0.951 . S
H1058 C1083 0.951 . S
H1059 C1085 0.950 . S
H1060 C1086 0.952 1_545 S
H1061 C1088 0.950 . S
H1062 C1091 0.950 . S
H1063 C1092 0.950 . S
H1064 C1094 0.950 . S
H1065 C1095 0.950 . S
C1066 H1048 0.951 . S
C1066 C1067 1.366 . S
C1066 C1068 1.388 . S
C1067 C1066 1.366 . S
C1067 C1071 1.385 . S
C1068 H1049 0.951 . S
C1068 C1066 1.388 . S
C1068 C1069 1.366 . S
C1069 C1068 1.366 . S
C1069 C1070 1.414 . S
C1069 C1072 1.499 . S
C1070 H1050 0.950 . S
C1070 C1069 1.414 . S
C1070 C1071 1.374 . S
C1071 H1051 0.950 . S
C1071 C1067 1.385 . S
C1071 C1070 1.374 . S
C1072 C1069 1.499 . S
C1072 C1073 1.373 . S
C1072 C1074 1.389 . S
C1073 H1052 0.950 . S
C1073 C1072 1.373 . S
C1073 C1089 1.377 . S
C1074 C1072 1.389 . S
C1074 C1075 1.524 . S
C1074 C1088 1.377 . S
C1075 C1074 1.524 . S
C1075 C1076 1.397 . S
C1075 C1080 1.363 . S
C1076 H1053 0.950 . S
C1076 C1075 1.397 . S
C1076 C1077 1.334 . S
C1077 H1054 0.948 1_556 S
C1077 C1076 1.334 . S
C1077 C1078 1.287 1_556 S
C1078 C1077 1.287 1_554 S
C1078 C1079 1.524 1_554 S
C1078 H1097 0.913 . S
C1079 H1055 0.949 1_556 S
C1079 C1078 1.524 1_556 S
C1079 C1080 1.415 . S
C1080 H1056 0.950 . S
C1080 C1075 1.363 . S
C1080 C1079 1.415 . S
C1081 H1057 0.951 . S
C1081 C1082 1.367 . S
C1081 C1083 1.388 . S
C1082 C1081 1.367 . S
C1082 C1086 1.386 . S
C1083 H1058 0.951 . S
C1083 C1081 1.388 . S
C1083 C1084 1.366 . S
C1084 C1083 1.366 . S
C1084 C1085 1.414 . S
C1084 C1087 1.499 . S
C1085 H1059 0.950 . S
C1085 C1084 1.414 . S
C1085 C1086 1.374 . S
C1086 H1060 0.952 1_565 S
C1086 C1082 1.386 . S
C1086 C1085 1.374 . S
C1087 C1084 1.499 . S
C1087 C1088 1.373 . S
C1087 C1089 1.389 . S
C1088 H1061 0.950 . S
C1088 C1074 1.377 . S
C1088 C1087 1.373 . S
C1089 C1073 1.377 . S
C1089 C1087 1.389 . S
C1089 C1090 1.524 . S
C1090 C1089 1.524 . S
C1090 C1091 1.397 . S
C1090 C1095 1.363 . S
C1091 H1062 0.950 . S
C1091 C1090 1.397 . S
C1091 C1092 1.334 . S
C1092 H1063 0.950 . S
C1092 C1091 1.334 . S
C1092 C1093 1.287 . S
C1093 C1092 1.287 . S
C1093 C1094 1.524 . S
C1093 H1096 0.999 . S
C1094 H1064 0.950 . S
C1094 C1093 1.524 . S
C1094 C1095 1.415 . S
C1095 H1065 0.950 . S
C1095 C1090 1.363 . S
C1095 C1094 1.415 . S
H1096 C1093 0.999 . S
H1097 C1078 0.913 . S
H1098 C1116 0.951 . S
H1099 C1118 0.951 . S
H1100 C1120 0.950 . S
H1101 C1121 0.950 . S
H1102 C1123 0.950 . S
H1103 C1126 0.950 . S
H1104 C1127 0.950 . S
H1105 C1129 0.950 . S
H1106 C1130 0.950 . S
H1107 C1131 0.951 . S
H1108 C1133 0.951 . S
H1109 C1135 0.950 . S
H1110 C1136 0.950 . S
H1111 C1138 0.950 . S
H1112 C1141 0.950 . S
H1113 C1142 0.950 . S
H1114 C1144 0.950 . S
H1115 C1145 0.950 . S
C1116 H1098 0.951 . S
C1116 C1117 1.366 . S
C1116 C1118 1.388 . S
C1117 C1116 1.366 . S
C1117 C1121 1.385 . S
C1118 H1099 0.951 . S
C1118 C1116 1.388 . S
C1118 C1119 1.366 . S
C1119 C1118 1.366 . S
C1119 C1120 1.414 . S
C1119 C1122 1.499 . S
C1120 H1100 0.950 . S
C1120 C1119 1.414 . S
C1120 C1121 1.374 . S
C1121 H1101 0.950 . S
C1121 C1117 1.385 . S
C1121 C1120 1.374 . S
C1122 C1119 1.499 . S
C1122 C1123 1.373 . S
C1122 C1124 1.389 . S
C1123 H1102 0.950 . S
C1123 C1122 1.373 . S
C1123 C1139 1.377 . S
C1124 C1122 1.389 . S
C1124 C1125 1.524 . S
C1124 C1138 1.377 . S
C1125 C1124 1.524 . S
C1125 C1126 1.397 . S
C1125 C1130 1.363 . S
C1126 H1103 0.950 . S
C1126 C1125 1.397 . S
C1126 C1127 1.334 . S
C1127 H1104 0.950 . S
C1127 C1126 1.334 . S
C1127 C1128 1.287 . S
C1128 C1127 1.287 . S
C1128 C1129 1.524 . S
C1128 H1147 0.913 . S
C1129 H1105 0.950 . S
C1129 C1128 1.524 . S
C1129 C1130 1.415 . S
C1130 H1106 0.950 . S
C1130 C1125 1.363 . S
C1130 C1129 1.415 . S
C1131 H1107 0.951 . S
C1131 C1132 1.366 . S
C1131 C1133 1.388 . S
C1132 C1131 1.366 . S
C1132 C1136 1.385 . S
C1133 H1108 0.951 . S
C1133 C1131 1.388 . S
C1133 C1134 1.366 . S
C1134 C1133 1.366 . S
C1134 C1135 1.414 . S
C1134 C1137 1.499 . S
C1135 H1109 0.950 . S
C1135 C1134 1.414 . S
C1135 C1136 1.374 . S
C1136 H1110 0.950 . S
C1136 C1132 1.385 . S
C1136 C1135 1.374 . S
C1137 C1134 1.499 . S
C1137 C1138 1.373 . S
C1137 C1139 1.389 . S
C1138 H1111 0.950 . S
C1138 C1124 1.377 . S
C1138 C1137 1.373 . S
C1139 C1123 1.377 . S
C1139 C1137 1.389 . S
C1139 C1140 1.524 . S
C1140 C1139 1.524 . S
C1140 C1141 1.397 1_655 S
C1140 C1145 1.363 . S
C1141 H1112 0.950 . S
C1141 C1140 1.397 1_455 S
C1141 C1142 1.334 . S
C1142 H1113 0.950 . S
C1142 C1141 1.334 . S
C1142 C1143 1.287 . S
C1143 C1142 1.287 . S
C1143 C1144 1.524 . S
C1143 H1146 0.999 . S
C1144 H1114 0.950 . S
C1144 C1143 1.524 . S
C1144 C1145 1.415 1_455 S
C1145 H1115 0.950 . S
C1145 C1140 1.363 . S
C1145 C1144 1.415 1_655 S
H1146 C1143 0.999 . S
H1147 C1128 0.913 . S
H1148 C1166 0.951 . S
H1149 C1168 0.951 . S
H1150 C1170 0.950 . S
H1151 C1171 0.950 . S
H1152 C1173 0.950 . S
H1153 C1176 0.950 . S
H1154 C1177 0.950 . S
H1155 C1179 0.950 . S
H1156 C1180 0.950 . S
H1157 C1181 0.951 . S
H1158 C1183 0.951 . S
H1159 C1185 0.950 . S
H1160 C1186 0.950 . S
H1161 C1188 0.950 . S
H1162 C1191 0.950 . S
H1163 C1192 0.950 . S
H1164 C1194 0.950 . S
H1165 C1195 0.950 . S
C1166 H1148 0.951 . S
C1166 C1167 1.366 . S
C1166 C1168 1.388 . S
C1167 C1166 1.366 . S
C1167 C1171 1.385 . S
C1168 H1149 0.951 . S
C1168 C1166 1.388 . S
C1168 C1169 1.366 . S
C1169 C1168 1.366 . S
C1169 C1170 1.414 . S
C1169 C1172 1.499 . S
C1170 H1150 0.950 . S
C1170 C1169 1.414 . S
C1170 C1171 1.374 . S
C1171 H1151 0.950 . S
C1171 C1167 1.385 . S
C1171 C1170 1.374 . S
C1172 C1169 1.499 . S
C1172 C1173 1.373 . S
C1172 C1174 1.389 . S
C1173 H1152 0.950 . S
C1173 C1172 1.373 . S
C1173 C1189 1.377 . S
C1174 C1172 1.389 . S
C1174 C1175 1.524 . S
C1174 C1188 1.377 . S
C1175 C1174 1.524 . S
C1175 C1176 1.397 . S
C1175 C1180 1.363 . S
C1176 H1153 0.950 . S
C1176 C1175 1.397 . S
C1176 C1177 1.334 . S
C1177 H1154 0.950 . S
C1177 C1176 1.334 . S
C1177 C1178 1.287 . S
C1178 C1177 1.287 . S
C1178 C1179 1.524 . S
C1178 H1197 0.913 . S
C1179 H1155 0.950 . S
C1179 C1178 1.524 . S
C1179 C1180 1.415 . S
C1180 H1156 0.950 . S
C1180 C1175 1.363 . S
C1180 C1179 1.415 . S
C1181 H1157 0.951 . S
C1181 C1182 1.366 . S
C1181 C1183 1.388 . S
C1182 C1181 1.366 . S
C1182 C1186 1.385 . S
C1183 H1158 0.951 . S
C1183 C1181 1.388 . S
C1183 C1184 1.366 . S
C1184 C1183 1.366 . S
C1184 C1185 1.414 . S
C1184 C1187 1.499 . S
C1185 H1159 0.950 . S
C1185 C1184 1.414 . S
C1185 C1186 1.374 . S
C1186 H1160 0.950 . S
C1186 C1182 1.385 . S
C1186 C1185 1.374 . S
C1187 C1184 1.499 . S
C1187 C1188 1.373 . S
C1187 C1189 1.389 . S
C1188 H1161 0.950 . S
C1188 C1174 1.377 . S
C1188 C1187 1.373 . S
C1189 C1173 1.377 . S
C1189 C1187 1.389 . S
C1189 C1190 1.524 . S
C1190 C1189 1.524 . S
C1190 C1191 1.397 . S
C1190 C1195 1.363 . S
C1191 H1162 0.950 . S
C1191 C1190 1.397 . S
C1191 C1192 1.334 . S
C1192 H1163 0.950 . S
C1192 C1191 1.334 . S
C1192 C1193 1.287 . S
C1193 C1192 1.287 . S
C1193 C1194 1.524 . S
C1193 H1196 0.999 1_554 S
C1194 H1164 0.950 . S
C1194 C1193 1.524 . S
C1194 C1195 1.415 . S
C1195 H1165 0.950 . S
C1195 C1190 1.363 . S
C1195 C1194 1.415 . S
H1196 C1193 0.999 1_556 S
H1197 C1178 0.913 . S
H1198 C1216 0.951 . S
H1199 C1218 0.951 . S
H1200 C1220 0.950 . S
H1201 C1221 0.950 . S
H1202 C1223 0.950 . S
H1203 C1226 0.950 . S
H1204 C1227 0.950 . S
H1205 C1229 0.950 . S
H1206 C1230 0.950 . S
H1207 C1231 0.951 . S
H1208 C1233 0.951 . S
H1209 C1235 0.950 . S
H1210 C1236 0.950 . S
H1211 C1238 0.950 . S
H1212 C1241 0.950 . S
H1213 C1242 0.950 . S
H1214 C1244 0.950 . S
H1215 C1245 0.950 . S
C1216 H1198 0.951 . S
C1216 C1217 1.366 . S
C1216 C1218 1.388 . S
C1217 C1216 1.366 . S
C1217 C1221 1.385 . S
C1218 H1199 0.951 . S
C1218 C1216 1.388 . S
C1218 C1219 1.366 . S
C1219 C1218 1.366 . S
C1219 C1220 1.414 . S
C1219 C1222 1.499 . S
C1220 H1200 0.950 . S
C1220 C1219 1.414 . S
C1220 C1221 1.374 . S
C1221 H1201 0.950 . S
C1221 C1217 1.385 . S
C1221 C1220 1.374 . S
C1222 C1219 1.499 . S
C1222 C1223 1.373 . S
C1222 C1224 1.389 . S
C1223 H1202 0.950 . S
C1223 C1222 1.373 . S
C1223 C1239 1.377 . S
C1224 C1222 1.389 . S
C1224 C1225 1.524 . S
C1224 C1238 1.377 . S
C1225 C1224 1.524 . S
C1225 C1226 1.397 . S
C1225 C1230 1.363 . S
C1226 H1203 0.950 . S
C1226 C1225 1.397 . S
C1226 C1227 1.334 . S
C1227 H1204 0.950 . S
C1227 C1226 1.334 . S
C1227 C1228 1.287 . S
C1228 C1227 1.287 . S
C1228 C1229 1.524 . S
C1228 H1247 0.913 . S
C1229 H1205 0.950 . S
C1229 C1228 1.524 . S
C1229 C1230 1.415 . S
C1230 H1206 0.950 . S
C1230 C1225 1.363 . S
C1230 C1229 1.415 . S
C1231 H1207 0.951 . S
C1231 C1232 1.366 . S
C1231 C1233 1.388 . S
C1232 C1231 1.366 . S
C1232 C1236 1.385 . S
C1233 H1208 0.951 . S
C1233 C1231 1.388 . S
C1233 C1234 1.366 . S
C1234 C1233 1.366 . S
C1234 C1235 1.414 . S
C1234 C1237 1.499 . S
C1235 H1209 0.950 . S
C1235 C1234 1.414 . S
C1235 C1236 1.374 . S
C1236 H1210 0.950 . S
C1236 C1232 1.385 . S
C1236 C1235 1.374 . S
C1237 C1234 1.499 . S
C1237 C1238 1.373 . S
C1237 C1239 1.389 . S
C1238 H1211 0.950 . S
C1238 C1224 1.377 . S
C1238 C1237 1.373 . S
C1239 C1223 1.377 . S
C1239 C1237 1.389 . S
C1239 C1240 1.524 . S
C1240 C1239 1.524 . S
C1240 C1241 1.397 . S
C1240 C1245 1.363 . S
C1241 H1212 0.950 . S
C1241 C1240 1.397 . S
C1241 C1242 1.334 . S
C1242 H1213 0.950 . S
C1242 C1241 1.334 . S
C1242 C1243 1.287 . S
C1243 C1242 1.287 . S
C1243 C1244 1.524 . S
C1243 H1246 0.999 . S
C1244 H1214 0.950 . S
C1244 C1243 1.524 . S
C1244 C1245 1.415 . S
C1245 H1215 0.950 . S
C1245 C1240 1.363 . S
C1245 C1244 1.415 . S
H1246 C1243 0.999 . S
H1247 C1228 0.913 . S
H1248 C1266 0.951 . S
H1249 C1268 0.951 . S
H1250 C1270 0.950 . S
H1251 C1271 0.950 . S
H1252 C1273 0.950 . S
H1253 C1276 0.950 . S
H1254 C1277 0.950 . S
H1255 C1279 0.950 . S
H1256 C1280 0.950 . S
H1257 C1281 0.951 . S
H1258 C1283 0.951 . S
H1259 C1285 0.950 . S
H1260 C1286 0.950 . S
H1261 C1288 0.950 . S
H1262 C1291 0.950 . S
H1263 C1292 0.950 . S
H1264 C1294 0.950 . S
H1265 C1295 0.950 . S
C1266 H1248 0.951 . S
C1266 C1267 1.366 . S
C1266 C1268 1.388 . S
C1267 C1266 1.366 . S
C1267 C1271 1.385 . S
C1268 H1249 0.951 . S
C1268 C1266 1.388 . S
C1268 C1269 1.366 . S
C1269 C1268 1.366 . S
C1269 C1270 1.414 . S
C1269 C1272 1.499 . S
C1270 H1250 0.950 . S
C1270 C1269 1.414 . S
C1270 C1271 1.374 . S
C1271 H1251 0.950 . S
C1271 C1267 1.385 . S
C1271 C1270 1.374 . S
C1272 C1269 1.499 . S
C1272 C1273 1.373 . S
C1272 C1274 1.389 . S
C1273 H1252 0.950 . S
C1273 C1272 1.373 . S
C1273 C1289 1.377 . S
C1274 C1272 1.389 . S
C1274 C1275 1.524 . S
C1274 C1288 1.377 . S
C1275 C1274 1.524 . S
C1275 C1276 1.397 . S
C1275 C1280 1.363 . S
C1276 H1253 0.950 . S
C1276 C1275 1.397 . S
C1276 C1277 1.334 . S
C1277 H1254 0.950 . S
C1277 C1276 1.334 . S
C1277 C1278 1.287 . S
C1278 C1277 1.287 . S
C1278 C1279 1.524 . S
C1278 H1297 0.913 . S
C1279 H1255 0.950 . S
C1279 C1278 1.524 . S
C1279 C1280 1.415 . S
C1280 H1256 0.950 . S
C1280 C1275 1.363 . S
C1280 C1279 1.415 . S
C1281 H1257 0.951 . S
C1281 C1282 1.366 . S
C1281 C1283 1.388 . S
C1282 C1281 1.366 . S
C1282 C1286 1.385 . S
C1283 H1258 0.951 . S
C1283 C1281 1.388 . S
C1283 C1284 1.366 . S
C1284 C1283 1.366 . S
C1284 C1285 1.414 . S
C1284 C1287 1.499 . S
C1285 H1259 0.950 . S
C1285 C1284 1.414 . S
C1285 C1286 1.374 . S
C1286 H1260 0.950 . S
C1286 C1282 1.385 . S
C1286 C1285 1.374 . S
C1287 C1284 1.499 . S
C1287 C1288 1.373 . S
C1287 C1289 1.389 . S
C1288 H1261 0.950 . S
C1288 C1274 1.377 . S
C1288 C1287 1.373 . S
C1289 C1273 1.377 . S
C1289 C1287 1.389 . S
C1289 C1290 1.524 . S
C1290 C1289 1.524 . S
C1290 C1291 1.397 . S
C1290 C1295 1.363 . S
C1291 H1262 0.950 . S
C1291 C1290 1.397 . S
C1291 C1292 1.334 . S
C1292 H1263 0.950 . S
C1292 C1291 1.334 . S
C1292 C1293 1.287 . S
C1293 C1292 1.287 . S
C1293 C1294 1.524 . S
C1293 H1296 0.999 . S
C1294 H1264 0.950 . S
C1294 C1293 1.524 . S
C1294 C1295 1.415 . S
C1295 H1265 0.950 . S
C1295 C1290 1.363 . S
C1295 C1294 1.415 . S
H1296 C1293 0.999 . S
H1297 C1278 0.913 . S
H1298 C1316 0.951 . S
H1299 C1318 0.951 . S
H1300 C1320 0.950 . S
H1301 C1321 0.950 . S
H1302 C1323 0.950 . S
H1303 C1326 0.950 . S
H1304 C1327 0.950 . S
H1305 C1329 0.950 . S
H1306 C1330 0.950 . S
H1307 C1331 0.951 . S
H1308 C1333 0.951 . S
H1309 C1335 0.950 . S
H1310 C1336 0.950 . S
H1311 C1338 0.950 . S
H1312 C1341 0.950 . S
H1313 C1342 0.950 . S
H1314 C1344 0.950 . S
H1315 C1345 0.950 . S
C1316 H1298 0.951 . S
C1316 C1317 1.366 . S
C1316 C1318 1.388 . S
C1317 C1316 1.366 . S
C1317 C1321 1.385 . S
C1318 H1299 0.951 . S
C1318 C1316 1.388 . S
C1318 C1319 1.366 . S
C1319 C1318 1.366 . S
C1319 C1320 1.414 . S
C1319 C1322 1.499 . S
C1320 H1300 0.950 . S
C1320 C1319 1.414 . S
C1320 C1321 1.374 . S
C1321 H1301 0.950 . S
C1321 C1317 1.385 . S
C1321 C1320 1.374 . S
C1322 C1319 1.499 . S
C1322 C1323 1.373 . S
C1322 C1324 1.389 . S
C1323 H1302 0.950 . S
C1323 C1322 1.373 . S
C1323 C1339 1.377 . S
C1324 C1322 1.389 . S
C1324 C1325 1.524 . S
C1324 C1338 1.377 . S
C1325 C1324 1.524 . S
C1325 C1326 1.397 . S
C1325 C1330 1.363 . S
C1326 H1303 0.950 . S
C1326 C1325 1.397 . S
C1326 C1327 1.334 . S
C1327 H1304 0.950 . S
C1327 C1326 1.334 . S
C1327 C1328 1.287 . S
C1328 C1327 1.287 . S
C1328 C1329 1.524 . S
C1328 H1347 0.913 . S
C1329 H1305 0.950 . S
C1329 C1328 1.524 . S
C1329 C1330 1.415 . S
C1330 H1306 0.950 . S
C1330 C1325 1.363 . S
C1330 C1329 1.415 . S
C1331 H1307 0.951 . S
C1331 C1332 1.366 . S
C1331 C1333 1.388 . S
C1332 C1331 1.366 . S
C1332 C1336 1.385 . S
C1333 H1308 0.951 . S
C1333 C1331 1.388 . S
C1333 C1334 1.366 . S
C1334 C1333 1.366 . S
C1334 C1335 1.414 . S
C1334 C1337 1.499 . S
C1335 H1309 0.950 . S
C1335 C1334 1.414 . S
C1335 C1336 1.374 . S
C1336 H1310 0.950 . S
C1336 C1332 1.385 . S
C1336 C1335 1.374 . S
C1337 C1334 1.499 . S
C1337 C1338 1.373 . S
C1337 C1339 1.389 . S
C1338 H1311 0.950 . S
C1338 C1324 1.377 . S
C1338 C1337 1.373 . S
C1339 C1323 1.377 . S
C1339 C1337 1.389 . S
C1339 C1340 1.524 . S
C1340 C1339 1.524 . S
C1340 C1341 1.397 . S
C1340 C1345 1.363 . S
C1341 H1312 0.950 . S
C1341 C1340 1.397 . S
C1341 C1342 1.334 . S
C1342 H1313 0.950 . S
C1342 C1341 1.334 . S
C1342 C1343 1.287 . S
C1343 C1342 1.287 . S
C1343 C1344 1.524 . S
C1343 H1346 0.999 . S
C1344 H1314 0.950 . S
C1344 C1343 1.524 . S
C1344 C1345 1.415 . S
C1345 H1315 0.950 . S
C1345 C1340 1.363 . S
C1345 C1344 1.415 . S
H1346 C1343 0.999 . S
H1347 C1328 0.913 . S
H1348 C1366 0.951 . S
H1349 C1368 0.951 . S
H1350 C1370 0.950 . S
H1351 C1371 0.950 . S
H1352 C1373 0.950 . S
H1353 C1376 0.950 . S
H1354 C1377 0.950 . S
H1355 C1379 0.950 . S
H1356 C1380 0.950 . S
H1357 C1381 0.951 . S
H1358 C1383 0.951 . S
H1359 C1385 0.950 . S
H1360 C1386 0.950 . S
H1361 C1388 0.950 . S
H1362 C1391 0.950 . S
H1363 C1392 0.950 . S
H1364 C1394 0.950 . S
H1365 C1395 0.950 . S
C1366 H1348 0.951 . S
C1366 C1367 1.366 . S
C1366 C1368 1.388 . S
C1367 C1366 1.366 . S
C1367 C1371 1.385 . S
C1368 H1349 0.951 . S
C1368 C1366 1.388 . S
C1368 C1369 1.366 . S
C1369 C1368 1.366 . S
C1369 C1370 1.414 . S
C1369 C1372 1.499 . S
C1370 H1350 0.950 . S
C1370 C1369 1.414 . S
C1370 C1371 1.374 . S
C1371 H1351 0.950 . S
C1371 C1367 1.385 . S
C1371 C1370 1.374 . S
C1372 C1369 1.499 . S
C1372 C1373 1.373 . S
C1372 C1374 1.389 . S
C1373 H1352 0.950 . S
C1373 C1372 1.373 . S
C1373 C1389 1.377 . S
C1374 C1372 1.389 . S
C1374 C1375 1.524 . S
C1374 C1388 1.377 . S
C1375 C1374 1.524 . S
C1375 C1376 1.397 . S
C1375 C1380 1.363 . S
C1376 H1353 0.950 . S
C1376 C1375 1.397 . S
C1376 C1377 1.334 . S
C1377 H1354 0.950 . S
C1377 C1376 1.334 . S
C1377 C1378 1.287 . S
C1378 C1377 1.287 . S
C1378 C1379 1.524 . S
C1378 H1397 0.913 . S
C1379 H1355 0.950 . S
C1379 C1378 1.524 . S
C1379 C1380 1.415 . S
C1380 H1356 0.950 . S
C1380 C1375 1.363 . S
C1380 C1379 1.415 . S
C1381 H1357 0.951 . S
C1381 C1382 1.366 . S
C1381 C1383 1.388 . S
C1382 C1381 1.366 . S
C1382 C1386 1.385 . S
C1383 H1358 0.951 . S
C1383 C1381 1.388 . S
C1383 C1384 1.366 . S
C1384 C1383 1.366 . S
C1384 C1385 1.414 . S
C1384 C1387 1.499 . S
C1385 H1359 0.950 . S
C1385 C1384 1.414 . S
C1385 C1386 1.374 . S
C1386 H1360 0.950 . S
C1386 C1382 1.385 . S
C1386 C1385 1.374 . S
C1387 C1384 1.499 . S
C1387 C1388 1.373 . S
C1387 C1389 1.389 . S
C1388 H1361 0.950 . S
C1388 C1374 1.377 . S
C1388 C1387 1.373 . S
C1389 C1373 1.377 . S
C1389 C1387 1.389 . S
C1389 C1390 1.524 . S
C1390 C1389 1.524 . S
C1390 C1391 1.397 . S
C1390 C1395 1.363 . S
C1391 H1362 0.950 . S
C1391 C1390 1.397 . S
C1391 C1392 1.334 . S
C1392 H1363 0.950 . S
C1392 C1391 1.334 . S
C1392 C1393 1.287 . S
C1393 C1392 1.287 . S
C1393 C1394 1.524 . S
C1393 H1396 0.999 . S
C1394 H1364 0.950 . S
C1394 C1393 1.524 . S
C1394 C1395 1.415 . S
C1395 H1365 0.950 . S
C1395 C1390 1.363 . S
C1395 C1394 1.415 . S
H1396 C1393 0.999 . S
H1397 C1378 0.913 . S
H1398 C1416 0.951 . S
H1399 C1418 0.951 . S
H1400 C1420 0.950 . S
H1401 C1421 0.950 . S
H1402 C1423 0.950 . S
H1403 C1426 0.950 . S
H1404 C1427 0.950 . S
H1405 C1429 0.950 . S
H1406 C1430 0.950 . S
H1407 C1431 0.951 . S
H1408 C1433 0.951 . S
H1409 C1435 0.950 . S
H1410 C1436 0.950 . S
H1411 C1438 0.950 . S
H1412 C1441 0.950 . S
H1413 C1442 0.950 . S
H1414 C1444 0.950 . S
H1415 C1445 0.950 . S
C1416 H1398 0.951 . S
C1416 C1417 1.366 . S
C1416 C1418 1.388 . S
C1417 C1416 1.366 . S
C1417 C1421 1.385 . S
C1418 H1399 0.951 . S
C1418 C1416 1.388 . S
C1418 C1419 1.366 . S
C1419 C1418 1.366 . S
C1419 C1420 1.414 . S
C1419 C1422 1.499 . S
C1420 H1400 0.950 . S
C1420 C1419 1.414 . S
C1420 C1421 1.374 . S
C1421 H1401 0.950 . S
C1421 C1417 1.385 . S
C1421 C1420 1.374 . S
C1422 C1419 1.499 . S
C1422 C1423 1.373 . S
C1422 C1424 1.389 . S
C1423 H1402 0.950 . S
C1423 C1422 1.373 . S
C1423 C1439 1.377 . S
C1424 C1422 1.389 . S
C1424 C1425 1.524 . S
C1424 C1438 1.377 . S
C1425 C1424 1.524 . S
C1425 C1426 1.397 . S
C1425 C1430 1.363 . S
C1426 H1403 0.950 . S
C1426 C1425 1.397 . S
C1426 C1427 1.334 . S
C1427 H1404 0.950 . S
C1427 C1426 1.334 . S
C1427 C1428 1.287 . S
C1428 C1427 1.287 . S
C1428 C1429 1.524 . S
C1428 H1447 0.913 . S
C1429 H1405 0.950 . S
C1429 C1428 1.524 . S
C1429 C1430 1.415 . S
C1430 H1406 0.950 . S
C1430 C1425 1.363 . S
C1430 C1429 1.415 . S
C1431 H1407 0.951 . S
C1431 C1432 1.366 . S
C1431 C1433 1.388 . S
C1432 C1431 1.366 . S
C1432 C1436 1.385 . S
C1433 H1408 0.951 . S
C1433 C1431 1.388 . S
C1433 C1434 1.366 . S
C1434 C1433 1.366 . S
C1434 C1435 1.414 . S
C1434 C1437 1.499 . S
C1435 H1409 0.950 . S
C1435 C1434 1.414 . S
C1435 C1436 1.374 . S
C1436 H1410 0.950 . S
C1436 C1432 1.385 . S
C1436 C1435 1.374 . S
C1437 C1434 1.499 . S
C1437 C1438 1.373 . S
C1437 C1439 1.389 . S
C1438 H1411 0.950 . S
C1438 C1424 1.377 . S
C1438 C1437 1.373 . S
C1439 C1423 1.377 . S
C1439 C1437 1.389 . S
C1439 C1440 1.524 . S
C1440 C1439 1.524 . S
C1440 C1441 1.397 . S
C1440 C1445 1.363 . S
C1441 H1412 0.950 . S
C1441 C1440 1.397 . S
C1441 C1442 1.334 . S
C1442 H1413 0.950 . S
C1442 C1441 1.334 . S
C1442 C1443 1.287 . S
C1443 C1442 1.287 . S
C1443 C1444 1.524 . S
C1443 H1446 0.999 . S
C1444 H1414 0.950 . S
C1444 C1443 1.524 . S
C1444 C1445 1.415 . S
C1445 H1415 0.950 . S
C1445 C1440 1.363 . S
C1445 C1444 1.415 . S
H1446 C1443 0.999 . S
H1447 C1428 0.913 . S
C267 C5 1.138 . S
C282 C103 1.351 . S
C317 C18 1.111 . S
C332 C143 1.137 . S
C382 C177 1.972 . S
C367 C30 1.988 . S
C417 C41 2.280 . S
C432 C218 2.256 . S
C482 C138 1.571 . S
C467 C7 1.493 . S
C532 C98 2.282 . S
C517 C16 2.199 . S
C582 C226 1.511 . S
C567 C29 1.503 . S
C632 C187 1.327 . S
C617 C38 1.115 . S
C667 C8 1.195 . S
C682 C223 1.224 . S
C732 C146 2.167 1_556 S
C717 C27 2.021 . S
C767 C40 2.473 . S
C782 C106 2.433 . S
C817 C19 1.324 . S
C832 C174 1.331 . S
C882 C94 1.354 . S
C867 C51 1.228 . S
C917 C62 1.465 . S
C932 C134 1.436 . S
C967 C74 2.168 . S
C982 C186 2.155 . S
C1017 C84 2.258 . S
C1032 C227 2.293 . S
C1067 C49 1.574 . S
C1082 C147 1.936 1_556 S
C1132 C107 2.163 . S
C1117 C63 2.135 . S
C1182 C217 1.382 . S
C1167 C71 1.268 . S
C1232 C178 1.502 . S
C1217 C85 1.559 . S
C1267 C52 1.131 . S
C1282 C214 1.177 . S
C1332 C137 2.221 . S
C1317 C73 2.268 . S
C1382 C97 1.996 . S
C1367 C82 1.926 . S
C1417 C60 1.474 . S
C1432 C183 1.568 . S
