# Generated by pormake.
# Topology myd, (4,6)-cn, num edge types: 1
# Building blocks:
#     Node 0, Type 0, BuildingBlock: KOZSID_clean_sbu_0, # of connection points: 4
#     Node 1, Type 0, BuildingBlock: KOZSID_clean_sbu_0, # of connection points: 4
#     Node 2, Type 0, BuildingBlock: KOZSID_clean_sbu_0, # of connection points: 4
#     Node 3, Type 0, BuildingBlock: KOZSID_clean_sbu_0, # of connection points: 4
#     Node 4, Type 0, BuildingBlock: KOZSID_clean_sbu_0, # of connection points: 4
#     Node 5, Type 0, BuildingBlock: KOZSID_clean_sbu_0, # of connection points: 4
#     Node 6, Type 0, BuildingBlock: KOZSID_clean_sbu_0, # of connection points: 4
#     Node 7, Type 0, BuildingBlock: KOZSID_clean_sbu_0, # of connection points: 4
#     Node 8, Type 0, BuildingBlock: KOZSID_clean_sbu_0, # of connection points: 4
#     Node 9, Type 0, BuildingBlock: KOZSID_clean_sbu_0, # of connection points: 4
#     Node 10, Type 0, BuildingBlock: KOZSID_clean_sbu_0, # of connection points: 4
#     Node 11, Type 0, BuildingBlock: KOZSID_clean_sbu_0, # of connection points: 4
#     Node 12, Type 1, BuildingBlock: MIDCAF_clean_sbu_0, # of connection points: 6
#     Node 13, Type 1, BuildingBlock: MIDCAF_clean_sbu_0, # of connection points: 6
#     Node 14, Type 1, BuildingBlock: MIDCAF_clean_sbu_0, # of connection points: 6
#     Node 15, Type 1, BuildingBlock: MIDCAF_clean_sbu_0, # of connection points: 6
#     Node 16, Type 1, BuildingBlock: MIDCAF_clean_sbu_0, # of connection points: 6
#     Node 17, Type 1, BuildingBlock: MIDCAF_clean_sbu_0, # of connection points: 6
#     Node 18, Type 1, BuildingBlock: MIDCAF_clean_sbu_0, # of connection points: 6
#     Node 19, Type 1, BuildingBlock: MIDCAF_clean_sbu_0, # of connection points: 6
#     Edge 20, Type (0, 1), BuildingBlock: ZUJKAS_clean_linker_0, # of connection points: 2
#     Edge 21, Type (0, 1), BuildingBlock: ZUJKAS_clean_linker_0, # of connection points: 2
#     Edge 22, Type (0, 1), BuildingBlock: ZUJKAS_clean_linker_0, # of connection points: 2
#     Edge 23, Type (0, 1), BuildingBlock: ZUJKAS_clean_linker_0, # of connection points: 2
#     Edge 24, Type (0, 1), BuildingBlock: ZUJKAS_clean_linker_0, # of connection points: 2
#     Edge 25, Type (0, 1), BuildingBlock: ZUJKAS_clean_linker_0, # of connection points: 2
#     Edge 26, Type (0, 1), BuildingBlock: ZUJKAS_clean_linker_0, # of connection points: 2
#     Edge 27, Type (0, 1), BuildingBlock: ZUJKAS_clean_linker_0, # of connection points: 2
#     Edge 28, Type (0, 1), BuildingBlock: ZUJKAS_clean_linker_0, # of connection points: 2
#     Edge 29, Type (0, 1), BuildingBlock: ZUJKAS_clean_linker_0, # of connection points: 2
#     Edge 30, Type (0, 1), BuildingBlock: ZUJKAS_clean_linker_0, # of connection points: 2
#     Edge 31, Type (0, 1), BuildingBlock: ZUJKAS_clean_linker_0, # of connection points: 2
#     Edge 32, Type (0, 1), BuildingBlock: ZUJKAS_clean_linker_0, # of connection points: 2
#     Edge 33, Type (0, 1), BuildingBlock: ZUJKAS_clean_linker_0, # of connection points: 2
#     Edge 34, Type (0, 1), BuildingBlock: ZUJKAS_clean_linker_0, # of connection points: 2
#     Edge 35, Type (0, 1), BuildingBlock: ZUJKAS_clean_linker_0, # of connection points: 2
#     Edge 36, Type (0, 1), BuildingBlock: ZUJKAS_clean_linker_0, # of connection points: 2
#     Edge 37, Type (0, 1), BuildingBlock: ZUJKAS_clean_linker_0, # of connection points: 2
#     Edge 38, Type (0, 1), BuildingBlock: ZUJKAS_clean_linker_0, # of connection points: 2
#     Edge 39, Type (0, 1), BuildingBlock: ZUJKAS_clean_linker_0, # of connection points: 2
#     Edge 40, Type (0, 1), BuildingBlock: ZUJKAS_clean_linker_0, # of connection points: 2
#     Edge 41, Type (0, 1), BuildingBlock: ZUJKAS_clean_linker_0, # of connection points: 2
#     Edge 42, Type (0, 1), BuildingBlock: ZUJKAS_clean_linker_0, # of connection points: 2
#     Edge 43, Type (0, 1), BuildingBlock: ZUJKAS_clean_linker_0, # of connection points: 2
#     Edge 44, Type (0, 1), BuildingBlock: ZUJKAS_clean_linker_0, # of connection points: 2
#     Edge 45, Type (0, 1), BuildingBlock: ZUJKAS_clean_linker_0, # of connection points: 2
#     Edge 46, Type (0, 1), BuildingBlock: ZUJKAS_clean_linker_0, # of connection points: 2
#     Edge 47, Type (0, 1), BuildingBlock: ZUJKAS_clean_linker_0, # of connection points: 2
#     Edge 48, Type (0, 1), BuildingBlock: ZUJKAS_clean_linker_0, # of connection points: 2
#     Edge 49, Type (0, 1), BuildingBlock: ZUJKAS_clean_linker_0, # of connection points: 2
#     Edge 50, Type (0, 1), BuildingBlock: ZUJKAS_clean_linker_0, # of connection points: 2
#     Edge 51, Type (0, 1), BuildingBlock: ZUJKAS_clean_linker_0, # of connection points: 2
#     Edge 52, Type (0, 1), BuildingBlock: ZUJKAS_clean_linker_0, # of connection points: 2
#     Edge 53, Type (0, 1), BuildingBlock: ZUJKAS_clean_linker_0, # of connection points: 2
#     Edge 54, Type (0, 1), BuildingBlock: ZUJKAS_clean_linker_0, # of connection points: 2
#     Edge 55, Type (0, 1), BuildingBlock: ZUJKAS_clean_linker_0, # of connection points: 2
#     Edge 56, Type (0, 1), BuildingBlock: ZUJKAS_clean_linker_0, # of connection points: 2
#     Edge 57, Type (0, 1), BuildingBlock: ZUJKAS_clean_linker_0, # of connection points: 2
#     Edge 58, Type (0, 1), BuildingBlock: ZUJKAS_clean_linker_0, # of connection points: 2
#     Edge 59, Type (0, 1), BuildingBlock: ZUJKAS_clean_linker_0, # of connection points: 2
#     Edge 60, Type (0, 1), BuildingBlock: ZUJKAS_clean_linker_0, # of connection points: 2
#     Edge 61, Type (0, 1), BuildingBlock: ZUJKAS_clean_linker_0, # of connection points: 2
#     Edge 62, Type (0, 1), BuildingBlock: ZUJKAS_clean_linker_0, # of connection points: 2
#     Edge 63, Type (0, 1), BuildingBlock: ZUJKAS_clean_linker_0, # of connection points: 2
#     Edge 64, Type (0, 1), BuildingBlock: ZUJKAS_clean_linker_0, # of connection points: 2
#     Edge 65, Type (0, 1), BuildingBlock: ZUJKAS_clean_linker_0, # of connection points: 2
#     Edge 66, Type (0, 1), BuildingBlock: ZUJKAS_clean_linker_0, # of connection points: 2
#     Edge 67, Type (0, 1), BuildingBlock: ZUJKAS_clean_linker_0, # of connection points: 2
# Relax obj value: 0.144
# Max RMSD: 0.121
# Mean RMSD: 0.100
data_MOF--net-myd--node1-KOZSID_clean_sbu_0--node2-MIDCAF_clean_sbu_0--edge1-ZUJKAS_clean_linker_0
_symmetry_space_group_name_H-M    P1
_symmetry_Int_Tables_number       1
_symmetry_cell_setting            triclinic
loop_
_symmetry_equiv_pos_as_xyz
'x, y, z'
_cell_length_a     63.657826
_cell_length_b     63.665547
_cell_length_c     63.543237
_cell_angle_alpha  91.401563
_cell_angle_beta   90.43231
_cell_angle_gamma 91.873456
loop_
_atom_site_label
_atom_site_type_symbol
_atom_site_fract_x
_atom_site_fract_y
_atom_site_fract_z
_atom_type_partial_charge
C0 C 0.98164 0.28259 0.31905 0.0
C1 C 0.96132 0.28662 0.32536 0.0
C2 C 0.94848 0.27176 0.31557 0.0
C3 C 0.96165 0.25958 0.30388 0.0
N4 N 0.98218 0.26543 0.30598 0.0
Co5 Co 0.0064 0.25333 0.2903 0.0
N6 N 0.98718 0.2342 0.27297 0.0
C7 C 0.9663 0.23089 0.27573 0.0
C8 C 0.95741 0.21618 0.26202 0.0
C9 C 0.97351 0.20992 0.24955 0.0
C10 C 0.99135 0.22145 0.25623 0.0
N11 N 0.03054 0.24198 0.2739 0.0
C12 C 0.03047 0.22984 0.25598 0.0
C13 C 0.05069 0.22785 0.24824 0.0
C14 C 0.06392 0.23883 0.26181 0.0
C15 C 0.05115 0.24718 0.27687 0.0
N16 N 0.02557 0.27223 0.30808 0.0
C17 C 0.04682 0.27262 0.30822 0.0
C18 C 0.05564 0.28782 0.32149 0.0
C19 C 0.03905 0.29795 0.3301 0.0
C20 C 0.02097 0.2883 0.32155 0.0
N21 N 0.00904 0.23046 0.31125 0.0
C22 C 0.01307 0.19367 0.33514 0.0
C23 C 0.03073 0.20522 0.32849 0.0
C24 C 0.02838 0.22335 0.31681 0.0
C25 C 0.99335 0.20174 0.33084 0.0
C26 C 0.99173 0.22007 0.31921 0.0
N27 N 0.00403 0.27552 0.26924 0.0
C28 C 0.02097 0.301 0.2469 0.0
C29 C 0.00251 0.3029 0.23519 0.0
C30 C 0.98448 0.29166 0.24156 0.0
C31 C 0.98553 0.27827 0.25867 0.0
C32 C 0.02137 0.28739 0.26374 0.0
H33 H 0.97138 0.26988 0.26283 0.0
H34 H 0.03608 0.28622 0.27169 0.0
H35 H 0.04257 0.23102 0.31221 0.0
H36 H 0.97625 0.22519 0.31658 0.0
C37 C 0.95517 0.24336 0.28987 0.0
C38 C 0.99986 0.29577 0.32554 0.0
C39 C 0.01161 0.22044 0.2456 0.0
C40 C 0.05785 0.26109 0.29315 0.0
H41 H 0.95628 0.29924 0.33567 0.0
H42 H 0.93151 0.2704 0.31635 0.0
H43 H 0.94104 0.2111 0.26078 0.0
H44 H 0.97214 0.19849 0.23669 0.0
H45 H 0.0555 0.2198 0.234 0.0
H46 H 0.08077 0.24109 0.26043 0.0
H47 H 0.07217 0.29191 0.32368 0.0
H48 H 0.04017 0.31145 0.34078 0.0
H49 H 0.04643 0.20025 0.33208 0.0
H50 H 0.97908 0.19363 0.33579 0.0
H51 H 0.03535 0.30933 0.24261 0.0
H52 H 0.96967 0.29301 0.23327 0.0
C53 C 0.98149 0.728 0.17156 0.0
C54 C 0.96257 0.7233 0.16126 0.0
C55 C 0.9489 0.73842 0.16766 0.0
C56 C 0.96025 0.75146 0.18142 0.0
N57 N 0.98013 0.74543 0.18395 0.0
Co58 Co 1.00185 0.75923 0.20231 0.0
N59 N 0.98032 0.77296 0.21962 0.0
C60 C 0.96031 0.77608 0.21375 0.0
C61 C 0.94905 0.78598 0.2292 0.0
C62 C 0.96292 0.78943 0.24566 0.0
C63 C 0.98199 0.7815 0.23927 0.0
N64 N 0.02362 0.77306 0.22067 0.0
C65 C 0.02174 0.78175 0.24019 0.0
C66 C 0.04096 0.79015 0.24735 0.0
C67 C 0.05522 0.78659 0.2316 0.0
C68 C 0.04397 0.77627 0.21571 0.0
N69 N 0.02314 0.74545 0.18469 0.0
C70 C 0.04351 0.75142 0.18324 0.0
C71 C 0.05444 0.73808 0.17032 0.0
C72 C 0.03996 0.7229 0.1633 0.0
C73 C 0.02093 0.72788 0.17231 0.0
N74 N 0.00311 0.78372 0.18409 0.0
C75 C 0.01198 0.81905 0.15969 0.0
C76 C 0.00933 0.79897 0.15021 0.0
C77 C 0.00491 0.78148 0.16271 0.0
C78 C 0.00876 0.82114 0.18138 0.0
C79 C 0.00426 0.80342 0.1932 0.0
N80 N 1.0012 0.73516 0.22086 0.0
C81 C 0.0205 0.71188 0.24247 0.0
C82 C 0.00192 0.70463 0.25183 0.0
C83 C 0.98279 0.71233 0.24468 0.0
C84 C 0.98276 0.72745 0.22898 0.0
C85 C 0.01981 0.72712 0.22717 0.0
H86 H 0.96792 0.73341 0.2239 0.0
H87 H 0.03453 0.73298 0.22106 0.0
H88 H 0.00374 0.76608 0.15521 0.0
H89 H 0.00259 0.8057 0.20994 0.0
C90 C 0.95188 0.76632 0.19538 0.0
C91 C 1.00077 0.71638 0.1686 0.0
C92 C 1.00173 0.78381 0.25136 0.0
C93 C 0.05234 0.76637 0.19771 0.0
H94 H 0.95903 0.71029 0.15039 0.0
H95 H 0.93239 0.73912 0.16363 0.0
H96 H 0.93254 0.78953 0.22889 0.0
H97 H 0.95939 0.79704 0.26057 0.0
H98 H 0.04426 0.79818 0.26228 0.0
H99 H 0.0719 0.79044 0.23201 0.0
H100 H 0.07117 0.73855 0.16735 0.0
H101 H 0.04314 0.70961 0.15302 0.0
H102 H 0.01154 0.79665 0.13344 0.0
H103 H 0.01011 0.83638 0.18932 0.0
H104 H 0.03565 0.70658 0.24763 0.0
H105 H 0.96802 0.70695 0.25135 0.0
C106 C 0.32857 0.98047 0.27841 0.0
C107 C 0.33627 0.96071 0.2819 0.0
C108 C 0.32847 0.94777 0.26607 0.0
C109 C 0.31651 0.96034 0.25389 0.0
N110 N 0.31662 0.98064 0.26067 0.0
Co111 Co 0.29981 0.0038 0.24897 0.0
N112 N 0.28512 0.98395 0.22839 0.0
C113 C 0.28972 0.96368 0.22428 0.0
C114 C 0.27757 0.95427 0.20862 0.0
C115 C 0.26421 0.96935 0.20257 0.0
C116 C 0.26882 0.98709 0.21517 0.0
N117 N 0.2822 0.02674 0.238 0.0
C118 C 0.26496 0.02546 0.22523 0.0
C119 C 0.25572 0.04484 0.22372 0.0
C120 C 0.26763 0.05883 0.23574 0.0
C121 C 0.28323 0.04726 0.24416 0.0
N122 N 0.31504 0.02366 0.26928 0.0
C123 C 0.31359 0.0448 0.2705 0.0
C124 C 0.32522 0.05403 0.28668 0.0
C125 C 0.33434 0.0378 0.29658 0.0
C126 C 0.32774 0.01951 0.28581 0.0
N127 N 0.32164 0.00985 0.22713 0.0
C128 C 0.3468 0.01854 0.19149 0.0
C129 C 0.33831 0.0347 0.20363 0.0
C130 C 0.32603 0.03007 0.22115 0.0
C131 C 0.34372 0.99799 0.19845 0.0
C132 C 0.33143 0.99408 0.21627 0.0
N133 N 0.27783 0.99808 0.27013 0.0
C134 C 0.25335 0.01145 0.29561 0.0
C135 C 0.2424 0.99211 0.29579 0.0
C136 C 0.25019 0.97543 0.28373 0.0
C137 C 0.26803 0.97867 0.27129 0.0
C138 C 0.27085 0.01408 0.28279 0.0
H139 H 0.27339 0.96547 0.26227 0.0
H140 H 0.27805 0.02943 0.28284 0.0
H141 H 0.32 0.04325 0.22928 0.0
H142 H 0.32979 0.9781 0.22059 0.0
C143 C 0.30397 0.95334 0.23685 0.0
C144 C 0.33252 0.99846 0.2927 0.0
C145 C 0.25661 0.00611 0.21478 0.0
C146 C 0.29824 0.05486 0.25893 0.0
H147 H 0.34613 0.95606 0.29483 0.0
H148 H 0.33066 0.93105 0.26408 0.0
H149 H 0.27791 0.93817 0.20279 0.0
H150 H 0.25209 0.96732 0.19059 0.0
H151 H 0.24157 0.04854 0.21528 0.0
H152 H 0.26478 0.07532 0.2386 0.0
H153 H 0.32585 0.07044 0.29158 0.0
H154 H 0.34397 0.03921 0.31068 0.0
H155 H 0.34092 0.051 0.19957 0.0
H156 H 0.35016 0.98482 0.18987 0.0
H157 H 0.24792 0.02486 0.30462 0.0
H158 H 0.24243 0.96003 0.28374 0.0
C159 C 0.68243 0.47684 0.23542 0.0
C160 C 0.6719 0.45829 0.22911 0.0
C161 C 0.67701 0.44349 0.24351 0.0
C162 C 0.69028 0.45383 0.25776 0.0
N163 N 0.69374 0.47414 0.25316 0.0
Co164 Co 0.71177 0.49476 0.26918 0.0
N165 N 0.72751 0.47214 0.28228 0.0
C166 C 0.72095 0.45191 0.2837 0.0
C167 C 0.73547 0.43982 0.29335 0.0
C168 C 0.75205 0.45335 0.29844 0.0
C169 C 0.74663 0.47309 0.29173 0.0
N170 N 0.72974 0.5154 0.28527 0.0
C171 C 0.74859 0.51281 0.29469 0.0
C172 C 0.75569 0.53136 0.30468 0.0
C173 C 0.74062 0.54595 0.30133 0.0
C174 C 0.72516 0.53553 0.28957 0.0
N175 N 0.69581 0.51717 0.25596 0.0
C176 C 0.6946 0.53713 0.26315 0.0
C177 C 0.68283 0.5491 0.25007 0.0
C178 C 0.67629 0.53575 0.23376 0.0
C179 C 0.68441 0.5163 0.23786 0.0
N180 N 0.6919 0.49431 0.29269 0.0
C181 C 0.66494 0.49906 0.32717 0.0
C182 C 0.65716 0.49935 0.30645 0.0
C183 C 0.67085 0.49671 0.28944 0.0
C184 C 0.68633 0.49556 0.33016 0.0
C185 C 0.69947 0.49331 0.31284 0.0
N186 N 0.73186 0.4957 0.24606 0.0
C187 C 0.7552 0.51634 0.22458 0.0
C188 C 0.76379 0.49811 0.21603 0.0
C189 C 0.75558 0.47856 0.22237 0.0
C190 C 0.73946 0.4777 0.23727 0.0
C191 C 0.73939 0.5148 0.23955 0.0
H192 H 0.73348 0.46251 0.24205 0.0
H193 H 0.7337 0.52918 0.2463 0.0
H194 H 0.66453 0.49721 0.27365 0.0
H195 H 0.71597 0.49148 0.31587 0.0
C196 C 0.70303 0.4443 0.2726 0.0
C197 C 0.6806 0.49699 0.22503 0.0
C198 C 0.75908 0.49262 0.29591 0.0
C199 C 0.7082 0.54476 0.27935 0.0
H200 H 0.66171 0.45574 0.21552 0.0
H201 H 0.67247 0.42696 0.24298 0.0
H202 H 0.73453 0.42302 0.29563 0.0
H203 H 0.76641 0.44912 0.30626 0.0
H204 H 0.77014 0.53401 0.31358 0.0
H205 H 0.74126 0.56235 0.30626 0.0
H206 H 0.68027 0.5658 0.25154 0.0
H207 H 0.66685 0.53993 0.22037 0.0
H208 H 0.64066 0.50175 0.30339 0.0
H209 H 0.69312 0.4954 0.34584 0.0
H210 H 0.76119 0.53177 0.22034 0.0
H211 H 0.76163 0.46406 0.21596 0.0
C212 C 0.29331 0.33993 0.97696 0.0
C213 C 0.29903 0.34732 0.95736 0.0
C214 C 0.28525 0.33824 0.94307 0.0
C215 C 0.27201 0.32574 0.9546 0.0
N216 N 0.27633 0.32647 0.97548 0.0
Co217 Co 0.26171 0.30977 0.99771 0.0
N218 N 0.24497 0.29277 0.97607 0.0
C219 C 0.24523 0.2951 0.95498 0.0
C220 C 0.23312 0.28034 0.94402 0.0
C221 C 0.22486 0.26756 0.95898 0.0
C222 C 0.23235 0.27542 0.9783 0.0
N223 N 0.2469 0.29333 0.01995 0.0
C224 C 0.23381 0.27613 0.01806 0.0
C225 C 0.22706 0.26939 0.03755 0.0
C226 C 0.23648 0.28266 0.05228 0.0
C227 C 0.24834 0.29673 0.041 0.0
N228 N 0.27921 0.32618 0.01923 0.0
C229 C 0.27791 0.3249 0.04042 0.0
C230 C 0.29279 0.33713 0.05109 0.0
C231 C 0.3046 0.34642 0.03581 0.0
C232 C 0.29622 0.33927 0.01662 0.0
N233 N 0.23897 0.33092 0.99938 0.0
C234 C 0.20241 0.35506 0.00365 0.0
C235 C 0.21589 0.35219 0.02071 0.0
C236 C 0.23391 0.34042 0.01821 0.0
C237 C 0.20834 0.34674 0.98408 0.0
C238 C 0.22659 0.33505 0.98228 0.0
N239 N 0.28374 0.28854 0.99636 0.0
C240 C 0.3051 0.26376 0.01425 0.0
C241 C 0.3119 0.25527 0.9951 0.0
C242 C 0.30487 0.26429 0.97653 0.0
C243 C 0.29096 0.28091 0.97751 0.0
C244 C 0.29122 0.28024 0.01452 0.0
H245 H 0.2859 0.28719 0.9629 0.0
H246 H 0.28631 0.28571 0.02963 0.0
H247 H 0.24312 0.33898 0.03201 0.0
H248 H 0.23007 0.32931 0.9669 0.0
C249 C 0.25774 0.31079 0.94595 0.0
C250 C 0.30511 0.34516 0.99635 0.0
C251 C 0.22771 0.26546 0.99823 0.0
C252 C 0.26311 0.31131 0.04969 0.0
H253 H 0.31226 0.35757 0.95353 0.0
H254 H 0.28562 0.33962 0.92613 0.0
H255 H 0.23101 0.27872 0.92713 0.0
H256 H 0.21482 0.25377 0.95591 0.0
H257 H 0.21676 0.25601 0.04076 0.0
H258 H 0.23549 0.2816 0.06922 0.0
H259 H 0.29512 0.33869 0.06795 0.0
H260 H 0.31805 0.35701 0.03848 0.0
H261 H 0.21225 0.35837 0.03624 0.0
H262 H 0.19891 0.34912 0.97014 0.0
H263 H 0.30988 0.25727 0.02907 0.0
H264 H 0.30998 0.25852 0.96129 0.0
C265 C 0.22334 0.67382 0.47914 0.0
C266 C 0.22041 0.6632 0.45997 0.0
C267 C 0.2365 0.6699 0.44721 0.0
C268 C 0.24831 0.68414 0.4593 0.0
N269 N 0.2406 0.68671 0.4788 0.0
Co270 Co 0.25221 0.70575 0.50126 0.0
N271 N 0.26723 0.72324 0.48054 0.0
C272 C 0.27219 0.71717 0.46079 0.0
C273 C 0.28298 0.73259 0.45019 0.0
C274 C 0.28506 0.74926 0.46424 0.0
C275 C 0.27535 0.74306 0.48271 0.0
N276 N 0.26387 0.72477 0.5238 0.0
C277 C 0.27248 0.74442 0.52245 0.0
C278 C 0.27889 0.75209 0.54219 0.0
C279 C 0.27435 0.73648 0.55619 0.0
C280 C 0.26538 0.72019 0.54431 0.0
N281 N 0.2371 0.68797 0.5217 0.0
C282 C 0.24141 0.68697 0.54239 0.0
C283 C 0.22754 0.67371 0.55251 0.0
C284 C 0.21376 0.66599 0.53716 0.0
C285 C 0.22005 0.67498 0.51847 0.0
N286 N 0.27706 0.68847 0.50392 0.0
C287 C 0.31244 0.66578 0.51488 0.0
C288 C 0.29283 0.65547 0.51135 0.0
C289 C 0.27531 0.66712 0.50586 0.0
C290 C 0.31413 0.68737 0.51143 0.0
C291 C 0.29642 0.69833 0.50593 0.0
N292 N 0.2278 0.72344 0.49921 0.0
C293 C 0.20298 0.74511 0.51708 0.0
C294 C 0.19727 0.75408 0.49809 0.0
C295 C 0.20638 0.74653 0.47944 0.0
C296 C 0.22148 0.73104 0.48033 0.0
C297 C 0.21821 0.72992 0.51731 0.0
H298 H 0.22864 0.72577 0.46587 0.0
H299 H 0.22291 0.72415 0.53234 0.0
H300 H 0.26021 0.65903 0.50399 0.0
H301 H 0.29836 0.71505 0.50422 0.0
C302 C 0.26356 0.69842 0.45183 0.0
C303 C 0.21025 0.67065 0.49773 0.0
C304 C 0.27618 0.75537 0.50259 0.0
C305 C 0.25522 0.70203 0.55207 0.0
H306 H 0.20792 0.65192 0.45567 0.0
H307 H 0.23864 0.66572 0.43077 0.0
H308 H 0.28816 0.73205 0.43401 0.0
H309 H 0.29312 0.76412 0.46131 0.0
H310 H 0.28622 0.76728 0.54605 0.0
H311 H 0.27667 0.73724 0.57309 0.0
H312 H 0.22672 0.67093 0.56922 0.0
H313 H 0.20052 0.65525 0.53952 0.0
H314 H 0.29085 0.63873 0.51368 0.0
H315 H 0.32904 0.69593 0.51339 0.0
H316 H 0.19654 0.75054 0.5319 0.0
H317 H 0.20218 0.75283 0.46436 0.0
C318 C 0.7768 0.81514 0.47682 0.0
C319 C 0.78028 0.81893 0.45566 0.0
C320 C 0.76493 0.80799 0.44458 0.0
C321 C 0.75313 0.79796 0.45945 0.0
N322 N 0.75975 0.80211 0.47945 0.0
Co323 Co 0.74866 0.78873 0.50561 0.0
N324 N 0.72858 0.76992 0.48888 0.0
C325 C 0.7246 0.77055 0.46798 0.0
C326 C 0.70972 0.75594 0.46098 0.0
C327 C 0.70398 0.74517 0.47842 0.0
C328 C 0.71589 0.75378 0.49509 0.0
N329 N 0.7382 0.77477 0.53169 0.0
C330 C 0.72526 0.75758 0.53378 0.0
C331 C 0.72333 0.75209 0.5547 0.0
C332 C 0.73545 0.7663 0.56623 0.0
C333 C 0.74421 0.77951 0.55177 0.0
N334 N 0.76853 0.80785 0.52228 0.0
C335 C 0.76988 0.80984 0.54349 0.0
C336 C 0.78522 0.82405 0.55037 0.0
C337 C 0.79443 0.83133 0.53251 0.0
C338 C 0.78424 0.82098 0.51568 0.0
N339 N 0.72619 0.80998 0.50823 0.0
C340 C 0.69021 0.83482 0.51283 0.0
C341 C 0.70224 0.82949 0.53025 0.0
C342 C 0.72001 0.81737 0.52761 0.0
C343 C 0.69726 0.82851 0.49293 0.0
C344 C 0.7152 0.81641 0.491 0.0
N345 N 0.7705 0.76735 0.50327 0.0
C346 C 0.79649 0.74628 0.51993 0.0
C347 C 0.79788 0.73345 0.50187 0.0
C348 C 0.78602 0.73855 0.48417 0.0
C349 C 0.77264 0.75554 0.48516 0.0
C350 C 0.78285 0.76302 0.52028 0.0
H351 H 0.76381 0.75864 0.47125 0.0
H352 H 0.78214 0.77195 0.53466 0.0
H353 H 0.72811 0.81386 0.54165 0.0
H354 H 0.7196 0.81224 0.4754 0.0
C355 C 0.73666 0.78349 0.45505 0.0
C356 C 0.79056 0.82354 0.49378 0.0
C357 C 0.71502 0.7457 0.51637 0.0
C358 C 0.75865 0.79606 0.5564 0.0
H359 H 0.79289 0.82815 0.44877 0.0
H360 H 0.76308 0.80683 0.42764 0.0
H361 H 0.70421 0.75301 0.44498 0.0
H362 H 0.6926 0.73218 0.47873 0.0
H363 H 0.71437 0.73898 0.56099 0.0
H364 H 0.73795 0.76667 0.58311 0.0
H365 H 0.78983 0.82792 0.56647 0.0
H366 H 0.80756 0.84253 0.53194 0.0
H367 H 0.69764 0.83401 0.54605 0.0
H368 H 0.68895 0.8328 0.47882 0.0
H369 H 0.80532 0.74301 0.53404 0.0
H370 H 0.78694 0.72939 0.46964 0.0
C371 C 0.48753 0.79521 0.8367 0.0
C372 C 0.46858 0.80072 0.84559 0.0
C373 C 0.45382 0.78621 0.83837 0.0
C374 C 0.46456 0.77266 0.82562 0.0
N375 N 0.48535 0.77747 0.82451 0.0
Co376 Co 0.50669 0.76214 0.8076 0.0
N377 N 0.4843 0.74415 0.79295 0.0
C378 C 0.46336 0.74448 0.79636 0.0
C379 C 0.45175 0.73123 0.78315 0.0
C380 C 0.4661 0.7221 0.7703 0.0
C381 C 0.48573 0.73025 0.77656 0.0
N382 N 0.52806 0.74646 0.79105 0.0
C383 C 0.52543 0.73192 0.7752 0.0
C384 C 0.54455 0.72486 0.76807 0.0
C385 C 0.55981 0.73549 0.77969 0.0
C386 C 0.54919 0.74835 0.79326 0.0
N387 N 0.52892 0.78097 0.82151 0.0
C388 C 0.54995 0.78001 0.81891 0.0
C389 C 0.56115 0.79605 0.82906 0.0
C390 C 0.54638 0.80825 0.83832 0.0
C391 C 0.52694 0.79883 0.83339 0.0
N392 N 0.50907 0.74097 0.83031 0.0
C393 C 0.51428 0.70635 0.85691 0.0
C394 C 0.53106 0.72019 0.85255 0.0
C395 C 0.5281 0.73727 0.83957 0.0
C396 C 0.49452 0.71099 0.84883 0.0
C397 C 0.49225 0.72829 0.83587 0.0
N398 N 0.50461 0.78265 0.78491 0.0
C399 C 0.5214 0.80271 0.75763 0.0
C400 C 0.50204 0.8097 0.75065 0.0
C401 C 0.48396 0.80322 0.76148 0.0
C402 C 0.48559 0.7898 0.77851 0.0
C403 C 0.52232 0.7894 0.77466 0.0
H404 H 0.47133 0.78519 0.78622 0.0
H405 H 0.53754 0.78446 0.77907 0.0
H406 H 0.5417 0.74688 0.83701 0.0
H407 H 0.47676 0.73077 0.83034 0.0
C408 C 0.45514 0.75757 0.81198 0.0
C409 C 0.50698 0.80777 0.83963 0.0
C410 C 0.50521 0.72463 0.7662 0.0
C411 C 0.55851 0.76431 0.80608 0.0
H412 H 0.46564 0.8142 0.85572 0.0
H413 H 0.43707 0.7862 0.84118 0.0
H414 H 0.43485 0.72875 0.78271 0.0
H415 H 0.46248 0.71088 0.75762 0.0
H416 H 0.54719 0.71349 0.7555 0.0
H417 H 0.57665 0.73457 0.77787 0.0
H418 H 0.57801 0.79888 0.82918 0.0
H419 H 0.54955 0.82268 0.84729 0.0
H420 H 0.54672 0.71752 0.85848 0.0
H421 H 0.48079 0.70123 0.85234 0.0
H422 H 0.53584 0.80704 0.74968 0.0
H423 H 0.46862 0.80847 0.75687 0.0
C424 C 0.52801 0.2877 0.68808 0.0
C425 C 0.54685 0.29188 0.67792 0.0
C426 C 0.5599 0.27587 0.68276 0.0
C427 C 0.5483 0.26286 0.69551 0.0
N428 N 0.52886 0.26977 0.69892 0.0
Co429 Co 0.507 0.25613 0.71621 0.0
N430 N 0.52825 0.24092 0.73205 0.0
C431 C 0.54768 0.23664 0.72528 0.0
C432 C 0.55852 0.22469 0.73907 0.0
C433 C 0.545 0.22118 0.75542 0.0
C434 C 0.52661 0.2314 0.75077 0.0
N435 N 0.48512 0.24243 0.73359 0.0
C436 C 0.487 0.23371 0.75274 0.0
C437 C 0.46734 0.22748 0.76015 0.0
C438 C 0.45297 0.23182 0.74473 0.0
C439 C 0.46447 0.24076 0.72888 0.0
N440 N 0.48598 0.27141 0.69999 0.0
C441 C 0.46536 0.26636 0.69827 0.0
C442 C 0.45474 0.28058 0.6866 0.0
C443 C 0.46968 0.29537 0.68069 0.0
C444 C 0.48866 0.28929 0.68906 0.0
N445 N 0.50447 0.23246 0.69592 0.0
C446 C 0.49679 0.19802 0.66821 0.0
C447 C 0.49858 0.21854 0.66065 0.0
C448 C 0.50261 0.23555 0.67476 0.0
C449 C 0.49941 0.19518 0.68981 0.0
C450 C 0.50317 0.21246 0.7033 0.0
N451 N 0.50898 0.27937 0.73682 0.0
C452 C 0.49097 0.30131 0.76159 0.0
C453 C 0.50997 0.3071 0.7716 0.0
C454 C 0.52871 0.29994 0.7629 0.0
C455 C 0.52786 0.28604 0.74542 0.0
C456 C 0.49082 0.28757 0.74427 0.0
H457 H 0.54234 0.27996 0.73943 0.0
H458 H 0.4758 0.28279 0.73757 0.0
H459 H 0.50377 0.25121 0.66865 0.0
H460 H 0.50442 0.20958 0.71988 0.0
C461 C 0.55614 0.24677 0.70773 0.0
C462 C 0.50916 0.30013 0.68613 0.0
C463 C 0.5073 0.23012 0.76335 0.0
C464 C 0.45621 0.25154 0.71177 0.0
H465 H 0.55071 0.30506 0.66806 0.0
H466 H 0.57618 0.27446 0.67831 0.0
H467 H 0.57452 0.21959 0.73772 0.0
H468 H 0.54824 0.21184 0.769 0.0
H469 H 0.46359 0.22074 0.77517 0.0
H470 H 0.43605 0.22978 0.74554 0.0
H471 H 0.43795 0.28096 0.68385 0.0
H472 H 0.46681 0.30915 0.67161 0.0
H473 H 0.49685 0.22145 0.64401 0.0
H474 H 0.49787 0.1797 0.69646 0.0
H475 H 0.47618 0.30689 0.7675 0.0
H476 H 0.54376 0.30419 0.77012 0.0
C477 C 0.83063 0.48431 0.7838 0.0
C478 C 0.83742 0.46412 0.78702 0.0
C479 C 0.82889 0.4516 0.77105 0.0
C480 C 0.81725 0.4647 0.7591 0.0
N481 N 0.81796 0.48465 0.76662 0.0
Co482 Co 0.80265 0.50839 0.75502 0.0
N483 N 0.7824 0.48908 0.73992 0.0
C484 C 0.78523 0.46864 0.73524 0.0
C485 C 0.76833 0.45922 0.72481 0.0
C486 C 0.75412 0.47477 0.72266 0.0
C487 C 0.76323 0.49293 0.73184 0.0
N488 N 0.78752 0.5322 0.74338 0.0
C489 C 0.76801 0.53253 0.73479 0.0
C490 C 0.76371 0.55255 0.7281 0.0
C491 C 0.78128 0.56503 0.73261 0.0
C492 C 0.79531 0.552 0.74174 0.0
N493 N 0.82299 0.5275 0.7702 0.0
C494 C 0.82728 0.54773 0.76583 0.0
C495 C 0.84195 0.55694 0.77946 0.0
C496 C 0.8471 0.54147 0.79315 0.0
C497 C 0.83521 0.52367 0.78712 0.0
N498 N 0.82081 0.50842 0.73014 0.0
C499 C 0.84605 0.5134 0.6944 0.0
C500 C 0.85511 0.50995 0.71419 0.0
C501 C 0.84221 0.50755 0.73189 0.0
C502 C 0.82412 0.51332 0.69282 0.0
C503 C 0.81188 0.51072 0.71071 0.0
N504 N 0.7842 0.50882 0.77948 0.0
C505 C 0.76378 0.52908 0.80382 0.0
C506 C 0.7529 0.51088 0.81013 0.0
C507 C 0.75889 0.49144 0.80165 0.0
C508 C 0.77457 0.49075 0.78631 0.0
C509 C 0.77942 0.5277 0.78866 0.0
H510 H 0.77833 0.47572 0.77939 0.0
H511 H 0.7871 0.54208 0.78377 0.0
H512 H 0.84953 0.50554 0.74707 0.0
H513 H 0.79509 0.51118 0.70879 0.0
C514 C 0.80211 0.4582 0.744 0.0
C515 C 0.83677 0.50301 0.79672 0.0
C516 C 0.75419 0.51385 0.73095 0.0
C517 C 0.81427 0.55829 0.75192 0.0
H518 H 0.84719 0.4588 0.79968 0.0
H519 H 0.83001 0.43473 0.76919 0.0
H520 H 0.76622 0.44284 0.72005 0.0
H521 H 0.73888 0.47296 0.71504 0.0
H522 H 0.7495 0.55754 0.72052 0.0
H523 H 0.78328 0.58173 0.73011 0.0
H524 H 0.84748 0.57321 0.78006 0.0
H525 H 0.85827 0.54307 0.80606 0.0
H526 H 0.87202 0.50981 0.71612 0.0
H527 H 0.81638 0.51542 0.67782 0.0
H528 H 0.75995 0.54438 0.81028 0.0
H529 H 0.75091 0.47696 0.80612 0.0
C530 C 0.18996 0.03032 0.78342 0.0
C531 C 0.18202 0.04994 0.78794 0.0
C532 C 0.18893 0.06295 0.77234 0.0
C533 C 0.20062 0.05056 0.75919 0.0
N534 N 0.20142 0.03063 0.7656 0.0
Co535 Co 0.21649 0.00762 0.75154 0.0
N536 N 0.23502 0.02782 0.73661 0.0
C537 C 0.23108 0.04816 0.73341 0.0
C538 C 0.24659 0.05824 0.72224 0.0
C539 C 0.26106 0.04325 0.71799 0.0
C540 C 0.25354 0.02475 0.72686 0.0
N541 N 0.23141 0.98453 0.73731 0.0
C542 C 0.25005 0.98499 0.72715 0.0
C543 C 0.25449 0.96514 0.71915 0.0
C544 C 0.23784 0.95201 0.72423 0.0
C545 C 0.2242 0.96446 0.7351 0.0
N546 N 0.19787 0.98768 0.76672 0.0
C547 C 0.19405 0.96733 0.76146 0.0
C548 C 0.18093 0.95745 0.77547 0.0
C549 C 0.17625 0.97259 0.79038 0.0
C550 C 0.18677 0.99094 0.78456 0.0
N551 N 0.19648 0.00725 0.72782 0.0
C552 C 0.16913 0.99989 0.69329 0.0
C553 C 0.16128 0.00223 0.71382 0.0
C554 C 0.17522 0.00604 0.73086 0.0
C555 C 0.19082 0.00269 0.69047 0.0
C556 C 0.2041 0.00621 0.70777 0.0
N557 N 0.23677 0.00743 0.77475 0.0
C558 C 0.25959 0.98735 0.79622 0.0
C559 C 0.2707 0.00568 0.8028 0.0
C560 C 0.26359 0.02508 0.79614 0.0
C561 C 0.24657 0.02561 0.78208 0.0
C562 C 0.24266 0.98857 0.78234 0.0
H563 H 0.24189 0.04062 0.77645 0.0
H564 H 0.2349 0.97409 0.77706 0.0
H565 H 0.16888 0.00723 0.74654 0.0
H566 H 0.22071 0.00725 0.70481 0.0
C567 C 0.21439 0.05782 0.74367 0.0
C568 C 0.18546 0.01145 0.79557 0.0
C569 C 0.26292 0.00416 0.72339 0.0
C570 C 0.20638 0.95742 0.74616 0.0
H571 H 0.17233 0.05438 0.80115 0.0
H572 H 0.18661 0.07967 0.77134 0.0
H573 H 0.24756 0.07463 0.71811 0.0
H574 H 0.27527 0.04557 0.70897 0.0
H575 H 0.26822 0.96066 0.71038 0.0
H576 H 0.23623 0.93527 0.72097 0.0
H577 H 0.17622 0.94096 0.77553 0.0
H578 H 0.16641 0.97032 0.80399 0.0
H579 H 0.14462 1.00035 0.71684 0.0
H580 H 0.19767 1.00179 0.67494 0.0
H581 H 0.26426 0.97208 0.80135 0.0
H582 H 0.27172 0.03965 0.80091 0.0
C583 C 0.73844 0.18779 0.97372 0.0
C584 C 0.73418 0.17788 0.95439 0.0
C585 C 0.74938 0.18502 0.94081 0.0
C586 C 0.76204 0.19878 0.9526 0.0
N587 N 0.75569 0.20062 0.97267 0.0
Co588 Co 0.76902 0.21863 0.99503 0.0
N589 N 0.78277 0.23684 0.97408 0.0
C590 C 0.78625 0.23159 0.95378 0.0
C591 C 0.79621 0.2475 0.9431 0.0
C592 C 0.79928 0.26361 0.95767 0.0
C593 C 0.79104 0.25657 0.97652 0.0
N594 N 0.78241 0.23663 0.01743 0.0
C595 C 0.79087 0.25635 0.0163 0.0
C596 C 0.79896 0.26315 0.03573 0.0
C597 C 0.79545 0.24695 0.04934 0.0
C598 C 0.78547 0.23119 0.03752 0.0
N599 N 0.75519 0.20017 0.01573 0.0
C600 C 0.76091 0.19837 0.03601 0.0
C601 C 0.74752 0.18504 0.04662 0.0
C602 C 0.73257 0.17811 0.03204 0.0
C603 C 0.73776 0.18753 0.01324 0.0
N604 N 0.79372 0.20097 0.99511 0.0
C605 C 0.8294 0.17717 1.00169 0.0
C606 C 0.80945 0.16732 0.99913 0.0
C607 C 0.79178 0.17953 0.99587 0.0
C608 C 0.83117 0.19897 0.99964 0.0
C609 C 0.81329 0.21049 0.99627 0.0
N610 N 0.74476 0.23664 0.99551 0.0
C611 C 0.72167 0.25801 0.016 0.0
C612 C 0.7146 0.26762 0.99782 0.0
C613 C 0.72213 0.26051 0.97827 0.0
C614 C 0.7371 0.24488 0.97745 0.0
C615 C 0.73666 0.24263 0.01451 0.0
H616 H 0.74309 0.24 0.96232 0.0
H617 H 0.74241 0.2363 0.02893 0.0
H618 H 0.77647 0.17174 0.9947 0.0
H619 H 0.81533 0.2273 0.99543 0.0
C620 C 0.77685 0.21327 0.94466 0.0
C621 C 0.72659 0.18399 0.99302 0.0
C622 C 0.79292 0.26815 0.99676 0.0
C623 C 0.77563 0.21284 0.04525 0.0
H624 H 0.72141 0.16678 0.95054 0.0
H625 H 0.75038 0.18143 0.92412 0.0
H626 H 0.80008 0.24769 0.92655 0.0
H627 H 0.80688 0.2787 0.95477 0.0
H628 H 0.80671 0.27815 0.0396 0.0
H629 H 0.79907 0.247 0.06601 0.0
H630 H 0.74777 0.18175 0.06324 0.0
H631 H 0.7193 0.16763 0.03508 0.0
H632 H 0.8074 0.15045 1.00046 0.0
H633 H 0.84631 0.2072 1.00098 0.0
H634 H 0.71649 0.26305 0.03146 0.0
H635 H 0.71682 0.26727 0.96377 0.0
Zn636 Zn 0.09265 0.07903 0.06056 0.0
Zn637 Zn 0.04333 0.0337 0.01569 0.0
Zn638 Zn 0.06837 0.05759 0.03991 0.0
C639 C 0.07573 0.04772 0.98963 0.0
C640 C 0.0576 0.00783 0.04732 0.0
O641 O 0.05042 0.08399 0.0548 0.0
O642 O 0.0771 0.10486 0.06469 0.0
C643 C 0.11255 0.0794 0.02447 0.0
O644 O 0.08185 0.05654 0.00726 0.0
O645 O 0.05856 0.03721 0.98874 0.0
O646 O 0.04661 0.00695 0.03068 0.0
O647 O 0.06689 0.02533 0.05331 0.0
O648 O 0.11801 0.08158 0.04349 0.0
O649 O 0.09413 0.07144 0.01975 0.0
O650 O 0.08098 0.03785 0.06581 0.0
O651 O 0.09549 0.06297 0.08603 0.0
C652 C 0.09039 0.04386 0.0831 0.0
O653 O 0.03694 0.07196 0.04063 0.0
O654 O 0.01747 0.04974 0.02084 0.0
C655 C 0.05752 0.10152 0.06319 0.0
C656 C 0.01909 0.0663 0.03216 0.0
Zn657 Zn 0.98219 0.49609 0.01921 0.0
Zn658 Zn 0.9381 0.44858 0.0614 0.0
Zn659 Zn 0.9596 0.47202 0.04116 0.0
C660 C 0.93735 0.48373 0.08522 0.0
C661 C 0.91582 0.449 0.02577 0.0
O662 O 0.99184 0.45872 0.03978 0.0
O663 O 0.00538 0.47657 0.01353 0.0
C664 C 0.97402 0.51906 0.05577 0.0
O665 O 0.94524 0.49036 0.06782 0.0
O666 O 0.93565 0.46427 0.08821 0.0
O667 O 0.91198 0.44571 0.04483 0.0
O668 O 0.93361 0.45769 0.02063 0.0
O669 O 0.98713 0.51872 0.04096 0.0
O670 O 0.96053 0.50364 0.05754 0.0
O671 O 0.94497 0.47301 0.00897 0.0
O672 O 0.9616 0.50082 0.99624 0.0
C673 C 0.94717 0.48678 0.9945 0.0
O674 O 0.9794 0.4467 0.05422 0.0
O675 O 0.95479 0.42323 0.06247 0.0
C676 C 0.00676 0.46191 0.02645 0.0
C677 C 0.97398 0.42837 0.06101 0.0
Zn678 Zn 0.01183 0.97328 0.47918 0.0
Zn679 Zn 0.0552 0.92807 0.43513 0.0
Zn680 Zn 0.03477 0.95064 0.45579 0.0
C681 C 0.07753 0.92913 0.47028 0.0
C682 C 0.01976 0.90583 0.43449 0.0
O683 O 0.03565 0.98262 0.44156 0.0
O684 O 0.0114 0.99791 0.46063 0.0
C685 C 0.04482 0.96296 0.50502 0.0
O686 O 0.05981 0.93682 0.47583 0.0
O687 O 0.08171 0.9272 0.45101 0.0
O688 O 0.03885 0.90133 0.43398 0.0
O689 O 0.01463 0.92433 0.44102 0.0
O690 O 0.02948 0.97503 0.50488 0.0
O691 O 0.04886 0.95178 0.48839 0.0
O692 O 0.00208 0.93607 0.45526 0.0
O693 O 0.98663 0.95442 0.4803 0.0
C694 C 0.98609 0.93924 0.46716 0.0
O695 O 0.05032 0.9692 0.43034 0.0
O696 O 0.05704 0.94298 0.40843 0.0
C697 C 0.02411 0.99855 0.44547 0.0
C698 C 0.05725 0.96245 0.41244 0.0
Zn699 Zn 0.94626 0.56107 0.42955 0.0
Zn700 Zn 0.99212 0.51737 0.47487 0.0
Zn701 Zn 0.96827 0.54038 0.45119 0.0
C702 C 0.97647 0.49042 0.44244 0.0
C703 C 0.01809 0.55038 0.46001 0.0
O704 O 0.94311 0.55457 0.47118 0.0
O705 O 0.92088 0.56381 0.44658 0.0
C706 C 0.94468 0.52448 0.40816 0.0
O707 O 0.96764 0.50755 0.43725 0.0
O708 O 0.98789 0.49027 0.45878 0.0
O709 O 0.01871 0.53414 0.471 0.0
O710 O 1.00069 0.55516 0.45101 0.0
O711 O 0.94272 0.54352 0.40387 0.0
O712 O 0.95311 0.51968 0.42588 0.0
O713 O 0.98794 0.56587 0.43632 0.0
O714 O 0.96321 0.58702 0.42638 0.0
C715 C 0.98242 0.58327 0.42817 0.0
O716 O 0.9552 0.5413 0.48381 0.0
O717 O 0.97669 0.52166 0.50174 0.0
C718 C 0.9253 0.56207 0.46579 0.0
C719 C 0.96071 0.53291 0.50122 0.0
Zn720 Zn 0.42774 0.9376 0.55666 0.0
Zn721 Zn 0.47315 0.97987 0.51479 0.0
Zn722 Zn 0.449 0.95869 0.53748 0.0
C723 C 0.43916 0.96866 0.48883 0.0
C724 C 0.46181 0.00651 0.54843 0.0
O725 O 0.46901 0.93678 0.55499 0.0
O726 O 0.44639 0.93266 0.58076 0.0
C727 C 0.41849 0.92229 0.5195 0.0
O728 O 0.4345 0.95783 0.50517 0.0
O729 O 0.45523 0.98083 0.48927 0.0
O730 O 0.4752 0.00507 0.53393 0.0
O731 O 0.44888 0.99095 0.55169 0.0
O732 O 0.42224 0.91377 0.53674 0.0
O733 O 0.42495 0.94146 0.51679 0.0
O734 O 0.43275 0.97839 0.56166 0.0
O735 O 0.40474 0.95725 0.56193 0.0
C736 C 0.41355 0.97463 0.56721 0.0
O737 O 0.48093 0.94394 0.53826 0.0
O738 O 0.4973 0.96116 0.51316 0.0
C739 C 0.46465 0.93063 0.5737 0.0
C740 C 0.49709 0.9466 0.52628 0.0
Zn741 Zn 0.51775 0.52026 0.54793 0.0
Zn742 Zn 0.58272 0.58731 0.60129 0.0
Zn743 Zn 0.54455 0.54342 0.56788 0.0
C744 C 0.57193 0.53848 0.60244 0.0
C745 C 0.57906 0.56898 0.55673 0.0
O746 O 0.51571 0.56075 0.57212 0.0
O747 O 0.49404 0.53932 0.55388 0.0
C748 C 0.53324 0.49497 0.57955 0.0
O749 O 0.56024 0.52518 0.59214 0.0
O750 O 0.57166 0.5571 0.59592 0.0
O751 O 0.57572 0.56873 0.57622 0.0
O752 O 0.56815 0.55567 0.54569 0.0
O753 O 0.51988 0.49453 0.56474 0.0
O754 O 0.54453 0.51189 0.5833 0.0
O755 O 0.55531 0.54181 0.5342 0.0
O756 O 0.53137 0.52006 0.51963 0.0
C757 C 0.54804 0.53121 0.51799 0.0
O758 O 0.53203 0.57264 0.5859 0.0
O759 O 0.55302 0.59728 0.60356 0.0
C760 C 0.49724 0.55604 0.56477 0.0
C761 C 0.53499 0.58998 0.5972 0.0
Zn762 Zn 0.53162 0.49228 0.00687 0.0
Zn763 Zn 0.57376 0.44876 0.95699 0.0
Zn764 Zn 0.55388 0.46981 0.98063 0.0
C765 C 0.59647 0.44666 0.99224 0.0
C766 C 0.53732 0.42733 0.95619 0.0
O767 O 0.55464 0.50221 0.96844 0.0
O768 O 0.53338 0.51854 0.99027 0.0
C769 C 0.56524 0.47812 0.03043 0.0
O770 O 0.5791 0.45429 0.99883 0.0
O771 O 0.60007 0.44575 0.97279 0.0
O772 O 0.55626 0.42286 0.95366 0.0
O773 O 0.53282 0.4451 0.96498 0.0
O774 O 0.5499 0.49013 0.03201 0.0
O775 O 0.56881 0.46858 0.01272 0.0
O776 O 0.52089 0.45631 0.98001 0.0
O777 O 0.5056 0.47405 0.00568 0.0
C778 C 0.5048 0.45952 0.99177 0.0
O779 O 0.56921 0.49013 0.95626 0.0
O780 O 0.57622 0.46617 0.93193 0.0
C781 C 0.54488 0.51882 0.97414 0.0
C782 C 0.57617 0.4852 0.9378 0.0
Zn783 Zn 0.50265 0.03688 0.98196 0.0
Zn784 Zn 0.45733 0.07419 0.93133 0.0
Zn785 Zn 0.47987 0.0576 0.95551 0.0
C786 C 0.4917 0.10038 0.93227 0.0
C787 C 0.45824 0.03749 0.9125 0.0
O788 O 0.46445 0.05897 0.98706 0.0
O789 O 0.48416 0.03924 0.00681 0.0
C790 C 0.52787 0.0711 0.96821 0.0
O791 O 0.49886 0.08419 0.94147 0.0
O792 O 0.47237 0.10108 0.92816 0.0
O793 O 0.45611 0.05586 0.90612 0.0
O794 O 0.46619 0.03477 0.93097 0.0
O795 O 0.5275 0.05657 0.9814 0.0
O796 O 0.51188 0.07357 0.95598 0.0
O797 O 0.48173 0.02442 0.94303 0.0
O798 O 0.50282 0.00962 0.96566 0.0
C799 C 0.4919 0.00833 0.94896 0.0
O800 O 0.45331 0.07215 0.97308 0.0
O801 O 0.4309 0.0764 0.94707 0.0
C802 C 0.46825 0.05038 0.00482 0.0
C803 C 0.43515 0.07781 0.96646 0.0
H804 H 0.04199 0.16335 0.32746 0.0
H805 H 0.04539 0.12969 0.34462 0.0
H806 H 0.99248 0.14335 0.38398 0.0
H807 H 0.98921 0.17732 0.36728 0.0
H808 H 0.05146 0.12119 0.38842 0.0
H809 H 0.97697 0.08509 0.35647 0.0
H810 H 0.98931 0.1083 0.34556 0.0
H811 H 0.97431 0.11031 0.36932 0.0
C812 C 0.0312 0.1594 0.33995 0.0
C813 C 0.01529 0.1732 0.34592 0.0
C814 C 0.03311 0.14003 0.34966 0.0
C815 C 0.01904 0.13386 0.36539 0.0
C816 C 0.00329 0.14761 0.37159 0.0
H817 H 0.99612 0.02997 0.44589 0.0
H818 H 0.99654 0.06183 0.42558 0.0
C819 C 1.00141 0.16704 0.36197 0.0
C820 C 0.02088 0.1131 0.3754 0.0
H821 H 0.9942 0.06653 0.38317 0.0
C822 C 0.03904 0.10914 0.38716 0.0
C823 C 0.00471 0.09736 0.37362 0.0
C824 C 0.98529 0.10032 0.36041 0.0
C825 C 0.04107 0.09022 0.39792 0.0
C826 C 0.02468 0.07465 0.39652 0.0
C827 C 0.00677 0.07844 0.38429 0.0
C828 C 0.025 0.05496 0.40874 0.0
C829 C 0.06037 0.08744 0.41137 0.0
C830 C 0.04082 0.04024 0.40603 0.0
C831 C 0.0407 0.02186 0.41785 0.0
C832 C 0.0247 0.01774 0.43244 0.0
C833 C 0.00882 0.03251 0.43489 0.0
C834 C 0.00896 0.05079 0.42319 0.0
H835 H 0.0691 0.10259 0.41458 0.0
H836 H 0.05609 0.08039 0.42663 0.0
H837 H 0.07108 0.07669 0.40306 0.0
H838 H 0.05322 0.04288 0.39473 0.0
H839 H 0.05321 0.01109 0.41576 0.0
H840 H 0.98756 0.33232 0.30858 0.0
H841 H 0.98215 0.36624 0.32681 0.0
H842 H 0.99876 0.33884 0.38585 0.0
H843 H 0.00454 0.30514 0.3675 0.0
H844 H 0.95527 0.37758 0.35819 0.0
H845 H 0.03744 0.39043 0.38596 0.0
H846 H 0.02999 0.37046 0.36644 0.0
H847 H 0.02617 0.36574 0.39399 0.0
C848 C 0.99019 0.3337 0.32542 0.0
C849 C 0.99678 0.31634 0.33665 0.0
C850 C 0.98703 0.35301 0.33584 0.0
C851 C 0.99043 0.35529 0.35768 0.0
C852 C 0.99657 0.33771 0.36894 0.0
H853 H 0.98009 0.45029 0.45525 0.0
H854 H 0.98185 0.41825 0.43354 0.0
C855 C 0.99979 0.31845 0.35851 0.0
C856 C 0.9874 0.37593 0.36875 0.0
H857 H 0.01202 0.41262 0.40141 0.0
C858 C 0.96774 0.38534 0.36749 0.0
C859 C 0.00368 0.38622 0.38078 0.0
C860 C 0.02556 0.37783 0.38173 0.0
C861 C 0.96374 0.40425 0.37853 0.0
C862 C 0.97985 0.41413 0.39106 0.0
C863 C 0.9996 0.40497 0.39194 0.0
C864 C 0.97651 0.43353 0.40406 0.0
C865 C 0.94213 0.41321 0.37728 0.0
C866 C 0.97262 0.45288 0.39477 0.0
C867 C 0.97165 0.47137 0.40723 0.0
C868 C 0.97449 0.47083 0.42919 0.0
C869 C 0.97777 0.45131 0.4384 0.0
C870 C 0.9788 0.43294 0.42601 0.0
H871 H 0.9304 0.40177 0.37019 0.0
H872 H 0.93671 0.41809 0.39318 0.0
H873 H 0.94277 0.42736 0.36742 0.0
H874 H 0.97121 0.45383 0.37783 0.0
H875 H 0.96981 0.48618 0.39956 0.0
H876 H 0.9974 0.83167 0.12129 0.0
H877 H 0.00801 0.86356 0.10245 0.0
H878 H 0.05258 0.88047 0.15189 0.0
H879 H 0.0422 0.84875 0.17066 0.0
H880 H 0.00677 0.90709 0.12025 0.0
H881 H 0.08665 0.88418 0.09561 0.0
H882 H 0.06638 0.86512 0.10257 0.0
H883 H 0.0802 0.88026 0.12279 0.0
C884 C 0.00961 0.84208 0.128 0.0
C885 C 0.01887 0.83773 0.14751 0.0
C886 C 0.01559 0.86032 0.11729 0.0
C887 C 0.03118 0.87431 0.12572 0.0
C888 C 0.04066 0.86982 0.14501 0.0
H889 H 0.05741 0.00504 0.09036 0.0
H890 H 0.05282 0.97286 0.11073 0.0
C891 C 0.03458 0.85175 0.15578 0.0
C892 C 0.03705 0.89402 0.11482 0.0
H893 H 0.07742 0.91924 0.08945 0.0
C894 C 0.02221 0.90977 0.11352 0.0
C895 C 0.05721 0.89746 0.10606 0.0
C896 C 0.07355 0.88085 0.10662 0.0
C897 C 0.02702 0.92891 0.10377 0.0
C898 C 0.04723 0.93242 0.09515 0.0
C899 C 0.06204 0.91662 0.09632 0.0
C900 C 0.05261 0.95179 0.08347 0.0
C901 C 0.01031 0.94509 0.10231 0.0
C902 C 0.05478 0.95054 0.06154 0.0
C903 C 0.05746 0.96881 0.04997 0.0
C904 C 0.05834 0.98871 0.0601 0.0
C905 C 0.05719 0.98991 0.08218 0.0
C906 C 0.05433 0.97157 0.09378 0.0
H907 H 0.99459 0.93871 0.10688 0.0
H908 H 0.01454 0.95867 0.11297 0.0
H909 H 0.0093 0.95099 0.08605 0.0
H910 H 0.05352 0.93546 0.05328 0.0
H911 H 0.05822 0.9674 0.03297 0.0
H912 H 0.011 0.70371 0.12858 0.0
H913 H 0.0048 0.66872 0.11208 0.0
H914 H 0.97948 0.646 0.17037 0.0
H915 H 0.98597 0.68094 0.18692 0.0
H916 H 0.00682 0.61797 0.15097 0.0
H917 H 0.94665 0.64404 0.09463 0.0
H918 H 0.97112 0.65882 0.09355 0.0
H919 H 0.95556 0.66002 0.11703 0.0
C920 C 0.00452 0.69109 0.13792 0.0
C921 C 0.99933 0.6948 0.15909 0.0
C922 C 1.0007 0.67121 0.12844 0.0
C923 C 0.99139 0.65479 0.1399 0.0
C924 C 0.98661 0.65842 0.1612 0.0
H925 H 0.94204 0.53742 0.07789 0.0
H926 H 0.94466 0.56911 0.10089 0.0
C927 C 0.99039 0.6783 0.17065 0.0
C928 C 0.98661 0.63385 0.12966 0.0
H929 H 0.95945 0.60959 0.08874 0.0
C930 C 0.99634 0.61612 0.13746 0.0
C931 C 0.97259 0.63131 0.11231 0.0
C932 C 0.96069 0.64951 0.10398 0.0
C933 C 0.99314 0.59613 0.12781 0.0
C934 C 0.98003 0.59381 0.10975 0.0
C935 C 0.9696 0.61137 0.1025 0.0
C936 C 0.97827 0.57375 0.09723 0.0
C937 C 0.00393 0.57766 0.13699 0.0
C938 C 0.99618 0.56584 0.08754 0.0
C939 C 0.99467 0.54782 0.07458 0.0
C940 C 0.9752 0.53717 0.07096 0.0
C941 C 0.95727 0.54491 0.08085 0.0
C942 C 0.95875 0.56314 0.09379 0.0
H943 H 0.00802 0.58055 0.15386 0.0
H944 H 0.99388 0.5631 0.13549 0.0
H945 H 0.01874 0.57503 0.12835 0.0
H946 H 0.01132 0.57393 0.08957 0.0
H947 H 0.00881 0.54233 0.06714 0.0
H948 H 0.38145 0.99924 0.17501 0.0
H949 H 0.39985 0.00718 0.14229 0.0
H950 H 0.35683 0.05641 0.13017 0.0
H951 H 0.33799 0.04831 0.16245 0.0
H952 H 0.38239 0.00786 0.09948 0.0
H953 H 0.41668 0.08528 0.12703 0.0
H954 H 0.40683 0.06579 0.14497 0.0
H955 H 0.38884 0.08127 0.13057 0.0
C956 C 0.37574 0.01164 0.16533 0.0
C957 C 0.35827 0.02322 0.17159 0.0
C958 C 0.38637 0.01622 0.14666 0.0
C959 C 0.37988 0.03256 0.13393 0.0
C960 C 0.36235 0.04399 0.13994 0.0
H961 H 0.42515 0.05295 0.00478 0.0
H962 H 0.40189 0.05082 0.03544 0.0
C963 C 0.35166 0.03936 0.15851 0.0
C964 C 0.39135 0.03758 0.11429 0.0
H965 H 0.42276 0.07518 0.09166 0.0
C966 C 0.39112 0.02261 0.0977 0.0
C967 C 0.40279 0.05683 0.11205 0.0
C968 C 0.40402 0.07322 0.12961 0.0
C969 C 0.40215 0.02632 0.07897 0.0
C970 C 0.41361 0.04555 0.07673 0.0
C971 C 0.41374 0.06057 0.09329 0.0
C972 C 0.42723 0.04941 0.05822 0.0
C973 C 0.40204 0.00935 0.06197 0.0
C974 C 0.44912 0.05016 0.06093 0.0
C975 C 0.46233 0.05151 0.04354 0.0
C976 C 0.45398 0.05241 0.02304 0.0
C977 C 0.43205 0.05271 0.02038 0.0
C978 C 0.41876 0.0512 0.03786 0.0
H979 H 0.39515 0.99421 0.06746 0.0
H980 H 0.39262 0.01438 0.04834 0.0
H981 H 0.41827 0.00672 0.05641 0.0
H982 H 0.456 0.04886 0.07647 0.0
H983 H 0.47917 0.05125 0.04611 0.0
H984 H 0.69873 0.48536 0.18822 0.0
H985 H 0.68219 0.48198 0.15314 0.0
H986 H 0.62414 0.50377 0.17911 0.0
H987 H 0.64081 0.50742 0.214 0.0
H988 H 0.64884 0.45717 0.14023 0.0
H989 H 0.6304 0.5404 0.12846 0.0
H990 H 0.64813 0.53248 0.14888 0.0
H991 H 0.62013 0.53083 0.15275 0.0
C992 C 0.68258 0.48986 0.18622 0.0
C993 C 0.67117 0.49724 0.20356 0.0
C994 C 0.67311 0.4878 0.16627 0.0
C995 C 0.65201 0.493 0.16334 0.0
C996 C 0.64059 0.50026 0.18078 0.0
H997 H 0.55413 0.48242 0.07133 0.0
H998 H 0.577 0.48452 0.10233 0.0
C999 C 0.65009 0.50238 0.2007 0.0
C1000 C 0.64162 0.48998 0.14233 0.0
H1001 H 0.61218 0.51496 0.10601 0.0
C1002 C 0.64107 0.46987 0.1326 0.0
C1003 C 0.6316 0.50657 0.13223 0.0
C1004 C 0.63276 0.52882 0.141 0.0
C1005 C 0.62995 0.46573 0.11361 0.0
C1006 C 0.6192 0.48213 0.10408 0.0
C1007 C 0.62032 0.50236 0.11343 0.0
C1008 C 0.60548 0.47852 0.08521 0.0
C1009 C 0.62905 0.44372 0.10426 0.0
C1010 C 0.61385 0.47406 0.06523 0.0
C1011 C 0.60072 0.47289 0.04733 0.0
C1012 C 0.57905 0.47612 0.04917 0.0
C1013 C 0.57074 0.47986 0.06933 0.0
C1014 C 0.58379 0.48108 0.08709 0.0
H1015 H 0.63599 0.4322 0.11495 0.0
H1016 H 0.61252 0.43868 0.10065 0.0
H1017 H 0.63785 0.44343 0.08925 0.0
H1018 H 0.63061 0.47235 0.06338 0.0
H1019 H 0.6077 0.47064 0.03202 0.0
H1020 H 0.31293 0.98123 0.32635 0.0
H1021 H 0.32799 0.97482 0.36131 0.0
H1022 H 0.38775 1.00083 0.34118 0.0
H1023 H 0.37258 0.00746 0.30642 0.0
H1024 H 0.36119 0.95051 0.3728 0.0
H1025 H 0.3781 0.03388 0.39555 0.0
H1026 H 0.36129 0.02617 0.3735 0.0
H1027 H 0.38942 0.02673 0.37073 0.0
C1028 C 0.32922 0.98572 0.32958 0.0
C1029 C 0.34157 0.99517 0.31398 0.0
C1030 C 0.33782 0.982 0.34945 0.0
C1031 C 0.35891 0.9877 0.35403 0.0
C1032 C 0.37132 0.99679 0.33823 0.0
H1033 H 0.45185 0.97759 0.44935 0.0
H1034 H 0.43034 0.98048 0.41775 0.0
C1035 C 0.36271 1.00054 0.31839 0.0
C1036 C 0.36811 0.98384 0.37514 0.0
H1037 H 0.39501 0.00823 0.41607 0.0
C1038 C 0.36835 0.96315 0.38241 0.0
C1039 C 0.37726 1.00036 0.38779 0.0
C1040 C 0.37634 0.02305 0.38162 0.0
C1041 C 0.37842 0.95847 0.40146 0.0
C1042 C 0.38837 0.9749 0.41357 0.0
C1043 C 0.38747 0.99563 0.40668 0.0
C1044 C 0.40123 0.97093 0.43259 0.0
C1045 C 0.37915 0.93593 0.40813 0.0
C1046 C 0.39206 0.96427 0.45146 0.0
C1047 C 0.40442 0.96263 0.46973 0.0
C1048 C 0.42609 0.96764 0.46937 0.0
C1049 C 0.4352 0.97367 0.45024 0.0
C1050 C 0.42293 0.97532 0.43212 0.0
H1051 H 0.3729 0.92475 0.39574 0.0
H1052 H 0.39554 0.93189 0.41202 0.0
H1053 H 0.36962 0.93388 0.42254 0.0
H1054 H 0.37527 0.96109 0.45225 0.0
H1055 H 0.39691 0.9585 0.48431 0.0
H1056 H 0.6358 0.52959 0.33207 0.0
H1057 H 0.61587 0.53839 0.36379 0.0
H1058 H 0.64315 0.48672 0.39571 0.0
H1059 H 0.66332 0.47811 0.36426 0.0
H1060 H 0.58679 0.51768 0.38593 0.0
H1061 H 0.65617 0.534 0.43729 0.0
H1062 H 0.65824 0.53065 0.40911 0.0
H1063 H 0.6564 0.50808 0.42564 0.0
C1064 C 0.6374 0.52 0.3458 0.0
C1065 C 0.65129 0.50325 0.34568 0.0
C1066 C 0.62609 0.52512 0.36397 0.0
C1067 C 0.6284 0.51359 0.3824 0.0
C1068 C 0.6416 0.49633 0.38199 0.0
H1069 H 0.54444 0.50145 0.48664 0.0
H1070 H 0.5636 0.49949 0.45369 0.0
C1071 C 0.65303 0.49132 0.36393 0.0
C1072 C 0.61677 0.5193 0.40191 0.0
H1073 H 0.62315 0.52919 0.45477 0.0
C1074 C 0.59479 0.5204 0.40093 0.0
C1075 C 0.62715 0.52339 0.42148 0.0
C1076 C 0.6508 0.52421 0.42343 0.0
C1077 C 0.58288 0.5245 0.41904 0.0
C1078 C 0.59315 0.52707 0.43886 0.0
C1079 C 0.6152 0.52693 0.43969 0.0
C1080 C 0.58128 0.52878 0.45895 0.0
C1081 C 0.55939 0.52613 0.41669 0.0
C1082 C 0.58521 0.54561 0.47338 0.0
C1083 C 0.57435 0.54666 0.49252 0.0
C1084 C 0.55945 0.53084 0.49764 0.0
C1085 C 0.55562 0.51406 0.48315 0.0
C1086 C 0.56651 0.51295 0.46417 0.0
H1087 H 0.55503 0.53111 0.40064 0.0
H1088 H 0.55175 0.51047 0.41914 0.0
H1089 H 0.55305 0.53747 0.42837 0.0
H1090 H 0.59661 0.55798 0.46978 0.0
H1091 H 0.57743 0.55993 0.50316 0.0
H1092 H 0.19467 0.38958 0.02904 0.0
H1093 H 0.16112 0.40614 0.0353 0.0
H1094 H 0.1308 0.36291 0.99052 0.0
H1095 H 0.16411 0.34566 0.9848 0.0
H1096 H 0.13587 0.42625 0.00905 0.0
H1097 H 0.092 0.35745 0.0404 0.0
H1098 H 0.12015 0.35801 0.03714 0.0
H1099 H 0.10301 0.35226 0.01496 0.0
C1100 C 0.18084 0.38337 0.02069 0.0
C1101 C 0.18218 0.36611 0.00651 0.0
C1102 C 0.16165 0.39297 0.02422 0.0
C1103 C 0.14326 0.38553 0.01374 0.0
C1104 C 0.14461 0.36863 0.99922 0.0
H1105 H 0.03093 0.45397 0.99239 0.0
H1106 H 0.06359 0.43506 0.99068 0.0
C1107 C 0.16379 0.35898 0.9957 0.0
C1108 C 0.12291 0.39597 0.01746 0.0
H1109 H 0.07161 0.38687 0.03136 0.0
C1110 C 0.12188 0.41762 0.01405 0.0
C1111 C 0.10467 0.38487 0.02438 0.0
C1112 C 0.105 0.36191 0.02965 0.0
C1113 C 0.10306 0.4283 0.0167 0.0
C1114 C 0.08456 0.417 0.02253 0.0
C1115 C 0.0857 0.39549 0.02665 0.0
C1116 C 0.06382 0.42717 0.02359 0.0
C1117 C 0.10321 0.45169 0.01331 0.0
C1118 C 0.05251 0.42835 0.0425 0.0
C1119 C 0.03361 0.43915 0.0435 0.0
C1120 C 0.02564 0.44878 0.02558 0.0
C1121 C 0.0367 0.44691 0.00656 0.0
C1122 C 0.05545 0.43615 0.00556 0.0
H1123 H 0.11929 0.45888 0.01511 0.0
H1124 H 0.09764 0.45461 0.99709 0.0
H1125 H 0.09265 0.45969 0.02455 0.0
H1126 H 0.05863 0.4215 0.05663 0.0
H1127 H 0.02574 0.44072 0.05842 0.0
H1128 H 0.17454 0.68716 0.48267 0.0
H1129 H 0.14047 0.66896 0.47552 0.0
H1130 H 0.16547 0.61142 0.49811 0.0
H1131 H 0.19929 0.62977 0.50564 0.0
H1132 H 0.13056 0.63638 0.44906 0.0
H1133 H 0.11139 0.61334 0.53025 0.0
H1134 H 0.13223 0.63222 0.52463 0.0
H1135 H 0.13661 0.60446 0.52224 0.0
C1136 C 0.17251 0.67072 0.48647 0.0
C1137 C 0.18923 0.65995 0.49523 0.0
C1138 C 0.15314 0.6603 0.48227 0.0
C1139 C 0.15018 0.63887 0.48665 0.0
C1140 C 0.16707 0.62807 0.49518 0.0
H1141 H 0.05847 0.53905 0.46561 0.0
H1142 H 0.08972 0.56194 0.47036 0.0
C1143 C 0.18639 0.63853 0.49949 0.0
C1144 C 0.12976 0.6276 0.48159 0.0
H1145 H 0.09149 0.59574 0.50259 0.0
C1146 C 0.12189 0.6277 0.46083 0.0
C1147 C 0.11828 0.61638 0.49694 0.0
C1148 C 0.12493 0.61675 0.5198 0.0
C1149 C 0.10339 0.61622 0.45489 0.0
C1150 C 0.09245 0.60438 0.47008 0.0
C1151 C 0.1 0.6047 0.49091 0.0
C1152 C 0.0737 0.59069 0.46466 0.0
C1153 C 0.09601 0.61622 0.43228 0.0
C1154 C 0.05428 0.5992 0.45945 0.0
C1155 C 0.03623 0.58607 0.45677 0.0
C1156 C 0.03734 0.56423 0.4592 0.0
C1157 C 0.05702 0.55579 0.4636 0.0
C1158 C 0.07493 0.56886 0.46635 0.0
H1159 H 0.10775 0.62386 0.42184 0.0
H1160 H 0.09269 0.59987 0.4264 0.0
H1161 H 0.08117 0.62482 0.43126 0.0
H1162 H 0.0529 0.61605 0.45837 0.0
H1163 H 0.02128 0.59316 0.45403 0.0
H1164 H 0.79623 0.8609 0.47388 0.0
H1165 H 0.82951 0.87887 0.4649 0.0
H1166 H 0.86362 0.83045 0.49537 0.0
H1167 H 0.8303 0.81192 0.50324 0.0
H1168 H 0.85847 0.89626 0.48802 0.0
H1169 H 0.89591 0.83307 0.44218 0.0
H1170 H 0.86863 0.83137 0.44965 0.0
H1171 H 0.88893 0.82449 0.46793 0.0
C1172 C 0.81089 0.85398 0.47832 0.0
C1173 C 0.81079 0.83485 0.48886 0.0
C1174 C 0.8299 0.86426 0.47326 0.0
C1175 C 0.84923 0.85579 0.47893 0.0
C1176 C 0.84905 0.83696 0.49008 0.0
H1177 H 0.96321 0.92802 0.5008 0.0
H1178 H 0.93053 0.90716 0.50161 0.0
C1179 C 0.83003 0.82651 0.49484 0.0
C1180 C 0.86941 0.86736 0.47431 0.0
H1181 H 0.91891 0.86158 0.45468 0.0
C1182 C 0.87155 0.88866 0.48049 0.0
C1183 C 0.88649 0.85773 0.46408 0.0
C1184 C 0.8848 0.83548 0.45537 0.0
C1185 C 0.89036 0.9003 0.4775 0.0
C1186 C 0.90792 0.89025 0.46874 0.0
C1187 C 0.9056 0.86921 0.46172 0.0
C1188 C 0.92899 0.90112 0.46797 0.0
C1189 C 0.89113 0.92335 0.48375 0.0
C1190 C 0.93982 0.90367 0.4489 0.0
C1191 C 0.95893 0.91541 0.44845 0.0
C1192 C 0.96736 0.92477 0.46705 0.0
C1193 C 0.95693 0.92132 0.48614 0.0
C1194 C 0.93815 0.90946 0.48662 0.0
H1195 H 0.87524 0.93005 0.4832 0.0
H1196 H 0.89709 0.92525 0.50016 0.0
H1197 H 0.90168 0.93255 0.47332 0.0
H1198 H 0.93316 0.89718 0.43431 0.0
H1199 H 0.96656 0.91794 0.43353 0.0
H1200 H 0.33973 0.67897 0.54613 0.0
H1201 H 0.37165 0.66229 0.5579 0.0
H1202 H 0.35913 0.6106 0.51403 0.0
H1203 H 0.32715 0.62741 0.50191 0.0
H1204 H 0.37721 0.62197 0.57516 0.0
H1205 H 0.41967 0.63198 0.49982 0.0
H1206 H 0.39635 0.64615 0.50623 0.0
H1207 H 0.39416 0.61913 0.49743 0.0
C1208 C 0.34379 0.66408 0.5389 0.0
C1209 C 0.33103 0.65465 0.52286 0.0
C1210 C 0.36199 0.65452 0.54574 0.0
C1211 C 0.36797 0.63538 0.53664 0.0
C1212 C 0.35498 0.62556 0.52105 0.0
H1213 H 0.45663 0.54472 0.57163 0.0
H1214 H 0.42596 0.5664 0.56789 0.0
C1215 C 0.33663 0.63508 0.51426 0.0
C1216 C 0.38791 0.62589 0.54338 0.0
H1217 H 0.43603 0.61156 0.52561 0.0
C1218 C 0.39011 0.61977 0.56435 0.0
C1219 C 0.4049 0.62343 0.5294 0.0
C1220 C 0.40384 0.63067 0.507 0.0
C1221 C 0.40856 0.61054 0.57149 0.0
C1222 C 0.4252 0.60729 0.55727 0.0
C1223 C 0.42327 0.61406 0.5365 0.0
C1224 C 0.44394 0.59526 0.563 0.0
C1225 C 0.41011 0.60428 0.59417 0.0
C1226 C 0.46435 0.60433 0.56191 0.0
C1227 C 0.48201 0.59192 0.56426 0.0
C1228 C 0.47946 0.57022 0.56739 0.0
C1229 C 0.45905 0.56144 0.56941 0.0
C1230 C 0.44149 0.57383 0.56731 0.0
H1231 H 0.39889 0.61288 0.60425 0.0
H1232 H 0.40629 0.58721 0.59524 0.0
H1233 H 0.42628 0.60729 0.60046 0.0
H1234 H 0.46658 0.62082 0.55843 0.0
H1235 H 0.49754 0.59898 0.56217 0.0
H1236 H 0.49607 0.66703 0.85032 0.0
H1237 H 0.5026 0.635 0.86948 0.0
H1238 H 0.54703 0.66932 0.90987 0.0
H1239 H 0.54033 0.70155 0.89112 0.0
H1240 H 0.56152 0.62976 0.89291 0.0
H1241 H 0.48296 0.62211 0.93012 0.0
H1242 H 0.48276 0.62519 0.90207 0.0
H1243 H 0.49267 0.64633 0.91896 0.0
C1244 C 0.50697 0.66791 0.8635 0.0
C1245 C 0.51759 0.68699 0.86918 0.0
C1246 C 0.51077 0.64952 0.87437 0.0
C1247 C 0.52522 0.64979 0.89117 0.0
C1248 C 0.53586 0.66874 0.8969 0.0
H1249 H 0.53881 0.5588 0.98813 0.0
H1250 H 0.53574 0.59029 0.9673 0.0
C1251 C 0.53204 0.68716 0.8861 0.0
C1252 C 0.52926 0.63033 0.90279 0.0
H1253 H 0.50606 0.59431 0.93492 0.0
C1254 C 0.54941 0.62197 0.90209 0.0
C1255 C 0.51348 0.62029 0.91486 0.0
C1256 C 0.49178 0.62896 0.91677 0.0
C1257 C 0.55416 0.60376 0.91308 0.0
C1258 C 0.5383 0.59363 0.92499 0.0
C1259 C 0.51818 0.60204 0.9257 0.0
C1260 C 0.5423 0.57474 0.93755 0.0
C1261 C 0.57618 0.59576 0.91227 0.0
C1262 C 0.54729 0.55551 0.92779 0.0
C1263 C 0.54906 0.53738 0.93972 0.0
C1264 C 0.54587 0.53819 0.9616 0.0
C1265 C 0.54141 0.55762 0.97132 0.0
C1266 C 0.53963 0.57565 0.95943 0.0
H1267 H 0.58754 0.60765 0.90607 0.0
H1268 H 0.58152 0.59123 0.92816 0.0
H1269 H 0.57638 0.58157 0.90179 0.0
H1270 H 0.549 0.55432 0.91086 0.0
H1271 H 0.55179 0.52259 0.93166 0.0
H1272 H 0.51887 0.82026 0.87953 0.0
H1273 H 0.51534 0.85509 0.89646 0.0
H1274 H 0.48971 0.87825 0.83874 0.0
H1275 H 0.49285 0.84328 0.82204 0.0
H1276 H 0.53248 0.89335 0.88724 0.0
H1277 H 0.44568 0.8959 0.88036 0.0
H1278 H 0.45976 0.87217 0.87539 0.0
H1279 H 0.45858 0.89188 0.85564 0.0
C1280 C 0.5126 0.83288 0.87051 0.0
C1281 C 0.50623 0.82924 0.84951 0.0
C1282 C 0.51053 0.85274 0.88016 0.0
C1283 C 0.50191 0.86929 0.86903 0.0
C1284 C 0.49592 0.86569 0.84786 0.0
H1285 H 0.48432 1.00166 0.90641 0.0
H1286 H 0.4858 0.96837 0.88622 0.0
C1287 C 0.49791 0.8458 0.83825 0.0
C1288 C 0.49951 0.89032 0.87954 0.0
H1289 H 0.46351 0.92708 0.89298 0.0
C1290 C 0.51738 0.90067 0.8885 0.0
C1291 C 0.47981 0.90001 0.88118 0.0
C1292 C 0.45982 0.88936 0.87282 0.0
C1293 C 0.51612 0.92032 0.89895 0.0
C1294 C 0.49643 0.92989 0.90074 0.0
C1295 C 0.4786 0.91977 0.89153 0.0
C1296 C 0.49402 0.9499 0.91301 0.0
C1297 C 0.53593 0.93079 0.90794 0.0
C1298 C 0.49759 0.95052 0.93483 0.0
C1299 C 0.49636 0.9694 0.94641 0.0
C1300 C 0.49142 0.98818 0.9365 0.0
C1301 C 0.48745 0.98746 0.91467 0.0
C1302 C 0.48857 0.96846 0.90306 0.0
H1303 H 0.55027 0.92405 0.90098 0.0
H1304 H 0.53622 0.94796 0.90522 0.0
H1305 H 0.53647 0.92848 0.92519 0.0
H1306 H 0.50155 0.93637 0.94291 0.0
H1307 H 0.49948 0.9693 0.96319 0.0
H1308 H 0.52601 0.3351 0.70581 0.0
H1309 H 0.5332 0.36978 0.69075 0.0
H1310 H 0.50528 0.34772 0.63188 0.0
H1311 H 0.49842 0.31299 0.64686 0.0
H1312 H 0.54515 0.36779 0.62787 0.0
H1313 H 0.49245 0.41649 0.6769 0.0
H1314 H 0.51018 0.40043 0.69103 0.0
H1315 H 0.48962 0.38819 0.67506 0.0
C1316 C 0.52106 0.33788 0.68979 0.0
C1317 C 0.51117 0.32166 0.67763 0.0
C1318 C 0.52514 0.35766 0.68122 0.0
C1319 C 0.51948 0.36148 0.66028 0.0
C1320 C 0.50959 0.34521 0.64813 0.0
H1321 H 0.52013 0.4553 0.5684 0.0
H1322 H 0.51993 0.42398 0.58947 0.0
C1323 C 0.50549 0.32546 0.65672 0.0
C1324 C 0.52476 0.38203 0.6506 0.0
H1325 H 0.51363 0.43425 0.65226 0.0
C1326 C 0.53833 0.38233 0.63328 0.0
C1327 C 0.51612 0.40108 0.65784 0.0
C1328 C 0.50116 0.40165 0.67613 0.0
C1329 C 0.54309 0.401 0.62272 0.0
C1330 C 0.53375 0.41988 0.62938 0.0
C1331 C 0.52083 0.41979 0.6472 0.0
C1332 C 0.53521 0.43913 0.61658 0.0
C1333 C 0.55794 0.4003 0.60434 0.0
C1334 C 0.5437 0.45832 0.62485 0.0
C1335 C 0.54385 0.47651 0.61271 0.0
C1336 C 0.5352 0.47581 0.59224 0.0
C1337 C 0.52693 0.45648 0.58408 0.0
C1338 C 0.52691 0.43845 0.59608 0.0
H1339 H 0.56874 0.387 0.60548 0.0
H1340 H 0.5487 0.39802 0.58953 0.0
H1341 H 0.56745 0.41517 0.60335 0.0
H1342 H 0.55003 0.45924 0.64073 0.0
H1343 H 0.5501 0.49117 0.61955 0.0
H1344 H 0.46734 0.19474 0.63637 0.0
H1345 H 0.45645 0.16304 0.6158 0.0
H1346 H 0.50334 0.12793 0.64773 0.0
H1347 H 0.51425 0.15939 0.66825 0.0
H1348 H 0.47808 0.13741 0.58878 0.0
H1349 H 0.45026 0.092 0.65685 0.0
H1350 H 0.4558 0.12 0.65853 0.0
H1351 H 0.47681 0.10186 0.66039 0.0
C1352 C 0.47548 0.18032 0.63882 0.0
C1353 C 0.49153 0.17954 0.6541 0.0
C1354 C 0.46913 0.16218 0.62718 0.0
C1355 C 0.47866 0.14296 0.63066 0.0
C1356 C 0.49527 0.14239 0.64527 0.0
H1357 H 0.49468 0.03396 0.55507 0.0
H1358 H 0.49543 0.06732 0.57461 0.0
C1359 C 0.50157 0.16043 0.6569 0.0
C1360 C 0.47177 0.12352 0.61873 0.0
H1361 H 0.45678 0.072 0.62505 0.0
C1362 C 0.47313 0.12321 0.5967 0.0
C1363 C 0.46486 0.10506 0.62899 0.0
C1364 C 0.46161 0.10476 0.65248 0.0
C1365 C 0.46902 0.10463 0.58479 0.0
C1366 C 0.46372 0.08579 0.5952 0.0
C1367 C 0.46109 0.08638 0.6171 0.0
C1368 C 0.46281 0.06512 0.58381 0.0
C1369 C 0.47076 0.10525 0.56114 0.0
C1370 C 0.44435 0.05235 0.58307 0.0
C1371 C 0.44387 0.03305 0.57184 0.0
C1372 C 0.46191 0.02617 0.56144 0.0
C1373 C 0.48042 0.03884 0.56272 0.0
C1374 C 0.48088 0.058 0.57383 0.0
H1375 H 0.46829 0.12131 0.55533 0.0
H1376 H 0.48676 0.10066 0.55646 0.0
H1377 H 0.45916 0.09417 0.55332 0.0
H1378 H 0.43024 0.05752 0.59079 0.0
H1379 H 0.4293 0.02388 0.57075 0.0
H1380 H 0.88067 0.49257 0.68041 0.0
H1381 H 0.90034 0.49841 0.64779 0.0
H1382 H 0.86016 0.54925 0.63281 0.0
H1383 H 0.84062 0.54363 0.66529 0.0
H1384 H 0.882 0.49723 0.60519 0.0
H1385 H 0.92124 0.5742 0.62638 0.0
H1386 H 0.91084 0.5566 0.6459 0.0
H1387 H 0.89342 0.57227 0.63101 0.0
C1388 C 0.87623 0.50516 0.67029 0.0
C1389 C 0.85903 0.51758 0.67541 0.0
C1390 C 0.88739 0.50841 0.65162 0.0
C1391 C 0.88179 0.52435 0.63792 0.0
C1392 C 0.86489 0.537 0.64321 0.0
H1393 H 0.91796 0.53636 0.50538 0.0
H1394 H 0.8978 0.53607 0.53822 0.0
C1395 C 0.85365 0.53365 0.66172 0.0
C1396 C 0.89303 0.52732 0.61771 0.0
H1397 H 0.92444 0.56204 0.59105 0.0
C1398 C 0.89128 0.51139 0.60208 0.0
C1399 C 0.90514 0.54581 0.61371 0.0
C1400 C 0.90798 0.56318 0.63015 0.0
C1401 C 0.90123 0.51348 0.58251 0.0
C1402 C 0.91318 0.53205 0.57842 0.0
C1403 C 0.91505 0.54794 0.59411 0.0
C1404 C 0.92512 0.53451 0.55854 0.0
C1405 C 0.8993 0.49562 0.5665 0.0
C1406 C 0.94714 0.53447 0.5591 0.0
C1407 C 0.95862 0.53479 0.54043 0.0
C1408 C 0.94836 0.53544 0.52078 0.0
C1409 C 0.92633 0.53636 0.52026 0.0
C1410 C 0.91479 0.53589 0.539 0.0
H1411 H 0.89248 0.48105 0.57336 0.0
H1412 H 0.88894 0.5002 0.55338 0.0
H1413 H 0.91492 0.49215 0.55981 0.0
H1414 H 0.95544 0.53346 0.57397 0.0
H1415 H 0.97558 0.53406 0.54137 0.0
H1416 H 0.17769 0.9733 0.66016 0.0
H1417 H 0.15666 0.96565 0.62858 0.0
H1418 H 0.10738 0.00376 0.65336 0.0
H1419 H 0.12893 0.01254 0.68465 0.0
H1420 H 0.11949 0.94661 0.62155 0.0
H1421 H 0.11571 0.0293 0.59676 0.0
H1422 H 0.13277 0.0215 0.61775 0.0
H1423 H 0.1053 0.02532 0.62255 0.0
C1424 C 0.16252 0.98039 0.65883 0.0
C1425 C 0.15527 0.99398 0.67484 0.0
C1426 C 0.15039 0.97577 0.64079 0.0
C1427 C 0.13061 0.98449 0.63827 0.0
C1428 C 0.12285 0.9973 0.65462 0.0
H1429 H 0.03225 0.97162 0.54486 0.0
H1430 H 0.05378 0.9752 0.57677 0.0
C1431 C 0.13509 0.00209 0.67267 0.0
C1432 C 0.11834 0.9802 0.61846 0.0
H1433 H 0.09434 0.0041 0.57754 0.0
C1434 C 0.11411 0.9592 0.61189 0.0
C1435 C 0.1115 0.9966 0.60564 0.0
C1436 C 0.11672 0.01943 0.61089 0.0
C1437 C 0.10285 0.95423 0.59318 0.0
C1438 C 0.09559 0.97063 0.58077 0.0
C1439 C 0.09992 0.99157 0.58717 0.0
C1440 C 0.08257 0.96648 0.56158 0.0
C1441 C 0.09836 0.93152 0.5869 0.0
C1442 C 0.09163 0.96017 0.54243 0.0
C1443 C 0.07934 0.95825 0.524 0.0
C1444 C 0.0578 0.96247 0.5245 0.0
C1445 C 0.04879 0.96823 0.54388 0.0
C1446 C 0.06104 0.97027 0.56217 0.0
H1447 H 0.10385 0.92058 0.59897 0.0
H1448 H 0.08122 0.92872 0.58429 0.0
H1449 H 0.10632 0.92789 0.57182 0.0
H1450 H 0.10832 0.95745 0.54162 0.0
H1451 H 0.08689 0.95453 0.50927 0.0
H1452 H 0.87555 0.48736 0.80414 0.0
H1453 H 0.89262 0.48222 0.83825 0.0
H1454 H 0.84048 0.51075 0.86969 0.0
H1455 H 0.82296 0.5149 0.83551 0.0
H1456 H 0.90676 0.50845 0.86713 0.0
H1457 H 0.84465 0.45886 0.90345 0.0
H1458 H 0.84428 0.46497 0.87588 0.0
H1459 H 0.83501 0.48354 0.89524 0.0
C1460 C 0.86765 0.49223 0.8184 0.0
C1461 C 0.84772 0.50098 0.81733 0.0
C1462 C 0.87742 0.48938 0.83788 0.0
C1463 C 0.86762 0.49553 0.85671 0.0
C1464 C 0.84806 0.50514 0.85554 0.0
H1465 H 0.93508 0.52084 0.97344 0.0
H1466 H 0.91496 0.52183 0.9407 0.0
C1467 C 0.83816 0.50775 0.83602 0.0
C1468 C 0.87836 0.49264 0.87738 0.0
H1469 H 0.87175 0.47282 0.92661 0.0
C1470 C 0.89909 0.50053 0.88005 0.0
C1471 C 0.86862 0.48193 0.89423 0.0
C1472 C 0.847 0.47164 0.89202 0.0
C1473 C 0.91012 0.4985 0.89909 0.0
C1474 C 0.89997 0.48891 0.91633 0.0
C1475 C 0.87945 0.48046 0.91354 0.0
C1476 C 0.91032 0.48809 0.93742 0.0
C1477 C 0.93273 0.50642 0.90036 0.0
C1478 C 0.91341 0.46884 0.94726 0.0
C1479 C 0.9247 0.46826 0.96634 0.0
C1480 C 0.93306 0.48692 0.97582 0.0
C1481 C 0.92909 0.50616 0.96638 0.0
C1482 C 0.91768 0.50675 0.94757 0.0
H1483 H 0.94001 0.50686 0.88454 0.0
H1484 H 0.93334 0.52269 0.90707 0.0
H1485 H 0.94227 0.49643 0.91056 0.0
H1486 H 0.90774 0.45422 0.93983 0.0
H1487 H 0.92771 0.45322 0.97312 0.0
H1488 H 0.20464 0.02423 0.83226 0.0
H1489 H 0.18827 0.03099 0.8666 0.0
H1490 H 0.1277 0.01248 0.84002 0.0
H1491 H 0.14418 0.00535 0.80592 0.0
H1492 H 0.15885 0.05861 0.87787 0.0
H1493 H 0.12778 0.97813 0.89229 0.0
H1494 H 0.1466 0.98364 0.87191 0.0
H1495 H 0.11905 0.9876 0.86748 0.0
C1496 C 0.18789 0.02122 0.83398 0.0
C1497 C 0.17571 0.0137 0.81671 0.0
C1498 C 0.17853 0.02521 0.85352 0.0
C1499 C 0.15677 0.02185 0.85612 0.0
C1500 C 0.14458 0.01459 0.83869 0.0
H1501 H 0.06234 0.0433 0.94903 0.0
H1502 H 0.08352 0.0386 0.91751 0.0
C1503 C 0.15396 0.0105 0.8192 0.0
C1504 C 0.14667 0.02662 0.87677 0.0
H1505 H 0.11383 0.00569 0.91369 0.0
C1506 C 0.1492 0.04696 0.88582 0.0
C1507 C 0.13417 0.01143 0.88732 0.0
C1508 C 0.13191 0.98892 0.87937 0.0
C1509 C 0.13893 0.05269 0.90459 0.0
C1510 C 0.12585 0.03768 0.91463 0.0
C1511 C 0.12373 0.01724 0.90588 0.0
C1512 C 0.11339 0.04295 0.93369 0.0
C1513 C 0.14153 0.07491 0.91321 0.0
C1514 C 0.12312 0.04733 0.95333 0.0
C1515 C 0.11097 0.04997 0.97153 0.0
C1516 C 0.08889 0.04835 0.97037 0.0
C1517 C 0.07929 0.0447 0.95053 0.0
C1518 C 0.09138 0.04198 0.93246 0.0
H1519 H 0.1496 0.08547 0.90195 0.0
H1520 H 0.12598 0.08133 0.9171 0.0
H1521 H 0.15099 0.07496 0.92796 0.0
H1522 H 0.1401 0.0478 0.95473 0.0
H1523 H 0.11888 0.05207 0.98658 0.0
H1524 H 0.65304 0.82863 0.491 0.0
H1525 H 0.62019 0.84697 0.49592 0.0
H1526 H 0.6488 0.88465 0.54632 0.0
H1527 H 0.68192 0.86694 0.54105 0.0
H1528 H 0.59453 0.85022 0.53153 0.0
H1529 H 0.62525 0.92872 0.50778 0.0
H1530 H 0.63931 0.90498 0.50277 0.0
H1531 H 0.63981 0.91716 0.5286 0.0
C1532 C 0.65249 0.84104 0.50292 0.0
C1533 C 0.67028 0.84636 0.51551 0.0
C1534 C 0.63359 0.85136 0.50587 0.0
C1535 C 0.63204 0.86733 0.52136 0.0
C1536 C 0.64967 0.87259 0.53407 0.0
H1537 H 0.51248 0.92417 0.55952 0.0
H1538 H 0.54465 0.90385 0.56021 0.0
C1539 C 0.66858 0.86229 0.53114 0.0
C1540 C 0.61201 0.87854 0.52406 0.0
H1541 H 0.59052 0.92681 0.52046 0.0
C1542 C 0.59363 0.86698 0.52918 0.0
C1543 C 0.61083 0.9004 0.52089 0.0
C1544 C 0.62978 0.91356 0.51453 0.0
C1545 C 0.57411 0.87665 0.53103 0.0
C1546 C 0.57298 0.89852 0.52788 0.0
C1547 C 0.59141 0.91008 0.52302 0.0
C1548 C 0.55267 0.90953 0.52772 0.0
C1549 C 0.55476 0.8633 0.53564 0.0
C1550 C 0.54645 0.9195 0.50937 0.0
C1551 C 0.52818 0.931 0.50901 0.0
C1552 C 0.51554 0.93288 0.52699 0.0
C1553 C 0.52153 0.92261 0.54532 0.0
C1554 C 0.53999 0.91106 0.54571 0.0
H1555 H 0.55757 0.84625 0.53352 0.0
H1556 H 0.55001 0.86625 0.55219 0.0
H1557 H 0.54148 0.86744 0.52526 0.0
H1558 H 0.55589 0.91854 0.49528 0.0
H1559 H 0.52404 0.93862 0.49456 0.0
H1560 H 0.69175 0.20106 0.97676 0.0
H1561 H 0.65699 0.18412 0.9706 0.0
H1562 H 0.67855 0.12749 0.99843 0.0
H1563 H 0.71353 0.14422 0.00386 0.0
H1564 H 0.65723 0.1191 0.96197 0.0
H1565 H 0.61086 0.17237 0.01243 0.0
H1566 H 0.62598 0.18569 0.99278 0.0
H1567 H 0.63919 0.17236 0.01345 0.0
C1568 C 0.68889 0.18511 0.98185 0.0
C1569 C 0.70506 0.17415 0.9914 0.0
C1570 C 0.66903 0.17545 0.97839 0.0
C1571 C 0.66493 0.15464 0.98445 0.0
C1572 C 0.68121 0.14363 0.99383 0.0
H1573 H 0.54791 0.08738 0.00272 0.0
H1574 H 0.58051 0.10862 0.0047 0.0
C1575 C 0.70111 0.15326 0.9972 0.0
C1576 C 0.64395 0.14409 0.98042 0.0
H1577 H 0.59159 0.14733 0.9912 0.0
C1578 C 0.64287 0.12529 0.96834 0.0
C1579 C 0.62518 0.15208 0.9888 0.0
C1580 C 0.6253 0.17162 0.00275 0.0
C1581 C 0.62366 0.11419 0.96459 0.0
C1582 C 0.60486 0.12231 0.97278 0.0
C1583 C 0.60592 0.14122 0.98468 0.0
C1584 C 0.58427 0.11046 0.97097 0.0
C1585 C 0.62382 0.09345 0.95258 0.0
C1586 C 0.57517 0.10463 0.95132 0.0
C1587 C 0.55646 0.09227 0.95018 0.0
C1588 C 0.54641 0.08584 0.96863 0.0
C1589 C 0.55527 0.09217 0.9882 0.0
C1590 C 0.57389 0.10438 0.98936 0.0
H1591 H 0.63988 0.08719 0.95157 0.0
H1592 H 0.61337 0.08155 0.96008 0.0
H1593 H 0.61801 0.09565 0.93631 0.0
H1594 H 0.58272 0.10929 0.93688 0.0
H1595 H 0.55046 0.0869 0.93499 0.0
H1596 H 0.34368 0.33085 0.00662 0.0
H1597 H 0.37793 0.34966 0.00479 0.0
H1598 H 0.34736 0.40401 0.98137 0.0
H1599 H 0.31313 0.38554 0.98422 0.0
H1600 H 0.39953 0.36551 0.97274 0.0
H1601 H 0.38145 0.43073 0.02818 0.0
H1602 H 0.36441 0.4077 0.02486 0.0
H1603 H 0.36332 0.42872 0.00645 0.0
C1604 C 0.34436 0.34689 1.00129 0.0
C1605 C 0.32585 0.35677 0.9955 0.0
C1606 C 0.3639 0.3576 1.00013 0.0
C1607 C 0.36531 0.37841 0.99318 0.0
C1608 C 0.34675 0.38818 0.98725 0.0
H1609 H 0.48436 0.44263 0.95658 0.0
H1610 H 0.45091 0.42215 0.95549 0.0
C1611 C 0.32721 0.37759 0.98869 0.0
C1612 C 0.38615 0.38981 0.99209 0.0
H1613 H 0.41279 0.43478 0.00851 0.0
C1614 C 0.40247 0.38062 0.98064 0.0
C1615 C 0.39015 0.40945 0.00256 0.0
C1616 C 0.37398 0.41963 0.01638 0.0
C1617 C 0.42255 0.3905 0.97936 0.0
C1618 C 0.42633 0.41043 0.98933 0.0
C1619 C 0.40996 0.4196 1.0007 0.0
C1620 C 0.44733 0.42167 0.98939 0.0
C1621 C 0.43965 0.37915 0.96788 0.0
C1622 C 0.45645 0.42852 0.00865 0.0
C1623 C 0.47525 0.44045 0.0092 0.0
C1624 C 0.48566 0.44563 0.99052 0.0
C1625 C 0.47692 0.43842 0.9712 0.0
C1626 C 0.4578 0.4267 0.97061 0.0
H1627 H 0.43602 0.36198 0.9664 0.0
H1628 H 0.44111 0.38532 0.95176 0.0
H1629 H 0.45505 0.38159 0.97606 0.0
H1630 H 0.44884 0.42487 0.02338 0.0
H1631 H 0.48163 0.44572 0.02435 0.0
H1632 H 0.85898 0.18745 0.03176 0.0
H1633 H 0.89142 0.16948 0.03953 0.0
H1634 H 0.87519 0.12191 0.99222 0.0
H1635 H 0.8426 0.13995 0.98423 0.0
H1636 H 0.897 0.12611 0.0519 0.0
H1637 H 0.9352 0.14588 0.97617 0.0
H1638 H 0.91284 0.15963 0.98615 0.0
H1639 H 0.90924 0.13392 0.97419 0.0
C1640 C 0.86232 0.17317 0.02296 0.0
C1641 C 0.84833 0.16524 0.0072 0.0
C1642 C 0.88081 0.16288 0.0275 0.0
C1643 C 0.88584 0.14453 0.01627 0.0
C1644 C 0.8717 0.13621 1.00089 0.0
H1645 H 0.97864 0.05211 0.03458 0.0
H1646 H 0.94689 0.07261 0.03324 0.0
C1647 C 0.85304 0.14643 0.99645 0.0
C1648 C 0.90607 0.13437 0.02052 0.0
H1649 H 0.95338 0.12329 0.9985 0.0
C1650 C 0.90935 0.12552 0.04026 0.0
C1651 C 0.9223 0.13396 0.00544 0.0
C1652 C 0.91991 0.14398 0.98433 0.0
C1653 C 0.92822 0.1157 0.04506 0.0
C1654 C 0.94417 0.11472 0.02974 0.0
C1655 C 0.94112 0.12408 0.01023 0.0
C1656 C 0.96352 0.10277 0.03304 0.0
C1657 C 0.931 0.10641 0.06647 0.0
C1658 C 0.98346 0.11294 0.03358 0.0
C1659 C 1.00172 0.10121 0.03452 0.0
C1660 C 1.00026 0.07914 0.03463 0.0
C1661 C 0.98025 0.06911 0.03462 0.0
C1662 C 0.96208 0.0808 0.03392 0.0
H1663 H 0.9196 0.11264 0.07801 0.0
H1664 H 0.92846 0.0891 0.06515 0.0
H1665 H 0.94719 0.10969 0.07258 0.0
H1666 H 0.98489 0.1299 0.03276 0.0
H1667 H 0.01693 0.10933 0.03413 0.0
H1668 H 0.0346 0.18628 0.23446 0.0
H1669 H 0.03607 0.16832 0.20008 0.0
H1670 H 0.98955 0.20964 0.17608 0.0
H1671 H 0.99002 0.22908 0.20977 0.0
H1672 H 0.01073 0.14614 0.1788 0.0
H1673 H 0.02816 0.21486 0.12938 0.0
H1674 H 0.02836 0.21692 0.15765 0.0
H1675 H 0.0039 0.21733 0.14314 0.0
C1676 C 0.02525 0.19193 0.22159 0.0
C1677 C 0.01272 0.20948 0.22457 0.0
C1678 C 0.02581 0.18147 0.20199 0.0
C1679 C 0.01329 0.18783 0.18507 0.0
C1680 C 1.00007 0.20486 0.18838 0.0
H1681 H 0.01739 0.09499 0.07879 0.0
H1682 H 1.00053 0.1171 0.10553 0.0
C1683 C 1.00014 0.21584 0.20776 0.0
C1684 C 0.01393 0.17627 0.16429 0.0
H1685 H 0.02052 0.18264 0.11146 0.0
C1686 C 0.013 0.15416 0.16409 0.0
C1687 C 0.01675 0.18662 0.14494 0.0
C1688 C 0.01956 0.21021 0.14378 0.0
C1689 C 0.01601 0.14218 0.14553 0.0
C1690 C 0.01871 0.15252 0.12615 0.0
C1691 C 0.01834 0.1746 0.12618 0.0
C1692 C 0.02541 0.14123 0.1065 0.0
C1693 C 0.01766 0.11867 0.14733 0.0
C1694 C 0.04368 0.14845 0.09635 0.0
C1695 C 0.05266 0.13643 0.0804 0.0
C1696 C 0.04395 0.11657 0.07443 0.0
C1697 C 0.02455 0.11018 0.08304 0.0
C1698 C 0.01516 0.12262 0.09872 0.0
H1699 H 0.02015 0.114 0.16387 0.0
H1700 H 0.00284 0.11079 0.14158 0.0
H1701 H 0.03087 0.11277 0.1378 0.0
H1702 H 0.0519 0.1628 0.10167 0.0
H1703 H 0.06745 0.14202 0.07391 0.0
H1704 H 0.98378 0.29309 0.19719 0.0
H1705 H 0.98511 0.31345 0.16505 0.0
H1706 H 0.02263 0.36197 0.19737 0.0
H1707 H 0.02136 0.34171 0.2296 0.0
H1708 H 0.97083 0.35292 0.15893 0.0
H1709 H 0.0566 0.35183 0.14409 0.0
H1710 H 0.04367 0.33453 0.1624 0.0
H1711 H 0.04985 0.36145 0.16989 0.0
C1712 C 0.99218 0.30817 0.19752 0.0
C1713 C 0.00248 0.31577 0.21596 0.0
C1714 C 0.99309 0.3197 0.17908 0.0
C1715 C 0.00435 0.33902 0.17867 0.0
C1716 C 0.01437 0.34682 0.19714 0.0
H1717 H 0.00225 0.44005 0.09153 0.0
H1718 H 0.01421 0.41681 0.11904 0.0
C1719 C 0.01352 0.33528 0.21558 0.0
C1720 C 0.00455 0.35148 0.15923 0.0
H1721 H 0.03669 0.37438 0.12276 0.0
C1722 C 0.98522 0.35746 0.15096 0.0
C1723 C 0.02339 0.35749 0.14889 0.0
C1724 C 0.04456 0.35086 0.15663 0.0
C1725 C 0.98418 0.3695 0.13284 0.0
C1726 C 0.00296 0.37548 0.12247 0.0
C1727 C 0.02235 0.36963 0.13071 0.0
C1728 C 0.00228 0.38829 0.10336 0.0
C1729 C 0.96294 0.37607 0.1251 0.0
C1730 C 0.99303 0.37975 0.08483 0.0
C1731 C 0.98627 0.39298 0.0691 0.0
C1732 C 0.98889 0.41488 0.07162 0.0
C1733 C 1.00046 0.42319 0.08899 0.0
C1734 C 0.00713 0.40994 0.10481 0.0
H1735 H 0.95049 0.37357 0.13702 0.0
H1736 H 0.96348 0.39291 0.12091 0.0
H1737 H 0.95846 0.36667 0.11073 0.0
H1738 H 0.98924 0.36305 0.08342 0.0
H1739 H 0.97713 0.38624 0.056 0.0
H1740 H 0.00501 0.76604 0.28978 0.0
H1741 H 1.00177 0.78362 0.32457 0.0
H1742 H 0.99391 0.84287 0.29444 0.0
H1743 H 0.99738 0.82537 0.25981 0.0
H1744 H 0.02766 0.82032 0.34043 0.0
H1745 H 0.94246 0.83599 0.33553 0.0
H1746 H 0.9546 0.8159 0.31961 0.0
H1747 H 0.95775 0.84305 0.31293 0.0
C1748 C 0.00274 0.78283 0.29074 0.0
C1749 C 1.0014 0.79446 0.27235 0.0
C1750 C 1.00076 0.7928 0.31049 0.0
C1751 C 0.99715 0.81444 0.312 0.0
C1752 C 0.99625 0.82609 0.29357 0.0
H1753 H 0.99484 0.9151 0.40159 0.0
H1754 H 0.98499 0.89001 0.37315 0.0
C1755 C 0.99842 0.81618 0.27389 0.0
C1756 C 0.99528 0.82518 0.33281 0.0
H1757 H 0.96185 0.85343 0.36341 0.0
C1758 C 0.01322 0.8273 0.34566 0.0
C1759 C 0.97643 0.8344 0.33939 0.0
C1760 C 0.95662 0.83215 0.32626 0.0
C1761 C 0.01313 0.83918 0.36455 0.0
C1762 C 0.99429 0.84859 0.37116 0.0
C1763 C 0.97618 0.84605 0.35848 0.0
C1764 C 0.99389 0.8626 0.39021 0.0
C1765 C 0.03357 0.84245 0.37661 0.0
C1766 C 1.00034 0.85538 0.40986 0.0
C1767 C 0.00616 0.86973 0.42602 0.0
C1768 C 0.00499 0.89143 0.42295 0.0
C1769 C 0.9956 0.89843 0.40445 0.0
C1770 C 0.99017 0.88409 0.3881 0.0
H1771 H 0.04736 0.83843 0.36687 0.0
H1772 H 0.03568 0.85902 0.38231 0.0
H1773 H 0.03344 0.83218 0.39046 0.0
H1774 H 0.00274 0.83881 0.41203 0.0
H1775 H 0.0135 0.86399 0.44011 0.0
H1776 H 0.02561 0.66974 0.25542 0.0
H1777 H 0.03035 0.6485 0.28665 0.0
H1778 H 0.98581 0.68593 0.32033 0.0
H1779 H 0.98117 0.70743 0.28924 0.0
H1780 H 0.02694 0.67942 0.34164 0.0
H1781 H 0.98659 0.60547 0.31185 0.0
H1782 H 0.00582 0.6177 0.29508 0.0
H1783 H 0.98182 0.63067 0.3006 0.0
C1784 C 0.01672 0.67335 0.26944 0.0
C1785 C 0.00296 0.69023 0.26985 0.0
C1786 C 0.01941 0.66117 0.28723 0.0
C1787 C 0.00842 0.66565 0.30576 0.0
C1788 C 0.99444 0.68225 0.30615 0.0
H1789 H 0.98159 0.62558 0.42632 0.0
H1790 H 0.99502 0.64625 0.39739 0.0
C1791 C 0.99163 0.69436 0.28832 0.0
C1792 C 0.0117 0.65327 0.32491 0.0
H1793 H 1.00046 0.60556 0.34613 0.0
C1794 C 0.02133 0.6632 0.34261 0.0
C1795 C 0.00469 0.63204 0.32599 0.0
C1796 C 0.99403 0.62075 0.30746 0.0
C1797 C 0.02357 0.65262 0.36162 0.0
C1798 C 0.01553 0.63173 0.36307 0.0
C1799 C 0.00677 0.62152 0.34503 0.0
C1800 C 0.01301 0.6212 0.38358 0.0
C1801 C 0.03428 0.66403 0.38002 0.0
C1802 C 0.01942 0.60047 0.38616 0.0
C1803 C 0.01175 0.58858 0.40291 0.0
C1804 C 0.9973 0.59721 0.417 0.0
C1805 C 0.9928 0.6186 0.41571 0.0
C1806 C 1.00053 0.63046 0.39913 0.0
H1807 H 0.0463 0.67567 0.37456 0.0
H1808 H 0.02243 0.67278 0.38912 0.0
H1809 H 0.04194 0.65297 0.39067 0.0
H1810 H 0.02901 0.59298 0.37433 0.0
H1811 H 0.01529 0.57207 0.40343 0.0
H1812 H 0.24562 0.02927 0.18098 0.0
H1813 H 0.21268 0.02708 0.16094 0.0
H1814 H 0.19022 0.97669 0.20005 0.0
H1815 H 0.22227 0.98059 0.2215 0.0
H1816 H 0.19677 0.99872 0.13728 0.0
H1817 H 0.13944 0.00924 0.20166 0.0
H1818 H 0.16729 0.01302 0.20592 0.0
H1819 H 0.15541 0.98691 0.20502 0.0
C1820 C 0.2333 0.01828 0.18572 0.0
C1821 C 0.23618 0.00554 0.20313 0.0
C1822 C 0.21459 0.01676 0.17408 0.0
C1823 C 0.19862 0.00195 0.17912 0.0
C1824 C 0.20179 0.98879 0.19622 0.0
H1825 H 0.10366 0.00329 0.07719 0.0
H1826 H 0.12628 0.9849 0.10176 0.0
C1827 C 0.2202 0.99087 0.20836 0.0
C1828 C 0.17909 1.00015 0.16598 0.0
H1829 H 0.12555 0.00195 0.16782 0.0
C1830 C 0.18118 0.99947 0.14398 0.0
C1831 C 0.15866 1.00077 0.17467 0.0
C1832 C 0.15503 0.00272 0.19809 0.0
C1833 C 0.16379 1.00117 0.13047 0.0
C1834 C 0.14337 0.00223 0.13916 0.0
C1835 C 0.14113 1.00107 0.16111 0.0
C1836 C 0.12501 0.00891 0.1265 0.0
C1837 C 0.16785 0.0035 0.10724 0.0
C1838 C 0.11471 0.02703 0.13314 0.0
C1839 C 0.10113 0.03689 0.1196 0.0
C1840 C 0.09781 0.02913 0.09892 0.0
C1841 C 0.10604 0.00967 0.09302 0.0
C1842 C 0.11932 0.99941 0.10691 0.0
H1843 H 0.1848 0.00639 0.10388 0.0
H1844 H 0.1627 0.98882 0.09865 0.0
H1845 H 0.15905 0.01674 0.10089 0.0
H1846 H 0.11845 0.03464 0.1482 0.0
H1847 H 0.09474 0.05173 0.1247 0.0
H1848 H 0.76855 0.52419 0.18266 0.0
H1849 H 0.79951 0.52894 0.16034 0.0
H1850 H 0.83092 0.48101 0.19415 0.0
H1851 H 0.80006 0.47624 0.21665 0.0
H1852 H 0.85435 0.52335 0.18755 0.0
H1853 H 0.82054 0.48396 0.11507 0.0
H1854 H 0.80486 0.50276 0.12893 0.0
H1855 H 0.81059 0.47841 0.14097 0.0
C1856 C 0.78203 0.51461 0.1853 0.0
C1857 C 0.78184 0.49979 0.20138 0.0
C1858 C 0.79966 0.51733 0.17252 0.0
C1859 C 0.81746 0.50533 0.17564 0.0
C1860 C 0.81731 0.49042 0.19154 0.0
H1861 H 0.93773 0.48228 0.1277 0.0
H1862 H 0.90937 0.49342 0.15047 0.0
C1863 C 0.79961 0.48757 0.20422 0.0
C1864 C 0.83628 0.50833 0.16232 0.0
H1865 H 0.85524 0.49723 0.11341 0.0
C1866 C 0.85457 0.5178 0.17128 0.0
C1867 C 0.83637 0.50135 0.14106 0.0
C1868 C 0.81713 0.49094 0.13082 0.0
C1869 C 0.87314 0.5201 0.15959 0.0
C1870 C 0.87355 0.51223 0.13857 0.0
C1871 C 0.85498 0.50341 0.12946 0.0
C1872 C 0.89338 0.51059 0.12645 0.0
C1873 C 0.8921 0.53093 0.16993 0.0
C1874 C 0.8944 0.5171 0.10547 0.0
C1875 C 0.91066 0.51059 0.09235 0.0
C1876 C 0.92616 0.49751 0.10004 0.0
C1877 C 0.9262 0.49271 0.1215 0.0
C1878 C 0.90994 0.49911 0.13455 0.0
H1879 H 0.88732 0.5428 0.18192 0.0
H1880 H 0.90138 0.51911 0.17814 0.0
H1881 H 0.90233 0.53882 0.15823 0.0
H1882 H 0.88176 0.52587 0.09881 0.0
H1883 H 0.90989 0.514 0.07575 0.0
H1884 H 0.23414 0.00671 0.33567 0.0
H1885 H 0.20044 0.00558 0.354 0.0
H1886 H 0.17164 0.97241 0.30069 0.0
H1887 H 0.20533 0.97329 0.28238 0.0
H1888 H 0.16268 0.02211 0.34288 0.0
H1889 H 0.15427 0.93547 0.34886 0.0
H1890 H 0.17865 0.94849 0.34162 0.0
H1891 H 0.15799 0.94398 0.3224 0.0
C1892 C 0.22065 0.99905 0.32792 0.0
C1893 C 0.22243 0.98993 0.30764 0.0
C1894 C 0.2014 0.99846 0.33839 0.0
C1895 C 0.18355 0.98873 0.32882 0.0
C1896 C 0.18529 0.9796 0.30858 0.0
H1897 H 0.05676 0.96192 0.3698 0.0
H1898 H 0.08628 0.97268 0.34765 0.0
C1899 C 0.20457 0.98006 0.29815 0.0
C1900 C 0.16309 0.98833 0.33994 0.0
H1901 H 0.12469 0.95509 0.35831 0.0
C1902 C 0.15436 0.00746 0.34629 0.0
C1903 C 0.1523 0.96921 0.34446 0.0
C1904 C 0.16135 0.94812 0.33918 0.0
C1905 C 0.13498 0.00796 0.35678 0.0
C1906 C 0.12416 0.98885 0.36109 0.0
C1907 C 0.13289 0.96976 0.35473 0.0
C1908 C 0.10425 0.98787 0.37308 0.0
C1909 C 0.12612 0.02888 0.36297 0.0
C1910 C 0.10407 0.99384 0.3945 0.0
C1911 C 0.08709 0.98785 0.40716 0.0
C1912 C 0.07011 0.97578 0.39854 0.0
C1913 C 0.0695 0.97151 0.37675 0.0
C1914 C 0.08642 0.97751 0.36412 0.0
H1915 H 0.13353 0.04195 0.35409 0.0
H1916 H 0.10885 0.02873 0.36027 0.0
H1917 H 0.12912 0.03204 0.38 0.0
H1918 H 0.1178 1.0015 0.40183 0.0
H1919 H 0.08821 0.99086 0.42399 0.0
H1920 H 0.79804 0.50188 0.28055 0.0
H1921 H 0.83199 0.49963 0.29897 0.0
H1922 H 0.79975 0.47861 0.35454 0.0
H1923 H 0.76592 0.48162 0.33635 0.0
H1924 H 0.82831 0.5082 0.36419 0.0
H1925 H 0.86536 0.44897 0.31255 0.0
H1926 H 0.857 0.4713 0.29841 0.0
H1927 H 0.83776 0.45444 0.3108 0.0
C1928 C 0.79836 0.49676 0.29668 0.0
C1929 C 0.77958 0.49165 0.30704 0.0
C1930 C 0.81769 0.49522 0.30711 0.0
C1931 C 0.81849 0.48835 0.32797 0.0
C1932 C 0.79958 0.48365 0.33838 0.0
H1933 H 0.9212 0.49026 0.4202 0.0
H1934 H 0.89116 0.47504 0.4 0.0
C1935 C 0.78031 0.48538 0.32804 0.0
C1936 C 0.83885 0.48743 0.3395 0.0
H1937 H 0.88831 0.46807 0.33699 0.0
C1938 C 0.84129 0.49912 0.35841 0.0
C1939 C 0.85581 0.47556 0.33198 0.0
C1940 C 0.85382 0.46169 0.31243 0.0
C1941 C 0.86041 0.49999 0.36955 0.0
C1942 C 0.87756 0.48865 0.36172 0.0
C1943 C 0.87507 0.47657 0.34305 0.0
C1944 C 0.8987 0.49151 0.37151 0.0
C1945 C 0.86241 0.51385 0.38915 0.0
C1946 C 0.91374 0.50434 0.36159 0.0
C1947 C 0.93083 0.51299 0.37305 0.0
C1948 C 0.93317 0.50884 0.39455 0.0
C1949 C 0.91978 0.49367 0.40363 0.0
C1950 C 0.90252 0.48511 0.39216 0.0
H1951 H 0.84859 0.52386 0.3914 0.0
H1952 H 0.86385 0.50387 0.40313 0.0
H1953 H 0.87676 0.52421 0.38847 0.0
H1954 H 0.91114 0.50937 0.34564 0.0
H1955 H 0.941 0.52459 0.36568 0.0
H1956 H 0.18628 0.25633 0.99012 0.0
H1957 H 0.16848 0.22142 0.98845 0.0
H1958 H 0.22693 0.19286 0.00411 0.0
H1959 H 0.24464 0.22778 0.00586 0.0
H1960 H 0.1783 0.18474 0.96264 0.0
H1961 H 0.18482 0.17113 0.0485 0.0
H1962 H 0.18853 0.19685 0.03751 0.0
H1963 H 0.20906 0.17821 0.03579 0.0
C1964 C 0.19519 0.24253 0.9933 0.0
C1965 C 0.2167 0.24454 0.99822 0.0
C1966 C 0.18511 0.22267 0.99221 0.0
C1967 C 0.19637 0.20458 0.99622 0.0
C1968 C 0.21791 0.20663 1.00116 0.0
H1969 H 0.15477 0.07774 0.02048 0.0
H1970 H 0.17723 0.10644 0.00768 0.0
C1971 C 0.22799 0.22649 0.0022 0.0
C1972 C 0.18548 0.1836 0.99577 0.0
H1973 H 0.17099 0.14317 0.02729 0.0
C1974 C 0.17673 0.17556 0.97673 0.0
C1975 C 0.18344 0.17172 0.01417 0.0
C1976 C 0.19178 0.17992 0.03521 0.0
C1977 C 0.16614 0.15578 0.9756 0.0
C1978 C 0.16399 0.14396 0.99407 0.0
C1979 C 0.17286 0.15206 0.01304 0.0
C1980 C 0.15161 0.12376 0.99483 0.0
C1981 C 0.15756 0.14766 0.95466 0.0
C1982 C 0.12993 0.12307 0.99034 0.0
C1983 C 0.11711 0.10631 0.99719 0.0
C1984 C 0.1258 0.09036 0.00903 0.0
C1985 C 0.14773 0.08983 0.01129 0.0
C1986 C 0.16055 0.10634 0.00415 0.0
H1987 H 0.16614 0.15492 0.94137 0.0
H1988 H 0.15853 0.13031 0.95316 0.0
H1989 H 0.14081 0.15175 0.95327 0.0
H1990 H 0.12257 0.13641 0.98347 0.0
H1991 H 0.10022 0.10723 0.99554 0.0
H1992 H 0.16106 0.75888 0.52053 0.0
H1993 H 0.14008 0.79035 0.52375 0.0
H1994 H 0.18053 0.82181 0.47953 0.0
H1995 H 0.20186 0.79056 0.47654 0.0
H1996 H 0.17241 0.84543 0.51826 0.0
H1997 H 0.09929 0.81311 0.47919 0.0
H1998 H 0.11001 0.7979 0.49994 0.0
H1999 H 0.12435 0.80099 0.47595 0.0
C2000 C 0.16542 0.77246 0.5114 0.0
C2001 C 0.18309 0.7722 0.49822 0.0
C2002 C 0.15337 0.79039 0.5132 0.0
C2003 C 0.15872 0.80837 0.50183 0.0
C2004 C 0.17614 0.80807 0.48843 0.0
H2005 H 0.11979 0.92646 0.46839 0.0
H2006 H 0.14004 0.89845 0.48298 0.0
C2007 C 0.18816 0.79013 0.48656 0.0
C2008 C 0.1464 0.82766 0.50407 0.0
H2009 H 0.09906 0.84801 0.49184 0.0
C2010 C 0.1563 0.84599 0.51266 0.0
C2011 C 0.12532 0.82825 0.49705 0.0
C2012 C 0.11406 0.8091 0.48738 0.0
C2013 C 0.14585 0.86508 0.51382 0.0
C2014 C 0.12511 0.86594 0.50582 0.0
C2015 C 0.11491 0.84736 0.49813 0.0
C2016 C 0.11478 0.88615 0.50222 0.0
C2017 C 0.15723 0.88421 0.52335 0.0
C2018 C 0.09405 0.88926 0.50887 0.0
C2019 C 0.0824 0.90546 0.50052 0.0
C2020 C 0.09126 0.91845 0.48515 0.0
C2021 C 0.11262 0.91668 0.48026 0.0
C2022 C 0.12425 0.90065 0.48866 0.0
H2023 H 0.16876 0.87969 0.53552 0.0
H2024 H 0.16609 0.89245 0.51085 0.0
H2025 H 0.14613 0.89532 0.53059 0.0
H2026 H 0.08641 0.87823 0.51929 0.0
H2027 H 0.06591 0.90637 0.50443 0.0
H2028 H 0.83732 0.72942 0.51892 0.0
H2029 H 0.85859 0.698 0.5188 0.0
H2030 H 0.8093 0.6632 0.48498 0.0
H2031 H 0.78795 0.69442 0.48505 0.0
H2032 H 0.85047 0.6568 0.5342 0.0
H2033 H 0.8609 0.65625 0.4476 0.0
H2034 H 0.85129 0.67867 0.46204 0.0
H2035 H 0.8339 0.6566 0.45548 0.0
C2036 C 0.83096 0.71504 0.51155 0.0
C2037 C 0.81102 0.71451 0.50176 0.0
C2038 C 0.84314 0.69711 0.51151 0.0
C2039 C 0.83564 0.67834 0.50167 0.0
C2040 C 0.81556 0.67763 0.49233 0.0
H2041 H 0.8829 0.559 0.46631 0.0
H2042 H 0.8601 0.58596 0.48036 0.0
C2043 C 0.80342 0.69553 0.49228 0.0
C2044 C 0.84896 0.65964 0.50051 0.0
H2045 H 0.87158 0.62609 0.46539 0.0
C2046 C 0.85519 0.65009 0.51919 0.0
C2047 C 0.85528 0.65106 0.48092 0.0
C2048 C 0.8502 0.66127 0.46037 0.0
C2049 C 0.867 0.63174 0.51869 0.0
C2050 C 0.87275 0.62289 0.49904 0.0
C2051 C 0.86687 0.63272 0.48046 0.0
C2052 C 0.88504 0.60353 0.49689 0.0
C2053 C 0.87285 0.62167 0.53904 0.0
C2054 C 0.90638 0.60365 0.50277 0.0
C2055 C 0.91943 0.58795 0.495 0.0
C2056 C 0.91128 0.57226 0.481 0.0
C2057 C 0.88953 0.57091 0.47713 0.0
C2058 C 0.87651 0.58638 0.48505 0.0
H2059 H 0.86379 0.62796 0.55255 0.0
H2060 H 0.87012 0.60436 0.53783 0.0
H2061 H 0.88982 0.6248 0.54232 0.0
H2062 H 0.91335 0.61685 0.51168 0.0
H2063 H 0.9362 0.58948 0.49797 0.0
H2064 H 0.31707 0.76331 0.51299 0.0
H2065 H 0.33761 0.79623 0.50872 0.0
H2066 H 0.28208 0.82625 0.48674 0.0
H2067 H 0.26147 0.79314 0.49094 0.0
H2068 H 0.33756 0.82074 0.46558 0.0
H2069 H 0.31218 0.8639 0.53799 0.0
H2070 H 0.31237 0.83553 0.53694 0.0
H2071 H 0.29319 0.84894 0.52202 0.0
C2072 C 0.30923 0.7771 0.50768 0.0
C2073 C 0.2877 0.776 0.50272 0.0
C2074 C 0.32095 0.79576 0.50505 0.0
C2075 C 0.31132 0.81359 0.49743 0.0
C2076 C 0.28972 0.81264 0.49273 0.0
H2077 H 0.38005 0.93399 0.50628 0.0
H2078 H 0.35162 0.90985 0.49388 0.0
C2079 C 0.27798 0.79388 0.49526 0.0
C2080 C 0.32418 0.833 0.49418 0.0
H2081 H 0.33975 0.87914 0.51872 0.0
C2082 C 0.33785 0.83372 0.47698 0.0
C2083 C 0.32427 0.84993 0.50891 0.0
C2084 C 0.30978 0.84974 0.52758 0.0
C2085 C 0.3523 0.85065 0.47461 0.0
C2086 C 0.35344 0.86696 0.49016 0.0
C2087 C 0.3389 0.86672 0.50673 0.0
C2088 C 0.3712 0.88274 0.49139 0.0
C2089 C 0.36643 0.85067 0.45567 0.0
C2090 C 0.39187 0.87584 0.49306 0.0
C2091 C 0.40814 0.88974 0.49968 0.0
C2092 C 0.40408 0.91077 0.5048 0.0
C2093 C 0.3838 0.91812 0.50152 0.0
C2094 C 0.36746 0.9042 0.49481 0.0
H2095 H 0.35846 0.84269 0.4419 0.0
H2096 H 0.3713 0.86689 0.45131 0.0
H2097 H 0.38071 0.84184 0.45924 0.0
H2098 H 0.39515 0.85933 0.49111 0.0
H2099 H 0.42354 0.8836 0.50267 0.0
H2100 H 0.49848 0.68215 0.76342 0.0
H2101 H 0.49651 0.65971 0.73133 0.0
H2102 H 0.50731 0.71438 0.69358 0.0
H2103 H 0.50962 0.73668 0.7257 0.0
H2104 H 0.46974 0.66044 0.69573 0.0
H2105 H 0.55323 0.67523 0.67427 0.0
H2106 H 0.54315 0.68211 0.69989 0.0
H2107 H 0.53855 0.69863 0.67788 0.0
C2108 C 0.50053 0.68924 0.74822 0.0
C2109 C 0.50439 0.71099 0.74686 0.0
C2110 C 0.49927 0.6765 0.72994 0.0
C2111 C 0.50195 0.68532 0.71004 0.0
C2112 C 0.50553 0.70716 0.70875 0.0
H2113 H 0.52344 0.6291 0.58779 0.0
H2114 H 0.50908 0.6535 0.61379 0.0
C2115 C 0.50684 0.71988 0.72703 0.0
C2116 C 0.50158 0.67162 0.69072 0.0
H2117 H 0.53209 0.65571 0.64978 0.0
C2118 C 0.48334 0.65943 0.68562 0.0
C2119 C 0.51934 0.67024 0.67757 0.0
C2120 C 0.53975 0.68208 0.68272 0.0
C2121 C 0.48236 0.64604 0.66761 0.0
C2122 C 0.50016 0.64466 0.65452 0.0
C2123 C 0.5183 0.65698 0.65961 0.0
C2124 C 0.50129 0.62957 0.6363 0.0
C2125 C 0.46227 0.63364 0.66268 0.0
C2126 C 0.50009 0.60779 0.63951 0.0
C2127 C 0.50785 0.59375 0.62434 0.0
C2128 C 0.5172 0.60136 0.60597 0.0
C2129 C 0.51597 0.62281 0.60166 0.0
C2130 C 0.50802 0.6368 0.61667 0.0
H2131 H 0.4485 0.6411 0.67001 0.0
H2132 H 0.45953 0.63202 0.64542 0.0
H2133 H 0.4634 0.61765 0.66909 0.0
H2134 H 0.49529 0.60179 0.65459 0.0
H2135 H 0.50909 0.57737 0.62826 0.0
H2136 H 0.52899 0.8421 0.73989 0.0
H2137 H 0.52799 0.86318 0.70826 0.0
H2138 H 0.47162 0.82923 0.68743 0.0
H2139 H 0.4727 0.80772 0.71881 0.0
H2140 H 0.52714 0.84856 0.6638 0.0
H2141 H 0.45712 0.89289 0.68807 0.0
H2142 H 0.47265 0.87868 0.7065 0.0
H2143 H 0.45426 0.86476 0.68924 0.0
C2144 C 0.51645 0.83898 0.72852 0.0
C2145 C 0.50089 0.82321 0.73193 0.0
C2146 C 0.51591 0.85107 0.71048 0.0
C2147 C 0.49972 0.84778 0.69559 0.0
C2148 C 0.48415 0.83212 0.69888 0.0
H2149 H 0.47812 0.89073 0.57039 0.0
H2150 H 0.49163 0.87073 0.59982 0.0
C2151 C 0.4847 0.81995 0.71689 0.0
C2152 C 0.49885 0.86104 0.67681 0.0
H2153 H 0.46937 0.89779 0.65348 0.0
C2154 C 0.51459 0.85942 0.66152 0.0
C2155 C 0.4826 0.87531 0.67407 0.0
C2156 C 0.46576 0.87823 0.69038 0.0
C2157 C 0.51419 0.87145 0.64325 0.0
C2158 C 0.4976 0.88533 0.64028 0.0
C2159 C 0.48212 0.88717 0.6558 0.0
C2160 C 0.4953 0.89777 0.62103 0.0
C2161 C 0.5315 0.86935 0.62735 0.0
C2162 C 0.49371 0.91967 0.62291 0.0
C2163 C 0.48597 0.93101 0.60617 0.0
C2164 C 0.4799 0.92064 0.58727 0.0
C2165 C 0.48325 0.89907 0.58468 0.0
C2166 C 0.4909 0.88766 0.60151 0.0
H2167 H 0.54564 0.86234 0.6343 0.0
H2168 H 0.52582 0.85894 0.61409 0.0
H2169 H 0.53606 0.88487 0.62086 0.0
H2170 H 0.49692 0.92775 0.63785 0.0
H2171 H 0.48306 0.94757 0.6086 0.0
H2172 H 0.48493 0.30014 0.80533 0.0
H2173 H 0.48382 0.32038 0.8384 0.0
H2174 H 0.53325 0.36216 0.81648 0.0
H2175 H 0.5347 0.34158 0.78336 0.0
H2176 H 0.54048 0.35051 0.85573 0.0
H2177 H 0.45848 0.37645 0.85033 0.0
H2178 H 0.46026 0.34843 0.84808 0.0
H2179 H 0.47186 0.36476 0.82826 0.0
C2180 C 0.49542 0.31378 0.80747 0.0
C2181 C 0.50976 0.31944 0.79169 0.0
C2182 C 0.49467 0.32541 0.82634 0.0
C2183 C 0.50804 0.34313 0.82972 0.0
C2184 C 0.52262 0.34866 0.81411 0.0
H2185 H 0.51116 0.44007 0.92578 0.0
H2186 H 0.49957 0.41778 0.89574 0.0
C2187 C 0.52352 0.33688 0.79526 0.0
C2188 C 0.50761 0.35514 0.85003 0.0
H2189 H 0.47556 0.38157 0.88379 0.0
C2190 C 0.52629 0.35735 0.86181 0.0
C2191 C 0.48912 0.36425 0.85788 0.0
C2192 C 0.46885 0.36356 0.84538 0.0
C2193 C 0.52702 0.36823 0.88125 0.0
C2194 C 0.50835 0.3766 0.88953 0.0
C2195 C 0.48969 0.37468 0.87766 0.0
C2196 C 0.50862 0.38876 0.90975 0.0
C2197 C 0.54798 0.37118 0.89243 0.0
C2198 C 0.51573 0.37961 0.92827 0.0
C2199 C 0.52248 0.39235 0.94538 0.0
C2200 C 0.52164 0.4143 0.94435 0.0
C2201 C 0.51162 0.42315 0.92709 0.0
C2202 C 0.5052 0.41043 0.90981 0.0
H2203 H 0.56133 0.36834 0.88167 0.0
H2204 H 0.54996 0.38732 0.89934 0.0
H2205 H 0.54885 0.35984 0.90537 0.0
H2206 H 0.51802 0.36284 0.92871 0.0
H2207 H 0.53033 0.38522 0.95846 0.0
H2208 H 0.5305 0.24348 0.79753 0.0
H2209 H 0.53786 0.22391 0.82933 0.0
H2210 H 0.49325 0.17509 0.80843 0.0
H2211 H 0.48821 0.19318 0.77558 0.0
H2212 H 0.52072 0.212 0.86135 0.0
H2213 H 0.53904 0.13852 0.81989 0.0
H2214 H 0.53467 0.16219 0.80579 0.0
H2215 H 0.51289 0.14462 0.81232 0.0
C2216 C 0.52225 0.22857 0.79987 0.0
C2217 C 0.50848 0.22007 0.78426 0.0
C2218 C 0.52647 0.21736 0.81803 0.0
C2219 C 0.51665 0.19757 0.82115 0.0
C2220 C 0.50182 0.1898 0.80613 0.0
H2221 H 0.48356 0.14148 0.9334 0.0
H2222 H 0.49607 0.16697 0.90852 0.0
C2223 C 0.49834 0.20054 0.78759 0.0
C2224 C 0.52161 0.18509 0.84007 0.0
H2225 H 0.52626 0.13465 0.85572 0.0
C2226 C 0.52237 0.19513 0.86004 0.0
C2227 C 0.52503 0.1632 0.83868 0.0
C2228 C 0.52816 0.15165 0.81796 0.0
C2229 C 0.52466 0.18368 0.87853 0.0
C2230 C 0.52468 0.1614 0.8772 0.0
C2231 C 0.52569 0.15162 0.85716 0.0
C2232 C 0.52082 0.14785 0.89581 0.0
C2233 C 0.5271 0.19578 0.89916 0.0
C2234 C 0.53043 0.12829 0.8975 0.0
C2235 C 0.52237 0.1131 0.91117 0.0
C2236 C 0.50518 0.11752 0.92403 0.0
C2237 C 0.49712 0.13779 0.92396 0.0
C2238 C 0.50451 0.15258 0.90976 0.0
H2239 H 0.53709 0.2102 0.89711 0.0
H2240 H 0.51148 0.20095 0.90446 0.0
H2241 H 0.53428 0.18629 0.91158 0.0
H2242 H 0.54301 0.12406 0.88701 0.0
H2243 H 0.5281 0.09732 0.90999 0.0
H2244 H 0.71559 0.52225 0.74691 0.0
H2245 H 0.68232 0.52471 0.7272 0.0
H2246 H 0.71499 0.51227 0.66916 0.0
H2247 H 0.74814 0.51044 0.6888 0.0
H2248 H 0.68941 0.54437 0.66558 0.0
H2249 H 0.64587 0.47734 0.70107 0.0
H2250 H 0.6556 0.49678 0.71996 0.0
H2251 H 0.67382 0.48187 0.70467 0.0
C2252 C 0.7155 0.5201 0.72995 0.0
C2253 C 0.73417 0.51603 0.71926 0.0
C2254 C 0.69655 0.52127 0.71873 0.0
C2255 C 0.69608 0.51821 0.69673 0.0
C2256 C 0.71492 0.51451 0.68611 0.0
H2257 H 0.58987 0.50061 0.60949 0.0
H2258 H 0.61911 0.49447 0.63392 0.0
C2259 C 0.73381 0.51348 0.69728 0.0
C2260 C 0.67623 0.51971 0.68449 0.0
H2261 H 0.62626 0.49886 0.67846 0.0
C2262 C 0.67563 0.53438 0.6684 0.0
C2263 C 0.65835 0.50644 0.68794 0.0
C2264 C 0.65842 0.48957 0.7042 0.0
C2265 C 0.65765 0.53634 0.65583 0.0
C2266 C 0.6395 0.52366 0.65979 0.0
C2267 C 0.64012 0.50873 0.67564 0.0
C2268 C 0.61981 0.526 0.64755 0.0
C2269 C 0.65841 0.55178 0.63815 0.0
C2270 C 0.60992 0.54535 0.64788 0.0
C2271 C 0.59348 0.54889 0.63394 0.0
C2272 C 0.58634 0.53303 0.61962 0.0
C2273 C 0.59506 0.51307 0.62042 0.0
C2274 C 0.61177 0.50959 0.6343 0.0
H2275 H 0.67483 0.55589 0.6336 0.0
H2276 H 0.6498 0.54537 0.62403 0.0
H2277 H 0.65091 0.56649 0.64338 0.0
H2278 H 0.61555 0.55805 0.65833 0.0
H2279 H 0.58683 0.56434 0.63387 0.0
H2280 H 0.30433 0.01147 0.7336 0.0
H2281 H 0.3343 0.01328 0.70925 0.0
H2282 H 0.29243 0.99731 0.65719 0.0
H2283 H 0.26264 0.9956 0.68141 0.0
H2284 H 0.34894 0.98154 0.68026 0.0
H2285 H 0.3233 0.05214 0.6392 0.0
H2286 H 0.31309 0.04466 0.66449 0.0
H2287 H 0.30312 0.03188 0.64074 0.0
C2288 C 0.30171 0.00811 0.71697 0.0
C2289 C 0.28139 0.00311 0.70929 0.0
C2290 C 0.31873 0.00926 0.70311 0.0
C2291 C 0.31551 0.00577 0.68138 0.0
C2292 C 0.2952 1.00041 0.67383 0.0
H2293 H 0.37235 0.98318 0.56605 0.0
H2294 H 0.35132 0.9956 0.59549 0.0
C2295 C 0.27828 0.99919 0.68765 0.0
C2296 C 0.33328 0.00731 0.66643 0.0
H2297 H 0.3489 0.03142 0.62146 0.0
C2298 C 0.34924 0.9927 0.66763 0.0
C2299 C 0.33365 0.02198 0.65006 0.0
C2300 C 0.31748 0.0387 0.64861 0.0
C2301 C 0.36474 0.9914 0.65203 0.0
C2302 C 0.36448 0.00541 0.63503 0.0
C2303 C 0.34915 0.02074 0.6345 0.0
C2304 C 0.37793 0.0023 0.61624 0.0
C2305 C 0.38037 0.97413 0.65314 0.0
C2306 C 0.40001 0.00313 0.61767 0.0
C2307 C 0.41213 0.99609 0.60069 0.0
C2308 C 0.40227 0.98827 0.58211 0.0
C2309 C 0.38033 0.98924 0.58016 0.0
C2310 C 0.3683 0.99627 0.59701 0.0
H2311 H 0.37627 0.96259 0.66542 0.0
H2312 H 0.3813 0.96559 0.63774 0.0
H2313 H 0.39618 0.98112 0.65694 0.0
H2314 H 0.40779 0.0081 0.63225 0.0
H2315 H 0.429 0.99526 0.60268 0.0
H2316 H 0.72068 0.53797 0.80815 0.0
H2317 H 0.68986 0.53965 0.83073 0.0
H2318 H 0.71312 0.48905 0.86736 0.0
H2319 H 0.74378 0.48696 0.84439 0.0
H2320 H 0.67354 0.48196 0.85772 0.0
H2321 H 0.68184 0.56379 0.88872 0.0
H2322 H 0.68156 0.56245 0.8605 0.0
H2323 H 0.70269 0.55102 0.8748 0.0
C2324 C 0.71938 0.52742 0.82122 0.0
C2325 C 0.73471 0.51239 0.82457 0.0
C2326 C 0.7018 0.52849 0.83422 0.0
C2327 C 0.69932 0.51481 0.85108 0.0
C2328 C 0.71472 0.49988 0.85454 0.0
H2329 H 0.608 0.51174 0.95118 0.0
H2330 H 0.63754 0.52283 0.92907 0.0
C2331 C 0.7322 0.49864 0.84138 0.0
C2332 C 0.67994 0.51492 0.86408 0.0
H2333 H 0.64846 0.54627 0.89392 0.0
C2334 C 0.66816 0.49602 0.8657 0.0
C2335 C 0.67295 0.53321 0.87473 0.0
C2336 C 0.68554 0.55371 0.8748 0.0
C2337 C 0.6496 0.49489 0.87741 0.0
C2338 C 0.64206 0.51338 0.88724 0.0
C2339 C 0.65397 0.53224 0.88598 0.0
C2340 C 0.6224 0.5128 0.89974 0.0
C2341 C 0.63855 0.4737 0.87956 0.0
C2342 C 0.60346 0.50522 0.89047 0.0
C2343 C 0.58672 0.49866 0.90308 0.0
C2344 C 0.58848 0.50015 0.92511 0.0
C2345 C 0.60619 0.51062 0.93422 0.0
C2346 C 0.62316 0.51678 0.92159 0.0
H2347 H 0.64915 0.46059 0.87594 0.0
H2348 H 0.6324 0.47172 0.89572 0.0
H2349 H 0.62512 0.47235 0.86832 0.0
H2350 H 0.60231 0.50257 0.87359 0.0
H2351 H 0.57322 0.4906 0.89571 0.0
H2352 H 0.30279 0.97908 0.79614 0.0
H2353 H 0.33588 0.97761 0.81562 0.0
H2354 H 0.31623 0.02757 0.85737 0.0
H2355 H 0.28317 0.02941 0.83756 0.0
H2356 H 0.35447 0.03529 0.84377 0.0
H2357 H 0.35067 0.95348 0.87132 0.0
H2358 H 0.34747 0.9548 0.84333 0.0
H2359 H 0.32815 0.96601 0.86042 0.0
C2360 C 0.30537 0.98952 0.8097 0.0
C2361 C 0.29033 0.0043 0.81541 0.0
C2362 C 0.32427 0.98857 0.82091 0.0
C2363 C 0.32842 0.00214 0.83827 0.0
C2364 C 0.31333 0.01681 0.84412 0.0
H2365 H 0.42986 0.00977 0.92862 0.0
H2366 H 0.39871 0.9964 0.90913 0.0
C2367 C 0.29449 0.01793 0.83276 0.0
C2368 C 0.34918 0.00231 0.84919 0.0
H2369 H 0.38431 0.97145 0.87394 0.0
C2370 C 0.36091 0.02133 0.85045 0.0
C2371 C 0.35755 0.98413 0.85809 0.0
C2372 C 0.34521 0.96351 0.85843 0.0
C2373 C 0.38077 0.02271 0.86012 0.0
C2374 C 0.38958 0.00435 0.86817 0.0
C2375 C 0.37776 0.98536 0.86729 0.0
C2376 C 0.41052 0.00531 0.87866 0.0
C2377 C 0.39188 0.04401 0.86207 0.0
C2378 C 0.42822 0.01286 0.86778 0.0
C2379 C 0.44588 0.02075 0.87892 0.0
C2380 C 0.44623 0.02067 0.90101 0.0
C2381 C 0.43001 0.0099 0.91157 0.0
C2382 C 0.41211 0.00241 0.90045 0.0
H2383 H 0.38088 0.05701 0.85994 0.0
H2384 H 0.39969 0.04624 0.87769 0.0
H2385 H 0.40407 0.04528 0.84975 0.0
H2386 H 0.4275 0.01473 0.85089 0.0
H2387 H 0.45821 0.02897 0.87044 0.0
H2388 H 0.67807 0.74099 0.53735 0.0
H2389 H 0.65641 0.70866 0.54089 0.0
H2390 H 0.70214 0.67398 0.5057 0.0
H2391 H 0.72406 0.70622 0.50276 0.0
H2392 H 0.63844 0.68429 0.50921 0.0
H2393 H 0.69287 0.6369 0.55593 0.0
H2394 H 0.69693 0.66483 0.55282 0.0
H2395 H 0.70371 0.64676 0.53197 0.0
C2396 C 0.68362 0.72633 0.53081 0.0
C2397 C 0.7028 0.72587 0.52012 0.0
C2398 C 0.67123 0.70794 0.53267 0.0
C2399 C 0.67777 0.68882 0.52379 0.0
C2400 C 0.69699 0.6884 0.5131 0.0
H2401 H 0.60863 0.56581 0.52555 0.0
H2402 H 0.63297 0.59409 0.51384 0.0
C2403 C 0.70945 0.70677 0.51137 0.0
C2404 C 0.66397 0.66963 0.52503 0.0
H2405 H 0.66104 0.62004 0.54448 0.0
C2406 C 0.64345 0.67021 0.51682 0.0
C2407 C 0.67055 0.65118 0.53482 0.0
C2408 C 0.69215 0.64984 0.54456 0.0
C2409 C 0.62919 0.65307 0.5186 0.0
C2410 C 0.63558 0.63492 0.52891 0.0
C2411 C 0.6563 0.63396 0.53642 0.0
C2412 C 0.62025 0.618 0.53445 0.0
C2413 C 0.60723 0.65463 0.50984 0.0
C2414 C 0.60516 0.62216 0.54979 0.0
C2415 C 0.59149 0.60619 0.55646 0.0
C2416 C 0.5925 0.58575 0.54781 0.0
C2417 C 0.6073 0.58157 0.53211 0.0
C2418 C 0.62126 0.59761 0.52557 0.0
H2419 H 0.6063 0.66714 0.49801 0.0
H2420 H 0.60171 0.63943 0.50245 0.0
H2421 H 0.59638 0.65847 0.52287 0.0
H2422 H 0.6043 0.63771 0.55699 0.0
H2423 H 0.5802 0.60981 0.56858 0.0
H2424 H 0.68083 0.27263 0.02387 0.0
H2425 H 0.66022 0.30415 0.02909 0.0
H2426 H 0.69666 0.33561 0.98162 0.0
H2427 H 0.71743 0.3043 0.97642 0.0
H2428 H 0.67464 0.34558 0.04124 0.0
H2429 H 0.63561 0.34321 0.96283 0.0
H2430 H 0.64863 0.32088 0.97324 0.0
H2431 H 0.6637 0.34188 0.96155 0.0
C2432 C 0.68441 0.28625 0.01449 0.0
C2433 C 0.7007 0.2859 0.99962 0.0
C2434 C 0.67263 0.30423 0.01752 0.0
C2435 C 0.67682 0.32215 0.00565 0.0
C2436 C 0.69294 0.32181 0.9907 0.0
H2437 H 0.6389 0.44621 0.99108 0.0
H2438 H 0.65954 0.41616 1.00061 0.0
C2439 C 0.70472 0.30386 0.98765 0.0
C2440 C 0.6645 0.34131 0.00892 0.0
H2441 H 0.63352 0.3751 0.983 0.0
C2442 C 0.66545 0.35195 0.02861 0.0
C2443 C 0.65238 0.34946 0.99247 0.0
C2444 C 0.6498 0.33818 0.9714 0.0
C2445 C 0.65525 0.37103 0.03191 0.0
C2446 C 0.64391 0.37951 0.01517 0.0
C2447 C 0.64242 0.36855 0.99576 0.0
C2448 C 0.63409 0.4002 0.0167 0.0
C2449 C 0.65703 0.3824 0.05295 0.0
C2450 C 0.61341 0.40179 0.02393 0.0
C2451 C 0.60161 0.41917 0.01872 0.0
C2452 C 0.61037 0.43479 0.00589 0.0
C2453 C 0.63184 0.43437 1.00102 0.0
C2454 C 0.64362 0.41717 0.00637 0.0
H2455 H 0.6664 0.37371 0.06448 0.0
H2456 H 0.66451 0.39822 0.05092 0.0
H2457 H 0.64109 0.38472 0.05941 0.0
H2458 H 0.60578 0.38874 0.03179 0.0
H2459 H 0.58504 0.41904 0.02247 0.0
H2460 H 0.30956 0.22095 0.96816 0.0
H2461 H 0.33057 0.18947 0.96895 0.0
H2462 H 0.36577 0.21561 0.02214 0.0
H2463 H 0.34504 0.24727 0.02133 0.0
H2464 H 0.37431 0.18633 0.96537 0.0
H2465 H 0.34635 0.1571 0.04234 0.0
H2466 H 0.33282 0.17685 0.02804 0.0
H2467 H 0.35642 0.18382 0.0426 0.0
C2468 C 0.32193 0.22015 0.97988 0.0
C2469 C 0.32553 0.23665 0.99473 0.0
C2470 C 0.33381 0.20205 0.98043 0.0
C2471 C 0.34945 0.20001 0.99588 0.0
C2472 C 0.35342 0.21661 0.01043 0.0
H2473 H 0.44552 0.10532 0.99886 0.0
H2474 H 0.42397 0.13469 0.01044 0.0
C2475 C 0.34157 0.23473 0.00989 0.0
C2476 C 0.362 0.18075 0.99624 0.0
H2477 H 0.37314 0.13801 0.02555 0.0
C2478 C 0.37409 0.17583 0.97855 0.0
C2479 C 0.36172 0.16706 0.01351 0.0
C2480 C 0.34852 0.1713 0.03267 0.0
C2481 C 0.38582 0.15757 0.97759 0.0
C2482 C 0.38532 0.14375 0.99468 0.0
C2483 C 0.37351 0.14873 0.01254 0.0
C2484 C 0.39617 0.12355 0.99326 0.0
C2485 C 0.39854 0.15296 0.95816 0.0
C2486 C 0.38722 0.10701 0.98091 0.0
C2487 C 0.39945 0.09034 0.97426 0.0
C2488 C 0.42083 0.08993 0.97991 0.0
C2489 C 0.42906 0.10517 0.99438 0.0
C2490 C 0.41681 0.12201 1.00091 0.0
H2491 H 0.39944 0.16652 0.94749 0.0
H2492 H 0.41474 0.14877 0.96262 0.0
H2493 H 0.39121 0.13929 0.94937 0.0
H2494 H 0.3713 0.10792 0.97491 0.0
H2495 H 0.3927 0.07879 0.96315 0.0
H2496 H 0.83469 0.27754 0.99502 0.0
H2497 H 0.85203 0.31254 0.99352 0.0
H2498 H 0.79166 0.34119 0.9975 0.0
H2499 H 0.77429 0.30606 0.99887 0.0
H2500 H 0.84263 0.34655 0.96243 0.0
H2501 H 0.82994 0.36799 0.04684 0.0
H2502 H 0.82914 0.34101 0.03733 0.0
H2503 H 0.80773 0.35767 0.03171 0.0
C2504 C 0.82523 0.29138 0.99571 0.0
C2505 C 0.80328 0.28934 0.99722 0.0
C2506 C 0.83506 0.31127 0.9947 0.0
C2507 C 0.82311 0.3294 0.99538 0.0
C2508 C 0.80114 0.32736 0.99702 0.0
H2509 H 0.8741 0.45494 0.0216 0.0
H2510 H 0.84862 0.4282 0.00824 0.0
C2511 C 0.79127 0.30741 0.9979 0.0
C2512 C 0.83384 0.35039 0.99491 0.0
H2513 H 0.84872 0.39226 0.02661 0.0
C2514 C 0.84382 0.35671 0.97637 0.0
C2515 C 0.83522 0.3636 0.01307 0.0
C2516 C 0.82507 0.35731 0.03346 0.0
C2517 C 0.85545 0.37586 0.9756 0.0
C2518 C 0.85756 0.38873 0.99404 0.0
C2519 C 0.84702 0.38257 0.01239 0.0
C2520 C 0.87204 0.40758 0.99558 0.0
C2521 C 0.8653 0.38206 0.95507 0.0
C2522 C 0.89361 0.40569 0.99156 0.0
C2523 C 0.90813 0.42132 0.99866 0.0
C2524 C 0.90133 0.43885 0.01023 0.0
C2525 C 0.87968 0.44174 0.01239 0.0
C2526 C 0.86515 0.42632 0.00497 0.0
H2527 H 0.85604 0.3754 0.94144 0.0
H2528 H 0.86663 0.39941 0.95369 0.0
H2529 H 0.88128 0.37566 0.95412 0.0
H2530 H 0.89947 0.39127 0.98481 0.0
H2531 H 0.92476 0.41847 0.99731 0.0
loop_
_geom_bond_atom_site_label_1
_geom_bond_atom_site_label_2
_geom_bond_distance
_geom_bond_site_symmetry_2
_ccdc_geom_bond_type
C0 C1 1.443 . S
C0 N4 1.376 . S
C0 C38 1.389 . S
C1 C0 1.443 . S
C1 C2 1.340 . S
C1 H41 0.951 . S
C2 C1 1.340 . S
C2 C3 1.439 . S
C2 H42 0.950 . S
C3 C2 1.439 . S
C3 N4 1.374 . S
C3 C37 1.395 . S
N4 C0 1.376 . S
N4 C3 1.374 . S
N4 Co5 2.008 1_655 S
Co5 N4 2.008 1_455 S
Co5 N6 1.995 1_455 S
Co5 N11 2.008 . S
Co5 N16 1.995 . S
Co5 N21 2.282 . S
Co5 N27 2.282 . S
N6 Co5 1.995 1_655 S
N6 C7 1.376 . S
N6 C10 1.383 . S
C7 N6 1.376 . S
C7 C8 1.446 . S
C7 C37 1.391 . S
C8 C7 1.446 . S
C8 C9 1.339 . S
C8 H43 0.949 . S
C9 C8 1.339 . S
C9 C10 1.439 . S
C9 H44 0.950 . S
C10 N6 1.383 . S
C10 C9 1.439 . S
C10 C39 1.392 1_655 S
N11 Co5 2.008 . S
N11 C12 1.376 . S
N11 C15 1.374 . S
C12 N11 1.376 . S
C12 C13 1.443 . S
C12 C39 1.389 . S
C13 C12 1.443 . S
C13 C14 1.340 . S
C13 H45 0.951 . S
C14 C13 1.340 . S
C14 C15 1.439 . S
C14 H46 0.950 . S
C15 N11 1.374 . S
C15 C14 1.439 . S
C15 C40 1.395 . S
N16 Co5 1.995 . S
N16 C17 1.376 . S
N16 C20 1.383 . S
C17 N16 1.376 . S
C17 C18 1.446 . S
C17 C40 1.391 . S
C18 C17 1.446 . S
C18 C19 1.339 . S
C18 H47 0.949 . S
C19 C18 1.339 . S
C19 C20 1.439 . S
C19 H48 0.950 . S
C20 N16 1.383 . S
C20 C19 1.439 . S
C20 C38 1.392 1_455 S
N21 Co5 2.282 . S
N21 C24 1.332 . S
N21 C26 1.332 1_455 S
C22 C23 1.386 . S
C22 C25 1.388 . S
C23 C22 1.386 . S
C23 C24 1.382 . S
C23 H49 0.950 . S
C24 N21 1.332 . S
C24 C23 1.382 . S
C24 H35 0.952 . S
C25 C22 1.388 . S
C25 C26 1.382 1_455 S
C25 H50 0.950 1_455 S
C26 N21 1.332 1_655 S
C26 C25 1.382 1_655 S
C26 H36 0.948 . S
N27 Co5 2.282 . S
N27 C31 1.332 1_455 S
N27 C32 1.332 . S
C28 C29 1.388 1_455 S
C28 C32 1.382 . S
C28 H51 0.950 . S
C29 C28 1.388 1_655 S
C29 C30 1.386 . S
C30 C29 1.386 . S
C30 C31 1.382 . S
C30 H52 0.950 . S
C31 N27 1.332 1_655 S
C31 C30 1.382 . S
C31 H33 0.952 . S
C32 N27 1.332 . S
C32 C28 1.382 . S
C32 H34 0.948 . S
H33 C31 0.952 . S
H34 C32 0.948 . S
H35 C24 0.952 . S
H36 C26 0.948 . S
C37 C3 1.395 . S
C37 C7 1.391 . S
C38 C0 1.389 . S
C38 C20 1.392 1_655 S
C39 C10 1.392 1_455 S
C39 C12 1.389 . S
C40 C15 1.395 . S
C40 C17 1.391 . S
H41 C1 0.951 . S
H42 C2 0.950 . S
H43 C8 0.949 . S
H44 C9 0.950 . S
H45 C13 0.951 . S
H46 C14 0.950 . S
H47 C18 0.949 . S
H48 C19 0.950 . S
H49 C23 0.950 . S
H50 C25 0.950 1_655 S
H51 C28 0.950 . S
H52 C30 0.950 . S
C53 C54 1.443 . S
C53 N57 1.376 . S
C53 C91 1.389 . S
C54 C53 1.443 . S
C54 C55 1.340 . S
C54 H94 0.951 . S
C55 C54 1.340 . S
C55 C56 1.439 . S
C55 H95 0.950 . S
C56 C55 1.439 . S
C56 N57 1.374 . S
C56 C90 1.395 . S
N57 C53 1.376 . S
N57 C56 1.374 . S
N57 Co58 2.008 1_655 S
Co58 N57 2.008 1_455 S
Co58 N59 1.995 1_455 S
Co58 N64 2.008 . S
Co58 N69 1.995 . S
Co58 N74 2.282 . S
Co58 N80 2.282 1_455 S
N59 Co58 1.995 1_655 S
N59 C60 1.376 . S
N59 C63 1.383 . S
C60 N59 1.376 . S
C60 C61 1.446 . S
C60 C90 1.391 . S
C61 C60 1.446 . S
C61 C62 1.339 . S
C61 H96 0.949 . S
C62 C61 1.339 . S
C62 C63 1.439 . S
C62 H97 0.950 . S
C63 N59 1.383 . S
C63 C62 1.439 . S
C63 C92 1.392 1_655 S
N64 Co58 2.008 . S
N64 C65 1.376 . S
N64 C68 1.374 . S
C65 N64 1.376 . S
C65 C66 1.443 . S
C65 C92 1.389 . S
C66 C65 1.443 . S
C66 C67 1.340 . S
C66 H98 0.951 . S
C67 C66 1.340 . S
C67 C68 1.439 . S
C67 H99 0.950 . S
C68 N64 1.374 . S
C68 C67 1.439 . S
C68 C93 1.395 . S
N69 Co58 1.995 . S
N69 C70 1.376 . S
N69 C73 1.383 . S
C70 N69 1.376 . S
C70 C71 1.446 . S
C70 C93 1.391 . S
C71 C70 1.446 . S
C71 C72 1.339 . S
C71 H100 0.949 . S
C72 C71 1.339 . S
C72 C73 1.439 . S
C72 H101 0.950 . S
C73 N69 1.383 . S
C73 C72 1.439 . S
C73 C91 1.392 1_455 S
N74 Co58 2.282 . S
N74 C77 1.332 . S
N74 C79 1.332 1_455 S
C75 C76 1.386 . S
C75 C78 1.388 1_455 S
C76 C75 1.386 . S
C76 C77 1.382 . S
C76 H102 0.950 . S
C77 N74 1.332 . S
C77 C76 1.382 . S
C77 H88 0.952 . S
C78 C75 1.388 1_655 S
C78 C79 1.382 . S
C78 H103 0.950 . S
C79 N74 1.332 1_655 S
C79 C78 1.382 . S
C79 H89 0.948 . S
N80 Co58 2.282 1_655 S
N80 C84 1.332 . S
N80 C85 1.332 1_655 S
C81 C82 1.388 1_455 S
C81 C85 1.382 . S
C81 H104 0.950 . S
C82 C81 1.388 1_655 S
C82 C83 1.386 . S
C83 C82 1.386 . S
C83 C84 1.382 . S
C83 H105 0.950 . S
C84 N80 1.332 . S
C84 C83 1.382 . S
C84 H86 0.952 . S
C85 N80 1.332 1_455 S
C85 C81 1.382 . S
C85 H87 0.948 . S
H86 C84 0.952 . S
H87 C85 0.948 . S
H88 C77 0.952 . S
H89 C79 0.948 . S
C90 C56 1.395 . S
C90 C60 1.391 . S
C91 C53 1.389 . S
C91 C73 1.392 1_655 S
C92 C63 1.392 1_455 S
C92 C65 1.389 . S
C93 C68 1.395 . S
C93 C70 1.391 . S
H94 C54 0.951 . S
H95 C55 0.950 . S
H96 C61 0.949 . S
H97 C62 0.950 . S
H98 C66 0.951 . S
H99 C67 0.950 . S
H100 C71 0.949 . S
H101 C72 0.950 . S
H102 C76 0.950 . S
H103 C78 0.950 . S
H104 C81 0.950 . S
H105 C83 0.950 . S
C106 C107 1.443 . S
C106 N110 1.376 . S
C106 C144 1.389 . S
C107 C106 1.443 . S
C107 C108 1.340 . S
C107 H147 0.951 . S
C108 C107 1.340 . S
C108 C109 1.439 . S
C108 H148 0.950 . S
C109 C108 1.439 . S
C109 N110 1.374 . S
C109 C143 1.395 . S
N110 C106 1.376 . S
N110 C109 1.374 . S
N110 Co111 2.008 1_565 S
Co111 N110 2.008 1_545 S
Co111 N112 1.995 1_545 S
Co111 N117 2.008 . S
Co111 N122 1.995 . S
Co111 N127 2.282 . S
Co111 N133 2.282 . S
N112 Co111 1.995 1_565 S
N112 C113 1.376 . S
N112 C116 1.383 . S
C113 N112 1.376 . S
C113 C114 1.446 . S
C113 C143 1.391 . S
C114 C113 1.446 . S
C114 C115 1.339 . S
C114 H149 0.949 . S
C115 C114 1.339 . S
C115 C116 1.439 . S
C115 H150 0.950 . S
C116 N112 1.383 . S
C116 C115 1.439 . S
C116 C145 1.392 1_565 S
N117 Co111 2.008 . S
N117 C118 1.376 . S
N117 C121 1.374 . S
C118 N117 1.376 . S
C118 C119 1.443 . S
C118 C145 1.389 . S
C119 C118 1.443 . S
C119 C120 1.340 . S
C119 H151 0.951 . S
C120 C119 1.340 . S
C120 C121 1.439 . S
C120 H152 0.950 . S
C121 N117 1.374 . S
C121 C120 1.439 . S
C121 C146 1.395 . S
N122 Co111 1.995 . S
N122 C123 1.376 . S
N122 C126 1.383 . S
C123 N122 1.376 . S
C123 C124 1.446 . S
C123 C146 1.391 . S
C124 C123 1.446 . S
C124 C125 1.339 . S
C124 H153 0.949 . S
C125 C124 1.339 . S
C125 C126 1.439 . S
C125 H154 0.950 . S
C126 N122 1.383 . S
C126 C125 1.439 . S
C126 C144 1.392 1_545 S
N127 Co111 2.282 . S
N127 C130 1.332 . S
N127 C132 1.340 . S
C128 C129 1.386 . S
C128 C131 1.388 . S
C129 C128 1.386 . S
C129 C130 1.382 . S
C129 H155 0.950 . S
C130 N127 1.332 . S
C130 C129 1.382 . S
C130 H141 0.952 . S
C131 C128 1.388 . S
C131 C132 1.385 . S
C131 H156 0.950 1_545 S
C132 N127 1.340 . S
C132 C131 1.385 . S
C132 H142 0.936 1_545 S
N133 Co111 2.282 . S
N133 C137 1.332 1_545 S
N133 C138 1.332 . S
C134 C135 1.388 1_545 S
C134 C138 1.382 . S
C134 H157 0.950 . S
C135 C134 1.388 1_565 S
C135 C136 1.386 . S
C136 C135 1.386 . S
C136 C137 1.382 . S
C136 H158 0.950 . S
C137 N133 1.332 1_565 S
C137 C136 1.382 . S
C137 H139 0.952 . S
C138 N133 1.332 . S
C138 C134 1.382 . S
C138 H140 0.948 . S
H139 C137 0.952 . S
H140 C138 0.948 . S
H141 C130 0.952 . S
H142 C132 0.936 1_565 S
C143 C109 1.395 . S
C143 C113 1.391 . S
C144 C106 1.389 . S
C144 C126 1.392 1_565 S
C145 C116 1.392 1_545 S
C145 C118 1.389 . S
C146 C121 1.395 . S
C146 C123 1.391 . S
H147 C107 0.951 . S
H148 C108 0.950 . S
H149 C114 0.949 . S
H150 C115 0.950 . S
H151 C119 0.951 . S
H152 C120 0.950 . S
H153 C124 0.949 . S
H154 C125 0.950 . S
H155 C129 0.950 . S
H156 C131 0.950 1_565 S
H157 C134 0.950 . S
H158 C136 0.950 . S
C159 C160 1.443 . S
C159 N163 1.376 . S
C159 C197 1.389 . S
C160 C159 1.443 . S
C160 C161 1.340 . S
C160 H200 0.951 . S
C161 C160 1.340 . S
C161 C162 1.439 . S
C161 H201 0.950 . S
C162 C161 1.439 . S
C162 N163 1.374 . S
C162 C196 1.395 . S
N163 C159 1.376 . S
N163 C162 1.374 . S
N163 Co164 2.008 . S
Co164 N163 2.008 . S
Co164 N165 1.995 . S
Co164 N170 2.008 . S
Co164 N175 1.995 . S
Co164 N180 2.282 . S
Co164 N186 2.282 . S
N165 Co164 1.995 . S
N165 C166 1.376 . S
N165 C169 1.383 . S
C166 N165 1.376 . S
C166 C167 1.446 . S
C166 C196 1.391 . S
C167 C166 1.446 . S
C167 C168 1.339 . S
C167 H202 0.949 . S
C168 C167 1.339 . S
C168 C169 1.439 . S
C168 H203 0.950 . S
C169 N165 1.383 . S
C169 C168 1.439 . S
C169 C198 1.392 . S
N170 Co164 2.008 . S
N170 C171 1.376 . S
N170 C174 1.374 . S
C171 N170 1.376 . S
C171 C172 1.443 . S
C171 C198 1.389 . S
C172 C171 1.443 . S
C172 C173 1.340 . S
C172 H204 0.951 . S
C173 C172 1.340 . S
C173 C174 1.439 . S
C173 H205 0.950 . S
C174 N170 1.374 . S
C174 C173 1.439 . S
C174 C199 1.395 . S
N175 Co164 1.995 . S
N175 C176 1.376 . S
N175 C179 1.383 . S
C176 N175 1.376 . S
C176 C177 1.446 . S
C176 C199 1.391 . S
C177 C176 1.446 . S
C177 C178 1.339 . S
C177 H206 0.949 . S
C178 C177 1.339 . S
C178 C179 1.439 . S
C178 H207 0.950 . S
C179 N175 1.383 . S
C179 C178 1.439 . S
C179 C197 1.392 . S
N180 Co164 2.282 . S
N180 C183 1.332 . S
N180 C185 1.332 . S
C181 C182 1.386 . S
C181 C184 1.388 . S
C182 C181 1.386 . S
C182 C183 1.382 . S
C182 H208 0.950 . S
C183 N180 1.332 . S
C183 C182 1.382 . S
C183 H194 0.952 . S
C184 C181 1.388 . S
C184 C185 1.382 . S
C184 H209 0.950 . S
C185 N180 1.332 . S
C185 C184 1.382 . S
C185 H195 0.948 . S
N186 Co164 2.282 . S
N186 C190 1.332 . S
N186 C191 1.332 . S
C187 C188 1.388 . S
C187 C191 1.382 . S
C187 H210 0.950 . S
C188 C187 1.388 . S
C188 C189 1.386 . S
C189 C188 1.386 . S
C189 C190 1.382 . S
C189 H211 0.950 . S
C190 N186 1.332 . S
C190 C189 1.382 . S
C190 H192 0.952 . S
C191 N186 1.332 . S
C191 C187 1.382 . S
C191 H193 0.948 . S
H192 C190 0.952 . S
H193 C191 0.948 . S
H194 C183 0.952 . S
H195 C185 0.948 . S
C196 C162 1.395 . S
C196 C166 1.391 . S
C197 C159 1.389 . S
C197 C179 1.392 . S
C198 C169 1.392 . S
C198 C171 1.389 . S
C199 C174 1.395 . S
C199 C176 1.391 . S
H200 C160 0.951 . S
H201 C161 0.950 . S
H202 C167 0.949 . S
H203 C168 0.950 . S
H204 C172 0.951 . S
H205 C173 0.950 . S
H206 C177 0.949 . S
H207 C178 0.950 . S
H208 C182 0.950 . S
H209 C184 0.950 . S
H210 C187 0.950 . S
H211 C189 0.950 . S
C212 C213 1.443 . S
C212 N216 1.376 . S
C212 C250 1.389 . S
C213 C212 1.443 . S
C213 C214 1.340 . S
C213 H253 0.951 . S
C214 C213 1.340 . S
C214 C215 1.439 . S
C214 H254 0.950 . S
C215 C214 1.439 . S
C215 N216 1.374 . S
C215 C249 1.395 . S
N216 C212 1.376 . S
N216 C215 1.374 . S
N216 Co217 2.008 1_556 S
Co217 N216 2.008 1_554 S
Co217 N218 1.995 1_554 S
Co217 N223 2.008 . S
Co217 N228 1.995 . S
Co217 N233 2.282 . S
Co217 N239 2.282 . S
N218 Co217 1.995 1_556 S
N218 C219 1.376 . S
N218 C222 1.383 . S
C219 N218 1.376 . S
C219 C220 1.446 . S
C219 C249 1.391 . S
C220 C219 1.446 . S
C220 C221 1.339 . S
C220 H255 0.949 . S
C221 C220 1.339 . S
C221 C222 1.439 . S
C221 H256 0.950 . S
C222 N218 1.383 . S
C222 C221 1.439 . S
C222 C251 1.392 1_556 S
N223 Co217 2.008 . S
N223 C224 1.376 . S
N223 C227 1.374 . S
C224 N223 1.376 . S
C224 C225 1.443 . S
C224 C251 1.389 . S
C225 C224 1.443 . S
C225 C226 1.340 . S
C225 H257 0.951 . S
C226 C225 1.340 . S
C226 C227 1.439 . S
C226 H258 0.950 . S
C227 N223 1.374 . S
C227 C226 1.439 . S
C227 C252 1.395 . S
N228 Co217 1.995 . S
N228 C229 1.376 . S
N228 C232 1.383 . S
C229 N228 1.376 . S
C229 C230 1.446 . S
C229 C252 1.391 . S
C230 C229 1.446 . S
C230 C231 1.339 . S
C230 H259 0.949 . S
C231 C230 1.339 . S
C231 C232 1.439 . S
C231 H260 0.950 . S
C232 N228 1.383 . S
C232 C231 1.439 . S
C232 C250 1.392 1_554 S
N233 Co217 2.282 . S
N233 C236 1.332 . S
N233 C238 1.332 1_554 S
C234 C235 1.386 . S
C234 C237 1.373 1_554 S
C235 C234 1.386 . S
C235 C236 1.382 . S
C235 H261 0.950 . S
C236 N233 1.332 . S
C236 C235 1.382 . S
C236 H247 0.952 . S
C237 C234 1.373 1_556 S
C237 C238 1.385 . S
C237 H262 0.962 . S
C238 N233 1.332 1_556 S
C238 C237 1.385 . S
C238 H248 0.948 . S
N239 Co217 2.282 . S
N239 C243 1.332 1_554 S
N239 C244 1.332 . S
C240 C241 1.388 1_554 S
C240 C244 1.382 . S
C240 H263 0.950 . S
C241 C240 1.388 1_556 S
C241 C242 1.386 . S
C242 C241 1.386 . S
C242 C243 1.382 . S
C242 H264 0.950 . S
C243 N239 1.332 1_556 S
C243 C242 1.382 . S
C243 H245 0.952 . S
C244 N239 1.332 . S
C244 C240 1.382 . S
C244 H246 0.948 . S
H245 C243 0.952 . S
H246 C244 0.948 . S
H247 C236 0.952 . S
H248 C238 0.948 . S
C249 C215 1.395 . S
C249 C219 1.391 . S
C250 C212 1.389 . S
C250 C232 1.392 1_556 S
C251 C222 1.392 1_554 S
C251 C224 1.389 . S
C252 C227 1.395 . S
C252 C229 1.391 . S
H253 C213 0.951 . S
H254 C214 0.950 . S
H255 C220 0.949 . S
H256 C221 0.950 . S
H257 C225 0.951 . S
H258 C226 0.950 . S
H259 C230 0.949 . S
H260 C231 0.950 . S
H261 C235 0.950 . S
H262 C237 0.962 . S
H263 C240 0.950 . S
H264 C242 0.950 . S
C265 C266 1.443 . S
C265 N269 1.376 . S
C265 C303 1.389 . S
C266 C265 1.443 . S
C266 C267 1.340 . S
C266 H306 0.951 . S
C267 C266 1.340 . S
C267 C268 1.439 . S
C267 H307 0.950 . S
C268 C267 1.439 . S
C268 N269 1.374 . S
C268 C302 1.395 . S
N269 C265 1.376 . S
N269 C268 1.374 . S
N269 Co270 2.008 . S
Co270 N269 2.008 . S
Co270 N271 1.995 . S
Co270 N276 2.008 . S
Co270 N281 1.995 . S
Co270 N286 2.282 . S
Co270 N292 2.282 . S
N271 Co270 1.995 . S
N271 C272 1.376 . S
N271 C275 1.383 . S
C272 N271 1.376 . S
C272 C273 1.446 . S
C272 C302 1.391 . S
C273 C272 1.446 . S
C273 C274 1.339 . S
C273 H308 0.949 . S
C274 C273 1.339 . S
C274 C275 1.439 . S
C274 H309 0.950 . S
C275 N271 1.383 . S
C275 C274 1.439 . S
C275 C304 1.392 . S
N276 Co270 2.008 . S
N276 C277 1.376 . S
N276 C280 1.374 . S
C277 N276 1.376 . S
C277 C278 1.443 . S
C277 C304 1.389 . S
C278 C277 1.443 . S
C278 C279 1.340 . S
C278 H310 0.951 . S
C279 C278 1.340 . S
C279 C280 1.439 . S
C279 H311 0.950 . S
C280 N276 1.374 . S
C280 C279 1.439 . S
C280 C305 1.395 . S
N281 Co270 1.995 . S
N281 C282 1.376 . S
N281 C285 1.383 . S
C282 N281 1.376 . S
C282 C283 1.446 . S
C282 C305 1.391 . S
C283 C282 1.446 . S
C283 C284 1.339 . S
C283 H312 0.949 . S
C284 C283 1.339 . S
C284 C285 1.439 . S
C284 H313 0.950 . S
C285 N281 1.383 . S
C285 C284 1.439 . S
C285 C303 1.392 . S
N286 Co270 2.282 . S
N286 C289 1.332 . S
N286 C291 1.332 . S
C287 C288 1.386 . S
C287 C290 1.388 . S
C288 C287 1.386 . S
C288 C289 1.382 . S
C288 H314 0.950 . S
C289 N286 1.332 . S
C289 C288 1.382 . S
C289 H300 0.952 . S
C290 C287 1.388 . S
C290 C291 1.382 . S
C290 H315 0.950 . S
C291 N286 1.332 . S
C291 C290 1.382 . S
C291 H301 0.948 . S
N292 Co270 2.282 . S
N292 C296 1.332 . S
N292 C297 1.332 . S
C293 C294 1.388 . S
C293 C297 1.382 . S
C293 H316 0.950 . S
C294 C293 1.388 . S
C294 C295 1.386 . S
C295 C294 1.386 . S
C295 C296 1.382 . S
C295 H317 0.950 . S
C296 N292 1.332 . S
C296 C295 1.382 . S
C296 H298 0.952 . S
C297 N292 1.332 . S
C297 C293 1.382 . S
C297 H299 0.948 . S
H298 C296 0.952 . S
H299 C297 0.948 . S
H300 C289 0.952 . S
H301 C291 0.948 . S
C302 C268 1.395 . S
C302 C272 1.391 . S
C303 C265 1.389 . S
C303 C285 1.392 . S
C304 C275 1.392 . S
C304 C277 1.389 . S
C305 C280 1.395 . S
C305 C282 1.391 . S
H306 C266 0.951 . S
H307 C267 0.950 . S
H308 C273 0.949 . S
H309 C274 0.950 . S
H310 C278 0.951 . S
H311 C279 0.950 . S
H312 C283 0.949 . S
H313 C284 0.950 . S
H314 C288 0.950 . S
H315 C290 0.950 . S
H316 C293 0.950 . S
H317 C295 0.950 . S
C318 C319 1.443 . S
C318 N322 1.376 . S
C318 C356 1.389 . S
C319 C318 1.443 . S
C319 C320 1.340 . S
C319 H359 0.951 . S
C320 C319 1.340 . S
C320 C321 1.439 . S
C320 H360 0.950 . S
C321 C320 1.439 . S
C321 N322 1.374 . S
C321 C355 1.395 . S
N322 C318 1.376 . S
N322 C321 1.374 . S
N322 Co323 2.008 . S
Co323 N322 2.008 . S
Co323 N324 1.995 . S
Co323 N329 2.008 . S
Co323 N334 1.995 . S
Co323 N339 2.282 . S
Co323 N345 2.282 . S
N324 Co323 1.995 . S
N324 C325 1.376 . S
N324 C328 1.383 . S
C325 N324 1.376 . S
C325 C326 1.446 . S
C325 C355 1.391 . S
C326 C325 1.446 . S
C326 C327 1.339 . S
C326 H361 0.949 . S
C327 C326 1.339 . S
C327 C328 1.439 . S
C327 H362 0.950 . S
C328 N324 1.383 . S
C328 C327 1.439 . S
C328 C357 1.392 . S
N329 Co323 2.008 . S
N329 C330 1.376 . S
N329 C333 1.374 . S
C330 N329 1.376 . S
C330 C331 1.443 . S
C330 C357 1.389 . S
C331 C330 1.443 . S
C331 C332 1.340 . S
C331 H363 0.951 . S
C332 C331 1.340 . S
C332 C333 1.439 . S
C332 H364 0.950 . S
C333 N329 1.374 . S
C333 C332 1.439 . S
C333 C358 1.395 . S
N334 Co323 1.995 . S
N334 C335 1.376 . S
N334 C338 1.383 . S
C335 N334 1.376 . S
C335 C336 1.446 . S
C335 C358 1.391 . S
C336 C335 1.446 . S
C336 C337 1.339 . S
C336 H365 0.949 . S
C337 C336 1.339 . S
C337 C338 1.439 . S
C337 H366 0.950 . S
C338 N334 1.383 . S
C338 C337 1.439 . S
C338 C356 1.392 . S
N339 Co323 2.282 . S
N339 C342 1.332 . S
N339 C344 1.332 . S
C340 C341 1.386 . S
C340 C343 1.388 . S
C341 C340 1.386 . S
C341 C342 1.382 . S
C341 H367 0.950 . S
C342 N339 1.332 . S
C342 C341 1.382 . S
C342 H353 0.952 . S
C343 C340 1.388 . S
C343 C344 1.382 . S
C343 H368 0.950 . S
C344 N339 1.332 . S
C344 C343 1.382 . S
C344 H354 0.948 . S
N345 Co323 2.282 . S
N345 C349 1.332 . S
N345 C350 1.332 . S
C346 C347 1.388 . S
C346 C350 1.382 . S
C346 H369 0.950 . S
C347 C346 1.388 . S
C347 C348 1.386 . S
C348 C347 1.386 . S
C348 C349 1.382 . S
C348 H370 0.950 . S
C349 N345 1.332 . S
C349 C348 1.382 . S
C349 H351 0.952 . S
C350 N345 1.332 . S
C350 C346 1.382 . S
C350 H352 0.948 . S
H351 C349 0.952 . S
H352 C350 0.948 . S
H353 C342 0.952 . S
H354 C344 0.948 . S
C355 C321 1.395 . S
C355 C325 1.391 . S
C356 C318 1.389 . S
C356 C338 1.392 . S
C357 C328 1.392 . S
C357 C330 1.389 . S
C358 C333 1.395 . S
C358 C335 1.391 . S
H359 C319 0.951 . S
H360 C320 0.950 . S
H361 C326 0.949 . S
H362 C327 0.950 . S
H363 C331 0.951 . S
H364 C332 0.950 . S
H365 C336 0.949 . S
H366 C337 0.950 . S
H367 C341 0.950 . S
H368 C343 0.950 . S
H369 C346 0.950 . S
H370 C348 0.950 . S
C371 C372 1.443 . S
C371 N375 1.376 . S
C371 C409 1.389 . S
C372 C371 1.443 . S
C372 C373 1.340 . S
C372 H412 0.951 . S
C373 C372 1.340 . S
C373 C374 1.439 . S
C373 H413 0.950 . S
C374 C373 1.439 . S
C374 N375 1.374 . S
C374 C408 1.395 . S
N375 C371 1.376 . S
N375 C374 1.374 . S
N375 Co376 2.008 . S
Co376 N375 2.008 . S
Co376 N377 1.995 . S
Co376 N382 2.008 . S
Co376 N387 1.995 . S
Co376 N392 2.282 . S
Co376 N398 2.282 . S
N377 Co376 1.995 . S
N377 C378 1.376 . S
N377 C381 1.383 . S
C378 N377 1.376 . S
C378 C379 1.446 . S
C378 C408 1.391 . S
C379 C378 1.446 . S
C379 C380 1.339 . S
C379 H414 0.949 . S
C380 C379 1.339 . S
C380 C381 1.439 . S
C380 H415 0.950 . S
C381 N377 1.383 . S
C381 C380 1.439 . S
C381 C410 1.392 . S
N382 Co376 2.008 . S
N382 C383 1.376 . S
N382 C386 1.374 . S
C383 N382 1.376 . S
C383 C384 1.443 . S
C383 C410 1.389 . S
C384 C383 1.443 . S
C384 C385 1.340 . S
C384 H416 0.951 . S
C385 C384 1.340 . S
C385 C386 1.439 . S
C385 H417 0.950 . S
C386 N382 1.374 . S
C386 C385 1.439 . S
C386 C411 1.395 . S
N387 Co376 1.995 . S
N387 C388 1.376 . S
N387 C391 1.383 . S
C388 N387 1.376 . S
C388 C389 1.446 . S
C388 C411 1.391 . S
C389 C388 1.446 . S
C389 C390 1.339 . S
C389 H418 0.949 . S
C390 C389 1.339 . S
C390 C391 1.439 . S
C390 H419 0.950 . S
C391 N387 1.383 . S
C391 C390 1.439 . S
C391 C409 1.392 . S
N392 Co376 2.282 . S
N392 C395 1.332 . S
N392 C397 1.332 . S
C393 C394 1.386 . S
C393 C396 1.388 . S
C394 C393 1.386 . S
C394 C395 1.382 . S
C394 H420 0.950 . S
C395 N392 1.332 . S
C395 C394 1.382 . S
C395 H406 0.952 . S
C396 C393 1.388 . S
C396 C397 1.382 . S
C396 H421 0.950 . S
C397 N392 1.332 . S
C397 C396 1.382 . S
C397 H407 0.948 . S
N398 Co376 2.282 . S
N398 C402 1.332 . S
N398 C403 1.332 . S
C399 C400 1.388 . S
C399 C403 1.382 . S
C399 H422 0.950 . S
C400 C399 1.388 . S
C400 C401 1.386 . S
C401 C400 1.386 . S
C401 C402 1.382 . S
C401 H423 0.950 . S
C402 N398 1.332 . S
C402 C401 1.382 . S
C402 H404 0.952 . S
C403 N398 1.332 . S
C403 C399 1.382 . S
C403 H405 0.948 . S
H404 C402 0.952 . S
H405 C403 0.948 . S
H406 C395 0.952 . S
H407 C397 0.948 . S
C408 C374 1.395 . S
C408 C378 1.391 . S
C409 C371 1.389 . S
C409 C391 1.392 . S
C410 C381 1.392 . S
C410 C383 1.389 . S
C411 C386 1.395 . S
C411 C388 1.391 . S
H412 C372 0.951 . S
H413 C373 0.950 . S
H414 C379 0.949 . S
H415 C380 0.950 . S
H416 C384 0.951 . S
H417 C385 0.950 . S
H418 C389 0.949 . S
H419 C390 0.950 . S
H420 C394 0.950 . S
H421 C396 0.950 . S
H422 C399 0.950 . S
H423 C401 0.950 . S
C424 C425 1.443 . S
C424 N428 1.376 . S
C424 C462 1.389 . S
C425 C424 1.443 . S
C425 C426 1.340 . S
C425 H465 0.951 . S
C426 C425 1.340 . S
C426 C427 1.439 . S
C426 H466 0.950 . S
C427 C426 1.439 . S
C427 N428 1.374 . S
C427 C461 1.395 . S
N428 C424 1.376 . S
N428 C427 1.374 . S
N428 Co429 2.008 . S
Co429 N428 2.008 . S
Co429 N430 1.995 . S
Co429 N435 2.008 . S
Co429 N440 1.995 . S
Co429 N445 2.282 . S
Co429 N451 2.282 . S
N430 Co429 1.995 . S
N430 C431 1.376 . S
N430 C434 1.383 . S
C431 N430 1.376 . S
C431 C432 1.446 . S
C431 C461 1.391 . S
C432 C431 1.446 . S
C432 C433 1.339 . S
C432 H467 0.949 . S
C433 C432 1.339 . S
C433 C434 1.439 . S
C433 H468 0.950 . S
C434 N430 1.383 . S
C434 C433 1.439 . S
C434 C463 1.392 . S
N435 Co429 2.008 . S
N435 C436 1.376 . S
N435 C439 1.374 . S
C436 N435 1.376 . S
C436 C437 1.443 . S
C436 C463 1.389 . S
C437 C436 1.443 . S
C437 C438 1.340 . S
C437 H469 0.951 . S
C438 C437 1.340 . S
C438 C439 1.439 . S
C438 H470 0.950 . S
C439 N435 1.374 . S
C439 C438 1.439 . S
C439 C464 1.395 . S
N440 Co429 1.995 . S
N440 C441 1.376 . S
N440 C444 1.383 . S
C441 N440 1.376 . S
C441 C442 1.446 . S
C441 C464 1.391 . S
C442 C441 1.446 . S
C442 C443 1.339 . S
C442 H471 0.949 . S
C443 C442 1.339 . S
C443 C444 1.439 . S
C443 H472 0.950 . S
C444 N440 1.383 . S
C444 C443 1.439 . S
C444 C462 1.392 . S
N445 Co429 2.282 . S
N445 C448 1.332 . S
N445 C450 1.332 . S
C446 C447 1.386 . S
C446 C449 1.388 . S
C447 C446 1.386 . S
C447 C448 1.382 . S
C447 H473 0.950 . S
C448 N445 1.332 . S
C448 C447 1.382 . S
C448 H459 0.952 . S
C449 C446 1.388 . S
C449 C450 1.382 . S
C449 H474 0.950 . S
C450 N445 1.332 . S
C450 C449 1.382 . S
C450 H460 0.948 . S
N451 Co429 2.282 . S
N451 C455 1.332 . S
N451 C456 1.332 . S
C452 C453 1.388 . S
C452 C456 1.382 . S
C452 H475 0.950 . S
C453 C452 1.388 . S
C453 C454 1.386 . S
C454 C453 1.386 . S
C454 C455 1.382 . S
C454 H476 0.950 . S
C455 N451 1.332 . S
C455 C454 1.382 . S
C455 H457 0.952 . S
C456 N451 1.332 . S
C456 C452 1.382 . S
C456 H458 0.948 . S
H457 C455 0.952 . S
H458 C456 0.948 . S
H459 C448 0.952 . S
H460 C450 0.948 . S
C461 C427 1.395 . S
C461 C431 1.391 . S
C462 C424 1.389 . S
C462 C444 1.392 . S
C463 C434 1.392 . S
C463 C436 1.389 . S
C464 C439 1.395 . S
C464 C441 1.391 . S
H465 C425 0.951 . S
H466 C426 0.950 . S
H467 C432 0.949 . S
H468 C433 0.950 . S
H469 C437 0.951 . S
H470 C438 0.950 . S
H471 C442 0.949 . S
H472 C443 0.950 . S
H473 C447 0.950 . S
H474 C449 0.950 . S
H475 C452 0.950 . S
H476 C454 0.950 . S
C477 C478 1.443 . S
C477 N481 1.376 . S
C477 C515 1.389 . S
C478 C477 1.443 . S
C478 C479 1.340 . S
C478 H518 0.951 . S
C479 C478 1.340 . S
C479 C480 1.439 . S
C479 H519 0.950 . S
C480 C479 1.439 . S
C480 N481 1.374 . S
C480 C514 1.395 . S
N481 C477 1.376 . S
N481 C480 1.374 . S
N481 Co482 2.008 . S
Co482 N481 2.008 . S
Co482 N483 1.995 . S
Co482 N488 2.008 . S
Co482 N493 1.995 . S
Co482 N498 2.282 . S
Co482 N504 2.282 . S
N483 Co482 1.995 . S
N483 C484 1.376 . S
N483 C487 1.383 . S
C484 N483 1.376 . S
C484 C485 1.446 . S
C484 C514 1.391 . S
C485 C484 1.446 . S
C485 C486 1.339 . S
C485 H520 0.949 . S
C486 C485 1.339 . S
C486 C487 1.439 . S
C486 H521 0.950 . S
C487 N483 1.383 . S
C487 C486 1.439 . S
C487 C516 1.392 . S
N488 Co482 2.008 . S
N488 C489 1.376 . S
N488 C492 1.374 . S
C489 N488 1.376 . S
C489 C490 1.443 . S
C489 C516 1.389 . S
C490 C489 1.443 . S
C490 C491 1.340 . S
C490 H522 0.951 . S
C491 C490 1.340 . S
C491 C492 1.439 . S
C491 H523 0.950 . S
C492 N488 1.374 . S
C492 C491 1.439 . S
C492 C517 1.395 . S
N493 Co482 1.995 . S
N493 C494 1.376 . S
N493 C497 1.383 . S
C494 N493 1.376 . S
C494 C495 1.446 . S
C494 C517 1.391 . S
C495 C494 1.446 . S
C495 C496 1.339 . S
C495 H524 0.949 . S
C496 C495 1.339 . S
C496 C497 1.439 . S
C496 H525 0.950 . S
C497 N493 1.383 . S
C497 C496 1.439 . S
C497 C515 1.392 . S
N498 Co482 2.282 . S
N498 C501 1.332 . S
N498 C503 1.332 . S
C499 C500 1.386 . S
C499 C502 1.388 . S
C500 C499 1.386 . S
C500 C501 1.382 . S
C500 H526 0.950 . S
C501 N498 1.332 . S
C501 C500 1.382 . S
C501 H512 0.952 . S
C502 C499 1.388 . S
C502 C503 1.382 . S
C502 H527 0.950 . S
C503 N498 1.332 . S
C503 C502 1.382 . S
C503 H513 0.948 . S
N504 Co482 2.282 . S
N504 C508 1.332 . S
N504 C509 1.332 . S
C505 C506 1.388 . S
C505 C509 1.382 . S
C505 H528 0.950 . S
C506 C505 1.388 . S
C506 C507 1.386 . S
C507 C506 1.386 . S
C507 C508 1.382 . S
C507 H529 0.950 . S
C508 N504 1.332 . S
C508 C507 1.382 . S
C508 H510 0.952 . S
C509 N504 1.332 . S
C509 C505 1.382 . S
C509 H511 0.948 . S
H510 C508 0.952 . S
H511 C509 0.948 . S
H512 C501 0.952 . S
H513 C503 0.948 . S
C514 C480 1.395 . S
C514 C484 1.391 . S
C515 C477 1.389 . S
C515 C497 1.392 . S
C516 C487 1.392 . S
C516 C489 1.389 . S
C517 C492 1.395 . S
C517 C494 1.391 . S
H518 C478 0.951 . S
H519 C479 0.950 . S
H520 C485 0.949 . S
H521 C486 0.950 . S
H522 C490 0.951 . S
H523 C491 0.950 . S
H524 C495 0.949 . S
H525 C496 0.950 . S
H526 C500 0.950 . S
H527 C502 0.950 . S
H528 C505 0.950 . S
H529 C507 0.950 . S
C530 C531 1.443 . S
C530 N534 1.376 . S
C530 C568 1.389 . S
C531 C530 1.443 . S
C531 C532 1.340 . S
C531 H571 0.951 . S
C532 C531 1.340 . S
C532 C533 1.439 . S
C532 H572 0.950 . S
C533 C532 1.439 . S
C533 N534 1.374 . S
C533 C567 1.395 . S
N534 C530 1.376 . S
N534 C533 1.374 . S
N534 Co535 2.008 . S
Co535 N534 2.008 . S
Co535 N536 1.995 . S
Co535 N541 2.008 1_545 S
Co535 N546 1.995 1_545 S
Co535 N551 2.282 1_545 S
Co535 N557 2.282 . S
N536 Co535 1.995 . S
N536 C537 1.376 . S
N536 C540 1.383 . S
C537 N536 1.376 . S
C537 C538 1.446 . S
C537 C567 1.391 . S
C538 C537 1.446 . S
C538 C539 1.339 . S
C538 H573 0.949 . S
C539 C538 1.339 . S
C539 C540 1.439 . S
C539 H574 0.950 . S
C540 N536 1.383 . S
C540 C539 1.439 . S
C540 C569 1.392 1_545 S
N541 Co535 2.008 1_565 S
N541 C542 1.376 . S
N541 C545 1.374 . S
C542 N541 1.376 . S
C542 C543 1.443 . S
C542 C569 1.389 . S
C543 C542 1.443 . S
C543 C544 1.340 . S
C543 H575 0.951 . S
C544 C543 1.340 . S
C544 C545 1.439 . S
C544 H576 0.950 . S
C545 N541 1.374 . S
C545 C544 1.439 . S
C545 C570 1.395 . S
N546 Co535 1.995 1_565 S
N546 C547 1.376 . S
N546 C550 1.383 . S
C547 N546 1.376 . S
C547 C548 1.446 . S
C547 C570 1.391 . S
C548 C547 1.446 . S
C548 C549 1.339 . S
C548 H577 0.949 . S
C549 C548 1.339 . S
C549 C550 1.439 . S
C549 H578 0.950 . S
C550 N546 1.383 . S
C550 C549 1.439 . S
C550 C568 1.392 1_565 S
N551 Co535 2.282 1_565 S
N551 C554 1.332 . S
N551 C556 1.332 1_565 S
C552 C553 1.386 . S
C552 C555 1.388 1_565 S
C553 C552 1.386 . S
C553 C554 1.382 . S
C553 H579 0.950 . S
C554 N551 1.332 . S
C554 C553 1.382 . S
C554 H565 0.952 . S
C555 C552 1.388 1_545 S
C555 C556 1.382 . S
C555 H580 0.950 . S
C556 N551 1.332 1_545 S
C556 C555 1.382 . S
C556 H566 0.948 . S
N557 Co535 2.282 . S
N557 C561 1.332 . S
N557 C562 1.332 1_545 S
C558 C559 1.388 1_565 S
C558 C562 1.382 . S
C558 H581 0.950 . S
C559 C558 1.388 1_545 S
C559 C560 1.386 . S
C560 C559 1.386 . S
C560 C561 1.382 . S
C560 H582 0.950 . S
C561 N557 1.332 . S
C561 C560 1.382 . S
C561 H563 0.952 . S
C562 N557 1.332 1_565 S
C562 C558 1.382 . S
C562 H564 0.948 . S
H563 C561 0.952 . S
H564 C562 0.948 . S
H565 C554 0.952 . S
H566 C556 0.948 . S
C567 C533 1.395 . S
C567 C537 1.391 . S
C568 C530 1.389 . S
C568 C550 1.392 1_545 S
C569 C540 1.392 1_565 S
C569 C542 1.389 . S
C570 C545 1.395 . S
C570 C547 1.391 . S
H571 C531 0.951 . S
H572 C532 0.950 . S
H573 C538 0.949 . S
H574 C539 0.950 . S
H575 C543 0.951 . S
H576 C544 0.950 . S
H577 C548 0.949 . S
H578 C549 0.950 . S
H579 C553 0.950 . S
H580 C555 0.950 . S
H581 C558 0.950 . S
H582 C560 0.950 . S
C583 C584 1.443 . S
C583 N587 1.376 . S
C583 C621 1.389 . S
C584 C583 1.443 . S
C584 C585 1.340 . S
C584 H624 0.951 . S
C585 C584 1.340 . S
C585 C586 1.439 . S
C585 H625 0.950 . S
C586 C585 1.439 . S
C586 N587 1.374 . S
C586 C620 1.395 . S
N587 C583 1.376 . S
N587 C586 1.374 . S
N587 Co588 2.008 1_556 S
Co588 N587 2.008 1_554 S
Co588 N589 1.995 1_554 S
Co588 N594 2.008 . S
Co588 N599 1.995 . S
Co588 N604 2.282 . S
Co588 N610 2.282 1_554 S
N589 Co588 1.995 1_556 S
N589 C590 1.376 . S
N589 C593 1.383 . S
C590 N589 1.376 . S
C590 C591 1.446 . S
C590 C620 1.391 . S
C591 C590 1.446 . S
C591 C592 1.339 . S
C591 H626 0.949 . S
C592 C591 1.339 . S
C592 C593 1.439 . S
C592 H627 0.950 . S
C593 N589 1.383 . S
C593 C592 1.439 . S
C593 C622 1.392 1_556 S
N594 Co588 2.008 . S
N594 C595 1.376 . S
N594 C598 1.374 . S
C595 N594 1.376 . S
C595 C596 1.443 . S
C595 C622 1.389 . S
C596 C595 1.443 . S
C596 C597 1.340 . S
C596 H628 0.951 . S
C597 C596 1.340 . S
C597 C598 1.439 . S
C597 H629 0.950 . S
C598 N594 1.374 . S
C598 C597 1.439 . S
C598 C623 1.395 . S
N599 Co588 1.995 . S
N599 C600 1.376 . S
N599 C603 1.383 . S
C600 N599 1.376 . S
C600 C601 1.446 . S
C600 C623 1.391 . S
C601 C600 1.446 . S
C601 C602 1.339 . S
C601 H630 0.949 . S
C602 C601 1.339 . S
C602 C603 1.439 . S
C602 H631 0.950 . S
C603 N599 1.383 . S
C603 C602 1.439 . S
C603 C621 1.392 1_554 S
N604 Co588 2.282 . S
N604 C607 1.332 . S
N604 C609 1.332 1_554 S
C605 C606 1.386 . S
C605 C608 1.388 1_554 S
C606 C605 1.386 . S
C606 C607 1.382 . S
C606 H632 0.950 . S
C607 N604 1.332 . S
C607 C606 1.382 . S
C607 H618 0.952 . S
C608 C605 1.388 1_556 S
C608 C609 1.382 . S
C608 H633 0.950 . S
C609 N604 1.332 1_556 S
C609 C608 1.382 . S
C609 H619 0.948 . S
N610 Co588 2.282 1_556 S
N610 C614 1.332 . S
N610 C615 1.332 1_556 S
C611 C612 1.388 1_554 S
C611 C615 1.382 . S
C611 H634 0.950 . S
C612 C611 1.388 1_556 S
C612 C613 1.386 . S
C613 C612 1.386 . S
C613 C614 1.382 . S
C613 H635 0.950 . S
C614 N610 1.332 . S
C614 C613 1.382 . S
C614 H616 0.952 . S
C615 N610 1.332 1_554 S
C615 C611 1.382 . S
C615 H617 0.948 . S
H616 C614 0.952 . S
H617 C615 0.948 . S
H618 C607 0.952 . S
H619 C609 0.948 . S
C620 C586 1.395 . S
C620 C590 1.391 . S
C621 C583 1.389 . S
C621 C603 1.392 1_556 S
C622 C593 1.392 1_554 S
C622 C595 1.389 . S
C623 C598 1.395 . S
C623 C600 1.391 . S
H624 C584 0.951 . S
H625 C585 0.950 . S
H626 C591 0.949 . S
H627 C592 0.950 . S
H628 C596 0.951 . S
H629 C597 0.950 . S
H630 C601 0.949 . S
H631 C602 0.950 . S
H632 C606 0.950 . S
H633 C608 0.950 . S
H634 C611 0.950 . S
H635 C613 0.950 . S
Zn636 O642 1.920 . S
Zn636 O648 1.898 . S
Zn636 O651 1.905 . S
Zn637 O645 1.905 . S
Zn637 O646 1.898 . S
Zn637 O654 1.920 . S
Zn638 O641 2.080 . S
Zn638 O644 2.114 . S
Zn638 O647 2.120 . S
Zn638 O649 2.120 . S
Zn638 O650 2.114 . S
Zn638 O653 2.080 . S
C639 O644 1.166 . S
C639 O645 1.182 . S
C640 O646 1.167 . S
C640 O647 1.299 . S
O641 Zn638 2.080 . S
O641 C655 1.305 . S
O642 Zn636 1.920 . S
O642 C655 1.234 . S
C643 O648 1.167 . S
C643 O649 1.299 . S
O644 Zn638 2.114 . S
O644 C639 1.166 . S
O645 Zn637 1.905 . S
O645 C639 1.182 . S
O646 Zn637 1.898 . S
O646 C640 1.167 . S
O647 Zn638 2.120 . S
O647 C640 1.299 . S
O648 Zn636 1.898 . S
O648 C643 1.167 . S
O649 Zn638 2.120 . S
O649 C643 1.299 . S
O650 Zn638 2.114 . S
O650 C652 1.166 . S
O651 Zn636 1.905 . S
O651 C652 1.182 . S
C652 O650 1.166 . S
C652 O651 1.182 . S
O653 Zn638 2.080 . S
O653 C656 1.305 . S
O654 Zn637 1.920 . S
O654 C656 1.234 . S
C655 O641 1.305 . S
C655 O642 1.234 . S
C656 O653 1.305 . S
C656 O654 1.234 . S
Zn657 O663 1.920 1_655 S
Zn657 O669 1.898 . S
Zn657 O672 1.905 1_554 S
Zn658 O666 1.905 . S
Zn658 O667 1.898 . S
Zn658 O675 1.920 . S
Zn659 O662 2.080 . S
Zn659 O665 2.114 . S
Zn659 O668 2.120 . S
Zn659 O670 2.120 . S
Zn659 O671 2.114 . S
Zn659 O674 2.080 . S
C660 O665 1.166 . S
C660 O666 1.182 . S
C661 O667 1.167 . S
C661 O668 1.299 . S
O662 Zn659 2.080 . S
O662 C676 1.305 . S
O663 Zn657 1.920 1_455 S
O663 C676 1.234 1_455 S
C664 O669 1.167 . S
C664 O670 1.299 . S
O665 Zn659 2.114 . S
O665 C660 1.166 . S
O666 Zn658 1.905 . S
O666 C660 1.182 . S
O667 Zn658 1.898 . S
O667 C661 1.167 . S
O668 Zn659 2.120 . S
O668 C661 1.299 . S
O669 Zn657 1.898 . S
O669 C664 1.167 . S
O670 Zn659 2.120 . S
O670 C664 1.299 . S
O671 Zn659 2.114 . S
O671 C673 1.166 . S
O672 Zn657 1.905 1_556 S
O672 C673 1.182 1_556 S
C673 O671 1.166 . S
C673 O672 1.182 1_554 S
O674 Zn659 2.080 . S
O674 C677 1.305 . S
O675 Zn658 1.920 . S
O675 C677 1.234 . S
C676 O662 1.305 . S
C676 O663 1.234 1_655 S
C677 O674 1.305 . S
C677 O675 1.234 . S
Zn678 O684 1.920 . S
Zn678 O690 1.898 . S
Zn678 O693 1.905 1_455 S
Zn679 O687 1.905 . S
Zn679 O688 1.898 . S
Zn679 O696 1.920 . S
Zn680 O683 2.080 . S
Zn680 O686 2.114 . S
Zn680 O689 2.120 . S
Zn680 O691 2.120 . S
Zn680 O692 2.114 . S
Zn680 O695 2.080 . S
C681 O686 1.166 . S
C681 O687 1.182 . S
C682 O688 1.167 . S
C682 O689 1.299 . S
O683 Zn680 2.080 . S
O683 C697 1.305 . S
O684 Zn678 1.920 . S
O684 C697 1.234 . S
C685 O690 1.167 . S
C685 O691 1.299 . S
O686 Zn680 2.114 . S
O686 C681 1.166 . S
O687 Zn679 1.905 . S
O687 C681 1.182 . S
O688 Zn679 1.898 . S
O688 C682 1.167 . S
O689 Zn680 2.120 . S
O689 C682 1.299 . S
O690 Zn678 1.898 . S
O690 C685 1.167 . S
O691 Zn680 2.120 . S
O691 C685 1.299 . S
O692 Zn680 2.114 . S
O692 C694 1.166 . S
O693 Zn678 1.905 1_655 S
O693 C694 1.182 1_655 S
C694 O692 1.166 . S
C694 O693 1.182 1_455 S
O695 Zn680 2.080 . S
O695 C698 1.305 . S
O696 Zn679 1.920 . S
O696 C698 1.234 . S
C697 O683 1.305 . S
C697 O684 1.234 . S
C698 O695 1.305 . S
C698 O696 1.234 . S
Zn699 O705 1.920 . S
Zn699 O711 1.898 . S
Zn699 O714 1.905 . S
Zn700 O708 1.905 . S
Zn700 O709 1.898 1_655 S
Zn700 O717 1.920 . S
Zn701 O704 2.080 . S
Zn701 O707 2.114 . S
Zn701 O710 2.120 . S
Zn701 O712 2.120 . S
Zn701 O713 2.114 . S
Zn701 O716 2.080 . S
C702 O707 1.166 . S
C702 O708 1.182 . S
C703 O709 1.167 1_655 S
C703 O710 1.299 . S
O704 Zn701 2.080 . S
O704 C718 1.305 . S
O705 Zn699 1.920 . S
O705 C718 1.234 . S
C706 O711 1.167 . S
C706 O712 1.299 . S
O707 Zn701 2.114 . S
O707 C702 1.166 . S
O708 Zn700 1.905 . S
O708 C702 1.182 . S
O709 Zn700 1.898 1_455 S
O709 C703 1.167 1_455 S
O710 Zn701 2.120 . S
O710 C703 1.299 . S
O711 Zn699 1.898 . S
O711 C706 1.167 . S
O712 Zn701 2.120 . S
O712 C706 1.299 . S
O713 Zn701 2.114 . S
O713 C715 1.166 . S
O714 Zn699 1.905 . S
O714 C715 1.182 . S
C715 O713 1.166 . S
C715 O714 1.182 . S
O716 Zn701 2.080 . S
O716 C719 1.305 . S
O717 Zn700 1.920 . S
O717 C719 1.234 . S
C718 O704 1.305 . S
C718 O705 1.234 . S
C719 O716 1.305 . S
C719 O717 1.234 . S
Zn720 O726 1.920 . S
Zn720 O732 1.898 . S
Zn720 O735 1.905 . S
Zn721 O729 1.905 . S
Zn721 O730 1.898 . S
Zn721 O738 1.920 . S
Zn722 O725 2.080 . S
Zn722 O728 2.114 . S
Zn722 O731 2.120 . S
Zn722 O733 2.120 . S
Zn722 O734 2.114 . S
Zn722 O737 2.080 . S
C723 O728 1.166 . S
C723 O729 1.182 . S
C724 O730 1.167 . S
C724 O731 1.299 . S
O725 Zn722 2.080 . S
O725 C739 1.305 . S
O726 Zn720 1.920 . S
O726 C739 1.234 . S
C727 O732 1.167 . S
C727 O733 1.299 . S
O728 Zn722 2.114 . S
O728 C723 1.166 . S
O729 Zn721 1.905 . S
O729 C723 1.182 . S
O730 Zn721 1.898 . S
O730 C724 1.167 . S
O731 Zn722 2.120 . S
O731 C724 1.299 . S
O732 Zn720 1.898 . S
O732 C727 1.167 . S
O733 Zn722 2.120 . S
O733 C727 1.299 . S
O734 Zn722 2.114 . S
O734 C736 1.166 . S
O735 Zn720 1.905 . S
O735 C736 1.182 . S
C736 O734 1.166 . S
C736 O735 1.182 . S
O737 Zn722 2.080 . S
O737 C740 1.305 . S
O738 Zn721 1.920 . S
O738 C740 1.234 . S
C739 O725 1.305 . S
C739 O726 1.234 . S
C740 O737 1.305 . S
C740 O738 1.234 . S
Zn741 O747 1.920 . S
Zn741 O753 1.898 . S
Zn741 O756 1.905 . S
Zn742 O750 1.905 . S
Zn742 O751 1.898 . S
Zn742 O759 1.920 . S
Zn743 O746 2.080 . S
Zn743 O749 2.114 . S
Zn743 O752 2.120 . S
Zn743 O754 2.120 . S
Zn743 O755 2.114 . S
Zn743 O758 2.080 . S
C744 O749 1.166 . S
C744 O750 1.182 . S
C745 O751 1.167 . S
C745 O752 1.299 . S
O746 Zn743 2.080 . S
O746 C760 1.305 . S
O747 Zn741 1.920 . S
O747 C760 1.234 . S
C748 O753 1.167 . S
C748 O754 1.299 . S
O749 Zn743 2.114 . S
O749 C744 1.166 . S
O750 Zn742 1.905 . S
O750 C744 1.182 . S
O751 Zn742 1.898 . S
O751 C745 1.167 . S
O752 Zn743 2.120 . S
O752 C745 1.299 . S
O753 Zn741 1.898 . S
O753 C748 1.167 . S
O754 Zn743 2.120 . S
O754 C748 1.299 . S
O755 Zn743 2.114 . S
O755 C757 1.166 . S
O756 Zn741 1.905 . S
O756 C757 1.182 . S
C757 O755 1.166 . S
C757 O756 1.182 . S
O758 Zn743 2.080 . S
O758 C761 1.305 . S
O759 Zn742 1.920 . S
O759 C761 1.234 . S
C760 O746 1.305 . S
C760 O747 1.234 . S
C761 O758 1.305 . S
C761 O759 1.234 . S
Zn762 O768 1.920 . S
Zn762 O774 1.898 1_556 S
Zn762 O777 1.905 . S
Zn763 O771 1.905 . S
Zn763 O772 1.898 . S
Zn763 O780 1.920 . S
Zn764 O767 2.080 . S
Zn764 O770 2.114 . S
Zn764 O773 2.120 . S
Zn764 O775 2.120 . S
Zn764 O776 2.114 . S
Zn764 O779 2.080 . S
C765 O770 1.166 . S
C765 O771 1.182 . S
C766 O772 1.167 . S
C766 O773 1.299 . S
O767 Zn764 2.080 . S
O767 C781 1.305 . S
O768 Zn762 1.920 . S
O768 C781 1.234 . S
C769 O774 1.167 . S
C769 O775 1.299 1_554 S
O770 Zn764 2.114 . S
O770 C765 1.166 . S
O771 Zn763 1.905 . S
O771 C765 1.182 . S
O772 Zn763 1.898 . S
O772 C766 1.167 . S
O773 Zn764 2.120 . S
O773 C766 1.299 . S
O774 Zn762 1.898 1_554 S
O774 C769 1.167 . S
O775 Zn764 2.120 . S
O775 C769 1.299 1_556 S
O776 Zn764 2.114 . S
O776 C778 1.166 . S
O777 Zn762 1.905 . S
O777 C778 1.182 . S
C778 O776 1.166 . S
C778 O777 1.182 . S
O779 Zn764 2.080 . S
O779 C782 1.305 . S
O780 Zn763 1.920 . S
O780 C782 1.234 . S
C781 O767 1.305 . S
C781 O768 1.234 . S
C782 O779 1.305 . S
C782 O780 1.234 . S
Zn783 O789 1.920 . S
Zn783 O795 1.898 . S
Zn783 O798 1.905 . S
Zn784 O792 1.905 . S
Zn784 O793 1.898 . S
Zn784 O801 1.920 . S
Zn785 O788 2.080 . S
Zn785 O791 2.114 . S
Zn785 O794 2.120 . S
Zn785 O796 2.120 . S
Zn785 O797 2.114 . S
Zn785 O800 2.080 . S
C786 O791 1.166 . S
C786 O792 1.182 . S
C787 O793 1.167 . S
C787 O794 1.299 . S
O788 Zn785 2.080 . S
O788 C802 1.305 . S
O789 Zn783 1.920 . S
O789 C802 1.234 . S
C790 O795 1.167 . S
C790 O796 1.299 . S
O791 Zn785 2.114 . S
O791 C786 1.166 . S
O792 Zn784 1.905 . S
O792 C786 1.182 . S
O793 Zn784 1.898 . S
O793 C787 1.167 . S
O794 Zn785 2.120 . S
O794 C787 1.299 . S
O795 Zn783 1.898 . S
O795 C790 1.167 . S
O796 Zn785 2.120 . S
O796 C790 1.299 . S
O797 Zn785 2.114 . S
O797 C799 1.166 . S
O798 Zn783 1.905 . S
O798 C799 1.182 . S
C799 O797 1.166 . S
C799 O798 1.182 . S
O800 Zn785 2.080 . S
O800 C803 1.305 . S
O801 Zn784 1.920 . S
O801 C803 1.234 . S
C802 O788 1.305 . S
C802 O789 1.234 . S
C803 O800 1.305 . S
C803 O801 1.234 . S
H804 C812 0.929 . S
H805 C814 0.930 . S
H806 C816 0.930 1_655 S
H807 C819 0.929 1_655 S
H808 C822 0.930 . S
H809 C824 0.960 . S
H810 C824 0.960 1_455 S
H811 C824 0.960 . S
C812 H804 0.929 . S
C812 C813 1.377 . S
C812 C814 1.384 . S
C813 C812 1.377 . S
C813 C819 1.390 . S
C814 H805 0.930 . S
C814 C812 1.384 . S
C814 C815 1.372 . S
C815 C814 1.372 . S
C815 C816 1.400 . S
C815 C820 1.490 . S
C816 H806 0.930 1_455 S
C816 C815 1.400 . S
C816 C819 1.386 . S
H817 C833 0.930 . S
H818 C834 0.931 . S
C819 H807 0.929 1_455 S
C819 C813 1.390 . S
C819 C816 1.386 . S
C820 C815 1.490 . S
C820 C822 1.395 . S
C820 C823 1.403 . S
H821 C827 0.930 . S
C822 H808 0.930 . S
C822 C820 1.395 . S
C822 C825 1.403 . S
C823 C820 1.403 . S
C823 C824 1.524 1_455 S
C823 C827 1.400 . S
C824 H809 0.960 . S
C824 H810 0.960 1_655 S
C824 H811 0.960 . S
C824 C823 1.524 1_655 S
C825 C822 1.403 . S
C825 C826 1.392 . S
C825 C829 1.495 . S
C826 C825 1.392 . S
C826 C827 1.385 . S
C826 C828 1.478 . S
C827 H821 0.930 . S
C827 C823 1.400 . S
C827 C826 1.385 . S
C828 C826 1.478 . S
C828 C830 1.381 . S
C828 C834 1.383 . S
C829 C825 1.495 . S
C829 H835 0.959 . S
C829 H836 0.961 . S
C829 H837 0.960 . S
C830 C828 1.381 . S
C830 C831 1.394 . S
C830 H838 0.930 . S
C831 C830 1.394 . S
C831 C832 1.383 . S
C831 H839 0.929 . S
C832 C831 1.383 . S
C832 C833 1.377 . S
C833 H817 0.930 . S
C833 C832 1.377 . S
C833 C834 1.379 . S
C834 H818 0.931 . S
C834 C828 1.383 . S
C834 C833 1.379 . S
H835 C829 0.959 . S
H836 C829 0.961 . S
H837 C829 0.960 . S
H838 C830 0.930 . S
H839 C831 0.929 . S
H840 C848 0.929 1_455 S
H841 C850 0.930 . S
H842 C852 0.930 . S
H843 C855 0.929 . S
H844 C858 0.930 . S
H845 C860 0.960 . S
H846 C860 0.960 . S
H847 C860 0.960 . S
C848 H840 0.929 1_655 S
C848 C849 1.377 . S
C848 C850 1.384 . S
C849 C848 1.377 . S
C849 C855 1.390 . S
C850 H841 0.930 . S
C850 C848 1.384 . S
C850 C851 1.372 . S
C851 C850 1.372 . S
C851 C852 1.400 . S
C851 C856 1.490 . S
C852 H842 0.930 . S
C852 C851 1.400 . S
C852 C855 1.386 . S
H853 C869 0.930 . S
H854 C870 0.931 . S
C855 H843 0.929 . S
C855 C849 1.390 . S
C855 C852 1.386 . S
C856 C851 1.490 . S
C856 C858 1.395 . S
C856 C859 1.403 . S
H857 C863 0.930 . S
C858 H844 0.930 . S
C858 C856 1.395 . S
C858 C861 1.403 . S
C859 C856 1.403 . S
C859 C860 1.524 1_655 S
C859 C863 1.400 . S
C860 H845 0.960 . S
C860 H846 0.960 . S
C860 H847 0.960 . S
C860 C859 1.524 1_455 S
C861 C858 1.403 . S
C861 C862 1.392 . S
C861 C865 1.495 . S
C862 C861 1.392 . S
C862 C863 1.385 . S
C862 C864 1.478 . S
C863 H857 0.930 . S
C863 C859 1.400 . S
C863 C862 1.385 . S
C864 C862 1.478 . S
C864 C866 1.381 . S
C864 C870 1.383 . S
C865 C861 1.495 . S
C865 H871 0.959 . S
C865 H872 0.961 . S
C865 H873 0.960 . S
C866 C864 1.381 . S
C866 C867 1.394 . S
C866 H874 0.930 . S
C867 C866 1.394 . S
C867 C868 1.383 . S
C867 H875 0.929 . S
C868 C867 1.383 . S
C868 C869 1.377 . S
C869 H853 0.930 . S
C869 C868 1.377 . S
C869 C870 1.379 . S
C870 H854 0.931 . S
C870 C864 1.383 . S
C870 C869 1.379 . S
H871 C865 0.959 . S
H872 C865 0.961 . S
H873 C865 0.960 . S
H874 C866 0.930 . S
H875 C867 0.929 . S
H876 C884 0.929 . S
H877 C886 0.930 . S
H878 C888 0.930 . S
H879 C891 0.929 . S
H880 C894 0.930 . S
H881 C896 0.960 . S
H882 C896 0.960 . S
H883 C896 0.960 . S
C884 H876 0.929 . S
C884 C885 1.377 . S
C884 C886 1.384 . S
C885 C884 1.377 . S
C885 C891 1.390 . S
C886 H877 0.930 . S
C886 C884 1.384 . S
C886 C887 1.372 . S
C887 C886 1.372 . S
C887 C888 1.400 . S
C887 C892 1.490 . S
C888 H878 0.930 . S
C888 C887 1.400 . S
C888 C891 1.386 . S
H889 C905 0.930 1_545 S
H890 C906 0.931 . S
C891 H879 0.929 . S
C891 C885 1.390 . S
C891 C888 1.386 . S
C892 C887 1.490 . S
C892 C894 1.395 . S
C892 C895 1.403 . S
H893 C899 0.930 . S
C894 H880 0.930 . S
C894 C892 1.395 . S
C894 C897 1.403 . S
C895 C892 1.403 . S
C895 C896 1.524 . S
C895 C899 1.400 . S
C896 H881 0.960 . S
C896 H882 0.960 . S
C896 H883 0.960 . S
C896 C895 1.524 . S
C897 C894 1.403 . S
C897 C898 1.392 . S
C897 C901 1.495 . S
C898 C897 1.392 . S
C898 C899 1.385 . S
C898 C900 1.478 . S
C899 H893 0.930 . S
C899 C895 1.400 . S
C899 C898 1.385 . S
C900 C898 1.478 . S
C900 C902 1.381 . S
C900 C906 1.383 . S
C901 C897 1.495 . S
C901 H907 0.959 1_455 S
C901 H908 0.963 . S
C901 H909 0.960 . S
C902 C900 1.381 . S
C902 C903 1.394 . S
C902 H910 0.930 . S
C903 C902 1.394 . S
C903 C904 1.401 . S
C903 H911 0.929 . S
C904 C903 1.401 . S
C904 C905 1.381 . S
C905 H889 0.930 1_565 S
C905 C904 1.381 . S
C905 C906 1.379 . S
C906 H890 0.931 . S
C906 C900 1.383 . S
C906 C905 1.379 . S
H907 C901 0.959 1_655 S
H908 C901 0.963 . S
H909 C901 0.960 . S
H910 C902 0.930 . S
H911 C903 0.929 . S
H912 C920 0.929 . S
H913 C922 0.930 . S
H914 C924 0.930 . S
H915 C927 0.929 . S
H916 C930 0.930 1_455 S
H917 C932 0.960 . S
H918 C932 0.960 . S
H919 C932 0.960 . S
C920 H912 0.929 . S
C920 C921 1.377 1_455 S
C920 C922 1.384 . S
C921 C920 1.377 1_655 S
C921 C927 1.390 . S
C922 H913 0.930 . S
C922 C920 1.384 . S
C922 C923 1.372 1_455 S
C923 C922 1.372 1_655 S
C923 C924 1.400 . S
C923 C928 1.490 . S
C924 H914 0.930 . S
C924 C923 1.400 . S
C924 C927 1.386 . S
H925 C941 0.930 . S
H926 C942 0.931 . S
C927 H915 0.929 . S
C927 C921 1.390 . S
C927 C924 1.386 . S
C928 C923 1.490 . S
C928 C930 1.395 . S
C928 C931 1.403 . S
H929 C935 0.930 . S
C930 H916 0.930 1_655 S
C930 C928 1.395 . S
C930 C933 1.403 . S
C931 C928 1.403 . S
C931 C932 1.524 . S
C931 C935 1.400 . S
C932 H917 0.960 . S
C932 H918 0.960 . S
C932 H919 0.960 . S
C932 C931 1.524 . S
C933 C930 1.403 . S
C933 C934 1.392 . S
C933 C937 1.495 1_655 S
C934 C933 1.392 . S
C934 C935 1.385 . S
C934 C936 1.478 . S
C935 H929 0.930 . S
C935 C931 1.400 . S
C935 C934 1.385 . S
C936 C934 1.478 . S
C936 C938 1.381 . S
C936 C942 1.383 . S
C937 C933 1.495 1_455 S
C937 H943 0.959 . S
C937 H944 0.961 1_455 S
C937 H945 0.960 . S
C938 C936 1.381 . S
C938 C939 1.394 . S
C938 H946 0.930 1_655 S
C939 C938 1.394 . S
C939 C940 1.383 . S
C939 H947 0.929 . S
C940 C939 1.383 . S
C940 C941 1.377 . S
C941 H925 0.930 . S
C941 C940 1.377 . S
C941 C942 1.379 . S
C942 H926 0.931 . S
C942 C936 1.383 . S
C942 C941 1.379 . S
H943 C937 0.959 . S
H944 C937 0.961 1_655 S
H945 C937 0.960 . S
H946 C938 0.930 1_455 S
H947 C939 0.929 . S
H948 C956 0.929 . S
H949 C958 0.930 . S
H950 C960 0.930 . S
H951 C963 0.929 . S
H952 C966 0.930 . S
H953 C968 0.960 . S
H954 C968 0.960 . S
H955 C968 0.960 . S
C956 H948 0.929 . S
C956 C957 1.377 . S
C956 C958 1.384 . S
C957 C956 1.377 . S
C957 C963 1.390 . S
C958 H949 0.930 . S
C958 C956 1.384 . S
C958 C959 1.372 . S
C959 C958 1.372 . S
C959 C960 1.400 . S
C959 C964 1.490 . S
C960 H950 0.930 . S
C960 C959 1.400 . S
C960 C963 1.386 . S
H961 C977 0.930 . S
H962 C978 0.931 . S
C963 H951 0.929 . S
C963 C957 1.390 . S
C963 C960 1.386 . S
C964 C959 1.490 . S
C964 C966 1.395 . S
C964 C967 1.403 . S
H965 C971 0.930 . S
C966 H952 0.930 . S
C966 C964 1.395 . S
C966 C969 1.403 . S
C967 C964 1.403 . S
C967 C968 1.524 . S
C967 C971 1.400 . S
C968 H953 0.960 . S
C968 H954 0.960 . S
C968 H955 0.960 . S
C968 C967 1.524 . S
C969 C966 1.403 . S
C969 C970 1.392 . S
C969 C973 1.495 1_545 S
C970 C969 1.392 . S
C970 C971 1.385 . S
C970 C972 1.478 . S
C971 H965 0.930 . S
C971 C967 1.400 . S
C971 C970 1.385 . S
C972 C970 1.478 . S
C972 C974 1.381 . S
C972 C978 1.383 . S
C973 C969 1.495 1_565 S
C973 H979 0.959 . S
C973 H980 0.961 . S
C973 H981 0.960 . S
C974 C972 1.381 . S
C974 C975 1.394 . S
C974 H982 0.930 . S
C975 C974 1.394 . S
C975 C976 1.383 . S
C975 H983 0.929 . S
C976 C975 1.383 . S
C976 C977 1.377 . S
C977 H961 0.930 . S
C977 C976 1.377 . S
C977 C978 1.379 . S
C978 H962 0.931 . S
C978 C972 1.383 . S
C978 C977 1.379 . S
H979 C973 0.959 . S
H980 C973 0.961 . S
H981 C973 0.960 . S
H982 C974 0.930 . S
H983 C975 0.929 . S
H984 C992 0.929 . S
H985 C994 0.930 . S
H986 C996 0.930 . S
H987 C999 0.929 . S
H988 C1002 0.930 . S
H989 C1004 0.960 . S
H990 C1004 0.960 . S
H991 C1004 0.960 . S
C992 H984 0.929 . S
C992 C993 1.377 . S
C992 C994 1.384 . S
C993 C992 1.377 . S
C993 C999 1.390 . S
C994 H985 0.930 . S
C994 C992 1.384 . S
C994 C995 1.372 . S
C995 C994 1.372 . S
C995 C996 1.400 . S
C995 C1000 1.490 . S
C996 H986 0.930 . S
C996 C995 1.400 . S
C996 C999 1.386 . S
H997 C1013 0.930 . S
H998 C1014 0.931 . S
C999 H987 0.929 . S
C999 C993 1.390 . S
C999 C996 1.386 . S
C1000 C995 1.490 . S
C1000 C1002 1.395 . S
C1000 C1003 1.403 . S
H1001 C1007 0.930 . S
C1002 H988 0.930 . S
C1002 C1000 1.395 . S
C1002 C1005 1.403 . S
C1003 C1000 1.403 . S
C1003 C1004 1.524 . S
C1003 C1007 1.400 . S
C1004 H989 0.960 . S
C1004 H990 0.960 . S
C1004 H991 0.960 . S
C1004 C1003 1.524 . S
C1005 C1002 1.403 . S
C1005 C1006 1.392 . S
C1005 C1009 1.495 . S
C1006 C1005 1.392 . S
C1006 C1007 1.385 . S
C1006 C1008 1.478 . S
C1007 H1001 0.930 . S
C1007 C1003 1.400 . S
C1007 C1006 1.385 . S
C1008 C1006 1.478 . S
C1008 C1010 1.381 . S
C1008 C1014 1.383 . S
C1009 C1005 1.495 . S
C1009 H1015 0.959 . S
C1009 H1016 0.961 . S
C1009 H1017 0.960 . S
C1010 C1008 1.381 . S
C1010 C1011 1.394 . S
C1010 H1018 0.930 . S
C1011 C1010 1.394 . S
C1011 C1012 1.383 . S
C1011 H1019 0.929 . S
C1012 C1011 1.383 . S
C1012 C1013 1.377 . S
C1013 H997 0.930 . S
C1013 C1012 1.377 . S
C1013 C1014 1.379 . S
C1014 H998 0.931 . S
C1014 C1008 1.383 . S
C1014 C1013 1.379 . S
H1015 C1009 0.959 . S
H1016 C1009 0.961 . S
H1017 C1009 0.960 . S
H1018 C1010 0.930 . S
H1019 C1011 0.929 . S
H1020 C1028 0.929 . S
H1021 C1030 0.930 . S
H1022 C1032 0.930 . S
H1023 C1035 0.929 1_545 S
H1024 C1038 0.930 . S
H1025 C1040 0.960 . S
H1026 C1040 0.960 . S
H1027 C1040 0.960 . S
C1028 H1020 0.929 . S
C1028 C1029 1.377 . S
C1028 C1030 1.384 . S
C1029 C1028 1.377 . S
C1029 C1035 1.390 . S
C1030 H1021 0.930 . S
C1030 C1028 1.384 . S
C1030 C1031 1.372 . S
C1031 C1030 1.372 . S
C1031 C1032 1.400 . S
C1031 C1036 1.490 . S
C1032 H1022 0.930 . S
C1032 C1031 1.400 . S
C1032 C1035 1.386 . S
H1033 C1049 0.930 . S
H1034 C1050 0.931 . S
C1035 H1023 0.929 1_565 S
C1035 C1029 1.390 . S
C1035 C1032 1.386 . S
C1036 C1031 1.490 . S
C1036 C1038 1.395 . S
C1036 C1039 1.403 . S
H1037 C1043 0.941 . S
C1038 H1024 0.930 . S
C1038 C1036 1.395 . S
C1038 C1041 1.403 . S
C1039 C1036 1.403 . S
C1039 C1040 1.524 1_565 S
C1039 C1043 1.400 . S
C1040 H1025 0.960 . S
C1040 H1026 0.960 . S
C1040 H1027 0.960 . S
C1040 C1039 1.524 1_545 S
C1041 C1038 1.403 . S
C1041 C1042 1.392 . S
C1041 C1045 1.495 . S
C1042 C1041 1.392 . S
C1042 C1043 1.385 . S
C1042 C1044 1.478 . S
C1043 H1037 0.941 . S
C1043 C1039 1.400 . S
C1043 C1042 1.385 . S
C1044 C1042 1.478 . S
C1044 C1046 1.381 . S
C1044 C1050 1.383 . S
C1045 C1041 1.495 . S
C1045 H1051 0.959 . S
C1045 H1052 0.961 . S
C1045 H1053 0.960 . S
C1046 C1044 1.381 . S
C1046 C1047 1.394 . S
C1046 H1054 0.930 . S
C1047 C1046 1.394 . S
C1047 C1048 1.383 . S
C1047 H1055 0.929 . S
C1048 C1047 1.383 . S
C1048 C1049 1.377 . S
C1049 H1033 0.930 . S
C1049 C1048 1.377 . S
C1049 C1050 1.379 . S
C1050 H1034 0.931 . S
C1050 C1044 1.383 . S
C1050 C1049 1.379 . S
H1051 C1045 0.959 . S
H1052 C1045 0.961 . S
H1053 C1045 0.960 . S
H1054 C1046 0.930 . S
H1055 C1047 0.929 . S
H1056 C1064 0.929 . S
H1057 C1066 0.930 . S
H1058 C1068 0.930 . S
H1059 C1071 0.929 . S
H1060 C1074 0.930 . S
H1061 C1076 0.960 . S
H1062 C1076 0.960 . S
H1063 C1076 0.960 . S
C1064 H1056 0.929 . S
C1064 C1065 1.377 . S
C1064 C1066 1.384 . S
C1065 C1064 1.377 . S
C1065 C1071 1.390 . S
C1066 H1057 0.930 . S
C1066 C1064 1.384 . S
C1066 C1067 1.372 . S
C1067 C1066 1.372 . S
C1067 C1068 1.400 . S
C1067 C1072 1.490 . S
C1068 H1058 0.930 . S
C1068 C1067 1.400 . S
C1068 C1071 1.386 . S
H1069 C1085 0.930 . S
H1070 C1086 0.931 . S
C1071 H1059 0.929 . S
C1071 C1065 1.390 . S
C1071 C1068 1.386 . S
C1072 C1067 1.490 . S
C1072 C1074 1.395 . S
C1072 C1075 1.403 . S
H1073 C1079 0.930 . S
C1074 H1060 0.930 . S
C1074 C1072 1.395 . S
C1074 C1077 1.403 . S
C1075 C1072 1.403 . S
C1075 C1076 1.524 . S
C1075 C1079 1.400 . S
C1076 H1061 0.960 . S
C1076 H1062 0.960 . S
C1076 H1063 0.960 . S
C1076 C1075 1.524 . S
C1077 C1074 1.403 . S
C1077 C1078 1.392 . S
C1077 C1081 1.495 . S
C1078 C1077 1.392 . S
C1078 C1079 1.385 . S
C1078 C1080 1.478 . S
C1079 H1073 0.930 . S
C1079 C1075 1.400 . S
C1079 C1078 1.385 . S
C1080 C1078 1.478 . S
C1080 C1082 1.381 . S
C1080 C1086 1.383 . S
C1081 C1077 1.495 . S
C1081 H1087 0.959 . S
C1081 H1088 0.961 . S
C1081 H1089 0.960 . S
C1082 C1080 1.381 . S
C1082 C1083 1.394 . S
C1082 H1090 0.930 . S
C1083 C1082 1.394 . S
C1083 C1084 1.383 . S
C1083 H1091 0.929 . S
C1084 C1083 1.383 . S
C1084 C1085 1.377 . S
C1085 H1069 0.930 . S
C1085 C1084 1.377 . S
C1085 C1086 1.379 . S
C1086 H1070 0.931 . S
C1086 C1080 1.383 . S
C1086 C1085 1.379 . S
H1087 C1081 0.959 . S
H1088 C1081 0.961 . S
H1089 C1081 0.960 . S
H1090 C1082 0.930 . S
H1091 C1083 0.929 . S
H1092 C1100 0.929 . S
H1093 C1102 0.930 . S
H1094 C1104 0.930 . S
H1095 C1107 0.929 1_556 S
H1096 C1110 0.930 . S
H1097 C1112 0.960 . S
H1098 C1112 0.960 . S
H1099 C1112 0.960 . S
C1100 H1092 0.929 . S
C1100 C1101 1.377 . S
C1100 C1102 1.384 . S
C1101 C1100 1.377 . S
C1101 C1107 1.390 . S
C1102 H1093 0.930 . S
C1102 C1100 1.384 . S
C1102 C1103 1.372 . S
C1103 C1102 1.372 . S
C1103 C1104 1.400 . S
C1103 C1108 1.490 . S
C1104 H1094 0.930 . S
C1104 C1103 1.400 . S
C1104 C1107 1.386 . S
H1105 C1121 0.930 . S
H1106 C1122 0.931 . S
C1107 H1095 0.929 1_554 S
C1107 C1101 1.390 . S
C1107 C1104 1.386 . S
C1108 C1103 1.490 . S
C1108 C1110 1.395 . S
C1108 C1111 1.403 . S
H1109 C1115 0.930 . S
C1110 H1096 0.930 . S
C1110 C1108 1.395 . S
C1110 C1113 1.403 . S
C1111 C1108 1.403 . S
C1111 C1112 1.524 . S
C1111 C1115 1.400 . S
C1112 H1097 0.960 . S
C1112 H1098 0.960 . S
C1112 H1099 0.960 . S
C1112 C1111 1.524 . S
C1113 C1110 1.403 . S
C1113 C1114 1.392 . S
C1113 C1117 1.495 . S
C1114 C1113 1.392 . S
C1114 C1115 1.385 . S
C1114 C1116 1.478 . S
C1115 H1109 0.930 . S
C1115 C1111 1.400 . S
C1115 C1114 1.385 . S
C1116 C1114 1.478 . S
C1116 C1118 1.381 . S
C1116 C1122 1.383 . S
C1117 C1113 1.495 . S
C1117 H1123 0.959 . S
C1117 H1124 0.961 . S
C1117 H1125 0.960 . S
C1118 C1116 1.381 . S
C1118 C1119 1.394 . S
C1118 H1126 0.930 . S
C1119 C1118 1.394 . S
C1119 C1120 1.383 . S
C1119 H1127 0.929 . S
C1120 C1119 1.383 . S
C1120 C1121 1.377 . S
C1121 H1105 0.930 . S
C1121 C1120 1.377 . S
C1121 C1122 1.379 . S
C1122 H1106 0.931 . S
C1122 C1116 1.383 . S
C1122 C1121 1.379 . S
H1123 C1117 0.959 . S
H1124 C1117 0.961 . S
H1125 C1117 0.960 . S
H1126 C1118 0.930 . S
H1127 C1119 0.929 . S
H1128 C1136 0.929 . S
H1129 C1138 0.930 . S
H1130 C1140 0.930 . S
H1131 C1143 0.929 . S
H1132 C1146 0.930 . S
H1133 C1148 0.960 . S
H1134 C1148 0.960 . S
H1135 C1148 0.960 . S
C1136 H1128 0.929 . S
C1136 C1137 1.377 . S
C1136 C1138 1.384 . S
C1137 C1136 1.377 . S
C1137 C1143 1.390 . S
C1138 H1129 0.930 . S
C1138 C1136 1.384 . S
C1138 C1139 1.372 . S
C1139 C1138 1.372 . S
C1139 C1140 1.400 . S
C1139 C1144 1.490 . S
C1140 H1130 0.930 . S
C1140 C1139 1.400 . S
C1140 C1143 1.386 . S
H1141 C1157 0.930 . S
H1142 C1158 0.931 . S
C1143 H1131 0.929 . S
C1143 C1137 1.390 . S
C1143 C1140 1.386 . S
C1144 C1139 1.490 . S
C1144 C1146 1.395 . S
C1144 C1147 1.403 . S
H1145 C1151 0.930 . S
C1146 H1132 0.930 . S
C1146 C1144 1.395 . S
C1146 C1149 1.403 . S
C1147 C1144 1.403 . S
C1147 C1148 1.524 . S
C1147 C1151 1.400 . S
C1148 H1133 0.960 . S
C1148 H1134 0.960 . S
C1148 H1135 0.960 . S
C1148 C1147 1.524 . S
C1149 C1146 1.403 . S
C1149 C1150 1.392 . S
C1149 C1153 1.495 . S
C1150 C1149 1.392 . S
C1150 C1151 1.385 . S
C1150 C1152 1.478 . S
C1151 H1145 0.930 . S
C1151 C1147 1.400 . S
C1151 C1150 1.385 . S
C1152 C1150 1.478 . S
C1152 C1154 1.381 . S
C1152 C1158 1.383 . S
C1153 C1149 1.495 . S
C1153 H1159 0.959 . S
C1153 H1160 0.961 . S
C1153 H1161 0.960 . S
C1154 C1152 1.381 . S
C1154 C1155 1.394 . S
C1154 H1162 0.930 . S
C1155 C1154 1.394 . S
C1155 C1156 1.383 . S
C1155 H1163 0.929 . S
C1156 C1155 1.383 . S
C1156 C1157 1.377 . S
C1157 H1141 0.930 . S
C1157 C1156 1.377 . S
C1157 C1158 1.379 . S
C1158 H1142 0.931 . S
C1158 C1152 1.383 . S
C1158 C1157 1.379 . S
H1159 C1153 0.959 . S
H1160 C1153 0.961 . S
H1161 C1153 0.960 . S
H1162 C1154 0.930 . S
H1163 C1155 0.929 . S
H1164 C1172 0.929 . S
H1165 C1174 0.930 . S
H1166 C1176 0.930 . S
H1167 C1179 0.929 . S
H1168 C1182 0.930 . S
H1169 C1184 0.960 . S
H1170 C1184 0.960 . S
H1171 C1184 0.960 . S
C1172 H1164 0.929 . S
C1172 C1173 1.377 . S
C1172 C1174 1.384 . S
C1173 C1172 1.377 . S
C1173 C1179 1.390 . S
C1174 H1165 0.930 . S
C1174 C1172 1.384 . S
C1174 C1175 1.372 . S
C1175 C1174 1.372 . S
C1175 C1176 1.400 . S
C1175 C1180 1.490 . S
C1176 H1166 0.930 . S
C1176 C1175 1.400 . S
C1176 C1179 1.386 . S
H1177 C1193 0.930 . S
H1178 C1194 0.931 . S
C1179 H1167 0.929 . S
C1179 C1173 1.390 . S
C1179 C1176 1.386 . S
C1180 C1175 1.490 . S
C1180 C1182 1.395 . S
C1180 C1183 1.403 . S
H1181 C1187 0.930 . S
C1182 H1168 0.930 . S
C1182 C1180 1.395 . S
C1182 C1185 1.403 . S
C1183 C1180 1.403 . S
C1183 C1184 1.524 . S
C1183 C1187 1.400 . S
C1184 H1169 0.960 . S
C1184 H1170 0.960 . S
C1184 H1171 0.960 . S
C1184 C1183 1.524 . S
C1185 C1182 1.403 . S
C1185 C1186 1.392 . S
C1185 C1189 1.495 . S
C1186 C1185 1.392 . S
C1186 C1187 1.385 . S
C1186 C1188 1.478 . S
C1187 H1181 0.930 . S
C1187 C1183 1.400 . S
C1187 C1186 1.385 . S
C1188 C1186 1.478 . S
C1188 C1190 1.381 . S
C1188 C1194 1.383 . S
C1189 C1185 1.495 . S
C1189 H1195 0.959 . S
C1189 H1196 0.961 . S
C1189 H1197 0.960 . S
C1190 C1188 1.381 . S
C1190 C1191 1.394 . S
C1190 H1198 0.930 . S
C1191 C1190 1.394 . S
C1191 C1192 1.383 . S
C1191 H1199 0.929 . S
C1192 C1191 1.383 . S
C1192 C1193 1.377 . S
C1193 H1177 0.930 . S
C1193 C1192 1.377 . S
C1193 C1194 1.379 . S
C1194 H1178 0.931 . S
C1194 C1188 1.383 . S
C1194 C1193 1.379 . S
H1195 C1189 0.959 . S
H1196 C1189 0.961 . S
H1197 C1189 0.960 . S
H1198 C1190 0.930 . S
H1199 C1191 0.929 . S
H1200 C1208 0.929 . S
H1201 C1210 0.930 . S
H1202 C1212 0.930 . S
H1203 C1215 0.929 . S
H1204 C1218 0.930 . S
H1205 C1220 0.960 . S
H1206 C1220 0.960 . S
H1207 C1220 0.960 . S
C1208 H1200 0.929 . S
C1208 C1209 1.377 . S
C1208 C1210 1.384 . S
C1209 C1208 1.377 . S
C1209 C1215 1.390 . S
C1210 H1201 0.930 . S
C1210 C1208 1.384 . S
C1210 C1211 1.372 . S
C1211 C1210 1.372 . S
C1211 C1212 1.400 . S
C1211 C1216 1.490 . S
C1212 H1202 0.930 . S
C1212 C1211 1.400 . S
C1212 C1215 1.386 . S
H1213 C1229 0.930 . S
H1214 C1230 0.931 . S
C1215 H1203 0.929 . S
C1215 C1209 1.390 . S
C1215 C1212 1.386 . S
C1216 C1211 1.490 . S
C1216 C1218 1.395 . S
C1216 C1219 1.403 . S
H1217 C1223 0.930 . S
C1218 H1204 0.930 . S
C1218 C1216 1.395 . S
C1218 C1221 1.403 . S
C1219 C1216 1.403 . S
C1219 C1220 1.524 . S
C1219 C1223 1.400 . S
C1220 H1205 0.960 . S
C1220 H1206 0.960 . S
C1220 H1207 0.960 . S
C1220 C1219 1.524 . S
C1221 C1218 1.403 . S
C1221 C1222 1.392 . S
C1221 C1225 1.495 . S
C1222 C1221 1.392 . S
C1222 C1223 1.385 . S
C1222 C1224 1.478 . S
C1223 H1217 0.930 . S
C1223 C1219 1.400 . S
C1223 C1222 1.385 . S
C1224 C1222 1.478 . S
C1224 C1226 1.381 . S
C1224 C1230 1.383 . S
C1225 C1221 1.495 . S
C1225 H1231 0.959 . S
C1225 H1232 0.961 . S
C1225 H1233 0.960 . S
C1226 C1224 1.381 . S
C1226 C1227 1.394 . S
C1226 H1234 0.930 . S
C1227 C1226 1.394 . S
C1227 C1228 1.383 . S
C1227 H1235 0.929 . S
C1228 C1227 1.383 . S
C1228 C1229 1.377 . S
C1229 H1213 0.930 . S
C1229 C1228 1.377 . S
C1229 C1230 1.379 . S
C1230 H1214 0.931 . S
C1230 C1224 1.383 . S
C1230 C1229 1.379 . S
H1231 C1225 0.959 . S
H1232 C1225 0.961 . S
H1233 C1225 0.960 . S
H1234 C1226 0.930 . S
H1235 C1227 0.929 . S
H1236 C1244 0.929 . S
H1237 C1246 0.930 . S
H1238 C1248 0.930 . S
H1239 C1251 0.929 . S
H1240 C1254 0.930 . S
H1241 C1256 0.960 . S
H1242 C1256 0.960 . S
H1243 C1256 0.960 . S
C1244 H1236 0.929 . S
C1244 C1245 1.377 . S
C1244 C1246 1.384 . S
C1245 C1244 1.377 . S
C1245 C1251 1.390 . S
C1246 H1237 0.930 . S
C1246 C1244 1.384 . S
C1246 C1247 1.372 . S
C1247 C1246 1.372 . S
C1247 C1248 1.400 . S
C1247 C1252 1.490 . S
C1248 H1238 0.930 . S
C1248 C1247 1.400 . S
C1248 C1251 1.386 . S
H1249 C1265 0.930 . S
H1250 C1266 0.931 . S
C1251 H1239 0.929 . S
C1251 C1245 1.390 . S
C1251 C1248 1.386 . S
C1252 C1247 1.490 . S
C1252 C1254 1.395 . S
C1252 C1255 1.403 . S
H1253 C1259 0.930 . S
C1254 H1240 0.930 . S
C1254 C1252 1.395 . S
C1254 C1257 1.403 . S
C1255 C1252 1.403 . S
C1255 C1256 1.524 . S
C1255 C1259 1.400 . S
C1256 H1241 0.960 . S
C1256 H1242 0.960 . S
C1256 H1243 0.960 . S
C1256 C1255 1.524 . S
C1257 C1254 1.403 . S
C1257 C1258 1.392 . S
C1257 C1261 1.495 . S
C1258 C1257 1.392 . S
C1258 C1259 1.385 . S
C1258 C1260 1.478 . S
C1259 H1253 0.930 . S
C1259 C1255 1.400 . S
C1259 C1258 1.385 . S
C1260 C1258 1.478 . S
C1260 C1262 1.381 . S
C1260 C1266 1.383 . S
C1261 C1257 1.495 . S
C1261 H1267 0.959 . S
C1261 H1268 0.961 . S
C1261 H1269 0.960 . S
C1262 C1260 1.381 . S
C1262 C1263 1.394 . S
C1262 H1270 0.930 . S
C1263 C1262 1.394 . S
C1263 C1264 1.383 . S
C1263 H1271 0.929 . S
C1264 C1263 1.383 . S
C1264 C1265 1.377 . S
C1265 H1249 0.930 . S
C1265 C1264 1.377 . S
C1265 C1266 1.379 . S
C1266 H1250 0.931 . S
C1266 C1260 1.383 . S
C1266 C1265 1.379 . S
H1267 C1261 0.959 . S
H1268 C1261 0.961 . S
H1269 C1261 0.960 . S
H1270 C1262 0.930 . S
H1271 C1263 0.929 . S
H1272 C1280 0.929 . S
H1273 C1282 0.930 . S
H1274 C1284 0.930 . S
H1275 C1287 0.929 . S
H1276 C1290 0.930 . S
H1277 C1292 0.960 . S
H1278 C1292 0.960 . S
H1279 C1292 0.960 . S
C1280 H1272 0.929 . S
C1280 C1281 1.377 . S
C1280 C1282 1.384 . S
C1281 C1280 1.377 . S
C1281 C1287 1.390 . S
C1282 H1273 0.930 . S
C1282 C1280 1.384 . S
C1282 C1283 1.372 . S
C1283 C1282 1.372 . S
C1283 C1284 1.400 . S
C1283 C1288 1.490 . S
C1284 H1274 0.930 . S
C1284 C1283 1.400 . S
C1284 C1287 1.386 . S
H1285 C1301 0.930 . S
H1286 C1302 0.931 . S
C1287 H1275 0.929 . S
C1287 C1281 1.390 . S
C1287 C1284 1.386 . S
C1288 C1283 1.490 . S
C1288 C1290 1.395 . S
C1288 C1291 1.403 . S
H1289 C1295 0.930 . S
C1290 H1276 0.930 . S
C1290 C1288 1.395 . S
C1290 C1293 1.403 . S
C1291 C1288 1.403 . S
C1291 C1292 1.524 . S
C1291 C1295 1.400 . S
C1292 H1277 0.960 . S
C1292 H1278 0.960 . S
C1292 H1279 0.960 . S
C1292 C1291 1.524 . S
C1293 C1290 1.403 . S
C1293 C1294 1.392 . S
C1293 C1297 1.495 . S
C1294 C1293 1.392 . S
C1294 C1295 1.385 . S
C1294 C1296 1.478 . S
C1295 H1289 0.930 . S
C1295 C1291 1.400 . S
C1295 C1294 1.385 . S
C1296 C1294 1.478 . S
C1296 C1298 1.381 . S
C1296 C1302 1.383 . S
C1297 C1293 1.495 . S
C1297 H1303 0.959 . S
C1297 H1304 0.961 . S
C1297 H1305 0.960 . S
C1298 C1296 1.381 . S
C1298 C1299 1.394 . S
C1298 H1306 0.930 . S
C1299 C1298 1.394 . S
C1299 C1300 1.383 . S
C1299 H1307 0.929 . S
C1300 C1299 1.383 . S
C1300 C1301 1.377 . S
C1301 H1285 0.930 . S
C1301 C1300 1.377 . S
C1301 C1302 1.379 . S
C1302 H1286 0.931 . S
C1302 C1296 1.383 . S
C1302 C1301 1.379 . S
H1303 C1297 0.959 . S
H1304 C1297 0.961 . S
H1305 C1297 0.960 . S
H1306 C1298 0.930 . S
H1307 C1299 0.929 . S
H1308 C1316 0.929 . S
H1309 C1318 0.930 . S
H1310 C1320 0.930 . S
H1311 C1323 0.929 . S
H1312 C1326 0.930 . S
H1313 C1328 0.960 . S
H1314 C1328 0.960 . S
H1315 C1328 0.960 . S
C1316 H1308 0.929 . S
C1316 C1317 1.377 . S
C1316 C1318 1.384 . S
C1317 C1316 1.377 . S
C1317 C1323 1.390 . S
C1318 H1309 0.930 . S
C1318 C1316 1.384 . S
C1318 C1319 1.372 . S
C1319 C1318 1.372 . S
C1319 C1320 1.400 . S
C1319 C1324 1.490 . S
C1320 H1310 0.930 . S
C1320 C1319 1.400 . S
C1320 C1323 1.386 . S
H1321 C1337 0.930 . S
H1322 C1338 0.931 . S
C1323 H1311 0.929 . S
C1323 C1317 1.390 . S
C1323 C1320 1.386 . S
C1324 C1319 1.490 . S
C1324 C1326 1.395 . S
C1324 C1327 1.403 . S
H1325 C1331 0.930 . S
C1326 H1312 0.930 . S
C1326 C1324 1.395 . S
C1326 C1329 1.403 . S
C1327 C1324 1.403 . S
C1327 C1328 1.524 . S
C1327 C1331 1.400 . S
C1328 H1313 0.960 . S
C1328 H1314 0.960 . S
C1328 H1315 0.960 . S
C1328 C1327 1.524 . S
C1329 C1326 1.403 . S
C1329 C1330 1.392 . S
C1329 C1333 1.495 . S
C1330 C1329 1.392 . S
C1330 C1331 1.385 . S
C1330 C1332 1.478 . S
C1331 H1325 0.930 . S
C1331 C1327 1.400 . S
C1331 C1330 1.385 . S
C1332 C1330 1.478 . S
C1332 C1334 1.381 . S
C1332 C1338 1.383 . S
C1333 C1329 1.495 . S
C1333 H1339 0.959 . S
C1333 H1340 0.961 . S
C1333 H1341 0.960 . S
C1334 C1332 1.381 . S
C1334 C1335 1.394 . S
C1334 H1342 0.930 . S
C1335 C1334 1.394 . S
C1335 C1336 1.383 . S
C1335 H1343 0.929 . S
C1336 C1335 1.383 . S
C1336 C1337 1.377 . S
C1337 H1321 0.930 . S
C1337 C1336 1.377 . S
C1337 C1338 1.379 . S
C1338 H1322 0.931 . S
C1338 C1332 1.383 . S
C1338 C1337 1.379 . S
H1339 C1333 0.959 . S
H1340 C1333 0.961 . S
H1341 C1333 0.960 . S
H1342 C1334 0.930 . S
H1343 C1335 0.929 . S
H1344 C1352 0.929 . S
H1345 C1354 0.930 . S
H1346 C1356 0.930 . S
H1347 C1359 0.929 . S
H1348 C1362 0.930 . S
H1349 C1364 0.960 . S
H1350 C1364 0.960 . S
H1351 C1364 0.960 . S
C1352 H1344 0.929 . S
C1352 C1353 1.377 . S
C1352 C1354 1.384 . S
C1353 C1352 1.377 . S
C1353 C1359 1.390 . S
C1354 H1345 0.930 . S
C1354 C1352 1.384 . S
C1354 C1355 1.372 . S
C1355 C1354 1.372 . S
C1355 C1356 1.400 . S
C1355 C1360 1.490 . S
C1356 H1346 0.930 . S
C1356 C1355 1.400 . S
C1356 C1359 1.386 . S
H1357 C1373 0.930 . S
H1358 C1374 0.931 . S
C1359 H1347 0.929 . S
C1359 C1353 1.390 . S
C1359 C1356 1.386 . S
C1360 C1355 1.490 . S
C1360 C1362 1.395 . S
C1360 C1363 1.403 . S
H1361 C1367 0.930 . S
C1362 H1348 0.930 . S
C1362 C1360 1.395 . S
C1362 C1365 1.403 . S
C1363 C1360 1.403 . S
C1363 C1364 1.524 . S
C1363 C1367 1.400 . S
C1364 H1349 0.960 . S
C1364 H1350 0.960 . S
C1364 H1351 0.960 . S
C1364 C1363 1.524 . S
C1365 C1362 1.403 . S
C1365 C1366 1.392 . S
C1365 C1369 1.495 . S
C1366 C1365 1.392 . S
C1366 C1367 1.385 . S
C1366 C1368 1.478 . S
C1367 H1361 0.930 . S
C1367 C1363 1.400 . S
C1367 C1366 1.385 . S
C1368 C1366 1.478 . S
C1368 C1370 1.381 . S
C1368 C1374 1.383 . S
C1369 C1365 1.495 . S
C1369 H1375 0.959 . S
C1369 H1376 0.961 . S
C1369 H1377 0.960 . S
C1370 C1368 1.381 . S
C1370 C1371 1.394 . S
C1370 H1378 0.930 . S
C1371 C1370 1.394 . S
C1371 C1372 1.383 . S
C1371 H1379 0.929 . S
C1372 C1371 1.383 . S
C1372 C1373 1.377 . S
C1373 H1357 0.930 . S
C1373 C1372 1.377 . S
C1373 C1374 1.379 . S
C1374 H1358 0.931 . S
C1374 C1368 1.383 . S
C1374 C1373 1.379 . S
H1375 C1369 0.959 . S
H1376 C1369 0.961 . S
H1377 C1369 0.960 . S
H1378 C1370 0.930 . S
H1379 C1371 0.929 . S
H1380 C1388 0.929 . S
H1381 C1390 0.930 . S
H1382 C1392 0.930 . S
H1383 C1395 0.929 . S
H1384 C1398 0.930 . S
H1385 C1400 0.960 . S
H1386 C1400 0.960 . S
H1387 C1400 0.960 . S
C1388 H1380 0.929 . S
C1388 C1389 1.377 . S
C1388 C1390 1.384 . S
C1389 C1388 1.377 . S
C1389 C1395 1.390 . S
C1390 H1381 0.930 . S
C1390 C1388 1.384 . S
C1390 C1391 1.372 . S
C1391 C1390 1.372 . S
C1391 C1392 1.400 . S
C1391 C1396 1.490 . S
C1392 H1382 0.930 . S
C1392 C1391 1.400 . S
C1392 C1395 1.386 . S
H1393 C1409 0.930 . S
H1394 C1410 0.931 . S
C1395 H1383 0.929 . S
C1395 C1389 1.390 . S
C1395 C1392 1.386 . S
C1396 C1391 1.490 . S
C1396 C1398 1.395 . S
C1396 C1399 1.403 . S
H1397 C1403 0.930 . S
C1398 H1384 0.930 . S
C1398 C1396 1.395 . S
C1398 C1401 1.403 . S
C1399 C1396 1.403 . S
C1399 C1400 1.524 . S
C1399 C1403 1.400 . S
C1400 H1385 0.960 . S
C1400 H1386 0.960 . S
C1400 H1387 0.960 . S
C1400 C1399 1.524 . S
C1401 C1398 1.403 . S
C1401 C1402 1.392 . S
C1401 C1405 1.495 . S
C1402 C1401 1.392 . S
C1402 C1403 1.385 . S
C1402 C1404 1.478 . S
C1403 H1397 0.930 . S
C1403 C1399 1.400 . S
C1403 C1402 1.385 . S
C1404 C1402 1.478 . S
C1404 C1406 1.381 . S
C1404 C1410 1.383 . S
C1405 C1401 1.495 . S
C1405 H1411 0.959 . S
C1405 H1412 0.961 . S
C1405 H1413 0.960 . S
C1406 C1404 1.381 . S
C1406 C1407 1.394 . S
C1406 H1414 0.930 . S
C1407 C1406 1.394 . S
C1407 C1408 1.383 . S
C1407 H1415 0.929 . S
C1408 C1407 1.383 . S
C1408 C1409 1.377 . S
C1409 H1393 0.930 . S
C1409 C1408 1.377 . S
C1409 C1410 1.379 . S
C1410 H1394 0.931 . S
C1410 C1404 1.383 . S
C1410 C1409 1.379 . S
H1411 C1405 0.959 . S
H1412 C1405 0.961 . S
H1413 C1405 0.960 . S
H1414 C1406 0.930 . S
H1415 C1407 0.929 . S
H1416 C1424 0.929 . S
H1417 C1426 0.930 . S
H1418 C1428 0.930 1_545 S
H1419 C1431 0.929 1_545 S
H1420 C1434 0.930 . S
H1421 C1436 0.962 . S
H1422 C1436 0.959 1_565 S
H1423 C1436 0.962 . S
C1424 H1416 0.929 . S
C1424 C1425 1.377 . S
C1424 C1426 1.384 . S
C1425 C1424 1.377 . S
C1425 C1431 1.390 . S
C1426 H1417 0.930 . S
C1426 C1424 1.384 . S
C1426 C1427 1.372 . S
C1427 C1426 1.372 . S
C1427 C1428 1.400 . S
C1427 C1432 1.490 . S
C1428 H1418 0.930 1_565 S
C1428 C1427 1.400 . S
C1428 C1431 1.386 . S
H1429 C1445 0.930 . S
H1430 C1446 0.931 . S
C1431 H1419 0.929 1_565 S
C1431 C1425 1.390 . S
C1431 C1428 1.386 . S
C1432 C1427 1.490 . S
C1432 C1434 1.395 . S
C1432 C1435 1.403 . S
H1433 C1439 0.930 . S
C1434 H1420 0.930 . S
C1434 C1432 1.395 . S
C1434 C1437 1.403 . S
C1435 C1432 1.403 . S
C1435 C1436 1.521 1_565 S
C1435 C1439 1.400 . S
C1436 H1421 0.962 . S
C1436 H1422 0.959 1_545 S
C1436 H1423 0.962 . S
C1436 C1435 1.521 1_545 S
C1437 C1434 1.403 . S
C1437 C1438 1.392 . S
C1437 C1441 1.495 . S
C1438 C1437 1.392 . S
C1438 C1439 1.385 . S
C1438 C1440 1.478 . S
C1439 H1433 0.930 . S
C1439 C1435 1.400 . S
C1439 C1438 1.385 . S
C1440 C1438 1.478 . S
C1440 C1442 1.381 . S
C1440 C1446 1.383 . S
C1441 C1437 1.495 . S
C1441 H1447 0.959 . S
C1441 H1448 0.961 . S
C1441 H1449 0.960 . S
C1442 C1440 1.381 . S
C1442 C1443 1.394 . S
C1442 H1450 0.930 . S
C1443 C1442 1.394 . S
C1443 C1444 1.383 . S
C1443 H1451 0.929 . S
C1444 C1443 1.383 . S
C1444 C1445 1.377 . S
C1445 H1429 0.930 . S
C1445 C1444 1.377 . S
C1445 C1446 1.379 . S
C1446 H1430 0.931 . S
C1446 C1440 1.383 . S
C1446 C1445 1.379 . S
H1447 C1441 0.959 . S
H1448 C1441 0.961 . S
H1449 C1441 0.960 . S
H1450 C1442 0.930 . S
H1451 C1443 0.929 . S
H1452 C1460 0.929 . S
H1453 C1462 0.930 . S
H1454 C1464 0.930 . S
H1455 C1467 0.929 . S
H1456 C1470 0.930 . S
H1457 C1472 0.960 . S
H1458 C1472 0.960 . S
H1459 C1472 0.960 . S
C1460 H1452 0.929 . S
C1460 C1461 1.377 . S
C1460 C1462 1.384 . S
C1461 C1460 1.377 . S
C1461 C1467 1.390 . S
C1462 H1453 0.930 . S
C1462 C1460 1.384 . S
C1462 C1463 1.372 . S
C1463 C1462 1.372 . S
C1463 C1464 1.400 . S
C1463 C1468 1.490 . S
C1464 H1454 0.930 . S
C1464 C1463 1.400 . S
C1464 C1467 1.386 . S
H1465 C1481 0.930 . S
H1466 C1482 0.931 . S
C1467 H1455 0.929 . S
C1467 C1461 1.390 . S
C1467 C1464 1.386 . S
C1468 C1463 1.490 . S
C1468 C1470 1.395 . S
C1468 C1471 1.403 . S
H1469 C1475 0.930 . S
C1470 H1456 0.930 . S
C1470 C1468 1.395 . S
C1470 C1473 1.403 . S
C1471 C1468 1.403 . S
C1471 C1472 1.524 . S
C1471 C1475 1.400 . S
C1472 H1457 0.960 . S
C1472 H1458 0.960 . S
C1472 H1459 0.960 . S
C1472 C1471 1.524 . S
C1473 C1470 1.403 . S
C1473 C1474 1.392 . S
C1473 C1477 1.495 . S
C1474 C1473 1.392 . S
C1474 C1475 1.385 . S
C1474 C1476 1.478 . S
C1475 H1469 0.930 . S
C1475 C1471 1.400 . S
C1475 C1474 1.385 . S
C1476 C1474 1.478 . S
C1476 C1478 1.381 . S
C1476 C1482 1.383 . S
C1477 C1473 1.495 . S
C1477 H1483 0.959 . S
C1477 H1484 0.961 . S
C1477 H1485 0.960 . S
C1478 C1476 1.381 . S
C1478 C1479 1.394 . S
C1478 H1486 0.930 . S
C1479 C1478 1.394 . S
C1479 C1480 1.383 . S
C1479 H1487 0.929 . S
C1480 C1479 1.383 . S
C1480 C1481 1.377 . S
C1481 H1465 0.930 . S
C1481 C1480 1.377 . S
C1481 C1482 1.379 . S
C1482 H1466 0.931 . S
C1482 C1476 1.383 . S
C1482 C1481 1.379 . S
H1483 C1477 0.959 . S
H1484 C1477 0.961 . S
H1485 C1477 0.960 . S
H1486 C1478 0.930 . S
H1487 C1479 0.929 . S
H1488 C1496 0.929 . S
H1489 C1498 0.930 . S
H1490 C1500 0.930 . S
H1491 C1503 0.929 . S
H1492 C1506 0.930 . S
H1493 C1508 0.960 . S
H1494 C1508 0.960 . S
H1495 C1508 0.960 . S
C1496 H1488 0.929 . S
C1496 C1497 1.377 . S
C1496 C1498 1.384 . S
C1497 C1496 1.377 . S
C1497 C1503 1.390 . S
C1498 H1489 0.930 . S
C1498 C1496 1.384 . S
C1498 C1499 1.372 . S
C1499 C1498 1.372 . S
C1499 C1500 1.400 . S
C1499 C1504 1.490 . S
C1500 H1490 0.930 . S
C1500 C1499 1.400 . S
C1500 C1503 1.386 . S
H1501 C1517 0.930 . S
H1502 C1518 0.931 . S
C1503 H1491 0.929 . S
C1503 C1497 1.390 . S
C1503 C1500 1.386 . S
C1504 C1499 1.490 . S
C1504 C1506 1.395 . S
C1504 C1507 1.403 . S
H1505 C1511 0.930 . S
C1506 H1492 0.930 . S
C1506 C1504 1.395 . S
C1506 C1509 1.403 . S
C1507 C1504 1.403 . S
C1507 C1508 1.524 1_545 S
C1507 C1511 1.400 . S
C1508 H1493 0.960 . S
C1508 H1494 0.960 . S
C1508 H1495 0.960 . S
C1508 C1507 1.524 1_565 S
C1509 C1506 1.403 . S
C1509 C1510 1.392 . S
C1509 C1513 1.495 . S
C1510 C1509 1.392 . S
C1510 C1511 1.385 . S
C1510 C1512 1.478 . S
C1511 H1505 0.930 . S
C1511 C1507 1.400 . S
C1511 C1510 1.385 . S
C1512 C1510 1.478 . S
C1512 C1514 1.381 . S
C1512 C1518 1.383 . S
C1513 C1509 1.495 . S
C1513 H1519 0.959 . S
C1513 H1520 0.961 . S
C1513 H1521 0.960 . S
C1514 C1512 1.381 . S
C1514 C1515 1.394 . S
C1514 H1522 0.930 . S
C1515 C1514 1.394 . S
C1515 C1516 1.383 . S
C1515 H1523 0.929 . S
C1516 C1515 1.383 . S
C1516 C1517 1.377 . S
C1517 H1501 0.930 . S
C1517 C1516 1.377 . S
C1517 C1518 1.379 . S
C1518 H1502 0.931 . S
C1518 C1512 1.383 . S
C1518 C1517 1.379 . S
H1519 C1513 0.959 . S
H1520 C1513 0.961 . S
H1521 C1513 0.960 . S
H1522 C1514 0.930 . S
H1523 C1515 0.929 . S
H1524 C1532 0.929 . S
H1525 C1534 0.930 . S
H1526 C1536 0.930 . S
H1527 C1539 0.929 . S
H1528 C1542 0.930 . S
H1529 C1544 0.960 . S
H1530 C1544 0.960 . S
H1531 C1544 0.960 . S
C1532 H1524 0.929 . S
C1532 C1533 1.377 . S
C1532 C1534 1.384 . S
C1533 C1532 1.377 . S
C1533 C1539 1.390 . S
C1534 H1525 0.930 . S
C1534 C1532 1.384 . S
C1534 C1535 1.372 . S
C1535 C1534 1.372 . S
C1535 C1536 1.400 . S
C1535 C1540 1.490 . S
C1536 H1526 0.930 . S
C1536 C1535 1.400 . S
C1536 C1539 1.386 . S
H1537 C1553 0.930 . S
H1538 C1554 0.931 . S
C1539 H1527 0.929 . S
C1539 C1533 1.390 . S
C1539 C1536 1.386 . S
C1540 C1535 1.490 . S
C1540 C1542 1.395 . S
C1540 C1543 1.403 . S
H1541 C1547 0.930 . S
C1542 H1528 0.930 . S
C1542 C1540 1.395 . S
C1542 C1545 1.403 . S
C1543 C1540 1.403 . S
C1543 C1544 1.524 . S
C1543 C1547 1.400 . S
C1544 H1529 0.960 . S
C1544 H1530 0.960 . S
C1544 H1531 0.960 . S
C1544 C1543 1.524 . S
C1545 C1542 1.403 . S
C1545 C1546 1.392 . S
C1545 C1549 1.495 . S
C1546 C1545 1.392 . S
C1546 C1547 1.385 . S
C1546 C1548 1.478 . S
C1547 H1541 0.930 . S
C1547 C1543 1.400 . S
C1547 C1546 1.385 . S
C1548 C1546 1.478 . S
C1548 C1550 1.381 . S
C1548 C1554 1.383 . S
C1549 C1545 1.495 . S
C1549 H1555 0.959 . S
C1549 H1556 0.961 . S
C1549 H1557 0.960 . S
C1550 C1548 1.381 . S
C1550 C1551 1.394 . S
C1550 H1558 0.930 . S
C1551 C1550 1.394 . S
C1551 C1552 1.383 . S
C1551 H1559 0.929 . S
C1552 C1551 1.383 . S
C1552 C1553 1.377 . S
C1553 H1537 0.930 . S
C1553 C1552 1.377 . S
C1553 C1554 1.379 . S
C1554 H1538 0.931 . S
C1554 C1548 1.383 . S
C1554 C1553 1.379 . S
H1555 C1549 0.959 . S
H1556 C1549 0.961 . S
H1557 C1549 0.960 . S
H1558 C1550 0.930 . S
H1559 C1551 0.929 . S
H1560 C1568 0.929 . S
H1561 C1570 0.930 . S
H1562 C1572 0.930 1_554 S
H1563 C1575 0.929 . S
H1564 C1578 0.930 . S
H1565 C1580 0.960 . S
H1566 C1580 0.960 1_556 S
H1567 C1580 0.960 . S
C1568 H1560 0.929 . S
C1568 C1569 1.377 . S
C1568 C1570 1.384 . S
C1569 C1568 1.377 . S
C1569 C1575 1.390 1_556 S
C1570 H1561 0.930 . S
C1570 C1568 1.384 . S
C1570 C1571 1.372 . S
C1571 C1570 1.372 . S
C1571 C1572 1.400 . S
C1571 C1576 1.490 . S
C1572 H1562 0.930 1_556 S
C1572 C1571 1.400 . S
C1572 C1575 1.386 1_556 S
H1573 C1589 0.930 . S
H1574 C1590 0.931 . S
C1575 H1563 0.929 . S
C1575 C1569 1.390 1_554 S
C1575 C1572 1.386 1_554 S
C1576 C1571 1.490 . S
C1576 C1578 1.395 . S
C1576 C1579 1.403 . S
H1577 C1583 0.930 . S
C1578 H1564 0.930 . S
C1578 C1576 1.395 . S
C1578 C1581 1.403 . S
C1579 C1576 1.403 . S
C1579 C1580 1.524 1_556 S
C1579 C1583 1.400 . S
C1580 H1565 0.960 . S
C1580 H1566 0.960 1_554 S
C1580 H1567 0.960 . S
C1580 C1579 1.524 1_554 S
C1581 C1578 1.403 . S
C1581 C1582 1.392 . S
C1581 C1585 1.495 . S
C1582 C1581 1.392 . S
C1582 C1583 1.385 . S
C1582 C1584 1.478 . S
C1583 H1577 0.930 . S
C1583 C1579 1.400 . S
C1583 C1582 1.385 . S
C1584 C1582 1.478 . S
C1584 C1586 1.381 . S
C1584 C1590 1.383 . S
C1585 C1581 1.495 . S
C1585 H1591 0.959 . S
C1585 H1592 0.961 . S
C1585 H1593 0.960 . S
C1586 C1584 1.381 . S
C1586 C1587 1.394 . S
C1586 H1594 0.930 . S
C1587 C1586 1.394 . S
C1587 C1588 1.383 . S
C1587 H1595 0.929 . S
C1588 C1587 1.383 . S
C1588 C1589 1.377 . S
C1589 H1573 0.930 . S
C1589 C1588 1.377 . S
C1589 C1590 1.379 . S
C1590 H1574 0.931 . S
C1590 C1584 1.383 . S
C1590 C1589 1.379 . S
H1591 C1585 0.959 . S
H1592 C1585 0.961 . S
H1593 C1585 0.960 . S
H1594 C1586 0.930 . S
H1595 C1587 0.929 . S
H1596 C1604 0.929 . S
H1597 C1606 0.930 . S
H1598 C1608 0.930 . S
H1599 C1611 0.929 . S
H1600 C1614 0.930 . S
H1601 C1616 0.960 . S
H1602 C1616 0.960 . S
H1603 C1616 0.960 . S
C1604 H1596 0.929 . S
C1604 C1605 1.377 1_554 S
C1604 C1606 1.384 . S
C1605 C1604 1.377 1_556 S
C1605 C1611 1.390 . S
C1606 H1597 0.930 . S
C1606 C1604 1.384 . S
C1606 C1607 1.372 1_554 S
C1607 C1606 1.372 1_556 S
C1607 C1608 1.400 . S
C1607 C1612 1.490 . S
C1608 H1598 0.930 . S
C1608 C1607 1.400 . S
C1608 C1611 1.386 . S
H1609 C1625 0.930 . S
H1610 C1626 0.931 . S
C1611 H1599 0.929 . S
C1611 C1605 1.390 . S
C1611 C1608 1.386 . S
C1612 C1607 1.490 . S
C1612 C1614 1.395 . S
C1612 C1615 1.403 . S
H1613 C1619 0.930 . S
C1614 H1600 0.930 . S
C1614 C1612 1.395 . S
C1614 C1617 1.403 . S
C1615 C1612 1.403 . S
C1615 C1616 1.524 . S
C1615 C1619 1.400 . S
C1616 H1601 0.960 . S
C1616 H1602 0.960 . S
C1616 H1603 0.960 . S
C1616 C1615 1.524 . S
C1617 C1614 1.403 . S
C1617 C1618 1.392 . S
C1617 C1621 1.495 . S
C1618 C1617 1.392 . S
C1618 C1619 1.385 . S
C1618 C1620 1.478 . S
C1619 H1613 0.930 . S
C1619 C1615 1.400 . S
C1619 C1618 1.385 . S
C1620 C1618 1.478 . S
C1620 C1622 1.404 . S
C1620 C1626 1.383 . S
C1621 C1617 1.495 . S
C1621 H1627 0.959 . S
C1621 H1628 0.961 . S
C1621 H1629 0.960 1_556 S
C1622 C1620 1.404 . S
C1622 C1623 1.398 . S
C1622 H1630 0.903 1_556 S
C1623 C1622 1.398 . S
C1623 C1624 1.383 . S
C1623 H1631 0.929 1_556 S
C1624 C1623 1.383 . S
C1624 C1625 1.377 . S
C1625 H1609 0.930 . S
C1625 C1624 1.377 . S
C1625 C1626 1.379 . S
C1626 H1610 0.931 . S
C1626 C1620 1.383 . S
C1626 C1625 1.379 . S
H1627 C1621 0.959 . S
H1628 C1621 0.961 . S
H1629 C1621 0.960 1_554 S
H1630 C1622 0.903 1_554 S
H1631 C1623 0.929 1_554 S
H1632 C1640 0.929 . S
H1633 C1642 0.930 . S
H1634 C1644 0.930 . S
H1635 C1647 0.933 . S
H1636 C1650 0.930 . S
H1637 C1652 0.960 . S
H1638 C1652 0.960 . S
H1639 C1652 0.960 . S
C1640 H1632 0.929 . S
C1640 C1641 1.377 . S
C1640 C1642 1.384 . S
C1641 C1640 1.377 . S
C1641 C1647 1.390 . S
C1642 H1633 0.930 . S
C1642 C1640 1.384 . S
C1642 C1643 1.372 . S
C1643 C1642 1.372 . S
C1643 C1644 1.400 . S
C1643 C1648 1.490 . S
C1644 H1634 0.930 . S
C1644 C1643 1.400 . S
C1644 C1647 1.386 . S
H1645 C1661 0.930 . S
H1646 C1662 0.931 . S
C1647 H1635 0.933 . S
C1647 C1641 1.390 . S
C1647 C1644 1.386 . S
C1648 C1643 1.490 . S
C1648 C1650 1.395 . S
C1648 C1651 1.403 . S
H1649 C1655 0.930 . S
C1650 H1636 0.930 . S
C1650 C1648 1.395 . S
C1650 C1653 1.403 . S
C1651 C1648 1.403 . S
C1651 C1652 1.524 1_554 S
C1651 C1655 1.400 . S
C1652 H1637 0.960 . S
C1652 H1638 0.960 . S
C1652 H1639 0.960 . S
C1652 C1651 1.524 1_556 S
C1653 C1650 1.403 . S
C1653 C1654 1.392 . S
C1653 C1657 1.495 . S
C1654 C1653 1.392 . S
C1654 C1655 1.385 . S
C1654 C1656 1.478 . S
C1655 H1649 0.930 . S
C1655 C1651 1.400 . S
C1655 C1654 1.385 . S
C1656 C1654 1.478 . S
C1656 C1658 1.381 . S
C1656 C1662 1.383 . S
C1657 C1653 1.495 . S
C1657 H1663 0.959 . S
C1657 H1664 0.961 . S
C1657 H1665 0.960 . S
C1658 C1656 1.381 . S
C1658 C1659 1.394 1_655 S
C1658 H1666 0.930 . S
C1659 C1658 1.394 1_455 S
C1659 C1660 1.383 . S
C1659 H1667 0.929 . S
C1660 C1659 1.383 . S
C1660 C1661 1.377 1_455 S
C1661 H1645 0.930 . S
C1661 C1660 1.377 1_655 S
C1661 C1662 1.379 . S
C1662 H1646 0.931 . S
C1662 C1656 1.383 . S
C1662 C1661 1.379 . S
H1663 C1657 0.959 . S
H1664 C1657 0.961 . S
H1665 C1657 0.960 . S
H1666 C1658 0.930 . S
H1667 C1659 0.929 . S
H1668 C1676 0.929 . S
H1669 C1678 0.930 . S
H1670 C1680 0.932 . S
H1671 C1683 0.929 1_655 S
H1672 C1686 0.930 . S
H1673 C1688 0.960 . S
H1674 C1688 0.960 . S
H1675 C1688 0.960 . S
C1676 H1668 0.929 . S
C1676 C1677 1.377 . S
C1676 C1678 1.384 . S
C1677 C1676 1.377 . S
C1677 C1683 1.390 . S
C1678 H1669 0.930 . S
C1678 C1676 1.384 . S
C1678 C1679 1.372 . S
C1679 C1678 1.372 . S
C1679 C1680 1.400 . S
C1679 C1684 1.490 . S
C1680 H1670 0.932 . S
C1680 C1679 1.400 . S
C1680 C1683 1.386 . S
H1681 C1697 0.930 . S
H1682 C1698 0.931 . S
C1683 H1671 0.929 1_455 S
C1683 C1677 1.390 . S
C1683 C1680 1.386 . S
C1684 C1679 1.490 . S
C1684 C1686 1.395 . S
C1684 C1687 1.403 . S
H1685 C1691 0.930 . S
C1686 H1672 0.930 . S
C1686 C1684 1.395 . S
C1686 C1689 1.403 . S
C1687 C1684 1.403 . S
C1687 C1688 1.524 . S
C1687 C1691 1.400 . S
C1688 H1673 0.960 . S
C1688 H1674 0.960 . S
C1688 H1675 0.960 . S
C1688 C1687 1.524 . S
C1689 C1686 1.403 . S
C1689 C1690 1.392 . S
C1689 C1693 1.495 . S
C1690 C1689 1.392 . S
C1690 C1691 1.385 . S
C1690 C1692 1.478 . S
C1691 H1685 0.930 . S
C1691 C1687 1.400 . S
C1691 C1690 1.385 . S
C1692 C1690 1.478 . S
C1692 C1694 1.381 . S
C1692 C1698 1.383 . S
C1693 C1689 1.495 . S
C1693 H1699 0.959 . S
C1693 H1700 0.961 . S
C1693 H1701 0.960 . S
C1694 C1692 1.381 . S
C1694 C1695 1.394 . S
C1694 H1702 0.930 . S
C1695 C1694 1.394 . S
C1695 C1696 1.383 . S
C1695 H1703 0.929 . S
C1696 C1695 1.383 . S
C1696 C1697 1.377 . S
C1697 H1681 0.930 . S
C1697 C1696 1.377 . S
C1697 C1698 1.379 . S
C1698 H1682 0.931 . S
C1698 C1692 1.383 . S
C1698 C1697 1.379 . S
H1699 C1693 0.959 . S
H1700 C1693 0.961 . S
H1701 C1693 0.960 . S
H1702 C1694 0.930 . S
H1703 C1695 0.929 . S
H1704 C1712 0.929 . S
H1705 C1714 0.930 . S
H1706 C1716 0.930 1_455 S
H1707 C1719 0.932 1_455 S
H1708 C1722 0.930 . S
H1709 C1724 0.960 . S
H1710 C1724 0.960 . S
H1711 C1724 0.960 . S
C1712 H1704 0.929 . S
C1712 C1713 1.377 . S
C1712 C1714 1.384 . S
C1713 C1712 1.377 . S
C1713 C1719 1.388 . S
C1714 H1705 0.930 . S
C1714 C1712 1.384 . S
C1714 C1715 1.372 . S
C1715 C1714 1.372 . S
C1715 C1716 1.400 . S
C1715 C1720 1.490 . S
C1716 H1706 0.930 1_655 S
C1716 C1715 1.400 . S
C1716 C1719 1.385 . S
H1717 C1733 0.930 . S
H1718 C1734 0.931 . S
C1719 H1707 0.932 1_655 S
C1719 C1713 1.388 . S
C1719 C1716 1.385 . S
C1720 C1715 1.490 . S
C1720 C1722 1.395 . S
C1720 C1723 1.400 1_655 S
H1721 C1727 0.930 1_455 S
C1722 H1708 0.930 . S
C1722 C1720 1.395 . S
C1722 C1725 1.403 . S
C1723 C1720 1.400 1_455 S
C1723 C1724 1.527 . S
C1723 C1727 1.399 1_455 S
C1724 H1709 0.960 . S
C1724 H1710 0.960 . S
C1724 H1711 0.960 . S
C1724 C1723 1.527 . S
C1725 C1722 1.403 . S
C1725 C1726 1.392 . S
C1725 C1729 1.495 . S
C1726 C1725 1.392 . S
C1726 C1727 1.385 . S
C1726 C1728 1.478 . S
C1727 H1721 0.930 1_655 S
C1727 C1723 1.399 1_655 S
C1727 C1726 1.385 . S
C1728 C1726 1.478 . S
C1728 C1730 1.381 . S
C1728 C1734 1.383 . S
C1729 C1725 1.495 . S
C1729 H1735 0.959 . S
C1729 H1736 0.961 . S
C1729 H1737 0.960 . S
C1730 C1728 1.381 . S
C1730 C1731 1.394 . S
C1730 H1738 0.930 . S
C1731 C1730 1.394 . S
C1731 C1732 1.383 . S
C1731 H1739 0.929 . S
C1732 C1731 1.383 . S
C1732 C1733 1.377 . S
C1733 H1717 0.930 . S
C1733 C1732 1.377 . S
C1733 C1734 1.379 . S
C1734 H1718 0.931 . S
C1734 C1728 1.383 . S
C1734 C1733 1.379 . S
H1735 C1729 0.959 . S
H1736 C1729 0.961 . S
H1737 C1729 0.960 . S
H1738 C1730 0.930 . S
H1739 C1731 0.929 . S
H1740 C1748 0.929 . S
H1741 C1750 0.930 . S
H1742 C1752 0.930 . S
H1743 C1755 0.929 . S
H1744 C1758 0.930 . S
H1745 C1760 0.960 . S
H1746 C1760 0.960 . S
H1747 C1760 0.960 . S
C1748 H1740 0.929 . S
C1748 C1749 1.377 1_655 S
C1748 C1750 1.384 . S
C1749 C1748 1.377 1_455 S
C1749 C1755 1.390 . S
C1750 H1741 0.930 . S
C1750 C1748 1.384 . S
C1750 C1751 1.372 1_655 S
C1751 C1750 1.372 1_455 S
C1751 C1752 1.400 . S
C1751 C1756 1.490 . S
C1752 H1742 0.930 . S
C1752 C1751 1.400 . S
C1752 C1755 1.386 . S
H1753 C1769 0.930 . S
H1754 C1770 0.931 . S
C1755 H1743 0.929 . S
C1755 C1749 1.390 . S
C1755 C1752 1.386 . S
C1756 C1751 1.490 . S
C1756 C1758 1.395 . S
C1756 C1759 1.403 . S
H1757 C1763 0.930 . S
C1758 H1744 0.930 . S
C1758 C1756 1.395 . S
C1758 C1761 1.403 . S
C1759 C1756 1.403 . S
C1759 C1760 1.524 . S
C1759 C1763 1.400 . S
C1760 H1745 0.960 . S
C1760 H1746 0.960 . S
C1760 H1747 0.960 . S
C1760 C1759 1.524 . S
C1761 C1758 1.403 . S
C1761 C1762 1.392 . S
C1761 C1765 1.495 . S
C1762 C1761 1.392 . S
C1762 C1763 1.385 . S
C1762 C1764 1.478 . S
C1763 H1757 0.930 . S
C1763 C1759 1.400 . S
C1763 C1762 1.385 . S
C1764 C1762 1.478 . S
C1764 C1766 1.381 . S
C1764 C1770 1.383 . S
C1765 C1761 1.495 . S
C1765 H1771 0.959 . S
C1765 H1772 0.961 . S
C1765 H1773 0.960 . S
C1766 C1764 1.381 . S
C1766 C1767 1.394 . S
C1766 H1774 0.930 1_455 S
C1767 C1766 1.394 . S
C1767 C1768 1.383 . S
C1767 H1775 0.929 1_455 S
C1768 C1767 1.383 . S
C1768 C1769 1.377 . S
C1769 H1753 0.930 . S
C1769 C1768 1.377 . S
C1769 C1770 1.379 . S
C1770 H1754 0.931 . S
C1770 C1764 1.383 . S
C1770 C1769 1.379 . S
H1771 C1765 0.959 . S
H1772 C1765 0.961 . S
H1773 C1765 0.960 . S
H1774 C1766 0.930 1_655 S
H1775 C1767 0.929 1_655 S
H1776 C1784 0.929 . S
H1777 C1786 0.930 . S
H1778 C1788 0.930 . S
H1779 C1791 0.929 . S
H1780 C1794 0.930 1_455 S
H1781 C1796 0.960 . S
H1782 C1796 0.960 . S
H1783 C1796 0.960 . S
C1784 H1776 0.929 . S
C1784 C1785 1.377 . S
C1784 C1786 1.384 . S
C1785 C1784 1.377 . S
C1785 C1791 1.390 . S
C1786 H1777 0.930 . S
C1786 C1784 1.384 . S
C1786 C1787 1.372 . S
C1787 C1786 1.372 . S
C1787 C1788 1.400 . S
C1787 C1792 1.490 . S
C1788 H1778 0.930 . S
C1788 C1787 1.400 . S
C1788 C1791 1.386 . S
H1789 C1805 0.930 . S
H1790 C1806 0.931 . S
C1791 H1779 0.929 . S
C1791 C1785 1.390 . S
C1791 C1788 1.386 . S
C1792 C1787 1.490 . S
C1792 C1794 1.395 . S
C1792 C1795 1.403 . S
H1793 C1799 0.930 . S
C1794 H1780 0.930 1_655 S
C1794 C1792 1.395 . S
C1794 C1797 1.403 . S
C1795 C1792 1.403 . S
C1795 C1796 1.524 . S
C1795 C1799 1.400 . S
C1796 H1781 0.960 . S
C1796 H1782 0.960 . S
C1796 H1783 0.960 . S
C1796 C1795 1.524 . S
C1797 C1794 1.403 . S
C1797 C1798 1.392 . S
C1797 C1801 1.495 1_655 S
C1798 C1797 1.392 . S
C1798 C1799 1.385 . S
C1798 C1800 1.478 . S
C1799 H1793 0.930 . S
C1799 C1795 1.400 . S
C1799 C1798 1.385 . S
C1800 C1798 1.478 . S
C1800 C1802 1.381 . S
C1800 C1806 1.383 . S
C1801 C1797 1.495 1_455 S
C1801 H1807 0.959 . S
C1801 H1808 0.961 . S
C1801 H1809 0.960 . S
C1802 C1800 1.381 . S
C1802 C1803 1.394 . S
C1802 H1810 0.930 . S
C1803 C1802 1.394 . S
C1803 C1804 1.383 . S
C1803 H1811 0.929 . S
C1804 C1803 1.383 . S
C1804 C1805 1.377 . S
C1805 H1789 0.930 . S
C1805 C1804 1.377 . S
C1805 C1806 1.379 . S
C1806 H1790 0.931 . S
C1806 C1800 1.383 . S
C1806 C1805 1.379 . S
H1807 C1801 0.959 . S
H1808 C1801 0.961 . S
H1809 C1801 0.960 . S
H1810 C1802 0.930 . S
H1811 C1803 0.929 . S
H1812 C1820 0.929 . S
H1813 C1822 0.930 . S
H1814 C1824 0.930 1_565 S
H1815 C1827 0.929 1_565 S
H1816 C1830 0.930 . S
H1817 C1832 0.960 . S
H1818 C1832 0.960 . S
H1819 C1832 0.960 . S
C1820 H1812 0.929 . S
C1820 C1821 1.377 . S
C1820 C1822 1.384 . S
C1821 C1820 1.377 . S
C1821 C1827 1.390 . S
C1822 H1813 0.930 . S
C1822 C1820 1.384 . S
C1822 C1823 1.372 . S
C1823 C1822 1.372 . S
C1823 C1824 1.400 . S
C1823 C1828 1.490 . S
C1824 H1814 0.930 1_545 S
C1824 C1823 1.400 . S
C1824 C1827 1.386 . S
H1825 C1841 0.930 . S
H1826 C1842 0.931 . S
C1827 H1815 0.929 1_545 S
C1827 C1821 1.390 . S
C1827 C1824 1.386 . S
C1828 C1823 1.490 . S
C1828 C1830 1.395 . S
C1828 C1831 1.403 . S
H1829 C1835 0.930 . S
C1830 H1816 0.930 . S
C1830 C1828 1.395 . S
C1830 C1833 1.403 . S
C1831 C1828 1.403 . S
C1831 C1832 1.524 . S
C1831 C1835 1.400 . S
C1832 H1817 0.960 . S
C1832 H1818 0.960 . S
C1832 H1819 0.960 . S
C1832 C1831 1.524 . S
C1833 C1830 1.403 . S
C1833 C1834 1.392 . S
C1833 C1837 1.495 . S
C1834 C1833 1.392 . S
C1834 C1835 1.385 . S
C1834 C1836 1.478 . S
C1835 H1829 0.930 . S
C1835 C1831 1.400 . S
C1835 C1834 1.385 . S
C1836 C1834 1.478 . S
C1836 C1838 1.381 . S
C1836 C1842 1.383 . S
C1837 C1833 1.495 . S
C1837 H1843 0.959 . S
C1837 H1844 0.961 . S
C1837 H1845 0.960 . S
C1838 C1836 1.381 . S
C1838 C1839 1.394 . S
C1838 H1846 0.930 . S
C1839 C1838 1.394 . S
C1839 C1840 1.383 . S
C1839 H1847 0.929 . S
C1840 C1839 1.383 . S
C1840 C1841 1.377 . S
C1841 H1825 0.930 . S
C1841 C1840 1.377 . S
C1841 C1842 1.379 . S
C1842 H1826 0.931 . S
C1842 C1836 1.383 . S
C1842 C1841 1.379 . S
H1843 C1837 0.959 . S
H1844 C1837 0.961 . S
H1845 C1837 0.960 . S
H1846 C1838 0.930 . S
H1847 C1839 0.929 . S
H1848 C1856 0.929 . S
H1849 C1858 0.930 . S
H1850 C1860 0.930 . S
H1851 C1863 0.929 . S
H1852 C1866 0.930 . S
H1853 C1868 0.960 . S
H1854 C1868 0.960 . S
H1855 C1868 0.960 . S
C1856 H1848 0.929 . S
C1856 C1857 1.377 . S
C1856 C1858 1.384 . S
C1857 C1856 1.377 . S
C1857 C1863 1.390 . S
C1858 H1849 0.930 . S
C1858 C1856 1.384 . S
C1858 C1859 1.372 . S
C1859 C1858 1.372 . S
C1859 C1860 1.400 . S
C1859 C1864 1.490 . S
C1860 H1850 0.930 . S
C1860 C1859 1.400 . S
C1860 C1863 1.386 . S
H1861 C1877 0.930 . S
H1862 C1878 0.931 . S
C1863 H1851 0.929 . S
C1863 C1857 1.390 . S
C1863 C1860 1.386 . S
C1864 C1859 1.490 . S
C1864 C1866 1.395 . S
C1864 C1867 1.403 . S
H1865 C1871 0.930 . S
C1866 H1852 0.930 . S
C1866 C1864 1.395 . S
C1866 C1869 1.403 . S
C1867 C1864 1.403 . S
C1867 C1868 1.524 . S
C1867 C1871 1.400 . S
C1868 H1853 0.960 . S
C1868 H1854 0.960 . S
C1868 H1855 0.960 . S
C1868 C1867 1.524 . S
C1869 C1866 1.403 . S
C1869 C1870 1.392 . S
C1869 C1873 1.495 . S
C1870 C1869 1.392 . S
C1870 C1871 1.385 . S
C1870 C1872 1.478 . S
C1871 H1865 0.930 . S
C1871 C1867 1.400 . S
C1871 C1870 1.385 . S
C1872 C1870 1.478 . S
C1872 C1874 1.381 . S
C1872 C1878 1.383 . S
C1873 C1869 1.495 . S
C1873 H1879 0.959 . S
C1873 H1880 0.961 . S
C1873 H1881 0.960 . S
C1874 C1872 1.381 . S
C1874 C1875 1.394 . S
C1874 H1882 0.930 . S
C1875 C1874 1.394 . S
C1875 C1876 1.383 . S
C1875 H1883 0.929 . S
C1876 C1875 1.383 . S
C1876 C1877 1.377 . S
C1877 H1861 0.930 . S
C1877 C1876 1.377 . S
C1877 C1878 1.379 . S
C1878 H1862 0.931 . S
C1878 C1872 1.383 . S
C1878 C1877 1.379 . S
H1879 C1873 0.959 . S
H1880 C1873 0.961 . S
H1881 C1873 0.960 . S
H1882 C1874 0.930 . S
H1883 C1875 0.929 . S
H1884 C1892 0.929 . S
H1885 C1894 0.930 1_545 S
H1886 C1896 0.930 . S
H1887 C1899 0.929 . S
H1888 C1902 0.930 1_545 S
H1889 C1904 0.960 . S
H1890 C1904 0.960 . S
H1891 C1904 0.960 . S
C1892 H1884 0.929 . S
C1892 C1893 1.377 1_545 S
C1892 C1894 1.384 1_545 S
C1893 C1892 1.377 1_565 S
C1893 C1899 1.390 . S
C1894 H1885 0.930 1_565 S
C1894 C1892 1.384 1_565 S
C1894 C1895 1.372 . S
C1895 C1894 1.372 . S
C1895 C1896 1.400 . S
C1895 C1900 1.490 . S
C1896 H1886 0.930 . S
C1896 C1895 1.400 . S
C1896 C1899 1.386 . S
H1897 C1913 0.930 . S
H1898 C1914 0.931 . S
C1899 H1887 0.929 . S
C1899 C1893 1.390 . S
C1899 C1896 1.386 . S
C1900 C1895 1.490 . S
C1900 C1902 1.395 . S
C1900 C1903 1.403 . S
H1901 C1907 0.930 . S
C1902 H1888 0.930 1_565 S
C1902 C1900 1.395 . S
C1902 C1905 1.403 . S
C1903 C1900 1.403 . S
C1903 C1904 1.524 . S
C1903 C1907 1.400 . S
C1904 H1889 0.960 . S
C1904 H1890 0.960 . S
C1904 H1891 0.960 . S
C1904 C1903 1.524 . S
C1905 C1902 1.403 . S
C1905 C1906 1.392 . S
C1905 C1909 1.495 1_565 S
C1906 C1905 1.392 . S
C1906 C1907 1.385 . S
C1906 C1908 1.478 . S
C1907 H1901 0.930 . S
C1907 C1903 1.400 . S
C1907 C1906 1.385 . S
C1908 C1906 1.478 . S
C1908 C1910 1.381 . S
C1908 C1914 1.383 . S
C1909 C1905 1.495 1_545 S
C1909 H1915 0.959 . S
C1909 H1916 0.961 . S
C1909 H1917 0.960 . S
C1910 C1908 1.381 . S
C1910 C1911 1.394 . S
C1910 H1918 0.930 . S
C1911 C1910 1.394 . S
C1911 C1912 1.383 . S
C1911 H1919 0.929 . S
C1912 C1911 1.383 . S
C1912 C1913 1.377 . S
C1913 H1897 0.930 . S
C1913 C1912 1.377 . S
C1913 C1914 1.379 . S
C1914 H1898 0.931 . S
C1914 C1908 1.383 . S
C1914 C1913 1.379 . S
H1915 C1909 0.959 . S
H1916 C1909 0.961 . S
H1917 C1909 0.960 . S
H1918 C1910 0.930 . S
H1919 C1911 0.929 . S
H1920 C1928 0.929 . S
H1921 C1930 0.930 . S
H1922 C1932 0.930 . S
H1923 C1935 0.929 . S
H1924 C1938 0.930 . S
H1925 C1940 0.960 . S
H1926 C1940 0.960 . S
H1927 C1940 0.960 . S
C1928 H1920 0.929 . S
C1928 C1929 1.377 . S
C1928 C1930 1.384 . S
C1929 C1928 1.377 . S
C1929 C1935 1.390 . S
C1930 H1921 0.930 . S
C1930 C1928 1.384 . S
C1930 C1931 1.372 . S
C1931 C1930 1.372 . S
C1931 C1932 1.400 . S
C1931 C1936 1.490 . S
C1932 H1922 0.930 . S
C1932 C1931 1.400 . S
C1932 C1935 1.386 . S
H1933 C1949 0.930 . S
H1934 C1950 0.931 . S
C1935 H1923 0.929 . S
C1935 C1929 1.390 . S
C1935 C1932 1.386 . S
C1936 C1931 1.490 . S
C1936 C1938 1.395 . S
C1936 C1939 1.403 . S
H1937 C1943 0.930 . S
C1938 H1924 0.930 . S
C1938 C1936 1.395 . S
C1938 C1941 1.403 . S
C1939 C1936 1.403 . S
C1939 C1940 1.524 . S
C1939 C1943 1.400 . S
C1940 H1925 0.960 . S
C1940 H1926 0.960 . S
C1940 H1927 0.960 . S
C1940 C1939 1.524 . S
C1941 C1938 1.403 . S
C1941 C1942 1.392 . S
C1941 C1945 1.495 . S
C1942 C1941 1.392 . S
C1942 C1943 1.385 . S
C1942 C1944 1.478 . S
C1943 H1937 0.930 . S
C1943 C1939 1.400 . S
C1943 C1942 1.385 . S
C1944 C1942 1.478 . S
C1944 C1946 1.381 . S
C1944 C1950 1.383 . S
C1945 C1941 1.495 . S
C1945 H1951 0.959 . S
C1945 H1952 0.961 . S
C1945 H1953 0.960 . S
C1946 C1944 1.381 . S
C1946 C1947 1.394 . S
C1946 H1954 0.930 . S
C1947 C1946 1.394 . S
C1947 C1948 1.383 . S
C1947 H1955 0.929 . S
C1948 C1947 1.383 . S
C1948 C1949 1.377 . S
C1949 H1933 0.930 . S
C1949 C1948 1.377 . S
C1949 C1950 1.379 . S
C1950 H1934 0.931 . S
C1950 C1944 1.383 . S
C1950 C1949 1.379 . S
H1951 C1945 0.959 . S
H1952 C1945 0.961 . S
H1953 C1945 0.960 . S
H1954 C1946 0.930 . S
H1955 C1947 0.929 . S
H1956 C1964 0.929 . S
H1957 C1966 0.930 . S
H1958 C1968 0.930 . S
H1959 C1971 0.929 . S
H1960 C1974 0.930 1_556 S
H1961 C1976 0.960 . S
H1962 C1976 0.960 . S
H1963 C1976 0.960 . S
C1964 H1956 0.929 . S
C1964 C1965 1.377 . S
C1964 C1966 1.384 . S
C1965 C1964 1.377 . S
C1965 C1971 1.390 . S
C1966 H1957 0.930 . S
C1966 C1964 1.384 . S
C1966 C1967 1.372 . S
C1967 C1966 1.372 . S
C1967 C1968 1.400 . S
C1967 C1972 1.490 . S
C1968 H1958 0.930 . S
C1968 C1967 1.400 . S
C1968 C1971 1.386 . S
H1969 C1985 0.930 . S
H1970 C1986 0.931 . S
C1971 H1959 0.929 . S
C1971 C1965 1.390 . S
C1971 C1968 1.386 . S
C1972 C1967 1.490 . S
C1972 C1974 1.395 . S
C1972 C1975 1.403 . S
H1973 C1979 0.930 . S
C1974 H1960 0.930 1_554 S
C1974 C1972 1.395 . S
C1974 C1977 1.403 . S
C1975 C1972 1.403 . S
C1975 C1976 1.524 . S
C1975 C1979 1.400 . S
C1976 H1961 0.960 . S
C1976 H1962 0.960 . S
C1976 H1963 0.960 . S
C1976 C1975 1.524 . S
C1977 C1974 1.403 . S
C1977 C1978 1.392 . S
C1977 C1981 1.495 1_554 S
C1978 C1977 1.392 . S
C1978 C1979 1.385 . S
C1978 C1980 1.478 . S
C1979 H1973 0.930 . S
C1979 C1975 1.400 . S
C1979 C1978 1.385 . S
C1980 C1978 1.478 . S
C1980 C1982 1.381 . S
C1980 C1986 1.383 . S
C1981 C1977 1.495 1_556 S
C1981 H1987 0.959 . S
C1981 H1988 0.961 . S
C1981 H1989 0.960 . S
C1982 C1980 1.381 . S
C1982 C1983 1.394 . S
C1982 H1990 0.930 . S
C1983 C1982 1.394 . S
C1983 C1984 1.383 . S
C1983 H1991 0.929 . S
C1984 C1983 1.383 . S
C1984 C1985 1.377 . S
C1985 H1969 0.930 . S
C1985 C1984 1.377 . S
C1985 C1986 1.379 . S
C1986 H1970 0.931 . S
C1986 C1980 1.383 . S
C1986 C1985 1.379 . S
H1987 C1981 0.959 . S
H1988 C1981 0.961 . S
H1989 C1981 0.960 . S
H1990 C1982 0.930 . S
H1991 C1983 0.929 . S
H1992 C2000 0.929 . S
H1993 C2002 0.930 . S
H1994 C2004 0.930 . S
H1995 C2007 0.929 . S
H1996 C2010 0.930 . S
H1997 C2012 0.960 . S
H1998 C2012 0.960 . S
H1999 C2012 0.960 . S
C2000 H1992 0.929 . S
C2000 C2001 1.377 . S
C2000 C2002 1.384 . S
C2001 C2000 1.377 . S
C2001 C2007 1.390 . S
C2002 H1993 0.930 . S
C2002 C2000 1.384 . S
C2002 C2003 1.372 . S
C2003 C2002 1.372 . S
C2003 C2004 1.400 . S
C2003 C2008 1.490 . S
C2004 H1994 0.930 . S
C2004 C2003 1.400 . S
C2004 C2007 1.386 . S
H2005 C2021 0.930 . S
H2006 C2022 0.931 . S
C2007 H1995 0.929 . S
C2007 C2001 1.390 . S
C2007 C2004 1.386 . S
C2008 C2003 1.490 . S
C2008 C2010 1.395 . S
C2008 C2011 1.403 . S
H2009 C2015 0.930 . S
C2010 H1996 0.930 . S
C2010 C2008 1.395 . S
C2010 C2013 1.403 . S
C2011 C2008 1.403 . S
C2011 C2012 1.524 . S
C2011 C2015 1.400 . S
C2012 H1997 0.960 . S
C2012 H1998 0.960 . S
C2012 H1999 0.960 . S
C2012 C2011 1.524 . S
C2013 C2010 1.403 . S
C2013 C2014 1.392 . S
C2013 C2017 1.495 . S
C2014 C2013 1.392 . S
C2014 C2015 1.385 . S
C2014 C2016 1.478 . S
C2015 H2009 0.930 . S
C2015 C2011 1.400 . S
C2015 C2014 1.385 . S
C2016 C2014 1.478 . S
C2016 C2018 1.381 . S
C2016 C2022 1.383 . S
C2017 C2013 1.495 . S
C2017 H2023 0.959 . S
C2017 H2024 0.961 . S
C2017 H2025 0.960 . S
C2018 C2016 1.381 . S
C2018 C2019 1.394 . S
C2018 H2026 0.930 . S
C2019 C2018 1.394 . S
C2019 C2020 1.383 . S
C2019 H2027 0.929 . S
C2020 C2019 1.383 . S
C2020 C2021 1.377 . S
C2021 H2005 0.930 . S
C2021 C2020 1.377 . S
C2021 C2022 1.379 . S
C2022 H2006 0.931 . S
C2022 C2016 1.383 . S
C2022 C2021 1.379 . S
H2023 C2017 0.959 . S
H2024 C2017 0.961 . S
H2025 C2017 0.960 . S
H2026 C2018 0.930 . S
H2027 C2019 0.929 . S
H2028 C2036 0.929 . S
H2029 C2038 0.930 . S
H2030 C2040 0.930 . S
H2031 C2043 0.929 . S
H2032 C2046 0.930 . S
H2033 C2048 0.960 . S
H2034 C2048 0.960 . S
H2035 C2048 0.960 . S
C2036 H2028 0.929 . S
C2036 C2037 1.377 . S
C2036 C2038 1.384 . S
C2037 C2036 1.377 . S
C2037 C2043 1.390 . S
C2038 H2029 0.930 . S
C2038 C2036 1.384 . S
C2038 C2039 1.372 . S
C2039 C2038 1.372 . S
C2039 C2040 1.400 . S
C2039 C2044 1.490 . S
C2040 H2030 0.930 . S
C2040 C2039 1.400 . S
C2040 C2043 1.386 . S
H2041 C2057 0.930 . S
H2042 C2058 0.931 . S
C2043 H2031 0.929 . S
C2043 C2037 1.390 . S
C2043 C2040 1.386 . S
C2044 C2039 1.490 . S
C2044 C2046 1.395 . S
C2044 C2047 1.403 . S
H2045 C2051 0.930 . S
C2046 H2032 0.930 . S
C2046 C2044 1.395 . S
C2046 C2049 1.403 . S
C2047 C2044 1.403 . S
C2047 C2048 1.524 . S
C2047 C2051 1.400 . S
C2048 H2033 0.960 . S
C2048 H2034 0.960 . S
C2048 H2035 0.960 . S
C2048 C2047 1.524 . S
C2049 C2046 1.403 . S
C2049 C2050 1.392 . S
C2049 C2053 1.495 . S
C2050 C2049 1.392 . S
C2050 C2051 1.385 . S
C2050 C2052 1.478 . S
C2051 H2045 0.930 . S
C2051 C2047 1.400 . S
C2051 C2050 1.385 . S
C2052 C2050 1.478 . S
C2052 C2054 1.381 . S
C2052 C2058 1.383 . S
C2053 C2049 1.495 . S
C2053 H2059 0.959 . S
C2053 H2060 0.961 . S
C2053 H2061 0.960 . S
C2054 C2052 1.381 . S
C2054 C2055 1.394 . S
C2054 H2062 0.930 . S
C2055 C2054 1.394 . S
C2055 C2056 1.383 . S
C2055 H2063 0.929 . S
C2056 C2055 1.383 . S
C2056 C2057 1.377 . S
C2057 H2041 0.930 . S
C2057 C2056 1.377 . S
C2057 C2058 1.379 . S
C2058 H2042 0.931 . S
C2058 C2052 1.383 . S
C2058 C2057 1.379 . S
H2059 C2053 0.959 . S
H2060 C2053 0.961 . S
H2061 C2053 0.960 . S
H2062 C2054 0.930 . S
H2063 C2055 0.929 . S
H2064 C2072 0.929 . S
H2065 C2074 0.930 . S
H2066 C2076 0.930 . S
H2067 C2079 0.929 . S
H2068 C2082 0.930 . S
H2069 C2084 0.960 . S
H2070 C2084 0.960 . S
H2071 C2084 0.960 . S
C2072 H2064 0.929 . S
C2072 C2073 1.377 . S
C2072 C2074 1.384 . S
C2073 C2072 1.377 . S
C2073 C2079 1.390 . S
C2074 H2065 0.930 . S
C2074 C2072 1.384 . S
C2074 C2075 1.372 . S
C2075 C2074 1.372 . S
C2075 C2076 1.400 . S
C2075 C2080 1.490 . S
C2076 H2066 0.930 . S
C2076 C2075 1.400 . S
C2076 C2079 1.386 . S
H2077 C2093 0.930 . S
H2078 C2094 0.931 . S
C2079 H2067 0.929 . S
C2079 C2073 1.390 . S
C2079 C2076 1.386 . S
C2080 C2075 1.490 . S
C2080 C2082 1.395 . S
C2080 C2083 1.403 . S
H2081 C2087 0.930 . S
C2082 H2068 0.930 . S
C2082 C2080 1.395 . S
C2082 C2085 1.403 . S
C2083 C2080 1.403 . S
C2083 C2084 1.524 . S
C2083 C2087 1.400 . S
C2084 H2069 0.960 . S
C2084 H2070 0.960 . S
C2084 H2071 0.960 . S
C2084 C2083 1.524 . S
C2085 C2082 1.403 . S
C2085 C2086 1.392 . S
C2085 C2089 1.495 . S
C2086 C2085 1.392 . S
C2086 C2087 1.385 . S
C2086 C2088 1.478 . S
C2087 H2081 0.930 . S
C2087 C2083 1.400 . S
C2087 C2086 1.385 . S
C2088 C2086 1.478 . S
C2088 C2090 1.381 . S
C2088 C2094 1.383 . S
C2089 C2085 1.495 . S
C2089 H2095 0.959 . S
C2089 H2096 0.961 . S
C2089 H2097 0.960 . S
C2090 C2088 1.381 . S
C2090 C2091 1.394 . S
C2090 H2098 0.930 . S
C2091 C2090 1.394 . S
C2091 C2092 1.383 . S
C2091 H2099 0.929 . S
C2092 C2091 1.383 . S
C2092 C2093 1.377 . S
C2093 H2077 0.930 . S
C2093 C2092 1.377 . S
C2093 C2094 1.379 . S
C2094 H2078 0.931 . S
C2094 C2088 1.383 . S
C2094 C2093 1.379 . S
H2095 C2089 0.959 . S
H2096 C2089 0.961 . S
H2097 C2089 0.960 . S
H2098 C2090 0.930 . S
H2099 C2091 0.929 . S
H2100 C2108 0.929 . S
H2101 C2110 0.930 . S
H2102 C2112 0.930 . S
H2103 C2115 0.929 . S
H2104 C2118 0.930 . S
H2105 C2120 0.960 . S
H2106 C2120 0.960 . S
H2107 C2120 0.960 . S
C2108 H2100 0.929 . S
C2108 C2109 1.377 . S
C2108 C2110 1.384 . S
C2109 C2108 1.377 . S
C2109 C2115 1.390 . S
C2110 H2101 0.930 . S
C2110 C2108 1.384 . S
C2110 C2111 1.372 . S
C2111 C2110 1.372 . S
C2111 C2112 1.400 . S
C2111 C2116 1.490 . S
C2112 H2102 0.930 . S
C2112 C2111 1.400 . S
C2112 C2115 1.386 . S
H2113 C2129 0.930 . S
H2114 C2130 0.931 . S
C2115 H2103 0.929 . S
C2115 C2109 1.390 . S
C2115 C2112 1.386 . S
C2116 C2111 1.490 . S
C2116 C2118 1.395 . S
C2116 C2119 1.403 . S
H2117 C2123 0.930 . S
C2118 H2104 0.930 . S
C2118 C2116 1.395 . S
C2118 C2121 1.403 . S
C2119 C2116 1.403 . S
C2119 C2120 1.524 . S
C2119 C2123 1.400 . S
C2120 H2105 0.960 . S
C2120 H2106 0.960 . S
C2120 H2107 0.960 . S
C2120 C2119 1.524 . S
C2121 C2118 1.403 . S
C2121 C2122 1.392 . S
C2121 C2125 1.495 . S
C2122 C2121 1.392 . S
C2122 C2123 1.385 . S
C2122 C2124 1.478 . S
C2123 H2117 0.930 . S
C2123 C2119 1.400 . S
C2123 C2122 1.385 . S
C2124 C2122 1.478 . S
C2124 C2126 1.381 . S
C2124 C2130 1.383 . S
C2125 C2121 1.495 . S
C2125 H2131 0.959 . S
C2125 H2132 0.961 . S
C2125 H2133 0.960 . S
C2126 C2124 1.381 . S
C2126 C2127 1.394 . S
C2126 H2134 0.930 . S
C2127 C2126 1.394 . S
C2127 C2128 1.383 . S
C2127 H2135 0.929 . S
C2128 C2127 1.383 . S
C2128 C2129 1.377 . S
C2129 H2113 0.930 . S
C2129 C2128 1.377 . S
C2129 C2130 1.379 . S
C2130 H2114 0.931 . S
C2130 C2124 1.383 . S
C2130 C2129 1.379 . S
H2131 C2125 0.959 . S
H2132 C2125 0.961 . S
H2133 C2125 0.960 . S
H2134 C2126 0.930 . S
H2135 C2127 0.929 . S
H2136 C2144 0.929 . S
H2137 C2146 0.930 . S
H2138 C2148 0.930 . S
H2139 C2151 0.929 . S
H2140 C2154 0.930 . S
H2141 C2156 0.960 . S
H2142 C2156 0.960 . S
H2143 C2156 0.960 . S
C2144 H2136 0.929 . S
C2144 C2145 1.377 . S
C2144 C2146 1.384 . S
C2145 C2144 1.377 . S
C2145 C2151 1.390 . S
C2146 H2137 0.930 . S
C2146 C2144 1.384 . S
C2146 C2147 1.372 . S
C2147 C2146 1.372 . S
C2147 C2148 1.400 . S
C2147 C2152 1.490 . S
C2148 H2138 0.930 . S
C2148 C2147 1.400 . S
C2148 C2151 1.386 . S
H2149 C2165 0.930 . S
H2150 C2166 0.931 . S
C2151 H2139 0.929 . S
C2151 C2145 1.390 . S
C2151 C2148 1.386 . S
C2152 C2147 1.490 . S
C2152 C2154 1.395 . S
C2152 C2155 1.403 . S
H2153 C2159 0.930 . S
C2154 H2140 0.930 . S
C2154 C2152 1.395 . S
C2154 C2157 1.403 . S
C2155 C2152 1.403 . S
C2155 C2156 1.524 . S
C2155 C2159 1.400 . S
C2156 H2141 0.960 . S
C2156 H2142 0.960 . S
C2156 H2143 0.960 . S
C2156 C2155 1.524 . S
C2157 C2154 1.403 . S
C2157 C2158 1.392 . S
C2157 C2161 1.495 . S
C2158 C2157 1.392 . S
C2158 C2159 1.385 . S
C2158 C2160 1.478 . S
C2159 H2153 0.930 . S
C2159 C2155 1.400 . S
C2159 C2158 1.385 . S
C2160 C2158 1.478 . S
C2160 C2162 1.381 . S
C2160 C2166 1.383 . S
C2161 C2157 1.495 . S
C2161 H2167 0.959 . S
C2161 H2168 0.961 . S
C2161 H2169 0.960 . S
C2162 C2160 1.381 . S
C2162 C2163 1.394 . S
C2162 H2170 0.930 . S
C2163 C2162 1.394 . S
C2163 C2164 1.383 . S
C2163 H2171 0.929 . S
C2164 C2163 1.383 . S
C2164 C2165 1.377 . S
C2165 H2149 0.930 . S
C2165 C2164 1.377 . S
C2165 C2166 1.379 . S
C2166 H2150 0.931 . S
C2166 C2160 1.383 . S
C2166 C2165 1.379 . S
H2167 C2161 0.959 . S
H2168 C2161 0.961 . S
H2169 C2161 0.960 . S
H2170 C2162 0.930 . S
H2171 C2163 0.929 . S
H2172 C2180 0.929 . S
H2173 C2182 0.930 . S
H2174 C2184 0.930 . S
H2175 C2187 0.929 . S
H2176 C2190 0.930 . S
H2177 C2192 0.960 . S
H2178 C2192 0.960 . S
H2179 C2192 0.960 . S
C2180 H2172 0.929 . S
C2180 C2181 1.377 . S
C2180 C2182 1.384 . S
C2181 C2180 1.377 . S
C2181 C2187 1.390 . S
C2182 H2173 0.930 . S
C2182 C2180 1.384 . S
C2182 C2183 1.372 . S
C2183 C2182 1.372 . S
C2183 C2184 1.400 . S
C2183 C2188 1.490 . S
C2184 H2174 0.930 . S
C2184 C2183 1.400 . S
C2184 C2187 1.386 . S
H2185 C2201 0.930 . S
H2186 C2202 0.931 . S
C2187 H2175 0.929 . S
C2187 C2181 1.390 . S
C2187 C2184 1.386 . S
C2188 C2183 1.490 . S
C2188 C2190 1.395 . S
C2188 C2191 1.403 . S
H2189 C2195 0.930 . S
C2190 H2176 0.930 . S
C2190 C2188 1.395 . S
C2190 C2193 1.403 . S
C2191 C2188 1.403 . S
C2191 C2192 1.524 . S
C2191 C2195 1.400 . S
C2192 H2177 0.960 . S
C2192 H2178 0.960 . S
C2192 H2179 0.960 . S
C2192 C2191 1.524 . S
C2193 C2190 1.403 . S
C2193 C2194 1.392 . S
C2193 C2197 1.495 . S
C2194 C2193 1.392 . S
C2194 C2195 1.385 . S
C2194 C2196 1.478 . S
C2195 H2189 0.930 . S
C2195 C2191 1.400 . S
C2195 C2194 1.385 . S
C2196 C2194 1.478 . S
C2196 C2198 1.381 . S
C2196 C2202 1.383 . S
C2197 C2193 1.495 . S
C2197 H2203 0.959 . S
C2197 H2204 0.961 . S
C2197 H2205 0.960 . S
C2198 C2196 1.381 . S
C2198 C2199 1.394 . S
C2198 H2206 0.930 . S
C2199 C2198 1.394 . S
C2199 C2200 1.383 . S
C2199 H2207 0.929 . S
C2200 C2199 1.383 . S
C2200 C2201 1.377 . S
C2201 H2185 0.930 . S
C2201 C2200 1.377 . S
C2201 C2202 1.379 . S
C2202 H2186 0.931 . S
C2202 C2196 1.383 . S
C2202 C2201 1.379 . S
H2203 C2197 0.959 . S
H2204 C2197 0.961 . S
H2205 C2197 0.960 . S
H2206 C2198 0.930 . S
H2207 C2199 0.929 . S
H2208 C2216 0.929 . S
H2209 C2218 0.930 . S
H2210 C2220 0.930 . S
H2211 C2223 0.929 . S
H2212 C2226 0.930 . S
H2213 C2228 0.960 . S
H2214 C2228 0.960 . S
H2215 C2228 0.960 . S
C2216 H2208 0.929 . S
C2216 C2217 1.377 . S
C2216 C2218 1.384 . S
C2217 C2216 1.377 . S
C2217 C2223 1.390 . S
C2218 H2209 0.930 . S
C2218 C2216 1.384 . S
C2218 C2219 1.372 . S
C2219 C2218 1.372 . S
C2219 C2220 1.400 . S
C2219 C2224 1.490 . S
C2220 H2210 0.930 . S
C2220 C2219 1.400 . S
C2220 C2223 1.386 . S
H2221 C2237 0.930 . S
H2222 C2238 0.931 . S
C2223 H2211 0.929 . S
C2223 C2217 1.390 . S
C2223 C2220 1.386 . S
C2224 C2219 1.490 . S
C2224 C2226 1.395 . S
C2224 C2227 1.403 . S
H2225 C2231 0.930 . S
C2226 H2212 0.930 . S
C2226 C2224 1.395 . S
C2226 C2229 1.403 . S
C2227 C2224 1.403 . S
C2227 C2228 1.524 . S
C2227 C2231 1.400 . S
C2228 H2213 0.960 . S
C2228 H2214 0.960 . S
C2228 H2215 0.960 . S
C2228 C2227 1.524 . S
C2229 C2226 1.403 . S
C2229 C2230 1.392 . S
C2229 C2233 1.495 . S
C2230 C2229 1.392 . S
C2230 C2231 1.385 . S
C2230 C2232 1.478 . S
C2231 H2225 0.930 . S
C2231 C2227 1.400 . S
C2231 C2230 1.385 . S
C2232 C2230 1.478 . S
C2232 C2234 1.381 . S
C2232 C2238 1.383 . S
C2233 C2229 1.495 . S
C2233 H2239 0.959 . S
C2233 H2240 0.961 . S
C2233 H2241 0.960 . S
C2234 C2232 1.381 . S
C2234 C2235 1.394 . S
C2234 H2242 0.930 . S
C2235 C2234 1.394 . S
C2235 C2236 1.383 . S
C2235 H2243 0.929 . S
C2236 C2235 1.383 . S
C2236 C2237 1.377 . S
C2237 H2221 0.930 . S
C2237 C2236 1.377 . S
C2237 C2238 1.379 . S
C2238 H2222 0.931 . S
C2238 C2232 1.383 . S
C2238 C2237 1.379 . S
H2239 C2233 0.959 . S
H2240 C2233 0.961 . S
H2241 C2233 0.960 . S
H2242 C2234 0.930 . S
H2243 C2235 0.929 . S
H2244 C2252 0.929 . S
H2245 C2254 0.930 . S
H2246 C2256 0.930 . S
H2247 C2259 0.929 . S
H2248 C2262 0.930 . S
H2249 C2264 0.960 . S
H2250 C2264 0.960 . S
H2251 C2264 0.960 . S
C2252 H2244 0.929 . S
C2252 C2253 1.377 . S
C2252 C2254 1.384 . S
C2253 C2252 1.377 . S
C2253 C2259 1.390 . S
C2254 H2245 0.930 . S
C2254 C2252 1.384 . S
C2254 C2255 1.372 . S
C2255 C2254 1.372 . S
C2255 C2256 1.400 . S
C2255 C2260 1.490 . S
C2256 H2246 0.930 . S
C2256 C2255 1.400 . S
C2256 C2259 1.386 . S
H2257 C2273 0.930 . S
H2258 C2274 0.931 . S
C2259 H2247 0.929 . S
C2259 C2253 1.390 . S
C2259 C2256 1.386 . S
C2260 C2255 1.490 . S
C2260 C2262 1.395 . S
C2260 C2263 1.403 . S
H2261 C2267 0.930 . S
C2262 H2248 0.930 . S
C2262 C2260 1.395 . S
C2262 C2265 1.403 . S
C2263 C2260 1.403 . S
C2263 C2264 1.524 . S
C2263 C2267 1.400 . S
C2264 H2249 0.960 . S
C2264 H2250 0.960 . S
C2264 H2251 0.960 . S
C2264 C2263 1.524 . S
C2265 C2262 1.403 . S
C2265 C2266 1.392 . S
C2265 C2269 1.495 . S
C2266 C2265 1.392 . S
C2266 C2267 1.385 . S
C2266 C2268 1.478 . S
C2267 H2261 0.930 . S
C2267 C2263 1.400 . S
C2267 C2266 1.385 . S
C2268 C2266 1.478 . S
C2268 C2270 1.381 . S
C2268 C2274 1.383 . S
C2269 C2265 1.495 . S
C2269 H2275 0.959 . S
C2269 H2276 0.961 . S
C2269 H2277 0.960 . S
C2270 C2268 1.381 . S
C2270 C2271 1.394 . S
C2270 H2278 0.930 . S
C2271 C2270 1.394 . S
C2271 C2272 1.383 . S
C2271 H2279 0.929 . S
C2272 C2271 1.383 . S
C2272 C2273 1.377 . S
C2273 H2257 0.930 . S
C2273 C2272 1.377 . S
C2273 C2274 1.379 . S
C2274 H2258 0.931 . S
C2274 C2268 1.383 . S
C2274 C2273 1.379 . S
H2275 C2269 0.959 . S
H2276 C2269 0.961 . S
H2277 C2269 0.960 . S
H2278 C2270 0.930 . S
H2279 C2271 0.929 . S
H2280 C2288 0.929 . S
H2281 C2290 0.930 . S
H2282 C2292 0.930 . S
H2283 C2295 0.929 . S
H2284 C2298 0.930 . S
H2285 C2300 0.960 . S
H2286 C2300 0.960 . S
H2287 C2300 0.960 . S
C2288 H2280 0.929 . S
C2288 C2289 1.377 . S
C2288 C2290 1.384 . S
C2289 C2288 1.377 . S
C2289 C2295 1.390 . S
C2290 H2281 0.930 . S
C2290 C2288 1.384 . S
C2290 C2291 1.372 . S
C2291 C2290 1.372 . S
C2291 C2292 1.400 . S
C2291 C2296 1.490 . S
C2292 H2282 0.930 . S
C2292 C2291 1.400 . S
C2292 C2295 1.386 . S
H2293 C2309 0.930 . S
H2294 C2310 0.931 . S
C2295 H2283 0.929 . S
C2295 C2289 1.390 . S
C2295 C2292 1.386 . S
C2296 C2291 1.490 . S
C2296 C2298 1.395 . S
C2296 C2299 1.403 . S
H2297 C2303 0.930 . S
C2298 H2284 0.930 . S
C2298 C2296 1.395 . S
C2298 C2301 1.403 . S
C2299 C2296 1.403 . S
C2299 C2300 1.524 1_565 S
C2299 C2303 1.400 . S
C2300 H2285 0.960 . S
C2300 H2286 0.960 . S
C2300 H2287 0.960 . S
C2300 C2299 1.524 1_545 S
C2301 C2298 1.403 . S
C2301 C2302 1.392 . S
C2301 C2305 1.495 . S
C2302 C2301 1.392 . S
C2302 C2303 1.385 . S
C2302 C2304 1.478 . S
C2303 H2297 0.930 . S
C2303 C2299 1.400 . S
C2303 C2302 1.385 . S
C2304 C2302 1.478 . S
C2304 C2306 1.381 . S
C2304 C2310 1.383 . S
C2305 C2301 1.495 . S
C2305 H2311 0.959 . S
C2305 H2312 0.961 . S
C2305 H2313 0.960 . S
C2306 C2304 1.381 . S
C2306 C2307 1.394 . S
C2306 H2314 0.930 . S
C2307 C2306 1.394 . S
C2307 C2308 1.383 . S
C2307 H2315 0.929 . S
C2308 C2307 1.383 . S
C2308 C2309 1.377 . S
C2309 H2293 0.930 . S
C2309 C2308 1.377 . S
C2309 C2310 1.379 . S
C2310 H2294 0.931 . S
C2310 C2304 1.383 . S
C2310 C2309 1.379 . S
H2311 C2305 0.959 . S
H2312 C2305 0.961 . S
H2313 C2305 0.960 . S
H2314 C2306 0.930 . S
H2315 C2307 0.929 . S
H2316 C2324 0.929 . S
H2317 C2326 0.930 . S
H2318 C2328 0.930 . S
H2319 C2331 0.929 . S
H2320 C2334 0.930 . S
H2321 C2336 0.960 . S
H2322 C2336 0.960 . S
H2323 C2336 0.960 . S
C2324 H2316 0.929 . S
C2324 C2325 1.377 . S
C2324 C2326 1.384 . S
C2325 C2324 1.377 . S
C2325 C2331 1.390 . S
C2326 H2317 0.930 . S
C2326 C2324 1.384 . S
C2326 C2327 1.372 . S
C2327 C2326 1.372 . S
C2327 C2328 1.400 . S
C2327 C2332 1.490 . S
C2328 H2318 0.930 . S
C2328 C2327 1.400 . S
C2328 C2331 1.386 . S
H2329 C2345 0.930 . S
H2330 C2346 0.931 . S
C2331 H2319 0.929 . S
C2331 C2325 1.390 . S
C2331 C2328 1.386 . S
C2332 C2327 1.490 . S
C2332 C2334 1.395 . S
C2332 C2335 1.403 . S
H2333 C2339 0.930 . S
C2334 H2320 0.930 . S
C2334 C2332 1.395 . S
C2334 C2337 1.403 . S
C2335 C2332 1.403 . S
C2335 C2336 1.524 . S
C2335 C2339 1.400 . S
C2336 H2321 0.960 . S
C2336 H2322 0.960 . S
C2336 H2323 0.960 . S
C2336 C2335 1.524 . S
C2337 C2334 1.403 . S
C2337 C2338 1.392 . S
C2337 C2341 1.495 . S
C2338 C2337 1.392 . S
C2338 C2339 1.385 . S
C2338 C2340 1.478 . S
C2339 H2333 0.930 . S
C2339 C2335 1.400 . S
C2339 C2338 1.385 . S
C2340 C2338 1.478 . S
C2340 C2342 1.381 . S
C2340 C2346 1.383 . S
C2341 C2337 1.495 . S
C2341 H2347 0.959 . S
C2341 H2348 0.961 . S
C2341 H2349 0.960 . S
C2342 C2340 1.381 . S
C2342 C2343 1.394 . S
C2342 H2350 0.930 . S
C2343 C2342 1.394 . S
C2343 C2344 1.383 . S
C2343 H2351 0.929 . S
C2344 C2343 1.383 . S
C2344 C2345 1.377 . S
C2345 H2329 0.930 . S
C2345 C2344 1.377 . S
C2345 C2346 1.379 . S
C2346 H2330 0.931 . S
C2346 C2340 1.383 . S
C2346 C2345 1.379 . S
H2347 C2341 0.959 . S
H2348 C2341 0.961 . S
H2349 C2341 0.960 . S
H2350 C2342 0.930 . S
H2351 C2343 0.929 . S
H2352 C2360 0.929 . S
H2353 C2362 0.930 . S
H2354 C2364 0.930 . S
H2355 C2367 0.929 . S
H2356 C2370 0.930 . S
H2357 C2372 0.960 . S
H2358 C2372 0.960 1_565 S
H2359 C2372 0.960 . S
C2360 H2352 0.929 . S
C2360 C2361 1.377 . S
C2360 C2362 1.384 . S
C2361 C2360 1.377 . S
C2361 C2367 1.390 . S
C2362 H2353 0.930 . S
C2362 C2360 1.384 . S
C2362 C2363 1.372 . S
C2363 C2362 1.372 . S
C2363 C2364 1.400 . S
C2363 C2368 1.490 . S
C2364 H2354 0.930 . S
C2364 C2363 1.400 . S
C2364 C2367 1.386 . S
H2365 C2381 0.930 . S
H2366 C2382 0.931 . S
C2367 H2355 0.929 . S
C2367 C2361 1.390 . S
C2367 C2364 1.386 . S
C2368 C2363 1.490 . S
C2368 C2370 1.395 . S
C2368 C2371 1.403 . S
H2369 C2375 0.930 . S
C2370 H2356 0.930 . S
C2370 C2368 1.395 . S
C2370 C2373 1.403 . S
C2371 C2368 1.403 . S
C2371 C2372 1.524 . S
C2371 C2375 1.400 . S
C2372 H2357 0.960 . S
C2372 H2358 0.960 1_545 S
C2372 H2359 0.960 . S
C2372 C2371 1.524 . S
C2373 C2370 1.403 . S
C2373 C2374 1.392 . S
C2373 C2377 1.495 . S
C2374 C2373 1.392 . S
C2374 C2375 1.385 . S
C2374 C2376 1.478 . S
C2375 H2369 0.930 . S
C2375 C2371 1.400 . S
C2375 C2374 1.385 . S
C2376 C2374 1.478 . S
C2376 C2378 1.381 . S
C2376 C2382 1.383 . S
C2377 C2373 1.495 . S
C2377 H2383 0.959 . S
C2377 H2384 0.961 . S
C2377 H2385 0.960 . S
C2378 C2376 1.381 . S
C2378 C2379 1.394 . S
C2378 H2386 0.930 . S
C2379 C2378 1.394 . S
C2379 C2380 1.383 . S
C2379 H2387 0.929 . S
C2380 C2379 1.383 . S
C2380 C2381 1.377 . S
C2381 H2365 0.930 . S
C2381 C2380 1.377 . S
C2381 C2382 1.379 . S
C2382 H2366 0.931 . S
C2382 C2376 1.383 . S
C2382 C2381 1.379 . S
H2383 C2377 0.959 . S
H2384 C2377 0.961 . S
H2385 C2377 0.960 . S
H2386 C2378 0.930 . S
H2387 C2379 0.929 . S
H2388 C2396 0.929 . S
H2389 C2398 0.930 . S
H2390 C2400 0.930 . S
H2391 C2403 0.929 . S
H2392 C2406 0.930 . S
H2393 C2408 0.960 . S
H2394 C2408 0.960 . S
H2395 C2408 0.960 . S
C2396 H2388 0.929 . S
C2396 C2397 1.377 . S
C2396 C2398 1.384 . S
C2397 C2396 1.377 . S
C2397 C2403 1.390 . S
C2398 H2389 0.930 . S
C2398 C2396 1.384 . S
C2398 C2399 1.372 . S
C2399 C2398 1.372 . S
C2399 C2400 1.400 . S
C2399 C2404 1.490 . S
C2400 H2390 0.930 . S
C2400 C2399 1.400 . S
C2400 C2403 1.386 . S
H2401 C2417 0.930 . S
H2402 C2418 0.931 . S
C2403 H2391 0.929 . S
C2403 C2397 1.390 . S
C2403 C2400 1.386 . S
C2404 C2399 1.490 . S
C2404 C2406 1.395 . S
C2404 C2407 1.403 . S
H2405 C2411 0.930 . S
C2406 H2392 0.930 . S
C2406 C2404 1.395 . S
C2406 C2409 1.403 . S
C2407 C2404 1.403 . S
C2407 C2408 1.524 . S
C2407 C2411 1.400 . S
C2408 H2393 0.960 . S
C2408 H2394 0.960 . S
C2408 H2395 0.960 . S
C2408 C2407 1.524 . S
C2409 C2406 1.403 . S
C2409 C2410 1.392 . S
C2409 C2413 1.495 . S
C2410 C2409 1.392 . S
C2410 C2411 1.385 . S
C2410 C2412 1.478 . S
C2411 H2405 0.930 . S
C2411 C2407 1.400 . S
C2411 C2410 1.385 . S
C2412 C2410 1.478 . S
C2412 C2414 1.381 . S
C2412 C2418 1.383 . S
C2413 C2409 1.495 . S
C2413 H2419 0.959 . S
C2413 H2420 0.961 . S
C2413 H2421 0.960 . S
C2414 C2412 1.381 . S
C2414 C2415 1.394 . S
C2414 H2422 0.930 . S
C2415 C2414 1.394 . S
C2415 C2416 1.383 . S
C2415 H2423 0.929 . S
C2416 C2415 1.383 . S
C2416 C2417 1.377 . S
C2417 H2401 0.930 . S
C2417 C2416 1.377 . S
C2417 C2418 1.379 . S
C2418 H2402 0.931 . S
C2418 C2412 1.383 . S
C2418 C2417 1.379 . S
H2419 C2413 0.959 . S
H2420 C2413 0.961 . S
H2421 C2413 0.960 . S
H2422 C2414 0.930 . S
H2423 C2415 0.929 . S
H2424 C2432 0.929 . S
H2425 C2434 0.930 . S
H2426 C2436 0.930 . S
H2427 C2439 0.929 . S
H2428 C2442 0.930 . S
H2429 C2444 0.960 . S
H2430 C2444 0.960 . S
H2431 C2444 0.960 . S
C2432 H2424 0.929 . S
C2432 C2433 1.377 . S
C2432 C2434 1.384 . S
C2433 C2432 1.377 . S
C2433 C2439 1.390 . S
C2434 H2425 0.930 . S
C2434 C2432 1.384 . S
C2434 C2435 1.372 . S
C2435 C2434 1.372 . S
C2435 C2436 1.400 . S
C2435 C2440 1.490 . S
C2436 H2426 0.930 . S
C2436 C2435 1.400 . S
C2436 C2439 1.386 . S
H2437 C2453 0.930 . S
H2438 C2454 0.931 . S
C2439 H2427 0.929 . S
C2439 C2433 1.390 . S
C2439 C2436 1.386 . S
C2440 C2435 1.490 . S
C2440 C2442 1.395 1_556 S
C2440 C2443 1.403 . S
H2441 C2447 0.930 . S
C2442 H2428 0.930 . S
C2442 C2440 1.395 1_554 S
C2442 C2445 1.403 . S
C2443 C2440 1.403 . S
C2443 C2444 1.524 . S
C2443 C2447 1.400 . S
C2444 H2429 0.960 . S
C2444 H2430 0.960 . S
C2444 H2431 0.960 . S
C2444 C2443 1.524 . S
C2445 C2442 1.403 . S
C2445 C2446 1.392 1_554 S
C2445 C2449 1.495 . S
C2446 C2445 1.392 1_556 S
C2446 C2447 1.385 . S
C2446 C2448 1.478 . S
C2447 H2441 0.930 . S
C2447 C2443 1.400 . S
C2447 C2446 1.385 . S
C2448 C2446 1.478 . S
C2448 C2450 1.381 . S
C2448 C2454 1.383 . S
C2449 C2445 1.495 . S
C2449 H2455 0.959 . S
C2449 H2456 0.961 . S
C2449 H2457 0.960 . S
C2450 C2448 1.381 . S
C2450 C2451 1.394 . S
C2450 H2458 0.930 . S
C2451 C2450 1.394 . S
C2451 C2452 1.383 . S
C2451 H2459 0.929 . S
C2452 C2451 1.383 . S
C2452 C2453 1.377 . S
C2453 H2437 0.930 . S
C2453 C2452 1.377 . S
C2453 C2454 1.379 . S
C2454 H2438 0.931 . S
C2454 C2448 1.383 . S
C2454 C2453 1.379 . S
H2455 C2449 0.959 . S
H2456 C2449 0.961 . S
H2457 C2449 0.960 . S
H2458 C2450 0.930 . S
H2459 C2451 0.929 . S
H2460 C2468 0.929 . S
H2461 C2470 0.930 . S
H2462 C2472 0.930 . S
H2463 C2475 0.929 . S
H2464 C2478 0.930 . S
H2465 C2480 0.960 . S
H2466 C2480 0.960 . S
H2467 C2480 0.960 . S
C2468 H2460 0.929 . S
C2468 C2469 1.377 . S
C2468 C2470 1.384 . S
C2469 C2468 1.377 . S
C2469 C2475 1.390 . S
C2470 H2461 0.930 . S
C2470 C2468 1.384 . S
C2470 C2471 1.372 . S
C2471 C2470 1.372 . S
C2471 C2472 1.400 . S
C2471 C2476 1.490 . S
C2472 H2462 0.930 . S
C2472 C2471 1.400 . S
C2472 C2475 1.386 . S
H2473 C2489 0.930 . S
H2474 C2490 0.931 . S
C2475 H2463 0.929 . S
C2475 C2469 1.390 . S
C2475 C2472 1.386 . S
C2476 C2471 1.490 . S
C2476 C2478 1.395 . S
C2476 C2479 1.403 . S
H2477 C2483 0.930 . S
C2478 H2464 0.930 . S
C2478 C2476 1.395 . S
C2478 C2481 1.403 . S
C2479 C2476 1.403 . S
C2479 C2480 1.524 1_556 S
C2479 C2483 1.400 . S
C2480 H2465 0.960 . S
C2480 H2466 0.960 . S
C2480 H2467 0.960 . S
C2480 C2479 1.524 1_554 S
C2481 C2478 1.403 . S
C2481 C2482 1.392 . S
C2481 C2485 1.495 . S
C2482 C2481 1.392 . S
C2482 C2483 1.385 . S
C2482 C2484 1.478 . S
C2483 H2477 0.930 . S
C2483 C2479 1.400 . S
C2483 C2482 1.385 . S
C2484 C2482 1.478 . S
C2484 C2486 1.381 . S
C2484 C2490 1.383 . S
C2485 C2481 1.495 . S
C2485 H2491 0.959 . S
C2485 H2492 0.961 . S
C2485 H2493 0.960 . S
C2486 C2484 1.381 . S
C2486 C2487 1.394 . S
C2486 H2494 0.930 . S
C2487 C2486 1.394 . S
C2487 C2488 1.383 . S
C2487 H2495 0.929 . S
C2488 C2487 1.383 . S
C2488 C2489 1.377 . S
C2489 H2473 0.930 . S
C2489 C2488 1.377 . S
C2489 C2490 1.379 . S
C2490 H2474 0.931 . S
C2490 C2484 1.383 . S
C2490 C2489 1.379 . S
H2491 C2485 0.959 . S
H2492 C2485 0.961 . S
H2493 C2485 0.960 . S
H2494 C2486 0.930 . S
H2495 C2487 0.929 . S
H2496 C2504 0.929 . S
H2497 C2506 0.930 . S
H2498 C2508 0.930 . S
H2499 C2511 0.929 . S
H2500 C2514 0.913 1_556 S
H2501 C2516 0.960 . S
H2502 C2516 0.960 . S
H2503 C2516 0.960 . S
C2504 H2496 0.929 . S
C2504 C2505 1.377 . S
C2504 C2506 1.384 . S
C2505 C2504 1.377 . S
C2505 C2511 1.390 . S
C2506 H2497 0.930 . S
C2506 C2504 1.384 . S
C2506 C2507 1.372 . S
C2507 C2506 1.372 . S
C2507 C2508 1.400 . S
C2507 C2512 1.490 . S
C2508 H2498 0.930 . S
C2508 C2507 1.400 . S
C2508 C2511 1.386 . S
H2509 C2525 0.930 . S
H2510 C2526 0.931 . S
C2511 H2499 0.929 . S
C2511 C2505 1.390 . S
C2511 C2508 1.386 . S
C2512 C2507 1.490 . S
C2512 C2514 1.412 . S
C2512 C2515 1.403 . S
H2513 C2519 0.930 . S
C2514 H2500 0.913 1_554 S
C2514 C2512 1.412 . S
C2514 C2517 1.403 . S
C2515 C2512 1.403 . S
C2515 C2516 1.524 . S
C2515 C2519 1.400 . S
C2516 H2501 0.960 . S
C2516 H2502 0.960 . S
C2516 H2503 0.960 . S
C2516 C2515 1.524 . S
C2517 C2514 1.403 . S
C2517 C2518 1.411 . S
C2517 C2521 1.476 1_554 S
C2518 C2517 1.411 . S
C2518 C2519 1.385 . S
C2518 C2520 1.478 . S
C2519 H2513 0.930 . S
C2519 C2515 1.400 . S
C2519 C2518 1.385 . S
C2520 C2518 1.478 . S
C2520 C2522 1.381 . S
C2520 C2526 1.383 . S
C2521 C2517 1.476 1_556 S
C2521 H2527 0.959 . S
C2521 H2528 0.961 . S
C2521 H2529 0.960 . S
C2522 C2520 1.381 . S
C2522 C2523 1.394 . S
C2522 H2530 0.930 . S
C2523 C2522 1.394 . S
C2523 C2524 1.383 . S
C2523 H2531 0.929 . S
C2524 C2523 1.383 . S
C2524 C2525 1.377 . S
C2525 H2509 0.930 . S
C2525 C2524 1.377 . S
C2525 C2526 1.379 . S
C2526 H2510 0.931 . S
C2526 C2520 1.383 . S
C2526 C2525 1.379 . S
H2527 C2521 0.959 . S
H2528 C2521 0.961 . S
H2529 C2521 0.960 . S
H2530 C2522 0.930 . S
H2531 C2523 0.929 . S
C813 C22 1.692 . S
C832 C697 1.619 1_545 S
C868 C702 1.783 . S
C849 C38 1.839 . S
C904 C640 1.606 1_565 S
C885 C75 1.752 . S
C921 C91 1.756 . S
C940 C664 1.674 . S
C957 C128 1.724 . S
C976 C802 1.641 1_554 S
C993 C197 1.708 . S
C1012 C769 1.653 . S
C1048 C723 1.808 . S
C1029 C144 1.890 . S
C1065 C181 1.735 . S
C1084 C757 1.624 . S
C1120 C676 1.661 1_455 S
C1101 C234 1.754 . S
C1156 C703 1.718 1_455 S
C1137 C303 1.784 . S
C1173 C356 1.791 . S
C1192 C694 1.678 1_655 S
C1209 C287 1.810 . S
C1228 C760 1.738 . S
C1264 C781 1.615 . S
C1245 C393 1.650 . S
C1300 C799 1.787 1_565 S
C1281 C409 1.878 . S
C1317 C462 1.951 . S
C1336 C748 1.846 . S
C1372 C724 1.490 1_545 S
C1353 C446 1.591 . S
C1389 C499 1.686 . S
C1408 C719 1.596 . S
C1425 C552 1.616 . S
C1444 C685 1.540 . S
C1480 C673 1.648 1_556 S
C1461 C515 1.755 . S
C1497 C568 2.025 . S
C1516 C639 1.937 1_556 S
C1552 C740 1.781 . S
C1533 C340 1.834 . S
C1588 C790 1.610 . S
C1569 C621 1.701 . S
C1605 C250 1.705 . S
C1624 C778 1.654 . S
C1641 C605 1.725 . S
C1660 C656 1.656 . S
C1696 C655 1.140 . S
C1677 C39 1.307 . S
C1713 C29 1.006 . S
C1732 C677 0.845 . S
C1768 C682 1.094 . S
C1749 C92 1.285 . S
C1804 C715 1.035 . S
C1785 C82 1.096 . S
C1821 C145 1.326 . S
C1840 C652 1.154 . S
C1857 C188 1.070 . S
C1876 C660 1.019 . S
C1912 C698 1.030 . S
C1893 C135 1.078 . S
C1929 C198 1.261 . S
C1948 C706 1.037 . S
C1965 C251 1.247 . S
C1984 C643 1.147 . S
C2020 C681 1.031 . S
C2001 C294 1.077 . S
C2037 C347 1.095 . S
C2056 C718 1.044 . S
C2073 C304 1.323 . S
C2092 C727 1.198 . S
C2128 C761 1.191 . S
C2109 C410 1.303 . S
C2145 C400 1.029 . S
C2164 C739 0.996 . S
C2181 C453 0.985 . S
C2200 C766 0.833 . S
C2217 C463 1.407 . S
C2236 C786 1.228 . S
C2253 C516 1.327 . S
C2272 C744 1.123 . S
C2308 C736 1.159 . S
C2289 C569 1.369 . S
C2325 C506 1.001 . S
C2344 C782 0.861 . S
C2380 C787 0.885 . S
C2361 C559 1.029 . S
C2416 C745 1.126 . S
C2397 C357 1.246 . S
C2452 C765 1.026 . S
C2433 C612 1.090 . S
C2488 C803 0.865 . S
C2469 C241 1.021 . S
C2505 C622 1.259 . S
C2524 C661 1.136 . S
