# Generated by pormake.
# Topology iac, (4,6)-cn, num edge types: 1
# Building blocks:
#     Node 0, Type 0, BuildingBlock: KUFVIS_clean_sbu_0, # of connection points: 4
#     Node 1, Type 0, BuildingBlock: KUFVIS_clean_sbu_0, # of connection points: 4
#     Node 2, Type 0, BuildingBlock: KUFVIS_clean_sbu_0, # of connection points: 4
#     Node 3, Type 0, BuildingBlock: KUFVIS_clean_sbu_0, # of connection points: 4
#     Node 4, Type 0, BuildingBlock: KUFVIS_clean_sbu_0, # of connection points: 4
#     Node 5, Type 0, BuildingBlock: KUFVIS_clean_sbu_0, # of connection points: 4
#     Node 6, Type 0, BuildingBlock: KUFVIS_clean_sbu_0, # of connection points: 4
#     Node 7, Type 0, BuildingBlock: KUFVIS_clean_sbu_0, # of connection points: 4
#     Node 8, Type 0, BuildingBlock: KUFVIS_clean_sbu_0, # of connection points: 4
#     Node 9, Type 0, BuildingBlock: KUFVIS_clean_sbu_0, # of connection points: 4
#     Node 10, Type 0, BuildingBlock: KUFVIS_clean_sbu_0, # of connection points: 4
#     Node 11, Type 0, BuildingBlock: KUFVIS_clean_sbu_0, # of connection points: 4
#     Node 12, Type 0, BuildingBlock: KUFVIS_clean_sbu_0, # of connection points: 4
#     Node 13, Type 0, BuildingBlock: KUFVIS_clean_sbu_0, # of connection points: 4
#     Node 14, Type 0, BuildingBlock: KUFVIS_clean_sbu_0, # of connection points: 4
#     Node 15, Type 0, BuildingBlock: KUFVIS_clean_sbu_0, # of connection points: 4
#     Node 16, Type 0, BuildingBlock: KUFVIS_clean_sbu_0, # of connection points: 4
#     Node 17, Type 0, BuildingBlock: KUFVIS_clean_sbu_0, # of connection points: 4
#     Node 18, Type 0, BuildingBlock: KUFVIS_clean_sbu_0, # of connection points: 4
#     Node 19, Type 0, BuildingBlock: KUFVIS_clean_sbu_0, # of connection points: 4
#     Node 20, Type 0, BuildingBlock: KUFVIS_clean_sbu_0, # of connection points: 4
#     Node 21, Type 0, BuildingBlock: KUFVIS_clean_sbu_0, # of connection points: 4
#     Node 22, Type 0, BuildingBlock: KUFVIS_clean_sbu_0, # of connection points: 4
#     Node 23, Type 0, BuildingBlock: KUFVIS_clean_sbu_0, # of connection points: 4
#     Node 24, Type 1, BuildingBlock: VOLQOD_clean_sbu_1, # of connection points: 6
#     Node 25, Type 1, BuildingBlock: VOLQOD_clean_sbu_1, # of connection points: 6
#     Node 26, Type 1, BuildingBlock: VOLQOD_clean_sbu_1, # of connection points: 6
#     Node 27, Type 1, BuildingBlock: VOLQOD_clean_sbu_1, # of connection points: 6
#     Node 28, Type 1, BuildingBlock: VOLQOD_clean_sbu_1, # of connection points: 6
#     Node 29, Type 1, BuildingBlock: VOLQOD_clean_sbu_1, # of connection points: 6
#     Node 30, Type 1, BuildingBlock: VOLQOD_clean_sbu_1, # of connection points: 6
#     Node 31, Type 1, BuildingBlock: VOLQOD_clean_sbu_1, # of connection points: 6
#     Node 32, Type 1, BuildingBlock: VOLQOD_clean_sbu_1, # of connection points: 6
#     Node 33, Type 1, BuildingBlock: VOLQOD_clean_sbu_1, # of connection points: 6
#     Node 34, Type 1, BuildingBlock: VOLQOD_clean_sbu_1, # of connection points: 6
#     Node 35, Type 1, BuildingBlock: VOLQOD_clean_sbu_1, # of connection points: 6
#     Node 36, Type 1, BuildingBlock: VOLQOD_clean_sbu_1, # of connection points: 6
#     Node 37, Type 1, BuildingBlock: VOLQOD_clean_sbu_1, # of connection points: 6
#     Node 38, Type 1, BuildingBlock: VOLQOD_clean_sbu_1, # of connection points: 6
#     Node 39, Type 1, BuildingBlock: VOLQOD_clean_sbu_1, # of connection points: 6
#     Edge 40, Type (0, 1), BuildingBlock: XIVTED_clean_linker_0, # of connection points: 2
#     Edge 41, Type (0, 1), BuildingBlock: XIVTED_clean_linker_0, # of connection points: 2
#     Edge 42, Type (0, 1), BuildingBlock: XIVTED_clean_linker_0, # of connection points: 2
#     Edge 43, Type (0, 1), BuildingBlock: XIVTED_clean_linker_0, # of connection points: 2
#     Edge 44, Type (0, 1), BuildingBlock: XIVTED_clean_linker_0, # of connection points: 2
#     Edge 45, Type (0, 1), BuildingBlock: XIVTED_clean_linker_0, # of connection points: 2
#     Edge 46, Type (0, 1), BuildingBlock: XIVTED_clean_linker_0, # of connection points: 2
#     Edge 47, Type (0, 1), BuildingBlock: XIVTED_clean_linker_0, # of connection points: 2
#     Edge 48, Type (0, 1), BuildingBlock: XIVTED_clean_linker_0, # of connection points: 2
#     Edge 49, Type (0, 1), BuildingBlock: XIVTED_clean_linker_0, # of connection points: 2
#     Edge 50, Type (0, 1), BuildingBlock: XIVTED_clean_linker_0, # of connection points: 2
#     Edge 51, Type (0, 1), BuildingBlock: XIVTED_clean_linker_0, # of connection points: 2
#     Edge 52, Type (0, 1), BuildingBlock: XIVTED_clean_linker_0, # of connection points: 2
#     Edge 53, Type (0, 1), BuildingBlock: XIVTED_clean_linker_0, # of connection points: 2
#     Edge 54, Type (0, 1), BuildingBlock: XIVTED_clean_linker_0, # of connection points: 2
#     Edge 55, Type (0, 1), BuildingBlock: XIVTED_clean_linker_0, # of connection points: 2
#     Edge 56, Type (0, 1), BuildingBlock: XIVTED_clean_linker_0, # of connection points: 2
#     Edge 57, Type (0, 1), BuildingBlock: XIVTED_clean_linker_0, # of connection points: 2
#     Edge 58, Type (0, 1), BuildingBlock: XIVTED_clean_linker_0, # of connection points: 2
#     Edge 59, Type (0, 1), BuildingBlock: XIVTED_clean_linker_0, # of connection points: 2
#     Edge 60, Type (0, 1), BuildingBlock: XIVTED_clean_linker_0, # of connection points: 2
#     Edge 61, Type (0, 1), BuildingBlock: XIVTED_clean_linker_0, # of connection points: 2
#     Edge 62, Type (0, 1), BuildingBlock: XIVTED_clean_linker_0, # of connection points: 2
#     Edge 63, Type (0, 1), BuildingBlock: XIVTED_clean_linker_0, # of connection points: 2
#     Edge 64, Type (0, 1), BuildingBlock: XIVTED_clean_linker_0, # of connection points: 2
#     Edge 65, Type (0, 1), BuildingBlock: XIVTED_clean_linker_0, # of connection points: 2
#     Edge 66, Type (0, 1), BuildingBlock: XIVTED_clean_linker_0, # of connection points: 2
#     Edge 67, Type (0, 1), BuildingBlock: XIVTED_clean_linker_0, # of connection points: 2
#     Edge 68, Type (0, 1), BuildingBlock: XIVTED_clean_linker_0, # of connection points: 2
#     Edge 69, Type (0, 1), BuildingBlock: XIVTED_clean_linker_0, # of connection points: 2
#     Edge 70, Type (0, 1), BuildingBlock: XIVTED_clean_linker_0, # of connection points: 2
#     Edge 71, Type (0, 1), BuildingBlock: XIVTED_clean_linker_0, # of connection points: 2
#     Edge 72, Type (0, 1), BuildingBlock: XIVTED_clean_linker_0, # of connection points: 2
#     Edge 73, Type (0, 1), BuildingBlock: XIVTED_clean_linker_0, # of connection points: 2
#     Edge 74, Type (0, 1), BuildingBlock: XIVTED_clean_linker_0, # of connection points: 2
#     Edge 75, Type (0, 1), BuildingBlock: XIVTED_clean_linker_0, # of connection points: 2
#     Edge 76, Type (0, 1), BuildingBlock: XIVTED_clean_linker_0, # of connection points: 2
#     Edge 77, Type (0, 1), BuildingBlock: XIVTED_clean_linker_0, # of connection points: 2
#     Edge 78, Type (0, 1), BuildingBlock: XIVTED_clean_linker_0, # of connection points: 2
#     Edge 79, Type (0, 1), BuildingBlock: XIVTED_clean_linker_0, # of connection points: 2
#     Edge 80, Type (0, 1), BuildingBlock: XIVTED_clean_linker_0, # of connection points: 2
#     Edge 81, Type (0, 1), BuildingBlock: XIVTED_clean_linker_0, # of connection points: 2
#     Edge 82, Type (0, 1), BuildingBlock: XIVTED_clean_linker_0, # of connection points: 2
#     Edge 83, Type (0, 1), BuildingBlock: XIVTED_clean_linker_0, # of connection points: 2
#     Edge 84, Type (0, 1), BuildingBlock: XIVTED_clean_linker_0, # of connection points: 2
#     Edge 85, Type (0, 1), BuildingBlock: XIVTED_clean_linker_0, # of connection points: 2
#     Edge 86, Type (0, 1), BuildingBlock: XIVTED_clean_linker_0, # of connection points: 2
#     Edge 87, Type (0, 1), BuildingBlock: XIVTED_clean_linker_0, # of connection points: 2
#     Edge 88, Type (0, 1), BuildingBlock: XIVTED_clean_linker_0, # of connection points: 2
#     Edge 89, Type (0, 1), BuildingBlock: XIVTED_clean_linker_0, # of connection points: 2
#     Edge 90, Type (0, 1), BuildingBlock: XIVTED_clean_linker_0, # of connection points: 2
#     Edge 91, Type (0, 1), BuildingBlock: XIVTED_clean_linker_0, # of connection points: 2
#     Edge 92, Type (0, 1), BuildingBlock: XIVTED_clean_linker_0, # of connection points: 2
#     Edge 93, Type (0, 1), BuildingBlock: XIVTED_clean_linker_0, # of connection points: 2
#     Edge 94, Type (0, 1), BuildingBlock: XIVTED_clean_linker_0, # of connection points: 2
#     Edge 95, Type (0, 1), BuildingBlock: XIVTED_clean_linker_0, # of connection points: 2
#     Edge 96, Type (0, 1), BuildingBlock: XIVTED_clean_linker_0, # of connection points: 2
#     Edge 97, Type (0, 1), BuildingBlock: XIVTED_clean_linker_0, # of connection points: 2
#     Edge 98, Type (0, 1), BuildingBlock: XIVTED_clean_linker_0, # of connection points: 2
#     Edge 99, Type (0, 1), BuildingBlock: XIVTED_clean_linker_0, # of connection points: 2
#     Edge 100, Type (0, 1), BuildingBlock: XIVTED_clean_linker_0, # of connection points: 2
#     Edge 101, Type (0, 1), BuildingBlock: XIVTED_clean_linker_0, # of connection points: 2
#     Edge 102, Type (0, 1), BuildingBlock: XIVTED_clean_linker_0, # of connection points: 2
#     Edge 103, Type (0, 1), BuildingBlock: XIVTED_clean_linker_0, # of connection points: 2
#     Edge 104, Type (0, 1), BuildingBlock: XIVTED_clean_linker_0, # of connection points: 2
#     Edge 105, Type (0, 1), BuildingBlock: XIVTED_clean_linker_0, # of connection points: 2
#     Edge 106, Type (0, 1), BuildingBlock: XIVTED_clean_linker_0, # of connection points: 2
#     Edge 107, Type (0, 1), BuildingBlock: XIVTED_clean_linker_0, # of connection points: 2
#     Edge 108, Type (0, 1), BuildingBlock: XIVTED_clean_linker_0, # of connection points: 2
#     Edge 109, Type (0, 1), BuildingBlock: XIVTED_clean_linker_0, # of connection points: 2
#     Edge 110, Type (0, 1), BuildingBlock: XIVTED_clean_linker_0, # of connection points: 2
#     Edge 111, Type (0, 1), BuildingBlock: XIVTED_clean_linker_0, # of connection points: 2
#     Edge 112, Type (0, 1), BuildingBlock: XIVTED_clean_linker_0, # of connection points: 2
#     Edge 113, Type (0, 1), BuildingBlock: XIVTED_clean_linker_0, # of connection points: 2
#     Edge 114, Type (0, 1), BuildingBlock: XIVTED_clean_linker_0, # of connection points: 2
#     Edge 115, Type (0, 1), BuildingBlock: XIVTED_clean_linker_0, # of connection points: 2
#     Edge 116, Type (0, 1), BuildingBlock: XIVTED_clean_linker_0, # of connection points: 2
#     Edge 117, Type (0, 1), BuildingBlock: XIVTED_clean_linker_0, # of connection points: 2
#     Edge 118, Type (0, 1), BuildingBlock: XIVTED_clean_linker_0, # of connection points: 2
#     Edge 119, Type (0, 1), BuildingBlock: XIVTED_clean_linker_0, # of connection points: 2
#     Edge 120, Type (0, 1), BuildingBlock: XIVTED_clean_linker_0, # of connection points: 2
#     Edge 121, Type (0, 1), BuildingBlock: XIVTED_clean_linker_0, # of connection points: 2
#     Edge 122, Type (0, 1), BuildingBlock: XIVTED_clean_linker_0, # of connection points: 2
#     Edge 123, Type (0, 1), BuildingBlock: XIVTED_clean_linker_0, # of connection points: 2
#     Edge 124, Type (0, 1), BuildingBlock: XIVTED_clean_linker_0, # of connection points: 2
#     Edge 125, Type (0, 1), BuildingBlock: XIVTED_clean_linker_0, # of connection points: 2
#     Edge 126, Type (0, 1), BuildingBlock: XIVTED_clean_linker_0, # of connection points: 2
#     Edge 127, Type (0, 1), BuildingBlock: XIVTED_clean_linker_0, # of connection points: 2
#     Edge 128, Type (0, 1), BuildingBlock: XIVTED_clean_linker_0, # of connection points: 2
#     Edge 129, Type (0, 1), BuildingBlock: XIVTED_clean_linker_0, # of connection points: 2
#     Edge 130, Type (0, 1), BuildingBlock: XIVTED_clean_linker_0, # of connection points: 2
#     Edge 131, Type (0, 1), BuildingBlock: XIVTED_clean_linker_0, # of connection points: 2
#     Edge 132, Type (0, 1), BuildingBlock: XIVTED_clean_linker_0, # of connection points: 2
#     Edge 133, Type (0, 1), BuildingBlock: XIVTED_clean_linker_0, # of connection points: 2
#     Edge 134, Type (0, 1), BuildingBlock: XIVTED_clean_linker_0, # of connection points: 2
#     Edge 135, Type (0, 1), BuildingBlock: XIVTED_clean_linker_0, # of connection points: 2
# Relax obj value: 0.300
# Max RMSD: 0.289
# Mean RMSD: 0.134
data_MOF--net-iac--node1-KUFVIS_clean_sbu_0--node2-VOLQOD_clean_sbu_1--edge1-XIVTED_clean_linker_0
_symmetry_space_group_name_H-M    P1
_symmetry_Int_Tables_number       1
_symmetry_cell_setting            triclinic
loop_
_symmetry_equiv_pos_as_xyz
'x, y, z'
_cell_length_a     54.707386
_cell_length_b     53.742631
_cell_length_c     55.804097
_cell_angle_alpha  90.143063
_cell_angle_beta   90.096746
_cell_angle_gamma 90.726169
loop_
_atom_site_label
_atom_site_type_symbol
_atom_site_fract_x
_atom_site_fract_y
_atom_site_fract_z
_atom_type_partial_charge
Mn0 Mn 0.00388 0.26938 0.14127 0.0
Mn1 Mn 0.9616 0.25943 0.09808 0.0
C2 C -0.00359 0.22946 0.12806 0.0
C3 C 0.04358 0.28121 0.15115 0.0
C4 C 0.94903 0.26777 0.15049 0.0
O5 O -0.00234 0.30385 0.12833 0.0
O6 O 0.97289 0.29486 0.09728 0.0
C7 C 0.99339 0.2669 0.05575 0.0
N8 N 0.97743 0.25238 0.06837 0.0
C9 C 0.97884 0.22008 0.03848 0.0
C10 C 0.99515 0.23477 0.02507 0.0
C11 C 0.00251 0.25825 0.03379 0.0
C12 C 0.97035 0.2297 0.06023 0.0
H13 H -0.00085 0.28493 0.06242 0.0
C14 C 0.98585 0.31016 0.10972 0.0
O15 O 0.0258 0.28375 0.16634 0.0
O16 O 0.03826 0.27165 0.1304 0.0
N17 N 0.94901 0.22606 0.09612 0.0
C18 C 0.93401 0.21373 0.11169 0.0
C19 C 0.92537 0.18976 0.10585 0.0
C20 C 0.93198 0.17881 0.08397 0.0
C21 C 0.94711 0.19198 0.06806 0.0
C22 C 0.95504 0.21589 0.07478 0.0
H23 H 0.92884 0.222 0.12853 0.0
O24 O 0.0076 0.23335 0.14826 0.0
O25 O 0.99096 0.24908 0.11556 0.0
O26 O 0.9709 0.26916 0.15844 0.0
O27 O 0.94373 0.26559 0.12824 0.0
C28 C 0.95507 0.18211 0.04604 0.0
C29 C 0.97099 0.19612 0.0313 0.0
H30 H 0.00228 0.22814 0.00816 0.0
H31 H 0.01519 0.26964 0.0236 0.0
H32 H 0.91369 0.17971 0.11822 0.0
H33 H 0.92548 0.16021 0.07964 0.0
H34 H 0.94935 0.16362 0.04044 0.0
H35 H 0.97725 0.18819 0.01457 0.0
Mn36 Mn 0.98699 0.73485 0.39983 0.0
Mn37 Mn 0.9463 0.74515 0.44421 0.0
C38 C 0.98339 0.77419 0.41619 0.0
C39 C 0.02477 0.72205 0.38597 0.0
C40 C 0.9321 0.73933 0.39196 0.0
O41 O 0.97963 0.70005 0.41239 0.0
O42 O 0.9554 0.70956 0.44362 0.0
C43 C 0.97758 0.73433 0.48623 0.0
N44 N 0.96275 0.75016 0.47413 0.0
C45 C 0.96584 0.78072 0.50562 0.0
C46 C 0.98102 0.76469 0.51848 0.0
C47 C 0.98699 0.74144 0.50869 0.0
C48 C 0.95705 0.77265 0.4833 0.0
H49 H 0.98221 0.71643 0.47882 0.0
C50 C 0.96798 0.69412 0.43137 0.0
O51 O 0.00544 0.72106 0.37253 0.0
O52 O 0.02221 0.73056 0.40765 0.0
N53 N 0.93647 0.77909 0.44735 0.0
C54 C 0.92286 0.79302 0.43205 0.0
C55 C 0.91583 0.81704 0.43891 0.0
C56 C 0.92267 0.82644 0.46148 0.0
C57 C 0.93655 0.81173 0.47698 0.0
C58 C 0.94296 0.7879 0.4692 0.0
H59 H 0.91749 0.78594 0.4147 0.0
O60 O 0.99271 0.77142 0.39497 0.0
O61 O 0.97664 0.75401 0.42717 0.0
O62 O 0.95369 0.73711 0.38401 0.0
O63 O 0.92717 0.74113 0.41424 0.0
C64 C 0.94464 0.81997 0.49966 0.0
C65 C 0.95938 0.80453 0.51392 0.0
H66 H 0.98834 0.77011 0.5358 0.0
H67 H -0.00122 0.72901 0.51846 0.0
H68 H 0.90519 0.82831 0.42681 0.0
H69 H 0.91737 0.84505 0.46664 0.0
H70 H 0.94002 0.83834 0.50613 0.0
H71 H 0.96587 0.81126 0.53113 0.0
Mn72 Mn 0.46771 0.75593 0.61634 0.0
Mn73 Mn 0.43643 0.7316 0.56953 0.0
C74 C 0.47491 0.71568 0.60532 0.0
C75 C 0.49975 0.78019 0.6307 0.0
C76 C 0.41505 0.73813 0.61926 0.0
O77 O 0.45261 0.78563 0.60044 0.0
O78 O 0.43777 0.76861 0.56647 0.0
C79 C 0.47065 0.74513 0.53048 0.0
N80 N 0.45756 0.72751 0.5426 0.0
C81 C 0.47181 0.69515 0.51643 0.0
C82 C 0.48522 0.713 0.50349 0.0
C83 C 0.4847 0.73808 0.51061 0.0
C84 C 0.4581 0.70329 0.53604 0.0
H85 H 0.47042 0.7644 0.53598 0.0
C86 C 0.44308 0.78742 0.57973 0.0
O87 O 0.47981 0.77715 0.64299 0.0
O88 O 0.50091 0.76937 0.6099 0.0
N89 N 0.43387 0.69602 0.56961 0.0
C90 C 0.42082 0.68094 0.58462 0.0
C91 C 0.41998 0.65518 0.58034 0.0
C92 C 0.43225 0.64521 0.56051 0.0
C93 C 0.4452 0.66111 0.54507 0.0
C94 C 0.44531 0.68665 0.55018 0.0
H95 H 0.41122 0.68845 0.59983 0.0
O96 O 0.48163 0.72374 0.62628 0.0
O97 O 0.46519 0.73181 0.59085 0.0
O98 O 0.43472 0.74539 0.62942 0.0
O99 O 0.4132 0.73425 0.5967 0.0
C100 C 0.45847 0.65256 0.52512 0.0
C101 C 0.47182 0.66956 0.51086 0.0
H102 H 0.49614 0.70762 0.48821 0.0
H103 H 0.49515 0.75194 0.50083 0.0
H104 H 0.40991 0.64303 0.59232 0.0
H105 H 0.43176 0.6253 0.5574 0.0
H106 H 0.45883 0.6329 0.52082 0.0
H107 H 0.48224 0.66272 0.49578 0.0
Mn108 Mn 0.52007 0.27529 0.87673 0.0
Mn109 Mn 0.47834 0.26769 0.92036 0.0
C110 C 0.50682 0.30959 0.89751 0.0
C111 C 0.56037 0.27133 0.86512 0.0
C112 C 0.46687 0.26474 0.86708 0.0
O113 O 0.51941 0.23822 0.88332 0.0
O114 O 0.49812 0.23716 0.91776 0.0
C115 C 0.51038 0.26415 0.96302 0.0
N116 N 0.49153 0.27516 0.95132 0.0
C117 C 0.48387 0.30211 0.9849 0.0
C118 C 0.50301 0.29085 -0.00258 0.0
C119 C 0.5164 0.27188 0.98637 0.0
C120 C 0.4787 0.29362 0.96168 0.0
H121 H 0.52078 0.24964 0.95455 0.0
C122 C 0.51224 0.22723 0.90228 0.0
O123 O 0.54266 0.26963 0.84965 0.0
O124 O 0.5547 0.2768 0.8871 0.0
N125 N 0.4583 0.29627 0.92514 0.0
C126 C 0.44154 0.30641 0.91007 0.0
C127 C 0.42724 0.32629 0.91805 0.0
C128 C 0.43013 0.3354 0.94151 0.0
C129 C 0.44734 0.32456 0.95677 0.0
C130 C 0.46102 0.30473 0.94785 0.0
H131 H 0.43906 0.29946 0.89208 0.0
O132 O 0.518 0.31249 0.87715 0.0
O133 O 0.50476 0.28699 0.90537 0.0
O134 O 0.48748 0.27265 0.85959 0.0
O135 O 0.46244 0.26014 0.88915 0.0
C136 C 0.45177 0.33295 0.98034 0.0
C137 C 0.47006 0.32178 0.99437 0.0
H138 H 0.50777 0.29683 0.0154 0.0
H139 H 0.53133 0.26324 0.99583 0.0
H140 H 0.41401 0.33458 0.90615 0.0
H141 H 0.41918 0.35084 0.94755 0.0
H142 H 0.44153 0.34829 0.98769 0.0
H143 H 0.47362 0.32872 0.0123 0.0
Mn144 Mn 0.12147 0.01876 0.28993 0.0
Mn145 Mn 0.17325 0.03676 0.31788 0.0
C146 C 0.13651 0.05834 0.28406 0.0
C147 C 0.10392 -0.00211 0.25774 0.0
C148 C 0.12397 0.03139 0.34258 0.0
O149 O 0.136 0.98666 0.30195 0.0
O150 O 0.17341 -2e-05 0.31361 0.0
C151 C 0.20941 0.02423 0.28047 0.0
N152 N 0.19924 0.04128 0.2954 0.0
C153 C 0.22677 0.07341 0.28155 0.0
C154 C 0.23774 0.05612 0.26624 0.0
C155 C 0.22895 0.03145 0.26563 0.0
C156 C 0.20739 0.06513 0.29595 0.0
H157 H 0.20258 0.00531 0.2798 0.0
C158 C 0.15779 0.98266 0.30886 0.0
O159 O 0.09209 0.00047 0.27777 0.0
O160 O 0.1257 0.00756 0.25651 0.0
N161 N 0.17556 0.07202 0.32269 0.0
C162 C 0.16202 0.08676 0.33733 0.0
C163 C 0.16795 0.11218 0.33941 0.0
C164 C 0.18784 0.12214 0.32659 0.0
C165 C 0.20164 0.10659 0.31179 0.0
C166 C 0.19494 0.08138 0.31052 0.0
H167 H 0.14681 0.07922 0.34736 0.0
O168 O 0.11393 0.05313 0.27868 0.0
O169 O 0.14952 0.04009 0.29195 0.0
O170 O 0.11117 0.02757 0.32379 0.0
O171 O 0.14731 0.03331 0.34244 0.0
C172 C 0.22149 0.11521 0.29792 0.0
C173 C 0.23398 0.09866 0.28273 0.0
H174 H 0.25274 0.06164 0.25469 0.0
H175 H 0.23717 0.01804 0.2537 0.0
H176 H 0.1572 0.12407 0.35086 0.0
H177 H 0.19224 0.1418 0.32809 0.0
H178 H 0.22701 0.13463 0.29844 0.0
H179 H 0.2489 0.10561 0.27179 0.0
Mn180 Mn 0.27238 0.90192 0.52562 0.0
Mn181 Mn 0.25821 0.94144 0.48074 0.0
C182 C 0.2992 0.93386 0.51681 0.0
C183 C 0.26549 0.8873 0.56403 0.0
C184 C 0.27725 0.88929 0.47304 0.0
O185 O 0.23673 0.89443 0.51853 0.0
O186 O 0.22815 0.92659 0.49457 0.0
C187 C 0.23286 0.97963 0.50943 0.0
N188 N 0.25054 0.97346 0.4934 0.0
C189 C 0.26294 0.0163 0.489 0.0
C190 C 0.24477 0.02315 0.50535 0.0
C191 C 0.22975 0.00472 0.5157 0.0
C192 C 0.26536 0.99099 0.48366 0.0
H193 H 0.22123 0.96552 0.51736 0.0
C194 C 0.22163 0.90819 0.50766 0.0
O195 O 0.27307 0.87302 0.54693 0.0
O196 O 0.26325 0.91088 0.55927 0.0
N197 N 0.28505 0.95793 0.46519 0.0
C198 C 0.30122 0.94836 0.44916 0.0
C199 C 0.31707 0.96441 0.43662 0.0
C200 C 0.31593 0.99021 0.44039 0.0
C201 C 0.2988 -0.00028 0.45654 0.0
C202 C 0.28325 0.98282 0.46828 0.0
H203 H 0.30211 0.92861 0.446 0.0
O204 O 0.3061 0.91528 0.52992 0.0
O205 O 0.27626 0.93416 0.51057 0.0
O206 O 0.2823 0.88489 0.49483 0.0
O207 O 0.2666 0.90902 0.46596 0.0
C208 C 0.29654 0.02532 0.46144 0.0
C209 C 0.27875 0.03359 0.4778 0.0
H210 H 0.24223 0.04249 0.51014 0.0
H211 H 0.21574 0.00984 0.52839 0.0
H212 H 0.33017 0.95691 0.42411 0.0
H213 H 0.32833 0.00252 0.43085 0.0
H214 H 0.30846 0.0388 0.4528 0.0
H215 H 0.27729 0.0533 0.48154 0.0
Mn216 Mn 0.36958 0.00454 0.72983 0.0
Mn217 Mn 0.32565 -9e-05 0.77212 0.0
C218 C 0.34842 0.96757 0.7338 0.0
C219 C 0.3833 0.01924 0.69329 0.0
C220 C 0.37996 -0.0023 0.78268 0.0
O221 O 0.36352 0.04017 0.73975 0.0
O222 O 0.32981 0.03516 0.76215 0.0
C223 C 0.28291 0.01477 0.74305 0.0
N224 N 0.29385 -0.00177 0.75795 0.0
C225 C 0.25755 0.97254 0.75925 0.0
C226 C 0.24579 0.98943 0.74413 0.0
C227 C 0.25859 0.01055 0.73587 0.0
C228 C 0.28187 0.97762 0.76563 0.0
H229 H 0.29266 0.03105 0.7367 0.0
C230 C 0.345 0.0488 0.75053 0.0
O231 O 0.39794 0.01585 0.71121 0.0
O232 O 0.36042 0.01296 0.69613 0.0
N233 N 0.31877 0.96693 0.78344 0.0
C234 C 0.33307 0.95179 0.79694 0.0
C235 C 0.3231 0.92969 0.80637 0.0
C236 C 0.29846 0.92351 0.80213 0.0
C237 C 0.28403 0.93944 0.78836 0.0
C238 C 0.29494 0.96125 0.77947 0.0
H239 H 0.35195 0.95643 0.80043 0.0
O240 O 0.36907 0.9683 0.72234 0.0
O241 O 0.34003 0.98869 0.74149 0.0
O242 O 0.38684 -0.00234 0.761 0.0
O243 O 0.35772 0.00058 0.78901 0.0
C244 C 0.25933 0.93435 0.78281 0.0
C245 C 0.24617 0.95076 0.76808 0.0
H246 H 0.22701 0.98628 0.73861 0.0
H247 H 0.2497 0.02359 0.72407 0.0
H248 H 0.3344 0.91746 0.81691 0.0
H249 H 0.29088 0.90637 0.8093 0.0
H250 H 0.2504 0.91764 0.78944 0.0
H251 H 0.22733 0.9464 0.76357 0.0
Mn252 Mn 0.25233 0.12848 0.96671 0.0
Mn253 Mn 0.24091 0.07692 0.93369 0.0
C254 C 0.21481 0.10933 0.96886 0.0
C255 C 0.26781 0.14715 0.00105 0.0
C256 C 0.24096 0.12905 0.91317 0.0
O257 O 0.28598 0.11731 0.95708 0.0
O258 O 0.27694 0.08147 0.93773 0.0
C259 C 0.25894 0.03914 0.96776 0.0
N260 N 0.24051 0.04841 0.95413 0.0
C261 C 0.21281 0.01609 0.96727 0.0
C262 C 0.23156 0.0061 0.98128 0.0
C263 C 0.25471 0.0177 0.98155 0.0
C264 C 0.21815 0.03739 0.95374 0.0
H265 H 0.27673 0.04808 0.96816 0.0
C266 C 0.29221 0.0973 0.94661 0.0
O267 O 0.26602 0.15944 0.98113 0.0
O268 O 0.26084 0.12398 0.00089 0.0
N269 N 0.2068 0.07002 0.92891 0.0
C270 C 0.19037 0.08264 0.91534 0.0
C271 C 0.16617 0.07378 0.91364 0.0
C272 C 0.15913 0.052 0.92581 0.0
C273 C 0.17642 0.03918 0.93945 0.0
C274 C 0.20035 0.04874 0.94026 0.0
H275 H 0.19561 0.09944 0.906 0.0
O276 O 0.2174 0.13242 0.97537 0.0
O277 O 0.23436 0.09802 0.96168 0.0
O278 O 0.24522 0.14031 0.93287 0.0
O279 O 0.24008 0.10536 0.91119 0.0
C280 C 0.17072 0.01757 0.95265 0.0
C281 C 0.18889 0.00605 0.96657 0.0
H282 H 0.22832 0.98967 0.99208 0.0
H283 H 0.26924 0.01019 0.99243 0.0
H284 H 0.15293 0.08379 0.90309 0.0
H285 H 0.14038 0.04539 0.92468 0.0
H286 H 0.15234 0.00984 0.95248 0.0
H287 H 0.18421 0.98963 0.97689 0.0
Mn288 Mn 0.76338 0.37026 0.02114 0.0
Mn289 Mn 0.76936 0.41289 0.97707 0.0
C290 C 0.79758 0.39535 0.01991 0.0
C291 C 0.74809 0.35899 0.05826 0.0
C292 C 0.77906 0.35787 0.97023 0.0
O293 O 0.72905 0.37253 0.00774 0.0
O294 O 0.73441 0.40407 0.98185 0.0
C295 C 0.74447 0.45493 0.00081 0.0
N296 N 0.76446 0.44561 0.98955 0.0
C297 C 0.78533 0.48524 0.9917 0.0
C298 C 0.76489 0.49531 0.00313 0.0
C299 C 0.74442 0.48005 0.0078 0.0
C300 C 0.78436 0.46006 0.98522 0.0
H301 H 0.72868 0.44329 0.00445 0.0
C302 C 0.72075 0.38878 0.99342 0.0
O303 O 0.75322 0.34236 0.04217 0.0
O304 O 0.75163 0.38218 0.05265 0.0
N305 N 0.80213 0.42395 0.97062 0.0
C306 C 0.8208 0.41119 0.96037 0.0
C307 C 0.84263 0.42377 0.95454 0.0
C308 C 0.84502 0.44938 0.95914 0.0
C309 C 0.82559 0.46215 0.96967 0.0
C310 C 0.80416 0.44868 0.97484 0.0
H311 H 0.81915 0.39154 0.95675 0.0
O312 O 0.79783 0.37477 0.03201 0.0
O313 O 0.77721 0.40102 0.00941 0.0
O314 O 0.77512 0.35122 0.99179 0.0
O315 O 0.77575 0.37999 0.96265 0.0
C316 C 0.82681 0.48764 0.9756 0.0
C317 C 0.80675 0.49914 0.98673 0.0
H318 H 0.76478 0.51467 0.00856 0.0
H319 H 0.72862 0.48764 0.01673 0.0
H320 H 0.8576 0.41375 0.94654 0.0
H321 H 0.86193 0.459 0.95472 0.0
H322 H 0.84322 0.49847 0.972 0.0
H323 H 0.80802 0.51866 0.99151 0.0
Mn324 Mn 0.89692 0.52857 0.29767 0.0
Mn325 Mn 0.84757 0.51979 0.33228 0.0
C326 C 0.88776 0.48915 0.31198 0.0
C327 C 0.91377 0.53384 0.2601 0.0
C328 C 0.89325 0.54818 0.34777 0.0
O329 O 0.87603 0.55904 0.29204 0.0
O330 O 0.84057 0.5465 0.30904 0.0
C331 C 0.81108 0.50105 0.29713 0.0
N332 N 0.82423 0.49776 0.3176 0.0
C333 C 0.80434 0.45834 0.32503 0.0
C334 C 0.79049 0.46136 0.3041 0.0
C335 C 0.79398 0.48275 0.29003 0.0
C336 C 0.82124 0.47711 0.3311 0.0
H337 H 0.81364 0.51749 0.28629 0.0
C338 C 0.85301 0.56091 0.29529 0.0
O339 O 0.92388 0.54345 0.27907 0.0
O340 O 0.8942 0.52019 0.26304 0.0
N341 N 0.85256 0.49352 0.35484 0.0
C342 C 0.86856 0.49259 0.37355 0.0
C343 C 0.86816 0.47188 0.38885 0.0
C344 C 0.85122 0.45245 0.38489 0.0
C345 C 0.8349 0.45383 0.36556 0.0
C346 C 0.8362 0.47489 0.35086 0.0
H347 H 0.8815 0.50752 0.37684 0.0
O348 O 0.90982 0.49436 0.30474 0.0
O349 O 0.87247 0.50721 0.31058 0.0
O350 O 0.90637 0.54111 0.33039 0.0
O351 O 0.87054 0.5426 0.34963 0.0
C352 C 0.81765 0.43496 0.36009 0.0
C353 C 0.80232 0.43725 0.33988 0.0
H354 H 0.77731 0.44728 0.29855 0.0
H355 H 0.78346 0.48515 0.27377 0.0
H356 H 0.88084 0.47094 0.40373 0.0
H357 H 0.851 0.43649 0.39672 0.0
H358 H 0.81623 0.41845 0.37112 0.0
H359 H 0.78935 0.42247 0.33568 0.0
Mn360 Mn 0.74071 0.61112 0.49339 0.0
Mn361 Mn 0.73937 0.5585 0.46016 0.0
C362 C 0.7042 0.59065 0.4865 0.0
C363 C 0.7463 0.63276 0.52901 0.0
C364 C 0.74471 0.61018 0.43893 0.0
O365 O 0.77597 0.60013 0.49368 0.0
O366 O 0.77257 0.56343 0.47424 0.0
C367 C 0.7471 0.52139 0.49856 0.0
N368 N 0.73335 0.5302 0.48013 0.0
C369 C 0.70379 0.49702 0.48488 0.0
C370 C 0.71776 0.4875 0.50375 0.0
C371 C 0.73948 0.49977 0.51065 0.0
C372 C 0.71239 0.51855 0.47338 0.0
H373 H 0.76373 0.53081 0.50407 0.0
C374 C 0.78469 0.57943 0.48674 0.0
O375 O 0.74973 0.64314 0.50834 0.0
O376 O 0.73969 0.60942 0.52914 0.0
N377 N 0.70799 0.55113 0.44636 0.0
C378 C 0.6957 0.56366 0.42899 0.0
C379 C 0.6732 0.55423 0.42059 0.0
C380 C 0.66358 0.53201 0.43009 0.0
C381 C 0.67655 0.51941 0.44792 0.0
C382 C 0.69902 0.52956 0.45542 0.0
H383 H 0.70285 0.58082 0.42171 0.0
O384 O 0.70437 0.61407 0.49231 0.0
O385 O 0.72529 0.57996 0.48508 0.0
O386 O 0.74302 0.62164 0.45874 0.0
O387 O 0.74478 0.58646 0.43733 0.0
C388 C 0.6678 0.49749 0.45891 0.0
C389 C 0.68139 0.48633 0.47741 0.0
H390 H 0.71186 0.47092 0.51324 0.0
H391 H 0.75028 0.49263 0.5253 0.0
H392 H 0.66324 0.56413 0.40691 0.0
H393 H 0.64609 0.52495 0.42376 0.0
H394 H 0.65044 0.48929 0.45357 0.0
H395 H 0.67426 0.46971 0.486 0.0
Mn396 Mn 0.64476 0.50006 0.7734 0.0
Mn397 Mn 0.6948 0.52308 0.80201 0.0
C398 C 0.65432 0.54164 0.77033 0.0
C399 C 0.6257 0.47998 0.7415 0.0
C400 C 0.64678 0.51237 0.82688 0.0
O401 O 0.66381 0.4692 0.78136 0.0
O402 O 0.6973 0.48628 0.79852 0.0
C403 C 0.73136 0.51194 0.76453 0.0
N404 N 0.72037 0.52863 0.77928 0.0
C405 C 0.74645 0.56187 0.76521 0.0
C406 C 0.75816 0.545 0.74999 0.0
C407 C 0.75052 0.51995 0.74959 0.0
C408 C 0.72745 0.55281 0.77966 0.0
H409 H 0.72554 0.49266 0.76416 0.0
C410 C 0.68495 0.46752 0.79072 0.0
O411 O 0.61649 0.47956 0.76288 0.0
O412 O 0.64632 0.49189 0.73861 0.0
N413 N 0.69558 0.5584 0.80664 0.0
C414 C 0.68191 0.57246 0.82179 0.0
C415 C 0.68701 0.59804 0.82404 0.0
C416 C 0.7063 0.60883 0.81098 0.0
C417 C 0.7204 0.59392 0.79583 0.0
C418 C 0.71454 0.56851 0.7944 0.0
H419 H 0.66713 0.56428 0.83199 0.0
O420 O 0.6323 0.53366 0.76584 0.0
O421 O 0.67051 0.52497 0.77581 0.0
O422 O 0.63546 0.5048 0.80827 0.0
O423 O 0.66931 0.51888 0.82685 0.0
C424 C 0.73979 0.60335 0.78182 0.0
C425 C 0.75272 0.58736 0.76642 0.0
H426 H 0.77294 0.55111 0.73842 0.0
H427 H 0.75939 0.50684 0.73781 0.0
H428 H 0.67606 0.60941 0.8358 0.0
H429 H 0.71004 0.62861 0.8126 0.0
H430 H 0.74469 0.62293 0.7825 0.0
H431 H 0.76737 0.5949 0.75549 0.0
Mn432 Mn 0.96712 0.78503 0.87736 0.0
Mn433 Mn 0.92931 0.81223 0.9165 0.0
C434 C 0.97449 0.82521 0.8898 0.0
C435 C 0.00227 0.76419 0.86746 0.0
C436 C 0.91568 0.80084 0.86491 0.0
O437 O 0.94998 0.75569 0.89325 0.0
O438 O 0.9278 0.77544 0.92167 0.0
C439 C 0.95342 0.80088 0.9627 0.0
N440 N 0.94552 0.81789 0.94647 0.0
C441 C 0.96045 0.85187 0.97086 0.0
C442 C 0.96858 0.8347 0.98789 0.0
C443 C 0.96505 0.80911 0.98378 0.0
C444 C 0.94868 0.84259 0.95033 0.0
H445 H 0.95096 0.78119 0.95953 0.0
C446 C 0.93587 0.7556 0.91157 0.0
O447 O 0.9835 0.76422 0.8532 0.0
O448 O -0.00041 0.774 0.88857 0.0
N449 N 0.93066 0.84769 0.91288 0.0
C450 C 0.92369 0.86168 0.89377 0.0
C451 C 0.92747 0.88756 0.89431 0.0
C452 C 0.93846 0.89878 0.91443 0.0
C453 C 0.94532 0.88406 0.93397 0.0
C454 C 0.941 0.85835 0.93245 0.0
H455 H 0.91558 0.85314 0.87809 0.0
O456 O 0.98245 0.81795 0.86907 0.0
O457 O 0.96126 0.80917 0.90144 0.0
O458 O 0.93651 0.79296 0.85885 0.0
O459 O 0.91064 0.80798 0.88616 0.0
C460 C 0.95676 0.89383 0.95464 0.0
C461 C 0.96422 0.87776 0.97313 0.0
H462 H 0.97782 0.84095 0.00404 0.0
H463 H 0.97142 0.79574 0.99677 0.0
H464 H 0.92208 0.89881 0.87919 0.0
H465 H 0.94156 0.91871 0.91473 0.0
H466 H 0.96025 0.91365 0.95634 0.0
H467 H 0.97335 0.88546 0.98876 0.0
Mn468 Mn 0.01272 0.26532 0.60029 0.0
Mn469 Mn 0.96966 0.2319 0.57068 0.0
C470 C 0.01063 0.22313 0.60488 0.0
C471 C 0.05146 0.28276 0.60357 0.0
C472 C 0.95925 0.26083 0.61592 0.0
O473 O 0.00194 0.289 0.57445 0.0
O474 O 0.97277 0.26567 0.55613 0.0
C475 C -0.00399 0.22729 0.5246 0.0
N476 N 0.98487 0.2164 0.54377 0.0
C477 C 0.99354 0.17544 0.52872 0.0
C478 C 0.00496 0.18623 0.50874 0.0
C479 C 0.00623 0.21226 0.50669 0.0
C480 C 0.98361 0.19136 0.54595 0.0
H481 H -0.00283 0.24728 0.52302 0.0
C482 C 0.98555 0.28568 0.55846 0.0
O483 O 0.03333 0.29119 0.61607 0.0
O484 O 0.04659 0.26549 0.58792 0.0
N485 N 0.96477 0.19882 0.58257 0.0
C486 C 0.95354 0.19135 0.60316 0.0
C487 C 0.95096 0.16582 0.60803 0.0
C488 C 0.95979 0.14825 0.59161 0.0
C489 C 0.97092 0.15637 0.57037 0.0
C490 C 0.97276 0.18205 0.56637 0.0
H491 H 0.94674 0.20477 0.61587 0.0
O492 O 0.02099 0.23686 0.62122 0.0
O493 O 0.0018 0.23453 0.58628 0.0
O494 O 0.98077 0.26978 0.61849 0.0
O495 O 0.95286 0.24658 0.59858 0.0
C496 C 0.98057 0.14 0.55315 0.0
C497 C 0.99192 0.14953 0.53237 0.0
H498 H 0.01296 0.17471 0.49493 0.0
H499 H 0.01512 0.22073 0.49138 0.0
H500 H 0.9423 0.15971 0.62444 0.0
H501 H 0.958 0.12858 0.59554 0.0
H502 H 0.97959 0.12005 0.55584 0.0
H503 H -0.00051 0.13676 0.51937 0.0
Mn504 Mn 0.49881 0.25304 0.36623 0.0
Mn505 Mn 0.47484 0.29109 0.32545 0.0
C506 C 0.46477 0.23978 0.34596 0.0
C507 C 0.52739 0.2244 0.37851 0.0
C508 C 0.47388 0.29987 0.37906 0.0
O509 O 0.5248 0.27954 0.35971 0.0
O510 O 0.51078 0.29701 0.32567 0.0
C511 C 0.49462 0.27234 0.27966 0.0
N512 N 0.47507 0.2777 0.29373 0.0
C513 C 0.44687 0.26612 0.26238 0.0
C514 C 0.4667 0.26054 0.2475 0.0
C515 C 0.49068 0.26359 0.25621 0.0
C516 C 0.45194 0.27479 0.28556 0.0
H517 H 0.51306 0.27475 0.28631 0.0
C518 C 0.52734 0.29398 0.34168 0.0
O519 O 0.51773 0.2401 0.39324 0.0
O520 O 0.52104 0.22577 0.35606 0.0
N521 N 0.44005 0.2868 0.32386 0.0
C522 C 0.42297 0.29136 0.34101 0.0
C523 C 0.39806 0.2882 0.33551 0.0
C524 C 0.39094 0.28062 0.3124 0.0
C525 C 0.40882 0.27619 0.295 0.0
C526 C 0.43337 0.27962 0.30152 0.0
H527 H 0.42828 0.29736 0.35874 0.0
O528 O 0.47073 0.22924 0.36604 0.0
O529 O 0.47944 0.25719 0.33808 0.0
O530 O 0.47868 0.27768 0.38461 0.0
O531 O 0.47368 0.30756 0.35745 0.0
C532 C 0.40327 0.2681 0.27155 0.0
C533 C 0.42228 0.26301 0.25527 0.0
H534 H 0.46374 0.25371 0.22943 0.0
H535 H 0.50607 0.25924 0.24486 0.0
H536 H 0.38437 0.29164 0.34905 0.0
H537 H 0.37171 0.2781 0.30826 0.0
H538 H 0.38445 0.26531 0.26599 0.0
H539 H 0.41778 0.25636 0.23744 0.0
Mn540 Mn 0.485 0.76364 0.1287 0.0
Mn541 Mn 0.44541 0.73754 0.0898 0.0
C542 C 0.48407 0.72137 0.12352 0.0
C543 C 0.52338 0.77881 0.13809 0.0
C544 C 0.43066 0.7587 0.13795 0.0
O545 O 0.47523 0.79265 0.10799 0.0
O546 O 0.45117 0.77296 0.08063 0.0
C547 C 0.47545 0.73856 0.04573 0.0
N548 N 0.4627 0.72541 0.06249 0.0
C549 C 0.47264 0.68659 0.04346 0.0
C550 C 0.48571 0.69974 0.02589 0.0
C551 C 0.48713 0.72584 0.02704 0.0
C552 C 0.46114 0.70029 0.0615 0.0
H553 H 0.47683 0.75859 0.0467 0.0
C554 C 0.46197 0.79246 0.0891 0.0
O555 O 0.50457 0.78458 0.15109 0.0
O556 O 0.51934 0.76649 0.11846 0.0
N557 N 0.43926 0.70322 0.09709 0.0
C558 C 0.4274 0.69325 0.11633 0.0
C559 C 0.42515 0.66729 0.11837 0.0
C560 C 0.43514 0.65185 0.10066 0.0
C561 C 0.44729 0.66253 0.08104 0.0
C562 C 0.44876 0.68853 0.07984 0.0
H563 H 0.41987 0.70502 0.1301 0.0
O564 O 0.49226 0.73089 0.14338 0.0
O565 O 0.47591 0.73701 0.10782 0.0
O566 O 0.45214 0.76424 0.14494 0.0
O567 O 0.42587 0.74899 0.11752 0.0
C568 C 0.45841 0.64838 0.06288 0.0
C569 C 0.47107 0.6604 0.04409 0.0
H570 H 0.49495 0.68999 0.01158 0.0
H571 H 0.49733 0.73611 0.01364 0.0
H572 H 0.41584 0.65918 0.13362 0.0
H573 H 0.43356 0.63182 0.10241 0.0
H574 H 0.4576 0.62823 0.06335 0.0
H575 H 0.4798 0.64931 0.0304 0.0
Mn576 Mn 0.87929 0.95138 0.80077 0.0
Mn577 Mn 0.82725 0.94299 0.83113 0.0
C578 C 0.8568 0.91525 0.79526 0.0
C579 C 0.89888 0.96392 0.76608 0.0
C580 C 0.87753 0.94572 0.85411 0.0
O581 O 0.86944 0.98652 0.81047 0.0
O582 O 0.831 0.97913 0.82415 0.0
C583 C 0.78919 0.95651 0.79588 0.0
N584 N 0.80001 0.93907 0.80988 0.0
C585 C 0.77229 0.90712 0.79568 0.0
C586 C 0.76109 0.92466 0.78084 0.0
C587 C 0.76952 0.94947 0.78102 0.0
C588 C 0.7918 0.91522 0.81012 0.0
H589 H 0.79576 0.97555 0.79584 0.0
C590 C 0.84854 0.99391 0.81784 0.0
O591 O 0.91085 0.96238 0.78615 0.0
O592 O 0.87554 0.95974 0.76666 0.0
N593 N 0.82274 0.90831 0.83788 0.0
C594 C 0.83525 0.89381 0.85357 0.0
C595 C 0.82859 0.86864 0.85613 0.0
C596 C 0.80927 0.85862 0.84245 0.0
C597 C 0.79659 0.87393 0.8265 0.0
C598 C 0.8038 0.89896 0.82499 0.0
H599 H 0.85009 0.9014 0.86418 0.0
O600 O 0.88023 0.91524 0.79163 0.0
O601 O 0.84861 0.9356 0.80451 0.0
O602 O 0.88975 0.9441 0.83482 0.0
O603 O 0.85422 0.94652 0.85457 0.0
C604 C 0.77704 0.86536 0.81211 0.0
C605 C 0.76497 0.88191 0.79662 0.0
H606 H 0.74601 0.91929 0.76926 0.0
H607 H 0.76094 0.96312 0.76964 0.0
H608 H 0.83827 0.85703 0.86869 0.0
H609 H 0.80424 0.83917 0.84442 0.0
H610 H 0.77115 0.84606 0.81281 0.0
H611 H 0.75002 0.87506 0.78558 0.0
Mn612 Mn 0.74542 0.12116 0.532 0.0
Mn613 Mn 0.73189 0.0765 0.49147 0.0
C614 C 0.70697 0.10364 0.53097 0.0
C615 C 0.75875 0.13488 0.56919 0.0
C616 C 0.73912 0.13078 0.47878 0.0
O617 O 0.77879 0.10871 0.52183 0.0
O618 O 0.76759 0.07678 0.4975 0.0
C619 C 0.74418 0.03112 0.51864 0.0
N620 N 0.72749 0.04492 0.50658 0.0
C621 C 0.69658 0.01304 0.51114 0.0
C622 C 0.71345 -0.00155 0.52356 0.0
C623 C 0.73733 0.00757 0.52739 0.0
C624 C 0.70446 0.03635 0.50284 0.0
H625 H 0.76258 0.03803 0.52151 0.0
C626 C 0.78376 0.09006 0.50846 0.0
O627 O 0.75974 0.14913 0.55049 0.0
O628 O 0.75138 0.11202 0.566 0.0
N629 N 0.69761 0.07459 0.48473 0.0
C630 C 0.68309 0.09181 0.47415 0.0
C631 C 0.65828 0.08616 0.47016 0.0
C632 C 0.64872 0.06283 0.47693 0.0
C633 C 0.66405 0.0454 0.48774 0.0
C634 C 0.68859 0.05211 0.49135 0.0
H635 H 0.69038 0.10974 0.46891 0.0
O636 O 0.7102 0.12581 0.53982 0.0
O637 O 0.72617 0.0929 0.52236 0.0
O638 O 0.74141 0.1386 0.50014 0.0
O639 O 0.73593 0.1079 0.47341 0.0
C640 C 0.65588 0.02176 0.49538 0.0
C641 C 0.67215 0.00556 0.50701 0.0
H642 H 0.70822 0.9803 0.53039 0.0
H643 H 0.75043 -0.00355 0.53703 0.0
H644 H 0.64655 0.09974 0.46188 0.0
H645 H 0.62956 0.05856 0.47387 0.0
H646 H 0.63702 0.016 0.49274 0.0
H647 H 0.66556 0.98758 0.51311 0.0
Mn648 Mn 0.61535 0.0244 0.23762 0.0
Mn649 Mn 0.66197 0.03782 0.27539 0.0
C650 C 0.62553 0.06522 0.24596 0.0
C651 C 0.6014 0.01612 0.199 0.0
C652 C 0.61232 0.01862 0.29166 0.0
O653 O 0.63334 0.99158 0.24032 0.0
O654 O 0.66591 0.00378 0.26249 0.0
C655 C 0.70247 0.03918 0.24034 0.0
N656 N 0.6893 0.05054 0.25782 0.0
C657 C 0.71515 0.08705 0.2563 0.0
C658 C 0.72907 0.07572 0.23834 0.0
C659 C 0.72264 0.05172 0.23027 0.0
C660 C 0.69517 0.0737 0.26555 0.0
H661 H 0.69758 0.0207 0.23417 0.0
C662 C 0.6536 0.98727 0.2509 0.0
O663 O 0.58889 0.00911 0.21763 0.0
O664 O 0.62239 0.02688 0.20291 0.0
N665 N 0.66055 0.07024 0.28952 0.0
C666 C 0.64477 0.07879 0.30643 0.0
C667 C 0.64845 0.10265 0.31623 0.0
C668 C 0.66847 0.11731 0.3088 0.0
C669 C 0.68467 0.10796 0.29164 0.0
C670 C 0.6801 0.08404 0.28255 0.0
H671 H 0.62951 0.06748 0.31239 0.0
O672 O 0.60405 0.05967 0.2375 0.0
O673 O 0.64035 0.04682 0.24897 0.0
O674 O 0.60182 0.01885 0.27125 0.0
O675 O 0.63461 0.02515 0.295 0.0
C676 C 0.70499 0.12154 0.28297 0.0
C677 C 0.72013 0.11116 0.2652 0.0
H678 H 0.74465 0.08532 0.23054 0.0
H679 H 0.73325 0.04288 0.21636 0.0
H680 H 0.6359 0.10971 0.32951 0.0
H681 H 0.67118 0.13575 0.3163 0.0
H682 H 0.70892 0.14015 0.28957 0.0
H683 H 0.73546 0.12195 0.2584 0.0
Mn684 Mn 0.77825 0.85876 0.98443 0.0
Mn685 Mn 0.79818 0.90895 0.95443 0.0
C686 C 0.8186 0.87107 0.98722 0.0
C687 C 0.76332 0.84289 0.02008 0.0
C688 C 0.78278 0.86018 0.93052 0.0
O689 O 0.74702 0.877 0.97648 0.0
O690 O 0.76267 0.91255 0.96067 0.0
C691 C 0.79202 0.94811 0.99119 0.0
N692 N 0.80687 0.9349 0.97645 0.0
C693 C 0.84268 0.95579 0.99205 0.0
C694 C 0.82777 0.9697 0.00732 0.0
C695 C 0.80232 0.9659 0.00682 0.0
C696 C 0.83133 0.93873 0.97646 0.0
H697 H 0.77249 0.94493 0.99116 0.0
C698 C 0.74469 0.89885 0.96778 0.0
O699 O 0.76066 0.83033 0.00025 0.0
O700 O 0.77334 0.86473 0.01876 0.0
N701 N 0.83247 0.90684 0.94817 0.0
C702 C 0.84435 0.8908 0.93343 0.0
C703 C 0.86999 0.89158 0.93246 0.0
C704 C 0.88305 0.90869 0.94679 0.0
C705 C 0.87043 0.92507 0.9617 0.0
C706 C 0.84489 0.9238 0.96155 0.0
H707 H 0.83435 0.87733 0.92275 0.0
O708 O 0.8125 0.8481 0.99141 0.0
O709 O 0.80098 0.8852 0.98025 0.0
O710 O 0.78021 0.84735 0.94959 0.0
O711 O 0.78961 0.88305 0.93052 0.0
C712 C 0.88226 0.94197 0.97731 0.0
C713 C 0.8684 0.95745 0.99237 0.0
H714 H 0.83568 0.98309 0.01973 0.0
H715 H 0.79069 0.97644 0.01867 0.0
H716 H 0.87964 0.87878 0.921 0.0
H717 H 0.90276 0.90899 0.94657 0.0
H718 H 0.90204 0.94304 0.97806 0.0
H719 H 0.87772 0.97024 0.00444 0.0
Mn720 Mn 0.25678 0.6522 0.02677 0.0
Mn721 Mn 0.24094 0.6001 0.99658 0.0
C722 C 0.21684 0.63872 0.02641 0.0
C723 C 0.26829 0.67002 0.06318 0.0
C724 C 0.25095 0.64972 0.97236 0.0
O725 O 0.28948 0.63605 0.02106 0.0
O726 O 0.27685 0.60095 0.00225 0.0
C727 C 0.2522 0.56332 0.03425 0.0
N728 N 0.23588 0.57358 0.01884 0.0
C729 C 0.20383 0.54587 0.03218 0.0
C730 C 0.22035 0.53487 0.04809 0.0
C731 C 0.24463 0.54366 0.04914 0.0
C732 C 0.21248 0.56526 0.01766 0.0
H733 H 0.27084 0.57013 0.03521 0.0
C734 C 0.29366 0.61528 0.01082 0.0
O735 O 0.27164 0.6821 0.04324 0.0
O736 O 0.25997 0.64749 0.06157 0.0
N737 N 0.2067 0.59693 0.98995 0.0
C738 C 0.1928 0.6104 0.97454 0.0
C739 C 0.16786 0.60447 0.97188 0.0
C740 C 0.15753 0.58468 0.98496 0.0
C741 C 0.17228 0.57089 0.00048 0.0
C742 C 0.19706 0.57753 0.00224 0.0
H743 H 0.20064 0.62569 0.96451 0.0
O744 O 0.22215 0.66172 0.03124 0.0
O745 O 0.23512 0.6242 0.02197 0.0
O746 O 0.25555 0.66256 0.99125 0.0
O747 O 0.24528 0.62658 0.97273 0.0
C748 C 0.16326 0.55118 0.01467 0.0
C749 C 0.17902 0.53868 0.03052 0.0
H750 H 0.21454 0.51982 0.05972 0.0
H751 H 0.25744 0.53536 0.06146 0.0
H752 H 0.15661 0.6152 0.95987 0.0
H753 H 0.13824 0.58033 0.98306 0.0
H754 H 0.14415 0.5457 0.01378 0.0
H755 H 0.17179 0.52377 0.04156 0.0
Mn756 Mn 0.11652 0.50328 0.77488 0.0
Mn757 Mn 0.16088 0.54166 0.7959 0.0
C758 C 0.11732 0.54431 0.7634 0.0
C759 C 0.10226 0.47526 0.74648 0.0
C760 C 0.11772 0.52366 0.82547 0.0
O761 O 0.14181 0.47968 0.78797 0.0
O762 O 0.17239 0.50679 0.79695 0.0
C763 C 0.19782 0.53502 0.75778 0.0
N764 N 0.18338 0.55023 0.77102 0.0
C765 C 0.20004 0.58668 0.75176 0.0
C766 C 0.21527 0.57142 0.73808 0.0
C767 C 0.21405 0.54547 0.741 0.0
C768 C 0.18413 0.57519 0.76809 0.0
H769 H 0.1969 0.51508 0.75998 0.0
C770 C 0.1636 0.48467 0.79486 0.0
O771 O 0.09289 0.47577 0.76784 0.0
O772 O 0.12072 0.48998 0.74222 0.0
N773 N 0.15231 0.57609 0.79567 0.0
C774 C 0.13538 0.58805 0.80922 0.0
C775 C 0.13374 0.61407 0.80792 0.0
C776 C 0.14972 0.62755 0.79298 0.0
C777 C 0.16709 0.61485 0.77932 0.0
C778 C 0.16782 0.58891 0.7813 0.0
H779 H 0.12324 0.57783 0.82094 0.0
O780 O 0.09723 0.53137 0.76166 0.0
O781 O 0.13631 0.53283 0.77165 0.0
O782 O 0.10655 0.51221 0.80868 0.0
O783 O 0.13844 0.53452 0.82285 0.0
C784 C 0.18353 0.62689 0.76364 0.0
C785 C 0.19983 0.61281 0.74969 0.0
H786 H 0.22784 0.57941 0.72515 0.0
H787 H 0.22563 0.53356 0.7304 0.0
H788 H 0.12026 0.62373 0.81849 0.0
H789 H 0.14839 0.64762 0.79202 0.0
H790 H 0.18353 0.64695 0.7619 0.0
H791 H 0.21202 0.62226 0.73732 0.0
Mn792 Mn 0.26546 0.40245 0.47589 0.0
Mn793 Mn 0.2646 0.45335 0.44106 0.0
C794 C 0.30033 0.42615 0.47081 0.0
C795 C 0.26288 0.38378 0.51331 0.0
C796 C 0.26498 0.40084 0.42132 0.0
O797 O 0.22925 0.40984 0.47369 0.0
O798 O 0.23063 0.44472 0.45109 0.0
C799 C 0.24844 0.4906 0.47666 0.0
N800 N 0.26554 0.48243 0.46087 0.0
C801 C 0.29251 0.51677 0.47047 0.0
C802 C 0.27512 0.52563 0.48673 0.0
C803 C 0.25299 0.51249 0.48981 0.0
C804 C 0.2868 0.49505 0.4576 0.0
H805 H 0.2315 0.48045 0.47927 0.0
C806 C 0.21899 0.42805 0.46313 0.0
O807 O 0.2601 0.37074 0.49382 0.0
O808 O 0.26534 0.40765 0.51095 0.0
N809 N 0.2967 0.46325 0.43112 0.0
C810 C 0.31224 0.45116 0.41619 0.0
C811 C 0.33559 0.46123 0.41198 0.0
C812 C 0.34277 0.48364 0.42313 0.0
C813 C 0.32647 0.49572 0.43849 0.0
C814 C 0.30334 0.48486 0.4419 0.0
H815 H 0.30698 0.43377 0.40781 0.0
O816 O 0.30167 0.4028 0.47639 0.0
O817 O 0.27844 0.43461 0.46758 0.0
O818 O 0.26574 0.38988 0.44148 0.0
O819 O 0.26413 0.42444 0.41898 0.0
C820 C 0.33249 0.51775 0.45101 0.0
C821 C 0.3155 0.5283 0.46696 0.0
H822 H 0.27867 0.54235 0.49711 0.0
H823 H 0.23954 0.51913 0.50242 0.0
H824 H 0.34803 0.45153 0.40037 0.0
H825 H 0.36091 0.49124 0.42 0.0
H826 H 0.35025 0.52656 0.44875 0.0
H827 H 0.32044 0.54509 0.4767 0.0
Mn828 Mn 0.39615 0.49391 0.27632 0.0
Mn829 Mn 0.34433 0.46732 0.29683 0.0
C830 C 0.38578 0.4539 0.26556 0.0
C831 C 0.4165 0.515 0.24617 0.0
C832 C 0.38935 0.47636 0.32757 0.0
O833 O 0.37656 0.52361 0.28725 0.0
O834 O 0.3413 0.50417 0.29797 0.0
C835 C 0.3102 0.48259 0.25852 0.0
N836 N 0.3212 0.46424 0.27123 0.0
C837 C 0.30021 0.43246 0.24838 0.0
C838 C 0.28856 0.45103 0.23514 0.0
C839 C 0.29361 0.47619 0.24022 0.0
C840 C 0.31646 0.43995 0.26651 0.0
H841 H 0.31414 0.50195 0.26226 0.0
C842 C 0.35447 0.52385 0.2947 0.0
O843 O 0.42571 0.51419 0.26766 0.0
O844 O 0.39499 0.50532 0.24294 0.0
N845 N 0.34542 0.4317 0.29592 0.0
C846 C 0.35932 0.4161 0.30931 0.0
C847 C 0.35697 0.39027 0.30597 0.0
C848 C 0.3404 0.38075 0.2889 0.0
C849 C 0.32631 0.39717 0.27533 0.0
C850 C 0.32925 0.42272 0.27961 0.0
H851 H 0.37217 0.42333 0.32236 0.0
O852 O 0.40846 0.46111 0.26495 0.0
O853 O 0.37032 0.47005 0.27334 0.0
O854 O 0.40302 0.48517 0.31109 0.0
O855 O 0.36723 0.46924 0.32423 0.0
C856 C 0.30976 0.38919 0.25743 0.0
C857 C 0.29673 0.40682 0.24396 0.0
H858 H 0.27589 0.44618 0.22089 0.0
H859 H 0.28479 0.49063 0.22999 0.0
H860 H 0.36798 0.37772 0.31646 0.0
H861 H 0.33879 0.36082 0.28625 0.0
H862 H 0.30718 0.36955 0.25364 0.0
H863 H 0.28432 0.40047 0.23002 0.0
O864 O -0.00451 0.05283 0.04651 0.0
Zn865 Zn 0.00747 0.02496 0.02646 0.0
O866 O 0.00718 -0.00363 0.046 0.0
Zn867 Zn 0.03764 0.97923 0.04713 0.0
Zn868 Zn 0.98883 -0.00082 0.07497 0.0
Zn869 Zn 0.98683 0.97551 0.0292 0.0
O870 O 0.03882 0.95068 0.02244 0.0
O871 O 0.00483 0.96025 0.00304 0.0
O872 O 0.04209 0.03235 0.01724 0.0
O873 O 0.06364 0.00353 0.03637 0.0
O874 O 0.04295 0.96905 0.08175 0.0
O875 O 0.01029 0.9847 0.10037 0.0
O876 O 0.95706 0.97805 0.07307 0.0
O877 O 0.98577 0.02005 -0.00269 0.0
O878 O 0.97422 0.94958 0.05056 0.0
O879 O 0.95966 0.99423 0.01467 0.0
C880 C 0.98673 0.05505 0.06756 0.0
C881 C 0.02504 0.94907 0.00399 0.0
C882 C 0.03054 0.97309 0.10078 0.0
C883 C 0.06248 0.02303 0.0234 0.0
C884 C 0.95703 0.95607 0.06428 0.0
C885 C 0.96514 0.00877 -0.00242 0.0
O886 O 0.983 0.03615 0.08105 0.0
O887 O 0.22642 0.71454 0.24214 0.0
Zn888 Zn 0.22835 0.71624 0.27822 0.0
O889 O 0.24319 0.74785 0.28729 0.0
Zn890 Zn 0.27711 0.74391 0.29655 0.0
Zn891 Zn 0.24137 0.77089 0.26054 0.0
Zn892 Zn 0.2259 0.76046 0.31449 0.0
O893 O 0.28508 0.76187 0.32714 0.0
O894 O 0.24798 0.76668 0.34239 0.0
O895 O 0.25037 0.68861 0.28867 0.0
O896 O 0.28452 0.70783 0.30061 0.0
O897 O 0.29926 0.75766 0.27155 0.0
O898 O 0.27479 0.78105 0.24954 0.0
O899 O 0.22288 0.8016 0.26935 0.0
O900 O 0.19529 0.71051 0.29435 0.0
O901 O 0.21103 0.79334 0.30664 0.0
O902 O 0.19933 0.73747 0.32441 0.0
C903 C 0.22614 0.7311 0.2258 0.0
C904 C 0.27111 0.76816 0.34421 0.0
C905 C 0.29592 0.773 0.25459 0.0
C906 C 0.2721 0.688 0.29689 0.0
C907 C 0.21172 0.80761 0.28849 0.0
C908 C 0.18805 0.71952 0.31425 0.0
O909 O 0.2283 0.75414 0.23089 0.0
O910 O 0.47877 0.96056 0.49284 0.0
Zn911 Zn 0.48454 0.99226 0.47437 0.0
O912 O 0.50009 0.01706 0.49467 0.0
Zn913 Zn 0.48229 0.04844 0.49363 0.0
Zn914 Zn 0.50203 0.00577 0.5275 0.0
Zn915 Zn 0.5327 0.02111 0.48255 0.0
O916 O 0.50284 0.07504 0.47782 0.0
O917 O 0.53652 0.05471 0.46758 0.0
O918 O 0.45185 0.00429 0.46487 0.0
O919 O 0.45022 0.04377 0.47648 0.0
O920 O 0.47114 0.05935 0.52641 0.0
O921 O 0.48028 0.02598 0.54801 0.0
O922 O 0.53571 0.01063 0.54145 0.0
O923 O 0.50398 0.98486 0.44462 0.0
O924 O 0.55717 0.0193 0.50869 0.0
O925 O 0.54082 -0.00327 0.45703 0.0
C926 C 0.48174 0.95481 0.51479 0.0
C927 C 0.52374 0.07431 0.46777 0.0
C928 C 0.47038 0.04711 0.54587 0.0
C929 C 0.44046 0.02469 0.46667 0.0
C930 C 0.55587 0.01552 0.5311 0.0
C931 C 0.52703 0.98595 0.44177 0.0
O932 O 0.49075 0.97026 0.52985 0.0
O933 O 0.24925 0.25685 0.77828 0.0
Zn934 Zn 0.26798 0.28193 0.75972 0.0
O935 O 0.26482 0.27626 0.72581 0.0
Zn936 Zn 0.29665 0.2698 0.71123 0.0
Zn937 Zn 0.24257 0.24812 0.72021 0.0
Zn938 Zn 0.25195 0.30611 0.71217 0.0
O939 O 0.30065 0.28876 0.67974 0.0
O940 O 0.2723 0.31753 0.68501 0.0
O941 O 0.30278 0.2794 0.76877 0.0
O942 O 0.3241 0.27717 0.73496 0.0
O943 O 0.29936 0.23316 0.70516 0.0
O944 O 0.2612 0.21894 0.70783 0.0
O945 O 0.21535 0.25789 0.69774 0.0
O946 O 0.25648 0.31531 0.77036 0.0
O947 O 0.21917 0.29919 0.69768 0.0
O948 O 0.24914 0.33393 0.73572 0.0
C949 C 0.23401 0.23968 0.77298 0.0
C950 C 0.28978 0.30843 0.67303 0.0
C951 C 0.28387 0.21531 0.70428 0.0
C952 C 0.3231 0.27859 0.75778 0.0
C953 C 0.20777 0.27934 0.69167 0.0
C954 C 0.25063 0.33442 0.75844 0.0
O955 O 0.22853 0.23464 0.7513 0.0
O956 O 0.01311 -0.00032 0.49343 0.0
Zn957 Zn 0.99016 0.98404 0.51705 0.0
O958 O 0.00386 0.98549 0.5494 0.0
Zn959 Zn 0.00718 0.95191 0.56282 0.0
Zn960 Zn 0.03541 0.00254 0.54894 0.0
Zn961 Zn 0.98235 0.00452 0.56925 0.0
O962 O 0.98934 0.94825 0.59473 0.0
O963 O 0.96967 0.9842 0.59577 0.0
O964 O 0.98534 0.94866 0.50673 0.0
O965 O 0.99508 0.92638 0.53879 0.0
O966 O 0.04267 0.94364 0.56727 0.0
O967 O 0.06154 0.9793 0.55865 0.0
O968 O 0.0366 0.0331 0.56954 0.0
O969 O 0.95829 0.0022 0.51428 0.0
O970 O -0.00114 0.03411 0.58376 0.0
O971 O 0.95414 0.01731 0.551 0.0
C972 C 0.03365 0.01084 0.49547 0.0
C973 C 0.97424 0.96299 0.60453 0.0
C974 C 0.06217 0.95655 0.56484 0.0
C975 C 0.9879 0.92778 0.51709 0.0
C976 C 0.02029 0.04331 0.58229 0.0
C977 C 0.94667 0.01507 0.52955 0.0
O978 O 0.04403 0.01348 0.51574 0.0
O979 O 0.27312 0.74244 0.74533 0.0
Zn980 Zn 0.25054 0.75928 0.76852 0.0
O981 O 0.21739 0.75768 0.75608 0.0
Zn982 Zn 0.20228 0.79041 0.75616 0.0
Zn983 Zn 0.21634 0.74378 0.72395 0.0
Zn984 Zn 0.19958 0.73605 0.77675 0.0
O985 O 0.17196 0.79115 0.77712 0.0
O986 O 0.1759 0.75495 0.79583 0.0
O987 O 0.26146 0.79491 0.77022 0.0
O988 O 0.22694 0.81602 0.76674 0.0
O989 O 0.19523 0.80212 0.72254 0.0
O990 O 0.20915 0.77082 0.70068 0.0
O991 O 0.19114 0.71634 0.72021 0.0
O992 O 0.25386 0.74285 0.80113 0.0
O993 O 0.1797 0.7117 0.7581 0.0
O994 O 0.22074 0.71859 0.80012 0.0
C995 C 0.27013 0.73224 0.72487 0.0
C996 C 0.16544 0.7757 0.79327 0.0
C997 C 0.20066 0.79269 0.70232 0.0
C998 C 0.25002 0.81539 0.76967 0.0
C999 C 0.17782 0.70598 0.73606 0.0
C1000 C 0.24092 0.72514 0.80971 0.0
O1001 O 0.24922 0.73103 0.71488 0.0
O1002 O 0.55187 0.01679 0.01454 0.0
Zn1003 Zn 0.55019 0.01392 0.97895 0.0
O1004 O 0.51904 -7e-05 0.96916 0.0
Zn1005 Zn 0.52201 0.96574 0.95774 0.0
Zn1006 Zn 0.49619 0.00199 0.99602 0.0
Zn1007 Zn 0.50825 0.01921 0.94243 0.0
O1008 O 0.50615 0.96067 0.92522 0.0
O1009 O 0.50457 -0.00031 0.91266 0.0
O1010 O 0.57644 0.9911 0.96867 0.0
O1011 O 0.55767 0.95642 0.9561 0.0
O1012 O 0.50426 0.94267 0.97977 0.0
O1013 O 0.48331 0.96776 0.00369 0.0
O1014 O 0.46734 0.02379 0.98761 0.0
O1015 O 0.55702 0.04791 0.96502 0.0
O1016 O 0.47525 0.0324 0.94941 0.0
O1017 O 0.52994 0.04791 0.93545 0.0
C1018 C 0.53599 0.01668 0.03117 0.0
C1019 C 0.50208 0.97653 0.90887 0.0
C1020 C 0.48881 0.94605 0.99644 0.0
C1021 C 0.57711 0.96896 0.96056 0.0
C1022 C 0.46139 0.03354 0.96763 0.0
C1023 C 0.54792 0.05781 0.94642 0.0
O1024 O 0.51339 0.01287 0.02667 0.0
O1025 O 0.21886 0.27841 0.21868 0.0
Zn1026 Zn 0.24481 0.26173 0.2375 0.0
O1027 O 0.27406 0.25842 0.21804 0.0
Zn1028 Zn 0.28152 0.2236 0.21229 0.0
Zn1029 Zn 0.2701 0.27616 0.18773 0.0
Zn1030 Zn 0.301 0.27269 0.23539 0.0
O1031 O 0.31127 0.21171 0.23054 0.0
O1032 O 0.32343 0.24717 0.2475 0.0
O1033 O 0.23078 0.228 0.24574 0.0
O1034 O 0.25344 0.20288 0.22343 0.0
O1035 O 0.28635 0.21725 0.17725 0.0
O1036 O 0.27807 0.2535 0.16017 0.0
O1037 O 0.29331 0.30567 0.18603 0.0
O1038 O 0.25048 0.28284 0.26699 0.0
O1039 O 0.3196 0.29593 0.21484 0.0
O1040 O 0.29005 0.29185 0.2641 0.0
C1041 C 0.21709 0.28733 0.19769 0.0
C1042 C 0.32569 0.22399 0.24413 0.0
C1043 C 0.28426 0.23078 0.15867 0.0
C1044 C 0.23537 0.20651 0.23729 0.0
C1045 C 0.31354 0.30911 0.19697 0.0
C1046 C 0.26964 0.29391 0.27472 0.0
O1047 O 0.23518 0.28752 0.18332 0.0
O1048 O 0.52288 0.52019 0.97222 0.0
Zn1049 Zn 0.49871 0.5102 -0.00245 0.0
O1050 O 0.51456 0.51122 0.02852 0.0
Zn1051 Zn 0.51604 0.47885 0.04402 0.0
Zn1052 Zn 0.54697 0.52617 0.0263 0.0
Zn1053 Zn 0.49489 0.53073 0.04875 0.0
O1054 O 0.5033 0.48027 0.07849 0.0
O1055 O 0.47698 0.5106 0.07247 0.0
O1056 O 0.48809 0.47529 0.99089 0.0
O1057 O 0.49693 0.45412 0.02399 0.0
O1058 O 0.55055 0.46626 0.04303 0.0
O1059 O 0.57171 0.49976 0.03177 0.0
O1060 O 0.55183 0.55495 0.04946 0.0
O1061 O 0.46941 0.53278 0.99536 0.0
O1062 O 0.51552 0.55391 0.0672 0.0
O1063 O 0.47056 0.55057 0.03119 0.0
C1064 C 0.54362 0.53125 0.9728 0.0
C1065 C 0.48525 0.49324 0.08539 0.0
C1066 C 0.57068 0.47682 0.03736 0.0
C1067 C 0.48805 0.45513 0.00284 0.0
C1068 C 0.53717 0.56244 0.06558 0.0
C1069 C 0.46144 0.54863 0.01035 0.0
O1070 O 0.55404 0.53678 0.99256 0.0
O1071 O 0.80715 0.2647 0.28093 0.0
Zn1072 Zn 0.78169 0.2785 0.30326 0.0
O1073 O 0.74998 0.28043 0.28688 0.0
Zn1074 Zn 0.74175 0.31469 0.27912 0.0
Zn1075 Zn 0.75111 0.26093 0.25771 0.0
Zn1076 Zn 0.7248 0.26677 0.30716 0.0
O1077 O 0.71033 0.3256 0.29479 0.0
O1078 O 0.70077 0.29231 0.31648 0.0
O1079 O 0.79435 0.31305 0.31116 0.0
O1080 O 0.76895 0.33684 0.29041 0.0
O1081 O 0.73722 0.31951 0.2436 0.0
O1082 O 0.73999 0.28091 0.22987 0.0
O1083 O 0.72903 0.23115 0.25883 0.0
O1084 O 0.77945 0.25729 0.33339 0.0
O1085 O 0.70659 0.2385 0.29109 0.0
O1086 O 0.73907 0.25339 0.33694 0.0
C1087 C 0.80583 0.25476 0.26023 0.0
C1088 C 0.69674 0.3145 0.30994 0.0
C1089 C 0.73599 0.30387 0.22647 0.0
C1090 C 0.78799 0.33427 0.30331 0.0
C1091 C 0.71117 0.22566 0.27247 0.0
C1092 C 0.76055 0.24991 0.34481 0.0
O1093 O 0.78536 0.25143 0.24977 0.0
O1094 O 0.03497 0.50692 0.58333 0.0
Zn1095 Zn 0.03355 0.51864 0.54958 0.0
O1096 O 0.00063 0.51344 0.53814 0.0
Zn1097 Zn 0.00314 0.50222 0.50539 0.0
Zn1098 Zn 0.98125 0.49193 0.55801 0.0
Zn1099 Zn 0.98695 0.54604 0.54144 0.0
O1100 O 0.99121 0.52952 0.4839 0.0
O1101 O 0.98246 0.56069 0.50886 0.0
O1102 O 0.05668 0.49761 0.53136 0.0
O1103 O 0.03778 0.49314 0.49641 0.0
O1104 O 0.98442 0.46968 0.5017 0.0
O1105 O 0.97556 0.46046 0.53973 0.0
O1106 O 0.94729 0.50595 0.56305 0.0
O1107 O 0.04279 0.55482 0.5428 0.0
O1108 O 0.95387 0.54583 0.55538 0.0
O1109 O 0.00998 0.56596 0.56133 0.0
C1110 C 0.02124 0.49274 0.59596 0.0
C1111 C 0.98428 0.55177 0.48781 0.0
C1112 C 0.97608 0.45475 0.51755 0.0
C1113 C 0.05643 0.4902 0.50973 0.0
C1114 C 0.93961 0.52817 0.56143 0.0
C1115 C 0.02831 0.57208 0.54876 0.0
O1116 O 0.00015 0.4853 0.58877 0.0
O1117 O 0.73026 0.7443 0.29934 0.0
Zn1118 Zn 0.74193 0.76967 0.27515 0.0
O1119 O 0.74066 0.75524 0.24296 0.0
Zn1120 Zn 0.77332 0.7508 0.22962 0.0
Zn1121 Zn 0.72202 0.72392 0.24328 0.0
Zn1122 Zn 0.72403 0.77759 0.22251 0.0
O1123 O 0.7785 0.76887 0.198 0.0
O1124 O 0.74467 0.79111 0.19681 0.0
O1125 O 0.77684 0.77541 0.28447 0.0
O1126 O 0.79884 0.76062 0.25427 0.0
O1127 O 0.77815 0.71483 0.22309 0.0
O1128 O 0.74178 0.69682 0.22825 0.0
O1129 O 0.68912 0.72642 0.22645 0.0
O1130 O 0.72317 0.80219 0.27799 0.0
O1131 O 0.69614 0.76147 0.20652 0.0
O1132 O 0.71034 0.80553 0.2404 0.0
C1133 C 0.72205 0.72206 0.29753 0.0
C1134 C 0.76519 0.78521 0.18814 0.0
C1135 C 0.76427 0.69567 0.22251 0.0
C1136 C 0.79738 0.77007 0.27521 0.0
C1137 C 0.68313 0.7423 0.21066 0.0
C1138 C 0.71114 0.81343 0.2618 0.0
O1139 O 0.71768 0.71224 0.27716 0.0
O1140 O 0.76188 0.1998 0.74999 0.0
Zn1141 Zn 0.76783 0.20729 0.78465 0.0
O1142 O 0.78802 0.23694 0.78768 0.0
Zn1143 Zn 0.82222 0.2287 0.79414 0.0
Zn1144 Zn 0.7845 0.25643 0.75882 0.0
Zn1145 Zn 0.77561 0.25591 0.81374 0.0
O1146 O 0.8341 0.24398 0.82578 0.0
O1147 O 0.79851 0.25609 0.84076 0.0
O1148 O 0.78604 0.17831 0.79775 0.0
O1149 O 0.82492 0.19121 0.79788 0.0
O1150 O 0.84369 0.24119 0.76684 0.0
O1151 O 0.81756 0.26354 0.74546 0.0
O1152 O 0.76744 0.28909 0.76462 0.0
O1153 O 0.73509 0.21095 0.80118 0.0
O1154 O 0.76938 0.29111 0.80431 0.0
O1155 O 0.74362 0.24299 0.82498 0.0
C1156 C 0.76211 0.21353 0.73145 0.0
C1157 C 0.82121 0.2522 0.84301 0.0
C1158 C 0.83902 0.25557 0.74927 0.0
C1159 C 0.80874 0.17408 0.80053 0.0
C1160 C 0.76465 0.30101 0.78418 0.0
C1161 C 0.72907 0.22598 0.81778 0.0
O1162 O 0.76838 0.23639 0.73267 0.0
O1163 O 0.66122 0.78803 0.72169 0.0
Zn1164 Zn 0.68895 0.77283 0.74049 0.0
O1165 O 0.71774 0.78021 0.72294 0.0
Zn1166 Zn 0.74086 0.75407 0.72477 0.0
Zn1167 Zn 0.71315 0.78856 0.69014 0.0
Zn1168 Zn 0.7285 0.81161 0.73529 0.0
O1169 O 0.77096 0.76716 0.74211 0.0
O1170 O 0.76325 0.80771 0.74572 0.0
O1171 O 0.68578 0.73569 0.74349 0.0
O1172 O 0.72492 0.72482 0.74121 0.0
O1173 O 0.74832 0.74049 0.69162 0.0
O1174 O 0.72051 0.75965 0.66936 0.0
O1175 O 0.73841 0.81487 0.68183 0.0
O1176 O 0.69247 0.78691 0.7743 0.0
O1177 O 0.7247 0.83809 0.71065 0.0
O1178 O 0.71136 0.82208 0.76473 0.0
C1179 C 0.65992 0.79801 0.70091 0.0
C1180 C 0.77724 0.78916 0.74868 0.0
C1181 C 0.73681 0.74317 0.6719 0.0
C1182 C 0.70249 0.71942 0.74514 0.0
C1183 C 0.73866 0.83556 0.69279 0.0
C1184 C 0.70084 0.80832 0.7801 0.0
O1185 O 0.67841 0.79955 0.68697 0.0
O1186 O 0.49373 0.53216 0.53979 0.0
Zn1187 Zn 0.49801 0.49991 0.52224 0.0
O1188 O 0.49632 0.47236 0.54374 0.0
Zn1189 Zn 0.52616 0.45406 0.54369 0.0
Zn1190 Zn 0.48658 0.48425 0.57495 0.0
Zn1191 Zn 0.47021 0.44973 0.53571 0.0
O1192 O 0.52276 0.4225 0.52357 0.0
O1193 O 0.48239 0.41826 0.52279 0.0
O1194 O 0.53144 0.50274 0.50788 0.0
O1195 O 0.55256 0.47498 0.52859 0.0
O1196 O 0.53489 0.44718 0.57812 0.0
O1197 O 0.50594 0.46568 0.59985 0.0
O1198 O 0.44953 0.48093 0.57676 0.0
O1199 O 0.47244 0.49596 0.497 0.0
O1200 O 0.45126 0.44238 0.56516 0.0
O1201 O 0.44948 0.46391 0.50911 0.0
C1202 C 0.49405 0.53757 0.56201 0.0
C1203 C 0.50349 0.41036 0.51771 0.0
C1204 C 0.52525 0.45258 0.5983 0.0
C1205 C 0.55164 0.49287 0.51366 0.0
C1206 C 0.43854 0.46059 0.57187 0.0
C1207 C 0.45391 0.48158 0.49445 0.0
O1208 O 0.49351 0.52072 0.578 0.0
O1209 O -0.00419 0.48992 0.03088 0.0
Zn1210 Zn 0.98672 0.52044 0.01288 0.0
O1211 O 0.99014 0.5492 0.03328 0.0
Zn1212 Zn 0.95822 0.56233 0.0413 0.0
Zn1213 Zn 0.00922 0.54074 0.06121 0.0
Zn1214 Zn 0.00793 0.57405 0.01637 0.0
O1215 O 0.95042 0.59368 0.02221 0.0
O1216 O 0.98556 0.59909 0.00289 0.0
O1217 O 0.95187 0.51448 0.00433 0.0
O1218 O 0.93303 0.53651 0.03239 0.0
O1219 O 0.95598 0.56778 0.07703 0.0
O1220 O 0.99147 0.55291 0.08997 0.0
O1221 O 0.04236 0.55785 0.06039 0.0
O1222 O 0.00792 0.52242 0.98373 0.0
O1223 O 0.03326 0.58983 0.03701 0.0
O1224 O 0.02569 0.55936 0.98879 0.0
C1225 C 0.00533 0.48558 0.05122 0.0
C1226 C 0.96353 0.60511 0.00677 0.0
C1227 C 0.97085 0.56283 0.09395 0.0
C1228 C 0.93275 0.51981 0.01615 0.0
C1229 C 0.04761 0.57913 0.05158 0.0
C1230 C 0.0233 0.53904 0.9773 0.0
O1231 O 0.01205 0.5033 0.06506 0.0
H1232 H 0.01283 0.21088 0.08605 0.0
H1233 H 0.97614 0.07 0.11371 0.0
H1234 H 0.97533 0.19013 0.15093 0.0
H1235 H 0.99028 0.09845 0.04265 0.0
H1236 H 0.97732 0.11286 0.12907 0.0
H1237 H 0.00818 0.16811 0.07143 0.0
C1238 C 0.0033 0.19727 0.097 0.0
C1239 C 0.99343 0.20399 0.11912 0.0
C1240 C 0.97992 0.1096 0.11009 0.0
C1241 C 0.98859 0.15513 0.10304 0.0
C1242 C 0.97914 0.08519 0.1013 0.0
C1243 C 0.98343 0.08056 0.07691 0.0
C1244 C 0.98526 0.12931 0.09438 0.0
C1245 C 0.98721 0.10101 0.06165 0.0
C1246 C 0.00073 0.1729 0.08878 0.0
C1247 C 0.98246 0.18558 0.13339 0.0
N1248 N 0.9883 0.1244 0.07067 0.0
N1249 N 0.98011 0.1619 0.12501 0.0
H1250 H 0.03514 0.70442 0.34122 0.0
H1251 H 0.17846 0.7179 0.36175 0.0
H1252 H 0.06894 0.72267 0.40908 0.0
H1253 H 0.1461 0.7014 0.2929 0.0
H1254 H 0.13878 0.7117 0.38059 0.0
H1255 H 0.07547 0.69609 0.32453 0.0
C1256 C 0.05104 0.70646 0.35269 0.0
C1257 C 0.04875 0.71464 0.37649 0.0
C1258 C 0.14031 0.70907 0.36141 0.0
C1259 C 0.0949 0.70509 0.35748 0.0
C1260 C 0.16298 0.71256 0.35065 0.0
C1261 C 0.1654 0.71054 0.32571 0.0
C1262 C 0.11976 0.7039 0.3471 0.0
C1263 C 0.14492 0.70325 0.31218 0.0
C1264 C 0.07404 0.70164 0.34314 0.0
C1265 C 0.0699 0.71669 0.39057 0.0
N1266 N 0.12276 0.70064 0.32302 0.0
N1267 N 0.09211 0.7122 0.38078 0.0
H1268 H 0.44226 0.83123 0.60435 0.0
H1269 H 0.46485 0.91498 0.48821 0.0
H1270 H 0.44005 0.80138 0.53245 0.0
H1271 H 0.47859 0.93878 0.56105 0.0
H1272 H 0.44983 0.87489 0.50342 0.0
H1273 H 0.44806 0.87274 0.58794 0.0
C1274 C 0.44264 0.83345 0.58506 0.0
C1275 C 0.44112 0.81273 0.56975 0.0
C1276 C 0.45609 0.88896 0.51601 0.0
C1277 C 0.44819 0.86028 0.55083 0.0
C1278 C 0.46475 0.91179 0.50737 0.0
C1279 C 0.47322 0.9302 0.52337 0.0
C1280 C 0.45575 0.88464 0.54081 0.0
C1281 C 0.4725 0.92511 0.548 0.0
C1282 C 0.44608 0.85717 0.5757 0.0
C1283 C 0.44134 0.81681 0.54491 0.0
N1284 N 0.46395 0.90283 0.55593 0.0
N1285 N 0.44523 0.84013 0.53618 0.0
H1286 H 0.41902 0.25301 0.87625 0.0
H1287 H 0.37109 0.27521 0.74279 0.0
H1288 H 0.46802 0.2727 0.81844 0.0
H1289 H 0.32619 0.27812 0.80638 0.0
H1290 H 0.40711 0.26928 0.76849 0.0
H1291 H 0.38477 0.25543 0.84859 0.0
C1292 C 0.42266 0.25759 0.85769 0.0
C1293 C 0.44645 0.26295 0.84976 0.0
C1294 C 0.3893 0.27131 0.77666 0.0
C1295 C 0.40717 0.26599 0.81799 0.0
C1296 C 0.3688 0.27478 0.76206 0.0
C1297 C 0.34556 0.27716 0.77241 0.0
C1298 C 0.38635 0.26993 0.80164 0.0
C1299 C 0.34366 0.27637 0.79749 0.0
C1300 C 0.40304 0.25913 0.84192 0.0
C1301 C 0.44995 0.26865 0.82541 0.0
N1302 N 0.36371 0.27269 0.81117 0.0
N1303 N 0.43047 0.27017 0.81036 0.0
H1304 H 0.96774 0.82011 0.4022 0.0
H1305 H 0.00029 0.88041 0.52979 0.0
H1306 H 0.00569 0.78198 0.45865 0.0
H1307 H 0.97062 0.92283 0.47112 0.0
H1308 H 0.00117 0.84387 0.50393 0.0
H1309 H 0.96894 0.85841 0.42647 0.0
C1310 C 0.97648 0.81997 0.41963 0.0
C1311 C 0.98582 0.79791 0.429 0.0
C1312 C 0.9944 0.86115 0.4967 0.0
C1313 C 0.98752 0.84117 0.45655 0.0
C1314 C 0.99367 0.88199 0.51156 0.0
C1315 C 0.98542 0.90478 0.50263 0.0
C1316 C 0.98666 0.86298 0.47276 0.0
C1317 C 0.97719 0.90567 0.47877 0.0
C1318 C 0.97714 0.8417 0.43347 0.0
C1319 C -0.00247 0.79856 0.45129 0.0
N1320 N 0.97804 0.88507 0.46465 0.0
N1321 N -0.00219 0.81977 0.46447 0.0
H1322 H 0.36873 0.7229 0.60597 0.0
H1323 H 0.31787 0.73186 0.73965 0.0
H1324 H 0.41272 0.74151 0.66804 0.0
H1325 H 0.272 0.71688 0.67806 0.0
H1326 H 0.35378 0.7286 0.71415 0.0
H1327 H 0.33387 0.71511 0.63243 0.0
C1328 C 0.37109 0.72536 0.62511 0.0
C1329 C 0.39363 0.73322 0.63473 0.0
C1330 C 0.33587 0.72573 0.70625 0.0
C1331 C 0.35395 0.72406 0.66506 0.0
C1332 C 0.31534 0.72748 0.72084 0.0
C1333 C 0.29186 0.72511 0.71091 0.0
C1334 C 0.3329 0.72177 0.68152 0.0
C1335 C 0.28974 0.71916 0.68645 0.0
C1336 C 0.35122 0.72078 0.64021 0.0
C1337 C 0.39567 0.73578 0.65971 0.0
N1338 N 0.31001 0.71807 0.6725 0.0
N1339 N 0.37608 0.73134 0.67395 0.0
H1340 H 0.53521 0.1951 0.87169 0.0
H1341 H 0.56054 0.0968 0.97535 0.0
H1342 H 0.51399 0.20416 0.94573 0.0
H1343 H 0.55043 0.07612 0.90123 0.0
H1344 H 0.55845 0.14071 0.96387 0.0
H1345 H 0.55369 0.15522 0.88203 0.0
C1346 C 0.53445 0.18875 0.89008 0.0
C1347 C 0.52268 0.20277 0.9078 0.0
C1348 C 0.55739 0.12652 0.95008 0.0
C1349 C 0.54439 0.15782 0.91975 0.0
C1350 C 0.55886 0.10155 0.95657 0.0
C1351 C 0.5552 0.08302 0.9392 0.0
C1352 C 0.55248 0.13271 0.92613 0.0
C1353 C 0.55293 0.09002 0.91513 0.0
C1354 C 0.54515 0.16615 0.89596 0.0
C1355 C 0.5225 0.1938 0.9314 0.0
N1356 N 0.55122 0.1144 0.90929 0.0
N1357 N 0.53317 0.17186 0.93668 0.0
H1358 H 0.06132 0.29869 0.19398 0.0
H1359 H 0.20055 0.2922 0.15147 0.0
H1360 H 0.08356 0.28028 0.12197 0.0
H1361 H 0.17788 0.29946 0.2252 0.0
H1362 H 0.15794 0.29679 0.13892 0.0
H1363 H 0.10405 0.30738 0.20425 0.0
C1364 C 0.07517 0.29666 0.18029 0.0
C1365 C 0.06896 0.2884 0.15721 0.0
C1366 C 0.16238 0.29774 0.15782 0.0
C1367 C 0.1178 0.29832 0.16878 0.0
C1368 C 0.18671 0.29528 0.16498 0.0
C1369 C 0.19268 0.29501 0.18943 0.0
C1370 C 0.14402 0.30001 0.17526 0.0
C1371 C 0.17401 0.29911 0.20616 0.0
C1372 C 0.09954 0.30164 0.18614 0.0
C1373 C 0.08759 0.2863 0.14009 0.0
N1374 N 0.1505 0.30115 0.19879 0.0
N1375 N 0.11121 0.29103 0.14628 0.0
H1376 H 0.0562 0.98326 0.25105 0.0
H1377 H 0.07755 0.95985 0.11161 0.0
H1378 H 0.12678 0.98427 0.21657 0.0
H1379 H 0.00686 0.97145 0.1438 0.0
H1380 H 0.09549 0.9574 0.15166 0.0
H1381 H 0.0378 0.96806 0.21366 0.0
C1382 C 0.06786 0.97994 0.23573 0.0
C1383 C 0.09293 0.98552 0.23669 0.0
C1384 C 0.07598 0.96008 0.14993 0.0
C1385 C 0.07213 0.96819 0.19405 0.0
C1386 C 0.06572 0.96139 0.12707 0.0
C1387 C 0.04079 0.96649 0.12437 0.0
C1388 C 0.06118 0.96391 0.17013 0.0
C1389 C 0.02628 0.96808 0.14505 0.0
C1390 C 0.05737 0.97128 0.21441 0.0
C1391 C 0.10727 0.98066 0.21643 0.0
N1392 N 0.03676 0.96718 0.16707 0.0
N1393 N 0.09661 0.97255 0.19584 0.0
H1394 H 0.28427 0.83992 0.4813 0.0
H1395 H 0.30595 0.80453 0.3447 0.0
H1396 H 0.28349 0.8944 0.4245 0.0
H1397 H 0.2582 0.76182 0.39076 0.0
H1398 H 0.31428 0.83334 0.37809 0.0
H1399 H 0.29064 0.80728 0.45141 0.0
C1400 C 0.28588 0.84511 0.46262 0.0
C1401 C 0.28313 0.86991 0.45532 0.0
C1402 C 0.30257 0.81721 0.38095 0.0
C1403 C 0.29101 0.83282 0.42143 0.0
C1404 C 0.29799 0.80074 0.3621 0.0
C1405 C 0.28128 0.78103 0.36516 0.0
C1406 C 0.29078 0.81341 0.40294 0.0
C1407 C 0.27109 0.77697 0.38783 0.0
C1408 C 0.28955 0.82648 0.44568 0.0
C1409 C 0.28533 0.87553 0.43088 0.0
N1410 N 0.27589 0.79319 0.40593 0.0
N1411 N 0.2891 0.85705 0.41473 0.0
H1412 H 0.36148 0.02188 0.64876 0.0
H1413 H 0.48686 0.06174 0.58933 0.0
H1414 H 0.42649 0.04358 0.6879 0.0
H1415 H 0.42106 0.04993 0.54818 0.0
H1416 H 0.46252 0.06313 0.62587 0.0
H1417 H 0.38023 0.03846 0.612 0.0
C1418 C 0.37954 0.03032 0.64964 0.0
C1419 C 0.39273 0.03078 0.6712 0.0
C1420 C 0.45319 0.06085 0.60886 0.0
C1421 C 0.41406 0.04992 0.62963 0.0
C1422 C 0.46712 0.06031 0.58804 0.0
C1423 C 0.45579 0.05587 0.56598 0.0
C1424 C 0.4279 0.05595 0.60758 0.0
C1425 C 0.43027 0.05364 0.56504 0.0
C1426 C 0.39018 0.03988 0.62874 0.0
C1427 C 0.4159 0.04223 0.67153 0.0
N1428 N 0.41713 0.05312 0.58569 0.0
N1429 N 0.42589 0.05109 0.65105 0.0
H1430 H 0.23288 0.1137 0.8666 0.0
H1431 H 0.22502 0.25315 0.81892 0.0
H1432 H 0.23633 0.17953 0.91116 0.0
H1433 H 0.22482 0.18946 0.77175 0.0
H1434 H 0.22159 0.2254 0.85318 0.0
H1435 H 0.22413 0.14008 0.83195 0.0
C1436 C 0.23181 0.13364 0.86914 0.0
C1437 C 0.23572 0.1444 0.89182 0.0
C1438 C 0.22191 0.21739 0.83536 0.0
C1439 C 0.22535 0.17456 0.85237 0.0
C1440 C 0.2237 0.23327 0.8158 0.0
C1441 C 0.22545 0.22352 0.79257 0.0
C1442 C 0.22233 0.19153 0.83173 0.0
C1443 C 0.22351 0.19766 0.78944 0.0
C1444 C 0.22667 0.14865 0.84937 0.0
C1445 C 0.23381 0.17033 0.89404 0.0
N1446 N 0.22254 0.18246 0.80889 0.0
N1447 N 0.22887 0.18445 0.87459 0.0
H1448 H 0.14404 0.03816 0.38721 0.0
H1449 H 0.07684 0.03706 0.49251 0.0
H1450 H 0.07469 0.02861 0.35095 0.0
H1451 H 0.01958 0.00439 0.44879 0.0
H1452 H 0.09948 0.04747 0.45634 0.0
H1453 H 0.12287 0.03783 0.42537 0.0
C1454 C 0.1243 0.03635 0.38725 0.0
C1455 C 0.11118 0.03317 0.3658 0.0
C1456 C 0.08214 0.03775 0.45457 0.0
C1457 C 0.08655 0.03345 0.40961 0.0
C1458 C 0.06904 0.03202 0.47528 0.0
C1459 C 0.04647 0.01941 0.47371 0.0
C1460 C 0.0727 0.03052 0.43214 0.0
C1461 C 0.03705 0.01383 0.4509 0.0
C1462 C 0.11211 0.03643 0.40915 0.0
C1463 C 0.08562 0.03093 0.367 0.0
N1464 N 0.05031 0.01925 0.43104 0.0
N1465 N 0.0742 0.03088 0.38855 0.0
H1466 H 0.27192 0.8398 0.57829 0.0
H1467 H 0.20013 0.84388 0.70024 0.0
H1468 H 0.23803 0.9083 0.60023 0.0
H1469 H 0.20593 0.77831 0.65581 0.0
H1470 H 0.21482 0.86926 0.66656 0.0
H1471 H 0.25149 0.81831 0.61085 0.0
C1472 C 0.26036 0.85044 0.59016 0.0
C1473 C 0.25655 0.87588 0.58643 0.0
C1474 C 0.21233 0.84938 0.66414 0.0
C1475 C 0.23275 0.85114 0.62376 0.0
C1476 C 0.20377 0.83488 0.68325 0.0
C1477 C 0.2022 0.80883 0.68095 0.0
C1478 C 0.21953 0.83761 0.64289 0.0
C1479 C 0.20725 0.79823 0.65855 0.0
C1480 C 0.24847 0.83805 0.60862 0.0
C1481 C 0.24149 0.88867 0.60255 0.0
N1482 N 0.2161 0.81259 0.64057 0.0
N1483 N 0.23002 0.87611 0.62062 0.0
H1484 H 0.37332 0.98408 0.82981 0.0
H1485 H 0.5126 0.99092 0.86356 0.0
H1486 H 0.42945 -0.00168 0.77702 0.0
H1487 H 0.46084 0.94832 0.9053 0.0
H1488 H 0.48298 0.99248 0.83081 0.0
H1489 H 0.40506 0.9716 0.85819 0.0
C1490 C 0.39225 0.98469 0.8242 0.0
C1491 C 0.39869 0.99226 0.80097 0.0
C1492 C 0.4783 0.98218 0.84685 0.0
C1493 C 0.43495 0.97788 0.83323 0.0
C1494 C 0.4953 0.98104 0.86537 0.0
C1495 C 0.48908 0.96937 0.88695 0.0
C1496 C 0.45472 0.97223 0.85032 0.0
C1497 C 0.46633 0.95725 0.88874 0.0
C1498 C 0.41031 0.97728 0.8403 0.0
C1499 C 0.42357 0.99261 0.7947 0.0
N1500 N 0.44964 0.95953 0.87085 0.0
N1501 N 0.44077 0.98567 0.81077 0.0
H1502 H 0.27791 0.12513 0.04385 0.0
H1503 H 0.28278 0.25358 0.1148 0.0
H1504 H 0.27634 0.19674 0.00905 0.0
H1505 H 0.29329 0.182 0.14807 0.0
H1506 H 0.28397 0.2335 0.07555 0.0
H1507 H 0.28717 0.14585 0.08177 0.0
C1508 C 0.27973 0.14522 0.04416 0.0
C1509 C 0.27607 0.15928 0.02337 0.0
C1510 C 0.28628 0.22224 0.09144 0.0
C1511 C 0.28647 0.18315 0.06672 0.0
C1512 C 0.28556 0.23369 0.11387 0.0
C1513 C 0.2876 0.21941 0.13479 0.0
C1514 C 0.28885 0.19632 0.08993 0.0
C1515 C 0.2914 0.19374 0.13246 0.0
C1516 C 0.28506 0.15705 0.06581 0.0
C1517 C 0.27887 0.18522 0.02472 0.0
N1518 N 0.29163 0.18299 0.11044 0.0
N1519 N 0.28362 0.19637 0.04613 0.0
H1520 H 0.16837 0.12131 0.95683 0.0
H1521 H 0.10964 0.00816 0.0309 0.0
H1522 H 0.2107 0.06847 0.99668 0.0
H1523 H 0.06721 0.06523 0.99648 0.0
H1524 H 0.14694 0.02853 0.01655 0.0
H1525 H 0.13084 0.09968 0.96949 0.0
C1526 C 0.16962 0.10497 0.96808 0.0
C1527 C 0.19237 0.09594 0.97509 0.0
C1528 C 0.12945 0.0366 0.0122 0.0
C1529 C 0.14999 0.07163 0.99014 0.0
C1530 C 0.10814 0.02499 0.02039 0.0
C1531 C 0.08525 0.03507 0.015 0.0
C1532 C 0.12783 0.05845 -0.00142 0.0
C1533 C 0.08444 0.05682 0.00116 0.0
C1534 C 0.14833 0.09268 0.97534 0.0
C1535 C 0.19334 0.07528 0.99024 0.0
N1536 N 0.10543 0.0678 0.99346 0.0
N1537 N 0.17239 0.06369 -0.00279 0.0
H1538 H 0.69529 0.42079 0.96506 0.0
H1539 H 0.5782 0.4277 0.04928 0.0
H1540 H 0.68608 0.37017 0.02452 0.0
H1541 H 0.61204 0.49047 0.01352 0.0
H1542 H 0.61177 0.4014 0.03517 0.0
H1543 H 0.65665 0.43996 0.97543 0.0
C1544 C 0.68487 0.41322 0.9799 0.0
C1545 C 0.69433 0.39424 0.99431 0.0
C1546 C 0.61172 0.42097 0.03059 0.0
C1547 C 0.65023 0.41642 0.00641 0.0
C1548 C 0.59277 0.43602 0.03876 0.0
C1549 C 0.59233 0.46138 0.03267 0.0
C1550 C 0.62992 0.43131 0.01584 0.0
C1551 C 0.61159 0.47111 0.01883 0.0
C1552 C 0.66293 0.42438 0.98595 0.0
C1553 C 0.6797 0.385 0.0131 0.0
N1554 N 0.62942 0.45602 0.01072 0.0
N1555 N 0.65851 0.39651 0.01892 0.0
H1556 H 0.85956 0.47238 0.27666 0.0
H1557 H 0.82988 0.33842 0.33098 0.0
H1558 H 0.8945 0.44863 0.34182 0.0
H1559 H 0.78341 0.37995 0.28326 0.0
H1560 H 0.85827 0.37436 0.33252 0.0
H1561 H 0.83787 0.43282 0.2743 0.0
C1562 C 0.86279 0.45855 0.29037 0.0
C1563 C 0.87824 0.46373 0.30974 0.0
C1564 C 0.8418 0.3754 0.3218 0.0
C1565 C 0.85319 0.41856 0.30748 0.0
C1566 C 0.82556 0.35505 0.32098 0.0
C1567 C 0.80425 0.35612 0.30689 0.0
C1568 C 0.83678 0.39657 0.30808 0.0
C1569 C 0.79955 0.3781 0.29433 0.0
C1570 C 0.85036 0.43602 0.28909 0.0
C1571 C 0.88236 0.44519 0.32682 0.0
N1572 N 0.81576 0.39726 0.29508 0.0
N1573 N 0.86948 0.42331 0.32554 0.0
H1574 H 0.80864 0.5354 0.47987 0.0
H1575 H 0.90247 0.49482 0.55195 0.0
H1576 H 0.81414 0.60511 0.51839 0.0
H1577 H 0.91668 0.57278 0.56547 0.0
H1578 H 0.86296 0.50548 0.53475 0.0
H1579 H 0.84331 0.52012 0.50251 0.0
C1580 C 0.8172 0.54758 0.49299 0.0
C1581 C 0.80828 0.5716 0.49722 0.0
C1582 C 0.87469 0.52029 0.54142 0.0
C1583 C 0.84748 0.55367 0.52422 0.0
C1584 C 0.89702 0.51413 0.55188 0.0
C1585 C 0.91315 0.533 0.55967 0.0
C1586 C 0.86862 0.54549 0.53867 0.0
C1587 C 0.905 0.55767 0.55924 0.0
C1588 C 0.83675 0.53859 0.50636 0.0
C1589 C 0.82029 0.58647 0.51445 0.0
N1590 N 0.88349 0.56325 0.5485 0.0
N1591 N 0.83922 0.57725 0.5273 0.0
H1592 H 0.1252 0.10629 0.29564 0.0
H1593 H 0.23917 0.15882 0.22128 0.0
H1594 H 0.17243 0.06187 0.25165 0.0
H1595 H 0.19444 0.20568 0.26592 0.0
H1596 H 0.21233 0.12386 0.23001 0.0
H1597 H 0.14718 0.14397 0.28211 0.0
C1598 C 0.14012 0.10463 0.28302 0.0
C1599 C 0.14786 0.08124 0.27534 0.0
C1600 C 0.20824 0.14179 0.23784 0.0
C1601 C 0.17247 0.12359 0.25956 0.0
C1602 C 0.22367 0.1618 0.23295 0.0
C1603 C 0.21913 0.18524 0.24297 0.0
C1604 C 0.18807 0.14508 0.25297 0.0
C1605 C 0.19867 0.1879 0.25789 0.0
C1606 C 0.15258 0.12599 0.2753 0.0
C1607 C 0.16664 0.07971 0.25853 0.0
N1608 N 0.1839 0.16797 0.26254 0.0
N1609 N 0.17851 0.10061 0.25137 0.0
H1610 H 0.3378 0.92186 0.49003 0.0
H1611 H 0.4063 0.04873 0.49342 0.0
H1612 H 0.30277 0.98429 0.5235 0.0
H1613 H 0.41399 0.99585 0.43573 0.0
H1614 H 0.36719 0.02921 0.50395 0.0
H1615 H 0.3678 0.95018 0.47221 0.0
C1616 C 0.33655 0.94164 0.49355 0.0
C1617 C 0.31754 0.95108 0.50736 0.0
C1618 C 0.37703 0.0225 0.48844 0.0
C1619 C 0.3516 0.9835 0.48733 0.0
C1620 C 0.39919 0.03386 0.48215 0.0
C1621 C 0.41374 0.02322 0.46421 0.0
C1622 C 0.36982 0.00054 0.47667 0.0
C1623 C 0.40359 0.00411 0.45013 0.0
C1624 C 0.35344 0.9578 0.48325 0.0
C1625 C 0.31689 0.97665 0.51218 0.0
N1626 N 0.38257 0.99277 0.45718 0.0
N1627 N 0.3338 0.99218 0.50211 0.0
H1628 H 0.80351 0.56594 0.29182 0.0
H1629 H 0.8115 0.68524 0.21025 0.0
H1630 H 0.8715 0.59574 0.26401 0.0
H1631 H 0.74371 0.65007 0.23206 0.0
H1632 H 0.8334 0.64831 0.2228 0.0
H1633 H 0.78124 0.59339 0.26537 0.0
C1634 C 0.81381 0.57837 0.28028 0.0
C1635 C 0.83948 0.57879 0.28046 0.0
C1636 C 0.81368 0.64844 0.22434 0.0
C1637 C 0.81393 0.61015 0.24979 0.0
C1638 C 0.80111 0.66947 0.21701 0.0
C1639 C 0.77584 0.6711 0.22098 0.0
C1640 C 0.80084 0.62911 0.23582 0.0
C1641 C 0.76328 0.6499 0.22926 0.0
C1642 C 0.80103 0.59386 0.26493 0.0
C1643 C 0.85173 0.59502 0.26474 0.0
N1644 N 0.77601 0.63 0.23703 0.0
N1645 N 0.83882 0.61024 0.25018 0.0
H1646 H 0.72397 0.45237 0.81768 0.0
H1647 H 0.73811 0.32327 0.74866 0.0
H1648 H 0.67293 0.42673 0.76359 0.0
H1649 H 0.76786 0.33627 0.81937 0.0
H1650 H 0.71875 0.36411 0.75037 0.0
H1651 H 0.74453 0.41222 0.81549 0.0
C1652 C 0.71701 0.43828 0.80544 0.0
C1653 C 0.69662 0.44286 0.7909 0.0
C1654 C 0.72959 0.35799 0.76545 0.0
C1655 C 0.72031 0.3972 0.78801 0.0
C1656 C 0.74077 0.33481 0.76442 0.0
C1657 C 0.75451 0.32634 0.78394 0.0
C1658 C 0.73251 0.37291 0.78598 0.0
C1659 C 0.75727 0.342 0.80398 0.0
C1660 C 0.72876 0.41541 0.8042 0.0
C1661 C 0.68844 0.42393 0.77531 0.0
N1662 N 0.7464 0.36456 0.80447 0.0
N1663 N 0.70043 0.40199 0.77415 0.0
H1664 H -0.00052 0.81688 0.93032 0.0
H1665 H 0.01924 0.95932 0.9571 0.0
H1666 H 0.98369 0.87433 0.87908 0.0
H1667 H 0.04135 0.90115 0.00522 0.0
H1668 H 0.01448 0.92874 0.92508 0.0
H1669 H 0.02208 0.84699 0.95465 0.0
C1670 C 0.00084 0.83599 0.92425 0.0
C1671 C 0.98899 0.84356 0.90328 0.0
C1672 C 0.02106 0.92266 0.94239 0.0
C1673 C 0.01508 0.87806 0.93079 0.0
C1674 C 0.02393 0.94013 0.96063 0.0
C1675 C 0.0305 0.93257 0.98379 0.0
C1676 C 0.02435 0.89741 0.94751 0.0
C1677 C 0.0363 0.90763 0.98756 0.0
C1678 C 0.01397 0.8531 0.938 0.0
C1679 C 0.99207 0.8681 0.89556 0.0
N1680 N 0.03254 0.89077 0.96969 0.0
N1681 N 0.00443 0.88472 0.90964 0.0
H1682 H 0.9093 0.25928 0.61316 0.0
H1683 H 0.88877 0.24881 0.75239 0.0
H1684 H 0.96882 0.27144 0.66289 0.0
H1685 H 0.83238 0.27461 0.70455 0.0
H1686 H 0.91869 0.25418 0.71999 0.0
H1687 H 0.88049 0.26192 0.64655 0.0
C1688 C 0.91627 0.26277 0.63105 0.0
C1689 C 0.94145 0.26518 0.63527 0.0
C1690 C 0.89978 0.25894 0.7168 0.0
C1691 C 0.90874 0.26769 0.6735 0.0
C1692 C 0.88273 0.25582 0.73522 0.0
C1693 C 0.85802 0.26114 0.73117 0.0
C1694 C 0.89191 0.2669 0.69414 0.0
C1695 C 0.85121 0.27024 0.70855 0.0
C1696 C 0.89985 0.26432 0.65007 0.0
C1697 C 0.94952 0.26965 0.65883 0.0
N1698 N 0.86798 0.27249 0.69081 0.0
N1699 N 0.93322 0.2704 0.67715 0.0
H1700 H 0.53508 0.1787 0.35802 0.0
H1701 H 0.51909 0.12245 0.48161 0.0
H1702 H 0.55016 0.2221 0.42162 0.0
H1703 H 0.54955 0.07642 0.42602 0.0
H1704 H 0.53168 0.15943 0.45922 0.0
H1705 H 0.54376 0.14079 0.38066 0.0
C1706 C 0.54116 0.18033 0.37644 0.0
C1707 C 0.54119 0.2034 0.38823 0.0
C1708 C 0.53603 0.14124 0.4521 0.0
C1709 C 0.55046 0.16045 0.41413 0.0
C1710 C 0.52862 0.12022 0.46476 0.0
C1711 C 0.53311 0.09654 0.45545 0.0
C1712 C 0.54727 0.13852 0.42964 0.0
C1713 C 0.54574 0.0945 0.43366 0.0
C1714 C 0.546 0.1587 0.38938 0.0
C1715 C 0.54926 0.20454 0.41208 0.0
N1716 N 0.5519 0.1153 0.42112 0.0
N1717 N 0.55286 0.18327 0.42449 0.0
H1718 H 0.56624 0.77562 0.11372 0.0
H1719 H 0.63848 0.73378 0.23082 0.0
H1720 H 0.5366 0.7815 0.18511 0.0
H1721 H 0.67417 0.75064 0.16388 0.0
H1722 H 0.59922 0.74528 0.21282 0.0
H1723 H 0.60542 0.76356 0.13087 0.0
C1724 C 0.56822 0.77506 0.13304 0.0
C1725 C 0.54823 0.77955 0.14804 0.0
C1726 C 0.61563 0.74608 0.202 0.0
C1727 C 0.59252 0.76481 0.16768 0.0
C1728 C 0.63785 0.73904 0.2121 0.0
C1729 C 0.65935 0.7412 0.19868 0.0
C1730 C 0.61513 0.75508 0.17837 0.0
C1731 C 0.65783 0.74868 0.17469 0.0
C1732 C 0.59045 0.76786 0.1428 0.0
C1733 C 0.55164 0.77835 0.17292 0.0
N1734 N 0.63609 0.75552 0.16531 0.0
N1735 N 0.5733 0.77067 0.182 0.0
H1736 H 0.03346 0.19736 0.57026 0.0
H1737 H 0.99435 0.06686 0.61725 0.0
H1738 H 0.00037 0.18942 0.63987 0.0
H1739 H 0.05618 0.07664 0.57003 0.0
H1740 H -0.00365 0.1112 0.6269 0.0
H1741 H 0.04181 0.15276 0.56983 0.0
C1742 C 0.02788 0.18604 0.58538 0.0
C1743 C 0.01538 0.19651 0.60469 0.0
C1744 C 0.00983 0.10348 0.6149 0.0
C1745 C 0.02523 0.146 0.60465 0.0
C1746 C 0.0087 0.07822 0.60935 0.0
C1747 C 0.02491 0.06818 0.59255 0.0
C1748 C 0.02699 0.11875 0.60321 0.0
C1749 C 0.04323 0.08366 0.58296 0.0
C1750 C 0.03295 0.16077 0.58533 0.0
C1751 C 0.0094 0.18159 0.62438 0.0
N1752 N 0.04344 0.10836 0.58802 0.0
N1753 N 0.01389 0.15681 0.62367 0.0
H1754 H 0.54554 0.3179 0.30188 0.0
H1755 H 0.67846 0.31466 0.35494 0.0
H1756 H 0.56301 0.30045 0.37541 0.0
H1757 H 0.66277 0.33821 0.28285 0.0
H1758 H 0.63567 0.32017 0.3654 0.0
H1759 H 0.58694 0.33476 0.29675 0.0
C1760 C 0.55795 0.31791 0.31703 0.0
C1761 C 0.55105 0.30708 0.33891 0.0
C1762 C 0.64156 0.32477 0.34741 0.0
C1763 C 0.59829 0.32641 0.3332 0.0
C1764 C 0.66603 0.32176 0.34153 0.0
C1765 C 0.67388 0.32568 0.31798 0.0
C1766 C 0.62475 0.3309 0.32936 0.0
C1767 C 0.65725 0.33492 0.30121 0.0
C1768 C 0.58155 0.32763 0.31412 0.0
C1769 C 0.56774 0.30794 0.35801 0.0
N1770 N 0.6332 0.33655 0.30704 0.0
N1771 N 0.59066 0.31708 0.3546 0.0
H1772 H 0.46814 0.83974 0.1062 0.0
H1773 H 0.48439 0.89872 0.97909 0.0
H1774 H 0.45092 0.79854 0.04167 0.0
H1775 H 0.46964 0.94363 0.04155 0.0
H1776 H 0.47189 0.86168 0.00142 0.0
H1777 H 0.46862 0.87816 0.08296 0.0
C1778 C 0.46428 0.83881 0.08717 0.0
C1779 C 0.45982 0.81592 0.07576 0.0
C1780 C 0.47101 0.87969 0.0101 0.0
C1781 C 0.4605 0.85967 0.04913 0.0
C1782 C 0.47826 0.90079 -0.00257 0.0
C1783 C 0.47831 0.92418 0.00863 0.0
C1784 C 0.46429 0.88199 0.03424 0.0
C1785 C 0.46995 0.92591 0.03231 0.0
C1786 C 0.46439 0.86074 0.07396 0.0
C1787 C 0.4546 0.81579 0.05113 0.0
N1788 N 0.46367 0.90498 0.04451 0.0
N1789 N 0.4555 0.83734 0.03852 0.0
H1790 H 0.91405 0.77275 0.8243 0.0
H1791 H 0.7914 0.83064 0.7737 0.0
H1792 H 0.87355 0.8282 0.86317 0.0
H1793 H 0.81464 0.75635 0.75591 0.0
H1794 H 0.82619 0.83484 0.80093 0.0
H1795 H 0.88197 0.77142 0.79395 0.0
C1796 C 0.89846 0.7848 0.82639 0.0
C1797 C 0.8964 0.80059 0.84636 0.0
C1798 C 0.82356 0.81766 0.7911 0.0
C1799 C 0.85975 0.79918 0.81152 0.0
C1800 C 0.80386 0.81525 0.7754 0.0
C1801 C 0.79993 0.79297 0.76268 0.0
C1802 C 0.83962 0.79782 0.79391 0.0
C1803 C 0.81687 0.7738 0.76544 0.0
C1804 C 0.88014 0.78391 0.80908 0.0
C1805 C 0.87573 0.81565 0.84815 0.0
N1806 N 0.83599 0.77665 0.78082 0.0
N1807 N 0.85818 0.81464 0.83086 0.0
H1808 H 0.9269 0.95201 0.85974 0.0
H1809 H 0.91569 0.0046 0.99304 0.0
H1810 H 0.85902 0.95321 0.89924 0.0
H1811 H 0.98269 0.00492 0.9524 0.0
H1812 H 0.89375 0.98928 0.95755 0.0
H1813 H 0.94762 0.97092 0.89387 0.0
C1814 C 0.91637 0.9559 0.8757 0.0
C1815 C 0.89105 0.95141 0.87641 0.0
C1816 C 0.91325 0.99263 0.95646 0.0
C1817 C 0.91468 0.97356 0.91544 0.0
C1818 C 0.92564 0.00184 0.97649 0.0
C1819 C 0.95093 0.00607 0.97547 0.0
C1820 C 0.92649 0.98661 0.93577 0.0
C1821 C 0.96311 0.00211 0.95377 0.0
C1822 C 0.9282 0.967 0.89511 0.0
C1823 C 0.87849 0.95665 0.89773 0.0
N1824 N 0.95084 0.99211 0.93486 0.0
N1825 N 0.89042 0.96768 0.91635 0.0
H1826 H 0.77396 0.18184 0.58081 0.0
H1827 H 0.75019 0.16493 0.72116 0.0
H1828 H 0.751 0.11217 0.61247 0.0
H1829 H 0.7667 0.23544 0.68744 0.0
H1830 H 0.75075 0.14495 0.68182 0.0
H1831 H 0.77354 0.20109 0.62037 0.0
C1832 C 0.76914 0.17049 0.59615 0.0
C1833 C 0.76241 0.14539 0.59335 0.0
C1834 C 0.75408 0.16482 0.68304 0.0
C1835 C 0.76149 0.16743 0.63867 0.0
C1836 C 0.75361 0.17629 0.70548 0.0
C1837 C 0.75851 0.20192 0.70765 0.0
C1838 C 0.75959 0.17905 0.66265 0.0
C1839 C 0.76285 0.21565 0.68669 0.0
C1840 C 0.76871 0.18155 0.61872 0.0
C1841 C 0.75633 0.13159 0.61385 0.0
N1842 N 0.76346 0.204 0.66511 0.0
N1843 N 0.75586 0.14284 0.63567 0.0
H1844 H 0.56309 0.00793 0.29494 0.0
H1845 H 0.57402 0.97284 0.43311 0.0
H1846 H 0.63036 0.0064 0.3356 0.0
H1847 H 0.50501 0.9849 0.39771 0.0
H1848 H 0.59449 0.97462 0.39443 0.0
H1849 H 0.5413 0.99128 0.32983 0.0
C1850 C 0.57328 0.00409 0.31114 0.0
C1851 C 0.59854 0.00894 0.31244 0.0
C1852 C 0.5748 0.97645 0.39502 0.0
C1853 C 0.57385 0.98951 0.35211 0.0
C1854 C 0.56311 0.97524 0.41708 0.0
C1855 C 0.5379 0.97924 0.41859 0.0
C1856 C 0.56123 0.98207 0.3744 0.0
C1857 C 0.52454 0.98194 0.39729 0.0
C1858 C 0.56086 0.99446 0.33097 0.0
C1859 C 0.61084 0.00337 0.33382 0.0
N1860 N 0.53647 0.98389 0.37603 0.0
N1861 N 0.59835 0.99405 0.35278 0.0
H1862 H 0.76795 0.79436 0.03422 0.0
H1863 H 0.75824 0.83207 0.17259 0.0
H1864 H 0.75066 0.86773 0.06009 0.0
H1865 H 0.78307 0.76011 0.14942 0.0
H1866 H 0.75603 0.84527 0.13099 0.0
H1867 H 0.77145 0.78015 0.07594 0.0
C1868 C 0.76418 0.80723 0.04868 0.0
C1869 C 0.75896 0.83219 0.04386 0.0
C1870 C 0.76232 0.82669 0.13488 0.0
C1871 C 0.76368 0.81646 0.0912 0.0
C1872 C 0.76388 0.81929 0.15865 0.0
C1873 C 0.77097 0.79508 0.16432 0.0
C1874 C 0.76754 0.8096 0.11657 0.0
C1875 C 0.77783 0.77908 0.14568 0.0
C1876 C 0.76661 0.79927 0.07241 0.0
C1877 C 0.75473 0.84832 0.06312 0.0
N1878 N 0.77562 0.78652 0.12249 0.0
N1879 N 0.75734 0.84022 0.08591 0.0
H1880 H 0.87833 0.97701 0.7239 0.0
H1881 H 0.99485 0.94233 0.64455 0.0
H1882 H 0.94694 0.95518 0.75524 0.0
H1883 H 0.92762 0.97182 0.61674 0.0
H1884 H 0.9771 0.94293 0.68508 0.0
H1885 H 0.89625 0.9734 0.68429 0.0
C1886 C 0.89735 0.97183 0.72241 0.0
C1887 C 0.91121 0.96643 0.74282 0.0
C1888 C 0.96617 0.94892 0.67002 0.0
C1889 C 0.93179 0.96167 0.6974 0.0
C1890 C 0.97614 0.94821 0.64694 0.0
C1891 C 0.96258 0.95703 0.62747 0.0
C1892 C 0.94256 0.9584 0.67333 0.0
C1893 C 0.93863 0.96493 0.63138 0.0
C1894 C 0.90755 0.96956 0.69977 0.0
C1895 C 0.93573 0.95972 0.73989 0.0
N1896 N 0.92946 0.96557 0.65386 0.0
N1897 N 0.94526 0.95732 0.71751 0.0
H1898 H 0.72998 0.18048 0.48051 0.0
H1899 H 0.79023 0.21043 0.35357 0.0
H1900 H 0.75631 0.1229 0.43343 0.0
H1901 H 0.73468 0.25599 0.38549 0.0
H1902 H 0.78626 0.18128 0.38737 0.0
H1903 H 0.73889 0.21134 0.44951 0.0
C1904 C 0.73751 0.17433 0.46359 0.0
C1905 C 0.74223 0.1491 0.45941 0.0
C1906 C 0.77527 0.1979 0.38707 0.0
C1907 C 0.75301 0.18432 0.42424 0.0
C1908 C 0.77776 0.21461 0.36805 0.0
C1909 C 0.76277 0.23551 0.36696 0.0
C1910 C 0.758 0.20253 0.4051 0.0
C1911 C 0.74654 0.24 0.38582 0.0
C1912 C 0.74265 0.19193 0.44599 0.0
C1913 C 0.7521 0.14214 0.43721 0.0
N1914 N 0.74453 0.22361 0.40414 0.0
N1915 N 0.75733 0.15972 0.42045 0.0
H1916 H 0.55554 0.00056 0.18487 0.0
H1917 H 0.58122 0.03127 0.04679 0.0
H1918 H 0.62445 0.0279 0.15726 0.0
H1919 H 0.51068 0.0065 0.07271 0.0
H1920 H 0.59687 0.03033 0.08755 0.0
H1921 H 0.5386 0.00167 0.14416 0.0
C1922 C 0.56717 0.00655 0.17023 0.0
C1923 C 0.59144 0.01416 0.17445 0.0
C1924 C 0.57792 0.0252 0.08442 0.0
C1925 C 0.57215 0.01576 0.12803 0.0
C1926 C 0.56892 0.02581 0.0611 0.0
C1927 C 0.54459 0.01888 0.05626 0.0
C1928 C 0.56258 0.0175 0.1032 0.0
C1929 C 0.52955 0.01206 0.07561 0.0
C1930 C 0.55745 0.00733 0.14705 0.0
C1931 C 0.60564 0.02189 0.15487 0.0
N1932 N 0.53883 0.01139 0.09824 0.0
N1933 N 0.59577 0.02254 0.13257 0.0
H1934 H 0.76568 0.81258 0.92133 0.0
H1935 H 0.70343 0.85496 0.79875 0.0
H1936 H 0.77583 0.88456 0.88818 0.0
H1937 H 0.70865 0.77763 0.8184 0.0
H1938 H 0.72324 0.86659 0.83633 0.0
H1939 H 0.74111 0.79929 0.8867 0.0
C1940 C 0.76313 0.82546 0.90667 0.0
C1941 C 0.77281 0.8498 0.90783 0.0
C1942 C 0.71973 0.84707 0.83265 0.0
C1943 C 0.74403 0.83496 0.86869 0.0
C1944 C 0.70808 0.84045 0.81136 0.0
C1945 C 0.70451 0.8153 0.80542 0.0
C1946 C 0.72814 0.82841 0.84804 0.0
C1947 C 0.71097 0.79725 0.82236 0.0
C1948 C 0.74889 0.81792 0.88705 0.0
C1949 C 0.76875 0.86565 0.88828 0.0
N1950 N 0.72291 0.80413 0.8428 0.0
N1951 N 0.75445 0.85805 0.86974 0.0
H1952 H 0.86698 0.85849 0.98609 0.0
H1953 H 0.90936 0.97071 0.06825 0.0
H1954 H 0.8155 0.90644 0.02112 0.0
H1955 H 0.95416 0.90632 0.0564 0.0
H1956 H 0.87416 0.94744 0.05228 0.0
H1957 H 0.89973 0.87638 0.01132 0.0
C1958 C 0.86271 0.87287 -0.00099 0.0
C1959 C 0.83893 0.88183 0.001 0.0
C1960 C 0.89159 0.93822 0.05377 0.0
C1961 C 0.87561 0.90168 0.0302 0.0
C1962 C 0.91159 0.95141 0.06316 0.0
C1963 C 0.93472 0.94051 0.06334 0.0
C1964 C 0.89497 0.9142 0.04438 0.0
C1965 C 0.93665 0.9155 0.05625 0.0
C1966 C 0.88121 0.88289 0.01352 0.0
C1967 C 0.83392 0.89986 0.01846 0.0
N1968 N 0.91716 0.90335 0.04653 0.0
N1969 N 0.85217 0.90944 0.03222 0.0
H1970 H 0.31089 0.57625 0.98447 0.0
H1971 H 0.44722 0.59179 0.03148 0.0
H1972 H 0.335 0.63683 0.03015 0.0
H1973 H 0.42547 0.53824 0.97749 0.0
H1974 H 0.40718 0.6109 0.02851 0.0
H1975 H 0.35321 0.56366 0.97982 0.0
C1976 C 0.32506 0.58692 0.99356 0.0
C1977 C 0.3193 0.60751 0.00795 0.0
C1978 C 0.41123 0.5952 0.01705 0.0
C1979 C 0.36791 0.5932 0.00253 0.0
C1980 C 0.43411 0.5843 0.01871 0.0
C1981 C 0.43949 0.56317 0.00496 0.0
C1982 C 0.3935 0.58468 0.00177 0.0
C1983 C 0.42199 0.55443 0.98849 0.0
C1984 C 0.34927 0.5798 0.99073 0.0
C1985 C 0.33853 0.62075 0.01902 0.0
N1986 N 0.39958 0.56498 0.98765 0.0
N1987 N 0.36196 0.61324 0.01622 0.0
H1988 H 0.0885 0.58449 0.77038 0.0
H1989 H 0.18329 0.67054 0.70126 0.0
H1990 H 0.14908 0.55806 0.72869 0.0
H1991 H 0.13412 0.69521 0.75652 0.0
H1992 H 0.16041 0.63109 0.69894 0.0
H1993 H 0.09484 0.62616 0.75341 0.0
C1994 C 0.10297 0.58754 0.75744 0.0
C1995 C 0.1192 0.56856 0.75178 0.0
C1996 C 0.15419 0.64547 0.71102 0.0
C1997 C 0.12618 0.61542 0.73196 0.0
C1998 C 0.16718 0.66796 0.71229 0.0
C1999 C 0.16088 0.68569 0.72956 0.0
C2000 C 0.13488 0.64099 0.72711 0.0
C2001 C 0.13987 0.68162 0.7434 0.0
C2002 C 0.10649 0.61114 0.74765 0.0
C2003 C 0.13703 0.57281 0.73428 0.0
N2004 N 0.12784 0.65948 0.74218 0.0
N2005 N 0.1404 0.596 0.72528 0.0
H2006 H 0.18978 0.40792 0.49801 0.0
H2007 H 0.07195 0.48651 0.46308 0.0
H2008 H 0.18793 0.45651 0.43651 0.0
H2009 H 0.09001 0.46453 0.53526 0.0
H2010 H 0.10961 0.46678 0.44892 0.0
H2011 H 0.14769 0.41924 0.5072 0.0
C2012 C 0.18041 0.4206 0.48618 0.0
C2013 C 0.1925 0.43156 0.46665 0.0
C2014 C 0.10512 0.46617 0.46781 0.0
C2015 C 0.14446 0.44454 0.47711 0.0
C2016 C 0.08371 0.47736 0.47587 0.0
C2017 C 0.0781 0.47741 0.50039 0.0
C2018 C 0.1206 0.45459 0.48436 0.0
C2019 C 0.09387 0.46525 0.51624 0.0
C2020 C 0.15646 0.42715 0.49153 0.0
C2021 C 0.1794 0.4479 0.45195 0.0
N2022 N 0.1144 0.45433 0.50796 0.0
N2023 N 0.1561 0.45405 0.45757 0.0
H2024 H 0.85708 0.86622 0.7807 0.0
H2025 H 0.74387 0.88559 0.69546 0.0
H2026 H 0.82522 0.93742 0.76563 0.0
H2027 H 0.7847 0.81754 0.69574 0.0
H2028 H 0.77737 0.90636 0.71651 0.0
H2029 H 0.83395 0.84841 0.74659 0.0
C2030 C 0.84473 0.87785 0.77064 0.0
C2031 C 0.84169 0.90285 0.77693 0.0
C2032 C 0.77945 0.88707 0.71136 0.0
C2033 C 0.81594 0.8831 0.73795 0.0
C2034 C 0.76045 0.87537 0.69896 0.0
C2035 C 0.76155 0.8499 0.69403 0.0
C2036 C 0.79932 0.87294 0.71937 0.0
C2037 C 0.78325 0.8373 0.69922 0.0
C2038 C 0.83181 0.86785 0.75109 0.0
C2039 C 0.8267 0.91763 0.76252 0.0
N2040 N 0.80105 0.84875 0.71237 0.0
N2041 N 0.81416 0.90749 0.74398 0.0
H2042 H 0.70585 0.05832 0.55191 0.0
H2043 H 0.5987 0.99085 0.53544 0.0
H2044 H 0.65927 0.11725 0.52776 0.0
H2045 H 0.56175 0.05787 0.55597 0.0
H2046 H 0.63785 0.0111 0.54461 0.0
H2047 H 0.66963 0.0337 0.56292 0.0
C2048 C 0.68789 0.06586 0.54863 0.0
C2049 C 0.68525 0.08914 0.53774 0.0
C2050 C 0.62122 0.02118 0.54789 0.0
C2051 C 0.64406 0.0617 0.55099 0.0
C2052 C 0.5989 0.00948 0.54292 0.0
C2053 C 0.57723 0.02277 0.5452 0.0
C2054 C 0.62165 0.04661 0.55386 0.0
C2055 C 0.57824 0.04705 0.55429 0.0
C2056 C 0.66732 0.05194 0.55511 0.0
C2057 C 0.66185 0.09893 0.53531 0.0
N2058 N 0.60021 0.05857 0.55749 0.0
N2059 N 0.64203 0.08499 0.54163 0.0
H2060 H 0.2133 0.48509 0.79072 0.0
H2061 H 0.22508 0.33802 0.80011 0.0
H2062 H 0.15193 0.43666 0.80682 0.0
H2063 H 0.26002 0.38216 0.74519 0.0
H2064 H 0.20751 0.37613 0.81695 0.0
H2065 H 0.23967 0.44872 0.78889 0.0
C2066 C 0.20547 0.4669 0.79443 0.0
C2067 C 0.18029 0.46374 0.79836 0.0
C2068 C 0.21952 0.37739 0.80157 0.0
C2069 C 0.21038 0.42247 0.79677 0.0
C2070 C 0.22955 0.35581 0.79203 0.0
C2071 C 0.24365 0.35714 0.77111 0.0
C2072 C 0.22426 0.40027 0.79039 0.0
C2073 C 0.24891 0.38048 0.76117 0.0
C2074 C 0.22053 0.44625 0.79337 0.0
C2075 C 0.17117 0.43978 0.80324 0.0
N2076 N 0.23909 0.40122 0.77086 0.0
N2077 N 0.18621 0.41994 0.80208 0.0
H2078 H 0.37643 0.57003 0.296 0.0
H2079 H 0.25028 0.64189 0.29683 0.0
H2080 H 0.30613 0.53316 0.30283 0.0
H2081 H 0.32035 0.67877 0.30574 0.0
H2082 H 0.27045 0.60179 0.29977 0.0
H2083 H 0.35634 0.6101 0.30019 0.0
C2084 C 0.35681 0.57032 0.29851 0.0
C2085 C 0.34294 0.54817 0.29887 0.0
C2086 C 0.28138 0.61866 0.30131 0.0
C2087 C 0.31986 0.59396 0.30359 0.0
C2088 C 0.26988 0.64157 0.29957 0.0
C2089 C 0.28368 0.66371 0.30083 0.0
C2090 C 0.30688 0.6179 0.30405 0.0
C2091 C 0.309 0.66216 0.30458 0.0
C2092 C 0.34537 0.59321 0.30098 0.0
C2093 C 0.31758 0.54973 0.30236 0.0
N2094 N 0.31983 0.63962 0.30581 0.0
N2095 N 0.30685 0.57224 0.30437 0.0
H2096 H 0.50081 0.69872 0.56712 0.0
H2097 H 0.48683 0.55656 0.60688 0.0
H2098 H 0.46215 0.67479 0.63033 0.0
H2099 H 0.50196 0.57863 0.53393 0.0
H2100 H 0.48516 0.60034 0.6183 0.0
H2101 H 0.50896 0.65496 0.55728 0.0
C2102 C 0.49383 0.68413 0.5787 0.0
C2103 C 0.4798 0.68991 0.59884 0.0
C2104 C 0.48895 0.59556 0.59982 0.0
C2105 C 0.48971 0.64049 0.58843 0.0
C2106 C 0.48997 0.57059 0.59329 0.0
C2107 C 0.49435 0.56393 0.56937 0.0
C2108 C 0.49255 0.61399 0.58238 0.0
C2109 C 0.49832 0.58294 0.55254 0.0
C2110 C 0.49865 0.65932 0.57326 0.0
C2111 C 0.47233 0.67076 0.61418 0.0
N2112 N 0.49727 0.60716 0.55936 0.0
N2113 N 0.47712 0.64679 0.60852 0.0
H2114 H 0.60125 0.27395 0.89318 0.0
H2115 H 0.68708 0.20945 0.79564 0.0
H2116 H 0.57633 0.25186 0.82273 0.0
H2117 H 0.71376 0.24428 0.86054 0.0
H2118 H 0.64519 0.21884 0.80795 0.0
H2119 H 0.64185 0.2586 0.88343 0.0
C2120 C 0.60438 0.26606 0.87558 0.0
C2121 C 0.58547 0.26436 0.85867 0.0
C2122 C 0.66023 0.22414 0.8196 0.0
C2123 C 0.63173 0.24635 0.84754 0.0
C2124 C 0.68409 0.21852 0.81272 0.0
C2125 C 0.70387 0.22632 0.827 0.0
C2126 C 0.65628 0.23745 0.84093 0.0
C2127 C 0.69901 0.23819 0.84888 0.0
C2128 C 0.62752 0.25717 0.87008 0.0
C2129 C 0.59047 0.25375 0.83622 0.0
N2130 N 0.67573 0.24357 0.85507 0.0
N2131 N 0.61314 0.2451 0.83131 0.0
H2132 H 0.97007 0.33003 0.0673 0.0
H2133 H 0.01977 0.46776 0.09524 0.0
H2134 H 0.00812 0.34964 0.13271 0.0
H2135 H 0.99179 0.44373 0.02643 0.0
H2136 H 0.0156 0.42492 0.10974 0.0
H2137 H 0.97678 0.3723 0.05279 0.0
C2138 C 0.97969 0.34323 0.07871 0.0
C2139 C 0.98849 0.33619 0.1013 0.0
C2140 C 0.01056 0.42906 0.09142 0.0
C2141 C -0.00357 0.38473 0.08465 0.0
C2142 C 0.01304 0.45349 0.08309 0.0
C2143 C 0.00602 0.45945 0.0596 0.0
C2144 C 0.00085 0.41053 0.07618 0.0
C2145 C -0.00266 0.44014 0.04471 0.0
C2146 C 0.98366 0.36737 0.07033 0.0
C2147 C 0.00099 0.35417 0.11517 0.0
N2148 N 0.99485 0.41665 0.0533 0.0
N2149 N 0.00456 0.37761 0.10664 0.0
H2150 H 0.93418 0.73309 0.34324 0.0
H2151 H 0.80083 0.78745 0.32124 0.0
H2152 H 0.88484 0.75376 0.40009 0.0
H2153 H 0.84354 0.75323 0.26536 0.0
H2154 H 0.83395 0.78019 0.34946 0.0
H2155 H 0.90285 0.74357 0.31393 0.0
C2156 C 0.91671 0.73963 0.34962 0.0
C2157 C 0.91221 0.74259 0.37425 0.0
C2158 C 0.83616 0.77445 0.33099 0.0
C2159 C 0.87641 0.75501 0.34065 0.0
C2160 C 0.81733 0.77878 0.31476 0.0
C2161 C 0.81924 0.77069 0.29088 0.0
C2162 C 0.85714 0.762 0.32334 0.0
C2163 C 0.84117 0.75969 0.28359 0.0
C2164 C 0.89887 0.74571 0.33282 0.0
C2165 C 0.88918 0.75113 0.38134 0.0
N2166 N 0.85919 0.75546 0.29983 0.0
N2167 N 0.87221 0.75718 0.36461 0.0
H2168 H 0.47814 0.34926 0.88686 0.0
H2169 H 0.49645 0.4075 0.01769 0.0
H2170 H 0.5241 0.3186 0.94184 0.0
H2171 H 0.46736 0.44944 0.9584 0.0
H2172 H 0.49813 0.37094 0.99196 0.0
H2173 H 0.46785 0.3837 0.91409 0.0
C2174 C 0.48603 0.34992 0.90467 0.0
C2175 C 0.50131 0.33098 0.91262 0.0
C2176 C 0.49104 0.38806 0.98469 0.0
C2177 C 0.48989 0.36974 0.94349 0.0
C2178 C 0.48982 0.4089 -0.00055 0.0
C2179 C 0.48231 0.43174 0.99002 0.0
C2180 C 0.48459 0.39006 0.96041 0.0
C2181 C 0.47374 0.43232 0.96627 0.0
C2182 C 0.48012 0.36937 0.92017 0.0
C2183 C 0.51162 0.33263 0.9355 0.0
N2184 N 0.47547 0.41184 0.95213 0.0
N2185 N 0.50558 0.35161 0.95025 0.0
H2186 H 0.95101 0.27202 0.19969 0.0
H2187 H 0.81006 0.23475 0.21536 0.0
H2188 H 0.90056 0.25915 0.14114 0.0
H2189 H 0.85316 0.26672 0.2729 0.0
H2190 H 0.84577 0.23672 0.18947 0.0
H2191 H 0.91736 0.2652 0.22795 0.0
C2192 C 0.93289 0.26795 0.19274 0.0
C2193 C 0.92868 0.26619 0.16793 0.0
C2194 C 0.84748 0.24312 0.20783 0.0
C2195 C 0.89033 0.25789 0.20019 0.0
C2196 C 0.82712 0.24182 0.22272 0.0
C2197 C 0.82847 0.25091 0.24629 0.0
C2198 C 0.86943 0.25354 0.21651 0.0
C2199 C 0.85121 0.25966 0.2548 0.0
C2200 C 0.91376 0.26394 0.2089 0.0
C2201 C 0.9048 0.26076 0.16004 0.0
N2202 N 0.87077 0.26101 0.23983 0.0
N2203 N 0.88662 0.25669 0.1761 0.0
H2204 H 0.94238 0.6708 0.46698 0.0
H2205 H 0.049 0.57877 0.50396 0.0
H2206 H 0.00734 0.66383 0.42376 0.0
H2207 H -0.00258 0.61099 0.55326 0.0
H2208 H 0.0326 0.60507 0.47203 0.0
H2209 H 0.95895 0.64075 0.49507 0.0
C2210 C 0.95986 0.66248 0.46304 0.0
C2211 C 0.97368 0.67026 0.4432 0.0
C2212 C 0.02518 0.60654 0.48995 0.0
C2213 C 0.99306 0.63636 0.47571 0.0
C2214 C 0.03473 0.59181 0.50829 0.0
C2215 C 0.02439 0.59246 0.53137 0.0
C2216 C 0.00512 0.62179 0.49474 0.0
C2217 C 0.00581 0.60966 0.53575 0.0
C2218 C 0.96947 0.6456 0.47929 0.0
C2219 C -0.00389 0.65854 0.43891 0.0
N2220 N -0.00347 0.6233 0.51756 0.0
N2221 N 0.00534 0.64243 0.45529 0.0
H2222 H 0.50624 0.79633 0.67677 0.0
H2223 H 0.64897 0.81593 0.65633 0.0
H2224 H 0.5419 0.79375 0.60787 0.0
H2225 H 0.61605 0.79824 0.72462 0.0
H2226 H 0.6083 0.82145 0.6394 0.0
H2227 H 0.54468 0.81056 0.69489 0.0
C2228 C 0.52203 0.79924 0.66537 0.0
C2229 C 0.52112 0.79331 0.64089 0.0
C2230 C 0.61003 0.81676 0.65819 0.0
C2231 C 0.56494 0.8095 0.66146 0.0
C2232 C 0.63324 0.81359 0.6679 0.0
C2233 C 0.6359 0.80591 0.69179 0.0
C2234 C 0.58938 0.81221 0.67245 0.0
C2235 C 0.61484 0.80361 0.70598 0.0
C2236 C 0.54394 0.80731 0.67573 0.0
C2237 C 0.54199 0.79764 0.62691 0.0
N2238 N 0.59241 0.80636 0.69598 0.0
N2239 N 0.56318 0.80516 0.63746 0.0
H2240 H 0.64161 0.47324 0.69543 0.0
H2241 H 0.50886 0.45415 0.64466 0.0
H2242 H 0.57924 0.4611 0.74143 0.0
H2243 H 0.57308 0.43907 0.60241 0.0
H2244 H 0.53414 0.45406 0.68077 0.0
H2245 H 0.61716 0.45871 0.66126 0.0
C2246 C 0.62287 0.46726 0.69837 0.0
C2247 C 0.61233 0.46867 0.72119 0.0
C2248 C 0.54261 0.45028 0.66364 0.0
C2249 C 0.58427 0.45227 0.6823 0.0
C2250 C 0.52818 0.45033 0.64302 0.0
C2251 C 0.53892 0.447 0.62045 0.0
C2252 C 0.56801 0.44738 0.66159 0.0
C2253 C 0.56403 0.44192 0.61941 0.0
C2254 C 0.60896 0.45886 0.67891 0.0
C2255 C 0.58803 0.46051 0.72407 0.0
N2256 N 0.57783 0.44279 0.63965 0.0
N2257 N 0.5747 0.45303 0.70478 0.0
H2258 H 0.78783 0.30818 0.97773 0.0
H2259 H 0.84913 0.29345 0.84932 0.0
H2260 H 0.79757 0.36668 0.92546 0.0
H2261 H 0.81504 0.23257 0.88714 0.0
H2262 H 0.84529 0.31936 0.88518 0.0
H2263 H 0.80961 0.27978 0.95104 0.0
C2264 C 0.79449 0.31509 0.9607 0.0
C2265 C 0.79059 0.33985 0.95377 0.0
C2266 C 0.83953 0.30002 0.88594 0.0
C2267 C 0.81622 0.3077 0.9237 0.0
C2268 C 0.84223 0.28509 0.86566 0.0
C2269 C 0.83218 0.26103 0.86538 0.0
C2270 C 0.82673 0.29061 0.90584 0.0
C2271 C 0.82294 0.25115 0.8868 0.0
C2272 C 0.80714 0.29894 0.94565 0.0
C2273 C 0.7999 0.34776 0.93157 0.0
N2274 N 0.8198 0.26621 0.90608 0.0
N2275 N 0.81225 0.33175 0.91737 0.0
H2276 H 0.95498 0.56043 0.24947 0.0
H2277 H -0.00012 0.56594 0.1335 0.0
H2278 H 0.89365 0.5223 0.21641 0.0
H2279 H 0.92419 0.56417 0.11148 0.0
H2280 H 0.98708 0.56123 0.17494 0.0
H2281 H 0.96928 0.573 0.21001 0.0
C2282 C 0.94469 0.5544 0.23386 0.0
C2283 C 0.92328 0.53999 0.23617 0.0
C2284 C 0.97318 0.56265 0.16121 0.0
C2285 C 0.93974 0.55406 0.19089 0.0
C2286 C 0.98051 0.5652 0.13749 0.0
C2287 C 0.96306 0.56539 0.11905 0.0
C2288 C 0.9482 0.56014 0.16652 0.0
C2289 C 0.93822 0.56425 0.12519 0.0
C2290 C 0.95295 0.56151 0.2113 0.0
C2291 C 0.91044 0.5331 0.21537 0.0
N2292 N 0.93152 0.56122 0.14844 0.0
N2293 N 0.91888 0.54026 0.19353 0.0
H2294 H 0.73576 0.59529 0.39228 0.0
H2295 H 0.73084 0.7356 0.34417 0.0
H2296 H 0.75128 0.66043 0.43546 0.0
H2297 H 0.71348 0.67167 0.29997 0.0
H2298 H 0.73738 0.70793 0.37803 0.0
H2299 H 0.72831 0.62248 0.35787 0.0
C2300 C 0.73792 0.61522 0.39449 0.0
C2301 C 0.74395 0.62554 0.41691 0.0
C2302 C 0.73196 0.69993 0.36097 0.0
C2303 C 0.73514 0.65672 0.37775 0.0
C2304 C 0.72803 0.71578 0.34164 0.0
C2305 C 0.72166 0.70601 0.3191 0.0
C2306 C 0.72963 0.67405 0.35782 0.0
C2307 C 0.71835 0.68009 0.31699 0.0
C2308 C 0.73346 0.63074 0.37489 0.0
C2309 C 0.74644 0.65155 0.41865 0.0
N2310 N 0.72256 0.665 0.33604 0.0
N2311 N 0.74191 0.66617 0.39942 0.0
H2312 H 0.66174 0.53194 0.87024 0.0
H2313 H 0.52783 0.52184 0.92708 0.0
H2314 H 0.59849 0.50103 0.8338 0.0
H2315 H 0.59135 0.54638 0.96719 0.0
H2316 H 0.55306 0.51881 0.89133 0.0
H2317 H 0.63609 0.5404 0.90514 0.0
C2318 C 0.64256 0.52675 0.8696 0.0
C2319 C 0.63232 0.51568 0.84902 0.0
C2320 C 0.56146 0.52507 0.9079 0.0
C2321 C 0.60286 0.52569 0.8887 0.0
C2322 C 0.54701 0.52696 0.92832 0.0
C2323 C 0.55752 0.53409 0.95027 0.0
C2324 C 0.58665 0.53024 0.90941 0.0
C2325 C 0.58247 0.54065 0.95069 0.0
C2326 C 0.6279 0.53174 0.88947 0.0
C2327 C 0.60728 0.50954 0.84921 0.0
N2328 N 0.59626 0.5383 0.93061 0.0
N2329 N 0.59346 0.51467 0.86869 0.0
H2330 H 0.73942 0.38942 0.09656 0.0
H2331 H 0.72701 0.27529 0.18686 0.0
H2332 H 0.73835 0.31222 0.07496 0.0
H2333 H 0.73419 0.35186 0.20981 0.0
H2334 H 0.72407 0.28921 0.14553 0.0
H2335 H 0.73059 0.37664 0.13768 0.0
C2336 C 0.73705 0.3698 0.10042 0.0
C2337 C 0.73997 0.3518 0.08243 0.0
C2338 C 0.72608 0.30301 0.1596 0.0
C2339 C 0.72994 0.3371 0.12933 0.0
C2340 C 0.72778 0.29507 0.18324 0.0
C2341 C 0.73127 0.31243 0.20181 0.0
C2342 C 0.72803 0.32848 0.1544 0.0
C2343 C 0.73175 0.33783 0.19603 0.0
C2344 C 0.73203 0.36253 0.12389 0.0
C2345 C 0.73654 0.32668 0.08835 0.0
N2346 N 0.73046 0.34509 0.17277 0.0
N2347 N 0.73193 0.32006 0.11136 0.0
H2348 H 0.93834 0.57025 0.34635 0.0
H2349 H 0.94455 0.58169 0.48768 0.0
H2350 H 0.87657 0.55838 0.39327 0.0
H2351 H 0.00174 0.55375 0.44225 0.0
H2352 H 0.92169 0.5941 0.45187 0.0
H2353 H 0.96224 0.58527 0.3804 0.0
C2354 C 0.92962 0.57118 0.36374 0.0
C2355 C 0.90569 0.56211 0.36718 0.0
C2356 C 0.93962 0.58604 0.44986 0.0
C2357 C 0.93294 0.57964 0.40598 0.0
C2358 C 0.95269 0.57903 0.47018 0.0
C2359 C 0.97463 0.56606 0.46766 0.0
C2360 C 0.94895 0.58035 0.42715 0.0
C2361 C 0.98455 0.56317 0.44477 0.0
C2362 C 0.94327 0.57996 0.38307 0.0
C2363 C 0.89515 0.5646 0.38994 0.0
N2364 N 0.97143 0.56993 0.42529 0.0
N2365 N 0.90907 0.57265 0.40869 0.0
H2366 H 0.74219 0.61725 0.5759 0.0
H2367 H 0.73325 0.75476 0.62485 0.0
H2368 H 0.75626 0.6822 0.53239 0.0
H2369 H 0.75199 0.69466 0.67233 0.0
H2370 H 0.73889 0.72718 0.59068 0.0
H2371 H 0.74344 0.64392 0.61181 0.0
C2372 C 0.74572 0.63702 0.57392 0.0
C2373 C 0.74887 0.64759 0.55115 0.0
C2374 C 0.74201 0.72003 0.60854 0.0
C2375 C 0.75012 0.67793 0.5918 0.0
C2376 C 0.73869 0.73573 0.62803 0.0
C2377 C 0.74213 0.7269 0.65137 0.0
C2378 C 0.74834 0.69513 0.61237 0.0
C2379 C 0.7493 0.70213 0.65453 0.0
C2380 C 0.74652 0.65215 0.59437 0.0
C2381 C 0.75353 0.67325 0.54955 0.0
N2382 N 0.75187 0.68691 0.63519 0.0
N2383 N 0.75374 0.68755 0.56956 0.0
H2384 H 0.66075 0.59874 0.46374 0.0
H2385 H 0.59845 0.47815 0.52277 0.0
H2386 H 0.69628 0.55044 0.5141 0.0
H2387 H 0.55728 0.53395 0.48509 0.0
H2388 H 0.63596 0.50116 0.51373 0.0
H2389 H 0.62343 0.57287 0.4669 0.0
C2390 C 0.66059 0.58263 0.47537 0.0
C2391 C 0.68157 0.57603 0.48809 0.0
C2392 C 0.61871 0.5083 0.50734 0.0
C2393 C 0.63946 0.54682 0.49203 0.0
C2394 C 0.59729 0.49509 0.51237 0.0
C2395 C 0.57463 0.50434 0.50503 0.0
C2396 C 0.61747 0.53095 0.49495 0.0
C2397 C 0.57432 0.52626 0.49136 0.0
C2398 C 0.63946 0.5679 0.47714 0.0
C2399 C 0.68058 0.5555 0.50341 0.0
N2400 N 0.59543 0.53899 0.48697 0.0
N2401 N 0.6599 0.54149 0.50485 0.0
H2402 H 0.18329 0.9312 0.48624 0.0
H2403 H 0.07149 0.90627 0.56397 0.0
H2404 H 0.2006 0.88121 0.54428 0.0
H2405 H 0.1072 0.97847 0.56296 0.0
H2406 H 0.10981 0.88753 0.5501 0.0
H2407 H 0.14341 0.93809 0.50433 0.0
C2408 C 0.1785 0.92109 0.50238 0.0
C2409 C 0.19554 0.90608 0.51407 0.0
C2410 C 0.10916 0.90735 0.55355 0.0
C2411 C 0.15007 0.91388 0.53455 0.0
C2412 C 0.08749 0.91807 0.56158 0.0
C2413 C 0.08602 0.94407 0.56412 0.0
C2414 C 0.12902 0.9229 0.54791 0.0
C2415 C 0.10731 0.95844 0.56078 0.0
C2416 C 0.15583 0.92513 0.51267 0.0
C2417 C 0.1881 0.89319 0.53482 0.0
N2418 N 0.12777 0.94773 0.55223 0.0
N2419 N 0.16592 0.89777 0.54478 0.0
H2420 H 0.36588 0.92477 0.75238 0.0
H2421 H 0.2336 0.8606 0.75491 0.0
H2422 H 0.30176 0.95677 0.72064 0.0
H2423 H 0.29899 0.82314 0.77788 0.0
H2424 H 0.25844 0.89635 0.74327 0.0
H2425 H 0.34227 0.88676 0.76108 0.0
C2426 C 0.34683 0.92357 0.74709 0.0
C2427 C 0.33525 0.944 0.73679 0.0
C2428 C 0.26736 0.88041 0.75105 0.0
C2429 C 0.30837 0.90098 0.74634 0.0
C2430 C 0.25314 0.86006 0.75801 0.0
C2431 C 0.26423 0.83878 0.7674 0.0
C2432 C 0.29283 0.87971 0.75383 0.0
C2433 C 0.28967 0.83915 0.77071 0.0
C2434 C 0.33338 0.902 0.75205 0.0
C2435 C 0.31089 0.94159 0.72954 0.0
N2436 N 0.30314 0.85931 0.7639 0.0
N2437 N 0.29808 0.92052 0.73474 0.0
H2438 H 0.31682 0.06559 0.9169 0.0
H2439 H 0.43142 0.05308 0.00223 0.0
H2440 H 0.32663 0.1132 0.97873 0.0
H2441 H 0.4363 0.03975 0.92605 0.0
H2442 H 0.39072 0.07086 0.99604 0.0
H2443 H 0.359 0.05153 0.92167 0.0
C2444 C 0.32791 0.07326 0.93129 0.0
C2445 C 0.31828 0.09066 0.94735 0.0
C2446 C 0.40088 0.06416 0.98073 0.0
C2447 C 0.36608 0.07425 0.95324 0.0
C2448 C 0.42397 0.05395 0.98426 0.0
C2449 C 0.43724 0.04503 0.96464 0.0
C2450 C 0.3909 0.06485 0.95753 0.0
C2451 C 0.42677 0.04659 0.94168 0.0
C2452 C 0.35192 0.06525 0.934 0.0
C2453 C 0.33341 0.09993 0.96578 0.0
N2454 N 0.40411 0.05607 0.93879 0.0
N2455 N 0.35649 0.09137 0.96842 0.0
H2456 H 0.63062 0.58191 0.78755 0.0
H2457 H 0.73008 0.6781 0.73784 0.0
H2458 H 0.69066 0.56049 0.74249 0.0
H2459 H 0.65909 0.70107 0.76269 0.0
H2460 H 0.71747 0.63478 0.7429 0.0
H2461 H 0.64169 0.62581 0.78125 0.0
C2462 C 0.64617 0.58659 0.77637 0.0
C2463 C 0.66051 0.56786 0.76635 0.0
C2464 C 0.70468 0.6493 0.74732 0.0
C2465 C 0.67296 0.61756 0.75872 0.0
C2466 C 0.71191 0.67406 0.7446 0.0
C2467 C 0.6956 0.69325 0.74986 0.0
C2468 C 0.6811 0.64366 0.75567 0.0
C2469 C 0.67222 0.68685 0.75836 0.0
C2470 C 0.65244 0.61152 0.77272 0.0
C2471 C 0.67992 0.57457 0.75134 0.0
N2472 N 0.66568 0.66256 0.76109 0.0
N2473 N 0.68581 0.59895 0.74818 0.0
H2474 H 0.84482 0.3854 0.00964 0.0
H2475 H 0.92694 0.48006 0.986 0.0
H2476 H 0.79738 0.44329 0.03461 0.0
H2477 H 0.88989 0.52122 0.04147 0.0
H2478 H 0.8952 0.44816 0.98801 0.0
H2479 H 0.87883 0.41545 0.00869 0.0
C2480 C 0.8417 0.40454 0.01482 0.0
C2481 C 0.81835 0.41248 0.02103 0.0
C2482 C 0.89416 0.46399 -2e-05 0.0
C2483 C 0.85652 0.44676 0.01975 0.0
C2484 C 0.91204 0.48249 -0.00148 0.0
C2485 C 0.9113 0.50316 0.0139 0.0
C2486 C 0.8754 0.46618 0.01692 0.0
C2487 C 0.89133 0.50546 0.02947 0.0
C2488 C 0.86092 0.42172 0.01403 0.0
C2489 C 0.8151 0.43701 0.02866 0.0
N2490 N 0.87415 0.48708 0.03064 0.0
N2491 N 0.83402 0.45349 0.02761 0.0
H2492 H 0.37232 0.08491 0.72777 0.0
H2493 H 0.2572 0.17251 0.711 0.0
H2494 H 0.30211 0.07198 0.76121 0.0
H2495 H 0.33113 0.19925 0.69986 0.0
H2496 H 0.2732 0.13219 0.72249 0.0
H2497 H 0.35763 0.12485 0.71295 0.0
C2498 C 0.35398 0.09059 0.73234 0.0
C2499 C 0.3384 0.07492 0.7457 0.0
C2500 C 0.2859 0.14683 0.7173 0.0
C2501 C 0.32137 0.12019 0.72818 0.0
C2502 C 0.27678 0.1698 0.71042 0.0
C2503 C 0.29286 0.18948 0.70477 0.0
C2504 C 0.31126 0.1434 0.71835 0.0
C2505 C 0.31806 0.1847 0.7043 0.0
C2506 C 0.34558 0.11329 0.72371 0.0
C2507 C 0.3148 0.08331 0.75098 0.0
N2508 N 0.32652 0.16217 0.71126 0.0
N2509 N 0.30693 0.10522 0.74197 0.0
H2510 H 0.20428 0.96573 0.30316 0.0
H2511 H 0.17379 0.82243 0.3167 0.0
H2512 H 0.12993 0.94047 0.31441 0.0
H2513 H 0.22722 0.84986 0.26609 0.0
H2514 H 0.16027 0.8653 0.32334 0.0
H2515 H 0.2166 0.92247 0.29796 0.0
C2516 C 0.19062 0.95109 0.30489 0.0
C2517 C 0.16601 0.95667 0.30903 0.0
C2518 C 0.17482 0.86179 0.31068 0.0
C2519 C 0.18003 0.90739 0.30323 0.0
C2520 C 0.1825 0.83745 0.30687 0.0
C2521 C 0.20154 0.8327 0.29074 0.0
C2522 C 0.18677 0.88139 0.29879 0.0
C2523 C 0.21232 0.85275 0.27849 0.0
C2524 C 0.19764 0.92649 0.3017 0.0
C2525 C 0.14906 0.93694 0.31104 0.0
N2526 N 0.20498 0.87632 0.283 0.0
N2527 N 0.1564 0.91307 0.30817 0.0
H2528 H 0.45494 0.29302 0.42356 0.0
H2529 H 0.53273 0.40609 0.4785 0.0
H2530 H 0.49433 0.34628 0.38016 0.0
H2531 H 0.47467 0.369 0.51712 0.0
H2532 H 0.52405 0.37929 0.44378 0.0
H2533 H 0.46489 0.31772 0.45919 0.0
C2534 C 0.46513 0.3103 0.42151 0.0
C2535 C 0.47365 0.3178 0.39895 0.0
C2536 C 0.51351 0.37678 0.46002 0.0
C2537 C 0.486 0.34548 0.43959 0.0
C2538 C 0.5188 0.39167 0.47995 0.0
C2539 C 0.5044 0.38961 0.50061 0.0
C2540 C 0.49389 0.35967 0.461 0.0
C2541 C 0.48618 0.37105 0.50146 0.0
C2542 C 0.47106 0.3242 0.44184 0.0
C2543 C 0.48709 0.34011 0.39722 0.0
N2544 N 0.4813 0.3569 0.48185 0.0
N2545 N 0.49317 0.35304 0.41737 0.0
H2546 H 0.38131 0.75881 0.12857 0.0
H2547 H 0.3446 0.77196 0.26473 0.0
H2548 H 0.43414 0.77137 0.18515 0.0
H2549 H 0.2935 0.78539 0.2073 0.0
H2550 H 0.37789 0.77248 0.23571 0.0
H2551 H 0.34857 0.76812 0.15697 0.0
C2552 C 0.38603 0.76351 0.14691 0.0
C2553 C 0.41047 0.76413 0.15453 0.0
C2554 C 0.35945 0.77574 0.2295 0.0
C2555 C 0.37328 0.77487 0.1869 0.0
C2556 C 0.34048 0.77548 0.24605 0.0
C2557 C 0.31634 0.77845 0.23833 0.0
C2558 C 0.3541 0.77845 0.20503 0.0
C2559 C 0.31192 0.78305 0.21396 0.0
C2560 C 0.36738 0.76904 0.16302 0.0
C2561 C 0.41556 0.77058 0.17845 0.0
N2562 N 0.33063 0.78244 0.19805 0.0
N2563 N 0.39711 0.7755 0.19381 0.0
H2564 H 0.91561 0.74676 0.95596 0.0
H2565 H 0.97361 0.61318 0.96021 0.0
H2566 H 0.94568 0.70903 0.89447 0.0
H2567 H 0.9297 0.64098 0.01829 0.0
H2568 H 0.96001 0.64714 0.93514 0.0
H2569 H 0.91633 0.70755 0.97812 0.0
C2570 C 0.92189 0.73018 0.94691 0.0
C2571 C 0.93113 0.73138 0.92343 0.0
C2572 C 0.95306 0.64583 0.95326 0.0
C2573 C 0.93214 0.68656 0.9488 0.0
C2574 C 0.96096 0.62648 0.96764 0.0
C2575 C 0.95304 0.62455 0.99144 0.0
C2576 C 0.93747 0.66384 0.96281 0.0
C2577 C 0.93631 0.64198 4e-05 0.0
C2578 C 0.92232 0.7078 0.95964 0.0
C2579 C 0.93884 0.70921 0.91266 0.0
N2580 N 0.92938 0.66127 0.98582 0.0
N2581 N 0.9395 0.68786 0.92554 0.0
H2582 H 0.06813 0.31912 0.63413 0.0
H2583 H 0.18675 0.24367 0.66297 0.0
H2584 H 0.0925 0.25857 0.58953 0.0
H2585 H 0.17923 0.32014 0.68542 0.0
H2586 H 0.15104 0.24828 0.63702 0.0
H2587 H 0.10842 0.32063 0.65324 0.0
C2588 C 0.08213 0.30658 0.62795 0.0
C2589 C 0.0769 0.28849 0.61046 0.0
C2590 C 0.15734 0.26409 0.64751 0.0
C2591 C 0.12257 0.28964 0.63262 0.0
C2592 C 0.17753 0.26138 0.66251 0.0
C2593 C 0.18585 0.2815 0.67645 0.0
C2594 C 0.14516 0.28693 0.6468 0.0
C2595 C 0.17339 0.30414 0.67496 0.0
C2596 C 0.10506 0.30737 0.63892 0.0
C2597 C 0.0957 0.27271 0.60307 0.0
N2598 N 0.15349 0.30618 0.66057 0.0
N2599 N 0.11757 0.27329 0.61456 0.0
H2600 H 0.51001 0.71246 0.08353 0.0
H2601 H 0.52681 0.5697 0.11241 0.0
H2602 H 0.48317 0.67753 0.14791 0.0
H2603 H 0.55757 0.60591 0.05038 0.0
H2604 H 0.51771 0.61027 0.1296 0.0
H2605 H 0.53158 0.67451 0.07331 0.0
C2606 C 0.50824 0.69646 0.09522 0.0
C2607 C 0.49404 0.69752 0.11602 0.0
C2608 C 0.5271 0.60945 0.11255 0.0
C2609 C 0.5197 0.6546 0.10524 0.0
C2610 C 0.53264 0.58632 0.10293 0.0
C2611 C 0.54261 0.58465 0.07987 0.0
C2612 C 0.53129 0.63087 0.09877 0.0
C2613 C 0.5498 0.60654 0.0682 0.0
C2614 C 0.52096 0.67502 0.08966 0.0
C2615 C 0.4934 0.67698 0.13132 0.0
N2616 N 0.54335 0.62886 0.07751 0.0
N2617 N 0.50591 0.65616 0.12551 0.0
H2618 H 0.01487 0.75594 0.82095 0.0
H2619 H 0.1579 0.76453 0.84002 0.0
H2620 H 0.04571 0.76401 0.8919 0.0
H2621 H 0.12188 0.79281 0.77711 0.0
H2622 H 0.11803 0.75924 0.85942 0.0
H2623 H 0.05564 0.76129 0.80399 0.0
C2624 C 0.03028 0.75818 0.83302 0.0
C2625 C 0.02688 0.7598 0.85788 0.0
C2626 C 0.11892 0.76701 0.84155 0.0
C2627 C 0.07337 0.76636 0.83853 0.0
C2628 C 0.14158 0.77026 0.8306 0.0
C2629 C 0.14301 0.77927 0.80707 0.0
C2630 C 0.09766 0.77219 0.82857 0.0
C2631 C 0.12147 0.78612 0.7954 0.0
C2632 C 0.05346 0.76164 0.82328 0.0
C2633 C 0.04754 0.76277 0.87262 0.0
N2634 N 0.09954 0.78201 0.80614 0.0
N2635 N 0.06998 0.76613 0.86269 0.0
H2636 H 0.94116 0.30288 0.54426 0.0
H2637 H 0.00137 0.4248 0.48736 0.0
H2638 H 0.01867 0.3159 0.53648 0.0
H2639 H 0.9388 0.42573 0.53422 0.0
H2640 H -8e-05 0.37915 0.48778 0.0
H2641 H 0.93355 0.34241 0.52353 0.0
C2642 C 0.9565 0.31374 0.53757 0.0
C2643 C 0.98056 0.30656 0.54236 0.0
C2644 C 0.98599 0.38943 0.49721 0.0
C2645 C 0.97204 0.35097 0.51838 0.0
C2646 C 0.98669 0.41539 0.49685 0.0
C2647 C 0.97039 0.42883 0.51108 0.0
C2648 C 0.96864 0.37711 0.51156 0.0
C2649 C 0.95186 0.41586 0.52329 0.0
C2650 C 0.95216 0.33615 0.5258 0.0
C2651 C -0.00013 0.32114 0.53343 0.0
N2652 N 0.95167 0.39062 0.52354 0.0
N2653 N 0.9952 0.34281 0.522 0.0
H2654 H 0.41839 0.23101 0.36076 0.0
H2655 H 0.37073 0.21045 0.22874 0.0
H2656 H 0.46607 0.22317 0.29998 0.0
H2657 H 0.32421 0.21232 0.29085 0.0
H2658 H 0.40621 0.20498 0.25499 0.0
H2659 H 0.38423 0.21528 0.3365 0.0
C2660 C 0.42154 0.22589 0.34224 0.0
C2661 C 0.44451 0.2295 0.33181 0.0
C2662 C 0.38817 0.2057 0.26288 0.0
C2663 C 0.40599 0.21107 0.30411 0.0
C2664 C 0.36795 0.20854 0.24787 0.0
C2665 C 0.34474 0.21164 0.25782 0.0
C2666 C 0.38496 0.20665 0.28788 0.0
C2667 C 0.34195 0.2098 0.28265 0.0
C2668 C 0.40218 0.21675 0.32843 0.0
C2669 C 0.44817 0.22173 0.30815 0.0
N2670 N 0.36191 0.20789 0.29691 0.0
N2671 N 0.42895 0.21328 0.29488 0.0
H2672 H 0.42471 0.50676 0.34627 0.0
H2673 H 0.41653 0.45087 0.47853 0.0
H2674 H 0.37528 0.44675 0.36507 0.0
H2675 H 0.45884 0.51618 0.4591 0.0
H2676 H 0.39935 0.44979 0.43796 0.0
H2677 H 0.4374 0.50989 0.388 0.0
C2678 C 0.41672 0.49402 0.35918 0.0
C2679 C 0.39885 0.47651 0.35227 0.0
C2680 C 0.41227 0.46443 0.4427 0.0
C2681 C 0.41311 0.48014 0.4002 0.0
C2682 C 0.42195 0.46518 0.46589 0.0
C2683 C 0.43954 0.48336 0.4721 0.0
C2684 C 0.42043 0.48186 0.42568 0.0
C2685 C 0.44567 0.50155 0.45506 0.0
C2686 C 0.42379 0.49598 0.38307 0.0
C2687 C 0.38897 0.46065 0.36977 0.0
N2688 N 0.43639 0.50013 0.43259 0.0
N2689 N 0.39631 0.46277 0.39297 0.0
H2690 H 0.27644 0.64747 0.10561 0.0
H2691 H 0.23016 0.7607 0.18577 0.0
H2692 H 0.26003 0.71891 0.07491 0.0
H2693 H 0.22994 0.68378 0.20809 0.0
H2694 H 0.24401 0.74772 0.14599 0.0
H2695 H 0.26535 0.66326 0.14497 0.0
C2696 C 0.27108 0.66674 0.10729 0.0
C2697 C 0.26905 0.68189 0.087 0.0
C2698 C 0.24068 0.73373 0.15957 0.0
C2699 C 0.25551 0.69991 0.13197 0.0
C2700 C 0.23254 0.74105 0.18223 0.0
C2701 C 0.22894 0.72332 0.20045 0.0
C2702 C 0.24546 0.70855 0.15518 0.0
C2703 C 0.23247 0.69817 0.19475 0.0
C2704 C 0.26442 0.67565 0.12973 0.0
C2705 C 0.26199 0.7067 0.09018 0.0
N2706 N 0.24076 0.69161 0.17274 0.0
N2707 N 0.25514 0.7149 0.11227 0.0
H2708 H 0.12985 0.55303 0.86408 0.0
H2709 H 0.01978 0.50117 0.94452 0.0
H2710 H 0.07843 0.49622 0.84073 0.0
H2711 H 0.06189 0.56741 0.96179 0.0
H2712 H 0.0446 0.49573 0.90862 0.0
H2713 H 0.10847 0.55517 0.90242 0.0
C2714 C 0.11417 0.54092 0.86704 0.0
C2715 C 0.10579 0.52457 0.8491 0.0
C2716 C 0.04842 0.51142 0.92032 0.0
C2717 C 0.08135 0.52692 0.89282 0.0
C2718 C 0.03429 0.51451 0.94082 0.0
C2719 C 0.03863 0.5349 0.95603 0.0
C2720 C 0.06706 0.52876 0.91511 0.0
C2721 C 0.05774 0.55155 0.95042 0.0
C2722 C 0.10195 0.5422 0.88889 0.0
C2723 C 0.08539 0.5093 0.85394 0.0
N2724 N 0.07123 0.54815 0.93035 0.0
N2725 N 0.07384 0.51089 0.87533 0.0
H2726 H 0.26604 0.40706 0.55648 0.0
H2727 H 0.29836 0.2844 0.63054 0.0
H2728 H 0.26945 0.33431 0.52381 0.0
H2729 H 0.28938 0.35726 0.66157 0.0
H2730 H 0.29305 0.30255 0.59049 0.0
H2731 H 0.27776 0.38904 0.59463 0.0
C2732 C 0.26899 0.38719 0.5574 0.0
C2733 C 0.26663 0.37215 0.53695 0.0
C2734 C 0.29271 0.3146 0.60606 0.0
C2735 C 0.28053 0.35133 0.58069 0.0
C2736 C 0.29613 0.30432 0.62885 0.0
C2737 C 0.29427 0.31941 0.64929 0.0
C2738 C 0.28749 0.34006 0.60392 0.0
C2739 C 0.29087 0.345 0.64622 0.0
C2740 C 0.27589 0.37691 0.57919 0.0
C2741 C 0.27085 0.34654 0.53921 0.0
N2742 N 0.28736 0.35446 0.62401 0.0
N2743 N 0.27767 0.3369 0.56072 0.0
H2744 H 0.40133 0.53712 0.20552 0.0
H2745 H 0.51042 0.48271 0.12678 0.0
H2746 H 0.46416 0.50329 0.23808 0.0
H2747 H 0.43939 0.50301 0.10004 0.0
H2748 H 0.49671 0.49277 0.16765 0.0
H2749 H 0.41967 0.53127 0.16623 0.0
C2750 C 0.41944 0.52926 0.20438 0.0
C2751 C 0.43127 0.52064 0.22493 0.0
C2752 C 0.48411 0.49471 0.15281 0.0
C2753 C 0.45185 0.51262 0.18003 0.0
C2754 C 0.49176 0.48856 0.1296 0.0
C2755 C 0.47596 0.49204 0.11009 0.0
C2756 C 0.46065 0.50448 0.15624 0.0
C2757 C 0.45216 0.50014 0.1146 0.0
C2758 C 0.42973 0.52547 0.18194 0.0
C2759 C 0.4546 0.51036 0.22257 0.0
N2760 N 0.44534 0.50629 0.13712 0.0
N2761 N 0.464 0.50614 0.20037 0.0
H2762 H 0.26522 0.69784 0.96055 0.0
H2763 H 0.23063 0.67774 0.82281 0.0
H2764 H 0.23996 0.62845 0.92931 0.0
H2765 H 0.26623 0.74495 0.84803 0.0
H2766 H 0.23591 0.65933 0.86214 0.0
H2767 H 0.26693 0.7159 0.92011 0.0
C2768 C 0.26007 0.68641 0.9453 0.0
C2769 C 0.2523 0.6616 0.94845 0.0
C2770 C 0.24285 0.67802 0.85915 0.0
C2771 C 0.25439 0.68203 0.90236 0.0
C2772 C 0.23987 0.68851 0.83664 0.0
C2773 C 0.24791 0.7129 0.83225 0.0
C2774 C 0.2536 0.69214 0.87768 0.0
C2775 C 0.25987 0.72601 0.85074 0.0
C2776 C 0.26118 0.69669 0.92225 0.0
C2777 C 0.246 0.64765 0.92798 0.0
N2778 N 0.26207 0.71558 0.87286 0.0
N2779 N 0.24711 0.65807 0.90597 0.0
H2780 H 0.05355 0.46421 0.74237 0.0
H2781 H 0.06874 0.48275 0.60379 0.0
H2782 H 0.12197 0.45996 0.70444 0.0
H2783 H -0.00211 0.47775 0.63742 0.0
H2784 H 0.08734 0.46662 0.63985 0.0
H2785 H 0.03171 0.45974 0.70425 0.0
C2786 C 0.06395 0.46129 0.72613 0.0
C2787 C 0.08957 0.46307 0.72634 0.0
C2788 C 0.0677 0.46884 0.63948 0.0
C2789 C 0.06486 0.45852 0.6829 0.0
C2790 C 0.05708 0.47836 0.61893 0.0
C2791 C 0.03182 0.48224 0.61792 0.0
C2792 C 0.05309 0.46367 0.65955 0.0
C2793 C 0.01751 0.47541 0.63772 0.0
C2794 C 0.05148 0.45899 0.70435 0.0
C2795 C 0.10219 0.45921 0.70491 0.0
N2796 N 0.02843 0.4669 0.65801 0.0
N2797 N 0.0897 0.45763 0.68397 0.0
H2798 H 0.28995 0.35795 0.41491 0.0
H2799 H 0.23043 0.31986 0.29137 0.0
H2800 H 0.24194 0.40853 0.37845 0.0
H2801 H 0.30601 0.30414 0.3068 0.0
H2802 H 0.22933 0.34699 0.32689 0.0
H2803 H 0.29119 0.3321 0.3787 0.0
C2804 C 0.27959 0.36352 0.39929 0.0
C2805 C 0.2658 0.38533 0.39957 0.0
C2806 C 0.24609 0.33755 0.32238 0.0
C2807 C 0.26684 0.35577 0.3585 0.0
C2808 C 0.2467 0.32199 0.30232 0.0
C2809 C 0.26832 0.30974 0.29626 0.0
C2810 C 0.26704 0.34024 0.33672 0.0
C2811 C 0.28899 0.3133 0.31086 0.0
C2812 C 0.28042 0.34888 0.37869 0.0
C2813 C 0.25286 0.39187 0.37884 0.0
N2814 N 0.28777 0.32803 0.3306 0.0
N2815 N 0.25345 0.37695 0.35914 0.0
H2816 H 0.29756 0.46681 0.49975 0.0
H2817 H 0.40818 0.42126 0.56435 0.0
H2818 H 0.34864 0.41993 0.4628 0.0
H2819 H 0.4126 0.50107 0.55592 0.0
H2820 H 0.37453 0.41997 0.53558 0.0
H2821 H 0.33075 0.48178 0.52583 0.0
C2822 C 0.31601 0.46077 0.49619 0.0
C2823 C 0.32053 0.44231 0.47894 0.0
C2824 C 0.38266 0.43777 0.54045 0.0
C2825 C 0.35774 0.45805 0.50951 0.0
C2826 C 0.40154 0.4386 0.55708 0.0
C2827 C 0.41342 0.46124 0.56228 0.0
C2828 C 0.37529 0.45973 0.52931 0.0
C2829 C 0.40397 0.4832 0.55236 0.0
C2830 C 0.33478 0.46904 0.51133 0.0
C2831 C 0.34452 0.43421 0.47586 0.0
N2832 N 0.38549 0.48191 0.53598 0.0
N2833 N 0.36214 0.44156 0.49154 0.0
H2834 H 0.80246 0.05423 0.47907 0.0
H2835 H 0.92207 0.0127 0.48657 0.0
H2836 H 0.82354 0.10754 0.53366 0.0
H2837 H 0.92041 0.0476 0.55638 0.0
H2838 H 0.88421 0.03384 0.47628 0.0
H2839 H 0.84344 0.03755 0.47991 0.0
C2840 C 0.81585 0.06276 0.49095 0.0
C2841 C 0.80943 0.08218 0.50653 0.0
C2842 C 0.89196 0.03662 0.49394 0.0
C2843 C 0.85673 0.0634 0.50722 0.0
C2844 C 0.91368 0.02468 0.49976 0.0
C2845 C 0.92418 0.02801 0.52251 0.0
C2846 C 0.88071 0.05187 0.51109 0.0
C2847 C 0.91279 0.04411 0.53876 0.0
C2848 C 0.83942 0.05333 0.49122 0.0
C2849 C 0.82759 0.09249 0.52142 0.0
N2850 N 0.89165 0.05535 0.53274 0.0
N2851 N 0.85033 0.08272 0.52163 0.0
H2852 H 0.66298 0.08405 0.22038 0.0
H2853 H 0.6702 0.2086 0.29597 0.0
H2854 H 0.60693 0.10474 0.27046 0.0
H2855 H 0.71586 0.19379 0.2346 0.0
H2856 H 0.64515 0.17211 0.28568 0.0
H2857 H 0.68035 0.126 0.22297 0.0
C2858 C 0.65432 0.09764 0.23185 0.0
C2859 C 0.63423 0.091 0.24599 0.0
C2860 C 0.66046 0.17709 0.27431 0.0
C2861 C 0.65379 0.13883 0.24912 0.0
C2862 C 0.6749 0.19779 0.28028 0.0
C2863 C 0.69533 0.20413 0.26627 0.0
C2864 C 0.66662 0.16259 0.25431 0.0
C2865 C 0.70043 0.18953 0.24605 0.0
C2866 C 0.66409 0.12159 0.23323 0.0
C2867 C 0.62295 0.10924 0.25988 0.0
N2868 N 0.6863 0.16935 0.24081 0.0
N2869 N 0.63326 0.13233 0.26158 0.0
H2870 H 0.73204 0.9463 0.9561 0.0
H2871 H 0.58805 0.91929 0.95812 0.0
H2872 H 0.70073 0.87425 0.97308 0.0
H2873 H 0.62104 0.9927 0.95656 0.0
H2874 H 0.62904 0.90129 0.95786 0.0
H2875 H 0.69109 0.96249 0.95098 0.0
C2876 C 0.71657 0.93385 0.95877 0.0
C2877 C 0.71986 0.90889 0.96518 0.0
C2878 C 0.62721 0.92132 0.95742 0.0
C2879 C 0.67283 0.92737 0.95923 0.0
C2880 C 0.60388 0.93158 0.95741 0.0
C2881 C 0.6012 0.9575 0.9576 0.0
C2882 C 0.64783 0.93717 0.95739 0.0
C2883 C 0.62227 0.97261 0.95673 0.0
C2884 C 0.69316 0.94313 0.95583 0.0
C2885 C 0.69905 0.89367 0.96834 0.0
N2886 N 0.64468 0.96222 0.95675 0.0
N2887 N 0.67637 0.90317 0.96534 0.0
H2888 H 0.35503 0.45875 0.22831 0.0
H2889 H 0.2976 0.35468 0.18311 0.0
H2890 H 0.40036 0.40557 0.26433 0.0
H2891 H 0.36252 0.31487 0.20285 0.0
H2892 H 0.31838 0.39357 0.19268 0.0
H2893 H 0.3417 0.42654 0.20027 0.0
C2894 C 0.3618 0.44002 0.23046 0.0
C2895 C 0.37779 0.43424 0.2492 0.0
C2896 C 0.32863 0.37657 0.19399 0.0
C2897 C 0.3627 0.3973 0.21738 0.0
C2898 C 0.31668 0.35426 0.18834 0.0
C2899 C 0.32824 0.33165 0.19276 0.0
C2900 C 0.35224 0.37599 0.20406 0.0
C2901 C 0.35287 0.33204 0.19971 0.0
C2902 C 0.35425 0.42164 0.21442 0.0
C2903 C 0.38729 0.41033 0.25055 0.0
N2904 N 0.36387 0.35386 0.20577 0.0
N2905 N 0.37925 0.39253 0.23504 0.0
H2906 H 0.20442 0.60054 0.05592 0.0
H2907 H 0.06189 0.62681 0.04246 0.0
H2908 H 0.17407 0.65787 0.01149 0.0
H2909 H 0.08921 0.55653 0.06777 0.0
H2910 H 0.10369 0.6424 0.03932 0.0
H2911 H 0.16286 0.58728 0.06715 0.0
C2912 C 0.18889 0.60996 0.04821 0.0
C2913 C 0.19231 0.62945 0.0319 0.0
C2914 C 0.10054 0.62365 0.0458 0.0
C2915 C 0.14528 0.61555 0.04559 0.0
C2916 C 0.07669 0.61477 0.04774 0.0
C2917 C 0.07212 0.59019 0.05499 0.0
C2918 C 0.11998 0.60784 0.05112 0.0
C2919 C 0.09197 0.57556 0.06195 0.0
C2920 C 0.16532 0.60267 0.05485 0.0
C2921 C 0.17194 0.64221 0.02351 0.0
N2922 N 0.11517 0.58452 0.05952 0.0
N2923 N 0.14921 0.63491 0.03032 0.0
H2924 H 0.69591 0.97076 0.27135 0.0
H2925 H 0.66753 0.82788 0.24445 0.0
H2926 H 0.6308 0.94453 0.23473 0.0
H2927 H 0.72779 0.85298 0.28855 0.0
H2928 H 0.65232 0.87026 0.24309 0.0
H2929 H 0.70748 0.92784 0.2784 0.0
C2930 C 0.6841 0.95601 0.26458 0.0
C2931 C 0.66229 0.96136 0.25237 0.0
C2932 C 0.66864 0.86654 0.25341 0.0
C2933 C 0.67543 0.91204 0.26075 0.0
C2934 C 0.67722 0.84233 0.25434 0.0
C2935 C 0.69896 0.83709 0.26657 0.0
C2936 C 0.68214 0.88574 0.26446 0.0
C2937 C 0.71088 0.85633 0.27906 0.0
C2938 C 0.69067 0.93147 0.26884 0.0
C2939 C 0.64782 0.94137 0.2441 0.0
N2940 N 0.70251 0.88 0.27736 0.0
N2941 N 0.65465 0.9176 0.24847 0.0
H2942 H 0.80648 0.01723 0.83112 0.0
H2943 H 0.85489 0.1543 0.79917 0.0
H2944 H 0.87969 0.0325 0.80563 0.0
H2945 H 0.77962 0.13523 0.81456 0.0
H2946 H 0.86587 0.11078 0.80592 0.0
H2947 H 0.79801 0.06147 0.82967 0.0
C2948 C 0.82087 0.02986 0.82531 0.0
C2949 C 0.84381 0.02099 0.81831 0.0
C2950 C 0.84699 0.11622 0.80792 0.0
C2951 C 0.8341 0.07194 0.81655 0.0
C2952 C 0.84072 0.14105 0.80415 0.0
C2953 C 0.81626 0.1484 0.80612 0.0
C2954 C 0.82869 0.09873 0.81385 0.0
C2955 C 0.79867 0.13042 0.81261 0.0
C2956 C 0.81597 0.05519 0.82447 0.0
C2957 C 0.86169 0.03842 0.81107 0.0
N2958 N 0.80522 0.10647 0.81616 0.0
N2959 N 0.85642 0.06307 0.81027 0.0
loop_
_geom_bond_atom_site_label_1
_geom_bond_atom_site_label_2
_geom_bond_distance
_geom_bond_site_symmetry_2
_ccdc_geom_bond_type
Mn0 O5 2.095 . S
Mn0 O15 2.162 . S
Mn0 O16 2.297 . S
Mn0 O24 2.385 . S
Mn0 O25 2.209 . S
Mn0 O26 2.094 1_455 S
Mn1 O6 2.121 . S
Mn1 N8 2.257 . S
Mn1 N17 2.282 . S
Mn1 O25 2.215 1_655 S
Mn1 O27 2.117 . S
C2 O24 1.234 . S
C2 O25 1.283 . S
C3 O15 1.281 . S
C3 O16 1.236 . S
C4 O26 1.240 . S
C4 O27 1.264 . S
O5 Mn0 2.095 . S
O5 C14 1.252 . S
O6 Mn1 2.121 . S
O6 C14 1.250 1_655 S
C7 N8 1.326 . S
C7 C11 1.460 . S
C7 H13 0.929 . S
N8 Mn1 2.257 . S
N8 C7 1.326 . S
N8 C12 1.362 . S
C9 C10 1.258 . S
C9 C12 1.431 . S
C9 C29 1.449 . S
C10 C9 1.258 . S
C10 C11 1.477 . S
C10 H30 0.907 1_554 S
C11 C7 1.460 . S
C11 C10 1.477 . S
C11 H31 0.930 . S
C12 N8 1.362 . S
C12 C9 1.431 . S
C12 C22 1.476 . S
H13 C7 0.929 . S
C14 O5 1.252 . S
C14 O6 1.250 1_455 S
O15 Mn0 2.162 . S
O15 C3 1.281 . S
O16 Mn0 2.297 . S
O16 C3 1.236 . S
N17 Mn1 2.282 . S
N17 C18 1.328 . S
N17 C22 1.318 . S
C18 N17 1.328 . S
C18 C19 1.457 . S
C18 H23 0.929 . S
C19 C18 1.457 . S
C19 C20 1.291 . S
C19 H32 0.931 . S
C20 C19 1.291 . S
C20 C21 1.373 . S
C20 H33 0.929 . S
C21 C20 1.373 . S
C21 C22 1.396 . S
C21 C28 1.403 . S
C22 C12 1.476 . S
C22 N17 1.318 . S
C22 C21 1.396 . S
H23 C18 0.929 . S
O24 Mn0 2.385 . S
O24 C2 1.234 . S
O25 Mn0 2.209 . S
O25 Mn1 2.215 1_455 S
O25 C2 1.283 . S
O26 Mn0 2.094 1_655 S
O26 C4 1.240 . S
O27 Mn1 2.117 . S
O27 C4 1.264 . S
C28 C21 1.403 . S
C28 C29 1.399 . S
C28 H34 0.929 . S
C29 C9 1.449 . S
C29 C28 1.399 . S
C29 H35 0.930 . S
H30 C10 0.907 1_556 S
H31 C11 0.930 . S
H32 C19 0.931 . S
H33 C20 0.929 . S
H34 C28 0.929 . S
H35 C29 0.930 . S
Mn36 O41 2.095 . S
Mn36 O51 2.162 . S
Mn36 O52 2.297 . S
Mn36 O60 2.385 . S
Mn36 O61 2.209 . S
Mn36 O62 2.094 1_455 S
Mn37 O42 2.121 . S
Mn37 N44 2.257 . S
Mn37 N53 2.282 . S
Mn37 O61 2.215 1_655 S
Mn37 O63 2.117 . S
C38 O60 1.234 . S
C38 O61 1.283 . S
C39 O51 1.281 . S
C39 O52 1.236 . S
C40 O62 1.240 . S
C40 O63 1.264 . S
O41 Mn36 2.095 . S
O41 C50 1.250 1_455 S
O42 Mn37 2.121 . S
O42 C50 1.258 . S
C43 N44 1.326 . S
C43 C47 1.460 . S
C43 H49 0.929 . S
N44 Mn37 2.257 . S
N44 C43 1.326 . S
N44 C48 1.362 . S
C45 C46 1.258 . S
C45 C48 1.431 . S
C45 C65 1.449 . S
C46 C45 1.258 . S
C46 C47 1.477 . S
C46 H66 0.931 . S
C47 C43 1.460 . S
C47 C46 1.477 . S
C47 H67 0.930 . S
C48 N44 1.362 . S
C48 C45 1.431 . S
C48 C58 1.476 . S
H49 C43 0.929 . S
C50 O41 1.250 1_655 S
C50 O42 1.258 . S
O51 Mn36 2.162 . S
O51 C39 1.281 . S
O52 Mn36 2.297 . S
O52 C39 1.236 . S
N53 Mn37 2.282 . S
N53 C54 1.328 . S
N53 C58 1.318 . S
C54 N53 1.328 . S
C54 C55 1.457 . S
C54 H59 0.929 . S
C55 C54 1.457 . S
C55 C56 1.291 . S
C55 H68 0.931 . S
C56 C55 1.291 . S
C56 C57 1.373 . S
C56 H69 0.929 . S
C57 C56 1.373 . S
C57 C58 1.396 . S
C57 C64 1.403 . S
C58 C48 1.476 . S
C58 N53 1.318 . S
C58 C57 1.396 . S
H59 C54 0.929 . S
O60 Mn36 2.385 . S
O60 C38 1.234 . S
O61 Mn36 2.209 . S
O61 Mn37 2.215 1_455 S
O61 C38 1.283 . S
O62 Mn36 2.094 1_655 S
O62 C40 1.240 . S
O63 Mn37 2.117 . S
O63 C40 1.264 . S
C64 C57 1.403 . S
C64 C65 1.399 . S
C64 H70 0.929 . S
C65 C45 1.449 . S
C65 C64 1.399 . S
C65 H71 0.930 . S
H66 C46 0.931 . S
H67 C47 0.930 . S
H68 C55 0.931 . S
H69 C56 0.929 . S
H70 C64 0.929 . S
H71 C65 0.930 . S
Mn72 O77 2.095 . S
Mn72 O87 2.162 . S
Mn72 O88 2.297 . S
Mn72 O96 2.385 . S
Mn72 O97 2.209 . S
Mn72 O98 2.094 . S
Mn73 O78 2.121 . S
Mn73 N80 2.257 . S
Mn73 N89 2.282 . S
Mn73 O97 2.215 . S
Mn73 O99 2.117 . S
C74 O96 1.234 . S
C74 O97 1.283 . S
C75 O87 1.281 . S
C75 O88 1.236 . S
C76 O98 1.240 . S
C76 O99 1.264 . S
O77 Mn72 2.095 . S
O77 C86 1.250 . S
O78 Mn73 2.121 . S
O78 C86 1.258 . S
C79 N80 1.326 . S
C79 C83 1.460 . S
C79 H85 0.929 . S
N80 Mn73 2.257 . S
N80 C79 1.326 . S
N80 C84 1.362 . S
C81 C82 1.258 . S
C81 C84 1.431 . S
C81 C101 1.449 . S
C82 C81 1.258 . S
C82 C83 1.477 . S
C82 H102 0.931 . S
C83 C79 1.460 . S
C83 C82 1.477 . S
C83 H103 0.930 . S
C84 N80 1.362 . S
C84 C81 1.431 . S
C84 C94 1.476 . S
H85 C79 0.929 . S
C86 O77 1.250 . S
C86 O78 1.258 . S
O87 Mn72 2.162 . S
O87 C75 1.281 . S
O88 Mn72 2.297 . S
O88 C75 1.236 . S
N89 Mn73 2.282 . S
N89 C90 1.328 . S
N89 C94 1.318 . S
C90 N89 1.328 . S
C90 C91 1.457 . S
C90 H95 0.929 . S
C91 C90 1.457 . S
C91 C92 1.291 . S
C91 H104 0.931 . S
C92 C91 1.291 . S
C92 C93 1.373 . S
C92 H105 0.929 . S
C93 C92 1.373 . S
C93 C94 1.396 . S
C93 C100 1.403 . S
C94 C84 1.476 . S
C94 N89 1.318 . S
C94 C93 1.396 . S
H95 C90 0.929 . S
O96 Mn72 2.385 . S
O96 C74 1.234 . S
O97 Mn72 2.209 . S
O97 Mn73 2.215 . S
O97 C74 1.283 . S
O98 Mn72 2.094 . S
O98 C76 1.240 . S
O99 Mn73 2.117 . S
O99 C76 1.264 . S
C100 C93 1.403 . S
C100 C101 1.399 . S
C100 H106 0.929 . S
C101 C81 1.449 . S
C101 C100 1.399 . S
C101 H107 0.930 . S
H102 C82 0.931 . S
H103 C83 0.930 . S
H104 C91 0.931 . S
H105 C92 0.929 . S
H106 C100 0.929 . S
H107 C101 0.930 . S
Mn108 O113 2.095 . S
Mn108 O123 2.162 . S
Mn108 O124 2.297 . S
Mn108 O132 2.385 . S
Mn108 O133 2.209 . S
Mn108 O134 2.094 . S
Mn109 O114 2.121 . S
Mn109 N116 2.257 . S
Mn109 N125 2.282 . S
Mn109 O133 2.215 . S
Mn109 O135 2.117 . S
C110 O132 1.234 . S
C110 O133 1.283 . S
C111 O123 1.281 . S
C111 O124 1.236 . S
C112 O134 1.240 . S
C112 O135 1.264 . S
O113 Mn108 2.095 . S
O113 C122 1.250 . S
O114 Mn109 2.121 . S
O114 C122 1.258 . S
C115 N116 1.326 . S
C115 C119 1.460 1_556 S
C115 H121 0.929 . S
N116 Mn109 2.257 . S
N116 C115 1.326 . S
N116 C120 1.362 . S
C117 C118 1.258 1_556 S
C117 C120 1.431 . S
C117 C137 1.449 1_556 S
C118 C117 1.258 1_554 S
C118 C119 1.477 . S
C118 H138 0.931 . S
C119 C115 1.460 1_554 S
C119 C118 1.477 . S
C119 H139 0.930 . S
C120 N116 1.362 . S
C120 C117 1.431 . S
C120 C130 1.476 . S
H121 C115 0.929 . S
C122 O113 1.250 . S
C122 O114 1.258 . S
O123 Mn108 2.162 . S
O123 C111 1.281 . S
O124 Mn108 2.297 . S
O124 C111 1.236 . S
N125 Mn109 2.282 . S
N125 C126 1.328 . S
N125 C130 1.318 . S
C126 N125 1.328 . S
C126 C127 1.457 . S
C126 H131 0.929 . S
C127 C126 1.457 . S
C127 C128 1.291 . S
C127 H140 0.931 . S
C128 C127 1.291 . S
C128 C129 1.373 . S
C128 H141 0.929 . S
C129 C128 1.373 . S
C129 C130 1.396 . S
C129 C136 1.403 . S
C130 C120 1.476 . S
C130 N125 1.318 . S
C130 C129 1.396 . S
H131 C126 0.929 . S
O132 Mn108 2.385 . S
O132 C110 1.234 . S
O133 Mn108 2.209 . S
O133 Mn109 2.215 . S
O133 C110 1.283 . S
O134 Mn108 2.094 . S
O134 C112 1.240 . S
O135 Mn109 2.117 . S
O135 C112 1.264 . S
C136 C129 1.403 . S
C136 C137 1.399 1_556 S
C136 H142 0.929 . S
C137 C117 1.449 1_554 S
C137 C136 1.399 1_554 S
C137 H143 0.930 . S
H138 C118 0.931 . S
H139 C119 0.930 . S
H140 C127 0.931 . S
H141 C128 0.929 . S
H142 C136 0.929 . S
H143 C137 0.930 . S
Mn144 O149 2.095 1_545 S
Mn144 O159 2.162 . S
Mn144 O160 2.297 . S
Mn144 O168 2.385 . S
Mn144 O169 2.209 . S
Mn144 O170 2.094 . S
Mn145 O150 2.121 1_545 S
Mn145 N152 2.257 . S
Mn145 N161 2.282 . S
Mn145 O169 2.215 . S
Mn145 O171 2.117 . S
C146 O168 1.234 . S
C146 O169 1.283 . S
C147 O159 1.281 . S
C147 O160 1.236 . S
C148 O170 1.240 . S
C148 O171 1.264 . S
O149 Mn144 2.095 1_565 S
O149 C158 1.250 . S
O150 Mn145 2.121 1_565 S
O150 C158 1.258 . S
C151 N152 1.326 . S
C151 C155 1.460 . S
C151 H157 0.929 . S
N152 Mn145 2.257 . S
N152 C151 1.326 . S
N152 C156 1.362 . S
C153 C154 1.258 . S
C153 C156 1.431 . S
C153 C173 1.449 . S
C154 C153 1.258 . S
C154 C155 1.477 . S
C154 H174 0.931 . S
C155 C151 1.460 . S
C155 C154 1.477 . S
C155 H175 0.930 . S
C156 N152 1.362 . S
C156 C153 1.431 . S
C156 C166 1.476 . S
H157 C151 0.929 . S
C158 O149 1.250 . S
C158 O150 1.258 . S
O159 Mn144 2.162 . S
O159 C147 1.281 . S
O160 Mn144 2.297 . S
O160 C147 1.236 . S
N161 Mn145 2.282 . S
N161 C162 1.328 . S
N161 C166 1.318 . S
C162 N161 1.328 . S
C162 C163 1.457 . S
C162 H167 0.929 . S
C163 C162 1.457 . S
C163 C164 1.291 . S
C163 H176 0.931 . S
C164 C163 1.291 . S
C164 C165 1.373 . S
C164 H177 0.929 . S
C165 C164 1.373 . S
C165 C166 1.396 . S
C165 C172 1.403 . S
C166 C156 1.476 . S
C166 N161 1.318 . S
C166 C165 1.396 . S
H167 C162 0.929 . S
O168 Mn144 2.385 . S
O168 C146 1.234 . S
O169 Mn144 2.209 . S
O169 Mn145 2.215 . S
O169 C146 1.283 . S
O170 Mn144 2.094 . S
O170 C148 1.240 . S
O171 Mn145 2.117 . S
O171 C148 1.264 . S
C172 C165 1.403 . S
C172 C173 1.399 . S
C172 H178 0.929 . S
C173 C153 1.449 . S
C173 C172 1.399 . S
C173 H179 0.930 . S
H174 C154 0.931 . S
H175 C155 0.930 . S
H176 C163 0.931 . S
H177 C164 0.929 . S
H178 C172 0.929 . S
H179 C173 0.930 . S
Mn180 O185 2.095 . S
Mn180 O195 2.162 . S
Mn180 O196 2.297 . S
Mn180 O204 2.385 . S
Mn180 O205 2.209 . S
Mn180 O206 2.094 . S
Mn181 O186 2.121 . S
Mn181 N188 2.257 . S
Mn181 N197 2.282 . S
Mn181 O205 2.215 . S
Mn181 O207 2.117 . S
C182 O204 1.234 . S
C182 O205 1.283 . S
C183 O195 1.281 . S
C183 O196 1.236 . S
C184 O206 1.240 . S
C184 O207 1.264 . S
O185 Mn180 2.095 . S
O185 C194 1.250 . S
O186 Mn181 2.121 . S
O186 C194 1.258 . S
C187 N188 1.326 . S
C187 C191 1.460 1_565 S
C187 H193 0.929 . S
N188 Mn181 2.257 . S
N188 C187 1.326 . S
N188 C192 1.362 . S
C189 C190 1.258 . S
C189 C192 1.431 1_545 S
C189 C209 1.449 . S
C190 C189 1.258 . S
C190 C191 1.477 . S
C190 H210 0.931 . S
C191 C187 1.460 1_545 S
C191 C190 1.477 . S
C191 H211 0.930 . S
C192 N188 1.362 . S
C192 C189 1.431 1_565 S
C192 C202 1.476 . S
H193 C187 0.929 . S
C194 O185 1.250 . S
C194 O186 1.258 . S
O195 Mn180 2.162 . S
O195 C183 1.281 . S
O196 Mn180 2.297 . S
O196 C183 1.236 . S
N197 Mn181 2.282 . S
N197 C198 1.328 . S
N197 C202 1.318 . S
C198 N197 1.328 . S
C198 C199 1.457 . S
C198 H203 0.929 . S
C199 C198 1.457 . S
C199 C200 1.291 . S
C199 H212 0.931 . S
C200 C199 1.291 . S
C200 C201 1.373 . S
C200 H213 0.929 . S
C201 C200 1.373 . S
C201 C202 1.396 . S
C201 C208 1.403 . S
C202 C192 1.476 . S
C202 N197 1.318 . S
C202 C201 1.396 . S
H203 C198 0.929 . S
O204 Mn180 2.385 . S
O204 C182 1.234 . S
O205 Mn180 2.209 . S
O205 Mn181 2.215 . S
O205 C182 1.283 . S
O206 Mn180 2.094 . S
O206 C184 1.240 . S
O207 Mn181 2.117 . S
O207 C184 1.264 . S
C208 C201 1.403 . S
C208 C209 1.399 1_565 S
C208 H214 0.939 . S
C209 C189 1.449 . S
C209 C208 1.399 1_545 S
C209 H215 0.930 . S
H210 C190 0.931 . S
H211 C191 0.930 . S
H212 C199 0.931 . S
H213 C200 0.929 . S
H214 C208 0.939 . S
H215 C209 0.930 . S
Mn216 O221 2.095 1_565 S
Mn216 O231 2.162 1_565 S
Mn216 O232 2.297 . S
Mn216 O240 2.385 . S
Mn216 O241 2.209 . S
Mn216 O242 2.094 . S
Mn217 O222 2.121 1_565 S
Mn217 N224 2.257 . S
Mn217 N233 2.282 . S
Mn217 O241 2.215 . S
Mn217 O243 2.117 . S
C218 O240 1.234 . S
C218 O241 1.283 . S
C219 O231 1.284 . S
C219 O232 1.235 1_545 S
C220 O242 1.240 1_545 S
C220 O243 1.264 1_545 S
O221 Mn216 2.095 1_545 S
O221 C230 1.250 . S
O222 Mn217 2.121 1_545 S
O222 C230 1.258 . S
C223 N224 1.326 1_545 S
C223 C227 1.460 1_545 S
C223 H229 0.929 . S
N224 Mn217 2.257 . S
N224 C223 1.326 1_565 S
N224 C228 1.362 . S
C225 C226 1.258 . S
C225 C228 1.431 . S
C225 C245 1.449 . S
C226 C225 1.258 . S
C226 C227 1.477 . S
C226 H246 0.931 . S
C227 C223 1.460 1_565 S
C227 C226 1.477 . S
C227 H247 0.930 1_565 S
C228 N224 1.362 . S
C228 C225 1.431 . S
C228 C238 1.476 . S
H229 C223 0.929 . S
C230 O221 1.250 . S
C230 O222 1.258 . S
O231 Mn216 2.162 1_545 S
O231 C219 1.284 . S
O232 Mn216 2.297 . S
O232 C219 1.235 1_565 S
N233 Mn217 2.282 . S
N233 C234 1.328 . S
N233 C238 1.318 . S
C234 N233 1.328 . S
C234 C235 1.457 . S
C234 H239 0.929 . S
C235 C234 1.457 . S
C235 C236 1.291 . S
C235 H248 0.931 . S
C236 C235 1.291 . S
C236 C237 1.373 . S
C236 H249 0.929 . S
C237 C236 1.373 . S
C237 C238 1.396 . S
C237 C244 1.403 . S
C238 C228 1.476 . S
C238 N233 1.318 . S
C238 C237 1.396 . S
H239 C234 0.929 . S
O240 Mn216 2.385 . S
O240 C218 1.234 . S
O241 Mn216 2.209 . S
O241 Mn217 2.215 . S
O241 C218 1.283 . S
O242 Mn216 2.094 . S
O242 C220 1.240 1_565 S
O243 Mn217 2.117 . S
O243 C220 1.264 1_565 S
C244 C237 1.403 . S
C244 C245 1.399 . S
C244 H250 0.929 . S
C245 C225 1.449 . S
C245 C244 1.399 . S
C245 H251 0.930 . S
H246 C226 0.931 . S
H247 C227 0.930 1_545 S
H248 C235 0.931 . S
H249 C236 0.929 . S
H250 C244 0.929 . S
H251 C245 0.930 . S
Mn252 O257 2.095 . S
Mn252 O267 2.162 . S
Mn252 O268 2.297 . S
Mn252 O276 2.385 . S
Mn252 O277 2.209 . S
Mn252 O278 2.094 1_554 S
Mn253 O258 2.121 . S
Mn253 N260 2.257 . S
Mn253 N269 2.282 . S
Mn253 O277 2.215 1_556 S
Mn253 O279 2.117 . S
C254 O276 1.234 . S
C254 O277 1.283 . S
C255 O267 1.281 . S
C255 O268 1.236 . S
C256 O278 1.240 . S
C256 O279 1.264 . S
O257 Mn252 2.095 . S
O257 C266 1.250 . S
O258 Mn253 2.121 . S
O258 C266 1.258 1_556 S
C259 N260 1.326 . S
C259 C263 1.460 . S
C259 H265 0.929 . S
N260 Mn253 2.257 . S
N260 C259 1.326 . S
N260 C264 1.362 . S
C261 C262 1.258 1_545 S
C261 C264 1.431 . S
C261 C281 1.449 . S
C262 C261 1.258 1_565 S
C262 C263 1.477 1_565 S
C262 H282 0.931 . S
C263 C259 1.460 . S
C263 C262 1.477 1_545 S
C263 H283 0.930 1_545 S
C264 N260 1.362 . S
C264 C261 1.431 . S
C264 C274 1.476 . S
H265 C259 0.929 . S
C266 O257 1.250 . S
C266 O258 1.258 1_554 S
O267 Mn252 2.162 . S
O267 C255 1.281 . S
O268 Mn252 2.297 . S
O268 C255 1.236 . S
N269 Mn253 2.282 . S
N269 C270 1.328 . S
N269 C274 1.318 . S
C270 N269 1.328 . S
C270 C271 1.457 . S
C270 H275 0.929 . S
C271 C270 1.457 . S
C271 C272 1.291 . S
C271 H284 0.931 . S
C272 C271 1.291 . S
C272 C273 1.373 . S
C272 H285 0.929 . S
C273 C272 1.373 . S
C273 C274 1.396 . S
C273 C280 1.403 . S
C274 C264 1.476 . S
C274 N269 1.318 . S
C274 C273 1.396 . S
H275 C270 0.929 . S
O276 Mn252 2.385 . S
O276 C254 1.234 . S
O277 Mn252 2.209 . S
O277 Mn253 2.215 1_554 S
O277 C254 1.283 . S
O278 Mn252 2.094 1_556 S
O278 C256 1.240 . S
O279 Mn253 2.117 . S
O279 C256 1.264 . S
C280 C273 1.403 . S
C280 C281 1.399 . S
C280 H286 0.929 . S
C281 C261 1.449 . S
C281 C280 1.399 . S
C281 H287 0.930 1_545 S
H282 C262 0.931 . S
H283 C263 0.930 1_565 S
H284 C271 0.931 . S
H285 C272 0.929 . S
H286 C280 0.929 . S
H287 C281 0.930 1_565 S
Mn288 O293 2.095 . S
Mn288 O303 2.162 . S
Mn288 O304 2.297 . S
Mn288 O312 2.385 . S
Mn288 O313 2.209 . S
Mn288 O314 2.094 1_554 S
Mn289 O294 2.121 . S
Mn289 N296 2.257 . S
Mn289 N305 2.282 . S
Mn289 O313 2.215 1_556 S
Mn289 O315 2.117 . S
C290 O312 1.234 . S
C290 O313 1.283 . S
C291 O303 1.281 . S
C291 O304 1.236 . S
C292 O314 1.240 . S
C292 O315 1.264 . S
O293 Mn288 2.095 . S
O293 C302 1.250 . S
O294 Mn289 2.121 . S
O294 C302 1.258 1_556 S
C295 N296 1.326 . S
C295 C299 1.460 . S
C295 H301 0.929 . S
N296 Mn289 2.257 . S
N296 C295 1.326 . S
N296 C300 1.362 . S
C297 C298 1.258 . S
C297 C300 1.431 . S
C297 C317 1.449 . S
C298 C297 1.258 . S
C298 C299 1.477 . S
C298 H318 0.931 . S
C299 C295 1.460 . S
C299 C298 1.477 . S
C299 H319 0.930 . S
C300 N296 1.362 . S
C300 C297 1.431 . S
C300 C310 1.476 . S
H301 C295 0.929 . S
C302 O293 1.250 . S
C302 O294 1.258 1_554 S
O303 Mn288 2.162 . S
O303 C291 1.281 . S
O304 Mn288 2.297 . S
O304 C291 1.236 . S
N305 Mn289 2.282 . S
N305 C306 1.328 . S
N305 C310 1.318 . S
C306 N305 1.328 . S
C306 C307 1.457 . S
C306 H311 0.929 . S
C307 C306 1.457 . S
C307 C308 1.291 . S
C307 H320 0.931 . S
C308 C307 1.291 . S
C308 C309 1.373 . S
C308 H321 0.929 . S
C309 C308 1.373 . S
C309 C310 1.396 . S
C309 C316 1.403 . S
C310 C300 1.476 . S
C310 N305 1.318 . S
C310 C309 1.396 . S
H311 C306 0.929 . S
O312 Mn288 2.385 . S
O312 C290 1.234 . S
O313 Mn288 2.209 . S
O313 Mn289 2.215 1_554 S
O313 C290 1.283 . S
O314 Mn288 2.094 1_556 S
O314 C292 1.240 . S
O315 Mn289 2.117 . S
O315 C292 1.264 . S
C316 C309 1.403 . S
C316 C317 1.399 . S
C316 H322 0.929 . S
C317 C297 1.449 . S
C317 C316 1.399 . S
C317 H323 0.930 . S
H318 C298 0.931 . S
H319 C299 0.930 . S
H320 C307 0.931 . S
H321 C308 0.929 . S
H322 C316 0.929 . S
H323 C317 0.930 . S
Mn324 O329 2.095 . S
Mn324 O339 2.162 . S
Mn324 O340 2.297 . S
Mn324 O348 2.385 . S
Mn324 O349 2.209 . S
Mn324 O350 2.094 . S
Mn325 O330 2.121 . S
Mn325 N332 2.257 . S
Mn325 N341 2.282 . S
Mn325 O349 2.215 . S
Mn325 O351 2.117 . S
C326 O348 1.234 . S
C326 O349 1.283 . S
C327 O339 1.281 . S
C327 O340 1.236 . S
C328 O350 1.240 . S
C328 O351 1.264 . S
O329 Mn324 2.095 . S
O329 C338 1.250 . S
O330 Mn325 2.121 . S
O330 C338 1.258 . S
C331 N332 1.326 . S
C331 C335 1.460 . S
C331 H337 0.929 . S
N332 Mn325 2.257 . S
N332 C331 1.326 . S
N332 C336 1.362 . S
C333 C334 1.258 . S
C333 C336 1.431 . S
C333 C353 1.449 . S
C334 C333 1.258 . S
C334 C335 1.477 . S
C334 H354 0.931 . S
C335 C331 1.460 . S
C335 C334 1.477 . S
C335 H355 0.930 . S
C336 N332 1.362 . S
C336 C333 1.431 . S
C336 C346 1.476 . S
H337 C331 0.929 . S
C338 O329 1.250 . S
C338 O330 1.258 . S
O339 Mn324 2.162 . S
O339 C327 1.281 . S
O340 Mn324 2.297 . S
O340 C327 1.236 . S
N341 Mn325 2.282 . S
N341 C342 1.328 . S
N341 C346 1.318 . S
C342 N341 1.328 . S
C342 C343 1.457 . S
C342 H347 0.929 . S
C343 C342 1.457 . S
C343 C344 1.291 . S
C343 H356 0.931 . S
C344 C343 1.291 . S
C344 C345 1.373 . S
C344 H357 0.929 . S
C345 C344 1.373 . S
C345 C346 1.396 . S
C345 C352 1.403 . S
C346 C336 1.476 . S
C346 N341 1.318 . S
C346 C345 1.396 . S
H347 C342 0.929 . S
O348 Mn324 2.385 . S
O348 C326 1.234 . S
O349 Mn324 2.209 . S
O349 Mn325 2.215 . S
O349 C326 1.283 . S
O350 Mn324 2.094 . S
O350 C328 1.240 . S
O351 Mn325 2.117 . S
O351 C328 1.264 . S
C352 C345 1.403 . S
C352 C353 1.399 . S
C352 H358 0.929 . S
C353 C333 1.449 . S
C353 C352 1.399 . S
C353 H359 0.930 . S
H354 C334 0.931 . S
H355 C335 0.930 . S
H356 C343 0.931 . S
H357 C344 0.929 . S
H358 C352 0.929 . S
H359 C353 0.930 . S
Mn360 O365 2.095 . S
Mn360 O375 2.162 . S
Mn360 O376 2.297 . S
Mn360 O384 2.385 . S
Mn360 O385 2.209 . S
Mn360 O386 2.094 . S
Mn361 O366 2.121 . S
Mn361 N368 2.257 . S
Mn361 N377 2.282 . S
Mn361 O385 2.215 . S
Mn361 O387 2.117 . S
C362 O384 1.234 . S
C362 O385 1.283 . S
C363 O375 1.281 . S
C363 O376 1.236 . S
C364 O386 1.240 . S
C364 O387 1.264 . S
O365 Mn360 2.095 . S
O365 C374 1.250 . S
O366 Mn361 2.121 . S
O366 C374 1.258 . S
C367 N368 1.326 . S
C367 C371 1.460 . S
C367 H373 0.929 . S
N368 Mn361 2.257 . S
N368 C367 1.326 . S
N368 C372 1.362 . S
C369 C370 1.258 . S
C369 C372 1.431 . S
C369 C389 1.449 . S
C370 C369 1.258 . S
C370 C371 1.477 . S
C370 H390 0.931 . S
C371 C367 1.460 . S
C371 C370 1.477 . S
C371 H391 0.930 . S
C372 N368 1.362 . S
C372 C369 1.431 . S
C372 C382 1.476 . S
H373 C367 0.929 . S
C374 O365 1.250 . S
C374 O366 1.258 . S
O375 Mn360 2.162 . S
O375 C363 1.281 . S
O376 Mn360 2.297 . S
O376 C363 1.236 . S
N377 Mn361 2.282 . S
N377 C378 1.328 . S
N377 C382 1.318 . S
C378 N377 1.328 . S
C378 C379 1.457 . S
C378 H383 0.929 . S
C379 C378 1.457 . S
C379 C380 1.291 . S
C379 H392 0.931 . S
C380 C379 1.291 . S
C380 C381 1.373 . S
C380 H393 0.929 . S
C381 C380 1.373 . S
C381 C382 1.396 . S
C381 C388 1.403 . S
C382 C372 1.476 . S
C382 N377 1.318 . S
C382 C381 1.396 . S
H383 C378 0.929 . S
O384 Mn360 2.385 . S
O384 C362 1.234 . S
O385 Mn360 2.209 . S
O385 Mn361 2.215 . S
O385 C362 1.283 . S
O386 Mn360 2.094 . S
O386 C364 1.240 . S
O387 Mn361 2.117 . S
O387 C364 1.264 . S
C388 C381 1.403 . S
C388 C389 1.399 . S
C388 H394 0.929 . S
C389 C369 1.449 . S
C389 C388 1.399 . S
C389 H395 0.930 . S
H390 C370 0.931 . S
H391 C371 0.930 . S
H392 C379 0.931 . S
H393 C380 0.929 . S
H394 C388 0.929 . S
H395 C389 0.930 . S
Mn396 O401 2.095 . S
Mn396 O411 2.162 . S
Mn396 O412 2.297 . S
Mn396 O420 2.385 . S
Mn396 O421 2.209 . S
Mn396 O422 2.094 . S
Mn397 O402 2.121 . S
Mn397 N404 2.257 . S
Mn397 N413 2.282 . S
Mn397 O421 2.215 . S
Mn397 O423 2.117 . S
C398 O420 1.234 . S
C398 O421 1.283 . S
C399 O411 1.281 . S
C399 O412 1.236 . S
C400 O422 1.240 . S
C400 O423 1.264 . S
O401 Mn396 2.095 . S
O401 C410 1.250 . S
O402 Mn397 2.121 . S
O402 C410 1.258 . S
C403 N404 1.326 . S
C403 C407 1.460 . S
C403 H409 0.929 . S
N404 Mn397 2.257 . S
N404 C403 1.326 . S
N404 C408 1.362 . S
C405 C406 1.258 . S
C405 C408 1.431 . S
C405 C425 1.449 . S
C406 C405 1.258 . S
C406 C407 1.477 . S
C406 H426 0.931 . S
C407 C403 1.460 . S
C407 C406 1.477 . S
C407 H427 0.930 . S
C408 N404 1.362 . S
C408 C405 1.431 . S
C408 C418 1.476 . S
H409 C403 0.929 . S
C410 O401 1.250 . S
C410 O402 1.258 . S
O411 Mn396 2.162 . S
O411 C399 1.281 . S
O412 Mn396 2.297 . S
O412 C399 1.236 . S
N413 Mn397 2.282 . S
N413 C414 1.328 . S
N413 C418 1.318 . S
C414 N413 1.328 . S
C414 C415 1.457 . S
C414 H419 0.929 . S
C415 C414 1.457 . S
C415 C416 1.291 . S
C415 H428 0.931 . S
C416 C415 1.291 . S
C416 C417 1.373 . S
C416 H429 0.929 . S
C417 C416 1.373 . S
C417 C418 1.396 . S
C417 C424 1.403 . S
C418 C408 1.476 . S
C418 N413 1.318 . S
C418 C417 1.396 . S
H419 C414 0.929 . S
O420 Mn396 2.385 . S
O420 C398 1.234 . S
O421 Mn396 2.209 . S
O421 Mn397 2.215 . S
O421 C398 1.283 . S
O422 Mn396 2.094 . S
O422 C400 1.240 . S
O423 Mn397 2.117 . S
O423 C400 1.264 . S
C424 C417 1.403 . S
C424 C425 1.399 . S
C424 H430 0.929 . S
C425 C405 1.449 . S
C425 C424 1.399 . S
C425 H431 0.930 . S
H426 C406 0.931 . S
H427 C407 0.930 . S
H428 C415 0.931 . S
H429 C416 0.929 . S
H430 C424 0.929 . S
H431 C425 0.930 . S
Mn432 O437 2.095 . S
Mn432 O447 2.162 . S
Mn432 O448 2.297 . S
Mn432 O456 2.385 . S
Mn432 O457 2.209 . S
Mn432 O458 2.094 1_455 S
Mn433 O438 2.121 . S
Mn433 N440 2.257 . S
Mn433 N449 2.282 . S
Mn433 O457 2.215 1_655 S
Mn433 O459 2.117 . S
C434 O456 1.234 . S
C434 O457 1.283 . S
C435 O447 1.281 . S
C435 O448 1.236 . S
C436 O458 1.240 . S
C436 O459 1.264 . S
O437 Mn432 2.095 . S
O437 C446 1.250 1_455 S
O438 Mn433 2.121 . S
O438 C446 1.258 . S
C439 N440 1.326 . S
C439 C443 1.460 1_556 S
C439 H445 0.929 . S
N440 Mn433 2.257 . S
N440 C439 1.326 . S
N440 C444 1.362 . S
C441 C442 1.258 1_556 S
C441 C444 1.431 . S
C441 C461 1.449 1_556 S
C442 C441 1.258 1_554 S
C442 C443 1.477 . S
C442 H462 0.931 . S
C443 C439 1.460 1_554 S
C443 C442 1.477 . S
C443 H463 0.930 . S
C444 N440 1.362 . S
C444 C441 1.431 . S
C444 C454 1.476 . S
H445 C439 0.929 . S
C446 O437 1.250 1_655 S
C446 O438 1.258 . S
O447 Mn432 2.162 . S
O447 C435 1.281 . S
O448 Mn432 2.297 . S
O448 C435 1.236 . S
N449 Mn433 2.282 . S
N449 C450 1.328 . S
N449 C454 1.318 . S
C450 N449 1.328 . S
C450 C451 1.457 . S
C450 H455 0.929 . S
C451 C450 1.457 . S
C451 C452 1.291 . S
C451 H464 0.931 . S
C452 C451 1.291 . S
C452 C453 1.373 . S
C452 H465 0.929 . S
C453 C452 1.373 . S
C453 C454 1.396 . S
C453 C460 1.403 . S
C454 C444 1.476 . S
C454 N449 1.318 . S
C454 C453 1.396 . S
H455 C450 0.929 . S
O456 Mn432 2.385 . S
O456 C434 1.234 . S
O457 Mn432 2.209 . S
O457 Mn433 2.215 1_455 S
O457 C434 1.283 . S
O458 Mn432 2.094 1_655 S
O458 C436 1.240 . S
O459 Mn433 2.117 . S
O459 C436 1.264 . S
C460 C453 1.403 . S
C460 C461 1.399 1_556 S
C460 H466 0.929 . S
C461 C441 1.449 1_554 S
C461 C460 1.399 1_554 S
C461 H467 0.930 . S
H462 C442 0.931 . S
H463 C443 0.930 . S
H464 C451 0.931 . S
H465 C452 0.929 . S
H466 C460 0.929 . S
H467 C461 0.930 . S
Mn468 O473 2.095 . S
Mn468 O483 2.162 . S
Mn468 O484 2.297 . S
Mn468 O492 2.385 . S
Mn468 O493 2.209 . S
Mn468 O494 2.094 1_455 S
Mn469 O474 2.121 . S
Mn469 N476 2.257 . S
Mn469 N485 2.282 . S
Mn469 O493 2.215 1_655 S
Mn469 O495 2.117 . S
C470 O492 1.234 . S
C470 O493 1.283 . S
C471 O483 1.281 . S
C471 O484 1.236 . S
C472 O494 1.240 . S
C472 O495 1.264 . S
O473 Mn468 2.095 . S
O473 C482 1.250 . S
O474 Mn469 2.121 . S
O474 C482 1.256 1_655 S
C475 N476 1.326 . S
C475 C479 1.460 . S
C475 H481 0.929 . S
N476 Mn469 2.257 . S
N476 C475 1.326 . S
N476 C480 1.362 . S
C477 C478 1.258 . S
C477 C480 1.431 . S
C477 C497 1.449 . S
C478 C477 1.258 . S
C478 C479 1.477 . S
C478 H498 0.931 . S
C479 C475 1.460 . S
C479 C478 1.477 . S
C479 H499 0.930 . S
C480 N476 1.362 . S
C480 C477 1.431 . S
C480 C490 1.476 . S
H481 C475 0.929 . S
C482 O473 1.250 . S
C482 O474 1.256 1_455 S
O483 Mn468 2.162 . S
O483 C471 1.281 . S
O484 Mn468 2.297 . S
O484 C471 1.236 . S
N485 Mn469 2.282 . S
N485 C486 1.328 . S
N485 C490 1.318 . S
C486 N485 1.328 . S
C486 C487 1.457 . S
C486 H491 0.929 . S
C487 C486 1.457 . S
C487 C488 1.291 . S
C487 H500 0.931 . S
C488 C487 1.291 . S
C488 C489 1.373 . S
C488 H501 0.929 . S
C489 C488 1.373 . S
C489 C490 1.396 . S
C489 C496 1.403 . S
C490 C480 1.476 . S
C490 N485 1.318 . S
C490 C489 1.396 . S
H491 C486 0.929 . S
O492 Mn468 2.385 . S
O492 C470 1.234 . S
O493 Mn468 2.209 . S
O493 Mn469 2.215 1_455 S
O493 C470 1.283 . S
O494 Mn468 2.094 1_655 S
O494 C472 1.240 . S
O495 Mn469 2.117 . S
O495 C472 1.264 . S
C496 C489 1.403 . S
C496 C497 1.399 . S
C496 H502 0.929 . S
C497 C477 1.449 . S
C497 C496 1.399 . S
C497 H503 0.930 . S
H498 C478 0.931 . S
H499 C479 0.930 . S
H500 C487 0.931 . S
H501 C488 0.929 . S
H502 C496 0.929 . S
H503 C497 0.930 . S
Mn504 O509 2.095 . S
Mn504 O519 2.162 . S
Mn504 O520 2.297 . S
Mn504 O528 2.385 . S
Mn504 O529 2.209 . S
Mn504 O530 2.094 . S
Mn505 O510 2.121 . S
Mn505 N512 2.257 . S
Mn505 N521 2.282 . S
Mn505 O529 2.215 . S
Mn505 O531 2.117 . S
C506 O528 1.234 . S
C506 O529 1.283 . S
C507 O519 1.281 . S
C507 O520 1.236 . S
C508 O530 1.240 . S
C508 O531 1.264 . S
O509 Mn504 2.095 . S
O509 C518 1.250 . S
O510 Mn505 2.121 . S
O510 C518 1.258 . S
C511 N512 1.326 . S
C511 C515 1.460 . S
C511 H517 0.929 . S
N512 Mn505 2.257 . S
N512 C511 1.326 . S
N512 C516 1.362 . S
C513 C514 1.258 . S
C513 C516 1.431 . S
C513 C533 1.449 . S
C514 C513 1.258 . S
C514 C515 1.477 . S
C514 H534 0.931 . S
C515 C511 1.460 . S
C515 C514 1.477 . S
C515 H535 0.930 . S
C516 N512 1.362 . S
C516 C513 1.431 . S
C516 C526 1.476 . S
H517 C511 0.929 . S
C518 O509 1.250 . S
C518 O510 1.258 . S
O519 Mn504 2.162 . S
O519 C507 1.281 . S
O520 Mn504 2.297 . S
O520 C507 1.236 . S
N521 Mn505 2.282 . S
N521 C522 1.328 . S
N521 C526 1.318 . S
C522 N521 1.328 . S
C522 C523 1.457 . S
C522 H527 0.929 . S
C523 C522 1.457 . S
C523 C524 1.291 . S
C523 H536 0.931 . S
C524 C523 1.291 . S
C524 C525 1.373 . S
C524 H537 0.929 . S
C525 C524 1.373 . S
C525 C526 1.396 . S
C525 C532 1.403 . S
C526 C516 1.476 . S
C526 N521 1.318 . S
C526 C525 1.396 . S
H527 C522 0.929 . S
O528 Mn504 2.385 . S
O528 C506 1.234 . S
O529 Mn504 2.209 . S
O529 Mn505 2.215 . S
O529 C506 1.283 . S
O530 Mn504 2.094 . S
O530 C508 1.240 . S
O531 Mn505 2.117 . S
O531 C508 1.264 . S
C532 C525 1.403 . S
C532 C533 1.399 . S
C532 H538 0.929 . S
C533 C513 1.449 . S
C533 C532 1.399 . S
C533 H539 0.930 . S
H534 C514 0.931 . S
H535 C515 0.930 . S
H536 C523 0.931 . S
H537 C524 0.929 . S
H538 C532 0.929 . S
H539 C533 0.930 . S
Mn540 O545 2.095 . S
Mn540 O555 2.162 . S
Mn540 O556 2.297 . S
Mn540 O564 2.385 . S
Mn540 O565 2.209 . S
Mn540 O566 2.094 . S
Mn541 O546 2.121 . S
Mn541 N548 2.257 . S
Mn541 N557 2.282 . S
Mn541 O565 2.215 . S
Mn541 O567 2.117 . S
C542 O564 1.234 . S
C542 O565 1.283 . S
C543 O555 1.281 . S
C543 O556 1.236 . S
C544 O566 1.240 . S
C544 O567 1.264 . S
O545 Mn540 2.095 . S
O545 C554 1.250 . S
O546 Mn541 2.121 . S
O546 C554 1.258 . S
C547 N548 1.326 . S
C547 C551 1.460 . S
C547 H553 0.929 . S
N548 Mn541 2.257 . S
N548 C547 1.326 . S
N548 C552 1.362 . S
C549 C550 1.258 . S
C549 C552 1.431 . S
C549 C569 1.449 . S
C550 C549 1.258 . S
C550 C551 1.477 . S
C550 H570 0.931 1_554 S
C551 C547 1.460 . S
C551 C550 1.477 . S
C551 H571 0.930 . S
C552 N548 1.362 . S
C552 C549 1.431 . S
C552 C562 1.476 . S
H553 C547 0.929 . S
C554 O545 1.250 . S
C554 O546 1.258 . S
O555 Mn540 2.162 . S
O555 C543 1.281 . S
O556 Mn540 2.297 . S
O556 C543 1.236 . S
N557 Mn541 2.282 . S
N557 C558 1.328 . S
N557 C562 1.318 . S
C558 N557 1.328 . S
C558 C559 1.457 . S
C558 H563 0.929 . S
C559 C558 1.457 . S
C559 C560 1.291 . S
C559 H572 0.931 . S
C560 C559 1.291 . S
C560 C561 1.373 . S
C560 H573 0.929 . S
C561 C560 1.373 . S
C561 C562 1.396 . S
C561 C568 1.403 . S
C562 C552 1.476 . S
C562 N557 1.318 . S
C562 C561 1.396 . S
H563 C558 0.929 . S
O564 Mn540 2.385 . S
O564 C542 1.234 . S
O565 Mn540 2.209 . S
O565 Mn541 2.215 . S
O565 C542 1.283 . S
O566 Mn540 2.094 . S
O566 C544 1.240 . S
O567 Mn541 2.117 . S
O567 C544 1.264 . S
C568 C561 1.403 . S
C568 C569 1.399 . S
C568 H574 0.929 . S
C569 C549 1.449 . S
C569 C568 1.399 . S
C569 H575 0.930 . S
H570 C550 0.931 1_556 S
H571 C551 0.930 . S
H572 C559 0.931 . S
H573 C560 0.929 . S
H574 C568 0.929 . S
H575 C569 0.930 . S
Mn576 O581 2.095 . S
Mn576 O591 2.162 . S
Mn576 O592 2.297 . S
Mn576 O600 2.385 1_545 S
Mn576 O601 2.209 . S
Mn576 O602 2.094 . S
Mn577 O582 2.121 . S
Mn577 N584 2.257 . S
Mn577 N593 2.282 1_545 S
Mn577 O601 2.215 . S
Mn577 O603 2.117 . S
C578 O600 1.234 . S
C578 O601 1.283 1_565 S
C579 O591 1.281 . S
C579 O592 1.236 . S
C580 O602 1.240 . S
C580 O603 1.264 . S
O581 Mn576 2.095 . S
O581 C590 1.250 . S
O582 Mn577 2.121 . S
O582 C590 1.258 . S
C583 N584 1.326 . S
C583 C587 1.460 . S
C583 H589 0.929 . S
N584 Mn577 2.257 . S
N584 C583 1.326 . S
N584 C588 1.362 1_545 S
C585 C586 1.258 . S
C585 C588 1.431 . S
C585 C605 1.449 . S
C586 C585 1.258 . S
C586 C587 1.477 1_565 S
C586 H606 0.931 . S
C587 C583 1.460 . S
C587 C586 1.477 1_545 S
C587 H607 0.930 . S
C588 N584 1.362 1_565 S
C588 C585 1.431 . S
C588 C598 1.476 . S
H589 C583 0.929 . S
C590 O581 1.250 . S
C590 O582 1.258 . S
O591 Mn576 2.162 . S
O591 C579 1.281 . S
O592 Mn576 2.297 . S
O592 C579 1.236 . S
N593 Mn577 2.282 1_565 S
N593 C594 1.328 . S
N593 C598 1.318 . S
C594 N593 1.328 . S
C594 C595 1.457 . S
C594 H599 0.929 . S
C595 C594 1.457 . S
C595 C596 1.291 . S
C595 H608 0.931 . S
C596 C595 1.291 . S
C596 C597 1.373 . S
C596 H609 0.929 . S
C597 C596 1.373 . S
C597 C598 1.396 . S
C597 C604 1.403 . S
C598 C588 1.476 . S
C598 N593 1.318 . S
C598 C597 1.396 . S
H599 C594 0.929 . S
O600 Mn576 2.385 1_565 S
O600 C578 1.234 . S
O601 Mn576 2.209 . S
O601 Mn577 2.215 . S
O601 C578 1.283 1_545 S
O602 Mn576 2.094 . S
O602 C580 1.240 . S
O603 Mn577 2.117 . S
O603 C580 1.264 . S
C604 C597 1.403 . S
C604 C605 1.399 . S
C604 H610 0.929 . S
C605 C585 1.449 . S
C605 C604 1.399 . S
C605 H611 0.930 . S
H606 C586 0.931 . S
H607 C587 0.930 . S
H608 C595 0.931 . S
H609 C596 0.929 . S
H610 C604 0.929 . S
H611 C605 0.930 . S
Mn612 O617 2.095 . S
Mn612 O627 2.162 . S
Mn612 O628 2.297 . S
Mn612 O636 2.385 . S
Mn612 O637 2.209 . S
Mn612 O638 2.094 . S
Mn613 O618 2.121 . S
Mn613 N620 2.257 . S
Mn613 N629 2.282 . S
Mn613 O637 2.215 . S
Mn613 O639 2.117 . S
C614 O636 1.234 . S
C614 O637 1.283 . S
C615 O627 1.281 . S
C615 O628 1.236 . S
C616 O638 1.240 . S
C616 O639 1.264 . S
O617 Mn612 2.095 . S
O617 C626 1.250 . S
O618 Mn613 2.121 . S
O618 C626 1.258 . S
C619 N620 1.326 . S
C619 C623 1.460 . S
C619 H625 0.929 . S
N620 Mn613 2.257 . S
N620 C619 1.326 . S
N620 C624 1.362 . S
C621 C622 1.258 . S
C621 C624 1.431 . S
C621 C641 1.449 . S
C622 C621 1.258 . S
C622 C623 1.477 . S
C622 H642 0.931 1_545 S
C623 C619 1.460 . S
C623 C622 1.477 . S
C623 H643 0.930 . S
C624 N620 1.362 . S
C624 C621 1.431 . S
C624 C634 1.476 . S
H625 C619 0.929 . S
C626 O617 1.250 . S
C626 O618 1.258 . S
O627 Mn612 2.162 . S
O627 C615 1.281 . S
O628 Mn612 2.297 . S
O628 C615 1.236 . S
N629 Mn613 2.282 . S
N629 C630 1.328 . S
N629 C634 1.318 . S
C630 N629 1.328 . S
C630 C631 1.457 . S
C630 H635 0.929 . S
C631 C630 1.457 . S
C631 C632 1.291 . S
C631 H644 0.931 . S
C632 C631 1.291 . S
C632 C633 1.373 . S
C632 H645 0.929 . S
C633 C632 1.373 . S
C633 C634 1.396 . S
C633 C640 1.403 . S
C634 C624 1.476 . S
C634 N629 1.318 . S
C634 C633 1.396 . S
H635 C630 0.929 . S
O636 Mn612 2.385 . S
O636 C614 1.234 . S
O637 Mn612 2.209 . S
O637 Mn613 2.215 . S
O637 C614 1.283 . S
O638 Mn612 2.094 . S
O638 C616 1.240 . S
O639 Mn613 2.117 . S
O639 C616 1.264 . S
C640 C633 1.403 . S
C640 C641 1.399 . S
C640 H646 0.929 . S
C641 C621 1.449 . S
C641 C640 1.399 . S
C641 H647 0.930 . S
H642 C622 0.931 1_565 S
H643 C623 0.930 . S
H644 C631 0.931 . S
H645 C632 0.929 . S
H646 C640 0.929 . S
H647 C641 0.930 . S
Mn648 O653 2.095 1_545 S
Mn648 O663 2.162 1_545 S
Mn648 O664 2.297 . S
Mn648 O672 2.385 . S
Mn648 O673 2.209 . S
Mn648 O674 2.094 . S
Mn649 O654 2.121 1_545 S
Mn649 N656 2.257 . S
Mn649 N665 2.282 . S
Mn649 O673 2.215 . S
Mn649 O675 2.117 . S
C650 O672 1.234 . S
C650 O673 1.283 . S
C651 O663 1.281 1_545 S
C651 O664 1.236 . S
C652 O674 1.240 . S
C652 O675 1.264 . S
O653 Mn648 2.095 1_565 S
O653 C662 1.250 . S
O654 Mn649 2.121 1_565 S
O654 C662 1.258 . S
C655 N656 1.317 1_565 S
C655 C659 1.455 1_565 S
C655 H661 0.943 . S
N656 Mn649 2.257 . S
N656 C655 1.317 1_545 S
N656 C660 1.362 . S
C657 C658 1.258 . S
C657 C660 1.431 . S
C657 C677 1.449 . S
C658 C657 1.258 . S
C658 C659 1.477 . S
C658 H678 0.931 . S
C659 C655 1.455 1_545 S
C659 C658 1.477 . S
C659 H679 0.930 1_545 S
C660 N656 1.362 . S
C660 C657 1.431 . S
C660 C670 1.476 . S
H661 C655 0.943 . S
C662 O653 1.250 . S
C662 O654 1.258 . S
O663 Mn648 2.162 1_565 S
O663 C651 1.281 1_565 S
O664 Mn648 2.297 . S
O664 C651 1.236 . S
N665 Mn649 2.282 . S
N665 C666 1.328 . S
N665 C670 1.318 . S
C666 N665 1.328 . S
C666 C667 1.457 . S
C666 H671 0.929 . S
C667 C666 1.457 . S
C667 C668 1.291 . S
C667 H680 0.931 . S
C668 C667 1.291 . S
C668 C669 1.373 . S
C668 H681 0.929 . S
C669 C668 1.373 . S
C669 C670 1.396 . S
C669 C676 1.403 . S
C670 C660 1.476 . S
C670 N665 1.318 . S
C670 C669 1.396 . S
H671 C666 0.929 . S
O672 Mn648 2.385 . S
O672 C650 1.234 . S
O673 Mn648 2.209 . S
O673 Mn649 2.215 . S
O673 C650 1.283 . S
O674 Mn648 2.094 . S
O674 C652 1.240 . S
O675 Mn649 2.117 . S
O675 C652 1.264 . S
C676 C669 1.403 . S
C676 C677 1.399 . S
C676 H682 0.929 . S
C677 C657 1.449 . S
C677 C676 1.399 . S
C677 H683 0.930 . S
H678 C658 0.931 . S
H679 C659 0.930 1_565 S
H680 C667 0.931 . S
H681 C668 0.929 . S
H682 C676 0.929 . S
H683 C677 0.930 . S
Mn684 O689 2.095 . S
Mn684 O699 2.162 . S
Mn684 O700 2.297 . S
Mn684 O708 2.385 . S
Mn684 O709 2.209 . S
Mn684 O710 2.094 1_554 S
Mn685 O690 2.121 . S
Mn685 N692 2.257 . S
Mn685 N701 2.282 . S
Mn685 O709 2.215 1_556 S
Mn685 O711 2.117 . S
C686 O708 1.234 . S
C686 O709 1.283 . S
C687 O699 1.281 . S
C687 O700 1.236 . S
C688 O710 1.240 . S
C688 O711 1.264 . S
O689 Mn684 2.095 . S
O689 C698 1.250 1_554 S
O690 Mn685 2.121 . S
O690 C698 1.258 . S
C691 N692 1.326 . S
C691 C695 1.460 1_565 S
C691 H697 0.929 . S
N692 Mn685 2.257 . S
N692 C691 1.326 . S
N692 C696 1.362 . S
C693 C694 1.258 1_565 S
C693 C696 1.431 . S
C693 C713 1.457 . S
C694 C693 1.258 1_545 S
C694 C695 1.477 . S
C694 H714 0.931 . S
C695 C691 1.460 1_545 S
C695 C694 1.477 . S
C695 H715 0.930 . S
C696 N692 1.362 . S
C696 C693 1.431 . S
C696 C706 1.476 . S
H697 C691 0.929 . S
C698 O689 1.250 1_556 S
C698 O690 1.258 . S
O699 Mn684 2.162 . S
O699 C687 1.281 . S
O700 Mn684 2.297 . S
O700 C687 1.236 . S
N701 Mn685 2.282 . S
N701 C702 1.328 . S
N701 C706 1.318 . S
C702 N701 1.328 . S
C702 C703 1.457 . S
C702 H707 0.929 . S
C703 C702 1.457 . S
C703 C704 1.291 . S
C703 H716 0.931 . S
C704 C703 1.291 . S
C704 C705 1.373 . S
C704 H717 0.929 . S
C705 C704 1.373 . S
C705 C706 1.396 . S
C705 C712 1.403 . S
C706 C696 1.476 . S
C706 N701 1.318 . S
C706 C705 1.396 . S
H707 C702 0.929 . S
O708 Mn684 2.385 . S
O708 C686 1.234 . S
O709 Mn684 2.209 . S
O709 Mn685 2.215 1_554 S
O709 C686 1.283 . S
O710 Mn684 2.094 1_556 S
O710 C688 1.240 . S
O711 Mn685 2.117 . S
O711 C688 1.264 . S
C712 C705 1.403 . S
C712 C713 1.425 . S
C712 H718 0.929 . S
C713 C693 1.457 . S
C713 C712 1.425 . S
C713 H719 0.896 1_565 S
H714 C694 0.931 . S
H715 C695 0.930 . S
H716 C703 0.931 . S
H717 C704 0.929 . S
H718 C712 0.929 . S
H719 C713 0.896 1_545 S
Mn720 O725 2.087 1_554 S
Mn720 O735 2.162 . S
Mn720 O736 2.297 . S
Mn720 O744 2.385 . S
Mn720 O745 2.209 . S
Mn720 O746 2.094 1_554 S
Mn721 O726 2.121 . S
Mn721 N728 2.257 . S
Mn721 N737 2.282 . S
Mn721 O745 2.211 1_556 S
Mn721 O747 2.117 . S
C722 O744 1.234 . S
C722 O745 1.284 . S
C723 O735 1.281 . S
C723 O736 1.236 . S
C724 O746 1.240 . S
C724 O747 1.264 . S
O725 Mn720 2.087 1_556 S
O725 C734 1.255 . S
O726 Mn721 2.121 . S
O726 C734 1.258 . S
C727 N728 1.326 . S
C727 C731 1.460 . S
C727 H733 0.929 . S
N728 Mn721 2.257 . S
N728 C727 1.326 . S
N728 C732 1.362 . S
C729 C730 1.258 . S
C729 C732 1.431 . S
C729 C749 1.449 . S
C730 C729 1.258 . S
C730 C731 1.477 . S
C730 H750 0.931 . S
C731 C727 1.460 . S
C731 C730 1.477 . S
C731 H751 0.930 . S
C732 N728 1.362 . S
C732 C729 1.431 . S
C732 C742 1.476 . S
H733 C727 0.929 . S
C734 O725 1.255 . S
C734 O726 1.258 . S
O735 Mn720 2.162 . S
O735 C723 1.281 . S
O736 Mn720 2.297 . S
O736 C723 1.236 . S
N737 Mn721 2.282 . S
N737 C738 1.328 . S
N737 C742 1.318 . S
C738 N737 1.328 . S
C738 C739 1.457 . S
C738 H743 0.929 . S
C739 C738 1.457 . S
C739 C740 1.291 . S
C739 H752 0.931 . S
C740 C739 1.291 . S
C740 C741 1.373 . S
C740 H753 0.929 . S
C741 C740 1.373 . S
C741 C742 1.396 . S
C741 C748 1.403 . S
C742 C732 1.476 . S
C742 N737 1.318 . S
C742 C741 1.396 . S
H743 C738 0.929 . S
O744 Mn720 2.385 . S
O744 C722 1.234 . S
O745 Mn720 2.209 . S
O745 Mn721 2.211 1_554 S
O745 C722 1.284 . S
O746 Mn720 2.094 1_556 S
O746 C724 1.240 . S
O747 Mn721 2.117 . S
O747 C724 1.264 . S
C748 C741 1.403 . S
C748 C749 1.399 . S
C748 H754 0.929 . S
C749 C729 1.449 . S
C749 C748 1.399 . S
C749 H755 0.930 . S
H750 C730 0.931 . S
H751 C731 0.930 . S
H752 C739 0.931 . S
H753 C740 0.929 . S
H754 C748 0.929 . S
H755 C749 0.930 . S
Mn756 O761 2.095 . S
Mn756 O771 2.162 . S
Mn756 O772 2.297 . S
Mn756 O780 2.385 . S
Mn756 O781 2.209 . S
Mn756 O782 2.094 . S
Mn757 O762 2.121 . S
Mn757 N764 2.257 . S
Mn757 N773 2.282 . S
Mn757 O781 2.215 . S
Mn757 O783 2.117 . S
C758 O780 1.234 . S
C758 O781 1.283 . S
C759 O771 1.281 . S
C759 O772 1.236 . S
C760 O782 1.240 . S
C760 O783 1.264 . S
O761 Mn756 2.095 . S
O761 C770 1.250 . S
O762 Mn757 2.121 . S
O762 C770 1.258 . S
C763 N764 1.326 . S
C763 C767 1.460 . S
C763 H769 0.929 . S
N764 Mn757 2.257 . S
N764 C763 1.326 . S
N764 C768 1.362 . S
C765 C766 1.258 . S
C765 C768 1.431 . S
C765 C785 1.449 . S
C766 C765 1.258 . S
C766 C767 1.477 . S
C766 H786 0.931 . S
C767 C763 1.460 . S
C767 C766 1.477 . S
C767 H787 0.930 . S
C768 N764 1.362 . S
C768 C765 1.431 . S
C768 C778 1.476 . S
H769 C763 0.929 . S
C770 O761 1.250 . S
C770 O762 1.258 . S
O771 Mn756 2.162 . S
O771 C759 1.281 . S
O772 Mn756 2.297 . S
O772 C759 1.236 . S
N773 Mn757 2.282 . S
N773 C774 1.328 . S
N773 C778 1.318 . S
C774 N773 1.328 . S
C774 C775 1.457 . S
C774 H779 0.929 . S
C775 C774 1.457 . S
C775 C776 1.291 . S
C775 H788 0.931 . S
C776 C775 1.291 . S
C776 C777 1.373 . S
C776 H789 0.929 . S
C777 C776 1.373 . S
C777 C778 1.396 . S
C777 C784 1.403 . S
C778 C768 1.476 . S
C778 N773 1.318 . S
C778 C777 1.396 . S
H779 C774 0.929 . S
O780 Mn756 2.385 . S
O780 C758 1.234 . S
O781 Mn756 2.209 . S
O781 Mn757 2.215 . S
O781 C758 1.283 . S
O782 Mn756 2.094 . S
O782 C760 1.240 . S
O783 Mn757 2.117 . S
O783 C760 1.264 . S
C784 C777 1.403 . S
C784 C785 1.399 . S
C784 H790 0.929 . S
C785 C765 1.449 . S
C785 C784 1.399 . S
C785 H791 0.930 . S
H786 C766 0.931 . S
H787 C767 0.930 . S
H788 C775 0.931 . S
H789 C776 0.929 . S
H790 C784 0.929 . S
H791 C785 0.930 . S
Mn792 O797 2.095 . S
Mn792 O807 2.162 . S
Mn792 O808 2.297 . S
Mn792 O816 2.385 . S
Mn792 O817 2.209 . S
Mn792 O818 2.094 . S
Mn793 O798 2.121 . S
Mn793 N800 2.257 . S
Mn793 N809 2.282 . S
Mn793 O817 2.215 . S
Mn793 O819 2.117 . S
C794 O816 1.234 . S
C794 O817 1.283 . S
C795 O807 1.281 . S
C795 O808 1.236 . S
C796 O818 1.240 . S
C796 O819 1.264 . S
O797 Mn792 2.095 . S
O797 C806 1.250 . S
O798 Mn793 2.121 . S
O798 C806 1.258 . S
C799 N800 1.326 . S
C799 C803 1.460 . S
C799 H805 0.929 . S
N800 Mn793 2.257 . S
N800 C799 1.326 . S
N800 C804 1.362 . S
C801 C802 1.258 . S
C801 C804 1.431 . S
C801 C821 1.449 . S
C802 C801 1.258 . S
C802 C803 1.477 . S
C802 H822 0.931 . S
C803 C799 1.460 . S
C803 C802 1.477 . S
C803 H823 0.930 . S
C804 N800 1.362 . S
C804 C801 1.431 . S
C804 C814 1.476 . S
H805 C799 0.929 . S
C806 O797 1.250 . S
C806 O798 1.258 . S
O807 Mn792 2.162 . S
O807 C795 1.281 . S
O808 Mn792 2.297 . S
O808 C795 1.236 . S
N809 Mn793 2.282 . S
N809 C810 1.328 . S
N809 C814 1.318 . S
C810 N809 1.328 . S
C810 C811 1.457 . S
C810 H815 0.929 . S
C811 C810 1.457 . S
C811 C812 1.291 . S
C811 H824 0.931 . S
C812 C811 1.291 . S
C812 C813 1.373 . S
C812 H825 0.929 . S
C813 C812 1.373 . S
C813 C814 1.396 . S
C813 C820 1.403 . S
C814 C804 1.476 . S
C814 N809 1.318 . S
C814 C813 1.396 . S
H815 C810 0.929 . S
O816 Mn792 2.385 . S
O816 C794 1.234 . S
O817 Mn792 2.209 . S
O817 Mn793 2.215 . S
O817 C794 1.283 . S
O818 Mn792 2.094 . S
O818 C796 1.240 . S
O819 Mn793 2.117 . S
O819 C796 1.264 . S
C820 C813 1.403 . S
C820 C821 1.399 . S
C820 H826 0.929 . S
C821 C801 1.449 . S
C821 C820 1.399 . S
C821 H827 0.930 . S
H822 C802 0.931 . S
H823 C803 0.930 . S
H824 C811 0.931 . S
H825 C812 0.929 . S
H826 C820 0.929 . S
H827 C821 0.930 . S
Mn828 O833 2.095 . S
Mn828 O843 2.162 . S
Mn828 O844 2.297 . S
Mn828 O852 2.385 . S
Mn828 O853 2.209 . S
Mn828 O854 2.094 . S
Mn829 O834 2.121 . S
Mn829 N836 2.257 . S
Mn829 N845 2.282 . S
Mn829 O853 2.215 . S
Mn829 O855 2.117 . S
C830 O852 1.234 . S
C830 O853 1.283 . S
C831 O843 1.281 . S
C831 O844 1.236 . S
C832 O854 1.240 . S
C832 O855 1.264 . S
O833 Mn828 2.095 . S
O833 C842 1.250 . S
O834 Mn829 2.121 . S
O834 C842 1.258 . S
C835 N836 1.326 . S
C835 C839 1.460 . S
C835 H841 0.929 . S
N836 Mn829 2.257 . S
N836 C835 1.326 . S
N836 C840 1.362 . S
C837 C838 1.258 . S
C837 C840 1.431 . S
C837 C857 1.449 . S
C838 C837 1.258 . S
C838 C839 1.477 . S
C838 H858 0.931 . S
C839 C835 1.460 . S
C839 C838 1.477 . S
C839 H859 0.930 . S
C840 N836 1.362 . S
C840 C837 1.431 . S
C840 C850 1.476 . S
H841 C835 0.929 . S
C842 O833 1.250 . S
C842 O834 1.258 . S
O843 Mn828 2.162 . S
O843 C831 1.281 . S
O844 Mn828 2.297 . S
O844 C831 1.236 . S
N845 Mn829 2.282 . S
N845 C846 1.328 . S
N845 C850 1.318 . S
C846 N845 1.328 . S
C846 C847 1.457 . S
C846 H851 0.929 . S
C847 C846 1.457 . S
C847 C848 1.291 . S
C847 H860 0.931 . S
C848 C847 1.291 . S
C848 C849 1.373 . S
C848 H861 0.929 . S
C849 C848 1.373 . S
C849 C850 1.396 . S
C849 C856 1.403 . S
C850 C840 1.476 . S
C850 N845 1.318 . S
C850 C849 1.396 . S
H851 C846 0.929 . S
O852 Mn828 2.385 . S
O852 C830 1.234 . S
O853 Mn828 2.209 . S
O853 Mn829 2.215 . S
O853 C830 1.283 . S
O854 Mn828 2.094 . S
O854 C832 1.240 . S
O855 Mn829 2.117 . S
O855 C832 1.264 . S
C856 C849 1.403 . S
C856 C857 1.399 . S
C856 H862 0.929 . S
C857 C837 1.449 . S
C857 C856 1.399 . S
C857 H863 0.930 . S
H858 C838 0.931 . S
H859 C839 0.930 . S
H860 C847 0.931 . S
H861 C848 0.929 . S
H862 C856 0.929 . S
H863 C857 0.930 . S
O864 Zn865 1.953 . S
O864 C880 1.225 1_455 S
Zn865 O864 1.953 . S
Zn865 O866 1.949 . S
Zn865 O872 1.920 . S
Zn865 O877 1.906 1_454 S
O866 Zn865 1.949 . S
O866 Zn867 1.923 1_545 S
O866 Zn868 1.950 1_455 S
O866 Zn869 1.945 1_444 S
Zn867 O866 1.923 1_565 S
Zn867 O870 1.933 . S
Zn867 O873 1.941 1_565 S
Zn867 O874 1.965 . S
Zn868 O866 1.950 1_655 S
Zn868 O875 1.957 . S
Zn868 O876 1.906 1_545 S
Zn868 O886 1.953 . S
Zn869 O866 1.945 1_666 S
Zn869 O871 1.932 . S
Zn869 O878 1.977 1_556 S
Zn869 O879 1.910 1_565 S
O870 Zn867 1.933 . S
O870 C881 1.226 1_554 S
O871 Zn869 1.932 . S
O871 C881 1.307 1_655 S
O872 Zn865 1.920 . S
O872 C883 1.255 . S
O873 Zn867 1.941 1_545 S
O873 C883 1.283 . S
O874 Zn867 1.965 . S
O874 C882 1.303 1_565 S
O875 Zn868 1.957 . S
O875 C882 1.213 1_655 S
O876 Zn868 1.906 1_565 S
O876 C884 1.304 . S
O877 Zn865 1.906 1_656 S
O877 C885 1.340 . S
O878 Zn869 1.977 1_554 S
O878 C884 1.272 . S
O879 Zn869 1.910 1_545 S
O879 C885 1.231 . S
C880 O864 1.225 1_655 S
C880 O886 1.298 . S
C881 O870 1.226 1_556 S
C881 O871 1.307 1_455 S
C882 O874 1.303 1_545 S
C882 O875 1.213 1_455 S
C883 O872 1.255 . S
C883 O873 1.283 . S
C884 O876 1.304 . S
C884 O878 1.272 . S
C885 O877 1.340 . S
C885 O879 1.231 . S
O886 Zn868 1.953 . S
O886 C880 1.298 . S
O887 Zn888 1.953 . S
O887 C903 1.225 . S
Zn888 O887 1.953 . S
Zn888 O889 1.949 . S
Zn888 O895 1.919 . S
Zn888 O900 1.924 . S
O889 Zn888 1.949 . S
O889 Zn890 1.923 . S
O889 Zn891 1.950 . S
O889 Zn892 1.945 . S
Zn890 O889 1.923 . S
Zn890 O893 1.933 . S
Zn890 O896 1.941 . S
Zn890 O897 1.965 . S
Zn891 O889 1.950 . S
Zn891 O898 1.938 . S
Zn891 O899 1.906 . S
Zn891 O909 1.953 . S
Zn892 O889 1.945 . S
Zn892 O894 1.932 . S
Zn892 O901 1.977 . S
Zn892 O902 1.910 . S
O893 Zn890 1.933 . S
O893 C904 1.226 . S
O894 Zn892 1.932 . S
O894 C904 1.307 . S
O895 Zn888 1.919 . S
O895 C906 1.253 . S
O896 Zn890 1.941 . S
O896 C906 1.283 . S
O897 Zn890 1.965 . S
O897 C905 1.303 . S
O898 Zn891 1.938 . S
O898 C905 1.247 . S
O899 Zn891 1.906 . S
O899 C907 1.304 . S
O900 Zn888 1.924 . S
O900 C908 1.311 . S
O901 Zn892 1.977 . S
O901 C907 1.272 . S
O902 Zn892 1.910 . S
O902 C908 1.231 . S
C903 O887 1.225 . S
C903 O909 1.298 . S
C904 O893 1.226 . S
C904 O894 1.307 . S
C905 O897 1.303 . S
C905 O898 1.247 . S
C906 O895 1.253 . S
C906 O896 1.283 . S
C907 O899 1.304 . S
C907 O901 1.272 . S
C908 O900 1.311 . S
C908 O902 1.231 . S
O909 Zn891 1.953 . S
O909 C903 1.298 . S
O910 Zn911 1.953 . S
O910 C926 1.225 . S
Zn911 O910 1.953 . S
Zn911 O912 1.949 1_565 S
Zn911 O918 1.919 . S
Zn911 O923 1.924 . S
O912 Zn911 1.949 1_545 S
O912 Zn913 1.923 . S
O912 Zn914 1.950 . S
O912 Zn915 1.945 . S
Zn913 O912 1.923 . S
Zn913 O916 1.933 . S
Zn913 O919 1.941 . S
Zn913 O920 1.965 . S
Zn914 O912 1.950 . S
Zn914 O921 1.938 . S
Zn914 O922 1.906 . S
Zn914 O932 1.953 1_545 S
Zn915 O912 1.945 . S
Zn915 O917 1.932 . S
Zn915 O924 1.977 . S
Zn915 O925 1.910 . S
O916 Zn913 1.933 . S
O916 C927 1.226 . S
O917 Zn915 1.932 . S
O917 C927 1.307 . S
O918 Zn911 1.919 . S
O918 C929 1.253 . S
O919 Zn913 1.941 . S
O919 C929 1.283 1_545 S
O920 Zn913 1.965 . S
O920 C928 1.303 . S
O921 Zn914 1.938 . S
O921 C928 1.247 . S
O922 Zn914 1.906 . S
O922 C930 1.304 . S
O923 Zn911 1.924 . S
O923 C931 1.311 . S
O924 Zn915 1.977 . S
O924 C930 1.272 . S
O925 Zn915 1.910 . S
O925 C931 1.231 1_545 S
C926 O910 1.225 . S
C926 O932 1.298 . S
C927 O916 1.226 . S
C927 O917 1.307 . S
C928 O920 1.303 . S
C928 O921 1.247 . S
C929 O918 1.253 . S
C929 O919 1.283 1_565 S
C930 O922 1.304 . S
C930 O924 1.272 . S
C931 O923 1.311 . S
C931 O925 1.231 1_565 S
O932 Zn914 1.953 1_565 S
O932 C926 1.298 . S
O933 Zn934 1.953 . S
O933 C949 1.225 . S
Zn934 O933 1.953 . S
Zn934 O935 1.949 . S
Zn934 O941 1.919 . S
Zn934 O946 1.924 . S
O935 Zn934 1.949 . S
O935 Zn936 1.923 . S
O935 Zn937 1.950 . S
O935 Zn938 1.945 . S
Zn936 O935 1.923 . S
Zn936 O939 1.933 . S
Zn936 O942 1.941 . S
Zn936 O943 1.965 . S
Zn937 O935 1.950 . S
Zn937 O944 1.938 . S
Zn937 O945 1.906 . S
Zn937 O955 1.953 . S
Zn938 O935 1.945 . S
Zn938 O940 1.932 . S
Zn938 O947 1.977 . S
Zn938 O948 1.910 . S
O939 Zn936 1.933 . S
O939 C950 1.226 . S
O940 Zn938 1.932 . S
O940 C950 1.307 . S
O941 Zn934 1.919 . S
O941 C952 1.253 . S
O942 Zn936 1.941 . S
O942 C952 1.283 . S
O943 Zn936 1.965 . S
O943 C951 1.303 . S
O944 Zn937 1.938 . S
O944 C951 1.247 . S
O945 Zn937 1.906 . S
O945 C953 1.304 . S
O946 Zn934 1.924 . S
O946 C954 1.311 . S
O947 Zn938 1.977 . S
O947 C953 1.272 . S
O948 Zn938 1.910 . S
O948 C954 1.231 . S
C949 O933 1.225 . S
C949 O955 1.298 . S
C950 O939 1.226 . S
C950 O940 1.307 . S
C951 O943 1.303 . S
C951 O944 1.247 . S
C952 O941 1.253 . S
C952 O942 1.283 . S
C953 O945 1.304 . S
C953 O947 1.272 . S
C954 O946 1.311 . S
C954 O948 1.231 . S
O955 Zn937 1.953 . S
O955 C949 1.298 . S
O956 Zn957 1.953 1_455 S
O956 C972 1.225 . S
Zn957 O956 1.953 1_655 S
Zn957 O958 1.949 1_655 S
Zn957 O964 1.919 1_545 S
Zn957 O969 1.924 . S
O958 Zn957 1.949 1_455 S
O958 Zn959 1.923 1_545 S
O958 Zn960 1.950 . S
O958 Zn961 1.945 1_455 S
Zn959 O958 1.923 1_565 S
Zn959 O962 1.933 . S
Zn959 O965 1.941 . S
Zn959 O966 1.965 . S
Zn960 O958 1.950 . S
Zn960 O967 1.938 . S
Zn960 O968 1.906 . S
Zn960 O978 1.953 . S
Zn961 O958 1.945 1_655 S
Zn961 O963 1.932 . S
Zn961 O970 1.977 1_655 S
Zn961 O971 1.910 . S
O962 Zn959 1.933 . S
O962 C973 1.226 1_455 S
O963 Zn961 1.932 . S
O963 C973 1.307 1_545 S
O964 Zn957 1.919 1_565 S
O964 C975 1.253 . S
O965 Zn959 1.941 . S
O965 C975 1.283 1_455 S
O966 Zn959 1.965 . S
O966 C974 1.303 . S
O967 Zn960 1.938 . S
O967 C974 1.247 1_545 S
O968 Zn960 1.906 . S
O968 C976 1.304 . S
O969 Zn957 1.924 . S
O969 C977 1.311 . S
O970 Zn961 1.977 1_455 S
O970 C976 1.272 . S
O971 Zn961 1.910 . S
O971 C977 1.231 . S
C972 O956 1.225 . S
C972 O978 1.298 . S
C973 O962 1.226 1_655 S
C973 O963 1.307 1_565 S
C974 O966 1.303 . S
C974 O967 1.247 1_565 S
C975 O964 1.253 . S
C975 O965 1.283 1_655 S
C976 O968 1.304 . S
C976 O970 1.272 . S
C977 O969 1.311 . S
C977 O971 1.231 . S
O978 Zn960 1.953 . S
O978 C972 1.298 . S
O979 Zn980 1.953 . S
O979 C995 1.225 . S
Zn980 O979 1.953 . S
Zn980 O981 1.949 . S
Zn980 O987 1.919 . S
Zn980 O992 1.924 . S
O981 Zn980 1.949 . S
O981 Zn982 1.923 . S
O981 Zn983 1.950 . S
O981 Zn984 1.945 . S
Zn982 O981 1.923 . S
Zn982 O985 1.933 . S
Zn982 O988 1.941 . S
Zn982 O989 1.965 . S
Zn983 O981 1.950 . S
Zn983 O990 1.938 . S
Zn983 O991 1.906 . S
Zn983 O1001 1.953 . S
Zn984 O981 1.945 . S
Zn984 O986 1.932 . S
Zn984 O993 1.977 . S
Zn984 O994 1.910 . S
O985 Zn982 1.933 . S
O985 C996 1.226 . S
O986 Zn984 1.932 . S
O986 C996 1.307 . S
O987 Zn980 1.919 . S
O987 C998 1.253 . S
O988 Zn982 1.941 . S
O988 C998 1.283 . S
O989 Zn982 1.965 . S
O989 C997 1.303 . S
O990 Zn983 1.938 . S
O990 C997 1.247 . S
O991 Zn983 1.906 . S
O991 C999 1.304 . S
O992 Zn980 1.924 . S
O992 C1000 1.311 . S
O993 Zn984 1.977 . S
O993 C999 1.272 . S
O994 Zn984 1.910 . S
O994 C1000 1.231 . S
C995 O979 1.225 . S
C995 O1001 1.298 . S
C996 O985 1.226 . S
C996 O986 1.307 . S
C997 O989 1.303 . S
C997 O990 1.247 . S
C998 O987 1.253 . S
C998 O988 1.283 . S
C999 O991 1.304 . S
C999 O993 1.272 . S
C1000 O992 1.311 . S
C1000 O994 1.231 . S
O1001 Zn983 1.953 . S
O1001 C995 1.298 . S
O1002 Zn1003 1.953 . S
O1002 C1018 1.225 . S
Zn1003 O1002 1.953 . S
Zn1003 O1004 1.949 . S
Zn1003 O1010 1.932 . S
Zn1003 O1015 1.924 . S
O1004 Zn1003 1.949 . S
O1004 Zn1005 1.912 1_544 S
O1004 Zn1006 1.950 . S
O1004 Zn1007 1.945 1_554 S
Zn1005 O1004 1.912 1_566 S
Zn1005 O1008 1.957 . S
Zn1005 O1011 1.944 . S
Zn1005 O1012 1.950 1_556 S
Zn1006 O1004 1.950 . S
Zn1006 O1013 1.938 1_545 S
Zn1006 O1014 1.906 . S
Zn1006 O1024 1.953 . S
Zn1007 O1004 1.945 1_556 S
Zn1007 O1009 1.932 . S
Zn1007 O1016 1.977 1_556 S
Zn1007 O1017 1.910 . S
O1008 Zn1005 1.957 . S
O1008 C1019 1.226 . S
O1009 Zn1007 1.932 . S
O1009 C1019 1.307 1_545 S
O1010 Zn1003 1.932 . S
O1010 C1021 1.233 1_544 S
O1011 Zn1005 1.944 . S
O1011 C1021 1.283 . S
O1012 Zn1005 1.950 1_554 S
O1012 C1020 1.303 . S
O1013 Zn1006 1.938 1_565 S
O1013 C1020 1.247 . S
O1014 Zn1006 1.906 . S
O1014 C1022 1.304 . S
O1015 Zn1003 1.924 . S
O1015 C1023 1.313 . S
O1016 Zn1007 1.977 1_554 S
O1016 C1022 1.272 . S
O1017 Zn1007 1.910 . S
O1017 C1023 1.229 1_556 S
C1018 O1002 1.225 . S
C1018 O1024 1.298 . S
C1019 O1008 1.226 . S
C1019 O1009 1.307 1_565 S
C1020 O1012 1.303 . S
C1020 O1013 1.247 . S
C1021 O1010 1.233 1_566 S
C1021 O1011 1.283 . S
C1022 O1014 1.304 . S
C1022 O1016 1.272 . S
C1023 O1015 1.313 . S
C1023 O1017 1.229 1_554 S
O1024 Zn1006 1.953 . S
O1024 C1018 1.298 . S
O1025 Zn1026 1.953 . S
O1025 C1041 1.225 . S
Zn1026 O1025 1.953 . S
Zn1026 O1027 1.949 . S
Zn1026 O1033 1.919 . S
Zn1026 O1038 1.924 . S
O1027 Zn1026 1.949 . S
O1027 Zn1028 1.923 . S
O1027 Zn1029 1.950 . S
O1027 Zn1030 1.945 . S
Zn1028 O1027 1.923 . S
Zn1028 O1031 1.933 . S
Zn1028 O1034 1.941 . S
Zn1028 O1035 1.965 . S
Zn1029 O1027 1.950 . S
Zn1029 O1036 1.938 . S
Zn1029 O1037 1.906 . S
Zn1029 O1047 1.953 . S
Zn1030 O1027 1.945 . S
Zn1030 O1032 1.932 . S
Zn1030 O1039 1.977 . S
Zn1030 O1040 1.910 . S
O1031 Zn1028 1.933 . S
O1031 C1042 1.226 . S
O1032 Zn1030 1.932 . S
O1032 C1042 1.307 . S
O1033 Zn1026 1.919 . S
O1033 C1044 1.253 . S
O1034 Zn1028 1.941 . S
O1034 C1044 1.283 . S
O1035 Zn1028 1.965 . S
O1035 C1043 1.303 . S
O1036 Zn1029 1.938 . S
O1036 C1043 1.247 . S
O1037 Zn1029 1.906 . S
O1037 C1045 1.304 . S
O1038 Zn1026 1.924 . S
O1038 C1046 1.311 . S
O1039 Zn1030 1.977 . S
O1039 C1045 1.272 . S
O1040 Zn1030 1.910 . S
O1040 C1046 1.231 . S
C1041 O1025 1.225 . S
C1041 O1047 1.298 . S
C1042 O1031 1.226 . S
C1042 O1032 1.307 . S
C1043 O1035 1.303 . S
C1043 O1036 1.247 . S
C1044 O1033 1.253 . S
C1044 O1034 1.283 . S
C1045 O1037 1.304 . S
C1045 O1039 1.272 . S
C1046 O1038 1.311 . S
C1046 O1040 1.231 . S
O1047 Zn1029 1.953 . S
O1047 C1041 1.298 . S
O1048 Zn1049 1.953 . S
O1048 C1064 1.225 . S
Zn1049 O1048 1.953 . S
Zn1049 O1050 1.949 1_556 S
Zn1049 O1056 1.919 . S
Zn1049 O1061 1.924 . S
O1050 Zn1049 1.949 1_554 S
O1050 Zn1051 1.923 . S
O1050 Zn1052 1.950 . S
O1050 Zn1053 1.945 . S
Zn1051 O1050 1.923 . S
Zn1051 O1054 1.933 . S
Zn1051 O1057 1.941 . S
Zn1051 O1058 1.965 . S
Zn1052 O1050 1.950 . S
Zn1052 O1059 1.938 . S
Zn1052 O1060 1.906 . S
Zn1052 O1070 1.953 1_554 S
Zn1053 O1050 1.945 . S
Zn1053 O1055 1.932 . S
Zn1053 O1062 1.977 . S
Zn1053 O1063 1.910 . S
O1054 Zn1051 1.933 . S
O1054 C1065 1.226 . S
O1055 Zn1053 1.932 . S
O1055 C1065 1.307 . S
O1056 Zn1049 1.919 . S
O1056 C1067 1.231 1_556 S
O1057 Zn1051 1.941 . S
O1057 C1067 1.304 . S
O1058 Zn1051 1.965 . S
O1058 C1066 1.303 . S
O1059 Zn1052 1.938 . S
O1059 C1066 1.247 . S
O1060 Zn1052 1.906 . S
O1060 C1068 1.304 . S
O1061 Zn1049 1.924 . S
O1061 C1069 1.311 . S
O1062 Zn1053 1.977 . S
O1062 C1068 1.272 . S
O1063 Zn1053 1.910 . S
O1063 C1069 1.231 1_554 S
C1064 O1048 1.225 . S
C1064 O1070 1.298 . S
C1065 O1054 1.226 . S
C1065 O1055 1.307 . S
C1066 O1058 1.303 . S
C1066 O1059 1.247 . S
C1067 O1056 1.231 1_554 S
C1067 O1057 1.304 . S
C1068 O1060 1.304 . S
C1068 O1062 1.272 . S
C1069 O1061 1.311 . S
C1069 O1063 1.231 1_556 S
O1070 Zn1052 1.953 1_556 S
O1070 C1064 1.298 . S
O1071 Zn1072 1.953 . S
O1071 C1087 1.225 . S
Zn1072 O1071 1.953 . S
Zn1072 O1073 1.949 . S
Zn1072 O1079 1.919 . S
Zn1072 O1084 1.924 . S
O1073 Zn1072 1.949 . S
O1073 Zn1074 1.923 . S
O1073 Zn1075 1.950 . S
O1073 Zn1076 1.945 . S
Zn1074 O1073 1.923 . S
Zn1074 O1077 1.933 . S
Zn1074 O1080 1.941 . S
Zn1074 O1081 1.965 . S
Zn1075 O1073 1.950 . S
Zn1075 O1082 1.938 . S
Zn1075 O1083 1.906 . S
Zn1075 O1093 1.953 . S
Zn1076 O1073 1.945 . S
Zn1076 O1078 1.932 . S
Zn1076 O1085 1.977 . S
Zn1076 O1086 1.910 . S
O1077 Zn1074 1.933 . S
O1077 C1088 1.226 . S
O1078 Zn1076 1.932 . S
O1078 C1088 1.307 . S
O1079 Zn1072 1.919 . S
O1079 C1090 1.253 . S
O1080 Zn1074 1.941 . S
O1080 C1090 1.283 . S
O1081 Zn1074 1.965 . S
O1081 C1089 1.303 . S
O1082 Zn1075 1.938 . S
O1082 C1089 1.247 . S
O1083 Zn1075 1.906 . S
O1083 C1091 1.304 . S
O1084 Zn1072 1.924 . S
O1084 C1092 1.311 . S
O1085 Zn1076 1.977 . S
O1085 C1091 1.272 . S
O1086 Zn1076 1.910 . S
O1086 C1092 1.231 . S
C1087 O1071 1.225 . S
C1087 O1093 1.298 . S
C1088 O1077 1.226 . S
C1088 O1078 1.307 . S
C1089 O1081 1.303 . S
C1089 O1082 1.247 . S
C1090 O1079 1.253 . S
C1090 O1080 1.283 . S
C1091 O1083 1.304 . S
C1091 O1085 1.272 . S
C1092 O1084 1.311 . S
C1092 O1086 1.231 . S
O1093 Zn1075 1.953 . S
O1093 C1087 1.298 . S
O1094 Zn1095 1.953 . S
O1094 C1110 1.225 . S
Zn1095 O1094 1.953 . S
Zn1095 O1096 1.934 1_455 S
Zn1095 O1102 1.919 . S
Zn1095 O1107 1.924 . S
O1096 Zn1095 1.934 1_655 S
O1096 Zn1097 1.921 1_655 S
O1096 Zn1098 1.958 . S
O1096 Zn1099 1.951 . S
Zn1097 O1096 1.921 1_455 S
Zn1097 O1100 1.917 1_455 S
Zn1097 O1103 1.982 . S
Zn1097 O1104 1.951 1_455 S
Zn1098 O1096 1.958 . S
Zn1098 O1105 1.938 . S
Zn1098 O1106 1.906 . S
Zn1098 O1116 1.964 . S
Zn1099 O1096 1.951 . S
Zn1099 O1101 1.932 . S
Zn1099 O1108 1.977 . S
Zn1099 O1109 1.902 1_655 S
O1100 Zn1097 1.917 1_655 S
O1100 C1111 1.226 . S
O1101 Zn1099 1.932 . S
O1101 C1111 1.307 . S
O1102 Zn1095 1.919 . S
O1102 C1113 1.253 . S
O1103 Zn1097 1.982 . S
O1103 C1113 1.283 . S
O1104 Zn1097 1.951 1_655 S
O1104 C1112 1.303 . S
O1105 Zn1098 1.938 . S
O1105 C1112 1.247 . S
O1106 Zn1098 1.906 . S
O1106 C1114 1.304 . S
O1107 Zn1095 1.924 . S
O1107 C1115 1.311 . S
O1108 Zn1099 1.977 . S
O1108 C1114 1.272 . S
O1109 Zn1099 1.902 1_455 S
O1109 C1115 1.246 . S
C1110 O1094 1.225 . S
C1110 O1116 1.279 1_455 S
C1111 O1100 1.226 . S
C1111 O1101 1.307 . S
C1112 O1104 1.303 . S
C1112 O1105 1.247 . S
C1113 O1102 1.253 . S
C1113 O1103 1.283 . S
C1114 O1106 1.304 . S
C1114 O1108 1.272 . S
C1115 O1107 1.311 . S
C1115 O1109 1.246 . S
O1116 Zn1098 1.964 . S
O1116 C1110 1.279 1_655 S
O1117 Zn1118 1.953 . S
O1117 C1133 1.225 . S
Zn1118 O1117 1.953 . S
Zn1118 O1119 1.949 . S
Zn1118 O1125 1.919 . S
Zn1118 O1130 1.924 . S
O1119 Zn1118 1.949 . S
O1119 Zn1120 1.923 . S
O1119 Zn1121 1.950 . S
O1119 Zn1122 1.945 . S
Zn1120 O1119 1.923 . S
Zn1120 O1123 1.933 . S
Zn1120 O1126 1.941 . S
Zn1120 O1127 1.965 . S
Zn1121 O1119 1.950 . S
Zn1121 O1128 1.938 . S
Zn1121 O1129 1.906 . S
Zn1121 O1139 1.953 . S
Zn1122 O1119 1.945 . S
Zn1122 O1124 1.932 . S
Zn1122 O1131 1.977 . S
Zn1122 O1132 1.910 . S
O1123 Zn1120 1.933 . S
O1123 C1134 1.226 . S
O1124 Zn1122 1.932 . S
O1124 C1134 1.307 . S
O1125 Zn1118 1.919 . S
O1125 C1136 1.253 . S
O1126 Zn1120 1.941 . S
O1126 C1136 1.283 . S
O1127 Zn1120 1.965 . S
O1127 C1135 1.303 . S
O1128 Zn1121 1.938 . S
O1128 C1135 1.247 . S
O1129 Zn1121 1.906 . S
O1129 C1137 1.304 . S
O1130 Zn1118 1.924 . S
O1130 C1138 1.311 . S
O1131 Zn1122 1.977 . S
O1131 C1137 1.272 . S
O1132 Zn1122 1.910 . S
O1132 C1138 1.231 . S
C1133 O1117 1.225 . S
C1133 O1139 1.298 . S
C1134 O1123 1.226 . S
C1134 O1124 1.307 . S
C1135 O1127 1.303 . S
C1135 O1128 1.247 . S
C1136 O1125 1.253 . S
C1136 O1126 1.283 . S
C1137 O1129 1.304 . S
C1137 O1131 1.272 . S
C1138 O1130 1.311 . S
C1138 O1132 1.231 . S
O1139 Zn1121 1.953 . S
O1139 C1133 1.298 . S
O1140 Zn1141 1.953 . S
O1140 C1156 1.225 . S
Zn1141 O1140 1.953 . S
Zn1141 O1142 1.949 . S
Zn1141 O1148 1.919 . S
Zn1141 O1153 1.924 . S
O1142 Zn1141 1.949 . S
O1142 Zn1143 1.923 . S
O1142 Zn1144 1.950 . S
O1142 Zn1145 1.945 . S
Zn1143 O1142 1.923 . S
Zn1143 O1146 1.933 . S
Zn1143 O1149 1.941 . S
Zn1143 O1150 1.965 . S
Zn1144 O1142 1.950 . S
Zn1144 O1151 1.938 . S
Zn1144 O1152 1.906 . S
Zn1144 O1162 1.953 . S
Zn1145 O1142 1.945 . S
Zn1145 O1147 1.932 . S
Zn1145 O1154 1.977 . S
Zn1145 O1155 1.910 . S
O1146 Zn1143 1.933 . S
O1146 C1157 1.226 . S
O1147 Zn1145 1.932 . S
O1147 C1157 1.307 . S
O1148 Zn1141 1.919 . S
O1148 C1159 1.253 . S
O1149 Zn1143 1.941 . S
O1149 C1159 1.283 . S
O1150 Zn1143 1.965 . S
O1150 C1158 1.303 . S
O1151 Zn1144 1.938 . S
O1151 C1158 1.247 . S
O1152 Zn1144 1.906 . S
O1152 C1160 1.304 . S
O1153 Zn1141 1.924 . S
O1153 C1161 1.311 . S
O1154 Zn1145 1.977 . S
O1154 C1160 1.272 . S
O1155 Zn1145 1.910 . S
O1155 C1161 1.231 . S
C1156 O1140 1.225 . S
C1156 O1162 1.298 . S
C1157 O1146 1.226 . S
C1157 O1147 1.307 . S
C1158 O1150 1.303 . S
C1158 O1151 1.247 . S
C1159 O1148 1.253 . S
C1159 O1149 1.283 . S
C1160 O1152 1.304 . S
C1160 O1154 1.272 . S
C1161 O1153 1.311 . S
C1161 O1155 1.231 . S
O1162 Zn1144 1.953 . S
O1162 C1156 1.298 . S
O1163 Zn1164 1.953 . S
O1163 C1179 1.225 . S
Zn1164 O1163 1.953 . S
Zn1164 O1165 1.949 . S
Zn1164 O1171 1.919 . S
Zn1164 O1176 1.924 . S
O1165 Zn1164 1.949 . S
O1165 Zn1166 1.923 . S
O1165 Zn1167 1.950 . S
O1165 Zn1168 1.945 . S
Zn1166 O1165 1.923 . S
Zn1166 O1169 1.933 . S
Zn1166 O1172 1.941 . S
Zn1166 O1173 1.965 . S
Zn1167 O1165 1.950 . S
Zn1167 O1174 1.938 . S
Zn1167 O1175 1.906 . S
Zn1167 O1185 1.953 . S
Zn1168 O1165 1.945 . S
Zn1168 O1170 1.932 . S
Zn1168 O1177 1.977 . S
Zn1168 O1178 1.910 . S
O1169 Zn1166 1.933 . S
O1169 C1180 1.226 . S
O1170 Zn1168 1.932 . S
O1170 C1180 1.307 . S
O1171 Zn1164 1.919 . S
O1171 C1182 1.253 . S
O1172 Zn1166 1.941 . S
O1172 C1182 1.283 . S
O1173 Zn1166 1.965 . S
O1173 C1181 1.303 . S
O1174 Zn1167 1.938 . S
O1174 C1181 1.247 . S
O1175 Zn1167 1.906 . S
O1175 C1183 1.304 . S
O1176 Zn1164 1.924 . S
O1176 C1184 1.311 . S
O1177 Zn1168 1.977 . S
O1177 C1183 1.272 . S
O1178 Zn1168 1.910 . S
O1178 C1184 1.231 . S
C1179 O1163 1.225 . S
C1179 O1185 1.298 . S
C1180 O1169 1.226 . S
C1180 O1170 1.307 . S
C1181 O1173 1.303 . S
C1181 O1174 1.247 . S
C1182 O1171 1.253 . S
C1182 O1172 1.283 . S
C1183 O1175 1.304 . S
C1183 O1177 1.272 . S
C1184 O1176 1.311 . S
C1184 O1178 1.231 . S
O1185 Zn1167 1.953 . S
O1185 C1179 1.298 . S
O1186 Zn1187 1.953 . S
O1186 C1202 1.225 . S
Zn1187 O1186 1.953 . S
Zn1187 O1188 1.949 . S
Zn1187 O1194 1.919 . S
Zn1187 O1199 1.924 . S
O1188 Zn1187 1.949 . S
O1188 Zn1189 1.923 . S
O1188 Zn1190 1.950 . S
O1188 Zn1191 1.945 . S
Zn1189 O1188 1.923 . S
Zn1189 O1192 1.933 . S
Zn1189 O1195 1.941 . S
Zn1189 O1196 1.965 . S
Zn1190 O1188 1.950 . S
Zn1190 O1197 1.938 . S
Zn1190 O1198 1.906 . S
Zn1190 O1208 1.953 . S
Zn1191 O1188 1.945 . S
Zn1191 O1193 1.932 . S
Zn1191 O1200 1.977 . S
Zn1191 O1201 1.910 . S
O1192 Zn1189 1.933 . S
O1192 C1203 1.226 . S
O1193 Zn1191 1.932 . S
O1193 C1203 1.307 . S
O1194 Zn1187 1.919 . S
O1194 C1205 1.253 . S
O1195 Zn1189 1.941 . S
O1195 C1205 1.283 . S
O1196 Zn1189 1.965 . S
O1196 C1204 1.303 . S
O1197 Zn1190 1.938 . S
O1197 C1204 1.247 . S
O1198 Zn1190 1.906 . S
O1198 C1206 1.304 . S
O1199 Zn1187 1.924 . S
O1199 C1207 1.311 . S
O1200 Zn1191 1.977 . S
O1200 C1206 1.272 . S
O1201 Zn1191 1.910 . S
O1201 C1207 1.231 . S
C1202 O1186 1.225 . S
C1202 O1208 1.298 . S
C1203 O1192 1.226 . S
C1203 O1193 1.307 . S
C1204 O1196 1.303 . S
C1204 O1197 1.247 . S
C1205 O1194 1.253 . S
C1205 O1195 1.283 . S
C1206 O1198 1.304 . S
C1206 O1200 1.272 . S
C1207 O1199 1.311 . S
C1207 O1201 1.231 . S
O1208 Zn1190 1.953 . S
O1208 C1202 1.298 . S
O1209 Zn1210 1.953 1_455 S
O1209 C1225 1.225 . S
Zn1210 O1209 1.953 1_655 S
Zn1210 O1211 1.949 1_655 S
Zn1210 O1217 1.919 . S
Zn1210 O1222 1.924 1_654 S
O1211 Zn1210 1.949 1_455 S
O1211 Zn1212 1.923 1_455 S
O1211 Zn1213 1.950 . S
O1211 Zn1214 1.945 1_554 S
Zn1212 O1211 1.923 1_655 S
Zn1212 O1215 1.933 . S
Zn1212 O1218 1.941 . S
Zn1212 O1219 1.965 . S
Zn1213 O1211 1.950 . S
Zn1213 O1220 1.938 . S
Zn1213 O1221 1.906 . S
Zn1213 O1231 1.953 . S
Zn1214 O1211 1.945 1_556 S
Zn1214 O1216 1.932 . S
Zn1214 O1223 1.977 1_556 S
Zn1214 O1224 1.910 . S
O1215 Zn1212 1.933 . S
O1215 C1226 1.226 1_554 S
O1216 Zn1214 1.932 . S
O1216 C1226 1.307 1_455 S
O1217 Zn1210 1.919 . S
O1217 C1228 1.254 . S
O1218 Zn1212 1.941 . S
O1218 C1228 1.283 . S
O1219 Zn1212 1.965 . S
O1219 C1227 1.303 . S
O1220 Zn1213 1.938 . S
O1220 C1227 1.247 1_455 S
O1221 Zn1213 1.906 . S
O1221 C1229 1.304 . S
O1222 Zn1210 1.924 1_456 S
O1222 C1230 1.311 . S
O1223 Zn1214 1.977 1_554 S
O1223 C1229 1.272 . S
O1224 Zn1214 1.910 . S
O1224 C1230 1.231 . S
C1225 O1209 1.225 . S
C1225 O1231 1.298 . S
C1226 O1215 1.226 1_556 S
C1226 O1216 1.307 1_655 S
C1227 O1219 1.303 . S
C1227 O1220 1.247 1_655 S
C1228 O1217 1.254 . S
C1228 O1218 1.283 . S
C1229 O1221 1.304 . S
C1229 O1223 1.272 . S
C1230 O1222 1.311 . S
C1230 O1224 1.231 . S
O1231 Zn1213 1.953 . S
O1231 C1225 1.298 . S
H1232 C1238 0.930 . S
H1233 C1242 0.930 . S
H1234 C1247 0.930 . S
H1235 C1245 0.929 . S
H1236 C1240 0.929 . S
H1237 C1246 0.929 . S
C1238 H1232 0.930 . S
C1238 C1239 1.367 . S
C1238 C1246 1.378 . S
C1239 C1238 1.367 . S
C1239 C1247 1.433 . S
C1240 H1236 0.929 . S
C1240 C1242 1.378 . S
C1240 C1244 1.350 . S
C1241 C1244 1.463 . S
C1241 C1246 1.350 1_655 S
C1241 N1249 1.427 . S
C1242 H1233 0.930 . S
C1242 C1240 1.378 . S
C1242 C1243 1.367 . S
C1243 C1242 1.367 . S
C1243 C1245 1.433 . S
C1244 C1240 1.350 . S
C1244 C1241 1.463 . S
C1244 N1248 1.427 . S
C1245 H1235 0.929 . S
C1245 C1243 1.433 . S
C1245 N1248 1.384 . S
C1246 H1237 0.929 . S
C1246 C1238 1.378 . S
C1246 C1241 1.350 1_455 S
C1247 H1234 0.930 . S
C1247 C1239 1.433 . S
C1247 N1249 1.384 1_455 S
N1248 C1244 1.427 . S
N1248 C1245 1.384 . S
N1249 C1241 1.427 . S
N1249 C1247 1.384 1_655 S
H1250 C1256 0.930 . S
H1251 C1260 0.930 . S
H1252 C1265 0.929 . S
H1253 C1263 0.929 . S
H1254 C1258 0.929 . S
H1255 C1264 0.929 . S
C1256 H1250 0.930 . S
C1256 C1257 1.367 . S
C1256 C1264 1.378 . S
C1257 C1256 1.367 . S
C1257 C1265 1.433 . S
C1258 H1254 0.929 . S
C1258 C1260 1.378 . S
C1258 C1262 1.350 . S
C1259 C1262 1.463 . S
C1259 C1264 1.350 . S
C1259 N1267 1.427 . S
C1260 H1251 0.930 . S
C1260 C1258 1.378 . S
C1260 C1261 1.367 . S
C1261 C1260 1.367 . S
C1261 C1263 1.433 . S
C1262 C1258 1.350 . S
C1262 C1259 1.463 . S
C1262 N1266 1.427 . S
C1263 H1253 0.929 . S
C1263 C1261 1.433 . S
C1263 N1266 1.384 . S
C1264 H1255 0.929 . S
C1264 C1256 1.378 . S
C1264 C1259 1.350 . S
C1265 H1252 0.929 . S
C1265 C1257 1.433 . S
C1265 N1267 1.384 . S
N1266 C1262 1.427 . S
N1266 C1263 1.384 . S
N1267 C1259 1.427 . S
N1267 C1265 1.384 . S
H1268 C1274 0.930 . S
H1269 C1278 0.930 . S
H1270 C1283 0.929 . S
H1271 C1281 0.929 . S
H1272 C1276 0.929 . S
H1273 C1282 0.929 . S
C1274 H1268 0.930 . S
C1274 C1275 1.367 . S
C1274 C1282 1.378 . S
C1275 C1274 1.367 . S
C1275 C1283 1.433 . S
C1276 H1272 0.929 . S
C1276 C1278 1.378 . S
C1276 C1280 1.350 . S
C1277 C1280 1.463 . S
C1277 C1282 1.350 . S
C1277 N1285 1.427 . S
C1278 H1269 0.930 . S
C1278 C1276 1.378 . S
C1278 C1279 1.367 . S
C1279 C1278 1.367 . S
C1279 C1281 1.433 . S
C1280 C1276 1.350 . S
C1280 C1277 1.463 . S
C1280 N1284 1.427 . S
C1281 H1271 0.929 . S
C1281 C1279 1.433 . S
C1281 N1284 1.384 . S
C1282 H1273 0.929 . S
C1282 C1274 1.378 . S
C1282 C1277 1.350 . S
C1283 H1270 0.929 . S
C1283 C1275 1.433 . S
C1283 N1285 1.384 . S
N1284 C1280 1.427 . S
N1284 C1281 1.384 . S
N1285 C1277 1.427 . S
N1285 C1283 1.384 . S
H1286 C1292 0.930 . S
H1287 C1296 0.930 . S
H1288 C1301 0.929 . S
H1289 C1299 0.929 . S
H1290 C1294 0.929 . S
H1291 C1300 0.929 . S
C1292 H1286 0.930 . S
C1292 C1293 1.367 . S
C1292 C1300 1.378 . S
C1293 C1292 1.367 . S
C1293 C1301 1.433 . S
C1294 H1290 0.929 . S
C1294 C1296 1.378 . S
C1294 C1298 1.350 . S
C1295 C1298 1.463 . S
C1295 C1300 1.350 . S
C1295 N1303 1.427 . S
C1296 H1287 0.930 . S
C1296 C1294 1.378 . S
C1296 C1297 1.367 . S
C1297 C1296 1.367 . S
C1297 C1299 1.433 . S
C1298 C1294 1.350 . S
C1298 C1295 1.463 . S
C1298 N1302 1.427 . S
C1299 H1289 0.929 . S
C1299 C1297 1.433 . S
C1299 N1302 1.384 . S
C1300 H1291 0.929 . S
C1300 C1292 1.378 . S
C1300 C1295 1.350 . S
C1301 H1288 0.929 . S
C1301 C1293 1.433 . S
C1301 N1303 1.384 . S
N1302 C1298 1.427 . S
N1302 C1299 1.384 . S
N1303 C1295 1.427 . S
N1303 C1301 1.384 . S
H1304 C1310 0.933 . S
H1305 C1314 0.929 1_455 S
H1306 C1319 0.929 . S
H1307 C1317 0.929 . S
H1308 C1312 0.929 . S
H1309 C1318 0.929 . S
C1310 H1304 0.933 . S
C1310 C1311 1.363 1_655 S
C1310 C1318 1.380 . S
C1311 C1310 1.363 1_455 S
C1311 C1319 1.433 . S
C1312 H1308 0.929 . S
C1312 C1314 1.377 1_455 S
C1312 C1316 1.350 1_455 S
C1313 C1316 1.458 1_455 S
C1313 C1318 1.343 1_455 S
C1313 N1321 1.441 . S
C1314 H1305 0.929 1_655 S
C1314 C1312 1.377 1_655 S
C1314 C1315 1.369 . S
C1315 C1314 1.369 . S
C1315 C1317 1.433 . S
C1316 C1312 1.350 1_655 S
C1316 C1313 1.458 1_655 S
C1316 N1320 1.427 . S
C1317 H1307 0.929 . S
C1317 C1315 1.433 . S
C1317 N1320 1.384 . S
C1318 H1309 0.929 . S
C1318 C1310 1.380 . S
C1318 C1313 1.343 1_655 S
C1319 H1306 0.929 . S
C1319 C1311 1.433 . S
C1319 N1321 1.384 . S
N1320 C1316 1.427 . S
N1320 C1317 1.384 . S
N1321 C1313 1.441 . S
N1321 C1319 1.384 . S
H1322 C1328 0.930 . S
H1323 C1332 0.930 . S
H1324 C1337 0.929 . S
H1325 C1335 0.929 . S
H1326 C1330 0.929 . S
H1327 C1336 0.929 . S
C1328 H1322 0.930 . S
C1328 C1329 1.367 . S
C1328 C1336 1.378 . S
C1329 C1328 1.367 . S
C1329 C1337 1.433 . S
C1330 H1326 0.929 . S
C1330 C1332 1.378 . S
C1330 C1334 1.350 . S
C1331 C1334 1.463 . S
C1331 C1336 1.350 . S
C1331 N1339 1.427 . S
C1332 H1323 0.930 . S
C1332 C1330 1.378 . S
C1332 C1333 1.367 . S
C1333 C1332 1.367 . S
C1333 C1335 1.433 . S
C1334 C1330 1.350 . S
C1334 C1331 1.463 . S
C1334 N1338 1.427 . S
C1335 H1325 0.929 . S
C1335 C1333 1.433 . S
C1335 N1338 1.384 . S
C1336 H1327 0.929 . S
C1336 C1328 1.378 . S
C1336 C1331 1.350 . S
C1337 H1324 0.929 . S
C1337 C1329 1.433 . S
C1337 N1339 1.384 . S
N1338 C1334 1.427 . S
N1338 C1335 1.384 . S
N1339 C1331 1.427 . S
N1339 C1337 1.384 . S
H1340 C1346 0.930 . S
H1341 C1350 0.930 1_554 S
H1342 C1355 0.929 . S
H1343 C1353 0.929 . S
H1344 C1348 0.929 . S
H1345 C1354 0.929 . S
C1346 H1340 0.930 . S
C1346 C1347 1.367 . S
C1346 C1354 1.378 . S
C1347 C1346 1.367 . S
C1347 C1355 1.433 . S
C1348 H1344 0.929 . S
C1348 C1350 1.378 . S
C1348 C1352 1.350 . S
C1349 C1352 1.463 . S
C1349 C1354 1.350 . S
C1349 N1357 1.427 . S
C1350 H1341 0.930 1_556 S
C1350 C1348 1.378 . S
C1350 C1351 1.367 . S
C1351 C1350 1.367 . S
C1351 C1353 1.433 . S
C1352 C1348 1.350 . S
C1352 C1349 1.463 . S
C1352 N1356 1.427 . S
C1353 H1343 0.929 . S
C1353 C1351 1.433 . S
C1353 N1356 1.384 . S
C1354 H1345 0.929 . S
C1354 C1346 1.378 . S
C1354 C1349 1.350 . S
C1355 H1342 0.929 . S
C1355 C1347 1.433 . S
C1355 N1357 1.384 . S
N1356 C1352 1.427 . S
N1356 C1353 1.384 . S
N1357 C1349 1.427 . S
N1357 C1355 1.384 . S
H1358 C1364 0.930 . S
H1359 C1368 0.930 . S
H1360 C1373 0.929 . S
H1361 C1371 0.929 . S
H1362 C1366 0.929 . S
H1363 C1372 0.929 . S
C1364 H1358 0.930 . S
C1364 C1365 1.367 . S
C1364 C1372 1.378 . S
C1365 C1364 1.367 . S
C1365 C1373 1.433 . S
C1366 H1362 0.929 . S
C1366 C1368 1.378 . S
C1366 C1370 1.350 . S
C1367 C1370 1.463 . S
C1367 C1372 1.350 . S
C1367 N1375 1.427 . S
C1368 H1359 0.930 . S
C1368 C1366 1.378 . S
C1368 C1369 1.367 . S
C1369 C1368 1.367 . S
C1369 C1371 1.433 . S
C1370 C1366 1.350 . S
C1370 C1367 1.463 . S
C1370 N1374 1.427 . S
C1371 H1361 0.929 . S
C1371 C1369 1.433 . S
C1371 N1374 1.384 . S
C1372 H1363 0.929 . S
C1372 C1364 1.378 . S
C1372 C1367 1.350 . S
C1373 H1360 0.929 . S
C1373 C1365 1.433 . S
C1373 N1375 1.384 . S
N1374 C1370 1.427 . S
N1374 C1371 1.384 . S
N1375 C1367 1.427 . S
N1375 C1373 1.384 . S
H1376 C1382 0.930 . S
H1377 C1386 0.930 . S
H1378 C1391 0.929 1_565 S
H1379 C1389 0.929 . S
H1380 C1384 0.929 . S
H1381 C1390 0.929 . S
C1382 H1376 0.930 . S
C1382 C1383 1.367 . S
C1382 C1390 1.378 . S
C1383 C1382 1.367 . S
C1383 C1391 1.433 . S
C1384 H1380 0.929 . S
C1384 C1386 1.378 . S
C1384 C1388 1.350 1_565 S
C1385 C1388 1.463 . S
C1385 C1390 1.350 . S
C1385 N1393 1.427 . S
C1386 H1377 0.930 . S
C1386 C1384 1.378 . S
C1386 C1387 1.367 1_565 S
C1387 C1386 1.367 1_545 S
C1387 C1389 1.433 . S
C1388 C1384 1.350 1_545 S
C1388 C1385 1.463 . S
C1388 N1392 1.427 . S
C1389 H1379 0.929 . S
C1389 C1387 1.433 . S
C1389 N1392 1.384 . S
C1390 H1381 0.929 . S
C1390 C1382 1.378 . S
C1390 C1385 1.350 . S
C1391 H1378 0.929 1_545 S
C1391 C1383 1.433 . S
C1391 N1393 1.384 . S
N1392 C1388 1.427 . S
N1392 C1389 1.384 . S
N1393 C1385 1.427 . S
N1393 C1391 1.384 . S
H1394 C1400 0.930 . S
H1395 C1404 0.930 . S
H1396 C1409 0.929 . S
H1397 C1407 0.929 . S
H1398 C1402 0.929 . S
H1399 C1408 0.929 . S
C1400 H1394 0.930 . S
C1400 C1401 1.367 . S
C1400 C1408 1.378 . S
C1401 C1400 1.367 . S
C1401 C1409 1.433 . S
C1402 H1398 0.929 . S
C1402 C1404 1.378 . S
C1402 C1406 1.350 . S
C1403 C1406 1.463 . S
C1403 C1408 1.350 . S
C1403 N1411 1.427 . S
C1404 H1395 0.930 . S
C1404 C1402 1.378 . S
C1404 C1405 1.367 . S
C1405 C1404 1.367 . S
C1405 C1407 1.433 . S
C1406 C1402 1.350 . S
C1406 C1403 1.463 . S
C1406 N1410 1.427 . S
C1407 H1397 0.929 . S
C1407 C1405 1.433 . S
C1407 N1410 1.384 . S
C1408 H1399 0.929 . S
C1408 C1400 1.378 . S
C1408 C1403 1.350 . S
C1409 H1396 0.929 . S
C1409 C1401 1.433 . S
C1409 N1411 1.384 . S
N1410 C1406 1.427 . S
N1410 C1407 1.384 . S
N1411 C1403 1.427 . S
N1411 C1409 1.384 . S
H1412 C1418 0.930 . S
H1413 C1422 0.930 . S
H1414 C1427 0.929 . S
H1415 C1425 0.929 . S
H1416 C1420 0.929 . S
H1417 C1426 0.929 . S
C1418 H1412 0.930 . S
C1418 C1419 1.367 . S
C1418 C1426 1.378 . S
C1419 C1418 1.367 . S
C1419 C1427 1.433 1_545 S
C1420 H1416 0.929 . S
C1420 C1422 1.378 . S
C1420 C1424 1.350 1_565 S
C1421 C1424 1.463 . S
C1421 C1426 1.350 . S
C1421 N1429 1.427 1_545 S
C1422 H1413 0.930 . S
C1422 C1420 1.378 . S
C1422 C1423 1.367 1_565 S
C1423 C1422 1.367 1_545 S
C1423 C1425 1.433 . S
C1424 C1420 1.350 1_545 S
C1424 C1421 1.463 . S
C1424 N1428 1.427 . S
C1425 H1415 0.929 . S
C1425 C1423 1.433 . S
C1425 N1428 1.384 . S
C1426 H1417 0.929 . S
C1426 C1418 1.378 . S
C1426 C1421 1.350 . S
C1427 H1414 0.929 . S
C1427 C1419 1.433 1_565 S
C1427 N1429 1.384 . S
N1428 C1424 1.427 . S
N1428 C1425 1.384 . S
N1429 C1421 1.427 1_565 S
N1429 C1427 1.384 . S
H1430 C1436 0.930 . S
H1431 C1440 0.930 . S
H1432 C1445 0.929 . S
H1433 C1443 0.929 . S
H1434 C1438 0.929 . S
H1435 C1444 0.929 . S
C1436 H1430 0.930 . S
C1436 C1437 1.367 . S
C1436 C1444 1.378 . S
C1437 C1436 1.367 . S
C1437 C1445 1.433 . S
C1438 H1434 0.929 . S
C1438 C1440 1.378 . S
C1438 C1442 1.350 . S
C1439 C1442 1.463 . S
C1439 C1444 1.350 . S
C1439 N1447 1.427 . S
C1440 H1431 0.930 . S
C1440 C1438 1.378 . S
C1440 C1441 1.367 . S
C1441 C1440 1.367 . S
C1441 C1443 1.433 . S
C1442 C1438 1.350 . S
C1442 C1439 1.463 . S
C1442 N1446 1.427 . S
C1443 H1433 0.929 . S
C1443 C1441 1.433 . S
C1443 N1446 1.384 . S
C1444 H1435 0.929 . S
C1444 C1436 1.378 . S
C1444 C1439 1.350 . S
C1445 H1432 0.929 . S
C1445 C1437 1.433 . S
C1445 N1447 1.384 . S
N1446 C1442 1.427 . S
N1446 C1443 1.384 . S
N1447 C1439 1.427 . S
N1447 C1445 1.384 . S
H1448 C1454 0.930 1_565 S
H1449 C1458 0.930 . S
H1450 C1463 0.929 . S
H1451 C1461 0.929 1_565 S
H1452 C1456 0.929 . S
H1453 C1462 0.929 1_565 S
C1454 H1448 0.930 1_545 S
C1454 C1455 1.367 . S
C1454 C1462 1.378 . S
C1455 C1454 1.367 . S
C1455 C1463 1.433 . S
C1456 H1452 0.929 . S
C1456 C1458 1.378 . S
C1456 C1460 1.350 . S
C1457 C1460 1.463 . S
C1457 C1462 1.350 . S
C1457 N1465 1.427 . S
C1458 H1449 0.930 . S
C1458 C1456 1.378 . S
C1458 C1459 1.367 . S
C1459 C1458 1.367 . S
C1459 C1461 1.433 . S
C1460 C1456 1.350 . S
C1460 C1457 1.463 . S
C1460 N1464 1.427 . S
C1461 H1451 0.929 1_545 S
C1461 C1459 1.433 . S
C1461 N1464 1.384 . S
C1462 H1453 0.929 1_545 S
C1462 C1454 1.378 . S
C1462 C1457 1.350 . S
C1463 H1450 0.929 . S
C1463 C1455 1.433 . S
C1463 N1465 1.384 . S
N1464 C1460 1.427 . S
N1464 C1461 1.384 . S
N1465 C1457 1.427 . S
N1465 C1463 1.384 . S
H1466 C1472 0.930 . S
H1467 C1476 0.930 . S
H1468 C1481 0.929 . S
H1469 C1479 0.929 . S
H1470 C1474 0.929 . S
H1471 C1480 0.929 . S
C1472 H1466 0.930 . S
C1472 C1473 1.367 . S
C1472 C1480 1.378 . S
C1473 C1472 1.367 . S
C1473 C1481 1.433 . S
C1474 H1470 0.929 . S
C1474 C1476 1.378 . S
C1474 C1478 1.350 . S
C1475 C1478 1.463 . S
C1475 C1480 1.350 . S
C1475 N1483 1.427 . S
C1476 H1467 0.930 . S
C1476 C1474 1.378 . S
C1476 C1477 1.367 . S
C1477 C1476 1.367 . S
C1477 C1479 1.433 . S
C1478 C1474 1.350 . S
C1478 C1475 1.463 . S
C1478 N1482 1.427 . S
C1479 H1469 0.929 . S
C1479 C1477 1.433 . S
C1479 N1482 1.384 . S
C1480 H1471 0.929 . S
C1480 C1472 1.378 . S
C1480 C1475 1.350 . S
C1481 H1468 0.929 . S
C1481 C1473 1.433 . S
C1481 N1483 1.384 . S
N1482 C1478 1.427 . S
N1482 C1479 1.384 . S
N1483 C1475 1.427 . S
N1483 C1481 1.384 . S
H1484 C1490 0.930 . S
H1485 C1494 0.930 . S
H1486 C1499 0.929 . S
H1487 C1497 0.929 . S
H1488 C1492 0.929 . S
H1489 C1498 0.929 . S
C1490 H1484 0.930 . S
C1490 C1491 1.364 1_565 S
C1490 C1498 1.378 . S
C1491 C1490 1.364 1_545 S
C1491 C1499 1.435 . S
C1492 H1488 0.929 . S
C1492 C1494 1.378 . S
C1492 C1496 1.350 1_545 S
C1493 C1496 1.463 . S
C1493 C1498 1.350 . S
C1493 N1501 1.427 1_565 S
C1494 H1485 0.930 . S
C1494 C1492 1.378 . S
C1494 C1495 1.367 1_545 S
C1495 C1494 1.367 1_565 S
C1495 C1497 1.433 . S
C1496 C1492 1.350 1_565 S
C1496 C1493 1.463 . S
C1496 N1500 1.427 . S
C1497 H1487 0.929 . S
C1497 C1495 1.433 . S
C1497 N1500 1.384 . S
C1498 H1489 0.929 . S
C1498 C1490 1.378 . S
C1498 C1493 1.350 . S
C1499 H1486 0.929 . S
C1499 C1491 1.435 . S
C1499 N1501 1.384 . S
N1500 C1496 1.427 . S
N1500 C1497 1.384 . S
N1501 C1493 1.427 1_545 S
N1501 C1499 1.384 . S
H1502 C1508 0.930 . S
H1503 C1512 0.930 . S
H1504 C1517 0.929 . S
H1505 C1515 0.929 . S
H1506 C1510 0.929 . S
H1507 C1516 0.929 . S
C1508 H1502 0.930 . S
C1508 C1509 1.367 . S
C1508 C1516 1.378 . S
C1509 C1508 1.367 . S
C1509 C1517 1.433 . S
C1510 H1506 0.929 . S
C1510 C1512 1.378 . S
C1510 C1514 1.350 . S
C1511 C1514 1.463 . S
C1511 C1516 1.350 . S
C1511 N1519 1.427 . S
C1512 H1503 0.930 . S
C1512 C1510 1.378 . S
C1512 C1513 1.367 . S
C1513 C1512 1.367 . S
C1513 C1515 1.433 . S
C1514 C1510 1.350 . S
C1514 C1511 1.463 . S
C1514 N1518 1.427 . S
C1515 H1505 0.929 . S
C1515 C1513 1.433 . S
C1515 N1518 1.384 . S
C1516 H1507 0.929 . S
C1516 C1508 1.378 . S
C1516 C1511 1.350 . S
C1517 H1504 0.929 . S
C1517 C1509 1.433 . S
C1517 N1519 1.384 . S
N1518 C1514 1.427 . S
N1518 C1515 1.384 . S
N1519 C1511 1.427 . S
N1519 C1517 1.384 . S
H1520 C1526 0.930 . S
H1521 C1530 0.930 . S
H1522 C1535 0.929 . S
H1523 C1533 0.929 . S
H1524 C1528 0.929 . S
H1525 C1534 0.929 . S
C1526 H1520 0.930 . S
C1526 C1527 1.367 1_556 S
C1526 C1534 1.378 . S
C1527 C1526 1.367 1_554 S
C1527 C1535 1.433 . S
C1528 H1524 0.929 . S
C1528 C1530 1.378 . S
C1528 C1532 1.350 . S
C1529 C1532 1.463 . S
C1529 C1534 1.350 1_554 S
C1529 N1537 1.427 . S
C1530 H1521 0.930 . S
C1530 C1528 1.378 . S
C1530 C1531 1.376 . S
C1531 C1530 1.376 . S
C1531 C1533 1.425 1_554 S
C1532 C1528 1.350 . S
C1532 C1529 1.463 . S
C1532 N1536 1.427 1_554 S
C1533 H1523 0.929 . S
C1533 C1531 1.425 1_556 S
C1533 N1536 1.384 . S
C1534 H1525 0.929 . S
C1534 C1526 1.378 . S
C1534 C1529 1.350 1_556 S
C1535 H1522 0.929 . S
C1535 C1527 1.433 . S
C1535 N1537 1.384 . S
N1536 C1532 1.427 1_556 S
N1536 C1533 1.384 . S
N1537 C1529 1.427 . S
N1537 C1535 1.384 . S
H1538 C1544 0.930 . S
H1539 C1548 0.930 . S
H1540 C1553 0.929 . S
H1541 C1551 0.929 . S
H1542 C1546 0.929 . S
H1543 C1552 0.929 . S
C1544 H1538 0.930 . S
C1544 C1545 1.367 1_556 S
C1544 C1552 1.378 . S
C1545 C1544 1.367 1_554 S
C1545 C1553 1.433 . S
C1546 H1542 0.929 . S
C1546 C1548 1.378 . S
C1546 C1550 1.350 . S
C1547 C1550 1.463 . S
C1547 C1552 1.350 1_554 S
C1547 N1555 1.427 . S
C1548 H1539 0.930 . S
C1548 C1546 1.378 . S
C1548 C1549 1.367 . S
C1549 C1548 1.367 . S
C1549 C1551 1.433 1_554 S
C1550 C1546 1.350 . S
C1550 C1547 1.463 . S
C1550 N1554 1.427 1_554 S
C1551 H1541 0.929 . S
C1551 C1549 1.433 1_556 S
C1551 N1554 1.384 . S
C1552 H1543 0.929 . S
C1552 C1544 1.378 . S
C1552 C1547 1.350 1_556 S
C1553 H1540 0.929 . S
C1553 C1545 1.433 . S
C1553 N1555 1.384 . S
N1554 C1550 1.427 1_556 S
N1554 C1551 1.384 . S
N1555 C1547 1.427 . S
N1555 C1553 1.384 . S
H1556 C1562 0.930 . S
H1557 C1566 0.930 . S
H1558 C1571 0.929 . S
H1559 C1569 0.929 . S
H1560 C1564 0.929 . S
H1561 C1570 0.929 . S
C1562 H1556 0.930 . S
C1562 C1563 1.367 . S
C1562 C1570 1.378 . S
C1563 C1562 1.367 . S
C1563 C1571 1.433 . S
C1564 H1560 0.929 . S
C1564 C1566 1.378 . S
C1564 C1568 1.350 . S
C1565 C1568 1.463 . S
C1565 C1570 1.350 . S
C1565 N1573 1.427 . S
C1566 H1557 0.930 . S
C1566 C1564 1.378 . S
C1566 C1567 1.367 . S
C1567 C1566 1.367 . S
C1567 C1569 1.433 . S
C1568 C1564 1.350 . S
C1568 C1565 1.463 . S
C1568 N1572 1.427 . S
C1569 H1559 0.929 . S
C1569 C1567 1.433 . S
C1569 N1572 1.384 . S
C1570 H1561 0.929 . S
C1570 C1562 1.378 . S
C1570 C1565 1.350 . S
C1571 H1558 0.929 . S
C1571 C1563 1.433 . S
C1571 N1573 1.384 . S
N1572 C1568 1.427 . S
N1572 C1569 1.384 . S
N1573 C1565 1.427 . S
N1573 C1571 1.384 . S
H1574 C1580 0.930 . S
H1575 C1584 0.930 . S
H1576 C1589 0.929 . S
H1577 C1587 0.929 . S
H1578 C1582 0.929 . S
H1579 C1588 0.929 . S
C1580 H1574 0.930 . S
C1580 C1581 1.367 . S
C1580 C1588 1.378 . S
C1581 C1580 1.367 . S
C1581 C1589 1.433 . S
C1582 H1578 0.929 . S
C1582 C1584 1.378 . S
C1582 C1586 1.350 . S
C1583 C1586 1.463 . S
C1583 C1588 1.350 . S
C1583 N1591 1.427 . S
C1584 H1575 0.930 . S
C1584 C1582 1.378 . S
C1584 C1585 1.367 . S
C1585 C1584 1.367 . S
C1585 C1587 1.433 . S
C1586 C1582 1.350 . S
C1586 C1583 1.463 . S
C1586 N1590 1.427 . S
C1587 H1577 0.929 . S
C1587 C1585 1.433 . S
C1587 N1590 1.384 . S
C1588 H1579 0.929 . S
C1588 C1580 1.378 . S
C1588 C1583 1.350 . S
C1589 H1576 0.929 . S
C1589 C1581 1.433 . S
C1589 N1591 1.384 . S
N1590 C1586 1.427 . S
N1590 C1587 1.384 . S
N1591 C1583 1.427 . S
N1591 C1589 1.384 . S
H1592 C1598 0.930 . S
H1593 C1602 0.930 . S
H1594 C1607 0.929 . S
H1595 C1605 0.929 . S
H1596 C1600 0.929 . S
H1597 C1606 0.929 . S
C1598 H1592 0.930 . S
C1598 C1599 1.367 . S
C1598 C1606 1.378 . S
C1599 C1598 1.367 . S
C1599 C1607 1.433 . S
C1600 H1596 0.929 . S
C1600 C1602 1.378 . S
C1600 C1604 1.350 . S
C1601 C1604 1.463 . S
C1601 C1606 1.350 . S
C1601 N1609 1.427 . S
C1602 H1593 0.930 . S
C1602 C1600 1.378 . S
C1602 C1603 1.367 . S
C1603 C1602 1.367 . S
C1603 C1605 1.433 . S
C1604 C1600 1.350 . S
C1604 C1601 1.463 . S
C1604 N1608 1.427 . S
C1605 H1595 0.929 . S
C1605 C1603 1.433 . S
C1605 N1608 1.384 . S
C1606 H1597 0.929 . S
C1606 C1598 1.378 . S
C1606 C1601 1.350 . S
C1607 H1594 0.929 . S
C1607 C1599 1.433 . S
C1607 N1609 1.384 . S
N1608 C1604 1.427 . S
N1608 C1605 1.384 . S
N1609 C1601 1.427 . S
N1609 C1607 1.384 . S
H1610 C1616 0.930 . S
H1611 C1620 0.930 1_545 S
H1612 C1625 0.929 . S
H1613 C1623 0.929 . S
H1614 C1618 0.929 . S
H1615 C1624 0.929 . S
C1616 H1610 0.930 . S
C1616 C1617 1.367 . S
C1616 C1624 1.378 . S
C1617 C1616 1.367 . S
C1617 C1625 1.433 . S
C1618 H1614 0.929 . S
C1618 C1620 1.378 . S
C1618 C1622 1.350 . S
C1619 C1622 1.463 . S
C1619 C1624 1.350 . S
C1619 N1627 1.427 . S
C1620 H1611 0.930 1_565 S
C1620 C1618 1.378 . S
C1620 C1621 1.367 . S
C1621 C1620 1.367 . S
C1621 C1623 1.433 . S
C1622 C1618 1.350 . S
C1622 C1619 1.463 . S
C1622 N1626 1.427 . S
C1623 H1613 0.929 . S
C1623 C1621 1.433 . S
C1623 N1626 1.384 . S
C1624 H1615 0.929 . S
C1624 C1616 1.378 . S
C1624 C1619 1.350 . S
C1625 H1612 0.929 . S
C1625 C1617 1.433 . S
C1625 N1627 1.384 . S
N1626 C1622 1.427 . S
N1626 C1623 1.384 . S
N1627 C1619 1.427 . S
N1627 C1625 1.384 . S
H1628 C1634 0.930 . S
H1629 C1638 0.930 . S
H1630 C1643 0.929 . S
H1631 C1641 0.929 . S
H1632 C1636 0.929 . S
H1633 C1642 0.929 . S
C1634 H1628 0.930 . S
C1634 C1635 1.367 . S
C1634 C1642 1.378 . S
C1635 C1634 1.367 . S
C1635 C1643 1.433 . S
C1636 H1632 0.929 . S
C1636 C1638 1.378 . S
C1636 C1640 1.350 . S
C1637 C1640 1.463 . S
C1637 C1642 1.350 . S
C1637 N1645 1.427 . S
C1638 H1629 0.930 . S
C1638 C1636 1.378 . S
C1638 C1639 1.367 . S
C1639 C1638 1.367 . S
C1639 C1641 1.433 . S
C1640 C1636 1.350 . S
C1640 C1637 1.463 . S
C1640 N1644 1.427 . S
C1641 H1631 0.929 . S
C1641 C1639 1.433 . S
C1641 N1644 1.384 . S
C1642 H1633 0.929 . S
C1642 C1634 1.378 . S
C1642 C1637 1.350 . S
C1643 H1630 0.929 . S
C1643 C1635 1.433 . S
C1643 N1645 1.384 . S
N1644 C1640 1.427 . S
N1644 C1641 1.384 . S
N1645 C1637 1.427 . S
N1645 C1643 1.384 . S
H1646 C1652 0.930 . S
H1647 C1656 0.930 . S
H1648 C1661 0.929 . S
H1649 C1659 0.929 . S
H1650 C1654 0.929 . S
H1651 C1660 0.929 . S
C1652 H1646 0.930 . S
C1652 C1653 1.367 . S
C1652 C1660 1.378 . S
C1653 C1652 1.367 . S
C1653 C1661 1.433 . S
C1654 H1650 0.929 . S
C1654 C1656 1.378 . S
C1654 C1658 1.350 . S
C1655 C1658 1.463 . S
C1655 C1660 1.350 . S
C1655 N1663 1.427 . S
C1656 H1647 0.930 . S
C1656 C1654 1.378 . S
C1656 C1657 1.367 . S
C1657 C1656 1.367 . S
C1657 C1659 1.433 . S
C1658 C1654 1.350 . S
C1658 C1655 1.463 . S
C1658 N1662 1.427 . S
C1659 H1649 0.929 . S
C1659 C1657 1.433 . S
C1659 N1662 1.384 . S
C1660 H1651 0.929 . S
C1660 C1652 1.378 . S
C1660 C1655 1.350 . S
C1661 H1648 0.929 . S
C1661 C1653 1.433 . S
C1661 N1663 1.384 . S
N1662 C1658 1.427 . S
N1662 C1659 1.384 . S
N1663 C1655 1.427 . S
N1663 C1661 1.384 . S
H1664 C1670 0.938 . S
H1665 C1674 0.930 . S
H1666 C1679 0.929 . S
H1667 C1677 0.929 1_554 S
H1668 C1672 0.929 . S
H1669 C1678 0.929 1_655 S
C1670 H1664 0.938 . S
C1670 C1671 1.361 1_655 S
C1670 C1678 1.376 1_655 S
C1671 C1670 1.361 1_455 S
C1671 C1679 1.433 . S
C1672 H1668 0.929 . S
C1672 C1674 1.378 . S
C1672 C1676 1.350 . S
C1673 C1676 1.463 . S
C1673 C1678 1.350 . S
C1673 N1681 1.427 . S
C1674 H1665 0.930 . S
C1674 C1672 1.378 . S
C1674 C1675 1.367 . S
C1675 C1674 1.367 . S
C1675 C1677 1.433 . S
C1676 C1672 1.350 . S
C1676 C1673 1.463 . S
C1676 N1680 1.427 . S
C1677 H1667 0.929 1_556 S
C1677 C1675 1.433 . S
C1677 N1680 1.384 . S
C1678 H1669 0.929 1_455 S
C1678 C1670 1.376 1_455 S
C1678 C1673 1.350 . S
C1679 H1666 0.929 . S
C1679 C1671 1.433 . S
C1679 N1681 1.384 . S
N1680 C1676 1.427 . S
N1680 C1677 1.384 . S
N1681 C1673 1.427 . S
N1681 C1679 1.384 . S
H1682 C1688 0.930 . S
H1683 C1692 0.930 . S
H1684 C1697 0.929 . S
H1685 C1695 0.929 . S
H1686 C1690 0.929 . S
H1687 C1696 0.929 . S
C1688 H1682 0.930 . S
C1688 C1689 1.367 . S
C1688 C1696 1.378 . S
C1689 C1688 1.367 . S
C1689 C1697 1.433 . S
C1690 H1686 0.929 . S
C1690 C1692 1.378 . S
C1690 C1694 1.350 . S
C1691 C1694 1.463 . S
C1691 C1696 1.350 . S
C1691 N1699 1.427 . S
C1692 H1683 0.930 . S
C1692 C1690 1.378 . S
C1692 C1693 1.367 . S
C1693 C1692 1.367 . S
C1693 C1695 1.433 . S
C1694 C1690 1.350 . S
C1694 C1691 1.463 . S
C1694 N1698 1.427 . S
C1695 H1685 0.929 . S
C1695 C1693 1.433 . S
C1695 N1698 1.384 . S
C1696 H1687 0.929 . S
C1696 C1688 1.378 . S
C1696 C1691 1.350 . S
C1697 H1684 0.929 . S
C1697 C1689 1.433 . S
C1697 N1699 1.384 . S
N1698 C1694 1.427 . S
N1698 C1695 1.384 . S
N1699 C1691 1.427 . S
N1699 C1697 1.384 . S
H1700 C1706 0.930 . S
H1701 C1710 0.930 . S
H1702 C1715 0.929 . S
H1703 C1713 0.929 . S
H1704 C1708 0.929 . S
H1705 C1714 0.929 . S
C1706 H1700 0.930 . S
C1706 C1707 1.367 . S
C1706 C1714 1.378 . S
C1707 C1706 1.367 . S
C1707 C1715 1.433 . S
C1708 H1704 0.929 . S
C1708 C1710 1.378 . S
C1708 C1712 1.350 . S
C1709 C1712 1.463 . S
C1709 C1714 1.350 . S
C1709 N1717 1.427 . S
C1710 H1701 0.930 . S
C1710 C1708 1.378 . S
C1710 C1711 1.367 . S
C1711 C1710 1.367 . S
C1711 C1713 1.433 . S
C1712 C1708 1.350 . S
C1712 C1709 1.463 . S
C1712 N1716 1.427 . S
C1713 H1703 0.929 . S
C1713 C1711 1.433 . S
C1713 N1716 1.384 . S
C1714 H1705 0.929 . S
C1714 C1706 1.378 . S
C1714 C1709 1.350 . S
C1715 H1702 0.929 . S
C1715 C1707 1.433 . S
C1715 N1717 1.384 . S
N1716 C1712 1.427 . S
N1716 C1713 1.384 . S
N1717 C1709 1.427 . S
N1717 C1715 1.384 . S
H1718 C1724 0.930 . S
H1719 C1728 0.930 . S
H1720 C1733 0.929 . S
H1721 C1731 0.929 . S
H1722 C1726 0.929 . S
H1723 C1732 0.929 . S
C1724 H1718 0.930 . S
C1724 C1725 1.367 . S
C1724 C1732 1.378 . S
C1725 C1724 1.367 . S
C1725 C1733 1.433 . S
C1726 H1722 0.929 . S
C1726 C1728 1.378 . S
C1726 C1730 1.350 . S
C1727 C1730 1.463 . S
C1727 C1732 1.350 . S
C1727 N1735 1.427 . S
C1728 H1719 0.930 . S
C1728 C1726 1.378 . S
C1728 C1729 1.367 . S
C1729 C1728 1.367 . S
C1729 C1731 1.433 . S
C1730 C1726 1.350 . S
C1730 C1727 1.463 . S
C1730 N1734 1.427 . S
C1731 H1721 0.929 . S
C1731 C1729 1.433 . S
C1731 N1734 1.384 . S
C1732 H1723 0.929 . S
C1732 C1724 1.378 . S
C1732 C1727 1.350 . S
C1733 H1720 0.929 . S
C1733 C1725 1.433 . S
C1733 N1735 1.384 . S
N1734 C1730 1.427 . S
N1734 C1731 1.384 . S
N1735 C1727 1.427 . S
N1735 C1733 1.384 . S
H1736 C1742 0.930 . S
H1737 C1746 0.930 . S
H1738 C1751 0.929 . S
H1739 C1749 0.929 . S
H1740 C1744 0.929 1_655 S
H1741 C1750 0.929 . S
C1742 H1736 0.930 . S
C1742 C1743 1.367 . S
C1742 C1750 1.378 . S
C1743 C1742 1.367 . S
C1743 C1751 1.433 1_455 S
C1744 H1740 0.929 1_455 S
C1744 C1746 1.378 . S
C1744 C1748 1.350 . S
C1745 C1748 1.463 . S
C1745 C1750 1.350 . S
C1745 N1753 1.448 . S
C1746 H1737 0.930 . S
C1746 C1744 1.378 . S
C1746 C1747 1.367 . S
C1747 C1746 1.367 . S
C1747 C1749 1.433 . S
C1748 C1744 1.350 . S
C1748 C1745 1.463 . S
C1748 N1752 1.427 . S
C1749 H1739 0.929 . S
C1749 C1747 1.433 . S
C1749 N1752 1.384 . S
C1750 H1741 0.929 . S
C1750 C1742 1.378 . S
C1750 C1745 1.350 . S
C1751 H1738 0.929 . S
C1751 C1743 1.433 1_655 S
C1751 N1753 1.378 1_655 S
N1752 C1748 1.427 . S
N1752 C1749 1.384 . S
N1753 C1745 1.448 . S
N1753 C1751 1.378 1_455 S
H1754 C1760 0.930 . S
H1755 C1764 0.930 . S
H1756 C1769 0.929 . S
H1757 C1767 0.929 . S
H1758 C1762 0.929 . S
H1759 C1768 0.929 . S
C1760 H1754 0.930 . S
C1760 C1761 1.367 . S
C1760 C1768 1.378 . S
C1761 C1760 1.367 . S
C1761 C1769 1.433 . S
C1762 H1758 0.929 . S
C1762 C1764 1.378 . S
C1762 C1766 1.350 . S
C1763 C1766 1.463 . S
C1763 C1768 1.350 . S
C1763 N1771 1.427 . S
C1764 H1755 0.930 . S
C1764 C1762 1.378 . S
C1764 C1765 1.367 . S
C1765 C1764 1.367 . S
C1765 C1767 1.433 . S
C1766 C1762 1.350 . S
C1766 C1763 1.463 . S
C1766 N1770 1.427 . S
C1767 H1757 0.929 . S
C1767 C1765 1.433 . S
C1767 N1770 1.384 . S
C1768 H1759 0.929 . S
C1768 C1760 1.378 . S
C1768 C1763 1.350 . S
C1769 H1756 0.929 . S
C1769 C1761 1.433 . S
C1769 N1771 1.384 . S
N1770 C1766 1.427 . S
N1770 C1767 1.384 . S
N1771 C1763 1.427 . S
N1771 C1769 1.384 . S
H1772 C1778 0.930 . S
H1773 C1782 0.930 . S
H1774 C1787 0.929 . S
H1775 C1785 0.929 . S
H1776 C1780 0.929 . S
H1777 C1786 0.929 . S
C1778 H1772 0.930 . S
C1778 C1779 1.367 . S
C1778 C1786 1.378 . S
C1779 C1778 1.367 . S
C1779 C1787 1.433 . S
C1780 H1776 0.929 . S
C1780 C1782 1.378 . S
C1780 C1784 1.350 . S
C1781 C1784 1.463 . S
C1781 C1786 1.350 . S
C1781 N1789 1.427 . S
C1782 H1773 0.930 . S
C1782 C1780 1.378 . S
C1782 C1783 1.367 . S
C1783 C1782 1.367 . S
C1783 C1785 1.433 . S
C1784 C1780 1.350 . S
C1784 C1781 1.463 . S
C1784 N1788 1.427 . S
C1785 H1775 0.929 . S
C1785 C1783 1.433 . S
C1785 N1788 1.384 . S
C1786 H1777 0.929 . S
C1786 C1778 1.378 . S
C1786 C1781 1.350 . S
C1787 H1774 0.929 . S
C1787 C1779 1.433 . S
C1787 N1789 1.384 . S
N1788 C1784 1.427 . S
N1788 C1785 1.384 . S
N1789 C1781 1.427 . S
N1789 C1787 1.384 . S
H1790 C1796 0.930 . S
H1791 C1800 0.930 . S
H1792 C1805 0.929 . S
H1793 C1803 0.929 . S
H1794 C1798 0.929 . S
H1795 C1804 0.929 . S
C1796 H1790 0.930 . S
C1796 C1797 1.367 . S
C1796 C1804 1.378 . S
C1797 C1796 1.367 . S
C1797 C1805 1.433 . S
C1798 H1794 0.929 . S
C1798 C1800 1.378 . S
C1798 C1802 1.350 . S
C1799 C1802 1.463 . S
C1799 C1804 1.350 . S
C1799 N1807 1.427 . S
C1800 H1791 0.930 . S
C1800 C1798 1.378 . S
C1800 C1801 1.367 . S
C1801 C1800 1.367 . S
C1801 C1803 1.433 . S
C1802 C1798 1.350 . S
C1802 C1799 1.463 . S
C1802 N1806 1.427 . S
C1803 H1793 0.929 . S
C1803 C1801 1.433 . S
C1803 N1806 1.384 . S
C1804 H1795 0.929 . S
C1804 C1796 1.378 . S
C1804 C1799 1.350 . S
C1805 H1792 0.929 . S
C1805 C1797 1.433 . S
C1805 N1807 1.384 . S
N1806 C1802 1.427 . S
N1806 C1803 1.384 . S
N1807 C1799 1.427 . S
N1807 C1805 1.384 . S
H1808 C1814 0.930 1_565 S
H1809 C1818 0.930 . S
H1810 C1823 0.929 . S
H1811 C1821 0.929 . S
H1812 C1816 0.929 . S
H1813 C1822 0.929 1_565 S
C1814 H1808 0.930 1_545 S
C1814 C1815 1.367 . S
C1814 C1822 1.378 . S
C1815 C1814 1.367 . S
C1815 C1823 1.433 . S
C1816 H1812 0.929 . S
C1816 C1818 1.378 . S
C1816 C1820 1.350 . S
C1817 C1820 1.463 . S
C1817 C1822 1.350 . S
C1817 N1825 1.427 . S
C1818 H1809 0.930 . S
C1818 C1816 1.378 . S
C1818 C1819 1.367 . S
C1819 C1818 1.367 . S
C1819 C1821 1.433 . S
C1820 C1816 1.350 . S
C1820 C1817 1.463 . S
C1820 N1824 1.427 . S
C1821 H1811 0.929 . S
C1821 C1819 1.433 . S
C1821 N1824 1.384 . S
C1822 H1813 0.929 1_545 S
C1822 C1814 1.378 . S
C1822 C1817 1.350 . S
C1823 H1810 0.929 . S
C1823 C1815 1.433 . S
C1823 N1825 1.384 . S
N1824 C1820 1.427 . S
N1824 C1821 1.384 . S
N1825 C1817 1.427 . S
N1825 C1823 1.384 . S
H1826 C1832 0.930 . S
H1827 C1836 0.930 . S
H1828 C1841 0.929 . S
H1829 C1839 0.929 . S
H1830 C1834 0.929 . S
H1831 C1840 0.929 . S
C1832 H1826 0.930 . S
C1832 C1833 1.367 . S
C1832 C1840 1.378 . S
C1833 C1832 1.367 . S
C1833 C1841 1.433 . S
C1834 H1830 0.929 . S
C1834 C1836 1.378 . S
C1834 C1838 1.350 . S
C1835 C1838 1.463 . S
C1835 C1840 1.350 . S
C1835 N1843 1.427 . S
C1836 H1827 0.930 . S
C1836 C1834 1.378 . S
C1836 C1837 1.367 . S
C1837 C1836 1.367 . S
C1837 C1839 1.433 . S
C1838 C1834 1.350 . S
C1838 C1835 1.463 . S
C1838 N1842 1.427 . S
C1839 H1829 0.929 . S
C1839 C1837 1.433 . S
C1839 N1842 1.384 . S
C1840 H1831 0.929 . S
C1840 C1832 1.378 . S
C1840 C1835 1.350 . S
C1841 H1828 0.929 . S
C1841 C1833 1.433 . S
C1841 N1843 1.384 . S
N1842 C1838 1.427 . S
N1842 C1839 1.384 . S
N1843 C1835 1.427 . S
N1843 C1841 1.384 . S
H1844 C1850 0.930 . S
H1845 C1854 0.930 . S
H1846 C1859 0.929 . S
H1847 C1857 0.929 . S
H1848 C1852 0.929 . S
H1849 C1858 0.933 . S
C1850 H1844 0.930 . S
C1850 C1851 1.365 1_545 S
C1850 C1858 1.381 . S
C1851 C1850 1.365 1_565 S
C1851 C1859 1.436 . S
C1852 H1848 0.929 . S
C1852 C1854 1.378 . S
C1852 C1856 1.350 . S
C1853 C1856 1.463 . S
C1853 C1858 1.342 1_565 S
C1853 N1861 1.427 . S
C1854 H1845 0.930 . S
C1854 C1852 1.378 . S
C1854 C1855 1.367 . S
C1855 C1854 1.367 . S
C1855 C1857 1.433 . S
C1856 C1852 1.350 . S
C1856 C1853 1.463 . S
C1856 N1860 1.427 . S
C1857 H1847 0.929 . S
C1857 C1855 1.433 . S
C1857 N1860 1.384 . S
C1858 H1849 0.933 . S
C1858 C1850 1.381 . S
C1858 C1853 1.342 1_545 S
C1859 H1846 0.929 . S
C1859 C1851 1.436 . S
C1859 N1861 1.384 . S
N1860 C1856 1.427 . S
N1860 C1857 1.384 . S
N1861 C1853 1.427 . S
N1861 C1859 1.384 . S
H1862 C1868 0.930 . S
H1863 C1872 0.930 . S
H1864 C1877 0.929 . S
H1865 C1875 0.929 . S
H1866 C1870 0.929 . S
H1867 C1876 0.929 . S
C1868 H1862 0.930 . S
C1868 C1869 1.367 . S
C1868 C1876 1.378 . S
C1869 C1868 1.367 . S
C1869 C1877 1.433 . S
C1870 H1866 0.929 . S
C1870 C1872 1.378 . S
C1870 C1874 1.350 . S
C1871 C1874 1.463 . S
C1871 C1876 1.350 . S
C1871 N1879 1.427 . S
C1872 H1863 0.930 . S
C1872 C1870 1.378 . S
C1872 C1873 1.367 . S
C1873 C1872 1.367 . S
C1873 C1875 1.433 . S
C1874 C1870 1.350 . S
C1874 C1871 1.463 . S
C1874 N1878 1.427 . S
C1875 H1865 0.929 . S
C1875 C1873 1.433 . S
C1875 N1878 1.384 . S
C1876 H1867 0.929 . S
C1876 C1868 1.378 . S
C1876 C1871 1.350 . S
C1877 H1864 0.929 . S
C1877 C1869 1.433 . S
C1877 N1879 1.384 . S
N1878 C1874 1.427 . S
N1878 C1875 1.384 . S
N1879 C1871 1.427 . S
N1879 C1877 1.384 . S
H1880 C1886 0.930 . S
H1881 C1890 0.930 . S
H1882 C1895 0.929 . S
H1883 C1893 0.929 . S
H1884 C1888 0.929 . S
H1885 C1894 0.929 . S
C1886 H1880 0.930 . S
C1886 C1887 1.367 1_565 S
C1886 C1894 1.378 . S
C1887 C1886 1.367 1_545 S
C1887 C1895 1.433 . S
C1888 H1884 0.929 . S
C1888 C1890 1.378 . S
C1888 C1892 1.350 . S
C1889 C1892 1.463 . S
C1889 C1894 1.350 1_545 S
C1889 N1897 1.427 . S
C1890 H1881 0.930 . S
C1890 C1888 1.378 . S
C1890 C1891 1.367 1_545 S
C1891 C1890 1.367 1_565 S
C1891 C1893 1.433 . S
C1892 C1888 1.350 . S
C1892 C1889 1.463 . S
C1892 N1896 1.427 1_545 S
C1893 H1883 0.929 . S
C1893 C1891 1.433 . S
C1893 N1896 1.384 . S
C1894 H1885 0.929 . S
C1894 C1886 1.378 . S
C1894 C1889 1.350 1_565 S
C1895 H1882 0.929 . S
C1895 C1887 1.433 . S
C1895 N1897 1.384 . S
N1896 C1892 1.427 1_565 S
N1896 C1893 1.384 . S
N1897 C1889 1.427 . S
N1897 C1895 1.384 . S
H1898 C1904 0.930 . S
H1899 C1908 0.930 . S
H1900 C1913 0.929 . S
H1901 C1911 0.929 . S
H1902 C1906 0.929 . S
H1903 C1912 0.929 . S
C1904 H1898 0.930 . S
C1904 C1905 1.367 . S
C1904 C1912 1.378 . S
C1905 C1904 1.367 . S
C1905 C1913 1.433 . S
C1906 H1902 0.929 . S
C1906 C1908 1.378 . S
C1906 C1910 1.350 . S
C1907 C1910 1.463 . S
C1907 C1912 1.350 . S
C1907 N1915 1.427 . S
C1908 H1899 0.930 . S
C1908 C1906 1.378 . S
C1908 C1909 1.367 . S
C1909 C1908 1.367 . S
C1909 C1911 1.433 . S
C1910 C1906 1.350 . S
C1910 C1907 1.463 . S
C1910 N1914 1.427 . S
C1911 H1901 0.929 . S
C1911 C1909 1.433 . S
C1911 N1914 1.384 . S
C1912 H1903 0.929 . S
C1912 C1904 1.378 . S
C1912 C1907 1.350 . S
C1913 H1900 0.929 . S
C1913 C1905 1.433 . S
C1913 N1915 1.384 . S
N1914 C1910 1.427 . S
N1914 C1911 1.384 . S
N1915 C1907 1.427 . S
N1915 C1913 1.384 . S
H1916 C1922 0.930 . S
H1917 C1926 0.930 . S
H1918 C1931 0.929 . S
H1919 C1929 0.929 . S
H1920 C1924 0.929 . S
H1921 C1930 0.929 . S
C1922 H1916 0.930 . S
C1922 C1923 1.367 1_565 S
C1922 C1930 1.378 . S
C1923 C1922 1.367 1_545 S
C1923 C1931 1.433 . S
C1924 H1920 0.929 . S
C1924 C1926 1.378 . S
C1924 C1928 1.350 . S
C1925 C1928 1.463 . S
C1925 C1930 1.350 1_545 S
C1925 N1933 1.427 . S
C1926 H1917 0.930 . S
C1926 C1924 1.378 . S
C1926 C1927 1.367 . S
C1927 C1926 1.367 . S
C1927 C1929 1.433 . S
C1928 C1924 1.350 . S
C1928 C1925 1.463 . S
C1928 N1932 1.427 . S
C1929 H1919 0.929 . S
C1929 C1927 1.433 . S
C1929 N1932 1.384 . S
C1930 H1921 0.929 . S
C1930 C1922 1.378 . S
C1930 C1925 1.350 1_565 S
C1931 H1918 0.929 . S
C1931 C1923 1.433 . S
C1931 N1933 1.384 . S
N1932 C1928 1.427 . S
N1932 C1929 1.384 . S
N1933 C1925 1.427 . S
N1933 C1931 1.384 . S
H1934 C1940 0.930 . S
H1935 C1944 0.930 . S
H1936 C1949 0.929 . S
H1937 C1947 0.929 . S
H1938 C1942 0.929 . S
H1939 C1948 0.929 . S
C1940 H1934 0.930 . S
C1940 C1941 1.367 . S
C1940 C1948 1.378 . S
C1941 C1940 1.367 . S
C1941 C1949 1.433 . S
C1942 H1938 0.929 . S
C1942 C1944 1.378 . S
C1942 C1946 1.350 . S
C1943 C1946 1.463 . S
C1943 C1948 1.350 . S
C1943 N1951 1.427 . S
C1944 H1935 0.930 . S
C1944 C1942 1.378 . S
C1944 C1945 1.367 . S
C1945 C1944 1.367 . S
C1945 C1947 1.433 . S
C1946 C1942 1.350 . S
C1946 C1943 1.463 . S
C1946 N1950 1.427 . S
C1947 H1937 0.929 . S
C1947 C1945 1.433 . S
C1947 N1950 1.384 . S
C1948 H1939 0.929 . S
C1948 C1940 1.378 . S
C1948 C1943 1.350 . S
C1949 H1936 0.929 . S
C1949 C1941 1.433 . S
C1949 N1951 1.384 . S
N1950 C1946 1.427 . S
N1950 C1947 1.384 . S
N1951 C1943 1.427 . S
N1951 C1949 1.384 . S
H1952 C1958 0.930 . S
H1953 C1962 0.930 . S
H1954 C1967 0.929 . S
H1955 C1965 0.929 1_556 S
H1956 C1960 0.929 . S
H1957 C1966 0.929 . S
C1958 H1952 0.930 . S
C1958 C1959 1.367 1_556 S
C1958 C1966 1.378 . S
C1959 C1958 1.367 1_554 S
C1959 C1967 1.433 . S
C1960 H1956 0.929 . S
C1960 C1962 1.378 . S
C1960 C1964 1.350 . S
C1961 C1964 1.463 . S
C1961 C1966 1.350 1_554 S
C1961 N1969 1.427 . S
C1962 H1953 0.930 . S
C1962 C1960 1.378 . S
C1962 C1963 1.367 . S
C1963 C1962 1.367 . S
C1963 C1965 1.433 . S
C1964 C1960 1.350 . S
C1964 C1961 1.463 . S
C1964 N1968 1.427 . S
C1965 H1955 0.929 1_554 S
C1965 C1963 1.433 . S
C1965 N1968 1.384 . S
C1966 H1957 0.929 . S
C1966 C1958 1.378 . S
C1966 C1961 1.350 1_556 S
C1967 H1954 0.929 . S
C1967 C1959 1.433 . S
C1967 N1969 1.384 . S
N1968 C1964 1.427 . S
N1968 C1965 1.384 . S
N1969 C1961 1.427 . S
N1969 C1967 1.384 . S
H1970 C1976 0.930 . S
H1971 C1980 0.930 . S
H1972 C1985 0.929 . S
H1973 C1983 0.929 . S
H1974 C1978 0.929 . S
H1975 C1984 0.929 . S
C1976 H1970 0.930 . S
C1976 C1977 1.331 1_556 S
C1976 C1984 1.378 . S
C1977 C1976 1.331 1_554 S
C1977 C1985 1.465 . S
C1978 H1974 0.929 . S
C1978 C1980 1.378 . S
C1978 C1982 1.350 1_554 S
C1979 C1982 1.463 . S
C1979 C1984 1.350 . S
C1979 N1987 1.427 1_556 S
C1980 H1971 0.930 . S
C1980 C1978 1.378 . S
C1980 C1981 1.367 1_554 S
C1981 C1980 1.367 1_556 S
C1981 C1983 1.433 . S
C1982 C1978 1.350 1_556 S
C1982 C1979 1.463 . S
C1982 N1986 1.427 . S
C1983 H1973 0.929 . S
C1983 C1981 1.433 . S
C1983 N1986 1.384 . S
C1984 H1975 0.929 . S
C1984 C1976 1.378 . S
C1984 C1979 1.350 . S
C1985 H1972 0.929 . S
C1985 C1977 1.465 . S
C1985 N1987 1.384 . S
N1986 C1982 1.427 . S
N1986 C1983 1.384 . S
N1987 C1979 1.427 1_554 S
N1987 C1985 1.384 . S
H1988 C1994 0.930 . S
H1989 C1998 0.930 . S
H1990 C2003 0.929 . S
H1991 C2001 0.929 . S
H1992 C1996 0.929 . S
H1993 C2002 0.929 . S
C1994 H1988 0.930 . S
C1994 C1995 1.367 . S
C1994 C2002 1.378 . S
C1995 C1994 1.367 . S
C1995 C2003 1.433 . S
C1996 H1992 0.929 . S
C1996 C1998 1.378 . S
C1996 C2000 1.350 . S
C1997 C2000 1.463 . S
C1997 C2002 1.350 . S
C1997 N2005 1.427 . S
C1998 H1989 0.930 . S
C1998 C1996 1.378 . S
C1998 C1999 1.367 . S
C1999 C1998 1.367 . S
C1999 C2001 1.433 . S
C2000 C1996 1.350 . S
C2000 C1997 1.463 . S
C2000 N2004 1.427 . S
C2001 H1991 0.929 . S
C2001 C1999 1.433 . S
C2001 N2004 1.384 . S
C2002 H1993 0.929 . S
C2002 C1994 1.378 . S
C2002 C1997 1.350 . S
C2003 H1990 0.929 . S
C2003 C1995 1.433 . S
C2003 N2005 1.384 . S
N2004 C2000 1.427 . S
N2004 C2001 1.384 . S
N2005 C1997 1.427 . S
N2005 C2003 1.384 . S
H2006 C2012 0.930 . S
H2007 C2016 0.930 . S
H2008 C2021 0.929 . S
H2009 C2019 0.929 . S
H2010 C2014 0.929 . S
H2011 C2020 0.929 . S
C2012 H2006 0.930 . S
C2012 C2013 1.367 . S
C2012 C2020 1.378 . S
C2013 C2012 1.367 . S
C2013 C2021 1.433 . S
C2014 H2010 0.929 . S
C2014 C2016 1.378 . S
C2014 C2018 1.350 . S
C2015 C2018 1.463 . S
C2015 C2020 1.350 . S
C2015 N2023 1.427 . S
C2016 H2007 0.930 . S
C2016 C2014 1.378 . S
C2016 C2017 1.367 . S
C2017 C2016 1.367 . S
C2017 C2019 1.433 . S
C2018 C2014 1.350 . S
C2018 C2015 1.463 . S
C2018 N2022 1.427 . S
C2019 H2009 0.929 . S
C2019 C2017 1.433 . S
C2019 N2022 1.384 . S
C2020 H2011 0.929 . S
C2020 C2012 1.378 . S
C2020 C2015 1.350 . S
C2021 H2008 0.929 . S
C2021 C2013 1.433 . S
C2021 N2023 1.384 . S
N2022 C2018 1.427 . S
N2022 C2019 1.384 . S
N2023 C2015 1.427 . S
N2023 C2021 1.384 . S
H2024 C2030 0.930 . S
H2025 C2034 0.930 . S
H2026 C2039 0.929 . S
H2027 C2037 0.929 . S
H2028 C2032 0.929 . S
H2029 C2038 0.929 . S
C2030 H2024 0.930 . S
C2030 C2031 1.367 . S
C2030 C2038 1.378 . S
C2031 C2030 1.367 . S
C2031 C2039 1.433 . S
C2032 H2028 0.929 . S
C2032 C2034 1.378 . S
C2032 C2036 1.350 . S
C2033 C2036 1.463 . S
C2033 C2038 1.350 . S
C2033 N2041 1.427 . S
C2034 H2025 0.930 . S
C2034 C2032 1.378 . S
C2034 C2035 1.367 . S
C2035 C2034 1.367 . S
C2035 C2037 1.433 . S
C2036 C2032 1.350 . S
C2036 C2033 1.463 . S
C2036 N2040 1.427 . S
C2037 H2027 0.929 . S
C2037 C2035 1.433 . S
C2037 N2040 1.384 . S
C2038 H2029 0.929 . S
C2038 C2030 1.378 . S
C2038 C2033 1.350 . S
C2039 H2026 0.929 . S
C2039 C2031 1.433 . S
C2039 N2041 1.384 . S
N2040 C2036 1.427 . S
N2040 C2037 1.384 . S
N2041 C2033 1.427 . S
N2041 C2039 1.384 . S
H2042 C2048 0.930 . S
H2043 C2052 0.930 . S
H2044 C2057 0.929 . S
H2045 C2055 0.929 . S
H2046 C2050 0.929 . S
H2047 C2056 0.929 . S
C2048 H2042 0.930 . S
C2048 C2049 1.367 . S
C2048 C2056 1.378 . S
C2049 C2048 1.367 . S
C2049 C2057 1.433 . S
C2050 H2046 0.929 . S
C2050 C2052 1.378 . S
C2050 C2054 1.350 . S
C2051 C2054 1.463 . S
C2051 C2056 1.350 . S
C2051 N2059 1.427 . S
C2052 H2043 0.930 . S
C2052 C2050 1.378 . S
C2052 C2053 1.367 . S
C2053 C2052 1.367 . S
C2053 C2055 1.433 . S
C2054 C2050 1.350 . S
C2054 C2051 1.463 . S
C2054 N2058 1.427 . S
C2055 H2045 0.929 . S
C2055 C2053 1.433 . S
C2055 N2058 1.384 . S
C2056 H2047 0.929 . S
C2056 C2048 1.378 . S
C2056 C2051 1.350 . S
C2057 H2044 0.929 . S
C2057 C2049 1.433 . S
C2057 N2059 1.384 . S
N2058 C2054 1.427 . S
N2058 C2055 1.384 . S
N2059 C2051 1.427 . S
N2059 C2057 1.384 . S
H2060 C2066 0.930 . S
H2061 C2070 0.930 . S
H2062 C2075 0.929 . S
H2063 C2073 0.929 . S
H2064 C2068 0.929 . S
H2065 C2074 0.929 . S
C2066 H2060 0.930 . S
C2066 C2067 1.367 . S
C2066 C2074 1.378 . S
C2067 C2066 1.367 . S
C2067 C2075 1.433 . S
C2068 H2064 0.929 . S
C2068 C2070 1.378 . S
C2068 C2072 1.350 . S
C2069 C2072 1.463 . S
C2069 C2074 1.350 . S
C2069 N2077 1.427 . S
C2070 H2061 0.930 . S
C2070 C2068 1.378 . S
C2070 C2071 1.367 . S
C2071 C2070 1.367 . S
C2071 C2073 1.433 . S
C2072 C2068 1.350 . S
C2072 C2069 1.463 . S
C2072 N2076 1.427 . S
C2073 H2063 0.929 . S
C2073 C2071 1.433 . S
C2073 N2076 1.384 . S
C2074 H2065 0.929 . S
C2074 C2066 1.378 . S
C2074 C2069 1.350 . S
C2075 H2062 0.929 . S
C2075 C2067 1.433 . S
C2075 N2077 1.384 . S
N2076 C2072 1.427 . S
N2076 C2073 1.384 . S
N2077 C2069 1.427 . S
N2077 C2075 1.384 . S
H2078 C2084 0.930 . S
H2079 C2088 0.930 . S
H2080 C2093 0.929 . S
H2081 C2091 0.929 . S
H2082 C2086 0.929 . S
H2083 C2092 0.929 . S
C2084 H2078 0.930 . S
C2084 C2085 1.367 . S
C2084 C2092 1.378 . S
C2085 C2084 1.367 . S
C2085 C2093 1.433 . S
C2086 H2082 0.929 . S
C2086 C2088 1.378 . S
C2086 C2090 1.350 . S
C2087 C2090 1.463 . S
C2087 C2092 1.350 . S
C2087 N2095 1.427 . S
C2088 H2079 0.930 . S
C2088 C2086 1.378 . S
C2088 C2089 1.367 . S
C2089 C2088 1.367 . S
C2089 C2091 1.433 . S
C2090 C2086 1.350 . S
C2090 C2087 1.463 . S
C2090 N2094 1.427 . S
C2091 H2081 0.929 . S
C2091 C2089 1.433 . S
C2091 N2094 1.384 . S
C2092 H2083 0.929 . S
C2092 C2084 1.378 . S
C2092 C2087 1.350 . S
C2093 H2080 0.929 . S
C2093 C2085 1.433 . S
C2093 N2095 1.384 . S
N2094 C2090 1.427 . S
N2094 C2091 1.384 . S
N2095 C2087 1.427 . S
N2095 C2093 1.384 . S
H2096 C2102 0.930 . S
H2097 C2106 0.930 . S
H2098 C2111 0.929 . S
H2099 C2109 0.929 . S
H2100 C2104 0.929 . S
H2101 C2110 0.929 . S
C2102 H2096 0.930 . S
C2102 C2103 1.367 . S
C2102 C2110 1.378 . S
C2103 C2102 1.367 . S
C2103 C2111 1.433 . S
C2104 H2100 0.929 . S
C2104 C2106 1.378 . S
C2104 C2108 1.350 . S
C2105 C2108 1.463 . S
C2105 C2110 1.350 . S
C2105 N2113 1.427 . S
C2106 H2097 0.930 . S
C2106 C2104 1.378 . S
C2106 C2107 1.367 . S
C2107 C2106 1.367 . S
C2107 C2109 1.433 . S
C2108 C2104 1.350 . S
C2108 C2105 1.463 . S
C2108 N2112 1.427 . S
C2109 H2099 0.929 . S
C2109 C2107 1.433 . S
C2109 N2112 1.384 . S
C2110 H2101 0.929 . S
C2110 C2102 1.378 . S
C2110 C2105 1.350 . S
C2111 H2098 0.929 . S
C2111 C2103 1.433 . S
C2111 N2113 1.384 . S
N2112 C2108 1.427 . S
N2112 C2109 1.384 . S
N2113 C2105 1.427 . S
N2113 C2111 1.384 . S
H2114 C2120 0.930 . S
H2115 C2124 0.930 . S
H2116 C2129 0.929 . S
H2117 C2127 0.929 . S
H2118 C2122 0.929 . S
H2119 C2128 0.929 . S
C2120 H2114 0.930 . S
C2120 C2121 1.367 . S
C2120 C2128 1.378 . S
C2121 C2120 1.367 . S
C2121 C2129 1.433 . S
C2122 H2118 0.929 . S
C2122 C2124 1.378 . S
C2122 C2126 1.350 . S
C2123 C2126 1.463 . S
C2123 C2128 1.350 . S
C2123 N2131 1.427 . S
C2124 H2115 0.930 . S
C2124 C2122 1.378 . S
C2124 C2125 1.367 . S
C2125 C2124 1.367 . S
C2125 C2127 1.433 . S
C2126 C2122 1.350 . S
C2126 C2123 1.463 . S
C2126 N2130 1.427 . S
C2127 H2117 0.929 . S
C2127 C2125 1.433 . S
C2127 N2130 1.384 . S
C2128 H2119 0.929 . S
C2128 C2120 1.378 . S
C2128 C2123 1.350 . S
C2129 H2116 0.929 . S
C2129 C2121 1.433 . S
C2129 N2131 1.384 . S
N2130 C2126 1.427 . S
N2130 C2127 1.384 . S
N2131 C2123 1.427 . S
N2131 C2129 1.384 . S
H2132 C2138 0.930 . S
H2133 C2142 0.930 . S
H2134 C2147 0.929 . S
H2135 C2145 0.929 1_655 S
H2136 C2140 0.929 . S
H2137 C2146 0.929 . S
C2138 H2132 0.930 . S
C2138 C2139 1.367 1_655 S
C2138 C2146 1.378 . S
C2139 C2138 1.367 1_455 S
C2139 C2147 1.433 . S
C2140 H2136 0.929 . S
C2140 C2142 1.378 . S
C2140 C2144 1.350 . S
C2141 C2144 1.463 . S
C2141 C2146 1.350 1_455 S
C2141 N2149 1.427 . S
C2142 H2133 0.930 . S
C2142 C2140 1.378 . S
C2142 C2143 1.367 . S
C2143 C2142 1.367 . S
C2143 C2145 1.433 . S
C2144 C2140 1.350 . S
C2144 C2141 1.463 . S
C2144 N2148 1.407 1_455 S
C2145 H2135 0.929 1_455 S
C2145 C2143 1.433 . S
C2145 N2148 1.381 1_455 S
C2146 H2137 0.929 . S
C2146 C2138 1.378 . S
C2146 C2141 1.350 1_655 S
C2147 H2134 0.929 . S
C2147 C2139 1.433 . S
C2147 N2149 1.384 . S
N2148 C2144 1.407 1_655 S
N2148 C2145 1.381 1_655 S
N2149 C2141 1.427 . S
N2149 C2147 1.384 . S
H2150 C2156 0.930 . S
H2151 C2160 0.930 . S
H2152 C2165 0.929 . S
H2153 C2163 0.929 . S
H2154 C2158 0.929 . S
H2155 C2164 0.929 . S
C2156 H2150 0.930 . S
C2156 C2157 1.367 . S
C2156 C2164 1.378 . S
C2157 C2156 1.367 . S
C2157 C2165 1.433 . S
C2158 H2154 0.929 . S
C2158 C2160 1.378 . S
C2158 C2162 1.350 . S
C2159 C2162 1.463 . S
C2159 C2164 1.350 . S
C2159 N2167 1.427 . S
C2160 H2151 0.930 . S
C2160 C2158 1.378 . S
C2160 C2161 1.367 . S
C2161 C2160 1.367 . S
C2161 C2163 1.433 . S
C2162 C2158 1.350 . S
C2162 C2159 1.463 . S
C2162 N2166 1.427 . S
C2163 H2153 0.929 . S
C2163 C2161 1.433 . S
C2163 N2166 1.384 . S
C2164 H2155 0.929 . S
C2164 C2156 1.378 . S
C2164 C2159 1.350 . S
C2165 H2152 0.929 . S
C2165 C2157 1.433 . S
C2165 N2167 1.384 . S
N2166 C2162 1.427 . S
N2166 C2163 1.384 . S
N2167 C2159 1.427 . S
N2167 C2165 1.384 . S
H2168 C2174 0.930 . S
H2169 C2178 0.930 1_554 S
H2170 C2183 0.929 . S
H2171 C2181 0.929 . S
H2172 C2176 0.929 . S
H2173 C2182 0.929 . S
C2174 H2168 0.930 . S
C2174 C2175 1.367 . S
C2174 C2182 1.378 . S
C2175 C2174 1.367 . S
C2175 C2183 1.433 . S
C2176 H2172 0.929 . S
C2176 C2178 1.378 . S
C2176 C2180 1.350 . S
C2177 C2180 1.463 . S
C2177 C2182 1.350 . S
C2177 N2185 1.427 . S
C2178 H2169 0.930 1_556 S
C2178 C2176 1.378 . S
C2178 C2179 1.367 . S
C2179 C2178 1.367 . S
C2179 C2181 1.433 . S
C2180 C2176 1.350 . S
C2180 C2177 1.463 . S
C2180 N2184 1.427 . S
C2181 H2171 0.929 . S
C2181 C2179 1.433 . S
C2181 N2184 1.384 . S
C2182 H2173 0.929 . S
C2182 C2174 1.378 . S
C2182 C2177 1.350 . S
C2183 H2170 0.929 . S
C2183 C2175 1.433 . S
C2183 N2185 1.384 . S
N2184 C2180 1.427 . S
N2184 C2181 1.384 . S
N2185 C2177 1.427 . S
N2185 C2183 1.384 . S
H2186 C2192 0.930 . S
H2187 C2196 0.930 . S
H2188 C2201 0.929 . S
H2189 C2199 0.929 . S
H2190 C2194 0.929 . S
H2191 C2200 0.929 . S
C2192 H2186 0.930 . S
C2192 C2193 1.367 . S
C2192 C2200 1.378 . S
C2193 C2192 1.367 . S
C2193 C2201 1.433 . S
C2194 H2190 0.929 . S
C2194 C2196 1.378 . S
C2194 C2198 1.350 . S
C2195 C2198 1.463 . S
C2195 C2200 1.350 . S
C2195 N2203 1.427 . S
C2196 H2187 0.930 . S
C2196 C2194 1.378 . S
C2196 C2197 1.367 . S
C2197 C2196 1.367 . S
C2197 C2199 1.433 . S
C2198 C2194 1.350 . S
C2198 C2195 1.463 . S
C2198 N2202 1.427 . S
C2199 H2189 0.929 . S
C2199 C2197 1.433 . S
C2199 N2202 1.384 . S
C2200 H2191 0.929 . S
C2200 C2192 1.378 . S
C2200 C2195 1.350 . S
C2201 H2188 0.929 . S
C2201 C2193 1.433 . S
C2201 N2203 1.384 . S
N2202 C2198 1.427 . S
N2202 C2199 1.384 . S
N2203 C2195 1.427 . S
N2203 C2201 1.384 . S
H2204 C2210 0.930 . S
H2205 C2214 0.930 . S
H2206 C2219 0.929 . S
H2207 C2217 0.932 . S
H2208 C2212 0.929 . S
H2209 C2218 0.929 . S
C2210 H2204 0.930 . S
C2210 C2211 1.367 1_655 S
C2210 C2218 1.378 . S
C2211 C2210 1.367 1_455 S
C2211 C2219 1.433 . S
C2212 H2208 0.929 . S
C2212 C2214 1.378 . S
C2212 C2216 1.350 . S
C2213 C2216 1.463 . S
C2213 C2218 1.350 1_455 S
C2213 N2221 1.427 . S
C2214 H2205 0.930 . S
C2214 C2212 1.378 . S
C2214 C2215 1.367 . S
C2215 C2214 1.367 . S
C2215 C2217 1.433 . S
C2216 C2212 1.350 . S
C2216 C2213 1.463 . S
C2216 N2220 1.427 . S
C2217 H2207 0.932 . S
C2217 C2215 1.433 . S
C2217 N2220 1.384 . S
C2218 H2209 0.929 . S
C2218 C2210 1.378 . S
C2218 C2213 1.350 1_655 S
C2219 H2206 0.929 . S
C2219 C2211 1.433 . S
C2219 N2221 1.384 . S
N2220 C2216 1.427 . S
N2220 C2217 1.384 . S
N2221 C2213 1.427 . S
N2221 C2219 1.384 . S
H2222 C2228 0.930 . S
H2223 C2232 0.930 . S
H2224 C2237 0.929 . S
H2225 C2235 0.929 . S
H2226 C2230 0.929 . S
H2227 C2236 0.929 . S
C2228 H2222 0.930 . S
C2228 C2229 1.367 . S
C2228 C2236 1.378 . S
C2229 C2228 1.367 . S
C2229 C2237 1.433 . S
C2230 H2226 0.929 . S
C2230 C2232 1.378 . S
C2230 C2234 1.350 . S
C2231 C2234 1.463 . S
C2231 C2236 1.350 . S
C2231 N2239 1.427 . S
C2232 H2223 0.930 . S
C2232 C2230 1.378 . S
C2232 C2233 1.367 . S
C2233 C2232 1.367 . S
C2233 C2235 1.433 . S
C2234 C2230 1.350 . S
C2234 C2231 1.463 . S
C2234 N2238 1.427 . S
C2235 H2225 0.929 . S
C2235 C2233 1.433 . S
C2235 N2238 1.384 . S
C2236 H2227 0.929 . S
C2236 C2228 1.378 . S
C2236 C2231 1.350 . S
C2237 H2224 0.929 . S
C2237 C2229 1.433 . S
C2237 N2239 1.384 . S
N2238 C2234 1.427 . S
N2238 C2235 1.384 . S
N2239 C2231 1.427 . S
N2239 C2237 1.384 . S
H2240 C2246 0.930 . S
H2241 C2250 0.930 . S
H2242 C2255 0.929 . S
H2243 C2253 0.929 . S
H2244 C2248 0.929 . S
H2245 C2254 0.929 . S
C2246 H2240 0.930 . S
C2246 C2247 1.367 . S
C2246 C2254 1.378 . S
C2247 C2246 1.367 . S
C2247 C2255 1.433 . S
C2248 H2244 0.929 . S
C2248 C2250 1.378 . S
C2248 C2252 1.350 . S
C2249 C2252 1.463 . S
C2249 C2254 1.350 . S
C2249 N2257 1.427 . S
C2250 H2241 0.930 . S
C2250 C2248 1.378 . S
C2250 C2251 1.367 . S
C2251 C2250 1.367 . S
C2251 C2253 1.433 . S
C2252 C2248 1.350 . S
C2252 C2249 1.463 . S
C2252 N2256 1.427 . S
C2253 H2243 0.929 . S
C2253 C2251 1.433 . S
C2253 N2256 1.384 . S
C2254 H2245 0.929 . S
C2254 C2246 1.378 . S
C2254 C2249 1.350 . S
C2255 H2242 0.929 . S
C2255 C2247 1.433 . S
C2255 N2257 1.384 . S
N2256 C2252 1.427 . S
N2256 C2253 1.384 . S
N2257 C2249 1.427 . S
N2257 C2255 1.384 . S
H2258 C2264 0.930 . S
H2259 C2268 0.930 . S
H2260 C2273 0.929 . S
H2261 C2271 0.929 . S
H2262 C2266 0.929 . S
H2263 C2272 0.929 . S
C2264 H2258 0.930 . S
C2264 C2265 1.367 . S
C2264 C2272 1.378 . S
C2265 C2264 1.367 . S
C2265 C2273 1.433 . S
C2266 H2262 0.929 . S
C2266 C2268 1.378 . S
C2266 C2270 1.350 . S
C2267 C2270 1.463 . S
C2267 C2272 1.350 . S
C2267 N2275 1.427 . S
C2268 H2259 0.930 . S
C2268 C2266 1.378 . S
C2268 C2269 1.367 . S
C2269 C2268 1.367 . S
C2269 C2271 1.433 . S
C2270 C2266 1.350 . S
C2270 C2267 1.463 . S
C2270 N2274 1.427 . S
C2271 H2261 0.929 . S
C2271 C2269 1.433 . S
C2271 N2274 1.384 . S
C2272 H2263 0.929 . S
C2272 C2264 1.378 . S
C2272 C2267 1.350 . S
C2273 H2260 0.929 . S
C2273 C2265 1.433 . S
C2273 N2275 1.384 . S
N2274 C2270 1.427 . S
N2274 C2271 1.384 . S
N2275 C2267 1.427 . S
N2275 C2273 1.384 . S
H2276 C2282 0.930 . S
H2277 C2286 0.930 . S
H2278 C2291 0.929 . S
H2279 C2289 0.929 . S
H2280 C2284 0.929 . S
H2281 C2290 0.929 . S
C2282 H2276 0.930 . S
C2282 C2283 1.367 . S
C2282 C2290 1.378 . S
C2283 C2282 1.367 . S
C2283 C2291 1.433 . S
C2284 H2280 0.929 . S
C2284 C2286 1.378 . S
C2284 C2288 1.350 . S
C2285 C2288 1.463 . S
C2285 C2290 1.350 . S
C2285 N2293 1.427 . S
C2286 H2277 0.930 . S
C2286 C2284 1.378 . S
C2286 C2287 1.367 . S
C2287 C2286 1.367 . S
C2287 C2289 1.433 . S
C2288 C2284 1.350 . S
C2288 C2285 1.463 . S
C2288 N2292 1.427 . S
C2289 H2279 0.929 . S
C2289 C2287 1.433 . S
C2289 N2292 1.384 . S
C2290 H2281 0.929 . S
C2290 C2282 1.378 . S
C2290 C2285 1.350 . S
C2291 H2278 0.929 . S
C2291 C2283 1.433 . S
C2291 N2293 1.384 . S
N2292 C2288 1.427 . S
N2292 C2289 1.384 . S
N2293 C2285 1.427 . S
N2293 C2291 1.384 . S
H2294 C2300 0.930 . S
H2295 C2304 0.930 . S
H2296 C2309 0.929 . S
H2297 C2307 0.929 . S
H2298 C2302 0.929 . S
H2299 C2308 0.929 . S
C2300 H2294 0.930 . S
C2300 C2301 1.367 . S
C2300 C2308 1.378 . S
C2301 C2300 1.367 . S
C2301 C2309 1.433 . S
C2302 H2298 0.929 . S
C2302 C2304 1.378 . S
C2302 C2306 1.350 . S
C2303 C2306 1.463 . S
C2303 C2308 1.350 . S
C2303 N2311 1.427 . S
C2304 H2295 0.930 . S
C2304 C2302 1.378 . S
C2304 C2305 1.367 . S
C2305 C2304 1.367 . S
C2305 C2307 1.433 . S
C2306 C2302 1.350 . S
C2306 C2303 1.463 . S
C2306 N2310 1.427 . S
C2307 H2297 0.929 . S
C2307 C2305 1.433 . S
C2307 N2310 1.384 . S
C2308 H2299 0.929 . S
C2308 C2300 1.378 . S
C2308 C2303 1.350 . S
C2309 H2296 0.929 . S
C2309 C2301 1.433 . S
C2309 N2311 1.384 . S
N2310 C2306 1.427 . S
N2310 C2307 1.384 . S
N2311 C2303 1.427 . S
N2311 C2309 1.384 . S
H2312 C2318 0.930 . S
H2313 C2322 0.930 . S
H2314 C2327 0.929 . S
H2315 C2325 0.929 . S
H2316 C2320 0.929 . S
H2317 C2326 0.929 . S
C2318 H2312 0.930 . S
C2318 C2319 1.367 . S
C2318 C2326 1.378 . S
C2319 C2318 1.367 . S
C2319 C2327 1.433 . S
C2320 H2316 0.929 . S
C2320 C2322 1.378 . S
C2320 C2324 1.350 . S
C2321 C2324 1.463 . S
C2321 C2326 1.350 . S
C2321 N2329 1.427 . S
C2322 H2313 0.930 . S
C2322 C2320 1.378 . S
C2322 C2323 1.367 . S
C2323 C2322 1.367 . S
C2323 C2325 1.433 . S
C2324 C2320 1.350 . S
C2324 C2321 1.463 . S
C2324 N2328 1.427 . S
C2325 H2315 0.929 . S
C2325 C2323 1.433 . S
C2325 N2328 1.384 . S
C2326 H2317 0.929 . S
C2326 C2318 1.378 . S
C2326 C2321 1.350 . S
C2327 H2314 0.929 . S
C2327 C2319 1.433 . S
C2327 N2329 1.384 . S
N2328 C2324 1.427 . S
N2328 C2325 1.384 . S
N2329 C2321 1.427 . S
N2329 C2327 1.384 . S
H2330 C2336 0.930 . S
H2331 C2340 0.930 . S
H2332 C2345 0.929 . S
H2333 C2343 0.929 . S
H2334 C2338 0.929 . S
H2335 C2344 0.929 . S
C2336 H2330 0.930 . S
C2336 C2337 1.367 . S
C2336 C2344 1.378 . S
C2337 C2336 1.367 . S
C2337 C2345 1.433 . S
C2338 H2334 0.929 . S
C2338 C2340 1.378 . S
C2338 C2342 1.350 . S
C2339 C2342 1.463 . S
C2339 C2344 1.350 . S
C2339 N2347 1.427 . S
C2340 H2331 0.930 . S
C2340 C2338 1.378 . S
C2340 C2341 1.367 . S
C2341 C2340 1.367 . S
C2341 C2343 1.433 . S
C2342 C2338 1.350 . S
C2342 C2339 1.463 . S
C2342 N2346 1.427 . S
C2343 H2333 0.929 . S
C2343 C2341 1.433 . S
C2343 N2346 1.384 . S
C2344 H2335 0.929 . S
C2344 C2336 1.378 . S
C2344 C2339 1.350 . S
C2345 H2332 0.929 . S
C2345 C2337 1.433 . S
C2345 N2347 1.384 . S
N2346 C2342 1.427 . S
N2346 C2343 1.384 . S
N2347 C2339 1.427 . S
N2347 C2345 1.384 . S
H2348 C2354 0.930 . S
H2349 C2358 0.930 . S
H2350 C2363 0.929 . S
H2351 C2361 0.929 . S
H2352 C2356 0.929 . S
H2353 C2362 0.929 . S
C2354 H2348 0.930 . S
C2354 C2355 1.367 . S
C2354 C2362 1.378 . S
C2355 C2354 1.367 . S
C2355 C2363 1.433 . S
C2356 H2352 0.929 . S
C2356 C2358 1.378 . S
C2356 C2360 1.350 . S
C2357 C2360 1.463 . S
C2357 C2362 1.350 . S
C2357 N2365 1.427 . S
C2358 H2349 0.930 . S
C2358 C2356 1.378 . S
C2358 C2359 1.367 . S
C2359 C2358 1.367 . S
C2359 C2361 1.433 . S
C2360 C2356 1.350 . S
C2360 C2357 1.463 . S
C2360 N2364 1.427 . S
C2361 H2351 0.929 . S
C2361 C2359 1.433 . S
C2361 N2364 1.384 . S
C2362 H2353 0.929 . S
C2362 C2354 1.378 . S
C2362 C2357 1.350 . S
C2363 H2350 0.929 . S
C2363 C2355 1.433 . S
C2363 N2365 1.384 . S
N2364 C2360 1.427 . S
N2364 C2361 1.384 . S
N2365 C2357 1.427 . S
N2365 C2363 1.384 . S
H2366 C2372 0.930 . S
H2367 C2376 0.930 . S
H2368 C2381 0.929 . S
H2369 C2379 0.929 . S
H2370 C2374 0.929 . S
H2371 C2380 0.929 . S
C2372 H2366 0.930 . S
C2372 C2373 1.367 . S
C2372 C2380 1.378 . S
C2373 C2372 1.367 . S
C2373 C2381 1.433 . S
C2374 H2370 0.929 . S
C2374 C2376 1.378 . S
C2374 C2378 1.350 . S
C2375 C2378 1.463 . S
C2375 C2380 1.350 . S
C2375 N2383 1.427 . S
C2376 H2367 0.930 . S
C2376 C2374 1.378 . S
C2376 C2377 1.367 . S
C2377 C2376 1.367 . S
C2377 C2379 1.433 . S
C2378 C2374 1.350 . S
C2378 C2375 1.463 . S
C2378 N2382 1.427 . S
C2379 H2369 0.929 . S
C2379 C2377 1.433 . S
C2379 N2382 1.384 . S
C2380 H2371 0.929 . S
C2380 C2372 1.378 . S
C2380 C2375 1.350 . S
C2381 H2368 0.929 . S
C2381 C2373 1.433 . S
C2381 N2383 1.384 . S
N2382 C2378 1.427 . S
N2382 C2379 1.384 . S
N2383 C2375 1.427 . S
N2383 C2381 1.384 . S
H2384 C2390 0.930 . S
H2385 C2394 0.930 . S
H2386 C2399 0.929 . S
H2387 C2397 0.929 . S
H2388 C2392 0.929 . S
H2389 C2398 0.929 . S
C2390 H2384 0.930 . S
C2390 C2391 1.367 . S
C2390 C2398 1.378 . S
C2391 C2390 1.367 . S
C2391 C2399 1.433 . S
C2392 H2388 0.929 . S
C2392 C2394 1.378 . S
C2392 C2396 1.350 . S
C2393 C2396 1.463 . S
C2393 C2398 1.350 . S
C2393 N2401 1.427 . S
C2394 H2385 0.930 . S
C2394 C2392 1.378 . S
C2394 C2395 1.367 . S
C2395 C2394 1.367 . S
C2395 C2397 1.433 . S
C2396 C2392 1.350 . S
C2396 C2393 1.463 . S
C2396 N2400 1.427 . S
C2397 H2387 0.929 . S
C2397 C2395 1.433 . S
C2397 N2400 1.384 . S
C2398 H2389 0.929 . S
C2398 C2390 1.378 . S
C2398 C2393 1.350 . S
C2399 H2386 0.929 . S
C2399 C2391 1.433 . S
C2399 N2401 1.384 . S
N2400 C2396 1.427 . S
N2400 C2397 1.384 . S
N2401 C2393 1.427 . S
N2401 C2399 1.384 . S
H2402 C2408 0.930 . S
H2403 C2412 0.930 . S
H2404 C2417 0.929 . S
H2405 C2415 0.929 . S
H2406 C2410 0.929 . S
H2407 C2416 0.929 . S
C2408 H2402 0.930 . S
C2408 C2409 1.367 . S
C2408 C2416 1.378 . S
C2409 C2408 1.367 . S
C2409 C2417 1.433 . S
C2410 H2406 0.929 . S
C2410 C2412 1.378 . S
C2410 C2414 1.350 . S
C2411 C2414 1.463 . S
C2411 C2416 1.350 . S
C2411 N2419 1.427 . S
C2412 H2403 0.930 . S
C2412 C2410 1.378 . S
C2412 C2413 1.367 . S
C2413 C2412 1.367 . S
C2413 C2415 1.433 . S
C2414 C2410 1.350 . S
C2414 C2411 1.463 . S
C2414 N2418 1.427 . S
C2415 H2405 0.929 . S
C2415 C2413 1.433 . S
C2415 N2418 1.384 . S
C2416 H2407 0.929 . S
C2416 C2408 1.378 . S
C2416 C2411 1.350 . S
C2417 H2404 0.929 . S
C2417 C2409 1.433 . S
C2417 N2419 1.384 . S
N2418 C2414 1.427 . S
N2418 C2415 1.384 . S
N2419 C2411 1.427 . S
N2419 C2417 1.384 . S
H2420 C2426 0.930 . S
H2421 C2430 0.930 . S
H2422 C2435 0.929 . S
H2423 C2433 0.929 . S
H2424 C2428 0.929 . S
H2425 C2434 0.929 . S
C2426 H2420 0.930 . S
C2426 C2427 1.367 . S
C2426 C2434 1.378 . S
C2427 C2426 1.367 . S
C2427 C2435 1.433 . S
C2428 H2424 0.929 . S
C2428 C2430 1.378 . S
C2428 C2432 1.350 . S
C2429 C2432 1.463 . S
C2429 C2434 1.350 . S
C2429 N2437 1.427 . S
C2430 H2421 0.930 . S
C2430 C2428 1.378 . S
C2430 C2431 1.367 . S
C2431 C2430 1.367 . S
C2431 C2433 1.433 . S
C2432 C2428 1.350 . S
C2432 C2429 1.463 . S
C2432 N2436 1.427 . S
C2433 H2423 0.929 . S
C2433 C2431 1.433 . S
C2433 N2436 1.384 . S
C2434 H2425 0.929 . S
C2434 C2426 1.378 . S
C2434 C2429 1.350 . S
C2435 H2422 0.929 . S
C2435 C2427 1.433 . S
C2435 N2437 1.384 . S
N2436 C2432 1.427 . S
N2436 C2433 1.384 . S
N2437 C2429 1.427 . S
N2437 C2435 1.384 . S
H2438 C2444 0.930 . S
H2439 C2448 0.930 . S
H2440 C2453 0.929 . S
H2441 C2451 0.929 . S
H2442 C2446 0.929 . S
H2443 C2452 0.929 . S
C2444 H2438 0.930 . S
C2444 C2445 1.367 1_556 S
C2444 C2452 1.378 . S
C2445 C2444 1.367 1_554 S
C2445 C2453 1.433 . S
C2446 H2442 0.929 . S
C2446 C2448 1.378 . S
C2446 C2450 1.350 . S
C2447 C2450 1.463 . S
C2447 C2452 1.350 1_554 S
C2447 N2455 1.427 . S
C2448 H2439 0.930 . S
C2448 C2446 1.378 . S
C2448 C2449 1.367 . S
C2449 C2448 1.367 . S
C2449 C2451 1.433 1_554 S
C2450 C2446 1.350 . S
C2450 C2447 1.463 . S
C2450 N2454 1.427 1_554 S
C2451 H2441 0.929 . S
C2451 C2449 1.433 1_556 S
C2451 N2454 1.384 . S
C2452 H2443 0.929 . S
C2452 C2444 1.378 . S
C2452 C2447 1.350 1_556 S
C2453 H2440 0.929 . S
C2453 C2445 1.433 . S
C2453 N2455 1.384 . S
N2454 C2450 1.427 1_556 S
N2454 C2451 1.384 . S
N2455 C2447 1.427 . S
N2455 C2453 1.384 . S
H2456 C2462 0.930 . S
H2457 C2466 0.930 . S
H2458 C2471 0.929 . S
H2459 C2469 0.929 . S
H2460 C2464 0.929 . S
H2461 C2470 0.929 . S
C2462 H2456 0.930 . S
C2462 C2463 1.367 . S
C2462 C2470 1.378 . S
C2463 C2462 1.367 . S
C2463 C2471 1.433 . S
C2464 H2460 0.929 . S
C2464 C2466 1.378 . S
C2464 C2468 1.350 . S
C2465 C2468 1.463 . S
C2465 C2470 1.350 . S
C2465 N2473 1.427 . S
C2466 H2457 0.930 . S
C2466 C2464 1.378 . S
C2466 C2467 1.367 . S
C2467 C2466 1.367 . S
C2467 C2469 1.433 . S
C2468 C2464 1.350 . S
C2468 C2465 1.463 . S
C2468 N2472 1.427 . S
C2469 H2459 0.929 . S
C2469 C2467 1.433 . S
C2469 N2472 1.384 . S
C2470 H2461 0.929 . S
C2470 C2462 1.378 . S
C2470 C2465 1.350 . S
C2471 H2458 0.929 . S
C2471 C2463 1.433 . S
C2471 N2473 1.384 . S
N2472 C2468 1.427 . S
N2472 C2469 1.384 . S
N2473 C2465 1.427 . S
N2473 C2471 1.384 . S
H2474 C2480 0.930 . S
H2475 C2484 0.930 . S
H2476 C2489 0.929 . S
H2477 C2487 0.929 . S
H2478 C2482 0.929 . S
H2479 C2488 0.929 . S
C2480 H2474 0.930 . S
C2480 C2481 1.367 . S
C2480 C2488 1.378 . S
C2481 C2480 1.367 . S
C2481 C2489 1.433 1_554 S
C2482 H2478 0.929 . S
C2482 C2484 1.378 . S
C2482 C2486 1.350 1_556 S
C2483 C2486 1.463 . S
C2483 C2488 1.350 . S
C2483 N2491 1.427 1_554 S
C2484 H2475 0.930 . S
C2484 C2482 1.378 . S
C2484 C2485 1.379 . S
C2485 C2484 1.379 . S
C2485 C2487 1.420 1_556 S
C2486 C2482 1.350 1_554 S
C2486 C2483 1.463 . S
C2486 N2490 1.427 . S
C2487 H2477 0.929 . S
C2487 C2485 1.420 1_554 S
C2487 N2490 1.384 . S
C2488 H2479 0.929 . S
C2488 C2480 1.378 . S
C2488 C2483 1.350 . S
C2489 H2476 0.929 . S
C2489 C2481 1.433 1_556 S
C2489 N2491 1.384 . S
N2490 C2486 1.427 . S
N2490 C2487 1.384 . S
N2491 C2483 1.427 1_556 S
N2491 C2489 1.384 . S
H2492 C2498 0.930 . S
H2493 C2502 0.930 . S
H2494 C2507 0.929 . S
H2495 C2505 0.929 . S
H2496 C2500 0.929 . S
H2497 C2506 0.929 . S
C2498 H2492 0.930 . S
C2498 C2499 1.367 . S
C2498 C2506 1.378 . S
C2499 C2498 1.367 . S
C2499 C2507 1.433 . S
C2500 H2496 0.929 . S
C2500 C2502 1.378 . S
C2500 C2504 1.350 . S
C2501 C2504 1.463 . S
C2501 C2506 1.350 . S
C2501 N2509 1.427 . S
C2502 H2493 0.930 . S
C2502 C2500 1.378 . S
C2502 C2503 1.367 . S
C2503 C2502 1.367 . S
C2503 C2505 1.433 . S
C2504 C2500 1.350 . S
C2504 C2501 1.463 . S
C2504 N2508 1.427 . S
C2505 H2495 0.929 . S
C2505 C2503 1.433 . S
C2505 N2508 1.384 . S
C2506 H2497 0.929 . S
C2506 C2498 1.378 . S
C2506 C2501 1.350 . S
C2507 H2494 0.929 . S
C2507 C2499 1.433 . S
C2507 N2509 1.384 . S
N2508 C2504 1.427 . S
N2508 C2505 1.384 . S
N2509 C2501 1.427 . S
N2509 C2507 1.384 . S
H2510 C2516 0.930 . S
H2511 C2520 0.930 . S
H2512 C2525 0.929 . S
H2513 C2523 0.929 . S
H2514 C2518 0.929 . S
H2515 C2524 0.929 . S
C2516 H2510 0.930 . S
C2516 C2517 1.367 . S
C2516 C2524 1.378 . S
C2517 C2516 1.367 . S
C2517 C2525 1.433 . S
C2518 H2514 0.929 . S
C2518 C2520 1.378 . S
C2518 C2522 1.350 . S
C2519 C2522 1.463 . S
C2519 C2524 1.350 . S
C2519 N2527 1.427 . S
C2520 H2511 0.930 . S
C2520 C2518 1.378 . S
C2520 C2521 1.367 . S
C2521 C2520 1.367 . S
C2521 C2523 1.433 . S
C2522 C2518 1.350 . S
C2522 C2519 1.463 . S
C2522 N2526 1.427 . S
C2523 H2513 0.929 . S
C2523 C2521 1.433 . S
C2523 N2526 1.384 . S
C2524 H2515 0.929 . S
C2524 C2516 1.378 . S
C2524 C2519 1.350 . S
C2525 H2512 0.929 . S
C2525 C2517 1.433 . S
C2525 N2527 1.384 . S
N2526 C2522 1.427 . S
N2526 C2523 1.384 . S
N2527 C2519 1.427 . S
N2527 C2525 1.384 . S
H2528 C2534 0.930 . S
H2529 C2538 0.930 . S
H2530 C2543 0.929 . S
H2531 C2541 0.929 . S
H2532 C2536 0.929 . S
H2533 C2542 0.929 . S
C2534 H2528 0.930 . S
C2534 C2535 1.367 . S
C2534 C2542 1.378 . S
C2535 C2534 1.367 . S
C2535 C2543 1.433 . S
C2536 H2532 0.929 . S
C2536 C2538 1.378 . S
C2536 C2540 1.350 . S
C2537 C2540 1.463 . S
C2537 C2542 1.350 . S
C2537 N2545 1.427 . S
C2538 H2529 0.930 . S
C2538 C2536 1.378 . S
C2538 C2539 1.367 . S
C2539 C2538 1.367 . S
C2539 C2541 1.433 . S
C2540 C2536 1.350 . S
C2540 C2537 1.463 . S
C2540 N2544 1.427 . S
C2541 H2531 0.929 . S
C2541 C2539 1.433 . S
C2541 N2544 1.384 . S
C2542 H2533 0.929 . S
C2542 C2534 1.378 . S
C2542 C2537 1.350 . S
C2543 H2530 0.929 . S
C2543 C2535 1.433 . S
C2543 N2545 1.384 . S
N2544 C2540 1.427 . S
N2544 C2541 1.384 . S
N2545 C2537 1.427 . S
N2545 C2543 1.384 . S
H2546 C2552 0.930 . S
H2547 C2556 0.930 . S
H2548 C2561 0.929 . S
H2549 C2559 0.929 . S
H2550 C2554 0.929 . S
H2551 C2560 0.929 . S
C2552 H2546 0.930 . S
C2552 C2553 1.367 . S
C2552 C2560 1.378 . S
C2553 C2552 1.367 . S
C2553 C2561 1.433 . S
C2554 H2550 0.929 . S
C2554 C2556 1.378 . S
C2554 C2558 1.350 . S
C2555 C2558 1.463 . S
C2555 C2560 1.350 . S
C2555 N2563 1.427 . S
C2556 H2547 0.930 . S
C2556 C2554 1.378 . S
C2556 C2557 1.367 . S
C2557 C2556 1.367 . S
C2557 C2559 1.433 . S
C2558 C2554 1.350 . S
C2558 C2555 1.463 . S
C2558 N2562 1.427 . S
C2559 H2549 0.929 . S
C2559 C2557 1.433 . S
C2559 N2562 1.384 . S
C2560 H2551 0.929 . S
C2560 C2552 1.378 . S
C2560 C2555 1.350 . S
C2561 H2548 0.929 . S
C2561 C2553 1.433 . S
C2561 N2563 1.384 . S
N2562 C2558 1.427 . S
N2562 C2559 1.384 . S
N2563 C2555 1.427 . S
N2563 C2561 1.384 . S
H2564 C2570 0.930 . S
H2565 C2574 0.933 . S
H2566 C2579 0.929 . S
H2567 C2577 0.929 1_554 S
H2568 C2572 0.929 . S
H2569 C2578 0.929 . S
C2570 H2564 0.930 . S
C2570 C2571 1.367 1_655 S
C2570 C2578 1.378 . S
C2571 C2570 1.367 1_455 S
C2571 C2579 1.433 . S
C2572 H2568 0.929 . S
C2572 C2574 1.379 . S
C2572 C2576 1.350 1_455 S
C2573 C2576 1.463 . S
C2573 C2578 1.350 . S
C2573 N2581 1.427 1_655 S
C2574 H2565 0.933 . S
C2574 C2572 1.379 . S
C2574 C2575 1.364 1_455 S
C2575 C2574 1.364 1_655 S
C2575 C2577 1.433 . S
C2576 C2572 1.350 1_655 S
C2576 C2573 1.463 . S
C2576 N2580 1.427 . S
C2577 H2567 0.929 1_556 S
C2577 C2575 1.433 . S
C2577 N2580 1.384 . S
C2578 H2569 0.929 . S
C2578 C2570 1.378 . S
C2578 C2573 1.350 . S
C2579 H2566 0.929 . S
C2579 C2571 1.433 . S
C2579 N2581 1.384 . S
N2580 C2576 1.427 . S
N2580 C2577 1.384 . S
N2581 C2573 1.427 1_455 S
N2581 C2579 1.384 . S
H2582 C2588 0.930 . S
H2583 C2592 0.930 . S
H2584 C2597 0.929 . S
H2585 C2595 0.929 . S
H2586 C2590 0.929 . S
H2587 C2596 0.929 . S
C2588 H2582 0.930 . S
C2588 C2589 1.367 . S
C2588 C2596 1.378 . S
C2589 C2588 1.367 . S
C2589 C2597 1.433 . S
C2590 H2586 0.929 . S
C2590 C2592 1.378 . S
C2590 C2594 1.350 . S
C2591 C2594 1.463 . S
C2591 C2596 1.350 . S
C2591 N2599 1.427 . S
C2592 H2583 0.930 . S
C2592 C2590 1.378 . S
C2592 C2593 1.367 . S
C2593 C2592 1.367 . S
C2593 C2595 1.433 . S
C2594 C2590 1.350 . S
C2594 C2591 1.463 . S
C2594 N2598 1.427 . S
C2595 H2585 0.929 . S
C2595 C2593 1.433 . S
C2595 N2598 1.384 . S
C2596 H2587 0.929 . S
C2596 C2588 1.378 . S
C2596 C2591 1.350 . S
C2597 H2584 0.929 . S
C2597 C2589 1.433 . S
C2597 N2599 1.384 . S
N2598 C2594 1.427 . S
N2598 C2595 1.384 . S
N2599 C2591 1.427 . S
N2599 C2597 1.384 . S
H2600 C2606 0.930 . S
H2601 C2610 0.930 . S
H2602 C2615 0.929 . S
H2603 C2613 0.929 . S
H2604 C2608 0.929 . S
H2605 C2614 0.929 . S
C2606 H2600 0.930 . S
C2606 C2607 1.367 . S
C2606 C2614 1.378 . S
C2607 C2606 1.367 . S
C2607 C2615 1.433 . S
C2608 H2604 0.929 . S
C2608 C2610 1.378 . S
C2608 C2612 1.350 . S
C2609 C2612 1.463 . S
C2609 C2614 1.350 . S
C2609 N2617 1.427 . S
C2610 H2601 0.930 . S
C2610 C2608 1.378 . S
C2610 C2611 1.367 . S
C2611 C2610 1.367 . S
C2611 C2613 1.433 . S
C2612 C2608 1.350 . S
C2612 C2609 1.463 . S
C2612 N2616 1.427 . S
C2613 H2603 0.929 . S
C2613 C2611 1.433 . S
C2613 N2616 1.384 . S
C2614 H2605 0.929 . S
C2614 C2606 1.378 . S
C2614 C2609 1.350 . S
C2615 H2602 0.929 . S
C2615 C2607 1.433 . S
C2615 N2617 1.384 . S
N2616 C2612 1.427 . S
N2616 C2613 1.384 . S
N2617 C2609 1.427 . S
N2617 C2615 1.384 . S
H2618 C2624 0.930 . S
H2619 C2628 0.930 . S
H2620 C2633 0.929 . S
H2621 C2631 0.929 . S
H2622 C2626 0.929 . S
H2623 C2632 0.929 . S
C2624 H2618 0.930 . S
C2624 C2625 1.367 . S
C2624 C2632 1.378 . S
C2625 C2624 1.367 . S
C2625 C2633 1.433 . S
C2626 H2622 0.929 . S
C2626 C2628 1.378 . S
C2626 C2630 1.350 . S
C2627 C2630 1.463 . S
C2627 C2632 1.350 . S
C2627 N2635 1.427 . S
C2628 H2619 0.930 . S
C2628 C2626 1.378 . S
C2628 C2629 1.367 . S
C2629 C2628 1.367 . S
C2629 C2631 1.433 . S
C2630 C2626 1.350 . S
C2630 C2627 1.463 . S
C2630 N2634 1.427 . S
C2631 H2621 0.929 . S
C2631 C2629 1.433 . S
C2631 N2634 1.384 . S
C2632 H2623 0.929 . S
C2632 C2624 1.378 . S
C2632 C2627 1.350 . S
C2633 H2620 0.929 . S
C2633 C2625 1.433 . S
C2633 N2635 1.384 . S
N2634 C2630 1.427 . S
N2634 C2631 1.384 . S
N2635 C2627 1.427 . S
N2635 C2633 1.384 . S
H2636 C2642 0.930 . S
H2637 C2646 0.930 . S
H2638 C2651 0.929 . S
H2639 C2649 0.929 . S
H2640 C2644 0.929 1_455 S
H2641 C2650 0.929 . S
C2642 H2636 0.930 . S
C2642 C2643 1.367 1_655 S
C2642 C2650 1.378 . S
C2643 C2642 1.367 1_455 S
C2643 C2651 1.433 . S
C2644 H2640 0.929 1_655 S
C2644 C2646 1.378 . S
C2644 C2648 1.350 . S
C2645 C2648 1.463 . S
C2645 C2650 1.350 . S
C2645 N2653 1.427 1_655 S
C2646 H2637 0.930 . S
C2646 C2644 1.378 . S
C2646 C2647 1.367 . S
C2647 C2646 1.367 . S
C2647 C2649 1.433 . S
C2648 C2644 1.350 . S
C2648 C2645 1.463 . S
C2648 N2652 1.427 . S
C2649 H2639 0.929 . S
C2649 C2647 1.433 . S
C2649 N2652 1.384 . S
C2650 H2641 0.929 . S
C2650 C2642 1.378 . S
C2650 C2645 1.350 . S
C2651 H2638 0.929 . S
C2651 C2643 1.433 . S
C2651 N2653 1.384 . S
N2652 C2648 1.427 . S
N2652 C2649 1.384 . S
N2653 C2645 1.427 1_455 S
N2653 C2651 1.384 . S
H2654 C2660 0.930 . S
H2655 C2664 0.930 . S
H2656 C2669 0.929 . S
H2657 C2667 0.929 . S
H2658 C2662 0.929 . S
H2659 C2668 0.929 . S
C2660 H2654 0.930 . S
C2660 C2661 1.367 . S
C2660 C2668 1.378 . S
C2661 C2660 1.367 . S
C2661 C2669 1.433 . S
C2662 H2658 0.929 . S
C2662 C2664 1.378 . S
C2662 C2666 1.350 . S
C2663 C2666 1.463 . S
C2663 C2668 1.350 . S
C2663 N2671 1.427 . S
C2664 H2655 0.930 . S
C2664 C2662 1.378 . S
C2664 C2665 1.367 . S
C2665 C2664 1.367 . S
C2665 C2667 1.433 . S
C2666 C2662 1.350 . S
C2666 C2663 1.463 . S
C2666 N2670 1.427 . S
C2667 H2657 0.929 . S
C2667 C2665 1.433 . S
C2667 N2670 1.384 . S
C2668 H2659 0.929 . S
C2668 C2660 1.378 . S
C2668 C2663 1.350 . S
C2669 H2656 0.929 . S
C2669 C2661 1.433 . S
C2669 N2671 1.384 . S
N2670 C2666 1.427 . S
N2670 C2667 1.384 . S
N2671 C2663 1.427 . S
N2671 C2669 1.384 . S
H2672 C2678 0.930 . S
H2673 C2682 0.930 . S
H2674 C2687 0.929 . S
H2675 C2685 0.929 . S
H2676 C2680 0.929 . S
H2677 C2686 0.929 . S
C2678 H2672 0.930 . S
C2678 C2679 1.367 . S
C2678 C2686 1.378 . S
C2679 C2678 1.367 . S
C2679 C2687 1.433 . S
C2680 H2676 0.929 . S
C2680 C2682 1.378 . S
C2680 C2684 1.350 . S
C2681 C2684 1.463 . S
C2681 C2686 1.350 . S
C2681 N2689 1.427 . S
C2682 H2673 0.930 . S
C2682 C2680 1.378 . S
C2682 C2683 1.367 . S
C2683 C2682 1.367 . S
C2683 C2685 1.433 . S
C2684 C2680 1.350 . S
C2684 C2681 1.463 . S
C2684 N2688 1.427 . S
C2685 H2675 0.929 . S
C2685 C2683 1.433 . S
C2685 N2688 1.384 . S
C2686 H2677 0.929 . S
C2686 C2678 1.378 . S
C2686 C2681 1.350 . S
C2687 H2674 0.929 . S
C2687 C2679 1.433 . S
C2687 N2689 1.384 . S
N2688 C2684 1.427 . S
N2688 C2685 1.384 . S
N2689 C2681 1.427 . S
N2689 C2687 1.384 . S
H2690 C2696 0.930 . S
H2691 C2700 0.930 . S
H2692 C2705 0.929 . S
H2693 C2703 0.929 . S
H2694 C2698 0.929 . S
H2695 C2704 0.929 . S
C2696 H2690 0.930 . S
C2696 C2697 1.367 . S
C2696 C2704 1.378 . S
C2697 C2696 1.367 . S
C2697 C2705 1.433 . S
C2698 H2694 0.929 . S
C2698 C2700 1.378 . S
C2698 C2702 1.350 . S
C2699 C2702 1.463 . S
C2699 C2704 1.350 . S
C2699 N2707 1.427 . S
C2700 H2691 0.930 . S
C2700 C2698 1.378 . S
C2700 C2701 1.367 . S
C2701 C2700 1.367 . S
C2701 C2703 1.433 . S
C2702 C2698 1.350 . S
C2702 C2699 1.463 . S
C2702 N2706 1.427 . S
C2703 H2693 0.929 . S
C2703 C2701 1.433 . S
C2703 N2706 1.384 . S
C2704 H2695 0.929 . S
C2704 C2696 1.378 . S
C2704 C2699 1.350 . S
C2705 H2692 0.929 . S
C2705 C2697 1.433 . S
C2705 N2707 1.384 . S
N2706 C2702 1.427 . S
N2706 C2703 1.384 . S
N2707 C2699 1.427 . S
N2707 C2705 1.384 . S
H2708 C2714 0.930 . S
H2709 C2718 0.930 . S
H2710 C2723 0.929 . S
H2711 C2721 0.929 . S
H2712 C2716 0.929 . S
H2713 C2722 0.929 . S
C2714 H2708 0.930 . S
C2714 C2715 1.367 . S
C2714 C2722 1.378 . S
C2715 C2714 1.367 . S
C2715 C2723 1.433 . S
C2716 H2712 0.929 . S
C2716 C2718 1.378 . S
C2716 C2720 1.350 . S
C2717 C2720 1.463 . S
C2717 C2722 1.350 . S
C2717 N2725 1.427 . S
C2718 H2709 0.930 . S
C2718 C2716 1.378 . S
C2718 C2719 1.367 . S
C2719 C2718 1.367 . S
C2719 C2721 1.433 . S
C2720 C2716 1.350 . S
C2720 C2717 1.463 . S
C2720 N2724 1.427 . S
C2721 H2711 0.929 . S
C2721 C2719 1.433 . S
C2721 N2724 1.384 . S
C2722 H2713 0.929 . S
C2722 C2714 1.378 . S
C2722 C2717 1.350 . S
C2723 H2710 0.929 . S
C2723 C2715 1.433 . S
C2723 N2725 1.384 . S
N2724 C2720 1.427 . S
N2724 C2721 1.384 . S
N2725 C2717 1.427 . S
N2725 C2723 1.384 . S
H2726 C2732 0.930 . S
H2727 C2736 0.930 . S
H2728 C2741 0.929 . S
H2729 C2739 0.929 . S
H2730 C2734 0.929 . S
H2731 C2740 0.929 . S
C2732 H2726 0.930 . S
C2732 C2733 1.367 . S
C2732 C2740 1.378 . S
C2733 C2732 1.367 . S
C2733 C2741 1.433 . S
C2734 H2730 0.929 . S
C2734 C2736 1.378 . S
C2734 C2738 1.350 . S
C2735 C2738 1.463 . S
C2735 C2740 1.350 . S
C2735 N2743 1.427 . S
C2736 H2727 0.930 . S
C2736 C2734 1.378 . S
C2736 C2737 1.367 . S
C2737 C2736 1.367 . S
C2737 C2739 1.433 . S
C2738 C2734 1.350 . S
C2738 C2735 1.463 . S
C2738 N2742 1.427 . S
C2739 H2729 0.929 . S
C2739 C2737 1.433 . S
C2739 N2742 1.384 . S
C2740 H2731 0.929 . S
C2740 C2732 1.378 . S
C2740 C2735 1.350 . S
C2741 H2728 0.929 . S
C2741 C2733 1.433 . S
C2741 N2743 1.384 . S
N2742 C2738 1.427 . S
N2742 C2739 1.384 . S
N2743 C2735 1.427 . S
N2743 C2741 1.384 . S
H2744 C2750 0.930 . S
H2745 C2754 0.930 . S
H2746 C2759 0.929 . S
H2747 C2757 0.929 . S
H2748 C2752 0.929 . S
H2749 C2758 0.929 . S
C2750 H2744 0.930 . S
C2750 C2751 1.367 . S
C2750 C2758 1.378 . S
C2751 C2750 1.367 . S
C2751 C2759 1.433 . S
C2752 H2748 0.929 . S
C2752 C2754 1.378 . S
C2752 C2756 1.350 . S
C2753 C2756 1.463 . S
C2753 C2758 1.350 . S
C2753 N2761 1.427 . S
C2754 H2745 0.930 . S
C2754 C2752 1.378 . S
C2754 C2755 1.367 . S
C2755 C2754 1.367 . S
C2755 C2757 1.433 . S
C2756 C2752 1.350 . S
C2756 C2753 1.463 . S
C2756 N2760 1.427 . S
C2757 H2747 0.929 . S
C2757 C2755 1.433 . S
C2757 N2760 1.384 . S
C2758 H2749 0.929 . S
C2758 C2750 1.378 . S
C2758 C2753 1.350 . S
C2759 H2746 0.929 . S
C2759 C2751 1.433 . S
C2759 N2761 1.384 . S
N2760 C2756 1.427 . S
N2760 C2757 1.384 . S
N2761 C2753 1.427 . S
N2761 C2759 1.384 . S
H2762 C2768 0.930 . S
H2763 C2772 0.930 . S
H2764 C2777 0.929 . S
H2765 C2775 0.929 . S
H2766 C2770 0.929 . S
H2767 C2776 0.929 . S
C2768 H2762 0.930 . S
C2768 C2769 1.367 . S
C2768 C2776 1.378 . S
C2769 C2768 1.367 . S
C2769 C2777 1.433 . S
C2770 H2766 0.929 . S
C2770 C2772 1.378 . S
C2770 C2774 1.350 . S
C2771 C2774 1.463 . S
C2771 C2776 1.350 . S
C2771 N2779 1.427 . S
C2772 H2763 0.930 . S
C2772 C2770 1.378 . S
C2772 C2773 1.367 . S
C2773 C2772 1.367 . S
C2773 C2775 1.433 . S
C2774 C2770 1.350 . S
C2774 C2771 1.463 . S
C2774 N2778 1.427 . S
C2775 H2765 0.929 . S
C2775 C2773 1.433 . S
C2775 N2778 1.384 . S
C2776 H2767 0.929 . S
C2776 C2768 1.378 . S
C2776 C2771 1.350 . S
C2777 H2764 0.929 . S
C2777 C2769 1.433 . S
C2777 N2779 1.384 . S
N2778 C2774 1.427 . S
N2778 C2775 1.384 . S
N2779 C2771 1.427 . S
N2779 C2777 1.384 . S
H2780 C2786 0.930 . S
H2781 C2790 0.930 . S
H2782 C2795 0.929 . S
H2783 C2793 0.929 . S
H2784 C2788 0.929 . S
H2785 C2794 0.929 . S
C2786 H2780 0.930 . S
C2786 C2787 1.367 . S
C2786 C2794 1.378 . S
C2787 C2786 1.367 . S
C2787 C2795 1.433 . S
C2788 H2784 0.929 . S
C2788 C2790 1.378 . S
C2788 C2792 1.350 . S
C2789 C2792 1.463 . S
C2789 C2794 1.350 . S
C2789 N2797 1.427 . S
C2790 H2781 0.930 . S
C2790 C2788 1.378 . S
C2790 C2791 1.367 . S
C2791 C2790 1.367 . S
C2791 C2793 1.433 . S
C2792 C2788 1.350 . S
C2792 C2789 1.463 . S
C2792 N2796 1.427 . S
C2793 H2783 0.929 . S
C2793 C2791 1.433 . S
C2793 N2796 1.384 . S
C2794 H2785 0.929 . S
C2794 C2786 1.378 . S
C2794 C2789 1.350 . S
C2795 H2782 0.929 . S
C2795 C2787 1.433 . S
C2795 N2797 1.384 . S
N2796 C2792 1.427 . S
N2796 C2793 1.384 . S
N2797 C2789 1.427 . S
N2797 C2795 1.384 . S
H2798 C2804 0.930 . S
H2799 C2808 0.930 . S
H2800 C2813 0.929 . S
H2801 C2811 0.929 . S
H2802 C2806 0.929 . S
H2803 C2812 0.929 . S
C2804 H2798 0.930 . S
C2804 C2805 1.367 . S
C2804 C2812 1.378 . S
C2805 C2804 1.367 . S
C2805 C2813 1.433 . S
C2806 H2802 0.929 . S
C2806 C2808 1.378 . S
C2806 C2810 1.350 . S
C2807 C2810 1.463 . S
C2807 C2812 1.350 . S
C2807 N2815 1.427 . S
C2808 H2799 0.930 . S
C2808 C2806 1.378 . S
C2808 C2809 1.367 . S
C2809 C2808 1.367 . S
C2809 C2811 1.433 . S
C2810 C2806 1.350 . S
C2810 C2807 1.463 . S
C2810 N2814 1.427 . S
C2811 H2801 0.929 . S
C2811 C2809 1.433 . S
C2811 N2814 1.384 . S
C2812 H2803 0.929 . S
C2812 C2804 1.378 . S
C2812 C2807 1.350 . S
C2813 H2800 0.929 . S
C2813 C2805 1.433 . S
C2813 N2815 1.384 . S
N2814 C2810 1.427 . S
N2814 C2811 1.384 . S
N2815 C2807 1.427 . S
N2815 C2813 1.384 . S
H2816 C2822 0.930 . S
H2817 C2826 0.930 . S
H2818 C2831 0.929 . S
H2819 C2829 0.929 . S
H2820 C2824 0.929 . S
H2821 C2830 0.929 . S
C2822 H2816 0.930 . S
C2822 C2823 1.367 . S
C2822 C2830 1.378 . S
C2823 C2822 1.367 . S
C2823 C2831 1.433 . S
C2824 H2820 0.929 . S
C2824 C2826 1.378 . S
C2824 C2828 1.350 . S
C2825 C2828 1.463 . S
C2825 C2830 1.350 . S
C2825 N2833 1.427 . S
C2826 H2817 0.930 . S
C2826 C2824 1.378 . S
C2826 C2827 1.367 . S
C2827 C2826 1.367 . S
C2827 C2829 1.433 . S
C2828 C2824 1.350 . S
C2828 C2825 1.463 . S
C2828 N2832 1.427 . S
C2829 H2819 0.929 . S
C2829 C2827 1.433 . S
C2829 N2832 1.384 . S
C2830 H2821 0.929 . S
C2830 C2822 1.378 . S
C2830 C2825 1.350 . S
C2831 H2818 0.929 . S
C2831 C2823 1.433 . S
C2831 N2833 1.384 . S
N2832 C2828 1.427 . S
N2832 C2829 1.384 . S
N2833 C2825 1.427 . S
N2833 C2831 1.384 . S
H2834 C2840 0.930 . S
H2835 C2844 0.930 . S
H2836 C2849 0.929 . S
H2837 C2847 0.929 . S
H2838 C2842 0.929 . S
H2839 C2848 0.929 . S
C2840 H2834 0.930 . S
C2840 C2841 1.367 . S
C2840 C2848 1.378 . S
C2841 C2840 1.367 . S
C2841 C2849 1.433 . S
C2842 H2838 0.929 . S
C2842 C2844 1.378 . S
C2842 C2846 1.350 . S
C2843 C2846 1.463 . S
C2843 C2848 1.350 . S
C2843 N2851 1.427 . S
C2844 H2835 0.930 . S
C2844 C2842 1.378 . S
C2844 C2845 1.367 . S
C2845 C2844 1.367 . S
C2845 C2847 1.433 . S
C2846 C2842 1.350 . S
C2846 C2843 1.463 . S
C2846 N2850 1.427 . S
C2847 H2837 0.929 . S
C2847 C2845 1.433 . S
C2847 N2850 1.384 . S
C2848 H2839 0.929 . S
C2848 C2840 1.378 . S
C2848 C2843 1.350 . S
C2849 H2836 0.929 . S
C2849 C2841 1.433 . S
C2849 N2851 1.384 . S
N2850 C2846 1.427 . S
N2850 C2847 1.384 . S
N2851 C2843 1.427 . S
N2851 C2849 1.384 . S
H2852 C2858 0.930 . S
H2853 C2862 0.930 . S
H2854 C2867 0.929 . S
H2855 C2865 0.929 . S
H2856 C2860 0.929 . S
H2857 C2866 0.929 . S
C2858 H2852 0.930 . S
C2858 C2859 1.367 . S
C2858 C2866 1.378 . S
C2859 C2858 1.367 . S
C2859 C2867 1.433 . S
C2860 H2856 0.929 . S
C2860 C2862 1.378 . S
C2860 C2864 1.350 . S
C2861 C2864 1.463 . S
C2861 C2866 1.350 . S
C2861 N2869 1.427 . S
C2862 H2853 0.930 . S
C2862 C2860 1.378 . S
C2862 C2863 1.367 . S
C2863 C2862 1.367 . S
C2863 C2865 1.433 . S
C2864 C2860 1.350 . S
C2864 C2861 1.463 . S
C2864 N2868 1.427 . S
C2865 H2855 0.929 . S
C2865 C2863 1.433 . S
C2865 N2868 1.384 . S
C2866 H2857 0.929 . S
C2866 C2858 1.378 . S
C2866 C2861 1.350 . S
C2867 H2854 0.929 . S
C2867 C2859 1.433 . S
C2867 N2869 1.384 . S
N2868 C2864 1.427 . S
N2868 C2865 1.384 . S
N2869 C2861 1.427 . S
N2869 C2867 1.384 . S
H2870 C2876 0.930 . S
H2871 C2880 0.930 . S
H2872 C2885 0.929 . S
H2873 C2883 0.929 . S
H2874 C2878 0.929 . S
H2875 C2884 0.929 . S
C2876 H2870 0.930 . S
C2876 C2877 1.367 . S
C2876 C2884 1.378 . S
C2877 C2876 1.367 . S
C2877 C2885 1.433 1_554 S
C2878 H2874 0.929 . S
C2878 C2880 1.378 . S
C2878 C2882 1.350 . S
C2879 C2882 1.463 . S
C2879 C2884 1.350 1_556 S
C2879 N2887 1.427 . S
C2880 H2871 0.930 . S
C2880 C2878 1.378 . S
C2880 C2881 1.367 . S
C2881 C2880 1.367 . S
C2881 C2883 1.433 1_556 S
C2882 C2878 1.350 . S
C2882 C2879 1.463 . S
C2882 N2886 1.427 1_556 S
C2883 H2873 0.929 . S
C2883 C2881 1.433 1_554 S
C2883 N2886 1.384 . S
C2884 H2875 0.929 . S
C2884 C2876 1.378 . S
C2884 C2879 1.350 1_554 S
C2885 H2872 0.929 . S
C2885 C2877 1.433 1_556 S
C2885 N2887 1.384 . S
N2886 C2882 1.427 1_554 S
N2886 C2883 1.384 . S
N2887 C2879 1.427 . S
N2887 C2885 1.384 . S
H2888 C2894 0.930 . S
H2889 C2898 0.930 . S
H2890 C2903 0.929 . S
H2891 C2901 0.929 . S
H2892 C2896 0.929 . S
H2893 C2902 0.929 . S
C2894 H2888 0.930 . S
C2894 C2895 1.367 . S
C2894 C2902 1.378 . S
C2895 C2894 1.367 . S
C2895 C2903 1.433 . S
C2896 H2892 0.929 . S
C2896 C2898 1.378 . S
C2896 C2900 1.350 . S
C2897 C2900 1.463 . S
C2897 C2902 1.350 . S
C2897 N2905 1.427 . S
C2898 H2889 0.930 . S
C2898 C2896 1.378 . S
C2898 C2899 1.367 . S
C2899 C2898 1.367 . S
C2899 C2901 1.433 . S
C2900 C2896 1.350 . S
C2900 C2897 1.463 . S
C2900 N2904 1.427 . S
C2901 H2891 0.929 . S
C2901 C2899 1.433 . S
C2901 N2904 1.384 . S
C2902 H2893 0.929 . S
C2902 C2894 1.378 . S
C2902 C2897 1.350 . S
C2903 H2890 0.929 . S
C2903 C2895 1.433 . S
C2903 N2905 1.384 . S
N2904 C2900 1.427 . S
N2904 C2901 1.384 . S
N2905 C2897 1.427 . S
N2905 C2903 1.384 . S
H2906 C2912 0.930 . S
H2907 C2916 0.930 . S
H2908 C2921 0.929 1_556 S
H2909 C2919 0.929 . S
H2910 C2914 0.929 . S
H2911 C2920 0.929 . S
C2912 H2906 0.930 . S
C2912 C2913 1.367 . S
C2912 C2920 1.378 . S
C2913 C2912 1.367 . S
C2913 C2921 1.433 . S
C2914 H2910 0.929 . S
C2914 C2916 1.378 . S
C2914 C2918 1.350 . S
C2915 C2918 1.463 . S
C2915 C2920 1.350 . S
C2915 N2923 1.427 . S
C2916 H2907 0.930 . S
C2916 C2914 1.378 . S
C2916 C2917 1.367 . S
C2917 C2916 1.367 . S
C2917 C2919 1.433 . S
C2918 C2914 1.350 . S
C2918 C2915 1.463 . S
C2918 N2922 1.427 . S
C2919 H2909 0.929 . S
C2919 C2917 1.433 . S
C2919 N2922 1.384 . S
C2920 H2911 0.929 . S
C2920 C2912 1.378 . S
C2920 C2915 1.350 . S
C2921 H2908 0.929 1_554 S
C2921 C2913 1.433 . S
C2921 N2923 1.384 . S
N2922 C2918 1.427 . S
N2922 C2919 1.384 . S
N2923 C2915 1.427 . S
N2923 C2921 1.384 . S
H2924 C2930 0.930 . S
H2925 C2934 0.930 . S
H2926 C2939 0.929 . S
H2927 C2937 0.929 . S
H2928 C2932 0.929 . S
H2929 C2938 0.929 . S
C2930 H2924 0.930 . S
C2930 C2931 1.367 . S
C2930 C2938 1.378 . S
C2931 C2930 1.367 . S
C2931 C2939 1.433 . S
C2932 H2928 0.929 . S
C2932 C2934 1.378 . S
C2932 C2936 1.350 . S
C2933 C2936 1.463 . S
C2933 C2938 1.350 . S
C2933 N2941 1.427 . S
C2934 H2925 0.930 . S
C2934 C2932 1.378 . S
C2934 C2935 1.367 . S
C2935 C2934 1.367 . S
C2935 C2937 1.433 . S
C2936 C2932 1.350 . S
C2936 C2933 1.463 . S
C2936 N2940 1.427 . S
C2937 H2927 0.929 . S
C2937 C2935 1.433 . S
C2937 N2940 1.384 . S
C2938 H2929 0.929 . S
C2938 C2930 1.378 . S
C2938 C2933 1.350 . S
C2939 H2926 0.929 . S
C2939 C2931 1.433 . S
C2939 N2941 1.384 . S
N2940 C2936 1.427 . S
N2940 C2937 1.384 . S
N2941 C2933 1.427 . S
N2941 C2939 1.384 . S
H2942 C2948 0.930 . S
H2943 C2952 0.930 . S
H2944 C2957 0.929 . S
H2945 C2955 0.929 . S
H2946 C2950 0.929 . S
H2947 C2956 0.929 . S
C2948 H2942 0.930 . S
C2948 C2949 1.367 . S
C2948 C2956 1.378 . S
C2949 C2948 1.367 . S
C2949 C2957 1.433 . S
C2950 H2946 0.929 . S
C2950 C2952 1.378 . S
C2950 C2954 1.350 . S
C2951 C2954 1.463 . S
C2951 C2956 1.350 . S
C2951 N2959 1.427 . S
C2952 H2943 0.930 . S
C2952 C2950 1.378 . S
C2952 C2953 1.367 . S
C2953 C2952 1.367 . S
C2953 C2955 1.433 . S
C2954 C2950 1.350 . S
C2954 C2951 1.463 . S
C2954 N2958 1.427 . S
C2955 H2945 0.929 . S
C2955 C2953 1.433 . S
C2955 N2958 1.384 . S
C2956 H2947 0.929 . S
C2956 C2948 1.378 . S
C2956 C2951 1.350 . S
C2957 H2944 0.929 . S
C2957 C2949 1.433 . S
C2957 N2959 1.384 . S
N2958 C2954 1.427 . S
N2958 C2955 1.384 . S
N2959 C2951 1.427 . S
N2959 C2957 1.384 . S
C1243 C880 1.113 . S
C1239 C2 1.133 . S
C1257 C39 1.310 . S
C1261 C908 1.210 . S
C1275 C86 1.024 . S
C1279 C926 1.005 . S
C1297 C952 1.219 . S
C1293 C112 1.345 . S
C1311 C38 1.447 . S
C1315 C975 1.314 . S
C1333 C995 1.015 . S
C1329 C76 1.023 . S
C1351 C1023 1.271 1_556 S
C1347 C122 1.350 . S
C1365 C3 1.095 . S
C1369 C1041 1.076 . S
C1383 C147 1.334 . S
C1387 C882 1.342 . S
C1401 C184 1.041 . S
C1405 C904 1.020 . S
C1423 C928 1.354 . S
C1419 C219 1.345 . S
C1441 C949 1.087 . S
C1437 C256 1.098 . S
C1455 C148 1.107 . S
C1459 C972 1.094 . S
C1477 C997 1.346 . S
C1473 C183 1.342 . S
C1495 C1019 1.046 . S
C1491 C220 1.060 . S
C1513 C1043 1.332 . S
C1509 C255 1.318 . S
C1531 C883 0.984 . S
C1527 C254 1.048 . S
C1549 C1066 1.171 . S
C1545 C302 1.149 . S
C1563 C326 1.065 . S
C1567 C1090 0.987 . S
C1585 C1114 1.151 . S
C1581 C374 1.152 . S
C1599 C146 1.026 . S
C1603 C1044 0.946 . S
C1621 C929 0.974 . S
C1617 C182 1.047 . S
C1635 C338 1.112 . S
C1639 C1135 1.133 . S
C1657 C1160 1.107 . S
C1653 C410 1.102 . S
C1671 C434 1.187 . S
C1675 C881 1.170 . S
C1693 C1158 1.003 . S
C1689 C472 1.005 . S
C1707 C507 1.086 . S
C1711 C927 1.075 . S
C1725 C543 0.952 . S
C1729 C1137 0.920 . S
C1747 C976 1.014 . S
C1743 C470 1.037 . S
C1765 C1088 1.130 . S
C1761 C518 1.097 . S
C1783 C1020 1.043 . S
C1779 C554 1.021 . S
C1801 C1180 1.058 . S
C1797 C436 1.083 . S
C1819 C885 0.992 . S
C1815 C580 1.036 . S
C1833 C615 1.352 . S
C1837 C1156 1.326 . S
C1855 C931 0.971 . S
C1851 C652 1.024 1_565 S
C1869 C687 1.338 . S
C1873 C1134 1.305 . S
C1887 C579 1.346 . S
C1891 C973 1.309 . S
C1905 C616 1.041 . S
C1909 C1092 0.999 . S
C1927 C1018 1.322 . S
C1923 C651 1.352 . S
C1941 C688 1.012 . S
C1945 C1184 0.960 . S
C1959 C686 1.400 . S
C1963 C884 1.368 . S
C1977 C734 1.225 1_554 S
C1981 C1069 1.208 . S
C1995 C758 1.361 . S
C1999 C999 1.320 . S
C2013 C806 1.271 . S
C2017 C1113 1.216 . S
C2035 C1183 1.318 . S
C2031 C578 1.350 . S
C2053 C930 1.368 . S
C2049 C614 1.409 . S
C2071 C954 1.180 . S
C2067 C770 1.190 . S
C2089 C906 1.154 . S
C2085 C842 1.199 . S
C2103 C74 1.063 . S
C2107 C1202 1.046 . S
C2125 C1161 1.228 . S
C2121 C111 1.318 . S
C2143 C1225 1.089 . S
C2139 C14 1.085 . S
C2157 C40 1.345 . S
C2161 C1136 1.217 . S
C2175 C110 1.448 . S
C2179 C1067 1.298 1_556 S
C2197 C1087 1.071 . S
C2193 C4 1.093 . S
C2215 C1115 1.267 . S
C2211 C50 1.338 1_455 S
C2233 C1179 1.004 . S
C2229 C75 1.023 . S
C2251 C1204 1.350 . S
C2247 C399 1.343 . S
C2265 C292 1.044 . S
C2269 C1157 1.026 . S
C2283 C327 1.333 . S
C2287 C1227 1.346 . S
C2305 C1133 1.072 . S
C2301 C364 1.090 . S
C2323 C1064 1.083 . S
C2319 C400 1.099 . S
C2337 C291 1.336 . S
C2341 C1089 1.344 . S
C2359 C1111 1.040 . S
C2355 C328 1.065 . S
C2373 C363 1.329 . S
C2377 C1181 1.332 . S
C2395 C1205 0.949 . S
C2391 C362 1.021 . S
C2413 C974 1.179 . S
C2409 C194 1.155 . S
C2431 C998 0.946 . S
C2427 C218 1.026 . S
C2445 C266 1.128 . S
C2449 C1022 1.129 . S
C2467 C1182 0.949 . S
C2463 C398 0.997 . S
C2481 C290 1.083 . S
C2485 C1228 1.016 1_556 S
C2503 C951 1.146 . S
C2499 C230 1.125 . S
C2521 C907 1.076 . S
C2517 C158 1.082 . S
C2535 C508 1.093 . S
C2539 C1203 1.077 . S
C2557 C905 1.004 . S
C2553 C544 1.002 . S
C2575 C1226 1.127 . S
C2571 C446 1.094 1_455 S
C2589 C471 0.959 . S
C2593 C953 0.946 . S
C2607 C542 1.026 . S
C2611 C1068 1.000 . S
C2625 C435 1.080 . S
C2629 C996 1.068 . S
C2643 C482 1.009 . S
C2647 C1112 1.039 . S
C2661 C506 1.174 . S
C2665 C1042 1.156 . S
C2683 C1207 0.976 . S
C2679 C832 1.023 . S
C2697 C723 1.338 . S
C2701 C903 1.311 . S
C2719 C1230 0.961 . S
C2715 C760 1.030 . S
C2733 C795 1.346 . S
C2737 C950 1.319 . S
C2751 C831 1.345 . S
C2755 C1065 1.317 . S
C2773 C1000 0.960 . S
C2769 C724 1.025 . S
C2787 C759 1.366 . S
C2791 C1110 1.337 . S
C2809 C1046 0.987 . S
C2805 C796 1.026 . S
C2827 C1206 1.366 . S
C2823 C794 1.396 . S
C2845 C977 1.219 . S
C2841 C626 1.246 . S
C2859 C650 1.367 . S
C2863 C1091 1.326 . S
C2881 C1021 1.203 . S
C2877 C698 1.253 1_554 S
C2899 C1045 1.315 . S
C2895 C830 1.356 . S
C2913 C722 1.413 . S
C2917 C1229 1.374 . S
C2935 C1138 1.157 . S
C2931 C662 1.179 . S
C2953 C1159 1.152 . S
C2949 C590 1.198 . S
