# Generated by pormake.
# Topology ssa, (4,4)-cn, num edge types: 1
# Building blocks:
#     Node 0, Type 0, BuildingBlock: ESEHIV_clean_sbu_0, # of connection points: 4
#     Node 1, Type 0, BuildingBlock: ESEHIV_clean_sbu_0, # of connection points: 4
#     Node 2, Type 0, BuildingBlock: ESEHIV_clean_sbu_0, # of connection points: 4
#     Node 3, Type 0, BuildingBlock: ESEHIV_clean_sbu_0, # of connection points: 4
#     Node 4, Type 0, BuildingBlock: ESEHIV_clean_sbu_0, # of connection points: 4
#     Node 5, Type 0, BuildingBlock: ESEHIV_clean_sbu_0, # of connection points: 4
#     Node 6, Type 1, BuildingBlock: NAWXER_clean_sbu_0, # of connection points: 4
#     Node 7, Type 1, BuildingBlock: NAWXER_clean_sbu_0, # of connection points: 4
#     Node 8, Type 1, BuildingBlock: NAWXER_clean_sbu_0, # of connection points: 4
#     Node 9, Type 1, BuildingBlock: NAWXER_clean_sbu_0, # of connection points: 4
#     Node 10, Type 1, BuildingBlock: NAWXER_clean_sbu_0, # of connection points: 4
#     Node 11, Type 1, BuildingBlock: NAWXER_clean_sbu_0, # of connection points: 4
#     Edge 12, Type (0, 1), BuildingBlock: AJUNOK_clean_linker_0, # of connection points: 2
#     Edge 13, Type (0, 1), BuildingBlock: AJUNOK_clean_linker_0, # of connection points: 2
#     Edge 14, Type (0, 1), BuildingBlock: AJUNOK_clean_linker_0, # of connection points: 2
#     Edge 15, Type (0, 1), BuildingBlock: AJUNOK_clean_linker_0, # of connection points: 2
#     Edge 16, Type (0, 1), BuildingBlock: AJUNOK_clean_linker_0, # of connection points: 2
#     Edge 17, Type (0, 1), BuildingBlock: AJUNOK_clean_linker_0, # of connection points: 2
#     Edge 18, Type (0, 1), BuildingBlock: AJUNOK_clean_linker_0, # of connection points: 2
#     Edge 19, Type (0, 1), BuildingBlock: AJUNOK_clean_linker_0, # of connection points: 2
#     Edge 20, Type (0, 1), BuildingBlock: AJUNOK_clean_linker_0, # of connection points: 2
#     Edge 21, Type (0, 1), BuildingBlock: AJUNOK_clean_linker_0, # of connection points: 2
#     Edge 22, Type (0, 1), BuildingBlock: AJUNOK_clean_linker_0, # of connection points: 2
#     Edge 23, Type (0, 1), BuildingBlock: AJUNOK_clean_linker_0, # of connection points: 2
#     Edge 24, Type (0, 1), BuildingBlock: AJUNOK_clean_linker_0, # of connection points: 2
#     Edge 25, Type (0, 1), BuildingBlock: AJUNOK_clean_linker_0, # of connection points: 2
#     Edge 26, Type (0, 1), BuildingBlock: AJUNOK_clean_linker_0, # of connection points: 2
#     Edge 27, Type (0, 1), BuildingBlock: AJUNOK_clean_linker_0, # of connection points: 2
#     Edge 28, Type (0, 1), BuildingBlock: AJUNOK_clean_linker_0, # of connection points: 2
#     Edge 29, Type (0, 1), BuildingBlock: AJUNOK_clean_linker_0, # of connection points: 2
#     Edge 30, Type (0, 1), BuildingBlock: AJUNOK_clean_linker_0, # of connection points: 2
#     Edge 31, Type (0, 1), BuildingBlock: AJUNOK_clean_linker_0, # of connection points: 2
#     Edge 32, Type (0, 1), BuildingBlock: AJUNOK_clean_linker_0, # of connection points: 2
#     Edge 33, Type (0, 1), BuildingBlock: AJUNOK_clean_linker_0, # of connection points: 2
#     Edge 34, Type (0, 1), BuildingBlock: AJUNOK_clean_linker_0, # of connection points: 2
#     Edge 35, Type (0, 1), BuildingBlock: AJUNOK_clean_linker_0, # of connection points: 2
# Relax obj value: 0.020
# Max RMSD: 0.110
# Mean RMSD: 0.058
data_MOF--net-ssa--node1-ESEHIV_clean_sbu_0--node2-NAWXER_clean_sbu_0--edge1-AJUNOK_clean_linker_0
_symmetry_space_group_name_H-M    P1
_symmetry_Int_Tables_number       1
_symmetry_cell_setting            triclinic
loop_
_symmetry_equiv_pos_as_xyz
'x, y, z'
_cell_length_a     32.839897
_cell_length_b     36.343266
_cell_length_c     28.107004
_cell_angle_alpha  88.084427
_cell_angle_beta   91.538866
_cell_angle_gamma 124.17856
loop_
_atom_site_label
_atom_site_type_symbol
_atom_site_fract_x
_atom_site_fract_y
_atom_site_fract_z
_atom_type_partial_charge
Cu0 Cu 0.04216 0.57566 1.02358 0.0
N1 N 0.05384 0.5514 0.97237 0.0
N2 N 0.03784 0.49452 0.92808 0.0
C3 C 1.02285 0.50774 0.96395 0.0
C4 C 0.08034 0.53171 0.91301 0.0
C5 C 0.09028 0.56688 0.94064 0.0
O6 O 0.9786 0.56693 1.00812 0.0
C7 C 0.09599 0.55894 0.08229 0.0
O8 O 0.12653 0.58602 0.04909 0.0
H9 H 0.98959 0.48598 0.9841 0.0
H10 H 0.12218 0.60081 0.9384 0.0
N11 N 0.08708 0.63618 0.03653 0.0
N12 N 0.12885 0.69273 0.08664 0.0
C13 C 0.08934 0.65092 0.08042 0.0
C14 C 0.12621 0.67033 1.01338 0.0
C15 C 0.15203 0.70548 0.04434 0.0
C16 C 0.9819 0.5935 0.975 0.0
O17 O 1.02551 0.62293 0.95729 0.0
H18 H 0.064 0.63004 0.10839 0.0
H19 H 0.13698 0.66889 0.97784 0.0
O20 O 0.05093 0.5464 0.07914 0.0
H21 H 0.10323 0.5333 0.88495 0.0
H22 H 0.187 0.73656 0.03749 0.0
Cu23 Cu 0.58951 0.0494 0.53646 0.0
N24 N 0.61411 0.03164 0.48887 0.0
N25 N 0.6174 0.98582 0.43973 0.0
C26 C 0.59272 0.98912 0.4753 0.0
C27 C 0.65587 0.02796 0.43071 0.0
C28 C 0.65359 0.05606 0.4607 0.0
O29 O 0.51818 1.00754 0.5318 0.0
C30 C 0.6647 0.0754 0.60279 0.0
O31 O 0.69069 0.08622 0.56388 0.0
H32 H 0.56011 0.96109 0.49189 0.0
H33 H 0.67916 0.09172 0.46176 0.0
N34 N 0.60582 0.10775 0.53095 0.0
N35 N 0.61325 0.16586 0.56588 0.0
C36 C 0.585 0.12146 0.55989 0.0
C37 C 0.64882 0.14517 0.51775 0.0
C38 C 0.65334 0.18109 0.539 0.0
C39 C 0.49535 1.01388 0.49858 0.0
O40 O 0.51947 0.05136 0.47369 0.0
H41 H 0.5526 0.09866 0.58075 0.0
H42 H 0.67738 0.1461 0.49849 0.0
O43 O 0.61782 0.05171 0.59914 0.0
H44 H 0.68359 0.03786 0.40401 0.0
H45 H 0.68496 0.21523 0.5372 0.0
Cu46 Cu 0.47924 0.45737 0.06563 0.0
N47 N 0.47829 0.40514 0.06483 0.0
N48 N 0.48933 0.35901 1.02479 0.0
C49 C 0.47193 0.38497 1.02325 0.0
C50 C 0.50695 0.36247 0.06953 0.0
C51 C 0.49995 0.39083 0.09425 0.0
O52 O 0.51805 0.48844 1.00931 0.0
C53 C 0.38275 0.41388 0.09395 0.0
O54 O 0.39487 0.38878 0.11582 0.0
H55 H 0.46033 0.39361 0.99079 0.0
H56 H 0.51401 0.40331 0.12943 0.0
N57 N 0.50847 0.49324 0.11913 0.0
N58 N 0.52614 0.54641 0.1704 0.0
C59 C 0.49858 0.52276 0.13261 0.0
C60 C 0.54346 0.49827 0.14964 0.0
C61 C 0.55467 0.53125 0.18105 0.0
C62 C 0.55946 0.49292 1.01088 0.0
O63 O 0.57462 0.48582 0.05169 0.0
H64 H 0.47334 0.52829 0.11352 0.0
H65 H 0.56089 0.48045 0.1483 0.0
O66 O 0.41305 0.44388 0.06465 0.0
H67 H 0.52628 0.34785 0.0825 0.0
H68 H 0.58256 0.54395 0.20883 0.0
Cu69 Cu 0.99434 0.51036 0.52972 0.0
N70 N 0.98283 0.46798 0.48644 0.0
N71 N 1.0067 0.43465 0.44042 0.0
C72 C 1.01789 0.47349 0.45767 0.0
C73 C 0.96217 0.40332 0.45844 0.0
C74 C 0.9476 0.42405 0.48713 0.0
O75 O 0.05945 0.56341 0.5121 0.0
C76 C 0.97837 0.49152 0.63006 0.0
O77 O 0.98372 0.53001 0.63326 0.0
H78 H 0.05275 0.50502 0.45247 0.0
H79 H 0.91597 0.40785 0.51022 0.0
N80 N 0.94339 0.51943 0.52661 0.0
N81 N 0.88336 0.5233 0.55637 0.0
C82 C 0.9067 0.50244 0.55841 0.0
C83 C 0.94099 0.55015 0.50113 0.0
C84 C 0.90407 0.55272 0.5195 0.0
C85 C 0.07453 0.60423 0.51325 0.0
O86 O 0.04716 0.61484 0.53387 0.0
H87 H 0.89988 0.47791 0.58552 0.0
H88 H 0.9667 0.57162 0.47372 0.0
O89 O 0.99018 0.4825 0.59149 0.0
H90 H 0.94357 0.36779 0.45465 0.0
H91 H 0.89547 0.57648 0.50856 0.0
Cu92 Cu 0.53384 1.00462 0.03525 0.0
N93 N 0.49092 0.99914 0.98632 0.0
N94 N 0.46419 0.02412 0.92773 0.0
C95 C 0.50202 0.03331 0.95669 0.0
C96 C 0.42704 0.9823 0.94004 0.0
C97 C 0.44373 0.96685 0.97618 0.0
O98 O 0.59036 0.06729 0.03051 0.0
C99 C 0.4721 0.94165 0.1038 0.0
O100 O 0.46486 0.91582 0.06842 0.0
H101 H 0.53648 0.0654 0.95826 0.0
H102 H 0.42238 0.93509 0.99484 0.0
N103 N 0.55747 0.9689 1.02748 0.0
N104 N 0.58528 0.92812 0.05347 0.0
C105 C 0.57853 0.96021 0.06372 0.0
C106 C 0.551 0.94162 0.99246 0.0
C107 C 0.56822 0.91623 1.00857 0.0
C108 C 0.62163 0.07614 0.99834 0.0
O109 O 0.61621 0.04328 0.97434 0.0
H110 H 0.58474 0.97441 0.09859 0.0
H111 H 0.53202 0.9382 0.95915 0.0
O112 O 0.49962 0.98389 0.09686 0.0
H113 H 0.39032 0.96457 0.92476 0.0
H114 H 0.56449 0.88865 0.99044 0.0
Cu115 Cu 0.51975 0.52373 0.52738 0.0
N116 N 0.57226 0.56062 0.4867 0.0
N117 N 0.6239 0.62243 0.44439 0.0
C118 C 0.57994 0.59787 0.46608 0.0
C119 C 0.64459 0.59936 0.45082 0.0
C120 C 0.6126 0.56117 0.4773 0.0
O121 O 0.46131 0.51855 0.49937 0.0
C122 C 0.57944 0.58519 0.60051 0.0
O123 O 0.59852 0.61752 0.5684 0.0
H124 H 0.55446 0.60768 0.46868 0.0
H125 H 0.61925 0.53668 0.49051 0.0
N126 N 0.5082 0.46718 0.53553 0.0
N127 N 0.49315 0.40601 0.57447 0.0
C128 C 0.49476 0.44383 0.57708 0.0
C129 C 0.51527 0.44324 0.50546 0.0
C130 C 0.50561 0.40528 0.52932 0.0
C131 C 0.44501 0.49735 0.46058 0.0
O132 O 0.46744 0.48027 0.44309 0.0
H133 H 0.48742 0.45498 0.60896 0.0
H134 H 0.52812 0.45334 0.46931 0.0
O135 O 0.53948 0.54811 0.59107 0.0
H136 H 0.68097 0.61027 0.43921 0.0
H137 H 0.50961 0.38011 0.51524 0.0
C138 C 0.29573 0.48895 0.33453 0.0
C139 C 0.19409 0.50803 0.21792 0.0
O140 O 0.25867 0.45183 0.31919 0.0
Zn141 Zn 0.198 0.42937 0.26898 0.0
O142 O 0.30259 0.52507 0.31828 0.0
Zn143 Zn 0.24703 0.49898 0.27402 0.0
O144 O 0.18519 0.46761 0.32127 0.0
O145 O 0.14049 0.39534 0.30845 0.0
O146 O 0.23487 0.53778 0.23682 0.0
O147 O 0.17722 0.46696 0.22621 0.0
O148 O 0.20915 0.39781 0.22314 0.0
O149 O 0.26666 0.46968 0.22141 0.0
C150 C 0.1472 0.42843 0.33026 0.0
C151 C 0.24896 0.43058 0.20583 0.0
C152 C 0.84211 0.33692 0.74933 0.0
C153 C 0.7552 0.22989 0.88238 0.0
O154 O 0.80529 0.33085 0.77135 0.0
Zn155 Zn 0.79464 0.28211 0.81367 0.0
O156 O 0.85655 0.31128 0.75874 0.0
Zn157 Zn 0.84161 0.25903 0.80746 0.0
O158 O 0.82119 0.20966 0.76578 0.0
O159 O 0.76655 0.22663 0.76696 0.0
O160 O 0.78963 0.22838 0.86415 0.0
O161 O 0.74583 0.25707 0.86465 0.0
O162 O 0.86341 0.31948 0.85139 0.0
O163 O 0.90573 0.29017 0.83971 0.0
C164 C 0.77989 0.20194 0.75207 0.0
C165 C 0.90261 0.32022 0.8576 0.0
C166 C 0.58337 0.833 0.33955 0.0
C167 C 0.55088 0.70452 0.2468 0.0
O168 O 0.62092 0.83906 0.31839 0.0
Zn169 Zn 0.63914 0.80489 0.27159 0.0
O170 O 0.54183 0.79608 0.33473 0.0
Zn171 Zn 0.5625 0.76755 0.29216 0.0
O172 O 0.60956 0.75817 0.33662 0.0
O173 O 0.68545 0.79779 0.30868 0.0
O174 O 0.51818 0.70598 0.26846 0.0
O175 O 0.59492 0.73926 0.2455 0.0
O176 O 0.65866 0.84123 0.21317 0.0
O177 O 0.57987 0.80755 0.2294 0.0
C178 C 0.65433 0.76995 0.33903 0.0
C179 C 0.61676 0.83382 0.20277 0.0
C180 C 0.82526 0.5778 0.85536 0.0
C181 C 0.71277 0.58047 0.73689 0.0
O182 O 0.79166 0.53911 0.84043 0.0
Zn183 Zn 0.73048 0.51068 0.79176 0.0
O184 O 0.82642 0.61135 0.83867 0.0
Zn185 Zn 0.7699 0.58178 0.79526 0.0
O186 O 0.70878 0.5459 0.84138 0.0
O187 O 0.67441 0.47385 0.83364 0.0
O188 O 0.74871 0.6145 0.75742 0.0
O189 O 0.70338 0.54179 0.74709 0.0
O190 O 0.74813 0.48481 0.74303 0.0
O191 O 0.79242 0.55803 0.74001 0.0
C192 C 0.67507 0.50558 0.85243 0.0
C193 C 0.78145 0.52122 0.72296 0.0
C194 C 0.36259 0.84563 0.2748 0.0
C195 C 0.23579 0.7397 0.39164 0.0
O196 O 0.3317 0.85452 0.28641 0.0
Zn197 Zn 0.26912 0.82914 0.33024 0.0
O198 O 0.35909 0.81143 0.29333 0.0
Zn199 Zn 0.30178 0.7913 0.33415 0.0
O200 O 0.24723 0.77168 0.28058 0.0
O201 O 0.21923 0.81444 0.28003 0.0
O202 O 0.27052 0.73773 0.37582 0.0
O203 O 0.2324 0.77181 0.37733 0.0
O204 O 0.29438 0.87886 0.37347 0.0
O205 O 0.3316 0.84405 0.38324 0.0
C206 C 0.21893 0.78235 0.26264 0.0
C207 C 0.32649 0.87498 0.39498 0.0
C208 C 0.5219 0.28969 0.85699 0.0
C209 C 0.56613 0.24072 0.71634 0.0
O210 O 0.56513 0.30278 0.84448 0.0
Zn211 Zn 0.54739 0.26725 0.78696 0.0
O212 O 0.48508 0.26059 0.83195 0.0
Zn213 Zn 0.4703 0.2223 0.76985 0.0
O214 O 0.43445 0.16107 0.79573 0.0
O215 O 0.5132 0.20125 0.81548 0.0
O216 O 0.51994 0.22199 0.72255 0.0
O217 O 0.5966 0.26996 0.74559 0.0
O218 O 0.51766 0.29459 0.74034 0.0
O219 O 0.43936 0.2427 0.72604 0.0
C220 C 0.47115 0.16399 0.81632 0.0
C221 C 0.47683 0.28224 0.71944 0.0
C222 C 0.16654 0.57585 0.13436 0.0
C223 C 0.11658 0.54589 0.12188 0.0
C224 C 0.1907 0.56365 0.16624 0.0
C225 C 0.16624 0.52061 0.1866 0.0
H226 H 0.18767 0.60905 0.11858 0.0
H227 H 0.22935 0.58786 0.17378 0.0
S228 S 0.03406 0.43057 0.16886 0.0
N229 N 0.04248 0.4722 0.13477 0.0
N230 N 0.08782 0.44869 0.1946 0.0
C231 C 0.11564 0.49069 0.17591 0.0
C232 C 0.0908 0.50348 0.14371 0.0
C233 C 0.73998 0.11726 0.65449 0.0
C234 C 0.6901 0.10097 0.64649 0.0
C235 C 0.76812 0.14851 0.68982 0.0
C236 C 0.74788 0.16559 0.71808 0.0
H237 H 0.75796 0.1068 0.63218 0.0
H238 H 0.80661 0.16067 0.69361 0.0
S239 S 0.61803 0.132 0.71326 0.0
N240 N 0.62094 0.10271 0.67151 0.0
N241 N 0.67363 0.16161 0.73742 0.0
C242 C 0.69747 0.14838 0.71161 0.0
C243 C 0.66865 0.11603 0.67605 0.0
C244 C 0.57702 0.62302 0.19942 0.0
C245 C 0.5303 0.58465 0.19007 0.0
C246 C 0.58257 0.66118 0.21704 0.0
C247 C 0.54162 0.66277 0.22691 0.0
H248 H 0.60975 0.62384 0.19224 0.0
H249 H 0.61972 0.68965 0.22337 0.0
S250 S 0.41073 0.56974 0.21104 0.0
N251 N 0.44193 0.54963 0.19309 0.0
N252 N 0.45224 0.62133 0.22727 0.0
C253 C 0.49442 0.62422 0.21851 0.0
C254 C 0.48881 0.58529 0.19974 0.0
C255 C 0.8199 0.48279 0.61848 0.0
C256 C 0.85463 0.52297 0.59467 0.0
C257 C 0.79596 0.48225 0.65955 0.0
C258 C 0.80645 0.52198 0.67897 0.0
H259 H 0.81171 0.45157 0.60551 0.0
H260 H 0.76971 0.45048 0.67661 0.0
S261 S 0.89597 0.63634 0.63078 0.0
N262 N 0.89904 0.60349 0.59414 0.0
N263 N 0.85444 0.60287 0.6706 0.0
C264 C 0.84102 0.56241 0.65516 0.0
C265 C 0.86498 0.56282 0.61327 0.0
C266 C 0.4347 0.87598 0.16036 0.0
C267 C 0.44981 0.92037 0.15083 0.0
C268 C 0.40972 0.85293 0.20227 0.0
C269 C 0.39795 0.87301 0.23612 0.0
H270 H 0.44123 0.85832 0.13468 0.0
H271 H 0.3972 0.81839 0.20684 0.0
S272 S 0.43305 0.98971 0.23102 0.0
N273 N 0.45455 0.98449 0.18105 0.0
N274 N 0.40672 0.94107 0.25927 0.0
C275 C 0.41479 0.91799 0.22821 0.0
C276 C 0.44094 0.94169 0.1858 0.0
C277 C 0.45679 0.32907 0.60508 0.0
C278 C 0.48509 0.37518 0.61279 0.0
C279 C 0.45156 0.29871 0.64087 0.0
C280 C 0.47559 0.31355 0.6852 0.0
H281 H 0.43909 0.3165 0.57087 0.0
H282 H 0.43055 0.26363 0.63296 0.0
S283 S 0.55278 0.43071 0.72393 0.0
N284 N 0.53558 0.43387 0.66904 0.0
N285 N 0.52732 0.37723 0.73543 0.0
C286 C 0.5031 0.35947 0.6937 0.0
C287 C 0.50743 0.39018 0.65775 0.0
C288 C 0.64604 0.94313 0.40372 0.0
C289 C 0.60701 0.94607 0.41709 0.0
C290 C 0.63761 0.90609 0.3799 0.0
C291 C 0.58967 0.87003 0.36804 0.0
H292 H 0.68365 0.96983 0.41181 0.0
H293 H 0.66932 0.90603 0.37038 0.0
S294 S 0.47433 0.86178 0.39359 0.0
N295 N 0.51832 0.90994 0.41595 0.0
N296 N 0.50231 0.84014 0.3713 0.0
C297 C 0.55004 0.87223 0.38163 0.0
C298 C 0.55873 0.91018 0.40608 0.0
C299 C 0.60154 0.46614 0.96553 0.0
C300 C 0.58362 0.49341 0.96713 0.0
C301 C 0.62814 0.4677 0.92649 0.0
C302 C 0.63882 0.49748 0.88829 0.0
H303 H 0.5957 0.44391 0.99517 0.0
H304 H 0.64272 0.44733 0.92747 0.0
S305 S 0.59655 0.57286 0.87302 0.0
N306 N 0.57466 0.54799 0.92531 0.0
N307 N 0.62646 0.55242 0.85244 0.0
C308 C 0.61934 0.52353 0.88845 0.0
C309 C 0.59119 0.52109 0.92774 0.0
C310 C 0.13001 0.68222 0.4801 0.0
C311 C 0.11929 0.63898 0.48592 0.0
C312 C 0.16826 0.71441 0.45059 0.0
C313 C 0.19819 0.70527 0.42558 0.0
H314 H 0.10778 0.69117 0.49746 0.0
H315 H 0.17392 0.74674 0.44691 0.0
S316 S 0.18784 0.59807 0.43016 0.0
N317 N 0.14365 0.58941 0.46536 0.0
N318 N 0.21552 0.64996 0.41019 0.0
C319 C 0.18917 0.6627 0.43225 0.0
C320 C 0.14983 0.62964 0.46222 0.0
C321 C 0.42191 0.05705 0.89 0.0
C322 C 0.4636 0.05523 0.89475 0.0
C323 C 0.4236 0.0913 0.86303 0.0
C324 C 0.46716 0.12503 0.8403 0.0
H325 H 0.38852 0.03302 0.9089 0.0
H326 H 0.39132 0.09243 0.86166 0.0
S327 S 0.58381 0.13117 0.83558 0.0
N328 N 0.54741 0.08685 0.86938 0.0
N329 N 0.55118 0.15147 0.82015 0.0
C330 C 0.50812 0.12204 0.84276 0.0
C331 C 0.50619 0.08711 0.86958 0.0
C332 C 0.39835 0.52923 0.42826 0.0
C333 C 0.40332 0.49327 0.43316 0.0
C334 C 0.36322 0.52754 0.3967 0.0
C335 C 0.33109 0.48949 0.36958 0.0
H336 H 0.42309 0.55954 0.4474 0.0
H337 H 0.36158 0.55645 0.3932 0.0
S338 S 0.3274 0.38537 0.37209 0.0
N339 N 0.37198 0.41798 0.40982 0.0
N340 N 0.30574 0.41433 0.35164 0.0
C341 C 0.33469 0.45278 0.37567 0.0
C342 C 0.37083 0.45481 0.40711 0.0
C343 C 0.98414 0.41296 0.94175 0.0
C344 C 1.01182 0.44977 0.9103 0.0
C345 C 0.95158 0.36971 0.92484 0.0
C346 C 0.94632 0.36153 0.87592 0.0
H347 H 0.98606 0.41793 0.97972 0.0
H348 H 0.92851 0.34295 0.94998 0.0
S349 S 1.01046 0.44526 0.77857 0.0
N350 N 0.03202 0.47435 0.82769 0.0
N351 N 0.97179 0.39298 0.79619 0.0
C352 C 0.97548 0.3974 0.84423 0.0
C353 C 1.00821 0.44153 0.86133 0.0
C354 C 0.89542 0.54823 0.94187 0.0
C355 C 0.93844 0.58988 0.95209 0.0
C356 C 0.85852 0.54474 0.91159 0.0
C357 C 0.86293 0.58278 0.89069 0.0
H358 H 0.89141 0.51805 0.95521 0.0
H359 H 0.82686 0.51179 0.90353 0.0
S360 S 0.96641 0.69989 0.91099 0.0
N361 N 0.98172 0.67004 0.94218 0.0
N362 N 0.91261 0.66368 0.88612 0.0
C363 C 0.90469 0.62469 0.90295 0.0
C364 C 0.94231 0.62815 0.93336 0.0
C365 C 0.419 0.98675 0.44957 0.0
C366 C 0.4461 0.97704 0.4811 0.0
C367 C 0.37768 0.95309 0.42449 0.0
C368 C 0.36224 0.90842 0.42948 0.0
H369 H 0.43115 0.02094 0.44245 0.0
H370 H 0.35982 0.96255 0.39874 0.0
S371 S 0.41607 0.86434 0.5121 0.0
N372 N 0.45093 0.91863 0.51957 0.0
N373 N 0.37385 0.8556 0.47223 0.0
C374 C 0.38683 0.89787 0.46334 0.0
C375 C 0.42854 0.93207 0.48926 0.0
C376 C 0.54128 0.34423 0.97725 0.0
C377 C 0.49631 0.33971 0.9842 0.0
C378 C 0.54971 0.32864 0.93587 0.0
C379 C 0.51319 0.30722 0.90019 0.0
H380 H 0.5706 0.36095 1.00341 0.0
H381 H 0.58501 0.33318 0.932 0.0
S382 S 0.38859 0.28631 0.90225 0.0
N383 N 0.41479 0.31185 0.95253 0.0
N384 N 0.42997 0.28234 0.87529 0.0
C385 C 0.46787 0.30215 0.90721 0.0
C386 C 0.45962 0.31842 0.94899 0.0
C387 C 0.091 0.45581 0.42612 0.0
C388 C 0.04023 0.42829 0.41594 0.0
C389 C 0.1251 0.45375 0.39979 0.0
C390 C 0.10982 0.42365 0.36263 0.0
H391 H 0.10474 0.47983 0.45416 0.0
H392 H 0.16392 0.47682 0.40778 0.0
S393 S 0.98112 0.34288 0.32292 0.0
N394 N 0.9762 0.36896 0.36713 0.0
N395 N 0.04052 0.36442 0.31795 0.0
C396 C 0.05908 0.39431 0.35351 0.0
C397 C 1.02421 0.39675 0.38013 0.0
C398 C 0.70504 0.13067 0.96731 0.0
C399 C 0.6597 0.12196 0.98154 0.0
C400 C 0.73694 0.16743 0.93807 0.0
C401 C 0.72461 0.1969 0.92086 0.0
H402 H 0.71474 0.1073 0.97659 0.0
H403 H 0.77036 0.17114 0.92677 0.0
S404 S 0.61252 0.19197 0.95275 0.0
N405 N 0.6062 0.14838 0.98081 0.0
N406 N 0.66561 0.21722 0.92469 0.0
C407 C 0.68091 0.19049 0.93775 0.0
C408 C 0.6486 0.15311 0.96837 0.0
C409 C 0.63632 0.6958 0.44264 0.0
C410 C 0.64443 0.66563 0.42226 0.0
C411 C 0.64596 0.73368 0.41732 0.0
C412 C 0.66458 0.74305 0.37089 0.0
H413 H 0.61955 0.68858 0.47733 0.0
H414 H 0.63504 0.75382 0.43268 0.0
S415 S 0.69643 0.67693 0.30315 0.0
N416 N 0.67579 0.64951 0.35447 0.0
N417 N 0.69442 0.72116 0.30687 0.0
C418 C 0.677 0.71539 0.35171 0.0
C419 C 0.6668 0.67649 0.37744 0.0
C420 C 0.55706 0.179 0.60582 0.0
C421 C 0.60477 0.18937 0.60039 0.0
C422 C 0.54589 0.19712 0.64231 0.0
C423 C 0.58183 0.22619 0.67565 0.0
H424 H 0.52784 0.15596 0.58192 0.0
H425 H 0.50816 0.18728 0.64483 0.0
S426 S 0.71302 0.26407 0.67707 0.0
N427 N 0.68882 0.23097 0.631 0.0
N428 N 0.66785 0.26506 0.70004 0.0
C429 C 0.63023 0.2378 0.67 0.0
C430 C 0.6417 0.21943 0.63231 0.0
C431 C 0.34687 0.45606 0.11628 0.0
C432 C 0.34214 0.41523 0.11356 0.0
C433 C 0.31515 0.46027 0.14458 0.0
C434 C 0.2771 0.42372 0.17073 0.0
H435 H 0.37713 0.48568 0.09893 0.0
H436 H 0.32163 0.49283 0.14722 0.0
S437 S 0.24542 0.30821 0.17054 0.0
N438 N 0.29386 0.3367 0.13573 0.0
N439 N 0.23385 0.34429 0.18826 0.0
C440 C 0.26988 0.38201 0.16551 0.0
C441 C 0.30252 0.37788 0.13714 0.0
C442 C 0.93916 0.41261 0.65837 0.0
C443 C 0.94514 0.45382 0.6633 0.0
C444 C 0.90427 0.37485 0.68487 0.0
C445 C 0.87331 0.37622 0.71742 0.0
H446 H 0.96145 0.40925 0.6335 0.0
H447 H 0.90187 0.34424 0.68 0.0
S448 S 0.87426 0.47582 0.74505 0.0
N449 N 0.91701 0.49369 0.70413 0.0
N450 N 0.85155 0.42251 0.75399 0.0
C451 C 0.87863 0.41705 0.72289 0.0
C452 C 0.91459 0.45585 0.69604 0.0
C453 C 0.56341 0.88621 0.12905 0.0
C454 C 0.59307 0.90296 0.08848 0.0
C455 C 0.57132 0.86354 0.16517 0.0
C456 C 0.6098 0.85728 0.16261 0.0
H457 H 0.5339 0.8909 0.13286 0.0
H458 H 0.54749 0.8516 0.19587 0.0
S459 S 0.6975 0.89459 0.06299 0.0
N460 N 0.66159 0.91139 0.04676 0.0
N461 N 0.67757 0.86931 0.11547 0.0
C462 C 0.63976 0.87379 0.12198 0.0
C463 C 0.63101 0.89637 0.08463 0.0
C464 C 0.63651 0.61625 0.67161 0.0
C465 C 0.61335 0.58456 0.63563 0.0
C466 C 0.66989 0.61584 0.70394 0.0
C467 C 0.68132 0.58399 0.70077 0.0
H468 H 0.6283 0.64102 0.67513 0.0
H469 H 0.68593 0.63987 0.73209 0.0
S470 S 0.63738 0.49951 0.60713 0.0
N471 N 0.60878 0.52433 0.59521 0.0
N472 N 0.67108 0.52351 0.65518 0.0
C473 C 0.65999 0.5536 0.66345 0.0
C474 C 0.62615 0.55392 0.63103 0.0
C475 C 0.16561 0.75944 0.13674 0.0
C476 C 0.14783 0.71435 0.1317 0.0
C477 C 0.18557 0.78094 0.18041 0.0
C478 C 0.1892 0.75815 0.22006 0.0
H479 H 0.16442 0.77818 0.1066 0.0
H480 H 0.20036 0.81603 0.18244 0.0
S481 S 0.14786 0.63974 0.22513 0.0
N482 N 0.13496 0.64778 0.17019 0.0
N483 N 0.17222 0.68776 0.25157 0.0
C484 C 0.17065 0.71285 0.2155 0.0
C485 C 0.15009 0.69106 0.17151 0.0
loop_
_geom_bond_atom_site_label_1
_geom_bond_atom_site_label_2
_geom_bond_distance
_geom_bond_site_symmetry_2
_ccdc_geom_bond_type
Cu0 N1 1.999 1_554 S
Cu0 O6 1.974 1_554 S
Cu0 N11 1.985 1_655 S
Cu0 O20 1.959 1_655 S
N1 Cu0 1.999 1_556 S
N1 C3 1.263 . S
N1 C5 1.389 1_556 S
N2 C3 1.358 . S
N2 C4 1.400 . S
C3 N1 1.263 . S
C3 N2 1.358 . S
C3 H9 0.930 . S
C4 N2 1.400 . S
C4 C5 1.351 1_556 S
C4 H21 0.930 . S
C5 N1 1.389 1_554 S
C5 C4 1.351 1_554 S
C5 H10 0.930 . S
O6 Cu0 1.974 1_556 S
O6 C16 1.282 . S
C7 O8 1.261 . S
C7 O20 1.251 . S
O8 C7 1.261 . S
H9 C3 0.930 . S
H10 C5 0.930 . S
N11 Cu0 1.985 1_455 S
N11 C13 1.335 . S
N11 C14 1.390 . S
N12 C13 1.345 . S
N12 C15 1.336 . S
C13 N11 1.335 . S
C13 N12 1.345 . S
C13 H18 0.930 . S
C14 N11 1.390 . S
C14 C15 1.346 . S
C14 H19 0.930 1_554 S
C15 N12 1.336 . S
C15 C14 1.346 . S
C15 H22 0.929 . S
C16 O6 1.282 . S
C16 O17 1.216 1_655 S
O17 C16 1.216 1_455 S
H18 C13 0.930 . S
H19 C14 0.930 1_556 S
O20 Cu0 1.959 1_455 S
O20 C7 1.251 . S
H21 C4 0.930 . S
H22 C15 0.929 . S
Cu23 N24 1.999 . S
Cu23 O29 1.974 . S
Cu23 N34 1.985 1_565 S
Cu23 O43 1.959 1_565 S
N24 Cu23 1.999 . S
N24 C26 1.263 . S
N24 C28 1.389 . S
N25 C26 1.358 . S
N25 C27 1.400 . S
C26 N24 1.263 . S
C26 N25 1.358 . S
C26 H32 0.930 . S
C27 N25 1.400 . S
C27 C28 1.351 . S
C27 H44 0.930 . S
C28 N24 1.389 . S
C28 C27 1.351 . S
C28 H33 0.930 . S
O29 Cu23 1.974 . S
O29 C39 1.282 . S
C30 O31 1.261 . S
C30 O43 1.251 . S
O31 C30 1.261 . S
H32 C26 0.930 . S
H33 C28 0.930 . S
N34 Cu23 1.985 1_545 S
N34 C36 1.335 . S
N34 C37 1.390 . S
N35 C36 1.345 . S
N35 C38 1.336 . S
C36 N34 1.335 . S
C36 N35 1.345 . S
C36 H41 0.930 . S
C37 N34 1.390 . S
C37 C38 1.346 . S
C37 H42 0.930 . S
C38 N35 1.336 . S
C38 C37 1.346 . S
C38 H45 0.929 . S
C39 O29 1.282 . S
C39 O40 1.216 1_565 S
O40 C39 1.216 1_545 S
H41 C36 0.930 . S
H42 C37 0.930 . S
O43 Cu23 1.959 1_545 S
O43 C30 1.251 . S
H44 C27 0.930 . S
H45 C38 0.929 . S
Cu46 N47 1.999 . S
Cu46 O52 1.974 . S
Cu46 N57 1.985 1_556 S
Cu46 O66 1.959 1_556 S
N47 Cu46 1.999 . S
N47 C49 1.263 . S
N47 C51 1.389 . S
N48 C49 1.358 . S
N48 C50 1.400 . S
C49 N47 1.263 . S
C49 N48 1.358 . S
C49 H55 0.930 . S
C50 N48 1.400 . S
C50 C51 1.351 . S
C50 H67 0.930 . S
C51 N47 1.389 . S
C51 C50 1.351 . S
C51 H56 0.930 . S
O52 Cu46 1.974 . S
O52 C62 1.282 . S
C53 O54 1.261 . S
C53 O66 1.251 . S
O54 C53 1.261 . S
H55 C49 0.930 . S
H56 C51 0.930 . S
N57 Cu46 1.985 1_554 S
N57 C59 1.335 . S
N57 C60 1.390 . S
N58 C59 1.345 . S
N58 C61 1.336 . S
C59 N57 1.335 . S
C59 N58 1.345 . S
C59 H64 0.930 . S
C60 N57 1.390 . S
C60 C61 1.346 . S
C60 H65 0.930 . S
C61 N58 1.336 . S
C61 C60 1.346 . S
C61 H68 0.929 . S
C62 O52 1.282 . S
C62 O63 1.216 1_556 S
O63 C62 1.216 1_554 S
H64 C59 0.930 . S
H65 C60 0.930 . S
O66 Cu46 1.959 1_554 S
O66 C53 1.251 . S
H67 C50 0.930 . S
H68 C61 0.929 . S
Cu69 N70 1.999 1_655 S
Cu69 O75 1.974 1_655 S
Cu69 N80 1.985 . S
Cu69 O89 1.959 . S
N70 Cu69 1.999 1_455 S
N70 C72 1.263 . S
N70 C74 1.389 1_455 S
N71 C72 1.358 . S
N71 C73 1.400 . S
C72 N70 1.263 . S
C72 N71 1.358 . S
C72 H78 0.930 . S
C73 N71 1.400 . S
C73 C74 1.351 1_455 S
C73 H90 0.930 1_455 S
C74 N70 1.389 1_655 S
C74 C73 1.351 1_655 S
C74 H79 0.930 . S
O75 Cu69 1.974 1_455 S
O75 C85 1.282 . S
C76 O77 1.261 1_655 S
C76 O89 1.251 . S
O77 C76 1.261 1_455 S
H78 C72 0.930 . S
H79 C74 0.930 . S
N80 Cu69 1.985 . S
N80 C82 1.335 . S
N80 C83 1.390 . S
N81 C82 1.345 . S
N81 C84 1.336 . S
C82 N80 1.335 . S
C82 N81 1.345 . S
C82 H87 0.930 . S
C83 N80 1.390 . S
C83 C84 1.346 . S
C83 H88 0.930 1_655 S
C84 N81 1.336 . S
C84 C83 1.346 . S
C84 H91 0.929 . S
C85 O75 1.282 . S
C85 O86 1.216 . S
O86 C85 1.216 . S
H87 C82 0.930 . S
H88 C83 0.930 1_455 S
O89 Cu69 1.959 . S
O89 C76 1.251 . S
H90 C73 0.930 1_655 S
H91 C84 0.929 . S
Cu92 N93 1.999 1_554 S
Cu92 O98 1.974 1_554 S
Cu92 N103 1.985 1_545 S
Cu92 O112 1.959 1_545 S
N93 Cu92 1.999 1_556 S
N93 C95 1.263 . S
N93 C97 1.389 1_556 S
N94 C95 1.358 . S
N94 C96 1.400 . S
C95 N93 1.263 . S
C95 N94 1.358 . S
C95 H101 0.930 . S
C96 N94 1.400 . S
C96 C97 1.351 1_556 S
C96 H113 0.930 . S
C97 N93 1.389 1_554 S
C97 C96 1.351 1_554 S
C97 H102 0.930 . S
O98 Cu92 1.974 1_556 S
O98 C108 1.282 . S
C99 O100 1.261 . S
C99 O112 1.251 . S
O100 C99 1.261 . S
H101 C95 0.930 . S
H102 C97 0.930 . S
N103 Cu92 1.985 1_565 S
N103 C105 1.335 . S
N103 C106 1.390 . S
N104 C105 1.345 . S
N104 C107 1.336 . S
C105 N103 1.335 . S
C105 N104 1.345 . S
C105 H110 0.930 . S
C106 N103 1.390 . S
C106 C107 1.346 . S
C106 H111 0.937 . S
C107 N104 1.336 . S
C107 C106 1.346 . S
C107 H114 0.929 . S
C108 O98 1.282 . S
C108 O109 1.216 . S
O109 C108 1.216 . S
H110 C105 0.930 . S
H111 C106 0.937 . S
O112 Cu92 1.959 1_565 S
O112 C99 1.251 . S
H113 C96 0.930 . S
H114 C107 0.929 . S
Cu115 N116 1.999 . S
Cu115 O121 1.974 . S
Cu115 N126 1.985 . S
Cu115 O135 1.959 . S
N116 Cu115 1.999 . S
N116 C118 1.263 . S
N116 C120 1.389 . S
N117 C118 1.358 . S
N117 C119 1.400 . S
C118 N116 1.263 . S
C118 N117 1.358 . S
C118 H124 0.930 . S
C119 N117 1.400 . S
C119 C120 1.351 . S
C119 H136 0.930 . S
C120 N116 1.389 . S
C120 C119 1.351 . S
C120 H125 0.930 . S
O121 Cu115 1.974 . S
O121 C131 1.282 . S
C122 O123 1.261 . S
C122 O135 1.251 . S
O123 C122 1.261 . S
H124 C118 0.930 . S
H125 C120 0.930 . S
N126 Cu115 1.985 . S
N126 C128 1.335 . S
N126 C129 1.390 . S
N127 C128 1.345 . S
N127 C130 1.336 . S
C128 N126 1.335 . S
C128 N127 1.345 . S
C128 H133 0.930 . S
C129 N126 1.390 . S
C129 C130 1.346 . S
C129 H134 0.930 . S
C130 N127 1.336 . S
C130 C129 1.346 . S
C130 H137 0.929 . S
C131 O121 1.282 . S
C131 O132 1.216 . S
O132 C131 1.216 . S
H133 C128 0.930 . S
H134 C129 0.930 . S
O135 Cu115 1.959 . S
O135 C122 1.251 . S
H136 C119 0.930 . S
H137 C130 0.929 . S
C138 O140 1.247 . S
C138 O142 1.258 . S
C139 O146 1.247 . S
C139 O147 1.258 . S
O140 C138 1.247 . S
O140 Zn141 2.028 . S
Zn141 O140 2.028 . S
Zn141 O145 2.035 . S
Zn141 O147 2.035 . S
Zn141 O148 2.028 . S
O142 C138 1.258 . S
O142 Zn143 2.035 . S
Zn143 O142 2.035 . S
Zn143 O144 2.028 . S
Zn143 O146 2.028 . S
Zn143 O149 2.035 . S
O144 Zn143 2.028 . S
O144 C150 1.247 . S
O145 Zn141 2.035 . S
O145 C150 1.258 . S
O146 C139 1.247 . S
O146 Zn143 2.028 . S
O147 C139 1.258 . S
O147 Zn141 2.035 . S
O148 Zn141 2.028 . S
O148 C151 1.247 . S
O149 Zn143 2.035 . S
O149 C151 1.258 . S
C150 O144 1.247 . S
C150 O145 1.258 . S
C151 O148 1.247 . S
C151 O149 1.258 . S
C152 O154 1.247 . S
C152 O156 1.258 . S
C153 O160 1.247 . S
C153 O161 1.258 . S
O154 C152 1.247 . S
O154 Zn155 2.028 . S
Zn155 O154 2.028 . S
Zn155 O159 2.035 . S
Zn155 O161 2.035 . S
Zn155 O162 2.028 . S
O156 C152 1.258 . S
O156 Zn157 2.035 . S
Zn157 O156 2.035 . S
Zn157 O158 2.028 . S
Zn157 O160 2.028 . S
Zn157 O163 2.035 . S
O158 Zn157 2.028 . S
O158 C164 1.247 . S
O159 Zn155 2.035 . S
O159 C164 1.258 . S
O160 C153 1.247 . S
O160 Zn157 2.028 . S
O161 C153 1.258 . S
O161 Zn155 2.035 . S
O162 Zn155 2.028 . S
O162 C165 1.247 . S
O163 Zn157 2.035 . S
O163 C165 1.258 . S
C164 O158 1.247 . S
C164 O159 1.258 . S
C165 O162 1.247 . S
C165 O163 1.258 . S
C166 O168 1.247 . S
C166 O170 1.258 . S
C167 O174 1.247 . S
C167 O175 1.258 . S
O168 C166 1.247 . S
O168 Zn169 2.028 . S
Zn169 O168 2.028 . S
Zn169 O173 2.035 . S
Zn169 O175 2.035 . S
Zn169 O176 2.028 . S
O170 C166 1.258 . S
O170 Zn171 2.035 . S
Zn171 O170 2.035 . S
Zn171 O172 2.028 . S
Zn171 O174 2.028 . S
Zn171 O177 2.035 . S
O172 Zn171 2.028 . S
O172 C178 1.247 . S
O173 Zn169 2.035 . S
O173 C178 1.258 . S
O174 C167 1.247 . S
O174 Zn171 2.028 . S
O175 C167 1.258 . S
O175 Zn169 2.035 . S
O176 Zn169 2.028 . S
O176 C179 1.247 . S
O177 Zn171 2.035 . S
O177 C179 1.258 . S
C178 O172 1.247 . S
C178 O173 1.258 . S
C179 O176 1.247 . S
C179 O177 1.258 . S
C180 O182 1.247 . S
C180 O184 1.258 . S
C181 O188 1.247 . S
C181 O189 1.258 . S
O182 C180 1.247 . S
O182 Zn183 2.028 . S
Zn183 O182 2.028 . S
Zn183 O187 2.035 . S
Zn183 O189 2.035 . S
Zn183 O190 2.028 . S
O184 C180 1.258 . S
O184 Zn185 2.035 . S
Zn185 O184 2.035 . S
Zn185 O186 2.028 . S
Zn185 O188 2.028 . S
Zn185 O191 2.035 . S
O186 Zn185 2.028 . S
O186 C192 1.247 . S
O187 Zn183 2.035 . S
O187 C192 1.258 . S
O188 C181 1.247 . S
O188 Zn185 2.028 . S
O189 C181 1.258 . S
O189 Zn183 2.035 . S
O190 Zn183 2.028 . S
O190 C193 1.247 . S
O191 Zn185 2.035 . S
O191 C193 1.258 . S
C192 O186 1.247 . S
C192 O187 1.258 . S
C193 O190 1.247 . S
C193 O191 1.258 . S
C194 O196 1.247 . S
C194 O198 1.258 . S
C195 O202 1.247 . S
C195 O203 1.258 . S
O196 C194 1.247 . S
O196 Zn197 2.028 . S
Zn197 O196 2.028 . S
Zn197 O201 2.035 . S
Zn197 O203 2.035 . S
Zn197 O204 2.028 . S
O198 C194 1.258 . S
O198 Zn199 2.035 . S
Zn199 O198 2.035 . S
Zn199 O200 2.028 . S
Zn199 O202 2.028 . S
Zn199 O205 2.035 . S
O200 Zn199 2.028 . S
O200 C206 1.247 . S
O201 Zn197 2.035 . S
O201 C206 1.258 . S
O202 C195 1.247 . S
O202 Zn199 2.028 . S
O203 C195 1.258 . S
O203 Zn197 2.035 . S
O204 Zn197 2.028 . S
O204 C207 1.247 . S
O205 Zn199 2.035 . S
O205 C207 1.258 . S
C206 O200 1.247 . S
C206 O201 1.258 . S
C207 O204 1.247 . S
C207 O205 1.258 . S
C208 O210 1.247 . S
C208 O212 1.258 . S
C209 O216 1.247 . S
C209 O217 1.258 . S
O210 C208 1.247 . S
O210 Zn211 2.028 . S
Zn211 O210 2.028 . S
Zn211 O215 2.035 . S
Zn211 O217 2.035 . S
Zn211 O218 2.028 . S
O212 C208 1.258 . S
O212 Zn213 2.035 . S
Zn213 O212 2.035 . S
Zn213 O214 2.028 . S
Zn213 O216 2.028 . S
Zn213 O219 2.035 . S
O214 Zn213 2.028 . S
O214 C220 1.247 . S
O215 Zn211 2.035 . S
O215 C220 1.258 . S
O216 C209 1.247 . S
O216 Zn213 2.028 . S
O217 C209 1.258 . S
O217 Zn211 2.035 . S
O218 Zn211 2.028 . S
O218 C221 1.247 . S
O219 Zn213 2.035 . S
O219 C221 1.258 . S
C220 O214 1.247 . S
C220 O215 1.258 . S
C221 O218 1.247 . S
C221 O219 1.258 . S
C222 C223 1.369 . S
C222 C224 1.419 . S
C222 H226 0.930 . S
C223 C222 1.369 . S
C223 C232 1.429 . S
C224 C222 1.419 . S
C224 C225 1.363 . S
C224 H227 0.929 . S
C225 C224 1.363 . S
C225 C231 1.428 . S
H226 C222 0.930 . S
H227 C224 0.929 . S
S228 N229 1.613 . S
S228 N230 1.610 . S
N229 S228 1.613 . S
N229 C232 1.350 . S
N230 S228 1.610 . S
N230 C231 1.351 . S
C231 C225 1.428 . S
C231 N230 1.351 . S
C231 C232 1.434 . S
C232 C223 1.429 . S
C232 N229 1.350 . S
C232 C231 1.434 . S
C233 C234 1.369 . S
C233 C235 1.419 . S
C233 H237 0.930 . S
C234 C233 1.369 . S
C234 C243 1.429 . S
C235 C233 1.419 . S
C235 C236 1.363 . S
C235 H238 0.929 . S
C236 C235 1.363 . S
C236 C242 1.428 . S
H237 C233 0.930 . S
H238 C235 0.929 . S
S239 N240 1.613 . S
S239 N241 1.610 . S
N240 S239 1.613 . S
N240 C243 1.350 . S
N241 S239 1.610 . S
N241 C242 1.351 . S
C242 C236 1.428 . S
C242 N241 1.351 . S
C242 C243 1.434 . S
C243 C234 1.429 . S
C243 N240 1.350 . S
C243 C242 1.434 . S
C244 C245 1.369 . S
C244 C246 1.419 . S
C244 H248 0.930 . S
C245 C244 1.369 . S
C245 C254 1.429 . S
C246 C244 1.419 . S
C246 C247 1.363 . S
C246 H249 0.929 . S
C247 C246 1.363 . S
C247 C253 1.428 . S
H248 C244 0.930 . S
H249 C246 0.929 . S
S250 N251 1.613 . S
S250 N252 1.610 . S
N251 S250 1.613 . S
N251 C254 1.350 . S
N252 S250 1.610 . S
N252 C253 1.351 . S
C253 C247 1.428 . S
C253 N252 1.351 . S
C253 C254 1.434 . S
C254 C245 1.429 . S
C254 N251 1.350 . S
C254 C253 1.434 . S
C255 C256 1.369 . S
C255 C257 1.419 . S
C255 H259 0.930 . S
C256 C255 1.369 . S
C256 C265 1.429 . S
C257 C255 1.419 . S
C257 C258 1.363 . S
C257 H260 0.929 . S
C258 C257 1.363 . S
C258 C264 1.428 . S
H259 C255 0.930 . S
H260 C257 0.929 . S
S261 N262 1.613 1_455 S
S261 N263 1.610 1_455 S
N262 S261 1.613 1_655 S
N262 C265 1.350 . S
N263 S261 1.610 1_655 S
N263 C264 1.351 . S
C264 C258 1.428 . S
C264 N263 1.351 . S
C264 C265 1.434 . S
C265 C256 1.429 . S
C265 N262 1.350 . S
C265 C264 1.434 . S
C266 C267 1.369 . S
C266 C268 1.419 . S
C266 H270 0.930 . S
C267 C266 1.369 . S
C267 C276 1.429 . S
C268 C266 1.419 . S
C268 C269 1.363 . S
C268 H271 0.929 . S
C269 C268 1.363 . S
C269 C275 1.428 . S
H270 C266 0.930 . S
H271 C268 0.929 . S
S272 N273 1.613 1_545 S
S272 N274 1.610 1_545 S
N273 S272 1.613 1_565 S
N273 C276 1.350 . S
N274 S272 1.610 1_565 S
N274 C275 1.351 . S
C275 C269 1.428 . S
C275 N274 1.351 . S
C275 C276 1.434 . S
C276 C267 1.429 . S
C276 N273 1.350 . S
C276 C275 1.434 . S
C277 C278 1.369 . S
C277 C279 1.419 . S
C277 H281 0.930 . S
C278 C277 1.369 . S
C278 C287 1.429 . S
C279 C277 1.419 . S
C279 C280 1.363 . S
C279 H282 0.929 . S
C280 C279 1.363 . S
C280 C286 1.428 . S
H281 C277 0.930 . S
H282 C279 0.929 . S
S283 N284 1.613 . S
S283 N285 1.610 . S
N284 S283 1.613 . S
N284 C287 1.350 . S
N285 S283 1.610 . S
N285 C286 1.351 . S
C286 C280 1.428 . S
C286 N285 1.351 . S
C286 C287 1.434 . S
C287 C278 1.429 . S
C287 N284 1.350 . S
C287 C286 1.434 . S
C288 C289 1.369 . S
C288 C290 1.419 . S
C288 H292 0.930 . S
C289 C288 1.369 . S
C289 C298 1.429 . S
C290 C288 1.419 . S
C290 C291 1.363 . S
C290 H293 0.929 . S
C291 C290 1.363 . S
C291 C297 1.428 . S
H292 C288 0.930 . S
H293 C290 0.929 . S
S294 N295 1.613 . S
S294 N296 1.610 . S
N295 S294 1.613 . S
N295 C298 1.350 . S
N296 S294 1.610 . S
N296 C297 1.351 . S
C297 C291 1.428 . S
C297 N296 1.351 . S
C297 C298 1.434 . S
C298 C289 1.429 . S
C298 N295 1.350 . S
C298 C297 1.434 . S
C299 C300 1.369 . S
C299 C301 1.419 . S
C299 H303 0.930 . S
C300 C299 1.369 . S
C300 C309 1.429 . S
C301 C299 1.419 . S
C301 C302 1.363 . S
C301 H304 0.929 . S
C302 C301 1.363 . S
C302 C308 1.428 . S
H303 C299 0.930 . S
H304 C301 0.929 . S
S305 N306 1.613 . S
S305 N307 1.610 . S
N306 S305 1.613 . S
N306 C309 1.350 . S
N307 S305 1.610 . S
N307 C308 1.351 . S
C308 C302 1.428 . S
C308 N307 1.351 . S
C308 C309 1.434 . S
C309 C300 1.429 . S
C309 N306 1.350 . S
C309 C308 1.434 . S
C310 C311 1.369 . S
C310 C312 1.419 . S
C310 H314 0.930 . S
C311 C310 1.369 . S
C311 C320 1.429 . S
C312 C310 1.419 . S
C312 C313 1.363 . S
C312 H315 0.929 . S
C313 C312 1.363 . S
C313 C319 1.428 . S
H314 C310 0.930 . S
H315 C312 0.929 . S
S316 N317 1.613 . S
S316 N318 1.610 . S
N317 S316 1.613 . S
N317 C320 1.350 . S
N318 S316 1.610 . S
N318 C319 1.351 . S
C319 C313 1.428 . S
C319 N318 1.351 . S
C319 C320 1.434 . S
C320 C311 1.429 . S
C320 N317 1.350 . S
C320 C319 1.434 . S
C321 C322 1.369 . S
C321 C323 1.419 . S
C321 H325 0.930 . S
C322 C321 1.369 . S
C322 C331 1.429 . S
C323 C321 1.419 . S
C323 C324 1.363 . S
C323 H326 0.929 . S
C324 C323 1.363 . S
C324 C330 1.428 . S
H325 C321 0.930 . S
H326 C323 0.929 . S
S327 N328 1.613 . S
S327 N329 1.610 . S
N328 S327 1.613 . S
N328 C331 1.350 . S
N329 S327 1.610 . S
N329 C330 1.351 . S
C330 C324 1.428 . S
C330 N329 1.351 . S
C330 C331 1.434 . S
C331 C322 1.429 . S
C331 N328 1.350 . S
C331 C330 1.434 . S
C332 C333 1.369 . S
C332 C334 1.419 . S
C332 H336 0.930 . S
C333 C332 1.369 . S
C333 C342 1.429 . S
C334 C332 1.419 . S
C334 C335 1.363 . S
C334 H337 0.929 . S
C335 C334 1.363 . S
C335 C341 1.428 . S
H336 C332 0.930 . S
H337 C334 0.929 . S
S338 N339 1.613 . S
S338 N340 1.610 . S
N339 S338 1.613 . S
N339 C342 1.350 . S
N340 S338 1.610 . S
N340 C341 1.351 . S
C341 C335 1.428 . S
C341 N340 1.351 . S
C341 C342 1.434 . S
C342 C333 1.429 . S
C342 N339 1.350 . S
C342 C341 1.434 . S
C343 C344 1.369 . S
C343 C345 1.419 . S
C343 H347 0.930 . S
C344 C343 1.369 . S
C344 C353 1.429 . S
C345 C343 1.419 . S
C345 C346 1.363 . S
C345 H348 0.929 . S
C346 C345 1.363 . S
C346 C352 1.428 . S
H347 C343 0.930 . S
H348 C345 0.929 . S
S349 N350 1.613 . S
S349 N351 1.610 . S
N350 S349 1.613 . S
N350 C353 1.350 . S
N351 S349 1.610 . S
N351 C352 1.351 . S
C352 C346 1.428 . S
C352 N351 1.351 . S
C352 C353 1.434 . S
C353 C344 1.429 . S
C353 N350 1.350 . S
C353 C352 1.434 . S
C354 C355 1.369 . S
C354 C356 1.419 . S
C354 H358 0.930 . S
C355 C354 1.369 . S
C355 C364 1.429 . S
C356 C354 1.419 . S
C356 C357 1.363 . S
C356 H359 0.929 . S
C357 C356 1.363 . S
C357 C363 1.428 . S
H358 C354 0.930 . S
H359 C356 0.929 . S
S360 N361 1.613 . S
S360 N362 1.610 1_455 S
N361 S360 1.613 . S
N361 C364 1.350 1_455 S
N362 S360 1.610 1_655 S
N362 C363 1.351 . S
C363 C357 1.428 . S
C363 N362 1.351 . S
C363 C364 1.434 . S
C364 C355 1.429 . S
C364 N361 1.350 1_655 S
C364 C363 1.434 . S
C365 C366 1.369 . S
C365 C367 1.419 . S
C365 H369 0.930 . S
C366 C365 1.369 . S
C366 C375 1.429 . S
C367 C365 1.419 . S
C367 C368 1.363 . S
C367 H370 0.929 . S
C368 C367 1.363 . S
C368 C374 1.428 . S
H369 C365 0.930 . S
H370 C367 0.929 . S
S371 N372 1.613 . S
S371 N373 1.610 . S
N372 S371 1.613 . S
N372 C375 1.350 . S
N373 S371 1.610 . S
N373 C374 1.351 . S
C374 C368 1.428 . S
C374 N373 1.351 . S
C374 C375 1.434 . S
C375 C366 1.429 . S
C375 N372 1.350 . S
C375 C374 1.434 . S
C376 C377 1.369 . S
C376 C378 1.419 . S
C376 H380 0.930 . S
C377 C376 1.369 . S
C377 C386 1.429 . S
C378 C376 1.419 . S
C378 C379 1.363 . S
C378 H381 0.929 . S
C379 C378 1.363 . S
C379 C385 1.428 . S
H380 C376 0.930 . S
H381 C378 0.929 . S
S382 N383 1.613 . S
S382 N384 1.610 . S
N383 S382 1.613 . S
N383 C386 1.350 . S
N384 S382 1.610 . S
N384 C385 1.351 . S
C385 C379 1.428 . S
C385 N384 1.351 . S
C385 C386 1.434 . S
C386 C377 1.429 . S
C386 N383 1.350 . S
C386 C385 1.434 . S
C387 C388 1.369 . S
C387 C389 1.419 . S
C387 H391 0.930 . S
C388 C387 1.369 . S
C388 C397 1.429 . S
C389 C387 1.419 . S
C389 C390 1.363 . S
C389 H392 0.929 . S
C390 C389 1.363 . S
C390 C396 1.428 . S
H391 C387 0.930 . S
H392 C389 0.929 . S
S393 N394 1.613 1_655 S
S393 N395 1.610 1_655 S
N394 S393 1.613 1_455 S
N394 C397 1.350 . S
N395 S393 1.610 1_455 S
N395 C396 1.351 . S
C396 C390 1.428 . S
C396 N395 1.351 . S
C396 C397 1.434 . S
C397 C388 1.429 . S
C397 N394 1.350 . S
C397 C396 1.434 . S
C398 C399 1.369 . S
C398 C400 1.419 . S
C398 H402 0.930 . S
C399 C398 1.369 . S
C399 C408 1.429 . S
C400 C398 1.419 . S
C400 C401 1.363 . S
C400 H403 0.929 . S
C401 C400 1.363 . S
C401 C407 1.428 . S
H402 C398 0.930 . S
H403 C400 0.929 . S
S404 N405 1.613 . S
S404 N406 1.610 . S
N405 S404 1.613 . S
N405 C408 1.350 . S
N406 S404 1.610 . S
N406 C407 1.351 . S
C407 C401 1.428 . S
C407 N406 1.351 . S
C407 C408 1.434 . S
C408 C399 1.429 . S
C408 N405 1.350 . S
C408 C407 1.434 . S
C409 C410 1.369 . S
C409 C411 1.419 . S
C409 H413 0.930 . S
C410 C409 1.369 . S
C410 C419 1.429 . S
C411 C409 1.419 . S
C411 C412 1.363 . S
C411 H414 0.929 . S
C412 C411 1.363 . S
C412 C418 1.428 . S
H413 C409 0.930 . S
H414 C411 0.929 . S
S415 N416 1.613 . S
S415 N417 1.610 . S
N416 S415 1.613 . S
N416 C419 1.350 . S
N417 S415 1.610 . S
N417 C418 1.351 . S
C418 C412 1.428 . S
C418 N417 1.351 . S
C418 C419 1.434 . S
C419 C410 1.429 . S
C419 N416 1.350 . S
C419 C418 1.434 . S
C420 C421 1.369 . S
C420 C422 1.419 . S
C420 H424 0.930 . S
C421 C420 1.369 . S
C421 C430 1.429 . S
C422 C420 1.419 . S
C422 C423 1.363 . S
C422 H425 0.929 . S
C423 C422 1.363 . S
C423 C429 1.428 . S
H424 C420 0.930 . S
H425 C422 0.929 . S
S426 N427 1.613 . S
S426 N428 1.610 . S
N427 S426 1.613 . S
N427 C430 1.350 . S
N428 S426 1.610 . S
N428 C429 1.351 . S
C429 C423 1.428 . S
C429 N428 1.351 . S
C429 C430 1.434 . S
C430 C421 1.429 . S
C430 N427 1.350 . S
C430 C429 1.434 . S
C431 C432 1.369 . S
C431 C433 1.419 . S
C431 H435 0.930 . S
C432 C431 1.369 . S
C432 C441 1.429 . S
C433 C431 1.419 . S
C433 C434 1.363 . S
C433 H436 0.929 . S
C434 C433 1.363 . S
C434 C440 1.428 . S
H435 C431 0.930 . S
H436 C433 0.929 . S
S437 N438 1.613 . S
S437 N439 1.610 . S
N438 S437 1.613 . S
N438 C441 1.350 . S
N439 S437 1.610 . S
N439 C440 1.351 . S
C440 C434 1.428 . S
C440 N439 1.351 . S
C440 C441 1.434 . S
C441 C432 1.429 . S
C441 N438 1.350 . S
C441 C440 1.434 . S
C442 C443 1.369 . S
C442 C444 1.419 . S
C442 H446 0.930 . S
C443 C442 1.369 . S
C443 C452 1.429 . S
C444 C442 1.419 . S
C444 C445 1.363 . S
C444 H447 0.929 . S
C445 C444 1.363 . S
C445 C451 1.428 . S
H446 C442 0.930 . S
H447 C444 0.929 . S
S448 N449 1.613 . S
S448 N450 1.610 . S
N449 S448 1.613 . S
N449 C452 1.350 . S
N450 S448 1.610 . S
N450 C451 1.351 . S
C451 C445 1.428 . S
C451 N450 1.351 . S
C451 C452 1.434 . S
C452 C443 1.429 . S
C452 N449 1.350 . S
C452 C451 1.434 . S
C453 C454 1.369 . S
C453 C455 1.419 . S
C453 H457 0.930 . S
C454 C453 1.369 . S
C454 C463 1.429 . S
C455 C453 1.419 . S
C455 C456 1.363 . S
C455 H458 0.929 . S
C456 C455 1.363 . S
C456 C462 1.428 . S
H457 C453 0.930 . S
H458 C455 0.929 . S
S459 N460 1.613 . S
S459 N461 1.610 . S
N460 S459 1.613 . S
N460 C463 1.350 . S
N461 S459 1.610 . S
N461 C462 1.351 . S
C462 C456 1.428 . S
C462 N461 1.351 . S
C462 C463 1.434 . S
C463 C454 1.429 . S
C463 N460 1.350 . S
C463 C462 1.434 . S
C464 C465 1.369 . S
C464 C466 1.419 . S
C464 H468 0.930 . S
C465 C464 1.369 . S
C465 C474 1.429 . S
C466 C464 1.419 . S
C466 C467 1.363 . S
C466 H469 0.929 . S
C467 C466 1.363 . S
C467 C473 1.428 . S
H468 C464 0.930 . S
H469 C466 0.929 . S
S470 N471 1.613 . S
S470 N472 1.610 . S
N471 S470 1.613 . S
N471 C474 1.350 . S
N472 S470 1.610 . S
N472 C473 1.351 . S
C473 C467 1.428 . S
C473 N472 1.351 . S
C473 C474 1.434 . S
C474 C465 1.429 . S
C474 N471 1.350 . S
C474 C473 1.434 . S
C475 C476 1.369 . S
C475 C477 1.419 . S
C475 H479 0.930 . S
C476 C475 1.369 . S
C476 C485 1.429 . S
C477 C475 1.419 . S
C477 C478 1.363 . S
C477 H480 0.929 . S
C478 C477 1.363 . S
C478 C484 1.428 . S
H479 C475 0.930 . S
H480 C477 0.929 . S
S481 N482 1.613 . S
S481 N483 1.610 . S
N482 S481 1.613 . S
N482 C485 1.350 . S
N483 S481 1.610 . S
N483 C484 1.351 . S
C484 C478 1.428 . S
C484 N483 1.351 . S
C484 C485 1.434 . S
C485 C476 1.429 . S
C485 N482 1.350 . S
C485 C484 1.434 . S
C223 C7 1.818 . S
C225 C139 1.788 . S
C234 C30 1.601 . S
C236 C164 1.570 . S
C247 C167 1.644 . S
C245 N58 1.625 . S
C258 C193 1.448 . S
C256 N81 1.408 . S
C269 C194 1.729 . S
C267 C99 1.761 . S
C280 C221 1.433 . S
C278 N127 1.427 . S
C289 N25 1.649 . S
C291 C166 1.643 . S
C300 C62 1.606 . S
C302 C192 1.573 . S
C313 C195 1.741 . S
C311 C85 1.768 . S
C324 C220 1.445 . S
C322 N94 1.459 . S
C333 C131 1.794 . S
C335 C138 1.749 . S
C346 C165 1.446 . S
C344 N2 1.444 . S
C357 C180 1.756 . S
C355 C16 1.764 . S
C366 C39 1.565 . S
C368 C207 1.549 . S
C379 C208 1.642 . S
C377 N48 1.619 . S
C388 N71 1.411 . S
C390 C150 1.446 . S
C399 C108 1.745 . S
C401 C153 1.728 . S
C410 N117 1.411 . S
C412 C178 1.435 . S
C421 N35 1.614 . S
C423 C209 1.641 . S
C434 C151 1.574 . S
C432 C53 1.591 . S
C443 C76 1.792 . S
C445 C152 1.770 . S
C454 N104 1.407 . S
C456 C179 1.435 . S
C465 C122 1.746 . S
C467 C181 1.722 . S
C476 N12 1.398 . S
C478 C206 1.424 . S
